
###############################################################################
#
# This file contains modified crystal structure data generated from the
# MOF subset of the Cambridge Structural Database (CSD) v543 
# hosted by the Cambridge Crystallographic Data Centre (CCDC).
#
# This work is licensed under the Creative Commons
# Attribution-NonCommercial-ShareAlike 4.0 International License.
# To view a copy of this license, visit
# http://creativecommons.org/licenses/by-nc-sa/4.0/
# or send a letter to
# Creative Commons, PO Box 1866, Mountain View, CA 94042, USA.
#
# CIF created using the CSD Python API on 29 September 2022
# The structure has been converted into the P1 space group
# The structure has a 3D framework
# The original CSD entry SAXYUO is in the rhombohedral crystal system
# The original CSD entry SAXYUO is in a Sohncke space group
# The framework has been calculated to contain at least 10.0% void space
# The void calculation uses a probe of radius 1.32A, grid spacing 0.4
# H atom positions have been added when not included in the experimental data
#
###############################################################################

data_SAXYUO
_chemical_formula_moiety         '(C504 H648 Ca18 Cu72 N216 O367)n'
_symmetry_cell_setting           triclinic
_symmetry_space_group_name_H-M   'P 1'
_symmetry_Int_Tables_number      1
_space_group_name_Hall           'P 1'
loop_
_symmetry_equiv_pos_site_id
_symmetry_equiv_pos_as_xyz
1 x,y,z
_cell_length_a                   38.274(4)
_cell_length_b                   38.274(4)
_cell_length_c                   34.721(4)
_cell_angle_alpha                90
_cell_angle_beta                 90
_cell_angle_gamma                120
_cell_volume                     44048.4
loop_
_atom_site_label
_atom_site_type_symbol
_atom_site_fract_x
_atom_site_fract_y
_atom_site_fract_z
O3 O 0.4052(9) 0.0141(8) 0.3062(7)
O5 O 0.6234(12) 0.0350(10) 0.5002(12)
H16 H 0.6136 0.0095 0.3515
C20 C 0.5639(9) 0.0188(7) 0.3385(7)
H17 H 0.5692 0.0388 0.3590
H18 H 0.5767 0.0337 0.3145
H19 H 0.4917 0.0141 0.3685
C49 C 0.4464(8) 0.0104(7) 0.4710(7)
H38 H 0.4535 0.0377 0.4753
C52 C 0.5143(6) 0.0036(6) 0.4635(5)
H40 H 0.5296 0.0238 0.4449
H44 H 0.378169 0.00828923 0.297263
H45 H 0.4165 0.0374546 0.324107
H46 H 0.645615 0.0504281 0.481613
H47 H 0.610976 0.051389 0.507719
H52 H 0.436162 0.00311819 0.500707
C1 C 0.4058(9) 0.8752(7) 0.5871(11)
N1 N 0.4192(14) 0.8788(12) 0.6258(9)
H1 H 0.4076 0.8606 0.6440
C2 C 0.4546(13) 0.9171(13) 0.6300(6)
H2 H 0.4699 0.9275 0.6529
C3 C 0.4630(7) 0.9371(7) 0.5939(8)
H3 H 0.4850 0.9633 0.5884
N2 N 0.4328(7) 0.9112(7) 0.5674(6)
Cu1 Cu 0.61116(8) 0.86947(9) 0.53146(8)
Cu2 Cu 0.53590(10) 0.94453(9) 0.27623(8)
Cu3 Cu 0.41054(11) 0.92708(10) 0.52371(8)
Cu4 Cu 0.25601(11) 0.84968(10) 0.28400(8)
Cu5 Cu 0.26723(9) 0.89064(8) 0.46881(7)
Cu6 Cu 0.39923(9) 0.95659(9) 0.33865(7)
Cu7 Cu 0.63965(11) 0.90648(10) 0.33733(9)
Cu8 Cu 0.57269(11) 0.97260(11) 0.47040(9)
O1 O 0.6672(4) 0.9180(4) 0.5706(4)
O2 O 0.2620(6) 0.9412(5) 0.5024(5)
O4 O 0.7002(11) 0.9570(9) 0.3091(13)
O6 O 0.6129(6) 0.9549(7) 0.4626(6)
O7 O 0.5639(6) 0.9437(6) 0.5213(4)
O8 O 0.6131(9) 0.9362(7) 0.6126(5)
O9 O 0.5556(11) 0.9032(10) 0.6485(7)
O10 O 0.6016(4) 0.8719(4) 0.4137(4)
O11 O 0.6641(5) 0.9174(6) 0.3909(5)
O12 O 0.6236(7) 0.9473(8) 0.3484(6)
O13 O 0.6099(5) 0.8975(5) 0.2884(3)
O14 O 0.5830(4) 0.9955(5) 0.4181(4)
O15 O 0.5400(5) 0.9343(4) 0.3930(4)
O16 O 0.3763(6) 0.9160(7) 0.2960(4)
O17 O 0.3419(5) 0.9385(5) 0.3507(5)
O18 O 0.4130(5) 0.9880(5) 0.3891(4)
O19 O 0.4023(5) 0.9289(4) 0.4124(4)
O20 O 0.3531(10) 0.8562(12) 0.1810(7)
O21 O 0.3270(8) 0.8944(10) 0.1990(6)
O22 O 0.2545(5) 0.9080(5) 0.4197(4)
O23 O 0.2639(5) 0.8587(4) 0.3958(3)
O24 O 0.2915(7) 0.8752(5) 0.5122(4)
O25 O 0.3249(4) 0.9297(5) 0.4604(4)
O26 O 0.3171(12) 0.8414(15) 0.6313(7)
O27 O 0.3368(10) 0.8985(11) 0.6102(7)
O28 O 0.6017(6) 0.9469(7) 0.1955(5)
O29 O 0.5703(8) 0.8858(10) 0.1634(7)
N3 N 0.6294(6) 0.9075(6) 0.4883(5)
N4 N 0.6333(5) 0.8372(8) 0.5063(5)
N5 N 0.5778(8) 0.8929(7) 0.5488(6)
N6 N 0.5890(5) 0.8332(5) 0.5765(5)
N7 N 0.5826(7) 0.7934(7) 0.6263(6)
H4 H 0.5870 0.7783 0.6426
N8 N 0.5640(7) 0.9125(5) 0.2629(6)
N9 N 0.5757(7) 0.9625(6) 0.3213(6)
N10 N 0.4978(7) 0.9211(6) 0.2309(5)
N11 N 0.4604(6) 0.9186(6) 0.1859(9)
H5 H 0.4448 0.9239 0.1715
N12 N 0.5060(7) 0.9661(6) 0.3023(6)
N13 N 0.4533(6) 0.9683(6) 0.3290(6)
N14 N 0.3132(8) 0.8688(8) 0.2712(6)
N15 N 0.2794(7) 0.8951(5) 0.3233(4)
N16 N 0.2353(9) 0.8134(9) 0.2380(7)
N17 N 0.2134(15) 0.7890(14) 0.1865(7)
H6 H 0.2030 0.7891 0.1640
N18 N 0.2020(6) 0.8308(6) 0.3053(6)
N19 N 0.6367(8) 0.7877(6) 0.4806(6)
N20 N 0.3884(5) 0.9488(7) 0.4859(4)
N21 N 0.3505(9) 0.8886(7) 0.5377(6)
N22 N 0.4664(6) 0.9621(5) 0.5048(5)
N23 N 0.5251(7) 0.9786(8) 0.4811(6)
N24 N 0.1420(6) 0.7871(8) 0.3273(6)
C4 C 0.6122(10) 0.9336(14) 0.4868(7)
C5 C 0.5819(7) 0.9196(12) 0.5254(11)
C6 C 0.5515(9) 0.8869(11) 0.5780(7)
H7 H 0.5318 0.8956 0.5703
C7 C 0.5296(9) 0.8402(11) 0.5860(8)
H8 H 0.5083 0.8338 0.6053
H9 H 0.5160 0.8261 0.5619
C8 C 0.5533(7) 0.8233(9) 0.5990(11)
C9 C 0.5521(8) 0.8009(7) 0.6275(7)
H10 H 0.5319 0.7909 0.6470
C10 C 0.6040(8) 0.8118(9) 0.5975(10)
H11 H 0.6278 0.8114 0.5906
C11 C 0.5763(11) 0.9104(11) 0.6173(14)
C12 C 0.6180(7) 0.7981(8) 0.5072(7)
H12 H 0.5971 0.7800 0.5239
C13 C 0.6620(7) 0.8518(9) 0.4739(7)
C14 C 0.6861(7) 0.8983(8) 0.4692(5)
H13 H 0.7059 0.9047 0.4481
H14 H 0.7017 0.9100 0.4931
C15 C 0.6607(9) 0.9216(10) 0.4599(7)
H15 H 0.6777 0.9517 0.4585
C16 C 0.6385(9) 0.8995(9) 0.4179(8)
C17 C 0.5989(11) 0.9450(7) 0.3226(12)
C18 C 0.5904(8) 0.9142(9) 0.2902(7)
C19 C 0.5837(7) 0.9913(6) 0.3505(7)
C21 C 0.5192(7) 0.9930(7) 0.3324(6)
C22 C 0.4894(9) 0.9964(6) 0.3482(7)
C23 C 0.4668(8) 0.9515(7) 0.3034(8)
H20 H 0.4489 0.9301 0.2870
C24 C 0.5691(8) 0.9729(6) 0.3938(7)
C25 C 0.5544(11) 0.8861(10) 0.2309(15)
H21 H 0.5643 0.8668 0.2355
C26 C 0.5083(9) 0.8625(7) 0.2221(9)
H22 H 0.5036 0.8441 0.2002
H23 H 0.4942 0.8455 0.2447
C27 C 0.4884(10) 0.8876(7) 0.2123(10)
C28 C 0.4661(9) 0.8835(9) 0.1775(14)
H24 H 0.4578 0.8650 0.1566
C29 C 0.4790(7) 0.9406(7) 0.2147(6)
H25 H 0.4799 0.9646 0.2231
C30 C 0.3383(8) 0.8986(8) 0.2924(6)
C31 C 0.3210(9) 0.9130(9) 0.3248(6)
C32 C 0.3298(9) 0.8484(10) 0.2462(8)
H26 H 0.3544 0.8504 0.2584
C33 C 0.3428(15) 0.877(2) 0.2069(8)
C34 C 0.2985(13) 0.8048(12) 0.2403(12)
H27 H 0.3104 0.7920 0.2243
H28 H 0.2918 0.7912 0.2657
C35 C 0.2642(17) 0.7982(15) 0.2236(9)
C36 C 0.231(2) 0.770(2) 0.192(2)
H29 H 0.2263 0.7459 0.1802
C37 C 0.2108(16) 0.8086(19) 0.2153(12)
H30 H 0.1919 0.8176 0.2178
C38 C 0.2164(6) 0.8916(8) 0.3374(6)
H31 H 0.2042 0.9001 0.3578
H32 H 0.2162 0.9055 0.3135
C39 C 0.1910(6) 0.8501(7) 0.3316(7)
C40 C 0.2601(6) 0.8891(7) 0.3896(5)
C41 C 0.6628(10) 0.8227(8) 0.4586(7)
H33 H 0.6779 0.8237 0.4364
C42 C 0.3448(8) 0.9238(5) 0.4842(6)
C43 C 0.3277(9) 0.8926(9) 0.5151(6)
C44 C 0.3344(11) 0.8549(10) 0.5654(11)
H34 H 0.3085 0.8332 0.5543
C45 C 0.3607(17) 0.8383(18) 0.5681(16)
H35 H 0.3652 0.8302 0.5423
H36 H 0.3486 0.8142 0.5850
C46 C 0.3248(13) 0.8663(13) 0.5995(12)
C47 C 0.4081(7) 0.9808(5) 0.4580(7)
H37 H 0.3916 0.9943 0.4563
C48 C 0.4063(7) 0.9623(7) 0.4170(7)
C50 C 0.4772(6) 0.9939(5) 0.4778(6)
C51 C 0.4944(9) 0.9530(10) 0.5027(6)
H39 H 0.4932 0.9305 0.5154
C53 C 0.1559(8) 0.8241(11) 0.3454(6)
H41 H 0.1418 0.8295 0.3649
C54 C 0.1686(9) 0.7911(13) 0.3044(7)
H42 H 0.1667 0.7701 0.2882
C55 C 0.2584(7) 0.9065(6) 0.3479(7)
H43 H 0.2726 0.9367 0.3492
C56 C 0.5783(10) 0.9156(12) 0.1926(9)
O30 O 0.2566(8) 0.7952(6) 0.3273(7)
O31 O 0.4118(6) 0.8717(6) 0.4807(6)
Cu9 Cu 0.72214(9) 0.92470(13) 0.60956(8)
Cu10 Cu 0.62341(12) 0.73277(9) 0.46881(7)
Cu11 Cu 0.09352(10) 0.73317(15) 0.33733(9)
O32 O 0.5841(6) 0.9995(4) 0.2373(4)
N25 N 0.2123(6) 0.8490(10) 0.4806(6)
N26 N 0.6451(10) 0.8580(6) 0.3273(6)
H48 H 0.234412 0.937071 0.499119
H49 H 0.267322 0.939803 0.530187
H50 H 0.722019 0.950627 0.313696
H51 H 0.696208 0.958047 0.280955
H55 H 0.394535 0.844771 0.492511
H56 H 0.401424 0.87227 0.454632
H63 H 0.277267 0.808373 0.347766
H64 H 0.229638 0.778669 0.339305
C1_2 C 0.1248(7) 0.5306(11) 0.5871(11)
N1_2 N 0.1212(12) 0.5404(18) 0.6258(9)
H1_2 H 0.1394 0.5470 0.6440
C2_2 C 0.0829(13) 0.5375(18) 0.6300(6)
H2_2 H 0.0725 0.5424 0.6529
C3_2 C 0.0629(7) 0.5259(10) 0.5939(8)
H3_2 H 0.0367 0.5217 0.5884
N2_2 N 0.0888(7) 0.5216(10) 0.5674(6)
Cu1_2 Cu 0.13053(9) 0.74169(12) 0.53146(8)
Cu2_2 Cu 0.05547(9) 0.59137(13) 0.27623(8)
Cu3_2 Cu 0.07292(10) 0.48346(15) 0.52371(8)
Cu4_2 Cu 0.15032(10) 0.40633(15) 0.28400(8)
Cu5_2 Cu 0.10936(8) 0.37659(12) 0.46881(7)
Cu6_2 Cu 0.04341(9) 0.44264(13) 0.33865(7)
Cu8_2 Cu 0.02740(11) 0.60009(16) 0.47040(9)
O1_2 O 0.0820(4) 0.7492(6) 0.5706(4)
O2_2 O 0.0588(5) 0.3208(8) 0.5024(5)
O4_2 O 0.0430(9) 0.7432(14) 0.3091(13)
O6_2 O 0.0451(7) 0.6580(9) 0.4626(6)
O7_2 O 0.0563(6) 0.6202(8) 0.5213(4)
O8_2 O 0.0638(7) 0.6769(11) 0.6126(5)
O9_2 O 0.0968(10) 0.6524(15) 0.6485(7)
O10_2 O 0.1281(4) 0.7297(6) 0.4137(4)
O11_2 O 0.0826(6) 0.7467(8) 0.3909(5)
O12_2 O 0.0527(8) 0.6763(11) 0.3484(6)
O13_2 O 0.1025(5) 0.7124(7) 0.2884(3)
O14_2 O 0.0045(5) 0.5875(6) 0.4181(4)
O15_2 O 0.0657(4) 0.6057(6) 0.3930(4)
O16_2 O 0.0840(7) 0.4603(9) 0.2960(4)
O17_2 O 0.0615(5) 0.4034(7) 0.3507(5)
O18_2 O 0.0120(5) 0.4250(7) 0.3891(4)
O19_2 O 0.0711(4) 0.4734(6) 0.4124(4)
O20_2 O 0.1438(12) 0.4969(16) 0.1810(7)
O21_2 O 0.1056(10) 0.4326(13) 0.1990(6)
O22_2 O 0.0920(5) 0.3465(7) 0.4197(4)
O23_2 O 0.1413(4) 0.4052(6) 0.3958(3)
O24_2 O 0.1248(5) 0.4163(9) 0.5122(4)
O25_2 O 0.0703(5) 0.3952(6) 0.4604(4)
O26_2 O 0.1586(15) 0.4757(19) 0.6313(7)
O27_2 O 0.1015(11) 0.4383(15) 0.6102(7)
O28_2 O 0.0531(7) 0.6548(9) 0.1955(5)
O29_2 O 0.1142(10) 0.6845(13) 0.1634(7)
N3_2 N 0.0925(6) 0.7219(8) 0.4883(5)
N4_2 N 0.1628(8) 0.7961(9) 0.5063(5)
N5_2 N 0.1071(7) 0.6849(11) 0.5488(6)
N6_2 N 0.1668(5) 0.7558(7) 0.5765(5)
N7_2 N 0.2066(7) 0.7892(10) 0.6263(6)
H4_2 H 0.2217 0.8087 0.6426
N8_2 N 0.0875(5) 0.6515(9) 0.2629(6)
N9_2 N 0.0375(6) 0.6132(9) 0.3213(6)
N10_2 N 0.0789(6) 0.5767(9) 0.2309(5)
N11_2 N 0.0814(6) 0.5418(8) 0.1859(9)
H5_2 H 0.0761 0.5209 0.1715
N12_2 N 0.0339(6) 0.5399(9) 0.3023(6)
N13_2 N 0.0317(6) 0.4850(8) 0.3290(6)
N14_2 N 0.1312(8) 0.4444(11) 0.2712(6)
N15_2 N 0.1049(5) 0.3843(9) 0.3233(4)
N16_2 N 0.1866(9) 0.4219(13) 0.2380(7)
N17_2 N 0.2110(14) 0.4244(21) 0.1865(7)
H6_2 H 0.2109 0.4139 0.1640
N18_2 N 0.1692(6) 0.3712(8) 0.3053(6)
N20_2 N 0.0512(7) 0.4396(9) 0.4859(4)
N21_2 N 0.1114(7) 0.4619(11) 0.5377(6)
N22_2 N 0.0379(5) 0.5043(8) 0.5048(5)
N23_2 N 0.0214(8) 0.5465(11) 0.4811(6)
N24_2 N 0.2129(8) 0.3549(10) 0.3273(6)
C4_2 C 0.0664(14) 0.6786(17) 0.4868(7)
C5_2 C 0.0804(12) 0.6623(14) 0.5254(11)
C6_2 C 0.1131(11) 0.6646(14) 0.5780(7)
H7_2 H 0.1044 0.6362 0.5703
C7_2 C 0.1598(11) 0.6894(14) 0.5860(8)
H8_2 H 0.1662 0.6745 0.6053
H9_2 H 0.1739 0.6899 0.5619
C8_2 C 0.1767(9) 0.7300(11) 0.5990(11)
C9_2 C 0.1991(7) 0.7512(11) 0.6275(7)
H10_2 H 0.2091 0.7410 0.6470
C10_2 C 0.1882(9) 0.7922(12) 0.5975(10)
H11_2 H 0.1886 0.8164 0.5906
C11_2 C 0.0896(11) 0.6659(16) 0.6173(14)
C12_2 C 0.2019(8) 0.8199(11) 0.5072(7)
H12_2 H 0.2200 0.8171 0.5239
C13_2 C 0.1482(9) 0.8102(11) 0.4739(7)
C14_2 C 0.1017(8) 0.7878(11) 0.4692(5)
H13_2 H 0.0953 0.8012 0.4481
H14_2 H 0.0900 0.7917 0.4931
C15_2 C 0.0784(10) 0.7391(13) 0.4599(7)
H15_2 H 0.0483 0.7260 0.4585
C16_2 C 0.1005(9) 0.7390(13) 0.4179(8)
C17_2 C 0.0550(7) 0.6539(13) 0.3226(12)
C18_2 C 0.0858(9) 0.6762(12) 0.2902(7)
C19_2 C 0.0087(6) 0.5924(9) 0.3505(7)
C21_2 C 0.0070(7) 0.5262(10) 0.3324(6)
C22_2 C 0.0036(6) 0.4930(11) 0.3482(7)
C23_2 C 0.0485(7) 0.5153(11) 0.3034(8)
H20_2 H 0.0699 0.5188 0.2870
C24_2 C 0.0271(6) 0.5962(10) 0.3938(7)
C25_2 C 0.1139(10) 0.6683(15) 0.2309(15)
H21_2 H 0.1332 0.6975 0.2355
C26_2 C 0.1375(7) 0.6458(11) 0.2221(9)
H22_2 H 0.1559 0.6595 0.2002
H23_2 H 0.1545 0.6487 0.2447
C27_2 C 0.1124(7) 0.6008(12) 0.2123(10)
C28_2 C 0.1165(9) 0.5826(13) 0.1775(14)
H24_2 H 0.1350 0.5928 0.1566
C29_2 C 0.0594(7) 0.5384(10) 0.2147(6)
H25_2 H 0.0354 0.5153 0.2231
C30_2 C 0.1014(8) 0.4397(11) 0.2924(6)
C31_2 C 0.0870(9) 0.4080(13) 0.3248(6)
C32_2 C 0.1516(10) 0.4814(13) 0.2462(8)
H26_2 H 0.1496 0.5040 0.2584
C33_2 C 0.123(2) 0.4658(25) 0.2069(8)
C34_2 C 0.1952(12) 0.4937(18) 0.2403(12)
H27_2 H 0.2080 0.5184 0.2243
H28_2 H 0.2088 0.5006 0.2657
C35_2 C 0.2018(15) 0.4660(23) 0.2236(9)
C36_2 C 0.230(2) 0.461(3) 0.192(2)
H29_2 H 0.2541 0.4804 0.1802
C37_2 C 0.1914(19) 0.4022(25) 0.2153(12)
H30_2 H 0.1824 0.3743 0.2178
C38_2 C 0.1084(8) 0.3248(10) 0.3374(6)
H31_2 H 0.0999 0.3041 0.3578
H32_2 H 0.0945 0.3107 0.3135
C39_2 C 0.1499(7) 0.3409(9) 0.3316(7)
C40_2 C 0.1109(7) 0.3710(9) 0.3896(5)
C41_2 C 0.1773(8) 0.8401(13) 0.4586(7)
H33_2 H 0.1763 0.8542 0.4364
C42_2 C 0.0762(5) 0.4210(9) 0.4842(6)
C43_2 C 0.1074(9) 0.4351(13) 0.5151(6)
C44_2 C 0.1451(10) 0.4795(15) 0.5654(11)
H34_2 H 0.1668 0.4753 0.5543
C45_2 C 0.1617(18) 0.5224(25) 0.5681(16)
H35_2 H 0.1698 0.5350 0.5423
H36_2 H 0.1858 0.5344 0.5850
C46_2 C 0.1337(13) 0.4585(18) 0.5995(12)
C47_2 C 0.0192(5) 0.4273(9) 0.4580(7)
H37_2 H 0.0057 0.3973 0.4563
C48_2 C 0.0377(7) 0.4440(10) 0.4170(7)
C50_2 C 0.0061(5) 0.4833(8) 0.4778(6)
C51_2 C 0.0470(10) 0.5414(13) 0.5027(6)
H39_2 H 0.0695 0.5627 0.5154
C53_2 C 0.1759(11) 0.3318(14) 0.3454(6)
H41_2 H 0.1705 0.3123 0.3649
C54_2 C 0.2089(13) 0.3775(16) 0.3044(7)
H42_2 H 0.2299 0.3966 0.2882
C55_2 C 0.0935(6) 0.3519(9) 0.3479(7)
H43_2 H 0.0633 0.3359 0.3492
C56_2 C 0.0844(12) 0.6627(16) 0.1926(9)
O30_2 O 0.2048(6) 0.4614(10) 0.3273(7)
O31_2 O 0.1283(6) 0.5401(8) 0.4807(6)
Cu9_2 Cu 0.07530(13) 0.79743(16) 0.60956(8)
Cu11_2 Cu 0.26683(15) 0.36035(18) 0.33733(9)
O32_2 O 0.0005(4) 0.5847(7) 0.2373(4)
N25_2 N 0.1510(10) 0.3633(12) 0.4806(6)
H48_2 H 0.0629287 0.29734 0.499119
H49_2 H 0.0601968 0.327519 0.530187
H50_2 H 0.0493734 0.771392 0.313696
H51_2 H 0.0419525 0.73816 0.280955
H55_2 H 0.155229 0.549764 0.492511
H56_2 H 0.12773 0.529155 0.454632
H63_2 H 0.191627 0.468895 0.347766
H64_2 H 0.221331 0.450969 0.339305
C1_3 C 0.4694(11) 0.5942(9) 0.5871(11)
N1_3 N 0.4596(18) 0.5808(14) 0.6258(9)
H1_3 H 0.4530 0.5924 0.6440
C2_3 C 0.4625(18) 0.5454(13) 0.6300(6)
H2_3 H 0.4576 0.5301 0.6529
C3_3 C 0.4741(10) 0.5370(7) 0.5939(8)
H3_3 H 0.4783 0.5150 0.5884
N2_3 N 0.4784(10) 0.5672(7) 0.5674(6)
Cu1_3 Cu 0.25831(12) 0.38884(8) 0.53146(8)
Cu2_3 Cu 0.40863(13) 0.46410(10) 0.27623(8)
Cu3_3 Cu 0.51654(15) 0.58946(11) 0.52371(8)
Cu4_3 Cu 0.59367(15) 0.74399(11) 0.28400(8)
Cu6_3 Cu 0.55736(13) 0.60077(9) 0.33865(7)
Cu8_3 Cu 0.39991(16) 0.42731(11) 0.47040(9)
O1_3 O 0.2508(6) 0.3328(4) 0.5706(4)
O2_3 O 0.6792(8) 0.7380(6) 0.5024(5)
O3_2 O 0.6089(12) 0.5948(9) 0.3062(7)
O4_3 O 0.2568(14) 0.2998(11) 0.3091(13)
O5_2 O 0.4116(16) 0.3766(12) 0.5002(12)
O6_3 O 0.3420(9) 0.3871(6) 0.4626(6)
O7_3 O 0.3798(8) 0.4361(6) 0.5213(4)
O8_3 O 0.3231(11) 0.3869(9) 0.6126(5)
O9_3 O 0.3476(15) 0.4444(11) 0.6485(7)
O10_3 O 0.2703(6) 0.3984(4) 0.4137(4)
O11_3 O 0.2533(8) 0.3359(5) 0.3909(5)
O12_3 O 0.3237(11) 0.3764(7) 0.3484(6)
O13_3 O 0.2876(7) 0.3901(5) 0.2884(3)
O14_3 O 0.4125(6) 0.4170(4) 0.4181(4)
O15_3 O 0.3943(6) 0.4600(5) 0.3930(4)
O16_3 O 0.5397(9) 0.6237(6) 0.2960(4)
O17_3 O 0.5966(7) 0.6581(5) 0.3507(5)
O18_3 O 0.5750(7) 0.5870(5) 0.3891(4)
O19_3 O 0.5266(6) 0.5977(5) 0.4124(4)
O20_3 O 0.5031(16) 0.6469(10) 0.1810(7)
O21_3 O 0.5674(13) 0.6730(8) 0.1990(6)
O22_3 O 0.6535(7) 0.7455(5) 0.4197(4)
O23_3 O 0.5948(6) 0.7361(5) 0.3958(3)
O24_3 O 0.5837(9) 0.7085(7) 0.5122(4)
O25_3 O 0.6048(6) 0.6751(4) 0.4604(4)
O26_3 O 0.5243(19) 0.6829(12) 0.6313(7)
O27_3 O 0.5617(15) 0.6632(10) 0.6102(7)
O28_3 O 0.3452(9) 0.3983(6) 0.1955(5)
O29_3 O 0.3155(13) 0.4297(8) 0.1634(7)
N3_3 N 0.2781(8) 0.3706(6) 0.4883(5)
N4_3 N 0.2039(9) 0.3667(5) 0.5063(5)
N5_3 N 0.3151(11) 0.4222(8) 0.5488(6)
N6_3 N 0.2442(7) 0.4110(5) 0.5765(5)
N7_3 N 0.2108(10) 0.4174(7) 0.6263(6)
H4_3 H 0.1913 0.4130 0.6426
N8_3 N 0.3485(9) 0.4360(7) 0.2629(6)
N9_3 N 0.3868(9) 0.4243(7) 0.3213(6)
N10_3 N 0.4233(9) 0.5022(7) 0.2309(5)
N11_3 N 0.4582(8) 0.5396(6) 0.1859(9)
H5_3 H 0.4791 0.5552 0.1715
N12_3 N 0.4601(9) 0.4940(7) 0.3023(6)
N13_3 N 0.5150(8) 0.5467(6) 0.3290(6)
N14_3 N 0.5556(11) 0.6868(8) 0.2712(6)
N15_3 N 0.6157(9) 0.7206(7) 0.3233(4)
N16_3 N 0.5781(13) 0.7647(9) 0.2380(7)
N17_3 N 0.5756(21) 0.7866(15) 0.1865(7)
H6_3 H 0.5861 0.7970 0.1640
N18_3 N 0.6288(8) 0.7980(6) 0.3053(6)
N20_3 N 0.5604(9) 0.6116(5) 0.4859(4)
N21_3 N 0.5381(11) 0.6495(9) 0.5377(6)
N22_3 N 0.4957(8) 0.5336(6) 0.5048(5)
N23_3 N 0.4535(11) 0.4749(7) 0.4811(6)
C4_3 C 0.3214(17) 0.3878(10) 0.4868(7)
C5_3 C 0.3377(14) 0.4181(7) 0.5254(11)
C6_3 C 0.3354(14) 0.4485(9) 0.5780(7)
H7_3 H 0.3638 0.4682 0.5703
C7_3 C 0.3106(14) 0.4704(9) 0.5860(8)
H8_3 H 0.3255 0.4917 0.6053
H9_3 H 0.3101 0.4840 0.5619
C8_3 C 0.2700(11) 0.4467(7) 0.5990(11)
C9_3 C 0.2488(11) 0.4479(8) 0.6275(7)
H10_3 H 0.2590 0.4681 0.6470
C10_3 C 0.2078(12) 0.3960(8) 0.5975(10)
H11_3 H 0.1836 0.3722 0.5906
C11_3 C 0.3341(16) 0.4237(11) 0.6173(14)
C12_3 C 0.1801(11) 0.3820(7) 0.5072(7)
H12_3 H 0.1829 0.4029 0.5239
C13_3 C 0.1898(11) 0.3380(7) 0.4739(7)
C14_3 C 0.2122(11) 0.3139(7) 0.4692(5)
H13_3 H 0.1988 0.2941 0.4481
H14_3 H 0.2083 0.2983 0.4931
C15_3 C 0.2609(13) 0.3393(9) 0.4599(7)
H15_3 H 0.2740 0.3223 0.4585
C16_3 C 0.2610(13) 0.3615(9) 0.4179(8)
C17_3 C 0.3461(13) 0.4011(11) 0.3226(12)
C18_3 C 0.3238(12) 0.4096(8) 0.2902(7)
C19_3 C 0.4076(9) 0.4163(7) 0.3505(7)
H16_2 H 0.3959 0.3864 0.3515
C20_2 C 0.4549(11) 0.4361(9) 0.3385(7)
H17_2 H 0.4696 0.4308 0.3590
H18_2 H 0.4570 0.4233 0.3145
C21_3 C 0.4738(10) 0.4808(7) 0.3324(6)
C22_3 C 0.5070(11) 0.5106(9) 0.3482(7)
H19_2 H 0.5224 0.5083 0.3685
C23_3 C 0.4847(11) 0.5332(8) 0.3034(8)
H20_3 H 0.4812 0.5511 0.2870
C24_3 C 0.4038(10) 0.4309(8) 0.3938(7)
C25_3 C 0.3317(15) 0.4456(11) 0.2309(15)
H21_3 H 0.3025 0.4357 0.2355
C26_3 C 0.3542(11) 0.4917(9) 0.2221(9)
H22_3 H 0.3405 0.4964 0.2002
H23_3 H 0.3513 0.5058 0.2447
C27_3 C 0.3992(12) 0.5116(10) 0.2123(10)
C28_3 C 0.4174(13) 0.5339(9) 0.1775(14)
H24_3 H 0.4072 0.5422 0.1566
C29_3 C 0.4616(10) 0.5210(7) 0.2147(6)
H25_3 H 0.4847 0.5201 0.2231
C30_3 C 0.5603(11) 0.6617(8) 0.2924(6)
C31_3 C 0.5920(13) 0.6790(9) 0.3248(6)
C32_3 C 0.5186(13) 0.6702(9) 0.2462(8)
H26_3 H 0.4960 0.6456 0.2584
C33_3 C 0.5342(25) 0.6572(15) 0.2069(8)
C34_3 C 0.5063(18) 0.7015(13) 0.2403(12)
H27_3 H 0.4816 0.6896 0.2243
H28_3 H 0.4994 0.7082 0.2657
C35_3 C 0.5340(23) 0.7358(17) 0.2236(9)
C36_3 C 0.539(3) 0.769(2) 0.192(2)
H29_3 H 0.5196 0.7737 0.1802
C37_3 C 0.5978(25) 0.7892(16) 0.2153(12)
H30_3 H 0.6257 0.8081 0.2178
C38_3 C 0.6752(10) 0.7836(6) 0.3374(6)
H31_3 H 0.6959 0.7958 0.3578
H32_3 H 0.6893 0.7838 0.3135
C39_3 C 0.6591(9) 0.8090(6) 0.3316(7)
C40_3 C 0.6290(9) 0.7399(6) 0.3896(5)
C41_3 C 0.1599(13) 0.3372(10) 0.4586(7)
H33_3 H 0.1458 0.3221 0.4364
C42_3 C 0.5790(9) 0.6552(8) 0.4842(6)
C43_3 C 0.5649(13) 0.6723(9) 0.5151(6)
C44_3 C 0.5205(15) 0.6656(11) 0.5654(11)
H34_3 H 0.5247 0.6915 0.5543
C45_3 C 0.4776(25) 0.6393(17) 0.5681(16)
H35_3 H 0.4650 0.6348 0.5423
H36_3 H 0.4656 0.6514 0.5850
C46_3 C 0.5415(18) 0.6752(13) 0.5995(12)
C47_3 C 0.5727(9) 0.5919(7) 0.4580(7)
H37_3 H 0.6027 0.6084 0.4563
C48_3 C 0.5560(10) 0.5937(7) 0.4170(7)
C49_2 C 0.5640(11) 0.5536(8) 0.4710(7)
H38_2 H 0.5842 0.5465 0.4753
C50_3 C 0.5167(8) 0.5228(6) 0.4778(6)
C51_3 C 0.4586(13) 0.5056(9) 0.5027(6)
H39_3 H 0.4373 0.5068 0.5154
C52_2 C 0.4893(8) 0.4857(6) 0.4635(5)
H40_2 H 0.4942 0.4704 0.4449
C53_3 C 0.6682(14) 0.8441(8) 0.3454(6)
H41_3 H 0.6877 0.8582 0.3649
C54_3 C 0.6225(16) 0.8314(9) 0.3044(7)
H42_3 H 0.6034 0.8333 0.2882
C55_3 C 0.6481(9) 0.7416(7) 0.3479(7)
H43_3 H 0.6641 0.7274 0.3492
C56_3 C 0.3373(16) 0.4217(10) 0.1926(9)
O30_3 O 0.5386(10) 0.7434(8) 0.3273(7)
O31_3 O 0.4599(8) 0.5882(6) 0.4807(6)
Cu9_3 Cu 0.20257(16) 0.27786(9) 0.60956(8)
O32_3 O 0.4153(7) 0.4159(6) 0.2373(4)
H44_2 H 0.630121 0.621831 0.297263
H45_2 H 0.620955 0.5835 0.324107
H46_2 H 0.404813 0.354385 0.481613
H47_2 H 0.440413 0.389024 0.507719
H48_3 H 0.70266 0.765588 0.499119
H49_3 H 0.672481 0.732678 0.530187
H50_3 H 0.228608 0.277981 0.313696
H51_3 H 0.26184 0.303792 0.280955
H52_2 H 0.566957 0.563838 0.500707
H55_3 H 0.450236 0.605465 0.492511
H56_3 H 0.470845 0.598576 0.454632
H63_3 H 0.531105 0.722733 0.347766
H64_3 H 0.549031 0.770362 0.339305
C1_4 C 0.0725(9) 0.2085(7) 0.9204(11)
N1_4 N 0.0859(14) 0.2121(12) 0.9591(9)
H1_4 H 0.0743 0.1939 0.9773
C2_4 C 0.1213(13) 0.2504(13) 0.9633(6)
H2_4 H 0.1366 0.2608 0.9862
C3_4 C 0.1297(7) 0.2704(7) 0.9272(8)
H3_4 H 0.1517 0.2966 0.9217
N2_4 N 0.0995(7) 0.2445(7) 0.9007(6)
Cu1_4 Cu 0.27783(8) 0.20280(9) 0.86479(8)
Cu3_4 Cu 0.07721(11) 0.26041(10) 0.85704(8)
Cu6_4 Cu 0.06590(9) 0.28992(9) 0.67198(7)
Cu7_2 Cu 0.30632(11) 0.23981(10) 0.67066(9)
Cu8_4 Cu 0.23936(11) 0.30593(11) 0.80373(9)
O1_4 O 0.3339(4) 0.2513(4) 0.9039(4)
O3_3 O 0.0719(9) 0.3474(8) 0.6395(7)
O4_4 O 0.3669(11) 0.2903(9) 0.6424(13)
O5_3 O 0.2901(12) 0.3683(10) 0.8335(12)
O6_4 O 0.2796(6) 0.2882(7) 0.7959(6)
O7_4 O 0.2306(6) 0.2770(6) 0.8546(4)
O8_4 O 0.2798(9) 0.2695(7) 0.9459(5)
O9_4 O 0.2223(11) 0.2365(10) 0.9818(7)
O10_4 O 0.2683(4) 0.2052(4) 0.7470(4)
O11_4 O 0.3308(5) 0.2507(6) 0.7242(5)
O12_4 O 0.2903(7) 0.2806(8) 0.6817(6)
O13_4 O 0.2766(5) 0.2308(5) 0.6217(3)
O14_4 O 0.2497(4) 0.3288(5) 0.7514(4)
O15_4 O 0.2067(5) 0.2676(4) 0.7263(4)
O16_4 O 0.0430(6) 0.2493(7) 0.6293(4)
O17_4 O 0.0086(5) 0.2718(5) 0.6840(5)
O18_4 O 0.0797(5) 0.3213(5) 0.7224(4)
O19_4 O 0.0690(5) 0.2622(4) 0.7457(4)
O20_4 O 0.0198(10) 0.1895(12) 0.5143(7)
O27_4 O 0.0035(10) 0.2318(11) 0.9435(7)
O28_4 O 0.2684(6) 0.2802(7) 0.5288(5)
O29_4 O 0.2370(8) 0.2191(10) 0.4967(7)
N3_4 N 0.2961(6) 0.2408(6) 0.8216(5)
N4_4 N 0.3000(5) 0.1705(8) 0.8396(5)
N5_4 N 0.2445(8) 0.2262(7) 0.8821(6)
N6_4 N 0.2557(5) 0.1665(5) 0.9098(5)
N7_4 N 0.2493(7) 0.1267(7) 0.9596(6)
H4_4 H 0.2537 0.1116 0.9759
N8_4 N 0.2307(7) 0.2458(5) 0.5962(6)
N9_4 N 0.2424(7) 0.2958(6) 0.6546(6)
N10_4 N 0.1645(7) 0.2544(6) 0.5642(5)
N11_4 N 0.1271(6) 0.2519(6) 0.5192(9)
H5_4 H 0.1115 0.2572 0.5048
N12_4 N 0.1727(7) 0.2994(6) 0.6356(6)
N13_4 N 0.1200(6) 0.3016(6) 0.6623(6)
N19_2 N 0.3034(8) 0.1210(6) 0.8139(6)
N20_4 N 0.0551(5) 0.2821(7) 0.8192(4)
N21_4 N 0.0172(9) 0.2219(7) 0.8710(6)
N22_4 N 0.1331(6) 0.2954(5) 0.8381(5)
N23_4 N 0.1918(7) 0.3119(8) 0.8144(6)
C4_4 C 0.2789(10) 0.2669(14) 0.8201(7)
C5_4 C 0.2486(7) 0.2529(12) 0.8587(11)
C6_4 C 0.2182(9) 0.2202(11) 0.9113(7)
H7_4 H 0.1985 0.2289 0.9036
C7_4 C 0.1963(9) 0.1735(11) 0.9193(8)
H8_4 H 0.1750 0.1671 0.9386
H9_4 H 0.1827 0.1594 0.8952
C8_4 C 0.2200(7) 0.1566(9) 0.9323(11)
C9_4 C 0.2188(8) 0.1342(7) 0.9608(7)
H10_4 H 0.1986 0.1242 0.9803
C10_4 C 0.2707(8) 0.1451(9) 0.9308(10)
H11_4 H 0.2945 0.1447 0.9239
C11_4 C 0.2430(11) 0.2437(11) 0.9506(14)
C12_4 C 0.2847(7) 0.1314(8) 0.8405(7)
H12_4 H 0.2638 0.1133 0.8572
C13_4 C 0.3287(7) 0.1851(9) 0.8072(7)
C14_4 C 0.3528(7) 0.2316(8) 0.8025(5)
H13_4 H 0.3726 0.2380 0.7814
H14_4 H 0.3684 0.2433 0.8264
C15_4 C 0.3274(9) 0.2549(10) 0.7932(7)
H15_4 H 0.3444 0.2850 0.7918
C16_4 C 0.3052(9) 0.2328(9) 0.7512(8)
C17_4 C 0.2656(11) 0.2783(7) 0.6559(12)
C18_4 C 0.2571(8) 0.2475(9) 0.6235(7)
C19_4 C 0.2504(7) 0.3246(6) 0.6838(7)
H16_3 H 0.2803 0.3428 0.6848
C20_3 C 0.2306(9) 0.3521(7) 0.6718(7)
H17_3 H 0.2359 0.3721 0.6923
H18_3 H 0.2434 0.3670 0.6478
C21_4 C 0.1859(7) 0.3263(7) 0.6657(6)
C22_4 C 0.1561(9) 0.3297(6) 0.6815(7)
H19_3 H 0.1584 0.3474 0.7018
C23_4 C 0.1335(8) 0.2848(7) 0.6367(8)
H20_4 H 0.1156 0.2634 0.6203
C24_4 C 0.2358(8) 0.3062(6) 0.7271(7)
C25_4 C 0.2211(11) 0.2194(10) 0.5642(15)
H21_4 H 0.2310 0.2001 0.5688
C26_4 C 0.1750(9) 0.1958(7) 0.5554(9)
H22_4 H 0.1703 0.1774 0.5335
H23_4 H 0.1609 0.1788 0.5780
C27_4 C 0.1551(10) 0.2209(7) 0.5456(10)
C28_4 C 0.1328(9) 0.2168(9) 0.5108(14)
H24_4 H 0.1245 0.1983 0.4899
C29_4 C 0.1457(7) 0.2739(7) 0.5480(6)
H25_4 H 0.1466 0.2979 0.5564
C30_4 C 0.0050(8) 0.2319(8) 0.6257(6)
H26_4 H 0.0211 0.1837 0.5917
C33_4 C 0.0095(15) 0.210(2) 0.5402(8)
C41_4 C 0.3295(10) 0.1560(8) 0.7919(7)
H33_4 H 0.3446 0.1570 0.7697
C42_4 C 0.0115(8) 0.2571(5) 0.8175(6)
C44_4 C 0.0011(11) 0.1882(10) 0.8987(11)
C45_4 C 0.0274(17) 0.1716(18) 0.9014(16)
H35_4 H 0.0319 0.1635 0.8756
H36_4 H 0.0153 0.1475 0.9183
C47_4 C 0.0748(7) 0.3141(5) 0.7913(7)
H37_4 H 0.0583 0.3276 0.7896
C48_4 C 0.0730(7) 0.2956(7) 0.7503(7)
C49_3 C 0.1131(8) 0.3437(7) 0.8043(7)
H38_3 H 0.1202 0.3710 0.8086
C50_4 C 0.1439(6) 0.3272(5) 0.8111(6)
C51_4 C 0.1611(9) 0.2863(10) 0.8360(6)
H39_4 H 0.1599 0.2638 0.8487
C52_3 C 0.1810(6) 0.3369(6) 0.7968(5)
H40_3 H 0.1963 0.3571 0.7782
C56_4 C 0.2450(10) 0.2489(12) 0.5259(9)
O31_4 O 0.0785(6) 0.2050(6) 0.8140(6)
Cu9_4 Cu 0.38880(9) 0.25804(13) 0.94290(8)
Cu10_2 Cu 0.29008(12) 0.06610(9) 0.80214(7)
N26_2 N 0.3118(10) 0.1913(6) 0.6606(6)
H44_3 H 0.0448353 0.341623 0.630596
H45_3 H 0.0831664 0.370788 0.657441
H46_3 H 0.312282 0.383761 0.814946
H47_3 H 0.277642 0.384722 0.841052
H50_4 H 0.388685 0.28396 0.647029
H51_4 H 0.362874 0.291381 0.614288
H52_3 H 0.102828 0.336452 0.83404
H55_4 H 0.0612018 0.178105 0.825844
H56_4 H 0.0680911 0.205603 0.787965
Cu4_4 Cu 0.92268(11) 0.18301(10) 0.61733(8)
Cu5_3 Cu 0.93390(9) 0.22397(8) 0.80214(7)
O2_4 O 0.9287(6) 0.2745(5) 0.8357(5)
O21_4 O 0.9937(8) 0.2277(10) 0.5323(6)
O22_4 O 0.9212(5) 0.2413(5) 0.7530(4)
O23_4 O 0.9306(5) 0.1920(4) 0.7291(3)
O24_4 O 0.9582(7) 0.2085(5) 0.8455(4)
O25_4 O 0.9916(4) 0.2630(5) 0.7937(4)
O26_4 O 0.9838(12) 0.1747(15) 0.9646(7)
N14_4 N 0.9799(8) 0.2021(8) 0.6045(6)
N15_4 N 0.9461(7) 0.2284(5) 0.6566(4)
N16_4 N 0.9020(9) 0.1467(9) 0.5713(7)
N17_4 N 0.8801(15) 0.1223(14) 0.5198(7)
H6_4 H 0.8697 0.1224 0.4973
N18_4 N 0.8687(6) 0.1641(6) 0.6386(6)
N24_3 N 0.8087(6) 0.1204(8) 0.6606(6)
C31_4 C 0.9877(9) 0.2463(9) 0.6581(6)
C32_4 C 0.9965(9) 0.1817(10) 0.5795(8)
C34_4 C 0.9652(13) 0.1381(12) 0.5736(12)
H27_4 H 0.9771 0.1253 0.5576
H28_4 H 0.9585 0.1245 0.5990
C35_4 C 0.9309(17) 0.1315(15) 0.5569(9)
C36_4 C 0.898(2) 0.103(2) 0.525(2)
H29_4 H 0.8930 0.0792 0.5135
C37_4 C 0.8775(16) 0.1419(19) 0.5486(12)
H30_4 H 0.8586 0.1509 0.5511
C38_4 C 0.8831(6) 0.2249(8) 0.6707(6)
H31_4 H 0.8709 0.2334 0.6911
H32_4 H 0.8829 0.2388 0.6468
C39_4 C 0.8577(6) 0.1834(7) 0.6649(7)
C40_4 C 0.9268(6) 0.2224(7) 0.7229(5)
C43_4 C 0.9944(9) 0.2259(9) 0.8484(6)
H34_4 H 0.9752 0.1665 0.8876
C46_4 C 0.9915(13) 0.1996(13) 0.9328(12)
C53_4 C 0.8226(8) 0.1574(11) 0.6787(6)
H41_4 H 0.8085 0.1628 0.6982
C54_4 C 0.8353(9) 0.1244(13) 0.6377(7)
H42_4 H 0.8334 0.1034 0.6215
C55_4 C 0.9251(7) 0.2398(6) 0.6812(7)
H43_4 H 0.9393 0.2700 0.6825
O30_4 O 0.9233(8) 0.1285(6) 0.6606(7)
Cu11_3 Cu 0.76019(10) 0.06650(15) 0.67066(9)
N25_3 N 0.8790(6) 0.1823(10) 0.8139(6)
H48_4 H 0.901078 0.270405 0.832452
H49_4 H 0.933989 0.273137 0.86352
H63_4 H 0.943934 0.141706 0.6811
H64_4 H 0.896305 0.112002 0.672639
Cu1_5 Cu 0.79720(9) 0.07502(12) 0.86479(8)
O1_5 O 0.7487(4) 0.0825(6) 0.9039(4)
O4_5 O 0.7097(9) 0.0765(14) 0.6424(13)
O8_5 O 0.7305(7) 0.0102(11) 0.9459(5)
O10_5 O 0.7948(4) 0.0630(6) 0.7470(4)
O11_5 O 0.7493(6) 0.0800(8) 0.7242(5)
O12_5 O 0.7194(8) 0.0096(11) 0.6817(6)
O13_5 O 0.7692(5) 0.0457(7) 0.6217(3)
O29_5 O 0.7809(10) 0.0178(13) 0.4967(7)
N3_5 N 0.7592(6) 0.0552(8) 0.8216(5)
N4_5 N 0.8295(8) 0.1294(9) 0.8396(5)
N5_5 N 0.7738(7) 0.0182(11) 0.8821(6)
N6_5 N 0.8335(5) 0.0891(7) 0.9098(5)
N7_5 N 0.8733(7) 0.1225(10) 0.9596(6)
H4_5 H 0.8884 0.1420 0.9759
C4_5 C 0.7331(14) 0.0119(17) 0.8201(7)
C7_5 C 0.8265(11) 0.0227(14) 0.9193(8)
H8_5 H 0.8329 0.0078 0.9386
H9_5 H 0.8406 0.0232 0.8952
C8_5 C 0.8434(9) 0.0633(11) 0.9323(11)
C9_5 C 0.8658(7) 0.0845(11) 0.9608(7)
H10_5 H 0.8758 0.0743 0.9803
C10_5 C 0.8549(9) 0.1255(12) 0.9308(10)
H11_5 H 0.8553 0.1497 0.9239
C12_5 C 0.8686(8) 0.1532(11) 0.8405(7)
H12_5 H 0.8867 0.1504 0.8572
C13_5 C 0.8149(9) 0.1435(11) 0.8072(7)
C14_5 C 0.7684(8) 0.1211(11) 0.8025(5)
H13_5 H 0.7620 0.1345 0.7814
H14_5 H 0.7567 0.1250 0.8264
C15_5 C 0.7451(10) 0.0724(13) 0.7932(7)
H15_5 H 0.7150 0.0593 0.7918
C16_5 C 0.7672(9) 0.0723(13) 0.7512(8)
C18_5 C 0.7525(9) 0.0095(12) 0.6235(7)
C25_5 C 0.7806(10) 0.0016(15) 0.5642(15)
H21_5 H 0.7999 0.0308 0.5688
C41_5 C 0.8440(8) 0.1734(13) 0.7919(7)
H33_5 H 0.8430 0.1875 0.7697
Cu9_5 Cu 0.74196(13) 0.13077(16) 0.94290(8)
H50_5 H 0.71604 0.104725 0.647029
H51_5 H 0.708619 0.0714937 0.614288
C1_5 C 0.7915(7) 0.8639(11) 0.9204(11)
N1_5 N 0.7879(12) 0.8737(18) 0.9591(9)
H1_5 H 0.8061 0.8803 0.9773
C2_5 C 0.7496(13) 0.8708(18) 0.9633(6)
H2_5 H 0.7392 0.8757 0.9862
C3_5 C 0.7296(7) 0.8592(10) 0.9272(8)
H3_5 H 0.7034 0.8550 0.9217
N2_5 N 0.7555(7) 0.8549(10) 0.9007(6)
Cu3_5 Cu 0.73959(10) 0.81679(15) 0.85704(8)
Cu4_5 Cu 0.81699(10) 0.73966(15) 0.61733(8)
Cu5_4 Cu 0.77603(8) 0.70992(12) 0.80214(7)
Cu6_5 Cu 0.71008(9) 0.77597(13) 0.67198(7)
Cu8_5 Cu 0.69407(11) 0.93342(16) 0.80373(9)
O2_5 O 0.7255(5) 0.6541(8) 0.8357(5)
O3_4 O 0.6526(8) 0.7244(12) 0.6395(7)
O5_4 O 0.6317(10) 0.9217(16) 0.8335(12)
O6_5 O 0.7118(7) 0.9913(9) 0.7959(6)
O7_5 O 0.7230(6) 0.9535(8) 0.8546(4)
O9_5 O 0.7635(10) 0.9857(15) 0.9818(7)
O14_5 O 0.6712(5) 0.9208(6) 0.7514(4)
O15_5 O 0.7324(4) 0.9390(6) 0.7263(4)
O16_5 O 0.7507(7) 0.7936(9) 0.6293(4)
O17_5 O 0.7282(5) 0.7367(7) 0.6840(5)
O18_5 O 0.6787(5) 0.7583(7) 0.7224(4)
O19_5 O 0.7378(4) 0.8067(6) 0.7457(4)
O20_5 O 0.8105(12) 0.8302(16) 0.5143(7)
O21_5 O 0.7723(10) 0.7659(13) 0.5323(6)
O22_5 O 0.7587(5) 0.6798(7) 0.7530(4)
O23_5 O 0.8080(4) 0.7385(6) 0.7291(3)
O24_5 O 0.7915(5) 0.7496(9) 0.8455(4)
O25_5 O 0.7370(5) 0.7285(6) 0.7937(4)
O26_5 O 0.8253(15) 0.8090(19) 0.9646(7)
O27_5 O 0.7682(11) 0.7716(15) 0.9435(7)
O28_5 O 0.7198(7) 0.9881(9) 0.5288(5)
N8_5 N 0.7542(5) 0.9848(9) 0.5962(6)
N9_5 N 0.7042(6) 0.9465(9) 0.6546(6)
N10_5 N 0.7456(6) 0.9100(9) 0.5642(5)
N11_5 N 0.7481(6) 0.8751(8) 0.5192(9)
H5_5 H 0.7428 0.8542 0.5048
N12_5 N 0.7006(6) 0.8732(9) 0.6356(6)
N13_5 N 0.6984(6) 0.8183(8) 0.6623(6)
N14_5 N 0.7979(8) 0.7777(11) 0.6045(6)
N15_5 N 0.7716(5) 0.7176(9) 0.6566(4)
N16_5 N 0.8533(9) 0.7552(13) 0.5713(7)
N17_5 N 0.8777(14) 0.7577(21) 0.5198(7)
H6_5 H 0.8776 0.7472 0.4973
N18_5 N 0.8359(6) 0.7045(8) 0.6386(6)
N20_5 N 0.7179(7) 0.7729(9) 0.8192(4)
N21_5 N 0.7781(7) 0.7952(11) 0.8710(6)
N22_5 N 0.7046(5) 0.8376(8) 0.8381(5)
N23_5 N 0.6881(8) 0.8798(11) 0.8144(6)
N24_4 N 0.8796(8) 0.6882(10) 0.6606(6)
C5_5 C 0.7471(12) 0.9956(14) 0.8587(11)
C6_5 C 0.7798(11) 0.9979(14) 0.9113(7)
H7_5 H 0.7711 0.9695 0.9036
C11_5 C 0.7563(11) 0.9992(16) 0.9506(14)
C17_5 C 0.7217(7) 0.9872(13) 0.6559(12)
C19_5 C 0.6754(6) 0.9257(9) 0.6838(7)
H16_4 H 0.6572 0.9374 0.6848
C20_4 C 0.6479(7) 0.8784(11) 0.6718(7)
H17_4 H 0.6279 0.8637 0.6923
H18_4 H 0.6330 0.8763 0.6478
C21_5 C 0.6737(7) 0.8595(10) 0.6657(6)
C22_5 C 0.6703(6) 0.8263(11) 0.6815(7)
H19_4 H 0.6526 0.8109 0.7018
C23_5 C 0.7152(7) 0.8486(11) 0.6367(8)
H20_5 H 0.7366 0.8521 0.6203
C24_5 C 0.6938(6) 0.9295(10) 0.7271(7)
C26_5 C 0.8042(7) 0.9791(11) 0.5554(9)
H22_5 H 0.8226 0.9928 0.5335
H23_5 H 0.8212 0.9820 0.5780
C27_5 C 0.7791(7) 0.9341(12) 0.5456(10)
C28_5 C 0.7832(9) 0.9159(13) 0.5108(14)
H24_5 H 0.8017 0.9261 0.4899
C29_5 C 0.7261(7) 0.8717(10) 0.5480(6)
H25_5 H 0.7021 0.8486 0.5564
C30_5 C 0.7681(8) 0.7730(11) 0.6257(6)
C31_5 C 0.7537(9) 0.7413(13) 0.6581(6)
C32_5 C 0.8183(10) 0.8147(13) 0.5795(8)
H26_5 H 0.8163 0.8373 0.5917
C33_5 C 0.790(2) 0.7991(25) 0.5402(8)
C34_5 C 0.8619(12) 0.8270(18) 0.5736(12)
H27_5 H 0.8747 0.8517 0.5576
H28_5 H 0.8755 0.8339 0.5990
C35_5 C 0.8685(15) 0.7993(23) 0.5569(9)
C36_5 C 0.897(2) 0.794(3) 0.525(2)
H29_5 H 0.9208 0.8137 0.5135
C37_5 C 0.8581(19) 0.7355(25) 0.5486(12)
H30_5 H 0.8491 0.7076 0.5511
C38_5 C 0.7751(8) 0.6581(10) 0.6707(6)
H31_5 H 0.7666 0.6374 0.6911
H32_5 H 0.7612 0.6440 0.6468
C39_5 C 0.8166(7) 0.6742(9) 0.6649(7)
C40_5 C 0.7776(7) 0.7043(9) 0.7229(5)
C42_5 C 0.7429(5) 0.7543(9) 0.8175(6)
C43_5 C 0.7741(9) 0.7684(13) 0.8484(6)
C44_5 C 0.8118(10) 0.8128(15) 0.8987(11)
H34_5 H 0.8335 0.8086 0.8876
C45_5 C 0.8284(18) 0.8557(25) 0.9014(16)
H35_5 H 0.8365 0.8683 0.8756
H36_5 H 0.8525 0.8677 0.9183
C46_5 C 0.8004(13) 0.7918(18) 0.9328(12)
C47_5 C 0.6859(5) 0.7606(9) 0.7913(7)
H37_5 H 0.6724 0.7306 0.7896
C48_5 C 0.7044(7) 0.7773(10) 0.7503(7)
C49_4 C 0.6563(7) 0.7693(11) 0.8043(7)
H38_4 H 0.6290 0.7491 0.8086
C50_5 C 0.6728(5) 0.8166(8) 0.8111(6)
C51_5 C 0.7137(10) 0.8747(13) 0.8360(6)
H39_5 H 0.7362 0.8960 0.8487
C52_4 C 0.6631(6) 0.8440(8) 0.7968(5)
H40_4 H 0.6429 0.8391 0.7782
C53_5 C 0.8426(11) 0.6651(14) 0.6787(6)
H41_5 H 0.8372 0.6456 0.6982
C54_5 C 0.8756(13) 0.7108(16) 0.6377(7)
H42_5 H 0.8966 0.7299 0.6215
C55_5 C 0.7602(6) 0.6852(9) 0.6812(7)
H43_5 H 0.7300 0.6692 0.6825
C56_5 C 0.7511(12) 0.9960(16) 0.5259(9)
O30_5 O 0.8715(6) 0.7947(10) 0.6606(7)
O31_5 O 0.7950(6) 0.8734(8) 0.8140(6)
Cu11_4 Cu 0.93350(15) 0.69368(18) 0.67066(9)
N25_4 N 0.8177(10) 0.6966(12) 0.8139(6)
H44_4 H 0.658377 0.703213 0.630596
H45_4 H 0.629212 0.712378 0.657441
H46_4 H 0.616239 0.92852 0.814946
H47_4 H 0.615278 0.89292 0.841052
H48_5 H 0.729595 0.630674 0.832452
H49_5 H 0.726863 0.660852 0.86352
H52_4 H 0.663548 0.766377 0.83404
H55_5 H 0.821895 0.883097 0.825844
H56_5 H 0.794397 0.862488 0.787965
H63_5 H 0.858294 0.802228 0.6811
H64_5 H 0.887998 0.784302 0.672639
Cu4_6 Cu 0.26034(15) 0.07732(11) 0.61733(8)
O2_6 O 0.3459(8) 0.0713(6) 0.8357(5)
O21_6 O 0.2341(13) 0.0063(8) 0.5323(6)
O22_6 O 0.3202(7) 0.0788(5) 0.7530(4)
O23_6 O 0.2615(6) 0.0694(5) 0.7291(3)
O24_6 O 0.2504(9) 0.0418(7) 0.8455(4)
O25_6 O 0.2715(6) 0.0084(4) 0.7937(4)
O26_6 O 0.1910(19) 0.0162(12) 0.9646(7)
N14_6 N 0.2223(11) 0.0201(8) 0.6045(6)
N15_6 N 0.2824(9) 0.0539(7) 0.6566(4)
N16_6 N 0.2448(13) 0.0980(9) 0.5713(7)
N17_6 N 0.2423(21) 0.1199(15) 0.5198(7)
H6_6 H 0.2528 0.1303 0.4973
N18_6 N 0.2955(8) 0.1313(6) 0.6386(6)
C31_6 C 0.2587(13) 0.0123(9) 0.6581(6)
C32_6 C 0.1853(13) 0.0035(9) 0.5795(8)
C34_6 C 0.1730(18) 0.0348(13) 0.5736(12)
H27_6 H 0.1483 0.0229 0.5576
H28_6 H 0.1661 0.0415 0.5990
C35_6 C 0.2007(23) 0.0691(17) 0.5569(9)
C36_6 C 0.206(3) 0.102(2) 0.525(2)
H29_6 H 0.1863 0.1070 0.5135
C37_6 C 0.2645(25) 0.1225(16) 0.5486(12)
H30_6 H 0.2924 0.1414 0.5511
C38_6 C 0.3419(10) 0.1169(6) 0.6707(6)
H31_6 H 0.3626 0.1291 0.6911
H32_6 H 0.3560 0.1171 0.6468
C39_6 C 0.3258(9) 0.1423(6) 0.6649(7)
C40_6 C 0.2957(9) 0.0732(6) 0.7229(5)
C43_6 C 0.2316(13) 0.0056(9) 0.8484(6)
H34_6 H 0.1914 0.0248 0.8876
C46_6 C 0.2082(18) 0.0085(13) 0.9328(12)
C53_6 C 0.3349(14) 0.1774(8) 0.6787(6)
H41_6 H 0.3544 0.1915 0.6982
C54_6 C 0.2892(16) 0.1647(9) 0.6377(7)
H42_6 H 0.2701 0.1666 0.6215
C55_6 C 0.3148(9) 0.0749(7) 0.6812(7)
H43_6 H 0.3308 0.0607 0.6825
O30_6 O 0.2053(10) 0.0767(8) 0.6606(7)
H48_6 H 0.369326 0.0989216 0.832452
H49_6 H 0.339148 0.0660114 0.86352
H63_6 H 0.197772 0.0560661 0.6811
H64_6 H 0.215698 0.103695 0.672639
C1_6 C 0.1361(11) 0.9275(9) 0.9204(11)
N1_6 N 0.1263(18) 0.9141(14) 0.9591(9)
H1_6 H 0.1197 0.9257 0.9773
C2_6 C 0.1292(18) 0.8787(13) 0.9633(6)
H2_6 H 0.1243 0.8634 0.9862
C3_6 C 0.1408(10) 0.8703(7) 0.9272(8)
H3_6 H 0.1450 0.8483 0.9217
N2_6 N 0.1451(10) 0.9005(7) 0.9007(6)
Cu3_6 Cu 0.18321(15) 0.92279(11) 0.85704(8)
Cu6_6 Cu 0.22403(13) 0.93410(9) 0.67198(7)
Cu8_6 Cu 0.06658(16) 0.76064(11) 0.80373(9)
O3_5 O 0.2756(12) 0.9281(9) 0.6395(7)
O5_5 O 0.0783(16) 0.7099(12) 0.8335(12)
O6_6 O 0.0087(9) 0.7204(6) 0.7959(6)
O7_6 O 0.0465(8) 0.7694(6) 0.8546(4)
O9_6 O 0.0143(15) 0.7777(11) 0.9818(7)
O14_6 O 0.0792(6) 0.7503(4) 0.7514(4)
O15_6 O 0.0610(6) 0.7933(5) 0.7263(4)
O16_6 O 0.2064(9) 0.9570(6) 0.6293(4)
O17_6 O 0.2633(7) 0.9914(5) 0.6840(5)
O18_6 O 0.2417(7) 0.9203(5) 0.7224(4)
O19_6 O 0.1933(6) 0.9310(5) 0.7457(4)
O20_6 O 0.1698(16) 0.9802(10) 0.5143(7)
O27_6 O 0.2284(15) 0.9965(10) 0.9435(7)
O28_6 O 0.0119(9) 0.7316(6) 0.5288(5)
N8_6 N 0.0152(9) 0.7693(7) 0.5962(6)
N9_6 N 0.0535(9) 0.7576(7) 0.6546(6)
N10_6 N 0.0900(9) 0.8355(7) 0.5642(5)
N11_6 N 0.1249(8) 0.8729(6) 0.5192(9)
H5_6 H 0.1458 0.8885 0.5048
N12_6 N 0.1268(9) 0.8273(7) 0.6356(6)
N13_6 N 0.1817(8) 0.8800(6) 0.6623(6)
N20_6 N 0.2271(9) 0.9449(5) 0.8192(4)
N21_6 N 0.2048(11) 0.9828(9) 0.8710(6)
N22_6 N 0.1624(8) 0.8669(6) 0.8381(5)
N23_6 N 0.1202(11) 0.8082(7) 0.8144(6)
C5_6 C 0.0044(14) 0.7514(7) 0.8587(11)
C6_6 C 0.0021(14) 0.7818(9) 0.9113(7)
H7_6 H 0.0305 0.8015 0.9036
C11_6 C 0.0008(16) 0.7570(11) 0.9506(14)
C17_6 C 0.0128(13) 0.7344(11) 0.6559(12)
C19_6 C 0.0743(9) 0.7496(7) 0.6838(7)
H16_5 H 0.0626 0.7197 0.6848
C20_5 C 0.1216(11) 0.7694(9) 0.6718(7)
H17_5 H 0.1363 0.7641 0.6923
H18_5 H 0.1237 0.7566 0.6478
C21_6 C 0.1405(10) 0.8141(7) 0.6657(6)
C22_6 C 0.1737(11) 0.8439(9) 0.6815(7)
H19_5 H 0.1891 0.8416 0.7018
C23_6 C 0.1514(11) 0.8665(8) 0.6367(8)
H20_6 H 0.1479 0.8844 0.6203
C24_6 C 0.0705(10) 0.7642(8) 0.7271(7)
C26_6 C 0.0209(11) 0.8250(9) 0.5554(9)
H22_6 H 0.0072 0.8297 0.5335
H23_6 H 0.0180 0.8391 0.5780
C27_6 C 0.0659(12) 0.8449(10) 0.5456(10)
C28_6 C 0.0841(13) 0.8672(9) 0.5108(14)
H24_6 H 0.0739 0.8755 0.4899
C29_6 C 0.1283(10) 0.8543(7) 0.5480(6)
H25_6 H 0.1514 0.8534 0.5564
C30_6 C 0.2270(11) 0.9950(8) 0.6257(6)
H26_6 H 0.1627 0.9789 0.5917
C33_6 C 0.2009(25) 0.9905(15) 0.5402(8)
C42_6 C 0.2457(9) 0.9885(8) 0.8175(6)
C44_6 C 0.1872(15) 0.9989(11) 0.8987(11)
C45_6 C 0.1443(25) 0.9726(17) 0.9014(16)
H35_6 H 0.1317 0.9681 0.8756
H36_6 H 0.1323 0.9847 0.9183
C47_6 C 0.2394(9) 0.9252(7) 0.7913(7)
H37_6 H 0.2694 0.9417 0.7896
C48_6 C 0.2227(10) 0.9270(7) 0.7503(7)
C49_5 C 0.2307(11) 0.8869(8) 0.8043(7)
H38_5 H 0.2509 0.8798 0.8086
C50_6 C 0.1834(8) 0.8561(6) 0.8111(6)
C51_6 C 0.1253(13) 0.8389(9) 0.8360(6)
H39_6 H 0.1040 0.8401 0.8487
C52_5 C 0.1560(8) 0.8190(6) 0.7968(5)
H40_5 H 0.1609 0.8037 0.7782
C56_6 C 0.0040(16) 0.7550(10) 0.5259(9)
O31_6 O 0.1266(8) 0.9215(6) 0.8140(6)
H44_5 H 0.296787 0.955165 0.630596
H45_5 H 0.287622 0.916834 0.657441
H46_5 H 0.0714795 0.687718 0.814946
H47_5 H 0.10708 0.722358 0.841052
H52_5 H 0.233623 0.897172 0.83404
H55_6 H 0.116903 0.938798 0.825844
H56_6 H 0.137512 0.931909 0.787965
Cu1_6 Cu 0.92498(12) 0.72217(8) 0.86479(8)
O1_6 O 0.9175(6) 0.6661(4) 0.9039(4)
O4_6 O 0.9235(14) 0.6331(11) 0.6424(13)
O8_6 O 0.9898(11) 0.7202(9) 0.9459(5)
O10_6 O 0.9370(6) 0.7317(4) 0.7470(4)
O11_6 O 0.9200(8) 0.6692(5) 0.7242(5)
O12_6 O 0.9904(11) 0.7097(7) 0.6817(6)
O13_6 O 0.9543(7) 0.7234(5) 0.6217(3)
O29_6 O 0.9822(13) 0.7630(8) 0.4967(7)
N3_6 N 0.9448(8) 0.7039(6) 0.8216(5)
N4_6 N 0.8706(9) 0.7000(5) 0.8396(5)
N5_6 N 0.9818(11) 0.7555(8) 0.8821(6)
N6_6 N 0.9109(7) 0.7443(5) 0.9098(5)
N7_6 N 0.8775(10) 0.7507(7) 0.9596(6)
H4_6 H 0.8580 0.7463 0.9759
C4_6 C 0.9881(17) 0.7211(10) 0.8201(7)
C7_6 C 0.9773(14) 0.8037(9) 0.9193(8)
H8_6 H 0.9922 0.8250 0.9386
H9_6 H 0.9768 0.8173 0.8952
C8_6 C 0.9367(11) 0.7800(7) 0.9323(11)
C9_6 C 0.9155(11) 0.7812(8) 0.9608(7)
H10_6 H 0.9257 0.8014 0.9803
C10_6 C 0.8745(12) 0.7293(8) 0.9308(10)
H11_6 H 0.8503 0.7055 0.9239
C12_6 C 0.8468(11) 0.7153(7) 0.8405(7)
H12_6 H 0.8496 0.7362 0.8572
C13_6 C 0.8565(11) 0.6713(7) 0.8072(7)
C14_6 C 0.8789(11) 0.6472(7) 0.8025(5)
H13_6 H 0.8655 0.6274 0.7814
H14_6 H 0.8750 0.6316 0.8264
C15_6 C 0.9276(13) 0.6726(9) 0.7932(7)
H15_6 H 0.9407 0.6556 0.7918
C16_6 C 0.9277(13) 0.6948(9) 0.7512(8)
C18_6 C 0.9905(12) 0.7429(8) 0.6235(7)
C25_6 C 0.9984(15) 0.7789(11) 0.5642(15)
H21_6 H 0.9692 0.7690 0.5688
C41_6 C 0.8266(13) 0.6705(10) 0.7919(7)
H33_6 H 0.8125 0.6554 0.7697
Cu9_6 Cu 0.86923(16) 0.61120(9) 0.94290(8)
H50_6 H 0.895275 0.611315 0.647029
H51_6 H 0.928506 0.637126 0.614288
C14_7 C 0.0194(7) 0.5650(8) 0.1359(5)
H13_7 H 0.0392 0.5714 0.1148
H14_7 H 0.0350 0.5767 0.1598
H15_7 H 0.0110 0.6184 0.1252
H33_7 H 0.0112 0.4904 0.1031
C1_7 C 0.7391(9) 0.5419(7) 0.2538(11)
N1_7 N 0.7525(14) 0.5455(12) 0.2925(9)
H1_7 H 0.7409 0.5273 0.3107
C2_7 C 0.7879(13) 0.5838(13) 0.2967(6)
H2_7 H 0.8032 0.5942 0.3196
C3_7 C 0.7963(7) 0.6038(7) 0.2606(8)
H3_7 H 0.8183 0.6300 0.2551
N2_7 N 0.7661(7) 0.5779(7) 0.2341(6)
Cu1_7 Cu 0.94449(8) 0.53614(9) 0.19813(8)
Cu3_7 Cu 0.74387(11) 0.59375(10) 0.19038(8)
Cu5_5 Cu 0.60056(9) 0.55731(8) 0.13548(7)
Cu6_7 Cu 0.73256(9) 0.62326(9) 0.00532(7)
Cu7_3 Cu 0.97298(11) 0.57315(10) 0.00400(9)
Cu8_7 Cu 0.90602(11) 0.63927(11) 0.13707(9)
O2_7 O 0.5953(6) 0.6079(5) 0.1691(5)
O5_6 O 0.9567(12) 0.7017(10) 0.1669(12)
O6_7 O 0.9462(6) 0.6216(7) 0.1293(6)
O7_7 O 0.8972(6) 0.6104(6) 0.1880(4)
O8_7 O 0.9464(9) 0.6029(7) 0.2793(5)
O9_7 O 0.8889(11) 0.5699(10) 0.3152(7)
O10_7 O 0.9349(4) 0.5386(4) 0.0804(4)
O11_7 O 0.9974(5) 0.5841(6) 0.0576(5)
O12_7 O 0.9569(7) 0.6140(8) 0.0151(6)
O14_7 O 0.9163(4) 0.6622(5) 0.0848(4)
O15_7 O 0.8733(5) 0.6010(4) 0.0597(4)
O17_7 O 0.6752(5) 0.6052(5) 0.0174(5)
O18_7 O 0.7463(5) 0.6547(5) 0.0558(4)
O19_7 O 0.7356(5) 0.5956(4) 0.0791(4)
O22_7 O 0.5878(5) 0.5747(5) 0.0864(4)
O23_7 O 0.5972(5) 0.5254(4) 0.0625(3)
O24_7 O 0.6248(7) 0.5419(5) 0.1789(4)
O25_7 O 0.6582(4) 0.5964(5) 0.1271(4)
O26_7 O 0.6504(12) 0.5081(15) 0.2980(7)
O27_7 O 0.6701(10) 0.5652(11) 0.2769(7)
N3_7 N 0.9627(6) 0.5742(6) 0.1550(5)
N4_7 N 0.9666(5) 0.5039(8) 0.1730(5)
N5_7 N 0.9111(8) 0.5596(7) 0.2155(6)
N6_7 N 0.9223(5) 0.4999(5) 0.2432(5)
N7_7 N 0.9159(7) 0.4601(7) 0.2930(6)
H4_7 H 0.9203 0.4450 0.3093
N19_3 N 0.9700(8) 0.4544(6) 0.1473(6)
N20_7 N 0.7217(5) 0.6155(7) 0.1526(4)
N21_7 N 0.6838(9) 0.5553(7) 0.2044(6)
N22_7 N 0.7997(6) 0.6288(5) 0.1715(5)
N23_7 N 0.8584(7) 0.6453(8) 0.1478(6)
C4_7 C 0.9455(10) 0.6003(14) 0.1535(7)
C5_7 C 0.9152(7) 0.5863(12) 0.1921(11)
C6_7 C 0.8848(9) 0.5536(11) 0.2447(7)
H7_7 H 0.8651 0.5623 0.2370
C7_7 C 0.8629(9) 0.5069(11) 0.2527(8)
H8_7 H 0.8416 0.5005 0.2720
H9_7 H 0.8493 0.4928 0.2286
C8_7 C 0.8866(7) 0.4900(9) 0.2657(11)
C9_7 C 0.8854(8) 0.4676(7) 0.2942(7)
H10_7 H 0.8652 0.4576 0.3137
C10_7 C 0.9373(8) 0.4785(9) 0.2642(10)
H11_7 H 0.9611 0.4781 0.2573
C11_7 C 0.9096(11) 0.5771(11) 0.2840(14)
C12_7 C 0.9513(7) 0.4648(8) 0.1739(7)
H12_7 H 0.9304 0.4467 0.1906
C13_7 C 0.9953(7) 0.5185(9) 0.1406(7)
C15_7 C 0.9940(9) 0.5883(10) 0.1266(7)
C16_7 C 0.9718(9) 0.5662(9) 0.0846(8)
C19_7 C 0.9170(7) 0.6580(6) 0.0172(7)
H16_6 H 0.9469 0.6762 0.0182
C20_6 C 0.8972(9) 0.6855(7) 0.0052(7)
H17_6 H 0.9025 0.7055 0.0257
C22_7 C 0.8227(9) 0.6631(6) 0.0149(7)
H19_6 H 0.8250 0.6808 0.0352
C24_7 C 0.9024(8) 0.6396(6) 0.0605(7)
C38_7 C 0.5497(6) 0.5583(8) 0.0041(6)
H31_7 H 0.5375 0.5668 0.0245
C40_7 C 0.5934(6) 0.5558(7) 0.0563(5)
C41_7 C 0.9961(10) 0.4894(8) 0.1253(7)
C42_7 C 0.6781(8) 0.5905(5) 0.1509(6)
C43_7 C 0.6610(9) 0.5593(9) 0.1818(6)
C44_7 C 0.6677(11) 0.5216(10) 0.2321(11)
H34_7 H 0.6418 0.4999 0.2210
C45_7 C 0.6940(17) 0.5050(18) 0.2348(16)
H35_7 H 0.6985 0.4969 0.2090
H36_7 H 0.6819 0.4809 0.2517
C46_7 C 0.6581(13) 0.5330(13) 0.2662(12)
C47_7 C 0.7414(7) 0.6475(5) 0.1247(7)
H37_7 H 0.7249 0.6610 0.1230
C48_7 C 0.7396(7) 0.6290(7) 0.0837(7)
C49_6 C 0.7797(8) 0.6771(7) 0.1377(7)
H38_6 H 0.7868 0.7044 0.1420
C50_7 C 0.8105(6) 0.6606(5) 0.1445(6)
C51_7 C 0.8277(9) 0.6197(10) 0.1694(6)
H39_7 H 0.8265 0.5972 0.1821
C52_6 C 0.8476(6) 0.6703(6) 0.1302(5)
H40_6 H 0.8629 0.6905 0.1116
C53_7 C 0.4892(8) 0.4908(11) 0.0121(6)
H41_7 H 0.4751 0.4962 0.0316
C55_7 C 0.5917(7) 0.5732(6) 0.0146(7)
H43_7 H 0.6059 0.6034 0.0159
O31_7 O 0.7451(6) 0.5384(6) 0.1474(6)
Cu10_3 Cu 0.95674(12) 0.39944(9) 0.13548(7)
Cu11_5 Cu 0.42685(10) 0.39984(15) 0.00400(9)
N25_5 N 0.5456(6) 0.5157(10) 0.1473(6)
H46_6 H 0.978949 0.717095 0.14828
H47_6 H 0.944309 0.718056 0.174386
H48_7 H 0.567745 0.603738 0.165785
H49_7 H 0.600655 0.60647 0.196853
H52_6 H 0.769495 0.669785 0.167374
H55_7 H 0.727868 0.511438 0.159178
H56_7 H 0.734758 0.538936 0.121299
H63_7 H 0.610601 0.475039 0.0144329
H64_7 H 0.562972 0.445336 0.00597208
Cu4_7 Cu 0.58934(11) 0.51635(10) 0.95067(8)
O3_6 O 0.7385(9) 0.6808(8) 0.9729(7)
O13_7 O 0.9432(5) 0.5642(5) 0.9551(3)
O16_7 O 0.7096(6) 0.5827(7) 0.9627(4)
O20_7 O 0.6864(10) 0.5229(12) 0.8477(7)
O21_7 O 0.6603(8) 0.5611(10) 0.8657(6)
O28_7 O 0.9350(6) 0.6136(7) 0.8622(5)
O29_7 O 0.9036(8) 0.5525(10) 0.8301(7)
N8_7 N 0.8973(7) 0.5792(5) 0.9296(6)
N9_7 N 0.9090(7) 0.6292(6) 0.9880(6)
N10_7 N 0.8311(7) 0.5878(6) 0.8976(5)
N11_7 N 0.7937(6) 0.5853(6) 0.8526(9)
H5_7 H 0.7781 0.5906 0.8382
N12_7 N 0.8393(7) 0.6328(6) 0.9690(6)
N13_7 N 0.7866(6) 0.6350(6) 0.9957(6)
N14_7 N 0.6465(8) 0.5355(8) 0.9379(6)
N15_7 N 0.6127(7) 0.5618(5) 0.9900(4)
N16_7 N 0.5686(9) 0.4801(9) 0.9047(7)
N17_7 N 0.5467(15) 0.4557(14) 0.8532(7)
H6_7 H 0.5363 0.4558 0.8307
N18_7 N 0.5353(6) 0.4975(6) 0.9720(6)
N24_5 N 0.4753(6) 0.4538(8) 0.9940(6)
C17_7 C 0.9322(11) 0.6117(7) 0.9893(12)
C18_7 C 0.9237(8) 0.5809(9) 0.9569(7)
H18_6 H 0.9100 0.7004 0.9812
C21_7 C 0.8525(7) 0.6597(7) 0.9991(6)
C23_7 C 0.8001(8) 0.6182(7) 0.9701(8)
H20_7 H 0.7822 0.5968 0.9537
C25_7 C 0.8877(11) 0.5528(10) 0.8976(15)
H21_7 H 0.8976 0.5335 0.9022
C26_7 C 0.8416(9) 0.5292(7) 0.8888(9)
H22_7 H 0.8369 0.5108 0.8669
H23_7 H 0.8275 0.5122 0.9114
C27_7 C 0.8217(10) 0.5543(7) 0.8790(10)
C28_7 C 0.7994(9) 0.5502(9) 0.8442(14)
H24_7 H 0.7911 0.5317 0.8233
C29_7 C 0.8123(7) 0.6073(7) 0.8814(6)
H25_7 H 0.8132 0.6313 0.8898
C30_7 C 0.6716(8) 0.5653(8) 0.9591(6)
C31_7 C 0.6543(9) 0.5797(9) 0.9915(6)
C32_7 C 0.6631(9) 0.5151(10) 0.9129(8)
H26_7 H 0.6877 0.5171 0.9251
C33_7 C 0.6761(15) 0.544(2) 0.8736(8)
C34_7 C 0.6318(13) 0.4715(12) 0.9070(12)
H27_7 H 0.6437 0.4587 0.8910
H28_7 H 0.6251 0.4579 0.9324
C35_7 C 0.5975(17) 0.4649(15) 0.8903(9)
C36_7 C 0.564(2) 0.437(2) 0.859(2)
H29_7 H 0.5596 0.4126 0.8469
C37_7 C 0.5441(16) 0.4753(19) 0.8820(12)
H30_7 H 0.5252 0.4843 0.8845
H32_7 H 0.5495 0.5722 0.9802
C39_7 C 0.5243(6) 0.5168(7) 0.9983(7)
C54_7 C 0.5019(9) 0.4578(13) 0.9711(7)
H42_7 H 0.5000 0.4368 0.9549
C56_7 C 0.9116(10) 0.5823(12) 0.8593(9)
O30_7 O 0.5899(8) 0.4619(6) 0.9940(7)
N26_3 N 0.9784(10) 0.5247(6) 0.9940(6)
H44_6 H 0.711502 0.674956 0.96393
H45_6 H 0.749833 0.704121 0.990774
C1_8 C 0.4581(7) 0.1973(11) 0.2538(11)
N1_8 N 0.4545(12) 0.2071(18) 0.2925(9)
H1_8 H 0.4727 0.2137 0.3107
C2_8 C 0.4162(13) 0.2042(18) 0.2967(6)
H2_8 H 0.4058 0.2091 0.3196
C3_8 C 0.3962(7) 0.1926(10) 0.2606(8)
H3_8 H 0.3700 0.1884 0.2551
N2_8 N 0.4221(7) 0.1883(10) 0.2341(6)
Cu1_8 Cu 0.46386(9) 0.40836(12) 0.19813(8)
Cu3_8 Cu 0.40625(10) 0.15013(15) 0.19038(8)
Cu5_6 Cu 0.44269(8) 0.04326(12) 0.13548(7)
Cu6_8 Cu 0.37674(9) 0.10931(13) 0.00532(7)
Cu8_8 Cu 0.36073(11) 0.26676(16) 0.13707(9)
O5_7 O 0.2983(10) 0.2551(16) 0.1669(12)
O6_8 O 0.3784(7) 0.3247(9) 0.1293(6)
O7_8 O 0.3896(6) 0.2869(8) 0.1880(4)
O8_8 O 0.3971(7) 0.3436(11) 0.2793(5)
O9_8 O 0.4301(10) 0.3191(15) 0.3152(7)
O10_8 O 0.4614(4) 0.3964(6) 0.0804(4)
O11_8 O 0.4159(6) 0.4134(8) 0.0576(5)
O12_8 O 0.3860(8) 0.3430(11) 0.0151(6)
O14_8 O 0.3378(5) 0.2542(6) 0.0848(4)
O15_8 O 0.3990(4) 0.2724(6) 0.0597(4)
O17_8 O 0.3948(5) 0.0701(7) 0.0174(5)
O18_8 O 0.3453(5) 0.0917(7) 0.0558(4)
O19_8 O 0.4044(4) 0.1401(6) 0.0791(4)
O22_8 O 0.4253(5) 0.0132(7) 0.0864(4)
O23_8 O 0.4746(4) 0.0719(6) 0.0625(3)
O24_8 O 0.4581(5) 0.0830(9) 0.1789(4)
O25_8 O 0.4036(5) 0.0619(6) 0.1271(4)
O26_8 O 0.4919(15) 0.1424(19) 0.2980(7)
O27_8 O 0.4348(11) 0.1050(15) 0.2769(7)
N3_8 N 0.4258(6) 0.3886(8) 0.1550(5)
N4_8 N 0.4961(8) 0.4628(9) 0.1730(5)
N5_8 N 0.4404(7) 0.3516(11) 0.2155(6)
N6_8 N 0.5001(5) 0.4225(7) 0.2432(5)
N7_8 N 0.5399(7) 0.4559(10) 0.2930(6)
H4_8 H 0.5550 0.4754 0.3093
N20_8 N 0.3845(7) 0.1063(9) 0.1526(4)
N21_8 N 0.4447(7) 0.1286(11) 0.2044(6)
N22_8 N 0.3712(5) 0.1710(8) 0.1715(5)
N23_8 N 0.3547(8) 0.2132(11) 0.1478(6)
C4_8 C 0.3997(14) 0.3453(17) 0.1535(7)
C5_8 C 0.4137(12) 0.3290(14) 0.1921(11)
C6_8 C 0.4464(11) 0.3313(14) 0.2447(7)
H7_8 H 0.4377 0.3029 0.2370
C7_8 C 0.4931(11) 0.3561(14) 0.2527(8)
H8_8 H 0.4995 0.3412 0.2720
H9_8 H 0.5072 0.3566 0.2286
C8_8 C 0.5100(9) 0.3967(11) 0.2657(11)
C9_8 C 0.5324(7) 0.4179(11) 0.2942(7)
H10_8 H 0.5424 0.4077 0.3137
C10_8 C 0.5215(9) 0.4589(12) 0.2642(10)
H11_8 H 0.5219 0.4831 0.2573
C11_8 C 0.4229(11) 0.3326(16) 0.2840(14)
C12_8 C 0.5352(8) 0.4866(11) 0.1739(7)
H12_8 H 0.5533 0.4838 0.1906
C13_8 C 0.4815(9) 0.4769(11) 0.1406(7)
C14_8 C 0.4350(8) 0.4545(11) 0.1359(5)
H13_8 H 0.4286 0.4679 0.1148
H14_8 H 0.4233 0.4584 0.1598
C15_8 C 0.4117(10) 0.4058(13) 0.1266(7)
H15_8 H 0.3816 0.3927 0.1252
C16_8 C 0.4338(9) 0.4057(13) 0.0846(8)
C19_8 C 0.3420(6) 0.2591(9) 0.0172(7)
H16_7 H 0.3238 0.2708 0.0182
C20_7 C 0.3145(7) 0.2118(11) 0.0052(7)
H17_7 H 0.2945 0.1971 0.0257
C22_8 C 0.3369(6) 0.1597(11) 0.0149(7)
H19_7 H 0.3192 0.1443 0.0352
C24_8 C 0.3604(6) 0.2629(10) 0.0605(7)
C40_8 C 0.4442(7) 0.0377(9) 0.0563(5)
C41_8 C 0.5106(8) 0.5068(13) 0.1253(7)
H33_8 H 0.5096 0.5209 0.1031
C42_8 C 0.4095(5) 0.0877(9) 0.1509(6)
C43_8 C 0.4407(9) 0.1018(13) 0.1818(6)
C44_8 C 0.4784(10) 0.1462(15) 0.2321(11)
H34_8 H 0.5001 0.1420 0.2210
C45_8 C 0.4950(18) 0.1891(25) 0.2348(16)
H35_8 H 0.5031 0.2017 0.2090
H36_8 H 0.5191 0.2011 0.2517
C46_8 C 0.4670(13) 0.1252(18) 0.2662(12)
C47_8 C 0.3525(5) 0.0940(9) 0.1247(7)
H37_8 H 0.3390 0.0640 0.1230
C48_8 C 0.3710(7) 0.1107(10) 0.0837(7)
C49_7 C 0.3229(7) 0.1027(11) 0.1377(7)
H38_7 H 0.2956 0.0825 0.1420
C50_8 C 0.3394(5) 0.1500(8) 0.1445(6)
C51_8 C 0.3803(10) 0.2081(13) 0.1694(6)
H39_8 H 0.4028 0.2294 0.1821
C52_7 C 0.3297(6) 0.1774(8) 0.1302(5)
H40_7 H 0.3095 0.1725 0.1116
C55_8 C 0.4268(6) 0.0186(9) 0.0146(7)
H43_8 H 0.3966 0.0026 0.0159
O31_8 O 0.4616(6) 0.2068(8) 0.1474(6)
Cu11_6 Cu 0.60016(15) 0.02702(18) 0.00400(9)
N25_6 N 0.4843(10) 0.0300(12) 0.1473(6)
H46_7 H 0.282905 0.261854 0.14828
H47_7 H 0.281944 0.226253 0.174386
H52_7 H 0.330215 0.09971 0.167374
H55_8 H 0.488562 0.216431 0.159178
H56_8 H 0.461064 0.195821 0.121299
H63_8 H 0.524961 0.135561 0.0144329
H64_8 H 0.554664 0.117636 0.00597208
Cu4_8 Cu 0.48365(10) 0.07300(15) 0.95067(8)
O3_7 O 0.3192(8) 0.0578(12) 0.9729(7)
O4_7 O 0.3763(9) 0.4099(14) 0.9758(13)
O13_8 O 0.4358(5) 0.3791(7) 0.9551(3)
O16_8 O 0.4173(7) 0.1270(9) 0.9627(4)
O20_8 O 0.4771(12) 0.1636(16) 0.8477(7)
O21_8 O 0.4389(10) 0.0993(13) 0.8657(6)
O28_8 O 0.3864(7) 0.3215(9) 0.8622(5)
O29_8 O 0.4475(10) 0.3512(13) 0.8301(7)
N8_8 N 0.4208(5) 0.3182(9) 0.9296(6)
N9_8 N 0.3708(6) 0.2799(9) 0.9880(6)
N10_8 N 0.4122(6) 0.2434(9) 0.8976(5)
N11_8 N 0.4147(6) 0.2085(8) 0.8526(9)
H5_8 H 0.4094 0.1876 0.8382
N12_8 N 0.3672(6) 0.2066(9) 0.9690(6)
N13_8 N 0.3650(6) 0.1517(8) 0.9957(6)
N14_8 N 0.4645(8) 0.1111(11) 0.9379(6)
N15_8 N 0.4382(5) 0.0510(9) 0.9900(4)
N16_8 N 0.5199(9) 0.0886(13) 0.9047(7)
N17_8 N 0.5443(14) 0.0911(21) 0.8532(7)
H6_8 H 0.5442 0.0806 0.8307
N18_8 N 0.5025(6) 0.0379(8) 0.9720(6)
N24_6 N 0.5462(8) 0.0216(10) 0.9940(6)
C17_8 C 0.3883(7) 0.3206(13) 0.9893(12)
C18_8 C 0.4191(9) 0.3429(12) 0.9569(7)
H18_7 H 0.2996 0.2097 0.9812
C21_8 C 0.3403(7) 0.1929(10) 0.9991(6)
C23_8 C 0.3818(7) 0.1820(11) 0.9701(8)
H20_8 H 0.4032 0.1855 0.9537
C25_8 C 0.4472(10) 0.3350(15) 0.8976(15)
H21_8 H 0.4665 0.3642 0.9022
C26_8 C 0.4708(7) 0.3125(11) 0.8888(9)
H22_8 H 0.4892 0.3262 0.8669
H23_8 H 0.4878 0.3154 0.9114
C27_8 C 0.4457(7) 0.2675(12) 0.8790(10)
C28_8 C 0.4498(9) 0.2493(13) 0.8442(14)
H24_8 H 0.4683 0.2595 0.8233
C29_8 C 0.3927(7) 0.2051(10) 0.8814(6)
H25_8 H 0.3687 0.1820 0.8898
C30_8 C 0.4347(8) 0.1064(11) 0.9591(6)
C31_8 C 0.4203(9) 0.0747(13) 0.9915(6)
C32_8 C 0.4849(10) 0.1481(13) 0.9129(8)
H26_8 H 0.4829 0.1707 0.9251
C33_8 C 0.456(2) 0.1325(25) 0.8736(8)
C34_8 C 0.5285(12) 0.1604(18) 0.9070(12)
H27_8 H 0.5413 0.1851 0.8910
H28_8 H 0.5421 0.1673 0.9324
C35_8 C 0.5351(15) 0.1327(23) 0.8903(9)
C36_8 C 0.563(2) 0.128(3) 0.859(2)
H29_8 H 0.5874 0.1471 0.8469
C37_8 C 0.5247(19) 0.0689(25) 0.8820(12)
H30_8 H 0.5157 0.0410 0.8845
C39_8 C 0.4832(7) 0.0076(9) 0.9983(7)
C54_8 C 0.5422(13) 0.0442(16) 0.9711(7)
H42_8 H 0.5632 0.0633 0.9549
C56_8 C 0.4177(12) 0.3294(16) 0.8593(9)
O30_8 O 0.5381(6) 0.1281(10) 0.9940(7)
H44_7 H 0.325044 0.036546 0.96393
H45_7 H 0.295879 0.0457117 0.990774
H50_7 H 0.382707 0.438059 0.980362
H51_7 H 0.375286 0.404827 0.947622
C1_9 C 0.8027(11) 0.2609(9) 0.2538(11)
N1_9 N 0.7929(18) 0.2475(14) 0.2925(9)
H1_9 H 0.7863 0.2591 0.3107
C2_9 C 0.7958(18) 0.2121(13) 0.2967(6)
H2_9 H 0.7909 0.1968 0.3196
C3_9 C 0.8074(10) 0.2037(7) 0.2606(8)
H3_9 H 0.8116 0.1817 0.2551
N2_9 N 0.8117(10) 0.2339(7) 0.2341(6)
Cu1_9 Cu 0.59164(12) 0.05551(8) 0.19813(8)
Cu3_9 Cu 0.84987(15) 0.25613(11) 0.19038(8)
Cu6_9 Cu 0.89069(13) 0.26744(9) 0.00532(7)
Cu8_9 Cu 0.73324(16) 0.09398(11) 0.13707(9)
O5_8 O 0.7449(16) 0.0433(12) 0.1669(12)
O6_9 O 0.6753(9) 0.0538(6) 0.1293(6)
O7_9 O 0.7131(8) 0.1028(6) 0.1880(4)
O8_9 O 0.6564(11) 0.0536(9) 0.2793(5)
O9_9 O 0.6809(15) 0.1111(11) 0.3152(7)
O10_9 O 0.6036(6) 0.0651(4) 0.0804(4)
O11_9 O 0.5866(8) 0.0026(5) 0.0576(5)
O12_9 O 0.6570(11) 0.0431(7) 0.0151(6)
O14_9 O 0.7458(6) 0.0837(4) 0.0848(4)
O15_9 O 0.7276(6) 0.1267(5) 0.0597(4)
O17_9 O 0.9299(7) 0.3248(5) 0.0174(5)
O18_9 O 0.9083(7) 0.2537(5) 0.0558(4)
O19_9 O 0.8599(6) 0.2644(5) 0.0791(4)
O22_9 O 0.9868(7) 0.4122(5) 0.0864(4)
O23_9 O 0.9281(6) 0.4028(5) 0.0625(3)
O24_9 O 0.9170(9) 0.3752(7) 0.1789(4)
O25_9 O 0.9381(6) 0.3418(4) 0.1271(4)
O26_9 O 0.8576(19) 0.3496(12) 0.2980(7)
O27_9 O 0.8950(15) 0.3299(10) 0.2769(7)
N3_9 N 0.6114(8) 0.0373(6) 0.1550(5)
N4_9 N 0.5372(9) 0.0334(5) 0.1730(5)
N5_9 N 0.6484(11) 0.0889(8) 0.2155(6)
N6_9 N 0.5775(7) 0.0777(5) 0.2432(5)
N7_9 N 0.5441(10) 0.0841(7) 0.2930(6)
H4_9 H 0.5246 0.0797 0.3093
N20_9 N 0.8937(9) 0.2783(5) 0.1526(4)
N21_9 N 0.8714(11) 0.3162(9) 0.2044(6)
N22_9 N 0.8290(8) 0.2003(6) 0.1715(5)
N23_9 N 0.7868(11) 0.1416(7) 0.1478(6)
C4_9 C 0.6547(17) 0.0545(10) 0.1535(7)
C5_9 C 0.6710(14) 0.0848(7) 0.1921(11)
C6_9 C 0.6687(14) 0.1152(9) 0.2447(7)
H7_9 H 0.6971 0.1349 0.2370
C7_9 C 0.6439(14) 0.1371(9) 0.2527(8)
H8_9 H 0.6588 0.1584 0.2720
H9_9 H 0.6434 0.1507 0.2286
C8_9 C 0.6033(11) 0.1134(7) 0.2657(11)
C9_9 C 0.5821(11) 0.1146(8) 0.2942(7)
H10_9 H 0.5923 0.1348 0.3137
C10_9 C 0.5411(12) 0.0627(8) 0.2642(10)
H11_9 H 0.5169 0.0389 0.2573
C11_9 C 0.6674(16) 0.0904(11) 0.2840(14)
C12_9 C 0.5134(11) 0.0487(7) 0.1739(7)
H12_9 H 0.5162 0.0696 0.1906
C13_9 C 0.5231(11) 0.0047(7) 0.1406(7)
C15_9 C 0.5942(13) 0.0060(9) 0.1266(7)
C16_9 C 0.5943(13) 0.0282(9) 0.0846(8)
C19_9 C 0.7409(9) 0.0830(7) 0.0172(7)
H16_8 H 0.7292 0.0531 0.0182
C20_8 C 0.7882(11) 0.1028(9) 0.0052(7)
H17_8 H 0.8029 0.0975 0.0257
C22_9 C 0.8403(11) 0.1773(9) 0.0149(7)
H19_8 H 0.8557 0.1750 0.0352
C24_9 C 0.7371(10) 0.0976(8) 0.0605(7)
C40_9 C 0.9623(9) 0.4066(6) 0.0563(5)
C41_9 C 0.4932(13) 0.0039(10) 0.1253(7)
C42_9 C 0.9123(9) 0.3219(8) 0.1509(6)
C43_9 C 0.8982(13) 0.3390(9) 0.1818(6)
C44_9 C 0.8538(15) 0.3323(11) 0.2321(11)
H34_9 H 0.8580 0.3582 0.2210
C45_9 C 0.8109(25) 0.3060(17) 0.2348(16)
H35_9 H 0.7983 0.3015 0.2090
H36_9 H 0.7989 0.3181 0.2517
C46_9 C 0.8748(18) 0.3419(13) 0.2662(12)
C47_9 C 0.9060(9) 0.2586(7) 0.1247(7)
H37_9 H 0.9360 0.2751 0.1230
C48_9 C 0.8893(10) 0.2604(7) 0.0837(7)
C49_8 C 0.8973(11) 0.2203(8) 0.1377(7)
H38_8 H 0.9175 0.2132 0.1420
C50_9 C 0.8500(8) 0.1895(6) 0.1445(6)
C51_9 C 0.7919(13) 0.1723(9) 0.1694(6)
H39_9 H 0.7706 0.1735 0.1821
C52_8 C 0.8226(8) 0.1524(6) 0.1302(5)
H40_8 H 0.8275 0.1371 0.1116
C55_9 C 0.9814(9) 0.4083(7) 0.0146(7)
H43_9 H 0.9974 0.3941 0.0159
O31_9 O 0.7932(8) 0.2549(6) 0.1474(6)
H46_8 H 0.738146 0.0210514 0.14828
H47_8 H 0.773747 0.0556911 0.174386
H52_8 H 0.90029 0.230505 0.167374
H55_9 H 0.783569 0.272132 0.159178
H56_9 H 0.804179 0.265242 0.121299
H63_9 H 0.864439 0.389399 0.0144329
H64_9 H 0.882364 0.437028 0.00597208
Cu4_9 Cu 0.92700(15) 0.41066(11) 0.95067(8)
O3_8 O 0.9422(12) 0.2615(9) 0.9729(7)
O13_9 O 0.6209(7) 0.0568(5) 0.9551(3)
O16_9 O 0.8730(9) 0.2904(6) 0.9627(4)
O20_9 O 0.8364(16) 0.3136(10) 0.8477(7)
O21_9 O 0.9007(13) 0.3397(8) 0.8657(6)
O28_9 O 0.6785(9) 0.0650(6) 0.8622(5)
O29_9 O 0.6488(13) 0.0964(8) 0.8301(7)
N8_9 N 0.6818(9) 0.1027(7) 0.9296(6)
N9_9 N 0.7201(9) 0.0910(7) 0.9880(6)
N10_9 N 0.7566(9) 0.1689(7) 0.8976(5)
N11_9 N 0.7915(8) 0.2063(6) 0.8526(9)
H5_9 H 0.8124 0.2219 0.8382
N12_9 N 0.7934(9) 0.1607(7) 0.9690(6)
N13_9 N 0.8483(8) 0.2134(6) 0.9957(6)
N14_9 N 0.8889(11) 0.3535(8) 0.9379(6)
N15_9 N 0.9490(9) 0.3873(7) 0.9900(4)
N16_9 N 0.9114(13) 0.4314(9) 0.9047(7)
N17_9 N 0.9089(21) 0.4533(15) 0.8532(7)
H6_9 H 0.9194 0.4637 0.8307
N18_9 N 0.9621(8) 0.4647(6) 0.9720(6)
C17_9 C 0.6794(13) 0.0678(11) 0.9893(12)
C18_9 C 0.6571(12) 0.0763(8) 0.9569(7)
H18_8 H 0.7903 0.0900 0.9812
C21_9 C 0.8071(10) 0.1475(7) 0.9991(6)
C23_9 C 0.8180(11) 0.1999(8) 0.9701(8)
H20_9 H 0.8145 0.2178 0.9537
C25_9 C 0.6650(15) 0.1123(11) 0.8976(15)
H21_9 H 0.6358 0.1024 0.9022
C26_9 C 0.6875(11) 0.1584(9) 0.8888(9)
H22_9 H 0.6738 0.1631 0.8669
H23_9 H 0.6846 0.1725 0.9114
C27_9 C 0.7325(12) 0.1783(10) 0.8790(10)
C28_9 C 0.7507(13) 0.2006(9) 0.8442(14)
H24_9 H 0.7405 0.2089 0.8233
C29_9 C 0.7949(10) 0.1877(7) 0.8814(6)
H25_9 H 0.8180 0.1868 0.8898
C30_9 C 0.8936(11) 0.3284(8) 0.9591(6)
C31_9 C 0.9253(13) 0.3457(9) 0.9915(6)
C32_9 C 0.8519(13) 0.3369(9) 0.9129(8)
H26_9 H 0.8293 0.3123 0.9251
C33_9 C 0.8675(25) 0.3239(15) 0.8736(8)
C34_9 C 0.8396(18) 0.3682(13) 0.9070(12)
H27_9 H 0.8149 0.3563 0.8910
H28_9 H 0.8327 0.3749 0.9324
C35_9 C 0.8673(23) 0.4025(17) 0.8903(9)
C36_9 C 0.872(3) 0.436(2) 0.859(2)
H29_9 H 0.8529 0.4404 0.8469
C37_9 C 0.9311(25) 0.4559(16) 0.8820(12)
H30_9 H 0.9590 0.4748 0.8845
C39_9 C 0.9924(9) 0.4757(6) 0.9983(7)
C54_9 C 0.9558(16) 0.4981(9) 0.9711(7)
H42_9 H 0.9367 0.5000 0.9549
C56_9 C 0.6706(16) 0.0884(10) 0.8593(9)
O30_9 O 0.8719(10) 0.4101(8) 0.9940(7)
H44_8 H 0.963454 0.288498 0.96393
H45_8 H 0.954288 0.250167 0.990774
C14_9 C 0.5455(11) 0.9806(7) 0.1359(5)
H13_9 H 0.5321 0.9608 0.1148
H14_9 H 0.5416 0.9650 0.1598
H15_9 H 0.6073 0.9890 0.1252
H33_9 H 0.4791 0.9888 0.1031
O3_9 O 0.9859(8) 0.3911(12) 0.3062(7)
O5_9 O 0.9650(10) 0.5884(16) 0.5002(12)
H16_9 H 0.9905 0.6041 0.3515
C20_9 C 0.9812(7) 0.5451(11) 0.3385(7)
H17_9 H 0.9612 0.5304 0.3590
H18_9 H 0.9663 0.5430 0.3145
H19_9 H 0.9859 0.4776 0.3685
C49_9 C 0.9896(7) 0.4360(11) 0.4710(7)
H38_9 H 0.9623 0.4158 0.4753
C52_9 C 0.9964(6) 0.5107(8) 0.4635(5)
H40_9 H 0.9762 0.5058 0.4449
H44_9 H 0.991711 0.369879 0.297263
H45_9 H 0.962545 0.379045 0.324107
H46_9 H 0.949572 0.595187 0.481613
H47_9 H 0.948611 0.559587 0.507719
H52_9 H 0.996882 0.433043 0.500707
O4_8 O 0.0335(11) 0.6237(9) 0.9758(13)
H50_8 H 0.0553521 0.617293 0.980362
H51_8 H 0.0295412 0.624714 0.947622
O2_8 O 0.3921(5) 0.9875(8) 0.1691(5)
C38_8 C 0.4417(8) 0.9915(10) 0.0041(6)
H31_8 H 0.4332 0.9708 0.0245
C53_8 C 0.5092(11) 0.9985(14) 0.0121(6)
H41_8 H 0.5038 0.9790 0.0316
H48_8 H 0.396262 0.964007 0.165785
H49_8 H 0.39353 0.994185 0.196853
H32_8 H 0.4278 0.9774 0.9802
O2_9 O 0.0125(8) 0.4047(6) 0.1691(5)
C38_9 C 0.0085(10) 0.4503(6) 0.0041(6)
H31_9 H 0.0292 0.4625 0.0245
C53_9 C 0.0015(14) 0.5108(8) 0.0121(6)
H41_9 H 0.0210 0.5249 0.0316
H48_9 H 0.0359929 0.432255 0.165785
H49_9 H 0.00581462 0.399345 0.196853
H32_9 H 0.0226 0.4505 0.9802
O4_9 O 0.5901(14) 0.9665(11) 0.9758(13)
H50_9 H 0.561941 0.944648 0.980362
H51_9 H 0.595173 0.970459 0.947622
Ca1 Ca 0.4757(4) 0.8054(4) 0.4558(4)
Ca2 Ca 0.4736(4) 0.8102(4) 0.3523(4)
O33 O 0.4905(7) 0.7707(8) 0.3988(7)
O34 O 0.4369(8) 0.8229(8) 0.4035(11)
O35 O 0.5427(13) 0.8182(13) 0.4756(12)
O36 O 0.4580(8) 0.8426(11) 0.5033(12)
O37 O 0.422(3) 0.737(2) 0.461(2)
O38 O 0.5301(8) 0.8696(9) 0.4418(10)
O39 O 0.407(2) 0.743(2) 0.3691(19)
O40 O 0.5362(10) 0.8616(9) 0.3696(14)
O41 O 0.5138(19) 0.7946(15) 0.3059(15)
O42 O 0.4854(9) 0.8763(8) 0.3292(10)
H53 H 0.401886 0.741947 0.397231
H54 H 0.384024 0.742076 0.354915
H57 H 0.501237 0.764904 0.303092
H58 H 0.514363 0.806747 0.280472
H59 H 0.513958 0.893067 0.321006
H60 H 0.467368 0.872203 0.307015
H61 H 0.526796 0.877712 0.415492
H62 H 0.530881 0.889362 0.46081
H65 H 0.433446 0.719024 0.465005
H66 H 0.404512 0.734475 0.483186
H67 H 0.428672 0.833028 0.5017
H68 H 0.464716 0.837715 0.529649
H69 H 0.556855 0.854099 0.36305
H70 H 0.542104 0.886533 0.355491
H71 H 0.562776 0.834303 0.455453
H72 H 0.550404 0.833362 0.500266
Ca1_2 Ca 0.1946(4) 0.6703(6) 0.4558(4)
Ca2_2 Ca 0.1898(4) 0.6634(6) 0.3523(4)
O33_2 O 0.2293(8) 0.7198(11) 0.3988(7)
O34_2 O 0.1771(8) 0.6140(11) 0.4035(11)
O35_2 O 0.1818(13) 0.7245(18) 0.4756(12)
O36_2 O 0.1574(11) 0.6154(14) 0.5033(12)
O37_2 O 0.263(2) 0.685(4) 0.461(2)
O38_2 O 0.1304(9) 0.6605(12) 0.4418(10)
O39_2 O 0.257(2) 0.664(3) 0.3691(19)
O40_2 O 0.1384(9) 0.6746(13) 0.3696(14)
O41_2 O 0.2054(15) 0.7192(24) 0.3059(15)
O42_2 O 0.1237(8) 0.6091(12) 0.3292(10)
H53_2 H 0.258053 0.659939 0.397231
H54_2 H 0.257924 0.641948 0.354915
H57_2 H 0.235096 0.736333 0.303092
H58_2 H 0.193253 0.707616 0.280472
H59_2 H 0.106933 0.620891 0.321006
H60_2 H 0.127797 0.595165 0.307015
H61_2 H 0.122288 0.649084 0.415492
H62_2 H 0.110638 0.641519 0.46081
H65_2 H 0.280976 0.714422 0.465005
H66_2 H 0.265525 0.670038 0.483186
H67_2 H 0.166972 0.595644 0.5017
H68_2 H 0.162285 0.627 0.529649
H69_2 H 0.145901 0.702756 0.36305
H70_2 H 0.113467 0.655571 0.355491
H71_2 H 0.165697 0.728473 0.455453
H72_2 H 0.166638 0.717043 0.500266
Ca1_3 Ca 0.3297(6) 0.5243(4) 0.4558(4)
Ca2_3 Ca 0.3366(6) 0.5264(4) 0.3523(4)
O33_3 O 0.2802(11) 0.5095(7) 0.3988(7)
O34_3 O 0.3860(11) 0.5631(8) 0.4035(11)
O35_3 O 0.2755(18) 0.4573(13) 0.4756(12)
O36_3 O 0.3846(14) 0.5420(8) 0.5033(12)
O37_3 O 0.315(4) 0.578(3) 0.461(2)
O38_3 O 0.3395(12) 0.4699(8) 0.4418(10)
O39_3 O 0.336(3) 0.593(2) 0.3691(19)
O40_3 O 0.3254(13) 0.4638(10) 0.3696(14)
O41_3 O 0.2808(24) 0.4862(19) 0.3059(15)
O42_3 O 0.3909(12) 0.5146(9) 0.3292(10)
H53_3 H 0.340061 0.598114 0.397231
H54_3 H 0.358052 0.615976 0.354915
H57_3 H 0.263667 0.498763 0.303092
H58_3 H 0.292384 0.485637 0.280472
H59_3 H 0.379109 0.486042 0.321006
H60_3 H 0.404835 0.532632 0.307015
H61_3 H 0.350916 0.473204 0.415492
H62_3 H 0.358481 0.469119 0.46081
H65_3 H 0.285578 0.566554 0.465005
H66_3 H 0.329962 0.595488 0.483186
H67_3 H 0.404356 0.571328 0.5017
H68_3 H 0.373 0.535284 0.529649
H69_3 H 0.297244 0.443145 0.36305
H70_3 H 0.344429 0.457896 0.355491
H71_3 H 0.271527 0.437224 0.455453
H72_3 H 0.282957 0.449596 0.500266
Ca1_4 Ca 0.1424(4) 0.1387(4) 0.7891(4)
Ca2_4 Ca 0.1403(4) 0.1435(4) 0.6856(4)
O33_4 O 0.1572(7) 0.1040(8) 0.7321(7)
O34_4 O 0.1036(8) 0.1562(8) 0.7368(11)
O35_4 O 0.2094(13) 0.1515(13) 0.8089(12)
O36_4 O 0.1247(8) 0.1759(11) 0.8366(12)
O37_4 O 0.089(3) 0.070(2) 0.794(2)
O38_4 O 0.1968(8) 0.2029(9) 0.7751(10)
O39_4 O 0.074(2) 0.076(2) 0.7024(19)
O40_4 O 0.2029(10) 0.1949(9) 0.7029(14)
O41_4 O 0.1805(19) 0.1279(15) 0.6392(15)
O42_4 O 0.1521(9) 0.2096(8) 0.6625(10)
H53_4 H 0.0685525 0.07528 0.730564
H54_4 H 0.0506907 0.0754097 0.688248
H57_4 H 0.167903 0.0982369 0.636425
H58_4 H 0.18103 0.14008 0.613806
H59_4 H 0.180625 0.2264 0.654339
H60_4 H 0.134035 0.205536 0.640348
H61_4 H 0.193463 0.211045 0.748825
H62_4 H 0.197547 0.222695 0.794143
H65_4 H 0.100112 0.0523569 0.798338
H66_4 H 0.0711791 0.0678082 0.81652
H67_4 H 0.0953391 0.166362 0.835034
H68_4 H 0.131382 0.171049 0.862982
H69_4 H 0.223521 0.187432 0.696383
H70_4 H 0.20877 0.219866 0.688825
H71_4 H 0.229442 0.167636 0.788786
H72_4 H 0.217071 0.166695 0.833599
Ca1_5 Ca 0.8613(4) 0.0036(6) 0.7891(4)
O33_5 O 0.8960(8) 0.0531(11) 0.7321(7)
O35_5 O 0.8485(13) 0.0578(18) 0.8089(12)
O37_5 O 0.930(2) 0.018(4) 0.794(2)
O40_5 O 0.8051(9) 0.0079(13) 0.7029(14)
O41_5 O 0.8721(15) 0.0525(24) 0.6392(15)
H57_5 H 0.901763 0.0696663 0.636425
H58_5 H 0.85992 0.0409495 0.613806
H65_5 H 0.947643 0.0477556 0.798338
H66_5 H 0.932192 0.00337086 0.81652
H69_5 H 0.812568 0.0360889 0.696383
H71_5 H 0.832364 0.0618059 0.788786
H72_5 H 0.833305 0.0503759 0.833599
Ca2_5 Ca 0.8565(4) 0.9967(6) 0.6856(4)
O34_5 O 0.8438(8) 0.9473(11) 0.7368(11)
O36_5 O 0.8241(11) 0.9487(14) 0.8366(12)
O38_5 O 0.7971(9) 0.9938(12) 0.7751(10)
O39_5 O 0.924(2) 0.997(3) 0.7024(19)
O42_5 O 0.7904(8) 0.9424(12) 0.6625(10)
H53_5 H 0.92472 0.993272 0.730564
H54_5 H 0.92459 0.975281 0.688248
H59_5 H 0.7736 0.954224 0.654339
H60_5 H 0.794464 0.928498 0.640348
H61_5 H 0.788955 0.982418 0.748825
H62_5 H 0.777305 0.974852 0.794143
H67_5 H 0.833638 0.928977 0.835034
H68_5 H 0.828951 0.960333 0.862982
H70_5 H 0.780134 0.988904 0.688825
Ca2_6 Ca 0.0033(6) 0.8597(4) 0.6856(4)
O34_6 O 0.0527(11) 0.8964(8) 0.7368(11)
O36_6 O 0.0513(14) 0.8753(8) 0.8366(12)
O38_6 O 0.0062(12) 0.8032(8) 0.7751(10)
O39_6 O 0.003(3) 0.926(2) 0.7024(19)
O42_6 O 0.0576(12) 0.8479(9) 0.6625(10)
H53_6 H 0.00672759 0.931448 0.730564
H54_6 H 0.024719 0.949309 0.688248
H59_6 H 0.0457758 0.819375 0.654339
H60_6 H 0.0715019 0.865965 0.640348
H61_6 H 0.0175825 0.806537 0.748825
H62_6 H 0.025148 0.802453 0.794143
H67_6 H 0.0710227 0.904661 0.835034
H68_6 H 0.0396666 0.868618 0.862982
H70_6 H 0.0110958 0.79123 0.688825
Ca1_6 Ca 0.9964(6) 0.8576(4) 0.7891(4)
O33_6 O 0.9469(11) 0.8428(7) 0.7321(7)
O35_6 O 0.9422(18) 0.7906(13) 0.8089(12)
O37_6 O 0.982(4) 0.911(3) 0.794(2)
O40_6 O 0.9921(13) 0.7971(10) 0.7029(14)
O41_6 O 0.9475(24) 0.8195(19) 0.6392(15)
H57_6 H 0.930334 0.832097 0.636425
H58_6 H 0.95905 0.81897 0.613806
H65_6 H 0.952244 0.899888 0.798338
H66_6 H 0.996629 0.928821 0.81652
H69_6 H 0.963911 0.776479 0.696383
H71_6 H 0.938194 0.770558 0.788786
H72_6 H 0.949624 0.782929 0.833599
Ca1_7 Ca 0.8090(4) 0.4721(4) 0.1225(4)
Ca2_7 Ca 0.8069(4) 0.4769(4) 0.0190(4)
O33_7 O 0.8238(7) 0.4374(8) 0.0655(7)
O34_7 O 0.7702(8) 0.4896(8) 0.0702(11)
O35_7 O 0.8760(13) 0.4849(13) 0.1423(12)
O36_7 O 0.7913(8) 0.5093(11) 0.1700(12)
O37_7 O 0.755(3) 0.404(2) 0.128(2)
O38_7 O 0.8634(8) 0.5363(9) 0.1085(10)
O39_7 O 0.740(2) 0.410(2) 0.0358(19)
O40_7 O 0.8695(10) 0.5283(9) 0.0363(14)
H53_7 H 0.735219 0.408613 0.0638975
H54_7 H 0.717357 0.408743 0.0215817
H61_7 H 0.860129 0.544379 0.0821582
H62_7 H 0.864214 0.556029 0.127477
H65_7 H 0.766779 0.38569 0.131672
H66_7 H 0.737846 0.401142 0.149853
H67_7 H 0.762006 0.499695 0.168367
H68_7 H 0.798049 0.504382 0.196316
H69_7 H 0.890188 0.520766 0.0297162
H70_7 H 0.875437 0.553199 0.0221579
H71_7 H 0.896109 0.50097 0.122119
H72_7 H 0.883738 0.500029 0.166933
O41_7 O 0.8471(19) 0.4613(15) 0.9726(15)
O42_7 O 0.8187(9) 0.5430(8) 0.9959(10)
H57_7 H 0.83457 0.43157 0.969759
H58_7 H 0.847697 0.473414 0.947139
H59_7 H 0.847291 0.559734 0.987672
H60_7 H 0.800701 0.53887 0.973681
Ca1_8 Ca 0.5279(4) 0.3370(6) 0.1225(4)
Ca2_8 Ca 0.5231(4) 0.3301(6) 0.0190(4)
O33_8 O 0.5626(8) 0.3865(11) 0.0655(7)
O34_8 O 0.5104(8) 0.2807(11) 0.0702(11)
O35_8 O 0.5151(13) 0.3912(18) 0.1423(12)
O36_8 O 0.4907(11) 0.2821(14) 0.1700(12)
O37_8 O 0.596(2) 0.352(4) 0.128(2)
O38_8 O 0.4637(9) 0.3272(12) 0.1085(10)
O39_8 O 0.590(2) 0.331(3) 0.0358(19)
O40_8 O 0.4717(9) 0.3413(13) 0.0363(14)
H53_8 H 0.591387 0.326606 0.0638975
H54_8 H 0.591257 0.308614 0.0215817
H61_8 H 0.455621 0.315751 0.0821582
H62_8 H 0.443971 0.308185 0.127477
H65_8 H 0.61431 0.381089 0.131672
H66_8 H 0.598858 0.336704 0.149853
H67_8 H 0.500305 0.262311 0.168367
H68_8 H 0.495618 0.293667 0.196316
H69_8 H 0.479234 0.369422 0.0297162
H70_8 H 0.446801 0.322238 0.0221579
H71_8 H 0.49903 0.395139 0.122119
H72_8 H 0.499971 0.383709 0.166933
O41_8 O 0.5387(15) 0.3859(24) 0.9726(15)
O42_8 O 0.4570(8) 0.2758(12) 0.9959(10)
H57_8 H 0.56843 0.403 0.969759
H58_8 H 0.526586 0.374283 0.947139
H59_8 H 0.440266 0.287558 0.987672
H60_8 H 0.46113 0.261831 0.973681
Ca1_9 Ca 0.6630(6) 0.1910(4) 0.1225(4)
Ca2_9 Ca 0.6699(6) 0.1931(4) 0.0190(4)
O33_9 O 0.6135(11) 0.1762(7) 0.0655(7)
O34_9 O 0.7193(11) 0.2298(8) 0.0702(11)
O35_9 O 0.6088(18) 0.1240(13) 0.1423(12)
O36_9 O 0.7179(14) 0.2087(8) 0.1700(12)
O37_9 O 0.648(4) 0.245(3) 0.128(2)
O38_9 O 0.6728(12) 0.1366(8) 0.1085(10)
O39_9 O 0.669(3) 0.260(2) 0.0358(19)
O40_9 O 0.6587(13) 0.1305(10) 0.0363(14)
H53_9 H 0.673394 0.264781 0.0638975
H54_9 H 0.691386 0.282643 0.0215817
H61_9 H 0.684249 0.139871 0.0821582
H62_9 H 0.691815 0.135786 0.127477
H65_9 H 0.618911 0.233221 0.131672
H66_9 H 0.663296 0.262154 0.149853
H67_9 H 0.737689 0.237994 0.168367
H68_9 H 0.706333 0.201951 0.196316
H69_9 H 0.630578 0.109812 0.0297162
H70_9 H 0.677762 0.124563 0.0221579
H71_9 H 0.604861 0.103891 0.122119
H72_9 H 0.616291 0.116262 0.166933
O41_9 O 0.6141(24) 0.1529(19) 0.9726(15)
O42_9 O 0.7242(12) 0.1813(9) 0.9959(10)
H57_9 H 0.597 0.16543 0.969759
H58_9 H 0.625717 0.152303 0.947139
H59_9 H 0.712442 0.152709 0.987672
H60_9 H 0.738169 0.199299 0.973681
loop_
_geom_bond_atom_site_label_1
_geom_bond_atom_site_label_2
_geom_bond_site_symmetry_1
_geom_bond_site_symmetry_2
H17 C20 1_555 1_555
H18 C20 1_555 1_555
H38 C49 1_555 1_555
H40 C52 1_555 1_555
O3 H44 1_555 1_555
O3 H45 1_555 1_555
O5 H46 1_555 1_555
O5 H47 1_555 1_555
C49 H52 1_555 1_555
C1 N1 1_555 1_555
N1 H1 1_555 1_555
C2 N1 1_555 1_555
H2 C2 1_555 1_555
C3 C2 1_555 1_555
H3 C3 1_555 1_555
N2 C1 1_555 1_555
Cu1 O1 1_555 1_555
Cu2 N8 1_555 1_555
Cu3 N2 1_555 1_555
Cu4 N14 1_555 1_555
Cu5 O2 1_555 1_555
Cu7 O4 1_555 1_555
O1 Cu9 1_555 1_555
O6 Cu8 1_555 1_555
O7 Cu8 1_555 1_555
O8 C11 1_555 1_555
O9 C11 1_555 1_555
O10 C16 1_555 1_555
O11 Cu7 1_555 1_555
O12 Cu7 1_555 1_555
O13 Cu7 1_555 1_555
O14 Cu8 1_555 1_555
O15 C24 1_555 1_555
O16 Cu6 1_555 1_555
O17 Cu6 1_555 1_555
O18 Cu6 1_555 1_555
O19 Cu6 1_555 1_555
O20 C33 1_555 1_555
O21 C33 1_555 1_555
O22 Cu5 1_555 1_555
O23 Cu5 1_555 1_555
O24 Cu5 1_555 1_555
O25 Cu5 1_555 1_555
O26 C46 1_555 1_555
O27 C46 1_555 1_555
O28 C56 1_555 1_555
O29 C56 1_555 1_555
N3 Cu1 1_555 1_555
N4 Cu1 1_555 1_555
N5 Cu1 1_555 1_555
N6 Cu1 1_555 1_555
N7 H4 1_555 1_555
N8 C18 1_555 1_555
N9 Cu2 1_555 1_555
N10 Cu2 1_555 1_555
N11 H5 1_555 1_555
N12 Cu2 1_555 1_555
N13 Cu6 1_555 1_555
N14 C30 1_555 1_555
N15 Cu4 1_555 1_555
N16 Cu4 1_555 1_555
N17 H6 1_555 1_555
N18 Cu4 1_555 1_555
N19 C12 1_555 1_555
N20 Cu3 1_555 1_555
N21 Cu3 1_555 1_555
N22 Cu3 1_555 1_555
N23 Cu8 1_555 1_555
N24 C53 1_555 1_555
C4 O6 1_555 1_555
C5 O7 1_555 1_555
C6 N5 1_555 1_555
H7 C6 1_555 1_555
C7 C6 1_555 1_555
H8 C7 1_555 1_555
H9 C7 1_555 1_555
C8 N6 1_555 1_555
C9 N7 1_555 1_555
H10 C9 1_555 1_555
C10 N6 1_555 1_555
H11 C10 1_555 1_555
C11 C6 1_555 1_555
C12 N4 1_555 1_555
H12 C12 1_555 1_555
C13 N4 1_555 1_555
C14 C13 1_555 1_555
H13 C14 1_555 1_555
H14 C14 1_555 1_555
C15 N3 1_555 1_555
H15 C15 1_555 1_555
C16 O11 1_555 1_555
C17 O12 1_555 1_555
C18 O13 1_555 1_555
C19 N9 1_555 1_555
C21 N12 1_555 1_555
C22 N13 1_555 1_555
C23 N12 1_555 1_555
H20 C23 1_555 1_555
C24 O14 1_555 1_555
C25 N8 1_555 1_555
H21 C25 1_555 1_555
C26 C25 1_555 1_555
H22 C26 1_555 1_555
H23 C26 1_555 1_555
C27 N10 1_555 1_555
C28 N11 1_555 1_555
H24 C28 1_555 1_555
C29 N10 1_555 1_555
H25 C29 1_555 1_555
C30 O16 1_555 1_555
C31 O17 1_555 1_555
C32 N14 1_555 1_555
H26 C32 1_555 1_555
C33 C32 1_555 1_555
C34 C32 1_555 1_555
H27 C34 1_555 1_555
H28 C34 1_555 1_555
C35 N16 1_555 1_555
C36 N17 1_555 1_555
H29 C36 1_555 1_555
C37 N16 1_555 1_555
H30 C37 1_555 1_555
C38 H31 1_555 1_555
H32 C38 1_555 1_555
C39 N18 1_555 1_555
C40 O22 1_555 1_555
C41 N19 1_555 1_555
H33 C41 1_555 1_555
C42 O25 1_555 1_555
C43 O24 1_555 1_555
C44 N21 1_555 1_555
H34 C44 1_555 1_555
C45 C1 1_555 1_555
H35 C45 1_555 1_555
H36 C45 1_555 1_555
C46 C44 1_555 1_555
C47 N20 1_555 1_555
H37 C47 1_555 1_555
C48 O18 1_555 1_555
C50 N22 1_555 1_555
C51 N22 1_555 1_555
H39 C51 1_555 1_555
C53 C39 1_555 1_555
H41 C53 1_555 1_555
C54 N18 1_555 1_555
H42 C54 1_555 1_555
C55 N15 1_555 1_555
H43 C55 1_555 1_555
C56 C25 1_555 1_555
O30 Cu4 1_555 1_555
O31 Cu3 1_555 1_555
Cu10 N19 1_555 1_555
Cu11 N24 1_555 1_555
O32 Cu2 1_555 1_555
N25 Cu5 1_555 1_555
N26 Cu7 1_555 1_555
C3 N2 1_555 1_555
O19 C48 1_555 1_555
O23 C40 1_555 1_555
N3 C4 1_555 1_555
N5 C5 1_555 1_555
N7 C10 1_555 1_555
N9 C17 1_555 1_555
N11 C29 1_555 1_555
N13 C23 1_555 1_555
N15 C31 1_555 1_555
N17 C37 1_555 1_555
N20 C42 1_555 1_555
N21 C43 1_555 1_555
N23 C51 1_555 1_555
N24 C54 1_555 1_555
C4 C5 1_555 1_555
C7 C8 1_555 1_555
C8 C9 1_555 1_555
C13 C41 1_555 1_555
C14 C15 1_555 1_555
C15 C16 1_555 1_555
C17 C18 1_555 1_555
C19 C24 1_555 1_555
C21 C22 1_555 1_555
C26 C27 1_555 1_555
C27 C28 1_555 1_555
C30 C31 1_555 1_555
C34 C35 1_555 1_555
C35 C36 1_555 1_555
C38 C39 1_555 1_555
C38 C55 1_555 1_555
C40 C55 1_555 1_555
C42 C43 1_555 1_555
C44 C45 1_555 1_555
C47 C48 1_555 1_555
O2 H48 1_555 1_555
O2 H49 1_555 1_555
O4 H50 1_555 1_555
O4 H51 1_555 1_555
O31 H55 1_555 1_555
O31 H56 1_555 1_555
O30 H63 1_555 1_555
O30 H64 1_555 1_555
C1_2 N1_2 1_555 1_555
N1_2 H1_2 1_555 1_555
C2_2 N1_2 1_555 1_555
H2_2 C2_2 1_555 1_555
C3_2 C2_2 1_555 1_555
H3_2 C3_2 1_555 1_555
N2_2 C1_2 1_555 1_555
Cu1_2 O1_2 1_555 1_555
Cu2_2 N8_2 1_555 1_555
Cu3_2 N2_2 1_555 1_555
Cu4_2 N14_2 1_555 1_555
Cu5_2 O2_2 1_555 1_555
Cu11 O4_2 1_555 1_555
O1_2 Cu9_2 1_555 1_555
O6_2 Cu8_2 1_555 1_555
O7_2 Cu8_2 1_555 1_555
O8_2 C11_2 1_555 1_555
O9_2 C11_2 1_555 1_555
O10_2 C16_2 1_555 1_555
O11_2 Cu11 1_555 1_555
O12_2 Cu11 1_555 1_555
O13_2 Cu11 1_555 1_555
O14_2 Cu8_2 1_555 1_555
O15_2 C24_2 1_555 1_555
O16_2 Cu6_2 1_555 1_555
O17_2 Cu6_2 1_555 1_555
O18_2 Cu6_2 1_555 1_555
O19_2 Cu6_2 1_555 1_555
O20_2 C33_2 1_555 1_555
O21_2 C33_2 1_555 1_555
O22_2 Cu5_2 1_555 1_555
O23_2 Cu5_2 1_555 1_555
O24_2 Cu5_2 1_555 1_555
O25_2 Cu5_2 1_555 1_555
O26_2 C46_2 1_555 1_555
O27_2 C46_2 1_555 1_555
O28_2 C56_2 1_555 1_555
O29_2 C56_2 1_555 1_555
N3_2 Cu1_2 1_555 1_555
N4_2 Cu1_2 1_555 1_555
N5_2 Cu1_2 1_555 1_555
N6_2 Cu1_2 1_555 1_555
N7_2 H4_2 1_555 1_555
N8_2 C18_2 1_555 1_555
N9_2 Cu2_2 1_555 1_555
N10_2 Cu2_2 1_555 1_555
N11_2 H5_2 1_555 1_555
N12_2 Cu2_2 1_555 1_555
N13_2 Cu6_2 1_555 1_555
N14_2 C30_2 1_555 1_555
N15_2 Cu4_2 1_555 1_555
N16_2 Cu4_2 1_555 1_555
N17_2 H6_2 1_555 1_555
N18_2 Cu4_2 1_555 1_555
N25 C12_2 1_555 1_555
N20_2 Cu3_2 1_555 1_555
N21_2 Cu3_2 1_555 1_555
N22_2 Cu3_2 1_555 1_555
N23_2 Cu8_2 1_555 1_555
N24_2 C53_2 1_555 1_555
C4_2 O6_2 1_555 1_555
C5_2 O7_2 1_555 1_555
C6_2 N5_2 1_555 1_555
H7_2 C6_2 1_555 1_555
C7_2 C6_2 1_555 1_555
H8_2 C7_2 1_555 1_555
H9_2 C7_2 1_555 1_555
C8_2 N6_2 1_555 1_555
C9_2 N7_2 1_555 1_555
H10_2 C9_2 1_555 1_555
C10_2 N6_2 1_555 1_555
H11_2 C10_2 1_555 1_555
C11_2 C6_2 1_555 1_555
C12_2 N4_2 1_555 1_555
H12_2 C12_2 1_555 1_555
C13_2 N4_2 1_555 1_555
C14_2 C13_2 1_555 1_555
H13_2 C14_2 1_555 1_555
H14_2 C14_2 1_555 1_555
C15_2 N3_2 1_555 1_555
H15_2 C15_2 1_555 1_555
C16_2 O11_2 1_555 1_555
C17_2 O12_2 1_555 1_555
C18_2 O13_2 1_555 1_555
C19_2 N9_2 1_555 1_555
C21_2 N12_2 1_555 1_555
C22_2 N13_2 1_555 1_555
C23_2 N12_2 1_555 1_555
H20_2 C23_2 1_555 1_555
C24_2 O14_2 1_555 1_555
C25_2 N8_2 1_555 1_555
H21_2 C25_2 1_555 1_555
C26_2 C25_2 1_555 1_555
H22_2 C26_2 1_555 1_555
H23_2 C26_2 1_555 1_555
C27_2 N10_2 1_555 1_555
C28_2 N11_2 1_555 1_555
H24_2 C28_2 1_555 1_555
C29_2 N10_2 1_555 1_555
H25_2 C29_2 1_555 1_555
C30_2 O16_2 1_555 1_555
C31_2 O17_2 1_555 1_555
C32_2 N14_2 1_555 1_555
H26_2 C32_2 1_555 1_555
C33_2 C32_2 1_555 1_555
C34_2 C32_2 1_555 1_555
H27_2 C34_2 1_555 1_555
H28_2 C34_2 1_555 1_555
C35_2 N16_2 1_555 1_555
C36_2 N17_2 1_555 1_555
H29_2 C36_2 1_555 1_555
C37_2 N16_2 1_555 1_555
H30_2 C37_2 1_555 1_555
C38_2 H31_2 1_555 1_555
H32_2 C38_2 1_555 1_555
C39_2 N18_2 1_555 1_555
C40_2 O22_2 1_555 1_555
C41_2 N25 1_555 1_555
H33_2 C41_2 1_555 1_555
C42_2 O25_2 1_555 1_555
C43_2 O24_2 1_555 1_555
C44_2 N21_2 1_555 1_555
H34_2 C44_2 1_555 1_555
C45_2 C1_2 1_555 1_555
H35_2 C45_2 1_555 1_555
H36_2 C45_2 1_555 1_555
C46_2 C44_2 1_555 1_555
C47_2 N20_2 1_555 1_555
H37_2 C47_2 1_555 1_555
C48_2 O18_2 1_555 1_555
C50_2 N22_2 1_555 1_555
C51_2 N22_2 1_555 1_555
H39_2 C51_2 1_555 1_555
C53_2 C39_2 1_555 1_555
H41_2 C53_2 1_555 1_555
C54_2 N18_2 1_555 1_555
H42_2 C54_2 1_555 1_555
C55_2 N15_2 1_555 1_555
H43_2 C55_2 1_555 1_555
C56_2 C25_2 1_555 1_555
O30_2 Cu4_2 1_555 1_555
O31_2 Cu3_2 1_555 1_555
Cu11_2 N24_2 1_555 1_555
O32_2 Cu2_2 1_555 1_555
N25_2 Cu5_2 1_555 1_555
C3_2 N2_2 1_555 1_555
O19_2 C48_2 1_555 1_555
O23_2 C40_2 1_555 1_555
N3_2 C4_2 1_555 1_555
N5_2 C5_2 1_555 1_555
N7_2 C10_2 1_555 1_555
N9_2 C17_2 1_555 1_555
N11_2 C29_2 1_555 1_555
N13_2 C23_2 1_555 1_555
N15_2 C31_2 1_555 1_555
N17_2 C37_2 1_555 1_555
N20_2 C42_2 1_555 1_555
N21_2 C43_2 1_555 1_555
N23_2 C51_2 1_555 1_555
N24_2 C54_2 1_555 1_555
C4_2 C5_2 1_555 1_555
C7_2 C8_2 1_555 1_555
C8_2 C9_2 1_555 1_555
C13_2 C41_2 1_555 1_555
C14_2 C15_2 1_555 1_555
C15_2 C16_2 1_555 1_555
C17_2 C18_2 1_555 1_555
C19_2 C24_2 1_555 1_555
C21_2 C22_2 1_555 1_555
C26_2 C27_2 1_555 1_555
C27_2 C28_2 1_555 1_555
C30_2 C31_2 1_555 1_555
C34_2 C35_2 1_555 1_555
C35_2 C36_2 1_555 1_555
C38_2 C39_2 1_555 1_555
C38_2 C55_2 1_555 1_555
C40_2 C55_2 1_555 1_555
C42_2 C43_2 1_555 1_555
C44_2 C45_2 1_555 1_555
C47_2 C48_2 1_555 1_555
O2_2 H48_2 1_555 1_555
O2_2 H49_2 1_555 1_555
O4_2 H50_2 1_555 1_555
O4_2 H51_2 1_555 1_555
O31_2 H55_2 1_555 1_555
O31_2 H56_2 1_555 1_555
O30_2 H63_2 1_555 1_555
O30_2 H64_2 1_555 1_555
C1_3 N1_3 1_555 1_555
N1_3 H1_3 1_555 1_555
C2_3 N1_3 1_555 1_555
H2_3 C2_3 1_555 1_555
C3_3 C2_3 1_555 1_555
H3_3 C3_3 1_555 1_555
N2_3 C1_3 1_555 1_555
Cu1_3 O1_3 1_555 1_555
Cu2_3 N8_3 1_555 1_555
Cu3_3 N2_3 1_555 1_555
Cu4_3 N14_3 1_555 1_555
Cu10 O2_3 1_555 1_555
Cu6_3 O3_2 1_555 1_555
Cu11_2 O4_3 1_555 1_555
Cu8_3 O5_2 1_555 1_555
O1_3 Cu9_3 1_555 1_555
O6_3 Cu8_3 1_555 1_555
O7_3 Cu8_3 1_555 1_555
O8_3 C11_3 1_555 1_555
O9_3 C11_3 1_555 1_555
O10_3 C16_3 1_555 1_555
O11_3 Cu11_2 1_555 1_555
O12_3 Cu11_2 1_555 1_555
O13_3 Cu11_2 1_555 1_555
O14_3 Cu8_3 1_555 1_555
O15_3 C24_3 1_555 1_555
O16_3 Cu6_3 1_555 1_555
O17_3 Cu6_3 1_555 1_555
O18_3 Cu6_3 1_555 1_555
O19_3 Cu6_3 1_555 1_555
O20_3 C33_3 1_555 1_555
O21_3 C33_3 1_555 1_555
O22_3 Cu10 1_555 1_555
O23_3 Cu10 1_555 1_555
O24_3 Cu10 1_555 1_555
O25_3 Cu10 1_555 1_555
O26_3 C46_3 1_555 1_555
O27_3 C46_3 1_555 1_555
O28_3 C56_3 1_555 1_555
O29_3 C56_3 1_555 1_555
N3_3 Cu1_3 1_555 1_555
N4_3 Cu1_3 1_555 1_555
N5_3 Cu1_3 1_555 1_555
N6_3 Cu1_3 1_555 1_555
N7_3 H4_3 1_555 1_555
N8_3 C18_3 1_555 1_555
N9_3 Cu2_3 1_555 1_555
N10_3 Cu2_3 1_555 1_555
N11_3 H5_3 1_555 1_555
N12_3 Cu2_3 1_555 1_555
N13_3 Cu6_3 1_555 1_555
N14_3 C30_3 1_555 1_555
N15_3 Cu4_3 1_555 1_555
N16_3 Cu4_3 1_555 1_555
N17_3 H6_3 1_555 1_555
N18_3 Cu4_3 1_555 1_555
N25_2 C12_3 1_555 1_555
N20_3 Cu3_3 1_555 1_555
N21_3 Cu3_3 1_555 1_555
N22_3 Cu3_3 1_555 1_555
N23_3 Cu8_3 1_555 1_555
N26 C53_3 1_555 1_555
C4_3 O6_3 1_555 1_555
C5_3 O7_3 1_555 1_555
C6_3 N5_3 1_555 1_555
H7_3 C6_3 1_555 1_555
C7_3 C6_3 1_555 1_555
H8_3 C7_3 1_555 1_555
H9_3 C7_3 1_555 1_555
C8_3 N6_3 1_555 1_555
C9_3 N7_3 1_555 1_555
H10_3 C9_3 1_555 1_555
C10_3 N6_3 1_555 1_555
H11_3 C10_3 1_555 1_555
C11_3 C6_3 1_555 1_555
C12_3 N4_3 1_555 1_555
H12_3 C12_3 1_555 1_555
C13_3 N4_3 1_555 1_555
C14_3 C13_3 1_555 1_555
H13_3 C14_3 1_555 1_555
H14_3 C14_3 1_555 1_555
C15_3 N3_3 1_555 1_555
H15_3 C15_3 1_555 1_555
C16_3 O11_3 1_555 1_555
C17_3 O12_3 1_555 1_555
C18_3 O13_3 1_555 1_555
C19_3 N9_3 1_555 1_555
H16_2 C19_3 1_555 1_555
C20_2 C19_3 1_555 1_555
H17_2 C20_2 1_555 1_555
H18_2 C20_2 1_555 1_555
C21_3 N12_3 1_555 1_555
C22_3 N13_3 1_555 1_555
H19_2 C22_3 1_555 1_555
C23_3 N12_3 1_555 1_555
H20_3 C23_3 1_555 1_555
C24_3 O14_3 1_555 1_555
C25_3 N8_3 1_555 1_555
H21_3 C25_3 1_555 1_555
C26_3 C25_3 1_555 1_555
H22_3 C26_3 1_555 1_555
H23_3 C26_3 1_555 1_555
C27_3 N10_3 1_555 1_555
C28_3 N11_3 1_555 1_555
H24_3 C28_3 1_555 1_555
C29_3 N10_3 1_555 1_555
H25_3 C29_3 1_555 1_555
C30_3 O16_3 1_555 1_555
C31_3 O17_3 1_555 1_555
C32_3 N14_3 1_555 1_555
H26_3 C32_3 1_555 1_555
C33_3 C32_3 1_555 1_555
C34_3 C32_3 1_555 1_555
H27_3 C34_3 1_555 1_555
H28_3 C34_3 1_555 1_555
C35_3 N16_3 1_555 1_555
C36_3 N17_3 1_555 1_555
H29_3 C36_3 1_555 1_555
C37_3 N16_3 1_555 1_555
H30_3 C37_3 1_555 1_555
C38_3 H31_3 1_555 1_555
H32_3 C38_3 1_555 1_555
C39_3 N18_3 1_555 1_555
C40_3 O22_3 1_555 1_555
C41_3 N25_2 1_555 1_555
H33_3 C41_3 1_555 1_555
C42_3 O25_3 1_555 1_555
C43_3 O24_3 1_555 1_555
C44_3 N21_3 1_555 1_555
H34_3 C44_3 1_555 1_555
C45_3 C1_3 1_555 1_555
H35_3 C45_3 1_555 1_555
H36_3 C45_3 1_555 1_555
C46_3 C44_3 1_555 1_555
C47_3 N20_3 1_555 1_555
H37_3 C47_3 1_555 1_555
C48_3 O18_3 1_555 1_555
C49_2 C47_3 1_555 1_555
H38_2 C49_2 1_555 1_555
C50_3 N22_3 1_555 1_555
C51_3 N22_3 1_555 1_555
H39_3 C51_3 1_555 1_555
C52_2 N23_3 1_555 1_555
H40_2 C52_2 1_555 1_555
C53_3 C39_3 1_555 1_555
H41_3 C53_3 1_555 1_555
C54_3 N18_3 1_555 1_555
H42_3 C54_3 1_555 1_555
C55_3 N15_3 1_555 1_555
H43_3 C55_3 1_555 1_555
C56_3 C25_3 1_555 1_555
O30_3 Cu4_3 1_555 1_555
O31_3 Cu3_3 1_555 1_555
O32_3 Cu2_3 1_555 1_555
C3_3 N2_3 1_555 1_555
O19_3 C48_3 1_555 1_555
O23_3 C40_3 1_555 1_555
N3_3 C4_3 1_555 1_555
N5_3 C5_3 1_555 1_555
N7_3 C10_3 1_555 1_555
N9_3 C17_3 1_555 1_555
N11_3 C29_3 1_555 1_555
N13_3 C23_3 1_555 1_555
N15_3 C31_3 1_555 1_555
N17_3 C37_3 1_555 1_555
N20_3 C42_3 1_555 1_555
N21_3 C43_3 1_555 1_555
N23_3 C51_3 1_555 1_555
N26 C54_3 1_555 1_555
C4_3 C5_3 1_555 1_555
C7_3 C8_3 1_555 1_555
C8_3 C9_3 1_555 1_555
C13_3 C41_3 1_555 1_555
C14_3 C15_3 1_555 1_555
C15_3 C16_3 1_555 1_555
C17_3 C18_3 1_555 1_555
C19_3 C24_3 1_555 1_555
C20_2 C21_3 1_555 1_555
C21_3 C22_3 1_555 1_555
C26_3 C27_3 1_555 1_555
C27_3 C28_3 1_555 1_555
C30_3 C31_3 1_555 1_555
C34_3 C35_3 1_555 1_555
C35_3 C36_3 1_555 1_555
C38_3 C39_3 1_555 1_555
C38_3 C55_3 1_555 1_555
C40_3 C55_3 1_555 1_555
C42_3 C43_3 1_555 1_555
C44_3 C45_3 1_555 1_555
C47_3 C48_3 1_555 1_555
C49_2 C50_3 1_555 1_555
C50_3 C52_2 1_555 1_555
O3_2 H44_2 1_555 1_555
O3_2 H45_2 1_555 1_555
O5_2 H46_2 1_555 1_555
O5_2 H47_2 1_555 1_555
O2_3 H48_3 1_555 1_555
O2_3 H49_3 1_555 1_555
O4_3 H50_3 1_555 1_555
O4_3 H51_3 1_555 1_555
C49_2 H52_2 1_555 1_555
O31_3 H55_3 1_555 1_555
O31_3 H56_3 1_555 1_555
O30_3 H63_3 1_555 1_555
O30_3 H64_3 1_555 1_555
C1_4 N1_4 1_555 1_555
N1_4 H1_4 1_555 1_555
C2_4 N1_4 1_555 1_555
H2_4 C2_4 1_555 1_555
C3_4 C2_4 1_555 1_555
H3_4 C3_4 1_555 1_555
N2_4 C1_4 1_555 1_555
Cu1_4 O1_4 1_555 1_555
Cu9_3 N8_4 1_555 1_555
Cu3_4 N2_4 1_555 1_555
Cu6_4 O3_3 1_555 1_555
Cu7_2 O4_4 1_555 1_555
Cu8_4 O5_3 1_555 1_555
O1_4 Cu9_4 1_555 1_555
O6_4 Cu8_4 1_555 1_555
O7_4 Cu8_4 1_555 1_555
O8_4 C11_4 1_555 1_555
O9_4 C11_4 1_555 1_555
O10_4 C16_4 1_555 1_555
O11_4 Cu7_2 1_555 1_555
O12_4 Cu7_2 1_555 1_555
O13_4 Cu7_2 1_555 1_555
O14_4 Cu8_4 1_555 1_555
O15_4 C24_4 1_555 1_555
O16_4 Cu6_4 1_555 1_555
O17_4 Cu6_4 1_555 1_555
O18_4 Cu6_4 1_555 1_555
O19_4 Cu6_4 1_555 1_555
O20_4 C33_4 1_555 1_555
O28_4 C56_4 1_555 1_555
O29_4 C56_4 1_555 1_555
N3_4 Cu1_4 1_555 1_555
N4_4 Cu1_4 1_555 1_555
N5_4 Cu1_4 1_555 1_555
N6_4 Cu1_4 1_555 1_555
N7_4 H4_4 1_555 1_555
N8_4 C18_4 1_555 1_555
N9_4 Cu9_3 1_555 1_555
N10_4 Cu9_3 1_555 1_555
N11_4 H5_4 1_555 1_555
N12_4 Cu9_3 1_555 1_555
N13_4 Cu6_4 1_555 1_555
N19_2 C12_4 1_555 1_555
N20_4 Cu3_4 1_555 1_555
N21_4 Cu3_4 1_555 1_555
N22_4 Cu3_4 1_555 1_555
N23_4 Cu8_4 1_555 1_555
C4_4 O6_4 1_555 1_555
C5_4 O7_4 1_555 1_555
C6_4 N5_4 1_555 1_555
H7_4 C6_4 1_555 1_555
C7_4 C6_4 1_555 1_555
H8_4 C7_4 1_555 1_555
H9_4 C7_4 1_555 1_555
C8_4 N6_4 1_555 1_555
C9_4 N7_4 1_555 1_555
H10_4 C9_4 1_555 1_555
C10_4 N6_4 1_555 1_555
H11_4 C10_4 1_555 1_555
C11_4 C6_4 1_555 1_555
C12_4 N4_4 1_555 1_555
H12_4 C12_4 1_555 1_555
C13_4 N4_4 1_555 1_555
C14_4 C13_4 1_555 1_555
H13_4 C14_4 1_555 1_555
H14_4 C14_4 1_555 1_555
C15_4 N3_4 1_555 1_555
H15_4 C15_4 1_555 1_555
C16_4 O11_4 1_555 1_555
C17_4 O12_4 1_555 1_555
C18_4 O13_4 1_555 1_555
C19_4 N9_4 1_555 1_555
H16_3 C19_4 1_555 1_555
C20_3 C19_4 1_555 1_555
H17_3 C20_3 1_555 1_555
H18_3 C20_3 1_555 1_555
C21_4 N12_4 1_555 1_555
C22_4 N13_4 1_555 1_555
H19_3 C22_4 1_555 1_555
C23_4 N12_4 1_555 1_555
H20_4 C23_4 1_555 1_555
C24_4 O14_4 1_555 1_555
C25_4 N8_4 1_555 1_555
H21_4 C25_4 1_555 1_555
C26_4 C25_4 1_555 1_555
H22_4 C26_4 1_555 1_555
H23_4 C26_4 1_555 1_555
C27_4 N10_4 1_555 1_555
C28_4 N11_4 1_555 1_555
H24_4 C28_4 1_555 1_555
C29_4 N10_4 1_555 1_555
H25_4 C29_4 1_555 1_555
C30_4 O16_4 1_555 1_555
C41_4 N19_2 1_555 1_555
H33_4 C41_4 1_555 1_555
C44_4 N21_4 1_555 1_555
C45_4 C1_4 1_555 1_555
H35_4 C45_4 1_555 1_555
H36_4 C45_4 1_555 1_555
C47_4 N20_4 1_555 1_555
H37_4 C47_4 1_555 1_555
C48_4 O18_4 1_555 1_555
C49_3 C47_4 1_555 1_555
H38_3 C49_3 1_555 1_555
C50_4 N22_4 1_555 1_555
C51_4 N22_4 1_555 1_555
H39_4 C51_4 1_555 1_555
C52_3 N23_4 1_555 1_555
H40_3 C52_3 1_555 1_555
C56_4 C25_4 1_555 1_555
O31_4 Cu3_4 1_555 1_555
Cu10_2 N19_2 1_555 1_555
N26_2 Cu7_2 1_555 1_555
C3_4 N2_4 1_555 1_555
O19_4 C48_4 1_555 1_555
N3_4 C4_4 1_555 1_555
N5_4 C5_4 1_555 1_555
N7_4 C10_4 1_555 1_555
N9_4 C17_4 1_555 1_555
N11_4 C29_4 1_555 1_555
N13_4 C23_4 1_555 1_555
N20_4 C42_4 1_555 1_555
N23_4 C51_4 1_555 1_555
C4_4 C5_4 1_555 1_555
C7_4 C8_4 1_555 1_555
C8_4 C9_4 1_555 1_555
C13_4 C41_4 1_555 1_555
C14_4 C15_4 1_555 1_555
C15_4 C16_4 1_555 1_555
C17_4 C18_4 1_555 1_555
C19_4 C24_4 1_555 1_555
C20_3 C21_4 1_555 1_555
C21_4 C22_4 1_555 1_555
C26_4 C27_4 1_555 1_555
C27_4 C28_4 1_555 1_555
C44_4 C45_4 1_555 1_555
C47_4 C48_4 1_555 1_555
C49_3 C50_4 1_555 1_555
C50_4 C52_3 1_555 1_555
O3_3 H44_3 1_555 1_555
O3_3 H45_3 1_555 1_555
O5_3 H46_3 1_555 1_555
O5_3 H47_3 1_555 1_555
O4_4 H50_4 1_555 1_555
O4_4 H51_4 1_555 1_555
C49_3 H52_3 1_555 1_555
O31_4 H55_4 1_555 1_555
O31_4 H56_4 1_555 1_555
Cu4_4 N14_4 1_555 1_555
Cu5_3 O2_4 1_555 1_555
O22_4 Cu5_3 1_555 1_555
O23_4 Cu5_3 1_555 1_555
O24_4 Cu5_3 1_555 1_555
O25_4 Cu5_3 1_555 1_555
O26_4 C46_4 1_555 1_555
N15_4 Cu4_4 1_555 1_555
N16_4 Cu4_4 1_555 1_555
N17_4 H6_4 1_555 1_555
N18_4 Cu4_4 1_555 1_555
N24_3 C53_4 1_555 1_555
C32_4 N14_4 1_555 1_555
C34_4 C32_4 1_555 1_555
H27_4 C34_4 1_555 1_555
H28_4 C34_4 1_555 1_555
C35_4 N16_4 1_555 1_555
C36_4 N17_4 1_555 1_555
H29_4 C36_4 1_555 1_555
C37_4 N16_4 1_555 1_555
H30_4 C37_4 1_555 1_555
C38_4 H31_4 1_555 1_555
H32_4 C38_4 1_555 1_555
C39_4 N18_4 1_555 1_555
C40_4 O22_4 1_555 1_555
C43_4 O24_4 1_555 1_555
C53_4 C39_4 1_555 1_555
H41_4 C53_4 1_555 1_555
C54_4 N18_4 1_555 1_555
H42_4 C54_4 1_555 1_555
C55_4 N15_4 1_555 1_555
H43_4 C55_4 1_555 1_555
O30_4 Cu4_4 1_555 1_555
Cu11_3 N24_3 1_555 1_555
N25_3 Cu5_3 1_555 1_555
O23_4 C40_4 1_555 1_555
N15_4 C31_4 1_555 1_555
N17_4 C37_4 1_555 1_555
N24_3 C54_4 1_555 1_555
C34_4 C35_4 1_555 1_555
C35_4 C36_4 1_555 1_555
C38_4 C39_4 1_555 1_555
C38_4 C55_4 1_555 1_555
C40_4 C55_4 1_555 1_555
O2_4 H48_4 1_555 1_555
O2_4 H49_4 1_555 1_555
O30_4 H63_4 1_555 1_555
O30_4 H64_4 1_555 1_555
Cu1_5 O1_5 1_555 1_555
Cu11_3 O4_5 1_555 1_555
O1_5 Cu9_5 1_555 1_555
O10_5 C16_5 1_555 1_555
O11_5 Cu11_3 1_555 1_555
O12_5 Cu11_3 1_555 1_555
O13_5 Cu11_3 1_555 1_555
N3_5 Cu1_5 1_555 1_555
N4_5 Cu1_5 1_555 1_555
N5_5 Cu1_5 1_555 1_555
N6_5 Cu1_5 1_555 1_555
N7_5 H4_5 1_555 1_555
N25_3 C12_5 1_555 1_555
H8_5 C7_5 1_555 1_555
H9_5 C7_5 1_555 1_555
C8_5 N6_5 1_555 1_555
C9_5 N7_5 1_555 1_555
H10_5 C9_5 1_555 1_555
C10_5 N6_5 1_555 1_555
H11_5 C10_5 1_555 1_555
C12_5 N4_5 1_555 1_555
H12_5 C12_5 1_555 1_555
C13_5 N4_5 1_555 1_555
C14_5 C13_5 1_555 1_555
H13_5 C14_5 1_555 1_555
H14_5 C14_5 1_555 1_555
C15_5 N3_5 1_555 1_555
H15_5 C15_5 1_555 1_555
C16_5 O11_5 1_555 1_555
C18_5 O13_5 1_555 1_555
H21_5 C25_5 1_555 1_555
C41_5 N25_3 1_555 1_555
H33_5 C41_5 1_555 1_555
N3_5 C4_5 1_555 1_555
N7_5 C10_5 1_555 1_555
C7_5 C8_5 1_555 1_555
C8_5 C9_5 1_555 1_555
C13_5 C41_5 1_555 1_555
C14_5 C15_5 1_555 1_555
C15_5 C16_5 1_555 1_555
O4_5 H50_5 1_555 1_555
O4_5 H51_5 1_555 1_555
C1_5 N1_5 1_555 1_555
N1_5 H1_5 1_555 1_555
C2_5 N1_5 1_555 1_555
H2_5 C2_5 1_555 1_555
C3_5 C2_5 1_555 1_555
H3_5 C3_5 1_555 1_555
N2_5 C1_5 1_555 1_555
Cu9 N8_5 1_555 1_555
Cu3_5 N2_5 1_555 1_555
Cu4_5 N14_5 1_555 1_555
Cu5_4 O2_5 1_555 1_555
Cu6_5 O3_4 1_555 1_555
Cu8_5 O5_4 1_555 1_555
O6_5 Cu8_5 1_555 1_555
O7_5 Cu8_5 1_555 1_555
O9_5 C11_5 1_555 1_555
O14_5 Cu8_5 1_555 1_555
O15_5 C24_5 1_555 1_555
O16_5 Cu6_5 1_555 1_555
O17_5 Cu6_5 1_555 1_555
O18_5 Cu6_5 1_555 1_555
O19_5 Cu6_5 1_555 1_555
O20_5 C33_5 1_555 1_555
O21_5 C33_5 1_555 1_555
O22_5 Cu5_4 1_555 1_555
O23_5 Cu5_4 1_555 1_555
O24_5 Cu5_4 1_555 1_555
O25_5 Cu5_4 1_555 1_555
O26_5 C46_5 1_555 1_555
O27_5 C46_5 1_555 1_555
O28_5 C56_5 1_555 1_555
N9_5 Cu9 1_555 1_555
N10_5 Cu9 1_555 1_555
N11_5 H5_5 1_555 1_555
N12_5 Cu9 1_555 1_555
N13_5 Cu6_5 1_555 1_555
N14_5 C30_5 1_555 1_555
N15_5 Cu4_5 1_555 1_555
N16_5 Cu4_5 1_555 1_555
N17_5 H6_5 1_555 1_555
N18_5 Cu4_5 1_555 1_555
N20_5 Cu3_5 1_555 1_555
N21_5 Cu3_5 1_555 1_555
N22_5 Cu3_5 1_555 1_555
N23_5 Cu8_5 1_555 1_555
N24_4 C53_5 1_555 1_555
C5_5 O7_5 1_555 1_555
H7_5 C6_5 1_555 1_555
C11_5 C6_5 1_555 1_555
C19_5 N9_5 1_555 1_555
H16_4 C19_5 1_555 1_555
C20_4 C19_5 1_555 1_555
H17_4 C20_4 1_555 1_555
H18_4 C20_4 1_555 1_555
C21_5 N12_5 1_555 1_555
C22_5 N13_5 1_555 1_555
H19_4 C22_5 1_555 1_555
C23_5 N12_5 1_555 1_555
H20_5 C23_5 1_555 1_555
C24_5 O14_5 1_555 1_555
H22_5 C26_5 1_555 1_555
H23_5 C26_5 1_555 1_555
C27_5 N10_5 1_555 1_555
C28_5 N11_5 1_555 1_555
H24_5 C28_5 1_555 1_555
C29_5 N10_5 1_555 1_555
H25_5 C29_5 1_555 1_555
C30_5 O16_5 1_555 1_555
C31_5 O17_5 1_555 1_555
C32_5 N14_5 1_555 1_555
H26_5 C32_5 1_555 1_555
C33_5 C32_5 1_555 1_555
C34_5 C32_5 1_555 1_555
H27_5 C34_5 1_555 1_555
H28_5 C34_5 1_555 1_555
C35_5 N16_5 1_555 1_555
C36_5 N17_5 1_555 1_555
H29_5 C36_5 1_555 1_555
C37_5 N16_5 1_555 1_555
H30_5 C37_5 1_555 1_555
C38_5 H31_5 1_555 1_555
H32_5 C38_5 1_555 1_555
C39_5 N18_5 1_555 1_555
C40_5 O22_5 1_555 1_555
C42_5 O25_5 1_555 1_555
C43_5 O24_5 1_555 1_555
C44_5 N21_5 1_555 1_555
H34_5 C44_5 1_555 1_555
C45_5 C1_5 1_555 1_555
H35_5 C45_5 1_555 1_555
H36_5 C45_5 1_555 1_555
C46_5 C44_5 1_555 1_555
C47_5 N20_5 1_555 1_555
H37_5 C47_5 1_555 1_555
C48_5 O18_5 1_555 1_555
C49_4 C47_5 1_555 1_555
H38_4 C49_4 1_555 1_555
C50_5 N22_5 1_555 1_555
C51_5 N22_5 1_555 1_555
H39_5 C51_5 1_555 1_555
C52_4 N23_5 1_555 1_555
H40_4 C52_4 1_555 1_555
C53_5 C39_5 1_555 1_555
H41_5 C53_5 1_555 1_555
C54_5 N18_5 1_555 1_555
H42_5 C54_5 1_555 1_555
C55_5 N15_5 1_555 1_555
H43_5 C55_5 1_555 1_555
O30_5 Cu4_5 1_555 1_555
O31_5 Cu3_5 1_555 1_555
Cu11_4 N24_4 1_555 1_555
N25_4 Cu5_4 1_555 1_555
C3_5 N2_5 1_555 1_555
O19_5 C48_5 1_555 1_555
O23_5 C40_5 1_555 1_555
N9_5 C17_5 1_555 1_555
N11_5 C29_5 1_555 1_555
N13_5 C23_5 1_555 1_555
N15_5 C31_5 1_555 1_555
N17_5 C37_5 1_555 1_555
N20_5 C42_5 1_555 1_555
N21_5 C43_5 1_555 1_555
N23_5 C51_5 1_555 1_555
N24_4 C54_5 1_555 1_555
C19_5 C24_5 1_555 1_555
C20_4 C21_5 1_555 1_555
C21_5 C22_5 1_555 1_555
C26_5 C27_5 1_555 1_555
C27_5 C28_5 1_555 1_555
C30_5 C31_5 1_555 1_555
C34_5 C35_5 1_555 1_555
C35_5 C36_5 1_555 1_555
C38_5 C39_5 1_555 1_555
C38_5 C55_5 1_555 1_555
C40_5 C55_5 1_555 1_555
C42_5 C43_5 1_555 1_555
C44_5 C45_5 1_555 1_555
C47_5 C48_5 1_555 1_555
C49_4 C50_5 1_555 1_555
C50_5 C52_4 1_555 1_555
O3_4 H44_4 1_555 1_555
O3_4 H45_4 1_555 1_555
O5_4 H46_4 1_555 1_555
O5_4 H47_4 1_555 1_555
O2_5 H48_5 1_555 1_555
O2_5 H49_5 1_555 1_555
C49_4 H52_4 1_555 1_555
O31_5 H55_5 1_555 1_555
O31_5 H56_5 1_555 1_555
O30_5 H63_5 1_555 1_555
O30_5 H64_5 1_555 1_555
Cu4_6 N14_6 1_555 1_555
Cu10_2 O2_6 1_555 1_555
O22_6 Cu10_2 1_555 1_555
O23_6 Cu10_2 1_555 1_555
O24_6 Cu10_2 1_555 1_555
O25_6 Cu10_2 1_555 1_555
O26_6 C46_6 1_555 1_555
N15_6 Cu4_6 1_555 1_555
N16_6 Cu4_6 1_555 1_555
N17_6 H6_6 1_555 1_555
N18_6 Cu4_6 1_555 1_555
N26_2 C53_6 1_555 1_555
C32_6 N14_6 1_555 1_555
C34_6 C32_6 1_555 1_555
H27_6 C34_6 1_555 1_555
H28_6 C34_6 1_555 1_555
C35_6 N16_6 1_555 1_555
C36_6 N17_6 1_555 1_555
H29_6 C36_6 1_555 1_555
C37_6 N16_6 1_555 1_555
H30_6 C37_6 1_555 1_555
C38_6 H31_6 1_555 1_555
H32_6 C38_6 1_555 1_555
C39_6 N18_6 1_555 1_555
C40_6 O22_6 1_555 1_555
C43_6 O24_6 1_555 1_555
C53_6 C39_6 1_555 1_555
H41_6 C53_6 1_555 1_555
C54_6 N18_6 1_555 1_555
H42_6 C54_6 1_555 1_555
C55_6 N15_6 1_555 1_555
H43_6 C55_6 1_555 1_555
O30_6 Cu4_6 1_555 1_555
O23_6 C40_6 1_555 1_555
N15_6 C31_6 1_555 1_555
N17_6 C37_6 1_555 1_555
N26_2 C54_6 1_555 1_555
C34_6 C35_6 1_555 1_555
C35_6 C36_6 1_555 1_555
C38_6 C39_6 1_555 1_555
C38_6 C55_6 1_555 1_555
C40_6 C55_6 1_555 1_555
O2_6 H48_6 1_555 1_555
O2_6 H49_6 1_555 1_555
O30_6 H63_6 1_555 1_555
O30_6 H64_6 1_555 1_555
C1_6 N1_6 1_555 1_555
N1_6 H1_6 1_555 1_555
C2_6 N1_6 1_555 1_555
H2_6 C2_6 1_555 1_555
C3_6 C2_6 1_555 1_555
H3_6 C3_6 1_555 1_555
N2_6 C1_6 1_555 1_555
Cu9_2 N8_6 1_555 1_555
Cu3_6 N2_6 1_555 1_555
Cu6_6 O3_5 1_555 1_555
Cu8_6 O5_5 1_555 1_555
O6_6 Cu8_6 1_555 1_555
O7_6 Cu8_6 1_555 1_555
O9_6 C11_6 1_555 1_555
O14_6 Cu8_6 1_555 1_555
O15_6 C24_6 1_555 1_555
O16_6 Cu6_6 1_555 1_555
O17_6 Cu6_6 1_555 1_555
O18_6 Cu6_6 1_555 1_555
O19_6 Cu6_6 1_555 1_555
O20_6 C33_6 1_555 1_555
O28_6 C56_6 1_555 1_555
N9_6 Cu9_2 1_555 1_555
N10_6 Cu9_2 1_555 1_555
N11_6 H5_6 1_555 1_555
N12_6 Cu9_2 1_555 1_555
N13_6 Cu6_6 1_555 1_555
N20_6 Cu3_6 1_555 1_555
N21_6 Cu3_6 1_555 1_555
N22_6 Cu3_6 1_555 1_555
N23_6 Cu8_6 1_555 1_555
C5_6 O7_6 1_555 1_555
H7_6 C6_6 1_555 1_555
C11_6 C6_6 1_555 1_555
C19_6 N9_6 1_555 1_555
H16_5 C19_6 1_555 1_555
C20_5 C19_6 1_555 1_555
H17_5 C20_5 1_555 1_555
H18_5 C20_5 1_555 1_555
C21_6 N12_6 1_555 1_555
C22_6 N13_6 1_555 1_555
H19_5 C22_6 1_555 1_555
C23_6 N12_6 1_555 1_555
H20_6 C23_6 1_555 1_555
C24_6 O14_6 1_555 1_555
H22_6 C26_6 1_555 1_555
H23_6 C26_6 1_555 1_555
C27_6 N10_6 1_555 1_555
C28_6 N11_6 1_555 1_555
H24_6 C28_6 1_555 1_555
C29_6 N10_6 1_555 1_555
H25_6 C29_6 1_555 1_555
C30_6 O16_6 1_555 1_555
C44_6 N21_6 1_555 1_555
C45_6 C1_6 1_555 1_555
H35_6 C45_6 1_555 1_555
H36_6 C45_6 1_555 1_555
C47_6 N20_6 1_555 1_555
H37_6 C47_6 1_555 1_555
C48_6 O18_6 1_555 1_555
C49_5 C47_6 1_555 1_555
H38_5 C49_5 1_555 1_555
C50_6 N22_6 1_555 1_555
C51_6 N22_6 1_555 1_555
H39_6 C51_6 1_555 1_555
C52_5 N23_6 1_555 1_555
H40_5 C52_5 1_555 1_555
O31_6 Cu3_6 1_555 1_555
C3_6 N2_6 1_555 1_555
O19_6 C48_6 1_555 1_555
N9_6 C17_6 1_555 1_555
N11_6 C29_6 1_555 1_555
N13_6 C23_6 1_555 1_555
N20_6 C42_6 1_555 1_555
N23_6 C51_6 1_555 1_555
C19_6 C24_6 1_555 1_555
C20_5 C21_6 1_555 1_555
C21_6 C22_6 1_555 1_555
C26_6 C27_6 1_555 1_555
C27_6 C28_6 1_555 1_555
C44_6 C45_6 1_555 1_555
C47_6 C48_6 1_555 1_555
C49_5 C50_6 1_555 1_555
C50_6 C52_5 1_555 1_555
O3_5 H44_5 1_555 1_555
O3_5 H45_5 1_555 1_555
O5_5 H46_5 1_555 1_555
O5_5 H47_5 1_555 1_555
C49_5 H52_5 1_555 1_555
O31_6 H55_6 1_555 1_555
O31_6 H56_6 1_555 1_555
Cu1_6 O1_6 1_555 1_555
Cu11_4 O4_6 1_555 1_555
O1_6 Cu9_6 1_555 1_555
O10_6 C16_6 1_555 1_555
O11_6 Cu11_4 1_555 1_555
O12_6 Cu11_4 1_555 1_555
O13_6 Cu11_4 1_555 1_555
N3_6 Cu1_6 1_555 1_555
N4_6 Cu1_6 1_555 1_555
N5_6 Cu1_6 1_555 1_555
N6_6 Cu1_6 1_555 1_555
N7_6 H4_6 1_555 1_555
N25_4 C12_6 1_555 1_555
H8_6 C7_6 1_555 1_555
H9_6 C7_6 1_555 1_555
C8_6 N6_6 1_555 1_555
C9_6 N7_6 1_555 1_555
H10_6 C9_6 1_555 1_555
C10_6 N6_6 1_555 1_555
H11_6 C10_6 1_555 1_555
C12_6 N4_6 1_555 1_555
H12_6 C12_6 1_555 1_555
C13_6 N4_6 1_555 1_555
C14_6 C13_6 1_555 1_555
H13_6 C14_6 1_555 1_555
H14_6 C14_6 1_555 1_555
C15_6 N3_6 1_555 1_555
H15_6 C15_6 1_555 1_555
C16_6 O11_6 1_555 1_555
C18_6 O13_6 1_555 1_555
H21_6 C25_6 1_555 1_555
C41_6 N25_4 1_555 1_555
H33_6 C41_6 1_555 1_555
N3_6 C4_6 1_555 1_555
N7_6 C10_6 1_555 1_555
C7_6 C8_6 1_555 1_555
C8_6 C9_6 1_555 1_555
C13_6 C41_6 1_555 1_555
C14_6 C15_6 1_555 1_555
C15_6 C16_6 1_555 1_555
O4_6 H50_6 1_555 1_555
O4_6 H51_6 1_555 1_555
H13_7 C14_7 1_555 1_555
H14_7 C14_7 1_555 1_555
C1_7 N1_7 1_555 1_555
N1_7 H1_7 1_555 1_555
C2_7 N1_7 1_555 1_555
H2_7 C2_7 1_555 1_555
C3_7 C2_7 1_555 1_555
H3_7 C3_7 1_555 1_555
N2_7 C1_7 1_555 1_555
Cu3_7 N2_7 1_555 1_555
Cu5_5 O2_7 1_555 1_555
Cu8_7 O5_6 1_555 1_555
O6_7 Cu8_7 1_555 1_555
O7_7 Cu8_7 1_555 1_555
O8_7 C11_7 1_555 1_555
O9_7 C11_7 1_555 1_555
O10_7 C16_7 1_555 1_555
O11_7 Cu7_3 1_555 1_555
O12_7 Cu7_3 1_555 1_555
O14_7 Cu8_7 1_555 1_555
O15_7 C24_7 1_555 1_555
O17_7 Cu6_7 1_555 1_555
O18_7 Cu6_7 1_555 1_555
O19_7 Cu6_7 1_555 1_555
O22_7 Cu5_5 1_555 1_555
O23_7 Cu5_5 1_555 1_555
O24_7 Cu5_5 1_555 1_555
O25_7 Cu5_5 1_555 1_555
O26_7 C46_7 1_555 1_555
O27_7 C46_7 1_555 1_555
N3_7 Cu1_7 1_555 1_555
N4_7 Cu1_7 1_555 1_555
N5_7 Cu1_7 1_555 1_555
N6_7 Cu1_7 1_555 1_555
N7_7 H4_7 1_555 1_555
N19_3 C12_7 1_555 1_555
N20_7 Cu3_7 1_555 1_555
N21_7 Cu3_7 1_555 1_555
N22_7 Cu3_7 1_555 1_555
N23_7 Cu8_7 1_555 1_555
C4_7 O6_7 1_555 1_555
C5_7 O7_7 1_555 1_555
C6_7 N5_7 1_555 1_555
H7_7 C6_7 1_555 1_555
C7_7 C6_7 1_555 1_555
H8_7 C7_7 1_555 1_555
H9_7 C7_7 1_555 1_555
C8_7 N6_7 1_555 1_555
C9_7 N7_7 1_555 1_555
H10_7 C9_7 1_555 1_555
C10_7 N6_7 1_555 1_555
H11_7 C10_7 1_555 1_555
C11_7 C6_7 1_555 1_555
C12_7 N4_7 1_555 1_555
H12_7 C12_7 1_555 1_555
C13_7 N4_7 1_555 1_555
C15_7 N3_7 1_555 1_555
C16_7 O11_7 1_555 1_555
H16_6 C19_7 1_555 1_555
C20_6 C19_7 1_555 1_555
H17_6 C20_6 1_555 1_555
H19_6 C22_7 1_555 1_555
C24_7 O14_7 1_555 1_555
C38_7 H31_7 1_555 1_555
C40_7 O22_7 1_555 1_555
C41_7 N19_3 1_555 1_555
C42_7 O25_7 1_555 1_555
C43_7 O24_7 1_555 1_555
C44_7 N21_7 1_555 1_555
H34_7 C44_7 1_555 1_555
C45_7 C1_7 1_555 1_555
H35_7 C45_7 1_555 1_555
H36_7 C45_7 1_555 1_555
C46_7 C44_7 1_555 1_555
C47_7 N20_7 1_555 1_555
H37_7 C47_7 1_555 1_555
C48_7 O18_7 1_555 1_555
C49_6 C47_7 1_555 1_555
H38_6 C49_6 1_555 1_555
C50_7 N22_7 1_555 1_555
C51_7 N22_7 1_555 1_555
H39_7 C51_7 1_555 1_555
C52_6 N23_7 1_555 1_555
H40_6 C52_6 1_555 1_555
H41_7 C53_7 1_555 1_555
H43_7 C55_7 1_555 1_555
O31_7 Cu3_7 1_555 1_555
Cu10_3 N19_3 1_555 1_555
N25_5 Cu5_5 1_555 1_555
C3_7 N2_7 1_555 1_555
O19_7 C48_7 1_555 1_555
O23_7 C40_7 1_555 1_555
N3_7 C4_7 1_555 1_555
N5_7 C5_7 1_555 1_555
N7_7 C10_7 1_555 1_555
N20_7 C42_7 1_555 1_555
N21_7 C43_7 1_555 1_555
N23_7 C51_7 1_555 1_555
C4_7 C5_7 1_555 1_555
C7_7 C8_7 1_555 1_555
C8_7 C9_7 1_555 1_555
C13_7 C41_7 1_555 1_555
C15_7 C16_7 1_555 1_555
C19_7 C24_7 1_555 1_555
C38_7 C55_7 1_555 1_555
C40_7 C55_7 1_555 1_555
C42_7 C43_7 1_555 1_555
C44_7 C45_7 1_555 1_555
C47_7 C48_7 1_555 1_555
C49_6 C50_7 1_555 1_555
C50_7 C52_6 1_555 1_555
O5_6 H46_6 1_555 1_555
O5_6 H47_6 1_555 1_555
O2_7 H48_7 1_555 1_555
O2_7 H49_7 1_555 1_555
C49_6 H52_6 1_555 1_555
O31_7 H55_7 1_555 1_555
O31_7 H56_7 1_555 1_555
Cu9_6 N8_7 1_555 1_555
Cu4_7 N14_7 1_555 1_555
O20_7 C33_7 1_555 1_555
O21_7 C33_7 1_555 1_555
O28_7 C56_7 1_555 1_555
O29_7 C56_7 1_555 1_555
N8_7 C18_7 1_555 1_555
N9_7 Cu9_6 1_555 1_555
N10_7 Cu9_6 1_555 1_555
N11_7 H5_7 1_555 1_555
N12_7 Cu9_6 1_555 1_555
N14_7 C30_7 1_555 1_555
N15_7 Cu4_7 1_555 1_555
N16_7 Cu4_7 1_555 1_555
N17_7 H6_7 1_555 1_555
N18_7 Cu4_7 1_555 1_555
C18_7 O13_7 1_555 1_555
C21_7 N12_7 1_555 1_555
C23_7 N12_7 1_555 1_555
H20_7 C23_7 1_555 1_555
C25_7 N8_7 1_555 1_555
H21_7 C25_7 1_555 1_555
C26_7 C25_7 1_555 1_555
H22_7 C26_7 1_555 1_555
H23_7 C26_7 1_555 1_555
C27_7 N10_7 1_555 1_555
C28_7 N11_7 1_555 1_555
H24_7 C28_7 1_555 1_555
C29_7 N10_7 1_555 1_555
H25_7 C29_7 1_555 1_555
C30_7 O16_7 1_555 1_555
C32_7 N14_7 1_555 1_555
H26_7 C32_7 1_555 1_555
C33_7 C32_7 1_555 1_555
C34_7 C32_7 1_555 1_555
H27_7 C34_7 1_555 1_555
H28_7 C34_7 1_555 1_555
C35_7 N16_7 1_555 1_555
C36_7 N17_7 1_555 1_555
H29_7 C36_7 1_555 1_555
C37_7 N16_7 1_555 1_555
H30_7 C37_7 1_555 1_555
C39_7 N18_7 1_555 1_555
C54_7 N18_7 1_555 1_555
H42_7 C54_7 1_555 1_555
C56_7 C25_7 1_555 1_555
O30_7 Cu4_7 1_555 1_555
N9_7 C17_7 1_555 1_555
N11_7 C29_7 1_555 1_555
N13_7 C23_7 1_555 1_555
N15_7 C31_7 1_555 1_555
N17_7 C37_7 1_555 1_555
N24_5 C54_7 1_555 1_555
C17_7 C18_7 1_555 1_555
C26_7 C27_7 1_555 1_555
C27_7 C28_7 1_555 1_555
C30_7 C31_7 1_555 1_555
C34_7 C35_7 1_555 1_555
C35_7 C36_7 1_555 1_555
O3_6 H44_6 1_555 1_555
O3_6 H45_6 1_555 1_555
C1_8 N1_8 1_555 1_555
N1_8 H1_8 1_555 1_555
C2_8 N1_8 1_555 1_555
H2_8 C2_8 1_555 1_555
C3_8 C2_8 1_555 1_555
H3_8 C3_8 1_555 1_555
N2_8 C1_8 1_555 1_555
Cu1_8 O32_3 1_555 1_555
Cu3_8 N2_8 1_555 1_555
Cu8_8 O5_7 1_555 1_555
O6_8 Cu8_8 1_555 1_555
O7_8 Cu8_8 1_555 1_555
O8_8 C11_8 1_555 1_555
O9_8 C11_8 1_555 1_555
O10_8 C16_8 1_555 1_555
O11_8 Cu11_5 1_555 1_555
O12_8 Cu11_5 1_555 1_555
O14_8 Cu8_8 1_555 1_555
O15_8 C24_8 1_555 1_555
O17_8 Cu6_8 1_555 1_555
O18_8 Cu6_8 1_555 1_555
O19_8 Cu6_8 1_555 1_555
O22_8 Cu5_6 1_555 1_555
O23_8 Cu5_6 1_555 1_555
O24_8 Cu5_6 1_555 1_555
O25_8 Cu5_6 1_555 1_555
O26_8 C46_8 1_555 1_555
O27_8 C46_8 1_555 1_555
N3_8 Cu1_8 1_555 1_555
N4_8 Cu1_8 1_555 1_555
N5_8 Cu1_8 1_555 1_555
N6_8 Cu1_8 1_555 1_555
N7_8 H4_8 1_555 1_555
N25_5 C12_8 1_555 1_555
N20_8 Cu3_8 1_555 1_555
N21_8 Cu3_8 1_555 1_555
N22_8 Cu3_8 1_555 1_555
N23_8 Cu8_8 1_555 1_555
C4_8 O6_8 1_555 1_555
C5_8 O7_8 1_555 1_555
C6_8 N5_8 1_555 1_555
H7_8 C6_8 1_555 1_555
C7_8 C6_8 1_555 1_555
H8_8 C7_8 1_555 1_555
H9_8 C7_8 1_555 1_555
C8_8 N6_8 1_555 1_555
C9_8 N7_8 1_555 1_555
H10_8 C9_8 1_555 1_555
C10_8 N6_8 1_555 1_555
H11_8 C10_8 1_555 1_555
C11_8 C6_8 1_555 1_555
C12_8 N4_8 1_555 1_555
H12_8 C12_8 1_555 1_555
C13_8 N4_8 1_555 1_555
C14_8 C13_8 1_555 1_555
H13_8 C14_8 1_555 1_555
H14_8 C14_8 1_555 1_555
C15_8 N3_8 1_555 1_555
H15_8 C15_8 1_555 1_555
C16_8 O11_8 1_555 1_555
H16_7 C19_8 1_555 1_555
C20_7 C19_8 1_555 1_555
H17_7 C20_7 1_555 1_555
H19_7 C22_8 1_555 1_555
C24_8 O14_8 1_555 1_555
C40_8 O22_8 1_555 1_555
C41_8 N25_5 1_555 1_555
H33_8 C41_8 1_555 1_555
C42_8 O25_8 1_555 1_555
C43_8 O24_8 1_555 1_555
C44_8 N21_8 1_555 1_555
H34_8 C44_8 1_555 1_555
C45_8 C1_8 1_555 1_555
H35_8 C45_8 1_555 1_555
H36_8 C45_8 1_555 1_555
C46_8 C44_8 1_555 1_555
C47_8 N20_8 1_555 1_555
H37_8 C47_8 1_555 1_555
C48_8 O18_8 1_555 1_555
C49_7 C47_8 1_555 1_555
H38_7 C49_7 1_555 1_555
C50_8 N22_8 1_555 1_555
C51_8 N22_8 1_555 1_555
H39_8 C51_8 1_555 1_555
C52_7 N23_8 1_555 1_555
H40_7 C52_7 1_555 1_555
H43_8 C55_8 1_555 1_555
O31_8 Cu3_8 1_555 1_555
N25_6 Cu5_6 1_555 1_555
C3_8 N2_8 1_555 1_555
O19_8 C48_8 1_555 1_555
O23_8 C40_8 1_555 1_555
N3_8 C4_8 1_555 1_555
N5_8 C5_8 1_555 1_555
N7_8 C10_8 1_555 1_555
N20_8 C42_8 1_555 1_555
N21_8 C43_8 1_555 1_555
N23_8 C51_8 1_555 1_555
C4_8 C5_8 1_555 1_555
C7_8 C8_8 1_555 1_555
C8_8 C9_8 1_555 1_555
C13_8 C41_8 1_555 1_555
C14_8 C15_8 1_555 1_555
C15_8 C16_8 1_555 1_555
C19_8 C24_8 1_555 1_555
C40_8 C55_8 1_555 1_555
C42_8 C43_8 1_555 1_555
C44_8 C45_8 1_555 1_555
C47_8 C48_8 1_555 1_555
C49_7 C50_8 1_555 1_555
C50_8 C52_7 1_555 1_555
O5_7 H46_7 1_555 1_555
O5_7 H47_7 1_555 1_555
C49_7 H52_7 1_555 1_555
O31_8 H55_8 1_555 1_555
O31_8 H56_8 1_555 1_555
Cu9_4 N8_8 1_555 1_555
Cu4_8 N14_8 1_555 1_555
O20_8 C33_8 1_555 1_555
O21_8 C33_8 1_555 1_555
O28_8 C56_8 1_555 1_555
O29_8 C56_8 1_555 1_555
N8_8 C18_8 1_555 1_555
N9_8 Cu9_4 1_555 1_555
N10_8 Cu9_4 1_555 1_555
N11_8 H5_8 1_555 1_555
N12_8 Cu9_4 1_555 1_555
N14_8 C30_8 1_555 1_555
N15_8 Cu4_8 1_555 1_555
N16_8 Cu4_8 1_555 1_555
N17_8 H6_8 1_555 1_555
N18_8 Cu4_8 1_555 1_555
C18_8 O13_8 1_555 1_555
C21_8 N12_8 1_555 1_555
C23_8 N12_8 1_555 1_555
H20_8 C23_8 1_555 1_555
C25_8 N8_8 1_555 1_555
H21_8 C25_8 1_555 1_555
C26_8 C25_8 1_555 1_555
H22_8 C26_8 1_555 1_555
H23_8 C26_8 1_555 1_555
C27_8 N10_8 1_555 1_555
C28_8 N11_8 1_555 1_555
H24_8 C28_8 1_555 1_555
C29_8 N10_8 1_555 1_555
H25_8 C29_8 1_555 1_555
C30_8 O16_8 1_555 1_555
C32_8 N14_8 1_555 1_555
H26_8 C32_8 1_555 1_555
C33_8 C32_8 1_555 1_555
C34_8 C32_8 1_555 1_555
H27_8 C34_8 1_555 1_555
H28_8 C34_8 1_555 1_555
C35_8 N16_8 1_555 1_555
C36_8 N17_8 1_555 1_555
H29_8 C36_8 1_555 1_555
C37_8 N16_8 1_555 1_555
H30_8 C37_8 1_555 1_555
C39_8 N18_8 1_555 1_555
C54_8 N18_8 1_555 1_555
H42_8 C54_8 1_555 1_555
C56_8 C25_8 1_555 1_555
O30_8 Cu4_8 1_555 1_555
N9_8 C17_8 1_555 1_555
N11_8 C29_8 1_555 1_555
N13_8 C23_8 1_555 1_555
N15_8 C31_8 1_555 1_555
N17_8 C37_8 1_555 1_555
N24_6 C54_8 1_555 1_555
C17_8 C18_8 1_555 1_555
C26_8 C27_8 1_555 1_555
C27_8 C28_8 1_555 1_555
C30_8 C31_8 1_555 1_555
C34_8 C35_8 1_555 1_555
C35_8 C36_8 1_555 1_555
O3_7 H44_7 1_555 1_555
O3_7 H45_7 1_555 1_555
O4_7 H50_7 1_555 1_555
O4_7 H51_7 1_555 1_555
C1_9 N1_9 1_555 1_555
N1_9 H1_9 1_555 1_555
C2_9 N1_9 1_555 1_555
H2_9 C2_9 1_555 1_555
C3_9 C2_9 1_555 1_555
H3_9 C3_9 1_555 1_555
N2_9 C1_9 1_555 1_555
Cu3_9 N2_9 1_555 1_555
Cu8_9 O5_8 1_555 1_555
O6_9 Cu8_9 1_555 1_555
O7_9 Cu8_9 1_555 1_555
O8_9 C11_9 1_555 1_555
O9_9 C11_9 1_555 1_555
O10_9 C16_9 1_555 1_555
O11_9 Cu11_6 1_555 1_555
O12_9 Cu11_6 1_555 1_555
O14_9 Cu8_9 1_555 1_555
O15_9 C24_9 1_555 1_555
O17_9 Cu6_9 1_555 1_555
O18_9 Cu6_9 1_555 1_555
O19_9 Cu6_9 1_555 1_555
O22_9 Cu10_3 1_555 1_555
O23_9 Cu10_3 1_555 1_555
O24_9 Cu10_3 1_555 1_555
O25_9 Cu10_3 1_555 1_555
O26_9 C46_9 1_555 1_555
O27_9 C46_9 1_555 1_555
N3_9 Cu1_9 1_555 1_555
N4_9 Cu1_9 1_555 1_555
N5_9 Cu1_9 1_555 1_555
N6_9 Cu1_9 1_555 1_555
N7_9 H4_9 1_555 1_555
N25_6 C12_9 1_555 1_555
N20_9 Cu3_9 1_555 1_555
N21_9 Cu3_9 1_555 1_555
N22_9 Cu3_9 1_555 1_555
N23_9 Cu8_9 1_555 1_555
C4_9 O6_9 1_555 1_555
C5_9 O7_9 1_555 1_555
C6_9 N5_9 1_555 1_555
H7_9 C6_9 1_555 1_555
C7_9 C6_9 1_555 1_555
H8_9 C7_9 1_555 1_555
H9_9 C7_9 1_555 1_555
C8_9 N6_9 1_555 1_555
C9_9 N7_9 1_555 1_555
H10_9 C9_9 1_555 1_555
C10_9 N6_9 1_555 1_555
H11_9 C10_9 1_555 1_555
C11_9 C6_9 1_555 1_555
C12_9 N4_9 1_555 1_555
H12_9 C12_9 1_555 1_555
C13_9 N4_9 1_555 1_555
C15_9 N3_9 1_555 1_555
C16_9 O11_9 1_555 1_555
H16_8 C19_9 1_555 1_555
C20_8 C19_9 1_555 1_555
H17_8 C20_8 1_555 1_555
H19_8 C22_9 1_555 1_555
C24_9 O14_9 1_555 1_555
C40_9 O22_9 1_555 1_555
C41_9 N25_6 1_555 1_555
C42_9 O25_9 1_555 1_555
C43_9 O24_9 1_555 1_555
C44_9 N21_9 1_555 1_555
H34_9 C44_9 1_555 1_555
C45_9 C1_9 1_555 1_555
H35_9 C45_9 1_555 1_555
H36_9 C45_9 1_555 1_555
C46_9 C44_9 1_555 1_555
C47_9 N20_9 1_555 1_555
H37_9 C47_9 1_555 1_555
C48_9 O18_9 1_555 1_555
C49_8 C47_9 1_555 1_555
H38_8 C49_8 1_555 1_555
C50_9 N22_9 1_555 1_555
C51_9 N22_9 1_555 1_555
H39_9 C51_9 1_555 1_555
C52_8 N23_9 1_555 1_555
H40_8 C52_8 1_555 1_555
H43_9 C55_9 1_555 1_555
O31_9 Cu3_9 1_555 1_555
C3_9 N2_9 1_555 1_555
O19_9 C48_9 1_555 1_555
O23_9 C40_9 1_555 1_555
N3_9 C4_9 1_555 1_555
N5_9 C5_9 1_555 1_555
N7_9 C10_9 1_555 1_555
N20_9 C42_9 1_555 1_555
N21_9 C43_9 1_555 1_555
N23_9 C51_9 1_555 1_555
C4_9 C5_9 1_555 1_555
C7_9 C8_9 1_555 1_555
C8_9 C9_9 1_555 1_555
C13_9 C41_9 1_555 1_555
C15_9 C16_9 1_555 1_555
C19_9 C24_9 1_555 1_555
C40_9 C55_9 1_555 1_555
C42_9 C43_9 1_555 1_555
C44_9 C45_9 1_555 1_555
C47_9 C48_9 1_555 1_555
C49_8 C50_9 1_555 1_555
C50_9 C52_8 1_555 1_555
O5_8 H46_8 1_555 1_555
O5_8 H47_8 1_555 1_555
C49_8 H52_8 1_555 1_555
O31_9 H55_9 1_555 1_555
O31_9 H56_9 1_555 1_555
Cu9_5 N8_9 1_555 1_555
Cu4_9 N14_9 1_555 1_555
O20_9 C33_9 1_555 1_555
O21_9 C33_9 1_555 1_555
O28_9 C56_9 1_555 1_555
O29_9 C56_9 1_555 1_555
N8_9 C18_9 1_555 1_555
N9_9 Cu9_5 1_555 1_555
N10_9 Cu9_5 1_555 1_555
N11_9 H5_9 1_555 1_555
N12_9 Cu9_5 1_555 1_555
N14_9 C30_9 1_555 1_555
N15_9 Cu4_9 1_555 1_555
N16_9 Cu4_9 1_555 1_555
N17_9 H6_9 1_555 1_555
N18_9 Cu4_9 1_555 1_555
C18_9 O13_9 1_555 1_555
C21_9 N12_9 1_555 1_555
C23_9 N12_9 1_555 1_555
H20_9 C23_9 1_555 1_555
C25_9 N8_9 1_555 1_555
H21_9 C25_9 1_555 1_555
C26_9 C25_9 1_555 1_555
H22_9 C26_9 1_555 1_555
H23_9 C26_9 1_555 1_555
C27_9 N10_9 1_555 1_555
C28_9 N11_9 1_555 1_555
H24_9 C28_9 1_555 1_555
C29_9 N10_9 1_555 1_555
H25_9 C29_9 1_555 1_555
C30_9 O16_9 1_555 1_555
C32_9 N14_9 1_555 1_555
H26_9 C32_9 1_555 1_555
C33_9 C32_9 1_555 1_555
C34_9 C32_9 1_555 1_555
H27_9 C34_9 1_555 1_555
H28_9 C34_9 1_555 1_555
C35_9 N16_9 1_555 1_555
C36_9 N17_9 1_555 1_555
H29_9 C36_9 1_555 1_555
C37_9 N16_9 1_555 1_555
H30_9 C37_9 1_555 1_555
C39_9 N18_9 1_555 1_555
C54_9 N18_9 1_555 1_555
H42_9 C54_9 1_555 1_555
C56_9 C25_9 1_555 1_555
O30_9 Cu4_9 1_555 1_555
N9_9 C17_9 1_555 1_555
N11_9 C29_9 1_555 1_555
N13_9 C23_9 1_555 1_555
N15_9 C31_9 1_555 1_555
N17_9 C37_9 1_555 1_555
N26_3 C54_9 1_555 1_555
C17_9 C18_9 1_555 1_555
C26_9 C27_9 1_555 1_555
C27_9 C28_9 1_555 1_555
C30_9 C31_9 1_555 1_555
C34_9 C35_9 1_555 1_555
C35_9 C36_9 1_555 1_555
O3_8 H44_8 1_555 1_555
O3_8 H45_8 1_555 1_555
H13_9 C14_9 1_555 1_555
H14_9 C14_9 1_555 1_555
H17_9 C20_9 1_555 1_555
H18_9 C20_9 1_555 1_555
H38_9 C49_9 1_555 1_555
H40_9 C52_9 1_555 1_555
O3_9 H44_9 1_555 1_555
O3_9 H45_9 1_555 1_555
O5_9 H46_9 1_555 1_555
O5_9 H47_9 1_555 1_555
C49_9 H52_9 1_555 1_555
O4_8 H50_8 1_555 1_555
O4_8 H51_8 1_555 1_555
C38_8 H31_8 1_555 1_555
H41_8 C53_8 1_555 1_555
O2_8 H48_8 1_555 1_555
O2_8 H49_8 1_555 1_555
C38_9 H31_9 1_555 1_555
H41_9 C53_9 1_555 1_555
O2_9 H48_9 1_555 1_555
O2_9 H49_9 1_555 1_555
O4_9 H50_9 1_555 1_555
O4_9 H51_9 1_555 1_555
Ca1 O33 1_555 1_555
Ca2 O33 1_555 1_555
O34 Ca1 1_555 1_555
O35 Ca1 1_555 1_555
O36 Ca1 1_555 1_555
O37 Ca1 1_555 1_555
O38 Ca1 1_555 1_555
O39 Ca2 1_555 1_555
O40 Ca2 1_555 1_555
O41 Ca2 1_555 1_555
O42 Ca2 1_555 1_555
Ca2 O34 1_555 1_555
O39 H53 1_555 1_555
O39 H54 1_555 1_555
O41 H57 1_555 1_555
O41 H58 1_555 1_555
O42 H59 1_555 1_555
O42 H60 1_555 1_555
O38 H61 1_555 1_555
O38 H62 1_555 1_555
O37 H65 1_555 1_555
O37 H66 1_555 1_555
O36 H67 1_555 1_555
O36 H68 1_555 1_555
O40 H69 1_555 1_555
O40 H70 1_555 1_555
O35 H71 1_555 1_555
O35 H72 1_555 1_555
Ca1_2 O33_2 1_555 1_555
Ca2_2 O33_2 1_555 1_555
O34_2 Ca1_2 1_555 1_555
O35_2 Ca1_2 1_555 1_555
O36_2 Ca1_2 1_555 1_555
O37_2 Ca1_2 1_555 1_555
O38_2 Ca1_2 1_555 1_555
O39_2 Ca2_2 1_555 1_555
O40_2 Ca2_2 1_555 1_555
O41_2 Ca2_2 1_555 1_555
O42_2 Ca2_2 1_555 1_555
Ca2_2 O34_2 1_555 1_555
O39_2 H53_2 1_555 1_555
O39_2 H54_2 1_555 1_555
O41_2 H57_2 1_555 1_555
O41_2 H58_2 1_555 1_555
O42_2 H59_2 1_555 1_555
O42_2 H60_2 1_555 1_555
O38_2 H61_2 1_555 1_555
O38_2 H62_2 1_555 1_555
O37_2 H65_2 1_555 1_555
O37_2 H66_2 1_555 1_555
O36_2 H67_2 1_555 1_555
O36_2 H68_2 1_555 1_555
O40_2 H69_2 1_555 1_555
O40_2 H70_2 1_555 1_555
O35_2 H71_2 1_555 1_555
O35_2 H72_2 1_555 1_555
Ca1_3 O33_3 1_555 1_555
Ca2_3 O33_3 1_555 1_555
O34_3 Ca1_3 1_555 1_555
O35_3 Ca1_3 1_555 1_555
O36_3 Ca1_3 1_555 1_555
O37_3 Ca1_3 1_555 1_555
O38_3 Ca1_3 1_555 1_555
O39_3 Ca2_3 1_555 1_555
O40_3 Ca2_3 1_555 1_555
O41_3 Ca2_3 1_555 1_555
O42_3 Ca2_3 1_555 1_555
Ca2_3 O34_3 1_555 1_555
O39_3 H53_3 1_555 1_555
O39_3 H54_3 1_555 1_555
O41_3 H57_3 1_555 1_555
O41_3 H58_3 1_555 1_555
O42_3 H59_3 1_555 1_555
O42_3 H60_3 1_555 1_555
O38_3 H61_3 1_555 1_555
O38_3 H62_3 1_555 1_555
O37_3 H65_3 1_555 1_555
O37_3 H66_3 1_555 1_555
O36_3 H67_3 1_555 1_555
O36_3 H68_3 1_555 1_555
O40_3 H69_3 1_555 1_555
O40_3 H70_3 1_555 1_555
O35_3 H71_3 1_555 1_555
O35_3 H72_3 1_555 1_555
Ca1_4 O33_4 1_555 1_555
Ca2_4 O33_4 1_555 1_555
O34_4 Ca1_4 1_555 1_555
O35_4 Ca1_4 1_555 1_555
O36_4 Ca1_4 1_555 1_555
O37_4 Ca1_4 1_555 1_555
O38_4 Ca1_4 1_555 1_555
O39_4 Ca2_4 1_555 1_555
O40_4 Ca2_4 1_555 1_555
O41_4 Ca2_4 1_555 1_555
O42_4 Ca2_4 1_555 1_555
Ca2_4 O34_4 1_555 1_555
O39_4 H53_4 1_555 1_555
O39_4 H54_4 1_555 1_555
O41_4 H57_4 1_555 1_555
O41_4 H58_4 1_555 1_555
O42_4 H59_4 1_555 1_555
O42_4 H60_4 1_555 1_555
O38_4 H61_4 1_555 1_555
O38_4 H62_4 1_555 1_555
O37_4 H65_4 1_555 1_555
O37_4 H66_4 1_555 1_555
O36_4 H67_4 1_555 1_555
O36_4 H68_4 1_555 1_555
O40_4 H69_4 1_555 1_555
O40_4 H70_4 1_555 1_555
O35_4 H71_4 1_555 1_555
O35_4 H72_4 1_555 1_555
Ca1_5 O33_5 1_555 1_555
O35_5 Ca1_5 1_555 1_555
O37_5 Ca1_5 1_555 1_555
O41_5 H57_5 1_555 1_555
O41_5 H58_5 1_555 1_555
O37_5 H65_5 1_555 1_555
O37_5 H66_5 1_555 1_555
O40_5 H69_5 1_555 1_555
O35_5 H71_5 1_555 1_555
O35_5 H72_5 1_555 1_555
O39_5 Ca2_5 1_555 1_555
O42_5 Ca2_5 1_555 1_555
Ca2_5 O34_5 1_555 1_555
O39_5 H53_5 1_555 1_555
O39_5 H54_5 1_555 1_555
O42_5 H59_5 1_555 1_555
O42_5 H60_5 1_555 1_555
O38_5 H61_5 1_555 1_555
O38_5 H62_5 1_555 1_555
O36_5 H67_5 1_555 1_555
O36_5 H68_5 1_555 1_555
O39_6 Ca2_6 1_555 1_555
O42_6 Ca2_6 1_555 1_555
Ca2_6 O34_6 1_555 1_555
O39_6 H53_6 1_555 1_555
O39_6 H54_6 1_555 1_555
O42_6 H59_6 1_555 1_555
O42_6 H60_6 1_555 1_555
O38_6 H61_6 1_555 1_555
O38_6 H62_6 1_555 1_555
O36_6 H67_6 1_555 1_555
O36_6 H68_6 1_555 1_555
Ca1_6 O33_6 1_555 1_555
O35_6 Ca1_6 1_555 1_555
O37_6 Ca1_6 1_555 1_555
O41_6 H57_6 1_555 1_555
O41_6 H58_6 1_555 1_555
O37_6 H65_6 1_555 1_555
O37_6 H66_6 1_555 1_555
O40_6 H69_6 1_555 1_555
O35_6 H71_6 1_555 1_555
O35_6 H72_6 1_555 1_555
Ca1_7 O33_7 1_555 1_555
Ca2_7 O33_7 1_555 1_555
O34_7 Ca1_7 1_555 1_555
O35_7 Ca1_7 1_555 1_555
O36_7 Ca1_7 1_555 1_555
O37_7 Ca1_7 1_555 1_555
O38_7 Ca1_7 1_555 1_555
O39_7 Ca2_7 1_555 1_555
O40_7 Ca2_7 1_555 1_555
Ca2_7 O34_7 1_555 1_555
O39_7 H53_7 1_555 1_555
O39_7 H54_7 1_555 1_555
O38_7 H61_7 1_555 1_555
O38_7 H62_7 1_555 1_555
O37_7 H65_7 1_555 1_555
O37_7 H66_7 1_555 1_555
O36_7 H67_7 1_555 1_555
O36_7 H68_7 1_555 1_555
O40_7 H69_7 1_555 1_555
O40_7 H70_7 1_555 1_555
O35_7 H71_7 1_555 1_555
O35_7 H72_7 1_555 1_555
O41_7 H57_7 1_555 1_555
O41_7 H58_7 1_555 1_555
O42_7 H59_7 1_555 1_555
O42_7 H60_7 1_555 1_555
Ca1_8 O33_8 1_555 1_555
Ca2_8 O33_8 1_555 1_555
O34_8 Ca1_8 1_555 1_555
O35_8 Ca1_8 1_555 1_555
O36_8 Ca1_8 1_555 1_555
O37_8 Ca1_8 1_555 1_555
O38_8 Ca1_8 1_555 1_555
O39_8 Ca2_8 1_555 1_555
O40_8 Ca2_8 1_555 1_555
Ca2_8 O34_8 1_555 1_555
O39_8 H53_8 1_555 1_555
O39_8 H54_8 1_555 1_555
O38_8 H61_8 1_555 1_555
O38_8 H62_8 1_555 1_555
O37_8 H65_8 1_555 1_555
O37_8 H66_8 1_555 1_555
O36_8 H67_8 1_555 1_555
O36_8 H68_8 1_555 1_555
O40_8 H69_8 1_555 1_555
O40_8 H70_8 1_555 1_555
O35_8 H71_8 1_555 1_555
O35_8 H72_8 1_555 1_555
O41_8 H57_8 1_555 1_555
O41_8 H58_8 1_555 1_555
O42_8 H59_8 1_555 1_555
O42_8 H60_8 1_555 1_555
Ca1_9 O33_9 1_555 1_555
Ca2_9 O33_9 1_555 1_555
O34_9 Ca1_9 1_555 1_555
O35_9 Ca1_9 1_555 1_555
O36_9 Ca1_9 1_555 1_555
O37_9 Ca1_9 1_555 1_555
O38_9 Ca1_9 1_555 1_555
O39_9 Ca2_9 1_555 1_555
O40_9 Ca2_9 1_555 1_555
Ca2_9 O34_9 1_555 1_555
O39_9 H53_9 1_555 1_555
O39_9 H54_9 1_555 1_555
O38_9 H61_9 1_555 1_555
O38_9 H62_9 1_555 1_555
O37_9 H65_9 1_555 1_555
O37_9 H66_9 1_555 1_555
O36_9 H67_9 1_555 1_555
O36_9 H68_9 1_555 1_555
O40_9 H69_9 1_555 1_555
O40_9 H70_9 1_555 1_555
O35_9 H71_9 1_555 1_555
O35_9 H72_9 1_555 1_555
O41_9 H57_9 1_555 1_555
O41_9 H58_9 1_555 1_555
O42_9 H59_9 1_555 1_555
O42_9 H60_9 1_555 1_555

#END
