
###############################################################################
#
# This file contains modified crystal structure data generated from the
# MOF subset of the Cambridge Structural Database (CSD) v543 
# hosted by the Cambridge Crystallographic Data Centre (CCDC).
#
# This work is licensed under the Creative Commons
# Attribution-NonCommercial-ShareAlike 4.0 International License.
# To view a copy of this license, visit
# http://creativecommons.org/licenses/by-nc-sa/4.0/
# or send a letter to
# Creative Commons, PO Box 1866, Mountain View, CA 94042, USA.
#
# CIF created using the CSD Python API on 29 September 2022
# The structure has been converted into the P1 space group
# The structure has a 3D framework
# The original CSD entry SAXYOI is in the rhombohedral crystal system
# The original CSD entry SAXYOI is in a Sohncke space group
# The framework has been calculated to contain at least 10.0% void space
# The void calculation uses a probe of radius 1.32A, grid spacing 0.4
# H atom positions have been added when not included in the experimental data
#
###############################################################################

data_SAXYOI
_chemical_formula_moiety         '(C540 H684 Cu72 N252 O259)n'
_symmetry_cell_setting           triclinic
_symmetry_space_group_name_H-M   'P 1'
_symmetry_Int_Tables_number      1
_space_group_name_Hall           'P 1'
loop_
_symmetry_equiv_pos_site_id
_symmetry_equiv_pos_as_xyz
1 x,y,z
_cell_length_a                   38.2768(18)
_cell_length_b                   38.2768(18)
_cell_length_c                   34.6107(16)
_cell_angle_alpha                90
_cell_angle_beta                 90
_cell_angle_gamma                120
_cell_volume                     43914.9
loop_
_atom_site_label
_atom_site_type_symbol
_atom_site_fract_x
_atom_site_fract_y
_atom_site_fract_z
H4 H 0.4162 0.2240 0.0016
O25 O 0.6796(5) 0.1098(5) 0.0050(5)
H35 H 0.5893 0.1339 0.0076
Cu1 Cu 0.59077(5) 0.05483(5) 0.88998(5)
Cu2 Cu 0.73185(5) 0.09150(6) 0.82910(5)
Cu3 Cu 0.44203(5) 0.04381(5) 0.82690(5)
Cu4 Cu 0.40694(6) 0.15181(6) 0.88192(5)
Cu5 Cu 0.60154(5) 0.02641(7) 0.69556(5)
Cu6 Cu 0.74269(5) 0.13082(5) 0.63469(5)
Cu7 Cu 0.48507(6) 0.07361(6) 0.64276(5)
Cu8 Cu 0.37734(5) 0.10869(5) 0.69780(5)
O1 O 0.7489(3) 0.0821(3) 0.5957(3)
O2 O 0.7439(5) 0.0430(4) 0.8543(4)
O4 O 0.3216(4) 0.0593(3) 0.6649(3)
N1 N 0.6510(4) 0.0866(3) 0.9038(3)
N2 N 0.6115(4) 0.0367(3) 0.8459(3)
N3 N 0.5380(3) 0.0345(3) 0.8617(3)
N4 N 0.4861(4) 0.0327(4) 0.8361(4)
N5 N 0.3572(6) 0.2156(4) 0.8363(3)
N6 N 0.4449(4) 0.1317(4) 0.8945(3)
N7 N 0.3843(4) 0.1062(4) 0.8441(3)
N8 N 0.7224(4) 0.0920(4) 0.6782(3)
N9 N 0.6834(4) 0.1033(4) 0.6198(4)
N10 N 0.7955(3) 0.1630(4) 0.6626(3)
N11 N 0.3722(3) 0.1712(3) 0.8613(4)
N12 N 0.5498(4) 0.0244(4) 0.6882(3)
N13 N 0.5057(4) 0.0397(3) 0.6629(3)
N14 N 0.4392(4) 0.0498(4) 0.6804(4)
N15 N 0.4661(4) 0.1119(4) 0.6307(3)
N16 N 0.8479(3) 0.2136(5) 0.6887(3)
N17 N 0.5769(4) 0.0781(4) 0.9340(3)
N18 N 0.5399(5) 0.0818(4) 0.9838(4)
H1 H 0.5190 0.0769 0.9982
N19 N 0.5204(4) 0.0908(5) 0.5976(4)
N20 N 0.5520(10) 0.0925(11) 0.5441(6)
H2 H 0.5623 0.0846 0.5257
N21 N 0.4261(5) 0.1882(4) 0.9263(4)
N22 N 0.7574(4) 0.1683(4) 0.5894(4)
N23 N 0.7919(5) 0.2084(4) 0.5403(4)
H3 H 0.8120 0.2239 0.5248
N24 N 0.4247(9) 0.2149(7) 0.9825(6)
O6 O 0.7106(3) 0.1010(3) 0.8785(3)
O7 O 0.6738(3) 0.0516(4) 0.8200(4)
O8 O 0.7445(2) 0.0787(3) 0.7770(3)
O9 O 0.7305(3) 0.1254(4) 0.7532(2)
O10 O 0.6036(3) 0.0619(4) 0.7712(2)
O11 O 0.5895(3) 0.0019(3) 0.7474(3)
O12 O 0.4222(3) 0.0119(3) 0.7780(3)
O13 O 0.4731(3) 0.0716(3) 0.7545(2)
O14 O 0.4611(3) 0.0843(4) 0.8701(3)
O15 O 0.4026(3) 0.0623(3) 0.8173(3)
O16 O 0.4050(3) 0.1401(3) 0.7704(2)
O17 O 0.3450(3) 0.0889(3) 0.7464(3)
O18 O 0.6597(3) 0.0447(4) 0.7052(3)
O19 O 0.6230(3) 0.0568(4) 0.6460(3)
O20 O 0.3956(3) 0.0697(3) 0.7074(3)
O21 O 0.4171(4) 0.1272(3) 0.6540(3)
O22 O 0.4317(5) 0.0944(5) 0.5586(3)
O23 O 0.4720(5) 0.1557(5) 0.5357(4)
O24 O 0.6521(3) 0.0503(4) 0.9722(3)
O26 O 0.6812(3) 0.0660(4) 0.5524(3)
O27 O 0.6546(5) 0.0986(5) 0.5188(4)
O28 O 0.4903(5) 0.1391(5) 0.9887(3)
O29 O 0.4263(4) 0.0991(5) 0.9660(3)
C1 C 0.6728(4) 0.0844(5) 0.8787(5)
C2 C 0.6492(5) 0.0548(5) 0.8462(4)
C3 C 0.6678(6) 0.1132(5) 0.9376(5)
H5 H 0.6969 0.1331 0.9328
C4 C 0.6642(5) 0.0874(7) 0.9744(5)
C5 C 0.6442(5) 0.1360(5) 0.9433(6)
H6 H 0.6584 0.1575 0.9628
H7 H 0.6445 0.1493 0.9186
C6 C 0.5900(4) 0.0078(5) 0.8160(4)
C7 C 0.5944(4) 0.0240(5) 0.7753(5)
C9 C 0.5249(4) 0.0049(4) 0.8336(4)
C10 C 0.4927(5) 0.0042(5) 0.8163(4)
C11 C 0.5132(5) 0.0484(5) 0.8620(4)
H12 H 0.5152 0.0682 0.8797
C12 C 0.3328(6) 0.1795(4) 0.8198(4)
H13 H 0.3129 0.1741 0.8008
C13 C 0.7378(4) 0.0981(5) 0.7486(4)
C14 C 0.7427(4) 0.0840(6) 0.7067(4)
H14 H 0.7313 0.0541 0.7076
C15 C 0.7883(5) 0.1034(5) 0.6991(5)
H15 H 0.8014 0.0996 0.7221
H16 H 0.7927 0.0897 0.6770
C16 C 0.8074(4) 0.1473(4) 0.6906(4)
C17 C 0.6812(5) 0.0699(6) 0.6795(4)
C18 C 0.6605(5) 0.0781(6) 0.6454(5)
C19 C 0.6895(5) 0.1591(5) 0.5805(4)
H17 H 0.6750 0.1666 0.5615
H18 H 0.6899 0.1720 0.6054
C20 C 0.5548(8) 0.1261(10) 0.5477(7)
H19 H 0.5705 0.1486 0.5314
C21 C 0.4400(5) 0.1018(5) 0.8708(4)
C22 C 0.4074(4) 0.0888(5) 0.8418(4)
C23 C 0.4961(6) 0.1935(6) 0.9293(5)
H20 H 0.5064 0.2075 0.9043
H21 H 0.5188 0.2036 0.9479
C24 C 0.3524(4) 0.0949(4) 0.8148(4)
H22 H 0.3374 0.0648 0.8134
C25 C 0.3238(4) 0.1068(4) 0.8291(4)
H23 H 0.3126 0.0930 0.8540
H24 H 0.3011 0.0973 0.8106
C26 C 0.3417(4) 0.1524(4) 0.8351(4)
C27 C 0.3780(6) 0.2087(6) 0.8591(5)
H25 H 0.3978 0.2296 0.8748
C28 C 0.8200(5) 0.2021(6) 0.6614(4)
H26 H 0.8181 0.2199 0.6434
C30 C 0.5426(5) 0.0452(6) 0.6658(5)
H28 H 0.5638 0.0652 0.6506
C31 C 0.4850(4) 0.0081(4) 0.6895(4)
C33 C 0.4280(4) 0.0196(4) 0.7095(4)
H31 H 0.3978 0.0047 0.7105
C34 C 0.4421(5) 0.0366(5) 0.7489(4)
C35 C 0.4219(5) 0.0753(4) 0.6837(4)
C36 C 0.4360(5) 0.1077(5) 0.6525(5)
C37 C 0.5279(6) 0.1617(5) 0.5941(6)
H32 H 0.5391 0.1846 0.5757
H33 H 0.5425 0.1711 0.6189
C38 C 0.6008(5) 0.1098(5) 0.9559(6)
C39 C 0.5400(5) 0.0609(5) 0.9548(5)
H34 H 0.5172 0.0358 0.9478
C40 C 0.5792(7) 0.1139(7) 0.9880(6)
C41 C 0.7326(5) 0.1756(4) 0.5668(6)
C42 C 0.7943(5) 0.1891(5) 0.5707(5)
H36 H 0.8182 0.1892 0.5786
C43 C 0.7528(6) 0.2007(5) 0.5367(6)
H37 H 0.7423 0.2106 0.5175
C44 C 0.6662(6) 0.1131(5) 0.5857(5)
H38 H 0.6372 0.1042 0.5911
C45 C 0.6685(4) 0.0919(5) 0.5500(5)
C46 C 0.4794(5) 0.1446(4) 0.6007(5)
H39 H 0.4758 0.1669 0.6114
C47 C 0.4578(9) 0.1312(6) 0.5637(6)
C48 C 0.5327(7) 0.1265(6) 0.5775(6)
C49 C 0.5291(6) 0.0701(8) 0.5753(7)
H40 H 0.5210 0.0425 0.5795
C50 C 0.4771(4) 0.1486(5) 0.9242(5)
H41 H 0.4990 0.1439 0.9145
C51 C 0.4630(8) 0.1261(10) 0.9608(7)
C52 C 0.8405(5) 0.1785(6) 0.7080(4)
H42 H 0.8554 0.1766 0.7291
C53 C 0.3682(5) 0.1099(5) 0.7747(5)
C54 C 0.4579(8) 0.2184(8) 0.9798(7)
H43 H 0.4788 0.2311 0.9985
C55 C 0.4612(7) 0.2012(7) 0.9455(6)
C56 C 0.4024(8) 0.1942(7) 0.9503(8)
H44 H 0.3748 0.1857 0.9460
Cu9 Cu 0.79739(7) 0.07590(5) 0.55665(5)
Cu10 Cu 0.35965(8) 0.26815(5) 0.82910(5)
Cu11 Cu 0.89131(5) 0.26865(7) 0.69780(5)
O30 O 0.5846(3) 0.0001(4) 0.9290(3)
N25 N 0.7844(4) 0.1416(7) 0.8363(3)
N26 N 0.3657(6) 0.1521(3) 0.6887(3)
H73 H 0.718241 0.0200747 0.864024
H74 H 0.755179 0.03327 0.833866
H75 H 0.298295 0.0635398 0.668907
H76 H 0.327841 0.0609425 0.636887
Cu1_2 Cu 0.94517(5) 0.53594(7) 0.88998(5)
Cu2_2 Cu 0.90850(6) 0.64035(8) 0.82910(5)
Cu3_2 Cu 0.95619(5) 0.39822(7) 0.82690(5)
Cu4_2 Cu 0.84819(6) 0.25513(8) 0.88192(5)
Cu5_2 Cu 0.97359(7) 0.57513(9) 0.69556(5)
Cu6_2 Cu 0.86918(5) 0.61187(7) 0.63469(5)
Cu7_2 Cu 0.92639(6) 0.41146(8) 0.64276(5)
O1_2 O 0.9179(3) 0.6668(4) 0.5957(3)
O2_2 O 0.9570(4) 0.7009(6) 0.8543(4)
O4_2 O 0.9407(3) 0.2623(5) 0.6649(3)
N1_2 N 0.9134(3) 0.5644(5) 0.9038(3)
N2_2 N 0.9633(3) 0.5748(5) 0.8459(3)
N3_2 N 0.9655(3) 0.5035(4) 0.8617(3)
N4_2 N 0.9673(4) 0.4534(6) 0.8361(4)
N6_2 N 0.8683(4) 0.3132(6) 0.8945(3)
N7_2 N 0.8938(4) 0.2781(6) 0.8441(3)
N8_2 N 0.9080(4) 0.6304(6) 0.6782(3)
N9_2 N 0.8967(4) 0.5801(6) 0.6198(4)
N10_2 N 0.8370(4) 0.6325(5) 0.6626(3)
N11_2 N 0.8288(3) 0.2010(4) 0.8613(4)
N12_2 N 0.9756(4) 0.5254(6) 0.6882(3)
N13_2 N 0.9603(3) 0.4660(5) 0.6629(3)
N14_2 N 0.9502(4) 0.3894(6) 0.6804(4)
N15_2 N 0.8881(4) 0.3542(6) 0.6307(3)
N16_2 N 0.7864(5) 0.6343(6) 0.6887(3)
N17_2 N 0.9219(4) 0.4988(6) 0.9340(3)
N18_2 N 0.9182(4) 0.4581(6) 0.9838(4)
H1_2 H 0.9231 0.4421 0.9982
N19_2 N 0.9092(5) 0.4296(6) 0.5976(4)
N20_2 N 0.9075(11) 0.4595(15) 0.5441(6)
H2_2 H 0.9154 0.4777 0.5257
N21_2 N 0.8118(4) 0.2379(6) 0.9263(4)
N22_2 N 0.8317(4) 0.5891(6) 0.5894(4)
N23_2 N 0.7916(4) 0.5835(6) 0.5403(4)
H3_2 H 0.7761 0.5881 0.5248
N24_2 N 0.7851(7) 0.2098(11) 0.9825(6)
O6_2 O 0.8990(3) 0.6096(4) 0.8785(3)
O7_2 O 0.9484(4) 0.6222(5) 0.8200(4)
O8_2 O 0.9213(3) 0.6658(4) 0.7770(3)
O9_2 O 0.8746(4) 0.6051(5) 0.7532(2)
O10_2 O 0.9381(4) 0.5417(5) 0.7712(2)
O11_2 O 0.9981(3) 0.5876(4) 0.7474(3)
O12_2 O 0.9881(3) 0.4103(4) 0.7780(3)
O13_2 O 0.9284(3) 0.4015(4) 0.7545(2)
O14_2 O 0.9157(4) 0.3768(5) 0.8701(3)
O15_2 O 0.9377(3) 0.3403(4) 0.8173(3)
O16_2 O 0.8599(3) 0.2649(4) 0.7704(2)
O17_2 O 0.9111(3) 0.2561(4) 0.7464(3)
O18_2 O 0.9553(4) 0.6150(5) 0.7052(3)
O19_2 O 0.9432(4) 0.5662(5) 0.6460(3)
O20_2 O 0.9303(3) 0.3259(4) 0.7074(3)
O21_2 O 0.8728(3) 0.2899(5) 0.6540(3)
O22_2 O 0.9056(5) 0.3373(7) 0.5586(3)
O23_2 O 0.8443(5) 0.3163(7) 0.5357(4)
O24_2 O 0.9497(4) 0.6018(5) 0.9722(3)
O26_2 O 0.9340(4) 0.6152(5) 0.5524(3)
O27_2 O 0.9014(5) 0.5560(7) 0.5188(4)
O28_2 O 0.8609(5) 0.3512(7) 0.9887(3)
O29_2 O 0.9009(5) 0.3272(6) 0.9660(3)
C1_2 C 0.9156(5) 0.5884(6) 0.8787(5)
C2_2 C 0.9452(5) 0.5944(7) 0.8462(4)
C3_2 C 0.8868(5) 0.5546(8) 0.9376(5)
H5_2 H 0.8669 0.5638 0.9328
C4_2 C 0.9126(7) 0.5768(9) 0.9744(5)
C5_2 C 0.8640(5) 0.5082(7) 0.9433(6)
H6_2 H 0.8425 0.5009 0.9628
H7_2 H 0.8507 0.4952 0.9186
C6_2 C 0.9922(5) 0.5822(6) 0.8160(4)
C7_2 C 0.9760(5) 0.5704(6) 0.7753(5)
C9_2 C 0.9951(4) 0.5200(6) 0.8336(4)
C10_2 C 0.9958(5) 0.4885(7) 0.8163(4)
C11_2 C 0.9516(5) 0.4648(7) 0.8620(4)
H12_2 H 0.9318 0.4470 0.8797
C12_2 C 0.8205(4) 0.1533(7) 0.8198(4)
H13_2 H 0.8259 0.1388 0.8008
C13_2 C 0.9019(5) 0.6397(6) 0.7486(4)
C14_2 C 0.9160(6) 0.6587(7) 0.7067(4)
H14_2 H 0.9459 0.6772 0.7076
C15_2 C 0.8966(5) 0.6849(7) 0.6991(5)
H15_2 H 0.9004 0.7018 0.7221
H16_2 H 0.9103 0.7030 0.6770
C16_2 C 0.8527(4) 0.6601(6) 0.6906(4)
C17_2 C 0.9301(6) 0.6113(8) 0.6795(4)
C18_2 C 0.9219(6) 0.5824(8) 0.6454(5)
C19_2 C 0.8409(5) 0.5304(7) 0.5805(4)
H17_2 H 0.8334 0.5084 0.5615
H18_2 H 0.8280 0.5179 0.6054
C20_2 C 0.8739(10) 0.4287(13) 0.5477(7)
H19_2 H 0.8514 0.4219 0.5314
C21_2 C 0.8982(5) 0.3382(7) 0.8708(4)
C22_2 C 0.9112(5) 0.3186(6) 0.8418(4)
C23_2 C 0.8065(6) 0.3026(8) 0.9293(5)
H20_2 H 0.7925 0.2989 0.9043
H21_2 H 0.7964 0.3152 0.9479
C24_2 C 0.9051(4) 0.2575(6) 0.8148(4)
H22_2 H 0.9352 0.2726 0.8134
C25_2 C 0.8932(4) 0.2170(6) 0.8291(4)
H23_2 H 0.9070 0.2196 0.8540
H24_2 H 0.9027 0.2038 0.8106
C26_2 C 0.8476(4) 0.1893(6) 0.8351(4)
C27_2 C 0.7913(6) 0.1693(8) 0.8591(5)
H25_2 H 0.7704 0.1682 0.8748
C28_2 C 0.7979(6) 0.6179(8) 0.6614(4)
H26_2 H 0.7801 0.5982 0.6434
C30_2 C 0.9548(6) 0.4974(8) 0.6658(5)
H28_2 H 0.9348 0.4986 0.6506
C31_2 C 0.9919(4) 0.4769(6) 0.6895(4)
C33_2 C 0.9804(4) 0.4084(6) 0.7095(4)
H31_2 H 0.9953 0.3931 0.7105
C34_2 C 0.9634(5) 0.4055(7) 0.7489(4)
C35_2 C 0.9247(4) 0.3466(6) 0.6837(4)
C36_2 C 0.8923(5) 0.3283(7) 0.6525(5)
C37_2 C 0.8383(5) 0.3662(8) 0.5941(6)
H32_2 H 0.8154 0.3545 0.5757
H33_2 H 0.8289 0.3714 0.6189
C38_2 C 0.8902(5) 0.4910(7) 0.9559(6)
C39_2 C 0.9391(5) 0.4791(7) 0.9548(5)
H34_2 H 0.9642 0.4814 0.9478
C40_2 C 0.8861(7) 0.4653(10) 0.9880(6)
C41_2 C 0.8244(4) 0.5570(6) 0.5668(6)
C42_2 C 0.8109(5) 0.6052(7) 0.5707(5)
H36_2 H 0.8108 0.6290 0.5786
C43_2 C 0.7993(5) 0.5521(8) 0.5367(6)
H37_2 H 0.7894 0.5317 0.5175
C44_2 C 0.8869(5) 0.5531(8) 0.5857(5)
H38_2 H 0.8958 0.5330 0.5911
C45_2 C 0.9081(5) 0.5766(6) 0.5500(5)
C46_2 C 0.8554(4) 0.3348(6) 0.6007(5)
H39_2 H 0.8331 0.3089 0.6114
C47_2 C 0.8688(6) 0.3266(11) 0.5637(6)
C48_2 C 0.8735(6) 0.4062(9) 0.5775(6)
C49_2 C 0.9299(8) 0.4590(10) 0.5753(7)
H40_2 H 0.9575 0.4785 0.5795
C50_2 C 0.8514(5) 0.3285(6) 0.9242(5)
H41_2 H 0.8561 0.3551 0.9145
C51_2 C 0.8739(10) 0.3369(13) 0.9608(7)
C52_2 C 0.8215(6) 0.6620(8) 0.7080(4)
H42_2 H 0.8234 0.6788 0.7291
C53_2 C 0.8901(5) 0.2583(7) 0.7747(5)
C54_2 C 0.7816(8) 0.2395(11) 0.9798(7)
H43_2 H 0.7689 0.2477 0.9985
C55_2 C 0.7988(7) 0.2600(10) 0.9455(6)
C56_2 C 0.8058(7) 0.2082(11) 0.9503(8)
H44_2 H 0.8143 0.1891 0.9460
Cu9_2 Cu 0.92410(5) 0.72150(9) 0.55665(5)
Cu11_2 Cu 0.73135(7) 0.62266(9) 0.69780(5)
O30_2 O 0.9999(4) 0.5844(5) 0.9290(3)
N25_2 N 0.8584(7) 0.6428(8) 0.8363(3)
H73_2 H 0.979925 0.698166 0.864024
H74_2 H 0.96673 0.721909 0.833866
H75_2 H 0.93646 0.234756 0.668907
H76_2 H 0.939057 0.266898 0.636887
Cu1_3 Cu 0.46406(7) 0.40923(5) 0.88998(5)
Cu3_3 Cu 0.60178(7) 0.55797(5) 0.82690(5)
Cu4_3 Cu 0.74487(8) 0.59306(6) 0.88192(5)
Cu5_3 Cu 0.42487(9) 0.39846(5) 0.69556(5)
Cu6_3 Cu 0.38813(7) 0.25731(5) 0.63469(5)
Cu7_3 Cu 0.58854(8) 0.51493(6) 0.64276(5)
O1_3 O 0.3332(4) 0.2511(3) 0.5957(3)
O2_3 O 0.2991(6) 0.2561(5) 0.8543(4)
O3 O 0.3746(7) 0.4112(5) 0.6711(4)
O4_3 O 0.7377(5) 0.6784(4) 0.6649(3)
O5 O 0.5951(5) 0.6067(3) 0.8598(3)
N1_3 N 0.4356(5) 0.3490(4) 0.9038(3)
N2_3 N 0.4252(5) 0.3885(4) 0.8459(3)
N3_3 N 0.4965(4) 0.4620(3) 0.8617(3)
N4_3 N 0.5466(6) 0.5139(4) 0.8361(4)
N6_3 N 0.6868(6) 0.5551(4) 0.8945(3)
N7_3 N 0.7219(6) 0.6157(4) 0.8441(3)
N8_3 N 0.3696(6) 0.2776(4) 0.6782(3)
N9_3 N 0.4199(6) 0.3166(4) 0.6198(4)
N10_3 N 0.3675(5) 0.2045(3) 0.6626(3)
N11_3 N 0.7990(4) 0.6278(3) 0.8613(4)
N12_3 N 0.4746(6) 0.4502(4) 0.6882(3)
N13_3 N 0.5340(5) 0.4943(4) 0.6629(3)
N14_3 N 0.6106(6) 0.5608(4) 0.6804(4)
N15_3 N 0.6458(6) 0.5339(4) 0.6307(3)
N17_3 N 0.5012(6) 0.4231(4) 0.9340(3)
N18_3 N 0.5419(6) 0.4601(5) 0.9838(4)
H1_3 H 0.5579 0.4810 0.9982
N19_3 N 0.5704(6) 0.4796(4) 0.5976(4)
N20_3 N 0.5405(15) 0.4480(10) 0.5441(6)
H2_3 H 0.5223 0.4377 0.5257
N21_3 N 0.7621(6) 0.5739(5) 0.9263(4)
N22_3 N 0.4109(6) 0.2426(4) 0.5894(4)
N23_3 N 0.4165(6) 0.2081(5) 0.5403(4)
H3_3 H 0.4119 0.1880 0.5248
N24_3 N 0.7902(11) 0.5753(9) 0.9825(6)
O6_3 O 0.3904(4) 0.2894(3) 0.8785(3)
O7_3 O 0.3778(5) 0.3262(3) 0.8200(4)
O8_3 O 0.3342(4) 0.2555(2) 0.7770(3)
O9_3 O 0.3949(5) 0.2695(3) 0.7532(2)
O10_3 O 0.4583(5) 0.3964(3) 0.7712(2)
O11_3 O 0.4124(4) 0.4105(3) 0.7474(3)
O12_3 O 0.5897(4) 0.5778(3) 0.7780(3)
O13_3 O 0.5985(4) 0.5269(3) 0.7545(2)
O14_3 O 0.6232(5) 0.5389(3) 0.8701(3)
O15_3 O 0.6597(4) 0.5974(3) 0.8173(3)
O16_3 O 0.7351(4) 0.5950(3) 0.7704(2)
O17_3 O 0.7439(4) 0.6550(3) 0.7464(3)
O18_3 O 0.3850(5) 0.3403(3) 0.7052(3)
O19_3 O 0.4338(5) 0.3770(3) 0.6460(3)
O20_3 O 0.6741(4) 0.6044(3) 0.7074(3)
O21_3 O 0.7101(5) 0.5829(4) 0.6540(3)
O22_3 O 0.6627(7) 0.5683(5) 0.5586(3)
O23_3 O 0.6837(7) 0.5280(5) 0.5357(4)
O24_3 O 0.3982(5) 0.3479(3) 0.9722(3)
O26_3 O 0.3848(5) 0.3188(3) 0.5524(3)
O27_3 O 0.4440(7) 0.3454(5) 0.5188(4)
O28_3 O 0.6488(7) 0.5097(5) 0.9887(3)
O29_3 O 0.6728(6) 0.5737(4) 0.9660(3)
C1_3 C 0.4116(6) 0.3272(4) 0.8787(5)
C2_3 C 0.4056(7) 0.3508(5) 0.8462(4)
C3_3 C 0.4454(8) 0.3322(6) 0.9376(5)
H5_3 H 0.4362 0.3031 0.9328
C4_3 C 0.4232(9) 0.3358(5) 0.9744(5)
C5_3 C 0.4918(7) 0.3558(5) 0.9433(6)
H6_3 H 0.4991 0.3416 0.9628
H7_3 H 0.5048 0.3555 0.9186
C6_3 C 0.4178(6) 0.4100(4) 0.8160(4)
H8 H 0.3880 0.3986 0.8155
C7_3 C 0.4296(6) 0.4056(4) 0.7753(5)
C8 C 0.4365(7) 0.4562(5) 0.8257(5)
H9 H 0.4321 0.4700 0.8036
H10 H 0.4226 0.4592 0.8485
C9_3 C 0.4800(6) 0.4751(4) 0.8336(4)
C10_3 C 0.5115(7) 0.5073(5) 0.8163(4)
H11 H 0.5102 0.5224 0.7951
C11_3 C 0.5352(7) 0.4868(5) 0.8620(4)
H12_3 H 0.5530 0.4848 0.8797
C12_3 C 0.8467(7) 0.6672(6) 0.8198(4)
H13_3 H 0.8612 0.6871 0.8008
C13_3 C 0.3603(6) 0.2622(4) 0.7486(4)
C14_3 C 0.3413(7) 0.2573(4) 0.7067(4)
H14_3 H 0.3228 0.2687 0.7076
C15_3 C 0.3151(7) 0.2117(5) 0.6991(5)
H15_3 H 0.2982 0.1986 0.7221
H16_3 H 0.2970 0.2073 0.6770
C16_3 C 0.3399(6) 0.1926(4) 0.6906(4)
C17_3 C 0.3887(8) 0.3188(5) 0.6795(4)
C18_3 C 0.4176(8) 0.3395(5) 0.6454(5)
C19_3 C 0.4696(7) 0.3105(5) 0.5805(4)
H17_3 H 0.4916 0.3250 0.5615
H18_3 H 0.4821 0.3101 0.6054
C20_3 C 0.5713(13) 0.4452(8) 0.5477(7)
H19_3 H 0.5781 0.4295 0.5314
C21_3 C 0.6618(7) 0.5600(5) 0.8708(4)
C22_3 C 0.6814(6) 0.5926(4) 0.8418(4)
C23_3 C 0.6974(8) 0.5039(6) 0.9293(5)
H20_3 H 0.7011 0.4936 0.9043
H21_3 H 0.6848 0.4812 0.9479
C24_3 C 0.7425(6) 0.6476(4) 0.8148(4)
H22_3 H 0.7274 0.6626 0.8134
C25_3 C 0.7830(6) 0.6762(4) 0.8291(4)
H23_3 H 0.7804 0.6874 0.8540
H24_3 H 0.7962 0.6989 0.8106
C26_3 C 0.8107(6) 0.6583(4) 0.8351(4)
C27_3 C 0.8307(8) 0.6220(6) 0.8591(5)
H25_3 H 0.8318 0.6022 0.8748
C28_3 C 0.3821(8) 0.1800(5) 0.6614(4)
H26_3 H 0.4018 0.1819 0.6434
C29 C 0.4867(6) 0.4871(4) 0.7047(4)
H27 H 0.4721 0.4924 0.7238
C30_3 C 0.5026(8) 0.4574(5) 0.6658(5)
H28_3 H 0.5014 0.4362 0.6506
C31_3 C 0.5231(6) 0.5150(4) 0.6895(4)
C32 C 0.5491(6) 0.5598(4) 0.6962(4)
H29 H 0.5362 0.5684 0.7159
H30 H 0.5508 0.5742 0.6718
C33_3 C 0.5916(6) 0.5720(4) 0.7095(4)
H31_3 H 0.6069 0.6022 0.7105
C34_3 C 0.5945(7) 0.5579(5) 0.7489(4)
C35_3 C 0.6534(6) 0.5781(5) 0.6837(4)
C36_3 C 0.6717(7) 0.5640(5) 0.6525(5)
C37_3 C 0.6338(8) 0.4721(6) 0.5941(6)
H32_3 H 0.6455 0.4609 0.5757
H33_3 H 0.6286 0.4575 0.6189
C38_3 C 0.5090(7) 0.3992(5) 0.9559(6)
C39_3 C 0.5209(7) 0.4600(5) 0.9548(5)
H34_3 H 0.5186 0.4828 0.9478
C40_3 C 0.5347(10) 0.4208(7) 0.9880(6)
C41_3 C 0.4430(6) 0.2674(5) 0.5668(6)
C42_3 C 0.3948(7) 0.2057(5) 0.5707(5)
H36_3 H 0.3710 0.1818 0.5786
C43_3 C 0.4479(8) 0.2472(6) 0.5367(6)
H37_3 H 0.4683 0.2577 0.5175
C44_3 C 0.4469(8) 0.3338(6) 0.5857(5)
H38_3 H 0.4670 0.3628 0.5911
C45_3 C 0.4234(6) 0.3315(4) 0.5500(5)
C46_3 C 0.6652(6) 0.5206(5) 0.6007(5)
H39_3 H 0.6911 0.5242 0.6114
C47_3 C 0.6734(11) 0.5422(9) 0.5637(6)
C48_3 C 0.5938(9) 0.4673(7) 0.5775(6)
C49_3 C 0.5410(10) 0.4709(6) 0.5753(7)
H40_3 H 0.5215 0.4790 0.5795
C50_3 C 0.6715(6) 0.5229(4) 0.9242(5)
H41_3 H 0.6449 0.5010 0.9145
C51_3 C 0.6631(13) 0.5370(8) 0.9608(7)
C52_3 C 0.3380(8) 0.1595(5) 0.7080(4)
H42_3 H 0.3212 0.1446 0.7291
C53_3 C 0.7417(7) 0.6318(5) 0.7747(5)
C54_3 C 0.7605(11) 0.5421(8) 0.9798(7)
H43_3 H 0.7523 0.5212 0.9985
C55_3 C 0.7400(10) 0.5388(7) 0.9455(6)
C56_3 C 0.7918(11) 0.5976(8) 0.9503(8)
H44_3 H 0.8109 0.6252 0.9460
Cu9_3 Cu 0.27850(9) 0.20261(7) 0.55665(5)
O30_3 O 0.4156(5) 0.4154(3) 0.9290(3)
H69 H 0.38018 0.419069 0.643477
H70 H 0.347768 0.386458 0.673514
H71 H 0.588104 0.598388 0.887184
H72 H 0.620938 0.632705 0.858649
H73_3 H 0.301834 0.281759 0.864024
H74_3 H 0.278091 0.244821 0.833866
H75_3 H 0.765244 0.701705 0.668907
H76_3 H 0.733102 0.672159 0.636887
Cu1_4 Cu 0.25744(5) 0.38816(5) 0.22331(5)
Cu2_3 Cu 0.39852(5) 0.42483(6) 0.16243(5)
Cu3_4 Cu 0.10870(5) 0.37714(5) 0.16023(5)
Cu4_4 Cu 0.07361(6) 0.48514(6) 0.21525(5)
Cu5_4 Cu 0.26821(5) 0.35974(7) 0.02889(5)
Cu8_2 Cu 0.04401(5) 0.44202(5) 0.03113(5)
O2_4 O 0.4106(5) 0.3763(4) 0.1876(4)
O3_2 O 0.2555(5) 0.2967(5) 0.0044(4)
O5_2 O 0.0600(3) 0.3217(4) 0.1931(3)
N1_4 N 0.3177(4) 0.4199(3) 0.2371(3)
N2_4 N 0.2782(4) 0.3700(3) 0.1792(3)
N3_4 N 0.2047(3) 0.3678(3) 0.1950(3)
N4_4 N 0.1528(4) 0.3660(4) 0.1694(4)
N5_2 N 0.0239(6) 0.5489(4) 0.1696(3)
N6_4 N 0.1116(4) 0.4650(4) 0.2278(3)
N7_4 N 0.0510(4) 0.4395(4) 0.1774(3)
N8_4 N 0.3891(4) 0.4253(4) 0.0115(3)
N11_4 N 0.0389(3) 0.5045(3) 0.1946(4)
N12_4 N 0.2165(4) 0.3577(4) 0.0215(3)
N14_4 N 0.1059(4) 0.3831(4) 0.0137(4)
N16_3 N 0.5146(3) 0.5469(5) 0.0220(3)
N17_4 N 0.2436(4) 0.4114(4) 0.2673(3)
N18_4 N 0.2066(5) 0.4151(4) 0.3171(4)
H1_4 H 0.1857 0.4102 0.3315
N21_4 N 0.0928(5) 0.5215(4) 0.2596(4)
N24_4 N 0.0914(9) 0.5482(7) 0.3158(6)
H4_2 H 0.0829 0.5573 0.3349
O6_4 O 0.3773(3) 0.4343(3) 0.2118(3)
O7_4 O 0.3405(3) 0.3849(4) 0.1533(4)
O8_4 O 0.4112(2) 0.4120(3) 0.1103(3)
O9_4 O 0.3972(3) 0.4587(4) 0.0865(2)
O10_4 O 0.2703(3) 0.3952(4) 0.1045(2)
O11_4 O 0.2562(3) 0.3352(3) 0.0807(3)
O12_4 O 0.0889(3) 0.3452(3) 0.1113(3)
O13_4 O 0.1398(3) 0.4049(3) 0.0878(2)
O14_4 O 0.1278(3) 0.4176(4) 0.2034(3)
O15_4 O 0.0693(3) 0.3956(3) 0.1506(3)
O16_4 O 0.0717(3) 0.4734(3) 0.1037(2)
O17_4 O 0.0117(3) 0.4222(3) 0.0797(3)
O18_4 O 0.3264(3) 0.3780(4) 0.0385(3)
O20_4 O 0.0623(3) 0.4030(3) 0.0407(3)
O24_4 O 0.3188(3) 0.3836(4) 0.3055(3)
O25_2 O 0.3463(5) 0.4431(5) 0.3383(5)
O28_4 O 0.1570(5) 0.4724(5) 0.3220(3)
O29_4 O 0.0930(4) 0.4324(5) 0.2993(3)
C1_4 C 0.3395(4) 0.4177(5) 0.2120(5)
C2_4 C 0.3159(5) 0.3881(5) 0.1795(4)
C3_4 C 0.3345(6) 0.4465(5) 0.2709(5)
H5_4 H 0.3636 0.4664 0.2661
C4_4 C 0.3309(5) 0.4207(7) 0.3077(5)
C5_4 C 0.3109(5) 0.4693(5) 0.2766(6)
H6_4 H 0.3251 0.4908 0.2961
H7_4 H 0.3112 0.4826 0.2519
C6_4 C 0.2567(4) 0.3411(5) 0.1493(4)
H8_2 H 0.2681 0.3227 0.1488
C7_4 C 0.2611(4) 0.3573(5) 0.1086(5)
C8_2 C 0.2105(5) 0.3136(5) 0.1590(5)
H9_2 H 0.1967 0.2954 0.1369
H10_2 H 0.2075 0.2967 0.1818
C9_4 C 0.1916(4) 0.3382(4) 0.1669(4)
C10_4 C 0.1594(5) 0.3375(5) 0.1496(4)
H11_2 H 0.1443 0.3211 0.1284
C11_4 C 0.1799(5) 0.3817(5) 0.1953(4)
H12_4 H 0.1819 0.4015 0.2130
C13_4 C 0.4045(4) 0.4314(5) 0.0819(4)
C14_4 C 0.4094(4) 0.4173(6) 0.0400(4)
H14_4 H 0.3980 0.3874 0.0409
C15_4 C 0.4550(5) 0.4367(5) 0.0324(5)
H15_4 H 0.4681 0.4329 0.0554
H16_4 H 0.4594 0.4230 0.0103
C16_4 C 0.4741(4) 0.4806(4) 0.0239(4)
C17_4 C 0.3479(5) 0.4032(6) 0.0128(4)
C21_4 C 0.1067(5) 0.4351(5) 0.2041(4)
C22_4 C 0.0741(4) 0.4221(5) 0.1751(4)
C23_4 C 0.1628(6) 0.5268(6) 0.2626(5)
H20_4 H 0.1731 0.5408 0.2376
H21_4 H 0.1855 0.5369 0.2812
C24_4 C 0.0191(4) 0.4282(4) 0.1481(4)
H22_4 H 0.0041 0.3981 0.1467
C26_4 C 0.0084(4) 0.4857(4) 0.1684(4)
C27_4 C 0.0447(6) 0.5420(6) 0.1924(5)
H25_4 H 0.0645 0.5629 0.2081
C29_2 C 0.1796(4) 0.3329(4) 0.0380(4)
H27_2 H 0.1743 0.3130 0.0571
C31_4 C 0.1517(4) 0.3414(4) 0.0228(4)
C32_2 C 0.1069(4) 0.3226(4) 0.0295(4)
H29_2 H 0.0983 0.3011 0.0492
H30_2 H 0.0925 0.3099 0.0051
C33_4 C 0.0947(4) 0.3529(4) 0.0428(4)
H31_4 H 0.0645 0.3380 0.0438
C34_4 C 0.1088(5) 0.3699(5) 0.0822(4)
C35_4 C 0.0886(5) 0.4086(4) 0.0170(4)
C38_4 C 0.2675(5) 0.4431(5) 0.2892(6)
C39_4 C 0.2067(5) 0.3942(5) 0.2881(5)
H34_4 H 0.1839 0.3691 0.2811
C40_4 C 0.2459(7) 0.4472(7) 0.3213(6)
H35_2 H 0.2560 0.4672 0.3409
C50_4 C 0.1438(4) 0.4819(5) 0.2575(5)
H41_4 H 0.1657 0.4772 0.2478
C51_4 C 0.1297(8) 0.4594(10) 0.2941(7)
C52_4 C 0.5072(5) 0.5118(6) 0.0413(4)
H42_4 H 0.5221 0.5099 0.0624
C53_4 C 0.0349(5) 0.4432(5) 0.1080(5)
C54_4 C 0.1246(8) 0.5517(8) 0.3131(7)
H43_4 H 0.1455 0.5644 0.3318
C55_4 C 0.1279(7) 0.5345(7) 0.2788(6)
C56_4 C 0.0691(8) 0.5275(7) 0.2836(8)
H44_4 H 0.0415 0.5190 0.2793
Cu10_2 Cu 0.02632(8) 0.60148(5) 0.16243(5)
Cu11_3 Cu 0.55798(5) 0.60198(7) 0.03113(5)
O30_4 O 0.2512(3) 0.3335(4) 0.2624(3)
N25_3 N 0.4511(4) 0.4749(7) 0.1696(3)
N26_2 N 0.0324(6) 0.4854(3) 0.0220(3)
H70_2 H 0.280209 0.294643 0.00684739
H71_2 H 0.068279 0.32305 0.220518
H72_2 H 0.0339617 0.321566 0.191982
H73_4 H 0.384908 0.353408 0.197357
H74_4 H 0.421845 0.366603 0.167199
Cu6_4 Cu 0.40936(5) 0.46415(5) 0.96802(5)
Cu7_4 Cu 0.15174(6) 0.40694(6) 0.97609(5)
N9_4 N 0.3501(4) 0.4366(4) 0.9531(4)
N10_4 N 0.4622(3) 0.4963(4) 0.9959(3)
N13_4 N 0.1724(4) 0.3730(3) 0.9962(3)
N15_4 N 0.1328(4) 0.4452(4) 0.9640(3)
N19_4 N 0.1871(4) 0.4241(5) 0.9309(4)
N20_4 N 0.2187(10) 0.4258(11) 0.8774(6)
H2_4 H 0.2290 0.4179 0.8590
N22_4 N 0.4241(4) 0.5016(4) 0.9227(4)
N23_4 N 0.4586(5) 0.5417(4) 0.8736(4)
H3_4 H 0.4787 0.5572 0.8581
O19_4 O 0.2897(3) 0.3901(4) 0.9793(3)
O21_4 O 0.0838(4) 0.4605(3) 0.9873(3)
O22_4 O 0.0984(5) 0.4277(5) 0.8919(3)
O23_4 O 0.1387(5) 0.4890(5) 0.8690(4)
O26_4 O 0.3479(3) 0.3993(4) 0.8857(3)
O27_4 O 0.3213(5) 0.4319(5) 0.8521(4)
C18_4 C 0.3272(5) 0.4114(6) 0.9787(5)
C19_4 C 0.3562(5) 0.4924(5) 0.9138(4)
H17_4 H 0.3417 0.4999 0.8948
H18_4 H 0.3566 0.5053 0.9387
C20_4 C 0.2215(8) 0.4594(10) 0.8810(7)
H19_4 H 0.2372 0.4819 0.8647
C28_4 C 0.4867(5) 0.5354(6) 0.9947(4)
H26_4 H 0.4848 0.5532 0.9767
C30_4 C 0.2093(5) 0.3785(6) 0.9991(5)
H28_4 H 0.2305 0.3985 0.9839
C36_4 C 0.1027(5) 0.4410(5) 0.9858(5)
C37_4 C 0.1946(6) 0.4950(5) 0.9274(6)
H32_4 H 0.2058 0.5179 0.9090
H33_4 H 0.2092 0.5044 0.9522
C41_4 C 0.3993(5) 0.5089(4) 0.9001(6)
C42_4 C 0.4610(5) 0.5224(5) 0.9040(5)
H36_4 H 0.4849 0.5225 0.9119
C43_4 C 0.4195(6) 0.5340(5) 0.8700(6)
H37_4 H 0.4090 0.5439 0.8508
C44_4 C 0.3329(6) 0.4464(5) 0.9190(5)
H38_4 H 0.3039 0.4375 0.9244
C45_4 C 0.3352(4) 0.4252(5) 0.8833(5)
C46_4 C 0.1461(5) 0.4779(4) 0.9340(5)
H39_4 H 0.1425 0.5002 0.9447
C47_4 C 0.1245(9) 0.4645(6) 0.8970(6)
C48_4 C 0.1994(7) 0.4598(6) 0.9108(6)
C49_4 C 0.1958(6) 0.4034(8) 0.9086(7)
H40_4 H 0.1877 0.3758 0.9128
H69_2 H 0.247598 0.294445 0.97681
Cu1_5 Cu 0.61184(5) 0.86927(7) 0.22331(5)
Cu2_4 Cu 0.57517(6) 0.97368(8) 0.16243(5)
Cu3_5 Cu 0.62286(5) 0.73155(7) 0.16023(5)
Cu4_5 Cu 0.51486(6) 0.58846(8) 0.21525(5)
Cu5_5 Cu 0.64026(7) 0.90846(9) 0.02889(5)
O3_3 O 0.7033(5) 0.9587(7) 0.0044(4)
O5_3 O 0.6783(4) 0.7382(5) 0.1931(3)
N1_5 N 0.5801(3) 0.8977(5) 0.2371(3)
N2_5 N 0.6300(3) 0.9081(5) 0.1792(3)
N3_5 N 0.6322(3) 0.8368(4) 0.1950(3)
N4_5 N 0.6340(4) 0.7867(6) 0.1694(4)
N6_5 N 0.5350(4) 0.6465(6) 0.2278(3)
N7_5 N 0.5605(4) 0.6114(6) 0.1774(3)
N8_5 N 0.5747(4) 0.9637(6) 0.0115(3)
N11_5 N 0.4955(3) 0.5343(4) 0.1946(4)
N12_5 N 0.6423(4) 0.8587(6) 0.0215(3)
N14_5 N 0.6169(4) 0.7227(6) 0.0137(4)
N16_4 N 0.4531(5) 0.9676(6) 0.0220(3)
N17_5 N 0.5886(4) 0.8321(6) 0.2673(3)
N18_5 N 0.5849(4) 0.7914(6) 0.3171(4)
H1_5 H 0.5898 0.7754 0.3315
N21_5 N 0.4785(4) 0.5712(6) 0.2596(4)
N24_5 N 0.4518(7) 0.5431(11) 0.3158(6)
H4_3 H 0.4427 0.5255 0.3349
O6_5 O 0.5657(3) 0.9429(4) 0.2118(3)
O7_5 O 0.6151(4) 0.9555(5) 0.1533(4)
O8_5 O 0.5880(3) 0.9991(4) 0.1103(3)
O9_5 O 0.5413(4) 0.9384(5) 0.0865(2)
O10_5 O 0.6048(4) 0.8750(5) 0.1045(2)
O11_5 O 0.6648(3) 0.9209(4) 0.0807(3)
O12_5 O 0.6548(3) 0.7436(4) 0.1113(3)
O13_5 O 0.5951(3) 0.7348(4) 0.0878(2)
O14_5 O 0.5824(4) 0.7101(5) 0.2034(3)
O15_5 O 0.6044(3) 0.6736(4) 0.1506(3)
O16_5 O 0.5266(3) 0.5982(4) 0.1037(2)
O17_5 O 0.5778(3) 0.5894(4) 0.0797(3)
O18_5 O 0.6220(4) 0.9483(5) 0.0385(3)
O20_5 O 0.5970(3) 0.6592(4) 0.0407(3)
O24_5 O 0.6164(4) 0.9351(5) 0.3055(3)
O25_3 O 0.5569(5) 0.9031(7) 0.3383(5)
O28_5 O 0.5276(5) 0.6845(7) 0.3220(3)
O29_5 O 0.5676(5) 0.6605(6) 0.2993(3)
C1_5 C 0.5823(5) 0.9217(6) 0.2120(5)
C2_5 C 0.6119(5) 0.9277(7) 0.1795(4)
C3_5 C 0.5535(5) 0.8879(8) 0.2709(5)
H5_5 H 0.5336 0.8971 0.2661
C4_5 C 0.5793(7) 0.9101(9) 0.3077(5)
C5_5 C 0.5307(5) 0.8415(7) 0.2766(6)
H6_5 H 0.5092 0.8342 0.2961
H7_5 H 0.5174 0.8285 0.2519
C6_5 C 0.6589(5) 0.9155(6) 0.1493(4)
H8_3 H 0.6773 0.9453 0.1488
C7_5 C 0.6427(5) 0.9037(6) 0.1086(5)
C8_3 C 0.6864(5) 0.8968(7) 0.1590(5)
H9_3 H 0.7046 0.9012 0.1369
H10_3 H 0.7033 0.9107 0.1818
C9_5 C 0.6618(4) 0.8533(6) 0.1669(4)
C10_5 C 0.6625(5) 0.8218(7) 0.1496(4)
H11_3 H 0.6789 0.8231 0.1284
C11_5 C 0.6183(5) 0.7981(7) 0.1953(4)
H12_5 H 0.5985 0.7803 0.2130
C12_4 C 0.4872(4) 0.4866(7) 0.1531(4)
H13_4 H 0.4926 0.4721 0.1341
C13_5 C 0.5686(5) 0.9730(6) 0.0819(4)
C14_5 C 0.5827(6) 0.9920(7) 0.0400(4)
C16_5 C 0.5194(4) 0.9934(6) 0.0239(4)
C17_5 C 0.5968(6) 0.9446(8) 0.0128(4)
C21_5 C 0.5649(5) 0.6715(7) 0.2041(4)
C22_5 C 0.5779(5) 0.6519(6) 0.1751(4)
C23_5 C 0.4732(6) 0.6359(8) 0.2626(5)
H20_5 H 0.4592 0.6322 0.2376
H21_5 H 0.4631 0.6485 0.2812
C24_5 C 0.5718(4) 0.5908(6) 0.1481(4)
H22_5 H 0.6019 0.6059 0.1467
C25_4 C 0.5599(4) 0.5503(6) 0.1624(4)
H23_4 H 0.5737 0.5529 0.1873
H24_4 H 0.5694 0.5371 0.1439
C26_5 C 0.5143(4) 0.5226(6) 0.1684(4)
C27_5 C 0.4580(6) 0.5026(8) 0.1924(5)
H25_5 H 0.4371 0.5015 0.2081
C29_3 C 0.6671(4) 0.8466(6) 0.0380(4)
H27_3 H 0.6870 0.8612 0.0571
C31_5 C 0.6586(4) 0.8102(6) 0.0228(4)
C32_3 C 0.6774(4) 0.7842(6) 0.0295(4)
H29_3 H 0.6989 0.7971 0.0492
H30_3 H 0.6901 0.7825 0.0051
C33_5 C 0.6471(4) 0.7417(6) 0.0428(4)
H31_5 H 0.6620 0.7264 0.0438
C34_5 C 0.6301(5) 0.7388(7) 0.0822(4)
C35_5 C 0.5914(4) 0.6799(6) 0.0170(4)
C38_5 C 0.5569(5) 0.8243(7) 0.2892(6)
C39_5 C 0.6058(5) 0.8124(7) 0.2881(5)
H34_5 H 0.6309 0.8147 0.2811
C40_5 C 0.5528(7) 0.7986(10) 0.3213(6)
H35_3 H 0.5328 0.7887 0.3409
C50_5 C 0.5181(5) 0.6618(6) 0.2575(5)
H41_5 H 0.5228 0.6884 0.2478
C51_5 C 0.5406(10) 0.6702(13) 0.2941(7)
C52_5 C 0.4882(6) 0.9953(8) 0.0413(4)
C53_5 C 0.5568(5) 0.5916(7) 0.1080(5)
C54_5 C 0.4483(8) 0.5728(11) 0.3131(7)
H43_5 H 0.4356 0.5810 0.3318
C55_5 C 0.4655(7) 0.5933(10) 0.2788(6)
C56_5 C 0.4725(7) 0.5415(11) 0.2836(8)
H44_5 H 0.4810 0.5224 0.2793
Cu11_4 Cu 0.39802(7) 0.95599(9) 0.03113(5)
O30_5 O 0.6665(4) 0.9178(5) 0.2624(3)
N25_4 N 0.5251(7) 0.9761(8) 0.1696(3)
H70_3 H 0.705357 0.985566 0.00684739
H71_3 H 0.67695 0.745229 0.220518
H72_3 H 0.678434 0.712396 0.191982
H75_4 H 0.603127 0.568089 0.00224043
Cu1_6 Cu 0.13073(7) 0.74256(5) 0.22331(5)
Cu3_6 Cu 0.26845(7) 0.89130(5) 0.16023(5)
Cu4_6 Cu 0.41154(8) 0.92639(6) 0.21525(5)
Cu5_6 Cu 0.09154(9) 0.73179(5) 0.02889(5)
O3_4 O 0.0413(7) 0.7445(5) 0.0044(4)
O5_4 O 0.2618(5) 0.9400(3) 0.1931(3)
N1_6 N 0.1023(5) 0.6823(4) 0.2371(3)
N2_6 N 0.0919(5) 0.7218(4) 0.1792(3)
N3_6 N 0.1632(4) 0.7953(3) 0.1950(3)
N4_6 N 0.2133(6) 0.8472(4) 0.1694(4)
N6_6 N 0.3535(6) 0.8884(4) 0.2278(3)
N7_6 N 0.3886(6) 0.9490(4) 0.1774(3)
N8_6 N 0.0363(6) 0.6109(4) 0.0115(3)
N11_6 N 0.4657(4) 0.9611(3) 0.1946(4)
N12_6 N 0.1413(6) 0.7835(4) 0.0215(3)
N14_6 N 0.2773(6) 0.8941(4) 0.0137(4)
N17_6 N 0.1679(6) 0.7564(4) 0.2673(3)
N18_6 N 0.2086(6) 0.7934(5) 0.3171(4)
H1_6 H 0.2246 0.8143 0.3315
N21_6 N 0.4288(6) 0.9072(5) 0.2596(4)
N24_6 N 0.4569(11) 0.9086(9) 0.3158(6)
H4_4 H 0.4745 0.9171 0.3349
O6_6 O 0.0571(4) 0.6227(3) 0.2118(3)
O7_6 O 0.0445(5) 0.6595(3) 0.1533(4)
O8_6 O 0.0009(4) 0.5888(2) 0.1103(3)
O9_6 O 0.0616(5) 0.6028(3) 0.0865(2)
O10_6 O 0.1250(5) 0.7297(3) 0.1045(2)
O11_6 O 0.0791(4) 0.7438(3) 0.0807(3)
O12_6 O 0.2564(4) 0.9111(3) 0.1113(3)
O13_6 O 0.2652(4) 0.8602(3) 0.0878(2)
O14_6 O 0.2899(5) 0.8722(3) 0.2034(3)
O15_6 O 0.3264(4) 0.9307(3) 0.1506(3)
O16_6 O 0.4018(4) 0.9283(3) 0.1037(2)
O17_6 O 0.4106(4) 0.9883(3) 0.0797(3)
O18_6 O 0.0517(5) 0.6736(3) 0.0385(3)
O20_6 O 0.3408(4) 0.9377(3) 0.0407(3)
O24_6 O 0.0649(5) 0.6812(3) 0.3055(3)
O25_4 O 0.0969(7) 0.6537(5) 0.3383(5)
O28_6 O 0.3155(7) 0.8430(5) 0.3220(3)
O29_6 O 0.3395(6) 0.9070(4) 0.2993(3)
C1_6 C 0.0783(6) 0.6605(4) 0.2120(5)
C2_6 C 0.0723(7) 0.6841(5) 0.1795(4)
C3_6 C 0.1121(8) 0.6655(6) 0.2709(5)
H5_6 H 0.1029 0.6364 0.2661
C4_6 C 0.0899(9) 0.6691(5) 0.3077(5)
C5_6 C 0.1585(7) 0.6891(5) 0.2766(6)
H6_6 H 0.1658 0.6749 0.2961
H7_6 H 0.1715 0.6888 0.2519
C6_6 C 0.0845(6) 0.7433(4) 0.1493(4)
H8_4 H 0.0547 0.7319 0.1488
C7_6 C 0.0963(6) 0.7389(4) 0.1086(5)
C8_4 C 0.1032(7) 0.7895(5) 0.1590(5)
H9_4 H 0.0988 0.8033 0.1369
H10_4 H 0.0893 0.7925 0.1818
C9_6 C 0.1467(6) 0.8084(4) 0.1669(4)
C10_6 C 0.1782(7) 0.8406(5) 0.1496(4)
H11_4 H 0.1769 0.8557 0.1284
C11_6 C 0.2019(7) 0.8201(5) 0.1953(4)
H12_6 H 0.2197 0.8181 0.2130
C13_6 C 0.0270(6) 0.5955(4) 0.0819(4)
C14_6 C 0.0080(7) 0.5906(4) 0.0400(4)
C16_6 C 0.0066(6) 0.5259(4) 0.0239(4)
C17_6 C 0.0554(8) 0.6521(5) 0.0128(4)
C21_6 C 0.3285(7) 0.8933(5) 0.2041(4)
C22_6 C 0.3481(6) 0.9259(4) 0.1751(4)
C23_6 C 0.3641(8) 0.8372(6) 0.2626(5)
H20_6 H 0.3678 0.8269 0.2376
H21_6 H 0.3515 0.8145 0.2812
C24_6 C 0.4092(6) 0.9809(4) 0.1481(4)
H22_6 H 0.3941 0.9959 0.1467
C26_6 C 0.4774(6) 0.9916(4) 0.1684(4)
C27_6 C 0.4974(8) 0.9553(6) 0.1924(5)
H25_6 H 0.4985 0.9355 0.2081
C29_4 C 0.1534(6) 0.8204(4) 0.0380(4)
H27_4 H 0.1388 0.8257 0.0571
C31_6 C 0.1898(6) 0.8483(4) 0.0228(4)
C32_4 C 0.2158(6) 0.8931(4) 0.0295(4)
H29_4 H 0.2029 0.9017 0.0492
H30_4 H 0.2175 0.9075 0.0051
C33_6 C 0.2583(6) 0.9053(4) 0.0428(4)
H31_6 H 0.2736 0.9355 0.0438
C34_6 C 0.2612(7) 0.8912(5) 0.0822(4)
C35_6 C 0.3201(6) 0.9114(5) 0.0170(4)
C38_6 C 0.1757(7) 0.7325(5) 0.2892(6)
C39_6 C 0.1876(7) 0.7933(5) 0.2881(5)
H34_6 H 0.1853 0.8161 0.2811
C40_6 C 0.2014(10) 0.7541(7) 0.3213(6)
H35_4 H 0.2113 0.7440 0.3409
C50_6 C 0.3382(6) 0.8562(4) 0.2575(5)
H41_6 H 0.3116 0.8343 0.2478
C51_6 C 0.3298(13) 0.8703(8) 0.2941(7)
C52_6 C 0.0047(8) 0.4928(5) 0.0413(4)
C53_6 C 0.4084(7) 0.9651(5) 0.1080(5)
C54_6 C 0.4272(11) 0.8754(8) 0.3131(7)
H43_6 H 0.4190 0.8545 0.3318
C55_6 C 0.4067(10) 0.8721(7) 0.2788(6)
C56_6 C 0.4585(11) 0.9309(8) 0.2836(8)
H44_6 H 0.4776 0.9585 0.2793
O30_6 O 0.0822(5) 0.7488(3) 0.2624(3)
H70_4 H 0.0144344 0.719791 0.00684739
H71_4 H 0.254771 0.931721 0.220518
H72_4 H 0.287604 0.966038 0.191982
Cu2_5 Cu 0.06518(5) 0.75817(6) 0.49577(5)
Cu6_5 Cu 0.07602(5) 0.79749(5) 0.30136(5)
O2_5 O 0.0772(5) 0.7097(4) 0.5210(4)
N8_7 N 0.0557(4) 0.7587(4) 0.3449(3)
N9_5 N 0.0167(4) 0.7700(4) 0.2865(4)
N10_5 N 0.1288(3) 0.8297(4) 0.3293(3)
N16_5 N 0.1812(3) 0.8803(5) 0.3554(3)
N22_5 N 0.0907(4) 0.8350(4) 0.2561(4)
N23_5 N 0.1252(5) 0.8751(4) 0.2070(4)
H3_5 H 0.1453 0.8906 0.1915
O6_7 O 0.0439(3) 0.7677(3) 0.5452(3)
O7_7 O 0.0071(3) 0.7183(4) 0.4867(4)
O8_7 O 0.0778(2) 0.7454(3) 0.4437(3)
O9_7 O 0.0638(3) 0.7921(4) 0.4199(2)
O25_5 O 0.0129(5) 0.7765(5) 0.6717(5)
O26_5 O 0.0145(3) 0.7327(4) 0.2191(3)
C1_7 C 0.0061(4) 0.7511(5) 0.5454(5)
C3_7 C 0.0011(6) 0.7799(5) 0.6043(5)
H5_7 H 0.0302 0.7998 0.5995
C13_7 C 0.0711(4) 0.7648(5) 0.4153(4)
C14_7 C 0.0760(4) 0.7507(6) 0.3734(4)
H14_5 H 0.0646 0.7208 0.3743
C15_5 C 0.1216(5) 0.7701(5) 0.3658(5)
H15_5 H 0.1347 0.7663 0.3888
H16_5 H 0.1260 0.7564 0.3437
C16_7 C 0.1407(4) 0.8140(4) 0.3573(4)
C17_7 C 0.0145(5) 0.7366(6) 0.3462(4)
C19_5 C 0.0228(5) 0.8258(5) 0.2472(4)
H17_5 H 0.0083 0.8333 0.2282
H18_5 H 0.0232 0.8387 0.2721
C28_5 C 0.1533(5) 0.8688(6) 0.3281(4)
H26_5 H 0.1514 0.8866 0.3101
C41_5 C 0.0659(5) 0.8423(4) 0.2335(6)
C42_5 C 0.1276(5) 0.8558(5) 0.2374(5)
H36_5 H 0.1515 0.8559 0.2453
C43_5 C 0.0861(6) 0.8674(5) 0.2034(6)
H37_5 H 0.0756 0.8773 0.1842
C45_5 C 0.0018(4) 0.7586(5) 0.2167(5)
C52_7 C 0.1738(5) 0.8452(6) 0.3747(4)
H42_5 H 0.1887 0.8433 0.3958
Cu11_5 Cu 0.22464(5) 0.93532(7) 0.36447(5)
N25_5 N 0.1177(4) 0.8083(7) 0.5030(3)
H73_5 H 0.0515744 0.686741 0.53069
H74_5 H 0.0885121 0.699937 0.500533
Cu3_7 Cu 0.77536(5) 0.71048(5) 0.49357(5)
Cu4_7 Cu 0.74027(6) 0.81848(6) 0.54859(5)
Cu5_7 Cu 0.93487(5) 0.69308(7) 0.36223(5)
Cu7_5 Cu 0.81840(6) 0.74028(6) 0.30943(5)
Cu8_3 Cu 0.71067(5) 0.77536(5) 0.36447(5)
O3_5 O 0.9221(5) 0.6301(5) 0.3378(4)
O4_4 O 0.6549(4) 0.7260(3) 0.3316(3)
O5_5 O 0.7266(3) 0.6551(4) 0.5265(3)
N1_7 N 0.9843(4) 0.7533(3) 0.5705(3)
N2_7 N 0.9448(4) 0.7034(3) 0.5126(3)
N3_7 N 0.8713(3) 0.7012(3) 0.5284(3)
N4_7 N 0.8194(4) 0.6994(4) 0.5028(4)
N5_3 N 0.6905(6) 0.8823(4) 0.5030(3)
N6_7 N 0.7782(4) 0.7984(4) 0.5612(3)
N7_7 N 0.7176(4) 0.7729(4) 0.5108(3)
N11_7 N 0.7055(3) 0.8379(3) 0.5280(4)
N12_7 N 0.8831(4) 0.6911(4) 0.3549(3)
N13_5 N 0.8390(4) 0.7064(3) 0.3296(3)
N14_7 N 0.7725(4) 0.7165(4) 0.3471(4)
N15_5 N 0.7994(4) 0.7786(4) 0.2974(3)
N17_7 N 0.9102(4) 0.7448(4) 0.6007(3)
N18_7 N 0.8732(5) 0.7485(4) 0.6505(4)
H1_7 H 0.8523 0.7436 0.6649
N19_5 N 0.8537(4) 0.7575(5) 0.2643(4)
N20_5 N 0.8853(10) 0.7592(11) 0.2108(6)
H2_5 H 0.8956 0.7513 0.1924
N21_7 N 0.7594(5) 0.8549(4) 0.5930(4)
N24_7 N 0.7580(9) 0.8816(7) 0.6492(6)
H4_5 H 0.7495 0.8907 0.6683
O10_7 O 0.9369(3) 0.7286(4) 0.4379(2)
O11_7 O 0.9228(3) 0.6686(3) 0.4141(3)
O12_7 O 0.7555(3) 0.6786(3) 0.4447(3)
O13_7 O 0.8064(3) 0.7383(3) 0.4212(2)
O14_7 O 0.7944(3) 0.7510(4) 0.5368(3)
O15_7 O 0.7359(3) 0.7290(3) 0.4840(3)
O16_7 O 0.7383(3) 0.8068(3) 0.4371(2)
O17_7 O 0.6783(3) 0.7556(3) 0.4131(3)
O18_7 O 0.9930(3) 0.7114(4) 0.3719(3)
O19_5 O 0.9563(3) 0.7235(4) 0.3127(3)
O20_7 O 0.7289(3) 0.7364(3) 0.3741(3)
O21_5 O 0.7504(4) 0.7939(3) 0.3207(3)
O22_5 O 0.7650(5) 0.7611(5) 0.2253(3)
O23_5 O 0.8053(5) 0.8224(5) 0.2024(4)
O24_7 O 0.9854(3) 0.7170(4) 0.6389(3)
O27_5 O 0.9879(5) 0.7653(5) 0.1855(4)
O28_7 O 0.8236(5) 0.8058(5) 0.6554(3)
O29_7 O 0.7596(4) 0.7658(5) 0.6327(3)
C2_7 C 0.9825(5) 0.7215(5) 0.5129(4)
C4_7 C 0.9975(5) 0.7541(7) 0.6411(5)
C5_7 C 0.9775(5) 0.8027(5) 0.6100(6)
H6_7 H 0.9917 0.8242 0.6295
H7_7 H 0.9778 0.8160 0.5853
C6_7 C 0.9233(4) 0.6745(5) 0.4827(4)
H8_5 H 0.9347 0.6561 0.4822
C7_7 C 0.9277(4) 0.6907(5) 0.4420(5)
C8_5 C 0.8771(5) 0.6470(5) 0.4924(5)
H9_5 H 0.8633 0.6288 0.4703
H10_5 H 0.8741 0.6301 0.5152
C9_7 C 0.8582(4) 0.6716(4) 0.5003(4)
C10_7 C 0.8260(5) 0.6709(5) 0.4830(4)
H11_5 H 0.8109 0.6545 0.4618
C11_7 C 0.8465(5) 0.7151(5) 0.5287(4)
H12_7 H 0.8485 0.7349 0.5464
C12_5 C 0.6661(6) 0.8462(4) 0.4865(4)
H13_5 H 0.6462 0.8408 0.4675
C18_5 C 0.9938(5) 0.7448(6) 0.3121(5)
C20_5 C 0.8881(8) 0.7928(10) 0.2144(7)
H19_5 H 0.9038 0.8153 0.1981
C21_7 C 0.7733(5) 0.7685(5) 0.5375(4)
C22_7 C 0.7407(4) 0.7555(5) 0.5085(4)
C23_7 C 0.8294(6) 0.8602(6) 0.5960(5)
H20_7 H 0.8397 0.8742 0.5710
H21_7 H 0.8521 0.8703 0.6146
C24_7 C 0.6857(4) 0.7616(4) 0.4815(4)
H22_7 H 0.6707 0.7315 0.4801
C25_5 C 0.6571(4) 0.7735(4) 0.4958(4)
H23_5 H 0.6459 0.7597 0.5207
H24_5 H 0.6344 0.7640 0.4773
C26_7 C 0.6750(4) 0.8191(4) 0.5018(4)
C27_7 C 0.7113(6) 0.8754(6) 0.5258(5)
H25_7 H 0.7311 0.8963 0.5415
C29_5 C 0.8462(4) 0.6663(4) 0.3714(4)
H27_5 H 0.8409 0.6464 0.3905
C30_5 C 0.8759(5) 0.7119(6) 0.3325(5)
H28_5 H 0.8971 0.7319 0.3173
C31_7 C 0.8183(4) 0.6748(4) 0.3562(4)
C32_5 C 0.7735(4) 0.6560(4) 0.3629(4)
H29_5 H 0.7649 0.6345 0.3826
H30_5 H 0.7591 0.6433 0.3385
C33_7 C 0.7613(4) 0.6863(4) 0.3762(4)
H31_7 H 0.7311 0.6714 0.3772
C34_7 C 0.7754(5) 0.7033(5) 0.4156(4)
C35_7 C 0.7552(5) 0.7420(4) 0.3504(4)
C36_5 C 0.7693(5) 0.7744(5) 0.3192(5)
C37_5 C 0.8612(6) 0.8284(5) 0.2608(6)
H32_5 H 0.8724 0.8513 0.2424
H33_5 H 0.8758 0.8378 0.2856
C38_7 C 0.9341(5) 0.7765(5) 0.6226(6)
C39_7 C 0.8733(5) 0.7276(5) 0.6215(5)
H34_7 H 0.8505 0.7025 0.6145
C40_7 C 0.9125(7) 0.7806(7) 0.6547(6)
H35_5 H 0.9226 0.8006 0.6743
C44_5 C 0.9995(6) 0.7798(5) 0.2524(5)
H38_5 H 0.9705 0.7709 0.2578
C46_5 C 0.8127(5) 0.8113(4) 0.2674(5)
H39_5 H 0.8091 0.8336 0.2781
C47_5 C 0.7911(9) 0.7979(6) 0.2304(6)
C48_5 C 0.8660(7) 0.7932(6) 0.2442(6)
C49_5 C 0.8624(6) 0.7368(8) 0.2420(7)
H40_5 H 0.8543 0.7092 0.2462
C50_7 C 0.8104(4) 0.8153(5) 0.5909(5)
H41_7 H 0.8323 0.8106 0.5812
C51_7 C 0.7963(8) 0.7928(10) 0.6275(7)
C53_7 C 0.7015(5) 0.7766(5) 0.4414(5)
C54_7 C 0.7912(8) 0.8851(8) 0.6465(7)
H43_7 H 0.8121 0.8978 0.6652
C55_7 C 0.7945(7) 0.8679(7) 0.6122(6)
C56_7 C 0.7357(8) 0.8609(7) 0.6170(8)
H44_7 H 0.7081 0.8524 0.6127
Cu10_3 Cu 0.69298(8) 0.93482(5) 0.49577(5)
N26_3 N 0.6990(6) 0.8188(3) 0.3554(3)
H69_3 H 0.914265 0.627778 0.310144
H70_5 H 0.946875 0.627976 0.340181
H71_5 H 0.734946 0.656383 0.553851
H72_5 H 0.700628 0.654899 0.525316
H75_5 H 0.631629 0.730206 0.335574
H76_4 H 0.661174 0.727609 0.303553
Cu2_6 Cu 0.24183(6) 0.30702(8) 0.49577(5)
Cu3_8 Cu 0.28952(5) 0.06489(7) 0.49357(5)
Cu5_8 Cu 0.30692(7) 0.24180(9) 0.36223(5)
Cu6_6 Cu 0.20251(5) 0.27854(7) 0.30136(5)
Cu7_6 Cu 0.25972(6) 0.07813(8) 0.30943(5)
O2_6 O 0.2903(4) 0.3676(6) 0.5210(4)
O3_6 O 0.3699(5) 0.2921(7) 0.3378(4)
O5_6 O 0.3449(4) 0.0716(5) 0.5265(3)
N1_8 N 0.2467(3) 0.2311(5) 0.5705(3)
N2_8 N 0.2966(3) 0.2415(5) 0.5126(3)
N3_8 N 0.2988(3) 0.1702(4) 0.5284(3)
N4_8 N 0.3006(4) 0.1201(6) 0.5028(4)
N8_8 N 0.2413(4) 0.2971(6) 0.3449(3)
N9_6 N 0.2300(4) 0.2468(6) 0.2865(4)
N10_6 N 0.1703(4) 0.2992(5) 0.3293(3)
N12_8 N 0.3089(4) 0.1921(6) 0.3549(3)
N13_6 N 0.2936(3) 0.1327(5) 0.3296(3)
N14_8 N 0.2835(4) 0.0561(6) 0.3471(4)
N15_6 N 0.2214(4) 0.0209(6) 0.2974(3)
N16_6 N 0.1197(5) 0.3010(6) 0.3554(3)
N17_8 N 0.2552(4) 0.1655(6) 0.6007(3)
N18_8 N 0.2515(4) 0.1248(6) 0.6505(4)
H1_8 H 0.2564 0.1088 0.6649
N19_6 N 0.2425(5) 0.0963(6) 0.2643(4)
N20_6 N 0.2408(11) 0.1262(15) 0.2108(6)
H2_6 H 0.2487 0.1444 0.1924
N22_6 N 0.1650(4) 0.2558(6) 0.2561(4)
N23_6 N 0.1249(4) 0.2502(6) 0.2070(4)
H3_6 H 0.1094 0.2548 0.1915
O6_8 O 0.2323(3) 0.2763(4) 0.5452(3)
O7_8 O 0.2817(4) 0.2889(5) 0.4867(4)
O8_8 O 0.2546(3) 0.3325(4) 0.4437(3)
O9_8 O 0.2079(4) 0.2718(5) 0.4199(2)
O10_8 O 0.2714(4) 0.2084(5) 0.4379(2)
O11_8 O 0.3314(3) 0.2543(4) 0.4141(3)
O12_8 O 0.3214(3) 0.0770(4) 0.4447(3)
O13_8 O 0.2617(3) 0.0682(4) 0.4212(2)
O14_8 O 0.2490(4) 0.0435(5) 0.5368(3)
O15_8 O 0.2710(3) 0.0070(4) 0.4840(3)
O18_8 O 0.2886(4) 0.2817(5) 0.3719(3)
O19_6 O 0.2765(4) 0.2329(5) 0.3127(3)
O22_6 O 0.2389(5) 0.0040(7) 0.2253(3)
O24_8 O 0.2830(4) 0.2685(5) 0.6389(3)
O25_6 O 0.2235(5) 0.2365(7) 0.6717(5)
O26_6 O 0.2673(4) 0.2819(5) 0.2191(3)
O27_6 O 0.2347(5) 0.2227(7) 0.1855(4)
O28_8 O 0.1942(5) 0.0179(7) 0.6554(3)
C1_8 C 0.2489(5) 0.2551(6) 0.5454(5)
C2_8 C 0.2785(5) 0.2611(7) 0.5129(4)
C3_8 C 0.2201(5) 0.2213(8) 0.6043(5)
H5_8 H 0.2002 0.2305 0.5995
C4_8 C 0.2459(7) 0.2435(9) 0.6411(5)
C5_8 C 0.1973(5) 0.1749(7) 0.6100(6)
H6_8 H 0.1758 0.1676 0.6295
H7_8 H 0.1840 0.1619 0.5853
C6_8 C 0.3255(5) 0.2489(6) 0.4827(4)
H8_6 H 0.3439 0.2787 0.4822
C7_8 C 0.3093(5) 0.2371(6) 0.4420(5)
C8_6 C 0.3530(5) 0.2302(7) 0.4924(5)
H9_6 H 0.3712 0.2346 0.4703
H10_6 H 0.3699 0.2441 0.5152
C9_8 C 0.3284(4) 0.1867(6) 0.5003(4)
C10_8 C 0.3291(5) 0.1552(7) 0.4830(4)
H11_6 H 0.3455 0.1565 0.4618
C11_8 C 0.2849(5) 0.1315(7) 0.5287(4)
H12_8 H 0.2651 0.1137 0.5464
C13_8 C 0.2352(5) 0.3064(6) 0.4153(4)
C14_8 C 0.2493(6) 0.3254(7) 0.3734(4)
H14_6 H 0.2792 0.3439 0.3743
C15_6 C 0.2299(5) 0.3516(7) 0.3658(5)
H15_6 H 0.2337 0.3685 0.3888
H16_6 H 0.2436 0.3697 0.3437
C16_8 C 0.1860(4) 0.3268(6) 0.3573(4)
C17_8 C 0.2634(6) 0.2780(8) 0.3462(4)
C18_6 C 0.2552(6) 0.2491(8) 0.3121(5)
C19_6 C 0.1742(5) 0.1971(7) 0.2472(4)
H17_6 H 0.1667 0.1751 0.2282
H18_6 H 0.1613 0.1846 0.2721
C20_6 C 0.2072(10) 0.0954(13) 0.2144(7)
H19_6 H 0.1847 0.0886 0.1981
C21_8 C 0.2315(5) 0.0049(7) 0.5375(4)
C28_6 C 0.1312(6) 0.2846(8) 0.3281(4)
H26_6 H 0.1134 0.2649 0.3101
C29_6 C 0.3337(4) 0.1800(6) 0.3714(4)
H27_6 H 0.3536 0.1946 0.3905
C30_6 C 0.2881(6) 0.1641(8) 0.3325(5)
H28_6 H 0.2681 0.1653 0.3173
C31_8 C 0.3252(4) 0.1436(6) 0.3562(4)
C32_6 C 0.3440(4) 0.1176(6) 0.3629(4)
H29_6 H 0.3655 0.1305 0.3826
H30_6 H 0.3567 0.1159 0.3385
C33_8 C 0.3137(4) 0.0751(6) 0.3762(4)
H31_8 H 0.3286 0.0598 0.3772
C34_8 C 0.2967(5) 0.0722(7) 0.4156(4)
C35_8 C 0.2580(4) 0.0133(6) 0.3504(4)
C37_6 C 0.1716(5) 0.0329(8) 0.2608(6)
H32_6 H 0.1487 0.0212 0.2424
H33_6 H 0.1622 0.0381 0.2856
C38_8 C 0.2235(5) 0.1577(7) 0.6226(6)
C39_8 C 0.2724(5) 0.1458(7) 0.6215(5)
H34_8 H 0.2975 0.1481 0.6145
C40_8 C 0.2194(7) 0.1320(10) 0.6547(6)
H35_6 H 0.1994 0.1221 0.6743
C41_6 C 0.1577(4) 0.2237(6) 0.2335(6)
C42_6 C 0.1442(5) 0.2719(7) 0.2374(5)
H36_6 H 0.1441 0.2957 0.2453
C43_6 C 0.1326(5) 0.2188(8) 0.2034(6)
H37_6 H 0.1227 0.1984 0.1842
C44_6 C 0.2202(5) 0.2198(8) 0.2524(5)
H38_6 H 0.2291 0.1997 0.2578
C45_6 C 0.2414(5) 0.2433(6) 0.2167(5)
C46_6 C 0.1887(4) 0.0015(6) 0.2674(5)
C48_6 C 0.2068(6) 0.0729(9) 0.2442(6)
C49_6 C 0.2632(8) 0.1257(10) 0.2420(7)
H40_6 H 0.2908 0.1452 0.2462
H41_8 H 0.1894 0.0218 0.5812
C51_8 C 0.2072(10) 0.0036(13) 0.6275(7)
C52_8 C 0.1548(6) 0.3287(8) 0.3747(4)
H42_6 H 0.1567 0.3455 0.3958
Cu11_6 Cu 0.06468(7) 0.28933(9) 0.36447(5)
N25_6 N 0.1917(7) 0.3095(8) 0.5030(3)
H69_4 H 0.372222 0.286486 0.310144
H70_6 H 0.372024 0.318899 0.340181
H71_6 H 0.343617 0.0785626 0.553851
H72_6 H 0.345101 0.045729 0.525316
H73_6 H 0.313259 0.364833 0.53069
H74_6 H 0.300063 0.388575 0.500533
Cu4_8 Cu 0.18152(6) 0.92180(8) 0.54859(5)
O4_5 O 0.2740(3) 0.9290(5) 0.3316(3)
N6_8 N 0.2016(4) 0.9799(6) 0.5612(3)
N7_8 N 0.2271(4) 0.9448(6) 0.5108(3)
N11_8 N 0.1621(3) 0.8677(4) 0.5280(4)
N21_8 N 0.1451(4) 0.9046(6) 0.5930(4)
N24_8 N 0.1184(7) 0.8765(11) 0.6492(6)
H4_6 H 0.1093 0.8589 0.6683
O16_8 O 0.1932(3) 0.9316(4) 0.4371(2)
O17_8 O 0.2444(3) 0.9228(4) 0.4131(3)
O20_8 O 0.2636(3) 0.9926(4) 0.3741(3)
O21_6 O 0.2061(3) 0.9566(5) 0.3207(3)
O23_6 O 0.1776(5) 0.9830(7) 0.2024(4)
O29_8 O 0.2342(5) 0.9939(6) 0.6327(3)
C12_6 C 0.1538(4) 0.8200(7) 0.4865(4)
H13_6 H 0.1592 0.8055 0.4675
C22_8 C 0.2445(5) 0.9853(6) 0.5085(4)
C23_8 C 0.1398(6) 0.9693(8) 0.5960(5)
H20_8 H 0.1258 0.9656 0.5710
H21_8 H 0.1297 0.9819 0.6146
C24_8 C 0.2384(4) 0.9242(6) 0.4815(4)
H22_8 H 0.2685 0.9393 0.4801
C25_6 C 0.2265(4) 0.8837(6) 0.4958(4)
H23_6 H 0.2403 0.8863 0.5207
H24_6 H 0.2360 0.8705 0.4773
C26_8 C 0.1809(4) 0.8560(6) 0.5018(4)
C27_8 C 0.1246(6) 0.8360(8) 0.5258(5)
H25_8 H 0.1037 0.8349 0.5415
C36_6 C 0.2256(5) 0.9950(7) 0.3192(5)
H39_6 H 0.1664 0.9756 0.2781
C47_6 C 0.2021(6) 0.9933(11) 0.2304(6)
C50_8 C 0.1847(5) 0.9952(6) 0.5909(5)
C53_8 C 0.2234(5) 0.9250(7) 0.4414(5)
C54_8 C 0.1149(8) 0.9062(11) 0.6465(7)
H43_8 H 0.1022 0.9144 0.6652
C55_8 C 0.1321(7) 0.9267(10) 0.6122(6)
C56_8 C 0.1391(7) 0.8749(11) 0.6170(8)
H44_8 H 0.1476 0.8558 0.6127
H75_6 H 0.269794 0.901422 0.335574
H76_5 H 0.272391 0.933565 0.303553
Cu4_9 Cu 0.07820(8) 0.25973(6) 0.54859(5)
O4_6 O 0.0710(5) 0.3451(4) 0.3316(3)
N6_9 N 0.0201(6) 0.2218(4) 0.5612(3)
N7_9 N 0.0552(6) 0.2824(4) 0.5108(3)
N11_9 N 0.1323(4) 0.2945(3) 0.5280(4)
N21_9 N 0.0954(6) 0.2406(5) 0.5930(4)
N24_9 N 0.1235(11) 0.2420(9) 0.6492(6)
H4_7 H 0.1411 0.2505 0.6683
O16_9 O 0.0684(4) 0.2617(3) 0.4371(2)
O17_9 O 0.0772(4) 0.3217(3) 0.4131(3)
O20_9 O 0.0074(4) 0.2711(3) 0.3741(3)
O21_7 O 0.0434(5) 0.2496(4) 0.3207(3)
O23_7 O 0.0170(7) 0.1947(5) 0.2024(4)
O29_9 O 0.0061(6) 0.2404(4) 0.6327(3)
C12_7 C 0.1800(7) 0.3339(6) 0.4865(4)
H13_7 H 0.1945 0.3538 0.4675
C22_9 C 0.0147(6) 0.2593(4) 0.5085(4)
C23_9 C 0.0307(8) 0.1706(6) 0.5960(5)
H20_9 H 0.0344 0.1603 0.5710
H21_9 H 0.0181 0.1479 0.6146
C24_9 C 0.0758(6) 0.3143(4) 0.4815(4)
H22_9 H 0.0607 0.3293 0.4801
C25_7 C 0.1163(6) 0.3429(4) 0.4958(4)
H23_7 H 0.1137 0.3541 0.5207
H24_7 H 0.1295 0.3656 0.4773
C26_9 C 0.1440(6) 0.3250(4) 0.5018(4)
C27_9 C 0.1640(8) 0.2887(6) 0.5258(5)
H25_9 H 0.1651 0.2689 0.5415
C36_7 C 0.0050(7) 0.2307(5) 0.3192(5)
H39_7 H 0.0244 0.1909 0.2781
C47_7 C 0.0067(11) 0.2089(9) 0.2304(6)
C50_9 C 0.0048(6) 0.1896(4) 0.5909(5)
C53_9 C 0.0750(7) 0.2985(5) 0.4414(5)
C54_9 C 0.0938(11) 0.2088(8) 0.6465(7)
H43_9 H 0.0856 0.1879 0.6652
C55_9 C 0.0733(10) 0.2055(7) 0.6122(6)
C56_9 C 0.1251(11) 0.2643(8) 0.6170(8)
H44_9 H 0.1442 0.2919 0.6127
H75_7 H 0.0985778 0.368371 0.335574
H76_6 H 0.0664353 0.338826 0.303553
Cu3_9 Cu 0.93511(7) 0.22464(5) 0.49357(5)
Cu5_9 Cu 0.75820(9) 0.06513(5) 0.36223(5)
Cu7_7 Cu 0.92187(8) 0.18160(6) 0.30943(5)
O3_7 O 0.7079(7) 0.0779(5) 0.3378(4)
O5_7 O 0.9284(5) 0.2734(3) 0.5265(3)
N1_9 N 0.7689(5) 0.0157(4) 0.5705(3)
N2_9 N 0.7585(5) 0.0552(4) 0.5126(3)
N3_9 N 0.8298(4) 0.1287(3) 0.5284(3)
N4_9 N 0.8799(6) 0.1806(4) 0.5028(4)
N12_9 N 0.8079(6) 0.1169(4) 0.3549(3)
N13_7 N 0.8673(5) 0.1610(4) 0.3296(3)
N14_9 N 0.9439(6) 0.2275(4) 0.3471(4)
N15_7 N 0.9791(6) 0.2006(4) 0.2974(3)
N17_9 N 0.8345(6) 0.0898(4) 0.6007(3)
N18_9 N 0.8752(6) 0.1268(5) 0.6505(4)
H1_9 H 0.8912 0.1477 0.6649
N19_7 N 0.9037(6) 0.1463(4) 0.2643(4)
N20_7 N 0.8738(15) 0.1147(10) 0.2108(6)
H2_7 H 0.8556 0.1044 0.1924
O10_9 O 0.7916(5) 0.0631(3) 0.4379(2)
O11_9 O 0.7457(4) 0.0772(3) 0.4141(3)
O12_9 O 0.9230(4) 0.2445(3) 0.4447(3)
O13_9 O 0.9318(4) 0.1936(3) 0.4212(2)
O14_9 O 0.9565(5) 0.2056(3) 0.5368(3)
O15_9 O 0.9930(4) 0.2641(3) 0.4840(3)
O18_9 O 0.7183(5) 0.0070(3) 0.3719(3)
O19_7 O 0.7671(5) 0.0437(3) 0.3127(3)
O22_7 O 0.9960(7) 0.2350(5) 0.2253(3)
O24_9 O 0.7315(5) 0.0146(3) 0.6389(3)
O27_7 O 0.7773(7) 0.0121(5) 0.1855(4)
O28_9 O 0.9821(7) 0.1764(5) 0.6554(3)
C2_9 C 0.7389(7) 0.0175(5) 0.5129(4)
C4_9 C 0.7565(9) 0.0025(5) 0.6411(5)
C5_9 C 0.8251(7) 0.0225(5) 0.6100(6)
H6_9 H 0.8324 0.0083 0.6295
H7_9 H 0.8381 0.0222 0.5853
C6_9 C 0.7511(6) 0.0767(4) 0.4827(4)
H8_7 H 0.7213 0.0653 0.4822
C7_9 C 0.7629(6) 0.0723(4) 0.4420(5)
C8_7 C 0.7698(7) 0.1229(5) 0.4924(5)
H9_7 H 0.7654 0.1367 0.4703
H10_7 H 0.7559 0.1259 0.5152
C9_9 C 0.8133(6) 0.1418(4) 0.5003(4)
C10_9 C 0.8448(7) 0.1740(5) 0.4830(4)
H11_7 H 0.8435 0.1891 0.4618
C11_9 C 0.8685(7) 0.1535(5) 0.5287(4)
H12_9 H 0.8863 0.1515 0.5464
C18_7 C 0.7509(8) 0.0062(5) 0.3121(5)
C20_7 C 0.9046(13) 0.1119(8) 0.2144(7)
H19_7 H 0.9114 0.0962 0.1981
C21_9 C 0.9951(7) 0.2267(5) 0.5375(4)
C29_7 C 0.8200(6) 0.1538(4) 0.3714(4)
H27_7 H 0.8054 0.1591 0.3905
C30_7 C 0.8359(8) 0.1241(5) 0.3325(5)
H28_7 H 0.8347 0.1029 0.3173
C31_9 C 0.8564(6) 0.1817(4) 0.3562(4)
C32_7 C 0.8824(6) 0.2265(4) 0.3629(4)
H29_7 H 0.8695 0.2351 0.3826
H30_7 H 0.8841 0.2409 0.3385
C33_9 C 0.9249(6) 0.2387(4) 0.3762(4)
H31_9 H 0.9402 0.2689 0.3772
C34_9 C 0.9278(7) 0.2246(5) 0.4156(4)
C35_9 C 0.9867(6) 0.2448(5) 0.3504(4)
C37_7 C 0.9671(8) 0.1388(6) 0.2608(6)
H32_7 H 0.9788 0.1276 0.2424
H33_7 H 0.9619 0.1242 0.2856
C38_9 C 0.8423(7) 0.0659(5) 0.6226(6)
C39_9 C 0.8542(7) 0.1267(5) 0.6215(5)
H34_9 H 0.8519 0.1495 0.6145
C40_9 C 0.8680(10) 0.0875(7) 0.6547(6)
H35_7 H 0.8779 0.0774 0.6743
C44_7 C 0.7802(8) 0.0005(6) 0.2524(5)
H38_7 H 0.8003 0.0295 0.2578
C46_7 C 0.9985(6) 0.1873(5) 0.2674(5)
C48_7 C 0.9271(9) 0.1340(7) 0.2442(6)
C49_7 C 0.8743(10) 0.1376(6) 0.2420(7)
H40_7 H 0.8548 0.1457 0.2462
H41_9 H 0.9782 0.1677 0.5812
C51_9 C 0.9964(13) 0.2037(8) 0.6275(7)
H69_5 H 0.713514 0.0857355 0.310144
H70_7 H 0.681101 0.0531247 0.340181
H71_7 H 0.921437 0.265054 0.553851
H72_7 H 0.954271 0.299372 0.525316
Cu6_7 Cu 0.72146(7) 0.92398(5) 0.30136(5)
O2_7 O 0.6324(6) 0.9228(5) 0.5210(4)
N8_9 N 0.7029(6) 0.9443(4) 0.3449(3)
N9_7 N 0.7532(6) 0.9833(4) 0.2865(4)
N10_7 N 0.7008(5) 0.8712(3) 0.3293(3)
N22_7 N 0.7442(6) 0.9093(4) 0.2561(4)
N23_7 N 0.7498(6) 0.8748(5) 0.2070(4)
H3_7 H 0.7452 0.8547 0.1915
O6_9 O 0.7237(4) 0.9561(3) 0.5452(3)
O7_9 O 0.7111(5) 0.9929(3) 0.4867(4)
O8_9 O 0.6675(4) 0.9222(2) 0.4437(3)
O9_9 O 0.7282(5) 0.9362(3) 0.4199(2)
O25_7 O 0.7635(7) 0.9871(5) 0.6717(5)
O26_7 O 0.7181(5) 0.9855(3) 0.2191(3)
C1_9 C 0.7449(6) 0.9939(4) 0.5454(5)
C3_9 C 0.7787(8) 0.9989(6) 0.6043(5)
H5_9 H 0.7695 0.9698 0.5995
C13_9 C 0.6936(6) 0.9289(4) 0.4153(4)
C14_9 C 0.6746(7) 0.9240(4) 0.3734(4)
H14_7 H 0.6561 0.9354 0.3743
C15_7 C 0.6484(7) 0.8784(5) 0.3658(5)
H15_7 H 0.6315 0.8653 0.3888
H16_7 H 0.6303 0.8740 0.3437
C16_9 C 0.6732(6) 0.8593(4) 0.3573(4)
C17_9 C 0.7220(8) 0.9855(5) 0.3462(4)
C19_7 C 0.8029(7) 0.9772(5) 0.2472(4)
H17_7 H 0.8249 0.9917 0.2282
H18_7 H 0.8154 0.9768 0.2721
C28_7 C 0.7154(8) 0.8467(5) 0.3281(4)
H26_7 H 0.7351 0.8486 0.3101
C41_7 C 0.7763(6) 0.9341(5) 0.2335(6)
C42_7 C 0.7281(7) 0.8724(5) 0.2374(5)
H36_7 H 0.7043 0.8485 0.2453
C43_7 C 0.7812(8) 0.9139(6) 0.2034(6)
H37_7 H 0.8016 0.9244 0.1842
C45_7 C 0.7567(6) 0.9982(4) 0.2167(5)
C52_9 C 0.6713(8) 0.8262(5) 0.3747(4)
H42_7 H 0.6545 0.8113 0.3958
H73_7 H 0.635167 0.948426 0.53069
H74_7 H 0.611425 0.911488 0.500533
O3_8 O 0.5888(5) 0.9634(5) 0.6711(4)
O5_8 O 0.3933(3) 0.9884(4) 0.8598(3)
H8_8 H 0.6014 0.9894 0.8155
C8_8 C 0.5438(5) 0.9803(5) 0.8257(5)
H9_8 H 0.5300 0.9621 0.8036
H10_8 H 0.5408 0.9634 0.8485
H11_8 H 0.4776 0.9878 0.7951
C29_8 C 0.5129(4) 0.9996(4) 0.7047(4)
H27_8 H 0.5076 0.9797 0.7238
C32_8 C 0.4402(4) 0.9893(4) 0.6962(4)
H29_8 H 0.4316 0.9678 0.7159
H30_8 H 0.4258 0.9766 0.6718
H69_6 H 0.580931 0.961111 0.643477
H70_8 H 0.613542 0.96131 0.673514
H71_8 H 0.401612 0.989716 0.887184
H72_8 H 0.367295 0.988233 0.858649
O3_9 O 0.0366(5) 0.6254(7) 0.6711(4)
O5_9 O 0.0116(4) 0.4049(5) 0.8598(3)
H8_9 H 0.0106 0.6120 0.8155
C8_9 C 0.0197(5) 0.5635(7) 0.8257(5)
H9_9 H 0.0379 0.5679 0.8036
H10_9 H 0.0366 0.5774 0.8485
H11_9 H 0.0122 0.4898 0.7951
C29_9 C 0.0004(4) 0.5133(6) 0.7047(4)
H27_9 H 0.0203 0.5279 0.7238
C32_9 C 0.0107(4) 0.4509(6) 0.6962(4)
H29_9 H 0.0322 0.4638 0.7159
H30_9 H 0.0234 0.4492 0.6718
H69_7 H 0.0388886 0.61982 0.643477
H70_9 H 0.0386903 0.652232 0.673514
H71_9 H 0.0102835 0.411896 0.887184
H72_9 H 0.0117674 0.379062 0.858649
H4_8 H 0.7760 0.1922 0.0016
O25_8 O 0.8902(5) 0.5698(7) 0.0050(5)
H35_8 H 0.8661 0.4554 0.0076
H4_9 H 0.8078 0.5838 0.0016
O25_9 O 0.4302(7) 0.3204(5) 0.0050(5)
H35_9 H 0.5446 0.4107 0.0076
C12_8 C 0.9995(6) 0.5128(4) 0.1531(4)
H13_8 H 0.9796 0.5074 0.1341
C25_8 C 0.9905(4) 0.4401(4) 0.1624(4)
H23_8 H 0.9793 0.4263 0.1873
H24_8 H 0.9678 0.4306 0.1439
H75_8 H 0.964962 0.396873 0.00224043
O4_7 O 0.9883(4) 0.3926(3) 0.9982(3)
H76_7 H 0.994507 0.394276 0.97022
O2_8 O 0.6237(4) 0.0342(6) 0.1876(4)
H14_8 H 0.6126 0.0105 0.0409
C15_8 C 0.5633(5) 0.0182(7) 0.0324(5)
H15_8 H 0.5671 0.0351 0.0554
H16_8 H 0.5770 0.0363 0.0103
H42_8 H 0.4901 0.0121 0.0624
H73_8 H 0.646592 0.0314997 0.197357
H74_8 H 0.633397 0.0552422 0.167199
Cu6_8 Cu 0.53585(5) 0.94520(7) 0.96802(5)
Cu7_8 Cu 0.59306(6) 0.74479(8) 0.97609(5)
O4_8 O 0.6074(3) 0.5956(5) 0.9982(3)
N9_8 N 0.5634(4) 0.9134(6) 0.9531(4)
N10_8 N 0.5037(4) 0.9658(5) 0.9959(3)
N13_8 N 0.6270(3) 0.7993(5) 0.9962(3)
N15_8 N 0.5548(4) 0.6875(6) 0.9640(3)
N19_8 N 0.5759(5) 0.7629(6) 0.9309(4)
N20_8 N 0.5742(11) 0.7928(15) 0.8774(6)
H2_8 H 0.5821 0.8110 0.8590
N22_8 N 0.4984(4) 0.9224(6) 0.9227(4)
N23_8 N 0.4583(4) 0.9168(6) 0.8736(4)
H3_8 H 0.4428 0.9214 0.8581
O19_8 O 0.6099(4) 0.8995(5) 0.9793(3)
O21_8 O 0.5395(3) 0.6232(5) 0.9873(3)
O22_8 O 0.5723(5) 0.6706(7) 0.8919(3)
O23_8 O 0.5110(5) 0.6496(7) 0.8690(4)
O26_8 O 0.6007(4) 0.9485(5) 0.8857(3)
O27_8 O 0.5681(5) 0.8893(7) 0.8521(4)
C18_8 C 0.5886(6) 0.9157(8) 0.9787(5)
C19_8 C 0.5076(5) 0.8637(7) 0.9138(4)
H17_8 H 0.5001 0.8417 0.8948
H18_8 H 0.4947 0.8512 0.9387
C20_8 C 0.5406(10) 0.7620(13) 0.8810(7)
H19_8 H 0.5181 0.7552 0.8647
C28_8 C 0.4646(6) 0.9512(8) 0.9947(4)
H26_8 H 0.4468 0.9315 0.9767
C30_8 C 0.6215(6) 0.8307(8) 0.9991(5)
H28_8 H 0.6015 0.8319 0.9839
C36_8 C 0.5590(5) 0.6616(7) 0.9858(5)
C37_8 C 0.5050(5) 0.6995(8) 0.9274(6)
H32_8 H 0.4821 0.6878 0.9090
H33_8 H 0.4956 0.7047 0.9522
C41_8 C 0.4911(4) 0.8903(6) 0.9001(6)
C42_8 C 0.4776(5) 0.9385(7) 0.9040(5)
H36_8 H 0.4775 0.9623 0.9119
C43_8 C 0.4660(5) 0.8854(8) 0.8700(6)
H37_8 H 0.4561 0.8650 0.8508
C44_8 C 0.5536(5) 0.8864(8) 0.9190(5)
H38_8 H 0.5625 0.8663 0.9244
C45_8 C 0.5748(5) 0.9099(6) 0.8833(5)
C46_8 C 0.5221(4) 0.6681(6) 0.9340(5)
H39_8 H 0.4998 0.6422 0.9447
C47_8 C 0.5355(6) 0.6599(11) 0.8970(6)
C48_8 C 0.5402(6) 0.7395(9) 0.9108(6)
C49_8 C 0.5966(8) 0.7923(10) 0.9086(7)
H40_8 H 0.6242 0.8118 0.9128
H69_8 H 0.705555 0.953153 0.97681
H76_8 H 0.605724 0.600231 0.97022
C12_9 C 0.5134(7) 0.0005(6) 0.1531(4)
H13_9 H 0.5279 0.0204 0.1341
C25_9 C 0.4497(6) 0.0095(4) 0.1624(4)
H23_9 H 0.4471 0.0207 0.1873
H24_9 H 0.4629 0.0322 0.1439
H75_9 H 0.431911 0.035038 0.00224043
O4_9 O 0.4044(5) 0.0117(4) 0.9982(3)
H76_9 H 0.399769 0.0054928 0.97022
Cu6_9 Cu 0.05480(7) 0.59064(5) 0.96802(5)
Cu7_9 Cu 0.25521(8) 0.84826(6) 0.97609(5)
N9_9 N 0.0866(6) 0.6499(4) 0.9531(4)
N10_9 N 0.0342(5) 0.5378(3) 0.9959(3)
N13_9 N 0.2007(5) 0.8276(4) 0.9962(3)
N15_9 N 0.3125(6) 0.8672(4) 0.9640(3)
N19_9 N 0.2371(6) 0.8129(4) 0.9309(4)
N20_9 N 0.2072(15) 0.7813(10) 0.8774(6)
H2_9 H 0.1890 0.7710 0.8590
N22_9 N 0.0776(6) 0.5759(4) 0.9227(4)
N23_9 N 0.0832(6) 0.5414(5) 0.8736(4)
H3_9 H 0.0786 0.5213 0.8581
O19_9 O 0.1005(5) 0.7103(3) 0.9793(3)
O21_9 O 0.3768(5) 0.9162(4) 0.9873(3)
O22_9 O 0.3294(7) 0.9016(5) 0.8919(3)
O23_9 O 0.3504(7) 0.8613(5) 0.8690(4)
O26_9 O 0.0515(5) 0.6521(3) 0.8857(3)
O27_9 O 0.1107(7) 0.6787(5) 0.8521(4)
C18_9 C 0.0843(8) 0.6728(5) 0.9787(5)
C19_9 C 0.1363(7) 0.6438(5) 0.9138(4)
H17_9 H 0.1583 0.6583 0.8948
H18_9 H 0.1488 0.6434 0.9387
C20_9 C 0.2380(13) 0.7785(8) 0.8810(7)
H19_9 H 0.2448 0.7628 0.8647
C28_9 C 0.0488(8) 0.5133(5) 0.9947(4)
H26_9 H 0.0685 0.5152 0.9767
C30_9 C 0.1693(8) 0.7907(5) 0.9991(5)
H28_9 H 0.1681 0.7695 0.9839
C36_9 C 0.3384(7) 0.8973(5) 0.9858(5)
C37_9 C 0.3005(8) 0.8054(6) 0.9274(6)
H32_9 H 0.3122 0.7942 0.9090
H33_9 H 0.2953 0.7908 0.9522
C41_9 C 0.1097(6) 0.6007(5) 0.9001(6)
C42_9 C 0.0615(7) 0.5390(5) 0.9040(5)
H36_9 H 0.0377 0.5151 0.9119
C43_9 C 0.1146(8) 0.5805(6) 0.8700(6)
H37_9 H 0.1350 0.5910 0.8508
C44_9 C 0.1136(8) 0.6671(6) 0.9190(5)
H38_9 H 0.1337 0.6961 0.9244
C45_9 C 0.0901(6) 0.6648(4) 0.8833(5)
C46_9 C 0.3319(6) 0.8539(5) 0.9340(5)
H39_9 H 0.3578 0.8575 0.9447
C47_9 C 0.3401(11) 0.8755(9) 0.8970(6)
C48_9 C 0.2605(9) 0.8006(7) 0.9108(6)
C49_9 C 0.2077(10) 0.8042(6) 0.9086(7)
H40_9 H 0.1882 0.8123 0.9128
H69_9 H 0.0468469 0.752402 0.97681
O2_9 O 0.9658(6) 0.5894(5) 0.1876(4)
H14_9 H 0.9895 0.6020 0.0409
C15_9 C 0.9818(7) 0.5450(5) 0.0324(5)
H15_9 H 0.9649 0.5319 0.0554
H16_9 H 0.9637 0.5406 0.0103
H42_9 H 0.9879 0.4779 0.0624
H73_9 H 0.9685 0.615092 0.197357
H74_9 H 0.944758 0.578155 0.167199
N27 N 0.7810(4) 0.2058(5) 0.7741(4)
H45 H 0.8078 0.2153 0.7703
H46 H 0.7678 0.1783 0.7754
H47 H 0.7774 0.2158 0.7967
C57 C 0.7660(6) 0.2174(7) 0.7443(5)
H48 H 0.7644 0.2412 0.7520
H49 H 0.7390 0.1954 0.7377
H50 H 0.7838 0.2240 0.7219
N27_2 N 0.7942(5) 0.5752(6) 0.7741(4)
H45_2 H 0.7847 0.5925 0.7703
H46_2 H 0.8217 0.5895 0.7754
H47_2 H 0.7842 0.5616 0.7967
C57_2 C 0.7826(7) 0.5486(9) 0.7443(5)
H48_2 H 0.7588 0.5232 0.7520
H49_2 H 0.8046 0.5436 0.7377
H50_2 H 0.7760 0.5598 0.7219
N27_3 N 0.4248(6) 0.2190(4) 0.7741(4)
H45_3 H 0.4075 0.1922 0.7703
H46_3 H 0.4105 0.2322 0.7754
H47_3 H 0.4384 0.2226 0.7967
C57_3 C 0.4514(9) 0.2340(6) 0.7443(5)
H48_3 H 0.4768 0.2356 0.7520
H49_3 H 0.4564 0.2610 0.7377
H50_3 H 0.4402 0.2162 0.7219
N27_4 N 0.4477(4) 0.5391(5) 0.1074(4)
H45_4 H 0.4745 0.5486 0.1036
H46_4 H 0.4345 0.5116 0.1087
H47_4 H 0.4441 0.5491 0.1300
C57_4 C 0.4327(6) 0.5507(7) 0.0776(5)
H48_4 H 0.4311 0.5745 0.0853
H49_4 H 0.4057 0.5287 0.0710
H50_4 H 0.4505 0.5573 0.0552
N27_5 N 0.4609(5) 0.9085(6) 0.1074(4)
H45_5 H 0.4514 0.9258 0.1036
H46_5 H 0.4884 0.9228 0.1087
H47_5 H 0.4509 0.8949 0.1300
C57_5 C 0.4493(7) 0.8819(9) 0.0776(5)
H48_5 H 0.4255 0.8565 0.0853
H49_5 H 0.4713 0.8769 0.0710
H50_5 H 0.4427 0.8931 0.0552
N27_6 N 0.0915(6) 0.5523(4) 0.1074(4)
H45_6 H 0.0742 0.5255 0.1036
H46_6 H 0.0772 0.5655 0.1087
H47_6 H 0.1051 0.5559 0.1300
C57_6 C 0.1181(9) 0.5673(6) 0.0776(5)
H48_6 H 0.1435 0.5689 0.0853
H49_6 H 0.1231 0.5943 0.0710
H50_6 H 0.1069 0.5495 0.0552
N27_7 N 0.1143(4) 0.8725(5) 0.4408(4)
H45_7 H 0.1411 0.8820 0.4370
H46_7 H 0.1011 0.8450 0.4421
H47_7 H 0.1107 0.8825 0.4634
C57_7 C 0.0993(6) 0.8841(7) 0.4110(5)
H48_7 H 0.0977 0.9079 0.4187
H49_7 H 0.0723 0.8621 0.4044
H50_7 H 0.1171 0.8907 0.3886
N27_8 N 0.1275(5) 0.2419(6) 0.4408(4)
H45_8 H 0.1180 0.2592 0.4370
H46_8 H 0.1550 0.2562 0.4421
H47_8 H 0.1175 0.2283 0.4634
C57_8 C 0.1159(7) 0.2153(9) 0.4110(5)
H48_8 H 0.0921 0.1899 0.4187
H49_8 H 0.1379 0.2103 0.4044
H50_8 H 0.1093 0.2265 0.3886
N27_9 N 0.7581(6) 0.8857(4) 0.4408(4)
H45_9 H 0.7408 0.8589 0.4370
H46_9 H 0.7438 0.8989 0.4421
H47_9 H 0.7717 0.8893 0.4634
C57_9 C 0.7847(9) 0.9007(6) 0.4110(5)
H48_9 H 0.8101 0.9023 0.4187
H49_9 H 0.7897 0.9277 0.4044
H50_9 H 0.7735 0.8829 0.3886
N28 N 0.5525(4) 0.0924(4) 0.7487(4)
H51 H 0.5544 0.1065 0.7269
H52 H 0.5262 0.0741 0.7535
H53 H 0.5666 0.0793 0.7454
C58 C 0.5688(7) 0.1193(9) 0.7803(6)
H54 H 0.5477 0.1126 0.7997
H55 H 0.5790 0.1470 0.7713
H56 H 0.5909 0.1170 0.7918
N28_2 N 0.9076(4) 0.4601(6) 0.7487(4)
H51_2 H 0.8935 0.4479 0.7269
H52_2 H 0.9259 0.4521 0.7535
H53_2 H 0.9207 0.4873 0.7454
C58_2 C 0.8807(9) 0.4495(11) 0.7803(6)
H54_2 H 0.8874 0.4351 0.7997
H55_2 H 0.8530 0.4320 0.7713
H56_2 H 0.8830 0.4739 0.7918
N28_3 N 0.5399(6) 0.4475(4) 0.7487(4)
H51_3 H 0.5521 0.4456 0.7269
H52_3 H 0.5479 0.4738 0.7535
H53_3 H 0.5127 0.4334 0.7454
C58_3 C 0.5505(11) 0.4312(7) 0.7803(6)
H54_3 H 0.5649 0.4523 0.7997
H55_3 H 0.5680 0.4210 0.7713
H56_3 H 0.5261 0.4091 0.7918
N28_4 N 0.2192(4) 0.4257(4) 0.0820(4)
H51_4 H 0.2211 0.4398 0.0602
H52_4 H 0.1929 0.4074 0.0868
H53_4 H 0.2333 0.4126 0.0787
C58_4 C 0.2355(7) 0.4526(9) 0.1136(6)
H54_4 H 0.2144 0.4459 0.1330
H55_4 H 0.2457 0.4803 0.1046
H56_4 H 0.2576 0.4503 0.1251
N28_5 N 0.5743(4) 0.7934(6) 0.0820(4)
H51_5 H 0.5602 0.7812 0.0602
H52_5 H 0.5926 0.7854 0.0868
H53_5 H 0.5874 0.8206 0.0787
C58_5 C 0.5474(9) 0.7828(11) 0.1136(6)
H54_5 H 0.5541 0.7684 0.1330
H55_5 H 0.5197 0.7653 0.1046
H56_5 H 0.5497 0.8072 0.1251
N28_6 N 0.2066(6) 0.7808(4) 0.0820(4)
H51_6 H 0.2188 0.7789 0.0602
H52_6 H 0.2146 0.8071 0.0868
H53_6 H 0.1794 0.7667 0.0787
C58_6 C 0.2172(11) 0.7645(7) 0.1136(6)
H54_6 H 0.2316 0.7856 0.1330
H55_6 H 0.2347 0.7543 0.1046
H56_6 H 0.1928 0.7424 0.1251
N28_7 N 0.8858(4) 0.7591(4) 0.4154(4)
H51_7 H 0.8877 0.7732 0.3936
H52_7 H 0.8595 0.7408 0.4202
H53_7 H 0.8999 0.7460 0.4121
C58_7 C 0.9021(7) 0.7860(9) 0.4470(6)
H54_7 H 0.8810 0.7793 0.4664
H55_7 H 0.9123 0.8137 0.4380
H56_7 H 0.9242 0.7837 0.4585
N28_8 N 0.2409(4) 0.1268(6) 0.4154(4)
H51_8 H 0.2268 0.1146 0.3936
H52_8 H 0.2592 0.1188 0.4202
H53_8 H 0.2540 0.1540 0.4121
C58_8 C 0.2140(9) 0.1162(11) 0.4470(6)
H54_8 H 0.2207 0.1018 0.4664
H55_8 H 0.1863 0.0987 0.4380
H56_8 H 0.2163 0.1406 0.4585
N28_9 N 0.8732(6) 0.1142(4) 0.4154(4)
H51_9 H 0.8854 0.1123 0.3936
H52_9 H 0.8812 0.1405 0.4202
H53_9 H 0.8460 0.1001 0.4121
C58_9 C 0.8838(11) 0.0979(7) 0.4470(6)
H54_9 H 0.8982 0.1190 0.4664
H55_9 H 0.9013 0.0877 0.4380
H56_9 H 0.8594 0.0758 0.4585
N29 N 0.6688(7) 0.2582(7) 0.7261(7)
H57 H 0.6598 0.2722 0.7403
H58 H 0.6509 0.2446 0.7069
H59 H 0.6933 0.2755 0.7159
C59 C 0.6724(19) 0.2290(16) 0.7522(12)
H60 H 0.6937 0.2435 0.7710
H61 H 0.6791 0.2116 0.7363
H62 H 0.6467 0.2120 0.7652
N29_2 N 0.7418(7) 0.4106(10) 0.7261(7)
H57_2 H 0.7278 0.3876 0.7403
H58_2 H 0.7554 0.4063 0.7069
H59_2 H 0.7245 0.4178 0.7159
C59_2 C 0.7710(16) 0.4434(25) 0.7522(12)
H60_2 H 0.7565 0.4502 0.7710
H61_2 H 0.7884 0.4675 0.7363
H62_2 H 0.7880 0.4347 0.7652
N29_3 N 0.5894(10) 0.3312(7) 0.7261(7)
H57_3 H 0.6124 0.3402 0.7403
H58_3 H 0.5937 0.3491 0.7069
H59_3 H 0.5822 0.3067 0.7159
C59_3 C 0.5566(25) 0.3276(19) 0.7522(12)
H60_3 H 0.5498 0.3063 0.7710
H61_3 H 0.5325 0.3209 0.7363
H62_3 H 0.5653 0.3533 0.7652
N29_4 N 0.3355(7) 0.5915(7) 0.0594(7)
H57_4 H 0.3265 0.6055 0.0736
H58_4 H 0.3176 0.5779 0.0402
H59_4 H 0.3600 0.6088 0.0492
C59_4 C 0.3391(19) 0.5623(16) 0.0855(12)
H60_4 H 0.3604 0.5768 0.1043
H61_4 H 0.3458 0.5449 0.0696
H62_4 H 0.3134 0.5453 0.0985
N29_5 N 0.4085(7) 0.7439(10) 0.0594(7)
H57_5 H 0.3945 0.7209 0.0736
H58_5 H 0.4221 0.7396 0.0402
H59_5 H 0.3912 0.7511 0.0492
C59_5 C 0.4377(16) 0.7767(25) 0.0855(12)
H60_5 H 0.4232 0.7835 0.1043
H61_5 H 0.4551 0.8008 0.0696
H62_5 H 0.4547 0.7680 0.0985
N29_6 N 0.2561(10) 0.6645(7) 0.0594(7)
H57_6 H 0.2791 0.6735 0.0736
H58_6 H 0.2604 0.6824 0.0402
H59_6 H 0.2489 0.6400 0.0492
C59_6 C 0.2233(25) 0.6609(19) 0.0855(12)
H60_6 H 0.2165 0.6396 0.1043
H61_6 H 0.1992 0.6542 0.0696
H62_6 H 0.2320 0.6866 0.0985
N29_7 N 0.0021(7) 0.9249(7) 0.3928(7)
H59_7 H 0.0266 0.9422 0.3826
C59_7 C 0.0057(19) 0.8957(16) 0.4189(12)
H60_7 H 0.0270 0.9102 0.4377
H61_7 H 0.0124 0.8783 0.4030
H57_7 H 0.9931 0.9389 0.4070
H58_7 H 0.9842 0.9113 0.3736
H62_7 H 0.9800 0.8787 0.4319
N29_8 N 0.0751(7) 0.0773(10) 0.3928(7)
H57_8 H 0.0611 0.0543 0.4070
H58_8 H 0.0887 0.0730 0.3736
H59_8 H 0.0578 0.0845 0.3826
C59_8 C 0.1043(16) 0.1101(25) 0.4189(12)
H60_8 H 0.0898 0.1169 0.4377
H61_8 H 0.1217 0.1342 0.4030
H62_8 H 0.1213 0.1014 0.4319
H57_9 H 0.9457 0.0069 0.4070
H58_9 H 0.9270 0.0158 0.3736
H62_9 H 0.8986 0.0200 0.4319
N29_9 N 0.9227(10) 0.9979(7) 0.3928(7)
H59_9 H 0.9155 0.9734 0.3826
C59_9 C 0.8899(25) 0.9943(19) 0.4189(12)
H60_9 H 0.8831 0.9730 0.4377
H61_9 H 0.8658 0.9876 0.4030
N30 N 0.7480(16) 0.1947(17) 0.4242(17)
H63 H 0.7409 0.1709 0.4365
H64 H 0.7423 0.1915 0.3997
H65 H 0.7375 0.2079 0.4370
C60 C 0.7939(15) 0.2199(15) 0.4285(14)
H66 H 0.8040 0.2498 0.4245
H67 H 0.8088 0.2129 0.4097
H68 H 0.8039 0.2182 0.4548
N30_2 N 0.8053(17) 0.5533(23) 0.4242(17)
H63_2 H 0.8291 0.5700 0.4365
H64_2 H 0.8085 0.5508 0.3997
H65_2 H 0.7921 0.5296 0.4370
C60_2 C 0.7801(15) 0.5740(21) 0.4285(14)
H66_2 H 0.7502 0.5542 0.4245
H67_2 H 0.7871 0.5959 0.4097
H68_2 H 0.7818 0.5857 0.4548
N30_3 N 0.4467(23) 0.2520(16) 0.4242(17)
H63_3 H 0.4300 0.2591 0.4365
H64_3 H 0.4492 0.2577 0.3997
H65_3 H 0.4704 0.2625 0.4370
C60_3 C 0.4260(21) 0.2061(15) 0.4285(14)
H66_3 H 0.4458 0.1960 0.4245
H67_3 H 0.4041 0.1912 0.4097
H68_3 H 0.4143 0.1961 0.4548
N30_4 N 0.4147(16) 0.5280(17) 0.7575(17)
H63_4 H 0.4076 0.5042 0.7698
H64_4 H 0.4090 0.5248 0.7330
H65_4 H 0.4042 0.5412 0.7703
C60_4 C 0.4606(15) 0.5532(15) 0.7618(14)
H66_4 H 0.4707 0.5831 0.7578
H67_4 H 0.4755 0.5462 0.7430
H68_4 H 0.4706 0.5515 0.7881
N30_5 N 0.4720(17) 0.8866(23) 0.7575(17)
H63_5 H 0.4958 0.9033 0.7698
H64_5 H 0.4752 0.8841 0.7330
H65_5 H 0.4588 0.8629 0.7703
C60_5 C 0.4468(15) 0.9073(21) 0.7618(14)
H66_5 H 0.4169 0.8875 0.7578
H67_5 H 0.4538 0.9292 0.7430
H68_5 H 0.4485 0.9190 0.7881
N30_6 N 0.1134(23) 0.5853(16) 0.7575(17)
H63_6 H 0.0967 0.5924 0.7698
H64_6 H 0.1159 0.5910 0.7330
H65_6 H 0.1371 0.5958 0.7703
C60_6 C 0.0927(21) 0.5394(15) 0.7618(14)
H66_6 H 0.1125 0.5293 0.7578
H67_6 H 0.0708 0.5245 0.7430
H68_6 H 0.0810 0.5294 0.7881
N30_7 N 0.0813(16) 0.8614(17) 0.0909(17)
H63_7 H 0.0742 0.8376 0.1032
H64_7 H 0.0756 0.8582 0.0664
H65_7 H 0.0708 0.8746 0.1037
C60_7 C 0.1272(15) 0.8866(15) 0.0952(14)
H66_7 H 0.1373 0.9165 0.0912
H67_7 H 0.1421 0.8796 0.0764
H68_7 H 0.1372 0.8849 0.1215
N30_8 N 0.1386(17) 0.2200(23) 0.0909(17)
H63_8 H 0.1624 0.2367 0.1032
H64_8 H 0.1418 0.2175 0.0664
H65_8 H 0.1254 0.1963 0.1037
C60_8 C 0.1134(15) 0.2407(21) 0.0952(14)
H66_8 H 0.0835 0.2209 0.0912
H67_8 H 0.1204 0.2626 0.0764
H68_8 H 0.1151 0.2524 0.1215
N30_9 N 0.7800(23) 0.9187(16) 0.0909(17)
H63_9 H 0.7633 0.9258 0.1032
H64_9 H 0.7825 0.9244 0.0664
H65_9 H 0.8037 0.9292 0.1037
C60_9 C 0.7593(21) 0.8728(15) 0.0952(14)
H66_9 H 0.7791 0.8627 0.0912
H67_9 H 0.7374 0.8579 0.0764
H68_9 H 0.7476 0.8628 0.1215
loop_
_geom_bond_atom_site_label_1
_geom_bond_atom_site_label_2
_geom_bond_site_symmetry_1
_geom_bond_site_symmetry_2
Cu1 N1 1_555 1_555
Cu2 O2 1_555 1_555
Cu4 N6 1_555 1_555
Cu6 O1 1_555 1_555
Cu7 N13 1_555 1_555
Cu8 O4 1_555 1_555
O1 Cu9 1_555 1_555
N1 C1 1_555 1_555
N2 Cu1 1_555 1_555
N3 Cu1 1_555 1_555
N4 Cu3 1_555 1_555
N5 C12 1_555 1_555
N6 C21 1_555 1_555
N7 Cu4 1_555 1_555
N8 Cu6 1_555 1_555
N9 Cu6 1_555 1_555
N10 Cu6 1_555 1_555
N11 Cu4 1_555 1_555
N12 Cu5 1_555 1_555
N13 C30 1_555 1_555
N14 Cu7 1_555 1_555
N15 Cu7 1_555 1_555
N16 C28 1_555 1_555
N17 Cu1 1_555 1_555
N18 H1 1_555 1_555
N19 Cu7 1_555 1_555
N20 H2 1_555 1_555
N21 Cu4 1_555 1_555
N22 Cu6 1_555 1_555
N23 H3 1_555 1_555
O6 Cu2 1_555 1_555
O7 Cu2 1_555 1_555
O8 Cu2 1_555 1_555
O9 C13 1_555 1_555
O10 C7 1_555 1_555
O11 Cu5 1_555 1_555
O12 Cu3 1_555 1_555
O13 Cu3 1_555 1_555
O14 Cu3 1_555 1_555
O15 Cu3 1_555 1_555
O16 Cu8 1_555 1_555
O17 Cu8 1_555 1_555
O18 Cu5 1_555 1_555
O19 Cu5 1_555 1_555
O20 Cu8 1_555 1_555
O21 Cu8 1_555 1_555
O22 C47 1_555 1_555
O23 C47 1_555 1_555
O24 C4 1_555 1_555
O26 C45 1_555 1_555
O27 C45 1_555 1_555
O28 C51 1_555 1_555
O29 C51 1_555 1_555
C1 O6 1_555 1_555
C2 N2 1_555 1_555
C3 N1 1_555 1_555
H5 C3 1_555 1_555
C4 C3 1_555 1_555
C5 C3 1_555 1_555
H6 C5 1_555 1_555
H7 C5 1_555 1_555
C6 N2 1_555 1_555
C7 O11 1_555 1_555
C9 N3 1_555 1_555
C10 N4 1_555 1_555
C11 N3 1_555 1_555
H12 C11 1_555 1_555
C12 H13 1_555 1_555
C13 O8 1_555 1_555
C14 N8 1_555 1_555
H14 C14 1_555 1_555
C15 C14 1_555 1_555
H15 C15 1_555 1_555
H16 C15 1_555 1_555
C16 N10 1_555 1_555
C17 N8 1_555 1_555
C18 N9 1_555 1_555
C19 H17 1_555 1_555
H18 C19 1_555 1_555
C20 N20 1_555 1_555
H19 C20 1_555 1_555
C21 O14 1_555 1_555
C22 N7 1_555 1_555
C23 H20 1_555 1_555
H21 C23 1_555 1_555
C24 N7 1_555 1_555
H22 C24 1_555 1_555
C25 C24 1_555 1_555
H23 C25 1_555 1_555
H24 C25 1_555 1_555
C26 N11 1_555 1_555
C27 N5 1_555 1_555
H25 C27 1_555 1_555
C28 N10 1_555 1_555
H26 C28 1_555 1_555
C30 N12 1_555 1_555
H28 C30 1_555 1_555
C31 N13 1_555 1_555
C33 N14 1_555 1_555
H31 C33 1_555 1_555
C34 O12 1_555 1_555
C35 N14 1_555 1_555
C36 N15 1_555 1_555
C37 H32 1_555 1_555
H33 C37 1_555 1_555
C38 N17 1_555 1_555
C39 N17 1_555 1_555
H34 C39 1_555 1_555
C40 N18 1_555 1_555
C41 N22 1_555 1_555
C42 N22 1_555 1_555
H36 C42 1_555 1_555
C43 N23 1_555 1_555
H37 C43 1_555 1_555
C44 N9 1_555 1_555
H38 C44 1_555 1_555
C45 C44 1_555 1_555
C46 N15 1_555 1_555
H39 C46 1_555 1_555
C47 C46 1_555 1_555
C48 N19 1_555 1_555
C49 N19 1_555 1_555
H40 C49 1_555 1_555
C50 N6 1_555 1_555
H41 C50 1_555 1_555
C51 C50 1_555 1_555
C52 N16 1_555 1_555
H42 C52 1_555 1_555
C53 O16 1_555 1_555
C54 N24 1_555 1_555
H43 C54 1_555 1_555
C55 N21 1_555 1_555
C56 N21 1_555 1_555
H44 C56 1_555 1_555
Cu10 N5 1_555 1_555
Cu11 N16 1_555 1_555
O30 Cu1 1_555 1_555
N25 Cu2 1_555 1_555
N26 Cu8 1_555 1_555
N4 C11 1_555 1_555
N11 C27 1_555 1_555
N18 C39 1_555 1_555
N20 C49 1_555 1_555
N23 C42 1_555 1_555
N24 C56 1_555 1_555
O7 C2 1_555 1_555
O13 C34 1_555 1_555
O15 C22 1_555 1_555
O17 C53 1_555 1_555
O18 C17 1_555 1_555
O19 C18 1_555 1_555
O20 C35 1_555 1_555
O21 C36 1_555 1_555
C1 C2 1_555 1_555
C5 C38 1_555 1_555
C6 C7 1_555 1_555
C9 C10 1_555 1_555
C12 C26 1_555 1_555
C13 C14 1_555 1_555
C15 C16 1_555 1_555
C16 C52 1_555 1_555
C17 C18 1_555 1_555
C19 C41 1_555 1_555
C19 C44 1_555 1_555
C20 C48 1_555 1_555
C21 C22 1_555 1_555
C23 C50 1_555 1_555
C23 C55 1_555 1_555
C24 C53 1_555 1_555
C25 C26 1_555 1_555
C33 C34 1_555 1_555
C35 C36 1_555 1_555
C37 C46 1_555 1_555
C37 C48 1_555 1_555
C38 C40 1_555 1_555
C41 C43 1_555 1_555
C54 C55 1_555 1_555
O2 H73 1_555 1_555
O2 H74 1_555 1_555
O4 H75 1_555 1_555
O4 H76 1_555 1_555
Cu1_2 N1_2 1_555 1_555
Cu2_2 O2_2 1_555 1_555
Cu4_2 N6_2 1_555 1_555
Cu6_2 O1_2 1_555 1_555
Cu7_2 N13_2 1_555 1_555
Cu11 O4_2 1_555 1_555
O1_2 Cu9_2 1_555 1_555
N1_2 C1_2 1_555 1_555
N2_2 Cu1_2 1_555 1_555
N3_2 Cu1_2 1_555 1_555
N4_2 Cu3_2 1_555 1_555
N25 C12_2 1_555 1_555
N6_2 C21_2 1_555 1_555
N7_2 Cu4_2 1_555 1_555
N8_2 Cu6_2 1_555 1_555
N9_2 Cu6_2 1_555 1_555
N10_2 Cu6_2 1_555 1_555
N11_2 Cu4_2 1_555 1_555
N12_2 Cu5_2 1_555 1_555
N13_2 C30_2 1_555 1_555
N14_2 Cu7_2 1_555 1_555
N15_2 Cu7_2 1_555 1_555
N16_2 C28_2 1_555 1_555
N17_2 Cu1_2 1_555 1_555
N18_2 H1_2 1_555 1_555
N19_2 Cu7_2 1_555 1_555
N20_2 H2_2 1_555 1_555
N21_2 Cu4_2 1_555 1_555
N22_2 Cu6_2 1_555 1_555
N23_2 H3_2 1_555 1_555
O6_2 Cu2_2 1_555 1_555
O7_2 Cu2_2 1_555 1_555
O8_2 Cu2_2 1_555 1_555
O9_2 C13_2 1_555 1_555
O10_2 C7_2 1_555 1_555
O11_2 Cu5_2 1_555 1_555
O12_2 Cu3_2 1_555 1_555
O13_2 Cu3_2 1_555 1_555
O14_2 Cu3_2 1_555 1_555
O15_2 Cu3_2 1_555 1_555
O16_2 Cu11 1_555 1_555
O17_2 Cu11 1_555 1_555
O18_2 Cu5_2 1_555 1_555
O19_2 Cu5_2 1_555 1_555
O20_2 Cu11 1_555 1_555
O21_2 Cu11 1_555 1_555
O22_2 C47_2 1_555 1_555
O23_2 C47_2 1_555 1_555
O24_2 C4_2 1_555 1_555
O26_2 C45_2 1_555 1_555
O27_2 C45_2 1_555 1_555
O28_2 C51_2 1_555 1_555
O29_2 C51_2 1_555 1_555
C1_2 O6_2 1_555 1_555
C2_2 N2_2 1_555 1_555
C3_2 N1_2 1_555 1_555
H5_2 C3_2 1_555 1_555
C4_2 C3_2 1_555 1_555
C5_2 C3_2 1_555 1_555
H6_2 C5_2 1_555 1_555
H7_2 C5_2 1_555 1_555
C6_2 N2_2 1_555 1_555
C7_2 O11_2 1_555 1_555
C9_2 N3_2 1_555 1_555
C10_2 N4_2 1_555 1_555
C11_2 N3_2 1_555 1_555
H12_2 C11_2 1_555 1_555
C12_2 H13_2 1_555 1_555
C13_2 O8_2 1_555 1_555
C14_2 N8_2 1_555 1_555
H14_2 C14_2 1_555 1_555
C15_2 C14_2 1_555 1_555
H15_2 C15_2 1_555 1_555
H16_2 C15_2 1_555 1_555
C16_2 N10_2 1_555 1_555
C17_2 N8_2 1_555 1_555
C18_2 N9_2 1_555 1_555
C19_2 H17_2 1_555 1_555
H18_2 C19_2 1_555 1_555
C20_2 N20_2 1_555 1_555
H19_2 C20_2 1_555 1_555
C21_2 O14_2 1_555 1_555
C22_2 N7_2 1_555 1_555
C23_2 H20_2 1_555 1_555
H21_2 C23_2 1_555 1_555
C24_2 N7_2 1_555 1_555
H22_2 C24_2 1_555 1_555
C25_2 C24_2 1_555 1_555
H23_2 C25_2 1_555 1_555
H24_2 C25_2 1_555 1_555
C26_2 N11_2 1_555 1_555
C27_2 N25 1_555 1_555
H25_2 C27_2 1_555 1_555
C28_2 N10_2 1_555 1_555
H26_2 C28_2 1_555 1_555
C30_2 N12_2 1_555 1_555
H28_2 C30_2 1_555 1_555
C31_2 N13_2 1_555 1_555
C33_2 N14_2 1_555 1_555
H31_2 C33_2 1_555 1_555
C34_2 O12_2 1_555 1_555
C35_2 N14_2 1_555 1_555
C36_2 N15_2 1_555 1_555
C37_2 H32_2 1_555 1_555
H33_2 C37_2 1_555 1_555
C38_2 N17_2 1_555 1_555
C39_2 N17_2 1_555 1_555
H34_2 C39_2 1_555 1_555
C40_2 N18_2 1_555 1_555
C41_2 N22_2 1_555 1_555
C42_2 N22_2 1_555 1_555
H36_2 C42_2 1_555 1_555
C43_2 N23_2 1_555 1_555
H37_2 C43_2 1_555 1_555
C44_2 N9_2 1_555 1_555
H38_2 C44_2 1_555 1_555
C45_2 C44_2 1_555 1_555
C46_2 N15_2 1_555 1_555
H39_2 C46_2 1_555 1_555
C47_2 C46_2 1_555 1_555
C48_2 N19_2 1_555 1_555
C49_2 N19_2 1_555 1_555
H40_2 C49_2 1_555 1_555
C50_2 N6_2 1_555 1_555
H41_2 C50_2 1_555 1_555
C51_2 C50_2 1_555 1_555
C52_2 N16_2 1_555 1_555
H42_2 C52_2 1_555 1_555
C53_2 O16_2 1_555 1_555
C54_2 N24_2 1_555 1_555
H43_2 C54_2 1_555 1_555
C55_2 N21_2 1_555 1_555
C56_2 N21_2 1_555 1_555
H44_2 C56_2 1_555 1_555
Cu11_2 N16_2 1_555 1_555
O30_2 Cu1_2 1_555 1_555
N25_2 Cu2_2 1_555 1_555
N4_2 C11_2 1_555 1_555
N11_2 C27_2 1_555 1_555
N18_2 C39_2 1_555 1_555
N20_2 C49_2 1_555 1_555
N23_2 C42_2 1_555 1_555
N24_2 C56_2 1_555 1_555
O7_2 C2_2 1_555 1_555
O13_2 C34_2 1_555 1_555
O15_2 C22_2 1_555 1_555
O17_2 C53_2 1_555 1_555
O18_2 C17_2 1_555 1_555
O19_2 C18_2 1_555 1_555
O20_2 C35_2 1_555 1_555
O21_2 C36_2 1_555 1_555
C1_2 C2_2 1_555 1_555
C5_2 C38_2 1_555 1_555
C6_2 C7_2 1_555 1_555
C9_2 C10_2 1_555 1_555
C12_2 C26_2 1_555 1_555
C13_2 C14_2 1_555 1_555
C15_2 C16_2 1_555 1_555
C16_2 C52_2 1_555 1_555
C17_2 C18_2 1_555 1_555
C19_2 C41_2 1_555 1_555
C19_2 C44_2 1_555 1_555
C20_2 C48_2 1_555 1_555
C21_2 C22_2 1_555 1_555
C23_2 C50_2 1_555 1_555
C23_2 C55_2 1_555 1_555
C24_2 C53_2 1_555 1_555
C25_2 C26_2 1_555 1_555
C33_2 C34_2 1_555 1_555
C35_2 C36_2 1_555 1_555
C37_2 C46_2 1_555 1_555
C37_2 C48_2 1_555 1_555
C38_2 C40_2 1_555 1_555
C41_2 C43_2 1_555 1_555
C54_2 C55_2 1_555 1_555
O2_2 H73_2 1_555 1_555
O2_2 H74_2 1_555 1_555
O4_2 H75_2 1_555 1_555
O4_2 H76_2 1_555 1_555
Cu1_3 N1_3 1_555 1_555
Cu10 O2_3 1_555 1_555
Cu3_3 O5 1_555 1_555
Cu4_3 N6_3 1_555 1_555
Cu5_3 O3 1_555 1_555
Cu6_3 O1_3 1_555 1_555
Cu7_3 N13_3 1_555 1_555
Cu11_2 O4_3 1_555 1_555
O1_3 Cu9_3 1_555 1_555
N1_3 C1_3 1_555 1_555
N2_3 Cu1_3 1_555 1_555
N3_3 Cu1_3 1_555 1_555
N4_3 Cu3_3 1_555 1_555
N25_2 C12_3 1_555 1_555
N6_3 C21_3 1_555 1_555
N7_3 Cu4_3 1_555 1_555
N8_3 Cu6_3 1_555 1_555
N9_3 Cu6_3 1_555 1_555
N10_3 Cu6_3 1_555 1_555
N11_3 Cu4_3 1_555 1_555
N12_3 Cu5_3 1_555 1_555
N13_3 C30_3 1_555 1_555
N14_3 Cu7_3 1_555 1_555
N15_3 Cu7_3 1_555 1_555
N26 C28_3 1_555 1_555
N17_3 Cu1_3 1_555 1_555
N18_3 H1_3 1_555 1_555
N19_3 Cu7_3 1_555 1_555
N20_3 H2_3 1_555 1_555
N21_3 Cu4_3 1_555 1_555
N22_3 Cu6_3 1_555 1_555
N23_3 H3_3 1_555 1_555
O6_3 Cu10 1_555 1_555
O7_3 Cu10 1_555 1_555
O8_3 Cu10 1_555 1_555
O9_3 C13_3 1_555 1_555
O10_3 C7_3 1_555 1_555
O11_3 Cu5_3 1_555 1_555
O12_3 Cu3_3 1_555 1_555
O13_3 Cu3_3 1_555 1_555
O14_3 Cu3_3 1_555 1_555
O15_3 Cu3_3 1_555 1_555
O16_3 Cu11_2 1_555 1_555
O17_3 Cu11_2 1_555 1_555
O18_3 Cu5_3 1_555 1_555
O19_3 Cu5_3 1_555 1_555
O20_3 Cu11_2 1_555 1_555
O21_3 Cu11_2 1_555 1_555
O22_3 C47_3 1_555 1_555
O23_3 C47_3 1_555 1_555
O24_3 C4_3 1_555 1_555
O26_3 C45_3 1_555 1_555
O27_3 C45_3 1_555 1_555
O28_3 C51_3 1_555 1_555
O29_3 C51_3 1_555 1_555
C1_3 O6_3 1_555 1_555
C2_3 N2_3 1_555 1_555
C3_3 N1_3 1_555 1_555
H5_3 C3_3 1_555 1_555
C4_3 C3_3 1_555 1_555
C5_3 C3_3 1_555 1_555
H6_3 C5_3 1_555 1_555
H7_3 C5_3 1_555 1_555
C6_3 N2_3 1_555 1_555
H8 C6_3 1_555 1_555
C7_3 O11_3 1_555 1_555
C8 C6_3 1_555 1_555
H9 C8 1_555 1_555
H10 C8 1_555 1_555
C9_3 N3_3 1_555 1_555
C10_3 N4_3 1_555 1_555
H11 C10_3 1_555 1_555
C11_3 N3_3 1_555 1_555
H12_3 C11_3 1_555 1_555
C12_3 H13_3 1_555 1_555
C13_3 O8_3 1_555 1_555
C14_3 N8_3 1_555 1_555
H14_3 C14_3 1_555 1_555
C15_3 C14_3 1_555 1_555
H15_3 C15_3 1_555 1_555
H16_3 C15_3 1_555 1_555
C16_3 N10_3 1_555 1_555
C17_3 N8_3 1_555 1_555
C18_3 N9_3 1_555 1_555
C19_3 H17_3 1_555 1_555
H18_3 C19_3 1_555 1_555
C20_3 N20_3 1_555 1_555
H19_3 C20_3 1_555 1_555
C21_3 O14_3 1_555 1_555
C22_3 N7_3 1_555 1_555
C23_3 H20_3 1_555 1_555
H21_3 C23_3 1_555 1_555
C24_3 N7_3 1_555 1_555
H22_3 C24_3 1_555 1_555
C25_3 C24_3 1_555 1_555
H23_3 C25_3 1_555 1_555
H24_3 C25_3 1_555 1_555
C26_3 N11_3 1_555 1_555
C27_3 N25_2 1_555 1_555
H25_3 C27_3 1_555 1_555
C28_3 N10_3 1_555 1_555
H26_3 C28_3 1_555 1_555
C29 N12_3 1_555 1_555
H27 C29 1_555 1_555
C30_3 N12_3 1_555 1_555
H28_3 C30_3 1_555 1_555
C31_3 N13_3 1_555 1_555
C32 C31_3 1_555 1_555
H29 C32 1_555 1_555
H30 C32 1_555 1_555
C33_3 N14_3 1_555 1_555
H31_3 C33_3 1_555 1_555
C34_3 O12_3 1_555 1_555
C35_3 N14_3 1_555 1_555
C36_3 N15_3 1_555 1_555
C37_3 H32_3 1_555 1_555
H33_3 C37_3 1_555 1_555
C38_3 N17_3 1_555 1_555
C39_3 N17_3 1_555 1_555
H34_3 C39_3 1_555 1_555
C40_3 N18_3 1_555 1_555
C41_3 N22_3 1_555 1_555
C42_3 N22_3 1_555 1_555
H36_3 C42_3 1_555 1_555
C43_3 N23_3 1_555 1_555
H37_3 C43_3 1_555 1_555
C44_3 N9_3 1_555 1_555
H38_3 C44_3 1_555 1_555
C45_3 C44_3 1_555 1_555
C46_3 N15_3 1_555 1_555
H39_3 C46_3 1_555 1_555
C47_3 C46_3 1_555 1_555
C48_3 N19_3 1_555 1_555
C49_3 N19_3 1_555 1_555
H40_3 C49_3 1_555 1_555
C50_3 N6_3 1_555 1_555
H41_3 C50_3 1_555 1_555
C51_3 C50_3 1_555 1_555
C52_3 N26 1_555 1_555
H42_3 C52_3 1_555 1_555
C53_3 O16_3 1_555 1_555
C54_3 N24_3 1_555 1_555
H43_3 C54_3 1_555 1_555
C55_3 N21_3 1_555 1_555
C56_3 N21_3 1_555 1_555
H44_3 C56_3 1_555 1_555
O30_3 Cu1_3 1_555 1_555
N4_3 C11_3 1_555 1_555
N11_3 C27_3 1_555 1_555
N18_3 C39_3 1_555 1_555
N20_3 C49_3 1_555 1_555
N23_3 C42_3 1_555 1_555
N24_3 C56_3 1_555 1_555
O7_3 C2_3 1_555 1_555
O13_3 C34_3 1_555 1_555
O15_3 C22_3 1_555 1_555
O17_3 C53_3 1_555 1_555
O18_3 C17_3 1_555 1_555
O19_3 C18_3 1_555 1_555
O20_3 C35_3 1_555 1_555
O21_3 C36_3 1_555 1_555
C1_3 C2_3 1_555 1_555
C5_3 C38_3 1_555 1_555
C6_3 C7_3 1_555 1_555
C8 C9_3 1_555 1_555
C9_3 C10_3 1_555 1_555
C12_3 C26_3 1_555 1_555
C13_3 C14_3 1_555 1_555
C15_3 C16_3 1_555 1_555
C16_3 C52_3 1_555 1_555
C17_3 C18_3 1_555 1_555
C19_3 C41_3 1_555 1_555
C19_3 C44_3 1_555 1_555
C20_3 C48_3 1_555 1_555
C21_3 C22_3 1_555 1_555
C23_3 C50_3 1_555 1_555
C23_3 C55_3 1_555 1_555
C24_3 C53_3 1_555 1_555
C25_3 C26_3 1_555 1_555
C29 C31_3 1_555 1_555
C32 C33_3 1_555 1_555
C33_3 C34_3 1_555 1_555
C35_3 C36_3 1_555 1_555
C37_3 C46_3 1_555 1_555
C37_3 C48_3 1_555 1_555
C38_3 C40_3 1_555 1_555
C41_3 C43_3 1_555 1_555
C54_3 C55_3 1_555 1_555
O3 H69 1_555 1_555
O3 H70 1_555 1_555
O5 H71 1_555 1_555
O5 H72 1_555 1_555
O2_3 H73_3 1_555 1_555
O2_3 H74_3 1_555 1_555
O4_3 H75_3 1_555 1_555
O4_3 H76_3 1_555 1_555
Cu1_4 N1_4 1_555 1_555
Cu2_3 O2_4 1_555 1_555
Cu3_4 O5_2 1_555 1_555
Cu4_4 N6_4 1_555 1_555
Cu5_4 O3_2 1_555 1_555
N1_4 C1_4 1_555 1_555
N2_4 Cu1_4 1_555 1_555
N3_4 Cu1_4 1_555 1_555
N4_4 Cu3_4 1_555 1_555
N6_4 C21_4 1_555 1_555
N7_4 Cu4_4 1_555 1_555
N11_4 Cu4_4 1_555 1_555
N12_4 Cu5_4 1_555 1_555
N17_4 Cu1_4 1_555 1_555
N18_4 H1_4 1_555 1_555
N21_4 Cu4_4 1_555 1_555
N24_4 H4_2 1_555 1_555
O6_4 Cu2_3 1_555 1_555
O7_4 Cu2_3 1_555 1_555
O8_4 Cu2_3 1_555 1_555
O9_4 C13_4 1_555 1_555
O10_4 C7_4 1_555 1_555
O11_4 Cu5_4 1_555 1_555
O12_4 Cu3_4 1_555 1_555
O13_4 Cu3_4 1_555 1_555
O14_4 Cu3_4 1_555 1_555
O15_4 Cu3_4 1_555 1_555
O16_4 Cu8_2 1_555 1_555
O17_4 Cu8_2 1_555 1_555
O18_4 Cu5_4 1_555 1_555
O20_4 Cu8_2 1_555 1_555
O24_4 C4_4 1_555 1_555
O25_2 C4_4 1_555 1_555
O28_4 C51_4 1_555 1_555
O29_4 C51_4 1_555 1_555
C1_4 O6_4 1_555 1_555
C2_4 N2_4 1_555 1_555
C3_4 N1_4 1_555 1_555
H5_4 C3_4 1_555 1_555
C4_4 C3_4 1_555 1_555
C5_4 C3_4 1_555 1_555
H6_4 C5_4 1_555 1_555
H7_4 C5_4 1_555 1_555
C6_4 N2_4 1_555 1_555
H8_2 C6_4 1_555 1_555
C7_4 O11_4 1_555 1_555
C8_2 C6_4 1_555 1_555
H9_2 C8_2 1_555 1_555
H10_2 C8_2 1_555 1_555
C9_4 N3_4 1_555 1_555
C10_4 N4_4 1_555 1_555
H11_2 C10_4 1_555 1_555
C11_4 N3_4 1_555 1_555
H12_4 C11_4 1_555 1_555
C13_4 O8_4 1_555 1_555
C14_4 N8_4 1_555 1_555
H14_4 C14_4 1_555 1_555
C15_4 C14_4 1_555 1_555
H15_4 C15_4 1_555 1_555
H16_4 C15_4 1_555 1_555
C17_4 N8_4 1_555 1_555
C21_4 O14_4 1_555 1_555
C22_4 N7_4 1_555 1_555
C23_4 H20_4 1_555 1_555
H21_4 C23_4 1_555 1_555
C24_4 N7_4 1_555 1_555
H22_4 C24_4 1_555 1_555
C26_4 N11_4 1_555 1_555
C27_4 N5_2 1_555 1_555
H25_4 C27_4 1_555 1_555
C29_2 N12_4 1_555 1_555
H27_2 C29_2 1_555 1_555
C32_2 C31_4 1_555 1_555
H29_2 C32_2 1_555 1_555
H30_2 C32_2 1_555 1_555
C33_4 N14_4 1_555 1_555
H31_4 C33_4 1_555 1_555
C34_4 O12_4 1_555 1_555
C35_4 N14_4 1_555 1_555
C38_4 N17_4 1_555 1_555
C39_4 N17_4 1_555 1_555
H34_4 C39_4 1_555 1_555
C40_4 N18_4 1_555 1_555
H35_2 C40_4 1_555 1_555
C50_4 N6_4 1_555 1_555
H41_4 C50_4 1_555 1_555
C51_4 C50_4 1_555 1_555
C52_4 N16_3 1_555 1_555
H42_4 C52_4 1_555 1_555
C53_4 O16_4 1_555 1_555
C54_4 N24_4 1_555 1_555
H43_4 C54_4 1_555 1_555
C55_4 N21_4 1_555 1_555
C56_4 N21_4 1_555 1_555
H44_4 C56_4 1_555 1_555
Cu10_2 N5_2 1_555 1_555
Cu11_3 N16_3 1_555 1_555
O30_4 Cu1_4 1_555 1_555
N25_3 Cu2_3 1_555 1_555
N26_2 Cu8_2 1_555 1_555
N4_4 C11_4 1_555 1_555
N11_4 C27_4 1_555 1_555
N18_4 C39_4 1_555 1_555
N24_4 C56_4 1_555 1_555
O7_4 C2_4 1_555 1_555
O13_4 C34_4 1_555 1_555
O15_4 C22_4 1_555 1_555
O17_4 C53_4 1_555 1_555
O18_4 C17_4 1_555 1_555
O20_4 C35_4 1_555 1_555
C1_4 C2_4 1_555 1_555
C5_4 C38_4 1_555 1_555
C6_4 C7_4 1_555 1_555
C8_2 C9_4 1_555 1_555
C9_4 C10_4 1_555 1_555
C13_4 C14_4 1_555 1_555
C15_4 C16_4 1_555 1_555
C16_4 C52_4 1_555 1_555
C21_4 C22_4 1_555 1_555
C23_4 C50_4 1_555 1_555
C23_4 C55_4 1_555 1_555
C24_4 C53_4 1_555 1_555
C29_2 C31_4 1_555 1_555
C32_2 C33_4 1_555 1_555
C33_4 C34_4 1_555 1_555
C38_4 C40_4 1_555 1_555
C54_4 C55_4 1_555 1_555
O3_2 H70_2 1_555 1_555
O5_2 H71_2 1_555 1_555
O5_2 H72_2 1_555 1_555
O2_4 H73_4 1_555 1_555
O2_4 H74_4 1_555 1_555
Cu6_4 O30_3 1_555 1_555
Cu7_4 N13_4 1_555 1_555
N9_4 Cu6_4 1_555 1_555
N10_4 Cu6_4 1_555 1_555
N13_4 C30_4 1_555 1_555
N15_4 Cu7_4 1_555 1_555
N19_4 Cu7_4 1_555 1_555
N20_4 H2_4 1_555 1_555
N22_4 Cu6_4 1_555 1_555
N23_4 H3_4 1_555 1_555
O22_4 C47_4 1_555 1_555
O23_4 C47_4 1_555 1_555
O26_4 C45_4 1_555 1_555
O27_4 C45_4 1_555 1_555
C18_4 N9_4 1_555 1_555
C19_4 H17_4 1_555 1_555
H18_4 C19_4 1_555 1_555
C20_4 N20_4 1_555 1_555
H19_4 C20_4 1_555 1_555
C28_4 N10_4 1_555 1_555
H26_4 C28_4 1_555 1_555
H28_4 C30_4 1_555 1_555
C36_4 N15_4 1_555 1_555
C37_4 H32_4 1_555 1_555
H33_4 C37_4 1_555 1_555
C41_4 N22_4 1_555 1_555
C42_4 N22_4 1_555 1_555
H36_4 C42_4 1_555 1_555
C43_4 N23_4 1_555 1_555
H37_4 C43_4 1_555 1_555
C44_4 N9_4 1_555 1_555
H38_4 C44_4 1_555 1_555
C45_4 C44_4 1_555 1_555
C46_4 N15_4 1_555 1_555
H39_4 C46_4 1_555 1_555
C47_4 C46_4 1_555 1_555
C48_4 N19_4 1_555 1_555
C49_4 N19_4 1_555 1_555
H40_4 C49_4 1_555 1_555
N20_4 C49_4 1_555 1_555
N23_4 C42_4 1_555 1_555
O19_4 C18_4 1_555 1_555
O21_4 C36_4 1_555 1_555
C19_4 C41_4 1_555 1_555
C19_4 C44_4 1_555 1_555
C20_4 C48_4 1_555 1_555
C37_4 C46_4 1_555 1_555
C37_4 C48_4 1_555 1_555
C41_4 C43_4 1_555 1_555
Cu1_5 N1_5 1_555 1_555
Cu3_5 O5_3 1_555 1_555
Cu4_5 N6_5 1_555 1_555
Cu5_5 O3_3 1_555 1_555
N1_5 C1_5 1_555 1_555
N2_5 Cu1_5 1_555 1_555
N3_5 Cu1_5 1_555 1_555
N4_5 Cu3_5 1_555 1_555
N25_3 C12_4 1_555 1_555
N6_5 C21_5 1_555 1_555
N7_5 Cu4_5 1_555 1_555
N11_5 Cu4_5 1_555 1_555
N12_5 Cu5_5 1_555 1_555
N17_5 Cu1_5 1_555 1_555
N18_5 H1_5 1_555 1_555
N21_5 Cu4_5 1_555 1_555
N24_5 H4_3 1_555 1_555
O6_5 Cu2_4 1_555 1_555
O7_5 Cu2_4 1_555 1_555
O8_5 Cu2_4 1_555 1_555
O9_5 C13_5 1_555 1_555
O10_5 C7_5 1_555 1_555
O11_5 Cu5_5 1_555 1_555
O12_5 Cu3_5 1_555 1_555
O13_5 Cu3_5 1_555 1_555
O14_5 Cu3_5 1_555 1_555
O15_5 Cu3_5 1_555 1_555
O16_5 Cu11_3 1_555 1_555
O17_5 Cu11_3 1_555 1_555
O18_5 Cu5_5 1_555 1_555
O20_5 Cu11_3 1_555 1_555
O24_5 C4_5 1_555 1_555
O25_3 C4_5 1_555 1_555
O28_5 C51_5 1_555 1_555
O29_5 C51_5 1_555 1_555
C1_5 O6_5 1_555 1_555
C2_5 N2_5 1_555 1_555
C3_5 N1_5 1_555 1_555
H5_5 C3_5 1_555 1_555
C4_5 C3_5 1_555 1_555
C5_5 C3_5 1_555 1_555
H6_5 C5_5 1_555 1_555
H7_5 C5_5 1_555 1_555
C6_5 N2_5 1_555 1_555
H8_3 C6_5 1_555 1_555
C7_5 O11_5 1_555 1_555
C8_3 C6_5 1_555 1_555
H9_3 C8_3 1_555 1_555
H10_3 C8_3 1_555 1_555
C9_5 N3_5 1_555 1_555
C10_5 N4_5 1_555 1_555
H11_3 C10_5 1_555 1_555
C11_5 N3_5 1_555 1_555
H12_5 C11_5 1_555 1_555
C12_4 H13_4 1_555 1_555
C13_5 O8_5 1_555 1_555
C14_5 N8_5 1_555 1_555
C17_5 N8_5 1_555 1_555
C21_5 O14_5 1_555 1_555
C22_5 N7_5 1_555 1_555
C23_5 H20_5 1_555 1_555
H21_5 C23_5 1_555 1_555
C24_5 N7_5 1_555 1_555
H22_5 C24_5 1_555 1_555
C25_4 C24_5 1_555 1_555
H23_4 C25_4 1_555 1_555
H24_4 C25_4 1_555 1_555
C26_5 N11_5 1_555 1_555
C27_5 N25_3 1_555 1_555
H25_5 C27_5 1_555 1_555
C29_3 N12_5 1_555 1_555
H27_3 C29_3 1_555 1_555
C32_3 C31_5 1_555 1_555
H29_3 C32_3 1_555 1_555
H30_3 C32_3 1_555 1_555
C33_5 N14_5 1_555 1_555
H31_5 C33_5 1_555 1_555
C34_5 O12_5 1_555 1_555
C35_5 N14_5 1_555 1_555
C38_5 N17_5 1_555 1_555
C39_5 N17_5 1_555 1_555
H34_5 C39_5 1_555 1_555
C40_5 N18_5 1_555 1_555
H35_3 C40_5 1_555 1_555
C50_5 N6_5 1_555 1_555
H41_5 C50_5 1_555 1_555
C51_5 C50_5 1_555 1_555
C52_5 N16_4 1_555 1_555
C53_5 O16_5 1_555 1_555
C54_5 N24_5 1_555 1_555
H43_5 C54_5 1_555 1_555
C55_5 N21_5 1_555 1_555
C56_5 N21_5 1_555 1_555
H44_5 C56_5 1_555 1_555
Cu11_4 N16_4 1_555 1_555
O30_5 Cu1_5 1_555 1_555
N25_4 Cu2_4 1_555 1_555
N4_5 C11_5 1_555 1_555
N11_5 C27_5 1_555 1_555
N18_5 C39_5 1_555 1_555
N24_5 C56_5 1_555 1_555
O7_5 C2_5 1_555 1_555
O13_5 C34_5 1_555 1_555
O15_5 C22_5 1_555 1_555
O17_5 C53_5 1_555 1_555
O18_5 C17_5 1_555 1_555
O20_5 C35_5 1_555 1_555
C1_5 C2_5 1_555 1_555
C5_5 C38_5 1_555 1_555
C6_5 C7_5 1_555 1_555
C8_3 C9_5 1_555 1_555
C9_5 C10_5 1_555 1_555
C12_4 C26_5 1_555 1_555
C13_5 C14_5 1_555 1_555
C16_5 C52_5 1_555 1_555
C21_5 C22_5 1_555 1_555
C23_5 C50_5 1_555 1_555
C23_5 C55_5 1_555 1_555
C24_5 C53_5 1_555 1_555
C25_4 C26_5 1_555 1_555
C29_3 C31_5 1_555 1_555
C32_3 C33_5 1_555 1_555
C33_5 C34_5 1_555 1_555
C38_5 C40_5 1_555 1_555
C54_5 C55_5 1_555 1_555
O3_3 H70_3 1_555 1_555
O5_3 H71_3 1_555 1_555
O5_3 H72_3 1_555 1_555
Cu1_6 N1_6 1_555 1_555
Cu3_6 O5_4 1_555 1_555
Cu4_6 N6_6 1_555 1_555
Cu5_6 O3_4 1_555 1_555
N1_6 C1_6 1_555 1_555
N2_6 Cu1_6 1_555 1_555
N3_6 Cu1_6 1_555 1_555
N4_6 Cu3_6 1_555 1_555
N6_6 C21_6 1_555 1_555
N7_6 Cu4_6 1_555 1_555
N11_6 Cu4_6 1_555 1_555
N12_6 Cu5_6 1_555 1_555
N17_6 Cu1_6 1_555 1_555
N18_6 H1_6 1_555 1_555
N21_6 Cu4_6 1_555 1_555
N24_6 H4_4 1_555 1_555
O6_6 Cu10_2 1_555 1_555
O7_6 Cu10_2 1_555 1_555
O8_6 Cu10_2 1_555 1_555
O9_6 C13_6 1_555 1_555
O10_6 C7_6 1_555 1_555
O11_6 Cu5_6 1_555 1_555
O12_6 Cu3_6 1_555 1_555
O13_6 Cu3_6 1_555 1_555
O14_6 Cu3_6 1_555 1_555
O15_6 Cu3_6 1_555 1_555
O16_6 Cu11_4 1_555 1_555
O17_6 Cu11_4 1_555 1_555
O18_6 Cu5_6 1_555 1_555
O20_6 Cu11_4 1_555 1_555
O24_6 C4_6 1_555 1_555
O25_4 C4_6 1_555 1_555
O28_6 C51_6 1_555 1_555
O29_6 C51_6 1_555 1_555
C1_6 O6_6 1_555 1_555
C2_6 N2_6 1_555 1_555
C3_6 N1_6 1_555 1_555
H5_6 C3_6 1_555 1_555
C4_6 C3_6 1_555 1_555
C5_6 C3_6 1_555 1_555
H6_6 C5_6 1_555 1_555
H7_6 C5_6 1_555 1_555
C6_6 N2_6 1_555 1_555
H8_4 C6_6 1_555 1_555
C7_6 O11_6 1_555 1_555
C8_4 C6_6 1_555 1_555
H9_4 C8_4 1_555 1_555
H10_4 C8_4 1_555 1_555
C9_6 N3_6 1_555 1_555
C10_6 N4_6 1_555 1_555
H11_4 C10_6 1_555 1_555
C11_6 N3_6 1_555 1_555
H12_6 C11_6 1_555 1_555
C13_6 O8_6 1_555 1_555
C14_6 N8_6 1_555 1_555
C17_6 N8_6 1_555 1_555
C21_6 O14_6 1_555 1_555
C22_6 N7_6 1_555 1_555
C23_6 H20_6 1_555 1_555
H21_6 C23_6 1_555 1_555
C24_6 N7_6 1_555 1_555
H22_6 C24_6 1_555 1_555
C26_6 N11_6 1_555 1_555
C27_6 N25_4 1_555 1_555
H25_6 C27_6 1_555 1_555
C29_4 N12_6 1_555 1_555
H27_4 C29_4 1_555 1_555
C32_4 C31_6 1_555 1_555
H29_4 C32_4 1_555 1_555
H30_4 C32_4 1_555 1_555
C33_6 N14_6 1_555 1_555
H31_6 C33_6 1_555 1_555
C34_6 O12_6 1_555 1_555
C35_6 N14_6 1_555 1_555
C38_6 N17_6 1_555 1_555
C39_6 N17_6 1_555 1_555
H34_6 C39_6 1_555 1_555
C40_6 N18_6 1_555 1_555
H35_4 C40_6 1_555 1_555
C50_6 N6_6 1_555 1_555
H41_6 C50_6 1_555 1_555
C51_6 C50_6 1_555 1_555
C52_6 N26_2 1_555 1_555
C53_6 O16_6 1_555 1_555
C54_6 N24_6 1_555 1_555
H43_6 C54_6 1_555 1_555
C55_6 N21_6 1_555 1_555
C56_6 N21_6 1_555 1_555
H44_6 C56_6 1_555 1_555
O30_6 Cu1_6 1_555 1_555
N4_6 C11_6 1_555 1_555
N11_6 C27_6 1_555 1_555
N18_6 C39_6 1_555 1_555
N24_6 C56_6 1_555 1_555
O7_6 C2_6 1_555 1_555
O13_6 C34_6 1_555 1_555
O15_6 C22_6 1_555 1_555
O17_6 C53_6 1_555 1_555
O18_6 C17_6 1_555 1_555
O20_6 C35_6 1_555 1_555
C1_6 C2_6 1_555 1_555
C5_6 C38_6 1_555 1_555
C6_6 C7_6 1_555 1_555
C8_4 C9_6 1_555 1_555
C9_6 C10_6 1_555 1_555
C13_6 C14_6 1_555 1_555
C16_6 C52_6 1_555 1_555
C21_6 C22_6 1_555 1_555
C23_6 C50_6 1_555 1_555
C23_6 C55_6 1_555 1_555
C24_6 C53_6 1_555 1_555
C29_4 C31_6 1_555 1_555
C32_4 C33_6 1_555 1_555
C33_6 C34_6 1_555 1_555
C38_6 C40_6 1_555 1_555
C54_6 C55_6 1_555 1_555
O3_4 H70_4 1_555 1_555
O5_4 H71_4 1_555 1_555
O5_4 H72_4 1_555 1_555
Cu2_5 O2_5 1_555 1_555
Cu6_5 O30_6 1_555 1_555
N8_7 Cu6_5 1_555 1_555
N9_5 Cu6_5 1_555 1_555
N10_5 Cu6_5 1_555 1_555
N16_5 C28_5 1_555 1_555
N22_5 Cu6_5 1_555 1_555
N23_5 H3_5 1_555 1_555
O6_7 Cu2_5 1_555 1_555
O7_7 Cu2_5 1_555 1_555
O8_7 Cu2_5 1_555 1_555
O9_7 C13_7 1_555 1_555
O26_5 C45_5 1_555 1_555
C1_7 O6_7 1_555 1_555
H5_7 C3_7 1_555 1_555
C13_7 O8_7 1_555 1_555
C14_7 N8_7 1_555 1_555
H14_5 C14_7 1_555 1_555
C15_5 C14_7 1_555 1_555
H15_5 C15_5 1_555 1_555
H16_5 C15_5 1_555 1_555
C16_7 N10_5 1_555 1_555
C17_7 N8_7 1_555 1_555
C19_5 H17_5 1_555 1_555
H18_5 C19_5 1_555 1_555
C28_5 N10_5 1_555 1_555
H26_5 C28_5 1_555 1_555
C41_5 N22_5 1_555 1_555
C42_5 N22_5 1_555 1_555
H36_5 C42_5 1_555 1_555
C43_5 N23_5 1_555 1_555
H37_5 C43_5 1_555 1_555
C52_7 N16_5 1_555 1_555
H42_5 C52_7 1_555 1_555
Cu11_5 N16_5 1_555 1_555
N25_5 Cu2_5 1_555 1_555
N23_5 C42_5 1_555 1_555
C13_7 C14_7 1_555 1_555
C15_5 C16_7 1_555 1_555
C16_7 C52_7 1_555 1_555
C19_5 C41_5 1_555 1_555
C41_5 C43_5 1_555 1_555
O2_5 H73_5 1_555 1_555
O2_5 H74_5 1_555 1_555
Cu9_2 N1_7 1_555 1_555
Cu3_7 O5_5 1_555 1_555
Cu4_7 N6_7 1_555 1_555
Cu5_7 O3_5 1_555 1_555
Cu7_5 N13_5 1_555 1_555
Cu8_3 O4_4 1_555 1_555
N2_7 Cu9_2 1_555 1_555
N3_7 Cu9_2 1_555 1_555
N4_7 Cu3_7 1_555 1_555
N5_3 C12_5 1_555 1_555
N6_7 C21_7 1_555 1_555
N7_7 Cu4_7 1_555 1_555
N11_7 Cu4_7 1_555 1_555
N12_7 Cu5_7 1_555 1_555
N13_5 C30_5 1_555 1_555
N14_7 Cu7_5 1_555 1_555
N15_5 Cu7_5 1_555 1_555
N17_7 Cu9_2 1_555 1_555
N18_7 H1_7 1_555 1_555
N19_5 Cu7_5 1_555 1_555
N20_5 H2_5 1_555 1_555
N21_7 Cu4_7 1_555 1_555
N24_7 H4_5 1_555 1_555
O10_7 C7_7 1_555 1_555
O11_7 Cu5_7 1_555 1_555
O12_7 Cu3_7 1_555 1_555
O13_7 Cu3_7 1_555 1_555
O14_7 Cu3_7 1_555 1_555
O15_7 Cu3_7 1_555 1_555
O16_7 Cu8_3 1_555 1_555
O17_7 Cu8_3 1_555 1_555
O18_7 Cu5_7 1_555 1_555
O19_5 Cu5_7 1_555 1_555
O20_7 Cu8_3 1_555 1_555
O21_5 Cu8_3 1_555 1_555
O22_5 C47_5 1_555 1_555
O23_5 C47_5 1_555 1_555
O24_7 C4_7 1_555 1_555
O28_7 C51_7 1_555 1_555
O29_7 C51_7 1_555 1_555
C2_7 N2_7 1_555 1_555
H6_7 C5_7 1_555 1_555
H7_7 C5_7 1_555 1_555
C6_7 N2_7 1_555 1_555
H8_5 C6_7 1_555 1_555
C7_7 O11_7 1_555 1_555
C8_5 C6_7 1_555 1_555
H9_5 C8_5 1_555 1_555
H10_5 C8_5 1_555 1_555
C9_7 N3_7 1_555 1_555
C10_7 N4_7 1_555 1_555
H11_5 C10_7 1_555 1_555
C11_7 N3_7 1_555 1_555
H12_7 C11_7 1_555 1_555
C12_5 H13_5 1_555 1_555
C20_5 N20_5 1_555 1_555
H19_5 C20_5 1_555 1_555
C21_7 O14_7 1_555 1_555
C22_7 N7_7 1_555 1_555
C23_7 H20_7 1_555 1_555
H21_7 C23_7 1_555 1_555
C24_7 N7_7 1_555 1_555
H22_7 C24_7 1_555 1_555
C25_5 C24_7 1_555 1_555
H23_5 C25_5 1_555 1_555
H24_5 C25_5 1_555 1_555
C26_7 N11_7 1_555 1_555
C27_7 N5_3 1_555 1_555
H25_7 C27_7 1_555 1_555
C29_5 N12_7 1_555 1_555
H27_5 C29_5 1_555 1_555
C30_5 N12_7 1_555 1_555
H28_5 C30_5 1_555 1_555
C31_7 N13_5 1_555 1_555
C32_5 C31_7 1_555 1_555
H29_5 C32_5 1_555 1_555
H30_5 C32_5 1_555 1_555
C33_7 N14_7 1_555 1_555
H31_7 C33_7 1_555 1_555
C34_7 O12_7 1_555 1_555
C35_7 N14_7 1_555 1_555
C36_5 N15_5 1_555 1_555
C37_5 H32_5 1_555 1_555
H33_5 C37_5 1_555 1_555
C38_7 N17_7 1_555 1_555
C39_7 N17_7 1_555 1_555
H34_7 C39_7 1_555 1_555
C40_7 N18_7 1_555 1_555
H35_5 C40_7 1_555 1_555
H38_5 C44_5 1_555 1_555
C46_5 N15_5 1_555 1_555
H39_5 C46_5 1_555 1_555
C47_5 C46_5 1_555 1_555
C48_5 N19_5 1_555 1_555
C49_5 N19_5 1_555 1_555
H40_5 C49_5 1_555 1_555
C50_7 N6_7 1_555 1_555
H41_7 C50_7 1_555 1_555
C51_7 C50_7 1_555 1_555
C53_7 O16_7 1_555 1_555
C54_7 N24_7 1_555 1_555
H43_7 C54_7 1_555 1_555
C55_7 N21_7 1_555 1_555
C56_7 N21_7 1_555 1_555
H44_7 C56_7 1_555 1_555
Cu10_3 N5_3 1_555 1_555
N26_3 Cu8_3 1_555 1_555
N4_7 C11_7 1_555 1_555
N11_7 C27_7 1_555 1_555
N18_7 C39_7 1_555 1_555
N20_5 C49_5 1_555 1_555
N24_7 C56_7 1_555 1_555
O13_7 C34_7 1_555 1_555
O15_7 C22_7 1_555 1_555
O17_7 C53_7 1_555 1_555
O19_5 C18_5 1_555 1_555
O20_7 C35_7 1_555 1_555
O21_5 C36_5 1_555 1_555
C5_7 C38_7 1_555 1_555
C6_7 C7_7 1_555 1_555
C8_5 C9_7 1_555 1_555
C9_7 C10_7 1_555 1_555
C12_5 C26_7 1_555 1_555
C20_5 C48_5 1_555 1_555
C21_7 C22_7 1_555 1_555
C23_7 C50_7 1_555 1_555
C23_7 C55_7 1_555 1_555
C24_7 C53_7 1_555 1_555
C25_5 C26_7 1_555 1_555
C29_5 C31_7 1_555 1_555
C32_5 C33_7 1_555 1_555
C33_7 C34_7 1_555 1_555
C35_7 C36_5 1_555 1_555
C37_5 C46_5 1_555 1_555
C37_5 C48_5 1_555 1_555
C38_7 C40_7 1_555 1_555
C54_7 C55_7 1_555 1_555
O3_5 H69_3 1_555 1_555
O3_5 H70_5 1_555 1_555
O5_5 H71_5 1_555 1_555
O5_5 H72_5 1_555 1_555
O4_4 H75_5 1_555 1_555
O4_4 H76_4 1_555 1_555
Cu9_3 N1_8 1_555 1_555
Cu2_6 O2_6 1_555 1_555
Cu3_8 O5_6 1_555 1_555
Cu5_8 O3_6 1_555 1_555
Cu6_6 O30_4 1_555 1_555
Cu7_6 N13_6 1_555 1_555
N1_8 C1_8 1_555 1_555
N2_8 Cu9_3 1_555 1_555
N3_8 Cu9_3 1_555 1_555
N4_8 Cu3_8 1_555 1_555
N8_8 Cu6_6 1_555 1_555
N9_6 Cu6_6 1_555 1_555
N10_6 Cu6_6 1_555 1_555
N12_8 Cu5_8 1_555 1_555
N13_6 C30_6 1_555 1_555
N14_8 Cu7_6 1_555 1_555
N15_6 Cu7_6 1_555 1_555
N16_6 C28_6 1_555 1_555
N17_8 Cu9_3 1_555 1_555
N18_8 H1_8 1_555 1_555
N19_6 Cu7_6 1_555 1_555
N20_6 H2_6 1_555 1_555
N22_6 Cu6_6 1_555 1_555
N23_6 H3_6 1_555 1_555
O6_8 Cu2_6 1_555 1_555
O7_8 Cu2_6 1_555 1_555
O8_8 Cu2_6 1_555 1_555
O9_8 C13_8 1_555 1_555
O10_8 C7_8 1_555 1_555
O11_8 Cu5_8 1_555 1_555
O12_8 Cu3_8 1_555 1_555
O13_8 Cu3_8 1_555 1_555
O14_8 Cu3_8 1_555 1_555
O15_8 Cu3_8 1_555 1_555
O18_8 Cu5_8 1_555 1_555
O19_6 Cu5_8 1_555 1_555
O24_8 C4_8 1_555 1_555
O25_6 C4_8 1_555 1_555
O26_6 C45_6 1_555 1_555
O27_6 C45_6 1_555 1_555
O28_8 C51_8 1_555 1_555
C1_8 O6_8 1_555 1_555
C2_8 N2_8 1_555 1_555
C3_8 N1_8 1_555 1_555
H5_8 C3_8 1_555 1_555
C4_8 C3_8 1_555 1_555
C5_8 C3_8 1_555 1_555
H6_8 C5_8 1_555 1_555
H7_8 C5_8 1_555 1_555
C6_8 N2_8 1_555 1_555
H8_6 C6_8 1_555 1_555
C7_8 O11_8 1_555 1_555
C8_6 C6_8 1_555 1_555
H9_6 C8_6 1_555 1_555
H10_6 C8_6 1_555 1_555
C9_8 N3_8 1_555 1_555
C10_8 N4_8 1_555 1_555
H11_6 C10_8 1_555 1_555
C11_8 N3_8 1_555 1_555
H12_8 C11_8 1_555 1_555
C13_8 O8_8 1_555 1_555
C14_8 N8_8 1_555 1_555
H14_6 C14_8 1_555 1_555
C15_6 C14_8 1_555 1_555
H15_6 C15_6 1_555 1_555
H16_6 C15_6 1_555 1_555
C16_8 N10_6 1_555 1_555
C17_8 N8_8 1_555 1_555
C18_6 N9_6 1_555 1_555
C19_6 H17_6 1_555 1_555
H18_6 C19_6 1_555 1_555
C20_6 N20_6 1_555 1_555
H19_6 C20_6 1_555 1_555
C21_8 O14_8 1_555 1_555
C28_6 N10_6 1_555 1_555
H26_6 C28_6 1_555 1_555
C29_6 N12_8 1_555 1_555
H27_6 C29_6 1_555 1_555
C30_6 N12_8 1_555 1_555
H28_6 C30_6 1_555 1_555
C31_8 N13_6 1_555 1_555
C32_6 C31_8 1_555 1_555
H29_6 C32_6 1_555 1_555
H30_6 C32_6 1_555 1_555
C33_8 N14_8 1_555 1_555
H31_8 C33_8 1_555 1_555
C34_8 O12_8 1_555 1_555
C35_8 N14_8 1_555 1_555
C37_6 H32_6 1_555 1_555
H33_6 C37_6 1_555 1_555
C38_8 N17_8 1_555 1_555
C39_8 N17_8 1_555 1_555
H34_8 C39_8 1_555 1_555
C40_8 N18_8 1_555 1_555
H35_6 C40_8 1_555 1_555
C41_6 N22_6 1_555 1_555
C42_6 N22_6 1_555 1_555
H36_6 C42_6 1_555 1_555
C43_6 N23_6 1_555 1_555
H37_6 C43_6 1_555 1_555
C44_6 N9_6 1_555 1_555
H38_6 C44_6 1_555 1_555
C45_6 C44_6 1_555 1_555
C46_6 N15_6 1_555 1_555
C48_6 N19_6 1_555 1_555
C49_6 N19_6 1_555 1_555
H40_6 C49_6 1_555 1_555
C52_8 N16_6 1_555 1_555
H42_6 C52_8 1_555 1_555
Cu11_6 N16_6 1_555 1_555
N25_6 Cu2_6 1_555 1_555
N4_8 C11_8 1_555 1_555
N18_8 C39_8 1_555 1_555
N20_6 C49_6 1_555 1_555
N23_6 C42_6 1_555 1_555
O7_8 C2_8 1_555 1_555
O13_8 C34_8 1_555 1_555
O18_8 C17_8 1_555 1_555
O19_6 C18_6 1_555 1_555
C1_8 C2_8 1_555 1_555
C5_8 C38_8 1_555 1_555
C6_8 C7_8 1_555 1_555
C8_6 C9_8 1_555 1_555
C9_8 C10_8 1_555 1_555
C13_8 C14_8 1_555 1_555
C15_6 C16_8 1_555 1_555
C16_8 C52_8 1_555 1_555
C17_8 C18_6 1_555 1_555
C19_6 C41_6 1_555 1_555
C19_6 C44_6 1_555 1_555
C20_6 C48_6 1_555 1_555
C29_6 C31_8 1_555 1_555
C32_6 C33_8 1_555 1_555
C33_8 C34_8 1_555 1_555
C37_6 C46_6 1_555 1_555
C37_6 C48_6 1_555 1_555
C38_8 C40_8 1_555 1_555
C41_6 C43_6 1_555 1_555
O3_6 H69_4 1_555 1_555
O3_6 H70_6 1_555 1_555
O5_6 H71_6 1_555 1_555
O5_6 H72_6 1_555 1_555
O2_6 H73_6 1_555 1_555
O2_6 H74_6 1_555 1_555
Cu4_8 N6_8 1_555 1_555
Cu11_5 O4_5 1_555 1_555
N25_5 C12_6 1_555 1_555
N7_8 Cu4_8 1_555 1_555
N11_8 Cu4_8 1_555 1_555
N21_8 Cu4_8 1_555 1_555
N24_8 H4_6 1_555 1_555
O16_8 Cu11_5 1_555 1_555
O17_8 Cu11_5 1_555 1_555
O20_8 Cu11_5 1_555 1_555
O21_6 Cu11_5 1_555 1_555
O23_6 C47_6 1_555 1_555
C12_6 H13_6 1_555 1_555
C22_8 N7_8 1_555 1_555
C23_8 H20_8 1_555 1_555
H21_8 C23_8 1_555 1_555
C24_8 N7_8 1_555 1_555
H22_8 C24_8 1_555 1_555
C25_6 C24_8 1_555 1_555
H23_6 C25_6 1_555 1_555
H24_6 C25_6 1_555 1_555
C26_8 N11_8 1_555 1_555
C27_8 N25_5 1_555 1_555
H25_8 C27_8 1_555 1_555
C50_8 N6_8 1_555 1_555
C53_8 O16_8 1_555 1_555
C54_8 N24_8 1_555 1_555
H43_8 C54_8 1_555 1_555
C55_8 N21_8 1_555 1_555
C56_8 N21_8 1_555 1_555
H44_8 C56_8 1_555 1_555
N11_8 C27_8 1_555 1_555
N24_8 C56_8 1_555 1_555
O17_8 C53_8 1_555 1_555
O21_6 C36_6 1_555 1_555
C12_6 C26_8 1_555 1_555
C23_8 C50_8 1_555 1_555
C23_8 C55_8 1_555 1_555
C24_8 C53_8 1_555 1_555
C25_6 C26_8 1_555 1_555
C54_8 C55_8 1_555 1_555
O4_5 H75_6 1_555 1_555
O4_5 H76_5 1_555 1_555
Cu4_9 N6_9 1_555 1_555
Cu11_6 O4_6 1_555 1_555
N25_6 C12_7 1_555 1_555
N7_9 Cu4_9 1_555 1_555
N11_9 Cu4_9 1_555 1_555
N21_9 Cu4_9 1_555 1_555
N24_9 H4_7 1_555 1_555
O16_9 Cu11_6 1_555 1_555
O17_9 Cu11_6 1_555 1_555
O20_9 Cu11_6 1_555 1_555
O21_7 Cu11_6 1_555 1_555
O23_7 C47_7 1_555 1_555
C12_7 H13_7 1_555 1_555
C22_9 N7_9 1_555 1_555
C23_9 H20_9 1_555 1_555
H21_9 C23_9 1_555 1_555
C24_9 N7_9 1_555 1_555
H22_9 C24_9 1_555 1_555
C25_7 C24_9 1_555 1_555
H23_7 C25_7 1_555 1_555
H24_7 C25_7 1_555 1_555
C26_9 N11_9 1_555 1_555
C27_9 N25_6 1_555 1_555
H25_9 C27_9 1_555 1_555
C50_9 N6_9 1_555 1_555
C53_9 O16_9 1_555 1_555
C54_9 N24_9 1_555 1_555
H43_9 C54_9 1_555 1_555
C55_9 N21_9 1_555 1_555
C56_9 N21_9 1_555 1_555
H44_9 C56_9 1_555 1_555
N11_9 C27_9 1_555 1_555
N24_9 C56_9 1_555 1_555
O17_9 C53_9 1_555 1_555
O21_7 C36_7 1_555 1_555
C12_7 C26_9 1_555 1_555
C23_9 C50_9 1_555 1_555
C23_9 C55_9 1_555 1_555
C24_9 C53_9 1_555 1_555
C25_7 C26_9 1_555 1_555
C54_9 C55_9 1_555 1_555
O4_6 H75_7 1_555 1_555
O4_6 H76_6 1_555 1_555
Cu9 N1_9 1_555 1_555
Cu3_9 O5_7 1_555 1_555
Cu5_9 O3_7 1_555 1_555
Cu7_7 N13_7 1_555 1_555
N2_9 Cu9 1_555 1_555
N3_9 Cu9 1_555 1_555
N4_9 Cu3_9 1_555 1_555
N12_9 Cu5_9 1_555 1_555
N13_7 C30_7 1_555 1_555
N14_9 Cu7_7 1_555 1_555
N15_7 Cu7_7 1_555 1_555
N17_9 Cu9 1_555 1_555
N18_9 H1_9 1_555 1_555
N19_7 Cu7_7 1_555 1_555
N20_7 H2_7 1_555 1_555
O10_9 C7_9 1_555 1_555
O11_9 Cu5_9 1_555 1_555
O12_9 Cu3_9 1_555 1_555
O13_9 Cu3_9 1_555 1_555
O14_9 Cu3_9 1_555 1_555
O15_9 Cu3_9 1_555 1_555
O18_9 Cu5_9 1_555 1_555
O19_7 Cu5_9 1_555 1_555
O24_9 C4_9 1_555 1_555
O28_9 C51_9 1_555 1_555
C2_9 N2_9 1_555 1_555
H6_9 C5_9 1_555 1_555
H7_9 C5_9 1_555 1_555
C6_9 N2_9 1_555 1_555
H8_7 C6_9 1_555 1_555
C7_9 O11_9 1_555 1_555
C8_7 C6_9 1_555 1_555
H9_7 C8_7 1_555 1_555
H10_7 C8_7 1_555 1_555
C9_9 N3_9 1_555 1_555
C10_9 N4_9 1_555 1_555
H11_7 C10_9 1_555 1_555
C11_9 N3_9 1_555 1_555
H12_9 C11_9 1_555 1_555
C20_7 N20_7 1_555 1_555
H19_7 C20_7 1_555 1_555
C21_9 O14_9 1_555 1_555
C29_7 N12_9 1_555 1_555
H27_7 C29_7 1_555 1_555
C30_7 N12_9 1_555 1_555
H28_7 C30_7 1_555 1_555
C31_9 N13_7 1_555 1_555
C32_7 C31_9 1_555 1_555
H29_7 C32_7 1_555 1_555
H30_7 C32_7 1_555 1_555
C33_9 N14_9 1_555 1_555
H31_9 C33_9 1_555 1_555
C34_9 O12_9 1_555 1_555
C35_9 N14_9 1_555 1_555
C37_7 H32_7 1_555 1_555
H33_7 C37_7 1_555 1_555
C38_9 N17_9 1_555 1_555
C39_9 N17_9 1_555 1_555
H34_9 C39_9 1_555 1_555
C40_9 N18_9 1_555 1_555
H35_7 C40_9 1_555 1_555
H38_7 C44_7 1_555 1_555
C46_7 N15_7 1_555 1_555
C48_7 N19_7 1_555 1_555
C49_7 N19_7 1_555 1_555
H40_7 C49_7 1_555 1_555
N4_9 C11_9 1_555 1_555
N18_9 C39_9 1_555 1_555
N20_7 C49_7 1_555 1_555
O13_9 C34_9 1_555 1_555
O19_7 C18_7 1_555 1_555
C5_9 C38_9 1_555 1_555
C6_9 C7_9 1_555 1_555
C8_7 C9_9 1_555 1_555
C9_9 C10_9 1_555 1_555
C20_7 C48_7 1_555 1_555
C29_7 C31_9 1_555 1_555
C32_7 C33_9 1_555 1_555
C33_9 C34_9 1_555 1_555
C37_7 C46_7 1_555 1_555
C37_7 C48_7 1_555 1_555
C38_9 C40_9 1_555 1_555
O3_7 H69_5 1_555 1_555
O3_7 H70_7 1_555 1_555
O5_7 H71_7 1_555 1_555
O5_7 H72_7 1_555 1_555
Cu10_3 O2_7 1_555 1_555
Cu6_7 O30_5 1_555 1_555
N8_9 Cu6_7 1_555 1_555
N9_7 Cu6_7 1_555 1_555
N10_7 Cu6_7 1_555 1_555
N26_3 C28_7 1_555 1_555
N22_7 Cu6_7 1_555 1_555
N23_7 H3_7 1_555 1_555
O6_9 Cu10_3 1_555 1_555
O7_9 Cu10_3 1_555 1_555
O8_9 Cu10_3 1_555 1_555
O9_9 C13_9 1_555 1_555
O26_7 C45_7 1_555 1_555
C1_9 O6_9 1_555 1_555
H5_9 C3_9 1_555 1_555
C13_9 O8_9 1_555 1_555
C14_9 N8_9 1_555 1_555
H14_7 C14_9 1_555 1_555
C15_7 C14_9 1_555 1_555
H15_7 C15_7 1_555 1_555
H16_7 C15_7 1_555 1_555
C16_9 N10_7 1_555 1_555
C17_9 N8_9 1_555 1_555
C19_7 H17_7 1_555 1_555
H18_7 C19_7 1_555 1_555
C28_7 N10_7 1_555 1_555
H26_7 C28_7 1_555 1_555
C41_7 N22_7 1_555 1_555
C42_7 N22_7 1_555 1_555
H36_7 C42_7 1_555 1_555
C43_7 N23_7 1_555 1_555
H37_7 C43_7 1_555 1_555
C52_9 N26_3 1_555 1_555
H42_7 C52_9 1_555 1_555
N23_7 C42_7 1_555 1_555
C13_9 C14_9 1_555 1_555
C15_7 C16_9 1_555 1_555
C16_9 C52_9 1_555 1_555
C19_7 C41_7 1_555 1_555
C41_7 C43_7 1_555 1_555
O2_7 H73_7 1_555 1_555
O2_7 H74_7 1_555 1_555
H9_8 C8_8 1_555 1_555
H10_8 C8_8 1_555 1_555
H27_8 C29_8 1_555 1_555
H29_8 C32_8 1_555 1_555
H30_8 C32_8 1_555 1_555
O3_8 H69_6 1_555 1_555
O3_8 H70_8 1_555 1_555
O5_8 H71_8 1_555 1_555
O5_8 H72_8 1_555 1_555
H9_9 C8_9 1_555 1_555
H10_9 C8_9 1_555 1_555
H27_9 C29_9 1_555 1_555
H29_9 C32_9 1_555 1_555
H30_9 C32_9 1_555 1_555
O3_9 H69_7 1_555 1_555
O3_9 H70_9 1_555 1_555
O5_9 H71_9 1_555 1_555
O5_9 H72_9 1_555 1_555
C12_8 H13_8 1_555 1_555
H23_8 C25_8 1_555 1_555
H24_8 C25_8 1_555 1_555
O4_7 H76_7 1_555 1_555
H15_8 C15_8 1_555 1_555
H16_8 C15_8 1_555 1_555
O2_8 H73_8 1_555 1_555
O2_8 H74_8 1_555 1_555
Cu7_8 N13_8 1_555 1_555
N9_8 Cu6_8 1_555 1_555
N10_8 Cu6_8 1_555 1_555
N13_8 C30_8 1_555 1_555
N15_8 Cu7_8 1_555 1_555
N19_8 Cu7_8 1_555 1_555
N20_8 H2_8 1_555 1_555
N22_8 Cu6_8 1_555 1_555
N23_8 H3_8 1_555 1_555
O22_8 C47_8 1_555 1_555
O23_8 C47_8 1_555 1_555
O26_8 C45_8 1_555 1_555
O27_8 C45_8 1_555 1_555
C18_8 N9_8 1_555 1_555
C19_8 H17_8 1_555 1_555
H18_8 C19_8 1_555 1_555
C20_8 N20_8 1_555 1_555
H19_8 C20_8 1_555 1_555
C28_8 N10_8 1_555 1_555
H26_8 C28_8 1_555 1_555
H28_8 C30_8 1_555 1_555
C36_8 N15_8 1_555 1_555
C37_8 H32_8 1_555 1_555
H33_8 C37_8 1_555 1_555
C41_8 N22_8 1_555 1_555
C42_8 N22_8 1_555 1_555
H36_8 C42_8 1_555 1_555
C43_8 N23_8 1_555 1_555
H37_8 C43_8 1_555 1_555
C44_8 N9_8 1_555 1_555
H38_8 C44_8 1_555 1_555
C45_8 C44_8 1_555 1_555
C46_8 N15_8 1_555 1_555
H39_8 C46_8 1_555 1_555
C47_8 C46_8 1_555 1_555
C48_8 N19_8 1_555 1_555
C49_8 N19_8 1_555 1_555
H40_8 C49_8 1_555 1_555
N20_8 C49_8 1_555 1_555
N23_8 C42_8 1_555 1_555
O19_8 C18_8 1_555 1_555
O21_8 C36_8 1_555 1_555
C19_8 C41_8 1_555 1_555
C19_8 C44_8 1_555 1_555
C20_8 C48_8 1_555 1_555
C37_8 C46_8 1_555 1_555
C37_8 C48_8 1_555 1_555
C41_8 C43_8 1_555 1_555
O4_8 H76_8 1_555 1_555
C12_9 H13_9 1_555 1_555
H23_9 C25_9 1_555 1_555
H24_9 C25_9 1_555 1_555
O4_9 H76_9 1_555 1_555
Cu7_9 N13_9 1_555 1_555
N9_9 Cu6_9 1_555 1_555
N10_9 Cu6_9 1_555 1_555
N13_9 C30_9 1_555 1_555
N15_9 Cu7_9 1_555 1_555
N19_9 Cu7_9 1_555 1_555
N20_9 H2_9 1_555 1_555
N22_9 Cu6_9 1_555 1_555
N23_9 H3_9 1_555 1_555
O22_9 C47_9 1_555 1_555
O23_9 C47_9 1_555 1_555
O26_9 C45_9 1_555 1_555
O27_9 C45_9 1_555 1_555
C18_9 N9_9 1_555 1_555
C19_9 H17_9 1_555 1_555
H18_9 C19_9 1_555 1_555
C20_9 N20_9 1_555 1_555
H19_9 C20_9 1_555 1_555
C28_9 N10_9 1_555 1_555
H26_9 C28_9 1_555 1_555
H28_9 C30_9 1_555 1_555
C36_9 N15_9 1_555 1_555
C37_9 H32_9 1_555 1_555
H33_9 C37_9 1_555 1_555
C41_9 N22_9 1_555 1_555
C42_9 N22_9 1_555 1_555
H36_9 C42_9 1_555 1_555
C43_9 N23_9 1_555 1_555
H37_9 C43_9 1_555 1_555
C44_9 N9_9 1_555 1_555
H38_9 C44_9 1_555 1_555
C45_9 C44_9 1_555 1_555
C46_9 N15_9 1_555 1_555
H39_9 C46_9 1_555 1_555
C47_9 C46_9 1_555 1_555
C48_9 N19_9 1_555 1_555
C49_9 N19_9 1_555 1_555
H40_9 C49_9 1_555 1_555
N20_9 C49_9 1_555 1_555
N23_9 C42_9 1_555 1_555
O19_9 C18_9 1_555 1_555
O21_9 C36_9 1_555 1_555
C19_9 C41_9 1_555 1_555
C19_9 C44_9 1_555 1_555
C20_9 C48_9 1_555 1_555
C37_9 C46_9 1_555 1_555
C37_9 C48_9 1_555 1_555
C41_9 C43_9 1_555 1_555
H15_9 C15_9 1_555 1_555
H16_9 C15_9 1_555 1_555
O2_9 H73_9 1_555 1_555
O2_9 H74_9 1_555 1_555
N27 H45 1_555 1_555
H46 N27 1_555 1_555
H47 N27 1_555 1_555
C57 N27 1_555 1_555
H48 C57 1_555 1_555
H49 C57 1_555 1_555
H50 C57 1_555 1_555
N27_2 H45_2 1_555 1_555
H46_2 N27_2 1_555 1_555
H47_2 N27_2 1_555 1_555
C57_2 N27_2 1_555 1_555
H48_2 C57_2 1_555 1_555
H49_2 C57_2 1_555 1_555
H50_2 C57_2 1_555 1_555
N27_3 H45_3 1_555 1_555
H46_3 N27_3 1_555 1_555
H47_3 N27_3 1_555 1_555
C57_3 N27_3 1_555 1_555
H48_3 C57_3 1_555 1_555
H49_3 C57_3 1_555 1_555
H50_3 C57_3 1_555 1_555
N27_4 H45_4 1_555 1_555
H46_4 N27_4 1_555 1_555
H47_4 N27_4 1_555 1_555
C57_4 N27_4 1_555 1_555
H48_4 C57_4 1_555 1_555
H49_4 C57_4 1_555 1_555
H50_4 C57_4 1_555 1_555
N27_5 H45_5 1_555 1_555
H46_5 N27_5 1_555 1_555
H47_5 N27_5 1_555 1_555
C57_5 N27_5 1_555 1_555
H48_5 C57_5 1_555 1_555
H49_5 C57_5 1_555 1_555
H50_5 C57_5 1_555 1_555
N27_6 H45_6 1_555 1_555
H46_6 N27_6 1_555 1_555
H47_6 N27_6 1_555 1_555
C57_6 N27_6 1_555 1_555
H48_6 C57_6 1_555 1_555
H49_6 C57_6 1_555 1_555
H50_6 C57_6 1_555 1_555
N27_7 H45_7 1_555 1_555
H46_7 N27_7 1_555 1_555
H47_7 N27_7 1_555 1_555
C57_7 N27_7 1_555 1_555
H48_7 C57_7 1_555 1_555
H49_7 C57_7 1_555 1_555
H50_7 C57_7 1_555 1_555
N27_8 H45_8 1_555 1_555
H46_8 N27_8 1_555 1_555
H47_8 N27_8 1_555 1_555
C57_8 N27_8 1_555 1_555
H48_8 C57_8 1_555 1_555
H49_8 C57_8 1_555 1_555
H50_8 C57_8 1_555 1_555
N27_9 H45_9 1_555 1_555
H46_9 N27_9 1_555 1_555
H47_9 N27_9 1_555 1_555
C57_9 N27_9 1_555 1_555
H48_9 C57_9 1_555 1_555
H49_9 C57_9 1_555 1_555
H50_9 C57_9 1_555 1_555
N28 H51 1_555 1_555
H52 N28 1_555 1_555
H53 N28 1_555 1_555
C58 N28 1_555 1_555
H54 C58 1_555 1_555
H55 C58 1_555 1_555
H56 C58 1_555 1_555
N28_2 H51_2 1_555 1_555
H52_2 N28_2 1_555 1_555
H53_2 N28_2 1_555 1_555
C58_2 N28_2 1_555 1_555
H54_2 C58_2 1_555 1_555
H55_2 C58_2 1_555 1_555
H56_2 C58_2 1_555 1_555
N28_3 H51_3 1_555 1_555
H52_3 N28_3 1_555 1_555
H53_3 N28_3 1_555 1_555
C58_3 N28_3 1_555 1_555
H54_3 C58_3 1_555 1_555
H55_3 C58_3 1_555 1_555
H56_3 C58_3 1_555 1_555
N28_4 H51_4 1_555 1_555
H52_4 N28_4 1_555 1_555
H53_4 N28_4 1_555 1_555
C58_4 N28_4 1_555 1_555
H54_4 C58_4 1_555 1_555
H55_4 C58_4 1_555 1_555
H56_4 C58_4 1_555 1_555
N28_5 H51_5 1_555 1_555
H52_5 N28_5 1_555 1_555
H53_5 N28_5 1_555 1_555
C58_5 N28_5 1_555 1_555
H54_5 C58_5 1_555 1_555
H55_5 C58_5 1_555 1_555
H56_5 C58_5 1_555 1_555
N28_6 H51_6 1_555 1_555
H52_6 N28_6 1_555 1_555
H53_6 N28_6 1_555 1_555
C58_6 N28_6 1_555 1_555
H54_6 C58_6 1_555 1_555
H55_6 C58_6 1_555 1_555
H56_6 C58_6 1_555 1_555
N28_7 H51_7 1_555 1_555
H52_7 N28_7 1_555 1_555
H53_7 N28_7 1_555 1_555
C58_7 N28_7 1_555 1_555
H54_7 C58_7 1_555 1_555
H55_7 C58_7 1_555 1_555
H56_7 C58_7 1_555 1_555
N28_8 H51_8 1_555 1_555
H52_8 N28_8 1_555 1_555
H53_8 N28_8 1_555 1_555
C58_8 N28_8 1_555 1_555
H54_8 C58_8 1_555 1_555
H55_8 C58_8 1_555 1_555
H56_8 C58_8 1_555 1_555
N28_9 H51_9 1_555 1_555
H52_9 N28_9 1_555 1_555
H53_9 N28_9 1_555 1_555
C58_9 N28_9 1_555 1_555
H54_9 C58_9 1_555 1_555
H55_9 C58_9 1_555 1_555
H56_9 C58_9 1_555 1_555
N29 H57 1_555 1_555
H58 N29 1_555 1_555
H59 N29 1_555 1_555
C59 N29 1_555 1_555
H60 C59 1_555 1_555
H61 C59 1_555 1_555
H62 C59 1_555 1_555
N29_2 H57_2 1_555 1_555
H58_2 N29_2 1_555 1_555
H59_2 N29_2 1_555 1_555
C59_2 N29_2 1_555 1_555
H60_2 C59_2 1_555 1_555
H61_2 C59_2 1_555 1_555
H62_2 C59_2 1_555 1_555
N29_3 H57_3 1_555 1_555
H58_3 N29_3 1_555 1_555
H59_3 N29_3 1_555 1_555
C59_3 N29_3 1_555 1_555
H60_3 C59_3 1_555 1_555
H61_3 C59_3 1_555 1_555
H62_3 C59_3 1_555 1_555
N29_4 H57_4 1_555 1_555
H58_4 N29_4 1_555 1_555
H59_4 N29_4 1_555 1_555
C59_4 N29_4 1_555 1_555
H60_4 C59_4 1_555 1_555
H61_4 C59_4 1_555 1_555
H62_4 C59_4 1_555 1_555
N29_5 H57_5 1_555 1_555
H58_5 N29_5 1_555 1_555
H59_5 N29_5 1_555 1_555
C59_5 N29_5 1_555 1_555
H60_5 C59_5 1_555 1_555
H61_5 C59_5 1_555 1_555
H62_5 C59_5 1_555 1_555
N29_6 H57_6 1_555 1_555
H58_6 N29_6 1_555 1_555
H59_6 N29_6 1_555 1_555
C59_6 N29_6 1_555 1_555
H60_6 C59_6 1_555 1_555
H61_6 C59_6 1_555 1_555
H62_6 C59_6 1_555 1_555
H59_7 N29_7 1_555 1_555
C59_7 N29_7 1_555 1_555
H60_7 C59_7 1_555 1_555
H61_7 C59_7 1_555 1_555
N29_8 H57_8 1_555 1_555
H58_8 N29_8 1_555 1_555
H59_8 N29_8 1_555 1_555
C59_8 N29_8 1_555 1_555
H60_8 C59_8 1_555 1_555
H61_8 C59_8 1_555 1_555
H62_8 C59_8 1_555 1_555
H59_9 N29_9 1_555 1_555
C59_9 N29_9 1_555 1_555
H60_9 C59_9 1_555 1_555
H61_9 C59_9 1_555 1_555
N30 H63 1_555 1_555
H64 N30 1_555 1_555
H65 N30 1_555 1_555
C60 N30 1_555 1_555
H66 C60 1_555 1_555
H67 C60 1_555 1_555
H68 C60 1_555 1_555
N30_2 H63_2 1_555 1_555
H64_2 N30_2 1_555 1_555
H65_2 N30_2 1_555 1_555
C60_2 N30_2 1_555 1_555
H66_2 C60_2 1_555 1_555
H67_2 C60_2 1_555 1_555
H68_2 C60_2 1_555 1_555
N30_3 H63_3 1_555 1_555
H64_3 N30_3 1_555 1_555
H65_3 N30_3 1_555 1_555
C60_3 N30_3 1_555 1_555
H66_3 C60_3 1_555 1_555
H67_3 C60_3 1_555 1_555
H68_3 C60_3 1_555 1_555
N30_4 H63_4 1_555 1_555
H64_4 N30_4 1_555 1_555
H65_4 N30_4 1_555 1_555
C60_4 N30_4 1_555 1_555
H66_4 C60_4 1_555 1_555
H67_4 C60_4 1_555 1_555
H68_4 C60_4 1_555 1_555
N30_5 H63_5 1_555 1_555
H64_5 N30_5 1_555 1_555
H65_5 N30_5 1_555 1_555
C60_5 N30_5 1_555 1_555
H66_5 C60_5 1_555 1_555
H67_5 C60_5 1_555 1_555
H68_5 C60_5 1_555 1_555
N30_6 H63_6 1_555 1_555
H64_6 N30_6 1_555 1_555
H65_6 N30_6 1_555 1_555
C60_6 N30_6 1_555 1_555
H66_6 C60_6 1_555 1_555
H67_6 C60_6 1_555 1_555
H68_6 C60_6 1_555 1_555
N30_7 H63_7 1_555 1_555
H64_7 N30_7 1_555 1_555
H65_7 N30_7 1_555 1_555
C60_7 N30_7 1_555 1_555
H66_7 C60_7 1_555 1_555
H67_7 C60_7 1_555 1_555
H68_7 C60_7 1_555 1_555
N30_8 H63_8 1_555 1_555
H64_8 N30_8 1_555 1_555
H65_8 N30_8 1_555 1_555
C60_8 N30_8 1_555 1_555
H66_8 C60_8 1_555 1_555
H67_8 C60_8 1_555 1_555
H68_8 C60_8 1_555 1_555
N30_9 H63_9 1_555 1_555
H64_9 N30_9 1_555 1_555
H65_9 N30_9 1_555 1_555
C60_9 N30_9 1_555 1_555
H66_9 C60_9 1_555 1_555
H67_9 C60_9 1_555 1_555
H68_9 C60_9 1_555 1_555

#END
