
###############################################################################
#
# This file contains modified crystal structure data generated from the
# MOF subset of the Cambridge Structural Database (CSD) v543 
# hosted by the Cambridge Crystallographic Data Centre (CCDC).
#
# This work is licensed under the Creative Commons
# Attribution-NonCommercial-ShareAlike 4.0 International License.
# To view a copy of this license, visit
# http://creativecommons.org/licenses/by-nc-sa/4.0/
# or send a letter to
# Creative Commons, PO Box 1866, Mountain View, CA 94042, USA.
#
# CIF created using the CSD Python API on 29 September 2022
# The structure has been converted into the P1 space group
# The structure has a 3D framework
# The original CSD entry SAYKIO is in the monoclinic crystal system
# The framework has been calculated to contain at least 10.0% void space
# The void calculation uses a probe of radius 1.32A, grid spacing 0.4
# H atom positions have been added when not included in the experimental data
#
###############################################################################

data_SAYKIO
_chemical_formula_moiety         '(C208 H208 O110 U19)n'
_symmetry_cell_setting           triclinic
_symmetry_space_group_name_H-M   'P 1'
_symmetry_Int_Tables_number      1
_space_group_name_Hall           'P 1'
loop_
_symmetry_equiv_pos_site_id
_symmetry_equiv_pos_as_xyz
1 x,y,z
_cell_length_a                   35.621(3)
_cell_length_b                   9.2925(8)
_cell_length_c                   20.4260(17)
_cell_angle_alpha                90
_cell_angle_beta                 114.6560(10)
_cell_angle_gamma                90
_cell_volume                     6144.75
loop_
_atom_site_label
_atom_site_type_symbol
_atom_site_fract_x
_atom_site_fract_y
_atom_site_fract_z
H44 H 0.347562 0.580187 0.0221052
U1 U 0.339170(12) 0.55735(5) 0.90574(2)
O1 O 0.1174(2) 0.1121(8) 0.8101(4)
O2 O 0.3053(3) 0.7649(12) 0.8289(6)
O6 O 0.2647(2) 0.5281(10) 0.8495(5)
O7 O 0.2998(2) 0.3564(10) 0.9202(5)
O12 O 0.3354(2) 0.6428(9) 0.9789(4)
O13 O 0.3419(3) 0.4765(11) 0.8338(5)
H1 H 0.1132 0.0354 0.8947
C3 C 0.0362(3) 0.0225(11) 0.7830(6)
H3 H 0.0361 0.0738 0.8243
H4 H 0.0382 0.0925 0.7494
C20 C 0.1549(3) 0.1809(11) 0.8335(6)
C21 C 0.1547(3) 0.3098(12) 0.8018(6)
H17 H 0.1298 0.3465 0.7684
C22 C 0.1901(3) 0.3869(13) 0.8178(6)
H18 H 0.1894 0.4757 0.7963
C23 C 0.2266(3) 0.3301(12) 0.8662(6)
C24 C 0.2268(3) 0.2062(15) 0.8987(7)
H19 H 0.2519 0.1705 0.9322
C25 C 0.1907(3) 0.1271(13) 0.8843(7)
H20 H 0.1912 0.0417 0.9083
C26 C 0.2651(3) 0.4107(14) 0.8785(7)
O24 O 0.3897(2) 0.4066(8) 0.9817(4)
O27 O 0.3935(2) 0.7082(9) 0.9183(4)
H41 H 0.286166 0.810975 0.846672
H42 H 0.326565 0.835607 0.830486
H43 H 0.30589 0.661252 0.967702
H45 H 0.358355 0.537207 0.815432
H46 H 0.355342 0.381013 0.848315
U3 U 0.660830(12) 0.55735(5) 0.59426(2)
O15 O 0.8826(2) 0.1121(8) 0.6899(4)
O16 O 0.6947(3) 0.7649(12) 0.6711(6)
O19 O 0.7353(2) 0.5281(10) 0.6505(5)
O20 O 0.7002(2) 0.3564(10) 0.5798(5)
O25 O 0.6103(2) 0.4066(8) 0.5183(4)
O28 O 0.6065(2) 0.7082(9) 0.5817(4)
O31 O 0.6646(2) 0.6428(9) 0.5211(4)
O32 O 0.6581(3) 0.4765(11) 0.6662(5)
H21 H 0.8868 0.0354 0.6053
C29 C 0.9638(3) 0.0225(11) 0.7170(6)
H23 H 0.9639 0.0738 0.6757
H24 H 0.9618 0.0925 0.7506
C46 C 0.8451(3) 0.1809(11) 0.6665(6)
C47 C 0.8453(3) 0.3098(12) 0.6982(6)
H37 H 0.8702 0.3465 0.7316
C48 C 0.8099(3) 0.3869(13) 0.6822(6)
H38 H 0.8106 0.4757 0.7037
C49 C 0.7734(3) 0.3301(12) 0.6338(6)
C50 C 0.7732(3) 0.2062(15) 0.6013(7)
H39 H 0.7481 0.1705 0.5678
C51 C 0.8093(3) 0.1271(13) 0.6157(7)
H40 H 0.8088 0.0417 0.5917
C52 C 0.7349(3) 0.4107(14) 0.6215(7)
H41_2 H 0.713834 0.810975 0.653328
H42_2 H 0.673435 0.835607 0.669514
H43_2 H 0.69411 0.661252 0.532298
H44_2 H 0.652438 0.580187 0.477895
H45_2 H 0.641645 0.537207 0.684568
H46_2 H 0.644658 0.381013 0.651685
U2 U 0.5000 0.5000 0.0000
O8 O 0.5498(2) 0.6624(8) 0.0071(4)
O9 O 0.6103(2) 0.5934(8) 0.0183(4)
O14 O 0.4935(2) 0.5956(10) 0.0677(4)
C19 C 0.5831(3) 0.6854(11) 0.0005(5)
U4 U 0.660830(12) 0.44265(5) 0.09426(2)
O30 O 0.5498(2) 0.3636(10) 0.0847(5)
U2_2 U 0.5000 0.5000 1.0000
O11 O 0.5498(2) 0.6364(10) 0.5847(5)
C8 C 0.5977(4) 0.9800(13) 0.6339(6)
H10 H 0.6180 0.9770 0.6165
C9 C 0.5725(3) 0.8624(12) 0.6292(5)
C10 C 0.5430(4) 0.8785(16) 0.6565(6)
H11 H 0.5261 0.7988 0.6507
C11 C 0.5350(4) 0.9890(15) 0.6895(8)
H12 H 0.5152 0.9883 0.7081
C12 C 0.5763(3) 0.7292(12) 0.5962(6)
C14 C 0.6258(3) 0.9849(11) 0.9306(6)
C15 C 0.6225(3) 0.8541(12) 0.9598(6)
H14 H 0.6431 0.7852 0.9703
C16 C 0.5874(3) 0.8256(10) 0.9737(5)
C17 C 0.5590(3) 0.9290(11) 0.9585(6)
H15 H 0.5364 0.9121 0.9689
U7 U 0.339170(12) 0.44265(5) 0.40574(2)
U8 U 0.5000 0.5000 0.5000
O21 O 0.4502(2) 0.6624(8) 0.4929(4)
O22 O 0.4502(2) 0.3376(8) 0.9929(4)
O23 O 0.3897(2) 0.5934(8) 0.4817(4)
O29 O 0.4502(2) 0.6364(10) 0.9153(5)
O33 O 0.5065(2) 0.4044(10) 0.9323(4)
C34 C 0.4023(4) 0.9800(13) 0.8661(6)
H30 H 0.3820 0.9770 0.8835
C35 C 0.4275(3) 0.8624(12) 0.8708(5)
C36 C 0.4570(4) 0.8785(16) 0.8435(6)
H31 H 0.4739 0.7988 0.8493
C37 C 0.4650(4) 0.9890(15) 0.8105(8)
H32 H 0.4848 0.9883 0.7919
C38 C 0.4237(3) 0.7292(12) 0.9038(6)
C40 C 0.3742(3) 0.9849(11) 0.5694(6)
C41 C 0.3775(3) 0.8541(12) 0.5402(6)
H34 H 0.3569 0.7852 0.5297
C42 C 0.4126(3) 0.8256(10) 0.5263(5)
C43 C 0.4410(3) 0.9290(11) 0.5415(6)
H35 H 0.4636 0.9121 0.5311
C45 C 0.4169(3) 0.6854(11) 0.4995(5)
O14_2 O 0.5065(2) 0.5956(10) 0.4323(4)
O22_2 O 0.5498(2) 0.3376(8) 0.5071(4)
O30_2 O 0.4502(2) 0.3636(10) 0.4153(5)
O33_2 O 0.4935(2) 0.4044(10) 0.5677(4)
O15_2 O 0.1174(2) 0.8879(8) 0.3101(4)
O16_2 O 0.3053(3) 0.2351(12) 0.3289(6)
O19_2 O 0.2647(2) 0.4719(10) 0.3495(5)
O20_2 O 0.2998(2) 0.6436(10) 0.4202(5)
O28_2 O 0.3935(2) 0.2918(9) 0.4183(4)
O31_2 O 0.3354(2) 0.3572(9) 0.4789(4)
O32_2 O 0.3419(3) 0.5235(11) 0.3338(5)
H21_2 H 0.1132 0.9646 0.3947
C29_2 C 0.0362(3) 0.9775(11) 0.2830(6)
H23_2 H 0.0361 0.9262 0.3243
H24_2 H 0.0382 0.9075 0.2494
C46_2 C 0.1549(3) 0.8191(11) 0.3335(6)
C47_2 C 0.1547(3) 0.6902(12) 0.3018(6)
H37_2 H 0.1298 0.6535 0.2684
C48_2 C 0.1901(3) 0.6131(13) 0.3178(6)
H38_2 H 0.1894 0.5243 0.2963
C49_2 C 0.2266(3) 0.6699(12) 0.3662(6)
C50_2 C 0.2268(3) 0.7938(15) 0.3987(7)
H39_2 H 0.2519 0.8295 0.4322
C51_2 C 0.1907(3) 0.8729(13) 0.3843(7)
H40_2 H 0.1912 0.9583 0.4083
C52_2 C 0.2651(3) 0.5893(14) 0.3785(7)
O1_2 O 0.8826(2) 0.8879(8) 0.1899(4)
O2_2 O 0.6947(3) 0.2351(12) 0.1711(6)
O6_2 O 0.7353(2) 0.4719(10) 0.1505(5)
O7_2 O 0.7002(2) 0.6436(10) 0.0798(5)
O12_2 O 0.6646(2) 0.3572(9) 0.0211(4)
O13_2 O 0.6581(3) 0.5235(11) 0.1662(5)
H1_2 H 0.8868 0.9646 0.1053
C3_2 C 0.9638(3) 0.9775(11) 0.2170(6)
H3_2 H 0.9639 0.9262 0.1757
H4_2 H 0.9618 0.9075 0.2506
C20_2 C 0.8451(3) 0.8191(11) 0.1665(6)
C21_2 C 0.8453(3) 0.6902(12) 0.1982(6)
H17_2 H 0.8702 0.6535 0.2316
C22_2 C 0.8099(3) 0.6131(13) 0.1822(6)
H18_2 H 0.8106 0.5243 0.2037
C23_2 C 0.7734(3) 0.6699(12) 0.1338(6)
C24_2 C 0.7732(3) 0.7938(15) 0.1013(7)
H19_2 H 0.7481 0.8295 0.0678
C25_2 C 0.8093(3) 0.8729(13) 0.1157(7)
H20_2 H 0.8088 0.9583 0.0917
C26_2 C 0.7349(3) 0.5893(14) 0.1215(7)
O27_2 O 0.6065(2) 0.2918(9) 0.0817(4)
H41_3 H 0.713834 0.189025 0.153328
H42_3 H 0.673435 0.164393 0.169514
H43_3 H 0.69411 0.338748 0.0322982
H45_3 H 0.641645 0.462793 0.184568
H46_3 H 0.644658 0.618987 0.151685
H41_4 H 0.286166 0.189025 0.346672
H42_4 H 0.326565 0.164393 0.330486
H43_4 H 0.30589 0.338748 0.467702
H44_3 H 0.347562 0.419813 0.522105
H45_4 H 0.358355 0.462793 0.315432
H46_4 H 0.355342 0.618987 0.348315
C8_2 C 0.4023(4) 0.0200(13) 0.3661(6)
H10_2 H 0.3820 0.0230 0.3835
C9_2 C 0.4275(3) 0.1376(12) 0.3708(5)
C10_2 C 0.4570(4) 0.1215(16) 0.3435(6)
H11_2 H 0.4739 0.2012 0.3493
C11_2 C 0.4650(4) 0.0110(15) 0.3105(8)
H12_2 H 0.4848 0.0117 0.2919
C12_2 C 0.4237(3) 0.2708(12) 0.4038(6)
C14_2 C 0.3742(3) 0.0151(11) 0.0694(6)
C15_2 C 0.3775(3) 0.1459(12) 0.0402(6)
H14_2 H 0.3569 0.2148 0.0297
C16_2 C 0.4126(3) 0.1744(10) 0.0263(5)
C17_2 C 0.4410(3) 0.0710(11) 0.0415(6)
H15_2 H 0.4636 0.0879 0.0311
C34_2 C 0.5977(4) 0.0200(13) 0.1339(6)
H30_2 H 0.6180 0.0230 0.1165
C35_2 C 0.5725(3) 0.1376(12) 0.1292(5)
C36_2 C 0.5430(4) 0.1215(16) 0.1565(6)
H31_2 H 0.5261 0.2012 0.1507
C37_2 C 0.5350(4) 0.0110(15) 0.1895(8)
H32_2 H 0.5152 0.0117 0.2081
C38_2 C 0.5763(3) 0.2708(12) 0.0962(6)
C40_2 C 0.6258(3) 0.0151(11) 0.4306(6)
C41_2 C 0.6225(3) 0.1459(12) 0.4598(6)
H34_2 H 0.6431 0.2148 0.4703
C42_2 C 0.5874(3) 0.1744(10) 0.4737(5)
C43_2 C 0.5590(3) 0.0710(11) 0.4585(6)
H35_2 H 0.5364 0.0879 0.4689
C45_2 C 0.5831(3) 0.3146(11) 0.5005(5)
C19_2 C 0.4169(3) 0.3146(11) 0.9995(5)
U2_3 U -0.0000 -0.0000 0.0000
O8_2 O 0.0498(2) 0.1624(8) 0.0071(4)
O9_2 O 0.1103(2) 0.0934(8) 0.0183(4)
C19_3 C 0.0831(3) 0.1854(11) 0.0005(5)
U2_4 U -0.0000 -0.0000 1.0000
O3 O 0.0000 0.9418(10) 0.7500
O4 O 0.0507(3) 0.7260(10) 0.7249(5)
O5 O 0.09969(19) 0.7065(7) 0.8791(4)
O10 O 0.1065(2) 0.2082(9) 0.5817(4)
O11_2 O 0.0498(2) 0.1364(10) 0.5847(5)
C1 C 0.0731(3) 0.9188(10) 0.8072(5)
C2 C 0.1134(3) 0.9993(12) 0.8502(6)
H2 H 0.1366 0.9343 0.8624
C4 C 0.0807(4) 0.8384(14) 0.7438(6)
H5 H 0.0757 0.9022 0.7034
H6 H 0.1085 0.8001 0.7610
C5 C 0.0667(3) 0.8126(11) 0.8559(6)
H7 H 0.0663 0.8616 0.8976
H8 H 0.0403 0.7649 0.8309
C6 C 0.0588(3) 0.6010(14) 0.6924(6)
C7 C 0.0898(3) 0.6133(14) 0.6690(7)
H9 H 0.1049 0.6976 0.6745
C8_3 C 0.0977(4) 0.4800(13) 0.6339(6)
H10_3 H 0.1180 0.4770 0.6165
C9_3 C 0.0725(3) 0.3624(12) 0.6292(5)
C10_3 C 0.0430(4) 0.3785(16) 0.6565(6)
H11_3 H 0.0261 0.2988 0.6507
C11_3 C 0.0350(4) 0.4890(15) 0.6895(8)
H12_3 H 0.0152 0.4883 0.7081
C12_3 C 0.0763(3) 0.2292(12) 0.5962(6)
C13 C 0.0950(3) 0.5866(11) 0.9120(6)
C14_3 C 0.1258(3) 0.4849(11) 0.9306(6)
H13 H 0.1494 0.5047 0.9233
C15_3 C 0.1225(3) 0.3541(12) 0.9598(6)
H14_3 H 0.1431 0.2852 0.9703
C16_3 C 0.0874(3) 0.3256(10) 0.9737(5)
C17_3 C 0.0590(3) 0.4290(11) 0.9585(6)
H15_3 H 0.0364 0.4121 0.9689
C18 C 0.0614(3) 0.5590(11) 0.9283(6)
H16 H 0.0408 0.6277 0.9189
U5 U 0.160830(12) 0.05735(5) 0.59426(2)
U8_2 U -0.0000 -0.0000 0.5000
U2_5 U 1.0000 -0.0000 0.0000
O14_3 O 0.9935(2) 0.0956(10) 0.0677(4)
U2_6 U 1.0000 -0.0000 1.0000
O3_2 O 1.0000 0.9418(10) 0.7500
U6 U 0.839170(12) 0.05735(5) 0.90574(2)
U8_3 U 1.0000 -0.0000 0.5000
O17 O 0.9493(3) 0.7260(10) 0.7751(5)
O18 O 0.90031(19) 0.7065(7) 0.6209(4)
O21_2 O 0.9502(2) 0.1624(8) 0.4929(4)
O23_2 O 0.8897(2) 0.0934(8) 0.4817(4)
O26 O 0.8935(2) 0.2082(9) 0.9183(4)
O29_2 O 0.9502(2) 0.1364(10) 0.9153(5)
C27 C 0.9269(3) 0.9188(10) 0.6928(5)
C28 C 0.8866(3) 0.9993(12) 0.6498(6)
H22 H 0.8634 0.9343 0.6376
C30 C 0.9193(4) 0.8384(14) 0.7562(6)
H25 H 0.9243 0.9022 0.7966
H26 H 0.8915 0.8001 0.7390
C31 C 0.9333(3) 0.8126(11) 0.6441(6)
H27 H 0.9337 0.8616 0.6024
H28 H 0.9597 0.7649 0.6691
C32 C 0.9412(3) 0.6010(14) 0.8076(6)
C33 C 0.9102(3) 0.6133(14) 0.8310(7)
H29 H 0.8951 0.6976 0.8255
C34_3 C 0.9023(4) 0.4800(13) 0.8661(6)
H30_3 H 0.8820 0.4770 0.8835
C35_3 C 0.9275(3) 0.3624(12) 0.8708(5)
C36_3 C 0.9570(4) 0.3785(16) 0.8435(6)
H31_3 H 0.9739 0.2988 0.8493
C37_3 C 0.9650(4) 0.4890(15) 0.8105(8)
H32_3 H 0.9848 0.4883 0.7919
C38_3 C 0.9237(3) 0.2292(12) 0.9038(6)
C39 C 0.9050(3) 0.5866(11) 0.5880(6)
C40_3 C 0.8742(3) 0.4849(11) 0.5694(6)
H33 H 0.8506 0.5047 0.5767
C41_3 C 0.8775(3) 0.3541(12) 0.5402(6)
H34_3 H 0.8569 0.2852 0.5297
C42_3 C 0.9126(3) 0.3256(10) 0.5263(5)
C43_3 C 0.9410(3) 0.4290(11) 0.5415(6)
H35_3 H 0.9636 0.4121 0.5311
C44 C 0.9386(3) 0.5590(11) 0.5717(6)
H36 H 0.9592 0.6277 0.5811
C45_3 C 0.9169(3) 0.1854(11) 0.4995(5)
O14_4 O 0.0065(2) 0.0956(10) 0.4323(4)
O2_3 O 0.8053(3) 0.2649(12) 0.8289(6)
O6_3 O 0.7647(2) 0.0281(10) 0.8495(5)
O12_3 O 0.8354(2) 0.1428(9) 0.9789(4)
O16_3 O 0.1947(3) 0.2649(12) 0.6711(6)
O19_3 O 0.2353(2) 0.0281(10) 0.6505(5)
O31_3 O 0.1646(2) 0.1428(9) 0.5211(4)
H41_5 H 0.786166 0.310975 0.846672
H42_5 H 0.826565 0.335607 0.830486
H43_5 H 0.80589 0.161252 0.967702
H45_5 H 0.858355 0.0372074 0.815432
H41_6 H 0.213834 0.310975 0.653328
H42_6 H 0.173435 0.335607 0.669514
H43_6 H 0.19411 0.161252 0.532298
H44_4 H 0.152438 0.0801868 0.477895
H45_6 H 0.141645 0.0372074 0.684568
O1_3 O 0.3826(2) 0.3879(8) 0.1899(4)
O3_3 O 0.5000 0.5582(10) 0.2500
O4_2 O 0.4493(3) 0.7740(10) 0.2751(5)
O5_2 O 0.40031(19) 0.7935(7) 0.1209(4)
O7_3 O 0.2002(2) 0.1436(10) 0.0798(5)
O13_3 O 0.1581(3) 0.0235(11) 0.1662(5)
C1_2 C 0.4269(3) 0.5812(10) 0.1928(5)
C2_2 C 0.3866(3) 0.5007(12) 0.1498(6)
H1_3 H 0.3868 0.4646 0.1053
H2_2 H 0.3634 0.5657 0.1376
C3_3 C 0.4638(3) 0.4775(11) 0.2170(6)
H3_3 H 0.4639 0.4262 0.1757
H4_3 H 0.4618 0.4075 0.2506
C4_2 C 0.4193(4) 0.6616(14) 0.2562(6)
H5_2 H 0.4243 0.5978 0.2966
H6_2 H 0.3915 0.6999 0.2390
C5_2 C 0.4333(3) 0.6874(11) 0.1441(6)
H7_2 H 0.4337 0.6384 0.1024
H8_2 H 0.4597 0.7351 0.1691
C6_2 C 0.4412(3) 0.8990(14) 0.3076(6)
C7_2 C 0.4102(3) 0.8867(14) 0.3310(7)
H9_2 H 0.3951 0.8024 0.3255
C13_2 C 0.4050(3) 0.9134(11) 0.0880(6)
H13_2 H 0.3506 0.9953 0.0767
C18_2 C 0.4386(3) 0.9410(11) 0.0717(6)
H16_2 H 0.4592 0.8723 0.0811
C20_3 C 0.3451(3) 0.3191(11) 0.1665(6)
C21_3 C 0.3453(3) 0.1902(12) 0.1982(6)
H17_3 H 0.3702 0.1535 0.2316
C22_3 C 0.3099(3) 0.1131(13) 0.1822(6)
H18_3 H 0.3106 0.0243 0.2037
C23_3 C 0.2734(3) 0.1699(12) 0.1338(6)
C24_3 C 0.2732(3) 0.2938(15) 0.1013(7)
H19_3 H 0.2481 0.3295 0.0678
C25_3 C 0.3093(3) 0.3729(13) 0.1157(7)
H20_3 H 0.3088 0.4583 0.0917
C26_3 C 0.2349(3) 0.0893(14) 0.1215(7)
O15_3 O 0.6174(2) 0.3879(8) 0.3101(4)
O17_2 O 0.5507(3) 0.7740(10) 0.2249(5)
O18_2 O 0.59969(19) 0.7935(7) 0.3791(4)
O20_3 O 0.7998(2) 0.1436(10) 0.4202(5)
O32_3 O 0.8419(3) 0.0235(11) 0.3338(5)
C27_2 C 0.5731(3) 0.5812(10) 0.3072(5)
C28_2 C 0.6134(3) 0.5007(12) 0.3502(6)
H21_3 H 0.6132 0.4646 0.3947
H22_2 H 0.6366 0.5657 0.3624
C29_3 C 0.5362(3) 0.4775(11) 0.2830(6)
H23_3 H 0.5361 0.4262 0.3243
H24_3 H 0.5382 0.4075 0.2494
C30_2 C 0.5807(4) 0.6616(14) 0.2438(6)
H25_2 H 0.5757 0.5978 0.2034
H26_2 H 0.6085 0.6999 0.2610
C31_2 C 0.5667(3) 0.6874(11) 0.3559(6)
H27_2 H 0.5663 0.6384 0.3976
H28_2 H 0.5403 0.7351 0.3309
C32_2 C 0.5588(3) 0.8990(14) 0.1924(6)
C33_2 C 0.5898(3) 0.8867(14) 0.1690(7)
H29_2 H 0.6049 0.8024 0.1745
C39_2 C 0.5950(3) 0.9134(11) 0.4120(6)
H33_2 H 0.6494 0.9953 0.4233
C44_2 C 0.5614(3) 0.9410(11) 0.4283(6)
H36_2 H 0.5408 0.8723 0.4189
C46_3 C 0.6549(3) 0.3191(11) 0.3335(6)
C47_3 C 0.6547(3) 0.1902(12) 0.3018(6)
H37_3 H 0.6298 0.1535 0.2684
C48_3 C 0.6901(3) 0.1131(13) 0.3178(6)
H38_3 H 0.6894 0.0243 0.2963
C49_3 C 0.7266(3) 0.1699(12) 0.3662(6)
C50_3 C 0.7268(3) 0.2938(15) 0.3987(7)
H39_3 H 0.7519 0.3295 0.4322
C51_3 C 0.6907(3) 0.3729(13) 0.3843(7)
H40_3 H 0.6912 0.4583 0.4083
C52_3 C 0.7651(3) 0.0893(14) 0.3785(7)
H46_5 H 0.144658 0.118987 0.151685
H46_6 H 0.855342 0.118987 0.348315
U2_7 U -0.0000 1.0000 0.0000
U4_2 U 0.160830(12) 0.94265(5) 0.09426(2)
O30_3 O 0.0498(2) 0.8636(10) 0.0847(5)
U2_8 U -0.0000 1.0000 1.0000
U8_4 U -0.0000 1.0000 0.5000
O33_3 O 0.0065(2) 0.9044(10) 0.9323(4)
U2_9 U 1.0000 1.0000 0.0000
U2_10 U 1.0000 1.0000 1.0000
U7_2 U 0.839170(12) 0.94265(5) 0.40574(2)
U8_5 U 1.0000 1.0000 0.5000
O22_3 O 0.9502(2) 0.8376(8) 0.9929(4)
O22_4 O 0.0498(2) 0.8376(8) 0.5071(4)
O30_4 O 0.9502(2) 0.8636(10) 0.4153(5)
O33_4 O 0.9935(2) 0.9044(10) 0.5677(4)
O1_4 O 0.6174(2) 0.6121(8) 0.8101(4)
O3_4 O 0.5000 0.4418(10) 0.7500
O4_3 O 0.5507(3) 0.2260(10) 0.7249(5)
O5_3 O 0.59969(19) 0.2065(7) 0.8791(4)
O7_4 O 0.7998(2) 0.8564(10) 0.9202(5)
O13_4 O 0.8419(3) 0.9765(11) 0.8338(5)
C1_3 C 0.5731(3) 0.4188(10) 0.8072(5)
C2_3 C 0.6134(3) 0.4993(12) 0.8502(6)
H1_4 H 0.6132 0.5354 0.8947
H2_3 H 0.6366 0.4343 0.8624
C3_4 C 0.5362(3) 0.5225(11) 0.7830(6)
H3_4 H 0.5361 0.5738 0.8243
H4_4 H 0.5382 0.5925 0.7494
C4_3 C 0.5807(4) 0.3384(14) 0.7438(6)
H5_3 H 0.5757 0.4022 0.7034
H6_3 H 0.6085 0.3001 0.7610
C5_3 C 0.5667(3) 0.3126(11) 0.8559(6)
H7_3 H 0.5663 0.3616 0.8976
H8_3 H 0.5403 0.2649 0.8309
C6_3 C 0.5588(3) 0.1010(14) 0.6924(6)
C7_3 C 0.5898(3) 0.1133(14) 0.6690(7)
H9_3 H 0.6049 0.1976 0.6745
C13_3 C 0.5950(3) 0.0866(11) 0.9120(6)
H13_3 H 0.6494 0.0047 0.9233
C18_3 C 0.5614(3) 0.0590(11) 0.9283(6)
H16_3 H 0.5408 0.1277 0.9189
C20_4 C 0.6549(3) 0.6809(11) 0.8335(6)
C21_4 C 0.6547(3) 0.8098(12) 0.8018(6)
H17_4 H 0.6298 0.8465 0.7684
C22_4 C 0.6901(3) 0.8869(13) 0.8178(6)
H18_4 H 0.6894 0.9757 0.7963
C23_4 C 0.7266(3) 0.8301(12) 0.8662(6)
C24_4 C 0.7268(3) 0.7062(15) 0.8987(7)
H19_4 H 0.7519 0.6705 0.9322
C25_4 C 0.6907(3) 0.6271(13) 0.8843(7)
H20_4 H 0.6912 0.5417 0.9083
C26_4 C 0.7651(3) 0.9107(14) 0.8785(7)
O15_4 O 0.3826(2) 0.6121(8) 0.6899(4)
O17_3 O 0.4493(3) 0.2260(10) 0.7751(5)
O18_3 O 0.40031(19) 0.2065(7) 0.6209(4)
O20_4 O 0.2002(2) 0.8564(10) 0.5798(5)
O24_2 O 0.8897(2) 0.9066(8) 0.9817(4)
O25_2 O 0.1103(2) 0.9066(8) 0.5183(4)
O32_4 O 0.1581(3) 0.9765(11) 0.6662(5)
C27_3 C 0.4269(3) 0.4188(10) 0.6928(5)
C28_3 C 0.3866(3) 0.4993(12) 0.6498(6)
H21_4 H 0.3868 0.5354 0.6053
H22_3 H 0.3634 0.4343 0.6376
C29_4 C 0.4638(3) 0.5225(11) 0.7170(6)
H23_4 H 0.4639 0.5738 0.6757
H24_4 H 0.4618 0.5925 0.7506
C30_3 C 0.4193(4) 0.3384(14) 0.7562(6)
H25_3 H 0.4243 0.4022 0.7966
H26_3 H 0.3915 0.3001 0.7390
C31_3 C 0.4333(3) 0.3126(11) 0.6441(6)
H27_3 H 0.4337 0.3616 0.6024
H28_3 H 0.4597 0.2649 0.6691
C32_3 C 0.4412(3) 0.1010(14) 0.8076(6)
C33_3 C 0.4102(3) 0.1133(14) 0.8310(7)
H29_3 H 0.3951 0.1976 0.8255
C39_3 C 0.4050(3) 0.0866(11) 0.5880(6)
H33_3 H 0.3506 0.0047 0.5767
C44_3 C 0.4386(3) 0.0590(11) 0.5717(6)
H36_3 H 0.4592 0.1277 0.5811
C46_4 C 0.3451(3) 0.6809(11) 0.6665(6)
C47_4 C 0.3453(3) 0.8098(12) 0.6982(6)
H37_4 H 0.3702 0.8465 0.7316
C48_4 C 0.3099(3) 0.8869(13) 0.6822(6)
H38_4 H 0.3106 0.9757 0.7037
C49_4 C 0.2734(3) 0.8301(12) 0.6338(6)
C50_4 C 0.2732(3) 0.7062(15) 0.6013(7)
H39_4 H 0.2481 0.6705 0.5678
C51_4 C 0.3093(3) 0.6271(13) 0.6157(7)
H40_4 H 0.3088 0.5417 0.5917
C52_4 C 0.2349(3) 0.9107(14) 0.6215(7)
H46_7 H 0.855342 0.881013 0.848315
H46_8 H 0.144658 0.881013 0.651685
O3_5 O -0.0000 0.0582(10) 0.2500
O17_4 O 0.0507(3) 0.2740(10) 0.2249(5)
O18_4 O 0.09969(19) 0.2935(7) 0.3791(4)
O26_2 O 0.1065(2) 0.7918(9) 0.0817(4)
C27_4 C 0.0731(3) 0.0812(10) 0.3072(5)
C28_4 C 0.1134(3) 0.0007(12) 0.3502(6)
H22_4 H 0.1366 0.0657 0.3624
C30_4 C 0.0807(4) 0.1616(14) 0.2438(6)
H25_4 H 0.0757 0.0978 0.2034
H26_4 H 0.1085 0.1999 0.2610
C31_4 C 0.0667(3) 0.1874(11) 0.3559(6)
H27_4 H 0.0663 0.1384 0.3976
H28_4 H 0.0403 0.2351 0.3309
C32_4 C 0.0588(3) 0.3990(14) 0.1924(6)
C33_4 C 0.0898(3) 0.3867(14) 0.1690(7)
H29_4 H 0.1049 0.3024 0.1745
C34_4 C 0.0977(4) 0.5200(13) 0.1339(6)
H30_4 H 0.1180 0.5230 0.1165
C35_4 C 0.0725(3) 0.6376(12) 0.1292(5)
C36_4 C 0.0430(4) 0.6215(16) 0.1565(6)
H31_4 H 0.0261 0.7012 0.1507
C37_4 C 0.0350(4) 0.5110(15) 0.1895(8)
H32_4 H 0.0152 0.5117 0.2081
C38_4 C 0.0763(3) 0.7708(12) 0.0962(6)
C39_4 C 0.0950(3) 0.4134(11) 0.4120(6)
C40_4 C 0.1258(3) 0.5151(11) 0.4306(6)
H33_4 H 0.1494 0.4953 0.4233
C41_4 C 0.1225(3) 0.6459(12) 0.4598(6)
H34_4 H 0.1431 0.7148 0.4703
C42_4 C 0.0874(3) 0.6744(10) 0.4737(5)
C43_4 C 0.0590(3) 0.5710(11) 0.4585(6)
H35_4 H 0.0364 0.5879 0.4689
C44_4 C 0.0614(3) 0.4410(11) 0.4283(6)
H36_4 H 0.0408 0.3723 0.4189
C45_4 C 0.0831(3) 0.8146(11) 0.5005(5)
O3_6 O 1.0000 0.0582(10) 0.2500
O4_4 O 0.9493(3) 0.2740(10) 0.2751(5)
O5_4 O 0.90031(19) 0.2935(7) 0.1209(4)
O10_2 O 0.8935(2) 0.7918(9) 0.4183(4)
C1_4 C 0.9269(3) 0.0812(10) 0.1928(5)
C2_4 C 0.8866(3) 0.0007(12) 0.1498(6)
H2_4 H 0.8634 0.0657 0.1376
C4_4 C 0.9193(4) 0.1616(14) 0.2562(6)
H5_4 H 0.9243 0.0978 0.2966
H6_4 H 0.8915 0.1999 0.2390
C5_4 C 0.9333(3) 0.1874(11) 0.1441(6)
H7_4 H 0.9337 0.1384 0.1024
H8_4 H 0.9597 0.2351 0.1691
C6_4 C 0.9412(3) 0.3990(14) 0.3076(6)
C7_4 C 0.9102(3) 0.3867(14) 0.3310(7)
H9_4 H 0.8951 0.3024 0.3255
C8_4 C 0.9023(4) 0.5200(13) 0.3661(6)
H10_4 H 0.8820 0.5230 0.3835
C9_4 C 0.9275(3) 0.6376(12) 0.3708(5)
C10_4 C 0.9570(4) 0.6215(16) 0.3435(6)
H11_4 H 0.9739 0.7012 0.3493
C11_4 C 0.9650(4) 0.5110(15) 0.3105(8)
H12_4 H 0.9848 0.5117 0.2919
C12_4 C 0.9237(3) 0.7708(12) 0.4038(6)
C13_4 C 0.9050(3) 0.4134(11) 0.0880(6)
C14_4 C 0.8742(3) 0.5151(11) 0.0694(6)
H13_4 H 0.8506 0.4953 0.0767
C15_4 C 0.8775(3) 0.6459(12) 0.0402(6)
H14_4 H 0.8569 0.7148 0.0297
C16_4 C 0.9126(3) 0.6744(10) 0.0263(5)
C17_4 C 0.9410(3) 0.5710(11) 0.0415(6)
H15_4 H 0.9636 0.5879 0.0311
C18_4 C 0.9386(3) 0.4410(11) 0.0717(6)
H16_4 H 0.9592 0.3723 0.0811
C19_4 C 0.9169(3) 0.8146(11) 0.9995(5)
O2_4 O 0.1947(3) 0.7351(12) 0.1711(6)
O6_4 O 0.2353(2) 0.9719(10) 0.1505(5)
O12_4 O 0.1646(2) 0.8572(9) 0.0211(4)
O16_4 O 0.8053(3) 0.7351(12) 0.3289(6)
O19_4 O 0.7647(2) 0.9719(10) 0.3495(5)
O31_4 O 0.8354(2) 0.8572(9) 0.4789(4)
H41_7 H 0.213834 0.689025 0.153328
H42_7 H 0.173435 0.664393 0.169514
H43_7 H 0.19411 0.838748 0.0322982
H45_7 H 0.141645 0.962793 0.184568
H41_8 H 0.786166 0.689025 0.346672
H42_8 H 0.826565 0.664393 0.330486
H43_8 H 0.80589 0.838748 0.467702
H44_5 H 0.847562 0.919813 0.522105
H45_8 H 0.858355 0.962793 0.315432
H44_6 H 0.847562 0.0801868 0.0221052
H44_7 H 0.652438 0.419813 0.977895
H44_8 H 0.152438 0.919813 0.977895
loop_
_geom_bond_atom_site_label_1
_geom_bond_atom_site_label_2
_geom_bond_site_symmetry_1
_geom_bond_site_symmetry_2
U1 O2 1_555 1_555
O6 U1 1_555 1_555
O7 U1 1_555 1_555
O12 U1 1_555 1_555
O13 U1 1_555 1_555
H3 C3 1_555 1_555
H4 C3 1_555 1_555
C20 O1 1_555 1_555
C21 C20 1_555 1_555
H17 C21 1_555 1_555
C22 C21 1_555 1_555
H18 C22 1_555 1_555
C23 C22 1_555 1_555
C24 C23 1_555 1_555
H19 C24 1_555 1_555
C25 C20 1_555 1_555
H20 C25 1_555 1_555
C26 O6 1_555 1_555
O24 U1 1_555 1_555
O27 U1 1_555 1_555
O7 C26 1_555 1_555
C23 C26 1_555 1_555
C24 C25 1_555 1_555
O2 H41 1_555 1_555
O2 H42 1_555 1_555
O12 H43 1_555 1_555
O13 H45 1_555 1_555
O13 H46 1_555 1_555
U3 O16 1_555 1_555
O19 U3 1_555 1_555
O20 U3 1_555 1_555
O25 U3 1_555 1_555
O28 U3 1_555 1_555
O31 U3 1_555 1_555
O32 U3 1_555 1_555
H23 C29 1_555 1_555
H24 C29 1_555 1_555
C46 O15 1_555 1_555
C47 C46 1_555 1_555
H37 C47 1_555 1_555
C48 C47 1_555 1_555
H38 C48 1_555 1_555
C49 C48 1_555 1_555
C50 C49 1_555 1_555
H39 C50 1_555 1_555
C51 C46 1_555 1_555
H40 C51 1_555 1_555
C52 O19 1_555 1_555
O20 C52 1_555 1_555
C49 C52 1_555 1_555
C50 C51 1_555 1_555
O16 H41_2 1_555 1_555
O16 H42_2 1_555 1_555
O31 H43_2 1_555 1_555
O31 H44_2 1_555 1_555
O32 H45_2 1_555 1_555
O32 H46_2 1_555 1_555
U2 O8 1_555 1_555
O8 C19 1_555 1_555
O9 C19 1_555 1_555
O14 U2 1_555 1_555
U4 O9 1_555 1_555
O30 U2 1_555 1_555
O28 C12 1_555 1_555
O11 C12 1_555 1_555
H10 C8 1_555 1_555
C9 C8 1_555 1_555
C10 C9 1_555 1_555
H11 C10 1_555 1_555
H12 C11 1_555 1_555
C12 C9 1_555 1_555
C15 C14 1_555 1_555
H14 C15 1_555 1_555
C16 C15 1_555 1_555
C17 C16 1_555 1_555
H15 C17 1_555 1_555
U7 O23 1_555 1_555
U8 O11 1_555 1_555
O21 U8 1_555 1_555
O22 U2_2 1_555 1_555
O23 C45 1_555 1_555
O27 C38 1_555 1_555
O29 U2_2 1_555 1_555
O33 U2_2 1_555 1_555
H30 C34 1_555 1_555
C35 C34 1_555 1_555
C36 C35 1_555 1_555
H31 C36 1_555 1_555
H32 C37 1_555 1_555
C38 O29 1_555 1_555
C41 C40 1_555 1_555
H34 C41 1_555 1_555
C42 C41 1_555 1_555
C43 C42 1_555 1_555
H35 C43 1_555 1_555
C45 O21 1_555 1_555
C10 C11 1_555 1_555
C35 C38 1_555 1_555
C36 C37 1_555 1_555
C42 C45 1_555 1_555
O14_2 U8 1_555 1_555
O22_2 U8 1_555 1_555
O30_2 U8 1_555 1_555
O33_2 U8 1_555 1_555
U7 O16_2 1_555 1_555
O19_2 U7 1_555 1_555
O20_2 U7 1_555 1_555
O28_2 U7 1_555 1_555
O31_2 U7 1_555 1_555
O32_2 U7 1_555 1_555
H23_2 C29_2 1_555 1_555
H24_2 C29_2 1_555 1_555
C46_2 O15_2 1_555 1_555
C47_2 C46_2 1_555 1_555
H37_2 C47_2 1_555 1_555
C48_2 C47_2 1_555 1_555
H38_2 C48_2 1_555 1_555
C49_2 C48_2 1_555 1_555
C50_2 C49_2 1_555 1_555
H39_2 C50_2 1_555 1_555
C51_2 C46_2 1_555 1_555
H40_2 C51_2 1_555 1_555
C52_2 O19_2 1_555 1_555
O20_2 C52_2 1_555 1_555
C49_2 C52_2 1_555 1_555
C50_2 C51_2 1_555 1_555
U4 O2_2 1_555 1_555
O6_2 U4 1_555 1_555
O7_2 U4 1_555 1_555
O12_2 U4 1_555 1_555
O13_2 U4 1_555 1_555
H3_2 C3_2 1_555 1_555
H4_2 C3_2 1_555 1_555
C20_2 O1_2 1_555 1_555
C21_2 C20_2 1_555 1_555
H17_2 C21_2 1_555 1_555
C22_2 C21_2 1_555 1_555
H18_2 C22_2 1_555 1_555
C23_2 C22_2 1_555 1_555
C24_2 C23_2 1_555 1_555
H19_2 C24_2 1_555 1_555
C25_2 C20_2 1_555 1_555
H20_2 C25_2 1_555 1_555
C26_2 O6_2 1_555 1_555
O27_2 U4 1_555 1_555
O7_2 C26_2 1_555 1_555
C23_2 C26_2 1_555 1_555
C24_2 C25_2 1_555 1_555
O2_2 H41_3 1_555 1_555
O2_2 H42_3 1_555 1_555
O12_2 H43_3 1_555 1_555
O13_2 H45_3 1_555 1_555
O13_2 H46_3 1_555 1_555
O16_2 H41_4 1_555 1_555
O16_2 H42_4 1_555 1_555
O31_2 H43_4 1_555 1_555
O31_2 H44_3 1_555 1_555
O32_2 H45_4 1_555 1_555
O32_2 H46_4 1_555 1_555
O28_2 C12_2 1_555 1_555
O30_2 C12_2 1_555 1_555
H10_2 C8_2 1_555 1_555
C9_2 C8_2 1_555 1_555
C10_2 C9_2 1_555 1_555
H11_2 C10_2 1_555 1_555
H12_2 C11_2 1_555 1_555
C12_2 C9_2 1_555 1_555
C15_2 C14_2 1_555 1_555
H14_2 C15_2 1_555 1_555
C16_2 C15_2 1_555 1_555
C17_2 C16_2 1_555 1_555
H15_2 C17_2 1_555 1_555
O25 C45_2 1_555 1_555
O27_2 C38_2 1_555 1_555
H30_2 C34_2 1_555 1_555
C35_2 C34_2 1_555 1_555
C36_2 C35_2 1_555 1_555
H31_2 C36_2 1_555 1_555
H32_2 C37_2 1_555 1_555
C38_2 O30 1_555 1_555
C41_2 C40_2 1_555 1_555
H34_2 C41_2 1_555 1_555
C42_2 C41_2 1_555 1_555
C43_2 C42_2 1_555 1_555
H35_2 C43_2 1_555 1_555
C45_2 O22_2 1_555 1_555
C10_2 C11_2 1_555 1_555
C35_2 C38_2 1_555 1_555
C36_2 C37_2 1_555 1_555
C42_2 C45_2 1_555 1_555
O22 C19_2 1_555 1_555
O24 C19_2 1_555 1_555
U2_3 O8_2 1_555 1_555
O8_2 C19_3 1_555 1_555
O9_2 C19_3 1_555 1_555
O4 C4 1_555 1_555
O5 C5 1_555 1_555
O10 C12_3 1_555 1_555
O11_2 C12_3 1_555 1_555
C1 C2 1_555 1_555
H2 C2 1_555 1_555
C4 C1 1_555 1_555
H5 C4 1_555 1_555
H6 C4 1_555 1_555
C5 C1 1_555 1_555
H7 C5 1_555 1_555
H8 C5 1_555 1_555
C6 O4 1_555 1_555
C7 C6 1_555 1_555
H9 C7 1_555 1_555
C8_3 C7 1_555 1_555
H10_3 C8_3 1_555 1_555
C9_3 C8_3 1_555 1_555
C10_3 C9_3 1_555 1_555
H11_3 C10_3 1_555 1_555
C11_3 C6 1_555 1_555
H12_3 C11_3 1_555 1_555
C12_3 C9_3 1_555 1_555
C13 O5 1_555 1_555
C14_3 C13 1_555 1_555
H13 C14_3 1_555 1_555
C15_3 C14_3 1_555 1_555
H14_3 C15_3 1_555 1_555
C16_3 C15_3 1_555 1_555
C17_3 C16_3 1_555 1_555
H15_3 C17_3 1_555 1_555
C18 C13 1_555 1_555
H16 C18 1_555 1_555
U5 O10 1_555 1_555
U8_2 O11_2 1_555 1_555
C10_3 C11_3 1_555 1_555
C17_3 C18 1_555 1_555
O14_3 U2_5 1_555 1_555
U6 O26 1_555 1_555
O17 C30 1_555 1_555
O18 C31 1_555 1_555
O21_2 U8_3 1_555 1_555
O23_2 C45_3 1_555 1_555
O26 C38_3 1_555 1_555
O29_2 U2_6 1_555 1_555
C27 C28 1_555 1_555
H22 C28 1_555 1_555
C30 C27 1_555 1_555
H25 C30 1_555 1_555
H26 C30 1_555 1_555
C31 C27 1_555 1_555
H27 C31 1_555 1_555
H28 C31 1_555 1_555
C32 O17 1_555 1_555
C33 C32 1_555 1_555
H29 C33 1_555 1_555
C34_3 C33 1_555 1_555
H30_3 C34_3 1_555 1_555
C35_3 C34_3 1_555 1_555
C36_3 C35_3 1_555 1_555
H31_3 C36_3 1_555 1_555
C37_3 C32 1_555 1_555
H32_3 C37_3 1_555 1_555
C38_3 O29_2 1_555 1_555
C39 O18 1_555 1_555
C40_3 C39 1_555 1_555
H33 C40_3 1_555 1_555
C41_3 C40_3 1_555 1_555
H34_3 C41_3 1_555 1_555
C42_3 C41_3 1_555 1_555
C43_3 C42_3 1_555 1_555
H35_3 C43_3 1_555 1_555
C44 C39 1_555 1_555
H36 C44 1_555 1_555
C45_3 O21_2 1_555 1_555
C35_3 C38_3 1_555 1_555
C36_3 C37_3 1_555 1_555
C42_3 C45_3 1_555 1_555
C43_3 C44 1_555 1_555
O14_4 U8_2 1_555 1_555
U6 O2_3 1_555 1_555
O6_3 U6 1_555 1_555
O12_3 U6 1_555 1_555
U5 O16_3 1_555 1_555
O19_3 U5 1_555 1_555
O31_3 U5 1_555 1_555
O2_3 H41_5 1_555 1_555
O2_3 H42_5 1_555 1_555
O12_3 H43_5 1_555 1_555
O16_3 H41_6 1_555 1_555
O16_3 H42_6 1_555 1_555
O31_3 H43_6 1_555 1_555
O31_3 H44_4 1_555 1_555
O1_3 C2_2 1_555 1_555
O3_3 C3_3 1_555 1_555
O4_2 C4_2 1_555 1_555
O5_2 C5_2 1_555 1_555
C1_2 C2_2 1_555 1_555
C2_2 H1_3 1_555 1_555
H2_2 C2_2 1_555 1_555
C3_3 C1_2 1_555 1_555
H3_3 C3_3 1_555 1_555
H4_3 C3_3 1_555 1_555
C4_2 C1_2 1_555 1_555
H5_2 C4_2 1_555 1_555
H6_2 C4_2 1_555 1_555
C5_2 C1_2 1_555 1_555
H7_2 C5_2 1_555 1_555
H8_2 C5_2 1_555 1_555
C6_2 O4_2 1_555 1_555
C7_2 C6_2 1_555 1_555
H9_2 C7_2 1_555 1_555
C13_2 O5_2 1_555 1_555
C18_2 C13_2 1_555 1_555
H16_2 C18_2 1_555 1_555
C20_3 O1_3 1_555 1_555
C21_3 C20_3 1_555 1_555
H17_3 C21_3 1_555 1_555
C22_3 C21_3 1_555 1_555
H18_3 C22_3 1_555 1_555
C23_3 C22_3 1_555 1_555
C24_3 C23_3 1_555 1_555
H19_3 C24_3 1_555 1_555
C25_3 C20_3 1_555 1_555
H20_3 C25_3 1_555 1_555
O15_3 C28_2 1_555 1_555
O17_2 C30_2 1_555 1_555
O18_2 C31_2 1_555 1_555
C27_2 C28_2 1_555 1_555
C28_2 H21_3 1_555 1_555
H22_2 C28_2 1_555 1_555
C29_3 O3_3 1_555 1_555
H23_3 C29_3 1_555 1_555
H24_3 C29_3 1_555 1_555
C30_2 C27_2 1_555 1_555
H25_2 C30_2 1_555 1_555
H26_2 C30_2 1_555 1_555
C31_2 C27_2 1_555 1_555
H27_2 C31_2 1_555 1_555
H28_2 C31_2 1_555 1_555
C32_2 O17_2 1_555 1_555
C33_2 C32_2 1_555 1_555
H29_2 C33_2 1_555 1_555
C39_2 O18_2 1_555 1_555
C44_2 C39_2 1_555 1_555
H36_2 C44_2 1_555 1_555
C46_3 O15_3 1_555 1_555
C47_3 C46_3 1_555 1_555
H37_3 C47_3 1_555 1_555
C48_3 C47_3 1_555 1_555
H38_3 C48_3 1_555 1_555
C49_3 C48_3 1_555 1_555
C50_3 C49_3 1_555 1_555
H39_3 C50_3 1_555 1_555
C51_3 C46_3 1_555 1_555
H40_3 C51_3 1_555 1_555
O7_3 C26_3 1_555 1_555
C23_3 C26_3 1_555 1_555
C24_3 C25_3 1_555 1_555
O20_3 C52_3 1_555 1_555
C27_2 C29_3 1_555 1_555
C49_3 C52_3 1_555 1_555
C50_3 C51_3 1_555 1_555
O13_3 H46_5 1_555 1_555
O32_3 H46_6 1_555 1_555
O30_3 U2_7 1_555 1_555
O33_3 U2_8 1_555 1_555
O22_3 U2_10 1_555 1_555
O22_4 U8_4 1_555 1_555
O30_4 U8_5 1_555 1_555
O33_4 U8_5 1_555 1_555
O1_4 C2_3 1_555 1_555
O3_4 C3_4 1_555 1_555
O4_3 C4_3 1_555 1_555
O5_3 C5_3 1_555 1_555
C1_3 C2_3 1_555 1_555
C2_3 H1_4 1_555 1_555
H2_3 C2_3 1_555 1_555
C3_4 C1_3 1_555 1_555
H3_4 C3_4 1_555 1_555
H4_4 C3_4 1_555 1_555
C4_3 C1_3 1_555 1_555
H5_3 C4_3 1_555 1_555
H6_3 C4_3 1_555 1_555
C5_3 C1_3 1_555 1_555
H7_3 C5_3 1_555 1_555
H8_3 C5_3 1_555 1_555
C6_3 O4_3 1_555 1_555
C7_3 C6_3 1_555 1_555
H9_3 C7_3 1_555 1_555
C13_3 O5_3 1_555 1_555
C18_3 C13_3 1_555 1_555
H16_3 C18_3 1_555 1_555
C20_4 O1_4 1_555 1_555
C21_4 C20_4 1_555 1_555
H17_4 C21_4 1_555 1_555
C22_4 C21_4 1_555 1_555
H18_4 C22_4 1_555 1_555
C23_4 C22_4 1_555 1_555
C24_4 C23_4 1_555 1_555
H19_4 C24_4 1_555 1_555
C25_4 C20_4 1_555 1_555
H20_4 C25_4 1_555 1_555
O15_4 C28_3 1_555 1_555
O17_3 C30_3 1_555 1_555
O18_3 C31_3 1_555 1_555
C27_3 C28_3 1_555 1_555
C28_3 H21_4 1_555 1_555
H22_3 C28_3 1_555 1_555
C29_4 O3_4 1_555 1_555
H23_4 C29_4 1_555 1_555
H24_4 C29_4 1_555 1_555
C30_3 C27_3 1_555 1_555
H25_3 C30_3 1_555 1_555
H26_3 C30_3 1_555 1_555
C31_3 C27_3 1_555 1_555
H27_3 C31_3 1_555 1_555
H28_3 C31_3 1_555 1_555
C32_3 O17_3 1_555 1_555
C33_3 C32_3 1_555 1_555
H29_3 C33_3 1_555 1_555
C39_3 O18_3 1_555 1_555
C44_3 C39_3 1_555 1_555
H36_3 C44_3 1_555 1_555
C46_4 O15_4 1_555 1_555
C47_4 C46_4 1_555 1_555
H37_4 C47_4 1_555 1_555
C48_4 C47_4 1_555 1_555
H38_4 C48_4 1_555 1_555
C49_4 C48_4 1_555 1_555
C50_4 C49_4 1_555 1_555
H39_4 C50_4 1_555 1_555
C51_4 C46_4 1_555 1_555
H40_4 C51_4 1_555 1_555
O7_4 C26_4 1_555 1_555
C23_4 C26_4 1_555 1_555
C24_4 C25_4 1_555 1_555
O20_4 C52_4 1_555 1_555
C27_3 C29_4 1_555 1_555
C49_4 C52_4 1_555 1_555
C50_4 C51_4 1_555 1_555
O13_4 H46_7 1_555 1_555
O32_4 H46_8 1_555 1_555
U4_2 O26_2 1_555 1_555
O17_4 C30_4 1_555 1_555
O18_4 C31_4 1_555 1_555
O25_2 C45_4 1_555 1_555
O26_2 C38_4 1_555 1_555
C27_4 C28_4 1_555 1_555
H22_4 C28_4 1_555 1_555
C30_4 C27_4 1_555 1_555
H25_4 C30_4 1_555 1_555
H26_4 C30_4 1_555 1_555
C31_4 C27_4 1_555 1_555
H27_4 C31_4 1_555 1_555
H28_4 C31_4 1_555 1_555
C32_4 O17_4 1_555 1_555
C33_4 C32_4 1_555 1_555
H29_4 C33_4 1_555 1_555
C34_4 C33_4 1_555 1_555
H30_4 C34_4 1_555 1_555
C35_4 C34_4 1_555 1_555
C36_4 C35_4 1_555 1_555
H31_4 C36_4 1_555 1_555
C37_4 C32_4 1_555 1_555
H32_4 C37_4 1_555 1_555
C38_4 O30_3 1_555 1_555
C39_4 O18_4 1_555 1_555
C40_4 C39_4 1_555 1_555
H33_4 C40_4 1_555 1_555
C41_4 C40_4 1_555 1_555
H34_4 C41_4 1_555 1_555
C42_4 C41_4 1_555 1_555
C43_4 C42_4 1_555 1_555
H35_4 C43_4 1_555 1_555
C44_4 C39_4 1_555 1_555
H36_4 C44_4 1_555 1_555
C45_4 O22_4 1_555 1_555
C35_4 C38_4 1_555 1_555
C36_4 C37_4 1_555 1_555
C42_4 C45_4 1_555 1_555
C43_4 C44_4 1_555 1_555
O4_4 C4_4 1_555 1_555
O5_4 C5_4 1_555 1_555
O10_2 C12_4 1_555 1_555
O30_4 C12_4 1_555 1_555
C1_4 C2_4 1_555 1_555
H2_4 C2_4 1_555 1_555
C4_4 C1_4 1_555 1_555
H5_4 C4_4 1_555 1_555
H6_4 C4_4 1_555 1_555
C5_4 C1_4 1_555 1_555
H7_4 C5_4 1_555 1_555
H8_4 C5_4 1_555 1_555
C6_4 O4_4 1_555 1_555
C7_4 C6_4 1_555 1_555
H9_4 C7_4 1_555 1_555
C8_4 C7_4 1_555 1_555
H10_4 C8_4 1_555 1_555
C9_4 C8_4 1_555 1_555
C10_4 C9_4 1_555 1_555
H11_4 C10_4 1_555 1_555
C11_4 C6_4 1_555 1_555
H12_4 C11_4 1_555 1_555
C12_4 C9_4 1_555 1_555
C13_4 O5_4 1_555 1_555
C14_4 C13_4 1_555 1_555
H13_4 C14_4 1_555 1_555
C15_4 C14_4 1_555 1_555
H14_4 C15_4 1_555 1_555
C16_4 C15_4 1_555 1_555
C17_4 C16_4 1_555 1_555
H15_4 C17_4 1_555 1_555
C18_4 C13_4 1_555 1_555
H16_4 C18_4 1_555 1_555
U7_2 O10_2 1_555 1_555
C10_4 C11_4 1_555 1_555
C17_4 C18_4 1_555 1_555
O22_3 C19_4 1_555 1_555
O24_2 C19_4 1_555 1_555
U4_2 O2_4 1_555 1_555
O6_4 U4_2 1_555 1_555
O12_4 U4_2 1_555 1_555
U7_2 O16_4 1_555 1_555
O19_4 U7_2 1_555 1_555
O31_4 U7_2 1_555 1_555
O2_4 H41_7 1_555 1_555
O2_4 H42_7 1_555 1_555
O12_4 H43_7 1_555 1_555
O16_4 H41_8 1_555 1_555
O16_4 H42_8 1_555 1_555
O31_4 H43_8 1_555 1_555
O31_4 H44_5 1_555 1_555

#END
