
###############################################################################
#
# This file contains modified crystal structure data generated from the
# MOF subset of the Cambridge Structural Database (CSD) v543 
# hosted by the Cambridge Crystallographic Data Centre (CCDC).
#
# This work is licensed under the Creative Commons
# Attribution-NonCommercial-ShareAlike 4.0 International License.
# To view a copy of this license, visit
# http://creativecommons.org/licenses/by-nc-sa/4.0/
# or send a letter to
# Creative Commons, PO Box 1866, Mountain View, CA 94042, USA.
#
# CIF created using the CSD Python API on 29 September 2022
# The structure has been converted into the P1 space group
# The structure has a 3D framework
# The original CSD entry SAYQAO is in the monoclinic crystal system
# The framework has been calculated to contain at least 10.0% void space
# The void calculation uses a probe of radius 1.32A, grid spacing 0.4
# The framework is charged, counterions have been retained in the structure
#
###############################################################################

data_SAYQAO
_chemical_formula_moiety         '(C96 H192 Cl4 N44 O80 Zn8 4+)n'
_symmetry_cell_setting           triclinic
_symmetry_space_group_name_H-M   'P 1'
_symmetry_Int_Tables_number      1
_space_group_name_Hall           'P 1'
loop_
_symmetry_equiv_pos_site_id
_symmetry_equiv_pos_as_xyz
1 x,y,z
_cell_length_a                   12.7180(3)
_cell_length_b                   19.7797(6)
_cell_length_c                   18.5494(6)
_cell_angle_alpha                90
_cell_angle_beta                 97.937(3)
_cell_angle_gamma                90
_cell_volume                     4621.55
loop_
_atom_site_label
_atom_site_type_symbol
_atom_site_fract_x
_atom_site_fract_y
_atom_site_fract_z
O4 O 0.02503(16) 0.37319(11) 0.42986(12)
Zn4 Zn 0.06012(3) 0.27723(2) 0.43358(2)
Zn1 Zn 0.52297(3) 0.43299(2) 0.29557(2)
O1 O 0.42359(16) 0.48416(11) 0.22814(12)
N1 N 0.43615(19) 0.55273(13) 0.21369(14)
C1 C 0.4557(3) 0.59372(16) 0.28206(17)
H1 H 0.528382 0.585301 0.307205
H2 H 0.404458 0.580988 0.315313
C2 C 0.4424(3) 0.66914(16) 0.26120(17)
H3 H 0.372101 0.685563 0.270658
H4 H 0.497885 0.696397 0.290660
C3 C 0.3349(2) 0.57637(16) 0.17008(19)
H5 H 0.278190 0.579499 0.201516
H6 H 0.311972 0.543997 0.130300
C4 C 0.3551(2) 0.64602(16) 0.13843(18)
H7 H 0.365798 0.641459 0.086800
H8 H 0.293088 0.675808 0.140828
C5 C 0.5259(2) 0.56232(16) 0.16960(18)
H9 H 0.506078 0.543746 0.120024
H10 H 0.590006 0.538294 0.192887
C6 C 0.5484(2) 0.63815(16) 0.16553(17)
H11 H 0.610648 0.650277 0.201365
H12 H 0.564342 0.650060 0.116336
N2 N 0.4522(2) 0.67610(13) 0.18179(14)
O2 O 0.46208(17) 0.74481(11) 0.16663(12)
O3 O 0.66362(16) 0.46858(11) 0.28856(13)
N3 N 0.75596(19) 0.44063(13) 0.32651(15)
C7 C 0.8288(2) 0.42126(17) 0.27219(18)
H13 H 0.834114 0.459003 0.237823
H14 H 0.800159 0.381274 0.243938
C8 C 0.9391(2) 0.40500(19) 0.31358(18)
H15 H 0.967290 0.363340 0.293718
H16 H 0.988726 0.442530 0.307848
C9 C 0.8079(3) 0.49272(16) 0.37737(19)
H17 H 0.756810 0.509592 0.408901
H18 H 0.830593 0.531386 0.349342
C10 C 0.9042(3) 0.46187(17) 0.4242(2)
H19 H 0.965881 0.492606 0.425693
H20 H 0.888680 0.455412 0.474641
C11 C 0.7351(2) 0.37894(17) 0.36875(19)
H21 H 0.691530 0.346499 0.336778
H22 H 0.695623 0.391356 0.409213
C12 C 0.8415(2) 0.34638(18) 0.3991(2)
H23 H 0.841409 0.334105 0.450823
H24 H 0.852319 0.304632 0.371599
N4 N 0.92921(18) 0.39535(13) 0.39244(14)
O5 O 0.49926(16) 0.43726(11) 0.39632(12)
N5 N 0.41992(18) 0.39557(13) 0.41706(13)
C13 C 0.3229(2) 0.39451(16) 0.36084(17)
H25 H 0.343560 0.386778 0.311955
H26 H 0.285482 0.438418 0.360358
C14 C 0.2506(2) 0.33790(17) 0.37969(17)
H27 H 0.175521 0.352565 0.369814
H28 H 0.259520 0.297671 0.349374
C15 C 0.3893(3) 0.42194(16) 0.48715(17)
H29 H 0.375512 0.471151 0.483232
H30 H 0.447675 0.414135 0.527440
C16 C 0.2885(2) 0.38448(16) 0.50237(18)
H31 H 0.293302 0.374048 0.554923
H32 H 0.225331 0.413286 0.488412
C17 C 0.4602(2) 0.32458(16) 0.42894(17)
H33 H 0.532097 0.325074 0.457315
H34 H 0.464743 0.302630 0.381499
C18 C 0.3842(2) 0.28513(16) 0.47025(18)
H35 H 0.376441 0.238203 0.451725
H36 H 0.412079 0.283520 0.522755
N6 N 0.27859(18) 0.32041(13) 0.45903(14)
O6 O 0.20364(16) 0.27777(11) 0.48368(12)
H38 H 0.063101 0.291005 0.590595
H39 H 0.067505 0.267383 0.707120
C23 C 0.0657(3) 0.15899(19) 0.57182(18)
H45 H 0.132051 0.179093 0.559240
H46 H 0.050948 0.117056 0.543044
C24 C 0.0786(2) 0.14248(16) 0.65296(17)
H47 H 0.075579 0.092913 0.659801
H48 H 0.148521 0.158707 0.676716
O8 O 0.00144(17) 0.16095(11) 0.76123(11)
Zn3 Zn 0.02297(3) 0.06701(2) 0.79557(2)
Zn5 Zn 0.43988(3) 0.77723(2) 0.06642(2)
O9 O 0.03792(17) 0.24481(11) 0.33337(12)
O11 O 0.50144(17) 0.33905(11) 0.26123(11)
N1_2 N 0.06385(19) 0.05273(13) 0.28631(14)
C1_2 C 0.0443(3) 0.09372(16) 0.21794(17)
H2_2 H 0.095542 0.080988 0.184687
C2_2 C 0.0576(3) 0.16914(16) 0.23880(17)
H3_2 H 0.127899 0.185563 0.229342
H4_2 H 0.002115 0.196397 0.209340
C3_2 C 0.1651(2) 0.07637(16) 0.32992(19)
H5_2 H 0.221810 0.079499 0.298484
H6_2 H 0.188028 0.043997 0.369700
C4_2 C 0.1449(2) 0.14602(16) 0.36157(18)
H7_2 H 0.134202 0.141459 0.413200
H8_2 H 0.206912 0.175808 0.359172
N2_2 N 0.0478(2) 0.17610(13) 0.31821(14)
O1_2 O 0.07641(16) 0.98416(11) 0.27186(12)
O5_2 O 0.00074(16) 0.93726(11) 0.10368(12)
N5_2 N 0.08008(18) 0.89557(13) 0.08294(13)
C13_2 C 0.1771(2) 0.89451(16) 0.13916(17)
H25_2 H 0.156440 0.886778 0.188045
H26_2 H 0.214518 0.938418 0.139642
C14_2 C 0.2494(2) 0.83790(17) 0.12031(17)
H27_2 H 0.324479 0.852565 0.130186
H28_2 H 0.240480 0.797671 0.150626
C15_2 C 0.1107(3) 0.92194(16) 0.01285(17)
H29_2 H 0.124488 0.971151 0.016768
H32_2 H 0.274669 0.913286 0.011588
C17_2 C 0.0398(2) 0.82458(16) 0.07106(17)
H34_2 H 0.035257 0.802630 0.118501
C18_2 C 0.1158(2) 0.78513(16) 0.02975(18)
H35_2 H 0.123559 0.738203 0.048275
N6_2 N 0.22141(18) 0.82041(13) 0.04097(14)
O6_2 O 0.29636(16) 0.77777(11) 0.01632(12)
O7 O 0.53710(16) 0.72226(11) 0.02003(11)
O10 O 0.47497(16) 0.87319(11) 0.07014(12)
H30_2 H 0.052325 0.914135 0.972560
C16_2 C 0.2115(2) 0.88448(16) 0.99763(18)
H31_2 H 0.206698 0.874048 0.945077
H36_2 H 0.087921 0.783520 0.977245
N7 N 0.52377(19) 0.70752(13) 0.94594(14)
C19 C 0.5047(3) 0.76984(16) 0.90096(18)
H37 H 0.562598 0.802728 0.914921
H38_2 H 0.436899 0.791005 0.909405
C20 C 0.5001(3) 0.75125(16) 0.82035(17)
H39_2 H 0.432495 0.767383 0.792880
H40 H 0.559275 0.773436 0.799964
C21 C 0.6249(2) 0.67526(19) 0.93054(18)
H41 H 0.640597 0.635223 0.962217
H42 H 0.684233 0.707687 0.941383
C22 C 0.6149(2) 0.65402(17) 0.85140(17)
H43 H 0.672145 0.675111 0.828040
H44 H 0.621921 0.604305 0.848126
C23_2 C 0.4343(3) 0.65899(19) 0.92818(18)
H45_2 H 0.367949 0.679093 0.940760
H46_2 H 0.449052 0.617056 0.956956
C24_2 C 0.4214(2) 0.64248(16) 0.84704(17)
H47_2 H 0.424421 0.592913 0.840199
H48_2 H 0.351479 0.658707 0.823284
N8 N 0.50829(19) 0.67585(13) 0.81272(14)
O8_2 O 0.49856(17) 0.66095(11) 0.73877(11)
Zn3_2 Zn 0.47703(3) 0.56701(2) 0.70443(2)
Zn1_2 Zn 0.97703(3) 0.93299(2) 0.20443(2)
O3_2 O 0.83638(16) 0.96858(11) 0.21144(13)
N3_2 N 0.74404(19) 0.94063(13) 0.17349(15)
C7_2 C 0.6712(2) 0.92126(17) 0.22781(18)
H13_2 H 0.665886 0.959003 0.262177
H14_2 H 0.699841 0.881274 0.256062
C8_2 C 0.5609(2) 0.90500(19) 0.18642(18)
H15_2 H 0.532710 0.863340 0.206282
H16_2 H 0.511274 0.942530 0.192152
C9_2 C 0.6921(3) 0.99272(16) 0.12263(19)
C10_2 C 0.5958(3) 0.96187(17) 0.0758(2)
H19_2 H 0.534119 0.992606 0.074307
H20_2 H 0.611320 0.955412 0.025359
C11_2 C 0.7649(2) 0.87894(17) 0.13125(19)
H21_2 H 0.808470 0.846499 0.163222
H22_2 H 0.804377 0.891356 0.090787
C12_2 C 0.6585(2) 0.84638(18) 0.1009(2)
H23_2 H 0.658591 0.834105 0.049177
H24_2 H 0.647681 0.804632 0.128401
N4_2 N 0.57079(18) 0.89535(13) 0.10756(14)
H33_2 H 0.967903 0.825074 0.042685
O11_2 O 0.99856(17) 0.83905(11) 0.23877(11)
Zn2 Zn 0.93988(3) 0.72277(2) 0.56642(2)
O1_3 O 0.57641(16) 0.51584(11) 0.77186(12)
N1_3 N 0.56385(19) 0.44727(13) 0.78631(14)
C1_3 C 0.5443(3) 0.40628(16) 0.71794(17)
H1_2 H 0.471618 0.414699 0.692795
H2_3 H 0.595542 0.419012 0.684687
C2_3 C 0.5576(3) 0.33086(16) 0.73880(17)
H3_3 H 0.627899 0.314437 0.729342
H4_3 H 0.502115 0.303603 0.709340
C3_3 C 0.6651(2) 0.42363(16) 0.82992(19)
H5_3 H 0.721810 0.420501 0.798484
H6_3 H 0.688028 0.456003 0.869700
C4_3 C 0.6449(2) 0.35398(16) 0.86157(18)
H7_3 H 0.634202 0.358541 0.913200
H8_3 H 0.706912 0.324192 0.859172
C5_2 C 0.4741(2) 0.43768(16) 0.83040(18)
H9_2 H 0.493922 0.456254 0.879976
H10_2 H 0.409994 0.461706 0.807113
C6_2 C 0.4516(2) 0.36185(16) 0.83447(17)
H11_2 H 0.389352 0.349723 0.798635
H12_2 H 0.435658 0.349940 0.883664
N2_3 N 0.5478(2) 0.32390(13) 0.81821(14)
O2_2 O 0.53792(17) 0.25519(11) 0.83337(12)
O3_3 O 0.33638(16) 0.53142(11) 0.71144(13)
N3_3 N 0.24404(19) 0.55937(13) 0.67349(15)
C7_3 C 0.1712(2) 0.57874(17) 0.72781(18)
H13_3 H 0.165886 0.540997 0.762177
H14_3 H 0.199841 0.618726 0.756062
C8_3 C 0.0609(2) 0.59500(19) 0.68642(18)
H15_3 H 0.032710 0.636660 0.706282
H16_3 H 0.011274 0.557470 0.692152
C9_3 C 0.1921(3) 0.50728(16) 0.62263(19)
H17_2 H 0.243190 0.490408 0.591099
H18_2 H 0.169407 0.468614 0.650658
C10_3 C 0.0958(3) 0.53813(17) 0.5758(2)
H19_3 H 0.034119 0.507394 0.574307
H20_3 H 0.111320 0.544588 0.525359
C11_3 C 0.2649(2) 0.62106(17) 0.63125(19)
H21_3 H 0.308470 0.653501 0.663222
H22_3 H 0.304377 0.608644 0.590787
C12_3 C 0.1585(2) 0.65362(18) 0.6009(2)
H23_3 H 0.158591 0.665895 0.549177
H24_3 H 0.147681 0.695368 0.628401
N4_3 N 0.07079(18) 0.60465(13) 0.60756(14)
O5_3 O 0.50074(16) 0.56274(11) 0.60368(12)
N5_3 N 0.58008(18) 0.60443(13) 0.58294(13)
C13_3 C 0.6771(2) 0.60549(16) 0.63916(17)
H25_3 H 0.656440 0.613222 0.688045
H26_3 H 0.714518 0.561582 0.639642
C14_3 C 0.7494(2) 0.66210(17) 0.62031(17)
H27_3 H 0.824479 0.647435 0.630186
H28_3 H 0.740480 0.702329 0.650626
C15_3 C 0.6107(3) 0.57806(16) 0.51285(17)
H29_3 H 0.624488 0.528849 0.516768
H30_3 H 0.552325 0.585865 0.472560
C16_3 C 0.7115(2) 0.61552(16) 0.49763(18)
H31_3 H 0.706698 0.625952 0.445077
H32_3 H 0.774669 0.586714 0.511588
C17_3 C 0.5398(2) 0.67542(16) 0.57106(17)
H33_3 H 0.467903 0.674926 0.542685
H34_3 H 0.535257 0.697370 0.618501
C18_3 C 0.6158(2) 0.71487(16) 0.52975(18)
H35_3 H 0.623559 0.761797 0.548275
H36_3 H 0.587921 0.716480 0.477245
N6_3 N 0.72141(18) 0.67959(13) 0.54097(14)
O6_3 O 0.79636(16) 0.72223(11) 0.51632(12)
H38_3 H 0.936899 0.708995 0.409405
H39_3 H 0.932495 0.732617 0.292880
C23_3 C 0.9343(3) 0.84101(19) 0.42818(18)
H45_3 H 0.867949 0.820907 0.440760
H46_3 H 0.949052 0.882944 0.456956
C24_3 C 0.9214(2) 0.85752(16) 0.34704(17)
H47_3 H 0.924421 0.907087 0.340199
H48_3 H 0.851479 0.841293 0.323284
Zn5_2 Zn 0.56012(3) 0.22277(2) 0.93358(2)
O9_2 O 0.96208(17) 0.75519(11) 0.66663(12)
O10_2 O 0.97497(16) 0.62681(11) 0.57014(12)
O3_4 O 0.16362(16) 0.03142(11) 0.78856(13)
N3_4 N 0.25596(19) 0.05937(13) 0.82651(15)
C7_4 C 0.3288(2) 0.07874(17) 0.77219(18)
H13_4 H 0.334114 0.040997 0.737823
H14_4 H 0.300159 0.118726 0.743938
C8_4 C 0.4391(2) 0.09500(19) 0.81358(18)
H15_4 H 0.467290 0.136660 0.793718
H16_4 H 0.488726 0.057470 0.807848
C9_4 C 0.3079(3) 0.00728(16) 0.87737(19)
C10_4 C 0.4042(3) 0.03813(17) 0.9242(2)
H19_4 H 0.465881 0.007394 0.925693
H20_4 H 0.388680 0.044588 0.974641
C11_4 C 0.2351(2) 0.12106(17) 0.86875(19)
H21_4 H 0.191530 0.153501 0.836778
H22_4 H 0.195623 0.108644 0.909213
C12_4 C 0.3415(2) 0.15362(18) 0.8991(2)
H23_4 H 0.341409 0.165895 0.950823
H24_4 H 0.352319 0.195368 0.871599
N4_4 N 0.42921(18) 0.10465(13) 0.89244(14)
O4_2 O 0.52503(16) 0.12681(11) 0.92986(12)
H33_4 H 0.032097 0.174926 0.957315
H30_4 H 0.947675 0.085865 0.027440
C16_4 C 0.7885(2) 0.11552(16) 0.00237(18)
H31_4 H 0.793302 0.125952 0.054923
H36_4 H 0.912079 0.216480 0.022755
N7_2 N 0.47623(19) 0.29248(13) 0.05406(14)
C19_2 C 0.4953(3) 0.23016(16) 0.09904(18)
H37_2 H 0.437402 0.197272 0.085079
H38_4 H 0.563101 0.208995 0.090595
C20_2 C 0.4999(3) 0.24875(16) 0.17965(17)
H39_4 H 0.567505 0.232617 0.207120
H40_2 H 0.440725 0.226564 0.200036
C21_2 C 0.3751(2) 0.32474(19) 0.06946(18)
H41_2 H 0.359403 0.364777 0.037783
H42_2 H 0.315767 0.292313 0.058617
C22_2 C 0.3851(2) 0.34598(17) 0.14860(17)
H43_2 H 0.327855 0.324889 0.171960
H44_2 H 0.378079 0.395695 0.151874
C23_4 C 0.5657(3) 0.34101(19) 0.07182(18)
H45_4 H 0.632051 0.320907 0.059240
H46_4 H 0.550948 0.382944 0.043044
C24_4 C 0.5786(2) 0.35752(16) 0.15296(17)
H47_4 H 0.575579 0.407087 0.159801
H48_4 H 0.648521 0.341293 0.176716
N8_2 N 0.49171(19) 0.32415(13) 0.18728(14)
O1_4 O 0.92359(16) 0.01584(11) 0.72814(12)
O5_4 O 0.99926(16) 0.06274(11) 0.89632(12)
N5_4 N 0.91992(18) 0.10443(13) 0.91706(13)
C13_4 C 0.8229(2) 0.10549(16) 0.86084(17)
H25_4 H 0.843560 0.113222 0.811955
H26_4 H 0.785482 0.061582 0.860358
C14_4 C 0.7506(2) 0.16210(17) 0.87969(17)
H27_4 H 0.675521 0.147435 0.869814
H28_4 H 0.759520 0.202329 0.849374
C15_4 C 0.8893(3) 0.07806(16) 0.98715(17)
H29_4 H 0.875512 0.028849 0.983232
H32_4 H 0.725331 0.086714 0.988412
C17_4 C 0.9602(2) 0.17542(16) 0.92894(17)
H34_4 H 0.964743 0.197370 0.881499
C18_4 C 0.8842(2) 0.21487(16) 0.97025(18)
H35_4 H 0.876441 0.261797 0.951725
N6_4 N 0.77859(18) 0.17959(13) 0.95903(14)
O6_4 O 0.70364(16) 0.22223(11) 0.98368(12)
O7_2 O 0.46290(16) 0.27774(11) 0.97997(11)
N1_4 N 0.93615(19) 0.94727(13) 0.71369(14)
C1_4 C 0.9557(3) 0.90628(16) 0.78206(17)
H2_4 H 0.904458 0.919012 0.815313
C2_4 C 0.9424(3) 0.83086(16) 0.76120(17)
H3_4 H 0.872101 0.814437 0.770658
H4_4 H 0.997885 0.803603 0.790660
C3_4 C 0.8349(2) 0.92363(16) 0.67008(19)
H5_4 H 0.778190 0.920501 0.701516
H6_4 H 0.811972 0.956003 0.630300
C4_4 C 0.8551(2) 0.85398(16) 0.63843(18)
H7_4 H 0.865798 0.858541 0.586800
H8_4 H 0.793088 0.824192 0.640828
N2_4 N 0.9522(2) 0.82390(13) 0.68179(14)
O7_3 O 0.96290(16) 0.22226(11) 0.47997(11)
N7_3 N 0.97623(19) 0.20752(13) 0.55406(14)
C19_3 C 0.9953(3) 0.26984(16) 0.59904(18)
H37_3 H 0.937402 0.302728 0.585079
C20_3 C 0.9999(3) 0.25125(16) 0.67965(17)
H40_3 H 0.940725 0.273436 0.700036
C21_3 C 0.8751(2) 0.17526(19) 0.56946(18)
H41_3 H 0.859403 0.135223 0.537783
H42_3 H 0.815767 0.207687 0.558617
C22_3 C 0.8851(2) 0.15402(17) 0.64860(17)
H43_3 H 0.827855 0.175111 0.671960
H44_3 H 0.878079 0.104305 0.651874
N8_3 N 0.99171(19) 0.17585(13) 0.68728(14)
H1_3 H 0.971618 0.085301 0.192795
C5_3 C 0.9741(2) 0.06232(16) 0.33040(18)
H9_3 H 0.993922 0.043746 0.379976
H10_3 H 0.909994 0.038294 0.307113
C6_3 C 0.9516(2) 0.13815(16) 0.33447(17)
H11_3 H 0.889352 0.150277 0.298635
H12_3 H 0.935658 0.150060 0.383664
H17_3 H 0.743190 0.009592 0.091099
H18_3 H 0.669407 0.031386 0.150658
O7_4 O 0.03710(16) 0.77774(11) 0.52003(11)
N7_4 N 0.02377(19) 0.79248(13) 0.44594(14)
C19_4 C 0.0047(3) 0.73016(16) 0.40096(18)
H37_4 H 0.062598 0.697272 0.414921
C20_4 C 0.0001(3) 0.74875(16) 0.32035(17)
H40_4 H 0.059275 0.726564 0.299964
C21_4 C 0.1249(2) 0.82474(19) 0.43054(18)
H41_4 H 0.140597 0.864777 0.462217
H42_4 H 0.184233 0.792313 0.441383
C22_4 C 0.1149(2) 0.84598(17) 0.35140(17)
H43_4 H 0.172145 0.824889 0.328040
H44_4 H 0.121921 0.895695 0.348126
N8_4 N 0.00829(19) 0.82415(13) 0.31272(14)
H1_4 H 0.028382 0.914699 0.807205
C5_4 C 0.0259(2) 0.93768(16) 0.66960(18)
H9_4 H 0.006078 0.956254 0.620024
H10_4 H 0.090006 0.961706 0.692887
C6_4 C 0.0484(2) 0.86185(16) 0.66553(17)
H11_4 H 0.110648 0.849723 0.701365
H12_4 H 0.064342 0.849940 0.616336
H17_4 H 0.256810 0.990408 0.908901
H18_4 H 0.330593 0.968614 0.849342
Cl1 Cl 0.70988(10) 0.49948(6) 0.03636(7)
O12 O 0.6810(4) 0.5642(2) 0.0637(3)
O13 O 0.7295(6) 0.4574(3) 0.0965(3)
O14 O 0.8006(5) 0.5123(4) 0.0037(4)
O15 O 0.6302(5) 0.4769(3) 0.9866(3)
O12_2 O 0.8190(4) 0.0642(2) 0.4363(3)
O14_2 O 0.6994(5) 0.0123(4) 0.4963(4)
Cl1_2 Cl 0.79012(10) 0.99948(6) 0.46364(7)
O13_2 O 0.7705(6) 0.9574(3) 0.4035(3)
O15_2 O 0.8698(5) 0.9769(3) 0.5134(3)
O15_3 O 0.3698(5) 0.5231(3) 0.0134(3)
Cl1_3 Cl 0.29012(10) 0.50052(6) 0.96364(7)
O12_3 O 0.3190(4) 0.4358(2) 0.9363(3)
O13_3 O 0.2705(6) 0.5426(3) 0.9035(3)
O14_3 O 0.1994(5) 0.4877(4) 0.9963(4)
Cl1_4 Cl 0.20988(10) 0.00052(6) 0.53636(7)
O13_4 O 0.2295(6) 0.0426(3) 0.5965(3)
O15_4 O 0.1302(5) 0.0231(3) 0.4866(3)
O12_4 O 0.1810(4) 0.9358(2) 0.5637(3)
O14_4 O 0.3006(5) 0.9877(4) 0.5037(4)
N9 N 0.2972(2) 0.26449(17) 0.69351(18)
O16 O 0.2976(2) 0.32513(15) 0.67560(15)
O17 O 0.3392(3) 0.22107(19) 0.6599(2)
O18 O 0.2538(2) 0.24765(15) 0.74780(16)
N9_2 N 0.2028(2) 0.76449(17) 0.80649(18)
O16_2 O 0.2024(2) 0.82513(15) 0.82440(15)
O17_2 O 0.1608(3) 0.72107(19) 0.8401(2)
O18_2 O 0.2462(2) 0.74765(15) 0.75220(16)
N9_3 N 0.7028(2) 0.73551(17) 0.30649(18)
O16_3 O 0.7024(2) 0.67487(15) 0.32440(15)
O17_3 O 0.6608(3) 0.77893(19) 0.3401(2)
O18_3 O 0.7462(2) 0.75235(15) 0.25220(16)
N9_4 N 0.7972(2) 0.23551(17) 0.19351(18)
O16_4 O 0.7976(2) 0.17487(15) 0.17560(15)
O17_4 O 0.8392(3) 0.27893(19) 0.1599(2)
O18_4 O 0.7538(2) 0.25235(15) 0.24780(16)
N10 N 0.8499(2) 0.45072(15) 0.62696(19)
O19 O 0.7915(3) 0.46592(16) 0.56866(17)
O20 O 0.9384(2) 0.42385(15) 0.6239(2)
O21 O 0.8195(3) 0.4634(2) 0.68475(19)
N10_2 N 0.6501(2) 0.95072(15) 0.87304(19)
O19_2 O 0.7085(3) 0.96592(16) 0.93134(17)
O20_2 O 0.5616(2) 0.92385(15) 0.8761(2)
O21_2 O 0.6805(3) 0.9634(2) 0.81525(19)
N10_3 N 0.1501(2) 0.54928(15) 0.37304(19)
O19_3 O 0.2085(3) 0.53408(16) 0.43134(17)
O20_3 O 0.0616(2) 0.57615(15) 0.3761(2)
O21_3 O 0.1805(3) 0.5366(2) 0.31525(19)
N10_4 N 0.3499(2) 0.04928(15) 0.12696(19)
O19_4 O 0.2915(3) 0.03408(16) 0.06866(17)
O20_4 O 0.4384(2) 0.07615(15) 0.1239(2)
O21_4 O 0.3195(3) 0.0366(2) 0.18475(19)
N11 N 0.3206(2) 0.68765(15) 0.42007(15)
O22 O 0.25471(19) 0.69717(16) 0.36371(14)
O23 O 0.41215(18) 0.66804(15) 0.41361(13)
O24 O 0.2938(2) 0.69781(16) 0.48094(14)
N11_2 N 0.1794(2) 0.18765(15) 0.07993(15)
O22_2 O 0.24529(19) 0.19717(16) 0.13629(14)
O23_2 O 0.08785(18) 0.16804(15) 0.08639(13)
O24_2 O 0.2062(2) 0.19781(16) 0.01906(14)
N11_3 N 0.6794(2) 0.31235(15) 0.57993(15)
O22_3 O 0.74529(19) 0.30283(16) 0.63629(14)
O23_3 O 0.58785(18) 0.33196(15) 0.58639(13)
O24_3 O 0.7062(2) 0.30219(16) 0.51906(14)
N11_4 N 0.8206(2) 0.81235(15) 0.92007(15)
O22_4 O 0.75471(19) 0.80283(16) 0.86371(14)
O23_4 O 0.91215(18) 0.83196(15) 0.91361(13)
O24_4 O 0.7938(2) 0.80219(16) 0.98094(14)
loop_
_geom_bond_atom_site_label_1
_geom_bond_atom_site_label_2
_geom_bond_site_symmetry_1
_geom_bond_site_symmetry_2
Zn4 O4 1_555 1_555
Zn1 O1 1_555 1_555
Zn4 O6 1_555 1_555
O1 N1 1_555 1_555
N1 C1 1_555 1_555
C1 H1 1_555 1_555
H2 C1 1_555 1_555
C2 C1 1_555 1_555
H3 C2 1_555 1_555
H4 C2 1_555 1_555
C3 N1 1_555 1_555
H5 C3 1_555 1_555
H6 C3 1_555 1_555
C4 C3 1_555 1_555
H7 C4 1_555 1_555
H8 C4 1_555 1_555
C5 N1 1_555 1_555
H9 C5 1_555 1_555
H10 C5 1_555 1_555
C6 C5 1_555 1_555
H11 C6 1_555 1_555
H12 C6 1_555 1_555
N2 C2 1_555 1_555
O2 N2 1_555 1_555
O3 Zn1 1_555 1_555
N3 O3 1_555 1_555
C7 N3 1_555 1_555
H13 C7 1_555 1_555
H14 C7 1_555 1_555
C8 C7 1_555 1_555
H15 C8 1_555 1_555
H16 C8 1_555 1_555
C9 N3 1_555 1_555
H17 C9 1_555 1_555
H18 C9 1_555 1_555
C10 C9 1_555 1_555
H19 C10 1_555 1_555
H20 C10 1_555 1_555
C11 N3 1_555 1_555
H21 C11 1_555 1_555
H22 C11 1_555 1_555
C12 C11 1_555 1_555
H23 C12 1_555 1_555
H24 C12 1_555 1_555
N4 C8 1_555 1_555
O5 Zn1 1_555 1_555
N5 O5 1_555 1_555
C13 N5 1_555 1_555
H25 C13 1_555 1_555
H26 C13 1_555 1_555
C14 C13 1_555 1_555
H27 C14 1_555 1_555
H28 C14 1_555 1_555
C15 N5 1_555 1_555
H29 C15 1_555 1_555
H30 C15 1_555 1_555
C16 C15 1_555 1_555
H31 C16 1_555 1_555
H32 C16 1_555 1_555
C17 N5 1_555 1_555
H33 C17 1_555 1_555
H34 C17 1_555 1_555
C18 C17 1_555 1_555
H35 C18 1_555 1_555
H36 C18 1_555 1_555
N6 C14 1_555 1_555
O6 N6 1_555 1_555
H45 C23 1_555 1_555
H46 C23 1_555 1_555
C24 C23 1_555 1_555
H47 C24 1_555 1_555
H48 C24 1_555 1_555
Zn3 O8 1_555 1_555
Zn5 O2 1_555 1_555
O9 Zn4 1_555 1_555
O11 Zn1 1_555 1_555
C4 N2 1_555 1_555
C6 N2 1_555 1_555
C10 N4 1_555 1_555
C12 N4 1_555 1_555
C16 N6 1_555 1_555
C18 N6 1_555 1_555
N1_2 C1_2 1_555 1_555
H2_2 C1_2 1_555 1_555
C2_2 C1_2 1_555 1_555
H3_2 C2_2 1_555 1_555
H4_2 C2_2 1_555 1_555
C3_2 N1_2 1_555 1_555
H5_2 C3_2 1_555 1_555
H6_2 C3_2 1_555 1_555
C4_2 C3_2 1_555 1_555
H7_2 C4_2 1_555 1_555
H8_2 C4_2 1_555 1_555
N2_2 C2_2 1_555 1_555
O9 N2_2 1_555 1_555
C4_2 N2_2 1_555 1_555
Zn5 O6_2 1_555 1_555
N5_2 O5_2 1_555 1_555
C13_2 N5_2 1_555 1_555
H25_2 C13_2 1_555 1_555
H26_2 C13_2 1_555 1_555
C14_2 C13_2 1_555 1_555
H27_2 C14_2 1_555 1_555
H28_2 C14_2 1_555 1_555
C15_2 N5_2 1_555 1_555
H29_2 C15_2 1_555 1_555
C17_2 N5_2 1_555 1_555
H34_2 C17_2 1_555 1_555
C18_2 C17_2 1_555 1_555
H35_2 C18_2 1_555 1_555
N6_2 C14_2 1_555 1_555
O6_2 N6_2 1_555 1_555
O7 Zn5 1_555 1_555
O10 Zn5 1_555 1_555
C18_2 N6_2 1_555 1_555
H31_2 C16_2 1_555 1_555
C19 N7 1_555 1_555
H37 C19 1_555 1_555
H38_2 C19 1_555 1_555
C20 C19 1_555 1_555
H39_2 C20 1_555 1_555
H40 C20 1_555 1_555
C21 N7 1_555 1_555
H41 C21 1_555 1_555
H42 C21 1_555 1_555
C22 C21 1_555 1_555
H43 C22 1_555 1_555
H44 C22 1_555 1_555
C23_2 N7 1_555 1_555
H45_2 C23_2 1_555 1_555
H46_2 C23_2 1_555 1_555
C24_2 C23_2 1_555 1_555
H47_2 C24_2 1_555 1_555
H48_2 C24_2 1_555 1_555
N8 C20 1_555 1_555
O8_2 N8 1_555 1_555
Zn3_2 O8_2 1_555 1_555
C22 N8 1_555 1_555
C24_2 N8 1_555 1_555
O3_2 Zn1_2 1_555 1_555
N3_2 O3_2 1_555 1_555
C7_2 N3_2 1_555 1_555
H13_2 C7_2 1_555 1_555
H14_2 C7_2 1_555 1_555
C8_2 C7_2 1_555 1_555
H15_2 C8_2 1_555 1_555
H16_2 C8_2 1_555 1_555
C9_2 N3_2 1_555 1_555
C10_2 C9_2 1_555 1_555
H19_2 C10_2 1_555 1_555
H20_2 C10_2 1_555 1_555
C11_2 N3_2 1_555 1_555
H21_2 C11_2 1_555 1_555
H22_2 C11_2 1_555 1_555
C12_2 C11_2 1_555 1_555
H23_2 C12_2 1_555 1_555
H24_2 C12_2 1_555 1_555
N4_2 C8_2 1_555 1_555
O10 N4_2 1_555 1_555
O11_2 Zn1_2 1_555 1_555
C10_2 N4_2 1_555 1_555
C12_2 N4_2 1_555 1_555
Zn3_2 O1_3 1_555 1_555
Zn2 O6_3 1_555 1_555
O1_3 N1_3 1_555 1_555
N1_3 C1_3 1_555 1_555
C1_3 H1_2 1_555 1_555
H2_3 C1_3 1_555 1_555
C2_3 C1_3 1_555 1_555
H3_3 C2_3 1_555 1_555
H4_3 C2_3 1_555 1_555
C3_3 N1_3 1_555 1_555
H5_3 C3_3 1_555 1_555
H6_3 C3_3 1_555 1_555
C4_3 C3_3 1_555 1_555
H7_3 C4_3 1_555 1_555
H8_3 C4_3 1_555 1_555
C5_2 N1_3 1_555 1_555
H9_2 C5_2 1_555 1_555
H10_2 C5_2 1_555 1_555
C6_2 C5_2 1_555 1_555
H11_2 C6_2 1_555 1_555
H12_2 C6_2 1_555 1_555
N2_3 C2_3 1_555 1_555
O2_2 N2_3 1_555 1_555
O3_3 Zn3_2 1_555 1_555
N3_3 O3_3 1_555 1_555
C7_3 N3_3 1_555 1_555
H13_3 C7_3 1_555 1_555
H14_3 C7_3 1_555 1_555
C8_3 C7_3 1_555 1_555
H15_3 C8_3 1_555 1_555
H16_3 C8_3 1_555 1_555
C9_3 N3_3 1_555 1_555
H17_2 C9_3 1_555 1_555
H18_2 C9_3 1_555 1_555
C10_3 C9_3 1_555 1_555
H19_3 C10_3 1_555 1_555
H20_3 C10_3 1_555 1_555
C11_3 N3_3 1_555 1_555
H21_3 C11_3 1_555 1_555
H22_3 C11_3 1_555 1_555
C12_3 C11_3 1_555 1_555
H23_3 C12_3 1_555 1_555
H24_3 C12_3 1_555 1_555
N4_3 C8_3 1_555 1_555
O5_3 Zn3_2 1_555 1_555
N5_3 O5_3 1_555 1_555
C13_3 N5_3 1_555 1_555
H25_3 C13_3 1_555 1_555
H26_3 C13_3 1_555 1_555
C14_3 C13_3 1_555 1_555
H27_3 C14_3 1_555 1_555
H28_3 C14_3 1_555 1_555
C15_3 N5_3 1_555 1_555
H29_3 C15_3 1_555 1_555
H30_3 C15_3 1_555 1_555
C16_3 C15_3 1_555 1_555
H31_3 C16_3 1_555 1_555
H32_3 C16_3 1_555 1_555
C17_3 N5_3 1_555 1_555
H33_3 C17_3 1_555 1_555
H34_3 C17_3 1_555 1_555
C18_3 C17_3 1_555 1_555
H35_3 C18_3 1_555 1_555
H36_3 C18_3 1_555 1_555
N6_3 C14_3 1_555 1_555
O6_3 N6_3 1_555 1_555
H45_3 C23_3 1_555 1_555
H46_3 C23_3 1_555 1_555
C24_3 C23_3 1_555 1_555
H47_3 C24_3 1_555 1_555
H48_3 C24_3 1_555 1_555
Zn5_2 O2_2 1_555 1_555
O9_2 Zn2 1_555 1_555
O10_2 Zn2 1_555 1_555
C4_3 N2_3 1_555 1_555
C6_2 N2_3 1_555 1_555
C10_3 N4_3 1_555 1_555
C12_3 N4_3 1_555 1_555
C16_3 N6_3 1_555 1_555
C18_3 N6_3 1_555 1_555
O3_4 Zn3 1_555 1_555
N3_4 O3_4 1_555 1_555
C7_4 N3_4 1_555 1_555
H13_4 C7_4 1_555 1_555
H14_4 C7_4 1_555 1_555
C8_4 C7_4 1_555 1_555
H15_4 C8_4 1_555 1_555
H16_4 C8_4 1_555 1_555
C9_4 N3_4 1_555 1_555
C10_4 C9_4 1_555 1_555
H19_4 C10_4 1_555 1_555
H20_4 C10_4 1_555 1_555
C11_4 N3_4 1_555 1_555
H21_4 C11_4 1_555 1_555
H22_4 C11_4 1_555 1_555
C12_4 C11_4 1_555 1_555
H23_4 C12_4 1_555 1_555
H24_4 C12_4 1_555 1_555
N4_4 C8_4 1_555 1_555
O4_2 N4_4 1_555 1_555
Zn5_2 O4_2 1_555 1_555
C10_4 N4_4 1_555 1_555
C12_4 N4_4 1_555 1_555
H31_4 C16_4 1_555 1_555
C19_2 N7_2 1_555 1_555
H37_2 C19_2 1_555 1_555
H38_4 C19_2 1_555 1_555
C20_2 C19_2 1_555 1_555
H39_4 C20_2 1_555 1_555
H40_2 C20_2 1_555 1_555
C21_2 N7_2 1_555 1_555
H41_2 C21_2 1_555 1_555
H42_2 C21_2 1_555 1_555
C22_2 C21_2 1_555 1_555
H43_2 C22_2 1_555 1_555
H44_2 C22_2 1_555 1_555
C23_4 N7_2 1_555 1_555
H45_4 C23_4 1_555 1_555
H46_4 C23_4 1_555 1_555
C24_4 C23_4 1_555 1_555
H47_4 C24_4 1_555 1_555
H48_4 C24_4 1_555 1_555
N8_2 C20_2 1_555 1_555
O11 N8_2 1_555 1_555
C22_2 N8_2 1_555 1_555
C24_4 N8_2 1_555 1_555
Zn5_2 O6_4 1_555 1_555
N5_4 O5_4 1_555 1_555
C13_4 N5_4 1_555 1_555
H25_4 C13_4 1_555 1_555
H26_4 C13_4 1_555 1_555
C14_4 C13_4 1_555 1_555
H27_4 C14_4 1_555 1_555
H28_4 C14_4 1_555 1_555
C15_4 N5_4 1_555 1_555
H29_4 C15_4 1_555 1_555
C17_4 N5_4 1_555 1_555
H34_4 C17_4 1_555 1_555
C18_4 C17_4 1_555 1_555
H35_4 C18_4 1_555 1_555
N6_4 C14_4 1_555 1_555
O6_4 N6_4 1_555 1_555
O7_2 Zn5_2 1_555 1_555
C18_4 N6_4 1_555 1_555
N1_4 C1_4 1_555 1_555
H2_4 C1_4 1_555 1_555
C2_4 C1_4 1_555 1_555
H3_4 C2_4 1_555 1_555
H4_4 C2_4 1_555 1_555
C3_4 N1_4 1_555 1_555
H5_4 C3_4 1_555 1_555
H6_4 C3_4 1_555 1_555
C4_4 C3_4 1_555 1_555
H7_4 C4_4 1_555 1_555
H8_4 C4_4 1_555 1_555
N2_4 C2_4 1_555 1_555
O9_2 N2_4 1_555 1_555
C4_4 N2_4 1_555 1_555
N7_3 O7_3 1_555 1_555
C19_3 N7_3 1_555 1_555
H37_3 C19_3 1_555 1_555
C20_3 C19_3 1_555 1_555
H40_3 C20_3 1_555 1_555
C21_3 N7_3 1_555 1_555
H41_3 C21_3 1_555 1_555
H42_3 C21_3 1_555 1_555
C22_3 C21_3 1_555 1_555
H43_3 C22_3 1_555 1_555
H44_3 C22_3 1_555 1_555
N8_3 C20_3 1_555 1_555
C22_3 N8_3 1_555 1_555
H9_3 C5_3 1_555 1_555
H10_3 C5_3 1_555 1_555
C6_3 C5_3 1_555 1_555
H11_3 C6_3 1_555 1_555
H12_3 C6_3 1_555 1_555
N7_4 O7_4 1_555 1_555
C19_4 N7_4 1_555 1_555
H37_4 C19_4 1_555 1_555
C20_4 C19_4 1_555 1_555
H40_4 C20_4 1_555 1_555
C21_4 N7_4 1_555 1_555
H41_4 C21_4 1_555 1_555
H42_4 C21_4 1_555 1_555
C22_4 C21_4 1_555 1_555
H43_4 C22_4 1_555 1_555
H44_4 C22_4 1_555 1_555
N8_4 C20_4 1_555 1_555
C22_4 N8_4 1_555 1_555
H9_4 C5_4 1_555 1_555
H10_4 C5_4 1_555 1_555
C6_4 C5_4 1_555 1_555
H11_4 C6_4 1_555 1_555
H12_4 C6_4 1_555 1_555
Cl1 O12 1_555 1_555
O13 Cl1 1_555 1_555
O14 Cl1 1_555 1_555
O13_2 Cl1_2 1_555 1_555
O15_2 Cl1_2 1_555 1_555
Cl1_3 O12_3 1_555 1_555
O13_3 Cl1_3 1_555 1_555
O14_3 Cl1_3 1_555 1_555
O13_4 Cl1_4 1_555 1_555
O15_4 Cl1_4 1_555 1_555
N9 O16 1_555 1_555
O17 N9 1_555 1_555
O18 N9 1_555 1_555
N9_2 O16_2 1_555 1_555
O17_2 N9_2 1_555 1_555
O18_2 N9_2 1_555 1_555
N9_3 O16_3 1_555 1_555
O17_3 N9_3 1_555 1_555
O18_3 N9_3 1_555 1_555
N9_4 O16_4 1_555 1_555
O17_4 N9_4 1_555 1_555
O18_4 N9_4 1_555 1_555
N10 O19 1_555 1_555
O20 N10 1_555 1_555
O21 N10 1_555 1_555
N10_2 O19_2 1_555 1_555
O20_2 N10_2 1_555 1_555
O21_2 N10_2 1_555 1_555
N10_3 O19_3 1_555 1_555
O20_3 N10_3 1_555 1_555
O21_3 N10_3 1_555 1_555
N10_4 O19_4 1_555 1_555
O20_4 N10_4 1_555 1_555
O21_4 N10_4 1_555 1_555
N11 O22 1_555 1_555
O23 N11 1_555 1_555
O24 N11 1_555 1_555
N11_2 O22_2 1_555 1_555
O23_2 N11_2 1_555 1_555
O24_2 N11_2 1_555 1_555
N11_3 O22_3 1_555 1_555
O23_3 N11_3 1_555 1_555
O24_3 N11_3 1_555 1_555
N11_4 O22_4 1_555 1_555
O23_4 N11_4 1_555 1_555
O24_4 N11_4 1_555 1_555

#END
