
###############################################################################
#
# This file contains modified crystal structure data generated from the
# MOF subset of the Cambridge Structural Database (CSD) v543 
# hosted by the Cambridge Crystallographic Data Centre (CCDC).
#
# This work is licensed under the Creative Commons
# Attribution-NonCommercial-ShareAlike 4.0 International License.
# To view a copy of this license, visit
# http://creativecommons.org/licenses/by-nc-sa/4.0/
# or send a letter to
# Creative Commons, PO Box 1866, Mountain View, CA 94042, USA.
#
# CIF created using the CSD Python API on 29 September 2022
# The structure has been converted into the P1 space group
# The structure has a 3D framework
# The original CSD entry SAZPIV is in the rhombohedral crystal system
# The framework has been calculated to contain at least 10.0% void space
# The void calculation uses a probe of radius 1.32A, grid spacing 0.4
# H atom positions have been added when not included in the experimental data
#
###############################################################################

data_SAZPIV
_chemical_formula_moiety         '(C432 H360 Eu18 N18 O176)n'
_symmetry_cell_setting           triclinic
_symmetry_space_group_name_H-M   'P 1'
_symmetry_Int_Tables_number      1
_space_group_name_Hall           'P 1'
loop_
_symmetry_equiv_pos_site_id
_symmetry_equiv_pos_as_xyz
1 x,y,z
_cell_length_a                   39.982(3)
_cell_length_b                   39.982(3)
_cell_length_c                   9.0356(8)
_cell_angle_alpha                90
_cell_angle_beta                 90
_cell_angle_gamma                120
_cell_volume                     12508.8
loop_
_atom_site_label
_atom_site_type_symbol
_atom_site_fract_x
_atom_site_fract_y
_atom_site_fract_z
C9 C 0.0220(2) 0.1434(3) 0.0235(12)
C10 C 0.0389(3) 0.1400(3) 0.1532(12)
H5 H 0.0244 0.1207 0.2211
C11 C 0.0774(3) 0.1657(3) 0.1799(11)
H6 H 0.0894 0.1632 0.2640
C12 C 0.0977(2) 0.1950(4) 0.0795(10)
H7 H 0.1236 0.2124 0.0984
O3 O 0.02420(13) 0.17288(14) 0.7966(5)
O4 O 0.14044(13) 0.25657(19) 0.8915(5)
O5 O 0.09259(13) 0.23787(19) 0.7337(5)
H2 H 0.0162 0.2157 0.9922
C8 C 0.0427(2) 0.1725(2) 0.9246(8)
C13 C 0.08138(19) 0.19968(28) 0.9527(8)
C14 C 0.1058(2) 0.23291(28) 0.8524(8)
H11 H 0.0014 0.3051 0.8864
Eu3 Eu 0.153348(10) 0.293995(13) 0.65586(4)
O6 O 0.91548(14) 0.21658(14) 0.2768(6)
O7 O 0.86298(12) 0.20373(13) 0.1555(5)
O8 O 0.97227(13) 0.24244(13) 0.0380(5)
H4 H 0.9963 0.1256 0.0037
C15 C 0.89966(19) 0.22445(18) 0.1745(7)
C16 C 0.92168(18) 0.25803(18) 0.0749(7)
C17 C 0.9071(2) 0.2819(2) 0.0428(7)
H8 H 0.8835 0.2765 0.0825
C21 C 0.95730(19) 0.26665(19) 0.0137(7)
Eu2 Eu 0.859353(9) 0.153348(10) 0.34414(4)
O1 O 0.88684(13) 0.18119(13) 0.5886(5)
O2 O 0.91423(13) 0.15377(14) 0.4664(5)
O9 O 0.81950(14) 0.17697(14) 0.4530(5)
O10 O 0.82253(15) 0.10669(15) 0.5300(6)
N1 N 0.7996(2) 0.0513(2) 0.6632(7)
C1 C 0.91298(18) 0.17223(18) 0.5755(7)
C2 C 0.94319(17) 0.18476(17) 0.6952(7)
C3 C 0.94255(18) 0.20787(18) 0.8089(7)
H1 H 0.9239 0.2153 0.8109
C4 C 0.97048(18) 0.21961(18) 0.9198(7)
C5 C 0.99774(18) 0.20797(19) 0.9178(7)
C6 C 0.99718(17) 0.18490(18) 0.8047(8)
C7 C 0.97032(17) 0.17303(18) 0.6913(7)
H3 H 0.9706 0.1576 0.6147
C18 C 0.9271(2) 0.3139(2) 0.9520(8)
H9 H 0.9165 0.3294 0.9294
C19 C 0.9620(2) 0.3226(2) 0.8962(8)
H10 H 0.9757 0.3445 0.8377
C20 C 0.9775(2) 0.2991(2) 0.9256(8)
C22 C 0.8206(2) 0.0756(3) 0.5583(9)
H12 H 0.8353 0.0686 0.4999
C23 C 0.7761(3) 0.0604(3) 0.7597(11)
H13 H 0.7791 0.0849 0.7321
H14 H 0.7843 0.0615 0.8604
H15 H 0.7495 0.0408 0.7504
C24 C 0.7974(4) 0.0138(3) 0.6802(12)
H16 H 0.8106 0.0098 0.5995
H18 H 0.8092 0.0133 0.7720
Eu4 Eu 0.807314(9) 0.179985(10) 0.98919(4)
O11 O 0.88387(23) 0.14044(13) 0.1085(5)
O12 O 0.85472(23) 0.09259(13) 0.2663(5)
O15 O 0.80369(12) 0.12960(13) 0.1778(5)
H19 H 0.835508 0.205153 0.471494
H20 H 0.798178 0.172035 0.38401
O6_2 O 0.78342(14) 0.69890(20) 0.2768(6)
O7_2 O 0.79627(13) 0.65925(18) 0.1555(5)
O8_2 O 0.75756(13) 0.72983(18) 0.0380(5)
C9_2 C 0.8566(3) 0.8786(4) 0.0235(12)
H4_2 H 0.8744 0.8707 0.0037
C10_2 C 0.8600(3) 0.8989(4) 0.1532(12)
H5_2 H 0.8793 0.9037 0.2211
C11_2 C 0.8343(3) 0.9117(4) 0.1799(11)
H6_2 H 0.8368 0.9262 0.2640
C12_2 C 0.8050(4) 0.9027(4) 0.0795(10)
H7_2 H 0.7876 0.9112 0.0984
C15_2 C 0.77555(18) 0.67521(26) 0.1745(7)
C16_2 C 0.74197(18) 0.66365(25) 0.0749(7)
C17_2 C 0.7181(2) 0.6252(3) 0.0428(7)
H8_2 H 0.7235 0.6070 0.0825
C21_2 C 0.73335(19) 0.69065(27) 0.0137(7)
Eu2_2 Eu 0.846652(10) 0.706005(13) 0.34414(4)
O1_2 O 0.81881(13) 0.70565(18) 0.5886(5)
O2_2 O 0.84623(14) 0.76046(19) 0.4664(5)
O3_2 O 0.82712(14) 0.85132(19) 0.7966(5)
O4_2 O 0.74343(19) 0.88387(23) 0.8915(5)
O5_2 O 0.76213(19) 0.85472(23) 0.7337(5)
O9_2 O 0.82303(14) 0.64253(20) 0.4530(5)
O10_2 O 0.89331(15) 0.71584(21) 0.5300(6)
N1_2 N 0.9487(2) 0.7483(3) 0.6632(7)
C1_2 C 0.82777(18) 0.74075(25) 0.5755(7)
C2_2 C 0.81524(17) 0.75843(24) 0.6952(7)
C3_2 C 0.79213(18) 0.73468(25) 0.8089(7)
H1_2 H 0.7847 0.7086 0.8109
C4_2 C 0.78039(18) 0.75087(25) 0.9198(7)
C5_2 C 0.79203(19) 0.78977(26) 0.9178(7)
H2_2 H 0.7843 0.8005 0.9922
C6_2 C 0.81510(18) 0.81228(25) 0.8047(8)
C7_2 C 0.82697(18) 0.79729(25) 0.6913(7)
H3_2 H 0.8424 0.8130 0.6147
C8_2 C 0.8275(2) 0.8702(3) 0.9246(8)
C13_2 C 0.80032(28) 0.88170(34) 0.9527(8)
C14_2 C 0.76709(28) 0.87289(34) 0.8524(8)
C18_2 C 0.6861(2) 0.6132(3) 0.9520(8)
H9_2 H 0.6706 0.5871 0.9294
C19_2 C 0.6774(2) 0.6394(3) 0.8962(8)
H10_2 H 0.6555 0.6312 0.8377
C20_2 C 0.7009(2) 0.6784(3) 0.9256(8)
H11_2 H 0.6949 0.6963 0.8864
C22_2 C 0.9244(3) 0.7450(4) 0.5583(9)
H12_2 H 0.9314 0.7667 0.4999
C23_2 C 0.9396(3) 0.7157(4) 0.7597(11)
H13_2 H 0.9151 0.6942 0.7321
H14_2 H 0.9385 0.7228 0.8604
H15_2 H 0.9592 0.7087 0.7504
C24_2 C 0.9862(3) 0.7836(5) 0.6802(12)
H16_2 H 0.9902 0.8008 0.5995
H18_2 H 0.9867 0.7959 0.7720
Eu3_2 Eu 0.706005(13) 0.859353(16) 0.65586(4)
Eu4_2 Eu 0.820015(10) 0.627328(13) 0.98919(4)
O11_2 O 0.85956(13) 0.74343(26) 0.1085(5)
O12_2 O 0.90741(13) 0.76213(26) 0.2663(5)
O15_2 O 0.87040(13) 0.67408(18) 0.1778(5)
H19_2 H 0.794847 0.630355 0.471494
H20_2 H 0.827965 0.626143 0.38401
O6_3 O 0.30110(20) 0.08452(14) 0.2768(6)
O7_3 O 0.34075(18) 0.13702(12) 0.1555(5)
O8_3 O 0.27017(18) 0.02773(13) 0.0380(5)
H4_3 H 0.1293 0.0037 0.0037
C15_3 C 0.32479(26) 0.10034(19) 0.1745(7)
C16_3 C 0.33635(25) 0.07832(18) 0.0749(7)
C17_3 C 0.3748(3) 0.0929(2) 0.0428(7)
H8_3 H 0.3930 0.1165 0.0825
C21_3 C 0.30935(27) 0.04270(19) 0.0137(7)
Eu2_3 Eu 0.293995(13) 0.140647(9) 0.34414(4)
O1_3 O 0.29435(18) 0.11316(13) 0.5886(5)
O2_3 O 0.23954(19) 0.08577(13) 0.4664(5)
O9_3 O 0.35747(20) 0.18050(14) 0.4530(5)
O10_3 O 0.28416(21) 0.17747(15) 0.5300(6)
N1_3 N 0.2517(3) 0.2004(2) 0.6632(7)
C1_3 C 0.25925(25) 0.08702(18) 0.5755(7)
C2_3 C 0.24157(24) 0.05681(17) 0.6952(7)
C3_3 C 0.26532(25) 0.05745(18) 0.8089(7)
H1_3 H 0.2914 0.0761 0.8109
C4_3 C 0.24913(25) 0.02952(18) 0.9198(7)
C5_3 C 0.21023(26) 0.00226(18) 0.9178(7)
C6_3 C 0.18772(25) 0.00282(17) 0.8047(8)
C7_3 C 0.20271(25) 0.02968(17) 0.6913(7)
H3_3 H 0.1870 0.0294 0.6147
C18_3 C 0.3868(3) 0.0729(2) 0.9520(8)
H9_3 H 0.4129 0.0835 0.9294
C19_3 C 0.3606(3) 0.0380(2) 0.8962(8)
H10_3 H 0.3688 0.0243 0.8377
C20_3 C 0.3216(3) 0.0225(2) 0.9256(8)
C22_3 C 0.2550(4) 0.1794(2) 0.5583(9)
H12_3 H 0.2333 0.1647 0.4999
C23_3 C 0.2843(4) 0.2239(3) 0.7597(11)
H13_3 H 0.3058 0.2209 0.7321
H14_3 H 0.2772 0.2157 0.8604
H15_3 H 0.2913 0.2505 0.7504
C24_3 C 0.2164(5) 0.2026(4) 0.6802(12)
H16_3 H 0.1992 0.1894 0.5995
H17 H 0.2229 0.2292 0.6803
H18_3 H 0.2041 0.1908 0.7720
Eu4_3 Eu 0.372672(13) 0.192686(9) 0.98919(4)
O11_3 O 0.25657(26) 0.11613(23) 0.1085(5)
O12_3 O 0.23787(26) 0.14528(23) 0.2663(5)
O15_3 O 0.32592(18) 0.19631(12) 0.1778(5)
H19_3 H 0.369645 0.164492 0.471494
H20_3 H 0.373857 0.201822 0.38401
O3_3 O 0.14868(19) 0.97580(13) 0.7966(5)
O4_3 O 0.11613(23) 0.85956(13) 0.8915(5)
O5_3 O 0.14528(23) 0.90741(13) 0.7337(5)
H2_3 H 0.1995 0.9838 0.9922
C8_3 C 0.1298(3) 0.9573(2) 0.9246(8)
C13_3 C 0.11830(34) 0.91862(19) 0.9527(8)
C14_3 C 0.12711(34) 0.8942(2) 0.8524(8)
H11_3 H 0.3037 0.9986 0.8864
Eu3_3 Eu 0.140647(16) 0.846652(10) 0.65586(4)
O3_4 O 0.69087(13) 0.50621(14) 0.1299(5)
O4_4 O 0.80711(13) 0.58990(19) 0.2248(5)
O5_4 O 0.75926(13) 0.57120(19) 0.0670(5)
O6_4 O 0.58215(14) 0.54991(14) 0.6101(6)
O7_4 O 0.52965(12) 0.53706(13) 0.4888(5)
O8_4 O 0.63894(13) 0.57577(13) 0.3713(5)
C2_4 C 0.60986(17) 0.51809(17) 0.0285(7)
C3_4 C 0.60922(18) 0.54120(18) 0.1422(7)
H1_4 H 0.5906 0.5486 0.1442
C4_4 C 0.63715(18) 0.55294(18) 0.2531(7)
C5_4 C 0.66441(18) 0.54130(19) 0.2511(7)
H2_4 H 0.6829 0.5490 0.3255
C6_4 C 0.66385(17) 0.51823(18) 0.1380(8)
C7_4 C 0.63699(17) 0.50636(18) 0.0246(7)
C8_4 C 0.7094(2) 0.5058(2) 0.2579(8)
C9_3 C 0.6887(2) 0.4767(3) 0.3568(12)
H4_4 H 0.6630 0.4589 0.3370
C10_3 C 0.7056(3) 0.4733(3) 0.4865(12)
H5_3 H 0.6911 0.4540 0.5544
C11_3 C 0.7441(3) 0.4990(3) 0.5132(11)
H6_3 H 0.7561 0.4965 0.5973
C12_3 C 0.7644(2) 0.5283(4) 0.4128(10)
H7_3 H 0.7903 0.5457 0.4317
C13_4 C 0.74805(19) 0.53301(28) 0.2860(8)
C14_4 C 0.7725(2) 0.56624(28) 0.1857(8)
C15_4 C 0.56633(19) 0.55778(18) 0.5078(7)
C16_4 C 0.58835(18) 0.59136(18) 0.4082(7)
C17_4 C 0.5738(2) 0.6152(2) 0.3761(7)
H8_4 H 0.5502 0.6098 0.4158
C18_4 C 0.5938(2) 0.6472(2) 0.2853(8)
H9_4 H 0.5832 0.6627 0.2627
C19_4 C 0.6287(2) 0.6559(2) 0.2295(8)
H10_4 H 0.6424 0.6778 0.1710
C20_4 C 0.6442(2) 0.6324(2) 0.2589(8)
H11_4 H 0.6681 0.6384 0.2197
C21_4 C 0.62397(19) 0.59998(19) 0.3470(7)
C23_4 C 0.4428(3) 0.3937(3) 0.0930(11)
H13_4 H 0.4458 0.4182 0.0654
H14_4 H 0.4510 0.3948 0.1937
H15_4 H 0.4162 0.3741 0.0837
C24_4 C 0.4641(4) 0.3471(3) 0.0135(12)
H17_2 H 0.4375 0.3270 0.0136
H18_4 H 0.4759 0.3466 0.1053
Eu2_4 Eu 0.526020(9) 0.486681(10) 0.67747(4)
Eu4_4 Eu 0.473980(9) 0.513319(10) 0.32253(4)
O1_4 O 0.55351(13) 0.51452(13) 0.9219(5)
O2_4 O 0.58090(13) 0.48710(14) 0.7997(5)
O9_4 O 0.48617(14) 0.51030(14) 0.7863(5)
O10_4 O 0.48920(15) 0.44002(15) 0.8633(6)
N1_4 N 0.4663(2) 0.3846(2) 0.9965(7)
C1_4 C 0.57965(18) 0.50556(18) 0.9088(7)
H3_4 H 0.6373 0.4909 0.9480
C22_4 C 0.4873(2) 0.4089(3) 0.8916(9)
H12_4 H 0.5020 0.4019 0.8332
H16_4 H 0.4773 0.3431 0.9328
O11_4 O 0.55054(23) 0.47377(13) 0.4418(5)
O12_4 O 0.52139(23) 0.42592(13) 0.5996(5)
O15_4 O 0.47035(12) 0.46294(13) 0.5112(5)
H19_4 H 0.502175 0.538486 0.804828
H20_4 H 0.464845 0.505368 0.717343
O3_5 O 0.49379(14) 0.18465(19) 0.1299(5)
O4_5 O 0.41010(19) 0.21720(23) 0.2248(5)
O5_5 O 0.42880(19) 0.18805(23) 0.0670(5)
O6_5 O 0.45009(14) 0.03223(20) 0.6101(6)
O8_5 O 0.42423(13) 0.06316(18) 0.3713(5)
C2_5 C 0.48191(17) 0.09176(24) 0.0285(7)
C3_5 C 0.45880(18) 0.06801(25) 0.1422(7)
H1_5 H 0.4514 0.0419 0.1442
C4_5 C 0.44706(18) 0.08420(25) 0.2531(7)
C5_5 C 0.45870(19) 0.12310(26) 0.2511(7)
H2_5 H 0.4510 0.1338 0.3255
C6_5 C 0.48177(18) 0.14561(25) 0.1380(8)
C7_5 C 0.49364(18) 0.13062(25) 0.0246(7)
C8_5 C 0.4942(2) 0.2035(3) 0.2579(8)
C9_4 C 0.5233(3) 0.2119(4) 0.3568(12)
H4_5 H 0.5411 0.2040 0.3370
C10_4 C 0.5267(3) 0.2322(4) 0.4865(12)
H5_4 H 0.5460 0.2370 0.5544
C11_4 C 0.5010(3) 0.2450(4) 0.5132(11)
H6_4 H 0.5035 0.2595 0.5973
C12_4 C 0.4717(4) 0.2360(4) 0.4128(10)
H7_4 H 0.4543 0.2445 0.4317
C13_5 C 0.46699(28) 0.21503(34) 0.2860(8)
C14_5 C 0.43376(28) 0.20622(34) 0.1857(8)
C15_5 C 0.44222(18) 0.00854(26) 0.5078(7)
C20_5 C 0.3676(2) 0.0117(3) 0.2589(8)
H11_5 H 0.3616 0.0296 0.2197
C21_5 C 0.40002(19) 0.02398(27) 0.3470(7)
C23_5 C 0.6063(3) 0.0490(4) 0.0930(11)
H13_5 H 0.5818 0.0275 0.0654
H14_5 H 0.6052 0.0561 0.1937
H15_5 H 0.6259 0.0420 0.0837
C24_5 C 0.6529(3) 0.1169(5) 0.0135(12)
H17_3 H 0.6730 0.1104 0.0136
H18_5 H 0.6534 0.1292 0.1053
Eu2_5 Eu 0.513319(10) 0.039338(13) 0.67747(4)
O1_5 O 0.48548(13) 0.03898(18) 0.9219(5)
O2_5 O 0.51290(14) 0.09379(19) 0.7997(5)
O10_5 O 0.55998(15) 0.04917(21) 0.8633(6)
N1_5 N 0.6154(2) 0.0816(3) 0.9965(7)
C1_5 C 0.49444(18) 0.07408(25) 0.9088(7)
H3_5 H 0.5091 0.1463 0.9480
C22_5 C 0.5911(3) 0.0783(4) 0.8916(9)
H12_5 H 0.5981 0.1000 0.8332
H16_5 H 0.6569 0.1341 0.9328
O11_5 O 0.52623(13) 0.07676(26) 0.4418(5)
O12_5 O 0.57408(13) 0.09546(26) 0.5996(5)
O15_5 O 0.53706(13) 0.00742(18) 0.5112(5)
O7_5 O 0.46294(13) 0.99258(18) 0.4888(5)
C16_5 C 0.40864(18) 0.99698(25) 0.4082(7)
C17_5 C 0.3848(2) 0.9585(3) 0.3761(7)
H8_5 H 0.3902 0.9403 0.4158
C18_5 C 0.3528(2) 0.9465(3) 0.2853(8)
H9_5 H 0.3373 0.9204 0.2627
C19_5 C 0.3441(2) 0.9727(3) 0.2295(8)
H10_5 H 0.3222 0.9645 0.1710
Eu4_5 Eu 0.486681(10) 0.960662(13) 0.32253(4)
O9_5 O 0.48970(14) 0.97586(20) 0.7863(5)
H19_5 H 0.461514 0.963689 0.804828
H20_5 H 0.494632 0.959476 0.717343
O7_6 O 0.00742(18) 0.47035(12) 0.4888(5)
C16_6 C 0.00302(25) 0.41165(18) 0.4082(7)
C17_6 C 0.0415(3) 0.4262(2) 0.3761(7)
H8_6 H 0.0597 0.4498 0.4158
C18_6 C 0.0535(3) 0.4062(2) 0.2853(8)
H9_6 H 0.0796 0.4168 0.2627
C19_6 C 0.0273(3) 0.3713(2) 0.2295(8)
H10_6 H 0.0355 0.3576 0.1710
Eu4_6 Eu 0.039338(13) 0.526020(9) 0.32253(4)
O9_6 O 0.02414(20) 0.51383(14) 0.7863(5)
H19_6 H 0.0363112 0.497825 0.804828
H20_6 H 0.0405235 0.535155 0.717343
O3_6 O 0.81535(19) 0.30913(13) 0.1299(5)
O4_6 O 0.78280(23) 0.19289(13) 0.2248(5)
O5_6 O 0.81195(23) 0.24074(13) 0.0670(5)
O6_6 O 0.96777(20) 0.41785(14) 0.6101(6)
O8_6 O 0.93684(18) 0.36106(13) 0.3713(5)
C2_6 C 0.90824(24) 0.39014(17) 0.0285(7)
C3_6 C 0.93199(25) 0.39078(18) 0.1422(7)
H1_6 H 0.9581 0.4094 0.1442
C4_6 C 0.91580(25) 0.36285(18) 0.2531(7)
C5_6 C 0.87690(26) 0.33559(18) 0.2511(7)
H2_6 H 0.8662 0.3171 0.3255
C6_6 C 0.85439(25) 0.33615(17) 0.1380(8)
C7_6 C 0.86938(25) 0.36301(17) 0.0246(7)
C8_6 C 0.7965(3) 0.2906(2) 0.2579(8)
C9_5 C 0.7881(4) 0.3113(2) 0.3568(12)
H4_6 H 0.7960 0.3370 0.3370
C10_5 C 0.7678(4) 0.2944(3) 0.4865(12)
H5_5 H 0.7630 0.3089 0.5544
C11_5 C 0.7550(4) 0.2559(3) 0.5132(11)
H6_5 H 0.7405 0.2439 0.5973
C12_5 C 0.7640(4) 0.2356(2) 0.4128(10)
H7_5 H 0.7555 0.2097 0.4317
C13_6 C 0.78497(34) 0.25195(19) 0.2860(8)
C14_6 C 0.79378(34) 0.2275(2) 0.1857(8)
C15_6 C 0.99146(26) 0.43367(19) 0.5078(7)
C20_6 C 0.9883(3) 0.3558(2) 0.2589(8)
H11_6 H 0.9704 0.3319 0.2197
C21_6 C 0.97602(27) 0.37603(19) 0.3470(7)
C23_6 C 0.9510(4) 0.5572(3) 0.0930(11)
H13_6 H 0.9725 0.5542 0.0654
H14_6 H 0.9439 0.5490 0.1937
H15_6 H 0.9580 0.5838 0.0837
C24_6 C 0.8831(5) 0.5359(4) 0.0135(12)
H17_4 H 0.8896 0.5625 0.0136
H18_6 H 0.8708 0.5241 0.1053
Eu2_6 Eu 0.960662(13) 0.473980(9) 0.67747(4)
O1_6 O 0.96102(18) 0.44649(13) 0.9219(5)
O2_6 O 0.90621(19) 0.41910(13) 0.7997(5)
O10_6 O 0.95083(21) 0.51080(15) 0.8633(6)
N1_6 N 0.9184(3) 0.5337(2) 0.9965(7)
C1_6 C 0.92592(25) 0.42035(18) 0.9088(7)
H3_6 H 0.8537 0.3627 0.9480
C22_6 C 0.9217(4) 0.5127(2) 0.8916(9)
H12_6 H 0.9000 0.4980 0.8332
H16_6 H 0.8659 0.5227 0.9328
O11_6 O 0.92324(26) 0.44946(23) 0.4418(5)
O12_6 O 0.90454(26) 0.47861(23) 0.5996(5)
O15_6 O 0.99258(18) 0.52965(12) 0.5112(5)
Eu2_7 Eu 0.192686(9) 0.820015(10) 0.01081(4)
O1_7 O 0.22017(13) 0.84786(13) 0.2553(5)
O2_7 O 0.24756(13) 0.82044(14) 0.1331(5)
O3_7 O 0.35753(13) 0.83955(14) 0.4633(5)
O4_7 O 0.47377(13) 0.92324(19) 0.5582(5)
O5_7 O 0.42592(13) 0.90454(19) 0.4004(5)
O6_7 O 0.24881(14) 0.88325(14) 0.9435(6)
O7_7 O 0.19631(12) 0.87040(13) 0.8222(5)
O8_7 O 0.30560(13) 0.90911(13) 0.7047(5)
O9_7 O 0.15283(14) 0.84364(14) 0.1197(5)
O10_7 O 0.15586(15) 0.77336(15) 0.1967(6)
N1_7 N 0.1329(2) 0.7180(2) 0.3299(7)
C1_7 C 0.24631(18) 0.83890(18) 0.2422(7)
C2_7 C 0.27652(17) 0.85143(17) 0.3619(7)
C3_7 C 0.27588(18) 0.87454(18) 0.4756(7)
H1_7 H 0.2572 0.8820 0.4776
C4_7 C 0.30381(18) 0.88628(18) 0.5865(7)
C5_7 C 0.33107(18) 0.87464(19) 0.5845(7)
H2_7 H 0.3495 0.8824 0.6589
C6_7 C 0.33051(17) 0.85157(18) 0.4714(8)
C7_7 C 0.30365(17) 0.83970(18) 0.3580(7)
H3_7 H 0.3039 0.8243 0.2814
C8_7 C 0.3760(2) 0.8392(2) 0.5913(8)
C9_6 C 0.3553(2) 0.8101(3) 0.6902(12)
H4_7 H 0.3296 0.7923 0.6704
C10_6 C 0.3722(3) 0.8067(3) 0.8199(12)
H5_6 H 0.3577 0.7874 0.8878
C11_6 C 0.4107(3) 0.8324(3) 0.8466(11)
H6_6 H 0.4227 0.8299 0.9307
C12_6 C 0.4310(2) 0.8617(4) 0.7462(10)
H7_6 H 0.4569 0.8791 0.7651
C13_7 C 0.41471(19) 0.86635(28) 0.6194(8)
C14_7 C 0.4391(2) 0.89958(28) 0.5191(8)
C15_7 C 0.23299(19) 0.89112(18) 0.8412(7)
C16_7 C 0.25501(18) 0.92470(18) 0.7416(7)
C17_7 C 0.2404(2) 0.9486(2) 0.7095(7)
H8_7 H 0.2168 0.9432 0.7492
C18_7 C 0.2604(2) 0.9806(2) 0.6187(8)
H9_7 H 0.2498 0.9961 0.5961
C19_7 C 0.2953(2) 0.9893(2) 0.5629(8)
C20_7 C 0.3108(2) 0.9658(2) 0.5923(8)
H11_7 H 0.3347 0.9718 0.5531
C21_7 C 0.29063(19) 0.93332(19) 0.6804(7)
C22_7 C 0.1539(2) 0.7423(3) 0.2250(9)
H12_7 H 0.1686 0.7353 0.1666
C23_7 C 0.1094(3) 0.7271(3) 0.4264(11)
H13_7 H 0.1124 0.7516 0.3988
H14_7 H 0.1176 0.7282 0.5271
H15_7 H 0.0828 0.7075 0.4171
C24_7 C 0.1307(4) 0.6805(3) 0.3469(12)
H16_7 H 0.1439 0.6765 0.2662
H17_5 H 0.1041 0.6604 0.3470
H18_7 H 0.1425 0.6800 0.4387
H19_7 H 0.168841 0.871819 0.138161
H20_7 H 0.131512 0.838702 0.0506764
O11_7 O 0.21720(23) 0.80711(13) 0.7752(5)
O12_7 O 0.18805(23) 0.75926(13) 0.9330(5)
O15_7 O 0.13702(12) 0.79627(13) 0.8445(5)
Eu2_8 Eu 0.179985(10) 0.372672(13) 0.01081(4)
O1_8 O 0.15214(13) 0.37232(18) 0.2553(5)
O2_8 O 0.17956(14) 0.42713(19) 0.1331(5)
O3_8 O 0.16045(14) 0.51799(19) 0.4633(5)
O4_8 O 0.07676(19) 0.55054(23) 0.5582(5)
O5_8 O 0.09546(19) 0.52139(23) 0.4004(5)
O6_8 O 0.11675(14) 0.36557(20) 0.9435(6)
O7_8 O 0.12960(13) 0.32592(18) 0.8222(5)
O8_8 O 0.09089(13) 0.39650(18) 0.7047(5)
O9_8 O 0.15636(14) 0.30920(20) 0.1197(5)
O10_8 O 0.22664(15) 0.38251(21) 0.1967(6)
N1_8 N 0.2820(2) 0.4150(3) 0.3299(7)
C1_8 C 0.16110(18) 0.40742(25) 0.2422(7)
C2_8 C 0.14857(17) 0.42510(24) 0.3619(7)
C3_8 C 0.12546(18) 0.40135(25) 0.4756(7)
H1_8 H 0.1180 0.3753 0.4776
C4_8 C 0.11372(18) 0.41754(25) 0.5865(7)
C5_8 C 0.12536(19) 0.45644(26) 0.5845(7)
H2_8 H 0.1176 0.4672 0.6589
C6_8 C 0.14843(18) 0.47895(25) 0.4714(8)
C7_8 C 0.16030(18) 0.46396(25) 0.3580(7)
H3_8 H 0.1757 0.4797 0.2814
C8_8 C 0.1608(2) 0.5369(3) 0.5913(8)
C9_7 C 0.1899(3) 0.5453(4) 0.6902(12)
H4_8 H 0.2077 0.5374 0.6704
C10_7 C 0.1933(3) 0.5656(4) 0.8199(12)
H5_7 H 0.2126 0.5704 0.8878
C11_7 C 0.1676(3) 0.5784(4) 0.8466(11)
H6_7 H 0.1701 0.5929 0.9307
C12_7 C 0.1383(4) 0.5694(4) 0.7462(10)
H7_7 H 0.1209 0.5779 0.7651
C13_8 C 0.13365(28) 0.54837(34) 0.6194(8)
C14_8 C 0.10042(28) 0.53956(34) 0.5191(8)
C15_8 C 0.10888(18) 0.34188(26) 0.8412(7)
C16_8 C 0.07530(18) 0.33032(25) 0.7416(7)
C17_8 C 0.0514(2) 0.2919(3) 0.7095(7)
H8_8 H 0.0568 0.2737 0.7492
C18_8 C 0.0194(2) 0.2799(3) 0.6187(8)
H9_8 H 0.0039 0.2538 0.5961
C19_8 C 0.0107(2) 0.3061(3) 0.5629(8)
C20_8 C 0.0342(2) 0.3451(3) 0.5923(8)
H11_8 H 0.0282 0.3630 0.5531
C21_8 C 0.06668(19) 0.35732(27) 0.6804(7)
C22_8 C 0.2577(3) 0.4117(4) 0.2250(9)
H12_8 H 0.2647 0.4334 0.1666
C23_8 C 0.2729(3) 0.3824(4) 0.4264(11)
H13_8 H 0.2484 0.3609 0.3988
H14_8 H 0.2718 0.3895 0.5271
H15_8 H 0.2925 0.3754 0.4171
C24_8 C 0.3195(3) 0.4503(5) 0.3469(12)
H16_8 H 0.3235 0.4675 0.2662
H17_6 H 0.3396 0.4438 0.3470
H18_8 H 0.3200 0.4626 0.4387
H19_8 H 0.128181 0.297022 0.138161
H20_8 H 0.161298 0.29281 0.0506764
O11_8 O 0.19289(13) 0.41010(26) 0.7752(5)
O12_8 O 0.24074(13) 0.42880(26) 0.9330(5)
O15_8 O 0.20373(13) 0.34075(18) 0.8445(5)
Eu2_9 Eu 0.627328(13) 0.807314(9) 0.01081(4)
O1_9 O 0.62768(18) 0.77983(13) 0.2553(5)
O2_9 O 0.57287(19) 0.75244(13) 0.1331(5)
O3_9 O 0.48201(19) 0.64247(13) 0.4633(5)
O4_9 O 0.44946(23) 0.52623(13) 0.5582(5)
O5_9 O 0.47861(23) 0.57408(13) 0.4004(5)
O6_9 O 0.63443(20) 0.75119(14) 0.9435(6)
O7_9 O 0.67408(18) 0.80369(12) 0.8222(5)
O8_9 O 0.60350(18) 0.69440(13) 0.7047(5)
O9_9 O 0.69080(20) 0.84717(14) 0.1197(5)
O10_9 O 0.61749(21) 0.84414(15) 0.1967(6)
N1_9 N 0.5850(3) 0.8671(2) 0.3299(7)
C1_9 C 0.59258(25) 0.75369(18) 0.2422(7)
C2_9 C 0.57490(24) 0.72348(17) 0.3619(7)
C3_9 C 0.59865(25) 0.72412(18) 0.4756(7)
H1_9 H 0.6247 0.7428 0.4776
C4_9 C 0.58246(25) 0.69619(18) 0.5865(7)
C5_9 C 0.54356(26) 0.66893(18) 0.5845(7)
H2_9 H 0.5328 0.6505 0.6589
C6_9 C 0.52105(25) 0.66949(17) 0.4714(8)
C7_9 C 0.53604(25) 0.69635(17) 0.3580(7)
H3_9 H 0.5203 0.6961 0.2814
C8_9 C 0.4631(3) 0.6240(2) 0.5913(8)
C9_8 C 0.4547(4) 0.6447(2) 0.6902(12)
H4_9 H 0.4626 0.6704 0.6704
C10_8 C 0.4344(4) 0.6278(3) 0.8199(12)
H5_8 H 0.4296 0.6423 0.8878
C11_8 C 0.4216(4) 0.5893(3) 0.8466(11)
H6_8 H 0.4071 0.5773 0.9307
C12_8 C 0.4306(4) 0.5690(2) 0.7462(10)
H7_8 H 0.4221 0.5431 0.7651
C13_9 C 0.45163(34) 0.58529(19) 0.6194(8)
C14_9 C 0.46044(34) 0.5609(2) 0.5191(8)
C15_9 C 0.65812(26) 0.76701(19) 0.8412(7)
C16_9 C 0.66968(25) 0.74499(18) 0.7416(7)
C17_9 C 0.7081(3) 0.7596(2) 0.7095(7)
H8_9 H 0.7263 0.7832 0.7492
C18_9 C 0.7201(3) 0.7396(2) 0.6187(8)
H9_9 H 0.7462 0.7502 0.5961
C19_9 C 0.6939(3) 0.7047(2) 0.5629(8)
H10_7 H 0.7021 0.6910 0.5044
C20_9 C 0.6549(3) 0.6892(2) 0.5923(8)
H11_9 H 0.6370 0.6653 0.5531
C21_9 C 0.64268(27) 0.70937(19) 0.6804(7)
C22_9 C 0.5883(4) 0.8461(2) 0.2250(9)
H12_9 H 0.5666 0.8314 0.1666
C23_9 C 0.6176(4) 0.8906(3) 0.4264(11)
H13_9 H 0.6391 0.8876 0.3988
H14_9 H 0.6105 0.8824 0.5271
H15_9 H 0.6246 0.9172 0.4171
C24_9 C 0.5497(5) 0.8693(4) 0.3469(12)
H16_9 H 0.5325 0.8561 0.2662
H17_7 H 0.5562 0.8959 0.3470
H18_9 H 0.5374 0.8575 0.4387
H19_9 H 0.702978 0.831159 0.138161
H20_9 H 0.70719 0.868488 0.0506764
O11_9 O 0.58990(26) 0.78280(23) 0.7752(5)
O12_9 O 0.57120(26) 0.81195(23) 0.9330(5)
O15_9 O 0.65925(18) 0.86298(12) 0.8445(5)
O1_10 O 0.11316(13) 0.81881(13) 0.4114(5)
O2_10 O 0.08577(13) 0.84623(14) 0.5336(5)
O9_10 O 0.18050(14) 0.82303(14) 0.5470(5)
O10_10 O 0.17747(15) 0.89331(15) 0.4700(6)
N1_10 N 0.2004(2) 0.9487(2) 0.3368(7)
C1_10 C 0.08702(18) 0.82777(18) 0.4245(7)
C2_10 C 0.05681(17) 0.81524(17) 0.3048(7)
C3_10 C 0.05745(18) 0.79213(18) 0.1911(7)
H1_10 H 0.0761 0.7847 0.1891
C4_10 C 0.02952(18) 0.78039(18) 0.0802(7)
C5_10 C 0.00226(18) 0.79203(19) 0.0822(7)
C6_10 C 0.00282(17) 0.81510(18) 0.1953(8)
C7_10 C 0.02968(17) 0.82697(18) 0.3087(7)
H3_10 H 0.0294 0.8424 0.3853
C18_10 C 0.0729(2) 0.6861(2) 0.0480(8)
H9_10 H 0.0835 0.6706 0.0706
C19_10 C 0.0380(2) 0.6774(2) 0.1038(8)
H10_8 H 0.0243 0.6555 0.1623
C20_10 C 0.0225(2) 0.7009(2) 0.0744(8)
C22_10 C 0.1794(2) 0.9244(3) 0.4417(9)
H12_10 H 0.1647 0.9314 0.5001
C23_10 C 0.2239(3) 0.9396(3) 0.2403(11)
H13_10 H 0.2209 0.9151 0.2679
H14_10 H 0.2157 0.9385 0.1396
H15_10 H 0.2505 0.9592 0.2496
C24_10 C 0.2026(4) 0.9862(3) 0.3198(12)
H16_10 H 0.1894 0.9902 0.4005
H18_10 H 0.1908 0.9867 0.2280
O13 O 0.08452(14) 0.78342(14) 0.7232(6)
H19_10 H 0.164492 0.794847 0.528506
H20_10 H 0.201822 0.827965 0.61599
O8_10 O 0.02773(13) 0.75756(13) 0.9620(5)
H4_10 H 0.0037 0.8744 0.9963
C15_10 C 0.10034(19) 0.77555(18) 0.8255(7)
C16_10 C 0.07832(18) 0.74197(18) 0.9251(7)
C17_10 C 0.0929(2) 0.7181(2) 0.9572(7)
H8_10 H 0.1165 0.7235 0.9175
C21_10 C 0.04270(19) 0.73335(19) 0.9863(7)
O3_10 O 0.97580(13) 0.82712(14) 0.2034(5)
H2_10 H 0.9838 0.7843 0.0078
C8_10 C 0.9573(2) 0.8275(2) 0.0754(8)
C13_10 C 0.91862(19) 0.80032(28) 0.0473(8)
C14_10 C 0.8942(2) 0.76709(28) 0.1476(8)
H11_10 H 0.9986 0.6949 0.1136
O1_11 O 0.18119(13) 0.29435(18) 0.4114(5)
O2_11 O 0.15377(14) 0.23954(19) 0.5336(5)
O3_11 O 0.17288(14) 0.14868(19) 0.2034(5)
O9_11 O 0.17697(14) 0.35747(20) 0.5470(5)
O10_11 O 0.10669(15) 0.28416(21) 0.4700(6)
N1_11 N 0.0513(2) 0.2517(3) 0.3368(7)
C1_11 C 0.17223(18) 0.25925(25) 0.4245(7)
C2_11 C 0.18476(17) 0.24157(24) 0.3048(7)
C3_11 C 0.20787(18) 0.26532(25) 0.1911(7)
H1_11 H 0.2153 0.2914 0.1891
C4_11 C 0.21961(18) 0.24913(25) 0.0802(7)
C5_11 C 0.20797(19) 0.21023(26) 0.0822(7)
H2_11 H 0.2157 0.1995 0.0078
C6_11 C 0.18490(18) 0.18772(25) 0.1953(8)
C7_11 C 0.17303(18) 0.20271(25) 0.3087(7)
H3_11 H 0.1576 0.1870 0.3853
C8_11 C 0.1725(2) 0.1298(3) 0.0754(8)
C13_11 C 0.19968(28) 0.11830(34) 0.0473(8)
C14_11 C 0.23291(28) 0.12711(34) 0.1476(8)
C18_11 C 0.3139(2) 0.3868(3) 0.0480(8)
H9_11 H 0.3294 0.4129 0.0706
C19_11 C 0.3226(2) 0.3606(3) 0.1038(8)
H10_9 H 0.3445 0.3688 0.1623
C20_11 C 0.2991(2) 0.3216(3) 0.0744(8)
H11_11 H 0.3051 0.3037 0.1136
C22_11 C 0.0756(3) 0.2550(4) 0.4417(9)
H12_11 H 0.0686 0.2333 0.5001
C23_11 C 0.0604(3) 0.2843(4) 0.2403(11)
H13_11 H 0.0849 0.3058 0.2679
H14_11 H 0.0615 0.2772 0.1396
H15_11 H 0.0408 0.2913 0.2496
C24_11 C 0.0138(3) 0.2164(5) 0.3198(12)
H16_11 H 0.0098 0.1992 0.4005
H18_11 H 0.0133 0.2041 0.2280
O13_2 O 0.21658(14) 0.30110(20) 0.7232(6)
H19_11 H 0.205153 0.369645 0.528506
H20_11 H 0.172035 0.373857 0.61599
O8_11 O 0.24244(13) 0.27017(18) 0.9620(5)
C9_9 C 0.1434(3) 0.1214(4) 0.9765(12)
H4_11 H 0.1256 0.1293 0.9963
C10_9 C 0.1400(3) 0.1011(4) 0.8468(12)
H5_9 H 0.1207 0.0963 0.7789
C11_9 C 0.1657(3) 0.0883(4) 0.8201(11)
H6_9 H 0.1632 0.0738 0.7360
C12_9 C 0.1950(4) 0.0973(4) 0.9205(10)
H7_9 H 0.2124 0.0888 0.9016
C15_11 C 0.22445(18) 0.32479(26) 0.8255(7)
C16_11 C 0.25803(18) 0.33635(25) 0.9251(7)
C17_11 C 0.2819(2) 0.3748(3) 0.9572(7)
H8_11 H 0.2765 0.3930 0.9175
C21_11 C 0.26665(19) 0.30935(27) 0.9863(7)
O3_12 O 0.85132(19) 0.02420(13) 0.2034(5)
H2_12 H 0.8005 0.0162 0.0078
C8_12 C 0.8702(3) 0.0427(2) 0.0754(8)
C13_12 C 0.88170(34) 0.08138(19) 0.0473(8)
C14_12 C 0.87289(34) 0.1058(2) 0.1476(8)
H11_12 H 0.6963 0.0014 0.1136
O1_12 O 0.70565(18) 0.88684(13) 0.4114(5)
O2_12 O 0.76046(19) 0.91423(13) 0.5336(5)
O9_12 O 0.64253(20) 0.81950(14) 0.5470(5)
O10_12 O 0.71584(21) 0.82253(15) 0.4700(6)
N1_12 N 0.7483(3) 0.7996(2) 0.3368(7)
C1_12 C 0.74075(25) 0.91298(18) 0.4245(7)
C2_12 C 0.75843(24) 0.94319(17) 0.3048(7)
C3_12 C 0.73468(25) 0.94255(18) 0.1911(7)
H1_12 H 0.7086 0.9239 0.1891
C4_12 C 0.75087(25) 0.97048(18) 0.0802(7)
C5_12 C 0.78977(26) 0.99774(18) 0.0822(7)
C6_12 C 0.81228(25) 0.99718(17) 0.1953(8)
C7_12 C 0.79729(25) 0.97032(17) 0.3087(7)
H3_12 H 0.8130 0.9706 0.3853
C18_12 C 0.6132(3) 0.9271(2) 0.0480(8)
H9_12 H 0.5871 0.9165 0.0706
C19_12 C 0.6394(3) 0.9620(2) 0.1038(8)
H10_10 H 0.6312 0.9757 0.1623
C20_12 C 0.6784(3) 0.9775(2) 0.0744(8)
C22_12 C 0.7450(4) 0.8206(2) 0.4417(9)
H12_12 H 0.7667 0.8353 0.5001
C23_12 C 0.7157(4) 0.7761(3) 0.2403(11)
H13_12 H 0.6942 0.7791 0.2679
H14_12 H 0.7228 0.7843 0.1396
H15_12 H 0.7087 0.7495 0.2496
C24_12 C 0.7836(5) 0.7974(4) 0.3198(12)
H16_12 H 0.8008 0.8106 0.4005
H17_8 H 0.7771 0.7708 0.3197
H18_12 H 0.7959 0.8092 0.2280
O13_3 O 0.69890(20) 0.91548(14) 0.7232(6)
H19_12 H 0.630355 0.835508 0.528506
H20_12 H 0.626143 0.798178 0.61599
O8_12 O 0.72983(18) 0.97227(13) 0.9620(5)
H4_12 H 0.8707 0.9963 0.9963
C15_12 C 0.67521(26) 0.89966(19) 0.8255(7)
C16_12 C 0.66365(25) 0.92168(18) 0.9251(7)
C17_12 C 0.6252(3) 0.9071(2) 0.9572(7)
H8_12 H 0.6070 0.8835 0.9175
C21_12 C 0.69065(27) 0.95730(19) 0.9863(7)
O1_13 O 0.44649(13) 0.48548(13) 0.0781(5)
O2_13 O 0.41910(13) 0.51290(14) 0.2003(5)
O9_13 O 0.51383(14) 0.48970(14) 0.2137(5)
O10_13 O 0.51080(15) 0.55998(15) 0.1367(6)
N1_13 N 0.5337(2) 0.6154(2) 0.0035(7)
C1_13 C 0.42035(18) 0.49444(18) 0.0912(7)
H3_13 H 0.3627 0.5091 0.0520
C22_13 C 0.5127(2) 0.5911(3) 0.1084(9)
H12_13 H 0.4980 0.5981 0.1668
H16_13 H 0.5227 0.6569 0.0672
O13_4 O 0.41785(14) 0.45009(14) 0.3899(6)
H19_13 H 0.497825 0.461514 0.195172
H20_13 H 0.535155 0.494632 0.282657
O3_13 O 0.30913(13) 0.49379(14) 0.8701(5)
O8_13 O 0.36106(13) 0.42423(13) 0.6287(5)
C2_13 C 0.39014(17) 0.48191(17) 0.9715(7)
C3_13 C 0.39078(18) 0.45880(18) 0.8578(7)
H1_13 H 0.4094 0.4514 0.8558
C4_13 C 0.36285(18) 0.44706(18) 0.7469(7)
C5_13 C 0.33559(18) 0.45870(19) 0.7489(7)
H2_13 H 0.3171 0.4510 0.6745
C6_13 C 0.33615(17) 0.48177(18) 0.8620(8)
C7_13 C 0.36301(17) 0.49364(18) 0.9754(7)
C8_13 C 0.2906(2) 0.4942(2) 0.7421(8)
C9_10 C 0.3113(2) 0.5233(3) 0.6432(12)
H4_13 H 0.3370 0.5411 0.6630
C10_10 C 0.2944(3) 0.5267(3) 0.5135(12)
H5_10 H 0.3089 0.5460 0.4456
C11_10 C 0.2559(3) 0.5010(3) 0.4868(11)
H6_10 H 0.2439 0.5035 0.4027
C12_10 C 0.2356(2) 0.4717(4) 0.5872(10)
H7_10 H 0.2097 0.4543 0.5683
C13_13 C 0.25195(19) 0.46699(28) 0.7140(8)
C14_13 C 0.2275(2) 0.43376(28) 0.8143(8)
C15_13 C 0.43367(19) 0.44222(18) 0.4922(7)
C16_13 C 0.41165(18) 0.40864(18) 0.5918(7)
C17_13 C 0.4262(2) 0.3848(2) 0.6239(7)
H8_13 H 0.4498 0.3902 0.5842
C18_13 C 0.4062(2) 0.3528(2) 0.7147(8)
H9_13 H 0.4168 0.3373 0.7373
C19_13 C 0.3713(2) 0.3441(2) 0.7705(8)
H10_11 H 0.3576 0.3222 0.8290
C20_13 C 0.3558(2) 0.3676(2) 0.7411(8)
H11_13 H 0.3319 0.3616 0.7803
C21_13 C 0.37603(19) 0.40002(19) 0.6530(7)
C23_13 C 0.5572(3) 0.6063(3) 0.9070(11)
H13_13 H 0.5542 0.5818 0.9346
H14_13 H 0.5490 0.6052 0.8063
H15_13 H 0.5838 0.6259 0.9163
C24_13 C 0.5359(4) 0.6529(3) 0.9865(12)
H17_9 H 0.5625 0.6730 0.9864
H18_13 H 0.5241 0.6534 0.8947
O9_14 O 0.51030(14) 0.02414(20) 0.2137(5)
H19_14 H 0.538486 0.0363112 0.195172
H20_14 H 0.505368 0.0405235 0.282657
C16_14 C 0.59136(18) 0.00302(25) 0.5918(7)
C17_14 C 0.6152(2) 0.0415(3) 0.6239(7)
H8_14 H 0.6098 0.0597 0.5842
C18_14 C 0.6472(2) 0.0535(3) 0.7147(8)
H9_14 H 0.6627 0.0796 0.7373
C19_14 C 0.6559(2) 0.0273(3) 0.7705(8)
H10_12 H 0.6778 0.0355 0.8290
O1_14 O 0.51452(13) 0.96102(18) 0.0781(5)
O2_14 O 0.48710(14) 0.90621(19) 0.2003(5)
O10_14 O 0.44002(15) 0.95083(21) 0.1367(6)
N1_14 N 0.3846(2) 0.9184(3) 0.0035(7)
C1_14 C 0.50556(18) 0.92592(25) 0.0912(7)
H3_14 H 0.4909 0.8537 0.0520
C22_14 C 0.4089(3) 0.9217(4) 0.1084(9)
H12_14 H 0.4019 0.9000 0.1668
H16_14 H 0.3431 0.8659 0.0672
O13_5 O 0.54991(14) 0.96777(20) 0.3899(6)
O3_14 O 0.50621(14) 0.81535(19) 0.8701(5)
O8_14 O 0.57577(13) 0.93684(18) 0.6287(5)
C2_14 C 0.51809(17) 0.90824(24) 0.9715(7)
C3_14 C 0.54120(18) 0.93199(25) 0.8578(7)
H1_14 H 0.5486 0.9581 0.8558
C4_14 C 0.55294(18) 0.91580(25) 0.7469(7)
C5_14 C 0.54130(19) 0.87690(26) 0.7489(7)
H2_14 H 0.5490 0.8662 0.6745
C6_14 C 0.51823(18) 0.85439(25) 0.8620(8)
C7_14 C 0.50636(18) 0.86938(25) 0.9754(7)
C8_14 C 0.5058(2) 0.7965(3) 0.7421(8)
C9_11 C 0.4767(3) 0.7881(4) 0.6432(12)
H4_14 H 0.4589 0.7960 0.6630
C10_11 C 0.4733(3) 0.7678(4) 0.5135(12)
H5_11 H 0.4540 0.7630 0.4456
C11_11 C 0.4990(3) 0.7550(4) 0.4868(11)
H6_11 H 0.4965 0.7405 0.4027
C12_11 C 0.5283(4) 0.7640(4) 0.5872(10)
H7_11 H 0.5457 0.7555 0.5683
C13_14 C 0.53301(28) 0.78497(34) 0.7140(8)
C14_14 C 0.56624(28) 0.79378(34) 0.8143(8)
C15_14 C 0.55778(18) 0.99146(26) 0.4922(7)
C20_14 C 0.6324(2) 0.9883(3) 0.7411(8)
H11_14 H 0.6384 0.9704 0.7803
C21_14 C 0.59998(19) 0.97602(27) 0.6530(7)
C23_14 C 0.3937(3) 0.9510(4) 0.9070(11)
H13_14 H 0.4182 0.9725 0.9346
H14_14 H 0.3948 0.9439 0.8063
H15_14 H 0.3741 0.9580 0.9163
C24_14 C 0.3471(3) 0.8831(5) 0.9865(12)
H17_10 H 0.3270 0.8896 0.9864
H18_14 H 0.3466 0.8708 0.8947
O1_15 O 0.03898(18) 0.55351(13) 0.0781(5)
O2_15 O 0.09379(19) 0.58090(13) 0.2003(5)
O10_15 O 0.04917(21) 0.48920(15) 0.1367(6)
N1_15 N 0.0816(3) 0.4663(2) 0.0035(7)
C1_15 C 0.07408(25) 0.57965(18) 0.0912(7)
H3_15 H 0.1463 0.6373 0.0520
C22_15 C 0.0783(4) 0.4873(2) 0.1084(9)
H12_15 H 0.1000 0.5020 0.1668
H16_15 H 0.1341 0.4773 0.0672
O13_6 O 0.03223(20) 0.58215(14) 0.3899(6)
O3_15 O 0.18465(19) 0.69087(13) 0.8701(5)
O8_15 O 0.06316(18) 0.63894(13) 0.6287(5)
C2_15 C 0.09176(24) 0.60986(17) 0.9715(7)
C3_15 C 0.06801(25) 0.60922(18) 0.8578(7)
H1_15 H 0.0419 0.5906 0.8558
C4_15 C 0.08420(25) 0.63715(18) 0.7469(7)
C5_15 C 0.12310(26) 0.66441(18) 0.7489(7)
H2_15 H 0.1338 0.6829 0.6745
C6_15 C 0.14561(25) 0.66385(17) 0.8620(8)
C7_15 C 0.13062(25) 0.63699(17) 0.9754(7)
C8_15 C 0.2035(3) 0.7094(2) 0.7421(8)
C9_12 C 0.2119(4) 0.6887(2) 0.6432(12)
H4_15 H 0.2040 0.6630 0.6630
C10_12 C 0.2322(4) 0.7056(3) 0.5135(12)
H5_12 H 0.2370 0.6911 0.4456
C11_12 C 0.2450(4) 0.7441(3) 0.4868(11)
H6_12 H 0.2595 0.7561 0.4027
C12_12 C 0.2360(4) 0.7644(2) 0.5872(10)
H7_12 H 0.2445 0.7903 0.5683
C13_15 C 0.21503(34) 0.74805(19) 0.7140(8)
C14_15 C 0.20622(34) 0.7725(2) 0.8143(8)
C15_15 C 0.00854(26) 0.56633(19) 0.4922(7)
C20_15 C 0.0117(3) 0.6442(2) 0.7411(8)
H11_15 H 0.0296 0.6681 0.7803
C21_15 C 0.02398(27) 0.62397(19) 0.6530(7)
C23_15 C 0.0490(4) 0.4428(3) 0.9070(11)
H13_15 H 0.0275 0.4458 0.9346
H14_15 H 0.0561 0.4510 0.8063
H15_15 H 0.0420 0.4162 0.9163
C24_15 C 0.1169(5) 0.4641(4) 0.9865(12)
H17_11 H 0.1104 0.4375 0.9864
H18_15 H 0.1292 0.4759 0.8947
O9_15 O 0.97586(20) 0.48617(14) 0.2137(5)
H19_15 H 0.963689 0.502175 0.195172
H20_15 H 0.959476 0.464845 0.282657
C16_15 C 0.99698(25) 0.58835(18) 0.5918(7)
C17_15 C 0.9585(3) 0.5738(2) 0.6239(7)
H8_15 H 0.9403 0.5502 0.5842
C18_15 C 0.9465(3) 0.5938(2) 0.7147(8)
H9_15 H 0.9204 0.5832 0.7373
C19_15 C 0.9727(3) 0.6287(2) 0.7705(8)
H10_13 H 0.9645 0.6424 0.8290
O13_7 O 0.75119(14) 0.11675(14) 0.0565(6)
O1_16 O 0.77983(13) 0.15214(13) 0.7447(5)
O2_16 O 0.75244(13) 0.17956(14) 0.8669(5)
O3_16 O 0.64247(13) 0.16045(14) 0.5367(5)
O8_16 O 0.69440(13) 0.09089(13) 0.2953(5)
O9_16 O 0.84717(14) 0.15636(14) 0.8803(5)
O10_16 O 0.84414(15) 0.22664(15) 0.8033(6)
N1_16 N 0.8671(2) 0.2820(2) 0.6701(7)
C1_16 C 0.75369(18) 0.16110(18) 0.7578(7)
C2_16 C 0.72348(17) 0.14857(17) 0.6381(7)
C3_16 C 0.72412(18) 0.12546(18) 0.5244(7)
H1_16 H 0.7428 0.1180 0.5224
C4_16 C 0.69619(18) 0.11372(18) 0.4135(7)
C5_16 C 0.66893(18) 0.12536(19) 0.4155(7)
H2_16 H 0.6505 0.1176 0.3411
C6_16 C 0.66949(17) 0.14843(18) 0.5286(8)
C7_16 C 0.69635(17) 0.16030(18) 0.6420(7)
H3_16 H 0.6961 0.1757 0.7186
C8_16 C 0.6240(2) 0.1608(2) 0.4087(8)
C9_13 C 0.6447(2) 0.1899(3) 0.3098(12)
H4_16 H 0.6704 0.2077 0.3296
C10_13 C 0.6278(3) 0.1933(3) 0.1801(12)
H5_13 H 0.6423 0.2126 0.1122
C11_13 C 0.5893(3) 0.1676(3) 0.1534(11)
H6_13 H 0.5773 0.1701 0.0693
C12_13 C 0.5690(2) 0.1383(4) 0.2538(10)
H7_13 H 0.5431 0.1209 0.2349
C13_16 C 0.58529(19) 0.13365(28) 0.3806(8)
C14_16 C 0.5609(2) 0.10042(28) 0.4809(8)
C15_16 C 0.76701(19) 0.10888(18) 0.1588(7)
C16_16 C 0.74499(18) 0.07530(18) 0.2584(7)
C17_16 C 0.7596(2) 0.0514(2) 0.2905(7)
H8_16 H 0.7832 0.0568 0.2508
C18_16 C 0.7396(2) 0.0194(2) 0.3813(8)
H9_16 H 0.7502 0.0039 0.4039
C19_16 C 0.7047(2) 0.0107(2) 0.4371(8)
C20_16 C 0.6892(2) 0.0342(2) 0.4077(8)
H11_16 H 0.6653 0.0282 0.4469
C21_16 C 0.70937(19) 0.06668(19) 0.3196(7)
C22_16 C 0.8461(2) 0.2577(3) 0.7750(9)
H12_16 H 0.8314 0.2647 0.8334
C23_16 C 0.8906(3) 0.2729(3) 0.5736(11)
H13_16 H 0.8876 0.2484 0.6012
H14_16 H 0.8824 0.2718 0.4729
H15_16 H 0.9172 0.2925 0.5829
C24_16 C 0.8693(4) 0.3195(3) 0.6531(12)
H16_16 H 0.8561 0.3235 0.7338
H17_12 H 0.8959 0.3396 0.6530
H18_16 H 0.8575 0.3200 0.5613
H19_16 H 0.831159 0.128181 0.861839
H20_16 H 0.868488 0.161298 0.949324
O13_8 O 0.88325(14) 0.63443(20) 0.0565(6)
O1_17 O 0.84786(13) 0.62768(18) 0.7447(5)
O2_17 O 0.82044(14) 0.57287(19) 0.8669(5)
O3_17 O 0.83955(14) 0.48201(19) 0.5367(5)
O8_17 O 0.90911(13) 0.60350(18) 0.2953(5)
O9_17 O 0.84364(14) 0.69080(20) 0.8803(5)
O10_17 O 0.77336(15) 0.61749(21) 0.8033(6)
N1_17 N 0.7180(2) 0.5850(3) 0.6701(7)
C1_17 C 0.83890(18) 0.59258(25) 0.7578(7)
C2_17 C 0.85143(17) 0.57490(24) 0.6381(7)
C3_17 C 0.87454(18) 0.59865(25) 0.5244(7)
H1_17 H 0.8820 0.6247 0.5224
C4_17 C 0.88628(18) 0.58246(25) 0.4135(7)
C5_17 C 0.87464(19) 0.54356(26) 0.4155(7)
H2_17 H 0.8824 0.5328 0.3411
C6_17 C 0.85157(18) 0.52105(25) 0.5286(8)
C7_17 C 0.83970(18) 0.53604(25) 0.6420(7)
H3_17 H 0.8243 0.5203 0.7186
C8_17 C 0.8392(2) 0.4631(3) 0.4087(8)
C9_14 C 0.8101(3) 0.4547(4) 0.3098(12)
H4_17 H 0.7923 0.4626 0.3296
C10_14 C 0.8067(3) 0.4344(4) 0.1801(12)
H5_14 H 0.7874 0.4296 0.1122
C11_14 C 0.8324(3) 0.4216(4) 0.1534(11)
H6_14 H 0.8299 0.4071 0.0693
C12_14 C 0.8617(4) 0.4306(4) 0.2538(10)
H7_14 H 0.8791 0.4221 0.2349
C13_17 C 0.86635(28) 0.45163(34) 0.3806(8)
C14_17 C 0.89958(28) 0.46044(34) 0.4809(8)
C15_17 C 0.89112(18) 0.65812(26) 0.1588(7)
C16_17 C 0.92470(18) 0.66968(25) 0.2584(7)
C17_17 C 0.9486(2) 0.7081(3) 0.2905(7)
H8_17 H 0.9432 0.7263 0.2508
C18_17 C 0.9806(2) 0.7201(3) 0.3813(8)
H9_17 H 0.9961 0.7462 0.4039
C19_17 C 0.9893(2) 0.6939(3) 0.4371(8)
C20_17 C 0.9658(2) 0.6549(3) 0.4077(8)
H11_17 H 0.9718 0.6370 0.4469
C21_17 C 0.93332(19) 0.64268(27) 0.3196(7)
C22_17 C 0.7423(3) 0.5883(4) 0.7750(9)
H12_17 H 0.7353 0.5666 0.8334
C23_17 C 0.7271(3) 0.6176(4) 0.5736(11)
H13_17 H 0.7516 0.6391 0.6012
H14_17 H 0.7282 0.6105 0.4729
H15_17 H 0.7075 0.6246 0.5829
C24_17 C 0.6805(3) 0.5497(5) 0.6531(12)
H16_17 H 0.6765 0.5325 0.7338
H17_13 H 0.6604 0.5562 0.6530
H18_17 H 0.6800 0.5374 0.5613
H19_17 H 0.871819 0.702978 0.861839
H20_17 H 0.838702 0.70719 0.949324
O13_9 O 0.36557(20) 0.24881(14) 0.0565(6)
O1_18 O 0.37232(18) 0.22017(13) 0.7447(5)
O2_18 O 0.42713(19) 0.24756(13) 0.8669(5)
O3_18 O 0.51799(19) 0.35753(13) 0.5367(5)
O8_18 O 0.39650(18) 0.30560(13) 0.2953(5)
O9_18 O 0.30920(20) 0.15283(14) 0.8803(5)
O10_18 O 0.38251(21) 0.15586(15) 0.8033(6)
N1_18 N 0.4150(3) 0.1329(2) 0.6701(7)
C1_18 C 0.40742(25) 0.24631(18) 0.7578(7)
C2_18 C 0.42510(24) 0.27652(17) 0.6381(7)
C3_18 C 0.40135(25) 0.27588(18) 0.5244(7)
H1_18 H 0.3753 0.2572 0.5224
C4_18 C 0.41754(25) 0.30381(18) 0.4135(7)
C5_18 C 0.45644(26) 0.33107(18) 0.4155(7)
H2_18 H 0.4672 0.3495 0.3411
C6_18 C 0.47895(25) 0.33051(17) 0.5286(8)
C7_18 C 0.46396(25) 0.30365(17) 0.6420(7)
H3_18 H 0.4797 0.3039 0.7186
C8_18 C 0.5369(3) 0.3760(2) 0.4087(8)
C9_15 C 0.5453(4) 0.3553(2) 0.3098(12)
H4_18 H 0.5374 0.3296 0.3296
C10_15 C 0.5656(4) 0.3722(3) 0.1801(12)
H5_15 H 0.5704 0.3577 0.1122
C11_15 C 0.5784(4) 0.4107(3) 0.1534(11)
H6_15 H 0.5929 0.4227 0.0693
C12_15 C 0.5694(4) 0.4310(2) 0.2538(10)
H7_15 H 0.5779 0.4569 0.2349
C13_18 C 0.54837(34) 0.41471(19) 0.3806(8)
C14_18 C 0.53956(34) 0.4391(2) 0.4809(8)
C15_18 C 0.34188(26) 0.23299(19) 0.1588(7)
C16_18 C 0.33032(25) 0.25501(18) 0.2584(7)
C17_18 C 0.2919(3) 0.2404(2) 0.2905(7)
H8_18 H 0.2737 0.2168 0.2508
C18_18 C 0.2799(3) 0.2604(2) 0.3813(8)
H9_18 H 0.2538 0.2498 0.4039
C19_18 C 0.3061(3) 0.2953(2) 0.4371(8)
H10_14 H 0.2979 0.3090 0.4956
C20_18 C 0.3451(3) 0.3108(2) 0.4077(8)
H11_18 H 0.3630 0.3347 0.4469
C21_18 C 0.35732(27) 0.29063(19) 0.3196(7)
C22_18 C 0.4117(4) 0.1539(2) 0.7750(9)
H12_18 H 0.4334 0.1686 0.8334
C23_18 C 0.3824(4) 0.1094(3) 0.5736(11)
H13_18 H 0.3609 0.1124 0.6012
H14_18 H 0.3895 0.1176 0.4729
H15_18 H 0.3754 0.0828 0.5829
C24_18 C 0.4503(5) 0.1307(4) 0.6531(12)
H16_18 H 0.4675 0.1439 0.7338
H17_14 H 0.4438 0.1041 0.6530
H18_18 H 0.4626 0.1425 0.5613
H19_18 H 0.297022 0.168841 0.861839
H20_18 H 0.29281 0.131512 0.949324
H17_15 H 0.7708 0.9937 0.6803
H17_16 H 0.0063 0.7771 0.6803
C9_16 C 0.1214(4) 0.9780(2) 0.0235(12)
C10_16 C 0.1011(4) 0.9611(3) 0.1532(12)
H5_16 H 0.0963 0.9756 0.2211
C11_16 C 0.0883(4) 0.9226(3) 0.1799(11)
H6_16 H 0.0738 0.9106 0.2640
C12_16 C 0.0973(4) 0.9023(2) 0.0795(10)
H7_16 H 0.0888 0.8764 0.0984
H10_15 H 0.3090 0.0112 0.5044
H10_16 H 0.9888 0.2979 0.5044
H17_17 H 0.2292 0.0063 0.3197
C9_17 C 0.9780(2) 0.8566(3) 0.9765(12)
C10_17 C 0.9611(3) 0.8600(3) 0.8468(12)
H5_17 H 0.9756 0.8793 0.7789
C11_17 C 0.9226(3) 0.8343(3) 0.8201(11)
H6_17 H 0.9106 0.8368 0.7360
C12_17 C 0.9023(2) 0.8050(4) 0.9205(10)
H7_17 H 0.8764 0.7876 0.9016
H17_18 H 0.9937 0.2229 0.3197
C9_18 C 0.8786(4) 0.0220(2) 0.9765(12)
C10_18 C 0.8989(4) 0.0389(3) 0.8468(12)
H5_18 H 0.9037 0.0244 0.7789
C11_18 C 0.9117(4) 0.0774(3) 0.8201(11)
H6_18 H 0.9262 0.0894 0.7360
C12_18 C 0.9027(4) 0.0977(2) 0.9205(10)
H7_18 H 0.9112 0.1236 0.9016
H10_17 H 0.6910 0.9888 0.4956
H10_18 H 0.0112 0.7021 0.4956
loop_
_geom_bond_atom_site_label_1
_geom_bond_atom_site_label_2
_geom_bond_site_symmetry_1
_geom_bond_site_symmetry_2
C10 C9 1_555 1_555
H5 C10 1_555 1_555
C11 C10 1_555 1_555
H6 C11 1_555 1_555
C12 C11 1_555 1_555
H7 C12 1_555 1_555
O4 C14 1_555 1_555
O5 C14 1_555 1_555
C8 O3 1_555 1_555
C13 C8 1_555 1_555
C14 C13 1_555 1_555
Eu3 O4 1_555 1_555
O5 Eu3 1_555 1_555
O6 C15 1_555 1_555
O7 C15 1_555 1_555
C15 C16 1_555 1_555
C16 C17 1_555 1_555
C17 H8 1_555 1_555
C21 O8 1_555 1_555
Eu2 O6 1_555 1_555
O7 Eu2 1_555 1_555
C16 C21 1_555 1_555
Eu2 O1 1_555 1_555
O1 C1 1_555 1_555
O2 Eu2 1_555 1_555
O9 Eu2 1_555 1_555
O10 Eu2 1_555 1_555
N1 C22 1_555 1_555
C1 O2 1_555 1_555
C2 C1 1_555 1_555
C3 C2 1_555 1_555
H1 C3 1_555 1_555
C4 C3 1_555 1_555
C5 C4 1_555 1_555
C6 C5 1_555 1_555
C7 C2 1_555 1_555
H3 C7 1_555 1_555
H9 C18 1_555 1_555
C19 C18 1_555 1_555
H10 C19 1_555 1_555
C20 C19 1_555 1_555
C22 O10 1_555 1_555
H12 C22 1_555 1_555
C23 N1 1_555 1_555
H13 C23 1_555 1_555
H14 C23 1_555 1_555
H15 C23 1_555 1_555
C24 N1 1_555 1_555
H16 C24 1_555 1_555
H18 C24 1_555 1_555
O11 Eu2 1_555 1_555
O12 Eu2 1_555 1_555
O15 Eu2 1_555 1_555
C6 C7 1_555 1_555
O9 H19 1_555 1_555
O9 H20 1_555 1_555
O6_2 C15_2 1_555 1_555
O7_2 C15_2 1_555 1_555
H4_2 C9_2 1_555 1_555
C10_2 C9_2 1_555 1_555
H5_2 C10_2 1_555 1_555
C11_2 C10_2 1_555 1_555
H6_2 C11_2 1_555 1_555
C12_2 C11_2 1_555 1_555
H7_2 C12_2 1_555 1_555
C15_2 C16_2 1_555 1_555
C16_2 C17_2 1_555 1_555
C17_2 H8_2 1_555 1_555
C21_2 O8_2 1_555 1_555
Eu2_2 O6_2 1_555 1_555
O7_2 Eu2_2 1_555 1_555
C16_2 C21_2 1_555 1_555
Eu2_2 O1_2 1_555 1_555
O1_2 C1_2 1_555 1_555
O2_2 Eu2_2 1_555 1_555
O3_2 C6_2 1_555 1_555
O4_2 C14_2 1_555 1_555
O5_2 C14_2 1_555 1_555
O9_2 Eu2_2 1_555 1_555
O10_2 Eu2_2 1_555 1_555
N1_2 C22_2 1_555 1_555
C1_2 O2_2 1_555 1_555
C2_2 C1_2 1_555 1_555
C3_2 C2_2 1_555 1_555
H1_2 C3_2 1_555 1_555
C4_2 C3_2 1_555 1_555
C5_2 C4_2 1_555 1_555
H2_2 C5_2 1_555 1_555
C6_2 C5_2 1_555 1_555
C7_2 C2_2 1_555 1_555
H3_2 C7_2 1_555 1_555
C8_2 O3_2 1_555 1_555
C13_2 C8_2 1_555 1_555
C14_2 C13_2 1_555 1_555
H9_2 C18_2 1_555 1_555
C19_2 C18_2 1_555 1_555
H10_2 C19_2 1_555 1_555
C20_2 C19_2 1_555 1_555
H11_2 C20_2 1_555 1_555
C22_2 O10_2 1_555 1_555
H12_2 C22_2 1_555 1_555
C23_2 N1_2 1_555 1_555
H13_2 C23_2 1_555 1_555
H14_2 C23_2 1_555 1_555
H15_2 C23_2 1_555 1_555
C24_2 N1_2 1_555 1_555
H16_2 C24_2 1_555 1_555
H18_2 C24_2 1_555 1_555
Eu3_2 O4_2 1_555 1_555
O11_2 Eu2_2 1_555 1_555
O12_2 Eu2_2 1_555 1_555
O15_2 Eu2_2 1_555 1_555
O5_2 Eu3_2 1_555 1_555
C6_2 C7_2 1_555 1_555
O9_2 H19_2 1_555 1_555
O9_2 H20_2 1_555 1_555
O6_3 C15_3 1_555 1_555
O7_3 C15_3 1_555 1_555
C15_3 C16_3 1_555 1_555
C16_3 C17_3 1_555 1_555
C17_3 H8_3 1_555 1_555
C21_3 O8_3 1_555 1_555
Eu2_3 O6_3 1_555 1_555
O7_3 Eu2_3 1_555 1_555
C16_3 C21_3 1_555 1_555
Eu2_3 O1_3 1_555 1_555
O1_3 C1_3 1_555 1_555
O2_3 Eu2_3 1_555 1_555
O9_3 Eu2_3 1_555 1_555
O10_3 Eu2_3 1_555 1_555
N1_3 C22_3 1_555 1_555
C1_3 O2_3 1_555 1_555
C2_3 C1_3 1_555 1_555
C3_3 C2_3 1_555 1_555
H1_3 C3_3 1_555 1_555
C4_3 C3_3 1_555 1_555
C5_3 C4_3 1_555 1_555
C6_3 C5_3 1_555 1_555
C7_3 C2_3 1_555 1_555
H3_3 C7_3 1_555 1_555
H9_3 C18_3 1_555 1_555
C19_3 C18_3 1_555 1_555
H10_3 C19_3 1_555 1_555
C20_3 C19_3 1_555 1_555
C22_3 O10_3 1_555 1_555
H12_3 C22_3 1_555 1_555
C23_3 N1_3 1_555 1_555
H13_3 C23_3 1_555 1_555
H14_3 C23_3 1_555 1_555
H15_3 C23_3 1_555 1_555
C24_3 N1_3 1_555 1_555
H16_3 C24_3 1_555 1_555
H17 C24_3 1_555 1_555
H18_3 C24_3 1_555 1_555
O11_3 Eu2_3 1_555 1_555
O12_3 Eu2_3 1_555 1_555
O15_3 Eu2_3 1_555 1_555
C6_3 C7_3 1_555 1_555
O9_3 H19_3 1_555 1_555
O9_3 H20_3 1_555 1_555
O4_3 C14_3 1_555 1_555
O5_3 C14_3 1_555 1_555
C8_3 O3_3 1_555 1_555
C13_3 C8_3 1_555 1_555
C14_3 C13_3 1_555 1_555
Eu3_3 O4_3 1_555 1_555
O5_3 Eu3_3 1_555 1_555
O3_4 C6_4 1_555 1_555
O4_4 C14_4 1_555 1_555
O5_4 C14_4 1_555 1_555
O6_4 C15_4 1_555 1_555
O7_4 C15_4 1_555 1_555
O8_4 C4_4 1_555 1_555
C3_4 C2_4 1_555 1_555
H1_4 C3_4 1_555 1_555
C4_4 C3_4 1_555 1_555
C5_4 C4_4 1_555 1_555
H2_4 C5_4 1_555 1_555
C6_4 C5_4 1_555 1_555
C7_4 C2_4 1_555 1_555
C8_4 O3_4 1_555 1_555
C9_3 C8_4 1_555 1_555
H4_4 C9_3 1_555 1_555
C10_3 C9_3 1_555 1_555
H5_3 C10_3 1_555 1_555
C11_3 C10_3 1_555 1_555
H6_3 C11_3 1_555 1_555
C12_3 C11_3 1_555 1_555
H7_3 C12_3 1_555 1_555
C13_4 C8_4 1_555 1_555
C14_4 C13_4 1_555 1_555
C15_4 C16_4 1_555 1_555
C16_4 C17_4 1_555 1_555
C17_4 H8_4 1_555 1_555
C18_4 C17_4 1_555 1_555
H9_4 C18_4 1_555 1_555
C19_4 C18_4 1_555 1_555
H10_4 C19_4 1_555 1_555
C20_4 C19_4 1_555 1_555
H11_4 C20_4 1_555 1_555
C21_4 O8_4 1_555 1_555
H13_4 C23_4 1_555 1_555
H14_4 C23_4 1_555 1_555
H15_4 C23_4 1_555 1_555
H17_2 C24_4 1_555 1_555
H18_4 C24_4 1_555 1_555
Eu2_4 O6_4 1_555 1_555
Eu4_4 O7_4 1_555 1_555
O7_4 Eu2_4 1_555 1_555
C6_4 C7_4 1_555 1_555
C12_3 C13_4 1_555 1_555
C16_4 C21_4 1_555 1_555
C20_4 C21_4 1_555 1_555
Eu2_4 O1_4 1_555 1_555
O1_4 C1_4 1_555 1_555
O2_4 Eu2_4 1_555 1_555
O9_4 Eu2_4 1_555 1_555
O10_4 Eu2_4 1_555 1_555
N1_4 C22_4 1_555 1_555
C1_4 O2_4 1_555 1_555
C22_4 O10_4 1_555 1_555
H12_4 C22_4 1_555 1_555
O11_4 Eu2_4 1_555 1_555
O12_4 Eu2_4 1_555 1_555
O15_4 Eu2_4 1_555 1_555
O9_4 H19_4 1_555 1_555
O9_4 H20_4 1_555 1_555
O3_5 C6_5 1_555 1_555
O4_5 C14_5 1_555 1_555
O5_5 C14_5 1_555 1_555
O6_5 C15_5 1_555 1_555
O8_5 C4_5 1_555 1_555
C3_5 C2_5 1_555 1_555
H1_5 C3_5 1_555 1_555
C4_5 C3_5 1_555 1_555
C5_5 C4_5 1_555 1_555
H2_5 C5_5 1_555 1_555
C6_5 C5_5 1_555 1_555
C7_5 C2_5 1_555 1_555
C8_5 O3_5 1_555 1_555
C9_4 C8_5 1_555 1_555
H4_5 C9_4 1_555 1_555
C10_4 C9_4 1_555 1_555
H5_4 C10_4 1_555 1_555
C11_4 C10_4 1_555 1_555
H6_4 C11_4 1_555 1_555
C12_4 C11_4 1_555 1_555
H7_4 C12_4 1_555 1_555
C13_5 C8_5 1_555 1_555
C14_5 C13_5 1_555 1_555
H11_5 C20_5 1_555 1_555
C21_5 O8_5 1_555 1_555
H13_5 C23_5 1_555 1_555
H14_5 C23_5 1_555 1_555
H15_5 C23_5 1_555 1_555
H17_3 C24_5 1_555 1_555
H18_5 C24_5 1_555 1_555
Eu2_5 O6_5 1_555 1_555
C6_5 C7_5 1_555 1_555
C12_4 C13_5 1_555 1_555
C20_5 C21_5 1_555 1_555
Eu2_5 O1_5 1_555 1_555
O1_5 C1_5 1_555 1_555
O2_5 Eu2_5 1_555 1_555
O10_5 Eu2_5 1_555 1_555
N1_5 C22_5 1_555 1_555
C1_5 O2_5 1_555 1_555
C22_5 O10_5 1_555 1_555
H12_5 C22_5 1_555 1_555
O11_5 Eu2_5 1_555 1_555
O12_5 Eu2_5 1_555 1_555
O15_5 Eu2_5 1_555 1_555
C16_5 C17_5 1_555 1_555
C17_5 H8_5 1_555 1_555
C18_5 C17_5 1_555 1_555
H9_5 C18_5 1_555 1_555
C19_5 C18_5 1_555 1_555
H10_5 C19_5 1_555 1_555
Eu4_5 O7_5 1_555 1_555
O9_5 H19_5 1_555 1_555
O9_5 H20_5 1_555 1_555
C16_6 C17_6 1_555 1_555
C17_6 H8_6 1_555 1_555
C18_6 C17_6 1_555 1_555
H9_6 C18_6 1_555 1_555
C19_6 C18_6 1_555 1_555
H10_6 C19_6 1_555 1_555
Eu4_6 O7_6 1_555 1_555
O9_6 H19_6 1_555 1_555
O9_6 H20_6 1_555 1_555
O3_6 C6_6 1_555 1_555
O4_6 C14_6 1_555 1_555
O5_6 C14_6 1_555 1_555
O6_6 C15_6 1_555 1_555
O8_6 C4_6 1_555 1_555
C3_6 C2_6 1_555 1_555
H1_6 C3_6 1_555 1_555
C4_6 C3_6 1_555 1_555
C5_6 C4_6 1_555 1_555
H2_6 C5_6 1_555 1_555
C6_6 C5_6 1_555 1_555
C7_6 C2_6 1_555 1_555
C8_6 O3_6 1_555 1_555
C9_5 C8_6 1_555 1_555
H4_6 C9_5 1_555 1_555
C10_5 C9_5 1_555 1_555
H5_5 C10_5 1_555 1_555
C11_5 C10_5 1_555 1_555
H6_5 C11_5 1_555 1_555
C12_5 C11_5 1_555 1_555
H7_5 C12_5 1_555 1_555
C13_6 C8_6 1_555 1_555
C14_6 C13_6 1_555 1_555
H11_6 C20_6 1_555 1_555
C21_6 O8_6 1_555 1_555
H13_6 C23_6 1_555 1_555
H14_6 C23_6 1_555 1_555
H15_6 C23_6 1_555 1_555
H17_4 C24_6 1_555 1_555
H18_6 C24_6 1_555 1_555
Eu2_6 O6_6 1_555 1_555
C6_6 C7_6 1_555 1_555
C12_5 C13_6 1_555 1_555
C20_6 C21_6 1_555 1_555
Eu2_6 O1_6 1_555 1_555
O1_6 C1_6 1_555 1_555
O2_6 Eu2_6 1_555 1_555
O10_6 Eu2_6 1_555 1_555
N1_6 C22_6 1_555 1_555
C1_6 O2_6 1_555 1_555
C22_6 O10_6 1_555 1_555
H12_6 C22_6 1_555 1_555
O11_6 Eu2_6 1_555 1_555
O12_6 Eu2_6 1_555 1_555
O15_6 Eu2_6 1_555 1_555
Eu2_7 O1_7 1_555 1_555
O1_7 C1_7 1_555 1_555
O2_7 Eu2_7 1_555 1_555
O3_7 C6_7 1_555 1_555
O4_7 C14_7 1_555 1_555
O5_7 C14_7 1_555 1_555
O6_7 C15_7 1_555 1_555
O7_7 C15_7 1_555 1_555
O8_7 C4_7 1_555 1_555
O9_7 Eu2_7 1_555 1_555
O10_7 Eu2_7 1_555 1_555
N1_7 C22_7 1_555 1_555
C1_7 O2_7 1_555 1_555
C2_7 C1_7 1_555 1_555
C3_7 C2_7 1_555 1_555
H1_7 C3_7 1_555 1_555
C4_7 C3_7 1_555 1_555
C5_7 C4_7 1_555 1_555
H2_7 C5_7 1_555 1_555
C6_7 C5_7 1_555 1_555
C7_7 C2_7 1_555 1_555
H3_7 C7_7 1_555 1_555
C8_7 O3_7 1_555 1_555
C9_6 C8_7 1_555 1_555
H4_7 C9_6 1_555 1_555
C10_6 C9_6 1_555 1_555
H5_6 C10_6 1_555 1_555
C11_6 C10_6 1_555 1_555
H6_6 C11_6 1_555 1_555
C12_6 C11_6 1_555 1_555
H7_6 C12_6 1_555 1_555
C13_7 C8_7 1_555 1_555
C14_7 C13_7 1_555 1_555
C15_7 C16_7 1_555 1_555
C16_7 C17_7 1_555 1_555
C17_7 H8_7 1_555 1_555
C18_7 C17_7 1_555 1_555
H9_7 C18_7 1_555 1_555
C19_7 C18_7 1_555 1_555
C20_7 C19_7 1_555 1_555
H11_7 C20_7 1_555 1_555
C21_7 O8_7 1_555 1_555
C22_7 O10_7 1_555 1_555
H12_7 C22_7 1_555 1_555
C23_7 N1_7 1_555 1_555
H13_7 C23_7 1_555 1_555
H14_7 C23_7 1_555 1_555
H15_7 C23_7 1_555 1_555
C24_7 N1_7 1_555 1_555
H16_7 C24_7 1_555 1_555
H17_5 C24_7 1_555 1_555
H18_7 C24_7 1_555 1_555
Eu4_5 O4_7 1_555 1_555
Eu3_3 O7_7 1_555 1_555
O5_7 Eu4_5 1_555 1_555
C6_7 C7_7 1_555 1_555
C12_6 C13_7 1_555 1_555
C16_7 C21_7 1_555 1_555
C20_7 C21_7 1_555 1_555
O9_7 H19_7 1_555 1_555
O9_7 H20_7 1_555 1_555
Eu2_8 O1_8 1_555 1_555
O1_8 C1_8 1_555 1_555
O2_8 Eu2_8 1_555 1_555
O3_8 C6_8 1_555 1_555
O4_8 C14_8 1_555 1_555
O5_8 C14_8 1_555 1_555
O6_8 C15_8 1_555 1_555
O7_8 C15_8 1_555 1_555
O8_8 C4_8 1_555 1_555
O9_8 Eu2_8 1_555 1_555
O10_8 Eu2_8 1_555 1_555
N1_8 C22_8 1_555 1_555
C1_8 O2_8 1_555 1_555
C2_8 C1_8 1_555 1_555
C3_8 C2_8 1_555 1_555
H1_8 C3_8 1_555 1_555
C4_8 C3_8 1_555 1_555
C5_8 C4_8 1_555 1_555
H2_8 C5_8 1_555 1_555
C6_8 C5_8 1_555 1_555
C7_8 C2_8 1_555 1_555
H3_8 C7_8 1_555 1_555
C8_8 O3_8 1_555 1_555
C9_7 C8_8 1_555 1_555
H4_8 C9_7 1_555 1_555
C10_7 C9_7 1_555 1_555
H5_7 C10_7 1_555 1_555
C11_7 C10_7 1_555 1_555
H6_7 C11_7 1_555 1_555
C12_7 C11_7 1_555 1_555
H7_7 C12_7 1_555 1_555
C13_8 C8_8 1_555 1_555
C14_8 C13_8 1_555 1_555
C15_8 C16_8 1_555 1_555
C16_8 C17_8 1_555 1_555
C17_8 H8_8 1_555 1_555
C18_8 C17_8 1_555 1_555
H9_8 C18_8 1_555 1_555
C19_8 C18_8 1_555 1_555
C20_8 C19_8 1_555 1_555
H11_8 C20_8 1_555 1_555
C21_8 O8_8 1_555 1_555
C22_8 O10_8 1_555 1_555
H12_8 C22_8 1_555 1_555
C23_8 N1_8 1_555 1_555
H13_8 C23_8 1_555 1_555
H14_8 C23_8 1_555 1_555
H15_8 C23_8 1_555 1_555
C24_8 N1_8 1_555 1_555
H16_8 C24_8 1_555 1_555
H17_6 C24_8 1_555 1_555
H18_8 C24_8 1_555 1_555
Eu4_6 O4_8 1_555 1_555
Eu3 O7_8 1_555 1_555
O5_8 Eu4_6 1_555 1_555
C6_8 C7_8 1_555 1_555
C12_7 C13_8 1_555 1_555
C16_8 C21_8 1_555 1_555
C20_8 C21_8 1_555 1_555
O9_8 H19_8 1_555 1_555
O9_8 H20_8 1_555 1_555
Eu2_9 O1_9 1_555 1_555
O1_9 C1_9 1_555 1_555
O2_9 Eu2_9 1_555 1_555
O3_9 C6_9 1_555 1_555
O4_9 C14_9 1_555 1_555
O5_9 C14_9 1_555 1_555
O6_9 C15_9 1_555 1_555
O7_9 C15_9 1_555 1_555
O8_9 C4_9 1_555 1_555
O9_9 Eu2_9 1_555 1_555
O10_9 Eu2_9 1_555 1_555
N1_9 C22_9 1_555 1_555
C1_9 O2_9 1_555 1_555
C2_9 C1_9 1_555 1_555
C3_9 C2_9 1_555 1_555
H1_9 C3_9 1_555 1_555
C4_9 C3_9 1_555 1_555
C5_9 C4_9 1_555 1_555
H2_9 C5_9 1_555 1_555
C6_9 C5_9 1_555 1_555
C7_9 C2_9 1_555 1_555
H3_9 C7_9 1_555 1_555
C8_9 O3_9 1_555 1_555
C9_8 C8_9 1_555 1_555
H4_9 C9_8 1_555 1_555
C10_8 C9_8 1_555 1_555
H5_8 C10_8 1_555 1_555
C11_8 C10_8 1_555 1_555
H6_8 C11_8 1_555 1_555
C12_8 C11_8 1_555 1_555
H7_8 C12_8 1_555 1_555
C13_9 C8_9 1_555 1_555
C14_9 C13_9 1_555 1_555
C15_9 C16_9 1_555 1_555
C16_9 C17_9 1_555 1_555
C17_9 H8_9 1_555 1_555
C18_9 C17_9 1_555 1_555
H9_9 C18_9 1_555 1_555
C19_9 C18_9 1_555 1_555
H10_7 C19_9 1_555 1_555
C20_9 C19_9 1_555 1_555
H11_9 C20_9 1_555 1_555
C21_9 O8_9 1_555 1_555
C22_9 O10_9 1_555 1_555
H12_9 C22_9 1_555 1_555
C23_9 N1_9 1_555 1_555
H13_9 C23_9 1_555 1_555
H14_9 C23_9 1_555 1_555
H15_9 C23_9 1_555 1_555
C24_9 N1_9 1_555 1_555
H16_9 C24_9 1_555 1_555
H17_7 C24_9 1_555 1_555
H18_9 C24_9 1_555 1_555
Eu4_4 O4_9 1_555 1_555
Eu3_2 O7_9 1_555 1_555
O5_9 Eu4_4 1_555 1_555
C6_9 C7_9 1_555 1_555
C12_8 C13_9 1_555 1_555
C16_9 C21_9 1_555 1_555
C20_9 C21_9 1_555 1_555
O9_9 H19_9 1_555 1_555
O9_9 H20_9 1_555 1_555
Eu3_3 O1_10 1_555 1_555
O1_10 C1_10 1_555 1_555
O2_10 Eu3_3 1_555 1_555
O9_10 Eu3_3 1_555 1_555
O10_10 Eu3_3 1_555 1_555
N1_10 C22_10 1_555 1_555
C1_10 O2_10 1_555 1_555
C2_10 C1_10 1_555 1_555
C3_10 C2_10 1_555 1_555
H1_10 C3_10 1_555 1_555
C4_10 C3_10 1_555 1_555
C5_10 C4_10 1_555 1_555
C6_10 C5_10 1_555 1_555
C7_10 C2_10 1_555 1_555
H3_10 C7_10 1_555 1_555
H9_10 C18_10 1_555 1_555
C19_10 C18_10 1_555 1_555
H10_8 C19_10 1_555 1_555
C20_10 C19_10 1_555 1_555
C22_10 O10_10 1_555 1_555
H12_10 C22_10 1_555 1_555
C23_10 N1_10 1_555 1_555
H13_10 C23_10 1_555 1_555
H14_10 C23_10 1_555 1_555
H15_10 C23_10 1_555 1_555
C24_10 N1_10 1_555 1_555
H16_10 C24_10 1_555 1_555
H18_10 C24_10 1_555 1_555
O13 Eu3_3 1_555 1_555
O15_7 Eu3_3 1_555 1_555
C6_10 C7_10 1_555 1_555
O9_10 H19_10 1_555 1_555
O9_10 H20_10 1_555 1_555
O13 C15_10 1_555 1_555
O15_7 C15_10 1_555 1_555
C15_10 C16_10 1_555 1_555
C16_10 C17_10 1_555 1_555
C17_10 H8_10 1_555 1_555
C21_10 O8_10 1_555 1_555
C16_10 C21_10 1_555 1_555
O11_2 C14_10 1_555 1_555
O12_2 C14_10 1_555 1_555
C8_10 O3_10 1_555 1_555
C13_10 C8_10 1_555 1_555
C14_10 C13_10 1_555 1_555
Eu3 O1_11 1_555 1_555
O1_11 C1_11 1_555 1_555
O2_11 Eu3 1_555 1_555
O3_11 C6_11 1_555 1_555
O11_3 C14_11 1_555 1_555
O12_3 C14_11 1_555 1_555
O9_11 Eu3 1_555 1_555
O10_11 Eu3 1_555 1_555
N1_11 C22_11 1_555 1_555
C1_11 O2_11 1_555 1_555
C2_11 C1_11 1_555 1_555
C3_11 C2_11 1_555 1_555
H1_11 C3_11 1_555 1_555
C4_11 C3_11 1_555 1_555
C5_11 C4_11 1_555 1_555
H2_11 C5_11 1_555 1_555
C6_11 C5_11 1_555 1_555
C7_11 C2_11 1_555 1_555
H3_11 C7_11 1_555 1_555
C8_11 O3_11 1_555 1_555
C13_11 C8_11 1_555 1_555
C14_11 C13_11 1_555 1_555
H9_11 C18_11 1_555 1_555
C19_11 C18_11 1_555 1_555
H10_9 C19_11 1_555 1_555
C20_11 C19_11 1_555 1_555
H11_11 C20_11 1_555 1_555
C22_11 O10_11 1_555 1_555
H12_11 C22_11 1_555 1_555
C23_11 N1_11 1_555 1_555
H13_11 C23_11 1_555 1_555
H14_11 C23_11 1_555 1_555
H15_11 C23_11 1_555 1_555
C24_11 N1_11 1_555 1_555
H16_11 C24_11 1_555 1_555
H18_11 C24_11 1_555 1_555
O13_2 Eu3 1_555 1_555
O15_8 Eu3 1_555 1_555
C6_11 C7_11 1_555 1_555
O9_11 H19_11 1_555 1_555
O9_11 H20_11 1_555 1_555
O13_2 C15_11 1_555 1_555
O15_8 C15_11 1_555 1_555
H4_11 C9_9 1_555 1_555
C10_9 C9_9 1_555 1_555
H5_9 C10_9 1_555 1_555
C11_9 C10_9 1_555 1_555
H6_9 C11_9 1_555 1_555
C12_9 C11_9 1_555 1_555
H7_9 C12_9 1_555 1_555
C15_11 C16_11 1_555 1_555
C16_11 C17_11 1_555 1_555
C17_11 H8_11 1_555 1_555
C21_11 O8_11 1_555 1_555
C16_11 C21_11 1_555 1_555
O11 C14_12 1_555 1_555
O12 C14_12 1_555 1_555
C8_12 O3_12 1_555 1_555
C13_12 C8_12 1_555 1_555
C14_12 C13_12 1_555 1_555
Eu3_2 O1_12 1_555 1_555
O1_12 C1_12 1_555 1_555
O2_12 Eu3_2 1_555 1_555
O9_12 Eu3_2 1_555 1_555
O10_12 Eu3_2 1_555 1_555
N1_12 C22_12 1_555 1_555
C1_12 O2_12 1_555 1_555
C2_12 C1_12 1_555 1_555
C3_12 C2_12 1_555 1_555
H1_12 C3_12 1_555 1_555
C4_12 C3_12 1_555 1_555
C5_12 C4_12 1_555 1_555
C6_12 C5_12 1_555 1_555
C7_12 C2_12 1_555 1_555
H3_12 C7_12 1_555 1_555
H9_12 C18_12 1_555 1_555
C19_12 C18_12 1_555 1_555
H10_10 C19_12 1_555 1_555
C20_12 C19_12 1_555 1_555
C22_12 O10_12 1_555 1_555
H12_12 C22_12 1_555 1_555
C23_12 N1_12 1_555 1_555
H13_12 C23_12 1_555 1_555
H14_12 C23_12 1_555 1_555
H15_12 C23_12 1_555 1_555
C24_12 N1_12 1_555 1_555
H16_12 C24_12 1_555 1_555
H17_8 C24_12 1_555 1_555
H18_12 C24_12 1_555 1_555
O13_3 Eu3_2 1_555 1_555
O15_9 Eu3_2 1_555 1_555
C6_12 C7_12 1_555 1_555
O9_12 H19_12 1_555 1_555
O9_12 H20_12 1_555 1_555
O13_3 C15_12 1_555 1_555
O15_9 C15_12 1_555 1_555
C15_12 C16_12 1_555 1_555
C16_12 C17_12 1_555 1_555
C17_12 H8_12 1_555 1_555
C21_12 O8_12 1_555 1_555
C16_12 C21_12 1_555 1_555
Eu4_4 O1_13 1_555 1_555
O1_13 C1_13 1_555 1_555
O2_13 Eu4_4 1_555 1_555
O9_13 Eu4_4 1_555 1_555
O10_13 Eu4_4 1_555 1_555
N1_13 C22_13 1_555 1_555
C1_13 O2_13 1_555 1_555
C22_13 O10_13 1_555 1_555
H12_13 C22_13 1_555 1_555
O13_4 Eu4_4 1_555 1_555
O15_4 Eu4_4 1_555 1_555
O9_13 H19_13 1_555 1_555
O9_13 H20_13 1_555 1_555
O3_13 C6_13 1_555 1_555
O11_8 C14_13 1_555 1_555
O12_8 C14_13 1_555 1_555
O13_4 C15_13 1_555 1_555
O15_4 C15_13 1_555 1_555
O8_13 C4_13 1_555 1_555
C3_13 C2_13 1_555 1_555
H1_13 C3_13 1_555 1_555
C4_13 C3_13 1_555 1_555
C5_13 C4_13 1_555 1_555
H2_13 C5_13 1_555 1_555
C6_13 C5_13 1_555 1_555
C7_13 C2_13 1_555 1_555
C8_13 O3_13 1_555 1_555
C9_10 C8_13 1_555 1_555
H4_13 C9_10 1_555 1_555
C10_10 C9_10 1_555 1_555
H5_10 C10_10 1_555 1_555
C11_10 C10_10 1_555 1_555
H6_10 C11_10 1_555 1_555
C12_10 C11_10 1_555 1_555
H7_10 C12_10 1_555 1_555
C13_13 C8_13 1_555 1_555
C14_13 C13_13 1_555 1_555
C15_13 C16_13 1_555 1_555
C16_13 C17_13 1_555 1_555
C17_13 H8_13 1_555 1_555
C18_13 C17_13 1_555 1_555
H9_13 C18_13 1_555 1_555
C19_13 C18_13 1_555 1_555
H10_11 C19_13 1_555 1_555
C20_13 C19_13 1_555 1_555
H11_13 C20_13 1_555 1_555
C21_13 O8_13 1_555 1_555
H13_13 C23_13 1_555 1_555
H14_13 C23_13 1_555 1_555
H15_13 C23_13 1_555 1_555
H17_9 C24_13 1_555 1_555
H18_13 C24_13 1_555 1_555
C6_13 C7_13 1_555 1_555
C12_10 C13_13 1_555 1_555
C16_13 C21_13 1_555 1_555
C20_13 C21_13 1_555 1_555
O9_14 H19_14 1_555 1_555
O9_14 H20_14 1_555 1_555
C16_14 C17_14 1_555 1_555
C17_14 H8_14 1_555 1_555
C18_14 C17_14 1_555 1_555
H9_14 C18_14 1_555 1_555
C19_14 C18_14 1_555 1_555
H10_12 C19_14 1_555 1_555
Eu4_5 O1_14 1_555 1_555
O1_14 C1_14 1_555 1_555
O2_14 Eu4_5 1_555 1_555
O10_14 Eu4_5 1_555 1_555
N1_14 C22_14 1_555 1_555
C1_14 O2_14 1_555 1_555
C22_14 O10_14 1_555 1_555
H12_14 C22_14 1_555 1_555
O13_5 Eu4_5 1_555 1_555
O3_14 C6_14 1_555 1_555
O11_9 C14_14 1_555 1_555
O12_9 C14_14 1_555 1_555
O13_5 C15_14 1_555 1_555
O8_14 C4_14 1_555 1_555
C3_14 C2_14 1_555 1_555
H1_14 C3_14 1_555 1_555
C4_14 C3_14 1_555 1_555
C5_14 C4_14 1_555 1_555
H2_14 C5_14 1_555 1_555
C6_14 C5_14 1_555 1_555
C7_14 C2_14 1_555 1_555
C8_14 O3_14 1_555 1_555
C9_11 C8_14 1_555 1_555
H4_14 C9_11 1_555 1_555
C10_11 C9_11 1_555 1_555
H5_11 C10_11 1_555 1_555
C11_11 C10_11 1_555 1_555
H6_11 C11_11 1_555 1_555
C12_11 C11_11 1_555 1_555
H7_11 C12_11 1_555 1_555
C13_14 C8_14 1_555 1_555
C14_14 C13_14 1_555 1_555
H11_14 C20_14 1_555 1_555
C21_14 O8_14 1_555 1_555
H13_14 C23_14 1_555 1_555
H14_14 C23_14 1_555 1_555
H15_14 C23_14 1_555 1_555
H17_10 C24_14 1_555 1_555
H18_14 C24_14 1_555 1_555
C6_14 C7_14 1_555 1_555
C12_11 C13_14 1_555 1_555
C20_14 C21_14 1_555 1_555
Eu4_6 O1_15 1_555 1_555
O1_15 C1_15 1_555 1_555
O2_15 Eu4_6 1_555 1_555
O10_15 Eu4_6 1_555 1_555
N1_15 C22_15 1_555 1_555
C1_15 O2_15 1_555 1_555
C22_15 O10_15 1_555 1_555
H12_15 C22_15 1_555 1_555
O13_6 Eu4_6 1_555 1_555
O3_15 C6_15 1_555 1_555
O11_7 C14_15 1_555 1_555
O12_7 C14_15 1_555 1_555
O13_6 C15_15 1_555 1_555
O8_15 C4_15 1_555 1_555
C3_15 C2_15 1_555 1_555
H1_15 C3_15 1_555 1_555
C4_15 C3_15 1_555 1_555
C5_15 C4_15 1_555 1_555
H2_15 C5_15 1_555 1_555
C6_15 C5_15 1_555 1_555
C7_15 C2_15 1_555 1_555
C8_15 O3_15 1_555 1_555
C9_12 C8_15 1_555 1_555
H4_15 C9_12 1_555 1_555
C10_12 C9_12 1_555 1_555
H5_12 C10_12 1_555 1_555
C11_12 C10_12 1_555 1_555
H6_12 C11_12 1_555 1_555
C12_12 C11_12 1_555 1_555
H7_12 C12_12 1_555 1_555
C13_15 C8_15 1_555 1_555
C14_15 C13_15 1_555 1_555
H11_15 C20_15 1_555 1_555
C21_15 O8_15 1_555 1_555
H13_15 C23_15 1_555 1_555
H14_15 C23_15 1_555 1_555
H15_15 C23_15 1_555 1_555
H17_11 C24_15 1_555 1_555
H18_15 C24_15 1_555 1_555
C6_15 C7_15 1_555 1_555
C12_12 C13_15 1_555 1_555
C20_15 C21_15 1_555 1_555
O9_15 H19_15 1_555 1_555
O9_15 H20_15 1_555 1_555
C16_15 C17_15 1_555 1_555
C17_15 H8_15 1_555 1_555
C18_15 C17_15 1_555 1_555
H9_15 C18_15 1_555 1_555
C19_15 C18_15 1_555 1_555
H10_13 C19_15 1_555 1_555
Eu4 O1_16 1_555 1_555
O1_16 C1_16 1_555 1_555
O2_16 Eu4 1_555 1_555
O3_16 C6_16 1_555 1_555
O11_5 C14_16 1_555 1_555
O12_5 C14_16 1_555 1_555
O13_7 C15_16 1_555 1_555
O15 C15_16 1_555 1_555
O8_16 C4_16 1_555 1_555
O9_16 Eu4 1_555 1_555
O10_16 Eu4 1_555 1_555
N1_16 C22_16 1_555 1_555
C1_16 O2_16 1_555 1_555
C2_16 C1_16 1_555 1_555
C3_16 C2_16 1_555 1_555
H1_16 C3_16 1_555 1_555
C4_16 C3_16 1_555 1_555
C5_16 C4_16 1_555 1_555
H2_16 C5_16 1_555 1_555
C6_16 C5_16 1_555 1_555
C7_16 C2_16 1_555 1_555
H3_16 C7_16 1_555 1_555
C8_16 O3_16 1_555 1_555
C9_13 C8_16 1_555 1_555
H4_16 C9_13 1_555 1_555
C10_13 C9_13 1_555 1_555
H5_13 C10_13 1_555 1_555
C11_13 C10_13 1_555 1_555
H6_13 C11_13 1_555 1_555
C12_13 C11_13 1_555 1_555
H7_13 C12_13 1_555 1_555
C13_16 C8_16 1_555 1_555
C14_16 C13_16 1_555 1_555
C15_16 C16_16 1_555 1_555
C16_16 C17_16 1_555 1_555
C17_16 H8_16 1_555 1_555
C18_16 C17_16 1_555 1_555
H9_16 C18_16 1_555 1_555
C19_16 C18_16 1_555 1_555
C20_16 C19_16 1_555 1_555
H11_16 C20_16 1_555 1_555
C21_16 O8_16 1_555 1_555
C22_16 O10_16 1_555 1_555
H12_16 C22_16 1_555 1_555
C23_16 N1_16 1_555 1_555
H13_16 C23_16 1_555 1_555
H14_16 C23_16 1_555 1_555
H15_16 C23_16 1_555 1_555
C24_16 N1_16 1_555 1_555
H16_16 C24_16 1_555 1_555
H17_12 C24_16 1_555 1_555
H18_16 C24_16 1_555 1_555
C6_16 C7_16 1_555 1_555
C12_13 C13_16 1_555 1_555
C16_16 C21_16 1_555 1_555
C20_16 C21_16 1_555 1_555
O9_16 H19_16 1_555 1_555
O9_16 H20_16 1_555 1_555
Eu4_2 O1_17 1_555 1_555
O1_17 C1_17 1_555 1_555
O2_17 Eu4_2 1_555 1_555
O3_17 C6_17 1_555 1_555
O11_6 C14_17 1_555 1_555
O12_6 C14_17 1_555 1_555
O13_8 C15_17 1_555 1_555
O15_2 C15_17 1_555 1_555
O8_17 C4_17 1_555 1_555
O9_17 Eu4_2 1_555 1_555
O10_17 Eu4_2 1_555 1_555
N1_17 C22_17 1_555 1_555
C1_17 O2_17 1_555 1_555
C2_17 C1_17 1_555 1_555
C3_17 C2_17 1_555 1_555
H1_17 C3_17 1_555 1_555
C4_17 C3_17 1_555 1_555
C5_17 C4_17 1_555 1_555
H2_17 C5_17 1_555 1_555
C6_17 C5_17 1_555 1_555
C7_17 C2_17 1_555 1_555
H3_17 C7_17 1_555 1_555
C8_17 O3_17 1_555 1_555
C9_14 C8_17 1_555 1_555
H4_17 C9_14 1_555 1_555
C10_14 C9_14 1_555 1_555
H5_14 C10_14 1_555 1_555
C11_14 C10_14 1_555 1_555
H6_14 C11_14 1_555 1_555
C12_14 C11_14 1_555 1_555
H7_14 C12_14 1_555 1_555
C13_17 C8_17 1_555 1_555
C14_17 C13_17 1_555 1_555
C15_17 C16_17 1_555 1_555
C16_17 C17_17 1_555 1_555
C17_17 H8_17 1_555 1_555
C18_17 C17_17 1_555 1_555
H9_17 C18_17 1_555 1_555
C19_17 C18_17 1_555 1_555
C20_17 C19_17 1_555 1_555
H11_17 C20_17 1_555 1_555
C21_17 O8_17 1_555 1_555
C22_17 O10_17 1_555 1_555
H12_17 C22_17 1_555 1_555
C23_17 N1_17 1_555 1_555
H13_17 C23_17 1_555 1_555
H14_17 C23_17 1_555 1_555
H15_17 C23_17 1_555 1_555
C24_17 N1_17 1_555 1_555
H16_17 C24_17 1_555 1_555
H17_13 C24_17 1_555 1_555
H18_17 C24_17 1_555 1_555
C6_17 C7_17 1_555 1_555
C12_14 C13_17 1_555 1_555
C16_17 C21_17 1_555 1_555
C20_17 C21_17 1_555 1_555
O9_17 H19_17 1_555 1_555
O9_17 H20_17 1_555 1_555
Eu4_3 O1_18 1_555 1_555
O1_18 C1_18 1_555 1_555
O2_18 Eu4_3 1_555 1_555
O3_18 C6_18 1_555 1_555
O11_4 C14_18 1_555 1_555
O12_4 C14_18 1_555 1_555
O13_9 C15_18 1_555 1_555
O15_3 C15_18 1_555 1_555
O8_18 C4_18 1_555 1_555
O9_18 Eu4_3 1_555 1_555
O10_18 Eu4_3 1_555 1_555
N1_18 C22_18 1_555 1_555
C1_18 O2_18 1_555 1_555
C2_18 C1_18 1_555 1_555
C3_18 C2_18 1_555 1_555
H1_18 C3_18 1_555 1_555
C4_18 C3_18 1_555 1_555
C5_18 C4_18 1_555 1_555
H2_18 C5_18 1_555 1_555
C6_18 C5_18 1_555 1_555
C7_18 C2_18 1_555 1_555
H3_18 C7_18 1_555 1_555
C8_18 O3_18 1_555 1_555
C9_15 C8_18 1_555 1_555
H4_18 C9_15 1_555 1_555
C10_15 C9_15 1_555 1_555
H5_15 C10_15 1_555 1_555
C11_15 C10_15 1_555 1_555
H6_15 C11_15 1_555 1_555
C12_15 C11_15 1_555 1_555
H7_15 C12_15 1_555 1_555
C13_18 C8_18 1_555 1_555
C14_18 C13_18 1_555 1_555
C15_18 C16_18 1_555 1_555
C16_18 C17_18 1_555 1_555
C17_18 H8_18 1_555 1_555
C18_18 C17_18 1_555 1_555
H9_18 C18_18 1_555 1_555
C19_18 C18_18 1_555 1_555
H10_14 C19_18 1_555 1_555
C20_18 C19_18 1_555 1_555
H11_18 C20_18 1_555 1_555
C21_18 O8_18 1_555 1_555
C22_18 O10_18 1_555 1_555
H12_18 C22_18 1_555 1_555
C23_18 N1_18 1_555 1_555
H13_18 C23_18 1_555 1_555
H14_18 C23_18 1_555 1_555
H15_18 C23_18 1_555 1_555
C24_18 N1_18 1_555 1_555
H16_18 C24_18 1_555 1_555
H17_14 C24_18 1_555 1_555
H18_18 C24_18 1_555 1_555
C6_18 C7_18 1_555 1_555
C12_15 C13_18 1_555 1_555
C16_18 C21_18 1_555 1_555
C20_18 C21_18 1_555 1_555
O9_18 H19_18 1_555 1_555
O9_18 H20_18 1_555 1_555
C10_16 C9_16 1_555 1_555
H5_16 C10_16 1_555 1_555
C11_16 C10_16 1_555 1_555
H6_16 C11_16 1_555 1_555
C12_16 C11_16 1_555 1_555
H7_16 C12_16 1_555 1_555
C10_17 C9_17 1_555 1_555
H5_17 C10_17 1_555 1_555
C11_17 C10_17 1_555 1_555
H6_17 C11_17 1_555 1_555
C12_17 C11_17 1_555 1_555
H7_17 C12_17 1_555 1_555
C10_18 C9_18 1_555 1_555
H5_18 C10_18 1_555 1_555
C11_18 C10_18 1_555 1_555
H6_18 C11_18 1_555 1_555
C12_18 C11_18 1_555 1_555
H7_18 C12_18 1_555 1_555

#END
