
###############################################################################
#
# This file contains modified crystal structure data generated from the
# MOF subset of the Cambridge Structural Database (CSD) v543 
# hosted by the Cambridge Crystallographic Data Centre (CCDC).
#
# This work is licensed under the Creative Commons
# Attribution-NonCommercial-ShareAlike 4.0 International License.
# To view a copy of this license, visit
# http://creativecommons.org/licenses/by-nc-sa/4.0/
# or send a letter to
# Creative Commons, PO Box 1866, Mountain View, CA 94042, USA.
#
# CIF created using the CSD Python API on 29 September 2022
# The structure has been converted into the P1 space group
# The structure has a 3D framework
# The original CSD entry SAZQEQ is in the rhombohedral crystal system
# The framework has been calculated to contain at least 10.0% void space
# The void calculation uses a probe of radius 1.32A, grid spacing 0.4
#
###############################################################################

data_SAZQEQ
_chemical_formula_moiety         '(C360 H216 N72 Zn5)n'
_symmetry_cell_setting           triclinic
_symmetry_space_group_name_H-M   'P 1'
_symmetry_Int_Tables_number      1
_space_group_name_Hall           'P 1'
loop_
_symmetry_equiv_pos_site_id
_symmetry_equiv_pos_as_xyz
1 x,y,z
_cell_length_a                   33.072(11)
_cell_length_b                   33.072(11)
_cell_length_c                   9.285(4)
_cell_angle_alpha                90
_cell_angle_beta                 90
_cell_angle_gamma                120
_cell_volume                     8794.95
loop_
_atom_site_label
_atom_site_type_symbol
_atom_site_fract_x
_atom_site_fract_y
_atom_site_fract_z
Zn3 Zn 0.1667 0.3334 0.3333
H15 H 0.0028 0.2025 0.7426
C32 C 0.0134(2) 0.2248(3) 0.3962(8)
C33 C 0.0602(2) 0.2490(3) 0.3622(8)
H18 H 0.0713 0.2366 0.2900
N11 N 0.09098(18) 0.2893(2) 0.4263(6)
C34 C 0.0745(2) 0.3063(2) 0.5261(8)
H19 H 0.0956 0.3351 0.5710
C35 C 0.0279(2) 0.2842(2) 0.5674(7)
H20 H 0.0178 0.2973 0.6400
Zn1 Zn 0.8333 0.1667 0.6667
N1 N 0.79956(17) 0.13256(18) 0.8538(6)
N2 N 0.77397(17) 0.16556(18) 0.5950(6)
C1 C 0.8169(2) 0.1162(2) 0.9629(8)
C4 C 0.7524(2) 0.1121(2) 0.8764(7)
C5 C 0.7212(2) 0.1171(2) 0.7889(8)
C6 C 0.7310(2) 0.1415(2) 0.6585(7)
C7 C 0.6962(2) 0.1441(3) 0.5696(8)
H3 H 0.6639 0.1308 0.5907
C8 C 0.7188(2) 0.1693(2) 0.4500(8)
H4 H 0.7052 0.1768 0.3718
C9 C 0.7679(2) 0.1826(2) 0.4646(8)
C10 C 0.8640(2) 0.1258(2) 0.9698(7)
C11 C 0.6707(2) 0.0914(2) 0.8330(8)
C12 C 0.6533(2) 0.1085(3) 0.9371(8)
H5 H 0.6737 0.1369 0.9852
C13 C 0.6065(2) 0.0843(3) 0.9711(8)
N3 N 0.57569(18) 0.0440(2) 0.9070(6)
C14 C 0.5922(2) 0.0270(2) 0.8072(8)
C15 C 0.6388(2) 0.0491(2) 0.7659(7)
H8 H 0.6489 0.0360 0.6933
H12 H 0.8917 0.0624 0.9851
Zn2 Zn 0.5000 0.0001 1.0000
N5 N 0.86711(17) 0.20077(18) 0.4795(6)
N8 N 0.89270(17) 0.16777(18) 0.7383(6)
C21 C 0.8498(2) 0.2171(2) 0.3704(8)
C22 C 0.8871(2) 0.2478(2) 0.2757(8)
H13 H 0.8846 0.2635 0.1932
C23 C 0.9265(2) 0.2500(2) 0.3277(8)
H14 H 0.9568 0.2673 0.2868
C24 C 0.9143(2) 0.2212(2) 0.4569(7)
C25 C 0.9455(2) 0.2162(2) 0.5444(8)
C26 C 0.9357(2) 0.1918(2) 0.6748(7)
C27 C 0.9705(2) 0.1892(3) 0.7637(8)
C28 C 0.9479(2) 0.1640(2) 0.8833(8)
H16 H 0.9615 0.1565 0.9615
C29 C 0.8988(2) 0.1507(2) 0.8687(8)
C30 C 0.8027(2) 0.2075(2) 0.3635(7)
C31 C 0.9960(2) 0.2419(2) 0.5003(8)
H17 H 0.9930 0.1964 0.3481
N12 N 0.86502(27) 0.24236(18) 0.7597(6)
N13 N 0.80164(27) 0.09098(18) 0.5737(6)
C36 C 0.7891(2) 0.2258(2) 0.2361(8)
C37 C 0.7900(2) 0.2118(3) 0.0968(8)
H21 H 0.8001 0.1900 0.0784
C39 C 0.7630(3) 0.2753(3) 0.1336(12)
H23 H 0.7539 0.2981 0.1470
C40 C 0.7756(2) 0.2593(2) 0.2551(9)
H24 H 0.7750 0.2709 0.3482
N14 N 0.42431(18) 0.9560(2) 0.0930(6)
N14_2 N 0.0440(2) 0.46831(27) 0.0930(6)
Zn1_2 Zn 0.8333 0.6666 0.6667
N1_2 N 0.86744(18) 0.66700(25) 0.8538(6)
N2_2 N 0.83444(18) 0.60841(25) 0.5950(6)
C1_2 C 0.8838(2) 0.7007(3) 0.9629(8)
C4_2 C 0.8879(2) 0.6403(3) 0.8764(7)
C5_2 C 0.8829(2) 0.6041(3) 0.7889(8)
C6_2 C 0.8585(2) 0.5895(3) 0.6585(7)
C7_2 C 0.8559(3) 0.5521(4) 0.5696(8)
H3_2 H 0.8692 0.5331 0.5907
C8_2 C 0.8307(2) 0.5495(3) 0.4500(8)
H4_2 H 0.8232 0.5284 0.3718
C9_2 C 0.8174(2) 0.5853(3) 0.4646(8)
C10_2 C 0.8742(2) 0.7382(3) 0.9698(7)
C11_2 C 0.9086(2) 0.5793(3) 0.8330(8)
C12_2 C 0.8915(3) 0.5448(4) 0.9371(8)
H5_2 H 0.8631 0.5368 0.9852
C13_2 C 0.9157(3) 0.5222(4) 0.9711(8)
N3_2 N 0.9560(2) 0.53169(27) 0.9070(6)
C14_2 C 0.9730(2) 0.5652(3) 0.8072(8)
C15_2 C 0.9509(2) 0.5897(3) 0.7659(7)
H8_2 H 0.9640 0.6129 0.6933
H12_2 H 0.9376 0.8293 0.9851
Zn2_2 Zn 0.9999 0.5000 1.0000
Zn3_2 Zn 0.6666 0.8333 0.3333
N5_2 N 0.79923(18) 0.66633(25) 0.4795(6)
N8_2 N 0.83223(18) 0.72492(25) 0.7383(6)
C21_2 C 0.7829(2) 0.6326(3) 0.3704(8)
C22_2 C 0.7522(2) 0.6392(3) 0.2757(8)
H13_2 H 0.7365 0.6210 0.1932
C23_2 C 0.7500(2) 0.6764(3) 0.3277(8)
H14_2 H 0.7327 0.6894 0.2868
C24_2 C 0.7788(2) 0.6930(3) 0.4569(7)
C25_2 C 0.7838(2) 0.7292(3) 0.5444(8)
C26_2 C 0.8082(2) 0.7438(3) 0.6748(7)
C27_2 C 0.8108(3) 0.7812(4) 0.7637(8)
H15_2 H 0.7975 0.8002 0.7426
C28_2 C 0.8360(2) 0.7838(3) 0.8833(8)
H16_2 H 0.8435 0.8049 0.9615
C29_2 C 0.8493(2) 0.7480(3) 0.8687(8)
C30_2 C 0.7925(2) 0.5951(3) 0.3635(7)
C31_2 C 0.7581(2) 0.7540(3) 0.5003(8)
C32_2 C 0.7752(3) 0.7885(4) 0.3962(8)
H17_2 H 0.8036 0.7965 0.3481
C33_2 C 0.7510(3) 0.8111(4) 0.3622(8)
H18_2 H 0.7634 0.8346 0.2900
N11_2 N 0.7107(2) 0.80164(27) 0.4263(6)
N12_2 N 0.75764(18) 0.62267(32) 0.7597(6)
N13_2 N 0.90902(18) 0.71067(32) 0.5737(6)
C34_2 C 0.6937(2) 0.7681(3) 0.5261(8)
H19_2 H 0.6649 0.7604 0.5710
C35_2 C 0.7158(2) 0.7436(3) 0.5674(7)
H20_2 H 0.7027 0.7204 0.6400
C36_2 C 0.7742(2) 0.5632(3) 0.2361(8)
C37_2 C 0.7882(3) 0.5781(4) 0.0968(8)
H21_2 H 0.8100 0.6100 0.0784
C39_2 C 0.7247(3) 0.4876(4) 0.1336(12)
H23_2 H 0.7019 0.4557 0.1470
C40_2 C 0.7407(2) 0.5162(3) 0.2551(9)
H24_2 H 0.7291 0.5040 0.3482
C2 C 0.3059(3) 0.2204(2) 0.0576(8)
H1 H 0.2877 0.2179 0.1401
C3 C 0.3431(3) 0.2598(2) 0.0056(8)
H2 H 0.3561 0.2901 0.0465
H6 H 0.5013 0.4046 0.0433
C16 C 0.2299(3) 0.1224(2) 0.0972(8)
C17 C 0.2448(4) 0.1233(2) 0.2365(8)
H9 H 0.2767 0.1334 0.2549
C18 C 0.2136(4) 0.1098(3) 0.3488(9)
H10 H 0.2252 0.1103 0.4428
N4 N 0.1693(4) 0.0963(2) 0.3366(9)
C19 C 0.1543(4) 0.0963(3) 0.1997(12)
H11 H 0.1224 0.0872 0.1863
C20 C 0.1829(3) 0.1089(2) 0.0782(9)
Zn2_3 Zn 0.5000 0.5000 -0.0000
N6 N 0.46623(31) 0.46589(18) 0.1871(6)
N10 N 0.55936(31) 0.50111(18) 0.0717(6)
N14_3 N 0.53169(27) 0.57569(18) 0.0930(6)
Zn1_3 Zn 0.3334 0.1667 0.6667
N1_3 N 0.33300(25) 0.20044(17) 0.8538(6)
N2_3 N 0.39159(25) 0.22603(17) 0.5950(6)
C1_3 C 0.2993(3) 0.1831(2) 0.9629(8)
C4_3 C 0.3597(3) 0.2476(2) 0.8764(7)
C5_3 C 0.3959(3) 0.2788(2) 0.7889(8)
C6_3 C 0.4105(3) 0.2690(2) 0.6585(7)
C7_3 C 0.4479(4) 0.3038(2) 0.5696(8)
H3_3 H 0.4669 0.3361 0.5907
C8_3 C 0.4505(3) 0.2812(2) 0.4500(8)
H4_3 H 0.4716 0.2948 0.3718
C9_3 C 0.4147(3) 0.2321(2) 0.4646(8)
C10_3 C 0.2618(3) 0.1360(2) 0.9698(7)
C11_3 C 0.4207(3) 0.3293(2) 0.8330(8)
C12_3 C 0.4552(4) 0.3467(2) 0.9371(8)
H5_3 H 0.4632 0.3263 0.9852
C13_3 C 0.4778(4) 0.3935(2) 0.9711(8)
N3_3 N 0.46831(27) 0.42431(18) 0.9070(6)
C14_3 C 0.4348(3) 0.4078(2) 0.8072(8)
H7 H 0.4271 0.4289 0.7623
C15_3 C 0.4103(3) 0.3612(2) 0.7659(7)
H8_3 H 0.3871 0.3511 0.6933
H12_3 H 0.1707 0.1083 0.9851
Zn2_4 Zn 0.5000 0.5000 1.0000
N5_3 N 0.33367(25) 0.13289(17) 0.4795(6)
N7 N 0.53377(31) 0.53411(18) 0.8129(6)
N8_3 N 0.27508(25) 0.10730(17) 0.7383(6)
N9 N 0.44064(31) 0.49889(18) 0.9283(6)
C21_3 C 0.3674(3) 0.1502(2) 0.3704(8)
C22_3 C 0.3608(3) 0.1129(2) 0.2757(8)
H13_3 H 0.3790 0.1154 0.1932
C23_3 C 0.3236(3) 0.0735(2) 0.3277(8)
H14_3 H 0.3106 0.0432 0.2868
C24_3 C 0.3070(3) 0.0857(2) 0.4569(7)
C25_3 C 0.2708(3) 0.0545(2) 0.5444(8)
C26_3 C 0.2562(3) 0.0643(2) 0.6748(7)
C27_3 C 0.2188(4) 0.0295(2) 0.7637(8)
C28_3 C 0.2162(3) 0.0521(2) 0.8833(8)
H16_3 H 0.1951 0.0385 0.9615
C29_3 C 0.2520(3) 0.1012(2) 0.8687(8)
C30_3 C 0.4049(3) 0.1973(2) 0.3635(7)
C31_3 C 0.2460(3) 0.0040(2) 0.5003(8)
H17_3 H 0.2035 0.0070 0.3481
N12_3 N 0.37733(32) 0.13498(27) 0.7597(6)
N13_3 N 0.28933(32) 0.19836(27) 0.5737(6)
C36_3 C 0.4368(3) 0.2109(2) 0.2361(8)
C37_3 C 0.4219(4) 0.2100(2) 0.0968(8)
H21_3 H 0.3900 0.1999 0.0784
C39_3 C 0.5124(4) 0.2370(3) 0.1336(12)
H23_3 H 0.5443 0.2461 0.1470
C40_3 C 0.4838(3) 0.2244(2) 0.2551(9)
H24_3 H 0.4960 0.2250 0.3482
Zn3_3 Zn 0.1667 0.8333 0.3333
H15_3 H 0.1998 0.9972 0.7426
C32_3 C 0.2115(4) 0.9866(2) 0.3962(8)
C33_3 C 0.1889(4) 0.9398(2) 0.3622(8)
H18_3 H 0.1654 0.9287 0.2900
N11_3 N 0.19836(27) 0.90902(18) 0.4263(6)
C34_3 C 0.2319(3) 0.9255(2) 0.5261(8)
H19_3 H 0.2396 0.9044 0.5710
C35_3 C 0.2564(3) 0.9721(2) 0.5674(7)
H20_3 H 0.2796 0.9822 0.6400
C1_4 C 0.4836(2) 0.4495(2) 0.2962(8)
C2_2 C 0.4463(2) 0.4188(2) 0.3909(8)
H1_2 H 0.4488 0.4031 0.4734
C3_2 C 0.4069(2) 0.4166(2) 0.3389(8)
H2_2 H 0.3766 0.3993 0.3798
C4_4 C 0.4191(2) 0.4454(2) 0.2097(7)
C5_4 C 0.3879(2) 0.4504(2) 0.1222(8)
C10_4 C 0.5307(2) 0.4591(2) 0.3031(7)
C11_4 C 0.3374(2) 0.4247(2) 0.1663(8)
C12_4 C 0.3200(2) 0.4418(3) 0.2704(8)
H5_4 H 0.3404 0.4702 0.3185
C13_4 C 0.2732(2) 0.4176(3) 0.3044(8)
H6_2 H 0.2621 0.4300 0.3766
N3_4 N 0.24236(18) 0.3773(2) 0.2403(6)
C14_4 C 0.2589(2) 0.3603(2) 0.1405(8)
H7_2 H 0.2378 0.3315 0.0956
C15_4 C 0.3055(2) 0.3824(2) 0.0992(7)
H8_4 H 0.3156 0.3693 0.0266
C16_2 C 0.5443(2) 0.4408(2) 0.4305(8)
C17_2 C 0.5434(2) 0.4548(3) 0.5698(8)
H9_2 H 0.5333 0.4766 0.5882
C18_2 C 0.5569(3) 0.4371(3) 0.6821(9)
H10_2 H 0.5564 0.4482 0.7761
N4_2 N 0.5704(2) 0.4063(3) 0.6699(9)
C19_2 C 0.5704(3) 0.3913(3) 0.5330(12)
H11_2 H 0.5795 0.3685 0.5196
C20_2 C 0.5578(2) 0.4073(2) 0.4115(9)
H12_4 H 0.5584 0.3957 0.3184
N6_2 N 0.20077(18) 0.33367(25) 0.5205(6)
N7_2 N 0.13256(18) 0.33300(25) 0.1462(6)
N9_2 N 0.16777(18) 0.27508(25) 0.2617(6)
N10_2 N 0.16556(18) 0.39159(25) 0.4050(6)
C26_4 C 0.6023(2) 0.5252(2) 0.0082(7)
C27_4 C 0.6371(2) 0.5226(3) 0.0971(8)
H15_4 H 0.6694 0.5359 0.0760
C28_4 C 0.6145(2) 0.4974(2) 0.2167(8)
H16_4 H 0.6281 0.4899 0.2949
C29_4 C 0.5654(2) 0.4841(2) 0.2021(8)
C6_4 C 0.3977(2) 0.4748(2) 0.9918(7)
C7_4 C 0.3629(2) 0.4774(3) 0.9029(8)
H3_4 H 0.3306 0.4641 0.9240
C8_4 C 0.3855(2) 0.5026(2) 0.7833(8)
H4_4 H 0.3719 0.5101 0.7051
C9_4 C 0.4346(2) 0.5159(2) 0.7979(8)
C21_4 C 0.5164(2) 0.5505(2) 0.7038(8)
C22_4 C 0.5537(2) 0.5812(2) 0.6091(8)
H13_4 H 0.5512 0.5969 0.5266
C23_4 C 0.5931(2) 0.5834(2) 0.6611(8)
H14_4 H 0.6234 0.6007 0.6202
C24_4 C 0.5809(2) 0.5546(2) 0.7903(7)
C25_4 C 0.6121(2) 0.5496(2) 0.8778(8)
C30_4 C 0.4693(2) 0.5409(2) 0.6969(7)
C31_4 C 0.6626(2) 0.5753(2) 0.8337(8)
C32_4 C 0.6800(2) 0.5582(3) 0.7296(8)
H17_4 H 0.6596 0.5298 0.6815
C33_4 C 0.7268(2) 0.5824(3) 0.6956(8)
H18_4 H 0.7379 0.5700 0.6234
C34_4 C 0.7411(2) 0.6397(2) 0.8595(8)
H19_4 H 0.7622 0.6685 0.9044
C35_4 C 0.6945(2) 0.6176(2) 0.9008(7)
H20_4 H 0.6844 0.6307 0.9734
C36_4 C 0.4557(2) 0.5592(2) 0.5695(8)
C37_4 C 0.4566(2) 0.5452(3) 0.4302(8)
H21_4 H 0.4667 0.5234 0.4118
C38 C 0.4431(3) 0.5629(3) 0.3179(9)
H22 H 0.4436 0.5518 0.2239
N15 N 0.4296(2) 0.5937(3) 0.3301(9)
C39_4 C 0.4296(3) 0.6087(3) 0.4670(12)
H23_4 H 0.4205 0.6315 0.4804
C40_4 C 0.4422(2) 0.5927(2) 0.5885(9)
H24_4 H 0.4416 0.6043 0.6816
C23_5 C 0.4166(2) 0.0098(3) 0.6611(8)
H14_5 H 0.3993 0.0228 0.6202
C24_5 C 0.4454(2) 0.0264(3) 0.7903(7)
C25_5 C 0.4504(2) 0.0626(3) 0.8778(8)
C31_5 C 0.4247(2) 0.0874(3) 0.8337(8)
C32_5 C 0.4418(3) 0.1219(4) 0.7296(8)
H17_5 H 0.4702 0.1299 0.6815
C33_5 C 0.4176(3) 0.1445(4) 0.6956(8)
H18_5 H 0.4300 0.1680 0.6234
C34_5 C 0.3603(2) 0.1015(3) 0.8595(8)
H19_5 H 0.3315 0.0938 0.9044
C35_5 C 0.3824(2) 0.0770(3) 0.9008(7)
H20_5 H 0.3693 0.0538 0.9734
Zn1_4 Zn 0.5000 0.9999 0.0000
C3_3 C 0.5834(2) 0.9902(3) 0.3389(8)
H2_3 H 0.6007 0.9772 0.3798
C4_5 C 0.5546(2) 0.9736(3) 0.2097(7)
C5_5 C 0.5496(2) 0.9374(3) 0.1222(8)
C11_5 C 0.5753(2) 0.9126(3) 0.1663(8)
C12_5 C 0.5582(3) 0.8781(4) 0.2704(8)
H5_5 H 0.5298 0.8701 0.3185
C13_5 C 0.5824(3) 0.8555(4) 0.3044(8)
H6_3 H 0.5700 0.8320 0.3766
N3_5 N 0.6227(2) 0.86502(27) 0.2403(6)
C14_5 C 0.6397(2) 0.8985(3) 0.1405(8)
H7_3 H 0.6685 0.9062 0.0956
C15_5 C 0.6176(2) 0.9230(3) 0.0992(7)
H8_5 H 0.6307 0.9462 0.0266
N6_3 N 0.66633(25) 0.86711(31) 0.5205(6)
N7_3 N 0.66700(25) 0.79956(31) 0.1462(6)
N9_3 N 0.72492(25) 0.89270(31) 0.2617(6)
N10_3 N 0.60841(25) 0.77397(31) 0.4050(6)
Zn1_5 Zn 0.0001 0.5000 0.0000
C3_4 C 0.0098(3) 0.5931(2) 0.3389(8)
H2_4 H 0.0228 0.6234 0.3798
C4_6 C 0.0264(3) 0.5809(2) 0.2097(7)
C5_6 C 0.0626(3) 0.6121(2) 0.1222(8)
C11_6 C 0.0874(3) 0.6626(2) 0.1663(8)
C12_6 C 0.1219(4) 0.6800(2) 0.2704(8)
H5_6 H 0.1299 0.6596 0.3185
C13_6 C 0.1445(4) 0.7268(2) 0.3044(8)
H6_4 H 0.1680 0.7379 0.3766
N3_6 N 0.13498(27) 0.75764(18) 0.2403(6)
C14_6 C 0.1015(3) 0.7411(2) 0.1405(8)
H7_4 H 0.0938 0.7622 0.0956
C15_6 C 0.0770(3) 0.6945(2) 0.0992(7)
H8_6 H 0.0538 0.6844 0.0266
N6_4 N 0.13289(31) 0.79923(18) 0.5205(6)
N7_4 N 0.20044(31) 0.86744(18) 0.1462(6)
N9_4 N 0.10730(31) 0.83223(18) 0.2617(6)
N10_4 N 0.22603(31) 0.83444(18) 0.4050(6)
C23_6 C 0.9902(3) 0.4069(2) 0.6611(8)
H14_6 H 0.9772 0.3766 0.6202
C24_6 C 0.9736(3) 0.4191(2) 0.7903(7)
C25_6 C 0.9374(3) 0.3879(2) 0.8778(8)
C31_6 C 0.9126(3) 0.3374(2) 0.8337(8)
C32_6 C 0.8781(4) 0.3200(2) 0.7296(8)
H17_6 H 0.8701 0.3404 0.6815
C33_6 C 0.8555(4) 0.2732(2) 0.6956(8)
H18_6 H 0.8320 0.2621 0.6234
C34_6 C 0.8985(3) 0.2589(2) 0.8595(8)
H19_6 H 0.9062 0.2378 0.9044
C35_6 C 0.9230(3) 0.3055(2) 0.9008(7)
H20_6 H 0.9462 0.3156 0.9734
C1_5 C 0.1502(2) 0.7829(2) 0.6296(8)
C2_3 C 0.1129(2) 0.7522(2) 0.7243(8)
H1_3 H 0.1154 0.7365 0.8068
C3_5 C 0.0735(2) 0.7500(2) 0.6723(8)
H2_5 H 0.0432 0.7327 0.7132
C4_7 C 0.0857(2) 0.7788(2) 0.5431(7)
C5_7 C 0.0545(2) 0.7838(2) 0.4556(8)
C6_5 C 0.0643(2) 0.8082(2) 0.3252(7)
C7_5 C 0.0295(2) 0.8108(3) 0.2363(8)
C8_5 C 0.0521(2) 0.8360(2) 0.1167(8)
H4_5 H 0.0385 0.8435 0.0385
C9_5 C 0.1012(2) 0.8493(2) 0.1313(8)
C10_5 C 0.1973(2) 0.7925(2) 0.6365(7)
C11_7 C 0.0040(2) 0.7581(2) 0.4997(8)
H5_7 H 0.0070 0.8036 0.6519
C16_3 C 0.2109(2) 0.7742(2) 0.7639(8)
C17_3 C 0.2100(2) 0.7882(3) 0.9032(8)
H9_3 H 0.1999 0.8100 0.9216
C19_3 C 0.2370(3) 0.7247(3) 0.8664(12)
H11_3 H 0.2461 0.7019 0.8530
C20_3 C 0.2244(2) 0.7407(2) 0.7449(9)
H12_5 H 0.2250 0.7291 0.6518
C21_5 C 0.1831(2) 0.8838(2) 0.0371(8)
C24_7 C 0.2476(2) 0.8879(2) 0.1236(7)
C25_7 C 0.2788(2) 0.8829(2) 0.2111(8)
C26_5 C 0.2690(2) 0.8585(2) 0.3415(7)
C27_5 C 0.3038(2) 0.8559(3) 0.4304(8)
H15_5 H 0.3361 0.8692 0.4093
C28_5 C 0.2812(2) 0.8307(2) 0.5500(8)
H16_5 H 0.2948 0.8232 0.6282
C29_5 C 0.2321(2) 0.8174(2) 0.5354(8)
C30_5 C 0.1360(2) 0.8742(2) 0.0302(7)
C31_7 C 0.3293(2) 0.9086(2) 0.1670(8)
C32_7 C 0.3467(2) 0.8915(3) 0.0629(8)
H17_7 H 0.3263 0.8631 0.0148
C33_7 C 0.3935(2) 0.9157(3) 0.0289(8)
C34_7 C 0.4078(2) 0.9730(2) 0.1928(8)
C35_7 C 0.3612(2) 0.9509(2) 0.2341(7)
H20_7 H 0.3511 0.9640 0.3067
H24_5 H 0.1083 0.9376 0.0149
H3_5 H 0.9972 0.7975 0.2574
C12_7 C 0.9866(2) 0.7752(3) 0.6038(8)
C13_7 C 0.9398(2) 0.7510(3) 0.6378(8)
H6_5 H 0.9287 0.7634 0.7100
C14_7 C 0.9255(2) 0.6937(2) 0.4739(8)
H7_5 H 0.9044 0.6649 0.4290
C15_7 C 0.9721(2) 0.7158(2) 0.4326(7)
H8_7 H 0.9822 0.7027 0.3600
C1_6 C 0.2171(2) 0.3674(3) 0.6296(8)
C2_4 C 0.2478(2) 0.3608(3) 0.7243(8)
H1_4 H 0.2635 0.3790 0.8068
C3_6 C 0.2500(2) 0.3236(3) 0.6723(8)
H2_6 H 0.2673 0.3106 0.7132
C4_8 C 0.2212(2) 0.3070(3) 0.5431(7)
C5_8 C 0.2162(2) 0.2708(3) 0.4556(8)
C6_6 C 0.1918(2) 0.2562(3) 0.3252(7)
C7_6 C 0.1892(3) 0.2188(4) 0.2363(8)
H3_6 H 0.2025 0.1998 0.2574
C8_6 C 0.1640(2) 0.2162(3) 0.1167(8)
H4_6 H 0.1565 0.1951 0.0385
C9_6 C 0.1507(2) 0.2520(3) 0.1313(8)
C10_6 C 0.2075(2) 0.4049(3) 0.6365(7)
C11_8 C 0.2419(2) 0.2460(3) 0.4997(8)
C12_8 C 0.2248(3) 0.2115(4) 0.6038(8)
H5_8 H 0.1964 0.2035 0.6519
C13_8 C 0.2490(3) 0.1889(4) 0.6378(8)
H6_6 H 0.2366 0.1654 0.7100
C14_8 C 0.3063(2) 0.2319(3) 0.4739(8)
H7_6 H 0.3351 0.2396 0.4290
C15_8 C 0.2842(2) 0.2564(3) 0.4326(7)
H8_8 H 0.2973 0.2796 0.3600
C16_4 C 0.2258(2) 0.4368(3) 0.7639(8)
C17_4 C 0.2118(3) 0.4219(4) 0.9032(8)
H9_4 H 0.1900 0.3900 0.9216
C19_4 C 0.2753(3) 0.5124(4) 0.8664(12)
H11_4 H 0.2981 0.5443 0.8530
C20_4 C 0.2593(2) 0.4838(3) 0.7449(9)
H12_6 H 0.2709 0.4960 0.6518
C21_6 C 0.1162(2) 0.2993(3) 0.0371(8)
C24_8 C 0.1121(2) 0.3597(3) 0.1236(7)
C25_8 C 0.1171(2) 0.3959(3) 0.2111(8)
C26_6 C 0.1415(2) 0.4105(3) 0.3415(7)
C27_6 C 0.1441(3) 0.4479(4) 0.4304(8)
H15_6 H 0.1308 0.4669 0.4093
C28_6 C 0.1693(2) 0.4505(3) 0.5500(8)
H16_6 H 0.1768 0.4716 0.6282
C29_6 C 0.1826(2) 0.4147(3) 0.5354(8)
C30_6 C 0.1258(2) 0.2618(3) 0.0302(7)
C31_8 C 0.0914(2) 0.4207(3) 0.1670(8)
C32_8 C 0.1085(3) 0.4552(4) 0.0629(8)
H17_8 H 0.1369 0.4632 0.0148
C33_8 C 0.0843(3) 0.4778(4) 0.0289(8)
C34_8 C 0.0270(2) 0.4348(3) 0.1928(8)
C35_8 C 0.0491(2) 0.4103(3) 0.2341(7)
H20_8 H 0.0360 0.3871 0.3067
H24_6 H 0.0624 0.1707 0.0149
H3_7 H 0.8002 0.0028 0.2574
C12_9 C 0.7885(4) 0.0134(2) 0.6038(8)
C13_9 C 0.8111(4) 0.0602(2) 0.6378(8)
H6_7 H 0.8346 0.0713 0.7100
C14_9 C 0.7681(3) 0.0745(2) 0.4739(8)
H7_7 H 0.7604 0.0956 0.4290
C15_9 C 0.7436(3) 0.0279(2) 0.4326(7)
H8_9 H 0.7204 0.0178 0.3600
C1_7 C 0.6326(3) 0.8498(2) 0.6296(8)
C2_5 C 0.6392(3) 0.8871(2) 0.7243(8)
H1_5 H 0.6210 0.8846 0.8068
C3_7 C 0.6764(3) 0.9265(2) 0.6723(8)
H2_7 H 0.6894 0.9568 0.7132
C4_9 C 0.6930(3) 0.9143(2) 0.5431(7)
C5_9 C 0.7292(3) 0.9455(2) 0.4556(8)
C6_7 C 0.7438(3) 0.9357(2) 0.3252(7)
C7_7 C 0.7812(4) 0.9705(2) 0.2363(8)
C8_7 C 0.7838(3) 0.9479(2) 0.1167(8)
H4_7 H 0.8049 0.9615 0.0385
C9_7 C 0.7480(3) 0.8988(2) 0.1313(8)
C10_7 C 0.5951(3) 0.8027(2) 0.6365(7)
C11_9 C 0.7540(3) 0.9960(2) 0.4997(8)
H5_9 H 0.7965 0.9930 0.6519
C16_5 C 0.5632(3) 0.7891(2) 0.7639(8)
C17_5 C 0.5781(4) 0.7900(2) 0.9032(8)
H9_5 H 0.6100 0.8001 0.9216
C19_5 C 0.4876(4) 0.7630(3) 0.8664(12)
H11_5 H 0.4557 0.7539 0.8530
C20_5 C 0.5162(3) 0.7756(2) 0.7449(9)
H12_7 H 0.5040 0.7750 0.6518
C21_7 C 0.7007(3) 0.8169(2) 0.0371(8)
C24_9 C 0.6403(3) 0.7524(2) 0.1236(7)
C25_9 C 0.6041(3) 0.7212(2) 0.2111(8)
C26_7 C 0.5895(3) 0.7310(2) 0.3415(7)
C27_7 C 0.5521(4) 0.6962(2) 0.4304(8)
H15_7 H 0.5331 0.6639 0.4093
C28_7 C 0.5495(3) 0.7188(2) 0.5500(8)
H16_7 H 0.5284 0.7052 0.6282
C29_7 C 0.5853(3) 0.7679(2) 0.5354(8)
C30_7 C 0.7382(3) 0.8640(2) 0.0302(7)
C31_9 C 0.5793(3) 0.6707(2) 0.1670(8)
C32_9 C 0.5448(4) 0.6533(2) 0.0629(8)
H17_9 H 0.5368 0.6737 0.0148
C33_9 C 0.5222(4) 0.6065(2) 0.0289(8)
C34_9 C 0.5652(3) 0.5922(2) 0.1928(8)
H19_7 H 0.5729 0.5711 0.2377
C35_9 C 0.5897(3) 0.6388(2) 0.2341(7)
H20_9 H 0.6129 0.6489 0.3067
H24_7 H 0.8293 0.8917 0.0149
C22_5 C 0.6941(3) 0.7796(2) 0.9424(8)
H13_5 H 0.7123 0.7821 0.8599
C23_7 C 0.6569(3) 0.7402(2) 0.9944(8)
H14_7 H 0.6439 0.7099 0.9535
H18_7 H 0.4987 0.5954 0.9567
C36_5 C 0.7701(3) 0.8776(2) 0.9028(8)
C37_5 C 0.7552(4) 0.8767(2) 0.7635(8)
H21_5 H 0.7233 0.8666 0.7451
C38_2 C 0.7864(4) 0.8902(3) 0.6512(9)
H22_2 H 0.7748 0.8897 0.5572
N15_2 N 0.8307(4) 0.9037(2) 0.6634(9)
C39_5 C 0.8457(4) 0.9037(3) 0.8003(12)
H23_5 H 0.8776 0.9128 0.8137
C40_5 C 0.8171(3) 0.8911(2) 0.9218(9)
C2_6 C 0.7796(2) 0.0855(2) 0.0576(8)
H1_6 H 0.7821 0.0698 0.1401
C3_8 C 0.7402(2) 0.0833(2) 0.0056(8)
H2_8 H 0.7099 0.0660 0.0465
H6_8 H 0.5954 0.0967 0.0433
C16_6 C 0.8776(2) 0.1075(2) 0.0972(8)
C17_6 C 0.8767(2) 0.1215(3) 0.2365(8)
H9_6 H 0.8666 0.1433 0.2549
C18_3 C 0.8902(3) 0.1038(3) 0.3488(9)
H10_3 H 0.8897 0.1149 0.4428
N4_3 N 0.9037(2) 0.0730(3) 0.3366(9)
C19_6 C 0.9037(3) 0.0580(3) 0.1997(12)
H11_6 H 0.9128 0.0352 0.1863
C20_6 C 0.8911(2) 0.0740(2) 0.0782(9)
Zn2_5 Zn 0.5000 0.0001 -0.0000
N6_5 N 0.53411(18) 0.00033(25) 0.1871(6)
N10_5 N 0.49889(18) 0.05826(25) 0.0717(6)
C1_8 C 0.5505(2) 0.0340(3) 0.2962(8)
C2_7 C 0.5812(2) 0.0274(3) 0.3909(8)
H1_7 H 0.5969 0.0456 0.4734
C10_8 C 0.5409(2) 0.0715(3) 0.3031(7)
C16_7 C 0.5592(2) 0.1034(3) 0.4305(8)
C17_7 C 0.5452(3) 0.0885(4) 0.5698(8)
H9_7 H 0.5234 0.0566 0.5882
C18_4 C 0.5629(3) 0.1197(4) 0.6821(9)
H10_4 H 0.5518 0.1081 0.7761
N4_4 N 0.5937(3) 0.1640(4) 0.6699(9)
C19_7 C 0.6087(3) 0.1790(4) 0.5330(12)
H11_7 H 0.6315 0.2109 0.5196
C20_7 C 0.5927(2) 0.1504(3) 0.4115(9)
H12_8 H 0.6043 0.1626 0.3184
C26_8 C 0.4748(2) 0.0772(3) 0.0082(7)
C27_8 C 0.4774(3) 0.1146(4) 0.0971(8)
H15_8 H 0.4641 0.1336 0.0760
C28_8 C 0.5026(2) 0.1172(3) 0.2167(8)
H16_8 H 0.5101 0.1383 0.2949
C29_8 C 0.5159(2) 0.0814(3) 0.2021(8)
H19_8 H 0.4289 0.0018 0.2377
C38_3 C 0.7765(3) 0.2295(3) 0.9845(9)
H22_3 H 0.7770 0.2184 0.8905
N15_3 N 0.7630(2) 0.2603(3) 0.9967(9)
H7_8 H 0.5711 0.9982 0.7623
N7_5 N 0.46589(18) 0.99967(25) 0.8129(6)
N9_5 N 0.50111(18) 0.94174(25) 0.9283(6)
Zn1_6 Zn 0.5000 0.9999 1.0000
C6_8 C 0.5252(2) 0.9228(3) 0.9918(7)
C7_8 C 0.5226(3) 0.8854(4) 0.9029(8)
H3_8 H 0.5359 0.8664 0.9240
C8_8 C 0.4974(2) 0.8828(3) 0.7833(8)
H4_8 H 0.4899 0.8617 0.7051
C9_8 C 0.4841(2) 0.9186(3) 0.7979(8)
C21_8 C 0.4495(2) 0.9660(3) 0.7038(8)
C22_6 C 0.4188(2) 0.9726(3) 0.6091(8)
H13_6 H 0.4031 0.9544 0.5266
C30_8 C 0.4591(2) 0.9285(3) 0.6969(7)
C36_6 C 0.4408(2) 0.8966(3) 0.5695(8)
C37_6 C 0.4548(3) 0.9115(4) 0.4302(8)
H21_6 H 0.4766 0.9434 0.4118
C38_4 C 0.4371(3) 0.8803(4) 0.3179(9)
H22_4 H 0.4482 0.8919 0.2239
N15_4 N 0.4063(3) 0.8360(4) 0.3301(9)
C39_6 C 0.3913(3) 0.8210(4) 0.4670(12)
H23_6 H 0.3685 0.7891 0.4804
C40_6 C 0.4073(2) 0.8496(3) 0.5885(9)
H24_8 H 0.3957 0.8374 0.6816
C22_7 C 0.2204(2) 0.9145(2) 0.9424(8)
H13_7 H 0.2179 0.9302 0.8599
C23_8 C 0.2598(2) 0.9167(2) 0.9944(8)
H14_8 H 0.2901 0.9340 0.9535
H18_8 H 0.4046 0.9033 0.9567
C36_7 C 0.1224(2) 0.8925(2) 0.9028(8)
C37_7 C 0.1233(2) 0.8785(3) 0.7635(8)
H21_7 H 0.1334 0.8567 0.7451
C38_5 C 0.1098(3) 0.8962(3) 0.6512(9)
H22_5 H 0.1103 0.8851 0.5572
N15_5 N 0.0963(2) 0.9270(3) 0.6634(9)
C39_7 C 0.0963(3) 0.9420(3) 0.8003(12)
H23_7 H 0.0872 0.9648 0.8137
C40_7 C 0.1089(2) 0.9260(2) 0.9218(9)
H7_9 H 0.0018 0.5729 0.7623
N7_6 N 0.00033(25) 0.46623(31) 0.8129(6)
N9_6 N 0.05826(25) 0.55936(31) 0.9283(6)
Zn1_7 Zn 0.0001 0.5000 1.0000
C6_9 C 0.0772(3) 0.6023(2) 0.9918(7)
C7_9 C 0.1146(4) 0.6371(2) 0.9029(8)
H3_9 H 0.1336 0.6694 0.9240
C8_9 C 0.1172(3) 0.6145(2) 0.7833(8)
H4_9 H 0.1383 0.6281 0.7051
C9_9 C 0.0814(3) 0.5654(2) 0.7979(8)
C21_9 C 0.0340(3) 0.4836(2) 0.7038(8)
C22_8 C 0.0274(3) 0.4463(2) 0.6091(8)
H13_8 H 0.0456 0.4488 0.5266
C30_9 C 0.0715(3) 0.5307(2) 0.6969(7)
C36_8 C 0.1034(3) 0.5443(2) 0.5695(8)
C37_8 C 0.0885(4) 0.5434(2) 0.4302(8)
H21_8 H 0.0566 0.5333 0.4118
C38_6 C 0.1197(4) 0.5569(3) 0.3179(9)
H22_6 H 0.1081 0.5564 0.2239
N15_6 N 0.1640(4) 0.5704(2) 0.3301(9)
C39_8 C 0.1790(4) 0.5704(3) 0.4670(12)
H23_8 H 0.2109 0.5795 0.4804
C40_8 C 0.1504(3) 0.5578(2) 0.5885(9)
H24_9 H 0.1626 0.5584 0.6816
C22_9 C 0.0855(2) 0.3059(3) 0.9424(8)
H13_9 H 0.0698 0.2877 0.8599
C23_9 C 0.0833(2) 0.3431(3) 0.9944(8)
H14_9 H 0.0660 0.3561 0.9535
H18_9 H 0.0967 0.5013 0.9567
C36_9 C 0.1075(2) 0.2299(3) 0.9028(8)
C37_9 C 0.1215(3) 0.2448(4) 0.7635(8)
H21_9 H 0.1433 0.2767 0.7451
C38_7 C 0.1038(3) 0.2136(4) 0.6512(9)
H22_7 H 0.1149 0.2252 0.5572
N15_7 N 0.0730(3) 0.1693(4) 0.6634(9)
C39_9 C 0.0580(3) 0.1543(4) 0.8003(12)
H23_9 H 0.0352 0.1224 0.8137
C40_9 C 0.0740(2) 0.1829(3) 0.9218(9)
C2_8 C 0.9145(2) 0.6941(3) 0.0576(8)
H1_8 H 0.9302 0.7123 0.1401
C3_9 C 0.9167(2) 0.6569(3) 0.0056(8)
H2_9 H 0.9340 0.6439 0.0465
H6_9 H 0.9033 0.4987 0.0433
C16_8 C 0.8925(2) 0.7701(3) 0.0972(8)
C17_8 C 0.8785(3) 0.7552(4) 0.2365(8)
H9_8 H 0.8567 0.7233 0.2549
C18_5 C 0.8962(3) 0.7864(4) 0.3488(9)
H10_5 H 0.8851 0.7748 0.4428
N4_5 N 0.9270(3) 0.8307(4) 0.3366(9)
C19_8 C 0.9420(3) 0.8457(4) 0.1997(12)
H11_8 H 0.9648 0.8776 0.1863
C20_8 C 0.9260(2) 0.8171(3) 0.0782(9)
Zn2_6 Zn 0.9999 0.5000 -0.0000
N6_6 N 0.99967(25) 0.53377(31) 0.1871(6)
N10_6 N 0.94174(25) 0.44064(31) 0.0717(6)
C1_9 C 0.9660(3) 0.5164(2) 0.2962(8)
C2_9 C 0.9726(3) 0.5537(2) 0.3909(8)
H1_9 H 0.9544 0.5512 0.4734
C10_9 C 0.9285(3) 0.4693(2) 0.3031(7)
C16_9 C 0.8966(3) 0.4557(2) 0.4305(8)
C17_9 C 0.9115(4) 0.4566(2) 0.5698(8)
H9_9 H 0.9434 0.4667 0.5882
C18_6 C 0.8803(4) 0.4431(3) 0.6821(9)
H10_6 H 0.8919 0.4436 0.7761
N4_6 N 0.8360(4) 0.4296(2) 0.6699(9)
C19_9 C 0.8210(4) 0.4296(3) 0.5330(12)
H11_9 H 0.7891 0.4205 0.5196
C20_9 C 0.8496(3) 0.4422(2) 0.4115(9)
H12_9 H 0.8374 0.4416 0.3184
C26_9 C 0.9228(3) 0.3977(2) 0.0082(7)
C27_9 C 0.8854(4) 0.3629(2) 0.0971(8)
H15_9 H 0.8664 0.3306 0.0760
C28_9 C 0.8828(3) 0.3855(2) 0.2167(8)
H16_9 H 0.8617 0.3719 0.2949
C29_9 C 0.9186(3) 0.4346(2) 0.2021(8)
H19_9 H 0.9982 0.4271 0.2377
C38_8 C 0.7705(3) 0.5469(4) 0.9845(9)
H22_8 H 0.7816 0.5585 0.8905
N15_8 N 0.7397(3) 0.5026(4) 0.9967(9)
C38_9 C 0.4531(4) 0.2235(3) 0.9845(9)
H22_9 H 0.4415 0.2230 0.8905
N15_9 N 0.4974(4) 0.2370(2) 0.9967(9)
C18_7 C 0.2235(3) 0.7705(3) 0.0155(9)
H10_7 H 0.2230 0.7816 0.1095
N4_7 N 0.2370(2) 0.7397(3) 0.0033(9)
C18_8 C 0.2295(3) 0.4531(4) 0.0155(9)
H10_8 H 0.2184 0.4415 0.1095
N4_8 N 0.2603(3) 0.4974(4) 0.0033(9)
C18_9 C 0.5469(4) 0.7765(3) 0.0155(9)
H10_9 H 0.5585 0.7770 0.1095
N4_9 N 0.5026(4) 0.7630(2) 0.0033(9)
loop_
_geom_bond_atom_site_label_1
_geom_bond_atom_site_label_2
_geom_bond_site_symmetry_1
_geom_bond_site_symmetry_2
Zn3 N11 1_555 1_555
C33 C32 1_555 1_555
H18 C33 1_555 1_555
N11 C33 1_555 1_555
C34 N11 1_555 1_555
H19 C34 1_555 1_555
H20 C35 1_555 1_555
C34 C35 1_555 1_555
Zn1 N1 1_555 1_555
N1 C1 1_555 1_555
N2 Zn1 1_555 1_555
C4 N1 1_555 1_555
C5 C4 1_555 1_555
C6 N2 1_555 1_555
C7 C6 1_555 1_555
H3 C7 1_555 1_555
C8 C7 1_555 1_555
H4 C8 1_555 1_555
C9 N2 1_555 1_555
C10 C1 1_555 1_555
C11 C5 1_555 1_555
C12 C11 1_555 1_555
H5 C12 1_555 1_555
C13 C12 1_555 1_555
N3 C13 1_555 1_555
C14 N3 1_555 1_555
C15 C11 1_555 1_555
H8 C15 1_555 1_555
Zn2 N3 1_555 1_555
N5 Zn1 1_555 1_555
N8 Zn1 1_555 1_555
C21 N5 1_555 1_555
C22 C21 1_555 1_555
H13 C22 1_555 1_555
C23 C22 1_555 1_555
H14 C23 1_555 1_555
C24 N5 1_555 1_555
C25 C24 1_555 1_555
C26 N8 1_555 1_555
C27 C26 1_555 1_555
C28 C27 1_555 1_555
H16 C28 1_555 1_555
C29 C10 1_555 1_555
C30 C9 1_555 1_555
C31 C25 1_555 1_555
N12 Zn1 1_555 1_555
N13 Zn1 1_555 1_555
C36 C30 1_555 1_555
C37 C36 1_555 1_555
H21 C37 1_555 1_555
H23 C39 1_555 1_555
C40 C36 1_555 1_555
H24 C40 1_555 1_555
C5 C6 1_555 1_555
C8 C9 1_555 1_555
C14 C15 1_555 1_555
N8 C29 1_555 1_555
C21 C30 1_555 1_555
C23 C24 1_555 1_555
C25 C26 1_555 1_555
C28 C29 1_555 1_555
C39 C40 1_555 1_555
Zn1_2 N1_2 1_555 1_555
N1_2 C1_2 1_555 1_555
N2_2 Zn1_2 1_555 1_555
C4_2 N1_2 1_555 1_555
C5_2 C4_2 1_555 1_555
C6_2 N2_2 1_555 1_555
C7_2 C6_2 1_555 1_555
H3_2 C7_2 1_555 1_555
C8_2 C7_2 1_555 1_555
H4_2 C8_2 1_555 1_555
C9_2 N2_2 1_555 1_555
C10_2 C1_2 1_555 1_555
C11_2 C5_2 1_555 1_555
C12_2 C11_2 1_555 1_555
H5_2 C12_2 1_555 1_555
C13_2 C12_2 1_555 1_555
N3_2 C13_2 1_555 1_555
C14_2 N3_2 1_555 1_555
C15_2 C11_2 1_555 1_555
H8_2 C15_2 1_555 1_555
Zn2_2 N3_2 1_555 1_555
Zn3_2 N11_2 1_555 1_555
N5_2 Zn1_2 1_555 1_555
N8_2 Zn1_2 1_555 1_555
C21_2 N5_2 1_555 1_555
C22_2 C21_2 1_555 1_555
H13_2 C22_2 1_555 1_555
C23_2 C22_2 1_555 1_555
H14_2 C23_2 1_555 1_555
C24_2 N5_2 1_555 1_555
C25_2 C24_2 1_555 1_555
C26_2 N8_2 1_555 1_555
C27_2 C26_2 1_555 1_555
H15_2 C27_2 1_555 1_555
C28_2 C27_2 1_555 1_555
H16_2 C28_2 1_555 1_555
C29_2 C10_2 1_555 1_555
C30_2 C9_2 1_555 1_555
C31_2 C25_2 1_555 1_555
C32_2 C31_2 1_555 1_555
H17_2 C32_2 1_555 1_555
C33_2 C32_2 1_555 1_555
H18_2 C33_2 1_555 1_555
N11_2 C33_2 1_555 1_555
N12_2 Zn1_2 1_555 1_555
N13_2 Zn1_2 1_555 1_555
C34_2 N11_2 1_555 1_555
H19_2 C34_2 1_555 1_555
C35_2 C31_2 1_555 1_555
H20_2 C35_2 1_555 1_555
C36_2 C30_2 1_555 1_555
C37_2 C36_2 1_555 1_555
H21_2 C37_2 1_555 1_555
H23_2 C39_2 1_555 1_555
C40_2 C36_2 1_555 1_555
H24_2 C40_2 1_555 1_555
C5_2 C6_2 1_555 1_555
C8_2 C9_2 1_555 1_555
C14_2 C15_2 1_555 1_555
N8_2 C29_2 1_555 1_555
C21_2 C30_2 1_555 1_555
C23_2 C24_2 1_555 1_555
C25_2 C26_2 1_555 1_555
C28_2 C29_2 1_555 1_555
C34_2 C35_2 1_555 1_555
C39_2 C40_2 1_555 1_555
C2 H1 1_555 1_555
C3 C2 1_555 1_555
H2 C3 1_555 1_555
C17 C16 1_555 1_555
H9 C17 1_555 1_555
C18 C17 1_555 1_555
H10 C18 1_555 1_555
N4 C18 1_555 1_555
C19 N4 1_555 1_555
H11 C19 1_555 1_555
C20 C16 1_555 1_555
N6 Zn2_3 1_555 1_555
N10 Zn2_3 1_555 1_555
N14_3 Zn2_3 1_555 1_555
C19 C20 1_555 1_555
Zn1_3 N1_3 1_555 1_555
N1_3 C1_3 1_555 1_555
N2_3 Zn1_3 1_555 1_555
C4_3 N1_3 1_555 1_555
C5_3 C4_3 1_555 1_555
C6_3 N2_3 1_555 1_555
C7_3 C6_3 1_555 1_555
H3_3 C7_3 1_555 1_555
C8_3 C7_3 1_555 1_555
H4_3 C8_3 1_555 1_555
C9_3 N2_3 1_555 1_555
C10_3 C1_3 1_555 1_555
C11_3 C5_3 1_555 1_555
C12_3 C11_3 1_555 1_555
H5_3 C12_3 1_555 1_555
C13_3 C12_3 1_555 1_555
N3_3 C13_3 1_555 1_555
C14_3 N3_3 1_555 1_555
H7 C14_3 1_555 1_555
C15_3 C11_3 1_555 1_555
H8_3 C15_3 1_555 1_555
Zn2_4 N3_3 1_555 1_555
N5_3 Zn1_3 1_555 1_555
N7 Zn2_4 1_555 1_555
N8_3 Zn1_3 1_555 1_555
N9 Zn2_4 1_555 1_555
C21_3 N5_3 1_555 1_555
C22_3 C21_3 1_555 1_555
H13_3 C22_3 1_555 1_555
C23_3 C22_3 1_555 1_555
H14_3 C23_3 1_555 1_555
C24_3 N5_3 1_555 1_555
C25_3 C24_3 1_555 1_555
C26_3 N8_3 1_555 1_555
C27_3 C26_3 1_555 1_555
C28_3 C27_3 1_555 1_555
H16_3 C28_3 1_555 1_555
C29_3 C10_3 1_555 1_555
C30_3 C9_3 1_555 1_555
C31_3 C25_3 1_555 1_555
N12_3 Zn1_3 1_555 1_555
N13_3 Zn1_3 1_555 1_555
C36_3 C30_3 1_555 1_555
C37_3 C36_3 1_555 1_555
H21_3 C37_3 1_555 1_555
H23_3 C39_3 1_555 1_555
C40_3 C36_3 1_555 1_555
H24_3 C40_3 1_555 1_555
C5_3 C6_3 1_555 1_555
C8_3 C9_3 1_555 1_555
C14_3 C15_3 1_555 1_555
N8_3 C29_3 1_555 1_555
C21_3 C30_3 1_555 1_555
C23_3 C24_3 1_555 1_555
C25_3 C26_3 1_555 1_555
C28_3 C29_3 1_555 1_555
C39_3 C40_3 1_555 1_555
Zn3_3 N11_3 1_555 1_555
C33_3 C32_3 1_555 1_555
H18_3 C33_3 1_555 1_555
N11_3 C33_3 1_555 1_555
C34_3 N11_3 1_555 1_555
H19_3 C34_3 1_555 1_555
H20_3 C35_3 1_555 1_555
C34_3 C35_3 1_555 1_555
N6 C1_4 1_555 1_555
C1_4 C2_2 1_555 1_555
C2_2 H1_2 1_555 1_555
C3_2 C2_2 1_555 1_555
H2_2 C3_2 1_555 1_555
C4_4 N6 1_555 1_555
C5_4 C4_4 1_555 1_555
C10_4 C1_4 1_555 1_555
C11_4 C5_4 1_555 1_555
C12_4 C11_4 1_555 1_555
H5_4 C12_4 1_555 1_555
C13_4 C12_4 1_555 1_555
H6_2 C13_4 1_555 1_555
N3_4 C13_4 1_555 1_555
C14_4 N3_4 1_555 1_555
H7_2 C14_4 1_555 1_555
C15_4 C11_4 1_555 1_555
H8_4 C15_4 1_555 1_555
C16_2 C10_4 1_555 1_555
C17_2 C16_2 1_555 1_555
H9_2 C17_2 1_555 1_555
C18_2 C17_2 1_555 1_555
H10_2 C18_2 1_555 1_555
N4_2 C18_2 1_555 1_555
C19_2 N4_2 1_555 1_555
H11_2 C19_2 1_555 1_555
C20_2 C16_2 1_555 1_555
H12_4 C20_2 1_555 1_555
Zn3 N3_4 1_555 1_555
N6_2 Zn3 1_555 1_555
N7_2 Zn3 1_555 1_555
N9_2 Zn3 1_555 1_555
N10_2 Zn3 1_555 1_555
C26_4 N10 1_555 1_555
C27_4 C26_4 1_555 1_555
H15_4 C27_4 1_555 1_555
C28_4 C27_4 1_555 1_555
H16_4 C28_4 1_555 1_555
C29_4 C10_4 1_555 1_555
C3_2 C4_4 1_555 1_555
C14_4 C15_4 1_555 1_555
C19_2 C20_2 1_555 1_555
N10 C29_4 1_555 1_555
C28_4 C29_4 1_555 1_555
C6_4 N9 1_555 1_555
C7_4 C6_4 1_555 1_555
H3_4 C7_4 1_555 1_555
C8_4 C7_4 1_555 1_555
H4_4 C8_4 1_555 1_555
C9_4 N9 1_555 1_555
C21_4 N7 1_555 1_555
C22_4 C21_4 1_555 1_555
H13_4 C22_4 1_555 1_555
C23_4 C22_4 1_555 1_555
H14_4 C23_4 1_555 1_555
C24_4 N7 1_555 1_555
C25_4 C24_4 1_555 1_555
C30_4 C9_4 1_555 1_555
C31_4 C25_4 1_555 1_555
C32_4 C31_4 1_555 1_555
H17_4 C32_4 1_555 1_555
C33_4 C32_4 1_555 1_555
H18_4 C33_4 1_555 1_555
N12_2 C33_4 1_555 1_555
C34_4 N12_2 1_555 1_555
H19_4 C34_4 1_555 1_555
C35_4 C31_4 1_555 1_555
H20_4 C35_4 1_555 1_555
C36_4 C30_4 1_555 1_555
C37_4 C36_4 1_555 1_555
H21_4 C37_4 1_555 1_555
C38 C37_4 1_555 1_555
H22 C38 1_555 1_555
N15 C38 1_555 1_555
C39_4 N15 1_555 1_555
H23_4 C39_4 1_555 1_555
C40_4 C36_4 1_555 1_555
H24_4 C40_4 1_555 1_555
C8_4 C9_4 1_555 1_555
C21_4 C30_4 1_555 1_555
C23_4 C24_4 1_555 1_555
C34_4 C35_4 1_555 1_555
C39_4 C40_4 1_555 1_555
H14_5 C23_5 1_555 1_555
C25_5 C24_5 1_555 1_555
C31_5 C25_5 1_555 1_555
C32_5 C31_5 1_555 1_555
H17_5 C32_5 1_555 1_555
C33_5 C32_5 1_555 1_555
H18_5 C33_5 1_555 1_555
N12_3 C33_5 1_555 1_555
C34_5 N12_3 1_555 1_555
H19_5 C34_5 1_555 1_555
C35_5 C31_5 1_555 1_555
H20_5 C35_5 1_555 1_555
C23_5 C24_5 1_555 1_555
C34_5 C35_5 1_555 1_555
H2_3 C3_3 1_555 1_555
C5_5 C4_5 1_555 1_555
C11_5 C5_5 1_555 1_555
C12_5 C11_5 1_555 1_555
H5_5 C12_5 1_555 1_555
C13_5 C12_5 1_555 1_555
H6_3 C13_5 1_555 1_555
N3_5 C13_5 1_555 1_555
C14_5 N3_5 1_555 1_555
H7_3 C14_5 1_555 1_555
C15_5 C11_5 1_555 1_555
H8_5 C15_5 1_555 1_555
Zn3_2 N3_5 1_555 1_555
N6_3 Zn3_2 1_555 1_555
N7_3 Zn3_2 1_555 1_555
N9_3 Zn3_2 1_555 1_555
N10_3 Zn3_2 1_555 1_555
N14 Zn1_4 1_555 1_555
C3_3 C4_5 1_555 1_555
C14_5 C15_5 1_555 1_555
H2_4 C3_4 1_555 1_555
C5_6 C4_6 1_555 1_555
C11_6 C5_6 1_555 1_555
C12_6 C11_6 1_555 1_555
H5_6 C12_6 1_555 1_555
C13_6 C12_6 1_555 1_555
H6_4 C13_6 1_555 1_555
N3_6 C13_6 1_555 1_555
C14_6 N3_6 1_555 1_555
H7_4 C14_6 1_555 1_555
C15_6 C11_6 1_555 1_555
H8_6 C15_6 1_555 1_555
Zn3_3 N3_6 1_555 1_555
N6_4 Zn3_3 1_555 1_555
N7_4 Zn3_3 1_555 1_555
N9_4 Zn3_3 1_555 1_555
N10_4 Zn3_3 1_555 1_555
N14_2 Zn1_5 1_555 1_555
C3_4 C4_6 1_555 1_555
C14_6 C15_6 1_555 1_555
H14_6 C23_6 1_555 1_555
C25_6 C24_6 1_555 1_555
C31_6 C25_6 1_555 1_555
C32_6 C31_6 1_555 1_555
H17_6 C32_6 1_555 1_555
C33_6 C32_6 1_555 1_555
H18_6 C33_6 1_555 1_555
N12 C33_6 1_555 1_555
C34_6 N12 1_555 1_555
H19_6 C34_6 1_555 1_555
C35_6 C31_6 1_555 1_555
H20_6 C35_6 1_555 1_555
C23_6 C24_6 1_555 1_555
C34_6 C35_6 1_555 1_555
N6_4 C1_5 1_555 1_555
C1_5 C2_3 1_555 1_555
C2_3 H1_3 1_555 1_555
C3_5 C2_3 1_555 1_555
H2_5 C3_5 1_555 1_555
C4_7 N6_4 1_555 1_555
C5_7 C4_7 1_555 1_555
C6_5 N9_4 1_555 1_555
C7_5 C6_5 1_555 1_555
C8_5 C7_5 1_555 1_555
H4_5 C8_5 1_555 1_555
C9_5 N9_4 1_555 1_555
C10_5 C1_5 1_555 1_555
C11_7 C5_7 1_555 1_555
C16_3 C10_5 1_555 1_555
C17_3 C16_3 1_555 1_555
H9_3 C17_3 1_555 1_555
H11_3 C19_3 1_555 1_555
C20_3 C16_3 1_555 1_555
H12_5 C20_3 1_555 1_555
C21_5 N7_4 1_555 1_555
C24_7 N7_4 1_555 1_555
C25_7 C24_7 1_555 1_555
C26_5 N10_4 1_555 1_555
C27_5 C26_5 1_555 1_555
H15_5 C27_5 1_555 1_555
C28_5 C27_5 1_555 1_555
H16_5 C28_5 1_555 1_555
C29_5 C10_5 1_555 1_555
C30_5 C9_5 1_555 1_555
C31_7 C25_7 1_555 1_555
C32_7 C31_7 1_555 1_555
H17_7 C32_7 1_555 1_555
C33_7 C32_7 1_555 1_555
N14 C33_7 1_555 1_555
C34_7 N14 1_555 1_555
C35_7 C31_7 1_555 1_555
H20_7 C35_7 1_555 1_555
C3_5 C4_7 1_555 1_555
C5_7 C6_5 1_555 1_555
C8_5 C9_5 1_555 1_555
C19_3 C20_3 1_555 1_555
N10_4 C29_5 1_555 1_555
C21_5 C30_5 1_555 1_555
C25_7 C26_5 1_555 1_555
C28_5 C29_5 1_555 1_555
C34_7 C35_7 1_555 1_555
C13_7 C12_7 1_555 1_555
H6_5 C13_7 1_555 1_555
N13_2 C13_7 1_555 1_555
C14_7 N13_2 1_555 1_555
H7_5 C14_7 1_555 1_555
H8_7 C15_7 1_555 1_555
C14_7 C15_7 1_555 1_555
N6_2 C1_6 1_555 1_555
C1_6 C2_4 1_555 1_555
C2_4 H1_4 1_555 1_555
C3_6 C2_4 1_555 1_555
H2_6 C3_6 1_555 1_555
C4_8 N6_2 1_555 1_555
C5_8 C4_8 1_555 1_555
C6_6 N9_2 1_555 1_555
C7_6 C6_6 1_555 1_555
H3_6 C7_6 1_555 1_555
C8_6 C7_6 1_555 1_555
H4_6 C8_6 1_555 1_555
C9_6 N9_2 1_555 1_555
C10_6 C1_6 1_555 1_555
C11_8 C5_8 1_555 1_555
C12_8 C11_8 1_555 1_555
H5_8 C12_8 1_555 1_555
C13_8 C12_8 1_555 1_555
H6_6 C13_8 1_555 1_555
N13_3 C13_8 1_555 1_555
C14_8 N13_3 1_555 1_555
H7_6 C14_8 1_555 1_555
C15_8 C11_8 1_555 1_555
H8_8 C15_8 1_555 1_555
C16_4 C10_6 1_555 1_555
C17_4 C16_4 1_555 1_555
H9_4 C17_4 1_555 1_555
H11_4 C19_4 1_555 1_555
C20_4 C16_4 1_555 1_555
H12_6 C20_4 1_555 1_555
C21_6 N7_2 1_555 1_555
C24_8 N7_2 1_555 1_555
C25_8 C24_8 1_555 1_555
C26_6 N10_2 1_555 1_555
C27_6 C26_6 1_555 1_555
H15_6 C27_6 1_555 1_555
C28_6 C27_6 1_555 1_555
H16_6 C28_6 1_555 1_555
C29_6 C10_6 1_555 1_555
C30_6 C9_6 1_555 1_555
C31_8 C25_8 1_555 1_555
C32_8 C31_8 1_555 1_555
H17_8 C32_8 1_555 1_555
C33_8 C32_8 1_555 1_555
N14_2 C33_8 1_555 1_555
C34_8 N14_2 1_555 1_555
C35_8 C31_8 1_555 1_555
H20_8 C35_8 1_555 1_555
C3_6 C4_8 1_555 1_555
C5_8 C6_6 1_555 1_555
C8_6 C9_6 1_555 1_555
C14_8 C15_8 1_555 1_555
C19_4 C20_4 1_555 1_555
N10_2 C29_6 1_555 1_555
C21_6 C30_6 1_555 1_555
C25_8 C26_6 1_555 1_555
C28_6 C29_6 1_555 1_555
C34_8 C35_8 1_555 1_555
C13_9 C12_9 1_555 1_555
H6_7 C13_9 1_555 1_555
N13 C13_9 1_555 1_555
C14_9 N13 1_555 1_555
H7_7 C14_9 1_555 1_555
H8_9 C15_9 1_555 1_555
C14_9 C15_9 1_555 1_555
N6_3 C1_7 1_555 1_555
C1_7 C2_5 1_555 1_555
C2_5 H1_5 1_555 1_555
C3_7 C2_5 1_555 1_555
H2_7 C3_7 1_555 1_555
C4_9 N6_3 1_555 1_555
C5_9 C4_9 1_555 1_555
C6_7 N9_3 1_555 1_555
C7_7 C6_7 1_555 1_555
C8_7 C7_7 1_555 1_555
H4_7 C8_7 1_555 1_555
C9_7 N9_3 1_555 1_555
C10_7 C1_7 1_555 1_555
C11_9 C5_9 1_555 1_555
C16_5 C10_7 1_555 1_555
C17_5 C16_5 1_555 1_555
H9_5 C17_5 1_555 1_555
H11_5 C19_5 1_555 1_555
C20_5 C16_5 1_555 1_555
H12_7 C20_5 1_555 1_555
C21_7 N7_3 1_555 1_555
C24_9 N7_3 1_555 1_555
C25_9 C24_9 1_555 1_555
C26_7 N10_3 1_555 1_555
C27_7 C26_7 1_555 1_555
H15_7 C27_7 1_555 1_555
C28_7 C27_7 1_555 1_555
H16_7 C28_7 1_555 1_555
C29_7 C10_7 1_555 1_555
C30_7 C9_7 1_555 1_555
C31_9 C25_9 1_555 1_555
C32_9 C31_9 1_555 1_555
H17_9 C32_9 1_555 1_555
C33_9 C32_9 1_555 1_555
N14_3 C33_9 1_555 1_555
C34_9 N14_3 1_555 1_555
H19_7 C34_9 1_555 1_555
C35_9 C31_9 1_555 1_555
H20_9 C35_9 1_555 1_555
C3_7 C4_9 1_555 1_555
C5_9 C6_7 1_555 1_555
C8_7 C9_7 1_555 1_555
C19_5 C20_5 1_555 1_555
N10_3 C29_7 1_555 1_555
C21_7 C30_7 1_555 1_555
C25_9 C26_7 1_555 1_555
C28_7 C29_7 1_555 1_555
C34_9 C35_9 1_555 1_555
H13_5 C22_5 1_555 1_555
C23_7 C22_5 1_555 1_555
H14_7 C23_7 1_555 1_555
C37_5 C36_5 1_555 1_555
H21_5 C37_5 1_555 1_555
C38_2 C37_5 1_555 1_555
H22_2 C38_2 1_555 1_555
N15_2 C38_2 1_555 1_555
C39_5 N15_2 1_555 1_555
H23_5 C39_5 1_555 1_555
C40_5 C36_5 1_555 1_555
C39_5 C40_5 1_555 1_555
C2_6 H1_6 1_555 1_555
C3_8 C2_6 1_555 1_555
H2_8 C3_8 1_555 1_555
C17_6 C16_6 1_555 1_555
H9_6 C17_6 1_555 1_555
C18_3 C17_6 1_555 1_555
H10_3 C18_3 1_555 1_555
N4_3 C18_3 1_555 1_555
C19_6 N4_3 1_555 1_555
H11_6 C19_6 1_555 1_555
C20_6 C16_6 1_555 1_555
N6_5 Zn2_5 1_555 1_555
N10_5 Zn2_5 1_555 1_555
C19_6 C20_6 1_555 1_555
N6_5 C1_8 1_555 1_555
C1_8 C2_7 1_555 1_555
C2_7 H1_7 1_555 1_555
C10_8 C1_8 1_555 1_555
C16_7 C10_8 1_555 1_555
C17_7 C16_7 1_555 1_555
H9_7 C17_7 1_555 1_555
C18_4 C17_7 1_555 1_555
H10_4 C18_4 1_555 1_555
N4_4 C18_4 1_555 1_555
C19_7 N4_4 1_555 1_555
H11_7 C19_7 1_555 1_555
C20_7 C16_7 1_555 1_555
H12_8 C20_7 1_555 1_555
C26_8 N10_5 1_555 1_555
C27_8 C26_8 1_555 1_555
H15_8 C27_8 1_555 1_555
C28_8 C27_8 1_555 1_555
H16_8 C28_8 1_555 1_555
C29_8 C10_8 1_555 1_555
C19_7 C20_7 1_555 1_555
N10_5 C29_8 1_555 1_555
C28_8 C29_8 1_555 1_555
H22_3 C38_3 1_555 1_555
N15_3 C38_3 1_555 1_555
N9_5 Zn1_6 1_555 1_555
C6_8 N9_5 1_555 1_555
C7_8 C6_8 1_555 1_555
H3_8 C7_8 1_555 1_555
C8_8 C7_8 1_555 1_555
H4_8 C8_8 1_555 1_555
C9_8 N9_5 1_555 1_555
N7_5 Zn1_6 1_555 1_555
C21_8 N7_5 1_555 1_555
C22_6 C21_8 1_555 1_555
H13_6 C22_6 1_555 1_555
C30_8 C9_8 1_555 1_555
C36_6 C30_8 1_555 1_555
C37_6 C36_6 1_555 1_555
H21_6 C37_6 1_555 1_555
C38_4 C37_6 1_555 1_555
H22_4 C38_4 1_555 1_555
N15_4 C38_4 1_555 1_555
C39_6 N15_4 1_555 1_555
H23_6 C39_6 1_555 1_555
C40_6 C36_6 1_555 1_555
H24_8 C40_6 1_555 1_555
C8_8 C9_8 1_555 1_555
C21_8 C30_8 1_555 1_555
C39_6 C40_6 1_555 1_555
H13_7 C22_7 1_555 1_555
C23_8 C22_7 1_555 1_555
H14_8 C23_8 1_555 1_555
C37_7 C36_7 1_555 1_555
H21_7 C37_7 1_555 1_555
C38_5 C37_7 1_555 1_555
H22_5 C38_5 1_555 1_555
N15_5 C38_5 1_555 1_555
C39_7 N15_5 1_555 1_555
H23_7 C39_7 1_555 1_555
C40_7 C36_7 1_555 1_555
C39_7 C40_7 1_555 1_555
N9_6 Zn1_7 1_555 1_555
C6_9 N9_6 1_555 1_555
C7_9 C6_9 1_555 1_555
H3_9 C7_9 1_555 1_555
C8_9 C7_9 1_555 1_555
H4_9 C8_9 1_555 1_555
C9_9 N9_6 1_555 1_555
N7_6 Zn1_7 1_555 1_555
C21_9 N7_6 1_555 1_555
C22_8 C21_9 1_555 1_555
H13_8 C22_8 1_555 1_555
C30_9 C9_9 1_555 1_555
C36_8 C30_9 1_555 1_555
C37_8 C36_8 1_555 1_555
H21_8 C37_8 1_555 1_555
C38_6 C37_8 1_555 1_555
H22_6 C38_6 1_555 1_555
N15_6 C38_6 1_555 1_555
C39_8 N15_6 1_555 1_555
H23_8 C39_8 1_555 1_555
C40_8 C36_8 1_555 1_555
H24_9 C40_8 1_555 1_555
C8_9 C9_9 1_555 1_555
C21_9 C30_9 1_555 1_555
C39_8 C40_8 1_555 1_555
H13_9 C22_9 1_555 1_555
C23_9 C22_9 1_555 1_555
H14_9 C23_9 1_555 1_555
C37_9 C36_9 1_555 1_555
H21_9 C37_9 1_555 1_555
C38_7 C37_9 1_555 1_555
H22_7 C38_7 1_555 1_555
N15_7 C38_7 1_555 1_555
C39_9 N15_7 1_555 1_555
H23_9 C39_9 1_555 1_555
C40_9 C36_9 1_555 1_555
C39_9 C40_9 1_555 1_555
C2_8 H1_8 1_555 1_555
C3_9 C2_8 1_555 1_555
H2_9 C3_9 1_555 1_555
C17_8 C16_8 1_555 1_555
H9_8 C17_8 1_555 1_555
C18_5 C17_8 1_555 1_555
H10_5 C18_5 1_555 1_555
N4_5 C18_5 1_555 1_555
C19_8 N4_5 1_555 1_555
H11_8 C19_8 1_555 1_555
C20_8 C16_8 1_555 1_555
N6_6 Zn2_6 1_555 1_555
N10_6 Zn2_6 1_555 1_555
C19_8 C20_8 1_555 1_555
N6_6 C1_9 1_555 1_555
C1_9 C2_9 1_555 1_555
C2_9 H1_9 1_555 1_555
C10_9 C1_9 1_555 1_555
C16_9 C10_9 1_555 1_555
C17_9 C16_9 1_555 1_555
H9_9 C17_9 1_555 1_555
C18_6 C17_9 1_555 1_555
H10_6 C18_6 1_555 1_555
N4_6 C18_6 1_555 1_555
C19_9 N4_6 1_555 1_555
H11_9 C19_9 1_555 1_555
C20_9 C16_9 1_555 1_555
H12_9 C20_9 1_555 1_555
C26_9 N10_6 1_555 1_555
C27_9 C26_9 1_555 1_555
H15_9 C27_9 1_555 1_555
C28_9 C27_9 1_555 1_555
H16_9 C28_9 1_555 1_555
C29_9 C10_9 1_555 1_555
C19_9 C20_9 1_555 1_555
N10_6 C29_9 1_555 1_555
C28_9 C29_9 1_555 1_555
H22_8 C38_8 1_555 1_555
N15_8 C38_8 1_555 1_555
H22_9 C38_9 1_555 1_555
N15_9 C38_9 1_555 1_555
H10_7 C18_7 1_555 1_555
N4_7 C18_7 1_555 1_555
H10_8 C18_8 1_555 1_555
N4_8 C18_8 1_555 1_555
H10_9 C18_9 1_555 1_555
N4_9 C18_9 1_555 1_555

#END
