
###############################################################################
#
# This file contains modified crystal structure data generated from the
# MOF subset of the Cambridge Structural Database (CSD) v543 
# hosted by the Cambridge Crystallographic Data Centre (CCDC).
#
# This work is licensed under the Creative Commons
# Attribution-NonCommercial-ShareAlike 4.0 International License.
# To view a copy of this license, visit
# http://creativecommons.org/licenses/by-nc-sa/4.0/
# or send a letter to
# Creative Commons, PO Box 1866, Mountain View, CA 94042, USA.
#
# CIF created using the CSD Python API on 29 September 2022
# The structure has been converted into the P1 space group
# The structure has a 3D framework
# The original CSD entry SECBIO is in the rhombohedral crystal system
# The framework has been calculated to contain at least 10.0% void space
# The void calculation uses a probe of radius 1.32A, grid spacing 0.4
#
###############################################################################

data_SECBIO
_chemical_formula_moiety         '(C432 H348 Eu36 O236 Zn12)n'
_symmetry_cell_setting           triclinic
_symmetry_space_group_name_H-M   'P 1'
_symmetry_Int_Tables_number      1
_space_group_name_Hall           'P 1'
loop_
_symmetry_equiv_pos_site_id
_symmetry_equiv_pos_as_xyz
1 x,y,z
_cell_length_a                   23.1389(18)
_cell_length_b                   23.1389(18)
_cell_length_c                   30.787(3)
_cell_angle_alpha                90
_cell_angle_beta                 90
_cell_angle_gamma                120
_cell_volume                     14275.2
loop_
_atom_site_label
_atom_site_type_symbol
_atom_site_fract_x
_atom_site_fract_y
_atom_site_fract_z
O17 O 0.8537(6) 0.0064(8) 0.0513(4)
C32 C 0.7777(9) 0.0315(13) 0.1163(8)
H29 H 0.820265 0.051782 0.104260
C33 C 0.7604(10) 0.0680(16) 0.1412(8)
H30 H 0.789292 0.113484 0.145424
C34 C 0.6949(11) 0.0338(16) 0.1611(8)
H31 H 0.682779 0.058541 0.178913
H37 H 0.646519 0.009791 0.030034
Eu10 Eu 0.96709(3) 0.07555(5) 0.03119(2)
Eu12 Eu 0.10847(4) 0.03291(3) 0.03119(2)
Eu1 Eu 0.30042(3) 0.55820(4) 0.19786(2)
Eu2 Eu 0.22419(3) 0.60237(3) 0.02417(2)
Zn1 Zn 0.333333 0.666667 0.1114(3)
O1 O 0.2728(7) 0.4409(6) 0.1886(4)
O2 O 0.2685(7) 0.4902(6) 0.1298(5)
O3 O 0.1527(6) 0.1463(6) 0.0513(4)
O4 O 0.0709(6) 0.1691(6) 0.0501(6)
O5 O 0.2084(7) 0.4959(7) 0.0113(5)
O6 O 0.3115(7) 0.5151(6) 0.0007(5)
O9 O 0.2613(5) 0.6183(5) 0.1501(3)
H1 H 0.224389 0.592897 0.137613
O10 O 0.3056(5) 0.5942(5) 0.0727(4)
H2 H 0.290423 0.556522 0.085131
O11 O 0.333333 0.666667 0.2280(6)
H3 H 0.333333 0.666667 0.255645
O12 O 0.2932(8) 0.5339(8) 0.2737(5)
H4 H 0.301798 0.502766 0.278218
H5 H 0.321328 0.568818 0.287248
C1 C 0.2611(8) 0.4409(7) 0.1487(5)
C2 C 0.1278(8) 0.1835(7) 0.0598(5)
C3 C 0.2356(8) 0.3745(8) 0.1228(6)
C4 C 0.1865(8) 0.3593(7) 0.0958(6)
H9 H 0.173553 0.390693 0.090072
C5 C 0.1523(8) 0.2960(8) 0.0751(5)
H10 H 0.115673 0.285856 0.057605
C6 C 0.1714(8) 0.2510(7) 0.0801(5)
C7 C 0.2297(8) 0.2665(8) 0.1077(6)
C8 C 0.2538(10) 0.2223(9) 0.1163(8)
H11 H 0.231517 0.179735 0.104260
C9 C 0.3076(12) 0.2396(10) 0.1412(8)
H12 H 0.324192 0.210708 0.145424
C10 C 0.3389(11) 0.3051(11) 0.1611(8)
H13 H 0.375762 0.317221 0.178913
C11 C 0.3189(10) 0.3474(9) 0.1558(7)
H14 H 0.341573 0.388996 0.169132
C12 C 0.2607(8) 0.3302(8) 0.1289(6)
C13 C 0.2484(10) 0.4784(9) 0.0014(7)
C22 C 0.3269(14) 0.3427(14) 0.0121(9)
H19 H 0.363272 0.353481 0.030034
C23 C 0.3045(9) 0.3854(9) 0.0083(8)
H20 H 0.325322 0.425530 0.023476
Eu3 Eu 0.44180(4) 0.74222(5) 0.19786(2)
Eu4 Eu 0.39763(3) 0.62182(4) 0.02417(2)
O15 O 0.5591(6) 0.8319(9) 0.1886(4)
O16 O 0.5098(6) 0.7783(9) 0.1298(5)
O18 O 0.8309(6) 0.9018(8) 0.0501(6)
O19 O 0.5041(7) 0.7125(10) 0.0113(5)
O20 O 0.4849(6) 0.7964(9) 0.0007(5)
O23 O 0.3817(5) 0.6430(7) 0.1501(3)
H21 H 0.407103 0.631492 0.137613
O24 O 0.4058(5) 0.7114(7) 0.0727(4)
H22 H 0.443478 0.733901 0.085131
O25 O 0.4661(8) 0.7593(11) 0.2737(5)
H23 H 0.497234 0.799032 0.278218
H24 H 0.431182 0.752510 0.287248
C25 C 0.5591(7) 0.8202(11) 0.1487(5)
C26 C 0.8165(7) 0.9443(11) 0.0598(5)
C27 C 0.6255(8) 0.8611(11) 0.1228(6)
C28 C 0.6407(7) 0.8272(11) 0.0958(6)
H27 H 0.609307 0.782860 0.090072
C29 C 0.7040(8) 0.8563(11) 0.0751(5)
H28 H 0.714144 0.829817 0.057605
C30 C 0.7490(7) 0.9204(11) 0.0801(5)
C31 C 0.7335(8) 0.9632(11) 0.1077(6)
C35 C 0.6526(9) 0.9715(13) 0.1558(7)
H32 H 0.611004 0.952577 0.169132
C36 C 0.6698(8) 0.9305(11) 0.1289(6)
C37 C 0.5216(9) 0.7700(13) 0.0014(7)
C46 C 0.6573(14) 0.9842(20) 0.0121(9)
C47 C 0.6146(9) 0.9191(13) 0.0083(8)
H38 H 0.574470 0.899792 0.023476
Eu5 Eu 0.25778(5) 0.69958(3) 0.19786(2)
Eu6 Eu 0.37818(4) 0.77581(3) 0.02417(2)
O27 O 0.1681(9) 0.7272(7) 0.1886(4)
O28 O 0.2217(9) 0.7315(7) 0.1298(5)
O30 O 0.0982(8) 0.9291(6) 0.0501(6)
O31 O 0.2875(10) 0.7916(7) 0.0113(5)
O32 O 0.2036(9) 0.6885(7) 0.0007(5)
O35 O 0.3570(7) 0.7387(5) 0.1501(3)
H39 H 0.368508 0.775611 0.137613
O36 O 0.2886(7) 0.6944(5) 0.0727(4)
H40 H 0.266099 0.709577 0.085131
O37 O 0.2407(11) 0.7068(8) 0.2737(5)
H41 H 0.200968 0.698202 0.278218
H42 H 0.247490 0.678672 0.287248
C49 C 0.1798(11) 0.7389(8) 0.1487(5)
C50 C 0.0557(11) 0.8722(8) 0.0598(5)
C51 C 0.1389(11) 0.7644(8) 0.1228(6)
C52 C 0.1728(11) 0.8135(8) 0.0958(6)
H45 H 0.217140 0.826447 0.090072
C53 C 0.1437(11) 0.8477(8) 0.0751(5)
H46 H 0.170183 0.884327 0.057605
C54 C 0.0796(11) 0.8286(8) 0.0801(5)
C55 C 0.0368(11) 0.7703(8) 0.1077(6)
C59 C 0.0285(13) 0.6811(10) 0.1558(7)
H50 H 0.047423 0.658427 0.169132
C60 C 0.0695(11) 0.7393(8) 0.1289(6)
C61 C 0.2300(13) 0.7516(10) 0.0014(7)
C70 C 0.0158(20) 0.6731(14) 0.0121(9)
C71 C 0.0809(13) 0.6955(9) 0.0083(8)
H56 H 0.100208 0.674678 0.023476
Eu8 Eu 0.92445(5) 0.89153(4) 0.03119(2)
O39 O 0.3269(8) 0.8130(6) 0.2180(4)
O40 O 0.4860(6) 0.6731(8) 0.2180(4)
O41 O 0.1870(6) 0.5140(6) 0.2180(4)
O42 O 0.4315(8) 0.8358(6) 0.2168(6)
O43 O 0.4042(6) 0.5685(8) 0.2168(6)
O44 O 0.1642(6) 0.5958(6) 0.2168(6)
O45 O 0.4484(11) 0.8962(7) 0.0335(5)
O46 O 0.4477(8) 0.5516(11) 0.0335(5)
O47 O 0.1038(7) 0.5523(8) 0.0335(5)
O48 O 0.3929(9) 0.8388(6) 0.0900(4)
O49 O 0.4458(7) 0.6071(9) 0.0900(4)
O50 O 0.1612(6) 0.5542(7) 0.0900(4)
O7 O 0.1144(8) 0.2295(7) 0.8668(5)
O8 O 0.1125(7) 0.1721(6) 0.9233(4)
O13 O 0.333333 0.666667 0.9918(6)
H6 H 0.333333 0.666667 0.964163
O14 O 0.1811(13) 0.5762(8) 0.9499(6)
H7 H 0.142338 0.571783 0.949745
H8 H 0.206368 0.607523 0.932775
C14 C 0.1279(9) 0.2270(9) 0.9071(8)
C15 C 0.2199(8) 0.4113(8) 0.9787(7)
C16 C 0.1660(11) 0.3924(9) 0.9541(8)
H15 H 0.148855 0.420890 0.950601
C17 C 0.1339(12) 0.3279(12) 0.9327(9)
H16 H 0.093677 0.313419 0.918220
C18 C 0.1614(8) 0.2890(7) 0.9337(6)
C19 C 0.2185(8) 0.3061(8) 0.9586(5)
C20 C 0.2442(10) 0.2654(10) 0.9651(8)
H17 H 0.224198 0.223825 0.951616
C21 C 0.2979(14) 0.2837(14) 0.9904(9)
H18 H 0.315462 0.255434 0.993061
C24 C 0.2506(8) 0.3704(8) 0.9819(6)
O21 O 0.7705(7) 0.8849(11) 0.8668(5)
O22 O 0.8279(6) 0.9404(9) 0.9233(4)
O26 O 0.4238(8) 0.6049(15) 0.9499(6)
H25 H 0.428217 0.570555 0.949745
H26 H 0.392477 0.598845 0.932775
C38 C 0.7730(9) 0.9009(13) 0.9071(8)
C39 C 0.5887(8) 0.8086(11) 0.9787(7)
C40 C 0.6076(9) 0.7736(14) 0.9541(8)
H33 H 0.579110 0.727965 0.950601
C41 C 0.6721(12) 0.8060(17) 0.9327(9)
H34 H 0.686581 0.780258 0.918220
C42 C 0.7110(7) 0.8724(11) 0.9337(6)
C43 C 0.6939(8) 0.9124(11) 0.9586(5)
C44 C 0.7346(10) 0.9788(14) 0.9651(8)
C48 C 0.6296(8) 0.8802(11) 0.9819(6)
O33 O 0.1151(11) 0.8856(8) 0.8668(5)
O34 O 0.0596(9) 0.8875(7) 0.9233(4)
O38 O 0.3951(15) 0.8189(13) 0.9499(6)
H43 H 0.429445 0.857662 0.949745
H44 H 0.401155 0.793632 0.932775
C62 C 0.0991(13) 0.8721(9) 0.9071(8)
C63 C 0.1914(11) 0.7801(8) 0.9787(7)
C64 C 0.2264(14) 0.8340(11) 0.9541(8)
H51 H 0.272035 0.851145 0.950601
C65 C 0.1940(17) 0.8661(12) 0.9327(9)
H52 H 0.219742 0.906323 0.918220
C66 C 0.1276(11) 0.8386(8) 0.9337(6)
C67 C 0.0876(11) 0.7815(8) 0.9586(5)
C68 C 0.0212(14) 0.7558(10) 0.9651(8)
C72 C 0.1198(11) 0.7494(8) 0.9819(6)
Eu13 Eu 0.04485(4) 0.93570(3) 0.85750(2)
Eu14 Eu 0.89086(3) 0.95515(4) 0.85750(2)
Eu15 Eu 0.06430(3) 0.10914(3) 0.85750(2)
O29 O 0.9936(8) 0.8473(6) 0.0513(4)
C56 C 0.9685(13) 0.7462(10) 0.1163(8)
H47 H 0.948218 0.768483 0.104260
C57 C 0.9320(16) 0.6924(12) 0.1412(8)
H48 H 0.886516 0.675808 0.145424
C58 C 0.9662(16) 0.6611(11) 0.1611(8)
H49 H 0.941459 0.624238 0.178913
H55 H 0.990209 0.636728 0.030034
O17_2 O 0.1527(10) 0.0064(8) 0.5513(4)
C32_2 C 0.2538(16) 0.0315(13) 0.6163(8)
H29_2 H 0.231517 0.051782 0.604260
C33_2 C 0.3076(19) 0.0680(16) 0.6412(8)
H30_2 H 0.324192 0.113484 0.645424
C34_2 C 0.3389(19) 0.0338(16) 0.6611(8)
H31_2 H 0.375762 0.058541 0.678913
H35 H 0.224198 0.000373 0.451616
C45 C 0.2979(24) 0.0142(20) 0.4904(9)
H36 H 0.315462 0.060028 0.493061
H37_2 H 0.363272 0.009791 0.530034
Eu10_2 Eu 0.10847(6) 0.07555(5) 0.53119(2)
Eu12_2 Eu 0.92445(5) 0.03291(3) 0.53119(2)
Eu1_2 Eu 0.25778(5) 0.55820(4) 0.69786(2)
Eu2_2 Eu 0.37818(4) 0.60237(3) 0.52417(2)
Zn1_2 Zn 0.333334 0.666667 0.6114(3)
O1_2 O 0.1681(9) 0.4409(6) 0.6886(4)
O2_2 O 0.2217(9) 0.4902(6) 0.6298(5)
O4_2 O 0.0982(8) 0.1691(6) 0.5501(6)
O5_2 O 0.2875(10) 0.4959(7) 0.5113(5)
O6_2 O 0.2036(9) 0.5151(6) 0.5007(5)
O7_2 O 0.1151(11) 0.2295(7) 0.3668(5)
O8_2 O 0.0596(9) 0.1721(6) 0.4233(4)
O9_2 O 0.3570(7) 0.6183(5) 0.6501(3)
H1_2 H 0.368508 0.592897 0.637613
O10_2 O 0.2886(7) 0.5942(5) 0.5727(4)
H2_2 H 0.266099 0.556522 0.585131
O11_2 O 0.333334 0.666667 0.7280(6)
H3_2 H 0.333334 0.666667 0.755645
O12_2 O 0.2407(11) 0.5339(8) 0.7737(5)
H4_2 H 0.200968 0.502766 0.778218
H5_2 H 0.247490 0.568818 0.787248
O13_2 O 0.333334 0.666667 0.4918(6)
H6_2 H 0.333334 0.666667 0.464163
O14_2 O 0.3951(15) 0.5762(8) 0.4499(6)
H7_2 H 0.429445 0.571783 0.449745
H8_2 H 0.401155 0.607523 0.432775
C1_2 C 0.1798(11) 0.4409(7) 0.6487(5)
C2_2 C 0.0557(11) 0.1835(7) 0.5598(5)
C3_2 C 0.1389(11) 0.3745(8) 0.6228(6)
C4_2 C 0.1728(11) 0.3593(7) 0.5958(6)
H9_2 H 0.217140 0.390693 0.590072
C5_2 C 0.1437(11) 0.2960(8) 0.5751(5)
H10_2 H 0.170183 0.285856 0.557605
C6_2 C 0.0796(11) 0.2510(7) 0.5801(5)
C7_2 C 0.0368(11) 0.2665(8) 0.6077(6)
C11_2 C 0.0285(13) 0.3474(9) 0.6558(7)
H14_2 H 0.047423 0.388996 0.669132
C12_2 C 0.0695(11) 0.3302(8) 0.6289(6)
C13_2 C 0.2300(13) 0.4784(9) 0.5014(7)
C14_2 C 0.0991(13) 0.2270(9) 0.4071(8)
C15_2 C 0.1914(11) 0.4113(8) 0.4787(7)
C16_2 C 0.2264(14) 0.3924(9) 0.4541(8)
H15_2 H 0.272035 0.420890 0.450601
C17_2 C 0.1940(17) 0.3279(12) 0.4327(9)
H16_2 H 0.219742 0.313419 0.418220
C18_2 C 0.1276(11) 0.2890(7) 0.4337(6)
C19_2 C 0.0876(11) 0.3061(8) 0.4586(5)
C20_2 C 0.0212(14) 0.2654(10) 0.4651(8)
C22_2 C 0.0158(20) 0.3427(14) 0.5121(9)
C23_2 C 0.0809(13) 0.3854(9) 0.5083(8)
H20_2 H 0.100208 0.425530 0.523476
C24_2 C 0.1198(11) 0.3704(8) 0.4819(6)
Eu3_2 Eu 0.30042(6) 0.74222(5) 0.69786(2)
Eu4_2 Eu 0.22419(5) 0.62182(4) 0.52417(2)
O15_2 O 0.2728(11) 0.8319(9) 0.6886(4)
O16_2 O 0.2685(11) 0.7783(9) 0.6298(5)
O18_2 O 0.0709(10) 0.9018(8) 0.5501(6)
O19_2 O 0.2084(12) 0.7125(10) 0.5113(5)
O20_2 O 0.3115(11) 0.7964(9) 0.5007(5)
O21_2 O 0.1144(13) 0.8849(11) 0.3668(5)
O22_2 O 0.1125(11) 0.9404(9) 0.4233(4)
O23_2 O 0.2613(9) 0.6430(7) 0.6501(3)
H21_2 H 0.224389 0.631492 0.637613
O24_2 O 0.3056(9) 0.7114(7) 0.5727(4)
H22_2 H 0.290423 0.733901 0.585131
O25_2 O 0.2932(14) 0.7593(11) 0.7737(5)
H23_2 H 0.301798 0.799032 0.778218
H24_2 H 0.321328 0.752510 0.787248
O26_2 O 0.1811(17) 0.6049(15) 0.4499(6)
H25_2 H 0.142338 0.570555 0.449745
H26_2 H 0.206368 0.598845 0.432775
C25_2 C 0.2611(13) 0.8202(11) 0.6487(5)
C26_2 C 0.1278(13) 0.9443(11) 0.5598(5)
C27_2 C 0.2356(14) 0.8611(11) 0.6228(6)
C28_2 C 0.1865(13) 0.8272(11) 0.5958(6)
H27_2 H 0.173553 0.782860 0.590072
C29_2 C 0.1523(14) 0.8563(11) 0.5751(5)
H28_2 H 0.115673 0.829817 0.557605
C30_2 C 0.1714(13) 0.9204(11) 0.5801(5)
C31_2 C 0.2297(14) 0.9632(11) 0.6077(6)
C35_2 C 0.3189(16) 0.9715(13) 0.6558(7)
H32_2 H 0.341573 0.952577 0.669132
C36_2 C 0.2607(14) 0.9305(11) 0.6289(6)
C37_2 C 0.2484(16) 0.7700(13) 0.5014(7)
C38_2 C 0.1279(16) 0.9009(13) 0.4071(8)
C39_2 C 0.2199(14) 0.8086(11) 0.4787(7)
C40_2 C 0.1660(17) 0.7736(14) 0.4541(8)
H33_2 H 0.148855 0.727965 0.450601
C41_2 C 0.1339(21) 0.8060(17) 0.4327(9)
H34_2 H 0.093677 0.780258 0.418220
C42_2 C 0.1614(13) 0.8724(11) 0.4337(6)
C43_2 C 0.2185(14) 0.9124(11) 0.4586(5)
C44_2 C 0.2442(17) 0.9788(14) 0.4651(8)
C46_2 C 0.3269(24) 0.9842(20) 0.5121(9)
C47_2 C 0.3045(16) 0.9191(13) 0.5083(8)
H38_2 H 0.325322 0.899792 0.523476
C48_2 C 0.2506(14) 0.8802(11) 0.4819(6)
Eu5_2 Eu 0.44180(6) 0.69958(3) 0.69786(2)
Eu6_2 Eu 0.39763(5) 0.77581(3) 0.52417(2)
O27_2 O 0.5591(11) 0.7272(7) 0.6886(4)
O28_2 O 0.5098(11) 0.7315(7) 0.6298(5)
O29_2 O 0.8537(10) 0.8473(6) 0.5513(4)
O30_2 O 0.8309(10) 0.9291(6) 0.5501(6)
O31_2 O 0.5041(12) 0.7916(7) 0.5113(5)
O32_2 O 0.4849(11) 0.6885(7) 0.5007(5)
O33_2 O 0.7705(14) 0.8856(8) 0.3668(5)
O34_2 O 0.8279(11) 0.8875(7) 0.4233(4)
O35_2 O 0.3817(9) 0.7387(5) 0.6501(3)
H39_2 H 0.407103 0.775611 0.637613
O36_2 O 0.4058(9) 0.6944(5) 0.5727(4)
H40_2 H 0.443478 0.709577 0.585131
O37_2 O 0.4661(14) 0.7068(8) 0.7737(5)
H41_2 H 0.497234 0.698202 0.778218
H42_2 H 0.431182 0.678672 0.787248
O38_2 O 0.4238(20) 0.8189(13) 0.4499(6)
H43_2 H 0.428217 0.857662 0.449745
H44_2 H 0.392477 0.793632 0.432775
C49_2 C 0.5591(14) 0.7389(8) 0.6487(5)
C50_2 C 0.8165(14) 0.8722(8) 0.5598(5)
C51_2 C 0.6255(14) 0.7644(8) 0.6228(6)
C52_2 C 0.6407(14) 0.8135(8) 0.5958(6)
H45_2 H 0.609307 0.826447 0.590072
C53_2 C 0.7040(14) 0.8477(8) 0.5751(5)
H46_2 H 0.714144 0.884327 0.557605
C54_2 C 0.7490(14) 0.8286(8) 0.5801(5)
C55_2 C 0.7335(14) 0.7703(8) 0.6077(6)
C56_2 C 0.7777(16) 0.7462(10) 0.6163(8)
H47_2 H 0.820265 0.768483 0.604260
C57_2 C 0.7604(20) 0.6924(12) 0.6412(8)
H48_2 H 0.789292 0.675808 0.645424
C58_2 C 0.6949(19) 0.6611(11) 0.6611(8)
H49_2 H 0.682779 0.624238 0.678913
C59_2 C 0.6526(16) 0.6811(10) 0.6558(7)
H50_2 H 0.611004 0.658427 0.669132
C60_2 C 0.6698(14) 0.7393(8) 0.6289(6)
C61_2 C 0.5216(16) 0.7516(10) 0.5014(7)
C62_2 C 0.7730(16) 0.8721(9) 0.4071(8)
C63_2 C 0.5887(14) 0.7801(8) 0.4787(7)
C64_2 C 0.6076(18) 0.8340(11) 0.4541(8)
H51_2 H 0.579110 0.851145 0.450601
C65_2 C 0.6721(21) 0.8661(12) 0.4327(9)
H52_2 H 0.686581 0.906323 0.418220
C66_2 C 0.7110(14) 0.8386(8) 0.4337(6)
C67_2 C 0.6939(14) 0.7815(8) 0.4586(5)
C68_2 C 0.7346(17) 0.7558(10) 0.4651(8)
H53 H 0.776175 0.775802 0.451616
C69 C 0.7163(24) 0.7021(14) 0.4904(9)
H54 H 0.744566 0.684538 0.493061
C70_2 C 0.6573(24) 0.6731(14) 0.5121(9)
H55_2 H 0.646519 0.636728 0.530034
C71_2 C 0.6146(16) 0.6955(9) 0.5083(8)
H56_2 H 0.574470 0.674678 0.523476
C72_2 C 0.6296(14) 0.7494(8) 0.4819(6)
Eu7 Eu 0.96709(6) 0.89153(4) 0.53119(2)
Eu13_2 Eu 0.89086(5) 0.93570(3) 0.35750(2)
Eu14_2 Eu 0.06430(5) 0.95515(4) 0.35750(2)
Eu15_2 Eu 0.04485(4) 0.10914(3) 0.35750(2)
O39_2 O 0.4860(10) 0.8130(6) 0.7180(4)
O40_2 O 0.1870(10) 0.6731(8) 0.7180(4)
O41_2 O 0.3269(8) 0.5140(6) 0.7180(4)
O42_2 O 0.4042(10) 0.8358(6) 0.7168(6)
O43_2 O 0.1642(10) 0.5685(8) 0.7168(6)
O44_2 O 0.4315(8) 0.5958(6) 0.7168(6)
O45_2 O 0.4477(13) 0.8962(7) 0.5335(5)
O46_2 O 0.1038(14) 0.5516(11) 0.5335(5)
O47_2 O 0.4484(11) 0.5523(8) 0.5335(5)
O48_2 O 0.4458(11) 0.8388(6) 0.5900(4)
O49_2 O 0.1612(11) 0.6071(9) 0.5900(4)
O50_2 O 0.3929(9) 0.5542(7) 0.5900(4)
O3_2 O 0.9936(8) 0.1463(6) 0.5513(4)
C8_2 C 0.9685(13) 0.2223(9) 0.6163(8)
H11_2 H 0.948218 0.179735 0.604260
C9_2 C 0.9320(16) 0.2396(10) 0.6412(8)
H12_2 H 0.886516 0.210708 0.645424
C10_2 C 0.9662(16) 0.3051(11) 0.6611(8)
H13_2 H 0.941459 0.317221 0.678913
H17_2 H 0.999627 0.223825 0.451616
C21_2 C 0.9858(20) 0.2837(14) 0.4904(9)
H18_2 H 0.939972 0.255434 0.493061
H19_2 H 0.990209 0.353481 0.530034
Zn1_3 Zn -0.000000 0.000000 0.4447(3)
O11_3 O -0.000000 0.000000 0.5613(6)
H3_3 H -0.000000 0.000000 0.588978
O13_3 O -0.000000 0.000000 0.3251(6)
H6_3 H -0.000000 0.000000 0.297496
O15_3 O 0.2258(6) 0.1652(9) 0.5219(4)
O16_3 O 0.1765(6) 0.1116(9) 0.4631(5)
O17_3 O 0.5204(6) 0.3397(8) 0.3846(4)
O18_3 O 0.4976(6) 0.2351(8) 0.3834(6)
O19_3 O 0.1708(7) 0.0458(10) 0.3446(5)
O20_3 O 0.1516(6) 0.1297(9) 0.3340(5)
O21_3 O 0.4372(7) 0.2182(11) 0.2001(5)
O22_3 O 0.4946(6) 0.2737(9) 0.2566(4)
O24_3 O 0.0725(5) 0.0447(7) 0.4060(4)
H22_3 H 0.110145 0.067234 0.418464
O25_3 O 0.1328(8) 0.0926(11) 0.6070(5)
H23_3 H 0.163901 0.132365 0.611551
H24_3 H 0.097849 0.085843 0.620581
C25_3 C 0.2258(7) 0.1535(11) 0.4820(5)
C26_3 C 0.4832(7) 0.2776(11) 0.3931(5)
C27_3 C 0.2922(8) 0.1944(11) 0.4561(6)
C28_3 C 0.3074(7) 0.1605(11) 0.4291(6)
H27_3 H 0.275974 0.116193 0.423405
C29_3 C 0.3707(8) 0.1896(11) 0.4084(5)
H28_3 H 0.380811 0.163150 0.390938
C30_3 C 0.4157(7) 0.2537(11) 0.4134(5)
C31_3 C 0.4002(8) 0.2965(11) 0.4410(6)
C32_3 C 0.4444(9) 0.3648(13) 0.4496(8)
H29_3 H 0.486932 0.385115 0.437593
C33_3 C 0.4271(10) 0.4013(16) 0.4745(8)
H30_3 H 0.455959 0.446817 0.478757
C34_3 C 0.3616(11) 0.3671(16) 0.4944(8)
H31_3 H 0.349446 0.391874 0.512246
C35_3 C 0.3193(9) 0.3048(13) 0.4891(7)
H32_3 H 0.277671 0.285910 0.502465
C36_3 C 0.3365(8) 0.2638(11) 0.4622(6)
C37_3 C 0.1883(9) 0.1033(13) 0.3347(7)
C38_3 C 0.4397(9) 0.2342(13) 0.2404(8)
C39_3 C 0.2554(8) 0.1419(11) 0.3120(7)
C40_3 C 0.2743(9) 0.1069(14) 0.2874(8)
H33_3 H 0.245777 0.061298 0.283934
C41_3 C 0.3388(12) 0.1393(17) 0.2660(9)
H34_3 H 0.353248 0.113591 0.251553
C42_3 C 0.3777(7) 0.2057(11) 0.2670(6)
C43_3 C 0.3606(8) 0.2457(11) 0.2919(5)
C44_3 C 0.4013(10) 0.3121(14) 0.2984(8)
H35_2 H 0.442842 0.333706 0.284949
C45_2 C 0.3830(14) 0.3475(20) 0.3237(9)
H36_2 H 0.411233 0.393361 0.326394
C46_3 C 0.3240(14) 0.3175(20) 0.3454(9)
H37_3 H 0.313186 0.343124 0.363367
C47_3 C 0.2813(9) 0.2524(13) 0.3416(8)
H38_3 H 0.241137 0.233125 0.356809
C48_3 C 0.2963(8) 0.2135(11) 0.3152(6)
O35_3 O 0.0237(7) 0.0720(5) 0.4834(3)
H39_3 H 0.035175 0.108944 0.470946
O38_3 O 0.0618(15) 0.1522(13) 0.2832(6)
H43_3 H 0.096112 0.190995 0.283078
H44_3 H 0.067822 0.126965 0.266108
Eu8_2 Eu 0.59111(5) 0.22487(4) 0.36453(2)
Eu10_3 Eu 0.63375(3) 0.40889(5) 0.36453(2)
Eu14_3 Eu 0.55752(3) 0.28849(4) 0.19084(2)
Zn1_4 Zn -0.000000 1.000000 0.4447(3)
O11_4 O -0.000000 1.000000 0.5613(6)
H3_4 H -0.000000 1.000000 0.588978
O13_4 O -0.000000 1.000000 0.3251(6)
H6_4 H -0.000000 1.000000 0.297496
C10_3 C 0.0056(11) 0.6384(11) 0.4944(8)
H13_3 H 0.042429 0.650554 0.512246
H14_3 H 0.008240 0.722329 0.502465
H19_3 H 0.029939 0.686814 0.363367
O23_3 O 0.0484(5) 0.9763(7) 0.4834(3)
H21_3 H 0.073770 0.964825 0.470946
O26_3 O 0.0905(8) 0.9382(15) 0.2832(6)
H25_3 H 0.094884 0.903888 0.283078
H26_3 H 0.059144 0.932178 0.266108
Zn1_5 Zn 1.000000 0.000000 0.4447(3)
O11_5 O 1.000000 0.000000 0.5613(6)
H3_5 H 1.000000 0.000000 0.588978
O13_5 O 1.000000 0.000000 0.3251(6)
H6_5 H 1.000000 0.000000 0.297496
O27_3 O 0.8348(9) 0.0605(7) 0.5219(4)
O28_3 O 0.8884(9) 0.0648(7) 0.4631(5)
O29_3 O 0.6603(8) 0.1806(6) 0.3846(4)
O30_3 O 0.7649(8) 0.2624(6) 0.3834(6)
O31_3 O 0.9542(10) 0.1249(7) 0.3446(5)
O32_3 O 0.8703(9) 0.0218(7) 0.3340(5)
O33_3 O 0.7818(11) 0.2189(8) 0.2001(5)
O34_3 O 0.7263(9) 0.2208(7) 0.2566(4)
O36_3 O 0.9553(7) 0.0277(5) 0.4060(4)
H40_3 H 0.932766 0.042910 0.418464
O37_3 O 0.9074(11) 0.0401(8) 0.6070(5)
H41_3 H 0.867635 0.031535 0.611551
H42_3 H 0.914157 0.012005 0.620581
C49_3 C 0.8465(11) 0.0722(8) 0.4820(5)
C50_3 C 0.7224(11) 0.2055(8) 0.3931(5)
C51_3 C 0.8056(11) 0.0977(8) 0.4561(6)
C52_3 C 0.8395(11) 0.1468(8) 0.4291(6)
H45_3 H 0.883807 0.159780 0.423405
C53_3 C 0.8104(11) 0.1810(8) 0.4084(5)
H46_3 H 0.836850 0.217660 0.390938
C54_3 C 0.7463(11) 0.1619(8) 0.4134(5)
C55_3 C 0.7035(11) 0.1036(8) 0.4410(6)
C56_3 C 0.6352(13) 0.0795(10) 0.4496(8)
H47_3 H 0.614885 0.101816 0.437593
C57_3 C 0.5987(16) 0.0257(12) 0.4745(8)
H48_3 H 0.553183 0.009141 0.478757
C59_3 C 0.6952(13) 0.0144(10) 0.4891(7)
C60_3 C 0.7362(11) 0.0726(8) 0.4622(6)
C61_3 C 0.8967(13) 0.0849(10) 0.3347(7)
C62_3 C 0.7658(13) 0.2054(9) 0.2404(8)
C63_3 C 0.8581(11) 0.1134(8) 0.3120(7)
C64_3 C 0.8931(14) 0.1673(11) 0.2874(8)
H51_3 H 0.938702 0.184478 0.283934
C65_3 C 0.8607(17) 0.1994(12) 0.2660(9)
H52_3 H 0.886409 0.239656 0.251553
C66_3 C 0.7943(11) 0.1719(8) 0.2670(6)
C67_3 C 0.7543(11) 0.1148(8) 0.2919(5)
C68_3 C 0.6879(14) 0.0891(10) 0.2984(8)
H53_2 H 0.666294 0.109135 0.284949
C69_2 C 0.6525(20) 0.0354(14) 0.3237(9)
H54_2 H 0.606639 0.017871 0.326394
C70_3 C 0.6825(20) 0.0064(14) 0.3454(9)
C71_3 C 0.7476(13) 0.0288(9) 0.3416(8)
H56_3 H 0.766875 0.008011 0.356809
C72_3 C 0.7865(11) 0.0827(8) 0.3152(6)
Eu12_3 Eu 0.77513(4) 0.36625(3) 0.36453(2)
Eu13_3 Eu 0.71151(4) 0.26904(3) 0.19084(2)
Zn1_6 Zn 1.000000 1.000000 0.4447(3)
O1_3 O 0.9395(7) 0.7742(6) 0.5219(4)
O2_3 O 0.9352(7) 0.8235(6) 0.4631(5)
O3_3 O 0.8194(6) 0.4796(6) 0.3846(4)
O4_3 O 0.7376(6) 0.5024(6) 0.3834(6)
O5_3 O 0.8751(7) 0.8292(7) 0.3446(5)
O6_3 O 0.9782(7) 0.8484(6) 0.3340(5)
O7_3 O 0.7811(8) 0.5628(7) 0.2001(5)
O8_3 O 0.7792(7) 0.5054(6) 0.2566(4)
O9_3 O 0.9280(5) 0.9516(5) 0.4834(3)
H1_3 H 0.891056 0.926230 0.470946
O10_3 O 0.9723(5) 0.9275(5) 0.4060(4)
H2_3 H 0.957090 0.889855 0.418464
O11_6 O 1.000000 1.000000 0.5613(6)
H3_6 H 1.000000 1.000000 0.588978
O12_3 O 0.9599(8) 0.8672(8) 0.6070(5)
H4_3 H 0.968465 0.836099 0.611551
H5_3 H 0.987995 0.902151 0.620581
O13_6 O 1.000000 1.000000 0.3251(6)
H6_6 H 1.000000 1.000000 0.297496
O14_3 O 0.8478(13) 0.9095(8) 0.2832(6)
H7_3 H 0.809005 0.905116 0.283078
H8_3 H 0.873035 0.940856 0.266108
C1_3 C 0.9278(8) 0.7742(7) 0.4820(5)
C2_3 C 0.7945(8) 0.5168(7) 0.3931(5)
C3_3 C 0.9023(8) 0.7078(8) 0.4561(6)
C4_3 C 0.8532(8) 0.6926(7) 0.4291(6)
H9_3 H 0.840220 0.724026 0.423405
C5_3 C 0.8190(8) 0.6293(8) 0.4084(5)
H10_3 H 0.782340 0.619189 0.390938
C6_3 C 0.8381(8) 0.5843(7) 0.4134(5)
C7_3 C 0.8964(8) 0.5998(8) 0.4410(6)
C8_3 C 0.9205(10) 0.5556(9) 0.4496(8)
H11_3 H 0.898184 0.513068 0.437593
C9_3 C 0.9743(12) 0.5729(10) 0.4745(8)
H12_3 H 0.990859 0.544041 0.478757
C11_3 C 0.9856(10) 0.6807(9) 0.4891(7)
C12_3 C 0.9274(8) 0.6635(8) 0.4622(6)
C13_3 C 0.9151(10) 0.8117(9) 0.3347(7)
C14_3 C 0.7946(9) 0.5603(9) 0.2404(8)
C15_3 C 0.8866(8) 0.7446(8) 0.3120(7)
C16_3 C 0.8327(11) 0.7257(9) 0.2874(8)
H15_3 H 0.815522 0.754223 0.283934
C17_3 C 0.8006(12) 0.6612(12) 0.2660(9)
H16_3 H 0.760344 0.646752 0.251553
C18_3 C 0.8281(8) 0.6223(7) 0.2670(6)
C19_3 C 0.8852(8) 0.6394(8) 0.2919(5)
C20_3 C 0.9109(10) 0.5987(10) 0.2984(8)
H17_3 H 0.890865 0.557158 0.284949
C21_3 C 0.9646(14) 0.6170(14) 0.3237(9)
H18_3 H 0.982129 0.588767 0.326394
C22_3 C 0.9936(14) 0.6760(14) 0.3454(9)
C23_3 C 0.9712(9) 0.7187(9) 0.3416(8)
H20_3 H 0.991989 0.758863 0.356809
C24_3 C 0.9173(8) 0.7037(8) 0.3152(6)
C58_3 C 0.6329(16) 0.9944(11) 0.4944(8)
H49_3 H 0.608126 0.957571 0.512246
H50_3 H 0.714090 0.991760 0.502465
H55_3 H 0.656876 0.970061 0.363367
Eu15_3 Eu 0.73096(3) 0.44248(3) 0.19084(2)
O11_7 O 0.000001 0.000000 0.0613(6)
H3_7 H 0.000001 0.000000 0.088978
H31_4 H 0.042429 0.391874 0.012246
H32_4 H 0.008240 0.285910 0.002465
O27_4 O 0.2258(11) 0.0605(7) 0.0219(4)
O37_4 O 0.1328(14) 0.0401(8) 0.1070(5)
H41_4 H 0.163901 0.031535 0.111551
H42_4 H 0.097849 0.012005 0.120581
Zn1_7 Zn 0.000001 0.000000 0.9447(3)
O13_7 O 0.000001 0.000000 0.8251(6)
H6_7 H 0.000001 0.000000 0.797496
C34_4 C 0.0056(19) 0.3671(16) 0.9944(8)
H37_4 H 0.029939 0.343124 0.863367
O28_4 O 0.1765(11) 0.0648(7) 0.9631(5)
O29_4 O 0.5204(10) 0.1806(6) 0.8846(4)
O30_4 O 0.4976(10) 0.2624(6) 0.8834(6)
O31_4 O 0.1708(12) 0.1249(7) 0.8446(5)
O32_4 O 0.1516(11) 0.0218(7) 0.8340(5)
O33_4 O 0.4372(14) 0.2189(8) 0.7001(5)
O34_4 O 0.4946(11) 0.2208(7) 0.7566(4)
O35_4 O 0.0484(9) 0.0720(5) 0.9834(3)
H39_4 H 0.073770 0.108944 0.970946
O36_4 O 0.0725(9) 0.0277(5) 0.9060(4)
H40_4 H 0.110145 0.042910 0.918464
O38_4 O 0.0905(20) 0.1522(13) 0.7832(6)
H43_4 H 0.094884 0.190995 0.783078
H44_4 H 0.059144 0.126965 0.766108
C49_4 C 0.2258(14) 0.0722(8) 0.9820(5)
C50_4 C 0.4832(14) 0.2055(8) 0.8931(5)
C51_4 C 0.2922(14) 0.0977(8) 0.9561(6)
C52_4 C 0.3074(14) 0.1468(8) 0.9291(6)
H45_4 H 0.275974 0.159780 0.923405
C53_4 C 0.3707(14) 0.1810(8) 0.9084(5)
H46_4 H 0.380811 0.217660 0.890938
C54_4 C 0.4157(14) 0.1619(8) 0.9134(5)
C55_4 C 0.4002(14) 0.1036(8) 0.9410(6)
C56_4 C 0.4444(16) 0.0795(10) 0.9496(8)
H47_4 H 0.486932 0.101816 0.937593
C57_4 C 0.4271(20) 0.0257(12) 0.9745(8)
H48_4 H 0.455959 0.009141 0.978757
C59_4 C 0.3193(16) 0.0144(10) 0.9891(7)
C60_4 C 0.3365(14) 0.0726(8) 0.9622(6)
C61_4 C 0.1883(16) 0.0849(10) 0.8347(7)
C62_4 C 0.4397(16) 0.2054(9) 0.7404(8)
C63_4 C 0.2554(14) 0.1134(8) 0.8120(7)
C64_4 C 0.2743(18) 0.1673(11) 0.7874(8)
H51_4 H 0.245777 0.184478 0.783934
C65_4 C 0.3388(21) 0.1994(12) 0.7660(9)
H52_4 H 0.353248 0.239656 0.751553
C66_4 C 0.3777(14) 0.1719(8) 0.7670(6)
C67_4 C 0.3606(14) 0.1148(8) 0.7919(5)
C68_4 C 0.4013(17) 0.0891(10) 0.7984(8)
H53_3 H 0.442842 0.109135 0.784949
C69_3 C 0.3830(24) 0.0354(14) 0.8237(9)
H54_3 H 0.411233 0.017871 0.826394
C70_4 C 0.3240(24) 0.0064(14) 0.8454(9)
C71_4 C 0.2813(16) 0.0288(9) 0.8416(8)
H56_4 H 0.241137 0.008011 0.856809
C72_4 C 0.2963(14) 0.0827(8) 0.8152(6)
Eu7_2 Eu 0.63375(6) 0.22487(4) 0.86453(2)
Eu12_4 Eu 0.59111(5) 0.36625(3) 0.86453(2)
Eu13_4 Eu 0.55752(5) 0.26904(3) 0.69084(2)
O11_8 O 0.000001 1.000000 0.0613(6)
H3_8 H 0.000001 1.000000 0.088978
H49_4 H 0.349446 0.957571 0.012246
H50_4 H 0.277671 0.991760 0.002465
Zn1_8 Zn 0.000001 1.000000 0.9447(3)
O9_4 O 0.0237(7) 0.9516(5) 0.9834(3)
H1_4 H 0.035175 0.926230 0.970946
O13_8 O 0.000001 1.000000 0.8251(6)
H6_8 H 0.000001 1.000000 0.797496
O14_4 O 0.0618(15) 0.9095(8) 0.7832(6)
H7_4 H 0.096112 0.905116 0.783078
H8_4 H 0.067822 0.940856 0.766108
C58_4 C 0.3616(19) 0.9944(11) 0.9944(8)
H55_4 H 0.313186 0.970061 0.863367
O11_9 O 1.000001 0.000000 0.0613(6)
H3_9 H 1.000001 0.000000 0.088978
O15_4 O 0.9395(11) 0.1652(9) 0.0219(4)
O25_4 O 0.9599(14) 0.0926(11) 0.1070(5)
H23_4 H 0.968465 0.132365 0.111551
H24_4 H 0.987995 0.085843 0.120581
Zn1_9 Zn 1.000001 0.000000 0.9447(3)
O13_9 O 1.000001 0.000000 0.8251(6)
H6_9 H 1.000001 0.000000 0.797496
O16_4 O 0.9352(11) 0.1116(9) 0.9631(5)
O17_4 O 0.8194(10) 0.3397(8) 0.8846(4)
O18_4 O 0.7376(10) 0.2351(8) 0.8834(6)
O19_4 O 0.8751(12) 0.0458(10) 0.8446(5)
O20_4 O 0.9782(11) 0.1297(9) 0.8340(5)
O21_4 O 0.7811(13) 0.2182(11) 0.7001(5)
O22_4 O 0.7792(11) 0.2737(9) 0.7566(4)
O24_4 O 0.9723(9) 0.0447(7) 0.9060(4)
H22_4 H 0.957090 0.067234 0.918464
C25_4 C 0.9278(13) 0.1535(11) 0.9820(5)
C26_4 C 0.7945(13) 0.2776(11) 0.8931(5)
C27_4 C 0.9023(14) 0.1944(11) 0.9561(6)
C28_4 C 0.8532(13) 0.1605(11) 0.9291(6)
H27_4 H 0.840220 0.116193 0.923405
C29_4 C 0.8190(14) 0.1896(11) 0.9084(5)
H28_4 H 0.782340 0.163150 0.890938
C30_4 C 0.8381(13) 0.2537(11) 0.9134(5)
C31_4 C 0.8964(14) 0.2965(11) 0.9410(6)
C32_4 C 0.9205(16) 0.3648(13) 0.9496(8)
H29_4 H 0.898184 0.385115 0.937593
C33_4 C 0.9743(19) 0.4013(16) 0.9745(8)
H30_4 H 0.990859 0.446817 0.978757
C35_4 C 0.9856(16) 0.3048(13) 0.9891(7)
C36_4 C 0.9274(14) 0.2638(11) 0.9622(6)
C37_4 C 0.9151(16) 0.1033(13) 0.8347(7)
C38_4 C 0.7946(16) 0.2342(13) 0.7404(8)
C39_4 C 0.8866(14) 0.1419(11) 0.8120(7)
C40_4 C 0.8327(17) 0.1069(14) 0.7874(8)
H33_4 H 0.815522 0.061298 0.783934
C41_4 C 0.8006(21) 0.1393(17) 0.7660(9)
H34_4 H 0.760344 0.113591 0.751553
C42_4 C 0.8281(13) 0.2057(11) 0.7670(6)
C43_4 C 0.8852(14) 0.2457(11) 0.7919(5)
C44_4 C 0.9109(17) 0.3121(14) 0.7984(8)
H35_3 H 0.890865 0.333706 0.784949
C45_3 C 0.9646(24) 0.3475(20) 0.8237(9)
H36_3 H 0.982129 0.393361 0.826394
C46_4 C 0.9936(24) 0.3175(20) 0.8454(9)
C47_4 C 0.9712(16) 0.2524(13) 0.8416(8)
H38_4 H 0.991989 0.233125 0.856809
C48_4 C 0.9173(14) 0.2135(11) 0.8152(6)
Eu10_4 Eu 0.77513(6) 0.40889(5) 0.86453(2)
Eu14_4 Eu 0.73096(5) 0.28849(4) 0.69084(2)
O1_4 O 0.8348(9) 0.7742(6) 0.0219(4)
O11_10 O 1.000001 1.000000 0.0613(6)
H3_10 H 1.000001 1.000000 0.088978
O12_4 O 0.9074(11) 0.8672(8) 0.1070(5)
H4_4 H 0.867635 0.836099 0.111551
H5_4 H 0.914157 0.902151 0.120581
H13_4 H 0.608126 0.650554 0.012246
H14_4 H 0.714090 0.722329 0.002465
Zn1_10 Zn 1.000001 1.000000 0.9447(3)
O2_4 O 0.8884(9) 0.8235(6) 0.9631(5)
O3_4 O 0.6603(8) 0.4796(6) 0.8846(4)
O4_4 O 0.7649(8) 0.5024(6) 0.8834(6)
O5_4 O 0.9542(10) 0.8292(7) 0.8446(5)
O6_4 O 0.8703(9) 0.8484(6) 0.8340(5)
O7_4 O 0.7818(11) 0.5628(7) 0.7001(5)
O8_4 O 0.7263(9) 0.5054(6) 0.7566(4)
O10_4 O 0.9553(7) 0.9275(5) 0.9060(4)
H2_4 H 0.932766 0.889855 0.918464
O13_10 O 1.000001 1.000000 0.8251(6)
H6_10 H 1.000001 1.000000 0.797496
C1_4 C 0.8465(11) 0.7742(7) 0.9820(5)
C2_4 C 0.7224(11) 0.5168(7) 0.8931(5)
C3_4 C 0.8056(11) 0.7078(8) 0.9561(6)
C4_4 C 0.8395(11) 0.6926(7) 0.9291(6)
H9_4 H 0.883807 0.724026 0.923405
C5_4 C 0.8104(11) 0.6293(8) 0.9084(5)
H10_4 H 0.836850 0.619189 0.890938
C6_4 C 0.7463(11) 0.5843(7) 0.9134(5)
C7_4 C 0.7035(11) 0.5998(8) 0.9410(6)
C8_4 C 0.6352(13) 0.5556(9) 0.9496(8)
H11_4 H 0.614885 0.513068 0.937593
C9_4 C 0.5987(16) 0.5729(10) 0.9745(8)
H12_4 H 0.553183 0.544041 0.978757
C10_4 C 0.6329(16) 0.6384(11) 0.9944(8)
C11_4 C 0.6952(13) 0.6807(9) 0.9891(7)
C12_4 C 0.7362(11) 0.6635(8) 0.9622(6)
C13_4 C 0.8967(13) 0.8117(9) 0.8347(7)
C14_4 C 0.7658(13) 0.5603(9) 0.7404(8)
C15_4 C 0.8581(11) 0.7446(8) 0.8120(7)
C16_4 C 0.8931(14) 0.7257(9) 0.7874(8)
H15_4 H 0.938702 0.754223 0.783934
C17_4 C 0.8607(17) 0.6612(12) 0.7660(9)
H16_4 H 0.886409 0.646752 0.751553
C18_4 C 0.7943(11) 0.6223(7) 0.7670(6)
C19_4 C 0.7543(11) 0.6394(8) 0.7919(5)
C20_4 C 0.6879(14) 0.5987(10) 0.7984(8)
H17_4 H 0.666294 0.557158 0.784949
C21_4 C 0.6525(20) 0.6170(14) 0.8237(9)
H18_4 H 0.606639 0.588767 0.826394
C22_4 C 0.6825(20) 0.6760(14) 0.8454(9)
H19_4 H 0.656876 0.686814 0.863367
C23_4 C 0.7476(13) 0.7187(9) 0.8416(8)
H20_4 H 0.766875 0.758863 0.856809
C24_4 C 0.7865(11) 0.7037(8) 0.8152(6)
O23_4 O 0.9280(9) 0.9763(7) 0.9834(3)
H21_4 H 0.891056 0.964825 0.970946
O26_4 O 0.8478(17) 0.9382(15) 0.7832(6)
H25_4 H 0.809005 0.903888 0.783078
H26_4 H 0.873035 0.932178 0.766108
Eu15_4 Eu 0.71151(4) 0.44248(3) 0.69084(2)
C26_5 C 0.1498(7) 0.6110(11) 0.7265(5)
C29_5 C 0.0373(8) 0.5230(11) 0.7418(5)
H28_5 H 0.047477 0.496484 0.724272
C30_5 C 0.0823(7) 0.5871(11) 0.7468(5)
C31_5 C 0.0668(8) 0.6299(11) 0.7744(6)
C32_5 C 0.1110(9) 0.6982(13) 0.7830(8)
H29_5 H 0.153598 0.718449 0.770927
C33_5 C 0.0937(10) 0.7347(16) 0.8079(8)
H30_5 H 0.122625 0.780151 0.812091
C34_5 C 0.0282(11) 0.7005(16) 0.8278(8)
H31_5 H 0.016112 0.725208 0.845580
C36_5 C 0.0031(8) 0.5972(11) 0.7956(6)
C38_5 C 0.1063(9) 0.5676(13) 0.5738(8)
C41_5 C 0.0054(12) 0.4727(17) 0.5994(9)
H34_5 H 0.019914 0.446925 0.584887
C42_5 C 0.0443(7) 0.5391(11) 0.6004(6)
C43_5 C 0.0272(8) 0.5791(11) 0.6253(5)
C44_5 C 0.0679(10) 0.6455(14) 0.6318(8)
H35_4 H 0.109508 0.667040 0.618283
C45_4 C 0.0496(14) 0.6809(20) 0.6571(9)
H36_4 H 0.077899 0.726695 0.659728
Zn1_11 Zn 0.666666 0.333334 0.7781(3)
O1_5 O 0.6061(7) 0.1076(6) 0.8553(4)
O2_5 O 0.6018(7) 0.1569(6) 0.7965(5)
O5_5 O 0.5417(7) 0.1626(7) 0.6780(5)
O6_5 O 0.6448(7) 0.1818(6) 0.6674(5)
O9_5 O 0.5946(5) 0.2850(5) 0.8168(3)
H1_5 H 0.557722 0.259564 0.804280
O10_5 O 0.6389(5) 0.2609(5) 0.7394(4)
H2_5 H 0.623756 0.223189 0.751798
O11_11 O 0.666666 0.333334 0.8947(6)
H3_11 H 0.666666 0.333334 0.922312
O12_5 O 0.6265(8) 0.2006(8) 0.9404(5)
H4_5 H 0.635131 0.169433 0.944885
H5_5 H 0.654661 0.235485 0.953915
O13_11 O 0.666666 0.333334 0.6585(6)
H6_11 H 0.666666 0.333334 0.630830
O14_5 O 0.5144(13) 0.2429(8) 0.6166(6)
H7_5 H 0.475671 0.238450 0.616412
H8_5 H 0.539701 0.274190 0.599442
C1_5 C 0.5944(8) 0.1076(7) 0.8154(5)
C3_5 C 0.5689(8) 0.0412(8) 0.7895(6)
C4_5 C 0.5198(8) 0.0260(7) 0.7625(6)
H9_5 H 0.506886 0.057360 0.756739
C11_5 C 0.6522(10) 0.0141(9) 0.8225(7)
H14_5 H 0.674906 0.055663 0.835799
C13_5 C 0.5817(10) 0.1451(9) 0.6681(7)
C15_5 C 0.5532(8) 0.0780(8) 0.6454(7)
C16_5 C 0.4993(11) 0.0591(9) 0.6208(8)
H15_5 H 0.482188 0.087557 0.617268
C22_5 C 0.6602(14) 0.0094(14) 0.6788(9)
H19_5 H 0.696605 0.020148 0.696701
C23_5 C 0.6378(9) 0.0521(9) 0.6750(8)
H20_5 H 0.658655 0.092197 0.690143
C24_5 C 0.5839(8) 0.0371(8) 0.6486(6)
O15_5 O 0.8924(6) 0.4986(9) 0.8553(4)
O16_5 O 0.8431(6) 0.4450(9) 0.7965(5)
O19_5 O 0.8374(7) 0.3792(10) 0.6780(5)
O20_5 O 0.8182(6) 0.4631(9) 0.6674(5)
O23_5 O 0.7150(5) 0.3097(7) 0.8168(3)
H21_5 H 0.740436 0.298159 0.804280
O24_5 O 0.7391(5) 0.3781(7) 0.7394(4)
H22_5 H 0.776811 0.400568 0.751798
O25_5 O 0.7994(8) 0.4260(11) 0.9404(5)
H23_5 H 0.830567 0.465699 0.944885
H24_5 H 0.764515 0.419177 0.953915
O26_5 O 0.7571(8) 0.2716(15) 0.6166(6)
H25_5 H 0.761550 0.237222 0.616412
H26_5 H 0.725810 0.265512 0.599442
C25_5 C 0.8924(7) 0.4869(11) 0.8154(5)
C27_5 C 0.9588(8) 0.5278(11) 0.7895(6)
C28_5 C 0.9740(7) 0.4939(11) 0.7625(6)
H27_5 H 0.942640 0.449527 0.756739
C35_5 C 0.9859(9) 0.6382(13) 0.8225(7)
H32_5 H 0.944337 0.619244 0.835799
C37_5 C 0.8549(9) 0.4367(13) 0.6681(7)
C39_5 C 0.9220(8) 0.4753(11) 0.6454(7)
C40_5 C 0.9409(9) 0.4403(14) 0.6208(8)
H33_5 H 0.912443 0.394632 0.617268
C46_5 C 0.9906(14) 0.6509(20) 0.6788(9)
H37_5 H 0.979852 0.676458 0.696701
C47_5 C 0.9479(9) 0.5858(13) 0.6750(8)
H38_5 H 0.907803 0.566459 0.690143
C48_5 C 0.9629(8) 0.5469(11) 0.6486(6)
O27_5 O 0.5014(9) 0.3939(7) 0.8553(4)
O28_5 O 0.5550(9) 0.3982(7) 0.7965(5)
O31_5 O 0.6208(10) 0.4583(7) 0.6780(5)
O32_5 O 0.5369(9) 0.3552(7) 0.6674(5)
O35_5 O 0.6903(7) 0.4054(5) 0.8168(3)
H39_5 H 0.701841 0.442278 0.804280
O36_5 O 0.6219(7) 0.3611(5) 0.7394(4)
H40_5 H 0.599432 0.376244 0.751798
O37_5 O 0.5740(11) 0.3735(8) 0.9404(5)
H41_5 H 0.534301 0.364869 0.944885
H42_5 H 0.580823 0.345339 0.953915
O38_5 O 0.7284(15) 0.4856(13) 0.6166(6)
H43_5 H 0.762778 0.524329 0.616412
H44_5 H 0.734488 0.460299 0.599442
C49_5 C 0.5131(11) 0.4056(8) 0.8154(5)
C50_5 C 0.3890(11) 0.5389(8) 0.7265(5)
C51_5 C 0.4722(11) 0.4311(8) 0.7895(6)
C52_5 C 0.5061(11) 0.4802(8) 0.7625(6)
H45_5 H 0.550473 0.493114 0.756739
C53_5 C 0.4770(11) 0.5144(8) 0.7418(5)
H46_5 H 0.503516 0.550994 0.724272
C54_5 C 0.4129(11) 0.4953(8) 0.7468(5)
C55_5 C 0.3701(11) 0.4370(8) 0.7744(6)
C56_5 C 0.3018(13) 0.4129(10) 0.7830(8)
H47_5 H 0.281551 0.435150 0.770927
C57_5 C 0.2653(16) 0.3591(12) 0.8079(8)
H48_5 H 0.219849 0.342475 0.812091
C58_5 C 0.2995(16) 0.3278(11) 0.8278(8)
H49_5 H 0.274792 0.290905 0.845580
C59_5 C 0.3618(13) 0.3478(10) 0.8225(7)
H50_5 H 0.380756 0.325094 0.835799
C60_5 C 0.4028(11) 0.4060(8) 0.7956(6)
C61_5 C 0.5633(13) 0.4183(10) 0.6681(7)
C62_5 C 0.4324(13) 0.5388(9) 0.5738(8)
C63_5 C 0.5247(11) 0.4468(8) 0.6454(7)
C64_5 C 0.5597(14) 0.5007(11) 0.6208(8)
H51_5 H 0.605368 0.517812 0.617268
C65_5 C 0.5273(17) 0.5328(12) 0.5994(9)
H52_5 H 0.553075 0.572990 0.584887
C66_5 C 0.4609(11) 0.5053(8) 0.6004(6)
C67_5 C 0.4209(11) 0.4482(8) 0.6253(5)
C68_5 C 0.3545(14) 0.4225(10) 0.6318(8)
H53_4 H 0.332960 0.442469 0.618283
C69_4 C 0.3191(20) 0.3688(14) 0.6571(9)
H54_4 H 0.273305 0.351205 0.659728
C70_5 C 0.3491(20) 0.3398(14) 0.6788(9)
H55_5 H 0.323542 0.303395 0.696701
C71_5 C 0.4142(13) 0.3622(9) 0.6750(8)
H56_5 H 0.433541 0.341345 0.690143
C72_5 C 0.4531(11) 0.4161(8) 0.6486(6)
C2_5 C 0.4611(8) 0.8502(7) 0.7265(5)
C5_5 C 0.4856(8) 0.9627(8) 0.7418(5)
H10_5 H 0.449006 0.952523 0.724272
C6_5 C 0.5047(8) 0.9177(7) 0.7468(5)
C7_5 C 0.5630(8) 0.9332(8) 0.7744(6)
C8_5 C 0.5871(10) 0.8890(9) 0.7830(8)
H11_5 H 0.564850 0.846402 0.770927
C9_5 C 0.6409(12) 0.9063(10) 0.8079(8)
H12_5 H 0.657525 0.877375 0.812091
C10_5 C 0.6722(11) 0.9718(11) 0.8278(8)
H13_5 H 0.709095 0.983888 0.845580
C12_5 C 0.5940(8) 0.9969(8) 0.7956(6)
C14_5 C 0.4612(9) 0.8937(9) 0.5738(8)
C17_5 C 0.4672(12) 0.9946(12) 0.5994(9)
H16_5 H 0.427010 0.980086 0.584887
C18_5 C 0.4947(8) 0.9557(7) 0.6004(6)
C19_5 C 0.5518(8) 0.9728(8) 0.6253(5)
C20_5 C 0.5775(10) 0.9321(10) 0.6318(8)
H17_5 H 0.557531 0.890492 0.618283
C21_5 C 0.6312(14) 0.9504(14) 0.6571(9)
H18_5 H 0.648795 0.922101 0.659728
C50_6 C 0.1498(14) 0.5389(8) 0.2265(5)
C53_6 C 0.0373(14) 0.5144(8) 0.2418(5)
H46_6 H 0.047477 0.550994 0.224272
C54_6 C 0.0823(14) 0.4953(8) 0.2468(5)
C55_6 C 0.0668(14) 0.4370(8) 0.2744(6)
C56_6 C 0.1110(16) 0.4129(10) 0.2830(8)
H47_6 H 0.153598 0.435150 0.270927
C57_6 C 0.0937(20) 0.3591(12) 0.3079(8)
H48_6 H 0.122625 0.342475 0.312091
C58_6 C 0.0282(19) 0.3278(11) 0.3278(8)
H49_6 H 0.016112 0.290905 0.345580
C60_6 C 0.0031(14) 0.4060(8) 0.2956(6)
C62_6 C 0.1063(16) 0.5388(9) 0.0738(8)
C65_6 C 0.0054(21) 0.5328(12) 0.0994(9)
H52_6 H 0.019914 0.572990 0.084887
C66_6 C 0.0443(14) 0.5053(8) 0.1004(6)
C67_6 C 0.0272(14) 0.4482(8) 0.1253(5)
C68_6 C 0.0679(17) 0.4225(10) 0.1318(8)
H53_5 H 0.109508 0.442469 0.118283
C69_5 C 0.0496(24) 0.3688(14) 0.1571(9)
H54_5 H 0.077899 0.351205 0.159728
Zn1_12 Zn 0.666667 0.333334 0.2781(3)
O1_6 O 0.5014(9) 0.1076(6) 0.3553(4)
O2_6 O 0.5550(9) 0.1569(6) 0.2965(5)
O5_6 O 0.6208(10) 0.1626(7) 0.1780(5)
O6_6 O 0.5369(9) 0.1818(6) 0.1674(5)
O9_6 O 0.6903(7) 0.2850(5) 0.3168(3)
H1_6 H 0.701841 0.259564 0.304280
O10_6 O 0.6219(7) 0.2609(5) 0.2394(4)
H2_6 H 0.599432 0.223189 0.251798
O11_12 O 0.666667 0.333334 0.3947(6)
H3_12 H 0.666667 0.333334 0.422312
O12_6 O 0.5740(11) 0.2006(8) 0.4404(5)
H4_6 H 0.534301 0.169433 0.444885
H5_6 H 0.580823 0.235485 0.453915
O13_12 O 0.666667 0.333334 0.1585(6)
H6_12 H 0.666667 0.333334 0.130830
O14_6 O 0.7284(15) 0.2429(8) 0.1166(6)
H7_6 H 0.762778 0.238450 0.116412
H8_6 H 0.734488 0.274190 0.099442
C1_6 C 0.5131(11) 0.1076(7) 0.3154(5)
C3_6 C 0.4722(11) 0.0412(8) 0.2895(6)
C4_6 C 0.5061(11) 0.0260(7) 0.2625(6)
H9_6 H 0.550473 0.057360 0.256739
C11_6 C 0.3618(13) 0.0141(9) 0.3225(7)
H14_6 H 0.380756 0.055663 0.335799
C13_6 C 0.5633(13) 0.1451(9) 0.1681(7)
C15_6 C 0.5247(11) 0.0780(8) 0.1454(7)
C16_6 C 0.5597(14) 0.0591(9) 0.1208(8)
H15_6 H 0.605368 0.087557 0.117268
C22_6 C 0.3491(20) 0.0094(14) 0.1788(9)
H19_6 H 0.323542 0.020148 0.196701
C23_6 C 0.4142(13) 0.0521(9) 0.1750(8)
H20_6 H 0.433541 0.092197 0.190143
C24_6 C 0.4531(11) 0.0371(8) 0.1486(6)
O15_6 O 0.6061(11) 0.4986(9) 0.3553(4)
O16_6 O 0.6018(11) 0.4450(9) 0.2965(5)
O19_6 O 0.5417(12) 0.3792(10) 0.1780(5)
O20_6 O 0.6448(11) 0.4631(9) 0.1674(5)
O23_6 O 0.5946(9) 0.3097(7) 0.3168(3)
H21_6 H 0.557722 0.298159 0.304280
O24_6 O 0.6389(9) 0.3781(7) 0.2394(4)
H22_6 H 0.623756 0.400568 0.251798
O25_6 O 0.6265(14) 0.4260(11) 0.4404(5)
H23_6 H 0.635131 0.465699 0.444885
H24_6 H 0.654661 0.419177 0.453915
O26_6 O 0.5144(17) 0.2716(15) 0.1166(6)
H25_6 H 0.475671 0.237222 0.116412
H26_6 H 0.539701 0.265512 0.099442
C25_6 C 0.5944(13) 0.4869(11) 0.3154(5)
C26_6 C 0.4611(13) 0.6110(11) 0.2265(5)
C27_6 C 0.5689(14) 0.5278(11) 0.2895(6)
C28_6 C 0.5198(13) 0.4939(11) 0.2625(6)
H27_6 H 0.506886 0.449527 0.256739
C29_6 C 0.4856(14) 0.5230(11) 0.2418(5)
H28_6 H 0.449006 0.496484 0.224272
C30_6 C 0.5047(13) 0.5871(11) 0.2468(5)
C31_6 C 0.5630(14) 0.6299(11) 0.2744(6)
C32_6 C 0.5871(16) 0.6982(13) 0.2830(8)
H29_6 H 0.564850 0.718449 0.270927
C33_6 C 0.6409(19) 0.7347(16) 0.3079(8)
H30_6 H 0.657525 0.780151 0.312091
C34_6 C 0.6722(19) 0.7005(16) 0.3278(8)
H31_6 H 0.709095 0.725208 0.345580
C35_6 C 0.6522(16) 0.6382(13) 0.3225(7)
H32_6 H 0.674906 0.619244 0.335799
C36_6 C 0.5940(14) 0.5972(11) 0.2956(6)
C37_6 C 0.5817(16) 0.4367(13) 0.1681(7)
C38_6 C 0.4612(16) 0.5676(13) 0.0738(8)
C39_6 C 0.5532(14) 0.4753(11) 0.1454(7)
C40_6 C 0.4993(17) 0.4403(14) 0.1208(8)
H33_6 H 0.482188 0.394632 0.117268
C41_6 C 0.4672(21) 0.4727(17) 0.0994(9)
H34_6 H 0.427010 0.446925 0.084887
C42_6 C 0.4947(13) 0.5391(11) 0.1004(6)
C43_6 C 0.5518(14) 0.5791(11) 0.1253(5)
C44_6 C 0.5775(17) 0.6455(14) 0.1318(8)
H35_5 H 0.557531 0.667040 0.118283
C45_5 C 0.6312(24) 0.6809(20) 0.1571(9)
H36_5 H 0.648795 0.726695 0.159728
C46_6 C 0.6602(24) 0.6509(20) 0.1788(9)
H37_6 H 0.696605 0.676458 0.196701
C47_6 C 0.6378(16) 0.5858(13) 0.1750(8)
H38_6 H 0.658655 0.566459 0.190143
C48_6 C 0.5839(14) 0.5469(11) 0.1486(6)
O27_6 O 0.8924(11) 0.3939(7) 0.3553(4)
O28_6 O 0.8431(11) 0.3982(7) 0.2965(5)
O31_6 O 0.8374(12) 0.4583(7) 0.1780(5)
O32_6 O 0.8182(11) 0.3552(7) 0.1674(5)
O35_6 O 0.7150(9) 0.4054(5) 0.3168(3)
H39_6 H 0.740436 0.442278 0.304280
O36_6 O 0.7391(9) 0.3611(5) 0.2394(4)
H40_6 H 0.776811 0.376244 0.251798
O37_6 O 0.7994(14) 0.3735(8) 0.4404(5)
H41_6 H 0.830567 0.364869 0.444885
H42_6 H 0.764515 0.345339 0.453915
O38_6 O 0.7571(20) 0.4856(13) 0.1166(6)
H43_6 H 0.761550 0.524329 0.116412
H44_6 H 0.725810 0.460299 0.099442
C49_6 C 0.8924(14) 0.4056(8) 0.3154(5)
C51_6 C 0.9588(14) 0.4311(8) 0.2895(6)
C52_6 C 0.9740(14) 0.4802(8) 0.2625(6)
H45_6 H 0.942640 0.493114 0.256739
C59_6 C 0.9859(16) 0.3478(10) 0.3225(7)
H50_6 H 0.944337 0.325094 0.335799
C61_6 C 0.8549(16) 0.4183(10) 0.1681(7)
C63_6 C 0.9220(14) 0.4468(8) 0.1454(7)
C64_6 C 0.9409(18) 0.5007(11) 0.1208(8)
H51_6 H 0.912443 0.517812 0.117268
C70_6 C 0.9906(24) 0.3398(14) 0.1788(9)
H55_6 H 0.979852 0.303395 0.196701
C71_6 C 0.9479(16) 0.3622(9) 0.1750(8)
H56_6 H 0.907803 0.341345 0.190143
C72_6 C 0.9629(14) 0.4161(8) 0.1486(6)
C2_6 C 0.3890(11) 0.8502(7) 0.2265(5)
C5_6 C 0.4770(11) 0.9627(8) 0.2418(5)
H10_6 H 0.503516 0.952523 0.224272
C6_6 C 0.4129(11) 0.9177(7) 0.2468(5)
C7_6 C 0.3701(11) 0.9332(8) 0.2744(6)
C8_6 C 0.3018(13) 0.8890(9) 0.2830(8)
H11_6 H 0.281551 0.846402 0.270927
C9_6 C 0.2653(16) 0.9063(10) 0.3079(8)
H12_6 H 0.219849 0.877375 0.312091
C10_6 C 0.2995(16) 0.9718(11) 0.3278(8)
H13_6 H 0.274792 0.983888 0.345580
C12_6 C 0.4028(11) 0.9969(8) 0.2956(6)
C14_6 C 0.4324(13) 0.8937(9) 0.0738(8)
C17_6 C 0.5273(17) 0.9946(12) 0.0994(9)
H16_6 H 0.553075 0.980086 0.084887
C18_6 C 0.4609(11) 0.9557(7) 0.1004(6)
C19_6 C 0.4209(11) 0.9728(8) 0.1253(5)
C20_6 C 0.3545(14) 0.9321(10) 0.1318(8)
H17_6 H 0.332960 0.890492 0.118283
C21_6 C 0.3191(20) 0.9504(14) 0.1571(9)
H18_6 H 0.273305 0.922101 0.159728
H35_6 H 0.776175 0.000373 0.951616
C45_6 C 0.7163(14) 0.0142(20) 0.9904(9)
H36_6 H 0.744566 0.060028 0.993061
H53_6 H 0.999627 0.775802 0.951616
C69_6 C 0.9858(20) 0.7021(14) 0.9904(9)
H54_6 H 0.939972 0.684538 0.993061
loop_
_geom_bond_atom_site_label_1
_geom_bond_atom_site_label_2
_geom_bond_site_symmetry_1
_geom_bond_site_symmetry_2
H29 C32 1_555 1_555
C33 C32 1_555 1_555
H30 C33 1_555 1_555
C34 C33 1_555 1_555
H31 C34 1_555 1_555
Eu10 O17 1_555 1_555
Eu1 O1 1_555 1_555
Eu2 O5 1_555 1_555
Zn1 O9 1_555 1_555
O1 C1 1_555 1_555
O2 Eu1 1_555 1_555
O3 C2 1_555 1_555
O4 C2 1_555 1_555
O5 C13 1_555 1_555
O6 C13 1_555 1_555
O9 Eu1 1_555 1_555
H1 O9 1_555 1_555
O10 Eu2 1_555 1_555
H2 O10 1_555 1_555
O11 Eu1 1_555 1_555
H3 O11 1_555 1_555
O12 Eu1 1_555 1_555
H4 O12 1_555 1_555
H5 O12 1_555 1_555
C1 O2 1_555 1_555
C2 C6 1_555 1_555
C3 C1 1_555 1_555
C4 C3 1_555 1_555
H9 C4 1_555 1_555
C5 C4 1_555 1_555
H10 C5 1_555 1_555
C6 C5 1_555 1_555
C7 C6 1_555 1_555
C8 C7 1_555 1_555
H11 C8 1_555 1_555
C9 C8 1_555 1_555
H12 C9 1_555 1_555
C10 C9 1_555 1_555
H13 C10 1_555 1_555
C11 C10 1_555 1_555
H14 C11 1_555 1_555
C12 C3 1_555 1_555
H19 C22 1_555 1_555
C23 C22 1_555 1_555
H20 C23 1_555 1_555
Eu3 O11 1_555 1_555
Eu4 O6 1_555 1_555
O15 Eu3 1_555 1_555
O16 Eu3 1_555 1_555
O18 C26 1_555 1_555
O19 Eu4 1_555 1_555
O20 C37 1_555 1_555
O23 Eu1 1_555 1_555
H21 O23 1_555 1_555
O24 Zn1 1_555 1_555
H22 O24 1_555 1_555
O25 Eu3 1_555 1_555
H23 O25 1_555 1_555
H24 O25 1_555 1_555
C25 O15 1_555 1_555
C26 C30 1_555 1_555
C27 C25 1_555 1_555
C28 C27 1_555 1_555
H27 C28 1_555 1_555
C29 C28 1_555 1_555
H28 C29 1_555 1_555
C30 C29 1_555 1_555
C31 C30 1_555 1_555
H32 C35 1_555 1_555
C36 C27 1_555 1_555
C37 O19 1_555 1_555
C47 C46 1_555 1_555
H38 C47 1_555 1_555
Eu5 O9 1_555 1_555
O27 Eu5 1_555 1_555
O28 Eu5 1_555 1_555
O30 C50 1_555 1_555
O31 Eu6 1_555 1_555
O32 Eu2 1_555 1_555
O35 Zn1 1_555 1_555
H39 O35 1_555 1_555
O36 Eu2 1_555 1_555
H40 O36 1_555 1_555
O37 Eu5 1_555 1_555
H41 O37 1_555 1_555
H42 O37 1_555 1_555
C49 O27 1_555 1_555
C50 C54 1_555 1_555
C51 C49 1_555 1_555
C52 C51 1_555 1_555
H45 C52 1_555 1_555
C53 C52 1_555 1_555
H46 C53 1_555 1_555
C54 C53 1_555 1_555
C55 C54 1_555 1_555
H50 C59 1_555 1_555
C60 C51 1_555 1_555
C61 O31 1_555 1_555
C71 C70 1_555 1_555
H56 C71 1_555 1_555
Eu8 O18 1_555 1_555
Eu12 O3 1_555 1_555
O39 Eu5 1_555 1_555
O40 Eu3 1_555 1_555
O41 Eu1 1_555 1_555
O42 Eu3 1_555 1_555
O43 Eu1 1_555 1_555
O44 Eu5 1_555 1_555
O45 Eu6 1_555 1_555
O46 Eu4 1_555 1_555
O47 Eu2 1_555 1_555
O48 Eu6 1_555 1_555
O49 Eu4 1_555 1_555
O50 Eu2 1_555 1_555
Zn1 O10 1_555 1_555
Zn1 O23 1_555 1_555
Zn1 O36 1_555 1_555
O10 Eu4 1_555 1_555
O11 Eu5 1_555 1_555
C7 C12 1_555 1_555
C11 C12 1_555 1_555
Eu3 O23 1_555 1_555
Eu3 O35 1_555 1_555
Eu4 O24 1_555 1_555
O16 C25 1_555 1_555
O20 Eu6 1_555 1_555
O24 Eu6 1_555 1_555
C31 C36 1_555 1_555
C35 C36 1_555 1_555
Eu5 O35 1_555 1_555
Eu6 O36 1_555 1_555
O28 C49 1_555 1_555
O32 C61 1_555 1_555
C55 C60 1_555 1_555
C59 C60 1_555 1_555
O7 C14 1_555 1_555
O8 C14 1_555 1_555
H6 O13 1_555 1_555
H7 O14 1_555 1_555
H8 O14 1_555 1_555
C14 C18 1_555 1_555
C15 C16 1_555 1_555
C16 H15 1_555 1_555
C17 C16 1_555 1_555
H16 C17 1_555 1_555
C18 C17 1_555 1_555
C19 C18 1_555 1_555
C20 C19 1_555 1_555
H17 C20 1_555 1_555
C21 C20 1_555 1_555
H18 C21 1_555 1_555
C24 C15 1_555 1_555
O21 C38 1_555 1_555
O22 C38 1_555 1_555
H25 O26 1_555 1_555
H26 O26 1_555 1_555
C38 C42 1_555 1_555
C40 C39 1_555 1_555
H33 C40 1_555 1_555
C41 C40 1_555 1_555
H34 C41 1_555 1_555
C42 C41 1_555 1_555
C43 C42 1_555 1_555
C44 C43 1_555 1_555
C48 C39 1_555 1_555
O33 C62 1_555 1_555
O34 C62 1_555 1_555
H43 O38 1_555 1_555
H44 O38 1_555 1_555
C62 C66 1_555 1_555
C64 C63 1_555 1_555
H51 C64 1_555 1_555
C65 C64 1_555 1_555
H52 C65 1_555 1_555
C66 C65 1_555 1_555
C67 C66 1_555 1_555
C68 C67 1_555 1_555
C72 C63 1_555 1_555
Eu13 O33 1_555 1_555
Eu14 O21 1_555 1_555
Eu15 O7 1_555 1_555
O8 Eu15 1_555 1_555
C19 C24 1_555 1_555
O22 Eu14 1_555 1_555
C43 C48 1_555 1_555
O34 Eu13 1_555 1_555
C67 C72 1_555 1_555
H47 C56 1_555 1_555
C57 C56 1_555 1_555
H48 C57 1_555 1_555
C58 C57 1_555 1_555
H49 C58 1_555 1_555
Eu8 O29 1_555 1_555
H29_2 C32_2 1_555 1_555
C33_2 C32_2 1_555 1_555
H30_2 C33_2 1_555 1_555
C34_2 C33_2 1_555 1_555
H31_2 C34_2 1_555 1_555
H36 C45 1_555 1_555
Eu10_2 O17_2 1_555 1_555
Eu1_2 O1_2 1_555 1_555
Eu2_2 O5_2 1_555 1_555
Zn1_2 O9_2 1_555 1_555
O1_2 C1_2 1_555 1_555
O2_2 Eu1_2 1_555 1_555
O4_2 C2_2 1_555 1_555
O5_2 C13_2 1_555 1_555
O6_2 C13_2 1_555 1_555
O7_2 C14_2 1_555 1_555
O8_2 C14_2 1_555 1_555
O9_2 Eu1_2 1_555 1_555
H1_2 O9_2 1_555 1_555
O10_2 Eu2_2 1_555 1_555
H2_2 O10_2 1_555 1_555
O11_2 Eu1_2 1_555 1_555
H3_2 O11_2 1_555 1_555
O12_2 Eu1_2 1_555 1_555
H4_2 O12_2 1_555 1_555
H5_2 O12_2 1_555 1_555
O13_2 Eu2_2 1_555 1_555
H6_2 O13_2 1_555 1_555
O14_2 Eu2_2 1_555 1_555
H7_2 O14_2 1_555 1_555
H8_2 O14_2 1_555 1_555
C1_2 O2_2 1_555 1_555
C2_2 C6_2 1_555 1_555
C3_2 C1_2 1_555 1_555
C4_2 C3_2 1_555 1_555
H9_2 C4_2 1_555 1_555
C5_2 C4_2 1_555 1_555
H10_2 C5_2 1_555 1_555
C6_2 C5_2 1_555 1_555
C7_2 C6_2 1_555 1_555
H14_2 C11_2 1_555 1_555
C12_2 C3_2 1_555 1_555
C13_2 C15_2 1_555 1_555
C14_2 C18_2 1_555 1_555
C15_2 C16_2 1_555 1_555
C16_2 H15_2 1_555 1_555
C17_2 C16_2 1_555 1_555
H16_2 C17_2 1_555 1_555
C18_2 C17_2 1_555 1_555
C19_2 C18_2 1_555 1_555
C20_2 C19_2 1_555 1_555
C23_2 C22_2 1_555 1_555
H20_2 C23_2 1_555 1_555
C24_2 C15_2 1_555 1_555
Eu3_2 O11_2 1_555 1_555
Eu4_2 O6_2 1_555 1_555
O15_2 Eu3_2 1_555 1_555
O16_2 Eu3_2 1_555 1_555
O18_2 C26_2 1_555 1_555
O19_2 Eu4_2 1_555 1_555
O20_2 C37_2 1_555 1_555
O21_2 C38_2 1_555 1_555
O22_2 C38_2 1_555 1_555
O23_2 Eu1_2 1_555 1_555
H21_2 O23_2 1_555 1_555
O24_2 Zn1_2 1_555 1_555
H22_2 O24_2 1_555 1_555
O25_2 Eu3_2 1_555 1_555
H23_2 O25_2 1_555 1_555
H24_2 O25_2 1_555 1_555
O26_2 Eu4_2 1_555 1_555
H25_2 O26_2 1_555 1_555
H26_2 O26_2 1_555 1_555
C25_2 O15_2 1_555 1_555
C26_2 C30_2 1_555 1_555
C27_2 C25_2 1_555 1_555
C28_2 C27_2 1_555 1_555
H27_2 C28_2 1_555 1_555
C29_2 C28_2 1_555 1_555
H28_2 C29_2 1_555 1_555
C30_2 C29_2 1_555 1_555
C31_2 C30_2 1_555 1_555
H32_2 C35_2 1_555 1_555
C36_2 C27_2 1_555 1_555
C37_2 O19_2 1_555 1_555
C38_2 C42_2 1_555 1_555
C39_2 C37_2 1_555 1_555
C40_2 C39_2 1_555 1_555
H33_2 C40_2 1_555 1_555
C41_2 C40_2 1_555 1_555
H34_2 C41_2 1_555 1_555
C42_2 C41_2 1_555 1_555
C43_2 C42_2 1_555 1_555
C44_2 C43_2 1_555 1_555
C47_2 C46_2 1_555 1_555
H38_2 C47_2 1_555 1_555
C48_2 C39_2 1_555 1_555
Eu5_2 O9_2 1_555 1_555
Eu6_2 O13_2 1_555 1_555
O27_2 Eu5_2 1_555 1_555
O28_2 Eu5_2 1_555 1_555
O29_2 C50_2 1_555 1_555
O30_2 C50_2 1_555 1_555
O31_2 Eu6_2 1_555 1_555
O32_2 Eu2_2 1_555 1_555
O33_2 C62_2 1_555 1_555
O34_2 C62_2 1_555 1_555
O35_2 Zn1_2 1_555 1_555
H39_2 O35_2 1_555 1_555
O36_2 Eu2_2 1_555 1_555
H40_2 O36_2 1_555 1_555
O37_2 Eu5_2 1_555 1_555
H41_2 O37_2 1_555 1_555
H42_2 O37_2 1_555 1_555
O38_2 Eu6_2 1_555 1_555
H43_2 O38_2 1_555 1_555
H44_2 O38_2 1_555 1_555
C49_2 O27_2 1_555 1_555
C50_2 C54_2 1_555 1_555
C51_2 C49_2 1_555 1_555
C52_2 C51_2 1_555 1_555
H45_2 C52_2 1_555 1_555
C53_2 C52_2 1_555 1_555
H46_2 C53_2 1_555 1_555
C54_2 C53_2 1_555 1_555
C55_2 C54_2 1_555 1_555
C56_2 C55_2 1_555 1_555
H47_2 C56_2 1_555 1_555
C57_2 C56_2 1_555 1_555
H48_2 C57_2 1_555 1_555
C58_2 C57_2 1_555 1_555
H49_2 C58_2 1_555 1_555
C59_2 C58_2 1_555 1_555
H50_2 C59_2 1_555 1_555
C60_2 C51_2 1_555 1_555
C61_2 O31_2 1_555 1_555
C62_2 C66_2 1_555 1_555
C63_2 C61_2 1_555 1_555
C64_2 C63_2 1_555 1_555
H51_2 C64_2 1_555 1_555
C65_2 C64_2 1_555 1_555
H52_2 C65_2 1_555 1_555
C66_2 C65_2 1_555 1_555
C67_2 C66_2 1_555 1_555
C68_2 C67_2 1_555 1_555
H53 C68_2 1_555 1_555
C69 C68_2 1_555 1_555
H54 C69 1_555 1_555
C70_2 C69 1_555 1_555
H55_2 C70_2 1_555 1_555
C71_2 C70_2 1_555 1_555
H56_2 C71_2 1_555 1_555
C72_2 C63_2 1_555 1_555
Eu7 O29_2 1_555 1_555
Eu10_2 O4_2 1_555 1_555
Eu13_2 O33_2 1_555 1_555
Eu14_2 O21_2 1_555 1_555
Eu15_2 O7_2 1_555 1_555
O39_2 Eu5_2 1_555 1_555
O40_2 Eu3_2 1_555 1_555
O41_2 Eu1_2 1_555 1_555
O42_2 Eu3_2 1_555 1_555
O43_2 Eu1_2 1_555 1_555
O44_2 Eu5_2 1_555 1_555
O45_2 Eu6_2 1_555 1_555
O46_2 Eu4_2 1_555 1_555
O47_2 Eu2_2 1_555 1_555
O48_2 Eu6_2 1_555 1_555
O49_2 Eu4_2 1_555 1_555
O50_2 Eu2_2 1_555 1_555
Zn1_2 O10_2 1_555 1_555
Zn1_2 O23_2 1_555 1_555
Zn1_2 O36_2 1_555 1_555
O8_2 Eu15_2 1_555 1_555
O10_2 Eu4_2 1_555 1_555
O11_2 Eu5_2 1_555 1_555
O13_2 Eu4_2 1_555 1_555
C7_2 C12_2 1_555 1_555
C11_2 C12_2 1_555 1_555
C19_2 C24_2 1_555 1_555
C23_2 C24_2 1_555 1_555
Eu3_2 O23_2 1_555 1_555
Eu3_2 O35_2 1_555 1_555
Eu4_2 O24_2 1_555 1_555
O16_2 C25_2 1_555 1_555
O20_2 Eu6_2 1_555 1_555
O22_2 Eu14_2 1_555 1_555
O24_2 Eu6_2 1_555 1_555
C31_2 C36_2 1_555 1_555
C35_2 C36_2 1_555 1_555
C43_2 C48_2 1_555 1_555
C47_2 C48_2 1_555 1_555
Eu5_2 O35_2 1_555 1_555
Eu6_2 O36_2 1_555 1_555
O28_2 C49_2 1_555 1_555
O32_2 C61_2 1_555 1_555
O34_2 Eu13_2 1_555 1_555
C55_2 C60_2 1_555 1_555
C59_2 C60_2 1_555 1_555
C67_2 C72_2 1_555 1_555
C71_2 C72_2 1_555 1_555
H11_2 C8_2 1_555 1_555
C9_2 C8_2 1_555 1_555
H12_2 C9_2 1_555 1_555
C10_2 C9_2 1_555 1_555
H13_2 C10_2 1_555 1_555
H18_2 C21_2 1_555 1_555
Eu12_2 O3_2 1_555 1_555
H3_3 O11_3 1_555 1_555
H6_3 O13_3 1_555 1_555
Eu10_2 O11_3 1_555 1_555
O15_3 Eu10_2 1_555 1_555
O16_3 Eu10_2 1_555 1_555
O17_3 C26_3 1_555 1_555
O18_3 C26_3 1_555 1_555
O20_3 C37_3 1_555 1_555
O21_3 C38_3 1_555 1_555
O22_3 C38_3 1_555 1_555
O24_3 Zn1_3 1_555 1_555
H22_3 O24_3 1_555 1_555
O25_3 Eu10_2 1_555 1_555
H23_3 O25_3 1_555 1_555
H24_3 O25_3 1_555 1_555
C25_3 O15_3 1_555 1_555
C26_3 C30_3 1_555 1_555
C27_3 C25_3 1_555 1_555
C28_3 C27_3 1_555 1_555
H27_3 C28_3 1_555 1_555
C29_3 C28_3 1_555 1_555
H28_3 C29_3 1_555 1_555
C30_3 C29_3 1_555 1_555
C31_3 C30_3 1_555 1_555
C32_3 C31_3 1_555 1_555
H29_3 C32_3 1_555 1_555
C33_3 C32_3 1_555 1_555
H30_3 C33_3 1_555 1_555
C34_3 C33_3 1_555 1_555
H31_3 C34_3 1_555 1_555
C35_3 C34_3 1_555 1_555
H32_3 C35_3 1_555 1_555
C36_3 C27_3 1_555 1_555
C37_3 O19_3 1_555 1_555
C38_3 C42_3 1_555 1_555
C39_3 C37_3 1_555 1_555
C40_3 C39_3 1_555 1_555
H33_3 C40_3 1_555 1_555
C41_3 C40_3 1_555 1_555
H34_3 C41_3 1_555 1_555
C42_3 C41_3 1_555 1_555
C43_3 C42_3 1_555 1_555
C44_3 C43_3 1_555 1_555
H35_2 C44_3 1_555 1_555
C45_2 C44_3 1_555 1_555
H36_2 C45_2 1_555 1_555
C46_3 C45_2 1_555 1_555
H37_3 C46_3 1_555 1_555
C47_3 C46_3 1_555 1_555
H38_3 C47_3 1_555 1_555
C48_3 C39_3 1_555 1_555
Eu15_2 O13_3 1_555 1_555
O35_3 Zn1_3 1_555 1_555
H39_3 O35_3 1_555 1_555
O38_3 Eu15_2 1_555 1_555
H43_3 O38_3 1_555 1_555
H44_3 O38_3 1_555 1_555
Eu8_2 O18_3 1_555 1_555
Eu10_3 O17_3 1_555 1_555
Eu14_3 O21_3 1_555 1_555
Eu10_2 O35_3 1_555 1_555
O16_3 C25_3 1_555 1_555
O20_3 Eu15_2 1_555 1_555
O22_3 Eu14_3 1_555 1_555
O24_3 Eu15_2 1_555 1_555
C31_3 C36_3 1_555 1_555
C35_3 C36_3 1_555 1_555
C43_3 C48_3 1_555 1_555
C47_3 C48_3 1_555 1_555
H3_4 O11_4 1_555 1_555
H6_4 O13_4 1_555 1_555
H13_3 C10_3 1_555 1_555
H21_3 O23_3 1_555 1_555
O26_3 Eu14_2 1_555 1_555
H25_3 O26_3 1_555 1_555
H26_3 O26_3 1_555 1_555
Zn1_4 O23_3 1_555 1_555
O13_4 Eu14_2 1_555 1_555
H3_5 O11_5 1_555 1_555
H6_5 O13_5 1_555 1_555
O27_3 Eu12_2 1_555 1_555
O28_3 Eu12_2 1_555 1_555
O29_3 C50_3 1_555 1_555
O30_3 C50_3 1_555 1_555
O33_3 C62_3 1_555 1_555
O34_3 C62_3 1_555 1_555
H40_3 O36_3 1_555 1_555
O37_3 Eu12_2 1_555 1_555
H41_3 O37_3 1_555 1_555
H42_3 O37_3 1_555 1_555
C49_3 O27_3 1_555 1_555
C50_3 C54_3 1_555 1_555
C51_3 C49_3 1_555 1_555
C52_3 C51_3 1_555 1_555
H45_3 C52_3 1_555 1_555
C53_3 C52_3 1_555 1_555
H46_3 C53_3 1_555 1_555
C54_3 C53_3 1_555 1_555
C55_3 C54_3 1_555 1_555
C56_3 C55_3 1_555 1_555
H47_3 C56_3 1_555 1_555
C57_3 C56_3 1_555 1_555
H48_3 C57_3 1_555 1_555
C60_3 C51_3 1_555 1_555
C61_3 O31_3 1_555 1_555
C62_3 C66_3 1_555 1_555
C63_3 C61_3 1_555 1_555
C64_3 C63_3 1_555 1_555
H51_3 C64_3 1_555 1_555
C65_3 C64_3 1_555 1_555
H52_3 C65_3 1_555 1_555
C66_3 C65_3 1_555 1_555
C67_3 C66_3 1_555 1_555
C68_3 C67_3 1_555 1_555
H53_2 C68_3 1_555 1_555
C69_2 C68_3 1_555 1_555
H54_2 C69_2 1_555 1_555
C70_3 C69_2 1_555 1_555
C71_3 C70_3 1_555 1_555
H56_3 C71_3 1_555 1_555
C72_3 C63_3 1_555 1_555
Eu8_2 O29_3 1_555 1_555
Eu12_3 O30_3 1_555 1_555
Eu13_3 O33_3 1_555 1_555
Zn1_5 O36_3 1_555 1_555
O11_5 Eu12_2 1_555 1_555
O28_3 C49_3 1_555 1_555
O32_3 C61_3 1_555 1_555
O34_3 Eu13_3 1_555 1_555
C55_3 C60_3 1_555 1_555
C59_3 C60_3 1_555 1_555
C67_3 C72_3 1_555 1_555
C71_3 C72_3 1_555 1_555
Eu7 O1_3 1_555 1_555
Eu13_2 O5_3 1_555 1_555
Zn1_6 O9_3 1_555 1_555
O1_3 C1_3 1_555 1_555
O2_3 Eu7 1_555 1_555
O3_3 C2_3 1_555 1_555
O4_3 C2_3 1_555 1_555
O5_3 C13_3 1_555 1_555
O6_3 C13_3 1_555 1_555
O7_3 C14_3 1_555 1_555
O8_3 C14_3 1_555 1_555
O9_3 Eu7 1_555 1_555
H1_3 O9_3 1_555 1_555
O10_3 Eu13_2 1_555 1_555
H2_3 O10_3 1_555 1_555
O11_6 Eu7 1_555 1_555
H3_6 O11_6 1_555 1_555
O12_3 Eu7 1_555 1_555
H4_3 O12_3 1_555 1_555
H5_3 O12_3 1_555 1_555
O13_6 Eu13_2 1_555 1_555
H6_6 O13_6 1_555 1_555
O14_3 Eu13_2 1_555 1_555
H7_3 O14_3 1_555 1_555
H8_3 O14_3 1_555 1_555
C1_3 O2_3 1_555 1_555
C2_3 C6_3 1_555 1_555
C3_3 C1_3 1_555 1_555
C4_3 C3_3 1_555 1_555
H9_3 C4_3 1_555 1_555
C5_3 C4_3 1_555 1_555
H10_3 C5_3 1_555 1_555
C6_3 C5_3 1_555 1_555
C7_3 C6_3 1_555 1_555
C8_3 C7_3 1_555 1_555
H11_3 C8_3 1_555 1_555
C9_3 C8_3 1_555 1_555
H12_3 C9_3 1_555 1_555
C12_3 C3_3 1_555 1_555
C13_3 C15_3 1_555 1_555
C14_3 C18_3 1_555 1_555
C15_3 C16_3 1_555 1_555
C16_3 H15_3 1_555 1_555
C17_3 C16_3 1_555 1_555
H16_3 C17_3 1_555 1_555
C18_3 C17_3 1_555 1_555
C19_3 C18_3 1_555 1_555
C20_3 C19_3 1_555 1_555
H17_3 C20_3 1_555 1_555
C21_3 C20_3 1_555 1_555
H18_3 C21_3 1_555 1_555
C22_3 C21_3 1_555 1_555
C23_3 C22_3 1_555 1_555
H20_3 C23_3 1_555 1_555
C24_3 C15_3 1_555 1_555
H49_3 C58_3 1_555 1_555
Eu10_3 O4_3 1_555 1_555
Eu12_3 O3_3 1_555 1_555
Eu15_3 O7_3 1_555 1_555
Zn1_6 O10_3 1_555 1_555
O8_3 Eu15_3 1_555 1_555
C7_3 C12_3 1_555 1_555
C11_3 C12_3 1_555 1_555
C19_3 C24_3 1_555 1_555
C23_3 C24_3 1_555 1_555
H3_7 O11_7 1_555 1_555
O27_4 Eu12 1_555 1_555
O37_4 Eu12 1_555 1_555
H41_4 O37_4 1_555 1_555
H42_4 O37_4 1_555 1_555
O11_7 Eu12 1_555 1_555
H6_7 O13_7 1_555 1_555
Eu15 O13_7 1_555 1_555
O29_4 C50_4 1_555 1_555
O30_4 C50_4 1_555 1_555
O31_4 Eu15 1_555 1_555
O33_4 C62_4 1_555 1_555
O34_4 C62_4 1_555 1_555
O35_4 Zn1_7 1_555 1_555
H39_4 O35_4 1_555 1_555
H40_4 O36_4 1_555 1_555
O38_4 Eu15 1_555 1_555
H43_4 O38_4 1_555 1_555
H44_4 O38_4 1_555 1_555
C50_4 C54_4 1_555 1_555
C51_4 C49_4 1_555 1_555
C52_4 C51_4 1_555 1_555
H45_4 C52_4 1_555 1_555
C53_4 C52_4 1_555 1_555
H46_4 C53_4 1_555 1_555
C54_4 C53_4 1_555 1_555
C55_4 C54_4 1_555 1_555
C56_4 C55_4 1_555 1_555
H47_4 C56_4 1_555 1_555
C57_4 C56_4 1_555 1_555
H48_4 C57_4 1_555 1_555
C60_4 C51_4 1_555 1_555
C61_4 O31_4 1_555 1_555
C62_4 C66_4 1_555 1_555
C63_4 C61_4 1_555 1_555
C64_4 C63_4 1_555 1_555
H51_4 C64_4 1_555 1_555
C65_4 C64_4 1_555 1_555
H52_4 C65_4 1_555 1_555
C66_4 C65_4 1_555 1_555
C67_4 C66_4 1_555 1_555
C68_4 C67_4 1_555 1_555
H53_3 C68_4 1_555 1_555
C69_3 C68_4 1_555 1_555
H54_3 C69_3 1_555 1_555
C70_4 C69_3 1_555 1_555
C71_4 C70_4 1_555 1_555
H56_4 C71_4 1_555 1_555
C72_4 C63_4 1_555 1_555
Eu7_2 O29_4 1_555 1_555
Eu12_4 O30_4 1_555 1_555
Eu13_4 O33_4 1_555 1_555
Zn1_7 O36_4 1_555 1_555
Eu15 O36_4 1_555 1_555
O28_4 C49_4 1_555 1_555
O32_4 C61_4 1_555 1_555
O34_4 Eu13_4 1_555 1_555
C55_4 C60_4 1_555 1_555
C59_4 C60_4 1_555 1_555
C67_4 C72_4 1_555 1_555
C71_4 C72_4 1_555 1_555
H3_8 O11_8 1_555 1_555
Zn1_8 O9_4 1_555 1_555
H1_4 O9_4 1_555 1_555
O13_8 Eu13 1_555 1_555
H6_8 O13_8 1_555 1_555
O14_4 Eu13 1_555 1_555
H7_4 O14_4 1_555 1_555
H8_4 O14_4 1_555 1_555
H3_9 O11_9 1_555 1_555
Eu10 O11_9 1_555 1_555
O15_4 Eu10 1_555 1_555
O25_4 Eu10 1_555 1_555
H23_4 O25_4 1_555 1_555
H24_4 O25_4 1_555 1_555
H6_9 O13_9 1_555 1_555
O17_4 C26_4 1_555 1_555
O18_4 C26_4 1_555 1_555
O20_4 C37_4 1_555 1_555
O21_4 C38_4 1_555 1_555
O22_4 C38_4 1_555 1_555
O24_4 Zn1_9 1_555 1_555
H22_4 O24_4 1_555 1_555
C26_4 C30_4 1_555 1_555
C27_4 C25_4 1_555 1_555
C28_4 C27_4 1_555 1_555
H27_4 C28_4 1_555 1_555
C29_4 C28_4 1_555 1_555
H28_4 C29_4 1_555 1_555
C30_4 C29_4 1_555 1_555
C31_4 C30_4 1_555 1_555
C32_4 C31_4 1_555 1_555
H29_4 C32_4 1_555 1_555
C33_4 C32_4 1_555 1_555
H30_4 C33_4 1_555 1_555
C36_4 C27_4 1_555 1_555
C37_4 O19_4 1_555 1_555
C38_4 C42_4 1_555 1_555
C39_4 C37_4 1_555 1_555
C40_4 C39_4 1_555 1_555
H33_4 C40_4 1_555 1_555
C41_4 C40_4 1_555 1_555
H34_4 C41_4 1_555 1_555
C42_4 C41_4 1_555 1_555
C43_4 C42_4 1_555 1_555
C44_4 C43_4 1_555 1_555
H35_3 C44_4 1_555 1_555
C45_3 C44_4 1_555 1_555
H36_3 C45_3 1_555 1_555
C46_4 C45_3 1_555 1_555
C47_4 C46_4 1_555 1_555
H38_4 C47_4 1_555 1_555
C48_4 C39_4 1_555 1_555
Eu7_2 O18_4 1_555 1_555
Eu10_4 O17_4 1_555 1_555
Eu14_4 O21_4 1_555 1_555
O16_4 C25_4 1_555 1_555
O22_4 Eu14_4 1_555 1_555
C31_4 C36_4 1_555 1_555
C35_4 C36_4 1_555 1_555
C43_4 C48_4 1_555 1_555
C47_4 C48_4 1_555 1_555
Eu8 O1_4 1_555 1_555
O11_10 Eu8 1_555 1_555
H3_10 O11_10 1_555 1_555
O12_4 Eu8 1_555 1_555
H4_4 O12_4 1_555 1_555
H5_4 O12_4 1_555 1_555
O3_4 C2_4 1_555 1_555
O4_4 C2_4 1_555 1_555
O5_4 C13_4 1_555 1_555
O6_4 C13_4 1_555 1_555
O7_4 C14_4 1_555 1_555
O8_4 C14_4 1_555 1_555
H2_4 O10_4 1_555 1_555
H6_10 O13_10 1_555 1_555
C1_4 O2_4 1_555 1_555
C2_4 C6_4 1_555 1_555
C3_4 C1_4 1_555 1_555
C4_4 C3_4 1_555 1_555
H9_4 C4_4 1_555 1_555
C5_4 C4_4 1_555 1_555
H10_4 C5_4 1_555 1_555
C6_4 C5_4 1_555 1_555
C7_4 C6_4 1_555 1_555
C8_4 C7_4 1_555 1_555
H11_4 C8_4 1_555 1_555
C9_4 C8_4 1_555 1_555
H12_4 C9_4 1_555 1_555
C10_4 C9_4 1_555 1_555
C11_4 C10_4 1_555 1_555
C12_4 C3_4 1_555 1_555
C13_4 C15_4 1_555 1_555
C14_4 C18_4 1_555 1_555
C15_4 C16_4 1_555 1_555
C16_4 H15_4 1_555 1_555
C17_4 C16_4 1_555 1_555
H16_4 C17_4 1_555 1_555
C18_4 C17_4 1_555 1_555
C19_4 C18_4 1_555 1_555
C20_4 C19_4 1_555 1_555
H17_4 C20_4 1_555 1_555
C21_4 C20_4 1_555 1_555
H18_4 C21_4 1_555 1_555
C22_4 C21_4 1_555 1_555
H19_4 C22_4 1_555 1_555
C23_4 C22_4 1_555 1_555
H20_4 C23_4 1_555 1_555
C24_4 C15_4 1_555 1_555
Eu14 O6_4 1_555 1_555
H21_4 O23_4 1_555 1_555
O26_4 Eu14 1_555 1_555
H25_4 O26_4 1_555 1_555
H26_4 O26_4 1_555 1_555
Eu10_4 O4_4 1_555 1_555
Eu12_4 O3_4 1_555 1_555
Eu15_4 O7_4 1_555 1_555
Zn1_10 O10_4 1_555 1_555
Zn1_10 O23_4 1_555 1_555
O8_4 Eu15_4 1_555 1_555
O10_4 Eu14 1_555 1_555
O13_10 Eu14 1_555 1_555
C7_4 C12_4 1_555 1_555
C11_4 C12_4 1_555 1_555
C19_4 C24_4 1_555 1_555
C23_4 C24_4 1_555 1_555
O40_2 C26_5 1_555 1_555
O43_2 C26_5 1_555 1_555
O46_2 C38_5 1_555 1_555
O49_2 C38_5 1_555 1_555
C26_5 C30_5 1_555 1_555
H28_5 C29_5 1_555 1_555
C30_5 C29_5 1_555 1_555
C31_5 C30_5 1_555 1_555
C32_5 C31_5 1_555 1_555
H29_5 C32_5 1_555 1_555
C33_5 C32_5 1_555 1_555
H30_5 C33_5 1_555 1_555
C34_5 C33_5 1_555 1_555
H31_5 C34_5 1_555 1_555
C38_5 C42_5 1_555 1_555
H34_5 C41_5 1_555 1_555
C42_5 C41_5 1_555 1_555
C43_5 C42_5 1_555 1_555
C44_5 C43_5 1_555 1_555
H35_4 C44_5 1_555 1_555
C45_4 C44_5 1_555 1_555
H36_4 C45_4 1_555 1_555
C31_5 C36_5 1_555 1_555
Eu7_2 O1_5 1_555 1_555
Eu13_4 O5_5 1_555 1_555
Zn1_11 O9_5 1_555 1_555
O1_5 C1_5 1_555 1_555
O2_5 Eu7_2 1_555 1_555
O5_5 C13_5 1_555 1_555
O6_5 C13_5 1_555 1_555
O9_5 Eu7_2 1_555 1_555
H1_5 O9_5 1_555 1_555
O10_5 Eu13_4 1_555 1_555
H2_5 O10_5 1_555 1_555
O11_11 Eu7_2 1_555 1_555
H3_11 O11_11 1_555 1_555
O12_5 Eu7_2 1_555 1_555
H4_5 O12_5 1_555 1_555
H5_5 O12_5 1_555 1_555
O13_11 Eu13_4 1_555 1_555
H6_11 O13_11 1_555 1_555
O14_5 Eu13_4 1_555 1_555
H7_5 O14_5 1_555 1_555
H8_5 O14_5 1_555 1_555
C1_5 O2_5 1_555 1_555
C3_5 C1_5 1_555 1_555
C4_5 C3_5 1_555 1_555
H9_5 C4_5 1_555 1_555
H14_5 C11_5 1_555 1_555
C13_5 C15_5 1_555 1_555
C15_5 C16_5 1_555 1_555
C16_5 H15_5 1_555 1_555
H19_5 C22_5 1_555 1_555
C23_5 C22_5 1_555 1_555
H20_5 C23_5 1_555 1_555
C24_5 C15_5 1_555 1_555
Eu10_4 O11_11 1_555 1_555
Eu14_4 O6_5 1_555 1_555
O15_5 Eu10_4 1_555 1_555
O16_5 Eu10_4 1_555 1_555
O19_5 Eu14_4 1_555 1_555
O20_5 C37_5 1_555 1_555
O23_5 Eu7_2 1_555 1_555
H21_5 O23_5 1_555 1_555
O24_5 Zn1_11 1_555 1_555
H22_5 O24_5 1_555 1_555
O25_5 Eu10_4 1_555 1_555
H23_5 O25_5 1_555 1_555
H24_5 O25_5 1_555 1_555
O26_5 Eu14_4 1_555 1_555
H25_5 O26_5 1_555 1_555
H26_5 O26_5 1_555 1_555
C25_5 O15_5 1_555 1_555
C27_5 C25_5 1_555 1_555
C28_5 C27_5 1_555 1_555
H27_5 C28_5 1_555 1_555
H32_5 C35_5 1_555 1_555
C37_5 O19_5 1_555 1_555
C39_5 C37_5 1_555 1_555
C40_5 C39_5 1_555 1_555
H33_5 C40_5 1_555 1_555
H37_5 C46_5 1_555 1_555
C47_5 C46_5 1_555 1_555
H38_5 C47_5 1_555 1_555
C48_5 C39_5 1_555 1_555
Eu12_4 O9_5 1_555 1_555
Eu15_4 O13_11 1_555 1_555
O27_5 Eu12_4 1_555 1_555
O28_5 Eu12_4 1_555 1_555
O41_2 C50_5 1_555 1_555
O44_2 C50_5 1_555 1_555
O31_5 Eu15_4 1_555 1_555
O32_5 Eu13_4 1_555 1_555
O47_2 C62_5 1_555 1_555
O50_2 C62_5 1_555 1_555
O35_5 Zn1_11 1_555 1_555
H39_5 O35_5 1_555 1_555
O36_5 Eu13_4 1_555 1_555
H40_5 O36_5 1_555 1_555
O37_5 Eu12_4 1_555 1_555
H41_5 O37_5 1_555 1_555
H42_5 O37_5 1_555 1_555
O38_5 Eu15_4 1_555 1_555
H43_5 O38_5 1_555 1_555
H44_5 O38_5 1_555 1_555
C49_5 O27_5 1_555 1_555
C50_5 C54_5 1_555 1_555
C51_5 C49_5 1_555 1_555
C52_5 C51_5 1_555 1_555
H45_5 C52_5 1_555 1_555
C53_5 C52_5 1_555 1_555
H46_5 C53_5 1_555 1_555
C54_5 C53_5 1_555 1_555
C55_5 C54_5 1_555 1_555
C56_5 C55_5 1_555 1_555
H47_5 C56_5 1_555 1_555
C57_5 C56_5 1_555 1_555
H48_5 C57_5 1_555 1_555
C58_5 C57_5 1_555 1_555
H49_5 C58_5 1_555 1_555
C59_5 C58_5 1_555 1_555
H50_5 C59_5 1_555 1_555
C60_5 C51_5 1_555 1_555
C61_5 O31_5 1_555 1_555
C62_5 C66_5 1_555 1_555
C63_5 C61_5 1_555 1_555
C64_5 C63_5 1_555 1_555
H51_5 C64_5 1_555 1_555
C65_5 C64_5 1_555 1_555
H52_5 C65_5 1_555 1_555
C66_5 C65_5 1_555 1_555
C67_5 C66_5 1_555 1_555
C68_5 C67_5 1_555 1_555
H53_4 C68_5 1_555 1_555
C69_4 C68_5 1_555 1_555
H54_4 C69_4 1_555 1_555
C70_5 C69_4 1_555 1_555
H55_5 C70_5 1_555 1_555
C71_5 C70_5 1_555 1_555
H56_5 C71_5 1_555 1_555
C72_5 C63_5 1_555 1_555
Zn1_11 O10_5 1_555 1_555
Zn1_11 O23_5 1_555 1_555
Zn1_11 O36_5 1_555 1_555
O10_5 Eu14_4 1_555 1_555
O11_11 Eu12_4 1_555 1_555
O13_11 Eu14_4 1_555 1_555
C23_5 C24_5 1_555 1_555
Eu10_4 O23_5 1_555 1_555
Eu10_4 O35_5 1_555 1_555
Eu14_4 O24_5 1_555 1_555
O16_5 C25_5 1_555 1_555
O20_5 Eu15_4 1_555 1_555
O24_5 Eu15_4 1_555 1_555
C47_5 C48_5 1_555 1_555
Eu12_4 O35_5 1_555 1_555
Eu15_4 O36_5 1_555 1_555
O28_5 C49_5 1_555 1_555
O32_5 C61_5 1_555 1_555
C55_5 C60_5 1_555 1_555
C59_5 C60_5 1_555 1_555
C67_5 C72_5 1_555 1_555
C71_5 C72_5 1_555 1_555
O39_2 C2_5 1_555 1_555
O42_2 C2_5 1_555 1_555
O45_2 C14_5 1_555 1_555
O48_2 C14_5 1_555 1_555
C2_5 C6_5 1_555 1_555
H10_5 C5_5 1_555 1_555
C6_5 C5_5 1_555 1_555
C7_5 C6_5 1_555 1_555
C8_5 C7_5 1_555 1_555
H11_5 C8_5 1_555 1_555
C9_5 C8_5 1_555 1_555
H12_5 C9_5 1_555 1_555
C10_5 C9_5 1_555 1_555
H13_5 C10_5 1_555 1_555
C14_5 C18_5 1_555 1_555
H16_5 C17_5 1_555 1_555
C18_5 C17_5 1_555 1_555
C19_5 C18_5 1_555 1_555
C20_5 C19_5 1_555 1_555
H17_5 C20_5 1_555 1_555
C21_5 C20_5 1_555 1_555
H18_5 C21_5 1_555 1_555
C7_5 C12_5 1_555 1_555
O41 C50_6 1_555 1_555
O44 C50_6 1_555 1_555
O47 C62_6 1_555 1_555
O50 C62_6 1_555 1_555
C50_6 C54_6 1_555 1_555
H46_6 C53_6 1_555 1_555
C54_6 C53_6 1_555 1_555
C55_6 C54_6 1_555 1_555
C56_6 C55_6 1_555 1_555
H47_6 C56_6 1_555 1_555
C57_6 C56_6 1_555 1_555
H48_6 C57_6 1_555 1_555
C58_6 C57_6 1_555 1_555
H49_6 C58_6 1_555 1_555
C62_6 C66_6 1_555 1_555
H52_6 C65_6 1_555 1_555
C66_6 C65_6 1_555 1_555
C67_6 C66_6 1_555 1_555
C68_6 C67_6 1_555 1_555
H53_5 C68_6 1_555 1_555
C69_5 C68_6 1_555 1_555
H54_5 C69_5 1_555 1_555
C55_6 C60_6 1_555 1_555
Eu8_2 O1_6 1_555 1_555
Eu13_3 O5_6 1_555 1_555
Zn1_12 O9_6 1_555 1_555
O1_6 C1_6 1_555 1_555
O2_6 Eu8_2 1_555 1_555
O5_6 C13_6 1_555 1_555
O6_6 C13_6 1_555 1_555
O9_6 Eu8_2 1_555 1_555
H1_6 O9_6 1_555 1_555
O10_6 Eu13_3 1_555 1_555
H2_6 O10_6 1_555 1_555
O11_12 Eu8_2 1_555 1_555
H3_12 O11_12 1_555 1_555
O12_6 Eu8_2 1_555 1_555
H4_6 O12_6 1_555 1_555
H5_6 O12_6 1_555 1_555
O13_12 Eu13_3 1_555 1_555
H6_12 O13_12 1_555 1_555
O14_6 Eu13_3 1_555 1_555
H7_6 O14_6 1_555 1_555
H8_6 O14_6 1_555 1_555
C1_6 O2_6 1_555 1_555
C3_6 C1_6 1_555 1_555
C4_6 C3_6 1_555 1_555
H9_6 C4_6 1_555 1_555
H14_6 C11_6 1_555 1_555
C13_6 C15_6 1_555 1_555
C15_6 C16_6 1_555 1_555
C16_6 H15_6 1_555 1_555
H19_6 C22_6 1_555 1_555
C23_6 C22_6 1_555 1_555
H20_6 C23_6 1_555 1_555
C24_6 C15_6 1_555 1_555
Eu10_3 O11_12 1_555 1_555
Eu14_3 O6_6 1_555 1_555
O15_6 Eu10_3 1_555 1_555
O16_6 Eu10_3 1_555 1_555
O40 C26_6 1_555 1_555
O43 C26_6 1_555 1_555
O19_6 Eu14_3 1_555 1_555
O20_6 C37_6 1_555 1_555
O46 C38_6 1_555 1_555
O49 C38_6 1_555 1_555
O23_6 Eu8_2 1_555 1_555
H21_6 O23_6 1_555 1_555
O24_6 Zn1_12 1_555 1_555
H22_6 O24_6 1_555 1_555
O25_6 Eu10_3 1_555 1_555
H23_6 O25_6 1_555 1_555
H24_6 O25_6 1_555 1_555
O26_6 Eu14_3 1_555 1_555
H25_6 O26_6 1_555 1_555
H26_6 O26_6 1_555 1_555
C25_6 O15_6 1_555 1_555
C26_6 C30_6 1_555 1_555
C27_6 C25_6 1_555 1_555
C28_6 C27_6 1_555 1_555
H27_6 C28_6 1_555 1_555
C29_6 C28_6 1_555 1_555
H28_6 C29_6 1_555 1_555
C30_6 C29_6 1_555 1_555
C31_6 C30_6 1_555 1_555
C32_6 C31_6 1_555 1_555
H29_6 C32_6 1_555 1_555
C33_6 C32_6 1_555 1_555
H30_6 C33_6 1_555 1_555
C34_6 C33_6 1_555 1_555
H31_6 C34_6 1_555 1_555
C35_6 C34_6 1_555 1_555
H32_6 C35_6 1_555 1_555
C36_6 C27_6 1_555 1_555
C37_6 O19_6 1_555 1_555
C38_6 C42_6 1_555 1_555
C39_6 C37_6 1_555 1_555
C40_6 C39_6 1_555 1_555
H33_6 C40_6 1_555 1_555
C41_6 C40_6 1_555 1_555
H34_6 C41_6 1_555 1_555
C42_6 C41_6 1_555 1_555
C43_6 C42_6 1_555 1_555
C44_6 C43_6 1_555 1_555
H35_5 C44_6 1_555 1_555
C45_5 C44_6 1_555 1_555
H36_5 C45_5 1_555 1_555
C46_6 C45_5 1_555 1_555
H37_6 C46_6 1_555 1_555
C47_6 C46_6 1_555 1_555
H38_6 C47_6 1_555 1_555
C48_6 C39_6 1_555 1_555
Eu12_3 O9_6 1_555 1_555
Eu15_3 O13_12 1_555 1_555
O27_6 Eu12_3 1_555 1_555
O28_6 Eu12_3 1_555 1_555
O31_6 Eu15_3 1_555 1_555
O32_6 Eu13_3 1_555 1_555
O35_6 Zn1_12 1_555 1_555
H39_6 O35_6 1_555 1_555
O36_6 Eu13_3 1_555 1_555
H40_6 O36_6 1_555 1_555
O37_6 Eu12_3 1_555 1_555
H41_6 O37_6 1_555 1_555
H42_6 O37_6 1_555 1_555
O38_6 Eu15_3 1_555 1_555
H43_6 O38_6 1_555 1_555
H44_6 O38_6 1_555 1_555
C49_6 O27_6 1_555 1_555
C51_6 C49_6 1_555 1_555
C52_6 C51_6 1_555 1_555
H45_6 C52_6 1_555 1_555
H50_6 C59_6 1_555 1_555
C61_6 O31_6 1_555 1_555
C63_6 C61_6 1_555 1_555
C64_6 C63_6 1_555 1_555
H51_6 C64_6 1_555 1_555
H55_6 C70_6 1_555 1_555
C71_6 C70_6 1_555 1_555
H56_6 C71_6 1_555 1_555
C72_6 C63_6 1_555 1_555
Zn1_12 O10_6 1_555 1_555
Zn1_12 O23_6 1_555 1_555
Zn1_12 O36_6 1_555 1_555
O10_6 Eu14_3 1_555 1_555
O11_12 Eu12_3 1_555 1_555
O13_12 Eu14_3 1_555 1_555
C23_6 C24_6 1_555 1_555
Eu10_3 O23_6 1_555 1_555
Eu10_3 O35_6 1_555 1_555
Eu14_3 O24_6 1_555 1_555
O16_6 C25_6 1_555 1_555
O20_6 Eu15_3 1_555 1_555
O24_6 Eu15_3 1_555 1_555
C31_6 C36_6 1_555 1_555
C35_6 C36_6 1_555 1_555
C43_6 C48_6 1_555 1_555
C47_6 C48_6 1_555 1_555
Eu12_3 O35_6 1_555 1_555
Eu15_3 O36_6 1_555 1_555
O28_6 C49_6 1_555 1_555
O32_6 C61_6 1_555 1_555
C71_6 C72_6 1_555 1_555
O39 C2_6 1_555 1_555
O42 C2_6 1_555 1_555
O45 C14_6 1_555 1_555
O48 C14_6 1_555 1_555
C2_6 C6_6 1_555 1_555
H10_6 C5_6 1_555 1_555
C6_6 C5_6 1_555 1_555
C7_6 C6_6 1_555 1_555
C8_6 C7_6 1_555 1_555
H11_6 C8_6 1_555 1_555
C9_6 C8_6 1_555 1_555
H12_6 C9_6 1_555 1_555
C10_6 C9_6 1_555 1_555
H13_6 C10_6 1_555 1_555
C14_6 C18_6 1_555 1_555
H16_6 C17_6 1_555 1_555
C18_6 C17_6 1_555 1_555
C19_6 C18_6 1_555 1_555
C20_6 C19_6 1_555 1_555
H17_6 C20_6 1_555 1_555
C21_6 C20_6 1_555 1_555
H18_6 C21_6 1_555 1_555
C7_6 C12_6 1_555 1_555
H36_6 C45_6 1_555 1_555
H54_6 C69_6 1_555 1_555

#END
