
###############################################################################
#
# This file contains modified crystal structure data generated from the
# MOF subset of the Cambridge Structural Database (CSD) v543 
# hosted by the Cambridge Crystallographic Data Centre (CCDC).
#
# This work is licensed under the Creative Commons
# Attribution-NonCommercial-ShareAlike 4.0 International License.
# To view a copy of this license, visit
# http://creativecommons.org/licenses/by-nc-sa/4.0/
# or send a letter to
# Creative Commons, PO Box 1866, Mountain View, CA 94042, USA.
#
# CIF created using the CSD Python API on 29 September 2022
# The structure has been converted into the P1 space group
# The structure has a 3D framework
# The original CSD entry SECSUR is in the orthorhombic crystal system
# The framework has been calculated to contain at least 10.0% void space
# The void calculation uses a probe of radius 1.32A, grid spacing 0.4
# H atom positions have been added when not included in the experimental data
# Generated hydrogen atom positions removed from atoms on special positions
#
###############################################################################

data_SECSUR
_chemical_formula_moiety         '(C240 H176 Cu12 N16 O36 Zn4)n'
_symmetry_cell_setting           triclinic
_symmetry_space_group_name_H-M   'P 1'
_symmetry_Int_Tables_number      1
_space_group_name_Hall           'P 1'
loop_
_symmetry_equiv_pos_site_id
_symmetry_equiv_pos_as_xyz
1 x,y,z
_cell_length_a                   29.888(3)
_cell_length_b                   45.858(4)
_cell_length_c                   13.6318(12)
_cell_angle_alpha                90
_cell_angle_beta                 90
_cell_angle_gamma                90
_cell_volume                     18683.8
loop_
_atom_site_label
_atom_site_type_symbol
_atom_site_fract_x
_atom_site_fract_y
_atom_site_fract_z
Cu8 Cu -0.0000 0.016269(7) 0.07954(3)
Cu7 Cu -0.0000 0.483731(7) 0.07954(3)
Cu5 Cu -0.0000 0.516269(7) 0.92046(3)
Cu6 Cu -0.0000 0.983731(7) 0.92046(3)
Cu1 Cu 0.5000 0.016269(7) 0.42046(3)
O3 O 0.5000 0.04416(5) 0.29461(17)
Cu8_2 Cu 1.0000 0.016269(7) 0.07954(3)
O13 O 0.54625(4) 0.03858(3) 0.48987(12)
O15 O 0.45375(4) 0.03858(3) 0.48987(12)
Zn1 Zn 0.7500 0.7500 0.2500
N1 N 0.7811(2) 0.78137(14) 0.3295(7)
C1 C 0.7500 0.82513(7) 0.2500
C2 C 0.7759(4) 0.8112(2) 0.3186(9)
C3 C 0.8045(3) 0.82580(16) 0.3866(9)
H1 H 0.8089 0.8458 0.3908
C4 C 0.8248(5) 0.80481(15) 0.4455(10)
H2 H 0.8466 0.8073 0.4933
C5 C 0.8028(5) 0.77766(15) 0.4133(12)
C6 C 0.8242(8) 0.7500 0.4442(16)
H3 H 0.8501 0.7500 0.4819
C7 C 0.7500 0.85811(6) 0.2500
C8 C 0.71336(7) 0.87314(4) 0.2844(2)
H4 H 0.6887 0.8629 0.3077
C9 C 0.71286(6) 0.90360(4) 0.28449(19)
C10 C 0.7500 0.91847(6) 0.2500
H5 H 0.7500 0.9387 0.2500
C11 C 0.67274(6) 0.91989(4) 0.31977(18)
C12 C 0.64925(7) 0.91065(4) 0.4018(2)
H6 H 0.6581 0.8938 0.4343
C13 C 0.61299(6) 0.92620(5) 0.43546(18)
H7 H 0.5978 0.9198 0.4910
C14 C 0.59902(6) 0.95097(4) 0.38807(17)
C15 C 0.62119(6) 0.96008(4) 0.30391(19)
H8 H 0.6110 0.9763 0.2697
C16 C 0.65870(7) 0.94494(4) 0.27071(19)
H9 H 0.6743 0.9515 0.2160
C17 C 0.56075(5) 0.96879(5) 0.42735(19)
O1 O 0.54650(4) 0.98944(3) 0.37493(12)
O2 O 0.54625(4) 0.96142(3) 0.51013(12)
N2 N 0.7189(2) 0.78137(14) 0.1705(7)
C18 C 0.7241(4) 0.8112(2) 0.1814(9)
C19 C 0.6955(3) 0.82580(16) 0.1134(9)
H10 H 0.6911 0.8458 0.1092
C20 C 0.6752(5) 0.80481(15) 0.0545(10)
H11 H 0.6534 0.8073 0.0067
C21 C 0.6972(5) 0.77766(15) 0.0867(12)
C22 C 0.6758(8) 0.7500 0.0558(16)
H12 H 0.6499 0.7500 0.0181
C23 C 0.78664(7) 0.87314(4) 0.2156(2)
H13 H 0.8113 0.8629 0.1923
C24 C 0.78714(6) 0.90360(4) 0.21551(19)
C25 C 0.82726(6) 0.91989(4) 0.18023(18)
C26 C 0.85075(7) 0.91065(4) 0.0982(2)
H14 H 0.8419 0.8938 0.0657
C27 C 0.88701(6) 0.92620(5) 0.06454(18)
H15 H 0.9022 0.9198 0.0090
C28 C 0.90098(6) 0.95097(4) 0.11193(17)
C29 C 0.87881(6) 0.96008(4) 0.19609(19)
H16 H 0.8890 0.9763 0.2303
C30 C 0.84130(7) 0.94494(4) 0.22929(19)
H17 H 0.8257 0.9515 0.2840
C31 C 0.93925(5) 0.96879(5) 0.07265(19)
O4 O 0.95350(4) 0.98944(3) 0.12507(12)
N3 N 0.7811(2) 0.71863(14) 0.3295(7)
C32 C 0.7500 0.67487(7) 0.2500
C33 C 0.7759(4) 0.6888(2) 0.3186(9)
C34 C 0.8045(3) 0.67420(16) 0.3866(9)
H18 H 0.8089 0.6542 0.3908
C35 C 0.8248(5) 0.69519(15) 0.4455(10)
H19 H 0.8466 0.6927 0.4933
C36 C 0.8028(5) 0.72234(15) 0.4133(12)
C37 C 0.7500 0.64189(6) 0.2500
C38 C 0.71336(7) 0.62686(4) 0.2844(2)
H20 H 0.6887 0.6371 0.3077
C39 C 0.71286(6) 0.59640(4) 0.28449(19)
C40 C 0.7500 0.58153(6) 0.2500
H21 H 0.7500 0.5613 0.2500
C41 C 0.67274(6) 0.58011(4) 0.31977(18)
C42 C 0.64925(7) 0.58935(4) 0.4018(2)
H22 H 0.6581 0.6062 0.4343
C43 C 0.61299(6) 0.57380(5) 0.43546(18)
H23 H 0.5978 0.5802 0.4910
C44 C 0.59902(6) 0.54903(4) 0.38807(17)
C45 C 0.62119(6) 0.53992(4) 0.30391(19)
H24 H 0.6110 0.5237 0.2697
C46 C 0.65870(7) 0.55506(4) 0.27071(19)
H25 H 0.6743 0.5485 0.2160
C47 C 0.56075(5) 0.53121(5) 0.42735(19)
O6 O 0.54650(4) 0.51056(3) 0.37493(12)
O7 O 0.54625(4) 0.53858(3) 0.51013(12)
N4 N 0.7189(2) 0.71863(14) 0.1705(7)
C48 C 0.7241(4) 0.6888(2) 0.1814(9)
C49 C 0.6955(3) 0.67420(16) 0.1134(9)
H26 H 0.6911 0.6542 0.1092
C50 C 0.6752(5) 0.69519(15) 0.0545(10)
H27 H 0.6534 0.6927 0.0067
C51 C 0.6972(5) 0.72234(15) 0.0867(12)
C52 C 0.78664(7) 0.62686(4) 0.2156(2)
H28 H 0.8113 0.6371 0.1923
C53 C 0.78714(6) 0.59640(4) 0.21551(19)
C54 C 0.82726(6) 0.58011(4) 0.18023(18)
C55 C 0.85075(7) 0.58935(4) 0.0982(2)
H29 H 0.8419 0.6062 0.0657
C56 C 0.88701(6) 0.57380(5) 0.06454(18)
H30 H 0.9022 0.5802 0.0090
C57 C 0.90098(6) 0.54903(4) 0.11193(17)
C58 C 0.87881(6) 0.53992(4) 0.19609(19)
H31 H 0.8890 0.5237 0.2303
C59 C 0.84130(7) 0.55506(4) 0.22929(19)
H32 H 0.8257 0.5485 0.2840
C60 C 0.93925(5) 0.53121(5) 0.07265(19)
O8 O 0.95350(4) 0.51056(3) 0.12507(12)
Cu2 Cu 0.5000 0.483731(7) 0.42046(3)
O10 O 0.5000 0.45584(5) 0.29461(17)
O11 O 0.45350(4) 0.51056(3) 0.37493(12)
O12 O 0.45350(4) 0.98944(3) 0.37493(12)
Cu3 Cu 0.5000 0.983731(7) 0.57954(3)
Cu4 Cu 0.5000 0.516269(7) 0.57954(3)
Cu7_2 Cu 1.0000 0.483731(7) 0.07954(3)
O14 O 0.45375(4) 0.46142(3) 0.48987(12)
O16 O 0.54625(4) 0.46142(3) 0.48987(12)
O5 O 0.95375(4) 0.96142(3) 0.98987(12)
O9 O 0.95375(4) 0.53858(3) 0.98987(12)
Cu5_2 Cu 1.0000 0.516269(7) 0.92046(3)
Cu6_2 Cu 1.0000 0.983731(7) 0.92046(3)
Zn1_2 Zn 0.2500 0.7500 0.2500
N1_2 N 0.2189(2) 0.71863(14) 0.3295(7)
C1_2 C 0.2500 0.67487(7) 0.2500
C2_2 C 0.2241(4) 0.6888(2) 0.3186(9)
C3_2 C 0.1955(3) 0.67420(16) 0.3866(9)
H1_2 H 0.1911 0.6542 0.3908
C4_2 C 0.1752(5) 0.69519(15) 0.4455(10)
H2_2 H 0.1534 0.6927 0.4933
C5_2 C 0.1972(5) 0.72234(15) 0.4133(12)
C6_2 C 0.1758(8) 0.7500 0.4442(16)
H3_2 H 0.1499 0.7500 0.4819
C7_2 C 0.2500 0.64189(6) 0.2500
C8_2 C 0.28664(7) 0.62686(4) 0.2844(2)
H4_2 H 0.3113 0.6371 0.3077
C9_2 C 0.28714(6) 0.59640(4) 0.28449(19)
C10_2 C 0.2500 0.58153(6) 0.2500
H5_2 H 0.2500 0.5613 0.2500
C11_2 C 0.32726(6) 0.58011(4) 0.31977(18)
C12_2 C 0.35075(7) 0.58935(4) 0.4018(2)
H6_2 H 0.3419 0.6062 0.4343
C13_2 C 0.38701(6) 0.57380(5) 0.43546(18)
H7_2 H 0.4022 0.5802 0.4910
C14_2 C 0.40098(6) 0.54903(4) 0.38807(17)
C15_2 C 0.37881(6) 0.53992(4) 0.30391(19)
H8_2 H 0.3890 0.5237 0.2697
C16_2 C 0.34130(7) 0.55506(4) 0.27071(19)
H9_2 H 0.3257 0.5485 0.2160
C17_2 C 0.43925(5) 0.53121(5) 0.42735(19)
O2_2 O 0.45375(4) 0.53858(3) 0.51013(12)
N2_2 N 0.2811(2) 0.71863(14) 0.1705(7)
C18_2 C 0.2759(4) 0.6888(2) 0.1814(9)
C19_2 C 0.3045(3) 0.67420(16) 0.1134(9)
H10_2 H 0.3089 0.6542 0.1092
C20_2 C 0.3248(5) 0.69519(15) 0.0545(10)
H11_2 H 0.3466 0.6927 0.0067
C21_2 C 0.3028(5) 0.72234(15) 0.0867(12)
C22_2 C 0.3242(8) 0.7500 0.0558(16)
H12_2 H 0.3501 0.7500 0.0181
C23_2 C 0.21336(7) 0.62686(4) 0.2156(2)
H13_2 H 0.1887 0.6371 0.1923
C24_2 C 0.21286(6) 0.59640(4) 0.21551(19)
C25_2 C 0.17274(6) 0.58011(4) 0.18023(18)
C26_2 C 0.14925(7) 0.58935(4) 0.0982(2)
H14_2 H 0.1581 0.6062 0.0657
C27_2 C 0.11299(6) 0.57380(5) 0.06454(18)
H15_2 H 0.0978 0.5802 0.0090
C28_2 C 0.09902(6) 0.54903(4) 0.11193(17)
C29_2 C 0.12119(6) 0.53992(4) 0.19609(19)
H16_2 H 0.1110 0.5237 0.2303
C30_2 C 0.15870(7) 0.55506(4) 0.22929(19)
H17_2 H 0.1743 0.5485 0.2840
C31_2 C 0.06075(5) 0.53121(5) 0.07265(19)
O4_2 O 0.04650(4) 0.51056(3) 0.12507(12)
N3_2 N 0.2189(2) 0.78137(14) 0.3295(7)
C32_2 C 0.2500 0.82513(7) 0.2500
C33_2 C 0.2241(4) 0.8112(2) 0.3186(9)
C34_2 C 0.1955(3) 0.82580(16) 0.3866(9)
H18_2 H 0.1911 0.8458 0.3908
C35_2 C 0.1752(5) 0.80481(15) 0.4455(10)
H19_2 H 0.1534 0.8073 0.4933
C36_2 C 0.1972(5) 0.77766(15) 0.4133(12)
C37_2 C 0.2500 0.85811(6) 0.2500
C38_2 C 0.28664(7) 0.87314(4) 0.2844(2)
H20_2 H 0.3113 0.8629 0.3077
C39_2 C 0.28714(6) 0.90360(4) 0.28449(19)
C40_2 C 0.2500 0.91847(6) 0.2500
H21_2 H 0.2500 0.9387 0.2500
C41_2 C 0.32726(6) 0.91989(4) 0.31977(18)
C42_2 C 0.35075(7) 0.91065(4) 0.4018(2)
H22_2 H 0.3419 0.8938 0.4343
C43_2 C 0.38701(6) 0.92620(5) 0.43546(18)
H23_2 H 0.4022 0.9198 0.4910
C44_2 C 0.40098(6) 0.95097(4) 0.38807(17)
C45_2 C 0.37881(6) 0.96008(4) 0.30391(19)
H24_2 H 0.3890 0.9763 0.2697
C46_2 C 0.34130(7) 0.94494(4) 0.27071(19)
H25_2 H 0.3257 0.9515 0.2160
C47_2 C 0.43925(5) 0.96879(5) 0.42735(19)
O7_2 O 0.45375(4) 0.96142(3) 0.51013(12)
N4_2 N 0.2811(2) 0.78137(14) 0.1705(7)
C48_2 C 0.2759(4) 0.8112(2) 0.1814(9)
C49_2 C 0.3045(3) 0.82580(16) 0.1134(9)
H26_2 H 0.3089 0.8458 0.1092
C50_2 C 0.3248(5) 0.80481(15) 0.0545(10)
H27_2 H 0.3466 0.8073 0.0067
C51_2 C 0.3028(5) 0.77766(15) 0.0867(12)
C52_2 C 0.21336(7) 0.87314(4) 0.2156(2)
H28_2 H 0.1887 0.8629 0.1923
C53_2 C 0.21286(6) 0.90360(4) 0.21551(19)
C54_2 C 0.17274(6) 0.91989(4) 0.18023(18)
C55_2 C 0.14925(7) 0.91065(4) 0.0982(2)
H29_2 H 0.1581 0.8938 0.0657
C56_2 C 0.11299(6) 0.92620(5) 0.06454(18)
H30_2 H 0.0978 0.9198 0.0090
C57_2 C 0.09902(6) 0.95097(4) 0.11193(17)
C58_2 C 0.12119(6) 0.96008(4) 0.19609(19)
H31_2 H 0.1110 0.9763 0.2303
C59_2 C 0.15870(7) 0.94494(4) 0.22929(19)
H32_2 H 0.1743 0.9515 0.2840
C60_2 C 0.06075(5) 0.96879(5) 0.07265(19)
O8_2 O 0.04650(4) 0.98944(3) 0.12507(12)
O5_2 O 0.04625(4) 0.53858(3) 0.98987(12)
O9_2 O 0.04625(4) 0.96142(3) 0.98987(12)
O5_3 O 0.95375(4) 0.03858(3) 0.01013(12)
O9_3 O 0.95375(4) 0.46142(3) 0.01013(12)
Zn1_3 Zn 0.7500 0.2500 0.7500
N1_3 N 0.7811(2) 0.21863(14) 0.6705(7)
C1_3 C 0.7500 0.17487(7) 0.7500
C2_3 C 0.7759(4) 0.1888(2) 0.6814(9)
C3_3 C 0.8045(3) 0.17420(16) 0.6134(9)
H1_3 H 0.8089 0.1542 0.6092
C4_3 C 0.8248(5) 0.19519(15) 0.5545(10)
H2_3 H 0.8466 0.1927 0.5067
C5_3 C 0.8028(5) 0.22234(15) 0.5867(12)
C6_3 C 0.8242(8) 0.2500 0.5558(16)
H3_3 H 0.8501 0.2500 0.5181
C7_3 C 0.7500 0.14189(6) 0.7500
C8_3 C 0.71336(7) 0.12686(4) 0.7156(2)
H4_3 H 0.6887 0.1371 0.6923
C9_3 C 0.71286(6) 0.09640(4) 0.71551(19)
C10_3 C 0.7500 0.08153(6) 0.7500
H5_3 H 0.7500 0.0613 0.7500
C11_3 C 0.67274(6) 0.08011(4) 0.68023(18)
C12_3 C 0.64925(7) 0.08935(4) 0.5982(2)
H6_3 H 0.6581 0.1062 0.5657
C13_3 C 0.61299(6) 0.07380(5) 0.56454(18)
H7_3 H 0.5978 0.0802 0.5090
C14_3 C 0.59902(6) 0.04903(4) 0.61193(17)
C15_3 C 0.62119(6) 0.03992(4) 0.69609(19)
H8_3 H 0.6110 0.0237 0.7303
C16_3 C 0.65870(7) 0.05506(4) 0.72929(19)
H9_3 H 0.6743 0.0485 0.7840
C17_3 C 0.56075(5) 0.03121(5) 0.57265(19)
O1_2 O 0.54650(4) 0.01056(3) 0.62507(12)
N2_3 N 0.7189(2) 0.21863(14) 0.8295(7)
C18_3 C 0.7241(4) 0.1888(2) 0.8186(9)
C19_3 C 0.6955(3) 0.17420(16) 0.8866(9)
H10_3 H 0.6911 0.1542 0.8908
C20_3 C 0.6752(5) 0.19519(15) 0.9455(10)
H11_3 H 0.6534 0.1927 0.9933
C21_3 C 0.6972(5) 0.22234(15) 0.9133(12)
C22_3 C 0.6758(8) 0.2500 0.9442(16)
H12_3 H 0.6499 0.2500 0.9819
C23_3 C 0.78664(7) 0.12686(4) 0.7844(2)
H13_3 H 0.8113 0.1371 0.8077
C24_3 C 0.78714(6) 0.09640(4) 0.78449(19)
C25_3 C 0.82726(6) 0.08011(4) 0.81977(18)
C26_3 C 0.85075(7) 0.08935(4) 0.9018(2)
H14_3 H 0.8419 0.1062 0.9343
C27_3 C 0.88701(6) 0.07380(5) 0.93546(18)
H15_3 H 0.9022 0.0802 0.9910
C28_3 C 0.90098(6) 0.04903(4) 0.88807(17)
C29_3 C 0.87881(6) 0.03992(4) 0.80391(19)
H16_3 H 0.8890 0.0237 0.7697
C30_3 C 0.84130(7) 0.05506(4) 0.77071(19)
H17_3 H 0.8257 0.0485 0.7160
C31_3 C 0.93925(5) 0.03121(5) 0.92735(19)
O4_3 O 0.95350(4) 0.01056(3) 0.87493(12)
N3_3 N 0.7811(2) 0.28137(14) 0.6705(7)
C32_3 C 0.7500 0.32513(7) 0.7500
C33_3 C 0.7759(4) 0.3112(2) 0.6814(9)
C34_3 C 0.8045(3) 0.32580(16) 0.6134(9)
H18_3 H 0.8089 0.3458 0.6092
C35_3 C 0.8248(5) 0.30481(15) 0.5545(10)
H19_3 H 0.8466 0.3073 0.5067
C36_3 C 0.8028(5) 0.27766(15) 0.5867(12)
C37_3 C 0.7500 0.35811(6) 0.7500
C38_3 C 0.71336(7) 0.37314(4) 0.7156(2)
H20_3 H 0.6887 0.3629 0.6923
C39_3 C 0.71286(6) 0.40360(4) 0.71551(19)
C40_3 C 0.7500 0.41847(6) 0.7500
H21_3 H 0.7500 0.4387 0.7500
C41_3 C 0.67274(6) 0.41989(4) 0.68023(18)
C42_3 C 0.64925(7) 0.41065(4) 0.5982(2)
H22_3 H 0.6581 0.3938 0.5657
C43_3 C 0.61299(6) 0.42620(5) 0.56454(18)
H23_3 H 0.5978 0.4198 0.5090
C44_3 C 0.59902(6) 0.45097(4) 0.61193(17)
C45_3 C 0.62119(6) 0.46008(4) 0.69609(19)
H24_3 H 0.6110 0.4763 0.7303
C46_3 C 0.65870(7) 0.44494(4) 0.72929(19)
H25_3 H 0.6743 0.4515 0.7840
C47_3 C 0.56075(5) 0.46879(5) 0.57265(19)
O6_2 O 0.54650(4) 0.48944(3) 0.62507(12)
N4_3 N 0.7189(2) 0.28137(14) 0.8295(7)
C48_3 C 0.7241(4) 0.3112(2) 0.8186(9)
C49_3 C 0.6955(3) 0.32580(16) 0.8866(9)
H26_3 H 0.6911 0.3458 0.8908
C50_3 C 0.6752(5) 0.30481(15) 0.9455(10)
H27_3 H 0.6534 0.3073 0.9933
C51_3 C 0.6972(5) 0.27766(15) 0.9133(12)
C52_3 C 0.78664(7) 0.37314(4) 0.7844(2)
H28_3 H 0.8113 0.3629 0.8077
C53_3 C 0.78714(6) 0.40360(4) 0.78449(19)
C54_3 C 0.82726(6) 0.41989(4) 0.81977(18)
C55_3 C 0.85075(7) 0.41065(4) 0.9018(2)
H29_3 H 0.8419 0.3938 0.9343
C56_3 C 0.88701(6) 0.42620(5) 0.93546(18)
H30_3 H 0.9022 0.4198 0.9910
C57_3 C 0.90098(6) 0.45097(4) 0.88807(17)
C58_3 C 0.87881(6) 0.46008(4) 0.80391(19)
H31_3 H 0.8890 0.4763 0.7697
C59_3 C 0.84130(7) 0.44494(4) 0.77071(19)
H32_3 H 0.8257 0.4515 0.7160
C60_3 C 0.93925(5) 0.46879(5) 0.92735(19)
O8_3 O 0.95350(4) 0.48944(3) 0.87493(12)
O10_2 O 0.5000 0.54416(5) 0.70539(17)
O11_2 O 0.45350(4) 0.48944(3) 0.62507(12)
O12_2 O 0.45350(4) 0.01056(3) 0.62507(12)
O3_2 O 0.5000 0.95584(5) 0.70539(17)
O5_4 O 0.04625(4) 0.46142(3) 0.01013(12)
O9_4 O 0.04625(4) 0.03858(3) 0.01013(12)
Zn1_4 Zn 0.2500 0.2500 0.7500
N1_4 N 0.2189(2) 0.28137(14) 0.6705(7)
C1_4 C 0.2500 0.32513(7) 0.7500
C2_4 C 0.2241(4) 0.3112(2) 0.6814(9)
C3_4 C 0.1955(3) 0.32580(16) 0.6134(9)
H1_4 H 0.1911 0.3458 0.6092
C4_4 C 0.1752(5) 0.30481(15) 0.5545(10)
H2_4 H 0.1534 0.3073 0.5067
C5_4 C 0.1972(5) 0.27766(15) 0.5867(12)
C6_4 C 0.1758(8) 0.2500 0.5558(16)
H3_4 H 0.1499 0.2500 0.5181
C7_4 C 0.2500 0.35811(6) 0.7500
C8_4 C 0.28664(7) 0.37314(4) 0.7156(2)
H4_4 H 0.3113 0.3629 0.6923
C9_4 C 0.28714(6) 0.40360(4) 0.71551(19)
C10_4 C 0.2500 0.41847(6) 0.7500
H5_4 H 0.2500 0.4387 0.7500
C11_4 C 0.32726(6) 0.41989(4) 0.68023(18)
C12_4 C 0.35075(7) 0.41065(4) 0.5982(2)
H6_4 H 0.3419 0.3938 0.5657
C13_4 C 0.38701(6) 0.42620(5) 0.56454(18)
H7_4 H 0.4022 0.4198 0.5090
C14_4 C 0.40098(6) 0.45097(4) 0.61193(17)
C15_4 C 0.37881(6) 0.46008(4) 0.69609(19)
H8_4 H 0.3890 0.4763 0.7303
C16_4 C 0.34130(7) 0.44494(4) 0.72929(19)
H9_4 H 0.3257 0.4515 0.7840
C17_4 C 0.43925(5) 0.46879(5) 0.57265(19)
N2_4 N 0.2811(2) 0.28137(14) 0.8295(7)
C18_4 C 0.2759(4) 0.3112(2) 0.8186(9)
C19_4 C 0.3045(3) 0.32580(16) 0.8866(9)
H10_4 H 0.3089 0.3458 0.8908
C20_4 C 0.3248(5) 0.30481(15) 0.9455(10)
H11_4 H 0.3466 0.3073 0.9933
C21_4 C 0.3028(5) 0.27766(15) 0.9133(12)
C22_4 C 0.3242(8) 0.2500 0.9442(16)
H12_4 H 0.3501 0.2500 0.9819
C23_4 C 0.21336(7) 0.37314(4) 0.7844(2)
H13_4 H 0.1887 0.3629 0.8077
C24_4 C 0.21286(6) 0.40360(4) 0.78449(19)
C25_4 C 0.17274(6) 0.41989(4) 0.81977(18)
C26_4 C 0.14925(7) 0.41065(4) 0.9018(2)
H14_4 H 0.1581 0.3938 0.9343
C27_4 C 0.11299(6) 0.42620(5) 0.93546(18)
H15_4 H 0.0978 0.4198 0.9910
C28_4 C 0.09902(6) 0.45097(4) 0.88807(17)
C29_4 C 0.12119(6) 0.46008(4) 0.80391(19)
H16_4 H 0.1110 0.4763 0.7697
C30_4 C 0.15870(7) 0.44494(4) 0.77071(19)
H17_4 H 0.1743 0.4515 0.7160
C31_4 C 0.06075(5) 0.46879(5) 0.92735(19)
O4_4 O 0.04650(4) 0.48944(3) 0.87493(12)
N3_4 N 0.2189(2) 0.21863(14) 0.6705(7)
C32_4 C 0.2500 0.17487(7) 0.7500
C33_4 C 0.2241(4) 0.1888(2) 0.6814(9)
C34_4 C 0.1955(3) 0.17420(16) 0.6134(9)
H18_4 H 0.1911 0.1542 0.6092
C35_4 C 0.1752(5) 0.19519(15) 0.5545(10)
H19_4 H 0.1534 0.1927 0.5067
C36_4 C 0.1972(5) 0.22234(15) 0.5867(12)
C37_4 C 0.2500 0.14189(6) 0.7500
C38_4 C 0.28664(7) 0.12686(4) 0.7156(2)
H20_4 H 0.3113 0.1371 0.6923
C39_4 C 0.28714(6) 0.09640(4) 0.71551(19)
C40_4 C 0.2500 0.08153(6) 0.7500
H21_4 H 0.2500 0.0613 0.7500
C41_4 C 0.32726(6) 0.08011(4) 0.68023(18)
C42_4 C 0.35075(7) 0.08935(4) 0.5982(2)
H22_4 H 0.3419 0.1062 0.5657
C43_4 C 0.38701(6) 0.07380(5) 0.56454(18)
H23_4 H 0.4022 0.0802 0.5090
C44_4 C 0.40098(6) 0.04903(4) 0.61193(17)
C45_4 C 0.37881(6) 0.03992(4) 0.69609(19)
H24_4 H 0.3890 0.0237 0.7303
C46_4 C 0.34130(7) 0.05506(4) 0.72929(19)
H25_4 H 0.3257 0.0485 0.7840
C47_4 C 0.43925(5) 0.03121(5) 0.57265(19)
N4_4 N 0.2811(2) 0.21863(14) 0.8295(7)
C48_4 C 0.2759(4) 0.1888(2) 0.8186(9)
C49_4 C 0.3045(3) 0.17420(16) 0.8866(9)
H26_4 H 0.3089 0.1542 0.8908
C50_4 C 0.3248(5) 0.19519(15) 0.9455(10)
H27_4 H 0.3466 0.1927 0.9933
C51_4 C 0.3028(5) 0.22234(15) 0.9133(12)
C52_4 C 0.21336(7) 0.12686(4) 0.7844(2)
H28_4 H 0.1887 0.1371 0.8077
C53_4 C 0.21286(6) 0.09640(4) 0.78449(19)
C54_4 C 0.17274(6) 0.08011(4) 0.81977(18)
C55_4 C 0.14925(7) 0.08935(4) 0.9018(2)
H29_4 H 0.1581 0.1062 0.9343
C56_4 C 0.11299(6) 0.07380(5) 0.93546(18)
H30_4 H 0.0978 0.0802 0.9910
C57_4 C 0.09902(6) 0.04903(4) 0.88807(17)
C58_4 C 0.12119(6) 0.03992(4) 0.80391(19)
H31_4 H 0.1110 0.0237 0.7697
C59_4 C 0.15870(7) 0.05506(4) 0.77071(19)
H32_4 H 0.1743 0.0485 0.7160
C60_4 C 0.06075(5) 0.03121(5) 0.92735(19)
O8_4 O 0.04650(4) 0.01056(3) 0.87493(12)
O3_3 O -0.0000 0.54416(5) 0.79461(17)
O10_3 O -0.0000 0.95584(5) 0.79461(17)
O3_4 O 1.0000 0.54416(5) 0.79461(17)
O10_4 O 1.0000 0.95584(5) 0.79461(17)
O10_5 O -0.0000 0.04416(5) 0.20539(17)
O3_5 O -0.0000 0.45584(5) 0.20539(17)
O10_6 O 1.0000 0.04416(5) 0.20539(17)
O3_6 O 1.0000 0.45584(5) 0.20539(17)
loop_
_geom_bond_atom_site_label_1
_geom_bond_atom_site_label_2
_geom_bond_site_symmetry_1
_geom_bond_site_symmetry_2
O3 Cu1 1_555 1_555
O13 Cu1 1_555 1_555
O15 Cu1 1_555 1_555
Zn1 N1 1_555 1_555
N1 C2 1_555 1_555
C1 C2 1_555 1_555
C2 C3 1_555 1_555
C3 H1 1_555 1_555
C4 C3 1_555 1_555
H2 C4 1_555 1_555
C5 N1 1_555 1_555
C6 C5 1_555 1_555
H3 C6 1_555 1_555
C7 C1 1_555 1_555
C8 C7 1_555 1_555
H4 C8 1_555 1_555
C9 C8 1_555 1_555
C10 C9 1_555 1_555
H5 C10 1_555 1_555
C11 C9 1_555 1_555
C12 C11 1_555 1_555
H6 C12 1_555 1_555
C13 C12 1_555 1_555
H7 C13 1_555 1_555
C14 C13 1_555 1_555
C15 C14 1_555 1_555
H8 C15 1_555 1_555
C16 C11 1_555 1_555
H9 C16 1_555 1_555
C17 C14 1_555 1_555
O1 C17 1_555 1_555
O2 C17 1_555 1_555
N2 Zn1 1_555 1_555
C18 C1 1_555 1_555
C19 C18 1_555 1_555
H10 C19 1_555 1_555
C20 C19 1_555 1_555
H11 C20 1_555 1_555
C21 N2 1_555 1_555
C22 C21 1_555 1_555
H12 C22 1_555 1_555
C23 C7 1_555 1_555
H13 C23 1_555 1_555
C24 C10 1_555 1_555
C25 C24 1_555 1_555
C26 C25 1_555 1_555
H14 C26 1_555 1_555
C27 C26 1_555 1_555
H15 C27 1_555 1_555
C28 C27 1_555 1_555
C29 C28 1_555 1_555
H16 C29 1_555 1_555
C30 C25 1_555 1_555
H17 C30 1_555 1_555
C31 C28 1_555 1_555
O4 C31 1_555 1_555
N3 Zn1 1_555 1_555
C32 C33 1_555 1_555
C33 N3 1_555 1_555
C34 C33 1_555 1_555
H18 C34 1_555 1_555
C35 C34 1_555 1_555
H19 C35 1_555 1_555
C36 C6 1_555 1_555
C37 C32 1_555 1_555
C38 C37 1_555 1_555
H20 C38 1_555 1_555
C39 C38 1_555 1_555
C40 C39 1_555 1_555
H21 C40 1_555 1_555
C41 C39 1_555 1_555
C42 C41 1_555 1_555
H22 C42 1_555 1_555
C43 C42 1_555 1_555
H23 C43 1_555 1_555
C44 C43 1_555 1_555
C45 C44 1_555 1_555
H24 C45 1_555 1_555
C46 C41 1_555 1_555
H25 C46 1_555 1_555
C47 C44 1_555 1_555
O6 C47 1_555 1_555
O7 C47 1_555 1_555
N4 Zn1 1_555 1_555
C48 C32 1_555 1_555
C49 C48 1_555 1_555
H26 C49 1_555 1_555
C50 C49 1_555 1_555
H27 C50 1_555 1_555
C51 C22 1_555 1_555
C52 C37 1_555 1_555
H28 C52 1_555 1_555
C53 C40 1_555 1_555
C54 C53 1_555 1_555
C55 C54 1_555 1_555
H29 C55 1_555 1_555
C56 C55 1_555 1_555
H30 C56 1_555 1_555
C57 C56 1_555 1_555
C58 C57 1_555 1_555
H31 C58 1_555 1_555
C59 C54 1_555 1_555
H32 C59 1_555 1_555
C60 C57 1_555 1_555
O8 C60 1_555 1_555
Cu2 O6 1_555 1_555
O10 Cu2 1_555 1_555
O11 Cu2 1_555 1_555
Cu4 O7 1_555 1_555
Cu7_2 O8 1_555 1_555
O14 Cu2 1_555 1_555
O16 Cu2 1_555 1_555
C4 C5 1_555 1_555
C15 C16 1_555 1_555
O2 Cu3 1_555 1_555
N2 C18 1_555 1_555
C20 C21 1_555 1_555
C23 C24 1_555 1_555
C29 C30 1_555 1_555
N3 C36 1_555 1_555
C35 C36 1_555 1_555
C45 C46 1_555 1_555
N4 C48 1_555 1_555
N4 C51 1_555 1_555
C50 C51 1_555 1_555
C52 C53 1_555 1_555
C58 C59 1_555 1_555
Cu2 Cu4 1_555 1_555
Cu5_2 O9 1_555 1_555
Cu6_2 O5 1_555 1_555
Zn1_2 N1_2 1_555 1_555
N1_2 C2_2 1_555 1_555
C1_2 C2_2 1_555 1_555
C2_2 C3_2 1_555 1_555
C3_2 H1_2 1_555 1_555
C4_2 C3_2 1_555 1_555
H2_2 C4_2 1_555 1_555
C5_2 N1_2 1_555 1_555
C6_2 C5_2 1_555 1_555
H3_2 C6_2 1_555 1_555
C7_2 C1_2 1_555 1_555
C8_2 C7_2 1_555 1_555
H4_2 C8_2 1_555 1_555
C9_2 C8_2 1_555 1_555
C10_2 C9_2 1_555 1_555
H5_2 C10_2 1_555 1_555
C11_2 C9_2 1_555 1_555
C12_2 C11_2 1_555 1_555
H6_2 C12_2 1_555 1_555
C13_2 C12_2 1_555 1_555
H7_2 C13_2 1_555 1_555
C14_2 C13_2 1_555 1_555
C15_2 C14_2 1_555 1_555
H8_2 C15_2 1_555 1_555
C16_2 C11_2 1_555 1_555
H9_2 C16_2 1_555 1_555
C17_2 C14_2 1_555 1_555
O11 C17_2 1_555 1_555
O2_2 C17_2 1_555 1_555
N2_2 Zn1_2 1_555 1_555
C18_2 C1_2 1_555 1_555
C19_2 C18_2 1_555 1_555
H10_2 C19_2 1_555 1_555
C20_2 C19_2 1_555 1_555
H11_2 C20_2 1_555 1_555
C21_2 N2_2 1_555 1_555
C22_2 C21_2 1_555 1_555
H12_2 C22_2 1_555 1_555
C23_2 C7_2 1_555 1_555
H13_2 C23_2 1_555 1_555
C24_2 C10_2 1_555 1_555
C25_2 C24_2 1_555 1_555
C26_2 C25_2 1_555 1_555
H14_2 C26_2 1_555 1_555
C27_2 C26_2 1_555 1_555
H15_2 C27_2 1_555 1_555
C28_2 C27_2 1_555 1_555
C29_2 C28_2 1_555 1_555
H16_2 C29_2 1_555 1_555
C30_2 C25_2 1_555 1_555
H17_2 C30_2 1_555 1_555
C31_2 C28_2 1_555 1_555
O4_2 C31_2 1_555 1_555
N3_2 Zn1_2 1_555 1_555
C32_2 C33_2 1_555 1_555
C33_2 N3_2 1_555 1_555
C34_2 C33_2 1_555 1_555
H18_2 C34_2 1_555 1_555
C35_2 C34_2 1_555 1_555
H19_2 C35_2 1_555 1_555
C36_2 C6_2 1_555 1_555
C37_2 C32_2 1_555 1_555
C38_2 C37_2 1_555 1_555
H20_2 C38_2 1_555 1_555
C39_2 C38_2 1_555 1_555
C40_2 C39_2 1_555 1_555
H21_2 C40_2 1_555 1_555
C41_2 C39_2 1_555 1_555
C42_2 C41_2 1_555 1_555
H22_2 C42_2 1_555 1_555
C43_2 C42_2 1_555 1_555
H23_2 C43_2 1_555 1_555
C44_2 C43_2 1_555 1_555
C45_2 C44_2 1_555 1_555
H24_2 C45_2 1_555 1_555
C46_2 C41_2 1_555 1_555
H25_2 C46_2 1_555 1_555
C47_2 C44_2 1_555 1_555
O12 C47_2 1_555 1_555
O7_2 C47_2 1_555 1_555
N4_2 Zn1_2 1_555 1_555
C48_2 C32_2 1_555 1_555
C49_2 C48_2 1_555 1_555
H26_2 C49_2 1_555 1_555
C50_2 C49_2 1_555 1_555
H27_2 C50_2 1_555 1_555
C51_2 C22_2 1_555 1_555
C52_2 C37_2 1_555 1_555
H28_2 C52_2 1_555 1_555
C53_2 C40_2 1_555 1_555
C54_2 C53_2 1_555 1_555
C55_2 C54_2 1_555 1_555
H29_2 C55_2 1_555 1_555
C56_2 C55_2 1_555 1_555
H30_2 C56_2 1_555 1_555
C57_2 C56_2 1_555 1_555
C58_2 C57_2 1_555 1_555
H31_2 C58_2 1_555 1_555
C59_2 C54_2 1_555 1_555
H32_2 C59_2 1_555 1_555
C60_2 C57_2 1_555 1_555
O8_2 C60_2 1_555 1_555
Cu3 O7_2 1_555 1_555
Cu7 O4_2 1_555 1_555
C4_2 C5_2 1_555 1_555
C15_2 C16_2 1_555 1_555
O2_2 Cu4 1_555 1_555
N2_2 C18_2 1_555 1_555
C20_2 C21_2 1_555 1_555
C23_2 C24_2 1_555 1_555
C29_2 C30_2 1_555 1_555
N3_2 C36_2 1_555 1_555
C35_2 C36_2 1_555 1_555
C45_2 C46_2 1_555 1_555
N4_2 C48_2 1_555 1_555
N4_2 C51_2 1_555 1_555
C50_2 C51_2 1_555 1_555
C52_2 C53_2 1_555 1_555
C58_2 C59_2 1_555 1_555
Cu6 O9_2 1_555 1_555
Cu5 O5_2 1_555 1_555
Cu7_2 O9_3 1_555 1_555
Cu8_2 O5_3 1_555 1_555
Zn1_3 N1_3 1_555 1_555
N1_3 C2_3 1_555 1_555
C1_3 C2_3 1_555 1_555
C2_3 C3_3 1_555 1_555
C3_3 H1_3 1_555 1_555
C4_3 C3_3 1_555 1_555
H2_3 C4_3 1_555 1_555
C5_3 N1_3 1_555 1_555
C6_3 C5_3 1_555 1_555
H3_3 C6_3 1_555 1_555
C7_3 C1_3 1_555 1_555
C8_3 C7_3 1_555 1_555
H4_3 C8_3 1_555 1_555
C9_3 C8_3 1_555 1_555
C10_3 C9_3 1_555 1_555
H5_3 C10_3 1_555 1_555
C11_3 C9_3 1_555 1_555
C12_3 C11_3 1_555 1_555
H6_3 C12_3 1_555 1_555
C13_3 C12_3 1_555 1_555
H7_3 C13_3 1_555 1_555
C14_3 C13_3 1_555 1_555
C15_3 C14_3 1_555 1_555
H8_3 C15_3 1_555 1_555
C16_3 C11_3 1_555 1_555
H9_3 C16_3 1_555 1_555
C17_3 C14_3 1_555 1_555
O1_2 C17_3 1_555 1_555
O13 C17_3 1_555 1_555
N2_3 Zn1_3 1_555 1_555
C18_3 C1_3 1_555 1_555
C19_3 C18_3 1_555 1_555
H10_3 C19_3 1_555 1_555
C20_3 C19_3 1_555 1_555
H11_3 C20_3 1_555 1_555
C21_3 N2_3 1_555 1_555
C22_3 C21_3 1_555 1_555
H12_3 C22_3 1_555 1_555
C23_3 C7_3 1_555 1_555
H13_3 C23_3 1_555 1_555
C24_3 C10_3 1_555 1_555
C25_3 C24_3 1_555 1_555
C26_3 C25_3 1_555 1_555
H14_3 C26_3 1_555 1_555
C27_3 C26_3 1_555 1_555
H15_3 C27_3 1_555 1_555
C28_3 C27_3 1_555 1_555
C29_3 C28_3 1_555 1_555
H16_3 C29_3 1_555 1_555
C30_3 C25_3 1_555 1_555
H17_3 C30_3 1_555 1_555
C31_3 C28_3 1_555 1_555
O4_3 C31_3 1_555 1_555
N3_3 Zn1_3 1_555 1_555
C32_3 C33_3 1_555 1_555
C33_3 N3_3 1_555 1_555
C34_3 C33_3 1_555 1_555
H18_3 C34_3 1_555 1_555
C35_3 C34_3 1_555 1_555
H19_3 C35_3 1_555 1_555
C36_3 C6_3 1_555 1_555
C37_3 C32_3 1_555 1_555
C38_3 C37_3 1_555 1_555
H20_3 C38_3 1_555 1_555
C39_3 C38_3 1_555 1_555
C40_3 C39_3 1_555 1_555
H21_3 C40_3 1_555 1_555
C41_3 C39_3 1_555 1_555
C42_3 C41_3 1_555 1_555
H22_3 C42_3 1_555 1_555
C43_3 C42_3 1_555 1_555
H23_3 C43_3 1_555 1_555
C44_3 C43_3 1_555 1_555
C45_3 C44_3 1_555 1_555
H24_3 C45_3 1_555 1_555
C46_3 C41_3 1_555 1_555
H25_3 C46_3 1_555 1_555
C47_3 C44_3 1_555 1_555
O6_2 C47_3 1_555 1_555
O16 C47_3 1_555 1_555
N4_3 Zn1_3 1_555 1_555
C48_3 C32_3 1_555 1_555
C49_3 C48_3 1_555 1_555
H26_3 C49_3 1_555 1_555
C50_3 C49_3 1_555 1_555
H27_3 C50_3 1_555 1_555
C51_3 C22_3 1_555 1_555
C52_3 C37_3 1_555 1_555
H28_3 C52_3 1_555 1_555
C53_3 C40_3 1_555 1_555
C54_3 C53_3 1_555 1_555
C55_3 C54_3 1_555 1_555
H29_3 C55_3 1_555 1_555
C56_3 C55_3 1_555 1_555
H30_3 C56_3 1_555 1_555
C57_3 C56_3 1_555 1_555
C58_3 C57_3 1_555 1_555
H31_3 C58_3 1_555 1_555
C59_3 C54_3 1_555 1_555
H32_3 C59_3 1_555 1_555
C60_3 C57_3 1_555 1_555
O8_3 C60_3 1_555 1_555
Cu4 O6_2 1_555 1_555
O10_2 Cu4 1_555 1_555
O11_2 Cu4 1_555 1_555
Cu5_2 O8_3 1_555 1_555
C4_3 C5_3 1_555 1_555
C15_3 C16_3 1_555 1_555
N2_3 C18_3 1_555 1_555
C20_3 C21_3 1_555 1_555
C23_3 C24_3 1_555 1_555
C29_3 C30_3 1_555 1_555
N3_3 C36_3 1_555 1_555
C35_3 C36_3 1_555 1_555
C45_3 C46_3 1_555 1_555
N4_3 C48_3 1_555 1_555
N4_3 C51_3 1_555 1_555
C50_3 C51_3 1_555 1_555
C52_3 C53_3 1_555 1_555
C58_3 C59_3 1_555 1_555
O3_2 Cu3 1_555 1_555
Cu8 O9_4 1_555 1_555
Cu7 O5_4 1_555 1_555
Zn1_4 N1_4 1_555 1_555
N1_4 C2_4 1_555 1_555
C1_4 C2_4 1_555 1_555
C2_4 C3_4 1_555 1_555
C3_4 H1_4 1_555 1_555
C4_4 C3_4 1_555 1_555
H2_4 C4_4 1_555 1_555
C5_4 N1_4 1_555 1_555
C6_4 C5_4 1_555 1_555
H3_4 C6_4 1_555 1_555
C7_4 C1_4 1_555 1_555
C8_4 C7_4 1_555 1_555
H4_4 C8_4 1_555 1_555
C9_4 C8_4 1_555 1_555
C10_4 C9_4 1_555 1_555
H5_4 C10_4 1_555 1_555
C11_4 C9_4 1_555 1_555
C12_4 C11_4 1_555 1_555
H6_4 C12_4 1_555 1_555
C13_4 C12_4 1_555 1_555
H7_4 C13_4 1_555 1_555
C14_4 C13_4 1_555 1_555
C15_4 C14_4 1_555 1_555
H8_4 C15_4 1_555 1_555
C16_4 C11_4 1_555 1_555
H9_4 C16_4 1_555 1_555
C17_4 C14_4 1_555 1_555
O11_2 C17_4 1_555 1_555
O14 C17_4 1_555 1_555
N2_4 Zn1_4 1_555 1_555
C18_4 C1_4 1_555 1_555
C19_4 C18_4 1_555 1_555
H10_4 C19_4 1_555 1_555
C20_4 C19_4 1_555 1_555
H11_4 C20_4 1_555 1_555
C21_4 N2_4 1_555 1_555
C22_4 C21_4 1_555 1_555
H12_4 C22_4 1_555 1_555
C23_4 C7_4 1_555 1_555
H13_4 C23_4 1_555 1_555
C24_4 C10_4 1_555 1_555
C25_4 C24_4 1_555 1_555
C26_4 C25_4 1_555 1_555
H14_4 C26_4 1_555 1_555
C27_4 C26_4 1_555 1_555
H15_4 C27_4 1_555 1_555
C28_4 C27_4 1_555 1_555
C29_4 C28_4 1_555 1_555
H16_4 C29_4 1_555 1_555
C30_4 C25_4 1_555 1_555
H17_4 C30_4 1_555 1_555
C31_4 C28_4 1_555 1_555
O4_4 C31_4 1_555 1_555
N3_4 Zn1_4 1_555 1_555
C32_4 C33_4 1_555 1_555
C33_4 N3_4 1_555 1_555
C34_4 C33_4 1_555 1_555
H18_4 C34_4 1_555 1_555
C35_4 C34_4 1_555 1_555
H19_4 C35_4 1_555 1_555
C36_4 C6_4 1_555 1_555
C37_4 C32_4 1_555 1_555
C38_4 C37_4 1_555 1_555
H20_4 C38_4 1_555 1_555
C39_4 C38_4 1_555 1_555
C40_4 C39_4 1_555 1_555
H21_4 C40_4 1_555 1_555
C41_4 C39_4 1_555 1_555
C42_4 C41_4 1_555 1_555
H22_4 C42_4 1_555 1_555
C43_4 C42_4 1_555 1_555
H23_4 C43_4 1_555 1_555
C44_4 C43_4 1_555 1_555
C45_4 C44_4 1_555 1_555
H24_4 C45_4 1_555 1_555
C46_4 C41_4 1_555 1_555
H25_4 C46_4 1_555 1_555
C47_4 C44_4 1_555 1_555
O12_2 C47_4 1_555 1_555
O15 C47_4 1_555 1_555
N4_4 Zn1_4 1_555 1_555
C48_4 C32_4 1_555 1_555
C49_4 C48_4 1_555 1_555
H26_4 C49_4 1_555 1_555
C50_4 C49_4 1_555 1_555
H27_4 C50_4 1_555 1_555
C51_4 C22_4 1_555 1_555
C52_4 C37_4 1_555 1_555
H28_4 C52_4 1_555 1_555
C53_4 C40_4 1_555 1_555
C54_4 C53_4 1_555 1_555
C55_4 C54_4 1_555 1_555
H29_4 C55_4 1_555 1_555
C56_4 C55_4 1_555 1_555
H30_4 C56_4 1_555 1_555
C57_4 C56_4 1_555 1_555
C58_4 C57_4 1_555 1_555
H31_4 C58_4 1_555 1_555
C59_4 C54_4 1_555 1_555
H32_4 C59_4 1_555 1_555
C60_4 C57_4 1_555 1_555
O8_4 C60_4 1_555 1_555
Cu5 O4_4 1_555 1_555
C4_4 C5_4 1_555 1_555
C15_4 C16_4 1_555 1_555
N2_4 C18_4 1_555 1_555
C20_4 C21_4 1_555 1_555
C23_4 C24_4 1_555 1_555
C29_4 C30_4 1_555 1_555
N3_4 C36_4 1_555 1_555
C35_4 C36_4 1_555 1_555
C45_4 C46_4 1_555 1_555
N4_4 C48_4 1_555 1_555
N4_4 C51_4 1_555 1_555
C50_4 C51_4 1_555 1_555
C52_4 C53_4 1_555 1_555
C58_4 C59_4 1_555 1_555
O3_3 Cu5 1_555 1_555
O10_3 Cu6 1_555 1_555
O3_4 Cu5_2 1_555 1_555
O10_4 Cu6_2 1_555 1_555
O10_5 Cu8 1_555 1_555
O3_5 Cu7 1_555 1_555
O10_6 Cu8_2 1_555 1_555
O3_6 Cu7_2 1_555 1_555

#END
