
###############################################################################
#
# This file contains modified crystal structure data generated from the
# MOF subset of the Cambridge Structural Database (CSD) v543 
# hosted by the Cambridge Crystallographic Data Centre (CCDC).
#
# This work is licensed under the Creative Commons
# Attribution-NonCommercial-ShareAlike 4.0 International License.
# To view a copy of this license, visit
# http://creativecommons.org/licenses/by-nc-sa/4.0/
# or send a letter to
# Creative Commons, PO Box 1866, Mountain View, CA 94042, USA.
#
# CIF created using the CSD Python API on 29 September 2022
# The structure has been converted into the P1 space group
# The structure has a 3D framework
# The original CSD entry SECXAD is in the orthorhombic crystal system
# The framework has been calculated to contain at least 10.0% void space
# The void calculation uses a probe of radius 1.32A, grid spacing 0.4
# Generated hydrogen atom positions removed from atoms on special positions
#
###############################################################################

data_SECXAD
_chemical_formula_moiety         '(C116 H100 Cu11 F52 N32 O22 Ti12)n'
_symmetry_cell_setting           triclinic
_symmetry_space_group_name_H-M   'P 1'
_symmetry_Int_Tables_number      1
_space_group_name_Hall           'P 1'
loop_
_symmetry_equiv_pos_site_id
_symmetry_equiv_pos_as_xyz
1 x,y,z
_cell_length_a                   28.1998(17)
_cell_length_b                   16.7324(10)
_cell_length_c                   15.6480(10)
_cell_angle_alpha                90
_cell_angle_beta                 90
_cell_angle_gamma                90
_cell_volume                     7383.51
loop_
_atom_site_label
_atom_site_type_symbol
_atom_site_fract_x
_atom_site_fract_y
_atom_site_fract_z
Ti1 Ti 0.28470(3) 0.000000 0.000000
Cu2 Cu 0.250000 0.250000 0.000000
F1 F 0.21781(9) 0.000000 0.000000
F2 F 0.34915(13) 0.000000 0.000000
F4 F 0.28245(8) 0.11147(14) 0.000000
C1 C 0.06214(11) 0.000000 0.3846(2)
N1 N 0.20245(8) 0.22216(13) 0.08997(13)
N2 N 0.16214(9) 0.14363(13) 0.17526(15)
C2 C 0.11409(9) 0.07196(15) 0.28109(16)
H3 H 0.103707 0.119973 0.304455
C3 C 0.09797(12) 0.000000 0.3128(2)
C4 C 0.16111(15) 0.000000 0.1795(3)
H4 H 0.181578 -0.000001 0.132866
C5 C 0.14579(10) 0.07140(15) 0.21433(18)
C6 C 0.19744(10) 0.15118(15) 0.12046(16)
H5 H 0.217033 0.108827 0.105169
C7 C 0.16666(17) 0.2636(2) 0.1233(3)
H6 H 0.160936 0.317438 0.112853
C8 C 0.14005(19) 0.2172(2) 0.1737(3)
H7 H 0.112321 0.231642 0.201922
O3 O 0.04866(6) 0.06700(10) 0.41117(11)
F5 F 0.28175(10) 0.000000 0.11816(14)
Cu3 Cu -0.000000 0.07927(3) 0.500000
F7 F 0.21755(8) 0.38853(14) 0.000000
N9 N 0.29755(8) 0.27784(13) 0.08997(13)
Ti1_2 Ti 0.28470(3) 0.000000 1.000000
Cu2_2 Cu 0.250000 0.250000 1.000000
F1_2 F 0.21781(9) 0.000000 1.000000
F2_2 F 0.34915(13) 0.000000 1.000000
F3 F 0.28175(10) 0.000000 0.88184(14)
F4_2 F 0.28245(8) 0.11147(14) 1.000000
F7_2 F 0.21755(8) 0.38853(14) 1.000000
N10 N 0.20245(8) 0.22216(13) 0.91003(13)
N11 N 0.29755(8) 0.27784(13) 0.91003(13)
Cu1 Cu 0.000000 0.92073(3) 0.500000
Ti1_3 Ti 0.28470(3) 1.000000 0.000000
F1_3 F 0.21781(9) 1.000000 0.000000
F2_3 F 0.34915(13) 1.000000 0.000000
O1 O 0.04866(6) 0.93300(10) 0.41117(11)
O2 O -0.000000 0.7935(3) 0.500000
C1_2 C 0.06214(11) 1.000000 0.3846(2)
C3_2 C 0.09797(12) 1.000000 0.3128(2)
C4_2 C 0.16111(15) 1.000000 0.1795(3)
H4_2 H 0.181578 0.999999 0.132866
N3 N 0.20245(8) 0.77784(13) 0.08997(13)
N4 N 0.16214(9) 0.85637(13) 0.17526(15)
C9 C 0.11409(9) 0.92804(15) 0.28109(16)
H8 H 0.103707 0.880027 0.304455
C10 C 0.14579(10) 0.92860(15) 0.21433(18)
C11 C 0.19744(10) 0.84882(15) 0.12046(16)
H9 H 0.217033 0.891173 0.105169
C12 C 0.16666(17) 0.7364(2) 0.1233(3)
H10 H 0.160936 0.682562 0.112853
C13 C 0.14005(19) 0.7828(2) 0.1737(3)
H11 H 0.112321 0.768358 0.201922
F5_2 F 0.28175(10) 1.000000 0.11816(14)
F6 F 0.28245(8) 0.88853(14) 0.000000
Cu5 Cu 0.250000 0.750000 0.000000
O7 O 0.04866(6) 0.93300(10) 0.58883(11)
Ti1_4 Ti 0.28470(3) 1.000000 1.000000
F1_4 F 0.21781(9) 1.000000 1.000000
F2_4 F 0.34915(13) 1.000000 1.000000
F3_2 F 0.28175(10) 1.000000 0.88184(14)
F6_2 F 0.28245(8) 0.88853(14) 1.000000
Cu5_2 Cu 0.250000 0.750000 1.000000
O4 O 0.95134(6) 0.06700(10) 0.41117(11)
C14 C 0.93786(11) 0.000000 0.3846(2)
C16 C 0.90203(12) 0.000000 0.3128(2)
C17 C 0.83889(15) 0.000000 0.1795(3)
H13 H 0.818422 0.000001 0.132866
N7 N 0.79755(8) 0.22216(13) 0.08997(13)
N8 N 0.83786(9) 0.14363(13) 0.17526(15)
C22 C 0.88591(9) 0.07196(15) 0.28109(16)
H17 H 0.896293 0.119973 0.304455
C23 C 0.85421(10) 0.07140(15) 0.21433(18)
C24 C 0.80256(10) 0.15118(15) 0.12046(16)
H18 H 0.782967 0.108827 0.105169
C25 C 0.83334(17) 0.2636(2) 0.1233(3)
H19 H 0.839064 0.317438 0.112853
C26 C 0.85995(19) 0.2172(2) 0.1737(3)
H20 H 0.887679 0.231642 0.201922
Cu3_2 Cu 1.000000 0.07927(3) 0.500000
Cu6 Cu 0.750000 0.250000 0.000000
Cu6_2 Cu 0.750000 0.250000 1.000000
Cu1_2 Cu 1.000000 0.92073(3) 0.500000
O2_2 O 1.000000 0.7935(3) 0.500000
C14_2 C 0.93786(11) 1.000000 0.3846(2)
N5 N 0.79755(8) 0.77784(13) 0.08997(13)
N6 N 0.83786(9) 0.85637(13) 0.17526(15)
C15 C 0.88591(9) 0.92804(15) 0.28109(16)
H12 H 0.896293 0.880027 0.304455
C16_2 C 0.90203(12) 1.000000 0.3128(2)
C17_2 C 0.83889(15) 1.000000 0.1795(3)
H13_2 H 0.818422 1.000001 0.132866
C18 C 0.85421(10) 0.92860(15) 0.21433(18)
C19 C 0.80256(10) 0.84882(15) 0.12046(16)
H14 H 0.782967 0.891173 0.105169
C20 C 0.83334(17) 0.7364(2) 0.1233(3)
H15 H 0.839064 0.682562 0.112853
C21 C 0.85995(19) 0.7828(2) 0.1737(3)
H16 H 0.887679 0.768358 0.201922
O5 O 0.95134(6) 0.93300(10) 0.41117(11)
Cu4 Cu 0.750000 0.750000 0.000000
O6 O 0.95134(6) 0.93300(10) 0.58883(11)
Cu4_2 Cu 0.750000 0.750000 1.000000
O2_3 O 0.000000 0.2065(3) 0.500000
O6_2 O 0.04866(6) 0.06700(10) 0.58883(11)
Ti1_5 Ti 0.71530(3) 0.000000 0.000000
F1_5 F 0.78219(9) 0.000000 0.000000
F2_5 F 0.65085(13) 0.000000 0.000000
O2_4 O 1.000000 0.2065(3) 0.500000
F5_3 F 0.71825(10) 0.000000 0.11816(14)
F6_3 F 0.71755(8) 0.11147(14) 0.000000
O7_2 O 0.95134(6) 0.06700(10) 0.58883(11)
Ti1_6 Ti 0.71530(3) 0.000000 1.000000
F1_6 F 0.78219(9) 0.000000 1.000000
F2_6 F 0.65085(13) 0.000000 1.000000
F3_3 F 0.71825(10) 0.000000 0.88184(14)
F6_4 F 0.71755(8) 0.11147(14) 1.000000
Ti1_7 Ti 0.71530(3) 1.000000 0.000000
F1_7 F 0.78219(9) 1.000000 0.000000
F2_7 F 0.65085(13) 1.000000 0.000000
F4_3 F 0.71755(8) 0.88853(14) 0.000000
F5_4 F 0.71825(10) 1.000000 0.11816(14)
F7_3 F 0.78245(8) 0.61147(14) 0.000000
N9_2 N 0.70245(8) 0.72216(13) 0.08997(13)
Ti1_8 Ti 0.71530(3) 1.000000 1.000000
F1_8 F 0.78219(9) 1.000000 1.000000
F2_8 F 0.65085(13) 1.000000 1.000000
F3_4 F 0.71825(10) 1.000000 0.88184(14)
F4_4 F 0.71755(8) 0.88853(14) 1.000000
F7_4 F 0.78245(8) 0.61147(14) 1.000000
N10_2 N 0.79755(8) 0.77784(13) 0.91003(13)
N11_2 N 0.70245(8) 0.72216(13) 0.91003(13)
C1_3 C 0.06214(11) 0.000000 0.6154(2)
C3_3 C 0.09797(12) 0.000000 0.6872(2)
C4_3 C 0.16111(15) 0.000000 0.8205(3)
H4_3 H 0.181578 0.000001 0.867134
N4_2 N 0.16214(9) 0.14363(13) 0.82474(15)
C9_2 C 0.11409(9) 0.07196(15) 0.71891(16)
H8_2 H 0.103707 0.119973 0.695545
C10_2 C 0.14579(10) 0.07140(15) 0.78567(18)
C11_2 C 0.19744(10) 0.15118(15) 0.87954(16)
H9_2 H 0.217033 0.108827 0.894831
C12_2 C 0.16666(17) 0.2636(2) 0.8767(3)
H10_2 H 0.160936 0.317438 0.887147
C13_2 C 0.14005(19) 0.2172(2) 0.8263(3)
H11_2 H 0.112321 0.231642 0.798078
F7_5 F 0.21755(8) 0.61147(14) 0.000000
N11_3 N 0.29755(8) 0.72216(13) 0.08997(13)
C1_4 C 0.06214(11) 1.000000 0.6154(2)
N1_2 N 0.20245(8) 0.77784(13) 0.91003(13)
N2_2 N 0.16214(9) 0.85637(13) 0.82474(15)
C2_2 C 0.11409(9) 0.92804(15) 0.71891(16)
H3_2 H 0.103707 0.880027 0.695545
C3_4 C 0.09797(12) 1.000000 0.6872(2)
C4_4 C 0.16111(15) 1.000000 0.8205(3)
H4_4 H 0.181578 1.000001 0.867134
C5_2 C 0.14579(10) 0.92860(15) 0.78567(18)
C6_2 C 0.19744(10) 0.84882(15) 0.87954(16)
H5_2 H 0.217033 0.891173 0.894831
C7_2 C 0.16666(17) 0.7364(2) 0.8767(3)
H6_2 H 0.160936 0.682562 0.887147
C8_2 C 0.14005(19) 0.7828(2) 0.8263(3)
H7_2 H 0.112321 0.768358 0.798078
F7_6 F 0.21755(8) 0.61147(14) 1.000000
N9_3 N 0.29755(8) 0.72216(13) 0.91003(13)
C14_3 C 0.93786(11) 0.000000 0.6154(2)
N5_2 N 0.79755(8) 0.22216(13) 0.91003(13)
N6_2 N 0.83786(9) 0.14363(13) 0.82474(15)
C15_2 C 0.88591(9) 0.07196(15) 0.71891(16)
H12_2 H 0.896293 0.119973 0.695545
C16_3 C 0.90203(12) 0.000000 0.6872(2)
C17_3 C 0.83889(15) 0.000000 0.8205(3)
H13_3 H 0.818422 -0.000001 0.867134
C18_2 C 0.85421(10) 0.07140(15) 0.78567(18)
C19_2 C 0.80256(10) 0.15118(15) 0.87954(16)
H14_2 H 0.782967 0.108827 0.894831
C20_2 C 0.83334(17) 0.2636(2) 0.8767(3)
H15_2 H 0.839064 0.317438 0.887147
C21_2 C 0.85995(19) 0.2172(2) 0.8263(3)
H16_2 H 0.887679 0.231642 0.798078
C14_4 C 0.93786(11) 1.000000 0.6154(2)
C16_4 C 0.90203(12) 1.000000 0.6872(2)
C17_4 C 0.83889(15) 1.000000 0.8205(3)
H13_4 H 0.818422 0.999999 0.867134
N8_2 N 0.83786(9) 0.85637(13) 0.82474(15)
C22_2 C 0.88591(9) 0.92804(15) 0.71891(16)
H17_2 H 0.896293 0.880027 0.695545
C23_2 C 0.85421(10) 0.92860(15) 0.78567(18)
C24_2 C 0.80256(10) 0.84882(15) 0.87954(16)
H18_2 H 0.782967 0.891173 0.894831
C25_2 C 0.83334(17) 0.7364(2) 0.8767(3)
H19_2 H 0.839064 0.682562 0.887147
C26_2 C 0.85995(19) 0.7828(2) 0.8263(3)
H20_2 H 0.887679 0.768358 0.798078
F7_7 F 0.78245(8) 0.38853(14) 0.000000
N11_4 N 0.70245(8) 0.27784(13) 0.08997(13)
F7_8 F 0.78245(8) 0.38853(14) 1.000000
N9_4 N 0.70245(8) 0.27784(13) 0.91003(13)
Cu1_3 Cu 0.500000 0.42073(3) 0.500000
Ti1_9 Ti 0.78470(3) 0.500000 0.000000
F1_9 F 0.71781(9) 0.500000 0.000000
F2_9 F 0.84915(13) 0.500000 0.000000
O1_2 O 0.54866(6) 0.43300(10) 0.41117(11)
O2_5 O 0.500000 0.2935(3) 0.500000
C1_5 C 0.56214(11) 0.500000 0.3846(2)
N2_3 N 0.66214(9) 0.64363(13) 0.17526(15)
C2_3 C 0.61409(9) 0.57196(15) 0.28109(16)
H3_3 H 0.603707 0.619973 0.304455
C3_5 C 0.59797(12) 0.500000 0.3128(2)
C4_5 C 0.66111(15) 0.500000 0.1795(3)
H4_5 H 0.681578 0.499999 0.132866
C5_3 C 0.64579(10) 0.57140(15) 0.21433(18)
C6_3 C 0.69744(10) 0.65118(15) 0.12046(16)
H5_3 H 0.717033 0.608827 0.105169
C7_3 C 0.66666(17) 0.7636(2) 0.1233(3)
H6_3 H 0.660936 0.817438 0.112853
C8_3 C 0.64005(19) 0.7172(2) 0.1737(3)
H7_3 H 0.612321 0.731642 0.201922
O3_2 O 0.54866(6) 0.56700(10) 0.41117(11)
N4_3 N 0.66214(9) 0.35637(13) 0.17526(15)
C9_3 C 0.61409(9) 0.42804(15) 0.28109(16)
H8_3 H 0.603707 0.380027 0.304455
C10_3 C 0.64579(10) 0.42860(15) 0.21433(18)
C11_3 C 0.69744(10) 0.34882(15) 0.12046(16)
H9_3 H 0.717033 0.391173 0.105169
C12_3 C 0.66666(17) 0.2364(2) 0.1233(3)
H10_3 H 0.660936 0.182562 0.112853
C13_3 C 0.64005(19) 0.2828(2) 0.1737(3)
H11_3 H 0.612321 0.268358 0.201922
O4_2 O 0.45134(6) 0.56700(10) 0.41117(11)
C14_5 C 0.43786(11) 0.500000 0.3846(2)
N6_3 N 0.33786(9) 0.35637(13) 0.17526(15)
C15_3 C 0.38591(9) 0.42804(15) 0.28109(16)
H12_3 H 0.396293 0.380027 0.304455
C16_5 C 0.40203(12) 0.500000 0.3128(2)
C17_5 C 0.33889(15) 0.500000 0.1795(3)
H13_5 H 0.318422 0.500001 0.132866
C18_3 C 0.35421(10) 0.42860(15) 0.21433(18)
C19_3 C 0.30256(10) 0.34882(15) 0.12046(16)
H14_3 H 0.282967 0.391173 0.105169
C20_3 C 0.33334(17) 0.2364(2) 0.1233(3)
H15_3 H 0.339064 0.182562 0.112853
C21_3 C 0.35995(19) 0.2828(2) 0.1737(3)
H16_3 H 0.387679 0.268358 0.201922
O5_2 O 0.45134(6) 0.43300(10) 0.41117(11)
N8_3 N 0.33786(9) 0.64363(13) 0.17526(15)
C22_3 C 0.38591(9) 0.57196(15) 0.28109(16)
H17_3 H 0.396293 0.619973 0.304455
C23_3 C 0.35421(10) 0.57140(15) 0.21433(18)
C24_3 C 0.30256(10) 0.65118(15) 0.12046(16)
H18_3 H 0.282967 0.608827 0.105169
C25_3 C 0.33334(17) 0.7636(2) 0.1233(3)
H19_3 H 0.339064 0.817438 0.112853
C26_3 C 0.35995(19) 0.7172(2) 0.1737(3)
H20_3 H 0.387679 0.731642 0.201922
F5_5 F 0.78175(10) 0.500000 0.11816(14)
Cu3_3 Cu 0.500000 0.57927(3) 0.500000
O6_3 O 0.45134(6) 0.43300(10) 0.58883(11)
O7_3 O 0.54866(6) 0.43300(10) 0.58883(11)
Ti1_10 Ti 0.78470(3) 0.500000 1.000000
F1_10 F 0.71781(9) 0.500000 1.000000
F2_10 F 0.84915(13) 0.500000 1.000000
F3_5 F 0.78175(10) 0.500000 0.88184(14)
Ti1_11 Ti 0.21530(3) 0.500000 0.000000
F1_11 F 0.28219(9) 0.500000 0.000000
F2_11 F 0.15085(13) 0.500000 0.000000
O2_6 O 0.500000 0.7065(3) 0.500000
F5_6 F 0.21825(10) 0.500000 0.11816(14)
O6_4 O 0.54866(6) 0.56700(10) 0.58883(11)
O7_4 O 0.45134(6) 0.56700(10) 0.58883(11)
Ti1_12 Ti 0.21530(3) 0.500000 1.000000
F1_12 F 0.28219(9) 0.500000 1.000000
F2_12 F 0.15085(13) 0.500000 1.000000
F3_6 F 0.21825(10) 0.500000 0.88184(14)
C1_6 C 0.56214(11) 0.500000 0.6154(2)
N2_4 N 0.66214(9) 0.35637(13) 0.82474(15)
C2_4 C 0.61409(9) 0.42804(15) 0.71891(16)
H3_4 H 0.603707 0.380027 0.695545
C3_6 C 0.59797(12) 0.500000 0.6872(2)
C4_6 C 0.66111(15) 0.500000 0.8205(3)
H4_6 H 0.681578 0.500001 0.867134
C5_4 C 0.64579(10) 0.42860(15) 0.78567(18)
C6_4 C 0.69744(10) 0.34882(15) 0.87954(16)
H5_4 H 0.717033 0.391173 0.894831
C7_4 C 0.66666(17) 0.2364(2) 0.8767(3)
H6_4 H 0.660936 0.182562 0.887147
C8_4 C 0.64005(19) 0.2828(2) 0.8263(3)
H7_4 H 0.612321 0.268358 0.798078
N4_4 N 0.66214(9) 0.64363(13) 0.82474(15)
C9_4 C 0.61409(9) 0.57196(15) 0.71891(16)
H8_4 H 0.603707 0.619973 0.695545
C10_4 C 0.64579(10) 0.57140(15) 0.78567(18)
C11_4 C 0.69744(10) 0.65118(15) 0.87954(16)
H9_4 H 0.717033 0.608827 0.894831
C12_4 C 0.66666(17) 0.7636(2) 0.8767(3)
H10_4 H 0.660936 0.817438 0.887147
C13_4 C 0.64005(19) 0.7172(2) 0.8263(3)
H11_4 H 0.612321 0.731642 0.798078
C14_6 C 0.43786(11) 0.500000 0.6154(2)
N6_4 N 0.33786(9) 0.64363(13) 0.82474(15)
C15_4 C 0.38591(9) 0.57196(15) 0.71891(16)
H12_4 H 0.396293 0.619973 0.695545
C16_6 C 0.40203(12) 0.500000 0.6872(2)
C17_6 C 0.33889(15) 0.500000 0.8205(3)
H13_6 H 0.318422 0.499999 0.867134
C18_4 C 0.35421(10) 0.57140(15) 0.78567(18)
C19_4 C 0.30256(10) 0.65118(15) 0.87954(16)
H14_4 H 0.282967 0.608827 0.894831
C20_4 C 0.33334(17) 0.7636(2) 0.8767(3)
H15_4 H 0.339064 0.817438 0.887147
C21_4 C 0.35995(19) 0.7172(2) 0.8263(3)
H16_4 H 0.387679 0.731642 0.798078
N8_4 N 0.33786(9) 0.35637(13) 0.82474(15)
C22_4 C 0.38591(9) 0.42804(15) 0.71891(16)
H17_4 H 0.396293 0.380027 0.695545
C23_4 C 0.35421(10) 0.42860(15) 0.78567(18)
C24_4 C 0.30256(10) 0.34882(15) 0.87954(16)
H18_4 H 0.282967 0.391173 0.894831
C25_4 C 0.33334(17) 0.2364(2) 0.8767(3)
H19_4 H 0.339064 0.182562 0.887147
C26_4 C 0.35995(19) 0.2828(2) 0.8263(3)
H20_4 H 0.387679 0.268358 0.798078
loop_
_geom_bond_atom_site_label_1
_geom_bond_atom_site_label_2
_geom_bond_site_symmetry_1
_geom_bond_site_symmetry_2
Ti1 F1 1_555 1_555
Cu2 F4 1_555 1_555
F2 Ti1 1_555 1_555
F4 Ti1 1_555 1_555
C1 C3 1_555 1_555
N1 Cu2 1_555 1_555
N2 C5 1_555 1_555
C2 H3 1_555 1_555
C3 C2 1_555 1_555
C4 H4 1_555 1_555
C5 C2 1_555 1_555
C6 N1 1_555 1_555
H5 C6 1_555 1_555
C7 N1 1_555 1_555
H6 C7 1_555 1_555
C8 N2 1_555 1_555
H7 C8 1_555 1_555
O3 C1 1_555 1_555
F5 Ti1 1_555 1_555
F7 Cu2 1_555 1_555
N9 Cu2 1_555 1_555
N2 C6 1_555 1_555
C4 C5 1_555 1_555
C7 C8 1_555 1_555
O3 Cu3 1_555 1_555
Ti1_2 F1_2 1_555 1_555
Cu2_2 F4_2 1_555 1_555
F2_2 Ti1_2 1_555 1_555
F3 Ti1_2 1_555 1_555
F4_2 Ti1_2 1_555 1_555
F7_2 Cu2_2 1_555 1_555
N10 Cu2_2 1_555 1_555
N11 Cu2_2 1_555 1_555
Cu1 O1 1_555 1_555
Ti1_3 F1_3 1_555 1_555
F2_3 Ti1_3 1_555 1_555
O1 C1_2 1_555 1_555
O2 Cu1 1_555 1_555
C1_2 C3_2 1_555 1_555
C4_2 H4_2 1_555 1_555
N3 C11 1_555 1_555
N4 C10 1_555 1_555
C9 C3_2 1_555 1_555
H8 C9 1_555 1_555
C10 C4_2 1_555 1_555
C11 N4 1_555 1_555
H9 C11 1_555 1_555
C12 N3 1_555 1_555
H10 C12 1_555 1_555
C13 N4 1_555 1_555
H11 C13 1_555 1_555
F5_2 Ti1_3 1_555 1_555
F6 Ti1_3 1_555 1_555
Cu5 N3 1_555 1_555
O7 Cu1 1_555 1_555
C9 C10 1_555 1_555
C12 C13 1_555 1_555
F6 Cu5 1_555 1_555
Ti1_4 F1_4 1_555 1_555
F2_4 Ti1_4 1_555 1_555
F3_2 Ti1_4 1_555 1_555
F6_2 Ti1_4 1_555 1_555
F6_2 Cu5_2 1_555 1_555
O4 C14 1_555 1_555
C14 C16 1_555 1_555
C17 H13 1_555 1_555
N7 C24 1_555 1_555
N8 C23 1_555 1_555
C22 C16 1_555 1_555
H17 C22 1_555 1_555
C23 C17 1_555 1_555
C24 N8 1_555 1_555
H18 C24 1_555 1_555
C25 N7 1_555 1_555
H19 C25 1_555 1_555
C26 N8 1_555 1_555
H20 C26 1_555 1_555
Cu6 N7 1_555 1_555
O4 Cu3_2 1_555 1_555
C22 C23 1_555 1_555
C25 C26 1_555 1_555
O2_2 Cu1_2 1_555 1_555
C14_2 C16_2 1_555 1_555
N5 C19 1_555 1_555
N6 C18 1_555 1_555
C15 H12 1_555 1_555
C16_2 C15 1_555 1_555
C17_2 H13_2 1_555 1_555
C18 C15 1_555 1_555
C19 N6 1_555 1_555
H14 C19 1_555 1_555
C20 N5 1_555 1_555
H15 C20 1_555 1_555
C21 N6 1_555 1_555
H16 C21 1_555 1_555
O5 Cu1_2 1_555 1_555
Cu4 N5 1_555 1_555
O6 Cu1_2 1_555 1_555
C14_2 O5 1_555 1_555
C17_2 C18 1_555 1_555
C20 C21 1_555 1_555
O2_3 Cu3 1_555 1_555
O6_2 Cu3 1_555 1_555
Ti1_5 F1_5 1_555 1_555
F2_5 Ti1_5 1_555 1_555
O2_4 Cu3_2 1_555 1_555
F5_3 Ti1_5 1_555 1_555
F6_3 Ti1_5 1_555 1_555
O7_2 Cu3_2 1_555 1_555
F6_3 Cu6 1_555 1_555
Ti1_6 F1_6 1_555 1_555
F2_6 Ti1_6 1_555 1_555
F3_3 Ti1_6 1_555 1_555
F6_4 Ti1_6 1_555 1_555
F6_4 Cu6_2 1_555 1_555
Ti1_7 F1_7 1_555 1_555
Cu4 F4_3 1_555 1_555
F2_7 Ti1_7 1_555 1_555
F4_3 Ti1_7 1_555 1_555
F5_4 Ti1_7 1_555 1_555
F7_3 Cu4 1_555 1_555
N9_2 Cu4 1_555 1_555
Ti1_8 F1_8 1_555 1_555
Cu4_2 F4_4 1_555 1_555
F2_8 Ti1_8 1_555 1_555
F3_4 Ti1_8 1_555 1_555
F4_4 Ti1_8 1_555 1_555
F7_4 Cu4_2 1_555 1_555
N10_2 Cu4_2 1_555 1_555
N11_2 Cu4_2 1_555 1_555
O6_2 C1_3 1_555 1_555
C1_3 C3_3 1_555 1_555
C4_3 H4_3 1_555 1_555
N10 C11_2 1_555 1_555
N4_2 C10_2 1_555 1_555
C9_2 C3_3 1_555 1_555
H8_2 C9_2 1_555 1_555
C10_2 C4_3 1_555 1_555
C11_2 N4_2 1_555 1_555
H9_2 C11_2 1_555 1_555
C12_2 N10 1_555 1_555
H10_2 C12_2 1_555 1_555
C13_2 N4_2 1_555 1_555
H11_2 C13_2 1_555 1_555
C9_2 C10_2 1_555 1_555
C12_2 C13_2 1_555 1_555
F7_5 Cu5 1_555 1_555
N11_3 Cu5 1_555 1_555
C1_4 C3_4 1_555 1_555
N1_2 Cu5_2 1_555 1_555
N2_2 C5_2 1_555 1_555
C2_2 H3_2 1_555 1_555
C3_4 C2_2 1_555 1_555
C4_4 H4_4 1_555 1_555
C5_2 C2_2 1_555 1_555
C6_2 N1_2 1_555 1_555
H5_2 C6_2 1_555 1_555
C7_2 N1_2 1_555 1_555
H6_2 C7_2 1_555 1_555
C8_2 N2_2 1_555 1_555
H7_2 C8_2 1_555 1_555
O7 C1_4 1_555 1_555
F7_6 Cu5_2 1_555 1_555
N9_3 Cu5_2 1_555 1_555
N2_2 C6_2 1_555 1_555
C4_4 C5_2 1_555 1_555
C7_2 C8_2 1_555 1_555
C14_3 C16_3 1_555 1_555
N5_2 C19_2 1_555 1_555
N6_2 C18_2 1_555 1_555
C15_2 H12_2 1_555 1_555
C16_3 C15_2 1_555 1_555
C17_3 H13_3 1_555 1_555
C18_2 C15_2 1_555 1_555
C19_2 N6_2 1_555 1_555
H14_2 C19_2 1_555 1_555
C20_2 N5_2 1_555 1_555
H15_2 C20_2 1_555 1_555
C21_2 N6_2 1_555 1_555
H16_2 C21_2 1_555 1_555
Cu6_2 N5_2 1_555 1_555
C14_3 O7_2 1_555 1_555
C17_3 C18_2 1_555 1_555
C20_2 C21_2 1_555 1_555
O6 C14_4 1_555 1_555
C14_4 C16_4 1_555 1_555
C17_4 H13_4 1_555 1_555
N10_2 C24_2 1_555 1_555
N8_2 C23_2 1_555 1_555
C22_2 C16_4 1_555 1_555
H17_2 C22_2 1_555 1_555
C23_2 C17_4 1_555 1_555
C24_2 N8_2 1_555 1_555
H18_2 C24_2 1_555 1_555
C25_2 N10_2 1_555 1_555
H19_2 C25_2 1_555 1_555
C26_2 N8_2 1_555 1_555
H20_2 C26_2 1_555 1_555
C22_2 C23_2 1_555 1_555
C25_2 C26_2 1_555 1_555
F7_7 Cu6 1_555 1_555
N11_4 Cu6 1_555 1_555
F7_8 Cu6_2 1_555 1_555
N9_4 Cu6_2 1_555 1_555
Cu1_3 O1_2 1_555 1_555
Ti1_9 F1_9 1_555 1_555
F2_9 Ti1_9 1_555 1_555
F7_3 Ti1_9 1_555 1_555
O1_2 C1_5 1_555 1_555
O2_5 Cu1_3 1_555 1_555
C1_5 C3_5 1_555 1_555
N2_3 C5_3 1_555 1_555
C2_3 H3_3 1_555 1_555
C3_5 C2_3 1_555 1_555
C4_5 H4_5 1_555 1_555
C5_3 C2_3 1_555 1_555
C6_3 N9_2 1_555 1_555
H5_3 C6_3 1_555 1_555
C7_3 N9_2 1_555 1_555
H6_3 C7_3 1_555 1_555
C8_3 N2_3 1_555 1_555
H7_3 C8_3 1_555 1_555
O3_2 C1_5 1_555 1_555
N11_4 C11_3 1_555 1_555
N4_3 C10_3 1_555 1_555
C9_3 C3_5 1_555 1_555
H8_3 C9_3 1_555 1_555
C10_3 C4_5 1_555 1_555
C11_3 N4_3 1_555 1_555
H9_3 C11_3 1_555 1_555
C12_3 N11_4 1_555 1_555
H10_3 C12_3 1_555 1_555
C13_3 N4_3 1_555 1_555
H11_3 C13_3 1_555 1_555
O4_2 C14_5 1_555 1_555
C14_5 C16_5 1_555 1_555
N9 C19_3 1_555 1_555
N6_3 C18_3 1_555 1_555
C15_3 H12_3 1_555 1_555
C16_5 C15_3 1_555 1_555
C17_5 H13_5 1_555 1_555
C18_3 C15_3 1_555 1_555
C19_3 N6_3 1_555 1_555
H14_3 C19_3 1_555 1_555
C20_3 N9 1_555 1_555
H15_3 C20_3 1_555 1_555
C21_3 N6_3 1_555 1_555
H16_3 C21_3 1_555 1_555
O5_2 Cu1_3 1_555 1_555
N11_3 C24_3 1_555 1_555
N8_3 C23_3 1_555 1_555
C22_3 C16_5 1_555 1_555
H17_3 C22_3 1_555 1_555
C23_3 C17_5 1_555 1_555
C24_3 N8_3 1_555 1_555
H18_3 C24_3 1_555 1_555
C25_3 N11_3 1_555 1_555
H19_3 C25_3 1_555 1_555
C26_3 N8_3 1_555 1_555
H20_3 C26_3 1_555 1_555
F5_5 Ti1_9 1_555 1_555
F7_7 Ti1_9 1_555 1_555
Cu3_3 Cu1_3 1_555 1_555
O6_3 Cu1_3 1_555 1_555
O7_3 Cu1_3 1_555 1_555
N2_3 C6_3 1_555 1_555
C4_5 C5_3 1_555 1_555
C7_3 C8_3 1_555 1_555
O3_2 Cu3_3 1_555 1_555
C9_3 C10_3 1_555 1_555
C12_3 C13_3 1_555 1_555
O4_2 Cu3_3 1_555 1_555
C14_5 O5_2 1_555 1_555
C17_5 C18_3 1_555 1_555
C20_3 C21_3 1_555 1_555
C22_3 C23_3 1_555 1_555
C25_3 C26_3 1_555 1_555
Ti1_10 F1_10 1_555 1_555
F2_10 Ti1_10 1_555 1_555
F3_5 Ti1_10 1_555 1_555
F7_4 Ti1_10 1_555 1_555
F7_8 Ti1_10 1_555 1_555
Ti1_11 F1_11 1_555 1_555
F2_11 Ti1_11 1_555 1_555
F7 Ti1_11 1_555 1_555
O2_6 Cu3_3 1_555 1_555
F5_6 Ti1_11 1_555 1_555
F7_5 Ti1_11 1_555 1_555
O6_4 Cu3_3 1_555 1_555
O7_4 Cu3_3 1_555 1_555
Ti1_12 F1_12 1_555 1_555
F2_12 Ti1_12 1_555 1_555
F3_6 Ti1_12 1_555 1_555
F7_2 Ti1_12 1_555 1_555
F7_6 Ti1_12 1_555 1_555
O6_4 C1_6 1_555 1_555
C1_6 C3_6 1_555 1_555
N2_4 C5_4 1_555 1_555
C2_4 H3_4 1_555 1_555
C3_6 C2_4 1_555 1_555
C4_6 H4_6 1_555 1_555
C5_4 C2_4 1_555 1_555
C6_4 N9_4 1_555 1_555
H5_4 C6_4 1_555 1_555
C7_4 N9_4 1_555 1_555
H6_4 C7_4 1_555 1_555
C8_4 N2_4 1_555 1_555
H7_4 C8_4 1_555 1_555
O7_3 C1_6 1_555 1_555
N11_2 C11_4 1_555 1_555
N4_4 C10_4 1_555 1_555
C9_4 C3_6 1_555 1_555
H8_4 C9_4 1_555 1_555
C10_4 C4_6 1_555 1_555
C11_4 N4_4 1_555 1_555
H9_4 C11_4 1_555 1_555
C12_4 N11_2 1_555 1_555
H10_4 C12_4 1_555 1_555
C13_4 N4_4 1_555 1_555
H11_4 C13_4 1_555 1_555
O6_3 C14_6 1_555 1_555
C14_6 C16_6 1_555 1_555
N9_3 C19_4 1_555 1_555
N6_4 C18_4 1_555 1_555
C15_4 H12_4 1_555 1_555
C16_6 C15_4 1_555 1_555
C17_6 H13_6 1_555 1_555
C18_4 C15_4 1_555 1_555
C19_4 N6_4 1_555 1_555
H14_4 C19_4 1_555 1_555
C20_4 N9_3 1_555 1_555
H15_4 C20_4 1_555 1_555
C21_4 N6_4 1_555 1_555
H16_4 C21_4 1_555 1_555
N11 C24_4 1_555 1_555
N8_4 C23_4 1_555 1_555
C22_4 C16_6 1_555 1_555
H17_4 C22_4 1_555 1_555
C23_4 C17_6 1_555 1_555
C24_4 N8_4 1_555 1_555
H18_4 C24_4 1_555 1_555
C25_4 N11 1_555 1_555
H19_4 C25_4 1_555 1_555
C26_4 N8_4 1_555 1_555
H20_4 C26_4 1_555 1_555
N2_4 C6_4 1_555 1_555
C4_6 C5_4 1_555 1_555
C7_4 C8_4 1_555 1_555
C9_4 C10_4 1_555 1_555
C12_4 C13_4 1_555 1_555
C14_6 O7_4 1_555 1_555
C17_6 C18_4 1_555 1_555
C20_4 C21_4 1_555 1_555
C22_4 C23_4 1_555 1_555
C25_4 C26_4 1_555 1_555

#END
