
###############################################################################
#
# This file contains modified crystal structure data generated from the
# MOF subset of the Cambridge Structural Database (CSD) v543 
# hosted by the Cambridge Crystallographic Data Centre (CCDC).
#
# This work is licensed under the Creative Commons
# Attribution-NonCommercial-ShareAlike 4.0 International License.
# To view a copy of this license, visit
# http://creativecommons.org/licenses/by-nc-sa/4.0/
# or send a letter to
# Creative Commons, PO Box 1866, Mountain View, CA 94042, USA.
#
# CIF created using the CSD Python API on 29 September 2022
# The structure has been converted into the P1 space group
# The structure has a 3D framework
# The original CSD entry SEDLAP is in the monoclinic crystal system
# The framework has been calculated to contain at least 10.0% void space
# The void calculation uses a probe of radius 1.32A, grid spacing 0.4
#
###############################################################################

data_SEDLAP
_chemical_formula_moiety         '(C48 H56 O62 Sm8)n'
_symmetry_cell_setting           triclinic
_symmetry_space_group_name_H-M   'P 1'
_symmetry_Int_Tables_number      1
_space_group_name_Hall           'P 1'
loop_
_symmetry_equiv_pos_site_id
_symmetry_equiv_pos_as_xyz
1 x,y,z
_cell_length_a                   9.5178(2)
_cell_length_b                   14.6999(3)
_cell_length_c                   14.8740(3)
_cell_angle_alpha                90
_cell_angle_beta                 91.2425(9)
_cell_angle_gamma                90
_cell_volume                     2080.54
loop_
_atom_site_label
_atom_site_type_symbol
_atom_site_fract_x
_atom_site_fract_y
_atom_site_fract_z
C10 C 0.0397(5) 0.1017(3) 0.0509(3)
H5 H 0.1266 0.0700 0.0547
Sm2 Sm 0.02774(2) 0.163770(16) 0.745159(14)
C1 C 0.1149(4) 0.3548(3) 0.8731(3)
C2 C 0.2694(4) 0.3539(3) 0.8658(3)
H1 H 0.3082 0.3724 0.8104
C3 C 0.3570(4) 0.3290(3) 0.9310(3)
H2 H 0.3208 0.3113 0.9874
C4 C 0.5116(4) 0.3281(3) 0.9180(3)
C9 C 0.0132(4) 0.1628(3) 0.9729(3)
O1 O 0.0394(3) 0.3169(2) 0.81365(19)
O2 O 0.0594(3) 0.3950(2) 0.9388(2)
O3 O 0.5864(3) 0.2692(2) 0.9578(2)
O4 O 0.5655(3) 0.3871(2) 0.8672(2)
O10 O 0.0919(3) 0.1545(2) 0.9065(2)
O15 O 0.0175(3) 0.2799(2) 0.6289(2)
O16 O 0.0335(3) 0.0722(2) 0.6061(2)
H11 H 0.035(6) 0.269(4) 0.566(2)
H12 H 0.032(6) 0.3451(19) 0.633(4)
H13 H 0.123(4) 0.080(4) 0.583(4)
H14 H 0.008(5) 0.013(2) 0.608(4)
Sm3 Sm 0.81106(2) 0.346122(16) 0.905591(14)
O20 O 0.2666(3) 0.1803(2) 0.7062(2)
O21 O 0.1487(3) 0.0137(2) 0.7820(2)
O12 O 0.0796(3) 0.9763(2) 0.1954(2)
C11 C 0.9482(5) 0.0893(3) 0.1151(3)
H6 H 0.8710 0.1300 0.1188
C12 C 0.9607(5) 0.0153(3) 0.1813(3)
O19 O 0.7955(3) 0.3728(2) 0.0677(2)
C5 C 0.7201(4) 0.1844(3) 0.7338(3)
C6 C 0.5646(5) 0.1849(3) 0.7283(3)
H3 H 0.5126 0.1983 0.7805
C7 C 0.4975(4) 0.1670(3) 0.6522(3)
H4 H 0.5521 0.1583 0.6002
C8 C 0.3413(4) 0.1594(3) 0.6416(3)
O5 O 0.7838(3) 0.2212(2) 0.8011(2)
O6 O 0.7893(3) 0.1471(2) 0.6735(2)
O7 O 0.2955(3) 0.1272(2) 0.5677(2)
O9 O 0.9108(3) 0.2179(2) 0.9768(2)
O13 O 0.8105(3) 0.4268(2) 0.7615(2)
O14 O 0.7854(3) 0.5052(2) 0.9399(2)
H7 H 0.750(4) 0.470(3) 0.736(4)
H8 H 0.898(3) 0.436(4) 0.734(4)
H9 H 0.842(5) 0.537(3) 0.981(3)
H10 H 0.758(5) 0.550(3) 0.897(3)
Sm4 Sm 0.31106(2) 0.153878(16) 0.405591(14)
O22 O 0.9204(3) 0.0237(2) 0.8046(2)
O11 O 0.8513(3) 0.9863(2) 0.2180(2)
Sm6 Sm 0.97226(2) 0.836230(16) 0.254841(14)
Sm4_2 Sm 0.18894(2) 0.653878(16) 0.094409(14)
C7_2 C 0.0025(4) 0.6670(3) 0.8478(3)
C8_2 C 0.1587(4) 0.6594(3) 0.8584(3)
O7_2 O 0.2045(3) 0.6272(2) 0.9323(2)
O8 O 0.2334(3) 0.6803(2) 0.7938(2)
Sm5 Sm 0.47226(2) 0.663770(16) 0.754841(14)
Sm1 Sm 0.68894(2) 0.846122(16) 0.594409(14)
C1_2 C 0.3851(4) 0.8548(3) 0.6269(3)
C2_2 C 0.2306(4) 0.8539(3) 0.6342(3)
H1_2 H 0.1918 0.8724 0.6896
C3_2 C 0.1430(4) 0.8290(3) 0.5690(3)
H2_2 H 0.1792 0.8113 0.5126
C5_2 C 0.7799(4) 0.6844(3) 0.7662(3)
C6_2 C 0.9354(5) 0.6849(3) 0.7717(3)
H3_2 H 0.9874 0.6983 0.7195
H4_2 H 0.9479 0.6583 0.8998
C9_2 C 0.4868(4) 0.6628(3) 0.5271(3)
C10_2 C 0.4603(5) 0.6017(3) 0.4491(3)
H5_2 H 0.3734 0.5700 0.4453
C11_2 C 0.5518(5) 0.5893(3) 0.3849(3)
H6_2 H 0.6290 0.6300 0.3812
C12_2 C 0.5393(5) 0.5153(3) 0.3187(3)
O1_2 O 0.4606(3) 0.8169(2) 0.68635(19)
O2_2 O 0.4406(3) 0.8950(2) 0.5612(2)
O5_2 O 0.7162(3) 0.7212(2) 0.6989(2)
O6_2 O 0.7107(3) 0.6471(2) 0.8265(2)
O9_2 O 0.5892(3) 0.7179(2) 0.5232(2)
O10_2 O 0.4081(3) 0.6545(2) 0.5935(2)
O11_2 O 0.6487(3) 0.4863(2) 0.2820(2)
O12_2 O 0.4204(3) 0.4763(2) 0.3046(2)
O13_2 O 0.6895(3) 0.9268(2) 0.7385(2)
O15_2 O 0.4825(3) 0.7799(2) 0.8711(2)
O16_2 O 0.4665(3) 0.5722(2) 0.8939(2)
H7_2 H 0.750(4) 0.970(3) 0.764(4)
H8_2 H 0.602(3) 0.936(4) 0.766(4)
H11_2 H 0.465(6) 0.769(4) 0.934(2)
H12_2 H 0.468(6) 0.8451(19) 0.867(4)
H13_2 H 0.377(4) 0.580(4) 0.917(4)
H14_2 H 0.492(5) 0.513(2) 0.892(4)
Sm6_2 Sm 0.52774(2) 0.336230(16) 0.245159(14)
O17 O 0.9136(3) 0.7692(2) 0.5422(2)
O18 O 0.9345(3) 0.8871(2) 0.6328(2)
O19_2 O 0.7045(3) 0.8728(2) 0.4323(2)
O21_2 O 0.3513(3) 0.5137(2) 0.7180(2)
O22_2 O 0.5796(3) 0.5237(2) 0.6954(2)
C4_2 C 0.9884(4) 0.8281(3) 0.5820(3)
C5_3 C 0.2799(4) 0.8156(3) 0.2662(3)
C6_3 C 0.4354(5) 0.8151(3) 0.2717(3)
H3_3 H 0.4874 0.8017 0.2195
C7_3 C 0.5025(4) 0.8330(3) 0.3478(3)
H4_3 H 0.4479 0.8417 0.3998
C8_3 C 0.6587(4) 0.8406(3) 0.3584(3)
O5_3 O 0.2162(3) 0.7788(2) 0.1989(2)
O6_3 O 0.2107(3) 0.8529(2) 0.3265(2)
O8_2 O 0.7334(3) 0.8197(2) 0.2938(2)
O9_3 O 0.0892(3) 0.7821(2) 0.0232(2)
O13_3 O 0.1895(3) 0.5732(2) 0.2385(2)
O14_2 O 0.2146(3) 0.4948(2) 0.0601(2)
H7_3 H 0.250(4) 0.530(3) 0.264(4)
H8_3 H 0.102(3) 0.564(4) 0.266(4)
H9_2 H 0.158(5) 0.463(3) 0.019(3)
H10_2 H 0.242(5) 0.450(3) 0.103(3)
O17_2 O 0.4136(3) 0.7308(2) 0.0422(2)
O18_2 O 0.4345(3) 0.6129(2) 0.1328(2)
C11_3 C 0.0518(5) 0.9107(3) 0.8849(3)
H6_3 H 0.1290 0.8700 0.8812
C12_3 C 0.0393(5) 0.9847(3) 0.8187(3)
C1_3 C 0.8851(4) 0.6452(3) 0.1269(3)
C2_3 C 0.7306(4) 0.6461(3) 0.1342(3)
H1_3 H 0.6918 0.6276 0.1896
C3_3 C 0.6430(4) 0.6710(3) 0.0690(3)
H2_3 H 0.6792 0.6887 0.0126
C4_3 C 0.4884(4) 0.6719(3) 0.0820(3)
C9_3 C 0.9868(4) 0.8372(3) 0.0271(3)
O1_3 O 0.9606(3) 0.6831(2) 0.18635(19)
O2_3 O 0.9406(3) 0.6050(2) 0.0612(2)
O10_3 O 0.9081(3) 0.8455(2) 0.0935(2)
O15_3 O 0.9825(3) 0.7201(2) 0.3711(2)
O16_3 O 0.9665(3) 0.9278(2) 0.3939(2)
H11_3 H 0.965(6) 0.731(4) 0.434(2)
H12_3 H 0.968(6) 0.6549(19) 0.367(4)
H13_3 H 0.877(4) 0.920(4) 0.417(4)
H14_3 H 0.992(5) 0.987(2) 0.392(4)
C4_4 C 0.0116(4) 0.1719(3) 0.4180(3)
O3_2 O 0.0864(3) 0.2308(2) 0.4578(2)
O4_2 O 0.0655(3) 0.1129(2) 0.3672(2)
C1_4 C 0.6149(4) 0.1452(3) 0.3731(3)
C2_4 C 0.7694(4) 0.1461(3) 0.3658(3)
H1_4 H 0.8082 0.1276 0.3104
C3_4 C 0.8570(4) 0.1710(3) 0.4310(3)
H2_4 H 0.8208 0.1887 0.4874
C5_4 C 0.2201(4) 0.3156(3) 0.2338(3)
C6_4 C 0.0646(5) 0.3151(3) 0.2283(3)
H3_4 H 0.0126 0.3017 0.2805
H4_4 H 0.0521 0.3417 0.1002
C9_4 C 0.5132(4) 0.3372(3) 0.4729(3)
C10_3 C 0.5397(5) 0.3983(3) 0.5509(3)
H5_3 H 0.6266 0.4300 0.5547
C11_4 C 0.4482(5) 0.4107(3) 0.6151(3)
H6_4 H 0.3710 0.3700 0.6188
C12_4 C 0.4607(5) 0.4847(3) 0.6813(3)
O1_4 O 0.5394(3) 0.1831(2) 0.31365(19)
O2_4 O 0.5594(3) 0.1050(2) 0.4388(2)
O5_4 O 0.2838(3) 0.2788(2) 0.3011(2)
O6_4 O 0.2893(3) 0.3529(2) 0.1735(2)
O9_4 O 0.4108(3) 0.2821(2) 0.4768(2)
O10_4 O 0.5919(3) 0.3455(2) 0.4065(2)
O13_4 O 0.3105(3) 0.0732(2) 0.2615(2)
O15_4 O 0.5175(3) 0.2201(2) 0.1289(2)
O16_4 O 0.5335(3) 0.4278(2) 0.1061(2)
H7_4 H 0.250(4) 0.030(3) 0.236(4)
H8_4 H 0.398(3) 0.064(4) 0.234(4)
H11_4 H 0.535(6) 0.231(4) 0.066(2)
H12_4 H 0.532(6) 0.1549(19) 0.133(4)
H13_4 H 0.623(4) 0.420(4) 0.083(4)
H14_4 H 0.508(5) 0.487(2) 0.108(4)
O20_2 O 0.7666(3) 0.3197(2) 0.2062(2)
C7_4 C 0.9975(4) 0.3330(3) 0.1522(3)
C8_4 C 0.8413(4) 0.3406(3) 0.1416(3)
O14_3 O 0.7146(3) 0.0052(2) 0.5601(2)
H9_3 H 0.658(5) 0.037(3) 0.519(3)
H10_3 H 0.742(5) 0.050(3) 0.603(3)
C10_4 C 0.9603(5) 0.8983(3) 0.9491(3)
H5_4 H 0.8734 0.9300 0.9453
O14_4 O 0.2854(3) 0.9948(2) 0.4399(2)
H9_4 H 0.342(5) 0.963(3) 0.481(3)
H10_4 H 0.258(5) 0.950(3) 0.397(3)
loop_
_geom_bond_atom_site_label_1
_geom_bond_atom_site_label_2
_geom_bond_site_symmetry_1
_geom_bond_site_symmetry_2
C10 H5 1_555 1_555
Sm2 O1 1_555 1_555
C1 C2 1_555 1_555
C2 H1 1_555 1_555
C3 C2 1_555 1_555
H2 C3 1_555 1_555
C4 C3 1_555 1_555
O1 C1 1_555 1_555
O3 C4 1_555 1_555
O4 C4 1_555 1_555
O10 Sm2 1_555 1_555
O15 Sm2 1_555 1_555
O16 Sm2 1_555 1_555
H11 O15 1_555 1_555
H12 O15 1_555 1_555
H13 O16 1_555 1_555
H14 O16 1_555 1_555
Sm3 O3 1_555 1_555
O20 Sm2 1_555 1_555
O21 Sm2 1_555 1_555
C1 O2 1_555 1_555
C9 O10 1_555 1_555
O4 Sm3 1_555 1_555
H6 C11 1_555 1_555
C12 C11 1_555 1_555
C5 C6 1_555 1_555
C6 H3 1_555 1_555
C7 C6 1_555 1_555
H4 C7 1_555 1_555
C8 C7 1_555 1_555
O5 Sm3 1_555 1_555
O7 C8 1_555 1_555
O20 C8 1_555 1_555
O9 Sm3 1_555 1_555
O13 Sm3 1_555 1_555
O14 Sm3 1_555 1_555
H7 O13 1_555 1_555
H8 O13 1_555 1_555
H9 O14 1_555 1_555
H10 O14 1_555 1_555
Sm4 O7 1_555 1_555
C5 O5 1_555 1_555
C5 O6 1_555 1_555
Sm6 O11 1_555 1_555
C8_2 C7_2 1_555 1_555
O7_2 C8_2 1_555 1_555
O8 C8_2 1_555 1_555
Sm5 O8 1_555 1_555
Sm1 O1_2 1_555 1_555
Sm5 O1_2 1_555 1_555
C1_2 C2_2 1_555 1_555
C2_2 H1_2 1_555 1_555
C3_2 C2_2 1_555 1_555
H2_2 C3_2 1_555 1_555
C5_2 C6_2 1_555 1_555
C6_2 H3_2 1_555 1_555
C9_2 C10_2 1_555 1_555
C10_2 H5_2 1_555 1_555
C11_2 C10_2 1_555 1_555
H6_2 C11_2 1_555 1_555
C12_2 C11_2 1_555 1_555
O1_2 C1_2 1_555 1_555
O2_2 Sm1 1_555 1_555
O5_2 Sm1 1_555 1_555
O6_2 Sm5 1_555 1_555
O9_2 Sm1 1_555 1_555
O10_2 Sm5 1_555 1_555
O11_2 C12_2 1_555 1_555
O12_2 C12_2 1_555 1_555
O13_2 Sm1 1_555 1_555
O15_2 Sm5 1_555 1_555
O16_2 Sm5 1_555 1_555
H7_2 O13_2 1_555 1_555
H8_2 O13_2 1_555 1_555
H11_2 O15_2 1_555 1_555
H12_2 O15_2 1_555 1_555
H13_2 O16_2 1_555 1_555
H14_2 O16_2 1_555 1_555
Sm6_2 O11_2 1_555 1_555
O17 Sm1 1_555 1_555
O18 Sm1 1_555 1_555
O19_2 Sm1 1_555 1_555
O21_2 Sm5 1_555 1_555
O22_2 Sm5 1_555 1_555
Sm5 O5_2 1_555 1_555
C1_2 O2_2 1_555 1_555
C5_2 O5_2 1_555 1_555
C5_2 O6_2 1_555 1_555
C9_2 O9_2 1_555 1_555
C9_2 O10_2 1_555 1_555
O12_2 Sm6_2 1_555 1_555
O17 C4_2 1_555 1_555
O18 C4_2 1_555 1_555
C5_3 C6_3 1_555 1_555
C6_3 H3_3 1_555 1_555
C7_3 C6_3 1_555 1_555
H4_3 C7_3 1_555 1_555
C8_3 C7_3 1_555 1_555
O5_3 Sm4_2 1_555 1_555
O19_2 C8_3 1_555 1_555
O8_2 C8_3 1_555 1_555
O9_3 Sm4_2 1_555 1_555
O13_3 Sm4_2 1_555 1_555
O14_2 Sm4_2 1_555 1_555
H7_3 O13_3 1_555 1_555
H8_3 O13_3 1_555 1_555
H9_2 O14_2 1_555 1_555
H10_2 O14_2 1_555 1_555
Sm6 O8_2 1_555 1_555
O17_2 Sm4_2 1_555 1_555
O18_2 Sm4_2 1_555 1_555
C5_3 O5_3 1_555 1_555
C5_3 O6_3 1_555 1_555
H6_3 C11_3 1_555 1_555
C12_3 C11_3 1_555 1_555
Sm6 O1_3 1_555 1_555
C1_3 C2_3 1_555 1_555
C2_3 H1_3 1_555 1_555
C3_3 C2_3 1_555 1_555
H2_3 C3_3 1_555 1_555
C4_3 C3_3 1_555 1_555
O1_3 C1_3 1_555 1_555
O17_2 C4_3 1_555 1_555
O18_2 C4_3 1_555 1_555
O10_3 Sm6 1_555 1_555
O15_3 Sm6 1_555 1_555
O16_3 Sm6 1_555 1_555
H11_3 O15_3 1_555 1_555
H12_3 O15_3 1_555 1_555
H13_3 O16_3 1_555 1_555
H14_3 O16_3 1_555 1_555
C1_3 O2_3 1_555 1_555
C9_3 O10_3 1_555 1_555
O3_2 C4_4 1_555 1_555
O4_2 C4_4 1_555 1_555
Sm4 O3_2 1_555 1_555
O4_2 Sm4 1_555 1_555
Sm4 O1_4 1_555 1_555
Sm6_2 O1_4 1_555 1_555
C1_4 C2_4 1_555 1_555
C2_4 H1_4 1_555 1_555
C3_4 C2_4 1_555 1_555
H2_4 C3_4 1_555 1_555
C5_4 C6_4 1_555 1_555
C6_4 H3_4 1_555 1_555
C9_4 C10_3 1_555 1_555
C10_3 H5_3 1_555 1_555
C11_4 C10_3 1_555 1_555
H6_4 C11_4 1_555 1_555
C12_4 C11_4 1_555 1_555
O1_4 C1_4 1_555 1_555
O2_4 Sm4 1_555 1_555
O5_4 Sm4 1_555 1_555
O6_4 Sm6_2 1_555 1_555
O9_4 Sm4 1_555 1_555
O10_4 Sm6_2 1_555 1_555
O21_2 C12_4 1_555 1_555
O22_2 C12_4 1_555 1_555
O13_4 Sm4 1_555 1_555
O15_4 Sm6_2 1_555 1_555
O16_4 Sm6_2 1_555 1_555
H7_4 O13_4 1_555 1_555
H8_4 O13_4 1_555 1_555
H11_4 O15_4 1_555 1_555
H12_4 O15_4 1_555 1_555
H13_4 O16_4 1_555 1_555
H14_4 O16_4 1_555 1_555
O20_2 Sm6_2 1_555 1_555
Sm6_2 O5_4 1_555 1_555
C1_4 O2_4 1_555 1_555
C5_4 O5_4 1_555 1_555
C5_4 O6_4 1_555 1_555
C9_4 O9_4 1_555 1_555
C9_4 O10_4 1_555 1_555
C8_4 C7_4 1_555 1_555
O19 C8_4 1_555 1_555
O20_2 C8_4 1_555 1_555
H9_3 O14_3 1_555 1_555
H10_3 O14_3 1_555 1_555
C10_4 H5_4 1_555 1_555
H9_4 O14_4 1_555 1_555
H10_4 O14_4 1_555 1_555

#END
