
###############################################################################
#
# This file contains modified crystal structure data generated from the
# MOF subset of the Cambridge Structural Database (CSD) v543 
# hosted by the Cambridge Crystallographic Data Centre (CCDC).
#
# This work is licensed under the Creative Commons
# Attribution-NonCommercial-ShareAlike 4.0 International License.
# To view a copy of this license, visit
# http://creativecommons.org/licenses/by-nc-sa/4.0/
# or send a letter to
# Creative Commons, PO Box 1866, Mountain View, CA 94042, USA.
#
# CIF created using the CSD Python API on 29 September 2022
# The structure has been converted into the P1 space group
# The structure has a 3D framework
# The original CSD entry SEDLAP01 is in the monoclinic crystal system
# The framework has been calculated to contain at least 10.0% void space
# The void calculation uses a probe of radius 1.32A, grid spacing 0.4
# H atom positions have been added when not included in the experimental data
#
###############################################################################

data_SEDLAP01
_chemical_formula_moiety         '(C48 H56 O62 Sm8)n'
_symmetry_cell_setting           triclinic
_symmetry_space_group_name_H-M   'P 1'
_symmetry_Int_Tables_number      1
_space_group_name_Hall           'P 1'
loop_
_symmetry_equiv_pos_site_id
_symmetry_equiv_pos_as_xyz
1 x,y,z
_cell_length_a                   9.5162(19)
_cell_length_b                   14.817(3)
_cell_length_c                   14.844(3)
_cell_angle_alpha                90
_cell_angle_beta                 91.51(3)
_cell_angle_gamma                90
_cell_volume                     2092.3
loop_
_atom_site_label
_atom_site_type_symbol
_atom_site_fract_x
_atom_site_fract_y
_atom_site_fract_z
O9 O 0.0864(3) 0.72951(19) 0.95734(19)
O10 O 0.0641(3) 0.6124(2) 0.8681(2)
C9 C 0.0098(4) 0.6714(2) 0.9175(3)
Sm6 Sm 0.310315(17) 0.653984(11) 0.906156(12)
O5 O 0.4125(3) 0.15594(19) 0.0932(2)
O6 O 0.5908(3) 0.2185(2) 0.0216(2)
C5 C 0.4903(4) 0.1645(2) 0.0262(3)
Sm3 Sm 0.472853(17) 0.163702(11) 0.253892(12)
Sm5 Sm 0.689685(17) 0.346016(11) 0.093844(12)
O21 O 0.2948(3) 0.6273(2) 0.06817(18)
H8 H 0.319209 0.483216 0.00261871
Sm1 Sm 0.527147(17) 0.836298(11) 0.746108(12)
O1 O 0.6486(3) 0.98523(19) 0.78386(19)
O2 O 0.4214(3) 0.97620(18) 0.8047(2)
O3 O 0.2885(3) 0.85322(19) 0.6747(2)
O4 O 0.2830(3) 0.77812(19) 0.80103(19)
O7 O 0.5592(3) 0.6041(2) 0.93795(19)
O8 O 0.5389(3) 0.68385(18) 0.81386(18)
O13 O 0.5323(3) 0.92798(19) 0.60673(18)
O14 O 0.5149(3) 0.7208(2) 0.62846(19)
O15 O 0.3082(3) 0.5738(2) 0.7613(2)
O16 O 0.2852(3) 0.49499(19) 0.9399(2)
C3 C 0.2196(4) 0.8145(2) 0.7344(3)
C4 C 0.0637(4) 0.8140(3) 0.7283(3)
H2 H 0.0132 0.7991 0.7789
C7 C 0.6138(4) 0.6442(2) 0.8727(2)
C8 C 0.7691(4) 0.6445(3) 0.8655(3)
H4 H 0.8068 0.6238 0.8122
C10 C 0.8563(4) 0.6719(3) 0.9295(3)
H5 H 0.8208 0.6921 0.9836
H6 H 0.0493 0.8439 0.6026
O17 O 0.5875(3) 0.84406(19) 0.9068(2)
O18 O 0.4092(3) 0.7815(2) 0.9784(2)
O22 O 0.7654(3) 0.8200(2) 0.70702(19)
H7 H 0.341417 0.458999 0.897417
H9 H 0.63133 0.941307 0.591959
H10 H 0.486656 0.893952 0.556303
H11 H 0.387342 0.595444 0.724744
H12 H 0.318521 0.507989 0.77224
H13 H 0.609594 0.694161 0.620824
H14 H 0.448187 0.67276 0.645981
O11 O 0.7948(3) 0.8727(2) 0.56817(18)
C11 C 0.8410(4) 0.8419(2) 0.6424(3)
C12 C 0.9961(4) 0.8339(3) 0.6533(3)
Sm7 Sm 0.810315(17) 0.846016(11) 0.406156(12)
Sm2 Sm 0.189685(17) 0.153984(11) 0.593844(12)
O2_2 O 0.0786(3) 0.47620(18) 0.6953(2)
O3_2 O 0.2115(3) 0.35322(19) 0.8253(2)
O4_2 O 0.2170(3) 0.27812(19) 0.69897(19)
O5_2 O 0.0875(3) 0.65594(19) 0.4068(2)
O11_2 O 0.7052(3) 0.3727(2) 0.93183(18)
O12 O 0.7346(3) 0.3200(2) 0.79298(19)
O15_2 O 0.1918(3) 0.0738(2) 0.7387(2)
C3_2 C 0.2804(4) 0.3145(2) 0.7656(3)
C4_2 C 0.4363(4) 0.3140(3) 0.7717(3)
H2_2 H 0.4868 0.2991 0.7211
C5_2 C 0.0097(4) 0.6645(2) 0.4738(3)
C6 C 0.0391(4) 0.6026(3) 0.5517(3)
H3 H 0.1250 0.5727 0.5557
C11_2 C 0.6590(4) 0.3419(2) 0.8576(3)
C12_2 C 0.5039(4) 0.3339(3) 0.8467(3)
H6_2 H 0.4507 0.3439 0.8974
Sm3_2 Sm 0.027147(17) 0.663702(11) 0.246108(12)
Sm4 Sm 0.972853(17) 0.336298(11) 0.753892(12)
O18_2 O 0.0908(3) 0.2815(2) 0.5216(2)
O19 O 0.4136(3) 0.22951(19) 0.54266(19)
O20 O 0.4359(3) 0.1124(2) 0.6319(2)
O21_2 O 0.2052(3) 0.1273(2) 0.43183(18)
H10_2 H 0.0133436 0.393952 0.943697
H11_2 H 0.112658 0.0954436 0.775256
H12_2 H 0.181479 0.0079887 0.72776
H14_2 H 0.0518131 0.17276 0.854019
O1_2 O 0.8514(3) 0.48523(19) 0.71614(19)
O6_2 O 0.9092(3) 0.7185(2) 0.4784(2)
O7_2 O 0.9408(3) 0.1041(2) 0.56205(19)
O8_2 O 0.9611(3) 0.18385(18) 0.68614(18)
O13_2 O 0.9677(3) 0.42798(19) 0.89327(18)
O14_2 O 0.9851(3) 0.2208(2) 0.87154(19)
C1 C 0.9604(4) 0.5141(3) 0.6807(3)
C2 C 0.9470(4) 0.5894(3) 0.6146(3)
H1 H 0.8708 0.6284 0.6181
C7_2 C 0.8862(4) 0.1442(2) 0.6273(2)
C8_2 C 0.7309(4) 0.1445(3) 0.6345(3)
H4_2 H 0.6932 0.1238 0.6878
C9_2 C 0.4902(4) 0.1714(2) 0.5825(3)
C10_2 C 0.6437(4) 0.1719(3) 0.5705(3)
H5_2 H 0.6792 0.1921 0.5164
O17_2 O 0.9125(3) 0.34406(19) 0.5932(2)
H9_2 H 0.86867 0.441307 0.908041
H13_2 H 0.890406 0.194161 0.879176
O12_2 O 0.2346(3) 0.1800(2) 0.29298(19)
C11_3 C 0.1590(4) 0.1581(2) 0.3576(3)
C12_3 C 0.0039(4) 0.1661(3) 0.3467(3)
O1_3 O 0.3514(3) 0.01477(19) 0.21614(19)
O2_3 O 0.5786(3) 0.02380(18) 0.1953(2)
O3_3 O 0.7115(3) 0.14678(19) 0.3253(2)
O4_3 O 0.7170(3) 0.22188(19) 0.19897(19)
O7_3 O 0.4408(3) 0.3959(2) 0.06205(19)
O8_3 O 0.4611(3) 0.31615(18) 0.18614(18)
O13_3 O 0.4677(3) 0.07202(19) 0.39327(18)
O14_3 O 0.4851(3) 0.2792(2) 0.37154(19)
O15_3 O 0.6918(3) 0.4262(2) 0.2387(2)
O16_2 O 0.7148(3) 0.50501(19) 0.0601(2)
C3_3 C 0.7804(4) 0.1855(2) 0.2656(3)
C4_3 C 0.9363(4) 0.1860(3) 0.2717(3)
H2_3 H 0.9868 0.2009 0.2211
C7_3 C 0.3862(4) 0.3558(2) 0.1273(2)
C8_3 C 0.2309(4) 0.3555(3) 0.1345(3)
H4_3 H 0.1932 0.3762 0.1878
C10_3 C 0.1437(4) 0.3281(3) 0.0705(3)
H5_3 H 0.1792 0.3079 0.0164
H6_3 H 0.9507 0.1561 0.3974
O19_2 O 0.9136(3) 0.27049(19) 0.04266(19)
O20_2 O 0.9359(3) 0.3876(2) 0.1319(2)
H7_2 H 0.658583 0.541001 0.102583
H9_3 H 0.36867 0.0586929 0.408041
H10_3 H 0.513344 0.106048 0.443697
H11_3 H 0.612658 0.404556 0.275256
H12_3 H 0.681479 0.492011 0.22776
H13_3 H 0.390406 0.305839 0.379176
H14_3 H 0.551813 0.32724 0.354019
H8_2 H 0.680791 0.516784 0.997381
C5_3 C 0.5097(4) 0.8355(2) 0.9738(3)
C9_3 C 0.9902(4) 0.3286(2) 0.0825(3)
O1_4 O 0.1486(3) 0.51477(19) 0.28386(19)
O7_4 O 0.0592(3) 0.8959(2) 0.43795(19)
O8_4 O 0.0389(3) 0.81615(18) 0.31386(18)
O9_2 O 0.5864(3) 0.77049(19) 0.45734(19)
O10_2 O 0.5641(3) 0.8876(2) 0.3681(2)
O13_4 O 0.0323(3) 0.57202(19) 0.10673(18)
O14_4 O 0.0149(3) 0.7792(2) 0.12846(19)
C1_2 C 0.0396(4) 0.4859(3) 0.3193(3)
C2_2 C 0.0530(4) 0.4106(3) 0.3854(3)
H1_2 H 0.1292 0.3716 0.3819
C7_4 C 0.1138(4) 0.8558(2) 0.3727(2)
C8_4 C 0.2691(4) 0.8555(3) 0.3655(3)
H4_4 H 0.3068 0.8762 0.3122
C9_4 C 0.5098(4) 0.8286(2) 0.4175(3)
C10_4 C 0.3563(4) 0.8281(3) 0.4295(3)
H5_4 H 0.3208 0.8079 0.4836
O22_2 O 0.2654(3) 0.6800(2) 0.20702(19)
H9_4 H 0.13133 0.558693 0.091959
H13_4 H 0.109594 0.805839 0.120824
O2_4 O 0.9214(3) 0.52380(18) 0.3047(2)
O3_4 O 0.7885(3) 0.64678(19) 0.1747(2)
O4_4 O 0.7830(3) 0.72188(19) 0.30103(19)
O15_4 O 0.8082(3) 0.9262(2) 0.2613(2)
C3_4 C 0.7196(4) 0.6855(2) 0.2344(3)
C4_4 C 0.5637(4) 0.6860(3) 0.2283(3)
H2_4 H 0.5132 0.7009 0.2789
C5_4 C 0.9903(4) 0.3355(2) 0.5262(3)
C6_2 C 0.9609(4) 0.3974(3) 0.4483(3)
H3_2 H 0.8750 0.4273 0.4443
C11_4 C 0.3410(4) 0.6581(2) 0.1424(3)
C12_4 C 0.4961(4) 0.6661(3) 0.1533(3)
H6_4 H 0.5493 0.6561 0.1026
H10_4 H 0.986656 0.606048 0.0563026
H11_4 H 0.887342 0.904556 0.224744
H12_4 H 0.818521 0.992011 0.27224
H14_4 H 0.948187 0.82724 0.145981
C1_3 C 0.5396(4) 0.0141(3) 0.8193(3)
C2_3 C 0.5530(4) 0.0894(3) 0.8854(3)
H1_3 H 0.6292 0.1284 0.8819
C6_3 C 0.4609(4) 0.1026(3) 0.9483(3)
H3_3 H 0.3750 0.0727 0.9443
O16_3 O 0.2148(3) 0.99499(19) 0.5601(2)
H7_3 H 0.158583 0.958999 0.602583
H8_3 H 0.180791 0.983216 0.497381
C1_4 C 0.4604(4) 0.9859(3) 0.1807(3)
C2_4 C 0.4470(4) 0.9106(3) 0.1146(3)
H1_4 H 0.3708 0.8716 0.1181
C6_4 C 0.5391(4) 0.8974(3) 0.0517(3)
H3_4 H 0.6250 0.9273 0.0557
O16_4 O 0.7852(3) 0.00501(19) 0.4399(2)
H7_4 H 0.841417 0.0410014 0.397417
H8_4 H 0.819209 0.0167838 0.502619
loop_
_geom_bond_atom_site_label_1
_geom_bond_atom_site_label_2
_geom_bond_site_symmetry_1
_geom_bond_site_symmetry_2
O9 C9 1_555 1_555
O10 C9 1_555 1_555
Sm6 O9 1_555 1_555
O10 Sm6 1_555 1_555
O5 C5 1_555 1_555
O6 C5 1_555 1_555
Sm3 O5 1_555 1_555
Sm5 O6 1_555 1_555
Sm1 O1 1_555 1_555
Sm6 O4 1_555 1_555
O2 Sm1 1_555 1_555
O3 Sm1 1_555 1_555
O4 Sm1 1_555 1_555
O7 Sm6 1_555 1_555
O8 Sm1 1_555 1_555
O13 Sm1 1_555 1_555
O14 Sm1 1_555 1_555
O15 Sm6 1_555 1_555
O16 Sm6 1_555 1_555
C3 O3 1_555 1_555
C4 C3 1_555 1_555
H2 C4 1_555 1_555
C7 O7 1_555 1_555
C8 C7 1_555 1_555
H4 C8 1_555 1_555
C10 C8 1_555 1_555
H5 C10 1_555 1_555
O17 Sm1 1_555 1_555
O18 Sm6 1_555 1_555
O22 Sm1 1_555 1_555
Sm6 O8 1_555 1_555
O4 C3 1_555 1_555
O8 C7 1_555 1_555
O16 H7 1_555 1_555
O13 H9 1_555 1_555
O13 H10 1_555 1_555
O15 H11 1_555 1_555
O15 H12 1_555 1_555
O14 H13 1_555 1_555
O14 H14 1_555 1_555
O11 C11 1_555 1_555
O22 C11 1_555 1_555
C11 C12 1_555 1_555
Sm7 O11 1_555 1_555
Sm2 O4_2 1_555 1_555
O5_2 C5_2 1_555 1_555
O11_2 C11_2 1_555 1_555
O12 C11_2 1_555 1_555
O15_2 Sm2 1_555 1_555
C3_2 O3_2 1_555 1_555
C4_2 C3_2 1_555 1_555
H2_2 C4_2 1_555 1_555
C5_2 C6 1_555 1_555
H3 C6 1_555 1_555
C11_2 C12_2 1_555 1_555
C12_2 C4_2 1_555 1_555
H6_2 C12_2 1_555 1_555
Sm3_2 O5_2 1_555 1_555
Sm4 O12 1_555 1_555
O18_2 Sm2 1_555 1_555
O19 Sm2 1_555 1_555
O20 Sm2 1_555 1_555
O21_2 Sm2 1_555 1_555
O4_2 C3_2 1_555 1_555
O15_2 H11_2 1_555 1_555
O15_2 H12_2 1_555 1_555
Sm4 O1_2 1_555 1_555
O1_2 C1 1_555 1_555
O8_2 Sm4 1_555 1_555
O19 C9_2 1_555 1_555
O20 C9_2 1_555 1_555
O13_2 Sm4 1_555 1_555
O14_2 Sm4 1_555 1_555
C2 C1 1_555 1_555
H1 C2 1_555 1_555
C7_2 O7_2 1_555 1_555
C8_2 C7_2 1_555 1_555
H4_2 C8_2 1_555 1_555
C9_2 C10_2 1_555 1_555
C10_2 C8_2 1_555 1_555
H5_2 C10_2 1_555 1_555
Sm7 O6_2 1_555 1_555
O17_2 Sm4 1_555 1_555
O8_2 C7_2 1_555 1_555
O13_2 H9_2 1_555 1_555
O14_2 H13_2 1_555 1_555
O21_2 C11_3 1_555 1_555
O12_2 C11_3 1_555 1_555
C11_3 C12_3 1_555 1_555
Sm3 O12_2 1_555 1_555
Sm3 O1_3 1_555 1_555
Sm5 O4_3 1_555 1_555
O2_3 Sm3 1_555 1_555
O3_3 Sm3 1_555 1_555
O4_3 Sm3 1_555 1_555
O7_3 Sm5 1_555 1_555
O8_3 Sm3 1_555 1_555
O13_3 Sm3 1_555 1_555
O14_3 Sm3 1_555 1_555
O15_3 Sm5 1_555 1_555
O16_2 Sm5 1_555 1_555
C3_3 O3_3 1_555 1_555
C4_3 C3_3 1_555 1_555
H2_3 C4_3 1_555 1_555
C7_3 O7_3 1_555 1_555
C8_3 C7_3 1_555 1_555
H4_3 C8_3 1_555 1_555
C10_3 C8_3 1_555 1_555
H5_3 C10_3 1_555 1_555
O19_2 Sm5 1_555 1_555
O20_2 Sm5 1_555 1_555
Sm5 O8_3 1_555 1_555
O4_3 C3_3 1_555 1_555
O8_3 C7_3 1_555 1_555
O16_2 H7_2 1_555 1_555
O13_3 H9_3 1_555 1_555
O13_3 H10_3 1_555 1_555
O15_3 H11_3 1_555 1_555
O15_3 H12_3 1_555 1_555
O14_3 H13_3 1_555 1_555
O14_3 H14_3 1_555 1_555
O17 C5_3 1_555 1_555
O18 C5_3 1_555 1_555
O19_2 C9_3 1_555 1_555
O20_2 C9_3 1_555 1_555
Sm3_2 O1_4 1_555 1_555
O1_4 C1_2 1_555 1_555
O8_4 Sm3_2 1_555 1_555
O9_2 C9_4 1_555 1_555
O10_2 C9_4 1_555 1_555
O13_4 Sm3_2 1_555 1_555
O14_4 Sm3_2 1_555 1_555
C2_2 C1_2 1_555 1_555
H1_2 C2_2 1_555 1_555
C7_4 O7_4 1_555 1_555
C8_4 C7_4 1_555 1_555
H4_4 C8_4 1_555 1_555
C9_4 C10_4 1_555 1_555
C10_4 C8_4 1_555 1_555
H5_4 C10_4 1_555 1_555
Sm7 O9_2 1_555 1_555
O22_2 Sm3_2 1_555 1_555
O8_4 C7_4 1_555 1_555
O10_2 Sm7 1_555 1_555
O13_4 H9_4 1_555 1_555
O14_4 H13_4 1_555 1_555
Sm7 O4_4 1_555 1_555
O17_2 C5_4 1_555 1_555
O21 C11_4 1_555 1_555
O22_2 C11_4 1_555 1_555
O15_4 Sm7 1_555 1_555
C3_4 O3_4 1_555 1_555
C4_4 C3_4 1_555 1_555
H2_4 C4_4 1_555 1_555
C5_4 C6_2 1_555 1_555
H3_2 C6_2 1_555 1_555
C11_4 C12_4 1_555 1_555
C12_4 C4_4 1_555 1_555
H6_4 C12_4 1_555 1_555
O4_4 C3_4 1_555 1_555
O15_4 H11_4 1_555 1_555
O15_4 H12_4 1_555 1_555
C2_3 C1_3 1_555 1_555
H1_3 C2_3 1_555 1_555
C6_3 C2_3 1_555 1_555
H3_3 C6_3 1_555 1_555
O16_3 H7_3 1_555 1_555
O16_3 H8_3 1_555 1_555
C2_4 C1_4 1_555 1_555
H1_4 C2_4 1_555 1_555
C6_4 C2_4 1_555 1_555
H3_4 C6_4 1_555 1_555
O16_4 H7_4 1_555 1_555
O16_4 H8_4 1_555 1_555

#END
