
###############################################################################
#
# This file contains modified crystal structure data generated from the
# MOF subset of the Cambridge Structural Database (CSD) v543 
# hosted by the Cambridge Crystallographic Data Centre (CCDC).
#
# This work is licensed under the Creative Commons
# Attribution-NonCommercial-ShareAlike 4.0 International License.
# To view a copy of this license, visit
# http://creativecommons.org/licenses/by-nc-sa/4.0/
# or send a letter to
# Creative Commons, PO Box 1866, Mountain View, CA 94042, USA.
#
# CIF created using the CSD Python API on 29 September 2022
# The structure has been converted into the P1 space group
# The structure has a 3D framework
# The original CSD entry SEFSEC is in the monoclinic crystal system
# The framework has been calculated to contain at least 10.0% void space
# The void calculation uses a probe of radius 1.32A, grid spacing 0.4
# The framework is charged, counterions have been retained in the structure
#
###############################################################################

data_SEFSEC
_chemical_formula_moiety         '(C112 H96 Cd4 N28 O16)n'
_symmetry_cell_setting           triclinic
_symmetry_space_group_name_H-M   'P 1'
_symmetry_Int_Tables_number      1
_space_group_name_Hall           'P 1'
loop_
_symmetry_equiv_pos_site_id
_symmetry_equiv_pos_as_xyz
1 x,y,z
_cell_length_a                   13.579(3)
_cell_length_b                   23.032(5)
_cell_length_c                   9.889(2)
_cell_angle_alpha                90
_cell_angle_beta                 109.662(4)
_cell_angle_gamma                90
_cell_volume                     2912.47
loop_
_atom_site_label
_atom_site_type_symbol
_atom_site_fract_x
_atom_site_fract_y
_atom_site_fract_z
H10 H 0.0556 0.6680 0.0686
C16 C 0.1808(3) 0.79166(14) 0.0229(4)
H15 H 0.2096 0.8227 0.0833
Cd3 Cd 0.405935(17) 0.717522(9) 0.10026(2)
C14 C 0.1676(3) 0.71346(15) 0.9033(4)
H13 H 0.1837 0.6797 0.8634
C15 C 0.0803(3) 0.78392(16) 0.9528(4)
H14 H 0.0262 0.8081 0.9557
N5 N 0.0699(2) 0.73349(12) 0.8748(3)
N6 N 0.2370(2) 0.74631(11) 0.9925(3)
C1 C 0.3198(3) 0.58708(13) 0.1422(4)
H1 H 0.3461 0.5709 0.0752
C2 C 0.2366(3) 0.59712(14) 0.2914(4)
H2 H 0.1954 0.5898 0.3480
C3 C 0.2818(3) 0.64758(14) 0.2804(4)
H3 H 0.2778 0.6817 0.3285
C4 C 0.6597(3) 0.71142(18) 0.2934(5)
H4 H 0.6593 0.7453 0.3444
C5 C 0.6106(3) 0.64075(14) 0.1490(4)
H5 H 0.5695 0.6151 0.0804
C6 C 0.7434(3) 0.67978(19) 0.3071(5)
H6 H 0.8109 0.6868 0.3693
C7 C 0.7808(3) 0.59439(14) 0.1728(4)
H7 H 0.7403 0.5610 0.1252
H8 H 0.8353 0.5808 0.2585
C8 C 0.8295(2) 0.62235(12) 0.0752(4)
C9 C 0.9363(2) 0.63300(15) 0.1238(4)
H9 H 0.9768 0.6217 0.2160
C10 C 0.9841(3) 0.66081(16) 0.0349(4)
C18 C 0.2191(3) 0.49946(14) 0.1687(5)
H18 H 0.2290 0.4782 0.2570
H19 H 0.2574 0.4793 0.1159
C19 C 0.1062(3) 0.49971(12) 0.0819(4)
C21 C 0.0333(3) 0.47777(14) 0.1378(4)
H21 H 0.0547 0.4625 0.2302
C22 C 0.5129(3) 0.83846(14) 0.0207(4)
C23 C 0.5381(3) 0.89571(15) 0.0225(4)
C24 C 0.5149(3) 0.93176(15) 0.1163(4)
H24 H 0.5303 0.9711 0.1172
C25 C 0.4690(2) 0.91031(13) 0.2095(3)
C26 C 0.4508(2) 0.85054(12) 0.2069(3)
C27 C 0.4436(3) 0.95252(13) 0.3102(4)
C28 C 0.4173(2) 0.82021(12) 0.3205(3)
N1 N 0.3353(2) 0.64037(11) 0.1861(3)
N2 N 0.2620(2) 0.55830(10) 0.2041(3)
N3 N 0.5744(2) 0.68772(12) 0.1945(3)
N4 N 0.7126(2) 0.63508(11) 0.2136(3)
N7 N 0.4704(2) 0.81631(10) 0.1117(3)
O1 O 0.5226(2) 0.96511(9) 0.4217(3)
O2 O 0.3560(2) 0.97339(12) 0.2770(4)
O3 O 0.3997(2) 0.85060(9) 0.4134(3)
O4 O 0.4123(2) 0.76636(8) 0.3166(3)
Cd4 Cd 0.405935(17) 0.782478(9) 0.60026(2)
C11 C 0.9246(3) 0.67730(14) 0.8982(4)
C12 C 0.8184(3) 0.66517(14) 0.8479(4)
H11 H 0.7778 0.6744 0.7542
C13 C 0.7730(3) 0.63884(14) 0.9402(4)
H12 H 0.7012 0.6325 0.9073
C17 C 0.9728(3) 0.70459(17) 0.7978(4)
H16 H 0.9857 0.6749 0.7363
H17 H 0.9243 0.7325 0.7371
C20 C 0.0725(3) 0.52146(15) 0.9449(4)
H20 H 0.1212 0.5360 0.9064
H22 H 0.5261 0.8141 0.9536
H23 H 0.5707 0.9100 0.9603
C50 C 0.5129(3) 0.66154(14) 0.5207(4)
H46 H 0.5261 0.6859 0.4536
C51 C 0.5381(3) 0.60429(15) 0.5225(4)
H47 H 0.5707 0.5900 0.4603
C52 C 0.5149(3) 0.56824(15) 0.6163(4)
H48 H 0.5303 0.5289 0.6172
C53 C 0.4690(2) 0.58969(13) 0.7095(3)
C54 C 0.4508(2) 0.64946(12) 0.7069(3)
C55 C 0.4436(3) 0.54748(13) 0.8102(4)
C56 C 0.4173(2) 0.67979(12) 0.8205(3)
N16 N 0.4704(2) 0.68369(10) 0.6117(3)
O5 O 0.5226(2) 0.53489(9) 0.9217(3)
O6 O 0.3560(2) 0.52661(12) 0.7770(4)
O7 O 0.3997(2) 0.64940(9) 0.9134(3)
O9 O 0.4123(2) 0.73364(8) 0.8166(3)
C48 C 0.9275(3) 0.47854(15) 0.0551(4)
H44 H 0.8788 0.4640 0.0936
N15 N 0.7630(2) 0.25369(11) 0.0075(3)
O8 O 0.6003(2) 0.35060(9) 0.0866(3)
Cd2 Cd 0.594065(17) 0.282478(9) 0.89974(2)
C29 C 0.6802(3) 0.41292(13) 0.8578(4)
H25 H 0.6539 0.4291 0.9248
C30 C 0.7634(3) 0.40288(14) 0.7086(4)
H26 H 0.8046 0.4102 0.6520
C31 C 0.7182(3) 0.35242(14) 0.7196(4)
H27 H 0.7222 0.3183 0.6715
C46 C 0.7809(3) 0.50054(14) 0.8313(5)
H42 H 0.7710 0.5218 0.7430
H43 H 0.7426 0.5207 0.8841
C47 C 0.8938(3) 0.50029(12) 0.9181(4)
C49 C 0.9667(3) 0.52223(14) 0.8622(4)
H45 H 0.9453 0.5375 0.7698
N8 N 0.6647(2) 0.35963(11) 0.8139(3)
N9 N 0.7380(2) 0.44170(10) 0.7959(3)
N11 N 0.4256(2) 0.31228(12) 0.8055(3)
N17 N 0.5296(2) 0.18369(10) 0.8883(3)
O10 O 0.5877(2) 0.23364(8) 0.6834(3)
Cd5 Cd 0.594065(17) 0.217522(9) 0.39974(2)
C32 C 0.3403(3) 0.21142(18) 0.2066(5)
H28 H 0.3407 0.2453 0.1556
C33 C 0.3894(3) 0.14075(14) 0.3510(4)
H29 H 0.4305 0.1151 0.4196
C34 C 0.2566(3) 0.17978(19) 0.1929(5)
H30 H 0.1891 0.1868 0.1307
C35 C 0.2192(3) 0.09439(14) 0.3272(4)
H31 H 0.2597 0.0610 0.3748
H32 H 0.1647 0.0808 0.2415
C36 C 0.1705(2) 0.12235(12) 0.4248(4)
C37 C 0.0637(2) 0.13300(15) 0.3762(4)
H33 H 0.0232 0.1217 0.2840
C38 C 0.0159(3) 0.16081(16) 0.4651(4)
C39 C 0.0754(3) 0.17730(14) 0.6018(4)
C40 C 0.1816(3) 0.16517(14) 0.6521(4)
H35 H 0.2222 0.1744 0.7458
C41 C 0.2270(3) 0.13884(14) 0.5598(4)
H36 H 0.2988 0.1325 0.5927
C45 C 0.0272(3) 0.20459(17) 0.7022(4)
H40 H 0.0143 0.1749 0.7637
H41 H 0.0757 0.2325 0.7629
C46_2 C 0.2191(3) 0.00054(14) 0.6687(5)
H42_2 H 0.2290 0.0218 0.7570
H43_2 H 0.2574 0.0207 0.6159
C47_2 C 0.1062(3) 0.00029(12) 0.5819(4)
C49_2 C 0.0333(3) 0.02223(14) 0.6378(4)
H45_2 H 0.0547 0.0375 0.7302
N10 N 0.4256(2) 0.18772(12) 0.3055(3)
N12 N 0.2874(2) 0.13508(11) 0.2864(3)
C29_2 C 0.3198(3) 0.91292(13) 0.6422(4)
H25_2 H 0.3461 0.9291 0.5752
C30_2 C 0.2366(3) 0.90288(14) 0.7914(4)
H26_2 H 0.1954 0.9102 0.8480
C31_2 C 0.2818(3) 0.85242(14) 0.7804(4)
H27_2 H 0.2778 0.8183 0.8285
C48_2 C 0.0725(3) 0.97854(15) 0.4449(4)
H44_2 H 0.1212 0.9640 0.4064
N8_2 N 0.3353(2) 0.85963(11) 0.6861(3)
N9_2 N 0.2620(2) 0.94170(10) 0.7041(3)
N11_2 N 0.5744(2) 0.81228(12) 0.6945(3)
N15_2 N 0.2370(2) 0.75369(11) 0.4925(3)
H46_2 H 0.4739 0.1859 0.0464
H47_2 H 0.4293 0.0900 0.0397
C1_2 C 0.6802(3) 0.08708(13) 0.3578(4)
H1_2 H 0.6539 0.0709 0.4248
C2_2 C 0.7634(3) 0.09712(14) 0.2086(4)
H2_2 H 0.8046 0.0898 0.1520
C3_2 C 0.7182(3) 0.14758(14) 0.2196(4)
H3_2 H 0.7222 0.1817 0.1715
C20_2 C 0.9275(3) 0.02146(15) 0.5551(4)
H20_2 H 0.8788 0.0360 0.5936
C22_2 C 0.4871(3) 0.33846(14) 0.4793(4)
H22_2 H 0.4739 0.3141 0.5464
C23_2 C 0.4619(3) 0.39571(15) 0.4775(4)
H23_2 H 0.4293 0.4100 0.5397
C24_2 C 0.4851(3) 0.43176(15) 0.3837(4)
H24_2 H 0.4697 0.4711 0.3828
C25_2 C 0.5310(2) 0.41031(13) 0.2905(3)
C26_2 C 0.5492(2) 0.35054(12) 0.2931(3)
C27_2 C 0.5564(3) 0.45252(13) 0.1898(4)
C28_2 C 0.5827(2) 0.32021(12) 0.1795(3)
N1_2 N 0.6647(2) 0.14037(11) 0.3139(3)
N2_2 N 0.7380(2) 0.05830(10) 0.2959(3)
N7_2 N 0.5296(2) 0.31631(10) 0.3883(3)
O1_2 O 0.4774(2) 0.46511(9) 0.0783(3)
O2_2 O 0.6440(2) 0.47339(12) 0.2230(4)
O4_2 O 0.5877(2) 0.26636(8) 0.1834(3)
H34 H 0.9444 0.1680 0.4314
C42 C 0.8324(3) 0.21346(15) 0.5967(4)
H37 H 0.8163 0.1797 0.6366
C43 C 0.9197(3) 0.28392(16) 0.5472(4)
H38 H 0.9738 0.3081 0.5443
C44 C 0.8192(3) 0.29166(14) 0.4771(4)
H39 H 0.7904 0.3227 0.4167
C50_2 C 0.4871(3) 0.16154(14) 0.9793(4)
C51_2 C 0.4619(3) 0.10429(15) 0.9775(4)
C52_2 C 0.4851(3) 0.06824(15) 0.8837(4)
H48_2 H 0.4697 0.0289 0.8828
C53_2 C 0.5310(2) 0.08969(13) 0.7905(3)
C54_2 C 0.5492(2) 0.14946(12) 0.7931(3)
C55_2 C 0.5564(3) 0.04748(13) 0.6898(4)
C56_2 C 0.5827(2) 0.17979(12) 0.6795(3)
N13 N 0.9301(2) 0.23349(12) 0.6252(3)
N14 N 0.7630(2) 0.24631(11) 0.5075(3)
O5_2 O 0.4774(2) 0.03489(9) 0.5783(3)
O6_2 O 0.6440(2) 0.02661(12) 0.7230(4)
O7_2 O 0.6003(2) 0.14940(9) 0.5866(3)
C18_2 C 0.7809(3) 0.99946(14) 0.3313(5)
H18_2 H 0.7710 0.9782 0.2430
H19_2 H 0.7426 0.9793 0.3841
C19_2 C 0.8938(3) 0.99971(12) 0.4181(4)
C21_2 C 0.9667(3) 0.97777(14) 0.3622(4)
H21_2 H 0.9453 0.9625 0.2698
C39_2 C 0.0754(3) 0.32270(14) 0.1018(4)
C40_2 C 0.1816(3) 0.33483(14) 0.1521(4)
H35_2 H 0.2222 0.3256 0.2458
C41_2 C 0.2270(3) 0.36116(14) 0.0598(4)
H36_2 H 0.2988 0.3675 0.0927
C45_2 C 0.0272(3) 0.29541(17) 0.2022(4)
H40_2 H 0.0143 0.3251 0.2637
H41_2 H 0.0757 0.2675 0.2629
C32_2 C 0.3403(3) 0.28858(18) 0.7066(5)
H28_2 H 0.3407 0.2547 0.6556
C33_2 C 0.3894(3) 0.35925(14) 0.8510(4)
H29_2 H 0.4305 0.3849 0.9196
C34_2 C 0.2566(3) 0.32022(19) 0.6929(5)
H30_2 H 0.1891 0.3132 0.6307
C35_2 C 0.2192(3) 0.40561(14) 0.8272(4)
H31_2 H 0.2597 0.4390 0.8748
H32_2 H 0.1647 0.4192 0.7415
C36_2 C 0.1705(2) 0.37765(12) 0.9248(4)
C37_2 C 0.0637(2) 0.36700(15) 0.8762(4)
H33_2 H 0.0232 0.3783 0.7840
C38_2 C 0.0159(3) 0.33919(16) 0.9651(4)
N12_2 N 0.2874(2) 0.36492(11) 0.7864(3)
C42_2 C 0.8324(3) 0.28654(15) 0.0967(4)
H37_2 H 0.8163 0.3203 0.1366
C43_2 C 0.9197(3) 0.21608(16) 0.0472(4)
H38_2 H 0.9738 0.1919 0.0443
N13_2 N 0.9301(2) 0.26651(12) 0.1252(3)
H34_2 H 0.9444 0.3320 0.9314
C44_2 C 0.8192(3) 0.20834(14) 0.9771(4)
H39_2 H 0.7904 0.1773 0.9167
H10_2 H 0.0556 0.8320 0.5686
C14_2 C 0.1676(3) 0.78654(15) 0.4033(4)
H13_2 H 0.1837 0.8203 0.3634
C15_2 C 0.0803(3) 0.71608(16) 0.4528(4)
H14_2 H 0.0262 0.6919 0.4557
C16_2 C 0.1808(3) 0.70834(14) 0.5229(4)
H15_2 H 0.2096 0.6773 0.5833
N5_2 N 0.0699(2) 0.76651(12) 0.3748(3)
C4_2 C 0.6597(3) 0.78858(18) 0.7934(5)
H4_2 H 0.6593 0.7547 0.8444
C5_2 C 0.6106(3) 0.85925(14) 0.6490(4)
H5_2 H 0.5695 0.8849 0.5804
C6_2 C 0.7434(3) 0.82022(19) 0.8071(5)
H6_2 H 0.8109 0.8132 0.8693
C7_2 C 0.7808(3) 0.90561(14) 0.6728(4)
H7_2 H 0.7403 0.9390 0.6252
H8_2 H 0.8353 0.9192 0.7585
C8_2 C 0.8295(2) 0.87765(12) 0.5752(4)
C9_2 C 0.9363(2) 0.86700(15) 0.6238(4)
H9_2 H 0.9768 0.8783 0.7160
C10_2 C 0.9841(3) 0.83919(16) 0.5349(4)
C11_2 C 0.9246(3) 0.82270(14) 0.3982(4)
C12_2 C 0.8184(3) 0.83483(14) 0.3479(4)
H11_2 H 0.7778 0.8256 0.2542
C13_2 C 0.7730(3) 0.86116(14) 0.4402(4)
H12_2 H 0.7012 0.8675 0.4073
C17_2 C 0.9728(3) 0.79541(17) 0.2978(4)
H16_2 H 0.9857 0.8251 0.2363
H17_2 H 0.9243 0.7675 0.2371
N4_2 N 0.7126(2) 0.86492(11) 0.7136(3)
loop_
_geom_bond_atom_site_label_1
_geom_bond_atom_site_label_2
_geom_bond_site_symmetry_1
_geom_bond_site_symmetry_2
H15 C16 1_555 1_555
C14 H13 1_555 1_555
C15 H14 1_555 1_555
N5 C14 1_555 1_555
N6 C14 1_555 1_555
C15 N5 1_555 1_555
Cd3 N1 1_555 1_555
C1 H1 1_555 1_555
C2 H2 1_555 1_555
C3 C2 1_555 1_555
H3 C3 1_555 1_555
C4 H4 1_555 1_555
C5 H5 1_555 1_555
C6 C4 1_555 1_555
H6 C6 1_555 1_555
C7 H7 1_555 1_555
H8 C7 1_555 1_555
C8 C7 1_555 1_555
C9 C8 1_555 1_555
H9 C9 1_555 1_555
C10 C9 1_555 1_555
C18 H18 1_555 1_555
H19 C18 1_555 1_555
C19 C18 1_555 1_555
C21 C19 1_555 1_555
H21 C21 1_555 1_555
C23 C22 1_555 1_555
C24 C23 1_555 1_555
H24 C24 1_555 1_555
C25 C24 1_555 1_555
C26 C25 1_555 1_555
C27 C25 1_555 1_555
C28 C26 1_555 1_555
N1 C1 1_555 1_555
N2 C1 1_555 1_555
N3 Cd3 1_555 1_555
N4 C5 1_555 1_555
N7 Cd3 1_555 1_555
O1 C27 1_555 1_555
O2 C27 1_555 1_555
O3 C28 1_555 1_555
O4 Cd3 1_555 1_555
Cd4 O3 1_555 1_555
C2 N2 1_555 1_555
C3 N1 1_555 1_555
C4 N3 1_555 1_555
C5 N3 1_555 1_555
C6 N4 1_555 1_555
C7 N4 1_555 1_555
C18 N2 1_555 1_555
C22 N7 1_555 1_555
C26 N7 1_555 1_555
C28 O4 1_555 1_555
C12 C11 1_555 1_555
H11 C12 1_555 1_555
H12 C13 1_555 1_555
C17 C11 1_555 1_555
H16 C17 1_555 1_555
H17 C17 1_555 1_555
H20 C20 1_555 1_555
Cd4 N16 1_555 1_555
C50 H46 1_555 1_555
C51 C50 1_555 1_555
H47 C51 1_555 1_555
C52 C51 1_555 1_555
H48 C52 1_555 1_555
C53 C52 1_555 1_555
C54 C53 1_555 1_555
C55 C53 1_555 1_555
C56 C54 1_555 1_555
N16 C50 1_555 1_555
O5 C55 1_555 1_555
O6 C55 1_555 1_555
O9 Cd4 1_555 1_555
C12 C13 1_555 1_555
C54 N16 1_555 1_555
C56 O7 1_555 1_555
C56 O9 1_555 1_555
H44 C48 1_555 1_555
Cd2 N8 1_555 1_555
C29 H25 1_555 1_555
C30 H26 1_555 1_555
C31 C30 1_555 1_555
H27 C31 1_555 1_555
C46 H42 1_555 1_555
H43 C46 1_555 1_555
C47 C46 1_555 1_555
H45 C49 1_555 1_555
N8 C29 1_555 1_555
N9 C29 1_555 1_555
N11 Cd2 1_555 1_555
N17 Cd2 1_555 1_555
O10 Cd2 1_555 1_555
C30 N9 1_555 1_555
C31 N8 1_555 1_555
C46 N9 1_555 1_555
C47 C49 1_555 1_555
Cd5 N10 1_555 1_555
C32 H28 1_555 1_555
C33 H29 1_555 1_555
C34 C32 1_555 1_555
H30 C34 1_555 1_555
C35 H31 1_555 1_555
H32 C35 1_555 1_555
C36 C35 1_555 1_555
C37 C36 1_555 1_555
H33 C37 1_555 1_555
C38 C37 1_555 1_555
C39 C38 1_555 1_555
C40 C39 1_555 1_555
H35 C40 1_555 1_555
C41 C36 1_555 1_555
H36 C41 1_555 1_555
C45 C39 1_555 1_555
H40 C45 1_555 1_555
H41 C45 1_555 1_555
C46_2 H42_2 1_555 1_555
H43_2 C46_2 1_555 1_555
C47_2 C46_2 1_555 1_555
H45_2 C49_2 1_555 1_555
N10 C32 1_555 1_555
N12 C33 1_555 1_555
C33 N10 1_555 1_555
C34 N12 1_555 1_555
C35 N12 1_555 1_555
C40 C41 1_555 1_555
C47_2 C49_2 1_555 1_555
Cd4 N8_2 1_555 1_555
C29_2 H25_2 1_555 1_555
C30_2 H26_2 1_555 1_555
C31_2 C30_2 1_555 1_555
H27_2 C31_2 1_555 1_555
H44_2 C48_2 1_555 1_555
N8_2 C29_2 1_555 1_555
N9_2 C29_2 1_555 1_555
N11_2 Cd4 1_555 1_555
N15_2 Cd4 1_555 1_555
C30_2 N9_2 1_555 1_555
C31_2 N8_2 1_555 1_555
Cd5 N1_2 1_555 1_555
C1_2 H1_2 1_555 1_555
C2_2 H2_2 1_555 1_555
C3_2 C2_2 1_555 1_555
H3_2 C3_2 1_555 1_555
H20_2 C20_2 1_555 1_555
C22_2 H22_2 1_555 1_555
C23_2 C22_2 1_555 1_555
H23_2 C23_2 1_555 1_555
C24_2 C23_2 1_555 1_555
H24_2 C24_2 1_555 1_555
C25_2 C24_2 1_555 1_555
C26_2 C25_2 1_555 1_555
C27_2 C25_2 1_555 1_555
C28_2 C26_2 1_555 1_555
N1_2 C1_2 1_555 1_555
N2_2 C1_2 1_555 1_555
N7_2 Cd5 1_555 1_555
O1_2 C27_2 1_555 1_555
O2_2 C27_2 1_555 1_555
O8 C28_2 1_555 1_555
O4_2 Cd5 1_555 1_555
C42 H37 1_555 1_555
C43 H38 1_555 1_555
C44 C43 1_555 1_555
H39 C44 1_555 1_555
C51_2 C50_2 1_555 1_555
C52_2 C51_2 1_555 1_555
H48_2 C52_2 1_555 1_555
C53_2 C52_2 1_555 1_555
C54_2 C53_2 1_555 1_555
C55_2 C53_2 1_555 1_555
C56_2 C54_2 1_555 1_555
N13 C42 1_555 1_555
N14 Cd5 1_555 1_555
N17 C50_2 1_555 1_555
O5_2 C55_2 1_555 1_555
O6_2 C55_2 1_555 1_555
O7_2 Cd5 1_555 1_555
C2_2 N2_2 1_555 1_555
C3_2 N1_2 1_555 1_555
C22_2 N7_2 1_555 1_555
C26_2 N7_2 1_555 1_555
C28_2 O4_2 1_555 1_555
C42 N14 1_555 1_555
C43 N13 1_555 1_555
C44 N14 1_555 1_555
C54_2 N17 1_555 1_555
C56_2 O7_2 1_555 1_555
C56_2 O10 1_555 1_555
C18_2 H18_2 1_555 1_555
H19_2 C18_2 1_555 1_555
C19_2 C18_2 1_555 1_555
C21_2 C19_2 1_555 1_555
H21_2 C21_2 1_555 1_555
C40_2 C39_2 1_555 1_555
H35_2 C40_2 1_555 1_555
H36_2 C41_2 1_555 1_555
C45_2 C39_2 1_555 1_555
H40_2 C45_2 1_555 1_555
H41_2 C45_2 1_555 1_555
C40_2 C41_2 1_555 1_555
C32_2 H28_2 1_555 1_555
C33_2 H29_2 1_555 1_555
C34_2 C32_2 1_555 1_555
H30_2 C34_2 1_555 1_555
C35_2 H31_2 1_555 1_555
H32_2 C35_2 1_555 1_555
C36_2 C35_2 1_555 1_555
C37_2 C36_2 1_555 1_555
H33_2 C37_2 1_555 1_555
C38_2 C37_2 1_555 1_555
N11 C32_2 1_555 1_555
N12_2 C33_2 1_555 1_555
C33_2 N11 1_555 1_555
C34_2 N12_2 1_555 1_555
C35_2 N12_2 1_555 1_555
C42_2 H37_2 1_555 1_555
C43_2 H38_2 1_555 1_555
N13_2 C42_2 1_555 1_555
C42_2 N15 1_555 1_555
C43_2 N13_2 1_555 1_555
H39_2 C44_2 1_555 1_555
C14_2 H13_2 1_555 1_555
C15_2 H14_2 1_555 1_555
C16_2 C15_2 1_555 1_555
H15_2 C16_2 1_555 1_555
N5_2 C14_2 1_555 1_555
N15_2 C14_2 1_555 1_555
C15_2 N5_2 1_555 1_555
C16_2 N15_2 1_555 1_555
C4_2 H4_2 1_555 1_555
C5_2 H5_2 1_555 1_555
C6_2 C4_2 1_555 1_555
H6_2 C6_2 1_555 1_555
C7_2 H7_2 1_555 1_555
H8_2 C7_2 1_555 1_555
C8_2 C7_2 1_555 1_555
C9_2 C8_2 1_555 1_555
H9_2 C9_2 1_555 1_555
C10_2 C9_2 1_555 1_555
C11_2 C10_2 1_555 1_555
C12_2 C11_2 1_555 1_555
H11_2 C12_2 1_555 1_555
C13_2 C8_2 1_555 1_555
H12_2 C13_2 1_555 1_555
C17_2 C11_2 1_555 1_555
H16_2 C17_2 1_555 1_555
H17_2 C17_2 1_555 1_555
N4_2 C5_2 1_555 1_555
C4_2 N11_2 1_555 1_555
C5_2 N11_2 1_555 1_555
C6_2 N4_2 1_555 1_555
C7_2 N4_2 1_555 1_555
C12_2 C13_2 1_555 1_555

#END
