
###############################################################################
#
# This file contains modified crystal structure data generated from the
# MOF subset of the Cambridge Structural Database (CSD) v543 
# hosted by the Cambridge Crystallographic Data Centre (CCDC).
#
# This work is licensed under the Creative Commons
# Attribution-NonCommercial-ShareAlike 4.0 International License.
# To view a copy of this license, visit
# http://creativecommons.org/licenses/by-nc-sa/4.0/
# or send a letter to
# Creative Commons, PO Box 1866, Mountain View, CA 94042, USA.
#
# CIF created using the CSD Python API on 29 September 2022
# The structure has been converted into the P1 space group
# The structure has a 3D framework
# The original CSD entry SEFTOO is in the cubic crystal system
# The framework has been calculated to contain at least 10.0% void space
# The void calculation uses a probe of radius 1.32A, grid spacing 0.4
#
###############################################################################

data_SEFTOO
_chemical_formula_moiety         '(C96 H144 N48 Zn24)n'
_symmetry_cell_setting           triclinic
_symmetry_space_group_name_H-M   'P 1'
_symmetry_Int_Tables_number      1
_space_group_name_Hall           'P 1'
loop_
_symmetry_equiv_pos_site_id
_symmetry_equiv_pos_as_xyz
1 x,y,z
_cell_length_a                   17.039(3)
_cell_length_b                   17.039(3)
_cell_length_c                   17.039(3)
_cell_angle_alpha                90
_cell_angle_beta                 90
_cell_angle_gamma                90
_cell_volume                     4946.89
loop_
_atom_site_label
_atom_site_type_symbol
_atom_site_fract_x
_atom_site_fract_y
_atom_site_fract_z
Zn5 Zn 0.0000 0.2500 0.5000
Zn1 Zn 0.0000 0.7500 0.5000
N1 N 0.03167(14) 0.68257(15) 0.41058(16)
C2 C 0.1012(2) 0.6868(2) 0.36910(19)
H1 H 0.1415 0.7225 0.3782
Zn2 Zn 0.0000 0.5000 0.2500
Zn3 Zn 0.0000 0.5000 0.7500
C4 C 0.00640(14) 0.62272(14) 0.6227(4)
N2 N 0.03167(14) 0.58942(16) 0.31743(15)
N7 N 0.08942(16) 0.81743(15) 0.53167(14)
C7 C 0.1012(2) 0.63090(19) 0.3132(2)
H4 H 0.1415 0.6218 0.2775
C14 C 0.0855(3) 0.5941(3) 0.5941(3)
H11 H 0.1264 0.6219 0.6211
H15 H 0.0903 0.5389 0.6044
H16 H 0.0903 0.6044 0.5389
Zn4 Zn 0.7500 0.0000 0.5000
Zn5_2 Zn 1.0000 0.2500 0.5000
C6 C 0.87728(14) 0.1227(4) 0.49360(14)
N8 N 0.81743(15) 0.08942(16) 0.53167(14)
N9 N 0.91058(16) 0.18257(15) 0.53167(14)
N11 N 0.68257(15) 0.03167(14) 0.41058(16)
C12 C 0.8132(2) 0.13090(19) 0.6012(2)
C13 C 0.86910(19) 0.1868(2) 0.6012(2)
H9 H 0.7775 0.1218 0.6415
H10 H 0.8782 0.2225 0.6415
C16 C 0.9059(3) 0.0941(3) 0.4145(3)
H13 H 0.8781 0.1211 0.3736
H19 H 0.9611 0.1044 0.4097
H20 H 0.8956 0.0389 0.4097
Zn1_2 Zn 1.0000 0.7500 0.5000
C1 C 0.99360(14) 0.62272(14) 0.3773(4)
C3 C 0.9145(3) 0.5941(3) 0.4059(3)
H2 H 0.8736 0.6219 0.3789
H3 H 0.9097 0.5389 0.3956
Zn2_2 Zn 1.0000 0.5000 0.2500
Zn3_2 Zn 1.0000 0.5000 0.7500
Zn4_2 Zn 0.7500 1.0000 0.5000
C5 C 0.8773(4) 0.87728(14) 0.50640(14)
N3 N 0.96833(14) 0.68257(15) 0.58942(16)
N4 N 0.96833(14) 0.58942(16) 0.68257(15)
N5 N 0.91058(16) 0.81743(15) 0.46833(14)
N6 N 0.81743(15) 0.91058(16) 0.46833(14)
N10 N 0.68257(15) 0.96833(14) 0.58942(16)
C8 C 0.8988(2) 0.6868(2) 0.63090(19)
C9 C 0.8988(2) 0.63090(19) 0.6868(2)
C10 C 0.86910(19) 0.8132(2) 0.3988(2)
C11 C 0.8132(2) 0.86910(19) 0.3988(2)
H5 H 0.8585 0.7225 0.6218
H6 H 0.8585 0.6218 0.7225
H7 H 0.8782 0.7775 0.3585
H8 H 0.7775 0.8782 0.3585
C15 C 0.9059(3) 0.9059(3) 0.5855(3)
H12 H 0.8789 0.8781 0.6264
H14 H 0.9097 0.6044 0.4611
H17 H 0.8956 0.9611 0.5903
H18 H 0.9611 0.8956 0.5903
C1_2 C 0.00640(14) 0.37728(14) 0.3773(4)
C3_2 C 0.0855(3) 0.4059(3) 0.4059(3)
H2_2 H 0.1264 0.3781 0.3789
H3_2 H 0.0903 0.4611 0.3956
Zn4_3 Zn 0.2500 0.0000 0.5000
C5_2 C 0.1227(4) 0.12272(14) 0.50640(14)
N3_2 N 0.03167(14) 0.31743(15) 0.58942(16)
N4_2 N 0.03167(14) 0.41058(16) 0.68257(15)
N5_2 N 0.08942(16) 0.18257(15) 0.46833(14)
N6_2 N 0.18257(15) 0.08942(16) 0.46833(14)
N10_2 N 0.31743(15) 0.03167(14) 0.58942(16)
C8_2 C 0.1012(2) 0.3132(2) 0.63090(19)
C9_2 C 0.1012(2) 0.36910(19) 0.6868(2)
C10_2 C 0.13090(19) 0.1868(2) 0.3988(2)
C11_2 C 0.1868(2) 0.13090(19) 0.3988(2)
H5_2 H 0.1415 0.2775 0.6218
H6_2 H 0.1415 0.3782 0.7225
H7_2 H 0.1218 0.2225 0.3585
H8_2 H 0.2225 0.1218 0.3585
C15_2 C 0.0941(3) 0.0941(3) 0.5855(3)
H12_2 H 0.1211 0.1219 0.6264
H14_2 H 0.0903 0.3956 0.4611
H17_2 H 0.1044 0.0389 0.5903
H18_2 H 0.0389 0.1044 0.5903
Zn4_4 Zn 0.2500 1.0000 0.5000
C6_2 C 0.12272(14) 0.8773(4) 0.49360(14)
N8_2 N 0.18257(15) 0.91058(16) 0.53167(14)
N11_2 N 0.31743(15) 0.96833(14) 0.41058(16)
C12_2 C 0.1868(2) 0.86910(19) 0.6012(2)
C13_2 C 0.13090(19) 0.8132(2) 0.6012(2)
H9_2 H 0.2225 0.8782 0.6415
H10_2 H 0.1218 0.7775 0.6415
C16_2 C 0.0941(3) 0.9059(3) 0.4145(3)
H13_2 H 0.1219 0.8789 0.3736
H19_2 H 0.0389 0.8956 0.4097
H20_2 H 0.1044 0.9611 0.4097
N1_2 N 0.96833(14) 0.31743(15) 0.41058(16)
C2_2 C 0.8988(2) 0.3132(2) 0.36910(19)
H1_2 H 0.8585 0.2775 0.3782
C4_2 C 0.99360(14) 0.37728(14) 0.6227(4)
N2_2 N 0.96833(14) 0.41058(16) 0.31743(15)
C7_2 C 0.8988(2) 0.36910(19) 0.3132(2)
H4_2 H 0.8585 0.3782 0.2775
C14_2 C 0.9145(3) 0.4059(3) 0.5941(3)
H11_2 H 0.8736 0.3781 0.6211
H15_2 H 0.9097 0.4611 0.6044
H16_2 H 0.9097 0.3956 0.5389
H13_3 H 0.1219 0.1211 0.6264
H12_3 H 0.1211 0.8781 0.3736
H12_4 H 0.8789 0.1219 0.3736
H13_4 H 0.8781 0.8789 0.6264
Zn5_3 Zn 0.5000 0.0000 0.2500
Zn1_3 Zn 0.5000 0.0000 0.7500
N1_3 N 0.41058(16) 0.03167(14) 0.68257(15)
C2_3 C 0.36910(19) 0.1012(2) 0.6868(2)
H1_3 H 0.3782 0.1415 0.7225
C4_3 C 0.6227(4) 0.00640(14) 0.62272(14)
N7_2 N 0.53167(14) 0.08942(16) 0.81743(15)
C7_3 C 0.3132(2) 0.1012(2) 0.63090(19)
H4_3 H 0.2775 0.1415 0.6218
C14_3 C 0.5941(3) 0.0855(3) 0.5941(3)
H11_3 H 0.6211 0.1264 0.6219
H15_3 H 0.6044 0.0903 0.5389
H16_3 H 0.5389 0.0903 0.6044
Zn4_5 Zn 0.5000 0.7500 0.0000
Zn5_4 Zn 0.5000 1.0000 0.2500
C6_3 C 0.49360(14) 0.87728(14) 0.1227(4)
N8_3 N 0.53167(14) 0.81743(15) 0.08942(16)
N9_2 N 0.53167(14) 0.91058(16) 0.18257(15)
N11_3 N 0.41058(16) 0.68257(15) 0.03167(14)
C12_3 C 0.6012(2) 0.8132(2) 0.13090(19)
C13_3 C 0.6012(2) 0.86910(19) 0.1868(2)
H9_3 H 0.6415 0.7775 0.1218
H10_3 H 0.6415 0.8782 0.2225
C16_3 C 0.4145(3) 0.9059(3) 0.0941(3)
H13_5 H 0.3736 0.8781 0.1211
H19_3 H 0.4097 0.9611 0.1044
H20_3 H 0.4097 0.8956 0.0389
Zn1_4 Zn 0.5000 1.0000 0.7500
C1_3 C 0.3773(4) 0.99360(14) 0.62272(14)
C3_3 C 0.4059(3) 0.9145(3) 0.5941(3)
H2_3 H 0.3789 0.8736 0.6219
H3_3 H 0.3956 0.9097 0.5389
Zn4_6 Zn 0.5000 0.7500 1.0000
C5_3 C 0.50640(14) 0.8773(4) 0.87728(14)
N3_3 N 0.58942(16) 0.96833(14) 0.68257(15)
N5_3 N 0.46833(14) 0.91058(16) 0.81743(15)
N6_3 N 0.46833(14) 0.81743(15) 0.91058(16)
N10_3 N 0.58942(16) 0.68257(15) 0.96833(14)
C8_3 C 0.63090(19) 0.8988(2) 0.6868(2)
C9_3 C 0.6868(2) 0.8988(2) 0.63090(19)
C10_3 C 0.3988(2) 0.86910(19) 0.8132(2)
C11_3 C 0.3988(2) 0.8132(2) 0.86910(19)
H5_3 H 0.6218 0.8585 0.7225
H6_3 H 0.7225 0.8585 0.6218
H7_3 H 0.3585 0.8782 0.7775
H8_3 H 0.3585 0.7775 0.8782
C15_3 C 0.5855(3) 0.9059(3) 0.9059(3)
H12_5 H 0.6264 0.8789 0.8781
H14_3 H 0.4611 0.9097 0.6044
H17_3 H 0.5903 0.8956 0.9611
H18_3 H 0.5903 0.9611 0.8956
C1_4 C 0.3773(4) 0.00640(14) 0.37728(14)
C3_4 C 0.4059(3) 0.0855(3) 0.4059(3)
H2_4 H 0.3789 0.1264 0.3781
H3_4 H 0.3956 0.0903 0.4611
Zn4_7 Zn 0.5000 0.2500 0.0000
C5_4 C 0.50640(14) 0.1227(4) 0.12272(14)
N3_4 N 0.58942(16) 0.03167(14) 0.31743(15)
N5_4 N 0.46833(14) 0.08942(16) 0.18257(15)
N6_4 N 0.46833(14) 0.18257(15) 0.08942(16)
N10_4 N 0.58942(16) 0.31743(15) 0.03167(14)
C8_4 C 0.63090(19) 0.1012(2) 0.3132(2)
C9_4 C 0.6868(2) 0.1012(2) 0.36910(19)
C10_4 C 0.3988(2) 0.13090(19) 0.1868(2)
C11_4 C 0.3988(2) 0.1868(2) 0.13090(19)
H5_4 H 0.6218 0.1415 0.2775
H6_4 H 0.7225 0.1415 0.3782
H7_4 H 0.3585 0.1218 0.2225
H8_4 H 0.3585 0.2225 0.1218
C15_4 C 0.5855(3) 0.0941(3) 0.0941(3)
H12_6 H 0.6264 0.1211 0.1219
H14_4 H 0.4611 0.0903 0.3956
H17_4 H 0.5903 0.1044 0.0389
H18_4 H 0.5903 0.0389 0.1044
Zn4_8 Zn 0.5000 0.2500 1.0000
C6_4 C 0.49360(14) 0.12272(14) 0.8773(4)
N8_4 N 0.53167(14) 0.18257(15) 0.91058(16)
N11_4 N 0.41058(16) 0.31743(15) 0.96833(14)
C12_4 C 0.6012(2) 0.1868(2) 0.86910(19)
C13_4 C 0.6012(2) 0.13090(19) 0.8132(2)
H9_4 H 0.6415 0.2225 0.8782
H10_4 H 0.6415 0.1218 0.7775
C16_4 C 0.4145(3) 0.0941(3) 0.9059(3)
H13_6 H 0.3736 0.1219 0.8789
H19_4 H 0.4097 0.0389 0.8956
H20_4 H 0.4097 0.1044 0.9611
N1_4 N 0.41058(16) 0.96833(14) 0.31743(15)
C2_4 C 0.36910(19) 0.8988(2) 0.3132(2)
H1_4 H 0.3782 0.8585 0.2775
C4_4 C 0.6227(4) 0.99360(14) 0.37728(14)
C7_4 C 0.3132(2) 0.8988(2) 0.36910(19)
H4_4 H 0.2775 0.8585 0.3782
C14_4 C 0.5941(3) 0.9145(3) 0.4059(3)
H11_4 H 0.6211 0.8736 0.3781
H15_4 H 0.6044 0.9097 0.4611
H16_4 H 0.5389 0.9097 0.3956
H13_7 H 0.6264 0.1219 0.1211
H12_7 H 0.3736 0.1211 0.8781
H12_8 H 0.3736 0.8789 0.1219
H13_8 H 0.6264 0.8781 0.8789
Zn5_5 Zn 0.2500 0.5000 0.0000
Zn5_6 Zn 0.2500 0.5000 1.0000
C6_5 C 0.1227(4) 0.49360(14) 0.87728(14)
N8_5 N 0.08942(16) 0.53167(14) 0.81743(15)
N9_3 N 0.18257(15) 0.53167(14) 0.91058(16)
C12_5 C 0.13090(19) 0.6012(2) 0.8132(2)
C13_5 C 0.1868(2) 0.6012(2) 0.86910(19)
H9_5 H 0.1218 0.6415 0.7775
H10_5 H 0.2225 0.6415 0.8782
C16_5 C 0.0941(3) 0.4145(3) 0.9059(3)
H13_9 H 0.1211 0.3736 0.8781
H19_5 H 0.1044 0.4097 0.9611
H20_5 H 0.0389 0.4097 0.8956
Zn1_5 Zn 0.7500 0.5000 0.0000
N1_5 N 0.68257(15) 0.41058(16) 0.03167(14)
C2_5 C 0.6868(2) 0.36910(19) 0.1012(2)
H1_5 H 0.7225 0.3782 0.1415
C4_5 C 0.62272(14) 0.6227(4) 0.00640(14)
N7_3 N 0.81743(15) 0.53167(14) 0.08942(16)
C7_5 C 0.63090(19) 0.3132(2) 0.1012(2)
H4_5 H 0.6218 0.2775 0.1415
C14_5 C 0.5941(3) 0.5941(3) 0.0855(3)
H11_5 H 0.6219 0.6211 0.1264
H15_5 H 0.5389 0.6044 0.0903
H16_5 H 0.6044 0.5389 0.0903
Zn1_6 Zn 0.7500 0.5000 1.0000
C1_5 C 0.62272(14) 0.3773(4) 0.99360(14)
C3_5 C 0.5941(3) 0.4059(3) 0.9145(3)
H2_5 H 0.6219 0.3789 0.8736
H3_5 H 0.5389 0.3956 0.9097
C5_5 C 0.87728(14) 0.50640(14) 0.8773(4)
N3_5 N 0.68257(15) 0.58942(16) 0.96833(14)
N5_5 N 0.81743(15) 0.46833(14) 0.91058(16)
N6_5 N 0.91058(16) 0.46833(14) 0.81743(15)
C8_5 C 0.6868(2) 0.63090(19) 0.8988(2)
C9_5 C 0.63090(19) 0.6868(2) 0.8988(2)
C10_5 C 0.8132(2) 0.3988(2) 0.86910(19)
C11_5 C 0.86910(19) 0.3988(2) 0.8132(2)
H5_5 H 0.7225 0.6218 0.8585
H6_5 H 0.6218 0.7225 0.8585
H7_5 H 0.7775 0.3585 0.8782
H8_5 H 0.8782 0.3585 0.7775
C15_5 C 0.9059(3) 0.5855(3) 0.9059(3)
H12_9 H 0.8781 0.6264 0.8789
H14_5 H 0.6044 0.4611 0.9097
H17_5 H 0.9611 0.5903 0.8956
H18_5 H 0.8956 0.5903 0.9611
C1_6 C 0.37728(14) 0.3773(4) 0.00640(14)
C3_6 C 0.4059(3) 0.4059(3) 0.0855(3)
H2_6 H 0.3781 0.3789 0.1264
H3_6 H 0.4611 0.3956 0.0903
C5_6 C 0.12272(14) 0.50640(14) 0.1227(4)
N3_6 N 0.31743(15) 0.58942(16) 0.03167(14)
N5_6 N 0.18257(15) 0.46833(14) 0.08942(16)
N6_6 N 0.08942(16) 0.46833(14) 0.18257(15)
C8_6 C 0.3132(2) 0.63090(19) 0.1012(2)
C9_6 C 0.36910(19) 0.6868(2) 0.1012(2)
C10_6 C 0.1868(2) 0.3988(2) 0.13090(19)
C11_6 C 0.13090(19) 0.3988(2) 0.1868(2)
H5_6 H 0.2775 0.6218 0.1415
H6_6 H 0.3782 0.7225 0.1415
H7_6 H 0.2225 0.3585 0.1218
H8_6 H 0.1218 0.3585 0.2225
C15_6 C 0.0941(3) 0.5855(3) 0.0941(3)
H12_10 H 0.1219 0.6264 0.1211
H14_6 H 0.3956 0.4611 0.0903
H17_6 H 0.0389 0.5903 0.1044
H18_6 H 0.1044 0.5903 0.0389
N1_6 N 0.31743(15) 0.41058(16) 0.96833(14)
C2_6 C 0.3132(2) 0.36910(19) 0.8988(2)
H1_6 H 0.2775 0.3782 0.8585
C4_6 C 0.37728(14) 0.6227(4) 0.99360(14)
C7_6 C 0.36910(19) 0.3132(2) 0.8988(2)
H4_6 H 0.3782 0.2775 0.8585
C14_6 C 0.4059(3) 0.5941(3) 0.9145(3)
H11_6 H 0.3781 0.6211 0.8736
H15_6 H 0.4611 0.6044 0.9097
H16_6 H 0.3956 0.5389 0.9097
C6_6 C 0.8773(4) 0.49360(14) 0.12272(14)
N8_6 N 0.91058(16) 0.53167(14) 0.18257(15)
C12_6 C 0.86910(19) 0.6012(2) 0.1868(2)
C13_6 C 0.8132(2) 0.6012(2) 0.13090(19)
H9_6 H 0.8782 0.6415 0.2225
H10_6 H 0.7775 0.6415 0.1218
C16_6 C 0.9059(3) 0.4145(3) 0.0941(3)
H13_10 H 0.8789 0.3736 0.1219
H19_6 H 0.8956 0.4097 0.0389
H20_6 H 0.9611 0.4097 0.1044
H13_11 H 0.1211 0.6264 0.1219
H12_11 H 0.8781 0.3736 0.1211
H12_12 H 0.1219 0.3736 0.8789
H13_12 H 0.8789 0.6264 0.8781
H11_7 H 0.6219 0.1264 0.6211
H2_7 H 0.6219 0.8736 0.3789
H2_8 H 0.3781 0.1264 0.3789
H11_8 H 0.3781 0.8736 0.6211
H11_9 H 0.1264 0.6211 0.6219
H2_9 H 0.8736 0.3789 0.6219
H2_10 H 0.1264 0.3789 0.3781
H11_10 H 0.8736 0.6211 0.3781
H11_11 H 0.6211 0.6219 0.1264
H2_11 H 0.3789 0.6219 0.8736
H2_12 H 0.3789 0.3781 0.1264
H11_12 H 0.6211 0.3781 0.8736
loop_
_geom_bond_atom_site_label_1
_geom_bond_atom_site_label_2
_geom_bond_site_symmetry_1
_geom_bond_site_symmetry_2
Zn1 N1 1_555 1_555
N1 C2 1_555 1_555
C2 H1 1_555 1_555
Zn2 N2 1_555 1_555
N7 Zn1 1_555 1_555
C7 C2 1_555 1_555
H4 C7 1_555 1_555
C14 C4 1_555 1_555
H11 C14 1_555 1_555
H15 C14 1_555 1_555
H16 C14 1_555 1_555
N2 C7 1_555 1_555
Zn5_2 N9 1_555 1_555
C6 N8 1_555 1_555
N8 Zn4 1_555 1_555
N9 C6 1_555 1_555
N11 Zn4 1_555 1_555
C12 N8 1_555 1_555
C13 N9 1_555 1_555
H9 C12 1_555 1_555
H10 C13 1_555 1_555
C16 C6 1_555 1_555
H13 C16 1_555 1_555
H19 C16 1_555 1_555
H20 C16 1_555 1_555
C12 C13 1_555 1_555
C3 C1 1_555 1_555
H2 C3 1_555 1_555
H3 C3 1_555 1_555
Zn3_2 N4 1_555 1_555
Zn4_2 N6 1_555 1_555
C5 N5 1_555 1_555
N3 Zn1_2 1_555 1_555
N5 Zn1_2 1_555 1_555
N6 C5 1_555 1_555
N10 Zn4_2 1_555 1_555
C8 N3 1_555 1_555
C9 N4 1_555 1_555
C10 N5 1_555 1_555
C11 N6 1_555 1_555
H5 C8 1_555 1_555
H6 C9 1_555 1_555
H7 C10 1_555 1_555
H8 C11 1_555 1_555
C15 C5 1_555 1_555
H12 C15 1_555 1_555
H14 C3 1_555 1_555
H17 C15 1_555 1_555
H18 C15 1_555 1_555
C8 C9 1_555 1_555
C10 C11 1_555 1_555
C3_2 C1_2 1_555 1_555
H2_2 C3_2 1_555 1_555
H3_2 C3_2 1_555 1_555
Zn3 N4_2 1_555 1_555
Zn4_3 N6_2 1_555 1_555
C5_2 N5_2 1_555 1_555
N3_2 Zn5 1_555 1_555
N5_2 Zn5 1_555 1_555
N6_2 C5_2 1_555 1_555
N10_2 Zn4_3 1_555 1_555
C8_2 N3_2 1_555 1_555
C9_2 N4_2 1_555 1_555
C10_2 N5_2 1_555 1_555
C11_2 N6_2 1_555 1_555
H5_2 C8_2 1_555 1_555
H6_2 C9_2 1_555 1_555
H7_2 C10_2 1_555 1_555
H8_2 C11_2 1_555 1_555
C15_2 C5_2 1_555 1_555
H12_2 C15_2 1_555 1_555
H14_2 C3_2 1_555 1_555
H17_2 C15_2 1_555 1_555
H18_2 C15_2 1_555 1_555
C8_2 C9_2 1_555 1_555
C10_2 C11_2 1_555 1_555
C6_2 N8_2 1_555 1_555
N8_2 Zn4_4 1_555 1_555
N7 C6_2 1_555 1_555
N11_2 Zn4_4 1_555 1_555
C12_2 N8_2 1_555 1_555
C13_2 N7 1_555 1_555
H9_2 C12_2 1_555 1_555
H10_2 C13_2 1_555 1_555
C16_2 C6_2 1_555 1_555
H13_2 C16_2 1_555 1_555
H19_2 C16_2 1_555 1_555
H20_2 C16_2 1_555 1_555
C12_2 C13_2 1_555 1_555
Zn5_2 N1_2 1_555 1_555
N1_2 C2_2 1_555 1_555
C2_2 H1_2 1_555 1_555
Zn2_2 N2_2 1_555 1_555
C7_2 C2_2 1_555 1_555
H4_2 C7_2 1_555 1_555
C14_2 C4_2 1_555 1_555
H11_2 C14_2 1_555 1_555
H15_2 C14_2 1_555 1_555
H16_2 C14_2 1_555 1_555
N2_2 C7_2 1_555 1_555
H13_3 C15_2 1_555 1_555
H12_3 C16_2 1_555 1_555
H12_4 C16 1_555 1_555
H13_4 C15 1_555 1_555
Zn1_3 N1_3 1_555 1_555
N1_3 C2_3 1_555 1_555
C2_3 H1_3 1_555 1_555
N7_2 Zn1_3 1_555 1_555
C7_3 C2_3 1_555 1_555
H4_3 C7_3 1_555 1_555
C14_3 C4_3 1_555 1_555
H11_3 C14_3 1_555 1_555
H15_3 C14_3 1_555 1_555
H16_3 C14_3 1_555 1_555
N10_2 C7_3 1_555 1_555
Zn5_4 N9_2 1_555 1_555
C6_3 N8_3 1_555 1_555
N8_3 Zn4_5 1_555 1_555
N9_2 C6_3 1_555 1_555
N11_3 Zn4_5 1_555 1_555
C12_3 N8_3 1_555 1_555
C13_3 N9_2 1_555 1_555
H9_3 C12_3 1_555 1_555
H10_3 C13_3 1_555 1_555
C16_3 C6_3 1_555 1_555
H13_5 C16_3 1_555 1_555
H19_3 C16_3 1_555 1_555
H20_3 C16_3 1_555 1_555
C12_3 C13_3 1_555 1_555
C3_3 C1_3 1_555 1_555
H2_3 C3_3 1_555 1_555
H3_3 C3_3 1_555 1_555
Zn4_6 N6_3 1_555 1_555
C5_3 N5_3 1_555 1_555
N3_3 Zn1_4 1_555 1_555
N5_3 Zn1_4 1_555 1_555
N6_3 C5_3 1_555 1_555
N10_3 Zn4_6 1_555 1_555
C8_3 N3_3 1_555 1_555
C9_3 N10 1_555 1_555
C10_3 N5_3 1_555 1_555
C11_3 N6_3 1_555 1_555
H5_3 C8_3 1_555 1_555
H6_3 C9_3 1_555 1_555
H7_3 C10_3 1_555 1_555
H8_3 C11_3 1_555 1_555
C15_3 C5_3 1_555 1_555
H12_5 C15_3 1_555 1_555
H14_3 C3_3 1_555 1_555
H17_3 C15_3 1_555 1_555
H18_3 C15_3 1_555 1_555
C8_3 C9_3 1_555 1_555
C10_3 C11_3 1_555 1_555
C3_4 C1_4 1_555 1_555
H2_4 C3_4 1_555 1_555
H3_4 C3_4 1_555 1_555
Zn4_7 N6_4 1_555 1_555
C5_4 N5_4 1_555 1_555
N3_4 Zn5_3 1_555 1_555
N5_4 Zn5_3 1_555 1_555
N6_4 C5_4 1_555 1_555
N10_4 Zn4_7 1_555 1_555
C8_4 N3_4 1_555 1_555
C9_4 N11 1_555 1_555
C10_4 N5_4 1_555 1_555
C11_4 N6_4 1_555 1_555
H5_4 C8_4 1_555 1_555
H6_4 C9_4 1_555 1_555
H7_4 C10_4 1_555 1_555
H8_4 C11_4 1_555 1_555
C15_4 C5_4 1_555 1_555
H12_6 C15_4 1_555 1_555
H14_4 C3_4 1_555 1_555
H17_4 C15_4 1_555 1_555
H18_4 C15_4 1_555 1_555
C8_4 C9_4 1_555 1_555
C10_4 C11_4 1_555 1_555
C6_4 N8_4 1_555 1_555
N8_4 Zn4_8 1_555 1_555
N7_2 C6_4 1_555 1_555
N11_4 Zn4_8 1_555 1_555
C12_4 N8_4 1_555 1_555
C13_4 N7_2 1_555 1_555
H9_4 C12_4 1_555 1_555
H10_4 C13_4 1_555 1_555
C16_4 C6_4 1_555 1_555
H13_6 C16_4 1_555 1_555
H19_4 C16_4 1_555 1_555
H20_4 C16_4 1_555 1_555
C12_4 C13_4 1_555 1_555
Zn5_4 N1_4 1_555 1_555
N1_4 C2_4 1_555 1_555
C2_4 H1_4 1_555 1_555
C7_4 C2_4 1_555 1_555
H4_4 C7_4 1_555 1_555
C14_4 C4_4 1_555 1_555
H11_4 C14_4 1_555 1_555
H15_4 C14_4 1_555 1_555
H16_4 C14_4 1_555 1_555
N11_2 C7_4 1_555 1_555
H13_7 C15_4 1_555 1_555
H12_7 C16_4 1_555 1_555
H12_8 C16_3 1_555 1_555
H13_8 C15_3 1_555 1_555
Zn5_6 N9_3 1_555 1_555
C6_5 N8_5 1_555 1_555
N8_5 Zn3 1_555 1_555
N9_3 C6_5 1_555 1_555
C12_5 N8_5 1_555 1_555
C13_5 N9_3 1_555 1_555
H9_5 C12_5 1_555 1_555
H10_5 C13_5 1_555 1_555
C16_5 C6_5 1_555 1_555
H13_9 C16_5 1_555 1_555
H19_5 C16_5 1_555 1_555
H20_5 C16_5 1_555 1_555
C12_5 C13_5 1_555 1_555
Zn1_5 N1_5 1_555 1_555
N1_5 C2_5 1_555 1_555
C2_5 H1_5 1_555 1_555
N7_3 Zn1_5 1_555 1_555
C7_5 C2_5 1_555 1_555
H4_5 C7_5 1_555 1_555
C14_5 C4_5 1_555 1_555
H11_5 C14_5 1_555 1_555
H15_5 C14_5 1_555 1_555
H16_5 C14_5 1_555 1_555
N10_4 C7_5 1_555 1_555
C3_5 C1_5 1_555 1_555
H2_5 C3_5 1_555 1_555
H3_5 C3_5 1_555 1_555
Zn3_2 N6_5 1_555 1_555
C5_5 N5_5 1_555 1_555
N3_5 Zn1_6 1_555 1_555
N5_5 Zn1_6 1_555 1_555
N6_5 C5_5 1_555 1_555
C8_5 N3_5 1_555 1_555
C9_5 N10_3 1_555 1_555
C10_5 N5_5 1_555 1_555
C11_5 N6_5 1_555 1_555
H5_5 C8_5 1_555 1_555
H6_5 C9_5 1_555 1_555
H7_5 C10_5 1_555 1_555
H8_5 C11_5 1_555 1_555
C15_5 C5_5 1_555 1_555
H12_9 C15_5 1_555 1_555
H14_5 C3_5 1_555 1_555
H17_5 C15_5 1_555 1_555
H18_5 C15_5 1_555 1_555
C8_5 C9_5 1_555 1_555
C10_5 C11_5 1_555 1_555
C3_6 C1_6 1_555 1_555
H2_6 C3_6 1_555 1_555
H3_6 C3_6 1_555 1_555
Zn2 N6_6 1_555 1_555
C5_6 N5_6 1_555 1_555
N3_6 Zn5_5 1_555 1_555
N5_6 Zn5_5 1_555 1_555
N6_6 C5_6 1_555 1_555
C8_6 N3_6 1_555 1_555
C9_6 N11_3 1_555 1_555
C10_6 N5_6 1_555 1_555
C11_6 N6_6 1_555 1_555
H5_6 C8_6 1_555 1_555
H6_6 C9_6 1_555 1_555
H7_6 C10_6 1_555 1_555
H8_6 C11_6 1_555 1_555
C15_6 C5_6 1_555 1_555
H12_10 C15_6 1_555 1_555
H14_6 C3_6 1_555 1_555
H17_6 C15_6 1_555 1_555
H18_6 C15_6 1_555 1_555
C8_6 C9_6 1_555 1_555
C10_6 C11_6 1_555 1_555
Zn5_6 N1_6 1_555 1_555
N1_6 C2_6 1_555 1_555
C2_6 H1_6 1_555 1_555
C7_6 C2_6 1_555 1_555
H4_6 C7_6 1_555 1_555
C14_6 C4_6 1_555 1_555
H11_6 C14_6 1_555 1_555
H15_6 C14_6 1_555 1_555
H16_6 C14_6 1_555 1_555
N11_4 C7_6 1_555 1_555
C6_6 N8_6 1_555 1_555
N8_6 Zn2_2 1_555 1_555
N7_3 C6_6 1_555 1_555
C12_6 N8_6 1_555 1_555
C13_6 N7_3 1_555 1_555
H9_6 C12_6 1_555 1_555
H10_6 C13_6 1_555 1_555
C16_6 C6_6 1_555 1_555
H13_10 C16_6 1_555 1_555
H19_6 C16_6 1_555 1_555
H20_6 C16_6 1_555 1_555
C12_6 C13_6 1_555 1_555
H13_11 C15_6 1_555 1_555
H12_11 C16_6 1_555 1_555
H12_12 C16_5 1_555 1_555
H13_12 C15_5 1_555 1_555
H11_7 C14_3 1_555 1_555
H2_7 C14_4 1_555 1_555
H2_8 C3_4 1_555 1_555
H11_8 C3_3 1_555 1_555
H11_9 C14 1_555 1_555
H2_9 C14_2 1_555 1_555
H2_10 C3_2 1_555 1_555
H11_10 C3 1_555 1_555
H11_11 C14_5 1_555 1_555
H2_11 C14_6 1_555 1_555
H2_12 C3_6 1_555 1_555
H11_12 C3_5 1_555 1_555

#END
