
###############################################################################
#
# This file contains modified crystal structure data generated from the
# MOF subset of the Cambridge Structural Database (CSD) v543 
# hosted by the Cambridge Crystallographic Data Centre (CCDC).
#
# This work is licensed under the Creative Commons
# Attribution-NonCommercial-ShareAlike 4.0 International License.
# To view a copy of this license, visit
# http://creativecommons.org/licenses/by-nc-sa/4.0/
# or send a letter to
# Creative Commons, PO Box 1866, Mountain View, CA 94042, USA.
#
# CIF created using the CSD Python API on 29 September 2022
# The structure has been converted into the P1 space group
# The structure has a 3D framework
# The original CSD entry SEFVEG is in the cubic crystal system
# The framework has been calculated to contain at least 10.0% void space
# The void calculation uses a probe of radius 1.32A, grid spacing 0.4
#
###############################################################################

data_SEFVEG
_chemical_formula_moiety         '(C96 H120 N48 Zn24)n'
_symmetry_cell_setting           triclinic
_symmetry_space_group_name_H-M   'P 1'
_symmetry_Int_Tables_number      1
_space_group_name_Hall           'P 1'
loop_
_symmetry_equiv_pos_site_id
_symmetry_equiv_pos_as_xyz
1 x,y,z
_cell_length_a                   17.1236(19)
_cell_length_b                   17.1236(19)
_cell_length_c                   17.1236(19)
_cell_angle_alpha                90
_cell_angle_beta                 90
_cell_angle_gamma                90
_cell_volume                     5020.94
loop_
_atom_site_label
_atom_site_type_symbol
_atom_site_fract_x
_atom_site_fract_y
_atom_site_fract_z
Zn5 Zn 0.0000 0.2500 0.5000
Zn1 Zn 0.0000 0.7500 0.5000
N1 N 0.03302(11) 0.68104(11) 0.41158(12)
C2 C 0.10911(16) 0.66618(17) 0.38997(15)
H1 H 0.1541 0.6910 0.4108
Zn2 Zn 0.0000 0.5000 0.2500
Zn3 Zn 0.0000 0.5000 0.7500
C4 C 0.00990(12) 0.63224(12) 0.6322(3)
N2 N 0.03302(11) 0.58842(12) 0.31896(11)
N7 N 0.08842(12) 0.81896(11) 0.53302(11)
C7 C 0.10911(16) 0.61003(15) 0.33382(17)
H4 H 0.1541 0.5892 0.3090
C14 C 0.09780(17) 0.62615(17) 0.6261(3)
H11 H 0.1220 0.6627 0.6629
H15 H 0.1141 0.6388 0.5728
H16 H 0.1141 0.5728 0.6388
Zn4 Zn 0.7500 0.0000 0.5000
Zn5_2 Zn 1.0000 0.2500 0.5000
C6 C 0.86776(12) 0.1322(3) 0.49010(12)
N8 N 0.81896(11) 0.08842(12) 0.53302(11)
N9 N 0.91158(12) 0.18104(11) 0.53302(11)
N11 N 0.68104(11) 0.03302(11) 0.41158(12)
C12 C 0.83382(17) 0.11003(15) 0.60911(16)
C13 C 0.88997(15) 0.16618(17) 0.60911(16)
H9 H 0.8090 0.0892 0.6541
H10 H 0.9108 0.1910 0.6541
C16 C 0.87385(17) 0.1261(3) 0.40220(17)
H13 H 0.8373 0.1629 0.3780
H19 H 0.8612 0.0728 0.3859
H20 H 0.9272 0.1388 0.3859
Zn1_2 Zn 1.0000 0.7500 0.5000
C1 C 0.99010(12) 0.63224(12) 0.3678(3)
C3 C 0.90220(17) 0.62615(17) 0.3739(3)
H2 H 0.8780 0.6627 0.3371
H3 H 0.8859 0.6388 0.4272
Zn2_2 Zn 1.0000 0.5000 0.2500
Zn3_2 Zn 1.0000 0.5000 0.7500
Zn4_2 Zn 0.7500 1.0000 0.5000
C5 C 0.8678(3) 0.86776(12) 0.50990(12)
N3 N 0.96698(11) 0.68104(11) 0.58842(12)
N4 N 0.96698(11) 0.58842(12) 0.68104(11)
N5 N 0.91158(12) 0.81896(11) 0.46698(11)
N6 N 0.81896(11) 0.91158(12) 0.46698(11)
N10 N 0.68104(11) 0.96698(11) 0.58842(12)
C8 C 0.89089(16) 0.66618(17) 0.61003(15)
C9 C 0.89089(16) 0.61003(15) 0.66618(17)
C10 C 0.88997(15) 0.83382(17) 0.39089(16)
C11 C 0.83382(17) 0.88997(15) 0.39089(16)
H5 H 0.8459 0.6910 0.5892
H6 H 0.8459 0.5892 0.6910
H7 H 0.9108 0.8090 0.3459
H8 H 0.8090 0.9108 0.3459
C15 C 0.8739(3) 0.87385(17) 0.59780(17)
H12 H 0.8371 0.8373 0.6220
H14 H 0.8859 0.5728 0.3612
H17 H 0.9272 0.8612 0.6141
H18 H 0.8612 0.9272 0.6141
C1_2 C 0.00990(12) 0.36776(12) 0.3678(3)
C3_2 C 0.09780(17) 0.37385(17) 0.3739(3)
H2_2 H 0.1220 0.3373 0.3371
H3_2 H 0.1141 0.3612 0.4272
Zn4_3 Zn 0.2500 0.0000 0.5000
C5_2 C 0.1322(3) 0.13224(12) 0.50990(12)
N3_2 N 0.03302(11) 0.31896(11) 0.58842(12)
N4_2 N 0.03302(11) 0.41158(12) 0.68104(11)
N5_2 N 0.08842(12) 0.18104(11) 0.46698(11)
N6_2 N 0.18104(11) 0.08842(12) 0.46698(11)
N10_2 N 0.31896(11) 0.03302(11) 0.58842(12)
C8_2 C 0.10911(16) 0.33382(17) 0.61003(15)
C9_2 C 0.10911(16) 0.38997(15) 0.66618(17)
C10_2 C 0.11003(15) 0.16618(17) 0.39089(16)
C11_2 C 0.16618(17) 0.11003(15) 0.39089(16)
H5_2 H 0.1541 0.3090 0.5892
H6_2 H 0.1541 0.4108 0.6910
H7_2 H 0.0892 0.1910 0.3459
H8_2 H 0.1910 0.0892 0.3459
C15_2 C 0.1261(3) 0.12615(17) 0.59780(17)
H12_2 H 0.1629 0.1627 0.6220
H14_2 H 0.1141 0.4272 0.3612
H17_2 H 0.0728 0.1388 0.6141
H18_2 H 0.1388 0.0728 0.6141
Zn4_4 Zn 0.2500 1.0000 0.5000
C6_2 C 0.13224(12) 0.8678(3) 0.49010(12)
N8_2 N 0.18104(11) 0.91158(12) 0.53302(11)
N11_2 N 0.31896(11) 0.96698(11) 0.41158(12)
C12_2 C 0.16618(17) 0.88997(15) 0.60911(16)
C13_2 C 0.11003(15) 0.83382(17) 0.60911(16)
H9_2 H 0.1910 0.9108 0.6541
H10_2 H 0.0892 0.8090 0.6541
C16_2 C 0.12615(17) 0.8739(3) 0.40220(17)
H13_2 H 0.1627 0.8371 0.3780
H19_2 H 0.1388 0.9272 0.3859
H20_2 H 0.0728 0.8612 0.3859
N1_2 N 0.96698(11) 0.31896(11) 0.41158(12)
C2_2 C 0.89089(16) 0.33382(17) 0.38997(15)
H1_2 H 0.8459 0.3090 0.4108
C4_2 C 0.99010(12) 0.36776(12) 0.6322(3)
N2_2 N 0.96698(11) 0.41158(12) 0.31896(11)
C7_2 C 0.89089(16) 0.38997(15) 0.33382(17)
H4_2 H 0.8459 0.4108 0.3090
C14_2 C 0.90220(17) 0.37385(17) 0.6261(3)
H11_2 H 0.8780 0.3373 0.6629
H15_2 H 0.8859 0.3612 0.5728
H16_2 H 0.8859 0.4272 0.6388
Zn5_3 Zn 0.5000 0.0000 0.2500
Zn1_3 Zn 0.5000 0.0000 0.7500
N1_3 N 0.41158(12) 0.03302(11) 0.68104(11)
C2_3 C 0.38997(15) 0.10911(16) 0.66618(17)
H1_3 H 0.4108 0.1541 0.6910
C4_3 C 0.6322(3) 0.00990(12) 0.63224(12)
N7_2 N 0.53302(11) 0.08842(12) 0.81896(11)
C7_3 C 0.33382(17) 0.10911(16) 0.61003(15)
H4_3 H 0.3090 0.1541 0.5892
C14_3 C 0.6261(3) 0.09780(17) 0.62615(17)
H11_3 H 0.6629 0.1220 0.6627
H15_3 H 0.5728 0.1141 0.6388
H16_3 H 0.6388 0.1141 0.5728
Zn4_5 Zn 0.5000 0.7500 0.0000
Zn5_4 Zn 0.5000 1.0000 0.2500
C6_3 C 0.49010(12) 0.86776(12) 0.1322(3)
N8_3 N 0.53302(11) 0.81896(11) 0.08842(12)
N9_2 N 0.53302(11) 0.91158(12) 0.18104(11)
N11_3 N 0.41158(12) 0.68104(11) 0.03302(11)
C12_3 C 0.60911(16) 0.83382(17) 0.11003(15)
C13_3 C 0.60911(16) 0.88997(15) 0.16618(17)
H9_3 H 0.6541 0.8090 0.0892
H10_3 H 0.6541 0.9108 0.1910
C16_3 C 0.40220(17) 0.87385(17) 0.1261(3)
H13_3 H 0.3780 0.8373 0.1629
H19_3 H 0.3859 0.8612 0.0728
H20_3 H 0.3859 0.9272 0.1388
Zn1_4 Zn 0.5000 1.0000 0.7500
C1_3 C 0.3678(3) 0.99010(12) 0.63224(12)
C3_3 C 0.3739(3) 0.90220(17) 0.62615(17)
H2_3 H 0.3371 0.8780 0.6627
H3_3 H 0.4272 0.8859 0.6388
Zn4_6 Zn 0.5000 0.7500 1.0000
C5_3 C 0.50990(12) 0.8678(3) 0.86776(12)
N3_3 N 0.58842(12) 0.96698(11) 0.68104(11)
N5_3 N 0.46698(11) 0.91158(12) 0.81896(11)
N6_3 N 0.46698(11) 0.81896(11) 0.91158(12)
N10_3 N 0.58842(12) 0.68104(11) 0.96698(11)
C8_3 C 0.61003(15) 0.89089(16) 0.66618(17)
C9_3 C 0.66618(17) 0.89089(16) 0.61003(15)
C10_3 C 0.39089(16) 0.88997(15) 0.83382(17)
C11_3 C 0.39089(16) 0.83382(17) 0.88997(15)
H5_3 H 0.5892 0.8459 0.6910
H6_3 H 0.6910 0.8459 0.5892
H7_3 H 0.3459 0.9108 0.8090
H8_3 H 0.3459 0.8090 0.9108
C15_3 C 0.59780(17) 0.8739(3) 0.87385(17)
H12_3 H 0.6220 0.8371 0.8373
H14_3 H 0.3612 0.8859 0.5728
H17_3 H 0.6141 0.9272 0.8612
H18_3 H 0.6141 0.8612 0.9272
C1_4 C 0.3678(3) 0.00990(12) 0.36776(12)
C3_4 C 0.3739(3) 0.09780(17) 0.37385(17)
H2_4 H 0.3371 0.1220 0.3373
H3_4 H 0.4272 0.1141 0.3612
Zn4_7 Zn 0.5000 0.2500 0.0000
C5_4 C 0.50990(12) 0.1322(3) 0.13224(12)
N3_4 N 0.58842(12) 0.03302(11) 0.31896(11)
N5_4 N 0.46698(11) 0.08842(12) 0.18104(11)
N6_4 N 0.46698(11) 0.18104(11) 0.08842(12)
N10_4 N 0.58842(12) 0.31896(11) 0.03302(11)
C8_4 C 0.61003(15) 0.10911(16) 0.33382(17)
C9_4 C 0.66618(17) 0.10911(16) 0.38997(15)
C10_4 C 0.39089(16) 0.11003(15) 0.16618(17)
C11_4 C 0.39089(16) 0.16618(17) 0.11003(15)
H5_4 H 0.5892 0.1541 0.3090
H6_4 H 0.6910 0.1541 0.4108
H7_4 H 0.3459 0.0892 0.1910
H8_4 H 0.3459 0.1910 0.0892
C15_4 C 0.59780(17) 0.1261(3) 0.12615(17)
H12_4 H 0.6220 0.1629 0.1627
H14_4 H 0.3612 0.1141 0.4272
H17_4 H 0.6141 0.0728 0.1388
H18_4 H 0.6141 0.1388 0.0728
Zn4_8 Zn 0.5000 0.2500 1.0000
C6_4 C 0.49010(12) 0.13224(12) 0.8678(3)
N8_4 N 0.53302(11) 0.18104(11) 0.91158(12)
N11_4 N 0.41158(12) 0.31896(11) 0.96698(11)
C12_4 C 0.60911(16) 0.16618(17) 0.88997(15)
C13_4 C 0.60911(16) 0.11003(15) 0.83382(17)
H9_4 H 0.6541 0.1910 0.9108
H10_4 H 0.6541 0.0892 0.8090
C16_4 C 0.40220(17) 0.12615(17) 0.8739(3)
H13_4 H 0.3780 0.1627 0.8371
H19_4 H 0.3859 0.1388 0.9272
H20_4 H 0.3859 0.0728 0.8612
N1_4 N 0.41158(12) 0.96698(11) 0.31896(11)
C2_4 C 0.38997(15) 0.89089(16) 0.33382(17)
H1_4 H 0.4108 0.8459 0.3090
C4_4 C 0.6322(3) 0.99010(12) 0.36776(12)
C7_4 C 0.33382(17) 0.89089(16) 0.38997(15)
H4_4 H 0.3090 0.8459 0.4108
C14_4 C 0.6261(3) 0.90220(17) 0.37385(17)
H11_4 H 0.6629 0.8780 0.3373
H15_4 H 0.5728 0.8859 0.3612
H16_4 H 0.6388 0.8859 0.4272
Zn5_5 Zn 0.2500 0.5000 0.0000
Zn5_6 Zn 0.2500 0.5000 1.0000
C6_5 C 0.1322(3) 0.49010(12) 0.86776(12)
N8_5 N 0.08842(12) 0.53302(11) 0.81896(11)
N9_3 N 0.18104(11) 0.53302(11) 0.91158(12)
C12_5 C 0.11003(15) 0.60911(16) 0.83382(17)
C13_5 C 0.16618(17) 0.60911(16) 0.88997(15)
H9_5 H 0.0892 0.6541 0.8090
H10_5 H 0.1910 0.6541 0.9108
C16_5 C 0.1261(3) 0.40220(17) 0.87385(17)
H13_5 H 0.1629 0.3780 0.8373
H19_5 H 0.0728 0.3859 0.8612
H20_5 H 0.1388 0.3859 0.9272
Zn1_5 Zn 0.7500 0.5000 0.0000
N1_5 N 0.68104(11) 0.41158(12) 0.03302(11)
C2_5 C 0.66618(17) 0.38997(15) 0.10911(16)
H1_5 H 0.6910 0.4108 0.1541
C4_5 C 0.63224(12) 0.6322(3) 0.00990(12)
N7_3 N 0.81896(11) 0.53302(11) 0.08842(12)
C7_5 C 0.61003(15) 0.33382(17) 0.10911(16)
H4_5 H 0.5892 0.3090 0.1541
C14_5 C 0.62615(17) 0.6261(3) 0.09780(17)
H11_5 H 0.6627 0.6629 0.1220
H15_5 H 0.6388 0.5728 0.1141
H16_5 H 0.5728 0.6388 0.1141
Zn1_6 Zn 0.7500 0.5000 1.0000
C1_5 C 0.63224(12) 0.3678(3) 0.99010(12)
C3_5 C 0.62615(17) 0.3739(3) 0.90220(17)
H2_5 H 0.6627 0.3371 0.8780
H3_5 H 0.6388 0.4272 0.8859
C5_5 C 0.86776(12) 0.50990(12) 0.8678(3)
N3_5 N 0.68104(11) 0.58842(12) 0.96698(11)
N5_5 N 0.81896(11) 0.46698(11) 0.91158(12)
N6_5 N 0.91158(12) 0.46698(11) 0.81896(11)
C8_5 C 0.66618(17) 0.61003(15) 0.89089(16)
C9_5 C 0.61003(15) 0.66618(17) 0.89089(16)
C10_5 C 0.83382(17) 0.39089(16) 0.88997(15)
C11_5 C 0.88997(15) 0.39089(16) 0.83382(17)
H5_5 H 0.6910 0.5892 0.8459
H6_5 H 0.5892 0.6910 0.8459
H7_5 H 0.8090 0.3459 0.9108
H8_5 H 0.9108 0.3459 0.8090
C15_5 C 0.87385(17) 0.59780(17) 0.8739(3)
H12_5 H 0.8373 0.6220 0.8371
H14_5 H 0.5728 0.3612 0.8859
H17_5 H 0.8612 0.6141 0.9272
H18_5 H 0.9272 0.6141 0.8612
C1_6 C 0.36776(12) 0.3678(3) 0.00990(12)
C3_6 C 0.37385(17) 0.3739(3) 0.09780(17)
H2_6 H 0.3373 0.3371 0.1220
H3_6 H 0.3612 0.4272 0.1141
C5_6 C 0.13224(12) 0.50990(12) 0.1322(3)
N3_6 N 0.31896(11) 0.58842(12) 0.03302(11)
N5_6 N 0.18104(11) 0.46698(11) 0.08842(12)
N6_6 N 0.08842(12) 0.46698(11) 0.18104(11)
C8_6 C 0.33382(17) 0.61003(15) 0.10911(16)
C9_6 C 0.38997(15) 0.66618(17) 0.10911(16)
C10_6 C 0.16618(17) 0.39089(16) 0.11003(15)
C11_6 C 0.11003(15) 0.39089(16) 0.16618(17)
H5_6 H 0.3090 0.5892 0.1541
H6_6 H 0.4108 0.6910 0.1541
H7_6 H 0.1910 0.3459 0.0892
H8_6 H 0.0892 0.3459 0.1910
C15_6 C 0.12615(17) 0.59780(17) 0.1261(3)
H12_6 H 0.1627 0.6220 0.1629
H14_6 H 0.4272 0.3612 0.1141
H17_6 H 0.1388 0.6141 0.0728
H18_6 H 0.0728 0.6141 0.1388
N1_6 N 0.31896(11) 0.41158(12) 0.96698(11)
C2_6 C 0.33382(17) 0.38997(15) 0.89089(16)
H1_6 H 0.3090 0.4108 0.8459
C4_6 C 0.36776(12) 0.6322(3) 0.99010(12)
C7_6 C 0.38997(15) 0.33382(17) 0.89089(16)
H4_6 H 0.4108 0.3090 0.8459
C14_6 C 0.37385(17) 0.6261(3) 0.90220(17)
H11_6 H 0.3373 0.6629 0.8780
H15_6 H 0.3612 0.5728 0.8859
H16_6 H 0.4272 0.6388 0.8859
C6_6 C 0.8678(3) 0.49010(12) 0.13224(12)
N8_6 N 0.91158(12) 0.53302(11) 0.18104(11)
C12_6 C 0.88997(15) 0.60911(16) 0.16618(17)
C13_6 C 0.83382(17) 0.60911(16) 0.11003(15)
H9_6 H 0.9108 0.6541 0.1910
H10_6 H 0.8090 0.6541 0.0892
C16_6 C 0.8739(3) 0.40220(17) 0.12615(17)
H13_6 H 0.8371 0.3780 0.1627
H19_6 H 0.9272 0.3859 0.1388
H20_6 H 0.8612 0.3859 0.0728
loop_
_geom_bond_atom_site_label_1
_geom_bond_atom_site_label_2
_geom_bond_site_symmetry_1
_geom_bond_site_symmetry_2
Zn1 N1 1_555 1_555
N1 C2 1_555 1_555
C2 H1 1_555 1_555
Zn2 N2 1_555 1_555
N7 Zn1 1_555 1_555
C7 C2 1_555 1_555
H4 C7 1_555 1_555
C14 C4 1_555 1_555
H11 C14 1_555 1_555
H15 C14 1_555 1_555
H16 C14 1_555 1_555
N2 C7 1_555 1_555
Zn5_2 N9 1_555 1_555
C6 N8 1_555 1_555
N8 Zn4 1_555 1_555
N9 C6 1_555 1_555
N11 Zn4 1_555 1_555
C12 N8 1_555 1_555
C13 N9 1_555 1_555
H9 C12 1_555 1_555
H10 C13 1_555 1_555
C16 C6 1_555 1_555
H13 C16 1_555 1_555
H19 C16 1_555 1_555
H20 C16 1_555 1_555
C12 C13 1_555 1_555
C3 C1 1_555 1_555
H2 C3 1_555 1_555
H3 C3 1_555 1_555
Zn3_2 N4 1_555 1_555
Zn4_2 N6 1_555 1_555
C5 N5 1_555 1_555
N3 Zn1_2 1_555 1_555
N5 Zn1_2 1_555 1_555
N6 C5 1_555 1_555
N10 Zn4_2 1_555 1_555
C8 N3 1_555 1_555
C9 N4 1_555 1_555
C10 N5 1_555 1_555
C11 N6 1_555 1_555
H5 C8 1_555 1_555
H6 C9 1_555 1_555
H7 C10 1_555 1_555
H8 C11 1_555 1_555
C15 C5 1_555 1_555
H12 C15 1_555 1_555
H14 C3 1_555 1_555
H17 C15 1_555 1_555
H18 C15 1_555 1_555
C8 C9 1_555 1_555
C10 C11 1_555 1_555
C3_2 C1_2 1_555 1_555
H2_2 C3_2 1_555 1_555
H3_2 C3_2 1_555 1_555
Zn3 N4_2 1_555 1_555
Zn4_3 N6_2 1_555 1_555
C5_2 N5_2 1_555 1_555
N3_2 Zn5 1_555 1_555
N5_2 Zn5 1_555 1_555
N6_2 C5_2 1_555 1_555
N10_2 Zn4_3 1_555 1_555
C8_2 N3_2 1_555 1_555
C9_2 N4_2 1_555 1_555
C10_2 N5_2 1_555 1_555
C11_2 N6_2 1_555 1_555
H5_2 C8_2 1_555 1_555
H6_2 C9_2 1_555 1_555
H7_2 C10_2 1_555 1_555
H8_2 C11_2 1_555 1_555
C15_2 C5_2 1_555 1_555
H12_2 C15_2 1_555 1_555
H14_2 C3_2 1_555 1_555
H17_2 C15_2 1_555 1_555
H18_2 C15_2 1_555 1_555
C8_2 C9_2 1_555 1_555
C10_2 C11_2 1_555 1_555
C6_2 N8_2 1_555 1_555
N8_2 Zn4_4 1_555 1_555
N7 C6_2 1_555 1_555
N11_2 Zn4_4 1_555 1_555
C12_2 N8_2 1_555 1_555
C13_2 N7 1_555 1_555
H9_2 C12_2 1_555 1_555
H10_2 C13_2 1_555 1_555
C16_2 C6_2 1_555 1_555
H13_2 C16_2 1_555 1_555
H19_2 C16_2 1_555 1_555
H20_2 C16_2 1_555 1_555
C12_2 C13_2 1_555 1_555
Zn5_2 N1_2 1_555 1_555
N1_2 C2_2 1_555 1_555
C2_2 H1_2 1_555 1_555
Zn2_2 N2_2 1_555 1_555
C7_2 C2_2 1_555 1_555
H4_2 C7_2 1_555 1_555
C14_2 C4_2 1_555 1_555
H11_2 C14_2 1_555 1_555
H15_2 C14_2 1_555 1_555
H16_2 C14_2 1_555 1_555
N2_2 C7_2 1_555 1_555
Zn1_3 N1_3 1_555 1_555
N1_3 C2_3 1_555 1_555
C2_3 H1_3 1_555 1_555
N7_2 Zn1_3 1_555 1_555
C7_3 C2_3 1_555 1_555
H4_3 C7_3 1_555 1_555
C14_3 C4_3 1_555 1_555
H11_3 C14_3 1_555 1_555
H15_3 C14_3 1_555 1_555
H16_3 C14_3 1_555 1_555
N10_2 C7_3 1_555 1_555
Zn5_4 N9_2 1_555 1_555
C6_3 N8_3 1_555 1_555
N8_3 Zn4_5 1_555 1_555
N9_2 C6_3 1_555 1_555
N11_3 Zn4_5 1_555 1_555
C12_3 N8_3 1_555 1_555
C13_3 N9_2 1_555 1_555
H9_3 C12_3 1_555 1_555
H10_3 C13_3 1_555 1_555
C16_3 C6_3 1_555 1_555
H13_3 C16_3 1_555 1_555
H19_3 C16_3 1_555 1_555
H20_3 C16_3 1_555 1_555
C12_3 C13_3 1_555 1_555
C3_3 C1_3 1_555 1_555
H2_3 C3_3 1_555 1_555
H3_3 C3_3 1_555 1_555
Zn4_6 N6_3 1_555 1_555
C5_3 N5_3 1_555 1_555
N3_3 Zn1_4 1_555 1_555
N5_3 Zn1_4 1_555 1_555
N6_3 C5_3 1_555 1_555
N10_3 Zn4_6 1_555 1_555
C8_3 N3_3 1_555 1_555
C9_3 N10 1_555 1_555
C10_3 N5_3 1_555 1_555
C11_3 N6_3 1_555 1_555
H5_3 C8_3 1_555 1_555
H6_3 C9_3 1_555 1_555
H7_3 C10_3 1_555 1_555
H8_3 C11_3 1_555 1_555
C15_3 C5_3 1_555 1_555
H12_3 C15_3 1_555 1_555
H14_3 C3_3 1_555 1_555
H17_3 C15_3 1_555 1_555
H18_3 C15_3 1_555 1_555
C8_3 C9_3 1_555 1_555
C10_3 C11_3 1_555 1_555
C3_4 C1_4 1_555 1_555
H2_4 C3_4 1_555 1_555
H3_4 C3_4 1_555 1_555
Zn4_7 N6_4 1_555 1_555
C5_4 N5_4 1_555 1_555
N3_4 Zn5_3 1_555 1_555
N5_4 Zn5_3 1_555 1_555
N6_4 C5_4 1_555 1_555
N10_4 Zn4_7 1_555 1_555
C8_4 N3_4 1_555 1_555
C9_4 N11 1_555 1_555
C10_4 N5_4 1_555 1_555
C11_4 N6_4 1_555 1_555
H5_4 C8_4 1_555 1_555
H6_4 C9_4 1_555 1_555
H7_4 C10_4 1_555 1_555
H8_4 C11_4 1_555 1_555
C15_4 C5_4 1_555 1_555
H12_4 C15_4 1_555 1_555
H14_4 C3_4 1_555 1_555
H17_4 C15_4 1_555 1_555
H18_4 C15_4 1_555 1_555
C8_4 C9_4 1_555 1_555
C10_4 C11_4 1_555 1_555
C6_4 N8_4 1_555 1_555
N8_4 Zn4_8 1_555 1_555
N7_2 C6_4 1_555 1_555
N11_4 Zn4_8 1_555 1_555
C12_4 N8_4 1_555 1_555
C13_4 N7_2 1_555 1_555
H9_4 C12_4 1_555 1_555
H10_4 C13_4 1_555 1_555
C16_4 C6_4 1_555 1_555
H13_4 C16_4 1_555 1_555
H19_4 C16_4 1_555 1_555
H20_4 C16_4 1_555 1_555
C12_4 C13_4 1_555 1_555
Zn5_4 N1_4 1_555 1_555
N1_4 C2_4 1_555 1_555
C2_4 H1_4 1_555 1_555
C7_4 C2_4 1_555 1_555
H4_4 C7_4 1_555 1_555
C14_4 C4_4 1_555 1_555
H11_4 C14_4 1_555 1_555
H15_4 C14_4 1_555 1_555
H16_4 C14_4 1_555 1_555
N11_2 C7_4 1_555 1_555
Zn5_6 N9_3 1_555 1_555
C6_5 N8_5 1_555 1_555
N8_5 Zn3 1_555 1_555
N9_3 C6_5 1_555 1_555
C12_5 N8_5 1_555 1_555
C13_5 N9_3 1_555 1_555
H9_5 C12_5 1_555 1_555
H10_5 C13_5 1_555 1_555
C16_5 C6_5 1_555 1_555
H13_5 C16_5 1_555 1_555
H19_5 C16_5 1_555 1_555
H20_5 C16_5 1_555 1_555
C12_5 C13_5 1_555 1_555
Zn1_5 N1_5 1_555 1_555
N1_5 C2_5 1_555 1_555
C2_5 H1_5 1_555 1_555
N7_3 Zn1_5 1_555 1_555
C7_5 C2_5 1_555 1_555
H4_5 C7_5 1_555 1_555
C14_5 C4_5 1_555 1_555
H11_5 C14_5 1_555 1_555
H15_5 C14_5 1_555 1_555
H16_5 C14_5 1_555 1_555
N10_4 C7_5 1_555 1_555
C3_5 C1_5 1_555 1_555
H2_5 C3_5 1_555 1_555
H3_5 C3_5 1_555 1_555
Zn3_2 N6_5 1_555 1_555
C5_5 N5_5 1_555 1_555
N3_5 Zn1_6 1_555 1_555
N5_5 Zn1_6 1_555 1_555
N6_5 C5_5 1_555 1_555
C8_5 N3_5 1_555 1_555
C9_5 N10_3 1_555 1_555
C10_5 N5_5 1_555 1_555
C11_5 N6_5 1_555 1_555
H5_5 C8_5 1_555 1_555
H6_5 C9_5 1_555 1_555
H7_5 C10_5 1_555 1_555
H8_5 C11_5 1_555 1_555
C15_5 C5_5 1_555 1_555
H12_5 C15_5 1_555 1_555
H14_5 C3_5 1_555 1_555
H17_5 C15_5 1_555 1_555
H18_5 C15_5 1_555 1_555
C8_5 C9_5 1_555 1_555
C10_5 C11_5 1_555 1_555
C3_6 C1_6 1_555 1_555
H2_6 C3_6 1_555 1_555
H3_6 C3_6 1_555 1_555
Zn2 N6_6 1_555 1_555
C5_6 N5_6 1_555 1_555
N3_6 Zn5_5 1_555 1_555
N5_6 Zn5_5 1_555 1_555
N6_6 C5_6 1_555 1_555
C8_6 N3_6 1_555 1_555
C9_6 N11_3 1_555 1_555
C10_6 N5_6 1_555 1_555
C11_6 N6_6 1_555 1_555
H5_6 C8_6 1_555 1_555
H6_6 C9_6 1_555 1_555
H7_6 C10_6 1_555 1_555
H8_6 C11_6 1_555 1_555
C15_6 C5_6 1_555 1_555
H12_6 C15_6 1_555 1_555
H14_6 C3_6 1_555 1_555
H17_6 C15_6 1_555 1_555
H18_6 C15_6 1_555 1_555
C8_6 C9_6 1_555 1_555
C10_6 C11_6 1_555 1_555
Zn5_6 N1_6 1_555 1_555
N1_6 C2_6 1_555 1_555
C2_6 H1_6 1_555 1_555
C7_6 C2_6 1_555 1_555
H4_6 C7_6 1_555 1_555
C14_6 C4_6 1_555 1_555
H11_6 C14_6 1_555 1_555
H15_6 C14_6 1_555 1_555
H16_6 C14_6 1_555 1_555
N11_4 C7_6 1_555 1_555
C6_6 N8_6 1_555 1_555
N8_6 Zn2_2 1_555 1_555
N7_3 C6_6 1_555 1_555
C12_6 N8_6 1_555 1_555
C13_6 N7_3 1_555 1_555
H9_6 C12_6 1_555 1_555
H10_6 C13_6 1_555 1_555
C16_6 C6_6 1_555 1_555
H13_6 C16_6 1_555 1_555
H19_6 C16_6 1_555 1_555
H20_6 C16_6 1_555 1_555
C12_6 C13_6 1_555 1_555

#END
