
###############################################################################
#
# This file contains modified crystal structure data generated from the
# MOF subset of the Cambridge Structural Database (CSD) v543 
# hosted by the Cambridge Crystallographic Data Centre (CCDC).
#
# This work is licensed under the Creative Commons
# Attribution-NonCommercial-ShareAlike 4.0 International License.
# To view a copy of this license, visit
# http://creativecommons.org/licenses/by-nc-sa/4.0/
# or send a letter to
# Creative Commons, PO Box 1866, Mountain View, CA 94042, USA.
#
# CIF created using the CSD Python API on 29 September 2022
# The structure has been converted into the P1 space group
# The structure has a 3D framework
# The original CSD entry SEFVEG02 is in the cubic crystal system
# The framework has been calculated to contain at least 10.0% void space
# The void calculation uses a probe of radius 1.32A, grid spacing 0.4
#
###############################################################################

data_SEFVEG02
_chemical_formula_moiety         '(C96 H120 N48 Zn24)n'
_symmetry_cell_setting           triclinic
_symmetry_space_group_name_H-M   'P 1'
_symmetry_Int_Tables_number      1
_space_group_name_Hall           'P 1'
loop_
_symmetry_equiv_pos_site_id
_symmetry_equiv_pos_as_xyz
1 x,y,z
_cell_length_a                   17.133(2)
_cell_length_b                   17.133(2)
_cell_length_c                   17.133(2)
_cell_angle_alpha                90
_cell_angle_beta                 90
_cell_angle_gamma                90
_cell_volume                     5029.22
loop_
_atom_site_label
_atom_site_type_symbol
_atom_site_fract_x
_atom_site_fract_y
_atom_site_fract_z
Zn5 Zn -0.0000 0.2500 0.5000
Zn1 Zn -0.0000 0.7500 0.5000
N1 N 0.03314(13) 0.68114(13) 0.41128(13)
C2 C 0.10931(18) 0.6661(2) 0.39010(17)
H1 H 0.1542 0.6908 0.4112
Zn2 Zn -0.0000 0.5000 0.2500
Zn3 Zn -0.0000 0.5000 0.7500
C4 C 0.01000(15) 0.63219(15) 0.6322(3)
N2 N 0.03314(13) 0.58872(13) 0.31886(13)
N7 N 0.08872(13) 0.81886(13) 0.53314(13)
C7 C 0.10931(18) 0.60990(17) 0.3339(2)
H4 H 0.1542 0.5888 0.3092
C14 C 0.0978(2) 0.6260(2) 0.6260(3)
H11 H 0.1221 0.6626 0.6626
H15 H 0.1141 0.6387 0.5727
H16 H 0.1141 0.5727 0.6387
Zn4 Zn 0.7500 -0.0000 0.5000
Zn5_2 Zn 1.0000 0.2500 0.5000
C6 C 0.86781(15) 0.1322(3) 0.49000(15)
N8 N 0.81886(13) 0.08872(13) 0.53314(13)
N9 N 0.91128(13) 0.18114(13) 0.53314(13)
N11 N 0.68114(13) 0.03314(13) 0.41128(13)
C12 C 0.8339(2) 0.10990(17) 0.60931(18)
C13 C 0.89010(17) 0.1661(2) 0.60931(18)
H9 H 0.8092 0.0888 0.6542
H10 H 0.9112 0.1908 0.6542
C16 C 0.8740(2) 0.1260(3) 0.4022(2)
H13 H 0.8374 0.1626 0.3779
H19 H 0.8613 0.0727 0.3859
H20 H 0.9273 0.1387 0.3859
Zn1_2 Zn 1.0000 0.7500 0.5000
C1 C 0.99000(15) 0.63219(15) 0.3678(3)
C3 C 0.9022(2) 0.6260(2) 0.3740(3)
H2 H 0.8779 0.6626 0.3374
H3 H 0.8859 0.6387 0.4273
Zn2_2 Zn 1.0000 0.5000 0.2500
Zn3_2 Zn 1.0000 0.5000 0.7500
Zn4_2 Zn 0.7500 1.0000 0.5000
C5 C 0.8678(3) 0.86781(15) 0.51000(15)
N3 N 0.96686(13) 0.68114(13) 0.58872(13)
N4 N 0.96686(13) 0.58872(13) 0.68114(13)
N5 N 0.91128(13) 0.81886(13) 0.46686(13)
N6 N 0.81886(13) 0.91128(13) 0.46686(13)
N10 N 0.68114(13) 0.96686(13) 0.58872(13)
C8 C 0.89069(18) 0.6661(2) 0.60990(17)
C9 C 0.89069(18) 0.60990(17) 0.6661(2)
C10 C 0.89010(17) 0.8339(2) 0.39069(18)
C11 C 0.8339(2) 0.89010(17) 0.39069(18)
H5 H 0.8458 0.6908 0.5888
H6 H 0.8458 0.5888 0.6908
H7 H 0.9112 0.8092 0.3458
H8 H 0.8092 0.9112 0.3458
C15 C 0.8740(2) 0.8740(3) 0.5978(2)
H12 H 0.8374 0.8374 0.6221
H14 H 0.8859 0.5727 0.3613
H17 H 0.9273 0.8613 0.6141
H18 H 0.8613 0.9273 0.6141
C1_2 C 0.01000(15) 0.36781(15) 0.3678(3)
C3_2 C 0.0978(2) 0.3740(2) 0.3740(3)
H2_2 H 0.1221 0.3374 0.3374
H3_2 H 0.1141 0.3613 0.4273
Zn4_3 Zn 0.2500 -0.0000 0.5000
C5_2 C 0.1322(3) 0.13219(15) 0.51000(15)
N3_2 N 0.03314(13) 0.31886(13) 0.58872(13)
N4_2 N 0.03314(13) 0.41128(13) 0.68114(13)
N5_2 N 0.08872(13) 0.18114(13) 0.46686(13)
N6_2 N 0.18114(13) 0.08872(13) 0.46686(13)
N10_2 N 0.31886(13) 0.03314(13) 0.58872(13)
C8_2 C 0.10931(18) 0.3339(2) 0.60990(17)
C9_2 C 0.10931(18) 0.39010(17) 0.6661(2)
C10_2 C 0.10990(17) 0.1661(2) 0.39069(18)
C11_2 C 0.1661(2) 0.10990(17) 0.39069(18)
H5_2 H 0.1542 0.3092 0.5888
H6_2 H 0.1542 0.4112 0.6908
H7_2 H 0.0888 0.1908 0.3458
H8_2 H 0.1908 0.0888 0.3458
C15_2 C 0.1260(2) 0.1260(3) 0.5978(2)
H12_2 H 0.1626 0.1626 0.6221
H14_2 H 0.1141 0.4273 0.3613
H17_2 H 0.0727 0.1387 0.6141
H18_2 H 0.1387 0.0727 0.6141
Zn4_4 Zn 0.2500 1.0000 0.5000
C6_2 C 0.13219(15) 0.8678(3) 0.49000(15)
N8_2 N 0.18114(13) 0.91128(13) 0.53314(13)
N11_2 N 0.31886(13) 0.96686(13) 0.41128(13)
C12_2 C 0.1661(2) 0.89010(17) 0.60931(18)
C13_2 C 0.10990(17) 0.8339(2) 0.60931(18)
H9_2 H 0.1908 0.9112 0.6542
H10_2 H 0.0888 0.8092 0.6542
C16_2 C 0.1260(2) 0.8740(3) 0.4022(2)
H13_2 H 0.1626 0.8374 0.3779
H19_2 H 0.1387 0.9273 0.3859
H20_2 H 0.0727 0.8613 0.3859
N1_2 N 0.96686(13) 0.31886(13) 0.41128(13)
C2_2 C 0.89069(18) 0.3339(2) 0.39010(17)
H1_2 H 0.8458 0.3092 0.4112
C4_2 C 0.99000(15) 0.36781(15) 0.6322(3)
N2_2 N 0.96686(13) 0.41128(13) 0.31886(13)
C7_2 C 0.89069(18) 0.39010(17) 0.3339(2)
H4_2 H 0.8458 0.4112 0.3092
C14_2 C 0.9022(2) 0.3740(2) 0.6260(3)
H11_2 H 0.8779 0.3374 0.6626
H15_2 H 0.8859 0.3613 0.5727
H16_2 H 0.8859 0.4273 0.6387
Zn5_3 Zn 0.5000 -0.0000 0.2500
Zn1_3 Zn 0.5000 -0.0000 0.7500
N1_3 N 0.41128(13) 0.03314(13) 0.68114(13)
C2_3 C 0.39010(17) 0.10931(18) 0.6661(2)
H1_3 H 0.4112 0.1542 0.6908
C4_3 C 0.6322(3) 0.01000(15) 0.63219(15)
N7_2 N 0.53314(13) 0.08872(13) 0.81886(13)
C7_3 C 0.3339(2) 0.10931(18) 0.60990(17)
H4_3 H 0.3092 0.1542 0.5888
C14_3 C 0.6260(3) 0.0978(2) 0.6260(2)
H11_3 H 0.6626 0.1221 0.6626
H15_3 H 0.5727 0.1141 0.6387
H16_3 H 0.6387 0.1141 0.5727
Zn4_5 Zn 0.5000 0.7500 0.0000
Zn5_4 Zn 0.5000 1.0000 0.2500
C6_3 C 0.49000(15) 0.86781(15) 0.1322(3)
N8_3 N 0.53314(13) 0.81886(13) 0.08872(13)
N9_2 N 0.53314(13) 0.91128(13) 0.18114(13)
N11_3 N 0.41128(13) 0.68114(13) 0.03314(13)
C12_3 C 0.60931(18) 0.8339(2) 0.10990(17)
C13_3 C 0.60931(18) 0.89010(17) 0.1661(2)
H9_3 H 0.6542 0.8092 0.0888
H10_3 H 0.6542 0.9112 0.1908
C16_3 C 0.4022(2) 0.8740(2) 0.1260(3)
H13_3 H 0.3779 0.8374 0.1626
H19_3 H 0.3859 0.8613 0.0727
H20_3 H 0.3859 0.9273 0.1387
Zn1_4 Zn 0.5000 1.0000 0.7500
C1_3 C 0.3678(3) 0.99000(15) 0.63219(15)
C3_3 C 0.3740(3) 0.9022(2) 0.6260(2)
H2_3 H 0.3374 0.8779 0.6626
H3_3 H 0.4273 0.8859 0.6387
Zn4_6 Zn 0.5000 0.7500 1.0000
C5_3 C 0.51000(15) 0.8678(3) 0.86781(15)
N3_3 N 0.58872(13) 0.96686(13) 0.68114(13)
N5_3 N 0.46686(13) 0.91128(13) 0.81886(13)
N6_3 N 0.46686(13) 0.81886(13) 0.91128(13)
N10_3 N 0.58872(13) 0.68114(13) 0.96686(13)
C8_3 C 0.60990(17) 0.89069(18) 0.6661(2)
C9_3 C 0.6661(2) 0.89069(18) 0.60990(17)
C10_3 C 0.39069(18) 0.89010(17) 0.8339(2)
C11_3 C 0.39069(18) 0.8339(2) 0.89010(17)
H5_3 H 0.5888 0.8458 0.6908
H6_3 H 0.6908 0.8458 0.5888
H7_3 H 0.3458 0.9112 0.8092
H8_3 H 0.3458 0.8092 0.9112
C15_3 C 0.5978(2) 0.8740(2) 0.8740(3)
H12_3 H 0.6221 0.8374 0.8374
H14_3 H 0.3613 0.8859 0.5727
H17_3 H 0.6141 0.9273 0.8613
H18_3 H 0.6141 0.8613 0.9273
C1_4 C 0.3678(3) 0.01000(15) 0.36781(15)
C3_4 C 0.3740(3) 0.0978(2) 0.3740(2)
H2_4 H 0.3374 0.1221 0.3374
H3_4 H 0.4273 0.1141 0.3613
Zn4_7 Zn 0.5000 0.2500 0.0000
C5_4 C 0.51000(15) 0.1322(3) 0.13219(15)
N3_4 N 0.58872(13) 0.03314(13) 0.31886(13)
N5_4 N 0.46686(13) 0.08872(13) 0.18114(13)
N6_4 N 0.46686(13) 0.18114(13) 0.08872(13)
N10_4 N 0.58872(13) 0.31886(13) 0.03314(13)
C8_4 C 0.60990(17) 0.10931(18) 0.3339(2)
C9_4 C 0.6661(2) 0.10931(18) 0.39010(17)
C10_4 C 0.39069(18) 0.10990(17) 0.1661(2)
C11_4 C 0.39069(18) 0.1661(2) 0.10990(17)
H5_4 H 0.5888 0.1542 0.3092
H6_4 H 0.6908 0.1542 0.4112
H7_4 H 0.3458 0.0888 0.1908
H8_4 H 0.3458 0.1908 0.0888
C15_4 C 0.5978(2) 0.1260(2) 0.1260(3)
H12_4 H 0.6221 0.1626 0.1626
H14_4 H 0.3613 0.1141 0.4273
H17_4 H 0.6141 0.0727 0.1387
H18_4 H 0.6141 0.1387 0.0727
Zn4_8 Zn 0.5000 0.2500 1.0000
C6_4 C 0.49000(15) 0.13219(15) 0.8678(3)
N8_4 N 0.53314(13) 0.18114(13) 0.91128(13)
N11_4 N 0.41128(13) 0.31886(13) 0.96686(13)
C12_4 C 0.60931(18) 0.1661(2) 0.89010(17)
C13_4 C 0.60931(18) 0.10990(17) 0.8339(2)
H9_4 H 0.6542 0.1908 0.9112
H10_4 H 0.6542 0.0888 0.8092
C16_4 C 0.4022(2) 0.1260(2) 0.8740(3)
H13_4 H 0.3779 0.1626 0.8374
H19_4 H 0.3859 0.1387 0.9273
H20_4 H 0.3859 0.0727 0.8613
N1_4 N 0.41128(13) 0.96686(13) 0.31886(13)
C2_4 C 0.39010(17) 0.89069(18) 0.3339(2)
H1_4 H 0.4112 0.8458 0.3092
C4_4 C 0.6322(3) 0.99000(15) 0.36781(15)
C7_4 C 0.3339(2) 0.89069(18) 0.39010(17)
H4_4 H 0.3092 0.8458 0.4112
C14_4 C 0.6260(3) 0.9022(2) 0.3740(2)
H11_4 H 0.6626 0.8779 0.3374
H15_4 H 0.5727 0.8859 0.3613
H16_4 H 0.6387 0.8859 0.4273
Zn5_5 Zn 0.2500 0.5000 -0.0000
Zn5_6 Zn 0.2500 0.5000 1.0000
C6_5 C 0.1322(3) 0.49000(15) 0.86781(15)
N8_5 N 0.08872(13) 0.53314(13) 0.81886(13)
N9_3 N 0.18114(13) 0.53314(13) 0.91128(13)
C12_5 C 0.10990(17) 0.60931(18) 0.8339(2)
C13_5 C 0.1661(2) 0.60931(18) 0.89010(17)
H9_5 H 0.0888 0.6542 0.8092
H10_5 H 0.1908 0.6542 0.9112
C16_5 C 0.1260(3) 0.4022(2) 0.8740(2)
H13_5 H 0.1626 0.3779 0.8374
H19_5 H 0.0727 0.3859 0.8613
H20_5 H 0.1387 0.3859 0.9273
Zn1_5 Zn 0.7500 0.5000 -0.0000
N1_5 N 0.68114(13) 0.41128(13) 0.03314(13)
C2_5 C 0.6661(2) 0.39010(17) 0.10931(18)
H1_5 H 0.6908 0.4112 0.1542
C4_5 C 0.63219(15) 0.6322(3) 0.01000(15)
N7_3 N 0.81886(13) 0.53314(13) 0.08872(13)
C7_5 C 0.60990(17) 0.3339(2) 0.10931(18)
H4_5 H 0.5888 0.3092 0.1542
C14_5 C 0.6260(2) 0.6260(3) 0.0978(2)
H11_5 H 0.6626 0.6626 0.1221
H15_5 H 0.6387 0.5727 0.1141
H16_5 H 0.5727 0.6387 0.1141
Zn1_6 Zn 0.7500 0.5000 1.0000
C1_5 C 0.63219(15) 0.3678(3) 0.99000(15)
C3_5 C 0.6260(2) 0.3740(3) 0.9022(2)
H2_5 H 0.6626 0.3374 0.8779
H3_5 H 0.6387 0.4273 0.8859
C5_5 C 0.86781(15) 0.51000(15) 0.8678(3)
N3_5 N 0.68114(13) 0.58872(13) 0.96686(13)
N5_5 N 0.81886(13) 0.46686(13) 0.91128(13)
N6_5 N 0.91128(13) 0.46686(13) 0.81886(13)
C8_5 C 0.6661(2) 0.60990(17) 0.89069(18)
C9_5 C 0.60990(17) 0.6661(2) 0.89069(18)
C10_5 C 0.8339(2) 0.39069(18) 0.89010(17)
C11_5 C 0.89010(17) 0.39069(18) 0.8339(2)
H5_5 H 0.6908 0.5888 0.8458
H6_5 H 0.5888 0.6908 0.8458
H7_5 H 0.8092 0.3458 0.9112
H8_5 H 0.9112 0.3458 0.8092
C15_5 C 0.8740(3) 0.5978(2) 0.8740(2)
H12_5 H 0.8374 0.6221 0.8374
H14_5 H 0.5727 0.3613 0.8859
H17_5 H 0.8613 0.6141 0.9273
H18_5 H 0.9273 0.6141 0.8613
C1_6 C 0.36781(15) 0.3678(3) 0.01000(15)
C3_6 C 0.3740(2) 0.3740(3) 0.0978(2)
H2_6 H 0.3374 0.3374 0.1221
H3_6 H 0.3613 0.4273 0.1141
C5_6 C 0.13219(15) 0.51000(15) 0.1322(3)
N3_6 N 0.31886(13) 0.58872(13) 0.03314(13)
N5_6 N 0.18114(13) 0.46686(13) 0.08872(13)
N6_6 N 0.08872(13) 0.46686(13) 0.18114(13)
C8_6 C 0.3339(2) 0.60990(17) 0.10931(18)
C9_6 C 0.39010(17) 0.6661(2) 0.10931(18)
C10_6 C 0.1661(2) 0.39069(18) 0.10990(17)
C11_6 C 0.10990(17) 0.39069(18) 0.1661(2)
H5_6 H 0.3092 0.5888 0.1542
H6_6 H 0.4112 0.6908 0.1542
H7_6 H 0.1908 0.3458 0.0888
H8_6 H 0.0888 0.3458 0.1908
C15_6 C 0.1260(3) 0.5978(2) 0.1260(2)
H12_6 H 0.1626 0.6221 0.1626
H14_6 H 0.4273 0.3613 0.1141
H17_6 H 0.1387 0.6141 0.0727
H18_6 H 0.0727 0.6141 0.1387
N1_6 N 0.31886(13) 0.41128(13) 0.96686(13)
C2_6 C 0.3339(2) 0.39010(17) 0.89069(18)
H1_6 H 0.3092 0.4112 0.8458
C4_6 C 0.36781(15) 0.6322(3) 0.99000(15)
C7_6 C 0.39010(17) 0.3339(2) 0.89069(18)
H4_6 H 0.4112 0.3092 0.8458
C14_6 C 0.3740(2) 0.6260(3) 0.9022(2)
H11_6 H 0.3374 0.6626 0.8779
H15_6 H 0.3613 0.5727 0.8859
H16_6 H 0.4273 0.6387 0.8859
C6_6 C 0.8678(3) 0.49000(15) 0.13219(15)
N8_6 N 0.91128(13) 0.53314(13) 0.18114(13)
C12_6 C 0.89010(17) 0.60931(18) 0.1661(2)
C13_6 C 0.8339(2) 0.60931(18) 0.10990(17)
H9_6 H 0.9112 0.6542 0.1908
H10_6 H 0.8092 0.6542 0.0888
C16_6 C 0.8740(3) 0.4022(2) 0.1260(2)
H13_6 H 0.8374 0.3779 0.1626
H19_6 H 0.9273 0.3859 0.1387
H20_6 H 0.8613 0.3859 0.0727
loop_
_geom_bond_atom_site_label_1
_geom_bond_atom_site_label_2
_geom_bond_site_symmetry_1
_geom_bond_site_symmetry_2
Zn1 N1 1_555 1_555
N1 C2 1_555 1_555
C2 H1 1_555 1_555
Zn2 N2 1_555 1_555
N7 Zn1 1_555 1_555
C7 C2 1_555 1_555
H4 C7 1_555 1_555
C14 C4 1_555 1_555
H11 C14 1_555 1_555
H15 C14 1_555 1_555
H16 C14 1_555 1_555
N2 C7 1_555 1_555
Zn5_2 N9 1_555 1_555
C6 N8 1_555 1_555
N8 Zn4 1_555 1_555
N9 C6 1_555 1_555
N11 Zn4 1_555 1_555
C12 N8 1_555 1_555
C13 N9 1_555 1_555
H9 C12 1_555 1_555
H10 C13 1_555 1_555
C16 C6 1_555 1_555
H13 C16 1_555 1_555
H19 C16 1_555 1_555
H20 C16 1_555 1_555
C12 C13 1_555 1_555
C3 C1 1_555 1_555
H2 C3 1_555 1_555
H3 C3 1_555 1_555
Zn3_2 N4 1_555 1_555
Zn4_2 N6 1_555 1_555
C5 N5 1_555 1_555
N3 Zn1_2 1_555 1_555
N5 Zn1_2 1_555 1_555
N6 C5 1_555 1_555
N10 Zn4_2 1_555 1_555
C8 N3 1_555 1_555
C9 N4 1_555 1_555
C10 N5 1_555 1_555
C11 N6 1_555 1_555
H5 C8 1_555 1_555
H6 C9 1_555 1_555
H7 C10 1_555 1_555
H8 C11 1_555 1_555
C15 C5 1_555 1_555
H12 C15 1_555 1_555
H14 C3 1_555 1_555
H17 C15 1_555 1_555
H18 C15 1_555 1_555
C8 C9 1_555 1_555
C10 C11 1_555 1_555
C3_2 C1_2 1_555 1_555
H2_2 C3_2 1_555 1_555
H3_2 C3_2 1_555 1_555
Zn3 N4_2 1_555 1_555
Zn4_3 N6_2 1_555 1_555
C5_2 N5_2 1_555 1_555
N3_2 Zn5 1_555 1_555
N5_2 Zn5 1_555 1_555
N6_2 C5_2 1_555 1_555
N10_2 Zn4_3 1_555 1_555
C8_2 N3_2 1_555 1_555
C9_2 N4_2 1_555 1_555
C10_2 N5_2 1_555 1_555
C11_2 N6_2 1_555 1_555
H5_2 C8_2 1_555 1_555
H6_2 C9_2 1_555 1_555
H7_2 C10_2 1_555 1_555
H8_2 C11_2 1_555 1_555
C15_2 C5_2 1_555 1_555
H12_2 C15_2 1_555 1_555
H14_2 C3_2 1_555 1_555
H17_2 C15_2 1_555 1_555
H18_2 C15_2 1_555 1_555
C8_2 C9_2 1_555 1_555
C10_2 C11_2 1_555 1_555
C6_2 N8_2 1_555 1_555
N8_2 Zn4_4 1_555 1_555
N7 C6_2 1_555 1_555
N11_2 Zn4_4 1_555 1_555
C12_2 N8_2 1_555 1_555
C13_2 N7 1_555 1_555
H9_2 C12_2 1_555 1_555
H10_2 C13_2 1_555 1_555
C16_2 C6_2 1_555 1_555
H13_2 C16_2 1_555 1_555
H19_2 C16_2 1_555 1_555
H20_2 C16_2 1_555 1_555
C12_2 C13_2 1_555 1_555
Zn5_2 N1_2 1_555 1_555
N1_2 C2_2 1_555 1_555
C2_2 H1_2 1_555 1_555
Zn2_2 N2_2 1_555 1_555
C7_2 C2_2 1_555 1_555
H4_2 C7_2 1_555 1_555
C14_2 C4_2 1_555 1_555
H11_2 C14_2 1_555 1_555
H15_2 C14_2 1_555 1_555
H16_2 C14_2 1_555 1_555
N2_2 C7_2 1_555 1_555
Zn1_3 N1_3 1_555 1_555
N1_3 C2_3 1_555 1_555
C2_3 H1_3 1_555 1_555
N7_2 Zn1_3 1_555 1_555
C7_3 C2_3 1_555 1_555
H4_3 C7_3 1_555 1_555
C14_3 C4_3 1_555 1_555
H11_3 C14_3 1_555 1_555
H15_3 C14_3 1_555 1_555
H16_3 C14_3 1_555 1_555
N10_2 C7_3 1_555 1_555
Zn5_4 N9_2 1_555 1_555
C6_3 N8_3 1_555 1_555
N8_3 Zn4_5 1_555 1_555
N9_2 C6_3 1_555 1_555
N11_3 Zn4_5 1_555 1_555
C12_3 N8_3 1_555 1_555
C13_3 N9_2 1_555 1_555
H9_3 C12_3 1_555 1_555
H10_3 C13_3 1_555 1_555
C16_3 C6_3 1_555 1_555
H13_3 C16_3 1_555 1_555
H19_3 C16_3 1_555 1_555
H20_3 C16_3 1_555 1_555
C12_3 C13_3 1_555 1_555
C3_3 C1_3 1_555 1_555
H2_3 C3_3 1_555 1_555
H3_3 C3_3 1_555 1_555
Zn4_6 N6_3 1_555 1_555
C5_3 N5_3 1_555 1_555
N3_3 Zn1_4 1_555 1_555
N5_3 Zn1_4 1_555 1_555
N6_3 C5_3 1_555 1_555
N10_3 Zn4_6 1_555 1_555
C8_3 N3_3 1_555 1_555
C9_3 N10 1_555 1_555
C10_3 N5_3 1_555 1_555
C11_3 N6_3 1_555 1_555
H5_3 C8_3 1_555 1_555
H6_3 C9_3 1_555 1_555
H7_3 C10_3 1_555 1_555
H8_3 C11_3 1_555 1_555
C15_3 C5_3 1_555 1_555
H12_3 C15_3 1_555 1_555
H14_3 C3_3 1_555 1_555
H17_3 C15_3 1_555 1_555
H18_3 C15_3 1_555 1_555
C8_3 C9_3 1_555 1_555
C10_3 C11_3 1_555 1_555
C3_4 C1_4 1_555 1_555
H2_4 C3_4 1_555 1_555
H3_4 C3_4 1_555 1_555
Zn4_7 N6_4 1_555 1_555
C5_4 N5_4 1_555 1_555
N3_4 Zn5_3 1_555 1_555
N5_4 Zn5_3 1_555 1_555
N6_4 C5_4 1_555 1_555
N10_4 Zn4_7 1_555 1_555
C8_4 N3_4 1_555 1_555
C9_4 N11 1_555 1_555
C10_4 N5_4 1_555 1_555
C11_4 N6_4 1_555 1_555
H5_4 C8_4 1_555 1_555
H6_4 C9_4 1_555 1_555
H7_4 C10_4 1_555 1_555
H8_4 C11_4 1_555 1_555
C15_4 C5_4 1_555 1_555
H12_4 C15_4 1_555 1_555
H14_4 C3_4 1_555 1_555
H17_4 C15_4 1_555 1_555
H18_4 C15_4 1_555 1_555
C8_4 C9_4 1_555 1_555
C10_4 C11_4 1_555 1_555
C6_4 N8_4 1_555 1_555
N8_4 Zn4_8 1_555 1_555
N7_2 C6_4 1_555 1_555
N11_4 Zn4_8 1_555 1_555
C12_4 N8_4 1_555 1_555
C13_4 N7_2 1_555 1_555
H9_4 C12_4 1_555 1_555
H10_4 C13_4 1_555 1_555
C16_4 C6_4 1_555 1_555
H13_4 C16_4 1_555 1_555
H19_4 C16_4 1_555 1_555
H20_4 C16_4 1_555 1_555
C12_4 C13_4 1_555 1_555
Zn5_4 N1_4 1_555 1_555
N1_4 C2_4 1_555 1_555
C2_4 H1_4 1_555 1_555
C7_4 C2_4 1_555 1_555
H4_4 C7_4 1_555 1_555
C14_4 C4_4 1_555 1_555
H11_4 C14_4 1_555 1_555
H15_4 C14_4 1_555 1_555
H16_4 C14_4 1_555 1_555
N11_2 C7_4 1_555 1_555
Zn5_6 N9_3 1_555 1_555
C6_5 N8_5 1_555 1_555
N8_5 Zn3 1_555 1_555
N9_3 C6_5 1_555 1_555
C12_5 N8_5 1_555 1_555
C13_5 N9_3 1_555 1_555
H9_5 C12_5 1_555 1_555
H10_5 C13_5 1_555 1_555
C16_5 C6_5 1_555 1_555
H13_5 C16_5 1_555 1_555
H19_5 C16_5 1_555 1_555
H20_5 C16_5 1_555 1_555
C12_5 C13_5 1_555 1_555
Zn1_5 N1_5 1_555 1_555
N1_5 C2_5 1_555 1_555
C2_5 H1_5 1_555 1_555
N7_3 Zn1_5 1_555 1_555
C7_5 C2_5 1_555 1_555
H4_5 C7_5 1_555 1_555
C14_5 C4_5 1_555 1_555
H11_5 C14_5 1_555 1_555
H15_5 C14_5 1_555 1_555
H16_5 C14_5 1_555 1_555
N10_4 C7_5 1_555 1_555
C3_5 C1_5 1_555 1_555
H2_5 C3_5 1_555 1_555
H3_5 C3_5 1_555 1_555
Zn3_2 N6_5 1_555 1_555
C5_5 N5_5 1_555 1_555
N3_5 Zn1_6 1_555 1_555
N5_5 Zn1_6 1_555 1_555
N6_5 C5_5 1_555 1_555
C8_5 N3_5 1_555 1_555
C9_5 N10_3 1_555 1_555
C10_5 N5_5 1_555 1_555
C11_5 N6_5 1_555 1_555
H5_5 C8_5 1_555 1_555
H6_5 C9_5 1_555 1_555
H7_5 C10_5 1_555 1_555
H8_5 C11_5 1_555 1_555
C15_5 C5_5 1_555 1_555
H12_5 C15_5 1_555 1_555
H14_5 C3_5 1_555 1_555
H17_5 C15_5 1_555 1_555
H18_5 C15_5 1_555 1_555
C8_5 C9_5 1_555 1_555
C10_5 C11_5 1_555 1_555
C3_6 C1_6 1_555 1_555
H2_6 C3_6 1_555 1_555
H3_6 C3_6 1_555 1_555
Zn2 N6_6 1_555 1_555
C5_6 N5_6 1_555 1_555
N3_6 Zn5_5 1_555 1_555
N5_6 Zn5_5 1_555 1_555
N6_6 C5_6 1_555 1_555
C8_6 N3_6 1_555 1_555
C9_6 N11_3 1_555 1_555
C10_6 N5_6 1_555 1_555
C11_6 N6_6 1_555 1_555
H5_6 C8_6 1_555 1_555
H6_6 C9_6 1_555 1_555
H7_6 C10_6 1_555 1_555
H8_6 C11_6 1_555 1_555
C15_6 C5_6 1_555 1_555
H12_6 C15_6 1_555 1_555
H14_6 C3_6 1_555 1_555
H17_6 C15_6 1_555 1_555
H18_6 C15_6 1_555 1_555
C8_6 C9_6 1_555 1_555
C10_6 C11_6 1_555 1_555
Zn5_6 N1_6 1_555 1_555
N1_6 C2_6 1_555 1_555
C2_6 H1_6 1_555 1_555
C7_6 C2_6 1_555 1_555
H4_6 C7_6 1_555 1_555
C14_6 C4_6 1_555 1_555
H11_6 C14_6 1_555 1_555
H15_6 C14_6 1_555 1_555
H16_6 C14_6 1_555 1_555
N11_4 C7_6 1_555 1_555
C6_6 N8_6 1_555 1_555
N8_6 Zn2_2 1_555 1_555
N7_3 C6_6 1_555 1_555
C12_6 N8_6 1_555 1_555
C13_6 N7_3 1_555 1_555
H9_6 C12_6 1_555 1_555
H10_6 C13_6 1_555 1_555
C16_6 C6_6 1_555 1_555
H13_6 C16_6 1_555 1_555
H19_6 C16_6 1_555 1_555
H20_6 C16_6 1_555 1_555
C12_6 C13_6 1_555 1_555

#END
