
###############################################################################
#
# This file contains modified crystal structure data generated from the
# MOF subset of the Cambridge Structural Database (CSD) v543 
# hosted by the Cambridge Crystallographic Data Centre (CCDC).
#
# This work is licensed under the Creative Commons
# Attribution-NonCommercial-ShareAlike 4.0 International License.
# To view a copy of this license, visit
# http://creativecommons.org/licenses/by-nc-sa/4.0/
# or send a letter to
# Creative Commons, PO Box 1866, Mountain View, CA 94042, USA.
#
# CIF created using the CSD Python API on 29 September 2022
# The structure has been converted into the P1 space group
# The structure has a 3D framework
# The original CSD entry SEGBIR is in the rhombohedral crystal system
# The framework has been calculated to contain at least 10.0% void space
# The void calculation uses a probe of radius 1.32A, grid spacing 0.4
#
###############################################################################

data_SEGBIR
_chemical_formula_moiety         '(C144 H90 Cu8 N36 O36)n'
_symmetry_cell_setting           triclinic
_symmetry_space_group_name_H-M   'P 1'
_symmetry_Int_Tables_number      1
_space_group_name_Hall           'P 1'
loop_
_symmetry_equiv_pos_site_id
_symmetry_equiv_pos_as_xyz
1 x,y,z
_cell_length_a                   33.6525(6)
_cell_length_b                   33.6525(6)
_cell_length_c                   4.80132(11)
_cell_angle_alpha                90
_cell_angle_beta                 90
_cell_angle_gamma                120
_cell_volume                     4708.97
loop_
_atom_site_label
_atom_site_type_symbol
_atom_site_fract_x
_atom_site_fract_y
_atom_site_fract_z
Cu1 Cu 0.8333 0.1667 0.1667
O1 O 0.80690(5) 0.10553(5) 0.3304(3)
H1 H 0.7279 0.0852 0.1257
C8 C 0.81733(7) 0.08181(8) 0.1719(5)
O3 O 0.85977(5) 0.22780(5) 0.0029(3)
N3 N 0.89084(6) 0.18826(6) 0.3797(4)
C10 C 0.79534(11) 0.03138(8) 0.2329(5)
C12 C 0.76166(11) 0.01184(8) 0.4344(5)
H8 H 0.7523 0.0298 0.5390
C14 C 0.80914(12) 0.00449(8) 0.0780(5)
N5 N 0.89485(6) 0.16248(11) 0.5827(4)
C9 C 0.93189(7) 0.22440(13) 0.3393(5)
H6 H 0.9388 0.2481 0.2076
C11 C 0.95834(9) 0.16774(16) 0.8807(5)
H7 H 0.9407 0.1404 0.9848
C13 C 0.96414(7) 0.22269(12) 0.5212(5)
C15 C 0.93848(7) 0.18220(13) 0.6748(5)
H10 H 0.8699(8) 0.1398(14) 0.646(7)
C2 C 0.87132(11) 0.30196(8) 0.1005(5)
C3 C 0.87607(13) 0.37500(9) 0.2141(5)
H2 H 0.8664 0.3927 0.3182
C6 C 0.85752(12) 0.32885(8) 0.2554(5)
H4 H 0.8345 0.3143 0.3935
C7 C 0.91039(11) 0.39486(7) 0.0082(5)
O5 O 0.82264(10) 0.23537(6) 0.3620(4)
C16 C 0.84934(14) 0.25152(8) 0.1614(5)
N1 N 0.77583(6) 0.14507(6) 0.9536(4)
N2 N 0.77182(6) 0.17085(7) 0.7506(4)
C1 C 0.73478(7) 0.10893(8) 0.9940(5)
O2 O 0.84403(6) 0.09796(6) 0.9713(4)
C2_2 C 0.63529(8) 0.09730(7) 0.5662(5)
C3_2 C 0.70833(9) 0.16559(9) 0.4526(5)
H2_2 H 0.7260 0.1929 0.3485
C4 C 0.65483(8) 0.08316(8) 0.7677(5)
H3 H 0.6369 0.0559 0.8723
C5 C 0.70253(7) 0.11064(7) 0.8121(5)
C6_2 C 0.66218(8) 0.13799(9) 0.4113(5)
H4_2 H 0.6476 0.1464 0.2732
C7_2 C 0.72819(7) 0.15113(8) 0.6585(5)
H5 H 0.7968(8) 0.1935(9) 0.687(7)
O4 O 0.56114(5) 0.03470(7) 0.6637(3)
O5_2 O 0.56871(6) 0.07940(8) 0.3046(4)
H9 H 0.8321 0.0191 0.9399
C16_2 C 0.58486(8) 0.06885(11) 0.5052(5)
Cu3 Cu 0.5000 0.9999 0.5000
Cu3_2 Cu 0.0001 0.5000 0.5000
N1_2 N 0.85493(6) 0.63076(8) 0.9536(4)
N2_2 N 0.82915(7) 0.60097(9) 0.7506(4)
C1_2 C 0.89107(8) 0.62585(11) 0.9940(5)
O2_2 O 0.90204(6) 0.74607(8) 0.9713(4)
C2_3 C 0.90270(7) 0.53799(11) 0.5662(5)
C3_3 C 0.83441(9) 0.54274(13) 0.4526(5)
H2_3 H 0.8071 0.5331 0.3485
C4_2 C 0.91684(8) 0.57167(11) 0.7677(5)
H3_2 H 0.9441 0.5810 0.8723
C5_2 C 0.88936(7) 0.59189(10) 0.8121(5)
C6_3 C 0.86201(9) 0.52419(12) 0.4113(5)
H4_3 H 0.8536 0.5012 0.2732
C7_3 C 0.84887(8) 0.57706(11) 0.6585(5)
H5_2 H 0.8065(9) 0.6033(12) 0.687(7)
O4_2 O 0.96530(7) 0.52643(9) 0.6637(3)
O5_3 O 0.92060(8) 0.48930(10) 0.3046(4)
H9_2 H 0.9809 0.8131 0.9399
C16_3 C 0.93115(11) 0.51600(14) 0.5052(5)
N1_3 N 0.36924(8) 0.22417(6) 0.9536(4)
N2_3 N 0.39903(9) 0.22818(6) 0.7506(4)
C1_3 C 0.37415(11) 0.26522(7) 0.9940(5)
O2_3 O 0.25393(8) 0.15597(6) 0.9713(4)
C2_4 C 0.46201(11) 0.36471(8) 0.5662(5)
C3_4 C 0.45726(13) 0.29167(9) 0.4526(5)
H2_4 H 0.4669 0.2740 0.3485
C4_3 C 0.42833(11) 0.34517(8) 0.7677(5)
H3_3 H 0.4190 0.3631 0.8723
C5_3 C 0.40811(10) 0.29747(7) 0.8121(5)
C6_4 C 0.47581(12) 0.33782(8) 0.4113(5)
H4_4 H 0.4988 0.3524 0.2732
C7_4 C 0.42294(11) 0.27181(7) 0.6585(5)
H5_3 H 0.3967(12) 0.2032(8) 0.687(7)
Cu3_3 Cu 0.5000 0.5000 0.5000
O4_3 O 0.47357(9) 0.43886(5) 0.6637(3)
O5_4 O 0.51070(10) 0.43129(6) 0.3046(4)
H9_3 H 0.1869 0.1679 0.9399
C16_4 C 0.48400(14) 0.41514(8) 0.5052(5)
N1_4 N 0.44250(6) 0.47840(6) 0.2869(4)
N2_4 N 0.43849(6) 0.50418(7) 0.0839(4)
C1_4 C 0.40145(7) 0.44226(8) 0.3273(5)
H1_2 H 0.3946 0.4185 0.4590
C4_4 C 0.32150(8) 0.41649(8) 0.1010(5)
H3_4 H 0.3036 0.3892 0.2056
C5_4 C 0.36920(7) 0.44397(7) 0.1454(5)
H5_4 H 0.4635(8) 0.5268(9) 0.020(7)
O3_2 O 0.52643(5) 0.56114(5) 0.3363(3)
N3_2 N 0.55750(6) 0.52160(6) 0.7131(4)
N3_3 N 0.47840(6) 0.03591(8) 0.7131(4)
N1_5 N 0.52160(6) 0.96409(8) 0.2869(4)
N2_5 N 0.49582(7) 0.93430(9) 0.0839(4)
C1_5 C 0.55774(8) 0.95918(11) 0.3273(5)
H1_3 H 0.5815 0.9760 0.4590
C4_5 C 0.58351(8) 0.90500(11) 0.1010(5)
H3_5 H 0.6108 0.9143 0.2056
C5_5 C 0.55603(7) 0.92522(10) 0.1454(5)
H5_5 H 0.4732(9) 0.9366(12) 0.020(7)
O3_3 O 0.43886(5) 0.96530(7) 0.3363(3)
N1_6 N 0.03591(8) 0.55750(6) 0.2869(4)
N2_6 N 0.06570(9) 0.56151(6) 0.0839(4)
C1_6 C 0.04082(11) 0.59855(7) 0.3273(5)
H1_4 H 0.0240 0.6054 0.4590
C4_6 C 0.09500(11) 0.67850(8) 0.1010(5)
H3_6 H 0.0857 0.6964 0.2056
C5_6 C 0.07478(10) 0.63080(7) 0.1454(5)
H5_6 H 0.0634(12) 0.5365(8) 0.020(7)
O3_4 O 0.03470(7) 0.47357(5) 0.3363(3)
N3_4 N 0.96409(8) 0.44250(6) 0.7131(4)
N3_5 N 0.22417(6) 0.85493(6) 0.0464(4)
N3_6 N 0.14507(6) 0.36924(8) 0.0464(4)
N3_7 N 0.63076(8) 0.77583(6) 0.0464(4)
Cu3_4 Cu 0.5000 0.0001 0.5000
N2_7 N 0.22818(6) 0.82915(7) 0.2494(4)
C1_7 C 0.26522(7) 0.89107(8) 0.0060(5)
O2_4 O 0.15597(6) 0.90204(6) 0.0287(4)
C2_5 C 0.36471(8) 0.90270(7) 0.4338(5)
C3_5 C 0.29167(9) 0.83441(9) 0.5474(5)
H2_5 H 0.2740 0.8071 0.6515
C4_7 C 0.34517(8) 0.91684(8) 0.2323(5)
H3_7 H 0.3631 0.9441 0.1277
C5_7 C 0.29747(7) 0.88936(7) 0.1879(5)
C6_5 C 0.33782(8) 0.86201(9) 0.5887(5)
H4_5 H 0.3524 0.8536 0.7268
C7_5 C 0.27181(7) 0.84887(8) 0.3415(5)
H5_7 H 0.2032(8) 0.8065(9) 0.313(7)
O5_5 O 0.43129(6) 0.92060(8) 0.6954(4)
H9_4 H 0.1679 0.9809 0.0601
C16_5 C 0.41514(8) 0.93115(11) 0.4948(5)
N2_8 N 0.17085(7) 0.39903(9) 0.2494(4)
C1_8 C 0.10893(8) 0.37415(11) 0.0060(5)
O2_5 O 0.09796(6) 0.25393(8) 0.0287(4)
C2_6 C 0.09730(7) 0.46201(11) 0.4338(5)
C3_6 C 0.16559(9) 0.45726(13) 0.5474(5)
H2_6 H 0.1929 0.4669 0.6515
C4_8 C 0.08316(8) 0.42833(11) 0.2323(5)
H3_8 H 0.0559 0.4190 0.1277
C5_8 C 0.11064(7) 0.40811(10) 0.1879(5)
C6_6 C 0.13799(9) 0.47581(12) 0.5887(5)
H4_6 H 0.1464 0.4988 0.7268
C7_6 C 0.15113(8) 0.42294(11) 0.3415(5)
H5_8 H 0.1935(9) 0.3967(12) 0.313(7)
O5_6 O 0.07940(8) 0.51070(10) 0.6954(4)
H9_5 H 0.0191 0.1869 0.0601
C16_6 C 0.06885(11) 0.48400(14) 0.4948(5)
Cu3_5 Cu 0.9999 0.5000 0.5000
N2_9 N 0.60097(9) 0.77182(6) 0.2494(4)
C1_9 C 0.62585(11) 0.73478(7) 0.0060(5)
O2_6 O 0.74607(8) 0.84403(6) 0.0287(4)
C2_7 C 0.53799(11) 0.63529(8) 0.4338(5)
C3_7 C 0.54274(13) 0.70833(9) 0.5474(5)
H2_7 H 0.5331 0.7260 0.6515
C4_9 C 0.57167(11) 0.65483(8) 0.2323(5)
H3_9 H 0.5810 0.6369 0.1277
C5_9 C 0.59189(10) 0.70253(7) 0.1879(5)
C6_7 C 0.52419(12) 0.66218(8) 0.5887(5)
H4_7 H 0.5012 0.6476 0.7268
C7_7 C 0.57706(11) 0.72819(7) 0.3415(5)
H5_9 H 0.6033(12) 0.7968(8) 0.313(7)
O5_7 O 0.48930(10) 0.56871(6) 0.6954(4)
H9_6 H 0.8131 0.8321 0.0601
C16_7 C 0.51600(14) 0.58486(8) 0.4948(5)
N2_10 N 0.56151(6) 0.49582(7) 0.9161(4)
C1_10 C 0.59855(7) 0.55774(8) 0.6727(5)
H1_5 H 0.6054 0.5815 0.5410
C4_10 C 0.67850(8) 0.58351(8) 0.8990(5)
H3_10 H 0.6964 0.6108 0.7944
C5_10 C 0.63080(7) 0.55603(7) 0.8546(5)
H5_10 H 0.5365(8) 0.4732(9) 0.980(7)
N2_11 N 0.50418(7) 0.06570(9) 0.9161(4)
C1_11 C 0.44226(8) 0.04082(11) 0.6727(5)
H1_6 H 0.4185 0.0240 0.5410
C4_11 C 0.41649(8) 0.09500(11) 0.8990(5)
H3_11 H 0.3892 0.0857 0.7944
C5_11 C 0.44397(7) 0.07478(10) 0.8546(5)
H5_11 H 0.5268(9) 0.0634(12) 0.980(7)
N2_12 N 0.93430(9) 0.43849(6) 0.9161(4)
C1_12 C 0.95918(11) 0.40145(7) 0.6727(5)
H1_7 H 0.9760 0.3946 0.5410
C4_12 C 0.90500(11) 0.32150(8) 0.8990(5)
H3_12 H 0.9143 0.3036 0.7944
C5_12 C 0.92522(10) 0.36920(7) 0.8546(5)
H5_12 H 0.9366(12) 0.4635(8) 0.980(7)
Cu2 Cu 0.6667 0.8334 0.8334
N4 N 0.70257(8) 0.89084(6) 0.6203(4)
N5_2 N 0.73236(9) 0.89485(6) 0.4173(4)
C9_2 C 0.70748(11) 0.93189(7) 0.6607(5)
H6_2 H 0.6906 0.9388 0.7924
C11_2 C 0.79059(13) 0.95834(9) 0.1193(5)
H7_2 H 0.8002 0.9407 0.0152
C13_2 C 0.74144(10) 0.96414(7) 0.4788(5)
C15_2 C 0.75627(11) 0.93848(7) 0.3252(5)
H10_2 H 0.7300(12) 0.8699(8) 0.354(7)
Cu1_2 Cu 0.8333 0.6666 0.1667
O1_2 O 0.89447(5) 0.70137(7) 0.3304(3)
H1_8 H 0.9148 0.6427 0.1257
C8_2 C 0.91819(8) 0.73552(11) 0.1719(5)
O3_5 O 0.77220(5) 0.63196(7) 0.0029(3)
N3_8 N 0.81174(6) 0.70257(8) 0.3797(4)
C10_2 C 0.96862(8) 0.76397(14) 0.2329(5)
C12_2 C 0.98816(8) 0.74983(14) 0.4344(5)
H8_2 H 0.9702 0.7226 0.5390
C14_2 C 0.99551(8) 0.80466(14) 0.0780(5)
C2_8 C 0.56937(7) 0.87132(11) 0.8995(5)
C3_8 C 0.50108(9) 0.87607(13) 0.7859(5)
H2_8 H 0.4738 0.8664 0.6818
C6_8 C 0.52868(9) 0.85752(12) 0.7446(5)
H4_8 H 0.5203 0.8345 0.6065
C7_8 C 0.51554(8) 0.91039(11) 0.9918(5)
O4_4 O 0.63196(7) 0.85977(9) 0.9971(3)
O5_8 O 0.58726(8) 0.82264(10) 0.6380(4)
C16_8 C 0.59781(11) 0.84934(14) 0.8386(5)
O3_6 O 0.70137(7) 0.80690(5) 0.6696(3)
H1_9 H 0.6427 0.7279 0.8743
C8_3 C 0.73552(11) 0.81733(7) 0.8281(5)
N5_3 N 0.83752(11) 0.73236(9) 0.5827(4)
C9_3 C 0.77560(13) 0.70748(11) 0.3393(5)
H6_3 H 0.7519 0.6906 0.2076
C10_3 C 0.76397(14) 0.79534(11) 0.7671(5)
C11_3 C 0.83226(16) 0.79059(13) 0.8807(5)
H7_3 H 0.8596 0.8002 0.9848
C12_3 C 0.74983(14) 0.76166(11) 0.5656(5)
H8_3 H 0.7226 0.7523 0.4610
C13_3 C 0.77731(12) 0.74144(10) 0.5212(5)
C14_3 C 0.80466(14) 0.80914(12) 0.9220(5)
C15_3 C 0.81780(13) 0.75627(11) 0.6748(5)
H10_3 H 0.8602(14) 0.7300(12) 0.646(7)
C2_9 C 0.69804(8) 0.56937(7) 0.1005(5)
C3_9 C 0.62500(9) 0.50108(9) 0.2141(5)
H2_9 H 0.6073 0.4738 0.3182
C6_9 C 0.67115(8) 0.52868(9) 0.2554(5)
H4_9 H 0.6857 0.5203 0.3935
C7_9 C 0.60514(7) 0.51554(8) 0.0082(5)
O5_9 O 0.76463(6) 0.58726(8) 0.3620(4)
C16_9 C 0.74848(8) 0.59781(11) 0.1614(5)
Cu2_2 Cu 0.1666 0.8334 0.8334
N4_2 N 0.10916(6) 0.81174(10) 0.6203(4)
N5_4 N 0.10515(6) 0.83752(11) 0.4173(4)
C9_4 C 0.06811(7) 0.77560(13) 0.6607(5)
H6_4 H 0.0612 0.7519 0.7924
C11_4 C 0.04166(9) 0.83226(16) 0.1193(5)
H7_4 H 0.0593 0.8596 0.0152
C13_4 C 0.03586(7) 0.77731(12) 0.4788(5)
C15_4 C 0.06152(7) 0.81780(13) 0.3252(5)
H10_4 H 0.1301(8) 0.8602(14) 0.354(7)
C2_10 C 0.12868(11) 0.69804(8) 0.8995(5)
C3_10 C 0.12393(13) 0.62500(9) 0.7859(5)
H2_10 H 0.1336 0.6073 0.6818
C6_10 C 0.14248(12) 0.67115(8) 0.7446(5)
H4_10 H 0.1655 0.6857 0.6065
C7_10 C 0.08961(11) 0.60514(7) 0.9918(5)
O4_5 O 0.14023(9) 0.77220(5) 0.9971(3)
O5_10 O 0.17736(10) 0.76463(6) 0.6380(4)
C16_10 C 0.15066(14) 0.74848(8) 0.8386(5)
O3_7 O 0.19310(5) 0.89447(5) 0.6696(3)
H1_10 H 0.2721 0.9148 0.8743
C8_4 C 0.18267(7) 0.91819(8) 0.8281(5)
C10_4 C 0.20466(11) 0.96862(8) 0.7671(5)
C12_4 C 0.23834(11) 0.98816(8) 0.5656(5)
H8_4 H 0.2477 0.9702 0.4610
C14_4 C 0.19086(12) 0.99551(8) 0.9220(5)
Cu1_3 Cu 0.3334 0.1667 0.1667
O1_3 O 0.29863(7) 0.19310(5) 0.3304(3)
H1_11 H 0.3573 0.2721 0.1257
C8_5 C 0.26448(11) 0.18267(7) 0.1719(5)
Cu2_3 Cu 0.1666 0.3333 0.8334
O3_8 O 0.36804(7) 0.14023(5) 0.0029(3)
N3_9 N 0.29743(8) 0.10916(6) 0.3797(4)
N4_3 N 0.18826(10) 0.29743(8) 0.6203(4)
N5_5 N 0.16248(11) 0.26764(9) 0.4173(4)
C9_5 C 0.22440(13) 0.29252(11) 0.6607(5)
H6_5 H 0.2481 0.3094 0.7924
C10_5 C 0.23603(14) 0.20466(11) 0.2329(5)
C11_5 C 0.16774(16) 0.20941(13) 0.1193(5)
H7_5 H 0.1404 0.1998 0.0152
C12_5 C 0.25017(14) 0.23834(11) 0.4344(5)
H8_5 H 0.2774 0.2477 0.5390
C13_5 C 0.22269(12) 0.25856(10) 0.4788(5)
C14_5 C 0.19534(14) 0.19086(12) 0.0780(5)
C15_5 C 0.18220(13) 0.24373(11) 0.3252(5)
H10_5 H 0.1398(14) 0.2700(12) 0.354(7)
C2_11 C 0.30196(8) 0.43063(7) 0.8995(5)
C3_11 C 0.37500(9) 0.49892(9) 0.7859(5)
H2_11 H 0.3927 0.5262 0.6818
C6_11 C 0.32885(8) 0.47132(9) 0.7446(5)
H4_11 H 0.3143 0.4797 0.6065
C7_11 C 0.39486(7) 0.48446(8) 0.9918(5)
O4_6 O 0.22780(5) 0.36804(7) 0.9971(3)
O5_11 O 0.23537(6) 0.41274(8) 0.6380(4)
C16_11 C 0.25152(8) 0.40219(11) 0.8386(5)
O3_9 O 0.10553(5) 0.29863(7) 0.6696(3)
N5_6 N 0.26764(9) 0.10515(6) 0.5827(4)
C9_6 C 0.29252(11) 0.06811(7) 0.3393(5)
H6_6 H 0.3094 0.0612 0.2076
C11_6 C 0.20941(13) 0.04166(9) 0.8807(5)
H7_6 H 0.1998 0.0593 0.9848
C13_6 C 0.25856(10) 0.03586(7) 0.5212(5)
C15_6 C 0.24373(11) 0.06152(7) 0.6748(5)
H10_6 H 0.2700(12) 0.1301(8) 0.646(7)
H1_12 H 0.0852 0.3573 0.8743
C8_6 C 0.08181(8) 0.26448(11) 0.8281(5)
C10_6 C 0.03138(8) 0.23603(14) 0.7671(5)
C12_6 C 0.01184(8) 0.25017(14) 0.5656(5)
H8_6 H 0.0298 0.2774 0.4610
C14_6 C 0.00449(8) 0.19534(14) 0.9220(5)
C2_12 C 0.43063(7) 0.12868(11) 0.1005(5)
C3_12 C 0.49892(9) 0.12393(13) 0.2141(5)
H2_12 H 0.5262 0.1336 0.3182
C6_12 C 0.47132(9) 0.14248(12) 0.2554(5)
H4_12 H 0.4797 0.1655 0.3935
C7_12 C 0.48446(8) 0.08961(11) 0.0082(5)
O5_12 O 0.41274(8) 0.17736(10) 0.3620(4)
C16_12 C 0.40219(11) 0.15066(14) 0.1614(5)
loop_
_geom_bond_atom_site_label_1
_geom_bond_atom_site_label_2
_geom_bond_site_symmetry_1
_geom_bond_site_symmetry_2
Cu1 O1 1_555 1_555
O1 C8 1_555 1_555
C8 C10 1_555 1_555
O3 Cu1 1_555 1_555
N3 Cu1 1_555 1_555
C10 C12 1_555 1_555
C12 H8 1_555 1_555
C14 C10 1_555 1_555
N3 N5 1_555 1_555
N5 C15 1_555 1_555
C9 N3 1_555 1_555
H6 C9 1_555 1_555
C11 H7 1_555 1_555
C13 C9 1_555 1_555
C15 C11 1_555 1_555
H10 N5 1_555 1_555
C13 C15 1_555 1_555
C3 H2 1_555 1_555
C6 C2 1_555 1_555
H4 C6 1_555 1_555
O3 C16 1_555 1_555
O5 C16 1_555 1_555
C16 C2 1_555 1_555
C3 C6 1_555 1_555
C3 C7 1_555 1_555
N2 N1 1_555 1_555
C1 N1 1_555 1_555
C2_2 C4 1_555 1_555
C3_2 H2_2 1_555 1_555
C4 H3 1_555 1_555
C5 C1 1_555 1_555
C6_2 C2_2 1_555 1_555
H4_2 C6_2 1_555 1_555
C7_2 N2 1_555 1_555
H5 N2 1_555 1_555
O4 C16_2 1_555 1_555
O5_2 C16_2 1_555 1_555
C16_2 C2_2 1_555 1_555
C3_2 C6_2 1_555 1_555
C3_2 C7_2 1_555 1_555
C4 C5 1_555 1_555
C5 C7_2 1_555 1_555
N2_2 N1_2 1_555 1_555
C1_2 N1_2 1_555 1_555
C2_3 C4_2 1_555 1_555
C3_3 H2_3 1_555 1_555
C4_2 H3_2 1_555 1_555
C5_2 C1_2 1_555 1_555
C6_3 C2_3 1_555 1_555
H4_3 C6_3 1_555 1_555
C7_3 N2_2 1_555 1_555
H5_2 N2_2 1_555 1_555
O4_2 C16_3 1_555 1_555
O5_3 C16_3 1_555 1_555
C16_3 C2_3 1_555 1_555
C3_3 C6_3 1_555 1_555
C3_3 C7_3 1_555 1_555
C4_2 C5_2 1_555 1_555
C5_2 C7_3 1_555 1_555
N2_3 N1_3 1_555 1_555
C1_3 N1_3 1_555 1_555
C2_4 C4_3 1_555 1_555
C3_4 H2_4 1_555 1_555
C4_3 H3_3 1_555 1_555
C5_3 C1_3 1_555 1_555
C6_4 C2_4 1_555 1_555
H4_4 C6_4 1_555 1_555
C7_4 N2_3 1_555 1_555
H5_3 N2_3 1_555 1_555
Cu3_3 O4_3 1_555 1_555
O4_3 C16_4 1_555 1_555
O5_4 C16_4 1_555 1_555
C16_4 C2_4 1_555 1_555
C3_4 C6_4 1_555 1_555
C3_4 C7_4 1_555 1_555
C4_3 C5_3 1_555 1_555
C5_3 C7_4 1_555 1_555
N1_4 Cu3_3 1_555 1_555
N2_4 N1_4 1_555 1_555
C1_4 N1_4 1_555 1_555
H1_2 C1_4 1_555 1_555
C4_4 H3_4 1_555 1_555
C5_4 C1_4 1_555 1_555
H5_4 N2_4 1_555 1_555
O3_2 Cu3_3 1_555 1_555
N3_2 Cu3_3 1_555 1_555
C4_4 C5_4 1_555 1_555
N1_5 Cu3 1_555 1_555
N2_5 N1_5 1_555 1_555
C1_5 N1_5 1_555 1_555
H1_3 C1_5 1_555 1_555
C4_5 H3_5 1_555 1_555
C5_5 C1_5 1_555 1_555
H5_5 N2_5 1_555 1_555
O3_3 Cu3 1_555 1_555
C4_5 C5_5 1_555 1_555
N1_6 Cu3_2 1_555 1_555
N2_6 N1_6 1_555 1_555
C1_6 N1_6 1_555 1_555
H1_4 C1_6 1_555 1_555
C4_6 H3_6 1_555 1_555
C5_6 C1_6 1_555 1_555
H5_6 N2_6 1_555 1_555
O3_4 Cu3_2 1_555 1_555
C4_6 C5_6 1_555 1_555
N2_7 N3_5 1_555 1_555
C1_7 N3_5 1_555 1_555
C2_5 C4_7 1_555 1_555
C3_5 H2_5 1_555 1_555
C4_7 H3_7 1_555 1_555
C5_7 C1_7 1_555 1_555
C6_5 C2_5 1_555 1_555
H4_5 C6_5 1_555 1_555
C7_5 N2_7 1_555 1_555
H5_7 N2_7 1_555 1_555
O3_3 C16_5 1_555 1_555
O5_5 C16_5 1_555 1_555
C16_5 C2_5 1_555 1_555
C3_5 C6_5 1_555 1_555
C3_5 C7_5 1_555 1_555
C4_7 C5_7 1_555 1_555
C5_7 C7_5 1_555 1_555
N2_8 N3_6 1_555 1_555
C1_8 N3_6 1_555 1_555
C2_6 C4_8 1_555 1_555
C3_6 H2_6 1_555 1_555
C4_8 H3_8 1_555 1_555
C5_8 C1_8 1_555 1_555
C6_6 C2_6 1_555 1_555
H4_6 C6_6 1_555 1_555
C7_6 N2_8 1_555 1_555
H5_8 N2_8 1_555 1_555
O3_4 C16_6 1_555 1_555
O5_6 C16_6 1_555 1_555
C16_6 C2_6 1_555 1_555
C3_6 C6_6 1_555 1_555
C3_6 C7_6 1_555 1_555
C4_8 C5_8 1_555 1_555
C5_8 C7_6 1_555 1_555
N2_9 N3_7 1_555 1_555
C1_9 N3_7 1_555 1_555
C2_7 C4_9 1_555 1_555
C3_7 H2_7 1_555 1_555
C4_9 H3_9 1_555 1_555
C5_9 C1_9 1_555 1_555
C6_7 C2_7 1_555 1_555
H4_7 C6_7 1_555 1_555
C7_7 N2_9 1_555 1_555
H5_9 N2_9 1_555 1_555
O3_2 C16_7 1_555 1_555
O5_7 C16_7 1_555 1_555
C16_7 C2_7 1_555 1_555
C3_7 C6_7 1_555 1_555
C3_7 C7_7 1_555 1_555
C4_9 C5_9 1_555 1_555
C5_9 C7_7 1_555 1_555
N2_10 N3_2 1_555 1_555
C1_10 N3_2 1_555 1_555
H1_5 C1_10 1_555 1_555
C4_10 H3_10 1_555 1_555
C5_10 C1_10 1_555 1_555
H5_10 N2_10 1_555 1_555
C4_10 C5_10 1_555 1_555
N3_3 Cu3_4 1_555 1_555
N2_11 N3_3 1_555 1_555
C1_11 N3_3 1_555 1_555
H1_6 C1_11 1_555 1_555
C4_11 H3_11 1_555 1_555
C5_11 C1_11 1_555 1_555
H5_11 N2_11 1_555 1_555
O4 Cu3_4 1_555 1_555
C4_11 C5_11 1_555 1_555
N3_4 Cu3_5 1_555 1_555
N2_12 N3_4 1_555 1_555
C1_12 N3_4 1_555 1_555
H1_7 C1_12 1_555 1_555
C4_12 H3_12 1_555 1_555
C5_12 C1_12 1_555 1_555
H5_12 N2_12 1_555 1_555
O4_2 Cu3_5 1_555 1_555
C4_12 C5_12 1_555 1_555
Cu2 N4 1_555 1_555
N4 N5_2 1_555 1_555
N5_2 C15_2 1_555 1_555
C9_2 N4 1_555 1_555
H6_2 C9_2 1_555 1_555
C11_2 H7_2 1_555 1_555
C13_2 C9_2 1_555 1_555
C15_2 C11_2 1_555 1_555
H10_2 N5_2 1_555 1_555
C13_2 C15_2 1_555 1_555
Cu1_2 O1_2 1_555 1_555
O1_2 C8_2 1_555 1_555
C8_2 C10_2 1_555 1_555
O3_5 Cu1_2 1_555 1_555
N3_8 Cu1_2 1_555 1_555
C10_2 C12_2 1_555 1_555
C12_2 H8_2 1_555 1_555
C14_2 C10_2 1_555 1_555
C3_8 H2_8 1_555 1_555
C6_8 C2_8 1_555 1_555
H4_8 C6_8 1_555 1_555
Cu2 O4_4 1_555 1_555
O4_4 C16_8 1_555 1_555
O5_8 C16_8 1_555 1_555
C16_8 C2_8 1_555 1_555
C3_8 C6_8 1_555 1_555
C3_8 C7_8 1_555 1_555
O3_6 Cu2 1_555 1_555
O3_6 C8_3 1_555 1_555
C8_3 C10_3 1_555 1_555
N3_8 N5_3 1_555 1_555
N5_3 C15_3 1_555 1_555
C9_3 N3_8 1_555 1_555
H6_3 C9_3 1_555 1_555
C10_3 C12_3 1_555 1_555
C11_3 H7_3 1_555 1_555
C12_3 H8_3 1_555 1_555
C13_3 C9_3 1_555 1_555
C14_3 C10_3 1_555 1_555
C15_3 C11_3 1_555 1_555
H10_3 N5_3 1_555 1_555
C11_3 C14_3 1_555 1_555
C12_3 C13_3 1_555 1_555
C13_3 C15_3 1_555 1_555
C3_9 H2_9 1_555 1_555
C6_9 C2_9 1_555 1_555
H4_9 C6_9 1_555 1_555
O3_5 C16_9 1_555 1_555
O5_9 C16_9 1_555 1_555
C16_9 C2_9 1_555 1_555
C3_9 C6_9 1_555 1_555
C3_9 C7_9 1_555 1_555
Cu2_2 N4_2 1_555 1_555
N4_2 N5_4 1_555 1_555
N5_4 C15_4 1_555 1_555
C9_4 N4_2 1_555 1_555
H6_4 C9_4 1_555 1_555
C11_4 H7_4 1_555 1_555
C13_4 C9_4 1_555 1_555
C15_4 C11_4 1_555 1_555
H10_4 N5_4 1_555 1_555
C13_4 C15_4 1_555 1_555
C3_10 H2_10 1_555 1_555
C6_10 C2_10 1_555 1_555
H4_10 C6_10 1_555 1_555
Cu2_2 O4_5 1_555 1_555
O4_5 C16_10 1_555 1_555
O5_10 C16_10 1_555 1_555
C16_10 C2_10 1_555 1_555
C3_10 C6_10 1_555 1_555
C3_10 C7_10 1_555 1_555
O3_7 Cu2_2 1_555 1_555
O3_7 C8_4 1_555 1_555
C8_4 C10_4 1_555 1_555
C10_4 C12_4 1_555 1_555
C12_4 H8_4 1_555 1_555
C14_4 C10_4 1_555 1_555
Cu1_3 O1_3 1_555 1_555
O1_3 C8_5 1_555 1_555
C8_5 C10_5 1_555 1_555
Cu2_3 N4_3 1_555 1_555
O3_8 Cu1_3 1_555 1_555
N3_9 Cu1_3 1_555 1_555
N4_3 N5_5 1_555 1_555
N5_5 C15_5 1_555 1_555
C9_5 N4_3 1_555 1_555
H6_5 C9_5 1_555 1_555
C10_5 C12_5 1_555 1_555
C11_5 H7_5 1_555 1_555
C12_5 H8_5 1_555 1_555
C13_5 C9_5 1_555 1_555
C14_5 C10_5 1_555 1_555
C15_5 C11_5 1_555 1_555
H10_5 N5_5 1_555 1_555
C11_5 C14_5 1_555 1_555
C12_5 C13_5 1_555 1_555
C13_5 C15_5 1_555 1_555
C3_11 H2_11 1_555 1_555
C6_11 C2_11 1_555 1_555
H4_11 C6_11 1_555 1_555
Cu2_3 O4_6 1_555 1_555
O4_6 C16_11 1_555 1_555
O5_11 C16_11 1_555 1_555
C16_11 C2_11 1_555 1_555
C3_11 C6_11 1_555 1_555
C3_11 C7_11 1_555 1_555
O3_9 Cu2_3 1_555 1_555
N3_9 N5_6 1_555 1_555
N5_6 C15_6 1_555 1_555
C9_6 N3_9 1_555 1_555
H6_6 C9_6 1_555 1_555
C11_6 H7_6 1_555 1_555
C13_6 C9_6 1_555 1_555
C15_6 C11_6 1_555 1_555
H10_6 N5_6 1_555 1_555
C13_6 C15_6 1_555 1_555
O3_9 C8_6 1_555 1_555
C8_6 C10_6 1_555 1_555
C10_6 C12_6 1_555 1_555
C12_6 H8_6 1_555 1_555
C14_6 C10_6 1_555 1_555
C3_12 H2_12 1_555 1_555
C6_12 C2_12 1_555 1_555
H4_12 C6_12 1_555 1_555
O3_8 C16_12 1_555 1_555
O5_12 C16_12 1_555 1_555
C16_12 C2_12 1_555 1_555
C3_12 C6_12 1_555 1_555
C3_12 C7_12 1_555 1_555

#END
