
###############################################################################
#
# This file contains modified crystal structure data generated from the
# MOF subset of the Cambridge Structural Database (CSD) v543 
# hosted by the Cambridge Crystallographic Data Centre (CCDC).
#
# This work is licensed under the Creative Commons
# Attribution-NonCommercial-ShareAlike 4.0 International License.
# To view a copy of this license, visit
# http://creativecommons.org/licenses/by-nc-sa/4.0/
# or send a letter to
# Creative Commons, PO Box 1866, Mountain View, CA 94042, USA.
#
# CIF created using the CSD Python API on 29 September 2022
# The structure has been converted into the P1 space group
# The structure has a 3D framework
# The original CSD entry SEGBOX is in the rhombohedral crystal system
# The framework has been calculated to contain at least 10.0% void space
# The void calculation uses a probe of radius 1.32A, grid spacing 0.4
#
###############################################################################

data_SEGBOX
_chemical_formula_moiety         '(C144 H90 Cu16 N36 O36)n'
_symmetry_cell_setting           triclinic
_symmetry_space_group_name_H-M   'P 1'
_symmetry_Int_Tables_number      1
_space_group_name_Hall           'P 1'
loop_
_symmetry_equiv_pos_site_id
_symmetry_equiv_pos_as_xyz
1 x,y,z
_cell_length_a                   33.6966(8)
_cell_length_b                   33.6966(8)
_cell_length_c                   4.78817(13)
_cell_angle_alpha                90
_cell_angle_beta                 90
_cell_angle_gamma                120
_cell_volume                     4708.39
loop_
_atom_site_label
_atom_site_type_symbol
_atom_site_fract_x
_atom_site_fract_y
_atom_site_fract_z
Cu1 Cu 0.5000 0.5000 0.0000
O1 O 0.56096(3) 0.52653(3) 0.1660(2)
N1 N 0.77158(4) 0.60057(4) 0.2519(2)
N2 N 0.77566(4) 0.63059(4) 0.4543(2)
C1 C 0.73468(5) 0.62582(4) 0.4951(3)
H1 H 0.7279 0.6428 0.6265
C2 C 0.65476(5) 0.57159(5) 0.2696(3)
H2 H 0.6369 0.5810 0.3739
C3 C 0.72784(5) 0.57655(5) 0.1603(3)
C5 C 0.70233(5) 0.59176(5) 0.3139(3)
C6 C 0.58474(5) 0.51575(4) 0.0065(3)
C7 C 0.63505(5) 0.53770(4) 0.0692(3)
H5 H 0.7946(6) 0.6001(6) 0.186(4)
Cu2 Cu 0.8333 0.6667 0.6667
N6 N 0.47840(6) 0.44233(4) 0.2124(2)
O4 O 0.43149(4) 0.51089(4) 0.1943(2)
C12 C 0.33834(5) 0.47657(5) 0.0852(3)
H8 H 0.3531 0.4998 0.2224
C16 C 0.29220(5) 0.45805(5) 0.0436(3)
H9 H 0.2747 0.4680 0.1467
Cu1_2 Cu 0.5000 0.0000 0.0000
O1_2 O 0.47347(3) 0.03443(4) 0.1660(2)
N1_2 N 0.39943(4) 0.17101(6) 0.2519(2)
N2_2 N 0.36941(4) 0.14507(6) 0.4543(2)
C1_2 C 0.37418(4) 0.10886(6) 0.4951(3)
H1_2 H 0.3572 0.0851 0.6265
C2_2 C 0.42841(5) 0.08317(7) 0.2696(3)
H2_2 H 0.4190 0.0559 0.3739
C3_2 C 0.42345(5) 0.15129(7) 0.1603(3)
C5_2 C 0.40824(5) 0.11057(7) 0.3139(3)
C6_2 C 0.48425(4) 0.06899(6) 0.0065(3)
C7_2 C 0.46230(4) 0.09735(6) 0.0692(3)
H5_2 H 0.3999(6) 0.1945(8) 0.186(4)
Cu2_2 Cu 0.3333 0.1667 0.6667
N6_2 N 0.55767(4) 0.03608(7) 0.2124(2)
Cu1_3 Cu 1.0000 0.5000 0.0000
O1_3 O 0.96557(4) 0.43904(3) 0.1660(2)
N1_3 N 0.82899(6) 0.22842(4) 0.2519(2)
N2_3 N 0.85493(6) 0.22434(4) 0.4543(2)
C1_3 C 0.89114(6) 0.26532(5) 0.4951(3)
H1_3 H 0.9149 0.2721 0.6265
C2_3 C 0.91683(7) 0.34524(5) 0.2696(3)
H2_3 H 0.9441 0.3631 0.3739
C3_3 C 0.84871(7) 0.27216(5) 0.1603(3)
C5_3 C 0.88943(7) 0.29767(5) 0.3139(3)
C6_3 C 0.93101(6) 0.41526(5) 0.0065(3)
C7_3 C 0.90265(6) 0.36495(5) 0.0692(3)
H5_3 H 0.8055(8) 0.2054(6) 0.186(4)
Cu2_3 Cu 0.8333 0.1667 0.6667
N6_3 N 0.96392(7) 0.52160(6) 0.2124(2)
N4 N 0.89101(4) 0.70274(4) 0.8790(2)
C9 C 0.93199(5) 0.70751(4) 0.8382(3)
H6 H 0.9388 0.6905 0.7068
N4_2 N 0.29726(4) 0.18826(6) 0.8790(2)
C9_2 C 0.29249(4) 0.22447(6) 0.8382(3)
H6_2 H 0.3095 0.2482 0.7068
H7 H 0.2477 0.2774 0.9594
N4_3 N 0.81174(6) 0.10899(4) 0.8790(2)
C9_3 C 0.77553(6) 0.06801(5) 0.8382(3)
H6_3 H 0.7518 0.0612 0.7068
O1_4 O 0.89429(3) 0.19320(3) 0.8327(2)
O2 O 0.90184(4) 0.15578(4) 0.4724(2)
C2_4 C 0.98809(5) 0.23826(5) 0.9363(3)
C4 C 0.99499(5) 0.19010(5) 0.5815(3)
H3 H 0.9802 0.1669 0.4443
C6_4 C 0.91807(5) 0.18242(4) 0.6732(3)
C7_4 C 0.96838(5) 0.20437(4) 0.7359(3)
O3 O 0.77237(3) 0.14014(3) 0.5007(2)
N3 N 0.56175(4) 0.06610(4) 0.4148(2)
O4_2 O 0.76482(4) 0.17756(4) 0.8610(2)
C9_4 C 0.59865(5) 0.04085(4) 0.1716(3)
H6_4 H 0.6054 0.0239 0.0402
C10 C 0.67857(5) 0.09508(5) 0.3971(3)
H7_2 H 0.6964 0.0857 0.2928
C11 C 0.60549(5) 0.09012(5) 0.5064(3)
C12_2 C 0.67167(5) 0.14324(5) 0.7519(3)
H8_2 H 0.6864 0.1665 0.8891
C13 C 0.63100(5) 0.07491(5) 0.3528(3)
C14 C 0.74859(5) 0.15092(4) 0.6602(3)
C15 C 0.69828(5) 0.12897(4) 0.5975(3)
C16_2 C 0.62553(5) 0.12472(5) 0.7103(3)
H9_2 H 0.6080 0.1347 0.8134
H10 H 0.5387(6) 0.0666(6) 0.481(4)
O1_5 O 0.80680(3) 0.70110(4) 0.8327(2)
N1_4 N 0.73276(4) 0.83768(6) 0.9186(2)
O2_2 O 0.84422(4) 0.74607(6) 0.4724(2)
C2_5 C 0.76174(5) 0.74984(7) 0.9363(3)
C3_4 C 0.75678(5) 0.81796(7) 0.8270(3)
C4_2 C 0.80990(5) 0.80490(7) 0.5815(3)
H3_2 H 0.8331 0.8134 0.4443
C5_4 C 0.74157(5) 0.77724(7) 0.9806(3)
C6_5 C 0.81758(4) 0.73566(6) 0.6732(3)
C7_5 C 0.79563(4) 0.76402(6) 0.7359(3)
C8 C 0.79138(5) 0.83252(7) 0.6231(3)
H4 H 0.8013 0.8600 0.5200
H5_4 H 0.7332(6) 0.8612(8) 0.853(4)
O3_2 O 0.85986(3) 0.63224(4) 0.5007(2)
N3_2 N 0.93390(4) 0.49566(6) 0.4148(2)
O4_3 O 0.82244(4) 0.58727(6) 0.8610(2)
C9_5 C 0.95915(4) 0.55781(6) 0.1716(3)
H6_5 H 0.9761 0.5816 0.0402
C10_2 C 0.90492(5) 0.58350(7) 0.3971(3)
H7_3 H 0.9143 0.6108 0.2928
C11_2 C 0.90988(5) 0.51538(7) 0.5064(3)
C12_3 C 0.85676(5) 0.52844(7) 0.7519(3)
H8_3 H 0.8335 0.5200 0.8891
C13_2 C 0.92509(5) 0.55610(7) 0.3528(3)
C14_2 C 0.84908(4) 0.59768(6) 0.6602(3)
C15_2 C 0.87103(4) 0.56932(6) 0.5975(3)
C16_3 C 0.87528(5) 0.50082(7) 0.7103(3)
H9_3 H 0.8653 0.4734 0.8134
H10_2 H 0.9334(6) 0.4722(8) 0.481(4)
O1_6 O 0.29890(4) 0.10571(3) 0.8327(2)
O2_3 O 0.25393(6) 0.09816(4) 0.4724(2)
C2_6 C 0.25016(7) 0.01191(5) 0.9363(3)
C4_3 C 0.19510(7) 0.00501(5) 0.5815(3)
H3_3 H 0.1866 0.0198 0.4443
C6_6 C 0.26434(6) 0.08193(5) 0.6732(3)
C7_6 C 0.23598(6) 0.03162(5) 0.7359(3)
O3_3 O 0.36776(4) 0.22763(3) 0.5007(2)
N3_3 N 0.50434(6) 0.43825(4) 0.4148(2)
O4_4 O 0.41273(6) 0.23518(4) 0.8610(2)
C9_6 C 0.44219(6) 0.40135(5) 0.1716(3)
H6_6 H 0.4184 0.3946 0.0402
C10_3 C 0.41650(7) 0.32143(5) 0.3971(3)
H7_4 H 0.3892 0.3036 0.2928
C11_3 C 0.48462(7) 0.39451(5) 0.5064(3)
C12_4 C 0.47156(7) 0.32833(5) 0.7519(3)
H8_4 H 0.4800 0.3136 0.8891
C13_3 C 0.44390(7) 0.36900(5) 0.3528(3)
C14_3 C 0.40232(6) 0.25141(5) 0.6602(3)
C15_3 C 0.43068(6) 0.30172(5) 0.5975(3)
C16_4 C 0.49918(7) 0.37447(5) 0.7103(3)
H9_4 H 0.5266 0.3920 0.8134
H10_3 H 0.5278(8) 0.4613(6) 0.481(4)
Cu1_4 Cu 0.5000 0.5000 1.0000
O2_4 O 0.56851(4) 0.48911(4) 0.8057(2)
C4_4 C 0.66166(5) 0.52343(5) 0.9148(3)
H3_4 H 0.6469 0.5002 0.7776
C8_2 C 0.70780(5) 0.54195(5) 0.9564(3)
H4_2 H 0.7253 0.5320 0.8533
Cu3 Cu 0.1667 0.3333 0.3333
O3_4 O 0.43904(3) 0.47347(3) 0.8340(2)
N3_4 N 0.22842(4) 0.39943(4) 0.7481(2)
N4_4 N 0.22434(4) 0.36941(4) 0.5457(2)
N5 N 0.52160(6) 0.55767(4) 0.7876(2)
C9_7 C 0.26532(5) 0.37418(4) 0.5049(3)
H6_7 H 0.2721 0.3572 0.3735
C10_4 C 0.34524(5) 0.42841(5) 0.7304(3)
H7_5 H 0.3631 0.4190 0.6261
C11_4 C 0.27216(5) 0.42345(5) 0.8397(3)
C13_4 C 0.29767(5) 0.40824(5) 0.6861(3)
C14_4 C 0.41526(5) 0.48425(4) 0.9935(3)
C15_4 C 0.36495(5) 0.46230(4) 0.9308(3)
H10_4 H 0.2054(6) 0.3999(6) 0.814(4)
Cu1_5 Cu 0.5000 1.0000 1.0000
Cu3_2 Cu 0.6667 0.8333 0.3333
O3_5 O 0.52653(3) 0.96557(4) 0.8340(2)
N3_5 N 0.60057(4) 0.82899(6) 0.7481(2)
N4_5 N 0.63059(4) 0.85493(6) 0.5457(2)
N5_2 N 0.44233(4) 0.96392(7) 0.7876(2)
C9_8 C 0.62582(4) 0.89114(6) 0.5049(3)
H6_8 H 0.6428 0.9149 0.3735
C10_5 C 0.57159(5) 0.91683(7) 0.7304(3)
H7_6 H 0.5810 0.9441 0.6261
C11_5 C 0.57655(5) 0.84871(7) 0.8397(3)
C13_5 C 0.59176(5) 0.88943(7) 0.6861(3)
C14_5 C 0.51575(4) 0.93101(6) 0.9935(3)
C15_5 C 0.53770(4) 0.90265(6) 0.9308(3)
H10_5 H 0.6001(6) 0.8055(8) 0.814(4)
Cu1_6 Cu -0.0000 0.5000 1.0000
Cu3_3 Cu 0.1667 0.8333 0.3333
O3_6 O 0.03443(4) 0.56096(3) 0.8340(2)
N3_6 N 0.17101(6) 0.77158(4) 0.7481(2)
N4_6 N 0.14507(6) 0.77566(4) 0.5457(2)
N5_3 N 0.03608(7) 0.47840(6) 0.7876(2)
C9_9 C 0.10886(6) 0.73468(5) 0.5049(3)
H6_9 H 0.0851 0.7279 0.3735
C10_6 C 0.08317(7) 0.65476(5) 0.7304(3)
H7_7 H 0.0559 0.6369 0.6261
C11_6 C 0.15129(7) 0.72784(5) 0.8397(3)
C13_6 C 0.11057(7) 0.70233(5) 0.6861(3)
C14_6 C 0.06899(6) 0.58474(5) 0.9935(3)
C15_6 C 0.09735(6) 0.63505(5) 0.9308(3)
H10_6 H 0.1945(8) 0.7946(6) 0.814(4)
O1_7 O 0.22763(3) 0.85986(3) 0.4993(2)
N1_5 N 0.43825(4) 0.93390(4) 0.5852(2)
O2_5 O 0.23518(4) 0.82244(4) 0.1390(2)
C1_4 C 0.40135(5) 0.95915(4) 0.8284(3)
H1_4 H 0.3946 0.9761 0.9598
C2_7 C 0.32143(5) 0.90492(5) 0.6029(3)
H2_4 H 0.3036 0.9143 0.7072
C3_5 C 0.39451(5) 0.90988(5) 0.4936(3)
C4_5 C 0.32833(5) 0.85676(5) 0.2481(3)
H3_5 H 0.3136 0.8335 0.1109
C5_5 C 0.36900(5) 0.92509(5) 0.6472(3)
C6_7 C 0.25141(5) 0.84908(4) 0.3398(3)
C7_7 C 0.30172(5) 0.87103(4) 0.4025(3)
C8_3 C 0.37447(5) 0.87528(5) 0.2897(3)
H4_3 H 0.3920 0.8653 0.1866
H5_5 H 0.4613(6) 0.9334(6) 0.519(4)
O3_7 O 0.10571(3) 0.80680(3) 0.1673(2)
N5_4 N 0.18826(6) 0.89101(4) 0.1210(2)
O4_5 O 0.09816(4) 0.84422(4) 0.5276(2)
C10_7 C 0.01191(5) 0.76174(5) 0.0637(3)
C12_5 C 0.00501(5) 0.80990(5) 0.4185(3)
H8_5 H 0.0198 0.8331 0.5557
C14_7 C 0.08193(5) 0.81758(4) 0.3268(3)
C15_7 C 0.03162(5) 0.79563(4) 0.2641(3)
O1_8 O 0.14014(3) 0.36776(4) 0.4993(2)
N1_6 N 0.06610(4) 0.50434(6) 0.5852(2)
O2_6 O 0.17756(4) 0.41273(6) 0.1390(2)
C1_5 C 0.04085(4) 0.44219(6) 0.8284(3)
H1_5 H 0.0239 0.4184 0.9598
C2_8 C 0.09508(5) 0.41650(7) 0.6029(3)
H2_5 H 0.0857 0.3892 0.7072
C3_6 C 0.09012(5) 0.48462(7) 0.4936(3)
C4_6 C 0.14324(5) 0.47156(7) 0.2481(3)
H3_6 H 0.1665 0.4800 0.1109
C5_6 C 0.07491(5) 0.44390(7) 0.6472(3)
C6_8 C 0.15092(4) 0.40232(6) 0.3398(3)
C7_8 C 0.12897(4) 0.43068(6) 0.4025(3)
C8_4 C 0.12472(5) 0.49918(7) 0.2897(3)
H4_4 H 0.1347 0.5266 0.1866
H5_6 H 0.0666(6) 0.5278(8) 0.519(4)
O3_8 O 0.19320(3) 0.29890(4) 0.1673(2)
N3_7 N 0.26724(4) 0.16232(6) 0.0814(2)
N5_5 N 0.10899(4) 0.29726(7) 0.1210(2)
O4_6 O 0.15578(4) 0.25393(6) 0.5276(2)
C10_8 C 0.23826(5) 0.25016(7) 0.0637(3)
C11_7 C 0.24322(5) 0.18204(7) 0.1730(3)
C12_6 C 0.19010(5) 0.19510(7) 0.4185(3)
H8_6 H 0.1669 0.1866 0.5557
C13_7 C 0.25843(5) 0.22276(7) 0.0194(3)
C14_8 C 0.18242(4) 0.26434(6) 0.3268(3)
C15_8 C 0.20437(4) 0.23598(6) 0.2641(3)
C16_5 C 0.20862(5) 0.16748(7) 0.3769(3)
H9_5 H 0.1987 0.1400 0.4800
H10_7 H 0.2668(6) 0.1388(8) 0.147(4)
O1_9 O 0.63224(4) 0.77237(3) 0.4993(2)
N1_7 N 0.49566(6) 0.56175(4) 0.5852(2)
O2_7 O 0.58727(6) 0.76482(4) 0.1390(2)
C1_6 C 0.55781(6) 0.59865(5) 0.8284(3)
H1_6 H 0.5816 0.6054 0.9598
C2_9 C 0.58350(7) 0.67857(5) 0.6029(3)
H2_6 H 0.6108 0.6964 0.7072
C3_7 C 0.51538(7) 0.60549(5) 0.4936(3)
C4_7 C 0.52844(7) 0.67167(5) 0.2481(3)
H3_7 H 0.5200 0.6864 0.1109
C5_7 C 0.55610(7) 0.63100(5) 0.6472(3)
C6_9 C 0.59768(6) 0.74859(5) 0.3398(3)
C7_9 C 0.56932(6) 0.69828(5) 0.4025(3)
C8_5 C 0.50082(7) 0.62553(5) 0.2897(3)
H4_5 H 0.4734 0.6080 0.1866
H5_7 H 0.4722(8) 0.5387(6) 0.519(4)
O3_9 O 0.70110(4) 0.89429(3) 0.1673(2)
N5_6 N 0.70274(7) 0.81174(6) 0.1210(2)
O4_7 O 0.74607(6) 0.90184(4) 0.5276(2)
C10_9 C 0.74984(7) 0.98809(5) 0.0637(3)
C12_7 C 0.80490(7) 0.99499(5) 0.4185(3)
H8_7 H 0.8134 0.9802 0.5557
C14_9 C 0.73566(6) 0.91807(5) 0.3268(3)
C15_9 C 0.76402(6) 0.96838(5) 0.2641(3)
C1_7 C 0.06801(5) 0.29249(4) 0.1618(3)
H1_7 H 0.0612 0.3095 0.2932
C1_8 C 0.70751(4) 0.77553(6) 0.1618(3)
H1_8 H 0.6905 0.7518 0.2932
H2_7 H 0.7523 0.7226 0.0406
C1_9 C 0.22447(6) 0.93199(5) 0.1618(3)
H1_9 H 0.2482 0.9388 0.2932
Cu1_7 Cu 0.5000 0.0000 1.0000
O2_8 O 0.51089(4) 0.07940(6) 0.8057(2)
C4_8 C 0.47657(5) 0.13823(7) 0.9148(3)
H3_8 H 0.4998 0.1467 0.7776
C8_6 C 0.45805(5) 0.16585(7) 0.9564(3)
H4_6 H 0.4680 0.1933 0.8533
Cu1_8 Cu 0.5000 1.0000 0.0000
O4_8 O 0.48911(4) 0.92060(6) 0.1943(2)
C12_8 C 0.52343(5) 0.86177(7) 0.0852(3)
H8_8 H 0.5002 0.8533 0.2224
C16_6 C 0.54195(5) 0.83415(7) 0.0436(3)
H9_6 H 0.5320 0.8067 0.1467
Cu1_9 Cu -0.0000 0.5000 0.0000
O4_9 O 0.07940(6) 0.56851(4) 0.1943(2)
C12_9 C 0.13823(7) 0.66166(5) 0.0852(3)
H8_9 H 0.1467 0.6469 0.2224
C16_7 C 0.16585(7) 0.70780(5) 0.0436(3)
H9_7 H 0.1933 0.7253 0.1467
Cu1_10 Cu 1.0000 0.5000 1.0000
O2_9 O 0.92060(6) 0.43149(4) 0.8057(2)
C4_9 C 0.86177(7) 0.33834(5) 0.9148(3)
H3_9 H 0.8533 0.3531 0.7776
C8_7 C 0.83415(7) 0.29220(5) 0.9564(3)
H4_7 H 0.8067 0.2747 0.8533
H7_8 H 0.0298 0.7523 0.9594
N3_8 N 0.89509(4) 0.73276(4) 0.0814(2)
C11_8 C 0.93883(5) 0.75678(5) 0.1730(3)
C13_8 C 0.96434(5) 0.74157(5) 0.0194(3)
C16_8 C 0.95887(5) 0.79138(5) 0.3769(3)
H9_8 H 0.9414 0.8013 0.4800
H10_8 H 0.8721(6) 0.7332(6) 0.147(4)
N3_9 N 0.83768(6) 0.10491(4) 0.0814(2)
C11_9 C 0.81796(7) 0.06117(5) 0.1730(3)
C13_9 C 0.77724(7) 0.03566(5) 0.0194(3)
C16_9 C 0.83252(7) 0.04113(5) 0.3769(3)
H9_9 H 0.8600 0.0586 0.4800
H10_9 H 0.8612(8) 0.1279(6) 0.147(4)
H7_9 H 0.7226 0.9702 0.9594
N1_8 N 0.10491(4) 0.26724(4) 0.9186(2)
C3_8 C 0.06117(5) 0.24322(5) 0.8270(3)
C5_8 C 0.03566(5) 0.25843(5) 0.9806(3)
C8_8 C 0.04113(5) 0.20862(5) 0.6231(3)
H4_8 H 0.0586 0.1987 0.5200
H5_8 H 0.1279(6) 0.2668(6) 0.853(4)
H2_8 H 0.9702 0.2477 0.0406
H2_9 H 0.2774 0.0298 0.0406
N1_9 N 0.16232(6) 0.89509(4) 0.9186(2)
C3_9 C 0.18204(7) 0.93883(5) 0.8270(3)
C5_9 C 0.22276(7) 0.96434(5) 0.9806(3)
C8_9 C 0.16748(7) 0.95887(5) 0.6231(3)
H4_9 H 0.1400 0.9414 0.5200
H5_9 H 0.1388(8) 0.8721(6) 0.853(4)
loop_
_geom_bond_atom_site_label_1
_geom_bond_atom_site_label_2
_geom_bond_site_symmetry_1
_geom_bond_site_symmetry_2
Cu1 O1 1_555 1_555
O1 C6 1_555 1_555
N1 N2 1_555 1_555
N2 C1 1_555 1_555
C1 H1 1_555 1_555
C2 H2 1_555 1_555
C3 N1 1_555 1_555
C5 C1 1_555 1_555
C6 C7 1_555 1_555
C7 C2 1_555 1_555
H5 N1 1_555 1_555
Cu2 N2 1_555 1_555
N6 Cu1 1_555 1_555
C12 H8 1_555 1_555
H9 C16 1_555 1_555
C2 C5 1_555 1_555
C3 C5 1_555 1_555
C12 C16 1_555 1_555
Cu1_2 O1_2 1_555 1_555
O1_2 C6_2 1_555 1_555
N1_2 N2_2 1_555 1_555
N2_2 C1_2 1_555 1_555
C1_2 H1_2 1_555 1_555
C2_2 H2_2 1_555 1_555
C3_2 N1_2 1_555 1_555
C5_2 C1_2 1_555 1_555
C6_2 C7_2 1_555 1_555
C7_2 C2_2 1_555 1_555
H5_2 N1_2 1_555 1_555
Cu2_2 N2_2 1_555 1_555
N6_2 Cu1_2 1_555 1_555
C2_2 C5_2 1_555 1_555
C3_2 C5_2 1_555 1_555
Cu1_3 O1_3 1_555 1_555
O1_3 C6_3 1_555 1_555
N1_3 N2_3 1_555 1_555
N2_3 C1_3 1_555 1_555
C1_3 H1_3 1_555 1_555
C2_3 H2_3 1_555 1_555
C3_3 N1_3 1_555 1_555
C5_3 C1_3 1_555 1_555
C6_3 C7_3 1_555 1_555
C7_3 C2_3 1_555 1_555
H5_3 N1_3 1_555 1_555
Cu2_3 N2_3 1_555 1_555
N6_3 Cu1_3 1_555 1_555
C2_3 C5_3 1_555 1_555
C3_3 C5_3 1_555 1_555
Cu2 N4 1_555 1_555
N4 C9 1_555 1_555
C9 H6 1_555 1_555
Cu2_2 N4_2 1_555 1_555
N4_2 C9_2 1_555 1_555
C9_2 H6_2 1_555 1_555
Cu2_3 N4_3 1_555 1_555
N4_3 C9_3 1_555 1_555
C9_3 H6_3 1_555 1_555
Cu2_3 O1_4 1_555 1_555
O1_4 C6_4 1_555 1_555
O2 C6_4 1_555 1_555
C4 H3 1_555 1_555
C6_4 C7_4 1_555 1_555
C7_4 C2_4 1_555 1_555
O3 Cu2_3 1_555 1_555
N3 N6_2 1_555 1_555
N6_2 C9_4 1_555 1_555
O4_2 C14 1_555 1_555
C9_4 H6_4 1_555 1_555
C10 H7_2 1_555 1_555
C11 N3 1_555 1_555
C12_2 H8_2 1_555 1_555
C13 C9_4 1_555 1_555
C14 O3 1_555 1_555
C15 C10 1_555 1_555
C16_2 C11 1_555 1_555
H9_2 C16_2 1_555 1_555
H10 N3 1_555 1_555
C4 C7_4 1_555 1_555
C10 C13 1_555 1_555
C11 C13 1_555 1_555
C12_2 C15 1_555 1_555
C12_2 C16_2 1_555 1_555
C14 C15 1_555 1_555
Cu2 O1_5 1_555 1_555
O1_5 C6_5 1_555 1_555
O2_2 C6_5 1_555 1_555
C3_4 N1_4 1_555 1_555
C4_2 H3_2 1_555 1_555
C6_5 C7_5 1_555 1_555
C7_5 C2_5 1_555 1_555
C8 C3_4 1_555 1_555
H4 C8 1_555 1_555
H5_4 N1_4 1_555 1_555
O3_2 Cu2 1_555 1_555
N3_2 N6_3 1_555 1_555
N6_3 C9_5 1_555 1_555
O4_3 C14_2 1_555 1_555
C9_5 H6_5 1_555 1_555
C10_2 H7_3 1_555 1_555
C11_2 N3_2 1_555 1_555
C12_3 H8_3 1_555 1_555
C13_2 C9_5 1_555 1_555
C14_2 O3_2 1_555 1_555
C15_2 C10_2 1_555 1_555
C16_3 C11_2 1_555 1_555
H9_3 C16_3 1_555 1_555
H10_2 N3_2 1_555 1_555
C2_5 C5_4 1_555 1_555
C3_4 C5_4 1_555 1_555
C4_2 C7_5 1_555 1_555
C4_2 C8 1_555 1_555
C10_2 C13_2 1_555 1_555
C11_2 C13_2 1_555 1_555
C12_3 C15_2 1_555 1_555
C12_3 C16_3 1_555 1_555
C14_2 C15_2 1_555 1_555
Cu2_2 O1_6 1_555 1_555
O1_6 C6_6 1_555 1_555
O2_3 C6_6 1_555 1_555
C4_3 H3_3 1_555 1_555
C6_6 C7_6 1_555 1_555
C7_6 C2_6 1_555 1_555
O3_3 Cu2_2 1_555 1_555
N3_3 N6 1_555 1_555
N6 C9_6 1_555 1_555
O4_4 C14_3 1_555 1_555
C9_6 H6_6 1_555 1_555
C10_3 H7_4 1_555 1_555
C11_3 N3_3 1_555 1_555
C12_4 H8_4 1_555 1_555
C13_3 C9_6 1_555 1_555
C14_3 O3_3 1_555 1_555
C15_3 C10_3 1_555 1_555
C16_4 C11_3 1_555 1_555
H9_4 C16_4 1_555 1_555
H10_3 N3_3 1_555 1_555
C4_3 C7_6 1_555 1_555
C10_3 C13_3 1_555 1_555
C11_3 C13_3 1_555 1_555
C12_4 C15_3 1_555 1_555
C12_4 C16_4 1_555 1_555
C14_3 C15_3 1_555 1_555
C4_4 H3_4 1_555 1_555
H4_2 C8_2 1_555 1_555
Cu3 N4_4 1_555 1_555
O3_4 Cu1_4 1_555 1_555
N3_4 N4_4 1_555 1_555
N4_4 C9_7 1_555 1_555
N5 Cu1_4 1_555 1_555
C9_7 H6_7 1_555 1_555
C10_4 H7_5 1_555 1_555
C11_4 N3_4 1_555 1_555
C13_4 C9_7 1_555 1_555
C14_4 O3_4 1_555 1_555
C15_4 C10_4 1_555 1_555
H10_4 N3_4 1_555 1_555
C4_4 C8_2 1_555 1_555
C10_4 C13_4 1_555 1_555
C11_4 C13_4 1_555 1_555
C14_4 C15_4 1_555 1_555
Cu3_2 N4_5 1_555 1_555
O3_5 Cu1_5 1_555 1_555
N3_5 N4_5 1_555 1_555
N4_5 C9_8 1_555 1_555
N5_2 Cu1_5 1_555 1_555
C9_8 H6_8 1_555 1_555
C10_5 H7_6 1_555 1_555
C11_5 N3_5 1_555 1_555
C13_5 C9_8 1_555 1_555
C14_5 O3_5 1_555 1_555
C15_5 C10_5 1_555 1_555
H10_5 N3_5 1_555 1_555
C10_5 C13_5 1_555 1_555
C11_5 C13_5 1_555 1_555
C14_5 C15_5 1_555 1_555
Cu3_3 N4_6 1_555 1_555
O3_6 Cu1_6 1_555 1_555
N3_6 N4_6 1_555 1_555
N4_6 C9_9 1_555 1_555
N5_3 Cu1_6 1_555 1_555
C9_9 H6_9 1_555 1_555
C10_6 H7_7 1_555 1_555
C11_6 N3_6 1_555 1_555
C13_6 C9_9 1_555 1_555
C14_6 O3_6 1_555 1_555
C15_6 C10_6 1_555 1_555
H10_6 N3_6 1_555 1_555
C10_6 C13_6 1_555 1_555
C11_6 C13_6 1_555 1_555
C14_6 C15_6 1_555 1_555
Cu3_3 O1_7 1_555 1_555
O1_7 C6_7 1_555 1_555
N1_5 N5_2 1_555 1_555
N5_2 C1_4 1_555 1_555
O2_5 C6_7 1_555 1_555
C1_4 H1_4 1_555 1_555
C2_7 H2_4 1_555 1_555
C3_5 N1_5 1_555 1_555
C4_5 H3_5 1_555 1_555
C5_5 C1_4 1_555 1_555
C6_7 C7_7 1_555 1_555
C7_7 C2_7 1_555 1_555
C8_3 C3_5 1_555 1_555
H4_3 C8_3 1_555 1_555
H5_5 N1_5 1_555 1_555
O3_7 Cu3_3 1_555 1_555
N5_4 Cu3_3 1_555 1_555
O4_5 C14_7 1_555 1_555
C12_5 H8_5 1_555 1_555
C14_7 O3_7 1_555 1_555
C15_7 C10_7 1_555 1_555
C2_7 C5_5 1_555 1_555
C3_5 C5_5 1_555 1_555
C4_5 C7_7 1_555 1_555
C4_5 C8_3 1_555 1_555
C12_5 C15_7 1_555 1_555
C14_7 C15_7 1_555 1_555
Cu3 O1_8 1_555 1_555
O1_8 C6_8 1_555 1_555
N1_6 N5_3 1_555 1_555
N5_3 C1_5 1_555 1_555
O2_6 C6_8 1_555 1_555
C1_5 H1_5 1_555 1_555
C2_8 H2_5 1_555 1_555
C3_6 N1_6 1_555 1_555
C4_6 H3_6 1_555 1_555
C5_6 C1_5 1_555 1_555
C6_8 C7_8 1_555 1_555
C7_8 C2_8 1_555 1_555
C8_4 C3_6 1_555 1_555
H4_4 C8_4 1_555 1_555
H5_6 N1_6 1_555 1_555
O3_8 Cu3 1_555 1_555
N5_5 Cu3 1_555 1_555
O4_6 C14_8 1_555 1_555
C11_7 N3_7 1_555 1_555
C12_6 H8_6 1_555 1_555
C14_8 O3_8 1_555 1_555
C15_8 C10_8 1_555 1_555
C16_5 C11_7 1_555 1_555
H9_5 C16_5 1_555 1_555
H10_7 N3_7 1_555 1_555
C2_8 C5_6 1_555 1_555
C3_6 C5_6 1_555 1_555
C4_6 C7_8 1_555 1_555
C4_6 C8_4 1_555 1_555
C10_8 C13_7 1_555 1_555
C11_7 C13_7 1_555 1_555
C12_6 C15_8 1_555 1_555
C12_6 C16_5 1_555 1_555
C14_8 C15_8 1_555 1_555
Cu3_2 O1_9 1_555 1_555
O1_9 C6_9 1_555 1_555
N1_7 N5 1_555 1_555
N5 C1_6 1_555 1_555
O2_7 C6_9 1_555 1_555
C1_6 H1_6 1_555 1_555
C2_9 H2_6 1_555 1_555
C3_7 N1_7 1_555 1_555
C4_7 H3_7 1_555 1_555
C5_7 C1_6 1_555 1_555
C6_9 C7_9 1_555 1_555
C7_9 C2_9 1_555 1_555
C8_5 C3_7 1_555 1_555
H4_5 C8_5 1_555 1_555
H5_7 N1_7 1_555 1_555
O3_9 Cu3_2 1_555 1_555
N5_6 Cu3_2 1_555 1_555
O4_7 C14_9 1_555 1_555
C12_7 H8_7 1_555 1_555
C14_9 O3_9 1_555 1_555
C15_9 C10_9 1_555 1_555
C2_9 C5_7 1_555 1_555
C3_7 C5_7 1_555 1_555
C4_7 C7_9 1_555 1_555
C4_7 C8_5 1_555 1_555
C12_7 C15_9 1_555 1_555
C14_9 C15_9 1_555 1_555
N5_5 C1_7 1_555 1_555
C1_7 H1_7 1_555 1_555
N5_6 C1_8 1_555 1_555
C1_8 H1_8 1_555 1_555
N5_4 C1_9 1_555 1_555
C1_9 H1_9 1_555 1_555
C4_8 H3_8 1_555 1_555
H4_6 C8_6 1_555 1_555
C4_8 C8_6 1_555 1_555
C12_8 H8_8 1_555 1_555
H9_6 C16_6 1_555 1_555
C12_8 C16_6 1_555 1_555
C12_9 H8_9 1_555 1_555
H9_7 C16_7 1_555 1_555
C12_9 C16_7 1_555 1_555
C4_9 H3_9 1_555 1_555
H4_7 C8_7 1_555 1_555
C4_9 C8_7 1_555 1_555
C11_8 N3_8 1_555 1_555
C16_8 C11_8 1_555 1_555
H9_8 C16_8 1_555 1_555
H10_8 N3_8 1_555 1_555
C11_8 C13_8 1_555 1_555
C11_9 N3_9 1_555 1_555
C16_9 C11_9 1_555 1_555
H9_9 C16_9 1_555 1_555
H10_9 N3_9 1_555 1_555
C11_9 C13_9 1_555 1_555
C3_8 N1_8 1_555 1_555
C8_8 C3_8 1_555 1_555
H4_8 C8_8 1_555 1_555
H5_8 N1_8 1_555 1_555
C3_8 C5_8 1_555 1_555
C3_9 N1_9 1_555 1_555
C8_9 C3_9 1_555 1_555
H4_9 C8_9 1_555 1_555
H5_9 N1_9 1_555 1_555
C3_9 C5_9 1_555 1_555

#END
