
###############################################################################
#
# This file contains modified crystal structure data generated from the
# MOF subset of the Cambridge Structural Database (CSD) v543 
# hosted by the Cambridge Crystallographic Data Centre (CCDC).
#
# This work is licensed under the Creative Commons
# Attribution-NonCommercial-ShareAlike 4.0 International License.
# To view a copy of this license, visit
# http://creativecommons.org/licenses/by-nc-sa/4.0/
# or send a letter to
# Creative Commons, PO Box 1866, Mountain View, CA 94042, USA.
#
# CIF created using the CSD Python API on 29 September 2022
# The structure has been converted into the P1 space group
# The structure has a 3D framework
# The original CSD entry SEGCEQ is in the rhombohedral crystal system
# The original CSD entry SEGCEQ is in a Sohncke space group
# The framework has been calculated to contain at least 10.0% void space
# The void calculation uses a probe of radius 1.32A, grid spacing 0.4
#
###############################################################################

data_SEGCEQ
_chemical_formula_moiety         '(C278 H180 Co2 N83)n'
_symmetry_cell_setting           triclinic
_symmetry_space_group_name_H-M   'P 1'
_symmetry_Int_Tables_number      1
_space_group_name_Hall           'P 1'
loop_
_symmetry_equiv_pos_site_id
_symmetry_equiv_pos_as_xyz
1 x,y,z
_cell_length_a                   29.6590(4)
_cell_length_b                   29.6590(4)
_cell_length_c                   20.6874(12)
_cell_angle_alpha                90
_cell_angle_beta                 90
_cell_angle_gamma                120
_cell_volume                     15759.8
loop_
_atom_site_label
_atom_site_type_symbol
_atom_site_fract_x
_atom_site_fract_y
_atom_site_fract_z
Co2 Co 0.000000 -0.000000 0.40839(6)
Co8 Co -0.000000 0.000000 0.59161(6)
N28 N 0.06438(13) 0.00968(14) 0.3513(2)
N32 N 0.05662(17) 0.06086(12) 0.4687(2)
Co2_2 Co 0.000000 1.000000 0.40839(6)
Co8_2 Co -0.000000 1.000000 0.59161(6)
N31 N 0.00424(12) 0.94338(17) 0.4687(2)
N5 N 0.58547(18) -0.000000 0.500000
C12 C 0.6795(2) -0.000000 0.500000
C13 C 0.7295(2) -0.000000 0.500000
C16 C 0.82370(19) -0.000000 0.500000
C17 C 0.87355(19) -0.000000 0.500000
N6 N 0.61196(19) 0.26895(13) 0.6846(2)
N7 N 0.59326(21) 0.19463(14) 0.6385(2)
N8 N 0.94338(17) 0.00424(12) 0.5313(2)
N9 N 0.90196(19) 0.00674(14) 0.5534(2)
C18 C 0.5600(3) 0.2341(2) 0.6932(4)
H11 H 0.536948 0.240887 0.715728
C19 C 0.5475(3) 0.1890(2) 0.6645(4)
H12 H 0.514624 0.159579 0.662336
C20 C 0.63011(24) 0.24354(17) 0.6510(3)
H13 H 0.664536 0.258055 0.637575
C21 C 0.60174(26) 0.15599(19) 0.6100(3)
C22 C 0.64777(28) 0.1572(2) 0.6202(4)
H14 H 0.673416 0.183562 0.645313
C23 C 0.6566(3) 0.1201(2) 0.5937(3)
H15 H 0.688048 0.121383 0.601901
C24 C 0.61976(28) 0.0805(2) 0.5548(3)
C25 C 0.5734(4) 0.0797(3) 0.5472(4)
H16 H 0.547084 0.052744 0.523511
C26 C 0.5644(4) 0.1166(3) 0.5728(4)
H17 H 0.532751 0.115148 0.565200
C27 C 0.62757(28) 0.0391(2) 0.5263(3)
C28 C 0.67551(28) 0.0412(2) 0.5270(3)
H18 H 0.704481 0.069531 0.545185
C29 C 0.76533(27) 0.0238(2) 0.5494(3)
H19 H 0.757674 0.039382 0.583385
C30 C 0.81214(27) 0.0246(2) 0.5486(3)
H20 H 0.836263 0.041868 0.581219
Co2_3 Co 1.000000 -0.000000 0.40839(6)
Co5 Co 0.666667 0.333333 0.74172(6)
Co8_3 Co 1.000000 0.000000 0.59161(6)
N30 N 0.99032(14) 0.05471(19) 0.3513(2)
Co1 Co 0.333333 0.666667 0.25828(6)
N1 N 0.34301(14) 0.73105(13) 0.3154(2)
N2 N 0.39863(15) 0.80537(14) 0.3615(2)
N3 N 0.93914(12) 0.99576(12) 0.4687(2)
N4 N 0.89522(13) 0.99326(14) 0.4466(2)
N5_2 N 0.58547(18) 1.000000 0.500000
C1 C 0.3259(2) 0.7659(2) 0.3068(4)
H1 H 0.296061 0.759113 0.284272
C2 C 0.3585(2) 0.8110(2) 0.3355(4)
H2 H 0.355045 0.840421 0.337664
C3 C 0.38657(17) 0.75646(17) 0.3490(3)
H3 H 0.406481 0.741945 0.362425
C4 C 0.44575(18) 0.84401(19) 0.3900(3)
C5 C 0.49057(19) 0.8428(2) 0.3798(4)
H4 H 0.489854 0.816438 0.354687
C6 C 0.5365(2) 0.8799(2) 0.4063(3)
H5 H 0.566665 0.878617 0.398099
C7 C 0.53926(19) 0.9195(2) 0.4452(3)
C8 C 0.4937(2) 0.9203(3) 0.4528(4)
H6 H 0.494340 0.947256 0.476489
C9 C 0.4478(2) 0.8834(3) 0.4272(4)
H7 H 0.417603 0.884852 0.434800
C10 C 0.58847(19) 0.9609(2) 0.4737(3)
C11 C 0.63431(19) 0.9588(2) 0.4730(3)
H8 H 0.634950 0.930469 0.454815
C12_2 C 0.6795(2) 1.000000 0.500000
C13_2 C 0.7295(2) 1.000000 0.500000
C14 C 0.74153(18) 0.9762(2) 0.4506(3)
H9 H 0.718292 0.960618 0.416615
C15 C 0.78754(18) 0.9754(2) 0.4514(3)
H10 H 0.794395 0.958132 0.418781
C16_2 C 0.82370(19) 1.000000 0.500000
C17_2 C 0.87355(19) 1.000000 0.500000
N10 N 0.26895(13) 0.61196(19) 0.3154(2)
N11 N 0.19463(14) 0.59326(21) 0.3615(2)
N13 N 0.00674(14) 0.90196(19) 0.4466(2)
N14 N -0.000000 0.58547(18) 0.500000
C31 C 0.2341(2) 0.5600(3) 0.3068(4)
H21 H 0.240887 0.536948 0.284272
C32 C 0.1890(2) 0.5475(3) 0.3355(4)
H22 H 0.159579 0.514624 0.337664
C33 C 0.24354(17) 0.63011(24) 0.3490(3)
H23 H 0.258055 0.664536 0.362425
C34 C 0.15599(19) 0.60174(26) 0.3900(3)
C35 C 0.1572(2) 0.64777(28) 0.3798(4)
H24 H 0.183562 0.673416 0.354687
C36 C 0.1201(2) 0.6566(3) 0.4063(3)
H25 H 0.121383 0.688048 0.398099
C37 C 0.0805(2) 0.61976(28) 0.4452(3)
C38 C 0.0797(3) 0.5734(4) 0.4528(4)
H26 H 0.052744 0.547084 0.476489
C39 C 0.1166(3) 0.5644(4) 0.4272(4)
H27 H 0.115148 0.532751 0.434800
C40 C 0.0391(2) 0.62757(28) 0.4737(3)
C41 C 0.0412(2) 0.67551(28) 0.4730(3)
H28 H 0.069531 0.704481 0.454815
C42 C -0.000000 0.67950(20) 0.500000
C43 C -0.000000 0.72950(20) 0.500000
C44 C 0.0238(2) 0.76533(27) 0.4506(3)
H29 H 0.039382 0.757674 0.416615
C45 C 0.0246(2) 0.81214(27) 0.4514(3)
H30 H 0.041868 0.836263 0.418781
C46 C -0.000000 0.82370(19) 0.500000
C47 C -0.000000 0.87355(19) 0.500000
N19 N 0.38804(19) 0.65699(14) 0.3154(2)
N20 N 0.40674(21) 0.60137(15) 0.3615(2)
N22 N 0.09804(19) 0.10478(13) 0.4466(2)
N23 N 0.41453(18) 0.41453(18) 0.500000
C61 C 0.4400(3) 0.6741(2) 0.3068(4)
H41 H 0.463052 0.703939 0.284272
C62 C 0.4525(3) 0.6415(2) 0.3355(4)
H42 H 0.485376 0.644955 0.337664
C63 C 0.36989(24) 0.61343(17) 0.3490(3)
H43 H 0.335464 0.593519 0.362425
C64 C 0.39826(26) 0.55425(18) 0.3900(3)
C65 C 0.35223(28) 0.50943(19) 0.3798(4)
H44 H 0.326584 0.510146 0.354687
C66 C 0.3434(3) 0.4635(2) 0.4063(3)
H45 H 0.311952 0.433335 0.398099
C67 C 0.38024(28) 0.46074(19) 0.4452(3)
C68 C 0.4266(4) 0.5063(2) 0.4528(4)
H46 H 0.452916 0.505660 0.476489
C69 C 0.4356(4) 0.5522(2) 0.4272(4)
H47 H 0.467249 0.582397 0.434800
C70 C 0.37243(28) 0.41153(19) 0.4737(3)
C71 C 0.32449(28) 0.36569(19) 0.4730(3)
H48 H 0.295519 0.365050 0.454815
C72 C 0.32050(20) 0.3205(2) 0.500000
C73 C 0.27050(20) 0.2705(2) 0.500000
C74 C 0.23467(27) 0.25847(18) 0.4506(3)
H49 H 0.242326 0.281708 0.416615
C75 C 0.18786(27) 0.21246(18) 0.4514(3)
H50 H 0.163737 0.205605 0.418781
C76 C 0.17630(19) 0.17630(19) 0.500000
C77 C 0.12645(19) 0.12645(19) 0.500000
N24 N 0.65699(14) 0.38804(19) 0.6846(2)
N25 N 0.60137(15) 0.40674(21) 0.6385(2)
N26 N 0.06086(12) 0.05662(17) 0.5313(2)
N27 N 0.10478(13) 0.09804(19) 0.5534(2)
C78 C 0.6741(2) 0.4400(3) 0.6932(4)
H51 H 0.703939 0.463052 0.715728
C79 C 0.6415(2) 0.4525(3) 0.6645(4)
H52 H 0.644955 0.485376 0.662336
C80 C 0.61343(17) 0.36989(24) 0.6510(3)
H53 H 0.593519 0.335464 0.637575
C81 C 0.55425(18) 0.39826(26) 0.6100(3)
C82 C 0.50943(19) 0.35223(28) 0.6202(4)
H54 H 0.510146 0.326584 0.645313
C83 C 0.4635(2) 0.3434(3) 0.5937(3)
H55 H 0.433335 0.311952 0.601901
C84 C 0.46074(19) 0.38024(28) 0.5548(3)
C85 C 0.5063(2) 0.4266(4) 0.5472(4)
H56 H 0.505660 0.452916 0.523511
C86 C 0.5522(2) 0.4356(4) 0.5728(4)
H57 H 0.582397 0.467249 0.565200
C87 C 0.41153(19) 0.37243(28) 0.5263(3)
C88 C 0.36569(19) 0.32449(28) 0.5270(3)
H58 H 0.365050 0.295519 0.545185
C89 C 0.25847(18) 0.23467(27) 0.5494(3)
H59 H 0.281708 0.242326 0.583385
C90 C 0.21246(18) 0.18786(27) 0.5486(3)
H60 H 0.205605 0.163737 0.581219
Co2_4 Co 1.000000 1.000000 0.40839(6)
Co8_4 Co 1.000000 1.000000 0.59161(6)
N29 N 0.94529(19) 0.93562(13) 0.3513(2)
N33 N 0.32909(12) 0.60581(12) 0.1980(2)
N34 N 0.27671(17) 0.67091(12) 0.1980(2)
N35 N 0.39419(12) 0.72329(17) 0.1980(2)
N14_2 N 1.000000 0.58547(18) 0.500000
C42_2 C 1.000000 0.67950(20) 0.500000
C43_2 C 1.000000 0.72950(20) 0.500000
C46_2 C 1.000000 0.82370(19) 0.500000
C47_2 C 1.000000 0.87355(19) 0.500000
N15 N 0.73105(13) 0.34301(14) 0.6846(2)
N16 N 0.80537(14) 0.39863(15) 0.6385(2)
N17 N 0.99576(12) 0.93914(12) 0.5313(2)
N18 N 0.99326(14) 0.89522(13) 0.5534(2)
C48 C 0.7659(2) 0.3259(2) 0.6932(4)
H31 H 0.759113 0.296061 0.715728
C49 C 0.8110(2) 0.3585(2) 0.6645(4)
H32 H 0.840421 0.355045 0.662336
C50 C 0.75646(17) 0.38657(17) 0.6510(3)
H33 H 0.741945 0.406481 0.637575
C51 C 0.84401(19) 0.44575(18) 0.6100(3)
C52 C 0.8428(2) 0.49057(19) 0.6202(4)
H34 H 0.816438 0.489854 0.645313
C53 C 0.8799(2) 0.5365(2) 0.5937(3)
H35 H 0.878617 0.566665 0.601901
C54 C 0.9195(2) 0.53926(19) 0.5548(3)
C55 C 0.9203(3) 0.4937(2) 0.5472(4)
H36 H 0.947256 0.494340 0.523511
C56 C 0.8834(3) 0.4478(2) 0.5728(4)
H37 H 0.884852 0.417603 0.565200
C57 C 0.9609(2) 0.58847(19) 0.5263(3)
C58 C 0.9588(2) 0.63431(19) 0.5270(3)
H38 H 0.930469 0.634950 0.545185
C59 C 0.9762(2) 0.74153(18) 0.5494(3)
H39 H 0.960618 0.718292 0.583385
C60 C 0.9754(2) 0.78754(18) 0.5486(3)
H40 H 0.958132 0.794395 0.581219
N28_2 N 0.00968(14) 0.06438(13) 0.6487(2)
N30_2 N 0.05471(19) 0.99032(14) 0.6487(2)
N29_2 N 0.93562(13) 0.94529(19) 0.6487(2)
N33_2 N 0.60581(12) 0.32909(12) 0.8020(2)
N34_2 N 0.67091(12) 0.27671(17) 0.8020(2)
N35_2 N 0.72329(17) 0.39419(12) 0.8020(2)
N6_2 N 0.27863(19) 0.60228(13) 0.0179(2)
C18_2 C 0.2267(3) 0.5674(2) 0.0265(4)
H11_2 H 0.203615 0.574220 0.049061
Co5_2 Co 0.333334 0.666666 0.07505(6)
N2_2 N 0.06530(15) 0.13870(14) 0.6948(2)
N4_2 N 0.56189(13) 0.32659(14) 0.7799(2)
N5_3 N 0.25214(18) 0.333333 0.833333
C2_2 C 0.0252(2) 0.1443(2) 0.6688(4)
H2_2 H 0.021712 0.173754 0.670997
C3_2 C 0.05324(17) 0.08979(17) 0.6823(3)
H3_2 H 0.073148 0.075278 0.695758
C4_2 C 0.11242(18) 0.17734(19) 0.7233(3)
C5_2 C 0.15724(19) 0.1761(2) 0.7131(4)
H4_2 H 0.156521 0.149771 0.688020
C6_2 C 0.2032(2) 0.2132(2) 0.7396(3)
H5_2 H 0.233332 0.211950 0.731432
C7_2 C 0.20593(19) 0.2528(2) 0.7785(3)
C8_2 C 0.1604(2) 0.2536(3) 0.7861(4)
H6_2 H 0.161007 0.280589 0.809822
C9_2 C 0.1145(2) 0.2167(3) 0.7605(4)
H7_2 H 0.084270 0.218185 0.768133
C10_2 C 0.25514(19) 0.2942(2) 0.8070(3)
C11_2 C 0.30098(19) 0.2921(2) 0.8063(3)
H8_2 H 0.301617 0.263802 0.788148
C12_3 C 0.3462(2) 0.333333 0.833333
C13_3 C 0.3962(2) 0.333333 0.833333
C14_2 C 0.40820(18) 0.3095(2) 0.7839(3)
H9_2 H 0.384959 0.293951 0.749948
C15_2 C 0.45421(18) 0.3087(2) 0.7847(3)
H10_2 H 0.461062 0.291465 0.752114
C16_3 C 0.49037(19) 0.333333 0.833333
C17_3 C 0.54022(19) 0.333333 0.833333
N7_2 N 0.25993(21) 0.52796(14) 0.9718(2)
N8_2 N 0.61005(17) 0.33757(12) 0.8646(2)
N9_2 N 0.56863(19) 0.34007(14) 0.8867(2)
C19_2 C 0.2142(3) 0.5223(2) 0.9978(4)
H12_2 H 0.181291 0.492912 0.995669
C20_2 C 0.29678(24) 0.57687(17) 0.9843(3)
H13_2 H 0.331203 0.591388 0.970908
C21_2 C 0.26841(26) 0.48932(19) 0.9433(3)
C22_2 C 0.31444(28) 0.4905(2) 0.9535(4)
H14_2 H 0.340083 0.516895 0.978646
C23_2 C 0.3233(3) 0.4534(2) 0.9270(3)
H15_2 H 0.354715 0.454716 0.935234
C24_2 C 0.28643(28) 0.4138(2) 0.8881(3)
C25_2 C 0.2401(4) 0.4130(3) 0.8805(4)
H16_2 H 0.213751 0.386077 0.856844
C26_2 C 0.2311(4) 0.4499(3) 0.9061(4)
H17_2 H 0.199418 0.448481 0.898533
C27_2 C 0.29424(28) 0.3724(2) 0.8596(3)
C28_2 C 0.34218(28) 0.3745(2) 0.8603(3)
H18_2 H 0.371148 0.402864 0.878518
C29_2 C 0.43200(27) 0.3571(2) 0.8827(3)
H19_2 H 0.424341 0.372715 0.916718
C30_2 C 0.47881(27) 0.3579(2) 0.8819(3)
H20_2 H 0.502930 0.375201 0.914552
C61_2 C 0.1067(3) 0.0074(2) 0.6401(4)
H41_2 H 0.129719 0.037272 0.617605
Co8_5 Co 0.666666 0.333334 0.92495(6)
N24_2 N 0.32366(14) 0.72137(19) 0.0179(2)
C78_2 C 0.3408(2) 0.7733(3) 0.0265(4)
H51_2 H 0.370606 0.796385 0.049061
N20_2 N 0.07341(21) 0.93470(15) 0.6948(2)
N23_2 N 0.08120(18) 0.74786(18) 0.833333
C62_2 C 0.1192(3) 0.9748(2) 0.6688(4)
H42_2 H 0.152043 0.978288 0.670997
C63_2 C 0.03656(24) 0.94676(17) 0.6823(3)
H43_2 H 0.002131 0.926852 0.695758
C64_2 C 0.06493(26) 0.88758(18) 0.7233(3)
C65_2 C 0.01890(28) 0.84276(19) 0.7131(4)
C66_2 C 0.0101(3) 0.7968(2) 0.7396(3)
C67_2 C 0.04691(28) 0.79407(19) 0.7785(3)
C68_2 C 0.0933(4) 0.8396(2) 0.7861(4)
H46_2 H 0.119583 0.838993 0.809822
C69_2 C 0.1023(4) 0.8855(2) 0.7605(4)
H47_2 H 0.133916 0.915730 0.768133
C70_2 C 0.03910(28) 0.74486(19) 0.8070(3)
N25_2 N 0.26804(15) 0.74007(21) 0.9718(2)
C79_2 C 0.3082(2) 0.7858(3) 0.9978(4)
H52_2 H 0.311622 0.818709 0.995669
C80_2 C 0.28010(17) 0.70322(24) 0.9843(3)
H53_2 H 0.260186 0.668797 0.970908
C81_2 C 0.22092(18) 0.73159(26) 0.9433(3)
C82_2 C 0.17610(19) 0.68556(28) 0.9535(4)
H54_2 H 0.176813 0.659917 0.978646
C83_2 C 0.1302(2) 0.6767(3) 0.9270(3)
H55_2 H 0.100002 0.645285 0.935234
C84_2 C 0.12741(19) 0.71357(28) 0.8881(3)
C85_2 C 0.1730(2) 0.7599(4) 0.8805(4)
H56_2 H 0.172327 0.786249 0.856844
C86_2 C 0.2189(2) 0.7689(4) 0.9061(4)
H57_2 H 0.249064 0.800582 0.898533
C87_2 C 0.07820(19) 0.70576(28) 0.8596(3)
C88_2 C 0.03236(19) 0.65782(28) 0.8603(3)
H58_2 H 0.031717 0.628852 0.878518
C1_2 C 0.9926(2) 0.0992(2) 0.6401(4)
H1_2 H 0.962728 0.092446 0.617605
N13_2 N 0.67341(14) 0.23529(19) 0.7799(2)
H24_2 H 0.850229 0.006749 0.688020
H25_2 H 0.788050 0.021381 0.731432
C41_2 C 0.7079(2) 0.00884(28) 0.8063(3)
H28_2 H 0.736198 0.037814 0.788148
C42_3 C 0.666667 0.01283(20) 0.833333
C43_3 C 0.666667 0.06283(20) 0.833333
C44_2 C 0.6905(2) 0.09866(27) 0.7839(3)
H29_2 H 0.706049 0.091007 0.749948
C45_2 C 0.6913(2) 0.14547(27) 0.7847(3)
H30_2 H 0.708535 0.169596 0.752114
C46_3 C 0.666667 0.15703(19) 0.833333
C47_3 C 0.666667 0.20688(19) 0.833333
N17_2 N 0.66243(12) 0.27247(12) 0.8646(2)
N18_2 N 0.65993(14) 0.22855(13) 0.8867(2)
C59_2 C 0.6429(2) 0.07486(18) 0.8827(3)
H39_2 H 0.627285 0.051625 0.916718
C60_2 C 0.6421(2) 0.12087(18) 0.8819(3)
H40_2 H 0.624799 0.127728 0.914552
N15_2 N 0.39772(13) 0.67634(14) 0.0179(2)
C48_2 C 0.4326(2) 0.6592(2) 0.0265(4)
H31_2 H 0.425780 0.629394 0.049061
N11_2 N 0.86130(14) 0.92659(21) 0.6948(2)
N14_3 N 0.666667 0.91880(18) 0.833333
C31_2 C 0.9008(2) 0.8933(3) 0.6401(4)
H21_2 H 0.907554 0.870281 0.617605
C32_2 C 0.8557(2) 0.8808(3) 0.6688(4)
H22_2 H 0.826246 0.847957 0.670997
C33_2 C 0.91021(17) 0.96344(24) 0.6823(3)
H23_2 H 0.924722 0.997869 0.695758
C34_2 C 0.82266(19) 0.93507(26) 0.7233(3)
C35_2 C 0.8239(2) 0.98110(28) 0.7131(4)
C36_2 C 0.7868(2) 0.9899(3) 0.7396(3)
C37_2 C 0.7472(2) 0.95309(28) 0.7785(3)
C38_2 C 0.7464(3) 0.9067(4) 0.7861(4)
H26_2 H 0.719411 0.880417 0.809822
C39_2 C 0.7833(3) 0.8977(4) 0.7605(4)
H27_2 H 0.781815 0.866084 0.768133
C40_2 C 0.7058(2) 0.96090(28) 0.8070(3)
N16_2 N 0.47204(14) 0.73196(15) 0.9718(2)
C49_2 C 0.4777(2) 0.6918(2) 0.9978(4)
H32_2 H 0.507088 0.688378 0.995669
C50_2 C 0.42313(17) 0.71990(17) 0.9843(3)
H33_2 H 0.408612 0.739814 0.970908
C51_2 C 0.51068(19) 0.77908(18) 0.9433(3)
C52_2 C 0.5095(2) 0.82390(19) 0.9535(4)
H34_2 H 0.483105 0.823187 0.978646
C53_2 C 0.5466(2) 0.8698(2) 0.9270(3)
H35_2 H 0.545284 0.899998 0.935234
C54_2 C 0.5862(2) 0.87259(19) 0.8881(3)
C55_2 C 0.5870(3) 0.8270(2) 0.8805(4)
H36_2 H 0.613923 0.827673 0.856844
C56_2 C 0.5501(3) 0.7811(2) 0.9061(4)
H37_2 H 0.551519 0.750936 0.898533
C57_2 C 0.6276(2) 0.92180(19) 0.8596(3)
C58_2 C 0.6255(2) 0.96764(19) 0.8603(3)
H38_2 H 0.597136 0.968283 0.878518
N22_2 N 0.76471(19) 0.43811(13) 0.7799(2)
H44_2 H 0.993251 0.843479 0.688020
H45_2 H 0.978619 0.766668 0.731432
C71_2 C 0.99116(28) 0.69902(19) 0.8063(3)
H48_2 H 0.962186 0.698383 0.788148
C72_2 C 0.98717(20) 0.6538(2) 0.833333
C73_2 C 0.93717(20) 0.6038(2) 0.833333
C74_2 C 0.90134(27) 0.59180(18) 0.7839(3)
H49_2 H 0.908993 0.615041 0.749948
C75_2 C 0.85453(27) 0.54579(18) 0.7847(3)
H50_2 H 0.830404 0.538938 0.752114
C76_2 C 0.84297(19) 0.50963(19) 0.833333
C77_2 C 0.79312(19) 0.45978(19) 0.833333
N26_2 N 0.72753(12) 0.38995(17) 0.8646(2)
N27_2 N 0.77145(13) 0.43137(19) 0.8867(2)
C89_2 C 0.92514(18) 0.56800(27) 0.8827(3)
H59_2 H 0.948375 0.575659 0.916718
C90_2 C 0.87913(18) 0.52119(27) 0.8819(3)
H60_2 H 0.872272 0.497070 0.914552
N28_3 N 0.67634(14) 0.39772(13) 0.9821(2)
N29_3 N 0.60228(13) 0.27863(19) 0.9821(2)
N30_3 N 0.72137(19) 0.32366(14) 0.9821(2)
N33_3 N 0.27247(12) 0.66243(12) 0.1354(2)
N34_3 N 0.33757(12) 0.61005(17) 0.1354(2)
N35_3 N 0.38995(17) 0.72753(12) 0.1354(2)
N4_3 N 0.22855(13) 0.65993(14) 0.1133(2)
C12_4 C 0.0128(2) 0.666667 0.166667
C13_4 C 0.0628(2) 0.666667 0.166667
C14_3 C 0.07486(18) 0.6429(2) 0.1173(3)
H9_3 H 0.051625 0.627285 0.083282
C15_3 C 0.12087(18) 0.6421(2) 0.1181(3)
H10_3 H 0.127728 0.624799 0.085448
C16_4 C 0.15703(19) 0.666667 0.166667
C17_4 C 0.20688(19) 0.666667 0.166667
N9_3 N 0.23529(19) 0.67341(14) 0.2201(2)
H14_3 H 0.006749 0.850229 0.311980
H15_3 H 0.021381 0.788050 0.268568
C28_3 C 0.00884(28) 0.7079(2) 0.1937(3)
H18_3 H 0.037814 0.736198 0.211852
C29_3 C 0.09866(27) 0.6905(2) 0.2161(3)
H19_3 H 0.091007 0.706049 0.250052
C30_3 C 0.14547(27) 0.6913(2) 0.2153(3)
H20_3 H 0.169596 0.708535 0.247886
C78_3 C 0.0074(2) 0.1067(3) 0.3599(4)
H51_3 H 0.037272 0.129719 0.382395
N2_3 N 0.73196(15) 0.47204(14) 0.0282(2)
N5_4 N 0.91880(18) 0.666667 0.166667
C2_3 C 0.6918(2) 0.4777(2) 0.0022(4)
H2_3 H 0.688378 0.507088 0.004331
C3_3 C 0.71990(17) 0.42313(17) 0.0157(3)
H3_3 H 0.739814 0.408612 0.029092
C4_3 C 0.77908(18) 0.51068(19) 0.0567(3)
C5_3 C 0.82390(19) 0.5095(2) 0.0465(4)
H4_3 H 0.823187 0.483105 0.021354
C6_3 C 0.8698(2) 0.5466(2) 0.0730(3)
H5_3 H 0.899998 0.545284 0.064766
C7_3 C 0.87259(19) 0.5862(2) 0.1119(3)
C8_3 C 0.8270(2) 0.5870(3) 0.1195(4)
H6_3 H 0.827673 0.613923 0.143156
C9_3 C 0.7811(2) 0.5501(3) 0.0939(4)
H7_3 H 0.750936 0.551519 0.101467
C10_3 C 0.92180(19) 0.6276(2) 0.1404(3)
C11_3 C 0.96764(19) 0.6255(2) 0.1397(3)
H8_3 H 0.968283 0.597136 0.121482
N7_3 N 0.92659(21) 0.86130(14) 0.3052(2)
C18_3 C 0.8933(3) 0.9008(2) 0.3599(4)
H11_3 H 0.870281 0.907554 0.382395
C19_3 C 0.8808(3) 0.8557(2) 0.3312(4)
H12_3 H 0.847957 0.826246 0.329003
C20_3 C 0.96344(24) 0.91021(17) 0.3177(3)
H13_3 H 0.997869 0.924722 0.304242
C21_3 C 0.93507(26) 0.82266(19) 0.2767(3)
C22_3 C 0.98110(28) 0.8239(2) 0.2869(4)
C23_3 C 0.9899(3) 0.7868(2) 0.2604(3)
C24_3 C 0.95309(28) 0.7472(2) 0.2215(3)
C25_3 C 0.9067(4) 0.7464(3) 0.2139(4)
H16_3 H 0.880417 0.719411 0.190178
C26_3 C 0.8977(4) 0.7833(3) 0.2395(4)
H17_3 H 0.866084 0.781815 0.231867
C27_3 C 0.96090(28) 0.7058(2) 0.1930(3)
N11_3 N 0.52796(14) 0.25993(21) 0.0282(2)
N13_3 N 0.34007(14) 0.56863(19) 0.1133(2)
N14_4 N 0.333333 0.25214(18) 0.166667
C32_3 C 0.5223(2) 0.2142(3) 0.0022(4)
H22_3 H 0.492912 0.181291 0.004331
C33_3 C 0.57687(17) 0.29678(24) 0.0157(3)
H23_3 H 0.591388 0.331203 0.029092
C34_3 C 0.48932(19) 0.26841(26) 0.0567(3)
C35_3 C 0.4905(2) 0.31444(28) 0.0465(4)
H24_3 H 0.516895 0.340083 0.021354
C36_3 C 0.4534(2) 0.3233(3) 0.0730(3)
H25_3 H 0.454716 0.354715 0.064766
C37_3 C 0.4138(2) 0.28643(28) 0.1119(3)
C38_3 C 0.4130(3) 0.2401(4) 0.1195(4)
H26_3 H 0.386077 0.213751 0.143156
C39_3 C 0.4499(3) 0.2311(4) 0.0939(4)
H27_3 H 0.448481 0.199418 0.101467
C40_3 C 0.3724(2) 0.29424(28) 0.1404(3)
C41_3 C 0.3745(2) 0.34218(28) 0.1397(3)
H28_3 H 0.402864 0.371148 0.121482
C42_4 C 0.333333 0.34617(20) 0.166667
C43_4 C 0.333333 0.39617(20) 0.166667
C44_3 C 0.3571(2) 0.43200(27) 0.1173(3)
H29_3 H 0.372715 0.424341 0.083282
C45_3 C 0.3579(2) 0.47881(27) 0.1181(3)
H30_3 H 0.375201 0.502930 0.085448
C46_4 C 0.333333 0.49037(19) 0.166667
C47_4 C 0.333333 0.54022(19) 0.166667
N16_3 N 0.13870(14) 0.06530(15) 0.3052(2)
N18_3 N 0.32659(14) 0.56189(13) 0.2201(2)
C49_3 C 0.1443(2) 0.0252(2) 0.3312(4)
H32_3 H 0.173754 0.021712 0.329003
C50_3 C 0.08979(17) 0.05324(17) 0.3177(3)
H33_3 H 0.075278 0.073148 0.304242
C51_3 C 0.17734(19) 0.11242(18) 0.2767(3)
C52_3 C 0.1761(2) 0.15724(19) 0.2869(4)
H34_3 H 0.149771 0.156521 0.311980
C53_3 C 0.2132(2) 0.2032(2) 0.2604(3)
H35_3 H 0.211950 0.233332 0.268568
C54_3 C 0.2528(2) 0.20593(19) 0.2215(3)
C55_3 C 0.2536(3) 0.1604(2) 0.2139(4)
H36_3 H 0.280589 0.161007 0.190178
C56_3 C 0.2167(3) 0.1145(2) 0.2395(4)
H37_3 H 0.218185 0.084270 0.231867
C57_3 C 0.2942(2) 0.25514(19) 0.1930(3)
C58_3 C 0.2921(2) 0.30098(19) 0.1937(3)
H38_3 H 0.263802 0.301617 0.211852
C59_3 C 0.3095(2) 0.40820(18) 0.2161(3)
H39_3 H 0.293951 0.384959 0.250052
C60_3 C 0.3087(2) 0.45421(18) 0.2153(3)
H40_3 H 0.291465 0.461062 0.247886
N20_3 N 0.74007(21) 0.26804(15) 0.0282(2)
N23_3 N 0.74786(18) 0.08120(18) 0.166667
C62_3 C 0.7858(3) 0.3082(2) 0.0022(4)
H42_3 H 0.818709 0.311622 0.004331
C63_3 C 0.70322(24) 0.28010(17) 0.0157(3)
H43_3 H 0.668797 0.260186 0.029092
C64_3 C 0.73159(26) 0.22092(18) 0.0567(3)
C65_3 C 0.68556(28) 0.17610(19) 0.0465(4)
H44_3 H 0.659917 0.176813 0.021354
C66_3 C 0.6767(3) 0.1302(2) 0.0730(3)
H45_3 H 0.645285 0.100002 0.064766
C67_3 C 0.71357(28) 0.12741(19) 0.1119(3)
C68_3 C 0.7599(4) 0.1730(2) 0.1195(4)
H46_3 H 0.786249 0.172327 0.143156
C69_3 C 0.7689(4) 0.2189(2) 0.0939(4)
H47_3 H 0.800582 0.249064 0.101467
C70_3 C 0.70576(28) 0.07820(19) 0.1404(3)
C71_3 C 0.65782(28) 0.03236(19) 0.1397(3)
H48_3 H 0.628852 0.031717 0.121482
N25_3 N 0.93470(15) 0.07341(21) 0.3052(2)
C79_3 C 0.9748(2) 0.1192(3) 0.3312(4)
H52_3 H 0.978288 0.152043 0.329003
C80_3 C 0.94676(17) 0.03656(24) 0.3177(3)
H53_3 H 0.926852 0.002131 0.304242
C81_3 C 0.88758(18) 0.06493(26) 0.2767(3)
C82_3 C 0.84276(19) 0.01890(28) 0.2869(4)
C83_3 C 0.7968(2) 0.0101(3) 0.2604(3)
C84_3 C 0.79407(19) 0.04691(28) 0.2215(3)
C85_3 C 0.8396(2) 0.0933(4) 0.2139(4)
H56_3 H 0.838993 0.119583 0.190178
C86_3 C 0.8855(2) 0.1023(4) 0.2395(4)
H57_3 H 0.915730 0.133916 0.231867
C87_3 C 0.74486(19) 0.03910(28) 0.1930(3)
C1_3 C 0.6592(2) 0.4326(2) 0.9735(4)
H1_3 H 0.629394 0.425780 0.950939
C31_3 C 0.5674(2) 0.2267(3) 0.9735(4)
H21_3 H 0.574220 0.203615 0.950939
C61_3 C 0.7733(3) 0.3408(2) 0.9735(4)
H41_3 H 0.796385 0.370606 0.950939
C48_3 C 0.0992(2) 0.9926(2) 0.3599(4)
H31_3 H 0.092446 0.962728 0.382395
N22_3 N 0.43137(19) 0.77145(13) 0.1133(2)
C72_3 C 0.65383(20) 0.9872(2) 0.166667
C73_3 C 0.60383(20) 0.9372(2) 0.166667
C74_3 C 0.56800(27) 0.92514(18) 0.1173(3)
H49_3 H 0.575659 0.948375 0.083282
C75_3 C 0.52119(27) 0.87913(18) 0.1181(3)
H50_3 H 0.497070 0.872272 0.085448
C76_3 C 0.50963(19) 0.84297(19) 0.166667
C77_3 C 0.45978(19) 0.79312(19) 0.166667
N27_3 N 0.43811(13) 0.76471(19) 0.2201(2)
H54_3 H 0.843479 0.993251 0.311980
H55_3 H 0.766668 0.978619 0.268568
C88_3 C 0.69902(19) 0.99116(28) 0.1937(3)
H58_3 H 0.698383 0.962186 0.211852
C89_3 C 0.59180(18) 0.90134(27) 0.2161(3)
H59_3 H 0.615041 0.908993 0.250052
C90_3 C 0.54579(18) 0.85453(27) 0.2153(3)
H60_3 H 0.538938 0.830404 0.247886
loop_
_geom_bond_atom_site_label_1
_geom_bond_atom_site_label_2
_geom_bond_site_symmetry_1
_geom_bond_site_symmetry_2
N28 Co2 1_555 1_555
N32 Co2 1_555 1_555
N31 Co2_2 1_555 1_555
C13 C12 1_555 1_555
C17 C16 1_555 1_555
N6 C18 1_555 1_555
N7 C19 1_555 1_555
N9 C17 1_555 1_555
C18 H11 1_555 1_555
C19 C18 1_555 1_555
H12 C19 1_555 1_555
C20 N6 1_555 1_555
H13 C20 1_555 1_555
C21 N7 1_555 1_555
C22 C21 1_555 1_555
H14 C22 1_555 1_555
C23 C22 1_555 1_555
H15 C23 1_555 1_555
C24 C23 1_555 1_555
C25 C24 1_555 1_555
H16 C25 1_555 1_555
C26 C21 1_555 1_555
H17 C26 1_555 1_555
C27 N5 1_555 1_555
C28 C12 1_555 1_555
H18 C28 1_555 1_555
C29 C13 1_555 1_555
H19 C29 1_555 1_555
C30 C16 1_555 1_555
H20 C30 1_555 1_555
Co5 N6 1_555 1_555
Co8_3 N8 1_555 1_555
N30 Co2_3 1_555 1_555
N7 C20 1_555 1_555
N8 N9 1_555 1_555
C24 C27 1_555 1_555
C25 C26 1_555 1_555
C27 C28 1_555 1_555
C29 C30 1_555 1_555
Co1 N1 1_555 1_555
N1 C1 1_555 1_555
N2 C2 1_555 1_555
N3 N4 1_555 1_555
N4 C17_2 1_555 1_555
N5_2 C10 1_555 1_555
C1 H1 1_555 1_555
C2 C1 1_555 1_555
H2 C2 1_555 1_555
C3 N1 1_555 1_555
H3 C3 1_555 1_555
C4 N2 1_555 1_555
C5 C4 1_555 1_555
H4 C5 1_555 1_555
C6 C5 1_555 1_555
H5 C6 1_555 1_555
C7 C6 1_555 1_555
C8 C7 1_555 1_555
H6 C8 1_555 1_555
C9 C4 1_555 1_555
H7 C9 1_555 1_555
C10 C7 1_555 1_555
C11 C10 1_555 1_555
H8 C11 1_555 1_555
C12_2 C11 1_555 1_555
C13_2 C12_2 1_555 1_555
C14 C13_2 1_555 1_555
H9 C14 1_555 1_555
C15 C14 1_555 1_555
H10 C15 1_555 1_555
C16_2 C15 1_555 1_555
C17_2 C16_2 1_555 1_555
N10 Co1 1_555 1_555
N11 C32 1_555 1_555
N31 N13 1_555 1_555
N13 C47 1_555 1_555
N14 C40 1_555 1_555
C31 N10 1_555 1_555
H21 C31 1_555 1_555
C32 C31 1_555 1_555
H22 C32 1_555 1_555
C33 N10 1_555 1_555
H23 C33 1_555 1_555
C34 N11 1_555 1_555
C35 C34 1_555 1_555
H24 C35 1_555 1_555
C36 C35 1_555 1_555
H25 C36 1_555 1_555
C37 C36 1_555 1_555
C38 C37 1_555 1_555
H26 C38 1_555 1_555
C39 C34 1_555 1_555
H27 C39 1_555 1_555
C40 C37 1_555 1_555
C41 C40 1_555 1_555
H28 C41 1_555 1_555
C42 C41 1_555 1_555
C43 C42 1_555 1_555
C44 C43 1_555 1_555
H29 C44 1_555 1_555
C45 C44 1_555 1_555
H30 C45 1_555 1_555
C46 C45 1_555 1_555
C47 C46 1_555 1_555
N19 Co1 1_555 1_555
N20 C62 1_555 1_555
N32 N22 1_555 1_555
N22 C77 1_555 1_555
N23 C70 1_555 1_555
C61 N19 1_555 1_555
H41 C61 1_555 1_555
C62 C61 1_555 1_555
H42 C62 1_555 1_555
C63 N19 1_555 1_555
H43 C63 1_555 1_555
C64 N20 1_555 1_555
C65 C64 1_555 1_555
H44 C65 1_555 1_555
C66 C65 1_555 1_555
H45 C66 1_555 1_555
C67 C66 1_555 1_555
C68 C67 1_555 1_555
H46 C68 1_555 1_555
C69 C64 1_555 1_555
H47 C69 1_555 1_555
C70 C67 1_555 1_555
C71 C70 1_555 1_555
H48 C71 1_555 1_555
C72 C71 1_555 1_555
C73 C72 1_555 1_555
C74 C73 1_555 1_555
H49 C74 1_555 1_555
C75 C74 1_555 1_555
H50 C75 1_555 1_555
C76 C75 1_555 1_555
C77 C76 1_555 1_555
N24 C78 1_555 1_555
N25 C79 1_555 1_555
N26 N32 1_555 1_555
N27 C77 1_555 1_555
C78 H51 1_555 1_555
C79 C78 1_555 1_555
H52 C79 1_555 1_555
C80 N24 1_555 1_555
H53 C80 1_555 1_555
C81 N25 1_555 1_555
C82 C81 1_555 1_555
H54 C82 1_555 1_555
C83 C82 1_555 1_555
H55 C83 1_555 1_555
C84 C83 1_555 1_555
C85 C84 1_555 1_555
H56 C85 1_555 1_555
C86 C81 1_555 1_555
H57 C86 1_555 1_555
C87 N23 1_555 1_555
C88 C72 1_555 1_555
H58 C88 1_555 1_555
C89 C73 1_555 1_555
H59 C89 1_555 1_555
C90 C76 1_555 1_555
H60 C90 1_555 1_555
Co2_4 N3 1_555 1_555
Co5 N24 1_555 1_555
Co8 N26 1_555 1_555
N29 Co2_4 1_555 1_555
N33 Co1 1_555 1_555
N34 Co1 1_555 1_555
N35 Co1 1_555 1_555
N2 C3 1_555 1_555
C8 C9 1_555 1_555
N11 C33 1_555 1_555
C38 C39 1_555 1_555
N20 C63 1_555 1_555
C68 C69 1_555 1_555
N25 C80 1_555 1_555
N26 N27 1_555 1_555
C84 C87 1_555 1_555
C85 C86 1_555 1_555
C87 C88 1_555 1_555
C89 C90 1_555 1_555
C43_2 C42_2 1_555 1_555
C47_2 C46_2 1_555 1_555
N15 C48 1_555 1_555
N16 C49 1_555 1_555
N18 C47_2 1_555 1_555
C48 H31 1_555 1_555
C49 C48 1_555 1_555
H32 C49 1_555 1_555
C50 N15 1_555 1_555
H33 C50 1_555 1_555
C51 N16 1_555 1_555
C52 C51 1_555 1_555
H34 C52 1_555 1_555
C53 C52 1_555 1_555
H35 C53 1_555 1_555
C54 C53 1_555 1_555
C55 C54 1_555 1_555
H36 C55 1_555 1_555
C56 C51 1_555 1_555
H37 C56 1_555 1_555
C57 N14_2 1_555 1_555
C58 C42_2 1_555 1_555
H38 C58 1_555 1_555
C59 C43_2 1_555 1_555
H39 C59 1_555 1_555
C60 C46_2 1_555 1_555
H40 C60 1_555 1_555
Co5 N15 1_555 1_555
Co8_4 N17 1_555 1_555
N16 C50 1_555 1_555
N17 N18 1_555 1_555
C54 C57 1_555 1_555
C55 C56 1_555 1_555
C57 C58 1_555 1_555
C59 C60 1_555 1_555
N28_2 Co8 1_555 1_555
N30_2 Co8_2 1_555 1_555
N29_2 Co8_4 1_555 1_555
N33_2 Co5 1_555 1_555
N34_2 Co5 1_555 1_555
N35_2 Co5 1_555 1_555
N6_2 C18_2 1_555 1_555
C18_2 H11_2 1_555 1_555
Co5_2 N6_2 1_555 1_555
N2_2 C2_2 1_555 1_555
N33_2 N4_2 1_555 1_555
N4_2 C17_3 1_555 1_555
N5_3 C10_2 1_555 1_555
H2_2 C2_2 1_555 1_555
C3_2 N28_2 1_555 1_555
H3_2 C3_2 1_555 1_555
C4_2 N2_2 1_555 1_555
C5_2 C4_2 1_555 1_555
H4_2 C5_2 1_555 1_555
C6_2 C5_2 1_555 1_555
H5_2 C6_2 1_555 1_555
C7_2 C6_2 1_555 1_555
C8_2 C7_2 1_555 1_555
H6_2 C8_2 1_555 1_555
C9_2 C4_2 1_555 1_555
H7_2 C9_2 1_555 1_555
C10_2 C7_2 1_555 1_555
C11_2 C10_2 1_555 1_555
H8_2 C11_2 1_555 1_555
C12_3 C11_2 1_555 1_555
C13_3 C12_3 1_555 1_555
C14_2 C13_3 1_555 1_555
H9_2 C14_2 1_555 1_555
C15_2 C14_2 1_555 1_555
H10_2 C15_2 1_555 1_555
C16_3 C15_2 1_555 1_555
C17_3 C16_3 1_555 1_555
N7_2 C19_2 1_555 1_555
N8_2 N33_2 1_555 1_555
N9_2 C17_3 1_555 1_555
H12_2 C19_2 1_555 1_555
H13_2 C20_2 1_555 1_555
C21_2 N7_2 1_555 1_555
C22_2 C21_2 1_555 1_555
H14_2 C22_2 1_555 1_555
C23_2 C22_2 1_555 1_555
H15_2 C23_2 1_555 1_555
C24_2 C23_2 1_555 1_555
C25_2 C24_2 1_555 1_555
H16_2 C25_2 1_555 1_555
C26_2 C21_2 1_555 1_555
H17_2 C26_2 1_555 1_555
C27_2 N5_3 1_555 1_555
C28_2 C12_3 1_555 1_555
H18_2 C28_2 1_555 1_555
C29_2 C13_3 1_555 1_555
H19_2 C29_2 1_555 1_555
C30_2 C16_3 1_555 1_555
H20_2 C30_2 1_555 1_555
H41_2 C61_2 1_555 1_555
Co8_5 N8_2 1_555 1_555
N2_2 C3_2 1_555 1_555
C8_2 C9_2 1_555 1_555
N7_2 C20_2 1_555 1_555
N8_2 N9_2 1_555 1_555
C24_2 C27_2 1_555 1_555
C25_2 C26_2 1_555 1_555
C27_2 C28_2 1_555 1_555
C29_2 C30_2 1_555 1_555
N24_2 C78_2 1_555 1_555
C78_2 H51_2 1_555 1_555
Co5_2 N24_2 1_555 1_555
N20_2 C62_2 1_555 1_555
N23_2 C70_2 1_555 1_555
H42_2 C62_2 1_555 1_555
C63_2 N30_2 1_555 1_555
H43_2 C63_2 1_555 1_555
C64_2 N20_2 1_555 1_555
C65_2 C64_2 1_555 1_555
C66_2 C65_2 1_555 1_555
C67_2 C66_2 1_555 1_555
C68_2 C67_2 1_555 1_555
H46_2 C68_2 1_555 1_555
C69_2 C64_2 1_555 1_555
H47_2 C69_2 1_555 1_555
C70_2 C67_2 1_555 1_555
N25_2 C79_2 1_555 1_555
H52_2 C79_2 1_555 1_555
H53_2 C80_2 1_555 1_555
C81_2 N25_2 1_555 1_555
C82_2 C81_2 1_555 1_555
H54_2 C82_2 1_555 1_555
C83_2 C82_2 1_555 1_555
H55_2 C83_2 1_555 1_555
C84_2 C83_2 1_555 1_555
C85_2 C84_2 1_555 1_555
H56_2 C85_2 1_555 1_555
C86_2 C81_2 1_555 1_555
H57_2 C86_2 1_555 1_555
C87_2 N23_2 1_555 1_555
H58_2 C88_2 1_555 1_555
N20_2 C63_2 1_555 1_555
C68_2 C69_2 1_555 1_555
N25_2 C80_2 1_555 1_555
C84_2 C87_2 1_555 1_555
C85_2 C86_2 1_555 1_555
C87_2 C88_2 1_555 1_555
C1_2 H1_2 1_555 1_555
N34_2 N13_2 1_555 1_555
N13_2 C47_3 1_555 1_555
H28_2 C41_2 1_555 1_555
C42_3 C41_2 1_555 1_555
C43_3 C42_3 1_555 1_555
C44_2 C43_3 1_555 1_555
H29_2 C44_2 1_555 1_555
C45_2 C44_2 1_555 1_555
H30_2 C45_2 1_555 1_555
C46_3 C45_2 1_555 1_555
C47_3 C46_3 1_555 1_555
N17_2 N34_2 1_555 1_555
N18_2 C47_3 1_555 1_555
C59_2 C43_3 1_555 1_555
H39_2 C59_2 1_555 1_555
C60_2 C46_3 1_555 1_555
H40_2 C60_2 1_555 1_555
Co8_5 N17_2 1_555 1_555
N17_2 N18_2 1_555 1_555
C59_2 C60_2 1_555 1_555
N15_2 C48_2 1_555 1_555
C48_2 H31_2 1_555 1_555
Co5_2 N15_2 1_555 1_555
N11_2 C32_2 1_555 1_555
N14_3 C40_2 1_555 1_555
C31_2 N29_2 1_555 1_555
H21_2 C31_2 1_555 1_555
C32_2 C31_2 1_555 1_555
H22_2 C32_2 1_555 1_555
C33_2 N29_2 1_555 1_555
H23_2 C33_2 1_555 1_555
C34_2 N11_2 1_555 1_555
C35_2 C34_2 1_555 1_555
C36_2 C35_2 1_555 1_555
C37_2 C36_2 1_555 1_555
C38_2 C37_2 1_555 1_555
H26_2 C38_2 1_555 1_555
C39_2 C34_2 1_555 1_555
H27_2 C39_2 1_555 1_555
C40_2 C37_2 1_555 1_555
N16_2 C49_2 1_555 1_555
H32_2 C49_2 1_555 1_555
H33_2 C50_2 1_555 1_555
C51_2 N16_2 1_555 1_555
C52_2 C51_2 1_555 1_555
H34_2 C52_2 1_555 1_555
C53_2 C52_2 1_555 1_555
H35_2 C53_2 1_555 1_555
C54_2 C53_2 1_555 1_555
C55_2 C54_2 1_555 1_555
H36_2 C55_2 1_555 1_555
C56_2 C51_2 1_555 1_555
H37_2 C56_2 1_555 1_555
C57_2 N14_3 1_555 1_555
H38_2 C58_2 1_555 1_555
N35_2 N22_2 1_555 1_555
N22_2 C77_2 1_555 1_555
H48_2 C71_2 1_555 1_555
C72_2 C71_2 1_555 1_555
C73_2 C72_2 1_555 1_555
C74_2 C73_2 1_555 1_555
H49_2 C74_2 1_555 1_555
C75_2 C74_2 1_555 1_555
H50_2 C75_2 1_555 1_555
C76_2 C75_2 1_555 1_555
C77_2 C76_2 1_555 1_555
N26_2 N35_2 1_555 1_555
N27_2 C77_2 1_555 1_555
C89_2 C73_2 1_555 1_555
H59_2 C89_2 1_555 1_555
C90_2 C76_2 1_555 1_555
H60_2 C90_2 1_555 1_555
Co8_5 N26_2 1_555 1_555
N11_2 C33_2 1_555 1_555
C38_2 C39_2 1_555 1_555
N16_2 C50_2 1_555 1_555
C54_2 C57_2 1_555 1_555
C55_2 C56_2 1_555 1_555
C57_2 C58_2 1_555 1_555
N26_2 N27_2 1_555 1_555
C89_2 C90_2 1_555 1_555
N28_3 Co8_5 1_555 1_555
N29_3 Co8_5 1_555 1_555
N30_3 Co8_5 1_555 1_555
N33_3 Co5_2 1_555 1_555
N34_3 Co5_2 1_555 1_555
N35_3 Co5_2 1_555 1_555
N33_3 N4_3 1_555 1_555
N4_3 C17_4 1_555 1_555
C13_4 C12_4 1_555 1_555
C14_3 C13_4 1_555 1_555
H9_3 C14_3 1_555 1_555
C15_3 C14_3 1_555 1_555
H10_3 C15_3 1_555 1_555
C16_4 C15_3 1_555 1_555
C17_4 C16_4 1_555 1_555
N34 N33_3 1_555 1_555
N9_3 C17_4 1_555 1_555
C28_3 C12_4 1_555 1_555
H18_3 C28_3 1_555 1_555
C29_3 C13_4 1_555 1_555
H19_3 C29_3 1_555 1_555
C30_3 C16_4 1_555 1_555
H20_3 C30_3 1_555 1_555
C78_3 H51_3 1_555 1_555
N34 N9_3 1_555 1_555
C29_3 C30_3 1_555 1_555
N2_3 C2_3 1_555 1_555
N5_4 C10_3 1_555 1_555
H2_3 C2_3 1_555 1_555
H3_3 C3_3 1_555 1_555
C4_3 N2_3 1_555 1_555
C5_3 C4_3 1_555 1_555
H4_3 C5_3 1_555 1_555
C6_3 C5_3 1_555 1_555
H5_3 C6_3 1_555 1_555
C7_3 C6_3 1_555 1_555
C8_3 C7_3 1_555 1_555
H6_3 C8_3 1_555 1_555
C9_3 C4_3 1_555 1_555
H7_3 C9_3 1_555 1_555
C10_3 C7_3 1_555 1_555
C11_3 C10_3 1_555 1_555
H8_3 C11_3 1_555 1_555
N29 C18_3 1_555 1_555
N7_3 C19_3 1_555 1_555
C18_3 H11_3 1_555 1_555
C19_3 C18_3 1_555 1_555
H12_3 C19_3 1_555 1_555
C20_3 N29 1_555 1_555
H13_3 C20_3 1_555 1_555
C21_3 N7_3 1_555 1_555
C22_3 C21_3 1_555 1_555
C23_3 C22_3 1_555 1_555
C24_3 C23_3 1_555 1_555
C25_3 C24_3 1_555 1_555
H16_3 C25_3 1_555 1_555
C26_3 C21_3 1_555 1_555
H17_3 C26_3 1_555 1_555
C27_3 N5_4 1_555 1_555
N11_3 C32_3 1_555 1_555
N34_3 N13_3 1_555 1_555
N13_3 C47_4 1_555 1_555
N14_4 C40_3 1_555 1_555
H22_3 C32_3 1_555 1_555
H23_3 C33_3 1_555 1_555
C34_3 N11_3 1_555 1_555
C35_3 C34_3 1_555 1_555
H24_3 C35_3 1_555 1_555
C36_3 C35_3 1_555 1_555
H25_3 C36_3 1_555 1_555
C37_3 C36_3 1_555 1_555
C38_3 C37_3 1_555 1_555
H26_3 C38_3 1_555 1_555
C39_3 C34_3 1_555 1_555
H27_3 C39_3 1_555 1_555
C40_3 C37_3 1_555 1_555
C41_3 C40_3 1_555 1_555
H28_3 C41_3 1_555 1_555
C42_4 C41_3 1_555 1_555
C43_4 C42_4 1_555 1_555
C44_3 C43_4 1_555 1_555
H29_3 C44_3 1_555 1_555
C45_3 C44_3 1_555 1_555
H30_3 C45_3 1_555 1_555
C46_4 C45_3 1_555 1_555
C47_4 C46_4 1_555 1_555
N16_3 C49_3 1_555 1_555
N33 N34_3 1_555 1_555
N18_3 C47_4 1_555 1_555
H32_3 C49_3 1_555 1_555
C50_3 N28 1_555 1_555
H33_3 C50_3 1_555 1_555
C51_3 N16_3 1_555 1_555
C52_3 C51_3 1_555 1_555
H34_3 C52_3 1_555 1_555
C53_3 C52_3 1_555 1_555
H35_3 C53_3 1_555 1_555
C54_3 C53_3 1_555 1_555
C55_3 C54_3 1_555 1_555
H36_3 C55_3 1_555 1_555
C56_3 C51_3 1_555 1_555
H37_3 C56_3 1_555 1_555
C57_3 N14_4 1_555 1_555
C58_3 C42_4 1_555 1_555
H38_3 C58_3 1_555 1_555
C59_3 C43_4 1_555 1_555
H39_3 C59_3 1_555 1_555
C60_3 C46_4 1_555 1_555
H40_3 C60_3 1_555 1_555
N20_3 C62_3 1_555 1_555
N23_3 C70_3 1_555 1_555
H42_3 C62_3 1_555 1_555
H43_3 C63_3 1_555 1_555
C64_3 N20_3 1_555 1_555
C65_3 C64_3 1_555 1_555
H44_3 C65_3 1_555 1_555
C66_3 C65_3 1_555 1_555
H45_3 C66_3 1_555 1_555
C67_3 C66_3 1_555 1_555
C68_3 C67_3 1_555 1_555
H46_3 C68_3 1_555 1_555
C69_3 C64_3 1_555 1_555
H47_3 C69_3 1_555 1_555
C70_3 C67_3 1_555 1_555
C71_3 C70_3 1_555 1_555
H48_3 C71_3 1_555 1_555
N25_3 C79_3 1_555 1_555
H52_3 C79_3 1_555 1_555
C80_3 N30 1_555 1_555
H53_3 C80_3 1_555 1_555
C81_3 N25_3 1_555 1_555
C82_3 C81_3 1_555 1_555
C83_3 C82_3 1_555 1_555
C84_3 C83_3 1_555 1_555
C85_3 C84_3 1_555 1_555
H56_3 C85_3 1_555 1_555
C86_3 C81_3 1_555 1_555
H57_3 C86_3 1_555 1_555
C87_3 N23_3 1_555 1_555
N2_3 C3_3 1_555 1_555
C8_3 C9_3 1_555 1_555
N7_3 C20_3 1_555 1_555
C24_3 C27_3 1_555 1_555
C25_3 C26_3 1_555 1_555
N11_3 C33_3 1_555 1_555
C38_3 C39_3 1_555 1_555
N16_3 C50_3 1_555 1_555
N33 N18_3 1_555 1_555
C54_3 C57_3 1_555 1_555
C55_3 C56_3 1_555 1_555
C57_3 C58_3 1_555 1_555
C59_3 C60_3 1_555 1_555
N20_3 C63_3 1_555 1_555
C68_3 C69_3 1_555 1_555
N25_3 C80_3 1_555 1_555
C84_3 C87_3 1_555 1_555
C85_3 C86_3 1_555 1_555
N28_3 C1_3 1_555 1_555
C1_3 H1_3 1_555 1_555
C31_3 N29_3 1_555 1_555
H21_3 C31_3 1_555 1_555
C61_3 N30_3 1_555 1_555
H41_3 C61_3 1_555 1_555
C48_3 H31_3 1_555 1_555
N35_3 N22_3 1_555 1_555
N22_3 C77_3 1_555 1_555
C73_3 C72_3 1_555 1_555
C74_3 C73_3 1_555 1_555
H49_3 C74_3 1_555 1_555
C75_3 C74_3 1_555 1_555
H50_3 C75_3 1_555 1_555
C76_3 C75_3 1_555 1_555
C77_3 C76_3 1_555 1_555
N35 N35_3 1_555 1_555
N27_3 C77_3 1_555 1_555
C88_3 C72_3 1_555 1_555
H58_3 C88_3 1_555 1_555
C89_3 C73_3 1_555 1_555
H59_3 C89_3 1_555 1_555
C90_3 C76_3 1_555 1_555
H60_3 C90_3 1_555 1_555
N35 N27_3 1_555 1_555
C89_3 C90_3 1_555 1_555

#END
