
###############################################################################
#
# This file contains modified crystal structure data generated from the
# MOF subset of the Cambridge Structural Database (CSD) v543 
# hosted by the Cambridge Crystallographic Data Centre (CCDC).
#
# This work is licensed under the Creative Commons
# Attribution-NonCommercial-ShareAlike 4.0 International License.
# To view a copy of this license, visit
# http://creativecommons.org/licenses/by-nc-sa/4.0/
# or send a letter to
# Creative Commons, PO Box 1866, Mountain View, CA 94042, USA.
#
# CIF created using the CSD Python API on 29 September 2022
# The structure has been converted into the P1 space group
# The structure has a 3D framework
# The original CSD entry SEGWAF is in the monoclinic crystal system
# The framework has been calculated to contain at least 10.0% void space
# The void calculation uses a probe of radius 1.32A, grid spacing 0.4
# H atom positions have been added when not included in the experimental data
#
###############################################################################

data_SEGWAF
_chemical_formula_moiety         '(C176 H140 N12 O56 Zn12)n'
_symmetry_cell_setting           triclinic
_symmetry_space_group_name_H-M   'P 1'
_symmetry_Int_Tables_number      1
_space_group_name_Hall           'P 1'
loop_
_symmetry_equiv_pos_site_id
_symmetry_equiv_pos_as_xyz
1 x,y,z
_cell_length_a                   13.613(3)
_cell_length_b                   23.455(5)
_cell_length_c                   18.857(4)
_cell_angle_alpha                90
_cell_angle_beta                 97.16(3)
_cell_angle_gamma                90
_cell_volume                     5973.96
loop_
_atom_site_label
_atom_site_type_symbol
_atom_site_fract_x
_atom_site_fract_y
_atom_site_fract_z
O4 O 0.0275(2) 0.00823(15) 0.9248(2)
C13 C 0.0475(4) 0.2077(3) 0.6846(3)
C14 C 0.0180(4) 0.1290(2) 0.7623(3)
H6 H 0.0421 0.0994 0.7923
N2 N 0.1111(4) 0.2404(3) 0.6525(4)
C20 C 0.1907(4) 0.1468(3) 0.7391(3)
C21 C 0.3441(4) 0.1288(3) 0.8151(3)
H9 H 0.3796 0.1284 0.8606
C22 C 0.0835(4) 0.1618(3) 0.7292(3)
C23 C 0.2449(4) 0.1458(3) 0.8066(3)
H10 H 0.2150 0.1564 0.8463
C25 C 0.2377(4) 0.1309(4) 0.6810(4)
H12 H 0.2028 0.1315 0.6354
C40 C 0.3897(4) 0.1129(2) 0.7574(3)
C41 C 0.3365(4) 0.1140(3) 0.6902(4)
H20 H 0.3668 0.1033 0.6506
C42 C 0.4976(4) 0.0957(3) 0.7646(3)
O13 O 0.5395(3) 0.0892(2) 0.8282(3)
O14 O 0.5382(3) 0.0898(3) 0.7110(3)
H23 H 0.083(6) 0.265(3) 0.629(4)
H24 H 0.166(3) 0.227(4) 0.654(5)
Zn4 Zn 0.67880(4) 0.07250(3) 0.84234(4)
C2 C 0.0421(3) 0.9031(2) 0.7151(3)
H1 H 0.0653 0.9336 0.7440
N1 N 0.1380(3) 0.7987(2) 0.5976(3)
C4 C 0.2153(4) 0.8855(2) 0.6928(3)
C15 C 0.1068(4) 0.8730(2) 0.6788(3)
C16 C 0.2603(4) 0.9297(3) 0.6611(3)
H7 H 0.2230 0.9526 0.6276
C17 C 0.3617(4) 0.9407(3) 0.6789(3)
H8 H 0.3915 0.9706 0.6572
C18 C 0.0736(4) 0.8270(2) 0.6339(3)
C24 C 0.2718(4) 0.8505(3) 0.7411(4)
H11 H 0.2424 0.8197 0.7613
C26 C 0.3727(4) 0.8613(3) 0.7597(3)
H13 H 0.4101 0.8381 0.7928
C27 C 0.4171(4) 0.9067(2) 0.7287(3)
C28 C 0.5250(4) 0.9188(3) 0.7505(3)
O7 O 0.5677(3) 0.8888(2) 0.8025(2)
O8 O 0.5677(3) 0.9558(2) 0.7207(3)
H15 H 0.0412 0.7048 0.6220
H21 H 0.115(4) 0.776(3) 0.568(3)
H22 H 0.190(3) 0.816(3) 0.603(4)
Zn6 Zn 0.70185(4) 0.91828(3) 0.81857(4)
H34 H 0.0418395 0.996241 0.975539
H35 H 0.0666417 0.98451 0.894908
O1 O 0.7581(2) 0.10909(18) 0.7748(2)
O3 O 0.8921(3) 0.07179(17) 0.8377(2)
C3 C 0.9024(4) 0.2655(3) 0.6260(3)
C5 C 0.8806(3) 0.1837(2) 0.7067(3)
H2 H 0.8127 0.1901 0.6989
C7 C 0.8514(4) 0.1037(2) 0.7905(3)
C9 C 0.9383(4) 0.3213(3) 0.6368(3)
H4 H 0.9862 0.3290 0.6752
C10 C 0.8276(4) 0.2558(2) 0.5709(3)
H5 H 0.8009 0.2194 0.5641
C11 C 0.9165(4) 0.1396(2) 0.7515(3)
C12 C 0.9429(4) 0.2185(2) 0.6732(3)
C36 C 0.7916(4) 0.3001(2) 0.5249(3)
H18 H 0.7409 0.2928 0.4882
C37 C 0.9034(4) 0.3654(2) 0.5911(3)
H19 H 0.9287 0.4020 0.5989
C38 C 0.8308(3) 0.3551(2) 0.5337(3)
C39 C 0.8000(4) 0.4003(2) 0.4793(3)
O11 O 0.8501(2) 0.44586(16) 0.4813(2)
O12 O 0.7260(3) 0.38884(17) 0.4344(2)
Zn5 Zn 0.67880(4) 0.42750(3) 0.34234(4)
Zn9 Zn 0.87423(4) 0.50249(3) 0.38982(4)
O18 O 0.8501(2) 0.05414(16) 0.9813(2)
O19 O 0.7260(3) 0.11116(17) 0.9344(2)
Zn3 Zn 0.87423(4) 0.99751(3) 0.88982(4)
O2 O 0.7220(2) 0.99387(14) 0.86536(19)
O5 O 0.9115(3) 0.95007(17) 0.8034(2)
O6 O 0.7838(3) 0.90305(19) 0.7438(2)
C1 C 0.8754(4) 0.9164(2) 0.7555(3)
C6 C 0.9085(3) 0.8426(2) 0.6657(3)
H3 H 0.8418 0.8330 0.6614
C8 C 0.9414(4) 0.8885(2) 0.7090(3)
C19 C 0.9711(4) 0.8108(2) 0.6288(3)
C29 C 0.9337(3) 0.7614(2) 0.5851(3)
C30 C 0.8457(4) 0.7650(2) 0.5376(3)
H14 H 0.8091 0.7986 0.5349
C31 C 0.9845(4) 0.7089(2) 0.5894(3)
C32 C 0.9517(3) 0.6633(2) 0.5463(3)
H16 H 0.9870 0.6292 0.5499
C33 C 0.8664(3) 0.6678(2) 0.4974(3)
C34 C 0.8351(3) 0.6203(2) 0.4470(3)
C35 C 0.8129(4) 0.7193(2) 0.4950(3)
H17 H 0.7543 0.7226 0.4642
O9 O 0.8789(2) 0.57295(15) 0.45686(19)
O10 O 0.7684(3) 0.63237(16) 0.3962(2)
H25 H 0.703(4) 0.979(2) 0.899(2)
Zn7 Zn 0.70185(4) 0.58172(3) 0.31857(4)
O16 O 0.8789(2) 0.92705(15) 0.95686(19)
O17 O 0.7684(3) 0.86763(16) 0.8962(2)
O4_2 O 0.0275(2) 0.49177(15) 0.4248(2)
C2_2 C 0.0421(3) 0.5969(2) 0.2151(3)
H1_2 H 0.0653 0.5664 0.2440
N1_2 N 0.1380(3) 0.7013(2) 0.0976(3)
C4_2 C 0.2153(4) 0.6145(2) 0.1928(3)
C13_2 C 0.0475(4) 0.2923(3) 0.1846(3)
C14_2 C 0.0180(4) 0.3710(2) 0.2623(3)
H6_2 H 0.0421 0.4006 0.2923
C15_2 C 0.1068(4) 0.6270(2) 0.1788(3)
C16_2 C 0.2603(4) 0.5703(3) 0.1611(3)
H7_2 H 0.2230 0.5474 0.1276
C17_2 C 0.3617(4) 0.5593(3) 0.1789(3)
H8_2 H 0.3915 0.5294 0.1572
C18_2 C 0.0736(4) 0.6730(2) 0.1339(3)
N2_2 N 0.1111(4) 0.2596(3) 0.1525(4)
C20_2 C 0.1907(4) 0.3532(3) 0.2391(3)
C21_2 C 0.3441(4) 0.3712(3) 0.3151(3)
H9_2 H 0.3796 0.3716 0.3606
C22_2 C 0.0835(4) 0.3382(3) 0.2292(3)
C23_2 C 0.2449(4) 0.3542(3) 0.3066(3)
H10_2 H 0.2150 0.3436 0.3463
C24_2 C 0.2718(4) 0.6495(3) 0.2411(4)
H11_2 H 0.2424 0.6803 0.2613
C25_2 C 0.2377(4) 0.3691(4) 0.1810(4)
H12_2 H 0.2028 0.3685 0.1354
C26_2 C 0.3727(4) 0.6387(3) 0.2597(3)
H13_2 H 0.4101 0.6619 0.2928
C27_2 C 0.4171(4) 0.5933(2) 0.2287(3)
C28_2 C 0.5250(4) 0.5812(3) 0.2505(3)
O7_2 O 0.5677(3) 0.6112(2) 0.3025(2)
O8_2 O 0.5677(3) 0.5442(2) 0.2207(3)
H15_2 H 0.0412 0.7952 0.1220
C40_2 C 0.3897(4) 0.3871(2) 0.2574(3)
C41_2 C 0.3365(4) 0.3860(3) 0.1902(4)
H20_2 H 0.3668 0.3967 0.1506
C42_2 C 0.4976(4) 0.4043(3) 0.2646(3)
O13_2 O 0.5395(3) 0.4108(2) 0.3282(3)
O14_2 O 0.5382(3) 0.4102(3) 0.2110(3)
H21_2 H 0.115(4) 0.724(3) 0.068(3)
H22_2 H 0.190(3) 0.684(3) 0.103(4)
H23_2 H 0.083(6) 0.235(3) 0.129(4)
H24_2 H 0.166(3) 0.273(4) 0.154(5)
H34_2 H 0.0418395 0.503759 0.475539
H35_2 H 0.0666417 0.51549 0.394908
O1_2 O 0.7581(2) 0.39091(18) 0.2748(2)
O2_2 O 0.7220(2) 0.50613(14) 0.36536(19)
O3_2 O 0.8921(3) 0.42821(17) 0.3377(2)
O5_2 O 0.9115(3) 0.54993(17) 0.3034(2)
O6_2 O 0.7838(3) 0.59695(19) 0.2438(2)
C1_2 C 0.8754(4) 0.5836(2) 0.2555(3)
C3_2 C 0.9024(4) 0.2345(3) 0.1260(3)
C5_2 C 0.8806(3) 0.3163(2) 0.2067(3)
H2_2 H 0.8127 0.3099 0.1989
C6_2 C 0.9085(3) 0.6574(2) 0.1657(3)
H3_2 H 0.8418 0.6670 0.1614
C7_2 C 0.8514(4) 0.3963(2) 0.2905(3)
C8_2 C 0.9414(4) 0.6115(2) 0.2090(3)
C9_2 C 0.9383(4) 0.1787(3) 0.1368(3)
H4_2 H 0.9862 0.1710 0.1752
C10_2 C 0.8276(4) 0.2442(2) 0.0709(3)
H5_2 H 0.8009 0.2806 0.0641
C11_2 C 0.9165(4) 0.3604(2) 0.2515(3)
C12_2 C 0.9429(4) 0.2815(2) 0.1732(3)
C19_2 C 0.9711(4) 0.6892(2) 0.1288(3)
C29_2 C 0.9337(3) 0.7386(2) 0.0851(3)
C30_2 C 0.8457(4) 0.7350(2) 0.0376(3)
H14_2 H 0.8091 0.7014 0.0349
C31_2 C 0.9845(4) 0.7911(2) 0.0894(3)
C32_2 C 0.9517(3) 0.8367(2) 0.0463(3)
H16_2 H 0.9870 0.8708 0.0499
C36_2 C 0.7916(4) 0.1999(2) 0.0249(3)
C37_2 C 0.9034(4) 0.1346(2) 0.0911(3)
H19_2 H 0.9287 0.0980 0.0989
C38_2 C 0.8308(3) 0.1449(2) 0.0337(3)
H25_2 H 0.703(4) 0.521(2) 0.399(2)
C33_2 C 0.8664(3) 0.8322(2) 0.9974(3)
C34_2 C 0.8351(3) 0.8797(2) 0.9470(3)
C35_2 C 0.8129(4) 0.7807(2) 0.9950(3)
H17_2 H 0.7543 0.7774 0.9642
H18_2 H 0.7409 0.2072 0.9882
C39_2 C 0.8000(4) 0.0997(2) 0.9793(3)
Zn9_2 Zn 0.12577(4) 0.00249(3) 0.11018(4)
C33_3 C 0.1336(3) 0.1678(2) 0.0026(3)
C34_3 C 0.1649(3) 0.1203(2) 0.0530(3)
C35_3 C 0.1871(4) 0.2193(2) 0.0050(3)
H17_3 H 0.2457 0.2226 0.0358
O9_2 O 0.1211(2) 0.07295(15) 0.04314(19)
O10_2 O 0.2316(3) 0.13237(16) 0.1038(2)
H18_3 H 0.2591 0.7928 0.0118
C39_3 C 0.2000(4) 0.9003(2) 0.0207(3)
O11_2 O 0.1499(2) 0.94586(16) 0.0187(2)
O12_2 O 0.2740(3) 0.88884(17) 0.0656(2)
Zn5_2 Zn 0.32120(4) 0.92750(3) 0.15766(4)
Zn7_2 Zn 0.29815(4) 0.08172(3) 0.18143(4)
Zn1 Zn 0.32120(4) 0.57250(3) 0.65766(4)
Zn2 Zn 0.29815(4) 0.41828(3) 0.68143(4)
Zn3_2 Zn 0.12577(4) 0.49751(3) 0.61018(4)
O1_3 O 0.2419(2) 0.60909(18) 0.7252(2)
O2_3 O 0.2780(2) 0.49387(14) 0.63464(19)
O3_3 O 0.1079(3) 0.57179(17) 0.6623(2)
O5_3 O 0.0885(3) 0.45007(17) 0.6966(2)
O6_3 O 0.2162(3) 0.40305(19) 0.7562(2)
C1_3 C 0.1246(4) 0.4164(2) 0.7445(3)
C3_3 C 0.0976(4) 0.7655(3) 0.8740(3)
C5_3 C 0.1194(3) 0.6837(2) 0.7933(3)
H2_3 H 0.1873 0.6901 0.8011
C6_3 C 0.0915(3) 0.3426(2) 0.8343(3)
H3_3 H 0.1582 0.3330 0.8386
C7_3 C 0.1486(4) 0.6037(2) 0.7095(3)
C8_3 C 0.0586(4) 0.3885(2) 0.7910(3)
C9_3 C 0.0617(4) 0.8213(3) 0.8632(3)
H4_3 H 0.0138 0.8290 0.8248
C10_3 C 0.1724(4) 0.7558(2) 0.9291(3)
H5_3 H 0.1991 0.7194 0.9359
C11_3 C 0.0835(4) 0.6396(2) 0.7485(3)
C12_3 C 0.0571(4) 0.7185(2) 0.8268(3)
C19_3 C 0.0289(4) 0.3108(2) 0.8712(3)
C29_3 C 0.0663(3) 0.2614(2) 0.9149(3)
C30_3 C 0.1543(4) 0.2650(2) 0.9624(3)
H14_3 H 0.1909 0.2986 0.9651
C31_3 C 0.0155(4) 0.2089(2) 0.9106(3)
C32_3 C 0.0483(3) 0.1633(2) 0.9537(3)
H16_3 H 0.0130 0.1292 0.9501
C36_3 C 0.2084(4) 0.8001(2) 0.9751(3)
C37_3 C 0.0966(4) 0.8654(2) 0.9089(3)
H19_3 H 0.0713 0.9020 0.9011
C38_3 C 0.1692(3) 0.8551(2) 0.9663(3)
H25_3 H 0.297(4) 0.479(2) 0.601(2)
O15 O 0.4323(3) 0.3888(2) 0.6975(2)
O16_2 O 0.1211(2) 0.42705(15) 0.54314(19)
O17_2 O 0.2316(3) 0.36763(16) 0.6038(2)
O18_2 O 0.1499(2) 0.55414(16) 0.5187(2)
O19_2 O 0.2740(3) 0.61116(17) 0.5656(2)
O20 O 0.4605(3) 0.5892(2) 0.6718(3)
O4_3 O 0.9725(2) 0.50823(15) 0.5752(2)
C2_3 C 0.9579(3) 0.4031(2) 0.7849(3)
H1_3 H 0.9347 0.4336 0.7560
N1_3 N 0.8620(3) 0.2987(2) 0.9024(3)
C4_3 C 0.7847(4) 0.3855(2) 0.8072(3)
C13_3 C 0.9525(4) 0.7077(3) 0.8154(3)
C14_3 C 0.9820(4) 0.6290(2) 0.7377(3)
H6_3 H 0.9579 0.5994 0.7077
C15_3 C 0.8932(4) 0.3730(2) 0.8212(3)
C16_3 C 0.7397(4) 0.4297(3) 0.8389(3)
H7_3 H 0.7770 0.4526 0.8724
C17_3 C 0.6383(4) 0.4407(3) 0.8211(3)
H8_3 H 0.6085 0.4706 0.8428
C18_3 C 0.9264(4) 0.3270(2) 0.8661(3)
N2_3 N 0.8889(4) 0.7404(3) 0.8475(4)
C20_3 C 0.8093(4) 0.6468(3) 0.7609(3)
C21_3 C 0.6559(4) 0.6288(3) 0.6849(3)
H9_3 H 0.6204 0.6284 0.6394
C22_3 C 0.9165(4) 0.6618(3) 0.7708(3)
C23_3 C 0.7551(4) 0.6458(3) 0.6934(3)
H10_3 H 0.7850 0.6564 0.6537
C24_3 C 0.7282(4) 0.3505(3) 0.7589(4)
H11_3 H 0.7576 0.3197 0.7387
C25_3 C 0.7623(4) 0.6309(4) 0.8190(4)
H12_3 H 0.7972 0.6315 0.8646
C26_3 C 0.6273(4) 0.3613(3) 0.7403(3)
H13_3 H 0.5899 0.3381 0.7072
C27_3 C 0.5829(4) 0.4067(2) 0.7713(3)
C28_3 C 0.4750(4) 0.4188(3) 0.7495(3)
O8_3 O 0.4323(3) 0.4558(2) 0.7793(3)
H15_3 H 0.9588 0.2048 0.8780
C40_3 C 0.6103(4) 0.6129(2) 0.7426(3)
C41_3 C 0.6635(4) 0.6140(3) 0.8098(4)
H20_3 H 0.6332 0.6033 0.8494
C42_3 C 0.5024(4) 0.5957(3) 0.7354(3)
O14_3 O 0.4618(3) 0.5898(3) 0.7890(3)
H21_3 H 0.885(4) 0.276(3) 0.932(3)
H22_3 H 0.810(3) 0.316(3) 0.897(4)
H23_3 H 0.917(6) 0.765(3) 0.871(4)
H24_3 H 0.834(3) 0.727(4) 0.846(5)
H34_3 H 0.95816 0.496241 0.524461
H35_3 H 0.933358 0.48451 0.605092
O2_4 O 0.2780(2) 0.00613(14) 0.13464(19)
O5_4 O 0.0885(3) 0.04993(17) 0.1966(2)
O6_4 O 0.2162(3) 0.09695(19) 0.2562(2)
C1_4 C 0.1246(4) 0.0836(2) 0.2445(3)
C6_4 C 0.0915(3) 0.1574(2) 0.3343(3)
H3_4 H 0.1582 0.1670 0.3386
C8_4 C 0.0586(4) 0.1115(2) 0.2910(3)
C19_4 C 0.0289(4) 0.1892(2) 0.3712(3)
C29_4 C 0.0663(3) 0.2386(2) 0.4149(3)
C30_4 C 0.1543(4) 0.2350(2) 0.4624(3)
H14_4 H 0.1909 0.2014 0.4651
C31_4 C 0.0155(4) 0.2911(2) 0.4106(3)
C32_4 C 0.0483(3) 0.3367(2) 0.4537(3)
H16_4 H 0.0130 0.3708 0.4501
C33_4 C 0.1336(3) 0.3322(2) 0.5026(3)
C34_4 C 0.1649(3) 0.3797(2) 0.5530(3)
C35_4 C 0.1871(4) 0.2807(2) 0.5050(3)
H17_4 H 0.2457 0.2774 0.5358
H25_4 H 0.297(4) 0.021(2) 0.101(2)
O15_2 O 0.4323(3) 0.1112(2) 0.1975(2)
O1_4 O 0.2419(2) 0.89091(18) 0.2252(2)
O3_4 O 0.1079(3) 0.92821(17) 0.1623(2)
C3_4 C 0.0976(4) 0.7345(3) 0.3740(3)
C5_4 C 0.1194(3) 0.8163(2) 0.2933(3)
H2_4 H 0.1873 0.8099 0.3011
C7_4 C 0.1486(4) 0.8963(2) 0.2095(3)
C9_4 C 0.0617(4) 0.6787(3) 0.3632(3)
H4_4 H 0.0138 0.6710 0.3248
C10_4 C 0.1724(4) 0.7442(2) 0.4291(3)
H5_4 H 0.1991 0.7806 0.4359
C11_4 C 0.0835(4) 0.8604(2) 0.2485(3)
C12_4 C 0.0571(4) 0.7815(2) 0.3268(3)
C36_4 C 0.2084(4) 0.6999(2) 0.4751(3)
H18_4 H 0.2591 0.7072 0.5118
C37_4 C 0.0966(4) 0.6346(2) 0.4089(3)
H19_4 H 0.0713 0.5980 0.4011
C38_4 C 0.1692(3) 0.6449(2) 0.4663(3)
C39_4 C 0.2000(4) 0.5997(2) 0.5207(3)
O20_2 O 0.4605(3) 0.9108(2) 0.1718(3)
C2_4 C 0.9579(3) 0.0969(2) 0.2849(3)
H1_4 H 0.9347 0.0664 0.2560
N1_4 N 0.8620(3) 0.2013(2) 0.4024(3)
C4_4 C 0.7847(4) 0.1145(2) 0.3072(3)
C15_4 C 0.8932(4) 0.1270(2) 0.3212(3)
C16_4 C 0.7397(4) 0.0703(3) 0.3389(3)
H7_4 H 0.7770 0.0474 0.3724
C17_4 C 0.6383(4) 0.0593(3) 0.3211(3)
H8_4 H 0.6085 0.0294 0.3428
C18_4 C 0.9264(4) 0.1730(2) 0.3661(3)
C24_4 C 0.7282(4) 0.1495(3) 0.2589(4)
H11_4 H 0.7576 0.1803 0.2387
C26_4 C 0.6273(4) 0.1387(3) 0.2403(3)
H13_4 H 0.5899 0.1619 0.2072
C27_4 C 0.5829(4) 0.0933(2) 0.2713(3)
C28_4 C 0.4750(4) 0.0812(3) 0.2495(3)
O8_4 O 0.4323(3) 0.0442(2) 0.2793(3)
H15_4 H 0.9588 0.2952 0.3780
H21_4 H 0.885(4) 0.224(3) 0.432(3)
H22_4 H 0.810(3) 0.184(3) 0.397(4)
H34_4 H 0.95816 0.00375875 0.0244612
H35_4 H 0.933358 0.0154903 0.105092
O4_4 O 0.9725(2) 0.99177(15) 0.0752(2)
C13_4 C 0.9525(4) 0.7923(3) 0.3154(3)
C14_4 C 0.9820(4) 0.8710(2) 0.2377(3)
H6_4 H 0.9579 0.9006 0.2077
N2_4 N 0.8889(4) 0.7596(3) 0.3475(4)
C20_4 C 0.8093(4) 0.8532(3) 0.2609(3)
C21_4 C 0.6559(4) 0.8712(3) 0.1849(3)
H9_4 H 0.6204 0.8716 0.1394
C22_4 C 0.9165(4) 0.8382(3) 0.2708(3)
C23_4 C 0.7551(4) 0.8542(3) 0.1934(3)
H10_4 H 0.7850 0.8436 0.1537
C25_4 C 0.7623(4) 0.8691(4) 0.3190(4)
H12_4 H 0.7972 0.8685 0.3646
C40_4 C 0.6103(4) 0.8871(2) 0.2426(3)
C41_4 C 0.6635(4) 0.8860(3) 0.3098(4)
H20_4 H 0.6332 0.8967 0.3494
C42_4 C 0.5024(4) 0.9043(3) 0.2354(3)
O14_4 O 0.4618(3) 0.9102(3) 0.2890(3)
H23_4 H 0.917(6) 0.735(3) 0.371(4)
H24_4 H 0.834(3) 0.773(4) 0.346(5)
N3 N 0.6341(6) 0.0289(4) 0.6127(4)
H26 H 0.5988 0.0362 0.6533
C43 C 0.7382(7) 0.0179(6) 0.6376(6)
H29 H 0.7667 0.0507 0.6627
H30 H 0.7729 0.0101 0.5974
C44 C 0.6232(19) 0.0800(12) 0.5624(11)
H31 H 0.5543 0.0866 0.5468
H32 H 0.6570 0.0725 0.5217
H33 H 0.6513 0.1132 0.5870
H27 H 0.6051 0.9956 0.5879
H28 H 0.7434 0.9856 0.6692
N3_2 N 0.3659(6) 0.5289(4) 0.8873(4)
H26_2 H 0.4012 0.5362 0.8467
H27_2 H 0.3949 0.4956 0.9121
C43_2 C 0.2618(7) 0.5179(6) 0.8624(6)
H28_2 H 0.2566 0.4856 0.8308
H29_2 H 0.2333 0.5507 0.8373
H30_2 H 0.2271 0.5101 0.9026
C44_2 C 0.3768(19) 0.5800(12) 0.9376(11)
H31_2 H 0.4457 0.5866 0.9532
H32_2 H 0.3430 0.5725 0.9783
H33_2 H 0.3487 0.6132 0.9130
H27_3 H 0.3949 0.0044 0.4121
H28_3 H 0.2566 0.0144 0.3308
N3_3 N 0.3659(6) 0.9711(4) 0.3873(4)
H26_3 H 0.4012 0.9638 0.3467
C43_3 C 0.2618(7) 0.9821(6) 0.3624(6)
H29_3 H 0.2333 0.9493 0.3373
H30_3 H 0.2271 0.9899 0.4026
C44_3 C 0.3768(19) 0.9200(12) 0.4376(11)
H31_3 H 0.4457 0.9134 0.4532
H32_3 H 0.3430 0.9275 0.4783
H33_3 H 0.3487 0.8868 0.4130
N3_4 N 0.6341(6) 0.4711(4) 0.1127(4)
H26_4 H 0.5988 0.4638 0.1533
H27_4 H 0.6051 0.5044 0.0879
C43_4 C 0.7382(7) 0.4821(6) 0.1376(6)
H28_4 H 0.7434 0.5144 0.1692
H29_4 H 0.7667 0.4493 0.1627
H30_4 H 0.7729 0.4899 0.0974
C44_4 C 0.6232(19) 0.4200(12) 0.0624(11)
H31_4 H 0.5543 0.4134 0.0468
H32_4 H 0.6570 0.4275 0.0217
H33_4 H 0.6513 0.3868 0.0870
loop_
_geom_bond_atom_site_label_1
_geom_bond_atom_site_label_2
_geom_bond_site_symmetry_1
_geom_bond_site_symmetry_2
H6 C14 1_555 1_555
N2 C13 1_555 1_555
C20 C22 1_555 1_555
C21 H9 1_555 1_555
C22 C13 1_555 1_555
C23 C20 1_555 1_555
H10 C23 1_555 1_555
C25 C20 1_555 1_555
H12 C25 1_555 1_555
C40 C21 1_555 1_555
C41 C25 1_555 1_555
H20 C41 1_555 1_555
C42 C40 1_555 1_555
O13 C42 1_555 1_555
O14 C42 1_555 1_555
H23 N2 1_555 1_555
H24 N2 1_555 1_555
Zn4 O13 1_555 1_555
C14 C22 1_555 1_555
C21 C23 1_555 1_555
C40 C41 1_555 1_555
C2 H1 1_555 1_555
N1 C18 1_555 1_555
C4 C15 1_555 1_555
C15 C2 1_555 1_555
C16 C4 1_555 1_555
H7 C16 1_555 1_555
C17 C16 1_555 1_555
H8 C17 1_555 1_555
C18 C15 1_555 1_555
C24 C4 1_555 1_555
H11 C24 1_555 1_555
C26 C24 1_555 1_555
H13 C26 1_555 1_555
C27 C17 1_555 1_555
C28 C27 1_555 1_555
O7 C28 1_555 1_555
O8 C28 1_555 1_555
H21 N1 1_555 1_555
H22 N1 1_555 1_555
Zn6 O7 1_555 1_555
C26 C27 1_555 1_555
Zn4 O1 1_555 1_555
O1 C7 1_555 1_555
C3 C9 1_555 1_555
C5 H2 1_555 1_555
C7 O3 1_555 1_555
C9 H4 1_555 1_555
C10 C3 1_555 1_555
H5 C10 1_555 1_555
C11 C5 1_555 1_555
C12 C3 1_555 1_555
C36 C10 1_555 1_555
H18 C36 1_555 1_555
C37 C9 1_555 1_555
H19 C37 1_555 1_555
C38 C36 1_555 1_555
C39 C38 1_555 1_555
O11 C39 1_555 1_555
O12 C39 1_555 1_555
Zn5 O12 1_555 1_555
Zn9 O11 1_555 1_555
O19 Zn4 1_555 1_555
C5 C12 1_555 1_555
C7 C11 1_555 1_555
C37 C38 1_555 1_555
Zn6 O2 1_555 1_555
Zn3 O2 1_555 1_555
O5 Zn3 1_555 1_555
O6 Zn6 1_555 1_555
C1 O5 1_555 1_555
C6 H3 1_555 1_555
C8 C1 1_555 1_555
C19 C6 1_555 1_555
C29 C19 1_555 1_555
C30 C29 1_555 1_555
H14 C30 1_555 1_555
C31 C29 1_555 1_555
C32 C31 1_555 1_555
H16 C32 1_555 1_555
C33 C32 1_555 1_555
C34 C33 1_555 1_555
C35 C30 1_555 1_555
H17 C35 1_555 1_555
O9 C34 1_555 1_555
O10 C34 1_555 1_555
H25 O2 1_555 1_555
Zn7 O10 1_555 1_555
Zn9 O9 1_555 1_555
O16 Zn3 1_555 1_555
O17 Zn6 1_555 1_555
O6 C1 1_555 1_555
C6 C8 1_555 1_555
C33 C35 1_555 1_555
C2_2 H1_2 1_555 1_555
N1_2 C18_2 1_555 1_555
C4_2 C15_2 1_555 1_555
H6_2 C14_2 1_555 1_555
C15_2 C2_2 1_555 1_555
C16_2 C4_2 1_555 1_555
H7_2 C16_2 1_555 1_555
C17_2 C16_2 1_555 1_555
H8_2 C17_2 1_555 1_555
C18_2 C15_2 1_555 1_555
N2_2 C13_2 1_555 1_555
C20_2 C22_2 1_555 1_555
C21_2 H9_2 1_555 1_555
C22_2 C13_2 1_555 1_555
C23_2 C20_2 1_555 1_555
H10_2 C23_2 1_555 1_555
C24_2 C4_2 1_555 1_555
H11_2 C24_2 1_555 1_555
C25_2 C20_2 1_555 1_555
H12_2 C25_2 1_555 1_555
C26_2 C24_2 1_555 1_555
H13_2 C26_2 1_555 1_555
C27_2 C17_2 1_555 1_555
C28_2 C27_2 1_555 1_555
O7_2 C28_2 1_555 1_555
O8_2 C28_2 1_555 1_555
C40_2 C21_2 1_555 1_555
C41_2 C25_2 1_555 1_555
H20_2 C41_2 1_555 1_555
C42_2 C40_2 1_555 1_555
O13_2 C42_2 1_555 1_555
O14_2 C42_2 1_555 1_555
H21_2 N1_2 1_555 1_555
H22_2 N1_2 1_555 1_555
H23_2 N2_2 1_555 1_555
H24_2 N2_2 1_555 1_555
Zn5 O13_2 1_555 1_555
Zn7 O7_2 1_555 1_555
C14_2 C22_2 1_555 1_555
C21_2 C23_2 1_555 1_555
C26_2 C27_2 1_555 1_555
C40_2 C41_2 1_555 1_555
O4_2 H34_2 1_555 1_555
O4_2 H35_2 1_555 1_555
Zn5 O1_2 1_555 1_555
Zn7 O2_2 1_555 1_555
Zn9 O2_2 1_555 1_555
O1_2 C7_2 1_555 1_555
O2_2 Zn5 1_555 1_555
O3_2 Zn9 1_555 1_555
O5_2 Zn9 1_555 1_555
O6_2 Zn7 1_555 1_555
C1_2 O5_2 1_555 1_555
C3_2 C9_2 1_555 1_555
C5_2 H2_2 1_555 1_555
C6_2 H3_2 1_555 1_555
C7_2 O3_2 1_555 1_555
C8_2 C1_2 1_555 1_555
C9_2 H4_2 1_555 1_555
C10_2 C3_2 1_555 1_555
H5_2 C10_2 1_555 1_555
C11_2 C5_2 1_555 1_555
C12_2 C3_2 1_555 1_555
C19_2 C6_2 1_555 1_555
C29_2 C19_2 1_555 1_555
C30_2 C29_2 1_555 1_555
H14_2 C30_2 1_555 1_555
C31_2 C29_2 1_555 1_555
C32_2 C31_2 1_555 1_555
H16_2 C32_2 1_555 1_555
C36_2 C10_2 1_555 1_555
C37_2 C9_2 1_555 1_555
H19_2 C37_2 1_555 1_555
C38_2 C36_2 1_555 1_555
H25_2 O2_2 1_555 1_555
O6_2 C1_2 1_555 1_555
C5_2 C12_2 1_555 1_555
C6_2 C8_2 1_555 1_555
C7_2 C11_2 1_555 1_555
C37_2 C38_2 1_555 1_555
C34_2 C33_2 1_555 1_555
H17_2 C35_2 1_555 1_555
O16 C34_2 1_555 1_555
O17 C34_2 1_555 1_555
O18 C39_2 1_555 1_555
O19 C39_2 1_555 1_555
C33_2 C35_2 1_555 1_555
C34_3 C33_3 1_555 1_555
H17_3 C35_3 1_555 1_555
O9_2 C34_3 1_555 1_555
O10_2 C34_3 1_555 1_555
O11_2 C39_3 1_555 1_555
O12_2 C39_3 1_555 1_555
Zn5_2 O12_2 1_555 1_555
Zn7_2 O10_2 1_555 1_555
Zn9_2 O9_2 1_555 1_555
C33_3 C35_3 1_555 1_555
Zn1 O1_3 1_555 1_555
Zn2 O2_3 1_555 1_555
Zn3_2 O2_3 1_555 1_555
O1_3 C7_3 1_555 1_555
O2_3 Zn1 1_555 1_555
O3_3 Zn3_2 1_555 1_555
O5_3 Zn3_2 1_555 1_555
O6_3 Zn2 1_555 1_555
C1_3 O5_3 1_555 1_555
C3_3 C9_3 1_555 1_555
C5_3 H2_3 1_555 1_555
C6_3 H3_3 1_555 1_555
C7_3 O3_3 1_555 1_555
C8_3 C1_3 1_555 1_555
C9_3 H4_3 1_555 1_555
C10_3 C3_3 1_555 1_555
H5_3 C10_3 1_555 1_555
C11_3 C5_3 1_555 1_555
C12_3 C3_3 1_555 1_555
C19_3 C6_3 1_555 1_555
C29_3 C19_3 1_555 1_555
C30_3 C29_3 1_555 1_555
H14_3 C30_3 1_555 1_555
C31_3 C29_3 1_555 1_555
C32_3 C31_3 1_555 1_555
H16_3 C32_3 1_555 1_555
C36_3 C10_3 1_555 1_555
C37_3 C9_3 1_555 1_555
H19_3 C37_3 1_555 1_555
C38_3 C36_3 1_555 1_555
H25_3 O2_3 1_555 1_555
O15 Zn2 1_555 1_555
O16_2 Zn3_2 1_555 1_555
O17_2 Zn2 1_555 1_555
O18_2 Zn3_2 1_555 1_555
O19_2 Zn1 1_555 1_555
O20 Zn1 1_555 1_555
O6_3 C1_3 1_555 1_555
C5_3 C12_3 1_555 1_555
C6_3 C8_3 1_555 1_555
C7_3 C11_3 1_555 1_555
C37_3 C38_3 1_555 1_555
C2_3 H1_3 1_555 1_555
N1_3 C18_3 1_555 1_555
C4_3 C15_3 1_555 1_555
H6_3 C14_3 1_555 1_555
C15_3 C2_3 1_555 1_555
C16_3 C4_3 1_555 1_555
H7_3 C16_3 1_555 1_555
C17_3 C16_3 1_555 1_555
H8_3 C17_3 1_555 1_555
C18_3 C15_3 1_555 1_555
N2_3 C13_3 1_555 1_555
C20_3 C22_3 1_555 1_555
C21_3 H9_3 1_555 1_555
C22_3 C13_3 1_555 1_555
C23_3 C20_3 1_555 1_555
H10_3 C23_3 1_555 1_555
C24_3 C4_3 1_555 1_555
H11_3 C24_3 1_555 1_555
C25_3 C20_3 1_555 1_555
H12_3 C25_3 1_555 1_555
C26_3 C24_3 1_555 1_555
H13_3 C26_3 1_555 1_555
C27_3 C17_3 1_555 1_555
C28_3 C27_3 1_555 1_555
O15 C28_3 1_555 1_555
O8_3 C28_3 1_555 1_555
C40_3 C21_3 1_555 1_555
C41_3 C25_3 1_555 1_555
H20_3 C41_3 1_555 1_555
C42_3 C40_3 1_555 1_555
O20 C42_3 1_555 1_555
O14_3 C42_3 1_555 1_555
H21_3 N1_3 1_555 1_555
H22_3 N1_3 1_555 1_555
H23_3 N2_3 1_555 1_555
H24_3 N2_3 1_555 1_555
C14_3 C22_3 1_555 1_555
C21_3 C23_3 1_555 1_555
C26_3 C27_3 1_555 1_555
C40_3 C41_3 1_555 1_555
O4_3 H34_3 1_555 1_555
O4_3 H35_3 1_555 1_555
Zn7_2 O2_4 1_555 1_555
Zn9_2 O2_4 1_555 1_555
O5_4 Zn9_2 1_555 1_555
O6_4 Zn7_2 1_555 1_555
C1_4 O5_4 1_555 1_555
C6_4 H3_4 1_555 1_555
C8_4 C1_4 1_555 1_555
C19_4 C6_4 1_555 1_555
C29_4 C19_4 1_555 1_555
C30_4 C29_4 1_555 1_555
H14_4 C30_4 1_555 1_555
C31_4 C29_4 1_555 1_555
C32_4 C31_4 1_555 1_555
H16_4 C32_4 1_555 1_555
C33_4 C32_4 1_555 1_555
C34_4 C33_4 1_555 1_555
C35_4 C30_4 1_555 1_555
H17_4 C35_4 1_555 1_555
O16_2 C34_4 1_555 1_555
O17_2 C34_4 1_555 1_555
H25_4 O2_4 1_555 1_555
O15_2 Zn7_2 1_555 1_555
O6_4 C1_4 1_555 1_555
C6_4 C8_4 1_555 1_555
C33_4 C35_4 1_555 1_555
Zn5_2 O1_4 1_555 1_555
O1_4 C7_4 1_555 1_555
C3_4 C9_4 1_555 1_555
C5_4 H2_4 1_555 1_555
C7_4 O3_4 1_555 1_555
C9_4 H4_4 1_555 1_555
C10_4 C3_4 1_555 1_555
H5_4 C10_4 1_555 1_555
C11_4 C5_4 1_555 1_555
C12_4 C3_4 1_555 1_555
C36_4 C10_4 1_555 1_555
H18_4 C36_4 1_555 1_555
C37_4 C9_4 1_555 1_555
H19_4 C37_4 1_555 1_555
C38_4 C36_4 1_555 1_555
C39_4 C38_4 1_555 1_555
O18_2 C39_4 1_555 1_555
O19_2 C39_4 1_555 1_555
O20_2 Zn5_2 1_555 1_555
C5_4 C12_4 1_555 1_555
C7_4 C11_4 1_555 1_555
C37_4 C38_4 1_555 1_555
C2_4 H1_4 1_555 1_555
N1_4 C18_4 1_555 1_555
C4_4 C15_4 1_555 1_555
C15_4 C2_4 1_555 1_555
C16_4 C4_4 1_555 1_555
H7_4 C16_4 1_555 1_555
C17_4 C16_4 1_555 1_555
H8_4 C17_4 1_555 1_555
C18_4 C15_4 1_555 1_555
C24_4 C4_4 1_555 1_555
H11_4 C24_4 1_555 1_555
C26_4 C24_4 1_555 1_555
H13_4 C26_4 1_555 1_555
C27_4 C17_4 1_555 1_555
C28_4 C27_4 1_555 1_555
O15_2 C28_4 1_555 1_555
O8_4 C28_4 1_555 1_555
H21_4 N1_4 1_555 1_555
H22_4 N1_4 1_555 1_555
C26_4 C27_4 1_555 1_555
H6_4 C14_4 1_555 1_555
N2_4 C13_4 1_555 1_555
C20_4 C22_4 1_555 1_555
C21_4 H9_4 1_555 1_555
C22_4 C13_4 1_555 1_555
C23_4 C20_4 1_555 1_555
H10_4 C23_4 1_555 1_555
C25_4 C20_4 1_555 1_555
H12_4 C25_4 1_555 1_555
C40_4 C21_4 1_555 1_555
C41_4 C25_4 1_555 1_555
H20_4 C41_4 1_555 1_555
C42_4 C40_4 1_555 1_555
O20_2 C42_4 1_555 1_555
O14_4 C42_4 1_555 1_555
H23_4 N2_4 1_555 1_555
H24_4 N2_4 1_555 1_555
C14_4 C22_4 1_555 1_555
C21_4 C23_4 1_555 1_555
C40_4 C41_4 1_555 1_555
N3 H26 1_555 1_555
C43 N3 1_555 1_555
H29 C43 1_555 1_555
H30 C43 1_555 1_555
C44 N3 1_555 1_555
H31 C44 1_555 1_555
H32 C44 1_555 1_555
H33 C44 1_555 1_555
N3_2 H26_2 1_555 1_555
H27_2 N3_2 1_555 1_555
C43_2 N3_2 1_555 1_555
H28_2 C43_2 1_555 1_555
H29_2 C43_2 1_555 1_555
H30_2 C43_2 1_555 1_555
C44_2 N3_2 1_555 1_555
H31_2 C44_2 1_555 1_555
H32_2 C44_2 1_555 1_555
H33_2 C44_2 1_555 1_555
N3_3 H26_3 1_555 1_555
C43_3 N3_3 1_555 1_555
H29_3 C43_3 1_555 1_555
H30_3 C43_3 1_555 1_555
C44_3 N3_3 1_555 1_555
H31_3 C44_3 1_555 1_555
H32_3 C44_3 1_555 1_555
H33_3 C44_3 1_555 1_555
N3_4 H26_4 1_555 1_555
H27_4 N3_4 1_555 1_555
C43_4 N3_4 1_555 1_555
H28_4 C43_4 1_555 1_555
H29_4 C43_4 1_555 1_555
H30_4 C43_4 1_555 1_555
C44_4 N3_4 1_555 1_555
H31_4 C44_4 1_555 1_555
H32_4 C44_4 1_555 1_555
H33_4 C44_4 1_555 1_555

#END
