
###############################################################################
#
# This file contains modified crystal structure data generated from the
# MOF subset of the Cambridge Structural Database (CSD) v543 
# hosted by the Cambridge Crystallographic Data Centre (CCDC).
#
# This work is licensed under the Creative Commons
# Attribution-NonCommercial-ShareAlike 4.0 International License.
# To view a copy of this license, visit
# http://creativecommons.org/licenses/by-nc-sa/4.0/
# or send a letter to
# Creative Commons, PO Box 1866, Mountain View, CA 94042, USA.
#
# CIF created using the CSD Python API on 29 September 2022
# The structure has been converted into the P1 space group
# The structure has a 3D framework
# The original CSD entry SEHJAU is in the orthorhombic crystal system
# The framework has been calculated to contain at least 10.0% void space
# The void calculation uses a probe of radius 1.32A, grid spacing 0.4
# The framework is charged, counterions have been retained in the structure
#
###############################################################################

data_SEHJAU
_chemical_formula_moiety         '(C384 H192 N40 O64 Zn16 16-)n'
_symmetry_cell_setting           triclinic
_symmetry_space_group_name_H-M   'P 1'
_symmetry_Int_Tables_number      1
_space_group_name_Hall           'P 1'
loop_
_symmetry_equiv_pos_site_id
_symmetry_equiv_pos_as_xyz
1 x,y,z
_cell_length_a                   27.9510(8)
_cell_length_b                   17.9270(6)
_cell_length_c                   33.6687(7)
_cell_angle_alpha                90
_cell_angle_beta                 90
_cell_angle_gamma                90
_cell_volume                     16870.6
loop_
_atom_site_label
_atom_site_type_symbol
_atom_site_fract_x
_atom_site_fract_y
_atom_site_fract_z
Zn1 Zn 0.750000 0.500000 0.82271(2)
O1 O 0.70860(9) 0.43615(15) 0.78872(6)
O2 O 0.68175(13) 0.54505(18) 0.76828(9)
O3 O 0.70246(11) 0.4638(2) 0.36149(8)
N1 N 0.500000 0.250000 0.63310(10)
N2 N 0.55947(10) 0.31618(19) 0.57250(7)
N3 N 0.500000 0.250000 0.51236(10)
C1 C 0.68343(14) 0.4758(2) 0.76627(10)
C2 C 0.65375(13) 0.4371(2) 0.73542(9)
C3 C 0.65350(14) 0.3605(2) 0.73209(10)
H1 H 0.671419 0.331732 0.749605
C4 C 0.62658(14) 0.3261(2) 0.70267(10)
H2 H 0.626633 0.274390 0.700776
C5 C 0.59992(12) 0.3671(2) 0.67637(9)
C6 C 0.60019(14) 0.4436(2) 0.67972(10)
H3 H 0.582538 0.472086 0.661900
C7 C 0.62631(15) 0.4787(2) 0.70919(11)
H4 H 0.625457 0.530368 0.711415
C8 C 0.51906(14) 0.2728(2) 0.69816(10)
H5 H 0.534607 0.291744 0.720413
C9 C 0.53140(12) 0.2871(2) 0.65733(9)
C10 C 0.57004(12) 0.3308(2) 0.64473(9)
C11 C 0.58303(13) 0.3434(2) 0.60521(10)
C12 C 0.62462(14) 0.3838(3) 0.59247(10)
H6 H 0.646133 0.408939 0.608739
C13 C 0.62677(14) 0.3785(2) 0.55264(10)
H7 H 0.650380 0.398221 0.536256
C14 C 0.58576(13) 0.3367(2) 0.54031(9)
C15 C 0.57472(12) 0.3197(2) 0.50049(9)
C16 C 0.53399(14) 0.2809(2) 0.48816(9)
C17 C 0.52070(15) 0.2682(2) 0.44702(10)
H8 H 0.537988 0.282950 0.424755
C18 C 0.60911(13) 0.3432(2) 0.46920(9)
C19 C 0.67257(16) 0.3818(3) 0.40892(11)
C20 C 0.7085(2) 0.4035(4) 0.37609(14)
C21 C 0.6044(4) 0.4133(4) 0.4521(3)
H9 H 0.581175 0.446935 0.460369
C22 C 0.6369(3) 0.4305(6) 0.4213(4)
H10 H 0.634373 0.476550 0.408842
C23 C 0.6780(4) 0.3147(5) 0.4273(3)
H11 H 0.702877 0.282679 0.420701
C24 C 0.6449(3) 0.2961(6) 0.4563(3)
H12 H 0.647021 0.249026 0.467817
O4 O 0.7488(3) 0.3661(5) 0.3738(3)
Zn2 Zn 0.500000 0.250000 0.57279(2)
O5 O 0.29140(9) 0.06385(15) 0.78872(6)
O7 O 0.29754(11) 0.0362(2) 0.36149(8)
N4 N 0.44053(10) 0.18382(19) 0.57250(7)
C25 C 0.31657(14) 0.0242(2) 0.76627(10)
C26 C 0.34625(13) 0.0629(2) 0.73542(9)
C27 C 0.34650(14) 0.1395(2) 0.73209(10)
H13 H 0.328581 0.168268 0.749605
C28 C 0.37342(14) 0.1739(2) 0.70267(10)
H14 H 0.373367 0.225610 0.700776
C29 C 0.40008(12) 0.1329(2) 0.67637(9)
C30 C 0.39981(14) 0.0564(2) 0.67972(10)
H15 H 0.417462 0.027914 0.661900
C31 C 0.37369(15) 0.0213(2) 0.70919(11)
C32 C 0.48094(14) 0.2272(2) 0.69816(10)
H17 H 0.465393 0.208256 0.720413
C33 C 0.46860(12) 0.2129(2) 0.65733(9)
C34 C 0.42996(12) 0.1692(2) 0.64473(9)
C35 C 0.41697(13) 0.1566(2) 0.60521(10)
C36 C 0.37538(14) 0.1162(3) 0.59247(10)
H18 H 0.353867 0.091061 0.608739
C37 C 0.37323(14) 0.1215(2) 0.55264(10)
H19 H 0.349620 0.101779 0.536256
C38 C 0.41424(13) 0.1633(2) 0.54031(9)
C39 C 0.42528(12) 0.1803(2) 0.50049(9)
C40 C 0.46601(14) 0.2191(2) 0.48816(9)
C41 C 0.47930(15) 0.2318(2) 0.44702(10)
H20 H 0.462012 0.217050 0.424755
C42 C 0.39089(13) 0.1568(2) 0.46920(9)
C43 C 0.32743(16) 0.1182(3) 0.40892(11)
C44 C 0.2915(2) 0.0965(4) 0.37609(14)
C45 C 0.3956(4) 0.0867(4) 0.4521(3)
H21 H 0.418825 0.053065 0.460369
C46 C 0.3631(3) 0.0695(6) 0.4213(4)
H22 H 0.365627 0.023450 0.408842
C47 C 0.3220(4) 0.1853(5) 0.4273(3)
H23 H 0.297123 0.217321 0.420701
C48 C 0.3551(3) 0.2039(6) 0.4563(3)
H24 H 0.352979 0.250974 0.467817
O8 O 0.2512(3) 0.1339(5) 0.3738(3)
Zn3 Zn 0.250000 0.000000 0.82271(2)
Zn4 Zn 0.750000 0.500000 0.32271(2)
Zn5 Zn 0.250000 0.000000 0.32271(2)
O9 O 0.79140(9) 0.56385(15) 0.78872(6)
O10 O 0.70246(11) 0.5362(2) 0.86149(8)
O11 O 0.79754(11) 0.4638(2) 0.86149(8)
O6 O 0.31825(13) 0.95495(18) 0.76828(9)
H16 H 0.374543 0.969632 0.711415
Zn3_2 Zn 0.250000 1.000000 0.82271(2)
Zn5_2 Zn 0.250000 1.000000 0.32271(2)
O6_2 O 0.18175(13) 0.04505(18) 0.76828(9)
H16_2 H 0.125457 0.030368 0.711415
N1_2 N -0.000000 0.750000 0.63310(10)
N3_2 N -0.000000 0.750000 0.51236(10)
Zn2_2 Zn -0.000000 0.750000 0.57279(2)
O5_2 O 0.20860(9) 0.93615(15) 0.78872(6)
O7_2 O 0.20246(11) 0.9638(2) 0.36149(8)
N4_2 N 0.05947(10) 0.81618(19) 0.57250(7)
C25_2 C 0.18343(14) 0.9758(2) 0.76627(10)
C26_2 C 0.15375(13) 0.9371(2) 0.73542(9)
C27_2 C 0.15350(14) 0.8605(2) 0.73209(10)
H13_2 H 0.171419 0.831732 0.749605
C28_2 C 0.12658(14) 0.8261(2) 0.70267(10)
H14_2 H 0.126633 0.774390 0.700776
C29_2 C 0.09992(12) 0.8671(2) 0.67637(9)
C30_2 C 0.10019(14) 0.9436(2) 0.67972(10)
H15_2 H 0.082538 0.972086 0.661900
C31_2 C 0.12631(15) 0.9787(2) 0.70919(11)
C32_2 C 0.01906(14) 0.7728(2) 0.69816(10)
H17_2 H 0.034607 0.791744 0.720413
C33_2 C 0.03140(12) 0.7871(2) 0.65733(9)
C34_2 C 0.07004(12) 0.8308(2) 0.64473(9)
C35_2 C 0.08303(13) 0.8434(2) 0.60521(10)
C36_2 C 0.12462(14) 0.8838(3) 0.59247(10)
H18_2 H 0.146133 0.908939 0.608739
C37_2 C 0.12677(14) 0.8785(2) 0.55264(10)
H19_2 H 0.150380 0.898221 0.536256
C38_2 C 0.08576(13) 0.8367(2) 0.54031(9)
C39_2 C 0.07472(12) 0.8197(2) 0.50049(9)
C40_2 C 0.03399(14) 0.7809(2) 0.48816(9)
C41_2 C 0.02070(15) 0.7682(2) 0.44702(10)
H20_2 H 0.037988 0.782950 0.424755
C42_2 C 0.10911(13) 0.8432(2) 0.46920(9)
C43_2 C 0.17257(16) 0.8818(3) 0.40892(11)
C44_2 C 0.2085(2) 0.9035(4) 0.37609(14)
C45_2 C 0.1044(4) 0.9133(4) 0.4521(3)
H21_2 H 0.081175 0.946935 0.460369
C46_2 C 0.1369(3) 0.9305(6) 0.4213(4)
H22_2 H 0.134373 0.976550 0.408842
C47_2 C 0.1780(4) 0.8147(5) 0.4273(3)
H23_2 H 0.202877 0.782679 0.420701
C48_2 C 0.1449(3) 0.7961(6) 0.4563(3)
H24_2 H 0.147021 0.749026 0.467817
O8_2 O 0.2488(3) 0.8661(5) 0.3738(3)
O2_2 O 0.81825(13) 0.45495(18) 0.76828(9)
O3_2 O 0.79754(11) 0.5362(2) 0.36149(8)
N1_3 N 1.000000 0.750000 0.63310(10)
N2_2 N 0.94053(10) 0.68382(19) 0.57250(7)
N3_3 N 1.000000 0.750000 0.51236(10)
C1_2 C 0.81657(14) 0.5242(2) 0.76627(10)
C2_2 C 0.84625(13) 0.5629(2) 0.73542(9)
C3_2 C 0.84650(14) 0.6395(2) 0.73209(10)
H1_2 H 0.828581 0.668268 0.749605
C4_2 C 0.87342(14) 0.6739(2) 0.70267(10)
H2_2 H 0.873367 0.725610 0.700776
C5_2 C 0.90008(12) 0.6329(2) 0.67637(9)
C6_2 C 0.89981(14) 0.5564(2) 0.67972(10)
H3_2 H 0.917462 0.527914 0.661900
C7_2 C 0.87369(15) 0.5213(2) 0.70919(11)
H4_2 H 0.874543 0.469632 0.711415
C8_2 C 0.98094(14) 0.7272(2) 0.69816(10)
H5_2 H 0.965393 0.708256 0.720413
C9_2 C 0.96860(12) 0.7129(2) 0.65733(9)
C10_2 C 0.92996(12) 0.6692(2) 0.64473(9)
C11_2 C 0.91697(13) 0.6566(2) 0.60521(10)
C12_2 C 0.87538(14) 0.6162(3) 0.59247(10)
H6_2 H 0.853867 0.591061 0.608739
C13_2 C 0.87323(14) 0.6215(2) 0.55264(10)
H7_2 H 0.849620 0.601779 0.536256
C14_2 C 0.91424(13) 0.6633(2) 0.54031(9)
C15_2 C 0.92528(12) 0.6803(2) 0.50049(9)
C16_2 C 0.96601(14) 0.7191(2) 0.48816(9)
C17_2 C 0.97930(15) 0.7318(2) 0.44702(10)
H8_2 H 0.962012 0.717050 0.424755
C18_2 C 0.89089(13) 0.6568(2) 0.46920(9)
C19_2 C 0.82743(16) 0.6182(3) 0.40892(11)
C20_2 C 0.7915(2) 0.5965(4) 0.37609(14)
C21_2 C 0.8956(4) 0.5867(4) 0.4521(3)
H9_2 H 0.918825 0.553065 0.460369
C22_2 C 0.8631(3) 0.5695(6) 0.4213(4)
H10_2 H 0.865627 0.523450 0.408842
C23_2 C 0.8220(4) 0.6853(5) 0.4273(3)
H11_2 H 0.797123 0.717321 0.420701
C24_2 C 0.8551(3) 0.7039(6) 0.4563(3)
H12_2 H 0.852979 0.750974 0.467817
O4_2 O 0.7512(3) 0.6339(5) 0.3738(3)
Zn2_3 Zn 1.000000 0.750000 0.57279(2)
O10_2 O 0.20246(11) 0.0362(2) 0.86149(8)
O11_2 O 0.29754(11) 0.9638(2) 0.86149(8)
O6_3 O 0.31825(13) 0.04505(18) 0.26828(9)
H16_3 H 0.374543 0.030368 0.211415
O1_2 O 0.70860(9) 0.56385(15) 0.28872(6)
O2_3 O 0.68175(13) 0.45495(18) 0.26828(9)
N1_4 N 0.500000 0.750000 0.13310(10)
N2_3 N 0.55947(10) 0.68382(19) 0.07250(7)
N3_4 N 0.500000 0.750000 0.01236(10)
C1_3 C 0.68343(14) 0.5242(2) 0.26627(10)
C2_3 C 0.65375(13) 0.5629(2) 0.23542(9)
C3_3 C 0.65350(14) 0.6395(2) 0.23209(10)
H1_3 H 0.671419 0.668268 0.249605
C4_3 C 0.62658(14) 0.6739(2) 0.20267(10)
H2_3 H 0.626633 0.725610 0.200776
C5_3 C 0.59992(12) 0.6329(2) 0.17637(9)
C6_3 C 0.60019(14) 0.5564(2) 0.17972(10)
H3_3 H 0.582538 0.527914 0.161900
C7_3 C 0.62631(15) 0.5213(2) 0.20919(11)
H4_3 H 0.625457 0.469632 0.211415
C8_3 C 0.51906(14) 0.7272(2) 0.19816(10)
H5_3 H 0.534607 0.708256 0.220413
C9_3 C 0.53140(12) 0.7129(2) 0.15733(9)
C10_3 C 0.57004(12) 0.6692(2) 0.14473(9)
C11_3 C 0.58303(13) 0.6566(2) 0.10521(10)
C12_3 C 0.62462(14) 0.6162(3) 0.09247(10)
H6_3 H 0.646133 0.591061 0.108739
C13_3 C 0.62677(14) 0.6215(2) 0.05264(10)
H7_3 H 0.650380 0.601779 0.036256
C14_3 C 0.58576(13) 0.6633(2) 0.04031(9)
C15_3 C 0.57472(12) 0.6803(2) 0.00049(9)
Zn2_4 Zn 0.500000 0.750000 0.07279(2)
O5_3 O 0.29140(9) 0.93615(15) 0.28872(6)
N4_3 N 0.44053(10) 0.81618(19) 0.07250(7)
C25_3 C 0.31657(14) 0.9758(2) 0.26627(10)
C26_3 C 0.34625(13) 0.9371(2) 0.23542(9)
C27_3 C 0.34650(14) 0.8605(2) 0.23209(10)
H13_3 H 0.328581 0.831732 0.249605
C28_3 C 0.37342(14) 0.8261(2) 0.20267(10)
H14_3 H 0.373367 0.774390 0.200776
C29_3 C 0.40008(12) 0.8671(2) 0.17637(9)
C30_3 C 0.39981(14) 0.9436(2) 0.17972(10)
H15_3 H 0.417462 0.972086 0.161900
C31_3 C 0.37369(15) 0.9787(2) 0.20919(11)
C32_3 C 0.48094(14) 0.7728(2) 0.19816(10)
H17_3 H 0.465393 0.791744 0.220413
C33_3 C 0.46860(12) 0.7871(2) 0.15733(9)
C34_3 C 0.42996(12) 0.8308(2) 0.14473(9)
C35_3 C 0.41697(13) 0.8434(2) 0.10521(10)
C36_3 C 0.37538(14) 0.8838(3) 0.09247(10)
H18_3 H 0.353867 0.908939 0.108739
C37_3 C 0.37323(14) 0.8785(2) 0.05264(10)
H19_3 H 0.349620 0.898221 0.036256
C38_3 C 0.41424(13) 0.8367(2) 0.04031(9)
C39_3 C 0.42528(12) 0.8197(2) 0.00049(9)
O9_2 O 0.79140(9) 0.43615(15) 0.28872(6)
C16_3 C 0.53399(14) 0.7191(2) 0.98816(9)
C17_3 C 0.52070(15) 0.7318(2) 0.94702(10)
H8_3 H 0.537988 0.717050 0.924755
C18_3 C 0.60911(13) 0.6568(2) 0.96920(9)
C19_3 C 0.67257(16) 0.6182(3) 0.90892(11)
C20_3 C 0.7085(2) 0.5965(4) 0.87609(14)
C21_3 C 0.6044(4) 0.5867(4) 0.9521(3)
H9_3 H 0.581175 0.553065 0.960369
C22_3 C 0.6369(3) 0.5695(6) 0.9213(4)
H10_3 H 0.634373 0.523450 0.908842
C23_3 C 0.6780(4) 0.6853(5) 0.9273(3)
H11_3 H 0.702877 0.717321 0.920701
C24_3 C 0.6449(3) 0.7039(6) 0.9563(3)
H12_3 H 0.647021 0.750974 0.967817
O4_3 O 0.7488(3) 0.6339(5) 0.8738(3)
C40_3 C 0.46601(14) 0.7809(2) 0.98816(9)
C41_3 C 0.47930(15) 0.7682(2) 0.94702(10)
H20_3 H 0.462012 0.782950 0.924755
C42_3 C 0.39089(13) 0.8432(2) 0.96920(9)
C43_3 C 0.32743(16) 0.8818(3) 0.90892(11)
C44_3 C 0.2915(2) 0.9035(4) 0.87609(14)
C45_3 C 0.3956(4) 0.9133(4) 0.9521(3)
H21_3 H 0.418825 0.946935 0.960369
C46_3 C 0.3631(3) 0.9305(6) 0.9213(4)
H22_3 H 0.365627 0.976550 0.908842
C47_3 C 0.3220(4) 0.8147(5) 0.9273(3)
H23_3 H 0.297123 0.782679 0.920701
C48_3 C 0.3551(3) 0.7961(6) 0.9563(3)
H24_3 H 0.352979 0.749026 0.967817
O8_3 O 0.2512(3) 0.8661(5) 0.8738(3)
N1_5 N -0.000000 0.250000 0.13310(10)
N3_5 N -0.000000 0.250000 0.01236(10)
Zn2_5 Zn -0.000000 0.250000 0.07279(2)
O5_4 O 0.20860(9) 0.06385(15) 0.28872(6)
N4_4 N 0.05947(10) 0.18382(19) 0.07250(7)
C25_4 C 0.18343(14) 0.0242(2) 0.26627(10)
C26_4 C 0.15375(13) 0.0629(2) 0.23542(9)
C27_4 C 0.15350(14) 0.1395(2) 0.23209(10)
H13_4 H 0.171419 0.168268 0.249605
C28_4 C 0.12658(14) 0.1739(2) 0.20267(10)
H14_4 H 0.126633 0.225610 0.200776
C29_4 C 0.09992(12) 0.1329(2) 0.17637(9)
C30_4 C 0.10019(14) 0.0564(2) 0.17972(10)
H15_4 H 0.082538 0.027914 0.161900
C31_4 C 0.12631(15) 0.0213(2) 0.20919(11)
C32_4 C 0.01906(14) 0.2272(2) 0.19816(10)
H17_4 H 0.034607 0.208256 0.220413
C33_4 C 0.03140(12) 0.2129(2) 0.15733(9)
C34_4 C 0.07004(12) 0.1692(2) 0.14473(9)
C35_4 C 0.08303(13) 0.1566(2) 0.10521(10)
C36_4 C 0.12462(14) 0.1162(3) 0.09247(10)
H18_4 H 0.146133 0.091061 0.108739
C37_4 C 0.12677(14) 0.1215(2) 0.05264(10)
H19_4 H 0.150380 0.101779 0.036256
C38_4 C 0.08576(13) 0.1633(2) 0.04031(9)
C39_4 C 0.07472(12) 0.1803(2) 0.00049(9)
C40_4 C 0.03399(14) 0.2191(2) 0.98816(9)
C41_4 C 0.02070(15) 0.2318(2) 0.94702(10)
H20_4 H 0.037988 0.217050 0.924755
C42_4 C 0.10911(13) 0.1568(2) 0.96920(9)
C43_4 C 0.17257(16) 0.1182(3) 0.90892(11)
C44_4 C 0.2085(2) 0.0965(4) 0.87609(14)
C45_4 C 0.1044(4) 0.0867(4) 0.9521(3)
H21_4 H 0.081175 0.053065 0.960369
C46_4 C 0.1369(3) 0.0695(6) 0.9213(4)
H22_4 H 0.134373 0.023450 0.908842
C47_4 C 0.1780(4) 0.1853(5) 0.9273(3)
H23_4 H 0.202877 0.217321 0.920701
C48_4 C 0.1449(3) 0.2039(6) 0.9563(3)
H24_4 H 0.147021 0.250974 0.967817
O8_4 O 0.2488(3) 0.1339(5) 0.8738(3)
O6_4 O 0.18175(13) 0.95495(18) 0.26828(9)
H16_4 H 0.125457 0.969632 0.211415
O2_4 O 0.81825(13) 0.54505(18) 0.26828(9)
N1_6 N 1.000000 0.250000 0.13310(10)
N2_4 N 0.94053(10) 0.31618(19) 0.07250(7)
N3_6 N 1.000000 0.250000 0.01236(10)
C1_4 C 0.81657(14) 0.4758(2) 0.26627(10)
C2_4 C 0.84625(13) 0.4371(2) 0.23542(9)
C3_4 C 0.84650(14) 0.3605(2) 0.23209(10)
H1_4 H 0.828581 0.331732 0.249605
C4_4 C 0.87342(14) 0.3261(2) 0.20267(10)
H2_4 H 0.873367 0.274390 0.200776
C5_4 C 0.90008(12) 0.3671(2) 0.17637(9)
C6_4 C 0.89981(14) 0.4436(2) 0.17972(10)
H3_4 H 0.917462 0.472086 0.161900
C7_4 C 0.87369(15) 0.4787(2) 0.20919(11)
H4_4 H 0.874543 0.530368 0.211415
C8_4 C 0.98094(14) 0.2728(2) 0.19816(10)
H5_4 H 0.965393 0.291744 0.220413
C9_4 C 0.96860(12) 0.2871(2) 0.15733(9)
C10_4 C 0.92996(12) 0.3308(2) 0.14473(9)
C11_4 C 0.91697(13) 0.3434(2) 0.10521(10)
C12_4 C 0.87538(14) 0.3838(3) 0.09247(10)
H6_4 H 0.853867 0.408939 0.108739
C13_4 C 0.87323(14) 0.3785(2) 0.05264(10)
H7_4 H 0.849620 0.398221 0.036256
C14_4 C 0.91424(13) 0.3367(2) 0.04031(9)
C15_4 C 0.92528(12) 0.3197(2) 0.00049(9)
Zn2_6 Zn 1.000000 0.250000 0.07279(2)
C16_4 C 0.96601(14) 0.2809(2) 0.98816(9)
C17_4 C 0.97930(15) 0.2682(2) 0.94702(10)
H8_4 H 0.962012 0.282950 0.924755
C18_4 C 0.89089(13) 0.3432(2) 0.96920(9)
C19_4 C 0.82743(16) 0.3818(3) 0.90892(11)
C20_4 C 0.7915(2) 0.4035(4) 0.87609(14)
C21_4 C 0.8956(4) 0.4133(4) 0.9521(3)
H9_4 H 0.918825 0.446935 0.960369
C22_4 C 0.8631(3) 0.4305(6) 0.9213(4)
H10_4 H 0.865627 0.476550 0.908842
C23_4 C 0.8220(4) 0.3147(5) 0.9273(3)
H11_4 H 0.797123 0.282679 0.920701
C24_4 C 0.8551(3) 0.2961(6) 0.9563(3)
H12_4 H 0.852979 0.249026 0.967817
O4_4 O 0.7512(3) 0.3661(5) 0.8738(3)
O3_3 O 0.29754(11) 0.4638(2) 0.13851(8)
C16_5 C 0.46601(14) 0.2809(2) 0.01184(9)
C17_5 C 0.47930(15) 0.2682(2) 0.05298(10)
H8_5 H 0.462012 0.282950 0.075245
C18_5 C 0.39089(13) 0.3432(2) 0.03080(9)
C19_5 C 0.32743(16) 0.3818(3) 0.09108(11)
C20_5 C 0.2915(2) 0.4035(4) 0.12391(14)
C21_5 C 0.3956(4) 0.4133(4) 0.0479(3)
H9_5 H 0.418825 0.446935 0.039631
C22_5 C 0.3631(3) 0.4305(6) 0.0787(4)
H10_5 H 0.365627 0.476550 0.091158
C23_5 C 0.3220(4) 0.3147(5) 0.0727(3)
H11_5 H 0.297123 0.282679 0.079299
C24_5 C 0.3551(3) 0.2961(6) 0.0437(3)
H12_5 H 0.352979 0.249026 0.032183
O4_5 O 0.2512(3) 0.3661(5) 0.1262(3)
O7_3 O 0.70246(11) 0.0362(2) 0.13851(8)
C40_5 C 0.53399(14) 0.2191(2) 0.01184(9)
C41_5 C 0.52070(15) 0.2318(2) 0.05298(10)
H20_5 H 0.537988 0.217050 0.075245
C42_5 C 0.60911(13) 0.1568(2) 0.03080(9)
C43_5 C 0.67257(16) 0.1182(3) 0.09108(11)
C44_5 C 0.7085(2) 0.0965(4) 0.12391(14)
C45_5 C 0.6044(4) 0.0867(4) 0.0479(3)
H21_5 H 0.581175 0.053065 0.039631
C46_5 C 0.6369(3) 0.0695(6) 0.0787(4)
H22_5 H 0.634373 0.023450 0.091158
C47_5 C 0.6780(4) 0.1853(5) 0.0727(3)
H23_5 H 0.702877 0.217321 0.079299
C48_5 C 0.6449(3) 0.2039(6) 0.0437(3)
H24_5 H 0.647021 0.250974 0.032183
O8_5 O 0.7488(3) 0.1339(5) 0.1262(3)
Zn4_2 Zn 0.250000 0.500000 0.17729(2)
Zn5_3 Zn 0.750000 0.000000 0.17729(2)
Zn1_2 Zn 0.250000 0.500000 0.67729(2)
O1_3 O 0.29140(9) 0.43615(15) 0.71128(6)
O2_5 O 0.31825(13) 0.54505(18) 0.73172(9)
N1_7 N 0.500000 0.250000 0.86690(10)
N2_5 N 0.44053(10) 0.31618(19) 0.92750(7)
N3_7 N 0.500000 0.250000 0.98764(10)
C1_5 C 0.31657(14) 0.4758(2) 0.73373(10)
C2_5 C 0.34625(13) 0.4371(2) 0.76458(9)
C3_5 C 0.34650(14) 0.3605(2) 0.76791(10)
H1_5 H 0.328581 0.331732 0.750395
C4_5 C 0.37342(14) 0.3261(2) 0.79733(10)
H2_5 H 0.373367 0.274390 0.799224
C5_5 C 0.40008(12) 0.3671(2) 0.82363(9)
C6_5 C 0.39981(14) 0.4436(2) 0.82028(10)
H3_5 H 0.417462 0.472086 0.838100
C7_5 C 0.37369(15) 0.4787(2) 0.79081(11)
H4_5 H 0.374543 0.530368 0.788585
C8_5 C 0.48094(14) 0.2728(2) 0.80184(10)
H5_5 H 0.465393 0.291744 0.779587
C9_5 C 0.46860(12) 0.2871(2) 0.84267(9)
C10_5 C 0.42996(12) 0.3308(2) 0.85527(9)
C11_5 C 0.41697(13) 0.3434(2) 0.89479(10)
C12_5 C 0.37538(14) 0.3838(3) 0.90753(10)
H6_5 H 0.353867 0.408939 0.891261
C13_5 C 0.37323(14) 0.3785(2) 0.94736(10)
H7_5 H 0.349620 0.398221 0.963744
C14_5 C 0.41424(13) 0.3367(2) 0.95969(9)
C15_5 C 0.42528(12) 0.3197(2) 0.99951(9)
Zn2_7 Zn 0.500000 0.250000 0.92721(2)
O5_5 O 0.70860(9) 0.06385(15) 0.71128(6)
N4_5 N 0.55947(10) 0.18382(19) 0.92750(7)
C25_5 C 0.68343(14) 0.0242(2) 0.73373(10)
C26_5 C 0.65375(13) 0.0629(2) 0.76458(9)
C27_5 C 0.65350(14) 0.1395(2) 0.76791(10)
H13_5 H 0.671419 0.168268 0.750395
C28_5 C 0.62658(14) 0.1739(2) 0.79733(10)
H14_5 H 0.626633 0.225610 0.799224
C29_5 C 0.59992(12) 0.1329(2) 0.82363(9)
C30_5 C 0.60019(14) 0.0564(2) 0.82028(10)
H15_5 H 0.582538 0.027914 0.838100
C31_5 C 0.62631(15) 0.0213(2) 0.79081(11)
C32_5 C 0.51906(14) 0.2272(2) 0.80184(10)
H17_5 H 0.534607 0.208256 0.779587
C33_5 C 0.53140(12) 0.2129(2) 0.84267(9)
C34_5 C 0.57004(12) 0.1692(2) 0.85527(9)
C35_5 C 0.58303(13) 0.1566(2) 0.89479(10)
C36_5 C 0.62462(14) 0.1162(3) 0.90753(10)
H18_5 H 0.646133 0.091061 0.891261
C37_5 C 0.62677(14) 0.1215(2) 0.94736(10)
H19_5 H 0.650380 0.101779 0.963744
C38_5 C 0.58576(13) 0.1633(2) 0.95969(9)
C39_5 C 0.57472(12) 0.1803(2) 0.99951(9)
Zn3_3 Zn 0.750000 0.000000 0.67729(2)
O9_3 O 0.20860(9) 0.56385(15) 0.71128(6)
O10_3 O 0.29754(11) 0.5362(2) 0.63851(8)
O11_3 O 0.20246(11) 0.4638(2) 0.63851(8)
Zn5_4 Zn 0.750000 1.000000 0.17729(2)
O6_5 O 0.68175(13) 0.95495(18) 0.73172(9)
H16_5 H 0.625457 0.969632 0.788585
Zn3_4 Zn 0.750000 1.000000 0.67729(2)
O3_4 O 0.20246(11) 0.5362(2) 0.13851(8)
C16_6 C 0.03399(14) 0.7191(2) 0.01184(9)
C17_6 C 0.02070(15) 0.7318(2) 0.05298(10)
H8_6 H 0.037988 0.717050 0.075245
C18_6 C 0.10911(13) 0.6568(2) 0.03080(9)
C19_6 C 0.17257(16) 0.6182(3) 0.09108(11)
C20_6 C 0.2085(2) 0.5965(4) 0.12391(14)
C21_6 C 0.1044(4) 0.5867(4) 0.0479(3)
H9_6 H 0.081175 0.553065 0.039631
C22_6 C 0.1369(3) 0.5695(6) 0.0787(4)
H10_6 H 0.134373 0.523450 0.091158
C23_6 C 0.1780(4) 0.6853(5) 0.0727(3)
H11_6 H 0.202877 0.717321 0.079299
C24_6 C 0.1449(3) 0.7039(6) 0.0437(3)
H12_6 H 0.147021 0.750974 0.032183
O4_6 O 0.2488(3) 0.6339(5) 0.1262(3)
O2_6 O 0.18175(13) 0.45495(18) 0.73172(9)
N1_8 N 0.000000 0.750000 0.86690(10)
N2_6 N 0.05947(10) 0.68382(19) 0.92750(7)
N3_8 N 0.000000 0.750000 0.98764(10)
C1_6 C 0.18343(14) 0.5242(2) 0.73373(10)
C2_6 C 0.15375(13) 0.5629(2) 0.76458(9)
C3_6 C 0.15350(14) 0.6395(2) 0.76791(10)
H1_6 H 0.171419 0.668268 0.750395
C4_6 C 0.12658(14) 0.6739(2) 0.79733(10)
H2_6 H 0.126633 0.725610 0.799224
C5_6 C 0.09992(12) 0.6329(2) 0.82363(9)
C6_6 C 0.10019(14) 0.5564(2) 0.82028(10)
H3_6 H 0.082538 0.527914 0.838100
C7_6 C 0.12631(15) 0.5213(2) 0.79081(11)
H4_6 H 0.125457 0.469632 0.788585
C8_6 C 0.01906(14) 0.7272(2) 0.80184(10)
H5_6 H 0.034607 0.708256 0.779587
C9_6 C 0.03140(12) 0.7129(2) 0.84267(9)
C10_6 C 0.07004(12) 0.6692(2) 0.85527(9)
C11_6 C 0.08303(13) 0.6566(2) 0.89479(10)
C12_6 C 0.12462(14) 0.6162(3) 0.90753(10)
H6_6 H 0.146133 0.591061 0.891261
C13_6 C 0.12677(14) 0.6215(2) 0.94736(10)
H7_6 H 0.150380 0.601779 0.963744
C14_6 C 0.08576(13) 0.6633(2) 0.95969(9)
C15_6 C 0.07472(12) 0.6803(2) 0.99951(9)
Zn2_8 Zn 0.000000 0.750000 0.92721(2)
O6_6 O 0.81825(13) 0.04505(18) 0.73172(9)
H16_6 H 0.874543 0.030368 0.788585
O7_4 O 0.79754(11) 0.9638(2) 0.13851(8)
C40_6 C 0.96601(14) 0.7809(2) 0.01184(9)
C41_6 C 0.97930(15) 0.7682(2) 0.05298(10)
H20_6 H 0.962012 0.782950 0.075245
C42_6 C 0.89089(13) 0.8432(2) 0.03080(9)
C43_6 C 0.82743(16) 0.8818(3) 0.09108(11)
C44_6 C 0.7915(2) 0.9035(4) 0.12391(14)
C45_6 C 0.8956(4) 0.9133(4) 0.0479(3)
H21_6 H 0.918825 0.946935 0.039631
C46_6 C 0.8631(3) 0.9305(6) 0.0787(4)
H22_6 H 0.865627 0.976550 0.091158
C47_6 C 0.8220(4) 0.8147(5) 0.0727(3)
H23_6 H 0.797123 0.782679 0.079299
C48_6 C 0.8551(3) 0.7961(6) 0.0437(3)
H24_6 H 0.852979 0.749026 0.032183
O8_6 O 0.7512(3) 0.8661(5) 0.1262(3)
N1_9 N 1.000000 0.750000 0.86690(10)
N3_9 N 1.000000 0.750000 0.98764(10)
Zn2_9 Zn 1.000000 0.750000 0.92721(2)
O5_6 O 0.79140(9) 0.93615(15) 0.71128(6)
N4_6 N 0.94053(10) 0.81618(19) 0.92750(7)
C25_6 C 0.81657(14) 0.9758(2) 0.73373(10)
C26_6 C 0.84625(13) 0.9371(2) 0.76458(9)
C27_6 C 0.84650(14) 0.8605(2) 0.76791(10)
H13_6 H 0.828581 0.831732 0.750395
C28_6 C 0.87342(14) 0.8261(2) 0.79733(10)
H14_6 H 0.873367 0.774390 0.799224
C29_6 C 0.90008(12) 0.8671(2) 0.82363(9)
C30_6 C 0.89981(14) 0.9436(2) 0.82028(10)
H15_6 H 0.917462 0.972086 0.838100
C31_6 C 0.87369(15) 0.9787(2) 0.79081(11)
C32_6 C 0.98094(14) 0.7728(2) 0.80184(10)
H17_6 H 0.965393 0.791744 0.779587
C33_6 C 0.96860(12) 0.7871(2) 0.84267(9)
C34_6 C 0.92996(12) 0.8308(2) 0.85527(9)
C35_6 C 0.91697(13) 0.8434(2) 0.89479(10)
C36_6 C 0.87538(14) 0.8838(3) 0.90753(10)
H18_6 H 0.853867 0.908939 0.891261
C37_6 C 0.87323(14) 0.8785(2) 0.94736(10)
H19_6 H 0.849620 0.898221 0.963744
C38_6 C 0.91424(13) 0.8367(2) 0.95969(9)
C39_6 C 0.92528(12) 0.8197(2) 0.99951(9)
O10_4 O 0.79754(11) 0.0362(2) 0.63851(8)
O11_4 O 0.70246(11) 0.9638(2) 0.63851(8)
O6_7 O 0.68175(13) 0.04505(18) 0.23172(9)
H16_7 H 0.625457 0.030368 0.288585
O1_4 O 0.29140(9) 0.56385(15) 0.21128(6)
O2_7 O 0.31825(13) 0.45495(18) 0.23172(9)
N1_10 N 0.500000 0.750000 0.36690(10)
N2_7 N 0.44053(10) 0.68382(19) 0.42750(7)
N3_10 N 0.500000 0.750000 0.48764(10)
C1_7 C 0.31657(14) 0.5242(2) 0.23373(10)
C2_7 C 0.34625(13) 0.5629(2) 0.26458(9)
C3_7 C 0.34650(14) 0.6395(2) 0.26791(10)
H1_7 H 0.328581 0.668268 0.250395
C4_7 C 0.37342(14) 0.6739(2) 0.29733(10)
H2_7 H 0.373367 0.725610 0.299224
C5_7 C 0.40008(12) 0.6329(2) 0.32363(9)
C6_7 C 0.39981(14) 0.5564(2) 0.32028(10)
H3_7 H 0.417462 0.527914 0.338100
C7_7 C 0.37369(15) 0.5213(2) 0.29081(11)
H4_7 H 0.374543 0.469632 0.288585
C8_7 C 0.48094(14) 0.7272(2) 0.30184(10)
H5_7 H 0.465393 0.708256 0.279587
C9_7 C 0.46860(12) 0.7129(2) 0.34267(9)
C10_7 C 0.42996(12) 0.6692(2) 0.35527(9)
C11_7 C 0.41697(13) 0.6566(2) 0.39479(10)
C12_7 C 0.37538(14) 0.6162(3) 0.40753(10)
H6_7 H 0.353867 0.591061 0.391261
C13_7 C 0.37323(14) 0.6215(2) 0.44736(10)
H7_7 H 0.349620 0.601779 0.463744
C14_7 C 0.41424(13) 0.6633(2) 0.45969(9)
C15_7 C 0.42528(12) 0.6803(2) 0.49951(9)
C16_7 C 0.46601(14) 0.7191(2) 0.51184(9)
C17_7 C 0.47930(15) 0.7318(2) 0.55298(10)
H8_7 H 0.462012 0.717050 0.575245
C18_7 C 0.39089(13) 0.6568(2) 0.53080(9)
C19_7 C 0.32743(16) 0.6182(3) 0.59108(11)
C20_7 C 0.2915(2) 0.5965(4) 0.62391(14)
C21_7 C 0.3956(4) 0.5867(4) 0.5479(3)
H9_7 H 0.418825 0.553065 0.539631
C22_7 C 0.3631(3) 0.5695(6) 0.5787(4)
H10_7 H 0.365627 0.523450 0.591158
C23_7 C 0.3220(4) 0.6853(5) 0.5727(3)
H11_7 H 0.297123 0.717321 0.579299
C24_7 C 0.3551(3) 0.7039(6) 0.5437(3)
H12_7 H 0.352979 0.750974 0.532183
O4_7 O 0.2512(3) 0.6339(5) 0.6262(3)
Zn2_10 Zn 0.500000 0.750000 0.42721(2)
O5_7 O 0.70860(9) 0.93615(15) 0.21128(6)
N4_7 N 0.55947(10) 0.81618(19) 0.42750(7)
C25_7 C 0.68343(14) 0.9758(2) 0.23373(10)
C26_7 C 0.65375(13) 0.9371(2) 0.26458(9)
C27_7 C 0.65350(14) 0.8605(2) 0.26791(10)
H13_7 H 0.671419 0.831732 0.250395
C28_7 C 0.62658(14) 0.8261(2) 0.29733(10)
H14_7 H 0.626633 0.774390 0.299224
C29_7 C 0.59992(12) 0.8671(2) 0.32363(9)
C30_7 C 0.60019(14) 0.9436(2) 0.32028(10)
H15_7 H 0.582538 0.972086 0.338100
C31_7 C 0.62631(15) 0.9787(2) 0.29081(11)
C32_7 C 0.51906(14) 0.7728(2) 0.30184(10)
H17_7 H 0.534607 0.791744 0.279587
C33_7 C 0.53140(12) 0.7871(2) 0.34267(9)
C34_7 C 0.57004(12) 0.8308(2) 0.35527(9)
C35_7 C 0.58303(13) 0.8434(2) 0.39479(10)
C36_7 C 0.62462(14) 0.8838(3) 0.40753(10)
H18_7 H 0.646133 0.908939 0.391261
C37_7 C 0.62677(14) 0.8785(2) 0.44736(10)
H19_7 H 0.650380 0.898221 0.463744
C38_7 C 0.58576(13) 0.8367(2) 0.45969(9)
C39_7 C 0.57472(12) 0.8197(2) 0.49951(9)
C40_7 C 0.53399(14) 0.7809(2) 0.51184(9)
C41_7 C 0.52070(15) 0.7682(2) 0.55298(10)
H20_7 H 0.537988 0.782950 0.575245
C42_7 C 0.60911(13) 0.8432(2) 0.53080(9)
C43_7 C 0.67257(16) 0.8818(3) 0.59108(11)
C44_7 C 0.7085(2) 0.9035(4) 0.62391(14)
C45_7 C 0.6044(4) 0.9133(4) 0.5479(3)
H21_7 H 0.581175 0.946935 0.539631
C46_7 C 0.6369(3) 0.9305(6) 0.5787(4)
H22_7 H 0.634373 0.976550 0.591158
C47_7 C 0.6780(4) 0.8147(5) 0.5727(3)
H23_7 H 0.702877 0.782679 0.579299
C48_7 C 0.6449(3) 0.7961(6) 0.5437(3)
H24_7 H 0.647021 0.749026 0.532183
O8_7 O 0.7488(3) 0.8661(5) 0.6262(3)
O9_4 O 0.20860(9) 0.43615(15) 0.21128(6)
O2_8 O 0.18175(13) 0.54505(18) 0.23172(9)
N1_11 N 0.000000 0.250000 0.36690(10)
N2_8 N 0.05947(10) 0.31618(19) 0.42750(7)
N3_11 N 0.000000 0.250000 0.48764(10)
C1_8 C 0.18343(14) 0.4758(2) 0.23373(10)
C2_8 C 0.15375(13) 0.4371(2) 0.26458(9)
C3_8 C 0.15350(14) 0.3605(2) 0.26791(10)
H1_8 H 0.171419 0.331732 0.250395
C4_8 C 0.12658(14) 0.3261(2) 0.29733(10)
H2_8 H 0.126633 0.274390 0.299224
C5_8 C 0.09992(12) 0.3671(2) 0.32363(9)
C6_8 C 0.10019(14) 0.4436(2) 0.32028(10)
H3_8 H 0.082538 0.472086 0.338100
C7_8 C 0.12631(15) 0.4787(2) 0.29081(11)
H4_8 H 0.125457 0.530368 0.288585
C8_8 C 0.01906(14) 0.2728(2) 0.30184(10)
H5_8 H 0.034607 0.291744 0.279587
C9_8 C 0.03140(12) 0.2871(2) 0.34267(9)
C10_8 C 0.07004(12) 0.3308(2) 0.35527(9)
C11_8 C 0.08303(13) 0.3434(2) 0.39479(10)
C12_8 C 0.12462(14) 0.3838(3) 0.40753(10)
H6_8 H 0.146133 0.408939 0.391261
C13_8 C 0.12677(14) 0.3785(2) 0.44736(10)
H7_8 H 0.150380 0.398221 0.463744
C14_8 C 0.08576(13) 0.3367(2) 0.45969(9)
C15_8 C 0.07472(12) 0.3197(2) 0.49951(9)
C16_8 C 0.03399(14) 0.2809(2) 0.51184(9)
C17_8 C 0.02070(15) 0.2682(2) 0.55298(10)
H8_8 H 0.037988 0.282950 0.575245
C18_8 C 0.10911(13) 0.3432(2) 0.53080(9)
C19_8 C 0.17257(16) 0.3818(3) 0.59108(11)
C20_8 C 0.2085(2) 0.4035(4) 0.62391(14)
C21_8 C 0.1044(4) 0.4133(4) 0.5479(3)
H9_8 H 0.081175 0.446935 0.539631
C22_8 C 0.1369(3) 0.4305(6) 0.5787(4)
H10_8 H 0.134373 0.476550 0.591158
C23_8 C 0.1780(4) 0.3147(5) 0.5727(3)
H11_8 H 0.202877 0.282679 0.579299
C24_8 C 0.1449(3) 0.2961(6) 0.5437(3)
H12_8 H 0.147021 0.249026 0.532183
O4_8 O 0.2488(3) 0.3661(5) 0.6262(3)
Zn2_11 Zn 0.000000 0.250000 0.42721(2)
N1_12 N 1.000000 0.250000 0.36690(10)
N3_12 N 1.000000 0.250000 0.48764(10)
Zn2_12 Zn 1.000000 0.250000 0.42721(2)
O5_8 O 0.79140(9) 0.06385(15) 0.21128(6)
N4_8 N 0.94053(10) 0.18382(19) 0.42750(7)
C25_8 C 0.81657(14) 0.0242(2) 0.23373(10)
C26_8 C 0.84625(13) 0.0629(2) 0.26458(9)
C27_8 C 0.84650(14) 0.1395(2) 0.26791(10)
H13_8 H 0.828581 0.168268 0.250395
C28_8 C 0.87342(14) 0.1739(2) 0.29733(10)
H14_8 H 0.873367 0.225610 0.299224
C29_8 C 0.90008(12) 0.1329(2) 0.32363(9)
C30_8 C 0.89981(14) 0.0564(2) 0.32028(10)
H15_8 H 0.917462 0.027914 0.338100
C31_8 C 0.87369(15) 0.0213(2) 0.29081(11)
C32_8 C 0.98094(14) 0.2272(2) 0.30184(10)
H17_8 H 0.965393 0.208256 0.279587
C33_8 C 0.96860(12) 0.2129(2) 0.34267(9)
C34_8 C 0.92996(12) 0.1692(2) 0.35527(9)
C35_8 C 0.91697(13) 0.1566(2) 0.39479(10)
C36_8 C 0.87538(14) 0.1162(3) 0.40753(10)
H18_8 H 0.853867 0.091061 0.391261
C37_8 C 0.87323(14) 0.1215(2) 0.44736(10)
H19_8 H 0.849620 0.101779 0.463744
C38_8 C 0.91424(13) 0.1633(2) 0.45969(9)
C39_8 C 0.92528(12) 0.1803(2) 0.49951(9)
C40_8 C 0.96601(14) 0.2191(2) 0.51184(9)
C41_8 C 0.97930(15) 0.2318(2) 0.55298(10)
H20_8 H 0.962012 0.217050 0.575245
C42_8 C 0.89089(13) 0.1568(2) 0.53080(9)
C43_8 C 0.82743(16) 0.1182(3) 0.59108(11)
C44_8 C 0.7915(2) 0.0965(4) 0.62391(14)
C45_8 C 0.8956(4) 0.0867(4) 0.5479(3)
H21_8 H 0.918825 0.053065 0.539631
C46_8 C 0.8631(3) 0.0695(6) 0.5787(4)
H22_8 H 0.865627 0.023450 0.591158
C47_8 C 0.8220(4) 0.1853(5) 0.5727(3)
H23_8 H 0.797123 0.217321 0.579299
C48_8 C 0.8551(3) 0.2039(6) 0.5437(3)
H24_8 H 0.852979 0.250974 0.532183
O8_8 O 0.7512(3) 0.1339(5) 0.6262(3)
O6_8 O 0.81825(13) 0.95495(18) 0.23172(9)
H16_8 H 0.874543 0.969632 0.288585
loop_
_geom_bond_atom_site_label_1
_geom_bond_atom_site_label_2
_geom_bond_site_symmetry_1
_geom_bond_site_symmetry_2
Zn1 O1 1_555 1_555
O1 C1 1_555 1_555
O2 C1 1_555 1_555
O3 C20 1_555 1_555
N1 C9 1_555 1_555
N2 C11 1_555 1_555
N3 C16 1_555 1_555
C1 C2 1_555 1_555
C2 C3 1_555 1_555
C3 H1 1_555 1_555
C4 C3 1_555 1_555
H2 C4 1_555 1_555
C5 C4 1_555 1_555
C6 C5 1_555 1_555
H3 C6 1_555 1_555
C7 C2 1_555 1_555
H4 C7 1_555 1_555
C8 H5 1_555 1_555
C9 C8 1_555 1_555
C10 C5 1_555 1_555
C11 C10 1_555 1_555
C12 C11 1_555 1_555
H6 C12 1_555 1_555
C13 C12 1_555 1_555
H7 C13 1_555 1_555
C14 N2 1_555 1_555
C15 C14 1_555 1_555
C16 C15 1_555 1_555
C17 C16 1_555 1_555
H8 C17 1_555 1_555
C18 C15 1_555 1_555
C19 C20 1_555 1_555
C20 O4 1_555 1_555
C21 C18 1_555 1_555
H9 C21 1_555 1_555
C22 C19 1_555 1_555
H10 C22 1_555 1_555
C23 C19 1_555 1_555
H11 C23 1_555 1_555
C24 C18 1_555 1_555
H12 C24 1_555 1_555
Zn2 N1 1_555 1_555
O5 C25 1_555 1_555
O7 C44 1_555 1_555
N4 Zn2 1_555 1_555
C25 C26 1_555 1_555
C26 C27 1_555 1_555
C27 H13 1_555 1_555
C28 C27 1_555 1_555
H14 C28 1_555 1_555
C29 C28 1_555 1_555
C30 C29 1_555 1_555
H15 C30 1_555 1_555
C31 C26 1_555 1_555
C32 C8 1_555 1_555
H17 C32 1_555 1_555
C33 N1 1_555 1_555
C34 C29 1_555 1_555
C35 N4 1_555 1_555
C36 C35 1_555 1_555
H18 C36 1_555 1_555
C37 C36 1_555 1_555
H19 C37 1_555 1_555
C38 N4 1_555 1_555
C39 C38 1_555 1_555
C40 N3 1_555 1_555
C41 C17 1_555 1_555
H20 C41 1_555 1_555
C42 C39 1_555 1_555
C43 C44 1_555 1_555
C44 O8 1_555 1_555
C45 C42 1_555 1_555
H21 C45 1_555 1_555
C46 C43 1_555 1_555
H22 C46 1_555 1_555
C47 C43 1_555 1_555
H23 C47 1_555 1_555
C48 C42 1_555 1_555
H24 C48 1_555 1_555
Zn3 O5 1_555 1_555
Zn4 O3 1_555 1_555
Zn5 O7 1_555 1_555
O9 Zn1 1_555 1_555
O10 Zn1 1_555 1_555
O11 Zn1 1_555 1_555
N2 Zn2 1_555 1_555
N3 Zn2 1_555 1_555
C6 C7 1_555 1_555
C9 C10 1_555 1_555
C13 C14 1_555 1_555
C21 C22 1_555 1_555
C23 C24 1_555 1_555
C30 C31 1_555 1_555
C32 C33 1_555 1_555
C33 C34 1_555 1_555
C34 C35 1_555 1_555
C37 C38 1_555 1_555
C39 C40 1_555 1_555
C40 C41 1_555 1_555
C45 C46 1_555 1_555
C47 C48 1_555 1_555
Zn2_2 N1_2 1_555 1_555
O5_2 C25_2 1_555 1_555
O7_2 C44_2 1_555 1_555
N4_2 Zn2_2 1_555 1_555
C25_2 C26_2 1_555 1_555
C26_2 C27_2 1_555 1_555
C27_2 H13_2 1_555 1_555
C28_2 C27_2 1_555 1_555
H14_2 C28_2 1_555 1_555
C29_2 C28_2 1_555 1_555
C30_2 C29_2 1_555 1_555
H15_2 C30_2 1_555 1_555
C31_2 C26_2 1_555 1_555
H17_2 C32_2 1_555 1_555
C33_2 N1_2 1_555 1_555
C34_2 C29_2 1_555 1_555
C35_2 N4_2 1_555 1_555
C36_2 C35_2 1_555 1_555
H18_2 C36_2 1_555 1_555
C37_2 C36_2 1_555 1_555
H19_2 C37_2 1_555 1_555
C38_2 N4_2 1_555 1_555
C39_2 C38_2 1_555 1_555
C40_2 N3_2 1_555 1_555
H20_2 C41_2 1_555 1_555
C42_2 C39_2 1_555 1_555
C43_2 C44_2 1_555 1_555
C44_2 O8_2 1_555 1_555
C45_2 C42_2 1_555 1_555
H21_2 C45_2 1_555 1_555
C46_2 C43_2 1_555 1_555
H22_2 C46_2 1_555 1_555
C47_2 C43_2 1_555 1_555
H23_2 C47_2 1_555 1_555
C48_2 C42_2 1_555 1_555
H24_2 C48_2 1_555 1_555
Zn3_2 O5_2 1_555 1_555
Zn5_2 O7_2 1_555 1_555
N3_2 Zn2_2 1_555 1_555
C30_2 C31_2 1_555 1_555
C32_2 C33_2 1_555 1_555
C33_2 C34_2 1_555 1_555
C34_2 C35_2 1_555 1_555
C37_2 C38_2 1_555 1_555
C39_2 C40_2 1_555 1_555
C40_2 C41_2 1_555 1_555
C45_2 C46_2 1_555 1_555
C47_2 C48_2 1_555 1_555
O9 C1_2 1_555 1_555
O2_2 C1_2 1_555 1_555
O3_2 C20_2 1_555 1_555
N1_3 C9_2 1_555 1_555
N2_2 C11_2 1_555 1_555
N3_3 C16_2 1_555 1_555
C1_2 C2_2 1_555 1_555
C2_2 C3_2 1_555 1_555
C3_2 H1_2 1_555 1_555
C4_2 C3_2 1_555 1_555
H2_2 C4_2 1_555 1_555
C5_2 C4_2 1_555 1_555
C6_2 C5_2 1_555 1_555
H3_2 C6_2 1_555 1_555
C7_2 C2_2 1_555 1_555
H4_2 C7_2 1_555 1_555
C8_2 H5_2 1_555 1_555
C9_2 C8_2 1_555 1_555
C10_2 C5_2 1_555 1_555
C11_2 C10_2 1_555 1_555
C12_2 C11_2 1_555 1_555
H6_2 C12_2 1_555 1_555
C13_2 C12_2 1_555 1_555
H7_2 C13_2 1_555 1_555
C14_2 N2_2 1_555 1_555
C15_2 C14_2 1_555 1_555
C16_2 C15_2 1_555 1_555
C17_2 C16_2 1_555 1_555
H8_2 C17_2 1_555 1_555
C18_2 C15_2 1_555 1_555
C19_2 C20_2 1_555 1_555
C20_2 O4_2 1_555 1_555
C21_2 C18_2 1_555 1_555
H9_2 C21_2 1_555 1_555
C22_2 C19_2 1_555 1_555
H10_2 C22_2 1_555 1_555
C23_2 C19_2 1_555 1_555
H11_2 C23_2 1_555 1_555
C24_2 C18_2 1_555 1_555
H12_2 C24_2 1_555 1_555
Zn2_3 N1_3 1_555 1_555
Zn4 O3_2 1_555 1_555
N2_2 Zn2_3 1_555 1_555
N3_3 Zn2_3 1_555 1_555
C6_2 C7_2 1_555 1_555
C9_2 C10_2 1_555 1_555
C13_2 C14_2 1_555 1_555
C21_2 C22_2 1_555 1_555
C23_2 C24_2 1_555 1_555
O10_2 Zn3 1_555 1_555
O11_2 Zn3_2 1_555 1_555
Zn4 O1_2 1_555 1_555
O1_2 C1_3 1_555 1_555
O2_3 C1_3 1_555 1_555
N1_4 C9_3 1_555 1_555
N2_3 C11_3 1_555 1_555
C1_3 C2_3 1_555 1_555
C2_3 C3_3 1_555 1_555
C3_3 H1_3 1_555 1_555
C4_3 C3_3 1_555 1_555
H2_3 C4_3 1_555 1_555
C5_3 C4_3 1_555 1_555
C6_3 C5_3 1_555 1_555
H3_3 C6_3 1_555 1_555
C7_3 C2_3 1_555 1_555
H4_3 C7_3 1_555 1_555
C8_3 H5_3 1_555 1_555
C9_3 C8_3 1_555 1_555
C10_3 C5_3 1_555 1_555
C11_3 C10_3 1_555 1_555
C12_3 C11_3 1_555 1_555
H6_3 C12_3 1_555 1_555
C13_3 C12_3 1_555 1_555
H7_3 C13_3 1_555 1_555
C14_3 N2_3 1_555 1_555
C15_3 C14_3 1_555 1_555
Zn2_4 N1_4 1_555 1_555
O5_3 C25_3 1_555 1_555
N4_3 Zn2_4 1_555 1_555
C25_3 C26_3 1_555 1_555
C26_3 C27_3 1_555 1_555
C27_3 H13_3 1_555 1_555
C28_3 C27_3 1_555 1_555
H14_3 C28_3 1_555 1_555
C29_3 C28_3 1_555 1_555
C30_3 C29_3 1_555 1_555
H15_3 C30_3 1_555 1_555
C31_3 C26_3 1_555 1_555
C32_3 C8_3 1_555 1_555
H17_3 C32_3 1_555 1_555
C33_3 N1_4 1_555 1_555
C34_3 C29_3 1_555 1_555
C35_3 N4_3 1_555 1_555
C36_3 C35_3 1_555 1_555
H18_3 C36_3 1_555 1_555
C37_3 C36_3 1_555 1_555
H19_3 C37_3 1_555 1_555
C38_3 N4_3 1_555 1_555
C39_3 C38_3 1_555 1_555
Zn5_2 O5_3 1_555 1_555
O9_2 Zn4 1_555 1_555
N2_3 Zn2_4 1_555 1_555
N3_4 Zn2_4 1_555 1_555
C6_3 C7_3 1_555 1_555
C9_3 C10_3 1_555 1_555
C13_3 C14_3 1_555 1_555
C30_3 C31_3 1_555 1_555
C32_3 C33_3 1_555 1_555
C33_3 C34_3 1_555 1_555
C34_3 C35_3 1_555 1_555
C37_3 C38_3 1_555 1_555
O10 C20_3 1_555 1_555
C17_3 C16_3 1_555 1_555
H8_3 C17_3 1_555 1_555
C19_3 C20_3 1_555 1_555
C20_3 O4_3 1_555 1_555
C21_3 C18_3 1_555 1_555
H9_3 C21_3 1_555 1_555
C22_3 C19_3 1_555 1_555
H10_3 C22_3 1_555 1_555
C23_3 C19_3 1_555 1_555
H11_3 C23_3 1_555 1_555
C24_3 C18_3 1_555 1_555
H12_3 C24_3 1_555 1_555
O11_2 C44_3 1_555 1_555
C41_3 C17_3 1_555 1_555
H20_3 C41_3 1_555 1_555
C43_3 C44_3 1_555 1_555
C44_3 O8_3 1_555 1_555
C45_3 C42_3 1_555 1_555
H21_3 C45_3 1_555 1_555
C46_3 C43_3 1_555 1_555
H22_3 C46_3 1_555 1_555
C47_3 C43_3 1_555 1_555
H23_3 C47_3 1_555 1_555
C48_3 C42_3 1_555 1_555
H24_3 C48_3 1_555 1_555
C21_3 C22_3 1_555 1_555
C23_3 C24_3 1_555 1_555
C40_3 C41_3 1_555 1_555
C45_3 C46_3 1_555 1_555
C47_3 C48_3 1_555 1_555
Zn2_5 N1_5 1_555 1_555
O5_4 C25_4 1_555 1_555
N4_4 Zn2_5 1_555 1_555
C25_4 C26_4 1_555 1_555
C26_4 C27_4 1_555 1_555
C27_4 H13_4 1_555 1_555
C28_4 C27_4 1_555 1_555
H14_4 C28_4 1_555 1_555
C29_4 C28_4 1_555 1_555
C30_4 C29_4 1_555 1_555
H15_4 C30_4 1_555 1_555
C31_4 C26_4 1_555 1_555
H17_4 C32_4 1_555 1_555
C33_4 N1_5 1_555 1_555
C34_4 C29_4 1_555 1_555
C35_4 N4_4 1_555 1_555
C36_4 C35_4 1_555 1_555
H18_4 C36_4 1_555 1_555
C37_4 C36_4 1_555 1_555
H19_4 C37_4 1_555 1_555
C38_4 N4_4 1_555 1_555
C39_4 C38_4 1_555 1_555
Zn5 O5_4 1_555 1_555
N3_5 Zn2_5 1_555 1_555
C30_4 C31_4 1_555 1_555
C32_4 C33_4 1_555 1_555
C33_4 C34_4 1_555 1_555
C34_4 C35_4 1_555 1_555
C37_4 C38_4 1_555 1_555
O10_2 C44_4 1_555 1_555
H20_4 C41_4 1_555 1_555
C43_4 C44_4 1_555 1_555
C44_4 O8_4 1_555 1_555
C45_4 C42_4 1_555 1_555
H21_4 C45_4 1_555 1_555
C46_4 C43_4 1_555 1_555
H22_4 C46_4 1_555 1_555
C47_4 C43_4 1_555 1_555
H23_4 C47_4 1_555 1_555
C48_4 C42_4 1_555 1_555
H24_4 C48_4 1_555 1_555
C40_4 C41_4 1_555 1_555
C45_4 C46_4 1_555 1_555
C47_4 C48_4 1_555 1_555
O9_2 C1_4 1_555 1_555
O2_4 C1_4 1_555 1_555
N1_6 C9_4 1_555 1_555
N2_4 C11_4 1_555 1_555
C1_4 C2_4 1_555 1_555
C2_4 C3_4 1_555 1_555
C3_4 H1_4 1_555 1_555
C4_4 C3_4 1_555 1_555
H2_4 C4_4 1_555 1_555
C5_4 C4_4 1_555 1_555
C6_4 C5_4 1_555 1_555
H3_4 C6_4 1_555 1_555
C7_4 C2_4 1_555 1_555
H4_4 C7_4 1_555 1_555
C8_4 H5_4 1_555 1_555
C9_4 C8_4 1_555 1_555
C10_4 C5_4 1_555 1_555
C11_4 C10_4 1_555 1_555
C12_4 C11_4 1_555 1_555
H6_4 C12_4 1_555 1_555
C13_4 C12_4 1_555 1_555
H7_4 C13_4 1_555 1_555
C14_4 N2_4 1_555 1_555
C15_4 C14_4 1_555 1_555
Zn2_6 N1_6 1_555 1_555
N2_4 Zn2_6 1_555 1_555
N3_6 Zn2_6 1_555 1_555
C6_4 C7_4 1_555 1_555
C9_4 C10_4 1_555 1_555
C13_4 C14_4 1_555 1_555
O11 C20_4 1_555 1_555
C17_4 C16_4 1_555 1_555
H8_4 C17_4 1_555 1_555
C19_4 C20_4 1_555 1_555
C20_4 O4_4 1_555 1_555
C21_4 C18_4 1_555 1_555
H9_4 C21_4 1_555 1_555
C22_4 C19_4 1_555 1_555
H10_4 C22_4 1_555 1_555
C23_4 C19_4 1_555 1_555
H11_4 C23_4 1_555 1_555
C24_4 C18_4 1_555 1_555
H12_4 C24_4 1_555 1_555
C21_4 C22_4 1_555 1_555
C23_4 C24_4 1_555 1_555
O3_3 C20_5 1_555 1_555
C17_5 C16_5 1_555 1_555
H8_5 C17_5 1_555 1_555
C19_5 C20_5 1_555 1_555
C20_5 O4_5 1_555 1_555
C21_5 C18_5 1_555 1_555
H9_5 C21_5 1_555 1_555
C22_5 C19_5 1_555 1_555
H10_5 C22_5 1_555 1_555
C23_5 C19_5 1_555 1_555
H11_5 C23_5 1_555 1_555
C24_5 C18_5 1_555 1_555
H12_5 C24_5 1_555 1_555
O7_3 C44_5 1_555 1_555
C41_5 C17_5 1_555 1_555
H20_5 C41_5 1_555 1_555
C43_5 C44_5 1_555 1_555
C44_5 O8_5 1_555 1_555
C45_5 C42_5 1_555 1_555
H21_5 C45_5 1_555 1_555
C46_5 C43_5 1_555 1_555
H22_5 C46_5 1_555 1_555
C47_5 C43_5 1_555 1_555
H23_5 C47_5 1_555 1_555
C48_5 C42_5 1_555 1_555
H24_5 C48_5 1_555 1_555
Zn4_2 O3_3 1_555 1_555
Zn5_3 O7_3 1_555 1_555
C21_5 C22_5 1_555 1_555
C23_5 C24_5 1_555 1_555
C40_5 C41_5 1_555 1_555
C45_5 C46_5 1_555 1_555
C47_5 C48_5 1_555 1_555
Zn1_2 O1_3 1_555 1_555
O1_3 C1_5 1_555 1_555
O2_5 C1_5 1_555 1_555
N1_7 C9_5 1_555 1_555
N2_5 C11_5 1_555 1_555
C1_5 C2_5 1_555 1_555
C2_5 C3_5 1_555 1_555
C3_5 H1_5 1_555 1_555
C4_5 C3_5 1_555 1_555
H2_5 C4_5 1_555 1_555
C5_5 C4_5 1_555 1_555
C6_5 C5_5 1_555 1_555
H3_5 C6_5 1_555 1_555
C7_5 C2_5 1_555 1_555
H4_5 C7_5 1_555 1_555
C8_5 H5_5 1_555 1_555
C9_5 C8_5 1_555 1_555
C10_5 C5_5 1_555 1_555
C11_5 C10_5 1_555 1_555
C12_5 C11_5 1_555 1_555
H6_5 C12_5 1_555 1_555
C13_5 C12_5 1_555 1_555
H7_5 C13_5 1_555 1_555
C14_5 N2_5 1_555 1_555
C15_5 C14_5 1_555 1_555
Zn2_7 N1_7 1_555 1_555
O5_5 C25_5 1_555 1_555
N4_5 Zn2_7 1_555 1_555
C25_5 C26_5 1_555 1_555
C26_5 C27_5 1_555 1_555
C27_5 H13_5 1_555 1_555
C28_5 C27_5 1_555 1_555
H14_5 C28_5 1_555 1_555
C29_5 C28_5 1_555 1_555
C30_5 C29_5 1_555 1_555
H15_5 C30_5 1_555 1_555
C31_5 C26_5 1_555 1_555
C32_5 C8_5 1_555 1_555
H17_5 C32_5 1_555 1_555
C33_5 N1_7 1_555 1_555
C34_5 C29_5 1_555 1_555
C35_5 N4_5 1_555 1_555
C36_5 C35_5 1_555 1_555
H18_5 C36_5 1_555 1_555
C37_5 C36_5 1_555 1_555
H19_5 C37_5 1_555 1_555
C38_5 N4_5 1_555 1_555
C39_5 C38_5 1_555 1_555
Zn3_3 O5_5 1_555 1_555
O9_3 Zn1_2 1_555 1_555
O10_3 Zn1_2 1_555 1_555
O11_3 Zn1_2 1_555 1_555
N2_5 Zn2_7 1_555 1_555
N3_7 Zn2_7 1_555 1_555
C6_5 C7_5 1_555 1_555
C9_5 C10_5 1_555 1_555
C13_5 C14_5 1_555 1_555
C30_5 C31_5 1_555 1_555
C32_5 C33_5 1_555 1_555
C33_5 C34_5 1_555 1_555
C34_5 C35_5 1_555 1_555
C37_5 C38_5 1_555 1_555
O3_4 C20_6 1_555 1_555
C17_6 C16_6 1_555 1_555
H8_6 C17_6 1_555 1_555
C19_6 C20_6 1_555 1_555
C20_6 O4_6 1_555 1_555
C21_6 C18_6 1_555 1_555
H9_6 C21_6 1_555 1_555
C22_6 C19_6 1_555 1_555
H10_6 C22_6 1_555 1_555
C23_6 C19_6 1_555 1_555
H11_6 C23_6 1_555 1_555
C24_6 C18_6 1_555 1_555
H12_6 C24_6 1_555 1_555
Zn4_2 O3_4 1_555 1_555
C21_6 C22_6 1_555 1_555
C23_6 C24_6 1_555 1_555
O9_3 C1_6 1_555 1_555
O2_6 C1_6 1_555 1_555
N1_8 C9_6 1_555 1_555
N2_6 C11_6 1_555 1_555
C1_6 C2_6 1_555 1_555
C2_6 C3_6 1_555 1_555
C3_6 H1_6 1_555 1_555
C4_6 C3_6 1_555 1_555
H2_6 C4_6 1_555 1_555
C5_6 C4_6 1_555 1_555
C6_6 C5_6 1_555 1_555
H3_6 C6_6 1_555 1_555
C7_6 C2_6 1_555 1_555
H4_6 C7_6 1_555 1_555
C8_6 H5_6 1_555 1_555
C9_6 C8_6 1_555 1_555
C10_6 C5_6 1_555 1_555
C11_6 C10_6 1_555 1_555
C12_6 C11_6 1_555 1_555
H6_6 C12_6 1_555 1_555
C13_6 C12_6 1_555 1_555
H7_6 C13_6 1_555 1_555
C14_6 N2_6 1_555 1_555
C15_6 C14_6 1_555 1_555
Zn2_8 N1_8 1_555 1_555
N2_6 Zn2_8 1_555 1_555
N3_8 Zn2_8 1_555 1_555
C6_6 C7_6 1_555 1_555
C9_6 C10_6 1_555 1_555
C13_6 C14_6 1_555 1_555
O7_4 C44_6 1_555 1_555
H20_6 C41_6 1_555 1_555
C43_6 C44_6 1_555 1_555
C44_6 O8_6 1_555 1_555
C45_6 C42_6 1_555 1_555
H21_6 C45_6 1_555 1_555
C46_6 C43_6 1_555 1_555
H22_6 C46_6 1_555 1_555
C47_6 C43_6 1_555 1_555
H23_6 C47_6 1_555 1_555
C48_6 C42_6 1_555 1_555
H24_6 C48_6 1_555 1_555
Zn5_4 O7_4 1_555 1_555
C40_6 C41_6 1_555 1_555
C45_6 C46_6 1_555 1_555
C47_6 C48_6 1_555 1_555
Zn2_9 N1_9 1_555 1_555
O5_6 C25_6 1_555 1_555
N4_6 Zn2_9 1_555 1_555
C25_6 C26_6 1_555 1_555
C26_6 C27_6 1_555 1_555
C27_6 H13_6 1_555 1_555
C28_6 C27_6 1_555 1_555
H14_6 C28_6 1_555 1_555
C29_6 C28_6 1_555 1_555
C30_6 C29_6 1_555 1_555
H15_6 C30_6 1_555 1_555
C31_6 C26_6 1_555 1_555
H17_6 C32_6 1_555 1_555
C33_6 N1_9 1_555 1_555
C34_6 C29_6 1_555 1_555
C35_6 N4_6 1_555 1_555
C36_6 C35_6 1_555 1_555
H18_6 C36_6 1_555 1_555
C37_6 C36_6 1_555 1_555
H19_6 C37_6 1_555 1_555
C38_6 N4_6 1_555 1_555
C39_6 C38_6 1_555 1_555
Zn3_4 O5_6 1_555 1_555
N3_9 Zn2_9 1_555 1_555
C30_6 C31_6 1_555 1_555
C32_6 C33_6 1_555 1_555
C33_6 C34_6 1_555 1_555
C34_6 C35_6 1_555 1_555
C37_6 C38_6 1_555 1_555
O10_4 Zn3_3 1_555 1_555
O11_4 Zn3_4 1_555 1_555
Zn4_2 O1_4 1_555 1_555
O1_4 C1_7 1_555 1_555
O2_7 C1_7 1_555 1_555
O10_3 C20_7 1_555 1_555
N1_10 C9_7 1_555 1_555
N2_7 C11_7 1_555 1_555
N3_10 C16_7 1_555 1_555
C1_7 C2_7 1_555 1_555
C2_7 C3_7 1_555 1_555
C3_7 H1_7 1_555 1_555
C4_7 C3_7 1_555 1_555
H2_7 C4_7 1_555 1_555
C5_7 C4_7 1_555 1_555
C6_7 C5_7 1_555 1_555
H3_7 C6_7 1_555 1_555
C7_7 C2_7 1_555 1_555
H4_7 C7_7 1_555 1_555
C8_7 H5_7 1_555 1_555
C9_7 C8_7 1_555 1_555
C10_7 C5_7 1_555 1_555
C11_7 C10_7 1_555 1_555
C12_7 C11_7 1_555 1_555
H6_7 C12_7 1_555 1_555
C13_7 C12_7 1_555 1_555
H7_7 C13_7 1_555 1_555
C14_7 N2_7 1_555 1_555
C15_7 C14_7 1_555 1_555
C16_7 C15_7 1_555 1_555
C17_7 C16_7 1_555 1_555
H8_7 C17_7 1_555 1_555
C18_7 C15_7 1_555 1_555
C19_7 C20_7 1_555 1_555
C20_7 O4_7 1_555 1_555
C21_7 C18_7 1_555 1_555
H9_7 C21_7 1_555 1_555
C22_7 C19_7 1_555 1_555
H10_7 C22_7 1_555 1_555
C23_7 C19_7 1_555 1_555
H11_7 C23_7 1_555 1_555
C24_7 C18_7 1_555 1_555
H12_7 C24_7 1_555 1_555
Zn2_10 N1_10 1_555 1_555
O5_7 C25_7 1_555 1_555
O11_4 C44_7 1_555 1_555
N4_7 Zn2_10 1_555 1_555
C25_7 C26_7 1_555 1_555
C26_7 C27_7 1_555 1_555
C27_7 H13_7 1_555 1_555
C28_7 C27_7 1_555 1_555
H14_7 C28_7 1_555 1_555
C29_7 C28_7 1_555 1_555
C30_7 C29_7 1_555 1_555
H15_7 C30_7 1_555 1_555
C31_7 C26_7 1_555 1_555
C32_7 C8_7 1_555 1_555
H17_7 C32_7 1_555 1_555
C33_7 N1_10 1_555 1_555
C34_7 C29_7 1_555 1_555
C35_7 N4_7 1_555 1_555
C36_7 C35_7 1_555 1_555
H18_7 C36_7 1_555 1_555
C37_7 C36_7 1_555 1_555
H19_7 C37_7 1_555 1_555
C38_7 N4_7 1_555 1_555
C39_7 C38_7 1_555 1_555
C40_7 N3_10 1_555 1_555
C41_7 C17_7 1_555 1_555
H20_7 C41_7 1_555 1_555
C42_7 C39_7 1_555 1_555
C43_7 C44_7 1_555 1_555
C44_7 O8_7 1_555 1_555
C45_7 C42_7 1_555 1_555
H21_7 C45_7 1_555 1_555
C46_7 C43_7 1_555 1_555
H22_7 C46_7 1_555 1_555
C47_7 C43_7 1_555 1_555
H23_7 C47_7 1_555 1_555
C48_7 C42_7 1_555 1_555
H24_7 C48_7 1_555 1_555
Zn5_4 O5_7 1_555 1_555
O9_4 Zn4_2 1_555 1_555
N2_7 Zn2_10 1_555 1_555
N3_10 Zn2_10 1_555 1_555
C6_7 C7_7 1_555 1_555
C9_7 C10_7 1_555 1_555
C13_7 C14_7 1_555 1_555
C21_7 C22_7 1_555 1_555
C23_7 C24_7 1_555 1_555
C30_7 C31_7 1_555 1_555
C32_7 C33_7 1_555 1_555
C33_7 C34_7 1_555 1_555
C34_7 C35_7 1_555 1_555
C37_7 C38_7 1_555 1_555
C39_7 C40_7 1_555 1_555
C40_7 C41_7 1_555 1_555
C45_7 C46_7 1_555 1_555
C47_7 C48_7 1_555 1_555
O9_4 C1_8 1_555 1_555
O2_8 C1_8 1_555 1_555
O11_3 C20_8 1_555 1_555
N1_11 C9_8 1_555 1_555
N2_8 C11_8 1_555 1_555
N3_11 C16_8 1_555 1_555
C1_8 C2_8 1_555 1_555
C2_8 C3_8 1_555 1_555
C3_8 H1_8 1_555 1_555
C4_8 C3_8 1_555 1_555
H2_8 C4_8 1_555 1_555
C5_8 C4_8 1_555 1_555
C6_8 C5_8 1_555 1_555
H3_8 C6_8 1_555 1_555
C7_8 C2_8 1_555 1_555
H4_8 C7_8 1_555 1_555
C8_8 H5_8 1_555 1_555
C9_8 C8_8 1_555 1_555
C10_8 C5_8 1_555 1_555
C11_8 C10_8 1_555 1_555
C12_8 C11_8 1_555 1_555
H6_8 C12_8 1_555 1_555
C13_8 C12_8 1_555 1_555
H7_8 C13_8 1_555 1_555
C14_8 N2_8 1_555 1_555
C15_8 C14_8 1_555 1_555
C16_8 C15_8 1_555 1_555
C17_8 C16_8 1_555 1_555
H8_8 C17_8 1_555 1_555
C18_8 C15_8 1_555 1_555
C19_8 C20_8 1_555 1_555
C20_8 O4_8 1_555 1_555
C21_8 C18_8 1_555 1_555
H9_8 C21_8 1_555 1_555
C22_8 C19_8 1_555 1_555
H10_8 C22_8 1_555 1_555
C23_8 C19_8 1_555 1_555
H11_8 C23_8 1_555 1_555
C24_8 C18_8 1_555 1_555
H12_8 C24_8 1_555 1_555
Zn2_11 N1_11 1_555 1_555
N2_8 Zn2_11 1_555 1_555
N3_11 Zn2_11 1_555 1_555
C6_8 C7_8 1_555 1_555
C9_8 C10_8 1_555 1_555
C13_8 C14_8 1_555 1_555
C21_8 C22_8 1_555 1_555
C23_8 C24_8 1_555 1_555
Zn2_12 N1_12 1_555 1_555
O5_8 C25_8 1_555 1_555
O10_4 C44_8 1_555 1_555
N4_8 Zn2_12 1_555 1_555
C25_8 C26_8 1_555 1_555
C26_8 C27_8 1_555 1_555
C27_8 H13_8 1_555 1_555
C28_8 C27_8 1_555 1_555
H14_8 C28_8 1_555 1_555
C29_8 C28_8 1_555 1_555
C30_8 C29_8 1_555 1_555
H15_8 C30_8 1_555 1_555
C31_8 C26_8 1_555 1_555
H17_8 C32_8 1_555 1_555
C33_8 N1_12 1_555 1_555
C34_8 C29_8 1_555 1_555
C35_8 N4_8 1_555 1_555
C36_8 C35_8 1_555 1_555
H18_8 C36_8 1_555 1_555
C37_8 C36_8 1_555 1_555
H19_8 C37_8 1_555 1_555
C38_8 N4_8 1_555 1_555
C39_8 C38_8 1_555 1_555
C40_8 N3_12 1_555 1_555
H20_8 C41_8 1_555 1_555
C42_8 C39_8 1_555 1_555
C43_8 C44_8 1_555 1_555
C44_8 O8_8 1_555 1_555
C45_8 C42_8 1_555 1_555
H21_8 C45_8 1_555 1_555
C46_8 C43_8 1_555 1_555
H22_8 C46_8 1_555 1_555
C47_8 C43_8 1_555 1_555
H23_8 C47_8 1_555 1_555
C48_8 C42_8 1_555 1_555
H24_8 C48_8 1_555 1_555
Zn5_3 O5_8 1_555 1_555
N3_12 Zn2_12 1_555 1_555
C30_8 C31_8 1_555 1_555
C32_8 C33_8 1_555 1_555
C33_8 C34_8 1_555 1_555
C34_8 C35_8 1_555 1_555
C37_8 C38_8 1_555 1_555
C39_8 C40_8 1_555 1_555
C40_8 C41_8 1_555 1_555
C45_8 C46_8 1_555 1_555
C47_8 C48_8 1_555 1_555

#END
