
###############################################################################
#
# This file contains modified crystal structure data generated from the
# MOF subset of the Cambridge Structural Database (CSD) v543 
# hosted by the Cambridge Crystallographic Data Centre (CCDC).
#
# This work is licensed under the Creative Commons
# Attribution-NonCommercial-ShareAlike 4.0 International License.
# To view a copy of this license, visit
# http://creativecommons.org/licenses/by-nc-sa/4.0/
# or send a letter to
# Creative Commons, PO Box 1866, Mountain View, CA 94042, USA.
#
# CIF created using the CSD Python API on 29 September 2022
# The structure has been converted into the P1 space group
# The structure has a 3D framework
# The original CSD entry SEHXIN is in the tetragonal crystal system
# The original CSD entry SEHXIN is in a Sohncke space group
# The framework has been calculated to contain at least 10.0% void space
# The void calculation uses a probe of radius 1.32A, grid spacing 0.4
# H atom positions have been added when not included in the experimental data
# Generated hydrogen atom positions removed from atoms on special positions
#
###############################################################################

data_SEHXIN
_chemical_formula_moiety         '(C54 H34 Eu4 O28)n'
_symmetry_cell_setting           triclinic
_symmetry_space_group_name_H-M   'P 1'
_symmetry_Int_Tables_number      1
_space_group_name_Hall           'P 1'
loop_
_symmetry_equiv_pos_site_id
_symmetry_equiv_pos_as_xyz
1 x,y,z
_cell_length_a                   10.3627(15)
_cell_length_b                   10.3627(15)
_cell_length_c                   14.332(3)
_cell_angle_alpha                90
_cell_angle_beta                 90
_cell_angle_gamma                90
_cell_volume                     1539.05
loop_
_atom_site_label
_atom_site_type_symbol
_atom_site_fract_x
_atom_site_fract_y
_atom_site_fract_z
O8 O 0.0780(8) 0.0994(8) 0.4086(6)
Eu2 Eu 0.14179(5) 0.14179(5) 0.6250
Eu5 Eu 0.14179(5) 0.85821(5) 0.8750
C1 C 0.8069(13) 0.0784(11) 0.5853(7)
C2 C 0.7339(9) 0.0409(11) 0.6718(6)
C3 C 0.5993(9) 0.0370(10) 0.6716(6)
H1 H 0.5547 0.0597 0.6178
C4 C 0.5313(13) -0.0000 0.7500
C5 C 0.3849(13) -0.0000 0.7500
C6 C 0.7985(16) -0.0000 0.7500
H2 H 0.8882 -0.0000 0.7500
O1 O 0.7466(10) 0.0822(10) 0.5107(5)
O2 O 0.9220(8) 0.0994(8) 0.5914(6)
O3 O 0.3316(7) 0.0655(9) 0.6911(5)
O4 O 0.6897(11) 0.3103(11) 0.3750
Eu1 Eu 0.85821(5) 0.14179(5) 0.3750
O6 O 0.9178(10) 0.2534(10) 0.2393(5)
O11 O 0.6684(7) 0.0655(9) 0.3089(5)
O12 O 0.9345(9) 0.3316(7) 0.4411(5)
Eu4 Eu 0.85821(5) 0.85821(5) 0.1250
C4_2 C 0.5313(13) 1.0000 0.7500
C5_2 C 0.3849(13) 1.0000 0.7500
C6_2 C 0.7985(16) 1.0000 0.7500
H2_2 H 0.8882 1.0000 0.7500
C7 C 0.8069(13) 0.9216(11) 0.9147(7)
C8 C 0.7339(9) 0.9591(11) 0.8282(6)
C9 C 0.5993(9) 0.9630(10) 0.8284(6)
H3 H 0.5547 0.9403 0.8822
O5 O 0.7466(10) 0.9178(10) 0.9893(5)
O7 O 0.9220(8) 0.9006(8) 0.9086(6)
O9 O 0.9006(8) 0.9220(8) 0.3414(6)
O10 O 0.3316(7) 0.9345(9) 0.8089(5)
C4_3 C 0.4687(13) -0.0000 0.2500
C5_3 C 0.6151(13) -0.0000 0.2500
C6_3 C 0.2015(16) -0.0000 0.2500
H2_3 H 0.1118 -0.0000 0.2500
C7_2 C 0.1931(13) 0.0784(11) 0.4147(7)
C8_2 C 0.2661(9) 0.0409(11) 0.3282(6)
C9_2 C 0.4007(9) 0.0370(10) 0.3284(6)
H3_2 H 0.4453 0.0597 0.3822
O5_2 O 0.2534(10) 0.0822(10) 0.4893(5)
O9_2 O 0.0994(8) 0.0780(8) 0.8414(6)
C1_2 C 0.1931(13) 0.9216(11) 0.0853(7)
C2_2 C 0.2661(9) 0.9591(11) 0.1718(6)
C3_2 C 0.4007(9) 0.9630(10) 0.1716(6)
H1_2 H 0.4453 0.9403 0.1178
C4_4 C 0.4687(13) 1.0000 0.2500
C5_4 C 0.6151(13) 1.0000 0.2500
C6_4 C 0.2015(16) 1.0000 0.2500
H2_4 H 0.1118 1.0000 0.2500
O1_2 O 0.2534(10) 0.9178(10) 0.0107(5)
O2_2 O 0.0780(8) 0.9006(8) 0.0914(6)
O3_2 O 0.6684(7) 0.9345(9) 0.1911(5)
O4_2 O 0.3103(11) 0.6897(11) 0.8750
O6_2 O 0.0822(10) 0.7466(10) 0.7393(5)
O12_2 O 0.0655(9) 0.6684(7) 0.9411(5)
O9_3 O 0.9006(8) 0.0780(8) 0.1586(6)
O4_3 O 0.6897(11) 0.6897(11) 0.1250
O6_3 O 0.9178(10) 0.7466(10) 0.2607(5)
O12_3 O 0.9345(9) 0.6684(7) 0.0589(5)
O4_4 O 0.3103(11) 0.3103(11) 0.6250
O6_4 O 0.0822(10) 0.2534(10) 0.7607(5)
O12_4 O 0.0655(9) 0.3316(7) 0.5589(5)
O9_4 O 0.0994(8) 0.9220(8) 0.6586(6)
C4_5 C -0.0000 0.4687(13) -0.0000
C5_5 C -0.0000 0.6151(13) -0.0000
C6_5 C 0.0000 0.2015(16) -0.0000
H2_5 H 0.0000 0.1118 -0.0000
C4_6 C -0.0000 0.4687(13) 1.0000
C5_6 C 0.0000 0.6151(13) 1.0000
C6_6 C -0.0000 0.2015(16) 1.0000
H2_6 H -0.0000 0.1118 1.0000
C7_3 C 0.0784(11) 0.1931(13) 0.8353(7)
C8_3 C 0.0409(11) 0.2661(9) 0.9218(6)
C9_3 C 0.0370(10) 0.4007(9) 0.9216(6)
H3_3 H 0.0597 0.4453 0.8678
C1_3 C 0.9216(11) 0.1931(13) 0.1647(7)
C2_3 C 0.9591(11) 0.2661(9) 0.0782(6)
C3_3 C 0.9630(10) 0.4007(9) 0.0784(6)
H1_3 H 0.9403 0.4453 0.1322
C4_7 C 1.0000 0.4687(13) -0.0000
C5_7 C 1.0000 0.6151(13) -0.0000
C6_7 C 1.0000 0.2015(16) -0.0000
H2_7 H 1.0000 0.1118 -0.0000
C4_8 C 1.0000 0.4687(13) 1.0000
C5_8 C 1.0000 0.6151(13) 1.0000
C6_8 C 1.0000 0.2015(16) 1.0000
H2_8 H 1.0000 0.1118 1.0000
C1_4 C 0.0784(11) 0.8069(13) 0.6647(7)
C2_4 C 0.0409(11) 0.7339(9) 0.5782(6)
C3_4 C 0.0370(10) 0.5993(9) 0.5784(6)
H1_4 H 0.0597 0.5547 0.6322
C4_9 C -0.0000 0.5313(13) 0.5000
C5_9 C 0.0000 0.3849(13) 0.5000
C6_9 C -0.0000 0.7985(16) 0.5000
H2_9 H 0.0000 0.8882 0.5000
C4_10 C 1.0000 0.5313(13) 0.5000
C5_10 C 1.0000 0.3849(13) 0.5000
C6_10 C 1.0000 0.7985(16) 0.5000
H2_10 H 1.0000 0.8882 0.5000
C7_4 C 0.9216(11) 0.8069(13) 0.3353(7)
C8_4 C 0.9591(11) 0.7339(9) 0.4218(6)
C9_4 C 0.9630(10) 0.5993(9) 0.4216(6)
H3_4 H 0.9403 0.5547 0.3678
loop_
_geom_bond_atom_site_label_1
_geom_bond_atom_site_label_2
_geom_bond_site_symmetry_1
_geom_bond_site_symmetry_2
C1 C2 1_555 1_555
C2 C3 1_555 1_555
C3 H1 1_555 1_555
C4 C3 1_555 1_555
C5 C4 1_555 1_555
C6 C2 1_555 1_555
H2 C6 1_555 1_555
O1 C1 1_555 1_555
O2 C1 1_555 1_555
O3 C5 1_555 1_555
O4 Eu1 1_555 1_555
Eu1 O1 1_555 1_555
O6 Eu1 1_555 1_555
O11 Eu1 1_555 1_555
O12 Eu1 1_555 1_555
Eu2 O3 1_555 1_555
C5_2 C4_2 1_555 1_555
H2_2 C6_2 1_555 1_555
C7 C8 1_555 1_555
C8 C6_2 1_555 1_555
C9 C4_2 1_555 1_555
H3 C9 1_555 1_555
O5 C7 1_555 1_555
O7 C7 1_555 1_555
O10 C5_2 1_555 1_555
Eu5 O10 1_555 1_555
C8 C9 1_555 1_555
C5_3 C4_3 1_555 1_555
H2_3 C6_3 1_555 1_555
C7_2 C8_2 1_555 1_555
C8_2 C6_3 1_555 1_555
C9_2 C4_3 1_555 1_555
H3_2 C9_2 1_555 1_555
O5_2 C7_2 1_555 1_555
O8 C7_2 1_555 1_555
O11 C5_3 1_555 1_555
Eu2 O5_2 1_555 1_555
C8_2 C9_2 1_555 1_555
C1_2 C2_2 1_555 1_555
C2_2 C3_2 1_555 1_555
C3_2 H1_2 1_555 1_555
C4_4 C3_2 1_555 1_555
C5_4 C4_4 1_555 1_555
C6_4 C2_2 1_555 1_555
H2_4 C6_4 1_555 1_555
O1_2 C1_2 1_555 1_555
O2_2 C1_2 1_555 1_555
O3_2 C5_4 1_555 1_555
Eu4 O3_2 1_555 1_555
O4_2 Eu5 1_555 1_555
O6_2 Eu5 1_555 1_555
O12_2 Eu5 1_555 1_555
O4_3 Eu4 1_555 1_555
O6_3 Eu4 1_555 1_555
O12_3 Eu4 1_555 1_555
O4_4 Eu2 1_555 1_555
O6_4 Eu2 1_555 1_555
O12_4 Eu2 1_555 1_555
C5_5 C4_5 1_555 1_555
H2_5 C6_5 1_555 1_555
C5_6 C4_6 1_555 1_555
H2_6 C6_6 1_555 1_555
C7_3 C8_3 1_555 1_555
C8_3 C6_6 1_555 1_555
C9_3 C4_6 1_555 1_555
H3_3 C9_3 1_555 1_555
O6_4 C7_3 1_555 1_555
O9_2 C7_3 1_555 1_555
O12_2 C5_6 1_555 1_555
C8_3 C9_3 1_555 1_555
C1_3 C2_3 1_555 1_555
C2_3 C3_3 1_555 1_555
C3_3 H1_3 1_555 1_555
C4_7 C3_3 1_555 1_555
C5_7 C4_7 1_555 1_555
C6_7 C2_3 1_555 1_555
H2_7 C6_7 1_555 1_555
O6 C1_3 1_555 1_555
O9_3 C1_3 1_555 1_555
O12_3 C5_7 1_555 1_555
C5_8 C4_8 1_555 1_555
H2_8 C6_8 1_555 1_555
C1_4 C2_4 1_555 1_555
C2_4 C3_4 1_555 1_555
C3_4 H1_4 1_555 1_555
C4_9 C3_4 1_555 1_555
C5_9 C4_9 1_555 1_555
C6_9 C2_4 1_555 1_555
H2_9 C6_9 1_555 1_555
O6_2 C1_4 1_555 1_555
O9_4 C1_4 1_555 1_555
O12_4 C5_9 1_555 1_555
C5_10 C4_10 1_555 1_555
H2_10 C6_10 1_555 1_555
C7_4 C8_4 1_555 1_555
C8_4 C6_10 1_555 1_555
C9_4 C4_10 1_555 1_555
H3_4 C9_4 1_555 1_555
O6_3 C7_4 1_555 1_555
O9 C7_4 1_555 1_555
O12 C5_10 1_555 1_555
C8_4 C9_4 1_555 1_555

#END
