
###############################################################################
#
# This file contains modified crystal structure data generated from the
# MOF subset of the Cambridge Structural Database (CSD) v543 
# hosted by the Cambridge Crystallographic Data Centre (CCDC).
#
# This work is licensed under the Creative Commons
# Attribution-NonCommercial-ShareAlike 4.0 International License.
# To view a copy of this license, visit
# http://creativecommons.org/licenses/by-nc-sa/4.0/
# or send a letter to
# Creative Commons, PO Box 1866, Mountain View, CA 94042, USA.
#
# CIF created using the CSD Python API on 29 September 2022
# The structure has been converted into the P1 space group
# The structure has a 3D framework
# The original CSD entry SEHZUB is in the monoclinic crystal system
# The original CSD entry SEHZUB is in a Sohncke space group
# The framework has been calculated to contain at least 10.0% void space
# The void calculation uses a probe of radius 1.32A, grid spacing 0.4
#
###############################################################################

data_SEHZUB
_chemical_formula_moiety         '(C72 H52 Co4 N8 O24)n'
_symmetry_cell_setting           triclinic
_symmetry_space_group_name_H-M   'P 1'
_symmetry_Int_Tables_number      1
_space_group_name_Hall           'P 1'
loop_
_symmetry_equiv_pos_site_id
_symmetry_equiv_pos_as_xyz
1 x,y,z
_cell_length_a                   24.495(9)
_cell_length_b                   8.320(2)
_cell_length_c                   11.375(3)
_cell_angle_alpha                90
_cell_angle_beta                 105.222(13)
_cell_angle_gamma                90
_cell_volume                     2236.87
loop_
_atom_site_label
_atom_site_type_symbol
_atom_site_fract_x
_atom_site_fract_y
_atom_site_fract_z
Co4 Co 0.31480(3) 0.00811(8) 0.06344(6)
Co6 Co 0.68520(3) 0.00811(8) 0.93656(6)
N5 N 0.1895(2) 0.5082(10) 0.1283(5)
H26 H 0.161(3) 0.797(9) 0.003(7)
C18 C 0.4145(3) 0.8087(8) 0.1173(6)
O2 O 0.29781(19) 0.7624(6) 0.0505(4)
O3 O 0.43177(18) 0.7263(5) 0.2100(4)
O4 O 0.40127(16) 0.9582(5) 0.1112(4)
O5 O 0.5000 0.7982(8) 0.0000
Co2 Co 0.18520(3) 0.50811(8) 0.93656(6)
Co5 Co 0.81480(3) 0.50811(8) 0.06344(6)
N3 N 0.1837(2) 0.4804(6) 0.7458(5)
C19 C 0.6951(3) 0.6454(7) 0.0057(6)
C20 C 0.6438(3) 0.6362(8) 0.0523(6)
C21 C 0.5962(3) 0.7198(8) 0.0013(6)
C22 C 0.5482(2) 0.7066(7) 0.0492(5)
C23 C 0.5511(3) 0.6253(8) 0.1533(6)
H14 H 0.5202 0.6196 0.1863
C24 C 0.6028(2) 0.5491(8) 0.2103(6)
H15 H 0.6058 0.4919 0.2819
C25 C 0.6478(2) 0.5571(7) 0.1636(6)
H16 H 0.6818 0.5100 0.2051
C26 C 0.2322(3) 0.4505(8) 0.2175(6)
H17 H 0.2642 0.4108 0.1978
C27 C 0.2304(3) 0.4480(8) 0.3345(7)
H18 H 0.2611 0.4069 0.3932
C28 C 0.1841(2) 0.5047(10) 0.3707(5)
C29 C 0.1394(3) 0.5593(7) 0.2811(6)
H19 H 0.1069 0.5941 0.3011
C30 C 0.1417(3) 0.5638(8) 0.1585(6)
H20 H 0.1112 0.6045 0.0988
C31 C 0.1884(2) 0.5117(10) 0.5053(5)
C32 C 0.2019(3) 0.3659(8) 0.5655(6)
H21 H 0.2126 0.2788 0.5254
C33 C 0.1996(3) 0.3503(8) 0.6858(6)
H22 H 0.2086 0.2527 0.7261
C34 C 0.1701(3) 0.6264(8) 0.6856(6)
H23 H 0.1595 0.7136 0.7258
C35 C 0.1725(3) 0.6418(8) 0.5654(6)
H24 H 0.1634 0.7394 0.5251
O7 O 0.72838(16) 0.5389(5) 0.0348(4)
O8 O 0.27162(16) 0.5389(5) 0.9652(4)
O11 O 0.20219(19) 0.2624(6) 0.9495(4)
O15 O 0.09873(16) 0.4582(5) 0.8888(4)
O16 O 0.15942(17) 0.7407(6) 0.9262(4)
H25 H 0.178(3) 0.821(10) 0.892(7)
C1 C 0.3049(3) 0.6454(7) 0.9943(6)
C2 C 0.3562(3) 0.6362(8) 0.9477(6)
C3 C 0.4038(3) 0.7198(8) 0.9987(6)
C4 C 0.4518(2) 0.7066(7) 0.9508(5)
C5 C 0.4489(3) 0.6253(8) 0.8467(6)
H1 H 0.4798 0.6196 0.8137
C6 C 0.3972(2) 0.5491(8) 0.7897(6)
H2 H 0.3942 0.4919 0.7181
C7 C 0.3522(2) 0.5571(7) 0.8364(6)
H3 H 0.3182 0.5100 0.7949
O5_2 O 0.5000 0.7982(8) 1.0000
C36 C 0.5855(3) 0.8087(8) 0.8827(6)
O9 O 0.70219(19) 0.7624(6) 0.9495(4)
O12 O 0.56823(18) 0.7263(5) 0.7900(4)
O13 O 0.59873(16) 0.9582(5) 0.8888(4)
N1 N 0.8163(2) 0.4804(6) 0.2542(5)
C8 C 0.7678(3) 0.4505(8) 0.7825(6)
H4 H 0.7358 0.4108 0.8022
C9 C 0.7696(3) 0.4480(8) 0.6655(7)
H5 H 0.7389 0.4069 0.6068
C10 C 0.8159(2) 0.5047(10) 0.6293(5)
C11 C 0.8606(3) 0.5593(7) 0.7189(6)
H6 H 0.8931 0.5941 0.6989
C12 C 0.8583(3) 0.5638(8) 0.8415(6)
H7 H 0.8888 0.6045 0.9012
C13 C 0.8116(2) 0.5117(10) 0.4947(5)
C14 C 0.7981(3) 0.3659(8) 0.4345(6)
H8 H 0.7874 0.2788 0.4746
C15 C 0.8004(3) 0.3503(8) 0.3142(6)
H9 H 0.7914 0.2527 0.2739
C16 C 0.8299(3) 0.6264(8) 0.3144(6)
H10 H 0.8405 0.7136 0.2742
C17 C 0.8275(3) 0.6418(8) 0.4346(6)
H11 H 0.8366 0.7394 0.4749
N2 N 0.8105(2) 0.5082(10) 0.8717(5)
O6 O 0.84058(17) 0.7407(6) 0.0738(4)
H12 H 0.822(3) 0.821(10) 0.108(7)
O10 O 0.79781(19) 0.2624(6) 0.0505(4)
O14 O 0.90127(16) 0.4582(5) 0.1112(4)
H13 H 0.839(3) 0.797(9) 0.997(7)
O5_3 O 0.0000 0.2982(8) 0.0000
C19_2 C 0.1951(3) 0.1454(7) 0.0057(6)
C20_2 C 0.1438(3) 0.1362(8) 0.0523(6)
C21_2 C 0.0962(3) 0.2198(8) 0.0013(6)
C22_2 C 0.0482(2) 0.2066(7) 0.0492(5)
C23_2 C 0.0511(3) 0.1253(8) 0.1533(6)
H14_2 H 0.0202 0.1196 0.1863
C24_2 C 0.1028(2) 0.0491(8) 0.2103(6)
C25_2 C 0.1478(2) 0.0571(7) 0.1636(6)
H16_2 H 0.1818 0.0100 0.2051
O7_2 O 0.22838(16) 0.0389(5) 0.0348(4)
O5_4 O -0.0000 0.2982(8) 1.0000
C36_2 C 0.0855(3) 0.3087(8) 0.8827(6)
O12_2 O 0.06823(18) 0.2263(5) 0.7900(4)
H15_2 H 0.1058 0.9919 0.2819
N5_2 N 0.6895(2) 0.0082(10) 0.1283(5)
H26_2 H 0.661(3) 0.297(9) 0.003(7)
C18_2 C 0.9145(3) 0.3087(8) 0.1173(6)
O3_2 O 0.93177(18) 0.2263(5) 0.2100(4)
O5_5 O 1.0000 0.2982(8) 0.0000
C28_2 C 0.6841(2) 0.0047(10) 0.3707(5)
C29_2 C 0.6394(3) 0.0593(7) 0.2811(6)
H19_2 H 0.6069 0.0941 0.3011
C30_2 C 0.6417(3) 0.0638(8) 0.1585(6)
H20_2 H 0.6112 0.1045 0.0988
C31_2 C 0.6884(2) 0.0117(10) 0.5053(5)
C34_2 C 0.6701(3) 0.1264(8) 0.6856(6)
H23_2 H 0.6595 0.2136 0.7258
C35_2 C 0.6725(3) 0.1418(8) 0.5654(6)
H24_2 H 0.6634 0.2394 0.5251
O8_2 O 0.77162(16) 0.0389(5) 0.9652(4)
O16_2 O 0.65942(17) 0.2407(6) 0.9262(4)
H25_2 H 0.678(3) 0.321(10) 0.892(7)
C1_2 C 0.8049(3) 0.1454(7) 0.9943(6)
C2_2 C 0.8562(3) 0.1362(8) 0.9477(6)
C3_2 C 0.9038(3) 0.2198(8) 0.9987(6)
C4_2 C 0.9518(2) 0.2066(7) 0.9508(5)
C5_2 C 0.9489(3) 0.1253(8) 0.8467(6)
H1_2 H 0.9798 0.1196 0.8137
C6_2 C 0.8972(2) 0.0491(8) 0.7897(6)
C7_2 C 0.8522(2) 0.0571(7) 0.8364(6)
H3_2 H 0.8182 0.0100 0.7949
O5_6 O 1.0000 0.2982(8) 1.0000
N3_2 N 0.6837(2) 0.9804(6) 0.7458(5)
C26_2 C 0.7322(3) 0.9505(8) 0.2175(6)
H17_2 H 0.7642 0.9108 0.1978
C27_2 C 0.7304(3) 0.9480(8) 0.3345(7)
H18_2 H 0.7611 0.9069 0.3932
C32_2 C 0.7019(3) 0.8659(8) 0.5655(6)
H21_2 H 0.7126 0.7788 0.5254
C33_2 C 0.6996(3) 0.8503(8) 0.6858(6)
H22_2 H 0.7086 0.7527 0.7261
H2_2 H 0.8942 0.9919 0.7181
C10_2 C 0.3159(2) 0.0047(10) 0.6293(5)
C11_2 C 0.3606(3) 0.0593(7) 0.7189(6)
H6_2 H 0.3931 0.0941 0.6989
C12_2 C 0.3583(3) 0.0638(8) 0.8415(6)
H7_2 H 0.3888 0.1045 0.9012
C13_2 C 0.3116(2) 0.0117(10) 0.4947(5)
C16_2 C 0.3299(3) 0.1264(8) 0.3144(6)
H10_2 H 0.3405 0.2136 0.2742
C17_2 C 0.3275(3) 0.1418(8) 0.4346(6)
H11_2 H 0.3366 0.2394 0.4749
N2_2 N 0.3105(2) 0.0082(10) 0.8717(5)
O6_2 O 0.34058(17) 0.2407(6) 0.0738(4)
H12_2 H 0.322(3) 0.321(10) 0.108(7)
H13_2 H 0.339(3) 0.297(9) 0.997(7)
N1_2 N 0.3163(2) 0.9804(6) 0.2542(5)
C8_2 C 0.2678(3) 0.9505(8) 0.7825(6)
H4_2 H 0.2358 0.9108 0.8022
C9_2 C 0.2696(3) 0.9480(8) 0.6655(7)
H5_2 H 0.2389 0.9069 0.6068
C14_2 C 0.2981(3) 0.8659(8) 0.4345(6)
H8_2 H 0.2874 0.7788 0.4746
C15_2 C 0.3004(3) 0.8503(8) 0.3142(6)
H9_2 H 0.2914 0.7527 0.2739
loop_
_geom_bond_atom_site_label_1
_geom_bond_atom_site_label_2
_geom_bond_site_symmetry_1
_geom_bond_site_symmetry_2
O3 C18 1_555 1_555
O4 C18 1_555 1_555
Co2 N3 1_555 1_555
Co5 O7 1_555 1_555
N3 C33 1_555 1_555
C19 C20 1_555 1_555
C20 C21 1_555 1_555
C21 C22 1_555 1_555
C22 O5 1_555 1_555
C23 C22 1_555 1_555
H14 C23 1_555 1_555
C24 C23 1_555 1_555
H15 C24 1_555 1_555
C25 C20 1_555 1_555
H16 C25 1_555 1_555
C26 H17 1_555 1_555
C27 C26 1_555 1_555
H18 C27 1_555 1_555
C28 C27 1_555 1_555
C29 C28 1_555 1_555
H19 C29 1_555 1_555
C30 C29 1_555 1_555
H20 C30 1_555 1_555
C31 C28 1_555 1_555
C32 C31 1_555 1_555
H21 C32 1_555 1_555
C33 C32 1_555 1_555
H22 C33 1_555 1_555
C34 N3 1_555 1_555
H23 C34 1_555 1_555
C35 C31 1_555 1_555
H24 C35 1_555 1_555
O7 C19 1_555 1_555
O8 Co2 1_555 1_555
O11 Co2 1_555 1_555
O15 Co2 1_555 1_555
O16 Co2 1_555 1_555
H25 O16 1_555 1_555
C24 C25 1_555 1_555
C26 N5 1_555 1_555
C30 N5 1_555 1_555
C34 C35 1_555 1_555
C1 C2 1_555 1_555
C2 C3 1_555 1_555
C3 C4 1_555 1_555
C4 C5 1_555 1_555
C5 H1 1_555 1_555
C6 C5 1_555 1_555
H2 C6 1_555 1_555
C7 C2 1_555 1_555
H3 C7 1_555 1_555
O5_2 C4 1_555 1_555
O12 C36 1_555 1_555
C1 O8 1_555 1_555
C6 C7 1_555 1_555
C36 O13 1_555 1_555
Co5 N1 1_555 1_555
N1 C15 1_555 1_555
C8 H4 1_555 1_555
C9 C8 1_555 1_555
H5 C9 1_555 1_555
C10 C9 1_555 1_555
C11 C10 1_555 1_555
H6 C11 1_555 1_555
C12 C11 1_555 1_555
H7 C12 1_555 1_555
C13 C10 1_555 1_555
C14 C13 1_555 1_555
H8 C14 1_555 1_555
C15 C14 1_555 1_555
H9 C15 1_555 1_555
C16 N1 1_555 1_555
H10 C16 1_555 1_555
C17 C13 1_555 1_555
H11 C17 1_555 1_555
N2 C8 1_555 1_555
O6 Co5 1_555 1_555
H12 O6 1_555 1_555
O10 Co5 1_555 1_555
O14 Co5 1_555 1_555
C12 N2 1_555 1_555
C16 C17 1_555 1_555
Co4 O7_2 1_555 1_555
C19_2 C20_2 1_555 1_555
C20_2 C21_2 1_555 1_555
C21_2 C22_2 1_555 1_555
C22_2 O5_3 1_555 1_555
C23_2 C22_2 1_555 1_555
H14_2 C23_2 1_555 1_555
C24_2 C23_2 1_555 1_555
C25_2 C20_2 1_555 1_555
H16_2 C25_2 1_555 1_555
O7_2 C19_2 1_555 1_555
C24_2 C25_2 1_555 1_555
O12_2 C36_2 1_555 1_555
C36_2 O15 1_555 1_555
O3_2 C18_2 1_555 1_555
O14 C18_2 1_555 1_555
C29_2 C28_2 1_555 1_555
H19_2 C29_2 1_555 1_555
C30_2 C29_2 1_555 1_555
H20_2 C30_2 1_555 1_555
C31_2 C28_2 1_555 1_555
H23_2 C34_2 1_555 1_555
C35_2 C31_2 1_555 1_555
H24_2 C35_2 1_555 1_555
O8_2 Co6 1_555 1_555
O16_2 Co6 1_555 1_555
H25_2 O16_2 1_555 1_555
C30_2 N5_2 1_555 1_555
C34_2 C35_2 1_555 1_555
C1_2 C2_2 1_555 1_555
C2_2 C3_2 1_555 1_555
C3_2 C4_2 1_555 1_555
C4_2 C5_2 1_555 1_555
C5_2 H1_2 1_555 1_555
C6_2 C5_2 1_555 1_555
C7_2 C2_2 1_555 1_555
H3_2 C7_2 1_555 1_555
O5_6 C4_2 1_555 1_555
C1_2 O8_2 1_555 1_555
C6_2 C7_2 1_555 1_555
N3_2 C33_2 1_555 1_555
C26_2 H17_2 1_555 1_555
C27_2 C26_2 1_555 1_555
H18_2 C27_2 1_555 1_555
H21_2 C32_2 1_555 1_555
C33_2 C32_2 1_555 1_555
H22_2 C33_2 1_555 1_555
C11_2 C10_2 1_555 1_555
H6_2 C11_2 1_555 1_555
C12_2 C11_2 1_555 1_555
H7_2 C12_2 1_555 1_555
C13_2 C10_2 1_555 1_555
H10_2 C16_2 1_555 1_555
C17_2 C13_2 1_555 1_555
H11_2 C17_2 1_555 1_555
O6_2 Co4 1_555 1_555
H12_2 O6_2 1_555 1_555
C12_2 N2_2 1_555 1_555
C16_2 C17_2 1_555 1_555
N1_2 C15_2 1_555 1_555
C8_2 H4_2 1_555 1_555
C9_2 C8_2 1_555 1_555
H5_2 C9_2 1_555 1_555
H8_2 C14_2 1_555 1_555
C15_2 C14_2 1_555 1_555
H9_2 C15_2 1_555 1_555

#END
