
###############################################################################
#
# This file contains modified crystal structure data generated from the
# MOF subset of the Cambridge Structural Database (CSD) v543 
# hosted by the Cambridge Crystallographic Data Centre (CCDC).
#
# This work is licensed under the Creative Commons
# Attribution-NonCommercial-ShareAlike 4.0 International License.
# To view a copy of this license, visit
# http://creativecommons.org/licenses/by-nc-sa/4.0/
# or send a letter to
# Creative Commons, PO Box 1866, Mountain View, CA 94042, USA.
#
# CIF created using the CSD Python API on 29 September 2022
# The structure has been converted into the P1 space group
# The structure has a 3D framework
# The original CSD entry SEJSIK is in the triclinic crystal system
# The framework has been calculated to contain at least 10.0% void space
# The void calculation uses a probe of radius 1.32A, grid spacing 0.4
#
###############################################################################

data_SEJSIK
_chemical_formula_moiety         '(C22 H44 K3 N4 Nd2 O27)n'
_symmetry_cell_setting           triclinic
_symmetry_space_group_name_H-M   'P 1'
_symmetry_Int_Tables_number      1
_space_group_name_Hall           'P 1'
loop_
_symmetry_equiv_pos_site_id
_symmetry_equiv_pos_as_xyz
1 x,y,z
_cell_length_a                   9.5072(10)
_cell_length_b                   10.2779(10)
_cell_length_c                   13.497(2)
_cell_angle_alpha                78.693(10)
_cell_angle_beta                 71.953(10)
_cell_angle_gamma                82.483(10)
_cell_volume                     1226.15
loop_
_atom_site_label
_atom_site_type_symbol
_atom_site_fract_x
_atom_site_fract_y
_atom_site_fract_z
O10 O 0.2709(7) 0.0608(5) 0.9276(6)
K3 K 0.5951(2) 0.08639(17) 0.83822(14)
C1 C 0.1315(8) 0.4819(7) 0.1640(6)
H1 H 0.037 0.521 0.203
H2 H 0.1118 0.412 0.1322
C2 C 0.2140(7) 0.5886(7) 0.0770(5)
H3 H 0.208 0.6698 0.1064
H4 H 0.0428 0.6531 0.0107
C4 C 0.2457(8) 0.5228(8) 0.2947(6)
H6 H 0.2107 0.4901 0.3699
H7 H 0.1863 0.6044 0.2801
C5 C 0.4059(9) 0.5555(7) 0.2675(6)
C6 C 0.1449(9) 0.3112(7) 0.3116(6)
H8 H 0.0401 0.3376 0.3383
H9 H 0.1851 0.2897 0.3712
C7 C 0.1623(8) 0.1881(7) 0.2615(6)
N1 N 0.2198(6) 0.4240(5) 0.2376(4)
O1 O 0.3635(5) 0.5437(5) 0.0384(4)
O2 O 0.5067(6) 0.4947(5) 0.2061(4)
O4 O 0.4261(7) 0.6458(7) 0.3103(6)
O6 O 0.2732(6) 0.1746(5) 0.1829(4)
O7 O 0.0678(7) 0.1054(6) 0.3048(5)
Nd1 Nd 0.47055(4) 0.33430(3) 0.10266(3)
H20 H 0.447(8) 0.038(3) 0.331(6)
N3 N 0.7693(6) 0.2783(6) 0.0967(5)
O17 O 0.5914(5) 0.1250(5) 0.0415(4)
O19 O 0.5313(6) 0.2049(5) 0.2611(4)
K4 K 0.4049(2) 0.91361(17) 0.16178(14)
C3 C 0.1457(8) 0.6199(7) 0.9858(6)
H5 H 0.1492 0.5399 0.9568
C8 C 0.1800(8) 0.8587(7) 0.9252(7)
H10 H 0.1422 0.9075 0.8684
H11 H 0.0982 0.8535 0.9898
C9 C 0.2970(8) 0.9369(7) 0.9365(6)
C10 C 0.2284(8) 0.7112(7) 0.7972(6)
H12 H 0.2313 0.6181 0.7918
H13 H 0.1365 0.7547 0.7858
C11 C 0.3581(8) 0.7738(7) 0.7122(6)
N2 N 0.2307(6) 0.7217(6) 0.9033(5)
O3 O 0.3685(8) 0.2921(6) 0.9584(5)
O9 O 0.4086(5) 0.8750(5) 0.9585(4)
O11 O 0.4687(6) 0.7951(5) 0.7389(4)
O13 O 0.3515(7) 0.7989(6) 0.6197(4)
H14 H 0.384(8) 0.347(6) 0.901(3)
H15 H 0.315(7) 0.235(6) 0.954(6)
O15 O 0.6365(5) 0.4563(5) 0.9616(4)
K6 K 0.1776(2) 0.99110(19) 0.52795(16)
Nd2 Nd 0.52945(4) 0.66570(3) 0.89734(3)
O8 O 0.1167(7) 0.8740(7) 0.2260(6)
O12 O 0.4226(8) 0.9590(6) 0.3534(5)
H18 H 0.106(8) 0.954(3) 0.236(6)
H19 H 0.040(5) 0.862(8) 0.210(6)
H21 H 0.493(6) 0.917(7) 0.375(6)
O16 O 0.0458(9) 0.8126(8) 0.4482(5)
O5 O 0.9542(9) 0.1874(8) 0.5518(5)
K2 K 0.8224(2) 0.00890(19) 0.47205(16)
H16 H 0.921(8) 0.169(8) 0.6185(18)
H17 H 0.908(8) 0.253(5) 0.524(6)
O20 O 0.5774(8) 0.0410(6) 0.6466(5)
O21 O 0.6485(7) 0.2011(6) 0.3803(4)
H16_2 H 0.079(8) 0.831(8) 0.3815(18)
H17_2 H 0.092(8) 0.747(5) 0.476(6)
O8_2 O 0.8833(7) 0.1260(7) 0.7740(6)
H18_2 H 0.894(8) 0.046(3) 0.764(6)
H19_2 H 0.960(5) 0.138(8) 0.790(6)
H21_2 H 0.507(6) 0.083(7) 0.625(6)
C3_2 C 0.8543(8) 0.3801(7) 0.0142(6)
H5_2 H 0.8508 0.4601 0.0432
C8_2 C 0.8200(8) 0.1413(7) 0.0748(7)
H10_2 H 0.8578 0.0925 0.1316
H11_2 H 0.9018 0.1465 0.0102
C9_2 C 0.7030(8) 0.0631(7) 0.0635(6)
C10_2 C 0.7716(8) 0.2888(7) 0.2028(6)
H12_2 H 0.7687 0.3819 0.2082
H13_2 H 0.8635 0.2453 0.2142
C11_2 C 0.6419(8) 0.2262(7) 0.2878(6)
O3_2 O 0.6315(8) 0.7079(6) 0.0416(5)
H14_2 H 0.616(8) 0.653(6) 0.099(3)
H15_2 H 0.685(7) 0.765(6) 0.046(6)
C1_2 C 0.8685(8) 0.5181(7) 0.8360(6)
H1_2 H 0.963 0.479 0.797
H2_2 H 0.8882 0.588 0.8678
C2_2 C 0.7860(7) 0.4114(7) 0.9230(5)
H3_2 H 0.792 0.3302 0.8936
H4_2 H 0.9572 0.3469 0.9893
C4_2 C 0.7543(8) 0.4772(8) 0.7053(6)
H6_2 H 0.7893 0.5099 0.6301
H7_2 H 0.8137 0.3956 0.7199
C5_2 C 0.5941(9) 0.4445(7) 0.7325(6)
C6_2 C 0.8551(9) 0.6888(7) 0.6884(6)
H8_2 H 0.9599 0.6624 0.6617
H9_2 H 0.8149 0.7103 0.6288
C7_2 C 0.8377(8) 0.8119(7) 0.7385(6)
N1_2 N 0.7802(6) 0.5760(5) 0.7624(4)
O2_2 O 0.4933(6) 0.5053(5) 0.7939(4)
O4_2 O 0.5739(7) 0.3542(7) 0.6897(6)
O6_2 O 0.7268(6) 0.8254(5) 0.8171(4)
O7_2 O 0.9322(7) 0.8946(6) 0.6952(5)
H20_2 H 0.553(8) 0.962(3) 0.669(6)
O10_2 O 0.7291(7) 0.9392(5) 0.0724(6)
O14 O 0.6346(9) 0.8315(8) 0.4694(6)
H22 H 0.568(6) 0.799(7) 0.523(4)
H23 H 0.652(9) 0.758(4) 0.448(6)
O14_2 O 0.3654(9) 0.1685(8) 0.5306(6)
H22_2 H 0.432(6) 0.201(7) 0.477(4)
H23_2 H 0.348(9) 0.242(4) 0.552(6)
loop_
_geom_bond_atom_site_label_1
_geom_bond_atom_site_label_2
_geom_bond_site_symmetry_1
_geom_bond_site_symmetry_2
C1 H1 1_555 1_555
H2 C1 1_555 1_555
C2 C1 1_555 1_555
H3 C2 1_555 1_555
C4 H6 1_555 1_555
H7 C4 1_555 1_555
C5 C4 1_555 1_555
C6 H8 1_555 1_555
H9 C6 1_555 1_555
C7 C6 1_555 1_555
N1 C1 1_555 1_555
O1 C2 1_555 1_555
O2 C5 1_555 1_555
O4 C5 1_555 1_555
O6 C7 1_555 1_555
O7 C7 1_555 1_555
Nd1 N1 1_555 1_555
N3 Nd1 1_555 1_555
O19 Nd1 1_555 1_555
C4 N1 1_555 1_555
C6 N1 1_555 1_555
O1 Nd1 1_555 1_555
O2 Nd1 1_555 1_555
O6 Nd1 1_555 1_555
Nd1 O17 1_555 1_555
H5 C3 1_555 1_555
C8 H10 1_555 1_555
H11 C8 1_555 1_555
C9 C8 1_555 1_555
C10 H12 1_555 1_555
H13 C10 1_555 1_555
C11 C10 1_555 1_555
N2 C3 1_555 1_555
O9 C9 1_555 1_555
O11 C11 1_555 1_555
O13 C11 1_555 1_555
H14 O3 1_555 1_555
H15 O3 1_555 1_555
K6 O13 1_555 1_555
Nd2 N2 1_555 1_555
C8 N2 1_555 1_555
C10 N2 1_555 1_555
O9 Nd2 1_555 1_555
O11 Nd2 1_555 1_555
O15 Nd2 1_555 1_555
O8 K4 1_555 1_555
O12 K4 1_555 1_555
H18 O8 1_555 1_555
H19 O8 1_555 1_555
H21 O12 1_555 1_555
O12 K6 1_555 1_555
O16 K6 1_555 1_555
O5 K2 1_555 1_555
H16 O5 1_555 1_555
H17 O5 1_555 1_555
O20 K2 1_555 1_555
O21 K2 1_555 1_555
H16_2 O16 1_555 1_555
H17_2 O16 1_555 1_555
O8_2 K3 1_555 1_555
O20 K3 1_555 1_555
H18_2 O8_2 1_555 1_555
H19_2 O8_2 1_555 1_555
H21_2 O20 1_555 1_555
H5_2 C3_2 1_555 1_555
C8_2 H10_2 1_555 1_555
H11_2 C8_2 1_555 1_555
C9_2 C8_2 1_555 1_555
C10_2 H12_2 1_555 1_555
H13_2 C10_2 1_555 1_555
C11_2 C10_2 1_555 1_555
N3 C3_2 1_555 1_555
O17 C9_2 1_555 1_555
O19 C11_2 1_555 1_555
O21 C11_2 1_555 1_555
H14_2 O3_2 1_555 1_555
H15_2 O3_2 1_555 1_555
C8_2 N3 1_555 1_555
C10_2 N3 1_555 1_555
C1_2 H1_2 1_555 1_555
H2_2 C1_2 1_555 1_555
C2_2 C1_2 1_555 1_555
H3_2 C2_2 1_555 1_555
C4_2 H6_2 1_555 1_555
H7_2 C4_2 1_555 1_555
C5_2 C4_2 1_555 1_555
C6_2 H8_2 1_555 1_555
H9_2 C6_2 1_555 1_555
C7_2 C6_2 1_555 1_555
N1_2 C1_2 1_555 1_555
O15 C2_2 1_555 1_555
O2_2 C5_2 1_555 1_555
O4_2 C5_2 1_555 1_555
O6_2 C7_2 1_555 1_555
O7_2 C7_2 1_555 1_555
Nd2 N1_2 1_555 1_555
C4_2 N1_2 1_555 1_555
C6_2 N1_2 1_555 1_555
O2_2 Nd2 1_555 1_555
O6_2 Nd2 1_555 1_555
H22 O14 1_555 1_555
H23 O14 1_555 1_555
H22_2 O14_2 1_555 1_555
H23_2 O14_2 1_555 1_555

#END
