
###############################################################################
#
# This file contains modified crystal structure data generated from the
# MOF subset of the Cambridge Structural Database (CSD) v543 
# hosted by the Cambridge Crystallographic Data Centre (CCDC).
#
# This work is licensed under the Creative Commons
# Attribution-NonCommercial-ShareAlike 4.0 International License.
# To view a copy of this license, visit
# http://creativecommons.org/licenses/by-nc-sa/4.0/
# or send a letter to
# Creative Commons, PO Box 1866, Mountain View, CA 94042, USA.
#
# CIF created using the CSD Python API on 29 September 2022
# The structure has been converted into the P1 space group
# The structure has a 3D framework
# The original CSD entry SEJTIN is in the cubic crystal system
# The framework has been calculated to contain at least 10.0% void space
# The void calculation uses a probe of radius 1.32A, grid spacing 0.4
# The framework is charged, counterions have been retained in the structure
#
###############################################################################

data_SEJTIN
_chemical_formula_moiety         '(C144 H72 Cu24 In6 N24 O48 S12 3-)n'
_symmetry_cell_setting           triclinic
_symmetry_space_group_name_H-M   'P 1'
_symmetry_Int_Tables_number      1
_space_group_name_Hall           'P 1'
loop_
_symmetry_equiv_pos_site_id
_symmetry_equiv_pos_as_xyz
1 x,y,z
_cell_length_a                   22.0484(2)
_cell_length_b                   22.0484(2)
_cell_length_c                   22.0484(2)
_cell_angle_alpha                90
_cell_angle_beta                 90
_cell_angle_gamma                90
_cell_volume                     10718.4
loop_
_atom_site_label
_atom_site_type_symbol
_atom_site_fract_x
_atom_site_fract_y
_atom_site_fract_z
S3 S 0.36029(5) 0.01448(4) 0.01448(4)
S1 S 0.13971(5) 0.01448(4) 0.48552(4)
Cu5 Cu 0.55935(2) 0.02964(3) 0.94065(2)
Cu18 Cu 0.05935(2) 0.05935(2) 0.52964(3)
Cu20 Cu 0.44065(2) 0.05935(2) 0.97036(3)
S4 S 0.13971(5) 0.48552(4) 0.01448(4)
Cu12 Cu 0.55935(2) 0.94065(2) 0.02964(3)
Cu15 Cu 0.44065(2) 0.97036(3) 0.05935(2)
Cu16 Cu 0.05935(2) 0.52964(3) 0.05935(2)
In1 In 0.2500 0.7500 0.7500
Cu1 Cu 0.02964(3) 0.94065(2) 0.55935(2)
N1 N 0.12132(18) 0.92935(12) 0.57065(12)
O1 O 0.17435(15) 0.80144(11) 0.69856(11)
O2 O 0.26956(16) 0.81976(10) 0.68024(10)
C1 C 0.2164(2) 0.82877(16) 0.67123(16)
C2 C 0.2421(2) 0.90864(17) 0.59136(17)
H1 H 0.2830 0.9013 0.5987
C3 C 0.1985(2) 0.87739(15) 0.62261(15)
C4 C 0.1389(2) 0.88944(16) 0.61056(16)
H2 H 0.1094 0.8681 0.6319
C5 C 0.1623(2) 0.96032(15) 0.53968(15)
C6 C 0.2251(2) 0.94989(18) 0.55011(18)
H3 H 0.2542 0.9715 0.5285
Cu2 Cu 0.47036(3) 0.55935(2) 0.55935(2)
S2 S 0.36029(5) 0.48552(4) 0.48552(4)
N2 N 0.37868(18) 0.57065(12) 0.57065(12)
O3 O 0.32565(15) 0.69856(11) 0.69856(11)
O4 O 0.23044(16) 0.68024(10) 0.68024(10)
C7 C 0.2836(2) 0.67123(16) 0.67123(16)
C8 C 0.2579(2) 0.59136(17) 0.59136(17)
H4 H 0.2170 0.5987 0.5987
C9 C 0.3015(2) 0.62261(15) 0.62261(15)
C10 C 0.3611(2) 0.61056(16) 0.61056(16)
H5 H 0.3906 0.6319 0.6319
C11 C 0.3377(2) 0.53968(15) 0.53968(15)
C12 C 0.2749(2) 0.55011(18) 0.55011(18)
H6 H 0.2458 0.5285 0.5285
Cu3 Cu 0.47036(3) 0.94065(2) 0.94065(2)
N3 N 0.37868(18) 0.92935(12) 0.92935(12)
O5 O 0.32565(15) 0.80144(11) 0.80144(11)
O6 O 0.23044(16) 0.81976(10) 0.81976(10)
C13 C 0.2836(2) 0.82877(16) 0.82877(16)
C14 C 0.2579(2) 0.90864(17) 0.90864(17)
H7 H 0.2170 0.9013 0.9013
C15 C 0.3015(2) 0.87739(15) 0.87739(15)
C16 C 0.3611(2) 0.88944(16) 0.88944(16)
H8 H 0.3906 0.8681 0.8681
C17 C 0.3377(2) 0.96032(15) 0.96032(15)
C18 C 0.2749(2) 0.94989(18) 0.94989(18)
H9 H 0.2458 0.9715 0.9715
Cu4 Cu 0.02964(3) 0.55935(2) 0.94065(2)
N4 N 0.12132(18) 0.57065(12) 0.92935(12)
O7 O 0.17435(15) 0.69856(11) 0.80144(11)
O8 O 0.26956(16) 0.68024(10) 0.81976(10)
C19 C 0.2164(2) 0.67123(16) 0.82877(16)
C20 C 0.2421(2) 0.59136(17) 0.90864(17)
H10 H 0.2830 0.5987 0.9013
C21 C 0.1985(2) 0.62261(15) 0.87739(15)
C22 C 0.1389(2) 0.61056(16) 0.88944(16)
H11 H 0.1094 0.6319 0.8681
C23 C 0.1623(2) 0.53968(15) 0.96032(15)
C24 C 0.2251(2) 0.55011(18) 0.94989(18)
H12 H 0.2542 0.5285 0.9715
Cu6 Cu 0.55935(2) 0.47036(3) 0.55935(2)
Cu10 Cu 0.55935(2) 0.55935(2) 0.47036(3)
Cu13 Cu 0.44065(2) 0.52964(3) 0.44065(2)
Cu14 Cu 0.05935(2) 0.97036(3) 0.44065(2)
Cu17 Cu 0.05935(2) 0.44065(2) 0.97036(3)
Cu19 Cu 0.44065(2) 0.44065(2) 0.52964(3)
S5 S 0.51448(4) 0.63971(5) 0.51448(4)
S7 S 0.51448(4) 0.86029(5) 0.98552(4)
S11 S 0.51448(4) 0.51448(4) 0.63971(5)
S12 S 0.51448(4) 0.98552(4) 0.86029(5)
Cu8 Cu 0.94065(2) 0.02964(3) 0.55935(2)
Cu9 Cu 0.94065(2) 0.55935(2) 0.02964(3)
Cu7 Cu 0.94065(2) 0.47036(3) 0.94065(2)
Cu11 Cu 0.94065(2) 0.94065(2) 0.47036(3)
S6 S 0.98552(4) 0.86029(5) 0.51448(4)
S8 S 0.98552(4) 0.63971(5) 0.98552(4)
S9 S 0.98552(4) 0.51448(4) 0.86029(5)
S10 S 0.98552(4) 0.98552(4) 0.63971(5)
S3_2 S 0.01448(4) 0.36029(5) 0.01448(4)
S4_2 S 0.01448(4) 0.13971(5) 0.48552(4)
S1_2 S 0.48552(4) 0.13971(5) 0.01448(4)
Cu18_2 Cu 0.52964(3) 0.05935(2) 0.05935(2)
Cu20_2 Cu 0.97036(3) 0.44065(2) 0.05935(2)
In1_2 In 0.7500 0.2500 0.7500
N1_2 N 0.57065(12) 0.12132(18) 0.92935(12)
O1_2 O 0.69856(11) 0.17435(15) 0.80144(11)
O2_2 O 0.68024(10) 0.26956(16) 0.81976(10)
C1_2 C 0.67123(16) 0.2164(2) 0.82877(16)
C2_2 C 0.59136(17) 0.2421(2) 0.90864(17)
H1_2 H 0.5987 0.2830 0.9013
C3_2 C 0.62261(15) 0.1985(2) 0.87739(15)
C4_2 C 0.61056(16) 0.1389(2) 0.88944(16)
H2_2 H 0.6319 0.1094 0.8681
C5_2 C 0.53968(15) 0.1623(2) 0.96032(15)
C6_2 C 0.55011(18) 0.2251(2) 0.94989(18)
H3_2 H 0.5285 0.2542 0.9715
S2_2 S 0.48552(4) 0.36029(5) 0.48552(4)
N2_2 N 0.57065(12) 0.37868(18) 0.57065(12)
O3_2 O 0.69856(11) 0.32565(15) 0.69856(11)
O4_2 O 0.68024(10) 0.23044(16) 0.68024(10)
C7_2 C 0.67123(16) 0.2836(2) 0.67123(16)
C8_2 C 0.59136(17) 0.2579(2) 0.59136(17)
H4_2 H 0.5987 0.2170 0.5987
C9_2 C 0.62261(15) 0.3015(2) 0.62261(15)
C10_2 C 0.61056(16) 0.3611(2) 0.61056(16)
H5_2 H 0.6319 0.3906 0.6319
C11_2 C 0.53968(15) 0.3377(2) 0.53968(15)
C12_2 C 0.55011(18) 0.2749(2) 0.55011(18)
H6_2 H 0.5285 0.2458 0.5285
N3_2 N 0.92935(12) 0.37868(18) 0.92935(12)
O5_2 O 0.80144(11) 0.32565(15) 0.80144(11)
O6_2 O 0.81976(10) 0.23044(16) 0.81976(10)
C13_2 C 0.82877(16) 0.2836(2) 0.82877(16)
C14_2 C 0.90864(17) 0.2579(2) 0.90864(17)
H7_2 H 0.9013 0.2170 0.9013
C15_2 C 0.87739(15) 0.3015(2) 0.87739(15)
C16_2 C 0.88944(16) 0.3611(2) 0.88944(16)
H8_2 H 0.8681 0.3906 0.8681
C17_2 C 0.96032(15) 0.3377(2) 0.96032(15)
C18_2 C 0.94989(18) 0.2749(2) 0.94989(18)
H9_2 H 0.9715 0.2458 0.9715
N4_2 N 0.92935(12) 0.12132(18) 0.57065(12)
O7_2 O 0.80144(11) 0.17435(15) 0.69856(11)
O8_2 O 0.81976(10) 0.26956(16) 0.68024(10)
C19_2 C 0.82877(16) 0.2164(2) 0.67123(16)
C20_2 C 0.90864(17) 0.2421(2) 0.59136(17)
H10_2 H 0.9013 0.2830 0.5987
C21_2 C 0.87739(15) 0.1985(2) 0.62261(15)
C22_2 C 0.88944(16) 0.1389(2) 0.61056(16)
H11_2 H 0.8681 0.1094 0.6319
C23_2 C 0.96032(15) 0.1623(2) 0.53968(15)
C24_2 C 0.94989(18) 0.2251(2) 0.55011(18)
H12_2 H 0.9715 0.2542 0.5285
Cu17_2 Cu 0.97036(3) 0.05935(2) 0.44065(2)
Cu19_2 Cu 0.52964(3) 0.44065(2) 0.44065(2)
S11_2 S 0.63971(5) 0.51448(4) 0.51448(4)
S12_2 S 0.86029(5) 0.51448(4) 0.98552(4)
S9_2 S 0.86029(5) 0.98552(4) 0.51448(4)
S10_2 S 0.63971(5) 0.98552(4) 0.98552(4)
S3_3 S 0.01448(4) 0.01448(4) 0.36029(5)
S1_3 S 0.01448(4) 0.48552(4) 0.13971(5)
S4_3 S 0.48552(4) 0.01448(4) 0.13971(5)
In1_3 In 0.7500 0.7500 0.2500
N1_3 N 0.92935(12) 0.57065(12) 0.12132(18)
O1_3 O 0.80144(11) 0.69856(11) 0.17435(15)
O2_3 O 0.81976(10) 0.68024(10) 0.26956(16)
C1_3 C 0.82877(16) 0.67123(16) 0.2164(2)
C2_3 C 0.90864(17) 0.59136(17) 0.2421(2)
H1_3 H 0.9013 0.5987 0.2830
C3_3 C 0.87739(15) 0.62261(15) 0.1985(2)
C4_3 C 0.88944(16) 0.61056(16) 0.1389(2)
H2_3 H 0.8681 0.6319 0.1094
C5_3 C 0.96032(15) 0.53968(15) 0.1623(2)
C6_3 C 0.94989(18) 0.55011(18) 0.2251(2)
H3_3 H 0.9715 0.5285 0.2542
S2_3 S 0.48552(4) 0.48552(4) 0.36029(5)
N2_3 N 0.57065(12) 0.57065(12) 0.37868(18)
O3_3 O 0.69856(11) 0.69856(11) 0.32565(15)
O4_3 O 0.68024(10) 0.68024(10) 0.23044(16)
C7_3 C 0.67123(16) 0.67123(16) 0.2836(2)
C8_3 C 0.59136(17) 0.59136(17) 0.2579(2)
H4_3 H 0.5987 0.5987 0.2170
C9_3 C 0.62261(15) 0.62261(15) 0.3015(2)
C10_3 C 0.61056(16) 0.61056(16) 0.3611(2)
H5_3 H 0.6319 0.6319 0.3906
C11_3 C 0.53968(15) 0.53968(15) 0.3377(2)
C12_3 C 0.55011(18) 0.55011(18) 0.2749(2)
H6_3 H 0.5285 0.5285 0.2458
N3_3 N 0.92935(12) 0.92935(12) 0.37868(18)
O5_3 O 0.80144(11) 0.80144(11) 0.32565(15)
O6_3 O 0.81976(10) 0.81976(10) 0.23044(16)
C13_3 C 0.82877(16) 0.82877(16) 0.2836(2)
C14_3 C 0.90864(17) 0.90864(17) 0.2579(2)
H7_3 H 0.9013 0.9013 0.2170
C15_3 C 0.87739(15) 0.87739(15) 0.3015(2)
C16_3 C 0.88944(16) 0.88944(16) 0.3611(2)
H8_3 H 0.8681 0.8681 0.3906
C17_3 C 0.96032(15) 0.96032(15) 0.3377(2)
C18_3 C 0.94989(18) 0.94989(18) 0.2749(2)
H9_3 H 0.9715 0.9715 0.2458
N4_3 N 0.57065(12) 0.92935(12) 0.12132(18)
O7_3 O 0.69856(11) 0.80144(11) 0.17435(15)
O8_3 O 0.68024(10) 0.81976(10) 0.26956(16)
C19_3 C 0.67123(16) 0.82877(16) 0.2164(2)
C20_3 C 0.59136(17) 0.90864(17) 0.2421(2)
H10_3 H 0.5987 0.9013 0.2830
C21_3 C 0.62261(15) 0.87739(15) 0.1985(2)
C22_3 C 0.61056(16) 0.88944(16) 0.1389(2)
H11_3 H 0.6319 0.8681 0.1094
C23_3 C 0.53968(15) 0.96032(15) 0.1623(2)
C24_3 C 0.55011(18) 0.94989(18) 0.2251(2)
H12_3 H 0.5285 0.9715 0.2542
In1_4 In 0.2500 0.7500 0.2500
N1_4 N 0.42935(12) 0.62132(18) 0.42935(12)
O1_4 O 0.30144(11) 0.67435(15) 0.30144(11)
O2_4 O 0.31976(10) 0.76956(16) 0.31976(10)
C1_4 C 0.32877(16) 0.7164(2) 0.32877(16)
C2_4 C 0.40864(17) 0.7421(2) 0.40864(17)
H1_4 H 0.4013 0.7830 0.4013
C3_4 C 0.37739(15) 0.6985(2) 0.37739(15)
C4_4 C 0.38944(16) 0.6389(2) 0.38944(16)
H2_4 H 0.3681 0.6094 0.3681
C5_4 C 0.46032(15) 0.6623(2) 0.46032(15)
C6_4 C 0.44989(18) 0.7251(2) 0.44989(18)
H3_4 H 0.4715 0.7542 0.4715
N2_4 N 0.07065(12) 0.87868(18) 0.42935(12)
O3_4 O 0.19856(11) 0.82565(15) 0.30144(11)
O4_4 O 0.18024(10) 0.73044(16) 0.31976(10)
C7_4 C 0.17123(16) 0.7836(2) 0.32877(16)
C8_4 C 0.09136(17) 0.7579(2) 0.40864(17)
H4_4 H 0.0987 0.7170 0.4013
C9_4 C 0.12261(15) 0.8015(2) 0.37739(15)
C10_4 C 0.11056(16) 0.8611(2) 0.38944(16)
H5_4 H 0.1319 0.8906 0.3681
C11_4 C 0.03968(15) 0.8377(2) 0.46032(15)
C12_4 C 0.05011(18) 0.7749(2) 0.44989(18)
H6_4 H 0.0285 0.7458 0.4715
N3_4 N 0.42935(12) 0.87868(18) 0.07065(12)
O5_4 O 0.30144(11) 0.82565(15) 0.19856(11)
O6_4 O 0.31976(10) 0.73044(16) 0.18024(10)
C13_4 C 0.32877(16) 0.7836(2) 0.17123(16)
C14_4 C 0.40864(17) 0.7579(2) 0.09136(17)
H7_4 H 0.4013 0.7170 0.0987
C15_4 C 0.37739(15) 0.8015(2) 0.12261(15)
C16_4 C 0.38944(16) 0.8611(2) 0.11056(16)
H8_4 H 0.3681 0.8906 0.1319
C17_4 C 0.46032(15) 0.8377(2) 0.03968(15)
C18_4 C 0.44989(18) 0.7749(2) 0.05011(18)
H9_4 H 0.4715 0.7458 0.0285
N4_4 N 0.07065(12) 0.62132(18) 0.07065(12)
O7_4 O 0.19856(11) 0.67435(15) 0.19856(11)
O8_4 O 0.18024(10) 0.76956(16) 0.18024(10)
C19_4 C 0.17123(16) 0.7164(2) 0.17123(16)
C20_4 C 0.09136(17) 0.7421(2) 0.09136(17)
H10_4 H 0.0987 0.7830 0.0987
C21_4 C 0.12261(15) 0.6985(2) 0.12261(15)
C22_4 C 0.11056(16) 0.6389(2) 0.11056(16)
H11_4 H 0.1319 0.6094 0.1319
C23_4 C 0.03968(15) 0.6623(2) 0.03968(15)
C24_4 C 0.05011(18) 0.7251(2) 0.05011(18)
H12_4 H 0.0285 0.7542 0.0285
In1_5 In 0.7500 0.2500 0.2500
N1_5 N 0.62132(18) 0.07065(12) 0.07065(12)
O1_5 O 0.67435(15) 0.19856(11) 0.19856(11)
O2_5 O 0.76956(16) 0.18024(10) 0.18024(10)
C1_5 C 0.7164(2) 0.17123(16) 0.17123(16)
C2_5 C 0.7421(2) 0.09136(17) 0.09136(17)
H1_5 H 0.7830 0.0987 0.0987
C3_5 C 0.6985(2) 0.12261(15) 0.12261(15)
C4_5 C 0.6389(2) 0.11056(16) 0.11056(16)
H2_5 H 0.6094 0.1319 0.1319
C5_5 C 0.6623(2) 0.03968(15) 0.03968(15)
C6_5 C 0.7251(2) 0.05011(18) 0.05011(18)
H3_5 H 0.7542 0.0285 0.0285
N2_5 N 0.87868(18) 0.07065(12) 0.42935(12)
O3_5 O 0.82565(15) 0.19856(11) 0.30144(11)
O4_5 O 0.73044(16) 0.18024(10) 0.31976(10)
C7_5 C 0.7836(2) 0.17123(16) 0.32877(16)
C8_5 C 0.7579(2) 0.09136(17) 0.40864(17)
H4_5 H 0.7170 0.0987 0.4013
C9_5 C 0.8015(2) 0.12261(15) 0.37739(15)
C10_5 C 0.8611(2) 0.11056(16) 0.38944(16)
H5_5 H 0.8906 0.1319 0.3681
C11_5 C 0.8377(2) 0.03968(15) 0.46032(15)
C12_5 C 0.7749(2) 0.05011(18) 0.44989(18)
H6_5 H 0.7458 0.0285 0.4715
N3_5 N 0.87868(18) 0.42935(12) 0.07065(12)
O5_5 O 0.82565(15) 0.30144(11) 0.19856(11)
O6_5 O 0.73044(16) 0.31976(10) 0.18024(10)
C13_5 C 0.7836(2) 0.32877(16) 0.17123(16)
C14_5 C 0.7579(2) 0.40864(17) 0.09136(17)
H7_5 H 0.7170 0.4013 0.0987
C15_5 C 0.8015(2) 0.37739(15) 0.12261(15)
C16_5 C 0.8611(2) 0.38944(16) 0.11056(16)
H8_5 H 0.8906 0.3681 0.1319
C17_5 C 0.8377(2) 0.46032(15) 0.03968(15)
C18_5 C 0.7749(2) 0.44989(18) 0.05011(18)
H9_5 H 0.7458 0.4715 0.0285
N4_5 N 0.62132(18) 0.42935(12) 0.42935(12)
O7_5 O 0.67435(15) 0.30144(11) 0.30144(11)
O8_5 O 0.76956(16) 0.31976(10) 0.31976(10)
C19_5 C 0.7164(2) 0.32877(16) 0.32877(16)
C20_5 C 0.7421(2) 0.40864(17) 0.40864(17)
H10_5 H 0.7830 0.4013 0.4013
C21_5 C 0.6985(2) 0.37739(15) 0.37739(15)
C22_5 C 0.6389(2) 0.38944(16) 0.38944(16)
H11_5 H 0.6094 0.3681 0.3681
C23_5 C 0.6623(2) 0.46032(15) 0.46032(15)
C24_5 C 0.7251(2) 0.44989(18) 0.44989(18)
H12_5 H 0.7542 0.4715 0.4715
In1_6 In 0.2500 0.2500 0.7500
N1_6 N 0.07065(12) 0.42935(12) 0.87868(18)
O1_6 O 0.19856(11) 0.30144(11) 0.82565(15)
O2_6 O 0.18024(10) 0.31976(10) 0.73044(16)
C1_6 C 0.17123(16) 0.32877(16) 0.7836(2)
C2_6 C 0.09136(17) 0.40864(17) 0.7579(2)
H1_6 H 0.0987 0.4013 0.7170
C3_6 C 0.12261(15) 0.37739(15) 0.8015(2)
C4_6 C 0.11056(16) 0.38944(16) 0.8611(2)
H2_6 H 0.1319 0.3681 0.8906
C5_6 C 0.03968(15) 0.46032(15) 0.8377(2)
C6_6 C 0.05011(18) 0.44989(18) 0.7749(2)
H3_6 H 0.0285 0.4715 0.7458
N2_6 N 0.07065(12) 0.07065(12) 0.62132(18)
O3_6 O 0.19856(11) 0.19856(11) 0.67435(15)
O4_6 O 0.18024(10) 0.18024(10) 0.76956(16)
C7_6 C 0.17123(16) 0.17123(16) 0.7164(2)
C8_6 C 0.09136(17) 0.09136(17) 0.7421(2)
H4_6 H 0.0987 0.0987 0.7830
C9_6 C 0.12261(15) 0.12261(15) 0.6985(2)
C10_6 C 0.11056(16) 0.11056(16) 0.6389(2)
H5_6 H 0.1319 0.1319 0.6094
C11_6 C 0.03968(15) 0.03968(15) 0.6623(2)
C12_6 C 0.05011(18) 0.05011(18) 0.7251(2)
H6_6 H 0.0285 0.0285 0.7542
N3_6 N 0.42935(12) 0.42935(12) 0.62132(18)
O5_6 O 0.30144(11) 0.30144(11) 0.67435(15)
O6_6 O 0.31976(10) 0.31976(10) 0.76956(16)
C13_6 C 0.32877(16) 0.32877(16) 0.7164(2)
C14_6 C 0.40864(17) 0.40864(17) 0.7421(2)
H7_6 H 0.4013 0.4013 0.7830
C15_6 C 0.37739(15) 0.37739(15) 0.6985(2)
C16_6 C 0.38944(16) 0.38944(16) 0.6389(2)
H8_6 H 0.3681 0.3681 0.6094
C17_6 C 0.46032(15) 0.46032(15) 0.6623(2)
C18_6 C 0.44989(18) 0.44989(18) 0.7251(2)
H9_6 H 0.4715 0.4715 0.7542
N4_6 N 0.42935(12) 0.07065(12) 0.87868(18)
O7_6 O 0.30144(11) 0.19856(11) 0.82565(15)
O8_6 O 0.31976(10) 0.18024(10) 0.73044(16)
C19_6 C 0.32877(16) 0.17123(16) 0.7836(2)
C20_6 C 0.40864(17) 0.09136(17) 0.7579(2)
H10_6 H 0.4013 0.0987 0.7170
C21_6 C 0.37739(15) 0.12261(15) 0.8015(2)
C22_6 C 0.38944(16) 0.11056(16) 0.8611(2)
H11_6 H 0.3681 0.1319 0.8906
C23_6 C 0.46032(15) 0.03968(15) 0.8377(2)
C24_6 C 0.44989(18) 0.05011(18) 0.7749(2)
H12_6 H 0.4715 0.0285 0.7458
loop_
_geom_bond_atom_site_label_1
_geom_bond_atom_site_label_2
_geom_bond_site_symmetry_1
_geom_bond_site_symmetry_2
S1 Cu18 1_555 1_555
Cu5 Cu20 1_555 1_555
S4 Cu16 1_555 1_555
Cu12 Cu15 1_555 1_555
In1 O1 1_555 1_555
Cu1 N1 1_555 1_555
N1 C4 1_555 1_555
O1 C1 1_555 1_555
O2 In1 1_555 1_555
C1 O2 1_555 1_555
C2 H1 1_555 1_555
C3 C1 1_555 1_555
C4 C3 1_555 1_555
H2 C4 1_555 1_555
C5 N1 1_555 1_555
C6 C2 1_555 1_555
H3 C6 1_555 1_555
Cu2 N2 1_555 1_555
S2 C11 1_555 1_555
N2 C10 1_555 1_555
O3 In1 1_555 1_555
O4 In1 1_555 1_555
C7 O3 1_555 1_555
C8 H4 1_555 1_555
C9 C7 1_555 1_555
C10 C9 1_555 1_555
H5 C10 1_555 1_555
C11 N2 1_555 1_555
C12 C8 1_555 1_555
H6 C12 1_555 1_555
Cu3 N3 1_555 1_555
N3 C16 1_555 1_555
O5 In1 1_555 1_555
O6 In1 1_555 1_555
C13 O5 1_555 1_555
C14 H7 1_555 1_555
C15 C13 1_555 1_555
C16 C15 1_555 1_555
H8 C16 1_555 1_555
C17 N3 1_555 1_555
C18 C14 1_555 1_555
H9 C18 1_555 1_555
Cu4 N4 1_555 1_555
N4 C22 1_555 1_555
O7 In1 1_555 1_555
O8 In1 1_555 1_555
C19 O7 1_555 1_555
C20 H10 1_555 1_555
C21 C19 1_555 1_555
C22 C21 1_555 1_555
H11 C22 1_555 1_555
C23 N4 1_555 1_555
C24 C20 1_555 1_555
H12 C24 1_555 1_555
Cu6 Cu2 1_555 1_555
Cu10 Cu2 1_555 1_555
Cu13 Cu2 1_555 1_555
Cu14 Cu1 1_555 1_555
Cu17 Cu4 1_555 1_555
Cu19 Cu2 1_555 1_555
S5 Cu2 1_555 1_555
S7 Cu3 1_555 1_555
S11 Cu2 1_555 1_555
S12 Cu3 1_555 1_555
C2 C3 1_555 1_555
C5 C6 1_555 1_555
S2 Cu13 1_555 1_555
S2 Cu19 1_555 1_555
O4 C7 1_555 1_555
C8 C9 1_555 1_555
C11 C12 1_555 1_555
O6 C13 1_555 1_555
C14 C15 1_555 1_555
C17 C18 1_555 1_555
O8 C19 1_555 1_555
C20 C21 1_555 1_555
C23 C24 1_555 1_555
Cu6 Cu10 1_555 1_555
Cu6 Cu19 1_555 1_555
Cu6 S11 1_555 1_555
Cu10 Cu13 1_555 1_555
Cu10 S5 1_555 1_555
Cu13 Cu19 1_555 1_555
Cu7 S9 1_555 1_555
Cu11 S6 1_555 1_555
S4_2 Cu18 1_555 1_555
S1_2 Cu18_2 1_555 1_555
Cu9 Cu20_2 1_555 1_555
In1_2 O1_2 1_555 1_555
Cu5 N1_2 1_555 1_555
N1_2 C4_2 1_555 1_555
O1_2 C1_2 1_555 1_555
O2_2 In1_2 1_555 1_555
C1_2 O2_2 1_555 1_555
C2_2 H1_2 1_555 1_555
C3_2 C1_2 1_555 1_555
C4_2 C3_2 1_555 1_555
H2_2 C4_2 1_555 1_555
C5_2 N1_2 1_555 1_555
C6_2 C2_2 1_555 1_555
H3_2 C6_2 1_555 1_555
Cu6 N2_2 1_555 1_555
S2_2 C11_2 1_555 1_555
N2_2 C10_2 1_555 1_555
O3_2 In1_2 1_555 1_555
O4_2 In1_2 1_555 1_555
C7_2 O3_2 1_555 1_555
C8_2 H4_2 1_555 1_555
C9_2 C7_2 1_555 1_555
C10_2 C9_2 1_555 1_555
H5_2 C10_2 1_555 1_555
C11_2 N2_2 1_555 1_555
C12_2 C8_2 1_555 1_555
H6_2 C12_2 1_555 1_555
Cu7 N3_2 1_555 1_555
N3_2 C16_2 1_555 1_555
O5_2 In1_2 1_555 1_555
O6_2 In1_2 1_555 1_555
C13_2 O5_2 1_555 1_555
C14_2 H7_2 1_555 1_555
C15_2 C13_2 1_555 1_555
C16_2 C15_2 1_555 1_555
H8_2 C16_2 1_555 1_555
C17_2 N3_2 1_555 1_555
C18_2 C14_2 1_555 1_555
H9_2 C18_2 1_555 1_555
Cu8 N4_2 1_555 1_555
N4_2 C22_2 1_555 1_555
O7_2 In1_2 1_555 1_555
O8_2 In1_2 1_555 1_555
C19_2 O7_2 1_555 1_555
C20_2 H10_2 1_555 1_555
C21_2 C19_2 1_555 1_555
C22_2 C21_2 1_555 1_555
H11_2 C22_2 1_555 1_555
C23_2 N4_2 1_555 1_555
C24_2 C20_2 1_555 1_555
H12_2 C24_2 1_555 1_555
Cu17_2 Cu8 1_555 1_555
Cu19_2 Cu6 1_555 1_555
S11_2 Cu6 1_555 1_555
S12_2 Cu7 1_555 1_555
C2_2 C3_2 1_555 1_555
C5_2 C6_2 1_555 1_555
S2_2 Cu19 1_555 1_555
S2_2 Cu19_2 1_555 1_555
O4_2 C7_2 1_555 1_555
C8_2 C9_2 1_555 1_555
C11_2 C12_2 1_555 1_555
O6_2 C13_2 1_555 1_555
C14_2 C15_2 1_555 1_555
C17_2 C18_2 1_555 1_555
O8_2 C19_2 1_555 1_555
C20_2 C21_2 1_555 1_555
C23_2 C24_2 1_555 1_555
Cu10 Cu19_2 1_555 1_555
Cu10 S11_2 1_555 1_555
Cu19 Cu19_2 1_555 1_555
Cu11 S9_2 1_555 1_555
S1_3 Cu16 1_555 1_555
S4_3 Cu18_2 1_555 1_555
In1_3 O1_3 1_555 1_555
Cu9 N1_3 1_555 1_555
N1_3 C4_3 1_555 1_555
O1_3 C1_3 1_555 1_555
O2_3 In1_3 1_555 1_555
C1_3 O2_3 1_555 1_555
C2_3 H1_3 1_555 1_555
C3_3 C1_3 1_555 1_555
C4_3 C3_3 1_555 1_555
H2_3 C4_3 1_555 1_555
C5_3 N1_3 1_555 1_555
C6_3 C2_3 1_555 1_555
H3_3 C6_3 1_555 1_555
Cu10 N2_3 1_555 1_555
S2_3 C11_3 1_555 1_555
N2_3 C10_3 1_555 1_555
O3_3 In1_3 1_555 1_555
O4_3 In1_3 1_555 1_555
C7_3 O3_3 1_555 1_555
C8_3 H4_3 1_555 1_555
C9_3 C7_3 1_555 1_555
C10_3 C9_3 1_555 1_555
H5_3 C10_3 1_555 1_555
C11_3 N2_3 1_555 1_555
C12_3 C8_3 1_555 1_555
H6_3 C12_3 1_555 1_555
Cu11 N3_3 1_555 1_555
N3_3 C16_3 1_555 1_555
O5_3 In1_3 1_555 1_555
O6_3 In1_3 1_555 1_555
C13_3 O5_3 1_555 1_555
C14_3 H7_3 1_555 1_555
C15_3 C13_3 1_555 1_555
C16_3 C15_3 1_555 1_555
H8_3 C16_3 1_555 1_555
C17_3 N3_3 1_555 1_555
C18_3 C14_3 1_555 1_555
H9_3 C18_3 1_555 1_555
Cu12 N4_3 1_555 1_555
N4_3 C22_3 1_555 1_555
O7_3 In1_3 1_555 1_555
O8_3 In1_3 1_555 1_555
C19_3 O7_3 1_555 1_555
C20_3 H10_3 1_555 1_555
C21_3 C19_3 1_555 1_555
C22_3 C21_3 1_555 1_555
H11_3 C22_3 1_555 1_555
C23_3 N4_3 1_555 1_555
C24_3 C20_3 1_555 1_555
H12_3 C24_3 1_555 1_555
C2_3 C3_3 1_555 1_555
C5_3 C6_3 1_555 1_555
S2_3 Cu19_2 1_555 1_555
S2_3 Cu13 1_555 1_555
O4_3 C7_3 1_555 1_555
C8_3 C9_3 1_555 1_555
C11_3 C12_3 1_555 1_555
O6_3 C13_3 1_555 1_555
C14_3 C15_3 1_555 1_555
C17_3 C18_3 1_555 1_555
O8_3 C19_3 1_555 1_555
C20_3 C21_3 1_555 1_555
C23_3 C24_3 1_555 1_555
Cu19_2 Cu13 1_555 1_555
In1_4 O1_4 1_555 1_555
Cu13 N1_4 1_555 1_555
S5 C5_4 1_555 1_555
N1_4 C4_4 1_555 1_555
O1_4 C1_4 1_555 1_555
O2_4 In1_4 1_555 1_555
C1_4 O2_4 1_555 1_555
C2_4 H1_4 1_555 1_555
C3_4 C1_4 1_555 1_555
C4_4 C3_4 1_555 1_555
H2_4 C4_4 1_555 1_555
C5_4 N1_4 1_555 1_555
C6_4 C2_4 1_555 1_555
H3_4 C6_4 1_555 1_555
Cu14 N2_4 1_555 1_555
N2_4 C10_4 1_555 1_555
O3_4 In1_4 1_555 1_555
O4_4 In1_4 1_555 1_555
C7_4 O3_4 1_555 1_555
C8_4 H4_4 1_555 1_555
C9_4 C7_4 1_555 1_555
C10_4 C9_4 1_555 1_555
H5_4 C10_4 1_555 1_555
C11_4 N2_4 1_555 1_555
C12_4 C8_4 1_555 1_555
H6_4 C12_4 1_555 1_555
Cu15 N3_4 1_555 1_555
N3_4 C16_4 1_555 1_555
O5_4 In1_4 1_555 1_555
O6_4 In1_4 1_555 1_555
C13_4 O5_4 1_555 1_555
C14_4 H7_4 1_555 1_555
C15_4 C13_4 1_555 1_555
C16_4 C15_4 1_555 1_555
H8_4 C16_4 1_555 1_555
C17_4 N3_4 1_555 1_555
C18_4 C14_4 1_555 1_555
H9_4 C18_4 1_555 1_555
Cu16 N4_4 1_555 1_555
N4_4 C22_4 1_555 1_555
O7_4 In1_4 1_555 1_555
O8_4 In1_4 1_555 1_555
C19_4 O7_4 1_555 1_555
C20_4 H10_4 1_555 1_555
C21_4 C19_4 1_555 1_555
C22_4 C21_4 1_555 1_555
H11_4 C22_4 1_555 1_555
C23_4 N4_4 1_555 1_555
C24_4 C20_4 1_555 1_555
H12_4 C24_4 1_555 1_555
C2_4 C3_4 1_555 1_555
C5_4 C6_4 1_555 1_555
O4_4 C7_4 1_555 1_555
C8_4 C9_4 1_555 1_555
C11_4 C12_4 1_555 1_555
O6_4 C13_4 1_555 1_555
C14_4 C15_4 1_555 1_555
C17_4 C18_4 1_555 1_555
O8_4 C19_4 1_555 1_555
C20_4 C21_4 1_555 1_555
C23_4 C24_4 1_555 1_555
In1_5 O1_5 1_555 1_555
Cu18_2 N1_5 1_555 1_555
N1_5 C4_5 1_555 1_555
O1_5 C1_5 1_555 1_555
O2_5 In1_5 1_555 1_555
C1_5 O2_5 1_555 1_555
C2_5 H1_5 1_555 1_555
C3_5 C1_5 1_555 1_555
C4_5 C3_5 1_555 1_555
H2_5 C4_5 1_555 1_555
C5_5 N1_5 1_555 1_555
C6_5 C2_5 1_555 1_555
H3_5 C6_5 1_555 1_555
Cu17_2 N2_5 1_555 1_555
N2_5 C10_5 1_555 1_555
O3_5 In1_5 1_555 1_555
O4_5 In1_5 1_555 1_555
C7_5 O3_5 1_555 1_555
C8_5 H4_5 1_555 1_555
C9_5 C7_5 1_555 1_555
C10_5 C9_5 1_555 1_555
H5_5 C10_5 1_555 1_555
C11_5 N2_5 1_555 1_555
C12_5 C8_5 1_555 1_555
H6_5 C12_5 1_555 1_555
Cu20_2 N3_5 1_555 1_555
N3_5 C16_5 1_555 1_555
O5_5 In1_5 1_555 1_555
O6_5 In1_5 1_555 1_555
C13_5 O5_5 1_555 1_555
C14_5 H7_5 1_555 1_555
C15_5 C13_5 1_555 1_555
C16_5 C15_5 1_555 1_555
H8_5 C16_5 1_555 1_555
C17_5 N3_5 1_555 1_555
C18_5 C14_5 1_555 1_555
H9_5 C18_5 1_555 1_555
Cu19_2 N4_5 1_555 1_555
S11_2 C23_5 1_555 1_555
N4_5 C22_5 1_555 1_555
O7_5 In1_5 1_555 1_555
O8_5 In1_5 1_555 1_555
C19_5 O7_5 1_555 1_555
C20_5 H10_5 1_555 1_555
C21_5 C19_5 1_555 1_555
C22_5 C21_5 1_555 1_555
H11_5 C22_5 1_555 1_555
C23_5 N4_5 1_555 1_555
C24_5 C20_5 1_555 1_555
H12_5 C24_5 1_555 1_555
C2_5 C3_5 1_555 1_555
C5_5 C6_5 1_555 1_555
O4_5 C7_5 1_555 1_555
C8_5 C9_5 1_555 1_555
C11_5 C12_5 1_555 1_555
O6_5 C13_5 1_555 1_555
C14_5 C15_5 1_555 1_555
C17_5 C18_5 1_555 1_555
O8_5 C19_5 1_555 1_555
C20_5 C21_5 1_555 1_555
C23_5 C24_5 1_555 1_555
In1_6 O1_6 1_555 1_555
Cu17 N1_6 1_555 1_555
N1_6 C4_6 1_555 1_555
O1_6 C1_6 1_555 1_555
O2_6 In1_6 1_555 1_555
C1_6 O2_6 1_555 1_555
C2_6 H1_6 1_555 1_555
C3_6 C1_6 1_555 1_555
C4_6 C3_6 1_555 1_555
H2_6 C4_6 1_555 1_555
C5_6 N1_6 1_555 1_555
C6_6 C2_6 1_555 1_555
H3_6 C6_6 1_555 1_555
Cu18 N2_6 1_555 1_555
N2_6 C10_6 1_555 1_555
O3_6 In1_6 1_555 1_555
O4_6 In1_6 1_555 1_555
C7_6 O3_6 1_555 1_555
C8_6 H4_6 1_555 1_555
C9_6 C7_6 1_555 1_555
C10_6 C9_6 1_555 1_555
H5_6 C10_6 1_555 1_555
C11_6 N2_6 1_555 1_555
C12_6 C8_6 1_555 1_555
H6_6 C12_6 1_555 1_555
Cu19 N3_6 1_555 1_555
S11 C17_6 1_555 1_555
N3_6 C16_6 1_555 1_555
O5_6 In1_6 1_555 1_555
O6_6 In1_6 1_555 1_555
C13_6 O5_6 1_555 1_555
C14_6 H7_6 1_555 1_555
C15_6 C13_6 1_555 1_555
C16_6 C15_6 1_555 1_555
H8_6 C16_6 1_555 1_555
C17_6 N3_6 1_555 1_555
C18_6 C14_6 1_555 1_555
H9_6 C18_6 1_555 1_555
Cu20 N4_6 1_555 1_555
N4_6 C22_6 1_555 1_555
O7_6 In1_6 1_555 1_555
O8_6 In1_6 1_555 1_555
C19_6 O7_6 1_555 1_555
C20_6 H10_6 1_555 1_555
C21_6 C19_6 1_555 1_555
C22_6 C21_6 1_555 1_555
H11_6 C22_6 1_555 1_555
C23_6 N4_6 1_555 1_555
C24_6 C20_6 1_555 1_555
H12_6 C24_6 1_555 1_555
C2_6 C3_6 1_555 1_555
C5_6 C6_6 1_555 1_555
O4_6 C7_6 1_555 1_555
C8_6 C9_6 1_555 1_555
C11_6 C12_6 1_555 1_555
O6_6 C13_6 1_555 1_555
C14_6 C15_6 1_555 1_555
C17_6 C18_6 1_555 1_555
O8_6 C19_6 1_555 1_555
C20_6 C21_6 1_555 1_555
C23_6 C24_6 1_555 1_555

#END
