
###############################################################################
#
# This file contains modified crystal structure data generated from the
# MOF subset of the Cambridge Structural Database (CSD) v543 
# hosted by the Cambridge Crystallographic Data Centre (CCDC).
#
# This work is licensed under the Creative Commons
# Attribution-NonCommercial-ShareAlike 4.0 International License.
# To view a copy of this license, visit
# http://creativecommons.org/licenses/by-nc-sa/4.0/
# or send a letter to
# Creative Commons, PO Box 1866, Mountain View, CA 94042, USA.
#
# CIF created using the CSD Python API on 29 September 2022
# The structure has been converted into the P1 space group
# The structure has a 3D framework
# The original CSD entry SEJXAJ is in the monoclinic crystal system
# The framework has been calculated to contain at least 10.0% void space
# The void calculation uses a probe of radius 1.32A, grid spacing 0.4
#
###############################################################################

data_SEJXAJ
_chemical_formula_moiety         '(C134 H134 N50 O51 Zn14)n'
_symmetry_cell_setting           triclinic
_symmetry_space_group_name_H-M   'P 1'
_symmetry_Int_Tables_number      1
_space_group_name_Hall           'P 1'
loop_
_symmetry_equiv_pos_site_id
_symmetry_equiv_pos_as_xyz
1 x,y,z
_cell_length_a                   20.8819(3)
_cell_length_b                   9.54030(10)
_cell_length_c                   25.6196(3)
_cell_angle_alpha                90
_cell_angle_beta                 101.5825(6)
_cell_angle_gamma                90
_cell_volume                     4999.99
loop_
_atom_site_label
_atom_site_type_symbol
_atom_site_fract_x
_atom_site_fract_y
_atom_site_fract_z
N1 N 0.5558(6) 0.5350(13) 0.7212(6)
H1 H 0.5642 0.4709 0.6972
H2 H 0.5268 0.4984 0.7396
C1 C 0.5316(13) 0.671(2) 0.6946(10)
H3 H 0.4906 0.6550 0.6691
H4 H 0.5240 0.7387 0.7217
H5 H 0.5644 0.7091 0.6759
C2 C 0.6217(10) 0.586(2) 0.7604(10)
H6 H 0.6429 0.5054 0.7806
H7 H 0.6514 0.6267 0.7394
H8 H 0.6110 0.6563 0.7851
N1_2 N 0.0558(6) 0.4650(13) 0.2212(6)
H1_2 H 0.0642 0.5291 0.1972
H2_2 H 0.0268 0.5016 0.2396
C1_2 C 0.0316(13) 0.329(2) 0.1946(10)
H4_2 H 0.0240 0.2613 0.2217
H5_2 H 0.0644 0.2909 0.1759
C2_2 C 0.1217(10) 0.414(2) 0.2604(10)
H6_2 H 0.1429 0.4946 0.2806
H7_2 H 0.1514 0.3733 0.2394
H8_2 H 0.1110 0.3437 0.2851
H3_2 H 0.9906 0.3450 0.1691
O19 O 0.0880(2) 0.1506(4) 0.94621(19)
O20 O 0.0530(3) 0.2116(5) 0.8612(2)
C52 C 0.0612(3) 0.1241(7) 0.8977(3)
Zn15 Zn 0.12404(4) 0.33464(7) 0.96701(3)
Zn1 Zn 0.03507(5) 0.39986(9) 0.54554(4)
O17 O 0.1483(3) 0.6461(5) 0.9742(2)
O18 O 0.0726(2) 0.4909(5) 0.9362(2)
N3 N 0.0380(5) 0.3198(11) 0.7087(4)
N4 N 0.0154(4) 0.4088(9) 0.6188(3)
H16 H 0.0024 0.3210 0.7942
C6 C 0.0485(6) 0.3335(15) 0.6600(5)
H24 H 0.0849 0.2827 0.6528
C45 C 0.0053(3) 0.6942(6) 0.8698(3)
C46 C 0.0578(3) 0.7284(7) 0.9100(3)
C47 C 0.0744(3) 0.8689(6) 0.9198(3)
H39 H 0.1085 0.8934 0.9489
C48 C 0.0413(3) 0.9733(6) 0.8872(2)
C51 C 0.0966(3) 0.6162(7) 0.9432(3)
O27 O 0.0667(3) 0.2109(6) 0.5394(3)
O28 O 0.0889(3) 0.5509(6) 0.5264(3)
O29 O 0.0191(3) 0.7011(6) 0.5512(2)
Zn13 Zn 0.41957(4) 0.35898(8) 0.02128(4)
N2 N 0.8963(7) 0.0075(12) 0.6076(5)
C4 C 0.9307(11) 0.1265(19) 0.6293(9)
H10 H 0.9100 0.1660 0.6571
H11 H 0.9304 0.1964 0.6012
H12 H 0.9760 0.1006 0.6448
H13 H 0.8399 0.0396 0.6607
Zn7 Zn 0.66225(4) 0.08060(7) 0.69375(3)
O11 O 0.6088(3) 0.0338(6) 0.7458(2)
O12 O 0.6212(7) 0.2518(8) 0.7781(5)
O13 O 0.4903(4) 0.4043(6) 0.9044(3)
O14 O 0.4432(3) 0.2509(5) 0.9499(2)
O21 O 0.6079(2) 0.1465(5) 0.6271(2)
O22 O 0.6130(3) 0.3630(5) 0.6596(2)
O23 O 0.4441(2) 0.0278(5) 0.4720(2)
O24 O 0.3728(3) 0.1868(6) 0.4311(2)
O25 O 0.4382(2) 0.6913(5) 0.47103(19)
O26 O 0.4647(4) 0.7360(6) 0.5573(2)
C37 C 0.5598(5) 0.0931(9) 0.8183(4)
C38 C 0.5377(5) 0.1978(8) 0.8484(4)
H36 H 0.5475 0.2930 0.8423
C39 C 0.5017(4) 0.1657(8) 0.8870(4)
C40 C 0.4889(5) 0.0257(8) 0.8957(4)
H37 H 0.4655 0.0019 0.9227
C42 C 0.6002(6) 0.1340(10) 0.7775(4)
C43 C 0.4766(4) 0.2796(8) 0.9172(3)
H40 H 0.9683 0.0079 0.8222
C53 C 0.5401(3) 0.3201(7) 0.5782(3)
C54 C 0.5076(3) 0.2205(7) 0.5426(3)
H41 H 0.5189 0.1243 0.5476
C55 C 0.4586(3) 0.2604(7) 0.4998(3)
C56 C 0.4432(3) 0.4016(7) 0.4921(3)
H42 H 0.4103 0.4301 0.4628
C57 C 0.4764(3) 0.5024(7) 0.5276(3)
C58 C 0.5234(3) 0.4611(7) 0.5707(3)
H43 H 0.5445 0.5291 0.5954
C59 C 0.5905(3) 0.2774(7) 0.6252(3)
C60 C 0.4214(4) 0.1514(7) 0.4643(3)
C61 C 0.4585(3) 0.6565(7) 0.5191(3)
Zn11 Zn 0.43608(5) 0.55595(9) 0.92107(4)
Zn17 Zn 0.39115(4) 0.86409(7) 0.45073(3)
N23 N 0.7391(3) 0.1954(6) 0.7261(2)
O7 O 0.5889(3) 0.4491(6) 0.0264(3)
O8 O 0.5191(3) 0.2989(6) 0.0512(2)
C29 C 0.6718(4) 0.2413(9) 0.0096(4)
H33 H 0.6847 0.3362 0.0073
C30 C 0.6137(4) 0.2104(9) 0.0251(4)
C31 C 0.5954(4) 0.0709(8) 0.0298(4)
H34 H 0.5558 0.0496 0.0410
C34 C 0.5694(4) 0.3265(9) 0.0357(4)
Zn9 Zn 0.53507(5) 0.60014(9) 0.04554(4)
O1 O 0.8877(4) 0.8291(6) 0.5491(3)
C3 C 0.9120(7) 0.9324(12) 0.5699(5)
H9 H 0.9488 0.9654 0.5569
C5 C 0.8437(10) 0.969(2) 0.6336(9)
H14 H 0.8528 0.8775 0.6505
H15 H 0.8027 0.9651 0.6072
Zn2 Zn 0.93608(5) 0.44405(9) 0.42107(4)
Zn3 Zn 0.91957(4) 0.64102(8) 0.52128(4)
Zn4 Zn 0.83186(4) 0.57749(7) 0.73165(3)
Zn5 Zn 0.62404(4) 0.66536(7) 0.46701(3)
Zn6 Zn 0.89115(4) 0.13591(7) 0.95073(3)
O2 O 0.9492(3) 0.4410(5) 0.4992(2)
O5 O 0.8142(3) 0.0817(7) 0.9794(3)
O6 O 0.7799(5) 0.2992(9) 0.9619(5)
O9 O 0.4537(3) 0.7443(6) 0.9010(3)
O10 O 0.5262(8) 0.6780(9) 0.8552(7)
O15 O 0.8917(3) 0.6345(5) 0.7972(2)
O16 O 0.8936(3) 0.8421(5) 0.7581(2)
N5 N 0.8905(3) 0.5441(6) 0.6792(2)
N6 N 0.9186(3) 0.5576(6) 0.5980(3)
N7 N 0.9761(4) 0.3734(8) 0.7709(3)
H17 H 0.9429 0.4165 0.7802
N8 N 0.6471(3) 0.6810(5) 0.5492(2)
N9 N 0.7196(3) 0.5564(5) 0.6174(2)
N10 N 0.6946(3) 0.8897(5) 0.6732(2)
N11 N 0.7564(3) 0.6963(6) 0.6964(2)
N12 N 0.6103(3) 0.9086(6) 0.5580(2)
H18 H 0.5898 0.9068 0.5245
H19 H 0.6083 0.9839 0.5775
N13 N 0.7423(5) 0.4515(12) 0.3321(3)
N14 N 0.8401(4) 0.4845(8) 0.3969(3)
N15 N 0.7152(3) 0.6498(6) 0.4499(2)
N16 N 0.8243(3) 0.6142(6) 0.4756(2)
N17 N 0.6423(5) 0.5504(12) 0.3380(3)
H20 H 0.6255 0.5177 0.3060
H21 H 0.6179 0.5990 0.3557
N18 N 0.8567(3) 0.1660(6) 0.8709(2)
N19 N 0.7784(3) 0.0493(6) 0.8032(2)
N20 N 0.7988(3) 0.3903(6) 0.7520(2)
N22 N 0.8904(3) 0.3948(6) 0.8646(3)
H22 H 0.9146 0.3870 0.8968
H23 H 0.8898 0.4742 0.8470
C7 C 0.9633(4) 0.4750(9) 0.6319(4)
C8 C 0.9467(4) 0.4669(9) 0.6805(3)
C9 C 0.9867(5) 0.3875(10) 0.7211(4)
C10 C 0.8775(3) 0.5963(7) 0.6294(3)
H25 H 0.8415 0.6569 0.6172
C11 C 0.6825(3) 0.5678(6) 0.5697(3)
H26 H 0.6803 0.4880 0.5472
C12 C 0.7188(3) 0.6731(6) 0.6472(2)
C13 C 0.6815(3) 0.7921(6) 0.6322(2)
C14 C 0.6445(3) 0.7963(6) 0.5796(2)
C15 C 0.7400(3) 0.8256(7) 0.7098(3)
H27 H 0.7591 0.8683 0.7428
C16 C 0.8051(5) 0.4393(13) 0.3507(4)
H28 H 0.8290 0.3918 0.3282
C17 C 0.8043(4) 0.5538(8) 0.4264(3)
C18 C 0.7371(4) 0.5769(9) 0.4106(3)
C19 C 0.7059(5) 0.5258(12) 0.3598(3)
C20 C 0.7695(4) 0.6678(7) 0.4869(3)
H29 H 0.7692 0.7159 0.5194
C21 C 0.8190(4) 0.0550(7) 0.8493(3)
C22 C 0.7772(3) 0.1705(7) 0.7755(3)
C23 C 0.8142(3) 0.2892(6) 0.7918(3)
C24 C 0.8550(3) 0.2878(7) 0.8428(3)
C25 C 0.7544(4) 0.3258(7) 0.7149(3)
H31 H 0.7348 0.3706 0.6825
C28 C 0.7117(4) 0.1335(10) 0.9973(5)
C33 C 0.7738(5) 0.1744(10) 0.9790(4)
C35 C 0.5096(5) 0.9203(9) 0.8657(4)
C36 C 0.5451(5) 0.9550(9) 0.8268(4)
H35 H 0.5591 0.8832 0.8060
C41 C 0.4951(6) 0.7675(10) 0.8736(5)
C44 C 0.9714(3) 0.7983(7) 0.8375(3)
H38 H 0.9924 0.5990 0.8642
C49 C 0.9901(3) 0.9373(7) 0.8453(3)
C50 C 0.9148(3) 0.7596(7) 0.7936(3)
O30 O 0.9537(3) 0.2557(6) 0.4010(3)
O31 O 0.9903(4) 0.5957(6) 0.4044(3)
O32 O 0.9432(3) 0.7491(5) 0.4499(2)
O33 O 0.5726(2) 0.5091(5) 0.4362(2)
O34 O 0.5880(2) 0.8494(4) 0.44621(19)
O36 O 0.9382(2) 0.3087(5) 0.97103(19)
O3 O 0.5667(3) 0.7891(6) 0.0394(3)
C26 C 0.6346(5) 0.9644(9) 0.0182(5)
C27 C 0.6931(5) 0.9987(10) 0.0038(5)
C32 C 0.6113(7) 0.8145(11) 0.0158(7)
O4 O 0.6349(10) 0.7265(11) 0.9895(9)
H30 H 0.8227 0.9721 0.8703
H32 H 0.7216 0.9249 0.9982
O35 O 0.9441(2) 0.9722(5) 0.9720(2)
O4_2 O 0.1349(10) 0.2735(11) 0.4895(9)
H30_2 H 0.3227 0.0279 0.3703
C26_2 C 0.1346(5) 0.0356(9) 0.5182(5)
C27_2 C 0.1931(5) 0.0013(10) 0.5038(5)
H32_2 H 0.2216 0.0751 0.4982
C32_2 C 0.1113(7) 0.1855(11) 0.5158(7)
O1_2 O 0.3877(4) 0.1709(6) 0.0491(3)
C3_2 C 0.4120(7) 0.0676(12) 0.0699(5)
H9_2 H 0.4488 0.0346 0.0569
C5_2 C 0.3437(10) 0.031(2) 0.1336(9)
H14_2 H 0.3528 0.1225 0.1505
H15_2 H 0.3027 0.0349 0.1072
Zn4_2 Zn 0.33186(4) 0.42251(7) 0.23165(3)
O5_2 O 0.3142(3) 0.9183(7) 0.4794(3)
O6_2 O 0.2799(5) 0.7008(9) 0.4619(5)
O10_2 O 0.0262(8) 0.3220(9) 0.3552(7)
O15_2 O 0.3917(3) 0.3655(5) 0.2972(2)
O16_2 O 0.3936(3) 0.1579(5) 0.2581(2)
O17_2 O 0.6483(3) 0.3539(5) 0.4742(2)
N3_2 N 0.5380(5) 0.6802(11) 0.2087(4)
N4_2 N 0.5154(4) 0.5912(9) 0.1188(3)
N5_2 N 0.3905(3) 0.4559(6) 0.1792(2)
N6_2 N 0.4186(3) 0.4424(6) 0.0980(3)
N7_2 N 0.4761(4) 0.6266(8) 0.2709(3)
H16_2 H 0.5024 0.6790 0.2942
H17_2 H 0.4429 0.5835 0.2802
N8_2 N 0.1471(3) 0.3190(5) 0.0492(2)
N9_2 N 0.2196(3) 0.4436(5) 0.1174(2)
N10_2 N 0.1946(3) 0.1103(5) 0.1732(2)
N11_2 N 0.2564(3) 0.3037(6) 0.1964(2)
N12_2 N 0.1103(3) 0.0914(6) 0.0580(2)
H18_2 H 0.0898 0.0932 0.0245
H19_2 H 0.1083 0.0161 0.0775
N18_2 N 0.3567(3) 0.8340(6) 0.3709(2)
N19_2 N 0.2784(3) 0.9507(6) 0.3032(2)
N20_2 N 0.2988(3) 0.6097(6) 0.2520(2)
N21 N 0.2391(3) 0.8046(6) 0.2261(2)
N22_2 N 0.3904(3) 0.6052(6) 0.3646(3)
H22_2 H 0.4146 0.6130 0.3968
H23_2 H 0.3898 0.5258 0.3470
C6_2 C 0.5485(6) 0.6665(15) 0.1600(5)
H24_2 H 0.5849 0.7173 0.1528
C7_2 C 0.4633(4) 0.5250(9) 0.1319(4)
C8_2 C 0.4467(4) 0.5331(9) 0.1805(3)
C9_2 C 0.4867(5) 0.6125(10) 0.2211(4)
C10_2 C 0.3775(3) 0.4037(7) 0.1294(3)
H25_2 H 0.3415 0.3431 0.1172
C11_2 C 0.1825(3) 0.4322(6) 0.0697(3)
H26_2 H 0.1803 0.5120 0.0472
C12_2 C 0.2188(3) 0.3269(6) 0.1472(2)
C13_2 C 0.1815(3) 0.2079(6) 0.1322(2)
C14_2 C 0.1445(3) 0.2037(6) 0.0796(2)
C15_2 C 0.2400(3) 0.1744(7) 0.2098(3)
H27_2 H 0.2591 0.1317 0.2428
H29_2 H 0.2692 0.2841 0.0194
C21_2 C 0.3190(4) 0.9450(7) 0.3493(3)
C22_2 C 0.2772(3) 0.8295(7) 0.2755(3)
C23_2 C 0.3142(3) 0.7108(6) 0.2918(3)
C24_2 C 0.3550(3) 0.7122(7) 0.3428(3)
C25_2 C 0.2544(4) 0.6742(7) 0.2149(3)
H31_2 H 0.2348 0.6294 0.1825
C28_2 C 0.2117(4) 0.8665(10) 0.4973(5)
C29_2 C 0.1718(4) 0.7587(9) 0.5096(4)
H33_2 H 0.1847 0.6638 0.5073
C30_2 C 0.1137(4) 0.7896(9) 0.5251(4)
C31_2 C 0.0954(4) 0.9291(8) 0.5298(4)
H34_2 H 0.0558 0.9504 0.5410
C33_2 C 0.2738(5) 0.8256(10) 0.4790(4)
C34_2 C 0.0694(4) 0.6735(9) 0.5357(4)
C35_2 C 0.0096(5) 0.0797(9) 0.3657(4)
C36_2 C 0.0451(5) 0.0450(9) 0.3268(4)
H35_2 H 0.0591 0.1168 0.3060
C44_2 C 0.4714(3) 0.2017(7) 0.3375(3)
C45_2 C 0.5053(3) 0.3058(6) 0.3698(3)
H38_2 H 0.4924 0.4010 0.3642
C46_2 C 0.5578(3) 0.2716(7) 0.4100(3)
C47_2 C 0.5744(3) 0.1311(6) 0.4198(3)
H39_2 H 0.6085 0.1066 0.4489
C48_2 C 0.5413(3) 0.0267(6) 0.3872(2)
C49_2 C 0.4901(3) 0.0627(7) 0.3453(3)
C50_2 C 0.4148(3) 0.2404(7) 0.2936(3)
C51_2 C 0.5966(3) 0.3838(7) 0.4432(3)
Zn18 Zn 0.16225(4) 0.91940(7) 0.19375(3)
O2_2 O 0.4492(3) 0.5590(5) 0.9992(2)
N13_2 N 0.2423(5) 0.5485(12) 0.8321(3)
N14_2 N 0.3401(4) 0.5155(8) 0.8969(3)
N15_2 N 0.2152(3) 0.3502(6) 0.9499(2)
N16_2 N 0.3243(3) 0.3858(6) 0.9756(2)
N17_2 N 0.1423(5) 0.4496(12) 0.8380(3)
H20_2 H 0.1255 0.4823 0.8060
H21_2 H 0.1179 0.4010 0.8557
C16_2 C 0.3051(5) 0.5607(13) 0.8507(4)
H28_2 H 0.3290 0.6082 0.8282
C17_2 C 0.3043(4) 0.4462(8) 0.9264(3)
C18_2 C 0.2371(4) 0.4231(9) 0.9106(3)
C19_2 C 0.2059(5) 0.4742(12) 0.8598(3)
C20_2 C 0.2695(4) 0.3322(7) 0.9869(3)
N2_2 N 0.3963(7) 0.9925(12) 0.1076(5)
C4_2 C 0.4307(11) 0.8735(19) 0.1293(9)
H10_2 H 0.4100 0.8340 0.1571
H11_2 H 0.4304 0.8036 0.1012
H12_2 H 0.4760 0.8994 0.1448
H13_2 H 0.3399 0.9604 0.1607
O11_2 O 0.1088(3) 0.9662(6) 0.2458(2)
O12_2 O 0.1212(7) 0.7482(8) 0.2781(5)
O20_2 O 0.5530(3) 0.7884(5) 0.3612(2)
O21_2 O 0.1079(2) 0.8535(5) 0.1271(2)
O22_2 O 0.1130(3) 0.6370(5) 0.1596(2)
C37_2 C 0.0598(5) 0.9069(9) 0.3183(4)
C38_2 C 0.0377(5) 0.8022(8) 0.3484(4)
H36_2 H 0.0475 0.7070 0.3423
C39_2 C 0.0017(4) 0.8343(8) 0.3870(4)
C42_2 C 0.1002(6) 0.8660(10) 0.2775(4)
H40_2 H 0.4683 0.9921 0.3222
C52_2 C 0.5612(3) 0.8759(7) 0.3977(3)
C53_2 C 0.0401(3) 0.6799(7) 0.0782(3)
C54_2 C 0.0076(3) 0.7795(7) 0.0426(3)
H41_2 H 0.0189 0.8757 0.0476
C58_2 C 0.0234(3) 0.5389(7) 0.0707(3)
H43_2 H 0.0445 0.4709 0.0954
C59_2 C 0.0905(3) 0.7226(7) 0.1252(3)
C41_2 C 0.9951(6) 0.2325(10) 0.3736(5)
O26_2 O 0.9647(4) 0.2640(6) 0.0573(2)
C40_2 C 0.9889(5) 0.9743(8) 0.3957(4)
H37_2 H 0.9655 0.9981 0.4227
C43_2 C 0.9766(4) 0.7204(8) 0.4172(3)
C57_2 C 0.9764(3) 0.4976(7) 0.0276(3)
C61_2 C 0.9585(3) 0.3435(7) 0.0191(3)
O24_2 O 0.8728(3) 0.8132(6) 0.9311(2)
C55_2 C 0.9586(3) 0.7396(7) 0.9998(3)
C56_2 C 0.9432(3) 0.5984(7) 0.9921(3)
H42_2 H 0.9103 0.5699 0.9628
C60_2 C 0.9214(4) 0.8486(7) 0.9643(3)
N24 N 0.8511(18) 0.760(5) 0.2920(19)
H44 H 0.8675 0.7738 0.2621
H45 H 0.8755 0.6954 0.3132
C62 C 0.845(3) 0.897(5) 0.321(3)
H46 H 0.8890 0.9376 0.3331
H47 H 0.8262 0.8779 0.3526
H48 H 0.8176 0.9622 0.2976
C63 C 0.774(2) 0.719(7) 0.278(3)
H49 H 0.7680 0.6299 0.2585
H50 H 0.7489 0.7925 0.2564
H51 H 0.7575 0.7082 0.3114
N24_2 N 0.3511(18) 0.240(5) 0.7920(19)
H44_2 H 0.3675 0.2262 0.7621
H45_2 H 0.3755 0.3046 0.8132
C62_2 C 0.345(3) 0.103(5) 0.821(3)
H46_2 H 0.3890 0.0624 0.8331
H47_2 H 0.3262 0.1221 0.8526
H48_2 H 0.3176 0.0378 0.7976
C63_2 C 0.274(2) 0.281(7) 0.778(3)
H49_2 H 0.2680 0.3701 0.7585
H50_2 H 0.2489 0.2075 0.7564
H51_2 H 0.2575 0.2918 0.8114
N25 N 0.753(2) 0.113(5) 0.257(2)
H52 H 0.7361 0.0474 0.2321
H53 H 0.7338 0.1025 0.2859
C64 C 0.745(3) 0.260(5) 0.235(3)
H54 H 0.6981 0.2808 0.2230
H55 H 0.7642 0.3267 0.2625
H56 H 0.7667 0.2674 0.2045
C65 C 0.832(2) 0.105(6) 0.273(3)
H57 H 0.8451 0.0130 0.2887
H58 H 0.8504 0.1191 0.2414
H59 H 0.8479 0.1784 0.2994
N25_2 N 0.253(2) 0.887(5) 0.757(2)
H52_2 H 0.2361 0.9526 0.7321
H53_2 H 0.2338 0.8975 0.7859
C64_2 C 0.245(3) 0.740(5) 0.735(3)
H54_2 H 0.1981 0.7192 0.7230
H55_2 H 0.2642 0.6733 0.7625
H56_2 H 0.2667 0.7326 0.7045
C65_2 C 0.332(2) 0.895(6) 0.773(3)
H57_2 H 0.3451 0.9870 0.7887
H58_2 H 0.3504 0.8809 0.7414
H59_2 H 0.3479 0.8216 0.7994
N26 N 0.787(3) 0.535(7) 0.068(2)
H60 H 0.7737 0.5125 0.0333
H61 H 0.8113 0.6146 0.0714
C66 C 0.730(3) 0.547(7) 0.096(3)
H62 H 0.7013 0.6221 0.0800
H63 H 0.7468 0.5679 0.1341
H64 H 0.7063 0.4580 0.0931
C67 C 0.827(3) 0.406(7) 0.102(3)
H65 H 0.8662 0.3855 0.0881
H66 H 0.7988 0.3229 0.0987
H67 H 0.8393 0.4328 0.1397
N26_2 N 0.287(3) 0.465(7) 0.568(2)
H60_2 H 0.2737 0.4875 0.5333
H61_2 H 0.3113 0.3854 0.5714
C66_2 C 0.230(3) 0.453(7) 0.596(3)
H62_2 H 0.2013 0.3779 0.5800
H63_2 H 0.2468 0.4321 0.6341
H64_2 H 0.2063 0.5420 0.5931
C67_2 C 0.327(3) 0.594(7) 0.602(3)
H65_2 H 0.3662 0.6145 0.5881
H66_2 H 0.2988 0.6771 0.5987
H67_2 H 0.3393 0.5672 0.6397
loop_
_geom_bond_atom_site_label_1
_geom_bond_atom_site_label_2
_geom_bond_site_symmetry_1
_geom_bond_site_symmetry_2
N1 H1 1_555 1_555
H2 N1 1_555 1_555
C1 N1 1_555 1_555
H3 C1 1_555 1_555
H4 C1 1_555 1_555
H5 C1 1_555 1_555
C2 N1 1_555 1_555
H6 C2 1_555 1_555
H7 C2 1_555 1_555
H8 C2 1_555 1_555
N1_2 H1_2 1_555 1_555
H2_2 N1_2 1_555 1_555
C1_2 N1_2 1_555 1_555
H4_2 C1_2 1_555 1_555
H5_2 C1_2 1_555 1_555
C2_2 N1_2 1_555 1_555
H6_2 C2_2 1_555 1_555
H7_2 C2_2 1_555 1_555
H8_2 C2_2 1_555 1_555
O19 C52 1_555 1_555
O20 C52 1_555 1_555
Zn15 O19 1_555 1_555
O17 C51 1_555 1_555
O18 C51 1_555 1_555
N3 C6 1_555 1_555
N4 Zn1 1_555 1_555
C6 N4 1_555 1_555
H24 C6 1_555 1_555
C46 C45 1_555 1_555
C47 C46 1_555 1_555
H39 C47 1_555 1_555
C48 C47 1_555 1_555
C51 C46 1_555 1_555
Zn15 O18 1_555 1_555
O27 Zn1 1_555 1_555
O28 Zn1 1_555 1_555
C4 N2 1_555 1_555
H10 C4 1_555 1_555
H11 C4 1_555 1_555
H12 C4 1_555 1_555
Zn7 O11 1_555 1_555
O11 C42 1_555 1_555
O12 C42 1_555 1_555
O13 C43 1_555 1_555
O14 C43 1_555 1_555
O21 Zn7 1_555 1_555
O22 C59 1_555 1_555
O23 C60 1_555 1_555
O24 C60 1_555 1_555
O25 C61 1_555 1_555
O26 C61 1_555 1_555
C38 C37 1_555 1_555
H36 C38 1_555 1_555
C39 C38 1_555 1_555
H37 C40 1_555 1_555
C42 C37 1_555 1_555
C43 C39 1_555 1_555
C53 C54 1_555 1_555
C54 H41 1_555 1_555
C55 C54 1_555 1_555
C56 C55 1_555 1_555
H42 C56 1_555 1_555
C57 C56 1_555 1_555
C58 C53 1_555 1_555
H43 C58 1_555 1_555
C59 O21 1_555 1_555
C60 C55 1_555 1_555
C61 C57 1_555 1_555
Zn11 O13 1_555 1_555
Zn17 O25 1_555 1_555
N23 Zn7 1_555 1_555
C39 C40 1_555 1_555
C53 C59 1_555 1_555
C57 C58 1_555 1_555
O7 C34 1_555 1_555
O8 C34 1_555 1_555
H33 C29 1_555 1_555
C30 C29 1_555 1_555
H34 C31 1_555 1_555
C34 C30 1_555 1_555
Zn9 O7 1_555 1_555
Zn13 O8 1_555 1_555
C30 C31 1_555 1_555
O1 C3 1_555 1_555
C3 H9 1_555 1_555
H14 C5 1_555 1_555
H15 C5 1_555 1_555
Zn2 O2 1_555 1_555
Zn3 O1 1_555 1_555
Zn4 O15 1_555 1_555
Zn5 N8 1_555 1_555
Zn6 O5 1_555 1_555
O2 Zn3 1_555 1_555
O5 C33 1_555 1_555
O6 C33 1_555 1_555
O9 C41 1_555 1_555
O10 C41 1_555 1_555
O15 C50 1_555 1_555
O16 C50 1_555 1_555
N5 Zn4 1_555 1_555
N6 Zn3 1_555 1_555
H17 N7 1_555 1_555
N8 C11 1_555 1_555
N9 C11 1_555 1_555
N11 Zn4 1_555 1_555
N12 H18 1_555 1_555
H19 N12 1_555 1_555
N13 C16 1_555 1_555
N14 Zn2 1_555 1_555
N15 Zn5 1_555 1_555
N16 Zn3 1_555 1_555
N17 H20 1_555 1_555
H21 N17 1_555 1_555
N18 Zn6 1_555 1_555
N19 C21 1_555 1_555
N20 Zn4 1_555 1_555
N23 C22 1_555 1_555
N22 H22 1_555 1_555
H23 N22 1_555 1_555
C8 N5 1_555 1_555
C10 N5 1_555 1_555
H25 C10 1_555 1_555
C11 H26 1_555 1_555
C12 N9 1_555 1_555
C13 N10 1_555 1_555
C14 N8 1_555 1_555
C15 N10 1_555 1_555
H27 C15 1_555 1_555
C16 N14 1_555 1_555
H28 C16 1_555 1_555
C17 N14 1_555 1_555
C18 N15 1_555 1_555
C19 N13 1_555 1_555
C20 N15 1_555 1_555
H29 C20 1_555 1_555
C21 N18 1_555 1_555
C22 N19 1_555 1_555
C23 N20 1_555 1_555
C24 N18 1_555 1_555
C25 N20 1_555 1_555
H31 C25 1_555 1_555
C33 C28 1_555 1_555
C35 C36 1_555 1_555
C36 H35 1_555 1_555
C41 C35 1_555 1_555
C49 C44 1_555 1_555
C50 C44 1_555 1_555
Zn11 O9 1_555 1_555
O30 Zn2 1_555 1_555
O31 Zn2 1_555 1_555
O32 Zn3 1_555 1_555
O33 Zn5 1_555 1_555
O34 Zn5 1_555 1_555
O36 Zn6 1_555 1_555
N6 C7 1_555 1_555
N6 C10 1_555 1_555
N7 C9 1_555 1_555
N11 C12 1_555 1_555
N11 C15 1_555 1_555
N12 C14 1_555 1_555
N16 C17 1_555 1_555
N16 C20 1_555 1_555
N17 C19 1_555 1_555
N23 C25 1_555 1_555
N22 C24 1_555 1_555
C7 C8 1_555 1_555
C8 C9 1_555 1_555
C12 C13 1_555 1_555
C13 C14 1_555 1_555
C17 C18 1_555 1_555
C18 C19 1_555 1_555
C22 C23 1_555 1_555
C23 C24 1_555 1_555
O3 C32 1_555 1_555
C26 C27 1_555 1_555
C32 C26 1_555 1_555
Zn9 O3 1_555 1_555
O27 C32_2 1_555 1_555
O4_2 C32_2 1_555 1_555
C26_2 C27_2 1_555 1_555
C27_2 H32_2 1_555 1_555
C32_2 C26_2 1_555 1_555
O1_2 C3_2 1_555 1_555
C3_2 H9_2 1_555 1_555
H14_2 C5_2 1_555 1_555
H15_2 C5_2 1_555 1_555
Zn13 O1_2 1_555 1_555
Zn4_2 O15_2 1_555 1_555
Zn17 O5_2 1_555 1_555
O5_2 C33_2 1_555 1_555
O6_2 C33_2 1_555 1_555
O28 C34_2 1_555 1_555
O29 C34_2 1_555 1_555
O15_2 C50_2 1_555 1_555
O16_2 C50_2 1_555 1_555
O17_2 C51_2 1_555 1_555
O33 C51_2 1_555 1_555
N3_2 C6_2 1_555 1_555
N4_2 Zn9 1_555 1_555
N5_2 Zn4_2 1_555 1_555
N6_2 Zn13 1_555 1_555
N7_2 H16_2 1_555 1_555
H17_2 N7_2 1_555 1_555
N8_2 C11_2 1_555 1_555
N9_2 C11_2 1_555 1_555
N11_2 Zn4_2 1_555 1_555
N12_2 H18_2 1_555 1_555
H19_2 N12_2 1_555 1_555
N18_2 Zn17 1_555 1_555
N19_2 C21_2 1_555 1_555
N20_2 Zn4_2 1_555 1_555
N21 C22_2 1_555 1_555
N22_2 H22_2 1_555 1_555
H23_2 N22_2 1_555 1_555
C6_2 N4_2 1_555 1_555
H24_2 C6_2 1_555 1_555
C7_2 N4_2 1_555 1_555
C8_2 N5_2 1_555 1_555
C9_2 N3_2 1_555 1_555
C10_2 N5_2 1_555 1_555
H25_2 C10_2 1_555 1_555
C11_2 H26_2 1_555 1_555
C12_2 N9_2 1_555 1_555
C13_2 N10_2 1_555 1_555
C14_2 N8_2 1_555 1_555
C15_2 N10_2 1_555 1_555
H27_2 C15_2 1_555 1_555
C21_2 N18_2 1_555 1_555
C22_2 N19_2 1_555 1_555
C23_2 N20_2 1_555 1_555
C24_2 N18_2 1_555 1_555
C25_2 N20_2 1_555 1_555
H31_2 C25_2 1_555 1_555
C29_2 C28_2 1_555 1_555
H33_2 C29_2 1_555 1_555
C30_2 C29_2 1_555 1_555
H34_2 C31_2 1_555 1_555
C33_2 C28_2 1_555 1_555
C34_2 C30_2 1_555 1_555
C35_2 C36_2 1_555 1_555
C36_2 H35_2 1_555 1_555
C44_2 C45_2 1_555 1_555
C45_2 H38_2 1_555 1_555
C46_2 C45_2 1_555 1_555
C47_2 C46_2 1_555 1_555
H39_2 C47_2 1_555 1_555
C48_2 C47_2 1_555 1_555
C49_2 C44_2 1_555 1_555
C50_2 C44_2 1_555 1_555
C51_2 C46_2 1_555 1_555
Zn18 N21 1_555 1_555
N6_2 C7_2 1_555 1_555
N6_2 C10_2 1_555 1_555
N7_2 C9_2 1_555 1_555
N11_2 C12_2 1_555 1_555
N11_2 C15_2 1_555 1_555
N12_2 C14_2 1_555 1_555
N21 C25_2 1_555 1_555
N22_2 C24_2 1_555 1_555
C7_2 C8_2 1_555 1_555
C8_2 C9_2 1_555 1_555
C12_2 C13_2 1_555 1_555
C13_2 C14_2 1_555 1_555
C22_2 C23_2 1_555 1_555
C23_2 C24_2 1_555 1_555
C30_2 C31_2 1_555 1_555
C48_2 C49_2 1_555 1_555
Zn11 O2_2 1_555 1_555
N13_2 C16_2 1_555 1_555
N14_2 Zn11 1_555 1_555
N15_2 Zn15 1_555 1_555
N17_2 H20_2 1_555 1_555
H21_2 N17_2 1_555 1_555
C16_2 N14_2 1_555 1_555
H28_2 C16_2 1_555 1_555
C17_2 N14_2 1_555 1_555
C18_2 N15_2 1_555 1_555
C19_2 N13_2 1_555 1_555
C20_2 N15_2 1_555 1_555
N16_2 C17_2 1_555 1_555
N16_2 C20_2 1_555 1_555
N17_2 C19_2 1_555 1_555
C17_2 C18_2 1_555 1_555
C18_2 C19_2 1_555 1_555
C4_2 N2_2 1_555 1_555
H10_2 C4_2 1_555 1_555
H11_2 C4_2 1_555 1_555
H12_2 C4_2 1_555 1_555
Zn18 O11_2 1_555 1_555
O11_2 C42_2 1_555 1_555
O12_2 C42_2 1_555 1_555
O34 C52_2 1_555 1_555
O20_2 C52_2 1_555 1_555
O21_2 Zn18 1_555 1_555
O22_2 C59_2 1_555 1_555
C38_2 C37_2 1_555 1_555
H36_2 C38_2 1_555 1_555
C39_2 C38_2 1_555 1_555
C42_2 C37_2 1_555 1_555
C53_2 C54_2 1_555 1_555
C54_2 H41_2 1_555 1_555
C58_2 C53_2 1_555 1_555
H43_2 C58_2 1_555 1_555
C59_2 O21_2 1_555 1_555
C53_2 C59_2 1_555 1_555
O30 C41_2 1_555 1_555
O31 C43_2 1_555 1_555
O32 C43_2 1_555 1_555
O26_2 C61_2 1_555 1_555
H37_2 C40_2 1_555 1_555
C61_2 C57_2 1_555 1_555
O35 C60_2 1_555 1_555
O24_2 C60_2 1_555 1_555
C56_2 C55_2 1_555 1_555
H42_2 C56_2 1_555 1_555
C60_2 C55_2 1_555 1_555
N24 H44 1_555 1_555
H45 N24 1_555 1_555
C62 N24 1_555 1_555
H46 C62 1_555 1_555
H47 C62 1_555 1_555
H48 C62 1_555 1_555
C63 N24 1_555 1_555
H49 C63 1_555 1_555
H50 C63 1_555 1_555
H51 C63 1_555 1_555
N24_2 H44_2 1_555 1_555
H45_2 N24_2 1_555 1_555
C62_2 N24_2 1_555 1_555
H46_2 C62_2 1_555 1_555
H47_2 C62_2 1_555 1_555
H48_2 C62_2 1_555 1_555
C63_2 N24_2 1_555 1_555
H49_2 C63_2 1_555 1_555
H50_2 C63_2 1_555 1_555
H51_2 C63_2 1_555 1_555
N25 H52 1_555 1_555
H53 N25 1_555 1_555
C64 N25 1_555 1_555
H54 C64 1_555 1_555
H55 C64 1_555 1_555
H56 C64 1_555 1_555
C65 N25 1_555 1_555
H57 C65 1_555 1_555
H58 C65 1_555 1_555
H59 C65 1_555 1_555
N25_2 H52_2 1_555 1_555
H53_2 N25_2 1_555 1_555
C64_2 N25_2 1_555 1_555
H54_2 C64_2 1_555 1_555
H55_2 C64_2 1_555 1_555
H56_2 C64_2 1_555 1_555
C65_2 N25_2 1_555 1_555
H57_2 C65_2 1_555 1_555
H58_2 C65_2 1_555 1_555
H59_2 C65_2 1_555 1_555
N26 H60 1_555 1_555
H61 N26 1_555 1_555
C66 N26 1_555 1_555
H62 C66 1_555 1_555
H63 C66 1_555 1_555
H64 C66 1_555 1_555
C67 N26 1_555 1_555
H65 C67 1_555 1_555
H66 C67 1_555 1_555
H67 C67 1_555 1_555
N26_2 H60_2 1_555 1_555
H61_2 N26_2 1_555 1_555
C66_2 N26_2 1_555 1_555
H62_2 C66_2 1_555 1_555
H63_2 C66_2 1_555 1_555
H64_2 C66_2 1_555 1_555
C67_2 N26_2 1_555 1_555
H65_2 C67_2 1_555 1_555
H66_2 C67_2 1_555 1_555
H67_2 C67_2 1_555 1_555

#END
