
###############################################################################
#
# This file contains modified crystal structure data generated from the
# MOF subset of the Cambridge Structural Database (CSD) v543 
# hosted by the Cambridge Crystallographic Data Centre (CCDC).
#
# This work is licensed under the Creative Commons
# Attribution-NonCommercial-ShareAlike 4.0 International License.
# To view a copy of this license, visit
# http://creativecommons.org/licenses/by-nc-sa/4.0/
# or send a letter to
# Creative Commons, PO Box 1866, Mountain View, CA 94042, USA.
#
# CIF created using the CSD Python API on 29 September 2022
# The structure has been converted into the P1 space group
# The structure has a 3D framework
# The original CSD entry SEKBOC is in the orthorhombic crystal system
# The original CSD entry SEKBOC is in a Sohncke space group
# The framework has been calculated to contain at least 10.0% void space
# The void calculation uses a probe of radius 1.32A, grid spacing 0.4
# H atom positions have been added when not included in the experimental data
# Generated hydrogen atom positions removed from atoms on special positions
#
###############################################################################

data_SEKBOC
_chemical_formula_moiety         '(C336 H368 Cd14 N16 O64 V8)n'
_symmetry_cell_setting           triclinic
_symmetry_space_group_name_H-M   'P 1'
_symmetry_Int_Tables_number      1
_space_group_name_Hall           'P 1'
loop_
_symmetry_equiv_pos_site_id
_symmetry_equiv_pos_as_xyz
1 x,y,z
_cell_length_a                   34.388(2)
_cell_length_b                   34.853(2)
_cell_length_c                   13.3846(7)
_cell_angle_alpha                90
_cell_angle_beta                 90
_cell_angle_gamma                90
_cell_volume                     16041.8
loop_
_atom_site_label
_atom_site_type_symbol
_atom_site_fract_x
_atom_site_fract_y
_atom_site_fract_z
Cd5 Cd 0.03225(5) -0.0000 0.5000
Cd6 Cd -0.0000 0.03781(5) 0.7500
Cd5_2 Cd 0.03225(5) 1.0000 0.5000
Cd6_2 Cd 1.0000 0.03781(5) 0.7500
C1 C 0.5790(4) 0.5451(4) 0.3983(10)
C2 C 0.6051(3) 0.5716(3) 0.3374(7)
C3 C 0.6094(3) 0.5661(2) 0.2352(8)
H1 H 0.5950 0.5465 0.2023
C4 C 0.6347(3) 0.5891(3) 0.1810(5)
H2 H 0.6377 0.5854 0.1111
C5 C 0.6558(3) 0.6177(3) 0.2292(8)
C6 C 0.6515(3) 0.6232(2) 0.3314(8)
H3 H 0.6659 0.6427 0.3643
C7 C 0.6262(3) 0.6001(3) 0.3856(5)
H4 H 0.6233 0.6039 0.4555
C8 C 0.6822(5) 0.6457(6) 0.1589(13)
C9 C 0.7055(5) 0.6320(6) 0.0892(13)
H5 H 0.7043 0.6054 0.0733
C10 C 0.7325(5) 0.6559(6) 0.0372(12)
C11 C 0.7339(6) 0.6956(6) 0.0593(14)
C12 C 0.7093(6) 0.7102(6) 0.1342(14)
C13 C 0.6828(5) 0.6850(6) 0.1805(14)
H6 H 0.6648 0.6949 0.2276
C14 C 0.7099(5) 0.7474(5) 0.1669(14)
H7 H 0.6920 0.7549 0.2175
C31 C 0.7260(6) 0.8129(5) 0.1640(13)
H21 H 0.7489 0.8182 0.2078
C32 C 0.7333(6) 0.8421(6) 0.0731(15)
H22 H 0.7102 0.8365 0.0298
C33 C 0.7318(7) 0.8832(7) 0.0787(16)
H23 H 0.7259 0.8943 0.0122
H24 H 0.7570 0.8936 0.1019
C34 C 0.6973(6) 0.8938(6) 0.1580(14)
H25 H 0.7006 0.9209 0.1786
H26 H 0.6720 0.8918 0.1231
C35 C 0.6957(5) 0.8684(5) 0.2540(14)
H27 H 0.7189 0.8734 0.2956
H28 H 0.6724 0.8752 0.2937
C36 C 0.6941(5) 0.8258(5) 0.2259(12)
H29 H 0.6938 0.8104 0.2881
H30 H 0.6694 0.8209 0.1902
C37 C 0.4713(4) 0.4609(4) 0.3896(11)
C38 C 0.4381(3) 0.4367(3) 0.3605(8)
C39 C 0.4260(3) 0.4405(2) 0.2619(7)
H31 H 0.4366 0.4603 0.2212
C40 C 0.3984(3) 0.4155(3) 0.2230(6)
H32 H 0.3902 0.4182 0.1556
C41 C 0.3829(3) 0.3867(3) 0.2826(8)
C42 C 0.3950(3) 0.3829(2) 0.3812(7)
H33 H 0.3844 0.3632 0.4220
C43 C 0.4226(3) 0.4079(3) 0.4202(5)
H34 H 0.4308 0.4053 0.4876
C44 C 0.3567(5) 0.3559(6) 0.2412(14)
C45 C 0.3553(5) 0.3190(6) 0.2762(13)
H35 H 0.3718 0.3130 0.3309
C46 C 0.3318(5) 0.2891(6) 0.2387(14)
C47 C 0.3106(6) 0.2970(6) 0.1609(15)
C48 C 0.3091(5) 0.3357(6) 0.1149(13)
C49 C 0.3317(5) 0.3639(6) 0.1634(14)
H36 H 0.3295 0.3897 0.1414
C50 C 0.2883(5) 0.3510(6) 0.0325(14)
H37 H 0.2858 0.3776 0.0187
C51 C 0.3386(7) 0.2500(6) 0.2781(16)
C52 C 0.3539(7) 0.2196(7) 0.2055(18)
H38 H 0.3330 0.2119 0.1600
H39 H 0.3630 0.1973 0.2433
H40 H 0.3756 0.2303 0.1669
C53 C 0.3588(7) 0.2448(7) 0.3799(17)
H41 H 0.3870 0.2469 0.3712
H42 H 0.3524 0.2195 0.4071
H43 H 0.3499 0.2647 0.4262
C54 C 0.3008(7) 0.2287(7) 0.276(2)
H44 H 0.2865 0.2334 0.3378
H45 H 0.3059 0.2011 0.2690
H46 H 0.2853 0.2375 0.2187
C62 C 0.2457(5) 0.1403(6) 0.0671(13)
C63 C 0.2408(7) 0.0974(6) 0.0781(17)
H50 H 0.2137 0.0904 0.0648
H51 H 0.2478 0.0897 0.1463
H52 H 0.2578 0.0843 0.0305
C64 C 0.2389(7) 0.1552(6) 0.1707(14)
H53 H 0.2440 0.1828 0.1724
H54 H 0.2564 0.1421 0.2173
H55 H 0.2119 0.1503 0.1901
C65 C 0.2891(5) 0.1423(5) 0.0507(13)
H57 H 0.3026 0.1332 0.1107
H58 H 0.2967 0.1689 0.0371
Cd3 Cd 0.53187(5) 0.5000 0.5000
Cd4 Cd 0.5000 0.53825(5) 0.2500
N3 N 0.7339(5) 0.7731(5) 0.1315(11)
N4 N 0.7628(5) 0.8254(5) 0.0183(12)
O3 O 0.2460(3) 0.2201(4) 0.0135(9)
O4 O 0.2935(3) 0.2693(3) 0.1074(8)
O6 O 0.4743(3) 0.4929(3) 0.3565(7)
O7 O 0.4922(3) 0.4498(3) 0.4599(7)
O9 O 0.5529(3) 0.5282(3) 0.3521(7)
O10 O 0.5820(3) 0.5492(3) 0.4862(8)
O11 O 0.7611(3) 0.7150(3) 0.0177(7)
O13 O 0.8116(3) 0.7632(3) 0.1122(8)
O16 O 0.5175(3) 0.5856(3) 0.1383(8)
V1 V 0.77945(11) 0.76419(10) 0.0455(2)
H79 H 0.8014 0.6647 0.0139
H81 H 0.7973 0.6219 0.0555
O32 O 0.4825(3) 0.5856(3) 0.3617(8)
O34 O 0.4743(3) 0.5071(3) 0.6435(7)
O35 O 0.5257(3) 0.4929(3) 0.1435(7)
O36 O 0.4922(3) 0.5502(3) 0.5401(7)
O37 O 0.5529(3) 0.4718(3) 0.6479(7)
O38 O 0.4471(3) 0.5282(3) 0.1479(7)
O39 O 0.5820(3) 0.4508(3) 0.5138(8)
C15 C 0.7834(4) 0.8462(5) 0.9555(11)
H8 H 0.7781 0.8729 0.9515
C16 C 0.8155(3) 0.8295(4) 0.8883(7)
C17 C 0.8182(3) 0.7917(4) 0.8563(9)
C18 C 0.8448(4) 0.7817(3) 0.7825(10)
C19 C 0.8687(3) 0.8096(4) 0.7407(8)
H9 H 0.8869 0.8029 0.6903
C20 C 0.8660(3) 0.8475(3) 0.7728(9)
C21 C 0.8394(4) 0.8574(3) 0.8465(9)
H10 H 0.8375 0.8833 0.8684
C22 C 0.8923(4) 0.8770(4) 0.7315(12)
C23 C 0.9063(4) 0.8740(4) 0.6357(11)
H11 H 0.8986 0.8529 0.5955
C24 C 0.9320(4) 0.9016(4) 0.5954(12)
H12 H 0.9412 0.8999 0.5286
C25 C 0.9434(5) 0.9316(5) 0.6581(12)
C26 C 0.9276(4) 0.9375(5) 0.7515(12)
H13 H 0.9323 0.9603 0.7887
C27 C 0.9044(4) 0.9078(5) 0.7873(12)
H14 H 0.8964 0.9090 0.8552
C28 C 0.9693(5) 0.9633(5) 0.6160(11)
C29 C 0.8006(4) 0.7350(5) 0.6902(12)
H15 H 0.7809 0.7424 0.7396
H16 H 0.7971 0.7079 0.6726
H17 H 0.7977 0.7508 0.6302
C30 C 0.8583(6) 0.7153(6) 0.8166(14)
H18 H 0.8861 0.7207 0.8237
H19 H 0.8546 0.6883 0.7987
H20 H 0.8451 0.7206 0.8799
C55 C 0.1960(6) 0.2507(6) 0.8641(16)
H47 H 0.1726 0.2589 0.8335
C56 C 0.2039(4) 0.2083(3) 0.8731(10)
C57 C 0.1808(3) 0.1845(4) 0.8148(8)
H48 H 0.1668 0.1948 0.7598
C58 C 0.1782(3) 0.1456(4) 0.8369(9)
C59 C 0.1986(4) 0.1306(3) 0.9173(10)
H49 H 0.1968 0.1040 0.9324
C60 C 0.2218(3) 0.1544(4) 0.9757(7)
C61 C 0.2244(3) 0.1933(4) 0.9536(9)
H56 H 0.2962 0.1261 0.9937
C66 C 0.1496(4) 0.1227(4) 0.7852(12)
C67 C 0.1465(4) 0.1264(4) 0.6853(12)
H59 H 0.1607 0.1464 0.6537
C68 C 0.1245(4) 0.1036(5) 0.6280(12)
H60 H 0.1244 0.1077 0.5578
C69 C 0.1024(5) 0.0748(5) 0.6669(12)
C70 C 0.1067(5) 0.0690(4) 0.7709(11)
H61 H 0.0943 0.0478 0.8017
C71 C 0.1281(5) 0.0930(5) 0.8266(12)
H62 H 0.1284 0.0896 0.8970
C72 C 0.0782(5) 0.0524(5) 0.6110(11)
C73 C 0.2388(6) 0.3800(5) 0.8867(14)
H63 H 0.2640 0.3936 0.8867
H64 H 0.2240 0.3880 0.9467
C74 C 0.2159(6) 0.3899(6) 0.7927(16)
H65 H 0.2081 0.4173 0.7954
H66 H 0.2328 0.3864 0.7335
C75 C 0.1799(7) 0.3651(6) 0.7819(19)
H67 H 0.1673 0.3714 0.7174
H68 H 0.1614 0.3721 0.8357
C76 C 0.1865(7) 0.3218(7) 0.7858(18)
H69 H 0.1614 0.3079 0.7869
H70 H 0.2017 0.3131 0.7273
C77 C 0.2080(6) 0.3154(6) 0.8779(16)
H71 H 0.1905 0.3230 0.9343
C78 C 0.2452(6) 0.3386(6) 0.8887(16)
H72 H 0.2601 0.3331 0.8263
N1 N 0.2203(5) 0.2762(5) 0.8968(11)
N2 N 0.2728(5) 0.3236(5) 0.9775(11)
O1 O 0.0822(3) 0.0462(3) 0.5122(8)
O2 O 0.0552(3) 0.0274(3) 0.6463(7)
O5 O 0.3027(4) 0.2561(4) 0.9239(11)
O8 O 0.0178(3) 0.0825(3) 0.8574(7)
O12 O 0.7982(4) 0.7625(4) 0.9077(11)
O14 O 0.9720(3) 0.9943(3) 0.6542(7)
O15 O 0.9914(3) 0.9518(3) 0.5381(7)
V2 V 0.27054(11) 0.26679(10) 0.9791(2)
C79 C 0.8762(5) 0.7372(6) 0.6587(14)
H73 H 0.8705 0.7519 0.5980
H74 H 0.8801 0.7101 0.6413
H75 H 0.8999 0.7472 0.6898
C80 C 0.8412(5) 0.7409(4) 0.7343(12)
C81 C 0.7492(5) 0.6569(5) 0.8556(12)
H76 H 0.7224 0.6662 0.8506
H77 H 0.7546 0.6392 0.8003
H78 H 0.7672 0.6787 0.8522
C82 C 0.7547(6) 0.6360(6) 0.9546(14)
C83 C 0.7953(5) 0.6381(6) 0.9960(15)
H80 H 0.8138 0.6292 0.9454
C84 C 0.7424(7) 0.5953(6) 0.9305(18)
H82 H 0.7567 0.5774 0.9733
H83 H 0.7481 0.5897 0.8603
H84 H 0.7144 0.5925 0.9424
C103 C 0.1960(6) 0.7493(6) 0.1359(16)
H101 H 0.1726 0.7411 0.1665
C104 C 0.2039(4) 0.7917(3) 0.1269(10)
C105 C 0.1808(3) 0.8155(4) 0.1852(8)
H102 H 0.1668 0.8052 0.2402
C106 C 0.1782(3) 0.8544(4) 0.1631(9)
C107 C 0.1986(4) 0.8694(3) 0.0827(10)
H103 H 0.1968 0.8960 0.0676
C108 C 0.2218(3) 0.8456(4) 0.0243(7)
C109 C 0.2244(3) 0.8067(4) 0.0464(9)
H110 H 0.2962 0.8739 0.0063
C114 C 0.1496(4) 0.8773(4) 0.2148(12)
C115 C 0.1465(4) 0.8736(4) 0.3147(12)
H113 H 0.1607 0.8536 0.3463
C116 C 0.1245(4) 0.8964(5) 0.3720(12)
H114 H 0.1244 0.8923 0.4422
C117 C 0.1024(5) 0.9252(5) 0.3331(12)
C118 C 0.1067(5) 0.9310(4) 0.2291(11)
H115 H 0.0943 0.9522 0.1983
C119 C 0.1281(5) 0.9070(5) 0.1734(12)
H116 H 0.1284 0.9104 0.1030
C120 C 0.0782(5) 0.9476(5) 0.3890(11)
C121 C 0.2388(6) 0.6200(5) 0.1133(14)
H117 H 0.2640 0.6064 0.1133
H118 H 0.2240 0.6120 0.0533
C122 C 0.2159(6) 0.6101(6) 0.2073(16)
H119 H 0.2081 0.5827 0.2046
H120 H 0.2328 0.6136 0.2665
C123 C 0.1799(7) 0.6349(6) 0.2181(19)
H121 H 0.1673 0.6286 0.2826
H122 H 0.1614 0.6279 0.1643
C124 C 0.1865(7) 0.6782(7) 0.2142(18)
H123 H 0.1614 0.6921 0.2131
H124 H 0.2017 0.6869 0.2727
C125 C 0.2080(6) 0.6846(6) 0.1221(16)
H125 H 0.1905 0.6770 0.0657
C126 C 0.2452(6) 0.6614(6) 0.1113(16)
H126 H 0.2601 0.6669 0.1737
N5 N 0.2203(5) 0.7238(5) 0.1032(11)
N6 N 0.2728(5) 0.6764(5) 0.0225(11)
O17 O 0.0822(3) 0.9538(3) 0.4878(8)
O18 O 0.0552(3) 0.9726(3) 0.3537(7)
O21 O 0.3027(4) 0.7439(4) 0.0761(11)
V3 V 0.27054(11) 0.73321(10) 0.0209(2)
Cd7 Cd -0.0000 0.96219(5) 0.2500
O41 O 0.0280(3) 0.9943(3) 0.8458(7)
C85 C 0.4713(4) 0.5391(4) 0.6104(11)
C86 C 0.4381(3) 0.5633(3) 0.6395(8)
C87 C 0.4260(3) 0.5595(2) 0.7381(7)
H85 H 0.4366 0.5397 0.7788
C88 C 0.3984(3) 0.5845(3) 0.7770(6)
H86 H 0.3902 0.5818 0.8444
C89 C 0.3829(3) 0.6133(3) 0.7174(8)
C90 C 0.3950(3) 0.6171(2) 0.6188(7)
H87 H 0.3844 0.6368 0.5780
C91 C 0.4226(3) 0.5921(3) 0.5798(5)
H88 H 0.4308 0.5947 0.5124
C92 C 0.3567(5) 0.6441(6) 0.7588(14)
C93 C 0.3553(5) 0.6810(6) 0.7238(13)
H89 H 0.3718 0.6870 0.6691
C94 C 0.3318(5) 0.7109(6) 0.7613(14)
C95 C 0.3106(6) 0.7030(6) 0.8391(15)
C96 C 0.3091(5) 0.6643(6) 0.8851(13)
C97 C 0.3317(5) 0.6361(6) 0.8366(14)
H90 H 0.3295 0.6103 0.8586
C98 C 0.2883(5) 0.6490(6) 0.9675(14)
H91 H 0.2858 0.6224 0.9813
C99 C 0.3386(7) 0.7500(6) 0.7219(16)
C100 C 0.3539(7) 0.7804(7) 0.7945(18)
H92 H 0.3330 0.7881 0.8400
H93 H 0.3630 0.8027 0.7567
H94 H 0.3756 0.7697 0.8331
C101 C 0.3588(7) 0.7552(7) 0.6201(17)
H95 H 0.3870 0.7531 0.6288
H96 H 0.3524 0.7805 0.5929
H97 H 0.3499 0.7353 0.5738
C102 C 0.3008(7) 0.7713(7) 0.724(2)
H98 H 0.2865 0.7666 0.6622
H99 H 0.3059 0.7989 0.7310
H100 H 0.2853 0.7625 0.7813
C110 C 0.2457(5) 0.8597(6) 0.9329(13)
C111 C 0.2408(7) 0.9026(6) 0.9219(17)
H104 H 0.2137 0.9096 0.9352
H105 H 0.2478 0.9103 0.8537
H106 H 0.2578 0.9157 0.9695
C112 C 0.2389(7) 0.8448(6) 0.8293(14)
H107 H 0.2440 0.8172 0.8276
H108 H 0.2564 0.8579 0.7827
H109 H 0.2119 0.8497 0.8099
C113 C 0.2891(5) 0.8577(5) 0.9493(13)
H111 H 0.3026 0.8668 0.8893
H112 H 0.2967 0.8311 0.9629
O19 O 0.2460(3) 0.7799(4) 0.9865(9)
O20 O 0.2935(3) 0.7307(3) 0.8926(8)
Cd11 Cd 0.5000 0.46175(5) 0.7500
C141 C 0.7834(4) 0.1538(5) 0.0445(11)
H134 H 0.7781 0.1271 0.0485
C142 C 0.8155(3) 0.1705(4) 0.1117(7)
C143 C 0.8182(3) 0.2083(4) 0.1437(9)
C144 C 0.8448(4) 0.2183(3) 0.2175(10)
C145 C 0.8687(3) 0.1904(4) 0.2593(8)
H135 H 0.8869 0.1971 0.3097
C146 C 0.8660(3) 0.1525(3) 0.2272(9)
C147 C 0.8394(4) 0.1426(3) 0.1535(9)
H136 H 0.8375 0.1167 0.1316
C148 C 0.8923(4) 0.1230(4) 0.2685(12)
C149 C 0.9063(4) 0.1260(4) 0.3643(11)
H137 H 0.8986 0.1471 0.4045
C150 C 0.9320(4) 0.0984(4) 0.4046(12)
H138 H 0.9412 0.1001 0.4714
C151 C 0.9434(5) 0.0684(5) 0.3419(12)
C152 C 0.9276(4) 0.0625(5) 0.2485(12)
H139 H 0.9323 0.0397 0.2113
C153 C 0.9044(4) 0.0922(5) 0.2127(12)
H140 H 0.8964 0.0910 0.1448
C154 C 0.9693(5) 0.0367(5) 0.3840(11)
C155 C 0.8006(4) 0.2650(5) 0.3098(12)
H141 H 0.7809 0.2576 0.2604
H142 H 0.7971 0.2921 0.3274
H143 H 0.7977 0.2492 0.3698
C156 C 0.8583(6) 0.2847(6) 0.1834(14)
H144 H 0.8861 0.2793 0.1763
H145 H 0.8546 0.3117 0.2013
H146 H 0.8451 0.2794 0.1201
O27 O 0.7982(4) 0.2375(4) 0.0923(11)
O29 O 0.9720(3) 0.0057(3) 0.3458(7)
O30 O 0.9914(3) 0.0482(3) 0.4619(7)
C163 C 0.8762(5) 0.2628(6) 0.3413(14)
H157 H 0.8705 0.2481 0.4020
H158 H 0.8801 0.2899 0.3587
H159 H 0.8999 0.2528 0.3102
C164 C 0.8412(5) 0.2591(4) 0.2657(12)
C165 C 0.7492(5) 0.3431(5) 0.1444(12)
H160 H 0.7224 0.3338 0.1494
H161 H 0.7546 0.3608 0.1997
H162 H 0.7672 0.3213 0.1478
C166 C 0.7547(6) 0.3640(6) 0.0454(14)
C167 C 0.7953(5) 0.3619(6) 0.0040(15)
H164 H 0.8138 0.3708 0.0546
C168 C 0.7424(7) 0.4047(6) 0.0695(18)
H166 H 0.7567 0.4226 0.0267
H167 H 0.7481 0.4103 0.1397
H168 H 0.7144 0.4075 0.0576
O31 O 0.9822(3) 0.0825(3) 0.6426(7)
O33 O 0.9448(3) 0.0274(3) 0.8537(7)
H170 H 0.995849 0.0882129 0.903249
C127 C 0.5790(4) 0.4549(4) 0.6017(10)
C128 C 0.6051(3) 0.4284(3) 0.6626(7)
C129 C 0.6094(3) 0.4339(2) 0.7648(8)
H127 H 0.5950 0.4535 0.7977
C130 C 0.6347(3) 0.4109(3) 0.8190(5)
H128 H 0.6377 0.4146 0.8889
C131 C 0.6558(3) 0.3823(3) 0.7708(8)
C132 C 0.6515(3) 0.3768(2) 0.6686(8)
H129 H 0.6659 0.3573 0.6357
C133 C 0.6262(3) 0.3999(3) 0.6144(5)
H130 H 0.6233 0.3961 0.5445
C134 C 0.6822(5) 0.3543(6) 0.8411(13)
C135 C 0.7055(5) 0.3680(6) 0.9108(13)
H131 H 0.7043 0.3946 0.9267
C136 C 0.7325(5) 0.3441(6) 0.9628(12)
C137 C 0.7339(6) 0.3044(6) 0.9407(14)
C138 C 0.7093(6) 0.2898(6) 0.8658(14)
C139 C 0.6828(5) 0.3150(6) 0.8195(14)
H132 H 0.6648 0.3051 0.7724
C140 C 0.7099(5) 0.2526(5) 0.8331(14)
H133 H 0.6920 0.2451 0.7825
C157 C 0.7260(6) 0.1871(5) 0.8360(13)
H147 H 0.7489 0.1818 0.7922
C158 C 0.7333(6) 0.1579(6) 0.9269(15)
H148 H 0.7102 0.1635 0.9702
C159 C 0.7318(7) 0.1168(7) 0.9213(16)
H149 H 0.7259 0.1057 0.9878
H150 H 0.7570 0.1064 0.8981
C160 C 0.6973(6) 0.1062(6) 0.8420(14)
H151 H 0.7006 0.0791 0.8214
H152 H 0.6720 0.1082 0.8769
C161 C 0.6957(5) 0.1316(5) 0.7460(14)
H153 H 0.7189 0.1266 0.7044
H154 H 0.6724 0.1248 0.7063
C162 C 0.6941(5) 0.1742(5) 0.7741(12)
H155 H 0.6938 0.1896 0.7119
H156 H 0.6694 0.1791 0.8098
N7 N 0.7339(5) 0.2269(5) 0.8685(11)
N8 N 0.7628(5) 0.1746(5) 0.9817(12)
O26 O 0.7611(3) 0.2850(3) 0.9823(7)
O28 O 0.8116(3) 0.2368(3) 0.8878(8)
V4 V 0.77945(11) 0.23581(10) 0.9545(2)
H163 H 0.8014 0.3353 0.9861
H165 H 0.7973 0.3781 0.9445
Cd7_2 Cd 1.0000 0.96219(5) 0.2500
O40 O 0.0280(3) 0.0057(3) 0.1542(7)
O42 O 0.0086(3) 0.0482(3) 0.0381(7)
O31_2 O 0.0178(3) 0.9175(3) 0.1426(7)
H170_2 H 0.00415114 0.911787 0.403249
C127_2 C 0.4210(4) 0.5451(4) 0.1017(10)
C128_2 C 0.3949(3) 0.5716(3) 0.1626(7)
C129_2 C 0.3906(3) 0.5661(2) 0.2648(8)
H127_2 H 0.4050 0.5465 0.2977
C130_2 C 0.3653(3) 0.5891(3) 0.3190(5)
H128_2 H 0.3623 0.5854 0.3889
C131_2 C 0.3442(3) 0.6177(3) 0.2708(8)
C132_2 C 0.3485(3) 0.6232(2) 0.1686(8)
H129_2 H 0.3341 0.6427 0.1357
C133_2 C 0.3738(3) 0.6001(3) 0.1144(5)
H130_2 H 0.3767 0.6039 0.0445
C134_2 C 0.3178(5) 0.6457(6) 0.3411(13)
C135_2 C 0.2945(5) 0.6320(6) 0.4108(13)
H131_2 H 0.2957 0.6054 0.4267
C136_2 C 0.2675(5) 0.6559(6) 0.4628(12)
C137_2 C 0.2661(6) 0.6956(6) 0.4407(14)
C138_2 C 0.2907(6) 0.7102(6) 0.3658(14)
C139_2 C 0.3172(5) 0.6850(6) 0.3195(14)
H132_2 H 0.3352 0.6949 0.2724
C140_2 C 0.2901(5) 0.7474(5) 0.3331(14)
H133_2 H 0.3080 0.7549 0.2825
C141_2 C 0.2166(4) 0.8462(5) 0.5445(11)
H134_2 H 0.2219 0.8729 0.5485
C142_2 C 0.1845(3) 0.8295(4) 0.6117(7)
C143_2 C 0.1818(3) 0.7917(4) 0.6437(9)
C144_2 C 0.1552(4) 0.7817(3) 0.7175(10)
C145_2 C 0.1313(3) 0.8096(4) 0.7593(8)
H135_2 H 0.1131 0.8029 0.8097
C146_2 C 0.1340(3) 0.8475(3) 0.7272(9)
C147_2 C 0.1606(4) 0.8574(3) 0.6535(9)
H136_2 H 0.1625 0.8833 0.6316
C148_2 C 0.1077(4) 0.8770(4) 0.7685(12)
C149_2 C 0.0937(4) 0.8740(4) 0.8643(11)
H137_2 H 0.1014 0.8529 0.9045
C150_2 C 0.0680(4) 0.9016(4) 0.9046(12)
H138_2 H 0.0588 0.8999 0.9714
C151_2 C 0.0566(5) 0.9316(5) 0.8419(12)
C152_2 C 0.0724(4) 0.9375(5) 0.7485(12)
H139_2 H 0.0677 0.9603 0.7113
C153_2 C 0.0956(4) 0.9078(5) 0.7127(12)
H140_2 H 0.1036 0.9090 0.6448
C154_2 C 0.0307(5) 0.9633(5) 0.8840(11)
C155_2 C 0.1994(4) 0.7350(5) 0.8098(12)
H141_2 H 0.2191 0.7424 0.7604
H142_2 H 0.2029 0.7079 0.8274
H143_2 H 0.2023 0.7508 0.8698
C156_2 C 0.1417(6) 0.7153(6) 0.6834(14)
H144_2 H 0.1139 0.7207 0.6763
H145_2 H 0.1454 0.6883 0.7013
H146_2 H 0.1549 0.7206 0.6201
C157_2 C 0.2740(6) 0.8129(5) 0.3360(13)
H147_2 H 0.2511 0.8182 0.2922
C158_2 C 0.2667(6) 0.8421(6) 0.4269(15)
H148_2 H 0.2898 0.8365 0.4702
C159_2 C 0.2682(7) 0.8832(7) 0.4213(16)
H149_2 H 0.2741 0.8943 0.4878
H150_2 H 0.2430 0.8936 0.3981
C160_2 C 0.3027(6) 0.8938(6) 0.3420(14)
H151_2 H 0.2994 0.9209 0.3214
H152_2 H 0.3280 0.8918 0.3769
C161_2 C 0.3043(5) 0.8684(5) 0.2460(14)
H153_2 H 0.2811 0.8734 0.2044
H154_2 H 0.3276 0.8752 0.2063
C162_2 C 0.3059(5) 0.8258(5) 0.2741(12)
H155_2 H 0.3062 0.8104 0.2119
H156_2 H 0.3306 0.8209 0.3098
N7_2 N 0.2661(5) 0.7731(5) 0.3685(11)
N8_2 N 0.2372(5) 0.8254(5) 0.4817(12)
O25 O 0.4180(3) 0.5492(3) 0.0138(8)
O26_2 O 0.2389(3) 0.7150(3) 0.4823(7)
O27_2 O 0.2018(4) 0.7625(4) 0.5923(11)
O28_2 O 0.1884(3) 0.7632(3) 0.3878(8)
O30_2 O 0.0086(3) 0.9518(3) 0.9619(7)
V4_2 V 0.22055(11) 0.76419(10) 0.4545(2)
C163_2 C 0.1238(5) 0.7372(6) 0.8413(14)
H157_2 H 0.1295 0.7519 0.9020
H158_2 H 0.1199 0.7101 0.8587
H159_2 H 0.1001 0.7472 0.8102
C164_2 C 0.1588(5) 0.7409(4) 0.7657(12)
C165_2 C 0.2508(5) 0.6569(5) 0.6444(12)
H160_2 H 0.2776 0.6662 0.6494
H161_2 H 0.2454 0.6392 0.6997
H162_2 H 0.2328 0.6787 0.6478
C166_2 C 0.2453(6) 0.6360(6) 0.5454(14)
C167_2 C 0.2047(5) 0.6381(6) 0.5040(15)
H163_2 H 0.1986 0.6647 0.4861
H164_2 H 0.1862 0.6292 0.5546
H165_2 H 0.2027 0.6219 0.4445
C168_2 C 0.2576(7) 0.5953(6) 0.5695(18)
H166_2 H 0.2433 0.5774 0.5267
H167_2 H 0.2519 0.5897 0.6397
H168_2 H 0.2856 0.5925 0.5576
Cd8 Cd 0.46813(5) 0.5000 0.0000
Cd8_2 Cd 0.46813(5) 0.5000 1.0000
Cd1 Cd 0.96775(5) 0.0000 0.0000
Cd1_2 Cd 0.96775(5) -0.0000 1.0000
C85_2 C 0.5287(4) 0.4609(4) 0.1104(11)
C86_2 C 0.5619(3) 0.4367(3) 0.1395(8)
C87_2 C 0.5740(3) 0.4405(2) 0.2381(7)
H85_2 H 0.5634 0.4603 0.2788
C88_2 C 0.6016(3) 0.4155(3) 0.2770(6)
H86_2 H 0.6098 0.4182 0.3444
C89_2 C 0.6171(3) 0.3867(3) 0.2174(8)
C90_2 C 0.6050(3) 0.3829(2) 0.1188(7)
H87_2 H 0.6156 0.3632 0.0780
C91_2 C 0.5774(3) 0.4079(3) 0.0798(5)
H88_2 H 0.5692 0.4053 0.0124
C92_2 C 0.6433(5) 0.3559(6) 0.2588(14)
C93_2 C 0.6447(5) 0.3190(6) 0.2238(13)
H89_2 H 0.6282 0.3130 0.1691
C94_2 C 0.6682(5) 0.2891(6) 0.2613(14)
C95_2 C 0.6894(6) 0.2970(6) 0.3391(15)
C96_2 C 0.6909(5) 0.3357(6) 0.3851(13)
C97_2 C 0.6683(5) 0.3639(6) 0.3366(14)
H90_2 H 0.6705 0.3897 0.3586
C98_2 C 0.7117(5) 0.3510(6) 0.4675(14)
H91_2 H 0.7142 0.3776 0.4813
C99_2 C 0.6614(7) 0.2500(6) 0.2219(16)
C100_2 C 0.6461(7) 0.2196(7) 0.2945(18)
H92_2 H 0.6670 0.2119 0.3400
H93_2 H 0.6370 0.1973 0.2567
H94_2 H 0.6244 0.2303 0.3331
C101_2 C 0.6412(7) 0.2448(7) 0.1201(17)
H95_2 H 0.6130 0.2469 0.1288
H96_2 H 0.6476 0.2195 0.0929
H97_2 H 0.6501 0.2647 0.0738
C102_2 C 0.6992(7) 0.2287(7) 0.224(2)
H98_2 H 0.7135 0.2334 0.1622
H99_2 H 0.6941 0.2011 0.2310
H100_2 H 0.7147 0.2375 0.2813
C103_2 C 0.8040(6) 0.2507(6) 0.6359(16)
H101_2 H 0.8274 0.2589 0.6665
C104_2 C 0.7961(4) 0.2083(3) 0.6269(10)
C105_2 C 0.8192(3) 0.1845(4) 0.6852(8)
H102_2 H 0.8332 0.1948 0.7402
C106_2 C 0.8218(3) 0.1456(4) 0.6631(9)
C107_2 C 0.8014(4) 0.1306(3) 0.5827(10)
H103_2 H 0.8032 0.1040 0.5676
C108_2 C 0.7782(3) 0.1544(4) 0.5243(7)
C109_2 C 0.7756(3) 0.1933(4) 0.5464(9)
C110_2 C 0.7543(5) 0.1403(6) 0.4329(13)
C111_2 C 0.7592(7) 0.0974(6) 0.4219(17)
H104_2 H 0.7863 0.0904 0.4352
H105_2 H 0.7522 0.0897 0.3537
H106_2 H 0.7422 0.0843 0.4695
C112_2 C 0.7611(7) 0.1552(6) 0.3293(14)
H107_2 H 0.7560 0.1828 0.3276
H108_2 H 0.7436 0.1421 0.2827
H109_2 H 0.7881 0.1503 0.3099
C113_2 C 0.7109(5) 0.1423(5) 0.4493(13)
H110_2 H 0.7038 0.1261 0.5063
H111_2 H 0.6974 0.1332 0.3893
H112_2 H 0.7033 0.1689 0.4629
C114_2 C 0.8504(4) 0.1227(4) 0.7148(12)
C115_2 C 0.8535(4) 0.1264(4) 0.8147(12)
H113_2 H 0.8393 0.1464 0.8463
C116_2 C 0.8755(4) 0.1036(5) 0.8720(12)
H114_2 H 0.8756 0.1077 0.9422
C117_2 C 0.8976(5) 0.0748(5) 0.8331(12)
C118_2 C 0.8933(5) 0.0690(4) 0.7291(11)
H115_2 H 0.9057 0.0478 0.6983
C119_2 C 0.8719(5) 0.0930(5) 0.6734(12)
H116_2 H 0.8716 0.0896 0.6030
C120_2 C 0.9218(5) 0.0524(5) 0.8890(11)
C121_2 C 0.7612(6) 0.3800(5) 0.6133(14)
H117_2 H 0.7360 0.3936 0.6133
H118_2 H 0.7760 0.3880 0.5533
C122_2 C 0.7841(6) 0.3899(6) 0.7073(16)
H119_2 H 0.7919 0.4173 0.7046
H120_2 H 0.7672 0.3864 0.7665
C123_2 C 0.8201(7) 0.3651(6) 0.7181(19)
H121_2 H 0.8327 0.3714 0.7826
H122_2 H 0.8386 0.3721 0.6643
C124_2 C 0.8135(7) 0.3218(7) 0.7142(18)
H123_2 H 0.8386 0.3079 0.7131
H124_2 H 0.7983 0.3131 0.7727
C125_2 C 0.7920(6) 0.3154(6) 0.6221(16)
H125_2 H 0.8095 0.3230 0.5657
C126_2 C 0.7548(6) 0.3386(6) 0.6113(16)
H126_2 H 0.7399 0.3331 0.6737
N5_2 N 0.7797(5) 0.2762(5) 0.6032(11)
N6_2 N 0.7272(5) 0.3236(5) 0.5225(11)
O17_2 O 0.9178(3) 0.0462(3) 0.9878(8)
O19_2 O 0.7540(3) 0.2201(4) 0.4865(9)
O20_2 O 0.7065(3) 0.2693(3) 0.3926(8)
O21_2 O 0.6973(4) 0.2561(4) 0.5761(11)
O23 O 0.5078(3) 0.4498(3) 0.0401(7)
V3_2 V 0.72946(11) 0.26679(10) 0.5209(2)
C1_2 C 0.4210(4) 0.4549(4) 0.8983(10)
C2_2 C 0.3949(3) 0.4284(3) 0.8374(7)
C3_2 C 0.3906(3) 0.4339(2) 0.7352(8)
H1_2 H 0.4050 0.4535 0.7023
C4_2 C 0.3653(3) 0.4109(3) 0.6810(5)
H2_2 H 0.3623 0.4146 0.6111
C5_2 C 0.3442(3) 0.3823(3) 0.7292(8)
C6_2 C 0.3485(3) 0.3768(2) 0.8314(8)
H3_2 H 0.3341 0.3573 0.8643
C7_2 C 0.3738(3) 0.3999(3) 0.8856(5)
H4_2 H 0.3767 0.3961 0.9555
C8_2 C 0.3178(5) 0.3543(6) 0.6589(13)
C9_2 C 0.2945(5) 0.3680(6) 0.5892(13)
H5_2 H 0.2957 0.3946 0.5733
C10_2 C 0.2675(5) 0.3441(6) 0.5372(12)
C11_2 C 0.2661(6) 0.3044(6) 0.5593(14)
C12_2 C 0.2907(6) 0.2898(6) 0.6342(14)
C13_2 C 0.3172(5) 0.3150(6) 0.6805(14)
H6_2 H 0.3352 0.3051 0.7276
C14_2 C 0.2901(5) 0.2526(5) 0.6669(14)
H7_2 H 0.3080 0.2451 0.7175
C15_2 C 0.2166(4) 0.1538(5) 0.4555(11)
H8_2 H 0.2219 0.1271 0.4515
C16_2 C 0.1845(3) 0.1705(4) 0.3883(7)
C17_2 C 0.1818(3) 0.2083(4) 0.3563(9)
C18_2 C 0.1552(4) 0.2183(3) 0.2825(10)
C19_2 C 0.1313(3) 0.1904(4) 0.2407(8)
H9_2 H 0.1131 0.1971 0.1903
C20_2 C 0.1340(3) 0.1525(3) 0.2728(9)
C21_2 C 0.1606(4) 0.1426(3) 0.3465(9)
H10_2 H 0.1625 0.1167 0.3684
C22_2 C 0.1077(4) 0.1230(4) 0.2315(12)
C23_2 C 0.0937(4) 0.1260(4) 0.1357(11)
H11_2 H 0.1014 0.1471 0.0955
C24_2 C 0.0680(4) 0.0984(4) 0.0954(12)
H12_2 H 0.0588 0.1001 0.0286
C25_2 C 0.0566(5) 0.0684(5) 0.1581(12)
C26_2 C 0.0724(4) 0.0625(5) 0.2515(12)
H13_2 H 0.0677 0.0397 0.2887
C27_2 C 0.0956(4) 0.0922(5) 0.2873(12)
H14_2 H 0.1036 0.0910 0.3552
C28_2 C 0.0307(5) 0.0367(5) 0.1160(11)
C29_2 C 0.1994(4) 0.2650(5) 0.1902(12)
H15_2 H 0.2191 0.2576 0.2396
H16_2 H 0.2029 0.2921 0.1726
H17_2 H 0.2023 0.2492 0.1302
C30_2 C 0.1417(6) 0.2847(6) 0.3166(14)
H18_2 H 0.1139 0.2793 0.3237
H19_2 H 0.1454 0.3117 0.2987
H20_2 H 0.1549 0.2794 0.3799
C31_2 C 0.2740(6) 0.1871(5) 0.6640(13)
H21_2 H 0.2511 0.1818 0.7078
C32_2 C 0.2667(6) 0.1579(6) 0.5731(15)
H22_2 H 0.2898 0.1635 0.5298
C33_2 C 0.2682(7) 0.1168(7) 0.5787(16)
H23_2 H 0.2741 0.1057 0.5122
H24_2 H 0.2430 0.1064 0.6019
C34_2 C 0.3027(6) 0.1062(6) 0.6580(14)
H25_2 H 0.2994 0.0791 0.6786
H26_2 H 0.3280 0.1082 0.6231
C35_2 C 0.3043(5) 0.1316(5) 0.7540(14)
H27_2 H 0.2811 0.1266 0.7956
H28_2 H 0.3276 0.1248 0.7937
C36_2 C 0.3059(5) 0.1742(5) 0.7259(12)
H29_2 H 0.3062 0.1896 0.7881
H30_2 H 0.3306 0.1791 0.6902
C37_2 C 0.5287(4) 0.5391(4) 0.8896(11)
C38_2 C 0.5619(3) 0.5633(3) 0.8605(8)
C39_2 C 0.5740(3) 0.5595(2) 0.7619(7)
H31_2 H 0.5634 0.5397 0.7212
C40_2 C 0.6016(3) 0.5845(3) 0.7230(6)
H32_2 H 0.6098 0.5818 0.6556
C41_2 C 0.6171(3) 0.6133(3) 0.7826(8)
C42_2 C 0.6050(3) 0.6171(2) 0.8812(7)
H33_2 H 0.6156 0.6368 0.9220
C43_2 C 0.5774(3) 0.5921(3) 0.9202(5)
H34_2 H 0.5692 0.5947 0.9876
C44_2 C 0.6433(5) 0.6441(6) 0.7412(14)
C45_2 C 0.6447(5) 0.6810(6) 0.7762(13)
H35_2 H 0.6282 0.6870 0.8309
C46_2 C 0.6682(5) 0.7109(6) 0.7387(14)
C47_2 C 0.6894(6) 0.7030(6) 0.6609(15)
C48_2 C 0.6909(5) 0.6643(6) 0.6149(13)
C49_2 C 0.6683(5) 0.6361(6) 0.6634(14)
H36_2 H 0.6705 0.6103 0.6414
C50_2 C 0.7117(5) 0.6490(6) 0.5325(14)
H37_2 H 0.7142 0.6224 0.5187
C51_2 C 0.6614(7) 0.7500(6) 0.7781(16)
C52_2 C 0.6461(7) 0.7804(7) 0.7055(18)
H38_2 H 0.6670 0.7881 0.6600
H39_2 H 0.6370 0.8027 0.7433
H40_2 H 0.6244 0.7697 0.6669
C53_2 C 0.6412(7) 0.7552(7) 0.8799(17)
H41_2 H 0.6130 0.7531 0.8712
H42_2 H 0.6476 0.7805 0.9071
H43_2 H 0.6501 0.7353 0.9262
C54_2 C 0.6992(7) 0.7713(7) 0.776(2)
H44_2 H 0.7135 0.7666 0.8378
H45_2 H 0.6941 0.7989 0.7690
H46_2 H 0.7147 0.7625 0.7187
C55_2 C 0.8040(6) 0.7493(6) 0.3641(16)
H47_2 H 0.8274 0.7411 0.3335
C56_2 C 0.7961(4) 0.7917(3) 0.3731(10)
C57_2 C 0.8192(3) 0.8155(4) 0.3148(8)
H48_2 H 0.8332 0.8052 0.2598
C58_2 C 0.8218(3) 0.8544(4) 0.3369(9)
C59_2 C 0.8014(4) 0.8694(3) 0.4173(10)
H49_2 H 0.8032 0.8960 0.4324
C60_2 C 0.7782(3) 0.8456(4) 0.4757(7)
C61_2 C 0.7756(3) 0.8067(4) 0.4536(9)
C62_2 C 0.7543(5) 0.8597(6) 0.5671(13)
C63_2 C 0.7592(7) 0.9026(6) 0.5781(17)
H50_2 H 0.7863 0.9096 0.5648
H51_2 H 0.7522 0.9103 0.6463
H52_2 H 0.7422 0.9157 0.5305
C64_2 C 0.7611(7) 0.8448(6) 0.6707(14)
H53_2 H 0.7560 0.8172 0.6724
H54_2 H 0.7436 0.8579 0.7173
H55_2 H 0.7881 0.8497 0.6901
C65_2 C 0.7109(5) 0.8577(5) 0.5507(13)
H56_2 H 0.7038 0.8739 0.4937
H57_2 H 0.6974 0.8668 0.6107
H58_2 H 0.7033 0.8311 0.5371
C66_2 C 0.8504(4) 0.8773(4) 0.2852(12)
C67_2 C 0.8535(4) 0.8736(4) 0.1853(12)
H59_2 H 0.8393 0.8536 0.1537
C68_2 C 0.8755(4) 0.8964(5) 0.1280(12)
H60_2 H 0.8756 0.8923 0.0578
C69_2 C 0.8976(5) 0.9252(5) 0.1669(12)
C70_2 C 0.8933(5) 0.9310(4) 0.2709(11)
H61_2 H 0.9057 0.9522 0.3017
C71_2 C 0.8719(5) 0.9070(5) 0.3266(12)
H62_2 H 0.8716 0.9104 0.3970
C72_2 C 0.9218(5) 0.9476(5) 0.1110(11)
C73_2 C 0.7612(6) 0.6200(5) 0.3867(14)
H63_2 H 0.7360 0.6064 0.3867
H64_2 H 0.7760 0.6120 0.4467
C74_2 C 0.7841(6) 0.6101(6) 0.2927(16)
H65_2 H 0.7919 0.5827 0.2954
H66_2 H 0.7672 0.6136 0.2335
C75_2 C 0.8201(7) 0.6349(6) 0.2819(19)
H67_2 H 0.8327 0.6286 0.2174
H68_2 H 0.8386 0.6279 0.3357
C76_2 C 0.8135(7) 0.6782(7) 0.2858(18)
H69_2 H 0.8386 0.6921 0.2869
H70_2 H 0.7983 0.6869 0.2273
C77_2 C 0.7920(6) 0.6846(6) 0.3779(16)
H71_2 H 0.8095 0.6770 0.4343
C78_2 C 0.7548(6) 0.6614(6) 0.3887(16)
H72_2 H 0.7399 0.6669 0.3263
Cd1_3 Cd 0.96775(5) 1.0000 0.0000
N1_2 N 0.7797(5) 0.7238(5) 0.3968(11)
N2_2 N 0.7272(5) 0.6764(5) 0.4775(11)
N3_2 N 0.2661(5) 0.2269(5) 0.6315(11)
N4_2 N 0.2372(5) 0.1746(5) 0.5183(12)
O1_2 O 0.9178(3) 0.9538(3) 0.0122(8)
O2_2 O 0.9448(3) 0.9726(3) 0.1463(7)
O3_2 O 0.7540(3) 0.7799(4) 0.5135(9)
O4_2 O 0.7065(3) 0.7307(3) 0.6074(8)
O5_2 O 0.6973(4) 0.7439(4) 0.4239(11)
O6_2 O 0.5257(3) 0.5071(3) 0.8565(7)
O7_2 O 0.5078(3) 0.5502(3) 0.9599(7)
O8_2 O 0.9822(3) 0.9175(3) 0.3574(7)
O9_2 O 0.4471(3) 0.4718(3) 0.8521(7)
O10_2 O 0.4180(3) 0.4508(3) 0.9862(8)
O11_2 O 0.2389(3) 0.2850(3) 0.5177(7)
O12_2 O 0.2018(4) 0.2375(4) 0.4077(11)
O13_2 O 0.1884(3) 0.2368(3) 0.6122(8)
O16_2 O 0.4825(3) 0.4144(3) 0.6383(8)
V1_2 V 0.22055(11) 0.23581(10) 0.5455(2)
V2_2 V 0.72946(11) 0.73321(10) 0.4791(2)
C79_2 C 0.1238(5) 0.2628(6) 0.1587(14)
H73_2 H 0.1295 0.2481 0.0980
H74_2 H 0.1199 0.2899 0.1413
H75_2 H 0.1001 0.2528 0.1898
C80_2 C 0.1588(5) 0.2591(4) 0.2343(12)
C81_2 C 0.2508(5) 0.3431(5) 0.3556(12)
H76_2 H 0.2776 0.3338 0.3506
H77_2 H 0.2454 0.3608 0.3003
H78_2 H 0.2328 0.3213 0.3522
C82_2 C 0.2453(6) 0.3640(6) 0.4546(14)
C83_2 C 0.2047(5) 0.3619(6) 0.4960(15)
H79_2 H 0.1986 0.3353 0.5139
H80_2 H 0.1862 0.3708 0.4454
H81_2 H 0.2027 0.3781 0.5555
C84_2 C 0.2576(7) 0.4047(6) 0.4305(18)
H82_2 H 0.2433 0.4226 0.4733
H83_2 H 0.2519 0.4103 0.3603
H84_2 H 0.2856 0.4075 0.4424
O32_2 O 0.5175(3) 0.4144(3) 0.8617(8)
Cd1_4 Cd 0.96775(5) 1.0000 1.0000
H170_3 H 0.995849 0.911787 0.0967507
H170_4 H 0.00415114 0.0882129 0.596751
loop_
_geom_bond_atom_site_label_1
_geom_bond_atom_site_label_2
_geom_bond_site_symmetry_1
_geom_bond_site_symmetry_2
C1 C2 1_555 1_555
C2 C3 1_555 1_555
C3 H1 1_555 1_555
C4 C3 1_555 1_555
H2 C4 1_555 1_555
C5 C4 1_555 1_555
C6 C5 1_555 1_555
H3 C6 1_555 1_555
C7 C2 1_555 1_555
H4 C7 1_555 1_555
C8 C5 1_555 1_555
C9 C8 1_555 1_555
H5 C9 1_555 1_555
C10 C9 1_555 1_555
C11 C10 1_555 1_555
C12 C11 1_555 1_555
C13 C8 1_555 1_555
H6 C13 1_555 1_555
C14 C12 1_555 1_555
H7 C14 1_555 1_555
C31 H21 1_555 1_555
C32 C31 1_555 1_555
H22 C32 1_555 1_555
C33 C32 1_555 1_555
H23 C33 1_555 1_555
H24 C33 1_555 1_555
C34 C33 1_555 1_555
H25 C34 1_555 1_555
H26 C34 1_555 1_555
C35 C34 1_555 1_555
H27 C35 1_555 1_555
H28 C35 1_555 1_555
C36 C31 1_555 1_555
H29 C36 1_555 1_555
H30 C36 1_555 1_555
C37 C38 1_555 1_555
C38 C39 1_555 1_555
C39 H31 1_555 1_555
C40 C39 1_555 1_555
H32 C40 1_555 1_555
C41 C40 1_555 1_555
C42 C41 1_555 1_555
H33 C42 1_555 1_555
C43 C38 1_555 1_555
H34 C43 1_555 1_555
C44 C41 1_555 1_555
C45 C44 1_555 1_555
H35 C45 1_555 1_555
C46 C45 1_555 1_555
C47 C46 1_555 1_555
C48 C47 1_555 1_555
C49 C44 1_555 1_555
H36 C49 1_555 1_555
C50 C48 1_555 1_555
H37 C50 1_555 1_555
C51 C46 1_555 1_555
C52 C51 1_555 1_555
H38 C52 1_555 1_555
H39 C52 1_555 1_555
H40 C52 1_555 1_555
C53 C51 1_555 1_555
H41 C53 1_555 1_555
H42 C53 1_555 1_555
H43 C53 1_555 1_555
C54 C51 1_555 1_555
H44 C54 1_555 1_555
H45 C54 1_555 1_555
H46 C54 1_555 1_555
C63 C62 1_555 1_555
H50 C63 1_555 1_555
H51 C63 1_555 1_555
H52 C63 1_555 1_555
C64 C62 1_555 1_555
H53 C64 1_555 1_555
H54 C64 1_555 1_555
H55 C64 1_555 1_555
C65 C62 1_555 1_555
H57 C65 1_555 1_555
H58 C65 1_555 1_555
Cd3 O6 1_555 1_555
Cd4 O6 1_555 1_555
N3 C14 1_555 1_555
O4 C47 1_555 1_555
O6 C37 1_555 1_555
O7 C37 1_555 1_555
O9 C1 1_555 1_555
O10 C1 1_555 1_555
O11 C11 1_555 1_555
O13 V1 1_555 1_555
O16 Cd4 1_555 1_555
V1 N3 1_555 1_555
O32 Cd4 1_555 1_555
O34 Cd3 1_555 1_555
O35 Cd4 1_555 1_555
O36 Cd3 1_555 1_555
O37 Cd3 1_555 1_555
O38 Cd4 1_555 1_555
O39 Cd3 1_555 1_555
C6 C7 1_555 1_555
C12 C13 1_555 1_555
C31 N3 1_555 1_555
C32 N4 1_555 1_555
C35 C36 1_555 1_555
C42 C43 1_555 1_555
C48 C49 1_555 1_555
Cd3 O7 1_555 1_555
Cd3 O9 1_555 1_555
Cd3 O10 1_555 1_555
Cd4 O9 1_555 1_555
N4 V1 1_555 1_555
O11 V1 1_555 1_555
C15 H8 1_555 1_555
C16 C15 1_555 1_555
C17 C16 1_555 1_555
C18 C17 1_555 1_555
C19 C18 1_555 1_555
H9 C19 1_555 1_555
C20 C19 1_555 1_555
C21 C16 1_555 1_555
H10 C21 1_555 1_555
C22 C20 1_555 1_555
C23 C22 1_555 1_555
H11 C23 1_555 1_555
C24 C23 1_555 1_555
H12 C24 1_555 1_555
C25 C24 1_555 1_555
C26 C25 1_555 1_555
H13 C26 1_555 1_555
C27 C22 1_555 1_555
H14 C27 1_555 1_555
C28 C25 1_555 1_555
C29 H15 1_555 1_555
H16 C29 1_555 1_555
H17 C29 1_555 1_555
C30 H18 1_555 1_555
H19 C30 1_555 1_555
H20 C30 1_555 1_555
C55 H47 1_555 1_555
C56 C55 1_555 1_555
C57 C56 1_555 1_555
H48 C57 1_555 1_555
C58 C57 1_555 1_555
C59 C58 1_555 1_555
H49 C59 1_555 1_555
C60 C59 1_555 1_555
C61 C56 1_555 1_555
C66 C58 1_555 1_555
C67 C66 1_555 1_555
H59 C67 1_555 1_555
C68 C67 1_555 1_555
H60 C68 1_555 1_555
C69 C68 1_555 1_555
C70 C69 1_555 1_555
H61 C70 1_555 1_555
C71 C66 1_555 1_555
H62 C71 1_555 1_555
C72 C69 1_555 1_555
C73 H63 1_555 1_555
H64 C73 1_555 1_555
C74 C73 1_555 1_555
H65 C74 1_555 1_555
H66 C74 1_555 1_555
C75 C74 1_555 1_555
H67 C75 1_555 1_555
H68 C75 1_555 1_555
C76 C75 1_555 1_555
H69 C76 1_555 1_555
H70 C76 1_555 1_555
C77 C76 1_555 1_555
H71 C77 1_555 1_555
C78 C73 1_555 1_555
H72 C78 1_555 1_555
Cd5 O1 1_555 1_555
Cd6 O2 1_555 1_555
N1 C55 1_555 1_555
O1 C72 1_555 1_555
O2 C72 1_555 1_555
O5 V2 1_555 1_555
O8 Cd6 1_555 1_555
O12 C17 1_555 1_555
O14 C28 1_555 1_555
O15 C28 1_555 1_555
V2 N1 1_555 1_555
C79 H73 1_555 1_555
H74 C79 1_555 1_555
H75 C79 1_555 1_555
C80 C18 1_555 1_555
C81 H76 1_555 1_555
H77 C81 1_555 1_555
H78 C81 1_555 1_555
C83 C82 1_555 1_555
H80 C83 1_555 1_555
C84 C82 1_555 1_555
H82 C84 1_555 1_555
H83 C84 1_555 1_555
H84 C84 1_555 1_555
C20 C21 1_555 1_555
C26 C27 1_555 1_555
C29 C80 1_555 1_555
C30 C80 1_555 1_555
C60 C61 1_555 1_555
C70 C71 1_555 1_555
C77 C78 1_555 1_555
C77 N1 1_555 1_555
C78 N2 1_555 1_555
Cd5 O2 1_555 1_555
N2 V2 1_555 1_555
C79 C80 1_555 1_555
C81 C82 1_555 1_555
C103 H101 1_555 1_555
C104 C103 1_555 1_555
C105 C104 1_555 1_555
H102 C105 1_555 1_555
C106 C105 1_555 1_555
C107 C106 1_555 1_555
H103 C107 1_555 1_555
C108 C107 1_555 1_555
C109 C104 1_555 1_555
C114 C106 1_555 1_555
C115 C114 1_555 1_555
H113 C115 1_555 1_555
C116 C115 1_555 1_555
H114 C116 1_555 1_555
C117 C116 1_555 1_555
C118 C117 1_555 1_555
H115 C118 1_555 1_555
C119 C114 1_555 1_555
H116 C119 1_555 1_555
C120 C117 1_555 1_555
C121 H117 1_555 1_555
H118 C121 1_555 1_555
C122 C121 1_555 1_555
H119 C122 1_555 1_555
H120 C122 1_555 1_555
C123 C122 1_555 1_555
H121 C123 1_555 1_555
H122 C123 1_555 1_555
C124 C123 1_555 1_555
H123 C124 1_555 1_555
H124 C124 1_555 1_555
C125 C124 1_555 1_555
H125 C125 1_555 1_555
C126 C121 1_555 1_555
H126 C126 1_555 1_555
N5 C103 1_555 1_555
O17 Cd5_2 1_555 1_555
O18 Cd5_2 1_555 1_555
O21 V3 1_555 1_555
V3 N5 1_555 1_555
Cd7 O18 1_555 1_555
C108 C109 1_555 1_555
C118 C119 1_555 1_555
C120 O17 1_555 1_555
C120 O18 1_555 1_555
C125 C126 1_555 1_555
C125 N5 1_555 1_555
C126 N6 1_555 1_555
N6 V3 1_555 1_555
C85 C86 1_555 1_555
C86 C87 1_555 1_555
C87 H85 1_555 1_555
C88 C87 1_555 1_555
H86 C88 1_555 1_555
C89 C88 1_555 1_555
C90 C89 1_555 1_555
H87 C90 1_555 1_555
C91 C86 1_555 1_555
H88 C91 1_555 1_555
C92 C89 1_555 1_555
C93 C92 1_555 1_555
H89 C93 1_555 1_555
C94 C93 1_555 1_555
C95 C94 1_555 1_555
C96 C95 1_555 1_555
C97 C92 1_555 1_555
H90 C97 1_555 1_555
C98 C96 1_555 1_555
H91 C98 1_555 1_555
C99 C94 1_555 1_555
C100 C99 1_555 1_555
H92 C100 1_555 1_555
H93 C100 1_555 1_555
H94 C100 1_555 1_555
C101 C99 1_555 1_555
H95 C101 1_555 1_555
H96 C101 1_555 1_555
H97 C101 1_555 1_555
C102 C99 1_555 1_555
H98 C102 1_555 1_555
H99 C102 1_555 1_555
H100 C102 1_555 1_555
C111 C110 1_555 1_555
H104 C111 1_555 1_555
H105 C111 1_555 1_555
H106 C111 1_555 1_555
C112 C110 1_555 1_555
H107 C112 1_555 1_555
H108 C112 1_555 1_555
H109 C112 1_555 1_555
C113 C110 1_555 1_555
H111 C113 1_555 1_555
H112 C113 1_555 1_555
O20 C95 1_555 1_555
O34 C85 1_555 1_555
O36 C85 1_555 1_555
Cd11 O34 1_555 1_555
C90 C91 1_555 1_555
C96 C97 1_555 1_555
C141 H134 1_555 1_555
C142 C141 1_555 1_555
C143 C142 1_555 1_555
C144 C143 1_555 1_555
C145 C144 1_555 1_555
H135 C145 1_555 1_555
C146 C145 1_555 1_555
C147 C142 1_555 1_555
H136 C147 1_555 1_555
C148 C146 1_555 1_555
C149 C148 1_555 1_555
H137 C149 1_555 1_555
C150 C149 1_555 1_555
H138 C150 1_555 1_555
C151 C150 1_555 1_555
C152 C151 1_555 1_555
H139 C152 1_555 1_555
C153 C148 1_555 1_555
H140 C153 1_555 1_555
C154 C151 1_555 1_555
C155 H141 1_555 1_555
H142 C155 1_555 1_555
H143 C155 1_555 1_555
C156 H144 1_555 1_555
H145 C156 1_555 1_555
H146 C156 1_555 1_555
O27 C143 1_555 1_555
O29 C154 1_555 1_555
C163 H157 1_555 1_555
H158 C163 1_555 1_555
H159 C163 1_555 1_555
C164 C144 1_555 1_555
C165 H160 1_555 1_555
H161 C165 1_555 1_555
H162 C165 1_555 1_555
C167 C166 1_555 1_555
H164 C167 1_555 1_555
C168 C166 1_555 1_555
H166 C168 1_555 1_555
H167 C168 1_555 1_555
H168 C168 1_555 1_555
O31 Cd6_2 1_555 1_555
O33 Cd6_2 1_555 1_555
C146 C147 1_555 1_555
C152 C153 1_555 1_555
C154 O30 1_555 1_555
C155 C164 1_555 1_555
C156 C164 1_555 1_555
C163 C164 1_555 1_555
C165 C166 1_555 1_555
C127 C128 1_555 1_555
C128 C129 1_555 1_555
C129 H127 1_555 1_555
C130 C129 1_555 1_555
H128 C130 1_555 1_555
C131 C130 1_555 1_555
C132 C131 1_555 1_555
H129 C132 1_555 1_555
C133 C128 1_555 1_555
H130 C133 1_555 1_555
C134 C131 1_555 1_555
C135 C134 1_555 1_555
H131 C135 1_555 1_555
C136 C135 1_555 1_555
C137 C136 1_555 1_555
C138 C137 1_555 1_555
C139 C134 1_555 1_555
H132 C139 1_555 1_555
C140 C138 1_555 1_555
H133 C140 1_555 1_555
C157 H147 1_555 1_555
C158 C157 1_555 1_555
H148 C158 1_555 1_555
C159 C158 1_555 1_555
H149 C159 1_555 1_555
H150 C159 1_555 1_555
C160 C159 1_555 1_555
H151 C160 1_555 1_555
H152 C160 1_555 1_555
C161 C160 1_555 1_555
H153 C161 1_555 1_555
H154 C161 1_555 1_555
C162 C157 1_555 1_555
H155 C162 1_555 1_555
H156 C162 1_555 1_555
N7 C140 1_555 1_555
O37 C127 1_555 1_555
O39 C127 1_555 1_555
O26 C137 1_555 1_555
O28 V4 1_555 1_555
V4 N7 1_555 1_555
Cd11 O37 1_555 1_555
C132 C133 1_555 1_555
C138 C139 1_555 1_555
C157 N7 1_555 1_555
C158 N8 1_555 1_555
C161 C162 1_555 1_555
N8 V4 1_555 1_555
O26 V4 1_555 1_555
O31_2 Cd7 1_555 1_555
C127_2 C128_2 1_555 1_555
C128_2 C129_2 1_555 1_555
C129_2 H127_2 1_555 1_555
C130_2 C129_2 1_555 1_555
H128_2 C130_2 1_555 1_555
C131_2 C130_2 1_555 1_555
C132_2 C131_2 1_555 1_555
H129_2 C132_2 1_555 1_555
C133_2 C128_2 1_555 1_555
H130_2 C133_2 1_555 1_555
C134_2 C131_2 1_555 1_555
C135_2 C134_2 1_555 1_555
H131_2 C135_2 1_555 1_555
C136_2 C135_2 1_555 1_555
C137_2 C136_2 1_555 1_555
C138_2 C137_2 1_555 1_555
C139_2 C134_2 1_555 1_555
H132_2 C139_2 1_555 1_555
C140_2 C138_2 1_555 1_555
H133_2 C140_2 1_555 1_555
C141_2 H134_2 1_555 1_555
C142_2 C141_2 1_555 1_555
C143_2 C142_2 1_555 1_555
C144_2 C143_2 1_555 1_555
C145_2 C144_2 1_555 1_555
H135_2 C145_2 1_555 1_555
C146_2 C145_2 1_555 1_555
C147_2 C142_2 1_555 1_555
H136_2 C147_2 1_555 1_555
C148_2 C146_2 1_555 1_555
C149_2 C148_2 1_555 1_555
H137_2 C149_2 1_555 1_555
C150_2 C149_2 1_555 1_555
H138_2 C150_2 1_555 1_555
C151_2 C150_2 1_555 1_555
C152_2 C151_2 1_555 1_555
H139_2 C152_2 1_555 1_555
C153_2 C148_2 1_555 1_555
H140_2 C153_2 1_555 1_555
C154_2 C151_2 1_555 1_555
C155_2 H141_2 1_555 1_555
H142_2 C155_2 1_555 1_555
H143_2 C155_2 1_555 1_555
C156_2 H144_2 1_555 1_555
H145_2 C156_2 1_555 1_555
H146_2 C156_2 1_555 1_555
C157_2 H147_2 1_555 1_555
C158_2 C157_2 1_555 1_555
H148_2 C158_2 1_555 1_555
C159_2 C158_2 1_555 1_555
H149_2 C159_2 1_555 1_555
H150_2 C159_2 1_555 1_555
C160_2 C159_2 1_555 1_555
H151_2 C160_2 1_555 1_555
H152_2 C160_2 1_555 1_555
C161_2 C160_2 1_555 1_555
H153_2 C161_2 1_555 1_555
H154_2 C161_2 1_555 1_555
C162_2 C157_2 1_555 1_555
H155_2 C162_2 1_555 1_555
H156_2 C162_2 1_555 1_555
N7_2 C140_2 1_555 1_555
N8_2 C141_2 1_555 1_555
O38 C127_2 1_555 1_555
O25 C127_2 1_555 1_555
O26_2 C137_2 1_555 1_555
O27_2 C143_2 1_555 1_555
O28_2 V4_2 1_555 1_555
O41 C154_2 1_555 1_555
V4_2 N7_2 1_555 1_555
C163_2 H157_2 1_555 1_555
H158_2 C163_2 1_555 1_555
H159_2 C163_2 1_555 1_555
C164_2 C144_2 1_555 1_555
C165_2 H160_2 1_555 1_555
H161_2 C165_2 1_555 1_555
H162_2 C165_2 1_555 1_555
C166_2 C136_2 1_555 1_555
C167_2 C166_2 1_555 1_555
H163_2 C167_2 1_555 1_555
H164_2 C167_2 1_555 1_555
H165_2 C167_2 1_555 1_555
C168_2 C166_2 1_555 1_555
H166_2 C168_2 1_555 1_555
H167_2 C168_2 1_555 1_555
H168_2 C168_2 1_555 1_555
Cd8 O38 1_555 1_555
C132_2 C133_2 1_555 1_555
C138_2 C139_2 1_555 1_555
C146_2 C147_2 1_555 1_555
C152_2 C153_2 1_555 1_555
C154_2 O30_2 1_555 1_555
C155_2 C164_2 1_555 1_555
C156_2 C164_2 1_555 1_555
C157_2 N7_2 1_555 1_555
C158_2 N8_2 1_555 1_555
C161_2 C162_2 1_555 1_555
N8_2 V4_2 1_555 1_555
O25 Cd8 1_555 1_555
O26_2 V4_2 1_555 1_555
O27_2 V4_2 1_555 1_555
C163_2 C164_2 1_555 1_555
C165_2 C166_2 1_555 1_555
C85_2 C86_2 1_555 1_555
C86_2 C87_2 1_555 1_555
C87_2 H85_2 1_555 1_555
C88_2 C87_2 1_555 1_555
H86_2 C88_2 1_555 1_555
C89_2 C88_2 1_555 1_555
C90_2 C89_2 1_555 1_555
H87_2 C90_2 1_555 1_555
C91_2 C86_2 1_555 1_555
H88_2 C91_2 1_555 1_555
C92_2 C89_2 1_555 1_555
C93_2 C92_2 1_555 1_555
H89_2 C93_2 1_555 1_555
C94_2 C93_2 1_555 1_555
C95_2 C94_2 1_555 1_555
C96_2 C95_2 1_555 1_555
C97_2 C92_2 1_555 1_555
H90_2 C97_2 1_555 1_555
C98_2 C96_2 1_555 1_555
H91_2 C98_2 1_555 1_555
C99_2 C94_2 1_555 1_555
C100_2 C99_2 1_555 1_555
H92_2 C100_2 1_555 1_555
H93_2 C100_2 1_555 1_555
H94_2 C100_2 1_555 1_555
C101_2 C99_2 1_555 1_555
H95_2 C101_2 1_555 1_555
H96_2 C101_2 1_555 1_555
H97_2 C101_2 1_555 1_555
C102_2 C99_2 1_555 1_555
H98_2 C102_2 1_555 1_555
H99_2 C102_2 1_555 1_555
H100_2 C102_2 1_555 1_555
C103_2 H101_2 1_555 1_555
C104_2 C103_2 1_555 1_555
C105_2 C104_2 1_555 1_555
H102_2 C105_2 1_555 1_555
C106_2 C105_2 1_555 1_555
C107_2 C106_2 1_555 1_555
H103_2 C107_2 1_555 1_555
C108_2 C107_2 1_555 1_555
C109_2 C104_2 1_555 1_555
C110_2 C108_2 1_555 1_555
C111_2 C110_2 1_555 1_555
H104_2 C111_2 1_555 1_555
H105_2 C111_2 1_555 1_555
H106_2 C111_2 1_555 1_555
C112_2 C110_2 1_555 1_555
H107_2 C112_2 1_555 1_555
H108_2 C112_2 1_555 1_555
H109_2 C112_2 1_555 1_555
C113_2 C110_2 1_555 1_555
H110_2 C113_2 1_555 1_555
H111_2 C113_2 1_555 1_555
H112_2 C113_2 1_555 1_555
C114_2 C106_2 1_555 1_555
C115_2 C114_2 1_555 1_555
H113_2 C115_2 1_555 1_555
C116_2 C115_2 1_555 1_555
H114_2 C116_2 1_555 1_555
C117_2 C116_2 1_555 1_555
C118_2 C117_2 1_555 1_555
H115_2 C118_2 1_555 1_555
C119_2 C114_2 1_555 1_555
H116_2 C119_2 1_555 1_555
C120_2 C117_2 1_555 1_555
C121_2 H117_2 1_555 1_555
H118_2 C121_2 1_555 1_555
C122_2 C121_2 1_555 1_555
H119_2 C122_2 1_555 1_555
H120_2 C122_2 1_555 1_555
C123_2 C122_2 1_555 1_555
H121_2 C123_2 1_555 1_555
H122_2 C123_2 1_555 1_555
C124_2 C123_2 1_555 1_555
H123_2 C124_2 1_555 1_555
H124_2 C124_2 1_555 1_555
C125_2 C124_2 1_555 1_555
H125_2 C125_2 1_555 1_555
C126_2 C121_2 1_555 1_555
H126_2 C126_2 1_555 1_555
N5_2 C103_2 1_555 1_555
N6_2 C98_2 1_555 1_555
O17_2 Cd1_2 1_555 1_555
O33 Cd1_2 1_555 1_555
O19_2 C109_2 1_555 1_555
O20_2 C95_2 1_555 1_555
O21_2 V3_2 1_555 1_555
O35 C85_2 1_555 1_555
O23 C85_2 1_555 1_555
V3_2 N5_2 1_555 1_555
Cd8 O35 1_555 1_555
C90_2 C91_2 1_555 1_555
C96_2 C97_2 1_555 1_555
C108_2 C109_2 1_555 1_555
C118_2 C119_2 1_555 1_555
C120_2 O17_2 1_555 1_555
C120_2 O33 1_555 1_555
C125_2 C126_2 1_555 1_555
C125_2 N5_2 1_555 1_555
C126_2 N6_2 1_555 1_555
N6_2 V3_2 1_555 1_555
O19_2 V3_2 1_555 1_555
O20_2 V3_2 1_555 1_555
O23 Cd8 1_555 1_555
C1_2 C2_2 1_555 1_555
C2_2 C3_2 1_555 1_555
C3_2 H1_2 1_555 1_555
C4_2 C3_2 1_555 1_555
H2_2 C4_2 1_555 1_555
C5_2 C4_2 1_555 1_555
C6_2 C5_2 1_555 1_555
H3_2 C6_2 1_555 1_555
C7_2 C2_2 1_555 1_555
H4_2 C7_2 1_555 1_555
C8_2 C5_2 1_555 1_555
C9_2 C8_2 1_555 1_555
H5_2 C9_2 1_555 1_555
C10_2 C9_2 1_555 1_555
C11_2 C10_2 1_555 1_555
C12_2 C11_2 1_555 1_555
C13_2 C8_2 1_555 1_555
H6_2 C13_2 1_555 1_555
C14_2 C12_2 1_555 1_555
H7_2 C14_2 1_555 1_555
C15_2 H8_2 1_555 1_555
C16_2 C15_2 1_555 1_555
C17_2 C16_2 1_555 1_555
C18_2 C17_2 1_555 1_555
C19_2 C18_2 1_555 1_555
H9_2 C19_2 1_555 1_555
C20_2 C19_2 1_555 1_555
C21_2 C16_2 1_555 1_555
H10_2 C21_2 1_555 1_555
C22_2 C20_2 1_555 1_555
C23_2 C22_2 1_555 1_555
H11_2 C23_2 1_555 1_555
C24_2 C23_2 1_555 1_555
H12_2 C24_2 1_555 1_555
C25_2 C24_2 1_555 1_555
C26_2 C25_2 1_555 1_555
H13_2 C26_2 1_555 1_555
C27_2 C22_2 1_555 1_555
H14_2 C27_2 1_555 1_555
C28_2 C25_2 1_555 1_555
C29_2 H15_2 1_555 1_555
H16_2 C29_2 1_555 1_555
H17_2 C29_2 1_555 1_555
C30_2 H18_2 1_555 1_555
H19_2 C30_2 1_555 1_555
H20_2 C30_2 1_555 1_555
C31_2 H21_2 1_555 1_555
C32_2 C31_2 1_555 1_555
H22_2 C32_2 1_555 1_555
C33_2 C32_2 1_555 1_555
H23_2 C33_2 1_555 1_555
H24_2 C33_2 1_555 1_555
C34_2 C33_2 1_555 1_555
H25_2 C34_2 1_555 1_555
H26_2 C34_2 1_555 1_555
C35_2 C34_2 1_555 1_555
H27_2 C35_2 1_555 1_555
H28_2 C35_2 1_555 1_555
C36_2 C31_2 1_555 1_555
H29_2 C36_2 1_555 1_555
H30_2 C36_2 1_555 1_555
C37_2 C38_2 1_555 1_555
C38_2 C39_2 1_555 1_555
C39_2 H31_2 1_555 1_555
C40_2 C39_2 1_555 1_555
H32_2 C40_2 1_555 1_555
C41_2 C40_2 1_555 1_555
C42_2 C41_2 1_555 1_555
H33_2 C42_2 1_555 1_555
C43_2 C38_2 1_555 1_555
H34_2 C43_2 1_555 1_555
C44_2 C41_2 1_555 1_555
C45_2 C44_2 1_555 1_555
H35_2 C45_2 1_555 1_555
C46_2 C45_2 1_555 1_555
C47_2 C46_2 1_555 1_555
C48_2 C47_2 1_555 1_555
C49_2 C44_2 1_555 1_555
H36_2 C49_2 1_555 1_555
C50_2 C48_2 1_555 1_555
H37_2 C50_2 1_555 1_555
C51_2 C46_2 1_555 1_555
C52_2 C51_2 1_555 1_555
H38_2 C52_2 1_555 1_555
H39_2 C52_2 1_555 1_555
H40_2 C52_2 1_555 1_555
C53_2 C51_2 1_555 1_555
H41_2 C53_2 1_555 1_555
H42_2 C53_2 1_555 1_555
H43_2 C53_2 1_555 1_555
C54_2 C51_2 1_555 1_555
H44_2 C54_2 1_555 1_555
H45_2 C54_2 1_555 1_555
H46_2 C54_2 1_555 1_555
C55_2 H47_2 1_555 1_555
C56_2 C55_2 1_555 1_555
C57_2 C56_2 1_555 1_555
H48_2 C57_2 1_555 1_555
C58_2 C57_2 1_555 1_555
C59_2 C58_2 1_555 1_555
H49_2 C59_2 1_555 1_555
C60_2 C59_2 1_555 1_555
C61_2 C56_2 1_555 1_555
C62_2 C60_2 1_555 1_555
C63_2 C62_2 1_555 1_555
H50_2 C63_2 1_555 1_555
H51_2 C63_2 1_555 1_555
H52_2 C63_2 1_555 1_555
C64_2 C62_2 1_555 1_555
H53_2 C64_2 1_555 1_555
H54_2 C64_2 1_555 1_555
H55_2 C64_2 1_555 1_555
C65_2 C62_2 1_555 1_555
H56_2 C65_2 1_555 1_555
H57_2 C65_2 1_555 1_555
H58_2 C65_2 1_555 1_555
C66_2 C58_2 1_555 1_555
C67_2 C66_2 1_555 1_555
H59_2 C67_2 1_555 1_555
C68_2 C67_2 1_555 1_555
H60_2 C68_2 1_555 1_555
C69_2 C68_2 1_555 1_555
C70_2 C69_2 1_555 1_555
H61_2 C70_2 1_555 1_555
C71_2 C66_2 1_555 1_555
H62_2 C71_2 1_555 1_555
C72_2 C69_2 1_555 1_555
C73_2 H63_2 1_555 1_555
H64_2 C73_2 1_555 1_555
C74_2 C73_2 1_555 1_555
H65_2 C74_2 1_555 1_555
H66_2 C74_2 1_555 1_555
C75_2 C74_2 1_555 1_555
H67_2 C75_2 1_555 1_555
H68_2 C75_2 1_555 1_555
C76_2 C75_2 1_555 1_555
H69_2 C76_2 1_555 1_555
H70_2 C76_2 1_555 1_555
C77_2 C76_2 1_555 1_555
H71_2 C77_2 1_555 1_555
C78_2 C73_2 1_555 1_555
H72_2 C78_2 1_555 1_555
Cd1_3 O1_2 1_555 1_555
Cd7_2 O2_2 1_555 1_555
Cd8_2 O6_2 1_555 1_555
Cd11 O6_2 1_555 1_555
N1_2 C55_2 1_555 1_555
N2_2 C50_2 1_555 1_555
N3_2 C14_2 1_555 1_555
N4_2 C15_2 1_555 1_555
O1_2 C72_2 1_555 1_555
O2_2 C72_2 1_555 1_555
O3_2 C61_2 1_555 1_555
O4_2 C47_2 1_555 1_555
O5_2 V2_2 1_555 1_555
O6_2 C37_2 1_555 1_555
O7_2 C37_2 1_555 1_555
O8_2 Cd7_2 1_555 1_555
O9_2 C1_2 1_555 1_555
O10_2 C1_2 1_555 1_555
O11_2 C11_2 1_555 1_555
O12_2 C17_2 1_555 1_555
O13_2 V1_2 1_555 1_555
O40 C28_2 1_555 1_555
O42 C28_2 1_555 1_555
O16_2 Cd11 1_555 1_555
V1_2 N3_2 1_555 1_555
V2_2 N1_2 1_555 1_555
C79_2 H73_2 1_555 1_555
H74_2 C79_2 1_555 1_555
H75_2 C79_2 1_555 1_555
C80_2 C18_2 1_555 1_555
C81_2 H76_2 1_555 1_555
H77_2 C81_2 1_555 1_555
H78_2 C81_2 1_555 1_555
C82_2 C10_2 1_555 1_555
C83_2 C82_2 1_555 1_555
H79_2 C83_2 1_555 1_555
H80_2 C83_2 1_555 1_555
H81_2 C83_2 1_555 1_555
C84_2 C82_2 1_555 1_555
H82_2 C84_2 1_555 1_555
H83_2 C84_2 1_555 1_555
H84_2 C84_2 1_555 1_555
O32_2 Cd11 1_555 1_555
C6_2 C7_2 1_555 1_555
C12_2 C13_2 1_555 1_555
C20_2 C21_2 1_555 1_555
C26_2 C27_2 1_555 1_555
C29_2 C80_2 1_555 1_555
C30_2 C80_2 1_555 1_555
C31_2 N3_2 1_555 1_555
C32_2 N4_2 1_555 1_555
C35_2 C36_2 1_555 1_555
C42_2 C43_2 1_555 1_555
C48_2 C49_2 1_555 1_555
C60_2 C61_2 1_555 1_555
C70_2 C71_2 1_555 1_555
C77_2 C78_2 1_555 1_555
C77_2 N1_2 1_555 1_555
C78_2 N2_2 1_555 1_555
Cd1_3 O2_2 1_555 1_555
Cd8_2 O7_2 1_555 1_555
Cd8_2 O9_2 1_555 1_555
Cd8_2 O10_2 1_555 1_555
Cd11 O9_2 1_555 1_555
N2_2 V2_2 1_555 1_555
N4_2 V1_2 1_555 1_555
O3_2 V2_2 1_555 1_555
O4_2 V2_2 1_555 1_555
O11_2 V1_2 1_555 1_555
O12_2 V1_2 1_555 1_555
C79_2 C80_2 1_555 1_555
C81_2 C82_2 1_555 1_555

#END
