
###############################################################################
#
# This file contains modified crystal structure data generated from the
# MOF subset of the Cambridge Structural Database (CSD) v543 
# hosted by the Cambridge Crystallographic Data Centre (CCDC).
#
# This work is licensed under the Creative Commons
# Attribution-NonCommercial-ShareAlike 4.0 International License.
# To view a copy of this license, visit
# http://creativecommons.org/licenses/by-nc-sa/4.0/
# or send a letter to
# Creative Commons, PO Box 1866, Mountain View, CA 94042, USA.
#
# CIF created using the CSD Python API on 29 September 2022
# The structure has been converted into the P1 space group
# The structure has a 3D framework
# The original CSD entry SEKBIW is in the orthorhombic crystal system
# The original CSD entry SEKBIW is in a Sohncke space group
# The framework has been calculated to contain at least 10.0% void space
# The void calculation uses a probe of radius 1.32A, grid spacing 0.4
# H atom positions have been added when not included in the experimental data
# Generated hydrogen atom positions removed from atoms on special positions
#
###############################################################################

data_SEKBIW
_chemical_formula_moiety         '(C336 H376 Cd15 Cu4 N16 O64 V4)n'
_symmetry_cell_setting           triclinic
_symmetry_space_group_name_H-M   'P 1'
_symmetry_Int_Tables_number      1
_space_group_name_Hall           'P 1'
loop_
_symmetry_equiv_pos_site_id
_symmetry_equiv_pos_as_xyz
1 x,y,z
_cell_length_a                   33.9506(14)
_cell_length_b                   35.3214(12)
_cell_length_c                   13.4377(5)
_cell_angle_alpha                90
_cell_angle_beta                 90
_cell_angle_gamma                90
_cell_volume                     16114.3
loop_
_atom_site_label
_atom_site_type_symbol
_atom_site_fract_x
_atom_site_fract_y
_atom_site_fract_z
O33 O 0.00780(15) 0.04464(13) 0.0439(3)
O35 O 0.02667(14) 0.00373(17) 0.1553(4)
Cd7 Cd -0.0000 0.037303(19) 0.7500
Cd2 Cd -0.0000 0.962697(19) 0.2500
O16 O 0.01657(17) 0.91546(16) 0.1448(4)
O37 O 0.05363(15) 0.97092(16) 0.3528(4)
H180 H 0.00558488 0.910591 0.401716
Cd3 Cd 0.467167(11) 0.5000 0.0000
Cd4 Cd 0.5000 0.537058(10) 0.2500
Cu1 Cu 0.22744(3) 0.76410(3) 0.47375(7)
O1 O 0.00780(15) 0.95536(13) 0.9561(3)
O2 O 0.02667(14) 0.99627(17) 0.8447(4)
O3 O 0.41755(6) 0.54853(6) 0.01061(14)
O4 O 0.44593(6) 0.52622(5) 0.14920(13)
O5 O 0.20395(13) 0.76354(13) 0.6087(3)
O6 O 0.24058(10) 0.71189(10) 0.4933(2)
O13 O 0.17998(15) 0.76365(13) 0.3889(3)
O15 O 0.48370(9) 0.58330(7) 0.3605(2)
N1 N 0.27262(16) 0.77054(14) 0.3678(4)
N2 N 0.23378(14) 0.81979(15) 0.4795(3)
C1 C 0.0302(2) 0.9633(2) 0.8843(6)
C2 C 0.1370(2) 0.8530(2) 0.7339(5)
C3 C 0.1368(2) 0.8111(2) 0.7688(5)
H1 H 0.1190 0.8040 0.8181
C4 C 0.1603(2) 0.78500(17) 0.7328(5)
C5 C 0.1800(2) 0.7939(2) 0.6449(5)
C6 C 0.1841(2) 0.8329(2) 0.6096(5)
C7 C 0.1614(2) 0.8586(2) 0.6580(5)
H2 H 0.1632 0.8833 0.6349
C8 C 0.15517(17) 0.74631(17) 0.7791(4)
C9 C 0.1286(2) 0.7448(2) 0.8677(5)
H3 H 0.1028 0.7536 0.8493
H4 H 0.1390 0.7607 0.9193
H5 H 0.1269 0.7193 0.8914
C10 C 0.1436(2) 0.7188(2) 0.6982(5)
H6 H 0.1185 0.7261 0.6711
H7 H 0.1418 0.6938 0.7256
H8 H 0.1631 0.7192 0.6465
C11 C 0.19422(19) 0.7315(2) 0.8157(6)
H9 H 0.1905 0.7071 0.8457
H10 H 0.2049 0.7486 0.8641
H11 H 0.2121 0.7293 0.7608
C12 C 0.2115(2) 0.8413(2) 0.5477(5)
H12 H 0.2180 0.8669 0.5477
C13 C 0.2630(2) 0.83940(11) 0.4048(5)
H13 H 0.2853 0.8394 0.4511
C14 C 0.26257(15) 0.88113(12) 0.3919(4)
H14 H 0.2375 0.8892 0.3644
H15 H 0.2663 0.8936 0.4556
C15 C 0.29514(16) 0.89112(16) 0.3231(4)
H16 H 0.2854 0.9111 0.2802
H17 H 0.3159 0.9021 0.3633
C16 C 0.3139(3) 0.86273(11) 0.2580(5)
H18 H 0.3418 0.8683 0.2578
H19 H 0.3044 0.8676 0.1911
C17 C 0.31002(15) 0.82101(12) 0.2748(4)
H20 H 0.3056 0.8090 0.2109
H21 H 0.3349 0.8117 0.3003
C18 C 0.27839(16) 0.80872(16) 0.3436(4)
H22 H 0.2573 0.8098 0.2939
C19 C 0.2955(2) 0.74410(18) 0.3499(5)
H23 H 0.3185 0.7507 0.3165
C20 C 0.25022(14) 0.63828(14) 0.5631(4)
C21 C 0.2555(2) 0.6614(2) 0.6592(4)
H24 H 0.2491 0.6874 0.6465
H25 H 0.2823 0.6595 0.6813
H26 H 0.2382 0.6516 0.7097
C22 C 0.20658(17) 0.6357(2) 0.5394(5)
H27 H 0.1967 0.6605 0.5242
H28 H 0.1928 0.6257 0.5958
H29 H 0.2027 0.6194 0.4831
C23 C 0.2607(2) 0.59587(17) 0.5851(5)
H30 H 0.2454 0.5870 0.6404
H31 H 0.2882 0.5938 0.6007
H32 H 0.2549 0.5808 0.5275
C24 C 0.42032(13) 0.54600(13) 0.1043(3)
C40 C 0.05834(8) 0.93340(8) 0.8561(2)
C41 C 0.07227(11) 0.90396(9) 0.9151(2)
H60 H 0.0639 0.9018 0.9807
C42 C 0.09866(14) 0.87783(11) 0.8759(3)
H61 H 0.1080 0.8581 0.9154
C43 C 0.11113(15) 0.88113(13) 0.7778(4)
C44 C 0.09720(14) 0.91056(13) 0.7188(3)
H62 H 0.1055 0.9128 0.6531
C45 C 0.07081(11) 0.93670(10) 0.7580(2)
H63 H 0.0615 0.9564 0.7185
C46 C 0.29177(7) 0.70800(7) 0.37151(15)
C47 C 0.26915(9) 0.69355(8) 0.4489(2)
C48 C 0.27239(12) 0.65560(8) 0.4751(2)
C49 C 0.29824(12) 0.63212(7) 0.4239(2)
H64 H 0.3004 0.6067 0.4414
C50 C 0.32085(11) 0.64657(8) 0.3465(3)
C51 C 0.31762(9) 0.68451(8) 0.3203(2)
H65 H 0.3328 0.6942 0.2685
C52 C 0.34832(5) 0.62019(5) 0.28165(12)
C53 C 0.36854(6) 0.59024(5) 0.32519(14)
H66 H 0.3665 0.5860 0.3933
C54 C 0.39182(8) 0.56665(6) 0.26695(19)
H67 H 0.4054 0.5466 0.2961
C55 C 0.39489(8) 0.57300(7) 0.16516(19)
C56 C 0.37467(9) 0.60294(7) 0.12161(14)
H68 H 0.3767 0.6072 0.0535
C57 C 0.35139(7) 0.62653(6) 0.17985(12)
H69 H 0.3379 0.6466 0.1507
O31 O 0.51630(9) 0.58330(7) 0.1395(2)
O36 O 0.55407(6) 0.52622(5) 0.35080(13)
O39 O 0.50824(7) 0.45159(6) 0.03491(18)
O40 O 0.47185(9) 0.49421(8) 0.3532(2)
O41 O 0.52815(9) 0.49421(8) 0.1468(2)
H171 H 0.163739 0.78637 0.40341
H172 H 0.187947 0.763888 0.317801
Cd3_2 Cd 0.467167(11) 0.5000 1.0000
Cu2 Cu 0.22744(3) 0.23590(3) 0.52625(7)
O19 O 0.41755(6) 0.45147(6) 0.98939(14)
O20 O 0.44593(6) 0.47378(5) 0.85080(13)
O21 O 0.20395(13) 0.23646(13) 0.3913(3)
O22 O 0.24058(10) 0.28811(10) 0.5067(2)
O23 O 0.17998(15) 0.23635(13) 0.6111(3)
N5 N 0.27262(16) 0.22946(14) 0.6322(4)
N6 N 0.23378(14) 0.18021(15) 0.5205(3)
C85 C 0.0302(2) 0.0367(2) 0.1157(6)
C86 C 0.1370(2) 0.1470(2) 0.2661(5)
C87 C 0.1368(2) 0.1889(2) 0.2312(5)
H85 H 0.1190 0.1960 0.1819
C88 C 0.1603(2) 0.21500(17) 0.2672(5)
C89 C 0.1800(2) 0.2061(2) 0.3551(5)
C90 C 0.1841(2) 0.1671(2) 0.3904(5)
C91 C 0.1614(2) 0.1414(2) 0.3420(5)
H86 H 0.1632 0.1167 0.3651
C92 C 0.15517(17) 0.25369(17) 0.2209(4)
C93 C 0.1286(2) 0.2552(2) 0.1323(5)
H87 H 0.1028 0.2464 0.1507
H88 H 0.1390 0.2393 0.0807
H89 H 0.1269 0.2807 0.1086
C94 C 0.1436(2) 0.2812(2) 0.3018(5)
H90 H 0.1185 0.2739 0.3289
H91 H 0.1418 0.3062 0.2744
H92 H 0.1631 0.2808 0.3535
C95 C 0.19422(19) 0.2685(2) 0.1843(6)
H93 H 0.1905 0.2929 0.1543
H94 H 0.2049 0.2514 0.1359
H95 H 0.2121 0.2707 0.2392
C96 C 0.2115(2) 0.1587(2) 0.4523(5)
H96 H 0.2180 0.1331 0.4523
C97 C 0.2630(2) 0.16060(11) 0.5952(5)
H97 H 0.2853 0.1606 0.5489
C98 C 0.26257(15) 0.11887(12) 0.6081(4)
H98 H 0.2375 0.1108 0.6356
H99 H 0.2663 0.1064 0.5444
C99 C 0.29514(16) 0.10888(16) 0.6769(4)
H100 H 0.2854 0.0889 0.7198
H101 H 0.3159 0.0979 0.6367
C100 C 0.3139(3) 0.13727(11) 0.7420(5)
H102 H 0.3418 0.1317 0.7422
H103 H 0.3044 0.1324 0.8089
C101 C 0.31002(15) 0.17899(12) 0.7252(4)
H104 H 0.3056 0.1910 0.7891
H105 H 0.3349 0.1883 0.6997
C102 C 0.27839(16) 0.19128(16) 0.6564(4)
H106 H 0.2573 0.1902 0.7061
C103 C 0.2955(2) 0.25590(18) 0.6501(5)
H107 H 0.3185 0.2493 0.6835
C104 C 0.25022(14) 0.36172(14) 0.4369(4)
C105 C 0.2555(2) 0.3386(2) 0.3408(4)
H108 H 0.2491 0.3126 0.3535
H109 H 0.2823 0.3405 0.3187
H110 H 0.2382 0.3484 0.2903
C106 C 0.20658(17) 0.3643(2) 0.4606(5)
H111 H 0.1967 0.3395 0.4758
H112 H 0.1928 0.3743 0.4042
H113 H 0.2027 0.3806 0.5169
C107 C 0.2607(2) 0.40413(17) 0.4149(5)
H114 H 0.2454 0.4130 0.3596
H115 H 0.2882 0.4062 0.3993
H116 H 0.2549 0.4192 0.4725
C108 C 0.42032(13) 0.45400(13) 0.8957(3)
C109 C 0.05834(8) 0.06660(8) 0.1439(2)
C110 C 0.07227(11) 0.09604(9) 0.0849(2)
H117 H 0.0639 0.0982 0.0193
C111 C 0.09866(14) 0.12217(11) 0.1241(3)
H118 H 0.1080 0.1419 0.0846
C112 C 0.11113(15) 0.11887(13) 0.2222(4)
C113 C 0.09720(14) 0.08944(13) 0.2812(3)
H119 H 0.1055 0.0872 0.3469
C114 C 0.07081(11) 0.06330(10) 0.2420(2)
H120 H 0.0615 0.0436 0.2815
C115 C 0.29177(7) 0.29200(7) 0.62849(15)
C116 C 0.26915(9) 0.30645(8) 0.5511(2)
C117 C 0.27239(12) 0.34440(8) 0.5249(2)
C118 C 0.29824(12) 0.36788(7) 0.5761(2)
H121 H 0.3004 0.3933 0.5586
C119 C 0.32085(11) 0.35343(8) 0.6535(3)
C120 C 0.31762(9) 0.31549(8) 0.6797(2)
H122 H 0.3328 0.3058 0.7315
C121 C 0.34832(5) 0.37981(5) 0.71835(12)
C122 C 0.36854(6) 0.40976(5) 0.67481(14)
H123 H 0.3665 0.4140 0.6067
C123 C 0.39182(8) 0.43335(6) 0.73305(19)
H124 H 0.4054 0.4534 0.7039
C124 C 0.39489(8) 0.42700(7) 0.83484(19)
C125 C 0.37467(9) 0.39706(7) 0.87839(14)
H125 H 0.3767 0.3928 0.9465
C126 C 0.35139(7) 0.37347(6) 0.82015(12)
H126 H 0.3379 0.3534 0.8493
Cd12 Cd 0.5000 0.462942(10) 0.7500
O38 O 0.50824(7) 0.54841(6) 0.96509(18)
H175 H 0.163739 0.21363 0.59659
H176 H 0.187947 0.236112 0.682199
Cd1 Cd 0.966980(18) 0.0000 0.0000
O34 O 0.97333(14) 0.00373(17) 0.3447(4)
Cd1_2 Cd 0.966980(18) 0.0000 1.0000
V2 V 0.73696(3) 0.26810(3) 0.50439(9)
O24 O 0.91495(14) 0.04522(14) 0.9795(3)
O25 O 0.74830(13) 0.21686(12) 0.4969(3)
O26 O 0.94637(15) 0.02908(16) 0.8528(4)
O27 O 0.70436(16) 0.26848(9) 0.3972(3)
O30 O 0.70621(10) 0.26023(10) 0.5618(2)
N7 N 0.77117(15) 0.27323(11) 0.6062(3)
N8 N 0.73283(14) 0.32197(12) 0.5168(3)
C127 C 0.9222(2) 0.04799(18) 0.8886(4)
C128 C 0.74750(17) 0.13678(16) 0.4422(4)
C129 C 0.7552(2) 0.09498(17) 0.4219(7)
H127 H 0.7391 0.0867 0.3672
H128 H 0.7488 0.0804 0.4800
H129 H 0.7825 0.0914 0.4055
C130 C 0.7516(3) 0.1545(2) 0.3404(5)
H130 H 0.7356 0.1409 0.2936
H131 H 0.7787 0.1534 0.3198
H132 H 0.7432 0.1804 0.3432
C131 C 0.70550(18) 0.1445(2) 0.4706(7)
H133 H 0.6883 0.1343 0.4208
H134 H 0.7015 0.1714 0.4756
H135 H 0.6999 0.1329 0.5336
C132 C 0.7916(2) 0.2480(2) 0.6555(6)
H136 H 0.8068 0.2561 0.7091
C133 C 0.78070(14) 0.31097(13) 0.6431(4)
H137 H 0.8008 0.3136 0.5913
C134 C 0.80927(17) 0.32323(11) 0.7185(4)
H138 H 0.8348 0.3128 0.7014
H139 H 0.8016 0.3124 0.7820
C135 C 0.81360(16) 0.36468(10) 0.7312(5)
H140 H 0.8190 0.3691 0.8012
H141 H 0.8371 0.3721 0.6951
C136 C 0.78247(15) 0.39098(15) 0.7024(3)
H142 H 0.7935 0.4162 0.6949
H143 H 0.7627 0.3919 0.7544
C137 C 0.7636(2) 0.37924(12) 0.6072(4)
H144 H 0.7386 0.3923 0.6017
H145 H 0.7801 0.3880 0.5529
C138 C 0.75641(17) 0.33844(11) 0.5927(4)
H146 H 0.7354 0.3374 0.6428
C139 C 0.71532(14) 0.34476(14) 0.4670(3)
H147 H 0.7190 0.3705 0.4777
C140 C 0.70009(19) 0.2332(2) 0.1943(7)
H148 H 0.6986 0.2082 0.1669
H149 H 0.7172 0.2331 0.2513
H150 H 0.7104 0.2503 0.1451
C141 C 0.6435(2) 0.2169(2) 0.2972(6)
H151 H 0.6448 0.1921 0.2676
H152 H 0.6166 0.2229 0.3122
H153 H 0.6588 0.2171 0.3574
C142 C 0.89440(9) 0.07362(8) 0.8296(2)
C143 C 0.87542(11) 0.10382(9) 0.8755(2)
H154 H 0.8788 0.1080 0.9432
C144 C 0.85143(14) 0.12772(11) 0.8200(3)
H155 H 0.8387 0.1479 0.8506
C145 C 0.84642(15) 0.12142(13) 0.7186(3)
C146 C 0.86539(14) 0.09122(13) 0.6728(2)
H156 H 0.8620 0.0870 0.6050
C147 C 0.88938(11) 0.06731(10) 0.7283(2)
H157 H 0.9021 0.0471 0.6977
C148 C 0.81977(8) 0.14524(8) 0.6569(2)
C149 C 0.79724(10) 0.13104(9) 0.5791(2)
H158 H 0.7990 0.1056 0.5619
C150 C 0.77205(12) 0.15487(12) 0.5269(3)
C151 C 0.76939(13) 0.19291(12) 0.5525(3)
C152 C 0.79192(13) 0.20711(9) 0.6304(3)
C153 C 0.81711(11) 0.18328(8) 0.6826(2)
H159 H 0.8322 0.1928 0.7347
C154 C 0.68679(7) 0.33104(6) 0.38567(15)
C155 C 0.68411(9) 0.29433(6) 0.34903(19)
C156 C 0.65853(11) 0.28621(8) 0.2711(2)
C157 C 0.63563(11) 0.31481(11) 0.2299(2)
H160 H 0.6185 0.3094 0.1778
C158 C 0.63831(10) 0.35152(10) 0.2665(2)
C159 C 0.66389(9) 0.35963(7) 0.34442(19)
H161 H 0.6657 0.3842 0.3689
C160 C 0.6306(2) 0.2422(2) 0.1389(5)
H162 H 0.6322 0.2172 0.1114
H163 H 0.6369 0.2605 0.0884
H164 H 0.6044 0.2467 0.1631
C161 C 0.65997(15) 0.24594(14) 0.2249(4)
C162 C 0.53023(14) 0.46206(10) 0.1108(3)
C163 C 0.61171(6) 0.38232(5) 0.22556(15)
C164 C 0.59794(7) 0.41144(6) 0.28583(16)
H165 H 0.6067 0.4135 0.3512
C165 C 0.57106(8) 0.43749(7) 0.2484(2)
H166 H 0.5618 0.4570 0.2888
C166 C 0.55796(9) 0.43443(8) 0.1508(2)
C167 C 0.57173(9) 0.40532(8) 0.09049(19)
H167 H 0.5630 0.4033 0.0251
C168 C 0.59861(8) 0.37926(6) 0.12788(15)
H168 H 0.6078 0.3598 0.0876
Cd7_2 Cd 1.0000 0.037303(19) 0.7500
Cd1_3 Cd 0.966980(18) 1.0000 0.0000
Cd2_2 Cd 1.0000 0.962697(19) 0.2500
V1 V 0.73696(3) 0.73190(3) 0.49561(9)
O7 O 0.91495(14) 0.95478(14) 0.0205(3)
O8 O 0.74830(13) 0.78314(12) 0.5031(3)
O9 O 0.94637(15) 0.97092(16) 0.1472(4)
O10 O 0.70436(16) 0.73152(9) 0.6028(3)
O12 O 0.52815(9) 0.50579(8) 0.8532(2)
O14 O 0.70621(10) 0.73977(10) 0.4382(2)
N3 N 0.77117(15) 0.72677(11) 0.3938(3)
N4 N 0.73283(14) 0.67803(12) 0.4832(3)
C25 C 0.9222(2) 0.95201(18) 0.1114(4)
C26 C 0.74750(17) 0.86322(16) 0.5578(4)
C27 C 0.7552(2) 0.90502(17) 0.5781(7)
H33 H 0.7391 0.9133 0.6328
H34 H 0.7488 0.9196 0.5200
H35 H 0.7825 0.9086 0.5945
C28 C 0.7516(3) 0.8455(2) 0.6596(5)
H36 H 0.7356 0.8591 0.7064
H37 H 0.7787 0.8466 0.6802
H38 H 0.7432 0.8196 0.6568
C29 C 0.70550(18) 0.8555(2) 0.5294(7)
H39 H 0.6883 0.8657 0.5792
H40 H 0.7015 0.8286 0.5244
H41 H 0.6999 0.8671 0.4664
C30 C 0.7916(2) 0.7520(2) 0.3445(6)
H42 H 0.8068 0.7439 0.2909
C31 C 0.78070(14) 0.68903(13) 0.3569(4)
H43 H 0.8008 0.6864 0.4087
C32 C 0.80927(17) 0.67677(11) 0.2815(4)
H44 H 0.8348 0.6872 0.2986
H45 H 0.8016 0.6876 0.2180
C33 C 0.81360(16) 0.63532(10) 0.2688(5)
H46 H 0.8190 0.6309 0.1988
H47 H 0.8371 0.6279 0.3049
C34 C 0.78247(15) 0.60902(15) 0.2976(3)
H48 H 0.7935 0.5838 0.3051
H49 H 0.7627 0.6081 0.2456
C35 C 0.7636(2) 0.62076(12) 0.3928(4)
H50 H 0.7386 0.6077 0.3983
H51 H 0.7801 0.6120 0.4471
C36 C 0.75641(17) 0.66156(11) 0.4073(4)
H52 H 0.7354 0.6626 0.3572
C37 C 0.71532(14) 0.65524(14) 0.5330(3)
H53 H 0.7190 0.6295 0.5223
C38 C 0.70009(19) 0.7668(2) 0.8057(7)
H54 H 0.6986 0.7918 0.8331
H55 H 0.7172 0.7669 0.7487
H56 H 0.7104 0.7497 0.8549
C39 C 0.6435(2) 0.7831(2) 0.7028(6)
H57 H 0.6448 0.8079 0.7324
H58 H 0.6166 0.7771 0.6878
H59 H 0.6588 0.7829 0.6426
C58 C 0.89440(9) 0.92638(8) 0.1704(2)
C59 C 0.87542(11) 0.89618(9) 0.1245(2)
H70 H 0.8788 0.8920 0.0568
C60 C 0.85143(14) 0.87228(11) 0.1800(3)
H71 H 0.8387 0.8521 0.1494
C61 C 0.84642(15) 0.87858(13) 0.2814(3)
C62 C 0.86539(14) 0.90878(13) 0.3272(2)
H72 H 0.8620 0.9130 0.3950
C63 C 0.88938(11) 0.93269(10) 0.2717(2)
H73 H 0.9021 0.9529 0.3023
C64 C 0.81977(8) 0.85476(8) 0.3431(2)
C65 C 0.79724(10) 0.86896(9) 0.4209(2)
H74 H 0.7990 0.8944 0.4381
C66 C 0.77205(12) 0.84513(12) 0.4731(3)
C67 C 0.76939(13) 0.80709(12) 0.4475(3)
C68 C 0.79192(13) 0.79289(9) 0.3696(3)
C69 C 0.81711(11) 0.81672(8) 0.3174(2)
H75 H 0.8322 0.8072 0.2653
C70 C 0.68679(7) 0.66896(6) 0.61433(15)
C71 C 0.68411(9) 0.70567(6) 0.65097(19)
C72 C 0.65853(11) 0.71379(8) 0.7289(2)
C73 C 0.63563(11) 0.68519(11) 0.7701(2)
H76 H 0.6185 0.6906 0.8222
C74 C 0.63831(10) 0.64848(10) 0.7335(2)
C75 C 0.66389(9) 0.64037(7) 0.65558(19)
H77 H 0.6657 0.6158 0.6311
C76 C 0.6306(2) 0.7578(2) 0.8611(5)
H78 H 0.6322 0.7828 0.8886
H79 H 0.6369 0.7395 0.9116
H80 H 0.6044 0.7533 0.8369
C77 C 0.65997(15) 0.75406(14) 0.7751(4)
C78 C 0.53023(14) 0.53794(10) 0.8892(3)
C79 C 0.61171(6) 0.61768(5) 0.77444(15)
C80 C 0.59794(7) 0.58856(6) 0.71417(16)
H81 H 0.6067 0.5865 0.6488
C81 C 0.57106(8) 0.56251(7) 0.7516(2)
H82 H 0.5618 0.5430 0.7112
C82 C 0.55796(9) 0.56557(8) 0.8492(2)
C83 C 0.57173(9) 0.59468(8) 0.90951(19)
H83 H 0.5630 0.5967 0.9749
C84 C 0.59861(8) 0.62074(6) 0.87212(15)
H84 H 0.6078 0.6402 0.9124
O32 O 0.98343(17) 0.91546(16) 0.3552(4)
Cd1_4 Cd 0.966980(18) 1.0000 1.0000
Cd5 Cd 0.033020(18) 0.0000 0.5000
O8_2 O 0.25170(13) 0.21686(12) 0.0031(3)
O10_2 O 0.29564(16) 0.26848(9) 0.1028(3)
O11 O 0.49176(7) 0.45159(6) 0.46509(18)
C26_2 C 0.25250(17) 0.13678(16) 0.0578(4)
C27_2 C 0.2448(2) 0.09498(17) 0.0781(7)
H33_2 H 0.2609 0.0867 0.1328
H34_2 H 0.2512 0.0804 0.0200
H35_2 H 0.2175 0.0914 0.0945
C28_2 C 0.2484(3) 0.1545(2) 0.1596(5)
H36_2 H 0.2644 0.1409 0.2064
H37_2 H 0.2213 0.1534 0.1802
H38_2 H 0.2568 0.1804 0.1568
C29_2 C 0.29450(18) 0.1445(2) 0.0294(7)
H39_2 H 0.3117 0.1343 0.0792
H40_2 H 0.2985 0.1714 0.0244
C37_2 C 0.28468(14) 0.34476(14) 0.0330(3)
H53_2 H 0.2810 0.3705 0.0223
C38_2 C 0.29991(19) 0.2332(2) 0.3057(7)
H54_2 H 0.3014 0.2082 0.3331
H55_2 H 0.2828 0.2331 0.2487
H56_2 H 0.2896 0.2503 0.3549
C39_2 C 0.3565(2) 0.2169(2) 0.2028(6)
H57_2 H 0.3552 0.1921 0.2324
H58_2 H 0.3834 0.2229 0.1878
H59_2 H 0.3412 0.2171 0.1426
C70_2 C 0.31321(7) 0.33104(6) 0.11433(15)
C71_2 C 0.31589(9) 0.29433(6) 0.15097(19)
C72_2 C 0.34147(11) 0.28621(8) 0.2289(2)
C73_2 C 0.36437(11) 0.31481(11) 0.2701(2)
H76_2 H 0.3815 0.3094 0.3222
C74_2 C 0.36169(10) 0.35152(10) 0.2335(2)
C75_2 C 0.33611(9) 0.35963(7) 0.15558(19)
H77_2 H 0.3343 0.3842 0.1311
C76_2 C 0.3694(2) 0.2422(2) 0.3611(5)
H78_2 H 0.3678 0.2172 0.3886
H79_2 H 0.3631 0.2605 0.4116
H80_2 H 0.3956 0.2467 0.3369
C77_2 C 0.34003(15) 0.24594(14) 0.2751(4)
C78_2 C 0.46977(14) 0.46206(10) 0.3892(3)
C79_2 C 0.38829(6) 0.38232(5) 0.27444(15)
C80_2 C 0.40206(7) 0.41144(6) 0.21417(16)
H81_2 H 0.3933 0.4135 0.1488
C81_2 C 0.42894(8) 0.43749(7) 0.2516(2)
H82_2 H 0.4382 0.4570 0.2112
C82_2 C 0.44204(9) 0.43443(8) 0.3492(2)
C83_2 C 0.42827(9) 0.40532(8) 0.40951(19)
H83_2 H 0.4370 0.4033 0.4749
C84_2 C 0.40139(8) 0.37926(6) 0.37212(15)
H84_2 H 0.3922 0.3598 0.4124
Cd8 Cd 0.532833(11) 0.5000 0.5000
V1_2 V 0.26304(3) 0.26810(3) 0.99561(9)
O7_2 O 0.08505(14) 0.04522(14) 0.5205(3)
O9_2 O 0.05363(15) 0.02908(16) 0.6472(4)
O14_2 O 0.29379(10) 0.26023(10) 0.9382(2)
N3_2 N 0.22883(15) 0.27323(11) 0.8938(3)
N4_2 N 0.26717(14) 0.32197(12) 0.9832(3)
C25_2 C 0.0778(2) 0.04799(18) 0.6114(4)
H41_2 H 0.3001 0.1329 0.9664
C30_2 C 0.2084(2) 0.2480(2) 0.8445(6)
H42_2 H 0.1932 0.2561 0.7909
C31_2 C 0.21930(14) 0.31097(13) 0.8569(4)
H43_2 H 0.1992 0.3136 0.9087
C32_2 C 0.19073(17) 0.32323(11) 0.7815(4)
H44_2 H 0.1652 0.3128 0.7986
H45_2 H 0.1984 0.3124 0.7180
C33_2 C 0.18640(16) 0.36468(10) 0.7688(5)
H46_2 H 0.1810 0.3691 0.6988
H47_2 H 0.1629 0.3721 0.8049
C34_2 C 0.21753(15) 0.39098(15) 0.7976(3)
H48_2 H 0.2065 0.4162 0.8051
H49_2 H 0.2373 0.3919 0.7456
C35_2 C 0.2364(2) 0.37924(12) 0.8928(4)
H50_2 H 0.2614 0.3923 0.8983
H51_2 H 0.2199 0.3880 0.9471
C36_2 C 0.24359(17) 0.33844(11) 0.9073(4)
H52_2 H 0.2646 0.3374 0.8572
C58_2 C 0.10560(9) 0.07362(8) 0.6704(2)
C59_2 C 0.12458(11) 0.10382(9) 0.6245(2)
H70_2 H 0.1212 0.1080 0.5568
C60_2 C 0.14857(14) 0.12772(11) 0.6800(3)
H71_2 H 0.1613 0.1479 0.6494
C61_2 C 0.15358(15) 0.12142(13) 0.7814(3)
C62_2 C 0.13461(14) 0.09122(13) 0.8272(2)
H72_2 H 0.1380 0.0870 0.8950
C63_2 C 0.11062(11) 0.06731(10) 0.7717(2)
H73_2 H 0.0979 0.0471 0.8023
C64_2 C 0.18023(8) 0.14524(8) 0.8431(2)
C65_2 C 0.20276(10) 0.13104(9) 0.9209(2)
H74_2 H 0.2010 0.1056 0.9381
C66_2 C 0.22795(12) 0.15487(12) 0.9731(3)
C67_2 C 0.23061(13) 0.19291(12) 0.9475(3)
C68_2 C 0.20808(13) 0.20711(9) 0.8696(3)
C69_2 C 0.18289(11) 0.18328(8) 0.8174(2)
H75_2 H 0.1678 0.1928 0.7653
O32_2 O 0.01657(17) 0.08454(16) 0.8552(4)
Cd5_2 Cd 0.033020(18) 1.0000 0.5000
V2_2 V 0.26304(3) 0.73190(3) 0.00439(9)
O24_2 O 0.08505(14) 0.95478(14) 0.4795(3)
O30_2 O 0.29379(10) 0.73977(10) 0.0618(2)
N7_2 N 0.22883(15) 0.72677(11) 0.1062(3)
N8_2 N 0.26717(14) 0.67803(12) 0.0168(3)
C127_2 C 0.0778(2) 0.95201(18) 0.3886(4)
H135_2 H 0.3001 0.8671 0.0336
C132_2 C 0.2084(2) 0.7520(2) 0.1555(6)
H136_2 H 0.1932 0.7439 0.2091
C133_2 C 0.21930(14) 0.68903(13) 0.1431(4)
H137_2 H 0.1992 0.6864 0.0913
C134_2 C 0.19073(17) 0.67677(11) 0.2185(4)
H138_2 H 0.1652 0.6872 0.2014
H139_2 H 0.1984 0.6876 0.2820
C135_2 C 0.18640(16) 0.63532(10) 0.2312(5)
H140_2 H 0.1810 0.6309 0.3012
H141_2 H 0.1629 0.6279 0.1951
C136_2 C 0.21753(15) 0.60902(15) 0.2024(3)
H142_2 H 0.2065 0.5838 0.1949
H143_2 H 0.2373 0.6081 0.2544
C137_2 C 0.2364(2) 0.62076(12) 0.1072(4)
H144_2 H 0.2614 0.6077 0.1017
H145_2 H 0.2199 0.6120 0.0529
C138_2 C 0.24359(17) 0.66156(11) 0.0927(4)
H146_2 H 0.2646 0.6626 0.1428
C142_2 C 0.10560(9) 0.92638(8) 0.3296(2)
C143_2 C 0.12458(11) 0.89618(9) 0.3755(2)
H154_2 H 0.1212 0.8920 0.4432
C144_2 C 0.14857(14) 0.87228(11) 0.3200(3)
H155_2 H 0.1613 0.8521 0.3506
C145_2 C 0.15358(15) 0.87858(13) 0.2186(3)
C146_2 C 0.13461(14) 0.90878(13) 0.1728(2)
H156_2 H 0.1380 0.9130 0.1050
C147_2 C 0.11062(11) 0.93269(10) 0.2283(2)
H157_2 H 0.0979 0.9529 0.1977
C148_2 C 0.18023(8) 0.85476(8) 0.1569(2)
C149_2 C 0.20276(10) 0.86896(9) 0.0791(2)
H158_2 H 0.2010 0.8944 0.0619
C150_2 C 0.22795(12) 0.84513(12) 0.0269(3)
C151_2 C 0.23061(13) 0.80709(12) 0.0525(3)
C152_2 C 0.20808(13) 0.79289(9) 0.1304(3)
C153_2 C 0.18289(11) 0.81672(8) 0.1826(2)
H159_2 H 0.1678 0.8072 0.2347
O25_2 O 0.25170(13) 0.78314(12) 0.9969(3)
O27_2 O 0.29564(16) 0.73152(9) 0.8972(3)
O28 O 0.49176(7) 0.54841(6) 0.53491(18)
O29 O 0.47185(9) 0.50579(8) 0.6468(2)
C128_2 C 0.25250(17) 0.86322(16) 0.9422(4)
C129_2 C 0.2448(2) 0.90502(17) 0.9219(7)
H127_2 H 0.2609 0.9133 0.8672
H128_2 H 0.2512 0.9196 0.9800
H129_2 H 0.2175 0.9086 0.9055
C130_2 C 0.2484(3) 0.8455(2) 0.8404(5)
H130_2 H 0.2644 0.8591 0.7936
H131_2 H 0.2213 0.8466 0.8198
H132_2 H 0.2568 0.8196 0.8432
C131_2 C 0.29450(18) 0.8555(2) 0.9706(7)
H133_2 H 0.3117 0.8657 0.9208
H134_2 H 0.2985 0.8286 0.9756
C139_2 C 0.28468(14) 0.65524(14) 0.9670(3)
H147_2 H 0.2810 0.6295 0.9777
C140_2 C 0.29991(19) 0.7668(2) 0.6943(7)
H148_2 H 0.3014 0.7918 0.6669
H149_2 H 0.2828 0.7669 0.7513
H150_2 H 0.2896 0.7497 0.6451
C141_2 C 0.3565(2) 0.7831(2) 0.7972(6)
H151_2 H 0.3552 0.8079 0.7676
H152_2 H 0.3834 0.7771 0.8122
H153_2 H 0.3412 0.7829 0.8574
C154_2 C 0.31321(7) 0.66896(6) 0.88567(15)
C155_2 C 0.31589(9) 0.70567(6) 0.84903(19)
C156_2 C 0.34147(11) 0.71379(8) 0.7711(2)
C157_2 C 0.36437(11) 0.68519(11) 0.7299(2)
H160_2 H 0.3815 0.6906 0.6778
C158_2 C 0.36169(10) 0.64848(10) 0.7665(2)
C159_2 C 0.33611(9) 0.64037(7) 0.84442(19)
H161_2 H 0.3343 0.6158 0.8689
C160_2 C 0.3694(2) 0.7578(2) 0.6389(5)
H162_2 H 0.3678 0.7828 0.6114
H163_2 H 0.3631 0.7395 0.5884
H164_2 H 0.3956 0.7533 0.6631
C161_2 C 0.34003(15) 0.75406(14) 0.7249(4)
C162_2 C 0.46977(14) 0.53794(10) 0.6108(3)
C163_2 C 0.38829(6) 0.61768(5) 0.72556(15)
C164_2 C 0.40206(7) 0.58856(6) 0.78583(16)
H165_2 H 0.3933 0.5865 0.8512
C165_2 C 0.42894(8) 0.56251(7) 0.7484(2)
H166_2 H 0.4382 0.5430 0.7888
C166_2 C 0.44204(9) 0.56557(8) 0.6508(2)
C167_2 C 0.42827(9) 0.59468(8) 0.59049(19)
H167_2 H 0.4370 0.5967 0.5251
C168_2 C 0.40139(8) 0.62074(6) 0.62788(15)
H168_2 H 0.3922 0.6402 0.5876
O1_2 O 0.99220(15) 0.04464(13) 0.4561(3)
O5_2 O 0.79605(13) 0.23646(13) 0.1087(3)
O16_2 O 0.98343(17) 0.08454(16) 0.6448(4)
C1_2 C 0.9698(2) 0.0367(2) 0.3843(6)
C2_2 C 0.8630(2) 0.1470(2) 0.2339(5)
C3_2 C 0.8632(2) 0.1889(2) 0.2688(5)
H1_2 H 0.8810 0.1960 0.3181
C4_2 C 0.8397(2) 0.21500(17) 0.2328(5)
C5_2 C 0.8200(2) 0.2061(2) 0.1449(5)
C6_2 C 0.8159(2) 0.1671(2) 0.1096(5)
C7_2 C 0.8386(2) 0.1414(2) 0.1580(5)
H2_2 H 0.8368 0.1167 0.1349
C8_2 C 0.84483(17) 0.25369(17) 0.2791(4)
C9_2 C 0.8714(2) 0.2552(2) 0.3677(5)
H3_2 H 0.8972 0.2464 0.3493
H4_2 H 0.8610 0.2393 0.4193
H5_2 H 0.8731 0.2807 0.3914
C10_2 C 0.8564(2) 0.2812(2) 0.1982(5)
H6_2 H 0.8815 0.2739 0.1711
H7_2 H 0.8582 0.3062 0.2256
H8_2 H 0.8369 0.2808 0.1465
C11_2 C 0.80578(19) 0.2685(2) 0.3157(6)
H9_2 H 0.8095 0.2929 0.3457
H10_2 H 0.7951 0.2514 0.3641
H11_2 H 0.7879 0.2707 0.2608
C12_2 C 0.7885(2) 0.1587(2) 0.0477(5)
H12_2 H 0.7820 0.1331 0.0477
C20_2 C 0.74978(14) 0.36172(14) 0.0631(4)
C21_2 C 0.7445(2) 0.3386(2) 0.1592(4)
H24_2 H 0.7509 0.3126 0.1465
H25_2 H 0.7177 0.3405 0.1813
H26_2 H 0.7618 0.3484 0.2097
C22_2 C 0.79342(17) 0.3643(2) 0.0394(5)
H27_2 H 0.8033 0.3395 0.0242
H28_2 H 0.8072 0.3743 0.0958
C23_2 C 0.7393(2) 0.40413(17) 0.0851(5)
H30_2 H 0.7546 0.4130 0.1404
H31_2 H 0.7118 0.4062 0.1007
H32_2 H 0.7451 0.4192 0.0275
C40_2 C 0.94166(8) 0.06660(8) 0.3561(2)
C41_2 C 0.92773(11) 0.09604(9) 0.4151(2)
H60_2 H 0.9361 0.0982 0.4807
C42_2 C 0.90134(14) 0.12217(11) 0.3759(3)
H61_2 H 0.8920 0.1419 0.4154
C43_2 C 0.88887(15) 0.11887(13) 0.2778(4)
C44_2 C 0.90280(14) 0.08944(13) 0.2188(3)
H62_2 H 0.8945 0.0872 0.1531
C45_2 C 0.92919(11) 0.06330(10) 0.2580(2)
H63_2 H 0.9385 0.0436 0.2185
H180_2 H 0.994415 0.0894086 0.901716
Cu1_2 Cu 0.77256(3) 0.23590(3) 0.97375(7)
O3_2 O 0.58245(6) 0.45147(6) 0.51061(14)
O4_2 O 0.55407(6) 0.47378(5) 0.64920(13)
O6_2 O 0.75942(10) 0.28811(10) 0.9933(2)
O13_2 O 0.82002(15) 0.23635(13) 0.8889(3)
O15_2 O 0.51630(9) 0.41670(7) 0.8605(2)
N1_2 N 0.72738(16) 0.22946(14) 0.8678(4)
N2_2 N 0.76622(14) 0.18021(15) 0.9795(3)
C13_2 C 0.7370(2) 0.16060(11) 0.9048(5)
H13_2 H 0.7147 0.1606 0.9511
C14_2 C 0.73743(15) 0.11887(12) 0.8919(4)
H14_2 H 0.7625 0.1108 0.8644
H15_2 H 0.7337 0.1064 0.9556
C15_2 C 0.70486(16) 0.10888(16) 0.8231(4)
H16_2 H 0.7146 0.0889 0.7802
H17_2 H 0.6841 0.0979 0.8633
C16_2 C 0.6861(3) 0.13727(11) 0.7580(5)
H18_2 H 0.6582 0.1317 0.7578
H19_2 H 0.6956 0.1324 0.6911
C17_2 C 0.68998(15) 0.17899(12) 0.7748(4)
H20_2 H 0.6944 0.1910 0.7109
H21_2 H 0.6651 0.1883 0.8003
C18_2 C 0.72161(16) 0.19128(16) 0.8436(4)
H22_2 H 0.7427 0.1902 0.7939
C19_2 C 0.7045(2) 0.25590(18) 0.8499(5)
H23_2 H 0.6815 0.2493 0.8165
H29_2 H 0.7973 0.3806 0.9831
C24_2 C 0.57968(13) 0.45400(13) 0.6043(3)
C46_2 C 0.70823(7) 0.29200(7) 0.87151(15)
C47_2 C 0.73085(9) 0.30645(8) 0.9489(2)
C48_2 C 0.72761(12) 0.34440(8) 0.9751(2)
C49_2 C 0.70176(12) 0.36788(7) 0.9239(2)
H64_2 H 0.6996 0.3933 0.9414
C50_2 C 0.67915(11) 0.35343(8) 0.8465(3)
C51_2 C 0.68238(9) 0.31549(8) 0.8203(2)
H65_2 H 0.6672 0.3058 0.7685
C52_2 C 0.65168(5) 0.37981(5) 0.78165(12)
C53_2 C 0.63146(6) 0.40976(5) 0.82519(14)
H66_2 H 0.6335 0.4140 0.8933
C54_2 C 0.60818(8) 0.43335(6) 0.76695(19)
H67_2 H 0.5946 0.4534 0.7961
C55_2 C 0.60511(8) 0.42700(7) 0.66516(19)
C56_2 C 0.62533(9) 0.39706(7) 0.62161(14)
H68_2 H 0.6233 0.3928 0.5535
C57_2 C 0.64861(7) 0.37347(6) 0.67985(12)
H69_2 H 0.6621 0.3534 0.6507
Cu2_2 Cu 0.77256(3) 0.76410(3) 0.02625(7)
O19_2 O 0.58245(6) 0.54853(6) 0.48939(14)
O22_2 O 0.75942(10) 0.71189(10) 0.0067(2)
O23_2 O 0.82002(15) 0.76365(13) 0.1111(3)
N5_2 N 0.72738(16) 0.77054(14) 0.1322(4)
N6_2 N 0.76622(14) 0.81979(15) 0.0205(3)
C97_2 C 0.7370(2) 0.83940(11) 0.0952(5)
H97_2 H 0.7147 0.8394 0.0489
C98_2 C 0.73743(15) 0.88113(12) 0.1081(4)
H98_2 H 0.7625 0.8892 0.1356
H99_2 H 0.7337 0.8936 0.0444
C99_2 C 0.70486(16) 0.89112(16) 0.1769(4)
H100_2 H 0.7146 0.9111 0.2198
H101_2 H 0.6841 0.9021 0.1367
C100_2 C 0.6861(3) 0.86273(11) 0.2420(5)
H102_2 H 0.6582 0.8683 0.2422
H103_2 H 0.6956 0.8676 0.3089
C101_2 C 0.68998(15) 0.82101(12) 0.2252(4)
H104_2 H 0.6944 0.8090 0.2891
H105_2 H 0.6651 0.8117 0.1997
C102_2 C 0.72161(16) 0.80872(16) 0.1564(4)
H106_2 H 0.7427 0.8098 0.2061
C103_2 C 0.7045(2) 0.74410(18) 0.1501(5)
H107_2 H 0.6815 0.7507 0.1835
H113_2 H 0.7973 0.6194 0.0169
C108_2 C 0.57968(13) 0.54600(13) 0.3957(3)
C115_2 C 0.70823(7) 0.70800(7) 0.12849(15)
C116_2 C 0.73085(9) 0.69355(8) 0.0511(2)
C117_2 C 0.72761(12) 0.65560(8) 0.0249(2)
C118_2 C 0.70176(12) 0.63212(7) 0.0761(2)
H121_2 H 0.6996 0.6067 0.0586
C119_2 C 0.67915(11) 0.64657(8) 0.1535(3)
C120_2 C 0.68238(9) 0.68451(8) 0.1797(2)
H122_2 H 0.6672 0.6942 0.2315
C121_2 C 0.65168(5) 0.62019(5) 0.21835(12)
C122_2 C 0.63146(6) 0.59024(5) 0.17481(14)
H123_2 H 0.6335 0.5860 0.1067
C123_2 C 0.60818(8) 0.56665(6) 0.23305(19)
H124_2 H 0.5946 0.5466 0.2039
C124_2 C 0.60511(8) 0.57300(7) 0.33484(19)
C125_2 C 0.62533(9) 0.60294(7) 0.37839(14)
H125_2 H 0.6233 0.6072 0.4465
C126_2 C 0.64861(7) 0.62653(6) 0.32015(12)
H126_2 H 0.6621 0.6466 0.3493
O31_2 O 0.48370(9) 0.41670(7) 0.6395(2)
H171_2 H 0.836261 0.21363 0.90341
H172_2 H 0.812053 0.236112 0.817801
H175_2 H 0.836261 0.78637 0.0965898
H176_2 H 0.812053 0.763888 0.182199
O17 O 0.99220(15) 0.95536(13) 0.5439(3)
O18 O 0.97333(14) 0.99627(17) 0.6553(4)
O21_2 O 0.79605(13) 0.76354(13) 0.8913(3)
C85_2 C 0.9698(2) 0.9633(2) 0.6157(6)
C86_2 C 0.8630(2) 0.8530(2) 0.7661(5)
C87_2 C 0.8632(2) 0.8111(2) 0.7312(5)
H85_2 H 0.8810 0.8040 0.6819
C88_2 C 0.8397(2) 0.78500(17) 0.7672(5)
C89_2 C 0.8200(2) 0.7939(2) 0.8551(5)
C90_2 C 0.8159(2) 0.8329(2) 0.8904(5)
C91_2 C 0.8386(2) 0.8586(2) 0.8420(5)
H86_2 H 0.8368 0.8833 0.8651
C92_2 C 0.84483(17) 0.74631(17) 0.7209(4)
C93_2 C 0.8714(2) 0.7448(2) 0.6323(5)
H87_2 H 0.8972 0.7536 0.6507
H88_2 H 0.8610 0.7607 0.5807
H89_2 H 0.8731 0.7193 0.6086
C94_2 C 0.8564(2) 0.7188(2) 0.8018(5)
H90_2 H 0.8815 0.7261 0.8289
H91_2 H 0.8582 0.6938 0.7744
H92_2 H 0.8369 0.7192 0.8535
C95_2 C 0.80578(19) 0.7315(2) 0.6843(6)
H93_2 H 0.8095 0.7071 0.6543
H94_2 H 0.7951 0.7486 0.6359
H95_2 H 0.7879 0.7293 0.7392
C96_2 C 0.7885(2) 0.8413(2) 0.9523(5)
H96_2 H 0.7820 0.8669 0.9523
C104_2 C 0.74978(14) 0.63828(14) 0.9369(4)
C105_2 C 0.7445(2) 0.6614(2) 0.8408(4)
H108_2 H 0.7509 0.6874 0.8535
H109_2 H 0.7177 0.6595 0.8187
H110_2 H 0.7618 0.6516 0.7903
C106_2 C 0.79342(17) 0.6357(2) 0.9606(5)
H111_2 H 0.8033 0.6605 0.9758
H112_2 H 0.8072 0.6257 0.9042
C107_2 C 0.7393(2) 0.59587(17) 0.9149(5)
H114_2 H 0.7546 0.5870 0.8596
H115_2 H 0.7118 0.5938 0.8993
H116_2 H 0.7451 0.5808 0.9725
C109_2 C 0.94166(8) 0.93340(8) 0.6439(2)
C110_2 C 0.92773(11) 0.90396(9) 0.5849(2)
H117_2 H 0.9361 0.9018 0.5193
C111_2 C 0.90134(14) 0.87783(11) 0.6241(3)
H118_2 H 0.8920 0.8581 0.5846
C112_2 C 0.88887(15) 0.88113(13) 0.7222(4)
C113_2 C 0.90280(14) 0.91056(13) 0.7812(3)
H119_2 H 0.8945 0.9128 0.8469
C114_2 C 0.92919(11) 0.93670(10) 0.7420(2)
H120_2 H 0.9385 0.9564 0.7815
H180_3 H 0.00558488 0.0894086 0.598284
H180_4 H 0.994415 0.910591 0.0982837
loop_
_geom_bond_atom_site_label_1
_geom_bond_atom_site_label_2
_geom_bond_site_symmetry_1
_geom_bond_site_symmetry_2
O16 Cd2 1_555 1_555
O37 Cd2 1_555 1_555
Cd3 O3 1_555 1_555
Cd4 O4 1_555 1_555
Cu1 O5 1_555 1_555
O1 C1 1_555 1_555
O2 C1 1_555 1_555
O3 C24 1_555 1_555
O4 Cd3 1_555 1_555
O5 C5 1_555 1_555
O6 Cu1 1_555 1_555
O13 Cu1 1_555 1_555
O15 Cd4 1_555 1_555
N1 Cu1 1_555 1_555
N2 Cu1 1_555 1_555
C1 C40 1_555 1_555
C2 C3 1_555 1_555
C3 H1 1_555 1_555
C4 C3 1_555 1_555
C5 C4 1_555 1_555
C6 C5 1_555 1_555
C7 C2 1_555 1_555
H2 C7 1_555 1_555
C8 C4 1_555 1_555
C9 C8 1_555 1_555
H3 C9 1_555 1_555
H4 C9 1_555 1_555
H5 C9 1_555 1_555
C10 C8 1_555 1_555
H6 C10 1_555 1_555
H7 C10 1_555 1_555
H8 C10 1_555 1_555
C11 C8 1_555 1_555
H9 C11 1_555 1_555
H10 C11 1_555 1_555
H11 C11 1_555 1_555
C12 N2 1_555 1_555
H12 C12 1_555 1_555
C13 N2 1_555 1_555
H13 C13 1_555 1_555
C14 C13 1_555 1_555
H14 C14 1_555 1_555
H15 C14 1_555 1_555
C15 C14 1_555 1_555
H16 C15 1_555 1_555
H17 C15 1_555 1_555
C16 C15 1_555 1_555
H18 C16 1_555 1_555
H19 C16 1_555 1_555
C17 C16 1_555 1_555
H20 C17 1_555 1_555
H21 C17 1_555 1_555
C18 N1 1_555 1_555
H22 C18 1_555 1_555
C19 N1 1_555 1_555
H23 C19 1_555 1_555
C20 C21 1_555 1_555
C21 H24 1_555 1_555
H25 C21 1_555 1_555
H26 C21 1_555 1_555
C22 C20 1_555 1_555
H27 C22 1_555 1_555
H28 C22 1_555 1_555
H29 C22 1_555 1_555
C23 C20 1_555 1_555
H30 C23 1_555 1_555
H31 C23 1_555 1_555
H32 C23 1_555 1_555
C24 O4 1_555 1_555
C40 C41 1_555 1_555
C41 H60 1_555 1_555
C42 C41 1_555 1_555
H61 C42 1_555 1_555
C43 C2 1_555 1_555
C44 C43 1_555 1_555
H62 C44 1_555 1_555
C45 C40 1_555 1_555
H63 C45 1_555 1_555
C46 C19 1_555 1_555
C47 O6 1_555 1_555
C48 C20 1_555 1_555
C49 C48 1_555 1_555
H64 C49 1_555 1_555
C50 C49 1_555 1_555
C51 C46 1_555 1_555
H65 C51 1_555 1_555
C52 C50 1_555 1_555
C53 C52 1_555 1_555
H66 C53 1_555 1_555
C54 C53 1_555 1_555
H67 C54 1_555 1_555
C55 C24 1_555 1_555
C56 C55 1_555 1_555
H68 C56 1_555 1_555
C57 C52 1_555 1_555
H69 C57 1_555 1_555
O31 Cd4 1_555 1_555
O36 Cd4 1_555 1_555
O39 Cd3 1_555 1_555
O40 Cd4 1_555 1_555
O41 Cd4 1_555 1_555
C6 C7 1_555 1_555
C6 C12 1_555 1_555
C13 C18 1_555 1_555
C17 C18 1_555 1_555
C42 C43 1_555 1_555
C44 C45 1_555 1_555
C46 C47 1_555 1_555
C47 C48 1_555 1_555
C50 C51 1_555 1_555
C54 C55 1_555 1_555
C56 C57 1_555 1_555
O13 H171 1_555 1_555
O13 H172 1_555 1_555
Cu2 O21 1_555 1_555
O33 C85 1_555 1_555
O35 C85 1_555 1_555
O19 Cd3_2 1_555 1_555
O20 Cd3_2 1_555 1_555
O21 C89 1_555 1_555
O22 Cu2 1_555 1_555
O23 Cu2 1_555 1_555
N5 Cu2 1_555 1_555
N6 Cu2 1_555 1_555
C85 C109 1_555 1_555
C86 C87 1_555 1_555
C87 H85 1_555 1_555
C88 C87 1_555 1_555
C89 C88 1_555 1_555
C90 C89 1_555 1_555
C91 C86 1_555 1_555
H86 C91 1_555 1_555
C92 C88 1_555 1_555
C93 C92 1_555 1_555
H87 C93 1_555 1_555
H88 C93 1_555 1_555
H89 C93 1_555 1_555
C94 C92 1_555 1_555
H90 C94 1_555 1_555
H91 C94 1_555 1_555
H92 C94 1_555 1_555
C95 C92 1_555 1_555
H93 C95 1_555 1_555
H94 C95 1_555 1_555
H95 C95 1_555 1_555
C96 N6 1_555 1_555
H96 C96 1_555 1_555
C97 N6 1_555 1_555
H97 C97 1_555 1_555
C98 C97 1_555 1_555
H98 C98 1_555 1_555
H99 C98 1_555 1_555
C99 C98 1_555 1_555
H100 C99 1_555 1_555
H101 C99 1_555 1_555
C100 C99 1_555 1_555
H102 C100 1_555 1_555
H103 C100 1_555 1_555
C101 C100 1_555 1_555
H104 C101 1_555 1_555
H105 C101 1_555 1_555
C102 N5 1_555 1_555
H106 C102 1_555 1_555
C103 N5 1_555 1_555
H107 C103 1_555 1_555
C104 C105 1_555 1_555
C105 H108 1_555 1_555
H109 C105 1_555 1_555
H110 C105 1_555 1_555
C106 C104 1_555 1_555
H111 C106 1_555 1_555
H112 C106 1_555 1_555
H113 C106 1_555 1_555
C107 C104 1_555 1_555
H114 C107 1_555 1_555
H115 C107 1_555 1_555
H116 C107 1_555 1_555
C108 O19 1_555 1_555
C109 C110 1_555 1_555
C110 H117 1_555 1_555
C111 C110 1_555 1_555
H118 C111 1_555 1_555
C112 C86 1_555 1_555
C113 C112 1_555 1_555
H119 C113 1_555 1_555
C114 C109 1_555 1_555
H120 C114 1_555 1_555
C115 C103 1_555 1_555
C116 O22 1_555 1_555
C117 C104 1_555 1_555
C118 C117 1_555 1_555
H121 C118 1_555 1_555
C119 C118 1_555 1_555
C120 C115 1_555 1_555
H122 C120 1_555 1_555
C121 C119 1_555 1_555
C122 C121 1_555 1_555
H123 C122 1_555 1_555
C123 C122 1_555 1_555
H124 C123 1_555 1_555
C124 C108 1_555 1_555
C125 C124 1_555 1_555
H125 C125 1_555 1_555
C126 C121 1_555 1_555
H126 C126 1_555 1_555
Cd12 O20 1_555 1_555
O38 Cd3_2 1_555 1_555
O20 C108 1_555 1_555
C90 C91 1_555 1_555
C90 C96 1_555 1_555
C97 C102 1_555 1_555
C101 C102 1_555 1_555
C111 C112 1_555 1_555
C113 C114 1_555 1_555
C115 C116 1_555 1_555
C116 C117 1_555 1_555
C119 C120 1_555 1_555
C123 C124 1_555 1_555
C125 C126 1_555 1_555
O23 H175 1_555 1_555
O23 H176 1_555 1_555
V2 O25 1_555 1_555
O24 Cd1_2 1_555 1_555
O25 C151 1_555 1_555
O26 Cd1_2 1_555 1_555
O27 V2 1_555 1_555
O39 C162 1_555 1_555
O41 C162 1_555 1_555
O30 V2 1_555 1_555
N7 V2 1_555 1_555
N8 V2 1_555 1_555
C127 O24 1_555 1_555
C128 C129 1_555 1_555
C129 H127 1_555 1_555
H128 C129 1_555 1_555
H129 C129 1_555 1_555
C130 C128 1_555 1_555
H130 C130 1_555 1_555
H131 C130 1_555 1_555
H132 C130 1_555 1_555
C131 C128 1_555 1_555
H133 C131 1_555 1_555
H134 C131 1_555 1_555
H135 C131 1_555 1_555
C132 N7 1_555 1_555
H136 C132 1_555 1_555
C133 N7 1_555 1_555
H137 C133 1_555 1_555
C134 C133 1_555 1_555
H138 C134 1_555 1_555
H139 C134 1_555 1_555
C135 C134 1_555 1_555
H140 C135 1_555 1_555
H141 C135 1_555 1_555
C136 C135 1_555 1_555
H142 C136 1_555 1_555
H143 C136 1_555 1_555
C137 C136 1_555 1_555
H144 C137 1_555 1_555
H145 C137 1_555 1_555
C138 N8 1_555 1_555
H146 C138 1_555 1_555
C139 N8 1_555 1_555
H147 C139 1_555 1_555
C140 H148 1_555 1_555
H149 C140 1_555 1_555
H150 C140 1_555 1_555
C141 H151 1_555 1_555
H152 C141 1_555 1_555
H153 C141 1_555 1_555
C142 C127 1_555 1_555
C143 C142 1_555 1_555
H154 C143 1_555 1_555
C144 C143 1_555 1_555
H155 C144 1_555 1_555
C145 C144 1_555 1_555
C146 C145 1_555 1_555
H156 C146 1_555 1_555
C147 C142 1_555 1_555
H157 C147 1_555 1_555
C148 C145 1_555 1_555
C149 C148 1_555 1_555
H158 C149 1_555 1_555
C150 C128 1_555 1_555
C151 C150 1_555 1_555
C152 C132 1_555 1_555
C153 C148 1_555 1_555
H159 C153 1_555 1_555
C154 C139 1_555 1_555
C155 O27 1_555 1_555
C156 C155 1_555 1_555
C157 C156 1_555 1_555
H160 C157 1_555 1_555
C158 C157 1_555 1_555
C159 C154 1_555 1_555
H161 C159 1_555 1_555
C160 H162 1_555 1_555
H163 C160 1_555 1_555
H164 C160 1_555 1_555
C161 C140 1_555 1_555
C162 C166 1_555 1_555
C163 C158 1_555 1_555
C164 C163 1_555 1_555
H165 C164 1_555 1_555
C165 C164 1_555 1_555
H166 C165 1_555 1_555
C166 C165 1_555 1_555
C167 C166 1_555 1_555
H167 C167 1_555 1_555
C168 C163 1_555 1_555
H168 C168 1_555 1_555
O26 C127 1_555 1_555
O26 Cd7_2 1_555 1_555
C133 C138 1_555 1_555
C137 C138 1_555 1_555
C141 C161 1_555 1_555
C146 C147 1_555 1_555
C149 C150 1_555 1_555
C151 C152 1_555 1_555
C152 C153 1_555 1_555
C154 C155 1_555 1_555
C156 C161 1_555 1_555
C158 C159 1_555 1_555
C160 C161 1_555 1_555
C167 C168 1_555 1_555
Cd2_2 O9 1_555 1_555
V1 O8 1_555 1_555
O7 Cd1_3 1_555 1_555
O8 C67 1_555 1_555
O9 Cd1_3 1_555 1_555
O10 V1 1_555 1_555
O38 C78 1_555 1_555
O12 C78 1_555 1_555
O14 V1 1_555 1_555
N3 V1 1_555 1_555
N4 V1 1_555 1_555
C25 O7 1_555 1_555
C26 C27 1_555 1_555
C27 H33 1_555 1_555
H34 C27 1_555 1_555
H35 C27 1_555 1_555
C28 C26 1_555 1_555
H36 C28 1_555 1_555
H37 C28 1_555 1_555
H38 C28 1_555 1_555
C29 C26 1_555 1_555
H39 C29 1_555 1_555
H40 C29 1_555 1_555
H41 C29 1_555 1_555
C30 N3 1_555 1_555
H42 C30 1_555 1_555
C31 N3 1_555 1_555
H43 C31 1_555 1_555
C32 C31 1_555 1_555
H44 C32 1_555 1_555
H45 C32 1_555 1_555
C33 C32 1_555 1_555
H46 C33 1_555 1_555
H47 C33 1_555 1_555
C34 C33 1_555 1_555
H48 C34 1_555 1_555
H49 C34 1_555 1_555
C35 C34 1_555 1_555
H50 C35 1_555 1_555
H51 C35 1_555 1_555
C36 N4 1_555 1_555
H52 C36 1_555 1_555
C37 N4 1_555 1_555
H53 C37 1_555 1_555
C38 H54 1_555 1_555
H55 C38 1_555 1_555
H56 C38 1_555 1_555
C39 H57 1_555 1_555
H58 C39 1_555 1_555
H59 C39 1_555 1_555
C58 C25 1_555 1_555
C59 C58 1_555 1_555
H70 C59 1_555 1_555
C60 C59 1_555 1_555
H71 C60 1_555 1_555
C61 C60 1_555 1_555
C62 C61 1_555 1_555
H72 C62 1_555 1_555
C63 C58 1_555 1_555
H73 C63 1_555 1_555
C64 C61 1_555 1_555
C65 C64 1_555 1_555
H74 C65 1_555 1_555
C66 C26 1_555 1_555
C67 C66 1_555 1_555
C68 C30 1_555 1_555
C69 C64 1_555 1_555
H75 C69 1_555 1_555
C70 C37 1_555 1_555
C71 O10 1_555 1_555
C72 C71 1_555 1_555
C73 C72 1_555 1_555
H76 C73 1_555 1_555
C74 C73 1_555 1_555
C75 C70 1_555 1_555
H77 C75 1_555 1_555
C76 H78 1_555 1_555
H79 C76 1_555 1_555
H80 C76 1_555 1_555
C77 C38 1_555 1_555
C78 C82 1_555 1_555
C79 C74 1_555 1_555
C80 C79 1_555 1_555
H81 C80 1_555 1_555
C81 C80 1_555 1_555
H82 C81 1_555 1_555
C82 C81 1_555 1_555
C83 C82 1_555 1_555
H83 C83 1_555 1_555
C84 C79 1_555 1_555
H84 C84 1_555 1_555
O32 Cd2_2 1_555 1_555
Cd12 O12 1_555 1_555
O9 C25 1_555 1_555
C31 C36 1_555 1_555
C35 C36 1_555 1_555
C39 C77 1_555 1_555
C62 C63 1_555 1_555
C65 C66 1_555 1_555
C67 C68 1_555 1_555
C68 C69 1_555 1_555
C70 C71 1_555 1_555
C72 C77 1_555 1_555
C74 C75 1_555 1_555
C76 C77 1_555 1_555
C83 C84 1_555 1_555
O11 C78_2 1_555 1_555
O40 C78_2 1_555 1_555
C26_2 C27_2 1_555 1_555
C27_2 H33_2 1_555 1_555
H34_2 C27_2 1_555 1_555
H35_2 C27_2 1_555 1_555
C28_2 C26_2 1_555 1_555
H36_2 C28_2 1_555 1_555
H37_2 C28_2 1_555 1_555
H38_2 C28_2 1_555 1_555
C29_2 C26_2 1_555 1_555
H39_2 C29_2 1_555 1_555
H40_2 C29_2 1_555 1_555
H53_2 C37_2 1_555 1_555
C38_2 H54_2 1_555 1_555
H55_2 C38_2 1_555 1_555
H56_2 C38_2 1_555 1_555
C39_2 H57_2 1_555 1_555
H58_2 C39_2 1_555 1_555
H59_2 C39_2 1_555 1_555
C70_2 C37_2 1_555 1_555
C71_2 O10_2 1_555 1_555
C72_2 C71_2 1_555 1_555
C73_2 C72_2 1_555 1_555
H76_2 C73_2 1_555 1_555
C74_2 C73_2 1_555 1_555
C75_2 C70_2 1_555 1_555
H77_2 C75_2 1_555 1_555
C76_2 H78_2 1_555 1_555
H79_2 C76_2 1_555 1_555
H80_2 C76_2 1_555 1_555
C77_2 C38_2 1_555 1_555
C78_2 C82_2 1_555 1_555
C79_2 C74_2 1_555 1_555
C80_2 C79_2 1_555 1_555
H81_2 C80_2 1_555 1_555
C81_2 C80_2 1_555 1_555
H82_2 C81_2 1_555 1_555
C82_2 C81_2 1_555 1_555
C83_2 C82_2 1_555 1_555
H83_2 C83_2 1_555 1_555
C84_2 C79_2 1_555 1_555
H84_2 C84_2 1_555 1_555
Cd8 O11 1_555 1_555
C39_2 C77_2 1_555 1_555
C70_2 C71_2 1_555 1_555
C72_2 C77_2 1_555 1_555
C74_2 C75_2 1_555 1_555
C76_2 C77_2 1_555 1_555
C83_2 C84_2 1_555 1_555
Cd7 O9_2 1_555 1_555
O7_2 Cd5 1_555 1_555
O9_2 Cd5 1_555 1_555
O14_2 V1_2 1_555 1_555
N3_2 V1_2 1_555 1_555
N4_2 V1_2 1_555 1_555
C25_2 O7_2 1_555 1_555
C30_2 N3_2 1_555 1_555
H42_2 C30_2 1_555 1_555
C31_2 N3_2 1_555 1_555
H43_2 C31_2 1_555 1_555
C32_2 C31_2 1_555 1_555
H44_2 C32_2 1_555 1_555
H45_2 C32_2 1_555 1_555
C33_2 C32_2 1_555 1_555
H46_2 C33_2 1_555 1_555
H47_2 C33_2 1_555 1_555
C34_2 C33_2 1_555 1_555
H48_2 C34_2 1_555 1_555
H49_2 C34_2 1_555 1_555
C35_2 C34_2 1_555 1_555
H50_2 C35_2 1_555 1_555
H51_2 C35_2 1_555 1_555
C36_2 N4_2 1_555 1_555
H52_2 C36_2 1_555 1_555
C58_2 C25_2 1_555 1_555
C59_2 C58_2 1_555 1_555
H70_2 C59_2 1_555 1_555
C60_2 C59_2 1_555 1_555
H71_2 C60_2 1_555 1_555
C61_2 C60_2 1_555 1_555
C62_2 C61_2 1_555 1_555
H72_2 C62_2 1_555 1_555
C63_2 C58_2 1_555 1_555
H73_2 C63_2 1_555 1_555
C64_2 C61_2 1_555 1_555
C65_2 C64_2 1_555 1_555
H74_2 C65_2 1_555 1_555
C67_2 C66_2 1_555 1_555
C68_2 C30_2 1_555 1_555
C69_2 C64_2 1_555 1_555
H75_2 C69_2 1_555 1_555
O32_2 Cd7 1_555 1_555
O9_2 C25_2 1_555 1_555
C31_2 C36_2 1_555 1_555
C35_2 C36_2 1_555 1_555
C62_2 C63_2 1_555 1_555
C65_2 C66_2 1_555 1_555
C67_2 C68_2 1_555 1_555
C68_2 C69_2 1_555 1_555
O24_2 Cd5_2 1_555 1_555
O37 Cd5_2 1_555 1_555
O30_2 V2_2 1_555 1_555
N7_2 V2_2 1_555 1_555
N8_2 V2_2 1_555 1_555
C127_2 O24_2 1_555 1_555
C132_2 N7_2 1_555 1_555
H136_2 C132_2 1_555 1_555
C133_2 N7_2 1_555 1_555
H137_2 C133_2 1_555 1_555
C134_2 C133_2 1_555 1_555
H138_2 C134_2 1_555 1_555
H139_2 C134_2 1_555 1_555
C135_2 C134_2 1_555 1_555
H140_2 C135_2 1_555 1_555
H141_2 C135_2 1_555 1_555
C136_2 C135_2 1_555 1_555
H142_2 C136_2 1_555 1_555
H143_2 C136_2 1_555 1_555
C137_2 C136_2 1_555 1_555
H144_2 C137_2 1_555 1_555
H145_2 C137_2 1_555 1_555
C138_2 N8_2 1_555 1_555
H146_2 C138_2 1_555 1_555
C142_2 C127_2 1_555 1_555
C143_2 C142_2 1_555 1_555
H154_2 C143_2 1_555 1_555
C144_2 C143_2 1_555 1_555
H155_2 C144_2 1_555 1_555
C145_2 C144_2 1_555 1_555
C146_2 C145_2 1_555 1_555
H156_2 C146_2 1_555 1_555
C147_2 C142_2 1_555 1_555
H157_2 C147_2 1_555 1_555
C148_2 C145_2 1_555 1_555
C149_2 C148_2 1_555 1_555
H158_2 C149_2 1_555 1_555
C151_2 C150_2 1_555 1_555
C152_2 C132_2 1_555 1_555
C153_2 C148_2 1_555 1_555
H159_2 C153_2 1_555 1_555
O37 C127_2 1_555 1_555
C133_2 C138_2 1_555 1_555
C137_2 C138_2 1_555 1_555
C146_2 C147_2 1_555 1_555
C149_2 C150_2 1_555 1_555
C151_2 C152_2 1_555 1_555
C152_2 C153_2 1_555 1_555
O28 C162_2 1_555 1_555
O29 C162_2 1_555 1_555
C128_2 C129_2 1_555 1_555
C129_2 H127_2 1_555 1_555
H128_2 C129_2 1_555 1_555
H129_2 C129_2 1_555 1_555
C130_2 C128_2 1_555 1_555
H130_2 C130_2 1_555 1_555
H131_2 C130_2 1_555 1_555
H132_2 C130_2 1_555 1_555
C131_2 C128_2 1_555 1_555
H133_2 C131_2 1_555 1_555
H134_2 C131_2 1_555 1_555
H147_2 C139_2 1_555 1_555
C140_2 H148_2 1_555 1_555
H149_2 C140_2 1_555 1_555
H150_2 C140_2 1_555 1_555
C141_2 H151_2 1_555 1_555
H152_2 C141_2 1_555 1_555
H153_2 C141_2 1_555 1_555
C154_2 C139_2 1_555 1_555
C155_2 O27_2 1_555 1_555
C156_2 C155_2 1_555 1_555
C157_2 C156_2 1_555 1_555
H160_2 C157_2 1_555 1_555
C158_2 C157_2 1_555 1_555
C159_2 C154_2 1_555 1_555
H161_2 C159_2 1_555 1_555
C160_2 H162_2 1_555 1_555
H163_2 C160_2 1_555 1_555
H164_2 C160_2 1_555 1_555
C161_2 C140_2 1_555 1_555
C162_2 C166_2 1_555 1_555
C163_2 C158_2 1_555 1_555
C164_2 C163_2 1_555 1_555
H165_2 C164_2 1_555 1_555
C165_2 C164_2 1_555 1_555
H166_2 C165_2 1_555 1_555
C166_2 C165_2 1_555 1_555
C167_2 C166_2 1_555 1_555
H167_2 C167_2 1_555 1_555
C168_2 C163_2 1_555 1_555
H168_2 C168_2 1_555 1_555
Cd8 O28 1_555 1_555
Cd12 O29 1_555 1_555
C141_2 C161_2 1_555 1_555
C154_2 C155_2 1_555 1_555
C156_2 C161_2 1_555 1_555
C158_2 C159_2 1_555 1_555
C160_2 C161_2 1_555 1_555
C167_2 C168_2 1_555 1_555
O1_2 C1_2 1_555 1_555
O34 C1_2 1_555 1_555
O5_2 C5_2 1_555 1_555
O16_2 Cd7_2 1_555 1_555
C1_2 C40_2 1_555 1_555
C2_2 C3_2 1_555 1_555
C3_2 H1_2 1_555 1_555
C4_2 C3_2 1_555 1_555
C5_2 C4_2 1_555 1_555
C6_2 C5_2 1_555 1_555
C7_2 C2_2 1_555 1_555
H2_2 C7_2 1_555 1_555
C8_2 C4_2 1_555 1_555
C9_2 C8_2 1_555 1_555
H3_2 C9_2 1_555 1_555
H4_2 C9_2 1_555 1_555
H5_2 C9_2 1_555 1_555
C10_2 C8_2 1_555 1_555
H6_2 C10_2 1_555 1_555
H7_2 C10_2 1_555 1_555
H8_2 C10_2 1_555 1_555
C11_2 C8_2 1_555 1_555
H9_2 C11_2 1_555 1_555
H10_2 C11_2 1_555 1_555
H11_2 C11_2 1_555 1_555
H12_2 C12_2 1_555 1_555
C20_2 C21_2 1_555 1_555
C21_2 H24_2 1_555 1_555
H25_2 C21_2 1_555 1_555
H26_2 C21_2 1_555 1_555
C22_2 C20_2 1_555 1_555
H27_2 C22_2 1_555 1_555
H28_2 C22_2 1_555 1_555
C23_2 C20_2 1_555 1_555
H30_2 C23_2 1_555 1_555
H31_2 C23_2 1_555 1_555
H32_2 C23_2 1_555 1_555
C40_2 C41_2 1_555 1_555
C41_2 H60_2 1_555 1_555
C42_2 C41_2 1_555 1_555
H61_2 C42_2 1_555 1_555
C43_2 C2_2 1_555 1_555
C44_2 C43_2 1_555 1_555
H62_2 C44_2 1_555 1_555
C45_2 C40_2 1_555 1_555
H63_2 C45_2 1_555 1_555
C6_2 C7_2 1_555 1_555
C6_2 C12_2 1_555 1_555
C42_2 C43_2 1_555 1_555
C44_2 C45_2 1_555 1_555
Cd8 O3_2 1_555 1_555
Cd12 O4_2 1_555 1_555
O3_2 C24_2 1_555 1_555
O4_2 Cd8 1_555 1_555
O6_2 Cu1_2 1_555 1_555
O13_2 Cu1_2 1_555 1_555
O15_2 Cd12 1_555 1_555
N1_2 Cu1_2 1_555 1_555
N2_2 Cu1_2 1_555 1_555
C13_2 N2_2 1_555 1_555
H13_2 C13_2 1_555 1_555
C14_2 C13_2 1_555 1_555
H14_2 C14_2 1_555 1_555
H15_2 C14_2 1_555 1_555
C15_2 C14_2 1_555 1_555
H16_2 C15_2 1_555 1_555
H17_2 C15_2 1_555 1_555
C16_2 C15_2 1_555 1_555
H18_2 C16_2 1_555 1_555
H19_2 C16_2 1_555 1_555
C17_2 C16_2 1_555 1_555
H20_2 C17_2 1_555 1_555
H21_2 C17_2 1_555 1_555
C18_2 N1_2 1_555 1_555
H22_2 C18_2 1_555 1_555
C19_2 N1_2 1_555 1_555
H23_2 C19_2 1_555 1_555
C24_2 O4_2 1_555 1_555
C46_2 C19_2 1_555 1_555
C47_2 O6_2 1_555 1_555
C49_2 C48_2 1_555 1_555
H64_2 C49_2 1_555 1_555
C50_2 C49_2 1_555 1_555
C51_2 C46_2 1_555 1_555
H65_2 C51_2 1_555 1_555
C52_2 C50_2 1_555 1_555
C53_2 C52_2 1_555 1_555
H66_2 C53_2 1_555 1_555
C54_2 C53_2 1_555 1_555
H67_2 C54_2 1_555 1_555
C55_2 C24_2 1_555 1_555
C56_2 C55_2 1_555 1_555
H68_2 C56_2 1_555 1_555
C57_2 C52_2 1_555 1_555
H69_2 C57_2 1_555 1_555
O19_2 Cd8 1_555 1_555
O36 Cd8 1_555 1_555
O22_2 Cu2_2 1_555 1_555
O23_2 Cu2_2 1_555 1_555
N5_2 Cu2_2 1_555 1_555
N6_2 Cu2_2 1_555 1_555
C97_2 N6_2 1_555 1_555
H97_2 C97_2 1_555 1_555
C98_2 C97_2 1_555 1_555
H98_2 C98_2 1_555 1_555
H99_2 C98_2 1_555 1_555
C99_2 C98_2 1_555 1_555
H100_2 C99_2 1_555 1_555
H101_2 C99_2 1_555 1_555
C100_2 C99_2 1_555 1_555
H102_2 C100_2 1_555 1_555
H103_2 C100_2 1_555 1_555
C101_2 C100_2 1_555 1_555
H104_2 C101_2 1_555 1_555
H105_2 C101_2 1_555 1_555
C102_2 N5_2 1_555 1_555
H106_2 C102_2 1_555 1_555
C103_2 N5_2 1_555 1_555
H107_2 C103_2 1_555 1_555
C108_2 O19_2 1_555 1_555
C115_2 C103_2 1_555 1_555
C116_2 O22_2 1_555 1_555
C118_2 C117_2 1_555 1_555
H121_2 C118_2 1_555 1_555
C119_2 C118_2 1_555 1_555
C120_2 C115_2 1_555 1_555
H122_2 C120_2 1_555 1_555
C121_2 C119_2 1_555 1_555
C122_2 C121_2 1_555 1_555
H123_2 C122_2 1_555 1_555
C123_2 C122_2 1_555 1_555
H124_2 C123_2 1_555 1_555
C124_2 C108_2 1_555 1_555
C125_2 C124_2 1_555 1_555
H125_2 C125_2 1_555 1_555
C126_2 C121_2 1_555 1_555
H126_2 C126_2 1_555 1_555
O31_2 Cd12 1_555 1_555
C13_2 C18_2 1_555 1_555
C17_2 C18_2 1_555 1_555
C46_2 C47_2 1_555 1_555
C47_2 C48_2 1_555 1_555
C50_2 C51_2 1_555 1_555
C54_2 C55_2 1_555 1_555
C56_2 C57_2 1_555 1_555
O36 C108_2 1_555 1_555
C97_2 C102_2 1_555 1_555
C101_2 C102_2 1_555 1_555
C115_2 C116_2 1_555 1_555
C116_2 C117_2 1_555 1_555
C119_2 C120_2 1_555 1_555
C123_2 C124_2 1_555 1_555
C125_2 C126_2 1_555 1_555
O13_2 H171_2 1_555 1_555
O13_2 H172_2 1_555 1_555
O23_2 H175_2 1_555 1_555
O23_2 H176_2 1_555 1_555
O17 C85_2 1_555 1_555
O18 C85_2 1_555 1_555
O21_2 C89_2 1_555 1_555
C85_2 C109_2 1_555 1_555
C86_2 C87_2 1_555 1_555
C87_2 H85_2 1_555 1_555
C88_2 C87_2 1_555 1_555
C89_2 C88_2 1_555 1_555
C90_2 C89_2 1_555 1_555
C91_2 C86_2 1_555 1_555
H86_2 C91_2 1_555 1_555
C92_2 C88_2 1_555 1_555
C93_2 C92_2 1_555 1_555
H87_2 C93_2 1_555 1_555
H88_2 C93_2 1_555 1_555
H89_2 C93_2 1_555 1_555
C94_2 C92_2 1_555 1_555
H90_2 C94_2 1_555 1_555
H91_2 C94_2 1_555 1_555
H92_2 C94_2 1_555 1_555
C95_2 C92_2 1_555 1_555
H93_2 C95_2 1_555 1_555
H94_2 C95_2 1_555 1_555
H95_2 C95_2 1_555 1_555
H96_2 C96_2 1_555 1_555
C104_2 C105_2 1_555 1_555
C105_2 H108_2 1_555 1_555
H109_2 C105_2 1_555 1_555
H110_2 C105_2 1_555 1_555
C106_2 C104_2 1_555 1_555
H111_2 C106_2 1_555 1_555
H112_2 C106_2 1_555 1_555
C107_2 C104_2 1_555 1_555
H114_2 C107_2 1_555 1_555
H115_2 C107_2 1_555 1_555
H116_2 C107_2 1_555 1_555
C109_2 C110_2 1_555 1_555
C110_2 H117_2 1_555 1_555
C111_2 C110_2 1_555 1_555
H118_2 C111_2 1_555 1_555
C112_2 C86_2 1_555 1_555
C113_2 C112_2 1_555 1_555
H119_2 C113_2 1_555 1_555
C114_2 C109_2 1_555 1_555
H120_2 C114_2 1_555 1_555
C90_2 C91_2 1_555 1_555
C90_2 C96_2 1_555 1_555
C111_2 C112_2 1_555 1_555
C113_2 C114_2 1_555 1_555

#END
