
###############################################################################
#
# This file contains modified crystal structure data generated from the
# MOF subset of the Cambridge Structural Database (CSD) v543 
# hosted by the Cambridge Crystallographic Data Centre (CCDC).
#
# This work is licensed under the Creative Commons
# Attribution-NonCommercial-ShareAlike 4.0 International License.
# To view a copy of this license, visit
# http://creativecommons.org/licenses/by-nc-sa/4.0/
# or send a letter to
# Creative Commons, PO Box 1866, Mountain View, CA 94042, USA.
#
# CIF created using the CSD Python API on 29 September 2022
# The structure has been converted into the P1 space group
# The structure has a 3D framework
# The original CSD entry SELKEC is in the tetragonal crystal system
# The framework has been calculated to contain at least 10.0% void space
# The void calculation uses a probe of radius 1.32A, grid spacing 0.4
# H atom positions have been added when not included in the experimental data
# Generated hydrogen atom positions removed from atoms on special positions
#
###############################################################################

data_SELKEC
_chemical_formula_moiety         '(C144 H160 O69 Zr17)n'
_symmetry_cell_setting           triclinic
_symmetry_space_group_name_H-M   'P 1'
_symmetry_Int_Tables_number      1
_space_group_name_Hall           'P 1'
loop_
_symmetry_equiv_pos_site_id
_symmetry_equiv_pos_as_xyz
1 x,y,z
_cell_length_a                   23.874(18)
_cell_length_b                   23.874
_cell_length_c                   15.894(12)
_cell_angle_alpha                90
_cell_angle_beta                 90
_cell_angle_gamma                90
_cell_volume                     9059.07
loop_
_atom_site_label
_atom_site_type_symbol
_atom_site_fract_x
_atom_site_fract_y
_atom_site_fract_z
Zr1 Zr 0.07336(3) 0.5000 0.38939(6)
Zr2 Zr 0.0000 0.39817(4) 0.5000
C1 C 0.0923(3) 0.3656(3) 0.3699(5)
C2 C 0.1303(3) 0.3236(3) 0.3298(6)
C3 C 0.1271(3) 0.2692(3) 0.3615(6)
H1 H 0.1009 0.2605 0.4045
C4 C 0.1630(3) 0.2271(3) 0.3297(7)
C5 C 0.1999(3) 0.2420(4) 0.2668(7)
C6 C 0.2020(4) 0.2968(4) 0.2344(8)
H2 H 0.2263 0.3058 0.1890
C7 C 0.1676(4) 0.3376(3) 0.2706(7)
H3 H 0.1707 0.3755 0.2531
C8 C 0.1633(5) 0.1682(4) 0.3683(8)
H4 H 0.1371 0.1668 0.4156
H5 H 0.2011 0.1593 0.3883
H6 H 0.1521 0.1408 0.3256
C9 C 0.0307(4) 0.5000 0.2060(13)
C10 C 0.0305(4) 0.5000 0.1146(13)
O1 O 0.05457(16) 0.35045(15) 0.4184(3)
O2 O 0.1029(2) 0.41630(19) 0.3461(3)
O3 O 0.0726(3) 0.4507(2) 0.5000
O4 O 0.0000 0.5496(2) 0.3901(5)
O5 O 0.1666(3) 0.5000 0.3993(6)
O6 O 0.0713(5) 0.5000 0.2536(6)
O7 O 0.0683(4) 0.5000 0.0606(11)
C11 C 0.3656(3) 0.0923(3) 0.1301(5)
C12 C 0.3236(3) 0.1303(3) 0.1702(6)
C13 C 0.2692(3) 0.1271(3) 0.1385(6)
H7 H 0.2605 0.1009 0.0955
C14 C 0.2271(3) 0.1630(3) 0.1703(7)
C15 C 0.2420(4) 0.1999(3) 0.2332(7)
C16 C 0.2968(4) 0.2020(4) 0.2656(8)
H8 H 0.3058 0.2263 0.3110
C17 C 0.3376(3) 0.1676(4) 0.2294(7)
H9 H 0.3755 0.1707 0.2469
C18 C 0.1682(4) 0.1633(5) 0.1317(8)
H10 H 0.1668 0.1371 0.0844
H11 H 0.1593 0.2011 0.1117
H12 H 0.1408 0.1521 0.1744
O8 O 0.35045(15) 0.05457(16) 0.0816(3)
O9 O 0.41630(19) 0.1029(2) 0.1539(3)
O13 O 0.0000 0.4504(2) 0.3901(5)
Zr4 Zr 0.07336(3) 0.5000 0.61061(6)
Zr7 Zr 0.5000 0.07336(3) 0.11061(6)
Zr9 Zr 0.0000 0.60183(4) 0.5000
Zr10 Zr 0.39817(4) 0.0000 0.0000
O20 O 0.05457(16) 0.35045(15) 0.5816(3)
O22 O 0.1029(2) 0.58370(19) 0.3461(3)
O23 O 0.0726(3) 0.5493(2) 0.5000
O25 O 0.0000 0.4504(2) 0.6099(5)
Zr10_2 Zr 0.39817(4) 0.0000 1.0000
Zr10_3 Zr 0.39817(4) 1.0000 0.0000
Zr10_4 Zr 0.39817(4) 1.0000 1.0000
Zr2_2 Zr 1.0000 0.39817(4) 0.5000
O4_2 O 1.0000 0.5496(2) 0.3901(5)
C19 C 0.9693(4) 0.5000 0.2060(13)
C20 C 0.9695(4) 0.5000 0.1146(13)
O10 O 0.9287(5) 0.5000 0.2536(6)
O11 O 0.9317(4) 0.5000 0.0606(11)
Zr3 Zr 0.92664(3) 0.5000 0.38939(6)
O12 O 0.9274(3) 0.5493(2) 0.5000
O13_2 O 1.0000 0.4504(2) 0.3901(5)
O14 O 0.8334(3) 0.5000 0.3993(6)
C21 C 0.9077(3) 0.3656(3) 0.3699(5)
C22 C 0.8697(3) 0.3236(3) 0.3298(6)
C23 C 0.8729(3) 0.2692(3) 0.3615(6)
H13 H 0.8991 0.2605 0.4045
C24 C 0.8370(3) 0.2271(3) 0.3297(7)
C25 C 0.8001(3) 0.2420(4) 0.2668(7)
C26 C 0.7980(4) 0.2968(4) 0.2344(8)
H14 H 0.7737 0.3058 0.1890
C27 C 0.8324(4) 0.3376(3) 0.2706(7)
H15 H 0.8293 0.3755 0.2531
C28 C 0.8367(5) 0.1682(4) 0.3683(8)
H16 H 0.8629 0.1668 0.4156
H17 H 0.7989 0.1593 0.3883
H18 H 0.8479 0.1408 0.3256
O15 O 0.94543(16) 0.35045(15) 0.4184(3)
O16 O 0.8971(2) 0.41630(19) 0.3461(3)
C29 C 0.6344(3) 0.0923(3) 0.1301(5)
C30 C 0.6764(3) 0.1303(3) 0.1702(6)
C31 C 0.7308(3) 0.1271(3) 0.1385(6)
H19 H 0.7395 0.1009 0.0955
C32 C 0.7729(3) 0.1630(3) 0.1703(7)
C33 C 0.7580(4) 0.1999(3) 0.2332(7)
C34 C 0.7032(4) 0.2020(4) 0.2656(8)
H20 H 0.6942 0.2263 0.3110
C35 C 0.6624(3) 0.1676(4) 0.2294(7)
H21 H 0.6245 0.1707 0.2469
C36 C 0.8318(4) 0.1633(5) 0.1317(8)
H22 H 0.8332 0.1371 0.0844
H23 H 0.8407 0.2011 0.1117
H24 H 0.8592 0.1521 0.1744
O17 O 0.64955(15) 0.05457(16) 0.0816(3)
O18 O 0.58370(19) 0.1029(2) 0.1539(3)
Zr5 Zr 0.92664(3) 0.5000 0.61061(6)
Zr8 Zr 0.60183(4) 0.0000 0.0000
Zr9_2 Zr 1.0000 0.60183(4) 0.5000
O19 O 0.94543(16) 0.35045(15) 0.5816(3)
O21 O 0.8971(2) 0.58370(19) 0.3461(3)
O24 O 0.9274(3) 0.4507(2) 0.5000
O25_2 O 1.0000 0.4504(2) 0.6099(5)
Zr8_2 Zr 0.60183(4) 0.0000 1.0000
Zr8_3 Zr 0.60183(4) 1.0000 0.0000
Zr8_4 Zr 0.60183(4) 1.0000 1.0000
O3_2 O 0.5493(2) 0.0726(3) 0.0000
O23_2 O 0.4507(2) 0.0726(3) 0.0000
O25_3 O 0.5496(2) 0.0000 0.1099(5)
Zr1_2 Zr 0.5000 0.07336(3) 0.88939(6)
C1_2 C 0.6344(3) 0.0923(3) 0.8699(5)
C2_2 C 0.6764(3) 0.1303(3) 0.8298(6)
C3_2 C 0.7308(3) 0.1271(3) 0.8615(6)
H1_2 H 0.7395 0.1009 0.9045
C4_2 C 0.7729(3) 0.1630(3) 0.8297(7)
C5_2 C 0.7580(4) 0.1999(3) 0.7668(7)
C6_2 C 0.7032(4) 0.2020(4) 0.7344(8)
H2_2 H 0.6942 0.2263 0.6890
C7_2 C 0.6624(3) 0.1676(4) 0.7706(7)
H3_2 H 0.6245 0.1707 0.7531
C8_2 C 0.8318(4) 0.1633(5) 0.8683(8)
H4_2 H 0.8332 0.1371 0.9156
H5_2 H 0.8407 0.2011 0.8883
H6_2 H 0.8592 0.1521 0.8256
C9_2 C 0.5000 0.0307(4) 0.7060(13)
C10_2 C 0.5000 0.0305(4) 0.6146(13)
O1_2 O 0.64955(15) 0.05457(16) 0.9184(3)
O2_2 O 0.58370(19) 0.1029(2) 0.8461(3)
O3_3 O 0.5493(2) 0.0726(3) 1.0000
O4_3 O 0.4504(2) 0.0000 0.8901(5)
O5_2 O 0.5000 0.1666(3) 0.8993(6)
O6_2 O 0.5000 0.0713(5) 0.7536(6)
O7_2 O 0.5000 0.0683(4) 0.5606(11)
C11_2 C 0.9077(3) 0.3656(3) 0.6301(5)
C12_2 C 0.8697(3) 0.3236(3) 0.6702(6)
C13_2 C 0.8729(3) 0.2692(3) 0.6385(6)
H7_2 H 0.8991 0.2605 0.5955
C14_2 C 0.8370(3) 0.2271(3) 0.6703(7)
C15_2 C 0.8001(3) 0.2420(4) 0.7332(7)
C16_2 C 0.7980(4) 0.2968(4) 0.7656(8)
H8_2 H 0.7737 0.3058 0.8110
C17_2 C 0.8324(4) 0.3376(3) 0.7294(7)
H9_2 H 0.8293 0.3755 0.7469
C18_2 C 0.8367(5) 0.1682(4) 0.6317(8)
H10_2 H 0.8629 0.1668 0.5844
H11_2 H 0.7989 0.1593 0.6117
H12_2 H 0.8479 0.1408 0.6744
O9_2 O 0.8971(2) 0.41630(19) 0.6539(3)
O13_3 O 0.5496(2) 0.0000 0.8901(5)
O22_2 O 0.41630(19) 0.1029(2) 0.8461(3)
O23_3 O 0.4507(2) 0.0726(3) 1.0000
O12_2 O 0.4507(2) 0.9274(3) 0.0000
Zr5_2 Zr 0.5000 0.92664(3) 0.11061(6)
O19_2 O 0.64955(15) 0.94543(16) 0.0816(3)
O24_2 O 0.5493(2) 0.9274(3) 0.0000
O25_4 O 0.5496(2) 1.0000 0.1099(5)
O4_4 O 0.4504(2) 1.0000 0.8901(5)
C19_2 C 0.5000 0.9693(4) 0.7060(13)
C20_2 C 0.5000 0.9695(4) 0.6146(13)
O10_2 O 0.5000 0.9287(5) 0.7536(6)
O11_2 O 0.5000 0.9317(4) 0.5606(11)
Zr3_2 Zr 0.5000 0.92664(3) 0.88939(6)
O12_3 O 0.4507(2) 0.9274(3) 1.0000
O13_4 O 0.5496(2) 1.0000 0.8901(5)
O14_2 O 0.5000 0.8334(3) 0.8993(6)
C21_2 C 0.6344(3) 0.9077(3) 0.8699(5)
C22_2 C 0.6764(3) 0.8697(3) 0.8298(6)
C23_2 C 0.7308(3) 0.8729(3) 0.8615(6)
H13_2 H 0.7395 0.8991 0.9045
C24_2 C 0.7729(3) 0.8370(3) 0.8297(7)
C25_2 C 0.7580(4) 0.8001(3) 0.7668(7)
C26_2 C 0.7032(4) 0.7980(4) 0.7344(8)
H14_2 H 0.6942 0.7737 0.6890
C27_2 C 0.6624(3) 0.8324(4) 0.7706(7)
H15_2 H 0.6245 0.8293 0.7531
C28_2 C 0.8318(4) 0.8367(5) 0.8683(8)
H16_2 H 0.8332 0.8629 0.9156
H17_2 H 0.8407 0.7989 0.8883
H18_2 H 0.8592 0.8479 0.8256
O15_2 O 0.64955(15) 0.94543(16) 0.9184(3)
O16_2 O 0.58370(19) 0.8971(2) 0.8461(3)
C29_2 C 0.9077(3) 0.6344(3) 0.6301(5)
C30_2 C 0.8697(3) 0.6764(3) 0.6702(6)
C31_2 C 0.8729(3) 0.7308(3) 0.6385(6)
H19_2 H 0.8991 0.7395 0.5955
C32_2 C 0.8370(3) 0.7729(3) 0.6703(7)
C33_2 C 0.8001(3) 0.7580(4) 0.7332(7)
C34_2 C 0.7980(4) 0.7032(4) 0.7656(8)
H20_2 H 0.7737 0.6942 0.8110
C35_2 C 0.8324(4) 0.6624(3) 0.7294(7)
H21_2 H 0.8293 0.6245 0.7469
C36_2 C 0.8367(5) 0.8318(4) 0.6317(8)
H22_2 H 0.8629 0.8332 0.5844
H23_2 H 0.7989 0.8407 0.6117
H24_2 H 0.8479 0.8592 0.6744
O17_2 O 0.94543(16) 0.64955(15) 0.5816(3)
O18_2 O 0.8971(2) 0.58370(19) 0.6539(3)
O21_2 O 0.41630(19) 0.8971(2) 0.8461(3)
O24_3 O 0.5493(2) 0.9274(3) 1.0000
C21_3 C 0.0923(3) 0.6344(3) 0.3699(5)
C22_3 C 0.1303(3) 0.6764(3) 0.3298(6)
C23_3 C 0.1271(3) 0.7308(3) 0.3615(6)
H13_3 H 0.1009 0.7395 0.4045
C24_3 C 0.1630(3) 0.7729(3) 0.3297(7)
C25_3 C 0.1999(3) 0.7580(4) 0.2668(7)
C26_3 C 0.2020(4) 0.7032(4) 0.2344(8)
H14_3 H 0.2263 0.6942 0.1890
C27_3 C 0.1676(4) 0.6624(3) 0.2706(7)
H15_3 H 0.1707 0.6245 0.2531
C28_3 C 0.1633(5) 0.8318(4) 0.3683(8)
H16_3 H 0.1371 0.8332 0.4156
H17_3 H 0.2011 0.8407 0.3883
H18_3 H 0.1521 0.8592 0.3256
O15_3 O 0.05457(16) 0.64955(15) 0.4184(3)
C29_3 C 0.3656(3) 0.9077(3) 0.1301(5)
C30_3 C 0.3236(3) 0.8697(3) 0.1702(6)
C31_3 C 0.2692(3) 0.8729(3) 0.1385(6)
H19_3 H 0.2605 0.8991 0.0955
C32_3 C 0.2271(3) 0.8370(3) 0.1703(7)
C33_3 C 0.2420(4) 0.8001(3) 0.2332(7)
C34_3 C 0.2968(4) 0.7980(4) 0.2656(8)
H20_3 H 0.3058 0.7737 0.3110
C35_3 C 0.3376(3) 0.8324(4) 0.2294(7)
H21_3 H 0.3755 0.8293 0.2469
C36_3 C 0.1682(4) 0.8367(5) 0.1317(8)
H22_3 H 0.1668 0.8629 0.0844
H23_3 H 0.1593 0.7989 0.1117
H24_3 H 0.1408 0.8479 0.1744
O17_3 O 0.35045(15) 0.94543(16) 0.0816(3)
O18_3 O 0.41630(19) 0.8971(2) 0.1539(3)
O19_3 O 0.05457(16) 0.64955(15) 0.5816(3)
O25_5 O -0.0000 0.5496(2) 0.6099(5)
C1_3 C 0.9077(3) 0.6344(3) 0.3699(5)
C2_3 C 0.8697(3) 0.6764(3) 0.3298(6)
C3_3 C 0.8729(3) 0.7308(3) 0.3615(6)
H1_3 H 0.8991 0.7395 0.4045
C4_3 C 0.8370(3) 0.7729(3) 0.3297(7)
C5_3 C 0.8001(3) 0.7580(4) 0.2668(7)
C6_3 C 0.7980(4) 0.7032(4) 0.2344(8)
H2_3 H 0.7737 0.6942 0.1890
C7_3 C 0.8324(4) 0.6624(3) 0.2706(7)
H3_3 H 0.8293 0.6245 0.2531
C8_3 C 0.8367(5) 0.8318(4) 0.3683(8)
H4_3 H 0.8629 0.8332 0.4156
H5_3 H 0.7989 0.8407 0.3883
H6_3 H 0.8479 0.8592 0.3256
O1_3 O 0.94543(16) 0.64955(15) 0.4184(3)
C11_3 C 0.6344(3) 0.9077(3) 0.1301(5)
C12_3 C 0.6764(3) 0.8697(3) 0.1702(6)
C13_3 C 0.7308(3) 0.8729(3) 0.1385(6)
H7_3 H 0.7395 0.8991 0.0955
C14_3 C 0.7729(3) 0.8370(3) 0.1703(7)
C15_3 C 0.7580(4) 0.8001(3) 0.2332(7)
C16_3 C 0.7032(4) 0.7980(4) 0.2656(8)
H8_3 H 0.6942 0.7737 0.3110
C17_3 C 0.6624(3) 0.8324(4) 0.2294(7)
H9_3 H 0.6245 0.8293 0.2469
C18_3 C 0.8318(4) 0.8367(5) 0.1317(8)
H10_3 H 0.8332 0.8629 0.0844
H11_3 H 0.8407 0.7989 0.1117
H12_3 H 0.8592 0.8479 0.1744
O9_3 O 0.58370(19) 0.8971(2) 0.1539(3)
O25_6 O 1.0000 0.5496(2) 0.6099(5)
O25_7 O 0.4504(2) -0.0000 0.1099(5)
C21_4 C 0.3656(3) 0.0923(3) 0.8699(5)
C22_4 C 0.3236(3) 0.1303(3) 0.8298(6)
C23_4 C 0.2692(3) 0.1271(3) 0.8615(6)
H13_4 H 0.2605 0.1009 0.9045
C24_4 C 0.2271(3) 0.1630(3) 0.8297(7)
C25_4 C 0.2420(4) 0.1999(3) 0.7668(7)
C26_4 C 0.2968(4) 0.2020(4) 0.7344(8)
H14_4 H 0.3058 0.2263 0.6890
C27_4 C 0.3376(3) 0.1676(4) 0.7706(7)
H15_4 H 0.3755 0.1707 0.7531
C28_4 C 0.1682(4) 0.1633(5) 0.8683(8)
H16_4 H 0.1668 0.1371 0.9156
H17_4 H 0.1593 0.2011 0.8883
H18_4 H 0.1408 0.1521 0.8256
O15_4 O 0.35045(15) 0.05457(16) 0.9184(3)
C29_4 C 0.0923(3) 0.3656(3) 0.6301(5)
C30_4 C 0.1303(3) 0.3236(3) 0.6702(6)
C31_4 C 0.1271(3) 0.2692(3) 0.6385(6)
H19_4 H 0.1009 0.2605 0.5955
C32_4 C 0.1630(3) 0.2271(3) 0.6703(7)
C33_4 C 0.1999(3) 0.2420(4) 0.7332(7)
C34_4 C 0.2020(4) 0.2968(4) 0.7656(8)
H20_4 H 0.2263 0.3058 0.8110
C35_4 C 0.1676(4) 0.3376(3) 0.7294(7)
H21_4 H 0.1707 0.3755 0.7469
C36_4 C 0.1633(5) 0.1682(4) 0.6317(8)
H22_4 H 0.1371 0.1668 0.5844
H23_4 H 0.2011 0.1593 0.6117
H24_4 H 0.1521 0.1408 0.6744
O18_4 O 0.1029(2) 0.41630(19) 0.6539(3)
O25_8 O 0.4504(2) 1.0000 0.1099(5)
C1_4 C 0.3656(3) 0.9077(3) 0.8699(5)
C2_4 C 0.3236(3) 0.8697(3) 0.8298(6)
C3_4 C 0.2692(3) 0.8729(3) 0.8615(6)
H1_4 H 0.2605 0.8991 0.9045
C4_4 C 0.2271(3) 0.8370(3) 0.8297(7)
C5_4 C 0.2420(4) 0.8001(3) 0.7668(7)
C6_4 C 0.2968(4) 0.7980(4) 0.7344(8)
H2_4 H 0.3058 0.7737 0.6890
C7_4 C 0.3376(3) 0.8324(4) 0.7706(7)
H3_4 H 0.3755 0.8293 0.7531
C8_4 C 0.1682(4) 0.8367(5) 0.8683(8)
H4_4 H 0.1668 0.8629 0.9156
H5_4 H 0.1593 0.7989 0.8883
H6_4 H 0.1408 0.8479 0.8256
O1_4 O 0.35045(15) 0.94543(16) 0.9184(3)
C11_4 C 0.0923(3) 0.6344(3) 0.6301(5)
C12_4 C 0.1303(3) 0.6764(3) 0.6702(6)
C13_4 C 0.1271(3) 0.7308(3) 0.6385(6)
H7_4 H 0.1009 0.7395 0.5955
C14_4 C 0.1630(3) 0.7729(3) 0.6703(7)
C15_4 C 0.1999(3) 0.7580(4) 0.7332(7)
C16_4 C 0.2020(4) 0.7032(4) 0.7656(8)
H8_4 H 0.2263 0.6942 0.8110
C17_4 C 0.1676(4) 0.6624(3) 0.7294(7)
H9_4 H 0.1707 0.6245 0.7469
C18_4 C 0.1633(5) 0.8318(4) 0.6317(8)
H10_4 H 0.1371 0.8332 0.5844
H11_4 H 0.2011 0.8407 0.6117
H12_4 H 0.1521 0.8592 0.6744
O9_4 O 0.1029(2) 0.58370(19) 0.6539(3)
C9_3 C 0.0307(4) 0.5000 0.7940(13)
C10_3 C 0.0305(4) 0.5000 0.8854(13)
O5_3 O 0.1666(3) 0.5000 0.6007(6)
O6_3 O 0.0713(5) 0.5000 0.7464(6)
O7_3 O 0.0683(4) 0.5000 0.9394(11)
C19_3 C 0.9693(4) 0.5000 0.7940(13)
C20_3 C 0.9695(4) 0.5000 0.8854(13)
O10_3 O 0.9287(5) 0.5000 0.7464(6)
O11_3 O 0.9317(4) 0.5000 0.9394(11)
O14_3 O 0.8334(3) 0.5000 0.6007(6)
C9_4 C 0.5000 0.0307(4) 0.2940(13)
C10_4 C 0.5000 0.0305(4) 0.3854(13)
O5_4 O 0.5000 0.1666(3) 0.1007(6)
O6_4 O 0.5000 0.0713(5) 0.2464(6)
O7_4 O 0.5000 0.0683(4) 0.4394(11)
C19_4 C 0.5000 0.9693(4) 0.2940(13)
C20_4 C 0.5000 0.9695(4) 0.3854(13)
O10_4 O 0.5000 0.9287(5) 0.2464(6)
O11_4 O 0.5000 0.9317(4) 0.4394(11)
O14_4 O 0.5000 0.8334(3) 0.1007(6)
loop_
_geom_bond_atom_site_label_1
_geom_bond_atom_site_label_2
_geom_bond_site_symmetry_1
_geom_bond_site_symmetry_2
Zr1 O2 1_555 1_555
Zr2 O1 1_555 1_555
C1 C2 1_555 1_555
C2 C3 1_555 1_555
C3 H1 1_555 1_555
C4 C3 1_555 1_555
C5 C4 1_555 1_555
C6 C5 1_555 1_555
H2 C6 1_555 1_555
C7 C2 1_555 1_555
H3 C7 1_555 1_555
C8 C4 1_555 1_555
H4 C8 1_555 1_555
H5 C8 1_555 1_555
H6 C8 1_555 1_555
C9 C10 1_555 1_555
C10 O7 1_555 1_555
O1 C1 1_555 1_555
O2 C1 1_555 1_555
O3 Zr1 1_555 1_555
O4 Zr1 1_555 1_555
O5 Zr1 1_555 1_555
O6 Zr1 1_555 1_555
C11 C12 1_555 1_555
C12 C13 1_555 1_555
C13 H7 1_555 1_555
C14 C13 1_555 1_555
C15 C5 1_555 1_555
C16 C15 1_555 1_555
H8 C16 1_555 1_555
C17 C12 1_555 1_555
H9 C17 1_555 1_555
C18 C14 1_555 1_555
H10 C18 1_555 1_555
H11 C18 1_555 1_555
H12 C18 1_555 1_555
O8 C11 1_555 1_555
O9 C11 1_555 1_555
O13 Zr1 1_555 1_555
Zr4 O3 1_555 1_555
Zr7 O9 1_555 1_555
Zr9 O4 1_555 1_555
Zr10 O8 1_555 1_555
O20 Zr2 1_555 1_555
O22 Zr1 1_555 1_555
O23 Zr1 1_555 1_555
O25 Zr2 1_555 1_555
Zr2 O3 1_555 1_555
Zr2 O13 1_555 1_555
C6 C7 1_555 1_555
C9 O6 1_555 1_555
C14 C15 1_555 1_555
C16 C17 1_555 1_555
Zr4 O23 1_555 1_555
Zr4 O25 1_555 1_555
Zr9 O23 1_555 1_555
O10 C19 1_555 1_555
O11 C20 1_555 1_555
Zr3 O4_2 1_555 1_555
O12 Zr3 1_555 1_555
O14 Zr3 1_555 1_555
C21 C22 1_555 1_555
C22 C23 1_555 1_555
C23 H13 1_555 1_555
C24 C23 1_555 1_555
C25 C24 1_555 1_555
C26 C25 1_555 1_555
H14 C26 1_555 1_555
C27 C22 1_555 1_555
H15 C27 1_555 1_555
C28 C24 1_555 1_555
H16 C28 1_555 1_555
H17 C28 1_555 1_555
H18 C28 1_555 1_555
O15 Zr2_2 1_555 1_555
O16 Zr3 1_555 1_555
C29 C30 1_555 1_555
C30 C31 1_555 1_555
C31 H19 1_555 1_555
C32 C31 1_555 1_555
C33 C25 1_555 1_555
C34 C33 1_555 1_555
H20 C34 1_555 1_555
C35 C30 1_555 1_555
H21 C35 1_555 1_555
C36 C32 1_555 1_555
H22 C36 1_555 1_555
H23 C36 1_555 1_555
H24 C36 1_555 1_555
O17 C29 1_555 1_555
O18 C29 1_555 1_555
Zr5 O12 1_555 1_555
Zr7 O18 1_555 1_555
Zr8 O17 1_555 1_555
Zr9_2 O4_2 1_555 1_555
O19 Zr2_2 1_555 1_555
O21 Zr3 1_555 1_555
O24 Zr2_2 1_555 1_555
O25_2 Zr2_2 1_555 1_555
Zr2_2 O13_2 1_555 1_555
C19 C20 1_555 1_555
O10 Zr3 1_555 1_555
Zr3 O13_2 1_555 1_555
Zr3 O24 1_555 1_555
O12 Zr9_2 1_555 1_555
C21 O15 1_555 1_555
C21 O16 1_555 1_555
C26 C27 1_555 1_555
C32 C33 1_555 1_555
C34 C35 1_555 1_555
Zr5 O24 1_555 1_555
Zr5 O25_2 1_555 1_555
Zr7 O3_2 1_555 1_555
O25_3 Zr8 1_555 1_555
Zr8 O3_2 1_555 1_555
Zr7 O23_2 1_555 1_555
Zr7 O25_3 1_555 1_555
Zr10 O23_2 1_555 1_555
Zr1_2 O2_2 1_555 1_555
Zr8_2 O1_2 1_555 1_555
C1_2 C2_2 1_555 1_555
C2_2 C3_2 1_555 1_555
C3_2 H1_2 1_555 1_555
C4_2 C3_2 1_555 1_555
C5_2 C4_2 1_555 1_555
C6_2 C5_2 1_555 1_555
H2_2 C6_2 1_555 1_555
C7_2 C2_2 1_555 1_555
H3_2 C7_2 1_555 1_555
C8_2 C4_2 1_555 1_555
H4_2 C8_2 1_555 1_555
H5_2 C8_2 1_555 1_555
H6_2 C8_2 1_555 1_555
C9_2 C10_2 1_555 1_555
C10_2 O7_2 1_555 1_555
O1_2 C1_2 1_555 1_555
O2_2 C1_2 1_555 1_555
O3_3 Zr1_2 1_555 1_555
O4_3 Zr1_2 1_555 1_555
O5_2 Zr1_2 1_555 1_555
O6_2 Zr1_2 1_555 1_555
C11_2 C12_2 1_555 1_555
C12_2 C13_2 1_555 1_555
C13_2 H7_2 1_555 1_555
C14_2 C13_2 1_555 1_555
C15_2 C5_2 1_555 1_555
C16_2 C15_2 1_555 1_555
H8_2 C16_2 1_555 1_555
C17_2 C12_2 1_555 1_555
H9_2 C17_2 1_555 1_555
C18_2 C14_2 1_555 1_555
H10_2 C18_2 1_555 1_555
H11_2 C18_2 1_555 1_555
H12_2 C18_2 1_555 1_555
O19 C11_2 1_555 1_555
O9_2 C11_2 1_555 1_555
O13_3 Zr1_2 1_555 1_555
Zr5 O9_2 1_555 1_555
Zr10_2 O4_3 1_555 1_555
O22_2 Zr1_2 1_555 1_555
O23_3 Zr1_2 1_555 1_555
Zr8_2 O3_3 1_555 1_555
Zr8_2 O13_3 1_555 1_555
C6_2 C7_2 1_555 1_555
C9_2 O6_2 1_555 1_555
C14_2 C15_2 1_555 1_555
C16_2 C17_2 1_555 1_555
Zr10_2 O23_3 1_555 1_555
Zr5_2 O12_2 1_555 1_555
O19_2 Zr8_3 1_555 1_555
O24_2 Zr8_3 1_555 1_555
O25_4 Zr8_3 1_555 1_555
O12_2 Zr10_3 1_555 1_555
Zr5_2 O24_2 1_555 1_555
Zr5_2 O25_4 1_555 1_555
O10_2 C19_2 1_555 1_555
O11_2 C20_2 1_555 1_555
Zr3_2 O4_4 1_555 1_555
O12_3 Zr3_2 1_555 1_555
O14_2 Zr3_2 1_555 1_555
C21_2 C22_2 1_555 1_555
C22_2 C23_2 1_555 1_555
C23_2 H13_2 1_555 1_555
C24_2 C23_2 1_555 1_555
C25_2 C24_2 1_555 1_555
C26_2 C25_2 1_555 1_555
H14_2 C26_2 1_555 1_555
C27_2 C22_2 1_555 1_555
H15_2 C27_2 1_555 1_555
C28_2 C24_2 1_555 1_555
H16_2 C28_2 1_555 1_555
H17_2 C28_2 1_555 1_555
H18_2 C28_2 1_555 1_555
O15_2 Zr8_4 1_555 1_555
O16_2 Zr3_2 1_555 1_555
C29_2 C30_2 1_555 1_555
C30_2 C31_2 1_555 1_555
C31_2 H19_2 1_555 1_555
C32_2 C31_2 1_555 1_555
C33_2 C25_2 1_555 1_555
C34_2 C33_2 1_555 1_555
H20_2 C34_2 1_555 1_555
C35_2 C30_2 1_555 1_555
H21_2 C35_2 1_555 1_555
C36_2 C32_2 1_555 1_555
H22_2 C36_2 1_555 1_555
H23_2 C36_2 1_555 1_555
H24_2 C36_2 1_555 1_555
O17_2 C29_2 1_555 1_555
O18_2 C29_2 1_555 1_555
Zr5 O18_2 1_555 1_555
Zr9_2 O17_2 1_555 1_555
Zr10_4 O4_4 1_555 1_555
O21_2 Zr3_2 1_555 1_555
O24_3 Zr8_4 1_555 1_555
Zr8_4 O13_4 1_555 1_555
C19_2 C20_2 1_555 1_555
O10_2 Zr3_2 1_555 1_555
Zr3_2 O13_4 1_555 1_555
Zr3_2 O24_3 1_555 1_555
O12_3 Zr10_4 1_555 1_555
C21_2 O15_2 1_555 1_555
C21_2 O16_2 1_555 1_555
C26_2 C27_2 1_555 1_555
C32_2 C33_2 1_555 1_555
C34_2 C35_2 1_555 1_555
C21_3 C22_3 1_555 1_555
C22_3 C23_3 1_555 1_555
C23_3 H13_3 1_555 1_555
C24_3 C23_3 1_555 1_555
C25_3 C24_3 1_555 1_555
C26_3 C25_3 1_555 1_555
H14_3 C26_3 1_555 1_555
C27_3 C22_3 1_555 1_555
H15_3 C27_3 1_555 1_555
C28_3 C24_3 1_555 1_555
H16_3 C28_3 1_555 1_555
H17_3 C28_3 1_555 1_555
H18_3 C28_3 1_555 1_555
O15_3 Zr9 1_555 1_555
C29_3 C30_3 1_555 1_555
C30_3 C31_3 1_555 1_555
C31_3 H19_3 1_555 1_555
C32_3 C31_3 1_555 1_555
C33_3 C25_3 1_555 1_555
C34_3 C33_3 1_555 1_555
H20_3 C34_3 1_555 1_555
C35_3 C30_3 1_555 1_555
H21_3 C35_3 1_555 1_555
C36_3 C32_3 1_555 1_555
H22_3 C36_3 1_555 1_555
H23_3 C36_3 1_555 1_555
H24_3 C36_3 1_555 1_555
O17_3 C29_3 1_555 1_555
O18_3 C29_3 1_555 1_555
Zr5_2 O18_3 1_555 1_555
Zr10_3 O17_3 1_555 1_555
O19_3 Zr9 1_555 1_555
O25_5 Zr9 1_555 1_555
C21_3 O15_3 1_555 1_555
C21_3 O22 1_555 1_555
C26_3 C27_3 1_555 1_555
C32_3 C33_3 1_555 1_555
C34_3 C35_3 1_555 1_555
Zr4 O25_5 1_555 1_555
Zr9_2 O1_3 1_555 1_555
C1_3 C2_3 1_555 1_555
C2_3 C3_3 1_555 1_555
C3_3 H1_3 1_555 1_555
C4_3 C3_3 1_555 1_555
C5_3 C4_3 1_555 1_555
C6_3 C5_3 1_555 1_555
H2_3 C6_3 1_555 1_555
C7_3 C2_3 1_555 1_555
H3_3 C7_3 1_555 1_555
C8_3 C4_3 1_555 1_555
H4_3 C8_3 1_555 1_555
H5_3 C8_3 1_555 1_555
H6_3 C8_3 1_555 1_555
O1_3 C1_3 1_555 1_555
O21 C1_3 1_555 1_555
C11_3 C12_3 1_555 1_555
C12_3 C13_3 1_555 1_555
C13_3 H7_3 1_555 1_555
C14_3 C13_3 1_555 1_555
C15_3 C5_3 1_555 1_555
C16_3 C15_3 1_555 1_555
H8_3 C16_3 1_555 1_555
C17_3 C12_3 1_555 1_555
H9_3 C17_3 1_555 1_555
C18_3 C14_3 1_555 1_555
H10_3 C18_3 1_555 1_555
H11_3 C18_3 1_555 1_555
H12_3 C18_3 1_555 1_555
O19_2 C11_3 1_555 1_555
O9_3 C11_3 1_555 1_555
Zr5_2 O9_3 1_555 1_555
O25_6 Zr9_2 1_555 1_555
C6_3 C7_3 1_555 1_555
C14_3 C15_3 1_555 1_555
C16_3 C17_3 1_555 1_555
Zr5 O25_6 1_555 1_555
O25_7 Zr10 1_555 1_555
Zr7 O25_7 1_555 1_555
C21_4 C22_4 1_555 1_555
C22_4 C23_4 1_555 1_555
C23_4 H13_4 1_555 1_555
C24_4 C23_4 1_555 1_555
C25_4 C24_4 1_555 1_555
C26_4 C25_4 1_555 1_555
H14_4 C26_4 1_555 1_555
C27_4 C22_4 1_555 1_555
H15_4 C27_4 1_555 1_555
C28_4 C24_4 1_555 1_555
H16_4 C28_4 1_555 1_555
H17_4 C28_4 1_555 1_555
H18_4 C28_4 1_555 1_555
O15_4 Zr10_2 1_555 1_555
C29_4 C30_4 1_555 1_555
C30_4 C31_4 1_555 1_555
C31_4 H19_4 1_555 1_555
C32_4 C31_4 1_555 1_555
C33_4 C25_4 1_555 1_555
C34_4 C33_4 1_555 1_555
H20_4 C34_4 1_555 1_555
C35_4 C30_4 1_555 1_555
H21_4 C35_4 1_555 1_555
C36_4 C32_4 1_555 1_555
H22_4 C36_4 1_555 1_555
H23_4 C36_4 1_555 1_555
H24_4 C36_4 1_555 1_555
O20 C29_4 1_555 1_555
O18_4 C29_4 1_555 1_555
Zr4 O18_4 1_555 1_555
C21_4 O15_4 1_555 1_555
C21_4 O22_2 1_555 1_555
C26_4 C27_4 1_555 1_555
C32_4 C33_4 1_555 1_555
C34_4 C35_4 1_555 1_555
O25_8 Zr10_3 1_555 1_555
Zr5_2 O25_8 1_555 1_555
Zr10_4 O1_4 1_555 1_555
C1_4 C2_4 1_555 1_555
C2_4 C3_4 1_555 1_555
C3_4 H1_4 1_555 1_555
C4_4 C3_4 1_555 1_555
C5_4 C4_4 1_555 1_555
C6_4 C5_4 1_555 1_555
H2_4 C6_4 1_555 1_555
C7_4 C2_4 1_555 1_555
H3_4 C7_4 1_555 1_555
C8_4 C4_4 1_555 1_555
H4_4 C8_4 1_555 1_555
H5_4 C8_4 1_555 1_555
H6_4 C8_4 1_555 1_555
O1_4 C1_4 1_555 1_555
O21_2 C1_4 1_555 1_555
C11_4 C12_4 1_555 1_555
C12_4 C13_4 1_555 1_555
C13_4 H7_4 1_555 1_555
C14_4 C13_4 1_555 1_555
C15_4 C5_4 1_555 1_555
C16_4 C15_4 1_555 1_555
H8_4 C16_4 1_555 1_555
C17_4 C12_4 1_555 1_555
H9_4 C17_4 1_555 1_555
C18_4 C14_4 1_555 1_555
H10_4 C18_4 1_555 1_555
H11_4 C18_4 1_555 1_555
H12_4 C18_4 1_555 1_555
O19_3 C11_4 1_555 1_555
O9_4 C11_4 1_555 1_555
Zr4 O9_4 1_555 1_555
C6_4 C7_4 1_555 1_555
C14_4 C15_4 1_555 1_555
C16_4 C17_4 1_555 1_555
C9_3 C10_3 1_555 1_555
C10_3 O7_3 1_555 1_555
O5_3 Zr4 1_555 1_555
O6_3 Zr4 1_555 1_555
C9_3 O6_3 1_555 1_555
O10_3 C19_3 1_555 1_555
O11_3 C20_3 1_555 1_555
O14_3 Zr5 1_555 1_555
C19_3 C20_3 1_555 1_555
O10_3 Zr5 1_555 1_555
C9_4 C10_4 1_555 1_555
C10_4 O7_4 1_555 1_555
O5_4 Zr7 1_555 1_555
O6_4 Zr7 1_555 1_555
C9_4 O6_4 1_555 1_555
O10_4 C19_4 1_555 1_555
O11_4 C20_4 1_555 1_555
O14_4 Zr5_2 1_555 1_555
C19_4 C20_4 1_555 1_555
O10_4 Zr5_2 1_555 1_555

#END
