
###############################################################################
#
# This file contains modified crystal structure data generated from the
# MOF subset of the Cambridge Structural Database (CSD) v543 
# hosted by the Cambridge Crystallographic Data Centre (CCDC).
#
# This work is licensed under the Creative Commons
# Attribution-NonCommercial-ShareAlike 4.0 International License.
# To view a copy of this license, visit
# http://creativecommons.org/licenses/by-nc-sa/4.0/
# or send a letter to
# Creative Commons, PO Box 1866, Mountain View, CA 94042, USA.
#
# CIF created using the CSD Python API on 29 September 2022
# The structure has been converted into the P1 space group
# The structure has a 3D framework
# The original CSD entry SELLED is in the tetragonal crystal system
# The framework has been calculated to contain at least 10.0% void space
# The void calculation uses a probe of radius 1.32A, grid spacing 0.4
#
###############################################################################

data_SELLED
_chemical_formula_moiety         '(C192 H96 O105 Zr21)n'
_symmetry_cell_setting           triclinic
_symmetry_space_group_name_H-M   'P 1'
_symmetry_Int_Tables_number      1
_space_group_name_Hall           'P 1'
loop_
_symmetry_equiv_pos_site_id
_symmetry_equiv_pos_as_xyz
1 x,y,z
_cell_length_a                   23.797(10)
_cell_length_b                   23.797
_cell_length_c                   16.355(8)
_cell_angle_alpha                90
_cell_angle_beta                 90
_cell_angle_gamma                90
_cell_volume                     9261.79
loop_
_atom_site_label
_atom_site_type_symbol
_atom_site_fract_x
_atom_site_fract_y
_atom_site_fract_z
Zr10 Zr -0.0000 0.57364(3) 0.89281(5)
Zr2 Zr 0.42636(3) -0.0000 0.60719(5)
C9 C 0.4706(4) -0.0000 0.7879(13)
C10 C 0.4696(4) -0.0000 0.8736(14)
C11 C 0.3033(9) -0.0000 0.5431(6)
C12 C 0.2428(9) -0.0000 0.5433(6)
O5 O 0.4317(4) -0.0000 0.7396(6)
O6 O 0.4187(8) -0.0000 0.9272(13)
O7 O 0.3348(4) -0.0000 0.6023(5)
O8 O 0.2181(8) -0.0000 0.6082(11)
C21 C 0.5294(4) -0.0000 0.7879(13)
C22 C 0.5304(4) -0.0000 0.8736(14)
O11 O 0.5683(4) -0.0000 0.7396(6)
O12 O 0.5813(8) -0.0000 0.9272(13)
C23 C 0.3033(9) -0.0000 0.4569(6)
C24 C 0.2428(9) -0.0000 0.4567(6)
O13 O 0.3348(4) -0.0000 0.3977(5)
O14 O 0.2181(8) -0.0000 0.3918(11)
Zr3 Zr 0.57364(3) -0.0000 0.60719(5)
O15 O 0.5000 0.0504(3) 0.6054(5)
O16 O 0.4259(3) 0.0504(3) 0.5000
Zr5 Zr 0.5000 0.10260(4) 0.5000
Zr7 Zr 0.42636(3) -0.0000 0.39281(5)
Zr8 Zr 0.57364(3) -0.0000 0.39281(5)
O22 O 0.5741(3) 0.0504(3) 0.5000
O26 O 0.39668(19) 0.08459(17) 0.6501(3)
O27 O 0.60332(19) 0.08459(17) 0.6501(3)
O28 O 0.6652(4) -0.0000 0.6023(5)
Zr4 Zr 0.10260(4) 0.5000 0.0000
Zr6 Zr 0.89740(4) 0.5000 0.0000
Zr1 Zr 0.5000 0.89740(4) 0.5000
Zr2_2 Zr 0.42636(3) 1.0000 0.60719(5)
C1 C 0.5936(3) 0.8651(2) 0.6285(4)
C2 C 0.6303(3) 0.8227(3) 0.6662(5)
C3 C 0.6292(3) 0.7684(3) 0.6386(6)
H1 H 0.6034 0.7587 0.5965
C4 C 0.6648(4) 0.7262(3) 0.6700(7)
C5 C 0.7011(3) 0.7421(3) 0.7329(6)
C6 C 0.7019(4) 0.7966(4) 0.7597(7)
H2 H 0.7270 0.8070 0.8023
C7 C 0.6673(3) 0.8364(3) 0.7263(6)
H3 H 0.6692 0.8740 0.7453
C8 C 0.6672(8) 0.6667(5) 0.6320(10)
H4 H 0.6450 0.6407 0.6655
H5 H 0.7063 0.6539 0.6301
H6 H 0.6518 0.6678 0.5765
C9_2 C 0.4706(4) 1.0000 0.7879(13)
C10_2 C 0.4696(4) 1.0000 0.8736(14)
C11_2 C 0.3033(9) 1.0000 0.5431(6)
C12_2 C 0.2428(9) 1.0000 0.5433(6)
O1 O 0.5000 0.9496(3) 0.6054(5)
O2 O 0.5741(3) 0.9496(3) 0.5000
O3 O 0.55556(16) 0.84988(15) 0.5803(3)
O4 O 0.60332(19) 0.91541(17) 0.6501(3)
O5_2 O 0.4317(4) 1.0000 0.7396(6)
O6_2 O 0.4187(8) 1.0000 0.9272(13)
O7_2 O 0.3348(4) 1.0000 0.6023(5)
O8_2 O 0.2181(8) 1.0000 0.6082(11)
C13 C 0.8651(2) 0.5936(3) 0.8715(4)
C14 C 0.8227(3) 0.6303(3) 0.8338(5)
C15 C 0.7684(3) 0.6292(3) 0.8614(6)
H7 H 0.7587 0.6034 0.9035
C16 C 0.7262(3) 0.6648(4) 0.8300(7)
C17 C 0.7421(3) 0.7011(3) 0.7671(6)
C18 C 0.7966(4) 0.7019(4) 0.7403(7)
H8 H 0.8070 0.7270 0.6977
C19 C 0.8364(3) 0.6673(3) 0.7737(6)
H9 H 0.8740 0.6692 0.7547
C20 C 0.6667(5) 0.6672(8) 0.8680(10)
H10 H 0.6407 0.6450 0.8345
H11 H 0.6539 0.7063 0.8699
H12 H 0.6678 0.6518 0.9235
O9 O 0.84988(15) 0.55556(16) 0.9197(3)
O10 O 0.91541(17) 0.60332(19) 0.8499(3)
C21_2 C 0.5294(4) 1.0000 0.7879(13)
C22_2 C 0.5304(4) 1.0000 0.8736(14)
O11_2 O 0.5683(4) 1.0000 0.7396(6)
O12_2 O 0.5813(8) 1.0000 0.9272(13)
C23_2 C 0.3033(9) 1.0000 0.4569(6)
C24_2 C 0.2428(9) 1.0000 0.4567(6)
O13_2 O 0.3348(4) 1.0000 0.3977(5)
O14_2 O 0.2181(8) 1.0000 0.3918(11)
Zr3_2 Zr 0.57364(3) 1.0000 0.60719(5)
C25 C 0.4064(3) 0.8651(2) 0.6285(4)
C26 C 0.3697(3) 0.8227(3) 0.6662(5)
C27 C 0.3708(3) 0.7684(3) 0.6386(6)
H13 H 0.3966 0.7587 0.5965
C28 C 0.3352(4) 0.7262(3) 0.6700(7)
C29 C 0.2989(3) 0.7421(3) 0.7329(6)
C30 C 0.2981(4) 0.7966(4) 0.7597(7)
H14 H 0.2730 0.8070 0.8023
C31 C 0.3327(3) 0.8364(3) 0.7263(6)
H15 H 0.3308 0.8740 0.7453
C32 C 0.3328(8) 0.6667(5) 0.6320(10)
H16 H 0.3550 0.6407 0.6655
H17 H 0.2937 0.6539 0.6301
H18 H 0.3482 0.6678 0.5765
O17 O 0.44444(16) 0.84988(15) 0.5803(3)
O18 O 0.39668(19) 0.91541(17) 0.6501(3)
C33 C 0.1349(2) 0.5936(3) 0.8715(4)
C34 C 0.1773(3) 0.6303(3) 0.8338(5)
C35 C 0.2316(3) 0.6292(3) 0.8614(6)
H19 H 0.2413 0.6034 0.9035
C36 C 0.2738(3) 0.6648(4) 0.8300(7)
C37 C 0.2579(3) 0.7011(3) 0.7671(6)
C38 C 0.2034(4) 0.7019(4) 0.7403(7)
H20 H 0.1930 0.7270 0.6977
C39 C 0.1636(3) 0.6673(3) 0.7737(6)
H21 H 0.1260 0.6692 0.7547
C40 C 0.3333(5) 0.6672(8) 0.8680(10)
H22 H 0.3593 0.6450 0.8345
H23 H 0.3461 0.7063 0.8699
H24 H 0.3322 0.6518 0.9235
O19 O 0.15012(15) 0.55556(16) 0.9197(3)
O20 O 0.08459(17) 0.60332(19) 0.8499(3)
Zr4_2 Zr 0.10260(4) 0.5000 1.0000
Zr6_2 Zr 0.89740(4) 0.5000 1.0000
Zr7_2 Zr 0.42636(3) 1.0000 0.39281(5)
Zr8_2 Zr 0.57364(3) 1.0000 0.39281(5)
Zr10_2 Zr 1.0000 0.57364(3) 0.89281(5)
O21 O 0.5000 0.9496(3) 0.3946(5)
O23 O 0.4259(3) 0.9496(3) 0.5000
O24 O 0.44444(16) 0.84988(15) 0.4197(3)
O25 O 0.55556(16) 0.84988(15) 0.4197(3)
O28_2 O 0.6652(4) 1.0000 0.6023(5)
Zr2_3 Zr 0.0000 0.42636(3) 0.10719(5)
C1_2 C 0.1349(2) 0.5936(3) 0.1285(4)
C2_2 C 0.1773(3) 0.6303(3) 0.1662(5)
C3_2 C 0.2316(3) 0.6292(3) 0.1386(6)
H1_2 H 0.2413 0.6034 0.0965
C4_2 C 0.2738(3) 0.6648(4) 0.1700(7)
C5_2 C 0.2579(3) 0.7011(3) 0.2329(6)
C6_2 C 0.2034(4) 0.7019(4) 0.2597(7)
H2_2 H 0.1930 0.7270 0.3023
C7_2 C 0.1636(3) 0.6673(3) 0.2263(6)
H3_2 H 0.1260 0.6692 0.2453
C8_2 C 0.3333(5) 0.6672(8) 0.1320(10)
H4_2 H 0.3593 0.6450 0.1655
H5_2 H 0.3461 0.7063 0.1301
H6_2 H 0.3322 0.6518 0.0765
C9_3 C 0.0000 0.4706(4) 0.2879(13)
C10_3 C 0.0000 0.4696(4) 0.3736(14)
C11_3 C 0.0000 0.3033(9) 0.0431(6)
C12_3 C 0.0000 0.2428(9) 0.0433(6)
O1_2 O 0.0504(3) 0.5000 0.1054(5)
O2_2 O 0.0504(3) 0.5741(3) 0.0000
O3_2 O 0.15012(15) 0.55556(16) 0.0803(3)
O4_2 O 0.08459(17) 0.60332(19) 0.1501(3)
O5_3 O 0.0000 0.4317(4) 0.2396(6)
O6_3 O 0.0000 0.4187(8) 0.4272(13)
O7_3 O 0.0000 0.3348(4) 0.1023(5)
O8_3 O 0.0000 0.2181(8) 0.1082(11)
C13_2 C 0.4064(3) 0.8651(2) 0.3715(4)
C14_2 C 0.3697(3) 0.8227(3) 0.3338(5)
C15_2 C 0.3708(3) 0.7684(3) 0.3614(6)
H7_2 H 0.3966 0.7587 0.4035
C16_2 C 0.3352(4) 0.7262(3) 0.3300(7)
C17_2 C 0.2989(3) 0.7421(3) 0.2671(6)
C18_2 C 0.2981(4) 0.7966(4) 0.2403(7)
H8_2 H 0.2730 0.8070 0.1977
C19_2 C 0.3327(3) 0.8364(3) 0.2737(6)
H9_2 H 0.3308 0.8740 0.2547
C20_2 C 0.3328(8) 0.6667(5) 0.3680(10)
H10_2 H 0.3550 0.6407 0.3345
H11_2 H 0.2937 0.6539 0.3699
H12_2 H 0.3482 0.6678 0.4235
O10_2 O 0.39668(19) 0.91541(17) 0.3499(3)
C21_3 C 0.0000 0.5294(4) 0.2879(13)
C22_3 C 0.0000 0.5304(4) 0.3736(14)
O11_3 O 0.0000 0.5683(4) 0.2396(6)
O12_3 O 0.0000 0.5813(8) 0.4272(13)
Zr3_3 Zr 0.0000 0.57364(3) 0.10719(5)
C25_2 C 0.1349(2) 0.4064(3) 0.1285(4)
C26_2 C 0.1773(3) 0.3697(3) 0.1662(5)
C27_2 C 0.2316(3) 0.3708(3) 0.1386(6)
H13_2 H 0.2413 0.3966 0.0965
C28_2 C 0.2738(3) 0.3352(4) 0.1700(7)
C29_2 C 0.2579(3) 0.2989(3) 0.2329(6)
C30_2 C 0.2034(4) 0.2981(4) 0.2597(7)
H14_2 H 0.1930 0.2730 0.3023
C31_2 C 0.1636(3) 0.3327(3) 0.2263(6)
H15_2 H 0.1260 0.3308 0.2453
C32_2 C 0.3333(5) 0.3328(8) 0.1320(10)
H16_2 H 0.3593 0.3550 0.1655
H17_2 H 0.3461 0.2937 0.1301
H18_2 H 0.3322 0.3482 0.0765
O17_2 O 0.15012(15) 0.44444(16) 0.0803(3)
O18_2 O 0.08459(17) 0.39668(19) 0.1501(3)
C33_2 C 0.4064(3) 0.1349(2) 0.3715(4)
C34_2 C 0.3697(3) 0.1773(3) 0.3338(5)
C35_2 C 0.3708(3) 0.2316(3) 0.3614(6)
H19_2 H 0.3966 0.2413 0.4035
C36_2 C 0.3352(4) 0.2738(3) 0.3300(7)
C37_2 C 0.2989(3) 0.2579(3) 0.2671(6)
C38_2 C 0.2981(4) 0.2034(4) 0.2403(7)
H20_2 H 0.2730 0.1930 0.1977
C39_2 C 0.3327(3) 0.1636(3) 0.2737(6)
H21_2 H 0.3308 0.1260 0.2547
C40_2 C 0.3328(8) 0.3333(5) 0.3680(10)
H22_2 H 0.3550 0.3593 0.3345
H23_2 H 0.2937 0.3461 0.3699
H24_2 H 0.3482 0.3322 0.4235
O19_2 O 0.44444(16) 0.15012(15) 0.4197(3)
O20_2 O 0.39668(19) 0.08459(17) 0.3499(3)
O23_2 O 0.0504(3) 0.4259(3) 0.0000
O28_3 O 0.0000 0.6652(4) 0.1023(5)
O2_3 O 0.0504(3) 0.5741(3) 1.0000
C23_3 C 0.0000 0.3033(9) 0.9569(6)
C24_3 C 0.0000 0.2428(9) 0.9567(6)
O13_3 O 0.0000 0.3348(4) 0.8977(5)
O14_3 O 0.0000 0.2181(8) 0.8918(11)
Zr7_3 Zr 0.0000 0.42636(3) 0.89281(5)
O21_2 O 0.0504(3) 0.5000 0.8946(5)
O23_3 O 0.0504(3) 0.4259(3) 1.0000
O24_2 O 0.15012(15) 0.44444(16) 0.9197(3)
Zr2_4 Zr 1.0000 0.42636(3) 0.10719(5)
C9_4 C 1.0000 0.4706(4) 0.2879(13)
C10_4 C 1.0000 0.4696(4) 0.3736(14)
C11_4 C 1.0000 0.3033(9) 0.0431(6)
C12_4 C 1.0000 0.2428(9) 0.0433(6)
O5_4 O 1.0000 0.4317(4) 0.2396(6)
O6_4 O 1.0000 0.4187(8) 0.4272(13)
O7_4 O 1.0000 0.3348(4) 0.1023(5)
O8_4 O 1.0000 0.2181(8) 0.1082(11)
C21_4 C 1.0000 0.5294(4) 0.2879(13)
C22_4 C 1.0000 0.5304(4) 0.3736(14)
O11_4 O 1.0000 0.5683(4) 0.2396(6)
O12_4 O 1.0000 0.5813(8) 0.4272(13)
Zr3_4 Zr 1.0000 0.57364(3) 0.10719(5)
O15_2 O 0.9496(3) 0.5000 0.1054(5)
O16_2 O 0.9496(3) 0.4259(3) 0.0000
O22_2 O 0.9496(3) 0.5741(3) 0.0000
O26_2 O 0.91541(17) 0.39668(19) 0.1501(3)
O27_2 O 0.91541(17) 0.60332(19) 0.1501(3)
O28_4 O 1.0000 0.6652(4) 0.1023(5)
C23_4 C 1.0000 0.3033(9) 0.9569(6)
C24_4 C 1.0000 0.2428(9) 0.9567(6)
O13_4 O 1.0000 0.3348(4) 0.8977(5)
O14_4 O 1.0000 0.2181(8) 0.8918(11)
O16_3 O 0.9496(3) 0.4259(3) 1.0000
Zr7_4 Zr 1.0000 0.42636(3) 0.89281(5)
O22_3 O 0.9496(3) 0.5741(3) 1.0000
C1_3 C 0.4064(3) 0.1349(2) 0.6285(4)
C2_3 C 0.3697(3) 0.1773(3) 0.6662(5)
C3_3 C 0.3708(3) 0.2316(3) 0.6386(6)
H1_3 H 0.3966 0.2413 0.5965
C4_3 C 0.3352(4) 0.2738(3) 0.6700(7)
C5_3 C 0.2989(3) 0.2579(3) 0.7329(6)
C6_3 C 0.2981(4) 0.2034(4) 0.7597(7)
H2_3 H 0.2730 0.1930 0.8023
C7_3 C 0.3327(3) 0.1636(3) 0.7263(6)
H3_3 H 0.3308 0.1260 0.7453
C8_3 C 0.3328(8) 0.3333(5) 0.6320(10)
H4_3 H 0.3550 0.3593 0.6655
H5_3 H 0.2937 0.3461 0.6301
H6_3 H 0.3482 0.3322 0.5765
C11_5 C 0.6967(9) 0.0000 0.5431(6)
C12_5 C 0.7572(9) 0.0000 0.5433(6)
O3_3 O 0.44444(16) 0.15012(15) 0.5803(3)
O8_5 O 0.7819(8) 0.0000 0.6082(11)
C13_3 C 0.1349(2) 0.4064(3) 0.8715(4)
C14_3 C 0.1773(3) 0.3697(3) 0.8338(5)
C15_3 C 0.2316(3) 0.3708(3) 0.8614(6)
H7_3 H 0.2413 0.3966 0.9035
C16_3 C 0.2738(3) 0.3352(4) 0.8300(7)
C17_3 C 0.2579(3) 0.2989(3) 0.7671(6)
C18_3 C 0.2034(4) 0.2981(4) 0.7403(7)
H8_3 H 0.1930 0.2730 0.6977
C19_3 C 0.1636(3) 0.3327(3) 0.7737(6)
H9_3 H 0.1260 0.3308 0.7547
C20_3 C 0.3333(5) 0.3328(8) 0.8680(10)
H10_3 H 0.3593 0.3550 0.8345
H11_3 H 0.3461 0.2937 0.8699
H12_3 H 0.3322 0.3482 0.9235
O10_3 O 0.08459(17) 0.39668(19) 0.8499(3)
C23_5 C 0.6967(9) 0.0000 0.4569(6)
C24_5 C 0.7572(9) 0.0000 0.4567(6)
O13_5 O 0.6652(4) 0.0000 0.3977(5)
O14_5 O 0.7819(8) 0.0000 0.3918(11)
C25_3 C 0.5936(3) 0.1349(2) 0.6285(4)
C26_3 C 0.6303(3) 0.1773(3) 0.6662(5)
C27_3 C 0.6292(3) 0.2316(3) 0.6386(6)
H13_3 H 0.6034 0.2413 0.5965
C28_3 C 0.6648(4) 0.2738(3) 0.6700(7)
C29_3 C 0.7011(3) 0.2579(3) 0.7329(6)
C30_3 C 0.7019(4) 0.2034(4) 0.7597(7)
H14_3 H 0.7270 0.1930 0.8023
C31_3 C 0.6673(3) 0.1636(3) 0.7263(6)
H15_3 H 0.6692 0.1260 0.7453
C32_3 C 0.6672(8) 0.3333(5) 0.6320(10)
H16_3 H 0.6450 0.3593 0.6655
H17_3 H 0.7063 0.3461 0.6301
H18_3 H 0.6518 0.3322 0.5765
O17_3 O 0.55556(16) 0.15012(15) 0.5803(3)
C33_3 C 0.8651(2) 0.4064(3) 0.8715(4)
C34_3 C 0.8227(3) 0.3697(3) 0.8338(5)
C35_3 C 0.7684(3) 0.3708(3) 0.8614(6)
H19_3 H 0.7587 0.3966 0.9035
C36_3 C 0.7262(3) 0.3352(4) 0.8300(7)
C37_3 C 0.7421(3) 0.2989(3) 0.7671(6)
C38_3 C 0.7966(4) 0.2981(4) 0.7403(7)
H20_3 H 0.8070 0.2730 0.6977
C39_3 C 0.8364(3) 0.3327(3) 0.7737(6)
H21_3 H 0.8740 0.3308 0.7547
C40_3 C 0.6667(5) 0.3328(8) 0.8680(10)
H22_3 H 0.6407 0.3550 0.8345
H23_3 H 0.6539 0.2937 0.8699
H24_3 H 0.6678 0.3482 0.9235
O19_3 O 0.84988(15) 0.44444(16) 0.9197(3)
O20_3 O 0.91541(17) 0.39668(19) 0.8499(3)
O21_3 O 0.5000 0.0504(3) 0.3946(5)
O24_3 O 0.55556(16) 0.15012(15) 0.4197(3)
C11_6 C 0.6967(9) 1.0000 0.5431(6)
C12_6 C 0.7572(9) 1.0000 0.5433(6)
O8_6 O 0.7819(8) 1.0000 0.6082(11)
C23_6 C 0.6967(9) 1.0000 0.4569(6)
C24_6 C 0.7572(9) 1.0000 0.4567(6)
O13_6 O 0.6652(4) 1.0000 0.3977(5)
O14_6 O 0.7819(8) 1.0000 0.3918(11)
C11_7 C -0.0000 0.6967(9) 0.0431(6)
C12_7 C -0.0000 0.7572(9) 0.0433(6)
O8_7 O -0.0000 0.7819(8) 0.1082(11)
C23_7 C -0.0000 0.6967(9) 0.9569(6)
C24_7 C -0.0000 0.7572(9) 0.9567(6)
O13_7 O -0.0000 0.6652(4) 0.8977(5)
O14_7 O -0.0000 0.7819(8) 0.8918(11)
C1_4 C 0.8651(2) 0.4064(3) 0.1285(4)
C2_4 C 0.8227(3) 0.3697(3) 0.1662(5)
C3_4 C 0.7684(3) 0.3708(3) 0.1386(6)
H1_4 H 0.7587 0.3966 0.0965
C4_4 C 0.7262(3) 0.3352(4) 0.1700(7)
C5_4 C 0.7421(3) 0.2989(3) 0.2329(6)
C6_4 C 0.7966(4) 0.2981(4) 0.2597(7)
H2_4 H 0.8070 0.2730 0.3023
C7_4 C 0.8364(3) 0.3327(3) 0.2263(6)
H3_4 H 0.8740 0.3308 0.2453
C8_4 C 0.6667(5) 0.3328(8) 0.1320(10)
H4_4 H 0.6407 0.3550 0.1655
H5_4 H 0.6539 0.2937 0.1301
H6_4 H 0.6678 0.3482 0.0765
C11_8 C 1.0000 0.6967(9) 0.0431(6)
C12_8 C 1.0000 0.7572(9) 0.0433(6)
O3_4 O 0.84988(15) 0.44444(16) 0.0803(3)
O8_8 O 1.0000 0.7819(8) 0.1082(11)
C13_4 C 0.5936(3) 0.1349(2) 0.3715(4)
C14_4 C 0.6303(3) 0.1773(3) 0.3338(5)
C15_4 C 0.6292(3) 0.2316(3) 0.3614(6)
H7_4 H 0.6034 0.2413 0.4035
C16_4 C 0.6648(4) 0.2738(3) 0.3300(7)
C17_4 C 0.7011(3) 0.2579(3) 0.2671(6)
C18_4 C 0.7019(4) 0.2034(4) 0.2403(7)
H8_4 H 0.7270 0.1930 0.1977
C19_4 C 0.6673(3) 0.1636(3) 0.2737(6)
H9_4 H 0.6692 0.1260 0.2547
C20_4 C 0.6672(8) 0.3333(5) 0.3680(10)
H10_4 H 0.6450 0.3593 0.3345
H11_4 H 0.7063 0.3461 0.3699
H12_4 H 0.6518 0.3322 0.4235
O10_4 O 0.60332(19) 0.08459(17) 0.3499(3)
C25_4 C 0.8651(2) 0.5936(3) 0.1285(4)
C26_4 C 0.8227(3) 0.6303(3) 0.1662(5)
C27_4 C 0.7684(3) 0.6292(3) 0.1386(6)
H13_4 H 0.7587 0.6034 0.0965
C28_4 C 0.7262(3) 0.6648(4) 0.1700(7)
C29_4 C 0.7421(3) 0.7011(3) 0.2329(6)
C30_4 C 0.7966(4) 0.7019(4) 0.2597(7)
H14_4 H 0.8070 0.7270 0.3023
C31_4 C 0.8364(3) 0.6673(3) 0.2263(6)
H15_4 H 0.8740 0.6692 0.2453
C32_4 C 0.6667(5) 0.6672(8) 0.1320(10)
H16_4 H 0.6407 0.6450 0.1655
H17_4 H 0.6539 0.7063 0.1301
H18_4 H 0.6678 0.6518 0.0765
O17_4 O 0.84988(15) 0.55556(16) 0.0803(3)
C33_4 C 0.5936(3) 0.8651(2) 0.3715(4)
C34_4 C 0.6303(3) 0.8227(3) 0.3338(5)
C35_4 C 0.6292(3) 0.7684(3) 0.3614(6)
H19_4 H 0.6034 0.7587 0.4035
C36_4 C 0.6648(4) 0.7262(3) 0.3300(7)
C37_4 C 0.7011(3) 0.7421(3) 0.2671(6)
C38_4 C 0.7019(4) 0.7966(4) 0.2403(7)
H20_4 H 0.7270 0.8070 0.1977
C39_4 C 0.6673(3) 0.8364(3) 0.2737(6)
H21_4 H 0.6692 0.8740 0.2547
C40_4 C 0.6672(8) 0.6667(5) 0.3680(10)
H22_4 H 0.6450 0.6407 0.3345
H23_4 H 0.7063 0.6539 0.3699
H24_4 H 0.6518 0.6678 0.4235
O20_4 O 0.60332(19) 0.91541(17) 0.3499(3)
C23_8 C 1.0000 0.6967(9) 0.9569(6)
C24_8 C 1.0000 0.7572(9) 0.9567(6)
O13_8 O 1.0000 0.6652(4) 0.8977(5)
O14_8 O 1.0000 0.7819(8) 0.8918(11)
O21_4 O 0.9496(3) 0.5000 0.8946(5)
C9_5 C 0.4706(4) 0.0000 0.2121(13)
C10_5 C 0.4696(4) 0.0000 0.1264(14)
O5_5 O 0.4317(4) 0.0000 0.2604(6)
O6_5 O 0.4187(8) 0.0000 0.0728(13)
C21_5 C 0.5294(4) 0.0000 0.2121(13)
C22_5 C 0.5304(4) 0.0000 0.1264(14)
O11_5 O 0.5683(4) 0.0000 0.2604(6)
O12_5 O 0.5813(8) 0.0000 0.0728(13)
C9_6 C 0.4706(4) 1.0000 0.2121(13)
C10_6 C 0.4696(4) 1.0000 0.1264(14)
O5_6 O 0.4317(4) 1.0000 0.2604(6)
O6_6 O 0.4187(8) 1.0000 0.0728(13)
C21_6 C 0.5294(4) 1.0000 0.2121(13)
C22_6 C 0.5304(4) 1.0000 0.1264(14)
O11_6 O 0.5683(4) 1.0000 0.2604(6)
O12_6 O 0.5813(8) 1.0000 0.0728(13)
C9_7 C -0.0000 0.4706(4) 0.7121(13)
C10_7 C -0.0000 0.4696(4) 0.6264(14)
O5_7 O -0.0000 0.4317(4) 0.7604(6)
O6_7 O -0.0000 0.4187(8) 0.5728(13)
C21_7 C -0.0000 0.5294(4) 0.7121(13)
C22_7 C -0.0000 0.5304(4) 0.6264(14)
O11_7 O -0.0000 0.5683(4) 0.7604(6)
O12_7 O -0.0000 0.5813(8) 0.5728(13)
C9_8 C 1.0000 0.4706(4) 0.7121(13)
C10_8 C 1.0000 0.4696(4) 0.6264(14)
O5_8 O 1.0000 0.4317(4) 0.7604(6)
O6_8 O 1.0000 0.4187(8) 0.5728(13)
C21_8 C 1.0000 0.5294(4) 0.7121(13)
C22_8 C 1.0000 0.5304(4) 0.6264(14)
O11_8 O 1.0000 0.5683(4) 0.7604(6)
O12_8 O 1.0000 0.5813(8) 0.5728(13)
loop_
_geom_bond_atom_site_label_1
_geom_bond_atom_site_label_2
_geom_bond_site_symmetry_1
_geom_bond_site_symmetry_2
C9 C10 1_555 1_555
C10 O6 1_555 1_555
C11 C12 1_555 1_555
C12 O8 1_555 1_555
O5 Zr2 1_555 1_555
O7 Zr2 1_555 1_555
C21 C9 1_555 1_555
C22 C10 1_555 1_555
O11 C21 1_555 1_555
O12 C22 1_555 1_555
C23 C11 1_555 1_555
C24 C12 1_555 1_555
O13 C23 1_555 1_555
O14 C24 1_555 1_555
O15 Zr2 1_555 1_555
O16 Zr2 1_555 1_555
Zr5 O15 1_555 1_555
Zr7 O13 1_555 1_555
O22 Zr3 1_555 1_555
O26 Zr2 1_555 1_555
O27 Zr3 1_555 1_555
O28 Zr3 1_555 1_555
C9 O5 1_555 1_555
C11 O7 1_555 1_555
C21 C22 1_555 1_555
O11 Zr3 1_555 1_555
C23 C24 1_555 1_555
Zr3 O15 1_555 1_555
O16 Zr5 1_555 1_555
O16 Zr7 1_555 1_555
Zr5 O22 1_555 1_555
Zr8 O22 1_555 1_555
Zr1 O1 1_555 1_555
Zr2_2 O1 1_555 1_555
C1 C2 1_555 1_555
C2 C3 1_555 1_555
C3 H1 1_555 1_555
C4 C3 1_555 1_555
C5 C4 1_555 1_555
C6 C5 1_555 1_555
H2 C6 1_555 1_555
C7 C2 1_555 1_555
H3 C7 1_555 1_555
C8 C4 1_555 1_555
H4 C8 1_555 1_555
H5 C8 1_555 1_555
H6 C8 1_555 1_555
C9_2 C10_2 1_555 1_555
C10_2 O6_2 1_555 1_555
C11_2 C12_2 1_555 1_555
C12_2 O8_2 1_555 1_555
O1 Zr3_2 1_555 1_555
O2 Zr1 1_555 1_555
O3 Zr1 1_555 1_555
O4 C1 1_555 1_555
O5_2 Zr2_2 1_555 1_555
O7_2 Zr2_2 1_555 1_555
C13 C14 1_555 1_555
C14 C15 1_555 1_555
C15 H7 1_555 1_555
C16 C15 1_555 1_555
C17 C5 1_555 1_555
C18 C17 1_555 1_555
H8 C18 1_555 1_555
C19 C14 1_555 1_555
H9 C19 1_555 1_555
C20 C16 1_555 1_555
H10 C20 1_555 1_555
H11 C20 1_555 1_555
H12 C20 1_555 1_555
O9 C13 1_555 1_555
O10 C13 1_555 1_555
C21_2 C9_2 1_555 1_555
C22_2 C10_2 1_555 1_555
O11_2 C21_2 1_555 1_555
O12_2 C22_2 1_555 1_555
C23_2 C11_2 1_555 1_555
C24_2 C12_2 1_555 1_555
O13_2 C23_2 1_555 1_555
O14_2 C24_2 1_555 1_555
Zr3_2 O2 1_555 1_555
C25 C26 1_555 1_555
C26 C27 1_555 1_555
C27 H13 1_555 1_555
C28 C27 1_555 1_555
C29 C28 1_555 1_555
C30 C29 1_555 1_555
H14 C30 1_555 1_555
C31 C26 1_555 1_555
H15 C31 1_555 1_555
C32 C28 1_555 1_555
H16 C32 1_555 1_555
H17 C32 1_555 1_555
H18 C32 1_555 1_555
O17 Zr1 1_555 1_555
O18 Zr2_2 1_555 1_555
C33 C34 1_555 1_555
C34 C35 1_555 1_555
C35 H19 1_555 1_555
C36 C35 1_555 1_555
C37 C29 1_555 1_555
C38 C37 1_555 1_555
H20 C38 1_555 1_555
C39 C34 1_555 1_555
H21 C39 1_555 1_555
C40 C36 1_555 1_555
H22 C40 1_555 1_555
H23 C40 1_555 1_555
H24 C40 1_555 1_555
O19 C33 1_555 1_555
O20 C33 1_555 1_555
Zr4_2 O19 1_555 1_555
Zr6_2 O9 1_555 1_555
Zr7_2 O13_2 1_555 1_555
Zr8_2 O2 1_555 1_555
Zr10 O20 1_555 1_555
Zr10_2 O10 1_555 1_555
O21 Zr1 1_555 1_555
O23 Zr1 1_555 1_555
O24 Zr1 1_555 1_555
O25 Zr1 1_555 1_555
O28_2 Zr3_2 1_555 1_555
Zr2_2 O23 1_555 1_555
C1 O3 1_555 1_555
C6 C7 1_555 1_555
C9_2 O5_2 1_555 1_555
C11_2 O7_2 1_555 1_555
O4 Zr3_2 1_555 1_555
C16 C17 1_555 1_555
C18 C19 1_555 1_555
C21_2 C22_2 1_555 1_555
O11_2 Zr3_2 1_555 1_555
C23_2 C24_2 1_555 1_555
C25 O17 1_555 1_555
C25 O18 1_555 1_555
C30 C31 1_555 1_555
C36 C37 1_555 1_555
C38 C39 1_555 1_555
Zr7_2 O21 1_555 1_555
Zr7_2 O23 1_555 1_555
Zr8_2 O21 1_555 1_555
Zr4 O1_2 1_555 1_555
Zr2_3 O1_2 1_555 1_555
C1_2 C2_2 1_555 1_555
C2_2 C3_2 1_555 1_555
C3_2 H1_2 1_555 1_555
C4_2 C3_2 1_555 1_555
C5_2 C4_2 1_555 1_555
C6_2 C5_2 1_555 1_555
H2_2 C6_2 1_555 1_555
C7_2 C2_2 1_555 1_555
H3_2 C7_2 1_555 1_555
C8_2 C4_2 1_555 1_555
H4_2 C8_2 1_555 1_555
H5_2 C8_2 1_555 1_555
H6_2 C8_2 1_555 1_555
C9_3 C10_3 1_555 1_555
C10_3 O6_3 1_555 1_555
C11_3 C12_3 1_555 1_555
C12_3 O8_3 1_555 1_555
O1_2 Zr3_3 1_555 1_555
O2_2 Zr4 1_555 1_555
O3_2 Zr4 1_555 1_555
O4_2 C1_2 1_555 1_555
O5_3 Zr2_3 1_555 1_555
O7_3 Zr2_3 1_555 1_555
C13_2 C14_2 1_555 1_555
C14_2 C15_2 1_555 1_555
C15_2 H7_2 1_555 1_555
C16_2 C15_2 1_555 1_555
C17_2 C5_2 1_555 1_555
C18_2 C17_2 1_555 1_555
H8_2 C18_2 1_555 1_555
C19_2 C14_2 1_555 1_555
H9_2 C19_2 1_555 1_555
C20_2 C16_2 1_555 1_555
H10_2 C20_2 1_555 1_555
H11_2 C20_2 1_555 1_555
H12_2 C20_2 1_555 1_555
O24 C13_2 1_555 1_555
O10_2 C13_2 1_555 1_555
C21_3 C9_3 1_555 1_555
C22_3 C10_3 1_555 1_555
O11_3 C21_3 1_555 1_555
O12_3 C22_3 1_555 1_555
Zr3_3 O2_2 1_555 1_555
C25_2 C26_2 1_555 1_555
C26_2 C27_2 1_555 1_555
C27_2 H13_2 1_555 1_555
C28_2 C27_2 1_555 1_555
C29_2 C28_2 1_555 1_555
C30_2 C29_2 1_555 1_555
H14_2 C30_2 1_555 1_555
C31_2 C26_2 1_555 1_555
H15_2 C31_2 1_555 1_555
C32_2 C28_2 1_555 1_555
H16_2 C32_2 1_555 1_555
H17_2 C32_2 1_555 1_555
H18_2 C32_2 1_555 1_555
O17_2 Zr4 1_555 1_555
O18_2 Zr2_3 1_555 1_555
C33_2 C34_2 1_555 1_555
C34_2 C35_2 1_555 1_555
C35_2 H19_2 1_555 1_555
C36_2 C35_2 1_555 1_555
C37_2 C29_2 1_555 1_555
C38_2 C37_2 1_555 1_555
H20_2 C38_2 1_555 1_555
C39_2 C34_2 1_555 1_555
H21_2 C39_2 1_555 1_555
C40_2 C36_2 1_555 1_555
H22_2 C40_2 1_555 1_555
H23_2 C40_2 1_555 1_555
H24_2 C40_2 1_555 1_555
O19_2 C33_2 1_555 1_555
O20_2 C33_2 1_555 1_555
Zr5 O19_2 1_555 1_555
Zr7 O20_2 1_555 1_555
Zr7_2 O10_2 1_555 1_555
O23_2 Zr4 1_555 1_555
O28_3 Zr3_3 1_555 1_555
Zr2_3 O23_2 1_555 1_555
C1_2 O3_2 1_555 1_555
C6_2 C7_2 1_555 1_555
C9_3 O5_3 1_555 1_555
C11_3 O7_3 1_555 1_555
O4_2 Zr3_3 1_555 1_555
C16_2 C17_2 1_555 1_555
C18_2 C19_2 1_555 1_555
C21_3 C22_3 1_555 1_555
O11_3 Zr3_3 1_555 1_555
C25_2 O17_2 1_555 1_555
C25_2 O18_2 1_555 1_555
C30_2 C31_2 1_555 1_555
C36_2 C37_2 1_555 1_555
C38_2 C39_2 1_555 1_555
O2_3 Zr4_2 1_555 1_555
O13_3 C23_3 1_555 1_555
O14_3 C24_3 1_555 1_555
Zr7_3 O13_3 1_555 1_555
Zr10 O2_3 1_555 1_555
O21_2 Zr4_2 1_555 1_555
O23_3 Zr4_2 1_555 1_555
O24_2 Zr4_2 1_555 1_555
C23_3 C24_3 1_555 1_555
Zr7_3 O21_2 1_555 1_555
Zr7_3 O23_3 1_555 1_555
Zr10 O21_2 1_555 1_555
C9_4 C10_4 1_555 1_555
C10_4 O6_4 1_555 1_555
C11_4 C12_4 1_555 1_555
C12_4 O8_4 1_555 1_555
O5_4 Zr2_4 1_555 1_555
O7_4 Zr2_4 1_555 1_555
C21_4 C9_4 1_555 1_555
C22_4 C10_4 1_555 1_555
O11_4 C21_4 1_555 1_555
O12_4 C22_4 1_555 1_555
O15_2 Zr2_4 1_555 1_555
O16_2 Zr2_4 1_555 1_555
Zr6 O15_2 1_555 1_555
O22_2 Zr3_4 1_555 1_555
O26_2 Zr2_4 1_555 1_555
O27_2 Zr3_4 1_555 1_555
O28_4 Zr3_4 1_555 1_555
C9_4 O5_4 1_555 1_555
C11_4 O7_4 1_555 1_555
C21_4 C22_4 1_555 1_555
O11_4 Zr3_4 1_555 1_555
Zr3_4 O15_2 1_555 1_555
O16_2 Zr6 1_555 1_555
Zr6 O22_2 1_555 1_555
O13_4 C23_4 1_555 1_555
O14_4 C24_4 1_555 1_555
Zr7_4 O13_4 1_555 1_555
C23_4 C24_4 1_555 1_555
O16_3 Zr6_2 1_555 1_555
O16_3 Zr7_4 1_555 1_555
Zr6_2 O22_3 1_555 1_555
Zr10_2 O22_3 1_555 1_555
C1_3 C2_3 1_555 1_555
C2_3 C3_3 1_555 1_555
C3_3 H1_3 1_555 1_555
C4_3 C3_3 1_555 1_555
C5_3 C4_3 1_555 1_555
C6_3 C5_3 1_555 1_555
H2_3 C6_3 1_555 1_555
C7_3 C2_3 1_555 1_555
H3_3 C7_3 1_555 1_555
C8_3 C4_3 1_555 1_555
H4_3 C8_3 1_555 1_555
H5_3 C8_3 1_555 1_555
H6_3 C8_3 1_555 1_555
C11_5 C12_5 1_555 1_555
C12_5 O8_5 1_555 1_555
O3_3 Zr5 1_555 1_555
O26 C1_3 1_555 1_555
C13_3 C14_3 1_555 1_555
C14_3 C15_3 1_555 1_555
C15_3 H7_3 1_555 1_555
C16_3 C15_3 1_555 1_555
C17_3 C5_3 1_555 1_555
C18_3 C17_3 1_555 1_555
H8_3 C18_3 1_555 1_555
C19_3 C14_3 1_555 1_555
H9_3 C19_3 1_555 1_555
C20_3 C16_3 1_555 1_555
H10_3 C20_3 1_555 1_555
H11_3 C20_3 1_555 1_555
H12_3 C20_3 1_555 1_555
O24_2 C13_3 1_555 1_555
O10_3 C13_3 1_555 1_555
C23_5 C11_5 1_555 1_555
C24_5 C12_5 1_555 1_555
O13_5 C23_5 1_555 1_555
O14_5 C24_5 1_555 1_555
C25_3 C26_3 1_555 1_555
C26_3 C27_3 1_555 1_555
C27_3 H13_3 1_555 1_555
C28_3 C27_3 1_555 1_555
C29_3 C28_3 1_555 1_555
C30_3 C29_3 1_555 1_555
H14_3 C30_3 1_555 1_555
C31_3 C26_3 1_555 1_555
H15_3 C31_3 1_555 1_555
C32_3 C28_3 1_555 1_555
H16_3 C32_3 1_555 1_555
H17_3 C32_3 1_555 1_555
H18_3 C32_3 1_555 1_555
O17_3 Zr5 1_555 1_555
C33_3 C34_3 1_555 1_555
C34_3 C35_3 1_555 1_555
C35_3 H19_3 1_555 1_555
C36_3 C35_3 1_555 1_555
C37_3 C29_3 1_555 1_555
C38_3 C37_3 1_555 1_555
H20_3 C38_3 1_555 1_555
C39_3 C34_3 1_555 1_555
H21_3 C39_3 1_555 1_555
C40_3 C36_3 1_555 1_555
H22_3 C40_3 1_555 1_555
H23_3 C40_3 1_555 1_555
H24_3 C40_3 1_555 1_555
O19_3 C33_3 1_555 1_555
O20_3 C33_3 1_555 1_555
Zr6_2 O19_3 1_555 1_555
Zr8 O13_5 1_555 1_555
Zr7_4 O20_3 1_555 1_555
Zr7_3 O10_3 1_555 1_555
O21_3 Zr5 1_555 1_555
O24_3 Zr5 1_555 1_555
C1_3 O3_3 1_555 1_555
C6_3 C7_3 1_555 1_555
C11_5 O28 1_555 1_555
C16_3 C17_3 1_555 1_555
C18_3 C19_3 1_555 1_555
C23_5 C24_5 1_555 1_555
C25_3 O17_3 1_555 1_555
C25_3 O27 1_555 1_555
C30_3 C31_3 1_555 1_555
C36_3 C37_3 1_555 1_555
C38_3 C39_3 1_555 1_555
Zr8 O21_3 1_555 1_555
Zr7 O21_3 1_555 1_555
C11_6 C12_6 1_555 1_555
C12_6 O8_6 1_555 1_555
C23_6 C11_6 1_555 1_555
C24_6 C12_6 1_555 1_555
O13_6 C23_6 1_555 1_555
O14_6 C24_6 1_555 1_555
Zr8_2 O13_6 1_555 1_555
C11_6 O28_2 1_555 1_555
C23_6 C24_6 1_555 1_555
C11_7 C12_7 1_555 1_555
C12_7 O8_7 1_555 1_555
C11_7 O28_3 1_555 1_555
O13_7 C23_7 1_555 1_555
O14_7 C24_7 1_555 1_555
Zr10 O13_7 1_555 1_555
C23_7 C24_7 1_555 1_555
C1_4 C2_4 1_555 1_555
C2_4 C3_4 1_555 1_555
C3_4 H1_4 1_555 1_555
C4_4 C3_4 1_555 1_555
C5_4 C4_4 1_555 1_555
C6_4 C5_4 1_555 1_555
H2_4 C6_4 1_555 1_555
C7_4 C2_4 1_555 1_555
H3_4 C7_4 1_555 1_555
C8_4 C4_4 1_555 1_555
H4_4 C8_4 1_555 1_555
H5_4 C8_4 1_555 1_555
H6_4 C8_4 1_555 1_555
C11_8 C12_8 1_555 1_555
C12_8 O8_8 1_555 1_555
O3_4 Zr6 1_555 1_555
O26_2 C1_4 1_555 1_555
C13_4 C14_4 1_555 1_555
C14_4 C15_4 1_555 1_555
C15_4 H7_4 1_555 1_555
C16_4 C15_4 1_555 1_555
C17_4 C5_4 1_555 1_555
C18_4 C17_4 1_555 1_555
H8_4 C18_4 1_555 1_555
C19_4 C14_4 1_555 1_555
H9_4 C19_4 1_555 1_555
C20_4 C16_4 1_555 1_555
H10_4 C20_4 1_555 1_555
H11_4 C20_4 1_555 1_555
H12_4 C20_4 1_555 1_555
O24_3 C13_4 1_555 1_555
O10_4 C13_4 1_555 1_555
C25_4 C26_4 1_555 1_555
C26_4 C27_4 1_555 1_555
C27_4 H13_4 1_555 1_555
C28_4 C27_4 1_555 1_555
C29_4 C28_4 1_555 1_555
C30_4 C29_4 1_555 1_555
H14_4 C30_4 1_555 1_555
C31_4 C26_4 1_555 1_555
H15_4 C31_4 1_555 1_555
C32_4 C28_4 1_555 1_555
H16_4 C32_4 1_555 1_555
H17_4 C32_4 1_555 1_555
H18_4 C32_4 1_555 1_555
O17_4 Zr6 1_555 1_555
C33_4 C34_4 1_555 1_555
C34_4 C35_4 1_555 1_555
C35_4 H19_4 1_555 1_555
C36_4 C35_4 1_555 1_555
C37_4 C29_4 1_555 1_555
C38_4 C37_4 1_555 1_555
H20_4 C38_4 1_555 1_555
C39_4 C34_4 1_555 1_555
H21_4 C39_4 1_555 1_555
C40_4 C36_4 1_555 1_555
H22_4 C40_4 1_555 1_555
H23_4 C40_4 1_555 1_555
H24_4 C40_4 1_555 1_555
O25 C33_4 1_555 1_555
O20_4 C33_4 1_555 1_555
Zr8_2 O20_4 1_555 1_555
Zr8 O10_4 1_555 1_555
C1_4 O3_4 1_555 1_555
C6_4 C7_4 1_555 1_555
C11_8 O28_4 1_555 1_555
C16_4 C17_4 1_555 1_555
C18_4 C19_4 1_555 1_555
C25_4 O17_4 1_555 1_555
C25_4 O27_2 1_555 1_555
C30_4 C31_4 1_555 1_555
C36_4 C37_4 1_555 1_555
C38_4 C39_4 1_555 1_555
O13_8 C23_8 1_555 1_555
O14_8 C24_8 1_555 1_555
Zr10_2 O13_8 1_555 1_555
O21_4 Zr6_2 1_555 1_555
C23_8 C24_8 1_555 1_555
Zr10_2 O21_4 1_555 1_555
Zr7_4 O21_4 1_555 1_555
C9_5 C10_5 1_555 1_555
C10_5 O6_5 1_555 1_555
O5_5 Zr7 1_555 1_555
C21_5 C9_5 1_555 1_555
C22_5 C10_5 1_555 1_555
O11_5 C21_5 1_555 1_555
O12_5 C22_5 1_555 1_555
C9_5 O5_5 1_555 1_555
C21_5 C22_5 1_555 1_555
O11_5 Zr8 1_555 1_555
C9_6 C10_6 1_555 1_555
C10_6 O6_6 1_555 1_555
O5_6 Zr7_2 1_555 1_555
C21_6 C9_6 1_555 1_555
C22_6 C10_6 1_555 1_555
O11_6 C21_6 1_555 1_555
O12_6 C22_6 1_555 1_555
C9_6 O5_6 1_555 1_555
C21_6 C22_6 1_555 1_555
O11_6 Zr8_2 1_555 1_555
C9_7 C10_7 1_555 1_555
C10_7 O6_7 1_555 1_555
O5_7 Zr7_3 1_555 1_555
C21_7 C9_7 1_555 1_555
C22_7 C10_7 1_555 1_555
O11_7 C21_7 1_555 1_555
O12_7 C22_7 1_555 1_555
C9_7 O5_7 1_555 1_555
C21_7 C22_7 1_555 1_555
O11_7 Zr10 1_555 1_555
C9_8 C10_8 1_555 1_555
C10_8 O6_8 1_555 1_555
O5_8 Zr7_4 1_555 1_555
C21_8 C9_8 1_555 1_555
C22_8 C10_8 1_555 1_555
O11_8 C21_8 1_555 1_555
O12_8 C22_8 1_555 1_555
C9_8 O5_8 1_555 1_555
C21_8 C22_8 1_555 1_555
O11_8 Zr10_2 1_555 1_555

#END
