
###############################################################################
#
# This file contains modified crystal structure data generated from the
# MOF subset of the Cambridge Structural Database (CSD) v543 
# hosted by the Cambridge Crystallographic Data Centre (CCDC).
#
# This work is licensed under the Creative Commons
# Attribution-NonCommercial-ShareAlike 4.0 International License.
# To view a copy of this license, visit
# http://creativecommons.org/licenses/by-nc-sa/4.0/
# or send a letter to
# Creative Commons, PO Box 1866, Mountain View, CA 94042, USA.
#
# CIF created using the CSD Python API on 29 September 2022
# The structure has been converted into the P1 space group
# The structure has a 3D framework
# The original CSD entry SEMFOH is in the tetragonal crystal system
# The framework has been calculated to contain at least 10.0% void space
# The void calculation uses a probe of radius 1.32A, grid spacing 0.4
# The framework is charged, counterions have been retained in the structure
#
###############################################################################

data_SEMFOH
_chemical_formula_moiety         '(C644 H640 Cu30 N320 P64 30+)n'
_symmetry_cell_setting           triclinic
_symmetry_space_group_name_H-M   'P 1'
_symmetry_Int_Tables_number      1
_space_group_name_Hall           'P 1'
loop_
_symmetry_equiv_pos_site_id
_symmetry_equiv_pos_as_xyz
1 x,y,z
_cell_length_a                   37.979(5)
_cell_length_b                   37.979(5)
_cell_length_c                   16.959(3)
_cell_angle_alpha                90
_cell_angle_beta                 90
_cell_angle_gamma                90
_cell_volume                     24461.7
loop_
_atom_site_label
_atom_site_type_symbol
_atom_site_fract_x
_atom_site_fract_y
_atom_site_fract_z
Cu1 Cu -0.0000 0.2500 0.1250
P1 P 0.25279(2) 0.19124(2) 0.01599(4)
P2 P 0.22475(2) 0.13157(2) 0.09030(5)
P3 P 0.18767(2) 0.22556(2) 0.04906(5)
P4 P 0.17748(2) 0.17596(2) 0.17212(5)
N2 N 0.24366(7) 0.10331(7) 0.15232(16)
H2 H 0.2643 0.1086 0.1693
N3 N 0.28291(7) 0.21862(7) 0.05147(16)
H3 H 0.2903 0.2140 0.0983
N4 N 0.21570(7) 0.10887(7) 0.00831(16)
C2 C 0.22932(9) 0.07224(8) 0.17885(19)
N6 N 0.19208(8) 0.26876(7) 0.05757(17)
H6 H 0.1949 0.2766 0.1047
N7 N 0.20254(10) 0.00781(8) 0.2356(2)
N8 N 0.19797(7) 0.17810(7) 0.25896(16)
H7 H 0.2098 0.1971 0.2673
N10 N 0.18676(7) 0.14263(7) 0.11986(16)
C3 C 0.29772(10) 0.24771(9) 0.0161(2)
C4 C 0.19874(9) 0.15362(9) 0.3198(2)
C5 C 0.19694(9) 0.05922(9) 0.1535(2)
H8 H 0.1835 0.0717 0.1171
C6 C 0.10995(9) 0.25002(10) 0.0852(2)
H9 H 0.1284 0.2593 0.1147
N12 N 0.25427(7) 0.16034(7) 0.07890(16)
N13 N 0.18498(7) 0.21409(7) 0.13874(16)
N14 N 0.04755(8) 0.24573(8) 0.0665(2)
C8 C 0.11688(9) 0.22858(9) 0.0209(2)
N15 N 0.13564(7) 0.16807(8) 0.19249(18)
H10 H 0.1262 0.1511 0.1664
C9 C 0.21903(11) 0.16034(10) 0.3866(2)
H11 H 0.2324 0.1808 0.3900
N16 N 0.20105(9) 0.10607(9) 0.44720(19)
H13 H 0.2811 0.0870 0.0324
C13 C 0.18499(10) 0.02738(10) 0.1833(2)
H15 H 0.1633 0.0191 0.1657
C14 C 0.21904(11) 0.13625(12) 0.4477(2)
H16 H 0.2325 0.1414 0.4921
H17 H 0.3223 0.1635 0.0180
C16 C 0.24809(11) 0.05172(10) 0.2338(2)
H18 H 0.2700 0.0591 0.2518
C18 C 0.17996(11) 0.12215(11) 0.3188(2)
H20 H 0.1662 0.1162 0.2754
C19 C 0.07569(9) 0.25759(11) 0.1054(3)
H21 H 0.0719 0.2719 0.1490
C20 C 0.32717(12) 0.26313(11) 0.0499(3)
H22 H 0.3365 0.2540 0.0963
C22 C 0.11356(10) 0.18497(12) 0.2457(2)
C25 C 0.19191(13) 0.32959(11) 0.0178(3)
H25 H 0.1918 0.3367 0.0703
C28 C 0.05433(10) 0.22615(11) 0.0034(3)
C30 C 0.34258(14) 0.29176(13) 0.0151(3)
H30 H 0.3625 0.3014 0.0386
C31 C 0.18200(12) 0.09981(12) 0.3829(3)
H31 H 0.1692 0.0790 0.3809
C32 C 0.12055(12) 0.21801(14) 0.2756(3)
H32 H 0.1408 0.2301 0.2612
C33 C 0.23379(12) 0.02073(11) 0.2605(3)
H33 H 0.2463 0.0079 0.2979
C36 C 0.09634(15) 0.23268(19) 0.3277(3)
H36 H 0.1012 0.2550 0.3474
C39 C 0.08283(11) 0.16773(18) 0.2705(3)
H39 H 0.0774 0.1453 0.2525
C40 C 0.06122(15) 0.1850(3) 0.3218(4)
H40 H 0.0408 0.1735 0.3376
N20 N 0.06725(14) 0.2173(2) 0.3512(3)
Cu8 Cu 0.210051(14) 0.068417(16) 0.52461(3)
Cu13 Cu 0.210051(14) 0.568417(16) 0.47539(3)
P7 P 0.05876(2) 0.50279(2) 0.23401(4)
P10 P 0.11843(2) 0.47475(2) 0.15970(5)
P13 P 0.02444(2) 0.43767(2) 0.20094(5)
P16 P 0.07404(2) 0.42748(2) 0.07788(5)
Cu17 Cu 0.14784(2) 0.652324(18) 0.40826(5)
N23 N 0.07103(7) 0.51749(7) 0.32241(16)
H43 H 0.0665 0.5039 0.3617
N26 N 0.14669(7) 0.49366(7) 0.09768(16)
H46 H 0.1414 0.5143 0.0807
N29 N 0.03138(7) 0.53291(7) 0.19853(16)
H49 H 0.0360 0.5403 0.1517
N32 N 0.14113(7) 0.46570(7) 0.24169(16)
H52 H 0.1428 0.4438 0.2544
C43 C 0.08764(8) 0.54903(8) 0.33993(19)
C46 C 0.17776(8) 0.47932(9) 0.07115(19)
N35 N 0.03099(8) 0.40103(7) 0.25174(17)
H55 H 0.0413 0.4032 0.2966
N37 N 0.01876(7) 0.05792(8) 0.19243(17)
H57 H 0.0266 0.0551 0.1453
N41 N 0.24219(8) 0.45254(10) 0.0144(2)
N47 N 0.04109(7) 0.46661(7) 0.25674(16)
N50 N 0.10737(7) 0.43676(7) 0.13014(16)
C49 C 0.00229(9) 0.54772(10) 0.2339(2)
N53 N 0.19018(8) 0.53643(9) 0.39725(19)
C55 C 0.19078(9) 0.44694(9) 0.0965(2)
H64 H 0.1783 0.4335 0.1329
C57 C 0.00002(10) 0.14005(9) 0.1648(2)
C58 C -0.00002(10) 0.35995(9) 0.1648(2)
H66 H 0.0093 0.1216 0.1353
C61 C 0.15758(8) 0.48960(9) 0.29154(19)
N60 N 0.08966(7) 0.50427(7) 0.17110(16)
N63 N 0.03591(7) 0.43498(7) 0.11126(16)
N66 N 0.00427(8) 0.29755(8) 0.1835(2)
C64 C 0.02142(9) 0.36688(9) 0.2291(2)
N69 N 0.08193(8) 0.38564(7) 0.05751(18)
H70 H 0.0989 0.3762 0.0836
N76 N 0.29895(9) 0.39393(9) 0.05280(19)
C70 C 0.09900(9) 0.55509(9) 0.4171(2)
H76 H 0.0950 0.5384 0.4561
C73 C 0.16727(9) 0.52338(9) 0.2687(2)
H79 H 0.1630 0.5311 0.2176
N79 N 0.12259(10) 0.61119(9) 0.3814(2)
C76 C 0.18109(12) 0.50345(12) 0.4183(2)
H82 H 0.1859 0.4962 0.4695
C79 C 0.22262(10) 0.43499(10) 0.0667(2)
H85 H 0.2309 0.4133 0.0843
C85 C 0.09387(11) 0.57510(10) 0.2839(2)
H91 H 0.0865 0.5723 0.2320
C88 C 0.19828(10) 0.49809(11) 0.0162(2)
N86 N 0.16966(12) 0.69338(10) 0.4488(2)
C91 C 0.11610(11) 0.58579(11) 0.4349(2)
H97 H 0.1236 0.5893 0.4864
C96 C 0.00759(11) 0.17431(9) 0.1446(3)
H102 H 0.0219 0.1781 0.1010
C103 C 0.03302(10) 0.33758(9) 0.2722(2)
H109 H 0.0467 0.3405 0.3172
C106 C 0.06503(12) 0.36356(10) 0.0043(2)
C109 C 0.16514(11) 0.47999(11) 0.3685(2)
H112 H 0.1594 0.4576 0.3864
C111 C 0.04406(9) 0.05823(10) 0.2522(2)
C114 C 0.07959(11) 0.05809(13) 0.2322(3)
H114 H 0.0867 0.0582 0.1797
C118 C 0.11128(12) 0.60517(10) 0.3075(3)
H118 H 0.1155 0.6224 0.2697
C121 C 0.18317(10) 0.54527(10) 0.3222(2)
H121 H 0.1895 0.5677 0.3055
C124 C 0.02385(11) 0.30433(10) 0.2466(3)
H124 H 0.0320 0.2852 0.2757
C144 C 0.03602(12) 0.05815(15) 0.3300(3)
H144 H 0.0127 0.0586 0.3464
N88 N 0.09703(12) 0.05698(18) 0.3669(3)
C150 C 0.06296(15) 0.0574(2) 0.3848(3)
H150 H 0.0568 0.0572 0.4379
C153 C 0.10404(12) 0.05783(16) 0.2924(4)
H153 H 0.1277 0.0583 0.2780
Cu3 Cu 0.402324(18) 0.10216(2) 0.84174(5)
N1 N 0.26749(7) 0.17897(7) 0.92759(16)
H1 H 0.2539 0.1835 0.8883
H4 H 0.1938 0.1072 0.9956
C1 C 0.29903(8) 0.16236(8) 0.91007(19)
N5 N 0.15103(7) 0.21901(8) 0.99826(17)
H5 H 0.1532 0.2087 0.9534
N9 N 0.21661(7) 0.20891(7) 0.99326(16)
N11 N 0.28643(9) 0.05982(8) 0.85275(19)
C7 C 0.23960(9) 0.09242(8) 0.95846(19)
C10 C 0.30509(9) 0.15100(9) 0.8329(2)
H12 H 0.2884 0.1550 0.7939
C11 C 0.27338(9) 0.08273(9) 0.9813(2)
N17 N 0.36119(9) 0.12741(10) 0.8686(2)
C12 C 0.25345(12) 0.06891(12) 0.8317(2)
H14 H 0.2462 0.0641 0.7805
C15 C 0.32510(10) 0.15613(11) 0.9661(2)
N18 N 0.33034(12) 0.30662(10) 0.9488(2)
C17 C 0.33579(11) 0.13390(11) 0.8151(2)
H19 H 0.3393 0.1264 0.7636
C21 C 0.08758(9) 0.21698(10) 0.9778(2)
H23 H 0.0905 0.2033 0.9328
C23 C 0.22999(11) 0.08486(11) 0.8815(2)
H24 H 0.2076 0.0906 0.8636
C24 C 0.19177(10) 0.29406(9) 0.9978(2)
C26 C 0.35517(10) 0.13872(12) 0.9425(3)
H26 H 0.3724 0.1345 0.9803
C27 C 0.29527(10) 0.06683(10) 0.9278(2)
H27 H 0.3177 0.0605 0.9445
H28 H 0.0352 0.2180 0.9743
C29 C 0.30152(14) 0.29191(12) 0.9169(3)
H29 H 0.2925 0.3019 0.8711
C34 C 0.28457(12) 0.26307(10) 0.9475(2)
H34 H 0.2647 0.2539 0.9230
C35 C 0.19185(15) 0.28602(12) 0.9200(3)
H35 H 0.1914 0.2627 0.9036
N19 N 0.19302(18) 0.34703(12) 0.8831(3)
C37 C 0.1926(2) 0.31296(15) 0.8652(3)
H37 H 0.1928 0.3068 0.8121
C38 C 0.19217(16) 0.35404(12) 0.9576(4)
H38 H 0.1917 0.3777 0.9720
Cu6 Cu 0.289949(14) 0.431583(16) 0.97539(3)
Cu7 Cu 0.318417(16) 0.039949(14) 0.77461(3)
Cu14 Cu 0.181583(16) 0.460051(14) 0.72539(3)
Cu18 Cu 0.35216(2) 0.347676(18) 0.90826(5)
N44 N 0.07190(7) 0.44797(7) 0.99104(16)
H61 H 0.0529 0.4598 0.9827
C52 C 0.09638(9) 0.44874(9) 0.9302(2)
N57 N 0.30982(8) 0.46357(9) 0.89725(19)
C67 C 0.08966(10) 0.46903(11) 0.8634(2)
H73 H 0.0692 0.4824 0.8600
N72 N 0.14393(9) 0.45105(9) 0.80280(19)
C82 C 0.11375(12) 0.46904(11) 0.8023(2)
H88 H 0.1086 0.4825 0.7579
H94 H 0.1909 0.5200 0.9982
N83 N 0.44338(10) 0.08034(12) 0.8012(2)
C94 C 0.12785(11) 0.42996(11) 0.9312(2)
H100 H 0.1338 0.4162 0.9746
C133 C 0.15019(12) 0.43200(12) 0.8671(3)
H133 H 0.1710 0.4192 0.8691
C136 C 0.03199(14) 0.37055(12) 0.9744(3)
H136 H 0.0199 0.3908 0.9888
C139 C 0.22927(11) 0.48379(12) 0.9895(3)
H139 H 0.2421 0.4963 0.9521
C148 C 0.01732(19) 0.34634(15) 0.9223(3)
H147 H 0.0050 0.1488 0.9026
C157 C 0.08227(18) 0.33283(11) 0.9795(3)
H157 H 0.1047 0.3274 0.9975
C160 C 0.0650(3) 0.31122(15) 0.9282(4)
H160 H 0.0765 0.2908 0.9124
N92 N 0.0327(2) 0.31725(14) 0.8988(3)
Cu2 Cu 0.181583(16) 0.960051(14) 0.27461(3)
Cu20 Cu 0.097676(18) 0.89784(2) 0.34174(5)
N54 N 0.21357(9) 0.94018(8) 0.35275(19)
N73 N 0.14393(9) 0.95105(9) 0.19720(19)
N81 N 0.05662(10) 0.91966(12) 0.3012(2)
C99 C 0.01313(11) 0.92283(12) 0.2001(3)
H105 H 0.0040 0.9135 0.1537
C126 C 0.04191(12) 0.94848(14) 0.3331(3)
H126 H 0.0519 0.9575 0.3789
C129 C 0.04176(13) 0.90742(14) 0.2349(3)
H129 H 0.0514 0.8875 0.2114
C141 C 0.01307(10) 0.96543(12) 0.3025(2)
H141 H 0.0039 0.9853 0.3270
Cu1_2 Cu 1.0000 0.2500 0.1250
Cu4 Cu 0.818417(16) 0.539949(14) 0.27461(3)
Cu10 Cu 0.789949(14) 0.431583(16) 0.52461(3)
P5 P 0.74721(2) 0.30876(2) 0.01599(4)
P8 P 0.77525(2) 0.36843(2) 0.09030(5)
P9 P 0.88157(2) 0.02525(2) 0.15970(5)
P11 P 0.81233(2) 0.27444(2) 0.04906(5)
P12 P 0.97556(2) 0.06233(2) 0.20094(5)
P14 P 0.82252(2) 0.32404(2) 0.17212(5)
P15 P 0.92596(2) 0.07252(2) 0.07788(5)
Cu21 Cu 0.902324(18) 0.60216(2) 0.34174(5)
N24 N 0.75634(7) 0.39669(7) 0.15232(16)
N25 N 0.85331(7) 0.00634(7) 0.09768(16)
H44 H 0.7357 0.3914 0.1693
N27 N 0.71709(7) 0.28138(7) 0.05147(16)
H47 H 0.7097 0.2860 0.0983
N30 N 0.78430(7) 0.39113(7) 0.00831(16)
N31 N 0.85887(7) 0.03430(7) 0.24169(16)
H51 H 0.8572 0.0562 0.2544
C44 C 0.77068(9) 0.42776(8) 0.17885(19)
C45 C 0.82224(8) 0.02068(9) 0.07115(19)
N34 N 0.96901(8) 0.09897(7) 0.25174(17)
H54 H 0.9587 0.0968 0.2966
N36 N 0.80792(8) 0.23124(7) 0.05757(17)
N38 N 0.98124(7) 0.44208(8) 0.19243(17)
H56 H 0.8051 0.2234 0.1047
H58 H 0.9734 0.4449 0.1453
N39 N 0.79746(10) 0.49219(8) 0.2356(2)
N40 N 0.75781(8) 0.04746(10) 0.0144(2)
N42 N 0.80203(7) 0.32190(7) 0.25896(16)
H59 H 0.7902 0.3029 0.2673
N46 N 0.95891(7) 0.03339(7) 0.25674(16)
N48 N 0.81324(7) 0.35737(7) 0.11986(16)
N49 N 0.89263(7) 0.06324(7) 0.13014(16)
C47 C 0.70228(10) 0.25229(9) 0.0161(2)
C50 C 0.80126(9) 0.34638(9) 0.3198(2)
N55 N 0.78643(9) 0.55982(8) 0.35275(19)
C53 C 0.80306(9) 0.44078(9) 0.1535(2)
C54 C 0.80922(9) 0.05306(9) 0.0965(2)
H62 H 0.8165 0.4283 0.1171
H63 H 0.8217 0.0665 0.1329
C56 C 0.89005(9) 0.24998(10) 0.0852(2)
C57_2 C 1.00002(10) 0.14005(9) 0.1648(2)
C58_2 C 0.99998(10) 0.35995(9) 0.1648(2)
H65 H 0.8716 0.2407 0.1147
H67 H 0.9907 0.3784 0.1353
C60 C 0.84242(8) 0.01040(9) 0.29154(19)
N58 N 0.74573(7) 0.33966(7) 0.07890(16)
N61 N 0.81502(7) 0.28591(7) 0.13874(16)
N62 N 0.96409(7) 0.06502(7) 0.11126(16)
N64 N 0.95245(8) 0.25427(8) 0.0665(2)
N65 N 0.99573(8) 0.20245(8) 0.1835(2)
C62 C 0.88312(9) 0.27142(9) 0.0209(2)
C63 C 0.97858(9) 0.13312(9) 0.2291(2)
N67 N 0.86436(7) 0.33193(8) 0.19249(18)
N68 N 0.91807(8) 0.11436(7) 0.05751(18)
H68 H 0.8738 0.3489 0.1664
H69 H 0.9011 0.1238 0.0836
C65 C 0.78097(11) 0.33966(10) 0.3866(2)
H71 H 0.7676 0.3192 0.3900
N70 N 0.79895(9) 0.39393(9) 0.44720(19)
N74 N 0.85607(9) 0.54895(9) 0.19720(19)
N75 N 0.70105(9) 0.10607(9) 0.05280(19)
H77 H 0.7189 0.4130 0.0324
H81 H 0.8141 0.0038 0.4695
C77 C 0.81501(10) 0.47262(10) 0.1833(2)
C78 C 0.77738(10) 0.06501(10) 0.0667(2)
H83 H 0.8367 0.4809 0.1657
H84 H 0.7691 0.0867 0.0843
C80 C 0.78096(11) 0.36375(12) 0.4477(2)
H86 H 0.7675 0.3586 0.4921
H89 H 0.6777 0.3365 0.0180
C86 C 0.75191(11) 0.44828(10) 0.2338(2)
C87 C 0.80172(10) 0.00191(11) 0.0162(2)
H92 H 0.7300 0.4409 0.2518
N82 N 0.94338(10) 0.58034(12) 0.3012(2)
C92 C 0.82004(11) 0.37785(11) 0.3188(2)
H98 H 0.8338 0.3838 0.2754
C95 C 0.92431(9) 0.24241(11) 0.1054(3)
C97 C 0.99241(11) 0.32569(9) 0.1446(3)
H101 H 0.9281 0.2281 0.1490
H103 H 0.9781 0.3219 0.1010
C98 C 0.67283(12) 0.23687(11) 0.0499(3)
C100 C 0.98687(11) 0.57717(12) 0.2001(3)
H104 H 0.6635 0.2460 0.0963
H106 H 0.9960 0.5865 0.1537
C102 C 0.96698(10) 0.16242(9) 0.2722(2)
H108 H 0.9533 0.1595 0.3172
C104 C 0.88644(10) 0.31503(12) 0.2457(2)
C105 C 0.93497(12) 0.13644(10) 0.0043(2)
C108 C 0.83486(11) 0.02001(11) 0.3685(2)
H111 H 0.8406 0.0424 0.3864
C112 C 0.95594(9) 0.44177(10) 0.2522(2)
C113 C 0.80809(13) 0.17041(11) 0.0178(3)
C115 C 0.92041(11) 0.44191(13) 0.2322(3)
H113 H 0.8082 0.1633 0.0703
H115 H 0.9133 0.4418 0.1797
C122 C 0.94567(10) 0.27385(11) 0.0034(3)
C123 C 0.97615(11) 0.19567(10) 0.2466(3)
H123 H 0.9680 0.2148 0.2757
C127 C 0.95809(12) 0.55152(14) 0.3331(3)
H127 H 0.9481 0.5425 0.3789
C128 C 0.65742(14) 0.20824(13) 0.0151(3)
C130 C 0.95824(13) 0.59258(14) 0.2349(3)
H128 H 0.6375 0.1986 0.0386
H130 H 0.9486 0.6125 0.2114
C131 C 0.81800(12) 0.40019(12) 0.3829(3)
H131 H 0.8308 0.4210 0.3809
C134 C 0.87945(12) 0.28199(14) 0.2756(3)
H134 H 0.8592 0.2699 0.2612
C137 C 0.76621(12) 0.47927(11) 0.2605(3)
H137 H 0.7537 0.4921 0.2979
C142 C 0.98693(10) 0.53457(12) 0.3025(2)
H142 H 0.9961 0.5147 0.3270
C145 C 0.96398(12) 0.44185(15) 0.3300(3)
H145 H 0.9873 0.4414 0.3464
C146 C 0.90366(15) 0.26732(19) 0.3277(3)
H146 H 0.8988 0.2450 0.3474
N89 N 0.90297(12) 0.44302(18) 0.3669(3)
C151 C 0.93704(15) 0.4426(2) 0.3848(3)
H151 H 0.9432 0.4428 0.4379
C154 C 0.89596(12) 0.44217(16) 0.2924(4)
H154 H 0.8723 0.4417 0.2780
C155 C 0.91717(11) 0.33227(18) 0.2705(3)
H155 H 0.9226 0.3547 0.2525
C158 C 0.93878(15) 0.3150(3) 0.3218(4)
H158 H 0.9592 0.3265 0.3376
N90 N 0.93275(14) 0.2827(2) 0.3512(3)
Cu5 Cu 0.710051(14) 0.068417(16) 0.97539(3)
Cu9 Cu 0.681583(16) 0.460051(14) 0.77461(3)
Cu12 Cu 0.818417(16) 0.039949(14) 0.72539(3)
Cu15 Cu 0.597676(18) 0.39784(2) 0.84174(5)
Cu19 Cu 0.64784(2) 0.152324(18) 0.90826(5)
N21 N 0.73251(7) 0.32103(7) 0.92759(16)
H41 H 0.7461 0.3165 0.8883
H50 H 0.8062 0.3928 0.9956
C41 C 0.70097(8) 0.33764(8) 0.91007(19)
N33 N 0.84897(7) 0.28099(8) 0.99826(17)
H53 H 0.8468 0.2913 0.9534
N43 N 0.92810(7) 0.05203(7) 0.99104(16)
H60 H 0.9471 0.0402 0.9827
N45 N 0.78339(7) 0.29109(7) 0.99326(16)
C51 C 0.90362(9) 0.05126(9) 0.9302(2)
N51 N 0.71357(9) 0.44018(8) 0.85275(19)
N56 N 0.69018(8) 0.03643(9) 0.89725(19)
C59 C 0.76040(9) 0.40758(8) 0.95846(19)
C66 C 0.91034(10) 0.03097(11) 0.8634(2)
H72 H 0.9308 0.0176 0.8600
N71 N 0.85607(9) 0.04895(9) 0.80280(19)
C68 C 0.69491(9) 0.34900(9) 0.8329(2)
H74 H 0.7116 0.3450 0.7939
C71 C 0.72662(9) 0.41727(9) 0.9813(2)
N77 N 0.63881(9) 0.37259(10) 0.8686(2)
C74 C 0.74655(12) 0.43109(12) 0.8317(2)
H80 H 0.7538 0.4359 0.7805
C81 C 0.88625(12) 0.03096(11) 0.8023(2)
H87 H 0.8914 0.0175 0.7579
C83 C 0.67490(10) 0.34387(11) 0.9661(2)
N80 N 0.66966(12) 0.19338(10) 0.9488(2)
N84 N 0.55662(10) 0.41966(12) 0.8012(2)
C89 C 0.66421(11) 0.36610(11) 0.8151(2)
H95 H 0.6607 0.3736 0.7636
C93 C 0.87215(11) 0.07004(11) 0.9312(2)
H99 H 0.8662 0.0838 0.9746
C101 C 0.91242(9) 0.28302(10) 0.9778(2)
H107 H 0.9095 0.2967 0.9328
C107 C 0.77001(11) 0.41514(11) 0.8815(2)
H110 H 0.7924 0.4094 0.8636
C110 C 0.80823(10) 0.20594(9) 0.9978(2)
C116 C 0.64483(10) 0.36128(12) 0.9425(3)
H116 H 0.6276 0.3655 0.9803
C119 C 0.70473(10) 0.43317(10) 0.9278(2)
H119 H 0.6823 0.4395 0.9445
H122 H 0.9648 0.2820 0.9743
C125 C 0.69848(14) 0.20809(12) 0.9169(3)
H125 H 0.7075 0.1981 0.8711
C132 C 0.84981(12) 0.06800(12) 0.8671(3)
H132 H 0.8290 0.0808 0.8691
C135 C 0.96801(14) 0.12945(12) 0.9744(3)
H135 H 0.9801 0.1092 0.9888
C138 C 0.77073(11) 0.01621(12) 0.9895(3)
H138 H 0.7579 0.0037 0.9521
C140 C 0.71543(12) 0.23693(10) 0.9475(2)
H140 H 0.7353 0.2461 0.9230
C143 C 0.80815(15) 0.21398(12) 0.9200(3)
H143 H 0.8086 0.2373 0.9036
C147 C 0.98268(19) 0.15366(15) 0.9223(3)
H148 H 0.9950 0.3512 0.9026
N87 N 0.80698(18) 0.15297(12) 0.8831(3)
C149 C 0.8074(2) 0.18704(15) 0.8652(3)
H149 H 0.8072 0.1932 0.8121
C152 C 0.80783(16) 0.14596(12) 0.9576(4)
H152 H 0.8083 0.1223 0.9720
C156 C 0.91773(18) 0.16717(11) 0.9795(3)
H156 H 0.8953 0.1726 0.9975
C159 C 0.9350(3) 0.18878(15) 0.9282(4)
H159 H 0.9235 0.2092 0.9124
N91 N 0.9673(2) 0.18275(14) 0.8988(3)
Cu11 Cu 0.789949(14) 0.931583(16) 0.47539(3)
P6 P 0.94124(2) 0.99721(2) 0.23401(4)
Cu16 Cu 0.85216(2) 0.847676(18) 0.40826(5)
N22 N 0.92897(7) 0.98251(7) 0.32241(16)
H42 H 0.9335 0.9961 0.3617
H45 H 0.8586 0.9857 0.0807
N28 N 0.96862(7) 0.96709(7) 0.19853(16)
H48 H 0.9640 0.9597 0.1517
C42 C 0.91236(8) 0.95097(8) 0.33993(19)
C48 C 0.99771(9) 0.95228(10) 0.2339(2)
N52 N 0.80982(8) 0.96357(9) 0.39725(19)
N59 N 0.91034(7) 0.99573(7) 0.17110(16)
C69 C 0.90100(9) 0.94491(9) 0.4171(2)
H75 H 0.9050 0.9616 0.4561
C72 C 0.83273(9) 0.97662(9) 0.2687(2)
H78 H 0.8370 0.9689 0.2176
N78 N 0.87741(10) 0.88881(9) 0.3814(2)
C75 C 0.81891(12) 0.99655(12) 0.4183(2)
C84 C 0.90613(11) 0.92490(10) 0.2839(2)
H90 H 0.9135 0.9277 0.2320
N85 N 0.83034(12) 0.80662(10) 0.4488(2)
C90 C 0.88390(11) 0.91421(11) 0.4349(2)
H96 H 0.8764 0.9107 0.4864
C117 C 0.88872(12) 0.89483(10) 0.3075(3)
H117 H 0.8845 0.8776 0.2697
C120 C 0.81683(10) 0.95473(10) 0.3222(2)
H120 H 0.8105 0.9323 0.3055
Cu1_3 Cu 0.5000 0.2500 0.3750
P1_2 P 0.55876(2) 0.50279(2) 0.26599(4)
P2_2 P 0.61843(2) 0.47475(2) 0.34030(5)
P3_2 P 0.52444(2) 0.43767(2) 0.29906(5)
P4_2 P 0.57404(2) 0.42748(2) 0.42212(5)
Cu3_2 Cu 0.64784(2) 0.652324(18) 0.09174(5)
N1_2 N 0.57103(7) 0.51749(7) 0.17759(16)
H1_2 H 0.5665 0.5039 0.1383
N2_2 N 0.64669(7) 0.49366(7) 0.40232(16)
H2_2 H 0.6414 0.5143 0.4193
N3_2 N 0.53138(7) 0.53291(7) 0.30147(16)
H3_2 H 0.5360 0.5403 0.3483
N4_2 N 0.64113(7) 0.46570(7) 0.25831(16)
H4_2 H 0.6428 0.4438 0.2456
C1_2 C 0.58764(8) 0.54903(8) 0.16007(19)
C2_2 C 0.67776(8) 0.47932(9) 0.42885(19)
N5_2 N 0.53099(8) 0.40103(7) 0.24826(17)
H5_2 H 0.5413 0.4032 0.2034
N6_2 N 0.48124(7) 0.44208(8) 0.30757(17)
H6_2 H 0.4734 0.4449 0.3547
N7_2 N 0.74219(8) 0.45254(10) 0.4856(2)
N8_2 N 0.57190(7) 0.44797(7) 0.50896(16)
H7_2 H 0.5529 0.4598 0.5173
N9_2 N 0.54109(7) 0.46661(7) 0.24326(16)
N10_2 N 0.60737(7) 0.43676(7) 0.36986(16)
C3_2 C 0.50229(9) 0.54772(10) 0.2661(2)
C4_2 C 0.59638(9) 0.44874(9) 0.5698(2)
N11_2 N 0.69018(8) 0.53643(9) 0.10275(19)
C5_2 C 0.69078(9) 0.44694(9) 0.4035(2)
H8_2 H 0.6783 0.4335 0.3671
C6_2 C 0.49998(10) 0.35995(9) 0.3352(2)
H9_2 H 0.4907 0.3784 0.3647
C7_2 C 0.65758(8) 0.48960(9) 0.20846(19)
N12_2 N 0.58966(7) 0.50427(7) 0.32890(16)
N13_2 N 0.53591(7) 0.43498(7) 0.38874(16)
N14_2 N 0.50427(8) 0.29755(8) 0.3165(2)
C8_2 C 0.52142(9) 0.36688(9) 0.2709(2)
N15_2 N 0.58193(8) 0.38564(7) 0.44249(18)
H10_2 H 0.5989 0.3762 0.4164
C9_2 C 0.58966(10) 0.46903(11) 0.6366(2)
H11_2 H 0.5692 0.4824 0.6400
N16_2 N 0.64393(9) 0.45105(9) 0.69720(19)
C10_2 C 0.59900(9) 0.55509(9) 0.0829(2)
H12_2 H 0.5950 0.5384 0.0439
C11_2 C 0.66727(9) 0.52338(9) 0.2313(2)
H13_2 H 0.6630 0.5311 0.2824
N17_2 N 0.62259(10) 0.61119(9) 0.1186(2)
C12_2 C 0.68109(12) 0.50345(12) 0.0817(2)
H14_2 H 0.6859 0.4962 0.0305
C13_2 C 0.72262(10) 0.43499(10) 0.4333(2)
H15_2 H 0.7309 0.4133 0.4157
C14_2 C 0.61375(12) 0.46904(11) 0.6977(2)
H16_2 H 0.6086 0.4825 0.7421
C15_2 C 0.59387(11) 0.57510(10) 0.2161(2)
H17_2 H 0.5865 0.5723 0.2680
C16_2 C 0.69828(10) 0.49809(11) 0.4838(2)
H18_2 H 0.6909 0.5200 0.5018
N18_2 N 0.44338(10) 0.58034(12) 0.1988(2)
C17_2 C 0.61610(11) 0.58579(11) 0.0651(2)
H19_2 H 0.6236 0.5893 0.0136
C18_2 C 0.62785(11) 0.42996(11) 0.5688(2)
H20_2 H 0.6338 0.4162 0.5254
C19_2 C 0.49241(11) 0.32569(9) 0.3554(3)
H21_2 H 0.4781 0.3219 0.3990
C20_2 C 0.48687(11) 0.57717(12) 0.2999(3)
H22_2 H 0.4960 0.5865 0.3463
C21_2 C 0.53302(10) 0.33758(9) 0.2278(2)
H23_2 H 0.5467 0.3405 0.1828
C22_2 C 0.56503(12) 0.36356(10) 0.4957(2)
C23_2 C 0.66514(11) 0.47999(11) 0.1315(2)
H24_2 H 0.6594 0.4576 0.1136
C24_2 C 0.45594(9) 0.44177(10) 0.2478(2)
C25_2 C 0.42041(11) 0.44191(13) 0.2678(3)
H25_2 H 0.4133 0.4418 0.3203
C26_2 C 0.61128(12) 0.60517(10) 0.1925(3)
H26_2 H 0.6155 0.6224 0.2303
C27_2 C 0.68317(10) 0.54527(10) 0.1778(2)
H27_2 H 0.6895 0.5677 0.1945
C28_2 C 0.52385(11) 0.30433(10) 0.2534(3)
H28_2 H 0.5320 0.2852 0.2243
C29_2 C 0.45809(12) 0.55152(14) 0.1669(3)
H29_2 H 0.4481 0.5425 0.1211
C30_2 C 0.45824(13) 0.59258(14) 0.2651(3)
H30_2 H 0.4486 0.6125 0.2886
C31_2 C 0.65019(12) 0.43200(12) 0.6329(3)
H31_2 H 0.6710 0.4192 0.6309
C32_2 C 0.53199(14) 0.37055(12) 0.5256(3)
H32_2 H 0.5199 0.3908 0.5112
C33_2 C 0.72927(11) 0.48379(12) 0.5105(3)
H33_2 H 0.7421 0.4963 0.5479
C34_2 C 0.48693(10) 0.53457(12) 0.1975(2)
H34_2 H 0.4961 0.5147 0.1730
C35_2 C 0.46398(12) 0.44185(15) 0.1700(3)
H35_2 H 0.4873 0.4414 0.1536
C36_2 C 0.51732(19) 0.34634(15) 0.5777(3)
H36_2 H 0.4950 0.3512 0.5974
N19_2 N 0.40297(12) 0.44302(18) 0.1331(3)
C37_2 C 0.43704(15) 0.4426(2) 0.1152(3)
H37_2 H 0.4432 0.4428 0.0621
C38_2 C 0.39596(12) 0.44217(16) 0.2076(4)
H38_2 H 0.3723 0.4417 0.2220
C39_2 C 0.58227(18) 0.33283(11) 0.5205(3)
H39_2 H 0.6047 0.3274 0.5025
C40_2 C 0.5650(3) 0.31122(15) 0.5718(4)
H40_2 H 0.5765 0.2908 0.5876
N20_2 N 0.5327(2) 0.31725(14) 0.6012(3)
Cu6_2 Cu 0.318417(16) 0.539949(14) 0.22539(3)
Cu7_2 Cu 0.710051(14) 0.568417(16) 0.02461(3)
P6_2 P 0.75279(2) 0.19124(2) 0.48401(4)
P7_2 P 0.24721(2) 0.30876(2) 0.48401(4)
P8_2 P 0.38157(2) 0.02525(2) 0.34030(5)
P9_2 P 0.72475(2) 0.13157(2) 0.40970(5)
P10_2 P 0.27525(2) 0.36843(2) 0.40970(5)
P11_2 P 0.47556(2) 0.06233(2) 0.29906(5)
P12_2 P 0.68767(2) 0.22556(2) 0.45094(5)
P13_2 P 0.31233(2) 0.27444(2) 0.45094(5)
P14_2 P 0.42596(2) 0.07252(2) 0.42212(5)
P15_2 P 0.67748(2) 0.17596(2) 0.32788(5)
P16_2 P 0.32252(2) 0.32404(2) 0.32788(5)
Cu16_2 Cu 0.902324(18) 0.10216(2) 0.65826(5)
Cu17_2 Cu 0.097676(18) 0.39784(2) 0.65826(5)
Cu18_2 Cu 0.402324(18) 0.60216(2) 0.15826(5)
Cu20_2 Cu 0.85216(2) 0.347676(18) 0.59174(5)
Cu21_2 Cu 0.14784(2) 0.152324(18) 0.59174(5)
N22_2 N 0.76749(7) 0.17897(7) 0.57241(16)
N23_2 N 0.23251(7) 0.32103(7) 0.57241(16)
H42_2 H 0.7539 0.1835 0.6117
H43_2 H 0.2461 0.3165 0.6117
N24_2 N 0.35331(7) 0.00634(7) 0.40232(16)
N25_2 N 0.74366(7) 0.10331(7) 0.34768(16)
N26_2 N 0.25634(7) 0.39669(7) 0.34768(16)
H45_2 H 0.7643 0.1086 0.3307
H46_2 H 0.2357 0.3914 0.3307
N28_2 N 0.78291(7) 0.21862(7) 0.44853(16)
N29_2 N 0.21709(7) 0.28138(7) 0.44853(16)
H48_2 H 0.7903 0.2140 0.4017
H49_2 H 0.2097 0.2860 0.4017
N30_2 N 0.35887(7) 0.03430(7) 0.25831(16)
N31_2 N 0.71570(7) 0.10887(7) 0.49169(16)
N32_2 N 0.28430(7) 0.39113(7) 0.49169(16)
H50_2 H 0.3572 0.0562 0.2456
H51_2 H 0.6938 0.1072 0.5044
H52_2 H 0.3062 0.3928 0.5044
C42_2 C 0.79903(8) 0.16236(8) 0.58993(19)
C43_2 C 0.20097(8) 0.33764(8) 0.58993(19)
C44_2 C 0.32224(8) 0.02068(9) 0.42885(19)
C45_2 C 0.72932(9) 0.07224(8) 0.32115(19)
C46_2 C 0.27068(9) 0.42776(8) 0.32115(19)
N33_2 N 0.46901(8) 0.09897(7) 0.24826(17)
N34_2 N 0.65103(7) 0.21901(8) 0.50174(17)
N35_2 N 0.34897(7) 0.28099(8) 0.50174(17)
H53_2 H 0.4587 0.0968 0.2034
H54_2 H 0.6532 0.2087 0.5466
H55_2 H 0.3468 0.2913 0.5466
N36_2 N 0.51876(7) 0.05792(8) 0.30757(17)
N37_2 N 0.69208(8) 0.26876(7) 0.44243(17)
N38_2 N 0.30792(8) 0.23124(7) 0.44243(17)
H56_2 H 0.5266 0.0551 0.3547
H57_2 H 0.6949 0.2766 0.3953
H58_2 H 0.3051 0.2234 0.3953
N39_2 N 0.25781(8) 0.04746(10) 0.4856(2)
N40_2 N 0.70254(10) 0.00781(8) 0.2644(2)
N41_2 N 0.29746(10) 0.49219(8) 0.2644(2)
N42_2 N 0.42810(7) 0.05203(7) 0.50896(16)
N43_2 N 0.69797(7) 0.17810(7) 0.24104(16)
N44_2 N 0.30203(7) 0.32190(7) 0.24104(16)
H59_2 H 0.4471 0.0402 0.5173
H60_2 H 0.7098 0.1971 0.2327
H61_2 H 0.2902 0.3029 0.2327
N45_2 N 0.45891(7) 0.03339(7) 0.24326(16)
N46_2 N 0.71661(7) 0.20891(7) 0.50674(16)
N47_2 N 0.28339(7) 0.29109(7) 0.50674(16)
N48_2 N 0.39263(7) 0.06324(7) 0.36986(16)
N49_2 N 0.68676(7) 0.14263(7) 0.38014(16)
N50_2 N 0.31324(7) 0.35737(7) 0.38014(16)
C48_2 C 0.79772(10) 0.24771(9) 0.4839(2)
C49_2 C 0.20228(10) 0.25229(9) 0.4839(2)
C50_2 C 0.40362(9) 0.05126(9) 0.5698(2)
C51_2 C 0.69874(9) 0.15362(9) 0.1802(2)
C52_2 C 0.30126(9) 0.34638(9) 0.1802(2)
N52_2 N 0.78643(9) 0.05982(8) 0.64725(19)
N53_2 N 0.21357(9) 0.44018(8) 0.64725(19)
N54_2 N 0.80982(8) 0.46357(9) 0.60275(19)
N55_2 N 0.19018(8) 0.03643(9) 0.60275(19)
N57_2 N 0.28643(9) 0.55982(8) 0.14725(19)
C53_2 C 0.30922(9) 0.05306(9) 0.4035(2)
C54_2 C 0.69694(9) 0.05922(9) 0.3465(2)
C55_2 C 0.30306(9) 0.44078(9) 0.3465(2)
H62_2 H 0.3217 0.0665 0.3671
H63_2 H 0.6835 0.0717 0.3829
H64_2 H 0.3165 0.4283 0.3829
C56_2 C 0.50002(10) 0.14005(9) 0.3352(2)
C57_3 C 0.60995(9) 0.25002(10) 0.4148(2)
C58_3 C 0.39005(9) 0.24998(10) 0.4148(2)
H65_2 H 0.5093 0.1216 0.3647
H66_2 H 0.6284 0.2593 0.3853
H67_2 H 0.3716 0.2407 0.3853
C59_2 C 0.34242(8) 0.01040(9) 0.20846(19)
C60_2 C 0.73960(9) 0.09242(8) 0.54154(19)
C61_2 C 0.26040(9) 0.40758(8) 0.54154(19)
N59_2 N 0.75427(7) 0.16034(7) 0.42110(16)
N60_2 N 0.24573(7) 0.33966(7) 0.42110(16)
N61_2 N 0.46409(7) 0.06502(7) 0.38874(16)
N62_2 N 0.68498(7) 0.21409(7) 0.36126(16)
N63_2 N 0.31502(7) 0.28591(7) 0.36126(16)
N64_2 N 0.49573(8) 0.20245(8) 0.3165(2)
N65_2 N 0.54755(8) 0.24573(8) 0.4335(2)
N66_2 N 0.45245(8) 0.25427(8) 0.4335(2)
C62_2 C 0.47858(9) 0.13312(9) 0.2709(2)
C63_2 C 0.61688(9) 0.22858(9) 0.4791(2)
C64_2 C 0.38312(9) 0.27142(9) 0.4791(2)
N67_2 N 0.41807(8) 0.11436(7) 0.44249(18)
N68_2 N 0.63564(7) 0.16807(8) 0.30751(18)
N69_2 N 0.36436(7) 0.33193(8) 0.30751(18)
H68_2 H 0.4011 0.1238 0.4164
H69_2 H 0.6262 0.1511 0.3336
H70_2 H 0.3738 0.3489 0.3336
C65_2 C 0.41034(10) 0.03097(11) 0.6366(2)
C66_2 C 0.71903(11) 0.16034(10) 0.1134(2)
C67_2 C 0.28097(11) 0.33966(10) 0.1134(2)
H71_2 H 0.4308 0.0176 0.6400
H72_2 H 0.7324 0.1808 0.1100
H73_2 H 0.2676 0.3192 0.1100
N70_2 N 0.35607(9) 0.04895(9) 0.69720(19)
N76_2 N 0.35607(9) 0.54895(9) 0.30280(19)
C69_2 C 0.80509(9) 0.15100(9) 0.6671(2)
C70_2 C 0.19491(9) 0.34900(9) 0.6671(2)
H75_2 H 0.7884 0.1550 0.7061
H76_2 H 0.2116 0.3450 0.7061
C72_2 C 0.77338(9) 0.08273(9) 0.5187(2)
C73_2 C 0.22662(9) 0.41727(9) 0.5187(2)
H78_2 H 0.7811 0.0870 0.4676
H79_2 H 0.2189 0.4130 0.4676
N78_2 N 0.86119(9) 0.12741(10) 0.6314(2)
N79_2 N 0.13881(9) 0.37259(10) 0.6314(2)
C75_2 C 0.75345(12) 0.06891(12) 0.6683(2)
C76_2 C 0.24655(12) 0.43109(12) 0.6683(2)
H80_2 H 0.3141 0.0038 0.0305
H81_2 H 0.7462 0.0641 0.7195
H82_2 H 0.2538 0.4359 0.7195
C77_2 C 0.27738(10) 0.06501(10) 0.4333(2)
C78_2 C 0.68499(10) 0.02738(10) 0.3167(2)
C79_2 C 0.31501(10) 0.47262(10) 0.3167(2)
H83_2 H 0.2691 0.0867 0.4157
H84_2 H 0.6633 0.0191 0.3343
H85_2 H 0.3367 0.4809 0.3343
C80_2 C 0.38625(12) 0.03096(11) 0.6977(2)
C81_2 C 0.71904(11) 0.13625(12) 0.0523(2)
C82_2 C 0.28096(11) 0.36375(12) 0.0523(2)
H86_2 H 0.3914 0.0175 0.7421
H87_2 H 0.7325 0.1414 0.0079
H88_2 H 0.2675 0.3586 0.0079
C84_2 C 0.82510(10) 0.15613(11) 0.5339(2)
C85_2 C 0.17490(10) 0.34387(11) 0.5339(2)
H90_2 H 0.8223 0.1635 0.4820
H91_2 H 0.1777 0.3365 0.4820
C86_2 C 0.30172(10) 0.00191(11) 0.4838(2)
C87_2 C 0.74809(11) 0.05172(10) 0.2662(2)
C88_2 C 0.25191(11) 0.44828(10) 0.2662(2)
H93 H 0.7700 0.0591 0.2482
H94_2 H 0.2300 0.4409 0.2482
N81_2 N 0.83034(12) 0.30662(10) 0.5512(2)
N82_2 N 0.16966(12) 0.19338(10) 0.5512(2)
N83_2 N 0.66966(12) 0.69338(10) 0.0512(2)
N85_2 N 0.94338(10) 0.08034(12) 0.6988(2)
N86_2 N 0.05662(10) 0.41966(12) 0.6988(2)
C90_2 C 0.83579(11) 0.13390(11) 0.6849(2)
C91_2 C 0.16421(11) 0.36610(11) 0.6849(2)
H96_2 H 0.8393 0.1264 0.7364
H97_2 H 0.1607 0.3736 0.7364
C92_2 C 0.37215(11) 0.07004(11) 0.5688(2)
C93_2 C 0.67996(11) 0.12215(11) 0.1812(2)
C94_2 C 0.32004(11) 0.37785(11) 0.1812(2)
H98_2 H 0.3662 0.0838 0.5254
H99_2 H 0.6662 0.1162 0.2246
H100_2 H 0.3338 0.3838 0.2246
C95_2 C 0.50759(11) 0.17431(9) 0.3554(3)
C96_2 C 0.57569(9) 0.25759(11) 0.3946(3)
C97_2 C 0.42431(9) 0.24241(11) 0.3946(3)
H101_2 H 0.5219 0.1781 0.3990
H102_2 H 0.5719 0.2719 0.3510
H103_2 H 0.4281 0.2281 0.3510
C99_2 C 0.82717(12) 0.26313(11) 0.4501(3)
C100_2 C 0.17283(12) 0.23687(11) 0.4501(3)
H105_2 H 0.8365 0.2540 0.4037
H106_2 H 0.1635 0.2460 0.4037
C101_2 C 0.46698(10) 0.16242(9) 0.2278(2)
C102_2 C 0.58758(9) 0.21698(10) 0.5222(2)
C103_2 C 0.41242(9) 0.28302(10) 0.5222(2)
H107_2 H 0.4533 0.1595 0.1828
H108_2 H 0.5905 0.2033 0.5672
H109_2 H 0.4095 0.2967 0.5672
C104_2 C 0.43497(12) 0.13644(10) 0.4957(2)
C105_2 C 0.61356(10) 0.18497(12) 0.2543(2)
C106_2 C 0.38644(10) 0.31503(12) 0.2543(2)
C107_2 C 0.33486(11) 0.02001(11) 0.1315(2)
C108_2 C 0.72999(11) 0.08486(11) 0.6185(2)
C109_2 C 0.27001(11) 0.41514(11) 0.6185(2)
H110_2 H 0.3406 0.0424 0.1136
H111_2 H 0.7076 0.0906 0.6364
H112_2 H 0.2924 0.4094 0.6364
C110_2 C 0.54406(9) 0.05823(10) 0.2478(2)
C111_2 C 0.69177(10) 0.29406(9) 0.5022(2)
C112_2 C 0.30823(10) 0.20594(9) 0.5022(2)
C113_2 C 0.57959(11) 0.05809(13) 0.2678(3)
C114_2 C 0.69191(13) 0.32959(11) 0.4822(3)
C115_2 C 0.30809(13) 0.17041(11) 0.4822(3)
H113_2 H 0.5867 0.0582 0.3203
H114_2 H 0.6918 0.3367 0.4297
H115_2 H 0.3082 0.1633 0.4297
C117_2 C 0.85517(10) 0.13872(12) 0.5575(3)
C118_2 C 0.14483(10) 0.36128(12) 0.5575(3)
H117_2 H 0.8724 0.1345 0.5197
H118_2 H 0.1276 0.3655 0.5197
C120_2 C 0.79527(10) 0.06683(10) 0.5722(2)
C121_2 C 0.20473(10) 0.43317(10) 0.5722(2)
H120_2 H 0.8177 0.0605 0.5555
H121_2 H 0.1823 0.4395 0.5555
C122_2 C 0.47615(11) 0.19567(10) 0.2534(3)
C123_2 C 0.55433(10) 0.22615(11) 0.4966(3)
C124_2 C 0.44567(10) 0.27385(11) 0.4966(3)
H122_2 H 0.4680 0.2148 0.2243
H123_2 H 0.5352 0.2180 0.5257
H124_2 H 0.4648 0.2820 0.5257
C126_2 C 0.80152(14) 0.29191(12) 0.5831(3)
C127_2 C 0.19848(14) 0.20809(12) 0.5831(3)
H126_2 H 0.7925 0.3019 0.6289
H127_2 H 0.2075 0.1981 0.6289
C129_2 C 0.84258(14) 0.29176(13) 0.4849(3)
C130_2 C 0.15742(14) 0.20824(13) 0.4849(3)
H129_2 H 0.8625 0.3014 0.4614
H130_2 H 0.1375 0.1986 0.4614
C131_2 C 0.34981(12) 0.06800(12) 0.6329(3)
C132_2 C 0.68200(12) 0.09981(12) 0.1171(3)
C133_2 C 0.31800(12) 0.40019(12) 0.1171(3)
H131_2 H 0.3290 0.0808 0.6309
H132_2 H 0.6692 0.0790 0.1191
H133_2 H 0.3308 0.4210 0.1191
C134_2 C 0.46801(14) 0.12945(12) 0.5256(3)
C135_2 C 0.62055(12) 0.21801(14) 0.2244(3)
C136_2 C 0.37945(12) 0.28199(14) 0.2244(3)
H134_2 H 0.4801 0.1092 0.5112
H135_2 H 0.6408 0.2301 0.2388
H136_2 H 0.3592 0.2699 0.2388
C137_2 C 0.27073(11) 0.01621(12) 0.5105(3)
C138_2 C 0.73379(12) 0.02073(11) 0.2395(3)
C139_2 C 0.26621(12) 0.47927(11) 0.2395(3)
H137_2 H 0.2579 0.0037 0.5479
H138_2 H 0.7463 0.0079 0.2021
H139_2 H 0.2537 0.4921 0.2021
C141_2 C 0.78457(12) 0.26307(10) 0.5525(2)
C142_2 C 0.21543(12) 0.23693(10) 0.5525(2)
H141_2 H 0.7647 0.2539 0.5770
H142_2 H 0.2353 0.2461 0.5770
C143_2 C 0.53602(12) 0.05815(15) 0.1700(3)
C144_2 C 0.69185(15) 0.28602(12) 0.5800(3)
C145_2 C 0.30815(15) 0.21398(12) 0.5800(3)
H143_2 H 0.5127 0.0586 0.1536
H144_2 H 0.6914 0.2627 0.5964
H145_2 H 0.3086 0.2373 0.5964
C146_2 C 0.48268(19) 0.15366(15) 0.5777(3)
C147_2 C 0.59634(15) 0.23268(19) 0.1723(3)
C148_2 C 0.40366(15) 0.26732(19) 0.1723(3)
H146_2 H 0.5050 0.1488 0.5974
H147_2 H 0.6012 0.2550 0.1526
H148_2 H 0.3988 0.2450 0.1526
N87_2 N 0.59703(12) 0.05698(18) 0.1331(3)
N88_2 N 0.69302(18) 0.34703(12) 0.6169(3)
N89_2 N 0.30698(18) 0.15297(12) 0.6169(3)
C149_2 C 0.56296(15) 0.0574(2) 0.1152(3)
C150_2 C 0.6926(2) 0.31296(15) 0.6348(3)
C151_2 C 0.3074(2) 0.18704(15) 0.6348(3)
H149_2 H 0.5568 0.0572 0.0621
H150_2 H 0.6928 0.3068 0.6879
H151_2 H 0.3072 0.1932 0.6879
C152_2 C 0.60404(12) 0.05783(16) 0.2076(4)
C153_2 C 0.69217(16) 0.35404(12) 0.5424(4)
C154_2 C 0.30783(16) 0.14596(12) 0.5424(4)
H152_2 H 0.6277 0.0583 0.2220
H153_2 H 0.6917 0.3777 0.5280
H154_2 H 0.3083 0.1223 0.5280
C155_2 C 0.41773(18) 0.16717(11) 0.5205(3)
C156_2 C 0.58283(11) 0.16773(18) 0.2295(3)
C157_2 C 0.41717(11) 0.33227(18) 0.2295(3)
H155_2 H 0.3953 0.1726 0.5025
H156_2 H 0.5774 0.1453 0.2475
H157_2 H 0.4226 0.3547 0.2475
C158_2 C 0.4350(3) 0.18878(15) 0.5718(4)
C159_2 C 0.56122(15) 0.1850(3) 0.1782(4)
C160_2 C 0.43878(15) 0.3150(3) 0.1782(4)
H158_2 H 0.4235 0.2092 0.5876
H159_2 H 0.5408 0.1735 0.1624
H160_2 H 0.4592 0.3265 0.1624
N90_2 N 0.4673(2) 0.18275(14) 0.6012(3)
N91_2 N 0.56725(14) 0.2173(2) 0.1488(3)
N92_2 N 0.43275(14) 0.2827(2) 0.1488(3)
Cu5_2 Cu 0.681583(16) 0.960051(14) 0.22539(3)
Cu9_2 Cu 0.289949(14) 0.931583(16) 0.02461(3)
P5_2 P 0.44124(2) 0.99721(2) 0.26599(4)
Cu15_2 Cu 0.35216(2) 0.847676(18) 0.09174(5)
Cu19_2 Cu 0.597676(18) 0.89784(2) 0.15826(5)
N21_2 N 0.42897(7) 0.98251(7) 0.17759(16)
H41_2 H 0.4335 0.9961 0.1383
H44_2 H 0.3586 0.9857 0.4193
N27_2 N 0.46862(7) 0.96709(7) 0.30147(16)
H47_2 H 0.4640 0.9597 0.3483
C41_2 C 0.41236(8) 0.95097(8) 0.16007(19)
C47_2 C 0.49771(9) 0.95228(10) 0.2661(2)
N51_2 N 0.30982(8) 0.96357(9) 0.10275(19)
N56_2 N 0.71357(9) 0.94018(8) 0.14725(19)
N58_2 N 0.41034(7) 0.99573(7) 0.32890(16)
N75_2 N 0.64393(9) 0.95105(9) 0.30280(19)
C68_2 C 0.40100(9) 0.94491(9) 0.0829(2)
H74_2 H 0.4050 0.9616 0.0439
C71_2 C 0.33273(9) 0.97662(9) 0.2313(2)
H77_2 H 0.3370 0.9689 0.2824
N77_2 N 0.37741(10) 0.88881(9) 0.1186(2)
C74_2 C 0.31891(12) 0.99655(12) 0.0817(2)
C83_2 C 0.40613(11) 0.92490(10) 0.2161(2)
H89_2 H 0.4135 0.9277 0.2680
H92_2 H 0.3091 0.9800 0.5018
N80_2 N 0.55662(10) 0.91966(12) 0.1988(2)
N84_2 N 0.33034(12) 0.80662(10) 0.0512(2)
C89_2 C 0.38390(11) 0.91421(11) 0.0651(2)
H95_2 H 0.3764 0.9107 0.0136
C98_2 C 0.51313(11) 0.92283(12) 0.2999(3)
H104_2 H 0.5040 0.9135 0.3463
C116_2 C 0.38872(12) 0.89483(10) 0.1925(3)
H116_2 H 0.3845 0.8776 0.2303
C119_2 C 0.31683(10) 0.95473(10) 0.1778(2)
H119_2 H 0.3105 0.9323 0.1945
C125_2 C 0.54191(12) 0.94848(14) 0.1669(3)
H125_2 H 0.5519 0.9575 0.1211
C128_2 C 0.54176(13) 0.90742(14) 0.2651(3)
H128_2 H 0.5514 0.8875 0.2886
C140_2 C 0.51307(10) 0.96543(12) 0.1975(2)
H140_2 H 0.5039 0.9853 0.1730
P7_3 P 0.55876(2) 0.00279(2) 0.73401(4)
N23_3 N 0.57103(7) 0.01749(7) 0.82241(16)
H43_3 H 0.5665 0.0039 0.8617
H46_3 H 0.6414 0.0143 0.5807
N29_3 N 0.53138(7) 0.03291(7) 0.69853(16)
H49_3 H 0.5360 0.0403 0.6517
C43_3 C 0.58764(8) 0.04903(8) 0.83993(19)
C49_3 C 0.50229(9) 0.04772(10) 0.7339(2)
N60_3 N 0.58966(7) 0.00427(7) 0.67110(16)
C70_3 C 0.59900(9) 0.05509(9) 0.9171(2)
H76_3 H 0.5950 0.0384 0.9561
C73_3 C 0.66727(9) 0.02338(9) 0.7687(2)
H79_3 H 0.6630 0.0311 0.7176
N79_3 N 0.62259(10) 0.11119(9) 0.8814(2)
C76_3 C 0.68109(12) 0.00345(12) 0.9183(2)
C85_3 C 0.59387(11) 0.07510(10) 0.7839(2)
H91_3 H 0.5865 0.0723 0.7320
H94_3 H 0.6909 0.0200 0.4982
C91_3 C 0.61610(11) 0.08579(11) 0.9349(2)
H97_3 H 0.6236 0.0893 0.9864
C100_3 C 0.48687(11) 0.07717(12) 0.7001(3)
H106_3 H 0.4960 0.0865 0.6537
C118_3 C 0.61128(12) 0.10517(10) 0.8075(3)
H118_3 H 0.6155 0.1224 0.7697
C121_3 C 0.68317(10) 0.04527(10) 0.8222(2)
H121_3 H 0.6895 0.0677 0.8055
C127_3 C 0.45809(12) 0.05152(14) 0.8331(3)
H127_3 H 0.4481 0.0425 0.8789
C130_3 C 0.45824(13) 0.09258(14) 0.7349(3)
H130_3 H 0.4486 0.1125 0.7114
C142_3 C 0.48693(10) 0.03457(12) 0.8025(2)
H142_3 H 0.4961 0.0147 0.8270
Cu1_4 Cu 0.5000 0.7500 0.6250
P1_3 P 0.75279(2) 0.69124(2) 0.51599(4)
P2_3 P 0.72475(2) 0.63157(2) 0.59030(5)
P3_3 P 0.68767(2) 0.72556(2) 0.54906(5)
P4_3 P 0.67748(2) 0.67596(2) 0.67212(5)
N1_3 N 0.76749(7) 0.67897(7) 0.42759(16)
H1_3 H 0.7539 0.6835 0.3883
N2_3 N 0.74366(7) 0.60331(7) 0.65232(16)
H2_3 H 0.7643 0.6086 0.6693
N3_3 N 0.78291(7) 0.71862(7) 0.55147(16)
H3_3 H 0.7903 0.7140 0.5983
N4_3 N 0.71570(7) 0.60887(7) 0.50831(16)
H4_3 H 0.6938 0.6072 0.4956
C1_3 C 0.79903(8) 0.66236(8) 0.41007(19)
C2_3 C 0.72932(9) 0.57224(8) 0.67885(19)
N5_3 N 0.65103(7) 0.71901(8) 0.49826(17)
H5_3 H 0.6532 0.7087 0.4534
N6_3 N 0.69208(8) 0.76876(7) 0.55757(17)
H6_3 H 0.6949 0.7766 0.6047
N7_3 N 0.70254(10) 0.50781(8) 0.7356(2)
N8_3 N 0.69797(7) 0.67810(7) 0.75896(16)
H7_3 H 0.7098 0.6971 0.7673
N9_3 N 0.71661(7) 0.70891(7) 0.49326(16)
N10_3 N 0.68676(7) 0.64263(7) 0.61986(16)
C3_3 C 0.79772(10) 0.74771(9) 0.5161(2)
C4_3 C 0.69874(9) 0.65362(9) 0.8198(2)
C5_3 C 0.69694(9) 0.55922(9) 0.6535(2)
H8_3 H 0.6835 0.5717 0.6171
C6_3 C 0.60995(9) 0.75002(10) 0.5852(2)
H9_3 H 0.6284 0.7593 0.6147
C7_3 C 0.73960(9) 0.59242(8) 0.45846(19)
N12_3 N 0.75427(7) 0.66034(7) 0.57890(16)
N13_3 N 0.68498(7) 0.71409(7) 0.63874(16)
N14_3 N 0.54755(8) 0.74573(8) 0.5665(2)
C8_3 C 0.61688(9) 0.72858(9) 0.5209(2)
N15_3 N 0.63564(7) 0.66807(8) 0.69249(18)
H10_3 H 0.6262 0.6511 0.6664
C9_3 C 0.71903(11) 0.66034(10) 0.8866(2)
H11_3 H 0.7324 0.6808 0.8900
N16_3 N 0.70105(9) 0.60607(9) 0.94720(19)
C10_3 C 0.80509(9) 0.65100(9) 0.3329(2)
H12_3 H 0.7884 0.6550 0.2939
C11_3 C 0.77338(9) 0.58273(9) 0.4813(2)
H13_3 H 0.7811 0.5870 0.5324
N17_3 N 0.86119(9) 0.62741(10) 0.3686(2)
C12_3 C 0.75345(12) 0.56891(12) 0.3317(2)
H14_3 H 0.7462 0.5641 0.2805
C13_3 C 0.68499(10) 0.52738(10) 0.6833(2)
H15_3 H 0.6633 0.5191 0.6657
C14_3 C 0.71904(11) 0.63625(12) 0.9477(2)
H16_3 H 0.7325 0.6414 0.9921
C15_3 C 0.82510(10) 0.65613(11) 0.4661(2)
H17_3 H 0.8223 0.6635 0.5180
C16_3 C 0.74809(11) 0.55172(10) 0.7338(2)
H18_3 H 0.7700 0.5591 0.7518
C17_3 C 0.83579(11) 0.63390(11) 0.3151(2)
H19_3 H 0.8393 0.6264 0.2636
C18_3 C 0.67996(11) 0.62215(11) 0.8188(2)
H20_3 H 0.6662 0.6162 0.7754
C19_3 C 0.57569(9) 0.75759(11) 0.6054(3)
H21_3 H 0.5719 0.7719 0.6490
C20_3 C 0.82717(12) 0.76313(11) 0.5499(3)
H22_3 H 0.8365 0.7540 0.5963
C21_3 C 0.58758(9) 0.71698(10) 0.4778(2)
H23_3 H 0.5905 0.7033 0.4328
C22_3 C 0.61356(10) 0.68497(12) 0.7457(2)
C23_3 C 0.72999(11) 0.58486(11) 0.3815(2)
H24_3 H 0.7076 0.5906 0.3636
C24_3 C 0.69177(10) 0.79406(9) 0.4978(2)
C25_3 C 0.69191(13) 0.82959(11) 0.5178(3)
H25_3 H 0.6918 0.8367 0.5703
C26_3 C 0.85517(10) 0.63872(12) 0.4425(3)
H26_3 H 0.8724 0.6345 0.4803
C27_3 C 0.79527(10) 0.56683(10) 0.4278(2)
H27_3 H 0.8177 0.5605 0.4445
C28_3 C 0.55433(10) 0.72615(11) 0.5034(3)
H28_3 H 0.5352 0.7180 0.4743
C29_3 C 0.80152(14) 0.79191(12) 0.4169(3)
H29_3 H 0.7925 0.8019 0.3711
C30_3 C 0.84258(14) 0.79176(13) 0.5151(3)
H30_3 H 0.8625 0.8014 0.5386
C31_3 C 0.68200(12) 0.59981(12) 0.8829(3)
H31_3 H 0.6692 0.5790 0.8809
C32_3 C 0.62055(12) 0.71801(14) 0.7756(3)
H32_3 H 0.6408 0.7301 0.7612
C33_3 C 0.73379(12) 0.52073(11) 0.7605(3)
H33_3 H 0.7463 0.5079 0.7979
C34_3 C 0.78457(12) 0.76307(10) 0.4475(2)
H34_3 H 0.7647 0.7539 0.4230
C35_3 C 0.69185(15) 0.78602(12) 0.4200(3)
H35_3 H 0.6914 0.7627 0.4036
C36_3 C 0.59634(15) 0.73268(19) 0.8277(3)
H36_3 H 0.6012 0.7550 0.8474
N19_3 N 0.69302(18) 0.84703(12) 0.3831(3)
C37_3 C 0.6926(2) 0.81296(15) 0.3652(3)
H37_3 H 0.6928 0.8068 0.3121
C38_3 C 0.69217(16) 0.85404(12) 0.4576(4)
H38_3 H 0.6917 0.8777 0.4720
C39_3 C 0.58283(11) 0.66773(18) 0.7705(3)
H39_3 H 0.5774 0.6453 0.7525
C40_3 C 0.56122(15) 0.6850(3) 0.8218(4)
H40_3 H 0.5408 0.6735 0.8376
N20_3 N 0.56725(14) 0.7173(2) 0.8512(3)
P5_3 P 0.24721(2) 0.80876(2) 0.51599(4)
P6_3 P 0.44124(2) 0.49721(2) 0.73401(4)
P8_3 P 0.27525(2) 0.86843(2) 0.59030(5)
P9_3 P 0.38157(2) 0.52525(2) 0.65970(5)
P10_3 P 0.61843(2) 0.97475(2) 0.65970(5)
P11_3 P 0.31233(2) 0.77444(2) 0.54906(5)
P12_3 P 0.47556(2) 0.56233(2) 0.70094(5)
P13_3 P 0.52444(2) 0.93767(2) 0.70094(5)
P14_3 P 0.32252(2) 0.82404(2) 0.67212(5)
P15_3 P 0.42596(2) 0.57252(2) 0.57788(5)
P16_3 P 0.57404(2) 0.92748(2) 0.57788(5)
N21_3 N 0.23251(7) 0.82103(7) 0.42759(16)
N22_3 N 0.42897(7) 0.48251(7) 0.82241(16)
H41_3 H 0.2461 0.8165 0.3883
H42_3 H 0.4335 0.4961 0.8617
N24_3 N 0.25634(7) 0.89669(7) 0.65232(16)
N25_3 N 0.35331(7) 0.50634(7) 0.59768(16)
N26_3 N 0.64669(7) 0.99366(7) 0.59768(16)
H44_3 H 0.2357 0.8914 0.6693
H45_3 H 0.3586 0.4857 0.5807
N27_3 N 0.21709(7) 0.78138(7) 0.55147(16)
N28_3 N 0.46862(7) 0.46709(7) 0.69853(16)
H47_3 H 0.2097 0.7860 0.5983
H48_3 H 0.4640 0.4597 0.6517
N30_3 N 0.28430(7) 0.89113(7) 0.50831(16)
N31_3 N 0.35887(7) 0.53430(7) 0.74169(16)
N32_3 N 0.64113(7) 0.96570(7) 0.74169(16)
H50_3 H 0.3062 0.8928 0.4956
H51_3 H 0.3572 0.5562 0.7544
H52_3 H 0.6428 0.9438 0.7544
C41_3 C 0.20097(8) 0.83764(8) 0.41007(19)
C42_3 C 0.41236(8) 0.45097(8) 0.83993(19)
C44_3 C 0.27068(9) 0.92776(8) 0.67885(19)
C45_3 C 0.32224(8) 0.52068(9) 0.57115(19)
C46_3 C 0.67776(8) 0.97932(9) 0.57115(19)
N33_3 N 0.34897(7) 0.78099(8) 0.49826(17)
N34_3 N 0.46901(8) 0.59897(7) 0.75174(17)
N35_3 N 0.53099(8) 0.90103(7) 0.75174(17)
H53_3 H 0.3468 0.7913 0.4534
H54_3 H 0.4587 0.5968 0.7966
H55_3 H 0.5413 0.9032 0.7966
N36_3 N 0.30792(8) 0.73124(7) 0.55757(17)
N37_3 N 0.51876(7) 0.55792(8) 0.69243(17)
N38_3 N 0.48124(7) 0.94208(8) 0.69243(17)
H56_3 H 0.3051 0.7234 0.6047
H57_3 H 0.5266 0.5551 0.6453
H58_3 H 0.4734 0.9449 0.6453
N39_3 N 0.29746(10) 0.99219(8) 0.7356(2)
N40_3 N 0.25781(8) 0.54746(10) 0.5144(2)
N41_3 N 0.74219(8) 0.95254(10) 0.5144(2)
N42_3 N 0.30203(7) 0.82190(7) 0.75896(16)
N43_3 N 0.42810(7) 0.55203(7) 0.49104(16)
N44_3 N 0.57190(7) 0.94797(7) 0.49104(16)
H59_3 H 0.2902 0.8029 0.7673
H60_3 H 0.4471 0.5402 0.4827
H61_3 H 0.5529 0.9598 0.4827
N45_3 N 0.28339(7) 0.79109(7) 0.49326(16)
N46_3 N 0.45891(7) 0.53339(7) 0.75674(16)
N47_3 N 0.54109(7) 0.96661(7) 0.75674(16)
N48_3 N 0.31324(7) 0.85737(7) 0.61986(16)
N49_3 N 0.39263(7) 0.56324(7) 0.63014(16)
N50_3 N 0.60737(7) 0.93676(7) 0.63014(16)
C47_3 C 0.20228(10) 0.75229(9) 0.5161(2)
C48_3 C 0.49771(9) 0.45228(10) 0.7339(2)
C50_3 C 0.30126(9) 0.84638(9) 0.8198(2)
C51_3 C 0.40362(9) 0.55126(9) 0.4302(2)
C52_3 C 0.59638(9) 0.94874(9) 0.4302(2)
C53_3 C 0.30306(9) 0.94078(9) 0.6535(2)
C54_3 C 0.30922(9) 0.55306(9) 0.5965(2)
C55_3 C 0.69078(9) 0.94694(9) 0.5965(2)
H62_3 H 0.3165 0.9283 0.6171
H63_3 H 0.3217 0.5665 0.6329
H64_3 H 0.6783 0.9335 0.6329
C56_3 C 0.39005(9) 0.74998(10) 0.5852(2)
C57_4 C 0.50002(10) 0.64005(9) 0.6648(2)
C58_4 C 0.49998(10) 0.85995(9) 0.6648(2)
H65_3 H 0.3716 0.7407 0.6147
H66_3 H 0.5093 0.6216 0.6353
H67_3 H 0.4907 0.8784 0.6353
C59_3 C 0.26040(9) 0.90758(8) 0.45846(19)
C60_3 C 0.34242(8) 0.51040(9) 0.79154(19)
C61_3 C 0.65758(8) 0.98960(9) 0.79154(19)
N58_3 N 0.24573(7) 0.83966(7) 0.57890(16)
N59_3 N 0.41034(7) 0.49573(7) 0.67110(16)
N61_3 N 0.31502(7) 0.78591(7) 0.63874(16)
N62_3 N 0.46409(7) 0.56502(7) 0.61126(16)
N63_3 N 0.53591(7) 0.93498(7) 0.61126(16)
N64_3 N 0.45245(8) 0.75427(8) 0.5665(2)
N65_3 N 0.49573(8) 0.70245(8) 0.6835(2)
N66_3 N 0.50427(8) 0.79755(8) 0.6835(2)
C62_3 C 0.38312(9) 0.77142(9) 0.5209(2)
C63_3 C 0.47858(9) 0.63312(9) 0.7291(2)
C64_3 C 0.52142(9) 0.86688(9) 0.7291(2)
N67_3 N 0.36436(7) 0.83193(8) 0.69249(18)
N68_3 N 0.41807(8) 0.61436(7) 0.55751(18)
N69_3 N 0.58193(8) 0.88564(7) 0.55751(18)
H68_3 H 0.3738 0.8489 0.6664
H69_3 H 0.4011 0.6238 0.5836
H70_3 H 0.5989 0.8762 0.5836
C65_3 C 0.28097(11) 0.83966(10) 0.8866(2)
C66_3 C 0.41034(10) 0.53097(11) 0.3634(2)
C67_3 C 0.58966(10) 0.96903(11) 0.3634(2)
H71_3 H 0.2676 0.8192 0.8900
H72_3 H 0.4308 0.5176 0.3600
H73_3 H 0.5692 0.9824 0.3600
N70_3 N 0.29895(9) 0.89393(9) 0.94720(19)
N75_3 N 0.20105(9) 0.60607(9) 0.55280(19)
N76_3 N 0.79895(9) 0.89393(9) 0.55280(19)
C68_3 C 0.19491(9) 0.84900(9) 0.3329(2)
C69_3 C 0.40100(9) 0.44491(9) 0.9171(2)
H74_3 H 0.2116 0.8450 0.2939
H75_3 H 0.4050 0.4616 0.9561
C71_3 C 0.22662(9) 0.91727(9) 0.4813(2)
C72_3 C 0.33273(9) 0.47662(9) 0.7687(2)
H77_3 H 0.2189 0.9130 0.5324
H78_3 H 0.3370 0.4689 0.7176
N77_3 N 0.13881(9) 0.87259(10) 0.3686(2)
N78_3 N 0.37741(10) 0.38881(9) 0.8814(2)
C74_3 C 0.24655(12) 0.93109(12) 0.3317(2)
C75_3 C 0.31891(12) 0.49655(12) 0.9183(2)
H80_3 H 0.2538 0.9359 0.2805
H81_3 H 0.3141 0.5038 0.9695
H82_3 H 0.6859 0.9962 0.9695
C77_3 C 0.31501(10) 0.97262(10) 0.6833(2)
C78_3 C 0.27738(10) 0.56501(10) 0.5667(2)
C79_3 C 0.72262(10) 0.93499(10) 0.5667(2)
H83_3 H 0.3367 0.9809 0.6657
H84_3 H 0.2691 0.5867 0.5843
H85_3 H 0.7309 0.9133 0.5843
C80_3 C 0.28096(11) 0.86375(12) 0.9477(2)
C81_3 C 0.38625(12) 0.53096(11) 0.3023(2)
C82_3 C 0.61375(12) 0.96904(11) 0.3023(2)
H86_3 H 0.2675 0.8586 0.9921
H87_3 H 0.3914 0.5175 0.2579
H88_3 H 0.6086 0.9825 0.2579
C83_3 C 0.17490(10) 0.84387(11) 0.4661(2)
C84_3 C 0.40613(11) 0.42490(10) 0.7839(2)
H89_3 H 0.1777 0.8365 0.5180
H90_3 H 0.4135 0.4277 0.7320
C86_3 C 0.25191(11) 0.94828(10) 0.7338(2)
C87_3 C 0.30172(10) 0.50191(11) 0.5162(2)
C88_3 C 0.69828(10) 0.99809(11) 0.5162(2)
H92_3 H 0.2300 0.9409 0.7518
H93_2 H 0.3091 0.4800 0.4982
C89_3 C 0.16421(11) 0.86610(11) 0.3151(2)
C90_3 C 0.38390(11) 0.41421(11) 0.9349(2)
H95_3 H 0.1607 0.8736 0.2636
H96_3 H 0.3764 0.4107 0.9864
C92_3 C 0.32004(11) 0.87785(11) 0.8188(2)
C93_3 C 0.37215(11) 0.57004(11) 0.4312(2)
C94_3 C 0.62785(11) 0.92996(11) 0.4312(2)
H98_3 H 0.3338 0.8838 0.7754
H99_3 H 0.3662 0.5838 0.4746
H100_3 H 0.6338 0.9162 0.4746
C95_3 C 0.42431(9) 0.74241(11) 0.6054(3)
C96_3 C 0.50759(11) 0.67431(9) 0.6446(3)
C97_3 C 0.49241(11) 0.82569(9) 0.6446(3)
H101_3 H 0.4281 0.7281 0.6490
H102_3 H 0.5219 0.6781 0.6010
H103_3 H 0.4781 0.8219 0.6010
C98_3 C 0.17283(12) 0.73687(11) 0.5499(3)
C99_3 C 0.51313(11) 0.42283(12) 0.7001(3)
H104_3 H 0.1635 0.7460 0.5963
H105_3 H 0.5040 0.4135 0.6537
C101_3 C 0.41242(9) 0.78302(10) 0.4778(2)
C102_3 C 0.46698(10) 0.66242(9) 0.7722(2)
C103_3 C 0.53302(10) 0.83758(9) 0.7722(2)
H107_3 H 0.4095 0.7967 0.4328
H108_3 H 0.4533 0.6595 0.8172
H109_3 H 0.5467 0.8405 0.8172
C104_3 C 0.38644(10) 0.81503(12) 0.7457(2)
C105_3 C 0.43497(12) 0.63644(10) 0.5043(2)
C106_3 C 0.56503(12) 0.86356(10) 0.5043(2)
C107_3 C 0.27001(11) 0.91514(11) 0.3815(2)
C108_3 C 0.33486(11) 0.52001(11) 0.8685(2)
C109_3 C 0.66514(11) 0.97999(11) 0.8685(2)
H110_3 H 0.2924 0.9094 0.3636
H111_3 H 0.3406 0.5424 0.8864
H112_3 H 0.6594 0.9576 0.8864
C110_3 C 0.30823(10) 0.70594(9) 0.4978(2)
C111_3 C 0.54406(9) 0.55823(10) 0.7522(2)
C112_3 C 0.45594(9) 0.94177(10) 0.7522(2)
C113_3 C 0.30809(13) 0.67041(11) 0.5178(3)
C114_3 C 0.57959(11) 0.55809(13) 0.7322(3)
C115_3 C 0.42041(11) 0.94191(13) 0.7322(3)
H113_3 H 0.3082 0.6633 0.5703
H114_3 H 0.5867 0.5582 0.6797
H115_3 H 0.4133 0.9418 0.6797
C116_3 C 0.14483(10) 0.86128(12) 0.4425(3)
C117_3 C 0.38872(12) 0.39483(10) 0.8075(3)
H116_3 H 0.1276 0.8655 0.4803
H117_3 H 0.3845 0.3776 0.7697
C119_3 C 0.20473(10) 0.93317(10) 0.4278(2)
C120_3 C 0.31683(10) 0.45473(10) 0.8222(2)
H119_3 H 0.1823 0.9395 0.4445
H120_3 H 0.3105 0.4323 0.8055
C122_3 C 0.44567(10) 0.77385(11) 0.5034(3)
C123_3 C 0.47615(11) 0.69567(10) 0.7466(3)
C124_3 C 0.52385(11) 0.80433(10) 0.7466(3)
H122_3 H 0.4648 0.7820 0.4743
H123_3 H 0.4680 0.7148 0.7757
H124_3 H 0.5320 0.7852 0.7757
C125_3 C 0.19848(14) 0.70809(12) 0.4169(3)
C126_3 C 0.54191(12) 0.44848(14) 0.8331(3)
H125_3 H 0.2075 0.6981 0.3711
H126_3 H 0.5519 0.4575 0.8789
C128_3 C 0.15742(14) 0.70824(13) 0.5151(3)
C129_3 C 0.54176(13) 0.40742(14) 0.7349(3)
H128_3 H 0.1375 0.6986 0.5386
H129_3 H 0.5514 0.3875 0.7114
C131_3 C 0.31800(12) 0.90019(12) 0.8829(3)
C132_3 C 0.34981(12) 0.56800(12) 0.3671(3)
C133_3 C 0.65019(12) 0.93200(12) 0.3671(3)
H131_3 H 0.3308 0.9210 0.8809
H132_3 H 0.3290 0.5808 0.3691
H133_3 H 0.6710 0.9192 0.3691
C134_3 C 0.37945(12) 0.78199(14) 0.7756(3)
C135_3 C 0.46801(14) 0.62945(12) 0.4744(3)
C136_3 C 0.53199(14) 0.87055(12) 0.4744(3)
H134_3 H 0.3592 0.7699 0.7612
H135_3 H 0.4801 0.6092 0.4888
H136_3 H 0.5199 0.8908 0.4888
C137_3 C 0.26621(12) 0.97927(11) 0.7605(3)
C138_3 C 0.27073(11) 0.51621(12) 0.4895(3)
C139_3 C 0.72927(11) 0.98379(12) 0.4895(3)
H137_3 H 0.2537 0.9921 0.7979
H138_3 H 0.2579 0.5037 0.4521
H139_3 H 0.7421 0.9963 0.4521
C140_3 C 0.21543(12) 0.73693(10) 0.4475(2)
C141_3 C 0.51307(10) 0.46543(12) 0.8025(2)
H140_3 H 0.2353 0.7461 0.4230
H141_3 H 0.5039 0.4853 0.8270
C143_3 C 0.30815(15) 0.71398(12) 0.4200(3)
C144_3 C 0.53602(12) 0.55815(15) 0.8300(3)
C145_3 C 0.46398(12) 0.94185(15) 0.8300(3)
H143_3 H 0.3086 0.7373 0.4036
H144_3 H 0.5127 0.5586 0.8464
H145_3 H 0.4873 0.9414 0.8464
C146_3 C 0.40366(15) 0.76732(19) 0.8277(3)
C147_3 C 0.48268(19) 0.65366(15) 0.4223(3)
C148_3 C 0.51732(19) 0.84634(15) 0.4223(3)
H146_3 H 0.3988 0.7450 0.8474
H147_3 H 0.5050 0.6488 0.4026
H148_3 H 0.4950 0.8512 0.4026
N87_3 N 0.30698(18) 0.65297(12) 0.3831(3)
N88_3 N 0.59703(12) 0.55698(18) 0.8669(3)
N89_3 N 0.40297(12) 0.94302(18) 0.8669(3)
C149_3 C 0.3074(2) 0.68704(15) 0.3652(3)
C150_3 C 0.56296(15) 0.5574(2) 0.8848(3)
C151_3 C 0.43704(15) 0.9426(2) 0.8848(3)
H149_3 H 0.3072 0.6932 0.3121
H150_3 H 0.5568 0.5572 0.9379
H151_3 H 0.4432 0.9428 0.9379
C152_3 C 0.30783(16) 0.64596(12) 0.4576(4)
C153_3 C 0.60404(12) 0.55783(16) 0.7924(4)
C154_3 C 0.39596(12) 0.94217(16) 0.7924(4)
H152_3 H 0.3083 0.6223 0.4720
H153_3 H 0.6277 0.5583 0.7780
H154_3 H 0.3723 0.9417 0.7780
C155_3 C 0.41717(11) 0.83227(18) 0.7705(3)
C156_3 C 0.41773(18) 0.66717(11) 0.4795(3)
C157_3 C 0.58227(18) 0.83283(11) 0.4795(3)
H155_3 H 0.4226 0.8547 0.7525
H156_3 H 0.3953 0.6726 0.4975
H157_3 H 0.6047 0.8274 0.4975
C158_3 C 0.43878(15) 0.8150(3) 0.8218(4)
C159_3 C 0.4350(3) 0.68878(15) 0.4282(4)
C160_3 C 0.5650(3) 0.81122(15) 0.4282(4)
H158_3 H 0.4592 0.8265 0.8376
H159_3 H 0.4235 0.7092 0.4124
H160_3 H 0.5765 0.7908 0.4124
N90_3 N 0.43275(14) 0.7827(2) 0.8512(3)
N91_3 N 0.4673(2) 0.68275(14) 0.3988(3)
N92_3 N 0.5327(2) 0.81725(14) 0.3988(3)
P1_4 P 0.05876(2) 0.00279(2) 0.76599(4)
N1_4 N 0.07103(7) 0.01749(7) 0.67759(16)
H1_4 H 0.0665 0.0039 0.6383
H2_4 H 0.1414 0.0143 0.9193
N3_4 N 0.03138(7) 0.03291(7) 0.80147(16)
H3_4 H 0.0360 0.0403 0.8483
C1_4 C 0.08764(8) 0.04903(8) 0.66007(19)
C3_4 C 0.00229(9) 0.04772(10) 0.7661(2)
N12_4 N 0.08966(7) 0.00427(7) 0.82890(16)
C10_4 C 0.09900(9) 0.05509(9) 0.5829(2)
H12_4 H 0.0950 0.0384 0.5439
C11_4 C 0.16727(9) 0.02338(9) 0.7313(2)
H13_4 H 0.1630 0.0311 0.7824
N17_4 N 0.12259(10) 0.11119(9) 0.6186(2)
C12_4 C 0.18109(12) 0.00345(12) 0.5817(2)
C15_4 C 0.09387(11) 0.07510(10) 0.7161(2)
H17_4 H 0.0865 0.0723 0.7680
C17_4 C 0.11610(11) 0.08579(11) 0.5651(2)
H19_4 H 0.1236 0.0893 0.5136
C26_4 C 0.11128(12) 0.10517(10) 0.6925(3)
H26_4 H 0.1155 0.1224 0.7303
C27_4 C 0.18317(10) 0.04527(10) 0.6778(2)
H27_4 H 0.1895 0.0677 0.6945
N8_4 N 0.07190(7) 0.94797(7) 0.00896(16)
H7_4 H 0.0529 0.9598 0.0173
C4_4 C 0.09638(9) 0.94874(9) 0.0698(2)
C9_4 C 0.08966(10) 0.96903(11) 0.1366(2)
H11_4 H 0.0692 0.9824 0.1400
C14_4 C 0.11375(12) 0.96904(11) 0.1977(2)
H16_4 H 0.1086 0.9825 0.2421
C18_4 C 0.12785(11) 0.92996(11) 0.0688(2)
H20_4 H 0.1338 0.9162 0.0254
C31_4 C 0.15019(12) 0.93200(12) 0.1329(3)
H31_4 H 0.1710 0.9192 0.1309
C32_4 C 0.03199(14) 0.87055(12) 0.0256(3)
H32_4 H 0.0199 0.8908 0.0112
C33_4 C 0.22927(11) 0.98379(12) 0.0105(3)
H33_4 H 0.2421 0.9963 0.0479
C36_4 C 0.01732(19) 0.84634(15) 0.0777(3)
C39_4 C 0.08227(18) 0.83283(11) 0.0205(3)
H39_4 H 0.1047 0.8274 0.0025
C40_4 C 0.0650(3) 0.81122(15) 0.0718(4)
H40_4 H 0.0765 0.7908 0.0876
N20_4 N 0.0327(2) 0.81725(14) 0.1012(3)
N22_4 N 0.26749(7) 0.67897(7) 0.07241(16)
H42_4 H 0.2539 0.6835 0.1117
H51_4 H 0.1938 0.6072 0.0044
C42_4 C 0.29903(8) 0.66236(8) 0.08993(19)
N34_4 N 0.15103(7) 0.71901(8) 0.00174(17)
H54_4 H 0.1532 0.7087 0.0466
N46_4 N 0.21661(7) 0.70891(7) 0.00674(16)
C60_4 C 0.23960(9) 0.59242(8) 0.04154(19)
C69_4 C 0.30509(9) 0.65100(9) 0.1671(2)
H75_4 H 0.2884 0.6550 0.2061
C72_4 C 0.27338(9) 0.58273(9) 0.0187(2)
N78_4 N 0.36119(9) 0.62741(10) 0.1314(2)
C75_4 C 0.25345(12) 0.56891(12) 0.1683(2)
H81_4 H 0.2462 0.5641 0.2195
C84_4 C 0.32510(10) 0.65613(11) 0.0339(2)
C90_4 C 0.33579(11) 0.63390(11) 0.1849(2)
H96_4 H 0.3393 0.6264 0.2364
C102_4 C 0.08758(9) 0.71698(10) 0.0222(2)
H108_4 H 0.0905 0.7033 0.0672
C108_4 C 0.22999(11) 0.58486(11) 0.1185(2)
H111_4 H 0.2076 0.5906 0.1364
C111_4 C 0.19177(10) 0.79406(9) 0.0022(2)
C117_4 C 0.35517(10) 0.63872(12) 0.0575(3)
H117_4 H 0.3724 0.6345 0.0197
C120_4 C 0.29527(10) 0.56683(10) 0.0722(2)
H120_4 H 0.3177 0.5605 0.0555
H123_4 H 0.0352 0.7180 0.0257
C126_4 C 0.30152(14) 0.79191(12) 0.0831(3)
H126_4 H 0.2925 0.8019 0.1289
C141_4 C 0.28457(12) 0.76307(10) 0.0525(2)
H141_4 H 0.2647 0.7539 0.0770
C144_4 C 0.19185(15) 0.78602(12) 0.0800(3)
H144_4 H 0.1914 0.7627 0.0964
H146_4 H 0.0050 0.6488 0.0974
N88_4 N 0.19302(18) 0.84703(12) 0.1169(3)
C150_4 C 0.1926(2) 0.81296(15) 0.1348(3)
H150_4 H 0.1928 0.8068 0.1879
C153_4 C 0.19217(16) 0.85404(12) 0.0424(4)
H153_4 H 0.1917 0.8777 0.0280
Cu1_5 Cu 0.0000 0.7500 0.8750
P2_4 P 0.11843(2) 0.97475(2) 0.84030(5)
P3_4 P 0.02444(2) 0.93767(2) 0.79906(5)
P4_4 P 0.07404(2) 0.92748(2) 0.92212(5)
N2_4 N 0.14669(7) 0.99366(7) 0.90232(16)
N4_4 N 0.14113(7) 0.96570(7) 0.75831(16)
H4_4 H 0.1428 0.9438 0.7456
C2_4 C 0.17776(8) 0.97932(9) 0.92885(19)
N5_4 N 0.03099(8) 0.90103(7) 0.74826(17)
H5_4 H 0.0413 0.9032 0.7034
N7_4 N 0.24219(8) 0.95254(10) 0.9856(2)
N9_4 N 0.04109(7) 0.96661(7) 0.74326(16)
N10_4 N 0.10737(7) 0.93676(7) 0.86986(16)
C5_4 C 0.19078(9) 0.94694(9) 0.9035(2)
H8_4 H 0.1783 0.9335 0.8671
C6_4 C -0.00002(10) 0.85995(9) 0.8352(2)
C7_4 C 0.15758(8) 0.98960(9) 0.70846(19)
N13_4 N 0.03591(7) 0.93498(7) 0.88874(16)
N14_4 N 0.00427(8) 0.79755(8) 0.8165(2)
C8_4 C 0.02142(9) 0.86688(9) 0.7709(2)
N15_4 N 0.08193(8) 0.88564(7) 0.94249(18)
H10_4 H 0.0989 0.8762 0.9164
H14_4 H 0.1859 0.9962 0.5305
C13_4 C 0.22262(10) 0.93499(10) 0.9333(2)
H15_4 H 0.2309 0.9133 0.9157
C16_4 C 0.19828(10) 0.99809(11) 0.9838(2)
C21_4 C 0.03302(10) 0.83758(9) 0.7278(2)
H23_4 H 0.0467 0.8405 0.6828
C22_4 C 0.06503(12) 0.86356(10) 0.9957(2)
C23_4 C 0.16514(11) 0.97999(11) 0.6315(2)
H24_4 H 0.1594 0.9576 0.6136
C28_4 C 0.02385(11) 0.80433(10) 0.7534(3)
H28_4 H 0.0320 0.7852 0.7243
P6_4 P 0.25279(2) 0.69124(2) 0.98401(4)
P9_4 P 0.22475(2) 0.63157(2) 0.90970(5)
P12_4 P 0.18767(2) 0.72556(2) 0.95094(5)
P15_4 P 0.17748(2) 0.67596(2) 0.82788(5)
N25_4 N 0.24366(7) 0.60331(7) 0.84768(16)
H45_4 H 0.2643 0.6086 0.8307
N28_4 N 0.28291(7) 0.71862(7) 0.94853(16)
H48_4 H 0.2903 0.7140 0.9017
N31_4 N 0.21570(7) 0.60887(7) 0.99169(16)
C45_4 C 0.22932(9) 0.57224(8) 0.82115(19)
N36_4 N 0.01876(7) 0.55792(8) 0.80757(17)
N37_4 N 0.19208(8) 0.76876(7) 0.94243(17)
H56_4 H 0.0266 0.5551 0.8547
H57_4 H 0.1949 0.7766 0.8953
N40_4 N 0.20254(10) 0.50781(8) 0.7644(2)
N43_4 N 0.19797(7) 0.67810(7) 0.74104(16)
H60_4 H 0.2098 0.6971 0.7327
N49_4 N 0.18676(7) 0.64263(7) 0.88014(16)
C48_4 C 0.29772(10) 0.74771(9) 0.9839(2)
C51_4 C 0.19874(9) 0.65362(9) 0.6802(2)
C54_4 C 0.19694(9) 0.55922(9) 0.8465(2)
H63_4 H 0.1835 0.5717 0.8829
C56_4 C 0.00002(10) 0.64005(9) 0.8352(2)
C57_5 C 0.10995(9) 0.75002(10) 0.9148(2)
H65_4 H 0.0093 0.6216 0.8647
H66_4 H 0.1284 0.7593 0.8853
N59_4 N 0.25427(7) 0.66034(7) 0.92110(16)
N62_4 N 0.18498(7) 0.71409(7) 0.86126(16)
N65_4 N 0.04755(8) 0.74573(8) 0.9335(2)
C63_4 C 0.11688(9) 0.72858(9) 0.9791(2)
N68_4 N 0.13564(7) 0.66807(8) 0.80751(18)
H69_4 H 0.1262 0.6511 0.8336
C66_4 C 0.21903(11) 0.66034(10) 0.6134(2)
H72_4 H 0.2324 0.6808 0.6100
H78_4 H 0.2811 0.5870 0.9676
C78_4 C 0.18499(10) 0.52738(10) 0.8167(2)
H84_4 H 0.1633 0.5191 0.8343
C81_4 C 0.21904(11) 0.63625(12) 0.5523(2)
H87_4 H 0.2325 0.6414 0.5079
H90_4 H 0.3223 0.6635 0.9820
C87_4 C 0.24809(11) 0.55172(10) 0.7662(2)
H93_3 H 0.2700 0.5591 0.7482
C93_4 C 0.17996(11) 0.62215(11) 0.6812(2)
H99_4 H 0.1662 0.6162 0.7246
C95_4 C 0.00759(11) 0.67431(9) 0.8554(3)
C96_4 C 0.07569(9) 0.75759(11) 0.8946(3)
H101_4 H 0.0219 0.6781 0.8990
H102_4 H 0.0719 0.7719 0.8510
C98_4 C 0.01313(11) 0.42283(12) 0.7999(3)
C99_4 C 0.32717(12) 0.76313(11) 0.9501(3)
H104_4 H 0.0040 0.4135 0.8463
H105_4 H 0.3365 0.7540 0.9037
C105_4 C 0.11356(10) 0.68497(12) 0.7543(2)
C110_4 C 0.04406(9) 0.55823(10) 0.7478(2)
C113_4 C 0.07959(11) 0.55809(13) 0.7678(3)
C114_4 C 0.19191(13) 0.82959(11) 0.9822(3)
H113_4 H 0.0867 0.5582 0.8203
H114_4 H 0.1918 0.8367 0.9297
C123_4 C 0.05433(10) 0.72615(11) 0.9966(3)
C125_4 C 0.04191(12) 0.44848(14) 0.6669(3)
H125_4 H 0.0519 0.4575 0.6211
C128_4 C 0.04176(13) 0.40742(14) 0.7651(3)
C129_4 C 0.34258(14) 0.79176(13) 0.9849(3)
H128_4 H 0.0514 0.3875 0.7886
H129_4 H 0.3625 0.8014 0.9614
C132_4 C 0.18200(12) 0.59981(12) 0.6171(3)
H132_4 H 0.1692 0.5790 0.6191
C135_4 C 0.12055(12) 0.71801(14) 0.7244(3)
H135_4 H 0.1408 0.7301 0.7388
C138_4 C 0.23379(12) 0.52073(11) 0.7395(3)
H138_4 H 0.2463 0.5079 0.7021
C140_4 C 0.01307(10) 0.46543(12) 0.6975(2)
H140_4 H 0.0039 0.4853 0.6730
C143_4 C 0.03602(12) 0.55815(15) 0.6700(3)
H143_4 H 0.0127 0.5586 0.6536
C147_4 C 0.09634(15) 0.73268(19) 0.6723(3)
H147_4 H 0.1012 0.7550 0.6526
N87_4 N 0.09703(12) 0.55698(18) 0.6331(3)
C149_4 C 0.06296(15) 0.5574(2) 0.6152(3)
H149_4 H 0.0568 0.5572 0.5621
C152_4 C 0.10404(12) 0.55783(16) 0.7076(4)
H152_4 H 0.1277 0.5583 0.7220
C156_4 C 0.08283(11) 0.66773(18) 0.7295(3)
H156_4 H 0.0774 0.6453 0.7475
C159_4 C 0.06122(15) 0.6850(3) 0.6782(4)
H159_4 H 0.0408 0.6735 0.6624
N91_4 N 0.06725(14) 0.7173(2) 0.6488(3)
C20_4 C 0.98687(11) 0.07717(12) 0.7999(3)
H22_4 H 0.9960 0.0865 0.8463
C29_4 C 0.95809(12) 0.05152(14) 0.6669(3)
H29_4 H 0.9481 0.0425 0.6211
C30_4 C 0.95824(13) 0.09258(14) 0.7651(3)
H30_4 H 0.9486 0.1125 0.7886
C34_4 C 0.98693(10) 0.03457(12) 0.6975(2)
H34_4 H 0.9961 0.0147 0.6730
H36_4 H 0.9950 0.8512 0.0974
N23_4 N 0.73251(7) 0.82103(7) 0.07241(16)
H43_4 H 0.7461 0.8165 0.1117
H52_4 H 0.8062 0.8928 0.0044
C43_4 C 0.70097(8) 0.83764(8) 0.08993(19)
N35_4 N 0.84897(7) 0.78099(8) 0.00174(17)
H55_4 H 0.8468 0.7913 0.0466
N42_4 N 0.92810(7) 0.55203(7) 0.00896(16)
H59_4 H 0.9471 0.5402 0.0173
N47_4 N 0.78339(7) 0.79109(7) 0.00674(16)
C50_4 C 0.90362(9) 0.55126(9) 0.0698(2)
C61_4 C 0.76040(9) 0.90758(8) 0.04154(19)
C65_4 C 0.91034(10) 0.53097(11) 0.1366(2)
H71_4 H 0.9308 0.5176 0.1400
C70_4 C 0.69491(9) 0.84900(9) 0.1671(2)
H76_4 H 0.7116 0.8450 0.2061
C73_4 C 0.72662(9) 0.91727(9) 0.0187(2)
N79_4 N 0.63881(9) 0.87259(10) 0.1314(2)
C76_4 C 0.74655(12) 0.93109(12) 0.1683(2)
H82_4 H 0.7538 0.9359 0.2195
C80_4 C 0.88625(12) 0.53096(11) 0.1977(2)
H86_4 H 0.8914 0.5175 0.2421
C85_4 C 0.67490(10) 0.84387(11) 0.0339(2)
H92_4 H 0.8091 0.4800 0.0018
C91_4 C 0.66421(11) 0.86610(11) 0.1849(2)
H97_4 H 0.6607 0.8736 0.2364
C92_4 C 0.87215(11) 0.57004(11) 0.0688(2)
H98_4 H 0.8662 0.5838 0.0254
C103_4 C 0.91242(9) 0.78302(10) 0.0222(2)
H109_4 H 0.9095 0.7967 0.0672
C109_4 C 0.77001(11) 0.91514(11) 0.1185(2)
H112_4 H 0.7924 0.9094 0.1364
C112_4 C 0.80823(10) 0.70594(9) 0.0022(2)
C118_4 C 0.64483(10) 0.86128(12) 0.0575(3)
H118_4 H 0.6276 0.8655 0.0197
C121_4 C 0.70473(10) 0.93317(10) 0.0722(2)
H121_4 H 0.6823 0.9395 0.0555
H124_4 H 0.9648 0.7820 0.0257
C127_4 C 0.69848(14) 0.70809(12) 0.0831(3)
H127_4 H 0.7075 0.6981 0.1289
C131_4 C 0.84981(12) 0.56800(12) 0.1329(3)
H131_4 H 0.8290 0.5808 0.1309
C134_4 C 0.96801(14) 0.62945(12) 0.0256(3)
H134_4 H 0.9801 0.6092 0.0112
C137_4 C 0.77073(11) 0.51621(12) 0.0105(3)
H137_4 H 0.7579 0.5037 0.0479
C142_4 C 0.71543(12) 0.73693(10) 0.0525(2)
H142_4 H 0.7353 0.7461 0.0770
C145_4 C 0.80815(15) 0.71398(12) 0.0800(3)
H145_4 H 0.8086 0.7373 0.0964
C146_4 C 0.98268(19) 0.65366(15) 0.0777(3)
N89_4 N 0.80698(18) 0.65297(12) 0.1169(3)
C151_4 C 0.8074(2) 0.68704(15) 0.1348(3)
H151_4 H 0.8072 0.6932 0.1879
C154_4 C 0.80783(16) 0.64596(12) 0.0424(4)
H154_4 H 0.8083 0.6223 0.0280
C155_4 C 0.91773(18) 0.66717(11) 0.0205(3)
H155_4 H 0.8953 0.6726 0.0025
C158_4 C 0.9350(3) 0.68878(15) 0.0718(4)
H158_4 H 0.9235 0.7092 0.0876
N90_4 N 0.9673(2) 0.68275(14) 0.1012(3)
Cu1_6 Cu 1.0000 0.7500 0.8750
N6_4 N 0.98124(7) 0.94208(8) 0.80757(17)
H6_4 H 0.9734 0.9449 0.8547
C6_5 C 0.99998(10) 0.85995(9) 0.8352(2)
H9_4 H 0.9907 0.8784 0.8647
C19_4 C 0.99241(11) 0.82569(9) 0.8554(3)
H21_4 H 0.9781 0.8219 0.8990
C24_4 C 0.95594(9) 0.94177(10) 0.7478(2)
C25_4 C 0.92041(11) 0.94191(13) 0.7678(3)
H25_4 H 0.9133 0.9418 0.8203
C35_4 C 0.96398(12) 0.94185(15) 0.6700(3)
H35_4 H 0.9873 0.9414 0.6536
N19_4 N 0.90297(12) 0.94302(18) 0.6331(3)
C37_4 C 0.93704(15) 0.9426(2) 0.6152(3)
H37_4 H 0.9432 0.9428 0.5621
C38_4 C 0.89596(12) 0.94217(16) 0.7076(4)
H38_4 H 0.8723 0.9417 0.7220
P5_4 P 0.94124(2) 0.49721(2) 0.76599(4)
P7_4 P 0.74721(2) 0.80876(2) 0.98401(4)
P8_4 P 0.88157(2) 0.52525(2) 0.84030(5)
P10_4 P 0.77525(2) 0.86843(2) 0.90970(5)
P11_4 P 0.97556(2) 0.56233(2) 0.79906(5)
P13_4 P 0.81233(2) 0.77444(2) 0.95094(5)
P14_4 P 0.92596(2) 0.57252(2) 0.92212(5)
P16_4 P 0.82252(2) 0.82404(2) 0.82788(5)
N21_4 N 0.92897(7) 0.48251(7) 0.67759(16)
H41_4 H 0.9335 0.4961 0.6383
N24_4 N 0.85331(7) 0.50634(7) 0.90232(16)
N26_4 N 0.75634(7) 0.89669(7) 0.84768(16)
H44_4 H 0.8586 0.4857 0.9193
H46_4 H 0.7357 0.8914 0.8307
N27_4 N 0.96862(7) 0.46709(7) 0.80147(16)
N29_4 N 0.71709(7) 0.78138(7) 0.94853(16)
H47_4 H 0.9640 0.4597 0.8483
H49_4 H 0.7097 0.7860 0.9017
N30_4 N 0.85887(7) 0.53430(7) 0.75831(16)
N32_4 N 0.78430(7) 0.89113(7) 0.99169(16)
H50_4 H 0.8572 0.5562 0.7456
C41_4 C 0.91236(8) 0.45097(8) 0.66007(19)
C44_4 C 0.82224(8) 0.52068(9) 0.92885(19)
C46_4 C 0.77068(9) 0.92776(8) 0.82115(19)
N33_4 N 0.96901(8) 0.59897(7) 0.74826(17)
H53_4 H 0.9587 0.5968 0.7034
N38_4 N 0.80792(8) 0.73124(7) 0.94243(17)
H58_4 H 0.8051 0.7234 0.8953
N39_4 N 0.75781(8) 0.54746(10) 0.9856(2)
N41_4 N 0.79746(10) 0.99219(8) 0.7644(2)
N44_4 N 0.80203(7) 0.82190(7) 0.74104(16)
H61_4 H 0.7902 0.8029 0.7327
N45_4 N 0.95891(7) 0.53339(7) 0.74326(16)
N48_4 N 0.89263(7) 0.56324(7) 0.86986(16)
N50_4 N 0.81324(7) 0.85737(7) 0.88014(16)
C47_4 C 0.99771(9) 0.45228(10) 0.7661(2)
C49_4 C 0.70228(10) 0.75229(9) 0.9839(2)
C52_4 C 0.80126(9) 0.84638(9) 0.6802(2)
C53_4 C 0.80922(9) 0.55306(9) 0.9035(2)
C55_4 C 0.80306(9) 0.94078(9) 0.8465(2)
H62_4 H 0.8217 0.5665 0.8671
H64_4 H 0.8165 0.9283 0.8829
C56_5 C 1.00002(10) 0.64005(9) 0.8352(2)
C58_5 C 0.89005(9) 0.74998(10) 0.9148(2)
H67_4 H 0.8716 0.7407 0.8853
C59_4 C 0.84242(8) 0.51040(9) 0.70846(19)
N58_4 N 0.91034(7) 0.49573(7) 0.82890(16)
N60_4 N 0.74573(7) 0.83966(7) 0.92110(16)
N61_4 N 0.96409(7) 0.56502(7) 0.88874(16)
N63_4 N 0.81502(7) 0.78591(7) 0.86126(16)
N64_4 N 0.99573(8) 0.70245(8) 0.8165(2)
N66_4 N 0.95245(8) 0.75427(8) 0.9335(2)
C62_4 C 0.97858(9) 0.63312(9) 0.7709(2)
C64_4 C 0.88312(9) 0.77142(9) 0.9791(2)
N67_4 N 0.91807(8) 0.61436(7) 0.94249(18)
N69_4 N 0.86436(7) 0.83193(8) 0.80751(18)
H68_4 H 0.9011 0.6238 0.9164
H70_4 H 0.8738 0.8489 0.8336
C67_4 C 0.78097(11) 0.83966(10) 0.6134(2)
H73_4 H 0.7676 0.8192 0.6100
C68_4 C 0.90100(9) 0.44491(9) 0.5829(2)
H74_4 H 0.9050 0.4616 0.5439
C71_4 C 0.83273(9) 0.47662(9) 0.7313(2)
H77_4 H 0.8370 0.4689 0.7824
H79_4 H 0.7189 0.9130 0.9676
N77_4 N 0.87741(10) 0.38881(9) 0.6186(2)
C74_4 C 0.81891(12) 0.49655(12) 0.5817(2)
H80_4 H 0.8141 0.5038 0.5305
C77_4 C 0.77738(10) 0.56501(10) 0.9333(2)
C79_4 C 0.81501(10) 0.97262(10) 0.8167(2)
H83_4 H 0.7691 0.5867 0.9157
H85_4 H 0.8367 0.9809 0.8343
C82_4 C 0.78096(11) 0.86375(12) 0.5523(2)
H88_4 H 0.7675 0.8586 0.5079
C83_4 C 0.90613(11) 0.42490(10) 0.7161(2)
H89_4 H 0.9135 0.4277 0.7680
H91_4 H 0.6777 0.8365 0.9820
C86_4 C 0.80172(10) 0.50191(11) 0.9838(2)
C88_4 C 0.75191(11) 0.94828(10) 0.7662(2)
H94_4 H 0.7300 0.9409 0.7482
C89_4 C 0.88390(11) 0.41421(11) 0.5651(2)
H95_4 H 0.8764 0.4107 0.5136
C94_4 C 0.82004(11) 0.87785(11) 0.6812(2)
H100_4 H 0.8338 0.8838 0.7246
C97_4 C 0.92431(9) 0.74241(11) 0.8946(3)
H103_4 H 0.9281 0.7281 0.8510
C100_4 C 0.67283(12) 0.73687(11) 0.9501(3)
H106_4 H 0.6635 0.7460 0.9037
C101_4 C 0.96698(10) 0.66242(9) 0.7278(2)
H107_4 H 0.9533 0.6595 0.6828
C104_4 C 0.93497(12) 0.63644(10) 0.9957(2)
C106_4 C 0.88644(10) 0.81503(12) 0.7543(2)
C107_4 C 0.83486(11) 0.52001(11) 0.6315(2)
H110_4 H 0.8406 0.5424 0.6136
C115_4 C 0.80809(13) 0.67041(11) 0.9822(3)
H115_4 H 0.8082 0.6633 0.9297
C116_4 C 0.88872(12) 0.39483(10) 0.6925(3)
H116_4 H 0.8845 0.3776 0.7303
C119_4 C 0.81683(10) 0.45473(10) 0.6778(2)
H119_4 H 0.8105 0.4323 0.6945
C122_4 C 0.97615(11) 0.69567(10) 0.7534(3)
C124_4 C 0.94567(10) 0.77385(11) 0.9966(3)
H122_4 H 0.9680 0.7148 0.7243
C130_4 C 0.65742(14) 0.70824(13) 0.9849(3)
H130_4 H 0.6375 0.6986 0.9614
C133_4 C 0.81800(12) 0.90019(12) 0.6171(3)
H133_4 H 0.8308 0.9210 0.6191
C136_4 C 0.87945(12) 0.78199(14) 0.7244(3)
H136_4 H 0.8592 0.7699 0.7388
C139_4 C 0.76621(12) 0.97927(11) 0.7395(3)
H139_4 H 0.7537 0.9921 0.7021
C148_4 C 0.90366(15) 0.76732(19) 0.6723(3)
H148_4 H 0.8988 0.7450 0.6526
C157_4 C 0.91717(11) 0.83227(18) 0.7295(3)
H157_4 H 0.9226 0.8547 0.7475
C160_4 C 0.93878(15) 0.8150(3) 0.6782(4)
H160_4 H 0.9592 0.8265 0.6624
N92_4 N 0.93275(14) 0.7827(2) 0.6488(3)
H93_4 H 0.8091 0.9800 0.9982
H18_4 H 0.1909 0.0200 0.0018
loop_
_geom_bond_atom_site_label_1
_geom_bond_atom_site_label_2
_geom_bond_site_symmetry_1
_geom_bond_site_symmetry_2
Cu1 N14 1_555 1_555
P2 N2 1_555 1_555
P4 N8 1_555 1_555
N2 H2 1_555 1_555
N3 P1 1_555 1_555
H3 N3 1_555 1_555
N4 P2 1_555 1_555
C2 N2 1_555 1_555
N6 P3 1_555 1_555
H6 N6 1_555 1_555
N7 C13 1_555 1_555
N8 H7 1_555 1_555
N10 P2 1_555 1_555
C3 N3 1_555 1_555
C4 N8 1_555 1_555
C5 C2 1_555 1_555
H8 C5 1_555 1_555
C6 H9 1_555 1_555
N12 P1 1_555 1_555
N13 P3 1_555 1_555
N14 C19 1_555 1_555
N15 P4 1_555 1_555
H10 N15 1_555 1_555
C9 C4 1_555 1_555
H11 C9 1_555 1_555
N16 C14 1_555 1_555
C13 C5 1_555 1_555
H15 C13 1_555 1_555
C14 C9 1_555 1_555
H16 C14 1_555 1_555
C16 C2 1_555 1_555
H18 C16 1_555 1_555
C18 C4 1_555 1_555
H20 C18 1_555 1_555
C19 C6 1_555 1_555
H21 C19 1_555 1_555
C20 C3 1_555 1_555
H22 C20 1_555 1_555
C22 N15 1_555 1_555
H25 C25 1_555 1_555
C28 N14 1_555 1_555
H30 C30 1_555 1_555
C31 N16 1_555 1_555
H31 C31 1_555 1_555
C32 C22 1_555 1_555
H32 C32 1_555 1_555
C33 N7 1_555 1_555
H33 C33 1_555 1_555
C36 C32 1_555 1_555
H36 C36 1_555 1_555
C39 C22 1_555 1_555
H39 C39 1_555 1_555
C40 C39 1_555 1_555
H40 C40 1_555 1_555
N20 C36 1_555 1_555
Cu8 N16 1_555 1_555
Cu13 N53 1_555 1_555
P7 N23 1_555 1_555
P10 N26 1_555 1_555
P13 N35 1_555 1_555
Cu17 N79 1_555 1_555
N23 H43 1_555 1_555
N26 H46 1_555 1_555
N29 P7 1_555 1_555
H49 N29 1_555 1_555
N32 P10 1_555 1_555
H52 N32 1_555 1_555
C43 N23 1_555 1_555
C46 N26 1_555 1_555
N35 H55 1_555 1_555
H57 N37 1_555 1_555
N41 C79 1_555 1_555
N47 P7 1_555 1_555
N50 P10 1_555 1_555
C49 N29 1_555 1_555
N53 C76 1_555 1_555
C55 C46 1_555 1_555
H64 C55 1_555 1_555
C57 H66 1_555 1_555
C61 N32 1_555 1_555
N60 P7 1_555 1_555
N63 P13 1_555 1_555
N66 Cu1 1_555 1_555
C64 N35 1_555 1_555
N69 P16 1_555 1_555
H70 N69 1_555 1_555
C70 C43 1_555 1_555
H76 C70 1_555 1_555
C73 C61 1_555 1_555
H79 C73 1_555 1_555
N79 C91 1_555 1_555
C76 H82 1_555 1_555
C79 C55 1_555 1_555
H85 C79 1_555 1_555
C85 C43 1_555 1_555
H91 C85 1_555 1_555
C88 C46 1_555 1_555
N86 Cu17 1_555 1_555
C91 C70 1_555 1_555
H97 C91 1_555 1_555
C96 C57 1_555 1_555
H102 C96 1_555 1_555
C103 C64 1_555 1_555
H109 C103 1_555 1_555
C106 N69 1_555 1_555
C109 C61 1_555 1_555
H112 C109 1_555 1_555
C111 N37 1_555 1_555
C114 C111 1_555 1_555
H114 C114 1_555 1_555
C118 N79 1_555 1_555
H118 C118 1_555 1_555
C121 N53 1_555 1_555
H121 C121 1_555 1_555
C124 N66 1_555 1_555
H124 C124 1_555 1_555
C144 C111 1_555 1_555
H144 C144 1_555 1_555
N88 C150 1_555 1_555
C150 C144 1_555 1_555
H150 C150 1_555 1_555
C153 C114 1_555 1_555
H153 C153 1_555 1_555
P2 N12 1_555 1_555
P4 N10 1_555 1_555
P4 N13 1_555 1_555
C6 C8 1_555 1_555
C16 C33 1_555 1_555
C18 C31 1_555 1_555
C20 C30 1_555 1_555
C40 N20 1_555 1_555
P10 N60 1_555 1_555
P13 N47 1_555 1_555
P16 N50 1_555 1_555
P16 N63 1_555 1_555
C58 C64 1_555 1_555
C73 C121 1_555 1_555
C76 C109 1_555 1_555
C85 C118 1_555 1_555
C103 C124 1_555 1_555
N88 C153 1_555 1_555
Cu3 N17 1_555 1_555
N1 H1 1_555 1_555
C1 N1 1_555 1_555
N5 H5 1_555 1_555
N11 C12 1_555 1_555
C10 C1 1_555 1_555
H12 C10 1_555 1_555
C11 C7 1_555 1_555
N17 C17 1_555 1_555
C12 H14 1_555 1_555
C15 C1 1_555 1_555
N18 C29 1_555 1_555
C17 C10 1_555 1_555
H19 C17 1_555 1_555
H23 C21 1_555 1_555
C23 C7 1_555 1_555
H24 C23 1_555 1_555
C26 N17 1_555 1_555
H26 C26 1_555 1_555
C27 N11 1_555 1_555
H27 C27 1_555 1_555
C29 H29 1_555 1_555
H34 C34 1_555 1_555
C35 C24 1_555 1_555
H35 C35 1_555 1_555
N19 C37 1_555 1_555
C37 C35 1_555 1_555
H37 C37 1_555 1_555
H38 C38 1_555 1_555
Cu7 N11 1_555 1_555
Cu14 N72 1_555 1_555
Cu18 N18 1_555 1_555
N44 H61 1_555 1_555
C52 N44 1_555 1_555
N57 Cu6 1_555 1_555
C67 C52 1_555 1_555
H73 C67 1_555 1_555
N72 C82 1_555 1_555
C82 C67 1_555 1_555
H88 C82 1_555 1_555
N83 Cu3 1_555 1_555
C94 C52 1_555 1_555
H100 C94 1_555 1_555
C133 N72 1_555 1_555
H133 C133 1_555 1_555
H136 C136 1_555 1_555
H139 C139 1_555 1_555
C148 C136 1_555 1_555
H157 C157 1_555 1_555
C160 C157 1_555 1_555
H160 C160 1_555 1_555
N92 C148 1_555 1_555
C11 C27 1_555 1_555
C12 C23 1_555 1_555
C15 C26 1_555 1_555
C29 C34 1_555 1_555
N19 C38 1_555 1_555
C94 C133 1_555 1_555
C160 N92 1_555 1_555
Cu20 N81 1_555 1_555
N54 Cu2 1_555 1_555
N73 Cu2 1_555 1_555
N81 C126 1_555 1_555
H105 C99 1_555 1_555
C126 H126 1_555 1_555
C129 N81 1_555 1_555
H129 C129 1_555 1_555
H141 C141 1_555 1_555
C99 C129 1_555 1_555
C126 C141 1_555 1_555
Cu4 N39 1_555 1_555
Cu10 N70 1_555 1_555
P8 N24 1_555 1_555
P9 N25 1_555 1_555
P12 N34 1_555 1_555
P14 N42 1_555 1_555
Cu21 N82 1_555 1_555
N24 H44 1_555 1_555
N27 P5 1_555 1_555
H47 N27 1_555 1_555
N30 P8 1_555 1_555
N31 P9 1_555 1_555
H51 N31 1_555 1_555
C44 N24 1_555 1_555
C45 N25 1_555 1_555
N34 H54 1_555 1_555
N36 P11 1_555 1_555
H56 N36 1_555 1_555
H58 N38 1_555 1_555
N39 C77 1_555 1_555
N40 C78 1_555 1_555
N42 H59 1_555 1_555
N48 P8 1_555 1_555
N49 P9 1_555 1_555
C47 N27 1_555 1_555
C50 N42 1_555 1_555
N55 Cu4 1_555 1_555
C53 C44 1_555 1_555
C54 C45 1_555 1_555
H62 C53 1_555 1_555
H63 C54 1_555 1_555
C56 H65 1_555 1_555
C58_2 H67 1_555 1_555
C60 N31 1_555 1_555
N58 P5 1_555 1_555
N61 P11 1_555 1_555
N62 P12 1_555 1_555
N64 Cu1_2 1_555 1_555
N65 Cu1_2 1_555 1_555
C63 N34 1_555 1_555
N67 P14 1_555 1_555
N68 P15 1_555 1_555
H68 N67 1_555 1_555
H69 N68 1_555 1_555
C65 C50 1_555 1_555
H71 C65 1_555 1_555
N70 C80 1_555 1_555
N74 Cu4 1_555 1_555
C77 C53 1_555 1_555
C78 C54 1_555 1_555
H83 C77 1_555 1_555
H84 C78 1_555 1_555
C80 C65 1_555 1_555
H86 C80 1_555 1_555
C86 C44 1_555 1_555
C87 C45 1_555 1_555
H92 C86 1_555 1_555
N82 C127 1_555 1_555
C92 C50 1_555 1_555
H98 C92 1_555 1_555
C95 C56 1_555 1_555
C97 C58_2 1_555 1_555
H101 C95 1_555 1_555
H103 C97 1_555 1_555
C98 C47 1_555 1_555
H104 C98 1_555 1_555
H106 C100 1_555 1_555
C102 C63 1_555 1_555
H108 C102 1_555 1_555
C104 N67 1_555 1_555
C105 N68 1_555 1_555
C108 C60 1_555 1_555
H111 C108 1_555 1_555
C112 N38 1_555 1_555
C115 C112 1_555 1_555
H113 C113 1_555 1_555
H115 C115 1_555 1_555
C122 N64 1_555 1_555
C123 N65 1_555 1_555
H123 C123 1_555 1_555
C127 H127 1_555 1_555
C130 N82 1_555 1_555
H128 C128 1_555 1_555
H130 C130 1_555 1_555
C131 N70 1_555 1_555
H131 C131 1_555 1_555
C134 C104 1_555 1_555
H134 C134 1_555 1_555
C137 N39 1_555 1_555
H137 C137 1_555 1_555
H142 C142 1_555 1_555
C145 C112 1_555 1_555
H145 C145 1_555 1_555
C146 C134 1_555 1_555
H146 C146 1_555 1_555
N89 C151 1_555 1_555
C151 C145 1_555 1_555
H151 C151 1_555 1_555
C154 C115 1_555 1_555
H154 C154 1_555 1_555
C155 C104 1_555 1_555
H155 C155 1_555 1_555
C158 C155 1_555 1_555
H158 C158 1_555 1_555
N90 C146 1_555 1_555
P8 N58 1_555 1_555
P12 N46 1_555 1_555
P14 N48 1_555 1_555
P14 N61 1_555 1_555
P15 N49 1_555 1_555
P15 N62 1_555 1_555
C56 C62 1_555 1_555
C57_2 C63 1_555 1_555
N64 C95 1_555 1_555
C86 C137 1_555 1_555
C92 C131 1_555 1_555
C98 C128 1_555 1_555
C100 C130 1_555 1_555
C102 C123 1_555 1_555
C127 C142 1_555 1_555
N89 C154 1_555 1_555
C158 N90 1_555 1_555
Cu9 N51 1_555 1_555
Cu12 N71 1_555 1_555
Cu15 N77 1_555 1_555
Cu19 N80 1_555 1_555
N21 H41 1_555 1_555
C41 N21 1_555 1_555
N33 H53 1_555 1_555
N43 H60 1_555 1_555
C51 N43 1_555 1_555
N51 C74 1_555 1_555
N56 Cu5 1_555 1_555
C66 C51 1_555 1_555
H72 C66 1_555 1_555
N71 C81 1_555 1_555
C68 C41 1_555 1_555
H74 C68 1_555 1_555
C71 C59 1_555 1_555
N77 C89 1_555 1_555
C74 H80 1_555 1_555
C81 C66 1_555 1_555
H87 C81 1_555 1_555
C83 C41 1_555 1_555
N80 C125 1_555 1_555
N84 Cu15 1_555 1_555
C89 C68 1_555 1_555
H95 C89 1_555 1_555
C93 C51 1_555 1_555
H99 C93 1_555 1_555
H107 C101 1_555 1_555
C107 C59 1_555 1_555
H110 C107 1_555 1_555
C116 N77 1_555 1_555
H116 C116 1_555 1_555
C119 N51 1_555 1_555
H119 C119 1_555 1_555
C125 H125 1_555 1_555
C132 N71 1_555 1_555
H132 C132 1_555 1_555
H135 C135 1_555 1_555
H138 C138 1_555 1_555
H140 C140 1_555 1_555
C143 C110 1_555 1_555
H143 C143 1_555 1_555
C147 C135 1_555 1_555
N87 C149 1_555 1_555
C149 C143 1_555 1_555
H149 C149 1_555 1_555
H152 C152 1_555 1_555
H156 C156 1_555 1_555
C159 C156 1_555 1_555
H159 C159 1_555 1_555
N91 C147 1_555 1_555
C71 C119 1_555 1_555
C74 C107 1_555 1_555
C83 C116 1_555 1_555
C93 C132 1_555 1_555
C125 C140 1_555 1_555
N87 C152 1_555 1_555
C159 N91 1_555 1_555
Cu11 N52 1_555 1_555
P6 N22 1_555 1_555
Cu16 N78 1_555 1_555
N22 H42 1_555 1_555
N28 P6 1_555 1_555
H48 N28 1_555 1_555
C42 N22 1_555 1_555
C48 N28 1_555 1_555
N52 C75 1_555 1_555
N59 P6 1_555 1_555
C69 C42 1_555 1_555
H75 C69 1_555 1_555
H78 C72 1_555 1_555
N78 C90 1_555 1_555
C84 C42 1_555 1_555
H90 C84 1_555 1_555
N85 Cu16 1_555 1_555
C90 C69 1_555 1_555
H96 C90 1_555 1_555
C117 N78 1_555 1_555
H117 C117 1_555 1_555
C120 N52 1_555 1_555
H120 C120 1_555 1_555
C72 C120 1_555 1_555
C84 C117 1_555 1_555
Cu1_3 N14_2 1_555 1_555
Cu10 N7_2 1_555 1_555
P1_2 N1_2 1_555 1_555
P2_2 N2_2 1_555 1_555
P3_2 N5_2 1_555 1_555
P4_2 N8_2 1_555 1_555
Cu3_2 N17_2 1_555 1_555
N1_2 H1_2 1_555 1_555
N2_2 H2_2 1_555 1_555
N3_2 P1_2 1_555 1_555
H3_2 N3_2 1_555 1_555
N4_2 P2_2 1_555 1_555
H4_2 N4_2 1_555 1_555
C1_2 N1_2 1_555 1_555
C2_2 N2_2 1_555 1_555
N5_2 H5_2 1_555 1_555
N6_2 P3_2 1_555 1_555
H6_2 N6_2 1_555 1_555
N7_2 C13_2 1_555 1_555
N8_2 H7_2 1_555 1_555
N9_2 P1_2 1_555 1_555
N10_2 P2_2 1_555 1_555
C3_2 N3_2 1_555 1_555
C4_2 N8_2 1_555 1_555
N11_2 C12_2 1_555 1_555
C5_2 C2_2 1_555 1_555
H8_2 C5_2 1_555 1_555
C6_2 H9_2 1_555 1_555
C7_2 N4_2 1_555 1_555
N12_2 P1_2 1_555 1_555
N13_2 P3_2 1_555 1_555
N14_2 C19_2 1_555 1_555
C8_2 N5_2 1_555 1_555
N15_2 P4_2 1_555 1_555
H10_2 N15_2 1_555 1_555
C9_2 C4_2 1_555 1_555
H11_2 C9_2 1_555 1_555
N16_2 C14_2 1_555 1_555
C10_2 C1_2 1_555 1_555
H12_2 C10_2 1_555 1_555
C11_2 C7_2 1_555 1_555
H13_2 C11_2 1_555 1_555
N17_2 C17_2 1_555 1_555
C12_2 H14_2 1_555 1_555
C13_2 C5_2 1_555 1_555
H15_2 C13_2 1_555 1_555
C14_2 C9_2 1_555 1_555
H16_2 C14_2 1_555 1_555
C15_2 C1_2 1_555 1_555
H17_2 C15_2 1_555 1_555
C16_2 C2_2 1_555 1_555
H18_2 C16_2 1_555 1_555
N18_2 C29_2 1_555 1_555
C17_2 C10_2 1_555 1_555
H19_2 C17_2 1_555 1_555
C18_2 C4_2 1_555 1_555
H20_2 C18_2 1_555 1_555
C19_2 C6_2 1_555 1_555
H21_2 C19_2 1_555 1_555
C20_2 C3_2 1_555 1_555
H22_2 C20_2 1_555 1_555
C21_2 C8_2 1_555 1_555
H23_2 C21_2 1_555 1_555
C22_2 N15_2 1_555 1_555
C23_2 C7_2 1_555 1_555
H24_2 C23_2 1_555 1_555
C24_2 N6_2 1_555 1_555
C25_2 C24_2 1_555 1_555
H25_2 C25_2 1_555 1_555
C26_2 N17_2 1_555 1_555
H26_2 C26_2 1_555 1_555
C27_2 N11_2 1_555 1_555
H27_2 C27_2 1_555 1_555
C28_2 N14_2 1_555 1_555
H28_2 C28_2 1_555 1_555
C29_2 H29_2 1_555 1_555
C30_2 N18_2 1_555 1_555
H30_2 C30_2 1_555 1_555
C31_2 N16_2 1_555 1_555
H31_2 C31_2 1_555 1_555
C32_2 C22_2 1_555 1_555
H32_2 C32_2 1_555 1_555
C33_2 N7_2 1_555 1_555
H33_2 C33_2 1_555 1_555
C34_2 C3_2 1_555 1_555
H34_2 C34_2 1_555 1_555
C35_2 C24_2 1_555 1_555
H35_2 C35_2 1_555 1_555
C36_2 C32_2 1_555 1_555
H36_2 C36_2 1_555 1_555
N19_2 C37_2 1_555 1_555
C37_2 C35_2 1_555 1_555
H37_2 C37_2 1_555 1_555
C38_2 C25_2 1_555 1_555
H38_2 C38_2 1_555 1_555
C39_2 C22_2 1_555 1_555
H39_2 C39_2 1_555 1_555
C40_2 C39_2 1_555 1_555
H40_2 C40_2 1_555 1_555
N20_2 C36_2 1_555 1_555
Cu8 N39_2 1_555 1_555
Cu6_2 N41_2 1_555 1_555
Cu7_2 N11_2 1_555 1_555
Cu9 N16_2 1_555 1_555
Cu7 N70_2 1_555 1_555
Cu12 N52_2 1_555 1_555
Cu14 N53_2 1_555 1_555
P6_2 N22_2 1_555 1_555
P7_2 N23_2 1_555 1_555
P8_2 N24_2 1_555 1_555
P9_2 N25_2 1_555 1_555
P10_2 N26_2 1_555 1_555
P11_2 N33_2 1_555 1_555
P12_2 N34_2 1_555 1_555
P13_2 N35_2 1_555 1_555
P14_2 N42_2 1_555 1_555
P15_2 N43_2 1_555 1_555
P16_2 N44_2 1_555 1_555
Cu16_2 N78_2 1_555 1_555
Cu17_2 N79_2 1_555 1_555
Cu18_2 N18_2 1_555 1_555
Cu20_2 N81_2 1_555 1_555
Cu21_2 N82_2 1_555 1_555
N22_2 H42_2 1_555 1_555
N23_2 H43_2 1_555 1_555
N25_2 H45_2 1_555 1_555
N26_2 H46_2 1_555 1_555
N28_2 P6_2 1_555 1_555
N29_2 P7_2 1_555 1_555
H48_2 N28_2 1_555 1_555
H49_2 N29_2 1_555 1_555
N30_2 P8_2 1_555 1_555
N31_2 P9_2 1_555 1_555
N32_2 P10_2 1_555 1_555
H50_2 N30_2 1_555 1_555
H51_2 N31_2 1_555 1_555
H52_2 N32_2 1_555 1_555
C42_2 N22_2 1_555 1_555
C43_2 N23_2 1_555 1_555
C44_2 N24_2 1_555 1_555
C45_2 N25_2 1_555 1_555
C46_2 N26_2 1_555 1_555
N33_2 H53_2 1_555 1_555
N34_2 H54_2 1_555 1_555
N35_2 H55_2 1_555 1_555
N36_2 P11_2 1_555 1_555
N37_2 P12_2 1_555 1_555
N38_2 P13_2 1_555 1_555
H56_2 N36_2 1_555 1_555
H57_2 N37_2 1_555 1_555
H58_2 N38_2 1_555 1_555
N39_2 C77_2 1_555 1_555
N40_2 C78_2 1_555 1_555
N41_2 C79_2 1_555 1_555
N42_2 H59_2 1_555 1_555
N43_2 H60_2 1_555 1_555
N44_2 H61_2 1_555 1_555
N46_2 P6_2 1_555 1_555
N47_2 P7_2 1_555 1_555
N48_2 P8_2 1_555 1_555
N49_2 P9_2 1_555 1_555
N50_2 P10_2 1_555 1_555
C48_2 N28_2 1_555 1_555
C49_2 N29_2 1_555 1_555
C50_2 N42_2 1_555 1_555
C51_2 N43_2 1_555 1_555
C52_2 N44_2 1_555 1_555
N52_2 C75_2 1_555 1_555
N53_2 C76_2 1_555 1_555
N54_2 Cu10 1_555 1_555
N55_2 Cu8 1_555 1_555
N57_2 Cu6_2 1_555 1_555
C53_2 C44_2 1_555 1_555
C54_2 C45_2 1_555 1_555
C55_2 C46_2 1_555 1_555
H62_2 C53_2 1_555 1_555
H63_2 C54_2 1_555 1_555
H64_2 C55_2 1_555 1_555
C56_2 H65_2 1_555 1_555
C57_3 H66_2 1_555 1_555
C58_3 H67_2 1_555 1_555
C59_2 N30_2 1_555 1_555
C60_2 N31_2 1_555 1_555
C61_2 N32_2 1_555 1_555
N59_2 P6_2 1_555 1_555
N60_2 P7_2 1_555 1_555
N61_2 P11_2 1_555 1_555
N62_2 P12_2 1_555 1_555
N63_2 P13_2 1_555 1_555
N64_2 Cu1_3 1_555 1_555
N65_2 Cu1_3 1_555 1_555
N66_2 Cu1_3 1_555 1_555
C62_2 N33_2 1_555 1_555
C63_2 N34_2 1_555 1_555
C64_2 N35_2 1_555 1_555
N67_2 P14_2 1_555 1_555
N68_2 P15_2 1_555 1_555
N69_2 P16_2 1_555 1_555
H68_2 N67_2 1_555 1_555
H69_2 N68_2 1_555 1_555
H70_2 N69_2 1_555 1_555
C65_2 C50_2 1_555 1_555
C66_2 C51_2 1_555 1_555
C67_2 C52_2 1_555 1_555
H71_2 C65_2 1_555 1_555
H72_2 C66_2 1_555 1_555
H73_2 C67_2 1_555 1_555
N70_2 C80_2 1_555 1_555
N75 C81_2 1_555 1_555
N76 C82_2 1_555 1_555
N76_2 Cu6_2 1_555 1_555
C69_2 C42_2 1_555 1_555
C70_2 C43_2 1_555 1_555
H75_2 C69_2 1_555 1_555
H76_2 C70_2 1_555 1_555
C72_2 C60_2 1_555 1_555
C73_2 C61_2 1_555 1_555
H78_2 C72_2 1_555 1_555
H79_2 C73_2 1_555 1_555
N78_2 C90_2 1_555 1_555
N79_2 C91_2 1_555 1_555
C75_2 H81_2 1_555 1_555
C76_2 H82_2 1_555 1_555
C77_2 C53_2 1_555 1_555
C78_2 C54_2 1_555 1_555
C79_2 C55_2 1_555 1_555
H83_2 C77_2 1_555 1_555
H84_2 C78_2 1_555 1_555
H85_2 C79_2 1_555 1_555
C80_2 C65_2 1_555 1_555
C81_2 C66_2 1_555 1_555
C82_2 C67_2 1_555 1_555
H86_2 C80_2 1_555 1_555
H87_2 C81_2 1_555 1_555
H88_2 C82_2 1_555 1_555
C84_2 C42_2 1_555 1_555
C85_2 C43_2 1_555 1_555
H90_2 C84_2 1_555 1_555
H91_2 C85_2 1_555 1_555
C86_2 C44_2 1_555 1_555
C87_2 C45_2 1_555 1_555
C88_2 C46_2 1_555 1_555
H93 C87_2 1_555 1_555
H94_2 C88_2 1_555 1_555
N81_2 C126_2 1_555 1_555
N82_2 C127_2 1_555 1_555
N83_2 Cu3_2 1_555 1_555
N85_2 Cu16_2 1_555 1_555
N86_2 Cu17_2 1_555 1_555
C90_2 C69_2 1_555 1_555
C91_2 C70_2 1_555 1_555
H96_2 C90_2 1_555 1_555
H97_2 C91_2 1_555 1_555
C92_2 C50_2 1_555 1_555
C93_2 C51_2 1_555 1_555
C94_2 C52_2 1_555 1_555
H98_2 C92_2 1_555 1_555
H99_2 C93_2 1_555 1_555
H100_2 C94_2 1_555 1_555
C95_2 C56_2 1_555 1_555
C96_2 C57_3 1_555 1_555
C97_2 C58_3 1_555 1_555
H101_2 C95_2 1_555 1_555
H102_2 C96_2 1_555 1_555
H103_2 C97_2 1_555 1_555
C99_2 C48_2 1_555 1_555
C100_2 C49_2 1_555 1_555
H105_2 C99_2 1_555 1_555
H106_2 C100_2 1_555 1_555
C101_2 C62_2 1_555 1_555
C102_2 C63_2 1_555 1_555
C103_2 C64_2 1_555 1_555
H107_2 C101_2 1_555 1_555
H108_2 C102_2 1_555 1_555
H109_2 C103_2 1_555 1_555
C104_2 N67_2 1_555 1_555
C105_2 N68_2 1_555 1_555
C106_2 N69_2 1_555 1_555
C107_2 C59_2 1_555 1_555
C108_2 C60_2 1_555 1_555
C109_2 C61_2 1_555 1_555
H110_2 C107_2 1_555 1_555
H111_2 C108_2 1_555 1_555
H112_2 C109_2 1_555 1_555
C110_2 N36_2 1_555 1_555
C111_2 N37_2 1_555 1_555
C112_2 N38_2 1_555 1_555
C113_2 C110_2 1_555 1_555
C114_2 C111_2 1_555 1_555
C115_2 C112_2 1_555 1_555
H113_2 C113_2 1_555 1_555
H114_2 C114_2 1_555 1_555
H115_2 C115_2 1_555 1_555
C117_2 N78_2 1_555 1_555
C118_2 N79_2 1_555 1_555
H117_2 C117_2 1_555 1_555
H118_2 C118_2 1_555 1_555
C120_2 N52_2 1_555 1_555
C121_2 N53_2 1_555 1_555
H120_2 C120_2 1_555 1_555
H121_2 C121_2 1_555 1_555
C122_2 N64_2 1_555 1_555
C123_2 N65_2 1_555 1_555
C124_2 N66_2 1_555 1_555
H122_2 C122_2 1_555 1_555
H123_2 C123_2 1_555 1_555
H124_2 C124_2 1_555 1_555
C126_2 H126_2 1_555 1_555
C127_2 H127_2 1_555 1_555
C129_2 N81_2 1_555 1_555
C130_2 N82_2 1_555 1_555
H129_2 C129_2 1_555 1_555
H130_2 C130_2 1_555 1_555
C131_2 N70_2 1_555 1_555
C132_2 N75 1_555 1_555
C133_2 N76 1_555 1_555
H131_2 C131_2 1_555 1_555
H132_2 C132_2 1_555 1_555
H133_2 C133_2 1_555 1_555
C134_2 C104_2 1_555 1_555
C135_2 C105_2 1_555 1_555
C136_2 C106_2 1_555 1_555
H134_2 C134_2 1_555 1_555
H135_2 C135_2 1_555 1_555
H136_2 C136_2 1_555 1_555
C137_2 N39_2 1_555 1_555
C138_2 N40_2 1_555 1_555
C139_2 N41_2 1_555 1_555
H137_2 C137_2 1_555 1_555
H138_2 C138_2 1_555 1_555
H139_2 C139_2 1_555 1_555
C141_2 C48_2 1_555 1_555
C142_2 C49_2 1_555 1_555
H141_2 C141_2 1_555 1_555
H142_2 C142_2 1_555 1_555
C143_2 C110_2 1_555 1_555
C144_2 C111_2 1_555 1_555
C145_2 C112_2 1_555 1_555
H143_2 C143_2 1_555 1_555
H144_2 C144_2 1_555 1_555
H145_2 C145_2 1_555 1_555
C146_2 C134_2 1_555 1_555
C147_2 C135_2 1_555 1_555
C148_2 C136_2 1_555 1_555
H146_2 C146_2 1_555 1_555
H147_2 C147_2 1_555 1_555
H148_2 C148_2 1_555 1_555
N87_2 C149_2 1_555 1_555
N88_2 C150_2 1_555 1_555
N89_2 C151_2 1_555 1_555
C149_2 C143_2 1_555 1_555
C150_2 C144_2 1_555 1_555
C151_2 C145_2 1_555 1_555
H149_2 C149_2 1_555 1_555
H150_2 C150_2 1_555 1_555
H151_2 C151_2 1_555 1_555
C152_2 C113_2 1_555 1_555
C153_2 C114_2 1_555 1_555
C154_2 C115_2 1_555 1_555
H152_2 C152_2 1_555 1_555
H153_2 C153_2 1_555 1_555
H154_2 C154_2 1_555 1_555
C155_2 C104_2 1_555 1_555
C156_2 C105_2 1_555 1_555
C157_2 C106_2 1_555 1_555
H155_2 C155_2 1_555 1_555
H156_2 C156_2 1_555 1_555
H157_2 C157_2 1_555 1_555
C158_2 C155_2 1_555 1_555
C159_2 C156_2 1_555 1_555
C160_2 C157_2 1_555 1_555
H158_2 C158_2 1_555 1_555
H159_2 C159_2 1_555 1_555
H160_2 C160_2 1_555 1_555
N90_2 C146_2 1_555 1_555
N91_2 C147_2 1_555 1_555
N92_2 C148_2 1_555 1_555
P2_2 N12_2 1_555 1_555
P3_2 N9_2 1_555 1_555
P4_2 N10_2 1_555 1_555
P4_2 N13_2 1_555 1_555
C6_2 C8_2 1_555 1_555
C11_2 C27_2 1_555 1_555
C12_2 C23_2 1_555 1_555
C15_2 C26_2 1_555 1_555
C16_2 C33_2 1_555 1_555
C18_2 C31_2 1_555 1_555
C20_2 C30_2 1_555 1_555
C21_2 C28_2 1_555 1_555
C29_2 C34_2 1_555 1_555
N19_2 C38_2 1_555 1_555
C40_2 N20_2 1_555 1_555
P9_2 N59_2 1_555 1_555
P10_2 N60_2 1_555 1_555
P11_2 N45_2 1_555 1_555
P12_2 N46_2 1_555 1_555
P13_2 N47_2 1_555 1_555
P14_2 N48_2 1_555 1_555
P14_2 N61_2 1_555 1_555
P15_2 N49_2 1_555 1_555
P15_2 N62_2 1_555 1_555
P16_2 N50_2 1_555 1_555
P16_2 N63_2 1_555 1_555
C56_2 C62_2 1_555 1_555
C57_3 C63_2 1_555 1_555
C58_3 C64_2 1_555 1_555
N64_2 C95_2 1_555 1_555
N65_2 C96_2 1_555 1_555
N66_2 C97_2 1_555 1_555
C72_2 C120_2 1_555 1_555
C73_2 C121_2 1_555 1_555
C75_2 C108_2 1_555 1_555
C76_2 C109_2 1_555 1_555
C84_2 C117_2 1_555 1_555
C85_2 C118_2 1_555 1_555
C86_2 C137_2 1_555 1_555
C87_2 C138_2 1_555 1_555
C88_2 C139_2 1_555 1_555
C92_2 C131_2 1_555 1_555
C93_2 C132_2 1_555 1_555
C94_2 C133_2 1_555 1_555
C99_2 C129_2 1_555 1_555
C100_2 C130_2 1_555 1_555
C101_2 C122_2 1_555 1_555
C102_2 C123_2 1_555 1_555
C103_2 C124_2 1_555 1_555
C126_2 C141_2 1_555 1_555
C127_2 C142_2 1_555 1_555
N87_2 C152_2 1_555 1_555
N88_2 C153_2 1_555 1_555
N89_2 C154_2 1_555 1_555
C158_2 N90_2 1_555 1_555
C159_2 N91_2 1_555 1_555
C160_2 N92_2 1_555 1_555
Cu9_2 N51_2 1_555 1_555
P5_2 N21_2 1_555 1_555
Cu15_2 N77_2 1_555 1_555
Cu19_2 N80_2 1_555 1_555
N21_2 H41_2 1_555 1_555
N27_2 P5_2 1_555 1_555
H47_2 N27_2 1_555 1_555
C41_2 N21_2 1_555 1_555
C47_2 N27_2 1_555 1_555
N51_2 C74_2 1_555 1_555
N56_2 Cu5_2 1_555 1_555
N58_2 P5_2 1_555 1_555
N75_2 Cu5_2 1_555 1_555
C68_2 C41_2 1_555 1_555
H74_2 C68_2 1_555 1_555
H77_2 C71_2 1_555 1_555
N77_2 C89_2 1_555 1_555
C83_2 C41_2 1_555 1_555
H89_2 C83_2 1_555 1_555
N80_2 C125_2 1_555 1_555
N84_2 Cu15_2 1_555 1_555
C89_2 C68_2 1_555 1_555
H95_2 C89_2 1_555 1_555
C98_2 C47_2 1_555 1_555
H104_2 C98_2 1_555 1_555
C116_2 N77_2 1_555 1_555
H116_2 C116_2 1_555 1_555
C119_2 N51_2 1_555 1_555
H119_2 C119_2 1_555 1_555
C125_2 H125_2 1_555 1_555
C128_2 N80_2 1_555 1_555
H128_2 C128_2 1_555 1_555
C140_2 C47_2 1_555 1_555
H140_2 C140_2 1_555 1_555
C71_2 C119_2 1_555 1_555
C83_2 C116_2 1_555 1_555
C98_2 C128_2 1_555 1_555
C125_2 C140_2 1_555 1_555
P7_3 N23_3 1_555 1_555
Cu19 N79_3 1_555 1_555
N23_3 H43_3 1_555 1_555
N29_3 P7_3 1_555 1_555
H49_3 N29_3 1_555 1_555
C43_3 N23_3 1_555 1_555
C49_3 N29_3 1_555 1_555
N56 C76_3 1_555 1_555
N60_3 P7_3 1_555 1_555
C70_3 C43_3 1_555 1_555
H76_3 C70_3 1_555 1_555
H79_3 C73_3 1_555 1_555
N79_3 C91_3 1_555 1_555
C85_3 C43_3 1_555 1_555
H91_3 C85_3 1_555 1_555
N83 C127_3 1_555 1_555
C91_3 C70_3 1_555 1_555
H97_3 C91_3 1_555 1_555
C100_3 C49_3 1_555 1_555
H106_3 C100_3 1_555 1_555
C118_3 N79_3 1_555 1_555
H118_3 C118_3 1_555 1_555
C121_3 N56 1_555 1_555
H121_3 C121_3 1_555 1_555
C127_3 H127_3 1_555 1_555
C130_3 N83 1_555 1_555
H130_3 C130_3 1_555 1_555
C142_3 C49_3 1_555 1_555
H142_3 C142_3 1_555 1_555
C73_3 C121_3 1_555 1_555
C85_3 C118_3 1_555 1_555
C100_3 C130_3 1_555 1_555
C127_3 C142_3 1_555 1_555
Cu1_4 N14_3 1_555 1_555
Cu9 N7_3 1_555 1_555
P1_3 N1_3 1_555 1_555
P2_3 N2_3 1_555 1_555
P3_3 N5_3 1_555 1_555
P4_3 N8_3 1_555 1_555
Cu21 N17_3 1_555 1_555
N1_3 H1_3 1_555 1_555
N2_3 H2_3 1_555 1_555
N3_3 P1_3 1_555 1_555
H3_3 N3_3 1_555 1_555
N4_3 P2_3 1_555 1_555
H4_3 N4_3 1_555 1_555
C1_3 N1_3 1_555 1_555
C2_3 N2_3 1_555 1_555
N5_3 H5_3 1_555 1_555
N6_3 P3_3 1_555 1_555
H6_3 N6_3 1_555 1_555
N7_3 C13_3 1_555 1_555
N8_3 H7_3 1_555 1_555
N9_3 P1_3 1_555 1_555
N10_3 P2_3 1_555 1_555
C3_3 N3_3 1_555 1_555
C4_3 N8_3 1_555 1_555
N55 C12_3 1_555 1_555
C5_3 C2_3 1_555 1_555
H8_3 C5_3 1_555 1_555
C6_3 H9_3 1_555 1_555
C7_3 N4_3 1_555 1_555
N12_3 P1_3 1_555 1_555
N13_3 P3_3 1_555 1_555
N14_3 C19_3 1_555 1_555
C8_3 N5_3 1_555 1_555
N15_3 P4_3 1_555 1_555
H10_3 N15_3 1_555 1_555
C9_3 C4_3 1_555 1_555
H11_3 C9_3 1_555 1_555
N16_3 C14_3 1_555 1_555
C10_3 C1_3 1_555 1_555
H12_3 C10_3 1_555 1_555
C11_3 C7_3 1_555 1_555
H13_3 C11_3 1_555 1_555
N17_3 C17_3 1_555 1_555
C12_3 H14_3 1_555 1_555
C13_3 C5_3 1_555 1_555
H15_3 C13_3 1_555 1_555
C14_3 C9_3 1_555 1_555
H16_3 C14_3 1_555 1_555
C15_3 C1_3 1_555 1_555
H17_3 C15_3 1_555 1_555
C16_3 C2_3 1_555 1_555
H18_3 C16_3 1_555 1_555
N85 C29_3 1_555 1_555
C17_3 C10_3 1_555 1_555
H19_3 C17_3 1_555 1_555
C18_3 C4_3 1_555 1_555
H20_3 C18_3 1_555 1_555
C19_3 C6_3 1_555 1_555
H21_3 C19_3 1_555 1_555
C20_3 C3_3 1_555 1_555
H22_3 C20_3 1_555 1_555
C21_3 C8_3 1_555 1_555
H23_3 C21_3 1_555 1_555
C22_3 N15_3 1_555 1_555
C23_3 C7_3 1_555 1_555
H24_3 C23_3 1_555 1_555
C24_3 N6_3 1_555 1_555
C25_3 C24_3 1_555 1_555
H25_3 C25_3 1_555 1_555
C26_3 N17_3 1_555 1_555
H26_3 C26_3 1_555 1_555
C27_3 N55 1_555 1_555
H27_3 C27_3 1_555 1_555
C28_3 N14_3 1_555 1_555
H28_3 C28_3 1_555 1_555
C29_3 H29_3 1_555 1_555
C30_3 N85 1_555 1_555
H30_3 C30_3 1_555 1_555
C31_3 N16_3 1_555 1_555
H31_3 C31_3 1_555 1_555
C32_3 C22_3 1_555 1_555
H32_3 C32_3 1_555 1_555
C33_3 N7_3 1_555 1_555
H33_3 C33_3 1_555 1_555
C34_3 C3_3 1_555 1_555
H34_3 C34_3 1_555 1_555
C35_3 C24_3 1_555 1_555
H35_3 C35_3 1_555 1_555
C36_3 C32_3 1_555 1_555
H36_3 C36_3 1_555 1_555
N19_3 C37_3 1_555 1_555
C37_3 C35_3 1_555 1_555
H37_3 C37_3 1_555 1_555
C38_3 C25_3 1_555 1_555
H38_3 C38_3 1_555 1_555
C39_3 C22_3 1_555 1_555
H39_3 C39_3 1_555 1_555
C40_3 C39_3 1_555 1_555
H40_3 C40_3 1_555 1_555
N20_3 C36_3 1_555 1_555
Cu13 N40_3 1_555 1_555
Cu11 N41_3 1_555 1_555
P5_3 N21_3 1_555 1_555
P6_3 N22_3 1_555 1_555
P8_3 N24_3 1_555 1_555
P9_3 N25_3 1_555 1_555
P10_3 N26_3 1_555 1_555
P11_3 N33_3 1_555 1_555
P12_3 N34_3 1_555 1_555
P13_3 N35_3 1_555 1_555
P14_3 N42_3 1_555 1_555
P15_3 N43_3 1_555 1_555
P16_3 N44_3 1_555 1_555
Cu20 N77_3 1_555 1_555
Cu18 N78_3 1_555 1_555
N21_3 H41_3 1_555 1_555
N22_3 H42_3 1_555 1_555
N24_3 H44_3 1_555 1_555
N25_3 H45_3 1_555 1_555
N27_3 P5_3 1_555 1_555
N28_3 P6_3 1_555 1_555
H47_3 N27_3 1_555 1_555
H48_3 N28_3 1_555 1_555
N30_3 P8_3 1_555 1_555
N31_3 P9_3 1_555 1_555
N32_3 P10_3 1_555 1_555
H50_3 N30_3 1_555 1_555
H51_3 N31_3 1_555 1_555
H52_3 N32_3 1_555 1_555
C41_3 N21_3 1_555 1_555
C42_3 N22_3 1_555 1_555
C44_3 N24_3 1_555 1_555
C45_3 N25_3 1_555 1_555
C46_3 N26_3 1_555 1_555
N33_3 H53_3 1_555 1_555
N34_3 H54_3 1_555 1_555
N35_3 H55_3 1_555 1_555
N36_3 P11_3 1_555 1_555
N37_3 P12_3 1_555 1_555
N38_3 P13_3 1_555 1_555
H56_3 N36_3 1_555 1_555
H57_3 N37_3 1_555 1_555
H58_3 N38_3 1_555 1_555
N39_3 C77_3 1_555 1_555
N40_3 C78_3 1_555 1_555
N41_3 C79_3 1_555 1_555
N42_3 H59_3 1_555 1_555
N43_3 H60_3 1_555 1_555
N44_3 H61_3 1_555 1_555
N45_3 P5_3 1_555 1_555
N46_3 P6_3 1_555 1_555
N48_3 P8_3 1_555 1_555
N49_3 P9_3 1_555 1_555
N50_3 P10_3 1_555 1_555
C47_3 N27_3 1_555 1_555
C48_3 N28_3 1_555 1_555
C50_3 N42_3 1_555 1_555
C51_3 N43_3 1_555 1_555
C52_3 N44_3 1_555 1_555
N54 C74_3 1_555 1_555
N57 C75_3 1_555 1_555
C53_3 C44_3 1_555 1_555
C54_3 C45_3 1_555 1_555
C55_3 C46_3 1_555 1_555
H62_3 C53_3 1_555 1_555
H63_3 C54_3 1_555 1_555
H64_3 C55_3 1_555 1_555
C56_3 H65_3 1_555 1_555
C57_4 H66_3 1_555 1_555
C58_4 H67_3 1_555 1_555
C59_3 N30_3 1_555 1_555
C60_3 N31_3 1_555 1_555
C61_3 N32_3 1_555 1_555
N58_3 P5_3 1_555 1_555
N59_3 P6_3 1_555 1_555
N61_3 P11_3 1_555 1_555
N62_3 P12_3 1_555 1_555
N63_3 P13_3 1_555 1_555
N64_3 Cu1_4 1_555 1_555
N65_3 Cu1_4 1_555 1_555
N66_3 Cu1_4 1_555 1_555
C62_3 N33_3 1_555 1_555
C63_3 N34_3 1_555 1_555
C64_3 N35_3 1_555 1_555
N67_3 P14_3 1_555 1_555
N68_3 P15_3 1_555 1_555
N69_3 P16_3 1_555 1_555
H68_3 N67_3 1_555 1_555
H69_3 N68_3 1_555 1_555
H70_3 N69_3 1_555 1_555
C65_3 C50_3 1_555 1_555
C66_3 C51_3 1_555 1_555
C67_3 C52_3 1_555 1_555
H71_3 C65_3 1_555 1_555
H72_3 C66_3 1_555 1_555
H73_3 C67_3 1_555 1_555
N70_3 C80_3 1_555 1_555
N76_2 C81_3 1_555 1_555
N75_2 C82_3 1_555 1_555
N75_3 Cu13 1_555 1_555
N76_3 Cu11 1_555 1_555
C68_3 C41_3 1_555 1_555
C69_3 C42_3 1_555 1_555
H74_3 C68_3 1_555 1_555
H75_3 C69_3 1_555 1_555
C71_3 C59_3 1_555 1_555
C72_3 C60_3 1_555 1_555
H77_3 C71_3 1_555 1_555
H78_3 C72_3 1_555 1_555
N77_3 C89_3 1_555 1_555
N78_3 C90_3 1_555 1_555
C74_3 H80_3 1_555 1_555
C75_3 H81_3 1_555 1_555
C77_3 C53_3 1_555 1_555
C78_3 C54_3 1_555 1_555
C79_3 C55_3 1_555 1_555
H83_3 C77_3 1_555 1_555
H84_3 C78_3 1_555 1_555
H85_3 C79_3 1_555 1_555
C80_3 C65_3 1_555 1_555
C81_3 C66_3 1_555 1_555
C82_3 C67_3 1_555 1_555
H86_3 C80_3 1_555 1_555
H87_3 C81_3 1_555 1_555
H88_3 C82_3 1_555 1_555
C83_3 C41_3 1_555 1_555
C84_3 C42_3 1_555 1_555
H89_3 C83_3 1_555 1_555
H90_3 C84_3 1_555 1_555
C86_3 C44_3 1_555 1_555
C87_3 C45_3 1_555 1_555
C88_3 C46_3 1_555 1_555
H92_3 C86_3 1_555 1_555
H93_2 C87_3 1_555 1_555
N86 C125_3 1_555 1_555
N84 C126_3 1_555 1_555
C89_3 C68_3 1_555 1_555
C90_3 C69_3 1_555 1_555
H95_3 C89_3 1_555 1_555
H96_3 C90_3 1_555 1_555
C92_3 C50_3 1_555 1_555
C93_3 C51_3 1_555 1_555
C94_3 C52_3 1_555 1_555
H98_3 C92_3 1_555 1_555
H99_3 C93_3 1_555 1_555
H100_3 C94_3 1_555 1_555
C95_3 C56_3 1_555 1_555
C96_3 C57_4 1_555 1_555
C97_3 C58_4 1_555 1_555
H101_3 C95_3 1_555 1_555
H102_3 C96_3 1_555 1_555
H103_3 C97_3 1_555 1_555
C98_3 C47_3 1_555 1_555
C99_3 C48_3 1_555 1_555
H104_3 C98_3 1_555 1_555
H105_3 C99_3 1_555 1_555
C101_3 C62_3 1_555 1_555
C102_3 C63_3 1_555 1_555
C103_3 C64_3 1_555 1_555
H107_3 C101_3 1_555 1_555
H108_3 C102_3 1_555 1_555
H109_3 C103_3 1_555 1_555
C104_3 N67_3 1_555 1_555
C105_3 N68_3 1_555 1_555
C106_3 N69_3 1_555 1_555
C107_3 C59_3 1_555 1_555
C108_3 C60_3 1_555 1_555
C109_3 C61_3 1_555 1_555
H110_3 C107_3 1_555 1_555
H111_3 C108_3 1_555 1_555
H112_3 C109_3 1_555 1_555
C110_3 N36_3 1_555 1_555
C111_3 N37_3 1_555 1_555
C112_3 N38_3 1_555 1_555
C113_3 C110_3 1_555 1_555
C114_3 C111_3 1_555 1_555
C115_3 C112_3 1_555 1_555
H113_3 C113_3 1_555 1_555
H114_3 C114_3 1_555 1_555
H115_3 C115_3 1_555 1_555
C116_3 N77_3 1_555 1_555
C117_3 N78_3 1_555 1_555
H116_3 C116_3 1_555 1_555
H117_3 C117_3 1_555 1_555
C119_3 N54 1_555 1_555
C120_3 N57 1_555 1_555
H119_3 C119_3 1_555 1_555
H120_3 C120_3 1_555 1_555
C122_3 N64_3 1_555 1_555
C123_3 N65_3 1_555 1_555
C124_3 N66_3 1_555 1_555
H122_3 C122_3 1_555 1_555
H123_3 C123_3 1_555 1_555
H124_3 C124_3 1_555 1_555
C125_3 H125_3 1_555 1_555
C126_3 H126_3 1_555 1_555
C128_3 N86 1_555 1_555
C129_3 N84 1_555 1_555
H128_3 C128_3 1_555 1_555
H129_3 C129_3 1_555 1_555
C131_3 N70_3 1_555 1_555
C132_3 N76_2 1_555 1_555
C133_3 N75_2 1_555 1_555
H131_3 C131_3 1_555 1_555
H132_3 C132_3 1_555 1_555
H133_3 C133_3 1_555 1_555
C134_3 C104_3 1_555 1_555
C135_3 C105_3 1_555 1_555
C136_3 C106_3 1_555 1_555
H134_3 C134_3 1_555 1_555
H135_3 C135_3 1_555 1_555
H136_3 C136_3 1_555 1_555
C137_3 N39_3 1_555 1_555
C138_3 N40_3 1_555 1_555
C139_3 N41_3 1_555 1_555
H137_3 C137_3 1_555 1_555
H138_3 C138_3 1_555 1_555
H139_3 C139_3 1_555 1_555
C140_3 C47_3 1_555 1_555
C141_3 C48_3 1_555 1_555
H140_3 C140_3 1_555 1_555
H141_3 C141_3 1_555 1_555
C143_3 C110_3 1_555 1_555
C144_3 C111_3 1_555 1_555
C145_3 C112_3 1_555 1_555
H143_3 C143_3 1_555 1_555
H144_3 C144_3 1_555 1_555
H145_3 C145_3 1_555 1_555
C146_3 C134_3 1_555 1_555
C147_3 C135_3 1_555 1_555
C148_3 C136_3 1_555 1_555
H146_3 C146_3 1_555 1_555
H147_3 C147_3 1_555 1_555
H148_3 C148_3 1_555 1_555
N87_3 C149_3 1_555 1_555
N88_3 C150_3 1_555 1_555
N89_3 C151_3 1_555 1_555
C149_3 C143_3 1_555 1_555
C150_3 C144_3 1_555 1_555
C151_3 C145_3 1_555 1_555
H149_3 C149_3 1_555 1_555
H150_3 C150_3 1_555 1_555
H151_3 C151_3 1_555 1_555
C152_3 C113_3 1_555 1_555
C153_3 C114_3 1_555 1_555
C154_3 C115_3 1_555 1_555
H152_3 C152_3 1_555 1_555
H153_3 C153_3 1_555 1_555
H154_3 C154_3 1_555 1_555
C155_3 C104_3 1_555 1_555
C156_3 C105_3 1_555 1_555
C157_3 C106_3 1_555 1_555
H155_3 C155_3 1_555 1_555
H156_3 C156_3 1_555 1_555
H157_3 C157_3 1_555 1_555
C158_3 C155_3 1_555 1_555
C159_3 C156_3 1_555 1_555
C160_3 C157_3 1_555 1_555
H158_3 C158_3 1_555 1_555
H159_3 C159_3 1_555 1_555
H160_3 C160_3 1_555 1_555
N90_3 C146_3 1_555 1_555
N91_3 C147_3 1_555 1_555
N92_3 C148_3 1_555 1_555
P2_3 N12_3 1_555 1_555
P3_3 N9_3 1_555 1_555
P4_3 N10_3 1_555 1_555
P4_3 N13_3 1_555 1_555
C6_3 C8_3 1_555 1_555
C11_3 C27_3 1_555 1_555
C12_3 C23_3 1_555 1_555
C15_3 C26_3 1_555 1_555
C16_3 C33_3 1_555 1_555
C18_3 C31_3 1_555 1_555
C20_3 C30_3 1_555 1_555
C21_3 C28_3 1_555 1_555
C29_3 C34_3 1_555 1_555
N19_3 C38_3 1_555 1_555
C40_3 N20_3 1_555 1_555
P8_3 N58_3 1_555 1_555
P9_3 N59_3 1_555 1_555
P11_3 N45_3 1_555 1_555
P12_3 N46_3 1_555 1_555
P13_3 N47_3 1_555 1_555
P14_3 N48_3 1_555 1_555
P14_3 N61_3 1_555 1_555
P15_3 N49_3 1_555 1_555
P15_3 N62_3 1_555 1_555
P16_3 N50_3 1_555 1_555
P16_3 N63_3 1_555 1_555
C56_3 C62_3 1_555 1_555
C57_4 C63_3 1_555 1_555
C58_4 C64_3 1_555 1_555
N64_3 C95_3 1_555 1_555
N65_3 C96_3 1_555 1_555
N66_3 C97_3 1_555 1_555
C71_3 C119_3 1_555 1_555
C72_3 C120_3 1_555 1_555
C74_3 C107_3 1_555 1_555
C75_3 C108_3 1_555 1_555
C83_3 C116_3 1_555 1_555
C84_3 C117_3 1_555 1_555
C86_3 C137_3 1_555 1_555
C87_3 C138_3 1_555 1_555
C88_3 C139_3 1_555 1_555
C92_3 C131_3 1_555 1_555
C93_3 C132_3 1_555 1_555
C94_3 C133_3 1_555 1_555
C98_3 C128_3 1_555 1_555
C99_3 C129_3 1_555 1_555
C101_3 C122_3 1_555 1_555
C102_3 C123_3 1_555 1_555
C103_3 C124_3 1_555 1_555
C125_3 C140_3 1_555 1_555
C126_3 C141_3 1_555 1_555
N87_3 C152_3 1_555 1_555
N88_3 C153_3 1_555 1_555
N89_3 C154_3 1_555 1_555
C158_3 N90_3 1_555 1_555
C159_3 N91_3 1_555 1_555
C160_3 N92_3 1_555 1_555
P1_4 N1_4 1_555 1_555
Cu21_2 N17_4 1_555 1_555
N1_4 H1_4 1_555 1_555
N3_4 P1_4 1_555 1_555
H3_4 N3_4 1_555 1_555
C1_4 N1_4 1_555 1_555
C3_4 N3_4 1_555 1_555
N55_2 C12_4 1_555 1_555
N12_4 P1_4 1_555 1_555
C10_4 C1_4 1_555 1_555
H12_4 C10_4 1_555 1_555
H13_4 C11_4 1_555 1_555
N17_4 C17_4 1_555 1_555
C15_4 C1_4 1_555 1_555
H17_4 C15_4 1_555 1_555
C17_4 C10_4 1_555 1_555
H19_4 C17_4 1_555 1_555
C26_4 N17_4 1_555 1_555
H26_4 C26_4 1_555 1_555
C27_4 N55_2 1_555 1_555
H27_4 C27_4 1_555 1_555
C11_4 C27_4 1_555 1_555
C15_4 C26_4 1_555 1_555
N8_4 H7_4 1_555 1_555
C4_4 N8_4 1_555 1_555
C9_4 C4_4 1_555 1_555
H11_4 C9_4 1_555 1_555
N73 C14_4 1_555 1_555
C14_4 C9_4 1_555 1_555
H16_4 C14_4 1_555 1_555
C18_4 C4_4 1_555 1_555
H20_4 C18_4 1_555 1_555
C31_4 N73 1_555 1_555
H31_4 C31_4 1_555 1_555
H32_4 C32_4 1_555 1_555
H33_4 C33_4 1_555 1_555
C36_4 C32_4 1_555 1_555
H39_4 C39_4 1_555 1_555
C40_4 C39_4 1_555 1_555
H40_4 C40_4 1_555 1_555
N20_4 C36_4 1_555 1_555
Cu18_2 N78_4 1_555 1_555
N22_4 H42_4 1_555 1_555
C42_4 N22_4 1_555 1_555
N34_4 H54_4 1_555 1_555
N57_2 C75_4 1_555 1_555
C69_4 C42_4 1_555 1_555
H75_4 C69_4 1_555 1_555
C72_4 C60_4 1_555 1_555
N78_4 C90_4 1_555 1_555
C75_4 H81_4 1_555 1_555
C84_4 C42_4 1_555 1_555
N84_2 C126_4 1_555 1_555
C90_4 C69_4 1_555 1_555
H96_4 C90_4 1_555 1_555
H108_4 C102_4 1_555 1_555
C108_4 C60_4 1_555 1_555
H111_4 C108_4 1_555 1_555
C117_4 N78_4 1_555 1_555
H117_4 C117_4 1_555 1_555
C120_4 N57_2 1_555 1_555
H120_4 C120_4 1_555 1_555
C126_4 H126_4 1_555 1_555
H141_4 C141_4 1_555 1_555
C144_4 C111_4 1_555 1_555
H144_4 C144_4 1_555 1_555
N88_4 C150_4 1_555 1_555
C150_4 C144_4 1_555 1_555
H150_4 C150_4 1_555 1_555
H153_4 C153_4 1_555 1_555
C18_4 C31_4 1_555 1_555
C40_4 N20_4 1_555 1_555
C72_4 C120_4 1_555 1_555
C75_4 C108_4 1_555 1_555
C84_4 C117_4 1_555 1_555
C126_4 C141_4 1_555 1_555
N88_4 C153_4 1_555 1_555
Cu1_5 N14_4 1_555 1_555
P2_4 N2_4 1_555 1_555
P3_4 N5_4 1_555 1_555
N4_4 P2_4 1_555 1_555
H4_4 N4_4 1_555 1_555
C2_4 N2_4 1_555 1_555
N5_4 H5_4 1_555 1_555
N7_4 C13_4 1_555 1_555
N10_4 P2_4 1_555 1_555
C5_4 C2_4 1_555 1_555
H8_4 C5_4 1_555 1_555
C7_4 N4_4 1_555 1_555
N13_4 P3_4 1_555 1_555
C8_4 N5_4 1_555 1_555
N15_4 P4_4 1_555 1_555
H10_4 N15_4 1_555 1_555
C13_4 C5_4 1_555 1_555
H15_4 C13_4 1_555 1_555
C16_4 C2_4 1_555 1_555
C21_4 C8_4 1_555 1_555
H23_4 C21_4 1_555 1_555
C22_4 N15_4 1_555 1_555
C23_4 C7_4 1_555 1_555
H24_4 C23_4 1_555 1_555
C28_4 N14_4 1_555 1_555
H28_4 C28_4 1_555 1_555
Cu14 N40_4 1_555 1_555
P9_4 N25_4 1_555 1_555
P15_4 N43_4 1_555 1_555
N25_4 H45_4 1_555 1_555
N28_4 P6_4 1_555 1_555
H48_4 N28_4 1_555 1_555
N31_4 P9_4 1_555 1_555
C45_4 N25_4 1_555 1_555
N37_4 P12_4 1_555 1_555
H56_4 N36_4 1_555 1_555
H57_4 N37_4 1_555 1_555
N40_4 C78_4 1_555 1_555
N43_4 H60_4 1_555 1_555
N49_4 P9_4 1_555 1_555
C48_4 N28_4 1_555 1_555
C51_4 N43_4 1_555 1_555
C54_4 C45_4 1_555 1_555
H63_4 C54_4 1_555 1_555
C56_4 H65_4 1_555 1_555
C57_5 H66_4 1_555 1_555
N59_4 P6_4 1_555 1_555
N62_4 P12_4 1_555 1_555
N65_4 Cu1_5 1_555 1_555
N68_4 P15_4 1_555 1_555
H69_4 N68_4 1_555 1_555
C66_4 C51_4 1_555 1_555
H72_4 C66_4 1_555 1_555
N75_3 C81_4 1_555 1_555
C78_4 C54_4 1_555 1_555
H84_4 C78_4 1_555 1_555
C81_4 C66_4 1_555 1_555
H87_4 C81_4 1_555 1_555
C87_4 C45_4 1_555 1_555
H93_3 C87_4 1_555 1_555
N86_2 C125_4 1_555 1_555
C93_4 C51_4 1_555 1_555
H99_4 C93_4 1_555 1_555
C95_4 C56_4 1_555 1_555
C96_4 C57_5 1_555 1_555
H101_4 C95_4 1_555 1_555
H102_4 C96_4 1_555 1_555
C99_4 C48_4 1_555 1_555
H104_4 C98_4 1_555 1_555
H105_4 C99_4 1_555 1_555
C105_4 N68_4 1_555 1_555
C110_4 N36_4 1_555 1_555
C113_4 C110_4 1_555 1_555
H113_4 C113_4 1_555 1_555
H114_4 C114_4 1_555 1_555
C123_4 N65_4 1_555 1_555
C125_4 H125_4 1_555 1_555
C128_4 N86_2 1_555 1_555
H128_4 C128_4 1_555 1_555
H129_4 C129_4 1_555 1_555
C132_4 N75_3 1_555 1_555
H132_4 C132_4 1_555 1_555
C135_4 C105_4 1_555 1_555
H135_4 C135_4 1_555 1_555
C138_4 N40_4 1_555 1_555
H138_4 C138_4 1_555 1_555
H140_4 C140_4 1_555 1_555
C143_4 C110_4 1_555 1_555
H143_4 C143_4 1_555 1_555
C147_4 C135_4 1_555 1_555
H147_4 C147_4 1_555 1_555
N87_4 C149_4 1_555 1_555
C149_4 C143_4 1_555 1_555
H149_4 C149_4 1_555 1_555
C152_4 C113_4 1_555 1_555
H152_4 C152_4 1_555 1_555
C156_4 C105_4 1_555 1_555
H156_4 C156_4 1_555 1_555
C159_4 C156_4 1_555 1_555
H159_4 C159_4 1_555 1_555
N91_4 C147_4 1_555 1_555
P3_4 N9_4 1_555 1_555
P4_4 N10_4 1_555 1_555
P4_4 N13_4 1_555 1_555
C6_4 C8_4 1_555 1_555
C21_4 C28_4 1_555 1_555
P9_4 N59_4 1_555 1_555
P15_4 N49_4 1_555 1_555
P15_4 N62_4 1_555 1_555
C57_5 C63_4 1_555 1_555
N65_4 C96_4 1_555 1_555
C87_4 C138_4 1_555 1_555
C93_4 C132_4 1_555 1_555
C98_4 C128_4 1_555 1_555
C99_4 C129_4 1_555 1_555
C125_4 C140_4 1_555 1_555
N87_4 C152_4 1_555 1_555
C159_4 N91_4 1_555 1_555
N85_2 C29_4 1_555 1_555
H22_4 C20_4 1_555 1_555
C29_4 H29_4 1_555 1_555
C30_4 N85_2 1_555 1_555
H30_4 C30_4 1_555 1_555
H34_4 C34_4 1_555 1_555
C20_4 C30_4 1_555 1_555
C29_4 C34_4 1_555 1_555
Cu19_2 N79_4 1_555 1_555
N23_4 H43_4 1_555 1_555
C43_4 N23_4 1_555 1_555
N35_4 H55_4 1_555 1_555
N42_4 H59_4 1_555 1_555
C50_4 N42_4 1_555 1_555
N56_2 C76_4 1_555 1_555
C65_4 C50_4 1_555 1_555
H71_4 C65_4 1_555 1_555
N74 C80_4 1_555 1_555
C70_4 C43_4 1_555 1_555
H76_4 C70_4 1_555 1_555
C73_4 C61_4 1_555 1_555
N79_4 C91_4 1_555 1_555
C76_4 H82_4 1_555 1_555
C80_4 C65_4 1_555 1_555
H86_4 C80_4 1_555 1_555
C85_4 C43_4 1_555 1_555
N83_2 C127_4 1_555 1_555
C91_4 C70_4 1_555 1_555
H97_4 C91_4 1_555 1_555
C92_4 C50_4 1_555 1_555
H98_4 C92_4 1_555 1_555
H109_4 C103_4 1_555 1_555
C109_4 C61_4 1_555 1_555
H112_4 C109_4 1_555 1_555
C118_4 N79_4 1_555 1_555
H118_4 C118_4 1_555 1_555
C121_4 N56_2 1_555 1_555
H121_4 C121_4 1_555 1_555
C127_4 H127_4 1_555 1_555
C131_4 N74 1_555 1_555
H131_4 C131_4 1_555 1_555
H134_4 C134_4 1_555 1_555
H137_4 C137_4 1_555 1_555
H142_4 C142_4 1_555 1_555
C145_4 C112_4 1_555 1_555
H145_4 C145_4 1_555 1_555
C146_4 C134_4 1_555 1_555
N89_4 C151_4 1_555 1_555
C151_4 C145_4 1_555 1_555
H151_4 C151_4 1_555 1_555
H154_4 C154_4 1_555 1_555
H155_4 C155_4 1_555 1_555
C158_4 C155_4 1_555 1_555
H158_4 C158_4 1_555 1_555
N90_4 C146_4 1_555 1_555
C73_4 C121_4 1_555 1_555
C76_4 C109_4 1_555 1_555
C85_4 C118_4 1_555 1_555
C92_4 C131_4 1_555 1_555
C127_4 C142_4 1_555 1_555
N89_4 C154_4 1_555 1_555
C158_4 N90_4 1_555 1_555
H6_4 N6_4 1_555 1_555
C6_5 H9_4 1_555 1_555
C19_4 C6_5 1_555 1_555
H21_4 C19_4 1_555 1_555
C24_4 N6_4 1_555 1_555
C25_4 C24_4 1_555 1_555
H25_4 C25_4 1_555 1_555
C35_4 C24_4 1_555 1_555
H35_4 C35_4 1_555 1_555
N19_4 C37_4 1_555 1_555
C37_4 C35_4 1_555 1_555
H37_4 C37_4 1_555 1_555
C38_4 C25_4 1_555 1_555
H38_4 C38_4 1_555 1_555
P5_4 N21_4 1_555 1_555
P8_4 N24_4 1_555 1_555
P10_4 N26_4 1_555 1_555
P11_4 N33_4 1_555 1_555
P16_4 N44_4 1_555 1_555
Cu20_2 N77_4 1_555 1_555
N21_4 H41_4 1_555 1_555
N24_4 H44_4 1_555 1_555
N26_4 H46_4 1_555 1_555
N27_4 P5_4 1_555 1_555
N29_4 P7_4 1_555 1_555
H47_4 N27_4 1_555 1_555
H49_4 N29_4 1_555 1_555
N30_4 P8_4 1_555 1_555
N32_4 P10_4 1_555 1_555
H50_4 N30_4 1_555 1_555
C41_4 N21_4 1_555 1_555
C44_4 N24_4 1_555 1_555
C46_4 N26_4 1_555 1_555
N33_4 H53_4 1_555 1_555
N38_4 P13_4 1_555 1_555
H58_4 N38_4 1_555 1_555
N39_4 C77_4 1_555 1_555
N41_4 C79_4 1_555 1_555
N44_4 H61_4 1_555 1_555
N45_4 P5_4 1_555 1_555
N48_4 P8_4 1_555 1_555
N50_4 P10_4 1_555 1_555
C47_4 N27_4 1_555 1_555
C49_4 N29_4 1_555 1_555
C52_4 N44_4 1_555 1_555
N54_2 C74_4 1_555 1_555
C53_4 C44_4 1_555 1_555
C55_4 C46_4 1_555 1_555
H62_4 C53_4 1_555 1_555
H64_4 C55_4 1_555 1_555
C58_5 H67_4 1_555 1_555
C59_4 N30_4 1_555 1_555
N58_4 P5_4 1_555 1_555
N60_4 P7_4 1_555 1_555
N61_4 P11_4 1_555 1_555
N63_4 P13_4 1_555 1_555
N64_4 Cu1_6 1_555 1_555
N66_4 Cu1_6 1_555 1_555
C62_4 N33_4 1_555 1_555
N67_4 P14_4 1_555 1_555
N69_4 P16_4 1_555 1_555
H68_4 N67_4 1_555 1_555
H70_4 N69_4 1_555 1_555
C67_4 C52_4 1_555 1_555
H73_4 C67_4 1_555 1_555
N76_3 C82_4 1_555 1_555
C68_4 C41_4 1_555 1_555
H74_4 C68_4 1_555 1_555
C71_4 C59_4 1_555 1_555
H77_4 C71_4 1_555 1_555
N77_4 C89_4 1_555 1_555
C74_4 H80_4 1_555 1_555
C77_4 C53_4 1_555 1_555
C79_4 C55_4 1_555 1_555
H83_4 C77_4 1_555 1_555
H85_4 C79_4 1_555 1_555
C82_4 C67_4 1_555 1_555
H88_4 C82_4 1_555 1_555
C83_4 C41_4 1_555 1_555
H89_4 C83_4 1_555 1_555
C86_4 C44_4 1_555 1_555
C88_4 C46_4 1_555 1_555
H94_4 C88_4 1_555 1_555
C89_4 C68_4 1_555 1_555
H95_4 C89_4 1_555 1_555
C94_4 C52_4 1_555 1_555
H100_4 C94_4 1_555 1_555
C97_4 C58_5 1_555 1_555
H103_4 C97_4 1_555 1_555
C100_4 C49_4 1_555 1_555
H106_4 C100_4 1_555 1_555
C101_4 C62_4 1_555 1_555
H107_4 C101_4 1_555 1_555
C104_4 N67_4 1_555 1_555
C106_4 N69_4 1_555 1_555
C107_4 C59_4 1_555 1_555
H110_4 C107_4 1_555 1_555
H115_4 C115_4 1_555 1_555
C116_4 N77_4 1_555 1_555
H116_4 C116_4 1_555 1_555
C119_4 N54_2 1_555 1_555
H119_4 C119_4 1_555 1_555
C122_4 N64_4 1_555 1_555
C124_4 N66_4 1_555 1_555
H122_4 C122_4 1_555 1_555
H130_4 C130_4 1_555 1_555
C133_4 N76_3 1_555 1_555
H133_4 C133_4 1_555 1_555
C136_4 C106_4 1_555 1_555
H136_4 C136_4 1_555 1_555
C139_4 N41_4 1_555 1_555
H139_4 C139_4 1_555 1_555
C148_4 C136_4 1_555 1_555
H148_4 C148_4 1_555 1_555
C157_4 C106_4 1_555 1_555
H157_4 C157_4 1_555 1_555
C160_4 C157_4 1_555 1_555
H160_4 C160_4 1_555 1_555
N92_4 C148_4 1_555 1_555
N19_4 C38_4 1_555 1_555
P8_4 N58_4 1_555 1_555
P10_4 N60_4 1_555 1_555
P11_4 N45_4 1_555 1_555
P14_4 N48_4 1_555 1_555
P14_4 N61_4 1_555 1_555
P16_4 N50_4 1_555 1_555
P16_4 N63_4 1_555 1_555
C56_5 C62_4 1_555 1_555
C58_5 C64_4 1_555 1_555
N66_4 C97_4 1_555 1_555
C71_4 C119_4 1_555 1_555
C74_4 C107_4 1_555 1_555
C83_4 C116_4 1_555 1_555
C88_4 C139_4 1_555 1_555
C94_4 C133_4 1_555 1_555
C100_4 C130_4 1_555 1_555
C101_4 C122_4 1_555 1_555
C160_4 N92_4 1_555 1_555

#END
