
###############################################################################
#
# This file contains modified crystal structure data generated from the
# MOF subset of the Cambridge Structural Database (CSD) v543 
# hosted by the Cambridge Crystallographic Data Centre (CCDC).
#
# This work is licensed under the Creative Commons
# Attribution-NonCommercial-ShareAlike 4.0 International License.
# To view a copy of this license, visit
# http://creativecommons.org/licenses/by-nc-sa/4.0/
# or send a letter to
# Creative Commons, PO Box 1866, Mountain View, CA 94042, USA.
#
# CIF created using the CSD Python API on 29 September 2022
# The structure has been converted into the P1 space group
# The structure has a 3D framework
# The original CSD entry SEMFEX is in the orthorhombic crystal system
# The framework has been calculated to contain at least 10.0% void space
# The void calculation uses a probe of radius 1.32A, grid spacing 0.4
# The framework is charged, counterions have been retained in the structure
#
###############################################################################

data_SEMFEX
_chemical_formula_moiety         '(C336 H336 Cl16 Co12 N160 O96 P32 4-)n'
_symmetry_cell_setting           triclinic
_symmetry_space_group_name_H-M   'P 1'
_symmetry_Int_Tables_number      1
_space_group_name_Hall           'P 1'
loop_
_symmetry_equiv_pos_site_id
_symmetry_equiv_pos_as_xyz
1 x,y,z
_cell_length_a                   17.215(3)
_cell_length_b                   18.088(4)
_cell_length_c                   44.671(8)
_cell_angle_alpha                90
_cell_angle_beta                 90
_cell_angle_gamma                90
_cell_volume                     13909.9
loop_
_atom_site_label
_atom_site_type_symbol
_atom_site_fract_x
_atom_site_fract_y
_atom_site_fract_z
P1 P 0.00882(6) 0.1250 0.1250
P2 P 0.1250 0.23642(6) 0.1250
N1 N 0.05387(15) 0.19303(14) 0.11103(6)
N3 N 0.16164(16) 0.29121(16) 0.09815(7)
N5 N 0.05509(17) 0.42418(16) 0.03243(6)
C1 C 0.12438(19) 0.33427(19) 0.07673(8)
C5 C 0.0201(2) 0.3640(2) 0.04369(9)
C7 C 0.0511(2) 0.3184(2) 0.06495(9)
H6 H 0.0237 0.2771 0.0715
C10 C 0.1622(3) 0.3952(3) 0.06440(13)
H9 H 0.2120 0.4074 0.0707
C11 C 0.1262(3) 0.4370(3) 0.04310(12)
H10 H 0.1532 0.4774 0.0355
H11 H 0.2050 0.3023 0.1016
Co2 Co 0.5000 0.2500 0.2500
Co3 Co -0.0000 0.5000 0.0000
Co7 Co 0.5000 0.0000 0.0000
Co8 Co 0.2500 0.5000 0.2500
P3 P 0.24118(6) 0.1250 0.1250
P4 P 0.1250 0.01358(6) 0.1250
N6 N 0.19613(15) 0.19303(14) 0.13897(6)
N7 N 0.19613(15) 0.05697(14) 0.11103(6)
N8 N 0.05387(15) 0.05697(14) 0.13897(6)
N9 N 0.29803(17) 0.08874(15) 0.15133(6)
N11 N 0.29803(17) 0.16126(15) 0.09867(6)
H12 H 0.2968 0.0413 0.1528
H14 H 0.2968 0.2087 0.0972
N14 N 0.08836(16) 0.29121(16) 0.15185(7)
N15 N 0.44082(18) 0.19333(16) 0.21455(7)
N17 N 0.44082(18) 0.05667(16) 0.03545(7)
N23 N 0.19491(17) 0.42418(16) 0.21757(6)
C14 C 0.12562(19) 0.33427(19) 0.17327(8)
C15 C 0.34706(19) 0.12452(18) 0.17124(8)
C17 C 0.34706(19) 0.12548(18) 0.07876(8)
C18 C 0.3635(2) 0.2001(2) 0.16988(8)
C20 C 0.3635(2) 0.0499(2) 0.08012(8)
H15 H 0.3436 0.2291 0.1545
H17 H 0.3436 0.0209 0.0955
C21 C 0.4096(2) 0.2308(2) 0.19162(9)
C23 C 0.4096(2) 0.0192(2) 0.05838(9)
H18 H 0.4199 0.2811 0.1904
C26 C 0.2299(2) 0.3640(2) 0.20631(9)
H23 H 0.2791 0.3524 0.2135
C27 C 0.4272(3) 0.1202(2) 0.21489(9)
C29 C 0.4272(3) 0.1298(2) 0.03511(9)
H24 H 0.4500 0.0923 0.2300
H26 H 0.4500 0.1577 0.0200
C32 C 0.1989(2) 0.3184(2) 0.18505(9)
H29 H 0.2263 0.2771 0.1785
C33 C 0.3819(2) 0.0840(2) 0.19438(9)
C35 C 0.3819(2) 0.1660(2) 0.05562(9)
H30 H 0.3744 0.0333 0.1958
H32 H 0.3744 0.2167 0.0542
C39 C 0.0878(3) 0.3952(3) 0.18560(13)
H36 H 0.0380 0.4074 0.1793
C42 C 0.1238(3) 0.4370(3) 0.20690(12)
H39 H 0.0968 0.4774 0.2145
H42 H 0.0450 0.3023 0.1484
Co3_2 Co -0.0000 0.5000 1.0000
Co7_2 Co 0.5000 0.0000 1.0000
Co4 Co 0.2500 0.7500 0.0000
Co6 Co 0.0000 0.7500 0.2500
Co7_3 Co 0.5000 1.0000 0.0000
N12 N 0.08836(16) 0.95879(16) 0.09815(7)
N13 N 0.16164(16) 0.95879(16) 0.15185(7)
N20 N 0.05918(18) 0.80667(16) 0.28545(7)
N21 N 0.19491(17) 0.82582(16) 0.03243(6)
N22 N 0.05509(17) 0.82582(16) 0.21757(6)
O6 O 0.09399(16) 0.67875(14) 0.24876(6)
C12 C 0.12562(19) 0.91573(19) 0.07673(8)
C13 C 0.12438(19) 0.91573(19) 0.17327(8)
H20 H 0.4199 0.9689 0.0596
C24 C 0.2299(2) 0.8860(2) 0.04369(9)
C25 C 0.0201(2) 0.8860(2) 0.20631(9)
H21 H 0.2791 0.8976 0.0365
C30 C 0.1989(2) 0.9316(2) 0.06495(9)
C31 C 0.0511(2) 0.9316(2) 0.18505(9)
H27 H 0.2263 0.9729 0.0715
H28 H 0.0237 0.9729 0.1785
C37 C 0.0878(3) 0.8548(3) 0.06440(13)
C38 C 0.1622(3) 0.8548(3) 0.18560(13)
H34 H 0.0380 0.8426 0.0707
H35 H 0.2120 0.8426 0.1793
C40 C 0.1238(3) 0.8130(3) 0.04310(12)
C41 C 0.1262(3) 0.8130(3) 0.20690(12)
H37 H 0.0968 0.7726 0.0355
H38 H 0.1532 0.7726 0.2145
H40 H 0.0450 0.9477 0.1016
H41 H 0.2050 0.9477 0.1484
Co4_2 Co 0.2500 0.7500 1.0000
Co7_4 Co 0.5000 1.0000 1.0000
Co1 Co 0.7500 0.2500 0.0000
N2 N 0.95197(17) 0.08874(15) 0.09867(6)
H1 H 0.9532 0.0413 0.0972
N4 N 0.80918(18) 0.19333(16) 0.03545(7)
C2 C 0.90294(19) 0.12452(18) 0.07876(8)
C3 C 0.8865(2) 0.2001(2) 0.08012(8)
H2 H 0.9064 0.2291 0.0955
C4 C 0.8404(2) 0.2308(2) 0.05838(9)
H3 H 0.8301 0.2811 0.0596
H4 H 0.9709 0.3524 0.0365
C6 C 0.8228(3) 0.1202(2) 0.03511(9)
H5 H 0.8000 0.0923 0.0200
C8 C 0.8681(2) 0.0840(2) 0.05562(9)
H7 H 0.8756 0.0333 0.0542
Co3_3 Co 1.0000 0.5000 0.0000
Co5 Co 0.7500 0.0000 0.2500
N10 N 0.95197(17) 0.16126(15) 0.15133(6)
H13 H 0.9532 0.2087 0.1528
N16 N 0.80918(18) 0.05667(16) 0.21455(7)
N24 N 0.69491(17) 0.32582(16) 0.03243(6)
O3 O 0.65601(16) 0.17875(14) 0.00124(6)
O4 O 0.59399(16) 0.07125(14) 0.00124(6)
C16 C 0.90294(19) 0.12548(18) 0.17124(8)
C19 C 0.8865(2) 0.0499(2) 0.16988(8)
H16 H 0.9064 0.0209 0.1545
C22 C 0.8404(2) 0.0192(2) 0.19162(9)
C28 C 0.8228(3) 0.1298(2) 0.21489(9)
H25 H 0.8000 0.1577 0.2300
C34 C 0.8681(2) 0.1660(2) 0.19438(9)
H31 H 0.8756 0.2167 0.1958
C36 C 0.6250 0.1250 0.01438(12)
H33 H 0.6250 0.1250 0.0352
Co1_2 Co 0.7500 0.2500 1.0000
O1 O 0.84399(16) 0.32125(14) 0.99876(6)
C9 C 0.8750 0.3750 0.98562(12)
H8 H 0.8750 0.3750 0.9648
Co3_4 Co 1.0000 0.5000 1.0000
N18 N 0.69082(18) 0.30667(16) 0.96455(7)
N25 N 0.80509(17) 0.17418(16) 0.96757(6)
O2 O 0.90601(16) 0.42875(14) 0.99876(6)
Co5_2 Co 0.7500 1.0000 0.2500
Co6_2 Co 1.0000 0.7500 0.2500
N19 N 0.94082(18) 0.69333(16) 0.21455(7)
N26 N 0.94491(17) 0.67418(16) 0.28243(6)
O5 O 0.90601(16) 0.82125(14) 0.25124(6)
H19 H 0.8301 0.9689 0.1904
H22 H 0.9709 0.8976 0.2135
N19_2 N 0.30918(18) 0.55667(16) 0.21455(7)
N20_2 N 0.19082(18) 0.44333(16) 0.28545(7)
N26_2 N 0.30509(17) 0.57582(16) 0.28243(6)
O5_2 O 0.34399(16) 0.42875(14) 0.25124(6)
O6_2 O 0.15601(16) 0.57125(14) 0.24876(6)
N25_2 N 0.44491(17) 0.07582(16) 0.96757(6)
N24_2 N 0.55509(17) 0.92418(16) 0.03243(6)
O1_2 O 0.40601(16) 0.92875(14) 0.99876(6)
C9_2 C 0.3750 0.8750 0.98562(12)
H8_2 H 0.3750 0.8750 0.9648
N18_2 N 0.55918(18) 0.94333(16) 0.96455(7)
O2_2 O 0.34399(16) 0.82125(14) 0.99876(6)
O6_3 O 0.09399(16) 0.57125(14) 0.00124(6)
N20_3 N 0.05918(18) 0.44333(16) 0.96455(7)
N19_3 N 0.94082(18) 0.55667(16) 0.03545(7)
N25_3 N 0.80509(17) 0.07582(16) 0.28243(6)
O3_2 O 0.65601(16) 0.07125(14) 0.24876(6)
O4_2 O 0.59399(16) 0.17875(14) 0.24876(6)
C36_2 C 0.6250 0.1250 0.23562(12)
H33_2 H 0.6250 0.1250 0.2148
N26_3 N 0.94491(17) 0.57582(16) 0.96757(6)
O1_3 O 0.84399(16) 0.92875(14) 0.25124(6)
C9_3 C 0.8750 0.8750 0.26438(12)
H8_3 H 0.8750 0.8750 0.2852
N18_3 N 0.69082(18) 0.94333(16) 0.28545(7)
N24_3 N 0.69491(17) 0.92418(16) 0.21757(6)
O1_4 O 0.40601(16) 0.32125(14) 0.25124(6)
C9_4 C 0.3750 0.3750 0.26438(12)
H8_4 H 0.3750 0.3750 0.2852
N18_4 N 0.55918(18) 0.30667(16) 0.28545(7)
N24_4 N 0.55509(17) 0.32582(16) 0.21757(6)
N25_4 N 0.44491(17) 0.17418(16) 0.28243(6)
N19_4 N 0.30918(18) 0.69333(16) 0.03545(7)
O6_4 O 0.15601(16) 0.67875(14) 0.00124(6)
N20_4 N 0.19082(18) 0.80667(16) 0.96455(7)
N26_4 N 0.30509(17) 0.67418(16) 0.96757(6)
Co3_5 Co 0.0000 0.0000 0.5000
Co8_2 Co 0.2500 -0.0000 0.7500
P1_2 P 0.00882(6) 0.6250 0.6250
P2_2 P 0.1250 0.73642(6) 0.6250
N1_2 N 0.05387(15) 0.69303(14) 0.61103(6)
N3_2 N 0.16164(16) 0.79121(16) 0.59815(7)
N5_2 N 0.05509(17) 0.92418(16) 0.53243(6)
C1_2 C 0.12438(19) 0.83427(19) 0.57673(8)
C5_2 C 0.0201(2) 0.8640(2) 0.54369(9)
C7_2 C 0.0511(2) 0.8184(2) 0.56495(9)
H6_2 H 0.0237 0.7771 0.5715
C10_2 C 0.1622(3) 0.8952(3) 0.56440(13)
H9_2 H 0.2120 0.9074 0.5707
C11_2 C 0.1262(3) 0.9370(3) 0.54310(12)
H10_2 H 0.1532 0.9774 0.5355
H11_2 H 0.2050 0.8023 0.6016
Co2_2 Co 0.5000 0.7500 0.7500
Co3_6 Co -0.0000 1.0000 0.5000
Co4_3 Co 0.2500 0.2500 0.5000
Co6_3 Co 0.0000 0.2500 0.7500
Co7_5 Co 0.5000 0.5000 0.5000
Co8_3 Co 0.2500 1.0000 0.7500
P3_2 P 0.24118(6) 0.6250 0.6250
P4_2 P 0.1250 0.51358(6) 0.6250
N6_2 N 0.19613(15) 0.69303(14) 0.63897(6)
N7_2 N 0.19613(15) 0.55697(14) 0.61103(6)
N8_2 N 0.05387(15) 0.55697(14) 0.63897(6)
N9_2 N 0.29803(17) 0.58874(15) 0.65133(6)
N11_2 N 0.29803(17) 0.66126(15) 0.59867(6)
H12_2 H 0.2968 0.5413 0.6528
H14_2 H 0.2968 0.7087 0.5972
N12_2 N 0.08836(16) 0.45879(16) 0.59815(7)
N13_2 N 0.16164(16) 0.45879(16) 0.65185(7)
N14_2 N 0.08836(16) 0.79121(16) 0.65185(7)
N15_2 N 0.44082(18) 0.69333(16) 0.71455(7)
N17_2 N 0.44082(18) 0.55667(16) 0.53545(7)
N20_5 N 0.05918(18) 0.30667(16) 0.78545(7)
N21_2 N 0.19491(17) 0.32582(16) 0.53243(6)
N22_2 N 0.05509(17) 0.32582(16) 0.71757(6)
N23_2 N 0.19491(17) 0.92418(16) 0.71757(6)
O6_5 O 0.09399(16) 0.17875(14) 0.74876(6)
C12_2 C 0.12562(19) 0.41573(19) 0.57673(8)
C13_2 C 0.12438(19) 0.41573(19) 0.67327(8)
C14_2 C 0.12562(19) 0.83427(19) 0.67327(8)
C15_2 C 0.34706(19) 0.62452(18) 0.67124(8)
C17_2 C 0.34706(19) 0.62548(18) 0.57876(8)
C18_2 C 0.3635(2) 0.7001(2) 0.66988(8)
C20_2 C 0.3635(2) 0.5499(2) 0.58012(8)
H15_2 H 0.3436 0.7291 0.6545
H17_2 H 0.3436 0.5209 0.5955
C21_2 C 0.4096(2) 0.7308(2) 0.69162(9)
C23_2 C 0.4096(2) 0.5192(2) 0.55838(9)
H18_2 H 0.4199 0.7811 0.6904
H20_2 H 0.4199 0.4689 0.5596
C24_2 C 0.2299(2) 0.3860(2) 0.54369(9)
C25_2 C 0.0201(2) 0.3860(2) 0.70631(9)
C26_2 C 0.2299(2) 0.8640(2) 0.70631(9)
H21_2 H 0.2791 0.3976 0.5365
H23_2 H 0.2791 0.8524 0.7135
C27_2 C 0.4272(3) 0.6202(2) 0.71489(9)
C29_2 C 0.4272(3) 0.6298(2) 0.53511(9)
H24_2 H 0.4500 0.5923 0.7300
H26_2 H 0.4500 0.6577 0.5200
C30_2 C 0.1989(2) 0.4316(2) 0.56495(9)
C31_2 C 0.0511(2) 0.4316(2) 0.68505(9)
C32_2 C 0.1989(2) 0.8184(2) 0.68505(9)
H27_2 H 0.2263 0.4729 0.5715
H28_2 H 0.0237 0.4729 0.6785
H29_2 H 0.2263 0.7771 0.6785
C33_2 C 0.3819(2) 0.5840(2) 0.69438(9)
C35_2 C 0.3819(2) 0.6660(2) 0.55562(9)
H30_2 H 0.3744 0.5333 0.6958
H32_2 H 0.3744 0.7167 0.5542
C37_2 C 0.0878(3) 0.3548(3) 0.56440(13)
C38_2 C 0.1622(3) 0.3548(3) 0.68560(13)
C39_2 C 0.0878(3) 0.8952(3) 0.68560(13)
H34_2 H 0.0380 0.3426 0.5707
H35_2 H 0.2120 0.3426 0.6793
H36_2 H 0.0380 0.9074 0.6793
C40_2 C 0.1238(3) 0.3130(3) 0.54310(12)
C41_2 C 0.1262(3) 0.3130(3) 0.70690(12)
C42_2 C 0.1238(3) 0.9370(3) 0.70690(12)
H37_2 H 0.0968 0.2726 0.5355
H38_2 H 0.1532 0.2726 0.7145
H39_2 H 0.0968 0.9774 0.7145
H40_2 H 0.0450 0.4477 0.6016
H41_2 H 0.2050 0.4477 0.6484
H42_2 H 0.0450 0.8023 0.6484
Co3_7 Co 1.0000 0.0000 0.5000
Co1_3 Co 0.7500 0.7500 0.5000
N2_2 N 0.95197(17) 0.58874(15) 0.59867(6)
H1_2 H 0.9532 0.5413 0.5972
N4_2 N 0.80918(18) 0.69333(16) 0.53545(7)
O1_5 O 0.84399(16) 0.82125(14) 0.49876(6)
C2_2 C 0.90294(19) 0.62452(18) 0.57876(8)
C3_2 C 0.8865(2) 0.7001(2) 0.58012(8)
H2_2 H 0.9064 0.7291 0.5955
C4_2 C 0.8404(2) 0.7308(2) 0.55838(9)
H3_2 H 0.8301 0.7811 0.5596
H4_2 H 0.9709 0.8524 0.5365
C6_2 C 0.8228(3) 0.6202(2) 0.53511(9)
H5_2 H 0.8000 0.5923 0.5200
C8_2 C 0.8681(2) 0.5840(2) 0.55562(9)
H7_2 H 0.8756 0.5333 0.5542
C9_5 C 0.8750 0.8750 0.48562(12)
H8_5 H 0.8750 0.8750 0.4648
Co3_8 Co 1.0000 1.0000 0.5000
Co5_3 Co 0.7500 0.5000 0.7500
Co6_4 Co 1.0000 0.2500 0.7500
N10_2 N 0.95197(17) 0.66126(15) 0.65133(6)
H13_2 H 0.9532 0.7087 0.6528
N16_2 N 0.80918(18) 0.55667(16) 0.71455(7)
N18_5 N 0.69082(18) 0.80667(16) 0.46455(7)
N19_5 N 0.94082(18) 0.19333(16) 0.71455(7)
N24_5 N 0.69491(17) 0.82582(16) 0.53243(6)
N25_5 N 0.80509(17) 0.67418(16) 0.46757(6)
N26_5 N 0.94491(17) 0.17418(16) 0.78243(6)
O2_3 O 0.90601(16) 0.92875(14) 0.49876(6)
O3_3 O 0.65601(16) 0.67875(14) 0.50124(6)
O4_3 O 0.59399(16) 0.57125(14) 0.50124(6)
O5_3 O 0.90601(16) 0.32125(14) 0.75124(6)
C16_2 C 0.90294(19) 0.62548(18) 0.67124(8)
C19_2 C 0.8865(2) 0.5499(2) 0.66988(8)
H16_2 H 0.9064 0.5209 0.6545
C22_2 C 0.8404(2) 0.5192(2) 0.69162(9)
H19_2 H 0.8301 0.4689 0.6904
H22_2 H 0.9709 0.3976 0.7135
C28_2 C 0.8228(3) 0.6298(2) 0.71489(9)
H25_2 H 0.8000 0.6577 0.7300
C34_2 C 0.8681(2) 0.6660(2) 0.69438(9)
H31_2 H 0.8756 0.7167 0.6958
C36_3 C 0.6250 0.6250 0.51438(12)
H33_3 H 0.6250 0.6250 0.5352
N19_6 N 0.30918(18) 0.05667(16) 0.71455(7)
N26_6 N 0.30509(17) 0.07582(16) 0.78243(6)
O6_6 O 0.15601(16) 0.07125(14) 0.74876(6)
O1_6 O 0.40601(16) 0.42875(14) 0.49876(6)
C9_6 C 0.3750 0.3750 0.48562(12)
H8_6 H 0.3750 0.3750 0.4648
N18_6 N 0.55918(18) 0.44333(16) 0.46455(7)
N20_6 N 0.19082(18) 0.94333(16) 0.78545(7)
N24_6 N 0.55509(17) 0.42418(16) 0.53243(6)
N25_6 N 0.44491(17) 0.57582(16) 0.46757(6)
O2_4 O 0.34399(16) 0.32125(14) 0.49876(6)
O5_4 O 0.34399(16) 0.92875(14) 0.75124(6)
O6_7 O 0.09399(16) 0.07125(14) 0.50124(6)
N20_7 N 0.05918(18) 0.94333(16) 0.46455(7)
N19_7 N 0.94082(18) 0.05667(16) 0.53545(7)
N26_7 N 0.94491(17) 0.07582(16) 0.46757(6)
O1_7 O 0.84399(16) 0.42875(14) 0.75124(6)
C9_7 C 0.8750 0.3750 0.76438(12)
H8_7 H 0.8750 0.3750 0.7852
N18_7 N 0.69082(18) 0.44333(16) 0.78545(7)
N24_7 N 0.69491(17) 0.42418(16) 0.71757(6)
N25_7 N 0.80509(17) 0.57582(16) 0.78243(6)
O3_4 O 0.65601(16) 0.57125(14) 0.74876(6)
O4_4 O 0.59399(16) 0.67875(14) 0.74876(6)
C36_4 C 0.6250 0.6250 0.73562(12)
H33_4 H 0.6250 0.6250 0.7148
O1_8 O 0.40601(16) 0.82125(14) 0.75124(6)
C9_8 C 0.3750 0.8750 0.76438(12)
H8_8 H 0.3750 0.8750 0.7852
N18_8 N 0.55918(18) 0.80667(16) 0.78545(7)
N19_8 N 0.30918(18) 0.19333(16) 0.53545(7)
N20_8 N 0.19082(18) 0.30667(16) 0.46455(7)
N24_8 N 0.55509(17) 0.82582(16) 0.71757(6)
N25_8 N 0.44491(17) 0.67418(16) 0.78243(6)
N26_8 N 0.30509(17) 0.17418(16) 0.46757(6)
O6_8 O 0.15601(16) 0.17875(14) 0.50124(6)
P1_3 P 0.50882(6) 0.1250 0.6250
P2_3 P 0.6250 0.23642(6) 0.6250
N1_3 N 0.55387(15) 0.19303(14) 0.61103(6)
N2_3 N 0.45197(17) 0.08874(15) 0.59867(6)
H1_3 H 0.4532 0.0413 0.5972
N3_3 N 0.66164(16) 0.29121(16) 0.59815(7)
C1_3 C 0.62438(19) 0.33427(19) 0.57673(8)
C2_3 C 0.40294(19) 0.12452(18) 0.57876(8)
C3_3 C 0.3865(2) 0.2001(2) 0.58012(8)
H2_3 H 0.4064 0.2291 0.5955
C4_3 C 0.3404(2) 0.2308(2) 0.55838(9)
H3_3 H 0.3301 0.2811 0.5596
C5_3 C 0.5201(2) 0.3640(2) 0.54369(9)
H4_3 H 0.4709 0.3524 0.5365
C6_3 C 0.3228(3) 0.1202(2) 0.53511(9)
H5_3 H 0.3000 0.0923 0.5200
C7_3 C 0.5511(2) 0.3184(2) 0.56495(9)
H6_3 H 0.5237 0.2771 0.5715
C8_3 C 0.3681(2) 0.0840(2) 0.55562(9)
H7_3 H 0.3756 0.0333 0.5542
C10_3 C 0.6622(3) 0.3952(3) 0.56440(13)
H9_3 H 0.7120 0.4074 0.5707
C11_3 C 0.6262(3) 0.4370(3) 0.54310(12)
H10_3 H 0.6532 0.4774 0.5355
H11_3 H 0.7050 0.3023 0.6016
P3_3 P 0.74118(6) 0.1250 0.6250
P4_3 P 0.6250 0.01358(6) 0.6250
N6_3 N 0.69613(15) 0.19303(14) 0.63897(6)
N7_3 N 0.69613(15) 0.05697(14) 0.61103(6)
N8_3 N 0.55387(15) 0.05697(14) 0.63897(6)
N9_3 N 0.79803(17) 0.08874(15) 0.65133(6)
N10_3 N 0.45197(17) 0.16126(15) 0.65133(6)
N11_3 N 0.79803(17) 0.16126(15) 0.59867(6)
H12_3 H 0.7968 0.0413 0.6528
H13_3 H 0.4532 0.2087 0.6528
H14_3 H 0.7968 0.2087 0.5972
N14_3 N 0.58836(16) 0.29121(16) 0.65185(7)
C14_3 C 0.62562(19) 0.33427(19) 0.67327(8)
C15_3 C 0.84706(19) 0.12452(18) 0.67124(8)
C16_3 C 0.40294(19) 0.12548(18) 0.67124(8)
C17_3 C 0.84706(19) 0.12548(18) 0.57876(8)
C18_3 C 0.8635(2) 0.2001(2) 0.66988(8)
C19_3 C 0.3865(2) 0.0499(2) 0.66988(8)
C20_3 C 0.8635(2) 0.0499(2) 0.58012(8)
H15_3 H 0.8436 0.2291 0.6545
H16_3 H 0.4064 0.0209 0.6545
H17_3 H 0.8436 0.0209 0.5955
C21_3 C 0.9096(2) 0.2308(2) 0.69162(9)
C22_3 C 0.3404(2) 0.0192(2) 0.69162(9)
C23_3 C 0.9096(2) 0.0192(2) 0.55838(9)
H18_3 H 0.9199 0.2811 0.6904
C26_3 C 0.7299(2) 0.3640(2) 0.70631(9)
H23_3 H 0.7791 0.3524 0.7135
C27_3 C 0.9272(3) 0.1202(2) 0.71489(9)
C28_3 C 0.3228(3) 0.1298(2) 0.71489(9)
C29_3 C 0.9272(3) 0.1298(2) 0.53511(9)
H24_3 H 0.9500 0.0923 0.7300
H25_3 H 0.3000 0.1577 0.7300
H26_3 H 0.9500 0.1577 0.5200
C32_3 C 0.6989(2) 0.3184(2) 0.68505(9)
H29_3 H 0.7263 0.2771 0.6785
C33_3 C 0.8819(2) 0.0840(2) 0.69438(9)
C34_3 C 0.3681(2) 0.1660(2) 0.69438(9)
C35_3 C 0.8819(2) 0.1660(2) 0.55562(9)
H30_3 H 0.8744 0.0333 0.6958
H31_3 H 0.3756 0.2167 0.6958
H32_3 H 0.8744 0.2167 0.5542
C36_5 C 0.1250 0.1250 0.51438(12)
H33_5 H 0.1250 0.1250 0.5352
C39_3 C 0.5878(3) 0.3952(3) 0.68560(13)
H36_3 H 0.5380 0.4074 0.6793
C42_3 C 0.6238(3) 0.4370(3) 0.70690(12)
H39_3 H 0.5968 0.4774 0.7145
H42_3 H 0.5450 0.3023 0.6484
N12_3 N 0.58836(16) 0.95879(16) 0.59815(7)
N13_3 N 0.66164(16) 0.95879(16) 0.65185(7)
C12_3 C 0.62562(19) 0.91573(19) 0.57673(8)
C13_3 C 0.62438(19) 0.91573(19) 0.67327(8)
H19_3 H 0.3301 0.9689 0.6904
H20_3 H 0.9199 0.9689 0.5596
C24_3 C 0.7299(2) 0.8860(2) 0.54369(9)
C25_3 C 0.5201(2) 0.8860(2) 0.70631(9)
H21_3 H 0.7791 0.8976 0.5365
H22_3 H 0.4709 0.8976 0.7135
C30_3 C 0.6989(2) 0.9316(2) 0.56495(9)
C31_3 C 0.5511(2) 0.9316(2) 0.68505(9)
H27_3 H 0.7263 0.9729 0.5715
H28_3 H 0.5237 0.9729 0.6785
C37_3 C 0.5878(3) 0.8548(3) 0.56440(13)
C38_3 C 0.6622(3) 0.8548(3) 0.68560(13)
H34_3 H 0.5380 0.8426 0.5707
H35_3 H 0.7120 0.8426 0.6793
C40_3 C 0.6238(3) 0.8130(3) 0.54310(12)
C41_3 C 0.6262(3) 0.8130(3) 0.70690(12)
H37_3 H 0.5968 0.7726 0.5355
H38_3 H 0.6532 0.7726 0.7145
H40_3 H 0.5450 0.9477 0.6016
H41_3 H 0.7050 0.9477 0.6484
C36_6 C 0.1250 0.1250 0.73562(12)
H33_6 H 0.1250 0.1250 0.7148
P1_4 P 0.50882(6) 0.6250 0.1250
P2_4 P 0.6250 0.73642(6) 0.1250
N1_4 N 0.55387(15) 0.69303(14) 0.11103(6)
N2_4 N 0.45197(17) 0.58874(15) 0.09867(6)
H1_4 H 0.4532 0.5413 0.0972
N3_4 N 0.66164(16) 0.79121(16) 0.09815(7)
C1_4 C 0.62438(19) 0.83427(19) 0.07673(8)
C2_4 C 0.40294(19) 0.62452(18) 0.07876(8)
C3_4 C 0.3865(2) 0.7001(2) 0.08012(8)
H2_4 H 0.4064 0.7291 0.0955
C4_4 C 0.3404(2) 0.7308(2) 0.05838(9)
H3_4 H 0.3301 0.7811 0.0596
C5_4 C 0.5201(2) 0.8640(2) 0.04369(9)
H4_4 H 0.4709 0.8524 0.0365
C6_4 C 0.3228(3) 0.6202(2) 0.03511(9)
H5_4 H 0.3000 0.5923 0.0200
C7_4 C 0.5511(2) 0.8184(2) 0.06495(9)
H6_4 H 0.5237 0.7771 0.0715
C8_4 C 0.3681(2) 0.5840(2) 0.05562(9)
H7_4 H 0.3756 0.5333 0.0542
C10_4 C 0.6622(3) 0.8952(3) 0.06440(13)
H9_4 H 0.7120 0.9074 0.0707
C11_4 C 0.6262(3) 0.9370(3) 0.04310(12)
H10_4 H 0.6532 0.9774 0.0355
H11_4 H 0.7050 0.8023 0.1016
P3_4 P 0.74118(6) 0.6250 0.1250
P4_4 P 0.6250 0.51358(6) 0.1250
N6_4 N 0.69613(15) 0.69303(14) 0.13897(6)
N7_4 N 0.69613(15) 0.55697(14) 0.11103(6)
N8_4 N 0.55387(15) 0.55697(14) 0.13897(6)
N9_4 N 0.79803(17) 0.58874(15) 0.15133(6)
N10_4 N 0.45197(17) 0.66126(15) 0.15133(6)
N11_4 N 0.79803(17) 0.66126(15) 0.09867(6)
H12_4 H 0.7968 0.5413 0.1528
H13_4 H 0.4532 0.7087 0.1528
H14_4 H 0.7968 0.7087 0.0972
N12_4 N 0.58836(16) 0.45879(16) 0.09815(7)
N13_4 N 0.66164(16) 0.45879(16) 0.15185(7)
N14_4 N 0.58836(16) 0.79121(16) 0.15185(7)
C12_4 C 0.62562(19) 0.41573(19) 0.07673(8)
C13_4 C 0.62438(19) 0.41573(19) 0.17327(8)
C14_4 C 0.62562(19) 0.83427(19) 0.17327(8)
C15_4 C 0.84706(19) 0.62452(18) 0.17124(8)
C16_4 C 0.40294(19) 0.62548(18) 0.17124(8)
C17_4 C 0.84706(19) 0.62548(18) 0.07876(8)
C18_4 C 0.8635(2) 0.7001(2) 0.16988(8)
C19_4 C 0.3865(2) 0.5499(2) 0.16988(8)
C20_4 C 0.8635(2) 0.5499(2) 0.08012(8)
H15_4 H 0.8436 0.7291 0.1545
H16_4 H 0.4064 0.5209 0.1545
H17_4 H 0.8436 0.5209 0.0955
C21_4 C 0.9096(2) 0.7308(2) 0.19162(9)
C22_4 C 0.3404(2) 0.5192(2) 0.19162(9)
C23_4 C 0.9096(2) 0.5192(2) 0.05838(9)
H18_4 H 0.9199 0.7811 0.1904
H19_4 H 0.3301 0.4689 0.1904
H20_4 H 0.9199 0.4689 0.0596
C24_4 C 0.7299(2) 0.3860(2) 0.04369(9)
C25_4 C 0.5201(2) 0.3860(2) 0.20631(9)
C26_4 C 0.7299(2) 0.8640(2) 0.20631(9)
H21_4 H 0.7791 0.3976 0.0365
H22_4 H 0.4709 0.3976 0.2135
H23_4 H 0.7791 0.8524 0.2135
C27_4 C 0.9272(3) 0.6202(2) 0.21489(9)
C28_4 C 0.3228(3) 0.6298(2) 0.21489(9)
C29_4 C 0.9272(3) 0.6298(2) 0.03511(9)
H24_4 H 0.9500 0.5923 0.2300
H25_4 H 0.3000 0.6577 0.2300
H26_4 H 0.9500 0.6577 0.0200
C30_4 C 0.6989(2) 0.4316(2) 0.06495(9)
C31_4 C 0.5511(2) 0.4316(2) 0.18505(9)
C32_4 C 0.6989(2) 0.8184(2) 0.18505(9)
H27_4 H 0.7263 0.4729 0.0715
H28_4 H 0.5237 0.4729 0.1785
H29_4 H 0.7263 0.7771 0.1785
C33_4 C 0.8819(2) 0.5840(2) 0.19438(9)
C34_4 C 0.3681(2) 0.6660(2) 0.19438(9)
C35_4 C 0.8819(2) 0.6660(2) 0.05562(9)
H30_4 H 0.8744 0.5333 0.1958
H31_4 H 0.3756 0.7167 0.1958
H32_4 H 0.8744 0.7167 0.0542
C36_7 C 0.1250 0.6250 0.01438(12)
H33_7 H 0.1250 0.6250 0.0352
C37_4 C 0.5878(3) 0.3548(3) 0.06440(13)
C38_4 C 0.6622(3) 0.3548(3) 0.18560(13)
C39_4 C 0.5878(3) 0.8952(3) 0.18560(13)
H34_4 H 0.5380 0.3426 0.0707
H35_4 H 0.7120 0.3426 0.1793
H36_4 H 0.5380 0.9074 0.1793
C40_4 C 0.6238(3) 0.3130(3) 0.04310(12)
C41_4 C 0.6262(3) 0.3130(3) 0.20690(12)
C42_4 C 0.6238(3) 0.9370(3) 0.20690(12)
H37_4 H 0.5968 0.2726 0.0355
H38_4 H 0.6532 0.2726 0.2145
H39_4 H 0.5968 0.9774 0.2145
H40_4 H 0.5450 0.4477 0.1016
H41_4 H 0.7050 0.4477 0.1484
H42_4 H 0.5450 0.8023 0.1484
C36_8 C 0.1250 0.6250 0.23562(12)
H33_8 H 0.1250 0.6250 0.2148
H19_5 H 0.1699 0.0311 0.8096
H22_5 H 0.0291 0.1024 0.7865
N2_5 N 0.04803(17) 0.91126(15) 0.90133(6)
H1_5 H 0.0468 0.9587 0.9028
C2_5 C 0.09706(19) 0.87548(18) 0.92124(8)
C3_5 C 0.1135(2) 0.7999(2) 0.91988(8)
H2_5 H 0.0936 0.7709 0.9045
C4_5 C 0.1596(2) 0.7692(2) 0.94162(9)
H3_5 H 0.1699 0.7189 0.9404
H4_5 H 0.0291 0.6476 0.9635
C6_5 C 0.1772(3) 0.8798(2) 0.96489(9)
H5_5 H 0.2000 0.9077 0.9800
C8_5 C 0.1319(2) 0.9160(2) 0.94438(9)
H7_5 H 0.1244 0.9667 0.9458
N10_5 N 0.04803(17) 0.83874(15) 0.84867(6)
H13_5 H 0.0468 0.7913 0.8472
C16_5 C 0.09706(19) 0.87452(18) 0.82876(8)
C19_5 C 0.1135(2) 0.9501(2) 0.83012(8)
H16_5 H 0.0936 0.9791 0.8455
C22_5 C 0.1596(2) 0.9808(2) 0.80838(9)
C28_5 C 0.1772(3) 0.8702(2) 0.78511(9)
H25_5 H 0.2000 0.8423 0.7700
C34_5 C 0.1319(2) 0.8340(2) 0.80562(9)
H31_5 H 0.1244 0.7833 0.8042
N12_5 N 0.91164(16) 0.04121(16) 0.90185(7)
N13_5 N 0.83836(16) 0.04121(16) 0.84815(7)
C12_5 C 0.87438(19) 0.08427(19) 0.92327(8)
C13_5 C 0.87562(19) 0.08427(19) 0.82673(8)
H20_5 H 0.5801 0.0311 0.9404
C24_5 C 0.7701(2) 0.1140(2) 0.95631(9)
C25_5 C 0.9799(2) 0.1140(2) 0.79369(9)
H21_5 H 0.7209 0.1024 0.9635
C30_5 C 0.8011(2) 0.0684(2) 0.93505(9)
C31_5 C 0.9489(2) 0.0684(2) 0.81495(9)
H27_5 H 0.7737 0.0271 0.9285
H28_5 H 0.9763 0.0271 0.8215
C37_5 C 0.9122(3) 0.1452(3) 0.93560(13)
C38_5 C 0.8378(3) 0.1452(3) 0.81440(13)
H34_5 H 0.9620 0.1574 0.9293
H35_5 H 0.7880 0.1574 0.8207
C40_5 C 0.8762(3) 0.1870(3) 0.95690(12)
C41_5 C 0.8738(3) 0.1870(3) 0.79310(12)
H37_5 H 0.9032 0.2274 0.9645
H38_5 H 0.8468 0.2274 0.7855
H40_5 H 0.9550 0.0523 0.8984
H41_5 H 0.7950 0.0523 0.8516
P1_5 P 0.99118(6) 0.8750 0.8750
P2_5 P 0.8750 0.76358(6) 0.8750
N1_5 N 0.94613(15) 0.80697(14) 0.88897(6)
N3_5 N 0.83836(16) 0.70879(16) 0.90185(7)
C1_5 C 0.87562(19) 0.66573(19) 0.92327(8)
C5_5 C 0.9799(2) 0.6360(2) 0.95631(9)
C7_5 C 0.9489(2) 0.6816(2) 0.93505(9)
H6_5 H 0.9763 0.7229 0.9285
C10_5 C 0.8378(3) 0.6048(3) 0.93560(13)
H9_5 H 0.7880 0.5926 0.9293
C11_5 C 0.8738(3) 0.5630(3) 0.95690(12)
H10_5 H 0.8468 0.5226 0.9645
H11_5 H 0.7950 0.6977 0.8984
P3_5 P 0.75882(6) 0.8750 0.8750
P4_5 P 0.8750 0.98642(6) 0.8750
N6_5 N 0.80387(15) 0.80697(14) 0.86103(6)
N7_5 N 0.80387(15) 0.94303(14) 0.88897(6)
N8_5 N 0.94613(15) 0.94303(14) 0.86103(6)
N9_5 N 0.70197(17) 0.91126(15) 0.84867(6)
N11_5 N 0.70197(17) 0.83874(15) 0.90133(6)
H12_5 H 0.7032 0.9587 0.8472
H14_5 H 0.7032 0.7913 0.9028
N14_5 N 0.91164(16) 0.70879(16) 0.84815(7)
C14_5 C 0.87438(19) 0.66573(19) 0.82673(8)
C15_5 C 0.65294(19) 0.87548(18) 0.82876(8)
C17_5 C 0.65294(19) 0.87452(18) 0.92124(8)
C18_5 C 0.6365(2) 0.7999(2) 0.83012(8)
C20_5 C 0.6365(2) 0.9501(2) 0.91988(8)
H15_5 H 0.6564 0.7709 0.8455
H17_5 H 0.6564 0.9791 0.9045
C21_5 C 0.5904(2) 0.7692(2) 0.80838(9)
C23_5 C 0.5904(2) 0.9808(2) 0.94162(9)
H18_5 H 0.5801 0.7189 0.8096
C26_5 C 0.7701(2) 0.6360(2) 0.79369(9)
H23_5 H 0.7209 0.6476 0.7865
C27_5 C 0.5728(3) 0.8798(2) 0.78511(9)
C29_5 C 0.5728(3) 0.8702(2) 0.96489(9)
H24_5 H 0.5500 0.9077 0.7700
H26_5 H 0.5500 0.8423 0.9800
C32_5 C 0.8011(2) 0.6816(2) 0.81495(9)
H29_5 H 0.7737 0.7229 0.8215
C33_5 C 0.6181(2) 0.9160(2) 0.80562(9)
C35_5 C 0.6181(2) 0.8340(2) 0.94438(9)
H30_5 H 0.6256 0.9667 0.8042
H32_5 H 0.6256 0.7833 0.9458
C39_5 C 0.9122(3) 0.6048(3) 0.81440(13)
H36_5 H 0.9620 0.5926 0.8207
C42_5 C 0.8762(3) 0.5630(3) 0.79310(12)
H39_5 H 0.9032 0.5226 0.7855
H42_5 H 0.9550 0.6977 0.8516
N2_6 N 0.04803(17) 0.41126(15) 0.40133(6)
H1_6 H 0.0468 0.4587 0.4028
C2_6 C 0.09706(19) 0.37548(18) 0.42124(8)
C3_6 C 0.1135(2) 0.2999(2) 0.41988(8)
H2_6 H 0.0936 0.2709 0.4045
C4_6 C 0.1596(2) 0.2692(2) 0.44162(9)
H3_6 H 0.1699 0.2189 0.4404
H4_6 H 0.0291 0.1476 0.4635
C6_6 C 0.1772(3) 0.3798(2) 0.46489(9)
H5_6 H 0.2000 0.4077 0.4800
C8_6 C 0.1319(2) 0.4160(2) 0.44438(9)
H7_6 H 0.1244 0.4667 0.4458
N10_6 N 0.04803(17) 0.33874(15) 0.34867(6)
H13_6 H 0.0468 0.2913 0.3472
C16_6 C 0.09706(19) 0.37452(18) 0.32876(8)
C19_6 C 0.1135(2) 0.4501(2) 0.33012(8)
H16_6 H 0.0936 0.4791 0.3455
C22_6 C 0.1596(2) 0.4808(2) 0.30838(9)
H19_6 H 0.1699 0.5311 0.3096
H22_6 H 0.0291 0.6024 0.2865
C28_6 C 0.1772(3) 0.3702(2) 0.28511(9)
H25_6 H 0.2000 0.3423 0.2700
C34_6 C 0.1319(2) 0.3340(2) 0.30562(9)
H31_6 H 0.1244 0.2833 0.3042
P1_6 P 0.99118(6) 0.3750 0.3750
P2_6 P 0.8750 0.26358(6) 0.3750
N1_6 N 0.94613(15) 0.30697(14) 0.38897(6)
N3_6 N 0.83836(16) 0.20879(16) 0.40185(7)
C1_6 C 0.87562(19) 0.16573(19) 0.42327(8)
C5_6 C 0.9799(2) 0.1360(2) 0.45631(9)
C7_6 C 0.9489(2) 0.1816(2) 0.43505(9)
H6_6 H 0.9763 0.2229 0.4285
C10_6 C 0.8378(3) 0.1048(3) 0.43560(13)
H9_6 H 0.7880 0.0926 0.4293
C11_6 C 0.8738(3) 0.0630(3) 0.45690(12)
H10_6 H 0.8468 0.0226 0.4645
H11_6 H 0.7950 0.1977 0.3984
P3_6 P 0.75882(6) 0.3750 0.3750
P4_6 P 0.8750 0.48642(6) 0.3750
N6_6 N 0.80387(15) 0.30697(14) 0.36103(6)
N7_6 N 0.80387(15) 0.44303(14) 0.38897(6)
N8_6 N 0.94613(15) 0.44303(14) 0.36103(6)
N9_6 N 0.70197(17) 0.41126(15) 0.34867(6)
N11_6 N 0.70197(17) 0.33874(15) 0.40133(6)
H12_6 H 0.7032 0.4587 0.3472
H14_6 H 0.7032 0.2913 0.4028
N12_6 N 0.91164(16) 0.54121(16) 0.40185(7)
N13_6 N 0.83836(16) 0.54121(16) 0.34815(7)
N14_6 N 0.91164(16) 0.20879(16) 0.34815(7)
C12_6 C 0.87438(19) 0.58427(19) 0.42327(8)
C13_6 C 0.87562(19) 0.58427(19) 0.32673(8)
C14_6 C 0.87438(19) 0.16573(19) 0.32673(8)
C15_6 C 0.65294(19) 0.37548(18) 0.32876(8)
C17_6 C 0.65294(19) 0.37452(18) 0.42124(8)
C18_6 C 0.6365(2) 0.2999(2) 0.33012(8)
C20_6 C 0.6365(2) 0.4501(2) 0.41988(8)
H15_6 H 0.6564 0.2709 0.3455
H17_6 H 0.6564 0.4791 0.4045
C21_6 C 0.5904(2) 0.2692(2) 0.30838(9)
C23_6 C 0.5904(2) 0.4808(2) 0.44162(9)
H18_6 H 0.5801 0.2189 0.3096
H20_6 H 0.5801 0.5311 0.4404
C24_6 C 0.7701(2) 0.6140(2) 0.45631(9)
C25_6 C 0.9799(2) 0.6140(2) 0.29369(9)
C26_6 C 0.7701(2) 0.1360(2) 0.29369(9)
H21_6 H 0.7209 0.6024 0.4635
H23_6 H 0.7209 0.1476 0.2865
C27_6 C 0.5728(3) 0.3798(2) 0.28511(9)
C29_6 C 0.5728(3) 0.3702(2) 0.46489(9)
H24_6 H 0.5500 0.4077 0.2700
H26_6 H 0.5500 0.3423 0.4800
C30_6 C 0.8011(2) 0.5684(2) 0.43505(9)
C31_6 C 0.9489(2) 0.5684(2) 0.31495(9)
C32_6 C 0.8011(2) 0.1816(2) 0.31495(9)
H27_6 H 0.7737 0.5271 0.4285
H28_6 H 0.9763 0.5271 0.3215
H29_6 H 0.7737 0.2229 0.3215
C33_6 C 0.6181(2) 0.4160(2) 0.30562(9)
C35_6 C 0.6181(2) 0.3340(2) 0.44438(9)
H30_6 H 0.6256 0.4667 0.3042
H32_6 H 0.6256 0.2833 0.4458
C37_6 C 0.9122(3) 0.6452(3) 0.43560(13)
C38_6 C 0.8378(3) 0.6452(3) 0.31440(13)
C39_6 C 0.9122(3) 0.1048(3) 0.31440(13)
H34_6 H 0.9620 0.6574 0.4293
H35_6 H 0.7880 0.6574 0.3207
H36_6 H 0.9620 0.0926 0.3207
C40_6 C 0.8762(3) 0.6870(3) 0.45690(12)
C41_6 C 0.8738(3) 0.6870(3) 0.29310(12)
C42_6 C 0.8762(3) 0.0630(3) 0.29310(12)
H37_6 H 0.9032 0.7274 0.4645
H38_6 H 0.8468 0.7274 0.2855
H39_6 H 0.9032 0.0226 0.2855
H40_6 H 0.9550 0.5523 0.3984
H41_6 H 0.7950 0.5523 0.3516
H42_6 H 0.9550 0.1977 0.3516
N12_7 N 0.41164(16) 0.04121(16) 0.40185(7)
N13_7 N 0.33836(16) 0.04121(16) 0.34815(7)
C12_7 C 0.37438(19) 0.08427(19) 0.42327(8)
C13_7 C 0.37562(19) 0.08427(19) 0.32673(8)
H19_7 H 0.6699 0.0311 0.3096
H20_7 H 0.0801 0.0311 0.4404
C24_7 C 0.2701(2) 0.1140(2) 0.45631(9)
C25_7 C 0.4799(2) 0.1140(2) 0.29369(9)
H21_7 H 0.2209 0.1024 0.4635
H22_7 H 0.5291 0.1024 0.2865
C30_7 C 0.3011(2) 0.0684(2) 0.43505(9)
C31_7 C 0.4489(2) 0.0684(2) 0.31495(9)
H27_7 H 0.2737 0.0271 0.4285
H28_7 H 0.4763 0.0271 0.3215
C37_7 C 0.4122(3) 0.1452(3) 0.43560(13)
C38_7 C 0.3378(3) 0.1452(3) 0.31440(13)
H34_7 H 0.4620 0.1574 0.4293
H35_7 H 0.2880 0.1574 0.3207
C40_7 C 0.3762(3) 0.1870(3) 0.45690(12)
C41_7 C 0.3738(3) 0.1870(3) 0.29310(12)
H37_7 H 0.4032 0.2274 0.4645
H38_7 H 0.3468 0.2274 0.2855
H40_7 H 0.4550 0.0523 0.3984
H41_7 H 0.2950 0.0523 0.3516
P1_7 P 0.49118(6) 0.8750 0.3750
P2_7 P 0.3750 0.76358(6) 0.3750
N1_7 N 0.44613(15) 0.80697(14) 0.38897(6)
N2_7 N 0.54803(17) 0.91126(15) 0.40133(6)
H1_7 H 0.5468 0.9587 0.4028
N3_7 N 0.33836(16) 0.70879(16) 0.40185(7)
C1_7 C 0.37562(19) 0.66573(19) 0.42327(8)
C2_7 C 0.59706(19) 0.87548(18) 0.42124(8)
C3_7 C 0.6135(2) 0.7999(2) 0.41988(8)
H2_7 H 0.5936 0.7709 0.4045
C4_7 C 0.6596(2) 0.7692(2) 0.44162(9)
H3_7 H 0.6699 0.7189 0.4404
C5_7 C 0.4799(2) 0.6360(2) 0.45631(9)
H4_7 H 0.5291 0.6476 0.4635
C6_7 C 0.6772(3) 0.8798(2) 0.46489(9)
H5_7 H 0.7000 0.9077 0.4800
C7_7 C 0.4489(2) 0.6816(2) 0.43505(9)
H6_7 H 0.4763 0.7229 0.4285
C8_7 C 0.6319(2) 0.9160(2) 0.44438(9)
H7_7 H 0.6244 0.9667 0.4458
C10_7 C 0.3378(3) 0.6048(3) 0.43560(13)
H9_7 H 0.2880 0.5926 0.4293
C11_7 C 0.3738(3) 0.5630(3) 0.45690(12)
H10_7 H 0.3468 0.5226 0.4645
H11_7 H 0.2950 0.6977 0.3984
P3_7 P 0.25882(6) 0.8750 0.3750
P4_7 P 0.3750 0.98642(6) 0.3750
N6_7 N 0.30387(15) 0.80697(14) 0.36103(6)
N7_7 N 0.30387(15) 0.94303(14) 0.38897(6)
N8_7 N 0.44613(15) 0.94303(14) 0.36103(6)
N9_7 N 0.20197(17) 0.91126(15) 0.34867(6)
N10_7 N 0.54803(17) 0.83874(15) 0.34867(6)
N11_7 N 0.20197(17) 0.83874(15) 0.40133(6)
H12_7 H 0.2032 0.9587 0.3472
H13_7 H 0.5468 0.7913 0.3472
H14_7 H 0.2032 0.7913 0.4028
N14_7 N 0.41164(16) 0.70879(16) 0.34815(7)
C14_7 C 0.37438(19) 0.66573(19) 0.32673(8)
C15_7 C 0.15294(19) 0.87548(18) 0.32876(8)
C16_7 C 0.59706(19) 0.87452(18) 0.32876(8)
C17_7 C 0.15294(19) 0.87452(18) 0.42124(8)
C18_7 C 0.1365(2) 0.7999(2) 0.33012(8)
C19_7 C 0.6135(2) 0.9501(2) 0.33012(8)
C20_7 C 0.1365(2) 0.9501(2) 0.41988(8)
H15_7 H 0.1564 0.7709 0.3455
H16_7 H 0.5936 0.9791 0.3455
H17_7 H 0.1564 0.9791 0.4045
C21_7 C 0.0904(2) 0.7692(2) 0.30838(9)
C22_7 C 0.6596(2) 0.9808(2) 0.30838(9)
C23_7 C 0.0904(2) 0.9808(2) 0.44162(9)
H18_7 H 0.0801 0.7189 0.3096
C26_7 C 0.2701(2) 0.6360(2) 0.29369(9)
H23_7 H 0.2209 0.6476 0.2865
C27_7 C 0.0728(3) 0.8798(2) 0.28511(9)
C28_7 C 0.6772(3) 0.8702(2) 0.28511(9)
C29_7 C 0.0728(3) 0.8702(2) 0.46489(9)
H24_7 H 0.0500 0.9077 0.2700
H25_7 H 0.7000 0.8423 0.2700
H26_7 H 0.0500 0.8423 0.4800
C32_7 C 0.3011(2) 0.6816(2) 0.31495(9)
H29_7 H 0.2737 0.7229 0.3215
C33_7 C 0.1181(2) 0.9160(2) 0.30562(9)
C34_7 C 0.6319(2) 0.8340(2) 0.30562(9)
C35_7 C 0.1181(2) 0.8340(2) 0.44438(9)
H30_7 H 0.1256 0.9667 0.3042
H31_7 H 0.6244 0.7833 0.3042
H32_7 H 0.1256 0.7833 0.4458
C39_7 C 0.4122(3) 0.6048(3) 0.31440(13)
H36_7 H 0.4620 0.5926 0.3207
C42_7 C 0.3762(3) 0.5630(3) 0.29310(12)
H39_7 H 0.4032 0.5226 0.2855
H42_7 H 0.4550 0.6977 0.3516
P1_8 P 0.49118(6) 0.3750 0.8750
P2_8 P 0.3750 0.26358(6) 0.8750
N1_8 N 0.44613(15) 0.30697(14) 0.88897(6)
N2_8 N 0.54803(17) 0.41126(15) 0.90133(6)
H1_8 H 0.5468 0.4587 0.9028
N3_8 N 0.33836(16) 0.20879(16) 0.90185(7)
C1_8 C 0.37562(19) 0.16573(19) 0.92327(8)
C2_8 C 0.59706(19) 0.37548(18) 0.92124(8)
C3_8 C 0.6135(2) 0.2999(2) 0.91988(8)
H2_8 H 0.5936 0.2709 0.9045
C4_8 C 0.6596(2) 0.2692(2) 0.94162(9)
H3_8 H 0.6699 0.2189 0.9404
C5_8 C 0.4799(2) 0.1360(2) 0.95631(9)
H4_8 H 0.5291 0.1476 0.9635
C6_8 C 0.6772(3) 0.3798(2) 0.96489(9)
H5_8 H 0.7000 0.4077 0.9800
C7_8 C 0.4489(2) 0.1816(2) 0.93505(9)
H6_8 H 0.4763 0.2229 0.9285
C8_8 C 0.6319(2) 0.4160(2) 0.94438(9)
H7_8 H 0.6244 0.4667 0.9458
C10_8 C 0.3378(3) 0.1048(3) 0.93560(13)
H9_8 H 0.2880 0.0926 0.9293
C11_8 C 0.3738(3) 0.0630(3) 0.95690(12)
H10_8 H 0.3468 0.0226 0.9645
H11_8 H 0.2950 0.1977 0.8984
P3_8 P 0.25882(6) 0.3750 0.8750
P4_8 P 0.3750 0.48642(6) 0.8750
N6_8 N 0.30387(15) 0.30697(14) 0.86103(6)
N7_8 N 0.30387(15) 0.44303(14) 0.88897(6)
N8_8 N 0.44613(15) 0.44303(14) 0.86103(6)
N9_8 N 0.20197(17) 0.41126(15) 0.84867(6)
N10_8 N 0.54803(17) 0.33874(15) 0.84867(6)
N11_8 N 0.20197(17) 0.33874(15) 0.90133(6)
H12_8 H 0.2032 0.4587 0.8472
H13_8 H 0.5468 0.2913 0.8472
H14_8 H 0.2032 0.2913 0.9028
N12_8 N 0.41164(16) 0.54121(16) 0.90185(7)
N13_8 N 0.33836(16) 0.54121(16) 0.84815(7)
N14_8 N 0.41164(16) 0.20879(16) 0.84815(7)
C12_8 C 0.37438(19) 0.58427(19) 0.92327(8)
C13_8 C 0.37562(19) 0.58427(19) 0.82673(8)
C14_8 C 0.37438(19) 0.16573(19) 0.82673(8)
C15_8 C 0.15294(19) 0.37548(18) 0.82876(8)
C16_8 C 0.59706(19) 0.37452(18) 0.82876(8)
C17_8 C 0.15294(19) 0.37452(18) 0.92124(8)
C18_8 C 0.1365(2) 0.2999(2) 0.83012(8)
C19_8 C 0.6135(2) 0.4501(2) 0.83012(8)
C20_8 C 0.1365(2) 0.4501(2) 0.91988(8)
H15_8 H 0.1564 0.2709 0.8455
H16_8 H 0.5936 0.4791 0.8455
H17_8 H 0.1564 0.4791 0.9045
C21_8 C 0.0904(2) 0.2692(2) 0.80838(9)
C22_8 C 0.6596(2) 0.4808(2) 0.80838(9)
C23_8 C 0.0904(2) 0.4808(2) 0.94162(9)
H18_8 H 0.0801 0.2189 0.8096
H19_8 H 0.6699 0.5311 0.8096
H20_8 H 0.0801 0.5311 0.9404
C24_8 C 0.2701(2) 0.6140(2) 0.95631(9)
C25_8 C 0.4799(2) 0.6140(2) 0.79369(9)
C26_8 C 0.2701(2) 0.1360(2) 0.79369(9)
H21_8 H 0.2209 0.6024 0.9635
H22_8 H 0.5291 0.6024 0.7865
H23_8 H 0.2209 0.1476 0.7865
C27_8 C 0.0728(3) 0.3798(2) 0.78511(9)
C28_8 C 0.6772(3) 0.3702(2) 0.78511(9)
C29_8 C 0.0728(3) 0.3702(2) 0.96489(9)
H24_8 H 0.0500 0.4077 0.7700
H25_8 H 0.7000 0.3423 0.7700
H26_8 H 0.0500 0.3423 0.9800
C30_8 C 0.3011(2) 0.5684(2) 0.93505(9)
C31_8 C 0.4489(2) 0.5684(2) 0.81495(9)
C32_8 C 0.3011(2) 0.1816(2) 0.81495(9)
H27_8 H 0.2737 0.5271 0.9285
H28_8 H 0.4763 0.5271 0.8215
H29_8 H 0.2737 0.2229 0.8215
C33_8 C 0.1181(2) 0.4160(2) 0.80562(9)
C34_8 C 0.6319(2) 0.3340(2) 0.80562(9)
C35_8 C 0.1181(2) 0.3340(2) 0.94438(9)
H30_8 H 0.1256 0.4667 0.8042
H31_8 H 0.6244 0.2833 0.8042
H32_8 H 0.1256 0.2833 0.9458
C37_8 C 0.4122(3) 0.6452(3) 0.93560(13)
C38_8 C 0.3378(3) 0.6452(3) 0.81440(13)
C39_8 C 0.4122(3) 0.1048(3) 0.81440(13)
H34_8 H 0.4620 0.6574 0.9293
H35_8 H 0.2880 0.6574 0.8207
H36_8 H 0.4620 0.0926 0.8207
C40_8 C 0.3762(3) 0.6870(3) 0.95690(12)
C41_8 C 0.3738(3) 0.6870(3) 0.79310(12)
C42_8 C 0.3762(3) 0.0630(3) 0.79310(12)
H37_8 H 0.4032 0.7274 0.9645
H38_8 H 0.3468 0.7274 0.7855
H39_8 H 0.4032 0.0226 0.7855
H40_8 H 0.4550 0.5523 0.8984
H41_8 H 0.2950 0.5523 0.8516
H42_8 H 0.4550 0.1977 0.8516
Cl1 Cl 0.3750 0.8750 0.13694(5)
O7 O 0.4442(6) 0.9217(7) 0.1313(3)
O8 O 0.4066(5) 0.8168(5) 0.1529(2)
O9 O 0.3058(6) 0.8283(7) 0.1313(3)
O10 O 0.3434(5) 0.9332(5) 0.1529(2)
Cl1_2 Cl 0.8750 0.3750 0.13694(5)
O7_2 O 0.8058(6) 0.3283(7) 0.1313(3)
O8_2 O 0.8434(5) 0.4332(5) 0.1529(2)
O9_2 O 0.9442(6) 0.4217(7) 0.1313(3)
O10_2 O 0.9066(5) 0.3168(5) 0.1529(2)
Cl1_3 Cl 0.3750 0.3750 0.11306(5)
O7_3 O 0.4442(6) 0.3283(7) 0.1187(3)
O8_3 O 0.4066(5) 0.4332(5) 0.0971(2)
O9_3 O 0.3058(6) 0.4217(7) 0.1187(3)
O10_3 O 0.3434(5) 0.3168(5) 0.0971(2)
Cl1_4 Cl 0.8750 0.8750 0.11306(5)
O7_4 O 0.8058(6) 0.9217(7) 0.1187(3)
O8_4 O 0.8434(5) 0.8168(5) 0.0971(2)
O9_4 O 0.9442(6) 0.8283(7) 0.1187(3)
O10_4 O 0.9066(5) 0.9332(5) 0.0971(2)
Cl1_5 Cl 0.3750 0.3750 0.63694(5)
O7_5 O 0.4442(6) 0.4217(7) 0.6313(3)
O8_5 O 0.4066(5) 0.3168(5) 0.6529(2)
O9_5 O 0.3058(6) 0.3283(7) 0.6313(3)
O10_5 O 0.3434(5) 0.4332(5) 0.6529(2)
Cl1_6 Cl 0.8750 0.8750 0.63694(5)
O7_6 O 0.8058(6) 0.8283(7) 0.6313(3)
O8_6 O 0.8434(5) 0.9332(5) 0.6529(2)
O9_6 O 0.9442(6) 0.9217(7) 0.6313(3)
O10_6 O 0.9066(5) 0.8168(5) 0.6529(2)
Cl1_7 Cl 0.3750 0.8750 0.61306(5)
O7_7 O 0.4442(6) 0.8283(7) 0.6187(3)
O8_7 O 0.4066(5) 0.9332(5) 0.5971(2)
O9_7 O 0.3058(6) 0.9217(7) 0.6187(3)
O10_7 O 0.3434(5) 0.8168(5) 0.5971(2)
Cl1_8 Cl 0.8750 0.3750 0.61306(5)
O7_8 O 0.8058(6) 0.4217(7) 0.6187(3)
O8_8 O 0.8434(5) 0.3168(5) 0.5971(2)
O9_8 O 0.9442(6) 0.3283(7) 0.6187(3)
O10_8 O 0.9066(5) 0.4332(5) 0.5971(2)
Cl1_9 Cl 0.6250 0.1250 0.86306(5)
O7_9 O 0.5558(6) 0.0783(7) 0.8687(3)
O8_9 O 0.5934(5) 0.1832(5) 0.8471(2)
O9_9 O 0.6942(6) 0.1717(7) 0.8687(3)
O10_9 O 0.6566(5) 0.0668(5) 0.8471(2)
Cl1_10 Cl 0.1250 0.6250 0.86306(5)
O7_10 O 0.1942(6) 0.6717(7) 0.8687(3)
O8_10 O 0.1566(5) 0.5668(5) 0.8471(2)
O9_10 O 0.0558(6) 0.5783(7) 0.8687(3)
O10_10 O 0.0934(5) 0.6832(5) 0.8471(2)
Cl1_11 Cl 0.6250 0.6250 0.88694(5)
O7_11 O 0.5558(6) 0.6717(7) 0.8813(3)
O8_11 O 0.5934(5) 0.5668(5) 0.9029(2)
O9_11 O 0.6942(6) 0.5783(7) 0.8813(3)
O10_11 O 0.6566(5) 0.6832(5) 0.9029(2)
Cl1_12 Cl 0.1250 0.1250 0.88694(5)
O7_12 O 0.1942(6) 0.0783(7) 0.8813(3)
O8_12 O 0.1566(5) 0.1832(5) 0.9029(2)
O9_12 O 0.0558(6) 0.1717(7) 0.8813(3)
O10_12 O 0.0934(5) 0.0668(5) 0.9029(2)
Cl1_13 Cl 0.6250 0.6250 0.36306(5)
O7_13 O 0.5558(6) 0.5783(7) 0.3687(3)
O8_13 O 0.5934(5) 0.6832(5) 0.3471(2)
O9_13 O 0.6942(6) 0.6717(7) 0.3687(3)
O10_13 O 0.6566(5) 0.5668(5) 0.3471(2)
Cl1_14 Cl 0.1250 0.1250 0.36306(5)
O7_14 O 0.1942(6) 0.1717(7) 0.3687(3)
O8_14 O 0.1566(5) 0.0668(5) 0.3471(2)
O9_14 O 0.0558(6) 0.0783(7) 0.3687(3)
O10_14 O 0.0934(5) 0.1832(5) 0.3471(2)
Cl1_15 Cl 0.6250 0.1250 0.38694(5)
O7_15 O 0.5558(6) 0.1717(7) 0.3813(3)
O8_15 O 0.5934(5) 0.0668(5) 0.4029(2)
O9_15 O 0.6942(6) 0.0783(7) 0.3813(3)
O10_15 O 0.6566(5) 0.1832(5) 0.4029(2)
Cl1_16 Cl 0.1250 0.6250 0.38694(5)
O7_16 O 0.1942(6) 0.5783(7) 0.3813(3)
O8_16 O 0.1566(5) 0.6832(5) 0.4029(2)
O9_16 O 0.0558(6) 0.6717(7) 0.3813(3)
O10_16 O 0.0934(5) 0.5668(5) 0.4029(2)
loop_
_geom_bond_atom_site_label_1
_geom_bond_atom_site_label_2
_geom_bond_site_symmetry_1
_geom_bond_site_symmetry_2
P1 N1 1_555 1_555
P2 N1 1_555 1_555
N3 P2 1_555 1_555
N5 C5 1_555 1_555
C1 N3 1_555 1_555
C7 C1 1_555 1_555
H6 C7 1_555 1_555
C10 C1 1_555 1_555
H9 C10 1_555 1_555
C11 N5 1_555 1_555
H10 C11 1_555 1_555
H11 N3 1_555 1_555
Co2 N15 1_555 1_555
Co3 N5 1_555 1_555
Co7 N17 1_555 1_555
Co8 N23 1_555 1_555
P3 N6 1_555 1_555
P4 N7 1_555 1_555
N6 P2 1_555 1_555
N7 P3 1_555 1_555
N8 P1 1_555 1_555
N9 P3 1_555 1_555
N11 P3 1_555 1_555
H12 N9 1_555 1_555
H14 N11 1_555 1_555
N14 P2 1_555 1_555
N15 C21 1_555 1_555
N17 C23 1_555 1_555
N23 C26 1_555 1_555
C14 N14 1_555 1_555
C15 N9 1_555 1_555
C17 N11 1_555 1_555
C18 C15 1_555 1_555
C20 C17 1_555 1_555
H15 C18 1_555 1_555
H17 C20 1_555 1_555
C21 C18 1_555 1_555
C23 C20 1_555 1_555
H18 C21 1_555 1_555
C26 H23 1_555 1_555
C27 N15 1_555 1_555
C29 N17 1_555 1_555
H24 C27 1_555 1_555
H26 C29 1_555 1_555
C32 C14 1_555 1_555
H29 C32 1_555 1_555
C33 C15 1_555 1_555
C35 C17 1_555 1_555
H30 C33 1_555 1_555
H32 C35 1_555 1_555
C39 C14 1_555 1_555
H36 C39 1_555 1_555
C42 N23 1_555 1_555
H39 C42 1_555 1_555
H42 N14 1_555 1_555
C5 C7 1_555 1_555
C10 C11 1_555 1_555
P4 N8 1_555 1_555
C26 C32 1_555 1_555
C27 C33 1_555 1_555
C29 C35 1_555 1_555
C39 C42 1_555 1_555
Co4 N21 1_555 1_555
N20 Co6 1_555 1_555
N21 C24 1_555 1_555
N22 Co6 1_555 1_555
O6 Co6 1_555 1_555
C12 N12 1_555 1_555
C13 N13 1_555 1_555
C24 H21 1_555 1_555
C25 N22 1_555 1_555
C30 C12 1_555 1_555
C31 C13 1_555 1_555
H27 C30 1_555 1_555
H28 C31 1_555 1_555
C37 C12 1_555 1_555
C38 C13 1_555 1_555
H34 C37 1_555 1_555
H35 C38 1_555 1_555
C40 N21 1_555 1_555
C41 N22 1_555 1_555
H37 C40 1_555 1_555
H38 C41 1_555 1_555
H40 N12 1_555 1_555
H41 N13 1_555 1_555
C24 C30 1_555 1_555
C25 C31 1_555 1_555
C37 C40 1_555 1_555
C38 C41 1_555 1_555
Co1 N4 1_555 1_555
H1 N2 1_555 1_555
N4 C4 1_555 1_555
C2 N2 1_555 1_555
C3 C2 1_555 1_555
H2 C3 1_555 1_555
C4 C3 1_555 1_555
H3 C4 1_555 1_555
C6 N4 1_555 1_555
H5 C6 1_555 1_555
C8 C2 1_555 1_555
H7 C8 1_555 1_555
Co5 N16 1_555 1_555
Co7 O4 1_555 1_555
H13 N10 1_555 1_555
N16 C22 1_555 1_555
N24 Co1 1_555 1_555
O3 Co1 1_555 1_555
O4 C36 1_555 1_555
C16 N10 1_555 1_555
C19 C16 1_555 1_555
H16 C19 1_555 1_555
C22 C19 1_555 1_555
C28 N16 1_555 1_555
H25 C28 1_555 1_555
C34 C16 1_555 1_555
H31 C34 1_555 1_555
C36 O3 1_555 1_555
H33 C36 1_555 1_555
C6 C8 1_555 1_555
C28 C34 1_555 1_555
O1 Co1_2 1_555 1_555
C9 O1 1_555 1_555
H8 C9 1_555 1_555
N18 Co1_2 1_555 1_555
N25 Co1_2 1_555 1_555
O2 C9 1_555 1_555
Co3_4 O2 1_555 1_555
Co6_2 N19 1_555 1_555
N26 Co6_2 1_555 1_555
O5 Co6_2 1_555 1_555
Co8 N19_2 1_555 1_555
N20_2 Co8 1_555 1_555
N26_2 Co8 1_555 1_555
O5_2 Co8 1_555 1_555
O6_2 Co8 1_555 1_555
N25_2 Co7_2 1_555 1_555
N24_2 Co7_3 1_555 1_555
O1_2 Co7_4 1_555 1_555
C9_2 O1_2 1_555 1_555
H8_2 C9_2 1_555 1_555
N18_2 Co7_4 1_555 1_555
O2_2 C9_2 1_555 1_555
Co4_2 O2_2 1_555 1_555
O6_3 Co3 1_555 1_555
N20_3 Co3_2 1_555 1_555
Co3_3 N19_3 1_555 1_555
Co2 O4_2 1_555 1_555
N25_3 Co5 1_555 1_555
O3_2 Co5 1_555 1_555
O4_2 C36_2 1_555 1_555
C36_2 O3_2 1_555 1_555
H33_2 C36_2 1_555 1_555
N26_3 Co3_4 1_555 1_555
O1_3 Co5_2 1_555 1_555
C9_3 O1_3 1_555 1_555
H8_3 C9_3 1_555 1_555
N18_3 Co5_2 1_555 1_555
N24_3 Co5_2 1_555 1_555
O5 C9_3 1_555 1_555
O1_4 Co2 1_555 1_555
C9_4 O1_4 1_555 1_555
H8_4 C9_4 1_555 1_555
N18_4 Co2 1_555 1_555
N24_4 Co2 1_555 1_555
N25_4 Co2 1_555 1_555
O5_2 C9_4 1_555 1_555
Co4 N19_4 1_555 1_555
O6_4 Co4 1_555 1_555
N20_4 Co4_2 1_555 1_555
N26_4 Co4_2 1_555 1_555
P1_2 N1_2 1_555 1_555
P2_2 N1_2 1_555 1_555
N3_2 P2_2 1_555 1_555
N5_2 C5_2 1_555 1_555
C1_2 N3_2 1_555 1_555
C7_2 C1_2 1_555 1_555
H6_2 C7_2 1_555 1_555
C10_2 C1_2 1_555 1_555
H9_2 C10_2 1_555 1_555
C11_2 N5_2 1_555 1_555
H10_2 C11_2 1_555 1_555
H11_2 N3_2 1_555 1_555
Co2_2 N15_2 1_555 1_555
Co3_6 N5_2 1_555 1_555
Co4_3 N21_2 1_555 1_555
Co7_5 N17_2 1_555 1_555
Co8_3 N23_2 1_555 1_555
P3_2 N6_2 1_555 1_555
P4_2 N7_2 1_555 1_555
N6_2 P2_2 1_555 1_555
N7_2 P3_2 1_555 1_555
N8_2 P1_2 1_555 1_555
N9_2 P3_2 1_555 1_555
N11_2 P3_2 1_555 1_555
H12_2 N9_2 1_555 1_555
H14_2 N11_2 1_555 1_555
N12_2 P4_2 1_555 1_555
N13_2 P4_2 1_555 1_555
N14_2 P2_2 1_555 1_555
N15_2 C21_2 1_555 1_555
N17_2 C23_2 1_555 1_555
N20_5 Co6_3 1_555 1_555
N21_2 C24_2 1_555 1_555
N22_2 Co6_3 1_555 1_555
N23_2 C26_2 1_555 1_555
O6_5 Co6_3 1_555 1_555
C12_2 N12_2 1_555 1_555
C13_2 N13_2 1_555 1_555
C14_2 N14_2 1_555 1_555
C15_2 N9_2 1_555 1_555
C17_2 N11_2 1_555 1_555
C18_2 C15_2 1_555 1_555
C20_2 C17_2 1_555 1_555
H15_2 C18_2 1_555 1_555
H17_2 C20_2 1_555 1_555
C21_2 C18_2 1_555 1_555
C23_2 C20_2 1_555 1_555
H18_2 C21_2 1_555 1_555
H20_2 C23_2 1_555 1_555
C24_2 H21_2 1_555 1_555
C25_2 N22_2 1_555 1_555
C26_2 H23_2 1_555 1_555
C27_2 N15_2 1_555 1_555
C29_2 N17_2 1_555 1_555
H24_2 C27_2 1_555 1_555
H26_2 C29_2 1_555 1_555
C30_2 C12_2 1_555 1_555
C31_2 C13_2 1_555 1_555
C32_2 C14_2 1_555 1_555
H27_2 C30_2 1_555 1_555
H28_2 C31_2 1_555 1_555
H29_2 C32_2 1_555 1_555
C33_2 C15_2 1_555 1_555
C35_2 C17_2 1_555 1_555
H30_2 C33_2 1_555 1_555
H32_2 C35_2 1_555 1_555
C37_2 C12_2 1_555 1_555
C38_2 C13_2 1_555 1_555
C39_2 C14_2 1_555 1_555
H34_2 C37_2 1_555 1_555
H35_2 C38_2 1_555 1_555
H36_2 C39_2 1_555 1_555
C40_2 N21_2 1_555 1_555
C41_2 N22_2 1_555 1_555
C42_2 N23_2 1_555 1_555
H37_2 C40_2 1_555 1_555
H38_2 C41_2 1_555 1_555
H39_2 C42_2 1_555 1_555
H40_2 N12_2 1_555 1_555
H41_2 N13_2 1_555 1_555
H42_2 N14_2 1_555 1_555
C5_2 C7_2 1_555 1_555
C10_2 C11_2 1_555 1_555
P4_2 N8_2 1_555 1_555
C24_2 C30_2 1_555 1_555
C25_2 C31_2 1_555 1_555
C26_2 C32_2 1_555 1_555
C27_2 C33_2 1_555 1_555
C29_2 C35_2 1_555 1_555
C37_2 C40_2 1_555 1_555
C38_2 C41_2 1_555 1_555
C39_2 C42_2 1_555 1_555
Co1_3 N4_2 1_555 1_555
H1_2 N2_2 1_555 1_555
N4_2 C4_2 1_555 1_555
O1_5 Co1_3 1_555 1_555
C2_2 N2_2 1_555 1_555
C3_2 C2_2 1_555 1_555
H2_2 C3_2 1_555 1_555
C4_2 C3_2 1_555 1_555
H3_2 C4_2 1_555 1_555
C6_2 N4_2 1_555 1_555
H5_2 C6_2 1_555 1_555
C8_2 C2_2 1_555 1_555
H7_2 C8_2 1_555 1_555
C9_5 O1_5 1_555 1_555
H8_5 C9_5 1_555 1_555
Co5_3 N16_2 1_555 1_555
Co6_4 N19_5 1_555 1_555
Co7_5 O4_3 1_555 1_555
H13_2 N10_2 1_555 1_555
N16_2 C22_2 1_555 1_555
N18_5 Co1_3 1_555 1_555
N24_5 Co1_3 1_555 1_555
N25_5 Co1_3 1_555 1_555
N26_5 Co6_4 1_555 1_555
O2_3 C9_5 1_555 1_555
O3_3 Co1_3 1_555 1_555
O4_3 C36_3 1_555 1_555
O5_3 Co6_4 1_555 1_555
C16_2 N10_2 1_555 1_555
C19_2 C16_2 1_555 1_555
H16_2 C19_2 1_555 1_555
C22_2 C19_2 1_555 1_555
H19_2 C22_2 1_555 1_555
C28_2 N16_2 1_555 1_555
H25_2 C28_2 1_555 1_555
C34_2 C16_2 1_555 1_555
H31_2 C34_2 1_555 1_555
C36_3 O3_3 1_555 1_555
H33_3 C36_3 1_555 1_555
C6_2 C8_2 1_555 1_555
Co3_8 O2_3 1_555 1_555
C28_2 C34_2 1_555 1_555
Co8_2 N19_6 1_555 1_555
N26_6 Co8_2 1_555 1_555
O6_6 Co8_2 1_555 1_555
O1_6 Co7_5 1_555 1_555
C9_6 O1_6 1_555 1_555
H8_6 C9_6 1_555 1_555
N18_6 Co7_5 1_555 1_555
N20_6 Co8_3 1_555 1_555
N24_6 Co7_5 1_555 1_555
N25_6 Co7_5 1_555 1_555
O2_4 C9_6 1_555 1_555
O5_4 Co8_3 1_555 1_555
Co4_3 O2_4 1_555 1_555
O6_7 Co3_5 1_555 1_555
N20_7 Co3_6 1_555 1_555
Co3_7 N19_7 1_555 1_555
N26_7 Co3_7 1_555 1_555
O1_7 Co5_3 1_555 1_555
C9_7 O1_7 1_555 1_555
H8_7 C9_7 1_555 1_555
Co2_2 O4_4 1_555 1_555
N18_7 Co5_3 1_555 1_555
N24_7 Co5_3 1_555 1_555
N25_7 Co5_3 1_555 1_555
O5_3 C9_7 1_555 1_555
O3_4 Co5_3 1_555 1_555
O4_4 C36_4 1_555 1_555
C36_4 O3_4 1_555 1_555
H33_4 C36_4 1_555 1_555
O1_8 Co2_2 1_555 1_555
C9_8 O1_8 1_555 1_555
H8_8 C9_8 1_555 1_555
Co4_3 N19_8 1_555 1_555
N18_8 Co2_2 1_555 1_555
N20_8 Co4_3 1_555 1_555
N24_8 Co2_2 1_555 1_555
N25_8 Co2_2 1_555 1_555
N26_8 Co4_3 1_555 1_555
O5_4 C9_8 1_555 1_555
O6_8 Co4_3 1_555 1_555
P1_3 N1_3 1_555 1_555
P2_3 N1_3 1_555 1_555
N2_3 P1_3 1_555 1_555
H1_3 N2_3 1_555 1_555
N3_3 P2_3 1_555 1_555
N19_8 C4_3 1_555 1_555
N24_6 C5_3 1_555 1_555
C1_3 N3_3 1_555 1_555
C2_3 N2_3 1_555 1_555
C3_3 C2_3 1_555 1_555
H2_3 C3_3 1_555 1_555
C4_3 C3_3 1_555 1_555
H3_3 C4_3 1_555 1_555
C5_3 H4_3 1_555 1_555
C6_3 N19_8 1_555 1_555
H5_3 C6_3 1_555 1_555
C7_3 C1_3 1_555 1_555
H6_3 C7_3 1_555 1_555
C8_3 C2_3 1_555 1_555
H7_3 C8_3 1_555 1_555
C10_3 C1_3 1_555 1_555
H9_3 C10_3 1_555 1_555
C11_3 N24_6 1_555 1_555
H10_3 C11_3 1_555 1_555
H11_3 N3_3 1_555 1_555
P3_3 N6_3 1_555 1_555
P4_3 N7_3 1_555 1_555
N6_3 P2_3 1_555 1_555
N7_3 P3_3 1_555 1_555
N8_3 P1_3 1_555 1_555
N9_3 P3_3 1_555 1_555
N10_3 P1_3 1_555 1_555
N11_3 P3_3 1_555 1_555
H12_3 N9_3 1_555 1_555
H13_3 N10_3 1_555 1_555
H14_3 N11_3 1_555 1_555
N14_3 P2_3 1_555 1_555
N19_5 C21_3 1_555 1_555
N19_6 C22_3 1_555 1_555
N19_7 C23_3 1_555 1_555
N24_7 C26_3 1_555 1_555
O6_7 C36_5 1_555 1_555
C14_3 N14_3 1_555 1_555
C15_3 N9_3 1_555 1_555
C16_3 N10_3 1_555 1_555
C17_3 N11_3 1_555 1_555
C18_3 C15_3 1_555 1_555
C19_3 C16_3 1_555 1_555
C20_3 C17_3 1_555 1_555
H15_3 C18_3 1_555 1_555
H16_3 C19_3 1_555 1_555
H17_3 C20_3 1_555 1_555
C21_3 C18_3 1_555 1_555
C22_3 C19_3 1_555 1_555
C23_3 C20_3 1_555 1_555
H18_3 C21_3 1_555 1_555
C26_3 H23_3 1_555 1_555
C27_3 N19_5 1_555 1_555
C28_3 N19_6 1_555 1_555
C29_3 N19_7 1_555 1_555
H24_3 C27_3 1_555 1_555
H25_3 C28_3 1_555 1_555
H26_3 C29_3 1_555 1_555
C32_3 C14_3 1_555 1_555
H29_3 C32_3 1_555 1_555
C33_3 C15_3 1_555 1_555
C34_3 C16_3 1_555 1_555
C35_3 C17_3 1_555 1_555
H30_3 C33_3 1_555 1_555
H31_3 C34_3 1_555 1_555
H32_3 C35_3 1_555 1_555
C36_5 O6_8 1_555 1_555
H33_5 C36_5 1_555 1_555
C39_3 C14_3 1_555 1_555
H36_3 C39_3 1_555 1_555
C42_3 N24_7 1_555 1_555
H39_3 C42_3 1_555 1_555
H42_3 N14_3 1_555 1_555
C5_3 C7_3 1_555 1_555
C6_3 C8_3 1_555 1_555
C10_3 C11_3 1_555 1_555
P4_3 N8_3 1_555 1_555
C26_3 C32_3 1_555 1_555
C27_3 C33_3 1_555 1_555
C28_3 C34_3 1_555 1_555
C29_3 C35_3 1_555 1_555
C39_3 C42_3 1_555 1_555
N24_5 C24_3 1_555 1_555
C12_3 N12_3 1_555 1_555
C13_3 N13_3 1_555 1_555
C24_3 H21_3 1_555 1_555
C25_3 N24_8 1_555 1_555
H22_3 C25_3 1_555 1_555
C30_3 C12_3 1_555 1_555
C31_3 C13_3 1_555 1_555
H27_3 C30_3 1_555 1_555
H28_3 C31_3 1_555 1_555
C37_3 C12_3 1_555 1_555
C38_3 C13_3 1_555 1_555
H34_3 C37_3 1_555 1_555
H35_3 C38_3 1_555 1_555
C40_3 N24_5 1_555 1_555
C41_3 N24_8 1_555 1_555
H37_3 C40_3 1_555 1_555
H38_3 C41_3 1_555 1_555
H40_3 N12_3 1_555 1_555
H41_3 N13_3 1_555 1_555
C24_3 C30_3 1_555 1_555
C25_3 C31_3 1_555 1_555
C37_3 C40_3 1_555 1_555
C38_3 C41_3 1_555 1_555
O6_5 C36_6 1_555 1_555
C36_6 O6_6 1_555 1_555
H33_6 C36_6 1_555 1_555
P1_4 N1_4 1_555 1_555
P2_4 N1_4 1_555 1_555
N2_4 P1_4 1_555 1_555
H1_4 N2_4 1_555 1_555
N3_4 P2_4 1_555 1_555
N19_4 C4_4 1_555 1_555
N24_2 C5_4 1_555 1_555
C1_4 N3_4 1_555 1_555
C2_4 N2_4 1_555 1_555
C3_4 C2_4 1_555 1_555
H2_4 C3_4 1_555 1_555
C4_4 C3_4 1_555 1_555
H3_4 C4_4 1_555 1_555
C5_4 H4_4 1_555 1_555
C6_4 N19_4 1_555 1_555
H5_4 C6_4 1_555 1_555
C7_4 C1_4 1_555 1_555
H6_4 C7_4 1_555 1_555
C8_4 C2_4 1_555 1_555
H7_4 C8_4 1_555 1_555
C10_4 C1_4 1_555 1_555
H9_4 C10_4 1_555 1_555
C11_4 N24_2 1_555 1_555
H10_4 C11_4 1_555 1_555
H11_4 N3_4 1_555 1_555
P3_4 N6_4 1_555 1_555
P4_4 N7_4 1_555 1_555
N6_4 P2_4 1_555 1_555
N7_4 P3_4 1_555 1_555
N8_4 P1_4 1_555 1_555
N9_4 P3_4 1_555 1_555
N10_4 P1_4 1_555 1_555
N11_4 P3_4 1_555 1_555
H12_4 N9_4 1_555 1_555
H13_4 N10_4 1_555 1_555
H14_4 N11_4 1_555 1_555
N12_4 P4_4 1_555 1_555
N13_4 P4_4 1_555 1_555
N14_4 P2_4 1_555 1_555
N19 C21_4 1_555 1_555
N19_2 C22_4 1_555 1_555
N19_3 C23_4 1_555 1_555
N24 C24_4 1_555 1_555
N24_3 C26_4 1_555 1_555
O6_3 C36_7 1_555 1_555
C12_4 N12_4 1_555 1_555
C13_4 N13_4 1_555 1_555
C14_4 N14_4 1_555 1_555
C15_4 N9_4 1_555 1_555
C16_4 N10_4 1_555 1_555
C17_4 N11_4 1_555 1_555
C18_4 C15_4 1_555 1_555
C19_4 C16_4 1_555 1_555
C20_4 C17_4 1_555 1_555
H15_4 C18_4 1_555 1_555
H16_4 C19_4 1_555 1_555
H17_4 C20_4 1_555 1_555
C21_4 C18_4 1_555 1_555
C22_4 C19_4 1_555 1_555
C23_4 C20_4 1_555 1_555
H18_4 C21_4 1_555 1_555
H19_4 C22_4 1_555 1_555
H20_4 C23_4 1_555 1_555
C24_4 H21_4 1_555 1_555
C25_4 N24_4 1_555 1_555
C26_4 H23_4 1_555 1_555
H22_4 C25_4 1_555 1_555
C27_4 N19 1_555 1_555
C28_4 N19_2 1_555 1_555
C29_4 N19_3 1_555 1_555
H24_4 C27_4 1_555 1_555
H25_4 C28_4 1_555 1_555
H26_4 C29_4 1_555 1_555
C30_4 C12_4 1_555 1_555
C31_4 C13_4 1_555 1_555
C32_4 C14_4 1_555 1_555
H27_4 C30_4 1_555 1_555
H28_4 C31_4 1_555 1_555
H29_4 C32_4 1_555 1_555
C33_4 C15_4 1_555 1_555
C34_4 C16_4 1_555 1_555
C35_4 C17_4 1_555 1_555
H30_4 C33_4 1_555 1_555
H31_4 C34_4 1_555 1_555
H32_4 C35_4 1_555 1_555
C36_7 O6_4 1_555 1_555
H33_7 C36_7 1_555 1_555
C37_4 C12_4 1_555 1_555
C38_4 C13_4 1_555 1_555
C39_4 C14_4 1_555 1_555
H34_4 C37_4 1_555 1_555
H35_4 C38_4 1_555 1_555
H36_4 C39_4 1_555 1_555
C40_4 N24 1_555 1_555
C41_4 N24_4 1_555 1_555
C42_4 N24_3 1_555 1_555
H37_4 C40_4 1_555 1_555
H38_4 C41_4 1_555 1_555
H39_4 C42_4 1_555 1_555
H40_4 N12_4 1_555 1_555
H41_4 N13_4 1_555 1_555
H42_4 N14_4 1_555 1_555
C5_4 C7_4 1_555 1_555
C6_4 C8_4 1_555 1_555
C10_4 C11_4 1_555 1_555
P4_4 N8_4 1_555 1_555
C24_4 C30_4 1_555 1_555
C25_4 C31_4 1_555 1_555
C26_4 C32_4 1_555 1_555
C27_4 C33_4 1_555 1_555
C28_4 C34_4 1_555 1_555
C29_4 C35_4 1_555 1_555
C37_4 C40_4 1_555 1_555
C38_4 C41_4 1_555 1_555
C39_4 C42_4 1_555 1_555
O6 C36_8 1_555 1_555
C36_8 O6_2 1_555 1_555
H33_8 C36_8 1_555 1_555
H1_5 N2_5 1_555 1_555
N20_4 C4_5 1_555 1_555
C2_5 N2_5 1_555 1_555
C3_5 C2_5 1_555 1_555
H2_5 C3_5 1_555 1_555
C4_5 C3_5 1_555 1_555
H3_5 C4_5 1_555 1_555
C6_5 N20_4 1_555 1_555
H5_5 C6_5 1_555 1_555
C8_5 C2_5 1_555 1_555
H7_5 C8_5 1_555 1_555
H13_5 N10_5 1_555 1_555
N20_6 C22_5 1_555 1_555
C16_5 N10_5 1_555 1_555
C19_5 C16_5 1_555 1_555
H16_5 C19_5 1_555 1_555
C22_5 C19_5 1_555 1_555
C28_5 N20_6 1_555 1_555
H25_5 C28_5 1_555 1_555
C34_5 C16_5 1_555 1_555
H31_5 C34_5 1_555 1_555
C6_5 C8_5 1_555 1_555
C28_5 C34_5 1_555 1_555
N25 C24_5 1_555 1_555
C12_5 N12_5 1_555 1_555
C13_5 N13_5 1_555 1_555
C24_5 H21_5 1_555 1_555
C25_5 N26_5 1_555 1_555
C30_5 C12_5 1_555 1_555
C31_5 C13_5 1_555 1_555
H27_5 C30_5 1_555 1_555
H28_5 C31_5 1_555 1_555
C37_5 C12_5 1_555 1_555
C38_5 C13_5 1_555 1_555
H34_5 C37_5 1_555 1_555
H35_5 C38_5 1_555 1_555
C40_5 N25 1_555 1_555
C41_5 N26_5 1_555 1_555
H37_5 C40_5 1_555 1_555
H38_5 C41_5 1_555 1_555
H40_5 N12_5 1_555 1_555
H41_5 N13_5 1_555 1_555
C24_5 C30_5 1_555 1_555
C25_5 C31_5 1_555 1_555
C37_5 C40_5 1_555 1_555
C38_5 C41_5 1_555 1_555
P1_5 N1_5 1_555 1_555
P2_5 N1_5 1_555 1_555
N3_5 P2_5 1_555 1_555
N26_3 C5_5 1_555 1_555
C1_5 N3_5 1_555 1_555
C7_5 C1_5 1_555 1_555
H6_5 C7_5 1_555 1_555
C10_5 C1_5 1_555 1_555
H9_5 C10_5 1_555 1_555
C11_5 N26_3 1_555 1_555
H10_5 C11_5 1_555 1_555
H11_5 N3_5 1_555 1_555
P3_5 N6_5 1_555 1_555
P4_5 N7_5 1_555 1_555
N6_5 P2_5 1_555 1_555
N7_5 P3_5 1_555 1_555
N8_5 P1_5 1_555 1_555
N9_5 P3_5 1_555 1_555
N11_5 P3_5 1_555 1_555
H12_5 N9_5 1_555 1_555
H14_5 N11_5 1_555 1_555
N14_5 P2_5 1_555 1_555
N18_8 C21_5 1_555 1_555
N18_2 C23_5 1_555 1_555
N25_7 C26_5 1_555 1_555
C14_5 N14_5 1_555 1_555
C15_5 N9_5 1_555 1_555
C17_5 N11_5 1_555 1_555
C18_5 C15_5 1_555 1_555
C20_5 C17_5 1_555 1_555
H15_5 C18_5 1_555 1_555
H17_5 C20_5 1_555 1_555
C21_5 C18_5 1_555 1_555
C23_5 C20_5 1_555 1_555
H18_5 C21_5 1_555 1_555
C26_5 H23_5 1_555 1_555
C27_5 N18_8 1_555 1_555
C29_5 N18_2 1_555 1_555
H24_5 C27_5 1_555 1_555
H26_5 C29_5 1_555 1_555
C32_5 C14_5 1_555 1_555
H29_5 C32_5 1_555 1_555
C33_5 C15_5 1_555 1_555
C35_5 C17_5 1_555 1_555
H30_5 C33_5 1_555 1_555
H32_5 C35_5 1_555 1_555
C39_5 C14_5 1_555 1_555
H36_5 C39_5 1_555 1_555
C42_5 N25_7 1_555 1_555
H39_5 C42_5 1_555 1_555
H42_5 N14_5 1_555 1_555
C5_5 C7_5 1_555 1_555
C10_5 C11_5 1_555 1_555
P4_5 N8_5 1_555 1_555
C26_5 C32_5 1_555 1_555
C27_5 C33_5 1_555 1_555
C29_5 C35_5 1_555 1_555
C39_5 C42_5 1_555 1_555
H1_6 N2_6 1_555 1_555
N20_8 C4_6 1_555 1_555
C2_6 N2_6 1_555 1_555
C3_6 C2_6 1_555 1_555
H2_6 C3_6 1_555 1_555
C4_6 C3_6 1_555 1_555
H3_6 C4_6 1_555 1_555
C6_6 N20_8 1_555 1_555
H5_6 C6_6 1_555 1_555
C8_6 C2_6 1_555 1_555
H7_6 C8_6 1_555 1_555
H13_6 N10_6 1_555 1_555
N20_2 C22_6 1_555 1_555
C16_6 N10_6 1_555 1_555
C19_6 C16_6 1_555 1_555
H16_6 C19_6 1_555 1_555
C22_6 C19_6 1_555 1_555
H19_6 C22_6 1_555 1_555
C28_6 N20_2 1_555 1_555
H25_6 C28_6 1_555 1_555
C34_6 C16_6 1_555 1_555
H31_6 C34_6 1_555 1_555
C6_6 C8_6 1_555 1_555
C28_6 C34_6 1_555 1_555
P1_6 N1_6 1_555 1_555
P2_6 N1_6 1_555 1_555
N3_6 P2_6 1_555 1_555
N26_7 C5_6 1_555 1_555
C1_6 N3_6 1_555 1_555
C7_6 C1_6 1_555 1_555
H6_6 C7_6 1_555 1_555
C10_6 C1_6 1_555 1_555
H9_6 C10_6 1_555 1_555
C11_6 N26_7 1_555 1_555
H10_6 C11_6 1_555 1_555
H11_6 N3_6 1_555 1_555
P3_6 N6_6 1_555 1_555
P4_6 N7_6 1_555 1_555
N6_6 P2_6 1_555 1_555
N7_6 P3_6 1_555 1_555
N8_6 P1_6 1_555 1_555
N9_6 P3_6 1_555 1_555
N11_6 P3_6 1_555 1_555
H12_6 N9_6 1_555 1_555
H14_6 N11_6 1_555 1_555
N12_6 P4_6 1_555 1_555
N13_6 P4_6 1_555 1_555
N14_6 P2_6 1_555 1_555
N18_4 C21_6 1_555 1_555
N18_6 C23_6 1_555 1_555
N25_5 C24_6 1_555 1_555
N25_3 C26_6 1_555 1_555
C12_6 N12_6 1_555 1_555
C13_6 N13_6 1_555 1_555
C14_6 N14_6 1_555 1_555
C15_6 N9_6 1_555 1_555
C17_6 N11_6 1_555 1_555
C18_6 C15_6 1_555 1_555
C20_6 C17_6 1_555 1_555
H15_6 C18_6 1_555 1_555
H17_6 C20_6 1_555 1_555
C21_6 C18_6 1_555 1_555
C23_6 C20_6 1_555 1_555
H18_6 C21_6 1_555 1_555
H20_6 C23_6 1_555 1_555
C24_6 H21_6 1_555 1_555
C25_6 N26 1_555 1_555
C26_6 H23_6 1_555 1_555
C27_6 N18_4 1_555 1_555
C29_6 N18_6 1_555 1_555
H24_6 C27_6 1_555 1_555
H26_6 C29_6 1_555 1_555
C30_6 C12_6 1_555 1_555
C31_6 C13_6 1_555 1_555
C32_6 C14_6 1_555 1_555
H27_6 C30_6 1_555 1_555
H28_6 C31_6 1_555 1_555
H29_6 C32_6 1_555 1_555
C33_6 C15_6 1_555 1_555
C35_6 C17_6 1_555 1_555
H30_6 C33_6 1_555 1_555
H32_6 C35_6 1_555 1_555
C37_6 C12_6 1_555 1_555
C38_6 C13_6 1_555 1_555
C39_6 C14_6 1_555 1_555
H34_6 C37_6 1_555 1_555
H35_6 C38_6 1_555 1_555
H36_6 C39_6 1_555 1_555
C40_6 N25_5 1_555 1_555
C41_6 N26 1_555 1_555
C42_6 N25_3 1_555 1_555
H37_6 C40_6 1_555 1_555
H38_6 C41_6 1_555 1_555
H39_6 C42_6 1_555 1_555
H40_6 N12_6 1_555 1_555
H41_6 N13_6 1_555 1_555
H42_6 N14_6 1_555 1_555
C5_6 C7_6 1_555 1_555
C10_6 C11_6 1_555 1_555
P4_6 N8_6 1_555 1_555
C24_6 C30_6 1_555 1_555
C25_6 C31_6 1_555 1_555
C26_6 C32_6 1_555 1_555
C27_6 C33_6 1_555 1_555
C29_6 C35_6 1_555 1_555
C37_6 C40_6 1_555 1_555
C38_6 C41_6 1_555 1_555
C39_6 C42_6 1_555 1_555
N26_8 C24_7 1_555 1_555
C12_7 N12_7 1_555 1_555
C13_7 N13_7 1_555 1_555
C24_7 H21_7 1_555 1_555
C25_7 N25_4 1_555 1_555
H22_7 C25_7 1_555 1_555
C30_7 C12_7 1_555 1_555
C31_7 C13_7 1_555 1_555
H27_7 C30_7 1_555 1_555
H28_7 C31_7 1_555 1_555
C37_7 C12_7 1_555 1_555
C38_7 C13_7 1_555 1_555
H34_7 C37_7 1_555 1_555
H35_7 C38_7 1_555 1_555
C40_7 N26_8 1_555 1_555
C41_7 N25_4 1_555 1_555
H37_7 C40_7 1_555 1_555
H38_7 C41_7 1_555 1_555
H40_7 N12_7 1_555 1_555
H41_7 N13_7 1_555 1_555
C24_7 C30_7 1_555 1_555
C25_7 C31_7 1_555 1_555
C37_7 C40_7 1_555 1_555
C38_7 C41_7 1_555 1_555
P1_7 N1_7 1_555 1_555
P2_7 N1_7 1_555 1_555
N2_7 P1_7 1_555 1_555
H1_7 N2_7 1_555 1_555
N3_7 P2_7 1_555 1_555
N18_5 C4_7 1_555 1_555
N25_6 C5_7 1_555 1_555
C1_7 N3_7 1_555 1_555
C2_7 N2_7 1_555 1_555
C3_7 C2_7 1_555 1_555
H2_7 C3_7 1_555 1_555
C4_7 C3_7 1_555 1_555
H3_7 C4_7 1_555 1_555
C5_7 H4_7 1_555 1_555
C6_7 N18_5 1_555 1_555
H5_7 C6_7 1_555 1_555
C7_7 C1_7 1_555 1_555
H6_7 C7_7 1_555 1_555
C8_7 C2_7 1_555 1_555
H7_7 C8_7 1_555 1_555
C10_7 C1_7 1_555 1_555
H9_7 C10_7 1_555 1_555
C11_7 N25_6 1_555 1_555
H10_7 C11_7 1_555 1_555
H11_7 N3_7 1_555 1_555
P3_7 N6_7 1_555 1_555
P4_7 N7_7 1_555 1_555
N6_7 P2_7 1_555 1_555
N7_7 P3_7 1_555 1_555
N8_7 P1_7 1_555 1_555
N9_7 P3_7 1_555 1_555
N10_7 P1_7 1_555 1_555
N11_7 P3_7 1_555 1_555
H12_7 N9_7 1_555 1_555
H13_7 N10_7 1_555 1_555
H14_7 N11_7 1_555 1_555
N14_7 P2_7 1_555 1_555
N20 C21_7 1_555 1_555
N18_3 C22_7 1_555 1_555
N20_7 C23_7 1_555 1_555
N26_2 C26_7 1_555 1_555
C14_7 N14_7 1_555 1_555
C15_7 N9_7 1_555 1_555
C16_7 N10_7 1_555 1_555
C17_7 N11_7 1_555 1_555
C18_7 C15_7 1_555 1_555
C19_7 C16_7 1_555 1_555
C20_7 C17_7 1_555 1_555
H15_7 C18_7 1_555 1_555
H16_7 C19_7 1_555 1_555
H17_7 C20_7 1_555 1_555
C21_7 C18_7 1_555 1_555
C22_7 C19_7 1_555 1_555
C23_7 C20_7 1_555 1_555
H18_7 C21_7 1_555 1_555
C26_7 H23_7 1_555 1_555
C27_7 N20 1_555 1_555
C28_7 N18_3 1_555 1_555
C29_7 N20_7 1_555 1_555
H24_7 C27_7 1_555 1_555
H25_7 C28_7 1_555 1_555
H26_7 C29_7 1_555 1_555
C32_7 C14_7 1_555 1_555
H29_7 C32_7 1_555 1_555
C33_7 C15_7 1_555 1_555
C34_7 C16_7 1_555 1_555
C35_7 C17_7 1_555 1_555
H30_7 C33_7 1_555 1_555
H31_7 C34_7 1_555 1_555
H32_7 C35_7 1_555 1_555
C39_7 C14_7 1_555 1_555
H36_7 C39_7 1_555 1_555
C42_7 N26_2 1_555 1_555
H39_7 C42_7 1_555 1_555
H42_7 N14_7 1_555 1_555
C5_7 C7_7 1_555 1_555
C6_7 C8_7 1_555 1_555
C10_7 C11_7 1_555 1_555
P4_7 N8_7 1_555 1_555
C26_7 C32_7 1_555 1_555
C27_7 C33_7 1_555 1_555
C28_7 C34_7 1_555 1_555
C29_7 C35_7 1_555 1_555
C39_7 C42_7 1_555 1_555
P1_8 N1_8 1_555 1_555
P2_8 N1_8 1_555 1_555
N2_8 P1_8 1_555 1_555
H1_8 N2_8 1_555 1_555
N3_8 P2_8 1_555 1_555
N18 C4_8 1_555 1_555
N25_2 C5_8 1_555 1_555
C1_8 N3_8 1_555 1_555
C2_8 N2_8 1_555 1_555
C3_8 C2_8 1_555 1_555
H2_8 C3_8 1_555 1_555
C4_8 C3_8 1_555 1_555
H3_8 C4_8 1_555 1_555
C5_8 H4_8 1_555 1_555
C6_8 N18 1_555 1_555
H5_8 C6_8 1_555 1_555
C7_8 C1_8 1_555 1_555
H6_8 C7_8 1_555 1_555
C8_8 C2_8 1_555 1_555
H7_8 C8_8 1_555 1_555
C10_8 C1_8 1_555 1_555
H9_8 C10_8 1_555 1_555
C11_8 N25_2 1_555 1_555
H10_8 C11_8 1_555 1_555
H11_8 N3_8 1_555 1_555
P3_8 N6_8 1_555 1_555
P4_8 N7_8 1_555 1_555
N6_8 P2_8 1_555 1_555
N7_8 P3_8 1_555 1_555
N8_8 P1_8 1_555 1_555
N9_8 P3_8 1_555 1_555
N10_8 P1_8 1_555 1_555
N11_8 P3_8 1_555 1_555
H12_8 N9_8 1_555 1_555
H13_8 N10_8 1_555 1_555
H14_8 N11_8 1_555 1_555
N12_8 P4_8 1_555 1_555
N13_8 P4_8 1_555 1_555
N14_8 P2_8 1_555 1_555
N20_5 C21_8 1_555 1_555
N18_7 C22_8 1_555 1_555
N20_3 C23_8 1_555 1_555
N26_4 C24_8 1_555 1_555
N26_6 C26_8 1_555 1_555
C12_8 N12_8 1_555 1_555
C13_8 N13_8 1_555 1_555
C14_8 N14_8 1_555 1_555
C15_8 N9_8 1_555 1_555
C16_8 N10_8 1_555 1_555
C17_8 N11_8 1_555 1_555
C18_8 C15_8 1_555 1_555
C19_8 C16_8 1_555 1_555
C20_8 C17_8 1_555 1_555
H15_8 C18_8 1_555 1_555
H16_8 C19_8 1_555 1_555
H17_8 C20_8 1_555 1_555
C21_8 C18_8 1_555 1_555
C22_8 C19_8 1_555 1_555
C23_8 C20_8 1_555 1_555
H18_8 C21_8 1_555 1_555
H19_8 C22_8 1_555 1_555
H20_8 C23_8 1_555 1_555
C24_8 H21_8 1_555 1_555
C25_8 N25_8 1_555 1_555
C26_8 H23_8 1_555 1_555
H22_8 C25_8 1_555 1_555
C27_8 N20_5 1_555 1_555
C28_8 N18_7 1_555 1_555
C29_8 N20_3 1_555 1_555
H24_8 C27_8 1_555 1_555
H25_8 C28_8 1_555 1_555
H26_8 C29_8 1_555 1_555
C30_8 C12_8 1_555 1_555
C31_8 C13_8 1_555 1_555
C32_8 C14_8 1_555 1_555
H27_8 C30_8 1_555 1_555
H28_8 C31_8 1_555 1_555
H29_8 C32_8 1_555 1_555
C33_8 C15_8 1_555 1_555
C34_8 C16_8 1_555 1_555
C35_8 C17_8 1_555 1_555
H30_8 C33_8 1_555 1_555
H31_8 C34_8 1_555 1_555
H32_8 C35_8 1_555 1_555
C37_8 C12_8 1_555 1_555
C38_8 C13_8 1_555 1_555
C39_8 C14_8 1_555 1_555
H34_8 C37_8 1_555 1_555
H35_8 C38_8 1_555 1_555
H36_8 C39_8 1_555 1_555
C40_8 N26_4 1_555 1_555
C41_8 N25_8 1_555 1_555
C42_8 N26_6 1_555 1_555
H37_8 C40_8 1_555 1_555
H38_8 C41_8 1_555 1_555
H39_8 C42_8 1_555 1_555
H40_8 N12_8 1_555 1_555
H41_8 N13_8 1_555 1_555
H42_8 N14_8 1_555 1_555
C5_8 C7_8 1_555 1_555
C6_8 C8_8 1_555 1_555
C10_8 C11_8 1_555 1_555
P4_8 N8_8 1_555 1_555
C24_8 C30_8 1_555 1_555
C25_8 C31_8 1_555 1_555
C26_8 C32_8 1_555 1_555
C27_8 C33_8 1_555 1_555
C28_8 C34_8 1_555 1_555
C29_8 C35_8 1_555 1_555
C37_8 C40_8 1_555 1_555
C38_8 C41_8 1_555 1_555
C39_8 C42_8 1_555 1_555
Cl1 O7 1_555 1_555
O8 Cl1 1_555 1_555
O9 Cl1 1_555 1_555
O10 Cl1 1_555 1_555
Cl1_2 O7_2 1_555 1_555
O8_2 Cl1_2 1_555 1_555
O9_2 Cl1_2 1_555 1_555
O10_2 Cl1_2 1_555 1_555
Cl1_3 O7_3 1_555 1_555
O8_3 Cl1_3 1_555 1_555
O9_3 Cl1_3 1_555 1_555
O10_3 Cl1_3 1_555 1_555
Cl1_4 O7_4 1_555 1_555
O8_4 Cl1_4 1_555 1_555
O9_4 Cl1_4 1_555 1_555
O10_4 Cl1_4 1_555 1_555
Cl1_5 O7_5 1_555 1_555
O8_5 Cl1_5 1_555 1_555
O9_5 Cl1_5 1_555 1_555
O10_5 Cl1_5 1_555 1_555
Cl1_6 O7_6 1_555 1_555
O8_6 Cl1_6 1_555 1_555
O9_6 Cl1_6 1_555 1_555
O10_6 Cl1_6 1_555 1_555
Cl1_7 O7_7 1_555 1_555
O8_7 Cl1_7 1_555 1_555
O9_7 Cl1_7 1_555 1_555
O10_7 Cl1_7 1_555 1_555
Cl1_8 O7_8 1_555 1_555
O8_8 Cl1_8 1_555 1_555
O9_8 Cl1_8 1_555 1_555
O10_8 Cl1_8 1_555 1_555
Cl1_9 O7_9 1_555 1_555
O8_9 Cl1_9 1_555 1_555
O9_9 Cl1_9 1_555 1_555
O10_9 Cl1_9 1_555 1_555
Cl1_10 O7_10 1_555 1_555
O8_10 Cl1_10 1_555 1_555
O9_10 Cl1_10 1_555 1_555
O10_10 Cl1_10 1_555 1_555
Cl1_11 O7_11 1_555 1_555
O8_11 Cl1_11 1_555 1_555
O9_11 Cl1_11 1_555 1_555
O10_11 Cl1_11 1_555 1_555
Cl1_12 O7_12 1_555 1_555
O8_12 Cl1_12 1_555 1_555
O9_12 Cl1_12 1_555 1_555
O10_12 Cl1_12 1_555 1_555
Cl1_13 O7_13 1_555 1_555
O8_13 Cl1_13 1_555 1_555
O9_13 Cl1_13 1_555 1_555
O10_13 Cl1_13 1_555 1_555
Cl1_14 O7_14 1_555 1_555
O8_14 Cl1_14 1_555 1_555
O9_14 Cl1_14 1_555 1_555
O10_14 Cl1_14 1_555 1_555
Cl1_15 O7_15 1_555 1_555
O8_15 Cl1_15 1_555 1_555
O9_15 Cl1_15 1_555 1_555
O10_15 Cl1_15 1_555 1_555
Cl1_16 O7_16 1_555 1_555
O8_16 Cl1_16 1_555 1_555
O9_16 Cl1_16 1_555 1_555
O10_16 Cl1_16 1_555 1_555

#END
