
###############################################################################
#
# This file contains modified crystal structure data generated from the
# MOF subset of the Cambridge Structural Database (CSD) v543 
# hosted by the Cambridge Crystallographic Data Centre (CCDC).
#
# This work is licensed under the Creative Commons
# Attribution-NonCommercial-ShareAlike 4.0 International License.
# To view a copy of this license, visit
# http://creativecommons.org/licenses/by-nc-sa/4.0/
# or send a letter to
# Creative Commons, PO Box 1866, Mountain View, CA 94042, USA.
#
# CIF created using the CSD Python API on 29 September 2022
# The structure has been converted into the P1 space group
# The structure has a 3D framework
# The original CSD entry SEMFIB is in the orthorhombic crystal system
# The framework has been calculated to contain at least 10.0% void space
# The void calculation uses a probe of radius 1.32A, grid spacing 0.4
# The framework is charged, counterions have been retained in the structure
#
###############################################################################

data_SEMFIB
_chemical_formula_moiety         '(C336 H336 Cd12 Cl16 N160 O96 P32 4-)n'
_symmetry_cell_setting           triclinic
_symmetry_space_group_name_H-M   'P 1'
_symmetry_Int_Tables_number      1
_space_group_name_Hall           'P 1'
loop_
_symmetry_equiv_pos_site_id
_symmetry_equiv_pos_as_xyz
1 x,y,z
_cell_length_a                   17.3043(5)
_cell_length_b                   18.3115(7)
_cell_length_c                   45.7907(17)
_cell_angle_alpha                90
_cell_angle_beta                 90
_cell_angle_gamma                90
_cell_volume                     14509.6
loop_
_atom_site_label
_atom_site_type_symbol
_atom_site_fract_x
_atom_site_fract_y
_atom_site_fract_z
P1 P 0.00965(6) 0.1250 0.1250
P2 P 0.1250 0.23501(6) 0.1250
N1 N 0.05437(15) 0.19205(15) 0.11130(6)
N3 N 0.16165(17) 0.28842(16) 0.09879(7)
N5 N 0.0566(2) 0.4169(2) 0.03382(8)
C1 C 0.1242(2) 0.3308(2) 0.07757(8)
C5 C 0.0211(3) 0.3592(3) 0.04482(10)
C7 C 0.0516(3) 0.3155(2) 0.06641(10)
H6 H 0.0236 0.2759 0.0735
C10 C 0.1628(3) 0.3900(3) 0.06515(14)
H9 H 0.2125 0.4019 0.0711
C11 C 0.1268(3) 0.4302(3) 0.04414(15)
H10 H 0.1535 0.4699 0.0365
H11 H 0.2098 0.3089 0.1021
Cd3 Cd 0.0000 0.5000 0.0000
Cd6 Cd 0.5000 0.2500 0.2500
Cd7 Cd 0.5000 0.0000 0.0000
Cd8 Cd 0.2500 0.5000 0.2500
P3 P 0.24035(6) 0.1250 0.1250
P4 P 0.1250 0.01499(6) 0.1250
N6 N 0.19563(15) 0.19205(15) 0.13870(6)
N7 N 0.19563(15) 0.05795(15) 0.11130(6)
N8 N 0.05437(15) 0.05795(15) 0.13870(6)
N10 N 0.29674(18) 0.08900(16) 0.15047(6)
N11 N 0.29674(18) 0.16100(16) 0.09953(6)
H13 H 0.2955 0.0422 0.1517
H14 H 0.2955 0.2078 0.0983
N14 N 0.08835(17) 0.28842(16) 0.15121(7)
N16 N 0.4402(2) 0.1893(2) 0.21186(8)
N17 N 0.4402(2) 0.0607(2) 0.03814(8)
N19 N 0.3098(2) 0.5607(2) 0.21186(8)
N20 N 0.1902(2) 0.4393(2) 0.28814(8)
N23 N 0.1934(2) 0.4169(2) 0.21618(8)
N26 N 0.3066(2) 0.5831(2) 0.28382(8)
O4 O 0.3579(3) 0.4320(2) 0.25078(9)
O5 O 0.1421(3) 0.5680(2) 0.24922(9)
C14 C 0.1258(2) 0.3308(2) 0.17243(8)
C16 C 0.3456(2) 0.12354(19) 0.17006(8)
C17 C 0.3456(2) 0.12646(19) 0.07994(8)
C19 C 0.3647(2) 0.1973(2) 0.16821(9)
C20 C 0.3647(2) 0.0527(2) 0.08179(9)
H16 H 0.3465 0.2259 0.1529
H17 H 0.3465 0.0241 0.0971
C22 C 0.4111(3) 0.2270(2) 0.18950(10)
C23 C 0.4111(3) 0.0230(2) 0.06050(10)
H19 H 0.4230 0.2765 0.1882
C26 C 0.2289(3) 0.3592(3) 0.20518(10)
H23 H 0.2775 0.3474 0.2125
C28 C 0.4237(3) 0.1176(3) 0.21292(11)
C29 C 0.4237(3) 0.1324(3) 0.03708(11)
H25 H 0.4443 0.0903 0.2282
H26 H 0.4443 0.1597 0.0218
C32 C 0.1984(3) 0.3155(2) 0.18359(10)
H29 H 0.2264 0.2759 0.1765
C34 C 0.3784(3) 0.0822(2) 0.19283(10)
C35 C 0.3784(3) 0.1678(2) 0.05717(10)
H31 H 0.3695 0.0322 0.1942
H32 H 0.3695 0.2178 0.0558
C39 C 0.0872(3) 0.3900(3) 0.18485(14)
H36 H 0.0375 0.4019 0.1789
C42 C 0.1232(3) 0.4302(3) 0.20586(15)
H39 H 0.0965 0.4699 0.2135
H42 H 0.0402 0.3089 0.1479
Cd3_2 Cd 0.0000 0.5000 1.0000
Cd7_2 Cd 0.5000 0.0000 1.0000
Cd4 Cd 0.2500 0.7500 0.0000
Cd5 Cd 0.0000 0.7500 0.2500
Cd7_3 Cd 0.5000 1.0000 0.0000
N12 N 0.08835(17) 0.96158(16) 0.09879(7)
N13 N 0.16165(17) 0.96158(16) 0.15121(7)
N21 N 0.1934(2) 0.8331(2) 0.03382(8)
N22 N 0.0566(2) 0.8331(2) 0.21618(8)
C12 C 0.1258(2) 0.9192(2) 0.07757(8)
C13 C 0.1242(2) 0.9192(2) 0.17243(8)
H20 H 0.4230 0.9735 0.0618
C24 C 0.2289(3) 0.8908(3) 0.04482(10)
C25 C 0.0211(3) 0.8908(3) 0.20518(10)
H21 H 0.2775 0.9026 0.0375
C30 C 0.1984(3) 0.9345(2) 0.06641(10)
C31 C 0.0516(3) 0.9345(2) 0.18359(10)
H27 H 0.2264 0.9741 0.0735
H28 H 0.0236 0.9741 0.1765
C37 C 0.0872(3) 0.8600(3) 0.06515(14)
C38 C 0.1628(3) 0.8600(3) 0.18485(14)
H34 H 0.0375 0.8481 0.0711
H35 H 0.2125 0.8481 0.1789
C40 C 0.1232(3) 0.8198(3) 0.04414(15)
C41 C 0.1268(3) 0.8198(3) 0.20586(15)
H37 H 0.0965 0.7801 0.0365
H38 H 0.1535 0.7801 0.2135
H40 H 0.0402 0.9411 0.1021
H41 H 0.2098 0.9411 0.1479
Cd4_2 Cd 0.2500 0.7500 1.0000
Cd7_4 Cd 0.5000 1.0000 1.0000
Cd1 Cd 0.7500 0.0000 0.2500
N2 N 0.95326(18) 0.08900(16) 0.09953(6)
H1 H 0.9545 0.0422 0.0983
N4 N 0.8098(2) 0.1893(2) 0.03814(8)
C2 C 0.9044(2) 0.12354(19) 0.07994(8)
C3 C 0.8853(2) 0.1973(2) 0.08179(9)
H2 H 0.9035 0.2259 0.0971
C4 C 0.8389(3) 0.2270(2) 0.06050(10)
H3 H 0.8270 0.2765 0.0618
H4 H 0.9725 0.3474 0.0375
C6 C 0.8263(3) 0.1176(3) 0.03708(11)
H5 H 0.8057 0.0903 0.0218
C8 C 0.8716(3) 0.0822(2) 0.05717(10)
H7 H 0.8805 0.0322 0.0558
Cd2 Cd 0.7500 0.2500 0.0000
Cd3_3 Cd 1.0000 0.5000 0.0000
N9 N 0.95326(18) 0.16100(16) 0.15047(6)
H12 H 0.9545 0.2078 0.1517
N15 N 0.8098(2) 0.0607(2) 0.21186(8)
N25 N 0.8066(2) 0.0831(2) 0.28382(8)
O2 O 0.6421(3) 0.0680(2) 0.24922(9)
O6 O 0.6079(3) 0.1820(2) 0.24922(9)
C15 C 0.9044(2) 0.12646(19) 0.17006(8)
C18 C 0.8853(2) 0.0527(2) 0.16821(9)
H15 H 0.9035 0.0241 0.1529
C21 C 0.8389(3) 0.0230(2) 0.18950(10)
C27 C 0.8263(3) 0.1324(3) 0.21292(11)
H24 H 0.8057 0.1597 0.2282
C33 C 0.8716(3) 0.1678(2) 0.19283(10)
H30 H 0.8805 0.2178 0.1942
C36 C 0.6250 0.1250 0.23758(14)
H33 H 0.6250 0.1250 0.2173
Cd2_2 Cd 0.7500 0.2500 1.0000
Cd3_4 Cd 1.0000 0.5000 1.0000
Cd1_2 Cd 0.7500 1.0000 0.2500
O1 O 0.8579(3) 0.9320(2) 0.25078(9)
C9 C 0.8750 0.8750 0.26242(14)
H8 H 0.8750 0.8750 0.2827
Cd5_2 Cd 1.0000 0.7500 0.2500
N18 N 0.6902(2) 0.9393(2) 0.28814(8)
N24 N 0.6934(2) 0.9169(2) 0.21618(8)
O3 O 0.8921(3) 0.8180(2) 0.25078(9)
H18 H 0.8270 0.9735 0.1882
H22 H 0.9725 0.9026 0.2125
O1_2 O 0.3921(3) 0.3180(2) 0.25078(9)
C9_2 C 0.3750 0.3750 0.26242(14)
H8_2 H 0.3750 0.3750 0.2827
N18_2 N 0.5598(2) 0.3107(2) 0.28814(8)
N24_2 N 0.5566(2) 0.3331(2) 0.21618(8)
N25_2 N 0.4434(2) 0.1669(2) 0.28382(8)
N20_2 N 0.0598(2) 0.8107(2) 0.28814(8)
O5_2 O 0.1079(3) 0.6820(2) 0.24922(9)
N19_2 N 0.9402(2) 0.6893(2) 0.21186(8)
N26_2 N 0.9434(2) 0.6669(2) 0.28382(8)
N19_3 N 0.3098(2) 0.6893(2) 0.03814(8)
O5_3 O 0.1421(3) 0.6820(2) 0.00078(9)
N20_3 N 0.1902(2) 0.8107(2) 0.96186(8)
N26_3 N 0.3066(2) 0.6669(2) 0.96618(8)
O4_2 O 0.3579(3) 0.8180(2) 0.99922(9)
N24_3 N 0.6934(2) 0.3331(2) 0.03382(8)
O2_2 O 0.6421(3) 0.1820(2) 0.00078(9)
O6_2 O 0.6079(3) 0.0680(2) 0.00078(9)
C36_2 C 0.6250 0.1250 0.01242(14)
H33_2 H 0.6250 0.1250 0.0327
O1_3 O 0.8579(3) 0.3180(2) 0.99922(9)
C9_3 C 0.8750 0.3750 0.98758(14)
H8_3 H 0.8750 0.3750 0.9673
N18_3 N 0.6902(2) 0.3107(2) 0.96186(8)
N25_3 N 0.8066(2) 0.1669(2) 0.96618(8)
O3_2 O 0.8921(3) 0.4320(2) 0.99922(9)
O5_4 O 0.1079(3) 0.5680(2) 0.00078(9)
N20_4 N 0.0598(2) 0.4393(2) 0.96186(8)
N25_4 N 0.4434(2) 0.0831(2) 0.96618(8)
N24_4 N 0.5566(2) 0.9169(2) 0.03382(8)
O1_4 O 0.3921(3) 0.9320(2) 0.99922(9)
C9_4 C 0.3750 0.8750 0.98758(14)
H8_4 H 0.3750 0.8750 0.9673
N18_4 N 0.5598(2) 0.9393(2) 0.96186(8)
N19_4 N 0.9402(2) 0.5607(2) 0.03814(8)
N26_4 N 0.9434(2) 0.5831(2) 0.96618(8)
Cd3_5 Cd 0.0000 0.0000 0.5000
Cd8_2 Cd 0.2500 -0.0000 0.7500
N19_5 N 0.3098(2) 0.0607(2) 0.71186(8)
N26_5 N 0.3066(2) 0.0831(2) 0.78382(8)
O5_5 O 0.1421(3) 0.0680(2) 0.74922(9)
P1_2 P 0.00965(6) 0.6250 0.6250
P2_2 P 0.1250 0.73501(6) 0.6250
N1_2 N 0.05437(15) 0.69205(15) 0.61130(6)
N3_2 N 0.16165(17) 0.78842(16) 0.59879(7)
N5_2 N 0.0566(2) 0.9169(2) 0.53382(8)
C1_2 C 0.1242(2) 0.8308(2) 0.57757(8)
C5_2 C 0.0211(3) 0.8592(3) 0.54482(10)
C7_2 C 0.0516(3) 0.8155(2) 0.56641(10)
H6_2 H 0.0236 0.7759 0.5735
C10_2 C 0.1628(3) 0.8900(3) 0.56515(14)
H9_2 H 0.2125 0.9019 0.5711
C11_2 C 0.1268(3) 0.9302(3) 0.54414(15)
H10_2 H 0.1535 0.9699 0.5365
H11_2 H 0.2098 0.8089 0.6021
Cd3_6 Cd 0.0000 1.0000 0.5000
Cd4_3 Cd 0.2500 0.2500 0.5000
Cd5_3 Cd 0.0000 0.2500 0.7500
Cd6_2 Cd 0.5000 0.7500 0.7500
Cd7_5 Cd 0.5000 0.5000 0.5000
Cd8_3 Cd 0.2500 1.0000 0.7500
P3_2 P 0.24035(6) 0.6250 0.6250
P4_2 P 0.1250 0.51499(6) 0.6250
N6_2 N 0.19563(15) 0.69205(15) 0.63870(6)
N7_2 N 0.19563(15) 0.55795(15) 0.61130(6)
N8_2 N 0.05437(15) 0.55795(15) 0.63870(6)
N10_2 N 0.29674(18) 0.58900(16) 0.65047(6)
N11_2 N 0.29674(18) 0.66100(16) 0.59953(6)
H13_2 H 0.2955 0.5422 0.6517
H14_2 H 0.2955 0.7078 0.5983
N12_2 N 0.08835(17) 0.46158(16) 0.59879(7)
N13_2 N 0.16165(17) 0.46158(16) 0.65121(7)
N14_2 N 0.08835(17) 0.78842(16) 0.65121(7)
N16_2 N 0.4402(2) 0.6893(2) 0.71186(8)
N17_2 N 0.4402(2) 0.5607(2) 0.53814(8)
N20_5 N 0.1902(2) 0.9393(2) 0.78814(8)
N21_2 N 0.1934(2) 0.3331(2) 0.53382(8)
N22_2 N 0.0566(2) 0.3331(2) 0.71618(8)
N23_2 N 0.1934(2) 0.9169(2) 0.71618(8)
O4_3 O 0.3579(3) 0.9320(2) 0.75078(9)
C12_2 C 0.1258(2) 0.4192(2) 0.57757(8)
C13_2 C 0.1242(2) 0.4192(2) 0.67243(8)
C14_2 C 0.1258(2) 0.8308(2) 0.67243(8)
C16_2 C 0.3456(2) 0.62354(19) 0.67006(8)
C17_2 C 0.3456(2) 0.62646(19) 0.57994(8)
C19_2 C 0.3647(2) 0.6973(2) 0.66821(9)
C20_2 C 0.3647(2) 0.5527(2) 0.58179(9)
H16_2 H 0.3465 0.7259 0.6529
H17_2 H 0.3465 0.5241 0.5971
C22_2 C 0.4111(3) 0.7270(2) 0.68950(10)
C23_2 C 0.4111(3) 0.5230(2) 0.56050(10)
H19_2 H 0.4230 0.7765 0.6882
H20_2 H 0.4230 0.4735 0.5618
C24_2 C 0.2289(3) 0.3908(3) 0.54482(10)
C25_2 C 0.0211(3) 0.3908(3) 0.70518(10)
C26_2 C 0.2289(3) 0.8592(3) 0.70518(10)
H21_2 H 0.2775 0.4026 0.5375
H23_2 H 0.2775 0.8474 0.7125
C28_2 C 0.4237(3) 0.6176(3) 0.71292(11)
C29_2 C 0.4237(3) 0.6324(3) 0.53708(11)
H25_2 H 0.4443 0.5903 0.7282
H26_2 H 0.4443 0.6597 0.5218
C30_2 C 0.1984(3) 0.4345(2) 0.56641(10)
C31_2 C 0.0516(3) 0.4345(2) 0.68359(10)
C32_2 C 0.1984(3) 0.8155(2) 0.68359(10)
H27_2 H 0.2264 0.4741 0.5735
H28_2 H 0.0236 0.4741 0.6765
H29_2 H 0.2264 0.7759 0.6765
C34_2 C 0.3784(3) 0.5822(2) 0.69283(10)
C35_2 C 0.3784(3) 0.6678(2) 0.55717(10)
H31_2 H 0.3695 0.5322 0.6942
H32_2 H 0.3695 0.7178 0.5558
C37_2 C 0.0872(3) 0.3600(3) 0.56515(14)
C38_2 C 0.1628(3) 0.3600(3) 0.68485(14)
C39_2 C 0.0872(3) 0.8900(3) 0.68485(14)
H34_2 H 0.0375 0.3481 0.5711
H35_2 H 0.2125 0.3481 0.6789
H36_2 H 0.0375 0.9019 0.6789
C40_2 C 0.1232(3) 0.3198(3) 0.54414(15)
C41_2 C 0.1268(3) 0.3198(3) 0.70586(15)
C42_2 C 0.1232(3) 0.9302(3) 0.70586(15)
H37_2 H 0.0965 0.2801 0.5365
H38_2 H 0.1535 0.2801 0.7135
H39_2 H 0.0965 0.9699 0.7135
H40_2 H 0.0402 0.4411 0.6021
H41_2 H 0.2098 0.4411 0.6479
H42_2 H 0.0402 0.8089 0.6479
Cd3_7 Cd 1.0000 0.0000 0.5000
Cd1_3 Cd 0.7500 0.5000 0.7500
N2_2 N 0.95326(18) 0.58900(16) 0.59953(6)
H1_2 H 0.9545 0.5422 0.5983
N4_2 N 0.8098(2) 0.6893(2) 0.53814(8)
O1_5 O 0.8579(3) 0.4320(2) 0.75078(9)
C2_2 C 0.9044(2) 0.62354(19) 0.57994(8)
C3_2 C 0.8853(2) 0.6973(2) 0.58179(9)
H2_2 H 0.9035 0.7259 0.5971
C4_2 C 0.8389(3) 0.7270(2) 0.56050(10)
H3_2 H 0.8270 0.7765 0.5618
H4_2 H 0.9725 0.8474 0.5375
C6_2 C 0.8263(3) 0.6176(3) 0.53708(11)
H5_2 H 0.8057 0.5903 0.5218
C8_2 C 0.8716(3) 0.5822(2) 0.55717(10)
H7_2 H 0.8805 0.5322 0.5558
C9_5 C 0.8750 0.3750 0.76242(14)
H8_5 H 0.8750 0.3750 0.7827
Cd2_3 Cd 0.7500 0.7500 0.5000
Cd3_8 Cd 1.0000 1.0000 0.5000
Cd5_4 Cd 1.0000 0.2500 0.7500
N9_2 N 0.95326(18) 0.66100(16) 0.65047(6)
H12_2 H 0.9545 0.7078 0.6517
N15_2 N 0.8098(2) 0.5607(2) 0.71186(8)
N18_5 N 0.6902(2) 0.4393(2) 0.78814(8)
N24_5 N 0.6934(2) 0.4169(2) 0.71618(8)
N25_5 N 0.8066(2) 0.5831(2) 0.78382(8)
O2_3 O 0.6421(3) 0.5680(2) 0.74922(9)
O3_3 O 0.8921(3) 0.3180(2) 0.75078(9)
O6_3 O 0.6079(3) 0.6820(2) 0.74922(9)
C15_2 C 0.9044(2) 0.62646(19) 0.67006(8)
C18_2 C 0.8853(2) 0.5527(2) 0.66821(9)
H15_2 H 0.9035 0.5241 0.6529
C21_2 C 0.8389(3) 0.5230(2) 0.68950(10)
H18_2 H 0.8270 0.4735 0.6882
H22_2 H 0.9725 0.4026 0.7125
C27_2 C 0.8263(3) 0.6324(3) 0.71292(11)
H24_2 H 0.8057 0.6597 0.7282
C33_2 C 0.8716(3) 0.6678(2) 0.69283(10)
H30_2 H 0.8805 0.7178 0.6942
C36_3 C 0.6250 0.6250 0.73758(14)
H33_3 H 0.6250 0.6250 0.7173
O1_6 O 0.3921(3) 0.8180(2) 0.75078(9)
C9_6 C 0.3750 0.8750 0.76242(14)
H8_6 H 0.3750 0.8750 0.7827
N18_6 N 0.5598(2) 0.8107(2) 0.78814(8)
N20_6 N 0.0598(2) 0.3107(2) 0.78814(8)
N24_6 N 0.5566(2) 0.8331(2) 0.71618(8)
N25_6 N 0.4434(2) 0.6669(2) 0.78382(8)
O5_6 O 0.1079(3) 0.1820(2) 0.74922(9)
N19_6 N 0.9402(2) 0.1893(2) 0.71186(8)
N26_6 N 0.9434(2) 0.1669(2) 0.78382(8)
N19_7 N 0.3098(2) 0.1893(2) 0.53814(8)
N20_7 N 0.1902(2) 0.3107(2) 0.46186(8)
N26_7 N 0.3066(2) 0.1669(2) 0.46618(8)
O4_4 O 0.3579(3) 0.3180(2) 0.49922(9)
O5_7 O 0.1421(3) 0.1820(2) 0.50078(9)
O1_7 O 0.8579(3) 0.8180(2) 0.49922(9)
C9_7 C 0.8750 0.8750 0.48758(14)
H8_7 H 0.8750 0.8750 0.4673
N18_7 N 0.6902(2) 0.8107(2) 0.46186(8)
N24_7 N 0.6934(2) 0.8331(2) 0.53382(8)
N25_7 N 0.8066(2) 0.6669(2) 0.46618(8)
O2_4 O 0.6421(3) 0.6820(2) 0.50078(9)
O3_4 O 0.8921(3) 0.9320(2) 0.49922(9)
O6_4 O 0.6079(3) 0.5680(2) 0.50078(9)
C36_4 C 0.6250 0.6250 0.51242(14)
H33_4 H 0.6250 0.6250 0.5327
O5_8 O 0.1079(3) 0.0680(2) 0.50078(9)
O1_8 O 0.3921(3) 0.4320(2) 0.49922(9)
C9_8 C 0.3750 0.3750 0.48758(14)
H8_8 H 0.3750 0.3750 0.4673
N18_8 N 0.5598(2) 0.4393(2) 0.46186(8)
N20_8 N 0.0598(2) 0.9393(2) 0.46186(8)
N24_8 N 0.5566(2) 0.4169(2) 0.53382(8)
N25_8 N 0.4434(2) 0.5831(2) 0.46618(8)
N19_8 N 0.9402(2) 0.0607(2) 0.53814(8)
N26_8 N 0.9434(2) 0.0831(2) 0.46618(8)
P1_3 P 0.50965(6) 0.1250 0.6250
P2_3 P 0.6250 0.23501(6) 0.6250
N1_3 N 0.55437(15) 0.19205(15) 0.61130(6)
N2_3 N 0.45326(18) 0.08900(16) 0.59953(6)
H1_3 H 0.4545 0.0422 0.5983
N3_3 N 0.66165(17) 0.28842(16) 0.59879(7)
C1_3 C 0.6242(2) 0.3308(2) 0.57757(8)
C2_3 C 0.4044(2) 0.12354(19) 0.57994(8)
C3_3 C 0.3853(2) 0.1973(2) 0.58179(9)
H2_3 H 0.4035 0.2259 0.5971
C4_3 C 0.3389(3) 0.2270(2) 0.56050(10)
H3_3 H 0.3270 0.2765 0.5618
C5_3 C 0.5211(3) 0.3592(3) 0.54482(10)
H4_3 H 0.4725 0.3474 0.5375
C6_3 C 0.3263(3) 0.1176(3) 0.53708(11)
H5_3 H 0.3057 0.0903 0.5218
C7_3 C 0.5516(3) 0.3155(2) 0.56641(10)
H6_3 H 0.5236 0.2759 0.5735
C8_3 C 0.3716(3) 0.0822(2) 0.55717(10)
H7_3 H 0.3805 0.0322 0.5558
C10_3 C 0.6628(3) 0.3900(3) 0.56515(14)
H9_3 H 0.7125 0.4019 0.5711
C11_3 C 0.6268(3) 0.4302(3) 0.54414(15)
H10_3 H 0.6535 0.4699 0.5365
H11_3 H 0.7098 0.3089 0.6021
P3_3 P 0.74035(6) 0.1250 0.6250
P4_3 P 0.6250 0.01499(6) 0.6250
N6_3 N 0.69563(15) 0.19205(15) 0.63870(6)
N7_3 N 0.69563(15) 0.05795(15) 0.61130(6)
N8_3 N 0.55437(15) 0.05795(15) 0.63870(6)
N9_3 N 0.45326(18) 0.16100(16) 0.65047(6)
N10_3 N 0.79674(18) 0.08900(16) 0.65047(6)
N11_3 N 0.79674(18) 0.16100(16) 0.59953(6)
H12_3 H 0.4545 0.2078 0.6517
H13_3 H 0.7955 0.0422 0.6517
H14_3 H 0.7955 0.2078 0.5983
N14_3 N 0.58835(17) 0.28842(16) 0.65121(7)
C14_3 C 0.6258(2) 0.3308(2) 0.67243(8)
C15_3 C 0.4044(2) 0.12646(19) 0.67006(8)
C16_3 C 0.8456(2) 0.12354(19) 0.67006(8)
C17_3 C 0.8456(2) 0.12646(19) 0.57994(8)
C18_3 C 0.3853(2) 0.0527(2) 0.66821(9)
C19_3 C 0.8647(2) 0.1973(2) 0.66821(9)
C20_3 C 0.8647(2) 0.0527(2) 0.58179(9)
H15_3 H 0.4035 0.0241 0.6529
H16_3 H 0.8465 0.2259 0.6529
H17_3 H 0.8465 0.0241 0.5971
C21_3 C 0.3389(3) 0.0230(2) 0.68950(10)
C22_3 C 0.9111(3) 0.2270(2) 0.68950(10)
C23_3 C 0.9111(3) 0.0230(2) 0.56050(10)
H19_3 H 0.9230 0.2765 0.6882
C26_3 C 0.7289(3) 0.3592(3) 0.70518(10)
H23_3 H 0.7775 0.3474 0.7125
C27_3 C 0.3263(3) 0.1324(3) 0.71292(11)
C28_3 C 0.9237(3) 0.1176(3) 0.71292(11)
C29_3 C 0.9237(3) 0.1324(3) 0.53708(11)
H24_3 H 0.3057 0.1597 0.7282
H25_3 H 0.9443 0.0903 0.7282
H26_3 H 0.9443 0.1597 0.5218
C32_3 C 0.6984(3) 0.3155(2) 0.68359(10)
H29_3 H 0.7264 0.2759 0.6765
C33_3 C 0.3716(3) 0.1678(2) 0.69283(10)
C34_3 C 0.8784(3) 0.0822(2) 0.69283(10)
C35_3 C 0.8784(3) 0.1678(2) 0.55717(10)
H30_3 H 0.3805 0.2178 0.6942
H31_3 H 0.8695 0.0322 0.6942
H32_3 H 0.8695 0.2178 0.5558
C36_5 C 0.1250 0.1250 0.73758(14)
H33_5 H 0.1250 0.1250 0.7173
C39_3 C 0.5872(3) 0.3900(3) 0.68485(14)
H36_3 H 0.5375 0.4019 0.6789
C42_3 C 0.6232(3) 0.4302(3) 0.70586(15)
H39_3 H 0.5965 0.4699 0.7135
H42_3 H 0.5402 0.3089 0.6479
N12_3 N 0.58835(17) 0.96158(16) 0.59879(7)
N13_3 N 0.66165(17) 0.96158(16) 0.65121(7)
C12_3 C 0.6258(2) 0.9192(2) 0.57757(8)
C13_3 C 0.6242(2) 0.9192(2) 0.67243(8)
H18_3 H 0.3270 0.9735 0.6882
H20_3 H 0.9230 0.9735 0.5618
C24_3 C 0.7289(3) 0.8908(3) 0.54482(10)
C25_3 C 0.5211(3) 0.8908(3) 0.70518(10)
H21_3 H 0.7775 0.9026 0.5375
H22_3 H 0.4725 0.9026 0.7125
C30_3 C 0.6984(3) 0.9345(2) 0.56641(10)
C31_3 C 0.5516(3) 0.9345(2) 0.68359(10)
H27_3 H 0.7264 0.9741 0.5735
H28_3 H 0.5236 0.9741 0.6765
C37_3 C 0.5872(3) 0.8600(3) 0.56515(14)
C38_3 C 0.6628(3) 0.8600(3) 0.68485(14)
H34_3 H 0.5375 0.8481 0.5711
H35_3 H 0.7125 0.8481 0.6789
C40_3 C 0.6232(3) 0.8198(3) 0.54414(15)
C41_3 C 0.6268(3) 0.8198(3) 0.70586(15)
H37_3 H 0.5965 0.7801 0.5365
H38_3 H 0.6535 0.7801 0.7135
H40_3 H 0.5402 0.9411 0.6021
H41_3 H 0.7098 0.9411 0.6479
C36_6 C 0.1250 0.1250 0.51242(14)
H33_6 H 0.1250 0.1250 0.5327
P1_4 P 0.50965(6) 0.6250 0.1250
P2_4 P 0.6250 0.73501(6) 0.1250
N1_4 N 0.55437(15) 0.69205(15) 0.11130(6)
N2_4 N 0.45326(18) 0.58900(16) 0.09953(6)
H1_4 H 0.4545 0.5422 0.0983
N3_4 N 0.66165(17) 0.78842(16) 0.09879(7)
C1_4 C 0.6242(2) 0.8308(2) 0.07757(8)
C2_4 C 0.4044(2) 0.62354(19) 0.07994(8)
C3_4 C 0.3853(2) 0.6973(2) 0.08179(9)
H2_4 H 0.4035 0.7259 0.0971
C4_4 C 0.3389(3) 0.7270(2) 0.06050(10)
H3_4 H 0.3270 0.7765 0.0618
C5_4 C 0.5211(3) 0.8592(3) 0.04482(10)
H4_4 H 0.4725 0.8474 0.0375
C6_4 C 0.3263(3) 0.6176(3) 0.03708(11)
H5_4 H 0.3057 0.5903 0.0218
C7_4 C 0.5516(3) 0.8155(2) 0.06641(10)
H6_4 H 0.5236 0.7759 0.0735
C8_4 C 0.3716(3) 0.5822(2) 0.05717(10)
H7_4 H 0.3805 0.5322 0.0558
C10_4 C 0.6628(3) 0.8900(3) 0.06515(14)
H9_4 H 0.7125 0.9019 0.0711
C11_4 C 0.6268(3) 0.9302(3) 0.04414(15)
H10_4 H 0.6535 0.9699 0.0365
H11_4 H 0.7098 0.8089 0.1021
P3_4 P 0.74035(6) 0.6250 0.1250
P4_4 P 0.6250 0.51499(6) 0.1250
N6_4 N 0.69563(15) 0.69205(15) 0.13870(6)
N7_4 N 0.69563(15) 0.55795(15) 0.11130(6)
N8_4 N 0.55437(15) 0.55795(15) 0.13870(6)
N9_4 N 0.45326(18) 0.66100(16) 0.15047(6)
N10_4 N 0.79674(18) 0.58900(16) 0.15047(6)
N11_4 N 0.79674(18) 0.66100(16) 0.09953(6)
H12_4 H 0.4545 0.7078 0.1517
H13_4 H 0.7955 0.5422 0.1517
H14_4 H 0.7955 0.7078 0.0983
N12_4 N 0.58835(17) 0.46158(16) 0.09879(7)
N13_4 N 0.66165(17) 0.46158(16) 0.15121(7)
N14_4 N 0.58835(17) 0.78842(16) 0.15121(7)
C12_4 C 0.6258(2) 0.4192(2) 0.07757(8)
C13_4 C 0.6242(2) 0.4192(2) 0.17243(8)
C14_4 C 0.6258(2) 0.8308(2) 0.17243(8)
C15_4 C 0.4044(2) 0.62646(19) 0.17006(8)
C16_4 C 0.8456(2) 0.62354(19) 0.17006(8)
C17_4 C 0.8456(2) 0.62646(19) 0.07994(8)
C18_4 C 0.3853(2) 0.5527(2) 0.16821(9)
C19_4 C 0.8647(2) 0.6973(2) 0.16821(9)
C20_4 C 0.8647(2) 0.5527(2) 0.08179(9)
H15_4 H 0.4035 0.5241 0.1529
H16_4 H 0.8465 0.7259 0.1529
H17_4 H 0.8465 0.5241 0.0971
C21_4 C 0.3389(3) 0.5230(2) 0.18950(10)
C22_4 C 0.9111(3) 0.7270(2) 0.18950(10)
C23_4 C 0.9111(3) 0.5230(2) 0.06050(10)
H18_4 H 0.3270 0.4735 0.1882
H19_4 H 0.9230 0.7765 0.1882
H20_4 H 0.9230 0.4735 0.0618
C24_4 C 0.7289(3) 0.3908(3) 0.04482(10)
C25_4 C 0.5211(3) 0.3908(3) 0.20518(10)
C26_4 C 0.7289(3) 0.8592(3) 0.20518(10)
H21_4 H 0.7775 0.4026 0.0375
H22_4 H 0.4725 0.4026 0.2125
H23_4 H 0.7775 0.8474 0.2125
C27_4 C 0.3263(3) 0.6324(3) 0.21292(11)
C28_4 C 0.9237(3) 0.6176(3) 0.21292(11)
C29_4 C 0.9237(3) 0.6324(3) 0.03708(11)
H24_4 H 0.3057 0.6597 0.2282
H25_4 H 0.9443 0.5903 0.2282
H26_4 H 0.9443 0.6597 0.0218
C30_4 C 0.6984(3) 0.4345(2) 0.06641(10)
C31_4 C 0.5516(3) 0.4345(2) 0.18359(10)
C32_4 C 0.6984(3) 0.8155(2) 0.18359(10)
H27_4 H 0.7264 0.4741 0.0735
H28_4 H 0.5236 0.4741 0.1765
H29_4 H 0.7264 0.7759 0.1765
C33_4 C 0.3716(3) 0.6678(2) 0.19283(10)
C34_4 C 0.8784(3) 0.5822(2) 0.19283(10)
C35_4 C 0.8784(3) 0.6678(2) 0.05717(10)
H30_4 H 0.3805 0.7178 0.1942
H31_4 H 0.8695 0.5322 0.1942
H32_4 H 0.8695 0.7178 0.0558
C36_7 C 0.1250 0.6250 0.23758(14)
H33_7 H 0.1250 0.6250 0.2173
C37_4 C 0.5872(3) 0.3600(3) 0.06515(14)
C38_4 C 0.6628(3) 0.3600(3) 0.18485(14)
C39_4 C 0.5872(3) 0.8900(3) 0.18485(14)
H34_4 H 0.5375 0.3481 0.0711
H35_4 H 0.7125 0.3481 0.1789
H36_4 H 0.5375 0.9019 0.1789
C40_4 C 0.6232(3) 0.3198(3) 0.04414(15)
C41_4 C 0.6268(3) 0.3198(3) 0.20586(15)
C42_4 C 0.6232(3) 0.9302(3) 0.20586(15)
H37_4 H 0.5965 0.2801 0.0365
H38_4 H 0.6535 0.2801 0.2135
H39_4 H 0.5965 0.9699 0.2135
H40_4 H 0.5402 0.4411 0.1021
H41_4 H 0.7098 0.4411 0.1479
H42_4 H 0.5402 0.8089 0.1479
C36_8 C 0.1250 0.6250 0.01242(14)
H33_8 H 0.1250 0.6250 0.0327
H18_5 H 0.1730 0.0265 0.8118
H22_5 H 0.0275 0.0974 0.7875
N2_5 N 0.04674(18) 0.91100(16) 0.90047(6)
H1_5 H 0.0455 0.9578 0.9017
C2_5 C 0.0956(2) 0.87646(19) 0.92006(8)
C3_5 C 0.1147(2) 0.8027(2) 0.91821(9)
H2_5 H 0.0965 0.7741 0.9029
C4_5 C 0.1611(3) 0.7730(2) 0.93950(10)
H3_5 H 0.1730 0.7235 0.9382
H4_5 H 0.0275 0.6526 0.9625
C6_5 C 0.1737(3) 0.8824(3) 0.96292(11)
H5_5 H 0.1943 0.9097 0.9782
C8_5 C 0.1284(3) 0.9178(2) 0.94283(10)
H7_5 H 0.1195 0.9678 0.9442
N9_5 N 0.04674(18) 0.83900(16) 0.84953(6)
H12_5 H 0.0455 0.7922 0.8483
C15_5 C 0.0956(2) 0.87354(19) 0.82994(8)
C18_5 C 0.1147(2) 0.9473(2) 0.83179(9)
H15_5 H 0.0965 0.9759 0.8471
C21_5 C 0.1611(3) 0.9770(2) 0.81050(10)
C27_5 C 0.1737(3) 0.8676(3) 0.78708(11)
H24_5 H 0.1943 0.8403 0.7718
C33_5 C 0.1284(3) 0.8322(2) 0.80717(10)
H30_5 H 0.1195 0.7822 0.8058
N12_5 N 0.91165(17) 0.03842(16) 0.90121(7)
N13_5 N 0.83835(17) 0.03842(16) 0.84879(7)
C12_5 C 0.8742(2) 0.0808(2) 0.92243(8)
C13_5 C 0.8758(2) 0.0808(2) 0.82757(8)
H20_5 H 0.5770 0.0265 0.9382
C24_5 C 0.7711(3) 0.1092(3) 0.95518(10)
C25_5 C 0.9789(3) 0.1092(3) 0.79482(10)
H21_5 H 0.7225 0.0974 0.9625
C30_5 C 0.8016(3) 0.0655(2) 0.93359(10)
C31_5 C 0.9484(3) 0.0655(2) 0.81641(10)
H27_5 H 0.7736 0.0259 0.9265
H28_5 H 0.9764 0.0259 0.8235
C37_5 C 0.9128(3) 0.1400(3) 0.93485(14)
C38_5 C 0.8372(3) 0.1400(3) 0.81515(14)
H34_5 H 0.9625 0.1519 0.9289
H35_5 H 0.7875 0.1519 0.8211
C40_5 C 0.8768(3) 0.1802(3) 0.95586(15)
C41_5 C 0.8732(3) 0.1802(3) 0.79414(15)
H37_5 H 0.9035 0.2199 0.9635
H38_5 H 0.8465 0.2199 0.7865
H40_5 H 0.9598 0.0589 0.8979
H41_5 H 0.7902 0.0589 0.8521
P1_5 P 0.99035(6) 0.8750 0.8750
P2_5 P 0.8750 0.76499(6) 0.8750
N1_5 N 0.94563(15) 0.80795(15) 0.88870(6)
N3_5 N 0.83835(17) 0.71158(16) 0.90121(7)
C1_5 C 0.8758(2) 0.6692(2) 0.92243(8)
C5_5 C 0.9789(3) 0.6408(3) 0.95518(10)
C7_5 C 0.9484(3) 0.6845(2) 0.93359(10)
H6_5 H 0.9764 0.7241 0.9265
C10_5 C 0.8372(3) 0.6100(3) 0.93485(14)
H9_5 H 0.7875 0.5981 0.9289
C11_5 C 0.8732(3) 0.5698(3) 0.95586(15)
H10_5 H 0.8465 0.5301 0.9635
H11_5 H 0.7902 0.6911 0.8979
P3_5 P 0.75965(6) 0.8750 0.8750
P4_5 P 0.8750 0.98501(6) 0.8750
N6_5 N 0.80437(15) 0.80795(15) 0.86130(6)
N7_5 N 0.80437(15) 0.94205(15) 0.88870(6)
N8_5 N 0.94563(15) 0.94205(15) 0.86130(6)
N10_5 N 0.70326(18) 0.91100(16) 0.84953(6)
N11_5 N 0.70326(18) 0.83900(16) 0.90047(6)
H13_5 H 0.7045 0.9578 0.8483
H14_5 H 0.7045 0.7922 0.9017
N14_5 N 0.91165(17) 0.71158(16) 0.84879(7)
C14_5 C 0.8742(2) 0.6692(2) 0.82757(8)
C16_5 C 0.6544(2) 0.87646(19) 0.82994(8)
C17_5 C 0.6544(2) 0.87354(19) 0.92006(8)
C19_5 C 0.6353(2) 0.8027(2) 0.83179(9)
C20_5 C 0.6353(2) 0.9473(2) 0.91821(9)
H16_5 H 0.6535 0.7741 0.8471
H17_5 H 0.6535 0.9759 0.9029
C22_5 C 0.5889(3) 0.7730(2) 0.81050(10)
C23_5 C 0.5889(3) 0.9770(2) 0.93950(10)
H19_5 H 0.5770 0.7235 0.8118
C26_5 C 0.7711(3) 0.6408(3) 0.79482(10)
H23_5 H 0.7225 0.6526 0.7875
C28_5 C 0.5763(3) 0.8824(3) 0.78708(11)
C29_5 C 0.5763(3) 0.8676(3) 0.96292(11)
H25_5 H 0.5557 0.9097 0.7718
H26_5 H 0.5557 0.8403 0.9782
C32_5 C 0.8016(3) 0.6845(2) 0.81641(10)
H29_5 H 0.7736 0.7241 0.8235
C34_5 C 0.6216(3) 0.9178(2) 0.80717(10)
C35_5 C 0.6216(3) 0.8322(2) 0.94283(10)
H31_5 H 0.6305 0.9678 0.8058
H32_5 H 0.6305 0.7822 0.9442
C39_5 C 0.9128(3) 0.6100(3) 0.81515(14)
H36_5 H 0.9625 0.5981 0.8211
C42_5 C 0.8768(3) 0.5698(3) 0.79414(15)
H39_5 H 0.9035 0.5301 0.7865
H42_5 H 0.9598 0.6911 0.8521
N2_6 N 0.04674(18) 0.41100(16) 0.40047(6)
H1_6 H 0.0455 0.4578 0.4017
C2_6 C 0.0956(2) 0.37646(19) 0.42006(8)
C3_6 C 0.1147(2) 0.3027(2) 0.41821(9)
H2_6 H 0.0965 0.2741 0.4029
C4_6 C 0.1611(3) 0.2730(2) 0.43950(10)
H3_6 H 0.1730 0.2235 0.4382
H4_6 H 0.0275 0.1526 0.4625
C6_6 C 0.1737(3) 0.3824(3) 0.46292(11)
H5_6 H 0.1943 0.4097 0.4782
C8_6 C 0.1284(3) 0.4178(2) 0.44283(10)
H7_6 H 0.1195 0.4678 0.4442
N9_6 N 0.04674(18) 0.33900(16) 0.34953(6)
H12_6 H 0.0455 0.2922 0.3483
C15_6 C 0.0956(2) 0.37354(19) 0.32994(8)
C18_6 C 0.1147(2) 0.4473(2) 0.33179(9)
H15_6 H 0.0965 0.4759 0.3471
C21_6 C 0.1611(3) 0.4770(2) 0.31050(10)
H18_6 H 0.1730 0.5265 0.3118
H22_6 H 0.0275 0.5974 0.2875
C27_6 C 0.1737(3) 0.3676(3) 0.28708(11)
H24_6 H 0.1943 0.3403 0.2718
C33_6 C 0.1284(3) 0.3322(2) 0.30717(10)
H30_6 H 0.1195 0.2822 0.3058
P1_6 P 0.99035(6) 0.3750 0.3750
P2_6 P 0.8750 0.26499(6) 0.3750
N1_6 N 0.94563(15) 0.30795(15) 0.38870(6)
N3_6 N 0.83835(17) 0.21158(16) 0.40121(7)
C1_6 C 0.8758(2) 0.1692(2) 0.42243(8)
C5_6 C 0.9789(3) 0.1408(3) 0.45518(10)
C7_6 C 0.9484(3) 0.1845(2) 0.43359(10)
H6_6 H 0.9764 0.2241 0.4265
C10_6 C 0.8372(3) 0.1100(3) 0.43485(14)
H9_6 H 0.7875 0.0981 0.4289
C11_6 C 0.8732(3) 0.0698(3) 0.45586(15)
H10_6 H 0.8465 0.0301 0.4635
H11_6 H 0.7902 0.1911 0.3979
P3_6 P 0.75965(6) 0.3750 0.3750
P4_6 P 0.8750 0.48501(6) 0.3750
N6_6 N 0.80437(15) 0.30795(15) 0.36130(6)
N7_6 N 0.80437(15) 0.44205(15) 0.38870(6)
N8_6 N 0.94563(15) 0.44205(15) 0.36130(6)
N10_6 N 0.70326(18) 0.41100(16) 0.34953(6)
N11_6 N 0.70326(18) 0.33900(16) 0.40047(6)
H13_6 H 0.7045 0.4578 0.3483
H14_6 H 0.7045 0.2922 0.4017
N12_6 N 0.91165(17) 0.53842(16) 0.40121(7)
N13_6 N 0.83835(17) 0.53842(16) 0.34879(7)
N14_6 N 0.91165(17) 0.21158(16) 0.34879(7)
C12_6 C 0.8742(2) 0.5808(2) 0.42243(8)
C13_6 C 0.8758(2) 0.5808(2) 0.32757(8)
C14_6 C 0.8742(2) 0.1692(2) 0.32757(8)
C16_6 C 0.6544(2) 0.37646(19) 0.32994(8)
C17_6 C 0.6544(2) 0.37354(19) 0.42006(8)
C19_6 C 0.6353(2) 0.3027(2) 0.33179(9)
C20_6 C 0.6353(2) 0.4473(2) 0.41821(9)
H16_6 H 0.6535 0.2741 0.3471
H17_6 H 0.6535 0.4759 0.4029
C22_6 C 0.5889(3) 0.2730(2) 0.31050(10)
C23_6 C 0.5889(3) 0.4770(2) 0.43950(10)
H19_6 H 0.5770 0.2235 0.3118
H20_6 H 0.5770 0.5265 0.4382
C24_6 C 0.7711(3) 0.6092(3) 0.45518(10)
C25_6 C 0.9789(3) 0.6092(3) 0.29482(10)
C26_6 C 0.7711(3) 0.1408(3) 0.29482(10)
H21_6 H 0.7225 0.5974 0.4625
H23_6 H 0.7225 0.1526 0.2875
C28_6 C 0.5763(3) 0.3824(3) 0.28708(11)
C29_6 C 0.5763(3) 0.3676(3) 0.46292(11)
H25_6 H 0.5557 0.4097 0.2718
H26_6 H 0.5557 0.3403 0.4782
C30_6 C 0.8016(3) 0.5655(2) 0.43359(10)
C31_6 C 0.9484(3) 0.5655(2) 0.31641(10)
C32_6 C 0.8016(3) 0.1845(2) 0.31641(10)
H27_6 H 0.7736 0.5259 0.4265
H28_6 H 0.9764 0.5259 0.3235
H29_6 H 0.7736 0.2241 0.3235
C34_6 C 0.6216(3) 0.4178(2) 0.30717(10)
C35_6 C 0.6216(3) 0.3322(2) 0.44283(10)
H31_6 H 0.6305 0.4678 0.3058
H32_6 H 0.6305 0.2822 0.4442
C37_6 C 0.9128(3) 0.6400(3) 0.43485(14)
C38_6 C 0.8372(3) 0.6400(3) 0.31515(14)
C39_6 C 0.9128(3) 0.1100(3) 0.31515(14)
H34_6 H 0.9625 0.6519 0.4289
H35_6 H 0.7875 0.6519 0.3211
H36_6 H 0.9625 0.0981 0.3211
C40_6 C 0.8768(3) 0.6802(3) 0.45586(15)
C41_6 C 0.8732(3) 0.6802(3) 0.29414(15)
C42_6 C 0.8768(3) 0.0698(3) 0.29414(15)
H37_6 H 0.9035 0.7199 0.4635
H38_6 H 0.8465 0.7199 0.2865
H39_6 H 0.9035 0.0301 0.2865
H40_6 H 0.9598 0.5589 0.3979
H41_6 H 0.7902 0.5589 0.3521
H42_6 H 0.9598 0.1911 0.3521
N12_7 N 0.41165(17) 0.03842(16) 0.40121(7)
N13_7 N 0.33835(17) 0.03842(16) 0.34879(7)
C12_7 C 0.3742(2) 0.0808(2) 0.42243(8)
C13_7 C 0.3758(2) 0.0808(2) 0.32757(8)
H18_7 H 0.6730 0.0265 0.3118
H20_7 H 0.0770 0.0265 0.4382
C24_7 C 0.2711(3) 0.1092(3) 0.45518(10)
C25_7 C 0.4789(3) 0.1092(3) 0.29482(10)
H21_7 H 0.2225 0.0974 0.4625
H22_7 H 0.5275 0.0974 0.2875
C30_7 C 0.3016(3) 0.0655(2) 0.43359(10)
C31_7 C 0.4484(3) 0.0655(2) 0.31641(10)
H27_7 H 0.2736 0.0259 0.4265
H28_7 H 0.4764 0.0259 0.3235
C37_7 C 0.4128(3) 0.1400(3) 0.43485(14)
C38_7 C 0.3372(3) 0.1400(3) 0.31515(14)
H34_7 H 0.4625 0.1519 0.4289
H35_7 H 0.2875 0.1519 0.3211
C40_7 C 0.3768(3) 0.1802(3) 0.45586(15)
C41_7 C 0.3732(3) 0.1802(3) 0.29414(15)
H37_7 H 0.4035 0.2199 0.4635
H38_7 H 0.3465 0.2199 0.2865
H40_7 H 0.4598 0.0589 0.3979
H41_7 H 0.2902 0.0589 0.3521
P1_7 P 0.49035(6) 0.8750 0.3750
P2_7 P 0.3750 0.76499(6) 0.3750
N1_7 N 0.44563(15) 0.80795(15) 0.38870(6)
N2_7 N 0.54674(18) 0.91100(16) 0.40047(6)
H1_7 H 0.5455 0.9578 0.4017
N3_7 N 0.33835(17) 0.71158(16) 0.40121(7)
C1_7 C 0.3758(2) 0.6692(2) 0.42243(8)
C2_7 C 0.5956(2) 0.87646(19) 0.42006(8)
C3_7 C 0.6147(2) 0.8027(2) 0.41821(9)
H2_7 H 0.5965 0.7741 0.4029
C4_7 C 0.6611(3) 0.7730(2) 0.43950(10)
H3_7 H 0.6730 0.7235 0.4382
C5_7 C 0.4789(3) 0.6408(3) 0.45518(10)
H4_7 H 0.5275 0.6526 0.4625
C6_7 C 0.6737(3) 0.8824(3) 0.46292(11)
H5_7 H 0.6943 0.9097 0.4782
C7_7 C 0.4484(3) 0.6845(2) 0.43359(10)
H6_7 H 0.4764 0.7241 0.4265
C8_7 C 0.6284(3) 0.9178(2) 0.44283(10)
H7_7 H 0.6195 0.9678 0.4442
C10_7 C 0.3372(3) 0.6100(3) 0.43485(14)
H9_7 H 0.2875 0.5981 0.4289
C11_7 C 0.3732(3) 0.5698(3) 0.45586(15)
H10_7 H 0.3465 0.5301 0.4635
H11_7 H 0.2902 0.6911 0.3979
P3_7 P 0.25965(6) 0.8750 0.3750
P4_7 P 0.3750 0.98501(6) 0.3750
N6_7 N 0.30437(15) 0.80795(15) 0.36130(6)
N7_7 N 0.30437(15) 0.94205(15) 0.38870(6)
N8_7 N 0.44563(15) 0.94205(15) 0.36130(6)
N9_7 N 0.54674(18) 0.83900(16) 0.34953(6)
N10_7 N 0.20326(18) 0.91100(16) 0.34953(6)
N11_7 N 0.20326(18) 0.83900(16) 0.40047(6)
H12_7 H 0.5455 0.7922 0.3483
H13_7 H 0.2045 0.9578 0.3483
H14_7 H 0.2045 0.7922 0.4017
N14_7 N 0.41165(17) 0.71158(16) 0.34879(7)
C14_7 C 0.3742(2) 0.6692(2) 0.32757(8)
C15_7 C 0.5956(2) 0.87354(19) 0.32994(8)
C16_7 C 0.1544(2) 0.87646(19) 0.32994(8)
C17_7 C 0.1544(2) 0.87354(19) 0.42006(8)
C18_7 C 0.6147(2) 0.9473(2) 0.33179(9)
C19_7 C 0.1353(2) 0.8027(2) 0.33179(9)
C20_7 C 0.1353(2) 0.9473(2) 0.41821(9)
H15_7 H 0.5965 0.9759 0.3471
H16_7 H 0.1535 0.7741 0.3471
H17_7 H 0.1535 0.9759 0.4029
C21_7 C 0.6611(3) 0.9770(2) 0.31050(10)
C22_7 C 0.0889(3) 0.7730(2) 0.31050(10)
C23_7 C 0.0889(3) 0.9770(2) 0.43950(10)
H19_7 H 0.0770 0.7235 0.3118
C26_7 C 0.2711(3) 0.6408(3) 0.29482(10)
H23_7 H 0.2225 0.6526 0.2875
C27_7 C 0.6737(3) 0.8676(3) 0.28708(11)
C28_7 C 0.0763(3) 0.8824(3) 0.28708(11)
C29_7 C 0.0763(3) 0.8676(3) 0.46292(11)
H24_7 H 0.6943 0.8403 0.2718
H25_7 H 0.0557 0.9097 0.2718
H26_7 H 0.0557 0.8403 0.4782
C32_7 C 0.3016(3) 0.6845(2) 0.31641(10)
H29_7 H 0.2736 0.7241 0.3235
C33_7 C 0.6284(3) 0.8322(2) 0.30717(10)
C34_7 C 0.1216(3) 0.9178(2) 0.30717(10)
C35_7 C 0.1216(3) 0.8322(2) 0.44283(10)
H30_7 H 0.6195 0.7822 0.3058
H31_7 H 0.1305 0.9678 0.3058
H32_7 H 0.1305 0.7822 0.4442
C39_7 C 0.4128(3) 0.6100(3) 0.31515(14)
H36_7 H 0.4625 0.5981 0.3211
C42_7 C 0.3768(3) 0.5698(3) 0.29414(15)
H39_7 H 0.4035 0.5301 0.2865
H42_7 H 0.4598 0.6911 0.3521
P1_8 P 0.49035(6) 0.3750 0.8750
P2_8 P 0.3750 0.26499(6) 0.8750
N1_8 N 0.44563(15) 0.30795(15) 0.88870(6)
N2_8 N 0.54674(18) 0.41100(16) 0.90047(6)
H1_8 H 0.5455 0.4578 0.9017
N3_8 N 0.33835(17) 0.21158(16) 0.90121(7)
C1_8 C 0.3758(2) 0.1692(2) 0.92243(8)
C2_8 C 0.5956(2) 0.37646(19) 0.92006(8)
C3_8 C 0.6147(2) 0.3027(2) 0.91821(9)
H2_8 H 0.5965 0.2741 0.9029
C4_8 C 0.6611(3) 0.2730(2) 0.93950(10)
H3_8 H 0.6730 0.2235 0.9382
C5_8 C 0.4789(3) 0.1408(3) 0.95518(10)
H4_8 H 0.5275 0.1526 0.9625
C6_8 C 0.6737(3) 0.3824(3) 0.96292(11)
H5_8 H 0.6943 0.4097 0.9782
C7_8 C 0.4484(3) 0.1845(2) 0.93359(10)
H6_8 H 0.4764 0.2241 0.9265
C8_8 C 0.6284(3) 0.4178(2) 0.94283(10)
H7_8 H 0.6195 0.4678 0.9442
C10_8 C 0.3372(3) 0.1100(3) 0.93485(14)
H9_8 H 0.2875 0.0981 0.9289
C11_8 C 0.3732(3) 0.0698(3) 0.95586(15)
H10_8 H 0.3465 0.0301 0.9635
H11_8 H 0.2902 0.1911 0.8979
P3_8 P 0.25965(6) 0.3750 0.8750
P4_8 P 0.3750 0.48501(6) 0.8750
N6_8 N 0.30437(15) 0.30795(15) 0.86130(6)
N7_8 N 0.30437(15) 0.44205(15) 0.88870(6)
N8_8 N 0.44563(15) 0.44205(15) 0.86130(6)
N9_8 N 0.54674(18) 0.33900(16) 0.84953(6)
N10_8 N 0.20326(18) 0.41100(16) 0.84953(6)
N11_8 N 0.20326(18) 0.33900(16) 0.90047(6)
H12_8 H 0.5455 0.2922 0.8483
H13_8 H 0.2045 0.4578 0.8483
H14_8 H 0.2045 0.2922 0.9017
N12_8 N 0.41165(17) 0.53842(16) 0.90121(7)
N13_8 N 0.33835(17) 0.53842(16) 0.84879(7)
N14_8 N 0.41165(17) 0.21158(16) 0.84879(7)
C12_8 C 0.3742(2) 0.5808(2) 0.92243(8)
C13_8 C 0.3758(2) 0.5808(2) 0.82757(8)
C14_8 C 0.3742(2) 0.1692(2) 0.82757(8)
C15_8 C 0.5956(2) 0.37354(19) 0.82994(8)
C16_8 C 0.1544(2) 0.37646(19) 0.82994(8)
C17_8 C 0.1544(2) 0.37354(19) 0.92006(8)
C18_8 C 0.6147(2) 0.4473(2) 0.83179(9)
C19_8 C 0.1353(2) 0.3027(2) 0.83179(9)
C20_8 C 0.1353(2) 0.4473(2) 0.91821(9)
H15_8 H 0.5965 0.4759 0.8471
H16_8 H 0.1535 0.2741 0.8471
H17_8 H 0.1535 0.4759 0.9029
C21_8 C 0.6611(3) 0.4770(2) 0.81050(10)
C22_8 C 0.0889(3) 0.2730(2) 0.81050(10)
C23_8 C 0.0889(3) 0.4770(2) 0.93950(10)
H18_8 H 0.6730 0.5265 0.8118
H19_8 H 0.0770 0.2235 0.8118
H20_8 H 0.0770 0.5265 0.9382
C24_8 C 0.2711(3) 0.6092(3) 0.95518(10)
C25_8 C 0.4789(3) 0.6092(3) 0.79482(10)
C26_8 C 0.2711(3) 0.1408(3) 0.79482(10)
H21_8 H 0.2225 0.5974 0.9625
H22_8 H 0.5275 0.5974 0.7875
H23_8 H 0.2225 0.1526 0.7875
C27_8 C 0.6737(3) 0.3676(3) 0.78708(11)
C28_8 C 0.0763(3) 0.3824(3) 0.78708(11)
C29_8 C 0.0763(3) 0.3676(3) 0.96292(11)
H24_8 H 0.6943 0.3403 0.7718
H25_8 H 0.0557 0.4097 0.7718
H26_8 H 0.0557 0.3403 0.9782
C30_8 C 0.3016(3) 0.5655(2) 0.93359(10)
C31_8 C 0.4484(3) 0.5655(2) 0.81641(10)
C32_8 C 0.3016(3) 0.1845(2) 0.81641(10)
H27_8 H 0.2736 0.5259 0.9265
H28_8 H 0.4764 0.5259 0.8235
H29_8 H 0.2736 0.2241 0.8235
C33_8 C 0.6284(3) 0.3322(2) 0.80717(10)
C34_8 C 0.1216(3) 0.4178(2) 0.80717(10)
C35_8 C 0.1216(3) 0.3322(2) 0.94283(10)
H30_8 H 0.6195 0.2822 0.8058
H31_8 H 0.1305 0.4678 0.8058
H32_8 H 0.1305 0.2822 0.9442
C37_8 C 0.4128(3) 0.6400(3) 0.93485(14)
C38_8 C 0.3372(3) 0.6400(3) 0.81515(14)
C39_8 C 0.4128(3) 0.1100(3) 0.81515(14)
H34_8 H 0.4625 0.6519 0.9289
H35_8 H 0.2875 0.6519 0.8211
H36_8 H 0.4625 0.0981 0.8211
C40_8 C 0.3768(3) 0.6802(3) 0.95586(15)
C41_8 C 0.3732(3) 0.6802(3) 0.79414(15)
C42_8 C 0.3768(3) 0.0698(3) 0.79414(15)
H37_8 H 0.4035 0.7199 0.9635
H38_8 H 0.3465 0.7199 0.7865
H39_8 H 0.4035 0.0301 0.7865
H40_8 H 0.4598 0.5589 0.8979
H41_8 H 0.2902 0.5589 0.8521
H42_8 H 0.4598 0.1911 0.8521
Cl1 Cl 0.3750 0.8750 0.13591(5)
O7 O 0.3046(5) 0.8331(6) 0.1298(3)
O8 O 0.3996(8) 0.8137(6) 0.1517(3)
O9 O 0.4454(5) 0.9169(6) 0.1298(3)
O10 O 0.3504(8) 0.9363(6) 0.1517(3)
Cl1_2 Cl 0.8750 0.3750 0.13591(5)
O7_2 O 0.9454(5) 0.4169(6) 0.1298(3)
O8_2 O 0.8504(8) 0.4363(6) 0.1517(3)
O9_2 O 0.8046(5) 0.3331(6) 0.1298(3)
O10_2 O 0.8996(8) 0.3137(6) 0.1517(3)
Cl1_3 Cl 0.3750 0.3750 0.11409(5)
O7_3 O 0.3046(5) 0.4169(6) 0.1202(3)
O8_3 O 0.3996(8) 0.4363(6) 0.0983(3)
O9_3 O 0.4454(5) 0.3331(6) 0.1202(3)
O10_3 O 0.3504(8) 0.3137(6) 0.0983(3)
Cl1_4 Cl 0.8750 0.8750 0.11409(5)
O7_4 O 0.9454(5) 0.8331(6) 0.1202(3)
O8_4 O 0.8504(8) 0.8137(6) 0.0983(3)
O9_4 O 0.8046(5) 0.9169(6) 0.1202(3)
O10_4 O 0.8996(8) 0.9363(6) 0.0983(3)
Cl1_5 Cl 0.3750 0.3750 0.63591(5)
O7_5 O 0.3046(5) 0.3331(6) 0.6298(3)
O8_5 O 0.3996(8) 0.3137(6) 0.6517(3)
O9_5 O 0.4454(5) 0.4169(6) 0.6298(3)
O10_5 O 0.3504(8) 0.4363(6) 0.6517(3)
Cl1_6 Cl 0.8750 0.8750 0.63591(5)
O7_6 O 0.9454(5) 0.9169(6) 0.6298(3)
O8_6 O 0.8504(8) 0.9363(6) 0.6517(3)
O9_6 O 0.8046(5) 0.8331(6) 0.6298(3)
O10_6 O 0.8996(8) 0.8137(6) 0.6517(3)
Cl1_7 Cl 0.3750 0.8750 0.61409(5)
O7_7 O 0.3046(5) 0.9169(6) 0.6202(3)
O8_7 O 0.3996(8) 0.9363(6) 0.5983(3)
O9_7 O 0.4454(5) 0.8331(6) 0.6202(3)
O10_7 O 0.3504(8) 0.8137(6) 0.5983(3)
Cl1_8 Cl 0.8750 0.3750 0.61409(5)
O7_8 O 0.9454(5) 0.3331(6) 0.6202(3)
O8_8 O 0.8504(8) 0.3137(6) 0.5983(3)
O9_8 O 0.8046(5) 0.4169(6) 0.6202(3)
O10_8 O 0.8996(8) 0.4363(6) 0.5983(3)
Cl1_9 Cl 0.6250 0.1250 0.86409(5)
O7_9 O 0.6954(5) 0.1669(6) 0.8702(3)
O8_9 O 0.6004(8) 0.1863(6) 0.8483(3)
O9_9 O 0.5546(5) 0.0831(6) 0.8702(3)
O10_9 O 0.6496(8) 0.0637(6) 0.8483(3)
Cl1_10 Cl 0.1250 0.6250 0.86409(5)
O7_10 O 0.0546(5) 0.5831(6) 0.8702(3)
O8_10 O 0.1496(8) 0.5637(6) 0.8483(3)
O9_10 O 0.1954(5) 0.6669(6) 0.8702(3)
O10_10 O 0.1004(8) 0.6863(6) 0.8483(3)
Cl1_11 Cl 0.6250 0.6250 0.88591(5)
O7_11 O 0.6954(5) 0.5831(6) 0.8798(3)
O8_11 O 0.6004(8) 0.5637(6) 0.9017(3)
O9_11 O 0.5546(5) 0.6669(6) 0.8798(3)
O10_11 O 0.6496(8) 0.6863(6) 0.9017(3)
Cl1_12 Cl 0.1250 0.1250 0.88591(5)
O7_12 O 0.0546(5) 0.1669(6) 0.8798(3)
O8_12 O 0.1496(8) 0.1863(6) 0.9017(3)
O9_12 O 0.1954(5) 0.0831(6) 0.8798(3)
O10_12 O 0.1004(8) 0.0637(6) 0.9017(3)
Cl1_13 Cl 0.6250 0.6250 0.36409(5)
O7_13 O 0.6954(5) 0.6669(6) 0.3702(3)
O8_13 O 0.6004(8) 0.6863(6) 0.3483(3)
O9_13 O 0.5546(5) 0.5831(6) 0.3702(3)
O10_13 O 0.6496(8) 0.5637(6) 0.3483(3)
Cl1_14 Cl 0.1250 0.1250 0.36409(5)
O7_14 O 0.0546(5) 0.0831(6) 0.3702(3)
O8_14 O 0.1496(8) 0.0637(6) 0.3483(3)
O9_14 O 0.1954(5) 0.1669(6) 0.3702(3)
O10_14 O 0.1004(8) 0.1863(6) 0.3483(3)
Cl1_15 Cl 0.6250 0.1250 0.38591(5)
O7_15 O 0.6954(5) 0.0831(6) 0.3798(3)
O8_15 O 0.6004(8) 0.0637(6) 0.4017(3)
O9_15 O 0.5546(5) 0.1669(6) 0.3798(3)
O10_15 O 0.6496(8) 0.1863(6) 0.4017(3)
Cl1_16 Cl 0.1250 0.6250 0.38591(5)
O7_16 O 0.0546(5) 0.6669(6) 0.3798(3)
O8_16 O 0.1496(8) 0.6863(6) 0.4017(3)
O9_16 O 0.1954(5) 0.5831(6) 0.3798(3)
O10_16 O 0.1004(8) 0.5637(6) 0.4017(3)
loop_
_geom_bond_atom_site_label_1
_geom_bond_atom_site_label_2
_geom_bond_site_symmetry_1
_geom_bond_site_symmetry_2
P1 N1 1_555 1_555
P2 N1 1_555 1_555
N3 P2 1_555 1_555
N5 C5 1_555 1_555
C1 N3 1_555 1_555
C7 C1 1_555 1_555
H6 C7 1_555 1_555
C10 C1 1_555 1_555
H9 C10 1_555 1_555
C11 N5 1_555 1_555
H10 C11 1_555 1_555
H11 N3 1_555 1_555
Cd3 N5 1_555 1_555
Cd6 N16 1_555 1_555
Cd7 N17 1_555 1_555
Cd8 N19 1_555 1_555
P3 N6 1_555 1_555
P4 N7 1_555 1_555
N6 P2 1_555 1_555
N7 P3 1_555 1_555
N8 P1 1_555 1_555
N10 P3 1_555 1_555
N11 P3 1_555 1_555
H13 N10 1_555 1_555
H14 N11 1_555 1_555
N14 P2 1_555 1_555
N16 C22 1_555 1_555
N17 C23 1_555 1_555
N20 Cd8 1_555 1_555
N23 Cd8 1_555 1_555
N26 Cd8 1_555 1_555
O4 Cd8 1_555 1_555
O5 Cd8 1_555 1_555
C14 N14 1_555 1_555
C16 N10 1_555 1_555
C17 N11 1_555 1_555
C19 C16 1_555 1_555
C20 C17 1_555 1_555
H16 C19 1_555 1_555
H17 C20 1_555 1_555
C22 C19 1_555 1_555
C23 C20 1_555 1_555
H19 C22 1_555 1_555
C26 N23 1_555 1_555
H23 C26 1_555 1_555
C28 N16 1_555 1_555
C29 N17 1_555 1_555
H25 C28 1_555 1_555
H26 C29 1_555 1_555
C32 C14 1_555 1_555
H29 C32 1_555 1_555
C34 C16 1_555 1_555
C35 C17 1_555 1_555
H31 C34 1_555 1_555
H32 C35 1_555 1_555
C39 C14 1_555 1_555
H36 C39 1_555 1_555
C42 N23 1_555 1_555
H39 C42 1_555 1_555
H42 N14 1_555 1_555
C5 C7 1_555 1_555
C10 C11 1_555 1_555
P4 N8 1_555 1_555
C26 C32 1_555 1_555
C28 C34 1_555 1_555
C29 C35 1_555 1_555
C39 C42 1_555 1_555
Cd4 N21 1_555 1_555
Cd5 N22 1_555 1_555
N21 C24 1_555 1_555
N22 C25 1_555 1_555
C12 N12 1_555 1_555
C13 N13 1_555 1_555
C24 H21 1_555 1_555
C30 C12 1_555 1_555
C31 C13 1_555 1_555
H27 C30 1_555 1_555
H28 C31 1_555 1_555
C37 C12 1_555 1_555
C38 C13 1_555 1_555
H34 C37 1_555 1_555
H35 C38 1_555 1_555
C40 N21 1_555 1_555
C41 N22 1_555 1_555
H37 C40 1_555 1_555
H38 C41 1_555 1_555
H40 N12 1_555 1_555
H41 N13 1_555 1_555
C24 C30 1_555 1_555
C25 C31 1_555 1_555
C37 C40 1_555 1_555
C38 C41 1_555 1_555
H1 N2 1_555 1_555
N4 C4 1_555 1_555
C2 N2 1_555 1_555
C3 C2 1_555 1_555
H2 C3 1_555 1_555
C4 C3 1_555 1_555
H3 C4 1_555 1_555
C6 N4 1_555 1_555
H5 C6 1_555 1_555
C8 C2 1_555 1_555
H7 C8 1_555 1_555
Cd2 N4 1_555 1_555
Cd6 O6 1_555 1_555
H12 N9 1_555 1_555
N15 Cd1 1_555 1_555
N25 Cd1 1_555 1_555
O2 Cd1 1_555 1_555
O6 C36 1_555 1_555
C15 N9 1_555 1_555
C18 C15 1_555 1_555
H15 C18 1_555 1_555
C21 N15 1_555 1_555
C27 N15 1_555 1_555
H24 C27 1_555 1_555
C33 C15 1_555 1_555
H30 C33 1_555 1_555
C36 O2 1_555 1_555
H33 C36 1_555 1_555
C6 C8 1_555 1_555
C18 C21 1_555 1_555
C27 C33 1_555 1_555
Cd1_2 O1 1_555 1_555
O1 C9 1_555 1_555
C9 H8 1_555 1_555
N18 Cd1_2 1_555 1_555
N24 Cd1_2 1_555 1_555
O3 C9 1_555 1_555
Cd5_2 O3 1_555 1_555
Cd6 O1_2 1_555 1_555
O1_2 C9_2 1_555 1_555
C9_2 H8_2 1_555 1_555
N18_2 Cd6 1_555 1_555
N24_2 Cd6 1_555 1_555
N25_2 Cd6 1_555 1_555
O4 C9_2 1_555 1_555
N20_2 Cd5 1_555 1_555
O5_2 Cd5 1_555 1_555
Cd5_2 N19_2 1_555 1_555
N26_2 Cd5_2 1_555 1_555
Cd4 N19_3 1_555 1_555
O5_3 Cd4 1_555 1_555
N20_3 Cd4_2 1_555 1_555
N26_3 Cd4_2 1_555 1_555
O4_2 Cd4_2 1_555 1_555
Cd7 O6_2 1_555 1_555
N24_3 Cd2 1_555 1_555
O2_2 Cd2 1_555 1_555
O6_2 C36_2 1_555 1_555
C36_2 O2_2 1_555 1_555
H33_2 C36_2 1_555 1_555
Cd2_2 O1_3 1_555 1_555
O1_3 C9_3 1_555 1_555
C9_3 H8_3 1_555 1_555
N18_3 Cd2_2 1_555 1_555
N25_3 Cd2_2 1_555 1_555
O3_2 C9_3 1_555 1_555
Cd3_4 O3_2 1_555 1_555
O5_4 Cd3 1_555 1_555
N20_4 Cd3_2 1_555 1_555
N25_4 Cd7_2 1_555 1_555
N24_4 Cd7_3 1_555 1_555
Cd7_4 O1_4 1_555 1_555
O1_4 C9_4 1_555 1_555
C9_4 H8_4 1_555 1_555
N18_4 Cd7_4 1_555 1_555
O4_2 C9_4 1_555 1_555
Cd3_3 N19_4 1_555 1_555
N26_4 Cd3_4 1_555 1_555
Cd8_2 N19_5 1_555 1_555
N26_5 Cd8_2 1_555 1_555
O5_5 Cd8_2 1_555 1_555
P1_2 N1_2 1_555 1_555
P2_2 N1_2 1_555 1_555
N3_2 P2_2 1_555 1_555
N5_2 C5_2 1_555 1_555
C1_2 N3_2 1_555 1_555
C7_2 C1_2 1_555 1_555
H6_2 C7_2 1_555 1_555
C10_2 C1_2 1_555 1_555
H9_2 C10_2 1_555 1_555
C11_2 N5_2 1_555 1_555
H10_2 C11_2 1_555 1_555
H11_2 N3_2 1_555 1_555
Cd3_6 N5_2 1_555 1_555
Cd4_3 N21_2 1_555 1_555
Cd5_3 N22_2 1_555 1_555
Cd6_2 N16_2 1_555 1_555
Cd7_5 N17_2 1_555 1_555
P3_2 N6_2 1_555 1_555
P4_2 N7_2 1_555 1_555
N6_2 P2_2 1_555 1_555
N7_2 P3_2 1_555 1_555
N8_2 P1_2 1_555 1_555
N10_2 P3_2 1_555 1_555
N11_2 P3_2 1_555 1_555
H13_2 N10_2 1_555 1_555
H14_2 N11_2 1_555 1_555
N12_2 P4_2 1_555 1_555
N13_2 P4_2 1_555 1_555
N14_2 P2_2 1_555 1_555
N16_2 C22_2 1_555 1_555
N17_2 C23_2 1_555 1_555
N20_5 Cd8_3 1_555 1_555
N21_2 C24_2 1_555 1_555
N22_2 C25_2 1_555 1_555
N23_2 Cd8_3 1_555 1_555
O4_3 Cd8_3 1_555 1_555
C12_2 N12_2 1_555 1_555
C13_2 N13_2 1_555 1_555
C14_2 N14_2 1_555 1_555
C16_2 N10_2 1_555 1_555
C17_2 N11_2 1_555 1_555
C19_2 C16_2 1_555 1_555
C20_2 C17_2 1_555 1_555
H16_2 C19_2 1_555 1_555
H17_2 C20_2 1_555 1_555
C22_2 C19_2 1_555 1_555
C23_2 C20_2 1_555 1_555
H19_2 C22_2 1_555 1_555
H20_2 C23_2 1_555 1_555
C24_2 H21_2 1_555 1_555
C26_2 N23_2 1_555 1_555
H23_2 C26_2 1_555 1_555
C28_2 N16_2 1_555 1_555
C29_2 N17_2 1_555 1_555
H25_2 C28_2 1_555 1_555
H26_2 C29_2 1_555 1_555
C30_2 C12_2 1_555 1_555
C31_2 C13_2 1_555 1_555
C32_2 C14_2 1_555 1_555
H27_2 C30_2 1_555 1_555
H28_2 C31_2 1_555 1_555
H29_2 C32_2 1_555 1_555
C34_2 C16_2 1_555 1_555
C35_2 C17_2 1_555 1_555
H31_2 C34_2 1_555 1_555
H32_2 C35_2 1_555 1_555
C37_2 C12_2 1_555 1_555
C38_2 C13_2 1_555 1_555
C39_2 C14_2 1_555 1_555
H34_2 C37_2 1_555 1_555
H35_2 C38_2 1_555 1_555
H36_2 C39_2 1_555 1_555
C40_2 N21_2 1_555 1_555
C41_2 N22_2 1_555 1_555
C42_2 N23_2 1_555 1_555
H37_2 C40_2 1_555 1_555
H38_2 C41_2 1_555 1_555
H39_2 C42_2 1_555 1_555
H40_2 N12_2 1_555 1_555
H41_2 N13_2 1_555 1_555
H42_2 N14_2 1_555 1_555
C5_2 C7_2 1_555 1_555
C10_2 C11_2 1_555 1_555
P4_2 N8_2 1_555 1_555
C24_2 C30_2 1_555 1_555
C25_2 C31_2 1_555 1_555
C26_2 C32_2 1_555 1_555
C28_2 C34_2 1_555 1_555
C29_2 C35_2 1_555 1_555
C37_2 C40_2 1_555 1_555
C38_2 C41_2 1_555 1_555
C39_2 C42_2 1_555 1_555
Cd1_3 O1_5 1_555 1_555
H1_2 N2_2 1_555 1_555
N4_2 C4_2 1_555 1_555
O1_5 C9_5 1_555 1_555
C2_2 N2_2 1_555 1_555
C3_2 C2_2 1_555 1_555
H2_2 C3_2 1_555 1_555
C4_2 C3_2 1_555 1_555
H3_2 C4_2 1_555 1_555
C6_2 N4_2 1_555 1_555
H5_2 C6_2 1_555 1_555
C8_2 C2_2 1_555 1_555
H7_2 C8_2 1_555 1_555
C9_5 H8_5 1_555 1_555
Cd2_3 N4_2 1_555 1_555
Cd6_2 O6_3 1_555 1_555
H12_2 N9_2 1_555 1_555
N15_2 Cd1_3 1_555 1_555
N18_5 Cd1_3 1_555 1_555
N24_5 Cd1_3 1_555 1_555
N25_5 Cd1_3 1_555 1_555
O2_3 Cd1_3 1_555 1_555
O3_3 C9_5 1_555 1_555
O6_3 C36_3 1_555 1_555
C15_2 N9_2 1_555 1_555
C18_2 C15_2 1_555 1_555
H15_2 C18_2 1_555 1_555
C21_2 N15_2 1_555 1_555
H18_2 C21_2 1_555 1_555
C27_2 N15_2 1_555 1_555
H24_2 C27_2 1_555 1_555
C33_2 C15_2 1_555 1_555
H30_2 C33_2 1_555 1_555
C36_3 O2_3 1_555 1_555
H33_3 C36_3 1_555 1_555
C6_2 C8_2 1_555 1_555
Cd5_4 O3_3 1_555 1_555
C18_2 C21_2 1_555 1_555
C27_2 C33_2 1_555 1_555
Cd6_2 O1_6 1_555 1_555
O1_6 C9_6 1_555 1_555
C9_6 H8_6 1_555 1_555
N18_6 Cd6_2 1_555 1_555
N20_6 Cd5_3 1_555 1_555
N24_6 Cd6_2 1_555 1_555
N25_6 Cd6_2 1_555 1_555
O4_3 C9_6 1_555 1_555
O5_6 Cd5_3 1_555 1_555
Cd5_4 N19_6 1_555 1_555
N26_6 Cd5_4 1_555 1_555
Cd4_3 N19_7 1_555 1_555
N20_7 Cd4_3 1_555 1_555
N26_7 Cd4_3 1_555 1_555
O4_4 Cd4_3 1_555 1_555
O5_7 Cd4_3 1_555 1_555
Cd2_3 O1_7 1_555 1_555
O1_7 C9_7 1_555 1_555
C9_7 H8_7 1_555 1_555
Cd7_5 O6_4 1_555 1_555
N18_7 Cd2_3 1_555 1_555
N24_7 Cd2_3 1_555 1_555
N25_7 Cd2_3 1_555 1_555
O2_4 Cd2_3 1_555 1_555
O3_4 C9_7 1_555 1_555
O6_4 C36_4 1_555 1_555
C36_4 O2_4 1_555 1_555
H33_4 C36_4 1_555 1_555
Cd3_8 O3_4 1_555 1_555
O5_8 Cd3_5 1_555 1_555
Cd7_5 O1_8 1_555 1_555
O1_8 C9_8 1_555 1_555
C9_8 H8_8 1_555 1_555
N18_8 Cd7_5 1_555 1_555
N20_8 Cd3_6 1_555 1_555
N24_8 Cd7_5 1_555 1_555
N25_8 Cd7_5 1_555 1_555
O4_4 C9_8 1_555 1_555
Cd3_7 N19_8 1_555 1_555
N26_8 Cd3_7 1_555 1_555
P1_3 N1_3 1_555 1_555
P2_3 N1_3 1_555 1_555
N2_3 P1_3 1_555 1_555
H1_3 N2_3 1_555 1_555
N3_3 P2_3 1_555 1_555
N19_7 C4_3 1_555 1_555
N24_8 C5_3 1_555 1_555
C1_3 N3_3 1_555 1_555
C2_3 N2_3 1_555 1_555
C3_3 C2_3 1_555 1_555
H2_3 C3_3 1_555 1_555
C4_3 C3_3 1_555 1_555
H3_3 C4_3 1_555 1_555
C5_3 H4_3 1_555 1_555
C6_3 N19_7 1_555 1_555
H5_3 C6_3 1_555 1_555
C7_3 C1_3 1_555 1_555
H6_3 C7_3 1_555 1_555
C8_3 C2_3 1_555 1_555
H7_3 C8_3 1_555 1_555
C10_3 C1_3 1_555 1_555
H9_3 C10_3 1_555 1_555
C11_3 N24_8 1_555 1_555
H10_3 C11_3 1_555 1_555
H11_3 N3_3 1_555 1_555
P3_3 N6_3 1_555 1_555
P4_3 N7_3 1_555 1_555
N6_3 P2_3 1_555 1_555
N7_3 P3_3 1_555 1_555
N8_3 P1_3 1_555 1_555
N9_3 P1_3 1_555 1_555
N10_3 P3_3 1_555 1_555
N11_3 P3_3 1_555 1_555
H12_3 N9_3 1_555 1_555
H13_3 N10_3 1_555 1_555
H14_3 N11_3 1_555 1_555
N14_3 P2_3 1_555 1_555
N19_6 C22_3 1_555 1_555
N19_8 C23_3 1_555 1_555
O5_6 C36_5 1_555 1_555
C14_3 N14_3 1_555 1_555
C15_3 N9_3 1_555 1_555
C16_3 N10_3 1_555 1_555
C17_3 N11_3 1_555 1_555
C18_3 C15_3 1_555 1_555
C19_3 C16_3 1_555 1_555
C20_3 C17_3 1_555 1_555
H15_3 C18_3 1_555 1_555
H16_3 C19_3 1_555 1_555
H17_3 C20_3 1_555 1_555
C21_3 N19_5 1_555 1_555
C22_3 C19_3 1_555 1_555
C23_3 C20_3 1_555 1_555
H19_3 C22_3 1_555 1_555
C26_3 N24_5 1_555 1_555
H23_3 C26_3 1_555 1_555
C27_3 N19_5 1_555 1_555
C28_3 N19_6 1_555 1_555
C29_3 N19_8 1_555 1_555
H24_3 C27_3 1_555 1_555
H25_3 C28_3 1_555 1_555
H26_3 C29_3 1_555 1_555
C32_3 C14_3 1_555 1_555
H29_3 C32_3 1_555 1_555
C33_3 C15_3 1_555 1_555
C34_3 C16_3 1_555 1_555
C35_3 C17_3 1_555 1_555
H30_3 C33_3 1_555 1_555
H31_3 C34_3 1_555 1_555
H32_3 C35_3 1_555 1_555
C36_5 O5_5 1_555 1_555
H33_5 C36_5 1_555 1_555
C39_3 C14_3 1_555 1_555
H36_3 C39_3 1_555 1_555
C42_3 N24_5 1_555 1_555
H39_3 C42_3 1_555 1_555
H42_3 N14_3 1_555 1_555
C5_3 C7_3 1_555 1_555
C6_3 C8_3 1_555 1_555
C10_3 C11_3 1_555 1_555
P4_3 N8_3 1_555 1_555
C18_3 C21_3 1_555 1_555
C26_3 C32_3 1_555 1_555
C27_3 C33_3 1_555 1_555
C28_3 C34_3 1_555 1_555
C29_3 C35_3 1_555 1_555
C39_3 C42_3 1_555 1_555
N24_7 C24_3 1_555 1_555
N24_6 C25_3 1_555 1_555
C12_3 N12_3 1_555 1_555
C13_3 N13_3 1_555 1_555
C24_3 H21_3 1_555 1_555
C25_3 H22_3 1_555 1_555
C30_3 C12_3 1_555 1_555
C31_3 C13_3 1_555 1_555
H27_3 C30_3 1_555 1_555
H28_3 C31_3 1_555 1_555
C37_3 C12_3 1_555 1_555
C38_3 C13_3 1_555 1_555
H34_3 C37_3 1_555 1_555
H35_3 C38_3 1_555 1_555
C40_3 N24_7 1_555 1_555
C41_3 N24_6 1_555 1_555
H37_3 C40_3 1_555 1_555
H38_3 C41_3 1_555 1_555
H40_3 N12_3 1_555 1_555
H41_3 N13_3 1_555 1_555
C24_3 C30_3 1_555 1_555
C25_3 C31_3 1_555 1_555
C37_3 C40_3 1_555 1_555
C38_3 C41_3 1_555 1_555
O5_8 C36_6 1_555 1_555
C36_6 O5_7 1_555 1_555
H33_6 C36_6 1_555 1_555
P1_4 N1_4 1_555 1_555
P2_4 N1_4 1_555 1_555
N2_4 P1_4 1_555 1_555
H1_4 N2_4 1_555 1_555
N3_4 P2_4 1_555 1_555
N19_3 C4_4 1_555 1_555
N24_4 C5_4 1_555 1_555
C1_4 N3_4 1_555 1_555
C2_4 N2_4 1_555 1_555
C3_4 C2_4 1_555 1_555
H2_4 C3_4 1_555 1_555
C4_4 C3_4 1_555 1_555
H3_4 C4_4 1_555 1_555
C5_4 H4_4 1_555 1_555
C6_4 N19_3 1_555 1_555
H5_4 C6_4 1_555 1_555
C7_4 C1_4 1_555 1_555
H6_4 C7_4 1_555 1_555
C8_4 C2_4 1_555 1_555
H7_4 C8_4 1_555 1_555
C10_4 C1_4 1_555 1_555
H9_4 C10_4 1_555 1_555
C11_4 N24_4 1_555 1_555
H10_4 C11_4 1_555 1_555
H11_4 N3_4 1_555 1_555
P3_4 N6_4 1_555 1_555
P4_4 N7_4 1_555 1_555
N6_4 P2_4 1_555 1_555
N7_4 P3_4 1_555 1_555
N8_4 P1_4 1_555 1_555
N9_4 P1_4 1_555 1_555
N10_4 P3_4 1_555 1_555
N11_4 P3_4 1_555 1_555
H12_4 N9_4 1_555 1_555
H13_4 N10_4 1_555 1_555
H14_4 N11_4 1_555 1_555
N12_4 P4_4 1_555 1_555
N13_4 P4_4 1_555 1_555
N14_4 P2_4 1_555 1_555
N19_2 C22_4 1_555 1_555
N19_4 C23_4 1_555 1_555
N24_3 C24_4 1_555 1_555
N24_2 C25_4 1_555 1_555
O5_2 C36_7 1_555 1_555
C12_4 N12_4 1_555 1_555
C13_4 N13_4 1_555 1_555
C14_4 N14_4 1_555 1_555
C15_4 N9_4 1_555 1_555
C16_4 N10_4 1_555 1_555
C17_4 N11_4 1_555 1_555
C18_4 C15_4 1_555 1_555
C19_4 C16_4 1_555 1_555
C20_4 C17_4 1_555 1_555
H15_4 C18_4 1_555 1_555
H16_4 C19_4 1_555 1_555
H17_4 C20_4 1_555 1_555
C21_4 N19 1_555 1_555
C22_4 C19_4 1_555 1_555
C23_4 C20_4 1_555 1_555
H18_4 C21_4 1_555 1_555
H19_4 C22_4 1_555 1_555
H20_4 C23_4 1_555 1_555
C24_4 H21_4 1_555 1_555
C25_4 H22_4 1_555 1_555
C26_4 N24 1_555 1_555
H23_4 C26_4 1_555 1_555
C27_4 N19 1_555 1_555
C28_4 N19_2 1_555 1_555
C29_4 N19_4 1_555 1_555
H24_4 C27_4 1_555 1_555
H25_4 C28_4 1_555 1_555
H26_4 C29_4 1_555 1_555
C30_4 C12_4 1_555 1_555
C31_4 C13_4 1_555 1_555
C32_4 C14_4 1_555 1_555
H27_4 C30_4 1_555 1_555
H28_4 C31_4 1_555 1_555
H29_4 C32_4 1_555 1_555
C33_4 C15_4 1_555 1_555
C34_4 C16_4 1_555 1_555
C35_4 C17_4 1_555 1_555
H30_4 C33_4 1_555 1_555
H31_4 C34_4 1_555 1_555
H32_4 C35_4 1_555 1_555
C36_7 O5 1_555 1_555
H33_7 C36_7 1_555 1_555
C37_4 C12_4 1_555 1_555
C38_4 C13_4 1_555 1_555
C39_4 C14_4 1_555 1_555
H34_4 C37_4 1_555 1_555
H35_4 C38_4 1_555 1_555
H36_4 C39_4 1_555 1_555
C40_4 N24_3 1_555 1_555
C41_4 N24_2 1_555 1_555
C42_4 N24 1_555 1_555
H37_4 C40_4 1_555 1_555
H38_4 C41_4 1_555 1_555
H39_4 C42_4 1_555 1_555
H40_4 N12_4 1_555 1_555
H41_4 N13_4 1_555 1_555
H42_4 N14_4 1_555 1_555
C5_4 C7_4 1_555 1_555
C6_4 C8_4 1_555 1_555
C10_4 C11_4 1_555 1_555
P4_4 N8_4 1_555 1_555
C18_4 C21_4 1_555 1_555
C24_4 C30_4 1_555 1_555
C25_4 C31_4 1_555 1_555
C26_4 C32_4 1_555 1_555
C27_4 C33_4 1_555 1_555
C28_4 C34_4 1_555 1_555
C29_4 C35_4 1_555 1_555
C37_4 C40_4 1_555 1_555
C38_4 C41_4 1_555 1_555
C39_4 C42_4 1_555 1_555
O5_4 C36_8 1_555 1_555
C36_8 O5_3 1_555 1_555
H33_8 C36_8 1_555 1_555
H1_5 N2_5 1_555 1_555
N20_3 C4_5 1_555 1_555
C2_5 N2_5 1_555 1_555
C3_5 C2_5 1_555 1_555
H2_5 C3_5 1_555 1_555
C4_5 C3_5 1_555 1_555
H3_5 C4_5 1_555 1_555
C6_5 N20_3 1_555 1_555
H5_5 C6_5 1_555 1_555
C8_5 C2_5 1_555 1_555
H7_5 C8_5 1_555 1_555
H12_5 N9_5 1_555 1_555
C15_5 N9_5 1_555 1_555
C18_5 C15_5 1_555 1_555
H15_5 C18_5 1_555 1_555
C21_5 N20_5 1_555 1_555
C27_5 N20_5 1_555 1_555
H24_5 C27_5 1_555 1_555
C33_5 C15_5 1_555 1_555
H30_5 C33_5 1_555 1_555
C6_5 C8_5 1_555 1_555
C18_5 C21_5 1_555 1_555
C27_5 C33_5 1_555 1_555
N25_3 C24_5 1_555 1_555
N26_6 C25_5 1_555 1_555
C12_5 N12_5 1_555 1_555
C13_5 N13_5 1_555 1_555
C24_5 H21_5 1_555 1_555
C30_5 C12_5 1_555 1_555
C31_5 C13_5 1_555 1_555
H27_5 C30_5 1_555 1_555
H28_5 C31_5 1_555 1_555
C37_5 C12_5 1_555 1_555
C38_5 C13_5 1_555 1_555
H34_5 C37_5 1_555 1_555
H35_5 C38_5 1_555 1_555
C40_5 N25_3 1_555 1_555
C41_5 N26_6 1_555 1_555
H37_5 C40_5 1_555 1_555
H38_5 C41_5 1_555 1_555
H40_5 N12_5 1_555 1_555
H41_5 N13_5 1_555 1_555
C24_5 C30_5 1_555 1_555
C25_5 C31_5 1_555 1_555
C37_5 C40_5 1_555 1_555
C38_5 C41_5 1_555 1_555
P1_5 N1_5 1_555 1_555
P2_5 N1_5 1_555 1_555
N3_5 P2_5 1_555 1_555
N26_4 C5_5 1_555 1_555
C1_5 N3_5 1_555 1_555
C7_5 C1_5 1_555 1_555
H6_5 C7_5 1_555 1_555
C10_5 C1_5 1_555 1_555
H9_5 C10_5 1_555 1_555
C11_5 N26_4 1_555 1_555
H10_5 C11_5 1_555 1_555
H11_5 N3_5 1_555 1_555
P3_5 N6_5 1_555 1_555
P4_5 N7_5 1_555 1_555
N6_5 P2_5 1_555 1_555
N7_5 P3_5 1_555 1_555
N8_5 P1_5 1_555 1_555
N10_5 P3_5 1_555 1_555
N11_5 P3_5 1_555 1_555
H13_5 N10_5 1_555 1_555
H14_5 N11_5 1_555 1_555
N14_5 P2_5 1_555 1_555
N18_6 C22_5 1_555 1_555
N18_4 C23_5 1_555 1_555
C14_5 N14_5 1_555 1_555
C16_5 N10_5 1_555 1_555
C17_5 N11_5 1_555 1_555
C19_5 C16_5 1_555 1_555
C20_5 C17_5 1_555 1_555
H16_5 C19_5 1_555 1_555
H17_5 C20_5 1_555 1_555
C22_5 C19_5 1_555 1_555
C23_5 C20_5 1_555 1_555
H19_5 C22_5 1_555 1_555
C26_5 N25_5 1_555 1_555
H23_5 C26_5 1_555 1_555
C28_5 N18_6 1_555 1_555
C29_5 N18_4 1_555 1_555
H25_5 C28_5 1_555 1_555
H26_5 C29_5 1_555 1_555
C32_5 C14_5 1_555 1_555
H29_5 C32_5 1_555 1_555
C34_5 C16_5 1_555 1_555
C35_5 C17_5 1_555 1_555
H31_5 C34_5 1_555 1_555
H32_5 C35_5 1_555 1_555
C39_5 C14_5 1_555 1_555
H36_5 C39_5 1_555 1_555
C42_5 N25_5 1_555 1_555
H39_5 C42_5 1_555 1_555
H42_5 N14_5 1_555 1_555
C5_5 C7_5 1_555 1_555
C10_5 C11_5 1_555 1_555
P4_5 N8_5 1_555 1_555
C26_5 C32_5 1_555 1_555
C28_5 C34_5 1_555 1_555
C29_5 C35_5 1_555 1_555
C39_5 C42_5 1_555 1_555
H1_6 N2_6 1_555 1_555
N20_7 C4_6 1_555 1_555
C2_6 N2_6 1_555 1_555
C3_6 C2_6 1_555 1_555
H2_6 C3_6 1_555 1_555
C4_6 C3_6 1_555 1_555
H3_6 C4_6 1_555 1_555
C6_6 N20_7 1_555 1_555
H5_6 C6_6 1_555 1_555
C8_6 C2_6 1_555 1_555
H7_6 C8_6 1_555 1_555
H12_6 N9_6 1_555 1_555
C15_6 N9_6 1_555 1_555
C18_6 C15_6 1_555 1_555
H15_6 C18_6 1_555 1_555
C21_6 N20 1_555 1_555
H18_6 C21_6 1_555 1_555
C27_6 N20 1_555 1_555
H24_6 C27_6 1_555 1_555
C33_6 C15_6 1_555 1_555
H30_6 C33_6 1_555 1_555
C6_6 C8_6 1_555 1_555
C18_6 C21_6 1_555 1_555
C27_6 C33_6 1_555 1_555
P1_6 N1_6 1_555 1_555
P2_6 N1_6 1_555 1_555
N3_6 P2_6 1_555 1_555
N26_8 C5_6 1_555 1_555
C1_6 N3_6 1_555 1_555
C7_6 C1_6 1_555 1_555
H6_6 C7_6 1_555 1_555
C10_6 C1_6 1_555 1_555
H9_6 C10_6 1_555 1_555
C11_6 N26_8 1_555 1_555
H10_6 C11_6 1_555 1_555
H11_6 N3_6 1_555 1_555
P3_6 N6_6 1_555 1_555
P4_6 N7_6 1_555 1_555
N6_6 P2_6 1_555 1_555
N7_6 P3_6 1_555 1_555
N8_6 P1_6 1_555 1_555
N10_6 P3_6 1_555 1_555
N11_6 P3_6 1_555 1_555
H13_6 N10_6 1_555 1_555
H14_6 N11_6 1_555 1_555
N12_6 P4_6 1_555 1_555
N13_6 P4_6 1_555 1_555
N14_6 P2_6 1_555 1_555
N18_2 C22_6 1_555 1_555
N18_8 C23_6 1_555 1_555
N25_7 C24_6 1_555 1_555
N26_2 C25_6 1_555 1_555
C12_6 N12_6 1_555 1_555
C13_6 N13_6 1_555 1_555
C14_6 N14_6 1_555 1_555
C16_6 N10_6 1_555 1_555
C17_6 N11_6 1_555 1_555
C19_6 C16_6 1_555 1_555
C20_6 C17_6 1_555 1_555
H16_6 C19_6 1_555 1_555
H17_6 C20_6 1_555 1_555
C22_6 C19_6 1_555 1_555
C23_6 C20_6 1_555 1_555
H19_6 C22_6 1_555 1_555
H20_6 C23_6 1_555 1_555
C24_6 H21_6 1_555 1_555
C26_6 N25 1_555 1_555
H23_6 C26_6 1_555 1_555
C28_6 N18_2 1_555 1_555
C29_6 N18_8 1_555 1_555
H25_6 C28_6 1_555 1_555
H26_6 C29_6 1_555 1_555
C30_6 C12_6 1_555 1_555
C31_6 C13_6 1_555 1_555
C32_6 C14_6 1_555 1_555
H27_6 C30_6 1_555 1_555
H28_6 C31_6 1_555 1_555
H29_6 C32_6 1_555 1_555
C34_6 C16_6 1_555 1_555
C35_6 C17_6 1_555 1_555
H31_6 C34_6 1_555 1_555
H32_6 C35_6 1_555 1_555
C37_6 C12_6 1_555 1_555
C38_6 C13_6 1_555 1_555
C39_6 C14_6 1_555 1_555
H34_6 C37_6 1_555 1_555
H35_6 C38_6 1_555 1_555
H36_6 C39_6 1_555 1_555
C40_6 N25_7 1_555 1_555
C41_6 N26_2 1_555 1_555
C42_6 N25 1_555 1_555
H37_6 C40_6 1_555 1_555
H38_6 C41_6 1_555 1_555
H39_6 C42_6 1_555 1_555
H40_6 N12_6 1_555 1_555
H41_6 N13_6 1_555 1_555
H42_6 N14_6 1_555 1_555
C5_6 C7_6 1_555 1_555
C10_6 C11_6 1_555 1_555
P4_6 N8_6 1_555 1_555
C24_6 C30_6 1_555 1_555
C25_6 C31_6 1_555 1_555
C26_6 C32_6 1_555 1_555
C28_6 C34_6 1_555 1_555
C29_6 C35_6 1_555 1_555
C37_6 C40_6 1_555 1_555
C38_6 C41_6 1_555 1_555
C39_6 C42_6 1_555 1_555
N26_7 C24_7 1_555 1_555
N25_2 C25_7 1_555 1_555
C12_7 N12_7 1_555 1_555
C13_7 N13_7 1_555 1_555
C24_7 H21_7 1_555 1_555
C25_7 H22_7 1_555 1_555
C30_7 C12_7 1_555 1_555
C31_7 C13_7 1_555 1_555
H27_7 C30_7 1_555 1_555
H28_7 C31_7 1_555 1_555
C37_7 C12_7 1_555 1_555
C38_7 C13_7 1_555 1_555
H34_7 C37_7 1_555 1_555
H35_7 C38_7 1_555 1_555
C40_7 N26_7 1_555 1_555
C41_7 N25_2 1_555 1_555
H37_7 C40_7 1_555 1_555
H38_7 C41_7 1_555 1_555
H40_7 N12_7 1_555 1_555
H41_7 N13_7 1_555 1_555
C24_7 C30_7 1_555 1_555
C25_7 C31_7 1_555 1_555
C37_7 C40_7 1_555 1_555
C38_7 C41_7 1_555 1_555
P1_7 N1_7 1_555 1_555
P2_7 N1_7 1_555 1_555
N2_7 P1_7 1_555 1_555
H1_7 N2_7 1_555 1_555
N3_7 P2_7 1_555 1_555
N18_7 C4_7 1_555 1_555
N25_8 C5_7 1_555 1_555
C1_7 N3_7 1_555 1_555
C2_7 N2_7 1_555 1_555
C3_7 C2_7 1_555 1_555
H2_7 C3_7 1_555 1_555
C4_7 C3_7 1_555 1_555
H3_7 C4_7 1_555 1_555
C5_7 H4_7 1_555 1_555
C6_7 N18_7 1_555 1_555
H5_7 C6_7 1_555 1_555
C7_7 C1_7 1_555 1_555
H6_7 C7_7 1_555 1_555
C8_7 C2_7 1_555 1_555
H7_7 C8_7 1_555 1_555
C10_7 C1_7 1_555 1_555
H9_7 C10_7 1_555 1_555
C11_7 N25_8 1_555 1_555
H10_7 C11_7 1_555 1_555
H11_7 N3_7 1_555 1_555
P3_7 N6_7 1_555 1_555
P4_7 N7_7 1_555 1_555
N6_7 P2_7 1_555 1_555
N7_7 P3_7 1_555 1_555
N8_7 P1_7 1_555 1_555
N9_7 P1_7 1_555 1_555
N10_7 P3_7 1_555 1_555
N11_7 P3_7 1_555 1_555
H12_7 N9_7 1_555 1_555
H13_7 N10_7 1_555 1_555
H14_7 N11_7 1_555 1_555
N14_7 P2_7 1_555 1_555
N20_2 C22_7 1_555 1_555
N20_8 C23_7 1_555 1_555
C14_7 N14_7 1_555 1_555
C15_7 N9_7 1_555 1_555
C16_7 N10_7 1_555 1_555
C17_7 N11_7 1_555 1_555
C18_7 C15_7 1_555 1_555
C19_7 C16_7 1_555 1_555
C20_7 C17_7 1_555 1_555
H15_7 C18_7 1_555 1_555
H16_7 C19_7 1_555 1_555
H17_7 C20_7 1_555 1_555
C21_7 N18 1_555 1_555
C22_7 C19_7 1_555 1_555
C23_7 C20_7 1_555 1_555
H19_7 C22_7 1_555 1_555
C26_7 N26 1_555 1_555
H23_7 C26_7 1_555 1_555
C27_7 N18 1_555 1_555
C28_7 N20_2 1_555 1_555
C29_7 N20_8 1_555 1_555
H24_7 C27_7 1_555 1_555
H25_7 C28_7 1_555 1_555
H26_7 C29_7 1_555 1_555
C32_7 C14_7 1_555 1_555
H29_7 C32_7 1_555 1_555
C33_7 C15_7 1_555 1_555
C34_7 C16_7 1_555 1_555
C35_7 C17_7 1_555 1_555
H30_7 C33_7 1_555 1_555
H31_7 C34_7 1_555 1_555
H32_7 C35_7 1_555 1_555
C39_7 C14_7 1_555 1_555
H36_7 C39_7 1_555 1_555
C42_7 N26 1_555 1_555
H39_7 C42_7 1_555 1_555
H42_7 N14_7 1_555 1_555
C5_7 C7_7 1_555 1_555
C6_7 C8_7 1_555 1_555
C10_7 C11_7 1_555 1_555
P4_7 N8_7 1_555 1_555
C18_7 C21_7 1_555 1_555
C26_7 C32_7 1_555 1_555
C27_7 C33_7 1_555 1_555
C28_7 C34_7 1_555 1_555
C29_7 C35_7 1_555 1_555
C39_7 C42_7 1_555 1_555
P1_8 N1_8 1_555 1_555
P2_8 N1_8 1_555 1_555
N2_8 P1_8 1_555 1_555
H1_8 N2_8 1_555 1_555
N3_8 P2_8 1_555 1_555
N18_3 C4_8 1_555 1_555
N25_4 C5_8 1_555 1_555
C1_8 N3_8 1_555 1_555
C2_8 N2_8 1_555 1_555
C3_8 C2_8 1_555 1_555
H2_8 C3_8 1_555 1_555
C4_8 C3_8 1_555 1_555
H3_8 C4_8 1_555 1_555
C5_8 H4_8 1_555 1_555
C6_8 N18_3 1_555 1_555
H5_8 C6_8 1_555 1_555
C7_8 C1_8 1_555 1_555
H6_8 C7_8 1_555 1_555
C8_8 C2_8 1_555 1_555
H7_8 C8_8 1_555 1_555
C10_8 C1_8 1_555 1_555
H9_8 C10_8 1_555 1_555
C11_8 N25_4 1_555 1_555
H10_8 C11_8 1_555 1_555
H11_8 N3_8 1_555 1_555
P3_8 N6_8 1_555 1_555
P4_8 N7_8 1_555 1_555
N6_8 P2_8 1_555 1_555
N7_8 P3_8 1_555 1_555
N8_8 P1_8 1_555 1_555
N9_8 P1_8 1_555 1_555
N10_8 P3_8 1_555 1_555
N11_8 P3_8 1_555 1_555
H12_8 N9_8 1_555 1_555
H13_8 N10_8 1_555 1_555
H14_8 N11_8 1_555 1_555
N12_8 P4_8 1_555 1_555
N13_8 P4_8 1_555 1_555
N14_8 P2_8 1_555 1_555
N20_6 C22_8 1_555 1_555
N20_4 C23_8 1_555 1_555
N26_3 C24_8 1_555 1_555
N25_6 C25_8 1_555 1_555
C12_8 N12_8 1_555 1_555
C13_8 N13_8 1_555 1_555
C14_8 N14_8 1_555 1_555
C15_8 N9_8 1_555 1_555
C16_8 N10_8 1_555 1_555
C17_8 N11_8 1_555 1_555
C18_8 C15_8 1_555 1_555
C19_8 C16_8 1_555 1_555
C20_8 C17_8 1_555 1_555
H15_8 C18_8 1_555 1_555
H16_8 C19_8 1_555 1_555
H17_8 C20_8 1_555 1_555
C21_8 N18_5 1_555 1_555
C22_8 C19_8 1_555 1_555
C23_8 C20_8 1_555 1_555
H18_8 C21_8 1_555 1_555
H19_8 C22_8 1_555 1_555
H20_8 C23_8 1_555 1_555
C24_8 H21_8 1_555 1_555
C25_8 H22_8 1_555 1_555
C26_8 N26_5 1_555 1_555
H23_8 C26_8 1_555 1_555
C27_8 N18_5 1_555 1_555
C28_8 N20_6 1_555 1_555
C29_8 N20_4 1_555 1_555
H24_8 C27_8 1_555 1_555
H25_8 C28_8 1_555 1_555
H26_8 C29_8 1_555 1_555
C30_8 C12_8 1_555 1_555
C31_8 C13_8 1_555 1_555
C32_8 C14_8 1_555 1_555
H27_8 C30_8 1_555 1_555
H28_8 C31_8 1_555 1_555
H29_8 C32_8 1_555 1_555
C33_8 C15_8 1_555 1_555
C34_8 C16_8 1_555 1_555
C35_8 C17_8 1_555 1_555
H30_8 C33_8 1_555 1_555
H31_8 C34_8 1_555 1_555
H32_8 C35_8 1_555 1_555
C37_8 C12_8 1_555 1_555
C38_8 C13_8 1_555 1_555
C39_8 C14_8 1_555 1_555
H34_8 C37_8 1_555 1_555
H35_8 C38_8 1_555 1_555
H36_8 C39_8 1_555 1_555
C40_8 N26_3 1_555 1_555
C41_8 N25_6 1_555 1_555
C42_8 N26_5 1_555 1_555
H37_8 C40_8 1_555 1_555
H38_8 C41_8 1_555 1_555
H39_8 C42_8 1_555 1_555
H40_8 N12_8 1_555 1_555
H41_8 N13_8 1_555 1_555
H42_8 N14_8 1_555 1_555
C5_8 C7_8 1_555 1_555
C6_8 C8_8 1_555 1_555
C10_8 C11_8 1_555 1_555
P4_8 N8_8 1_555 1_555
C18_8 C21_8 1_555 1_555
C24_8 C30_8 1_555 1_555
C25_8 C31_8 1_555 1_555
C26_8 C32_8 1_555 1_555
C27_8 C33_8 1_555 1_555
C28_8 C34_8 1_555 1_555
C29_8 C35_8 1_555 1_555
C37_8 C40_8 1_555 1_555
C38_8 C41_8 1_555 1_555
C39_8 C42_8 1_555 1_555
Cl1 O7 1_555 1_555
O8 Cl1 1_555 1_555
O9 Cl1 1_555 1_555
O10 Cl1 1_555 1_555
Cl1_2 O7_2 1_555 1_555
O8_2 Cl1_2 1_555 1_555
O9_2 Cl1_2 1_555 1_555
O10_2 Cl1_2 1_555 1_555
Cl1_3 O7_3 1_555 1_555
O8_3 Cl1_3 1_555 1_555
O9_3 Cl1_3 1_555 1_555
O10_3 Cl1_3 1_555 1_555
Cl1_4 O7_4 1_555 1_555
O8_4 Cl1_4 1_555 1_555
O9_4 Cl1_4 1_555 1_555
O10_4 Cl1_4 1_555 1_555
Cl1_5 O7_5 1_555 1_555
O8_5 Cl1_5 1_555 1_555
O9_5 Cl1_5 1_555 1_555
O10_5 Cl1_5 1_555 1_555
Cl1_6 O7_6 1_555 1_555
O8_6 Cl1_6 1_555 1_555
O9_6 Cl1_6 1_555 1_555
O10_6 Cl1_6 1_555 1_555
Cl1_7 O7_7 1_555 1_555
O8_7 Cl1_7 1_555 1_555
O9_7 Cl1_7 1_555 1_555
O10_7 Cl1_7 1_555 1_555
Cl1_8 O7_8 1_555 1_555
O8_8 Cl1_8 1_555 1_555
O9_8 Cl1_8 1_555 1_555
O10_8 Cl1_8 1_555 1_555
Cl1_9 O7_9 1_555 1_555
O8_9 Cl1_9 1_555 1_555
O9_9 Cl1_9 1_555 1_555
O10_9 Cl1_9 1_555 1_555
Cl1_10 O7_10 1_555 1_555
O8_10 Cl1_10 1_555 1_555
O9_10 Cl1_10 1_555 1_555
O10_10 Cl1_10 1_555 1_555
Cl1_11 O7_11 1_555 1_555
O8_11 Cl1_11 1_555 1_555
O9_11 Cl1_11 1_555 1_555
O10_11 Cl1_11 1_555 1_555
Cl1_12 O7_12 1_555 1_555
O8_12 Cl1_12 1_555 1_555
O9_12 Cl1_12 1_555 1_555
O10_12 Cl1_12 1_555 1_555
Cl1_13 O7_13 1_555 1_555
O8_13 Cl1_13 1_555 1_555
O9_13 Cl1_13 1_555 1_555
O10_13 Cl1_13 1_555 1_555
Cl1_14 O7_14 1_555 1_555
O8_14 Cl1_14 1_555 1_555
O9_14 Cl1_14 1_555 1_555
O10_14 Cl1_14 1_555 1_555
Cl1_15 O7_15 1_555 1_555
O8_15 Cl1_15 1_555 1_555
O9_15 Cl1_15 1_555 1_555
O10_15 Cl1_15 1_555 1_555
Cl1_16 O7_16 1_555 1_555
O8_16 Cl1_16 1_555 1_555
O9_16 Cl1_16 1_555 1_555
O10_16 Cl1_16 1_555 1_555

#END
