
###############################################################################
#
# This file contains modified crystal structure data generated from the
# MOF subset of the Cambridge Structural Database (CSD) v543 
# hosted by the Cambridge Crystallographic Data Centre (CCDC).
#
# This work is licensed under the Creative Commons
# Attribution-NonCommercial-ShareAlike 4.0 International License.
# To view a copy of this license, visit
# http://creativecommons.org/licenses/by-nc-sa/4.0/
# or send a letter to
# Creative Commons, PO Box 1866, Mountain View, CA 94042, USA.
#
# CIF created using the CSD Python API on 29 September 2022
# The structure has been converted into the P1 space group
# The structure has a 3D framework
# The original CSD entry SEMTIQ is in the orthorhombic crystal system
# The framework has been calculated to contain at least 10.0% void space
# The void calculation uses a probe of radius 1.32A, grid spacing 0.4
#
###############################################################################

data_SEMTIQ
_chemical_formula_moiety         '(C96 H64 Cu19 I10 N40)n'
_symmetry_cell_setting           triclinic
_symmetry_space_group_name_H-M   'P 1'
_symmetry_Int_Tables_number      1
_space_group_name_Hall           'P 1'
loop_
_symmetry_equiv_pos_site_id
_symmetry_equiv_pos_as_xyz
1 x,y,z
_cell_length_a                   27.7404(7)
_cell_length_b                   12.6919(3)
_cell_length_c                   8.8986(3)
_cell_angle_alpha                90
_cell_angle_beta                 90
_cell_angle_gamma                90
_cell_volume                     3133
loop_
_atom_site_label
_atom_site_type_symbol
_atom_site_fract_x
_atom_site_fract_y
_atom_site_fract_z
N14 N 0.4521(3) 0.1032(6) 0.1035(8)
Cu2 Cu 0.32000(4) 0.13386(9) 0.68018(14)
Cu3 Cu 0.43400(5) 0.11030(12) 0.88676(15)
I1 I 0.30054(3) 0.2500 0.44020(10)
I2 I 0.36393(3) 0.2500 0.89396(10)
N2 N 0.3693(2) 0.0154(6) 0.6592(8)
N3 N 0.4138(2) 0.0146(6) 0.7263(8)
C13 C 0.6305(3) 0.0613(7) 0.4401(9)
C14 C 0.5622(3) 0.0642(6) 0.3377(9)
C15 C 0.6732(3) 0.0834(6) 0.5330(10)
C16 C 0.7183(3) 0.0792(8) 0.4705(11)
H9 H 0.7216 0.0672 0.3679
C17 C 0.7581(3) 0.0923(9) 0.5568(12)
H10 H 0.7881 0.0884 0.5105
C18 C 0.7122(3) 0.1173(8) 0.7670(11)
H11 H 0.7098 0.1308 0.8694
C19 C 0.6701(3) 0.1052(7) 0.6842(10)
H12 H 0.6402 0.1116 0.7305
C20 C 0.5120(3) 0.0892(6) 0.2973(9)
C21 C 0.4768(3) 0.1083(6) 0.4044(10)
H13 H 0.4850 0.1119 0.5056
C22 C 0.4301(3) 0.1219(7) 0.3604(11)
H14 H 0.4062 0.1339 0.4317
C23 C 0.4187(3) 0.1176(7) 0.2118(11)
H15 H 0.3866 0.1250 0.1838
C24 C 0.4976(3) 0.0887(7) 0.1481(10)
H16 H 0.5210 0.0777 0.0749
N6 N 0.7566(2) 0.1103(6) 0.7041(9)
N10 N 0.5880(2) 0.1139(5) 0.4463(7)
Cu6 Cu 0.57092(5) 0.2500 0.54443(18)
Cu8 Cu 0.82000(4) 0.13386(9) 0.81982(14)
Cu9 Cu 0.32000(4) 0.36614(9) 0.68018(14)
Cu13 Cu 0.43400(5) 0.38970(12) 0.88676(15)
I6 I 0.51816(3) 0.2500 0.78783(10)
N11 N 0.2566(2) 0.1103(6) 0.7959(9)
Cu12 Cu 0.56600(5) 0.88970(12) 0.11324(15)
Cu1 Cu 0.42908(5) 0.7500 0.45557(18)
I3 I 0.48184(3) 0.7500 0.21217(10)
C1 C 0.3695(3) 0.9387(7) 0.5599(9)
C2 C 0.4378(3) 0.9358(6) 0.6623(9)
C3 C 0.3268(3) 0.9166(6) 0.4670(10)
C4 C 0.2817(3) 0.9208(8) 0.5295(11)
H1 H 0.2784 0.9328 0.6321
C5 C 0.2419(3) 0.9077(9) 0.4432(12)
H2 H 0.2119 0.9116 0.4895
C6 C 0.2878(3) 0.8827(8) 0.2330(11)
H3 H 0.2902 0.8692 0.1306
C7 C 0.3299(3) 0.8948(7) 0.3158(10)
H4 H 0.3598 0.8884 0.2695
C8 C 0.4880(3) 0.9108(6) 0.7027(9)
C9 C 0.5232(3) 0.8917(6) 0.5956(10)
H5 H 0.5150 0.8881 0.4944
C10 C 0.5699(3) 0.8781(7) 0.6396(11)
H6 H 0.5938 0.8661 0.5683
C11 C 0.5813(3) 0.8824(7) 0.7882(11)
H7 H 0.6134 0.8750 0.8162
C12 C 0.5024(3) 0.9113(7) 0.8519(10)
H8 H 0.4790 0.9223 0.9251
N1 N 0.2434(2) 0.8897(6) 0.2959(9)
N4 N 0.5479(3) 0.8968(6) 0.8965(8)
N5 N 0.4120(2) 0.8861(5) 0.5537(7)
Cu4 Cu 0.68000(4) 0.86614(9) 0.31982(14)
N7 N 0.6307(2) 0.9846(6) 0.3408(8)
N8 N 0.5862(2) 0.9854(6) 0.2737(8)
Cu7 Cu 0.18000(4) 0.86614(9) 0.18018(14)
Cu11 Cu 0.56600(5) 0.61030(12) 0.11324(15)
I4 I 0.69946(3) 0.7500 0.55980(10)
I5 I 0.63607(3) 0.7500 0.10604(10)
N12 N 0.7434(2) 0.8897(6) 0.2041(9)
N15 N 0.4120(2) 0.6139(5) 0.5537(7)
C1_2 C 0.1305(3) 0.0613(7) 0.0599(9)
C2_2 C 0.0622(3) 0.0642(6) 0.1623(9)
C4_2 C 0.2183(3) 0.0792(8) 0.0295(11)
H1_2 H 0.2216 0.0672 0.1321
C8_2 C 0.0120(3) 0.0892(6) 0.2027(9)
H8_2 H 0.0210 0.0777 0.4251
N5_2 N 0.0880(2) 0.1139(5) 0.0537(7)
N15_2 N 0.0880(2) 0.3861(5) 0.0537(7)
Cu1_2 Cu 0.07092(5) 0.2500 0.95557(18)
I3_2 I 0.01816(3) 0.2500 0.71217(10)
C3_2 C 0.1732(3) 0.0834(6) 0.9670(10)
C5_2 C 0.2581(3) 0.0923(9) 0.9432(12)
H2_2 H 0.2881 0.0884 0.9895
C6_2 C 0.2122(3) 0.1173(8) 0.7330(11)
H3_2 H 0.2098 0.1308 0.6306
C7_2 C 0.1701(3) 0.1052(7) 0.8158(10)
H4_2 H 0.1402 0.1116 0.7695
Cu3_2 Cu 0.06600(5) 0.88970(12) 0.38676(15)
I2_2 I 0.13607(3) 0.7500 0.39396(10)
N2_2 N 0.1307(2) 0.9846(6) 0.1592(8)
N3_2 N 0.0862(2) 0.9854(6) 0.2263(8)
H13_2 H 0.0150 0.8881 0.0056
Cu9_2 Cu 0.18000(4) 0.63386(9) 0.18018(14)
Cu13_2 Cu 0.06600(5) 0.61030(12) 0.38676(15)
N14_2 N 0.0479(3) 0.8968(6) 0.6035(8)
I1_2 I 0.19946(3) 0.7500 0.94020(10)
C21_2 C 0.0232(3) 0.8917(6) 0.9044(10)
C22_2 C 0.0699(3) 0.8781(7) 0.8604(11)
H14_2 H 0.0938 0.8661 0.9317
C23_2 C 0.0813(3) 0.8824(7) 0.7118(11)
H15_2 H 0.1134 0.8750 0.6838
C24_2 C 0.0024(3) 0.9113(7) 0.6481(10)
C9_2 C 0.9768(3) 0.1083(6) 0.0956(10)
C10_2 C 0.9301(3) 0.1219(7) 0.1396(11)
H6_2 H 0.9062 0.1339 0.0683
C11_2 C 0.9187(3) 0.1176(7) 0.2882(11)
H7_2 H 0.8866 0.1250 0.3162
C12_2 C 0.9976(3) 0.0887(7) 0.3519(10)
N4_2 N 0.9521(3) 0.1032(6) 0.3965(8)
Cu12_2 Cu 0.93400(5) 0.11030(12) 0.61324(15)
I4_2 I 0.80054(3) 0.2500 0.05980(10)
H5_2 H 0.9850 0.1119 0.9944
N7_2 N 0.8693(2) 0.0154(6) 0.8408(8)
N8_2 N 0.9138(2) 0.0146(6) 0.7737(8)
Cu11_2 Cu 0.93400(5) 0.38970(12) 0.61324(15)
I5_2 I 0.86393(3) 0.2500 0.60604(10)
C15_2 C 0.8268(3) 0.9166(6) 0.0330(10)
C17_2 C 0.7419(3) 0.9077(9) 0.0568(12)
H10_2 H 0.7119 0.9116 0.0105
C18_2 C 0.7878(3) 0.8827(8) 0.2670(11)
H11_2 H 0.7902 0.8692 0.3694
C19_2 C 0.8299(3) 0.8948(7) 0.1842(10)
H12_2 H 0.8598 0.8884 0.2305
Cu6_2 Cu 0.92908(5) 0.7500 0.04443(18)
I6_2 I 0.98184(3) 0.7500 0.28783(10)
C13_2 C 0.8695(3) 0.9387(7) 0.9401(9)
C14_2 C 0.9378(3) 0.9358(6) 0.8377(9)
C16_2 C 0.7817(3) 0.9208(8) 0.9705(11)
H9_2 H 0.7784 0.9328 0.8679
C20_2 C 0.9880(3) 0.9108(6) 0.7973(9)
H16_2 H 0.9790 0.9223 0.5749
N10_2 N 0.9120(2) 0.8861(5) 0.9463(7)
N13 N 0.4521(3) 0.3968(6) 0.1035(8)
Cu2_2 Cu 0.68000(4) 0.63386(9) 0.31982(14)
C1_3 C 0.6305(3) 0.4387(7) 0.4401(9)
C2_3 C 0.5622(3) 0.4358(6) 0.3377(9)
C3_3 C 0.6732(3) 0.4166(6) 0.5330(10)
C4_3 C 0.7183(3) 0.4208(8) 0.4705(11)
H1_3 H 0.7216 0.4328 0.3679
C5_3 C 0.7581(3) 0.4077(9) 0.5568(12)
H2_3 H 0.7881 0.4116 0.5105
C6_3 C 0.7122(3) 0.3827(8) 0.7670(11)
H3_3 H 0.7098 0.3692 0.8694
C7_3 C 0.6701(3) 0.3948(7) 0.6842(10)
H4_3 H 0.6402 0.3884 0.7305
C8_3 C 0.5120(3) 0.4108(6) 0.2973(9)
C9_3 C 0.4768(3) 0.3917(6) 0.4044(10)
H5_3 H 0.4850 0.3881 0.5056
C10_3 C 0.4301(3) 0.3781(7) 0.3604(11)
H6_3 H 0.4062 0.3661 0.4317
C11_3 C 0.4187(3) 0.3824(7) 0.2118(11)
H7_3 H 0.3866 0.3750 0.1838
C12_3 C 0.4976(3) 0.4113(7) 0.1481(10)
H8_3 H 0.5210 0.4223 0.0749
N1_2 N 0.7566(2) 0.3897(6) 0.7041(9)
N2_3 N 0.6307(2) 0.5154(6) 0.3408(8)
N3_3 N 0.5862(2) 0.5146(6) 0.2737(8)
N5_3 N 0.5880(2) 0.3861(5) 0.4463(7)
C13_3 C 0.3695(3) 0.5613(7) 0.5599(9)
C14_3 C 0.4378(3) 0.5642(6) 0.6623(9)
C15_3 C 0.3268(3) 0.5834(6) 0.4670(10)
C16_3 C 0.2817(3) 0.5792(8) 0.5295(11)
H9_3 H 0.2784 0.5672 0.6321
C17_3 C 0.2419(3) 0.5923(9) 0.4432(12)
H10_3 H 0.2119 0.5884 0.4895
C18_3 C 0.2878(3) 0.6173(8) 0.2330(11)
H11_3 H 0.2902 0.6308 0.1306
C19_3 C 0.3299(3) 0.6052(7) 0.3158(10)
H12_3 H 0.3598 0.6116 0.2695
C20_3 C 0.4880(3) 0.5892(6) 0.7027(9)
C21_3 C 0.5232(3) 0.6083(6) 0.5956(10)
H13_3 H 0.5150 0.6119 0.4944
C22_3 C 0.5699(3) 0.6219(7) 0.6396(11)
H14_3 H 0.5938 0.6339 0.5683
C23_3 C 0.5813(3) 0.6176(7) 0.7882(11)
H15_3 H 0.6134 0.6250 0.8162
C24_3 C 0.5024(3) 0.5887(7) 0.8519(10)
H16_3 H 0.4790 0.5777 0.9251
N6_2 N 0.2434(2) 0.6103(6) 0.2959(9)
N7_3 N 0.3693(2) 0.4846(6) 0.6592(8)
N8_3 N 0.4138(2) 0.4854(6) 0.7263(8)
N9 N 0.5479(3) 0.6032(6) 0.8965(8)
Cu7_2 Cu 0.82000(4) 0.36614(9) 0.81982(14)
N11_2 N 0.7434(2) 0.6103(6) 0.2041(9)
N12_2 N 0.2566(2) 0.3897(6) 0.7959(9)
H5_4 H 0.0150 0.6119 0.0056
C13_4 C 0.1305(3) 0.4387(7) 0.0599(9)
C14_4 C 0.0622(3) 0.4358(6) 0.1623(9)
C16_4 C 0.2183(3) 0.4208(8) 0.0295(11)
H9_4 H 0.2216 0.4328 0.1321
C20_4 C 0.0120(3) 0.4108(6) 0.2027(9)
H16_4 H 0.0210 0.4223 0.4251
N7_4 N 0.1307(2) 0.5154(6) 0.1592(8)
N8_4 N 0.0862(2) 0.5146(6) 0.2263(8)
N13_2 N 0.0479(3) 0.6032(6) 0.6035(8)
C9_4 C 0.0232(3) 0.6083(6) 0.9044(10)
C10_4 C 0.0699(3) 0.6219(7) 0.8604(11)
H6_4 H 0.0938 0.6339 0.9317
C11_4 C 0.0813(3) 0.6176(7) 0.7118(11)
H7_4 H 0.1134 0.6250 0.6838
C12_4 C 0.0024(3) 0.5887(7) 0.6481(10)
C15_4 C 0.1732(3) 0.4166(6) 0.9670(10)
C17_4 C 0.2581(3) 0.4077(9) 0.9432(12)
H10_4 H 0.2881 0.4116 0.9895
C18_4 C 0.2122(3) 0.3827(8) 0.7330(11)
H11_4 H 0.2098 0.3692 0.6306
C19_4 C 0.1701(3) 0.3948(7) 0.8158(10)
H12_4 H 0.1402 0.3884 0.7695
C3_4 C 0.8268(3) 0.5834(6) 0.0330(10)
C5_4 C 0.7419(3) 0.5923(9) 0.0568(12)
H2_4 H 0.7119 0.5884 0.0105
C6_4 C 0.7878(3) 0.6173(8) 0.2670(11)
H3_4 H 0.7902 0.6308 0.3694
C7_4 C 0.8299(3) 0.6052(7) 0.1842(10)
H4_4 H 0.8598 0.6116 0.2305
C21_4 C 0.9768(3) 0.3917(6) 0.0956(10)
C22_4 C 0.9301(3) 0.3781(7) 0.1396(11)
H14_4 H 0.9062 0.3661 0.0683
C23_4 C 0.9187(3) 0.3824(7) 0.2882(11)
H15_4 H 0.8866 0.3750 0.3162
C24_4 C 0.9976(3) 0.4113(7) 0.3519(10)
N9_2 N 0.9521(3) 0.3968(6) 0.3965(8)
C1_4 C 0.8695(3) 0.5613(7) 0.9401(9)
C2_4 C 0.9378(3) 0.5642(6) 0.8377(9)
C4_4 C 0.7817(3) 0.5792(8) 0.9705(11)
H1_4 H 0.7784 0.5672 0.8679
C8_4 C 0.9880(3) 0.5892(6) 0.7973(9)
H8_4 H 0.9790 0.5777 0.5749
N2_4 N 0.8693(2) 0.4846(6) 0.8408(8)
N3_4 N 0.9138(2) 0.4854(6) 0.7737(8)
N5_4 N 0.9120(2) 0.6139(5) 0.9463(7)
H13_4 H 0.9850 0.3881 0.9944
loop_
_geom_bond_atom_site_label_1
_geom_bond_atom_site_label_2
_geom_bond_site_symmetry_1
_geom_bond_site_symmetry_2
Cu2 I1 1_555 1_555
Cu3 I2 1_555 1_555
I1 Cu9 1_555 1_555
I2 Cu2 1_555 1_555
N2 Cu2 1_555 1_555
N3 Cu3 1_555 1_555
C13 C15 1_555 1_555
C14 C20 1_555 1_555
C15 C16 1_555 1_555
C16 H9 1_555 1_555
C17 C16 1_555 1_555
H10 C17 1_555 1_555
C18 H11 1_555 1_555
C19 C15 1_555 1_555
H12 C19 1_555 1_555
C20 C21 1_555 1_555
C21 H13 1_555 1_555
C22 C21 1_555 1_555
H14 C22 1_555 1_555
C23 C22 1_555 1_555
H15 C23 1_555 1_555
C24 C20 1_555 1_555
H16 C24 1_555 1_555
N6 C17 1_555 1_555
N14 C23 1_555 1_555
N10 C13 1_555 1_555
Cu6 N10 1_555 1_555
Cu8 N6 1_555 1_555
Cu9 I2 1_555 1_555
Cu13 I2 1_555 1_555
I6 Cu3 1_555 1_555
N11 Cu2 1_555 1_555
N2 N3 1_555 1_555
C14 N10 1_555 1_555
C18 C19 1_555 1_555
C18 N6 1_555 1_555
C24 N14 1_555 1_555
Cu6 I6 1_555 1_555
Cu13 I6 1_555 1_555
Cu1 I3 1_555 1_555
I3 Cu12 1_555 1_555
C1 C3 1_555 1_555
C2 C8 1_555 1_555
C3 C4 1_555 1_555
C4 H1 1_555 1_555
C5 C4 1_555 1_555
H2 C5 1_555 1_555
C6 H3 1_555 1_555
C7 C3 1_555 1_555
H4 C7 1_555 1_555
C8 C9 1_555 1_555
C9 H5 1_555 1_555
C10 C9 1_555 1_555
H6 C10 1_555 1_555
C11 C10 1_555 1_555
H7 C11 1_555 1_555
C12 C8 1_555 1_555
H8 C12 1_555 1_555
N1 C5 1_555 1_555
N4 C11 1_555 1_555
N5 Cu1 1_555 1_555
Cu4 N7 1_555 1_555
Cu12 N8 1_555 1_555
Cu7 N1 1_555 1_555
Cu11 I3 1_555 1_555
I4 Cu4 1_555 1_555
I5 Cu4 1_555 1_555
N12 Cu4 1_555 1_555
N15 Cu1 1_555 1_555
C1 N5 1_555 1_555
C2 N5 1_555 1_555
C6 C7 1_555 1_555
C6 N1 1_555 1_555
C12 N4 1_555 1_555
Cu12 I5 1_555 1_555
N7 N8 1_555 1_555
Cu11 I5 1_555 1_555
C2_2 C8_2 1_555 1_555
C4_2 H1_2 1_555 1_555
C1_2 N5_2 1_555 1_555
C2_2 N5_2 1_555 1_555
Cu1_2 I3_2 1_555 1_555
H2_2 C5_2 1_555 1_555
C6_2 H3_2 1_555 1_555
C7_2 C3_2 1_555 1_555
H4_2 C7_2 1_555 1_555
N11 C5_2 1_555 1_555
C6_2 C7_2 1_555 1_555
C6_2 N11 1_555 1_555
Cu3_2 I2_2 1_555 1_555
I2_2 Cu7 1_555 1_555
N2_2 Cu7 1_555 1_555
N3_2 Cu3_2 1_555 1_555
Cu9_2 I2_2 1_555 1_555
Cu13_2 I2_2 1_555 1_555
N14_2 Cu3_2 1_555 1_555
N2_2 N3_2 1_555 1_555
C22_2 C21_2 1_555 1_555
H14_2 C22_2 1_555 1_555
C23_2 C22_2 1_555 1_555
H15_2 C23_2 1_555 1_555
N14_2 C23_2 1_555 1_555
C24_2 N14_2 1_555 1_555
C10_2 C9_2 1_555 1_555
H6_2 C10_2 1_555 1_555
C11_2 C10_2 1_555 1_555
H7_2 C11_2 1_555 1_555
N4_2 C11_2 1_555 1_555
Cu12_2 N4_2 1_555 1_555
C12_2 N4_2 1_555 1_555
Cu8 N7_2 1_555 1_555
Cu12_2 N8_2 1_555 1_555
I5_2 Cu8 1_555 1_555
Cu12_2 I5_2 1_555 1_555
N7_2 N8_2 1_555 1_555
Cu11_2 I5_2 1_555 1_555
H10_2 C17_2 1_555 1_555
C18_2 H11_2 1_555 1_555
C19_2 C15_2 1_555 1_555
H12_2 C19_2 1_555 1_555
N12 C17_2 1_555 1_555
C18_2 C19_2 1_555 1_555
C18_2 N12 1_555 1_555
Cu6_2 I6_2 1_555 1_555
C14_2 C20_2 1_555 1_555
C16_2 H9_2 1_555 1_555
N10_2 C13_2 1_555 1_555
C14_2 N10_2 1_555 1_555
Cu2_2 I4 1_555 1_555
I5 Cu2_2 1_555 1_555
C1_3 C3_3 1_555 1_555
C2_3 C8_3 1_555 1_555
C3_3 C4_3 1_555 1_555
C4_3 H1_3 1_555 1_555
C5_3 C4_3 1_555 1_555
H2_3 C5_3 1_555 1_555
C6_3 H3_3 1_555 1_555
C7_3 C3_3 1_555 1_555
H4_3 C7_3 1_555 1_555
C8_3 C9_3 1_555 1_555
C9_3 H5_3 1_555 1_555
C10_3 C9_3 1_555 1_555
H6_3 C10_3 1_555 1_555
C11_3 C10_3 1_555 1_555
H7_3 C11_3 1_555 1_555
C12_3 C8_3 1_555 1_555
H8_3 C12_3 1_555 1_555
N1_2 C5_3 1_555 1_555
N2_3 Cu2_2 1_555 1_555
N3_3 Cu11 1_555 1_555
N13 C11_3 1_555 1_555
N5_3 Cu6 1_555 1_555
Cu9 N7_3 1_555 1_555
Cu13 N8_3 1_555 1_555
C13_3 C15_3 1_555 1_555
C14_3 C20_3 1_555 1_555
C15_3 C16_3 1_555 1_555
C16_3 H9_3 1_555 1_555
C17_3 C16_3 1_555 1_555
H10_3 C17_3 1_555 1_555
C18_3 H11_3 1_555 1_555
C19_3 C15_3 1_555 1_555
H12_3 C19_3 1_555 1_555
C20_3 C21_3 1_555 1_555
C21_3 H13_3 1_555 1_555
C22_3 C21_3 1_555 1_555
H14_3 C22_3 1_555 1_555
C23_3 C22_3 1_555 1_555
H15_3 C23_3 1_555 1_555
C24_3 C20_3 1_555 1_555
H16_3 C24_3 1_555 1_555
N6_2 C17_3 1_555 1_555
N7_3 C13_3 1_555 1_555
N8_3 C14_3 1_555 1_555
N9 C23_3 1_555 1_555
N15 C13_3 1_555 1_555
Cu7_2 N1_2 1_555 1_555
Cu9_2 N6_2 1_555 1_555
N11_2 Cu2_2 1_555 1_555
N12_2 Cu9 1_555 1_555
C1_3 N2_3 1_555 1_555
C1_3 N5_3 1_555 1_555
C2_3 N3_3 1_555 1_555
C2_3 N5_3 1_555 1_555
C6_3 C7_3 1_555 1_555
C6_3 N1_2 1_555 1_555
C12_3 N13 1_555 1_555
N2_3 N3_3 1_555 1_555
C14_3 N15 1_555 1_555
C18_3 C19_3 1_555 1_555
C18_3 N6_2 1_555 1_555
C24_3 N9 1_555 1_555
N7_3 N8_3 1_555 1_555
Cu9_2 N7_4 1_555 1_555
Cu13_2 N8_4 1_555 1_555
C14_4 C20_4 1_555 1_555
C16_4 H9_4 1_555 1_555
N7_4 C13_4 1_555 1_555
N8_4 C14_4 1_555 1_555
N15_2 C13_4 1_555 1_555
N13_2 Cu13_2 1_555 1_555
C14_4 N15_2 1_555 1_555
N7_4 N8_4 1_555 1_555
C10_4 C9_4 1_555 1_555
H6_4 C10_4 1_555 1_555
C11_4 C10_4 1_555 1_555
H7_4 C11_4 1_555 1_555
N13_2 C11_4 1_555 1_555
H10_4 C17_4 1_555 1_555
C18_4 H11_4 1_555 1_555
C19_4 C15_4 1_555 1_555
H12_4 C19_4 1_555 1_555
N12_2 C17_4 1_555 1_555
C12_4 N13_2 1_555 1_555
C18_4 C19_4 1_555 1_555
C18_4 N12_2 1_555 1_555
H2_4 C5_4 1_555 1_555
C6_4 H3_4 1_555 1_555
C7_4 C3_4 1_555 1_555
H4_4 C7_4 1_555 1_555
N11_2 C5_4 1_555 1_555
C22_4 C21_4 1_555 1_555
H14_4 C22_4 1_555 1_555
C23_4 C22_4 1_555 1_555
H15_4 C23_4 1_555 1_555
N9_2 C23_4 1_555 1_555
Cu11_2 N9_2 1_555 1_555
C6_4 C7_4 1_555 1_555
C6_4 N11_2 1_555 1_555
C24_4 N9_2 1_555 1_555
I5_2 Cu7_2 1_555 1_555
C2_4 C8_4 1_555 1_555
C4_4 H1_4 1_555 1_555
N2_4 Cu7_2 1_555 1_555
N3_4 Cu11_2 1_555 1_555
C1_4 N2_4 1_555 1_555
C1_4 N5_4 1_555 1_555
C2_4 N3_4 1_555 1_555
C2_4 N5_4 1_555 1_555
N2_4 N3_4 1_555 1_555

#END
