
###############################################################################
#
# This file contains modified crystal structure data generated from the
# MOF subset of the Cambridge Structural Database (CSD) v543 
# hosted by the Cambridge Crystallographic Data Centre (CCDC).
#
# This work is licensed under the Creative Commons
# Attribution-NonCommercial-ShareAlike 4.0 International License.
# To view a copy of this license, visit
# http://creativecommons.org/licenses/by-nc-sa/4.0/
# or send a letter to
# Creative Commons, PO Box 1866, Mountain View, CA 94042, USA.
#
# CIF created using the CSD Python API on 29 September 2022
# The structure has been converted into the P1 space group
# The structure has a 3D framework
# The original CSD entry SENWUG is in the tetragonal crystal system
# The framework has been calculated to contain at least 10.0% void space
# The void calculation uses a probe of radius 1.32A, grid spacing 0.4
#
###############################################################################

data_SENWUG
_chemical_formula_moiety         '(C384 H192 Cu16 In16 N64 O128)n'
_symmetry_cell_setting           triclinic
_symmetry_space_group_name_H-M   'P 1'
_symmetry_Int_Tables_number      1
_space_group_name_Hall           'P 1'
loop_
_symmetry_equiv_pos_site_id
_symmetry_equiv_pos_as_xyz
1 x,y,z
_cell_length_a                   28.99097(7)
_cell_length_b                   28.99097(7)
_cell_length_c                   16.71590(11)
_cell_angle_alpha                90
_cell_angle_beta                 90
_cell_angle_gamma                90
_cell_volume                     14049.3
loop_
_atom_site_label
_atom_site_type_symbol
_atom_site_fract_x
_atom_site_fract_y
_atom_site_fract_z
In1 In 0.37494(2) 0.62494(2) 0.625000
Cu1 Cu 0.35928(2) 0.39072(2) 0.375000
O1 O 0.37208(12) 0.20080(11) 0.3683(2)
O2 O 0.37323(11) 0.55112(10) 0.65844(19)
O3 O 0.38286(11) 0.17237(10) 0.48940(19)
O4 O 0.37809(11) 0.56501(11) 0.52933(19)
N1 N 0.36388(14) 0.33413(13) 0.4467(2)
N2 N 0.36455(13) 0.42311(13) 0.4806(2)
C1 C 0.37467(15) 0.53704(15) 0.5866(3)
C2 C 0.37660(15) 0.20626(16) 0.4437(3)
C3 C 0.37614(17) 0.26384(16) 0.5570(3)
H1 H 0.380052 0.239707 0.594801
C4 C 0.36729(18) 0.40905(16) 0.6232(3)
H2 H 0.366487 0.387807 0.666407
C5 C 0.37267(17) 0.30911(16) 0.5822(3)
H3 H 0.374268 0.316431 0.637493
C6 C 0.36992(17) 0.45639(16) 0.6370(3)
H4 H 0.371090 0.468020 0.690068
C7 C 0.36739(17) 0.29024(17) 0.4235(3)
H5 H 0.365357 0.283557 0.367932
C8 C 0.37384(14) 0.25402(16) 0.4760(3)
C9 C 0.36589(15) 0.39377(15) 0.5444(3)
C10 C 0.36731(15) 0.46806(15) 0.4951(3)
H6 H 0.366908 0.488840 0.451206
C11 C 0.37078(16) 0.48610(15) 0.5727(3)
C12 C 0.36679(15) 0.34408(15) 0.5252(3)
O6 O 0.30112(10) 0.62323(11) 0.59156(19)
O8 O 0.31501(11) 0.62809(11) 0.72067(19)
N3 N 0.08413(13) 0.61388(14) 0.8033(2)
N4 N 0.17311(13) 0.61455(13) 0.7694(2)
C13 C 0.28704(15) 0.62467(15) 0.6634(3)
C15 C 0.01384(16) 0.62614(17) 0.6930(3)
C16 C 0.15905(16) 0.61729(18) 0.6268(3)
H8 H 0.137807 0.616487 0.583593
C17 C 0.05911(16) 0.62267(17) 0.6678(3)
H9 H 0.066431 0.624268 0.612507
C18 C 0.20639(16) 0.61992(17) 0.6130(3)
H10 H 0.218020 0.621090 0.559932
C19 C 0.04024(17) 0.61739(17) 0.8265(3)
H11 H 0.033557 0.615357 0.882068
C20 C 0.00402(16) 0.62384(14) 0.7740(3)
C21 C 0.14377(15) 0.61589(15) 0.7056(3)
C22 C 0.21806(15) 0.61731(15) 0.7549(3)
H12 H 0.238840 0.616908 0.798794
C23 C 0.23610(15) 0.62078(16) 0.6773(3)
C24 C 0.09408(15) 0.61679(15) 0.7248(3)
In3 In 0.37494(2) 0.12494(2) 0.375000
Cu2 Cu 0.14072(2) 0.60928(2) 0.875000
O9 O 0.37208(12) 0.70080(11) 0.6317(2)
O10 O 0.45080(11) 0.62208(12) 0.6183(2)
O11 O 0.38286(11) 0.67237(10) 0.51060(19)
O12 O 0.42237(10) 0.63286(11) 0.73940(19)
N5 N 0.41587(13) 0.38612(14) 0.3033(2)
N6 N 0.32689(13) 0.38545(13) 0.2694(2)
O5 O 0.95080(11) 0.62208(12) 0.8817(2)
O7 O 0.92237(10) 0.63286(11) 0.76060(19)
C14 C 0.95626(16) 0.62660(15) 0.8063(3)
H7 H 0.989707 0.630052 0.655199
In2 In 0.87494(2) 0.62494(2) 0.875000
In1_2 In 0.12506(2) 0.37506(2) 0.125000
O2_2 O 0.12677(11) 0.44888(10) 0.15844(19)
O4_2 O 0.12191(11) 0.43499(11) 0.02933(19)
C1_2 C 0.12533(15) 0.46296(15) 0.0866(3)
C3_2 C 0.12386(17) 0.73616(16) 0.0570(3)
H1_2 H 0.119948 0.760293 0.094801
C4_2 C 0.13271(18) 0.59095(16) 0.1232(3)
H2_2 H 0.133513 0.612193 0.166407
C5_2 C 0.12733(17) 0.69089(16) 0.0822(3)
H3_2 H 0.125732 0.683569 0.137493
C6_2 C 0.13008(17) 0.54361(16) 0.1370(3)
H4_2 H 0.128910 0.531980 0.190068
C9_2 C 0.13411(15) 0.60623(15) 0.0444(3)
C11_2 C 0.12922(16) 0.51390(15) 0.0727(3)
C12_2 C 0.13321(15) 0.65592(15) 0.0252(3)
O5_2 O 0.54920(11) 0.37792(12) 0.3817(2)
O6_2 O 0.19888(10) 0.37677(11) 0.09156(19)
O7_2 O 0.57763(10) 0.36714(11) 0.26060(19)
O8_2 O 0.18499(11) 0.37191(11) 0.22067(19)
C13_2 C 0.21296(15) 0.37533(15) 0.1634(3)
C14_2 C 0.54374(16) 0.37340(15) 0.3063(3)
C15_2 C 0.48616(16) 0.37386(17) 0.1930(3)
H7_2 H 0.510293 0.369948 0.155199
C16_2 C 0.34095(16) 0.38271(18) 0.1268(3)
H8_2 H 0.362193 0.383513 0.083593
C17_2 C 0.44089(16) 0.37733(17) 0.1678(3)
H9_2 H 0.433569 0.375732 0.112507
C18_2 C 0.29361(16) 0.38008(17) 0.1130(3)
H10_2 H 0.281980 0.378910 0.059932
C19_2 C 0.45976(17) 0.38261(17) 0.3265(3)
H11_2 H 0.466443 0.384643 0.382068
C20_2 C 0.49598(16) 0.37616(14) 0.2740(3)
C21_2 C 0.35623(15) 0.38411(15) 0.2056(3)
C22_2 C 0.28194(15) 0.38269(15) 0.2549(3)
H12_2 H 0.261160 0.383092 0.298794
C23_2 C 0.26390(15) 0.37922(16) 0.1773(3)
C24_2 C 0.40592(15) 0.38321(15) 0.2248(3)
In2_2 In 0.62506(2) 0.37506(2) 0.375000
O9_2 O 0.12792(12) 0.29920(11) 0.1317(2)
O10_2 O 0.04920(11) 0.37792(12) 0.1183(2)
O11_2 O 0.11714(11) 0.32763(10) 0.01060(19)
O12_2 O 0.07763(10) 0.36714(11) 0.23940(19)
O1_2 O 0.12792(12) 0.79920(11) 0.8683(2)
O3_2 O 0.11714(11) 0.82763(10) 0.98940(19)
N1_2 N 0.13612(14) 0.66587(13) 0.9467(2)
N2_2 N 0.13545(13) 0.57689(13) 0.9806(2)
C2_2 C 0.12340(15) 0.79374(16) 0.9437(3)
C7_2 C 0.13261(17) 0.70976(17) 0.9235(3)
H5_2 H 0.134643 0.716443 0.867932
C8_2 C 0.12616(14) 0.74598(16) 0.9760(3)
C10_2 C 0.13269(15) 0.53194(15) 0.9951(3)
H6_2 H 0.133092 0.511160 0.951206
In3_2 In 0.12506(2) 0.87506(2) 0.875000
In1_3 In 0.87494(2) 0.12494(2) 0.125000
Cu1_2 Cu 0.64072(2) 0.10928(2) 0.375000
O1_3 O 0.45080(11) 0.12208(12) 0.3817(2)
O2_3 O 0.80112(10) 0.12323(11) 0.09156(19)
O3_3 O 0.42237(10) 0.13286(11) 0.26060(19)
O4_3 O 0.81501(11) 0.12809(11) 0.22067(19)
N1_3 N 0.58413(13) 0.11388(14) 0.3033(2)
N2_3 N 0.67311(13) 0.11455(13) 0.2694(2)
C1_3 C 0.78704(15) 0.12467(15) 0.1634(3)
C2_3 C 0.45626(16) 0.12660(15) 0.3063(3)
C3_3 C 0.51384(16) 0.12614(17) 0.1930(3)
H1_3 H 0.489707 0.130052 0.155199
C4_3 C 0.65905(16) 0.11729(18) 0.1268(3)
H2_3 H 0.637807 0.116487 0.083593
C5_3 C 0.55911(16) 0.12267(17) 0.1678(3)
H3_3 H 0.566431 0.124268 0.112507
C6_3 C 0.70639(16) 0.11992(17) 0.1130(3)
H4_3 H 0.718020 0.121090 0.059932
C7_3 C 0.54024(17) 0.11739(17) 0.3265(3)
H5_3 H 0.533557 0.115357 0.382068
C8_3 C 0.50402(16) 0.12384(14) 0.2740(3)
C9_3 C 0.64377(15) 0.11589(15) 0.2056(3)
C10_3 C 0.71806(15) 0.11731(15) 0.2549(3)
H6_3 H 0.738840 0.116908 0.298794
C11_3 C 0.73610(15) 0.12078(16) 0.1773(3)
C12_3 C 0.59408(15) 0.11679(15) 0.2248(3)
O6_3 O 0.87323(11) 0.05112(10) 0.15844(19)
O8_3 O 0.87809(11) 0.06501(11) 0.02933(19)
C13_3 C 0.87467(15) 0.03704(15) 0.0866(3)
O9_3 O 0.95080(11) 0.12208(12) 0.1183(2)
O10_3 O 0.87208(12) 0.20080(11) 0.1317(2)
O11_3 O 0.92237(10) 0.13286(11) 0.23940(19)
O12_3 O 0.88286(11) 0.17237(10) 0.01060(19)
N5_2 N 0.63612(14) 0.16587(13) 0.4467(2)
N6_2 N 0.63545(13) 0.07689(13) 0.4806(2)
O5_3 O 0.87208(12) 0.70080(11) 0.8683(2)
O7_3 O 0.88286(11) 0.67237(10) 0.98940(19)
N3_2 N 0.86388(14) 0.83413(13) 0.9467(2)
N4_2 N 0.86455(13) 0.92311(13) 0.9806(2)
C14_3 C 0.87660(15) 0.70626(16) 0.9437(3)
C19_3 C 0.86739(17) 0.79024(17) 0.9235(3)
H11_3 H 0.865357 0.783557 0.867932
C20_3 C 0.87384(14) 0.75402(16) 0.9760(3)
C22_3 C 0.86731(15) 0.96806(15) 0.9951(3)
H12_3 H 0.866908 0.988840 0.951206
Cu2_2 Cu 0.85928(2) 0.89072(2) 0.875000
O1_4 O 0.04920(11) 0.87792(12) 0.8817(2)
O3_4 O 0.07763(10) 0.86714(11) 0.76060(19)
C2_4 C 0.04374(16) 0.87340(15) 0.8063(3)
H1_4 H 0.010293 0.869948 0.655199
O5_4 O 0.62792(12) 0.29920(11) 0.3683(2)
O7_4 O 0.61714(11) 0.32763(10) 0.48940(19)
C14_4 C 0.62340(15) 0.29374(16) 0.4437(3)
C15_3 C 0.62386(17) 0.23616(16) 0.5570(3)
H7_3 H 0.619948 0.260293 0.594801
C16_3 C 0.63271(18) 0.09095(16) 0.6232(3)
H8_3 H 0.633513 0.112193 0.666407
C17_3 C 0.62733(17) 0.19089(16) 0.5822(3)
H9_3 H 0.625732 0.183569 0.637493
C18_3 C 0.63008(17) 0.04361(16) 0.6370(3)
H10_3 H 0.628910 0.031980 0.690068
C19_4 C 0.63261(17) 0.20976(17) 0.4235(3)
H11_4 H 0.634643 0.216443 0.367932
C20_4 C 0.62616(14) 0.24598(16) 0.4760(3)
C21_3 C 0.63411(15) 0.10623(15) 0.5444(3)
C22_4 C 0.63269(15) 0.03194(15) 0.4951(3)
H12_4 H 0.633092 0.011160 0.451206
C23_3 C 0.62922(16) 0.01390(15) 0.5727(3)
C24_3 C 0.63321(15) 0.15592(15) 0.5252(3)
In1_4 In 0.62506(2) 0.87506(2) 0.625000
O2_4 O 0.69888(10) 0.87677(11) 0.59156(19)
O4_4 O 0.68499(11) 0.87191(11) 0.72067(19)
N1_4 N 0.91587(13) 0.88612(14) 0.8033(2)
N2_4 N 0.82689(13) 0.88545(13) 0.7694(2)
C1_4 C 0.71296(15) 0.87533(15) 0.6634(3)
C3_4 C 0.98616(16) 0.87386(17) 0.6930(3)
C4_4 C 0.84095(16) 0.88271(18) 0.6268(3)
H2_4 H 0.862193 0.883513 0.583593
C5_4 C 0.94089(16) 0.87733(17) 0.6678(3)
H3_4 H 0.933569 0.875732 0.612507
C6_4 C 0.79361(16) 0.88008(17) 0.6130(3)
H4_4 H 0.781980 0.878910 0.559932
C7_4 C 0.95976(17) 0.88261(17) 0.8265(3)
H5_4 H 0.966443 0.884643 0.882068
C8_4 C 0.99598(16) 0.87616(14) 0.7740(3)
C9_4 C 0.85623(15) 0.88411(15) 0.7056(3)
C10_4 C 0.78194(15) 0.88269(15) 0.7549(3)
H6_4 H 0.761160 0.883092 0.798794
C11_4 C 0.76390(15) 0.87922(16) 0.6773(3)
C12_4 C 0.90592(15) 0.88321(15) 0.7248(3)
O6_4 O 0.62677(11) 0.94888(10) 0.65844(19)
O8_4 O 0.62191(11) 0.93499(11) 0.52933(19)
C13_4 C 0.62533(15) 0.96296(15) 0.5866(3)
O9_4 O 0.54920(11) 0.87792(12) 0.6183(2)
O10_4 O 0.62792(12) 0.79920(11) 0.6317(2)
O11_4 O 0.57763(10) 0.86714(11) 0.73940(19)
O12_4 O 0.61714(11) 0.82763(10) 0.51060(19)
C14_5 C 0.04374(16) 0.37340(15) 0.1937(3)
H7_4 H 0.010293 0.369948 0.344801
Cu1_3 Cu 0.64072(2) 0.60928(2) 0.625000
O2_5 O 0.62677(11) 0.44888(10) 0.34156(19)
O4_5 O 0.62191(11) 0.43499(11) 0.47067(19)
N1_5 N 0.63612(14) 0.66587(13) 0.5533(2)
N2_5 N 0.63545(13) 0.57689(13) 0.5194(2)
C1_5 C 0.62533(15) 0.46296(15) 0.4134(3)
C2_5 C 0.62340(15) 0.79374(16) 0.5563(3)
C3_5 C 0.62386(17) 0.73616(16) 0.4430(3)
H1_5 H 0.619948 0.760293 0.405199
C4_5 C 0.63271(18) 0.59095(16) 0.3768(3)
H2_5 H 0.633513 0.612193 0.333593
C5_5 C 0.62733(17) 0.69089(16) 0.4178(3)
H3_5 H 0.625732 0.683569 0.362507
C6_5 C 0.63008(17) 0.54361(16) 0.3630(3)
H4_5 H 0.628910 0.531980 0.309932
C7_5 C 0.63261(17) 0.70976(17) 0.5765(3)
H5_5 H 0.634643 0.716443 0.632068
C8_5 C 0.62616(14) 0.74598(16) 0.5240(3)
C9_5 C 0.63411(15) 0.60623(15) 0.4556(3)
C10_5 C 0.63269(15) 0.53194(15) 0.5049(3)
H6_5 H 0.633092 0.511160 0.548794
C11_5 C 0.62922(16) 0.51390(15) 0.4273(3)
C12_5 C 0.63321(15) 0.65592(15) 0.4748(3)
O6_5 O 0.69888(10) 0.37677(11) 0.40844(19)
O8_5 O 0.68499(11) 0.37191(11) 0.27933(19)
N3_3 N 0.91587(13) 0.38612(14) 0.1967(2)
N4_3 N 0.82689(13) 0.38545(13) 0.2306(2)
C13_5 C 0.71296(15) 0.37533(15) 0.3366(3)
C15_4 C 0.98616(16) 0.37386(17) 0.3070(3)
C16_4 C 0.84095(16) 0.38271(18) 0.3732(3)
H8_4 H 0.862193 0.383513 0.416407
C17_4 C 0.94089(16) 0.37733(17) 0.3322(3)
H9_4 H 0.933569 0.375732 0.387493
C18_4 C 0.79361(16) 0.38008(17) 0.3870(3)
H10_4 H 0.781980 0.378910 0.440068
C19_5 C 0.95976(17) 0.38261(17) 0.1735(3)
H11_5 H 0.966443 0.384643 0.117932
C20_5 C 0.99598(16) 0.37616(14) 0.2260(3)
C21_4 C 0.85623(15) 0.38411(15) 0.2944(3)
C22_5 C 0.78194(15) 0.38269(15) 0.2451(3)
H12_5 H 0.761160 0.383092 0.201206
C23_4 C 0.76390(15) 0.37922(16) 0.3227(3)
C24_4 C 0.90592(15) 0.38321(15) 0.2752(3)
Cu2_3 Cu 0.85928(2) 0.39072(2) 0.125000
N5_3 N 0.58413(13) 0.61388(14) 0.6967(2)
N6_3 N 0.67311(13) 0.61455(13) 0.7306(2)
N1_6 N 0.86388(14) 0.33413(13) 0.0533(2)
N2_6 N 0.86455(13) 0.42311(13) 0.0194(2)
C2_6 C 0.87660(15) 0.20626(16) 0.0563(3)
C7_6 C 0.86739(17) 0.29024(17) 0.0765(3)
H5_6 H 0.865357 0.283557 0.132068
C8_6 C 0.87384(14) 0.25402(16) 0.0240(3)
C10_6 C 0.86731(15) 0.46806(15) 0.0049(3)
H6_6 H 0.866908 0.488840 0.048794
O2_6 O 0.87323(11) 0.55112(10) 0.84156(19)
O4_6 O 0.87809(11) 0.56501(11) 0.97067(19)
C1_6 C 0.87467(15) 0.53704(15) 0.9134(3)
C3_6 C 0.87614(17) 0.26384(16) 0.9430(3)
H1_6 H 0.880052 0.239707 0.905199
C4_6 C 0.86729(18) 0.40905(16) 0.8768(3)
H2_6 H 0.866487 0.387807 0.833593
C5_6 C 0.87267(17) 0.30911(16) 0.9178(3)
H3_6 H 0.874268 0.316431 0.862507
C6_6 C 0.86992(17) 0.45639(16) 0.8630(3)
H4_6 H 0.871090 0.468020 0.809932
C9_6 C 0.86589(15) 0.39377(15) 0.9556(3)
C11_6 C 0.87078(16) 0.48610(15) 0.9273(3)
C12_6 C 0.86679(15) 0.34408(15) 0.9748(3)
O6_6 O 0.80112(10) 0.62323(11) 0.90844(19)
O8_6 O 0.81501(11) 0.62809(11) 0.77933(19)
C13_6 C 0.78704(15) 0.62467(15) 0.8366(3)
C14_6 C 0.45626(16) 0.62660(15) 0.6937(3)
C15_5 C 0.51384(16) 0.62614(17) 0.8070(3)
H7_5 H 0.489707 0.630052 0.844801
C16_5 C 0.65905(16) 0.61729(18) 0.8732(3)
H8_5 H 0.637807 0.616487 0.916407
C17_5 C 0.55911(16) 0.62267(17) 0.8322(3)
H9_5 H 0.566431 0.624268 0.887493
C18_5 C 0.70639(16) 0.61992(17) 0.8870(3)
H10_5 H 0.718020 0.621090 0.940068
C19_6 C 0.54024(17) 0.61739(17) 0.6735(3)
H11_6 H 0.533557 0.615357 0.617932
C20_6 C 0.50402(16) 0.62384(14) 0.7260(3)
C21_5 C 0.64377(15) 0.61589(15) 0.7944(3)
C22_6 C 0.71806(15) 0.61731(15) 0.7451(3)
H12_6 H 0.738840 0.616908 0.701206
C23_5 C 0.73610(15) 0.62078(16) 0.8227(3)
C24_5 C 0.59408(15) 0.61679(15) 0.7752(3)
N3_4 N 0.13612(14) 0.16587(13) 0.0533(2)
N4_4 N 0.13545(13) 0.07689(13) 0.0194(2)
C14_7 C 0.12340(15) 0.29374(16) 0.0563(3)
C19_7 C 0.13261(17) 0.20976(17) 0.0765(3)
H11_7 H 0.134643 0.216443 0.132068
C20_7 C 0.12616(14) 0.24598(16) 0.0240(3)
C22_7 C 0.13269(15) 0.03194(15) 0.0049(3)
H12_7 H 0.133092 0.011160 0.048794
Cu2_4 Cu 0.14072(2) 0.10928(2) 0.125000
Cu1_4 Cu 0.35928(2) 0.89072(2) 0.625000
O2_7 O 0.19888(10) 0.87677(11) 0.90844(19)
O4_7 O 0.18499(11) 0.87191(11) 0.77933(19)
N1_7 N 0.41587(13) 0.88612(14) 0.6967(2)
N2_7 N 0.32689(13) 0.88545(13) 0.7306(2)
C1_7 C 0.21296(15) 0.87533(15) 0.8366(3)
C2_7 C 0.54374(16) 0.87340(15) 0.6937(3)
C3_7 C 0.48616(16) 0.87386(17) 0.8070(3)
H1_7 H 0.510293 0.869948 0.844801
C4_7 C 0.34095(16) 0.88271(18) 0.8732(3)
H2_7 H 0.362193 0.883513 0.916407
C5_7 C 0.44089(16) 0.87733(17) 0.8322(3)
H3_7 H 0.433569 0.875732 0.887493
C6_7 C 0.29361(16) 0.88008(17) 0.8870(3)
H4_7 H 0.281980 0.878910 0.940068
C7_7 C 0.45976(17) 0.88261(17) 0.6735(3)
H5_7 H 0.466443 0.884643 0.617932
C8_7 C 0.49598(16) 0.87616(14) 0.7260(3)
C9_7 C 0.35623(15) 0.88411(15) 0.7944(3)
C10_7 C 0.28194(15) 0.88269(15) 0.7451(3)
H6_7 H 0.261160 0.883092 0.701206
C11_7 C 0.26390(15) 0.87922(16) 0.8227(3)
C12_7 C 0.40592(15) 0.88321(15) 0.7752(3)
O6_7 O 0.12677(11) 0.94888(10) 0.84156(19)
O8_7 O 0.12191(11) 0.93499(11) 0.97067(19)
C13_7 C 0.12533(15) 0.96296(15) 0.9134(3)
N5_4 N 0.36388(14) 0.83413(13) 0.5533(2)
N6_4 N 0.36455(13) 0.92311(13) 0.5194(2)
O2_8 O 0.30112(10) 0.12323(11) 0.40844(19)
O4_8 O 0.31501(11) 0.12809(11) 0.27933(19)
N1_8 N 0.08413(13) 0.11388(14) 0.1967(2)
N2_8 N 0.17311(13) 0.11455(13) 0.2306(2)
C1_8 C 0.28704(15) 0.12467(15) 0.3366(3)
C3_8 C 0.01384(16) 0.12614(17) 0.3070(3)
C4_8 C 0.15905(16) 0.11729(18) 0.3732(3)
H2_8 H 0.137807 0.116487 0.416407
C5_8 C 0.05911(16) 0.12267(17) 0.3322(3)
H3_8 H 0.066431 0.124268 0.387493
C6_8 C 0.20639(16) 0.11992(17) 0.3870(3)
H4_8 H 0.218020 0.121090 0.440068
C7_8 C 0.04024(17) 0.11739(17) 0.1735(3)
H5_8 H 0.033557 0.115357 0.117932
C8_8 C 0.00402(16) 0.12384(14) 0.2260(3)
C9_8 C 0.14377(15) 0.11589(15) 0.2944(3)
C10_8 C 0.21806(15) 0.11731(15) 0.2451(3)
H6_8 H 0.238840 0.116908 0.201206
C11_8 C 0.23610(15) 0.12078(16) 0.3227(3)
C12_8 C 0.09408(15) 0.11679(15) 0.2752(3)
O6_8 O 0.37323(11) 0.05112(10) 0.34156(19)
O8_8 O 0.37809(11) 0.06501(11) 0.47067(19)
C13_8 C 0.37467(15) 0.03704(15) 0.4134(3)
C14_8 C 0.37660(15) 0.70626(16) 0.5563(3)
C15_6 C 0.37614(17) 0.76384(16) 0.4430(3)
H7_6 H 0.380052 0.739707 0.405199
C16_6 C 0.36729(18) 0.90905(16) 0.3768(3)
H8_6 H 0.366487 0.887807 0.333593
C17_6 C 0.37267(17) 0.80911(16) 0.4178(3)
H9_6 H 0.374268 0.816431 0.362507
C18_6 C 0.36992(17) 0.95639(16) 0.3630(3)
H10_6 H 0.371090 0.968020 0.309932
C19_8 C 0.36739(17) 0.79024(17) 0.5765(3)
H11_8 H 0.365357 0.783557 0.632068
C20_8 C 0.37384(14) 0.75402(16) 0.5240(3)
C21_6 C 0.36589(15) 0.89377(15) 0.4556(3)
C22_8 C 0.36731(15) 0.96806(15) 0.5049(3)
H12_8 H 0.366908 0.988840 0.548794
C23_6 C 0.37078(16) 0.98610(15) 0.4273(3)
C24_6 C 0.36679(15) 0.84408(15) 0.4748(3)
C2_8 C 0.95626(16) 0.12660(15) 0.1937(3)
H1_8 H 0.989707 0.130052 0.344801
O1_5 O 0.04920(11) 0.12208(12) 0.6183(2)
O3_5 O 0.07763(10) 0.13286(11) 0.73940(19)
C2_9 C 0.04374(16) 0.12660(15) 0.6937(3)
H1_9 H 0.010293 0.130052 0.844801
In3_3 In 0.12506(2) 0.12494(2) 0.625000
In1_5 In 0.62506(2) 0.12494(2) 0.875000
Cu1_5 Cu 0.85928(2) 0.10928(2) 0.625000
O2_9 O 0.69888(10) 0.12323(11) 0.90844(19)
O4_9 O 0.68499(11) 0.12809(11) 0.77933(19)
N1_9 N 0.91587(13) 0.11388(14) 0.6967(2)
N2_9 N 0.82689(13) 0.11455(13) 0.7306(2)
C1_9 C 0.71296(15) 0.12467(15) 0.8366(3)
C3_9 C 0.98616(16) 0.12614(17) 0.8070(3)
C4_9 C 0.84095(16) 0.11729(18) 0.8732(3)
H2_9 H 0.862193 0.116487 0.916407
C5_9 C 0.94089(16) 0.12267(17) 0.8322(3)
H3_9 H 0.933569 0.124268 0.887493
C6_9 C 0.79361(16) 0.11992(17) 0.8870(3)
H4_9 H 0.781980 0.121090 0.940068
C7_9 C 0.95976(17) 0.11739(17) 0.6735(3)
H5_9 H 0.966443 0.115357 0.617932
C8_9 C 0.99598(16) 0.12384(14) 0.7260(3)
C9_9 C 0.85623(15) 0.11589(15) 0.7944(3)
C10_9 C 0.78194(15) 0.11731(15) 0.7451(3)
H6_9 H 0.761160 0.116908 0.701206
C11_9 C 0.76390(15) 0.12078(16) 0.8227(3)
C12_9 C 0.90592(15) 0.11679(15) 0.7752(3)
O6_9 O 0.62677(11) 0.05112(10) 0.84156(19)
O8_9 O 0.62191(11) 0.06501(11) 0.97067(19)
C13_9 C 0.62533(15) 0.03704(15) 0.9134(3)
O9_5 O 0.54920(11) 0.12208(12) 0.8817(2)
O10_5 O 0.62792(12) 0.20080(11) 0.8683(2)
O11_5 O 0.57763(10) 0.13286(11) 0.76060(19)
O12_5 O 0.61714(11) 0.17237(10) 0.98940(19)
N5_5 N 0.86388(14) 0.16587(13) 0.5533(2)
N6_5 N 0.86455(13) 0.07689(13) 0.5194(2)
O5_5 O 0.62792(12) 0.70080(11) 0.1317(2)
O7_5 O 0.61714(11) 0.67237(10) 0.01060(19)
N3_5 N 0.63612(14) 0.83413(13) 0.0533(2)
N4_5 N 0.63545(13) 0.92311(13) 0.0194(2)
C14_9 C 0.62340(15) 0.70626(16) 0.0563(3)
C19_9 C 0.63261(17) 0.79024(17) 0.0765(3)
H11_9 H 0.634643 0.783557 0.132068
C20_9 C 0.62616(14) 0.75402(16) 0.0240(3)
C22_9 C 0.63269(15) 0.96806(15) 0.0049(3)
H12_9 H 0.633092 0.988840 0.048794
In2_3 In 0.62506(2) 0.62494(2) 0.125000
Cu2_5 Cu 0.64072(2) 0.89072(2) 0.125000
O5_6 O 0.87208(12) 0.29920(11) 0.6317(2)
O7_6 O 0.88286(11) 0.32763(10) 0.51060(19)
C14_10 C 0.87660(15) 0.29374(16) 0.5563(3)
C15_7 C 0.87614(17) 0.23616(16) 0.4430(3)
H7_7 H 0.880052 0.260293 0.405199
C16_7 C 0.86729(18) 0.09095(16) 0.3768(3)
H8_7 H 0.866487 0.112193 0.333593
C17_7 C 0.87267(17) 0.19089(16) 0.4178(3)
H9_7 H 0.874268 0.183569 0.362507
C18_7 C 0.86992(17) 0.04361(16) 0.3630(3)
H10_7 H 0.871090 0.031980 0.309932
C19_10 C 0.86739(17) 0.20976(17) 0.5765(3)
H11_10 H 0.865357 0.216443 0.632068
C20_10 C 0.87384(14) 0.24598(16) 0.5240(3)
C21_7 C 0.86589(15) 0.10623(15) 0.4556(3)
C22_10 C 0.86731(15) 0.03194(15) 0.5049(3)
H12_10 H 0.866908 0.011160 0.548794
C23_7 C 0.87078(16) 0.01390(15) 0.4273(3)
C24_7 C 0.86679(15) 0.15592(15) 0.4748(3)
In2_4 In 0.87494(2) 0.37506(2) 0.625000
In1_6 In 0.87494(2) 0.87506(2) 0.375000
O1_6 O 0.45080(11) 0.87792(12) 0.1183(2)
O2_10 O 0.80112(10) 0.87677(11) 0.40844(19)
O3_6 O 0.42237(10) 0.86714(11) 0.23940(19)
O4_10 O 0.81501(11) 0.87191(11) 0.27933(19)
N1_10 N 0.58413(13) 0.88612(14) 0.1967(2)
N2_10 N 0.67311(13) 0.88545(13) 0.2306(2)
C1_10 C 0.78704(15) 0.87533(15) 0.3366(3)
C2_10 C 0.45626(16) 0.87340(15) 0.1937(3)
C3_10 C 0.51384(16) 0.87386(17) 0.3070(3)
H1_10 H 0.489707 0.869948 0.344801
C4_10 C 0.65905(16) 0.88271(18) 0.3732(3)
H2_10 H 0.637807 0.883513 0.416407
C5_10 C 0.55911(16) 0.87733(17) 0.3322(3)
H3_10 H 0.566431 0.875732 0.387493
C6_10 C 0.70639(16) 0.88008(17) 0.3870(3)
H4_10 H 0.718020 0.878910 0.440068
C7_10 C 0.54024(17) 0.88261(17) 0.1735(3)
H5_10 H 0.533557 0.884643 0.117932
C8_10 C 0.50402(16) 0.87616(14) 0.2260(3)
C9_10 C 0.64377(15) 0.88411(15) 0.2944(3)
C10_10 C 0.71806(15) 0.88269(15) 0.2451(3)
H6_10 H 0.738840 0.883092 0.201206
C11_10 C 0.73610(15) 0.87922(16) 0.3227(3)
C12_10 C 0.59408(15) 0.88321(15) 0.2752(3)
O6_10 O 0.87323(11) 0.94888(10) 0.34156(19)
O8_10 O 0.87809(11) 0.93499(11) 0.47067(19)
C13_10 C 0.87467(15) 0.96296(15) 0.4134(3)
In3_4 In 0.37494(2) 0.87506(2) 0.125000
O9_6 O 0.95080(11) 0.87792(12) 0.3817(2)
O10_6 O 0.87208(12) 0.79920(11) 0.3683(2)
O11_6 O 0.92237(10) 0.86714(11) 0.26060(19)
O12_6 O 0.88286(11) 0.82763(10) 0.48940(19)
In1_7 In 0.12506(2) 0.62494(2) 0.375000
Cu1_6 Cu 0.14072(2) 0.39072(2) 0.625000
O1_7 O 0.12792(12) 0.20080(11) 0.6317(2)
O2_11 O 0.12677(11) 0.55112(10) 0.34156(19)
O3_7 O 0.11714(11) 0.17237(10) 0.51060(19)
O4_11 O 0.12191(11) 0.56501(11) 0.47067(19)
N1_11 N 0.13612(14) 0.33413(13) 0.5533(2)
N2_11 N 0.13545(13) 0.42311(13) 0.5194(2)
C1_11 C 0.12533(15) 0.53704(15) 0.4134(3)
C2_11 C 0.12340(15) 0.20626(16) 0.5563(3)
C3_11 C 0.12386(17) 0.26384(16) 0.4430(3)
H1_11 H 0.119948 0.239707 0.405199
C4_11 C 0.13271(18) 0.40905(16) 0.3768(3)
H2_11 H 0.133513 0.387807 0.333593
C5_11 C 0.12733(17) 0.30911(16) 0.4178(3)
H3_11 H 0.125732 0.316431 0.362507
C6_11 C 0.13008(17) 0.45639(16) 0.3630(3)
H4_11 H 0.128910 0.468020 0.309932
C7_11 C 0.13261(17) 0.29024(17) 0.5765(3)
H5_11 H 0.134643 0.283557 0.632068
C8_11 C 0.12616(14) 0.25402(16) 0.5240(3)
C9_11 C 0.13411(15) 0.39377(15) 0.4556(3)
C10_11 C 0.13269(15) 0.46806(15) 0.5049(3)
H6_11 H 0.133092 0.488840 0.548794
C11_11 C 0.12922(16) 0.48610(15) 0.4273(3)
C12_11 C 0.13321(15) 0.34408(15) 0.4748(3)
O5_7 O 0.54920(11) 0.62208(12) 0.1183(2)
O6_11 O 0.19888(10) 0.62323(11) 0.40844(19)
O7_7 O 0.57763(10) 0.63286(11) 0.23940(19)
O8_11 O 0.18499(11) 0.62809(11) 0.27933(19)
N3_6 N 0.41587(13) 0.61388(14) 0.1967(2)
N4_6 N 0.32689(13) 0.61455(13) 0.2306(2)
C13_11 C 0.21296(15) 0.62467(15) 0.3366(3)
C14_11 C 0.54374(16) 0.62660(15) 0.1937(3)
C15_8 C 0.48616(16) 0.62614(17) 0.3070(3)
H7_8 H 0.510293 0.630052 0.344801
C16_8 C 0.34095(16) 0.61729(18) 0.3732(3)
H8_8 H 0.362193 0.616487 0.416407
C17_8 C 0.44089(16) 0.62267(17) 0.3322(3)
H9_8 H 0.433569 0.624268 0.387493
C18_8 C 0.29361(16) 0.61992(17) 0.3870(3)
H10_8 H 0.281980 0.621090 0.440068
C19_11 C 0.45976(17) 0.61739(17) 0.1735(3)
H11_11 H 0.466443 0.615357 0.117932
C20_11 C 0.49598(16) 0.62384(14) 0.2260(3)
C21_8 C 0.35623(15) 0.61589(15) 0.2944(3)
C22_11 C 0.28194(15) 0.61731(15) 0.2451(3)
H12_11 H 0.261160 0.616908 0.201206
C23_8 C 0.26390(15) 0.62078(16) 0.3227(3)
C24_8 C 0.40592(15) 0.61679(15) 0.2752(3)
Cu2_6 Cu 0.35928(2) 0.60928(2) 0.125000
O9_7 O 0.12792(12) 0.70080(11) 0.3683(2)
O10_7 O 0.04920(11) 0.62208(12) 0.3817(2)
O11_7 O 0.11714(11) 0.67237(10) 0.48940(19)
O12_7 O 0.07763(10) 0.63286(11) 0.26060(19)
N5_6 N 0.08413(13) 0.38612(14) 0.6967(2)
N6_6 N 0.17311(13) 0.38545(13) 0.7306(2)
O1_8 O 0.37208(12) 0.79920(11) 0.1317(2)
O3_8 O 0.38286(11) 0.82763(10) 0.01060(19)
N1_12 N 0.36388(14) 0.66587(13) 0.0533(2)
N2_12 N 0.36455(13) 0.57689(13) 0.0194(2)
C2_12 C 0.37660(15) 0.79374(16) 0.0563(3)
C7_12 C 0.36739(17) 0.70976(17) 0.0765(3)
H5_12 H 0.365357 0.716443 0.132068
C8_12 C 0.37384(14) 0.74598(16) 0.0240(3)
C10_12 C 0.36731(15) 0.53194(15) 0.0049(3)
H6_12 H 0.366908 0.511160 0.048794
In1_8 In 0.37494(2) 0.37506(2) 0.875000
O2_12 O 0.37323(11) 0.44888(10) 0.84156(19)
O4_12 O 0.37809(11) 0.43499(11) 0.97067(19)
C1_12 C 0.37467(15) 0.46296(15) 0.9134(3)
C3_12 C 0.37614(17) 0.73616(16) 0.9430(3)
H1_12 H 0.380052 0.760293 0.905199
C4_12 C 0.36729(18) 0.59095(16) 0.8768(3)
H2_12 H 0.366487 0.612193 0.833593
C5_12 C 0.37267(17) 0.69089(16) 0.9178(3)
H3_12 H 0.374268 0.683569 0.862507
C6_12 C 0.36992(17) 0.54361(16) 0.8630(3)
H4_12 H 0.371090 0.531980 0.809932
C9_12 C 0.36589(15) 0.60623(15) 0.9556(3)
C11_12 C 0.37078(16) 0.51390(15) 0.9273(3)
C12_12 C 0.36679(15) 0.65592(15) 0.9748(3)
O6_12 O 0.30112(10) 0.37677(11) 0.90844(19)
O8_12 O 0.31501(11) 0.37191(11) 0.77933(19)
C13_12 C 0.28704(15) 0.37533(15) 0.8366(3)
C15_9 C 0.01384(16) 0.37386(17) 0.8070(3)
C16_9 C 0.15905(16) 0.38271(18) 0.8732(3)
H8_9 H 0.137807 0.383513 0.916407
C17_9 C 0.05911(16) 0.37733(17) 0.8322(3)
H9_9 H 0.066431 0.375732 0.887493
C18_9 C 0.20639(16) 0.38008(17) 0.8870(3)
H10_9 H 0.218020 0.378910 0.940068
C19_12 C 0.04024(17) 0.38261(17) 0.6735(3)
H11_12 H 0.033557 0.384643 0.617932
C20_12 C 0.00402(16) 0.37616(14) 0.7260(3)
C21_9 C 0.14377(15) 0.38411(15) 0.7944(3)
C22_12 C 0.21806(15) 0.38269(15) 0.7451(3)
H12_12 H 0.238840 0.383092 0.701206
C23_9 C 0.23610(15) 0.37922(16) 0.8227(3)
C24_9 C 0.09408(15) 0.38321(15) 0.7752(3)
O9_8 O 0.37208(12) 0.29920(11) 0.8683(2)
O10_8 O 0.45080(11) 0.37792(12) 0.8817(2)
O11_8 O 0.38286(11) 0.32763(10) 0.98940(19)
O12_8 O 0.42237(10) 0.36714(11) 0.76060(19)
O5_8 O 0.95080(11) 0.37792(12) 0.6183(2)
O7_8 O 0.92237(10) 0.36714(11) 0.73940(19)
C14_12 C 0.95626(16) 0.37340(15) 0.6937(3)
H7_9 H 0.989707 0.369948 0.844801
N3_7 N 0.36388(14) 0.16587(13) 0.9467(2)
N4_7 N 0.36455(13) 0.07689(13) 0.9806(2)
C14_13 C 0.37660(15) 0.29374(16) 0.9437(3)
C19_13 C 0.36739(17) 0.20976(17) 0.9235(3)
H11_13 H 0.365357 0.216443 0.867932
C20_13 C 0.37384(14) 0.24598(16) 0.9760(3)
C22_13 C 0.36731(15) 0.03194(15) 0.9951(3)
H12_13 H 0.366908 0.011160 0.951206
Cu2_7 Cu 0.35928(2) 0.10928(2) 0.875000
Cu1_7 Cu 0.14072(2) 0.89072(2) 0.375000
O2_13 O 0.30112(10) 0.87677(11) 0.09156(19)
O4_13 O 0.31501(11) 0.87191(11) 0.22067(19)
N1_13 N 0.08413(13) 0.88612(14) 0.3033(2)
N2_13 N 0.17311(13) 0.88545(13) 0.2694(2)
C1_13 C 0.28704(15) 0.87533(15) 0.1634(3)
C3_13 C 0.01384(16) 0.87386(17) 0.1930(3)
C4_13 C 0.15905(16) 0.88271(18) 0.1268(3)
H2_13 H 0.137807 0.883513 0.083593
C5_13 C 0.05911(16) 0.87733(17) 0.1678(3)
H3_13 H 0.066431 0.875732 0.112507
C6_13 C 0.20639(16) 0.88008(17) 0.1130(3)
H4_13 H 0.218020 0.878910 0.059932
C7_13 C 0.04024(17) 0.88261(17) 0.3265(3)
H5_13 H 0.033557 0.884643 0.382068
C8_13 C 0.00402(16) 0.87616(14) 0.2740(3)
C9_13 C 0.14377(15) 0.88411(15) 0.2056(3)
C10_13 C 0.21806(15) 0.88269(15) 0.2549(3)
H6_13 H 0.238840 0.883092 0.298794
C11_13 C 0.23610(15) 0.87922(16) 0.1773(3)
C12_13 C 0.09408(15) 0.88321(15) 0.2248(3)
O6_13 O 0.37323(11) 0.94888(10) 0.15844(19)
O8_13 O 0.37809(11) 0.93499(11) 0.02933(19)
C13_13 C 0.37467(15) 0.96296(15) 0.0866(3)
N5_7 N 0.13612(14) 0.83413(13) 0.4467(2)
N6_7 N 0.13545(13) 0.92311(13) 0.4806(2)
C2_13 C 0.95626(16) 0.87340(15) 0.3063(3)
H1_13 H 0.989707 0.869948 0.155199
O2_14 O 0.19888(10) 0.12323(11) 0.59156(19)
O4_14 O 0.18499(11) 0.12809(11) 0.72067(19)
N1_14 N 0.41587(13) 0.11388(14) 0.8033(2)
N2_14 N 0.32689(13) 0.11455(13) 0.7694(2)
C1_14 C 0.21296(15) 0.12467(15) 0.6634(3)
C2_14 C 0.54374(16) 0.12660(15) 0.8063(3)
C3_14 C 0.48616(16) 0.12614(17) 0.6930(3)
H1_14 H 0.510293 0.130052 0.655199
C4_14 C 0.34095(16) 0.11729(18) 0.6268(3)
H2_14 H 0.362193 0.116487 0.583593
C5_14 C 0.44089(16) 0.12267(17) 0.6678(3)
H3_14 H 0.433569 0.124268 0.612507
C6_14 C 0.29361(16) 0.11992(17) 0.6130(3)
H4_14 H 0.281980 0.121090 0.559932
C7_14 C 0.45976(17) 0.11739(17) 0.8265(3)
H5_14 H 0.466443 0.115357 0.882068
C8_14 C 0.49598(16) 0.12384(14) 0.7740(3)
C9_14 C 0.35623(15) 0.11589(15) 0.7056(3)
C10_14 C 0.28194(15) 0.11731(15) 0.7549(3)
H6_14 H 0.261160 0.116908 0.798794
C11_14 C 0.26390(15) 0.12078(16) 0.6773(3)
C12_14 C 0.40592(15) 0.11679(15) 0.7248(3)
O6_14 O 0.12677(11) 0.05112(10) 0.65844(19)
O8_14 O 0.12191(11) 0.06501(11) 0.52933(19)
C13_14 C 0.12533(15) 0.03704(15) 0.5866(3)
C14_14 C 0.12340(15) 0.70626(16) 0.4437(3)
C15_10 C 0.12386(17) 0.76384(16) 0.5570(3)
H7_10 H 0.119948 0.739707 0.594801
C16_10 C 0.13271(18) 0.90905(16) 0.6232(3)
H8_10 H 0.133513 0.887807 0.666407
C17_10 C 0.12733(17) 0.80911(16) 0.5822(3)
H9_10 H 0.125732 0.816431 0.637493
C18_10 C 0.13008(17) 0.95639(16) 0.6370(3)
H10_10 H 0.128910 0.968020 0.690068
C19_14 C 0.13261(17) 0.79024(17) 0.4235(3)
H11_14 H 0.134643 0.783557 0.367932
C20_14 C 0.12616(14) 0.75402(16) 0.4760(3)
C21_10 C 0.13411(15) 0.89377(15) 0.5444(3)
C22_14 C 0.13269(15) 0.96806(15) 0.4951(3)
H12_14 H 0.133092 0.988840 0.451206
C23_10 C 0.12922(16) 0.98610(15) 0.5727(3)
C24_10 C 0.13321(15) 0.84408(15) 0.5252(3)
Cu1_8 Cu 0.85928(2) 0.60928(2) 0.375000
O2_15 O 0.87323(11) 0.44888(10) 0.65844(19)
O4_15 O 0.87809(11) 0.43499(11) 0.52933(19)
N1_15 N 0.86388(14) 0.66587(13) 0.4467(2)
N2_15 N 0.86455(13) 0.57689(13) 0.4806(2)
C1_15 C 0.87467(15) 0.46296(15) 0.5866(3)
C2_15 C 0.87660(15) 0.79374(16) 0.4437(3)
C3_15 C 0.87614(17) 0.73616(16) 0.5570(3)
H1_15 H 0.880052 0.760293 0.594801
C4_15 C 0.86729(18) 0.59095(16) 0.6232(3)
H2_15 H 0.866487 0.612193 0.666407
C5_15 C 0.87267(17) 0.69089(16) 0.5822(3)
H3_15 H 0.874268 0.683569 0.637493
C6_15 C 0.86992(17) 0.54361(16) 0.6370(3)
H4_15 H 0.871090 0.531980 0.690068
C7_15 C 0.86739(17) 0.70976(17) 0.4235(3)
H5_15 H 0.865357 0.716443 0.367932
C8_15 C 0.87384(14) 0.74598(16) 0.4760(3)
C9_15 C 0.86589(15) 0.60623(15) 0.5444(3)
C10_15 C 0.86731(15) 0.53194(15) 0.4951(3)
H6_15 H 0.866908 0.511160 0.451206
C11_15 C 0.87078(16) 0.51390(15) 0.5727(3)
C12_15 C 0.86679(15) 0.65592(15) 0.5252(3)
O6_15 O 0.80112(10) 0.37677(11) 0.59156(19)
O8_15 O 0.81501(11) 0.37191(11) 0.72067(19)
N3_8 N 0.58413(13) 0.38612(14) 0.8033(2)
N4_8 N 0.67311(13) 0.38545(13) 0.7694(2)
C13_15 C 0.78704(15) 0.37533(15) 0.6634(3)
C14_15 C 0.45626(16) 0.37340(15) 0.8063(3)
C15_11 C 0.51384(16) 0.37386(17) 0.6930(3)
H7_11 H 0.489707 0.369948 0.655199
C16_11 C 0.65905(16) 0.38271(18) 0.6268(3)
H8_11 H 0.637807 0.383513 0.583593
C17_11 C 0.55911(16) 0.37733(17) 0.6678(3)
H9_11 H 0.566431 0.375732 0.612507
C18_11 C 0.70639(16) 0.38008(17) 0.6130(3)
H10_11 H 0.718020 0.378910 0.559932
C19_15 C 0.54024(17) 0.38261(17) 0.8265(3)
H11_15 H 0.533557 0.384643 0.882068
C20_15 C 0.50402(16) 0.37616(14) 0.7740(3)
C21_11 C 0.64377(15) 0.38411(15) 0.7056(3)
C22_15 C 0.71806(15) 0.38269(15) 0.7549(3)
H12_15 H 0.738840 0.383092 0.798794
C23_11 C 0.73610(15) 0.37922(16) 0.6773(3)
C24_11 C 0.59408(15) 0.38321(15) 0.7248(3)
Cu2_8 Cu 0.64072(2) 0.39072(2) 0.875000
N5_8 N 0.91587(13) 0.61388(14) 0.3033(2)
N6_8 N 0.82689(13) 0.61455(13) 0.2694(2)
C14_16 C 0.04374(16) 0.62660(15) 0.3063(3)
H7_12 H 0.010293 0.630052 0.155199
O2_16 O 0.62677(11) 0.55112(10) 0.15844(19)
O4_16 O 0.62191(11) 0.56501(11) 0.02933(19)
C1_16 C 0.62533(15) 0.53704(15) 0.0866(3)
C3_16 C 0.62386(17) 0.26384(16) 0.0570(3)
H1_16 H 0.619948 0.239707 0.094801
C4_16 C 0.63271(18) 0.40905(16) 0.1232(3)
H2_16 H 0.633513 0.387807 0.166407
C5_16 C 0.62733(17) 0.30911(16) 0.0822(3)
H3_16 H 0.625732 0.316431 0.137493
C6_16 C 0.63008(17) 0.45639(16) 0.1370(3)
H4_16 H 0.628910 0.468020 0.190068
C9_16 C 0.63411(15) 0.39377(15) 0.0444(3)
C11_16 C 0.62922(16) 0.48610(15) 0.0727(3)
C12_16 C 0.63321(15) 0.34408(15) 0.0252(3)
O6_16 O 0.69888(10) 0.62323(11) 0.09156(19)
O8_16 O 0.68499(11) 0.62809(11) 0.22067(19)
C13_16 C 0.71296(15) 0.62467(15) 0.1634(3)
C15_12 C 0.98616(16) 0.62614(17) 0.1930(3)
C16_12 C 0.84095(16) 0.61729(18) 0.1268(3)
H8_12 H 0.862193 0.616487 0.083593
C17_12 C 0.94089(16) 0.62267(17) 0.1678(3)
H9_12 H 0.933569 0.624268 0.112507
C18_12 C 0.79361(16) 0.61992(17) 0.1130(3)
H10_12 H 0.781980 0.621090 0.059932
C19_16 C 0.95976(17) 0.61739(17) 0.3265(3)
H11_16 H 0.966443 0.615357 0.382068
C20_16 C 0.99598(16) 0.62384(14) 0.2740(3)
C21_12 C 0.85623(15) 0.61589(15) 0.2056(3)
C22_16 C 0.78194(15) 0.61731(15) 0.2549(3)
H12_16 H 0.761160 0.616908 0.298794
C23_12 C 0.76390(15) 0.62078(16) 0.1773(3)
C24_12 C 0.90592(15) 0.61679(15) 0.2248(3)
N1_16 N 0.63612(14) 0.33413(13) 0.9467(2)
N2_16 N 0.63545(13) 0.42311(13) 0.9806(2)
C2_16 C 0.62340(15) 0.20626(16) 0.9437(3)
C7_16 C 0.63261(17) 0.29024(17) 0.9235(3)
H5_16 H 0.634643 0.283557 0.867932
C8_16 C 0.62616(14) 0.25402(16) 0.9760(3)
C10_16 C 0.63269(15) 0.46806(15) 0.9951(3)
H6_16 H 0.633092 0.488840 0.951206
C15_13 C 0.62386(17) 0.76384(16) 0.9430(3)
H7_13 H 0.619948 0.739707 0.905199
C16_13 C 0.63271(18) 0.90905(16) 0.8768(3)
H8_13 H 0.633513 0.887807 0.833593
C17_13 C 0.62733(17) 0.80911(16) 0.9178(3)
H9_13 H 0.625732 0.816431 0.862507
C18_13 C 0.63008(17) 0.95639(16) 0.8630(3)
H10_13 H 0.628910 0.968020 0.809932
C21_13 C 0.63411(15) 0.89377(15) 0.9556(3)
C23_13 C 0.62922(16) 0.98610(15) 0.9273(3)
C24_13 C 0.63321(15) 0.84408(15) 0.9748(3)
C15_14 C 0.87614(17) 0.76384(16) 0.0570(3)
H7_14 H 0.880052 0.739707 0.094801
C16_14 C 0.86729(18) 0.90905(16) 0.1232(3)
H8_14 H 0.866487 0.887807 0.166407
C17_14 C 0.87267(17) 0.80911(16) 0.0822(3)
H9_14 H 0.874268 0.816431 0.137493
C18_14 C 0.86992(17) 0.95639(16) 0.1370(3)
H10_14 H 0.871090 0.968020 0.190068
C21_14 C 0.86589(15) 0.89377(15) 0.0444(3)
C23_14 C 0.87078(16) 0.98610(15) 0.0727(3)
C24_14 C 0.86679(15) 0.84408(15) 0.0252(3)
C15_15 C 0.37614(17) 0.23616(16) 0.0570(3)
H7_15 H 0.380052 0.260293 0.094801
C16_15 C 0.36729(18) 0.09095(16) 0.1232(3)
H8_15 H 0.366487 0.112193 0.166407
C17_15 C 0.37267(17) 0.19089(16) 0.0822(3)
H9_15 H 0.374268 0.183569 0.137493
C18_15 C 0.36992(17) 0.04361(16) 0.1370(3)
H10_15 H 0.371090 0.031980 0.190068
C21_15 C 0.36589(15) 0.10623(15) 0.0444(3)
C23_15 C 0.37078(16) 0.01390(15) 0.0727(3)
C24_15 C 0.36679(15) 0.15592(15) 0.0252(3)
C15_16 C 0.12386(17) 0.23616(16) 0.9430(3)
H7_16 H 0.119948 0.260293 0.905199
C16_16 C 0.13271(18) 0.09095(16) 0.8768(3)
H8_16 H 0.133513 0.112193 0.833593
C17_16 C 0.12733(17) 0.19089(16) 0.9178(3)
H9_16 H 0.125732 0.183569 0.862507
C18_16 C 0.13008(17) 0.04361(16) 0.8630(3)
H10_16 H 0.128910 0.031980 0.809932
C21_16 C 0.13411(15) 0.10623(15) 0.9556(3)
C23_16 C 0.12922(16) 0.01390(15) 0.9273(3)
C24_16 C 0.13321(15) 0.15592(15) 0.9748(3)
loop_
_geom_bond_atom_site_label_1
_geom_bond_atom_site_label_2
_geom_bond_site_symmetry_1
_geom_bond_site_symmetry_2
In1 O2 1_555 1_555
Cu1 N1 1_555 1_555
O1 C2 1_555 1_555
O2 C1 1_555 1_555
O3 C2 1_555 1_555
O4 In1 1_555 1_555
N1 C7 1_555 1_555
N2 Cu1 1_555 1_555
C1 O4 1_555 1_555
C2 C8 1_555 1_555
C3 H1 1_555 1_555
C4 H2 1_555 1_555
C5 C3 1_555 1_555
H3 C5 1_555 1_555
C6 C4 1_555 1_555
H4 C6 1_555 1_555
C7 H5 1_555 1_555
C8 C3 1_555 1_555
C9 N2 1_555 1_555
C10 N2 1_555 1_555
H6 C10 1_555 1_555
C11 C1 1_555 1_555
C12 N1 1_555 1_555
O6 In1 1_555 1_555
O8 In1 1_555 1_555
N3 C19 1_555 1_555
N4 C21 1_555 1_555
C13 O6 1_555 1_555
C16 H8 1_555 1_555
C17 C15 1_555 1_555
H9 C17 1_555 1_555
C18 C16 1_555 1_555
H10 C18 1_555 1_555
C19 H11 1_555 1_555
C20 C15 1_555 1_555
C21 C16 1_555 1_555
C22 N4 1_555 1_555
H12 C22 1_555 1_555
C23 C13 1_555 1_555
C24 N3 1_555 1_555
In3 O1 1_555 1_555
Cu2 N3 1_555 1_555
O9 In1 1_555 1_555
O10 In1 1_555 1_555
O11 In1 1_555 1_555
O12 In1 1_555 1_555
N5 Cu1 1_555 1_555
N6 Cu1 1_555 1_555
O3 In3 1_555 1_555
C4 C9 1_555 1_555
C5 C12 1_555 1_555
C6 C11 1_555 1_555
C7 C8 1_555 1_555
C9 C12 1_555 1_555
C10 C11 1_555 1_555
O8 C13 1_555 1_555
N4 Cu2 1_555 1_555
C17 C24 1_555 1_555
C18 C23 1_555 1_555
C19 C20 1_555 1_555
C21 C24 1_555 1_555
C22 C23 1_555 1_555
O5 C14 1_555 1_555
O7 C14 1_555 1_555
In2 O5 1_555 1_555
O7 In2 1_555 1_555
In1_2 O2_2 1_555 1_555
O2_2 C1_2 1_555 1_555
O4_2 In1_2 1_555 1_555
C1_2 O4_2 1_555 1_555
C3_2 H1_2 1_555 1_555
C4_2 H2_2 1_555 1_555
C5_2 C3_2 1_555 1_555
H3_2 C5_2 1_555 1_555
C6_2 C4_2 1_555 1_555
H4_2 C6_2 1_555 1_555
C11_2 C1_2 1_555 1_555
O5_2 C14_2 1_555 1_555
O6_2 In1_2 1_555 1_555
O7_2 C14_2 1_555 1_555
O8_2 In1_2 1_555 1_555
N5 C19_2 1_555 1_555
N6 C21_2 1_555 1_555
C13_2 O6_2 1_555 1_555
C14_2 C20_2 1_555 1_555
C15_2 H7_2 1_555 1_555
C16_2 H8_2 1_555 1_555
C17_2 C15_2 1_555 1_555
H9_2 C17_2 1_555 1_555
C18_2 C16_2 1_555 1_555
H10_2 C18_2 1_555 1_555
C19_2 H11_2 1_555 1_555
C20_2 C15_2 1_555 1_555
C21_2 C16_2 1_555 1_555
C22_2 N6 1_555 1_555
H12_2 C22_2 1_555 1_555
C23_2 C13_2 1_555 1_555
C24_2 N5 1_555 1_555
In2_2 O5_2 1_555 1_555
O9_2 In1_2 1_555 1_555
O10_2 In1_2 1_555 1_555
O11_2 In1_2 1_555 1_555
O12_2 In1_2 1_555 1_555
C4_2 C9_2 1_555 1_555
C5_2 C12_2 1_555 1_555
C6_2 C11_2 1_555 1_555
C9_2 C12_2 1_555 1_555
O7_2 In2_2 1_555 1_555
O8_2 C13_2 1_555 1_555
C17_2 C24_2 1_555 1_555
C18_2 C23_2 1_555 1_555
C19_2 C20_2 1_555 1_555
C21_2 C24_2 1_555 1_555
C22_2 C23_2 1_555 1_555
Cu2 N1_2 1_555 1_555
O1_2 C2_2 1_555 1_555
O3_2 C2_2 1_555 1_555
N1_2 C7_2 1_555 1_555
N2_2 Cu2 1_555 1_555
C2_2 C8_2 1_555 1_555
C7_2 H5_2 1_555 1_555
C10_2 N2_2 1_555 1_555
H6_2 C10_2 1_555 1_555
In3_2 O1_2 1_555 1_555
O3_2 In3_2 1_555 1_555
C7_2 C8_2 1_555 1_555
In1_3 O2_3 1_555 1_555
Cu1_2 N1_3 1_555 1_555
O1_3 C2_3 1_555 1_555
O2_3 C1_3 1_555 1_555
O3_3 C2_3 1_555 1_555
O4_3 In1_3 1_555 1_555
N1_3 C7_3 1_555 1_555
N2_3 Cu1_2 1_555 1_555
C1_3 O4_3 1_555 1_555
C2_3 C8_3 1_555 1_555
C3_3 H1_3 1_555 1_555
C4_3 H2_3 1_555 1_555
C5_3 C3_3 1_555 1_555
H3_3 C5_3 1_555 1_555
C6_3 C4_3 1_555 1_555
H4_3 C6_3 1_555 1_555
C7_3 H5_3 1_555 1_555
C8_3 C3_3 1_555 1_555
C9_3 N2_3 1_555 1_555
C10_3 N2_3 1_555 1_555
H6_3 C10_3 1_555 1_555
C11_3 C1_3 1_555 1_555
C12_3 N1_3 1_555 1_555
O6_3 In1_3 1_555 1_555
O8_3 In1_3 1_555 1_555
C13_3 O6_3 1_555 1_555
In3 O1_3 1_555 1_555
O9_3 In1_3 1_555 1_555
O10_3 In1_3 1_555 1_555
O11_3 In1_3 1_555 1_555
O12_3 In1_3 1_555 1_555
N5_2 Cu1_2 1_555 1_555
N6_2 Cu1_2 1_555 1_555
O3_3 In3 1_555 1_555
C4_3 C9_3 1_555 1_555
C5_3 C12_3 1_555 1_555
C6_3 C11_3 1_555 1_555
C7_3 C8_3 1_555 1_555
C9_3 C12_3 1_555 1_555
C10_3 C11_3 1_555 1_555
O8_3 C13_3 1_555 1_555
O5_3 C14_3 1_555 1_555
O7_3 C14_3 1_555 1_555
N3_2 C19_3 1_555 1_555
C14_3 C20_3 1_555 1_555
C19_3 H11_3 1_555 1_555
C22_3 N4_2 1_555 1_555
H12_3 C22_3 1_555 1_555
In2 O5_3 1_555 1_555
Cu2_2 N3_2 1_555 1_555
O7_3 In2 1_555 1_555
N4_2 Cu2_2 1_555 1_555
C19_3 C20_3 1_555 1_555
O1_4 C2_4 1_555 1_555
O3_4 C2_4 1_555 1_555
In3_2 O1_4 1_555 1_555
O3_4 In3_2 1_555 1_555
O5_4 C14_4 1_555 1_555
O7_4 C14_4 1_555 1_555
N5_2 C19_4 1_555 1_555
N6_2 C21_3 1_555 1_555
C14_4 C20_4 1_555 1_555
C15_3 H7_3 1_555 1_555
C16_3 H8_3 1_555 1_555
C17_3 C15_3 1_555 1_555
H9_3 C17_3 1_555 1_555
C18_3 C16_3 1_555 1_555
H10_3 C18_3 1_555 1_555
C19_4 H11_4 1_555 1_555
C20_4 C15_3 1_555 1_555
C21_3 C16_3 1_555 1_555
C22_4 N6_2 1_555 1_555
H12_4 C22_4 1_555 1_555
C24_3 N5_2 1_555 1_555
In2_2 O5_4 1_555 1_555
O7_4 In2_2 1_555 1_555
C17_3 C24_3 1_555 1_555
C18_3 C23_3 1_555 1_555
C19_4 C20_4 1_555 1_555
C21_3 C24_3 1_555 1_555
C22_4 C23_3 1_555 1_555
In1_4 O2_4 1_555 1_555
Cu2_2 N1_4 1_555 1_555
O2_4 C1_4 1_555 1_555
O4_4 In1_4 1_555 1_555
N1_4 C7_4 1_555 1_555
N2_4 Cu2_2 1_555 1_555
C1_4 O4_4 1_555 1_555
C4_4 H2_4 1_555 1_555
C5_4 C3_4 1_555 1_555
H3_4 C5_4 1_555 1_555
C6_4 C4_4 1_555 1_555
H4_4 C6_4 1_555 1_555
C7_4 H5_4 1_555 1_555
C8_4 C3_4 1_555 1_555
C9_4 N2_4 1_555 1_555
C10_4 N2_4 1_555 1_555
H6_4 C10_4 1_555 1_555
C11_4 C1_4 1_555 1_555
C12_4 N1_4 1_555 1_555
O6_4 In1_4 1_555 1_555
O8_4 In1_4 1_555 1_555
C13_4 O6_4 1_555 1_555
O9_4 In1_4 1_555 1_555
O10_4 In1_4 1_555 1_555
O11_4 In1_4 1_555 1_555
O12_4 In1_4 1_555 1_555
C4_4 C9_4 1_555 1_555
C5_4 C12_4 1_555 1_555
C6_4 C11_4 1_555 1_555
C7_4 C8_4 1_555 1_555
C9_4 C12_4 1_555 1_555
C10_4 C11_4 1_555 1_555
O8_4 C13_4 1_555 1_555
O10_2 C14_5 1_555 1_555
O12_2 C14_5 1_555 1_555
In2_2 O2_5 1_555 1_555
Cu1_3 N1_5 1_555 1_555
O10_4 C2_5 1_555 1_555
O2_5 C1_5 1_555 1_555
O12_4 C2_5 1_555 1_555
O4_5 In2_2 1_555 1_555
N1_5 C7_5 1_555 1_555
N2_5 Cu1_3 1_555 1_555
C1_5 O4_5 1_555 1_555
C2_5 C8_5 1_555 1_555
C3_5 H1_5 1_555 1_555
C4_5 H2_5 1_555 1_555
C5_5 C3_5 1_555 1_555
H3_5 C5_5 1_555 1_555
C6_5 C4_5 1_555 1_555
H4_5 C6_5 1_555 1_555
C7_5 H5_5 1_555 1_555
C8_5 C3_5 1_555 1_555
C9_5 N2_5 1_555 1_555
C10_5 N2_5 1_555 1_555
H6_5 C10_5 1_555 1_555
C11_5 C1_5 1_555 1_555
C12_5 N1_5 1_555 1_555
O6_5 In2_2 1_555 1_555
O8_5 In2_2 1_555 1_555
N3_3 C19_5 1_555 1_555
N4_3 C21_4 1_555 1_555
C13_5 O6_5 1_555 1_555
C16_4 H8_4 1_555 1_555
C17_4 C15_4 1_555 1_555
H9_4 C17_4 1_555 1_555
C18_4 C16_4 1_555 1_555
H10_4 C18_4 1_555 1_555
C19_5 H11_5 1_555 1_555
C20_5 C15_4 1_555 1_555
C21_4 C16_4 1_555 1_555
C22_5 N4_3 1_555 1_555
H12_5 C22_5 1_555 1_555
C23_4 C13_5 1_555 1_555
C24_4 N3_3 1_555 1_555
Cu2_3 N3_3 1_555 1_555
N5_3 Cu1_3 1_555 1_555
N6_3 Cu1_3 1_555 1_555
C4_5 C9_5 1_555 1_555
C5_5 C12_5 1_555 1_555
C6_5 C11_5 1_555 1_555
C7_5 C8_5 1_555 1_555
C9_5 C12_5 1_555 1_555
C10_5 C11_5 1_555 1_555
O8_5 C13_5 1_555 1_555
N4_3 Cu2_3 1_555 1_555
C17_4 C24_4 1_555 1_555
C18_4 C23_4 1_555 1_555
C19_5 C20_5 1_555 1_555
C21_4 C24_4 1_555 1_555
C22_5 C23_4 1_555 1_555
Cu2_3 N1_6 1_555 1_555
O10_3 C2_6 1_555 1_555
O12_3 C2_6 1_555 1_555
N1_6 C7_6 1_555 1_555
N2_6 Cu2_3 1_555 1_555
C2_6 C8_6 1_555 1_555
C7_6 H5_6 1_555 1_555
C10_6 N2_6 1_555 1_555
H6_6 C10_6 1_555 1_555
C7_6 C8_6 1_555 1_555
In2 O2_6 1_555 1_555
O2_6 C1_6 1_555 1_555
O4_6 In2 1_555 1_555
C1_6 O4_6 1_555 1_555
C3_6 H1_6 1_555 1_555
C4_6 H2_6 1_555 1_555
C5_6 C3_6 1_555 1_555
H3_6 C5_6 1_555 1_555
C6_6 C4_6 1_555 1_555
H4_6 C6_6 1_555 1_555
C11_6 C1_6 1_555 1_555
O10 C14_6 1_555 1_555
O6_6 In2 1_555 1_555
O12 C14_6 1_555 1_555
O8_6 In2 1_555 1_555
N5_3 C19_6 1_555 1_555
N6_3 C21_5 1_555 1_555
C13_6 O6_6 1_555 1_555
C14_6 C20_6 1_555 1_555
C15_5 H7_5 1_555 1_555
C16_5 H8_5 1_555 1_555
C17_5 C15_5 1_555 1_555
H9_5 C17_5 1_555 1_555
C18_5 C16_5 1_555 1_555
H10_5 C18_5 1_555 1_555
C19_6 H11_6 1_555 1_555
C20_6 C15_5 1_555 1_555
C21_5 C16_5 1_555 1_555
C22_6 N6_3 1_555 1_555
H12_6 C22_6 1_555 1_555
C23_5 C13_6 1_555 1_555
C24_5 N5_3 1_555 1_555
C4_6 C9_6 1_555 1_555
C5_6 C12_6 1_555 1_555
C6_6 C11_6 1_555 1_555
C9_6 C12_6 1_555 1_555
O8_6 C13_6 1_555 1_555
C17_5 C24_5 1_555 1_555
C18_5 C23_5 1_555 1_555
C19_6 C20_6 1_555 1_555
C21_5 C24_5 1_555 1_555
C22_6 C23_5 1_555 1_555
O9_2 C14_7 1_555 1_555
O11_2 C14_7 1_555 1_555
N3_4 C19_7 1_555 1_555
C14_7 C20_7 1_555 1_555
C19_7 H11_7 1_555 1_555
C22_7 N4_4 1_555 1_555
H12_7 C22_7 1_555 1_555
Cu2_4 N3_4 1_555 1_555
N4_4 Cu2_4 1_555 1_555
C19_7 C20_7 1_555 1_555
In3_2 O2_7 1_555 1_555
Cu1_4 N1_7 1_555 1_555
O9_4 C2_7 1_555 1_555
O2_7 C1_7 1_555 1_555
O11_4 C2_7 1_555 1_555
O4_7 In3_2 1_555 1_555
N1_7 C7_7 1_555 1_555
N2_7 Cu1_4 1_555 1_555
C1_7 O4_7 1_555 1_555
C2_7 C8_7 1_555 1_555
C3_7 H1_7 1_555 1_555
C4_7 H2_7 1_555 1_555
C5_7 C3_7 1_555 1_555
H3_7 C5_7 1_555 1_555
C6_7 C4_7 1_555 1_555
H4_7 C6_7 1_555 1_555
C7_7 H5_7 1_555 1_555
C8_7 C3_7 1_555 1_555
C9_7 N2_7 1_555 1_555
C10_7 N2_7 1_555 1_555
H6_7 C10_7 1_555 1_555
C11_7 C1_7 1_555 1_555
C12_7 N1_7 1_555 1_555
O6_7 In3_2 1_555 1_555
O8_7 In3_2 1_555 1_555
C13_7 O6_7 1_555 1_555
N5_4 Cu1_4 1_555 1_555
N6_4 Cu1_4 1_555 1_555
C4_7 C9_7 1_555 1_555
C5_7 C12_7 1_555 1_555
C6_7 C11_7 1_555 1_555
C7_7 C8_7 1_555 1_555
C9_7 C12_7 1_555 1_555
C10_7 C11_7 1_555 1_555
O8_7 C13_7 1_555 1_555
In3 O2_8 1_555 1_555
Cu2_4 N1_8 1_555 1_555
O2_8 C1_8 1_555 1_555
O4_8 In3 1_555 1_555
N1_8 C7_8 1_555 1_555
N2_8 Cu2_4 1_555 1_555
C1_8 O4_8 1_555 1_555
C4_8 H2_8 1_555 1_555
C5_8 C3_8 1_555 1_555
H3_8 C5_8 1_555 1_555
C6_8 C4_8 1_555 1_555
H4_8 C6_8 1_555 1_555
C7_8 H5_8 1_555 1_555
C8_8 C3_8 1_555 1_555
C9_8 N2_8 1_555 1_555
C10_8 N2_8 1_555 1_555
H6_8 C10_8 1_555 1_555
C11_8 C1_8 1_555 1_555
C12_8 N1_8 1_555 1_555
O6_8 In3 1_555 1_555
O8_8 In3 1_555 1_555
C13_8 O6_8 1_555 1_555
C4_8 C9_8 1_555 1_555
C5_8 C12_8 1_555 1_555
C6_8 C11_8 1_555 1_555
C7_8 C8_8 1_555 1_555
C9_8 C12_8 1_555 1_555
C10_8 C11_8 1_555 1_555
O8_8 C13_8 1_555 1_555
O9 C14_8 1_555 1_555
O11 C14_8 1_555 1_555
N5_4 C19_8 1_555 1_555
N6_4 C21_6 1_555 1_555
C14_8 C20_8 1_555 1_555
C15_6 H7_6 1_555 1_555
C16_6 H8_6 1_555 1_555
C17_6 C15_6 1_555 1_555
H9_6 C17_6 1_555 1_555
C18_6 C16_6 1_555 1_555
H10_6 C18_6 1_555 1_555
C19_8 H11_8 1_555 1_555
C20_8 C15_6 1_555 1_555
C21_6 C16_6 1_555 1_555
C22_8 N6_4 1_555 1_555
H12_8 C22_8 1_555 1_555
C24_6 N5_4 1_555 1_555
C17_6 C24_6 1_555 1_555
C18_6 C23_6 1_555 1_555
C19_8 C20_8 1_555 1_555
C21_6 C24_6 1_555 1_555
C22_8 C23_6 1_555 1_555
O9_3 C2_8 1_555 1_555
O11_3 C2_8 1_555 1_555
O1_5 C2_9 1_555 1_555
O3_5 C2_9 1_555 1_555
In3_3 O1_5 1_555 1_555
O3_5 In3_3 1_555 1_555
In1_5 O2_9 1_555 1_555
Cu1_5 N1_9 1_555 1_555
O2_9 C1_9 1_555 1_555
O4_9 In1_5 1_555 1_555
N1_9 C7_9 1_555 1_555
N2_9 Cu1_5 1_555 1_555
C1_9 O4_9 1_555 1_555
C4_9 H2_9 1_555 1_555
C5_9 C3_9 1_555 1_555
H3_9 C5_9 1_555 1_555
C6_9 C4_9 1_555 1_555
H4_9 C6_9 1_555 1_555
C7_9 H5_9 1_555 1_555
C8_9 C3_9 1_555 1_555
C9_9 N2_9 1_555 1_555
C10_9 N2_9 1_555 1_555
H6_9 C10_9 1_555 1_555
C11_9 C1_9 1_555 1_555
C12_9 N1_9 1_555 1_555
O6_9 In1_5 1_555 1_555
O8_9 In1_5 1_555 1_555
C13_9 O6_9 1_555 1_555
O9_5 In1_5 1_555 1_555
O10_5 In1_5 1_555 1_555
O11_5 In1_5 1_555 1_555
O12_5 In1_5 1_555 1_555
N5_5 Cu1_5 1_555 1_555
N6_5 Cu1_5 1_555 1_555
C4_9 C9_9 1_555 1_555
C5_9 C12_9 1_555 1_555
C6_9 C11_9 1_555 1_555
C7_9 C8_9 1_555 1_555
C9_9 C12_9 1_555 1_555
C10_9 C11_9 1_555 1_555
O8_9 C13_9 1_555 1_555
O5_5 C14_9 1_555 1_555
O7_5 C14_9 1_555 1_555
N3_5 C19_9 1_555 1_555
C14_9 C20_9 1_555 1_555
C19_9 H11_9 1_555 1_555
C22_9 N4_5 1_555 1_555
H12_9 C22_9 1_555 1_555
In2_3 O5_5 1_555 1_555
Cu2_5 N3_5 1_555 1_555
O7_5 In2_3 1_555 1_555
N4_5 Cu2_5 1_555 1_555
C19_9 C20_9 1_555 1_555
O5_6 C14_10 1_555 1_555
O7_6 C14_10 1_555 1_555
N5_5 C19_10 1_555 1_555
N6_5 C21_7 1_555 1_555
C14_10 C20_10 1_555 1_555
C15_7 H7_7 1_555 1_555
C16_7 H8_7 1_555 1_555
C17_7 C15_7 1_555 1_555
H9_7 C17_7 1_555 1_555
C18_7 C16_7 1_555 1_555
H10_7 C18_7 1_555 1_555
C19_10 H11_10 1_555 1_555
C20_10 C15_7 1_555 1_555
C21_7 C16_7 1_555 1_555
C22_10 N6_5 1_555 1_555
H12_10 C22_10 1_555 1_555
C24_7 N5_5 1_555 1_555
In2_4 O5_6 1_555 1_555
O7_6 In2_4 1_555 1_555
C17_7 C24_7 1_555 1_555
C18_7 C23_7 1_555 1_555
C19_10 C20_10 1_555 1_555
C21_7 C24_7 1_555 1_555
C22_10 C23_7 1_555 1_555
In1_6 O2_10 1_555 1_555
Cu2_5 N1_10 1_555 1_555
O1_6 C2_10 1_555 1_555
O2_10 C1_10 1_555 1_555
O3_6 C2_10 1_555 1_555
O4_10 In1_6 1_555 1_555
N1_10 C7_10 1_555 1_555
N2_10 Cu2_5 1_555 1_555
C1_10 O4_10 1_555 1_555
C2_10 C8_10 1_555 1_555
C3_10 H1_10 1_555 1_555
C4_10 H2_10 1_555 1_555
C5_10 C3_10 1_555 1_555
H3_10 C5_10 1_555 1_555
C6_10 C4_10 1_555 1_555
H4_10 C6_10 1_555 1_555
C7_10 H5_10 1_555 1_555
C8_10 C3_10 1_555 1_555
C9_10 N2_10 1_555 1_555
C10_10 N2_10 1_555 1_555
H6_10 C10_10 1_555 1_555
C11_10 C1_10 1_555 1_555
C12_10 N1_10 1_555 1_555
O6_10 In1_6 1_555 1_555
O8_10 In1_6 1_555 1_555
C13_10 O6_10 1_555 1_555
In3_4 O1_6 1_555 1_555
O9_6 In1_6 1_555 1_555
O10_6 In1_6 1_555 1_555
O11_6 In1_6 1_555 1_555
O12_6 In1_6 1_555 1_555
O3_6 In3_4 1_555 1_555
C4_10 C9_10 1_555 1_555
C5_10 C12_10 1_555 1_555
C6_10 C11_10 1_555 1_555
C7_10 C8_10 1_555 1_555
C9_10 C12_10 1_555 1_555
C10_10 C11_10 1_555 1_555
O8_10 C13_10 1_555 1_555
In1_7 O2_11 1_555 1_555
Cu1_6 N1_11 1_555 1_555
O1_7 C2_11 1_555 1_555
O2_11 C1_11 1_555 1_555
O3_7 C2_11 1_555 1_555
O4_11 In1_7 1_555 1_555
N1_11 C7_11 1_555 1_555
N2_11 Cu1_6 1_555 1_555
C1_11 O4_11 1_555 1_555
C2_11 C8_11 1_555 1_555
C3_11 H1_11 1_555 1_555
C4_11 H2_11 1_555 1_555
C5_11 C3_11 1_555 1_555
H3_11 C5_11 1_555 1_555
C6_11 C4_11 1_555 1_555
H4_11 C6_11 1_555 1_555
C7_11 H5_11 1_555 1_555
C8_11 C3_11 1_555 1_555
C9_11 N2_11 1_555 1_555
C10_11 N2_11 1_555 1_555
H6_11 C10_11 1_555 1_555
C11_11 C1_11 1_555 1_555
C12_11 N1_11 1_555 1_555
O5_7 C14_11 1_555 1_555
O6_11 In1_7 1_555 1_555
O7_7 C14_11 1_555 1_555
O8_11 In1_7 1_555 1_555
N3_6 C19_11 1_555 1_555
N4_6 C21_8 1_555 1_555
C13_11 O6_11 1_555 1_555
C14_11 C20_11 1_555 1_555
C15_8 H7_8 1_555 1_555
C16_8 H8_8 1_555 1_555
C17_8 C15_8 1_555 1_555
H9_8 C17_8 1_555 1_555
C18_8 C16_8 1_555 1_555
H10_8 C18_8 1_555 1_555
C19_11 H11_11 1_555 1_555
C20_11 C15_8 1_555 1_555
C21_8 C16_8 1_555 1_555
C22_11 N4_6 1_555 1_555
H12_11 C22_11 1_555 1_555
C23_8 C13_11 1_555 1_555
C24_8 N3_6 1_555 1_555
In2_3 O5_7 1_555 1_555
In3_3 O1_7 1_555 1_555
Cu2_6 N3_6 1_555 1_555
O9_7 In1_7 1_555 1_555
O10_7 In1_7 1_555 1_555
O11_7 In1_7 1_555 1_555
O12_7 In1_7 1_555 1_555
N5_6 Cu1_6 1_555 1_555
N6_6 Cu1_6 1_555 1_555
O3_7 In3_3 1_555 1_555
C4_11 C9_11 1_555 1_555
C5_11 C12_11 1_555 1_555
C6_11 C11_11 1_555 1_555
C7_11 C8_11 1_555 1_555
C9_11 C12_11 1_555 1_555
C10_11 C11_11 1_555 1_555
O7_7 In2_3 1_555 1_555
O8_11 C13_11 1_555 1_555
N4_6 Cu2_6 1_555 1_555
C17_8 C24_8 1_555 1_555
C18_8 C23_8 1_555 1_555
C19_11 C20_11 1_555 1_555
C21_8 C24_8 1_555 1_555
C22_11 C23_8 1_555 1_555
Cu2_6 N1_12 1_555 1_555
O1_8 C2_12 1_555 1_555
O3_8 C2_12 1_555 1_555
N1_12 C7_12 1_555 1_555
N2_12 Cu2_6 1_555 1_555
C2_12 C8_12 1_555 1_555
C7_12 H5_12 1_555 1_555
C10_12 N2_12 1_555 1_555
H6_12 C10_12 1_555 1_555
In3_4 O1_8 1_555 1_555
O3_8 In3_4 1_555 1_555
C7_12 C8_12 1_555 1_555
In1_8 O2_12 1_555 1_555
O2_12 C1_12 1_555 1_555
O4_12 In1_8 1_555 1_555
C1_12 O4_12 1_555 1_555
C3_12 H1_12 1_555 1_555
C4_12 H2_12 1_555 1_555
C5_12 C3_12 1_555 1_555
H3_12 C5_12 1_555 1_555
C6_12 C4_12 1_555 1_555
H4_12 C6_12 1_555 1_555
C11_12 C1_12 1_555 1_555
O6_12 In1_8 1_555 1_555
O8_12 In1_8 1_555 1_555
N5_6 C19_12 1_555 1_555
N6_6 C21_9 1_555 1_555
C13_12 O6_12 1_555 1_555
C16_9 H8_9 1_555 1_555
C17_9 C15_9 1_555 1_555
H9_9 C17_9 1_555 1_555
C18_9 C16_9 1_555 1_555
H10_9 C18_9 1_555 1_555
C19_12 H11_12 1_555 1_555
C20_12 C15_9 1_555 1_555
C21_9 C16_9 1_555 1_555
C22_12 N6_6 1_555 1_555
H12_12 C22_12 1_555 1_555
C23_9 C13_12 1_555 1_555
C24_9 N5_6 1_555 1_555
O9_8 In1_8 1_555 1_555
O10_8 In1_8 1_555 1_555
O11_8 In1_8 1_555 1_555
O12_8 In1_8 1_555 1_555
C4_12 C9_12 1_555 1_555
C5_12 C12_12 1_555 1_555
C6_12 C11_12 1_555 1_555
C9_12 C12_12 1_555 1_555
O8_12 C13_12 1_555 1_555
C17_9 C24_9 1_555 1_555
C18_9 C23_9 1_555 1_555
C19_12 C20_12 1_555 1_555
C21_9 C24_9 1_555 1_555
C22_12 C23_9 1_555 1_555
O5_8 C14_12 1_555 1_555
O7_8 C14_12 1_555 1_555
In2_4 O5_8 1_555 1_555
O7_8 In2_4 1_555 1_555
O9_8 C14_13 1_555 1_555
O11_8 C14_13 1_555 1_555
N3_7 C19_13 1_555 1_555
C14_13 C20_13 1_555 1_555
C19_13 H11_13 1_555 1_555
C22_13 N4_7 1_555 1_555
H12_13 C22_13 1_555 1_555
Cu2_7 N3_7 1_555 1_555
N4_7 Cu2_7 1_555 1_555
C19_13 C20_13 1_555 1_555
In3_4 O2_13 1_555 1_555
Cu1_7 N1_13 1_555 1_555
O2_13 C1_13 1_555 1_555
O4_13 In3_4 1_555 1_555
N1_13 C7_13 1_555 1_555
N2_13 Cu1_7 1_555 1_555
C1_13 O4_13 1_555 1_555
C4_13 H2_13 1_555 1_555
C5_13 C3_13 1_555 1_555
H3_13 C5_13 1_555 1_555
C6_13 C4_13 1_555 1_555
H4_13 C6_13 1_555 1_555
C7_13 H5_13 1_555 1_555
C8_13 C3_13 1_555 1_555
C9_13 N2_13 1_555 1_555
C10_13 N2_13 1_555 1_555
H6_13 C10_13 1_555 1_555
C11_13 C1_13 1_555 1_555
C12_13 N1_13 1_555 1_555
O6_13 In3_4 1_555 1_555
O8_13 In3_4 1_555 1_555
C13_13 O6_13 1_555 1_555
N5_7 Cu1_7 1_555 1_555
N6_7 Cu1_7 1_555 1_555
C4_13 C9_13 1_555 1_555
C5_13 C12_13 1_555 1_555
C6_13 C11_13 1_555 1_555
C7_13 C8_13 1_555 1_555
C9_13 C12_13 1_555 1_555
C10_13 C11_13 1_555 1_555
O8_13 C13_13 1_555 1_555
O9_6 C2_13 1_555 1_555
O11_6 C2_13 1_555 1_555
In3_3 O2_14 1_555 1_555
Cu2_7 N1_14 1_555 1_555
O9_5 C2_14 1_555 1_555
O2_14 C1_14 1_555 1_555
O11_5 C2_14 1_555 1_555
O4_14 In3_3 1_555 1_555
N1_14 C7_14 1_555 1_555
N2_14 Cu2_7 1_555 1_555
C1_14 O4_14 1_555 1_555
C2_14 C8_14 1_555 1_555
C3_14 H1_14 1_555 1_555
C4_14 H2_14 1_555 1_555
C5_14 C3_14 1_555 1_555
H3_14 C5_14 1_555 1_555
C6_14 C4_14 1_555 1_555
H4_14 C6_14 1_555 1_555
C7_14 H5_14 1_555 1_555
C8_14 C3_14 1_555 1_555
C9_14 N2_14 1_555 1_555
C10_14 N2_14 1_555 1_555
H6_14 C10_14 1_555 1_555
C11_14 C1_14 1_555 1_555
C12_14 N1_14 1_555 1_555
O6_14 In3_3 1_555 1_555
O8_14 In3_3 1_555 1_555
C13_14 O6_14 1_555 1_555
C4_14 C9_14 1_555 1_555
C5_14 C12_14 1_555 1_555
C6_14 C11_14 1_555 1_555
C7_14 C8_14 1_555 1_555
C9_14 C12_14 1_555 1_555
C10_14 C11_14 1_555 1_555
O8_14 C13_14 1_555 1_555
O9_7 C14_14 1_555 1_555
O11_7 C14_14 1_555 1_555
N5_7 C19_14 1_555 1_555
N6_7 C21_10 1_555 1_555
C14_14 C20_14 1_555 1_555
C15_10 H7_10 1_555 1_555
C16_10 H8_10 1_555 1_555
C17_10 C15_10 1_555 1_555
H9_10 C17_10 1_555 1_555
C18_10 C16_10 1_555 1_555
H10_10 C18_10 1_555 1_555
C19_14 H11_14 1_555 1_555
C20_14 C15_10 1_555 1_555
C21_10 C16_10 1_555 1_555
C22_14 N6_7 1_555 1_555
H12_14 C22_14 1_555 1_555
C24_10 N5_7 1_555 1_555
C17_10 C24_10 1_555 1_555
C18_10 C23_10 1_555 1_555
C19_14 C20_14 1_555 1_555
C21_10 C24_10 1_555 1_555
C22_14 C23_10 1_555 1_555
In2_4 O2_15 1_555 1_555
Cu1_8 N1_15 1_555 1_555
O10_6 C2_15 1_555 1_555
O2_15 C1_15 1_555 1_555
O12_6 C2_15 1_555 1_555
O4_15 In2_4 1_555 1_555
N1_15 C7_15 1_555 1_555
N2_15 Cu1_8 1_555 1_555
C1_15 O4_15 1_555 1_555
C2_15 C8_15 1_555 1_555
C3_15 H1_15 1_555 1_555
C4_15 H2_15 1_555 1_555
C5_15 C3_15 1_555 1_555
H3_15 C5_15 1_555 1_555
C6_15 C4_15 1_555 1_555
H4_15 C6_15 1_555 1_555
C7_15 H5_15 1_555 1_555
C8_15 C3_15 1_555 1_555
C9_15 N2_15 1_555 1_555
C10_15 N2_15 1_555 1_555
H6_15 C10_15 1_555 1_555
C11_15 C1_15 1_555 1_555
C12_15 N1_15 1_555 1_555
O10_8 C14_15 1_555 1_555
O6_15 In2_4 1_555 1_555
O12_8 C14_15 1_555 1_555
O8_15 In2_4 1_555 1_555
N3_8 C19_15 1_555 1_555
N4_8 C21_11 1_555 1_555
C13_15 O6_15 1_555 1_555
C14_15 C20_15 1_555 1_555
C15_11 H7_11 1_555 1_555
C16_11 H8_11 1_555 1_555
C17_11 C15_11 1_555 1_555
H9_11 C17_11 1_555 1_555
C18_11 C16_11 1_555 1_555
H10_11 C18_11 1_555 1_555
C19_15 H11_15 1_555 1_555
C20_15 C15_11 1_555 1_555
C21_11 C16_11 1_555 1_555
C22_15 N4_8 1_555 1_555
H12_15 C22_15 1_555 1_555
C23_11 C13_15 1_555 1_555
C24_11 N3_8 1_555 1_555
Cu2_8 N3_8 1_555 1_555
N5_8 Cu1_8 1_555 1_555
N6_8 Cu1_8 1_555 1_555
C4_15 C9_15 1_555 1_555
C5_15 C12_15 1_555 1_555
C6_15 C11_15 1_555 1_555
C7_15 C8_15 1_555 1_555
C9_15 C12_15 1_555 1_555
C10_15 C11_15 1_555 1_555
O8_15 C13_15 1_555 1_555
N4_8 Cu2_8 1_555 1_555
C17_11 C24_11 1_555 1_555
C18_11 C23_11 1_555 1_555
C19_15 C20_15 1_555 1_555
C21_11 C24_11 1_555 1_555
C22_15 C23_11 1_555 1_555
O10_7 C14_16 1_555 1_555
O12_7 C14_16 1_555 1_555
In2_3 O2_16 1_555 1_555
O2_16 C1_16 1_555 1_555
O4_16 In2_3 1_555 1_555
C1_16 O4_16 1_555 1_555
C3_16 H1_16 1_555 1_555
C4_16 H2_16 1_555 1_555
C5_16 C3_16 1_555 1_555
H3_16 C5_16 1_555 1_555
C6_16 C4_16 1_555 1_555
H4_16 C6_16 1_555 1_555
C11_16 C1_16 1_555 1_555
O6_16 In2_3 1_555 1_555
O8_16 In2_3 1_555 1_555
N5_8 C19_16 1_555 1_555
N6_8 C21_12 1_555 1_555
C13_16 O6_16 1_555 1_555
C16_12 H8_12 1_555 1_555
C17_12 C15_12 1_555 1_555
H9_12 C17_12 1_555 1_555
C18_12 C16_12 1_555 1_555
H10_12 C18_12 1_555 1_555
C19_16 H11_16 1_555 1_555
C20_16 C15_12 1_555 1_555
C21_12 C16_12 1_555 1_555
C22_16 N6_8 1_555 1_555
H12_16 C22_16 1_555 1_555
C23_12 C13_16 1_555 1_555
C24_12 N5_8 1_555 1_555
C4_16 C9_16 1_555 1_555
C5_16 C12_16 1_555 1_555
C6_16 C11_16 1_555 1_555
C9_16 C12_16 1_555 1_555
O8_16 C13_16 1_555 1_555
C17_12 C24_12 1_555 1_555
C18_12 C23_12 1_555 1_555
C19_16 C20_16 1_555 1_555
C21_12 C24_12 1_555 1_555
C22_16 C23_12 1_555 1_555
Cu2_8 N1_16 1_555 1_555
O10_5 C2_16 1_555 1_555
O12_5 C2_16 1_555 1_555
N1_16 C7_16 1_555 1_555
N2_16 Cu2_8 1_555 1_555
C2_16 C8_16 1_555 1_555
C7_16 H5_16 1_555 1_555
C10_16 N2_16 1_555 1_555
H6_16 C10_16 1_555 1_555
C7_16 C8_16 1_555 1_555
C15_13 H7_13 1_555 1_555
C16_13 H8_13 1_555 1_555
C17_13 C15_13 1_555 1_555
H9_13 C17_13 1_555 1_555
C18_13 C16_13 1_555 1_555
H10_13 C18_13 1_555 1_555
C21_13 C16_13 1_555 1_555
C17_13 C24_13 1_555 1_555
C18_13 C23_13 1_555 1_555
C21_13 C24_13 1_555 1_555
C15_14 H7_14 1_555 1_555
C16_14 H8_14 1_555 1_555
C17_14 C15_14 1_555 1_555
H9_14 C17_14 1_555 1_555
C18_14 C16_14 1_555 1_555
H10_14 C18_14 1_555 1_555
C21_14 C16_14 1_555 1_555
C17_14 C24_14 1_555 1_555
C18_14 C23_14 1_555 1_555
C21_14 C24_14 1_555 1_555
C15_15 H7_15 1_555 1_555
C16_15 H8_15 1_555 1_555
C17_15 C15_15 1_555 1_555
H9_15 C17_15 1_555 1_555
C18_15 C16_15 1_555 1_555
H10_15 C18_15 1_555 1_555
C21_15 C16_15 1_555 1_555
C17_15 C24_15 1_555 1_555
C18_15 C23_15 1_555 1_555
C21_15 C24_15 1_555 1_555
C15_16 H7_16 1_555 1_555
C16_16 H8_16 1_555 1_555
C17_16 C15_16 1_555 1_555
H9_16 C17_16 1_555 1_555
C18_16 C16_16 1_555 1_555
H10_16 C18_16 1_555 1_555
C21_16 C16_16 1_555 1_555
C17_16 C24_16 1_555 1_555
C18_16 C23_16 1_555 1_555
C21_16 C24_16 1_555 1_555

#END
