
###############################################################################
#
# This file contains modified crystal structure data generated from the
# MOF subset of the Cambridge Structural Database (CSD) v543 
# hosted by the Cambridge Crystallographic Data Centre (CCDC).
#
# This work is licensed under the Creative Commons
# Attribution-NonCommercial-ShareAlike 4.0 International License.
# To view a copy of this license, visit
# http://creativecommons.org/licenses/by-nc-sa/4.0/
# or send a letter to
# Creative Commons, PO Box 1866, Mountain View, CA 94042, USA.
#
# CIF created using the CSD Python API on 29 September 2022
# The structure has been converted into the P1 space group
# The structure has a 3D framework
# The original CSD entry SENXIV is in the monoclinic crystal system
# The framework has been calculated to contain at least 10.0% void space
# The void calculation uses a probe of radius 1.32A, grid spacing 0.4
#
###############################################################################

data_SENXIV
_chemical_formula_moiety         '(C224 H152 O58 Tb8)n'
_symmetry_cell_setting           triclinic
_symmetry_space_group_name_H-M   'P 1'
_symmetry_Int_Tables_number      1
_space_group_name_Hall           'P 1'
loop_
_symmetry_equiv_pos_site_id
_symmetry_equiv_pos_as_xyz
1 x,y,z
_cell_length_a                   26.3408(9)
_cell_length_b                   14.8489(5)
_cell_length_c                   27.2678(14)
_cell_angle_alpha                90
_cell_angle_beta                 113.459(5)
_cell_angle_gamma                90
_cell_volume                     9783.77
loop_
_atom_site_label
_atom_site_type_symbol
_atom_site_fract_x
_atom_site_fract_y
_atom_site_fract_z
O7 O 0.5019(2) 0.6914(4) 0.0311(2)
H10 H 0.5351(11) 0.672(4) 0.044(2)
C22 C 0.4993(5) 0.7699(9) 0.0586(5)
H11 H 0.476178 0.814339 0.033617
H12 H 0.536099 0.795162 0.076543
C23 C 0.5041(10) 0.6866(15) 0.1391(7)
H13 H 0.536049 0.659352 0.139494
C24 C 0.4754(7) 0.7472(12) 0.0995(6)
C25 C 0.4297(8) 0.7960(15) 0.0969(8)
H14 H 0.411354 0.835677 0.069032
C26 C 0.4128(10) 0.7816(16) 0.1389(8)
H15 H 0.385282 0.817831 0.141637
C27 C 0.4370(10) 0.7121(17) 0.1777(10)
H16 H 0.421288 0.697640 0.201705
C28 C 0.4841(8) 0.6659(13) 0.1797(8)
H17 H 0.501739 0.623614 0.206262
Tb1 Tb 0.43744(2) 0.63929(2) 0.94612(2)
O1 O 0.42301(16) 0.6217(3) 0.85055(15)
O2 O 0.3868(2) 0.5223(3) 0.88672(16)
C1 C 0.3659(2) 0.5079(4) 0.7934(2)
C2 C 0.3934(2) 0.5544(4) 0.8459(2)
C3 C 0.3830(2) 0.5264(5) 0.7523(2)
H1 H 0.411800 0.566798 0.758094
C4 C 0.2691(3) 0.3683(5) 0.5475(3)
H2 H 0.280258 0.379602 0.519675
C5 C 0.3123(2) 0.4263(5) 0.6935(2)
C6 C 0.3005(2) 0.4034(5) 0.5987(2)
C7 C 0.2823(2) 0.3868(5) 0.6400(2)
C8 C 0.3571(2) 0.4845(5) 0.7019(2)
C9 C 0.2348(3) 0.3349(5) 0.6288(2)
H3 H 0.222719 0.323799 0.655928
C10 C 0.3774(3) 0.4995(5) 0.6594(2)
C11 C 0.4197(3) 0.5164(5) 0.5799(2)
C12 C 0.2053(2) 0.2994(5) 0.5787(2)
C13 C 0.3737(2) 0.4640(5) 0.5713(2)
H4 H 0.357289 0.433011 0.539181
C14 C 0.2222(3) 0.3176(5) 0.5377(3)
H5 H 0.201891 0.295642 0.503493
C15 C 0.1546(2) 0.2443(5) 0.5688(2)
C16 C 0.3508(2) 0.4561(5) 0.6097(2)
C17 C 0.4451(3) 0.5618(5) 0.6284(3)
H6 H 0.476013 0.597428 0.634515
C18 C 0.2963(3) 0.4095(6) 0.7353(3)
H7 H 0.266821 0.370754 0.729913
C19 C 0.4237(3) 0.5535(5) 0.6680(3)
H8 H 0.440545 0.584227 0.700181
C20 C 0.3233(3) 0.4491(5) 0.7851(3)
H9 H 0.312441 0.435599 0.812793
O3 O 0.42483(17) 0.4681(3) 0.49970(16)
O4 O 0.1235(2) 0.2220(4) 0.52256(17)
O5 O 0.1444(2) 0.2206(4) 0.60827(18)
C21 C 0.4440(2) 0.5193(4) 0.5390(2)
O6 O 0.48221(17) 0.5745(3) 0.54595(16)
O8 O 0.4747(4) 0.7757(6) 0.9246(4)
H18 H 0.509478 0.767947 0.928616
H19 H 0.477371 0.819416 0.947684
Tb2 Tb 0.56256(2) 0.63929(2) 0.55388(2)
Tb3 Tb 0.06256(2) 0.13929(2) 0.55388(2)
Tb4 Tb 0.43744(2) 0.36071(2) 0.44612(2)
O9 O 0.42483(17) 0.5319(3) 0.99970(16)
O10 O 0.3765(2) 0.7220(4) 0.97744(17)
O11 O 0.3556(2) 0.7206(4) 0.89173(18)
O12 O 0.51779(17) 0.5745(3) 0.95405(16)
O3_2 O 0.57517(17) 0.4681(3) 0.00030(16)
Tb4_2 Tb 0.56256(2) 0.36071(2) 0.05388(2)
O1_2 O 0.57699(16) 0.6217(3) 0.64945(15)
O2_2 O 0.6132(2) 0.5223(3) 0.61328(16)
C1_2 C 0.6341(2) 0.5079(4) 0.7066(2)
C2_2 C 0.6066(2) 0.5544(4) 0.6541(2)
C3_2 C 0.6170(2) 0.5264(5) 0.7477(2)
H1_2 H 0.588200 0.566798 0.741906
C4_2 C 0.7309(3) 0.3683(5) 0.9525(3)
H2_2 H 0.719742 0.379602 0.980325
C5_2 C 0.6877(2) 0.4263(5) 0.8065(2)
C6_2 C 0.6995(2) 0.4034(5) 0.9013(2)
C7_2 C 0.7177(2) 0.3868(5) 0.8600(2)
C8_2 C 0.6429(2) 0.4845(5) 0.7981(2)
C9_2 C 0.7652(3) 0.3349(5) 0.8712(2)
H3_2 H 0.777281 0.323799 0.844072
C10_2 C 0.6226(3) 0.4995(5) 0.8406(2)
C11_2 C 0.5803(3) 0.5164(5) 0.9201(2)
C12_2 C 0.7947(2) 0.2994(5) 0.9213(2)
C13_2 C 0.6263(2) 0.4640(5) 0.9287(2)
H4_2 H 0.642711 0.433011 0.960819
C14_2 C 0.7778(3) 0.3176(5) 0.9623(3)
H5_2 H 0.798109 0.295642 0.996507
C15_2 C 0.8454(2) 0.2443(5) 0.9312(2)
C16_2 C 0.6492(2) 0.4561(5) 0.8903(2)
C17_2 C 0.5549(3) 0.5618(5) 0.8716(3)
H6_2 H 0.523987 0.597428 0.865485
C18_2 C 0.7037(3) 0.4095(6) 0.7647(3)
H7_2 H 0.733179 0.370754 0.770087
C19_2 C 0.5763(3) 0.5535(5) 0.8320(3)
H8_2 H 0.559455 0.584227 0.799819
C20_2 C 0.6767(3) 0.4491(5) 0.7149(3)
H9_2 H 0.687559 0.435599 0.687207
O4_2 O 0.8765(2) 0.2220(4) 0.97744(17)
O5_2 O 0.8556(2) 0.2206(4) 0.89173(18)
C21_2 C 0.5560(2) 0.5193(4) 0.9610(2)
O7_2 O 0.4981(2) 0.6914(4) 0.4689(2)
H10_2 H 0.4649(11) 0.672(4) 0.456(2)
C22_2 C 0.5007(5) 0.7699(9) 0.4414(5)
H11_2 H 0.523822 0.814339 0.466383
H12_2 H 0.463901 0.795162 0.423457
C23_2 C 0.4959(10) 0.6866(15) 0.3609(7)
H13_2 H 0.463951 0.659352 0.360506
C24_2 C 0.5246(7) 0.7472(12) 0.4005(6)
C25_2 C 0.5703(8) 0.7960(15) 0.4031(8)
H14_2 H 0.588646 0.835677 0.430968
C26_2 C 0.5872(10) 0.7816(16) 0.3611(8)
H15_2 H 0.614718 0.817831 0.358363
C27_2 C 0.5630(10) 0.7121(17) 0.3223(10)
H16_2 H 0.578712 0.697640 0.298295
C28_2 C 0.5159(8) 0.6659(13) 0.3203(8)
H17_2 H 0.498261 0.623614 0.293738
O8_2 O 0.5253(4) 0.7757(6) 0.5754(4)
H18_2 H 0.490522 0.767947 0.571384
H19_2 H 0.522629 0.819416 0.552316
Tb3_2 Tb 0.93744(2) 0.13929(2) 0.94612(2)
O9_2 O 0.57517(17) 0.5319(3) 0.50030(16)
O10_2 O 0.6235(2) 0.7220(4) 0.52256(17)
O11_2 O 0.6444(2) 0.7206(4) 0.60827(18)
H18_3 H 0.009478 0.267947 0.928616
O12_2 O 0.01779(17) 0.0745(3) 0.95405(16)
O1_3 O 0.92301(16) 0.1217(3) 0.85055(15)
O2_3 O 0.8868(2) 0.0223(3) 0.88672(16)
C1_3 C 0.8659(2) 0.0079(4) 0.7934(2)
C2_3 C 0.8934(2) 0.0544(4) 0.8459(2)
C3_3 C 0.8830(2) 0.0264(5) 0.7523(2)
H1_3 H 0.911800 0.066798 0.758094
C11_3 C 0.9197(3) 0.0164(5) 0.5799(2)
C17_3 C 0.9451(3) 0.0618(5) 0.6284(3)
H6_3 H 0.976013 0.097428 0.634515
C19_3 C 0.9237(3) 0.0535(5) 0.6680(3)
H8_3 H 0.940545 0.084227 0.700181
C21_3 C 0.9440(2) 0.0193(4) 0.5390(2)
O6_2 O 0.98221(17) 0.0745(3) 0.54595(16)
O8_3 O 0.9747(4) 0.2757(6) 0.9246(4)
H19_3 H 0.977371 0.319416 0.947684
O9_3 O 0.92483(17) 0.0319(3) 0.99970(16)
C4_3 C 0.7691(3) 0.8683(5) 0.5475(3)
H2_3 H 0.780258 0.879602 0.519675
C5_3 C 0.8123(2) 0.9263(5) 0.6935(2)
C6_3 C 0.8005(2) 0.9034(5) 0.5987(2)
C7_3 C 0.7823(2) 0.8868(5) 0.6400(2)
C8_3 C 0.8571(2) 0.9845(5) 0.7019(2)
C9_3 C 0.7348(3) 0.8349(5) 0.6288(2)
H3_3 H 0.722719 0.823799 0.655928
C10_3 C 0.8774(3) 0.9995(5) 0.6594(2)
C12_3 C 0.7053(2) 0.7994(5) 0.5787(2)
C13_3 C 0.8737(2) 0.9640(5) 0.5713(2)
H4_3 H 0.857289 0.933011 0.539181
C14_3 C 0.7222(3) 0.8176(5) 0.5377(3)
H5_3 H 0.701891 0.795642 0.503493
C15_3 C 0.6546(2) 0.7443(5) 0.5688(2)
C16_3 C 0.8508(2) 0.9561(5) 0.6097(2)
C18_3 C 0.7963(3) 0.9095(6) 0.7353(3)
H7_3 H 0.766821 0.870754 0.729913
C20_3 C 0.8233(3) 0.9491(5) 0.7851(3)
H9_3 H 0.812441 0.935599 0.812793
O3_3 O 0.92483(17) 0.9681(3) 0.49970(16)
Tb4_3 Tb 0.93744(2) 0.86071(2) 0.44612(2)
O1_4 O 0.07699(16) 0.1217(3) 0.64945(15)
O2_4 O 0.1132(2) 0.0223(3) 0.61328(16)
C1_4 C 0.1341(2) 0.0079(4) 0.7066(2)
C2_4 C 0.1066(2) 0.0544(4) 0.6541(2)
C3_4 C 0.1170(2) 0.0264(5) 0.7477(2)
H1_4 H 0.088200 0.066798 0.741906
C11_4 C 0.0803(3) 0.0164(5) 0.9201(2)
C17_4 C 0.0549(3) 0.0618(5) 0.8716(3)
H6_4 H 0.023987 0.097428 0.865485
C19_4 C 0.0763(3) 0.0535(5) 0.8320(3)
H8_4 H 0.059455 0.084227 0.799819
C21_4 C 0.0560(2) 0.0193(4) 0.9610(2)
C22_3 C 0.0007(5) 0.2699(9) 0.4414(5)
H11_3 H 0.023822 0.314339 0.466383
C24_3 C 0.0246(7) 0.2472(12) 0.4005(6)
C25_3 C 0.0703(8) 0.2960(15) 0.4031(8)
H14_3 H 0.088646 0.335677 0.430968
C26_3 C 0.0872(10) 0.2816(16) 0.3611(8)
H15_3 H 0.114718 0.317831 0.358363
C27_3 C 0.0630(10) 0.2121(17) 0.3223(10)
H16_3 H 0.078712 0.197640 0.298295
C28_3 C 0.0159(8) 0.1659(13) 0.3203(8)
O8_4 O 0.0253(4) 0.2757(6) 0.5754(4)
H19_4 H 0.022629 0.319416 0.552316
O9_4 O 0.07517(17) 0.0319(3) 0.50030(16)
O3_4 O 0.07517(17) 0.9681(3) 0.00030(16)
Tb4_4 Tb 0.06256(2) 0.86071(2) 0.05388(2)
C4_4 C 0.2309(3) 0.8683(5) 0.9525(3)
H2_4 H 0.219742 0.879602 0.980325
C5_4 C 0.1877(2) 0.9263(5) 0.8065(2)
C6_4 C 0.1995(2) 0.9034(5) 0.9013(2)
C7_4 C 0.2177(2) 0.8868(5) 0.8600(2)
C8_4 C 0.1429(2) 0.9845(5) 0.7981(2)
C9_4 C 0.2652(3) 0.8349(5) 0.8712(2)
H3_4 H 0.277281 0.823799 0.844072
C10_4 C 0.1226(3) 0.9995(5) 0.8406(2)
C12_4 C 0.2947(2) 0.7994(5) 0.9213(2)
C13_4 C 0.1263(2) 0.9640(5) 0.9287(2)
H4_4 H 0.142711 0.933011 0.960819
C14_4 C 0.2778(3) 0.8176(5) 0.9623(3)
H5_4 H 0.298109 0.795642 0.996507
C15_4 C 0.3454(2) 0.7443(5) 0.9312(2)
C16_4 C 0.1492(2) 0.9561(5) 0.8903(2)
C18_4 C 0.2037(3) 0.9095(6) 0.7647(3)
H7_4 H 0.233179 0.870754 0.770087
C20_4 C 0.1767(3) 0.9491(5) 0.7149(3)
H9_4 H 0.187559 0.935599 0.687207
O7_3 O 0.9981(2) 0.1914(4) 0.4689(2)
H10_3 H 0.9649(11) 0.172(4) 0.456(2)
H12_3 H 0.963901 0.295162 0.423457
C23_3 C 0.9959(10) 0.1866(15) 0.3609(7)
H13_3 H 0.963951 0.159352 0.360506
H17_3 H 0.998261 0.123614 0.293738
H18_4 H 0.990522 0.267947 0.571384
O1_5 O 0.57699(16) 0.3783(3) 0.14945(15)
O2_5 O 0.6132(2) 0.4777(3) 0.11328(16)
C1_5 C 0.6341(2) 0.4921(4) 0.2066(2)
C2_5 C 0.6066(2) 0.4456(4) 0.1541(2)
C3_5 C 0.6170(2) 0.4736(5) 0.2477(2)
H1_5 H 0.588200 0.433202 0.241906
C4_5 C 0.7309(3) 0.6317(5) 0.4525(3)
H2_5 H 0.719742 0.620398 0.480325
C5_5 C 0.6877(2) 0.5737(5) 0.3065(2)
C6_5 C 0.6995(2) 0.5966(5) 0.4013(2)
C7_5 C 0.7177(2) 0.6132(5) 0.3600(2)
C8_5 C 0.6429(2) 0.5155(5) 0.2981(2)
C9_5 C 0.7652(3) 0.6651(5) 0.3712(2)
H3_5 H 0.777281 0.676201 0.344072
C10_5 C 0.6226(3) 0.5005(5) 0.3406(2)
C11_5 C 0.5803(3) 0.4836(5) 0.4201(2)
C12_5 C 0.7947(2) 0.7006(5) 0.4213(2)
C13_5 C 0.6263(2) 0.5360(5) 0.4287(2)
H4_5 H 0.642711 0.566989 0.460819
C14_5 C 0.7778(3) 0.6824(5) 0.4623(3)
H5_5 H 0.798109 0.704358 0.496507
C15_5 C 0.8454(2) 0.7557(5) 0.4312(2)
C16_5 C 0.6492(2) 0.5439(5) 0.3903(2)
C17_5 C 0.5549(3) 0.4382(5) 0.3716(3)
H6_5 H 0.523987 0.402572 0.365485
C18_5 C 0.7037(3) 0.5905(6) 0.2647(3)
H7_5 H 0.733179 0.629246 0.270087
C19_5 C 0.5763(3) 0.4465(5) 0.3320(3)
H8_5 H 0.559455 0.415773 0.299819
C20_5 C 0.6767(3) 0.5509(5) 0.2149(3)
H9_5 H 0.687559 0.564401 0.187207
O4_3 O 0.8765(2) 0.7780(4) 0.47744(17)
O5_3 O 0.8556(2) 0.7794(4) 0.39173(18)
C21_5 C 0.5560(2) 0.4807(4) 0.4610(2)
O6_3 O 0.51779(17) 0.4255(3) 0.45405(16)
O8_5 O 0.5253(4) 0.2243(6) 0.0754(4)
H18_5 H 0.490522 0.232053 0.071384
H19_5 H 0.522629 0.180584 0.052316
O10_3 O 0.6235(2) 0.2780(4) 0.02256(17)
O11_3 O 0.6444(2) 0.2794(4) 0.10827(18)
O12_3 O 0.48221(17) 0.4255(3) 0.04595(16)
O1_6 O 0.42301(16) 0.3783(3) 0.35055(15)
O2_6 O 0.3868(2) 0.4777(3) 0.38672(16)
C1_6 C 0.3659(2) 0.4921(4) 0.2934(2)
C2_6 C 0.3934(2) 0.4456(4) 0.3459(2)
C3_6 C 0.3830(2) 0.4736(5) 0.2523(2)
H1_6 H 0.411800 0.433202 0.258094
C4_6 C 0.2691(3) 0.6317(5) 0.0475(3)
H2_6 H 0.280258 0.620398 0.019675
C5_6 C 0.3123(2) 0.5737(5) 0.1935(2)
C6_6 C 0.3005(2) 0.5966(5) 0.0987(2)
C7_6 C 0.2823(2) 0.6132(5) 0.1400(2)
C8_6 C 0.3571(2) 0.5155(5) 0.2019(2)
C9_6 C 0.2348(3) 0.6651(5) 0.1288(2)
H3_6 H 0.222719 0.676201 0.155928
C10_6 C 0.3774(3) 0.5005(5) 0.1594(2)
C11_6 C 0.4197(3) 0.4836(5) 0.0799(2)
C12_6 C 0.2053(2) 0.7006(5) 0.0787(2)
C13_6 C 0.3737(2) 0.5360(5) 0.0713(2)
H4_6 H 0.357289 0.566989 0.039181
C14_6 C 0.2222(3) 0.6824(5) 0.0377(3)
H5_6 H 0.201891 0.704358 0.003493
C15_6 C 0.1546(2) 0.7557(5) 0.0688(2)
C16_6 C 0.3508(2) 0.5439(5) 0.1097(2)
C17_6 C 0.4451(3) 0.4382(5) 0.1284(3)
H6_6 H 0.476013 0.402572 0.134515
C18_6 C 0.2963(3) 0.5905(6) 0.2353(3)
H7_6 H 0.266821 0.629246 0.229913
C19_6 C 0.4237(3) 0.4465(5) 0.1680(3)
H8_6 H 0.440545 0.415773 0.200181
C20_6 C 0.3233(3) 0.5509(5) 0.2851(3)
H9_6 H 0.312441 0.564401 0.312793
O4_4 O 0.1235(2) 0.7780(4) 0.02256(17)
O5_4 O 0.1444(2) 0.7794(4) 0.10827(18)
C21_6 C 0.4440(2) 0.4807(4) 0.0390(2)
O7_4 O 0.5019(2) 0.3086(4) 0.5311(2)
H10_4 H 0.5351(11) 0.328(4) 0.544(2)
C22_4 C 0.4993(5) 0.2301(9) 0.5586(5)
H11_4 H 0.476178 0.185661 0.533617
H12_4 H 0.536099 0.204838 0.576543
C23_4 C 0.5041(10) 0.3134(15) 0.6391(7)
H13_4 H 0.536049 0.340648 0.639494
C24_4 C 0.4754(7) 0.2528(12) 0.5995(6)
C25_4 C 0.4297(8) 0.2040(15) 0.5969(8)
H14_4 H 0.411354 0.164323 0.569032
C26_4 C 0.4128(10) 0.2184(16) 0.6389(8)
H15_4 H 0.385282 0.182169 0.641637
C27_4 C 0.4370(10) 0.2879(17) 0.6777(10)
H16_4 H 0.421288 0.302360 0.701705
C28_4 C 0.4841(8) 0.3341(13) 0.6797(8)
H17_4 H 0.501739 0.376386 0.706262
O8_6 O 0.4747(4) 0.2243(6) 0.4246(4)
H18_6 H 0.509478 0.232053 0.428616
H19_6 H 0.477371 0.180584 0.447684
O10_4 O 0.3765(2) 0.2780(4) 0.47744(17)
O11_4 O 0.3556(2) 0.2794(4) 0.39173(18)
C4_7 C 0.2309(3) 0.1317(5) 0.4525(3)
H2_7 H 0.219742 0.120398 0.480325
C5_7 C 0.1877(2) 0.0737(5) 0.3065(2)
C6_7 C 0.1995(2) 0.0966(5) 0.4013(2)
C7_7 C 0.2177(2) 0.1132(5) 0.3600(2)
C8_7 C 0.1429(2) 0.0155(5) 0.2981(2)
C9_7 C 0.2652(3) 0.1651(5) 0.3712(2)
H3_7 H 0.277281 0.176201 0.344072
C10_7 C 0.1226(3) 0.0005(5) 0.3406(2)
C12_7 C 0.2947(2) 0.2006(5) 0.4213(2)
C13_7 C 0.1263(2) 0.0360(5) 0.4287(2)
H4_7 H 0.142711 0.066989 0.460819
C14_7 C 0.2778(3) 0.1824(5) 0.4623(3)
H5_7 H 0.298109 0.204358 0.496507
C15_7 C 0.3454(2) 0.2557(5) 0.4312(2)
C16_7 C 0.1492(2) 0.0439(5) 0.3903(2)
C18_7 C 0.2037(3) 0.0905(6) 0.2647(3)
H7_7 H 0.233179 0.129246 0.270087
C20_7 C 0.1767(3) 0.0509(5) 0.2149(3)
H9_7 H 0.187559 0.064401 0.187207
O1_7 O 0.07699(16) 0.8783(3) 0.14945(15)
O2_7 O 0.1132(2) 0.9777(3) 0.11328(16)
C1_7 C 0.1341(2) 0.9921(4) 0.2066(2)
C2_7 C 0.1066(2) 0.9456(4) 0.1541(2)
C3_7 C 0.1170(2) 0.9736(5) 0.2477(2)
H1_7 H 0.088200 0.933202 0.241906
C11_7 C 0.0803(3) 0.9836(5) 0.4201(2)
C17_7 C 0.0549(3) 0.9382(5) 0.3716(3)
H6_7 H 0.023987 0.902572 0.365485
C19_7 C 0.0763(3) 0.9465(5) 0.3320(3)
H8_7 H 0.059455 0.915773 0.299819
C21_7 C 0.0560(2) 0.9807(4) 0.4610(2)
O6_4 O 0.01779(17) 0.9255(3) 0.45405(16)
O8_7 O 0.0253(4) 0.7243(6) 0.0754(4)
H19_7 H 0.022629 0.680584 0.052316
H18_7 H 0.990522 0.732053 0.071384
O12_4 O 0.98221(17) 0.9255(3) 0.04595(16)
O7_5 O 0.0019(2) 0.8086(4) 0.5311(2)
H10_5 H 0.0351(11) 0.828(4) 0.544(2)
H12_5 H 0.036099 0.704838 0.576543
C23_5 C 0.0041(10) 0.8134(15) 0.6391(7)
H13_5 H 0.036049 0.840648 0.639494
H17_5 H 0.001739 0.876386 0.706262
H18_8 H 0.009478 0.732053 0.428616
C4_8 C 0.7691(3) 0.1317(5) 0.0475(3)
H2_8 H 0.780258 0.120398 0.019675
C5_8 C 0.8123(2) 0.0737(5) 0.1935(2)
C6_8 C 0.8005(2) 0.0966(5) 0.0987(2)
C7_8 C 0.7823(2) 0.1132(5) 0.1400(2)
C8_8 C 0.8571(2) 0.0155(5) 0.2019(2)
C9_8 C 0.7348(3) 0.1651(5) 0.1288(2)
H3_8 H 0.722719 0.176201 0.155928
C10_8 C 0.8774(3) 0.0005(5) 0.1594(2)
C12_8 C 0.7053(2) 0.2006(5) 0.0787(2)
C13_8 C 0.8737(2) 0.0360(5) 0.0713(2)
H4_8 H 0.857289 0.066989 0.039181
C14_8 C 0.7222(3) 0.1824(5) 0.0377(3)
H5_8 H 0.701891 0.204358 0.003493
C15_8 C 0.6546(2) 0.2557(5) 0.0688(2)
C16_8 C 0.8508(2) 0.0439(5) 0.1097(2)
C18_8 C 0.7963(3) 0.0905(6) 0.2353(3)
H7_8 H 0.766821 0.129246 0.229913
C20_8 C 0.8233(3) 0.0509(5) 0.2851(3)
H9_8 H 0.812441 0.064401 0.312793
O1_8 O 0.92301(16) 0.8783(3) 0.35055(15)
O2_8 O 0.8868(2) 0.9777(3) 0.38672(16)
C1_8 C 0.8659(2) 0.9921(4) 0.2934(2)
C2_8 C 0.8934(2) 0.9456(4) 0.3459(2)
C3_8 C 0.8830(2) 0.9736(5) 0.2523(2)
H1_8 H 0.911800 0.933202 0.258094
C11_8 C 0.9197(3) 0.9836(5) 0.0799(2)
C17_8 C 0.9451(3) 0.9382(5) 0.1284(3)
H6_8 H 0.976013 0.902572 0.134515
C19_8 C 0.9237(3) 0.9465(5) 0.1680(3)
H8_8 H 0.940545 0.915773 0.200181
C21_8 C 0.9440(2) 0.9807(4) 0.0390(2)
C22_5 C 0.9993(5) 0.7301(9) 0.5586(5)
H11_5 H 0.976178 0.685661 0.533617
C24_5 C 0.9754(7) 0.7528(12) 0.5995(6)
C25_5 C 0.9297(8) 0.7040(15) 0.5969(8)
H14_5 H 0.911354 0.664323 0.569032
C26_5 C 0.9128(10) 0.7184(16) 0.6389(8)
H15_5 H 0.885282 0.682169 0.641637
C27_5 C 0.9370(10) 0.7879(17) 0.6777(10)
H16_5 H 0.921288 0.802360 0.701705
C28_5 C 0.9841(8) 0.8341(13) 0.6797(8)
O8_8 O 0.9747(4) 0.7243(6) 0.4246(4)
H19_8 H 0.977371 0.680584 0.447684
O7_6 O 0.0019(2) 0.1914(4) 0.0311(2)
H10_6 H 0.0351(11) 0.172(4) 0.044(2)
H12_6 H 0.036099 0.295162 0.076543
C23_6 C 0.0041(10) 0.1866(15) 0.1391(7)
H13_6 H 0.036049 0.159352 0.139494
H17_6 H 0.001739 0.123614 0.206262
C22_6 C 0.9993(5) 0.2699(9) 0.0586(5)
H11_6 H 0.976178 0.314339 0.033617
C24_6 C 0.9754(7) 0.2472(12) 0.0995(6)
C25_6 C 0.9297(8) 0.2960(15) 0.0969(8)
H14_6 H 0.911354 0.335677 0.069032
C26_6 C 0.9128(10) 0.2816(16) 0.1389(8)
H15_6 H 0.885282 0.317831 0.141637
C27_6 C 0.9370(10) 0.2121(17) 0.1777(10)
H16_6 H 0.921288 0.197640 0.201705
C28_6 C 0.9841(8) 0.1659(13) 0.1797(8)
O7_7 O 0.4981(2) 0.3086(4) 0.9689(2)
H10_7 H 0.4649(11) 0.328(4) 0.956(2)
C22_7 C 0.5007(5) 0.2301(9) 0.9414(5)
H11_7 H 0.523822 0.185661 0.966383
H12_7 H 0.463901 0.204838 0.923457
C23_7 C 0.4959(10) 0.3134(15) 0.8609(7)
H13_7 H 0.463951 0.340648 0.860506
C24_7 C 0.5246(7) 0.2528(12) 0.9005(6)
C25_7 C 0.5703(8) 0.2040(15) 0.9031(8)
H14_7 H 0.588646 0.164323 0.930968
C26_7 C 0.5872(10) 0.2184(16) 0.8611(8)
H15_7 H 0.614718 0.182169 0.858363
C27_7 C 0.5630(10) 0.2879(17) 0.8223(10)
H16_7 H 0.578712 0.302360 0.798295
C28_7 C 0.5159(8) 0.3341(13) 0.8203(8)
H17_7 H 0.498261 0.376386 0.793738
C22_8 C 0.0007(5) 0.7301(9) 0.9414(5)
H11_8 H 0.023822 0.685661 0.966383
C24_8 C 0.0246(7) 0.7528(12) 0.9005(6)
C25_8 C 0.0703(8) 0.7040(15) 0.9031(8)
H14_8 H 0.088646 0.664323 0.930968
C26_8 C 0.0872(10) 0.7184(16) 0.8611(8)
H15_8 H 0.114718 0.682169 0.858363
C27_8 C 0.0630(10) 0.7879(17) 0.8223(10)
H16_8 H 0.078712 0.802360 0.798295
C28_8 C 0.0159(8) 0.8341(13) 0.8203(8)
O7_8 O 0.9981(2) 0.8086(4) 0.9689(2)
H10_8 H 0.9649(11) 0.828(4) 0.956(2)
H12_8 H 0.963901 0.704838 0.923457
C23_8 C 0.9959(10) 0.8134(15) 0.8609(7)
H13_8 H 0.963951 0.840648 0.860506
H17_8 H 0.998261 0.876386 0.793738
loop_
_geom_bond_atom_site_label_1
_geom_bond_atom_site_label_2
_geom_bond_site_symmetry_1
_geom_bond_site_symmetry_2
H10 O7 1_555 1_555
C22 O7 1_555 1_555
H11 C22 1_555 1_555
H12 C22 1_555 1_555
C23 H13 1_555 1_555
C24 C22 1_555 1_555
C25 C24 1_555 1_555
H14 C25 1_555 1_555
C26 C25 1_555 1_555
H15 C26 1_555 1_555
C27 C26 1_555 1_555
H16 C27 1_555 1_555
C28 C23 1_555 1_555
H17 C28 1_555 1_555
C23 C24 1_555 1_555
C27 C28 1_555 1_555
Tb1 O1 1_555 1_555
O1 C2 1_555 1_555
O2 Tb1 1_555 1_555
C1 C2 1_555 1_555
C2 O2 1_555 1_555
C3 C1 1_555 1_555
H1 C3 1_555 1_555
C4 H2 1_555 1_555
C5 C7 1_555 1_555
C6 C4 1_555 1_555
C7 C6 1_555 1_555
C8 C3 1_555 1_555
C9 C7 1_555 1_555
H3 C9 1_555 1_555
C10 C8 1_555 1_555
C11 C13 1_555 1_555
C12 C9 1_555 1_555
C13 H4 1_555 1_555
C14 C4 1_555 1_555
H5 C14 1_555 1_555
C15 C12 1_555 1_555
C16 C6 1_555 1_555
C17 C11 1_555 1_555
H6 C17 1_555 1_555
C18 C5 1_555 1_555
H7 C18 1_555 1_555
C19 C10 1_555 1_555
H8 C19 1_555 1_555
C20 C1 1_555 1_555
H9 C20 1_555 1_555
O3 C21 1_555 1_555
O4 C15 1_555 1_555
O5 C15 1_555 1_555
C21 C11 1_555 1_555
O6 C21 1_555 1_555
O8 Tb1 1_555 1_555
H18 O8 1_555 1_555
H19 O8 1_555 1_555
Tb2 O6 1_555 1_555
Tb3 O4 1_555 1_555
Tb4 O3 1_555 1_555
O9 Tb1 1_555 1_555
O10 Tb1 1_555 1_555
O11 Tb1 1_555 1_555
O12 Tb1 1_555 1_555
C5 C8 1_555 1_555
C10 C16 1_555 1_555
C12 C14 1_555 1_555
C13 C16 1_555 1_555
C17 C19 1_555 1_555
C18 C20 1_555 1_555
O5 Tb3 1_555 1_555
Tb4_2 O3_2 1_555 1_555
Tb2 O1_2 1_555 1_555
O1_2 C2_2 1_555 1_555
O2_2 Tb2 1_555 1_555
C1_2 C2_2 1_555 1_555
C2_2 O2_2 1_555 1_555
C3_2 C1_2 1_555 1_555
H1_2 C3_2 1_555 1_555
C4_2 H2_2 1_555 1_555
C5_2 C7_2 1_555 1_555
C6_2 C4_2 1_555 1_555
C7_2 C6_2 1_555 1_555
C8_2 C3_2 1_555 1_555
C9_2 C7_2 1_555 1_555
H3_2 C9_2 1_555 1_555
C10_2 C8_2 1_555 1_555
C11_2 C13_2 1_555 1_555
C12_2 C9_2 1_555 1_555
C13_2 H4_2 1_555 1_555
C14_2 C4_2 1_555 1_555
H5_2 C14_2 1_555 1_555
C15_2 C12_2 1_555 1_555
C16_2 C6_2 1_555 1_555
C17_2 C11_2 1_555 1_555
H6_2 C17_2 1_555 1_555
C18_2 C5_2 1_555 1_555
H7_2 C18_2 1_555 1_555
C19_2 C10_2 1_555 1_555
H8_2 C19_2 1_555 1_555
C20_2 C1_2 1_555 1_555
H9_2 C20_2 1_555 1_555
O4_2 C15_2 1_555 1_555
O5_2 C15_2 1_555 1_555
C21_2 C11_2 1_555 1_555
O12 C21_2 1_555 1_555
O7_2 Tb2 1_555 1_555
H10_2 O7_2 1_555 1_555
C22_2 O7_2 1_555 1_555
H11_2 C22_2 1_555 1_555
H12_2 C22_2 1_555 1_555
C23_2 H13_2 1_555 1_555
C24_2 C22_2 1_555 1_555
C25_2 C24_2 1_555 1_555
H14_2 C25_2 1_555 1_555
C26_2 C25_2 1_555 1_555
H15_2 C26_2 1_555 1_555
C27_2 C26_2 1_555 1_555
H16_2 C27_2 1_555 1_555
C28_2 C23_2 1_555 1_555
H17_2 C28_2 1_555 1_555
O8_2 Tb2 1_555 1_555
H18_2 O8_2 1_555 1_555
H19_2 O8_2 1_555 1_555
Tb3_2 O4_2 1_555 1_555
O9_2 Tb2 1_555 1_555
O10_2 Tb2 1_555 1_555
O11_2 Tb2 1_555 1_555
C5_2 C8_2 1_555 1_555
C10_2 C16_2 1_555 1_555
C12_2 C14_2 1_555 1_555
C13_2 C16_2 1_555 1_555
C17_2 C19_2 1_555 1_555
C18_2 C20_2 1_555 1_555
O5_2 Tb3_2 1_555 1_555
C23_2 C24_2 1_555 1_555
C27_2 C28_2 1_555 1_555
Tb3_2 O1_3 1_555 1_555
O1_3 C2_3 1_555 1_555
O2_3 Tb3_2 1_555 1_555
C1_3 C2_3 1_555 1_555
C2_3 O2_3 1_555 1_555
C3_3 C1_3 1_555 1_555
H1_3 C3_3 1_555 1_555
C17_3 C11_3 1_555 1_555
H6_3 C17_3 1_555 1_555
H8_3 C19_3 1_555 1_555
C21_3 C11_3 1_555 1_555
O6_2 C21_3 1_555 1_555
O8_3 Tb3_2 1_555 1_555
H19_3 O8_3 1_555 1_555
O9_3 Tb3_2 1_555 1_555
C17_3 C19_3 1_555 1_555
C4_3 H2_3 1_555 1_555
C5_3 C7_3 1_555 1_555
C6_3 C4_3 1_555 1_555
C7_3 C6_3 1_555 1_555
C9_3 C7_3 1_555 1_555
H3_3 C9_3 1_555 1_555
C10_3 C8_3 1_555 1_555
C12_3 C9_3 1_555 1_555
C13_3 H4_3 1_555 1_555
C14_3 C4_3 1_555 1_555
H5_3 C14_3 1_555 1_555
C15_3 C12_3 1_555 1_555
C16_3 C6_3 1_555 1_555
C18_3 C5_3 1_555 1_555
H7_3 C18_3 1_555 1_555
H9_3 C20_3 1_555 1_555
O10_2 C15_3 1_555 1_555
O11_2 C15_3 1_555 1_555
Tb4_3 O3_3 1_555 1_555
C5_3 C8_3 1_555 1_555
C10_3 C16_3 1_555 1_555
C12_3 C14_3 1_555 1_555
C13_3 C16_3 1_555 1_555
C18_3 C20_3 1_555 1_555
Tb3 O1_4 1_555 1_555
O1_4 C2_4 1_555 1_555
O2_4 Tb3 1_555 1_555
C1_4 C2_4 1_555 1_555
C2_4 O2_4 1_555 1_555
C3_4 C1_4 1_555 1_555
H1_4 C3_4 1_555 1_555
C17_4 C11_4 1_555 1_555
H6_4 C17_4 1_555 1_555
H8_4 C19_4 1_555 1_555
C21_4 C11_4 1_555 1_555
O12_2 C21_4 1_555 1_555
H11_3 C22_3 1_555 1_555
C24_3 C22_3 1_555 1_555
C25_3 C24_3 1_555 1_555
H14_3 C25_3 1_555 1_555
C26_3 C25_3 1_555 1_555
H15_3 C26_3 1_555 1_555
C27_3 C26_3 1_555 1_555
H16_3 C27_3 1_555 1_555
O8_4 Tb3 1_555 1_555
H19_4 O8_4 1_555 1_555
O9_4 Tb3 1_555 1_555
C17_4 C19_4 1_555 1_555
C27_3 C28_3 1_555 1_555
Tb4_4 O3_4 1_555 1_555
C4_4 H2_4 1_555 1_555
C5_4 C7_4 1_555 1_555
C6_4 C4_4 1_555 1_555
C7_4 C6_4 1_555 1_555
C9_4 C7_4 1_555 1_555
H3_4 C9_4 1_555 1_555
C10_4 C8_4 1_555 1_555
C12_4 C9_4 1_555 1_555
C13_4 H4_4 1_555 1_555
C14_4 C4_4 1_555 1_555
H5_4 C14_4 1_555 1_555
C15_4 C12_4 1_555 1_555
C16_4 C6_4 1_555 1_555
C18_4 C5_4 1_555 1_555
H7_4 C18_4 1_555 1_555
H9_4 C20_4 1_555 1_555
O10 C15_4 1_555 1_555
O11 C15_4 1_555 1_555
C5_4 C8_4 1_555 1_555
C10_4 C16_4 1_555 1_555
C12_4 C14_4 1_555 1_555
C13_4 C16_4 1_555 1_555
C18_4 C20_4 1_555 1_555
H10_3 O7_3 1_555 1_555
C23_3 H13_3 1_555 1_555
Tb4_2 O1_5 1_555 1_555
O1_5 C2_5 1_555 1_555
O2_5 Tb4_2 1_555 1_555
C1_5 C2_5 1_555 1_555
C2_5 O2_5 1_555 1_555
C3_5 C1_5 1_555 1_555
H1_5 C3_5 1_555 1_555
C4_5 H2_5 1_555 1_555
C5_5 C7_5 1_555 1_555
C6_5 C4_5 1_555 1_555
C7_5 C6_5 1_555 1_555
C8_5 C3_5 1_555 1_555
C9_5 C7_5 1_555 1_555
H3_5 C9_5 1_555 1_555
C10_5 C8_5 1_555 1_555
C11_5 C13_5 1_555 1_555
C12_5 C9_5 1_555 1_555
C13_5 H4_5 1_555 1_555
C14_5 C4_5 1_555 1_555
H5_5 C14_5 1_555 1_555
C15_5 C12_5 1_555 1_555
C16_5 C6_5 1_555 1_555
C17_5 C11_5 1_555 1_555
H6_5 C17_5 1_555 1_555
C18_5 C5_5 1_555 1_555
H7_5 C18_5 1_555 1_555
C19_5 C10_5 1_555 1_555
H8_5 C19_5 1_555 1_555
C20_5 C1_5 1_555 1_555
H9_5 C20_5 1_555 1_555
O9_2 C21_5 1_555 1_555
O4_3 C15_5 1_555 1_555
O5_3 C15_5 1_555 1_555
C21_5 C11_5 1_555 1_555
O6_3 C21_5 1_555 1_555
O8_5 Tb4_2 1_555 1_555
H18_5 O8_5 1_555 1_555
H19_5 O8_5 1_555 1_555
Tb4 O6_3 1_555 1_555
Tb4_3 O4_3 1_555 1_555
O10_3 Tb4_2 1_555 1_555
O11_3 Tb4_2 1_555 1_555
O12_3 Tb4_2 1_555 1_555
C5_5 C8_5 1_555 1_555
C10_5 C16_5 1_555 1_555
C12_5 C14_5 1_555 1_555
C13_5 C16_5 1_555 1_555
C17_5 C19_5 1_555 1_555
C18_5 C20_5 1_555 1_555
O5_3 Tb4_3 1_555 1_555
Tb4 O1_6 1_555 1_555
O1_6 C2_6 1_555 1_555
O2_6 Tb4 1_555 1_555
C1_6 C2_6 1_555 1_555
C2_6 O2_6 1_555 1_555
C3_6 C1_6 1_555 1_555
H1_6 C3_6 1_555 1_555
C4_6 H2_6 1_555 1_555
C5_6 C7_6 1_555 1_555
C6_6 C4_6 1_555 1_555
C7_6 C6_6 1_555 1_555
C8_6 C3_6 1_555 1_555
C9_6 C7_6 1_555 1_555
H3_6 C9_6 1_555 1_555
C10_6 C8_6 1_555 1_555
C11_6 C13_6 1_555 1_555
C12_6 C9_6 1_555 1_555
C13_6 H4_6 1_555 1_555
C14_6 C4_6 1_555 1_555
H5_6 C14_6 1_555 1_555
C15_6 C12_6 1_555 1_555
C16_6 C6_6 1_555 1_555
C17_6 C11_6 1_555 1_555
H6_6 C17_6 1_555 1_555
C18_6 C5_6 1_555 1_555
H7_6 C18_6 1_555 1_555
C19_6 C10_6 1_555 1_555
H8_6 C19_6 1_555 1_555
C20_6 C1_6 1_555 1_555
H9_6 C20_6 1_555 1_555
O4_4 C15_6 1_555 1_555
O5_4 C15_6 1_555 1_555
C21_6 C11_6 1_555 1_555
O12_3 C21_6 1_555 1_555
O7_4 Tb4 1_555 1_555
H10_4 O7_4 1_555 1_555
C22_4 O7_4 1_555 1_555
H11_4 C22_4 1_555 1_555
H12_4 C22_4 1_555 1_555
C23_4 H13_4 1_555 1_555
C24_4 C22_4 1_555 1_555
C25_4 C24_4 1_555 1_555
H14_4 C25_4 1_555 1_555
C26_4 C25_4 1_555 1_555
H15_4 C26_4 1_555 1_555
C27_4 C26_4 1_555 1_555
H16_4 C27_4 1_555 1_555
C28_4 C23_4 1_555 1_555
H17_4 C28_4 1_555 1_555
O8_6 Tb4 1_555 1_555
H18_6 O8_6 1_555 1_555
H19_6 O8_6 1_555 1_555
Tb4_4 O4_4 1_555 1_555
O10_4 Tb4 1_555 1_555
O11_4 Tb4 1_555 1_555
C5_6 C8_6 1_555 1_555
C10_6 C16_6 1_555 1_555
C12_6 C14_6 1_555 1_555
C13_6 C16_6 1_555 1_555
C17_6 C19_6 1_555 1_555
C18_6 C20_6 1_555 1_555
O5_4 Tb4_4 1_555 1_555
C23_4 C24_4 1_555 1_555
C27_4 C28_4 1_555 1_555
C4_7 H2_7 1_555 1_555
C5_7 C7_7 1_555 1_555
C6_7 C4_7 1_555 1_555
C7_7 C6_7 1_555 1_555
C9_7 C7_7 1_555 1_555
H3_7 C9_7 1_555 1_555
C10_7 C8_7 1_555 1_555
C12_7 C9_7 1_555 1_555
C13_7 H4_7 1_555 1_555
C14_7 C4_7 1_555 1_555
H5_7 C14_7 1_555 1_555
C15_7 C12_7 1_555 1_555
C16_7 C6_7 1_555 1_555
C18_7 C5_7 1_555 1_555
H7_7 C18_7 1_555 1_555
H9_7 C20_7 1_555 1_555
O10_4 C15_7 1_555 1_555
O11_4 C15_7 1_555 1_555
C5_7 C8_7 1_555 1_555
C10_7 C16_7 1_555 1_555
C12_7 C14_7 1_555 1_555
C13_7 C16_7 1_555 1_555
C18_7 C20_7 1_555 1_555
Tb4_4 O1_7 1_555 1_555
O1_7 C2_7 1_555 1_555
O2_7 Tb4_4 1_555 1_555
C1_7 C2_7 1_555 1_555
C2_7 O2_7 1_555 1_555
C3_7 C1_7 1_555 1_555
H1_7 C3_7 1_555 1_555
C17_7 C11_7 1_555 1_555
H6_7 C17_7 1_555 1_555
H8_7 C19_7 1_555 1_555
C21_7 C11_7 1_555 1_555
O6_4 C21_7 1_555 1_555
O8_7 Tb4_4 1_555 1_555
H19_7 O8_7 1_555 1_555
C17_7 C19_7 1_555 1_555
H10_5 O7_5 1_555 1_555
C23_5 H13_5 1_555 1_555
C4_8 H2_8 1_555 1_555
C5_8 C7_8 1_555 1_555
C6_8 C4_8 1_555 1_555
C7_8 C6_8 1_555 1_555
C9_8 C7_8 1_555 1_555
H3_8 C9_8 1_555 1_555
C10_8 C8_8 1_555 1_555
C12_8 C9_8 1_555 1_555
C13_8 H4_8 1_555 1_555
C14_8 C4_8 1_555 1_555
H5_8 C14_8 1_555 1_555
C15_8 C12_8 1_555 1_555
C16_8 C6_8 1_555 1_555
C18_8 C5_8 1_555 1_555
H7_8 C18_8 1_555 1_555
H9_8 C20_8 1_555 1_555
O10_3 C15_8 1_555 1_555
O11_3 C15_8 1_555 1_555
C5_8 C8_8 1_555 1_555
C10_8 C16_8 1_555 1_555
C12_8 C14_8 1_555 1_555
C13_8 C16_8 1_555 1_555
C18_8 C20_8 1_555 1_555
Tb4_3 O1_8 1_555 1_555
O1_8 C2_8 1_555 1_555
O2_8 Tb4_3 1_555 1_555
C1_8 C2_8 1_555 1_555
C2_8 O2_8 1_555 1_555
C3_8 C1_8 1_555 1_555
H1_8 C3_8 1_555 1_555
C17_8 C11_8 1_555 1_555
H6_8 C17_8 1_555 1_555
H8_8 C19_8 1_555 1_555
C21_8 C11_8 1_555 1_555
O12_4 C21_8 1_555 1_555
H11_5 C22_5 1_555 1_555
C24_5 C22_5 1_555 1_555
C25_5 C24_5 1_555 1_555
H14_5 C25_5 1_555 1_555
C26_5 C25_5 1_555 1_555
H15_5 C26_5 1_555 1_555
C27_5 C26_5 1_555 1_555
H16_5 C27_5 1_555 1_555
O8_8 Tb4_3 1_555 1_555
H19_8 O8_8 1_555 1_555
C17_8 C19_8 1_555 1_555
C27_5 C28_5 1_555 1_555
H10_6 O7_6 1_555 1_555
C23_6 H13_6 1_555 1_555
H11_6 C22_6 1_555 1_555
C24_6 C22_6 1_555 1_555
C25_6 C24_6 1_555 1_555
H14_6 C25_6 1_555 1_555
C26_6 C25_6 1_555 1_555
H15_6 C26_6 1_555 1_555
C27_6 C26_6 1_555 1_555
H16_6 C27_6 1_555 1_555
C27_6 C28_6 1_555 1_555
H10_7 O7_7 1_555 1_555
C22_7 O7_7 1_555 1_555
H11_7 C22_7 1_555 1_555
H12_7 C22_7 1_555 1_555
C23_7 H13_7 1_555 1_555
C24_7 C22_7 1_555 1_555
C25_7 C24_7 1_555 1_555
H14_7 C25_7 1_555 1_555
C26_7 C25_7 1_555 1_555
H15_7 C26_7 1_555 1_555
C27_7 C26_7 1_555 1_555
H16_7 C27_7 1_555 1_555
C28_7 C23_7 1_555 1_555
H17_7 C28_7 1_555 1_555
C23_7 C24_7 1_555 1_555
C27_7 C28_7 1_555 1_555
H11_8 C22_8 1_555 1_555
C24_8 C22_8 1_555 1_555
C25_8 C24_8 1_555 1_555
H14_8 C25_8 1_555 1_555
C26_8 C25_8 1_555 1_555
H15_8 C26_8 1_555 1_555
C27_8 C26_8 1_555 1_555
H16_8 C27_8 1_555 1_555
C27_8 C28_8 1_555 1_555
H10_8 O7_8 1_555 1_555
C23_8 H13_8 1_555 1_555

#END
