
###############################################################################
#
# This file contains modified crystal structure data generated from the
# MOF subset of the Cambridge Structural Database (CSD) v543 
# hosted by the Cambridge Crystallographic Data Centre (CCDC).
#
# This work is licensed under the Creative Commons
# Attribution-NonCommercial-ShareAlike 4.0 International License.
# To view a copy of this license, visit
# http://creativecommons.org/licenses/by-nc-sa/4.0/
# or send a letter to
# Creative Commons, PO Box 1866, Mountain View, CA 94042, USA.
#
# CIF created using the CSD Python API on 29 September 2022
# The structure has been converted into the P1 space group
# The structure has a 3D framework
# The original CSD entry SEPREO is in the monoclinic crystal system
# The framework has been calculated to contain at least 10.0% void space
# The void calculation uses a probe of radius 1.32A, grid spacing 0.4
#
###############################################################################

data_SEPREO
_chemical_formula_moiety         '(C264 H184 N16 O48 Zn8)n'
_symmetry_cell_setting           triclinic
_symmetry_space_group_name_H-M   'P 1'
_symmetry_Int_Tables_number      1
_space_group_name_Hall           'P 1'
loop_
_symmetry_equiv_pos_site_id
_symmetry_equiv_pos_as_xyz
1 x,y,z
_cell_length_a                   13.5354(5)
_cell_length_b                   31.0481(13)
_cell_length_c                   17.2448(8)
_cell_angle_alpha                90
_cell_angle_beta                 107.832(5)
_cell_angle_gamma                90
_cell_volume                     6898.94
loop_
_atom_site_label
_atom_site_type_symbol
_atom_site_fract_x
_atom_site_fract_y
_atom_site_fract_z
O9 O 0.0074(4) 0.30107(17) 0.4865(3)
Zn10 Zn 0.750000 0.750000 0.000000
N4 N 0.7729(5) 0.55587(16) 0.5107(3)
O7 O 0.5278(4) 0.69069(15) 0.0453(3)
O8 O 0.6950(3) 0.70810(15) 0.0805(2)
O10 O 0.9022(3) 0.27653(11) 0.5498(2)
O11 O 0.7219(3) 0.70491(12) 0.9112(2)
O12 O 0.5531(3) 0.68891(14) 0.8724(3)
C40 C 0.6203(6) 0.6884(2) 0.0912(4)
C41 C 0.6311(7) 0.6588(3) 0.1621(5)
H29 H 0.575148 0.641066 0.160516
C42 C 0.7056(7) 0.6564(3) 0.2200(5)
H30 H 0.763634 0.672321 0.219569
C43 C 0.7134(8) 0.6288(3) 0.2962(5)
C44 C 0.6627(8) 0.5896(3) 0.2949(5)
H31 H 0.616211 0.579681 0.246541
C45 C 0.6818(7) 0.5649(3) 0.3669(4)
H32 H 0.648991 0.538508 0.366385
C46 C 0.7492(6) 0.5805(2) 0.4370(4)
C47 C 0.7958(7) 0.6195(2) 0.4371(4)
H33 H 0.840282 0.630029 0.485826
C48 C 0.7790(7) 0.6435(3) 0.3682(4)
H34 H 0.812305 0.669817 0.370146
C49 C 0.8040(6) 0.5126(2) 0.5116(4)
C50 C 0.8581(7) 0.4995(3) 0.4596(5)
H35 H 0.872760 0.519435 0.424286
C51 C 0.8900(7) 0.4586(3) 0.4590(5)
H36 H 0.928386 0.451292 0.424504
C52 C 0.8688(7) 0.4280(3) 0.5060(5)
C53 C 0.8155(7) 0.4402(2) 0.5591(5)
H37 H 0.801296 0.419731 0.593603
C54 C 0.7824(6) 0.4829(2) 0.5619(4)
H38 H 0.746206 0.490701 0.597724
C55 C 0.8906(6) 0.3509(2) 0.5276(5)
H39 H 0.841974 0.352072 0.555746
C56 C 0.6438(4) 0.68597(17) 0.8673(3)
C57 C 0.9402(5) 0.30742(18) 0.5174(4)
C58 C 0.7637(5) 0.57622(18) 0.5811(3)
C59 C 0.6764(5) 0.59980(19) 0.5767(4)
H40 H 0.623341 0.602087 0.527687
C60 C 0.6677(5) 0.62040(19) 0.6466(4)
H41 H 0.606778 0.635030 0.643859
C61 C 0.7474(5) 0.61957(19) 0.7197(3)
C62 C 0.8350(5) 0.5960(2) 0.7218(4)
H42 H 0.889690 0.594723 0.770130
C63 C 0.8435(6) 0.5745(2) 0.6551(4)
H43 H 0.902940 0.558539 0.658877
C64 C 0.7396(5) 0.6433(2) 0.7914(4)
H44 H 0.800900 0.648473 0.832995
C65 C 0.6541(5) 0.6578(2) 0.8014(4)
H45 H 0.592625 0.649429 0.762669
C66 C 0.9157(7) 0.3854(3) 0.4979(5)
H46 H 0.964862 0.383934 0.470345
Zn5 Zn 0.50928(5) 0.72541(2) 0.94883(4)
Zn6 Zn 0.99072(5) 0.22541(2) 0.55117(4)
Zn10_2 Zn 0.750000 0.750000 1.000000
Zn11 Zn 0.750000 0.250000 0.500000
H22 H 0.012382 0.725616 0.676326
N3 N 0.3548(3) 0.72737(14) 0.8932(3)
C34 C 0.3151(5) 0.73768(19) 0.8148(4)
H24 H 0.359812 0.745291 0.785504
C35 C 0.2084(5) 0.7374(2) 0.7755(4)
H25 H 0.182620 0.744603 0.720605
C36 C 0.1411(5) 0.7263(2) 0.8189(5)
C37 C 0.1842(5) 0.7161(2) 0.9006(5)
H26 H 0.142087 0.709091 0.932481
C38 C 0.2894(5) 0.7167(2) 0.9333(4)
H27 H 0.317317 0.708990 0.987803
C39 C 0.0247(6) 0.7259(2) 0.7863(5)
O14 O 0.5978(3) 0.77653(11) 0.9502(2)
O16 O 0.9022(3) 0.72347(11) 0.0498(2)
O18 O 0.7781(3) 0.79509(12) 0.0888(2)
O13 O 0.8050(3) 0.79190(15) 0.9195(2)
O1 O 0.9722(4) 0.19069(15) 0.4547(3)
O2 O 0.8050(3) 0.20810(15) 0.4195(2)
C1 C 0.8797(6) 0.1884(2) 0.4088(4)
C2 C 0.8689(7) 0.1588(3) 0.3379(5)
H1 H 0.924852 0.141066 0.339484
C3 C 0.7944(7) 0.1564(3) 0.2800(5)
H2 H 0.736366 0.172321 0.280431
C4 C 0.7866(8) 0.1288(3) 0.2038(5)
C5 C 0.8373(8) 0.0896(3) 0.2051(5)
H3 H 0.883789 0.079681 0.253459
C6 C 0.8182(7) 0.0649(3) 0.1331(4)
H4 H 0.851009 0.038508 0.133615
C7 C 0.7508(6) 0.0805(2) 0.0630(4)
C8 C 0.7042(7) 0.1195(2) 0.0629(4)
H5 H 0.659718 0.130029 0.014174
C9 C 0.7210(7) 0.1435(3) 0.1318(4)
H6 H 0.687695 0.169817 0.129854
H7 H 0.627240 0.019435 0.075714
O13_2 O 0.6950(3) 0.29190(15) 0.5805(2)
O16_2 O 0.5978(3) 0.22347(11) 0.4502(2)
O17 O 0.7781(3) 0.20491(12) 0.5888(2)
O18_2 O 0.7219(3) 0.29509(12) 0.4112(2)
O19 O 0.9469(3) 0.18891(14) 0.6276(3)
N2 N 0.7271(5) 0.05587(16) 0.9893(3)
C10 C 0.6960(6) 0.0126(2) 0.9884(4)
C17 C 0.8562(4) 0.18597(17) 0.6327(3)
C19 C 0.7363(5) 0.07622(18) 0.9189(3)
C20 C 0.8236(5) 0.09980(19) 0.9233(4)
H12 H 0.876659 0.102087 0.972313
C21 C 0.8323(5) 0.12040(19) 0.8534(4)
H13 H 0.893222 0.135030 0.856141
C22 C 0.7526(5) 0.11957(19) 0.7803(3)
C23 C 0.6650(5) 0.0960(2) 0.7782(4)
H14 H 0.610310 0.094723 0.729870
C24 C 0.6565(6) 0.0745(2) 0.8449(4)
H15 H 0.597060 0.058539 0.841123
C25 C 0.7604(5) 0.1433(2) 0.7086(4)
H16 H 0.699100 0.148473 0.667005
C26 C 0.8459(5) 0.1578(2) 0.6986(4)
H17 H 0.907375 0.149429 0.737331
O3 O 0.4926(4) 0.80107(17) 0.0135(3)
C11 C 0.6419(7) 0.9995(3) 0.0404(5)
C12 C 0.6100(7) 0.9586(3) 0.0410(5)
H8 H 0.571614 0.951292 0.075496
C33 C 0.5843(7) 0.8854(3) 0.0021(5)
H23 H 0.535138 0.883934 0.029655
C13 C 0.6312(7) 0.9280(3) 0.9940(5)
C14 C 0.6845(7) 0.9402(2) 0.9409(5)
H9 H 0.698704 0.919731 0.906397
C15 C 0.7176(6) 0.9829(2) 0.9381(4)
H10 H 0.753794 0.990701 0.902276
C16 C 0.6094(6) 0.8509(2) 0.9724(5)
H11 H 0.658026 0.852072 0.944254
C18 C 0.5598(5) 0.80742(18) 0.9826(4)
N2_2 N 0.7729(5) 0.44413(16) 0.0107(3)
O6 O 0.5531(3) 0.31109(14) 0.3724(3)
C10_2 C 0.8040(6) 0.4874(2) 0.0116(4)
C13_2 C 0.8688(7) 0.5720(3) 0.0060(5)
C14_2 C 0.8155(7) 0.5598(2) 0.0591(5)
H9_2 H 0.801296 0.580269 0.093603
C15_2 C 0.7824(6) 0.5171(2) 0.0619(4)
H10_2 H 0.746206 0.509299 0.097724
C16_2 C 0.8906(6) 0.6491(2) 0.0276(5)
H11_2 H 0.841974 0.647928 0.055746
C17_2 C 0.6438(4) 0.31403(17) 0.3673(3)
C18_2 C 0.9402(5) 0.69258(18) 0.0174(4)
C19_2 C 0.7637(5) 0.42378(18) 0.0811(3)
C20_2 C 0.6764(5) 0.40020(19) 0.0767(4)
H12_2 H 0.623341 0.397913 0.027687
C21_2 C 0.6677(5) 0.37960(19) 0.1466(4)
H13_2 H 0.606778 0.364970 0.143859
C22_2 C 0.7474(5) 0.38043(19) 0.2197(3)
C23_2 C 0.8350(5) 0.4040(2) 0.2218(4)
H14_2 H 0.889690 0.405277 0.270130
C24_2 C 0.8435(6) 0.4255(2) 0.1551(4)
H15_2 H 0.902940 0.441461 0.158877
C25_2 C 0.7396(5) 0.3567(2) 0.2914(4)
H16_2 H 0.800900 0.351527 0.332995
C26_2 C 0.6541(5) 0.3422(2) 0.3014(4)
H17_2 H 0.592625 0.350571 0.262669
Zn4 Zn 0.50928(5) 0.27459(2) 0.44883(4)
Zn7 Zn 0.99072(5) 0.77459(2) 0.05117(4)
N1 N 0.3548(3) 0.27263(14) 0.3932(3)
O1_2 O 0.5278(4) 0.30931(15) 0.5453(3)
C1_2 C 0.6203(6) 0.3116(2) 0.5912(4)
C2_2 C 0.6311(7) 0.3412(3) 0.6621(5)
H1_2 H 0.575148 0.358934 0.660516
C3_2 C 0.7056(7) 0.3436(3) 0.7200(5)
H2_2 H 0.763634 0.327679 0.719569
C4_2 C 0.7134(8) 0.3712(3) 0.7962(5)
C5_2 C 0.6627(8) 0.4104(3) 0.7949(5)
H3_2 H 0.616211 0.420319 0.746541
C6_2 C 0.6818(7) 0.4351(3) 0.8669(4)
H4_2 H 0.648991 0.461492 0.866385
C7_2 C 0.7492(6) 0.4195(2) 0.9370(4)
C8_2 C 0.7958(7) 0.3805(2) 0.9371(4)
H5_2 H 0.840282 0.369971 0.985826
C9_2 C 0.7790(7) 0.3565(3) 0.8682(4)
H6_2 H 0.812305 0.330183 0.870146
C11_2 C 0.8581(7) 0.5005(3) 0.9596(5)
H7_2 H 0.872760 0.480565 0.924286
C12_2 C 0.8900(7) 0.5414(3) 0.9590(5)
H8_2 H 0.928386 0.548708 0.924504
C27 C 0.3151(5) 0.26232(19) 0.3148(4)
H18 H 0.359812 0.254709 0.285504
C28 C 0.2084(5) 0.2626(2) 0.2755(4)
H19 H 0.182620 0.255397 0.220605
C29 C 0.1411(5) 0.2737(2) 0.3189(5)
C30 C 0.1842(5) 0.2839(2) 0.4006(5)
H20 H 0.142087 0.290909 0.432481
C31 C 0.2894(5) 0.2833(2) 0.4333(4)
H21 H 0.317317 0.291010 0.487803
C32 C 0.0247(6) 0.2741(2) 0.2863(5)
C33_2 C 0.9157(7) 0.6146(3) 0.9979(5)
H23_2 H 0.964862 0.616066 0.970345
H28 H 0.012382 0.274384 0.176326
O9_2 O 0.4926(4) 0.19893(17) 0.5135(3)
C50_2 C 0.6419(7) 0.0005(3) 0.5404(5)
C51_2 C 0.6100(7) 0.0414(3) 0.5410(5)
H36_2 H 0.571614 0.048708 0.575496
C52_2 C 0.6312(7) 0.0720(3) 0.4940(5)
C53_2 C 0.6845(7) 0.0598(2) 0.4409(5)
H37_2 H 0.698704 0.080269 0.406397
C54_2 C 0.7176(6) 0.0171(2) 0.4381(4)
H38_2 H 0.753794 0.009299 0.402276
C55_2 C 0.6094(6) 0.1491(2) 0.4724(5)
H39_2 H 0.658026 0.147928 0.444254
C57_2 C 0.5598(5) 0.19258(18) 0.4826(4)
C66_2 C 0.5843(7) 0.1146(3) 0.5021(5)
H46_2 H 0.535138 0.116066 0.529655
O20 O 0.9469(3) 0.81109(14) 0.1276(3)
N4_2 N 0.7271(5) 0.94413(16) 0.4893(3)
O7_2 O 0.9722(4) 0.80931(15) 0.9547(3)
C40_2 C 0.8797(6) 0.8116(2) 0.9088(4)
C41_2 C 0.8689(7) 0.8412(3) 0.8379(5)
H29_2 H 0.924852 0.858934 0.839484
C42_2 C 0.7944(7) 0.8436(3) 0.7800(5)
H30_2 H 0.736366 0.827679 0.780431
C43_2 C 0.7866(8) 0.8712(3) 0.7038(5)
C44_2 C 0.8373(8) 0.9104(3) 0.7051(5)
H31_2 H 0.883789 0.920319 0.753459
C45_2 C 0.8182(7) 0.9351(3) 0.6331(4)
H32_2 H 0.851009 0.961492 0.633615
C46_2 C 0.7508(6) 0.9195(2) 0.5630(4)
C47_2 C 0.7042(7) 0.8805(2) 0.5629(4)
H33_2 H 0.659718 0.869971 0.514174
C48_2 C 0.7210(7) 0.8565(3) 0.6318(4)
H34_2 H 0.687695 0.830183 0.629854
C49_2 C 0.6960(6) 0.9874(2) 0.4884(4)
H35_2 H 0.627240 0.980565 0.575714
C56_2 C 0.8562(4) 0.81403(17) 0.1327(3)
C58_2 C 0.7363(5) 0.92378(18) 0.4189(3)
C59_2 C 0.8236(5) 0.90020(19) 0.4233(4)
H40_2 H 0.876659 0.897913 0.472313
C60_2 C 0.8323(5) 0.87960(19) 0.3534(4)
H41_2 H 0.893222 0.864970 0.356141
C61_2 C 0.7526(5) 0.88043(19) 0.2803(3)
C62_2 C 0.6650(5) 0.9040(2) 0.2782(4)
H42_2 H 0.610310 0.905277 0.229870
C63_2 C 0.6565(6) 0.9255(2) 0.3449(4)
H43_2 H 0.597060 0.941461 0.341123
C64_2 C 0.7604(5) 0.8567(2) 0.2086(4)
H44_2 H 0.699100 0.851527 0.167005
C65_2 C 0.8459(5) 0.8422(2) 0.1986(4)
H45_2 H 0.907375 0.850571 0.237331
Zn1 Zn 0.49072(5) 0.72541(2) 0.55117(4)
Zn2 Zn 0.250000 0.750000 0.500000
N1_2 N 0.6452(3) 0.72737(14) 0.6068(3)
O1_3 O 0.4722(4) 0.69069(15) 0.4547(3)
O2_2 O 0.3050(3) 0.70810(15) 0.4195(2)
C1_3 C 0.3797(6) 0.6884(2) 0.4088(4)
C2_3 C 0.3689(7) 0.6588(3) 0.3379(5)
H1_3 H 0.424852 0.641066 0.339484
C3_3 C 0.2944(7) 0.6564(3) 0.2800(5)
H2_3 H 0.236366 0.672321 0.280431
C4_3 C 0.2866(8) 0.6288(3) 0.2038(5)
C5_3 C 0.3373(8) 0.5896(3) 0.2051(5)
H3_3 H 0.383789 0.579681 0.253459
C6_3 C 0.3182(7) 0.5649(3) 0.1331(4)
H4_3 H 0.351009 0.538508 0.133615
C7_3 C 0.2508(6) 0.5805(2) 0.0630(4)
C8_3 C 0.2042(7) 0.6195(2) 0.0629(4)
H5_3 H 0.159718 0.630029 0.014174
C9_3 C 0.2210(7) 0.6435(3) 0.1318(4)
H6_3 H 0.187695 0.669817 0.129854
C11_3 C 0.1419(7) 0.4995(3) 0.0404(5)
H7_3 H 0.127240 0.519435 0.075714
C12_3 C 0.1100(7) 0.4586(3) 0.0410(5)
H8_3 H 0.071614 0.451292 0.075496
C27_2 C 0.6849(5) 0.73768(19) 0.6852(4)
H18_2 H 0.640188 0.745291 0.714496
C28_2 C 0.7916(5) 0.7374(2) 0.7245(4)
H19_2 H 0.817380 0.744603 0.779395
C29_2 C 0.8589(5) 0.7263(2) 0.6811(5)
C30_2 C 0.8158(5) 0.7161(2) 0.5994(5)
H20_2 H 0.857913 0.709091 0.567519
C31_2 C 0.7106(5) 0.7167(2) 0.5667(4)
H21_2 H 0.682683 0.708990 0.512197
C32_2 C 0.9753(6) 0.7259(2) 0.7137(5)
C33_3 C 0.0843(7) 0.3854(3) 0.0021(5)
H23_3 H 0.035138 0.383934 0.029655
H28_2 H 0.987618 0.725616 0.823674
Zn12 Zn 0.250000 0.250000 0.000000
O13_3 O 0.1950(3) 0.79190(15) 0.5805(2)
O15 O 0.4022(3) 0.77653(11) 0.5498(2)
O16_3 O 0.0978(3) 0.72347(11) 0.4502(2)
O17_2 O 0.2781(3) 0.70491(12) 0.5888(2)
O18_3 O 0.2219(3) 0.79509(12) 0.4112(2)
O19_2 O 0.4469(3) 0.68891(14) 0.6276(3)
N2_3 N 0.2271(5) 0.55587(16) 0.9893(3)
O4 O 0.0978(3) 0.27653(11) 0.9502(2)
C10_3 C 0.1960(6) 0.5126(2) 0.9884(4)
C13_3 C 0.1312(7) 0.4280(3) 0.9940(5)
C14_3 C 0.1845(7) 0.4402(2) 0.9409(5)
H9_3 H 0.198704 0.419731 0.906397
C15_3 C 0.2176(6) 0.4829(2) 0.9381(4)
H10_3 H 0.253794 0.490701 0.902276
C16_3 C 0.1094(6) 0.3509(2) 0.9724(5)
H11_3 H 0.158026 0.352072 0.944254
C17_3 C 0.3562(4) 0.68597(17) 0.6327(3)
C18_3 C 0.0598(5) 0.30742(18) 0.9826(4)
C19_3 C 0.2363(5) 0.57622(18) 0.9189(3)
C20_3 C 0.3236(5) 0.59980(19) 0.9233(4)
H12_3 H 0.376659 0.602087 0.972313
C21_3 C 0.3323(5) 0.62040(19) 0.8534(4)
H13_3 H 0.393222 0.635030 0.856141
C22_3 C 0.2526(5) 0.61957(19) 0.7803(3)
C23_3 C 0.1650(5) 0.5960(2) 0.7782(4)
H14_3 H 0.110310 0.594723 0.729870
C24_3 C 0.1565(6) 0.5745(2) 0.8449(4)
H15_3 H 0.097060 0.558539 0.841123
C25_3 C 0.2604(5) 0.6433(2) 0.7086(4)
H16_3 H 0.199100 0.648473 0.667005
C26_3 C 0.3459(5) 0.6578(2) 0.6986(4)
H17_3 H 0.407375 0.649429 0.737331
Zn7_2 Zn 0.00928(5) 0.22541(2) 0.94883(4)
Zn12_2 Zn 0.250000 0.250000 1.000000
N4_3 N 0.2729(5) 0.05587(16) 0.5107(3)
O7_3 O 0.0278(4) 0.19069(15) 0.0453(3)
O8_2 O 0.1950(3) 0.20810(15) 0.0805(2)
O11_2 O 0.2219(3) 0.20491(12) 0.9112(2)
O12_2 O 0.0531(3) 0.18891(14) 0.8724(3)
C40_3 C 0.1203(6) 0.1884(2) 0.0912(4)
C41_3 C 0.1311(7) 0.1588(3) 0.1621(5)
H29_3 H 0.075148 0.141066 0.160516
C42_3 C 0.2056(7) 0.1564(3) 0.2200(5)
H30_3 H 0.263634 0.172321 0.219569
C43_3 C 0.2134(8) 0.1288(3) 0.2962(5)
C44_3 C 0.1627(8) 0.0896(3) 0.2949(5)
H31_3 H 0.116211 0.079681 0.246541
C45_3 C 0.1818(7) 0.0649(3) 0.3669(4)
H32_3 H 0.148991 0.038508 0.366385
C46_3 C 0.2492(6) 0.0805(2) 0.4370(4)
C47_3 C 0.2958(7) 0.1195(2) 0.4371(4)
H33_3 H 0.340282 0.130029 0.485826
C48_3 C 0.2790(7) 0.1435(3) 0.3682(4)
H34_3 H 0.312305 0.169817 0.370146
C49_3 C 0.3040(6) 0.0126(2) 0.5116(4)
H35_3 H 0.372760 0.019435 0.424286
C56_3 C 0.1438(4) 0.18597(17) 0.8673(3)
C58_3 C 0.2637(5) 0.07622(18) 0.5811(3)
C59_3 C 0.1764(5) 0.09980(19) 0.5767(4)
H40_3 H 0.123341 0.102087 0.527687
C60_3 C 0.1677(5) 0.12040(19) 0.6466(4)
H41_3 H 0.106778 0.135030 0.643859
C61_3 C 0.2474(5) 0.11957(19) 0.7197(3)
C62_3 C 0.3350(5) 0.0960(2) 0.7218(4)
H42_3 H 0.389690 0.094723 0.770130
C63_3 C 0.3435(6) 0.0745(2) 0.6551(4)
H43_3 H 0.402940 0.058539 0.658877
C64_3 C 0.2396(5) 0.1433(2) 0.7914(4)
H44_3 H 0.300900 0.148473 0.832995
C65_3 C 0.1541(5) 0.1578(2) 0.8014(4)
H45_3 H 0.092625 0.149429 0.762669
O9_3 O 0.5074(4) 0.80107(17) 0.4865(3)
C50_3 C 0.3581(7) 0.9995(3) 0.4596(5)
C51_3 C 0.3900(7) 0.9586(3) 0.4590(5)
H36_3 H 0.428386 0.951292 0.424504
C52_3 C 0.3688(7) 0.9280(3) 0.5060(5)
C53_3 C 0.3155(7) 0.9402(2) 0.5591(5)
H37_3 H 0.301296 0.919731 0.593603
C54_3 C 0.2824(6) 0.9829(2) 0.5619(4)
H38_3 H 0.246206 0.990701 0.597724
C55_3 C 0.3906(6) 0.8509(2) 0.5276(5)
H39_3 H 0.341974 0.852072 0.555746
C57_3 C 0.4402(5) 0.80742(18) 0.5174(4)
C66_3 C 0.4157(7) 0.8854(3) 0.4979(5)
H46_3 H 0.464862 0.883934 0.470345
O16_4 O 0.4022(3) 0.22347(11) 0.0498(2)
O18_4 O 0.2781(3) 0.29509(12) 0.0888(2)
O13_4 O 0.3050(3) 0.29190(15) 0.9195(2)
H22_2 H 0.987618 0.274384 0.323674
N3_2 N 0.6452(3) 0.27263(14) 0.1068(3)
C34_2 C 0.6849(5) 0.26232(19) 0.1852(4)
H24_2 H 0.640188 0.254709 0.214496
C35_2 C 0.7916(5) 0.2626(2) 0.2245(4)
H25_2 H 0.817380 0.255397 0.279395
C36_2 C 0.8589(5) 0.2737(2) 0.1811(5)
C37_2 C 0.8158(5) 0.2839(2) 0.0994(5)
H26_2 H 0.857913 0.290909 0.067519
C38_2 C 0.7106(5) 0.2833(2) 0.0667(4)
H27_2 H 0.682683 0.291010 0.012197
C39_2 C 0.9753(6) 0.2741(2) 0.2137(5)
Zn3 Zn 0.49072(5) 0.27459(2) 0.05117(4)
O20_2 O 0.4469(3) 0.31109(14) 0.1276(3)
N4_4 N 0.2271(5) 0.44413(16) 0.4893(3)
O7_4 O 0.4722(4) 0.30931(15) 0.9547(3)
C40_4 C 0.3797(6) 0.3116(2) 0.9088(4)
C41_4 C 0.3689(7) 0.3412(3) 0.8379(5)
H29_4 H 0.424852 0.358934 0.839484
C42_4 C 0.2944(7) 0.3436(3) 0.7800(5)
H30_4 H 0.236366 0.327679 0.780431
C43_4 C 0.2866(8) 0.3712(3) 0.7038(5)
C44_4 C 0.3373(8) 0.4104(3) 0.7051(5)
H31_4 H 0.383789 0.420319 0.753459
C45_4 C 0.3182(7) 0.4351(3) 0.6331(4)
H32_4 H 0.351009 0.461492 0.633615
C46_4 C 0.2508(6) 0.4195(2) 0.5630(4)
C47_4 C 0.2042(7) 0.3805(2) 0.5629(4)
H33_4 H 0.159718 0.369971 0.514174
C48_4 C 0.2210(7) 0.3565(3) 0.6318(4)
H34_4 H 0.187695 0.330183 0.629854
C49_4 C 0.1960(6) 0.4874(2) 0.4884(4)
C50_4 C 0.1419(7) 0.5005(3) 0.5404(5)
H35_4 H 0.127240 0.480565 0.575714
C51_4 C 0.1100(7) 0.5414(3) 0.5410(5)
H36_4 H 0.071614 0.548708 0.575496
C52_4 C 0.1312(7) 0.5720(3) 0.4940(5)
C53_4 C 0.1845(7) 0.5598(2) 0.4409(5)
H37_4 H 0.198704 0.580269 0.406397
C54_4 C 0.2176(6) 0.5171(2) 0.4381(4)
H38_4 H 0.253794 0.509299 0.402276
C55_4 C 0.1094(6) 0.6491(2) 0.4724(5)
H39_4 H 0.158026 0.647928 0.444254
C56_4 C 0.3562(4) 0.31403(17) 0.1327(3)
C57_4 C 0.0598(5) 0.69258(18) 0.4826(4)
C58_4 C 0.2363(5) 0.42378(18) 0.4189(3)
C59_4 C 0.3236(5) 0.40020(19) 0.4233(4)
H40_4 H 0.376659 0.397913 0.472313
C60_4 C 0.3323(5) 0.37960(19) 0.3534(4)
H41_4 H 0.393222 0.364970 0.356141
C61_4 C 0.2526(5) 0.38043(19) 0.2803(3)
C62_4 C 0.1650(5) 0.4040(2) 0.2782(4)
H42_4 H 0.110310 0.405277 0.229870
C63_4 C 0.1565(6) 0.4255(2) 0.3449(4)
H43_4 H 0.097060 0.441461 0.341123
C64_4 C 0.2604(5) 0.3567(2) 0.2086(4)
H44_4 H 0.199100 0.351527 0.167005
C65_4 C 0.3459(5) 0.3422(2) 0.1986(4)
H45_4 H 0.407375 0.350571 0.237331
C66_4 C 0.0843(7) 0.6146(3) 0.5021(5)
H46_4 H 0.035138 0.616066 0.529655
Zn6_2 Zn 0.00928(5) 0.77459(2) 0.44883(4)
C13_4 C 0.3688(7) 0.0720(3) 0.0060(5)
C14_4 C 0.3155(7) 0.0598(2) 0.0591(5)
H9_4 H 0.301296 0.080269 0.093603
C15_4 C 0.2824(6) 0.0171(2) 0.0619(4)
H10_4 H 0.246206 0.009299 0.097724
C16_4 C 0.3906(6) 0.1491(2) 0.0276(5)
H11_4 H 0.341974 0.147928 0.055746
C18_4 C 0.4402(5) 0.19258(18) 0.0174(4)
O3_2 O 0.5074(4) 0.19893(17) 0.9865(3)
C11_4 C 0.3581(7) 0.0005(3) 0.9596(5)
C12_4 C 0.3900(7) 0.0414(3) 0.9590(5)
H8_4 H 0.428386 0.048708 0.924504
C33_4 C 0.4157(7) 0.1146(3) 0.9979(5)
H23_4 H 0.464862 0.116066 0.970345
N2_4 N 0.2729(5) 0.94413(16) 0.0107(3)
O6_2 O 0.0531(3) 0.81109(14) 0.3724(3)
C10_4 C 0.3040(6) 0.9874(2) 0.0116(4)
C17_4 C 0.1438(4) 0.81403(17) 0.3673(3)
C19_4 C 0.2637(5) 0.92378(18) 0.0811(3)
C20_4 C 0.1764(5) 0.90020(19) 0.0767(4)
H12_4 H 0.123341 0.897913 0.027687
C21_4 C 0.1677(5) 0.87960(19) 0.1466(4)
H13_4 H 0.106778 0.864970 0.143859
C22_4 C 0.2474(5) 0.88043(19) 0.2197(3)
C23_4 C 0.3350(5) 0.9040(2) 0.2218(4)
H14_4 H 0.389690 0.905277 0.270130
C24_4 C 0.3435(6) 0.9255(2) 0.1551(4)
H15_4 H 0.402940 0.941461 0.158877
C25_4 C 0.2396(5) 0.8567(2) 0.2914(4)
H16_4 H 0.300900 0.851527 0.332995
C26_4 C 0.1541(5) 0.8422(2) 0.3014(4)
H17_4 H 0.092625 0.850571 0.262669
O1_4 O 0.0278(4) 0.80931(15) 0.5453(3)
C1_4 C 0.1203(6) 0.8116(2) 0.5912(4)
C2_4 C 0.1311(7) 0.8412(3) 0.6621(5)
H1_4 H 0.075148 0.858934 0.660516
C3_4 C 0.2056(7) 0.8436(3) 0.7200(5)
H2_4 H 0.263634 0.827679 0.719569
C4_4 C 0.2134(8) 0.8712(3) 0.7962(5)
C5_4 C 0.1627(8) 0.9104(3) 0.7949(5)
H3_4 H 0.116211 0.920319 0.746541
C6_4 C 0.1818(7) 0.9351(3) 0.8669(4)
H4_4 H 0.148991 0.961492 0.866385
C7_4 C 0.2492(6) 0.9195(2) 0.9370(4)
C8_4 C 0.2958(7) 0.8805(2) 0.9371(4)
H5_4 H 0.340282 0.869971 0.985826
C9_4 C 0.2790(7) 0.8565(3) 0.8682(4)
H6_4 H 0.312305 0.830183 0.870146
H7_4 H 0.372760 0.980565 0.924286
O3_3 O 0.9926(4) 0.30107(17) 0.0135(3)
N1_3 N 0.1452(3) 0.22737(14) 0.6068(3)
C27_3 C 0.1849(5) 0.23768(19) 0.6852(4)
H18_3 H 0.140188 0.245291 0.714496
C28_3 C 0.2916(5) 0.2374(2) 0.7245(4)
H19_3 H 0.317380 0.244603 0.779395
C29_3 C 0.3589(5) 0.2263(2) 0.6811(5)
C30_3 C 0.3158(5) 0.2161(2) 0.5994(5)
H20_3 H 0.357913 0.209091 0.567519
C31_3 C 0.2106(5) 0.2167(2) 0.5667(4)
H21_3 H 0.182683 0.208990 0.512197
C32_3 C 0.4753(6) 0.2259(2) 0.7137(5)
H22_3 H 0.512382 0.225616 0.676326
N3_3 N 0.8548(3) 0.22737(14) 0.8932(3)
C34_3 C 0.8151(5) 0.23768(19) 0.8148(4)
H24_3 H 0.859812 0.245291 0.785504
C35_3 C 0.7084(5) 0.2374(2) 0.7755(4)
H25_3 H 0.682620 0.244603 0.720605
C36_3 C 0.6411(5) 0.2263(2) 0.8189(5)
C37_3 C 0.6842(5) 0.2161(2) 0.9006(5)
H26_3 H 0.642087 0.209091 0.932481
C38_3 C 0.7894(5) 0.2167(2) 0.9333(4)
H27_3 H 0.817317 0.208990 0.987803
C39_3 C 0.5247(6) 0.2259(2) 0.7863(5)
H28_3 H 0.487618 0.225616 0.823674
O3_4 O 0.0074(4) 0.69893(17) 0.9865(3)
O9_4 O 0.9926(4) 0.69893(17) 0.5135(3)
N1_4 N 0.8548(3) 0.77263(14) 0.3932(3)
C27_4 C 0.8151(5) 0.76232(19) 0.3148(4)
H18_4 H 0.859812 0.754709 0.285504
C28_4 C 0.7084(5) 0.7626(2) 0.2755(4)
H19_4 H 0.682620 0.755397 0.220605
C29_4 C 0.6411(5) 0.7737(2) 0.3189(5)
C30_4 C 0.6842(5) 0.7839(2) 0.4006(5)
H20_4 H 0.642087 0.790909 0.432481
C31_4 C 0.7894(5) 0.7833(2) 0.4333(4)
H21_4 H 0.817317 0.791010 0.487803
C32_4 C 0.5247(6) 0.7741(2) 0.2863(5)
H22_4 H 0.487618 0.774384 0.323674
N3_4 N 0.1452(3) 0.77263(14) 0.1068(3)
C34_4 C 0.1849(5) 0.76232(19) 0.1852(4)
H24_4 H 0.140188 0.754709 0.214496
C35_4 C 0.2916(5) 0.7626(2) 0.2245(4)
H25_4 H 0.317380 0.755397 0.279395
C36_4 C 0.3589(5) 0.7737(2) 0.1811(5)
C37_4 C 0.3158(5) 0.7839(2) 0.0994(5)
H26_4 H 0.357913 0.790909 0.067519
C38_4 C 0.2106(5) 0.7833(2) 0.0667(4)
H27_4 H 0.182683 0.791010 0.012197
C39_4 C 0.4753(6) 0.7741(2) 0.2137(5)
H28_4 H 0.512382 0.774384 0.176326
loop_
_geom_bond_atom_site_label_1
_geom_bond_atom_site_label_2
_geom_bond_site_symmetry_1
_geom_bond_site_symmetry_2
N4 C46 1_555 1_555
O8 C40 1_555 1_555
O10 C57 1_555 1_555
O11 C56 1_555 1_555
O12 C56 1_555 1_555
C40 O7 1_555 1_555
C41 C40 1_555 1_555
H29 C41 1_555 1_555
C42 C41 1_555 1_555
H30 C42 1_555 1_555
C43 C42 1_555 1_555
C44 C43 1_555 1_555
H31 C44 1_555 1_555
C45 C44 1_555 1_555
H32 C45 1_555 1_555
C46 C45 1_555 1_555
C47 C46 1_555 1_555
H33 C47 1_555 1_555
C48 C43 1_555 1_555
H34 C48 1_555 1_555
C49 N4 1_555 1_555
C50 C49 1_555 1_555
H35 C50 1_555 1_555
C51 C50 1_555 1_555
H36 C51 1_555 1_555
C52 C51 1_555 1_555
C53 C52 1_555 1_555
H37 C53 1_555 1_555
C54 C49 1_555 1_555
H38 C54 1_555 1_555
C55 H39 1_555 1_555
C56 C65 1_555 1_555
C57 C55 1_555 1_555
C58 N4 1_555 1_555
C59 C58 1_555 1_555
H40 C59 1_555 1_555
C60 C59 1_555 1_555
H41 C60 1_555 1_555
C61 C60 1_555 1_555
C62 C61 1_555 1_555
H42 C62 1_555 1_555
C63 C58 1_555 1_555
H43 C63 1_555 1_555
C64 C61 1_555 1_555
H44 C64 1_555 1_555
C65 C64 1_555 1_555
H45 C65 1_555 1_555
C66 C52 1_555 1_555
H46 C66 1_555 1_555
Zn5 O12 1_555 1_555
Zn6 O10 1_555 1_555
Zn10 O8 1_555 1_555
Zn10_2 O11 1_555 1_555
Zn11 O10 1_555 1_555
C47 C48 1_555 1_555
C53 C54 1_555 1_555
C55 C66 1_555 1_555
C62 C63 1_555 1_555
N3 C34 1_555 1_555
C34 H24 1_555 1_555
C35 C34 1_555 1_555
H25 C35 1_555 1_555
C36 C35 1_555 1_555
C37 C36 1_555 1_555
H26 C37 1_555 1_555
C38 N3 1_555 1_555
H27 C38 1_555 1_555
Zn5 N3 1_555 1_555
O14 Zn5 1_555 1_555
C36 C39 1_555 1_555
C37 C38 1_555 1_555
Zn10_2 O14 1_555 1_555
O16 Zn10 1_555 1_555
O18 Zn10 1_555 1_555
O13 Zn10_2 1_555 1_555
Zn11 O2 1_555 1_555
O1 Zn6 1_555 1_555
O2 C1 1_555 1_555
C1 O1 1_555 1_555
C2 C1 1_555 1_555
H1 C2 1_555 1_555
C3 C2 1_555 1_555
H2 C3 1_555 1_555
C4 C3 1_555 1_555
C5 C4 1_555 1_555
H3 C5 1_555 1_555
C6 C5 1_555 1_555
H4 C6 1_555 1_555
C7 C6 1_555 1_555
C8 C7 1_555 1_555
H5 C8 1_555 1_555
C9 C4 1_555 1_555
H6 C9 1_555 1_555
O13_2 Zn11 1_555 1_555
O16_2 Zn11 1_555 1_555
O17 Zn11 1_555 1_555
O18_2 Zn11 1_555 1_555
O19 Zn6 1_555 1_555
C8 C9 1_555 1_555
O17 C17 1_555 1_555
O19 C17 1_555 1_555
C10 N2 1_555 1_555
C17 C26 1_555 1_555
C19 N2 1_555 1_555
C20 C19 1_555 1_555
H12 C20 1_555 1_555
C21 C20 1_555 1_555
H13 C21 1_555 1_555
C22 C21 1_555 1_555
C23 C22 1_555 1_555
H14 C23 1_555 1_555
C24 C19 1_555 1_555
H15 C24 1_555 1_555
C25 C22 1_555 1_555
H16 C25 1_555 1_555
C26 C25 1_555 1_555
H17 C26 1_555 1_555
C23 C24 1_555 1_555
C12 C11 1_555 1_555
H8 C12 1_555 1_555
H23 C33 1_555 1_555
O14 C18 1_555 1_555
C14 C13 1_555 1_555
H9 C14 1_555 1_555
H10 C15 1_555 1_555
C16 H11 1_555 1_555
C18 C16 1_555 1_555
C14 C15 1_555 1_555
O16 C18_2 1_555 1_555
O18_2 C17_2 1_555 1_555
O6 C17_2 1_555 1_555
C10_2 N2_2 1_555 1_555
C14_2 C13_2 1_555 1_555
H9_2 C14_2 1_555 1_555
C15_2 C10_2 1_555 1_555
H10_2 C15_2 1_555 1_555
C16_2 H11_2 1_555 1_555
C17_2 C26_2 1_555 1_555
C18_2 C16_2 1_555 1_555
C19_2 N2_2 1_555 1_555
C20_2 C19_2 1_555 1_555
H12_2 C20_2 1_555 1_555
C21_2 C20_2 1_555 1_555
H13_2 C21_2 1_555 1_555
C22_2 C21_2 1_555 1_555
C23_2 C22_2 1_555 1_555
H14_2 C23_2 1_555 1_555
C24_2 C19_2 1_555 1_555
H15_2 C24_2 1_555 1_555
C25_2 C22_2 1_555 1_555
H16_2 C25_2 1_555 1_555
C26_2 C25_2 1_555 1_555
H17_2 C26_2 1_555 1_555
Zn4 O6 1_555 1_555
Zn7 O16 1_555 1_555
C14_2 C15_2 1_555 1_555
C23_2 C24_2 1_555 1_555
Zn4 N1 1_555 1_555
N1 C27 1_555 1_555
O1_2 Zn4 1_555 1_555
O13_2 C1_2 1_555 1_555
C1_2 O1_2 1_555 1_555
C2_2 C1_2 1_555 1_555
H1_2 C2_2 1_555 1_555
C3_2 C2_2 1_555 1_555
H2_2 C3_2 1_555 1_555
C4_2 C3_2 1_555 1_555
C5_2 C4_2 1_555 1_555
H3_2 C5_2 1_555 1_555
C6_2 C5_2 1_555 1_555
H4_2 C6_2 1_555 1_555
C7_2 C6_2 1_555 1_555
C8_2 C7_2 1_555 1_555
H5_2 C8_2 1_555 1_555
C9_2 C4_2 1_555 1_555
H6_2 C9_2 1_555 1_555
H7_2 C11_2 1_555 1_555
C12_2 C11_2 1_555 1_555
H8_2 C12_2 1_555 1_555
C27 H18 1_555 1_555
C28 C27 1_555 1_555
H19 C28 1_555 1_555
C29 C28 1_555 1_555
C30 C29 1_555 1_555
H20 C30 1_555 1_555
C31 N1 1_555 1_555
H21 C31 1_555 1_555
C32 C29 1_555 1_555
H23_2 C33_2 1_555 1_555
O16_2 Zn4 1_555 1_555
C8_2 C9_2 1_555 1_555
C30 C31 1_555 1_555
O9_2 C57_2 1_555 1_555
O16_2 C57_2 1_555 1_555
C51_2 C50_2 1_555 1_555
H36_2 C51_2 1_555 1_555
C52_2 C51_2 1_555 1_555
C53_2 C52_2 1_555 1_555
H37_2 C53_2 1_555 1_555
H38_2 C54_2 1_555 1_555
C55_2 H39_2 1_555 1_555
C57_2 C55_2 1_555 1_555
C66_2 C52_2 1_555 1_555
H46_2 C66_2 1_555 1_555
C53_2 C54_2 1_555 1_555
C55_2 C66_2 1_555 1_555
O20 Zn7 1_555 1_555
N4_2 C46_2 1_555 1_555
O13 C40_2 1_555 1_555
O18 C56_2 1_555 1_555
O20 C56_2 1_555 1_555
C40_2 O7_2 1_555 1_555
C41_2 C40_2 1_555 1_555
H29_2 C41_2 1_555 1_555
C42_2 C41_2 1_555 1_555
H30_2 C42_2 1_555 1_555
C43_2 C42_2 1_555 1_555
C44_2 C43_2 1_555 1_555
H31_2 C44_2 1_555 1_555
C45_2 C44_2 1_555 1_555
H32_2 C45_2 1_555 1_555
C46_2 C45_2 1_555 1_555
C47_2 C46_2 1_555 1_555
H33_2 C47_2 1_555 1_555
C48_2 C43_2 1_555 1_555
H34_2 C48_2 1_555 1_555
C49_2 N4_2 1_555 1_555
C56_2 C65_2 1_555 1_555
C58_2 N4_2 1_555 1_555
C59_2 C58_2 1_555 1_555
H40_2 C59_2 1_555 1_555
C60_2 C59_2 1_555 1_555
H41_2 C60_2 1_555 1_555
C61_2 C60_2 1_555 1_555
C62_2 C61_2 1_555 1_555
H42_2 C62_2 1_555 1_555
C63_2 C58_2 1_555 1_555
H43_2 C63_2 1_555 1_555
C64_2 C61_2 1_555 1_555
H44_2 C64_2 1_555 1_555
C65_2 C64_2 1_555 1_555
H45_2 C65_2 1_555 1_555
C47_2 C48_2 1_555 1_555
C62_2 C63_2 1_555 1_555
Zn1 N1_2 1_555 1_555
Zn2 O2_2 1_555 1_555
N1_2 C27_2 1_555 1_555
O1_3 Zn1 1_555 1_555
O2_2 C1_3 1_555 1_555
C1_3 O1_3 1_555 1_555
C2_3 C1_3 1_555 1_555
H1_3 C2_3 1_555 1_555
C3_3 C2_3 1_555 1_555
H2_3 C3_3 1_555 1_555
C4_3 C3_3 1_555 1_555
C5_3 C4_3 1_555 1_555
H3_3 C5_3 1_555 1_555
C6_3 C5_3 1_555 1_555
H4_3 C6_3 1_555 1_555
C7_3 C6_3 1_555 1_555
C8_3 C7_3 1_555 1_555
H5_3 C8_3 1_555 1_555
C9_3 C4_3 1_555 1_555
H6_3 C9_3 1_555 1_555
H7_3 C11_3 1_555 1_555
C12_3 C11_3 1_555 1_555
H8_3 C12_3 1_555 1_555
C27_2 H18_2 1_555 1_555
C28_2 C27_2 1_555 1_555
H19_2 C28_2 1_555 1_555
C29_2 C28_2 1_555 1_555
C30_2 C29_2 1_555 1_555
H20_2 C30_2 1_555 1_555
C31_2 N1_2 1_555 1_555
H21_2 C31_2 1_555 1_555
C32_2 C29_2 1_555 1_555
H23_3 C33_3 1_555 1_555
O13_3 Zn2 1_555 1_555
O15 Zn1 1_555 1_555
O16_3 Zn2 1_555 1_555
O17_2 Zn2 1_555 1_555
O18_3 Zn2 1_555 1_555
O19_2 Zn1 1_555 1_555
Zn2 O15 1_555 1_555
C8_3 C9_3 1_555 1_555
C30_2 C31_2 1_555 1_555
O4 C18_3 1_555 1_555
O17_2 C17_3 1_555 1_555
O19_2 C17_3 1_555 1_555
C10_3 N2_3 1_555 1_555
C14_3 C13_3 1_555 1_555
H9_3 C14_3 1_555 1_555
C15_3 C10_3 1_555 1_555
H10_3 C15_3 1_555 1_555
C16_3 H11_3 1_555 1_555
C17_3 C26_3 1_555 1_555
C18_3 C16_3 1_555 1_555
C19_3 N2_3 1_555 1_555
C20_3 C19_3 1_555 1_555
H12_3 C20_3 1_555 1_555
C21_3 C20_3 1_555 1_555
H13_3 C21_3 1_555 1_555
C22_3 C21_3 1_555 1_555
C23_3 C22_3 1_555 1_555
H14_3 C23_3 1_555 1_555
C24_3 C19_3 1_555 1_555
H15_3 C24_3 1_555 1_555
C25_3 C22_3 1_555 1_555
H16_3 C25_3 1_555 1_555
C26_3 C25_3 1_555 1_555
H17_3 C26_3 1_555 1_555
Zn7_2 O4 1_555 1_555
Zn12_2 O4 1_555 1_555
C14_3 C15_3 1_555 1_555
C23_3 C24_3 1_555 1_555
N4_3 C46_3 1_555 1_555
O8_2 C40_3 1_555 1_555
O11_2 C56_3 1_555 1_555
O12_2 C56_3 1_555 1_555
C40_3 O7_3 1_555 1_555
C41_3 C40_3 1_555 1_555
H29_3 C41_3 1_555 1_555
C42_3 C41_3 1_555 1_555
H30_3 C42_3 1_555 1_555
C43_3 C42_3 1_555 1_555
C44_3 C43_3 1_555 1_555
H31_3 C44_3 1_555 1_555
C45_3 C44_3 1_555 1_555
H32_3 C45_3 1_555 1_555
C46_3 C45_3 1_555 1_555
C47_3 C46_3 1_555 1_555
H33_3 C47_3 1_555 1_555
C48_3 C43_3 1_555 1_555
H34_3 C48_3 1_555 1_555
C49_3 N4_3 1_555 1_555
C56_3 C65_3 1_555 1_555
C58_3 N4_3 1_555 1_555
C59_3 C58_3 1_555 1_555
H40_3 C59_3 1_555 1_555
C60_3 C59_3 1_555 1_555
H41_3 C60_3 1_555 1_555
C61_3 C60_3 1_555 1_555
C62_3 C61_3 1_555 1_555
H42_3 C62_3 1_555 1_555
C63_3 C58_3 1_555 1_555
H43_3 C63_3 1_555 1_555
C64_3 C61_3 1_555 1_555
H44_3 C64_3 1_555 1_555
C65_3 C64_3 1_555 1_555
H45_3 C65_3 1_555 1_555
Zn7_2 O12_2 1_555 1_555
Zn12 O8_2 1_555 1_555
Zn12_2 O11_2 1_555 1_555
C47_3 C48_3 1_555 1_555
C62_3 C63_3 1_555 1_555
O9_3 C57_3 1_555 1_555
O15 C57_3 1_555 1_555
C51_3 C50_3 1_555 1_555
H36_3 C51_3 1_555 1_555
C52_3 C51_3 1_555 1_555
C53_3 C52_3 1_555 1_555
H37_3 C53_3 1_555 1_555
H38_3 C54_3 1_555 1_555
C55_3 H39_3 1_555 1_555
C57_3 C55_3 1_555 1_555
C66_3 C52_3 1_555 1_555
H46_3 C66_3 1_555 1_555
C53_3 C54_3 1_555 1_555
C55_3 C66_3 1_555 1_555
O16_4 Zn12 1_555 1_555
O18_4 Zn12 1_555 1_555
O13_4 Zn12_2 1_555 1_555
N3_2 C34_2 1_555 1_555
C34_2 H24_2 1_555 1_555
C35_2 C34_2 1_555 1_555
H25_2 C35_2 1_555 1_555
C36_2 C35_2 1_555 1_555
C37_2 C36_2 1_555 1_555
H26_2 C37_2 1_555 1_555
C38_2 N3_2 1_555 1_555
H27_2 C38_2 1_555 1_555
Zn3 N3_2 1_555 1_555
O16_4 Zn3 1_555 1_555
O20_2 Zn3 1_555 1_555
C36_2 C39_2 1_555 1_555
C37_2 C38_2 1_555 1_555
N4_4 C46_4 1_555 1_555
O13_4 C40_4 1_555 1_555
O16_3 C57_4 1_555 1_555
O18_4 C56_4 1_555 1_555
O20_2 C56_4 1_555 1_555
C40_4 O7_4 1_555 1_555
C41_4 C40_4 1_555 1_555
H29_4 C41_4 1_555 1_555
C42_4 C41_4 1_555 1_555
H30_4 C42_4 1_555 1_555
C43_4 C42_4 1_555 1_555
C44_4 C43_4 1_555 1_555
H31_4 C44_4 1_555 1_555
C45_4 C44_4 1_555 1_555
H32_4 C45_4 1_555 1_555
C46_4 C45_4 1_555 1_555
C47_4 C46_4 1_555 1_555
H33_4 C47_4 1_555 1_555
C48_4 C43_4 1_555 1_555
H34_4 C48_4 1_555 1_555
C49_4 N4_4 1_555 1_555
C50_4 C49_4 1_555 1_555
H35_4 C50_4 1_555 1_555
C51_4 C50_4 1_555 1_555
H36_4 C51_4 1_555 1_555
C52_4 C51_4 1_555 1_555
C53_4 C52_4 1_555 1_555
H37_4 C53_4 1_555 1_555
C54_4 C49_4 1_555 1_555
H38_4 C54_4 1_555 1_555
C55_4 H39_4 1_555 1_555
C56_4 C65_4 1_555 1_555
C57_4 C55_4 1_555 1_555
C58_4 N4_4 1_555 1_555
C59_4 C58_4 1_555 1_555
H40_4 C59_4 1_555 1_555
C60_4 C59_4 1_555 1_555
H41_4 C60_4 1_555 1_555
C61_4 C60_4 1_555 1_555
C62_4 C61_4 1_555 1_555
H42_4 C62_4 1_555 1_555
C63_4 C58_4 1_555 1_555
H43_4 C63_4 1_555 1_555
C64_4 C61_4 1_555 1_555
H44_4 C64_4 1_555 1_555
C65_4 C64_4 1_555 1_555
H45_4 C65_4 1_555 1_555
C66_4 C52_4 1_555 1_555
H46_4 C66_4 1_555 1_555
Zn6_2 O16_3 1_555 1_555
C47_4 C48_4 1_555 1_555
C53_4 C54_4 1_555 1_555
C55_4 C66_4 1_555 1_555
C62_4 C63_4 1_555 1_555
O16_4 C18_4 1_555 1_555
C14_4 C13_4 1_555 1_555
H9_4 C14_4 1_555 1_555
H10_4 C15_4 1_555 1_555
C16_4 H11_4 1_555 1_555
C18_4 C16_4 1_555 1_555
C14_4 C15_4 1_555 1_555
C12_4 C11_4 1_555 1_555
H8_4 C12_4 1_555 1_555
H23_4 C33_4 1_555 1_555
O18_3 C17_4 1_555 1_555
O6_2 C17_4 1_555 1_555
C10_4 N2_4 1_555 1_555
C17_4 C26_4 1_555 1_555
C19_4 N2_4 1_555 1_555
C20_4 C19_4 1_555 1_555
H12_4 C20_4 1_555 1_555
C21_4 C20_4 1_555 1_555
H13_4 C21_4 1_555 1_555
C22_4 C21_4 1_555 1_555
C23_4 C22_4 1_555 1_555
H14_4 C23_4 1_555 1_555
C24_4 C19_4 1_555 1_555
H15_4 C24_4 1_555 1_555
C25_4 C22_4 1_555 1_555
H16_4 C25_4 1_555 1_555
C26_4 C25_4 1_555 1_555
H17_4 C26_4 1_555 1_555
Zn6_2 O6_2 1_555 1_555
C23_4 C24_4 1_555 1_555
O1_4 Zn6_2 1_555 1_555
O13_3 C1_4 1_555 1_555
C1_4 O1_4 1_555 1_555
C2_4 C1_4 1_555 1_555
H1_4 C2_4 1_555 1_555
C3_4 C2_4 1_555 1_555
H2_4 C3_4 1_555 1_555
C4_4 C3_4 1_555 1_555
C5_4 C4_4 1_555 1_555
H3_4 C5_4 1_555 1_555
C6_4 C5_4 1_555 1_555
H4_4 C6_4 1_555 1_555
C7_4 C6_4 1_555 1_555
C8_4 C7_4 1_555 1_555
H5_4 C8_4 1_555 1_555
C9_4 C4_4 1_555 1_555
H6_4 C9_4 1_555 1_555
C8_4 C9_4 1_555 1_555
N1_3 C27_3 1_555 1_555
C27_3 H18_3 1_555 1_555
C28_3 C27_3 1_555 1_555
H19_3 C28_3 1_555 1_555
C29_3 C28_3 1_555 1_555
C30_3 C29_3 1_555 1_555
H20_3 C30_3 1_555 1_555
C31_3 N1_3 1_555 1_555
H21_3 C31_3 1_555 1_555
C32_3 C29_3 1_555 1_555
H22_3 C32_3 1_555 1_555
N3_3 C34_3 1_555 1_555
C34_3 H24_3 1_555 1_555
C35_3 C34_3 1_555 1_555
H25_3 C35_3 1_555 1_555
C36_3 C35_3 1_555 1_555
C37_3 C36_3 1_555 1_555
H26_3 C37_3 1_555 1_555
C38_3 N3_3 1_555 1_555
H27_3 C38_3 1_555 1_555
C39_3 C32_3 1_555 1_555
H28_3 C39_3 1_555 1_555
C30_3 C31_3 1_555 1_555
C36_3 C39_3 1_555 1_555
C37_3 C38_3 1_555 1_555
N1_4 C27_4 1_555 1_555
C27_4 H18_4 1_555 1_555
C28_4 C27_4 1_555 1_555
H19_4 C28_4 1_555 1_555
C29_4 C28_4 1_555 1_555
C30_4 C29_4 1_555 1_555
H20_4 C30_4 1_555 1_555
C31_4 N1_4 1_555 1_555
H21_4 C31_4 1_555 1_555
C32_4 C29_4 1_555 1_555
H22_4 C32_4 1_555 1_555
N3_4 C34_4 1_555 1_555
C34_4 H24_4 1_555 1_555
C35_4 C34_4 1_555 1_555
H25_4 C35_4 1_555 1_555
C36_4 C35_4 1_555 1_555
C37_4 C36_4 1_555 1_555
H26_4 C37_4 1_555 1_555
C38_4 N3_4 1_555 1_555
H27_4 C38_4 1_555 1_555
C39_4 C32_4 1_555 1_555
H28_4 C39_4 1_555 1_555
C30_4 C31_4 1_555 1_555
C36_4 C39_4 1_555 1_555
C37_4 C38_4 1_555 1_555

#END
