
###############################################################################
#
# This file contains modified crystal structure data generated from the
# MOF subset of the Cambridge Structural Database (CSD) v543 
# hosted by the Cambridge Crystallographic Data Centre (CCDC).
#
# This work is licensed under the Creative Commons
# Attribution-NonCommercial-ShareAlike 4.0 International License.
# To view a copy of this license, visit
# http://creativecommons.org/licenses/by-nc-sa/4.0/
# or send a letter to
# Creative Commons, PO Box 1866, Mountain View, CA 94042, USA.
#
# CIF created using the CSD Python API on 29 September 2022
# The structure has been converted into the P1 space group
# The structure has a 3D framework
# The original CSD entry SEQSIS is in the trigonal crystal system
# The original CSD entry SEQSIS is in a Sohncke space group
# The framework has been calculated to contain at least 10.0% void space
# The void calculation uses a probe of radius 1.32A, grid spacing 0.4
# H atom positions have been added when not included in the experimental data
# Generated hydrogen atom positions removed from atoms on special positions
#
###############################################################################

data_SEQSIS
_chemical_formula_moiety         '(C78 H66 N6 Ni6 O31)n'
_symmetry_cell_setting           triclinic
_symmetry_space_group_name_H-M   'P 1'
_symmetry_Int_Tables_number      1
_space_group_name_Hall           'P 1'
loop_
_symmetry_equiv_pos_site_id
_symmetry_equiv_pos_as_xyz
1 x,y,z
_cell_length_a                   10.7647(2)
_cell_length_b                   10.7647(2)
_cell_length_c                   26.7578(10)
_cell_angle_alpha                90
_cell_angle_beta                 90
_cell_angle_gamma                120
_cell_volume                     2685.25
loop_
_atom_site_label
_atom_site_type_symbol
_atom_site_fract_x
_atom_site_fract_y
_atom_site_fract_z
N2 N 0.57790(25) 0.67948(18) 0.10552(5)
O7 O 0.31284(27) 0.36554(18) 0.20586(6)
O8 O 0.11988(21) 0.31674(14) 0.15996(4)
O11 O 0.08753(27) 0.19388(19) 0.25937(5)
C14 C 0.4912(3) 0.5724(2) 0.13642(6)
H8 H 0.5328 0.5478 0.1622
C15 C 0.3443(3) 0.4974(2) 0.13193(6)
C16 C 0.2823(3) 0.5344(2) 0.09356(7)
H9 H 0.1830 0.4874 0.0903
C17 C 0.3681(3) 0.6413(2) 0.06000(7)
C18 C 0.5158(3) 0.7098(2) 0.06752(7)
H10 H 0.5748 0.7806 0.0449
C19 C 0.3050(3) 0.6849(2) 0.01865(7)
C20 C 0.1729(4) 0.6779(3) 0.02614(8)
H11 H 0.1271 0.6485 0.0569
C25 C 0.2510(3) 0.3818(2) 0.16936(7)
Ni3 Ni 0.78123(2) 0.83231(2) 0.133321(7)
O10 O 0.16576(22) 0.82735(16) 0.85879(5)
C21 C 0.1102(4) 0.7142(3) 0.98841(7)
H12 H 0.0228 0.7096 0.9942
C22 C 0.1744(3) 0.7574(2) 0.94196(7)
C23 C 0.3081(4) 0.7686(3) 0.93485(7)
H13 H 0.3548 0.8008 0.9043
C24 C 0.3723(4) 0.7321(3) 0.97278(7)
H14 H 0.4610 0.7394 0.9673
C26 C 0.10193(28) 0.79093(19) 0.90031(6)
Ni4 Ni 0.16769(2) 0.94892(3) 0.799988(7)
O6 O 0.97629(18) 0.0000 0.1667
Ni2 Ni 0.94892(3) 0.16769(2) 0.200012(7)
N3 N 0.89842(17) 0.32052(18) 0.22781(5)
O13 O 0.79576(15) 0.01674(23) 0.24378(5)
O14 O 0.82735(16) 0.16576(22) 0.14121(5)
O9 O 0.98326(23) 0.77902(17) 0.91044(5)
Ni6 Ni 0.83231(2) 0.78123(2) 0.866679(7)
O1 O 0.9473(2) 0.63446(18) 0.12747(6)
O2 O 0.80314(15) 0.68326(14) 0.17337(4)
O3 O 0.20424(15) 0.22098(17) 0.42289(5)
O4 O 0.33841(15) 0.17265(16) 0.47454(5)
O5 O 0.89365(19) 0.80612(19) 0.07396(5)
O6_2 O 0.97629(18) 1.0000 0.1667
C1 C 0.9188(2) 0.4276(2) 0.19691(6)
H1 H 0.9850 0.4522 0.1711
C2 C 0.8469(2) 0.5026(2) 0.20140(6)
C3 C 0.7479(2) 0.4656(2) 0.23977(7)
H2 H 0.6956 0.5126 0.2430
C4 C 0.7268(2) 0.3587(2) 0.27333(7)
C5 C 0.8060(2) 0.2902(2) 0.26581(7)
H3 H 0.7942 0.2194 0.2884
C6 C 0.6201(2) 0.3151(2) 0.31468(7)
C7 C 0.4950(3) 0.3221(3) 0.30719(8)
H4 H 0.4786 0.3515 0.2764
C8 C 0.3960(2) 0.2858(3) 0.34492(7)
H5 H 0.3132 0.2904 0.3391
C9 C 0.4170(2) 0.2426(2) 0.39137(7)
C10 C 0.5395(2) 0.2314(3) 0.39848(7)
H6 H 0.5540 0.1992 0.4290
C11 C 0.6402(2) 0.2679(3) 0.36055(7)
H7 H 0.7216 0.2606 0.3660
C12 C 0.8692(2) 0.6182(2) 0.16397(7)
C13 C 0.3110(2) 0.20907(19) 0.43302(6)
Ni5 Ni 0.05108(3) 0.21877(2) 0.466654(7)
Ni8 Ni 0.21877(2) 0.05108(3) 0.533346(7)
O12 O 0.77902(17) 0.98326(23) 0.08956(5)
O15 O 0.66159(15) 0.83424(22) 0.19213(5)
C8_2 C 0.7142(3) 0.1102(4) 0.01159(7)
H5_2 H 0.7096 0.0228 0.0058
C9_2 C 0.7574(2) 0.1744(3) 0.05804(7)
C10_2 C 0.7686(3) 0.3081(4) 0.06515(7)
H6_2 H 0.8008 0.3548 0.0957
C11_2 C 0.7321(3) 0.3723(4) 0.02722(7)
H7_2 H 0.7394 0.4610 0.0327
C13_2 C 0.79093(19) 0.10193(28) 0.09969(6)
N1 N 0.67948(18) 0.57790(25) 0.89448(5)
O1_2 O 0.36554(18) 0.31284(27) 0.79414(6)
O2_2 O 0.31674(14) 0.11988(21) 0.84004(4)
O5_2 O 0.19388(19) 0.08753(27) 0.74063(5)
C1_2 C 0.5724(2) 0.4912(3) 0.86358(6)
H1_2 H 0.5478 0.5328 0.8378
C2_2 C 0.4974(2) 0.3443(3) 0.86807(6)
C3_2 C 0.5344(2) 0.2823(3) 0.90644(7)
H2_2 H 0.4874 0.1830 0.9097
C4_2 C 0.6413(2) 0.3681(3) 0.94000(7)
C5_2 C 0.7098(2) 0.5158(3) 0.93248(7)
H3_2 H 0.7806 0.5748 0.9551
C6_2 C 0.6849(2) 0.3050(3) 0.98135(7)
C7_2 C 0.6779(3) 0.1729(4) 0.97386(8)
H4_2 H 0.6485 0.1271 0.9431
C12_2 C 0.3818(2) 0.2510(3) 0.83064(7)
O6_3 O 0.0000 0.97629(18) 0.8334
N4 N 0.32052(18) 0.89842(31) 0.77219(5)
O12_2 O 0.01674(23) 0.79576(29) 0.75622(5)
O6_4 O 1.0000 0.97629(18) 0.8334
O7_2 O 0.63446(18) 0.94730(32) 0.87253(6)
O8_2 O 0.68326(14) 0.80314(25) 0.82663(4)
O9_2 O 0.22098(17) 0.20424(29) 0.57711(5)
O10_2 O 0.17265(16) 0.33841(27) 0.52546(5)
O11_2 O 0.80612(19) 0.89365(33) 0.92604(5)
C14_2 C 0.4276(2) 0.9188(4) 0.80309(6)
H8_2 H 0.4522 0.9850 0.8289
C15_2 C 0.5026(2) 0.8469(4) 0.79860(6)
C16_2 C 0.4656(2) 0.7479(4) 0.76023(7)
H9_2 H 0.5126 0.6956 0.7570
C17_2 C 0.3587(2) 0.7268(4) 0.72667(7)
C18_2 C 0.2902(2) 0.8060(4) 0.73419(7)
H10_2 H 0.2194 0.7942 0.7116
C19_2 C 0.3151(2) 0.6201(4) 0.68532(7)
C20_2 C 0.3221(3) 0.4950(5) 0.69281(8)
H11_2 H 0.3515 0.4786 0.7236
C21_2 C 0.2858(3) 0.3960(5) 0.65508(7)
H12_2 H 0.2904 0.3132 0.6609
C22_2 C 0.2426(2) 0.4170(4) 0.60863(7)
C23_2 C 0.2314(3) 0.5395(5) 0.60152(7)
H13_2 H 0.1992 0.5540 0.5710
C24_2 C 0.2679(3) 0.6402(5) 0.63945(7)
H14_2 H 0.2606 0.7216 0.6340
C25_2 C 0.6182(2) 0.8692(4) 0.83603(7)
C26_2 C 0.20907(19) 0.31100(34) 0.56698(6)
O14_2 O 0.83424(22) 0.66159(27) 0.80787(5)
O6_5 O 0.02371(18) 0.02371(18) 0.5000
N3_2 N 0.42210(25) 0.10158(17) 0.56114(5)
N4_2 N 0.10158(31) 0.42210(25) 0.43886(5)
O7_3 O 0.05270(32) 0.68716(27) 0.53920(6)
O8_3 O 0.19686(25) 0.88012(21) 0.49330(4)
O11_3 O 0.10635(33) 0.91247(27) 0.59271(5)
C14_3 C 0.0812(4) 0.5088(3) 0.46976(6)
H8_3 H 0.0150 0.4672 0.4956
C15_3 C 0.1531(4) 0.6557(3) 0.46527(6)
C16_3 C 0.2521(4) 0.7177(3) 0.42690(7)
H9_3 H 0.3044 0.8170 0.4237
C17_3 C 0.2732(4) 0.6319(3) 0.39334(7)
C18_3 C 0.1940(4) 0.4842(3) 0.40086(7)
H10_3 H 0.2058 0.4252 0.3783
C19_3 C 0.3799(4) 0.6950(3) 0.35199(7)
C20_3 C 0.5050(5) 0.8271(4) 0.35948(8)
H11_3 H 0.5214 0.8729 0.3903
C21_3 C 0.6040(5) 0.8898(4) 0.32175(7)
H12_3 H 0.6868 0.9772 0.3276
C22_3 C 0.5830(4) 0.8256(3) 0.27530(7)
C23_3 C 0.4605(5) 0.6919(4) 0.26819(7)
H13_3 H 0.4460 0.6452 0.2377
C24_3 C 0.3598(5) 0.6277(4) 0.30612(7)
H14_3 H 0.2784 0.5390 0.3007
C25_3 C 0.1308(4) 0.7490(3) 0.50270(7)
C26_3 C 0.68900(34) 0.89807(28) 0.23365(6)
O1_3 O 0.68716(27) 0.0527(2) 0.46080(6)
O2_3 O 0.88012(21) 0.19686(15) 0.50670(4)
O5_3 O 0.91247(27) 0.10635(19) 0.40729(5)
C1_3 C 0.5088(3) 0.0812(2) 0.53024(6)
H1_3 H 0.4672 0.0150 0.5044
C2_3 C 0.6557(3) 0.1531(2) 0.53473(6)
C3_3 C 0.7177(3) 0.2521(2) 0.57310(7)
H2_3 H 0.8170 0.3044 0.5763
C4_3 C 0.6319(3) 0.2732(2) 0.60666(7)
C5_3 C 0.4842(3) 0.1940(2) 0.59914(7)
H3_3 H 0.4252 0.2058 0.6217
C6_3 C 0.6950(3) 0.3799(2) 0.64801(7)
C7_3 C 0.8271(4) 0.5050(3) 0.64052(8)
H4_3 H 0.8729 0.5214 0.6097
C8_3 C 0.8898(4) 0.6040(2) 0.67825(7)
H5_3 H 0.9772 0.6868 0.6724
C9_3 C 0.8256(3) 0.5830(2) 0.72470(7)
C10_3 C 0.6919(4) 0.4605(2) 0.73181(7)
H6_3 H 0.6452 0.4460 0.7623
C11_3 C 0.6277(4) 0.3598(2) 0.69388(7)
H7_3 H 0.5390 0.2784 0.6993
C12_3 C 0.7490(3) 0.1308(2) 0.49730(7)
C13_3 C 0.89807(28) 0.6890(2) 0.76635(6)
loop_
_geom_bond_atom_site_label_1
_geom_bond_atom_site_label_2
_geom_bond_site_symmetry_1
_geom_bond_site_symmetry_2
N2 C14 1_555 1_555
O7 C25 1_555 1_555
C14 H8 1_555 1_555
C15 C14 1_555 1_555
C16 C15 1_555 1_555
H9 C16 1_555 1_555
C17 C16 1_555 1_555
C18 N2 1_555 1_555
H10 C18 1_555 1_555
C19 C17 1_555 1_555
C20 C19 1_555 1_555
H11 C20 1_555 1_555
C25 O8 1_555 1_555
Ni3 N2 1_555 1_555
C15 C25 1_555 1_555
C17 C18 1_555 1_555
O10 C26 1_555 1_555
H12 C21 1_555 1_555
C22 C21 1_555 1_555
C23 C22 1_555 1_555
H13 C23 1_555 1_555
H14 C24 1_555 1_555
C26 C22 1_555 1_555
Ni4 O10 1_555 1_555
C23 C24 1_555 1_555
Ni2 O6 1_555 1_555
N3 Ni2 1_555 1_555
O13 Ni2 1_555 1_555
O14 Ni2 1_555 1_555
Ni6 O9 1_555 1_555
Ni3 O2 1_555 1_555
N3 C1 1_555 1_555
O1 C12 1_555 1_555
O2 C12 1_555 1_555
O3 C13 1_555 1_555
O4 C13 1_555 1_555
O5 Ni3 1_555 1_555
O6_2 Ni3 1_555 1_555
C1 H1 1_555 1_555
C2 C1 1_555 1_555
C3 C2 1_555 1_555
H2 C3 1_555 1_555
C4 C3 1_555 1_555
C5 N3 1_555 1_555
H3 C5 1_555 1_555
C6 C4 1_555 1_555
C7 C6 1_555 1_555
H4 C7 1_555 1_555
C8 C7 1_555 1_555
H5 C8 1_555 1_555
C9 C8 1_555 1_555
C10 C9 1_555 1_555
H6 C10 1_555 1_555
C11 C6 1_555 1_555
H7 C11 1_555 1_555
C12 C2 1_555 1_555
C13 C9 1_555 1_555
Ni5 O3 1_555 1_555
Ni8 O4 1_555 1_555
O12 Ni3 1_555 1_555
O15 Ni3 1_555 1_555
C4 C5 1_555 1_555
C10 C11 1_555 1_555
O14 C13_2 1_555 1_555
H5_2 C8_2 1_555 1_555
C9_2 C8_2 1_555 1_555
C10_2 C9_2 1_555 1_555
H6_2 C10_2 1_555 1_555
H7_2 C11_2 1_555 1_555
C13_2 C9_2 1_555 1_555
C10_2 C11_2 1_555 1_555
N1 C1_2 1_555 1_555
O1_2 C12_2 1_555 1_555
O2_2 C12_2 1_555 1_555
C1_2 H1_2 1_555 1_555
C2_2 C1_2 1_555 1_555
C3_2 C2_2 1_555 1_555
H2_2 C3_2 1_555 1_555
C4_2 C3_2 1_555 1_555
C5_2 N1 1_555 1_555
H3_2 C5_2 1_555 1_555
C6_2 C4_2 1_555 1_555
C7_2 C6_2 1_555 1_555
H4_2 C7_2 1_555 1_555
C12_2 C2_2 1_555 1_555
Ni6 N1 1_555 1_555
C4_2 C5_2 1_555 1_555
O6_3 Ni4 1_555 1_555
N4 Ni4 1_555 1_555
O12_2 Ni4 1_555 1_555
Ni6 O6_4 1_555 1_555
N4 C14_2 1_555 1_555
O7_2 C25_2 1_555 1_555
O8_2 Ni6 1_555 1_555
O9_2 C26_2 1_555 1_555
O10_2 C26_2 1_555 1_555
O11_2 Ni6 1_555 1_555
C14_2 H8_2 1_555 1_555
C15_2 C14_2 1_555 1_555
C16_2 C15_2 1_555 1_555
H9_2 C16_2 1_555 1_555
C17_2 C16_2 1_555 1_555
C18_2 N4 1_555 1_555
H10_2 C18_2 1_555 1_555
C19_2 C17_2 1_555 1_555
C20_2 C19_2 1_555 1_555
H11_2 C20_2 1_555 1_555
C21_2 C20_2 1_555 1_555
H12_2 C21_2 1_555 1_555
C22_2 C21_2 1_555 1_555
C23_2 C22_2 1_555 1_555
H13_2 C23_2 1_555 1_555
C24_2 C19_2 1_555 1_555
H14_2 C24_2 1_555 1_555
C25_2 O8_2 1_555 1_555
C26_2 C22_2 1_555 1_555
Ni5 O10_2 1_555 1_555
Ni8 O9_2 1_555 1_555
O14_2 Ni6 1_555 1_555
C15_2 C25_2 1_555 1_555
C17_2 C18_2 1_555 1_555
C23_2 C24_2 1_555 1_555
O6_5 Ni5 1_555 1_555
Ni8 O6_5 1_555 1_555
N3_2 Ni8 1_555 1_555
N4_2 Ni5 1_555 1_555
N4_2 C14_3 1_555 1_555
O7_3 C25_3 1_555 1_555
O15 C26_3 1_555 1_555
C14_3 H8_3 1_555 1_555
C15_3 C14_3 1_555 1_555
C16_3 C15_3 1_555 1_555
H9_3 C16_3 1_555 1_555
C17_3 C16_3 1_555 1_555
C18_3 N4_2 1_555 1_555
H10_3 C18_3 1_555 1_555
C19_3 C17_3 1_555 1_555
C20_3 C19_3 1_555 1_555
H11_3 C20_3 1_555 1_555
C21_3 C20_3 1_555 1_555
H12_3 C21_3 1_555 1_555
C22_3 C21_3 1_555 1_555
C23_3 C22_3 1_555 1_555
H13_3 C23_3 1_555 1_555
C24_3 C19_3 1_555 1_555
H14_3 C24_3 1_555 1_555
C25_3 O8_3 1_555 1_555
C26_3 C22_3 1_555 1_555
C15_3 C25_3 1_555 1_555
C17_3 C18_3 1_555 1_555
C23_3 C24_3 1_555 1_555
N3_2 C1_3 1_555 1_555
O1_3 C12_3 1_555 1_555
O2_3 C12_3 1_555 1_555
O14_2 C13_3 1_555 1_555
C1_3 H1_3 1_555 1_555
C2_3 C1_3 1_555 1_555
C3_3 C2_3 1_555 1_555
H2_3 C3_3 1_555 1_555
C4_3 C3_3 1_555 1_555
C5_3 N3_2 1_555 1_555
H3_3 C5_3 1_555 1_555
C6_3 C4_3 1_555 1_555
C7_3 C6_3 1_555 1_555
H4_3 C7_3 1_555 1_555
C8_3 C7_3 1_555 1_555
H5_3 C8_3 1_555 1_555
C9_3 C8_3 1_555 1_555
C10_3 C9_3 1_555 1_555
H6_3 C10_3 1_555 1_555
C11_3 C6_3 1_555 1_555
H7_3 C11_3 1_555 1_555
C12_3 C2_3 1_555 1_555
C13_3 C9_3 1_555 1_555
C4_3 C5_3 1_555 1_555
C10_3 C11_3 1_555 1_555

#END
