
###############################################################################
#
# This file contains modified crystal structure data generated from the
# MOF subset of the Cambridge Structural Database (CSD) v543 
# hosted by the Cambridge Crystallographic Data Centre (CCDC).
#
# This work is licensed under the Creative Commons
# Attribution-NonCommercial-ShareAlike 4.0 International License.
# To view a copy of this license, visit
# http://creativecommons.org/licenses/by-nc-sa/4.0/
# or send a letter to
# Creative Commons, PO Box 1866, Mountain View, CA 94042, USA.
#
# CIF created using the CSD Python API on 29 September 2022
# The structure has been converted into the P1 space group
# The structure has a 3D framework
# The original CSD entry SEQSOY is in the trigonal crystal system
# The original CSD entry SEQSOY is in a Sohncke space group
# The framework has been calculated to contain at least 10.0% void space
# The void calculation uses a probe of radius 1.32A, grid spacing 0.4
# H atom positions have been added when not included in the experimental data
#
###############################################################################

data_SEQSOY
_chemical_formula_moiety         '(C78 H54 Co6 N6 O32)n'
_symmetry_cell_setting           triclinic
_symmetry_space_group_name_H-M   'P 1'
_symmetry_Int_Tables_number      1
_space_group_name_Hall           'P 1'
loop_
_symmetry_equiv_pos_site_id
_symmetry_equiv_pos_as_xyz
1 x,y,z
_cell_length_a                   11.0778(3)
_cell_length_b                   11.0778(3)
_cell_length_c                   27.8793(15)
_cell_angle_alpha                90
_cell_angle_beta                 90
_cell_angle_gamma                120
_cell_volume                     2962.92
loop_
_atom_site_label
_atom_site_type_symbol
_atom_site_fract_x
_atom_site_fract_y
_atom_site_fract_z
O10 O 0.0249(3) 0.7760(4) 0.25884(11)
Co5 Co 0.17075(8) 0.92015(6) 0.304135(19)
Co3 Co 0.07985(6) 0.25060(6) 0.970802(19)
Co6 Co 0.25060(6) 0.07985(6) 0.029198(19)
O4 O 0.7760(4) 0.0249(3) 0.74116(11)
Co8 Co 0.92015(6) 0.17075(8) 0.695865(19)
O1 O 0.0964(5) 0.7190(4) 0.03978(13)
O6 O 0.0477(4) 0.0477(4) 0.0000
C12 C 0.1732(5) 0.7781(5) 0.00499(17)
O8 O 0.9070(3) 0.2316(4) 0.00530(11)
O9 O 0.8320(4) 0.6465(3) 0.30121(11)
N2 N 0.4623(4) 0.1510(4) 0.05370(12)
C14 C 0.5457(5) 0.1291(5) 0.02496(15)
H8 H 0.5057 0.0643 0.0003
C15 C 0.6900(5) 0.1991(5) 0.03023(16)
C16 C 0.7489(5) 0.2943(5) 0.06794(15)
H9 H 0.8450 0.3426 0.0723
C17 C 0.6642(5) 0.3163(5) 0.09859(15)
C18 C 0.5208(4) 0.2414(4) 0.08999(15)
H10 H 0.4627 0.2549 0.1106
C19 C 0.7210(5) 0.4135(5) 0.14004(15)
C20 C 0.6460(5) 0.3875(5) 0.18254(15)
H11 H 0.5564 0.3110 0.1846
C21 C 0.7035(5) 0.4746(5) 0.22203(15)
H12 H 0.6524 0.4553 0.2503
C22 C 0.8353(5) 0.5890(5) 0.21969(16)
C23 C 0.9084(5) 0.6196(5) 0.17679(16)
H13 H 0.9960 0.6989 0.1745
C24 C 0.8524(5) 0.5334(5) 0.13744(17)
H14 H 0.9026 0.5553 0.1089
C26 C 0.9035(5) 0.6792(5) 0.26363(15)
Co7 Co 0.82925(8) 0.74940(6) 0.362531(19)
O14 O 0.1855(5) 0.3535(3) 0.03212(11)
O16 O 0.2489(5) 0.2240(4) 0.07449(11)
O2 O 0.2316(4) 0.9070(3) 0.99470(11)
O3 O 0.6465(3) 0.8320(4) 0.69879(11)
O6_2 O 0.0477(4) 0.0477(4) 1.0000
N1 N 0.1510(4) 0.4623(4) 0.94630(12)
C1 C 0.1291(5) 0.5457(5) 0.97504(15)
H1 H 0.0643 0.5057 0.9997
C2 C 0.1991(5) 0.6900(5) 0.96977(16)
C3 C 0.2943(5) 0.7489(5) 0.93206(15)
H2 H 0.3426 0.8450 0.9277
C4 C 0.3163(5) 0.6642(5) 0.90141(15)
C5 C 0.2414(4) 0.5208(4) 0.91001(15)
H3 H 0.2549 0.4627 0.8894
C6 C 0.4135(5) 0.7210(5) 0.85996(15)
C7 C 0.3875(5) 0.6460(5) 0.81746(15)
H4 H 0.3110 0.5564 0.8154
C8 C 0.4746(5) 0.7035(5) 0.77797(15)
H5 H 0.4553 0.6524 0.7497
C9 C 0.5890(5) 0.8353(5) 0.78031(16)
C10 C 0.6196(5) 0.9084(5) 0.82321(16)
H6 H 0.6989 0.9960 0.8255
C11 C 0.5334(5) 0.8524(5) 0.86256(17)
H7 H 0.5553 0.9026 0.8911
C13 C 0.6792(5) 0.9035(5) 0.73637(15)
O7 O 0.7190(4) 0.0964(5) 0.96022(13)
C25 C 0.7781(5) 0.1732(5) 0.99501(17)
Co4 Co 0.74940(6) 0.82925(8) 0.637469(19)
O15 O 0.3535(3) 0.1855(5) 0.96788(11)
O17 O 0.2240(4) 0.2489(5) 0.92551(11)
O11 O 0.0579(4) 0.2035(6) 0.75480(11)
O12 O 0.0930(3) 0.3246(5) 0.66137(11)
H17 H 0.151849 0.229819 0.742303
H18 H 0.0644692 0.279464 0.775521
O6_3 O 0.9523(4) -0.0000(6) 0.6667
O7_2 O 0.9036(5) 0.6226(6) 0.62689(13)
O8_2 O 0.7684(4) 0.6754(5) 0.67197(11)
N2_2 N 0.8490(4) 0.3113(6) 0.72037(12)
C14_2 C 0.8709(5) 0.4166(7) 0.69163(15)
H8_2 H 0.9357 0.4414 0.6670
C15_2 C 0.8009(5) 0.4909(7) 0.69690(16)
C16_2 C 0.7057(5) 0.4546(7) 0.73461(15)
H9_2 H 0.6574 0.5024 0.7390
C17_2 C 0.6837(5) 0.3479(7) 0.76526(15)
C18_2 C 0.7586(4) 0.2794(6) 0.75666(15)
H10_2 H 0.7451 0.2078 0.7773
C19_2 C 0.5865(5) 0.3075(7) 0.80671(15)
C20_2 C 0.6125(5) 0.2585(7) 0.84921(15)
H11_2 H 0.6890 0.2454 0.8513
C21_2 C 0.5254(5) 0.2289(7) 0.88870(15)
H12_2 H 0.5447 0.1971 0.9170
C22_2 C 0.4110(5) 0.2463(7) 0.88636(16)
C23_2 C 0.3804(5) 0.2888(7) 0.84346(16)
H13_2 H 0.3011 0.2971 0.8412
C24_2 C 0.4666(5) 0.3190(7) 0.80411(17)
H14_2 H 0.4447 0.3473 0.7756
C25_2 C 0.8268(5) 0.6049(7) 0.66168(17)
C26_2 C 0.3208(5) 0.2243(7) 0.93030(15)
O15_2 O 0.8145(5) 0.1680(6) 0.63454(11)
O1_2 O 0.2810(4) 0.3774(6) 0.70645(13)
O3_2 O 0.1680(4) 0.8145(5) 0.36546(11)
O5 O 0.8544(4) 0.7965(6) 0.57854(11)
O6_4 O 0.9523(4) 1.0000(6) 0.6667
N1_2 N 0.5377(4) 0.6887(6) 0.61297(12)
C1_2 C 0.4543(5) 0.5834(7) 0.64171(15)
H1_2 H 0.4943 0.5586 0.6664
C2_2 C 0.3100(5) 0.5091(7) 0.63644(16)
C3_2 C 0.2511(5) 0.5454(7) 0.59873(15)
H2_2 H 0.1550 0.4976 0.5944
C4_2 C 0.3358(5) 0.6521(7) 0.56808(15)
C5_2 C 0.4792(4) 0.7206(6) 0.57668(15)
H3_2 H 0.5373 0.7922 0.5561
C6_2 C 0.2790(5) 0.6925(7) 0.52663(15)
C7_2 C 0.3540(5) 0.7415(7) 0.48413(15)
H4_2 H 0.4436 0.7546 0.4821
C8_2 C 0.2965(5) 0.7711(7) 0.44464(15)
H5_2 H 0.3476 0.8029 0.4164
C9_2 C 0.1647(5) 0.7537(7) 0.44698(16)
C10_2 C 0.0916(5) 0.7112(7) 0.48988(16)
H6_2 H 0.0040 0.7029 0.4922
C11_2 C 0.1476(5) 0.6810(7) 0.52923(17)
H7_2 H 0.0974 0.6527 0.5578
C12_2 C 0.2219(5) 0.3951(7) 0.67166(17)
C13_2 C 0.0965(5) 0.7757(7) 0.40304(15)
O17_2 O 0.7511(5) 0.9751(6) 0.59217(11)
H15 H 0.92203 0.770181 0.591031
H16 H 0.785005 0.720536 0.557812
O4_2 O 0.9751(3) 0.7511(5) 0.40783(11)
O5_2 O 0.2035(6) 0.0579(4) 0.24520(11)
O13 O 0.3246(5) 0.0930(3) 0.33863(11)
H15_2 H 0.229819 0.151849 0.257697
H16_2 H 0.279464 0.0644692 0.224479
O1_3 O 0.6226(6) 0.9036(5) 0.37311(13)
O2_2 O 0.6754(5) 0.7684(4) 0.32803(11)
O6_5 O 0.0000(6) 0.9523(4) 0.3333
N1_3 N 0.3113(6) 0.8490(4) 0.27963(12)
C1_3 C 0.4166(7) 0.8709(5) 0.30837(15)
H1_3 H 0.4414 0.9357 0.3330
C2_3 C 0.4909(7) 0.8009(5) 0.30310(16)
C3_3 C 0.4546(7) 0.7057(5) 0.26539(15)
H2_3 H 0.5024 0.6574 0.2610
C4_3 C 0.3479(7) 0.6837(5) 0.23474(15)
C5_3 C 0.2794(6) 0.7586(4) 0.24334(15)
H3_3 H 0.2078 0.7451 0.2227
C6_3 C 0.3075(7) 0.5865(5) 0.19329(15)
C7_3 C 0.2585(7) 0.6125(5) 0.15079(15)
H4_3 H 0.2454 0.6890 0.1487
C8_3 C 0.2289(7) 0.5254(5) 0.11130(15)
H5_3 H 0.1971 0.5447 0.0830
C9_3 C 0.2463(7) 0.4110(5) 0.11364(16)
C10_3 C 0.2888(7) 0.3804(5) 0.15654(16)
H6_3 H 0.2971 0.3011 0.1588
C11_3 C 0.3190(7) 0.4666(5) 0.19589(17)
H7_3 H 0.3473 0.4447 0.2244
C12_3 C 0.6049(7) 0.8268(5) 0.33832(17)
C13_3 C 0.2243(7) 0.3208(5) 0.06970(15)
O6_6 O 1.0000(6) 0.9523(4) 0.3333
O7_3 O 0.3774(6) 0.2810(4) 0.29355(13)
O11_2 O 0.7965(6) 0.8544(4) 0.42146(11)
N2_3 N 0.6887(6) 0.5377(4) 0.38703(12)
C14_3 C 0.5834(7) 0.4543(5) 0.35829(15)
H8_3 H 0.5586 0.4943 0.3336
C15_3 C 0.5091(7) 0.3100(5) 0.36356(16)
C16_3 C 0.5454(7) 0.2511(5) 0.40127(15)
H9_3 H 0.4976 0.1550 0.4056
C17_3 C 0.6521(7) 0.3358(5) 0.43192(15)
C18_3 C 0.7206(6) 0.4792(4) 0.42332(15)
H10_3 H 0.7922 0.5373 0.4439
C19_3 C 0.6925(7) 0.2790(5) 0.47337(15)
C20_3 C 0.7415(7) 0.3540(5) 0.51587(15)
H11_3 H 0.7546 0.4436 0.5179
C21_3 C 0.7711(7) 0.2965(5) 0.55536(15)
H12_3 H 0.8029 0.3476 0.5836
C22_3 C 0.7537(7) 0.1647(5) 0.55302(16)
C23_3 C 0.7112(7) 0.0916(5) 0.51012(16)
H13_3 H 0.7029 0.0040 0.5078
C24_3 C 0.6810(7) 0.1476(5) 0.47077(17)
H14_3 H 0.6527 0.0974 0.4422
C25_3 C 0.3951(7) 0.2219(5) 0.32834(17)
C26_3 C 0.7757(7) 0.0965(5) 0.59696(15)
H17_2 H 0.770181 0.92203 0.408969
H18_2 H 0.720536 0.785005 0.442188
O11_3 O 0.1456(4) 0.9421(4) 0.08813(11)
H17_3 H 0.0779704 0.848151 0.0756359
H18_3 H 0.214995 0.935531 0.108855
O5_3 O 0.9421(4) 0.1456(4) 0.91187(11)
H15_3 H 0.848151 0.0779704 0.924364
H16_3 H 0.935531 0.214995 0.891145
loop_
_geom_bond_atom_site_label_1
_geom_bond_atom_site_label_2
_geom_bond_site_symmetry_1
_geom_bond_site_symmetry_2
Co5 O10 1_555 1_555
Co8 O4 1_555 1_555
O1 C12 1_555 1_555
Co6 O6 1_555 1_555
O9 C26 1_555 1_555
N2 Co6 1_555 1_555
C14 N2 1_555 1_555
H8 C14 1_555 1_555
C15 C14 1_555 1_555
C16 C15 1_555 1_555
H9 C16 1_555 1_555
C17 C16 1_555 1_555
C18 N2 1_555 1_555
H10 C18 1_555 1_555
C19 C17 1_555 1_555
C20 C19 1_555 1_555
H11 C20 1_555 1_555
C21 C20 1_555 1_555
H12 C21 1_555 1_555
C22 C21 1_555 1_555
C23 C22 1_555 1_555
H13 C23 1_555 1_555
C24 C19 1_555 1_555
H14 C24 1_555 1_555
C26 C22 1_555 1_555
Co7 O9 1_555 1_555
O16 Co6 1_555 1_555
C17 C18 1_555 1_555
C23 C24 1_555 1_555
O3 C13 1_555 1_555
O6_2 Co3 1_555 1_555
N1 Co3 1_555 1_555
C1 N1 1_555 1_555
H1 C1 1_555 1_555
C2 C1 1_555 1_555
C3 C2 1_555 1_555
H2 C3 1_555 1_555
C4 C3 1_555 1_555
C5 N1 1_555 1_555
H3 C5 1_555 1_555
C6 C4 1_555 1_555
C7 C6 1_555 1_555
H4 C7 1_555 1_555
C8 C7 1_555 1_555
H5 C8 1_555 1_555
C9 C8 1_555 1_555
C10 C9 1_555 1_555
H6 C10 1_555 1_555
C11 C6 1_555 1_555
H7 C11 1_555 1_555
C13 C9 1_555 1_555
O7 C25 1_555 1_555
Co4 O3 1_555 1_555
O17 Co3 1_555 1_555
C4 C5 1_555 1_555
C10 C11 1_555 1_555
O11 H17 1_555 1_555
O11 H18 1_555 1_555
Co8 O6_3 1_555 1_555
O7_2 C25_2 1_555 1_555
O8_2 C25_2 1_555 1_555
O15 C26_2 1_555 1_555
O17 C26_2 1_555 1_555
N2_2 Co8 1_555 1_555
C14_2 N2_2 1_555 1_555
H8_2 C14_2 1_555 1_555
C15_2 C14_2 1_555 1_555
C16_2 C15_2 1_555 1_555
H9_2 C16_2 1_555 1_555
C17_2 C16_2 1_555 1_555
C18_2 N2_2 1_555 1_555
H10_2 C18_2 1_555 1_555
C19_2 C17_2 1_555 1_555
C20_2 C19_2 1_555 1_555
H11_2 C20_2 1_555 1_555
C21_2 C20_2 1_555 1_555
H12_2 C21_2 1_555 1_555
C22_2 C21_2 1_555 1_555
C23_2 C22_2 1_555 1_555
H13_2 C23_2 1_555 1_555
C24_2 C19_2 1_555 1_555
H14_2 C24_2 1_555 1_555
C25_2 C15_2 1_555 1_555
C26_2 C22_2 1_555 1_555
Co4 O8_2 1_555 1_555
O15_2 Co8 1_555 1_555
C17_2 C18_2 1_555 1_555
C23_2 C24_2 1_555 1_555
Co4 O5 1_555 1_555
O1_2 C12_2 1_555 1_555
O12 C12_2 1_555 1_555
O3_2 C13_2 1_555 1_555
O6_4 Co4 1_555 1_555
N1_2 Co4 1_555 1_555
C1_2 N1_2 1_555 1_555
H1_2 C1_2 1_555 1_555
C2_2 C1_2 1_555 1_555
C3_2 C2_2 1_555 1_555
H2_2 C3_2 1_555 1_555
C4_2 C3_2 1_555 1_555
C5_2 N1_2 1_555 1_555
H3_2 C5_2 1_555 1_555
C6_2 C4_2 1_555 1_555
C7_2 C6_2 1_555 1_555
H4_2 C7_2 1_555 1_555
C8_2 C7_2 1_555 1_555
H5_2 C8_2 1_555 1_555
C9_2 C8_2 1_555 1_555
C10_2 C9_2 1_555 1_555
H6_2 C10_2 1_555 1_555
C11_2 C6_2 1_555 1_555
H7_2 C11_2 1_555 1_555
C12_2 C2_2 1_555 1_555
C13_2 C9_2 1_555 1_555
Co5 O3_2 1_555 1_555
O17_2 Co4 1_555 1_555
C4_2 C5_2 1_555 1_555
C10_2 C11_2 1_555 1_555
O5 H15 1_555 1_555
O5 H16 1_555 1_555
Co7 O4_2 1_555 1_555
O5_2 H15_2 1_555 1_555
O5_2 H16_2 1_555 1_555
O1_3 C12_3 1_555 1_555
O2_2 C12_3 1_555 1_555
O14 C13_3 1_555 1_555
O16 C13_3 1_555 1_555
O6_5 Co5 1_555 1_555
N1_3 Co5 1_555 1_555
C1_3 N1_3 1_555 1_555
H1_3 C1_3 1_555 1_555
C2_3 C1_3 1_555 1_555
C3_3 C2_3 1_555 1_555
H2_3 C3_3 1_555 1_555
C4_3 C3_3 1_555 1_555
C5_3 N1_3 1_555 1_555
H3_3 C5_3 1_555 1_555
C6_3 C4_3 1_555 1_555
C7_3 C6_3 1_555 1_555
H4_3 C7_3 1_555 1_555
C8_3 C7_3 1_555 1_555
H5_3 C8_3 1_555 1_555
C9_3 C8_3 1_555 1_555
C10_3 C9_3 1_555 1_555
H6_3 C10_3 1_555 1_555
C11_3 C6_3 1_555 1_555
H7_3 C11_3 1_555 1_555
C12_3 C2_3 1_555 1_555
C13_3 C9_3 1_555 1_555
Co7 O2_2 1_555 1_555
C4_3 C5_3 1_555 1_555
C10_3 C11_3 1_555 1_555
Co7 O6_6 1_555 1_555
O7_3 C25_3 1_555 1_555
O13 C25_3 1_555 1_555
O15_2 C26_3 1_555 1_555
O11_2 Co7 1_555 1_555
N2_3 Co7 1_555 1_555
C14_3 N2_3 1_555 1_555
H8_3 C14_3 1_555 1_555
C15_3 C14_3 1_555 1_555
C16_3 C15_3 1_555 1_555
H9_3 C16_3 1_555 1_555
C17_3 C16_3 1_555 1_555
C18_3 N2_3 1_555 1_555
H10_3 C18_3 1_555 1_555
C19_3 C17_3 1_555 1_555
C20_3 C19_3 1_555 1_555
H11_3 C20_3 1_555 1_555
C21_3 C20_3 1_555 1_555
H12_3 C21_3 1_555 1_555
C22_3 C21_3 1_555 1_555
C23_3 C22_3 1_555 1_555
H13_3 C23_3 1_555 1_555
C24_3 C19_3 1_555 1_555
H14_3 C24_3 1_555 1_555
C25_3 C15_3 1_555 1_555
C26_3 C22_3 1_555 1_555
C17_3 C18_3 1_555 1_555
C23_3 C24_3 1_555 1_555
O11_2 H17_2 1_555 1_555
O11_2 H18_2 1_555 1_555
O11_3 H17_3 1_555 1_555
O11_3 H18_3 1_555 1_555
O5_3 H15_3 1_555 1_555
O5_3 H16_3 1_555 1_555

#END
