
###############################################################################
#
# This file contains modified crystal structure data generated from the
# MOF subset of the Cambridge Structural Database (CSD) v543 
# hosted by the Cambridge Crystallographic Data Centre (CCDC).
#
# This work is licensed under the Creative Commons
# Attribution-NonCommercial-ShareAlike 4.0 International License.
# To view a copy of this license, visit
# http://creativecommons.org/licenses/by-nc-sa/4.0/
# or send a letter to
# Creative Commons, PO Box 1866, Mountain View, CA 94042, USA.
#
# CIF created using the CSD Python API on 29 September 2022
# The structure has been converted into the P1 space group
# The structure has a 3D framework
# The original CSD entry SEQTEP is in the triclinic crystal system
# The framework has been calculated to contain at least 10.0% void space
# The void calculation uses a probe of radius 1.32A, grid spacing 0.4
#
###############################################################################

data_SEQTEP
_chemical_formula_moiety         '(C170 H190 Mn8 N10 O54)n'
_symmetry_cell_setting           triclinic
_symmetry_space_group_name_H-M   'P 1'
_symmetry_Int_Tables_number      1
_space_group_name_Hall           'P 1'
loop_
_symmetry_equiv_pos_site_id
_symmetry_equiv_pos_as_xyz
1 x,y,z
_cell_length_a                   16.4674(11)
_cell_length_b                   18.1705(18)
_cell_length_c                   20.4456(14)
_cell_angle_alpha                64.167(8)
_cell_angle_beta                 70.668(6)
_cell_angle_gamma                70.119(8)
_cell_volume                     5055.94
loop_
_atom_site_label
_atom_site_type_symbol
_atom_site_fract_x
_atom_site_fract_y
_atom_site_fract_z
Mn1 Mn 0.35956(7) 0.26113(7) 0.42044(6)
Mn2 Mn 0.12131(7) 0.33133(7) 0.41362(6)
O4 O 0.3351(4) 0.2007(3) 0.3607(3)
O5 O 0.1972(4) 0.2581(4) 0.3474(3)
O8 O 0.3191(3) 0.0587(3) 0.1321(3)
O19 O 0.4172(4) 0.1327(3) 0.4954(3)
O20 O 0.0152(4) 0.1642(4) 0.3937(3)
O22 O 0.4906(4) 0.2531(4) 0.3463(3)
O23 O 0.0145(5) 0.4020(5) 0.4758(5)
O24 O 0.0188(3) 0.3555(3) 0.3551(3)
O26 O 0.2268(3) 0.2633(3) 0.4925(3)
O27 O 0.1087(4) 0.2191(4) 0.5175(3)
N1 N 0.5296(4) 0.0420(4) 0.5498(4)
N2 N 0.0960(5) 0.0490(5) 0.4658(5)
N3 N 0.5654(6) 0.3344(6) 0.2412(4)
C7 C 0.2158(5) 0.1710(5) 0.2580(4)
H5 H 0.1587 0.1958 0.2773
C14 C 0.2286(5) 0.1321(5) 0.2099(4)
H16 H 0.1802 0.1298 0.1975
C15 C 0.3705(5) 0.1379(5) 0.2469(4)
H17 H 0.4188 0.1393 0.2601
C20 C 0.2866(5) 0.1740(4) 0.2783(4)
C22 C 0.3856(5) 0.1003(4) 0.1977(4)
H23 H 0.4429 0.0780 0.1765
C23 C 0.2733(6) 0.2142(5) 0.3336(4)
C24 C 0.3131(4) 0.0963(4) 0.1798(4)
C25 C 0.4054(4) 0.0231(5) 0.0963(4)
H25 H 0.4376 0.0667 0.0645
H55 H 0.4138 0.0142 0.6093
C68 C 0.4953(6) 0.1071(5) 0.4979(4)
H58 H 0.5341 0.1371 0.4589
C69 C 0.6238(6) 0.0168(6) 0.5503(6)
H59 H 0.6552 0.0513 0.5047
H61 H 0.6319 0.0234 0.5916
C70 C 0.1251(8) 0.0046(8) 0.5371(8)
H62 H 0.1014 0.0400 0.5659
C71 C 0.1223(9) 0.0044(7) 0.4163(7)
H65 H 0.0996 0.0398 0.3722
C72 C 0.0465(6) 0.1248(6) 0.4494(6)
H68 H 0.0336 0.1513 0.4828
C73 C 0.5451(11) 0.3020(10) 0.1964(6)
H69 H 0.5093 0.2620 0.2281
H70 H 0.5990 0.2751 0.1709
H71 H 0.5134 0.3475 0.1607
C74 C 0.5302(6) 0.3038(7) 0.3161(6)
H72 H 0.5395 0.3267 0.3451
C75 C 0.6197(10) 0.3950(9) 0.2096(7)
H73 H 0.6251 0.4081 0.2484
H74 H 0.5927 0.4452 0.1739
H75 H 0.6773 0.3717 0.1854
C76 C 0.0280(5) 0.3689(6) 0.2870(5)
C77 C 0.0938(7) 0.4188(7) 0.2288(5)
H76 H 0.0924 0.4243 0.1803
H77 H 0.1521 0.3902 0.2379
H78 H 0.0787 0.4736 0.2312
C78 C 0.1795(5) 0.2108(5) 0.5334(4)
C79 C 0.2066(7) 0.1411(7) 0.6009(5)
H79 H 0.1647 0.1062 0.6248
H80 H 0.2085 0.1639 0.6346
H81 H 0.2641 0.1081 0.5869
O28 O 0.4021(3) 0.3092(3) 0.4815(2)
O30 O 0.1756(4) 0.4374(3) 0.3540(3)
O31 O 0.3212(4) 0.3839(3) 0.3409(3)
O2 O 0.5432(3) 0.2889(3) 0.4767(2)
O7 O 0.4262(3) 0.0650(3) 0.8136(2)
C1 C 0.4677(5) 0.2793(4) 0.5114(4)
C9 C 0.5251(5) 0.1813(4) 0.6266(3)
H9 H 0.5818 0.1867 0.5990
C11 C 0.5139(5) 0.1278(5) 0.6996(4)
H12 H 0.5628 0.0965 0.7208
C13 C 0.3560(5) 0.1283(4) 0.9546(4)
H13 H 0.3413 0.1536 0.9066
H14 H 0.4091 0.1420 0.9510
H15 H 0.3085 0.1492 0.9892
C16 C 0.3707(5) 0.2197(5) 0.6352(4)
H18 H 0.3221 0.2507 0.6135
C17 C 0.3579(5) 0.1663(5) 0.7095(4)
H19 H 0.3010 0.1617 0.7371
C21 C 0.4293(4) 0.1202(4) 0.7421(3)
C27 C 0.3703(4) 0.0337(4) 0.9816(3)
C28 C 0.4541(4) 0.2271(4) 0.5935(3)
C31 C 0.3425(4) 0.0523(4) 0.8622(3)
H26 H 0.3155 0.0253 0.8458
H27 H 0.3028 0.1055 0.8631
Mn12 Mn 0.67386(7) 0.30190(7) 0.45047(6)
O9 O 0.3143(3) 0.7563(3) 0.1130(3)
C2 C 0.2060(6) 0.5984(5) 0.2609(5)
H1 H 0.1506 0.5960 0.2927
C3 C 0.2218(6) 0.6731(5) 0.2103(6)
H2 H 0.1778 0.7220 0.2078
C4 C 0.3525(5) 0.5299(5) 0.2191(4)
H3 H 0.3972 0.4812 0.2234
C5 C 0.3049(6) 0.6770(5) 0.1613(5)
C6 C 0.3698(6) 0.6053(5) 0.1653(4)
H4 H 0.4246 0.6071 0.1324
C10 C 0.4004(5) 0.7658(4) 0.0651(4)
H10 H 0.4131 0.7441 0.0261
H11 H 0.4464 0.7362 0.0934
C12 C 0.2560(6) 0.4402(5) 0.3253(4)
C18 C 0.2715(6) 0.5249(5) 0.2662(4)
C19 C 0.4211(5) 0.8389(5) 0.1544(4)
H20 H 0.4253 0.8722 0.1785
H21 H 0.4758 0.7981 0.1496
H22 H 0.3739 0.8107 0.1837
H24 H 0.4388 0.9814 0.1333
C29 C 0.3942(4) 0.8595(4) 0.0325(4)
C32 C 0.3931(4) 0.9832(4) 0.0511(3)
C33 C 0.4025(4) 0.8959(4) 0.0774(3)
C67 C 0.4741(6) 0.9930(5) 0.6146(4)
H56 H 0.4785 0.9973 0.6585
H57 H 0.4933 0.9352 0.6190
H60 H 0.6461 0.9590 0.5548
H63 H 0.1885 0.9911 0.5276
H64 H 0.1042 0.9538 0.5642
H66 H 0.0992 0.9548 0.4405
H67 H 0.1857 0.9888 0.4031
O11 O 0.8479(4) 0.2227(4) 0.3466(4)
O15 O 0.7074(4) 0.2198(3) 0.3905(3)
O17 O 0.8205(3) 0.0336(3) 0.1640(3)
C44 C 0.8752(4) 0.0161(4) 0.0013(3)
C47 C 0.9039(4) 0.0170(5) 0.1140(4)
H43 H 0.9206 0.0694 0.0798
C48 C 0.8160(5) 0.0725(5) 0.2096(4)
C50 C 0.8867(5) 0.0926(6) 0.2144(5)
H44 H 0.9428 0.0782 0.1865
C51 C 0.7344(5) 0.0922(5) 0.2532(4)
H45 H 0.6866 0.0777 0.2510
C54 C 0.8740(5) 0.1338(6) 0.2603(5)
H48 H 0.9222 0.1472 0.2629
C55 C 0.7222(5) 0.1326(5) 0.2995(4)
H49 H 0.6666 0.1445 0.3291
C58 C 0.7920(5) 0.1563(5) 0.3030(4)
C65 C 0.7803(6) 0.2034(5) 0.3498(4)
Mn9 Mn 0.90969(7) 0.27948(7) 0.37851(6)
O10 O 0.9012(3) 0.0473(3) 0.8287(2)
O14 O 0.8793(3) 0.2478(3) 0.4930(3)
O18 O 0.7460(3) 0.2189(3) 0.5353(2)
O21 O 0.6247(5) 0.3824(6) 0.5152(5)
O25 O 0.9839(4) 0.3417(4) 0.2681(3)
N4 N 0.8792(8) 0.4895(8) 0.4731(7)
N5 N 0.5800(5) 0.4240(5) 0.6105(4)
C37 C 0.8331(4) 0.0192(5) 0.8923(3)
H33 H 0.7861 0.0673 0.8976
C41 C 0.8622(5) 0.1106(5) 0.9659(4)
H36 H 0.8500 0.1298 0.9175
H37 H 0.9149 0.1258 0.9610
H38 H 0.8134 0.1362 0.9966
C49 C 0.8759(4) 0.0897(5) 0.7617(3)
C52 C 0.9352(5) 0.1317(5) 0.7016(4)
H46 H 0.9887 0.1307 0.7085
C53 C 0.7975(5) 0.0915(5) 0.7503(4)
H47 H 0.7573 0.0637 0.7898
C56 C 0.9158(5) 0.1739(5) 0.6336(4)
H50 H 0.9561 0.2021 0.5945
C57 C 0.7780(5) 0.1341(5) 0.6809(4)
H51 H 0.7246 0.1349 0.6741
C59 C 0.8375(4) 0.1764(4) 0.6204(3)
C61 C 0.8175(5) 0.2169(4) 0.5446(4)
C80 C 0.9546(13) 0.4480(16) 0.4660(13)
H82 H 0.9745 0.4777 0.4158
C81 C 0.8222(16) 0.4353(18) 0.5305(15)
H83 H 0.8575 0.3802 0.5515
H84 H 0.7804 0.4320 0.5090
H85 H 0.7910 0.4582 0.5688
C82 C 0.8297(19) 0.5680(14) 0.4461(15)
H86 H 0.7687 0.5690 0.4703
H87 H 0.8364 0.5846 0.3934
H88 H 0.8490 0.6062 0.4553
C83 C 0.6025(9) 0.3966(15) 0.5573(9)
H89 H 0.5644 0.3603 0.5807
C84 C 0.5735(18) 0.3702(13) 0.6871(10)
H90 H 0.5894 0.3127 0.6912
H91 H 0.5139 0.3830 0.7142
H92 H 0.6129 0.3789 0.7074
C85 C 0.5566(10) 0.5057(8) 0.6111(12)
H93 H 0.5677 0.5451 0.5610
H94 H 0.5911 0.5087 0.6392
H95 H 0.4949 0.5191 0.6335
O33 O 0.7896(4) 0.3788(3) 0.3794(3)
O35 O 0.6608(4) 0.4223(3) 0.3518(3)
O12 O 0.8161(4) 0.7406(3) 0.1374(4)
C34 C 0.7208(8) 0.6529(7) 0.2047(9)
H28 H 0.6772 0.6976 0.1837
C35 C 0.8020(6) 0.6630(5) 0.1857(5)
C39 C 0.9059(5) 0.7488(5) 0.1023(5)
H34 H 0.9314 0.7212 0.0663
H35 H 0.9420 0.7240 0.1390
C42 C 0.9000(4) 0.8411(4) 0.0646(3)
C43 C 0.9134(6) 0.8404(6) 0.1854(4)
H39 H 0.9127 0.8804 0.2045
H40 H 0.9687 0.7995 0.1871
H41 H 0.8658 0.8127 0.2151
C45 C 0.9023(4) 0.8856(5) 0.1050(4)
C46 C 0.8942(4) 0.9728(5) 0.0722(3)
H42 H 0.9498 0.9826 0.1420
C60 C 0.7574(5) 0.5145(5) 0.2868(5)
C62 C 0.7345(6) 0.4328(5) 0.3427(4)
C63 C 0.8600(7) 0.6004(6) 0.2193(8)
H52 H 0.9176 0.6060 0.2085
C64 C 0.8384(7) 0.5267(6) 0.2699(7)
H53 H 0.8815 0.4838 0.2934
C66 C 0.6981(7) 0.5787(7) 0.2543(8)
H54 H 0.6403 0.5738 0.2651
C8 C 0.3715(5) 0.8692(5) 0.9129(4)
H6 H 0.3815 0.8094 0.9384
H7 H 0.4163 0.8821 0.8681
H8 H 0.3144 0.8906 0.9006
C26 C 0.3753(4) 0.9092(5) 0.9623(4)
C30 C 0.3617(4) 0.9971(4) 0.9377(3)
C36 C 0.8869(6) 0.8358(5) 0.9468(5)
H29 H 0.8993 0.7765 0.9752
H30 H 0.9319 0.8479 0.9021
H31 H 0.8304 0.8527 0.9342
H32 H 0.8082 0.9830 0.8847
C38 C 0.8853(4) 0.8838(5) 0.9929(4)
C40 C 0.8677(4) 0.9720(5) 0.9627(3)
C36_2 C 0.1131(6) 0.1642(5) 0.0532(5)
H29_2 H 0.1007 0.2235 0.0248
H30_2 H 0.0681 0.1521 0.0979
H31_2 H 0.1696 0.1473 0.0658
H32_2 H 0.1918 0.0170 0.1153
C38_2 C 0.1147(4) 0.1162(5) 0.0071(4)
C40_2 C 0.1323(4) 0.0280(5) 0.0373(3)
O12_2 O 0.1839(4) 0.2594(3) 0.8626(4)
O13 O 0.2104(4) 0.6212(3) 0.6206(3)
O16 O 0.3392(4) 0.5777(3) 0.6482(3)
C34_2 C 0.2792(8) 0.3471(7) 0.7953(9)
H28_2 H 0.3228 0.3024 0.8163
C35_2 C 0.1980(6) 0.3370(5) 0.8143(5)
C39_2 C 0.0941(5) 0.2512(5) 0.8977(5)
H34_2 H 0.0686 0.2788 0.9337
H35_2 H 0.0580 0.2760 0.8610
C42_2 C 0.1000(4) 0.1589(4) 0.9354(3)
C43_2 C 0.0866(6) 0.1596(6) 0.8146(4)
H39_2 H 0.0873 0.1196 0.7955
H40_2 H 0.0313 0.2005 0.8129
H41_2 H 0.1342 0.1873 0.7849
C45_2 C 0.0977(4) 0.1144(5) 0.8950(4)
C46_2 C 0.1058(4) 0.0272(5) 0.9278(3)
H42_2 H 0.0502 0.0174 0.8580
C60_2 C 0.2426(5) 0.4855(5) 0.7132(5)
C62_2 C 0.2655(6) 0.5672(5) 0.6573(4)
C63_2 C 0.1400(7) 0.3996(6) 0.7807(8)
H52_2 H 0.0824 0.3940 0.7915
C64_2 C 0.1616(7) 0.4733(6) 0.7301(7)
H53_2 H 0.1185 0.5162 0.7066
C66_2 C 0.3019(7) 0.4213(7) 0.7457(8)
H54_2 H 0.3597 0.4262 0.7349
Mn8 Mn 0.09031(7) 0.72052(7) 0.62149(6)
Mn10 Mn 0.32614(7) 0.69810(7) 0.54953(6)
O10_2 O 0.0988(3) 0.9527(3) 0.1713(2)
O14_2 O 0.1207(3) 0.7522(3) 0.5070(3)
O18_2 O 0.2540(3) 0.7811(3) 0.4647(2)
O21_2 O 0.3753(5) 0.6176(6) 0.4848(5)
O25_2 O 0.0161(4) 0.6583(4) 0.7319(3)
N4_2 N 0.1208(8) 0.5105(8) 0.5269(7)
N5_2 N 0.4200(5) 0.5760(5) 0.3895(4)
C37_2 C 0.1669(4) 0.9808(5) 0.1077(3)
H33_2 H 0.2139 0.9327 0.1024
C41_2 C 0.1378(5) 0.8894(5) 0.0341(4)
H36_2 H 0.1500 0.8702 0.0825
H37_2 H 0.0851 0.8742 0.0390
H38_2 H 0.1866 0.8638 0.0034
C49_2 C 0.1241(4) 0.9103(5) 0.2383(3)
C52_2 C 0.0648(5) 0.8683(5) 0.2984(4)
H46_2 H 0.0113 0.8693 0.2915
C53_2 C 0.2025(5) 0.9085(5) 0.2497(4)
H47_2 H 0.2427 0.9363 0.2102
C56_2 C 0.0842(5) 0.8261(5) 0.3664(4)
H50_2 H 0.0439 0.7979 0.4055
C57_2 C 0.2220(5) 0.8659(5) 0.3191(4)
H51_2 H 0.2754 0.8651 0.3259
C59_2 C 0.1625(4) 0.8236(4) 0.3796(3)
C61_2 C 0.1825(5) 0.7831(4) 0.4554(4)
C80_2 C 0.0454(13) 0.5520(16) 0.5340(13)
H82_2 H 0.0255 0.5223 0.5842
C81_2 C 0.1778(16) 0.5647(18) 0.4695(15)
H83_2 H 0.1425 0.6198 0.4485
H84_2 H 0.2196 0.5680 0.4910
H85_2 H 0.2090 0.5418 0.4312
C82_2 C 0.1703(19) 0.4320(14) 0.5539(15)
H86_2 H 0.2313 0.4310 0.5297
H87_2 H 0.1636 0.4154 0.6066
H88_2 H 0.1510 0.3938 0.5447
C83_2 C 0.3975(9) 0.6034(15) 0.4427(9)
H89_2 H 0.4356 0.6397 0.4193
C84_2 C 0.4265(18) 0.6298(13) 0.3129(10)
H90_2 H 0.4106 0.6873 0.3088
H91_2 H 0.4861 0.6170 0.2858
H92_2 H 0.3871 0.6211 0.2926
C85_2 C 0.4434(10) 0.4943(8) 0.3889(12)
H93_2 H 0.4323 0.4549 0.4390
H94_2 H 0.4089 0.4913 0.3608
H95_2 H 0.5051 0.4809 0.3665
O29 O 0.4568(3) 0.7111(3) 0.5233(2)
O32 O 0.1521(4) 0.7773(4) 0.6534(4)
O34 O 0.2926(4) 0.7802(3) 0.6095(3)
O17_2 O 0.1795(3) 0.9664(3) 0.8360(3)
C44_2 C 0.1248(4) 0.9839(4) 0.9987(3)
C47_2 C 0.0961(4) 0.9830(5) 0.8860(4)
H43_2 H 0.0794 0.9306 0.9202
C48_2 C 0.1840(5) 0.9275(5) 0.7904(4)
C50_2 C 0.1133(5) 0.9074(6) 0.7856(5)
H44_2 H 0.0572 0.9218 0.8135
C51_2 C 0.2656(5) 0.9078(5) 0.7468(4)
H45_2 H 0.3134 0.9223 0.7490
C54_2 C 0.1260(5) 0.8662(6) 0.7397(5)
H48_2 H 0.0778 0.8528 0.7371
C55_2 C 0.2778(5) 0.8674(5) 0.7005(4)
H49_2 H 0.3334 0.8555 0.6709
C58_2 C 0.2080(5) 0.8437(5) 0.6970(4)
C65_2 C 0.2197(6) 0.7966(5) 0.6502(4)
O3 O 0.8244(4) 0.5626(3) 0.6460(3)
O6 O 0.6788(4) 0.6161(3) 0.6591(3)
O9_2 O 0.6857(3) 0.2437(3) 0.8870(3)
C2_2 C 0.7940(6) 0.4016(5) 0.7391(5)
H1_2 H 0.8494 0.4040 0.7073
C3_2 C 0.7782(6) 0.3269(5) 0.7897(6)
H2_2 H 0.8222 0.2780 0.7922
C4_2 C 0.6475(5) 0.4701(5) 0.7809(4)
H3_2 H 0.6028 0.5188 0.7766
C5_2 C 0.6951(6) 0.3230(5) 0.8387(5)
C6_2 C 0.6302(6) 0.3947(5) 0.8347(4)
H4_2 H 0.5754 0.3929 0.8676
C10_2 C 0.5996(5) 0.2342(4) 0.9349(4)
H10_2 H 0.5869 0.2559 0.9739
H11_2 H 0.5536 0.2638 0.9066
C12_2 C 0.7440(6) 0.5598(5) 0.6747(4)
C18_2 C 0.7285(6) 0.4751(5) 0.7338(4)
C19_2 C 0.5789(5) 0.1611(5) 0.8456(4)
H20_2 H 0.5747 0.1278 0.8215
H21_2 H 0.5242 0.2019 0.8504
H22_2 H 0.6261 0.1893 0.8163
H24_2 H 0.5612 0.0186 0.8667
C29_2 C 0.6058(4) 0.1405(4) 0.9675(4)
C32_2 C 0.6069(4) 0.0168(4) 0.9489(3)
C33_2 C 0.5975(4) 0.1041(4) 0.9226(3)
C67_2 C 0.5259(6) 0.0070(5) 0.3854(4)
H56_2 H 0.5215 0.0027 0.3415
H57_2 H 0.5067 0.0648 0.3810
H60_2 H 0.3539 0.0410 0.4452
H63_2 H 0.8115 0.0089 0.4724
H64_2 H 0.8958 0.0462 0.4358
H66_2 H 0.9008 0.0452 0.5595
H67_2 H 0.8143 0.0112 0.5969
Mn5 Mn 0.64044(7) 0.73887(7) 0.57956(6)
Mn7 Mn 0.87869(7) 0.66867(7) 0.58638(6)
O1 O 0.5979(3) 0.6908(3) 0.5185(2)
O7_2 O 0.5738(3) 0.9350(3) 0.1864(2)
C1_2 C 0.5323(5) 0.7207(4) 0.4886(4)
C9_2 C 0.4749(5) 0.8187(4) 0.3734(3)
H9_2 H 0.4182 0.8133 0.4010
C11_2 C 0.4861(5) 0.8722(5) 0.3004(4)
H12_2 H 0.4372 0.9035 0.2792
C13_2 C 0.6440(5) 0.8717(4) 0.0454(4)
H13_2 H 0.6587 0.8464 0.0934
H14_2 H 0.5909 0.8580 0.0490
H15_2 H 0.6915 0.8508 0.0108
C16_2 C 0.6293(5) 0.7803(5) 0.3648(4)
H18_2 H 0.6779 0.7493 0.3865
C17_2 C 0.6421(5) 0.8337(5) 0.2905(4)
H19_2 H 0.6990 0.8383 0.2629
C21_2 C 0.5707(4) 0.8798(4) 0.2579(3)
C27_2 C 0.6297(4) 0.9663(4) 0.0184(3)
C28_2 C 0.5459(4) 0.7729(4) 0.4065(3)
C31_2 C 0.6575(4) 0.9477(4) 0.1378(3)
H26_2 H 0.6845 0.9747 0.1542
H27_2 H 0.6972 0.8945 0.1369
O4_2 O 0.6649(4) 0.7993(3) 0.6393(3)
O5_2 O 0.8028(4) 0.7419(4) 0.6526(3)
O8_2 O 0.6809(3) 0.9413(3) 0.8679(3)
O19_2 O 0.5828(4) 0.8673(3) 0.5046(3)
O20_2 O 0.9848(4) 0.8358(4) 0.6063(3)
O22_2 O 0.5094(4) 0.7469(4) 0.6537(3)
O23_2 O 0.9855(5) 0.5980(5) 0.5242(5)
O24_2 O 0.9812(3) 0.6445(3) 0.6449(3)
O26_2 O 0.7732(3) 0.7367(3) 0.5075(3)
O27_2 O 0.8913(4) 0.7809(4) 0.4825(3)
N1_2 N 0.4704(4) 0.9580(4) 0.4502(4)
N2_2 N 0.9040(5) 0.9510(5) 0.5342(5)
N3_2 N 0.4346(6) 0.6656(6) 0.7588(4)
C7_2 C 0.7842(5) 0.8290(5) 0.7420(4)
H5_2 H 0.8413 0.8042 0.7227
C14_2 C 0.7714(5) 0.8679(5) 0.7901(4)
H16_2 H 0.8198 0.8702 0.8025
C15_2 C 0.6295(5) 0.8621(5) 0.7531(4)
H17_2 H 0.5812 0.8607 0.7399
C20_2 C 0.7134(5) 0.8260(4) 0.7217(4)
C22_2 C 0.6144(5) 0.8997(4) 0.8023(4)
H23_2 H 0.5571 0.9220 0.8235
C23_2 C 0.7267(6) 0.7858(5) 0.6664(4)
C24_2 C 0.6869(4) 0.9037(4) 0.8202(4)
C25_2 C 0.5946(4) 0.9769(5) 0.9037(4)
H25_2 H 0.5624 0.9333 0.9355
H55_2 H 0.5862 0.9858 0.3907
C68_2 C 0.5047(6) 0.8929(5) 0.5021(4)
H58_2 H 0.4659 0.8629 0.5411
C69_2 C 0.3762(6) 0.9832(6) 0.4497(6)
H59_2 H 0.3448 0.9487 0.4953
H61_2 H 0.3681 0.9766 0.4084
C70_2 C 0.8749(8) 0.9954(8) 0.4629(8)
H62_2 H 0.8986 0.9600 0.4341
C71_2 C 0.8777(9) 0.9956(7) 0.5837(7)
H65_2 H 0.9004 0.9602 0.6278
C72_2 C 0.9535(6) 0.8752(6) 0.5506(6)
H68_2 H 0.9664 0.8487 0.5172
C73_2 C 0.4549(11) 0.6980(10) 0.8036(6)
H69_2 H 0.4907 0.7380 0.7719
H70_2 H 0.4010 0.7249 0.8291
H71_2 H 0.4866 0.6525 0.8393
C74_2 C 0.4698(6) 0.6962(7) 0.6839(6)
H72_2 H 0.4605 0.6733 0.6549
C75_2 C 0.3803(10) 0.6050(9) 0.7904(7)
H73_2 H 0.3749 0.5919 0.7516
H74_2 H 0.4073 0.5548 0.8261
H75_2 H 0.3227 0.6283 0.8146
C76_2 C 0.9720(5) 0.6311(6) 0.7130(5)
C77_2 C 0.9062(7) 0.5812(7) 0.7712(5)
H76_2 H 0.9076 0.5757 0.8197
H77_2 H 0.8479 0.6098 0.7621
H78_2 H 0.9213 0.5264 0.7688
C78_2 C 0.8205(5) 0.7892(5) 0.4666(4)
C79_2 C 0.7934(7) 0.8589(7) 0.3991(5)
H79_2 H 0.8353 0.8938 0.3752
H80_2 H 0.7915 0.8361 0.3654
H81_2 H 0.7359 0.8919 0.4131
C8_2 C 0.6285(5) 0.1308(5) 0.0871(4)
H6_2 H 0.6185 0.1906 0.0616
H7_2 H 0.5837 0.1179 0.1319
H8_2 H 0.6856 0.1094 0.0994
C26_2 C 0.6247(4) 0.0908(5) 0.0377(4)
C30_2 C 0.6383(4) 0.0029(4) 0.0623(3)
loop_
_geom_bond_atom_site_label_1
_geom_bond_atom_site_label_2
_geom_bond_site_symmetry_1
_geom_bond_site_symmetry_2
Mn1 O4 1_555 1_555
Mn2 O5 1_555 1_555
O4 C23 1_555 1_555
O5 C23 1_555 1_555
O8 C24 1_555 1_555
O19 Mn1 1_555 1_555
O22 Mn1 1_555 1_555
O23 Mn2 1_555 1_555
O24 Mn2 1_555 1_555
O26 Mn1 1_555 1_555
O27 Mn2 1_555 1_555
N2 C70 1_555 1_555
N3 C73 1_555 1_555
C7 H5 1_555 1_555
C14 C7 1_555 1_555
H16 C14 1_555 1_555
C15 H17 1_555 1_555
C20 C7 1_555 1_555
C22 C15 1_555 1_555
H23 C22 1_555 1_555
C23 C20 1_555 1_555
C24 C14 1_555 1_555
C25 O8 1_555 1_555
H25 C25 1_555 1_555
C68 O19 1_555 1_555
H58 C68 1_555 1_555
C69 N1 1_555 1_555
H59 C69 1_555 1_555
H61 C69 1_555 1_555
C70 H62 1_555 1_555
C71 N2 1_555 1_555
H65 C71 1_555 1_555
C72 O20 1_555 1_555
H68 C72 1_555 1_555
C73 H69 1_555 1_555
H70 C73 1_555 1_555
H71 C73 1_555 1_555
C74 O22 1_555 1_555
H72 C74 1_555 1_555
C75 N3 1_555 1_555
H73 C75 1_555 1_555
H74 C75 1_555 1_555
H75 C75 1_555 1_555
C76 O24 1_555 1_555
C77 C76 1_555 1_555
H76 C77 1_555 1_555
H77 C77 1_555 1_555
H78 C77 1_555 1_555
C78 O26 1_555 1_555
C79 C78 1_555 1_555
H79 C79 1_555 1_555
H80 C79 1_555 1_555
H81 C79 1_555 1_555
O28 Mn1 1_555 1_555
O30 Mn2 1_555 1_555
O31 Mn1 1_555 1_555
Mn2 O26 1_555 1_555
O27 C78 1_555 1_555
N1 C68 1_555 1_555
N2 C72 1_555 1_555
N3 C74 1_555 1_555
C15 C20 1_555 1_555
C22 C24 1_555 1_555
O28 C1 1_555 1_555
O2 C1 1_555 1_555
O7 C21 1_555 1_555
C1 C28 1_555 1_555
C9 H9 1_555 1_555
C11 C9 1_555 1_555
H12 C11 1_555 1_555
C13 H13 1_555 1_555
H14 C13 1_555 1_555
H15 C13 1_555 1_555
C16 H18 1_555 1_555
C17 C16 1_555 1_555
H19 C17 1_555 1_555
C21 C11 1_555 1_555
C27 C13 1_555 1_555
C28 C9 1_555 1_555
C31 O7 1_555 1_555
H26 C31 1_555 1_555
H27 C31 1_555 1_555
Mn12 O2 1_555 1_555
C16 C28 1_555 1_555
C17 C21 1_555 1_555
O30 C12 1_555 1_555
O31 C12 1_555 1_555
O9 C5 1_555 1_555
C2 H1 1_555 1_555
C3 C2 1_555 1_555
H2 C3 1_555 1_555
C4 H3 1_555 1_555
C5 C3 1_555 1_555
C6 C4 1_555 1_555
H4 C6 1_555 1_555
C10 O9 1_555 1_555
H10 C10 1_555 1_555
H11 C10 1_555 1_555
C12 C18 1_555 1_555
C18 C2 1_555 1_555
C19 H20 1_555 1_555
H21 C19 1_555 1_555
H22 C19 1_555 1_555
C29 C10 1_555 1_555
C33 C19 1_555 1_555
H56 C67 1_555 1_555
H57 C67 1_555 1_555
C4 C18 1_555 1_555
C5 C6 1_555 1_555
C29 C33 1_555 1_555
C32 C33 1_555 1_555
O11 C65 1_555 1_555
O15 C65 1_555 1_555
O17 C47 1_555 1_555
H43 C47 1_555 1_555
C48 O17 1_555 1_555
C50 C48 1_555 1_555
H44 C50 1_555 1_555
C51 C48 1_555 1_555
H45 C51 1_555 1_555
C54 C50 1_555 1_555
H48 C54 1_555 1_555
C55 C51 1_555 1_555
H49 C55 1_555 1_555
C58 C54 1_555 1_555
C65 C58 1_555 1_555
Mn9 O11 1_555 1_555
Mn12 O15 1_555 1_555
C55 C58 1_555 1_555
Mn9 O14 1_555 1_555
Mn12 O18 1_555 1_555
O10 C37 1_555 1_555
O14 C61 1_555 1_555
O18 C61 1_555 1_555
O21 Mn12 1_555 1_555
O25 Mn9 1_555 1_555
N4 C80 1_555 1_555
N5 C83 1_555 1_555
H33 C37 1_555 1_555
C41 H36 1_555 1_555
H37 C41 1_555 1_555
H38 C41 1_555 1_555
C49 O10 1_555 1_555
C52 C49 1_555 1_555
H46 C52 1_555 1_555
C53 C49 1_555 1_555
H47 C53 1_555 1_555
C56 C52 1_555 1_555
H50 C56 1_555 1_555
C57 C53 1_555 1_555
H51 C57 1_555 1_555
C59 C56 1_555 1_555
C61 C59 1_555 1_555
H82 C80 1_555 1_555
C81 N4 1_555 1_555
H83 C81 1_555 1_555
H84 C81 1_555 1_555
H85 C81 1_555 1_555
C82 N4 1_555 1_555
H86 C82 1_555 1_555
H87 C82 1_555 1_555
H88 C82 1_555 1_555
C83 O21 1_555 1_555
H89 C83 1_555 1_555
C84 N5 1_555 1_555
H90 C84 1_555 1_555
H91 C84 1_555 1_555
H92 C84 1_555 1_555
C85 N5 1_555 1_555
H93 C85 1_555 1_555
H94 C85 1_555 1_555
H95 C85 1_555 1_555
O33 Mn9 1_555 1_555
O35 Mn12 1_555 1_555
Mn12 O33 1_555 1_555
C57 C59 1_555 1_555
O12 C35 1_555 1_555
O33 C62 1_555 1_555
O35 C62 1_555 1_555
C34 H28 1_555 1_555
C35 C34 1_555 1_555
C39 O12 1_555 1_555
H34 C39 1_555 1_555
H35 C39 1_555 1_555
C43 H39 1_555 1_555
H40 C43 1_555 1_555
H41 C43 1_555 1_555
C45 C42 1_555 1_555
C60 C62 1_555 1_555
C63 C35 1_555 1_555
H52 C63 1_555 1_555
C64 C60 1_555 1_555
H53 C64 1_555 1_555
C66 C34 1_555 1_555
H54 C66 1_555 1_555
C39 C42 1_555 1_555
C43 C45 1_555 1_555
C45 C46 1_555 1_555
C60 C66 1_555 1_555
C63 C64 1_555 1_555
C8 H6 1_555 1_555
H7 C8 1_555 1_555
H8 C8 1_555 1_555
C26 C8 1_555 1_555
C30 C26 1_555 1_555
C36 H29 1_555 1_555
H30 C36 1_555 1_555
H31 C36 1_555 1_555
C38 C36 1_555 1_555
C38 C40 1_555 1_555
C36_2 H29_2 1_555 1_555
H30_2 C36_2 1_555 1_555
H31_2 C36_2 1_555 1_555
C38_2 C36_2 1_555 1_555
C38_2 C40_2 1_555 1_555
O12_2 C35_2 1_555 1_555
O13 C62_2 1_555 1_555
O16 C62_2 1_555 1_555
C34_2 H28_2 1_555 1_555
C35_2 C34_2 1_555 1_555
C39_2 O12_2 1_555 1_555
H34_2 C39_2 1_555 1_555
H35_2 C39_2 1_555 1_555
C43_2 H39_2 1_555 1_555
H40_2 C43_2 1_555 1_555
H41_2 C43_2 1_555 1_555
C45_2 C42_2 1_555 1_555
C60_2 C62_2 1_555 1_555
C63_2 C35_2 1_555 1_555
H52_2 C63_2 1_555 1_555
C64_2 C60_2 1_555 1_555
H53_2 C64_2 1_555 1_555
C66_2 C34_2 1_555 1_555
H54_2 C66_2 1_555 1_555
Mn8 O13 1_555 1_555
Mn10 O13 1_555 1_555
O16 Mn10 1_555 1_555
C39_2 C42_2 1_555 1_555
C43_2 C45_2 1_555 1_555
C45_2 C46_2 1_555 1_555
C60_2 C66_2 1_555 1_555
C63_2 C64_2 1_555 1_555
Mn8 O14_2 1_555 1_555
Mn10 O18_2 1_555 1_555
O10_2 C37_2 1_555 1_555
O14_2 C61_2 1_555 1_555
O18_2 C61_2 1_555 1_555
O21_2 Mn10 1_555 1_555
O25_2 Mn8 1_555 1_555
N4_2 C80_2 1_555 1_555
N5_2 C83_2 1_555 1_555
H33_2 C37_2 1_555 1_555
C41_2 H36_2 1_555 1_555
H37_2 C41_2 1_555 1_555
H38_2 C41_2 1_555 1_555
C49_2 O10_2 1_555 1_555
C52_2 C49_2 1_555 1_555
H46_2 C52_2 1_555 1_555
C53_2 C49_2 1_555 1_555
H47_2 C53_2 1_555 1_555
C56_2 C52_2 1_555 1_555
H50_2 C56_2 1_555 1_555
C57_2 C53_2 1_555 1_555
H51_2 C57_2 1_555 1_555
C59_2 C56_2 1_555 1_555
C61_2 C59_2 1_555 1_555
H82_2 C80_2 1_555 1_555
C81_2 N4_2 1_555 1_555
H83_2 C81_2 1_555 1_555
H84_2 C81_2 1_555 1_555
H85_2 C81_2 1_555 1_555
C82_2 N4_2 1_555 1_555
H86_2 C82_2 1_555 1_555
H87_2 C82_2 1_555 1_555
H88_2 C82_2 1_555 1_555
C83_2 O21_2 1_555 1_555
H89_2 C83_2 1_555 1_555
C84_2 N5_2 1_555 1_555
H90_2 C84_2 1_555 1_555
H91_2 C84_2 1_555 1_555
H92_2 C84_2 1_555 1_555
C85_2 N5_2 1_555 1_555
H93_2 C85_2 1_555 1_555
H94_2 C85_2 1_555 1_555
H95_2 C85_2 1_555 1_555
O29 Mn10 1_555 1_555
O32 Mn8 1_555 1_555
O34 Mn10 1_555 1_555
C57_2 C59_2 1_555 1_555
O32 C65_2 1_555 1_555
O34 C65_2 1_555 1_555
O17_2 C47_2 1_555 1_555
H43_2 C47_2 1_555 1_555
C48_2 O17_2 1_555 1_555
C50_2 C48_2 1_555 1_555
H44_2 C50_2 1_555 1_555
C51_2 C48_2 1_555 1_555
H45_2 C51_2 1_555 1_555
C54_2 C50_2 1_555 1_555
H48_2 C54_2 1_555 1_555
C55_2 C51_2 1_555 1_555
H49_2 C55_2 1_555 1_555
C58_2 C54_2 1_555 1_555
C65_2 C58_2 1_555 1_555
C55_2 C58_2 1_555 1_555
O3 C12_2 1_555 1_555
O6 C12_2 1_555 1_555
O9_2 C5_2 1_555 1_555
C2_2 H1_2 1_555 1_555
C3_2 C2_2 1_555 1_555
H2_2 C3_2 1_555 1_555
C4_2 H3_2 1_555 1_555
C5_2 C3_2 1_555 1_555
C6_2 C4_2 1_555 1_555
H4_2 C6_2 1_555 1_555
C10_2 O9_2 1_555 1_555
H10_2 C10_2 1_555 1_555
H11_2 C10_2 1_555 1_555
C12_2 C18_2 1_555 1_555
C18_2 C2_2 1_555 1_555
C19_2 H20_2 1_555 1_555
H21_2 C19_2 1_555 1_555
H22_2 C19_2 1_555 1_555
C29_2 C10_2 1_555 1_555
C33_2 C19_2 1_555 1_555
H56_2 C67_2 1_555 1_555
H57_2 C67_2 1_555 1_555
Mn5 O6 1_555 1_555
Mn7 O3 1_555 1_555
C4_2 C18_2 1_555 1_555
C5_2 C6_2 1_555 1_555
C29_2 C33_2 1_555 1_555
C32_2 C33_2 1_555 1_555
O1 C1_2 1_555 1_555
O29 C1_2 1_555 1_555
O7_2 C21_2 1_555 1_555
C1_2 C28_2 1_555 1_555
C9_2 H9_2 1_555 1_555
C11_2 C9_2 1_555 1_555
H12_2 C11_2 1_555 1_555
C13_2 H13_2 1_555 1_555
H14_2 C13_2 1_555 1_555
H15_2 C13_2 1_555 1_555
C16_2 H18_2 1_555 1_555
C17_2 C16_2 1_555 1_555
H19_2 C17_2 1_555 1_555
C21_2 C11_2 1_555 1_555
C27_2 C13_2 1_555 1_555
C28_2 C9_2 1_555 1_555
C31_2 O7_2 1_555 1_555
H26_2 C31_2 1_555 1_555
H27_2 C31_2 1_555 1_555
Mn5 O1 1_555 1_555
C16_2 C28_2 1_555 1_555
C17_2 C21_2 1_555 1_555
Mn5 O4_2 1_555 1_555
Mn7 O5_2 1_555 1_555
O4_2 C23_2 1_555 1_555
O5_2 C23_2 1_555 1_555
O8_2 C24_2 1_555 1_555
O19_2 Mn5 1_555 1_555
O22_2 Mn5 1_555 1_555
O23_2 Mn7 1_555 1_555
O24_2 Mn7 1_555 1_555
O26_2 Mn5 1_555 1_555
O27_2 Mn7 1_555 1_555
N2_2 C70_2 1_555 1_555
N3_2 C73_2 1_555 1_555
C7_2 H5_2 1_555 1_555
C14_2 C7_2 1_555 1_555
H16_2 C14_2 1_555 1_555
C15_2 H17_2 1_555 1_555
C20_2 C7_2 1_555 1_555
C22_2 C15_2 1_555 1_555
H23_2 C22_2 1_555 1_555
C23_2 C20_2 1_555 1_555
C24_2 C14_2 1_555 1_555
C25_2 O8_2 1_555 1_555
H25_2 C25_2 1_555 1_555
C68_2 O19_2 1_555 1_555
H58_2 C68_2 1_555 1_555
C69_2 N1_2 1_555 1_555
H59_2 C69_2 1_555 1_555
H61_2 C69_2 1_555 1_555
C70_2 H62_2 1_555 1_555
C71_2 N2_2 1_555 1_555
H65_2 C71_2 1_555 1_555
C72_2 O20_2 1_555 1_555
H68_2 C72_2 1_555 1_555
C73_2 H69_2 1_555 1_555
H70_2 C73_2 1_555 1_555
H71_2 C73_2 1_555 1_555
C74_2 O22_2 1_555 1_555
H72_2 C74_2 1_555 1_555
C75_2 N3_2 1_555 1_555
H73_2 C75_2 1_555 1_555
H74_2 C75_2 1_555 1_555
H75_2 C75_2 1_555 1_555
C76_2 O24_2 1_555 1_555
C77_2 C76_2 1_555 1_555
H76_2 C77_2 1_555 1_555
H77_2 C77_2 1_555 1_555
H78_2 C77_2 1_555 1_555
C78_2 O26_2 1_555 1_555
C79_2 C78_2 1_555 1_555
H79_2 C79_2 1_555 1_555
H80_2 C79_2 1_555 1_555
H81_2 C79_2 1_555 1_555
Mn7 O26_2 1_555 1_555
O27_2 C78_2 1_555 1_555
N1_2 C68_2 1_555 1_555
N2_2 C72_2 1_555 1_555
N3_2 C74_2 1_555 1_555
C15_2 C20_2 1_555 1_555
C22_2 C24_2 1_555 1_555
C8_2 H6_2 1_555 1_555
H7_2 C8_2 1_555 1_555
H8_2 C8_2 1_555 1_555
C26_2 C8_2 1_555 1_555
C30_2 C26_2 1_555 1_555

#END
