
###############################################################################
#
# This file contains modified crystal structure data generated from the
# MOF subset of the Cambridge Structural Database (CSD) v543 
# hosted by the Cambridge Crystallographic Data Centre (CCDC).
#
# This work is licensed under the Creative Commons
# Attribution-NonCommercial-ShareAlike 4.0 International License.
# To view a copy of this license, visit
# http://creativecommons.org/licenses/by-nc-sa/4.0/
# or send a letter to
# Creative Commons, PO Box 1866, Mountain View, CA 94042, USA.
#
# CIF created using the CSD Python API on 29 September 2022
# The structure has been converted into the P1 space group
# The structure has a 3D framework
# The original CSD entry SERCEZ is in the orthorhombic crystal system
# The framework has been calculated to contain at least 10.0% void space
# The void calculation uses a probe of radius 1.32A, grid spacing 0.4
#
###############################################################################

data_SERCEZ
_chemical_formula_moiety         '(C168 H96 O56 Zn16)n'
_symmetry_cell_setting           triclinic
_symmetry_space_group_name_H-M   'P 1'
_symmetry_Int_Tables_number      1
_space_group_name_Hall           'P 1'
loop_
_symmetry_equiv_pos_site_id
_symmetry_equiv_pos_as_xyz
1 x,y,z
_cell_length_a                   17.1238(11)
_cell_length_b                   20.1150(13)
_cell_length_c                   27.1291(16)
_cell_angle_alpha                90
_cell_angle_beta                 90
_cell_angle_gamma                90
_cell_volume                     9344.49
loop_
_atom_site_label
_atom_site_type_symbol
_atom_site_fract_x
_atom_site_fract_y
_atom_site_fract_z
O6 O 0.5017(3) 0.2500 0.3554(2)
O7 O 0.5054(7) 0.2500 0.4365(5)
C15 C 0.4710(6) 0.2500 0.3957(4)
C16 C 0.3812(5) 0.2500 0.3985(5)
C17 C 0.3389(6) 0.2500 0.3577(5)
H9 H 0.3626 0.2500 0.3269
C18 C 0.3499(8) 0.2500 0.4419(7)
H10 H 0.3777 0.2500 0.4713
C19 C 0.2622(8) 0.2500 0.4381(7)
H11 H 0.2359 0.2500 0.4681
C20 C 0.2603(6) 0.2500 0.3621(5)
H12 H 0.2325 0.2500 0.3326
C21 C 0.2195(7) 0.2500 0.4009(5)
C22 C 0.1350(6) 0.2500 0.4010(4)
C23 C 0.0919(5) 0.1935(7) 0.3994(5)
H13 H 0.1174 0.1529 0.3967
C24 C 0.0119(4) 0.1943(5) 0.4015(4)
C27 C 0.0919(5) 0.3065(7) 0.3994(5)
H15 H 0.1174 0.3471 0.3967
C28 C 0.0119(4) 0.3057(5) 0.4015(4)
Zn7 Zn 0.61372(4) 0.2500 0.35088(3)
Zn10 Zn 0.60545(5) 0.2500 0.46735(3)
Zn1 Zn 0.73995(3) 0.17138(3) 0.40957(2)
O1 O 0.7360(3) 0.1162(3) 0.46751(17)
O2 O 0.6470(6) 0.1761(4) 0.5071(2)
C1 C 0.7021(6) 0.1350(5) 0.5058(3)
C2 C 0.7131(5) 0.0934(4) 0.5513(3)
C3 C 0.7621(6) 0.0418(6) 0.5505(4)
H1 H 0.7863 0.0290 0.5214
C4 C 0.6841(11) 0.1123(6) 0.5954(4)
H2 H 0.6510 0.1488 0.5970
C5 C 0.7024(10) 0.0788(6) 0.6379(4)
H3 H 0.6845 0.0952 0.6679
C6 C 0.7766(9) 0.0067(7) 0.5955(5)
C7 C 0.7453(5) 0.0230(5) 0.6375(3)
H5 H 0.6845 0.0227 0.7252
H14 H 0.9850 0.1542 0.4004
C25 C 0.9718(4) 0.2500 0.4052(3)
C26 C 0.8847(5) 0.2500 0.4059(3)
O8 O 0.8517(2) 0.1962(2) 0.40720(16)
O9 O 0.6766(3) 0.2500 0.40946(15)
H16 H 0.9850 0.3458 0.4004
O10 O 0.8517(2) 0.3038(2) 0.40720(16)
Zn4 Zn 0.73995(3) 0.32862(3) 0.40957(2)
O11 O 0.7360(3) 0.3838(3) 0.46751(17)
O12 O 0.6470(6) 0.3239(4) 0.5071(2)
C29 C 0.7021(6) 0.3650(5) 0.5058(3)
C30 C 0.7131(5) 0.4066(4) 0.5513(3)
C31 C 0.7621(6) 0.4582(6) 0.5505(4)
H17 H 0.7863 0.4710 0.5214
C32 C 0.6841(11) 0.3877(6) 0.5954(4)
H18 H 0.6510 0.3512 0.5970
C33 C 0.7024(10) 0.4212(6) 0.6379(4)
H19 H 0.6845 0.4048 0.6679
C34 C 0.7766(9) 0.4933(7) 0.5955(5)
C35 C 0.7453(5) 0.4770(5) 0.6375(3)
C36 C 0.7623(6) 0.5147(5) 0.6828(3)
C37 C 0.8229(11) 0.5553(6) 0.6871(4)
H20 H 0.8590 0.5571 0.6615
C38 C 0.7256(8) 0.5075(8) 0.7245(5)
H21 H 0.6845 0.4773 0.7252
C39 C 0.8347(9) 0.5951(6) 0.7283(3)
H22 H 0.8755 0.6256 0.7277
C40 C 0.7417(7) 0.5402(7) 0.7669(4)
H23 H 0.7181 0.5271 0.7962
C41 C 0.7922(4) 0.5918(4) 0.7667(3)
C42 C 0.8083(4) 0.6312(3) 0.8117(2)
O13 O 0.7684(3) 0.6202(3) 0.84992(16)
O14 O 0.8587(3) 0.6761(3) 0.80706(17)
O15 O 0.836(3) 0.558(2) 0.5883(12)
H24 H 0.8566 0.5557 0.5610
Zn6 Zn 0.76005(3) 0.67138(3) 0.90957(2)
Zn9 Zn 0.88628(4) 0.7500 0.85088(3)
O16 O 0.7316(3) 0.1202(3) 0.34992(16)
O17 O 0.7316(3) 0.3798(3) 0.34992(16)
O18 O 0.6413(3) 0.1761(3) 0.30706(17)
O19 O 0.6413(3) 0.3239(3) 0.30706(17)
C8 C 0.7623(6) 0.9853(5) 0.6828(3)
C9 C 0.8229(11) 0.9447(6) 0.6871(4)
H4 H 0.8590 0.9429 0.6615
C10 C 0.7256(8) 0.9925(8) 0.7245(5)
C11 C 0.8347(9) 0.9049(6) 0.7283(3)
H6 H 0.8755 0.8744 0.7277
C12 C 0.7417(7) 0.9598(7) 0.7669(4)
H7 H 0.7181 0.9729 0.7962
C13 C 0.7922(4) 0.9082(4) 0.7667(3)
C14 C 0.8083(4) 0.8688(3) 0.8117(2)
O3 O 0.7684(3) 0.8798(3) 0.84992(16)
O4 O 0.8587(3) 0.8239(3) 0.80706(17)
O5 O 0.836(3) 0.942(2) 0.5883(12)
H8 H 0.8566 0.9443 0.5610
Zn5 Zn 0.76005(3) 0.82862(3) 0.90957(2)
C8_2 C 0.7377(6) 0.0147(5) 0.1828(3)
C9_2 C 0.6771(11) 0.0553(6) 0.1871(4)
H4_2 H 0.6410 0.0571 0.1615
C10_2 C 0.7744(8) 0.0075(8) 0.2245(5)
C11_2 C 0.6653(9) 0.0951(6) 0.2283(3)
H6_2 H 0.6245 0.1256 0.2277
C12_2 C 0.7583(7) 0.0402(7) 0.2669(4)
H7_2 H 0.7819 0.0271 0.2962
C13_2 C 0.7078(4) 0.0918(4) 0.2667(3)
C14_2 C 0.6917(4) 0.1312(3) 0.3117(2)
O5_2 O 0.664(3) 0.058(2) 0.0883(12)
H8_2 H 0.6434 0.0557 0.0610
O2_2 O 0.8530(6) 0.8239(4) 0.0071(2)
C1_2 C 0.7979(6) 0.8650(5) 0.0058(3)
C2_2 C 0.7869(5) 0.9066(4) 0.0513(3)
C3_2 C 0.7379(6) 0.9582(6) 0.0505(4)
H1_2 H 0.7137 0.9710 0.0214
C4_2 C 0.8159(11) 0.8877(6) 0.0954(4)
H2_2 H 0.8490 0.8512 0.0970
C5_2 C 0.7976(10) 0.9212(6) 0.1379(4)
H3_2 H 0.8155 0.9048 0.1679
C6_2 C 0.7234(9) 0.9933(7) 0.0955(5)
C7_2 C 0.7547(5) 0.9770(5) 0.1375(3)
H5_2 H 0.8155 0.9773 0.2252
O12_2 O 0.8530(6) 0.6761(4) 0.0071(2)
C29_2 C 0.7979(6) 0.6350(5) 0.0058(3)
C30_2 C 0.7869(5) 0.5934(4) 0.0513(3)
C31_2 C 0.7379(6) 0.5418(6) 0.0505(4)
H17_2 H 0.7137 0.5290 0.0214
C32_2 C 0.8159(11) 0.6123(6) 0.0954(4)
H18_2 H 0.8490 0.6488 0.0970
C33_2 C 0.7976(10) 0.5788(6) 0.1379(4)
H19_2 H 0.8155 0.5952 0.1679
C34_2 C 0.7234(9) 0.5067(7) 0.0955(5)
C35_2 C 0.7547(5) 0.5230(5) 0.1375(3)
C36_2 C 0.7377(6) 0.4853(5) 0.1828(3)
C37_2 C 0.6771(11) 0.4447(6) 0.1871(4)
H20_2 H 0.6410 0.4429 0.1615
C38_2 C 0.7744(8) 0.4925(8) 0.2245(5)
H21_2 H 0.8155 0.5227 0.2252
C39_2 C 0.6653(9) 0.4049(6) 0.2283(3)
H22_2 H 0.6245 0.3744 0.2277
C40_2 C 0.7583(7) 0.4598(7) 0.2669(4)
H23_2 H 0.7819 0.4729 0.2962
C41_2 C 0.7078(4) 0.4082(4) 0.2667(3)
C42_2 C 0.6917(4) 0.3688(3) 0.3117(2)
O15_2 O 0.664(3) 0.442(2) 0.0883(12)
H24_2 H 0.6434 0.4443 0.0610
Zn3 Zn 0.89455(5) 0.7500 0.96735(3)
O1_2 O 0.7640(3) 0.8838(3) 0.96751(17)
C15_2 C 0.0290(6) 0.7500 0.8957(4)
C16_2 C 0.1188(5) 0.7500 0.8985(5)
C17_2 C 0.1611(6) 0.7500 0.8577(5)
H9_2 H 0.1374 0.7500 0.8269
C18_2 C 0.1501(8) 0.7500 0.9419(7)
H10_2 H 0.1223 0.7500 0.9713
C19_2 C 0.2378(8) 0.7500 0.9381(7)
H11_2 H 0.2641 0.7500 0.9681
C20_2 C 0.2397(6) 0.7500 0.8621(5)
H12_2 H 0.2675 0.7500 0.8326
C21_2 C 0.2805(7) 0.7500 0.9009(5)
C22_2 C 0.3650(6) 0.7500 0.9010(4)
C23_2 C 0.4081(5) 0.8065(7) 0.8994(5)
H13_2 H 0.3826 0.8471 0.8967
C24_2 C 0.4881(4) 0.8057(5) 0.9015(4)
H14_2 H 0.5150 0.8458 0.9004
C25_2 C 0.5282(4) 0.7500 0.9052(3)
C26_2 C 0.6153(5) 0.7500 0.9059(3)
O8_2 O 0.6483(2) 0.8038(2) 0.90720(16)
O9_2 O 0.8234(3) 0.7500 0.90946(15)
C27_2 C 0.4081(5) 0.6935(7) 0.8994(5)
H15_2 H 0.3826 0.6529 0.8967
C28_2 C 0.4881(4) 0.6943(5) 0.9015(4)
H16_2 H 0.5150 0.6542 0.9004
O10_2 O 0.6483(2) 0.6962(2) 0.90720(16)
O11_2 O 0.7640(3) 0.6162(3) 0.96751(17)
O20 O 0.9983(3) 0.7500 0.8554(2)
O21 O 0.9946(7) 0.7500 0.9365(5)
C36_3 C 0.2377(6) 0.0147(5) 0.3172(3)
C37_3 C 0.1771(11) 0.0553(6) 0.3129(4)
H20_3 H 0.1410 0.0571 0.3385
C38_3 C 0.2744(8) 0.0075(8) 0.2755(5)
C39_3 C 0.1653(9) 0.0951(6) 0.2717(3)
H22_3 H 0.1245 0.1256 0.2723
C40_3 C 0.2583(7) 0.0402(7) 0.2331(4)
H23_3 H 0.2819 0.0271 0.2038
C41_3 C 0.2078(4) 0.0918(4) 0.2333(3)
C42_3 C 0.1917(4) 0.1312(3) 0.1883(2)
O13_2 O 0.2316(3) 0.1202(3) 0.15008(16)
O14_2 O 0.1413(3) 0.1761(3) 0.19294(17)
O15_3 O 0.164(3) 0.058(2) 0.4117(12)
H24_3 H 0.1434 0.0557 0.4390
Zn6_2 Zn 0.23995(3) 0.17138(3) 0.09043(2)
Zn9_2 Zn 0.11372(4) 0.2500 0.14912(3)
Zn1_2 Zn 0.26005(3) 0.67138(3) 0.59043(2)
Zn2 Zn 0.38628(4) 0.7500 0.64912(3)
Zn3_2 Zn 0.39455(5) 0.7500 0.53265(3)
O1_3 O 0.2640(3) 0.6162(3) 0.53249(17)
O2_3 O 0.3530(6) 0.6761(4) 0.4929(2)
C1_3 C 0.2979(6) 0.6350(5) 0.4942(3)
C2_3 C 0.2869(5) 0.5934(4) 0.4487(3)
C3_3 C 0.2379(6) 0.5418(6) 0.4495(4)
H1_3 H 0.2137 0.5290 0.4786
C4_3 C 0.3159(11) 0.6123(6) 0.4046(4)
H2_3 H 0.3490 0.6488 0.4030
C5_3 C 0.2976(10) 0.5788(6) 0.3621(4)
H3_3 H 0.3155 0.5952 0.3321
C6_3 C 0.2234(9) 0.5067(7) 0.4045(5)
C7_3 C 0.2547(5) 0.5230(5) 0.3625(3)
C8_3 C 0.2377(6) 0.4853(5) 0.3172(3)
C9_3 C 0.1771(11) 0.4447(6) 0.3129(4)
H4_3 H 0.1410 0.4429 0.3385
C10_3 C 0.2744(8) 0.4925(8) 0.2755(5)
H5_3 H 0.3155 0.5227 0.2748
C11_3 C 0.1653(9) 0.4049(6) 0.2717(3)
H6_3 H 0.1245 0.3744 0.2723
C12_3 C 0.2583(7) 0.4598(7) 0.2331(4)
H7_3 H 0.2819 0.4729 0.2038
C13_3 C 0.2078(4) 0.4082(4) 0.2333(3)
C14_3 C 0.1917(4) 0.3688(3) 0.1883(2)
O3_2 O 0.2316(3) 0.3798(3) 0.15008(16)
O4_2 O 0.1413(3) 0.3239(3) 0.19294(17)
O5_3 O 0.164(3) 0.442(2) 0.4117(12)
H8_3 H 0.1434 0.4443 0.4390
H14_3 H 0.0150 0.6542 0.5996
C25_3 C 0.0282(4) 0.7500 0.5948(3)
C26_3 C 0.1153(5) 0.7500 0.5941(3)
O8_3 O 0.1483(2) 0.6962(2) 0.59280(16)
O9_3 O 0.3234(3) 0.7500 0.59054(15)
H16_3 H 0.0150 0.8458 0.5996
O10_3 O 0.1483(2) 0.8038(2) 0.59280(16)
Zn4_2 Zn 0.26005(3) 0.82862(3) 0.59043(2)
O11_3 O 0.2640(3) 0.8838(3) 0.53249(17)
O12_3 O 0.3530(6) 0.8239(4) 0.4929(2)
C29_3 C 0.2979(6) 0.8650(5) 0.4942(3)
C30_3 C 0.2869(5) 0.9066(4) 0.4487(3)
C31_3 C 0.2379(6) 0.9582(6) 0.4495(4)
H17_3 H 0.2137 0.9710 0.4786
C32_3 C 0.3159(11) 0.8877(6) 0.4046(4)
H18_3 H 0.3490 0.8512 0.4030
C33_3 C 0.2976(10) 0.9212(6) 0.3621(4)
H19_3 H 0.3155 0.9048 0.3321
C34_3 C 0.2234(9) 0.9933(7) 0.4045(5)
C35_3 C 0.2547(5) 0.9770(5) 0.3625(3)
H21_3 H 0.3155 0.9773 0.2748
Zn5_2 Zn 0.23995(3) 0.32862(3) 0.09043(2)
O16_2 O 0.2684(3) 0.6202(3) 0.65008(16)
O17_2 O 0.2684(3) 0.8798(3) 0.65008(16)
O18_2 O 0.3587(3) 0.6761(3) 0.69294(17)
O19_2 O 0.3587(3) 0.8239(3) 0.69294(17)
O20_2 O 0.4983(3) 0.7500 0.6446(2)
O21_2 O 0.4946(7) 0.7500 0.5635(5)
C15_3 C 0.5290(6) 0.7500 0.6043(4)
C16_3 C 0.6188(5) 0.7500 0.6015(5)
C17_3 C 0.6611(6) 0.7500 0.6423(5)
H9_3 H 0.6374 0.7500 0.6731
C18_3 C 0.6501(8) 0.7500 0.5581(7)
H10_3 H 0.6223 0.7500 0.5287
C19_3 C 0.7378(8) 0.7500 0.5619(7)
H11_3 H 0.7641 0.7500 0.5319
C20_3 C 0.7397(6) 0.7500 0.6379(5)
H12_3 H 0.7675 0.7500 0.6674
C21_3 C 0.7805(7) 0.7500 0.5991(5)
C22_3 C 0.8650(6) 0.7500 0.5990(4)
C23_3 C 0.9081(5) 0.6935(7) 0.6006(5)
H13_3 H 0.8826 0.6529 0.6033
C24_3 C 0.9881(4) 0.6943(5) 0.5985(4)
C27_3 C 0.9081(5) 0.8065(7) 0.6006(5)
H15_3 H 0.8826 0.8471 0.6033
C28_3 C 0.9881(4) 0.8057(5) 0.5985(4)
O6_2 O 0.0017(3) 0.2500 0.1446(2)
O7_2 O 0.0054(7) 0.2500 0.0635(5)
Zn10_2 Zn 0.10545(5) 0.2500 0.03265(3)
O1_4 O 0.2360(3) 0.3838(3) 0.03249(17)
C15_4 C 0.9710(6) 0.2500 0.1043(4)
C16_4 C 0.8812(5) 0.2500 0.1015(5)
C17_4 C 0.8389(6) 0.2500 0.1423(5)
H9_4 H 0.8626 0.2500 0.1731
C18_4 C 0.8499(8) 0.2500 0.0581(7)
H10_4 H 0.8777 0.2500 0.0287
C19_4 C 0.7622(8) 0.2500 0.0619(7)
H11_4 H 0.7359 0.2500 0.0319
C20_4 C 0.7603(6) 0.2500 0.1379(5)
H12_4 H 0.7325 0.2500 0.1674
C21_4 C 0.7195(7) 0.2500 0.0991(5)
C22_4 C 0.6350(6) 0.2500 0.0990(4)
C23_4 C 0.5919(5) 0.3065(7) 0.1006(5)
H13_4 H 0.6174 0.3471 0.1033
C24_4 C 0.5119(4) 0.3057(5) 0.0985(4)
H14_4 H 0.4850 0.3458 0.0996
C25_4 C 0.4718(4) 0.2500 0.0948(3)
C26_4 C 0.3847(5) 0.2500 0.0941(3)
O8_4 O 0.3517(2) 0.3038(2) 0.09280(16)
O9_4 O 0.1766(3) 0.2500 0.09054(15)
C27_4 C 0.5919(5) 0.1935(7) 0.1006(5)
H15_4 H 0.6174 0.1529 0.1033
C28_4 C 0.5119(4) 0.1943(5) 0.0985(4)
H16_4 H 0.4850 0.1542 0.0996
O10_4 O 0.3517(2) 0.1962(2) 0.09280(16)
O11_4 O 0.2360(3) 0.1162(3) 0.03249(17)
O2_4 O 0.1470(6) 0.3239(4) 0.9929(2)
C1_4 C 0.2021(6) 0.3650(5) 0.9942(3)
C2_4 C 0.2131(5) 0.4066(4) 0.9487(3)
C3_4 C 0.2621(6) 0.4582(6) 0.9495(4)
H1_4 H 0.2863 0.4710 0.9786
C4_4 C 0.1841(11) 0.3877(6) 0.9046(4)
H2_4 H 0.1510 0.3512 0.9030
C5_4 C 0.2024(10) 0.4212(6) 0.8621(4)
H3_4 H 0.1845 0.4048 0.8321
C6_4 C 0.2766(9) 0.4933(7) 0.9045(5)
C7_4 C 0.2453(5) 0.4770(5) 0.8625(3)
C8_4 C 0.2623(6) 0.5147(5) 0.8172(3)
C9_4 C 0.3229(11) 0.5553(6) 0.8129(4)
H4_4 H 0.3590 0.5571 0.8385
C10_4 C 0.2256(8) 0.5075(8) 0.7755(5)
H5_4 H 0.1845 0.4773 0.7748
C11_4 C 0.3347(9) 0.5951(6) 0.7717(3)
H6_4 H 0.3755 0.6256 0.7723
C12_4 C 0.2417(7) 0.5402(7) 0.7331(4)
H7_4 H 0.2181 0.5271 0.7038
C13_4 C 0.2922(4) 0.5918(4) 0.7333(3)
C14_4 C 0.3083(4) 0.6312(3) 0.6883(2)
O5_4 O 0.336(3) 0.558(2) 0.9117(12)
H8_4 H 0.3566 0.5557 0.9390
O12_4 O 0.1470(6) 0.1761(4) 0.9929(2)
C29_4 C 0.2021(6) 0.1350(5) 0.9942(3)
C30_4 C 0.2131(5) 0.0934(4) 0.9487(3)
C31_4 C 0.2621(6) 0.0418(6) 0.9495(4)
H17_4 H 0.2863 0.0290 0.9786
C32_4 C 0.1841(11) 0.1123(6) 0.9046(4)
H18_4 H 0.1510 0.1488 0.9030
C33_4 C 0.2024(10) 0.0788(6) 0.8621(4)
H19_4 H 0.1845 0.0952 0.8321
C34_4 C 0.2766(9) 0.0067(7) 0.9045(5)
C35_4 C 0.2453(5) 0.0230(5) 0.8625(3)
H21_4 H 0.1845 0.0227 0.7748
C36_4 C 0.2623(6) 0.9853(5) 0.8172(3)
C37_4 C 0.3229(11) 0.9447(6) 0.8129(4)
H20_4 H 0.3590 0.9429 0.8385
C38_4 C 0.2256(8) 0.9925(8) 0.7755(5)
C39_4 C 0.3347(9) 0.9049(6) 0.7717(3)
H22_4 H 0.3755 0.8744 0.7723
C40_4 C 0.2417(7) 0.9598(7) 0.7331(4)
H23_4 H 0.2181 0.9729 0.7038
C41_4 C 0.2922(4) 0.9082(4) 0.7333(3)
C42_4 C 0.3083(4) 0.8688(3) 0.6883(2)
O15_4 O 0.336(3) 0.942(2) 0.9117(12)
H24_4 H 0.3566 0.9443 0.9390
loop_
_geom_bond_atom_site_label_1
_geom_bond_atom_site_label_2
_geom_bond_site_symmetry_1
_geom_bond_site_symmetry_2
O6 C15 1_555 1_555
O7 C15 1_555 1_555
C15 C16 1_555 1_555
C16 C17 1_555 1_555
C17 H9 1_555 1_555
C18 C16 1_555 1_555
H10 C18 1_555 1_555
C19 C18 1_555 1_555
H11 C19 1_555 1_555
C20 C17 1_555 1_555
H12 C20 1_555 1_555
C21 C19 1_555 1_555
C22 C21 1_555 1_555
C23 C22 1_555 1_555
H13 C23 1_555 1_555
C24 C23 1_555 1_555
C27 C22 1_555 1_555
H15 C27 1_555 1_555
Zn7 O6 1_555 1_555
Zn10 O7 1_555 1_555
C20 C21 1_555 1_555
C27 C28 1_555 1_555
Zn1 O1 1_555 1_555
Zn7 O9 1_555 1_555
Zn10 O2 1_555 1_555
O1 C1 1_555 1_555
O2 C1 1_555 1_555
C1 C2 1_555 1_555
C2 C3 1_555 1_555
C3 H1 1_555 1_555
C4 C2 1_555 1_555
H2 C4 1_555 1_555
C5 C4 1_555 1_555
H3 C5 1_555 1_555
C6 C3 1_555 1_555
C7 C5 1_555 1_555
C26 C25 1_555 1_555
O8 Zn1 1_555 1_555
O9 Zn1 1_555 1_555
O10 C26 1_555 1_555
Zn4 O9 1_555 1_555
O11 Zn4 1_555 1_555
O12 Zn10 1_555 1_555
C29 O11 1_555 1_555
C30 C29 1_555 1_555
C31 C30 1_555 1_555
H17 C31 1_555 1_555
C32 C30 1_555 1_555
H18 C32 1_555 1_555
C33 C32 1_555 1_555
H19 C33 1_555 1_555
C34 C31 1_555 1_555
C35 C33 1_555 1_555
C36 C35 1_555 1_555
C37 C36 1_555 1_555
H20 C37 1_555 1_555
C38 C36 1_555 1_555
H21 C38 1_555 1_555
C39 C37 1_555 1_555
H22 C39 1_555 1_555
C40 C38 1_555 1_555
H23 C40 1_555 1_555
C41 C39 1_555 1_555
C42 C41 1_555 1_555
O13 C42 1_555 1_555
O14 C42 1_555 1_555
O15 C34 1_555 1_555
H24 O15 1_555 1_555
Zn6 O13 1_555 1_555
Zn9 O14 1_555 1_555
O16 Zn1 1_555 1_555
O17 Zn4 1_555 1_555
O18 Zn7 1_555 1_555
O19 Zn7 1_555 1_555
Zn10 O9 1_555 1_555
C6 C7 1_555 1_555
C26 O8 1_555 1_555
O10 Zn4 1_555 1_555
O12 C29 1_555 1_555
C34 C35 1_555 1_555
C40 C41 1_555 1_555
C9 C8 1_555 1_555
H4 C9 1_555 1_555
C10 C8 1_555 1_555
C11 C9 1_555 1_555
H6 C11 1_555 1_555
C12 C10 1_555 1_555
H7 C12 1_555 1_555
C13 C11 1_555 1_555
C14 C13 1_555 1_555
O3 C14 1_555 1_555
O4 C14 1_555 1_555
H8 O5 1_555 1_555
Zn5 O3 1_555 1_555
Zn9 O4 1_555 1_555
C12 C13 1_555 1_555
C9_2 C8_2 1_555 1_555
H4_2 C9_2 1_555 1_555
C10_2 C8_2 1_555 1_555
C11_2 C9_2 1_555 1_555
H6_2 C11_2 1_555 1_555
C12_2 C10_2 1_555 1_555
H7_2 C12_2 1_555 1_555
C13_2 C11_2 1_555 1_555
C14_2 C13_2 1_555 1_555
O16 C14_2 1_555 1_555
O18 C14_2 1_555 1_555
H8_2 O5_2 1_555 1_555
C12_2 C13_2 1_555 1_555
O2_2 C1_2 1_555 1_555
C1_2 C2_2 1_555 1_555
C2_2 C3_2 1_555 1_555
C3_2 H1_2 1_555 1_555
C4_2 C2_2 1_555 1_555
H2_2 C4_2 1_555 1_555
C5_2 C4_2 1_555 1_555
H3_2 C5_2 1_555 1_555
C6_2 C3_2 1_555 1_555
C7_2 C5_2 1_555 1_555
C30_2 C29_2 1_555 1_555
C31_2 C30_2 1_555 1_555
H17_2 C31_2 1_555 1_555
C32_2 C30_2 1_555 1_555
H18_2 C32_2 1_555 1_555
C33_2 C32_2 1_555 1_555
H19_2 C33_2 1_555 1_555
C34_2 C31_2 1_555 1_555
C35_2 C33_2 1_555 1_555
C36_2 C35_2 1_555 1_555
C37_2 C36_2 1_555 1_555
H20_2 C37_2 1_555 1_555
C38_2 C36_2 1_555 1_555
H21_2 C38_2 1_555 1_555
C39_2 C37_2 1_555 1_555
H22_2 C39_2 1_555 1_555
C40_2 C38_2 1_555 1_555
H23_2 C40_2 1_555 1_555
C41_2 C39_2 1_555 1_555
C42_2 C41_2 1_555 1_555
O17 C42_2 1_555 1_555
O19 C42_2 1_555 1_555
O15_2 C34_2 1_555 1_555
H24_2 O15_2 1_555 1_555
C6_2 C7_2 1_555 1_555
O12_2 C29_2 1_555 1_555
C34_2 C35_2 1_555 1_555
C40_2 C41_2 1_555 1_555
Zn5 O1_2 1_555 1_555
Zn9 O9_2 1_555 1_555
C15_2 C16_2 1_555 1_555
C16_2 C17_2 1_555 1_555
C17_2 H9_2 1_555 1_555
C18_2 C16_2 1_555 1_555
H10_2 C18_2 1_555 1_555
C19_2 C18_2 1_555 1_555
H11_2 C19_2 1_555 1_555
C20_2 C17_2 1_555 1_555
H12_2 C20_2 1_555 1_555
C21_2 C19_2 1_555 1_555
C22_2 C21_2 1_555 1_555
C23_2 C22_2 1_555 1_555
H13_2 C23_2 1_555 1_555
C24_2 C23_2 1_555 1_555
H14_2 C24_2 1_555 1_555
C25_2 C24_2 1_555 1_555
C26_2 C25_2 1_555 1_555
O8_2 Zn5 1_555 1_555
O9_2 Zn5 1_555 1_555
C27_2 C22_2 1_555 1_555
H15_2 C27_2 1_555 1_555
C28_2 C25_2 1_555 1_555
H16_2 C28_2 1_555 1_555
O10_2 C26_2 1_555 1_555
Zn6 O9_2 1_555 1_555
O11_2 Zn6 1_555 1_555
O20 Zn9 1_555 1_555
O21 Zn3 1_555 1_555
Zn3 O9_2 1_555 1_555
C20_2 C21_2 1_555 1_555
C26_2 O8_2 1_555 1_555
C27_2 C28_2 1_555 1_555
O10_2 Zn6 1_555 1_555
C37_3 C36_3 1_555 1_555
H20_3 C37_3 1_555 1_555
C38_3 C36_3 1_555 1_555
C39_3 C37_3 1_555 1_555
H22_3 C39_3 1_555 1_555
C40_3 C38_3 1_555 1_555
H23_3 C40_3 1_555 1_555
C41_3 C39_3 1_555 1_555
C42_3 C41_3 1_555 1_555
O13_2 C42_3 1_555 1_555
O14_2 C42_3 1_555 1_555
H24_3 O15_3 1_555 1_555
Zn6_2 O13_2 1_555 1_555
Zn9_2 O14_2 1_555 1_555
C40_3 C41_3 1_555 1_555
Zn1_2 O1_3 1_555 1_555
Zn2 O9_3 1_555 1_555
Zn3_2 O2_3 1_555 1_555
O1_3 C1_3 1_555 1_555
O2_3 C1_3 1_555 1_555
C1_3 C2_3 1_555 1_555
C2_3 C3_3 1_555 1_555
C3_3 H1_3 1_555 1_555
C4_3 C2_3 1_555 1_555
H2_3 C4_3 1_555 1_555
C5_3 C4_3 1_555 1_555
H3_3 C5_3 1_555 1_555
C6_3 C3_3 1_555 1_555
C7_3 C5_3 1_555 1_555
C8_3 C7_3 1_555 1_555
C9_3 C8_3 1_555 1_555
H4_3 C9_3 1_555 1_555
C10_3 C8_3 1_555 1_555
H5_3 C10_3 1_555 1_555
C11_3 C9_3 1_555 1_555
H6_3 C11_3 1_555 1_555
C12_3 C10_3 1_555 1_555
H7_3 C12_3 1_555 1_555
C13_3 C11_3 1_555 1_555
C14_3 C13_3 1_555 1_555
O3_2 C14_3 1_555 1_555
O4_2 C14_3 1_555 1_555
O5_3 C6_3 1_555 1_555
H8_3 O5_3 1_555 1_555
C26_3 C25_3 1_555 1_555
O8_3 Zn1_2 1_555 1_555
O9_3 Zn1_2 1_555 1_555
O10_3 C26_3 1_555 1_555
Zn4_2 O9_3 1_555 1_555
O11_3 Zn4_2 1_555 1_555
O12_3 Zn3_2 1_555 1_555
C29_3 O11_3 1_555 1_555
C30_3 C29_3 1_555 1_555
C31_3 C30_3 1_555 1_555
H17_3 C31_3 1_555 1_555
C32_3 C30_3 1_555 1_555
H18_3 C32_3 1_555 1_555
C33_3 C32_3 1_555 1_555
H19_3 C33_3 1_555 1_555
C34_3 C31_3 1_555 1_555
C35_3 C33_3 1_555 1_555
Zn5_2 O3_2 1_555 1_555
Zn9_2 O4_2 1_555 1_555
O16_2 Zn1_2 1_555 1_555
O17_2 Zn4_2 1_555 1_555
O18_2 Zn2 1_555 1_555
O19_2 Zn2 1_555 1_555
O20_2 Zn2 1_555 1_555
O21_2 Zn3_2 1_555 1_555
Zn3_2 O9_3 1_555 1_555
C6_3 C7_3 1_555 1_555
C12_3 C13_3 1_555 1_555
C26_3 O8_3 1_555 1_555
O10_3 Zn4_2 1_555 1_555
O12_3 C29_3 1_555 1_555
C34_3 C35_3 1_555 1_555
O20_2 C15_3 1_555 1_555
O21_2 C15_3 1_555 1_555
C15_3 C16_3 1_555 1_555
C16_3 C17_3 1_555 1_555
C17_3 H9_3 1_555 1_555
C18_3 C16_3 1_555 1_555
H10_3 C18_3 1_555 1_555
C19_3 C18_3 1_555 1_555
H11_3 C19_3 1_555 1_555
C20_3 C17_3 1_555 1_555
H12_3 C20_3 1_555 1_555
C21_3 C19_3 1_555 1_555
C22_3 C21_3 1_555 1_555
C23_3 C22_3 1_555 1_555
H13_3 C23_3 1_555 1_555
C24_3 C23_3 1_555 1_555
C27_3 C22_3 1_555 1_555
H15_3 C27_3 1_555 1_555
C20_3 C21_3 1_555 1_555
C27_3 C28_3 1_555 1_555
Zn9_2 O6_2 1_555 1_555
Zn10_2 O7_2 1_555 1_555
Zn5_2 O1_4 1_555 1_555
Zn9_2 O9_4 1_555 1_555
C15_4 C16_4 1_555 1_555
C16_4 C17_4 1_555 1_555
C17_4 H9_4 1_555 1_555
C18_4 C16_4 1_555 1_555
H10_4 C18_4 1_555 1_555
C19_4 C18_4 1_555 1_555
H11_4 C19_4 1_555 1_555
C20_4 C17_4 1_555 1_555
H12_4 C20_4 1_555 1_555
C21_4 C19_4 1_555 1_555
C22_4 C21_4 1_555 1_555
C23_4 C22_4 1_555 1_555
H13_4 C23_4 1_555 1_555
C24_4 C23_4 1_555 1_555
H14_4 C24_4 1_555 1_555
C25_4 C24_4 1_555 1_555
C26_4 C25_4 1_555 1_555
O8_4 Zn5_2 1_555 1_555
O9_4 Zn5_2 1_555 1_555
C27_4 C22_4 1_555 1_555
H15_4 C27_4 1_555 1_555
C28_4 C25_4 1_555 1_555
H16_4 C28_4 1_555 1_555
O10_4 C26_4 1_555 1_555
Zn6_2 O9_4 1_555 1_555
O11_4 Zn6_2 1_555 1_555
Zn10_2 O9_4 1_555 1_555
C20_4 C21_4 1_555 1_555
C26_4 O8_4 1_555 1_555
C27_4 C28_4 1_555 1_555
O10_4 Zn6_2 1_555 1_555
O2_4 C1_4 1_555 1_555
C1_4 C2_4 1_555 1_555
C2_4 C3_4 1_555 1_555
C3_4 H1_4 1_555 1_555
C4_4 C2_4 1_555 1_555
H2_4 C4_4 1_555 1_555
C5_4 C4_4 1_555 1_555
H3_4 C5_4 1_555 1_555
C6_4 C3_4 1_555 1_555
C7_4 C5_4 1_555 1_555
C8_4 C7_4 1_555 1_555
C9_4 C8_4 1_555 1_555
H4_4 C9_4 1_555 1_555
C10_4 C8_4 1_555 1_555
H5_4 C10_4 1_555 1_555
C11_4 C9_4 1_555 1_555
H6_4 C11_4 1_555 1_555
C12_4 C10_4 1_555 1_555
H7_4 C12_4 1_555 1_555
C13_4 C11_4 1_555 1_555
C14_4 C13_4 1_555 1_555
O16_2 C14_4 1_555 1_555
O18_2 C14_4 1_555 1_555
O5_4 C6_4 1_555 1_555
H8_4 O5_4 1_555 1_555
C30_4 C29_4 1_555 1_555
C31_4 C30_4 1_555 1_555
H17_4 C31_4 1_555 1_555
C32_4 C30_4 1_555 1_555
H18_4 C32_4 1_555 1_555
C33_4 C32_4 1_555 1_555
H19_4 C33_4 1_555 1_555
C34_4 C31_4 1_555 1_555
C35_4 C33_4 1_555 1_555
C6_4 C7_4 1_555 1_555
C12_4 C13_4 1_555 1_555
O12_4 C29_4 1_555 1_555
C34_4 C35_4 1_555 1_555
C37_4 C36_4 1_555 1_555
H20_4 C37_4 1_555 1_555
C38_4 C36_4 1_555 1_555
C39_4 C37_4 1_555 1_555
H22_4 C39_4 1_555 1_555
C40_4 C38_4 1_555 1_555
H23_4 C40_4 1_555 1_555
C41_4 C39_4 1_555 1_555
C42_4 C41_4 1_555 1_555
O17_2 C42_4 1_555 1_555
O19_2 C42_4 1_555 1_555
H24_4 O15_4 1_555 1_555
C40_4 C41_4 1_555 1_555

#END
