
###############################################################################
#
# This file contains modified crystal structure data generated from the
# MOF subset of the Cambridge Structural Database (CSD) v543 
# hosted by the Cambridge Crystallographic Data Centre (CCDC).
#
# This work is licensed under the Creative Commons
# Attribution-NonCommercial-ShareAlike 4.0 International License.
# To view a copy of this license, visit
# http://creativecommons.org/licenses/by-nc-sa/4.0/
# or send a letter to
# Creative Commons, PO Box 1866, Mountain View, CA 94042, USA.
#
# CIF created using the CSD Python API on 29 September 2022
# The structure has been converted into the P1 space group
# The structure has a 3D framework
# The original CSD entry SERKAC is in the hexagonal crystal system
# The framework has been calculated to contain at least 10.0% void space
# The void calculation uses a probe of radius 1.32A, grid spacing 0.4
#
###############################################################################

data_SERKAC
_chemical_formula_moiety         '(C46 H22 Er4 N10 O22)n'
_symmetry_cell_setting           triclinic
_symmetry_space_group_name_H-M   'P 1'
_symmetry_Int_Tables_number      1
_space_group_name_Hall           'P 1'
loop_
_symmetry_equiv_pos_site_id
_symmetry_equiv_pos_as_xyz
1 x,y,z
_cell_length_a                   16.224(5)
_cell_length_b                   16.224(5)
_cell_length_c                   7.412(2)
_cell_angle_alpha                90
_cell_angle_beta                 90
_cell_angle_gamma                120
_cell_volume                     1689.59
loop_
_atom_site_label
_atom_site_type_symbol
_atom_site_fract_x
_atom_site_fract_y
_atom_site_fract_z
_atom_site_U_iso_or_equiv
_atom_site_thermal_displace_type
Er7 Er 0.6667 0.3333 0.370(3) 0.0178 Uani
O7 O 0.7025(6) 0.2560(6) 0.0947(18) 0.0160 Uiso
N3 N 0.6471(10) -0.0000 0.396(2) 0.0450 Uiso
C9 C 0.6680(8) 0.0821(8) 0.3150(9) 0.0090 Uiso
H7 H 0.7075 0.1404 0.3758 0.0110 Uiso
C14 C 0.6338(6) 0.0844(7) 0.1460(9) 0.0140 Uiso
C16 C 0.5762(11) 0.0000 0.056(2) 0.0130 Uiso
C21 C 0.6561(10) 0.1737(11) 0.0574(18) 0.0220 Uiso
Er8 Er 0.6667 0.3333 0.870(3) 0.0178 Uani
O20 O 0.6257(9) 0.1742(9) 0.9095(18) 0.0360 Uiso
H9 H 0.5557 -0.0000 0.9364 0.0160 Uiso
O1 O 0.2560(6) 0.7025(6) 0.0947(18) 0.0160 Uiso
N1 N 0.0000 0.6471(10) 0.396(2) 0.0450 Uiso
C1 C 0.0821(8) 0.6680(8) 0.3150(9) 0.0090 Uiso
H1 H 0.1404 0.7075 0.3758 0.0110 Uiso
C2 C 0.0844(7) 0.6338(6) 0.1460(9) 0.0140 Uiso
C3 C 0.0000 0.5762(11) 0.056(2) 0.0130 Uiso
C4 C 0.1737(11) 0.6561(10) 0.0574(18) 0.0220 Uiso
Er3 Er 0.3334 0.6667 0.370(3) 0.0178 Uani
O4 O 0.2975(6) 0.5535(8) 0.0947(18) 0.0160 Uiso
O5 O 0.5535(8) 0.2975(6) 0.0947(18) 0.0160 Uiso
O6 O 0.4465(8) 0.7440(6) 0.0947(18) 0.0160 Uiso
N2 N 0.3529(10) 0.3529(10) 0.396(2) 0.0450 Uiso
N3_2 N 0.6471(10) 1.0000 0.396(2) 0.0450 Uiso
C6 C 0.3320(8) 0.4141(11) 0.3150(9) 0.0090 Uiso
C7 C 0.4141(11) 0.3320(8) 0.3150(9) 0.0090 Uiso
C8 C 0.5859(11) 0.9179(8) 0.3150(9) 0.0090 Uiso
H4 H 0.2925 0.4329 0.3758 0.0110 Uiso
H5 H 0.4329 0.2925 0.3758 0.0110 Uiso
H6 H 0.5671 0.8596 0.3758 0.0110 Uiso
C11 C 0.3662(6) 0.4506(9) 0.1460(9) 0.0140 Uiso
C12 C 0.4506(9) 0.3662(6) 0.1460(9) 0.0140 Uiso
C13 C 0.5494(9) 0.9156(7) 0.1460(9) 0.0140 Uiso
C15 C 0.4238(11) 0.4238(11) 0.056(2) 0.0130 Uiso
C16_2 C 0.5762(11) 1.0000 0.056(2) 0.0130 Uiso
C18 C 0.3439(10) 0.5176(15) 0.0574(18) 0.0220 Uiso
C19 C 0.5176(15) 0.3439(10) 0.0574(18) 0.0220 Uiso
C20 C 0.4824(15) 0.8263(11) 0.0574(18) 0.0220 Uiso
Er1 Er 0.3333 0.6667 0.870(3) 0.0178 Uani
O2 O 0.1742(9) 0.6257(9) 0.9095(18) 0.0360 Uiso
H2 H 0.0000 0.5557 0.9364 0.0160 Uiso
O8 O 0.4465(8) 0.7025(6) 0.5947(18) 0.0160 Uiso
O9 O 0.2560(6) 0.5535(8) 0.5947(18) 0.0160 Uiso
O10 O 0.2975(6) 0.7440(6) 0.5947(18) 0.0160 Uiso
O17 O 0.3743(9) 0.5485(13) 0.9095(18) 0.0360 Uiso
O18 O 0.5485(13) 0.3743(9) 0.9095(18) 0.0360 Uiso
O19 O 0.4515(13) 0.8258(9) 0.9095(18) 0.0360 Uiso
H8 H 0.4443 0.4443 0.9364 0.0160 Uiso
H9_2 H 0.5557 1.0000 0.9364 0.0160 Uiso
N1_2 N 1.0000 0.6471(10) 0.396(2) 0.0450 Uiso
C3_2 C 1.0000 0.5762(11) 0.056(2) 0.0130 Uiso
O3 O 0.7440(6) 0.4465(8) 0.0947(18) 0.0160 Uiso
C5 C 0.9179(8) 0.5859(11) 0.3150(9) 0.0090 Uiso
H3 H 0.8596 0.5671 0.3758 0.0110 Uiso
C10 C 0.9156(7) 0.5494(9) 0.1460(9) 0.0140 Uiso
C17 C 0.8263(11) 0.4824(15) 0.0574(18) 0.0220 Uiso
H2_2 H 1.0000 0.5557 0.9364 0.0160 Uiso
O11 O 0.7440(6) 0.2975(6) 0.5947(18) 0.0160 Uiso
O12 O 0.5535(8) 0.2560(6) 0.5947(18) 0.0160 Uiso
O13 O 0.7025(6) 0.4465(8) 0.5947(18) 0.0160 Uiso
O16 O 0.8258(9) 0.4515(13) 0.9095(18) 0.0360 Uiso
N1_3 N -0.0000 0.3529(10) 0.896(2) 0.0450 Uiso
C3_3 C -0.0000 0.4238(11) 0.556(2) 0.0130 Uiso
H2_3 H -0.0000 0.4443 0.4364 0.0160 Uiso
O16_2 O 0.1742(9) 0.5485(13) 0.4095(18) 0.0360 Uiso
O21 O 0.3743(9) 0.8258(9) 0.4095(18) 0.0360 Uiso
O22 O 0.4515(13) 0.6257(9) 0.4095(18) 0.0360 Uiso
C5_2 C 0.0821(8) 0.4141(11) 0.8150(9) 0.0090 Uiso
H3_2 H 0.1404 0.4329 0.8758 0.0110 Uiso
C10_2 C 0.0844(7) 0.4506(9) 0.6460(9) 0.0140 Uiso
C17_2 C 0.1737(11) 0.5176(15) 0.5574(18) 0.0220 Uiso
O2_2 O 0.8258(9) 0.3743(9) 0.4095(18) 0.0360 Uiso
N1_4 N 1.0000 0.3529(10) 0.896(2) 0.0450 Uiso
C1_2 C 0.9179(8) 0.3320(8) 0.8150(9) 0.0090 Uiso
H1_2 H 0.8596 0.2925 0.8758 0.0110 Uiso
C2_2 C 0.9156(7) 0.3662(6) 0.6460(9) 0.0140 Uiso
C3_4 C 1.0000 0.4238(11) 0.556(2) 0.0130 Uiso
H2_4 H 1.0000 0.4443 0.4364 0.0160 Uiso
C4_2 C 0.8263(11) 0.3439(10) 0.5574(18) 0.0220 Uiso
O17_2 O 0.6257(9) 0.4515(13) 0.4095(18) 0.0360 Uiso
O19_2 O 0.5485(13) 0.1742(9) 0.4095(18) 0.0360 Uiso
N2_2 N 0.6471(10) 0.6471(10) 0.896(2) 0.0450 Uiso
N3_3 N 0.3529(10) 0.0000 0.896(2) 0.0450 Uiso
C6_2 C 0.6680(8) 0.5859(11) 0.8150(9) 0.0090 Uiso
C7_2 C 0.5859(11) 0.6680(8) 0.8150(9) 0.0090 Uiso
C8_2 C 0.4141(11) 0.0821(8) 0.8150(9) 0.0090 Uiso
H4_2 H 0.7075 0.5671 0.8758 0.0110 Uiso
H5_2 H 0.5671 0.7075 0.8758 0.0110 Uiso
H6_2 H 0.4329 0.1404 0.8758 0.0110 Uiso
C11_2 C 0.6338(6) 0.5494(9) 0.6460(9) 0.0140 Uiso
C12_2 C 0.5494(9) 0.6338(6) 0.6460(9) 0.0140 Uiso
C13_2 C 0.4506(9) 0.0844(7) 0.6460(9) 0.0140 Uiso
C15_2 C 0.5762(11) 0.5762(11) 0.556(2) 0.0130 Uiso
C16_3 C 0.4238(11) -0.0000 0.556(2) 0.0130 Uiso
H8_2 H 0.5557 0.5557 0.4364 0.0160 Uiso
H9_3 H 0.4443 0.0000 0.4364 0.0160 Uiso
C18_2 C 0.6561(10) 0.4824(15) 0.5574(18) 0.0220 Uiso
C19_2 C 0.4824(15) 0.6561(10) 0.5574(18) 0.0220 Uiso
C20_2 C 0.5176(15) 0.1737(11) 0.5574(18) 0.0220 Uiso
N3_4 N 0.3529(10) 1.0000 0.896(2) 0.0450 Uiso
C9_2 C 0.3320(8) 0.9179(8) 0.8150(9) 0.0090 Uiso
H7_2 H 0.2925 0.8596 0.8758 0.0110 Uiso
C14_2 C 0.3662(6) 0.9156(7) 0.6460(9) 0.0140 Uiso
C16_4 C 0.4238(11) 1.0000 0.556(2) 0.0130 Uiso
H9_4 H 0.4443 1.0000 0.4364 0.0160 Uiso
C21_2 C 0.3439(10) 0.8263(11) 0.5574(18) 0.0220 Uiso
loop_
_atom_site_aniso_label
_atom_site_aniso_U_11
_atom_site_aniso_U_22
_atom_site_aniso_U_33
_atom_site_aniso_U_23
_atom_site_aniso_U_13
_atom_site_aniso_U_12
Er7 0.0218 0.0218 0.0098 0 0 0.01092
Er8 0.0218 0.0218 0.0098 0 0 0.01092
Er3 0.02176 0.0218 0.0098 0 0 0.01088
Er1 0.0218 0.0218 0.0098 0 0 0.01092
loop_
_geom_bond_atom_site_label_1
_geom_bond_atom_site_label_2
_geom_bond_site_symmetry_1
_geom_bond_site_symmetry_2
Er7 O7 1_555 1_555
O7 C21 1_555 1_555
C9 N3 1_555 1_555
H7 C9 1_555 1_555
C14 C9 1_555 1_555
C14 C16 1_555 1_555
C14 C21 1_555 1_555
O20 Er8 1_555 1_555
O1 C4 1_555 1_555
N1 C1 1_555 1_555
C1 H1 1_555 1_555
C2 C1 1_555 1_555
C3 C2 1_555 1_555
Er3 O1 1_555 1_555
Er7 O5 1_555 1_555
O5 C19 1_555 1_555
N2 C6 1_555 1_555
N3_2 C8 1_555 1_555
C6 H4 1_555 1_555
C7 N2 1_555 1_555
C8 H6 1_555 1_555
H5 C7 1_555 1_555
C11 C6 1_555 1_555
C12 C7 1_555 1_555
C13 C8 1_555 1_555
C15 C11 1_555 1_555
C16_2 C13 1_555 1_555
C18 O4 1_555 1_555
C20 O6 1_555 1_555
C2 C4 1_555 1_555
Er3 O4 1_555 1_555
Er3 O6 1_555 1_555
C11 C18 1_555 1_555
C12 C15 1_555 1_555
C12 C19 1_555 1_555
C13 C20 1_555 1_555
O2 Er1 1_555 1_555
O8 Er1 1_555 1_555
O9 Er1 1_555 1_555
O10 Er1 1_555 1_555
O17 Er1 1_555 1_555
O18 Er8 1_555 1_555
O19 Er1 1_555 1_555
Er7 O3 1_555 1_555
O3 C17 1_555 1_555
C5 N1_2 1_555 1_555
H3 C5 1_555 1_555
C10 C3_2 1_555 1_555
C5 C10 1_555 1_555
C10 C17 1_555 1_555
O11 Er8 1_555 1_555
O12 Er8 1_555 1_555
O13 Er8 1_555 1_555
O16 Er8 1_555 1_555
H2_3 C3_3 1_555 1_555
Er3 O9 1_555 1_555
O9 C17_2 1_555 1_555
O10 Er3 1_555 1_555
O8 Er3 1_555 1_555
O16_2 Er3 1_555 1_555
O21 Er3 1_555 1_555
O22 Er3 1_555 1_555
C5_2 N1_3 1_555 1_555
H3_2 C5_2 1_555 1_555
C10_2 C3_3 1_555 1_555
C17_2 O16_2 1_555 1_555
C5_2 C10_2 1_555 1_555
C10_2 C17_2 1_555 1_555
Er7 O11 1_555 1_555
O11 C4_2 1_555 1_555
O2_2 Er7 1_555 1_555
N1_4 C1_2 1_555 1_555
C1_2 H1_2 1_555 1_555
C2_2 C1_2 1_555 1_555
C3_4 C2_2 1_555 1_555
H2_4 C3_4 1_555 1_555
C4_2 O2_2 1_555 1_555
O13 Er7 1_555 1_555
O8 C19_2 1_555 1_555
O12 Er7 1_555 1_555
O17_2 Er7 1_555 1_555
O19_2 Er7 1_555 1_555
N2_2 C6_2 1_555 1_555
N3_3 C8_2 1_555 1_555
C6_2 H4_2 1_555 1_555
C7_2 N2_2 1_555 1_555
C8_2 H6_2 1_555 1_555
H5_2 C7_2 1_555 1_555
C11_2 C6_2 1_555 1_555
C12_2 C7_2 1_555 1_555
C13_2 C8_2 1_555 1_555
C15_2 C11_2 1_555 1_555
C16_3 C13_2 1_555 1_555
H8_2 C15_2 1_555 1_555
H9_3 C16_3 1_555 1_555
C18_2 O13 1_555 1_555
C19_2 O22 1_555 1_555
C20_2 O12 1_555 1_555
C2_2 C4_2 1_555 1_555
O17_2 C18_2 1_555 1_555
O19_2 C20_2 1_555 1_555
C11_2 C18_2 1_555 1_555
C12_2 C15_2 1_555 1_555
C12_2 C19_2 1_555 1_555
C13_2 C20_2 1_555 1_555
O10 C21_2 1_555 1_555
C9_2 N3_4 1_555 1_555
H7_2 C9_2 1_555 1_555
C14_2 C9_2 1_555 1_555
H9_4 C16_4 1_555 1_555
C21_2 O21 1_555 1_555
C14_2 C16_4 1_555 1_555
C14_2 C21_2 1_555 1_555

#END
