
###############################################################################
#
# This file contains modified crystal structure data generated from the
# MOF subset of the Cambridge Structural Database (CSD) v543 
# hosted by the Cambridge Crystallographic Data Centre (CCDC).
#
# This work is licensed under the Creative Commons
# Attribution-NonCommercial-ShareAlike 4.0 International License.
# To view a copy of this license, visit
# http://creativecommons.org/licenses/by-nc-sa/4.0/
# or send a letter to
# Creative Commons, PO Box 1866, Mountain View, CA 94042, USA.
#
# CIF created using the CSD Python API on 29 September 2022
# The structure has been converted into the P1 space group
# The structure has a 3D framework
# The original CSD entry SERKOQ is in the monoclinic crystal system
# The framework has been calculated to contain at least 10.0% void space
# The void calculation uses a probe of radius 1.32A, grid spacing 0.4
# H atom positions have been added when not included in the experimental data
#
###############################################################################

data_SERKOQ
_chemical_formula_moiety         '(C128 H80 O59 Zn14)n'
_symmetry_cell_setting           triclinic
_symmetry_space_group_name_H-M   'P 1'
_symmetry_Int_Tables_number      1
_space_group_name_Hall           'P 1'
loop_
_symmetry_equiv_pos_site_id
_symmetry_equiv_pos_as_xyz
1 x,y,z
_cell_length_a                   33.237(12)
_cell_length_b                   9.719(4)
_cell_length_c                   18.423(7)
_cell_angle_alpha                90
_cell_angle_beta                 90.538(5)
_cell_angle_gamma                90
_cell_volume                     5950.93
loop_
_atom_site_label
_atom_site_type_symbol
_atom_site_fract_x
_atom_site_fract_y
_atom_site_fract_z
Zn7 Zn 0.346287(15) 0.29380(5) 0.00616(3)
Zn10 Zn 0.2500 0.2500 -0.0000
O5 O 0.17688(14) 0.0217(5) 0.4112(3)
C5 C 0.22847(19) 0.2508(6) 0.4365(3)
H1 H 0.2138 0.2510 0.3932
C7 C 0.24821(17) 0.1394(6) 0.5452(3)
H2 H 0.2472 0.0643 0.5765
C8 C 0.22664(15) 0.1365(5) 0.4836(3)
C11 C 0.19963(15) 0.0158(5) 0.4620(3)
C16 C 0.02623(19) 0.0948(8) 0.5285(4)
H8 H 0.0438 0.1592 0.5487
Zn5 Zn 0.346287(15) 0.70620(5) 0.50616(3)
Zn9 Zn 0.2500 0.7500 0.5000
Zn10_2 Zn 0.2500 0.2500 1.0000
O10 O 0.29798(9) 0.5908(3) 0.49579(17)
C18 C 0.31314(14) 0.1354(5) 0.8962(3)
O15 O 0.32312(14) 0.4783(5) 0.5888(3)
C21 C 0.27153(19) 0.2492(6) 0.5635(3)
H9 H 0.2862 0.2490 0.6068
C22 C 0.31152(14) 0.0640(5) 0.8235(3)
C23 C 0.25179(17) 0.3606(6) 0.4548(3)
H10 H 0.2528 0.4357 0.4235
C24 C 0.27336(15) 0.3635(5) 0.5164(3)
C26 C 0.34479(16) 0.0628(7) 0.7798(3)
H12 H 0.3684 0.1060 0.7947
C27 C 0.30037(15) 0.4842(5) 0.5380(3)
O17 O 0.34493(11) 0.1962(4) 0.9115(2)
O20 O 0.28420(10) 0.1216(4) 0.93734(19)
H17 H 0.128868 0.0429535 0.531168
O1 O 0.16000(10) 0.6675(4) 0.41218(18)
Zn1 Zn 0.153713(15) 0.79380(5) 0.49384(3)
O2 O 0.20202(9) 0.9092(3) 0.50421(17)
O3 O 0.22735(11) 0.6819(4) 0.40374(17)
O4 O 0.09720(10) 0.8395(5) 0.4752(3)
C1 C 0.19318(14) 0.6425(5) 0.3815(3)
C2 C 0.18686(14) 0.3646(5) 0.1038(3)
O6 O 0.10651(12) 0.9979(5) 0.5575(3)
C3 C 0.08453(16) 0.9325(6) 0.5128(3)
C4 C 0.19156(13) 0.5691(5) 0.3107(2)
C6 C 0.18848(14) 0.4360(5) 0.1765(3)
C9 C 0.15737(17) 0.5048(6) 0.2879(3)
H3 H 0.1349 0.5054 0.3176
C10 C 0.15521(16) 0.4372(7) 0.2202(3)
H4 H 0.1316 0.3940 0.2053
C12 C 0.22303(16) 0.5010(7) 0.1984(3)
H5 H 0.2452 0.5025 0.1680
C13 C 0.22519(16) 0.5649(7) 0.2658(3)
H6 H 0.2492 0.6050 0.2812
O7 O 0.15507(11) 0.3038(4) 0.0885(2)
O8 O 0.21580(10) 0.3784(4) 0.06266(19)
C14 C 0.04057(15) 0.9699(6) 0.5072(3)
C15 C 0.01392(17) 0.8734(6) 0.4795(4)
H7 H 0.0232 0.7867 0.4662
O9 O 0.34000(10) 0.8325(4) 0.58782(18)
O12 O 0.27265(11) 0.8181(4) 0.59626(17)
O14 O 0.40280(10) 0.6605(5) 0.5248(3)
C17 C 0.30682(14) 0.8575(5) 0.6185(3)
C20 C 0.30844(13) 0.9309(5) 0.6893(2)
C25 C 0.34263(17) 0.9952(6) 0.7121(3)
H11 H 0.3651 0.9946 0.6824
C28 C 0.27697(16) 0.9990(7) 0.8016(3)
H13 H 0.2548 0.9975 0.8320
C29 C 0.27481(16) 0.9351(7) 0.7342(3)
H14 H 0.2508 0.8950 0.7188
O18 O 0.15507(11) 0.6962(4) 0.5885(2)
O19 O 0.34493(11) 0.8038(4) 0.4115(2)
O21 O 0.28420(10) 0.8784(4) 0.43734(19)
O22 O 0.21580(10) 0.6216(4) 0.56266(19)
Zn4 Zn 0.153713(15) 0.20620(5) 0.99384(3)
Zn6 Zn 0.846287(15) 0.20620(5) 0.50616(3)
O13 O 0.90280(10) 0.1605(5) 0.5248(3)
O16 O 0.89349(12) 0.0021(5) 0.4425(3)
C19 C 0.91547(16) 0.0675(6) 0.4872(3)
C30 C 0.95943(15) 0.0301(6) 0.4928(3)
C31 C 0.98608(17) 0.1266(6) 0.5205(4)
H15 H 0.9768 0.2133 0.5338
H18 H 0.882264 0.0669672 0.405923
C32 C 0.97377(19) 0.9052(8) 0.4715(4)
H16 H 0.9562 0.8408 0.4513
O16_2 O 0.10651(12) 0.0021(5) 0.0575(3)
C19_2 C 0.08453(16) 0.0675(6) 0.0128(3)
C30_2 C 0.04057(15) 0.0301(6) 0.0072(3)
H18_2 H 0.117736 0.0669672 0.0940771
O13_2 O 0.09720(10) 0.1605(5) 0.9752(3)
C31_2 C 0.01392(17) 0.1266(6) 0.9795(4)
H15_2 H 0.0232 0.2133 0.9662
C32_2 C 0.02623(19) 0.9052(8) 0.0285(4)
H16_2 H 0.0438 0.8408 0.0487
O5_2 O 0.82312(14) 0.0217(5) 0.0888(3)
C5_2 C 0.77153(19) 0.2508(6) 0.0635(3)
H1_2 H 0.7862 0.2510 0.1068
C8_2 C 0.77336(15) 0.1365(5) 0.0164(3)
C11_2 C 0.80037(15) 0.0158(5) 0.0380(3)
Zn9_2 Zn 0.7500 0.7500 0.0000
O10_2 O 0.70202(9) 0.5908(3) 0.00421(17)
C23_2 C 0.74821(17) 0.3606(6) 0.0452(3)
H10_2 H 0.7472 0.4357 0.0765
C7_2 C 0.75179(17) 0.1394(6) 0.9548(3)
H2_2 H 0.7528 0.0643 0.9235
C16_2 C 0.97377(19) 0.0948(8) 0.9715(4)
H8_2 H 0.9562 0.1592 0.9513
Zn5_2 Zn 0.653713(15) 0.70620(5) 0.99384(3)
Zn7_2 Zn 0.653713(15) 0.29380(5) 0.49384(3)
Zn9_3 Zn 0.7500 0.7500 1.0000
Zn10_3 Zn 0.7500 0.2500 0.5000
C18_2 C 0.68686(14) 0.1354(5) 0.6038(3)
O15_2 O 0.67688(14) 0.4783(5) 0.9112(3)
C21_2 C 0.72847(19) 0.2492(6) 0.9365(3)
H9_2 H 0.7138 0.2490 0.8932
C22_2 C 0.68848(14) 0.0640(5) 0.6765(3)
C24_2 C 0.72664(15) 0.3635(5) 0.9836(3)
C26_2 C 0.65521(16) 0.0628(7) 0.7202(3)
H12_2 H 0.6316 0.1060 0.7053
C27_2 C 0.69963(15) 0.4842(5) 0.9620(3)
O17_2 O 0.65507(11) 0.1962(4) 0.5885(2)
O20_2 O 0.71580(10) 0.1216(4) 0.56266(19)
H17_2 H 0.871132 0.0429535 0.968832
O1_2 O 0.84000(10) 0.6675(4) 0.08782(18)
Zn1_2 Zn 0.846287(15) 0.79380(5) 0.00616(3)
O3_2 O 0.77265(11) 0.6819(4) 0.09626(17)
O4_2 O 0.90280(10) 0.8395(5) 0.0248(3)
C1_2 C 0.80682(14) 0.6425(5) 0.1185(3)
C2_2 C 0.81314(14) 0.3646(5) 0.3962(3)
C4_2 C 0.80844(13) 0.5691(5) 0.1893(2)
C6_2 C 0.81152(14) 0.4360(5) 0.3235(3)
C9_2 C 0.84263(17) 0.5048(6) 0.2121(3)
H3_2 H 0.8651 0.5054 0.1824
C10_2 C 0.84479(16) 0.4372(7) 0.2798(3)
H4_2 H 0.8684 0.3940 0.2947
C12_2 C 0.77697(16) 0.5010(7) 0.3016(3)
H5_2 H 0.7548 0.5025 0.3320
C13_2 C 0.77481(16) 0.5649(7) 0.2342(3)
H6_2 H 0.7508 0.6050 0.2188
O7_2 O 0.84493(11) 0.3038(4) 0.4115(2)
O8_2 O 0.78420(10) 0.3784(4) 0.43734(19)
C15_2 C 0.98608(17) 0.8734(6) 0.0205(4)
H7_2 H 0.9768 0.7867 0.0338
O19_2 O 0.65507(11) 0.8038(4) 0.0885(2)
O21_2 O 0.71580(10) 0.8784(4) 0.06266(19)
O2_2 O 0.79798(9) 0.9092(3) 0.99579(17)
O6_2 O 0.89349(12) 0.9979(5) 0.9425(3)
C3_2 C 0.91547(16) 0.9325(6) 0.9872(3)
C14_2 C 0.95943(15) 0.9699(6) 0.9928(3)
O9_2 O 0.66000(10) 0.8325(4) 0.91218(18)
O12_2 O 0.72735(11) 0.8181(4) 0.90374(17)
O14_2 O 0.59720(10) 0.6605(5) 0.9752(3)
C17_2 C 0.69318(14) 0.8575(5) 0.8815(3)
C20_2 C 0.69156(13) 0.9309(5) 0.8107(2)
C25_2 C 0.65737(17) 0.9952(6) 0.7879(3)
H11_2 H 0.6349 0.9946 0.8176
C28_2 C 0.72303(16) 0.9990(7) 0.6984(3)
H13_2 H 0.7452 0.9975 0.6680
C29_2 C 0.72519(16) 0.9351(7) 0.7658(3)
H14_2 H 0.7492 0.8950 0.7812
O18_2 O 0.84493(11) 0.6962(4) 0.9115(2)
O22_2 O 0.78420(10) 0.6216(4) 0.93734(19)
O10_3 O 0.79798(9) 0.0908(3) 0.49579(17)
O1_3 O 0.66000(10) 0.1675(4) 0.41218(18)
O2_3 O 0.70202(9) 0.4092(3) 0.50421(17)
O3_3 O 0.72735(11) 0.1819(4) 0.40374(17)
O4_3 O 0.59720(10) 0.3395(5) 0.4752(3)
C1_3 C 0.69318(14) 0.1425(5) 0.3815(3)
O5_3 O 0.67688(14) 0.5217(5) 0.4112(3)
O6_3 O 0.60651(12) 0.4979(5) 0.5575(3)
C3_3 C 0.58453(16) 0.4325(6) 0.5128(3)
C4_3 C 0.69156(13) 0.0691(5) 0.3107(2)
C5_3 C 0.72847(19) 0.7508(6) 0.4365(3)
H1_3 H 0.7138 0.7510 0.3932
C7_3 C 0.74821(17) 0.6394(6) 0.5452(3)
H2_3 H 0.7472 0.5643 0.5765
C8_3 C 0.72664(15) 0.6365(5) 0.4836(3)
C9_3 C 0.65737(17) 0.0048(6) 0.2879(3)
H3_3 H 0.6349 0.0054 0.3176
C11_3 C 0.69963(15) 0.5158(5) 0.4620(3)
C12_3 C 0.72303(16) 0.0010(7) 0.1984(3)
H5_3 H 0.7452 0.0025 0.1680
C13_3 C 0.72519(16) 0.0649(7) 0.2658(3)
H6_3 H 0.7492 0.1050 0.2812
C14_3 C 0.54057(15) 0.4699(6) 0.5072(3)
C15_3 C 0.51392(17) 0.3734(6) 0.4795(4)
H7_3 H 0.5232 0.2867 0.4662
C16_3 C 0.52623(19) 0.5948(8) 0.5285(4)
H8_3 H 0.5438 0.6592 0.5487
O9_3 O 0.84000(10) 0.3325(4) 0.58782(18)
O12_3 O 0.77265(11) 0.3181(4) 0.59626(17)
C17_3 C 0.80682(14) 0.3575(5) 0.6185(3)
C18_3 C 0.81314(14) 0.6354(5) 0.8962(3)
O15_3 O 0.82312(14) 0.9783(5) 0.5888(3)
O16_3 O 0.39349(12) 0.5021(5) 0.4425(3)
C19_3 C 0.41547(16) 0.5675(6) 0.4872(3)
C20_3 C 0.80844(13) 0.4309(5) 0.6893(2)
C21_3 C 0.77153(19) 0.7492(6) 0.5635(3)
H9_3 H 0.7862 0.7490 0.6068
C22_3 C 0.81152(14) 0.5640(5) 0.8235(3)
C23_3 C 0.75179(17) 0.8606(6) 0.4548(3)
H10_3 H 0.7528 0.9357 0.4235
C24_3 C 0.77336(15) 0.8635(5) 0.5164(3)
C25_3 C 0.84263(17) 0.4952(6) 0.7121(3)
H11_3 H 0.8651 0.4946 0.6824
C26_3 C 0.84479(16) 0.5628(7) 0.7798(3)
H12_3 H 0.8684 0.6060 0.7947
C27_3 C 0.80037(15) 0.9842(5) 0.5380(3)
C28_3 C 0.77697(16) 0.4990(7) 0.8016(3)
H13_3 H 0.7548 0.4975 0.8320
C29_3 C 0.77481(16) 0.4351(7) 0.7342(3)
H14_3 H 0.7508 0.3950 0.7188
C30_3 C 0.45943(15) 0.5301(6) 0.4928(3)
C31_3 C 0.48608(17) 0.6266(6) 0.5205(4)
H15_3 H 0.4768 0.7133 0.5338
C32_3 C 0.47377(19) 0.4052(8) 0.4715(4)
H16_3 H 0.4562 0.3408 0.4513
H17_3 H 0.628868 0.542954 0.531168
H18_3 H 0.382264 0.566967 0.405923
C2_3 C 0.68686(14) 0.8646(5) 0.1038(3)
C6_3 C 0.68848(14) 0.9360(5) 0.1765(3)
C10_3 C 0.65521(16) 0.9372(7) 0.2202(3)
H4_3 H 0.6316 0.8940 0.2053
O10_4 O 0.20202(9) 0.0908(3) 0.00421(17)
O1_4 O 0.34000(10) 0.1675(4) 0.08782(18)
O3_4 O 0.27265(11) 0.1819(4) 0.09626(17)
O4_4 O 0.40280(10) 0.3395(5) 0.0248(3)
C1_4 C 0.30682(14) 0.1425(5) 0.1185(3)
O5_4 O 0.32312(14) 0.5217(5) 0.0888(3)
C4_4 C 0.30844(13) 0.0691(5) 0.1893(2)
C5_4 C 0.27153(19) 0.7508(6) 0.0635(3)
H1_4 H 0.2862 0.7510 0.1068
C8_4 C 0.27336(15) 0.6365(5) 0.0164(3)
C9_4 C 0.34263(17) 0.0048(6) 0.2121(3)
H3_4 H 0.3651 0.0054 0.1824
C11_4 C 0.30037(15) 0.5158(5) 0.0380(3)
C12_4 C 0.27697(16) 0.0010(7) 0.3016(3)
H5_4 H 0.2548 0.0025 0.3320
C13_4 C 0.27481(16) 0.0649(7) 0.2342(3)
H6_4 H 0.2508 0.1050 0.2188
C15_4 C 0.48608(17) 0.3734(6) 0.0205(4)
H7_4 H 0.4768 0.2867 0.0338
O16_4 O 0.60651(12) 0.5021(5) 0.0575(3)
C19_4 C 0.58453(16) 0.5675(6) 0.0128(3)
C23_4 C 0.24821(17) 0.8606(6) 0.0452(3)
H10_4 H 0.2472 0.9357 0.0765
C30_4 C 0.54057(15) 0.5301(6) 0.0072(3)
C32_4 C 0.52623(19) 0.4052(8) 0.0285(4)
H16_4 H 0.5438 0.3408 0.0487
H18_4 H 0.617736 0.566967 0.0940771
O2_4 O 0.29798(9) 0.4092(3) 0.99579(17)
O6_4 O 0.39349(12) 0.4979(5) 0.9425(3)
C3_4 C 0.41547(16) 0.4325(6) 0.9872(3)
C7_4 C 0.25179(17) 0.6394(6) 0.9548(3)
H2_4 H 0.2528 0.5643 0.9235
C14_4 C 0.45943(15) 0.4699(6) 0.9928(3)
C16_4 C 0.47377(19) 0.5948(8) 0.9715(4)
H8_4 H 0.4562 0.6592 0.9513
O9_4 O 0.16000(10) 0.3325(4) 0.91218(18)
O12_4 O 0.22735(11) 0.3181(4) 0.90374(17)
C17_4 C 0.19318(14) 0.3575(5) 0.8815(3)
C18_4 C 0.18686(14) 0.6354(5) 0.6038(3)
O15_4 O 0.17688(14) 0.9783(5) 0.9112(3)
C20_4 C 0.19156(13) 0.4309(5) 0.8107(2)
C21_4 C 0.22847(19) 0.7492(6) 0.9365(3)
H9_4 H 0.2138 0.7490 0.8932
C22_4 C 0.18848(14) 0.5640(5) 0.6765(3)
C24_4 C 0.22664(15) 0.8635(5) 0.9836(3)
C25_4 C 0.15737(17) 0.4952(6) 0.7879(3)
H11_4 H 0.1349 0.4946 0.8176
C26_4 C 0.15521(16) 0.5628(7) 0.7202(3)
H12_4 H 0.1316 0.6060 0.7053
C27_4 C 0.19963(15) 0.9842(5) 0.9620(3)
C28_4 C 0.22303(16) 0.4990(7) 0.6984(3)
H13_4 H 0.2452 0.4975 0.6680
C29_4 C 0.22519(16) 0.4351(7) 0.7658(3)
H14_4 H 0.2492 0.3950 0.7812
C31_4 C 0.51392(17) 0.6266(6) 0.9795(4)
H15_4 H 0.5232 0.7133 0.9662
H17_4 H 0.371132 0.542954 0.968832
C2_4 C 0.31314(14) 0.8646(5) 0.3962(3)
C6_4 C 0.31152(14) 0.9360(5) 0.3235(3)
C10_4 C 0.34479(16) 0.9372(7) 0.2798(3)
H4_4 H 0.3684 0.8940 0.2947
H18_5 H 0.117736 0.933033 0.594077
H17_5 H 0.871132 0.957046 0.468832
H17_6 H 0.128868 0.957046 0.031168
H18_6 H 0.882264 0.933033 0.905923
H17_7 H 0.371132 0.457046 0.468832
H18_7 H 0.617736 0.433033 0.594077
H17_8 H 0.628868 0.457046 0.031168
H18_8 H 0.382264 0.433033 0.905923
loop_
_geom_bond_atom_site_label_1
_geom_bond_atom_site_label_2
_geom_bond_site_symmetry_1
_geom_bond_site_symmetry_2
O5 C11 1_555 1_555
C5 H1 1_555 1_555
C7 H2 1_555 1_555
C8 C5 1_555 1_555
C11 C8 1_555 1_555
H8 C16 1_555 1_555
Zn5 O10 1_555 1_555
Zn9 O10 1_555 1_555
Zn10_2 O20 1_555 1_555
O10 C27 1_555 1_555
C18 C22 1_555 1_555
O15 C27 1_555 1_555
C21 C7 1_555 1_555
H9 C21 1_555 1_555
C22 C26 1_555 1_555
C23 C5 1_555 1_555
H10 C23 1_555 1_555
C24 C21 1_555 1_555
H12 C26 1_555 1_555
C27 C24 1_555 1_555
O17 C18 1_555 1_555
O20 C18 1_555 1_555
C7 C8 1_555 1_555
C23 C24 1_555 1_555
O1 Zn1 1_555 1_555
Zn1 O2 1_555 1_555
Zn9 O2 1_555 1_555
O3 Zn9 1_555 1_555
O4 Zn1 1_555 1_555
C1 O1 1_555 1_555
C2 C6 1_555 1_555
O6 C3 1_555 1_555
C3 O4 1_555 1_555
C4 C1 1_555 1_555
C6 C10 1_555 1_555
C9 C4 1_555 1_555
H3 C9 1_555 1_555
C10 C9 1_555 1_555
H4 C10 1_555 1_555
C12 C6 1_555 1_555
H5 C12 1_555 1_555
C13 C4 1_555 1_555
H6 C13 1_555 1_555
O7 C2 1_555 1_555
O8 C2 1_555 1_555
C14 C3 1_555 1_555
C15 C14 1_555 1_555
H7 C15 1_555 1_555
O9 Zn5 1_555 1_555
Zn10 O8 1_555 1_555
O12 Zn9 1_555 1_555
O14 Zn5 1_555 1_555
C17 O9 1_555 1_555
C20 C17 1_555 1_555
C25 C20 1_555 1_555
H11 C25 1_555 1_555
H13 C28 1_555 1_555
C29 C20 1_555 1_555
H14 C29 1_555 1_555
O18 Zn1 1_555 1_555
O19 Zn5 1_555 1_555
O21 Zn9 1_555 1_555
O22 Zn9 1_555 1_555
O3 C1 1_555 1_555
C12 C13 1_555 1_555
O12 C17 1_555 1_555
C28 C29 1_555 1_555
Zn6 O13 1_555 1_555
O13 C19 1_555 1_555
O16 C19 1_555 1_555
C19 C30 1_555 1_555
C30 C31 1_555 1_555
H15 C31 1_555 1_555
O16 H18 1_555 1_555
H16 C32 1_555 1_555
O16_2 C19_2 1_555 1_555
C19_2 C30_2 1_555 1_555
O16_2 H18_2 1_555 1_555
Zn4 O13_2 1_555 1_555
H15_2 C31_2 1_555 1_555
H16_2 C32_2 1_555 1_555
O5_2 C11_2 1_555 1_555
C5_2 H1_2 1_555 1_555
C8_2 C5_2 1_555 1_555
C11_2 C8_2 1_555 1_555
Zn9_2 O10_2 1_555 1_555
C23_2 C5_2 1_555 1_555
H10_2 C23_2 1_555 1_555
C7_2 H2_2 1_555 1_555
H8_2 C16_2 1_555 1_555
Zn7_2 O17_2 1_555 1_555
Zn10_3 O20_2 1_555 1_555
C18_2 C22_2 1_555 1_555
O15_2 C27_2 1_555 1_555
C21_2 C7_2 1_555 1_555
H9_2 C21_2 1_555 1_555
C22_2 C26_2 1_555 1_555
C24_2 C21_2 1_555 1_555
H12_2 C26_2 1_555 1_555
C27_2 C24_2 1_555 1_555
O17_2 C18_2 1_555 1_555
O20_2 C18_2 1_555 1_555
O1_2 Zn1_2 1_555 1_555
O3_2 Zn9_2 1_555 1_555
O4_2 Zn1_2 1_555 1_555
C1_2 O1_2 1_555 1_555
C2_2 C6_2 1_555 1_555
C4_2 C1_2 1_555 1_555
C6_2 C10_2 1_555 1_555
C9_2 C4_2 1_555 1_555
H3_2 C9_2 1_555 1_555
C10_2 C9_2 1_555 1_555
H4_2 C10_2 1_555 1_555
C12_2 C6_2 1_555 1_555
H5_2 C12_2 1_555 1_555
C13_2 C4_2 1_555 1_555
H6_2 C13_2 1_555 1_555
O7_2 C2_2 1_555 1_555
O8_2 C2_2 1_555 1_555
H7_2 C15_2 1_555 1_555
Zn6 O7_2 1_555 1_555
Zn10_3 O8_2 1_555 1_555
O21_2 Zn9_2 1_555 1_555
O3_2 C1_2 1_555 1_555
C12_2 C13_2 1_555 1_555
Zn9_3 O2_2 1_555 1_555
O6_2 C3_2 1_555 1_555
C14_2 C3_2 1_555 1_555
O9_2 Zn5_2 1_555 1_555
O12_2 Zn9_3 1_555 1_555
O14_2 Zn5_2 1_555 1_555
C17_2 O9_2 1_555 1_555
C20_2 C17_2 1_555 1_555
C25_2 C20_2 1_555 1_555
H11_2 C25_2 1_555 1_555
H13_2 C28_2 1_555 1_555
C29_2 C20_2 1_555 1_555
H14_2 C29_2 1_555 1_555
O22_2 Zn9_3 1_555 1_555
O12_2 C17_2 1_555 1_555
C28_2 C29_2 1_555 1_555
Zn6 O10_3 1_555 1_555
Zn10_3 O10_3 1_555 1_555
O1_3 Zn7_2 1_555 1_555
Zn7_2 O2_3 1_555 1_555
Zn10_3 O2_3 1_555 1_555
O2_3 C11_3 1_555 1_555
O3_3 Zn10_3 1_555 1_555
O4_3 Zn7_2 1_555 1_555
C1_3 O1_3 1_555 1_555
O5_3 C11_3 1_555 1_555
O6_3 C3_3 1_555 1_555
C3_3 O4_3 1_555 1_555
C4_3 C1_3 1_555 1_555
C5_3 H1_3 1_555 1_555
C7_3 H2_3 1_555 1_555
C8_3 C5_3 1_555 1_555
C9_3 C4_3 1_555 1_555
H3_3 C9_3 1_555 1_555
C11_3 C8_3 1_555 1_555
H5_3 C12_3 1_555 1_555
C13_3 C4_3 1_555 1_555
H6_3 C13_3 1_555 1_555
C14_3 C3_3 1_555 1_555
C15_3 C14_3 1_555 1_555
H7_3 C15_3 1_555 1_555
C16_3 C14_3 1_555 1_555
H8_3 C16_3 1_555 1_555
O9_3 Zn6 1_555 1_555
O12_3 Zn10_3 1_555 1_555
O14 C19_3 1_555 1_555
C17_3 O9_3 1_555 1_555
C18_3 C22_3 1_555 1_555
O15_3 C27_3 1_555 1_555
O16_3 C19_3 1_555 1_555
C19_3 C30_3 1_555 1_555
C20_3 C17_3 1_555 1_555
C21_3 C7_3 1_555 1_555
H9_3 C21_3 1_555 1_555
C22_3 C26_3 1_555 1_555
C23_3 C5_3 1_555 1_555
H10_3 C23_3 1_555 1_555
C24_3 C21_3 1_555 1_555
C25_3 C20_3 1_555 1_555
H11_3 C25_3 1_555 1_555
C26_3 C25_3 1_555 1_555
H12_3 C26_3 1_555 1_555
C27_3 C24_3 1_555 1_555
C28_3 C22_3 1_555 1_555
H13_3 C28_3 1_555 1_555
C29_3 C20_3 1_555 1_555
H14_3 C29_3 1_555 1_555
O18_2 C18_3 1_555 1_555
O22_2 C18_3 1_555 1_555
C30_3 C31_3 1_555 1_555
C31_3 C16_3 1_555 1_555
H15_3 C31_3 1_555 1_555
C32_3 C15_3 1_555 1_555
H16_3 C32_3 1_555 1_555
O3_3 C1_3 1_555 1_555
C7_3 C8_3 1_555 1_555
C12_3 C13_3 1_555 1_555
O12_3 C17_3 1_555 1_555
C23_3 C24_3 1_555 1_555
C28_3 C29_3 1_555 1_555
C30_3 C32_3 1_555 1_555
O6_3 H17_3 1_555 1_555
O16_3 H18_3 1_555 1_555
C2_3 C6_3 1_555 1_555
C6_3 C10_3 1_555 1_555
H4_3 C10_3 1_555 1_555
O19_2 C2_3 1_555 1_555
O21_2 C2_3 1_555 1_555
Zn10 O10_4 1_555 1_555
O1_4 Zn7 1_555 1_555
O3_4 Zn10 1_555 1_555
O4_4 Zn7 1_555 1_555
C1_4 O1_4 1_555 1_555
O5_4 C11_4 1_555 1_555
C4_4 C1_4 1_555 1_555
C5_4 H1_4 1_555 1_555
C8_4 C5_4 1_555 1_555
C9_4 C4_4 1_555 1_555
H3_4 C9_4 1_555 1_555
C11_4 C8_4 1_555 1_555
H5_4 C12_4 1_555 1_555
C13_4 C4_4 1_555 1_555
H6_4 C13_4 1_555 1_555
H7_4 C15_4 1_555 1_555
O16_4 C19_4 1_555 1_555
C19_4 C30_4 1_555 1_555
C23_4 C5_4 1_555 1_555
H10_4 C23_4 1_555 1_555
C32_4 C15_4 1_555 1_555
H16_4 C32_4 1_555 1_555
O3_4 C1_4 1_555 1_555
C12_4 C13_4 1_555 1_555
C30_4 C32_4 1_555 1_555
O16_4 H18_4 1_555 1_555
Zn10_2 O2_4 1_555 1_555
O6_4 C3_4 1_555 1_555
C7_4 H2_4 1_555 1_555
C14_4 C3_4 1_555 1_555
C16_4 C14_4 1_555 1_555
H8_4 C16_4 1_555 1_555
O9_4 Zn4 1_555 1_555
O12_4 Zn10_2 1_555 1_555
C17_4 O9_4 1_555 1_555
C18_4 C22_4 1_555 1_555
O15_4 C27_4 1_555 1_555
C20_4 C17_4 1_555 1_555
C21_4 C7_4 1_555 1_555
H9_4 C21_4 1_555 1_555
C22_4 C26_4 1_555 1_555
C24_4 C21_4 1_555 1_555
C25_4 C20_4 1_555 1_555
H11_4 C25_4 1_555 1_555
C26_4 C25_4 1_555 1_555
H12_4 C26_4 1_555 1_555
C27_4 C24_4 1_555 1_555
C28_4 C22_4 1_555 1_555
H13_4 C28_4 1_555 1_555
C29_4 C20_4 1_555 1_555
H14_4 C29_4 1_555 1_555
O18 C18_4 1_555 1_555
O22 C18_4 1_555 1_555
C31_4 C16_4 1_555 1_555
H15_4 C31_4 1_555 1_555
O12_4 C17_4 1_555 1_555
C28_4 C29_4 1_555 1_555
O6_4 H17_4 1_555 1_555
C2_4 C6_4 1_555 1_555
C6_4 C10_4 1_555 1_555
H4_4 C10_4 1_555 1_555
O19 C2_4 1_555 1_555
O21 C2_4 1_555 1_555
O6 H18_5 1_555 1_555
O6_2 H18_6 1_555 1_555
O16_3 H17_7 1_555 1_555
O6_3 H18_7 1_555 1_555
O16_4 H17_8 1_555 1_555
O6_4 H18_8 1_555 1_555

#END
