
###############################################################################
#
# This file contains modified crystal structure data generated from the
# MOF subset of the Cambridge Structural Database (CSD) v543 
# hosted by the Cambridge Crystallographic Data Centre (CCDC).
#
# This work is licensed under the Creative Commons
# Attribution-NonCommercial-ShareAlike 4.0 International License.
# To view a copy of this license, visit
# http://creativecommons.org/licenses/by-nc-sa/4.0/
# or send a letter to
# Creative Commons, PO Box 1866, Mountain View, CA 94042, USA.
#
# CIF created using the CSD Python API on 29 September 2022
# The structure has been converted into the P1 space group
# The structure has a 3D framework
# The original CSD entry SERKEG is in the hexagonal crystal system
# The framework has been calculated to contain at least 10.0% void space
# The void calculation uses a probe of radius 1.32A, grid spacing 0.4
#
###############################################################################

data_SERKEG
_chemical_formula_moiety         '(C46 H22 N10 O22 Y4)n'
_symmetry_cell_setting           triclinic
_symmetry_space_group_name_H-M   'P 1'
_symmetry_Int_Tables_number      1
_space_group_name_Hall           'P 1'
loop_
_symmetry_equiv_pos_site_id
_symmetry_equiv_pos_as_xyz
1 x,y,z
_cell_length_a                   16.239(11)
_cell_length_b                   16.239(11)
_cell_length_c                   7.458(5)
_cell_angle_alpha                90
_cell_angle_beta                 90
_cell_angle_gamma                120
_cell_volume                     1703.22
loop_
_atom_site_label
_atom_site_type_symbol
_atom_site_fract_x
_atom_site_fract_y
_atom_site_fract_z
Y7 Y 0.6667 0.3333 0.3745(10)
O7 O 0.7016(5) 0.2554(5) 0.1056(17)
N3 N 0.6428(8) 0.0000 0.394(2)
C9 C 0.6662(7) 0.0820(7) 0.3142(9)
H7 H 0.7063 0.1400 0.3748
C14 C 0.6331(5) 0.0845(6) 0.1444(10)
C16 C 0.5755(11) 0.0000 0.0619(17)
C21 C 0.6583(7) 0.1730(8) 0.0614(13)
Y8 Y 0.6667 0.3333 0.8745(10)
O20 O 0.6275(8) 0.1748(7) 0.9125(11)
H9 H 0.5536 0.0000 0.9437
O1 O 0.2554(5) 0.7016(5) 0.1056(17)
N1 N -0.0000 0.6428(8) 0.394(2)
C1 C 0.0820(7) 0.6662(7) 0.3142(9)
H1 H 0.1400 0.7063 0.3748
C2 C 0.0845(6) 0.6331(5) 0.1444(10)
C3 C -0.0000 0.5755(11) 0.0619(17)
C4 C 0.1730(8) 0.6583(7) 0.0614(13)
Y3 Y 0.3334 0.6667 0.3745(10)
O4 O 0.2984(5) 0.5538(7) 0.1056(17)
O5 O 0.5538(7) 0.2984(5) 0.1056(17)
O6 O 0.4462(7) 0.7446(5) 0.1056(17)
N2 N 0.3572(8) 0.3572(8) 0.394(2)
N3_2 N 0.6428(8) 1.0000 0.394(2)
C6 C 0.3338(7) 0.4158(10) 0.3142(9)
C7 C 0.4158(10) 0.3338(7) 0.3142(9)
C8 C 0.5842(10) 0.9180(7) 0.3142(9)
H4 H 0.2937 0.4337 0.3748
H5 H 0.4337 0.2937 0.3748
H6 H 0.5663 0.8600 0.3748
C11 C 0.3669(5) 0.4514(8) 0.1444(10)
C12 C 0.4514(8) 0.3669(5) 0.1444(10)
C13 C 0.5486(8) 0.9155(6) 0.1444(10)
C15 C 0.4245(11) 0.4245(11) 0.0619(17)
C16_2 C 0.5755(11) 1.0000 0.0619(17)
C18 C 0.3417(7) 0.5147(11) 0.0614(13)
C19 C 0.5147(11) 0.3417(7) 0.0614(13)
C20 C 0.4853(11) 0.8270(8) 0.0614(13)
Y1 Y 0.3333 0.6667 0.8745(10)
O2 O 0.1748(7) 0.6275(8) 0.9125(11)
H2 H 0.0000 0.5536 0.9437
O8 O 0.4462(7) 0.7016(5) 0.6056(17)
O9 O 0.2554(5) 0.5538(7) 0.6056(17)
O10 O 0.2984(5) 0.7446(5) 0.6056(17)
O17 O 0.3725(8) 0.5473(11) 0.9125(11)
O18 O 0.5473(11) 0.3725(8) 0.9125(11)
O19 O 0.4527(11) 0.8252(7) 0.9125(11)
H8 H 0.4464 0.4464 0.9437
H9_2 H 0.5536 1.0000 0.9437
N1_2 N 1.0000 0.6428(8) 0.394(2)
C3_2 C 1.0000 0.5755(11) 0.0619(17)
O3 O 0.7446(5) 0.4462(7) 0.1056(17)
C5 C 0.9180(7) 0.5842(10) 0.3142(9)
H3 H 0.8600 0.5663 0.3748
C10 C 0.9155(6) 0.5486(8) 0.1444(10)
C17 C 0.8270(8) 0.4853(11) 0.0614(13)
H2_2 H 1.0000 0.5536 0.9437
O11 O 0.7446(5) 0.2984(5) 0.6056(17)
O12 O 0.5538(7) 0.2554(5) 0.6056(17)
O13 O 0.7016(5) 0.4462(7) 0.6056(17)
O16 O 0.8252(7) 0.4527(11) 0.9125(11)
N1_3 N 0.0000 0.3572(8) 0.894(2)
C3_3 C 0.0000 0.4245(11) 0.5619(17)
H2_3 H -0.0000 0.4464 0.4437
O16_2 O 0.1748(7) 0.5473(11) 0.4125(11)
O21 O 0.3725(8) 0.8252(7) 0.4125(11)
O22 O 0.4527(11) 0.6275(8) 0.4125(11)
C5_2 C 0.0820(7) 0.4158(10) 0.8142(9)
H3_2 H 0.1400 0.4337 0.8748
C10_2 C 0.0845(6) 0.4514(8) 0.6444(10)
C17_2 C 0.1730(8) 0.5147(11) 0.5614(13)
O2_2 O 0.8252(7) 0.3725(8) 0.4125(11)
N1_4 N 1.0000 0.3572(8) 0.894(2)
C1_2 C 0.9180(7) 0.3338(7) 0.8142(9)
H1_2 H 0.8600 0.2937 0.8748
C2_2 C 0.9155(6) 0.3669(5) 0.6444(10)
C3_4 C 1.0000 0.4245(11) 0.5619(17)
H2_4 H 1.0000 0.4464 0.4437
C4_2 C 0.8270(8) 0.3417(7) 0.5614(13)
O17_2 O 0.6275(8) 0.4527(11) 0.4125(11)
O19_2 O 0.5473(11) 0.1748(7) 0.4125(11)
N2_2 N 0.6428(8) 0.6428(8) 0.894(2)
N3_3 N 0.3572(8) -0.0000 0.894(2)
C6_2 C 0.6662(7) 0.5842(10) 0.8142(9)
C7_2 C 0.5842(10) 0.6662(7) 0.8142(9)
C8_2 C 0.4158(10) 0.0820(7) 0.8142(9)
H4_2 H 0.7063 0.5663 0.8748
H5_2 H 0.5663 0.7063 0.8748
H6_2 H 0.4337 0.1400 0.8748
C11_2 C 0.6331(5) 0.5486(8) 0.6444(10)
C12_2 C 0.5486(8) 0.6331(5) 0.6444(10)
C13_2 C 0.4514(8) 0.0845(6) 0.6444(10)
C15_2 C 0.5755(11) 0.5755(11) 0.5619(17)
C16_3 C 0.4245(11) -0.0000 0.5619(17)
H8_2 H 0.5536 0.5536 0.4437
H9_3 H 0.4464 -0.0000 0.4437
C18_2 C 0.6583(7) 0.4853(11) 0.5614(13)
C19_2 C 0.4853(11) 0.6583(7) 0.5614(13)
C20_2 C 0.5147(11) 0.1730(8) 0.5614(13)
N3_4 N 0.3572(8) 1.0000 0.894(2)
C9_2 C 0.3338(7) 0.9180(7) 0.8142(9)
H7_2 H 0.2937 0.8600 0.8748
C14_2 C 0.3669(5) 0.9155(6) 0.6444(10)
C16_4 C 0.4245(11) 1.0000 0.5619(17)
H9_4 H 0.4464 1.0000 0.4437
C21_2 C 0.3417(7) 0.8270(8) 0.5614(13)
loop_
_geom_bond_atom_site_label_1
_geom_bond_atom_site_label_2
_geom_bond_site_symmetry_1
_geom_bond_site_symmetry_2
Y7 O7 1_555 1_555
O7 C21 1_555 1_555
C9 N3 1_555 1_555
H7 C9 1_555 1_555
C14 C9 1_555 1_555
C14 C16 1_555 1_555
C14 C21 1_555 1_555
O20 Y8 1_555 1_555
O1 C4 1_555 1_555
N1 C1 1_555 1_555
C1 H1 1_555 1_555
C2 C1 1_555 1_555
C3 C2 1_555 1_555
Y3 O1 1_555 1_555
Y7 O5 1_555 1_555
O5 C19 1_555 1_555
N2 C6 1_555 1_555
N3_2 C8 1_555 1_555
C6 H4 1_555 1_555
C7 N2 1_555 1_555
C8 H6 1_555 1_555
H5 C7 1_555 1_555
C11 C6 1_555 1_555
C12 C7 1_555 1_555
C13 C8 1_555 1_555
C15 C11 1_555 1_555
C16_2 C13 1_555 1_555
C18 O4 1_555 1_555
C20 O6 1_555 1_555
C2 C4 1_555 1_555
Y3 O4 1_555 1_555
Y3 O6 1_555 1_555
C11 C18 1_555 1_555
C12 C15 1_555 1_555
C12 C19 1_555 1_555
C13 C20 1_555 1_555
O2 Y1 1_555 1_555
O8 Y1 1_555 1_555
O9 Y1 1_555 1_555
O10 Y1 1_555 1_555
O17 Y1 1_555 1_555
O18 Y8 1_555 1_555
O19 Y1 1_555 1_555
Y7 O3 1_555 1_555
O3 C17 1_555 1_555
C5 N1_2 1_555 1_555
H3 C5 1_555 1_555
C10 C3_2 1_555 1_555
C5 C10 1_555 1_555
C10 C17 1_555 1_555
O11 Y8 1_555 1_555
O12 Y8 1_555 1_555
O13 Y8 1_555 1_555
O16 Y8 1_555 1_555
H2_3 C3_3 1_555 1_555
Y3 O9 1_555 1_555
O9 C17_2 1_555 1_555
O10 Y3 1_555 1_555
O8 Y3 1_555 1_555
O16_2 Y3 1_555 1_555
O21 Y3 1_555 1_555
O22 Y3 1_555 1_555
C5_2 N1_3 1_555 1_555
H3_2 C5_2 1_555 1_555
C10_2 C3_3 1_555 1_555
C17_2 O16_2 1_555 1_555
C5_2 C10_2 1_555 1_555
C10_2 C17_2 1_555 1_555
Y7 O11 1_555 1_555
O11 C4_2 1_555 1_555
O2_2 Y7 1_555 1_555
N1_4 C1_2 1_555 1_555
C1_2 H1_2 1_555 1_555
C2_2 C1_2 1_555 1_555
C3_4 C2_2 1_555 1_555
H2_4 C3_4 1_555 1_555
C4_2 O2_2 1_555 1_555
O13 Y7 1_555 1_555
O8 C19_2 1_555 1_555
O12 Y7 1_555 1_555
O17_2 Y7 1_555 1_555
O19_2 Y7 1_555 1_555
N2_2 C6_2 1_555 1_555
N3_3 C8_2 1_555 1_555
C6_2 H4_2 1_555 1_555
C7_2 N2_2 1_555 1_555
C8_2 H6_2 1_555 1_555
H5_2 C7_2 1_555 1_555
C11_2 C6_2 1_555 1_555
C12_2 C7_2 1_555 1_555
C13_2 C8_2 1_555 1_555
C15_2 C11_2 1_555 1_555
C16_3 C13_2 1_555 1_555
H8_2 C15_2 1_555 1_555
H9_3 C16_3 1_555 1_555
C18_2 O13 1_555 1_555
C19_2 O22 1_555 1_555
C20_2 O12 1_555 1_555
C2_2 C4_2 1_555 1_555
O17_2 C18_2 1_555 1_555
O19_2 C20_2 1_555 1_555
C11_2 C18_2 1_555 1_555
C12_2 C15_2 1_555 1_555
C12_2 C19_2 1_555 1_555
C13_2 C20_2 1_555 1_555
O10 C21_2 1_555 1_555
C9_2 N3_4 1_555 1_555
H7_2 C9_2 1_555 1_555
C14_2 C9_2 1_555 1_555
H9_4 C16_4 1_555 1_555
C21_2 O21 1_555 1_555
C14_2 C16_4 1_555 1_555
C14_2 C21_2 1_555 1_555

#END
