
###############################################################################
#
# This file contains modified crystal structure data generated from the
# MOF subset of the Cambridge Structural Database (CSD) v543 
# hosted by the Cambridge Crystallographic Data Centre (CCDC).
#
# This work is licensed under the Creative Commons
# Attribution-NonCommercial-ShareAlike 4.0 International License.
# To view a copy of this license, visit
# http://creativecommons.org/licenses/by-nc-sa/4.0/
# or send a letter to
# Creative Commons, PO Box 1866, Mountain View, CA 94042, USA.
#
# CIF created using the CSD Python API on 29 September 2022
# The structure has been converted into the P1 space group
# The structure has a 3D framework
# The original CSD entry SERTAO is in the triclinic crystal system
# The framework has been calculated to contain at least 10.0% void space
# The void calculation uses a probe of radius 1.32A, grid spacing 0.4
# H atom positions have been added when not included in the experimental data
#
###############################################################################

data_SERTAO
_chemical_formula_moiety         '(C28 H96 N4 O200 P4 Pr8 W36 Zr6)n'
_symmetry_cell_setting           triclinic
_symmetry_space_group_name_H-M   'P 1'
_symmetry_Int_Tables_number      1
_space_group_name_Hall           'P 1'
loop_
_symmetry_equiv_pos_site_id
_symmetry_equiv_pos_as_xyz
1 x,y,z
_cell_length_a                   13.0193(12)
_cell_length_b                   17.7422(17)
_cell_length_c                   22.262(2)
_cell_angle_alpha                95.303(2)
_cell_angle_beta                 91.285(2)
_cell_angle_gamma                96.744(2)
_cell_volume                     5082
loop_
_atom_site_label
_atom_site_type_symbol
_atom_site_fract_x
_atom_site_fract_y
_atom_site_fract_z
O81 O 0.1230(11) 0.1912(8) 0.0467(7)
Pr9 Pr 0.03508(8) 0.16946(6) 0.44097(4)
O104 O 0.0420(10) 0.0565(8) 0.1095(6)
H37 H 0.164121 0.170206 0.0779087
H38 H 0.160872 0.190764 0.00846876
O108 O 0.1067(9) 0.0361(7) 0.9761(6)
H24 H 0.0174189 0.201528 0.927574
N2 N 0.1179(12) 0.2492(9) 0.2337(7)
C9 C 0.0594(15) 0.2470(10) 0.1826(10)
H4 H 0.085785 0.232311 0.145369
C13 C 0.0789(14) 0.2657(10) 0.2872(9)
H6 H 0.119953 0.265921 0.321938
O98 O 0.0839(11) 0.2579(10) 0.5322(7)
O99 O 0.2002(10) 0.2533(9) 0.4241(7)
O100 O 0.1917(12) 0.1231(9) 0.4895(8)
O105 O 0.0603(11) 0.0356(8) 0.3923(6)
O106 O 0.0884(10) 0.1282(8) 0.3359(6)
H21 H 0.201021 0.30304 0.448654
H22 H 0.260476 0.228036 0.436298
H32 H 0.0233311 0.0391832 0.515984
H33 H 0.0219063 0.28051 0.547115
H34 H 0.11213 0.229595 0.564006
H35 H 0.212787 0.155853 0.527388
H36 H 0.173791 0.0695624 0.498804
Pr6 Pr 0.04856(8) 0.88882(6) 0.97080(5)
W1 W 0.76314(6) 0.06415(4) 0.17307(3)
W2 W 0.78539(6) 0.07645(4) 0.32615(3)
W3 W 0.58007(6) 0.14155(4) 0.25815(3)
W4 W 0.40204(6) 0.01849(4) 0.34585(3)
W9 W 0.37551(6) 0.00239(4) 0.17882(3)
O1 O 0.8407(9) 0.1033(7) 0.1197(5)
O2 O 0.8794(9) 0.1290(7) 0.3731(5)
O3 O 0.5493(9) 0.2328(7) 0.2607(6)
O4 O 0.3142(9) 0.0722(7) 0.3776(6)
O9 O 0.2801(10) 0.0560(7) 0.1575(6)
O19 O 0.8373(8) 0.0973(7) 0.2465(5)
O21 O 0.6493(9) 0.0169(7) 0.1255(5)
O22 O 0.6781(9) 0.1451(7) 0.1943(5)
O23 O 0.6985(9) 0.1552(6) 0.3130(5)
O24 O 0.6906(9) 0.0372(7) 0.3806(5)
O26 O 0.5006(9) 0.0988(7) 0.3183(5)
O27 O 0.4827(9) 0.0881(7) 0.2014(5)
O28 O 0.3548(8) 0.0023(7) 0.2621(5)
O30 O 0.4986(8) 0.0185(6) 0.4107(5)
O61 O 0.6547(9) 0.0228(7) 0.2525(5)
Pr1 Pr 0.95144(8) 0.11118(6) 0.02920(5)
O107 O 0.9290(9) 0.2389(7) 0.0795(5)
H43 H 0.735206 0.150016 0.0132187
P1 P 0.5905(3) 0.9412(3) 0.2521(2)
P2 P 0.3360(3) 0.6109(3) 0.2528(2)
Zr1 Zr 0.36945(13) 0.79826(10) 0.16635(8)
Zr2 Zr 0.62216(13) 0.72418(10) 0.24828(8)
Zr3 Zr 0.39272(14) 0.81459(10) 0.34222(8)
W5 W 0.60438(6) 0.95129(4) 0.41038(3)
W6 W 0.80908(6) 0.87090(4) 0.31862(3)
W7 W 0.78219(6) 0.85679(4) 0.16721(3)
W8 W 0.55418(6) 0.92645(4) 0.09471(3)
W10 W 0.14561(6) 0.69510(4) 0.33864(3)
W11 W 0.12799(6) 0.67497(4) 0.17109(3)
W12 W 0.32063(6) 0.60151(4) 0.09493(3)
W13 W 0.54004(6) 0.53434(4) 0.17460(3)
W14 W 0.55271(6) 0.55307(4) 0.32631(3)
W15 W 0.34485(6) 0.63703(4) 0.41281(3)
W16 W 0.27864(6) 0.42632(4) 0.17467(3)
W17 W 0.08837(6) 0.50301(4) 0.25362(3)
W18 W 0.29153(6) 0.44501(4) 0.32805(3)
O5 O 0.6462(9) 0.9640(7) 0.4836(5)
O6 O 0.9122(9) 0.8599(7) 0.3633(5)
O7 O 0.8718(9) 0.8398(7) 0.1130(5)
O8 O 0.5699(10) 0.9306(8) 0.0194(6)
O10 O 0.0320(9) 0.7199(7) 0.3671(5)
O11 O 0.0112(8) 0.6943(7) 0.1449(5)
O12 O 0.3205(10) 0.5762(7) 0.0184(6)
O13 O 0.6149(10) 0.4849(7) 0.1240(5)
O14 O 0.6334(9) 0.5114(6) 0.3732(5)
O15 O 0.3549(9) 0.6244(7) 0.4880(5)
O16 O 0.2685(10) 0.3449(7) 0.1265(6)
O18 O 0.2883(9) 0.3760(7) 0.3763(5)
O20 O 0.8102(8) 0.9695(7) 0.1734(5)
O25 O 0.8306(9) 0.9811(7) 0.3138(5)
O29 O 0.3446(9) 0.9236(7) 0.3568(5)
O31 O 0.7085(9) 0.8942(7) 0.3757(5)
O32 O 0.5072(9) 0.8705(7) 0.4102(5)
O33 O 0.8659(8) 0.8640(6) 0.2403(5)
O34 O 0.7453(9) 0.7734(7) 0.3027(5)
O35 O 0.7260(8) 0.7624(7) 0.1815(5)
O36 O 0.6659(9) 0.8729(7) 0.1170(5)
O37 O 0.4608(9) 0.8453(7) 0.0958(5)
O38 O 0.4469(9) 0.9928(7) 0.1050(5)
O39 O 0.3136(8) 0.9046(7) 0.1629(5)
O40 O 0.2314(9) 0.7829(7) 0.3517(5)
O41 O 0.1249(9) 0.7079(7) 0.2552(5)
O42 O 0.1018(9) 0.5861(7) 0.3126(5)
O43 O 0.2039(9) 0.6578(7) 0.4085(5)
O44 O 0.1782(8) 0.6215(6) 0.0991(5)
O45 O 0.2108(9) 0.7617(7) 0.1586(5)
O46 O 0.0918(9) 0.5725(6) 0.1950(5)
O47 O 0.3621(9) 0.7015(7) 0.0963(5)
O48 O 0.4505(8) 0.5776(7) 0.1217(5)
O49 O 0.2678(8) 0.5030(7) 0.1221(5)
O50 O 0.6219(9) 0.6251(7) 0.1895(5)
O51 O 0.5873(9) 0.5040(6) 0.2483(5)
O52 O 0.4219(9) 0.4588(6) 0.1779(5)
O53 O 0.4356(9) 0.4733(7) 0.3224(5)
O54 O 0.6323(8) 0.6386(7) 0.3107(5)
O55 O 0.4734(9) 0.6070(7) 0.3832(5)
O56 O 0.3911(8) 0.7359(7) 0.4107(5)
O57 O 0.1377(9) 0.4322(7) 0.1918(5)
O58 O 0.2950(9) 0.3869(7) 0.2505(6)
O59 O 0.1466(9) 0.4455(7) 0.3129(6)
O60 O 0.2890(9) 0.5329(7) 0.3814(5)
O62 O 0.6655(9) 0.8814(7) 0.2478(5)
O63 O 0.5150(8) 0.9300(7) 0.1975(5)
O64 O 0.5306(8) 0.9386(7) 0.3096(5)
O65 O 0.3016(9) 0.6468(7) 0.1959(5)
O66 O 0.3139(8) 0.6591(6) 0.3103(5)
O67 O 0.4521(8) 0.6008(6) 0.2523(5)
O68 O 0.2731(8) 0.5305(6) 0.2526(5)
O69 O 0.5118(8) 0.7514(6) 0.1856(5)
O70 O 0.5265(9) 0.7632(7) 0.3143(6)
O71 O 0.3636(9) 0.8133(7) 0.2545(5)
Pr2 Pr 0.71143(8) 0.38127(6) 0.08366(5)
Pr3 Pr 0.72285(8) 0.39963(6) 0.40877(4)
O76 O 0.8200(11) 0.3026(9) 0.1308(6)
C8 C 0.8996(14) 0.2681(11) 0.1271(8)
C10 C 0.9633(14) 0.2661(11) 0.1860(8)
C11 C 0.9171(15) 0.2818(11) 0.2408(8)
H5 H 0.848506 0.291317 0.243024
C12 C 0.9800(14) 0.2823(10) 0.2919(8)
C14 C 0.9371(15) 0.3022(11) 0.3534(8)
O78 O 0.8543(10) 0.3336(8) 0.3542(5)
O79 O 0.9834(9) 0.2852(7) 0.3996(5)
O80 O 0.8933(9) 0.9639(7) 0.0239(6)
O84 O 0.5135(14) 0.3582(11) 0.0535(9)
O85 O 0.8404(13) 0.4961(10) 0.0780(9)
O86 O 0.8606(11) 0.3529(8) 0.0179(6)
O87 O 0.6579(14) 0.2565(9) 0.0212(7)
O88 O 0.7747(13) 0.4407(10) 0.1900(8)
O89 O 0.6145(12) 0.3011(10) 0.1536(7)
O90 O 0.6660(11) 0.3697(8) 0.2977(6)
O91 O 0.5258(9) 0.3713(7) 0.4000(6)
O92 O 0.6853(11) 0.2590(8) 0.4146(6)
O93 O 0.8745(10) 0.3835(8) 0.4767(6)
O94 O 0.8501(10) 0.4885(7) 0.3616(6)
O95 O 0.7605(11) 0.5183(8) 0.4795(6)
O96 O 0.8706(10) 0.2090(9) 0.4921(6)
O97 O 0.9749(13) 0.0783(9) 0.5146(8)
O103 O 0.6451(9) 0.3756(7) 0.5120(5)
Pr8 Pr 0.27715(8) 0.60037(6) 0.59123(4)
H7 H 0.00889581 0.761407 0.345048
H9 H 0.925433 0.38288 0.035215
H10 H 0.867897 0.297657 0.0160815
H11 H 0.69467 0.533729 0.495431
H12 H 0.806142 0.508461 0.513528
H14 H 0.719589 0.229415 0.0136401
H15 H 0.502127 0.374761 0.357738
H16 H 0.504328 0.319141 0.411482
H17 H 0.669858 0.233031 0.373394
H18 H 0.746449 0.23973 0.432591
H19 H 0.863347 0.405912 0.518241
H20 H 0.881155 0.328387 0.477288
H25 H 0.495074 0.400085 0.030213
H26 H 0.498023 0.308782 0.0283258
H27 H 0.814411 0.208073 0.461036
H28 H 0.84836 0.172822 0.522097
H29 H 0.855288 0.522554 0.119093
H30 H 0.905291 0.480141 0.0611097
H31 H 0.904584 0.0530642 0.502019
H39 H 0.539184 0.298 0.143989
H40 H 0.636176 0.249103 0.149131
H41 H 0.700549 0.409421 0.273859
H42 H 0.68557 0.319098 0.282572
H45 H 0.71716 0.43441 0.218332
H46 H 0.833171 0.414771 0.203978
H47 H 0.854886 0.53978 0.384233
H48 H 0.918889 0.469591 0.362509
O73 O 0.9580(10) 0.9435(8) 0.8905(6)
C4 C 0.9313(13) 0.9770(10) 0.7697(8)
H2 H 0.946651 0.928304 0.775520
C5 C 0.9168(14) 0.9959(10) 0.7109(8)
C7 C 0.9227(14) 0.9407(11) 0.6560(10)
O74 O 0.9397(11) 0.9644(8) 0.6077(6)
O75 O 0.9116(10) 0.8718(8) 0.6641(6)
O102 O 0.6795(10) 0.4238(7) 0.9816(6)
Pr7 Pr 0.28857(8) 0.61873(6) 0.91634(5)
Pr10 Pr 0.96492(8) 0.83054(6) 0.55903(4)
H13 H 0.626398 0.266389 0.982093
C4_2 C 0.0687(13) 0.0230(10) 0.2303(8)
H2_2 H 0.053349 0.071696 0.224480
C5_2 C 0.0832(14) 0.0041(10) 0.2891(8)
C7_2 C 0.0773(14) 0.0593(11) 0.3440(10)
H13_2 H 0.373602 0.733611 0.0179069
P1_2 P 0.4095(3) 0.0588(3) 0.7479(2)
P2_2 P 0.6640(3) 0.3891(3) 0.7472(2)
Zr1_2 Zr 0.63055(13) 0.20174(10) 0.83365(8)
Zr2_2 Zr 0.37784(13) 0.27582(10) 0.75172(8)
Zr3_2 Zr 0.60728(14) 0.18541(10) 0.65778(8)
W5_2 W 0.39562(6) 0.04871(4) 0.58962(3)
W6_2 W 0.19092(6) 0.12910(4) 0.68138(3)
W7_2 W 0.21781(6) 0.14321(4) 0.83279(3)
W8_2 W 0.44582(6) 0.07355(4) 0.90529(3)
W10_2 W 0.85439(6) 0.30490(4) 0.66136(3)
W11_2 W 0.87201(6) 0.32503(4) 0.82891(3)
W12_2 W 0.67937(6) 0.39849(4) 0.90507(3)
W13_2 W 0.45996(6) 0.46566(4) 0.82540(3)
W14_2 W 0.44729(6) 0.44693(4) 0.67369(3)
W15_2 W 0.65515(6) 0.36297(4) 0.58719(3)
W16_2 W 0.72136(6) 0.57368(4) 0.82533(3)
W17_2 W 0.91163(6) 0.49699(4) 0.74638(3)
W18_2 W 0.70847(6) 0.55499(4) 0.67195(3)
O5_2 O 0.3538(9) 0.0360(7) 0.5164(5)
O6_2 O 0.0878(9) 0.1401(7) 0.6367(5)
O7_2 O 0.1282(9) 0.1602(7) 0.8870(5)
O8_2 O 0.4301(10) 0.0694(8) 0.9806(6)
O10_2 O 0.9680(9) 0.2801(7) 0.6329(5)
O11_2 O 0.9888(8) 0.3057(7) 0.8551(5)
O13_2 O 0.3851(10) 0.5151(7) 0.8760(5)
O14_2 O 0.3666(9) 0.4886(6) 0.6268(5)
O16_2 O 0.7315(10) 0.6551(7) 0.8735(6)
O18_2 O 0.7117(9) 0.6240(7) 0.6237(5)
O20_2 O 0.1898(8) 0.0305(7) 0.8266(5)
O25_2 O 0.1694(9) 0.0189(7) 0.6862(5)
O29_2 O 0.6554(9) 0.0764(7) 0.6432(5)
O31_2 O 0.2915(9) 0.1058(7) 0.6243(5)
O32_2 O 0.4928(9) 0.1295(7) 0.5898(5)
O33_2 O 0.1341(8) 0.1360(6) 0.7597(5)
O34_2 O 0.2547(9) 0.2266(7) 0.6973(5)
O35_2 O 0.2740(8) 0.2376(7) 0.8185(5)
O36_2 O 0.3341(9) 0.1271(7) 0.8830(5)
O37_2 O 0.5392(9) 0.1547(7) 0.9042(5)
O38_2 O 0.5531(9) 0.0072(7) 0.8950(5)
O39_2 O 0.6864(8) 0.0954(7) 0.8371(5)
O40_2 O 0.7686(9) 0.2171(7) 0.6483(5)
O41_2 O 0.8751(9) 0.2921(7) 0.7448(5)
O42_2 O 0.8982(9) 0.4139(7) 0.6874(5)
O43_2 O 0.7961(9) 0.3422(7) 0.5915(5)
O44_2 O 0.8218(8) 0.3785(6) 0.9009(5)
O45_2 O 0.7892(9) 0.2383(7) 0.8414(5)
O46_2 O 0.9082(9) 0.4275(6) 0.8050(5)
O47_2 O 0.6379(9) 0.2985(7) 0.9037(5)
O48_2 O 0.5495(8) 0.4224(7) 0.8783(5)
O49_2 O 0.7322(8) 0.4970(7) 0.8779(5)
O50_2 O 0.3781(9) 0.3749(7) 0.8105(5)
O51_2 O 0.4127(9) 0.4960(6) 0.7517(5)
O52_2 O 0.5781(9) 0.5412(6) 0.8221(5)
O53_2 O 0.5644(9) 0.5267(7) 0.6776(5)
O54_2 O 0.3677(8) 0.3614(7) 0.6893(5)
O55_2 O 0.5266(9) 0.3930(7) 0.6168(5)
O56_2 O 0.6089(8) 0.2641(7) 0.5893(5)
O57_2 O 0.8623(9) 0.5678(7) 0.8082(5)
O58_2 O 0.7050(9) 0.6131(7) 0.7495(6)
O59_2 O 0.8534(9) 0.5545(7) 0.6871(6)
O60_2 O 0.7110(9) 0.4671(7) 0.6186(5)
O62_2 O 0.3345(9) 0.1186(7) 0.7522(5)
O63_2 O 0.4850(8) 0.0700(7) 0.8025(5)
O64_2 O 0.4694(8) 0.0614(7) 0.6904(5)
O65_2 O 0.6984(9) 0.3532(7) 0.8041(5)
O66_2 O 0.6861(8) 0.3409(6) 0.6897(5)
O67_2 O 0.5479(8) 0.3992(6) 0.7477(5)
O68_2 O 0.7269(8) 0.4695(6) 0.7474(5)
O69_2 O 0.4882(8) 0.2486(6) 0.8144(5)
O70_2 O 0.4735(9) 0.2368(7) 0.6857(6)
O71_2 O 0.6364(9) 0.1867(7) 0.7455(5)
O76_2 O 0.1800(11) 0.6974(9) 0.8692(6)
O77 O 0.0710(9) 0.7611(7) 0.9205(5)
C8_2 C 0.1004(14) 0.7319(11) 0.8729(8)
C10_2 C 0.0367(14) 0.7339(11) 0.8140(8)
C11_2 C 0.0829(15) 0.7182(11) 0.7592(8)
H5_2 H 0.151494 0.708683 0.756976
C12_2 C 0.0200(14) 0.7177(10) 0.7081(8)
C14_2 C 0.0629(15) 0.6978(11) 0.6466(8)
O78_2 O 0.1457(10) 0.6664(8) 0.6458(5)
O79_2 O 0.0166(9) 0.7148(7) 0.6004(5)
O84_2 O 0.4865(14) 0.6418(11) 0.9465(9)
O85_2 O 0.1596(13) 0.5039(10) 0.9220(9)
O86_2 O 0.1394(11) 0.6471(8) 0.9821(6)
O87_2 O 0.3421(14) 0.7435(9) 0.9788(7)
O88_2 O 0.2253(13) 0.5593(10) 0.8100(8)
O89_2 O 0.3855(12) 0.6989(10) 0.8464(7)
O90_2 O 0.3340(11) 0.6303(8) 0.7023(6)
O91_2 O 0.4742(9) 0.6287(7) 0.6000(6)
O92_2 O 0.3147(11) 0.7410(8) 0.5854(6)
O93_2 O 0.1255(10) 0.6165(8) 0.5233(6)
O94_2 O 0.1499(10) 0.5115(7) 0.6384(6)
O95_2 O 0.2395(11) 0.4817(8) 0.5205(6)
O96_2 O 0.1294(10) 0.7910(9) 0.5079(6)
O97_2 O 0.0251(13) 0.9217(9) 0.4854(8)
O101 O 0.1206(9) 0.8710(7) 0.6269(5)
H7_2 H 0.991104 0.238593 0.654952
H9_2 H 0.0745666 0.61712 0.964785
H10_2 H 0.132103 0.702343 0.983918
H11_2 H 0.30533 0.466271 0.504569
H12_2 H 0.193858 0.491539 0.486472
H14_2 H 0.280411 0.770585 0.98636
H15_2 H 0.497873 0.625239 0.642262
H16_2 H 0.495672 0.680859 0.588518
H17_2 H 0.330142 0.766969 0.626606
H18_2 H 0.253551 0.76027 0.567409
H19_2 H 0.136653 0.594088 0.481759
H20_2 H 0.118845 0.671613 0.522712
H25_2 H 0.504926 0.599915 0.969787
H26_2 H 0.501977 0.691218 0.971674
H27_2 H 0.185589 0.791927 0.538964
H28_2 H 0.15164 0.827178 0.477903
H29_2 H 0.144712 0.477446 0.880907
H30_2 H 0.0947095 0.519859 0.93889
H31_2 H 0.0954163 0.946936 0.497981
H39_2 H 0.460816 0.702 0.856011
H40_2 H 0.363824 0.750897 0.850869
H41_2 H 0.299451 0.590579 0.726141
H42_2 H 0.31443 0.680902 0.717428
H45_2 H 0.28284 0.56559 0.781668
H46_2 H 0.166829 0.585229 0.796022
H47_2 H 0.145114 0.46022 0.615767
H48_2 H 0.0811106 0.530409 0.637491
W1_2 W 0.23686(6) 0.93585(4) 0.82693(3)
W2_2 W 0.21461(6) 0.92355(4) 0.67385(3)
W3_2 W 0.41993(6) 0.85845(4) 0.74185(3)
W4_2 W 0.59796(6) 0.98151(4) 0.65415(3)
W9_2 W 0.62449(6) 0.99761(4) 0.82118(3)
O1_2 O 0.1593(9) 0.8967(7) 0.8803(5)
O3_2 O 0.4507(9) 0.7672(7) 0.7393(6)
O4_2 O 0.6858(9) 0.9278(7) 0.6224(6)
O9_2 O 0.7199(10) 0.9440(7) 0.8425(6)
O19_2 O 0.1627(8) 0.9027(7) 0.7535(5)
O21_2 O 0.3507(9) 0.9831(7) 0.8745(5)
O22_2 O 0.3219(9) 0.8549(7) 0.8057(5)
O23_2 O 0.3015(9) 0.8448(6) 0.6870(5)
O24_2 O 0.3094(9) 0.9628(7) 0.6194(5)
O26_2 O 0.4994(9) 0.9012(7) 0.6817(5)
O27_2 O 0.5173(9) 0.9119(7) 0.7986(5)
O28_2 O 0.6452(8) 0.9977(7) 0.7379(5)
O30_2 O 0.5014(8) 0.9815(6) 0.5893(5)
O61_2 O 0.3453(9) 0.9772(7) 0.7475(5)
H43_2 H 0.264794 0.849984 0.986781
N2_2 N 0.8821(12) 0.7508(9) 0.7663(7)
C9_2 C 0.9406(15) 0.7530(10) 0.8174(10)
H4_2 H 0.914215 0.767689 0.854631
C13_2 C 0.9211(14) 0.7343(10) 0.7128(9)
H6_2 H 0.880047 0.734079 0.678062
O98_2 O 0.9161(11) 0.7421(10) 0.4678(7)
O99_2 O 0.7998(10) 0.7467(9) 0.5759(7)
O100_2 O 0.8083(12) 0.8769(9) 0.5105(8)
H21_2 H 0.798979 0.69696 0.551346
H22_2 H 0.739524 0.771964 0.563702
H32_2 H 0.976669 0.960817 0.484016
H33_2 H 0.978094 0.71949 0.452885
H34_2 H 0.88787 0.770405 0.435994
H35_2 H 0.787213 0.844147 0.472612
H36_2 H 0.826209 0.930438 0.501196
H24_2 H 0.982581 0.798472 0.072426
O81_2 O 0.8770(11) 0.8088(8) 0.9533(7)
H37_2 H 0.835879 0.829794 0.922091
H38_2 H 0.839128 0.809236 0.991531
O72 O 0.9169(9) 0.0588(7) 0.9231(5)
N1 N 0.8861(12) 0.1203(9) 0.7518(7)
C1 C 0.9356(14) 0.0094(12) 0.8813(8)
C2 C 0.9012(13) 0.0980(12) 0.8070(9)
H1 H 0.895704 0.133867 0.839642
C3 C 0.9235(12) 0.0286(10) 0.8198(8)
C6 C 0.8925(13) 0.0689(10) 0.7017(8)
H3 H 0.880955 0.082439 0.662985
O82 O 0.7658(11) 0.1058(9) 0.9934(7)
O83 O 0.9679(13) 0.2137(9) 0.9593(7)
H23 H 0.993617 0.263179 0.982349
H44 H 0.762633 0.107539 0.948948
O17 O 0.9585(9) 0.4661(7) 0.2551(5)
H8 H 0.978385 0.674908 0.362142
O17_2 O 0.0415(9) 0.5339(7) 0.7449(5)
H8_2 H 0.0216155 0.325092 0.637858
O72_2 O 0.0831(9) 0.9412(7) 0.0769(5)
N1_2 N 0.1139(12) 0.8797(9) 0.2482(7)
C1_2 C 0.0644(14) 0.9906(12) 0.1187(8)
C2_2 C 0.0988(13) 0.9020(12) 0.1930(9)
H1_2 H 0.104296 0.866133 0.160358
C3_2 C 0.0765(12) 0.9714(10) 0.1802(8)
C6_2 C 0.1075(13) 0.9311(10) 0.2983(8)
H3_2 H 0.119045 0.917561 0.337015
O82_2 O 0.2342(11) 0.8942(9) 0.0066(7)
O83_2 O 0.0321(13) 0.7863(9) 0.0407(7)
H23_2 H 0.00638325 0.736821 0.017651
H44_2 H 0.237367 0.892461 0.0510519
loop_
_geom_bond_atom_site_label_1
_geom_bond_atom_site_label_2
_geom_bond_site_symmetry_1
_geom_bond_site_symmetry_2
O81 H37 1_555 1_555
O81 H38 1_555 1_555
N2 C9 1_555 1_555
C9 H4 1_555 1_555
C13 N2 1_555 1_555
H6 C13 1_555 1_555
O98 Pr9 1_555 1_555
O99 Pr9 1_555 1_555
O100 Pr9 1_555 1_555
O105 Pr9 1_555 1_555
O106 Pr9 1_555 1_555
O99 H21 1_555 1_555
O99 H22 1_555 1_555
O98 H33 1_555 1_555
O98 H34 1_555 1_555
O100 H35 1_555 1_555
O100 H36 1_555 1_555
W1 O1 1_555 1_555
W2 O2 1_555 1_555
W3 O3 1_555 1_555
W4 O4 1_555 1_555
W9 O9 1_555 1_555
O1 Pr1 1_555 1_555
O19 W1 1_555 1_555
O21 W1 1_555 1_555
O22 W1 1_555 1_555
O23 W2 1_555 1_555
O24 W2 1_555 1_555
O26 W3 1_555 1_555
O27 W3 1_555 1_555
O28 W4 1_555 1_555
O30 W4 1_555 1_555
O61 W1 1_555 1_555
O107 Pr1 1_555 1_555
W2 O19 1_555 1_555
W2 O61 1_555 1_555
W3 O22 1_555 1_555
W3 O23 1_555 1_555
W3 O61 1_555 1_555
W4 O26 1_555 1_555
W9 O27 1_555 1_555
W9 O28 1_555 1_555
P2 O65 1_555 1_555
Zr1 O37 1_555 1_555
Zr2 O34 1_555 1_555
Zr3 O29 1_555 1_555
W5 O5 1_555 1_555
W6 O6 1_555 1_555
W7 O7 1_555 1_555
W8 O8 1_555 1_555
W10 O10 1_555 1_555
W11 O11 1_555 1_555
W12 O12 1_555 1_555
W13 O13 1_555 1_555
W14 O14 1_555 1_555
W15 O15 1_555 1_555
W16 O16 1_555 1_555
W18 O18 1_555 1_555
O13 Pr2 1_555 1_555
O14 Pr3 1_555 1_555
O15 Pr8 1_555 1_555
O31 W5 1_555 1_555
O32 Zr3 1_555 1_555
O33 W6 1_555 1_555
O34 W6 1_555 1_555
O35 Zr2 1_555 1_555
O36 W7 1_555 1_555
O37 W8 1_555 1_555
O38 W8 1_555 1_555
O39 Zr1 1_555 1_555
O40 Zr3 1_555 1_555
O41 W10 1_555 1_555
O42 W10 1_555 1_555
O43 W10 1_555 1_555
O44 W11 1_555 1_555
O45 Zr1 1_555 1_555
O46 W11 1_555 1_555
O47 Zr1 1_555 1_555
O48 W12 1_555 1_555
O49 W12 1_555 1_555
O50 Zr2 1_555 1_555
O51 W13 1_555 1_555
O52 W13 1_555 1_555
O53 W14 1_555 1_555
O54 Zr2 1_555 1_555
O55 W14 1_555 1_555
O56 Zr3 1_555 1_555
O57 W16 1_555 1_555
O58 W16 1_555 1_555
O59 W17 1_555 1_555
O60 W15 1_555 1_555
O62 P1 1_555 1_555
O63 P1 1_555 1_555
O64 P1 1_555 1_555
O65 W11 1_555 1_555
O66 P2 1_555 1_555
O67 P2 1_555 1_555
O68 P2 1_555 1_555
O69 Zr1 1_555 1_555
O70 Zr2 1_555 1_555
O71 Zr1 1_555 1_555
Pr2 O76 1_555 1_555
Pr3 O78 1_555 1_555
O76 C8 1_555 1_555
O107 C8 1_555 1_555
C8 C10 1_555 1_555
C11 C10 1_555 1_555
H5 C11 1_555 1_555
C12 C11 1_555 1_555
C14 C12 1_555 1_555
O78 C14 1_555 1_555
O79 C14 1_555 1_555
O84 Pr2 1_555 1_555
O85 Pr2 1_555 1_555
O86 Pr2 1_555 1_555
O87 Pr2 1_555 1_555
O88 Pr2 1_555 1_555
O89 Pr2 1_555 1_555
O90 Pr3 1_555 1_555
O91 Pr3 1_555 1_555
O92 Pr3 1_555 1_555
O93 Pr3 1_555 1_555
O94 Pr3 1_555 1_555
O95 Pr3 1_555 1_555
O103 Pr3 1_555 1_555
Zr2 O69 1_555 1_555
Zr3 O70 1_555 1_555
Zr3 O71 1_555 1_555
W5 O32 1_555 1_555
W5 O64 1_555 1_555
W6 O25 1_555 1_555
W6 O31 1_555 1_555
W6 O62 1_555 1_555
W7 O20 1_555 1_555
W7 O33 1_555 1_555
W7 O35 1_555 1_555
W7 O62 1_555 1_555
W8 O36 1_555 1_555
W8 O63 1_555 1_555
W10 O40 1_555 1_555
W10 O66 1_555 1_555
W11 O41 1_555 1_555
W11 O45 1_555 1_555
W12 O44 1_555 1_555
W12 O47 1_555 1_555
W12 O65 1_555 1_555
W13 O48 1_555 1_555
W13 O50 1_555 1_555
W13 O67 1_555 1_555
W14 O51 1_555 1_555
W14 O54 1_555 1_555
W14 O67 1_555 1_555
W15 O43 1_555 1_555
W15 O55 1_555 1_555
W15 O56 1_555 1_555
W15 O66 1_555 1_555
W16 O49 1_555 1_555
W16 O52 1_555 1_555
W16 O68 1_555 1_555
W17 O42 1_555 1_555
W17 O46 1_555 1_555
W17 O57 1_555 1_555
W17 O68 1_555 1_555
W18 O53 1_555 1_555
W18 O58 1_555 1_555
W18 O59 1_555 1_555
W18 O60 1_555 1_555
W18 O68 1_555 1_555
O10 H7 1_555 1_555
O86 H9 1_555 1_555
O86 H10 1_555 1_555
O95 H11 1_555 1_555
O95 H12 1_555 1_555
O87 H14 1_555 1_555
O91 H15 1_555 1_555
O91 H16 1_555 1_555
O92 H17 1_555 1_555
O92 H18 1_555 1_555
O93 H19 1_555 1_555
O93 H20 1_555 1_555
O84 H25 1_555 1_555
O84 H26 1_555 1_555
O96 H27 1_555 1_555
O96 H28 1_555 1_555
O85 H29 1_555 1_555
O85 H30 1_555 1_555
O97 H31 1_555 1_555
O89 H39 1_555 1_555
O89 H40 1_555 1_555
O90 H41 1_555 1_555
O90 H42 1_555 1_555
O88 H45 1_555 1_555
O88 H46 1_555 1_555
O94 H47 1_555 1_555
O94 H48 1_555 1_555
H2 C4 1_555 1_555
C5 C4 1_555 1_555
C7 C5 1_555 1_555
O74 C7 1_555 1_555
O75 C7 1_555 1_555
Pr10 O74 1_555 1_555
O75 Pr10 1_555 1_555
H2_2 C4_2 1_555 1_555
C5_2 C4_2 1_555 1_555
C7_2 C5_2 1_555 1_555
O105 C7_2 1_555 1_555
O106 C7_2 1_555 1_555
P2_2 O65_2 1_555 1_555
Zr1_2 O37_2 1_555 1_555
Zr2_2 O34_2 1_555 1_555
Zr3_2 O29_2 1_555 1_555
W5_2 O5_2 1_555 1_555
W6_2 O6_2 1_555 1_555
W7_2 O7_2 1_555 1_555
W8_2 O8_2 1_555 1_555
W10_2 O10_2 1_555 1_555
W11_2 O11_2 1_555 1_555
W12_2 O102 1_555 1_555
W13_2 O13_2 1_555 1_555
W14_2 O14_2 1_555 1_555
W15_2 O103 1_555 1_555
W16_2 O16_2 1_555 1_555
W18_2 O18_2 1_555 1_555
O13_2 Pr7 1_555 1_555
O14_2 Pr8 1_555 1_555
O31_2 W5_2 1_555 1_555
O32_2 Zr3_2 1_555 1_555
O33_2 W6_2 1_555 1_555
O34_2 W6_2 1_555 1_555
O35_2 Zr2_2 1_555 1_555
O36_2 W7_2 1_555 1_555
O37_2 W8_2 1_555 1_555
O38_2 W8_2 1_555 1_555
O39_2 Zr1_2 1_555 1_555
O40_2 Zr3_2 1_555 1_555
O41_2 W10_2 1_555 1_555
O42_2 W10_2 1_555 1_555
O43_2 W10_2 1_555 1_555
O44_2 W11_2 1_555 1_555
O45_2 Zr1_2 1_555 1_555
O46_2 W11_2 1_555 1_555
O47_2 Zr1_2 1_555 1_555
O48_2 W12_2 1_555 1_555
O49_2 W12_2 1_555 1_555
O50_2 Zr2_2 1_555 1_555
O51_2 W13_2 1_555 1_555
O52_2 W13_2 1_555 1_555
O53_2 W14_2 1_555 1_555
O54_2 Zr2_2 1_555 1_555
O55_2 W14_2 1_555 1_555
O56_2 Zr3_2 1_555 1_555
O57_2 W16_2 1_555 1_555
O58_2 W16_2 1_555 1_555
O59_2 W17_2 1_555 1_555
O60_2 W15_2 1_555 1_555
O62_2 P1_2 1_555 1_555
O63_2 P1_2 1_555 1_555
O64_2 P1_2 1_555 1_555
O65_2 W11_2 1_555 1_555
O66_2 P2_2 1_555 1_555
O67_2 P2_2 1_555 1_555
O68_2 P2_2 1_555 1_555
O69_2 Zr1_2 1_555 1_555
O70_2 Zr2_2 1_555 1_555
O71_2 Zr1_2 1_555 1_555
Pr7 O76_2 1_555 1_555
Pr8 O78_2 1_555 1_555
O76_2 C8_2 1_555 1_555
O77 C8_2 1_555 1_555
C8_2 C10_2 1_555 1_555
C11_2 C10_2 1_555 1_555
H5_2 C11_2 1_555 1_555
C12_2 C11_2 1_555 1_555
C14_2 C12_2 1_555 1_555
O78_2 C14_2 1_555 1_555
O79_2 C14_2 1_555 1_555
O84_2 Pr7 1_555 1_555
O85_2 Pr7 1_555 1_555
O86_2 Pr7 1_555 1_555
O87_2 Pr7 1_555 1_555
O88_2 Pr7 1_555 1_555
O89_2 Pr7 1_555 1_555
O90_2 Pr8 1_555 1_555
O91_2 Pr8 1_555 1_555
O92_2 Pr8 1_555 1_555
O93_2 Pr8 1_555 1_555
O94_2 Pr8 1_555 1_555
O95_2 Pr8 1_555 1_555
Pr6 O77 1_555 1_555
Zr2_2 O69_2 1_555 1_555
Zr3_2 O70_2 1_555 1_555
Zr3_2 O71_2 1_555 1_555
W5_2 O32_2 1_555 1_555
W5_2 O64_2 1_555 1_555
W6_2 O25_2 1_555 1_555
W6_2 O31_2 1_555 1_555
W6_2 O62_2 1_555 1_555
W7_2 O20_2 1_555 1_555
W7_2 O33_2 1_555 1_555
W7_2 O35_2 1_555 1_555
W7_2 O62_2 1_555 1_555
W8_2 O36_2 1_555 1_555
W8_2 O63_2 1_555 1_555
W10_2 O40_2 1_555 1_555
W10_2 O66_2 1_555 1_555
W11_2 O41_2 1_555 1_555
W11_2 O45_2 1_555 1_555
W12_2 O44_2 1_555 1_555
W12_2 O47_2 1_555 1_555
W12_2 O65_2 1_555 1_555
W13_2 O48_2 1_555 1_555
W13_2 O50_2 1_555 1_555
W13_2 O67_2 1_555 1_555
W14_2 O51_2 1_555 1_555
W14_2 O54_2 1_555 1_555
W14_2 O67_2 1_555 1_555
W15_2 O43_2 1_555 1_555
W15_2 O55_2 1_555 1_555
W15_2 O56_2 1_555 1_555
W15_2 O66_2 1_555 1_555
W16_2 O49_2 1_555 1_555
W16_2 O52_2 1_555 1_555
W16_2 O68_2 1_555 1_555
W17_2 O42_2 1_555 1_555
W17_2 O46_2 1_555 1_555
W17_2 O57_2 1_555 1_555
W17_2 O68_2 1_555 1_555
W18_2 O53_2 1_555 1_555
W18_2 O58_2 1_555 1_555
W18_2 O59_2 1_555 1_555
W18_2 O60_2 1_555 1_555
W18_2 O68_2 1_555 1_555
O10_2 H7_2 1_555 1_555
O86_2 H9_2 1_555 1_555
O86_2 H10_2 1_555 1_555
O95_2 H11_2 1_555 1_555
O95_2 H12_2 1_555 1_555
O87_2 H14_2 1_555 1_555
O91_2 H15_2 1_555 1_555
O91_2 H16_2 1_555 1_555
O92_2 H17_2 1_555 1_555
O92_2 H18_2 1_555 1_555
O93_2 H19_2 1_555 1_555
O93_2 H20_2 1_555 1_555
O84_2 H25_2 1_555 1_555
O84_2 H26_2 1_555 1_555
O96_2 H27_2 1_555 1_555
O96_2 H28_2 1_555 1_555
O85_2 H29_2 1_555 1_555
O85_2 H30_2 1_555 1_555
O97_2 H31_2 1_555 1_555
O89_2 H39_2 1_555 1_555
O89_2 H40_2 1_555 1_555
O90_2 H41_2 1_555 1_555
O90_2 H42_2 1_555 1_555
O88_2 H45_2 1_555 1_555
O88_2 H46_2 1_555 1_555
O94_2 H47_2 1_555 1_555
O94_2 H48_2 1_555 1_555
W1_2 O1_2 1_555 1_555
W2_2 O101 1_555 1_555
W3_2 O3_2 1_555 1_555
W4_2 O4_2 1_555 1_555
W9_2 O9_2 1_555 1_555
O1_2 Pr6 1_555 1_555
O19_2 W1_2 1_555 1_555
O21_2 W1_2 1_555 1_555
O22_2 W1_2 1_555 1_555
O23_2 W2_2 1_555 1_555
O24_2 W2_2 1_555 1_555
O26_2 W3_2 1_555 1_555
O27_2 W3_2 1_555 1_555
O28_2 W4_2 1_555 1_555
O30_2 W4_2 1_555 1_555
O61_2 W1_2 1_555 1_555
W2_2 O19_2 1_555 1_555
W2_2 O61_2 1_555 1_555
W3_2 O22_2 1_555 1_555
W3_2 O23_2 1_555 1_555
W3_2 O61_2 1_555 1_555
W4_2 O26_2 1_555 1_555
W9_2 O27_2 1_555 1_555
W9_2 O28_2 1_555 1_555
N2_2 C9_2 1_555 1_555
C9_2 H4_2 1_555 1_555
C13_2 N2_2 1_555 1_555
H6_2 C13_2 1_555 1_555
O98_2 Pr10 1_555 1_555
O99_2 Pr10 1_555 1_555
O100_2 Pr10 1_555 1_555
O99_2 H21_2 1_555 1_555
O99_2 H22_2 1_555 1_555
O98_2 H33_2 1_555 1_555
O98_2 H34_2 1_555 1_555
O100_2 H35_2 1_555 1_555
O100_2 H36_2 1_555 1_555
O81_2 H37_2 1_555 1_555
O81_2 H38_2 1_555 1_555
O72 C1 1_555 1_555
N1 C2 1_555 1_555
C1 C3 1_555 1_555
C2 H1 1_555 1_555
C3 C2 1_555 1_555
C6 N1 1_555 1_555
H3 C6 1_555 1_555
O83 H23 1_555 1_555
O82 H44 1_555 1_555
O72_2 C1_2 1_555 1_555
N1_2 C2_2 1_555 1_555
C1_2 C3_2 1_555 1_555
C2_2 H1_2 1_555 1_555
C3_2 C2_2 1_555 1_555
C6_2 N1_2 1_555 1_555
H3_2 C6_2 1_555 1_555
O83_2 H23_2 1_555 1_555
O82_2 H44_2 1_555 1_555

#END
