
###############################################################################
#
# This file contains modified crystal structure data generated from the
# MOF subset of the Cambridge Structural Database (CSD) v543 
# hosted by the Cambridge Crystallographic Data Centre (CCDC).
#
# This work is licensed under the Creative Commons
# Attribution-NonCommercial-ShareAlike 4.0 International License.
# To view a copy of this license, visit
# http://creativecommons.org/licenses/by-nc-sa/4.0/
# or send a letter to
# Creative Commons, PO Box 1866, Mountain View, CA 94042, USA.
#
# CIF created using the CSD Python API on 29 September 2022
# The structure has been converted into the P1 space group
# The structure has a 3D framework
# The original CSD entry SERWAP is in the tetragonal crystal system
# The original CSD entry SERWAP is in a Sohncke space group
# The framework has been calculated to contain at least 10.0% void space
# The void calculation uses a probe of radius 1.32A, grid spacing 0.4
#
###############################################################################

data_SERWAP
_chemical_formula_moiety         '(C176 H192 F36 N16 O32 Si10 Zn6)n'
_symmetry_cell_setting           triclinic
_symmetry_space_group_name_H-M   'P 1'
_symmetry_Int_Tables_number      1
_space_group_name_Hall           'P 1'
loop_
_symmetry_equiv_pos_site_id
_symmetry_equiv_pos_as_xyz
1 x,y,z
_cell_length_a                   22.0440(15)
_cell_length_b                   22.0440(15)
_cell_length_c                   15.1513(18)
_cell_angle_alpha                90
_cell_angle_beta                 90
_cell_angle_gamma                90
_cell_volume                     7362.59
loop_
_atom_site_label
_atom_site_type_symbol
_atom_site_fract_x
_atom_site_fract_y
_atom_site_fract_z
Zn8 Zn 0.5000 0.5000 0.01429(9)
Zn2 Zn 0.5000 0.5000 0.51289(9)
Zn4 Zn 0.0000 0.0000 0.49761(11)
Si1 Si 0.5000 0.5000 0.2629(3)
Si2 Si 0.5000 0.5000 0.7630(4)
Si3 Si 0.0000 0.0000 0.2480(4)
Si4 Si 0.0000 0.0000 0.7512(4)
F1 F 0.5000 0.5000 0.8774(7)
F2 F 0.5000 0.5000 0.1491(5)
F3 F 0.5169(2) 0.42654(16) 0.2595(4)
F4 F 0.5000 0.5000 0.3760(6)
F5 F 0.5000 0.5000 0.6528(6)
F6 F 0.5727(3) 0.4974(7) 0.7680(5)
F7 F -0.0000 -0.0000 0.1389(6)
F9 F -0.0000 -0.0000 0.3664(7)
F10 F -0.0000 -0.0000 0.6331(7)
F11 F 0.0723(3) 0.0095(5) 0.7485(5)
F12 F 0.0000 0.0000 0.8579(8)
N1 N 0.42979(19) 0.43633(19) 0.0142(3)
C1 C 0.4312(2) 0.3905(2) 0.0771(3)
H1 H 0.4631 0.3892 0.1193
C2 C 0.3859(2) 0.3466(2) 0.0785(3)
H2 H 0.3869 0.3153 0.1215
C3 C 0.3393(2) 0.3485(2) 0.0168(3)
C6 C 0.2916(4) 0.2974(4) 0.0136(6)
C7 C 0.2318(4) 0.3112(4) 0.0130(6)
C8 C 0.1875(4) 0.2633(3) 0.0087(6)
H5 H 0.1455 0.2725 0.0057
C9 C 0.2080(4) 0.2008(4) 0.0089(6)
C10 C 0.2711(4) 0.1919(4) 0.0189(6)
C11 C 0.3107(4) 0.2379(4) 0.0223(6)
H6 H 0.3526 0.2296 0.0309
O1 O 0.2155(3) 0.3706(3) 0.0018(5)
C12 C 0.1493(4) 0.3857(4) 0.0021(9)
H8 H 0.1281 0.3625 0.0488
C13 C 0.1435(5) 0.4515(5) 0.0190(12)
H9 H 0.1580 0.4547 0.0814
O2 O 0.0815(4) 0.4719(6) 0.0265(10)
H10 H 0.0649 0.4546 0.0696
H12 H 0.2022 0.5237 0.0186
O3 O 0.2870(3) 0.1321(3) 0.0275(7)
C16 C 0.3497(6) 0.0463(5) 0.0275(11)
H16 H 0.3355 0.0392 0.0893
O4 O 0.4132(6) 0.0358(6) 0.001(2)
C18 C 0.1616(3) 0.1540(3) 0.0073(5)
N2 N 0.0696(3) 0.0682(3) 0.0008(4)
C21 C 0.1118(3) 0.0676(3) 0.0625(5)
H23 H 0.1105 0.0362 0.1054
C22 C 0.1569(3) 0.1090(3) 0.0680(5)
H24 H 0.1856 0.1066 0.1147
N3 N 0.4327(2) 0.4315(2) 0.5092(4)
C23 C 0.4326(3) 0.3868(3) 0.4485(4)
H25 H 0.4638 0.3873 0.4053
C24 C 0.3927(4) 0.3425(3) 0.4444(5)
H26 H 0.3957 0.3126 0.3995
C25 C 0.3453(3) 0.3396(4) 0.5069(5)
C26 C 0.3436(3) 0.3862(4) 0.5703(5)
H27 H 0.3117 0.3887 0.6124
C27 C 0.3898(3) 0.4280(3) 0.5689(5)
H28 H 0.3908 0.4570 0.6153
C28 C 0.2950(2) 0.2928(2) 0.5077(4)
C29 C 0.3078(2) 0.2312(2) 0.5018(5)
C30 C 0.2608(2) 0.1892(2) 0.4999(4)
H29 H 0.2695 0.1471 0.4959
C31 C 0.2009(2) 0.2089(2) 0.5039(4)
C32 C 0.1881(2) 0.2705(2) 0.5098(4)
C33 C 0.2351(2) 0.3124(2) 0.5117(4)
H30 H 0.2264 0.3546 0.5157
O5 O 0.3685(2) 0.2131(2) 0.4828(5)
C34 C 0.3897(5) 0.1582(5) 0.5310(9)
H31 H 0.3879 0.1652 0.5955
H32 H 0.3634 0.1231 0.5166
C35 C 0.4528(5) 0.1459(5) 0.5033(11)
H33 H 0.4556 0.1573 0.4395
O6 O 0.4698(6) 0.0791(6) 0.5094(16)
H34 H 0.4453 0.0585 0.4793
C36 C 0.4989(8) 0.1870(8) 0.5537(17)
H35 H 0.4955 0.2288 0.5324
H36 H 0.5402 0.1721 0.5433
H37 H 0.4901 0.1857 0.6171
O7 O 0.1299(3) 0.2855(3) 0.5000(6)
C37 C 0.1150(4) 0.3486(4) 0.4994(7)
H38 H 0.1355 0.3698 0.4502
H39 H 0.1265 0.3681 0.5558
C38 C 0.0451(6) 0.3487(6) 0.4869(14)
H40 H 0.0353 0.3340 0.4261
O8 O 0.0337(5) 0.4145(4) 0.4914(11)
H41 H 0.0631 0.4332 0.4689
C39 C 0.0048(11) 0.3179(12) 0.5508(14)
H42 H 0.0137 0.2744 0.5512
H44 H 0.0117 0.3347 0.6099
C40 C 0.1509(2) 0.1638(2) 0.4968(4)
C41 C 0.1540(2) 0.1182(3) 0.4336(3)
H45 H 0.1855 0.1186 0.3908
C42 C 0.1111(2) 0.0720(2) 0.4331(3)
H46 H 0.1132 0.0408 0.3899
N4 N 0.0651(2) 0.0714(2) 0.4958(4)
C43 C 0.0619(2) 0.1170(3) 0.5590(3)
H47 H 0.0305 0.1166 0.6019
C44 C 0.1049(3) 0.1632(2) 0.5595(4)
H48 H 0.1027 0.1944 0.6027
F13 F 0.4831(2) 0.57346(16) 0.2595(4)
F14 F 0.57346(16) 0.5169(2) 0.2595(4)
F15 F 0.42654(16) 0.4831(2) 0.2595(4)
F16 F 0.4273(3) 0.5026(7) 0.7680(5)
F17 F 0.5026(7) 0.5727(3) 0.7680(5)
F18 F 0.4974(7) 0.4273(3) 0.7680(5)
F21 F 0.01903(18) 0.07321(17) 0.2467(3)
H187 H 0.3244 0.0376 0.5338
Zn12 Zn -0.0000 -0.0000 0.99946(12)
N17 N 0.57021(19) 0.56367(19) 0.0142(3)
N18 N 0.56367(19) 0.42979(19) 0.0142(3)
N19 N 0.43633(19) 0.57021(19) 0.0142(3)
N20 N 0.5673(2) 0.5685(2) 0.5092(4)
N21 N 0.5685(2) 0.4327(2) 0.5092(4)
N22 N 0.4315(2) 0.5673(2) 0.5092(4)
C4 C 0.3379(2) 0.3944(2) 0.9538(3)
H3 H 0.3060 0.3957 0.9117
C5 C 0.3831(2) 0.4383(2) 0.9525(3)
H4 H 0.3822 0.4696 0.9095
H7 H 0.1309 0.3753 0.9445
C14 C 0.1739(12) 0.5053(10) 0.9767(16)
H11 H 0.1960 0.4920 0.9240
H13 H 0.1431 0.5352 0.9597
C15 C 0.3382(5) 0.1092(5) 0.9785(11)
H14 H 0.3738 0.1364 0.9834
H15 H 0.3282 0.1031 0.9155
C17 C 0.3259(7) 0.0113(8) 0.9532(17)
H18 H 0.3560 0.0105 0.9056
H19 H 0.2884 0.0302 0.9317
C19 C 0.1161(3) 0.1567(3) 0.9459(5)
H21 H 0.1150 0.1889 0.9043
C20 C 0.0709(3) 0.1113(3) 0.9449(5)
H22 H 0.0403 0.1130 0.9007
H113 H 0.0017 0.4192 0.9952
H116 H 0.0302 0.3173 0.9725
Zn4_2 Zn -0.0000 1.0000 0.49761(11)
Si3_2 Si 0.0000 1.0000 0.2480(4)
Si4_2 Si -0.0000 1.0000 0.7512(4)
F7_2 F 0.0000 1.0000 0.1389(6)
F9_2 F 0.0000 1.0000 0.3664(7)
F10_2 F -0.0000 1.0000 0.6331(7)
F12_2 F 0.0000 1.0000 0.8579(8)
F19 F 0.07321(17) 0.98097(18) 0.2467(3)
F24 F 0.0095(5) 0.9277(3) 0.7485(5)
H91 H 0.0376 0.6756 0.5338
C133 C 0.3905(2) 0.5688(2) 0.0771(3)
H145 H 0.3892 0.5369 0.1193
C134 C 0.3466(2) 0.6141(2) 0.0785(3)
H146 H 0.3153 0.6131 0.1215
C135 C 0.3485(2) 0.6607(2) 0.0168(3)
C138 C 0.2974(4) 0.7084(4) 0.0136(6)
C139 C 0.3112(4) 0.7682(4) 0.0130(6)
C140 C 0.2633(3) 0.8125(4) 0.0087(6)
H149 H 0.2725 0.8545 0.0057
C141 C 0.2008(4) 0.7920(4) 0.0089(6)
C142 C 0.1919(4) 0.7289(4) 0.0189(6)
C143 C 0.2379(4) 0.6893(4) 0.0223(6)
H150 H 0.2296 0.6474 0.0309
O25 O 0.3706(3) 0.7845(3) 0.0018(5)
C144 C 0.3857(4) 0.8507(4) 0.0021(9)
H152 H 0.3625 0.8719 0.0488
C145 C 0.4515(5) 0.8565(5) 0.0190(12)
H153 H 0.4547 0.8420 0.0814
O26 O 0.4719(6) 0.9185(4) 0.0265(10)
H154 H 0.4546 0.9351 0.0696
H156 H 0.5237 0.7978 0.0186
O27 O 0.1321(3) 0.7130(3) 0.0275(7)
C148 C 0.0463(5) 0.6503(6) 0.0275(11)
H160 H 0.0392 0.6645 0.0893
O28 O 0.0358(6) 0.5868(6) 0.001(2)
C150 C 0.1540(3) 0.8384(3) 0.0073(5)
N14 N 0.0682(3) 0.9304(3) 0.0008(4)
C153 C 0.0676(3) 0.8882(3) 0.0625(5)
H167 H 0.0362 0.8895 0.1054
C154 C 0.1090(3) 0.8431(3) 0.0680(5)
H168 H 0.1066 0.8144 0.1147
C155 C 0.3868(3) 0.5674(3) 0.4485(4)
H169 H 0.3873 0.5362 0.4053
C156 C 0.3425(3) 0.6073(4) 0.4444(5)
H170 H 0.3126 0.6043 0.3995
C157 C 0.3396(4) 0.6547(3) 0.5069(5)
C158 C 0.3862(4) 0.6564(3) 0.5703(5)
H171 H 0.3887 0.6883 0.6124
C159 C 0.4280(3) 0.6102(3) 0.5689(5)
H172 H 0.4570 0.6092 0.6153
C160 C 0.2928(2) 0.7050(2) 0.5077(4)
C161 C 0.2312(2) 0.6922(2) 0.5018(5)
C162 C 0.1892(2) 0.7392(2) 0.4999(4)
H173 H 0.1471 0.7305 0.4959
C163 C 0.2089(2) 0.7991(2) 0.5039(4)
C164 C 0.2705(2) 0.8119(2) 0.5098(4)
C165 C 0.3124(2) 0.7649(2) 0.5117(4)
H174 H 0.3546 0.7736 0.5157
O29 O 0.2131(2) 0.6315(2) 0.4828(5)
C166 C 0.1582(5) 0.6103(5) 0.5310(9)
H175 H 0.1652 0.6121 0.5955
H176 H 0.1231 0.6366 0.5166
C167 C 0.1459(5) 0.5472(5) 0.5033(11)
H177 H 0.1573 0.5444 0.4395
O30 O 0.0791(6) 0.5302(6) 0.5094(16)
H178 H 0.0585 0.5547 0.4793
C168 C 0.1870(8) 0.5011(8) 0.5537(17)
H179 H 0.2288 0.5045 0.5324
H180 H 0.1721 0.4598 0.5433
H181 H 0.1857 0.5099 0.6171
O31 O 0.2855(3) 0.8701(3) 0.5000(6)
C169 C 0.3486(4) 0.8850(4) 0.4994(7)
H182 H 0.3698 0.8645 0.4502
H183 H 0.3681 0.8735 0.5558
C170 C 0.3487(6) 0.9549(6) 0.4869(14)
H184 H 0.3340 0.9647 0.4261
O32 O 0.4145(4) 0.9663(5) 0.4914(11)
H185 H 0.4332 0.9369 0.4689
C171 C 0.3179(12) 0.9952(11) 0.5508(14)
H186 H 0.2744 0.9863 0.5512
H188 H 0.3347 0.9883 0.6099
C172 C 0.1638(2) 0.8491(2) 0.4968(4)
C173 C 0.1182(3) 0.8460(2) 0.4336(3)
H189 H 0.1186 0.8145 0.3908
C174 C 0.0720(2) 0.8889(2) 0.4331(3)
H190 H 0.0408 0.8868 0.3899
N16 N 0.0714(2) 0.9349(2) 0.4958(4)
C175 C 0.1170(3) 0.9381(2) 0.5590(3)
H191 H 0.1166 0.9695 0.6019
C176 C 0.1632(2) 0.8951(3) 0.5595(4)
H192 H 0.1944 0.8973 0.6027
Zn12_2 Zn -0.0000 1.0000 0.99946(12)
H17 H 0.4192 0.9983 0.9952
H20 H 0.3173 0.9698 0.9725
C136 C 0.3944(2) 0.6621(2) 0.9538(3)
H147 H 0.3957 0.6940 0.9117
C137 C 0.4383(2) 0.6169(2) 0.9525(3)
H148 H 0.4696 0.6178 0.9095
H151 H 0.3753 0.8691 0.9445
C146 C 0.5053(10) 0.8261(12) 0.9767(16)
H155 H 0.4920 0.8040 0.9240
H157 H 0.5352 0.8569 0.9597
C147 C 0.1092(5) 0.6618(5) 0.9785(11)
H158 H 0.1364 0.6262 0.9834
H159 H 0.1031 0.6718 0.9155
C149 C 0.0113(8) 0.6741(7) 0.9532(17)
H162 H 0.0105 0.6440 0.9056
H163 H 0.0302 0.7116 0.9317
C151 C 0.1567(3) 0.8839(3) 0.9459(5)
H165 H 0.1889 0.8850 0.9043
C152 C 0.1113(3) 0.9291(3) 0.9449(5)
H166 H 0.1130 0.9597 0.9007
Zn4_3 Zn 1.0000 0.0000 0.49761(11)
Si3_3 Si 1.0000 0.0000 0.2480(4)
Si4_3 Si 1.0000 0.0000 0.7512(4)
F7_3 F 1.0000 -0.0000 0.1389(6)
F8 F 0.92679(17) 0.01903(18) 0.2467(3)
F9_3 F 1.0000 -0.0000 0.3664(7)
F10_3 F 1.0000 -0.0000 0.6331(7)
F12_3 F 1.0000 0.0000 0.8579(8)
H43 H 0.9624 0.3244 0.5338
F23 F 0.9905(5) 0.0723(3) 0.7485(5)
C89 C 0.6095(2) 0.4312(2) 0.0771(3)
H97 H 0.6108 0.4631 0.1193
C90 C 0.6534(2) 0.3859(2) 0.0785(3)
H98 H 0.6847 0.3869 0.1215
C91 C 0.6515(2) 0.3393(2) 0.0168(3)
C94 C 0.7026(4) 0.2916(4) 0.0136(6)
C95 C 0.6888(4) 0.2318(4) 0.0130(6)
C96 C 0.7367(3) 0.1875(4) 0.0087(6)
H101 H 0.7275 0.1455 0.0057
C97 C 0.7992(4) 0.2080(4) 0.0089(6)
C98 C 0.8081(4) 0.2711(4) 0.0189(6)
C99 C 0.7621(4) 0.3107(4) 0.0223(6)
H102 H 0.7704 0.3526 0.0309
O17 O 0.6294(3) 0.2155(3) 0.0018(5)
C100 C 0.6143(4) 0.1493(4) 0.0021(9)
H104 H 0.6375 0.1281 0.0488
C101 C 0.5485(5) 0.1435(5) 0.0190(12)
H105 H 0.5453 0.1580 0.0814
O18 O 0.5281(6) 0.0815(4) 0.0265(10)
H106 H 0.5454 0.0649 0.0696
H108 H 0.4763 0.2022 0.0186
O19 O 0.8679(3) 0.2870(3) 0.0275(7)
C104 C 0.9537(5) 0.3497(6) 0.0275(11)
H112 H 0.9608 0.3355 0.0893
O20 O 0.9642(6) 0.4132(6) 0.001(2)
C106 C 0.8460(3) 0.1616(3) 0.0073(5)
N10 N 0.9318(3) 0.0696(3) 0.0008(4)
C109 C 0.9324(3) 0.1118(3) 0.0625(5)
H119 H 0.9638 0.1105 0.1054
C110 C 0.8910(3) 0.1569(3) 0.0680(5)
H120 H 0.8934 0.1856 0.1147
C111 C 0.6132(3) 0.4326(3) 0.4485(4)
H121 H 0.6127 0.4638 0.4053
C112 C 0.6575(3) 0.3927(4) 0.4444(5)
H122 H 0.6874 0.3957 0.3995
C113 C 0.6604(4) 0.3453(3) 0.5069(5)
C114 C 0.6138(4) 0.3436(3) 0.5703(5)
H123 H 0.6113 0.3117 0.6124
C115 C 0.5720(3) 0.3898(3) 0.5689(5)
H124 H 0.5430 0.3908 0.6153
C116 C 0.7072(2) 0.2950(2) 0.5077(4)
C117 C 0.7688(2) 0.3078(2) 0.5018(5)
C118 C 0.8108(2) 0.2608(2) 0.4999(4)
H125 H 0.8529 0.2695 0.4959
C119 C 0.7911(2) 0.2009(2) 0.5039(4)
C120 C 0.7295(2) 0.1881(2) 0.5098(4)
C121 C 0.6876(2) 0.2351(2) 0.5117(4)
H126 H 0.6454 0.2264 0.5157
O21 O 0.7869(2) 0.3685(2) 0.4828(5)
C122 C 0.8418(5) 0.3897(5) 0.5310(9)
H127 H 0.8348 0.3879 0.5955
H128 H 0.8769 0.3634 0.5166
C123 C 0.8541(5) 0.4528(5) 0.5033(11)
H129 H 0.8427 0.4556 0.4395
O22 O 0.9209(6) 0.4698(6) 0.5094(16)
H130 H 0.9415 0.4453 0.4793
C124 C 0.8130(8) 0.4989(8) 0.5537(17)
H131 H 0.7712 0.4955 0.5324
H132 H 0.8279 0.5402 0.5433
H133 H 0.8143 0.4901 0.6171
O23 O 0.7145(3) 0.1299(3) 0.5000(6)
C125 C 0.6514(4) 0.1150(4) 0.4994(7)
H134 H 0.6302 0.1355 0.4502
H135 H 0.6319 0.1265 0.5558
C126 C 0.6513(6) 0.0451(6) 0.4869(14)
H136 H 0.6660 0.0353 0.4261
O24 O 0.5855(4) 0.0337(5) 0.4914(11)
H137 H 0.5668 0.0631 0.4689
C127 C 0.6821(12) 0.0048(11) 0.5508(14)
H138 H 0.7256 0.0137 0.5512
H140 H 0.6653 0.0117 0.6099
C128 C 0.8362(2) 0.1509(2) 0.4968(4)
C129 C 0.8818(3) 0.1540(2) 0.4336(3)
H141 H 0.8814 0.1855 0.3908
C130 C 0.9280(2) 0.1111(2) 0.4331(3)
H142 H 0.9592 0.1132 0.3899
N12 N 0.9286(2) 0.0651(2) 0.4958(4)
C131 C 0.8830(3) 0.0619(2) 0.5590(3)
H143 H 0.8834 0.0305 0.6019
C132 C 0.8368(2) 0.1049(3) 0.5595(4)
H144 H 0.8056 0.1027 0.6027
Zn12_3 Zn 1.0000 -0.0000 0.99946(12)
H65 H 0.5808 0.0017 0.9952
H68 H 0.6827 0.0302 0.9725
C92 C 0.6056(2) 0.3379(2) 0.9538(3)
H99 H 0.6043 0.3060 0.9117
C93 C 0.5617(2) 0.3831(2) 0.9525(3)
H100 H 0.5304 0.3822 0.9095
H103 H 0.6247 0.1309 0.9445
C102 C 0.4947(10) 0.1739(12) 0.9767(16)
H107 H 0.5080 0.1960 0.9240
H109 H 0.4648 0.1431 0.9597
C103 C 0.8908(5) 0.3382(5) 0.9785(11)
H110 H 0.8636 0.3738 0.9834
H111 H 0.8969 0.3282 0.9155
C105 C 0.9887(8) 0.3259(7) 0.9532(17)
H114 H 0.9895 0.3560 0.9056
H115 H 0.9698 0.2884 0.9317
C107 C 0.8433(3) 0.1161(3) 0.9459(5)
H117 H 0.8111 0.1150 0.9043
C108 C 0.8887(3) 0.0709(3) 0.9449(5)
H118 H 0.8870 0.0403 0.9007
Zn4_4 Zn 1.0000 1.0000 0.49761(11)
Si3_4 Si 1.0000 1.0000 0.2480(4)
Si4_4 Si 1.0000 1.0000 0.7512(4)
F7_4 F 1.0000 1.0000 0.1389(6)
F9_4 F 1.0000 1.0000 0.3664(7)
F10_4 F 1.0000 1.0000 0.6331(7)
F12_4 F 1.0000 1.0000 0.8579(8)
F20 F 0.98097(18) 0.92679(17) 0.2467(3)
F22 F 0.9277(3) 0.9905(5) 0.7485(5)
C45 C 0.5688(2) 0.6095(2) 0.0771(3)
H49 H 0.5369 0.6108 0.1193
C46 C 0.6141(2) 0.6534(2) 0.0785(3)
H50 H 0.6131 0.6847 0.1215
C47 C 0.6607(2) 0.6515(2) 0.0168(3)
C50 C 0.7084(4) 0.7026(4) 0.0136(6)
C51 C 0.7682(4) 0.6888(4) 0.0130(6)
C52 C 0.8125(4) 0.7367(3) 0.0087(6)
H53 H 0.8545 0.7275 0.0057
C53 C 0.7920(4) 0.7992(4) 0.0089(6)
C54 C 0.7289(4) 0.8081(4) 0.0189(6)
C55 C 0.6893(4) 0.7621(4) 0.0223(6)
H54 H 0.6474 0.7704 0.0309
O9 O 0.7845(3) 0.6294(3) 0.0018(5)
C56 C 0.8507(4) 0.6143(4) 0.0021(9)
H56 H 0.8719 0.6375 0.0488
C57 C 0.8565(5) 0.5485(5) 0.0190(12)
H57 H 0.8420 0.5453 0.0814
O10 O 0.9185(4) 0.5281(6) 0.0265(10)
H58 H 0.9351 0.5454 0.0696
H60 H 0.7978 0.4763 0.0186
O11 O 0.7130(3) 0.8679(3) 0.0275(7)
C60 C 0.6503(6) 0.9537(5) 0.0275(11)
H64 H 0.6645 0.9608 0.0893
O12 O 0.5868(6) 0.9642(6) 0.001(2)
C62 C 0.8384(3) 0.8460(3) 0.0073(5)
N6 N 0.9304(3) 0.9318(3) 0.0008(4)
C65 C 0.8882(3) 0.9324(3) 0.0625(5)
H71 H 0.8895 0.9638 0.1054
C66 C 0.8431(3) 0.8910(3) 0.0680(5)
H72 H 0.8144 0.8934 0.1147
C67 C 0.5674(3) 0.6132(3) 0.4485(4)
H73 H 0.5362 0.6127 0.4053
C68 C 0.6073(4) 0.6575(3) 0.4444(5)
H74 H 0.6043 0.6874 0.3995
C69 C 0.6547(3) 0.6604(4) 0.5069(5)
C70 C 0.6564(3) 0.6138(4) 0.5703(5)
H75 H 0.6883 0.6113 0.6124
C71 C 0.6102(3) 0.5720(3) 0.5689(5)
H76 H 0.6092 0.5430 0.6153
C72 C 0.7050(2) 0.7072(2) 0.5077(4)
C73 C 0.6922(2) 0.7688(2) 0.5018(5)
C74 C 0.7392(2) 0.8108(2) 0.4999(4)
H77 H 0.7305 0.8529 0.4959
C75 C 0.7991(2) 0.7911(2) 0.5039(4)
C76 C 0.8119(2) 0.7295(2) 0.5098(4)
C77 C 0.7649(2) 0.6876(2) 0.5117(4)
H78 H 0.7736 0.6454 0.5157
O13 O 0.6315(2) 0.7869(2) 0.4828(5)
C78 C 0.6103(5) 0.8418(5) 0.5310(9)
H79 H 0.6121 0.8348 0.5955
H80 H 0.6366 0.8769 0.5166
C79 C 0.5472(5) 0.8541(5) 0.5033(11)
H81 H 0.5444 0.8427 0.4395
O14 O 0.5302(6) 0.9209(6) 0.5094(16)
H82 H 0.5547 0.9415 0.4793
C80 C 0.5011(8) 0.8130(8) 0.5537(17)
H83 H 0.5045 0.7712 0.5324
H84 H 0.4598 0.8279 0.5433
H85 H 0.5099 0.8143 0.6171
O15 O 0.8701(3) 0.7145(3) 0.5000(6)
C81 C 0.8850(4) 0.6514(4) 0.4994(7)
H86 H 0.8645 0.6302 0.4502
H87 H 0.8735 0.6319 0.5558
C82 C 0.9549(6) 0.6513(6) 0.4869(14)
H88 H 0.9647 0.6660 0.4261
O16 O 0.9663(5) 0.5855(4) 0.4914(11)
H89 H 0.9369 0.5668 0.4689
C83 C 0.9952(11) 0.6821(12) 0.5508(14)
H90 H 0.9863 0.7256 0.5512
H92 H 0.9883 0.6653 0.6099
C84 C 0.8491(2) 0.8362(2) 0.4968(4)
C85 C 0.8460(2) 0.8818(3) 0.4336(3)
H93 H 0.8145 0.8814 0.3908
C86 C 0.8889(2) 0.9280(2) 0.4331(3)
H94 H 0.8868 0.9592 0.3899
N8 N 0.9349(2) 0.9286(2) 0.4958(4)
C87 C 0.9381(2) 0.8830(3) 0.5590(3)
H95 H 0.9695 0.8834 0.6019
C88 C 0.8951(3) 0.8368(2) 0.5595(4)
H96 H 0.8973 0.8056 0.6027
H139 H 0.6756 0.9624 0.5338
Zn12_4 Zn 1.0000 1.0000 0.99946(12)
C48 C 0.6621(2) 0.6056(2) 0.9538(3)
H51 H 0.6940 0.6043 0.9117
C49 C 0.6169(2) 0.5617(2) 0.9525(3)
H52 H 0.6178 0.5304 0.9095
H55 H 0.8691 0.6247 0.9445
C58 C 0.8261(12) 0.4947(10) 0.9767(16)
H59 H 0.8040 0.5080 0.9240
H61 H 0.8569 0.4648 0.9597
C59 C 0.6618(5) 0.8908(5) 0.9785(11)
H62 H 0.6262 0.8636 0.9834
H63 H 0.6718 0.8969 0.9155
C61 C 0.6741(7) 0.9887(8) 0.9532(17)
H66 H 0.6440 0.9895 0.9056
H67 H 0.7116 0.9698 0.9317
C63 C 0.8839(3) 0.8433(3) 0.9459(5)
H69 H 0.8850 0.8111 0.9043
C64 C 0.9291(3) 0.8887(3) 0.9449(5)
H70 H 0.9597 0.8870 0.9007
H161 H 0.9983 0.5808 0.9952
H164 H 0.9698 0.6827 0.9725
loop_
_geom_bond_atom_site_label_1
_geom_bond_atom_site_label_2
_geom_bond_site_symmetry_1
_geom_bond_site_symmetry_2
Zn8 F2 1_555 1_555
Zn2 F4 1_555 1_555
Zn4 F9 1_555 1_555
Si1 F2 1_555 1_555
Si2 F1 1_555 1_555
Si3 F7 1_555 1_555
Si4 F10 1_555 1_555
F3 Si1 1_555 1_555
F4 Si1 1_555 1_555
F5 Zn2 1_555 1_555
F6 Si2 1_555 1_555
F9 Si3 1_555 1_555
F10 Zn4 1_555 1_555
F11 Si4 1_555 1_555
F12 Si4 1_555 1_555
N1 Zn8 1_555 1_555
C1 N1 1_555 1_555
H1 C1 1_555 1_555
C2 C1 1_555 1_555
H2 C2 1_555 1_555
C3 C2 1_555 1_555
C6 C3 1_555 1_555
C7 C6 1_555 1_555
C8 C7 1_555 1_555
H5 C8 1_555 1_555
C9 C8 1_555 1_555
C10 C9 1_555 1_555
C11 C6 1_555 1_555
H6 C11 1_555 1_555
O1 C7 1_555 1_555
C12 O1 1_555 1_555
H8 C12 1_555 1_555
C13 C12 1_555 1_555
H9 C13 1_555 1_555
O2 C13 1_555 1_555
H10 O2 1_555 1_555
O3 C10 1_555 1_555
H16 C16 1_555 1_555
O4 C16 1_555 1_555
C18 C9 1_555 1_555
C21 N2 1_555 1_555
H23 C21 1_555 1_555
C22 C18 1_555 1_555
H24 C22 1_555 1_555
N3 Zn2 1_555 1_555
C23 N3 1_555 1_555
H25 C23 1_555 1_555
C24 C23 1_555 1_555
H26 C24 1_555 1_555
C25 C24 1_555 1_555
C26 C25 1_555 1_555
H27 C26 1_555 1_555
C27 N3 1_555 1_555
H28 C27 1_555 1_555
C28 C25 1_555 1_555
C29 C28 1_555 1_555
C30 C29 1_555 1_555
H29 C30 1_555 1_555
C31 C30 1_555 1_555
C32 C31 1_555 1_555
C33 C28 1_555 1_555
H30 C33 1_555 1_555
O5 C29 1_555 1_555
C34 O5 1_555 1_555
H31 C34 1_555 1_555
H32 C34 1_555 1_555
C35 C34 1_555 1_555
H33 C35 1_555 1_555
O6 C35 1_555 1_555
H34 O6 1_555 1_555
C36 C35 1_555 1_555
H35 C36 1_555 1_555
H36 C36 1_555 1_555
H37 C36 1_555 1_555
O7 C32 1_555 1_555
C37 O7 1_555 1_555
H38 C37 1_555 1_555
H39 C37 1_555 1_555
C38 C37 1_555 1_555
H40 C38 1_555 1_555
O8 C38 1_555 1_555
H41 O8 1_555 1_555
C39 C38 1_555 1_555
H42 C39 1_555 1_555
H44 C39 1_555 1_555
C40 C31 1_555 1_555
C41 C40 1_555 1_555
H45 C41 1_555 1_555
C42 C41 1_555 1_555
H46 C42 1_555 1_555
N4 Zn4 1_555 1_555
C43 N4 1_555 1_555
H47 C43 1_555 1_555
C44 C40 1_555 1_555
H48 C44 1_555 1_555
F13 Si1 1_555 1_555
F14 Si1 1_555 1_555
F15 Si1 1_555 1_555
F16 Si2 1_555 1_555
F17 Si2 1_555 1_555
F18 Si2 1_555 1_555
F21 Si3 1_555 1_555
Zn12 F12 1_555 1_555
N17 Zn8 1_555 1_555
N18 Zn8 1_555 1_555
N19 Zn8 1_555 1_555
N20 Zn2 1_555 1_555
N21 Zn2 1_555 1_555
N22 Zn2 1_555 1_555
Si2 F5 1_555 1_555
C10 C11 1_555 1_555
C21 C22 1_555 1_555
C26 C27 1_555 1_555
C32 C33 1_555 1_555
C42 N4 1_555 1_555
C43 C44 1_555 1_555
H3 C4 1_555 1_555
H4 C5 1_555 1_555
H11 C14 1_555 1_555
H13 C14 1_555 1_555
H14 C15 1_555 1_555
H15 C15 1_555 1_555
H18 C17 1_555 1_555
H19 C17 1_555 1_555
H21 C19 1_555 1_555
C20 C19 1_555 1_555
H22 C20 1_555 1_555
C4 C5 1_555 1_555
Zn4_2 F9_2 1_555 1_555
Si3_2 F7_2 1_555 1_555
Si4_2 F10_2 1_555 1_555
F9_2 Si3_2 1_555 1_555
F10_2 Zn4_2 1_555 1_555
F12_2 Si4_2 1_555 1_555
F19 Si3_2 1_555 1_555
F24 Si4_2 1_555 1_555
N19 C133 1_555 1_555
C133 H145 1_555 1_555
C134 C133 1_555 1_555
H146 C134 1_555 1_555
C135 C134 1_555 1_555
C138 C135 1_555 1_555
C139 C138 1_555 1_555
C140 C139 1_555 1_555
H149 C140 1_555 1_555
C141 C140 1_555 1_555
C142 C141 1_555 1_555
C143 C138 1_555 1_555
H150 C143 1_555 1_555
O25 C139 1_555 1_555
C144 O25 1_555 1_555
H152 C144 1_555 1_555
C145 C144 1_555 1_555
H153 C145 1_555 1_555
O26 C145 1_555 1_555
H154 O26 1_555 1_555
O27 C142 1_555 1_555
H160 C148 1_555 1_555
O28 C148 1_555 1_555
C150 C141 1_555 1_555
C153 N14 1_555 1_555
H167 C153 1_555 1_555
C154 C150 1_555 1_555
H168 C154 1_555 1_555
N22 C155 1_555 1_555
C155 H169 1_555 1_555
C156 C155 1_555 1_555
H170 C156 1_555 1_555
C157 C156 1_555 1_555
C158 C157 1_555 1_555
H171 C158 1_555 1_555
C159 N22 1_555 1_555
H172 C159 1_555 1_555
C160 C157 1_555 1_555
C161 C160 1_555 1_555
C162 C161 1_555 1_555
H173 C162 1_555 1_555
C163 C162 1_555 1_555
C164 C163 1_555 1_555
C165 C160 1_555 1_555
H174 C165 1_555 1_555
O29 C161 1_555 1_555
C166 O29 1_555 1_555
H175 C166 1_555 1_555
H176 C166 1_555 1_555
C167 C166 1_555 1_555
H177 C167 1_555 1_555
O30 C167 1_555 1_555
H178 O30 1_555 1_555
C168 C167 1_555 1_555
H179 C168 1_555 1_555
H180 C168 1_555 1_555
H181 C168 1_555 1_555
O31 C164 1_555 1_555
C169 O31 1_555 1_555
H182 C169 1_555 1_555
H183 C169 1_555 1_555
C170 C169 1_555 1_555
H184 C170 1_555 1_555
O32 C170 1_555 1_555
H185 O32 1_555 1_555
C171 C170 1_555 1_555
H186 C171 1_555 1_555
H188 C171 1_555 1_555
C172 C163 1_555 1_555
C173 C172 1_555 1_555
H189 C173 1_555 1_555
C174 C173 1_555 1_555
H190 C174 1_555 1_555
N16 Zn4_2 1_555 1_555
C175 N16 1_555 1_555
H191 C175 1_555 1_555
C176 C172 1_555 1_555
H192 C176 1_555 1_555
Zn12_2 F12_2 1_555 1_555
C142 C143 1_555 1_555
C153 C154 1_555 1_555
C158 C159 1_555 1_555
C164 C165 1_555 1_555
C174 N16 1_555 1_555
C175 C176 1_555 1_555
H147 C136 1_555 1_555
H148 C137 1_555 1_555
H155 C146 1_555 1_555
H157 C146 1_555 1_555
H158 C147 1_555 1_555
H159 C147 1_555 1_555
H162 C149 1_555 1_555
H163 C149 1_555 1_555
H165 C151 1_555 1_555
C152 C151 1_555 1_555
H166 C152 1_555 1_555
C136 C137 1_555 1_555
Zn4_3 F9_3 1_555 1_555
Si3_3 F7_3 1_555 1_555
Si4_3 F10_3 1_555 1_555
F8 Si3_3 1_555 1_555
F9_3 Si3_3 1_555 1_555
F10_3 Zn4_3 1_555 1_555
F12_3 Si4_3 1_555 1_555
F23 Si4_3 1_555 1_555
N18 C89 1_555 1_555
C89 H97 1_555 1_555
C90 C89 1_555 1_555
H98 C90 1_555 1_555
C91 C90 1_555 1_555
C94 C91 1_555 1_555
C95 C94 1_555 1_555
C96 C95 1_555 1_555
H101 C96 1_555 1_555
C97 C96 1_555 1_555
C98 C97 1_555 1_555
C99 C94 1_555 1_555
H102 C99 1_555 1_555
O17 C95 1_555 1_555
C100 O17 1_555 1_555
H104 C100 1_555 1_555
C101 C100 1_555 1_555
H105 C101 1_555 1_555
O18 C101 1_555 1_555
H106 O18 1_555 1_555
O19 C98 1_555 1_555
H112 C104 1_555 1_555
O20 C104 1_555 1_555
C106 C97 1_555 1_555
C109 N10 1_555 1_555
H119 C109 1_555 1_555
C110 C106 1_555 1_555
H120 C110 1_555 1_555
N21 C111 1_555 1_555
C111 H121 1_555 1_555
C112 C111 1_555 1_555
H122 C112 1_555 1_555
C113 C112 1_555 1_555
C114 C113 1_555 1_555
H123 C114 1_555 1_555
C115 N21 1_555 1_555
H124 C115 1_555 1_555
C116 C113 1_555 1_555
C117 C116 1_555 1_555
C118 C117 1_555 1_555
H125 C118 1_555 1_555
C119 C118 1_555 1_555
C120 C119 1_555 1_555
C121 C116 1_555 1_555
H126 C121 1_555 1_555
O21 C117 1_555 1_555
C122 O21 1_555 1_555
H127 C122 1_555 1_555
H128 C122 1_555 1_555
C123 C122 1_555 1_555
H129 C123 1_555 1_555
O22 C123 1_555 1_555
H130 O22 1_555 1_555
C124 C123 1_555 1_555
H131 C124 1_555 1_555
H132 C124 1_555 1_555
H133 C124 1_555 1_555
O23 C120 1_555 1_555
C125 O23 1_555 1_555
H134 C125 1_555 1_555
H135 C125 1_555 1_555
C126 C125 1_555 1_555
H136 C126 1_555 1_555
O24 C126 1_555 1_555
H137 O24 1_555 1_555
C127 C126 1_555 1_555
H138 C127 1_555 1_555
H140 C127 1_555 1_555
C128 C119 1_555 1_555
C129 C128 1_555 1_555
H141 C129 1_555 1_555
C130 C129 1_555 1_555
H142 C130 1_555 1_555
N12 Zn4_3 1_555 1_555
C131 N12 1_555 1_555
H143 C131 1_555 1_555
C132 C128 1_555 1_555
H144 C132 1_555 1_555
Zn12_3 F12_3 1_555 1_555
C98 C99 1_555 1_555
C109 C110 1_555 1_555
C114 C115 1_555 1_555
C120 C121 1_555 1_555
C130 N12 1_555 1_555
C131 C132 1_555 1_555
H99 C92 1_555 1_555
H100 C93 1_555 1_555
H107 C102 1_555 1_555
H109 C102 1_555 1_555
H110 C103 1_555 1_555
H111 C103 1_555 1_555
H114 C105 1_555 1_555
H115 C105 1_555 1_555
H117 C107 1_555 1_555
C108 C107 1_555 1_555
H118 C108 1_555 1_555
C92 C93 1_555 1_555
Zn4_4 F9_4 1_555 1_555
Si3_4 F7_4 1_555 1_555
Si4_4 F10_4 1_555 1_555
F9_4 Si3_4 1_555 1_555
F10_4 Zn4_4 1_555 1_555
F12_4 Si4_4 1_555 1_555
F20 Si3_4 1_555 1_555
F22 Si4_4 1_555 1_555
N17 C45 1_555 1_555
C45 H49 1_555 1_555
C46 C45 1_555 1_555
H50 C46 1_555 1_555
C47 C46 1_555 1_555
C50 C47 1_555 1_555
C51 C50 1_555 1_555
C52 C51 1_555 1_555
H53 C52 1_555 1_555
C53 C52 1_555 1_555
C54 C53 1_555 1_555
C55 C50 1_555 1_555
H54 C55 1_555 1_555
O9 C51 1_555 1_555
C56 O9 1_555 1_555
H56 C56 1_555 1_555
C57 C56 1_555 1_555
H57 C57 1_555 1_555
O10 C57 1_555 1_555
H58 O10 1_555 1_555
O11 C54 1_555 1_555
H64 C60 1_555 1_555
O12 C60 1_555 1_555
C62 C53 1_555 1_555
C65 N6 1_555 1_555
H71 C65 1_555 1_555
C66 C62 1_555 1_555
H72 C66 1_555 1_555
N20 C67 1_555 1_555
C67 H73 1_555 1_555
C68 C67 1_555 1_555
H74 C68 1_555 1_555
C69 C68 1_555 1_555
C70 C69 1_555 1_555
H75 C70 1_555 1_555
C71 N20 1_555 1_555
H76 C71 1_555 1_555
C72 C69 1_555 1_555
C73 C72 1_555 1_555
C74 C73 1_555 1_555
H77 C74 1_555 1_555
C75 C74 1_555 1_555
C76 C75 1_555 1_555
C77 C72 1_555 1_555
H78 C77 1_555 1_555
O13 C73 1_555 1_555
C78 O13 1_555 1_555
H79 C78 1_555 1_555
H80 C78 1_555 1_555
C79 C78 1_555 1_555
H81 C79 1_555 1_555
O14 C79 1_555 1_555
H82 O14 1_555 1_555
C80 C79 1_555 1_555
H83 C80 1_555 1_555
H84 C80 1_555 1_555
H85 C80 1_555 1_555
O15 C76 1_555 1_555
C81 O15 1_555 1_555
H86 C81 1_555 1_555
H87 C81 1_555 1_555
C82 C81 1_555 1_555
H88 C82 1_555 1_555
O16 C82 1_555 1_555
H89 O16 1_555 1_555
C83 C82 1_555 1_555
H90 C83 1_555 1_555
H92 C83 1_555 1_555
C84 C75 1_555 1_555
C85 C84 1_555 1_555
H93 C85 1_555 1_555
C86 C85 1_555 1_555
H94 C86 1_555 1_555
N8 Zn4_4 1_555 1_555
C87 N8 1_555 1_555
H95 C87 1_555 1_555
C88 C84 1_555 1_555
H96 C88 1_555 1_555
Zn12_4 F12_4 1_555 1_555
C54 C55 1_555 1_555
C65 C66 1_555 1_555
C70 C71 1_555 1_555
C76 C77 1_555 1_555
C86 N8 1_555 1_555
C87 C88 1_555 1_555
H51 C48 1_555 1_555
H52 C49 1_555 1_555
H59 C58 1_555 1_555
H61 C58 1_555 1_555
H62 C59 1_555 1_555
H63 C59 1_555 1_555
H66 C61 1_555 1_555
H67 C61 1_555 1_555
H69 C63 1_555 1_555
C64 C63 1_555 1_555
H70 C64 1_555 1_555
C48 C49 1_555 1_555

#END
