
###############################################################################
#
# This file contains modified crystal structure data generated from the
# MOF subset of the Cambridge Structural Database (CSD) v543 
# hosted by the Cambridge Crystallographic Data Centre (CCDC).
#
# This work is licensed under the Creative Commons
# Attribution-NonCommercial-ShareAlike 4.0 International License.
# To view a copy of this license, visit
# http://creativecommons.org/licenses/by-nc-sa/4.0/
# or send a letter to
# Creative Commons, PO Box 1866, Mountain View, CA 94042, USA.
#
# CIF created using the CSD Python API on 29 September 2022
# The structure has been converted into the P1 space group
# The structure has a 3D framework
# The original CSD entry SETDOM is in the triclinic crystal system
# The framework has been calculated to contain at least 10.0% void space
# The void calculation uses a probe of radius 1.32A, grid spacing 0.4
# The framework is charged, counterions have been retained in the structure
#
###############################################################################

data_SETDOM
_chemical_formula_moiety         '(C16 H20 Br2 Cu5 N12 O8 S2 1+)n'
_symmetry_cell_setting           triclinic
_symmetry_space_group_name_H-M   'P 1'
_symmetry_Int_Tables_number      1
_space_group_name_Hall           'P 1'
loop_
_symmetry_equiv_pos_site_id
_symmetry_equiv_pos_as_xyz
1 x,y,z
_cell_length_a                   7.260(16)
_cell_length_b                   11.77(3)
_cell_length_c                   13.15(3)
_cell_angle_alpha                74.55(3)
_cell_angle_beta                 76.47(3)
_cell_angle_gamma                76.55(3)
_cell_volume                     1035.48
loop_
_atom_site_label
_atom_site_type_symbol
_atom_site_fract_x
_atom_site_fract_y
_atom_site_fract_z
Cu4 Cu -0.0000 0.0000 0.5000
H16 H 0.0951 0.0836 0.2378
C1 C 0.041(3) 0.2516(15) 0.4124(14)
C2 C 0.339(3) 0.2543(15) 0.4109(14)
H2 H 0.4606 0.2773 0.3999
C3 C 0.130(3) 0.4621(17) 0.3488(17)
H3 H 0.0443 0.4836 0.2954
H4 H 0.2524 0.4902 0.3132
C4 C 0.024(3) 0.5293(19) 0.4528(16)
H10 H 0.1679 0.0405 0.9493
N1 N 0.310(2) 0.1500(15) 0.4469(11)
N2 N 0.117(2) 0.1491(15) 0.4458(11)
N3 N 0.1663(19) 0.3349(12) 0.3883(11)
Cu2 Cu 0.5000 0.0000 0.5000
H11 H 0.0900 0.7264 0.5967
H15 H 0.0014 0.3857 0.5609
Br3 Br 0.6587(4) 0.1299(2) 0.6007(2)
N15 N 0.693(2) 0.0438(12) 0.3675(11)
Cu4_2 Cu -0.0000 1.0000 0.5000
Br1 Br 0.3413(4) 0.8701(2) 0.3993(2)
C5 C 0.036(3) 0.9254(15) 0.7379(15)
C6 C 0.327(3) 0.9282(15) 0.7372(15)
H7 H 0.4431 0.9225 0.7608
C7 C 0.125(3) 0.8770(18) 0.9192(17)
H8 H 0.2409 0.8233 0.9430
H9 H 0.0163 0.8324 0.9458
C8 C 0.077(3) 0.9882(18) 0.9680(17)
N4 N 0.307(2) 0.9562(12) 0.6325(11)
N5 N 0.118(2) 0.9562(11) 0.6313(11)
N6 N 0.1577(19) 0.9096(12) 0.8030(11)
Cu2_2 Cu 0.5000 1.0000 0.5000
N13 N 0.690(2) 0.8500(15) 0.5531(11)
Cu4_3 Cu 1.0000 0.0000 0.5000
C13 C 0.964(3) 0.0746(15) 0.2621(15)
C14 C 0.673(3) 0.0718(15) 0.2628(15)
H17 H 0.5569 0.0775 0.2392
C15 C 0.875(3) 0.1230(18) 0.0808(17)
H18 H 0.7591 0.1767 0.0570
H19 H 0.9837 0.1676 0.0542
C16 C 0.923(3) 0.0118(18) 0.0320(17)
N11 N 0.882(2) 0.0438(11) 0.3687(11)
N12 N 0.8423(19) 0.0904(12) 0.1970(11)
H1 H 0.9100 0.2736 0.4033
H5 H 0.9986 0.6143 0.4391
C9 C 0.959(3) 0.7484(15) 0.5876(14)
C10 C 0.661(3) 0.7457(15) 0.5891(14)
H12 H 0.5394 0.7227 0.6001
C11 C 0.870(3) 0.5379(17) 0.6512(17)
H13 H 0.9557 0.5164 0.7046
H14 H 0.7476 0.5098 0.6868
C12 C 0.976(3) 0.4707(19) 0.5472(16)
N8 N 0.883(2) 0.8509(15) 0.5542(11)
N9 N 0.8337(19) 0.6651(12) 0.6117(11)
Cu4_4 Cu 1.0000 1.0000 0.5000
H20 H 0.8321 0.9595 0.0507
H6 H 0.9049 0.9164 0.7622
O2 O 0.772(7) 0.628(6) 0.017(3)
O1 O 0.624(7) 0.873(3) 0.887(5)
O3 O 0.918(5) 0.693(5) 0.774(3)
O4 O 0.507(6) 0.651(5) 0.860(4)
S1 S 0.703(2) 0.712(3) 0.8839(12)
O1_2 O 0.376(7) 0.127(3) 0.113(5)
O3_2 O 0.082(5) 0.307(5) 0.226(3)
O4_2 O 0.493(6) 0.349(5) 0.140(4)
S1_2 S 0.297(2) 0.288(3) 0.1161(12)
O2_2 O 0.228(7) 0.372(6) 0.983(3)
loop_
_geom_bond_atom_site_label_1
_geom_bond_atom_site_label_2
_geom_bond_site_symmetry_1
_geom_bond_site_symmetry_2
C2 H2 1_555 1_555
C3 H3 1_555 1_555
H4 C3 1_555 1_555
C4 C3 1_555 1_555
N1 C2 1_555 1_555
N2 C1 1_555 1_555
N3 C1 1_555 1_555
Cu4 N2 1_555 1_555
Br3 Cu2 1_555 1_555
N15 Cu2 1_555 1_555
C2 N3 1_555 1_555
C3 N3 1_555 1_555
N1 N2 1_555 1_555
N1 Cu2 1_555 1_555
Br1 Cu4_2 1_555 1_555
C6 H7 1_555 1_555
C7 H8 1_555 1_555
H9 C7 1_555 1_555
C8 C7 1_555 1_555
N4 C6 1_555 1_555
N5 C5 1_555 1_555
N6 C5 1_555 1_555
Cu2_2 Br1 1_555 1_555
N13 Cu2_2 1_555 1_555
C6 N6 1_555 1_555
C7 N6 1_555 1_555
N4 N5 1_555 1_555
N4 Cu2_2 1_555 1_555
N5 Cu4_2 1_555 1_555
C14 H17 1_555 1_555
C15 H18 1_555 1_555
H19 C15 1_555 1_555
N15 C14 1_555 1_555
N11 C13 1_555 1_555
N12 C13 1_555 1_555
Cu4_3 N11 1_555 1_555
C14 N12 1_555 1_555
C15 C16 1_555 1_555
C15 N12 1_555 1_555
N15 N11 1_555 1_555
C10 H12 1_555 1_555
C11 H13 1_555 1_555
H14 C11 1_555 1_555
N13 C10 1_555 1_555
N8 C9 1_555 1_555
N9 C9 1_555 1_555
Br3 Cu4_3 1_555 1_555
Cu4_4 N8 1_555 1_555
C10 N9 1_555 1_555
C11 C12 1_555 1_555
C11 N9 1_555 1_555
N13 N8 1_555 1_555
O1 S1 1_555 1_555
O3 S1 1_555 1_555
O4 S1 1_555 1_555
O1_2 S1_2 1_555 1_555
O3_2 S1_2 1_555 1_555
O4_2 S1_2 1_555 1_555

#END
