
###############################################################################
#
# This file contains modified crystal structure data generated from the
# MOF subset of the Cambridge Structural Database (CSD) v543 
# hosted by the Cambridge Crystallographic Data Centre (CCDC).
#
# This work is licensed under the Creative Commons
# Attribution-NonCommercial-ShareAlike 4.0 International License.
# To view a copy of this license, visit
# http://creativecommons.org/licenses/by-nc-sa/4.0/
# or send a letter to
# Creative Commons, PO Box 1866, Mountain View, CA 94042, USA.
#
# CIF created using the CSD Python API on 29 September 2022
# The structure has been converted into the P1 space group
# The structure has a 3D framework
# The original CSD entry SETQAL is in the monoclinic crystal system
# The framework has been calculated to contain at least 10.0% void space
# The void calculation uses a probe of radius 1.32A, grid spacing 0.4
#
###############################################################################

data_SETQAL
_chemical_formula_moiety         '(C32 H16 Fe2 O18)n'
_symmetry_cell_setting           triclinic
_symmetry_space_group_name_H-M   'P 1'
_symmetry_Int_Tables_number      1
_space_group_name_Hall           'P 1'
loop_
_symmetry_equiv_pos_site_id
_symmetry_equiv_pos_as_xyz
1 x,y,z
_cell_length_a                   20.5266(3)
_cell_length_b                   9.1925(2)
_cell_length_c                   6.8763(2)
_cell_angle_alpha                90
_cell_angle_beta                 113.084(1)
_cell_angle_gamma                90
_cell_volume                     1193.61
loop_
_atom_site_label
_atom_site_type_symbol
_atom_site_fract_x
_atom_site_fract_y
_atom_site_fract_z
O4 O 0.4278 0.3356 0.2735
C4 C 0.3132 0.2780 0.0142
C5 C 0.2870 0.2470 0.1646
C6 C 0.2185 0.2002 0.1050
C8 C 0.3874 0.3287 0.0788
H3 H 0.3173 0.2583 0.3149
H4 H 0.1998 0.1780 0.2126
Fe4 Fe 0.4959(21) 0.4947(6) 0.4612(94)
O1 O 0.0617 0.1267 0.6357
O2 O 0.0790 0.0973 0.9698
O3 O 0.4106 0.3651 0.9394
C1 C 0.1763 0.1844 0.8950
C2 C 0.2025 0.2154 0.7446
C3 C 0.2710 0.2622 0.8042
C7 C 0.1021 0.1337 0.8304
H1 H 0.1723 0.2041 0.5944
H2 H 0.2897 0.2843 0.6966
Fe3 Fe 0.4959(21) 0.5053(6) 0.9612(94)
O6 O 0.0617 0.8733 0.1357
O9 O 0.9968(24) 0.0969(5) 0.203(10)
Fe1 Fe 0.9959(21) 0.0053(6) 0.9612(94)
O8 O 0.9278 0.1644 0.7735
O5 O 0.9968(24) 0.9031(5) 0.703(10)
Fe2 Fe 0.9959(21) 0.9947(6) 0.4612(94)
O7 O 0.9106 0.8651 0.9394
O2_2 O 0.0790 0.9027 0.4698
O3_2 O 0.4106 0.6349 0.4394
O4_2 O 0.4278 0.6644 0.7735
C1_2 C 0.1763 0.8156 0.3950
C2_2 C 0.2025 0.7846 0.2446
C3_2 C 0.2710 0.7378 0.3042
C4_2 C 0.3132 0.7220 0.5142
C5_2 C 0.2870 0.7530 0.6646
C6_2 C 0.2185 0.7998 0.6050
C7_2 C 0.1021 0.8663 0.3304
C8_2 C 0.3874 0.6713 0.5788
H1_2 H 0.1723 0.7959 0.0944
H2_2 H 0.2897 0.7157 0.1966
H3_2 H 0.3173 0.7417 0.8149
H4_2 H 0.1998 0.8220 0.7126
O7_2 O 0.9106 0.1349 0.4394
O8_2 O 0.9278 0.8356 0.2735
C4_3 C 0.8132 0.7780 0.0142
C5_3 C 0.7870 0.7470 0.1646
C6_3 C 0.7185 0.7002 0.1050
C8_3 C 0.8874 0.8287 0.0788
H3_3 H 0.8173 0.7583 0.3149
H4_3 H 0.6998 0.6780 0.2126
O6_2 O 0.5617 0.3733 0.1357
O9_2 O 0.4968(24) 0.5969(5) 0.203(10)
O1_2 O 0.5617 0.6267 0.6357
O2_3 O 0.5790 0.5973 0.9698
C1_3 C 0.6763 0.6844 0.8950
C2_3 C 0.7025 0.7154 0.7446
C3_3 C 0.7710 0.7622 0.8042
C7_3 C 0.6021 0.6337 0.8304
H1_3 H 0.6723 0.7041 0.5944
H2_3 H 0.7897 0.7843 0.6966
O5_2 O 0.4968(24) 0.4031(5) 0.703(10)
O2_4 O 0.5790 0.4027 0.4698
C1_4 C 0.6763 0.3156 0.3950
C2_4 C 0.7025 0.2846 0.2446
C3_4 C 0.7710 0.2378 0.3042
C4_4 C 0.8132 0.2220 0.5142
C5_4 C 0.7870 0.2530 0.6646
C6_4 C 0.7185 0.2998 0.6050
C7_4 C 0.6021 0.3663 0.3304
C8_4 C 0.8874 0.1713 0.5788
H1_4 H 0.6723 0.2959 0.0944
H2_4 H 0.7897 0.2157 0.1966
H3_4 H 0.8173 0.2417 0.8149
H4_4 H 0.6998 0.3220 0.7126
loop_
_geom_bond_atom_site_label_1
_geom_bond_atom_site_label_2
_geom_bond_site_symmetry_1
_geom_bond_site_symmetry_2
O4 C8 1_555 1_555
C4 C5 1_555 1_555
C5 C6 1_555 1_555
C8 C4 1_555 1_555
H3 C5 1_555 1_555
H4 C6 1_555 1_555
Fe4 O4 1_555 1_555
O1 C7 1_555 1_555
O2 C7 1_555 1_555
C1 C2 1_555 1_555
C2 C3 1_555 1_555
C7 C1 1_555 1_555
H1 C2 1_555 1_555
H2 C3 1_555 1_555
Fe3 O3 1_555 1_555
O8 Fe1 1_555 1_555
O5 Fe2 1_555 1_555
O6 C7_2 1_555 1_555
O2_2 C7_2 1_555 1_555
O3_2 C8_2 1_555 1_555
O4_2 C8_2 1_555 1_555
C1_2 C2_2 1_555 1_555
C2_2 C3_2 1_555 1_555
C3_2 C4_2 1_555 1_555
C4_2 C5_2 1_555 1_555
C5_2 C6_2 1_555 1_555
C6_2 C1_2 1_555 1_555
C7_2 C1_2 1_555 1_555
C8_2 C4_2 1_555 1_555
H1_2 C2_2 1_555 1_555
H2_2 C3_2 1_555 1_555
H3_2 C5_2 1_555 1_555
H4_2 C6_2 1_555 1_555
Fe4 O3_2 1_555 1_555
Fe3 O4_2 1_555 1_555
O8_2 Fe2 1_555 1_555
O8_2 C8_3 1_555 1_555
C4_3 C5_3 1_555 1_555
C5_3 C6_3 1_555 1_555
C8_3 C4_3 1_555 1_555
H3_3 C5_3 1_555 1_555
H4_3 C6_3 1_555 1_555
Fe3 O2_3 1_555 1_555
O1_2 C7_3 1_555 1_555
O2_3 C7_3 1_555 1_555
C1_3 C2_3 1_555 1_555
C2_3 C3_3 1_555 1_555
C7_3 C1_3 1_555 1_555
H1_3 C2_3 1_555 1_555
H2_3 C3_3 1_555 1_555
O5_2 Fe3 1_555 1_555
Fe4 O1_2 1_555 1_555
O5_2 Fe4 1_555 1_555
Fe4 O2_4 1_555 1_555
O6_2 C7_4 1_555 1_555
O2_4 C7_4 1_555 1_555
O7_2 C8_4 1_555 1_555
O8 C8_4 1_555 1_555
C1_4 C2_4 1_555 1_555
C2_4 C3_4 1_555 1_555
C3_4 C4_4 1_555 1_555
C4_4 C5_4 1_555 1_555
C5_4 C6_4 1_555 1_555
C6_4 C1_4 1_555 1_555
C7_4 C1_4 1_555 1_555
C8_4 C4_4 1_555 1_555
H1_4 C2_4 1_555 1_555
H2_4 C3_4 1_555 1_555
H3_4 C5_4 1_555 1_555
H4_4 C6_4 1_555 1_555
O9_2 Fe4 1_555 1_555

#END
