
###############################################################################
#
# This file contains modified crystal structure data generated from the
# MOF subset of the Cambridge Structural Database (CSD) v543 
# hosted by the Cambridge Crystallographic Data Centre (CCDC).
#
# This work is licensed under the Creative Commons
# Attribution-NonCommercial-ShareAlike 4.0 International License.
# To view a copy of this license, visit
# http://creativecommons.org/licenses/by-nc-sa/4.0/
# or send a letter to
# Creative Commons, PO Box 1866, Mountain View, CA 94042, USA.
#
# CIF created using the CSD Python API on 29 September 2022
# The structure has been converted into the P1 space group
# The structure has a 3D framework
# The original CSD entry SETQUF is in the monoclinic crystal system
# The framework has been calculated to contain at least 10.0% void space
# The void calculation uses a probe of radius 1.32A, grid spacing 0.4
#
###############################################################################

data_SETQUF
_chemical_formula_moiety         '(C64 H32 Fe11 O38)n'
_symmetry_cell_setting           triclinic
_symmetry_space_group_name_H-M   'P 1'
_symmetry_Int_Tables_number      1
_space_group_name_Hall           'P 1'
loop_
_symmetry_equiv_pos_site_id
_symmetry_equiv_pos_as_xyz
1 x,y,z
_cell_length_a                   15.80006(34)
_cell_length_b                   16.04061(34)
_cell_length_c                   13.79701(23)
_cell_angle_alpha                90
_cell_angle_beta                 115.40273(91)
_cell_angle_gamma                90
_cell_volume                     3158.67
loop_
_atom_site_label
_atom_site_type_symbol
_atom_site_fract_x
_atom_site_fract_y
_atom_site_fract_z
_atom_site_U_iso_or_equiv
_atom_site_thermal_displace_type
Fe2 Fe 0.000 0.000 0 0.0034 Uiso
Fe3 Fe 0.000 0.00177(20) 0.250 0.0034 Uiso
O12 O 0.094125 0.083112 0.094693 0.0071 Uiso
Fe7 Fe 0.500 0.500 0 0.0034 Uiso
O1 O 0.085671 0.090394 0.748735 0.0071 Uiso
O2 O 0.082686 0.092582 0.587885 0.0071 Uiso
O3 O 0.405875 0.416888 0.905307 0.0071 Uiso
O4 O 0.413927 0.410239 0.750235 0.0071 Uiso
C1 C 0.182833 0.189037 0.716607 0.0071 Uiso
C2 C 0.214906 0.220697 0.646315 0.0208 Uiso
C3 C 0.279113 0.284185 0.677749 0.0208 Uiso
C4 C 0.311247 0.316014 0.779474 0.0208 Uiso
C5 C 0.279174 0.284355 0.849765 0.0208 Uiso
C6 C 0.214966 0.220867 0.818332 0.0208 Uiso
C7 C 0.113939 0.120915 0.682880 0.0208 Uiso
C8 C 0.380141 0.384137 0.813201 0.0208 Uiso
H1 H 0.19192 0.197928 0.573549 0.0507 Uiso
H2 H 0.302056 0.306832 0.627467 0.0507 Uiso
H3 H 0.302160 0.307123 0.922532 0.0507 Uiso
H4 H 0.192023 0.19822 0.868614 0.0507 Uiso
Fe2_2 Fe 0.000 0.000 1 0.0034 Uiso
Fe5 Fe 0.500 0.49823(20) 0.750 0.0034 Uiso
Fe6 Fe 0.000 0.000 0.5 0.0034 Uiso
Fe7_2 Fe 0.500 0.500 1 0.0034 Uiso
Fe2_3 Fe -0.000 1.000 0 0.0034 Uiso
O11 O 0.082686 0.907418 0.087885 0.0071 Uiso
Fe1 Fe 0.000 0.99823(20) 0.750 0.0034 Uiso
Fe2_4 Fe 0.000 1.000 1 0.0034 Uiso
O5 O 0.06154(22) 0.99306(67) 0.90665(20) 0.0071 Uiso
O14 O 0.086073 0.910239 0.749765 0.0071 Uiso
Fe6_2 Fe 0.000 1.000 0.5 0.0034 Uiso
Fe2_5 Fe 1.000 0.000 0 0.0034 Uiso
O6 O 0.93846(22) 0.00694(67) 0.09335(20) 0.0071 Uiso
Fe3_2 Fe 1.000 0.00177(20) 0.250 0.0034 Uiso
Fe2_6 Fe 1.000 0.000 1 0.0034 Uiso
O7 O 0.914329 0.090394 0.751265 0.0071 Uiso
O8 O 0.917314 0.092582 0.912115 0.0071 Uiso
O9 O 0.594125 0.416888 0.594693 0.0071 Uiso
O10 O 0.586073 0.410239 0.749765 0.0071 Uiso
C9 C 0.817167 0.189037 0.783393 0.0071 Uiso
C10 C 0.785094 0.220697 0.853685 0.0208 Uiso
C11 C 0.720887 0.284185 0.822251 0.0208 Uiso
C12 C 0.688753 0.316014 0.720526 0.0208 Uiso
C13 C 0.720826 0.284355 0.650235 0.0208 Uiso
C14 C 0.785034 0.220867 0.681668 0.0208 Uiso
C15 C 0.886061 0.120915 0.817120 0.0208 Uiso
C16 C 0.619859 0.384137 0.686799 0.0208 Uiso
H5 H 0.80808 0.197928 0.926451 0.0507 Uiso
H6 H 0.697944 0.306832 0.872533 0.0507 Uiso
H7 H 0.697840 0.307123 0.577468 0.0507 Uiso
H8 H 0.807977 0.19822 0.631386 0.0507 Uiso
Fe6_3 Fe 1.000 0.000 0.5 0.0034 Uiso
Fe8 Fe 0.500 0.500 0.5 0.0034 Uiso
Fe2_7 Fe 1.000 1.000 0 0.0034 Uiso
Fe1_2 Fe 1.000 0.99823(20) 0.750 0.0034 Uiso
Fe2_8 Fe 1.000 1.000 1 0.0034 Uiso
O13 O 0.905875 0.916888 0.905307 0.0071 Uiso
O15 O 0.913927 0.910239 0.750235 0.0071 Uiso
Fe6_4 Fe 1.000 1.000 0.5 0.0034 Uiso
O16 O 0.93846(22) 0.99306(67) 0.59335(20) 0.0071 Uiso
O6_2 O 0.06154(22) 0.00694(67) 0.40665(20) 0.0071 Uiso
O13_2 O 0.094125 0.916888 0.594693 0.0071 Uiso
O12_2 O 0.905875 0.083112 0.405307 0.0071 Uiso
O11_2 O 0.917314 0.907418 0.412115 0.0071 Uiso
O1_2 O 0.414329 0.590394 0.751265 0.0071 Uiso
O2_2 O 0.417314 0.592582 0.912115 0.0071 Uiso
C1_2 C 0.317167 0.689037 0.783393 0.0071 Uiso
C2_2 C 0.285094 0.720697 0.853685 0.0208 Uiso
C3_2 C 0.220887 0.784185 0.822251 0.0208 Uiso
C4_2 C 0.188753 0.816014 0.720526 0.0208 Uiso
C5_2 C 0.220826 0.784355 0.650235 0.0208 Uiso
C6_2 C 0.285034 0.720867 0.681668 0.0208 Uiso
C7_2 C 0.386061 0.620915 0.817120 0.0208 Uiso
C8_2 C 0.119859 0.884137 0.686799 0.0208 Uiso
H1_2 H 0.30808 0.697928 0.926451 0.0507 Uiso
H2_2 H 0.197944 0.806832 0.872533 0.0507 Uiso
H3_2 H 0.197840 0.807123 0.577468 0.0507 Uiso
H4_2 H 0.307977 0.69822 0.631386 0.0507 Uiso
O5_2 O 0.43846(22) 0.49306(67) 0.59335(20) 0.0071 Uiso
O6_3 O 0.56154(22) 0.50694(67) 0.40665(20) 0.0071 Uiso
O7_2 O 0.585671 0.590394 0.748735 0.0071 Uiso
O8_2 O 0.582686 0.592582 0.587885 0.0071 Uiso
C9_2 C 0.682833 0.689037 0.716607 0.0071 Uiso
C10_2 C 0.714906 0.720697 0.646315 0.0208 Uiso
C11_2 C 0.779113 0.784185 0.677749 0.0208 Uiso
C12_2 C 0.811247 0.816014 0.779474 0.0208 Uiso
C13_2 C 0.779174 0.784355 0.849765 0.0208 Uiso
C14_2 C 0.714966 0.720867 0.818332 0.0208 Uiso
C15_2 C 0.613939 0.620915 0.682880 0.0208 Uiso
C16_2 C 0.880141 0.884137 0.813201 0.0208 Uiso
H5_2 H 0.69192 0.697928 0.573549 0.0507 Uiso
H6_2 H 0.802056 0.806832 0.627467 0.0507 Uiso
H7_2 H 0.802160 0.807123 0.922532 0.0507 Uiso
H8_2 H 0.692023 0.69822 0.868614 0.0507 Uiso
Fe3_3 Fe 0.500 0.50177(20) 0.250 0.0034 Uiso
O11_3 O 0.417314 0.407418 0.412115 0.0071 Uiso
O12_3 O 0.405875 0.583112 0.405307 0.0071 Uiso
O16_2 O 0.56154(22) 0.49306(67) 0.90665(20) 0.0071 Uiso
O6_4 O 0.43846(22) 0.50694(67) 0.09335(20) 0.0071 Uiso
O11_4 O 0.582686 0.407418 0.087885 0.0071 Uiso
O12_4 O 0.594125 0.583112 0.094693 0.0071 Uiso
O15_2 O 0.086073 0.089761 0.249765 0.0071 Uiso
O7_3 O 0.085671 0.909606 0.248735 0.0071 Uiso
O10_2 O 0.413927 0.589761 0.250235 0.0071 Uiso
C9_3 C 0.182833 0.810963 0.216607 0.0071 Uiso
C10_3 C 0.214906 0.779303 0.146315 0.0208 Uiso
C11_3 C 0.279113 0.715815 0.177749 0.0208 Uiso
C12_3 C 0.311247 0.683986 0.279474 0.0208 Uiso
C13_3 C 0.279174 0.715645 0.349765 0.0208 Uiso
C14_3 C 0.214966 0.779133 0.318332 0.0208 Uiso
C15_3 C 0.113939 0.879085 0.182880 0.0208 Uiso
C16_3 C 0.380141 0.615863 0.313201 0.0208 Uiso
H5_3 H 0.19192 0.802072 0.073549 0.0507 Uiso
H6_3 H 0.302056 0.693168 0.127467 0.0507 Uiso
H7_3 H 0.302160 0.692877 0.422532 0.0507 Uiso
H8_3 H 0.192023 0.80178 0.368614 0.0507 Uiso
O14_2 O 0.913927 0.089761 0.250235 0.0071 Uiso
O1_3 O 0.914329 0.909606 0.251265 0.0071 Uiso
O4_2 O 0.586073 0.589761 0.249765 0.0071 Uiso
C1_3 C 0.817167 0.810963 0.283393 0.0071 Uiso
C2_3 C 0.785094 0.779303 0.353685 0.0208 Uiso
C3_3 C 0.720887 0.715815 0.322251 0.0208 Uiso
C4_3 C 0.688753 0.683986 0.220526 0.0208 Uiso
C5_3 C 0.720826 0.715645 0.150235 0.0208 Uiso
C6_3 C 0.785034 0.779133 0.181668 0.0208 Uiso
C7_3 C 0.886061 0.879085 0.317120 0.0208 Uiso
C8_3 C 0.619859 0.615863 0.186799 0.0208 Uiso
H1_3 H 0.80808 0.802072 0.426451 0.0507 Uiso
H2_3 H 0.697944 0.693168 0.372533 0.0507 Uiso
H3_3 H 0.697840 0.692877 0.077468 0.0507 Uiso
H4_3 H 0.807977 0.80178 0.131386 0.0507 Uiso
O1_4 O 0.585671 0.409606 0.248735 0.0071 Uiso
C1_4 C 0.682833 0.310963 0.216607 0.0071 Uiso
C2_4 C 0.714906 0.279303 0.146315 0.0208 Uiso
C3_4 C 0.779113 0.215815 0.177749 0.0208 Uiso
C4_4 C 0.811247 0.183986 0.279474 0.0208 Uiso
C5_4 C 0.779174 0.215645 0.349765 0.0208 Uiso
C6_4 C 0.714966 0.279133 0.318332 0.0208 Uiso
C7_4 C 0.613939 0.379085 0.182880 0.0208 Uiso
C8_4 C 0.880141 0.115863 0.313201 0.0208 Uiso
H1_4 H 0.69192 0.302072 0.073549 0.0507 Uiso
H2_4 H 0.802056 0.193168 0.127467 0.0507 Uiso
H3_4 H 0.802160 0.192877 0.422532 0.0507 Uiso
H4_4 H 0.692023 0.30178 0.368614 0.0507 Uiso
O7_4 O 0.414329 0.409606 0.251265 0.0071 Uiso
C9_4 C 0.317167 0.310963 0.283393 0.0071 Uiso
C10_4 C 0.285094 0.279303 0.353685 0.0208 Uiso
C11_4 C 0.220887 0.215815 0.322251 0.0208 Uiso
C12_4 C 0.188753 0.183986 0.220526 0.0208 Uiso
C13_4 C 0.220826 0.215645 0.150235 0.0208 Uiso
C14_4 C 0.285034 0.279133 0.181668 0.0208 Uiso
C15_4 C 0.386061 0.379085 0.317120 0.0208 Uiso
C16_4 C 0.119859 0.115863 0.186799 0.0208 Uiso
H5_4 H 0.30808 0.302072 0.426451 0.0507 Uiso
H6_4 H 0.197944 0.193168 0.372533 0.0507 Uiso
H7_4 H 0.197840 0.192877 0.077468 0.0507 Uiso
H8_4 H 0.307977 0.30178 0.131386 0.0507 Uiso
loop_
_geom_bond_atom_site_label_1
_geom_bond_atom_site_label_2
_geom_bond_site_symmetry_1
_geom_bond_site_symmetry_2
O12 Fe2 1_555 1_555
O1 C7 1_555 1_555
O2 C7 1_555 1_555
O3 C8 1_555 1_555
O4 C8 1_555 1_555
C1 C2 1_555 1_555
C2 C3 1_555 1_555
C3 C4 1_555 1_555
C4 C5 1_555 1_555
C5 C6 1_555 1_555
C6 C1 1_555 1_555
C7 C1 1_555 1_555
C8 C4 1_555 1_555
H1 C2 1_555 1_555
H2 C3 1_555 1_555
H3 C5 1_555 1_555
H4 C6 1_555 1_555
Fe5 O4 1_555 1_555
Fe6 O2 1_555 1_555
Fe7_2 O3 1_555 1_555
O11 Fe2_3 1_555 1_555
Fe2_4 O5 1_555 1_555
O5 Fe1 1_555 1_555
O14 Fe1 1_555 1_555
O6 Fe2_5 1_555 1_555
Fe3_2 O6 1_555 1_555
O8 Fe2_6 1_555 1_555
O9 C16 1_555 1_555
O10 C16 1_555 1_555
C9 C10 1_555 1_555
C10 C11 1_555 1_555
C11 C12 1_555 1_555
C12 C13 1_555 1_555
C13 C14 1_555 1_555
C14 C9 1_555 1_555
C15 O7 1_555 1_555
C16 C12 1_555 1_555
H5 C10 1_555 1_555
H6 C11 1_555 1_555
H7 C13 1_555 1_555
H8 C14 1_555 1_555
Fe5 O10 1_555 1_555
Fe8 O9 1_555 1_555
O8 C15 1_555 1_555
C9 C15 1_555 1_555
O13 Fe2_8 1_555 1_555
O15 Fe1_2 1_555 1_555
O16 Fe1_2 1_555 1_555
Fe6_4 O16 1_555 1_555
O6_2 Fe6 1_555 1_555
Fe3 O6_2 1_555 1_555
O13_2 Fe6_2 1_555 1_555
O12_2 Fe6_3 1_555 1_555
O11_2 Fe6_4 1_555 1_555
Fe5 O1_2 1_555 1_555
O1_2 C7_2 1_555 1_555
O2_2 C7_2 1_555 1_555
O13_2 C8_2 1_555 1_555
O14 C8_2 1_555 1_555
C1_2 C2_2 1_555 1_555
C2_2 C3_2 1_555 1_555
C3_2 C4_2 1_555 1_555
C4_2 C5_2 1_555 1_555
C5_2 C6_2 1_555 1_555
C6_2 C1_2 1_555 1_555
C7_2 C1_2 1_555 1_555
C8_2 C4_2 1_555 1_555
H1_2 C2_2 1_555 1_555
H2_2 C3_2 1_555 1_555
H3_2 C5_2 1_555 1_555
H4_2 C6_2 1_555 1_555
Fe8 O5_2 1_555 1_555
O5_2 Fe5 1_555 1_555
O6_3 Fe8 1_555 1_555
O7_2 Fe5 1_555 1_555
O8_2 Fe8 1_555 1_555
O13 C16_2 1_555 1_555
O15 C16_2 1_555 1_555
C9_2 C10_2 1_555 1_555
C10_2 C11_2 1_555 1_555
C11_2 C12_2 1_555 1_555
C12_2 C13_2 1_555 1_555
C13_2 C14_2 1_555 1_555
C14_2 C9_2 1_555 1_555
C15_2 O7_2 1_555 1_555
C16_2 C12_2 1_555 1_555
H5_2 C10_2 1_555 1_555
H6_2 C11_2 1_555 1_555
H7_2 C13_2 1_555 1_555
H8_2 C14_2 1_555 1_555
Fe3_3 O6_3 1_555 1_555
O11_3 Fe8 1_555 1_555
O12_3 Fe8 1_555 1_555
Fe7_2 O2_2 1_555 1_555
O16_2 Fe5 1_555 1_555
O8_2 C15_2 1_555 1_555
C9_2 C15_2 1_555 1_555
Fe7_2 O16_2 1_555 1_555
O6_4 Fe7 1_555 1_555
Fe3_3 O6_4 1_555 1_555
O11_4 Fe7 1_555 1_555
O12_4 Fe7 1_555 1_555
O15_2 Fe3 1_555 1_555
O12_3 C16_3 1_555 1_555
O10_2 C16_3 1_555 1_555
C9_3 C10_3 1_555 1_555
C10_3 C11_3 1_555 1_555
C11_3 C12_3 1_555 1_555
C12_3 C13_3 1_555 1_555
C13_3 C14_3 1_555 1_555
C14_3 C9_3 1_555 1_555
C15_3 O7_3 1_555 1_555
C16_3 C12_3 1_555 1_555
H5_3 C10_3 1_555 1_555
H6_3 C11_3 1_555 1_555
H7_3 C13_3 1_555 1_555
H8_3 C14_3 1_555 1_555
Fe3_3 O10_2 1_555 1_555
O11 C15_3 1_555 1_555
C9_3 C15_3 1_555 1_555
O14_2 Fe3_2 1_555 1_555
O1_3 C7_3 1_555 1_555
O11_2 C7_3 1_555 1_555
O12_4 C8_3 1_555 1_555
O4_2 C8_3 1_555 1_555
C1_3 C2_3 1_555 1_555
C2_3 C3_3 1_555 1_555
C3_3 C4_3 1_555 1_555
C4_3 C5_3 1_555 1_555
C5_3 C6_3 1_555 1_555
C6_3 C1_3 1_555 1_555
C7_3 C1_3 1_555 1_555
C8_3 C4_3 1_555 1_555
H1_3 C2_3 1_555 1_555
H2_3 C3_3 1_555 1_555
H3_3 C5_3 1_555 1_555
H4_3 C6_3 1_555 1_555
Fe3_3 O4_2 1_555 1_555
Fe3_3 O1_4 1_555 1_555
O1_4 C7_4 1_555 1_555
O11_4 C7_4 1_555 1_555
O12_2 C8_4 1_555 1_555
O14_2 C8_4 1_555 1_555
C1_4 C2_4 1_555 1_555
C2_4 C3_4 1_555 1_555
C3_4 C4_4 1_555 1_555
C4_4 C5_4 1_555 1_555
C5_4 C6_4 1_555 1_555
C6_4 C1_4 1_555 1_555
C7_4 C1_4 1_555 1_555
C8_4 C4_4 1_555 1_555
H1_4 C2_4 1_555 1_555
H2_4 C3_4 1_555 1_555
H3_4 C5_4 1_555 1_555
H4_4 C6_4 1_555 1_555
O7_4 Fe3_3 1_555 1_555
O12 C16_4 1_555 1_555
O15_2 C16_4 1_555 1_555
C9_4 C10_4 1_555 1_555
C10_4 C11_4 1_555 1_555
C11_4 C12_4 1_555 1_555
C12_4 C13_4 1_555 1_555
C13_4 C14_4 1_555 1_555
C14_4 C9_4 1_555 1_555
C15_4 O7_4 1_555 1_555
C16_4 C12_4 1_555 1_555
H5_4 C10_4 1_555 1_555
H6_4 C11_4 1_555 1_555
H7_4 C13_4 1_555 1_555
H8_4 C14_4 1_555 1_555
O11_3 C15_4 1_555 1_555
C9_4 C15_4 1_555 1_555

#END
