
###############################################################################
#
# This file contains modified crystal structure data generated from the
# MOF subset of the Cambridge Structural Database (CSD) v543 
# hosted by the Cambridge Crystallographic Data Centre (CCDC).
#
# This work is licensed under the Creative Commons
# Attribution-NonCommercial-ShareAlike 4.0 International License.
# To view a copy of this license, visit
# http://creativecommons.org/licenses/by-nc-sa/4.0/
# or send a letter to
# Creative Commons, PO Box 1866, Mountain View, CA 94042, USA.
#
# CIF created using the CSD Python API on 29 September 2022
# The structure has been converted into the P1 space group
# The structure has a 3D framework
# The original CSD entry SETQOZ is in the monoclinic crystal system
# The framework has been calculated to contain at least 10.0% void space
# The void calculation uses a probe of radius 1.32A, grid spacing 0.4
#
###############################################################################

data_SETQOZ
_chemical_formula_moiety         '(C64 H32 Fe10 O38)n'
_symmetry_cell_setting           triclinic
_symmetry_space_group_name_H-M   'P 1'
_symmetry_Int_Tables_number      1
_space_group_name_Hall           'P 1'
loop_
_symmetry_equiv_pos_site_id
_symmetry_equiv_pos_as_xyz
1 x,y,z
_cell_length_a                   15.86272(30)
_cell_length_b                   15.99594(29)
_cell_length_c                   13.80696(19)
_cell_angle_alpha                90
_cell_angle_beta                 115.30892(89)
_cell_angle_gamma                90
_cell_volume                     3167.1
loop_
_atom_site_label
_atom_site_type_symbol
_atom_site_fract_x
_atom_site_fract_y
_atom_site_fract_z
_atom_site_U_iso_or_equiv
_atom_site_thermal_displace_type
Fe2 Fe 0.000 0.000 0 0.0006 Uiso
Fe3 Fe 0.000 0.00104(26) 0.250 0.0006 Uiso
O14 O 0.084582 0.090430 0.085132 0.0122 Uiso
Fe7 Fe 0.500 0.500 0 0.0006 Uiso
O1 O 0.094942 0.081998 0.595903 0.0122 Uiso
O2 O 0.086811 0.087668 0.750868 0.0122 Uiso
O3 O 0.417379 0.408878 0.756527 0.0122 Uiso
O4 O 0.415418 0.409570 0.914868 0.0122 Uiso
C1 C 0.189050 0.182665 0.722337 0.0156 Uiso
C2 C 0.221537 0.215176 0.651671 0.0156 Uiso
C3 C 0.286125 0.279539 0.683876 0.0156 Uiso
C4 C 0.318225 0.311392 0.786746 0.0156 Uiso
C5 C 0.285738 0.278881 0.857412 0.0156 Uiso
C6 C 0.221150 0.214518 0.825207 0.0156 Uiso
C7 C 0.120492 0.114345 0.688152 0.0156 Uiso
C8 C 0.386783 0.379712 0.820931 0.0156 Uiso
H1 H 0.198821 0.192635 0.578875 0.0507 Uiso
H2 H 0.309114 0.302545 0.633869 0.0507 Uiso
H3 H 0.308453 0.301422 0.930208 0.0507 Uiso
H4 H 0.198160 0.191512 0.875214 0.0507 Uiso
Fe2_2 Fe 0.000 0.000 1 0.0006 Uiso
O5 O 0.06242(27) 0.00259(79) 0.90765(26) 0.0122 Uiso
Fe5 Fe 0.500 0.49896(26) 0.750 0.0006 Uiso
Fe6 Fe 0.000 0.000 0.5 0.0006 Uiso
Fe7_2 Fe 0.500 0.500 1 0.0006 Uiso
Fe2_3 Fe -0.000 1.000 0 0.0006 Uiso
O11 O 0.094942 0.918002 0.095903 0.0122 Uiso
Fe1 Fe 0.000 0.99896(26) 0.750 0.0006 Uiso
Fe2_4 Fe 0.000 1.000 1 0.0006 Uiso
O12 O 0.082621 0.908878 0.743473 0.0122 Uiso
Fe6_2 Fe 0.000 1.000 0.5 0.0006 Uiso
Fe2_5 Fe 1.000 0.000 0 0.0006 Uiso
Fe3_2 Fe 1.000 0.00104(26) 0.250 0.0006 Uiso
Fe2_6 Fe 1.000 0.000 1 0.0006 Uiso
O7 O 0.905058 0.081998 0.904097 0.0122 Uiso
O8 O 0.913189 0.087668 0.749132 0.0122 Uiso
O9 O 0.582621 0.408878 0.743473 0.0122 Uiso
O10 O 0.584582 0.409570 0.585132 0.0122 Uiso
C9 C 0.810950 0.182665 0.777663 0.0156 Uiso
C10 C 0.778463 0.215176 0.848329 0.0156 Uiso
C11 C 0.713875 0.279539 0.816124 0.0156 Uiso
C12 C 0.681775 0.311392 0.713254 0.0156 Uiso
C13 C 0.714262 0.278881 0.642588 0.0156 Uiso
C14 C 0.778850 0.214518 0.674793 0.0156 Uiso
C15 C 0.879508 0.114345 0.811848 0.0156 Uiso
C16 C 0.613217 0.379712 0.679069 0.0156 Uiso
H5 H 0.801179 0.192635 0.921125 0.0507 Uiso
H6 H 0.690886 0.302545 0.866131 0.0507 Uiso
H7 H 0.691547 0.301422 0.569792 0.0507 Uiso
H8 H 0.801840 0.191512 0.624786 0.0507 Uiso
Fe6_3 Fe 1.000 0.000 0.5 0.0006 Uiso
Fe8 Fe 0.500 0.500 0.5 0.0006 Uiso
O16 O 0.93758(27) 0.00259(79) 0.59235(26) 0.0122 Uiso
Fe2_7 Fe 1.000 1.000 0 0.0006 Uiso
O6 O 0.93758(27) 0.99741(79) 0.09235(26) 0.0122 Uiso
Fe1_2 Fe 1.000 0.99896(26) 0.750 0.0006 Uiso
Fe2_8 Fe 1.000 1.000 1 0.0006 Uiso
O13 O 0.917379 0.908878 0.756527 0.0122 Uiso
O15 O 0.915418 0.909570 0.914868 0.0122 Uiso
Fe6_4 Fe 1.000 1.000 0.5 0.0006 Uiso
O6_2 O 0.06242(27) 0.99741(79) 0.40765(26) 0.0122 Uiso
O15_2 O 0.084582 0.909570 0.585132 0.0122 Uiso
O14_2 O 0.915418 0.090430 0.414868 0.0122 Uiso
O11_2 O 0.905058 0.918002 0.404097 0.0122 Uiso
O1_2 O 0.405058 0.581998 0.904097 0.0122 Uiso
O2_2 O 0.413189 0.587668 0.749132 0.0122 Uiso
C1_2 C 0.310950 0.682665 0.777663 0.0156 Uiso
C2_2 C 0.278463 0.715176 0.848329 0.0156 Uiso
C3_2 C 0.213875 0.779539 0.816124 0.0156 Uiso
C4_2 C 0.181775 0.811392 0.713254 0.0156 Uiso
C5_2 C 0.214262 0.778881 0.642588 0.0156 Uiso
C6_2 C 0.278850 0.714518 0.674793 0.0156 Uiso
C7_2 C 0.379508 0.614345 0.811848 0.0156 Uiso
C8_2 C 0.113217 0.879712 0.679069 0.0156 Uiso
H1_2 H 0.301179 0.692635 0.921125 0.0507 Uiso
H2_2 H 0.190886 0.802545 0.866131 0.0507 Uiso
H3_2 H 0.191547 0.801422 0.569792 0.0507 Uiso
H4_2 H 0.301840 0.691512 0.624786 0.0507 Uiso
O5_2 O 0.43758(27) 0.50259(79) 0.59235(26) 0.0122 Uiso
O6_3 O 0.56242(27) 0.49741(79) 0.40765(26) 0.0122 Uiso
O7_2 O 0.594942 0.581998 0.595903 0.0122 Uiso
O8_2 O 0.586811 0.587668 0.750868 0.0122 Uiso
C9_2 C 0.689050 0.682665 0.722337 0.0156 Uiso
C10_2 C 0.721537 0.715176 0.651671 0.0156 Uiso
C11_2 C 0.786125 0.779539 0.683876 0.0156 Uiso
C12_2 C 0.818225 0.811392 0.786746 0.0156 Uiso
C13_2 C 0.785738 0.778881 0.857412 0.0156 Uiso
C14_2 C 0.721150 0.714518 0.825207 0.0156 Uiso
C15_2 C 0.620492 0.614345 0.688152 0.0156 Uiso
C16_2 C 0.886783 0.879712 0.820931 0.0156 Uiso
H5_2 H 0.698821 0.692635 0.578875 0.0507 Uiso
H6_2 H 0.809114 0.802545 0.633869 0.0507 Uiso
H7_2 H 0.808453 0.801422 0.930208 0.0507 Uiso
H8_2 H 0.698160 0.691512 0.875214 0.0507 Uiso
Fe3_3 Fe 0.500 0.50104(26) 0.250 0.0006 Uiso
O11_3 O 0.405058 0.418002 0.404097 0.0122 Uiso
O14_3 O 0.415418 0.590430 0.414868 0.0122 Uiso
O16_2 O 0.56242(27) 0.50259(79) 0.90765(26) 0.0122 Uiso
O6_4 O 0.43758(27) 0.49741(79) 0.09235(26) 0.0122 Uiso
O11_4 O 0.594942 0.418002 0.095903 0.0122 Uiso
O14_4 O 0.584582 0.590430 0.085132 0.0122 Uiso
O13_2 O 0.082621 0.091122 0.243473 0.0122 Uiso
O8_3 O 0.086811 0.912332 0.250868 0.0122 Uiso
O9_2 O 0.417379 0.591122 0.256527 0.0122 Uiso
C9_3 C 0.189050 0.817335 0.222337 0.0156 Uiso
C10_3 C 0.221537 0.784824 0.151671 0.0156 Uiso
C11_3 C 0.286125 0.720461 0.183876 0.0156 Uiso
C12_3 C 0.318225 0.688608 0.286746 0.0156 Uiso
C13_3 C 0.285738 0.721119 0.357412 0.0156 Uiso
C14_3 C 0.221150 0.785482 0.325207 0.0156 Uiso
C15_3 C 0.120492 0.885655 0.188152 0.0156 Uiso
C16_3 C 0.386783 0.620288 0.320931 0.0156 Uiso
H5_3 H 0.198821 0.807365 0.078875 0.0507 Uiso
H6_3 H 0.309114 0.697455 0.133869 0.0507 Uiso
H7_3 H 0.308453 0.698578 0.430208 0.0507 Uiso
H8_3 H 0.198160 0.808488 0.375214 0.0507 Uiso
O12_2 O 0.917379 0.091122 0.256527 0.0122 Uiso
O2_3 O 0.913189 0.912332 0.249132 0.0122 Uiso
O3_2 O 0.582621 0.591122 0.243473 0.0122 Uiso
C1_3 C 0.810950 0.817335 0.277663 0.0156 Uiso
C2_3 C 0.778463 0.784824 0.348329 0.0156 Uiso
C3_3 C 0.713875 0.720461 0.316124 0.0156 Uiso
C4_3 C 0.681775 0.688608 0.213254 0.0156 Uiso
C5_3 C 0.714262 0.721119 0.142588 0.0156 Uiso
C6_3 C 0.778850 0.785482 0.174793 0.0156 Uiso
C7_3 C 0.879508 0.885655 0.311848 0.0156 Uiso
C8_3 C 0.613217 0.620288 0.179069 0.0156 Uiso
H1_3 H 0.801179 0.807365 0.421125 0.0507 Uiso
H2_3 H 0.690886 0.697455 0.366131 0.0507 Uiso
H3_3 H 0.691547 0.698578 0.069792 0.0507 Uiso
H4_3 H 0.801840 0.808488 0.124786 0.0507 Uiso
O2_4 O 0.586811 0.412332 0.250868 0.0122 Uiso
C1_4 C 0.689050 0.317335 0.222337 0.0156 Uiso
C2_4 C 0.721537 0.284824 0.151671 0.0156 Uiso
C3_4 C 0.786125 0.220461 0.183876 0.0156 Uiso
C4_4 C 0.818225 0.188608 0.286746 0.0156 Uiso
C5_4 C 0.785738 0.221119 0.357412 0.0156 Uiso
C6_4 C 0.721150 0.285482 0.325207 0.0156 Uiso
C7_4 C 0.620492 0.385655 0.188152 0.0156 Uiso
C8_4 C 0.886783 0.120288 0.320931 0.0156 Uiso
H1_4 H 0.698821 0.307365 0.078875 0.0507 Uiso
H2_4 H 0.809114 0.197455 0.133869 0.0507 Uiso
H3_4 H 0.808453 0.198578 0.430208 0.0507 Uiso
H4_4 H 0.698160 0.308488 0.375214 0.0507 Uiso
O8_4 O 0.413189 0.412332 0.249132 0.0122 Uiso
C9_4 C 0.310950 0.317335 0.277663 0.0156 Uiso
C10_4 C 0.278463 0.284824 0.348329 0.0156 Uiso
C11_4 C 0.213875 0.220461 0.316124 0.0156 Uiso
C12_4 C 0.181775 0.188608 0.213254 0.0156 Uiso
C13_4 C 0.214262 0.221119 0.142588 0.0156 Uiso
C14_4 C 0.278850 0.285482 0.174793 0.0156 Uiso
C15_4 C 0.379508 0.385655 0.311848 0.0156 Uiso
C16_4 C 0.113217 0.120288 0.179069 0.0156 Uiso
H5_4 H 0.301179 0.307365 0.421125 0.0507 Uiso
H6_4 H 0.190886 0.197455 0.366131 0.0507 Uiso
H7_4 H 0.191547 0.198578 0.069792 0.0507 Uiso
H8_4 H 0.301840 0.308488 0.124786 0.0507 Uiso
loop_
_geom_bond_atom_site_label_1
_geom_bond_atom_site_label_2
_geom_bond_site_symmetry_1
_geom_bond_site_symmetry_2
O14 Fe2 1_555 1_555
O1 C7 1_555 1_555
O2 C7 1_555 1_555
O3 C8 1_555 1_555
O4 C8 1_555 1_555
C1 C2 1_555 1_555
C2 C3 1_555 1_555
C3 C4 1_555 1_555
C4 C5 1_555 1_555
C5 C6 1_555 1_555
C6 C1 1_555 1_555
C7 C1 1_555 1_555
C8 C4 1_555 1_555
H1 C2 1_555 1_555
H2 C3 1_555 1_555
H3 C5 1_555 1_555
H4 C6 1_555 1_555
Fe2_2 O5 1_555 1_555
Fe5 O3 1_555 1_555
Fe6 O1 1_555 1_555
Fe7_2 O4 1_555 1_555
O11 Fe2_3 1_555 1_555
O12 Fe1 1_555 1_555
O7 Fe2_6 1_555 1_555
O9 C16 1_555 1_555
O10 C16 1_555 1_555
C9 C10 1_555 1_555
C10 C11 1_555 1_555
C11 C12 1_555 1_555
C12 C13 1_555 1_555
C13 C14 1_555 1_555
C14 C9 1_555 1_555
C15 O7 1_555 1_555
C16 C12 1_555 1_555
H5 C10 1_555 1_555
H6 C11 1_555 1_555
H7 C13 1_555 1_555
H8 C14 1_555 1_555
Fe5 O9 1_555 1_555
Fe8 O10 1_555 1_555
O8 C15 1_555 1_555
C9 C15 1_555 1_555
Fe6_3 O16 1_555 1_555
O6 Fe2_7 1_555 1_555
O13 Fe1_2 1_555 1_555
O15 Fe2_8 1_555 1_555
O6_2 Fe6_2 1_555 1_555
O15_2 Fe6_2 1_555 1_555
O14_2 Fe6_3 1_555 1_555
O11_2 Fe6_4 1_555 1_555
Fe5 O2_2 1_555 1_555
O1_2 C7_2 1_555 1_555
O2_2 C7_2 1_555 1_555
O12 C8_2 1_555 1_555
O15_2 C8_2 1_555 1_555
C1_2 C2_2 1_555 1_555
C2_2 C3_2 1_555 1_555
C3_2 C4_2 1_555 1_555
C4_2 C5_2 1_555 1_555
C5_2 C6_2 1_555 1_555
C6_2 C1_2 1_555 1_555
C7_2 C1_2 1_555 1_555
C8_2 C4_2 1_555 1_555
H1_2 C2_2 1_555 1_555
H2_2 C3_2 1_555 1_555
H3_2 C5_2 1_555 1_555
H4_2 C6_2 1_555 1_555
Fe8 O5_2 1_555 1_555
O5_2 Fe5 1_555 1_555
O6_3 Fe8 1_555 1_555
O7_2 Fe8 1_555 1_555
O8_2 Fe5 1_555 1_555
O13 C16_2 1_555 1_555
O15 C16_2 1_555 1_555
C9_2 C10_2 1_555 1_555
C10_2 C11_2 1_555 1_555
C11_2 C12_2 1_555 1_555
C12_2 C13_2 1_555 1_555
C13_2 C14_2 1_555 1_555
C14_2 C9_2 1_555 1_555
C15_2 O7_2 1_555 1_555
C16_2 C12_2 1_555 1_555
H5_2 C10_2 1_555 1_555
H6_2 C11_2 1_555 1_555
H7_2 C13_2 1_555 1_555
H8_2 C14_2 1_555 1_555
Fe3_3 O6_3 1_555 1_555
O11_3 Fe8 1_555 1_555
O14_3 Fe8 1_555 1_555
Fe7_2 O1_2 1_555 1_555
O16_2 Fe5 1_555 1_555
O8_2 C15_2 1_555 1_555
C9_2 C15_2 1_555 1_555
Fe7_2 O16_2 1_555 1_555
O6_4 Fe7 1_555 1_555
Fe3_3 O6_4 1_555 1_555
O11_4 Fe7 1_555 1_555
O14_4 Fe7 1_555 1_555
O13_2 Fe3 1_555 1_555
O9_2 C16_3 1_555 1_555
O14_3 C16_3 1_555 1_555
C9_3 C10_3 1_555 1_555
C10_3 C11_3 1_555 1_555
C11_3 C12_3 1_555 1_555
C12_3 C13_3 1_555 1_555
C13_3 C14_3 1_555 1_555
C14_3 C9_3 1_555 1_555
C15_3 O11 1_555 1_555
C16_3 C12_3 1_555 1_555
H5_3 C10_3 1_555 1_555
H6_3 C11_3 1_555 1_555
H7_3 C13_3 1_555 1_555
H8_3 C14_3 1_555 1_555
Fe3_3 O9_2 1_555 1_555
O8_3 C15_3 1_555 1_555
C9_3 C15_3 1_555 1_555
O12_2 Fe3_2 1_555 1_555
O11_2 C7_3 1_555 1_555
O2_3 C7_3 1_555 1_555
O3_2 C8_3 1_555 1_555
O14_4 C8_3 1_555 1_555
C1_3 C2_3 1_555 1_555
C2_3 C3_3 1_555 1_555
C3_3 C4_3 1_555 1_555
C4_3 C5_3 1_555 1_555
C5_3 C6_3 1_555 1_555
C6_3 C1_3 1_555 1_555
C7_3 C1_3 1_555 1_555
C8_3 C4_3 1_555 1_555
H1_3 C2_3 1_555 1_555
H2_3 C3_3 1_555 1_555
H3_3 C5_3 1_555 1_555
H4_3 C6_3 1_555 1_555
Fe3_3 O3_2 1_555 1_555
Fe3_3 O2_4 1_555 1_555
O11_4 C7_4 1_555 1_555
O2_4 C7_4 1_555 1_555
O12_2 C8_4 1_555 1_555
O14_2 C8_4 1_555 1_555
C1_4 C2_4 1_555 1_555
C2_4 C3_4 1_555 1_555
C3_4 C4_4 1_555 1_555
C4_4 C5_4 1_555 1_555
C5_4 C6_4 1_555 1_555
C6_4 C1_4 1_555 1_555
C7_4 C1_4 1_555 1_555
C8_4 C4_4 1_555 1_555
H1_4 C2_4 1_555 1_555
H2_4 C3_4 1_555 1_555
H3_4 C5_4 1_555 1_555
H4_4 C6_4 1_555 1_555
O8_4 Fe3_3 1_555 1_555
O13_2 C16_4 1_555 1_555
O14 C16_4 1_555 1_555
C9_4 C10_4 1_555 1_555
C10_4 C11_4 1_555 1_555
C11_4 C12_4 1_555 1_555
C12_4 C13_4 1_555 1_555
C13_4 C14_4 1_555 1_555
C14_4 C9_4 1_555 1_555
C15_4 O11_3 1_555 1_555
C16_4 C12_4 1_555 1_555
H5_4 C10_4 1_555 1_555
H6_4 C11_4 1_555 1_555
H7_4 C13_4 1_555 1_555
H8_4 C14_4 1_555 1_555
O8_4 C15_4 1_555 1_555
C9_4 C15_4 1_555 1_555

#END
