
###############################################################################
#
# This file contains modified crystal structure data generated from the
# MOF subset of the Cambridge Structural Database (CSD) v543 
# hosted by the Cambridge Crystallographic Data Centre (CCDC).
#
# This work is licensed under the Creative Commons
# Attribution-NonCommercial-ShareAlike 4.0 International License.
# To view a copy of this license, visit
# http://creativecommons.org/licenses/by-nc-sa/4.0/
# or send a letter to
# Creative Commons, PO Box 1866, Mountain View, CA 94042, USA.
#
# CIF created using the CSD Python API on 29 September 2022
# The structure has been converted into the P1 space group
# The structure has a 3D framework
# The original CSD entry SETQEP is in the monoclinic crystal system
# The framework has been calculated to contain at least 10.0% void space
# The void calculation uses a probe of radius 1.32A, grid spacing 0.4
#
###############################################################################

data_SETQEP
_chemical_formula_moiety         '(C32 H16 Fe4 O17)n'
_symmetry_cell_setting           triclinic
_symmetry_space_group_name_H-M   'P 1'
_symmetry_Int_Tables_number      1
_space_group_name_Hall           'P 1'
loop_
_symmetry_equiv_pos_site_id
_symmetry_equiv_pos_as_xyz
1 x,y,z
_cell_length_a                   20.4633(3)
_cell_length_b                   9.2876(3)
_cell_length_c                   6.8839(3)
_cell_angle_alpha                90
_cell_angle_beta                 112.718(1)
_cell_angle_gamma                90
_cell_volume                     1206.82
loop_
_atom_site_label
_atom_site_type_symbol
_atom_site_fract_x
_atom_site_fract_y
_atom_site_fract_z
Fe1 Fe 0.0050(25) 0.0105(4) 0.0147(70)
O2 O 0.0853 0.0984 0.0264
O4 O 0.4348 0.3408 0.3318
C4 C 0.3203 0.2814 0.0725
C5 C 0.2933 0.2517 0.2220
C6 C 0.2249 0.2043 0.1622
C8 C 0.3950 0.3331 0.1378
H3 H 0.3230 0.2645 0.3716
H4 H 0.2057 0.1831 0.2691
Fe3 Fe 0.5050(25) 0.5105(4) 0.0147(70)
Fe4 Fe 0.5050(25) 0.4895(4) 0.5147(70)
O9 O 0.0052(27) 0.0967(5) 0.2629(74)
O1 O 0.0690 0.1271 0.6937
O3 O 0.4185 0.3695 0.9991
C1 C 0.1835 0.1865 0.9530
C2 C 0.2105 0.2161 0.8036
C3 C 0.2789 0.2636 0.8633
C7 C 0.1089 0.1347 0.8878
H1 H 0.1809 0.2034 0.6539
H2 H 0.2982 0.2848 0.7564
O6 O 0.0690 0.8729 0.1937
O5 O 0.0052(27) 0.9033(5) 0.7629(74)
Fe2 Fe 0.0050(25) 0.9895(4) 0.5147(70)
O8 O 0.9348 0.1592 0.8318
O7 O 0.9185 0.8695 0.9991
O2_2 O 0.0853 0.9016 0.5264
O3_2 O 0.4185 0.6305 0.4991
O4_2 O 0.4348 0.6592 0.8318
C1_2 C 0.1835 0.8135 0.4530
C2_2 C 0.2105 0.7839 0.3036
C3_2 C 0.2789 0.7364 0.3633
C4_2 C 0.3203 0.7186 0.5725
C5_2 C 0.2933 0.7483 0.7220
C6_2 C 0.2249 0.7957 0.6622
C7_2 C 0.1089 0.8653 0.3878
C8_2 C 0.3950 0.6669 0.6378
H1_2 H 0.1809 0.7966 0.1539
H2_2 H 0.2982 0.7152 0.2564
H3_2 H 0.3230 0.7355 0.8716
H4_2 H 0.2057 0.8169 0.7691
O7_2 O 0.9185 0.1305 0.4991
O8_2 O 0.9348 0.8408 0.3318
O2_3 O 0.5853 0.5984 0.0264
C4_3 C 0.8203 0.7814 0.0725
C5_3 C 0.7933 0.7517 0.2220
C6_3 C 0.7249 0.7043 0.1622
C8_3 C 0.8950 0.8331 0.1378
H3_3 H 0.8230 0.7645 0.3716
H4_3 H 0.7057 0.6831 0.2691
O6_2 O 0.5690 0.3729 0.1937
O9_2 O 0.5052(27) 0.5967(5) 0.2629(74)
O1_2 O 0.5690 0.6271 0.6937
C1_3 C 0.6835 0.6865 0.9530
C2_3 C 0.7105 0.7161 0.8036
C3_3 C 0.7789 0.7636 0.8633
C7_3 C 0.6089 0.6347 0.8878
H1_3 H 0.6809 0.7034 0.6539
H2_3 H 0.7982 0.7848 0.7564
O5_2 O 0.5052(27) 0.4033(5) 0.7629(74)
O2_4 O 0.5853 0.4016 0.5264
C1_4 C 0.6835 0.3135 0.4530
C2_4 C 0.7105 0.2839 0.3036
C3_4 C 0.7789 0.2364 0.3633
C4_4 C 0.8203 0.2186 0.5725
C5_4 C 0.7933 0.2483 0.7220
C6_4 C 0.7249 0.2957 0.6622
C7_4 C 0.6089 0.3653 0.3878
C8_4 C 0.8950 0.1669 0.6378
H1_4 H 0.6809 0.2966 0.1539
H2_4 H 0.7982 0.2152 0.2564
H3_4 H 0.8230 0.2355 0.8716
H4_4 H 0.7057 0.3169 0.7691
loop_
_geom_bond_atom_site_label_1
_geom_bond_atom_site_label_2
_geom_bond_site_symmetry_1
_geom_bond_site_symmetry_2
Fe1 O2 1_555 1_555
O4 C8 1_555 1_555
C4 C5 1_555 1_555
C5 C6 1_555 1_555
C8 C4 1_555 1_555
H3 C5 1_555 1_555
H4 C6 1_555 1_555
Fe4 O4 1_555 1_555
O9 Fe1 1_555 1_555
O1 C7 1_555 1_555
C1 C2 1_555 1_555
C2 C3 1_555 1_555
C7 C1 1_555 1_555
H1 C2 1_555 1_555
H2 C3 1_555 1_555
O5 Fe2 1_555 1_555
Fe2 O2_2 1_555 1_555
O6 C7_2 1_555 1_555
O2_2 C7_2 1_555 1_555
O3_2 C8_2 1_555 1_555
O4_2 C8_2 1_555 1_555
C1_2 C2_2 1_555 1_555
C2_2 C3_2 1_555 1_555
C3_2 C4_2 1_555 1_555
C4_2 C5_2 1_555 1_555
C5_2 C6_2 1_555 1_555
C6_2 C1_2 1_555 1_555
C7_2 C1_2 1_555 1_555
C8_2 C4_2 1_555 1_555
H1_2 C2_2 1_555 1_555
H2_2 C3_2 1_555 1_555
H3_2 C5_2 1_555 1_555
H4_2 C6_2 1_555 1_555
Fe4 O3_2 1_555 1_555
Fe3 O2_3 1_555 1_555
O8_2 C8_3 1_555 1_555
C4_3 C5_3 1_555 1_555
C5_3 C6_3 1_555 1_555
C8_3 C4_3 1_555 1_555
H3_3 C5_3 1_555 1_555
H4_3 C6_3 1_555 1_555
O6_2 Fe3 1_555 1_555
O9_2 Fe3 1_555 1_555
O1_2 C7_3 1_555 1_555
C1_3 C2_3 1_555 1_555
C2_3 C3_3 1_555 1_555
C7_3 C1_3 1_555 1_555
H1_3 C2_3 1_555 1_555
H2_3 C3_3 1_555 1_555
Fe4 O1_2 1_555 1_555
O5_2 Fe4 1_555 1_555
Fe4 O2_4 1_555 1_555
O6_2 C7_4 1_555 1_555
O2_4 C7_4 1_555 1_555
O7_2 C8_4 1_555 1_555
O8 C8_4 1_555 1_555
C1_4 C2_4 1_555 1_555
C2_4 C3_4 1_555 1_555
C3_4 C4_4 1_555 1_555
C4_4 C5_4 1_555 1_555
C5_4 C6_4 1_555 1_555
C6_4 C1_4 1_555 1_555
C7_4 C1_4 1_555 1_555
C8_4 C4_4 1_555 1_555
H1_4 C2_4 1_555 1_555
H2_4 C3_4 1_555 1_555
H3_4 C5_4 1_555 1_555
H4_4 C6_4 1_555 1_555
O9_2 Fe4 1_555 1_555

#END
