
###############################################################################
#
# This file contains modified crystal structure data generated from the
# MOF subset of the Cambridge Structural Database (CSD) v543 
# hosted by the Cambridge Crystallographic Data Centre (CCDC).
#
# This work is licensed under the Creative Commons
# Attribution-NonCommercial-ShareAlike 4.0 International License.
# To view a copy of this license, visit
# http://creativecommons.org/licenses/by-nc-sa/4.0/
# or send a letter to
# Creative Commons, PO Box 1866, Mountain View, CA 94042, USA.
#
# CIF created using the CSD Python API on 29 September 2022
# The structure has been converted into the P1 space group
# The structure has a 3D framework
# The original CSD entry SETQIT is in the monoclinic crystal system
# The framework has been calculated to contain at least 10.0% void space
# The void calculation uses a probe of radius 1.32A, grid spacing 0.4
#
###############################################################################

data_SETQIT
_chemical_formula_moiety         '(C32 H16 Fe4 O18)n'
_symmetry_cell_setting           triclinic
_symmetry_space_group_name_H-M   'P 1'
_symmetry_Int_Tables_number      1
_space_group_name_Hall           'P 1'
loop_
_symmetry_equiv_pos_site_id
_symmetry_equiv_pos_as_xyz
1 x,y,z
_cell_length_a                   20.5308(2)
_cell_length_b                   9.1709(2)
_cell_length_c                   6.8801(2)
_cell_angle_alpha                90
_cell_angle_beta                 113.072(1)
_cell_angle_gamma                90
_cell_volume                     1191.81
loop_
_atom_site_label
_atom_site_type_symbol
_atom_site_fract_x
_atom_site_fract_y
_atom_site_fract_z
O4 O 0.4372 0.3335 0.2607
C4 C 0.3228 0.2758 0.0019
C5 C 0.2968 0.2438 0.1523
C6 C 0.2283 0.1974 0.0928
C8 C 0.3969 0.3260 0.0661
H3 H 0.3272 0.2541 0.3025
H4 H 0.2096 0.1745 0.2005
Fe4 Fe 0.5054(28) 0.4962(5) 0.454(26)
O9 O 0.0067(30) 0.0989(5) 0.196(26)
Fe1 Fe 0.0054(28) 0.0038(5) 0.954(26)
O1 O 0.0714 0.1253 0.6241
O2 O 0.0885 0.0973 0.9581
O3 O 0.4201 0.3615 0.9267
C1 C 0.1858 0.1830 0.8829
C2 C 0.2118 0.2150 0.7325
C3 C 0.2803 0.2614 0.7920
C7 C 0.1117 0.1328 0.8187
H1 H 0.1814 0.2047 0.5823
H2 H 0.2990 0.2843 0.6843
Fe3 Fe 0.5054(28) 0.5038(5) 0.954(26)
O6 O 0.0714 0.8747 0.1241
O5 O 0.0067(30) 0.9011(5) 0.696(26)
Fe2 Fe 0.0054(28) 0.9962(5) 0.454(26)
O8 O 0.9372 0.1665 0.7607
O7 O 0.9201 0.8615 0.9267
O2_2 O 0.0885 0.9027 0.4581
O3_2 O 0.4201 0.6385 0.4267
O4_2 O 0.4372 0.6665 0.7607
C1_2 C 0.1858 0.8170 0.3829
C2_2 C 0.2118 0.7850 0.2325
C3_2 C 0.2803 0.7386 0.2920
C4_2 C 0.3228 0.7242 0.5019
C5_2 C 0.2968 0.7562 0.6523
C6_2 C 0.2283 0.8026 0.5928
C7_2 C 0.1117 0.8672 0.3187
C8_2 C 0.3969 0.6740 0.5661
H1_2 H 0.1814 0.7953 0.0823
H2_2 H 0.2990 0.7157 0.1843
H3_2 H 0.3272 0.7459 0.8025
H4_2 H 0.2096 0.8255 0.7005
O7_2 O 0.9201 0.1385 0.4267
O8_2 O 0.9372 0.8335 0.2607
C4_3 C 0.8228 0.7758 0.0019
C5_3 C 0.7968 0.7438 0.1523
C6_3 C 0.7283 0.6974 0.0928
C8_3 C 0.8969 0.8260 0.0661
H3_3 H 0.8272 0.7541 0.3025
H4_3 H 0.7096 0.6745 0.2005
O6_2 O 0.5714 0.3747 0.1241
O9_2 O 0.5067(30) 0.5989(5) 0.196(26)
O1_2 O 0.5714 0.6253 0.6241
O2_3 O 0.5885 0.5973 0.9581
C1_3 C 0.6858 0.6830 0.8829
C2_3 C 0.7118 0.7150 0.7325
C3_3 C 0.7803 0.7614 0.7920
C7_3 C 0.6117 0.6328 0.8187
H1_3 H 0.6814 0.7047 0.5823
H2_3 H 0.7990 0.7843 0.6843
O5_2 O 0.5067(30) 0.4011(5) 0.696(26)
O2_4 O 0.5885 0.4027 0.4581
C1_4 C 0.6858 0.3170 0.3829
C2_4 C 0.7118 0.2850 0.2325
C3_4 C 0.7803 0.2386 0.2920
C4_4 C 0.8228 0.2242 0.5019
C5_4 C 0.7968 0.2562 0.6523
C6_4 C 0.7283 0.3026 0.5928
C7_4 C 0.6117 0.3672 0.3187
C8_4 C 0.8969 0.1740 0.5661
H1_4 H 0.6814 0.2953 0.0823
H2_4 H 0.7990 0.2157 0.1843
H3_4 H 0.8272 0.2459 0.8025
H4_4 H 0.7096 0.3255 0.7005
loop_
_geom_bond_atom_site_label_1
_geom_bond_atom_site_label_2
_geom_bond_site_symmetry_1
_geom_bond_site_symmetry_2
O4 C8 1_555 1_555
C4 C5 1_555 1_555
C5 C6 1_555 1_555
C8 C4 1_555 1_555
H3 C5 1_555 1_555
H4 C6 1_555 1_555
Fe4 O4 1_555 1_555
Fe1 O2 1_555 1_555
O1 C7 1_555 1_555
O2 C7 1_555 1_555
C1 C2 1_555 1_555
C2 C3 1_555 1_555
C7 C1 1_555 1_555
H1 C2 1_555 1_555
H2 C3 1_555 1_555
Fe3 O3 1_555 1_555
O5 Fe2 1_555 1_555
Fe2 O2_2 1_555 1_555
O6 C7_2 1_555 1_555
O2_2 C7_2 1_555 1_555
O3_2 C8_2 1_555 1_555
O4_2 C8_2 1_555 1_555
C1_2 C2_2 1_555 1_555
C2_2 C3_2 1_555 1_555
C3_2 C4_2 1_555 1_555
C4_2 C5_2 1_555 1_555
C5_2 C6_2 1_555 1_555
C6_2 C1_2 1_555 1_555
C7_2 C1_2 1_555 1_555
C8_2 C4_2 1_555 1_555
H1_2 C2_2 1_555 1_555
H2_2 C3_2 1_555 1_555
H3_2 C5_2 1_555 1_555
H4_2 C6_2 1_555 1_555
Fe4 O3_2 1_555 1_555
Fe3 O4_2 1_555 1_555
O8_2 C8_3 1_555 1_555
C4_3 C5_3 1_555 1_555
C5_3 C6_3 1_555 1_555
C8_3 C4_3 1_555 1_555
H3_3 C5_3 1_555 1_555
H4_3 C6_3 1_555 1_555
Fe3 O2_3 1_555 1_555
O1_2 C7_3 1_555 1_555
O2_3 C7_3 1_555 1_555
C1_3 C2_3 1_555 1_555
C2_3 C3_3 1_555 1_555
C7_3 C1_3 1_555 1_555
H1_3 C2_3 1_555 1_555
H2_3 C3_3 1_555 1_555
O5_2 Fe3 1_555 1_555
Fe4 O1_2 1_555 1_555
O5_2 Fe4 1_555 1_555
Fe4 O2_4 1_555 1_555
O6_2 C7_4 1_555 1_555
O2_4 C7_4 1_555 1_555
O7_2 C8_4 1_555 1_555
O8 C8_4 1_555 1_555
C1_4 C2_4 1_555 1_555
C2_4 C3_4 1_555 1_555
C3_4 C4_4 1_555 1_555
C4_4 C5_4 1_555 1_555
C5_4 C6_4 1_555 1_555
C6_4 C1_4 1_555 1_555
C7_4 C1_4 1_555 1_555
C8_4 C4_4 1_555 1_555
H1_4 C2_4 1_555 1_555
H2_4 C3_4 1_555 1_555
H3_4 C5_4 1_555 1_555
H4_4 C6_4 1_555 1_555
O9_2 Fe4 1_555 1_555

#END
