
###############################################################################
#
# This file contains modified crystal structure data generated from the
# MOF subset of the Cambridge Structural Database (CSD) v543 
# hosted by the Cambridge Crystallographic Data Centre (CCDC).
#
# This work is licensed under the Creative Commons
# Attribution-NonCommercial-ShareAlike 4.0 International License.
# To view a copy of this license, visit
# http://creativecommons.org/licenses/by-nc-sa/4.0/
# or send a letter to
# Creative Commons, PO Box 1866, Mountain View, CA 94042, USA.
#
# CIF created using the CSD Python API on 29 September 2022
# The structure has been converted into the P1 space group
# The structure has a 3D framework
# The original CSD entry SETXIA is in the cubic crystal system
# The framework has been calculated to contain at least 10.0% void space
# The void calculation uses a probe of radius 1.32A, grid spacing 0.4
# The framework is charged, counterions have been retained in the structure
# H atom positions have been added when not included in the experimental data
#
###############################################################################

data_SETXIA
_chemical_formula_moiety         '(C192 H240 Cu9 Mo30 N144 O86 8-)n'
_symmetry_cell_setting           triclinic
_symmetry_space_group_name_H-M   'P 1'
_symmetry_Int_Tables_number      1
_space_group_name_Hall           'P 1'
loop_
_symmetry_equiv_pos_site_id
_symmetry_equiv_pos_as_xyz
1 x,y,z
_cell_length_a                   19.6630(3)
_cell_length_b                   19.6630(3)
_cell_length_c                   19.6630(3)
_cell_angle_alpha                90
_cell_angle_beta                 90
_cell_angle_gamma                90
_cell_volume                     7602.38
loop_
_atom_site_label
_atom_site_type_symbol
_atom_site_fract_x
_atom_site_fract_y
_atom_site_fract_z
Mo1 Mo 0.7500 0.2500 0.0000
O1 O 0.7710(7) 0.1772(7) 0.0513(7)
O2 O 0.7290(7) 0.3228(7) 0.0513(7)
H98 H 0.768454 0.334797 0.0804507
H98_2 H 0.731546 0.165203 0.0804507
Mo1_2 Mo 0.7500 0.2500 1.0000
O3 O 0.6772(7) 0.2290(7) 0.9487(7)
O4 O 0.8228(7) 0.2710(7) 0.9487(7)
H97 H 0.834434 0.231757 0.91912
H97_2 H 0.665566 0.268243 0.91912
Mo1_3 Mo 0.2500 0.7500 0.0000
O1_2 O 0.3228(7) 0.7710(7) 0.0513(7)
O2_2 O 0.1772(7) 0.7290(7) 0.0513(7)
H98_3 H 0.165203 0.768454 0.0804507
H98_4 H 0.334797 0.731546 0.0804507
Mo1_4 Mo 0.2500 0.7500 1.0000
O3_2 O 0.2710(7) 0.6772(7) 0.9487(7)
O4_2 O 0.2290(7) 0.8228(7) 0.9487(7)
H97_3 H 0.268243 0.834434 0.91912
H97_4 H 0.231757 0.665566 0.91912
Mo1_5 Mo 0.7500 0.2500 0.5000
O1_3 O 0.7710(7) 0.3228(7) 0.4487(7)
O2_3 O 0.7290(7) 0.1772(7) 0.4487(7)
O3_3 O 0.6772(7) 0.2710(7) 0.5513(7)
O4_3 O 0.8228(7) 0.2290(7) 0.5513(7)
H97_5 H 0.834434 0.268243 0.58088
H98_5 H 0.768454 0.165203 0.419549
H97_6 H 0.665566 0.231757 0.58088
H98_6 H 0.731546 0.334797 0.419549
Mo1_6 Mo 0.2500 0.7500 0.5000
O1_4 O 0.1772(7) 0.7710(7) 0.4487(7)
O2_4 O 0.3228(7) 0.7290(7) 0.4487(7)
O3_4 O 0.2290(7) 0.6772(7) 0.5513(7)
O4_4 O 0.2710(7) 0.8228(7) 0.5513(7)
H97_7 H 0.231757 0.834434 0.58088
H98_7 H 0.334797 0.768454 0.419549
H97_8 H 0.268243 0.665566 0.58088
H98_8 H 0.165203 0.731546 0.419549
Mo1_7 Mo 0.0000 0.7500 0.2500
O1_5 O 0.0513(7) 0.7710(7) 0.1772(7)
O2_5 O 0.0513(7) 0.7290(7) 0.3228(7)
H98_9 H 0.0804507 0.768454 0.334797
H98_10 H 0.0804507 0.731546 0.165203
Mo1_8 Mo 1.0000 0.7500 0.2500
O3_5 O 0.9487(7) 0.6772(7) 0.2290(7)
O4_5 O 0.9487(7) 0.8228(7) 0.2710(7)
H97_9 H 0.91912 0.834434 0.231757
H97_10 H 0.91912 0.665566 0.268243
Mo1_9 Mo 0.7500 0.0000 0.2500
O1_6 O 0.7290(7) 0.0513(7) 0.1772(7)
O2_6 O 0.7710(7) 0.0513(7) 0.3228(7)
H98_11 H 0.731546 0.0804507 0.334797
H98_12 H 0.768454 0.0804507 0.165203
Mo1_10 Mo 0.7500 1.0000 0.2500
O3_6 O 0.8228(7) 0.9487(7) 0.2290(7)
O4_6 O 0.6772(7) 0.9487(7) 0.2710(7)
H97_11 H 0.665566 0.91912 0.231757
H97_12 H 0.834434 0.91912 0.268243
Mo1_11 Mo 0.5000 0.7500 0.2500
O1_7 O 0.4487(7) 0.7290(7) 0.1772(7)
O2_7 O 0.4487(7) 0.7710(7) 0.3228(7)
O3_7 O 0.5513(7) 0.8228(7) 0.2290(7)
O4_7 O 0.5513(7) 0.6772(7) 0.2710(7)
H97_13 H 0.58088 0.665566 0.231757
H98_13 H 0.419549 0.731546 0.334797
H97_14 H 0.58088 0.834434 0.268243
H98_14 H 0.419549 0.768454 0.165203
Mo1_12 Mo 0.7500 0.5000 0.2500
O1_8 O 0.7710(7) 0.4487(7) 0.1772(7)
O2_8 O 0.7290(7) 0.4487(7) 0.3228(7)
O3_8 O 0.6772(7) 0.5513(7) 0.2290(7)
O4_8 O 0.8228(7) 0.5513(7) 0.2710(7)
H97_15 H 0.834434 0.58088 0.231757
H98_15 H 0.768454 0.419549 0.334797
H97_16 H 0.665566 0.58088 0.268243
H98_16 H 0.731546 0.419549 0.165203
Mo1_13 Mo 0.2500 0.0000 0.7500
O1_9 O 0.1772(7) 0.0513(7) 0.7710(7)
O2_9 O 0.3228(7) 0.0513(7) 0.7290(7)
H98_17 H 0.334797 0.0804507 0.768454
H98_18 H 0.165203 0.0804507 0.731546
Mo1_14 Mo 0.2500 1.0000 0.7500
O3_9 O 0.2290(7) 0.9487(7) 0.6772(7)
O4_9 O 0.2710(7) 0.9487(7) 0.8228(7)
H97_17 H 0.231757 0.91912 0.834434
H97_18 H 0.268243 0.91912 0.665566
Mo1_15 Mo 0.5000 0.2500 0.7500
O1_10 O 0.4487(7) 0.3228(7) 0.7290(7)
O2_10 O 0.4487(7) 0.1772(7) 0.7710(7)
O3_10 O 0.5513(7) 0.2710(7) 0.8228(7)
O4_10 O 0.5513(7) 0.2290(7) 0.6772(7)
H97_19 H 0.58088 0.268243 0.665566
H98_19 H 0.419549 0.165203 0.731546
H97_20 H 0.58088 0.231757 0.834434
H98_20 H 0.419549 0.334797 0.768454
Mo1_16 Mo 0.0000 0.2500 0.7500
O1_11 O 0.0513(7) 0.1772(7) 0.7290(7)
O2_11 O 0.0513(7) 0.3228(7) 0.7710(7)
H98_21 H 0.0804507 0.334797 0.731546
H98_22 H 0.0804507 0.165203 0.768454
Mo1_17 Mo 1.0000 0.2500 0.7500
O3_11 O 0.9487(7) 0.2290(7) 0.8228(7)
O4_11 O 0.9487(7) 0.2710(7) 0.6772(7)
H97_21 H 0.91912 0.231757 0.665566
H97_22 H 0.91912 0.268243 0.834434
Mo1_18 Mo 0.2500 0.5000 0.7500
O1_12 O 0.1772(7) 0.4487(7) 0.7290(7)
O2_12 O 0.3228(7) 0.4487(7) 0.7710(7)
O3_12 O 0.2290(7) 0.5513(7) 0.8228(7)
O4_12 O 0.2710(7) 0.5513(7) 0.6772(7)
H97_23 H 0.231757 0.58088 0.665566
H98_23 H 0.334797 0.419549 0.731546
H97_24 H 0.268243 0.58088 0.834434
H98_24 H 0.165203 0.419549 0.768454
Cu1 Cu 0.5674(3) 0.2500 0.2500
Mo2 Mo 0.36819(15) 0.2500 0.2500
C1 C 0.5552(4) 0.0449(4) 0.0102(4)
C2 C 0.6141(5) 0.0938(5) 0.0230(5)
H1 H 0.6519 0.0693 0.0431
C3 C 0.6155(6) 0.1635(6) 0.1291(7)
H3 H 0.6515 0.1423 0.1513
C4 C 0.5357(8) 0.2286(7) 0.1049(7)
H4 H 0.5048 0.2644 0.1073
N1 N 0.5787(8) 0.2149(5) 0.1539(5)
N2 N 0.5924(5) 0.1477(4) 0.0683(4)
N3 N 0.5395(6) 0.1891(6) 0.0536(6)
O5 O 0.4507(8) 0.2500 0.2500
O6 O 0.3499(5) 0.2500 0.1501(5)
O7 O 0.2500 0.2500 0.2500
H10 H 0.6131 0.0198 0.1292
Cu2 Cu 0.2500 0.5674(3) 0.2500
Mo3 Mo 0.2500 0.36819(15) 0.2500
C25 C 0.4551(4) 0.5552(4) 0.0102(4)
C26 C 0.4062(5) 0.6141(5) 0.0230(5)
H25 H 0.4307 0.6519 0.0431
C27 C 0.3365(6) 0.6155(6) 0.1291(7)
H27 H 0.3577 0.6515 0.1513
C28 C 0.2714(7) 0.5357(8) 0.1049(7)
H28 H 0.2356 0.5048 0.1073
N19 N 0.2851(5) 0.5787(8) 0.1539(5)
N20 N 0.3523(4) 0.5924(5) 0.0683(4)
N21 N 0.3109(6) 0.5395(6) 0.0536(6)
O8 O 0.2500 0.4507(8) 0.2500
O9 O 0.2500 0.3499(5) 0.1501(5)
C33 C 0.5102(4) 0.5449(4) 0.0552(4)
C34 C 0.5230(5) 0.5938(5) 0.1141(5)
H33 H 0.5431 0.5693 0.1519
H34 H 0.4802 0.6131 0.1292
C35 C 0.6291(7) 0.6635(6) 0.1155(6)
H35 H 0.6513 0.6423 0.1515
C36 C 0.6049(7) 0.7286(7) 0.0357(8)
H36 H 0.6073 0.7644 0.0048
N25 N 0.6539(5) 0.7149(5) 0.0787(8)
N26 N 0.5683(4) 0.6477(4) 0.0924(5)
N27 N 0.5536(6) 0.6891(6) 0.0395(6)
C37 C 0.5552(4) 0.4898(4) 0.0449(4)
C38 C 0.6141(5) 0.4770(5) 0.0938(5)
H37 H 0.6519 0.4569 0.0693
H38 H 0.6292 0.5198 0.1131
C39 C 0.6155(6) 0.3709(7) 0.1635(6)
H39 H 0.6515 0.3487 0.1423
C40 C 0.5357(8) 0.3951(7) 0.2286(7)
H40 H 0.5048 0.3927 0.2644
N28 N 0.5787(8) 0.3461(5) 0.2149(5)
N29 N 0.5924(5) 0.4317(4) 0.1477(4)
N30 N 0.5395(6) 0.4464(6) 0.1891(6)
H46 H 0.6131 0.3708 0.0198
Mo4 Mo 0.13181(15) 0.2500 0.2500
O10 O 0.0493(8) 0.2500 0.2500
O11 O 0.1501(5) 0.2500 0.1501(5)
C61 C 0.0102(4) 0.5552(4) 0.0449(4)
C62 C 0.0230(5) 0.6141(5) 0.0938(5)
H61 H 0.0431 0.6519 0.0693
C63 C 0.1291(7) 0.6155(6) 0.1635(6)
H63 H 0.1513 0.6515 0.1423
C64 C 0.1049(7) 0.5357(8) 0.2286(7)
H64 H 0.1073 0.5048 0.2644
N46 N 0.1539(5) 0.5787(8) 0.2149(5)
N47 N 0.0683(4) 0.5924(5) 0.1477(4)
N48 N 0.0536(6) 0.5395(6) 0.1891(6)
H70 H 0.1292 0.6131 0.0198
Mo5 Mo 0.2500 0.13181(15) 0.2500
O12 O 0.2500 0.0493(8) 0.2500
O13 O 0.2500 0.1501(5) 0.1501(5)
O14 O 0.3499(5) 0.2500 0.3499(5)
O15 O 0.2500 0.3499(5) 0.3499(5)
O16 O 0.1501(5) 0.2500 0.3499(5)
O17 O 0.2500 0.1501(5) 0.3499(5)
O18 O 0.1501(5) 0.3499(5) 0.2500
O19 O 0.1501(5) 0.1501(5) 0.2500
O20 O 0.3499(5) 0.1501(5) 0.2500
O21 O 0.3499(5) 0.3499(5) 0.2500
Cu5 Cu 0.2500 0.2500 0.5674(3)
Mo6 Mo 0.2500 0.2500 0.36819(15)
O22 O 0.2500 0.2500 0.4507(8)
Mo7 Mo 0.2500 0.2500 0.13181(15)
O23 O 0.2500 0.2500 0.0493(8)
Cu18 Cu 0.7500 0.7500 0.0674(3)
N73 N 0.5787(8) 0.2851(5) 0.3461(5)
N74 N 0.2149(5) 0.5787(8) 0.3461(5)
N78 N 0.5787(8) 0.1539(5) 0.2851(5)
N79 N 0.3461(5) 0.5787(8) 0.2851(5)
N81 N 0.2149(5) 0.1539(5) 0.5787(8)
N82 N 0.3461(5) 0.2149(5) 0.5787(8)
N83 N 0.1539(5) 0.2851(5) 0.5787(8)
N84 N 0.2851(5) 0.3461(5) 0.5787(8)
H2 H 0.6292 0.1131 0.9802
C5 C 0.5102(4) 0.0552(4) 0.9551(4)
C6 C 0.5230(5) 0.1141(5) 0.9062(5)
H5 H 0.5431 0.1519 0.9307
H6 H 0.4802 0.1292 0.8869
C7 C 0.6291(7) 0.1155(6) 0.8365(6)
H7 H 0.6513 0.1515 0.8577
C8 C 0.6049(7) 0.0357(8) 0.7714(7)
H8 H 0.6073 0.0048 0.7356
N4 N 0.6539(5) 0.0787(8) 0.7851(5)
N5 N 0.5683(4) 0.0924(5) 0.8523(4)
N6 N 0.5536(6) 0.0395(6) 0.8109(6)
C17 C 0.4551(4) 0.0102(4) 0.9448(4)
C18 C 0.4062(5) 0.0230(5) 0.8859(5)
H17 H 0.4307 0.0431 0.8481
C19 C 0.3365(6) 0.1291(7) 0.8845(6)
H19 H 0.3577 0.1513 0.8485
C20 C 0.2714(7) 0.1049(7) 0.9643(8)
H20 H 0.2356 0.1073 0.9952
N13 N 0.2851(5) 0.1539(5) 0.9213(8)
N14 N 0.3523(4) 0.0683(4) 0.9076(5)
N15 N 0.3109(6) 0.0536(6) 0.9605(6)
H26 H 0.3869 0.6292 0.9802
C29 C 0.4448(4) 0.5102(4) 0.9551(4)
C30 C 0.3859(5) 0.5230(5) 0.9062(5)
H29 H 0.3481 0.5431 0.9307
H30 H 0.3708 0.4802 0.8869
C31 C 0.3845(6) 0.6291(7) 0.8365(6)
H31 H 0.3485 0.6513 0.8577
C32 C 0.4643(8) 0.6049(7) 0.7714(7)
H32 H 0.4952 0.6073 0.7356
N22 N 0.4213(8) 0.6539(5) 0.7851(5)
N23 N 0.4076(5) 0.5683(4) 0.8523(4)
N24 N 0.4605(6) 0.5536(6) 0.8109(6)
C41 C 0.4898(4) 0.4551(4) 0.9448(4)
C42 C 0.4770(5) 0.4062(5) 0.8859(5)
H41 H 0.4569 0.4307 0.8481
H42 H 0.5198 0.3869 0.8708
C43 C 0.3709(7) 0.3365(6) 0.8845(6)
H43 H 0.3487 0.3577 0.8485
C44 C 0.3951(7) 0.2714(7) 0.9643(8)
H44 H 0.3927 0.2356 0.9952
N31 N 0.3461(5) 0.2851(5) 0.9213(8)
N32 N 0.4317(4) 0.3523(4) 0.9076(5)
N33 N 0.4464(6) 0.3109(6) 0.9605(6)
C45 C 0.5449(4) 0.4448(4) 0.9898(4)
C46 C 0.5938(5) 0.3859(5) 0.9770(5)
H45 H 0.5693 0.3481 0.9569
C47 C 0.6635(6) 0.3845(6) 0.8709(7)
H47 H 0.6423 0.3485 0.8487
C48 C 0.7286(7) 0.4643(8) 0.8951(7)
H48 H 0.7644 0.4952 0.8927
N34 N 0.7149(5) 0.4213(8) 0.8461(5)
N35 N 0.6477(4) 0.4076(5) 0.9317(4)
N36 N 0.6891(6) 0.4605(6) 0.9464(6)
H54 H 0.0198 0.3708 0.8869
C65 C 0.0449(4) 0.4898(4) 0.9448(4)
C66 C 0.0938(5) 0.4770(5) 0.8859(5)
H65 H 0.0693 0.4569 0.8481
H66 H 0.1131 0.5198 0.8708
C67 C 0.1635(6) 0.3709(7) 0.8845(6)
H67 H 0.1423 0.3487 0.8485
C68 C 0.2286(7) 0.3951(7) 0.9643(8)
H68 H 0.2644 0.3927 0.9952
N49 N 0.2149(5) 0.3461(5) 0.9213(8)
N50 N 0.1477(4) 0.4317(4) 0.9076(5)
N51 N 0.1891(6) 0.4464(6) 0.9605(6)
C69 C 0.0552(4) 0.5449(4) 0.9898(4)
C70 C 0.1141(5) 0.5938(5) 0.9770(5)
H69 H 0.1519 0.5693 0.9569
C71 C 0.1155(6) 0.6635(6) 0.8709(7)
H71 H 0.1515 0.6423 0.8487
C72 C 0.0357(8) 0.7286(7) 0.8951(7)
H72 H 0.0048 0.7644 0.8927
N52 N 0.0787(8) 0.7149(5) 0.8461(5)
N53 N 0.0924(5) 0.6477(4) 0.9317(4)
N54 N 0.0395(6) 0.6891(6) 0.9464(6)
H78 H 0.1292 0.0198 0.8869
C89 C 0.0102(4) 0.0449(4) 0.9448(4)
C90 C 0.0230(5) 0.0938(5) 0.8859(5)
H89 H 0.0431 0.0693 0.8481
C91 C 0.1291(7) 0.1635(6) 0.8845(6)
H91 H 0.1513 0.1423 0.8485
C92 C 0.1049(7) 0.2286(7) 0.9643(8)
H92 H 0.1073 0.2644 0.9952
N67 N 0.1539(5) 0.2149(5) 0.9213(8)
N68 N 0.0683(4) 0.1477(4) 0.9076(5)
N69 N 0.0536(6) 0.1891(6) 0.9605(6)
Cu6 Cu 0.2500 0.2500 0.9326(3)
Cu8 Cu 0.4326(3) 0.7500 0.7500
Cu10 Cu 0.7500 0.4326(3) 0.7500
Cu12 Cu 0.0674(3) 0.7500 0.7500
Cu14 Cu 0.7500 0.0674(3) 0.7500
C9 C 0.5449(4) 0.9898(4) 0.0552(4)
C10 C 0.5938(5) 0.9770(5) 0.1141(5)
H9 H 0.5693 0.9569 0.1519
C11 C 0.6635(6) 0.8709(7) 0.1155(6)
H11 H 0.6423 0.8487 0.1515
C12 C 0.7286(7) 0.8951(7) 0.0357(8)
H12 H 0.7644 0.8927 0.0048
N7 N 0.7149(5) 0.8461(5) 0.0787(8)
N8 N 0.6477(4) 0.9317(4) 0.0924(5)
N9 N 0.6891(6) 0.9464(6) 0.0395(6)
C13 C 0.4898(4) 0.9448(4) 0.0449(4)
C14 C 0.4770(5) 0.8859(5) 0.0938(5)
H13 H 0.4569 0.8481 0.0693
H14 H 0.5198 0.8708 0.1131
C15 C 0.3709(7) 0.8845(6) 0.1635(6)
H15 H 0.3487 0.8485 0.1423
C16 C 0.3951(7) 0.9643(8) 0.2286(7)
H16 H 0.3927 0.9952 0.2644
N10 N 0.3461(5) 0.9213(8) 0.2149(5)
N11 N 0.4317(4) 0.9076(5) 0.1477(4)
N12 N 0.4464(6) 0.9605(6) 0.1891(6)
H22 H 0.3708 0.8869 0.0198
Cu4 Cu 0.2500 0.9326(3) 0.2500
C73 C 0.0449(4) 0.9448(4) 0.0102(4)
C74 C 0.0938(5) 0.8859(5) 0.0230(5)
H73 H 0.0693 0.8481 0.0431
C75 C 0.1635(6) 0.8845(6) 0.1291(7)
H75 H 0.1423 0.8485 0.1513
C76 C 0.2286(7) 0.9643(8) 0.1049(7)
H76 H 0.2644 0.9952 0.1073
N55 N 0.2149(5) 0.9213(8) 0.1539(5)
N56 N 0.1477(4) 0.9076(5) 0.0683(4)
N57 N 0.1891(6) 0.9605(6) 0.0536(6)
H82 H 0.0198 0.8869 0.1292
N76 N 0.2851(5) 0.9213(8) 0.3461(5)
N77 N 0.1539(5) 0.9213(8) 0.2851(5)
H18 H 0.3869 0.9802 0.8708
C21 C 0.4448(4) 0.9551(4) 0.9898(4)
C22 C 0.3859(5) 0.9062(5) 0.9770(5)
H21 H 0.3481 0.9307 0.9569
C23 C 0.3845(6) 0.8365(6) 0.8709(7)
H23 H 0.3485 0.8577 0.8487
C24 C 0.4643(8) 0.7714(7) 0.8951(7)
H24 H 0.4952 0.7356 0.8927
N16 N 0.4213(8) 0.7851(5) 0.8461(5)
N17 N 0.4076(5) 0.8523(4) 0.9317(4)
N18 N 0.4605(6) 0.8109(6) 0.9464(6)
H74 H 0.1131 0.8708 0.9802
C77 C 0.0552(4) 0.9898(4) 0.9551(4)
C78 C 0.1141(5) 0.9770(5) 0.9062(5)
H77 H 0.1519 0.9569 0.9307
C79 C 0.1155(6) 0.8709(7) 0.8365(6)
H79 H 0.1515 0.8487 0.8577
C80 C 0.0357(8) 0.8951(7) 0.7714(7)
H80 H 0.0048 0.8927 0.7356
N58 N 0.0787(8) 0.8461(5) 0.7851(5)
N59 N 0.0924(5) 0.9317(4) 0.8523(4)
N60 N 0.0395(6) 0.9464(6) 0.8109(6)
Cu3 Cu 0.9326(3) 0.2500 0.2500
C49 C 0.9448(4) 0.4551(4) 0.0102(4)
C50 C 0.8859(5) 0.4062(5) 0.0230(5)
H49 H 0.8481 0.4307 0.0431
C51 C 0.8845(6) 0.3365(6) 0.1291(7)
H51 H 0.8485 0.3577 0.1513
C52 C 0.9643(8) 0.2714(7) 0.1049(7)
H52 H 0.9952 0.2356 0.1073
N37 N 0.9213(8) 0.2851(5) 0.1539(5)
N38 N 0.9076(5) 0.3523(4) 0.0683(4)
N39 N 0.9605(6) 0.3109(6) 0.0536(6)
C57 C 0.9551(4) 0.5102(4) 0.0552(4)
C58 C 0.9062(5) 0.5230(5) 0.1141(5)
H57 H 0.9307 0.5431 0.1519
H58 H 0.8869 0.4802 0.1292
C59 C 0.8365(6) 0.6291(7) 0.1155(6)
H59 H 0.8577 0.6513 0.1515
C60 C 0.7714(7) 0.6049(7) 0.0357(8)
H60 H 0.7356 0.6073 0.0048
N43 N 0.7851(5) 0.6539(5) 0.0787(8)
N44 N 0.8523(4) 0.5683(4) 0.0924(5)
N45 N 0.8109(6) 0.5536(6) 0.0395(6)
H62 H 0.9802 0.6292 0.1131
C85 C 0.9448(4) 0.0102(4) 0.0449(4)
C86 C 0.8859(5) 0.0230(5) 0.0938(5)
H85 H 0.8481 0.0431 0.0693
C87 C 0.8845(6) 0.1291(7) 0.1635(6)
H87 H 0.8485 0.1513 0.1423
C88 C 0.9643(8) 0.1049(7) 0.2286(7)
H88 H 0.9952 0.1073 0.2644
N64 N 0.9213(8) 0.1539(5) 0.2149(5)
N65 N 0.9076(5) 0.0683(4) 0.1477(4)
N66 N 0.9605(6) 0.0536(6) 0.1891(6)
H94 H 0.8869 0.1292 0.0198
N75 N 0.9213(8) 0.2149(5) 0.3461(5)
N80 N 0.9213(8) 0.3461(5) 0.2851(5)
H50 H 0.8708 0.3869 0.9802
C53 C 0.9898(4) 0.4448(4) 0.9551(4)
C54 C 0.9770(5) 0.3859(5) 0.9062(5)
H53 H 0.9569 0.3481 0.9307
C55 C 0.8709(7) 0.3845(6) 0.8365(6)
H55 H 0.8487 0.3485 0.8577
C56 C 0.8951(7) 0.4643(8) 0.7714(7)
H56 H 0.8927 0.4952 0.7356
N40 N 0.8461(5) 0.4213(8) 0.7851(5)
N41 N 0.9317(4) 0.4076(5) 0.8523(4)
N42 N 0.9464(6) 0.4605(6) 0.8109(6)
H90 H 0.9802 0.1131 0.8708
C93 C 0.9551(4) 0.0552(4) 0.9898(4)
C94 C 0.9062(5) 0.1141(5) 0.9770(5)
H93 H 0.9307 0.1519 0.9569
C95 C 0.8365(6) 0.1155(6) 0.8709(7)
H95 H 0.8577 0.1515 0.8487
C96 C 0.7714(7) 0.0357(8) 0.8951(7)
H96 H 0.7356 0.0048 0.8927
N70 N 0.7851(5) 0.0787(8) 0.8461(5)
N71 N 0.8523(4) 0.0924(5) 0.9317(4)
N72 N 0.8109(6) 0.0395(6) 0.9464(6)
C81 C 0.9898(4) 0.9551(4) 0.0552(4)
C82 C 0.9770(5) 0.9062(5) 0.1141(5)
H81 H 0.9569 0.9307 0.1519
C83 C 0.8709(7) 0.8365(6) 0.1155(6)
H83 H 0.8487 0.8577 0.1515
C84 C 0.8951(7) 0.7714(7) 0.0357(8)
H84 H 0.8927 0.7356 0.0048
N61 N 0.8461(5) 0.7851(5) 0.0787(8)
N62 N 0.9317(4) 0.8523(4) 0.0924(5)
N63 N 0.9464(6) 0.8109(6) 0.0395(6)
H86 H 0.8708 0.9802 0.1131
C1_2 C 0.5552(4) 0.4551(4) 0.4898(4)
C2_2 C 0.6141(5) 0.4062(5) 0.4770(5)
H1_2 H 0.6519 0.4307 0.4569
H2_2 H 0.6292 0.3869 0.5198
C3_2 C 0.6155(6) 0.3365(6) 0.3709(7)
H3_2 H 0.6515 0.3577 0.3487
C4_2 C 0.5357(8) 0.2714(7) 0.3951(7)
H4_2 H 0.5048 0.2356 0.3927
N2_2 N 0.5924(5) 0.3523(4) 0.4317(4)
N3_2 N 0.5395(6) 0.3109(6) 0.4464(6)
C5_2 C 0.5102(4) 0.4448(4) 0.5449(4)
C6_2 C 0.5230(5) 0.3859(5) 0.5938(5)
H5_2 H 0.5431 0.3481 0.5693
H6_2 H 0.4802 0.3708 0.6131
C7_2 C 0.6291(7) 0.3845(6) 0.6635(6)
H7_2 H 0.6513 0.3485 0.6423
C8_2 C 0.6049(7) 0.4643(8) 0.7286(7)
H8_2 H 0.6073 0.4952 0.7644
N4_2 N 0.6539(5) 0.4213(8) 0.7149(5)
N5_2 N 0.5683(4) 0.4076(5) 0.6477(4)
N6_2 N 0.5536(6) 0.4605(6) 0.6891(6)
C9_2 C 0.5449(4) 0.5102(4) 0.4448(4)
C10_2 C 0.5938(5) 0.5230(5) 0.3859(5)
H9_2 H 0.5693 0.5431 0.3481
H10_2 H 0.6131 0.4802 0.3708
C11_2 C 0.6635(6) 0.6291(7) 0.3845(6)
H11_2 H 0.6423 0.6513 0.3485
C12_2 C 0.7286(7) 0.6049(7) 0.4643(8)
H12_2 H 0.7644 0.6073 0.4952
N7_2 N 0.7149(5) 0.6539(5) 0.4213(8)
N8_2 N 0.6477(4) 0.5683(4) 0.4076(5)
N9_2 N 0.6891(6) 0.5536(6) 0.4605(6)
C13_2 C 0.4898(4) 0.5552(4) 0.4551(4)
C14_2 C 0.4770(5) 0.6141(5) 0.4062(5)
H13_2 H 0.4569 0.6519 0.4307
H14_2 H 0.5198 0.6292 0.3869
C15_2 C 0.3709(7) 0.6155(6) 0.3365(6)
H15_2 H 0.3487 0.6515 0.3577
C16_2 C 0.3951(7) 0.5357(8) 0.2714(7)
H16_2 H 0.3927 0.5048 0.2356
N11_2 N 0.4317(4) 0.5924(5) 0.3523(4)
N12_2 N 0.4464(6) 0.5395(6) 0.3109(6)
C17_2 C 0.4551(4) 0.4898(4) 0.5552(4)
C18_2 C 0.4062(5) 0.4770(5) 0.6141(5)
H17_2 H 0.4307 0.4569 0.6519
H18_2 H 0.3869 0.5198 0.6292
C19_2 C 0.3365(6) 0.3709(7) 0.6155(6)
H19_2 H 0.3577 0.3487 0.6515
C20_2 C 0.2714(7) 0.3951(7) 0.5357(8)
H20_2 H 0.2356 0.3927 0.5048
N14_2 N 0.3523(4) 0.4317(4) 0.5924(5)
N15_2 N 0.3109(6) 0.4464(6) 0.5395(6)
C21_2 C 0.4448(4) 0.5449(4) 0.5102(4)
C22_2 C 0.3859(5) 0.5938(5) 0.5230(5)
H21_2 H 0.3481 0.5693 0.5431
H22_2 H 0.3708 0.6131 0.4802
C23_2 C 0.3845(6) 0.6635(6) 0.6291(7)
H23_2 H 0.3485 0.6423 0.6513
C24_2 C 0.4643(8) 0.7286(7) 0.6049(7)
H24_2 H 0.4952 0.7644 0.6073
N16_2 N 0.4213(8) 0.7149(5) 0.6539(5)
N17_2 N 0.4076(5) 0.6477(4) 0.5683(4)
N18_2 N 0.4605(6) 0.6891(6) 0.5536(6)
H30_2 H 0.3708 0.0198 0.6131
C37_2 C 0.5552(4) 0.0102(4) 0.4551(4)
C38_2 C 0.6141(5) 0.0230(5) 0.4062(5)
H37_2 H 0.6519 0.0431 0.4307
C39_2 C 0.6155(6) 0.1291(7) 0.3365(6)
H39_2 H 0.6515 0.1513 0.3577
C40_2 C 0.5357(8) 0.1049(7) 0.2714(7)
H40_2 H 0.5048 0.1073 0.2356
N29_2 N 0.5924(5) 0.0683(4) 0.3523(4)
N30_2 N 0.5395(6) 0.0536(6) 0.3109(6)
C41_2 C 0.4898(4) 0.0449(4) 0.5552(4)
C42_2 C 0.4770(5) 0.0938(5) 0.6141(5)
H41_2 H 0.4569 0.0693 0.6519
H42_2 H 0.5198 0.1131 0.6292
C43_2 C 0.3709(7) 0.1635(6) 0.6155(6)
H43_2 H 0.3487 0.1423 0.6515
C44_2 C 0.3951(7) 0.2286(7) 0.5357(8)
H44_2 H 0.3927 0.2644 0.5048
N32_2 N 0.4317(4) 0.1477(4) 0.5924(5)
N33_2 N 0.4464(6) 0.1891(6) 0.5395(6)
C45_2 C 0.5449(4) 0.0552(4) 0.5102(4)
C46_2 C 0.5938(5) 0.1141(5) 0.5230(5)
H45_2 H 0.5693 0.1519 0.5431
H46_2 H 0.6131 0.1292 0.4802
C47_2 C 0.6635(6) 0.1155(6) 0.6291(7)
H47_2 H 0.6423 0.1515 0.6513
C48_2 C 0.7286(7) 0.0357(8) 0.6049(7)
H48_2 H 0.7644 0.0048 0.6073
N34_2 N 0.7149(5) 0.0787(8) 0.6539(5)
N35_2 N 0.6477(4) 0.0924(5) 0.5683(4)
N36_2 N 0.6891(6) 0.0395(6) 0.5536(6)
H54_2 H 0.0198 0.1292 0.6131
C65_2 C 0.0449(4) 0.0102(4) 0.5552(4)
C66_2 C 0.0938(5) 0.0230(5) 0.6141(5)
H65_2 H 0.0693 0.0431 0.6519
C67_2 C 0.1635(6) 0.1291(7) 0.6155(6)
H67_2 H 0.1423 0.1513 0.6515
C68_2 C 0.2286(7) 0.1049(7) 0.5357(8)
H68_2 H 0.2644 0.1073 0.5048
N50_2 N 0.1477(4) 0.0683(4) 0.5924(5)
N51_2 N 0.1891(6) 0.0536(6) 0.5395(6)
C73_2 C 0.0449(4) 0.5552(4) 0.4898(4)
C74_2 C 0.0938(5) 0.6141(5) 0.4770(5)
H73_2 H 0.0693 0.6519 0.4569
H74_2 H 0.1131 0.6292 0.5198
C75_2 C 0.1635(6) 0.6155(6) 0.3709(7)
H75_2 H 0.1423 0.6515 0.3487
C76_2 C 0.2286(7) 0.5357(8) 0.3951(7)
H76_2 H 0.2644 0.5048 0.3927
N56_2 N 0.1477(4) 0.5924(5) 0.4317(4)
N57_2 N 0.1891(6) 0.5395(6) 0.4464(6)
C77_2 C 0.0552(4) 0.5102(4) 0.5449(4)
C78_2 C 0.1141(5) 0.5230(5) 0.5938(5)
H77_2 H 0.1519 0.5431 0.5693
H78_2 H 0.1292 0.4802 0.6131
C79_2 C 0.1155(6) 0.6291(7) 0.6635(6)
H79_2 H 0.1515 0.6513 0.6423
C80_2 C 0.0357(8) 0.6049(7) 0.7286(7)
H80_2 H 0.0048 0.6073 0.7644
N58_2 N 0.0787(8) 0.6539(5) 0.7149(5)
N59_2 N 0.0924(5) 0.5683(4) 0.6477(4)
N60_2 N 0.0395(6) 0.5536(6) 0.6891(6)
H82_2 H 0.0198 0.6131 0.3708
C89_2 C 0.0102(4) 0.4551(4) 0.5552(4)
C90_2 C 0.0230(5) 0.4062(5) 0.6141(5)
H89_2 H 0.0431 0.4307 0.6519
C91_2 C 0.1291(7) 0.3365(6) 0.6155(6)
H91_2 H 0.1513 0.3577 0.6515
C92_2 C 0.1049(7) 0.2714(7) 0.5357(8)
H92_2 H 0.1073 0.2356 0.5048
N68_2 N 0.0683(4) 0.3523(4) 0.5924(5)
N69_2 N 0.0536(6) 0.3109(6) 0.5395(6)
Cu17 Cu 0.7500 0.7500 0.4326(3)
C25_2 C 0.4551(4) 0.9448(4) 0.4898(4)
C26_2 C 0.4062(5) 0.8859(5) 0.4770(5)
H25_2 H 0.4307 0.8481 0.4569
H26_2 H 0.3869 0.8708 0.5198
C27_2 C 0.3365(6) 0.8845(6) 0.3709(7)
H27_2 H 0.3577 0.8485 0.3487
C28_2 C 0.2714(7) 0.9643(8) 0.3951(7)
H28_2 H 0.2356 0.9952 0.3927
N20_2 N 0.3523(4) 0.9076(5) 0.4317(4)
N21_2 N 0.3109(6) 0.9605(6) 0.4464(6)
C29_2 C 0.4448(4) 0.9898(4) 0.5449(4)
C30_2 C 0.3859(5) 0.9770(5) 0.5938(5)
H29_2 H 0.3481 0.9569 0.5693
C31_2 C 0.3845(6) 0.8709(7) 0.6635(6)
H31_2 H 0.3485 0.8487 0.6423
C32_2 C 0.4643(8) 0.8951(7) 0.7286(7)
H32_2 H 0.4952 0.8927 0.7644
N22_2 N 0.4213(8) 0.8461(5) 0.7149(5)
N23_2 N 0.4076(5) 0.9317(4) 0.6477(4)
N24_2 N 0.4605(6) 0.9464(6) 0.6891(6)
C33_2 C 0.5102(4) 0.9551(4) 0.4448(4)
C34_2 C 0.5230(5) 0.9062(5) 0.3859(5)
H33_2 H 0.5431 0.9307 0.3481
H34_2 H 0.4802 0.8869 0.3708
C35_2 C 0.6291(7) 0.8365(6) 0.3845(6)
H35_2 H 0.6513 0.8577 0.3485
C36_2 C 0.6049(7) 0.7714(7) 0.4643(8)
H36_2 H 0.6073 0.7356 0.4952
N25_2 N 0.6539(5) 0.7851(5) 0.4213(8)
N26_2 N 0.5683(4) 0.8523(4) 0.4076(5)
N27_2 N 0.5536(6) 0.8109(6) 0.4605(6)
H38_2 H 0.6292 0.9802 0.3869
C61_2 C 0.0102(4) 0.9448(4) 0.4551(4)
C62_2 C 0.0230(5) 0.8859(5) 0.4062(5)
H61_2 H 0.0431 0.8481 0.4307
C63_2 C 0.1291(7) 0.8845(6) 0.3365(6)
H63_2 H 0.1513 0.8485 0.3577
C64_2 C 0.1049(7) 0.9643(8) 0.2714(7)
H64_2 H 0.1073 0.9952 0.2356
N47_2 N 0.0683(4) 0.9076(5) 0.3523(4)
N48_2 N 0.0536(6) 0.9605(6) 0.3109(6)
H66_2 H 0.1131 0.9802 0.6292
C69_2 C 0.0552(4) 0.9551(4) 0.5102(4)
C70_2 C 0.1141(5) 0.9062(5) 0.5230(5)
H69_2 H 0.1519 0.9307 0.5431
H70_2 H 0.1292 0.8869 0.4802
C71_2 C 0.1155(6) 0.8365(6) 0.6291(7)
H71_2 H 0.1515 0.8577 0.6513
C72_2 C 0.0357(8) 0.7714(7) 0.6049(7)
H72_2 H 0.0048 0.7356 0.6073
N52_2 N 0.0787(8) 0.7851(5) 0.6539(5)
N53_2 N 0.0924(5) 0.8523(4) 0.5683(4)
N54_2 N 0.0395(6) 0.8109(6) 0.5536(6)
C49_2 C 0.9448(4) 0.0449(4) 0.4898(4)
C50_2 C 0.8859(5) 0.0938(5) 0.4770(5)
H49_2 H 0.8481 0.0693 0.4569
H50_2 H 0.8708 0.1131 0.5198
C51_2 C 0.8845(6) 0.1635(6) 0.3709(7)
H51_2 H 0.8485 0.1423 0.3487
C52_2 C 0.9643(8) 0.2286(7) 0.3951(7)
H52_2 H 0.9952 0.2644 0.3927
N38_2 N 0.9076(5) 0.1477(4) 0.4317(4)
N39_2 N 0.9605(6) 0.1891(6) 0.4464(6)
C53_2 C 0.9898(4) 0.0552(4) 0.5449(4)
C54_2 C 0.9770(5) 0.1141(5) 0.5938(5)
H53_2 H 0.9569 0.1519 0.5693
C55_2 C 0.8709(7) 0.1155(6) 0.6635(6)
H55_2 H 0.8487 0.1515 0.6423
C56_2 C 0.8951(7) 0.0357(8) 0.7286(7)
H56_2 H 0.8927 0.0048 0.7644
N40_2 N 0.8461(5) 0.0787(8) 0.7149(5)
N41_2 N 0.9317(4) 0.0924(5) 0.6477(4)
N42_2 N 0.9464(6) 0.0395(6) 0.6891(6)
H58_2 H 0.8869 0.0198 0.3708
C81_2 C 0.9898(4) 0.5449(4) 0.4448(4)
C82_2 C 0.9770(5) 0.5938(5) 0.3859(5)
H81_2 H 0.9569 0.5693 0.3481
C83_2 C 0.8709(7) 0.6635(6) 0.3845(6)
H83_2 H 0.8487 0.6423 0.3485
C84_2 C 0.8951(7) 0.7286(7) 0.4643(8)
H84_2 H 0.8927 0.7644 0.4952
N61_2 N 0.8461(5) 0.7149(5) 0.4213(8)
N62_2 N 0.9317(4) 0.6477(4) 0.4076(5)
N63_2 N 0.9464(6) 0.6891(6) 0.4605(6)
C85_2 C 0.9448(4) 0.4898(4) 0.4551(4)
C86_2 C 0.8859(5) 0.4770(5) 0.4062(5)
H85_2 H 0.8481 0.4569 0.4307
H86_2 H 0.8708 0.5198 0.3869
C87_2 C 0.8845(6) 0.3709(7) 0.3365(6)
H87_2 H 0.8485 0.3487 0.3577
C88_2 C 0.9643(8) 0.3951(7) 0.2714(7)
H88_2 H 0.9952 0.3927 0.2356
N65_2 N 0.9076(5) 0.4317(4) 0.3523(4)
N66_2 N 0.9605(6) 0.4464(6) 0.3109(6)
H90_2 H 0.9802 0.3869 0.6292
C93_2 C 0.9551(4) 0.4448(4) 0.5102(4)
C94_2 C 0.9062(5) 0.3859(5) 0.5230(5)
H93_2 H 0.9307 0.3481 0.5431
H94_2 H 0.8869 0.3708 0.4802
C95_2 C 0.8365(6) 0.3845(6) 0.6291(7)
H95_2 H 0.8577 0.3485 0.6513
C96_2 C 0.7714(7) 0.4643(8) 0.6049(7)
H96_2 H 0.7356 0.4952 0.6073
N70_2 N 0.7851(5) 0.4213(8) 0.6539(5)
N71_2 N 0.8523(4) 0.4076(5) 0.5683(4)
N72_2 N 0.8109(6) 0.4605(6) 0.5536(6)
C57_2 C 0.9551(4) 0.9898(4) 0.4448(4)
C58_2 C 0.9062(5) 0.9770(5) 0.3859(5)
H57_2 H 0.9307 0.9569 0.3481
C59_2 C 0.8365(6) 0.8709(7) 0.3845(6)
H59_2 H 0.8577 0.8487 0.3485
C60_2 C 0.7714(7) 0.8951(7) 0.4643(8)
H60_2 H 0.7356 0.8927 0.4952
N43_2 N 0.7851(5) 0.8461(5) 0.4213(8)
N44_2 N 0.8523(4) 0.9317(4) 0.4076(5)
N45_2 N 0.8109(6) 0.9464(6) 0.4605(6)
H62_2 H 0.9802 0.8708 0.3869
Mo2_2 Mo 0.63181(15) 0.7500 0.7500
O5_2 O 0.5493(8) 0.7500 0.7500
O6_2 O 0.6501(5) 0.7500 0.8499(5)
O7_2 O 0.7500 0.7500 0.7500
Mo3_2 Mo 0.7500 0.63181(15) 0.7500
O8_2 O 0.7500 0.5493(8) 0.7500
O9_2 O 0.7500 0.6501(5) 0.8499(5)
Mo4_2 Mo 0.86819(15) 0.7500 0.7500
O10_2 O 0.9507(8) 0.7500 0.7500
O11_2 O 0.8499(5) 0.7500 0.8499(5)
Mo5_2 Mo 0.7500 0.86819(15) 0.7500
O12_2 O 0.7500 0.9507(8) 0.7500
O13_2 O 0.7500 0.8499(5) 0.8499(5)
O14_2 O 0.6501(5) 0.7500 0.6501(5)
O15_2 O 0.7500 0.6501(5) 0.6501(5)
O16_2 O 0.8499(5) 0.7500 0.6501(5)
O17_2 O 0.7500 0.8499(5) 0.6501(5)
O18_2 O 0.8499(5) 0.6501(5) 0.7500
O19_2 O 0.8499(5) 0.8499(5) 0.7500
O20_2 O 0.6501(5) 0.8499(5) 0.7500
O21_2 O 0.6501(5) 0.6501(5) 0.7500
Mo6_2 Mo 0.7500 0.7500 0.63181(15)
O22_2 O 0.7500 0.7500 0.5493(8)
Mo7_2 Mo 0.7500 0.7500 0.86819(15)
O23_2 O 0.7500 0.7500 0.9507(8)
loop_
_geom_bond_atom_site_label_1
_geom_bond_atom_site_label_2
_geom_bond_site_symmetry_1
_geom_bond_site_symmetry_2
Mo1 O1 1_555 1_555
O2 Mo1 1_555 1_555
O2 H98 1_555 1_555
O1 H98_2 1_555 1_555
O3 Mo1_2 1_555 1_555
O4 Mo1_2 1_555 1_555
O4 H97 1_555 1_555
O3 H97_2 1_555 1_555
Mo1_3 O1_2 1_555 1_555
O2_2 Mo1_3 1_555 1_555
O2_2 H98_3 1_555 1_555
O1_2 H98_4 1_555 1_555
O3_2 Mo1_4 1_555 1_555
O4_2 Mo1_4 1_555 1_555
O4_2 H97_3 1_555 1_555
O3_2 H97_4 1_555 1_555
Mo1_5 O1_3 1_555 1_555
O2_3 Mo1_5 1_555 1_555
O3_3 Mo1_5 1_555 1_555
O4_3 Mo1_5 1_555 1_555
O4_3 H97_5 1_555 1_555
O2_3 H98_5 1_555 1_555
O3_3 H97_6 1_555 1_555
O1_3 H98_6 1_555 1_555
Mo1_6 O1_4 1_555 1_555
O2_4 Mo1_6 1_555 1_555
O3_4 Mo1_6 1_555 1_555
O4_4 Mo1_6 1_555 1_555
O4_4 H97_7 1_555 1_555
O2_4 H98_7 1_555 1_555
O3_4 H97_8 1_555 1_555
O1_4 H98_8 1_555 1_555
Mo1_7 O1_5 1_555 1_555
O2_5 Mo1_7 1_555 1_555
O2_5 H98_9 1_555 1_555
O1_5 H98_10 1_555 1_555
O3_5 Mo1_8 1_555 1_555
O4_5 Mo1_8 1_555 1_555
O4_5 H97_9 1_555 1_555
O3_5 H97_10 1_555 1_555
Mo1_9 O1_6 1_555 1_555
O2_6 Mo1_9 1_555 1_555
O2_6 H98_11 1_555 1_555
O1_6 H98_12 1_555 1_555
O3_6 Mo1_10 1_555 1_555
O4_6 Mo1_10 1_555 1_555
O4_6 H97_11 1_555 1_555
O3_6 H97_12 1_555 1_555
Mo1_11 O1_7 1_555 1_555
O2_7 Mo1_11 1_555 1_555
O3_7 Mo1_11 1_555 1_555
O4_7 Mo1_11 1_555 1_555
O4_7 H97_13 1_555 1_555
O2_7 H98_13 1_555 1_555
O3_7 H97_14 1_555 1_555
O1_7 H98_14 1_555 1_555
Mo1_12 O1_8 1_555 1_555
O2_8 Mo1_12 1_555 1_555
O3_8 Mo1_12 1_555 1_555
O4_8 Mo1_12 1_555 1_555
O4_8 H97_15 1_555 1_555
O2_8 H98_15 1_555 1_555
O3_8 H97_16 1_555 1_555
O1_8 H98_16 1_555 1_555
Mo1_13 O1_9 1_555 1_555
O2_9 Mo1_13 1_555 1_555
O2_9 H98_17 1_555 1_555
O1_9 H98_18 1_555 1_555
O3_9 Mo1_14 1_555 1_555
O4_9 Mo1_14 1_555 1_555
O4_9 H97_17 1_555 1_555
O3_9 H97_18 1_555 1_555
Mo1_15 O1_10 1_555 1_555
O2_10 Mo1_15 1_555 1_555
O3_10 Mo1_15 1_555 1_555
O4_10 Mo1_15 1_555 1_555
O4_10 H97_19 1_555 1_555
O2_10 H98_19 1_555 1_555
O3_10 H97_20 1_555 1_555
O1_10 H98_20 1_555 1_555
Mo1_16 O1_11 1_555 1_555
O2_11 Mo1_16 1_555 1_555
O2_11 H98_21 1_555 1_555
O1_11 H98_22 1_555 1_555
O3_11 Mo1_17 1_555 1_555
O4_11 Mo1_17 1_555 1_555
O4_11 H97_21 1_555 1_555
O3_11 H97_22 1_555 1_555
Mo1_18 O1_12 1_555 1_555
O2_12 Mo1_18 1_555 1_555
O3_12 Mo1_18 1_555 1_555
O4_12 Mo1_18 1_555 1_555
O4_12 H97_23 1_555 1_555
O2_12 H98_23 1_555 1_555
O3_12 H97_24 1_555 1_555
O1_12 H98_24 1_555 1_555
Cu1 N1 1_555 1_555
Mo2 O5 1_555 1_555
C1 C2 1_555 1_555
C2 H1 1_555 1_555
C3 H3 1_555 1_555
C4 H4 1_555 1_555
N1 C3 1_555 1_555
N2 C2 1_555 1_555
N3 C4 1_555 1_555
O5 Cu1 1_555 1_555
O6 Mo2 1_555 1_555
O7 Mo2 1_555 1_555
Cu2 N19 1_555 1_555
Mo3 O7 1_555 1_555
C25 C26 1_555 1_555
C26 H25 1_555 1_555
C27 H27 1_555 1_555
C28 H28 1_555 1_555
N19 C27 1_555 1_555
N20 C26 1_555 1_555
N21 C28 1_555 1_555
O8 Cu2 1_555 1_555
O9 Mo3 1_555 1_555
C33 C25 1_555 1_555
C34 C33 1_555 1_555
H33 C34 1_555 1_555
H34 C34 1_555 1_555
C35 H35 1_555 1_555
C36 H36 1_555 1_555
N25 C35 1_555 1_555
N26 C34 1_555 1_555
N27 C36 1_555 1_555
C37 C33 1_555 1_555
C38 C37 1_555 1_555
H37 C38 1_555 1_555
H38 C38 1_555 1_555
C39 H39 1_555 1_555
C40 H40 1_555 1_555
N28 Cu1 1_555 1_555
N29 C38 1_555 1_555
N30 C40 1_555 1_555
Mo4 O7 1_555 1_555
O11 Mo4 1_555 1_555
C62 C61 1_555 1_555
H61 C62 1_555 1_555
C63 H63 1_555 1_555
C64 H64 1_555 1_555
N46 Cu2 1_555 1_555
N47 C62 1_555 1_555
N48 C64 1_555 1_555
Mo5 O7 1_555 1_555
O13 Mo5 1_555 1_555
O14 Mo2 1_555 1_555
O15 Mo3 1_555 1_555
O16 Mo4 1_555 1_555
O17 Mo5 1_555 1_555
O18 Mo3 1_555 1_555
O19 Mo4 1_555 1_555
O20 Mo2 1_555 1_555
O21 Mo2 1_555 1_555
Cu5 O22 1_555 1_555
Mo6 O7 1_555 1_555
O22 Mo6 1_555 1_555
Mo7 O6 1_555 1_555
Cu18 N25 1_555 1_555
N73 Cu1 1_555 1_555
N74 Cu2 1_555 1_555
N78 Cu1 1_555 1_555
N79 Cu2 1_555 1_555
N81 Cu5 1_555 1_555
N82 Cu5 1_555 1_555
N83 Cu5 1_555 1_555
N84 Cu5 1_555 1_555
C3 N2 1_555 1_555
C4 N1 1_555 1_555
N2 N3 1_555 1_555
O7 Mo7 1_555 1_555
Mo3 O8 1_555 1_555
Mo3 O21 1_555 1_555
C27 N20 1_555 1_555
C28 N19 1_555 1_555
N20 N21 1_555 1_555
O9 Mo7 1_555 1_555
C35 N26 1_555 1_555
C36 N25 1_555 1_555
N26 N27 1_555 1_555
C39 N28 1_555 1_555
C39 N29 1_555 1_555
C40 N28 1_555 1_555
N29 N30 1_555 1_555
Mo4 O10 1_555 1_555
Mo4 O18 1_555 1_555
O11 Mo7 1_555 1_555
C63 N46 1_555 1_555
C63 N47 1_555 1_555
C64 N46 1_555 1_555
N47 N48 1_555 1_555
Mo5 O12 1_555 1_555
Mo5 O19 1_555 1_555
Mo5 O20 1_555 1_555
O13 Mo7 1_555 1_555
O14 Mo6 1_555 1_555
O15 Mo6 1_555 1_555
O16 Mo6 1_555 1_555
O17 Mo6 1_555 1_555
Mo7 O23 1_555 1_555
C6 C5 1_555 1_555
H5 C6 1_555 1_555
H6 C6 1_555 1_555
C7 H7 1_555 1_555
C8 H8 1_555 1_555
N4 C7 1_555 1_555
N5 C6 1_555 1_555
N6 C8 1_555 1_555
C17 C5 1_555 1_555
C18 C17 1_555 1_555
H17 C18 1_555 1_555
C19 H19 1_555 1_555
C20 H20 1_555 1_555
N13 C19 1_555 1_555
N14 C18 1_555 1_555
N15 C20 1_555 1_555
C30 C29 1_555 1_555
H29 C30 1_555 1_555
H30 C30 1_555 1_555
C31 H31 1_555 1_555
C32 H32 1_555 1_555
N22 C31 1_555 1_555
N23 C30 1_555 1_555
N24 C32 1_555 1_555
C41 C29 1_555 1_555
C42 C41 1_555 1_555
H41 C42 1_555 1_555
H42 C42 1_555 1_555
C43 H43 1_555 1_555
C44 H44 1_555 1_555
N31 C43 1_555 1_555
N32 C42 1_555 1_555
N33 C44 1_555 1_555
C46 C45 1_555 1_555
H45 C46 1_555 1_555
C47 H47 1_555 1_555
C48 H48 1_555 1_555
N34 C47 1_555 1_555
N35 C46 1_555 1_555
N36 C48 1_555 1_555
C66 C65 1_555 1_555
H65 C66 1_555 1_555
H66 C66 1_555 1_555
C67 H67 1_555 1_555
C68 H68 1_555 1_555
N49 C67 1_555 1_555
N50 C66 1_555 1_555
N51 C68 1_555 1_555
C70 C69 1_555 1_555
H69 C70 1_555 1_555
C71 H71 1_555 1_555
C72 H72 1_555 1_555
N52 C71 1_555 1_555
N53 C70 1_555 1_555
N54 C72 1_555 1_555
C90 C89 1_555 1_555
H89 C90 1_555 1_555
C91 H91 1_555 1_555
C92 H92 1_555 1_555
N67 C91 1_555 1_555
N68 C90 1_555 1_555
N69 C92 1_555 1_555
Cu6 N13 1_555 1_555
Cu8 N22 1_555 1_555
Cu10 N34 1_555 1_555
Cu12 N52 1_555 1_555
Cu14 N4 1_555 1_555
C7 N5 1_555 1_555
C8 N4 1_555 1_555
N5 N6 1_555 1_555
C19 N14 1_555 1_555
C20 N13 1_555 1_555
N14 N15 1_555 1_555
C31 N23 1_555 1_555
C32 N22 1_555 1_555
N23 N24 1_555 1_555
C41 C45 1_555 1_555
C43 N32 1_555 1_555
C44 N31 1_555 1_555
N31 Cu6 1_555 1_555
N32 N33 1_555 1_555
C47 N35 1_555 1_555
C48 N34 1_555 1_555
N35 N36 1_555 1_555
C65 C69 1_555 1_555
C67 N50 1_555 1_555
C68 N49 1_555 1_555
N49 Cu6 1_555 1_555
N50 N51 1_555 1_555
C71 N53 1_555 1_555
C72 N52 1_555 1_555
N53 N54 1_555 1_555
C91 N68 1_555 1_555
C92 N67 1_555 1_555
N67 Cu6 1_555 1_555
N68 N69 1_555 1_555
C10 C9 1_555 1_555
H9 C10 1_555 1_555
C11 H11 1_555 1_555
C12 H12 1_555 1_555
N7 C11 1_555 1_555
N8 C10 1_555 1_555
N9 C12 1_555 1_555
C13 C9 1_555 1_555
C14 C13 1_555 1_555
H13 C14 1_555 1_555
H14 C14 1_555 1_555
C15 H15 1_555 1_555
C16 H16 1_555 1_555
N10 C15 1_555 1_555
N11 C14 1_555 1_555
N12 C16 1_555 1_555
Cu4 N10 1_555 1_555
C73 C74 1_555 1_555
C74 H73 1_555 1_555
C75 H75 1_555 1_555
C76 H76 1_555 1_555
N55 Cu4 1_555 1_555
N56 C74 1_555 1_555
N57 C76 1_555 1_555
Cu18 N7 1_555 1_555
N76 Cu4 1_555 1_555
N77 Cu4 1_555 1_555
C11 N8 1_555 1_555
C12 N7 1_555 1_555
N8 N9 1_555 1_555
C15 N11 1_555 1_555
C16 N10 1_555 1_555
N11 N12 1_555 1_555
C75 N55 1_555 1_555
C75 N56 1_555 1_555
C76 N55 1_555 1_555
N56 N57 1_555 1_555
C22 C21 1_555 1_555
H21 C22 1_555 1_555
C23 H23 1_555 1_555
C24 H24 1_555 1_555
N16 C23 1_555 1_555
N17 C22 1_555 1_555
N18 C24 1_555 1_555
C78 C77 1_555 1_555
H77 C78 1_555 1_555
C79 H79 1_555 1_555
C80 H80 1_555 1_555
N58 C79 1_555 1_555
N59 C78 1_555 1_555
N60 C80 1_555 1_555
Cu8 N16 1_555 1_555
Cu12 N58 1_555 1_555
C23 N17 1_555 1_555
C24 N16 1_555 1_555
N17 N18 1_555 1_555
C79 N59 1_555 1_555
C80 N58 1_555 1_555
N59 N60 1_555 1_555
Cu3 N37 1_555 1_555
C49 C50 1_555 1_555
C50 H49 1_555 1_555
C51 H51 1_555 1_555
C52 H52 1_555 1_555
N37 C51 1_555 1_555
N38 C50 1_555 1_555
N39 C52 1_555 1_555
C57 C49 1_555 1_555
C58 C57 1_555 1_555
H57 C58 1_555 1_555
H58 C58 1_555 1_555
C59 H59 1_555 1_555
C60 H60 1_555 1_555
N43 C59 1_555 1_555
N44 C58 1_555 1_555
N45 C60 1_555 1_555
C86 C85 1_555 1_555
H85 C86 1_555 1_555
C87 H87 1_555 1_555
C88 H88 1_555 1_555
N64 Cu3 1_555 1_555
N65 C86 1_555 1_555
N66 C88 1_555 1_555
Cu18 N43 1_555 1_555
N75 Cu3 1_555 1_555
N80 Cu3 1_555 1_555
C51 N38 1_555 1_555
C52 N37 1_555 1_555
N38 N39 1_555 1_555
C59 N44 1_555 1_555
C60 N43 1_555 1_555
N44 N45 1_555 1_555
C87 N64 1_555 1_555
C87 N65 1_555 1_555
C88 N64 1_555 1_555
N65 N66 1_555 1_555
C54 C53 1_555 1_555
H53 C54 1_555 1_555
C55 H55 1_555 1_555
C56 H56 1_555 1_555
N40 C55 1_555 1_555
N41 C54 1_555 1_555
N42 C56 1_555 1_555
C94 C93 1_555 1_555
H93 C94 1_555 1_555
C95 H95 1_555 1_555
C96 H96 1_555 1_555
N70 C95 1_555 1_555
N71 C94 1_555 1_555
N72 C96 1_555 1_555
Cu10 N40 1_555 1_555
Cu14 N70 1_555 1_555
C55 N41 1_555 1_555
C56 N40 1_555 1_555
N41 N42 1_555 1_555
C95 N71 1_555 1_555
C96 N70 1_555 1_555
N71 N72 1_555 1_555
C82 C81 1_555 1_555
H81 C82 1_555 1_555
C83 H83 1_555 1_555
C84 H84 1_555 1_555
N61 C83 1_555 1_555
N62 C82 1_555 1_555
N63 C84 1_555 1_555
Cu18 N61 1_555 1_555
C83 N62 1_555 1_555
C84 N61 1_555 1_555
N62 N63 1_555 1_555
C1_2 C2_2 1_555 1_555
C2_2 H1_2 1_555 1_555
H2_2 C2_2 1_555 1_555
C3_2 H3_2 1_555 1_555
C4_2 H4_2 1_555 1_555
N73 C3_2 1_555 1_555
N2_2 C2_2 1_555 1_555
N3_2 C4_2 1_555 1_555
C5_2 C1_2 1_555 1_555
C6_2 C5_2 1_555 1_555
H5_2 C6_2 1_555 1_555
H6_2 C6_2 1_555 1_555
C7_2 H7_2 1_555 1_555
C8_2 H8_2 1_555 1_555
N4_2 C7_2 1_555 1_555
N5_2 C6_2 1_555 1_555
N6_2 C8_2 1_555 1_555
C9_2 C1_2 1_555 1_555
C10_2 C9_2 1_555 1_555
H9_2 C10_2 1_555 1_555
H10_2 C10_2 1_555 1_555
C11_2 H11_2 1_555 1_555
C12_2 H12_2 1_555 1_555
N7_2 C11_2 1_555 1_555
N8_2 C10_2 1_555 1_555
N9_2 C12_2 1_555 1_555
C13_2 C9_2 1_555 1_555
C14_2 C13_2 1_555 1_555
H13_2 C14_2 1_555 1_555
H14_2 C14_2 1_555 1_555
C15_2 H15_2 1_555 1_555
C16_2 H16_2 1_555 1_555
N79 C15_2 1_555 1_555
N11_2 C14_2 1_555 1_555
N12_2 C16_2 1_555 1_555
C17_2 C5_2 1_555 1_555
C18_2 C17_2 1_555 1_555
H17_2 C18_2 1_555 1_555
H18_2 C18_2 1_555 1_555
C19_2 H19_2 1_555 1_555
C20_2 H20_2 1_555 1_555
N84 C19_2 1_555 1_555
N14_2 C18_2 1_555 1_555
N15_2 C20_2 1_555 1_555
C21_2 C13_2 1_555 1_555
C22_2 C21_2 1_555 1_555
H21_2 C22_2 1_555 1_555
H22_2 C22_2 1_555 1_555
C23_2 H23_2 1_555 1_555
C24_2 H24_2 1_555 1_555
N16_2 C23_2 1_555 1_555
N17_2 C22_2 1_555 1_555
N18_2 C24_2 1_555 1_555
C38_2 C37_2 1_555 1_555
H37_2 C38_2 1_555 1_555
C39_2 H39_2 1_555 1_555
C40_2 H40_2 1_555 1_555
N29_2 C38_2 1_555 1_555
N30_2 C40_2 1_555 1_555
C42_2 C41_2 1_555 1_555
H41_2 C42_2 1_555 1_555
H42_2 C42_2 1_555 1_555
C43_2 H43_2 1_555 1_555
C44_2 H44_2 1_555 1_555
N82 C43_2 1_555 1_555
N32_2 C42_2 1_555 1_555
N33_2 C44_2 1_555 1_555
C45_2 C37_2 1_555 1_555
C46_2 C45_2 1_555 1_555
H45_2 C46_2 1_555 1_555
H46_2 C46_2 1_555 1_555
C47_2 H47_2 1_555 1_555
C48_2 H48_2 1_555 1_555
N34_2 C47_2 1_555 1_555
N35_2 C46_2 1_555 1_555
N36_2 C48_2 1_555 1_555
C66_2 C65_2 1_555 1_555
H65_2 C66_2 1_555 1_555
C67_2 H67_2 1_555 1_555
C68_2 H68_2 1_555 1_555
N81 C67_2 1_555 1_555
N50_2 C66_2 1_555 1_555
N51_2 C68_2 1_555 1_555
C73_2 C74_2 1_555 1_555
C74_2 H73_2 1_555 1_555
H74_2 C74_2 1_555 1_555
C75_2 H75_2 1_555 1_555
C76_2 H76_2 1_555 1_555
N56_2 C74_2 1_555 1_555
N57_2 C76_2 1_555 1_555
C77_2 C73_2 1_555 1_555
C78_2 C77_2 1_555 1_555
H77_2 C78_2 1_555 1_555
H78_2 C78_2 1_555 1_555
C79_2 H79_2 1_555 1_555
C80_2 H80_2 1_555 1_555
N58_2 C79_2 1_555 1_555
N59_2 C78_2 1_555 1_555
N60_2 C80_2 1_555 1_555
C89_2 C77_2 1_555 1_555
C90_2 C89_2 1_555 1_555
H89_2 C90_2 1_555 1_555
C91_2 H91_2 1_555 1_555
C92_2 H92_2 1_555 1_555
N83 C91_2 1_555 1_555
N68_2 C90_2 1_555 1_555
N69_2 C92_2 1_555 1_555
Cu8 N16_2 1_555 1_555
Cu14 N34_2 1_555 1_555
Cu12 N58_2 1_555 1_555
Cu10 N4_2 1_555 1_555
Cu17 N7_2 1_555 1_555
C3_2 N2_2 1_555 1_555
C4_2 N73 1_555 1_555
N2_2 N3_2 1_555 1_555
C7_2 N5_2 1_555 1_555
C8_2 N4_2 1_555 1_555
N5_2 N6_2 1_555 1_555
C11_2 N8_2 1_555 1_555
C12_2 N7_2 1_555 1_555
N8_2 N9_2 1_555 1_555
C15_2 N11_2 1_555 1_555
C16_2 N79 1_555 1_555
N11_2 N12_2 1_555 1_555
C17_2 C21_2 1_555 1_555
C19_2 N14_2 1_555 1_555
C20_2 N84 1_555 1_555
N14_2 N15_2 1_555 1_555
C23_2 N17_2 1_555 1_555
C24_2 N16_2 1_555 1_555
N17_2 N18_2 1_555 1_555
C39_2 N78 1_555 1_555
C39_2 N29_2 1_555 1_555
C40_2 N78 1_555 1_555
N29_2 N30_2 1_555 1_555
C41_2 C45_2 1_555 1_555
C43_2 N32_2 1_555 1_555
C44_2 N82 1_555 1_555
N32_2 N33_2 1_555 1_555
C47_2 N35_2 1_555 1_555
C48_2 N34_2 1_555 1_555
N35_2 N36_2 1_555 1_555
C67_2 N50_2 1_555 1_555
C68_2 N81 1_555 1_555
N50_2 N51_2 1_555 1_555
C75_2 N74 1_555 1_555
C75_2 N56_2 1_555 1_555
C76_2 N74 1_555 1_555
N56_2 N57_2 1_555 1_555
C79_2 N59_2 1_555 1_555
C80_2 N58_2 1_555 1_555
N59_2 N60_2 1_555 1_555
C91_2 N68_2 1_555 1_555
C92_2 N83 1_555 1_555
N68_2 N69_2 1_555 1_555
C25_2 C26_2 1_555 1_555
C26_2 H25_2 1_555 1_555
H26_2 C26_2 1_555 1_555
C27_2 H27_2 1_555 1_555
C28_2 H28_2 1_555 1_555
N76 C27_2 1_555 1_555
N20_2 C26_2 1_555 1_555
N21_2 C28_2 1_555 1_555
C29_2 C25_2 1_555 1_555
C30_2 C29_2 1_555 1_555
H29_2 C30_2 1_555 1_555
C31_2 H31_2 1_555 1_555
C32_2 H32_2 1_555 1_555
N22_2 C31_2 1_555 1_555
N23_2 C30_2 1_555 1_555
N24_2 C32_2 1_555 1_555
C33_2 C25_2 1_555 1_555
C34_2 C33_2 1_555 1_555
H33_2 C34_2 1_555 1_555
H34_2 C34_2 1_555 1_555
C35_2 H35_2 1_555 1_555
C36_2 H36_2 1_555 1_555
N25_2 C35_2 1_555 1_555
N26_2 C34_2 1_555 1_555
N27_2 C36_2 1_555 1_555
C62_2 C61_2 1_555 1_555
H61_2 C62_2 1_555 1_555
C63_2 H63_2 1_555 1_555
C64_2 H64_2 1_555 1_555
N47_2 C62_2 1_555 1_555
N48_2 C64_2 1_555 1_555
C69_2 C61_2 1_555 1_555
C70_2 C69_2 1_555 1_555
H69_2 C70_2 1_555 1_555
H70_2 C70_2 1_555 1_555
C71_2 H71_2 1_555 1_555
C72_2 H72_2 1_555 1_555
N52_2 C71_2 1_555 1_555
N53_2 C70_2 1_555 1_555
N54_2 C72_2 1_555 1_555
Cu8 N22_2 1_555 1_555
Cu12 N52_2 1_555 1_555
Cu17 N25_2 1_555 1_555
C27_2 N20_2 1_555 1_555
C28_2 N76 1_555 1_555
N20_2 N21_2 1_555 1_555
C31_2 N23_2 1_555 1_555
C32_2 N22_2 1_555 1_555
N23_2 N24_2 1_555 1_555
C35_2 N26_2 1_555 1_555
C36_2 N25_2 1_555 1_555
N26_2 N27_2 1_555 1_555
C63_2 N77 1_555 1_555
C63_2 N47_2 1_555 1_555
C64_2 N77 1_555 1_555
N47_2 N48_2 1_555 1_555
C71_2 N53_2 1_555 1_555
C72_2 N52_2 1_555 1_555
N53_2 N54_2 1_555 1_555
C49_2 C50_2 1_555 1_555
C50_2 H49_2 1_555 1_555
H50_2 C50_2 1_555 1_555
C51_2 H51_2 1_555 1_555
C52_2 H52_2 1_555 1_555
N75 C51_2 1_555 1_555
N38_2 C50_2 1_555 1_555
N39_2 C52_2 1_555 1_555
C53_2 C49_2 1_555 1_555
C54_2 C53_2 1_555 1_555
H53_2 C54_2 1_555 1_555
C55_2 H55_2 1_555 1_555
C56_2 H56_2 1_555 1_555
N40_2 C55_2 1_555 1_555
N41_2 C54_2 1_555 1_555
N42_2 C56_2 1_555 1_555
C82_2 C81_2 1_555 1_555
H81_2 C82_2 1_555 1_555
C83_2 H83_2 1_555 1_555
C84_2 H84_2 1_555 1_555
N61_2 C83_2 1_555 1_555
N62_2 C82_2 1_555 1_555
N63_2 C84_2 1_555 1_555
C85_2 C81_2 1_555 1_555
C86_2 C85_2 1_555 1_555
H85_2 C86_2 1_555 1_555
H86_2 C86_2 1_555 1_555
C87_2 H87_2 1_555 1_555
C88_2 H88_2 1_555 1_555
N65_2 C86_2 1_555 1_555
N66_2 C88_2 1_555 1_555
C93_2 C85_2 1_555 1_555
C94_2 C93_2 1_555 1_555
H93_2 C94_2 1_555 1_555
H94_2 C94_2 1_555 1_555
C95_2 H95_2 1_555 1_555
C96_2 H96_2 1_555 1_555
N70_2 C95_2 1_555 1_555
N71_2 C94_2 1_555 1_555
N72_2 C96_2 1_555 1_555
Cu14 N40_2 1_555 1_555
Cu10 N70_2 1_555 1_555
Cu17 N61_2 1_555 1_555
C51_2 N38_2 1_555 1_555
C52_2 N75 1_555 1_555
N38_2 N39_2 1_555 1_555
C55_2 N41_2 1_555 1_555
C56_2 N40_2 1_555 1_555
N41_2 N42_2 1_555 1_555
C83_2 N62_2 1_555 1_555
C84_2 N61_2 1_555 1_555
N62_2 N63_2 1_555 1_555
C87_2 N80 1_555 1_555
C87_2 N65_2 1_555 1_555
C88_2 N80 1_555 1_555
N65_2 N66_2 1_555 1_555
C95_2 N71_2 1_555 1_555
C96_2 N70_2 1_555 1_555
N71_2 N72_2 1_555 1_555
C58_2 C57_2 1_555 1_555
H57_2 C58_2 1_555 1_555
C59_2 H59_2 1_555 1_555
C60_2 H60_2 1_555 1_555
N43_2 C59_2 1_555 1_555
N44_2 C58_2 1_555 1_555
N45_2 C60_2 1_555 1_555
Cu17 N43_2 1_555 1_555
C59_2 N44_2 1_555 1_555
C60_2 N43_2 1_555 1_555
N44_2 N45_2 1_555 1_555
Mo2_2 O5_2 1_555 1_555
O5_2 Cu8 1_555 1_555
O6_2 Mo2_2 1_555 1_555
O7_2 Mo2_2 1_555 1_555
Mo3_2 O7_2 1_555 1_555
O8_2 Cu10 1_555 1_555
O9_2 Mo3_2 1_555 1_555
Mo4_2 O7_2 1_555 1_555
O11_2 Mo4_2 1_555 1_555
Mo5_2 O7_2 1_555 1_555
O13_2 Mo5_2 1_555 1_555
O14_2 Mo2_2 1_555 1_555
O15_2 Mo3_2 1_555 1_555
O16_2 Mo4_2 1_555 1_555
O17_2 Mo5_2 1_555 1_555
O18_2 Mo3_2 1_555 1_555
O19_2 Mo4_2 1_555 1_555
O20_2 Mo2_2 1_555 1_555
O21_2 Mo2_2 1_555 1_555
Cu17 O22_2 1_555 1_555
Mo6_2 O7_2 1_555 1_555
O22_2 Mo6_2 1_555 1_555
Mo7_2 O6_2 1_555 1_555
O7_2 Mo7_2 1_555 1_555
Mo3_2 O8_2 1_555 1_555
Mo3_2 O21_2 1_555 1_555
O9_2 Mo7_2 1_555 1_555
Mo4_2 O10_2 1_555 1_555
Mo4_2 O18_2 1_555 1_555
O11_2 Mo7_2 1_555 1_555
Mo5_2 O12_2 1_555 1_555
Mo5_2 O19_2 1_555 1_555
Mo5_2 O20_2 1_555 1_555
O13_2 Mo7_2 1_555 1_555
O14_2 Mo6_2 1_555 1_555
O15_2 Mo6_2 1_555 1_555
O16_2 Mo6_2 1_555 1_555
O17_2 Mo6_2 1_555 1_555
Mo7_2 O23_2 1_555 1_555

#END
