
###############################################################################
#
# This file contains modified crystal structure data generated from the
# MOF subset of the Cambridge Structural Database (CSD) v543 
# hosted by the Cambridge Crystallographic Data Centre (CCDC).
#
# This work is licensed under the Creative Commons
# Attribution-NonCommercial-ShareAlike 4.0 International License.
# To view a copy of this license, visit
# http://creativecommons.org/licenses/by-nc-sa/4.0/
# or send a letter to
# Creative Commons, PO Box 1866, Mountain View, CA 94042, USA.
#
# CIF created using the CSD Python API on 29 September 2022
# The structure has been converted into the P1 space group
# The structure has a 3D framework
# The original CSD entry SETXEW is in the monoclinic crystal system
# The framework has been calculated to contain at least 10.0% void space
# The void calculation uses a probe of radius 1.32A, grid spacing 0.4
#
###############################################################################

data_SETXEW
_chemical_formula_moiety         '(C96 H104 Mo40 N72 O118 Zn13)n'
_symmetry_cell_setting           triclinic
_symmetry_space_group_name_H-M   'P 1'
_symmetry_Int_Tables_number      1
_space_group_name_Hall           'P 1'
loop_
_symmetry_equiv_pos_site_id
_symmetry_equiv_pos_as_xyz
1 x,y,z
_cell_length_a                   26.7741(7)
_cell_length_b                   10.0535(3)
_cell_length_c                   22.0865(7)
_cell_angle_alpha                90
_cell_angle_beta                 97.275(3)
_cell_angle_gamma                90
_cell_volume                     5897.24
loop_
_atom_site_label
_atom_site_type_symbol
_atom_site_fract_x
_atom_site_fract_y
_atom_site_fract_z
Zn14 Zn -0.0000 -0.0000 -0.0000
C12 C 0.0831(2) 0.0401(6) 0.6112(3)
H12 H 0.1033 0.0899 0.5885
N9 N 0.0955(2) 0.0135(5) 0.6690(2)
H13 H 0.1223 0.0366 0.6923
Zn13 Zn 0.0000 -0.0000 0.5000
Zn14_2 Zn -0.0000 -0.0000 1.0000
Zn14_3 Zn -0.0000 1.0000 -0.0000
Mo20 Mo 0.023743(14) 0.63720(4) 0.028272(18)
Zn1 Zn 0.10045(2) 0.66797(6) 0.49271(2)
Zn2 Zn 0.5000 0.5000 0.5000
Mo1 Mo 0.201300(14) 0.47477(4) 0.437397(19)
Mo2 Mo 0.307516(15) 0.54722(4) 0.519330(19)
Mo3 Mo 0.391588(14) 0.31742(4) 0.554357(18)
Mo4 Mo 0.294419(14) 0.23590(4) 0.450337(18)
Mo5 Mo 0.476257(14) 0.13720(4) 0.471728(18)
C1 C 0.02615(18) 0.5268(5) 0.7477(2)
C2 C 0.05180(18) 0.6477(5) 0.7467(2)
C3 C 0.02572(18) 0.7676(5) 0.7479(2)
C4 C 0.0523(2) 0.3956(5) 0.7438(2)
H1 H 0.0309 0.3356 0.7177
H2 H 0.0832 0.4084 0.7259
C5 C 0.07366(17) 0.3938(5) 0.8586(2)
H3 H 0.0736 0.4849 0.8656
C6 C 0.0791(2) 0.1874(6) 0.8696(3)
H4 H 0.0845 0.1046 0.8880
C7 C 0.1082(2) 0.6456(5) 0.7451(2)
H5 H 0.1238 0.7169 0.7704
H6 H 0.1219 0.5619 0.7617
C8 C 0.09203(19) 0.6486(5) 0.6294(2)
H7 H 0.0580 0.6267 0.6244
C9 C 0.1650(2) 0.6946(6) 0.6134(3)
H8 H 0.1924 0.7134 0.5928
C10 C 0.0541(2) 0.8968(5) 0.7461(2)
H9 H 0.0377 0.9645 0.7679
H10 H 0.0881 0.8853 0.7665
C11 C 0.0231(2) 0.9287(5) 0.6345(2)
N1 N 0.08352(14) 0.3022(4) 0.90101(17)
N2 N 0.06386(16) 0.3373(4) 0.8047(2)
N3 N 0.06655(19) 0.2022(5) 0.8107(2)
N4 N 0.11856(15) 0.6711(4) 0.58476(18)
N5 N 0.12017(17) 0.6614(4) 0.6826(2)
N6 N 0.16813(19) 0.6886(5) 0.6736(2)
N7 N 0.03876(15) 0.9894(4) 0.58760(18)
N8 N 0.05612(16) 0.9410(4) 0.68348(18)
O1 O 0.16771(12) 0.5798(3) 0.47939(16)
O2 O 0.17623(13) 0.4991(4) 0.36357(16)
O3 O 0.16920(11) 0.3158(3) 0.46026(15)
O4 O 0.26368(12) 0.5692(3) 0.44351(16)
O5 O 0.27700(13) 0.6368(3) 0.56798(17)
O6 O 0.35663(12) 0.6454(3) 0.50363(16)
O7 O 0.34553(12) 0.4382(3) 0.58321(14)
O8 O 0.43605(12) 0.4362(3) 0.53944(15)
O9 O 0.41681(13) 0.2466(4) 0.62128(16)
O10 O 0.41737(13) 0.1968(3) 0.49525(16)
O11 O 0.33905(11) 0.3774(3) 0.47071(14)
O12 O 0.32533(12) 0.1341(3) 0.40722(16)
O13 O 0.24879(11) 0.1177(3) 0.48538(14)
O14 O 0.25070(12) 0.3167(3) 0.39646(15)
O15 O 0.51190(13) 0.2824(3) 0.48955(17)
O16 O 0.46580(13) 0.1224(4) 0.39483(16)
H24 H 0.0073 0.8832 0.8669
Zn4 Zn 0.60045(2) 0.16797(6) 0.49271(2)
Zn7 Zn 0.10045(2) 0.33203(6) 0.99271(2)
Zn9 Zn 0.39955(2) 0.83203(6) 0.50729(2)
Zn13_2 Zn 0.0000 1.0000 0.5000
Zn14_4 Zn -0.0000 1.0000 1.0000
Mo11 Mo 0.298700(14) 0.02523(4) 0.562603(19)
Mo15 Mo 0.108412(14) 0.18258(4) 0.445643(18)
Mo17 Mo 0.205581(14) 0.26410(4) 0.549663(18)
N20 N 0.08352(14) 0.6978(4) 0.40101(17)
N21 N 0.53876(15) 0.4894(4) 0.58760(18)
N22 N 0.46124(15) 0.5106(4) 0.41240(18)
O35 O 0.33080(11) 0.1842(3) 0.53974(15)
O37 O 0.14337(12) 0.8546(3) 0.49637(16)
O39 O 0.56395(12) 0.5638(3) 0.46056(15)
O40 O 0.25121(11) 0.3823(3) 0.51462(14)
O42 O 0.48810(13) 0.7176(3) 0.51045(17)
O43 O 0.54069(12) 0.0394(3) 0.49431(16)
O45 O 0.04069(12) 0.5394(3) 0.49431(16)
O17 O 0.45931(12) 0.9606(3) 0.50569(16)
Mo13 Mo 0.192484(15) 0.95278(4) 0.480670(19)
Mo21 Mo 0.523743(14) 0.86280(4) 0.528272(18)
Zn14_5 Zn 1.0000 -0.0000 -0.0000
C24 C 0.9169(2) 0.0401(6) 0.8888(3)
H25 H 0.8967 0.0899 0.9115
N18 N 0.9045(2) 0.0135(5) 0.8310(2)
H26 H 0.8777 0.0366 0.8077
Zn13_3 Zn 1.0000 -0.0000 0.5000
Zn14_6 Zn 1.0000 -0.0000 1.0000
Zn3 Zn 0.89955(2) 0.66797(6) 0.00729(2)
Mo6 Mo 0.798700(14) 0.47477(4) 0.062603(19)
Mo9 Mo 0.705581(14) 0.23590(4) 0.049663(18)
Mo10 Mo 0.523743(14) 0.13720(4) 0.028272(18)
O18 O 0.83229(12) 0.5798(3) 0.02061(16)
O19 O 0.82377(13) 0.4991(4) 0.13643(16)
O20 O 0.83080(11) 0.3158(3) 0.03974(15)
O21 O 0.73632(12) 0.5692(3) 0.05649(16)
O27 O 0.58263(13) 0.1968(3) 0.00475(16)
O28 O 0.66095(11) 0.3774(3) 0.02929(14)
O29 O 0.67467(12) 0.1341(3) 0.09278(16)
O30 O 0.75121(11) 0.1177(3) 0.01462(14)
O31 O 0.74930(12) 0.3167(3) 0.10354(15)
O32 O 0.48810(13) 0.2824(3) 0.01045(17)
O33 O 0.53420(13) 0.1224(4) 0.10517(16)
Zn5 Zn 0.39955(2) 0.16797(6) 0.00729(2)
Zn12 Zn 0.5000 0.5000 -0.0000
Zn14_7 Zn 1.0000 1.0000 -0.0000
Mo16 Mo 0.891588(14) 0.18258(4) 0.054357(18)
N19 N 0.91648(14) 0.6978(4) 0.09899(17)
O38 O 0.85663(12) 0.8546(3) 0.00363(16)
O44 O 0.45931(12) 0.0394(3) 0.00569(16)
O46 O 0.95931(12) 0.5394(3) 0.00569(16)
H11 H 0.9927 0.8832 0.6331
C13 C 0.97385(18) 0.5268(5) 0.7523(2)
C14 C 0.94820(18) 0.6477(5) 0.7533(2)
C15 C 0.97428(18) 0.7676(5) 0.7521(2)
C16 C 0.9477(2) 0.3956(5) 0.7562(2)
H14 H 0.9691 0.3356 0.7823
H15 H 0.9168 0.4084 0.7741
C17 C 0.92634(17) 0.3938(5) 0.6414(2)
H16 H 0.9264 0.4849 0.6344
C18 C 0.9209(2) 0.1874(6) 0.6304(3)
H17 H 0.9155 0.1046 0.6120
C19 C 0.8918(2) 0.6456(5) 0.7549(2)
H18 H 0.8762 0.7169 0.7296
H19 H 0.8781 0.5619 0.7383
C20 C 0.90797(19) 0.6486(5) 0.8706(2)
H20 H 0.9420 0.6267 0.8756
C21 C 0.8350(2) 0.6946(6) 0.8866(3)
H21 H 0.8076 0.7134 0.9072
C22 C 0.9459(2) 0.8968(5) 0.7539(2)
H22 H 0.9623 0.9645 0.7321
H23 H 0.9119 0.8853 0.7335
C23 C 0.9769(2) 0.9287(5) 0.8655(2)
N10 N 0.91648(14) 0.3022(4) 0.59899(17)
N11 N 0.93614(16) 0.3373(4) 0.6953(2)
N12 N 0.93345(19) 0.2022(5) 0.6893(2)
N13 N 0.88144(15) 0.6711(4) 0.91524(18)
N14 N 0.87983(17) 0.6614(4) 0.8174(2)
N15 N 0.83187(19) 0.6886(5) 0.8264(2)
N16 N 0.96124(15) 0.9894(4) 0.91240(18)
N17 N 0.94388(16) 0.9410(4) 0.81652(18)
Mo7 Mo 0.692484(15) 0.54722(4) 0.980670(19)
Mo8 Mo 0.608412(14) 0.31742(4) 0.945643(18)
O22 O 0.72300(13) 0.6368(3) 0.93202(17)
O23 O 0.64337(12) 0.6454(3) 0.99637(16)
O24 O 0.65447(12) 0.4382(3) 0.91679(14)
O25 O 0.56395(12) 0.4362(3) 0.96056(15)
O26 O 0.58319(13) 0.2466(4) 0.87872(16)
Zn6 Zn 0.89955(2) 0.33203(6) 0.50729(2)
Zn11 Zn 0.60045(2) 0.83203(6) 0.99271(2)
Zn12_2 Zn 0.5000 0.5000 1.0000
Zn13_4 Zn 1.0000 1.0000 0.5000
Zn14_8 Zn 1.0000 1.0000 1.0000
Mo12 Mo 0.701300(14) 0.02523(4) 0.937397(19)
Mo18 Mo 0.794419(14) 0.26410(4) 0.950337(18)
Mo19 Mo 0.976257(14) 0.63720(4) 0.471728(18)
O36 O 0.66920(11) 0.1842(3) 0.96026(15)
O41 O 0.74879(11) 0.3823(3) 0.98538(14)
Mo14 Mo 0.807516(15) 0.95278(4) 0.019330(19)
O34 O 0.54069(12) 0.9606(3) 0.99431(16)
Mo22 Mo 0.476257(14) 0.86280(4) 0.971728(18)
N22_2 N 0.53876(15) 0.5106(4) 0.08760(18)
O39_2 O 0.43605(12) 0.5638(3) 0.03944(15)
N21_2 N 0.46124(15) 0.4894(4) 0.91240(18)
O42_2 O 0.51190(13) 0.7176(3) 0.98955(17)
O39_3 O 0.06395(12) 0.0638(3) 0.46056(15)
O15_2 O 0.01190(13) 0.7824(3) 0.48955(17)
Mo21_2 Mo 0.023743(14) 0.36280(4) 0.528272(18)
O18_2 O 0.33229(12) 0.0798(3) 0.02061(16)
O21_2 O 0.23632(12) 0.0692(3) 0.05649(16)
N19_2 N 0.41648(14) 0.1978(4) 0.09899(17)
O38_2 O 0.35663(12) 0.3546(3) 0.00363(16)
Mo2_2 Mo 0.807516(15) 0.04722(4) 0.519330(19)
C1_2 C 0.52615(18) 0.0268(5) 0.7477(2)
C2_2 C 0.55180(18) 0.1477(5) 0.7467(2)
C3_2 C 0.52572(18) 0.2676(5) 0.7479(2)
C7_2 C 0.6082(2) 0.1456(5) 0.7451(2)
H5_2 H 0.6238 0.2169 0.7704
H6_2 H 0.6219 0.0619 0.7617
C8_2 C 0.59203(19) 0.1486(5) 0.6294(2)
H7_2 H 0.5580 0.1267 0.6244
C9_2 C 0.6650(2) 0.1946(6) 0.6134(3)
H8_2 H 0.6924 0.2134 0.5928
C10_2 C 0.5541(2) 0.3968(5) 0.7461(2)
H9_2 H 0.5377 0.4645 0.7679
H10_2 H 0.5881 0.3853 0.7665
C11_2 C 0.5231(2) 0.4287(5) 0.6345(2)
H11_2 H 0.4927 0.3832 0.6331
C12_2 C 0.5831(2) 0.5401(6) 0.6112(3)
H12_2 H 0.6033 0.5899 0.5885
N4_2 N 0.61856(15) 0.1711(4) 0.58476(18)
N5_2 N 0.62017(17) 0.1614(4) 0.6826(2)
N6_2 N 0.66813(19) 0.1886(5) 0.6736(2)
N8_2 N 0.55612(16) 0.4410(4) 0.68348(18)
N9_2 N 0.5955(2) 0.5135(5) 0.6690(2)
H13_2 H 0.6223 0.5366 0.6923
O1_2 O 0.66771(12) 0.0798(3) 0.47939(16)
O4_2 O 0.76368(12) 0.0692(3) 0.44351(16)
O5_2 O 0.77700(13) 0.1368(3) 0.56798(17)
O6_2 O 0.85663(12) 0.1454(3) 0.50363(16)
C13_2 C 0.47385(18) 0.0268(5) 0.7523(2)
C14_2 C 0.44820(18) 0.1477(5) 0.7533(2)
C15_2 C 0.47428(18) 0.2676(5) 0.7521(2)
C19_2 C 0.3918(2) 0.1456(5) 0.7549(2)
H18_2 H 0.3762 0.2169 0.7296
H19_2 H 0.3781 0.0619 0.7383
C20_2 C 0.40797(19) 0.1486(5) 0.8706(2)
H20_2 H 0.4420 0.1267 0.8756
C21_2 C 0.3350(2) 0.1946(6) 0.8866(3)
H21_2 H 0.3076 0.2134 0.9072
C22_2 C 0.4459(2) 0.3968(5) 0.7539(2)
H22_2 H 0.4623 0.4645 0.7321
H23_2 H 0.4119 0.3853 0.7335
C23_2 C 0.4769(2) 0.4287(5) 0.8655(2)
H24_2 H 0.5073 0.3832 0.8669
C24_2 C 0.4169(2) 0.5401(6) 0.8888(3)
H25_2 H 0.3967 0.5899 0.9115
N13_2 N 0.38144(15) 0.1711(4) 0.91524(18)
N14_2 N 0.37983(17) 0.1614(4) 0.8174(2)
N15_2 N 0.33187(19) 0.1886(5) 0.8264(2)
N17_2 N 0.44388(16) 0.4410(4) 0.81652(18)
N18_2 N 0.4045(2) 0.5135(5) 0.8310(2)
H26_2 H 0.3777 0.5366 0.8077
Mo7_2 Mo 0.192484(15) 0.04722(4) 0.980670(19)
O22_2 O 0.22300(13) 0.1368(3) 0.93202(17)
O23_2 O 0.14337(12) 0.1454(3) 0.99637(16)
N20_2 N 0.58352(14) 0.1978(4) 0.40101(17)
N22_3 N 0.96124(15) 0.0106(4) 0.41240(18)
O37_2 O 0.64337(12) 0.3546(3) 0.49637(16)
O42_3 O 0.98810(13) 0.2176(3) 0.51045(17)
Mo6_2 Mo 0.298700(14) 0.97477(4) 0.062603(19)
Mo9_2 Mo 0.205581(14) 0.73590(4) 0.049663(18)
O19_2 O 0.32377(13) 0.9991(4) 0.13643(16)
O20_2 O 0.33080(11) 0.8158(3) 0.03974(15)
O27_2 O 0.08263(13) 0.6968(3) 0.00475(16)
O28_2 O 0.16095(11) 0.8774(3) 0.02929(14)
O29_2 O 0.17467(12) 0.6341(3) 0.09278(16)
O30_2 O 0.25121(11) 0.6177(3) 0.01462(14)
O31_2 O 0.24930(12) 0.8167(3) 0.10354(15)
O33_2 O 0.03420(13) 0.6224(4) 0.10517(16)
Mo14_2 Mo 0.307516(15) 0.45278(4) 0.019330(19)
Mo16_2 Mo 0.391588(14) 0.68258(4) 0.054357(18)
Mo1_2 Mo 0.701300(14) 0.97477(4) 0.437397(19)
Mo3_2 Mo 0.891588(14) 0.81742(4) 0.554357(18)
Mo4_2 Mo 0.794419(14) 0.73590(4) 0.450337(18)
C4_2 C 0.5523(2) 0.8956(5) 0.7438(2)
H1_2 H 0.5309 0.8356 0.7177
H2_2 H 0.5832 0.9084 0.7259
C5_2 C 0.57366(17) 0.8938(5) 0.8586(2)
H3_2 H 0.5736 0.9849 0.8656
C6_2 C 0.5791(2) 0.6874(6) 0.8696(3)
H4_2 H 0.5845 0.6046 0.8880
N1_2 N 0.58352(14) 0.8022(4) 0.90101(17)
N2_2 N 0.56386(16) 0.8373(4) 0.8047(2)
N3_2 N 0.56655(19) 0.7022(5) 0.8107(2)
O2_2 O 0.67623(13) 0.9991(4) 0.36357(16)
O3_2 O 0.66920(11) 0.8158(3) 0.46026(15)
O7_2 O 0.84553(12) 0.9382(3) 0.58321(14)
O8_2 O 0.93605(12) 0.9362(3) 0.53944(15)
O9_2 O 0.91681(13) 0.7466(4) 0.62128(16)
O10_2 O 0.91737(13) 0.6968(3) 0.49525(16)
O11_2 O 0.83905(11) 0.8774(3) 0.47071(14)
O12_2 O 0.82533(12) 0.6341(3) 0.40722(16)
O13_2 O 0.74879(11) 0.6177(3) 0.48538(14)
O14_2 O 0.75070(12) 0.8167(3) 0.39646(15)
O16_2 O 0.96580(13) 0.6224(4) 0.39483(16)
O17_2 O 0.95931(12) 0.4606(3) 0.50569(16)
C16_2 C 0.4477(2) 0.8956(5) 0.7562(2)
H14_2 H 0.4691 0.8356 0.7823
H15_2 H 0.4168 0.9084 0.7741
C17_2 C 0.42634(17) 0.8938(5) 0.6414(2)
H16_2 H 0.4264 0.9849 0.6344
C18_2 C 0.4209(2) 0.6874(6) 0.6304(3)
H17_2 H 0.4155 0.6046 0.6120
N10_2 N 0.41648(14) 0.8022(4) 0.59899(17)
N11_2 N 0.43614(16) 0.8373(4) 0.6953(2)
N12_2 N 0.43345(19) 0.7022(5) 0.6893(2)
Mo8_2 Mo 0.108412(14) 0.81742(4) 0.945643(18)
O24_2 O 0.15447(12) 0.9382(3) 0.91679(14)
O25_2 O 0.06395(12) 0.9362(3) 0.96056(15)
O26_2 O 0.08319(13) 0.7466(4) 0.87872(16)
O34_2 O 0.04069(12) 0.4606(3) 0.99431(16)
Mo11_2 Mo 0.798700(14) 0.52523(4) 0.562603(19)
Mo12_2 Mo 0.201300(14) 0.52523(4) 0.937397(19)
Mo13_2 Mo 0.692484(15) 0.45278(4) 0.480670(19)
Mo15_2 Mo 0.608412(14) 0.68258(4) 0.445643(18)
Mo17_2 Mo 0.705581(14) 0.76410(4) 0.549663(18)
Mo18_2 Mo 0.294419(14) 0.76410(4) 0.950337(18)
O35_2 O 0.83080(11) 0.6842(3) 0.53974(15)
O36_2 O 0.16920(11) 0.6842(3) 0.96026(15)
O40_2 O 0.75121(11) 0.8823(3) 0.51462(14)
O41_2 O 0.24879(11) 0.8823(3) 0.98538(14)
O32_2 O 0.98810(13) 0.7824(3) 0.01045(17)
Mo22_2 Mo 0.976257(14) 0.36280(4) 0.971728(18)
N22_4 N 0.03876(15) 0.0106(4) 0.08760(18)
O42_4 O 0.01190(13) 0.2176(3) 0.98955(17)
O39_4 O 0.93605(12) 0.0638(3) 0.03944(15)
H11_3 H 0.0073 0.1168 0.3669
C13_3 C 0.02615(18) 0.4732(5) 0.2477(2)
C14_3 C 0.05180(18) 0.3523(5) 0.2467(2)
C15_3 C 0.02572(18) 0.2324(5) 0.2479(2)
C16_3 C 0.0523(2) 0.6044(5) 0.2438(2)
H14_3 H 0.0309 0.6644 0.2177
H15_3 H 0.0832 0.5916 0.2259
C17_3 C 0.07366(17) 0.6062(5) 0.3586(2)
H16_3 H 0.0736 0.5151 0.3656
C18_3 C 0.0791(2) 0.8126(6) 0.3696(3)
H17_3 H 0.0845 0.8954 0.3880
C19_3 C 0.1082(2) 0.3544(5) 0.2451(2)
H18_3 H 0.1238 0.2831 0.2704
H19_3 H 0.1219 0.4381 0.2617
C20_3 C 0.09203(19) 0.3514(5) 0.1294(2)
H20_3 H 0.0580 0.3733 0.1244
C21_3 C 0.1650(2) 0.3054(6) 0.1134(3)
H21_3 H 0.1924 0.2866 0.0928
C22_3 C 0.0541(2) 0.1032(5) 0.2461(2)
H22_3 H 0.0377 0.0355 0.2679
H23_3 H 0.0881 0.1147 0.2665
C23_3 C 0.0231(2) 0.0713(5) 0.1345(2)
N11_3 N 0.06386(16) 0.6627(4) 0.3047(2)
N12_3 N 0.06655(19) 0.7978(5) 0.3107(2)
N13_3 N 0.11856(15) 0.3289(4) 0.08476(18)
N14_3 N 0.12017(17) 0.3386(4) 0.1826(2)
N15_3 N 0.16813(19) 0.3114(5) 0.1736(2)
N17_3 N 0.05612(16) 0.0590(4) 0.18348(18)
O22_3 O 0.27700(13) 0.3632(3) 0.06798(17)
O24_3 O 0.34553(12) 0.5618(3) 0.08321(14)
O26_3 O 0.41681(13) 0.7534(4) 0.12128(16)
O18_3 O 0.16771(12) 0.4202(3) 0.97939(16)
O19_3 O 0.17623(13) 0.5009(4) 0.86357(16)
O21_3 O 0.26368(12) 0.4308(3) 0.94351(16)
O27_3 O 0.41737(13) 0.8032(3) 0.99525(16)
O28_3 O 0.33905(11) 0.6226(3) 0.97071(14)
O29_3 O 0.32533(12) 0.8659(3) 0.90722(16)
O31_3 O 0.25070(12) 0.6833(3) 0.89646(15)
O33_3 O 0.46580(13) 0.8776(4) 0.89483(16)
C24_3 C 0.0831(2) 0.9599(6) 0.1112(3)
H25_3 H 0.1033 0.9101 0.0885
N18_3 N 0.0955(2) 0.9865(5) 0.1690(2)
H26_3 H 0.1223 0.9634 0.1923
C1_3 C 0.97385(18) 0.4732(5) 0.2523(2)
C2_3 C 0.94820(18) 0.3523(5) 0.2533(2)
C3_3 C 0.97428(18) 0.2324(5) 0.2521(2)
C4_3 C 0.9477(2) 0.6044(5) 0.2562(2)
H1_3 H 0.9691 0.6644 0.2823
H2_3 H 0.9168 0.5916 0.2741
C5_3 C 0.92634(17) 0.6062(5) 0.1414(2)
H3_3 H 0.9264 0.5151 0.1344
C6_3 C 0.9209(2) 0.8126(6) 0.1304(3)
H4_3 H 0.9155 0.8954 0.1120
C7_3 C 0.8918(2) 0.3544(5) 0.2549(2)
H5_3 H 0.8762 0.2831 0.2296
H6_3 H 0.8781 0.4381 0.2383
C8_3 C 0.90797(19) 0.3514(5) 0.3706(2)
H7_3 H 0.9420 0.3733 0.3756
C9_3 C 0.8350(2) 0.3054(6) 0.3866(3)
H8_3 H 0.8076 0.2866 0.4072
C10_3 C 0.9459(2) 0.1032(5) 0.2539(2)
H9_3 H 0.9623 0.0355 0.2321
H10_3 H 0.9119 0.1147 0.2335
C11_3 C 0.9769(2) 0.0713(5) 0.3655(2)
N2_3 N 0.93614(16) 0.6627(4) 0.1953(2)
N3_3 N 0.93345(19) 0.7978(5) 0.1893(2)
N4_3 N 0.88144(15) 0.3289(4) 0.41524(18)
N5_3 N 0.87983(17) 0.3386(4) 0.3174(2)
N6_3 N 0.83187(19) 0.3114(5) 0.3264(2)
N8_3 N 0.94388(16) 0.0590(4) 0.31652(18)
O1_3 O 0.83229(12) 0.4202(3) 0.52061(16)
O2_3 O 0.82377(13) 0.5009(4) 0.63643(16)
O4_3 O 0.73632(12) 0.4308(3) 0.55649(16)
O5_3 O 0.72300(13) 0.3632(3) 0.43202(17)
O7_3 O 0.65447(12) 0.5618(3) 0.41679(14)
O9_3 O 0.58319(13) 0.7534(4) 0.37872(16)
O10_3 O 0.58263(13) 0.8032(3) 0.50475(16)
O11_3 O 0.66095(11) 0.6226(3) 0.52929(14)
O12_3 O 0.67467(12) 0.8659(3) 0.59278(16)
O14_3 O 0.74930(12) 0.6833(3) 0.60354(15)
O16_3 O 0.53420(13) 0.8776(4) 0.60517(16)
H24_3 H 0.9927 0.1168 0.1331
C12_3 C 0.9169(2) 0.9599(6) 0.3888(3)
H12_3 H 0.8967 0.9101 0.4115
N9_3 N 0.9045(2) 0.9865(5) 0.3310(2)
H13_3 H 0.8777 0.9634 0.3077
C4_4 C 0.4477(2) 0.1044(5) 0.2562(2)
H1_4 H 0.4691 0.1644 0.2823
H2_4 H 0.4168 0.0916 0.2741
C5_4 C 0.42634(17) 0.1062(5) 0.1414(2)
H3_4 H 0.4264 0.0151 0.1344
C6_4 C 0.4209(2) 0.3126(6) 0.1304(3)
H4_4 H 0.4155 0.3954 0.1120
N2_4 N 0.43614(16) 0.1627(4) 0.1953(2)
N3_4 N 0.43345(19) 0.2978(5) 0.1893(2)
O2_4 O 0.32377(13) 0.0009(4) 0.63643(16)
O7_4 O 0.15447(12) 0.0618(3) 0.41679(14)
O9_4 O 0.08319(13) 0.2534(4) 0.37872(16)
O10_4 O 0.08263(13) 0.3032(3) 0.50475(16)
O11_4 O 0.16095(11) 0.1226(3) 0.52929(14)
O12_4 O 0.17467(12) 0.3659(3) 0.59278(16)
O14_4 O 0.24930(12) 0.1833(3) 0.60354(15)
O16_4 O 0.03420(13) 0.3776(4) 0.60517(16)
C16_4 C 0.5523(2) 0.1044(5) 0.2438(2)
H14_4 H 0.5309 0.1644 0.2177
H15_4 H 0.5832 0.0916 0.2259
C17_4 C 0.57366(17) 0.1062(5) 0.3586(2)
H16_4 H 0.5736 0.0151 0.3656
C18_4 C 0.5791(2) 0.3126(6) 0.3696(3)
H17_4 H 0.5845 0.3954 0.3880
N11_4 N 0.56386(16) 0.1627(4) 0.3047(2)
N12_4 N 0.56655(19) 0.2978(5) 0.3107(2)
O24_4 O 0.84553(12) 0.0618(3) 0.08321(14)
O26_4 O 0.91681(13) 0.2534(4) 0.12128(16)
O19_4 O 0.67623(13) 0.0009(4) 0.86357(16)
O27_4 O 0.91737(13) 0.3032(3) 0.99525(16)
O28_4 O 0.83905(11) 0.1226(3) 0.97071(14)
O29_4 O 0.82533(12) 0.3659(3) 0.90722(16)
O31_4 O 0.75070(12) 0.1833(3) 0.89646(15)
O33_4 O 0.96580(13) 0.3776(4) 0.89483(16)
C1_4 C 0.47385(18) 0.9732(5) 0.2523(2)
C2_4 C 0.44820(18) 0.8523(5) 0.2533(2)
C3_4 C 0.47428(18) 0.7324(5) 0.2521(2)
C7_4 C 0.3918(2) 0.8544(5) 0.2549(2)
H5_4 H 0.3762 0.7831 0.2296
H6_4 H 0.3781 0.9381 0.2383
C8_4 C 0.40797(19) 0.8514(5) 0.3706(2)
H7_4 H 0.4420 0.8733 0.3756
C9_4 C 0.3350(2) 0.8054(6) 0.3866(3)
H8_4 H 0.3076 0.7866 0.4072
C10_4 C 0.4459(2) 0.6032(5) 0.2539(2)
H9_4 H 0.4623 0.5355 0.2321
H10_4 H 0.4119 0.6147 0.2335
C11_4 C 0.4769(2) 0.5713(5) 0.3655(2)
H11_4 H 0.5073 0.6168 0.3669
C12_4 C 0.4169(2) 0.4599(6) 0.3888(3)
H12_4 H 0.3967 0.4101 0.4115
N4_4 N 0.38144(15) 0.8289(4) 0.41524(18)
N5_4 N 0.37983(17) 0.8386(4) 0.3174(2)
N6_4 N 0.33187(19) 0.8114(5) 0.3264(2)
N8_4 N 0.44388(16) 0.5590(4) 0.31652(18)
N9_4 N 0.4045(2) 0.4865(5) 0.3310(2)
H13_4 H 0.3777 0.4634 0.3077
O1_4 O 0.33229(12) 0.9202(3) 0.52061(16)
O4_4 O 0.23632(12) 0.9308(3) 0.55649(16)
O5_4 O 0.22300(13) 0.8632(3) 0.43202(17)
C13_4 C 0.52615(18) 0.9732(5) 0.2477(2)
C14_4 C 0.55180(18) 0.8523(5) 0.2467(2)
C15_4 C 0.52572(18) 0.7324(5) 0.2479(2)
C19_4 C 0.6082(2) 0.8544(5) 0.2451(2)
H18_4 H 0.6238 0.7831 0.2704
H19_4 H 0.6219 0.9381 0.2617
C20_4 C 0.59203(19) 0.8514(5) 0.1294(2)
H20_4 H 0.5580 0.8733 0.1244
C21_4 C 0.6650(2) 0.8054(6) 0.1134(3)
H21_4 H 0.6924 0.7866 0.0928
C22_4 C 0.5541(2) 0.6032(5) 0.2461(2)
H22_4 H 0.5377 0.5355 0.2679
H23_4 H 0.5881 0.6147 0.2665
C23_4 C 0.5231(2) 0.5713(5) 0.1345(2)
H24_4 H 0.4927 0.6168 0.1331
C24_4 C 0.5831(2) 0.4599(6) 0.1112(3)
H25_4 H 0.6033 0.4101 0.0885
N13_4 N 0.61856(15) 0.8289(4) 0.08476(18)
N14_4 N 0.62017(17) 0.8386(4) 0.1826(2)
N15_4 N 0.66813(19) 0.8114(5) 0.1736(2)
N17_4 N 0.55612(16) 0.5590(4) 0.18348(18)
N18_4 N 0.5955(2) 0.4865(5) 0.1690(2)
H26_4 H 0.6223 0.4634 0.1923
O22_4 O 0.77700(13) 0.8632(3) 0.06798(17)
O18_4 O 0.66771(12) 0.9202(3) 0.97939(16)
O21_4 O 0.76368(12) 0.9308(3) 0.94351(16)
loop_
_geom_bond_atom_site_label_1
_geom_bond_atom_site_label_2
_geom_bond_site_symmetry_1
_geom_bond_site_symmetry_2
C12 H12 1_555 1_555
N9 C12 1_555 1_555
H13 N9 1_555 1_555
Zn1 N4 1_555 1_555
Zn2 O8 1_555 1_555
Mo1 O1 1_555 1_555
Mo2 O4 1_555 1_555
Mo3 O7 1_555 1_555
Mo4 O11 1_555 1_555
Mo5 O10 1_555 1_555
C1 C2 1_555 1_555
C2 C3 1_555 1_555
C3 C10 1_555 1_555
C4 C1 1_555 1_555
H1 C4 1_555 1_555
H2 C4 1_555 1_555
C5 H3 1_555 1_555
C6 H4 1_555 1_555
C7 C2 1_555 1_555
H5 C7 1_555 1_555
H6 C7 1_555 1_555
C8 H7 1_555 1_555
C9 H8 1_555 1_555
C10 H9 1_555 1_555
H10 C10 1_555 1_555
N1 C5 1_555 1_555
N2 C4 1_555 1_555
N3 C6 1_555 1_555
N4 C8 1_555 1_555
N5 C7 1_555 1_555
N6 C9 1_555 1_555
N7 C11 1_555 1_555
N8 C10 1_555 1_555
O1 Zn1 1_555 1_555
O2 Mo1 1_555 1_555
O3 Mo1 1_555 1_555
O4 Mo1 1_555 1_555
O5 Mo2 1_555 1_555
O6 Mo2 1_555 1_555
O7 Mo2 1_555 1_555
O8 Mo3 1_555 1_555
O9 Mo3 1_555 1_555
O10 Mo3 1_555 1_555
O11 Mo2 1_555 1_555
O12 Mo4 1_555 1_555
O13 Mo4 1_555 1_555
O14 Mo1 1_555 1_555
O15 Zn2 1_555 1_555
O16 Mo5 1_555 1_555
Zn4 Mo5 1_555 1_555
Zn7 N1 1_555 1_555
Zn9 O6 1_555 1_555
Zn13_2 N7 1_555 1_555
Mo11 O13 1_555 1_555
Mo15 O3 1_555 1_555
Mo17 O3 1_555 1_555
N20 Zn1 1_555 1_555
N21 Zn2 1_555 1_555
N22 Zn2 1_555 1_555
O35 Mo3 1_555 1_555
O37 Zn1 1_555 1_555
O39 Zn2 1_555 1_555
O40 Mo1 1_555 1_555
O42 Zn2 1_555 1_555
O43 Mo5 1_555 1_555
O45 Zn1 1_555 1_555
Mo2 O40 1_555 1_555
Mo3 O11 1_555 1_555
Mo4 O14 1_555 1_555
Mo4 O35 1_555 1_555
Mo4 O40 1_555 1_555
Mo5 O15 1_555 1_555
C5 N2 1_555 1_555
C6 N1 1_555 1_555
C8 N5 1_555 1_555
C9 N4 1_555 1_555
C11 N8 1_555 1_555
N2 N3 1_555 1_555
N5 N6 1_555 1_555
O13 Mo17 1_555 1_555
Zn4 O43 1_555 1_555
Mo11 O35 1_555 1_555
Mo17 O40 1_555 1_555
Zn9 O17 1_555 1_555
Mo21 O17 1_555 1_555
Zn9 Mo21 1_555 1_555
C24 H25 1_555 1_555
N18 C24 1_555 1_555
H26 N18 1_555 1_555
Mo6 O18 1_555 1_555
Mo9 O28 1_555 1_555
Mo10 O27 1_555 1_555
O18 Zn3 1_555 1_555
O19 Mo6 1_555 1_555
O20 Mo6 1_555 1_555
O21 Mo6 1_555 1_555
O29 Mo9 1_555 1_555
O30 Mo9 1_555 1_555
O31 Mo6 1_555 1_555
O32 Mo10 1_555 1_555
O33 Mo10 1_555 1_555
Zn5 Mo10 1_555 1_555
Mo16 O20 1_555 1_555
N19 Zn3 1_555 1_555
O38 Zn3 1_555 1_555
O44 Mo10 1_555 1_555
O46 Zn3 1_555 1_555
Mo9 O31 1_555 1_555
O32 Zn12 1_555 1_555
Zn5 O44 1_555 1_555
C14 C13 1_555 1_555
C16 C13 1_555 1_555
H14 C16 1_555 1_555
H15 C16 1_555 1_555
C17 H16 1_555 1_555
C18 H17 1_555 1_555
C19 C14 1_555 1_555
H18 C19 1_555 1_555
H19 C19 1_555 1_555
C20 H20 1_555 1_555
C21 H21 1_555 1_555
C22 C15 1_555 1_555
H22 C22 1_555 1_555
H23 C22 1_555 1_555
N10 C17 1_555 1_555
N11 C16 1_555 1_555
N12 C18 1_555 1_555
N13 C20 1_555 1_555
N14 C19 1_555 1_555
N15 C21 1_555 1_555
N16 C23 1_555 1_555
N17 C22 1_555 1_555
Mo8 O24 1_555 1_555
O22 Mo7 1_555 1_555
O23 Mo7 1_555 1_555
O24 Mo7 1_555 1_555
O25 Mo8 1_555 1_555
O26 Mo8 1_555 1_555
Zn6 N10 1_555 1_555
Zn11 O23 1_555 1_555
Zn12_2 O25 1_555 1_555
Zn14_8 N16 1_555 1_555
O36 Mo8 1_555 1_555
C14 C15 1_555 1_555
C17 N11 1_555 1_555
C18 N10 1_555 1_555
C20 N14 1_555 1_555
C21 N13 1_555 1_555
C23 N17 1_555 1_555
N11 N12 1_555 1_555
N14 N15 1_555 1_555
Mo7 O41 1_555 1_555
Mo12 O36 1_555 1_555
Mo18 O41 1_555 1_555
Zn11 O34 1_555 1_555
Mo22 O34 1_555 1_555
Zn11 Mo22 1_555 1_555
N22_2 Zn12 1_555 1_555
O39_2 Zn12 1_555 1_555
N21_2 Zn12_2 1_555 1_555
O42_2 Zn12_2 1_555 1_555
O39_3 Zn13 1_555 1_555
O15_2 Zn13_2 1_555 1_555
Mo21_2 O45 1_555 1_555
O18_2 Zn5 1_555 1_555
N19_2 Zn5 1_555 1_555
O38_2 Zn5 1_555 1_555
Zn4 N4_2 1_555 1_555
Mo2_2 O4_2 1_555 1_555
C1_2 C2_2 1_555 1_555
C2_2 C3_2 1_555 1_555
C3_2 C10_2 1_555 1_555
C7_2 C2_2 1_555 1_555
H5_2 C7_2 1_555 1_555
H6_2 C7_2 1_555 1_555
C8_2 H7_2 1_555 1_555
C9_2 H8_2 1_555 1_555
C10_2 H9_2 1_555 1_555
H10_2 C10_2 1_555 1_555
C11_2 H11_2 1_555 1_555
C12_2 H12_2 1_555 1_555
N4_2 C8_2 1_555 1_555
N5_2 C7_2 1_555 1_555
N6_2 C9_2 1_555 1_555
N21 C11_2 1_555 1_555
N8_2 C10_2 1_555 1_555
N9_2 C12_2 1_555 1_555
H13_2 N9_2 1_555 1_555
O1_2 Zn4 1_555 1_555
O5_2 Mo2_2 1_555 1_555
O6_2 Mo2_2 1_555 1_555
C13_2 C1_2 1_555 1_555
C14_2 C13_2 1_555 1_555
C15_2 C3_2 1_555 1_555
C19_2 C14_2 1_555 1_555
H18_2 C19_2 1_555 1_555
H19_2 C19_2 1_555 1_555
C20_2 H20_2 1_555 1_555
C21_2 H21_2 1_555 1_555
C22_2 C15_2 1_555 1_555
H22_2 C22_2 1_555 1_555
H23_2 C22_2 1_555 1_555
C23_2 H24_2 1_555 1_555
C24_2 H25_2 1_555 1_555
N13_2 C20_2 1_555 1_555
N14_2 C19_2 1_555 1_555
N15_2 C21_2 1_555 1_555
N21_2 C23_2 1_555 1_555
N17_2 C22_2 1_555 1_555
N18_2 C24_2 1_555 1_555
H26_2 N18_2 1_555 1_555
O22_2 Mo7_2 1_555 1_555
O23_2 Mo7_2 1_555 1_555
Zn6 O6_2 1_555 1_555
Zn7 O23_2 1_555 1_555
N20_2 Zn4 1_555 1_555
N22_3 Zn13_3 1_555 1_555
O37_2 Zn4 1_555 1_555
O42_3 Zn13_3 1_555 1_555
C8_2 N5_2 1_555 1_555
C9_2 N4_2 1_555 1_555
C11_2 N8_2 1_555 1_555
C12_2 N21 1_555 1_555
N5_2 N6_2 1_555 1_555
N8_2 N9_2 1_555 1_555
C14_2 C15_2 1_555 1_555
C20_2 N14_2 1_555 1_555
C21_2 N13_2 1_555 1_555
C23_2 N17_2 1_555 1_555
C24_2 N21_2 1_555 1_555
N14_2 N15_2 1_555 1_555
N17_2 N18_2 1_555 1_555
Mo9_2 O28_2 1_555 1_555
Mo20 O27_2 1_555 1_555
O19_2 Mo6_2 1_555 1_555
O20_2 Mo6_2 1_555 1_555
O29_2 Mo9_2 1_555 1_555
O30_2 Mo9_2 1_555 1_555
O31_2 Mo6_2 1_555 1_555
O33_2 Mo20 1_555 1_555
Mo14_2 O30_2 1_555 1_555
Mo16_2 O20_2 1_555 1_555
Mo9_2 O31_2 1_555 1_555
Zn13_4 O8_2 1_555 1_555
Mo3_2 O7_2 1_555 1_555
Mo4_2 O11_2 1_555 1_555
Mo19 O10_2 1_555 1_555
H1_2 C4_2 1_555 1_555
H2_2 C4_2 1_555 1_555
C5_2 H3_2 1_555 1_555
C6_2 H4_2 1_555 1_555
N1_2 C5_2 1_555 1_555
N2_2 C4_2 1_555 1_555
N3_2 C6_2 1_555 1_555
O2_2 Mo1_2 1_555 1_555
O3_2 Mo1_2 1_555 1_555
O8_2 Mo3_2 1_555 1_555
O9_2 Mo3_2 1_555 1_555
O10_2 Mo3_2 1_555 1_555
O12_2 Mo4_2 1_555 1_555
O13_2 Mo4_2 1_555 1_555
O14_2 Mo1_2 1_555 1_555
O16_2 Mo19 1_555 1_555
O17_2 Mo19 1_555 1_555
H14_2 C16_2 1_555 1_555
H15_2 C16_2 1_555 1_555
C17_2 H16_2 1_555 1_555
C18_2 H17_2 1_555 1_555
N10_2 C17_2 1_555 1_555
N11_2 C16_2 1_555 1_555
N12_2 C18_2 1_555 1_555
Mo8_2 O24_2 1_555 1_555
O25_2 Mo8_2 1_555 1_555
O26_2 Mo8_2 1_555 1_555
Zn9 N10_2 1_555 1_555
Zn11 N1_2 1_555 1_555
Zn6 O17_2 1_555 1_555
Zn7 O34_2 1_555 1_555
Zn14_4 O25_2 1_555 1_555
Mo11_2 O13_2 1_555 1_555
Mo13_2 O13_2 1_555 1_555
Mo15_2 O3_2 1_555 1_555
Mo17_2 O3_2 1_555 1_555
O35_2 Mo3_2 1_555 1_555
O36_2 Mo8_2 1_555 1_555
O40_2 Mo1_2 1_555 1_555
Mo3_2 O11_2 1_555 1_555
Mo4_2 O14_2 1_555 1_555
Mo4_2 O35_2 1_555 1_555
Mo4_2 O40_2 1_555 1_555
C5_2 N2_2 1_555 1_555
C6_2 N1_2 1_555 1_555
N2_2 N3_2 1_555 1_555
O13_2 Mo17_2 1_555 1_555
C17_2 N11_2 1_555 1_555
C18_2 N10_2 1_555 1_555
N11_2 N12_2 1_555 1_555
Mo11_2 O35_2 1_555 1_555
Mo12_2 O36_2 1_555 1_555
Mo17_2 O40_2 1_555 1_555
Mo18_2 O41_2 1_555 1_555
O32_2 Zn14_7 1_555 1_555
N22_4 Zn14 1_555 1_555
O42_4 Zn14_2 1_555 1_555
O39_4 Zn14_5 1_555 1_555
C14_3 C13_3 1_555 1_555
C16_3 C13_3 1_555 1_555
H14_3 C16_3 1_555 1_555
H15_3 C16_3 1_555 1_555
C17_3 H16_3 1_555 1_555
C18_3 H17_3 1_555 1_555
C19_3 C14_3 1_555 1_555
H18_3 C19_3 1_555 1_555
H19_3 C19_3 1_555 1_555
C20_3 H20_3 1_555 1_555
C21_3 H21_3 1_555 1_555
C22_3 C15_3 1_555 1_555
H22_3 C22_3 1_555 1_555
H23_3 C22_3 1_555 1_555
N20 C17_3 1_555 1_555
N11_3 C16_3 1_555 1_555
N12_3 C18_3 1_555 1_555
N13_3 C20_3 1_555 1_555
N14_3 C19_3 1_555 1_555
N15_3 C21_3 1_555 1_555
N22_4 C23_3 1_555 1_555
N17_3 C22_3 1_555 1_555
Mo16_2 O24_3 1_555 1_555
O22_3 Mo14_2 1_555 1_555
O38_2 Mo14_2 1_555 1_555
O24_3 Mo14_2 1_555 1_555
O39_2 Mo16_2 1_555 1_555
O26_3 Mo16_2 1_555 1_555
C14_3 C15_3 1_555 1_555
C17_3 N11_3 1_555 1_555
C18_3 N20 1_555 1_555
C20_3 N14_3 1_555 1_555
C21_3 N13_3 1_555 1_555
C23_3 N17_3 1_555 1_555
N11_3 N12_3 1_555 1_555
N14_3 N15_3 1_555 1_555
Mo12_2 O18_3 1_555 1_555
Mo18_2 O28_3 1_555 1_555
Mo22 O27_3 1_555 1_555
O18_3 Zn7 1_555 1_555
O19_3 Mo12_2 1_555 1_555
O21_3 Mo12_2 1_555 1_555
O29_3 Mo18_2 1_555 1_555
O31_3 Mo12_2 1_555 1_555
O42_2 Mo22 1_555 1_555
O33_3 Mo22 1_555 1_555
Mo18_2 O31_3 1_555 1_555
C24_3 H25_3 1_555 1_555
N18_3 C24_3 1_555 1_555
H26_3 N18_3 1_555 1_555
Zn6 N4_3 1_555 1_555
Mo11_2 O1_3 1_555 1_555
Mo13_2 O4_3 1_555 1_555
Mo15_2 O7_3 1_555 1_555
Mo17_2 O11_3 1_555 1_555
Mo21 O10_3 1_555 1_555
C1_3 C2_3 1_555 1_555
C2_3 C3_3 1_555 1_555
C3_3 C10_3 1_555 1_555
C4_3 C1_3 1_555 1_555
H1_3 C4_3 1_555 1_555
H2_3 C4_3 1_555 1_555
C5_3 H3_3 1_555 1_555
C6_3 H4_3 1_555 1_555
C7_3 C2_3 1_555 1_555
H5_3 C7_3 1_555 1_555
H6_3 C7_3 1_555 1_555
C8_3 H7_3 1_555 1_555
C9_3 H8_3 1_555 1_555
C10_3 H9_3 1_555 1_555
H10_3 C10_3 1_555 1_555
N19 C5_3 1_555 1_555
N2_3 C4_3 1_555 1_555
N3_3 C6_3 1_555 1_555
N4_3 C8_3 1_555 1_555
N5_3 C7_3 1_555 1_555
N6_3 C9_3 1_555 1_555
N22_3 C11_3 1_555 1_555
N8_3 C10_3 1_555 1_555
O1_3 Zn6 1_555 1_555
O2_3 Mo11_2 1_555 1_555
O4_3 Mo11_2 1_555 1_555
O5_3 Mo13_2 1_555 1_555
O37_2 Mo13_2 1_555 1_555
O7_3 Mo13_2 1_555 1_555
O39 Mo15_2 1_555 1_555
O9_3 Mo15_2 1_555 1_555
O10_3 Mo15_2 1_555 1_555
O11_3 Mo13_2 1_555 1_555
O12_3 Mo17_2 1_555 1_555
O14_3 Mo11_2 1_555 1_555
O16_3 Mo21 1_555 1_555
Mo15_2 O11_3 1_555 1_555
Mo17_2 O14_3 1_555 1_555
Mo21 O42 1_555 1_555
C5_3 N2_3 1_555 1_555
C6_3 N19 1_555 1_555
C8_3 N5_3 1_555 1_555
C9_3 N4_3 1_555 1_555
C11_3 N8_3 1_555 1_555
N2_3 N3_3 1_555 1_555
N5_3 N6_3 1_555 1_555
C12_3 H12_3 1_555 1_555
N9_3 C12_3 1_555 1_555
H13_3 N9_3 1_555 1_555
Mo15 O7_4 1_555 1_555
Mo17 O11_4 1_555 1_555
Mo21_2 O10_4 1_555 1_555
H1_4 C4_4 1_555 1_555
H2_4 C4_4 1_555 1_555
C5_4 H3_4 1_555 1_555
C6_4 H4_4 1_555 1_555
N19_2 C5_4 1_555 1_555
N2_4 C4_4 1_555 1_555
N3_4 C6_4 1_555 1_555
O2_4 Mo11 1_555 1_555
O39_3 Mo15 1_555 1_555
O9_4 Mo15 1_555 1_555
O10_4 Mo15 1_555 1_555
O12_4 Mo17 1_555 1_555
O14_4 Mo11 1_555 1_555
O16_4 Mo21_2 1_555 1_555
H14_4 C16_4 1_555 1_555
H15_4 C16_4 1_555 1_555
C17_4 H16_4 1_555 1_555
C18_4 H17_4 1_555 1_555
N20_2 C17_4 1_555 1_555
N11_4 C16_4 1_555 1_555
N12_4 C18_4 1_555 1_555
Mo16 O24_4 1_555 1_555
O39_4 Mo16 1_555 1_555
O26_4 Mo16 1_555 1_555
Mo15 O11_4 1_555 1_555
Mo17 O14_4 1_555 1_555
C5_4 N2_4 1_555 1_555
C6_4 N19_2 1_555 1_555
N2_4 N3_4 1_555 1_555
C17_4 N11_4 1_555 1_555
C18_4 N20_2 1_555 1_555
N11_4 N12_4 1_555 1_555
Mo18 O28_4 1_555 1_555
Mo22_2 O27_4 1_555 1_555
O19_4 Mo12 1_555 1_555
O29_4 Mo18 1_555 1_555
O31_4 Mo12 1_555 1_555
O33_4 Mo22_2 1_555 1_555
Mo18 O31_4 1_555 1_555
Zn9 N4_4 1_555 1_555
Mo13 O4_4 1_555 1_555
C1_4 C2_4 1_555 1_555
C2_4 C3_4 1_555 1_555
C3_4 C10_4 1_555 1_555
C7_4 C2_4 1_555 1_555
H5_4 C7_4 1_555 1_555
H6_4 C7_4 1_555 1_555
C8_4 H7_4 1_555 1_555
C9_4 H8_4 1_555 1_555
C10_4 H9_4 1_555 1_555
H10_4 C10_4 1_555 1_555
C11_4 H11_4 1_555 1_555
C12_4 H12_4 1_555 1_555
N4_4 C8_4 1_555 1_555
N5_4 C7_4 1_555 1_555
N6_4 C9_4 1_555 1_555
N22 C11_4 1_555 1_555
N8_4 C10_4 1_555 1_555
N9_4 C12_4 1_555 1_555
H13_4 N9_4 1_555 1_555
O1_4 Zn9 1_555 1_555
O5_4 Mo13 1_555 1_555
O37 Mo13 1_555 1_555
C13_4 C1_4 1_555 1_555
C14_4 C13_4 1_555 1_555
C15_4 C3_4 1_555 1_555
C19_4 C14_4 1_555 1_555
H18_4 C19_4 1_555 1_555
H19_4 C19_4 1_555 1_555
C20_4 H20_4 1_555 1_555
C21_4 H21_4 1_555 1_555
C22_4 C15_4 1_555 1_555
H22_4 C22_4 1_555 1_555
H23_4 C22_4 1_555 1_555
C23_4 H24_4 1_555 1_555
C24_4 H25_4 1_555 1_555
N13_4 C20_4 1_555 1_555
N14_4 C19_4 1_555 1_555
N15_4 C21_4 1_555 1_555
N22_2 C23_4 1_555 1_555
N17_4 C22_4 1_555 1_555
N18_4 C24_4 1_555 1_555
H26_4 N18_4 1_555 1_555
O22_4 Mo14 1_555 1_555
O38 Mo14 1_555 1_555
C8_4 N5_4 1_555 1_555
C9_4 N4_4 1_555 1_555
C11_4 N8_4 1_555 1_555
C12_4 N22 1_555 1_555
N5_4 N6_4 1_555 1_555
N8_4 N9_4 1_555 1_555
C14_4 C15_4 1_555 1_555
C20_4 N14_4 1_555 1_555
C21_4 N13_4 1_555 1_555
C23_4 N17_4 1_555 1_555
C24_4 N22_2 1_555 1_555
N14_4 N15_4 1_555 1_555
N17_4 N18_4 1_555 1_555
O18_4 Zn11 1_555 1_555

#END
