
###############################################################################
#
# This file contains modified crystal structure data generated from the
# MOF subset of the Cambridge Structural Database (CSD) v543 
# hosted by the Cambridge Crystallographic Data Centre (CCDC).
#
# This work is licensed under the Creative Commons
# Attribution-NonCommercial-ShareAlike 4.0 International License.
# To view a copy of this license, visit
# http://creativecommons.org/licenses/by-nc-sa/4.0/
# or send a letter to
# Creative Commons, PO Box 1866, Mountain View, CA 94042, USA.
#
# CIF created using the CSD Python API on 29 September 2022
# The structure has been converted into the P1 space group
# The structure has a 3D framework
# The original CSD entry SEVXEZ is in the rhombohedral crystal system
# The framework has been calculated to contain at least 10.0% void space
# The void calculation uses a probe of radius 1.32A, grid spacing 0.4
#
###############################################################################

data_SEVXEZ
_chemical_formula_moiety         '(C234 H198 N36 Ni11 O65 P12)n'
_symmetry_cell_setting           triclinic
_symmetry_space_group_name_H-M   'P 1'
_symmetry_Int_Tables_number      1
_space_group_name_Hall           'P 1'
loop_
_symmetry_equiv_pos_site_id
_symmetry_equiv_pos_as_xyz
1 x,y,z
_cell_length_a                   16.643(18)
_cell_length_b                   16.643(18)
_cell_length_c                   29.47(3)
_cell_angle_alpha                90
_cell_angle_beta                 90
_cell_angle_gamma                120
_cell_volume                     7069.26
loop_
_atom_site_label
_atom_site_type_symbol
_atom_site_fract_x
_atom_site_fract_y
_atom_site_fract_z
O16 O 0.32013(20) 0.04727(14) 0.19903(7)
Ni5 Ni 0.333334 0.166667 0.166667
C7 C 0.0260(2) 0.4389(2) 0.01697(10)
H6 H 0.043507 0.397695 0.028186
P2 P 0.333334 0.666666 0.27202(4)
O11 O 0.333334 0.666666 0.32252(11)
C58 C 0.24764(19) 0.55559(19) 0.24879(9)
C59 C 0.1568(2) 0.5143(2) 0.26496(11)
H49 H 0.141859 0.542842 0.287974
C60 C 0.1100(2) 0.3859(2) 0.21323(9)
C61 C 0.2693(2) 0.5096(2) 0.21595(9)
H50 H 0.329982 0.535624 0.205503
C62 C 0.0886(2) 0.4307(2) 0.24685(11)
H51 H 0.027843 0.404570 0.257321
C63 C 0.2015(2) 0.4253(2) 0.19858(10)
H52 H 0.217224 0.394885 0.176965
C64 C 0.0361(2) 0.2973(2) 0.19145(11)
O13 O 0.06308(19) 0.2547(2) 0.16692(13)
O14 O 0.72715(14) 0.67987(20) 0.19903(7)
C65 C 0.44441(19) 0.69204(27) 0.24879(9)
C66 C 0.4857(2) 0.6424(3) 0.26496(11)
H53 H 0.457158 0.599016 0.287974
C67 C 0.6141(2) 0.7240(3) 0.21323(9)
C68 C 0.4904(2) 0.7596(3) 0.21595(9)
H54 H 0.464376 0.794357 0.205503
C69 C 0.5693(2) 0.6578(3) 0.24685(11)
H55 H 0.595430 0.623272 0.257321
C70 C 0.5747(2) 0.7761(3) 0.19858(10)
H56 H 0.605115 0.822338 0.176965
C71 C 0.7027(2) 0.7387(3) 0.19145(11)
O15 O 0.7453(2) 0.80834(28) 0.16692(13)
C72 C 0.30796(27) 0.75236(19) 0.24879(9)
C73 C 0.3576(3) 0.8432(2) 0.26496(11)
H57 H 0.400984 0.858141 0.287974
C74 C 0.2760(3) 0.8900(2) 0.21323(9)
C75 C 0.2404(3) 0.7307(2) 0.21595(9)
H58 H 0.205643 0.670018 0.205503
C76 C 0.3422(3) 0.9114(2) 0.24685(11)
H59 H 0.376728 0.972157 0.257321
C77 C 0.2239(3) 0.7985(2) 0.19858(10)
H60 H 0.177662 0.782776 0.176965
C78 C 0.2613(3) 0.9639(2) 0.19145(11)
O17 O 0.19166(28) 0.93692(19) 0.16692(13)
Ni4 Ni 0.833333 0.666666 0.166667
N3 N 0.11278(17) 0.63467(17) 0.93573(8)
N4 N 0.15932(17) 0.73775(17) 0.88037(8)
C28 C 0.0541(2) 0.5654(2) 0.96805(9)
C30 C 0.0807(2) 0.5049(2) 0.98508(10)
H21 H 0.135465 0.508522 0.975135
C31 C 0.0874(2) 0.6760(2) 0.90330(10)
H22 H 0.026707 0.662013 0.898076
C32 C 0.2081(2) 0.6741(2) 0.93279(11)
H23 H 0.245752 0.660440 0.950642
C33 C 0.2352(2) 0.7365(2) 0.89878(11)
H24 H 0.296154 0.773335 0.889068
Ni6 Ni 0.166666 0.833334 0.833334
Ni1 Ni 0.833333 0.166667 0.166667
O2 O 0.71394(14) 0.06048(14) 0.13430(7)
N1 N 0.88722(17) 0.36533(17) 0.06427(8)
N2 N 0.84068(17) 0.26225(17) 0.11963(8)
C2 C 0.9459(2) 0.4346(2) 0.03195(9)
O3 O 0.91182(16) 0.13526(16) 0.12264(8)
H2 H 0.893634 0.076328 0.124818
H3 H 0.971144 0.170298 0.128048
C9 C 0.6306(2) 0.0360(2) 0.14188(11)
C10 C 0.9193(2) 0.4951(2) 0.01492(10)
H8 H 0.864535 0.491478 0.024865
C11 C 0.9126(2) 0.3240(2) 0.09670(10)
H9 H 0.973293 0.337987 0.101924
C12 C 0.7919(2) 0.3259(2) 0.06721(11)
H10 H 0.754248 0.339560 0.049358
O4 O 0.60359(19) 0.0786(2) 0.16641(13)
C13 C 0.7648(2) 0.2635(2) 0.10122(11)
H11 H 0.703846 0.226665 0.110932
O12 O 0.95273(14) 0.27285(14) 0.19903(7)
O18 O 0.75485(16) 0.19807(16) 0.21069(8)
H61 H 0.773033 0.257005 0.208515
H62 H 0.695523 0.163035 0.205285
N13 N 0.82599(17) 0.07108(17) 0.21370(8)
C29 C 0.9740(2) 0.5611(2) 0.98303(10)
H20 H 0.956493 0.602305 0.971814
P1 P 0.333333 0.666667 0.06131(4)
O1 O 0.333333 0.666667 0.01081(11)
C1 C 0.41903(19) 0.77774(19) 0.08454(9)
C3 C 0.5099(2) 0.8190(2) 0.06837(11)
H1 H 0.524808 0.790491 0.045359
C4 C 0.5567(2) 0.9474(2) 0.12010(9)
C5 C 0.3974(2) 0.8237(2) 0.11738(9)
H4 H 0.336685 0.797709 0.127830
C6 C 0.5781(2) 0.9026(2) 0.08648(11)
H5 H 0.638824 0.928763 0.076012
C8 C 0.4652(2) 0.9080(2) 0.13475(10)
H7 H 0.449443 0.938448 0.156368
C14 C 0.22226(19) 0.64129(27) 0.08454(9)
C15 C 0.1810(2) 0.6909(3) 0.06837(11)
H12 H 0.209509 0.734317 0.045359
C16 C 0.0526(2) 0.6093(3) 0.12010(9)
C17 C 0.1763(2) 0.5737(3) 0.11738(9)
H13 H 0.202291 0.538976 0.127830
C18 C 0.0974(2) 0.6755(3) 0.08648(11)
H14 H 0.071237 0.710061 0.076012
C19 C 0.0920(2) 0.5572(3) 0.13475(10)
H15 H 0.061552 0.510995 0.156368
O7 O 0.34654(20) 0.28606(14) 0.13430(7)
C21 C 0.35871(27) 0.58097(19) 0.08454(9)
C22 C 0.3091(3) 0.4901(2) 0.06837(11)
H16 H 0.265683 0.475192 0.045359
C23 C 0.3907(3) 0.4433(2) 0.12010(9)
C24 C 0.4263(3) 0.6026(2) 0.11738(9)
H17 H 0.461024 0.663315 0.127830
C25 C 0.3245(3) 0.4219(2) 0.08648(11)
H18 H 0.289939 0.361176 0.076012
C26 C 0.4428(3) 0.5348(2) 0.13475(10)
H19 H 0.489005 0.550557 0.156368
C27 C 0.4054(3) 0.3694(2) 0.14188(11)
O8 O 0.47501(28) 0.39641(19) 0.16641(13)
N9 N 0.47811(24) 0.11278(17) 0.06427(8)
N10 N 0.42157(24) 0.15932(17) 0.11963(8)
C46 C 0.4887(3) 0.0541(2) 0.03195(9)
O10 O 0.22344(23) 0.08818(16) 0.12264(8)
H37 H 0.182694 0.106366 0.124818
H38 H 0.199154 0.028856 0.128048
C48 C 0.5758(3) 0.0807(2) 0.01492(10)
H40 H 0.626943 0.135465 0.024865
C49 C 0.4114(3) 0.0874(2) 0.09670(10)
H41 H 0.364694 0.026707 0.101924
C50 C 0.5340(3) 0.2081(2) 0.06721(11)
H42 H 0.585312 0.245752 0.049358
C51 C 0.4987(3) 0.2352(2) 0.10122(11)
H43 H 0.522819 0.296154 0.110932
O20 O 0.44323(23) 0.24515(16) 0.21069(8)
H65 H 0.483973 0.226967 0.208515
H66 H 0.467513 0.304477 0.205285
N15 N 0.24510(24) 0.17401(17) 0.21370(8)
C53 C 0.5871(3) 0.0260(2) 0.98303(10)
H44 H 0.645812 0.043507 0.971814
C47 C 0.4129(3) 0.9740(2) 0.01697(10)
H39 H 0.354188 0.956493 0.028186
N11 N 0.52189(24) 0.88722(17) 0.93573(8)
N12 N 0.57843(24) 0.84068(17) 0.88037(8)
C52 C 0.5113(3) 0.9459(2) 0.96805(9)
C54 C 0.4242(3) 0.9193(2) 0.98508(10)
H45 H 0.373057 0.864535 0.975135
C55 C 0.5886(3) 0.9126(2) 0.90330(10)
H46 H 0.635306 0.973293 0.898076
C56 C 0.4660(3) 0.7919(2) 0.93279(11)
H47 H 0.414688 0.754248 0.950642
C57 C 0.5013(3) 0.7648(2) 0.89878(11)
H48 H 0.477181 0.703846 0.889068
Ni8 Ni 0.666667 0.833334 0.833334
O5 O 0.93952(14) 0.65346(20) 0.13430(7)
C20 C 0.9640(2) 0.5946(3) 0.14188(11)
O6 O 0.9214(2) 0.52499(28) 0.16641(13)
N5 N 0.63467(17) 0.52189(24) 0.06427(8)
N6 N 0.73775(17) 0.57843(24) 0.11963(8)
C34 C 0.5654(2) 0.5113(3) 0.03195(9)
O9 O 0.86474(16) 0.77656(23) 0.12264(8)
H25 H 0.923672 0.817306 0.124818
H26 H 0.829702 0.800846 0.128048
C35 C 0.5611(2) 0.5871(3) 0.01697(10)
H27 H 0.602305 0.645812 0.028186
C36 C 0.5049(2) 0.4242(3) 0.01492(10)
H28 H 0.508522 0.373057 0.024865
C37 C 0.6760(2) 0.5886(3) 0.09670(10)
H29 H 0.662013 0.635306 0.101924
C38 C 0.6741(2) 0.4660(3) 0.06721(11)
H30 H 0.660440 0.414688 0.049358
C39 C 0.7365(2) 0.5013(3) 0.10122(11)
H31 H 0.773335 0.477181 0.110932
O19 O 0.80193(16) 0.55677(23) 0.21069(8)
H63 H 0.742995 0.516027 0.208515
H64 H 0.836965 0.532487 0.205285
N14 N 0.92892(17) 0.75490(24) 0.21370(8)
N7 N 0.36533(17) 0.47811(24) 0.93573(8)
N8 N 0.26225(17) 0.42157(24) 0.88037(8)
C40 C 0.4346(2) 0.4887(3) 0.96805(9)
C41 C 0.4389(2) 0.4129(3) 0.98303(10)
H32 H 0.397695 0.354188 0.971814
C42 C 0.4951(2) 0.5758(3) 0.98508(10)
H33 H 0.491478 0.626943 0.975135
C43 C 0.3240(2) 0.4114(3) 0.90330(10)
H34 H 0.337987 0.364694 0.898076
C44 C 0.3259(2) 0.5340(3) 0.93279(11)
H35 H 0.339560 0.585312 0.950642
C45 C 0.2635(2) 0.4987(3) 0.89878(11)
H36 H 0.226665 0.522819 0.889068
Ni7 Ni 0.166666 0.333333 0.833334
P2_2 P 0.000000 -0.000000 0.60536(4)
O11_2 O 0.000000 -0.000000 0.65586(11)
O14_2 O 0.39381(14) 0.01321(20) 0.53237(7)
C65_2 C 0.11107(19) 0.02538(27) 0.58213(9)
C67_2 C 0.2807(2) 0.0574(3) 0.54657(9)
C68_2 C 0.1570(2) 0.0930(3) 0.54929(9)
H54_2 H 0.131042 0.127691 0.538837
C70_2 C 0.2413(2) 0.1095(3) 0.53192(10)
H56_2 H 0.271781 0.155672 0.510299
C71_2 C 0.3693(2) 0.0721(3) 0.52479(11)
O15_2 O 0.4119(2) 0.14168(28) 0.50026(13)
C73_2 C 0.0242(3) 0.1766(2) 0.59830(11)
H57_2 H 0.067650 0.191475 0.621308
C76_2 C 0.0088(3) 0.2448(2) 0.58019(11)
H59_2 H 0.043394 0.305491 0.590655
Ni4_2 Ni 0.500000 -0.000001 0.500000
Ni5_2 Ni 0.000001 0.500000 0.500000
P2_3 P 0.000000 1.000000 0.60536(4)
O11_3 O 0.000000 1.000000 0.65586(11)
C66_2 C 0.1523(2) 0.9758(3) 0.59830(11)
H53_2 H 0.123824 0.932350 0.621308
C69_2 C 0.2359(2) 0.9912(3) 0.58019(11)
H55_2 H 0.262096 0.956606 0.590655
Ni4_3 Ni 0.500000 0.999999 0.500000
C31_2 C 0.7541(2) 0.0093(2) 0.23663(10)
C32_2 C 0.8748(2) 0.0074(2) 0.26612(11)
C33_2 C 0.9019(2) 0.0698(2) 0.23211(11)
H24_2 H 0.962821 0.106668 0.222401
P2_4 P 1.000000 -0.000000 0.60536(4)
O11_4 O 1.000000 -0.000000 0.65586(11)
O16_2 O 0.98679(20) 0.38061(14) 0.53237(7)
C72_2 C 0.97462(27) 0.08570(19) 0.58213(9)
C74_2 C 0.9426(3) 0.2234(2) 0.54657(9)
C75_2 C 0.9070(3) 0.0641(2) 0.54929(9)
H58_2 H 0.872309 0.003352 0.538837
C77_2 C 0.8905(3) 0.1319(2) 0.53192(10)
H60_2 H 0.844328 0.116110 0.510299
C78_2 C 0.9279(3) 0.2973(2) 0.52479(11)
O17_2 O 0.85832(28) 0.27026(19) 0.50026(13)
Ni5_3 Ni 1.000001 0.500000 0.500000
Ni1_2 Ni 0.500000 0.500000 0.500000
P1_2 P -0.000000 0.000000 0.39464(4)
O1_2 O -0.000000 0.000000 0.34414(11)
O2_2 O 0.38061(14) 0.39381(14) 0.46763(7)
C1_2 C 0.08570(19) 0.11107(19) 0.41787(9)
N1_2 N 0.55389(17) 0.69866(17) 0.39760(8)
N2_2 N 0.50735(17) 0.59558(17) 0.45296(8)
C2_2 C 0.6126(2) 0.7679(2) 0.36528(9)
C3_2 C 0.1766(2) 0.1523(2) 0.40170(11)
H1_2 H 0.191475 0.123824 0.378692
C4_2 C 0.2234(2) 0.2807(2) 0.45343(9)
O3_2 O 0.57849(16) 0.46859(16) 0.45597(8)
H2_2 H 0.560301 0.409661 0.458151
H3_2 H 0.637811 0.503631 0.461381
C5_2 C 0.0641(2) 0.1570(2) 0.45071(9)
H4_2 H 0.003352 0.131042 0.461163
C6_2 C 0.2448(2) 0.2359(2) 0.41981(11)
H5_2 H 0.305491 0.262096 0.409345
C7_2 C 0.6927(2) 0.7722(2) 0.35030(10)
H6_2 H 0.710174 0.731028 0.361519
C8_2 C 0.1319(2) 0.2413(2) 0.46808(10)
H7_2 H 0.116110 0.271781 0.489701
C9_2 C 0.2973(2) 0.3693(2) 0.47521(11)
C10_2 C 0.5860(2) 0.8284(2) 0.34825(10)
H8_2 H 0.531202 0.824811 0.358198
C11_2 C 0.5793(2) 0.6573(2) 0.43003(10)
H9_2 H 0.639960 0.671320 0.435257
C12_2 C 0.4586(2) 0.6592(2) 0.40054(11)
H10_2 H 0.420915 0.672893 0.382691
O4_2 O 0.27026(19) 0.4119(2) 0.49974(13)
C13_2 C 0.4315(2) 0.5968(2) 0.43455(11)
H11_2 H 0.370513 0.559998 0.444265
N3_2 N 0.77945(17) 0.96800(17) 0.26906(8)
C28_2 C 0.7208(2) 0.8987(2) 0.30138(9)
C29_2 C 0.6407(2) 0.8944(2) 0.31636(10)
H20_2 H 0.623160 0.935638 0.305147
C30_2 C 0.7474(2) 0.8382(2) 0.31841(10)
H21_2 H 0.802132 0.841855 0.308468
H22_2 H 0.693374 0.995346 0.231409
H23_2 H 0.912419 0.993773 0.283975
P2_5 P 1.000000 1.000000 0.60536(4)
O11_5 O 1.000000 1.000000 0.65586(11)
O12_2 O 0.61939(14) 0.60619(14) 0.53237(7)
C58_2 C 0.91430(19) 0.88893(19) 0.58213(9)
C59_2 C 0.8234(2) 0.8477(2) 0.59830(11)
H49_2 H 0.808525 0.876176 0.621308
C60_2 C 0.7766(2) 0.7193(2) 0.54657(9)
C61_2 C 0.9359(2) 0.8430(2) 0.54929(9)
H50_2 H 0.996648 0.868958 0.538837
C62_2 C 0.7552(2) 0.7641(2) 0.58019(11)
H51_2 H 0.694509 0.737904 0.590655
C63_2 C 0.8681(2) 0.7587(2) 0.53192(10)
H52_2 H 0.883890 0.728219 0.510299
C64_2 C 0.7027(2) 0.6307(2) 0.52479(11)
O13_2 O 0.72974(19) 0.5881(2) 0.50026(13)
O18_2 O 0.42151(16) 0.53141(16) 0.54403(8)
H61_2 H 0.439699 0.590339 0.541849
H62_2 H 0.362189 0.496369 0.538619
N13_2 N 0.49265(17) 0.40442(17) 0.54704(8)
P1_3 P -0.000000 1.000000 0.39464(4)
O1_3 O -0.000000 1.000000 0.34414(11)
O7_2 O 0.01321(20) 0.61939(14) 0.46763(7)
C21_2 C 0.02538(27) 0.91430(19) 0.41787(9)
C23_2 C 0.0574(3) 0.7766(2) 0.45343(9)
C24_2 C 0.0930(3) 0.9359(2) 0.45071(9)
H17_2 H 0.127691 0.996648 0.461163
C26_2 C 0.1095(3) 0.8681(2) 0.46808(10)
H19_2 H 0.155672 0.883890 0.489701
C27_2 C 0.0721(3) 0.7027(2) 0.47521(11)
O8_2 O 0.14168(28) 0.72974(19) 0.49974(13)
N9_2 N 0.14478(24) 0.44611(17) 0.39760(8)
N10_2 N 0.08824(24) 0.49265(17) 0.45296(8)
C46_2 C 0.1554(3) 0.3874(2) 0.36528(9)
C47_2 C 0.0796(3) 0.3073(2) 0.35030(10)
H39_2 H 0.020855 0.289826 0.361519
C48_2 C 0.2425(3) 0.4140(2) 0.34825(10)
H40_2 H 0.293610 0.468798 0.358198
C49_2 C 0.0781(3) 0.4207(2) 0.43003(10)
H41_2 H 0.031361 0.360040 0.435257
C50_2 C 0.2007(3) 0.5414(2) 0.40054(11)
H42_2 H 0.251979 0.579085 0.382691
C51_2 C 0.1654(3) 0.5685(2) 0.43455(11)
H43_2 H 0.189486 0.629487 0.444265
N11_2 N 0.18856(24) 0.22055(17) 0.26906(8)
C52_2 C 0.1780(3) 0.2792(2) 0.30138(9)
C53_2 C 0.2538(3) 0.3593(2) 0.31636(10)
H44_2 H 0.312479 0.376840 0.305147
C54_2 C 0.0909(3) 0.2526(2) 0.31841(10)
H45_2 H 0.039724 0.197868 0.308468
C55_2 C 0.2553(3) 0.2459(2) 0.23663(10)
H46_2 H 0.301973 0.306626 0.231409
C56_2 C 0.1327(3) 0.1252(2) 0.26612(11)
H47_2 H 0.081355 0.087581 0.283975
C57_2 C 0.1680(3) 0.0981(2) 0.23211(11)
H48_2 H 0.143848 0.037179 0.222401
O20_2 O 0.10989(23) 0.57849(16) 0.54403(8)
H65_2 H 0.150639 0.560301 0.541849
H66_2 H 0.134179 0.637811 0.538619
P1_4 P 1.000000 0.000000 0.39464(4)
O1_4 O 1.000000 0.000000 0.34414(11)
C15_2 C 0.8477(2) 0.0242(3) 0.40170(11)
H12_2 H 0.876176 0.067650 0.378692
C18_2 C 0.7641(2) 0.0088(3) 0.41981(11)
H14_2 H 0.737904 0.043394 0.409345
O9_2 O 0.53141(16) 0.10989(23) 0.45597(8)
H25_2 H 0.590339 0.150639 0.458151
H26_2 H 0.496369 0.134179 0.461381
N14_2 N 0.59558(17) 0.08824(24) 0.54704(8)
P1_5 P 1.000000 1.000000 0.39464(4)
O1_5 O 1.000000 1.000000 0.34414(11)
O5_2 O 0.60619(14) 0.98679(20) 0.46763(7)
C14_2 C 0.88893(19) 0.97462(27) 0.41787(9)
C16_2 C 0.7193(2) 0.9426(3) 0.45343(9)
C17_2 C 0.8430(2) 0.9070(3) 0.45071(9)
H13_2 H 0.868958 0.872309 0.461163
C19_2 C 0.7587(2) 0.8905(3) 0.46808(10)
H15_2 H 0.728219 0.844328 0.489701
C20_2 C 0.6307(2) 0.9279(3) 0.47521(11)
O6_2 O 0.5881(2) 0.85832(28) 0.49974(13)
C22_2 C 0.9758(3) 0.8234(2) 0.40170(11)
H16_2 H 0.932350 0.808525 0.378692
C25_2 C 0.9912(3) 0.7552(2) 0.41981(11)
H18_2 H 0.956606 0.694509 0.409345
N5_2 N 0.30134(17) 0.85522(24) 0.39760(8)
N6_2 N 0.40442(17) 0.91176(24) 0.45296(8)
C34_2 C 0.2321(2) 0.8446(3) 0.36528(9)
C35_2 C 0.2278(2) 0.9204(3) 0.35030(10)
H27_2 H 0.268972 0.979145 0.361519
C36_2 C 0.1716(2) 0.7575(3) 0.34825(10)
H28_2 H 0.175189 0.706390 0.358198
C37_2 C 0.3427(2) 0.9219(3) 0.43003(10)
H29_2 H 0.328680 0.968639 0.435257
C38_2 C 0.3408(2) 0.7993(3) 0.40054(11)
H30_2 H 0.327107 0.748021 0.382691
C39_2 C 0.4032(2) 0.8346(3) 0.43455(11)
H31_2 H 0.440002 0.810514 0.444265
N7_2 N 0.03200(17) 0.81144(24) 0.26906(8)
C40_2 C 0.1013(2) 0.8220(3) 0.30138(9)
C41_2 C 0.1056(2) 0.7462(3) 0.31636(10)
H32_2 H 0.064362 0.687521 0.305147
C42_2 C 0.1618(2) 0.9091(3) 0.31841(10)
H33_2 H 0.158145 0.960276 0.308468
H34_2 H 0.004654 0.698027 0.231409
H35_2 H 0.006227 0.918645 0.283975
O10_2 O 0.89011(23) 0.42151(16) 0.45597(8)
H37_2 H 0.849361 0.439699 0.458151
H38_2 H 0.865821 0.362189 0.461381
O19_2 O 0.46859(16) 0.89011(23) 0.54403(8)
H63_2 H 0.409661 0.849361 0.541849
H64_2 H 0.503631 0.865821 0.538619
N15_2 N 0.91176(24) 0.50735(17) 0.54704(8)
C43_2 C 0.9907(2) 0.7447(3) 0.23663(10)
C44_2 C 0.9926(2) 0.8673(3) 0.26612(11)
C45_2 C 0.9302(2) 0.8320(3) 0.23211(11)
H36_2 H 0.893332 0.856152 0.222401
O14_3 O 0.06048(14) 0.34654(20) 0.86570(7)
C71_3 C 0.0360(2) 0.4054(3) 0.85812(11)
O15_3 O 0.0786(2) 0.47501(28) 0.83359(13)
N1_3 N 0.22055(17) 0.03200(17) 0.73094(8)
C2_3 C 0.2792(2) 0.1013(2) 0.69862(9)
C7_3 C 0.3593(2) 0.1056(2) 0.68364(10)
H6_3 H 0.376840 0.064362 0.694853
C10_3 C 0.2526(2) 0.1618(2) 0.68159(10)
H8_3 H 0.197868 0.158145 0.691532
H9_3 H 0.306626 0.004654 0.768591
H10_3 H 0.087581 0.006227 0.716025
N3_3 N 0.44611(17) 0.30134(17) 0.60240(8)
C28_3 C 0.3874(2) 0.2321(2) 0.63472(9)
C29_3 C 0.3073(2) 0.2278(2) 0.64970(10)
H20_3 H 0.289826 0.268972 0.638481
C30_3 C 0.4140(2) 0.1716(2) 0.65175(10)
H21_3 H 0.468798 0.175189 0.641802
C31_3 C 0.4207(2) 0.3427(2) 0.56997(10)
H22_3 H 0.360040 0.328680 0.564743
C32_3 C 0.5414(2) 0.3408(2) 0.59946(11)
H23_3 H 0.579085 0.327107 0.617309
C33_3 C 0.5685(2) 0.4032(2) 0.56545(11)
H24_3 H 0.629487 0.440002 0.555735
P2_6 P 0.666667 0.333333 0.93869(4)
O11_6 O 0.666667 0.333333 0.98919(11)
C58_3 C 0.58097(19) 0.22226(19) 0.91546(9)
C59_3 C 0.4901(2) 0.1810(2) 0.93163(11)
H49_3 H 0.475192 0.209509 0.954641
C60_3 C 0.4433(2) 0.0526(2) 0.87990(9)
C61_3 C 0.6026(2) 0.1763(2) 0.88262(9)
H50_3 H 0.663315 0.202291 0.872170
C62_3 C 0.4219(2) 0.0974(2) 0.91352(11)
H51_3 H 0.361176 0.071237 0.923988
C63_3 C 0.5348(2) 0.0920(2) 0.86525(10)
H52_3 H 0.550557 0.061552 0.843632
C65_3 C 0.77774(19) 0.35871(27) 0.91546(9)
C66_3 C 0.8190(2) 0.3091(3) 0.93163(11)
H53_3 H 0.790491 0.265683 0.954641
C67_3 C 0.9474(2) 0.3907(3) 0.87990(9)
C68_3 C 0.8237(2) 0.4263(3) 0.88262(9)
H54_3 H 0.797709 0.461024 0.872170
C69_3 C 0.9026(2) 0.3245(3) 0.91352(11)
H55_3 H 0.928763 0.289939 0.923988
C70_3 C 0.9080(2) 0.4428(3) 0.86525(10)
H56_3 H 0.938448 0.489005 0.843632
O16_3 O 0.65346(20) 0.71394(14) 0.86570(7)
C72_3 C 0.64129(27) 0.41903(19) 0.91546(9)
C73_3 C 0.6909(3) 0.5099(2) 0.93163(11)
H57_3 H 0.734317 0.524808 0.954641
C74_3 C 0.6093(3) 0.5567(2) 0.87990(9)
C75_3 C 0.5737(3) 0.3974(2) 0.88262(9)
H58_3 H 0.538976 0.336685 0.872170
C76_3 C 0.6755(3) 0.5781(2) 0.91352(11)
H59_3 H 0.710061 0.638824 0.923988
C77_3 C 0.5572(3) 0.4652(2) 0.86525(10)
H60_3 H 0.510995 0.449443 0.843632
C78_3 C 0.5946(3) 0.6306(2) 0.85812(11)
O17_3 O 0.52499(28) 0.60359(19) 0.83359(13)
O2_3 O 0.04727(14) 0.72715(14) 0.80097(7)
N2_3 N 0.17401(17) 0.92892(17) 0.78630(8)
O3_3 O 0.24515(16) 0.80193(16) 0.78931(8)
H2_3 H 0.226967 0.742995 0.791485
H3_3 H 0.304477 0.836965 0.794715
C11_3 C 0.2459(2) 0.9907(2) 0.76337(10)
C12_3 C 0.1252(2) 0.9926(2) 0.73388(11)
C13_3 C 0.0981(2) 0.9302(2) 0.76789(11)
H11_3 H 0.037179 0.893332 0.777599
O12_3 O 0.28606(14) 0.93952(14) 0.86570(7)
C64_3 C 0.3694(2) 0.9640(2) 0.85812(11)
O13_3 O 0.39641(19) 0.9214(2) 0.83359(13)
O18_3 O 0.08818(16) 0.86474(16) 0.87736(8)
H61_3 H 0.106366 0.923672 0.875182
H62_3 H 0.028856 0.829702 0.871952
P1_6 P 0.666666 0.333334 0.72798(4)
O1_6 O 0.666666 0.333334 0.67748(11)
C1_3 C 0.75236(19) 0.44441(19) 0.75121(9)
C3_3 C 0.8432(2) 0.4857(2) 0.73504(11)
H1_3 H 0.858141 0.457158 0.712026
C4_3 C 0.8900(2) 0.6141(2) 0.78677(9)
C5_3 C 0.7307(2) 0.4904(2) 0.78405(9)
H4_3 H 0.670018 0.464376 0.794497
C6_3 C 0.9114(2) 0.5693(2) 0.75315(11)
H5_3 H 0.972157 0.595430 0.742679
C8_3 C 0.7985(2) 0.5747(2) 0.80142(10)
H7_3 H 0.782776 0.605115 0.823035
C9_3 C 0.9639(2) 0.7027(2) 0.80855(11)
O4_3 O 0.93692(19) 0.7453(2) 0.83308(13)
O5_3 O 0.27285(14) 0.32013(20) 0.80097(7)
C14_3 C 0.55559(19) 0.30796(27) 0.75121(9)
C15_3 C 0.5143(2) 0.3576(3) 0.73504(11)
H12_3 H 0.542842 0.400984 0.712026
C16_3 C 0.3859(2) 0.2760(3) 0.78677(9)
C17_3 C 0.5096(2) 0.2404(3) 0.78405(9)
H13_3 H 0.535624 0.205643 0.794497
C18_3 C 0.4307(2) 0.3422(3) 0.75315(11)
H14_3 H 0.404570 0.376728 0.742679
C19_3 C 0.4253(2) 0.2239(3) 0.80142(10)
H15_3 H 0.394885 0.177662 0.823035
C20_3 C 0.2973(2) 0.2613(3) 0.80855(11)
O6_3 O 0.2547(2) 0.19166(28) 0.83308(13)
C21_3 C 0.69204(27) 0.24764(19) 0.75121(9)
C22_3 C 0.6424(3) 0.1568(2) 0.73504(11)
H16_3 H 0.599016 0.141859 0.712026
C23_3 C 0.7240(3) 0.1100(2) 0.78677(9)
C24_3 C 0.7596(3) 0.2693(2) 0.78405(9)
H17_3 H 0.794357 0.329982 0.794497
C25_3 C 0.6578(3) 0.0886(2) 0.75315(11)
H18_3 H 0.623272 0.027843 0.742679
C26_3 C 0.7761(3) 0.2015(2) 0.80142(10)
H19_3 H 0.822338 0.217224 0.823035
C27_3 C 0.7387(3) 0.0361(2) 0.80855(11)
O8_3 O 0.80834(28) 0.06308(19) 0.83308(13)
N6_3 N 0.07108(17) 0.24510(24) 0.78630(8)
O9_3 O 0.19807(16) 0.44323(23) 0.78931(8)
H25_3 H 0.257005 0.483973 0.791485
H26_3 H 0.163035 0.467513 0.794715
C37_3 C 0.0093(2) 0.2553(3) 0.76337(10)
C38_3 C 0.0074(2) 0.1327(3) 0.73388(11)
C39_3 C 0.0698(2) 0.1680(3) 0.76789(11)
H31_3 H 0.106668 0.143848 0.777599
O19_3 O 0.13526(16) 0.22344(23) 0.87736(8)
H63_3 H 0.076328 0.182694 0.875182
H64_3 H 0.170298 0.199154 0.871952
O7_3 O 0.67987(20) 0.95273(14) 0.80097(7)
N9_3 N 0.81144(24) 0.77945(17) 0.73094(8)
N10_3 N 0.75490(24) 0.82599(17) 0.78630(8)
C46_3 C 0.8220(3) 0.7208(2) 0.69862(9)
O10_3 O 0.55677(23) 0.75485(16) 0.78931(8)
H37_3 H 0.516027 0.773033 0.791485
H38_3 H 0.532487 0.695523 0.794715
C47_3 C 0.7462(3) 0.6407(2) 0.68364(10)
H39_3 H 0.687521 0.623160 0.694853
C48_3 C 0.9091(3) 0.7474(2) 0.68159(10)
H40_3 H 0.960276 0.802132 0.691532
C49_3 C 0.7447(3) 0.7541(2) 0.76337(10)
H41_3 H 0.698027 0.693374 0.768591
C50_3 C 0.8673(3) 0.8748(2) 0.73388(11)
H42_3 H 0.918645 0.912419 0.716025
C51_3 C 0.8320(3) 0.9019(2) 0.76789(11)
H43_3 H 0.856152 0.962821 0.777599
N11_3 N 0.85522(24) 0.55389(17) 0.60240(8)
C52_3 C 0.8446(3) 0.6126(2) 0.63472(9)
C53_3 C 0.9204(3) 0.6927(2) 0.64970(10)
H44_3 H 0.979145 0.710174 0.638481
C54_3 C 0.7575(3) 0.5860(2) 0.65175(10)
H45_3 H 0.706390 0.531202 0.641802
C55_3 C 0.9219(3) 0.5793(2) 0.56997(10)
H46_3 H 0.968639 0.639960 0.564743
C56_3 C 0.7993(3) 0.4586(2) 0.59946(11)
H47_3 H 0.748021 0.420915 0.617309
C57_3 C 0.8346(3) 0.4315(2) 0.56545(11)
H48_3 H 0.810514 0.370513 0.555735
O20_3 O 0.77656(23) 0.91182(16) 0.87736(8)
H65_3 H 0.817306 0.893634 0.875182
H66_3 H 0.800846 0.971144 0.871952
N5_3 N 0.96800(17) 0.18856(24) 0.73094(8)
C34_3 C 0.8987(2) 0.1780(3) 0.69862(9)
C35_3 C 0.8944(2) 0.2538(3) 0.68364(10)
H27_3 H 0.935638 0.312479 0.694853
C36_3 C 0.8382(2) 0.0909(3) 0.68159(10)
H28_3 H 0.841855 0.039724 0.691532
H29_3 H 0.995346 0.301973 0.768591
H30_3 H 0.993773 0.081355 0.716025
N7_3 N 0.69866(17) 0.14478(24) 0.60240(8)
C40_3 C 0.7679(2) 0.1554(3) 0.63472(9)
C41_3 C 0.7722(2) 0.0796(3) 0.64970(10)
H32_3 H 0.731028 0.020855 0.638481
C42_3 C 0.8284(2) 0.2425(3) 0.65175(10)
H33_3 H 0.824811 0.293610 0.641802
C43_3 C 0.6573(2) 0.0781(3) 0.56997(10)
H34_3 H 0.671320 0.031361 0.564743
C44_3 C 0.6592(2) 0.2007(3) 0.59946(11)
H35_3 H 0.672893 0.251979 0.617309
C45_3 C 0.5968(2) 0.1654(3) 0.56545(11)
H36_3 H 0.559998 0.189486 0.555735
loop_
_geom_bond_atom_site_label_1
_geom_bond_atom_site_label_2
_geom_bond_site_symmetry_1
_geom_bond_site_symmetry_2
Ni5 O16 1_555 1_555
C7 H6 1_555 1_555
P2 O11 1_555 1_555
C58 P2 1_555 1_555
C59 C58 1_555 1_555
H49 C59 1_555 1_555
C60 C62 1_555 1_555
C61 C58 1_555 1_555
H50 C61 1_555 1_555
C62 C59 1_555 1_555
H51 C62 1_555 1_555
C63 C60 1_555 1_555
H52 C63 1_555 1_555
O13 C64 1_555 1_555
O14 C71 1_555 1_555
C65 P2 1_555 1_555
C66 C65 1_555 1_555
H53 C66 1_555 1_555
C67 C69 1_555 1_555
C68 C65 1_555 1_555
H54 C68 1_555 1_555
C69 C66 1_555 1_555
H55 C69 1_555 1_555
C70 C67 1_555 1_555
H56 C70 1_555 1_555
C71 C67 1_555 1_555
O15 C71 1_555 1_555
C72 P2 1_555 1_555
C73 C72 1_555 1_555
H57 C73 1_555 1_555
C74 C76 1_555 1_555
C75 C72 1_555 1_555
H58 C75 1_555 1_555
C76 C73 1_555 1_555
H59 C76 1_555 1_555
C77 C74 1_555 1_555
H60 C77 1_555 1_555
C78 C74 1_555 1_555
O17 C78 1_555 1_555
Ni4 O14 1_555 1_555
C60 C64 1_555 1_555
C61 C63 1_555 1_555
C68 C70 1_555 1_555
C75 C77 1_555 1_555
N3 C28 1_555 1_555
N4 C31 1_555 1_555
H21 C30 1_555 1_555
C31 N3 1_555 1_555
H22 C31 1_555 1_555
C32 N3 1_555 1_555
H23 C32 1_555 1_555
C33 N4 1_555 1_555
H24 C33 1_555 1_555
Ni6 N4 1_555 1_555
C28 C30 1_555 1_555
C32 C33 1_555 1_555
Ni1 O2 1_555 1_555
O2 C9 1_555 1_555
N1 C2 1_555 1_555
N2 Ni1 1_555 1_555
O3 Ni1 1_555 1_555
H2 O3 1_555 1_555
H3 O3 1_555 1_555
C10 C2 1_555 1_555
H8 C10 1_555 1_555
C11 N1 1_555 1_555
H9 C11 1_555 1_555
C12 N1 1_555 1_555
H10 C12 1_555 1_555
O4 C9 1_555 1_555
C13 N2 1_555 1_555
H11 C13 1_555 1_555
O12 Ni1 1_555 1_555
O18 Ni1 1_555 1_555
H61 O18 1_555 1_555
H62 O18 1_555 1_555
N13 Ni1 1_555 1_555
N2 C11 1_555 1_555
C12 C13 1_555 1_555
H20 C29 1_555 1_555
P1 O1 1_555 1_555
C1 P1 1_555 1_555
C3 C1 1_555 1_555
H1 C3 1_555 1_555
C4 C6 1_555 1_555
C5 C1 1_555 1_555
H4 C5 1_555 1_555
C6 C3 1_555 1_555
H5 C6 1_555 1_555
C8 C4 1_555 1_555
H7 C8 1_555 1_555
C14 P1 1_555 1_555
C15 C14 1_555 1_555
H12 C15 1_555 1_555
C16 C18 1_555 1_555
C17 C14 1_555 1_555
H13 C17 1_555 1_555
C18 C15 1_555 1_555
H14 C18 1_555 1_555
C19 C16 1_555 1_555
H15 C19 1_555 1_555
O7 C27 1_555 1_555
C21 P1 1_555 1_555
C22 C21 1_555 1_555
H16 C22 1_555 1_555
C23 C25 1_555 1_555
C24 C21 1_555 1_555
H17 C24 1_555 1_555
C25 C22 1_555 1_555
H18 C25 1_555 1_555
C26 C23 1_555 1_555
H19 C26 1_555 1_555
C27 C23 1_555 1_555
O8 C27 1_555 1_555
Ni5 O7 1_555 1_555
N9 C46 1_555 1_555
N10 Ni5 1_555 1_555
O10 Ni5 1_555 1_555
H37 O10 1_555 1_555
H38 O10 1_555 1_555
C48 C46 1_555 1_555
H40 C48 1_555 1_555
C49 N9 1_555 1_555
H41 C49 1_555 1_555
C50 N9 1_555 1_555
H42 C50 1_555 1_555
C51 N10 1_555 1_555
H43 C51 1_555 1_555
O20 Ni5 1_555 1_555
H65 O20 1_555 1_555
H66 O20 1_555 1_555
N15 Ni5 1_555 1_555
C5 C8 1_555 1_555
C17 C19 1_555 1_555
C24 C26 1_555 1_555
N10 C49 1_555 1_555
C50 C51 1_555 1_555
H44 C53 1_555 1_555
C47 H39 1_555 1_555
N11 C52 1_555 1_555
N12 C55 1_555 1_555
H45 C54 1_555 1_555
C55 N11 1_555 1_555
H46 C55 1_555 1_555
C56 N11 1_555 1_555
H47 C56 1_555 1_555
C57 N12 1_555 1_555
H48 C57 1_555 1_555
Ni8 N12 1_555 1_555
C52 C54 1_555 1_555
C56 C57 1_555 1_555
O5 C20 1_555 1_555
O6 C20 1_555 1_555
Ni4 O5 1_555 1_555
N5 C34 1_555 1_555
N6 Ni4 1_555 1_555
C34 C35 1_555 1_555
O9 Ni4 1_555 1_555
H25 O9 1_555 1_555
H26 O9 1_555 1_555
C35 H27 1_555 1_555
C36 C34 1_555 1_555
H28 C36 1_555 1_555
C37 N5 1_555 1_555
H29 C37 1_555 1_555
C38 N5 1_555 1_555
H30 C38 1_555 1_555
C39 N6 1_555 1_555
H31 C39 1_555 1_555
O19 Ni4 1_555 1_555
H63 O19 1_555 1_555
H64 O19 1_555 1_555
N14 Ni4 1_555 1_555
N6 C37 1_555 1_555
C38 C39 1_555 1_555
N7 C40 1_555 1_555
N8 C43 1_555 1_555
C40 C41 1_555 1_555
H32 C41 1_555 1_555
H33 C42 1_555 1_555
C43 N7 1_555 1_555
H34 C43 1_555 1_555
C44 N7 1_555 1_555
H35 C44 1_555 1_555
C45 N8 1_555 1_555
H36 C45 1_555 1_555
Ni7 N8 1_555 1_555
C40 C42 1_555 1_555
C44 C45 1_555 1_555
P2_2 O11_2 1_555 1_555
O14_2 C71_2 1_555 1_555
C65_2 P2_2 1_555 1_555
C68_2 C65_2 1_555 1_555
H54_2 C68_2 1_555 1_555
C70_2 C67_2 1_555 1_555
H56_2 C70_2 1_555 1_555
C71_2 C67_2 1_555 1_555
O15_2 C71_2 1_555 1_555
H57_2 C73_2 1_555 1_555
C76_2 C73_2 1_555 1_555
H59_2 C76_2 1_555 1_555
Ni4_2 O14_2 1_555 1_555
C68_2 C70_2 1_555 1_555
P2_3 O11_3 1_555 1_555
H53_2 C66_2 1_555 1_555
C69_2 C66_2 1_555 1_555
H55_2 C69_2 1_555 1_555
N13 C31_2 1_555 1_555
C33_2 N13 1_555 1_555
H24_2 C33_2 1_555 1_555
P2_4 O11_4 1_555 1_555
O16_2 C78_2 1_555 1_555
C72_2 P2_4 1_555 1_555
C75_2 C72_2 1_555 1_555
H58_2 C75_2 1_555 1_555
C77_2 C74_2 1_555 1_555
H60_2 C77_2 1_555 1_555
C78_2 C74_2 1_555 1_555
O17_2 C78_2 1_555 1_555
Ni5_3 O16_2 1_555 1_555
C32_2 C33_2 1_555 1_555
C75_2 C77_2 1_555 1_555
Ni1_2 O2_2 1_555 1_555
P1_2 O1_2 1_555 1_555
O2_2 C9_2 1_555 1_555
C1_2 P1_2 1_555 1_555
N1_2 C2_2 1_555 1_555
N2_2 Ni1_2 1_555 1_555
C2_2 C7_2 1_555 1_555
C3_2 C1_2 1_555 1_555
H1_2 C3_2 1_555 1_555
C4_2 C6_2 1_555 1_555
O3_2 Ni1_2 1_555 1_555
H2_2 O3_2 1_555 1_555
H3_2 O3_2 1_555 1_555
C5_2 C1_2 1_555 1_555
H4_2 C5_2 1_555 1_555
C6_2 C3_2 1_555 1_555
H5_2 C6_2 1_555 1_555
C7_2 H6_2 1_555 1_555
C8_2 C4_2 1_555 1_555
H7_2 C8_2 1_555 1_555
C9_2 C4_2 1_555 1_555
C10_2 C2_2 1_555 1_555
H8_2 C10_2 1_555 1_555
C11_2 N1_2 1_555 1_555
H9_2 C11_2 1_555 1_555
C12_2 N1_2 1_555 1_555
H10_2 C12_2 1_555 1_555
O4_2 C9_2 1_555 1_555
C13_2 N2_2 1_555 1_555
H11_2 C13_2 1_555 1_555
N3_2 C28_2 1_555 1_555
C28_2 C29_2 1_555 1_555
C29_2 C10_2 1_555 1_555
H20_2 C29_2 1_555 1_555
C30_2 C7_2 1_555 1_555
H21_2 C30_2 1_555 1_555
P2_5 O11_5 1_555 1_555
O12_2 Ni1_2 1_555 1_555
C58_2 P2_5 1_555 1_555
C59_2 C58_2 1_555 1_555
H49_2 C59_2 1_555 1_555
C60_2 C62_2 1_555 1_555
C61_2 C58_2 1_555 1_555
H50_2 C61_2 1_555 1_555
C62_2 C59_2 1_555 1_555
H51_2 C62_2 1_555 1_555
C63_2 C60_2 1_555 1_555
H52_2 C63_2 1_555 1_555
C64_2 O12_2 1_555 1_555
O13_2 C64_2 1_555 1_555
O18_2 Ni1_2 1_555 1_555
H61_2 O18_2 1_555 1_555
H62_2 O18_2 1_555 1_555
N13_2 Ni1_2 1_555 1_555
N2_2 C11_2 1_555 1_555
C5_2 C8_2 1_555 1_555
C12_2 C13_2 1_555 1_555
C28_2 C30_2 1_555 1_555
C60_2 C64_2 1_555 1_555
C61_2 C63_2 1_555 1_555
P1_3 O1_3 1_555 1_555
O7_2 C27_2 1_555 1_555
C21_2 P1_3 1_555 1_555
C24_2 C21_2 1_555 1_555
H17_2 C24_2 1_555 1_555
C26_2 C23_2 1_555 1_555
H19_2 C26_2 1_555 1_555
C27_2 C23_2 1_555 1_555
O8_2 C27_2 1_555 1_555
Ni5_2 O7_2 1_555 1_555
N9_2 C46_2 1_555 1_555
N10_2 Ni5_2 1_555 1_555
C46_2 C47_2 1_555 1_555
C47_2 H39_2 1_555 1_555
C48_2 C46_2 1_555 1_555
H40_2 C48_2 1_555 1_555
C49_2 N9_2 1_555 1_555
H41_2 C49_2 1_555 1_555
C50_2 N9_2 1_555 1_555
H42_2 C50_2 1_555 1_555
C51_2 N10_2 1_555 1_555
H43_2 C51_2 1_555 1_555
N11_2 C52_2 1_555 1_555
N15 C55_2 1_555 1_555
C52_2 C53_2 1_555 1_555
C53_2 C48_2 1_555 1_555
H44_2 C53_2 1_555 1_555
C54_2 C47_2 1_555 1_555
H45_2 C54_2 1_555 1_555
C55_2 N11_2 1_555 1_555
H46_2 C55_2 1_555 1_555
C56_2 N11_2 1_555 1_555
H47_2 C56_2 1_555 1_555
C57_2 N15 1_555 1_555
H48_2 C57_2 1_555 1_555
O20_2 Ni5_2 1_555 1_555
H65_2 O20_2 1_555 1_555
H66_2 O20_2 1_555 1_555
C24_2 C26_2 1_555 1_555
N10_2 C49_2 1_555 1_555
C50_2 C51_2 1_555 1_555
C52_2 C54_2 1_555 1_555
C56_2 C57_2 1_555 1_555
P1_4 O1_4 1_555 1_555
H12_2 C15_2 1_555 1_555
C18_2 C15_2 1_555 1_555
H14_2 C18_2 1_555 1_555
O9_2 Ni4_2 1_555 1_555
H25_2 O9_2 1_555 1_555
H26_2 O9_2 1_555 1_555
N14_2 Ni4_2 1_555 1_555
P1_5 O1_5 1_555 1_555
O5_2 C20_2 1_555 1_555
C14_2 P1_5 1_555 1_555
C17_2 C14_2 1_555 1_555
H13_2 C17_2 1_555 1_555
C19_2 C16_2 1_555 1_555
H15_2 C19_2 1_555 1_555
C20_2 C16_2 1_555 1_555
O6_2 C20_2 1_555 1_555
H16_2 C22_2 1_555 1_555
C25_2 C22_2 1_555 1_555
H18_2 C25_2 1_555 1_555
Ni4_3 O5_2 1_555 1_555
N5_2 C34_2 1_555 1_555
N6_2 Ni4_3 1_555 1_555
C34_2 C35_2 1_555 1_555
C35_2 H27_2 1_555 1_555
C36_2 C34_2 1_555 1_555
H28_2 C36_2 1_555 1_555
C37_2 N5_2 1_555 1_555
H29_2 C37_2 1_555 1_555
C38_2 N5_2 1_555 1_555
H30_2 C38_2 1_555 1_555
C39_2 N6_2 1_555 1_555
H31_2 C39_2 1_555 1_555
N7_2 C40_2 1_555 1_555
C40_2 C41_2 1_555 1_555
C41_2 C36_2 1_555 1_555
H32_2 C41_2 1_555 1_555
C42_2 C35_2 1_555 1_555
H33_2 C42_2 1_555 1_555
O10_2 Ni5_3 1_555 1_555
H37_2 O10_2 1_555 1_555
H38_2 O10_2 1_555 1_555
O19_2 Ni4_3 1_555 1_555
H63_2 O19_2 1_555 1_555
H64_2 O19_2 1_555 1_555
N15_2 Ni5_3 1_555 1_555
C17_2 C19_2 1_555 1_555
N6_2 C37_2 1_555 1_555
C38_2 C39_2 1_555 1_555
C40_2 C42_2 1_555 1_555
N14 C43_2 1_555 1_555
C45_2 N14 1_555 1_555
H36_2 C45_2 1_555 1_555
C44_2 C45_2 1_555 1_555
O14_3 C71_3 1_555 1_555
O15_3 C71_3 1_555 1_555
Ni7 O14_3 1_555 1_555
N1_3 C2_3 1_555 1_555
C2_3 C7_3 1_555 1_555
C7_3 H6_3 1_555 1_555
C10_3 C2_3 1_555 1_555
H8_3 C10_3 1_555 1_555
N3_3 C28_3 1_555 1_555
N13_2 C31_3 1_555 1_555
C28_3 C29_3 1_555 1_555
C29_3 C10_3 1_555 1_555
H20_3 C29_3 1_555 1_555
C30_3 C7_3 1_555 1_555
H21_3 C30_3 1_555 1_555
C31_3 N3_3 1_555 1_555
H22_3 C31_3 1_555 1_555
C32_3 N3_3 1_555 1_555
H23_3 C32_3 1_555 1_555
C33_3 N13_2 1_555 1_555
H24_3 C33_3 1_555 1_555
P2_6 O11_6 1_555 1_555
C58_3 P2_6 1_555 1_555
C59_3 C58_3 1_555 1_555
H49_3 C59_3 1_555 1_555
C60_3 C62_3 1_555 1_555
C61_3 C58_3 1_555 1_555
H50_3 C61_3 1_555 1_555
C62_3 C59_3 1_555 1_555
H51_3 C62_3 1_555 1_555
C63_3 C60_3 1_555 1_555
H52_3 C63_3 1_555 1_555
C65_3 P2_6 1_555 1_555
C66_3 C65_3 1_555 1_555
H53_3 C66_3 1_555 1_555
C67_3 C69_3 1_555 1_555
C68_3 C65_3 1_555 1_555
H54_3 C68_3 1_555 1_555
C69_3 C66_3 1_555 1_555
H55_3 C69_3 1_555 1_555
C70_3 C67_3 1_555 1_555
H56_3 C70_3 1_555 1_555
O16_3 C78_3 1_555 1_555
C72_3 P2_6 1_555 1_555
C73_3 C72_3 1_555 1_555
H57_3 C73_3 1_555 1_555
C74_3 C76_3 1_555 1_555
C75_3 C72_3 1_555 1_555
H58_3 C75_3 1_555 1_555
C76_3 C73_3 1_555 1_555
H59_3 C76_3 1_555 1_555
C77_3 C74_3 1_555 1_555
H60_3 C77_3 1_555 1_555
C78_3 C74_3 1_555 1_555
O17_3 C78_3 1_555 1_555
Ni8 O16_3 1_555 1_555
C28_3 C30_3 1_555 1_555
C32_3 C33_3 1_555 1_555
C61_3 C63_3 1_555 1_555
C68_3 C70_3 1_555 1_555
C75_3 C77_3 1_555 1_555
Ni6 O2_3 1_555 1_555
N2_3 Ni6 1_555 1_555
O3_3 Ni6 1_555 1_555
H2_3 O3_3 1_555 1_555
H3_3 O3_3 1_555 1_555
C13_3 N2_3 1_555 1_555
H11_3 C13_3 1_555 1_555
O12_3 Ni6 1_555 1_555
C64_3 O12_3 1_555 1_555
O13_3 C64_3 1_555 1_555
O18_3 Ni6 1_555 1_555
H61_3 O18_3 1_555 1_555
H62_3 O18_3 1_555 1_555
N2_3 C11_3 1_555 1_555
C12_3 C13_3 1_555 1_555
P1_6 O1_6 1_555 1_555
C1_3 P1_6 1_555 1_555
C3_3 C1_3 1_555 1_555
H1_3 C3_3 1_555 1_555
C4_3 C6_3 1_555 1_555
C5_3 C1_3 1_555 1_555
H4_3 C5_3 1_555 1_555
C6_3 C3_3 1_555 1_555
H5_3 C6_3 1_555 1_555
C8_3 C4_3 1_555 1_555
H7_3 C8_3 1_555 1_555
C9_3 C4_3 1_555 1_555
O4_3 C9_3 1_555 1_555
O5_3 C20_3 1_555 1_555
C14_3 P1_6 1_555 1_555
C15_3 C14_3 1_555 1_555
H12_3 C15_3 1_555 1_555
C16_3 C18_3 1_555 1_555
C17_3 C14_3 1_555 1_555
H13_3 C17_3 1_555 1_555
C18_3 C15_3 1_555 1_555
H14_3 C18_3 1_555 1_555
C19_3 C16_3 1_555 1_555
H15_3 C19_3 1_555 1_555
C20_3 C16_3 1_555 1_555
O6_3 C20_3 1_555 1_555
C21_3 P1_6 1_555 1_555
C22_3 C21_3 1_555 1_555
H16_3 C22_3 1_555 1_555
C23_3 C25_3 1_555 1_555
C24_3 C21_3 1_555 1_555
H17_3 C24_3 1_555 1_555
C25_3 C22_3 1_555 1_555
H18_3 C25_3 1_555 1_555
C26_3 C23_3 1_555 1_555
H19_3 C26_3 1_555 1_555
C27_3 C23_3 1_555 1_555
O8_3 C27_3 1_555 1_555
Ni7 O5_3 1_555 1_555
N6_3 Ni7 1_555 1_555
O9_3 Ni7 1_555 1_555
H25_3 O9_3 1_555 1_555
H26_3 O9_3 1_555 1_555
C39_3 N6_3 1_555 1_555
H31_3 C39_3 1_555 1_555
O19_3 Ni7 1_555 1_555
H63_3 O19_3 1_555 1_555
H64_3 O19_3 1_555 1_555
C5_3 C8_3 1_555 1_555
C17_3 C19_3 1_555 1_555
C24_3 C26_3 1_555 1_555
N6_3 C37_3 1_555 1_555
C38_3 C39_3 1_555 1_555
Ni8 O7_3 1_555 1_555
N9_3 C46_3 1_555 1_555
N10_3 Ni8 1_555 1_555
C46_3 C47_3 1_555 1_555
O10_3 Ni8 1_555 1_555
H37_3 O10_3 1_555 1_555
H38_3 O10_3 1_555 1_555
C47_3 H39_3 1_555 1_555
C48_3 C46_3 1_555 1_555
H40_3 C48_3 1_555 1_555
C49_3 N9_3 1_555 1_555
H41_3 C49_3 1_555 1_555
C50_3 N9_3 1_555 1_555
H42_3 C50_3 1_555 1_555
C51_3 N10_3 1_555 1_555
H43_3 C51_3 1_555 1_555
N11_3 C52_3 1_555 1_555
N15_2 C55_3 1_555 1_555
C52_3 C53_3 1_555 1_555
C53_3 C48_3 1_555 1_555
H44_3 C53_3 1_555 1_555
C54_3 C47_3 1_555 1_555
H45_3 C54_3 1_555 1_555
C55_3 N11_3 1_555 1_555
H46_3 C55_3 1_555 1_555
C56_3 N11_3 1_555 1_555
H47_3 C56_3 1_555 1_555
C57_3 N15_2 1_555 1_555
H48_3 C57_3 1_555 1_555
O20_3 Ni8 1_555 1_555
H65_3 O20_3 1_555 1_555
H66_3 O20_3 1_555 1_555
N10_3 C49_3 1_555 1_555
C50_3 C51_3 1_555 1_555
C52_3 C54_3 1_555 1_555
C56_3 C57_3 1_555 1_555
N5_3 C34_3 1_555 1_555
C34_3 C35_3 1_555 1_555
C35_3 H27_3 1_555 1_555
C36_3 C34_3 1_555 1_555
H28_3 C36_3 1_555 1_555
N7_3 C40_3 1_555 1_555
N14_2 C43_3 1_555 1_555
C40_3 C41_3 1_555 1_555
C41_3 C36_3 1_555 1_555
H32_3 C41_3 1_555 1_555
C42_3 C35_3 1_555 1_555
H33_3 C42_3 1_555 1_555
C43_3 N7_3 1_555 1_555
H34_3 C43_3 1_555 1_555
C44_3 N7_3 1_555 1_555
H35_3 C44_3 1_555 1_555
C45_3 N14_2 1_555 1_555
H36_3 C45_3 1_555 1_555
C40_3 C42_3 1_555 1_555
C44_3 C45_3 1_555 1_555

#END
