
###############################################################################
#
# This file contains modified crystal structure data generated from the
# MOF subset of the Cambridge Structural Database (CSD) v543 
# hosted by the Cambridge Crystallographic Data Centre (CCDC).
#
# This work is licensed under the Creative Commons
# Attribution-NonCommercial-ShareAlike 4.0 International License.
# To view a copy of this license, visit
# http://creativecommons.org/licenses/by-nc-sa/4.0/
# or send a letter to
# Creative Commons, PO Box 1866, Mountain View, CA 94042, USA.
#
# CIF created using the CSD Python API on 29 September 2022
# The structure has been converted into the P1 space group
# The structure has a 3D framework
# The original CSD entry SEYFEI is in the orthorhombic crystal system
# The original CSD entry SEYFEI is in a Sohncke space group
# The framework has been calculated to contain at least 10.0% void space
# The void calculation uses a probe of radius 1.32A, grid spacing 0.4
# H atom positions have been added when not included in the experimental data
#
###############################################################################

data_SEYFEI
_chemical_formula_moiety         '(C20 H44 Lu4 N4 O35 P4)n'
_symmetry_cell_setting           triclinic
_symmetry_space_group_name_H-M   'P 1'
_symmetry_Int_Tables_number      1
_space_group_name_Hall           'P 1'
loop_
_symmetry_equiv_pos_site_id
_symmetry_equiv_pos_as_xyz
1 x,y,z
_cell_length_a                   8.94660(10)
_cell_length_b                   8.9062(2)
_cell_length_c                   15.5353(3)
_cell_angle_alpha                90
_cell_angle_beta                 90
_cell_angle_gamma                90
_cell_volume                     1237.86
loop_
_atom_site_label
_atom_site_type_symbol
_atom_site_fract_x
_atom_site_fract_y
_atom_site_fract_z
Lu3 Lu 0.03214(3) 0.11178(2) 0.895087(14)
O8 O 0.0568(7) 0.4136(5) 0.5211(4)
O9 O 0.2318(4) 0.6521(5) 0.6113(3)
O10 O 0.0309(6) 0.7086(5) 0.4719(3)
O11 O 0.0493(5) 0.5390(5) 0.7334(3)
H9 H 0.148334 0.445884 0.490046
H10 H 0.274431 0.594358 0.660158
H11 H 0.278405 0.617981 0.556686
O5 O 0.7503(6) 0.0174(5) 0.6526(3)
H7 H 0.7296 0.0971 0.6762
O6 O 0.9507(5) 0.0390(5) 0.7666(3)
Lu1 Lu 0.96786(3) 0.61178(2) 0.604913(14)
P1 P 0.87317(18) 0.93331(17) 0.70610(10)
N1 N 0.7436(5) 0.6598(5) 0.7107(3)
C1 C 0.7849(7) 0.7858(7) 0.7681(4)
H1 H 0.8530 0.7505 0.8123
H2 H 0.6961 0.8247 0.7962
C2 C 0.6072(7) 0.6935(8) 0.6613(4)
H3 H 0.5578 0.7792 0.6873
H4 H 0.5398 0.6085 0.6656
C3 C 0.6342(6) 0.7267(7) 0.5680(4)
C4 C 0.7205(7) 0.5187(7) 0.7589(4)
H5 H 0.6208 0.5175 0.7836
H6 H 0.7922 0.5121 0.8056
C5 C 0.7397(6) 0.3852(7) 0.6985(4)
O1 O 0.7568(5) 0.6848(5) 0.5344(3)
O2 O 0.5309(6) 0.7914(5) 0.5281(3)
O3 O 0.6847(5) 0.2619(5) 0.7221(3)
O4 O 0.8125(5) 0.4040(5) 0.6293(3)
O7 O 0.9752(5) 0.8534(4) 0.6444(2)
Lu2 Lu 0.46786(3) 0.88822(2) 0.395087(14)
H8 H 0.979099 0.383725 0.478791
Lu1_2 Lu 0.53214(3) 0.38822(2) 0.104913(14)
P1_2 P 0.62683(18) 0.06669(17) 0.20610(10)
N1_2 N 0.7564(5) 0.3402(5) 0.2107(3)
C1_2 C 0.7151(7) 0.2142(7) 0.2681(4)
H1_2 H 0.6470 0.2495 0.3123
H2_2 H 0.8039 0.1753 0.2962
C2_2 C 0.8928(7) 0.3065(8) 0.1613(4)
H3_2 H 0.9422 0.2208 0.1873
H4_2 H 0.9602 0.3915 0.1656
C3_2 C 0.8658(6) 0.2733(7) 0.0680(4)
C4_2 C 0.7795(7) 0.4813(7) 0.2589(4)
H5_2 H 0.8792 0.4825 0.2836
H6_2 H 0.7078 0.4879 0.3056
C5_2 C 0.7603(6) 0.6148(7) 0.1985(4)
O1_2 O 0.7432(5) 0.3152(5) 0.0344(3)
O2_2 O 0.9691(6) 0.2086(5) 0.0281(3)
O3_2 O 0.8153(5) 0.7381(5) 0.2221(3)
O4_2 O 0.6875(5) 0.5960(5) 0.1293(3)
O7_2 O 0.5248(5) 0.1466(4) 0.1444(2)
O8_2 O 0.4432(7) 0.5864(5) 0.0211(4)
O9_2 O 0.2682(4) 0.3479(5) 0.1113(3)
O11_2 O 0.4507(5) 0.4610(5) 0.2334(3)
H10_2 H 0.225569 0.405642 0.160158
H11_2 H 0.221595 0.382019 0.0566861
O10_2 O 0.4691(6) 0.2914(5) 0.9719(3)
H8_2 H 0.520901 0.616275 0.978791
H9_2 H 0.351666 0.554116 0.990046
O5_2 O 0.7497(6) 0.9826(5) 0.1526(3)
H7_2 H 0.7704 0.9029 0.1762
O6_2 O 0.5493(5) 0.9610(5) 0.2666(3)
P1_3 P 0.12683(18) 0.43331(17) 0.79390(10)
N1_3 N 0.2564(5) 0.1598(5) 0.7893(3)
C1_3 C 0.2151(7) 0.2858(7) 0.7319(4)
H1_3 H 0.1470 0.2505 0.6877
H2_3 H 0.3039 0.3247 0.7038
C2_3 C 0.3928(7) 0.1935(8) 0.8387(4)
H3_3 H 0.4422 0.2792 0.8127
H4_3 H 0.4602 0.1085 0.8344
C3_3 C 0.3658(6) 0.2267(7) 0.9320(4)
C4_3 C 0.2795(7) 0.0187(7) 0.7411(4)
H5_3 H 0.3792 0.0175 0.7164
H6_3 H 0.2078 0.0121 0.6944
O1_3 O 0.2432(5) 0.1848(5) 0.9656(3)
O5_3 O 0.2497(6) 0.5174(5) 0.8474(3)
H7_3 H 0.2704 0.5971 0.8238
O7_3 O 0.0248(5) 0.3534(4) 0.8556(2)
O9_3 O 0.7682(4) 0.1521(5) 0.8887(3)
H10_3 H 0.725569 0.0943576 0.839842
H11_3 H 0.721595 0.117981 0.943314
P1_4 P 0.37317(18) 0.56669(17) 0.29390(10)
N1_4 N 0.2436(5) 0.8402(5) 0.2893(3)
C1_4 C 0.2849(7) 0.7142(7) 0.2319(4)
H1_4 H 0.3530 0.7495 0.1877
H2_4 H 0.1961 0.6753 0.2038
C2_4 C 0.1072(7) 0.8065(8) 0.3387(4)
H3_4 H 0.0578 0.7208 0.3127
H4_4 H 0.0398 0.8915 0.3344
C3_4 C 0.1342(6) 0.7733(7) 0.4320(4)
C4_4 C 0.2205(7) 0.9813(7) 0.2411(4)
H5_4 H 0.1208 0.9825 0.2164
H6_4 H 0.2922 0.9879 0.1944
O1_4 O 0.2568(5) 0.8152(5) 0.4656(3)
O5_4 O 0.2503(6) 0.4826(5) 0.3474(3)
H7_4 H 0.2296 0.4029 0.3238
O7_4 O 0.4752(5) 0.6466(4) 0.3556(2)
O9_4 O 0.7318(4) 0.8479(5) 0.3887(3)
H10_4 H 0.774431 0.905642 0.339842
H11_4 H 0.778405 0.882019 0.443314
H8_3 H 0.0209006 0.883725 0.0212086
C5_3 C 0.2603(6) 0.8852(7) 0.8015(4)
O3_3 O 0.3153(5) 0.7619(5) 0.7779(3)
O4_3 O 0.1875(5) 0.9040(5) 0.8707(3)
H9_3 H 0.851666 0.945884 0.00995439
O8_3 O 0.9432(7) 0.9136(5) 0.9789(4)
C5_4 C 0.2397(6) 0.1148(7) 0.3015(4)
O3_4 O 0.1847(5) 0.2381(5) 0.2779(3)
O4_4 O 0.3125(5) 0.0960(5) 0.3707(3)
O8_4 O 0.5568(7) 0.0864(5) 0.4789(4)
H8_4 H 0.479099 0.116275 0.521209
H9_4 H 0.648334 0.0541159 0.509954
loop_
_geom_bond_atom_site_label_1
_geom_bond_atom_site_label_2
_geom_bond_site_symmetry_1
_geom_bond_site_symmetry_2
O8 H9 1_555 1_555
O9 H10 1_555 1_555
O9 H11 1_555 1_555
H7 O5 1_555 1_555
Lu1 N1 1_555 1_555
P1 C1 1_555 1_555
N1 C1 1_555 1_555
C1 H1 1_555 1_555
H2 C1 1_555 1_555
C2 N1 1_555 1_555
H3 C2 1_555 1_555
H4 C2 1_555 1_555
C3 C2 1_555 1_555
C4 N1 1_555 1_555
H5 C4 1_555 1_555
H6 C4 1_555 1_555
C5 C4 1_555 1_555
O1 Lu1 1_555 1_555
O2 C3 1_555 1_555
O3 C5 1_555 1_555
O4 Lu1 1_555 1_555
O7 Lu1 1_555 1_555
Lu2 O2 1_555 1_555
P1 O7 1_555 1_555
C3 O1 1_555 1_555
C5 O4 1_555 1_555
Lu1_2 N1_2 1_555 1_555
P1_2 C1_2 1_555 1_555
N1_2 C1_2 1_555 1_555
C1_2 H1_2 1_555 1_555
H2_2 C1_2 1_555 1_555
C2_2 N1_2 1_555 1_555
H3_2 C2_2 1_555 1_555
H4_2 C2_2 1_555 1_555
C3_2 C2_2 1_555 1_555
C4_2 N1_2 1_555 1_555
H5_2 C4_2 1_555 1_555
H6_2 C4_2 1_555 1_555
C5_2 C4_2 1_555 1_555
O1_2 Lu1_2 1_555 1_555
O2_2 C3_2 1_555 1_555
O3_2 C5_2 1_555 1_555
O4_2 Lu1_2 1_555 1_555
O7_2 Lu1_2 1_555 1_555
O8_2 Lu1_2 1_555 1_555
O9_2 Lu1_2 1_555 1_555
O11_2 Lu1_2 1_555 1_555
P1_2 O7_2 1_555 1_555
C3_2 O1_2 1_555 1_555
C5_2 O4_2 1_555 1_555
O9_2 H10_2 1_555 1_555
O9_2 H11_2 1_555 1_555
H7_2 O5_2 1_555 1_555
Lu2 O6_2 1_555 1_555
Lu3 N1_3 1_555 1_555
P1_3 C1_3 1_555 1_555
N1_3 C1_3 1_555 1_555
C1_3 H1_3 1_555 1_555
H2_3 C1_3 1_555 1_555
C2_3 N1_3 1_555 1_555
H3_3 C2_3 1_555 1_555
H4_3 C2_3 1_555 1_555
C3_3 C2_3 1_555 1_555
C4_3 N1_3 1_555 1_555
H5_3 C4_3 1_555 1_555
H6_3 C4_3 1_555 1_555
O1_3 Lu3 1_555 1_555
O10_2 C3_3 1_555 1_555
O5_3 P1_3 1_555 1_555
H7_3 O5_3 1_555 1_555
O11 P1_3 1_555 1_555
O7_3 Lu3 1_555 1_555
P1_3 O7_3 1_555 1_555
C3_3 O1_3 1_555 1_555
O9_3 H10_3 1_555 1_555
O9_3 H11_3 1_555 1_555
Lu2 N1_4 1_555 1_555
P1_4 C1_4 1_555 1_555
N1_4 C1_4 1_555 1_555
C1_4 H1_4 1_555 1_555
H2_4 C1_4 1_555 1_555
C2_4 N1_4 1_555 1_555
H3_4 C2_4 1_555 1_555
H4_4 C2_4 1_555 1_555
C3_4 C2_4 1_555 1_555
C4_4 N1_4 1_555 1_555
H5_4 C4_4 1_555 1_555
H6_4 C4_4 1_555 1_555
O1_4 Lu2 1_555 1_555
O10 C3_4 1_555 1_555
O5_4 P1_4 1_555 1_555
H7_4 O5_4 1_555 1_555
O11_2 P1_4 1_555 1_555
O7_4 Lu2 1_555 1_555
O9_4 Lu2 1_555 1_555
P1_4 O7_4 1_555 1_555
C3_4 O1_4 1_555 1_555
O9_4 H10_4 1_555 1_555
O9_4 H11_4 1_555 1_555
O3_3 C5_3 1_555 1_555
C5_3 O4_3 1_555 1_555
O3_4 C5_4 1_555 1_555
C5_4 O4_4 1_555 1_555
O8_4 H8_4 1_555 1_555
O8_4 H9_4 1_555 1_555

#END
