
###############################################################################
#
# This file contains modified crystal structure data generated from the
# MOF subset of the Cambridge Structural Database (CSD) v543 
# hosted by the Cambridge Crystallographic Data Centre (CCDC).
#
# This work is licensed under the Creative Commons
# Attribution-NonCommercial-ShareAlike 4.0 International License.
# To view a copy of this license, visit
# http://creativecommons.org/licenses/by-nc-sa/4.0/
# or send a letter to
# Creative Commons, PO Box 1866, Mountain View, CA 94042, USA.
#
# CIF created using the CSD Python API on 29 September 2022
# The structure has been converted into the P1 space group
# The structure has a 3D framework
# The original CSD entry SEYFAE is in the orthorhombic crystal system
# The original CSD entry SEYFAE is in a Sohncke space group
# The framework has been calculated to contain at least 10.0% void space
# The void calculation uses a probe of radius 1.32A, grid spacing 0.4
# H atom positions have been added when not included in the experimental data
#
###############################################################################

data_SEYFAE
_chemical_formula_moiety         '(C20 H44 Er4 N4 O35 P4)n'
_symmetry_cell_setting           triclinic
_symmetry_space_group_name_H-M   'P 1'
_symmetry_Int_Tables_number      1
_space_group_name_Hall           'P 1'
loop_
_symmetry_equiv_pos_site_id
_symmetry_equiv_pos_as_xyz
1 x,y,z
_cell_length_a                   9.0085(15)
_cell_length_b                   9.0085(15)
_cell_length_c                   15.799(4)
_cell_angle_alpha                90
_cell_angle_beta                 90
_cell_angle_gamma                90
_cell_volume                     1282.14
loop_
_atom_site_label
_atom_site_type_symbol
_atom_site_fract_x
_atom_site_fract_y
_atom_site_fract_z
Er3 Er 0.03212(2) 0.11059(2) 0.895681(12)
O8 O 0.0590(6) 0.4073(5) 0.5228(3)
O9 O 0.2319(4) 0.6515(4) 0.6110(2)
O10 O 0.0308(5) 0.7075(4) 0.4711(2)
O11 O 0.0507(4) 0.5372(4) 0.7333(2)
H9 H 0.148834 0.438803 0.491115
H10 H 0.274137 0.59487 0.659247
H11 H 0.278552 0.617504 0.557455
O5 O 0.7512(5) 0.0175(5) 0.6535(3)
H7 H 0.7309 0.0961 0.6770
O6 O 0.9493(4) 0.0372(4) 0.7667(2)
Er1 Er 0.96788(2) 0.61059(2) 0.604319(12)
P1 P 0.87333(15) 0.93327(14) 0.70596(8)
N1 N 0.7438(4) 0.6599(4) 0.7102(2)
C1 C 0.7876(6) 0.7853(6) 0.7680(3)
H1 H 0.8571 0.7497 0.8103
H2 H 0.7006 0.8232 0.7970
C2 C 0.6075(6) 0.6946(6) 0.6609(3)
H3 H 0.5594 0.7798 0.6866
H4 H 0.5398 0.6112 0.6656
C3 C 0.6320(5) 0.7270(6) 0.5688(3)
C4 C 0.7206(6) 0.5200(5) 0.7578(3)
H5 H 0.6223 0.5198 0.7828
H6 H 0.7930 0.5126 0.8030
C5 C 0.7369(5) 0.3870(6) 0.6976(3)
O1 O 0.7550(4) 0.6864(5) 0.5347(2)
O2 O 0.5308(5) 0.7925(4) 0.5289(2)
O3 O 0.6839(5) 0.2626(4) 0.7238(3)
O4 O 0.8107(4) 0.4034(4) 0.6299(2)
O7 O 0.9743(4) 0.8563(3) 0.6446(2)
Er2 Er 0.46788(2) 0.88941(2) 0.395681(12)
H8 H 0.981361 0.374674 0.482247
Er1_2 Er 0.53212(2) 0.38941(2) 0.104319(12)
P1_2 P 0.62667(15) 0.06673(14) 0.20596(8)
N1_2 N 0.7562(4) 0.3401(4) 0.2102(2)
C1_2 C 0.7124(6) 0.2147(6) 0.2680(3)
H1_2 H 0.6429 0.2503 0.3103
H2_2 H 0.7994 0.1768 0.2970
C2_2 C 0.8925(6) 0.3054(6) 0.1609(3)
H3_2 H 0.9406 0.2202 0.1866
H4_2 H 0.9602 0.3888 0.1656
C3_2 C 0.8680(5) 0.2730(6) 0.0688(3)
C4_2 C 0.7794(6) 0.4800(5) 0.2578(3)
H5_2 H 0.8777 0.4802 0.2828
H6_2 H 0.7070 0.4874 0.3030
C5_2 C 0.7631(5) 0.6130(6) 0.1976(3)
O1_2 O 0.7450(4) 0.3136(5) 0.0347(2)
O2_2 O 0.9692(5) 0.2075(4) 0.0289(2)
O3_2 O 0.8161(5) 0.7374(4) 0.2238(3)
O4_2 O 0.6893(4) 0.5966(4) 0.1299(2)
O7_2 O 0.5257(4) 0.1437(3) 0.1446(2)
O8_2 O 0.4410(6) 0.5927(5) 0.0228(3)
O9_2 O 0.2681(4) 0.3485(4) 0.1110(2)
O11_2 O 0.4493(4) 0.4628(4) 0.2333(2)
H10_2 H 0.225863 0.40513 0.159247
H11_2 H 0.221448 0.382496 0.0574553
O10_2 O 0.4692(5) 0.2925(4) 0.9711(2)
H8_2 H 0.518639 0.625326 0.982247
H9_2 H 0.351166 0.561197 0.991115
O5_2 O 0.7488(5) 0.9825(5) 0.1535(3)
H7_2 H 0.7691 0.9039 0.1770
O6_2 O 0.5507(4) 0.9628(4) 0.2667(2)
P1_3 P 0.12667(15) 0.43327(14) 0.79404(8)
N1_3 N 0.2562(4) 0.1599(4) 0.7898(2)
C1_3 C 0.2124(6) 0.2853(6) 0.7320(3)
H1_3 H 0.1429 0.2497 0.6897
H2_3 H 0.2994 0.3232 0.7030
C2_3 C 0.3925(6) 0.1946(6) 0.8391(3)
H3_3 H 0.4406 0.2798 0.8134
H4_3 H 0.4602 0.1112 0.8344
C3_3 C 0.3680(5) 0.2270(6) 0.9312(3)
C4_3 C 0.2794(6) 0.0200(5) 0.7422(3)
H5_3 H 0.3777 0.0198 0.7172
H6_3 H 0.2070 0.0126 0.6970
O1_3 O 0.2450(4) 0.1864(5) 0.9653(2)
O5_3 O 0.2488(5) 0.5175(5) 0.8465(3)
H7_3 H 0.2691 0.5961 0.8230
O7_3 O 0.0257(4) 0.3563(3) 0.8554(2)
O9_3 O 0.7681(4) 0.1515(4) 0.8890(2)
H10_3 H 0.725863 0.09487 0.840753
H11_3 H 0.721448 0.117504 0.942545
P1_4 P 0.37333(15) 0.56673(14) 0.29404(8)
N1_4 N 0.2438(4) 0.8401(4) 0.2898(2)
C1_4 C 0.2876(6) 0.7147(6) 0.2320(3)
H1_4 H 0.3571 0.7503 0.1897
H2_4 H 0.2006 0.6768 0.2030
C2_4 C 0.1075(6) 0.8054(6) 0.3391(3)
H3_4 H 0.0594 0.7202 0.3134
H4_4 H 0.0398 0.8888 0.3344
C3_4 C 0.1320(5) 0.7730(6) 0.4312(3)
C4_4 C 0.2206(6) 0.9800(5) 0.2422(3)
H5_4 H 0.1223 0.9802 0.2172
H6_4 H 0.2930 0.9874 0.1970
O1_4 O 0.2550(4) 0.8136(5) 0.4653(2)
O5_4 O 0.2512(5) 0.4825(5) 0.3465(3)
H7_4 H 0.2309 0.4039 0.3230
O7_4 O 0.4743(4) 0.6437(3) 0.3554(2)
O9_4 O 0.7319(4) 0.8485(4) 0.3890(2)
H10_4 H 0.774137 0.90513 0.340753
H11_4 H 0.778552 0.882496 0.442545
H8_3 H 0.0186386 0.874674 0.0177532
C5_3 C 0.2631(5) 0.8870(6) 0.8024(3)
O3_3 O 0.3161(5) 0.7626(4) 0.7762(3)
O4_3 O 0.1893(4) 0.9034(4) 0.8701(2)
H9_3 H 0.851166 0.938803 0.00888546
O8_3 O 0.9410(6) 0.9073(5) 0.9772(3)
C5_4 C 0.2369(5) 0.1130(6) 0.3024(3)
O3_4 O 0.1839(5) 0.2374(4) 0.2762(3)
O4_4 O 0.3107(4) 0.0966(4) 0.3701(2)
O8_4 O 0.5590(6) 0.0927(5) 0.4772(3)
H8_4 H 0.481361 0.125326 0.517753
H9_4 H 0.648834 0.0611974 0.508885
loop_
_geom_bond_atom_site_label_1
_geom_bond_atom_site_label_2
_geom_bond_site_symmetry_1
_geom_bond_site_symmetry_2
O8 H9 1_555 1_555
O9 H10 1_555 1_555
O9 H11 1_555 1_555
H7 O5 1_555 1_555
Er1 N1 1_555 1_555
P1 C1 1_555 1_555
N1 C1 1_555 1_555
C1 H1 1_555 1_555
H2 C1 1_555 1_555
C2 N1 1_555 1_555
H3 C2 1_555 1_555
H4 C2 1_555 1_555
C3 C2 1_555 1_555
C4 N1 1_555 1_555
H5 C4 1_555 1_555
H6 C4 1_555 1_555
C5 C4 1_555 1_555
O1 Er1 1_555 1_555
O2 C3 1_555 1_555
O3 C5 1_555 1_555
O4 Er1 1_555 1_555
O7 Er1 1_555 1_555
Er2 O2 1_555 1_555
P1 O7 1_555 1_555
C3 O1 1_555 1_555
C5 O4 1_555 1_555
Er1_2 N1_2 1_555 1_555
P1_2 C1_2 1_555 1_555
N1_2 C1_2 1_555 1_555
C1_2 H1_2 1_555 1_555
H2_2 C1_2 1_555 1_555
C2_2 N1_2 1_555 1_555
H3_2 C2_2 1_555 1_555
H4_2 C2_2 1_555 1_555
C3_2 C2_2 1_555 1_555
C4_2 N1_2 1_555 1_555
H5_2 C4_2 1_555 1_555
H6_2 C4_2 1_555 1_555
C5_2 C4_2 1_555 1_555
O1_2 Er1_2 1_555 1_555
O2_2 C3_2 1_555 1_555
O3_2 C5_2 1_555 1_555
O4_2 Er1_2 1_555 1_555
O7_2 Er1_2 1_555 1_555
O8_2 Er1_2 1_555 1_555
O9_2 Er1_2 1_555 1_555
O11_2 Er1_2 1_555 1_555
P1_2 O7_2 1_555 1_555
C3_2 O1_2 1_555 1_555
C5_2 O4_2 1_555 1_555
O9_2 H10_2 1_555 1_555
O9_2 H11_2 1_555 1_555
H7_2 O5_2 1_555 1_555
Er2 O6_2 1_555 1_555
Er3 N1_3 1_555 1_555
P1_3 C1_3 1_555 1_555
N1_3 C1_3 1_555 1_555
C1_3 H1_3 1_555 1_555
H2_3 C1_3 1_555 1_555
C2_3 N1_3 1_555 1_555
H3_3 C2_3 1_555 1_555
H4_3 C2_3 1_555 1_555
C3_3 C2_3 1_555 1_555
C4_3 N1_3 1_555 1_555
H5_3 C4_3 1_555 1_555
H6_3 C4_3 1_555 1_555
O1_3 Er3 1_555 1_555
O10_2 C3_3 1_555 1_555
O5_3 P1_3 1_555 1_555
H7_3 O5_3 1_555 1_555
O11 P1_3 1_555 1_555
O7_3 Er3 1_555 1_555
P1_3 O7_3 1_555 1_555
C3_3 O1_3 1_555 1_555
O9_3 H10_3 1_555 1_555
O9_3 H11_3 1_555 1_555
Er2 N1_4 1_555 1_555
P1_4 C1_4 1_555 1_555
N1_4 C1_4 1_555 1_555
C1_4 H1_4 1_555 1_555
H2_4 C1_4 1_555 1_555
C2_4 N1_4 1_555 1_555
H3_4 C2_4 1_555 1_555
H4_4 C2_4 1_555 1_555
C3_4 C2_4 1_555 1_555
C4_4 N1_4 1_555 1_555
H5_4 C4_4 1_555 1_555
H6_4 C4_4 1_555 1_555
O1_4 Er2 1_555 1_555
O10 C3_4 1_555 1_555
O5_4 P1_4 1_555 1_555
H7_4 O5_4 1_555 1_555
O11_2 P1_4 1_555 1_555
O7_4 Er2 1_555 1_555
O9_4 Er2 1_555 1_555
P1_4 O7_4 1_555 1_555
C3_4 O1_4 1_555 1_555
O9_4 H10_4 1_555 1_555
O9_4 H11_4 1_555 1_555
O3_3 C5_3 1_555 1_555
C5_3 O4_3 1_555 1_555
O3_4 C5_4 1_555 1_555
C5_4 O4_4 1_555 1_555
O8_4 H8_4 1_555 1_555
O8_4 H9_4 1_555 1_555

#END
