
###############################################################################
#
# This file contains modified crystal structure data generated from the
# MOF subset of the Cambridge Structural Database (CSD) v543 
# hosted by the Cambridge Crystallographic Data Centre (CCDC).
#
# This work is licensed under the Creative Commons
# Attribution-NonCommercial-ShareAlike 4.0 International License.
# To view a copy of this license, visit
# http://creativecommons.org/licenses/by-nc-sa/4.0/
# or send a letter to
# Creative Commons, PO Box 1866, Mountain View, CA 94042, USA.
#
# CIF created using the CSD Python API on 29 September 2022
# The structure has been converted into the P1 space group
# The structure has a 3D framework
# The original CSD entry SEYNAM is in the tetragonal crystal system
# The original CSD entry SEYNAM is in a Sohncke space group
# The framework has been calculated to contain at least 10.0% void space
# The void calculation uses a probe of radius 1.32A, grid spacing 0.4
# The framework is charged, counterions have been retained in the structure
#
###############################################################################

data_SEYNAM
_chemical_formula_moiety         '(C172 H136 Cl8 Cu8 N32 O47)n'
_symmetry_cell_setting           triclinic
_symmetry_space_group_name_H-M   'P 1'
_symmetry_Int_Tables_number      1
_space_group_name_Hall           'P 1'
loop_
_symmetry_equiv_pos_site_id
_symmetry_equiv_pos_as_xyz
1 x,y,z
_cell_length_a                   11.2374(11)
_cell_length_b                   11.2374(11)
_cell_length_c                   37.096(6)
_cell_angle_alpha                90
_cell_angle_beta                 90
_cell_angle_gamma                90
_cell_volume                     4684.45
loop_
_atom_site_label
_atom_site_type_symbol
_atom_site_fract_x
_atom_site_fract_y
_atom_site_fract_z
N5 N 0.1531(10) 0.8663(13) 0.7533(3)
H2 H 0.0655 0.7934 0.6261
C6 C 0.0071(7) 0.8389(8) 0.6932(3)
C7 C 0.1310(10) 0.8406(17) 0.6916(5)
H5 H 0.1684 0.8374 0.6692
C8 C 0.1954(12) 0.846(2) 0.7208(4)
H6 H 0.2771 0.8359 0.7184
C9 C 0.0383(15) 0.8705(18) 0.7551(4)
H7 H 0.0040 0.8830 0.7776
N6 N 0.8690(12) 0.1522(10) 0.3670(4)
H10 H 0.7867 0.0659 0.4954
C16 C 0.8384(9) 0.0103(8) 0.4283(3)
C17 C 0.8381(15) 0.1291(9) 0.4302(4)
H13 H 0.8301 0.1671 0.4523
C18 C 0.8498(19) 0.1949(13) 0.3989(6)
H14 H 0.8433 0.2771 0.4010
C19 C 0.8673(18) 0.0378(16) 0.3658(4)
H15 H 0.8749 0.0031 0.3431
Cu1 Cu 0.49400(6) 0.49983(10) 0.68583(5)
Cu2 Cu 0.69675(9) 0.69699(9) 0.56054(6)
O1 O 0.6091(5) 0.6178(5) 0.59742(17)
O2 O 0.6172(5) 0.6091(5) 0.52314(17)
O3 O 0.4865(5) 0.4908(5) 0.6226(2)
O4 O 0.4919(5) 0.4876(5) 0.4975(2)
N1 N 0.7953(7) 0.7709(8) 0.5999(3)
N2 N 0.7738(8) 0.7942(6) 0.5213(3)
N3 N 0.3081(4) 0.4997(6) 0.6866(2)
N4 N 0.4875(5) 0.3154(5) 0.68534(19)
C1 C 0.9166(10) 0.7644(12) 0.5993(3)
H1 H 0.9544 0.7397 0.5783
C2 C 0.9830(8) 0.7924(12) 0.6281(3)
C3 C 0.9313(8) 0.8194(8) 0.6604(3)
C4 C 0.8140(9) 0.8291(11) 0.6605(4)
H3 H 0.7755 0.8545 0.6814
C5 C 0.7480(9) 0.8022(10) 0.6304(3)
H4 H 0.6655 0.8067 0.6320
C10 C 0.9632(10) 0.8577(14) 0.7258(4)
H8 H 0.8813 0.8622 0.7290
C11 C 0.7699(13) 0.9131(8) 0.5227(3)
H9 H 0.7517 0.9495 0.5446
C12 C 0.7917(11) 0.9836(8) 0.4932(3)
C13 C 0.8206(8) 0.9339(8) 0.4608(3)
C14 C 0.8258(10) 0.8104(8) 0.4591(4)
H11 H 0.8452 0.7713 0.4378
C15 C 0.8009(10) 0.7477(9) 0.4906(4)
H12 H 0.8041 0.6651 0.4894
C20 C 0.8554(15) 0.9616(10) 0.3946(4)
H16 H 0.8588 0.8796 0.3914
C21 C 0.2457(7) 0.4818(9) 0.6559(2)
H17 H 0.2878 0.4670 0.6348
C22 C 0.1230(7) 0.4844(10) 0.6541(2)
H18 H 0.0838 0.4771 0.6321
C23 C 0.0605(5) 0.4979(8) 0.6856(2)
C24 C 0.1249(7) 0.5168(10) 0.7157(2)
H19 H 0.0861 0.5309 0.7374
C25 C 0.2466(7) 0.5155(10) 0.7147(2)
H20 H 0.2870 0.5271 0.7363
C31 C 0.5288(7) 0.2500(8) 0.6562(2)
H25 H 0.5585 0.2902 0.6363
C32 C 0.5271(7) 0.1278(8) 0.6560(3)
H26 H 0.5540 0.0865 0.6358
C33 C 0.4854(6) 0.0661(7) 0.6856(3)
C34 C 0.4426(7) 0.1331(7) 0.7144(2)
H27 H 0.4133 0.0956 0.7349
C35 C 0.4441(7) 0.2556(7) 0.7122(2)
H28 H 0.4117 0.2983 0.7313
C41 C 0.5366(7) 0.5333(6) 0.5250(2)
C42 C 0.4887(9) 0.4880(9) 0.5604(5)
H33 H 0.4031 0.4989 0.5597
H34 H 0.5028 0.4029 0.5608
C43 C 0.5303(6) 0.5357(7) 0.5956(2)
Cu3 Cu 0.50017(10) 0.49400(6) 0.43583(5)
O5 O 0.4876(5) 0.5081(5) 0.7475(2)
N9 N 0.6779(4) 0.4993(6) 0.6866(2)
N10 N 0.4885(4) 0.6844(6) 0.6877(2)
C36 C 0.4858(6) 0.9349(8) 0.6863(3)
C37 C 0.4441(7) 0.8666(8) 0.6572(2)
H29 H 0.4146 0.9040 0.6367
C38 C 0.4468(6) 0.7467(7) 0.6590(2)
H30 H 0.4183 0.7041 0.6394
C39 C 0.5272(7) 0.7495(7) 0.7147(2)
H31 H 0.5572 0.7100 0.7348
C40 C 0.5264(7) 0.8689(8) 0.7154(2)
H32 H 0.5536 0.9083 0.7358
C26 C 0.9282(6) 0.4993(7) 0.6862(3)
C27 C 0.8629(6) 0.5316(8) 0.7154(2)
H21 H 0.9018 0.5541 0.7365
C28 C 0.7407(7) 0.5317(9) 0.7147(2)
H22 H 0.7003 0.5562 0.7352
C29 C 0.7410(7) 0.4694(8) 0.6564(2)
H23 H 0.7000 0.4491 0.6355
C30 C 0.8660(6) 0.4683(7) 0.6560(2)
H24 H 0.9065 0.4465 0.6351
N7 N 0.3221(4) 0.5007(6) 0.1866(2)
C26_2 C 0.0718(6) 0.5007(7) 0.1862(3)
C27_2 C 0.1371(6) 0.4684(8) 0.2154(2)
H21_2 H 0.0982 0.4459 0.2365
C28_2 C 0.2593(7) 0.4683(9) 0.2147(2)
H22_2 H 0.2997 0.4438 0.2352
C29_2 C 0.2590(7) 0.5306(8) 0.1564(2)
H23_2 H 0.3000 0.5509 0.1355
C30_2 C 0.1340(6) 0.5317(7) 0.1560(2)
H24_2 H 0.0935 0.5535 0.1351
Cu4 Cu 0.50600(6) 0.50017(10) 0.18583(5)
N8 N 0.5115(4) 0.3156(6) 0.1877(2)
C36_2 C 0.5142(6) 0.0651(8) 0.1863(3)
C37_2 C 0.5559(7) 0.1334(8) 0.1572(2)
H29_2 H 0.5854 0.0960 0.1367
C38_2 C 0.5532(6) 0.2533(7) 0.1590(2)
H30_2 H 0.5817 0.2959 0.1394
C39_2 C 0.4728(7) 0.2505(7) 0.2147(2)
H31_2 H 0.4428 0.2900 0.2348
C40_2 C 0.4736(7) 0.1311(8) 0.2154(2)
H32_2 H 0.4464 0.0917 0.2358
Cu2_2 Cu 0.30325(9) 0.30301(9) 0.06054(6)
O1_2 O 0.3909(5) 0.3822(5) 0.09742(17)
O2_2 O 0.3828(5) 0.3909(5) 0.02314(17)
O3_2 O 0.5135(5) 0.5092(5) 0.1226(2)
N1_2 N 0.2047(7) 0.2291(8) 0.0999(3)
N2_2 N 0.2262(8) 0.2058(6) 0.0213(3)
N3_2 N 0.6919(4) 0.5003(6) 0.1866(2)
N4_2 N 0.5125(5) 0.6846(5) 0.18534(19)
C1_2 C 0.0834(10) 0.2356(12) 0.0993(3)
H1_2 H 0.0456 0.2603 0.0783
C2_2 C 0.0170(8) 0.2076(12) 0.1281(3)
C3_2 C 0.0687(8) 0.1806(8) 0.1604(3)
C4_2 C 0.1860(9) 0.1709(11) 0.1605(4)
H3_2 H 0.2245 0.1455 0.1814
C5_2 C 0.2520(9) 0.1978(10) 0.1304(3)
H4_2 H 0.3345 0.1933 0.1320
C10_2 C 0.0368(10) 0.1423(14) 0.2258(4)
H8_2 H 0.1187 0.1378 0.2290
C11_2 C 0.2301(13) 0.0869(8) 0.0227(3)
H9_2 H 0.2483 0.0505 0.0446
C21_2 C 0.7543(7) 0.5182(9) 0.1559(2)
H17_2 H 0.7122 0.5330 0.1348
C22_2 C 0.8770(7) 0.5156(10) 0.1541(2)
H18_2 H 0.9162 0.5229 0.1321
C23_2 C 0.9395(5) 0.5021(8) 0.1856(2)
C24_2 C 0.8751(7) 0.4832(10) 0.2157(2)
H19_2 H 0.9139 0.4691 0.2374
C25_2 C 0.7534(7) 0.4845(10) 0.2147(2)
H20_2 H 0.7130 0.4729 0.2363
C31_2 C 0.4712(7) 0.7500(8) 0.1562(2)
H25_2 H 0.4415 0.7098 0.1363
C32_2 C 0.4729(7) 0.8722(8) 0.1560(3)
H26_2 H 0.4460 0.9135 0.1358
C33_2 C 0.5146(6) 0.9339(7) 0.1856(3)
C34_2 C 0.5574(7) 0.8669(7) 0.2144(2)
H27_2 H 0.5867 0.9044 0.2349
C35_2 C 0.5559(7) 0.7444(7) 0.2122(2)
H28_2 H 0.5883 0.7017 0.2313
C41_2 C 0.4634(7) 0.4667(6) 0.0250(2)
C42_2 C 0.5113(9) 0.5120(9) 0.0604(5)
H33_2 H 0.5969 0.5011 0.0597
H34_2 H 0.4972 0.5971 0.0608
C43_2 C 0.4697(6) 0.4643(7) 0.0956(2)
O5_2 O 0.5124(5) 0.4919(5) 0.2475(2)
O4_2 O 0.5081(5) 0.5124(5) 0.9975(2)
C12_2 C 0.2083(11) 0.0164(8) 0.9932(3)
C13_2 C 0.1794(8) 0.0661(8) 0.9608(3)
C14_2 C 0.1742(10) 0.1896(8) 0.9591(4)
H11_2 H 0.1548 0.2287 0.9378
C15_2 C 0.1991(10) 0.2523(9) 0.9906(4)
H12_2 H 0.1959 0.3349 0.9894
C20_2 C 0.1446(15) 0.0384(10) 0.8946(4)
H16_2 H 0.1412 0.1204 0.8914
Cu3_2 Cu 0.49983(10) 0.50600(6) 0.93583(5)
N8_2 N 0.3156(6) 0.4885(4) 0.4377(2)
C36_3 C 0.0651(8) 0.4858(6) 0.4363(3)
C37_3 C 0.1334(8) 0.4441(7) 0.4072(2)
H29_3 H 0.0960 0.4146 0.3867
C38_3 C 0.2533(7) 0.4468(6) 0.4090(2)
H30_3 H 0.2959 0.4183 0.3894
C39_3 C 0.2505(7) 0.5272(7) 0.4647(2)
H31_3 H 0.2900 0.5572 0.4848
C40_3 C 0.1311(8) 0.5264(7) 0.4654(2)
H32_3 H 0.0917 0.5536 0.4858
Cu2_3 Cu 0.30301(9) 0.69675(9) 0.31054(6)
O1_3 O 0.3822(5) 0.6091(5) 0.34742(17)
O2_3 O 0.3909(5) 0.6172(5) 0.27314(17)
O3_3 O 0.5092(5) 0.4865(5) 0.3726(2)
N1_3 N 0.2291(8) 0.7953(7) 0.3499(3)
N2_3 N 0.2058(6) 0.7738(8) 0.2713(3)
N3_3 N 0.5003(6) 0.3081(4) 0.4366(2)
N4_3 N 0.6846(5) 0.4875(5) 0.43534(19)
C1_3 C 0.2356(12) 0.9166(10) 0.3493(3)
H1_3 H 0.2603 0.9544 0.3283
C2_3 C 0.2076(12) 0.9830(8) 0.3781(3)
C3_3 C 0.1806(8) 0.9313(8) 0.4104(3)
C4_3 C 0.1709(11) 0.8140(9) 0.4105(4)
H3_3 H 0.1455 0.7755 0.4314
C5_3 C 0.1978(10) 0.7480(9) 0.3804(3)
H4_3 H 0.1933 0.6655 0.3820
C10_3 C 0.1423(14) 0.9632(10) 0.4758(4)
H8_3 H 0.1378 0.8813 0.4790
C11_3 C 0.0869(8) 0.7699(13) 0.2727(3)
H9_3 H 0.0505 0.7517 0.2946
C12_3 C 0.0164(8) 0.7917(11) 0.2432(3)
C13_3 C 0.0661(8) 0.8206(8) 0.2108(3)
C14_3 C 0.1896(8) 0.8258(10) 0.2091(4)
H11_3 H 0.2287 0.8452 0.1878
C15_3 C 0.2523(9) 0.8009(10) 0.2406(4)
H12_3 H 0.3349 0.8041 0.2394
C20_3 C 0.0384(10) 0.8554(15) 0.1446(4)
H16_3 H 0.1204 0.8588 0.1414
C21_3 C 0.5182(9) 0.2457(7) 0.4059(2)
H17_3 H 0.5330 0.2878 0.3848
C22_3 C 0.5156(10) 0.1230(7) 0.4041(2)
H18_3 H 0.5229 0.0838 0.3821
C23_3 C 0.5021(8) 0.0605(5) 0.4356(2)
C24_3 C 0.4832(10) 0.1249(7) 0.4657(2)
H19_3 H 0.4691 0.0861 0.4874
C25_3 C 0.4845(10) 0.2466(7) 0.4647(2)
H20_3 H 0.4729 0.2870 0.4863
C31_3 C 0.7500(8) 0.5288(7) 0.4062(2)
H25_3 H 0.7098 0.5585 0.3863
C32_3 C 0.8722(8) 0.5271(7) 0.4060(3)
H26_3 H 0.9135 0.5540 0.3858
C33_3 C 0.9339(7) 0.4854(6) 0.4356(3)
C34_3 C 0.8669(7) 0.4426(7) 0.4644(2)
H27_3 H 0.9044 0.4133 0.4849
C35_3 C 0.7444(7) 0.4441(7) 0.4622(2)
H28_3 H 0.7017 0.4117 0.4813
C41_3 C 0.4667(6) 0.5366(7) 0.2750(2)
C42_3 C 0.5120(9) 0.4887(9) 0.3104(5)
H33_3 H 0.5011 0.4031 0.3097
H34_3 H 0.5971 0.5028 0.3108
C43_3 C 0.4643(7) 0.5303(6) 0.3456(2)
N9_2 N 0.5007(6) 0.6779(4) 0.4366(2)
C26_3 C 0.5007(7) 0.9282(6) 0.4362(3)
C27_3 C 0.4684(8) 0.8629(6) 0.4654(2)
H21_3 H 0.4459 0.9018 0.4865
C28_3 C 0.4683(9) 0.7407(7) 0.4647(2)
H22_3 H 0.4438 0.7003 0.4852
C29_3 C 0.5306(8) 0.7410(7) 0.4064(2)
H23_3 H 0.5509 0.7000 0.3855
C30_3 C 0.5317(7) 0.8660(6) 0.4060(2)
H24_3 H 0.5535 0.9065 0.3851
N7_2 N 0.4993(6) 0.3221(4) 0.9366(2)
C26_4 C 0.4993(7) 0.0718(6) 0.9362(3)
C27_4 C 0.5316(8) 0.1371(6) 0.9654(2)
H21_4 H 0.5541 0.0982 0.9865
C28_4 C 0.5317(9) 0.2593(7) 0.9647(2)
H22_4 H 0.5562 0.2997 0.9852
C29_4 C 0.4694(8) 0.2590(7) 0.9064(2)
H23_4 H 0.4491 0.3000 0.8855
C30_4 C 0.4683(7) 0.1340(6) 0.9060(2)
H24_4 H 0.4465 0.0935 0.8851
Cu2_4 Cu 0.69699(9) 0.30325(9) 0.81054(6)
O1_4 O 0.6178(5) 0.3909(5) 0.84742(17)
O2_4 O 0.6091(5) 0.3828(5) 0.77314(17)
O3_4 O 0.4908(5) 0.5135(5) 0.8726(2)
N1_4 N 0.7709(8) 0.2047(7) 0.8499(3)
N2_4 N 0.7942(6) 0.2262(8) 0.7713(3)
N3_4 N 0.4997(6) 0.6919(4) 0.9366(2)
N4_4 N 0.3154(5) 0.5125(5) 0.93534(19)
C1_4 C 0.7644(12) 0.0834(10) 0.8493(3)
H1_4 H 0.7397 0.0456 0.8283
C2_4 C 0.7924(12) 0.0170(8) 0.8781(3)
C3_4 C 0.8194(8) 0.0687(8) 0.9104(3)
C4_4 C 0.8291(11) 0.1860(9) 0.9105(4)
H3_4 H 0.8545 0.2245 0.9314
C5_4 C 0.8022(10) 0.2520(9) 0.8804(3)
H4_4 H 0.8067 0.3345 0.8820
C10_4 C 0.8577(14) 0.0368(10) 0.9758(4)
H8_4 H 0.8622 0.1187 0.9790
C11_4 C 0.9131(8) 0.2301(13) 0.7727(3)
H9_4 H 0.9495 0.2483 0.7946
C12_4 C 0.9836(8) 0.2083(11) 0.7432(3)
C13_4 C 0.9339(8) 0.1794(8) 0.7108(3)
C14_4 C 0.8104(8) 0.1742(10) 0.7091(4)
H11_4 H 0.7713 0.1548 0.6878
C15_4 C 0.7477(9) 0.1991(10) 0.7406(4)
H12_4 H 0.6651 0.1959 0.7394
C20_4 C 0.9616(10) 0.1446(15) 0.6446(4)
H16_4 H 0.8796 0.1412 0.6414
C21_4 C 0.4818(9) 0.7543(7) 0.9059(2)
H17_4 H 0.4670 0.7122 0.8848
C22_4 C 0.4844(10) 0.8770(7) 0.9041(2)
H18_4 H 0.4771 0.9162 0.8821
C23_4 C 0.4979(8) 0.9395(5) 0.9356(2)
C24_4 C 0.5168(10) 0.8751(7) 0.9657(2)
H19_4 H 0.5309 0.9139 0.9874
C25_4 C 0.5155(10) 0.7534(7) 0.9647(2)
H20_4 H 0.5271 0.7130 0.9863
C31_4 C 0.2500(8) 0.4712(7) 0.9062(2)
H25_4 H 0.2902 0.4415 0.8863
C32_4 C 0.1278(8) 0.4729(7) 0.9060(3)
H26_4 H 0.0865 0.4460 0.8858
C33_4 C 0.0661(7) 0.5146(6) 0.9356(3)
C34_4 C 0.1331(7) 0.5574(7) 0.9644(2)
H27_4 H 0.0956 0.5867 0.9849
C35_4 C 0.2556(7) 0.5559(7) 0.9622(2)
H28_4 H 0.2983 0.5883 0.9813
C41_4 C 0.5333(6) 0.4634(7) 0.7750(2)
C42_4 C 0.4880(9) 0.5113(9) 0.8104(5)
H33_4 H 0.4989 0.5969 0.8097
H34_4 H 0.4029 0.4972 0.8108
C43_4 C 0.5357(7) 0.4697(6) 0.8456(2)
N10_2 N 0.6844(6) 0.5115(4) 0.9377(2)
C36_4 C 0.9349(8) 0.5142(6) 0.9363(3)
C37_4 C 0.8666(8) 0.5559(7) 0.9072(2)
H29_4 H 0.9040 0.5854 0.8867
C38_4 C 0.7467(7) 0.5532(6) 0.9090(2)
H30_4 H 0.7041 0.5817 0.8894
C39_4 C 0.7495(7) 0.4728(7) 0.9647(2)
H31_4 H 0.7100 0.4428 0.9848
C40_4 C 0.8689(8) 0.4736(7) 0.9654(2)
H32_4 H 0.9083 0.4464 0.9858
N6_2 N 0.1310(12) 0.8478(10) 0.8670(4)
H10_2 H 0.2133 0.9341 0.9954
C16_2 C 0.1616(9) 0.9897(8) 0.9283(3)
C17_2 C 0.1619(15) 0.8709(9) 0.9302(4)
H13_2 H 0.1699 0.8329 0.9523
C18_2 C 0.1502(19) 0.8051(13) 0.8989(6)
H14_2 H 0.1567 0.7229 0.9010
C19_2 C 0.1327(18) 0.9622(16) 0.8658(4)
H15_2 H 0.1251 0.9969 0.8431
N5_2 N 0.8469(10) 0.1337(13) 0.2533(3)
H2_2 H 0.9345 0.2066 0.1261
C6_2 C 0.9929(7) 0.1611(8) 0.1932(3)
C7_2 C 0.8690(10) 0.1594(17) 0.1916(5)
H5_2 H 0.8316 0.1626 0.1692
C8_2 C 0.8046(12) 0.154(2) 0.2208(4)
H6_2 H 0.7229 0.1641 0.2184
C9_2 C 0.9617(15) 0.1295(18) 0.2551(4)
H7_2 H 0.9960 0.1170 0.2776
N5_3 N 0.1337(13) 0.1531(10) 0.5033(3)
H2_3 H 0.2066 0.0655 0.3761
C6_3 C 0.1611(8) 0.0071(7) 0.4432(3)
C7_3 C 0.1594(17) 0.1310(10) 0.4416(5)
H5_3 H 0.1626 0.1684 0.4192
C8_3 C 0.154(2) 0.1954(12) 0.4708(4)
H6_3 H 0.1641 0.2771 0.4684
C9_3 C 0.1295(18) 0.0383(15) 0.5051(4)
H7_3 H 0.1170 0.0040 0.5276
N6_3 N 0.8478(10) 0.8690(12) 0.1170(4)
H10_3 H 0.9341 0.7867 0.2454
C16_3 C 0.9897(8) 0.8384(9) 0.1783(3)
C17_3 C 0.8709(9) 0.8381(15) 0.1802(4)
H13_3 H 0.8329 0.8301 0.2023
C18_3 C 0.8051(13) 0.8498(19) 0.1489(6)
H14_3 H 0.7229 0.8433 0.1510
C19_3 C 0.9622(16) 0.8673(18) 0.1158(4)
H15_3 H 0.9969 0.8749 0.0931
N6_4 N 0.1522(10) 0.1310(12) 0.6170(4)
H10_4 H 0.0659 0.2133 0.7454
C16_4 C 0.0103(8) 0.1616(9) 0.6783(3)
C17_4 C 0.1291(9) 0.1619(15) 0.6802(4)
H13_4 H 0.1671 0.1699 0.7023
C18_4 C 0.1949(13) 0.1502(19) 0.6489(6)
H14_4 H 0.2771 0.1567 0.6510
C19_4 C 0.0378(16) 0.1327(18) 0.6158(4)
H15_4 H 0.0031 0.1251 0.5931
N5_4 N 0.8663(13) 0.8469(10) 0.0033(3)
C9_4 C 0.8705(18) 0.9617(15) 0.0051(4)
H7_4 H 0.8830 0.9960 0.0276
H2_4 H 0.7934 0.9345 0.8761
C6_4 C 0.8389(8) 0.9929(7) 0.9432(3)
C7_4 C 0.8406(17) 0.8690(10) 0.9416(5)
H5_4 H 0.8374 0.8316 0.9192
C8_4 C 0.846(2) 0.8046(12) 0.9708(4)
H6_4 H 0.8359 0.7229 0.9684
Cl1 Cl 0.7731(3) 0.7329(4) 0.31200(12)
O6 O 0.7587(15) 0.687(2) 0.2826(3)
O7 O 0.760(3) 0.8498(16) 0.2961(7)
O8 O 0.6753(10) 0.7273(16) 0.3338(4)
O9 O 0.8751(9) 0.7357(16) 0.3312(4)
Cl1_2 Cl 0.2269(3) 0.2671(4) 0.81200(12)
O6_2 O 0.2413(15) 0.313(2) 0.7826(3)
O7_2 O 0.240(3) 0.1502(16) 0.7961(7)
O8_2 O 0.3247(10) 0.2727(16) 0.8338(4)
O9_2 O 0.1249(9) 0.2643(16) 0.8312(4)
Cl1_3 Cl 0.2671(4) 0.7731(3) 0.06200(12)
O6_3 O 0.313(2) 0.7587(15) 0.0326(3)
O7_3 O 0.1502(16) 0.760(3) 0.0461(7)
O8_3 O 0.2727(16) 0.6753(10) 0.0838(4)
O9_3 O 0.2643(16) 0.8751(9) 0.0812(4)
Cl1_4 Cl 0.7329(4) 0.2269(3) 0.56200(12)
O6_4 O 0.687(2) 0.2413(15) 0.5326(3)
O7_4 O 0.8498(16) 0.240(3) 0.5461(7)
O8_4 O 0.7273(16) 0.3247(10) 0.5838(4)
O9_4 O 0.7357(16) 0.1249(9) 0.5812(4)
Cl2 Cl 0.7736(3) 0.2678(4) 0.05942(12)
O10 O 0.7796(15) 0.371(2) 0.0797(6)
O11 O 0.8647(16) 0.2603(15) 0.0381(4)
O12 O 0.7764(14) 0.183(3) 0.0818(5)
O13 O 0.6746(11) 0.2681(11) 0.0371(3)
Cl2_2 Cl 0.2264(3) 0.7322(4) 0.55942(12)
O10_2 O 0.2204(15) 0.629(2) 0.5797(6)
O11_2 O 0.1353(16) 0.7397(15) 0.5381(4)
O12_2 O 0.2236(14) 0.817(3) 0.5818(5)
O13_2 O 0.3254(11) 0.7319(11) 0.5371(3)
Cl2_3 Cl 0.7322(4) 0.7736(3) 0.80942(12)
O10_3 O 0.629(2) 0.7796(15) 0.8297(6)
O11_3 O 0.7397(15) 0.8647(16) 0.7881(4)
O12_3 O 0.817(3) 0.7764(14) 0.8318(5)
O13_3 O 0.7319(11) 0.6746(11) 0.7871(3)
Cl2_4 Cl 0.2678(4) 0.2264(3) 0.30942(12)
O10_4 O 0.371(2) 0.2204(15) 0.3297(6)
O11_4 O 0.2603(15) 0.1353(16) 0.2881(4)
O12_4 O 0.183(3) 0.2236(14) 0.3318(5)
O13_4 O 0.2681(11) 0.3254(11) 0.2871(3)
loop_
_geom_bond_atom_site_label_1
_geom_bond_atom_site_label_2
_geom_bond_site_symmetry_1
_geom_bond_site_symmetry_2
N5 C8 1_555 1_555
C7 C6 1_555 1_555
H5 C7 1_555 1_555
C8 C7 1_555 1_555
H6 C8 1_555 1_555
C9 N5 1_555 1_555
H7 C9 1_555 1_555
N6 C18 1_555 1_555
C17 C16 1_555 1_555
H13 C17 1_555 1_555
C18 C17 1_555 1_555
H14 C18 1_555 1_555
C19 N6 1_555 1_555
H15 C19 1_555 1_555
Cu1 O3 1_555 1_555
Cu2 O1 1_555 1_555
O1 C43 1_555 1_555
O2 Cu2 1_555 1_555
O3 C43 1_555 1_555
O4 C41 1_555 1_555
N1 Cu2 1_555 1_555
N2 Cu2 1_555 1_555
N3 Cu1 1_555 1_555
N4 Cu1 1_555 1_555
C1 N1 1_555 1_555
H1 C1 1_555 1_555
C2 C1 1_555 1_555
C3 C2 1_555 1_555
C4 C3 1_555 1_555
H3 C4 1_555 1_555
C5 N1 1_555 1_555
H4 C5 1_555 1_555
H8 C10 1_555 1_555
C11 N2 1_555 1_555
H9 C11 1_555 1_555
C12 C11 1_555 1_555
C13 C12 1_555 1_555
C14 C13 1_555 1_555
H11 C14 1_555 1_555
C15 N2 1_555 1_555
H12 C15 1_555 1_555
H16 C20 1_555 1_555
C21 N3 1_555 1_555
H17 C21 1_555 1_555
C22 C21 1_555 1_555
H18 C22 1_555 1_555
C23 C22 1_555 1_555
C24 C23 1_555 1_555
H19 C24 1_555 1_555
C25 N3 1_555 1_555
H20 C25 1_555 1_555
C31 N4 1_555 1_555
H25 C31 1_555 1_555
C32 C31 1_555 1_555
H26 C32 1_555 1_555
C33 C32 1_555 1_555
C34 C33 1_555 1_555
H27 C34 1_555 1_555
C35 N4 1_555 1_555
H28 C35 1_555 1_555
C41 O2 1_555 1_555
C42 C41 1_555 1_555
H33 C42 1_555 1_555
H34 C42 1_555 1_555
C43 C42 1_555 1_555
Cu3 O4 1_555 1_555
O5 Cu1 1_555 1_555
N9 Cu1 1_555 1_555
N10 Cu1 1_555 1_555
C4 C5 1_555 1_555
C14 C15 1_555 1_555
C24 C25 1_555 1_555
C34 C35 1_555 1_555
N10 C38 1_555 1_555
C37 C36 1_555 1_555
H29 C37 1_555 1_555
C38 C37 1_555 1_555
H30 C38 1_555 1_555
C39 N10 1_555 1_555
H31 C39 1_555 1_555
C40 C36 1_555 1_555
H32 C40 1_555 1_555
C39 C40 1_555 1_555
N9 C28 1_555 1_555
C27 C26 1_555 1_555
H21 C27 1_555 1_555
C28 C27 1_555 1_555
H22 C28 1_555 1_555
C29 N9 1_555 1_555
H23 C29 1_555 1_555
C30 C26 1_555 1_555
H24 C30 1_555 1_555
C29 C30 1_555 1_555
N7 C28_2 1_555 1_555
C27_2 C26_2 1_555 1_555
H21_2 C27_2 1_555 1_555
C28_2 C27_2 1_555 1_555
H22_2 C28_2 1_555 1_555
C29_2 N7 1_555 1_555
H23_2 C29_2 1_555 1_555
C30_2 C26_2 1_555 1_555
H24_2 C30_2 1_555 1_555
Cu4 N7 1_555 1_555
C29_2 C30_2 1_555 1_555
N8 C38_2 1_555 1_555
C37_2 C36_2 1_555 1_555
H29_2 C37_2 1_555 1_555
C38_2 C37_2 1_555 1_555
H30_2 C38_2 1_555 1_555
C39_2 N8 1_555 1_555
H31_2 C39_2 1_555 1_555
C40_2 C36_2 1_555 1_555
H32_2 C40_2 1_555 1_555
Cu4 N8 1_555 1_555
C39_2 C40_2 1_555 1_555
Cu4 O3_2 1_555 1_555
Cu2_2 O1_2 1_555 1_555
O1_2 C43_2 1_555 1_555
O2_2 Cu2_2 1_555 1_555
O3_2 C43_2 1_555 1_555
N1_2 Cu2_2 1_555 1_555
N2_2 Cu2_2 1_555 1_555
N3_2 Cu4 1_555 1_555
N4_2 Cu4 1_555 1_555
C1_2 N1_2 1_555 1_555
H1_2 C1_2 1_555 1_555
C2_2 C1_2 1_555 1_555
C3_2 C2_2 1_555 1_555
C4_2 C3_2 1_555 1_555
H3_2 C4_2 1_555 1_555
C5_2 N1_2 1_555 1_555
H4_2 C5_2 1_555 1_555
H8_2 C10_2 1_555 1_555
C11_2 N2_2 1_555 1_555
H9_2 C11_2 1_555 1_555
C21_2 N3_2 1_555 1_555
H17_2 C21_2 1_555 1_555
C22_2 C21_2 1_555 1_555
H18_2 C22_2 1_555 1_555
C23_2 C22_2 1_555 1_555
C24_2 C23_2 1_555 1_555
H19_2 C24_2 1_555 1_555
C25_2 N3_2 1_555 1_555
H20_2 C25_2 1_555 1_555
C31_2 N4_2 1_555 1_555
H25_2 C31_2 1_555 1_555
C32_2 C31_2 1_555 1_555
H26_2 C32_2 1_555 1_555
C33_2 C32_2 1_555 1_555
C34_2 C33_2 1_555 1_555
H27_2 C34_2 1_555 1_555
C35_2 N4_2 1_555 1_555
H28_2 C35_2 1_555 1_555
C41_2 O2_2 1_555 1_555
C42_2 C41_2 1_555 1_555
H33_2 C42_2 1_555 1_555
H34_2 C42_2 1_555 1_555
C43_2 C42_2 1_555 1_555
O5_2 Cu4 1_555 1_555
C4_2 C5_2 1_555 1_555
C24_2 C25_2 1_555 1_555
C34_2 C35_2 1_555 1_555
C13_2 C12_2 1_555 1_555
C14_2 C13_2 1_555 1_555
H11_2 C14_2 1_555 1_555
H12_2 C15_2 1_555 1_555
H16_2 C20_2 1_555 1_555
Cu3_2 O4_2 1_555 1_555
C14_2 C15_2 1_555 1_555
N8_2 C38_3 1_555 1_555
C37_3 C36_3 1_555 1_555
H29_3 C37_3 1_555 1_555
C38_3 C37_3 1_555 1_555
H30_3 C38_3 1_555 1_555
C39_3 N8_2 1_555 1_555
H31_3 C39_3 1_555 1_555
C40_3 C36_3 1_555 1_555
H32_3 C40_3 1_555 1_555
Cu3 N8_2 1_555 1_555
C39_3 C40_3 1_555 1_555
Cu3 O3_3 1_555 1_555
Cu2_3 O1_3 1_555 1_555
O1_3 C43_3 1_555 1_555
O2_3 Cu2_3 1_555 1_555
O3_3 C43_3 1_555 1_555
O5_2 C41_3 1_555 1_555
N1_3 Cu2_3 1_555 1_555
N2_3 Cu2_3 1_555 1_555
N3_3 Cu3 1_555 1_555
N4_3 Cu3 1_555 1_555
C1_3 N1_3 1_555 1_555
H1_3 C1_3 1_555 1_555
C2_3 C1_3 1_555 1_555
C3_3 C2_3 1_555 1_555
C4_3 C3_3 1_555 1_555
H3_3 C4_3 1_555 1_555
C5_3 N1_3 1_555 1_555
H4_3 C5_3 1_555 1_555
H8_3 C10_3 1_555 1_555
C11_3 N2_3 1_555 1_555
H9_3 C11_3 1_555 1_555
C12_3 C11_3 1_555 1_555
C13_3 C12_3 1_555 1_555
C14_3 C13_3 1_555 1_555
H11_3 C14_3 1_555 1_555
C15_3 N2_3 1_555 1_555
H12_3 C15_3 1_555 1_555
H16_3 C20_3 1_555 1_555
C21_3 N3_3 1_555 1_555
H17_3 C21_3 1_555 1_555
C22_3 C21_3 1_555 1_555
H18_3 C22_3 1_555 1_555
C23_3 C22_3 1_555 1_555
C24_3 C23_3 1_555 1_555
H19_3 C24_3 1_555 1_555
C25_3 N3_3 1_555 1_555
H20_3 C25_3 1_555 1_555
C31_3 N4_3 1_555 1_555
H25_3 C31_3 1_555 1_555
C32_3 C31_3 1_555 1_555
H26_3 C32_3 1_555 1_555
C33_3 C32_3 1_555 1_555
C34_3 C33_3 1_555 1_555
H27_3 C34_3 1_555 1_555
C35_3 N4_3 1_555 1_555
H28_3 C35_3 1_555 1_555
C41_3 O2_3 1_555 1_555
C42_3 C41_3 1_555 1_555
H33_3 C42_3 1_555 1_555
H34_3 C42_3 1_555 1_555
C43_3 C42_3 1_555 1_555
N9_2 Cu3 1_555 1_555
C4_3 C5_3 1_555 1_555
C14_3 C15_3 1_555 1_555
C24_3 C25_3 1_555 1_555
C34_3 C35_3 1_555 1_555
N9_2 C28_3 1_555 1_555
C27_3 C26_3 1_555 1_555
H21_3 C27_3 1_555 1_555
C28_3 C27_3 1_555 1_555
H22_3 C28_3 1_555 1_555
C29_3 N9_2 1_555 1_555
H23_3 C29_3 1_555 1_555
C30_3 C26_3 1_555 1_555
H24_3 C30_3 1_555 1_555
C29_3 C30_3 1_555 1_555
N7_2 C28_4 1_555 1_555
C27_4 C26_4 1_555 1_555
H21_4 C27_4 1_555 1_555
C28_4 C27_4 1_555 1_555
H22_4 C28_4 1_555 1_555
C29_4 N7_2 1_555 1_555
H23_4 C29_4 1_555 1_555
C30_4 C26_4 1_555 1_555
H24_4 C30_4 1_555 1_555
Cu3_2 N7_2 1_555 1_555
C29_4 C30_4 1_555 1_555
Cu3_2 O3_4 1_555 1_555
Cu2_4 O1_4 1_555 1_555
O1_4 C43_4 1_555 1_555
O2_4 Cu2_4 1_555 1_555
O3_4 C43_4 1_555 1_555
O5 C41_4 1_555 1_555
N1_4 Cu2_4 1_555 1_555
N2_4 Cu2_4 1_555 1_555
N3_4 Cu3_2 1_555 1_555
N4_4 Cu3_2 1_555 1_555
C1_4 N1_4 1_555 1_555
H1_4 C1_4 1_555 1_555
C2_4 C1_4 1_555 1_555
C3_4 C2_4 1_555 1_555
C4_4 C3_4 1_555 1_555
H3_4 C4_4 1_555 1_555
C5_4 N1_4 1_555 1_555
H4_4 C5_4 1_555 1_555
H8_4 C10_4 1_555 1_555
C11_4 N2_4 1_555 1_555
H9_4 C11_4 1_555 1_555
C12_4 C11_4 1_555 1_555
C13_4 C12_4 1_555 1_555
C14_4 C13_4 1_555 1_555
H11_4 C14_4 1_555 1_555
C15_4 N2_4 1_555 1_555
H12_4 C15_4 1_555 1_555
H16_4 C20_4 1_555 1_555
C21_4 N3_4 1_555 1_555
H17_4 C21_4 1_555 1_555
C22_4 C21_4 1_555 1_555
H18_4 C22_4 1_555 1_555
C23_4 C22_4 1_555 1_555
C24_4 C23_4 1_555 1_555
H19_4 C24_4 1_555 1_555
C25_4 N3_4 1_555 1_555
H20_4 C25_4 1_555 1_555
C31_4 N4_4 1_555 1_555
H25_4 C31_4 1_555 1_555
C32_4 C31_4 1_555 1_555
H26_4 C32_4 1_555 1_555
C33_4 C32_4 1_555 1_555
C34_4 C33_4 1_555 1_555
H27_4 C34_4 1_555 1_555
C35_4 N4_4 1_555 1_555
H28_4 C35_4 1_555 1_555
C41_4 O2_4 1_555 1_555
C42_4 C41_4 1_555 1_555
H33_4 C42_4 1_555 1_555
H34_4 C42_4 1_555 1_555
C43_4 C42_4 1_555 1_555
N10_2 Cu3_2 1_555 1_555
C4_4 C5_4 1_555 1_555
C14_4 C15_4 1_555 1_555
C24_4 C25_4 1_555 1_555
C34_4 C35_4 1_555 1_555
N10_2 C38_4 1_555 1_555
C37_4 C36_4 1_555 1_555
H29_4 C37_4 1_555 1_555
C38_4 C37_4 1_555 1_555
H30_4 C38_4 1_555 1_555
C39_4 N10_2 1_555 1_555
H31_4 C39_4 1_555 1_555
C40_4 C36_4 1_555 1_555
H32_4 C40_4 1_555 1_555
C39_4 C40_4 1_555 1_555
N6_2 C18_2 1_555 1_555
C17_2 C16_2 1_555 1_555
H13_2 C17_2 1_555 1_555
C18_2 C17_2 1_555 1_555
H14_2 C18_2 1_555 1_555
C19_2 N6_2 1_555 1_555
H15_2 C19_2 1_555 1_555
N5_2 C8_2 1_555 1_555
C7_2 C6_2 1_555 1_555
H5_2 C7_2 1_555 1_555
C8_2 C7_2 1_555 1_555
H6_2 C8_2 1_555 1_555
C9_2 N5_2 1_555 1_555
H7_2 C9_2 1_555 1_555
N5_3 C8_3 1_555 1_555
C7_3 C6_3 1_555 1_555
H5_3 C7_3 1_555 1_555
C8_3 C7_3 1_555 1_555
H6_3 C8_3 1_555 1_555
C9_3 N5_3 1_555 1_555
H7_3 C9_3 1_555 1_555
N6_3 C18_3 1_555 1_555
C17_3 C16_3 1_555 1_555
H13_3 C17_3 1_555 1_555
C18_3 C17_3 1_555 1_555
H14_3 C18_3 1_555 1_555
C19_3 N6_3 1_555 1_555
H15_3 C19_3 1_555 1_555
N6_4 C18_4 1_555 1_555
C17_4 C16_4 1_555 1_555
H13_4 C17_4 1_555 1_555
C18_4 C17_4 1_555 1_555
H14_4 C18_4 1_555 1_555
C19_4 N6_4 1_555 1_555
H15_4 C19_4 1_555 1_555
C9_4 N5_4 1_555 1_555
H7_4 C9_4 1_555 1_555
C7_4 C6_4 1_555 1_555
H5_4 C7_4 1_555 1_555
C8_4 C7_4 1_555 1_555
H6_4 C8_4 1_555 1_555
Cl1 O6 1_555 1_555
O7 Cl1 1_555 1_555
O8 Cl1 1_555 1_555
O9 Cl1 1_555 1_555
Cl1_2 O6_2 1_555 1_555
O7_2 Cl1_2 1_555 1_555
O8_2 Cl1_2 1_555 1_555
O9_2 Cl1_2 1_555 1_555
Cl1_3 O6_3 1_555 1_555
O7_3 Cl1_3 1_555 1_555
O8_3 Cl1_3 1_555 1_555
O9_3 Cl1_3 1_555 1_555
Cl1_4 O6_4 1_555 1_555
O7_4 Cl1_4 1_555 1_555
O8_4 Cl1_4 1_555 1_555
O9_4 Cl1_4 1_555 1_555
Cl2 O10 1_555 1_555
O11 Cl2 1_555 1_555
O12 Cl2 1_555 1_555
O13 Cl2 1_555 1_555
Cl2_2 O10_2 1_555 1_555
O11_2 Cl2_2 1_555 1_555
O12_2 Cl2_2 1_555 1_555
O13_2 Cl2_2 1_555 1_555
Cl2_3 O10_3 1_555 1_555
O11_3 Cl2_3 1_555 1_555
O12_3 Cl2_3 1_555 1_555
O13_3 Cl2_3 1_555 1_555
Cl2_4 O10_4 1_555 1_555
O11_4 Cl2_4 1_555 1_555
O12_4 Cl2_4 1_555 1_555
O13_4 Cl2_4 1_555 1_555

#END
