
###############################################################################
#
# This file contains modified crystal structure data generated from the
# MOF subset of the Cambridge Structural Database (CSD) v543 
# hosted by the Cambridge Crystallographic Data Centre (CCDC).
#
# This work is licensed under the Creative Commons
# Attribution-NonCommercial-ShareAlike 4.0 International License.
# To view a copy of this license, visit
# http://creativecommons.org/licenses/by-nc-sa/4.0/
# or send a letter to
# Creative Commons, PO Box 1866, Mountain View, CA 94042, USA.
#
# CIF created using the CSD Python API on 29 September 2022
# The structure has been converted into the P1 space group
# The structure has a 3D framework
# The original CSD entry SEYQIW is in the monoclinic crystal system
# The framework has been calculated to contain at least 10.0% void space
# The void calculation uses a probe of radius 1.32A, grid spacing 0.4
# The framework is charged, counterions have been retained in the structure
# H atom positions have been added when not included in the experimental data
#
###############################################################################

data_SEYQIW
_chemical_formula_moiety         '(C52 H80 N8 O47 Zn8 1-)n'
_symmetry_cell_setting           triclinic
_symmetry_space_group_name_H-M   'P 1'
_symmetry_Int_Tables_number      1
_space_group_name_Hall           'P 1'
loop_
_symmetry_equiv_pos_site_id
_symmetry_equiv_pos_as_xyz
1 x,y,z
_cell_length_a                   15.847(1)
_cell_length_b                   9.685(1)
_cell_length_c                   18.333(1)
_cell_angle_alpha                90
_cell_angle_beta                 115.5(1)
_cell_angle_gamma                90
_cell_volume                     2539.62
loop_
_atom_site_label
_atom_site_type_symbol
_atom_site_fract_x
_atom_site_fract_y
_atom_site_fract_z
Zn1 Zn 0.4180(1) 0.1249(1) 0.5861(1)
O1 O 0.3584(3) 0.2847(5) 0.5024(3)
O3 O 0.4669(3) 0.2626(4) 0.6827(2)
O5 O 0.2217(3) 0.3855(4) 0.4312(3)
C1 C 0.5000 0.2047(8) 0.7500
C2 C 0.5000 0.0440(8) 0.7500
C3 C 0.2727(4) 0.3007(6) 0.4808(3)
C5 C 0.2273(4) 0.1993(6) 0.5192(3)
O7 O 0.1416(3) 0.2153(5) 0.4976(3)
O8 O 0.2783(3) 0.1145(4) 0.5688(3)
C6 C 0.5425(3) 0.0499(6) 0.5193(3)
O9 O 0.6064(3) 0.0350(5) 0.4975(2)
O10 O 0.5408(3) 0.1355(4) 0.5687(3)
O11 O 0.5331(3) 0.2626(4) 0.8173(2)
Zn2 Zn 0.0820(1) 0.3751(1) 0.4139(1)
Zn4 Zn 0.5820(1) 0.1249(1) 0.9139(1)
O13 O 0.1064(3) 0.5350(5) 0.4975(2)
O14 O 0.0331(3) 0.2374(4) 0.3173(2)
O15 O 0.0338(3) 0.5139(4) 0.3165(2)
O2 O 0.3936(3) 0.9650(5) 0.5025(2)
O4 O 0.4662(3) 0.9861(4) 0.6835(2)
O6 O 0.4592(3) 0.8645(4) 0.4313(3)
C4 C 0.4575(3) 0.9501(6) 0.4807(3)
O12 O 0.5338(3) 0.9861(4) 0.8165(2)
Zn3 Zn 0.5820(1) 0.8751(1) 0.4139(1)
O16 O 0.9592(3) 0.3645(4) 0.4313(3)
O16_2 O 0.0408(3) 0.3645(4) 0.0687(3)
O5_2 O 0.7783(3) 0.3855(4) 0.0688(3)
C3_2 C 0.7273(4) 0.3007(6) 0.0192(3)
O7_2 O 0.8584(3) 0.2153(5) 0.0024(3)
O9_2 O 0.3936(3) 0.0350(5) 0.0025(2)
Zn2_2 Zn 0.9180(1) 0.3751(1) 0.0861(1)
O13_2 O 0.8936(3) 0.5350(5) 0.0025(2)
O14_2 O 0.9669(3) 0.2374(4) 0.1827(2)
O15_2 O 0.9662(3) 0.5139(4) 0.1835(2)
O1_2 O 0.6416(3) 0.2847(5) 0.9976(3)
C5_2 C 0.7727(4) 0.1993(6) 0.9808(3)
O8_2 O 0.7217(3) 0.1145(4) 0.9312(3)
C6_2 C 0.4575(3) 0.0499(6) 0.9807(3)
O10_2 O 0.4592(3) 0.1355(4) 0.9313(3)
O6_2 O 0.5408(3) 0.8645(4) 0.0687(3)
C4_2 C 0.5425(3) 0.9501(6) 0.0193(3)
Zn3_2 Zn 0.4180(1) 0.8751(1) 0.0861(1)
O2_2 O 0.6064(3) 0.9650(5) 0.9975(2)
C1_2 C 0.0000 0.7047(8) 0.7500
C2_2 C 0.0000 0.5440(8) 0.7500
C6_3 C 0.0425(3) 0.5499(6) 0.5193(3)
O10_3 O 0.0408(3) 0.6355(4) 0.5687(3)
O11_2 O 0.0331(3) 0.7626(4) 0.8173(2)
O12_2 O 0.0338(3) 0.4861(4) 0.8165(2)
Zn4_2 Zn 0.0820(1) 0.6249(1) 0.9139(1)
O15_3 O 0.5338(3) 0.0139(4) 0.3165(2)
Zn1_2 Zn 0.9180(1) 0.6249(1) 0.5861(1)
O1_3 O 0.8584(3) 0.7847(5) 0.5024(3)
O2_3 O 0.8936(3) 0.4650(5) 0.5025(2)
O3_2 O 0.9669(3) 0.7626(4) 0.6827(2)
O4_2 O 0.9662(3) 0.4861(4) 0.6835(2)
O5_3 O 0.7217(3) 0.8855(4) 0.4312(3)
C1_3 C 1.0000 0.7047(8) 0.7500
C2_3 C 1.0000 0.5440(8) 0.7500
C3_3 C 0.7727(4) 0.8007(6) 0.4808(3)
C4_3 C 0.9575(3) 0.4501(6) 0.4807(3)
C5_3 C 0.7273(4) 0.6993(6) 0.5192(3)
O7_3 O 0.6416(3) 0.7153(5) 0.4976(3)
O8_3 O 0.7783(3) 0.6145(4) 0.5688(3)
O14_3 O 0.5331(3) 0.7374(4) 0.3173(2)
O15_4 O 0.4662(3) 0.0139(4) 0.1835(2)
O5_4 O 0.2783(3) 0.8855(4) 0.0688(3)
C3_4 C 0.2273(4) 0.8007(6) 0.0192(3)
C4_4 C 0.0425(3) 0.4501(6) 0.0193(3)
O7_4 O 0.3584(3) 0.7153(5) 0.0024(3)
O14_4 O 0.4669(3) 0.7374(4) 0.1827(2)
O1_4 O 0.1416(3) 0.7847(5) 0.9976(3)
O2_4 O 0.1064(3) 0.4650(5) 0.9975(2)
C5_4 C 0.2727(4) 0.6993(6) 0.9808(3)
O8_4 O 0.2217(3) 0.6145(4) 0.9312(3)
C6_4 C 0.9575(3) 0.5499(6) 0.9807(3)
O10_4 O 0.9592(3) 0.6355(4) 0.9313(3)
C1_4 C 0.5000 0.7953(8) 0.2500
C2_4 C 0.5000 0.9560(8) 0.2500
C1_5 C -0.0000 0.2953(8) 0.2500
C2_5 C -0.0000 0.4560(8) 0.2500
C1_6 C 1.0000 0.2953(8) 0.2500
C2_6 C 1.0000 0.4560(8) 0.2500
N1 N 0.1721(12) 0.1247(10) 0.0947(10)
C7 C 0.1738(18) 0.0745(28) 0.1735(12)
C8 C 0.2583(19) 0.1696(29) 0.2030(16)
C9 C 0.2645(18) 0.1158(19) 0.2833(15)
H1 H 0.232516 0.0973497 0.0919904
H2 H 0.117153 0.0813795 0.0477248
H3 H 0.165491 0.229037 0.0915379
H5 H 0.115776 0.106357 0.186489
H6 H 0.243931 0.279377 0.191363
H7 H 0.314794 0.139827 0.187439
H8 H 0.271991 0.0039137 0.285295
H9 H 0.32481 0.161589 0.33275
H10 H 0.201128 0.143464 0.289219
H4 H 0.187687 0.965068 0.186974
N1_2 N 0.8279(12) 0.1247(10) 0.4053(10)
C7_2 C 0.8262(18) 0.0745(28) 0.3265(12)
C8_2 C 0.7417(19) 0.1696(29) 0.2970(16)
C9_2 C 0.7355(18) 0.1158(19) 0.2167(15)
H1_2 H 0.767484 0.0973497 0.40801
H2_2 H 0.882847 0.0813795 0.452275
H3_2 H 0.834509 0.229037 0.408462
H5_2 H 0.884224 0.106357 0.313511
H6_2 H 0.756069 0.279377 0.308637
H7_2 H 0.685206 0.139827 0.312561
H8_2 H 0.728009 0.0039137 0.214705
H9_2 H 0.67519 0.161589 0.16725
H10_2 H 0.798872 0.143464 0.210781
H4_2 H 0.812313 0.965068 0.313026
N1_3 N 0.6721(12) 0.6247(10) 0.0947(10)
C7_3 C 0.6738(18) 0.5745(28) 0.1735(12)
C8_3 C 0.7583(19) 0.6696(29) 0.2030(16)
C9_3 C 0.7645(18) 0.6158(19) 0.2833(15)
H1_3 H 0.732516 0.59735 0.0919904
H2_3 H 0.617153 0.58138 0.0477248
H3_3 H 0.665491 0.729037 0.0915379
H4_3 H 0.687687 0.465068 0.186974
H5_3 H 0.615776 0.606357 0.186489
H6_3 H 0.743931 0.779377 0.191363
H7_3 H 0.814794 0.639827 0.187439
H8_3 H 0.771991 0.503914 0.285295
H9_3 H 0.82481 0.661589 0.33275
H10_3 H 0.701128 0.643464 0.289219
N1_4 N 0.3279(12) 0.6247(10) 0.4053(10)
C7_4 C 0.3262(18) 0.5745(28) 0.3265(12)
C8_4 C 0.2417(19) 0.6696(29) 0.2970(16)
C9_4 C 0.2355(18) 0.6158(19) 0.2167(15)
H1_4 H 0.267484 0.59735 0.40801
H2_4 H 0.382847 0.58138 0.452275
H3_4 H 0.334509 0.729037 0.408462
H4_4 H 0.312313 0.465068 0.313026
H5_4 H 0.384224 0.606357 0.313511
H6_4 H 0.256069 0.779377 0.308637
H7_4 H 0.185206 0.639827 0.312561
H8_4 H 0.228009 0.503914 0.214705
H9_4 H 0.17519 0.661589 0.16725
H10_4 H 0.298872 0.643464 0.210781
H4_5 H 0.812313 0.0349318 0.813026
N1_5 N 0.8279(12) 0.8753(10) 0.9053(10)
C7_5 C 0.8262(18) 0.9255(28) 0.8265(12)
C8_5 C 0.7417(19) 0.8304(29) 0.7970(16)
C9_5 C 0.7355(18) 0.8842(19) 0.7167(15)
H1_5 H 0.767484 0.90265 0.90801
H2_5 H 0.882847 0.91862 0.952275
H3_5 H 0.834509 0.770963 0.908462
H5_5 H 0.884224 0.893643 0.813511
H6_5 H 0.756069 0.720623 0.808637
H7_5 H 0.685206 0.860173 0.812561
H8_5 H 0.728009 0.996086 0.714705
H9_5 H 0.67519 0.838411 0.66725
H10_5 H 0.798872 0.856536 0.710781
H4_6 H 0.187687 0.0349318 0.686974
N1_6 N 0.1721(12) 0.8753(10) 0.5947(10)
C7_6 C 0.1738(18) 0.9255(28) 0.6735(12)
C8_6 C 0.2583(19) 0.8304(29) 0.7030(16)
C9_6 C 0.2645(18) 0.8842(19) 0.7833(15)
H1_6 H 0.232516 0.90265 0.59199
H2_6 H 0.117153 0.91862 0.547725
H3_6 H 0.165491 0.770963 0.591538
H5_6 H 0.115776 0.893643 0.686489
H6_6 H 0.243931 0.720623 0.691363
H7_6 H 0.314794 0.860173 0.687439
H8_6 H 0.271991 0.996086 0.785295
H9_6 H 0.32481 0.838411 0.83275
H10_6 H 0.201128 0.856536 0.789219
N1_7 N 0.3279(12) 0.3753(10) 0.9053(10)
C7_7 C 0.3262(18) 0.4255(28) 0.8265(12)
C8_7 C 0.2417(19) 0.3304(29) 0.7970(16)
C9_7 C 0.2355(18) 0.3842(19) 0.7167(15)
H1_7 H 0.267484 0.40265 0.90801
H2_7 H 0.382847 0.41862 0.952275
H3_7 H 0.334509 0.270963 0.908462
H4_7 H 0.312313 0.534932 0.813026
H5_7 H 0.384224 0.393643 0.813511
H6_7 H 0.256069 0.220623 0.808637
H7_7 H 0.185206 0.360173 0.812561
H8_7 H 0.228009 0.496086 0.714705
H9_7 H 0.17519 0.338411 0.66725
H10_7 H 0.298872 0.356536 0.710781
N1_8 N 0.6721(12) 0.3753(10) 0.5947(10)
C7_8 C 0.6738(18) 0.4255(28) 0.6735(12)
C8_8 C 0.7583(19) 0.3304(29) 0.7030(16)
C9_8 C 0.7645(18) 0.3842(19) 0.7833(15)
H1_8 H 0.732516 0.40265 0.59199
H2_8 H 0.617153 0.41862 0.547725
H3_8 H 0.665491 0.270963 0.591538
H4_8 H 0.687687 0.534932 0.686974
H5_8 H 0.615776 0.393643 0.686489
H6_8 H 0.743931 0.220623 0.691363
H7_8 H 0.814794 0.360173 0.687439
H8_8 H 0.771991 0.496086 0.785295
H9_8 H 0.82481 0.338411 0.83275
H10_8 H 0.701128 0.356536 0.789219
loop_
_geom_bond_atom_site_label_1
_geom_bond_atom_site_label_2
_geom_bond_site_symmetry_1
_geom_bond_site_symmetry_2
Zn1 O1 1_555 1_555
O1 C3 1_555 1_555
O3 Zn1 1_555 1_555
O5 C3 1_555 1_555
C1 O3 1_555 1_555
C3 C5 1_555 1_555
C5 O7 1_555 1_555
O7 Zn2 1_555 1_555
O8 Zn1 1_555 1_555
O9 C6 1_555 1_555
O10 Zn1 1_555 1_555
O11 C1 1_555 1_555
Zn2 O5 1_555 1_555
Zn4 O11 1_555 1_555
O13 Zn2 1_555 1_555
O14 Zn2 1_555 1_555
O15 Zn2 1_555 1_555
C1 C2 1_555 1_555
C5 O8 1_555 1_555
C6 O10 1_555 1_555
O6 C4 1_555 1_555
C4 O2 1_555 1_555
Zn3 O6 1_555 1_555
O5_2 C3_2 1_555 1_555
O7_2 Zn2_2 1_555 1_555
Zn2_2 O5_2 1_555 1_555
O13_2 Zn2_2 1_555 1_555
O14_2 Zn2_2 1_555 1_555
O15_2 Zn2_2 1_555 1_555
Zn4 O1_2 1_555 1_555
O8_2 Zn4 1_555 1_555
O10_2 Zn4 1_555 1_555
C5_2 O8_2 1_555 1_555
C6_2 O10_2 1_555 1_555
O6_2 C4_2 1_555 1_555
Zn3_2 O6_2 1_555 1_555
O13 C6_3 1_555 1_555
O11_2 C1_2 1_555 1_555
O12_2 C2_2 1_555 1_555
Zn4_2 O11_2 1_555 1_555
C1_2 C2_2 1_555 1_555
C6_3 O10_3 1_555 1_555
O12_2 Zn4_2 1_555 1_555
Zn1_2 O1_3 1_555 1_555
O1_3 C3_3 1_555 1_555
O2_3 Zn1_2 1_555 1_555
O3_2 Zn1_2 1_555 1_555
O4_2 Zn1_2 1_555 1_555
O5_3 C3_3 1_555 1_555
O16 C4_3 1_555 1_555
C1_3 O3_2 1_555 1_555
C2_3 O4_2 1_555 1_555
C3_3 C5_3 1_555 1_555
C4_3 O2_3 1_555 1_555
C5_3 O7_3 1_555 1_555
O7_3 Zn3 1_555 1_555
O8_3 Zn1_2 1_555 1_555
Zn3 O5_3 1_555 1_555
O14_3 Zn3 1_555 1_555
C1_3 C2_3 1_555 1_555
C5_3 O8_3 1_555 1_555
O5_4 C3_4 1_555 1_555
O16_2 C4_4 1_555 1_555
O7_4 Zn3_2 1_555 1_555
Zn3_2 O5_4 1_555 1_555
O14_4 Zn3_2 1_555 1_555
Zn4_2 O1_4 1_555 1_555
O2_4 Zn4_2 1_555 1_555
O8_4 Zn4_2 1_555 1_555
C5_4 O8_4 1_555 1_555
C6_4 O10_4 1_555 1_555
C1_4 O14_3 1_555 1_555
O14_4 C1_4 1_555 1_555
C1_4 C2_4 1_555 1_555
C1_5 O14 1_555 1_555
C2_5 O15 1_555 1_555
C1_5 C2_5 1_555 1_555
O14_2 C1_6 1_555 1_555
O15_2 C2_6 1_555 1_555
C1_6 C2_6 1_555 1_555
N1 C7 1_555 1_555
C7 C8 1_555 1_555
C8 C9 1_555 1_555
N1 H1 1_555 1_555
N1 H2 1_555 1_555
N1 H3 1_555 1_555
C7 H5 1_555 1_555
C8 H6 1_555 1_555
C8 H7 1_555 1_555
C9 H8 1_555 1_555
C9 H9 1_555 1_555
C9 H10 1_555 1_555
N1_2 C7_2 1_555 1_555
C7_2 C8_2 1_555 1_555
C8_2 C9_2 1_555 1_555
N1_2 H1_2 1_555 1_555
N1_2 H2_2 1_555 1_555
N1_2 H3_2 1_555 1_555
C7_2 H5_2 1_555 1_555
C8_2 H6_2 1_555 1_555
C8_2 H7_2 1_555 1_555
C9_2 H8_2 1_555 1_555
C9_2 H9_2 1_555 1_555
C9_2 H10_2 1_555 1_555
N1_3 C7_3 1_555 1_555
C7_3 C8_3 1_555 1_555
C8_3 C9_3 1_555 1_555
N1_3 H1_3 1_555 1_555
N1_3 H2_3 1_555 1_555
N1_3 H3_3 1_555 1_555
C7_3 H4_3 1_555 1_555
C7_3 H5_3 1_555 1_555
C8_3 H6_3 1_555 1_555
C8_3 H7_3 1_555 1_555
C9_3 H8_3 1_555 1_555
C9_3 H9_3 1_555 1_555
C9_3 H10_3 1_555 1_555
N1_4 C7_4 1_555 1_555
C7_4 C8_4 1_555 1_555
C8_4 C9_4 1_555 1_555
N1_4 H1_4 1_555 1_555
N1_4 H2_4 1_555 1_555
N1_4 H3_4 1_555 1_555
C7_4 H4_4 1_555 1_555
C7_4 H5_4 1_555 1_555
C8_4 H6_4 1_555 1_555
C8_4 H7_4 1_555 1_555
C9_4 H8_4 1_555 1_555
C9_4 H9_4 1_555 1_555
C9_4 H10_4 1_555 1_555
N1_5 C7_5 1_555 1_555
C7_5 C8_5 1_555 1_555
C8_5 C9_5 1_555 1_555
N1_5 H1_5 1_555 1_555
N1_5 H2_5 1_555 1_555
N1_5 H3_5 1_555 1_555
C7_5 H5_5 1_555 1_555
C8_5 H6_5 1_555 1_555
C8_5 H7_5 1_555 1_555
C9_5 H8_5 1_555 1_555
C9_5 H9_5 1_555 1_555
C9_5 H10_5 1_555 1_555
N1_6 C7_6 1_555 1_555
C7_6 C8_6 1_555 1_555
C8_6 C9_6 1_555 1_555
N1_6 H1_6 1_555 1_555
N1_6 H2_6 1_555 1_555
N1_6 H3_6 1_555 1_555
C7_6 H5_6 1_555 1_555
C8_6 H6_6 1_555 1_555
C8_6 H7_6 1_555 1_555
C9_6 H8_6 1_555 1_555
C9_6 H9_6 1_555 1_555
C9_6 H10_6 1_555 1_555
N1_7 C7_7 1_555 1_555
C7_7 C8_7 1_555 1_555
C8_7 C9_7 1_555 1_555
N1_7 H1_7 1_555 1_555
N1_7 H2_7 1_555 1_555
N1_7 H3_7 1_555 1_555
C7_7 H4_7 1_555 1_555
C7_7 H5_7 1_555 1_555
C8_7 H6_7 1_555 1_555
C8_7 H7_7 1_555 1_555
C9_7 H8_7 1_555 1_555
C9_7 H9_7 1_555 1_555
C9_7 H10_7 1_555 1_555
N1_8 C7_8 1_555 1_555
C7_8 C8_8 1_555 1_555
C8_8 C9_8 1_555 1_555
N1_8 H1_8 1_555 1_555
N1_8 H2_8 1_555 1_555
N1_8 H3_8 1_555 1_555
C7_8 H4_8 1_555 1_555
C7_8 H5_8 1_555 1_555
C8_8 H6_8 1_555 1_555
C8_8 H7_8 1_555 1_555
C9_8 H8_8 1_555 1_555
C9_8 H9_8 1_555 1_555
C9_8 H10_8 1_555 1_555

#END
