
###############################################################################
#
# This file contains modified crystal structure data generated from the
# MOF subset of the Cambridge Structural Database (CSD) v543 
# hosted by the Cambridge Crystallographic Data Centre (CCDC).
#
# This work is licensed under the Creative Commons
# Attribution-NonCommercial-ShareAlike 4.0 International License.
# To view a copy of this license, visit
# http://creativecommons.org/licenses/by-nc-sa/4.0/
# or send a letter to
# Creative Commons, PO Box 1866, Mountain View, CA 94042, USA.
#
# CIF created using the CSD Python API on 29 September 2022
# The structure has been converted into the P1 space group
# The structure has a 3D framework
# The original CSD entry SICNEA is in the cubic crystal system
# The framework has been calculated to contain at least 10.0% void space
# The void calculation uses a probe of radius 1.32A, grid spacing 0.4
# The framework is charged, counterions have been retained in the structure
#
###############################################################################

data_SICNEA
_chemical_formula_moiety         '(C624 H672 Cd16 Mo144 N192 O528 P18 4-)n'
_symmetry_cell_setting           triclinic
_symmetry_space_group_name_H-M   'P 1'
_symmetry_Int_Tables_number      1
_space_group_name_Hall           'P 1'
loop_
_symmetry_equiv_pos_site_id
_symmetry_equiv_pos_as_xyz
1 x,y,z
_cell_length_a                   30.1254(9)
_cell_length_b                   30.1254(9)
_cell_length_c                   30.1254(9)
_cell_angle_alpha                90
_cell_angle_beta                 90
_cell_angle_gamma                90
_cell_volume                     27340
loop_
_atom_site_label
_atom_site_type_symbol
_atom_site_fract_x
_atom_site_fract_y
_atom_site_fract_z
Mo2 Mo 0.85503(6) 0.12780(5) 0.05364(7)
O3 O 0.8545(4) 0.0877(4) 0.0050(4)
O4 O 0.9043(5) 0.1168(5) 0.0776(6)
O5 O 0.8716(4) 0.1743(4) 0.0127(5)
O7 O 0.8124(4) 0.2361(3) 0.0332(4)
O9 O 0.7873(4) 0.1546(3) 0.0197(3)
P1 P 0.750000 0.125000 0.000000
O13 O 0.7303(3) 0.0954(3) 0.0373(4)
Mo7 Mo 0.67134(6) 0.04251(5) 0.02966(6)
Mo9 Mo 0.67062(6) 0.20848(5) 0.02221(6)
O23 O 0.6304(4) 0.0049(4) 0.0319(6)
O24 O 0.6585(4) 0.0763(4) 0.0807(5)
O28 O 0.6365(5) 0.2477(4) 0.0442(6)
O30 O 0.7248(4) 0.2236(3) 0.0481(4)
O31 O 0.6689(4) 0.1632(3) 0.0664(4)
Mo10 Mo 0.77966(6) 0.20749(5) 0.07866(6)
Mo11 Mo 0.69636(7) 0.12220(5) 0.10503(6)
Mo12 Mo 0.77221(6) 0.04152(5) 0.07938(6)
O32 O 0.7819(6) 0.2451(4) 0.1196(4)
O33 O 0.8307(5) 0.1737(4) 0.0915(4)
O34 O 0.7450(4) 0.1623(4) 0.1045(4)
O35 O 0.6724(6) 0.1332(5) 0.1543(5)
O36 O 0.7373(5) 0.0757(4) 0.1216(4)
O37 O 0.7942(6) 0.0023(4) 0.1135(5)
O38 O 0.7168(4) 0.0139(3) 0.0624(4)
O39 O 0.7981(4) 0.0264(3) 0.0252(4)
O40 O 0.8164(4) 0.0868(3) 0.0811(4)
Mo1 Mo 0.82866(6) 0.04251(5) 0.97034(6)
Mo3 Mo 0.82938(6) 0.20848(5) 0.97779(6)
O1 O 0.8696(4) 0.0049(4) 0.9681(6)
O2 O 0.8415(4) 0.0763(4) 0.9193(5)
O6 O 0.8635(5) 0.2477(4) 0.9558(6)
O8 O 0.7752(4) 0.2236(3) 0.9519(4)
O10 O 0.8311(4) 0.1632(3) 0.9336(4)
P1_2 P 0.750000 0.125000 1.000000
O11 O 0.7697(3) 0.0954(3) 0.9627(4)
O12 O 0.7127(4) 0.1546(3) 0.9803(3)
Mo4 Mo 0.72034(6) 0.20749(5) 0.92134(6)
Mo5 Mo 0.80364(7) 0.12220(5) 0.89497(6)
Mo6 Mo 0.72779(6) 0.04152(5) 0.92062(6)
O14 O 0.7181(6) 0.2451(4) 0.8804(4)
O15 O 0.6693(5) 0.1737(4) 0.9085(4)
O16 O 0.7550(4) 0.1623(4) 0.8955(4)
O17 O 0.8276(6) 0.1332(5) 0.8457(5)
O18 O 0.7627(5) 0.0757(4) 0.8784(4)
O19 O 0.7058(6) 0.0023(4) 0.8865(5)
O20 O 0.7832(4) 0.0139(3) 0.9376(4)
O21 O 0.7019(4) 0.0264(3) 0.9748(4)
O22 O 0.6836(4) 0.0868(3) 0.9189(4)
Mo8 Mo 0.64497(6) 0.12780(5) 0.94636(7)
O25 O 0.6455(4) 0.0877(4) 0.9950(4)
O26 O 0.5957(5) 0.1168(5) 0.9224(6)
O27 O 0.6284(4) 0.1743(4) 0.9873(5)
O29 O 0.6876(4) 0.2361(3) 0.9668(4)
Mo1_2 Mo 0.67134(6) 0.95749(5) 0.47034(6)
Mo2_2 Mo 0.64497(6) 0.87220(5) 0.55364(7)
Mo3_2 Mo 0.67062(6) 0.79152(5) 0.47779(6)
O1_2 O 0.6304(4) 0.9951(4) 0.4681(6)
O2_2 O 0.6585(4) 0.9237(4) 0.4193(5)
O3_2 O 0.6455(4) 0.9123(4) 0.5050(4)
O4_2 O 0.5957(5) 0.8832(5) 0.5776(6)
O5_2 O 0.6284(4) 0.8257(4) 0.5127(5)
O6_2 O 0.6365(5) 0.7523(4) 0.4558(6)
O7_2 O 0.6876(4) 0.7639(3) 0.5332(4)
O8_2 O 0.7248(4) 0.7764(3) 0.4519(4)
O9_2 O 0.7127(4) 0.8454(3) 0.5197(3)
O10_2 O 0.6689(4) 0.8368(3) 0.4336(4)
P1_3 P 0.750000 0.875000 0.500000
O11_2 O 0.7303(3) 0.9046(3) 0.4627(4)
O12_2 O 0.7873(4) 0.8454(3) 0.4803(3)
O13_2 O 0.7697(3) 0.9046(3) 0.5373(4)
Mo4_2 Mo 0.77966(6) 0.79251(5) 0.42134(6)
Mo5_2 Mo 0.69636(7) 0.87780(5) 0.39497(6)
Mo6_2 Mo 0.77221(6) 0.95848(5) 0.42062(6)
O14_2 O 0.7819(6) 0.7549(4) 0.3804(4)
O15_2 O 0.8307(5) 0.8263(4) 0.4085(4)
O16_2 O 0.7450(4) 0.8377(4) 0.3955(4)
O17_2 O 0.6724(6) 0.8668(5) 0.3457(5)
O18_2 O 0.7373(5) 0.9243(4) 0.3784(4)
O19_2 O 0.7942(6) 0.9977(4) 0.3865(5)
O20_2 O 0.7168(4) 0.9861(3) 0.4376(4)
O21_2 O 0.7981(4) 0.9736(3) 0.4748(4)
O22_2 O 0.8164(4) 0.9132(3) 0.4189(4)
Mo7_2 Mo 0.82866(6) 0.95749(5) 0.52966(6)
Mo8_2 Mo 0.85503(6) 0.87220(5) 0.44636(7)
Mo9_2 Mo 0.82938(6) 0.79152(5) 0.52221(6)
O23_2 O 0.8696(4) 0.9951(4) 0.5319(6)
O24_2 O 0.8415(4) 0.9237(4) 0.5807(5)
O25_2 O 0.8545(4) 0.9123(4) 0.4950(4)
O26_2 O 0.9043(5) 0.8832(5) 0.4224(6)
O27_2 O 0.8716(4) 0.8257(4) 0.4873(5)
O28_2 O 0.8635(5) 0.7523(4) 0.5442(6)
O29_2 O 0.8124(4) 0.7639(3) 0.4668(4)
O30_2 O 0.7752(4) 0.7764(3) 0.5481(4)
O31_2 O 0.8311(4) 0.8368(3) 0.5664(4)
Mo10_2 Mo 0.72034(6) 0.79251(5) 0.57866(6)
Mo11_2 Mo 0.80364(7) 0.87780(5) 0.60503(6)
Mo12_2 Mo 0.72779(6) 0.95848(5) 0.57938(6)
O32_2 O 0.7181(6) 0.7549(4) 0.6196(4)
O33_2 O 0.6693(5) 0.8263(4) 0.5915(4)
O34_2 O 0.7550(4) 0.8377(4) 0.6045(4)
O35_2 O 0.8276(6) 0.8668(5) 0.6543(5)
O36_2 O 0.7627(5) 0.9243(4) 0.6216(4)
O37_2 O 0.7058(6) 0.9977(4) 0.6135(5)
O38_2 O 0.7832(4) 0.9861(3) 0.5624(4)
O39_2 O 0.7019(4) 0.9736(3) 0.5252(4)
O40_2 O 0.6836(4) 0.9132(3) 0.5811(4)
Mo1_3 Mo 0.17134(6) 0.54251(5) 0.52966(6)
Mo2_3 Mo 0.14497(6) 0.62780(5) 0.44636(7)
Mo3_3 Mo 0.17062(6) 0.70848(5) 0.52221(6)
O1_3 O 0.1304(4) 0.5049(4) 0.5319(6)
O2_3 O 0.1585(4) 0.5763(4) 0.5807(5)
O3_3 O 0.1455(4) 0.5877(4) 0.4950(4)
O4_3 O 0.0957(5) 0.6168(5) 0.4224(6)
O5_3 O 0.1284(4) 0.6743(4) 0.4873(5)
O6_3 O 0.1365(5) 0.7477(4) 0.5442(6)
O7_3 O 0.1876(4) 0.7361(3) 0.4668(4)
O8_3 O 0.2248(4) 0.7236(3) 0.5481(4)
O9_3 O 0.2127(4) 0.6546(3) 0.4803(3)
O10_3 O 0.1689(4) 0.6632(3) 0.5664(4)
P1_4 P 0.250000 0.625000 0.500000
O11_3 O 0.2303(3) 0.5954(3) 0.5373(4)
O12_3 O 0.2873(4) 0.6546(3) 0.5197(3)
O13_3 O 0.2697(3) 0.5954(3) 0.4627(4)
Mo4_3 Mo 0.27966(6) 0.70749(5) 0.57866(6)
Mo5_3 Mo 0.19636(7) 0.62220(5) 0.60503(6)
Mo6_3 Mo 0.27221(6) 0.54152(5) 0.57938(6)
O14_3 O 0.2819(6) 0.7451(4) 0.6196(4)
O15_3 O 0.3307(5) 0.6737(4) 0.5915(4)
O16_3 O 0.2450(4) 0.6623(4) 0.6045(4)
O17_3 O 0.1724(6) 0.6332(5) 0.6543(5)
O18_3 O 0.2373(5) 0.5757(4) 0.6216(4)
O19_3 O 0.2942(6) 0.5023(4) 0.6135(5)
O20_3 O 0.2168(4) 0.5139(3) 0.5624(4)
O21_3 O 0.2981(4) 0.5264(3) 0.5252(4)
O22_3 O 0.3164(4) 0.5868(3) 0.5811(4)
Mo7_3 Mo 0.32866(6) 0.54251(5) 0.47034(6)
Mo8_3 Mo 0.35503(6) 0.62780(5) 0.55364(7)
Mo9_3 Mo 0.32938(6) 0.70848(5) 0.47779(6)
O23_3 O 0.3696(4) 0.5049(4) 0.4681(6)
O24_3 O 0.3415(4) 0.5763(4) 0.4193(5)
O25_3 O 0.3545(4) 0.5877(4) 0.5050(4)
O26_3 O 0.4043(5) 0.6168(5) 0.5776(6)
O27_3 O 0.3716(4) 0.6743(4) 0.5127(5)
O28_3 O 0.3635(5) 0.7477(4) 0.4558(6)
O29_3 O 0.3124(4) 0.7361(3) 0.5332(4)
O30_3 O 0.2752(4) 0.7236(3) 0.4519(4)
O31_3 O 0.3311(4) 0.6632(3) 0.4336(4)
Mo10_3 Mo 0.22034(6) 0.70749(5) 0.42134(6)
Mo11_3 Mo 0.30364(7) 0.62220(5) 0.39497(6)
Mo12_3 Mo 0.22779(6) 0.54152(5) 0.42062(6)
O32_3 O 0.2181(6) 0.7451(4) 0.3804(4)
O33_3 O 0.1693(5) 0.6737(4) 0.4085(4)
O34_3 O 0.2550(4) 0.6623(4) 0.3955(4)
O35_3 O 0.3276(6) 0.6332(5) 0.3457(5)
O36_3 O 0.2627(5) 0.5757(4) 0.3784(4)
O37_3 O 0.2058(6) 0.5023(4) 0.3865(5)
O38_3 O 0.2832(4) 0.5139(3) 0.4376(4)
O39_3 O 0.2019(4) 0.5264(3) 0.4748(4)
O40_3 O 0.1836(4) 0.5868(3) 0.4189(4)
Mo1_4 Mo 0.32866(6) 0.45749(5) 0.02966(6)
Mo3_4 Mo 0.32938(6) 0.29152(5) 0.02221(6)
O1_4 O 0.3696(4) 0.4951(4) 0.0319(6)
O2_4 O 0.3415(4) 0.4237(4) 0.0807(5)
O6_4 O 0.3635(5) 0.2523(4) 0.0442(6)
O8_4 O 0.2752(4) 0.2764(3) 0.0481(4)
O10_4 O 0.3311(4) 0.3368(3) 0.0664(4)
P1_5 P 0.250000 0.375000 0.000000
O11_4 O 0.2697(3) 0.4046(3) 0.0373(4)
O12_4 O 0.2127(4) 0.3454(3) 0.0197(3)
Mo4_4 Mo 0.22034(6) 0.29251(5) 0.07866(6)
Mo5_4 Mo 0.30364(7) 0.37780(5) 0.10503(6)
Mo6_4 Mo 0.22779(6) 0.45848(5) 0.07938(6)
O14_4 O 0.2181(6) 0.2549(4) 0.1196(4)
O15_4 O 0.1693(5) 0.3263(4) 0.0915(4)
O16_4 O 0.2550(4) 0.3377(4) 0.1045(4)
O17_4 O 0.3276(6) 0.3668(5) 0.1543(5)
O18_4 O 0.2627(5) 0.4243(4) 0.1216(4)
O19_4 O 0.2058(6) 0.4977(4) 0.1135(5)
O20_4 O 0.2832(4) 0.4861(3) 0.0624(4)
O21_4 O 0.2019(4) 0.4736(3) 0.0252(4)
O22_4 O 0.1836(4) 0.4132(3) 0.0811(4)
Mo8_4 Mo 0.14497(6) 0.37220(5) 0.05364(7)
O25_4 O 0.1455(4) 0.4123(4) 0.0050(4)
O26_4 O 0.0957(5) 0.3832(5) 0.0776(6)
O27_4 O 0.1284(4) 0.3257(4) 0.0127(5)
O29_4 O 0.1876(4) 0.2639(3) 0.0332(4)
Mo2_4 Mo 0.35503(6) 0.37220(5) 0.94636(7)
O3_4 O 0.3545(4) 0.4123(4) 0.9950(4)
O4_4 O 0.4043(5) 0.3832(5) 0.9224(6)
O5_4 O 0.3716(4) 0.3257(4) 0.9873(5)
O7_4 O 0.3124(4) 0.2639(3) 0.9668(4)
O9_4 O 0.2873(4) 0.3454(3) 0.9803(3)
P1_6 P 0.250000 0.375000 1.000000
O13_4 O 0.2303(3) 0.4046(3) 0.9627(4)
Mo7_4 Mo 0.17134(6) 0.45749(5) 0.97034(6)
Mo9_4 Mo 0.17062(6) 0.29152(5) 0.97779(6)
O23_4 O 0.1304(4) 0.4951(4) 0.9681(6)
O24_4 O 0.1585(4) 0.4237(4) 0.9193(5)
O28_4 O 0.1365(5) 0.2523(4) 0.9558(6)
O30_4 O 0.2248(4) 0.2764(3) 0.9519(4)
O31_4 O 0.1689(4) 0.3368(3) 0.9336(4)
Mo10_4 Mo 0.27966(6) 0.29251(5) 0.92134(6)
Mo11_4 Mo 0.19636(7) 0.37780(5) 0.89497(6)
Mo12_4 Mo 0.27221(6) 0.45848(5) 0.92062(6)
O32_4 O 0.2819(6) 0.2549(4) 0.8804(4)
O33_4 O 0.3307(5) 0.3263(4) 0.9085(4)
O34_4 O 0.2450(4) 0.3377(4) 0.8955(4)
O35_4 O 0.1724(6) 0.3668(5) 0.8457(5)
O36_4 O 0.2373(5) 0.4243(4) 0.8784(4)
O37_4 O 0.2942(6) 0.4977(4) 0.8865(5)
O38_4 O 0.2168(4) 0.4861(3) 0.9376(4)
O39_4 O 0.2981(4) 0.4736(3) 0.9748(4)
O40_4 O 0.3164(4) 0.4132(3) 0.9189(4)
Mo2_5 Mo 0.05364(7) 0.85503(6) 0.12780(5)
O3_5 O 0.0050(4) 0.8545(4) 0.0877(4)
O4_5 O 0.0776(6) 0.9043(5) 0.1168(5)
O5_5 O 0.0127(5) 0.8716(4) 0.1743(4)
O7_5 O 0.0332(4) 0.8124(4) 0.2361(3)
O9_5 O 0.0197(3) 0.7873(4) 0.1546(3)
P1_7 P 0.000000 0.750000 0.125000
O13_5 O 0.0373(4) 0.7303(3) 0.0954(3)
Mo7_5 Mo 0.02966(6) 0.67134(6) 0.04251(5)
Mo9_5 Mo 0.02221(6) 0.67062(6) 0.20848(5)
O23_5 O 0.0319(6) 0.6304(4) 0.0049(4)
O24_5 O 0.0807(5) 0.6585(4) 0.0763(4)
O28_5 O 0.0442(6) 0.6365(5) 0.2477(4)
O30_5 O 0.0481(4) 0.7248(4) 0.2236(3)
O31_5 O 0.0664(4) 0.6689(4) 0.1632(3)
Mo10_5 Mo 0.07866(6) 0.77966(6) 0.20749(5)
Mo11_5 Mo 0.10503(6) 0.69636(7) 0.12220(5)
Mo12_5 Mo 0.07938(6) 0.77221(6) 0.04152(5)
O32_5 O 0.1196(4) 0.7819(6) 0.2451(4)
O33_5 O 0.0915(4) 0.8307(5) 0.1737(4)
O34_5 O 0.1045(4) 0.7450(4) 0.1623(4)
O35_5 O 0.1543(5) 0.6724(6) 0.1332(5)
O36_5 O 0.1216(4) 0.7373(5) 0.0757(4)
O37_5 O 0.1135(5) 0.7942(6) 0.0023(4)
O38_5 O 0.0624(4) 0.7168(4) 0.0139(3)
O39_5 O 0.0252(4) 0.7981(4) 0.0264(3)
O40_5 O 0.0811(4) 0.8164(4) 0.0868(3)
Mo1_5 Mo 0.97034(6) 0.82866(6) 0.04251(5)
Mo3_5 Mo 0.97779(6) 0.82938(6) 0.20848(5)
O1_5 O 0.9681(6) 0.8696(4) 0.0049(4)
O2_5 O 0.9193(5) 0.8415(4) 0.0763(4)
O6_5 O 0.9558(6) 0.8635(5) 0.2477(4)
O8_5 O 0.9519(4) 0.7752(4) 0.2236(3)
O10_5 O 0.9336(4) 0.8311(4) 0.1632(3)
P1_8 P 1.000000 0.750000 0.125000
O11_5 O 0.9627(4) 0.7697(3) 0.0954(3)
O12_5 O 0.9803(3) 0.7127(4) 0.1546(3)
Mo4_5 Mo 0.92134(6) 0.72034(6) 0.20749(5)
Mo5_5 Mo 0.89497(6) 0.80364(7) 0.12220(5)
Mo6_5 Mo 0.92062(6) 0.72779(6) 0.04152(5)
O14_5 O 0.8804(4) 0.7181(6) 0.2451(4)
O15_5 O 0.9085(4) 0.6693(5) 0.1737(4)
O16_5 O 0.8955(4) 0.7550(4) 0.1623(4)
O17_5 O 0.8457(5) 0.8276(6) 0.1332(5)
O18_5 O 0.8784(4) 0.7627(5) 0.0757(4)
O19_5 O 0.8865(5) 0.7058(6) 0.0023(4)
O20_5 O 0.9376(4) 0.7832(4) 0.0139(3)
O21_5 O 0.9748(4) 0.7019(4) 0.0264(3)
O22_5 O 0.9189(4) 0.6836(4) 0.0868(3)
Mo8_5 Mo 0.94636(7) 0.64497(6) 0.12780(5)
O25_5 O 0.9950(4) 0.6455(4) 0.0877(4)
O26_5 O 0.9224(6) 0.5957(5) 0.1168(5)
O27_5 O 0.9873(5) 0.6284(4) 0.1743(4)
O29_5 O 0.9668(4) 0.6876(4) 0.2361(3)
Mo1_6 Mo 0.47034(6) 0.67134(6) 0.95749(5)
Mo2_6 Mo 0.55364(7) 0.64497(6) 0.87220(5)
Mo3_6 Mo 0.47779(6) 0.67062(6) 0.79152(5)
O1_6 O 0.4681(6) 0.6304(4) 0.9951(4)
O2_6 O 0.4193(5) 0.6585(4) 0.9237(4)
O3_6 O 0.5050(4) 0.6455(4) 0.9123(4)
O4_6 O 0.5776(6) 0.5957(5) 0.8832(5)
O5_6 O 0.5127(5) 0.6284(4) 0.8257(4)
O6_6 O 0.4558(6) 0.6365(5) 0.7523(4)
O7_6 O 0.5332(4) 0.6876(4) 0.7639(3)
O8_6 O 0.4519(4) 0.7248(4) 0.7764(3)
O9_6 O 0.5197(3) 0.7127(4) 0.8454(3)
O10_6 O 0.4336(4) 0.6689(4) 0.8368(3)
P1_9 P 0.500000 0.750000 0.875000
O11_6 O 0.4627(4) 0.7303(3) 0.9046(3)
O12_6 O 0.4803(3) 0.7873(4) 0.8454(3)
O13_6 O 0.5373(4) 0.7697(3) 0.9046(3)
Mo4_6 Mo 0.42134(6) 0.77966(6) 0.79251(5)
Mo5_6 Mo 0.39497(6) 0.69636(7) 0.87780(5)
Mo6_6 Mo 0.42062(6) 0.77221(6) 0.95848(5)
O14_6 O 0.3804(4) 0.7819(6) 0.7549(4)
O15_6 O 0.4085(4) 0.8307(5) 0.8263(4)
O16_6 O 0.3955(4) 0.7450(4) 0.8377(4)
O17_6 O 0.3457(5) 0.6724(6) 0.8668(5)
O18_6 O 0.3784(4) 0.7373(5) 0.9243(4)
O19_6 O 0.3865(5) 0.7942(6) 0.9977(4)
O20_6 O 0.4376(4) 0.7168(4) 0.9861(3)
O21_6 O 0.4748(4) 0.7981(4) 0.9736(3)
O22_6 O 0.4189(4) 0.8164(4) 0.9132(3)
Mo7_6 Mo 0.52966(6) 0.82866(6) 0.95749(5)
Mo8_6 Mo 0.44636(7) 0.85503(6) 0.87220(5)
Mo9_6 Mo 0.52221(6) 0.82938(6) 0.79152(5)
O23_6 O 0.5319(6) 0.8696(4) 0.9951(4)
O24_6 O 0.5807(5) 0.8415(4) 0.9237(4)
O25_6 O 0.4950(4) 0.8545(4) 0.9123(4)
O26_6 O 0.4224(6) 0.9043(5) 0.8832(5)
O27_6 O 0.4873(5) 0.8716(4) 0.8257(4)
O28_6 O 0.5442(6) 0.8635(5) 0.7523(4)
O29_6 O 0.4668(4) 0.8124(4) 0.7639(3)
O30_6 O 0.5481(4) 0.7752(4) 0.7764(3)
O31_6 O 0.5664(4) 0.8311(4) 0.8368(3)
Mo10_6 Mo 0.57866(6) 0.72034(6) 0.79251(5)
Mo11_6 Mo 0.60503(6) 0.80364(7) 0.87780(5)
Mo12_6 Mo 0.57938(6) 0.72779(6) 0.95848(5)
O32_6 O 0.6196(4) 0.7181(6) 0.7549(4)
O33_6 O 0.5915(4) 0.6693(5) 0.8263(4)
O34_6 O 0.6045(4) 0.7550(4) 0.8377(4)
O35_6 O 0.6543(5) 0.8276(6) 0.8668(5)
O36_6 O 0.6216(4) 0.7627(5) 0.9243(4)
O37_6 O 0.6135(5) 0.7058(6) 0.9977(4)
O38_6 O 0.5624(4) 0.7832(4) 0.9861(3)
O39_6 O 0.5252(4) 0.7019(4) 0.9736(3)
O40_6 O 0.5811(4) 0.6836(4) 0.9132(3)
Mo1_7 Mo 0.52966(6) 0.17134(6) 0.54251(5)
Mo2_7 Mo 0.44636(7) 0.14497(6) 0.62780(5)
Mo3_7 Mo 0.52221(6) 0.17062(6) 0.70848(5)
O1_7 O 0.5319(6) 0.1304(4) 0.5049(4)
O2_7 O 0.5807(5) 0.1585(4) 0.5763(4)
O3_7 O 0.4950(4) 0.1455(4) 0.5877(4)
O4_7 O 0.4224(6) 0.0957(5) 0.6168(5)
O5_7 O 0.4873(5) 0.1284(4) 0.6743(4)
O6_7 O 0.5442(6) 0.1365(5) 0.7477(4)
O7_7 O 0.4668(4) 0.1876(4) 0.7361(3)
O8_7 O 0.5481(4) 0.2248(4) 0.7236(3)
O9_7 O 0.4803(3) 0.2127(4) 0.6546(3)
O10_7 O 0.5664(4) 0.1689(4) 0.6632(3)
P1_10 P 0.500000 0.250000 0.625000
O11_7 O 0.5373(4) 0.2303(3) 0.5954(3)
O12_7 O 0.5197(3) 0.2873(4) 0.6546(3)
O13_7 O 0.4627(4) 0.2697(3) 0.5954(3)
Mo4_7 Mo 0.57866(6) 0.27966(6) 0.70749(5)
Mo5_7 Mo 0.60503(6) 0.19636(7) 0.62220(5)
Mo6_7 Mo 0.57938(6) 0.27221(6) 0.54152(5)
O14_7 O 0.6196(4) 0.2819(6) 0.7451(4)
O15_7 O 0.5915(4) 0.3307(5) 0.6737(4)
O16_7 O 0.6045(4) 0.2450(4) 0.6623(4)
O17_7 O 0.6543(5) 0.1724(6) 0.6332(5)
O18_7 O 0.6216(4) 0.2373(5) 0.5757(4)
O19_7 O 0.6135(5) 0.2942(6) 0.5023(4)
O20_7 O 0.5624(4) 0.2168(4) 0.5139(3)
O21_7 O 0.5252(4) 0.2981(4) 0.5264(3)
O22_7 O 0.5811(4) 0.3164(4) 0.5868(3)
Mo7_7 Mo 0.47034(6) 0.32866(6) 0.54251(5)
Mo8_7 Mo 0.55364(7) 0.35503(6) 0.62780(5)
Mo9_7 Mo 0.47779(6) 0.32938(6) 0.70848(5)
O23_7 O 0.4681(6) 0.3696(4) 0.5049(4)
O24_7 O 0.4193(5) 0.3415(4) 0.5763(4)
O25_7 O 0.5050(4) 0.3545(4) 0.5877(4)
O26_7 O 0.5776(6) 0.4043(5) 0.6168(5)
O27_7 O 0.5127(5) 0.3716(4) 0.6743(4)
O28_7 O 0.4558(6) 0.3635(5) 0.7477(4)
O29_7 O 0.5332(4) 0.3124(4) 0.7361(3)
O30_7 O 0.4519(4) 0.2752(4) 0.7236(3)
O31_7 O 0.4336(4) 0.3311(4) 0.6632(3)
Mo10_7 Mo 0.42134(6) 0.22034(6) 0.70749(5)
Mo11_7 Mo 0.39497(6) 0.30364(7) 0.62220(5)
Mo12_7 Mo 0.42062(6) 0.22779(6) 0.54152(5)
O32_7 O 0.3804(4) 0.2181(6) 0.7451(4)
O33_7 O 0.4085(4) 0.1693(5) 0.6737(4)
O34_7 O 0.3955(4) 0.2550(4) 0.6623(4)
O35_7 O 0.3457(5) 0.3276(6) 0.6332(5)
O36_7 O 0.3784(4) 0.2627(5) 0.5757(4)
O37_7 O 0.3865(5) 0.2058(6) 0.5023(4)
O38_7 O 0.4376(4) 0.2832(4) 0.5139(3)
O39_7 O 0.4748(4) 0.2019(4) 0.5264(3)
O40_7 O 0.4189(4) 0.1836(4) 0.5868(3)
Mo1_8 Mo 0.02966(6) 0.32866(6) 0.45749(5)
Mo3_8 Mo 0.02221(6) 0.32938(6) 0.29152(5)
O1_8 O 0.0319(6) 0.3696(4) 0.4951(4)
O2_8 O 0.0807(5) 0.3415(4) 0.4237(4)
O6_8 O 0.0442(6) 0.3635(5) 0.2523(4)
O8_8 O 0.0481(4) 0.2752(4) 0.2764(3)
O10_8 O 0.0664(4) 0.3311(4) 0.3368(3)
P1_11 P -0.000000 0.250000 0.375000
O11_8 O 0.0373(4) 0.2697(3) 0.4046(3)
O12_8 O 0.0197(3) 0.2127(4) 0.3454(3)
Mo4_8 Mo 0.07866(6) 0.22034(6) 0.29251(5)
Mo5_8 Mo 0.10503(6) 0.30364(7) 0.37780(5)
Mo6_8 Mo 0.07938(6) 0.22779(6) 0.45848(5)
O14_8 O 0.1196(4) 0.2181(6) 0.2549(4)
O15_8 O 0.0915(4) 0.1693(5) 0.3263(4)
O16_8 O 0.1045(4) 0.2550(4) 0.3377(4)
O17_8 O 0.1543(5) 0.3276(6) 0.3668(5)
O18_8 O 0.1216(4) 0.2627(5) 0.4243(4)
O19_8 O 0.1135(5) 0.2058(6) 0.4977(4)
O20_8 O 0.0624(4) 0.2832(4) 0.4861(3)
O21_8 O 0.0252(4) 0.2019(4) 0.4736(3)
O22_8 O 0.0811(4) 0.1836(4) 0.4132(3)
Mo8_8 Mo 0.05364(7) 0.14497(6) 0.37220(5)
O25_8 O 0.0050(4) 0.1455(4) 0.4123(4)
O26_8 O 0.0776(6) 0.0957(5) 0.3832(5)
O27_8 O 0.0127(5) 0.1284(4) 0.3257(4)
O29_8 O 0.0332(4) 0.1876(4) 0.2639(3)
Mo2_8 Mo 0.94636(7) 0.35503(6) 0.37220(5)
O3_8 O 0.9950(4) 0.3545(4) 0.4123(4)
O4_8 O 0.9224(6) 0.4043(5) 0.3832(5)
O5_8 O 0.9873(5) 0.3716(4) 0.3257(4)
O7_8 O 0.9668(4) 0.3124(4) 0.2639(3)
O9_8 O 0.9803(3) 0.2873(4) 0.3454(3)
P1_12 P 1.000000 0.250000 0.375000
O13_8 O 0.9627(4) 0.2303(3) 0.4046(3)
Mo7_8 Mo 0.97034(6) 0.17134(6) 0.45749(5)
Mo9_8 Mo 0.97779(6) 0.17062(6) 0.29152(5)
O23_8 O 0.9681(6) 0.1304(4) 0.4951(4)
O24_8 O 0.9193(5) 0.1585(4) 0.4237(4)
O28_8 O 0.9558(6) 0.1365(5) 0.2523(4)
O30_8 O 0.9519(4) 0.2248(4) 0.2764(3)
O31_8 O 0.9336(4) 0.1689(4) 0.3368(3)
Mo10_8 Mo 0.92134(6) 0.27966(6) 0.29251(5)
Mo11_8 Mo 0.89497(6) 0.19636(7) 0.37780(5)
Mo12_8 Mo 0.92062(6) 0.27221(6) 0.45848(5)
O32_8 O 0.8804(4) 0.2819(6) 0.2549(4)
O33_8 O 0.9085(4) 0.3307(5) 0.3263(4)
O34_8 O 0.8955(4) 0.2450(4) 0.3377(4)
O35_8 O 0.8457(5) 0.1724(6) 0.3668(5)
O36_8 O 0.8784(4) 0.2373(5) 0.4243(4)
O37_8 O 0.8865(5) 0.2942(6) 0.4977(4)
O38_8 O 0.9376(4) 0.2168(4) 0.4861(3)
O39_8 O 0.9748(4) 0.2981(4) 0.4736(3)
O40_8 O 0.9189(4) 0.3164(4) 0.4132(3)
Mo2_9 Mo 0.12780(5) 0.05364(7) 0.85503(6)
O3_9 O 0.0877(4) 0.0050(4) 0.8545(4)
O4_9 O 0.1168(5) 0.0776(6) 0.9043(5)
O5_9 O 0.1743(4) 0.0127(5) 0.8716(4)
O7_9 O 0.2361(3) 0.0332(4) 0.8124(4)
O9_9 O 0.1546(3) 0.0197(3) 0.7873(4)
P1_13 P 0.125000 -0.000000 0.750000
O13_9 O 0.0954(3) 0.0373(4) 0.7303(3)
Mo7_9 Mo 0.04251(5) 0.02966(6) 0.67134(6)
Mo9_9 Mo 0.20848(5) 0.02221(6) 0.67062(6)
O23_9 O 0.0049(4) 0.0319(6) 0.6304(4)
O24_9 O 0.0763(4) 0.0807(5) 0.6585(4)
O28_9 O 0.2477(4) 0.0442(6) 0.6365(5)
O30_9 O 0.2236(3) 0.0481(4) 0.7248(4)
O31_9 O 0.1632(3) 0.0664(4) 0.6689(4)
Mo10_9 Mo 0.20749(5) 0.07866(6) 0.77966(6)
Mo11_9 Mo 0.12220(5) 0.10503(6) 0.69636(7)
Mo12_9 Mo 0.04152(5) 0.07938(6) 0.77221(6)
O32_9 O 0.2451(4) 0.1196(4) 0.7819(6)
O33_9 O 0.1737(4) 0.0915(4) 0.8307(5)
O34_9 O 0.1623(4) 0.1045(4) 0.7450(4)
O35_9 O 0.1332(5) 0.1543(5) 0.6724(6)
O36_9 O 0.0757(4) 0.1216(4) 0.7373(5)
O37_9 O 0.0023(4) 0.1135(5) 0.7942(6)
O38_9 O 0.0139(3) 0.0624(4) 0.7168(4)
O39_9 O 0.0264(3) 0.0252(4) 0.7981(4)
O40_9 O 0.0868(3) 0.0811(4) 0.8164(4)
Mo1_9 Mo 0.04251(5) 0.97034(6) 0.82866(6)
Mo3_9 Mo 0.20848(5) 0.97779(6) 0.82938(6)
O1_9 O 0.0049(4) 0.9681(6) 0.8696(4)
O2_9 O 0.0763(4) 0.9193(5) 0.8415(4)
O6_9 O 0.2477(4) 0.9558(6) 0.8635(5)
O8_9 O 0.2236(3) 0.9519(4) 0.7752(4)
O10_9 O 0.1632(3) 0.9336(4) 0.8311(4)
P1_14 P 0.125000 1.000000 0.750000
O11_9 O 0.0954(3) 0.9627(4) 0.7697(3)
O12_9 O 0.1546(3) 0.9803(3) 0.7127(4)
Mo4_9 Mo 0.20749(5) 0.92134(6) 0.72034(6)
Mo5_9 Mo 0.12220(5) 0.89497(6) 0.80364(7)
Mo6_9 Mo 0.04152(5) 0.92062(6) 0.72779(6)
O14_9 O 0.2451(4) 0.8804(4) 0.7181(6)
O15_9 O 0.1737(4) 0.9085(4) 0.6693(5)
O16_9 O 0.1623(4) 0.8955(4) 0.7550(4)
O17_9 O 0.1332(5) 0.8457(5) 0.8276(6)
O18_9 O 0.0757(4) 0.8784(4) 0.7627(5)
O19_9 O 0.0023(4) 0.8865(5) 0.7058(6)
O20_9 O 0.0139(3) 0.9376(4) 0.7832(4)
O21_9 O 0.0264(3) 0.9748(4) 0.7019(4)
O22_9 O 0.0868(3) 0.9189(4) 0.6836(4)
Mo8_9 Mo 0.12780(5) 0.94636(7) 0.64497(6)
O25_9 O 0.0877(4) 0.9950(4) 0.6455(4)
O26_9 O 0.1168(5) 0.9224(6) 0.5957(5)
O27_9 O 0.1743(4) 0.9873(5) 0.6284(4)
O29_9 O 0.2361(3) 0.9668(4) 0.6876(4)
Mo1_10 Mo 0.95749(5) 0.47034(6) 0.67134(6)
Mo2_10 Mo 0.87220(5) 0.55364(7) 0.64497(6)
Mo3_10 Mo 0.79152(5) 0.47779(6) 0.67062(6)
O1_10 O 0.9951(4) 0.4681(6) 0.6304(4)
O2_10 O 0.9237(4) 0.4193(5) 0.6585(4)
O3_10 O 0.9123(4) 0.5050(4) 0.6455(4)
O4_10 O 0.8832(5) 0.5776(6) 0.5957(5)
O5_10 O 0.8257(4) 0.5127(5) 0.6284(4)
O6_10 O 0.7523(4) 0.4558(6) 0.6365(5)
O7_10 O 0.7639(3) 0.5332(4) 0.6876(4)
O8_10 O 0.7764(3) 0.4519(4) 0.7248(4)
O9_10 O 0.8454(3) 0.5197(3) 0.7127(4)
O10_10 O 0.8368(3) 0.4336(4) 0.6689(4)
P1_15 P 0.875000 0.500000 0.750000
O11_10 O 0.9046(3) 0.4627(4) 0.7303(3)
O12_10 O 0.8454(3) 0.4803(3) 0.7873(4)
O13_10 O 0.9046(3) 0.5373(4) 0.7697(3)
Mo4_10 Mo 0.79251(5) 0.42134(6) 0.77966(6)
Mo5_10 Mo 0.87780(5) 0.39497(6) 0.69636(7)
Mo6_10 Mo 0.95848(5) 0.42062(6) 0.77221(6)
O14_10 O 0.7549(4) 0.3804(4) 0.7819(6)
O15_10 O 0.8263(4) 0.4085(4) 0.8307(5)
O16_10 O 0.8377(4) 0.3955(4) 0.7450(4)
O17_10 O 0.8668(5) 0.3457(5) 0.6724(6)
O18_10 O 0.9243(4) 0.3784(4) 0.7373(5)
O19_10 O 0.9977(4) 0.3865(5) 0.7942(6)
O20_10 O 0.9861(3) 0.4376(4) 0.7168(4)
O21_10 O 0.9736(3) 0.4748(4) 0.7981(4)
O22_10 O 0.9132(3) 0.4189(4) 0.8164(4)
Mo7_10 Mo 0.95749(5) 0.52966(6) 0.82866(6)
Mo8_10 Mo 0.87220(5) 0.44636(7) 0.85503(6)
Mo9_10 Mo 0.79152(5) 0.52221(6) 0.82938(6)
O23_10 O 0.9951(4) 0.5319(6) 0.8696(4)
O24_10 O 0.9237(4) 0.5807(5) 0.8415(4)
O25_10 O 0.9123(4) 0.4950(4) 0.8545(4)
O26_10 O 0.8832(5) 0.4224(6) 0.9043(5)
O27_10 O 0.8257(4) 0.4873(5) 0.8716(4)
O28_10 O 0.7523(4) 0.5442(6) 0.8635(5)
O29_10 O 0.7639(3) 0.4668(4) 0.8124(4)
O30_10 O 0.7764(3) 0.5481(4) 0.7752(4)
O31_10 O 0.8368(3) 0.5664(4) 0.8311(4)
Mo10_10 Mo 0.79251(5) 0.57866(6) 0.72034(6)
Mo11_10 Mo 0.87780(5) 0.60503(6) 0.80364(7)
Mo12_10 Mo 0.95848(5) 0.57938(6) 0.72779(6)
O32_10 O 0.7549(4) 0.6196(4) 0.7181(6)
O33_10 O 0.8263(4) 0.5915(4) 0.6693(5)
O34_10 O 0.8377(4) 0.6045(4) 0.7550(4)
O35_10 O 0.8668(5) 0.6543(5) 0.8276(6)
O36_10 O 0.9243(4) 0.6216(4) 0.7627(5)
O37_10 O 0.9977(4) 0.6135(5) 0.7058(6)
O38_10 O 0.9861(3) 0.5624(4) 0.7832(4)
O39_10 O 0.9736(3) 0.5252(4) 0.7019(4)
O40_10 O 0.9132(3) 0.5811(4) 0.6836(4)
Mo1_11 Mo 0.54251(5) 0.52966(6) 0.17134(6)
Mo2_11 Mo 0.62780(5) 0.44636(7) 0.14497(6)
Mo3_11 Mo 0.70848(5) 0.52221(6) 0.17062(6)
O1_11 O 0.5049(4) 0.5319(6) 0.1304(4)
O2_11 O 0.5763(4) 0.5807(5) 0.1585(4)
O3_11 O 0.5877(4) 0.4950(4) 0.1455(4)
O4_11 O 0.6168(5) 0.4224(6) 0.0957(5)
O5_11 O 0.6743(4) 0.4873(5) 0.1284(4)
O6_11 O 0.7477(4) 0.5442(6) 0.1365(5)
O7_11 O 0.7361(3) 0.4668(4) 0.1876(4)
O8_11 O 0.7236(3) 0.5481(4) 0.2248(4)
O9_11 O 0.6546(3) 0.4803(3) 0.2127(4)
O10_11 O 0.6632(3) 0.5664(4) 0.1689(4)
P1_16 P 0.625000 0.500000 0.250000
O11_11 O 0.5954(3) 0.5373(4) 0.2303(3)
O12_11 O 0.6546(3) 0.5197(3) 0.2873(4)
O13_11 O 0.5954(3) 0.4627(4) 0.2697(3)
Mo4_11 Mo 0.70749(5) 0.57866(6) 0.27966(6)
Mo5_11 Mo 0.62220(5) 0.60503(6) 0.19636(7)
Mo6_11 Mo 0.54152(5) 0.57938(6) 0.27221(6)
O14_11 O 0.7451(4) 0.6196(4) 0.2819(6)
O15_11 O 0.6737(4) 0.5915(4) 0.3307(5)
O16_11 O 0.6623(4) 0.6045(4) 0.2450(4)
O17_11 O 0.6332(5) 0.6543(5) 0.1724(6)
O18_11 O 0.5757(4) 0.6216(4) 0.2373(5)
O19_11 O 0.5023(4) 0.6135(5) 0.2942(6)
O20_11 O 0.5139(3) 0.5624(4) 0.2168(4)
O21_11 O 0.5264(3) 0.5252(4) 0.2981(4)
O22_11 O 0.5868(3) 0.5811(4) 0.3164(4)
Mo7_11 Mo 0.54251(5) 0.47034(6) 0.32866(6)
Mo8_11 Mo 0.62780(5) 0.55364(7) 0.35503(6)
Mo9_11 Mo 0.70848(5) 0.47779(6) 0.32938(6)
O23_11 O 0.5049(4) 0.4681(6) 0.3696(4)
O24_11 O 0.5763(4) 0.4193(5) 0.3415(4)
O25_11 O 0.5877(4) 0.5050(4) 0.3545(4)
O26_11 O 0.6168(5) 0.5776(6) 0.4043(5)
O27_11 O 0.6743(4) 0.5127(5) 0.3716(4)
O28_11 O 0.7477(4) 0.4558(6) 0.3635(5)
O29_11 O 0.7361(3) 0.5332(4) 0.3124(4)
O30_11 O 0.7236(3) 0.4519(4) 0.2752(4)
O31_11 O 0.6632(3) 0.4336(4) 0.3311(4)
Mo10_11 Mo 0.70749(5) 0.42134(6) 0.22034(6)
Mo11_11 Mo 0.62220(5) 0.39497(6) 0.30364(7)
Mo12_11 Mo 0.54152(5) 0.42062(6) 0.22779(6)
O32_11 O 0.7451(4) 0.3804(4) 0.2181(6)
O33_11 O 0.6737(4) 0.4085(4) 0.1693(5)
O34_11 O 0.6623(4) 0.3955(4) 0.2550(4)
O35_11 O 0.6332(5) 0.3457(5) 0.3276(6)
O36_11 O 0.5757(4) 0.3784(4) 0.2627(5)
O37_11 O 0.5023(4) 0.3865(5) 0.2058(6)
O38_11 O 0.5139(3) 0.4376(4) 0.2832(4)
O39_11 O 0.5264(3) 0.4748(4) 0.2019(4)
O40_11 O 0.5868(3) 0.4189(4) 0.1836(4)
Mo1_12 Mo 0.45749(5) 0.02966(6) 0.32866(6)
Mo3_12 Mo 0.29152(5) 0.02221(6) 0.32938(6)
O1_12 O 0.4951(4) 0.0319(6) 0.3696(4)
O2_12 O 0.4237(4) 0.0807(5) 0.3415(4)
O6_12 O 0.2523(4) 0.0442(6) 0.3635(5)
O8_12 O 0.2764(3) 0.0481(4) 0.2752(4)
O10_12 O 0.3368(3) 0.0664(4) 0.3311(4)
P1_17 P 0.375000 -0.000000 0.250000
O11_12 O 0.4046(3) 0.0373(4) 0.2697(3)
O12_12 O 0.3454(3) 0.0197(3) 0.2127(4)
Mo4_12 Mo 0.29251(5) 0.07866(6) 0.22034(6)
Mo5_12 Mo 0.37780(5) 0.10503(6) 0.30364(7)
Mo6_12 Mo 0.45848(5) 0.07938(6) 0.22779(6)
O14_12 O 0.2549(4) 0.1196(4) 0.2181(6)
O15_12 O 0.3263(4) 0.0915(4) 0.1693(5)
O16_12 O 0.3377(4) 0.1045(4) 0.2550(4)
O17_12 O 0.3668(5) 0.1543(5) 0.3276(6)
O18_12 O 0.4243(4) 0.1216(4) 0.2627(5)
O19_12 O 0.4977(4) 0.1135(5) 0.2058(6)
O20_12 O 0.4861(3) 0.0624(4) 0.2832(4)
O21_12 O 0.4736(3) 0.0252(4) 0.2019(4)
O22_12 O 0.4132(3) 0.0811(4) 0.1836(4)
Mo8_12 Mo 0.37220(5) 0.05364(7) 0.14497(6)
O25_12 O 0.4123(4) 0.0050(4) 0.1455(4)
O26_12 O 0.3832(5) 0.0776(6) 0.0957(5)
O27_12 O 0.3257(4) 0.0127(5) 0.1284(4)
O29_12 O 0.2639(3) 0.0332(4) 0.1876(4)
Mo2_12 Mo 0.37220(5) 0.94636(7) 0.35503(6)
O3_12 O 0.4123(4) 0.9950(4) 0.3545(4)
O4_12 O 0.3832(5) 0.9224(6) 0.4043(5)
O5_12 O 0.3257(4) 0.9873(5) 0.3716(4)
O7_12 O 0.2639(3) 0.9668(4) 0.3124(4)
O9_12 O 0.3454(3) 0.9803(3) 0.2873(4)
P1_18 P 0.375000 1.000000 0.250000
O13_12 O 0.4046(3) 0.9627(4) 0.2303(3)
Mo7_12 Mo 0.45749(5) 0.97034(6) 0.17134(6)
Mo9_12 Mo 0.29152(5) 0.97779(6) 0.17062(6)
O23_12 O 0.4951(4) 0.9681(6) 0.1304(4)
O24_12 O 0.4237(4) 0.9193(5) 0.1585(4)
O28_12 O 0.2523(4) 0.9558(6) 0.1365(5)
O30_12 O 0.2764(3) 0.9519(4) 0.2248(4)
O31_12 O 0.3368(3) 0.9336(4) 0.1689(4)
Mo10_12 Mo 0.29251(5) 0.92134(6) 0.27966(6)
Mo11_12 Mo 0.37780(5) 0.89497(6) 0.19636(7)
Mo12_12 Mo 0.45848(5) 0.92062(6) 0.27221(6)
O32_12 O 0.2549(4) 0.8804(4) 0.2819(6)
O33_12 O 0.3263(4) 0.9085(4) 0.3307(5)
O34_12 O 0.3377(4) 0.8955(4) 0.2450(4)
O35_12 O 0.3668(5) 0.8457(5) 0.1724(6)
O36_12 O 0.4243(4) 0.8784(4) 0.2373(5)
O37_12 O 0.4977(4) 0.8865(5) 0.2942(6)
O38_12 O 0.4861(3) 0.9376(4) 0.2168(4)
O39_12 O 0.4736(3) 0.9748(4) 0.2981(4)
O40_12 O 0.4132(3) 0.9189(4) 0.3164(4)
C1 C 0.0053(5) 0.1420(5) 0.0831(5)
H1 H 0.011147 0.156307 0.056381
Cd1 Cd 0.04868(4) 0.04868(4) 0.04868(4)
N1 N 0.0184(4) 0.1019(5) 0.0922(4)
N2 N 0.0050(5) 0.0940(5) 0.1361(4)
N13 N 0.0922(4) 0.0184(4) 0.1019(5)
N14 N 0.1019(5) 0.0922(4) 0.0184(4)
H29 H 0.002044 0.040348 0.953174
H8 H 0.040348 0.953174 0.002044
C11 C 0.0671(13) 0.9632(12) 0.9902(9)
C12 C 0.1310(11) 0.9390(13) 0.9480(12)
H9 H 0.127552 0.937474 0.916371
H10 H 0.149183 0.914781 0.957905
H11 H 0.144868 0.966600 0.955866
C13 C 0.0759(14) 0.8886(9) 0.9638(12)
H12 H 0.077407 0.872958 0.991480
H13 H 0.094654 0.874202 0.942399
H14 H 0.045870 0.888735 0.953211
N4 N 0.0875(9) 0.9330(7) 0.9702(7)
O41 O 0.0727(8) 0.9980(7) 0.9972(8)
C2 C 0.9836(6) 0.1282(6) 0.1481(6)
H2 H 0.970047 0.131108 0.175724
C3 C 0.9600(4) 0.2029(5) 0.1185(5)
C4 C 0.9565(7) 0.2227(7) 0.1582(5)
H3 H 0.970837 0.210464 0.182672
C5 C 0.9322(7) 0.2607(6) 0.1630(5)
H4 H 0.927014 0.272394 0.191132
C6 C 0.9154(5) 0.2817(5) 0.1257(5)
C7 C 0.9207(6) 0.2622(6) 0.0848(5)
H5 H 0.909515 0.275869 0.059506
C8 C 0.9437(5) 0.2207(5) 0.0814(5)
H6 H 0.947132 0.206617 0.054095
C9 C 0.8883(5) 0.3231(5) 0.1325(5)
C10 C 0.8959(5) 0.3514(5) 0.1684(5)
H7 H 0.919833 0.346076 0.187116
N3 N 0.9825(4) 0.1602(4) 0.1162(4)
C14 C 0.9169(5) 0.5053(5) 0.3580(5)
H15 H 0.943619 0.511147 0.343693
C15 C 0.8519(6) 0.4836(6) 0.3718(6)
H16 H 0.824276 0.470047 0.368892
C16 C 0.8815(5) 0.4600(4) 0.2971(5)
C17 C 0.8418(5) 0.4565(7) 0.2773(7)
H17 H 0.817328 0.470837 0.289536
C18 C 0.8370(5) 0.4322(7) 0.2393(6)
H18 H 0.808868 0.427014 0.227606
C19 C 0.8743(5) 0.4154(5) 0.2183(5)
C20 C 0.9152(5) 0.4207(6) 0.2378(6)
H19 H 0.940494 0.409515 0.224131
C21 C 0.9186(5) 0.4437(5) 0.2793(5)
H20 H 0.945905 0.447132 0.293383
C22 C 0.8675(5) 0.3883(5) 0.1769(5)
C23 C 0.8316(5) 0.3959(5) 0.1486(5)
H21 H 0.812884 0.419833 0.153924
N5 N 0.9078(4) 0.5184(4) 0.3981(5)
N6 N 0.8639(4) 0.5050(5) 0.4060(5)
N7 N 0.8838(4) 0.4825(4) 0.3398(4)
C25 C 0.6282(6) 0.3519(6) 0.0164(6)
H23 H 0.631108 0.324276 0.029953
C26 C 0.7029(5) 0.3815(5) 0.0400(4)
C27 C 0.7227(7) 0.3418(5) 0.0435(7)
H24 H 0.710464 0.317328 0.029163
C28 C 0.7607(6) 0.3370(5) 0.0678(7)
H25 H 0.772394 0.308868 0.072986
C29 C 0.7817(5) 0.3743(5) 0.0846(5)
C30 C 0.7622(6) 0.4152(5) 0.0793(6)
H26 H 0.775869 0.440494 0.090485
C31 C 0.7207(5) 0.4186(5) 0.0563(5)
H27 H 0.706617 0.445905 0.052868
C32 C 0.8231(5) 0.3675(5) 0.1117(5)
C33 C 0.8514(5) 0.3316(5) 0.1041(5)
H28 H 0.846076 0.312884 0.080167
N10 N 0.6602(4) 0.3838(4) 0.0175(4)
H36 H 0.953174 0.002044 0.040348
Cd2 Cd 0.95132(4) 0.54868(4) 0.45132(4)
C24 C 0.6420(5) 0.4169(5) 0.9947(5)
H22 H 0.656307 0.443619 0.988853
N8 N 0.6019(5) 0.4078(4) 0.9816(4)
N9 N 0.5940(5) 0.3639(4) 0.9950(5)
C34 C 0.9902(9) 0.0671(13) 0.9632(12)
C35 C 0.9480(12) 0.1310(11) 0.9390(13)
H30 H 0.916371 0.127552 0.937474
H31 H 0.957905 0.149183 0.914781
H32 H 0.955866 0.144868 0.966600
C36 C 0.9638(12) 0.0759(14) 0.8886(9)
H33 H 0.991480 0.077407 0.872958
H34 H 0.942399 0.094654 0.874202
H35 H 0.953211 0.045870 0.888735
N11 N 0.9702(7) 0.0875(9) 0.9330(7)
O42 O 0.9972(8) 0.0727(8) 0.9980(7)
Cd3 Cd 0.54868(4) 0.45132(4) 0.95132(4)
C37 C 0.9632(12) 0.9902(9) 0.0671(13)
C38 C 0.9390(13) 0.9480(12) 0.1310(11)
H37 H 0.937474 0.916371 0.127552
H38 H 0.914781 0.957905 0.149183
H39 H 0.966600 0.955866 0.144868
C39 C 0.8886(9) 0.9638(12) 0.0759(14)
H40 H 0.872958 0.991480 0.077407
H41 H 0.874202 0.942399 0.094654
H42 H 0.888735 0.953211 0.045870
N12 N 0.9330(7) 0.9702(7) 0.0875(9)
O43 O 0.9980(7) 0.9972(8) 0.0727(8)
C11_2 C 0.4329(13) 0.0368(12) 0.4902(9)
H8_2 H 0.459652 0.046826 0.502044
C12_2 C 0.3690(11) 0.0610(13) 0.4480(12)
H9_2 H 0.372448 0.062526 0.416371
H10_2 H 0.350817 0.085219 0.457905
H11_2 H 0.355132 0.033400 0.455866
C13_2 C 0.4241(14) 0.1114(9) 0.4638(12)
H12_2 H 0.422593 0.127042 0.491480
H13_2 H 0.405346 0.125798 0.442399
H14_2 H 0.454130 0.111265 0.453211
N4_2 N 0.4125(9) 0.0670(7) 0.4702(7)
O41_2 O 0.4273(8) 0.0020(7) 0.4972(8)
C37_2 C 0.5368(12) 0.0098(9) 0.5671(13)
C38_2 C 0.5610(13) 0.0520(12) 0.6310(11)
H37_2 H 0.562526 0.083629 0.627552
H38_2 H 0.585219 0.042095 0.649183
H39_2 H 0.533400 0.044134 0.644868
C39_2 C 0.6114(9) 0.0362(12) 0.5759(14)
H40_2 H 0.627042 0.008520 0.577407
H41_2 H 0.625798 0.057601 0.594654
H42_2 H 0.611265 0.046789 0.545870
N12_2 N 0.5670(7) 0.0298(7) 0.5875(9)
O43_2 O 0.5020(7) 0.0028(8) 0.5727(8)
C1_2 C 0.4947(5) 0.8580(5) 0.5831(5)
H1_2 H 0.488853 0.843693 0.556381
C2_2 C 0.5164(6) 0.8718(6) 0.6481(6)
H2_2 H 0.529953 0.868892 0.675724
C3_2 C 0.5400(4) 0.7971(5) 0.6185(5)
C4_2 C 0.5435(7) 0.7773(7) 0.6582(5)
H3_2 H 0.529163 0.789536 0.682672
C5_2 C 0.5678(7) 0.7393(6) 0.6630(5)
H4_2 H 0.572986 0.727606 0.691132
C6_2 C 0.5846(5) 0.7183(5) 0.6257(5)
C7_2 C 0.5793(6) 0.7378(6) 0.5848(5)
H5_2 H 0.590485 0.724131 0.559506
C8_2 C 0.5563(5) 0.7793(5) 0.5814(5)
H6_2 H 0.552868 0.793383 0.554095
C9_2 C 0.6117(5) 0.6769(5) 0.6325(5)
C10_2 C 0.6041(5) 0.6486(5) 0.6684(5)
H7_2 H 0.580167 0.653924 0.687116
Cd1_2 Cd 0.45132(4) 0.95132(4) 0.54868(4)
N1_2 N 0.4816(4) 0.8981(5) 0.5922(4)
N2_2 N 0.4950(5) 0.9060(5) 0.6361(4)
N3_2 N 0.5175(4) 0.8398(4) 0.6162(4)
C14_2 C 0.5831(5) 0.4947(5) 0.8580(5)
H15_2 H 0.556381 0.488853 0.843693
C15_2 C 0.6481(6) 0.5164(6) 0.8718(6)
H16_2 H 0.675724 0.529953 0.868892
C16_2 C 0.6185(5) 0.5400(4) 0.7971(5)
C17_2 C 0.6582(5) 0.5435(7) 0.7773(7)
H17_2 H 0.682672 0.529163 0.789536
C18_2 C 0.6630(5) 0.5678(7) 0.7393(6)
H18_2 H 0.691132 0.572986 0.727606
C19_2 C 0.6257(5) 0.5846(5) 0.7183(5)
C20_2 C 0.5848(5) 0.5793(6) 0.7378(6)
H19_2 H 0.559506 0.590485 0.724131
C21_2 C 0.5814(5) 0.5563(5) 0.7793(5)
H20_2 H 0.554095 0.552868 0.793383
C22_2 C 0.6325(5) 0.6117(5) 0.6769(5)
C23_2 C 0.6684(5) 0.6041(5) 0.6486(5)
H21_2 H 0.687116 0.580167 0.653924
N5_2 N 0.5922(4) 0.4816(4) 0.8981(5)
N6_2 N 0.6361(4) 0.4950(5) 0.9060(5)
N7_2 N 0.6162(4) 0.5175(4) 0.8398(4)
C24_2 C 0.8580(5) 0.5831(5) 0.4947(5)
H22_2 H 0.843693 0.556381 0.488853
C25_2 C 0.8718(6) 0.6481(6) 0.5164(6)
H23_2 H 0.868892 0.675724 0.529953
C26_2 C 0.7971(5) 0.6185(5) 0.5400(4)
C27_2 C 0.7773(7) 0.6582(5) 0.5435(7)
H24_2 H 0.789536 0.682672 0.529163
C28_2 C 0.7393(6) 0.6630(5) 0.5678(7)
H25_2 H 0.727606 0.691132 0.572986
C29_2 C 0.7183(5) 0.6257(5) 0.5846(5)
C30_2 C 0.7378(6) 0.5848(5) 0.5793(6)
H26_2 H 0.724131 0.559506 0.590485
C31_2 C 0.7793(5) 0.5814(5) 0.5563(5)
H27_2 H 0.793383 0.554095 0.552868
C32_2 C 0.6769(5) 0.6325(5) 0.6117(5)
C33_2 C 0.6486(5) 0.6684(5) 0.6041(5)
H28_2 H 0.653924 0.687116 0.580167
N8_2 N 0.8981(5) 0.5922(4) 0.4816(4)
N9_2 N 0.9060(5) 0.6361(4) 0.4950(5)
N10_2 N 0.8398(4) 0.6162(4) 0.5175(4)
C34_2 C 0.5098(9) 0.9329(13) 0.4632(12)
H29_2 H 0.497956 0.959652 0.453174
C35_2 C 0.5520(12) 0.8690(11) 0.4390(13)
H30_2 H 0.583629 0.872448 0.437474
H31_2 H 0.542095 0.850817 0.414781
H32_2 H 0.544134 0.855132 0.466600
C36_2 C 0.5362(12) 0.9241(14) 0.3886(9)
H33_2 H 0.508520 0.922593 0.372958
H34_2 H 0.557601 0.905346 0.374202
H35_2 H 0.546789 0.954130 0.388735
N11_2 N 0.5298(7) 0.9125(9) 0.4330(7)
O42_2 O 0.5028(8) 0.9273(8) 0.4980(7)
H36_2 H 0.546826 0.997956 0.540348
N13_2 N 0.4078(4) 0.9816(4) 0.6019(5)
N14_2 N 0.3981(5) 0.9078(4) 0.5184(4)
C14_3 C 0.0831(5) 0.0053(5) 0.1420(5)
H15_3 H 0.056381 0.011147 0.156307
N6_3 N 0.1361(4) 0.0050(5) 0.0940(5)
C2_3 C 0.0164(6) 0.6282(6) 0.3519(6)
H2_3 H 0.029953 0.631108 0.324276
C3_3 C 0.0400(4) 0.7029(5) 0.3815(5)
C4_3 C 0.0435(7) 0.7227(7) 0.3418(5)
H3_3 H 0.029163 0.710464 0.317328
C5_3 C 0.0678(7) 0.7607(6) 0.3370(5)
H4_3 H 0.072986 0.772394 0.308868
C6_3 C 0.0846(5) 0.7817(5) 0.3743(5)
C7_3 C 0.0793(6) 0.7622(6) 0.4152(5)
H5_3 H 0.090485 0.775869 0.440494
C8_3 C 0.0563(5) 0.7207(5) 0.4186(5)
H6_3 H 0.052868 0.706617 0.445905
C9_3 C 0.1117(5) 0.8231(5) 0.3675(5)
C10_3 C 0.1041(5) 0.8514(5) 0.3316(5)
H7_3 H 0.080167 0.846076 0.312884
N3_3 N 0.0175(4) 0.6602(4) 0.3838(4)
C15_3 C 0.1481(6) 0.9836(6) 0.1282(6)
H16_3 H 0.175724 0.970047 0.131108
C16_3 C 0.1185(5) 0.9600(4) 0.2029(5)
C17_3 C 0.1582(5) 0.9565(7) 0.2227(7)
H17_3 H 0.182672 0.970837 0.210464
C18_3 C 0.1630(5) 0.9322(7) 0.2607(6)
H18_3 H 0.191132 0.927014 0.272394
C19_3 C 0.1257(5) 0.9154(5) 0.2817(5)
C20_3 C 0.0848(5) 0.9207(6) 0.2622(6)
H19_3 H 0.059506 0.909515 0.275869
C21_3 C 0.0814(5) 0.9437(5) 0.2207(5)
H20_3 H 0.054095 0.947132 0.206617
C22_3 C 0.1325(5) 0.8883(5) 0.3231(5)
C23_3 C 0.1684(5) 0.8959(5) 0.3514(5)
H21_3 H 0.187116 0.919833 0.346076
N7_3 N 0.1162(4) 0.9825(4) 0.1602(4)
C24_3 C 0.3580(5) 0.9169(5) 0.5053(5)
H22_3 H 0.343693 0.943619 0.511147
C25_3 C 0.3718(6) 0.8519(6) 0.4836(6)
H23_3 H 0.368892 0.824276 0.470047
C26_3 C 0.2971(5) 0.8815(5) 0.4600(4)
C27_3 C 0.2773(7) 0.8418(5) 0.4565(7)
H24_3 H 0.289536 0.817328 0.470837
C28_3 C 0.2393(6) 0.8370(5) 0.4322(7)
H25_3 H 0.227606 0.808868 0.427014
C29_3 C 0.2183(5) 0.8743(5) 0.4154(5)
C30_3 C 0.2378(6) 0.9152(5) 0.4207(6)
H26_3 H 0.224131 0.940494 0.409515
C31_3 C 0.2793(5) 0.9186(5) 0.4437(5)
H27_3 H 0.293383 0.945905 0.447132
C32_3 C 0.1769(5) 0.8675(5) 0.3883(5)
C33_3 C 0.1486(5) 0.8316(5) 0.3959(5)
H28_3 H 0.153924 0.812884 0.419833
N9_3 N 0.4060(5) 0.8639(4) 0.5050(5)
N10_3 N 0.3398(4) 0.8838(4) 0.4825(4)
C34_3 C 0.0098(9) 0.5671(13) 0.5368(12)
C35_3 C 0.0520(12) 0.6310(11) 0.5610(13)
H30_3 H 0.083629 0.627552 0.562526
H31_3 H 0.042095 0.649183 0.585219
H32_3 H 0.044134 0.644868 0.533400
C36_3 C 0.0362(12) 0.5759(14) 0.6114(9)
H33_3 H 0.008520 0.577407 0.627042
H34_3 H 0.057601 0.594654 0.625798
H35_3 H 0.046789 0.545870 0.611265
N11_3 N 0.0298(7) 0.5875(9) 0.5670(7)
O42_3 O 0.0028(8) 0.5727(8) 0.5020(7)
C37_3 C 0.0368(12) 0.4902(9) 0.4329(13)
H36_3 H 0.046826 0.502044 0.459652
C38_3 C 0.0610(13) 0.4480(12) 0.3690(11)
H37_3 H 0.062526 0.416371 0.372448
H38_3 H 0.085219 0.457905 0.350817
H39_3 H 0.033400 0.455866 0.355132
C39_3 C 0.1114(9) 0.4638(12) 0.4241(14)
H40_3 H 0.127042 0.491480 0.422593
H41_3 H 0.125798 0.442399 0.405346
H42_3 H 0.111265 0.453211 0.454130
N12_3 N 0.0670(7) 0.4702(7) 0.4125(9)
O43_3 O 0.0020(7) 0.4972(8) 0.4273(8)
C1_3 C 0.9947(5) 0.6420(5) 0.4169(5)
H1_3 H 0.988853 0.656307 0.443619
C11_3 C 0.9329(13) 0.4632(12) 0.5098(9)
H8_3 H 0.959652 0.453174 0.497956
C12_3 C 0.8690(11) 0.4390(13) 0.5520(12)
H9_3 H 0.872448 0.437474 0.583629
H10_3 H 0.850817 0.414781 0.542095
H11_3 H 0.855132 0.466600 0.544134
C13_3 C 0.9241(14) 0.3886(9) 0.5362(12)
H12_3 H 0.922593 0.372958 0.508520
H13_3 H 0.905346 0.374202 0.557601
H14_3 H 0.954130 0.388735 0.546789
N1_3 N 0.9816(4) 0.6019(5) 0.4078(4)
N2_3 N 0.9950(5) 0.5940(5) 0.3639(4)
N4_3 N 0.9125(9) 0.4330(7) 0.5298(7)
O41_3 O 0.9273(8) 0.4980(7) 0.5028(8)
H29_3 H 0.997956 0.540348 0.546826
C11_4 C 0.5671(13) 0.5368(12) 0.0098(9)
C12_4 C 0.6310(11) 0.5610(13) 0.0520(12)
H9_4 H 0.627552 0.562526 0.083629
H10_4 H 0.649183 0.585219 0.042095
H11_4 H 0.644868 0.533400 0.044134
C13_4 C 0.5759(14) 0.6114(9) 0.0362(12)
H12_4 H 0.577407 0.627042 0.008520
H13_4 H 0.594654 0.625798 0.057601
H14_4 H 0.545870 0.611265 0.046789
N4_4 N 0.5875(9) 0.5670(7) 0.0298(7)
O41_4 O 0.5727(8) 0.5020(7) 0.0028(8)
C24_4 C 0.1420(5) 0.0831(5) 0.0053(5)
H22_4 H 0.156307 0.056381 0.011147
N9_4 N 0.0940(5) 0.1361(4) 0.0050(5)
C34_4 C 0.4902(9) 0.4329(13) 0.0368(12)
H29_4 H 0.502044 0.459652 0.046826
C35_4 C 0.4480(12) 0.3690(11) 0.0610(13)
H30_4 H 0.416371 0.372448 0.062526
H31_4 H 0.457905 0.350817 0.085219
H32_4 H 0.455866 0.355132 0.033400
C36_4 C 0.4638(12) 0.4241(14) 0.1114(9)
H33_4 H 0.491480 0.422593 0.127042
H34_4 H 0.442399 0.405346 0.125798
H35_4 H 0.453211 0.454130 0.111265
N11_4 N 0.4702(7) 0.4125(9) 0.0670(7)
O42_4 O 0.4972(8) 0.4273(8) 0.0020(7)
C1_4 C 0.5053(5) 0.3580(5) 0.9169(5)
H1_4 H 0.511147 0.343693 0.943619
C2_4 C 0.4836(6) 0.3718(6) 0.8519(6)
H2_4 H 0.470047 0.368892 0.824276
C3_4 C 0.4600(4) 0.2971(5) 0.8815(5)
C4_4 C 0.4565(7) 0.2773(7) 0.8418(5)
H3_4 H 0.470837 0.289536 0.817328
C5_4 C 0.4322(7) 0.2393(6) 0.8370(5)
H4_4 H 0.427014 0.227606 0.808868
C6_4 C 0.4154(5) 0.2183(5) 0.8743(5)
C7_4 C 0.4207(6) 0.2378(6) 0.9152(5)
H5_4 H 0.409515 0.224131 0.940494
C8_4 C 0.4437(5) 0.2793(5) 0.9186(5)
H6_4 H 0.447132 0.293383 0.945905
C9_4 C 0.3883(5) 0.1769(5) 0.8675(5)
C10_4 C 0.3959(5) 0.1486(5) 0.8316(5)
H7_4 H 0.419833 0.153924 0.812884
H8_4 H 0.540348 0.546826 0.997956
N1_4 N 0.5184(4) 0.3981(5) 0.9078(4)
N2_4 N 0.5050(5) 0.4060(5) 0.8639(4)
N3_4 N 0.4825(4) 0.3398(4) 0.8838(4)
C15_4 C 0.3519(6) 0.0164(6) 0.6282(6)
H16_4 H 0.324276 0.029953 0.631108
C16_4 C 0.3815(5) 0.0400(4) 0.7029(5)
C17_4 C 0.3418(5) 0.0435(7) 0.7227(7)
H17_4 H 0.317328 0.029163 0.710464
C18_4 C 0.3370(5) 0.0678(7) 0.7607(6)
H18_4 H 0.308868 0.072986 0.772394
C19_4 C 0.3743(5) 0.0846(5) 0.7817(5)
C20_4 C 0.4152(5) 0.0793(6) 0.7622(6)
H19_4 H 0.440494 0.090485 0.775869
C21_4 C 0.4186(5) 0.0563(5) 0.7207(5)
H20_4 H 0.445905 0.052868 0.706617
C22_4 C 0.3675(5) 0.1117(5) 0.8231(5)
C23_4 C 0.3316(5) 0.1041(5) 0.8514(5)
H21_4 H 0.312884 0.080167 0.846076
N7_4 N 0.3838(4) 0.0175(4) 0.6602(4)
C25_4 C 0.1282(6) 0.1481(6) 0.9836(6)
H23_4 H 0.131108 0.175724 0.970047
C26_4 C 0.2029(5) 0.1185(5) 0.9600(4)
C27_4 C 0.2227(7) 0.1582(5) 0.9565(7)
H24_4 H 0.210464 0.182672 0.970837
C28_4 C 0.2607(6) 0.1630(5) 0.9322(7)
H25_4 H 0.272394 0.191132 0.927014
C29_4 C 0.2817(5) 0.1257(5) 0.9154(5)
C30_4 C 0.2622(6) 0.0848(5) 0.9207(6)
H26_4 H 0.275869 0.059506 0.909515
C31_4 C 0.2207(5) 0.0814(5) 0.9437(5)
H27_4 H 0.206617 0.054095 0.947132
C32_4 C 0.3231(5) 0.1325(5) 0.8883(5)
C33_4 C 0.3514(5) 0.1684(5) 0.8959(5)
H28_4 H 0.346076 0.187116 0.919833
N10_4 N 0.1602(4) 0.1162(4) 0.9825(4)
C37_4 C 0.4632(12) 0.5098(9) 0.9329(13)
H36_4 H 0.453174 0.497956 0.959652
C38_4 C 0.4390(13) 0.5520(12) 0.8690(11)
H37_4 H 0.437474 0.583629 0.872448
H38_4 H 0.414781 0.542095 0.850817
H39_4 H 0.466600 0.544134 0.855132
C39_4 C 0.3886(9) 0.5362(12) 0.9241(14)
H40_4 H 0.372958 0.508520 0.922593
H41_4 H 0.374202 0.557601 0.905346
H42_4 H 0.388735 0.546789 0.954130
N12_4 N 0.4330(7) 0.5298(7) 0.9125(9)
O43_4 O 0.4980(7) 0.5028(8) 0.9273(8)
C14_4 C 0.4169(5) 0.9947(5) 0.6420(5)
H15_4 H 0.443619 0.988853 0.656307
N6_4 N 0.3639(4) 0.9950(5) 0.5940(5)
C1_5 C 0.3920(5) 0.2553(5) 0.3331(5)
H1_5 H 0.406307 0.261147 0.306381
C2_5 C 0.3782(6) 0.2336(6) 0.3981(6)
H2_5 H 0.381108 0.220047 0.425724
C3_5 C 0.4529(5) 0.2100(4) 0.3685(5)
C4_5 C 0.4727(7) 0.2065(7) 0.4082(5)
H3_5 H 0.460464 0.220837 0.432672
C5_5 C 0.5107(6) 0.1822(7) 0.4130(5)
H4_5 H 0.522394 0.177014 0.441132
C6_5 C 0.5317(5) 0.1654(5) 0.3757(5)
C7_5 C 0.5122(6) 0.1707(6) 0.3348(5)
H5_5 H 0.525869 0.159515 0.309506
C8_5 C 0.4707(5) 0.1937(5) 0.3314(5)
H6_5 H 0.456617 0.197132 0.304095
C9_5 C 0.5731(5) 0.1383(5) 0.3825(5)
C10_5 C 0.6014(5) 0.1459(5) 0.4184(5)
H7_5 H 0.596076 0.169833 0.437116
C11_5 C 0.2132(12) 0.3171(13) 0.2402(9)
H8_5 H 0.203174 0.290348 0.252044
C12_5 C 0.1890(13) 0.3810(11) 0.1980(12)
H9_5 H 0.187474 0.377552 0.166371
H10_5 H 0.164781 0.399183 0.207905
H11_5 H 0.216600 0.394868 0.205866
C13_5 C 0.1386(9) 0.3259(14) 0.2138(12)
H12_5 H 0.122958 0.327407 0.241480
H13_5 H 0.124202 0.344654 0.192399
H14_5 H 0.138735 0.295870 0.203211
Cd1_3 Cd 0.29868(4) 0.29868(4) 0.29868(4)
N1_5 N 0.3519(5) 0.2684(4) 0.3422(4)
N2_5 N 0.3440(5) 0.2550(5) 0.3861(4)
N3_5 N 0.4102(4) 0.2325(4) 0.3662(4)
N4_5 N 0.1830(7) 0.3375(9) 0.2202(7)
O41_5 O 0.2480(7) 0.3227(8) 0.2472(8)
C14_5 C 0.7553(5) 0.1669(5) 0.6080(5)
H15_5 H 0.761147 0.193619 0.593693
C15_5 C 0.7336(6) 0.1019(6) 0.6218(6)
H16_5 H 0.720047 0.074276 0.618892
C16_5 C 0.7100(4) 0.1315(5) 0.5471(5)
C17_5 C 0.7065(7) 0.0918(5) 0.5273(7)
H17_5 H 0.720837 0.067328 0.539536
C18_5 C 0.6822(7) 0.0870(5) 0.4893(6)
H18_5 H 0.677014 0.058868 0.477606
C19_5 C 0.6654(5) 0.1243(5) 0.4683(5)
C20_5 C 0.6707(6) 0.1652(5) 0.4878(6)
H19_5 H 0.659515 0.190494 0.474131
C21_5 C 0.6937(5) 0.1686(5) 0.5293(5)
H20_5 H 0.697132 0.195905 0.543383
C22_5 C 0.6383(5) 0.1175(5) 0.4269(5)
C23_5 C 0.6459(5) 0.0816(5) 0.3986(5)
H21_5 H 0.669833 0.062884 0.403924
N5_3 N 0.7684(4) 0.1578(4) 0.6481(5)
N6_5 N 0.7550(5) 0.1139(4) 0.6560(5)
N7_5 N 0.7325(4) 0.1338(4) 0.5898(4)
C28_5 C 0.5870(5) 0.0107(6) 0.3178(7)
H25_5 H 0.558868 0.022394 0.322986
C29_5 C 0.6243(5) 0.0317(5) 0.3346(5)
C30_5 C 0.6652(5) 0.0122(6) 0.3293(6)
H26_5 H 0.690494 0.025869 0.340485
C32_5 C 0.6175(5) 0.0731(5) 0.3617(5)
C33_5 C 0.5816(5) 0.1014(5) 0.3541(5)
H28_5 H 0.562884 0.096076 0.330167
C34_5 C 0.3171(13) 0.2402(9) 0.2132(12)
H29_5 H 0.290348 0.252044 0.203174
C35_5 C 0.3810(11) 0.1980(12) 0.1890(13)
H30_5 H 0.377552 0.166371 0.187474
H31_5 H 0.399183 0.207905 0.164781
H32_5 H 0.394868 0.205866 0.216600
C36_5 C 0.3259(14) 0.2138(12) 0.1386(9)
H33_5 H 0.327407 0.241480 0.122958
H34_5 H 0.344654 0.192399 0.124202
H35_5 H 0.295870 0.203211 0.138735
N11_5 N 0.3375(9) 0.2202(7) 0.1830(7)
O42_5 O 0.3227(8) 0.2472(8) 0.2480(7)
C37_5 C 0.2402(9) 0.2132(12) 0.3171(13)
H36_5 H 0.252044 0.203174 0.290348
C38_5 C 0.1980(12) 0.1890(13) 0.3810(11)
H37_5 H 0.166371 0.187474 0.377552
H38_5 H 0.207905 0.164781 0.399183
H39_5 H 0.205866 0.216600 0.394868
C39_5 C 0.2138(12) 0.1386(9) 0.3259(14)
H40_5 H 0.241480 0.122958 0.327407
H41_5 H 0.192399 0.124202 0.344654
H42_5 H 0.203211 0.138735 0.295870
N12_5 N 0.2202(7) 0.1830(7) 0.3375(9)
O43_5 O 0.2472(8) 0.2480(7) 0.3227(8)
Cd2_2 Cd 0.79868(4) 0.20132(4) 0.70132(4)
N13_3 N 0.2684(4) 0.3422(4) 0.3519(5)
N14_3 N 0.3422(4) 0.3519(5) 0.2684(4)
C24_5 C 0.6669(5) 0.8920(5) 0.2447(5)
H22_5 H 0.693619 0.906307 0.238853
C25_5 C 0.6019(6) 0.8782(6) 0.2664(6)
H23_5 H 0.574276 0.881108 0.279953
C26_5 C 0.6315(5) 0.9529(5) 0.2900(4)
C27_5 C 0.5918(5) 0.9727(7) 0.2935(7)
H24_5 H 0.567328 0.960464 0.279163
C31_5 C 0.6686(5) 0.9707(5) 0.3063(5)
H27_5 H 0.695905 0.956617 0.302868
N8_3 N 0.6578(4) 0.8519(5) 0.2316(4)
N9_5 N 0.6139(4) 0.8440(5) 0.2450(5)
N10_5 N 0.6338(4) 0.9102(4) 0.2675(4)
Cd3_2 Cd 0.70132(4) 0.79868(4) 0.20132(4)
C1_6 C 0.1080(5) 0.7447(5) 0.8331(5)
H1_6 H 0.093693 0.738853 0.806381
C2_6 C 0.1218(6) 0.7664(6) 0.8981(6)
H2_6 H 0.118892 0.779953 0.925724
C3_6 C 0.0471(5) 0.7900(4) 0.8685(5)
C4_6 C 0.0273(7) 0.7935(7) 0.9082(5)
H3_6 H 0.039536 0.779163 0.932672
C8_6 C 0.0293(5) 0.8063(5) 0.8314(5)
H6_6 H 0.043383 0.802868 0.804095
C11_6 C 0.2868(12) 0.6829(13) 0.7402(9)
H8_6 H 0.296826 0.709652 0.752044
C12_6 C 0.3110(13) 0.6190(11) 0.6980(12)
H9_6 H 0.312526 0.622448 0.666371
H10_6 H 0.335219 0.600817 0.707905
H11_6 H 0.283400 0.605132 0.705866
C13_6 C 0.3614(9) 0.6741(14) 0.7138(12)
H12_6 H 0.377042 0.672593 0.741480
H13_6 H 0.375798 0.655346 0.692399
H14_6 H 0.361265 0.704130 0.703211
Cd1_4 Cd 0.20132(4) 0.70132(4) 0.79868(4)
N1_6 N 0.1481(5) 0.7316(4) 0.8422(4)
N2_6 N 0.1560(5) 0.7450(5) 0.8861(4)
N3_6 N 0.0898(4) 0.7675(4) 0.8662(4)
N4_6 N 0.3170(7) 0.6625(9) 0.7202(7)
O41_6 O 0.2520(7) 0.6773(8) 0.7472(8)
C34_6 C 0.1829(13) 0.7598(9) 0.7132(12)
H29_6 H 0.209652 0.747956 0.703174
C35_6 C 0.1190(11) 0.8020(12) 0.6890(13)
H30_6 H 0.122448 0.833629 0.687474
H31_6 H 0.100817 0.792095 0.664781
H32_6 H 0.105132 0.794134 0.716600
C36_6 C 0.1741(14) 0.7862(12) 0.6386(9)
H33_6 H 0.172593 0.758520 0.622958
H34_6 H 0.155346 0.807601 0.624202
H35_6 H 0.204130 0.796789 0.638735
N11_6 N 0.1625(9) 0.7798(7) 0.6830(7)
O42_6 O 0.1773(8) 0.7528(8) 0.7480(7)
C37_6 C 0.2598(9) 0.7868(12) 0.8171(13)
H36_6 H 0.247956 0.796826 0.790348
C38_6 C 0.3020(12) 0.8110(13) 0.8810(11)
H37_6 H 0.333629 0.812526 0.877552
H38_6 H 0.292095 0.835219 0.899183
H39_6 H 0.294134 0.783400 0.894868
C39_6 C 0.2862(12) 0.8614(9) 0.8259(14)
H40_6 H 0.258520 0.877042 0.827407
H41_6 H 0.307601 0.875798 0.844654
H42_6 H 0.296789 0.861265 0.795870
N12_6 N 0.2798(7) 0.8170(7) 0.8375(9)
O43_6 O 0.2528(8) 0.7520(7) 0.8227(8)
N13_4 N 0.2316(4) 0.6578(4) 0.8519(5)
N14_4 N 0.1578(4) 0.6481(5) 0.7684(4)
C24_6 C 0.8331(5) 0.1080(5) 0.7447(5)
H22_6 H 0.806381 0.093693 0.738853
C25_6 C 0.8981(6) 0.1218(6) 0.7664(6)
H23_6 H 0.925724 0.118892 0.779953
C26_6 C 0.8685(5) 0.0471(5) 0.7900(4)
C27_6 C 0.9082(5) 0.0273(7) 0.7935(7)
H24_6 H 0.932672 0.039536 0.779163
C31_6 C 0.8314(5) 0.0293(5) 0.8063(5)
H27_6 H 0.804095 0.043383 0.802868
N8_4 N 0.8422(4) 0.1481(5) 0.7316(4)
N9_6 N 0.8861(4) 0.1560(5) 0.7450(5)
N10_6 N 0.8662(4) 0.0898(4) 0.7675(4)
C14_6 C 0.7447(5) 0.8331(5) 0.1080(5)
H15_6 H 0.738853 0.806381 0.093693
C15_6 C 0.7664(6) 0.8981(6) 0.1218(6)
H16_6 H 0.779953 0.925724 0.118892
C16_6 C 0.7900(4) 0.8685(5) 0.0471(5)
C17_6 C 0.7935(7) 0.9082(5) 0.0273(7)
H17_6 H 0.779163 0.932672 0.039536
C21_6 C 0.8063(5) 0.8314(5) 0.0293(5)
H20_6 H 0.802868 0.804095 0.043383
N5_4 N 0.7316(4) 0.8422(4) 0.1481(5)
N6_6 N 0.7450(5) 0.8861(4) 0.1560(5)
N7_6 N 0.7675(4) 0.8662(4) 0.0898(4)
C5_6 C 0.0107(6) 0.3178(7) 0.5870(5)
H4_6 H 0.022394 0.322986 0.558868
C6_6 C 0.0317(5) 0.3346(5) 0.6243(5)
C7_6 C 0.0122(6) 0.3293(6) 0.6652(5)
H5_6 H 0.025869 0.340485 0.690494
C9_6 C 0.0731(5) 0.3617(5) 0.6175(5)
C10_6 C 0.1014(5) 0.3541(5) 0.5816(5)
H7_6 H 0.096076 0.330167 0.562884
C14_7 C 0.2553(5) 0.3331(5) 0.3920(5)
H15_7 H 0.261147 0.306381 0.406307
C15_7 C 0.2336(6) 0.3981(6) 0.3782(6)
H16_7 H 0.220047 0.425724 0.381108
C16_7 C 0.2100(4) 0.3685(5) 0.4529(5)
C17_7 C 0.2065(7) 0.4082(5) 0.4727(7)
H17_7 H 0.220837 0.432672 0.460464
C18_6 C 0.1822(7) 0.4130(5) 0.5107(6)
H18_6 H 0.177014 0.441132 0.522394
C19_6 C 0.1654(5) 0.3757(5) 0.5317(5)
C20_6 C 0.1707(6) 0.3348(5) 0.5122(6)
H19_6 H 0.159515 0.309506 0.525869
C21_7 C 0.1937(5) 0.3314(5) 0.4707(5)
H20_7 H 0.197132 0.304095 0.456617
C22_6 C 0.1383(5) 0.3825(5) 0.5731(5)
C23_6 C 0.1459(5) 0.4184(5) 0.6014(5)
H21_6 H 0.169833 0.437116 0.596076
N6_7 N 0.2550(5) 0.3861(4) 0.3440(5)
N7_7 N 0.2325(4) 0.3662(4) 0.4102(4)
C24_7 C 0.1669(5) 0.6080(5) 0.7553(5)
H22_7 H 0.193619 0.593693 0.761147
C25_7 C 0.1019(6) 0.6218(6) 0.7336(6)
H23_7 H 0.074276 0.618892 0.720047
C26_7 C 0.1315(5) 0.5471(5) 0.7100(4)
C27_7 C 0.0918(5) 0.5273(7) 0.7065(7)
H24_7 H 0.067328 0.539536 0.720837
C28_6 C 0.0870(5) 0.4893(6) 0.6822(7)
H25_6 H 0.058868 0.477606 0.677014
C29_6 C 0.1243(5) 0.4683(5) 0.6654(5)
C30_6 C 0.1652(5) 0.4878(6) 0.6707(6)
H26_6 H 0.190494 0.474131 0.659515
C31_7 C 0.1686(5) 0.5293(5) 0.6937(5)
H27_7 H 0.195905 0.543383 0.697132
C32_6 C 0.1175(5) 0.4269(5) 0.6383(5)
C33_6 C 0.0816(5) 0.3986(5) 0.6459(5)
H28_6 H 0.062884 0.403924 0.669833
N9_7 N 0.1139(4) 0.6560(5) 0.7550(5)
N10_7 N 0.1338(4) 0.5898(4) 0.7325(4)
C1_7 C 0.8920(5) 0.2447(5) 0.6669(5)
H1_7 H 0.906307 0.238853 0.693619
C2_7 C 0.8782(6) 0.2664(6) 0.6019(6)
H2_7 H 0.881108 0.279953 0.574276
C3_7 C 0.9529(5) 0.2900(4) 0.6315(5)
C4_7 C 0.9727(7) 0.2935(7) 0.5918(5)
H3_7 H 0.960464 0.279163 0.567328
C8_7 C 0.9707(5) 0.3063(5) 0.6686(5)
H6_7 H 0.956617 0.302868 0.695905
C11_7 C 0.7132(12) 0.1829(13) 0.7598(9)
H8_7 H 0.703174 0.209652 0.747956
C12_7 C 0.6890(13) 0.1190(11) 0.8020(12)
H9_7 H 0.687474 0.122448 0.833629
H10_7 H 0.664781 0.100817 0.792095
H11_7 H 0.716600 0.105132 0.794134
C13_7 C 0.6386(9) 0.1741(14) 0.7862(12)
H12_7 H 0.622958 0.172593 0.758520
H13_7 H 0.624202 0.155346 0.807601
H14_7 H 0.638735 0.204130 0.796789
N1_7 N 0.8519(5) 0.2316(4) 0.6578(4)
N2_7 N 0.8440(5) 0.2450(5) 0.6139(4)
N3_7 N 0.9102(4) 0.2675(4) 0.6338(4)
N4_7 N 0.6830(7) 0.1625(9) 0.7798(7)
O41_7 O 0.7480(7) 0.1773(8) 0.7528(8)
C34_7 C 0.8171(13) 0.2598(9) 0.7868(12)
H29_7 H 0.790348 0.247956 0.796826
C35_7 C 0.8810(11) 0.3020(12) 0.8110(13)
H30_7 H 0.877552 0.333629 0.812526
H31_7 H 0.899183 0.292095 0.835219
H32_7 H 0.894868 0.294134 0.783400
C36_7 C 0.8259(14) 0.2862(12) 0.8614(9)
H33_7 H 0.827407 0.258520 0.877042
H34_7 H 0.844654 0.307601 0.875798
H35_7 H 0.795870 0.296789 0.861265
N11_7 N 0.8375(9) 0.2798(7) 0.8170(7)
O42_7 O 0.8227(8) 0.2528(8) 0.7520(7)
C37_7 C 0.7402(9) 0.2868(12) 0.6829(13)
H36_7 H 0.752044 0.296826 0.709652
C38_7 C 0.6980(12) 0.3110(13) 0.6190(11)
H37_7 H 0.666371 0.312526 0.622448
H38_7 H 0.707905 0.335219 0.600817
H39_7 H 0.705866 0.283400 0.605132
C39_7 C 0.7138(12) 0.3614(9) 0.6741(14)
H40_7 H 0.741480 0.377042 0.672593
H41_7 H 0.692399 0.375798 0.655346
H42_7 H 0.703211 0.361265 0.704130
N12_7 N 0.7202(7) 0.3170(7) 0.6625(9)
O43_7 O 0.7472(8) 0.2520(7) 0.6773(8)
C1_8 C 0.6080(5) 0.7553(5) 0.1669(5)
H1_8 H 0.593693 0.761147 0.193619
C2_8 C 0.6218(6) 0.7336(6) 0.1019(6)
H2_8 H 0.618892 0.720047 0.074276
C3_8 C 0.5471(5) 0.7100(4) 0.1315(5)
C4_8 C 0.5273(7) 0.7065(7) 0.0918(5)
H3_8 H 0.539536 0.720837 0.067328
C5_7 C 0.4893(6) 0.6822(7) 0.0870(5)
H4_7 H 0.477606 0.677014 0.058868
C6_7 C 0.4683(5) 0.6654(5) 0.1243(5)
C7_7 C 0.4878(6) 0.6707(6) 0.1652(5)
H5_7 H 0.474131 0.659515 0.190494
C8_8 C 0.5293(5) 0.6937(5) 0.1686(5)
H6_8 H 0.543383 0.697132 0.195905
C9_7 C 0.4269(5) 0.6383(5) 0.1175(5)
C10_7 C 0.3986(5) 0.6459(5) 0.0816(5)
H7_7 H 0.403924 0.669833 0.062884
C11_8 C 0.7868(12) 0.8171(13) 0.2598(9)
H8_8 H 0.796826 0.790348 0.247956
C12_8 C 0.8110(13) 0.8810(11) 0.3020(12)
H9_8 H 0.812526 0.877552 0.333629
H10_8 H 0.835219 0.899183 0.292095
H11_8 H 0.783400 0.894868 0.294134
C13_8 C 0.8614(9) 0.8259(14) 0.2862(12)
H12_8 H 0.877042 0.827407 0.258520
H13_8 H 0.875798 0.844654 0.307601
H14_8 H 0.861265 0.795870 0.296789
N1_8 N 0.6481(5) 0.7684(4) 0.1578(4)
N2_8 N 0.6560(5) 0.7550(5) 0.1139(4)
N3_8 N 0.5898(4) 0.7325(4) 0.1338(4)
N4_8 N 0.8170(7) 0.8375(9) 0.2798(7)
O41_8 O 0.7520(7) 0.8227(8) 0.2528(8)
C18_7 C 0.3178(7) 0.5870(5) 0.0107(6)
H18_7 H 0.322986 0.558868 0.022394
C19_7 C 0.3346(5) 0.6243(5) 0.0317(5)
C20_7 C 0.3293(6) 0.6652(5) 0.0122(6)
H19_7 H 0.340485 0.690494 0.025869
C22_7 C 0.3617(5) 0.6175(5) 0.0731(5)
C23_7 C 0.3541(5) 0.5816(5) 0.1014(5)
H21_7 H 0.330167 0.562884 0.096076
C24_8 C 0.3331(5) 0.3920(5) 0.2553(5)
H22_8 H 0.306381 0.406307 0.261147
C25_8 C 0.3981(6) 0.3782(6) 0.2336(6)
H23_8 H 0.425724 0.381108 0.220047
C26_8 C 0.3685(5) 0.4529(5) 0.2100(4)
C27_8 C 0.4082(5) 0.4727(7) 0.2065(7)
H24_8 H 0.432672 0.460464 0.220837
C28_7 C 0.4130(5) 0.5107(6) 0.1822(7)
H25_7 H 0.441132 0.522394 0.177014
C29_7 C 0.3757(5) 0.5317(5) 0.1654(5)
C30_7 C 0.3348(5) 0.5122(6) 0.1707(6)
H26_7 H 0.309506 0.525869 0.159515
C31_8 C 0.3314(5) 0.4707(5) 0.1937(5)
H27_8 H 0.304095 0.456617 0.197132
C32_7 C 0.3825(5) 0.5731(5) 0.1383(5)
C33_7 C 0.4184(5) 0.6014(5) 0.1459(5)
H28_7 H 0.437116 0.596076 0.169833
N9_8 N 0.3861(4) 0.3440(5) 0.2550(5)
N10_8 N 0.3662(4) 0.4102(4) 0.2325(4)
C34_8 C 0.6829(13) 0.7402(9) 0.2868(12)
H29_8 H 0.709652 0.752044 0.296826
C35_8 C 0.6190(11) 0.6980(12) 0.3110(13)
H30_8 H 0.622448 0.666371 0.312526
H31_8 H 0.600817 0.707905 0.335219
H32_8 H 0.605132 0.705866 0.283400
C36_8 C 0.6741(14) 0.7138(12) 0.3614(9)
H33_8 H 0.672593 0.741480 0.377042
H34_8 H 0.655346 0.692399 0.375798
H35_8 H 0.704130 0.703211 0.361265
N11_8 N 0.6625(9) 0.7202(7) 0.3170(7)
O42_8 O 0.6773(8) 0.7472(8) 0.2520(7)
C37_8 C 0.7598(9) 0.7132(12) 0.1829(13)
H36_8 H 0.747956 0.703174 0.209652
C38_8 C 0.8020(12) 0.6890(13) 0.1190(11)
H37_8 H 0.833629 0.687474 0.122448
H38_8 H 0.792095 0.664781 0.100817
H39_8 H 0.794134 0.716600 0.105132
C39_8 C 0.7862(12) 0.6386(9) 0.1741(14)
H40_8 H 0.758520 0.622958 0.172593
H41_8 H 0.807601 0.624202 0.155346
H42_8 H 0.796789 0.638735 0.204130
N12_8 N 0.7798(7) 0.6830(7) 0.1625(9)
O43_8 O 0.7528(8) 0.7480(7) 0.1773(8)
C14_8 C 0.2447(5) 0.6669(5) 0.8920(5)
H15_8 H 0.238853 0.693619 0.906307
C15_8 C 0.2664(6) 0.6019(6) 0.8782(6)
H16_8 H 0.279953 0.574276 0.881108
C16_8 C 0.2900(4) 0.6315(5) 0.9529(5)
C17_8 C 0.2935(7) 0.5918(5) 0.9727(7)
H17_8 H 0.279163 0.567328 0.960464
C21_8 C 0.3063(5) 0.6686(5) 0.9707(5)
H20_8 H 0.302868 0.695905 0.956617
N6_8 N 0.2450(5) 0.6139(4) 0.8440(5)
N7_8 N 0.2675(4) 0.6338(4) 0.9102(4)
C5_8 C 0.9893(6) 0.8178(7) 0.9130(5)
H4_8 H 0.977606 0.822986 0.941132
C6_8 C 0.9683(5) 0.8346(5) 0.8757(5)
C7_8 C 0.9878(6) 0.8293(6) 0.8348(5)
H5_8 H 0.974131 0.840485 0.809506
C9_8 C 0.9269(5) 0.8617(5) 0.8825(5)
C10_8 C 0.8986(5) 0.8541(5) 0.9184(5)
H7_8 H 0.903924 0.830167 0.937116
C18_8 C 0.8178(7) 0.9130(5) 0.9893(6)
H18_8 H 0.822986 0.941132 0.977606
C19_8 C 0.8346(5) 0.8757(5) 0.9683(5)
C20_8 C 0.8293(6) 0.8348(5) 0.9878(6)
H19_8 H 0.840485 0.809506 0.974131
C22_8 C 0.8617(5) 0.8825(5) 0.9269(5)
C23_8 C 0.8541(5) 0.9184(5) 0.8986(5)
H21_8 H 0.830167 0.937116 0.903924
C28_8 C 0.9130(5) 0.9893(6) 0.8178(7)
H25_8 H 0.941132 0.977606 0.822986
C29_8 C 0.8757(5) 0.9683(5) 0.8346(5)
C30_8 C 0.8348(5) 0.9878(6) 0.8293(6)
H26_8 H 0.809506 0.974131 0.840485
C32_8 C 0.8825(5) 0.9269(5) 0.8617(5)
C33_8 C 0.9184(5) 0.8986(5) 0.8541(5)
H28_8 H 0.937116 0.903924 0.830167
C14_9 C 0.4169(5) 0.0053(5) 0.8580(5)
H15_9 H 0.443619 0.011147 0.843693
N5_5 N 0.4078(4) 0.0184(4) 0.8981(5)
N6_9 N 0.3639(4) 0.0050(5) 0.9060(5)
Cd2_3 Cd 0.45132(4) 0.04868(4) 0.95132(4)
C1_9 C 0.5053(5) 0.6420(5) 0.5831(5)
H1_9 H 0.511147 0.656307 0.556381
C2_9 C 0.4836(6) 0.6282(6) 0.6481(6)
H2_9 H 0.470047 0.631108 0.675724
C3_9 C 0.4600(4) 0.7029(5) 0.6185(5)
C4_9 C 0.4565(7) 0.7227(7) 0.6582(5)
H3_9 H 0.470837 0.710464 0.682672
C5_9 C 0.4322(7) 0.7607(6) 0.6630(5)
H4_9 H 0.427014 0.772394 0.691132
C6_9 C 0.4154(5) 0.7817(5) 0.6257(5)
C7_9 C 0.4207(6) 0.7622(6) 0.5848(5)
H5_9 H 0.409515 0.775869 0.559506
C8_9 C 0.4437(5) 0.7207(5) 0.5814(5)
H6_9 H 0.447132 0.706617 0.554095
C9_9 C 0.3883(5) 0.8231(5) 0.6325(5)
C10_9 C 0.3959(5) 0.8514(5) 0.6684(5)
H7_9 H 0.419833 0.846076 0.687116
C11_9 C 0.5671(13) 0.4632(12) 0.4902(9)
H8_9 H 0.540348 0.453174 0.502044
C12_9 C 0.6310(11) 0.4390(13) 0.4480(12)
H9_9 H 0.627552 0.437474 0.416371
H10_9 H 0.649183 0.414781 0.457905
H11_9 H 0.644868 0.466600 0.455866
C13_9 C 0.5759(14) 0.3886(9) 0.4638(12)
H12_9 H 0.577407 0.372958 0.491480
H13_9 H 0.594654 0.374202 0.442399
H14_9 H 0.545870 0.388735 0.453211
Cd1_5 Cd 0.54868(4) 0.54868(4) 0.54868(4)
N1_9 N 0.5184(4) 0.6019(5) 0.5922(4)
N2_9 N 0.5050(5) 0.5940(5) 0.6361(4)
N3_9 N 0.4825(4) 0.6602(4) 0.6162(4)
N4_9 N 0.5875(9) 0.4330(7) 0.4702(7)
O41_9 O 0.5727(8) 0.4980(7) 0.4972(8)
C15_9 C 0.3519(6) 0.9836(6) 0.8718(6)
H16_9 H 0.324276 0.970047 0.868892
C16_9 C 0.3815(5) 0.9600(4) 0.7971(5)
C17_9 C 0.3418(5) 0.9565(7) 0.7773(7)
H17_9 H 0.317328 0.970837 0.789536
C18_9 C 0.3370(5) 0.9322(7) 0.7393(6)
H18_9 H 0.308868 0.927014 0.727606
C19_9 C 0.3743(5) 0.9154(5) 0.7183(5)
C20_9 C 0.4152(5) 0.9207(6) 0.7378(6)
H19_9 H 0.440494 0.909515 0.724131
C21_9 C 0.4186(5) 0.9437(5) 0.7793(5)
H20_9 H 0.445905 0.947132 0.793383
C22_9 C 0.3675(5) 0.8883(5) 0.6769(5)
C23_9 C 0.3316(5) 0.8959(5) 0.6486(5)
H21_9 H 0.312884 0.919833 0.653924
N7_9 N 0.3838(4) 0.9825(4) 0.8398(4)
C24_9 C 0.1420(5) 0.9169(5) 0.4947(5)
H22_9 H 0.156307 0.943619 0.488853
C25_9 C 0.1282(6) 0.8519(6) 0.5164(6)
H23_9 H 0.131108 0.824276 0.529953
C26_9 C 0.2029(5) 0.8815(5) 0.5400(4)
C27_9 C 0.2227(7) 0.8418(5) 0.5435(7)
H24_9 H 0.210464 0.817328 0.529163
C28_9 C 0.2607(6) 0.8370(5) 0.5678(7)
H25_9 H 0.272394 0.808868 0.572986
C29_9 C 0.2817(5) 0.8743(5) 0.5846(5)
C30_9 C 0.2622(6) 0.9152(5) 0.5793(6)
H26_9 H 0.275869 0.940494 0.590485
C31_9 C 0.2207(5) 0.9186(5) 0.5563(5)
H27_9 H 0.206617 0.945905 0.552868
C32_9 C 0.3231(5) 0.8675(5) 0.6117(5)
C33_9 C 0.3514(5) 0.8316(5) 0.6041(5)
H28_9 H 0.346076 0.812884 0.580167
N8_5 N 0.1019(5) 0.9078(4) 0.4816(4)
N9_9 N 0.0940(5) 0.8639(4) 0.4950(5)
N10_9 N 0.1602(4) 0.8838(4) 0.5175(4)
C34_9 C 0.4902(9) 0.5671(13) 0.4632(12)
H29_9 H 0.502044 0.540348 0.453174
C35_9 C 0.4480(12) 0.6310(11) 0.4390(13)
H30_9 H 0.416371 0.627552 0.437474
H31_9 H 0.457905 0.649183 0.414781
H32_9 H 0.455866 0.644868 0.466600
C36_9 C 0.4638(12) 0.5759(14) 0.3886(9)
H33_9 H 0.491480 0.577407 0.372958
H34_9 H 0.442399 0.594654 0.374202
H35_9 H 0.453211 0.545870 0.388735
N11_9 N 0.4702(7) 0.5875(9) 0.4330(7)
O42_9 O 0.4972(8) 0.5727(8) 0.4980(7)
C37_9 C 0.4632(12) 0.4902(9) 0.5671(13)
H36_9 H 0.453174 0.502044 0.540348
C38_9 C 0.4390(13) 0.4480(12) 0.6310(11)
H37_9 H 0.437474 0.416371 0.627552
H38_9 H 0.414781 0.457905 0.649183
H39_9 H 0.466600 0.455866 0.644868
C39_9 C 0.3886(9) 0.4638(12) 0.5759(14)
H40_9 H 0.372958 0.491480 0.577407
H41_9 H 0.374202 0.442399 0.594654
H42_9 H 0.388735 0.453211 0.545870
N12_9 N 0.4330(7) 0.4702(7) 0.5875(9)
O43_9 O 0.4980(7) 0.4972(8) 0.5727(8)
Cd3_3 Cd 0.04868(4) 0.95132(4) 0.45132(4)
N13_5 N 0.5922(4) 0.5184(4) 0.6019(5)
N14_5 N 0.6019(5) 0.5922(4) 0.5184(4)
C2_10 C 0.0164(6) 0.3718(6) 0.1481(6)
H2_10 H 0.029953 0.368892 0.175724
C3_10 C 0.0400(4) 0.2971(5) 0.1185(5)
C4_10 C 0.0435(7) 0.2773(7) 0.1582(5)
H3_10 H 0.029163 0.289536 0.182672
C5_10 C 0.0678(7) 0.2393(6) 0.1630(5)
H4_10 H 0.072986 0.227606 0.191132
C6_10 C 0.0846(5) 0.2183(5) 0.1257(5)
C7_10 C 0.0793(6) 0.2378(6) 0.0848(5)
H5_10 H 0.090485 0.224131 0.059506
C8_10 C 0.0563(5) 0.2793(5) 0.0814(5)
H6_10 H 0.052868 0.293383 0.054095
C9_10 C 0.1117(5) 0.1769(5) 0.1325(5)
C10_10 C 0.1041(5) 0.1486(5) 0.1684(5)
H7_10 H 0.080167 0.153924 0.187116
N3_10 N 0.0175(4) 0.3398(4) 0.1162(4)
C15_10 C 0.1481(6) 0.0164(6) 0.3718(6)
H16_10 H 0.175724 0.029953 0.368892
C16_10 C 0.1185(5) 0.0400(4) 0.2971(5)
C17_10 C 0.1582(5) 0.0435(7) 0.2773(7)
H17_10 H 0.182672 0.029163 0.289536
C18_10 C 0.1630(5) 0.0678(7) 0.2393(6)
H18_10 H 0.191132 0.072986 0.227606
C19_10 C 0.1257(5) 0.0846(5) 0.2183(5)
C20_10 C 0.0848(5) 0.0793(6) 0.2378(6)
H19_10 H 0.059506 0.090485 0.224131
C21_10 C 0.0814(5) 0.0563(5) 0.2793(5)
H20_10 H 0.054095 0.052868 0.293383
C22_10 C 0.1325(5) 0.1117(5) 0.1769(5)
C23_10 C 0.1684(5) 0.1041(5) 0.1486(5)
H21_10 H 0.187116 0.080167 0.153924
N7_10 N 0.1162(4) 0.0175(4) 0.3398(4)
C25_10 C 0.3718(6) 0.1481(6) 0.0164(6)
H23_10 H 0.368892 0.175724 0.029953
C26_10 C 0.2971(5) 0.1185(5) 0.0400(4)
C27_10 C 0.2773(7) 0.1582(5) 0.0435(7)
H24_10 H 0.289536 0.182672 0.029163
C28_10 C 0.2393(6) 0.1630(5) 0.0678(7)
H25_10 H 0.227606 0.191132 0.072986
C29_10 C 0.2183(5) 0.1257(5) 0.0846(5)
C30_10 C 0.2378(6) 0.0848(5) 0.0793(6)
H26_10 H 0.224131 0.059506 0.090485
C31_10 C 0.2793(5) 0.0814(5) 0.0563(5)
H27_10 H 0.293383 0.054095 0.052868
C32_10 C 0.1769(5) 0.1325(5) 0.1117(5)
C33_10 C 0.1486(5) 0.1684(5) 0.1041(5)
H28_10 H 0.153924 0.187116 0.080167
N10_10 N 0.3398(4) 0.1162(4) 0.0175(4)
C37_10 C 0.0368(12) 0.5098(9) 0.0671(13)
H36_10 H 0.046826 0.497956 0.040348
C38_10 C 0.0610(13) 0.5520(12) 0.1310(11)
H37_10 H 0.062526 0.583629 0.127552
H38_10 H 0.085219 0.542095 0.149183
H39_10 H 0.033400 0.544134 0.144868
C39_10 C 0.1114(9) 0.5362(12) 0.0759(14)
H40_10 H 0.127042 0.508520 0.077407
H41_10 H 0.125798 0.557601 0.094654
H42_10 H 0.111265 0.546789 0.045870
N12_10 N 0.0670(7) 0.5298(7) 0.0875(9)
O43_10 O 0.0020(7) 0.5028(8) 0.0727(8)
C24_10 C 0.3580(5) 0.0831(5) 0.9947(5)
H22_10 H 0.343693 0.056381 0.988853
N8_6 N 0.3981(5) 0.0922(4) 0.9816(4)
N9_10 N 0.4060(5) 0.1361(4) 0.9950(5)
C34_10 C 0.0098(9) 0.4329(13) 0.9632(12)
C35_10 C 0.0520(12) 0.3690(11) 0.9390(13)
H30_10 H 0.083629 0.372448 0.937474
H31_10 H 0.042095 0.350817 0.914781
H32_10 H 0.044134 0.355132 0.966600
C36_10 C 0.0362(12) 0.4241(14) 0.8886(9)
H33_10 H 0.008520 0.422593 0.872958
H34_10 H 0.057601 0.405346 0.874202
H35_10 H 0.046789 0.454130 0.888735
N11_10 N 0.0298(7) 0.4125(9) 0.9330(7)
O42_10 O 0.0028(8) 0.4273(8) 0.9980(7)
C14_10 C 0.0831(5) 0.9947(5) 0.3580(5)
H15_10 H 0.056381 0.988853 0.343693
N5_6 N 0.0922(4) 0.9816(4) 0.3981(5)
N6_10 N 0.1361(4) 0.9950(5) 0.4060(5)
C1_10 C 0.9947(5) 0.3580(5) 0.0831(5)
H1_10 H 0.988853 0.343693 0.056381
H8_10 H 0.959652 0.546826 0.002044
Cd1_6 Cd 0.95132(4) 0.45132(4) 0.04868(4)
N1_10 N 0.9816(4) 0.3981(5) 0.0922(4)
N2_10 N 0.9950(5) 0.4060(5) 0.1361(4)
N13_6 N 0.9078(4) 0.4816(4) 0.1019(5)
N14_6 N 0.8981(5) 0.4078(4) 0.0184(4)
C11_10 C 0.9329(13) 0.5368(12) 0.9902(9)
C12_10 C 0.8690(11) 0.5610(13) 0.9480(12)
H9_10 H 0.872448 0.562526 0.916371
H10_10 H 0.850817 0.585219 0.957905
H11_10 H 0.855132 0.533400 0.955866
C13_10 C 0.9241(14) 0.6114(9) 0.9638(12)
H12_10 H 0.922593 0.627042 0.991480
H13_10 H 0.905346 0.625798 0.942399
H14_10 H 0.954130 0.611265 0.953211
N4_10 N 0.9125(9) 0.5670(7) 0.9702(7)
O41_10 O 0.9273(8) 0.5020(7) 0.9972(8)
H29_10 H 0.997956 0.459652 0.953174
C24_11 C 0.8580(5) 0.4169(5) 0.0053(5)
H22_11 H 0.843693 0.443619 0.011147
N9_11 N 0.9060(5) 0.3639(4) 0.0050(5)
C34_11 C 0.5098(9) 0.0671(13) 0.0368(12)
H29_11 H 0.497956 0.040348 0.046826
C35_11 C 0.5520(12) 0.1310(11) 0.0610(13)
H30_11 H 0.583629 0.127552 0.062526
H31_11 H 0.542095 0.149183 0.085219
H32_11 H 0.544134 0.144868 0.033400
C36_11 C 0.5362(12) 0.0759(14) 0.1114(9)
H33_11 H 0.508520 0.077407 0.127042
H34_11 H 0.557601 0.094654 0.125798
H35_11 H 0.546789 0.045870 0.111265
N11_11 N 0.5298(7) 0.0875(9) 0.0670(7)
O42_11 O 0.5028(8) 0.0727(8) 0.0020(7)
C1_11 C 0.4947(5) 0.1420(5) 0.9169(5)
H1_11 H 0.488853 0.156307 0.943619
C2_11 C 0.5164(6) 0.1282(6) 0.8519(6)
H2_11 H 0.529953 0.131108 0.824276
C3_11 C 0.5400(4) 0.2029(5) 0.8815(5)
C4_11 C 0.5435(7) 0.2227(7) 0.8418(5)
H3_11 H 0.529163 0.210464 0.817328
C5_11 C 0.5678(7) 0.2607(6) 0.8370(5)
H4_11 H 0.572986 0.272394 0.808868
C6_11 C 0.5846(5) 0.2817(5) 0.8743(5)
C7_11 C 0.5793(6) 0.2622(6) 0.9152(5)
H5_11 H 0.590485 0.275869 0.940494
C8_11 C 0.5563(5) 0.2207(5) 0.9186(5)
H6_11 H 0.552868 0.206617 0.945905
C9_11 C 0.6117(5) 0.3231(5) 0.8675(5)
C10_11 C 0.6041(5) 0.3514(5) 0.8316(5)
H7_11 H 0.580167 0.346076 0.812884
N1_11 N 0.4816(4) 0.1019(5) 0.9078(4)
N2_11 N 0.4950(5) 0.0940(5) 0.8639(4)
N3_11 N 0.5175(4) 0.1602(4) 0.8838(4)
C14_11 C 0.5831(5) 0.5053(5) 0.6420(5)
H15_11 H 0.556381 0.511147 0.656307
C15_11 C 0.6481(6) 0.4836(6) 0.6282(6)
H16_11 H 0.675724 0.470047 0.631108
C16_11 C 0.6185(5) 0.4600(4) 0.7029(5)
C17_11 C 0.6582(5) 0.4565(7) 0.7227(7)
H17_11 H 0.682672 0.470837 0.710464
C18_11 C 0.6630(5) 0.4322(7) 0.7607(6)
H18_11 H 0.691132 0.427014 0.772394
C19_11 C 0.6257(5) 0.4154(5) 0.7817(5)
C20_11 C 0.5848(5) 0.4207(6) 0.7622(6)
H19_11 H 0.559506 0.409515 0.775869
C21_11 C 0.5814(5) 0.4437(5) 0.7207(5)
H20_11 H 0.554095 0.447132 0.706617
C22_11 C 0.6325(5) 0.3883(5) 0.8231(5)
C23_11 C 0.6684(5) 0.3959(5) 0.8514(5)
H21_11 H 0.687116 0.419833 0.846076
N6_11 N 0.6361(4) 0.5050(5) 0.5940(5)
N7_11 N 0.6162(4) 0.4825(4) 0.6602(4)
C25_11 C 0.8718(6) 0.3519(6) 0.9836(6)
H23_11 H 0.868892 0.324276 0.970047
C26_11 C 0.7971(5) 0.3815(5) 0.9600(4)
C27_11 C 0.7773(7) 0.3418(5) 0.9565(7)
H24_11 H 0.789536 0.317328 0.970837
C28_11 C 0.7393(6) 0.3370(5) 0.9322(7)
H25_11 H 0.727606 0.308868 0.927014
C29_11 C 0.7183(5) 0.3743(5) 0.9154(5)
C30_11 C 0.7378(6) 0.4152(5) 0.9207(6)
H26_11 H 0.724131 0.440494 0.909515
C31_11 C 0.7793(5) 0.4186(5) 0.9437(5)
H27_11 H 0.793383 0.445905 0.947132
C32_11 C 0.6769(5) 0.3675(5) 0.8883(5)
C33_11 C 0.6486(5) 0.3316(5) 0.8959(5)
H28_11 H 0.653924 0.312884 0.919833
N10_11 N 0.8398(4) 0.3838(4) 0.9825(4)
H36_11 H 0.546826 0.002044 0.959652
C11_11 C 0.4329(13) 0.9632(12) 0.0098(9)
C12_11 C 0.3690(11) 0.9390(13) 0.0520(12)
H9_11 H 0.372448 0.937474 0.083629
H10_11 H 0.350817 0.914781 0.042095
H11_11 H 0.355132 0.966600 0.044134
C13_11 C 0.4241(14) 0.8886(9) 0.0362(12)
H12_11 H 0.422593 0.872958 0.008520
H13_11 H 0.405346 0.874202 0.057601
H14_11 H 0.454130 0.888735 0.046789
N4_11 N 0.4125(9) 0.9330(7) 0.0298(7)
O41_11 O 0.4273(8) 0.9980(7) 0.0028(8)
H8_11 H 0.459652 0.953174 0.997956
C37_11 C 0.5368(12) 0.9902(9) 0.9329(13)
C38_11 C 0.5610(13) 0.9480(12) 0.8690(11)
H37_11 H 0.562526 0.916371 0.872448
H38_11 H 0.585219 0.957905 0.850817
H39_11 H 0.533400 0.955866 0.855132
C39_11 C 0.6114(9) 0.9638(12) 0.9241(14)
H40_11 H 0.627042 0.991480 0.922593
H41_11 H 0.625798 0.942399 0.905346
H42_11 H 0.611265 0.953211 0.954130
N12_11 N 0.5670(7) 0.9702(7) 0.9125(9)
O43_11 O 0.5020(7) 0.9972(8) 0.9273(8)
C11_12 C 0.0671(13) 0.0368(12) 0.5098(9)
H8_12 H 0.040348 0.046826 0.497956
C12_12 C 0.1310(11) 0.0610(13) 0.5520(12)
H9_12 H 0.127552 0.062526 0.583629
H10_12 H 0.149183 0.085219 0.542095
H11_12 H 0.144868 0.033400 0.544134
C13_12 C 0.0759(14) 0.1114(9) 0.5362(12)
H12_12 H 0.077407 0.127042 0.508520
H13_12 H 0.094654 0.125798 0.557601
H14_12 H 0.045870 0.111265 0.546789
N4_12 N 0.0875(9) 0.0670(7) 0.5298(7)
O41_12 O 0.0727(8) 0.0020(7) 0.5028(8)
C1_12 C 0.0053(5) 0.8580(5) 0.4169(5)
H1_12 H 0.011147 0.843693 0.443619
N1_12 N 0.0184(4) 0.8981(5) 0.4078(4)
N2_12 N 0.0050(5) 0.9060(5) 0.3639(4)
H29_12 H 0.002044 0.959652 0.546826
C37_12 C 0.9632(12) 0.0098(9) 0.4329(13)
C38_12 C 0.9390(13) 0.0520(12) 0.3690(11)
H37_12 H 0.937474 0.083629 0.372448
H38_12 H 0.914781 0.042095 0.350817
H39_12 H 0.966600 0.044134 0.355132
C39_12 C 0.8886(9) 0.0362(12) 0.4241(14)
H40_12 H 0.872958 0.008520 0.422593
H41_12 H 0.874202 0.057601 0.405346
H42_12 H 0.888735 0.046789 0.454130
N12_12 N 0.9330(7) 0.0298(7) 0.4125(9)
O43_12 O 0.9980(7) 0.0028(8) 0.4273(8)
C2_12 C 0.9836(6) 0.8718(6) 0.3519(6)
H2_12 H 0.970047 0.868892 0.324276
C3_12 C 0.9600(4) 0.7971(5) 0.3815(5)
C4_12 C 0.9565(7) 0.7773(7) 0.3418(5)
H3_12 H 0.970837 0.789536 0.317328
C5_12 C 0.9322(7) 0.7393(6) 0.3370(5)
H4_12 H 0.927014 0.727606 0.308868
C6_12 C 0.9154(5) 0.7183(5) 0.3743(5)
C7_12 C 0.9207(6) 0.7378(6) 0.4152(5)
H5_12 H 0.909515 0.724131 0.440494
C8_12 C 0.9437(5) 0.7793(5) 0.4186(5)
H6_12 H 0.947132 0.793383 0.445905
C9_12 C 0.8883(5) 0.6769(5) 0.3675(5)
C10_12 C 0.8959(5) 0.6486(5) 0.3316(5)
H7_12 H 0.919833 0.653924 0.312884
N3_12 N 0.9825(4) 0.8398(4) 0.3838(4)
C14_12 C 0.9169(5) 0.4947(5) 0.1420(5)
H15_12 H 0.943619 0.488853 0.156307
C15_12 C 0.8519(6) 0.5164(6) 0.1282(6)
H16_12 H 0.824276 0.529953 0.131108
C16_12 C 0.8815(5) 0.5400(4) 0.2029(5)
C17_12 C 0.8418(5) 0.5435(7) 0.2227(7)
H17_12 H 0.817328 0.529163 0.210464
C18_12 C 0.8370(5) 0.5678(7) 0.2607(6)
H18_12 H 0.808868 0.572986 0.272394
C19_12 C 0.8743(5) 0.5846(5) 0.2817(5)
C20_12 C 0.9152(5) 0.5793(6) 0.2622(6)
H19_12 H 0.940494 0.590485 0.275869
C21_12 C 0.9186(5) 0.5563(5) 0.2207(5)
H20_12 H 0.945905 0.552868 0.206617
C22_12 C 0.8675(5) 0.6117(5) 0.3231(5)
C23_12 C 0.8316(5) 0.6041(5) 0.3514(5)
H21_12 H 0.812884 0.580167 0.346076
N6_12 N 0.8639(4) 0.4950(5) 0.0940(5)
N7_12 N 0.8838(4) 0.5175(4) 0.1602(4)
C24_12 C 0.6420(5) 0.5831(5) 0.5053(5)
H22_12 H 0.656307 0.556381 0.511147
C25_12 C 0.6282(6) 0.6481(6) 0.4836(6)
H23_12 H 0.631108 0.675724 0.470047
C26_12 C 0.7029(5) 0.6185(5) 0.4600(4)
C27_12 C 0.7227(7) 0.6582(5) 0.4565(7)
H24_12 H 0.710464 0.682672 0.470837
C28_12 C 0.7607(6) 0.6630(5) 0.4322(7)
H25_12 H 0.772394 0.691132 0.427014
C29_12 C 0.7817(5) 0.6257(5) 0.4154(5)
C30_12 C 0.7622(6) 0.5848(5) 0.4207(6)
H26_12 H 0.775869 0.559506 0.409515
C31_12 C 0.7207(5) 0.5814(5) 0.4437(5)
H27_12 H 0.706617 0.554095 0.447132
C32_12 C 0.8231(5) 0.6325(5) 0.3883(5)
C33_12 C 0.8514(5) 0.6684(5) 0.3959(5)
H28_12 H 0.846076 0.687116 0.419833
N9_12 N 0.5940(5) 0.6361(4) 0.5050(5)
N10_12 N 0.6602(4) 0.6162(4) 0.4825(4)
C34_12 C 0.9902(9) 0.9329(13) 0.5368(12)
C35_12 C 0.9480(12) 0.8690(11) 0.5610(13)
H30_12 H 0.916371 0.872448 0.562526
H31_12 H 0.957905 0.850817 0.585219
H32_12 H 0.955866 0.855132 0.533400
C36_12 C 0.9638(12) 0.9241(14) 0.6114(9)
H33_12 H 0.991480 0.922593 0.627042
H34_12 H 0.942399 0.905346 0.625798
H35_12 H 0.953211 0.954130 0.611265
N11_12 N 0.9702(7) 0.9125(9) 0.5670(7)
O42_12 O 0.9972(8) 0.9273(8) 0.5020(7)
H36_12 H 0.953174 0.997956 0.459652
C14_13 C 0.2553(5) 0.6669(5) 0.1080(5)
H15_13 H 0.261147 0.693619 0.093693
C15_13 C 0.2336(6) 0.6019(6) 0.1218(6)
H16_13 H 0.220047 0.574276 0.118892
C16_13 C 0.2100(4) 0.6315(5) 0.0471(5)
C17_13 C 0.2065(7) 0.5918(5) 0.0273(7)
H17_13 H 0.220837 0.567328 0.039536
C21_13 C 0.1937(5) 0.6686(5) 0.0293(5)
H20_13 H 0.197132 0.695905 0.043383
N5_7 N 0.2684(4) 0.6578(4) 0.1481(5)
N6_13 N 0.2550(5) 0.6139(4) 0.1560(5)
N7_13 N 0.2325(4) 0.6338(4) 0.0898(4)
Cd2_4 Cd 0.29868(4) 0.70132(4) 0.20132(4)
C5_13 C 0.0107(6) 0.6822(7) 0.9130(5)
H4_13 H 0.022394 0.677014 0.941132
C6_13 C 0.0317(5) 0.6654(5) 0.8757(5)
C7_13 C 0.0122(6) 0.6707(6) 0.8348(5)
H5_13 H 0.025869 0.659515 0.809506
C9_13 C 0.0731(5) 0.6383(5) 0.8825(5)
C10_13 C 0.1014(5) 0.6459(5) 0.9184(5)
H7_13 H 0.096076 0.669833 0.937116
C18_13 C 0.1822(7) 0.5870(5) 0.9893(6)
H18_13 H 0.177014 0.558868 0.977606
C19_13 C 0.1654(5) 0.6243(5) 0.9683(5)
C20_13 C 0.1707(6) 0.6652(5) 0.9878(6)
H19_13 H 0.159515 0.690494 0.974131
C22_13 C 0.1383(5) 0.6175(5) 0.9269(5)
C23_13 C 0.1459(5) 0.5816(5) 0.8986(5)
H21_13 H 0.169833 0.562884 0.903924
C24_13 C 0.1669(5) 0.3920(5) 0.7447(5)
H22_13 H 0.193619 0.406307 0.738853
C25_13 C 0.1019(6) 0.3782(6) 0.7664(6)
H23_13 H 0.074276 0.381108 0.779953
C26_13 C 0.1315(5) 0.4529(5) 0.7900(4)
C27_13 C 0.0918(5) 0.4727(7) 0.7935(7)
H24_13 H 0.067328 0.460464 0.779163
C28_13 C 0.0870(5) 0.5107(6) 0.8178(7)
H25_13 H 0.058868 0.522394 0.822986
C29_13 C 0.1243(5) 0.5317(5) 0.8346(5)
C30_13 C 0.1652(5) 0.5122(6) 0.8293(6)
H26_13 H 0.190494 0.525869 0.840485
C31_13 C 0.1686(5) 0.4707(5) 0.8063(5)
H27_13 H 0.195905 0.456617 0.802868
C32_13 C 0.1175(5) 0.5731(5) 0.8617(5)
C33_13 C 0.0816(5) 0.6014(5) 0.8541(5)
H28_13 H 0.062884 0.596076 0.830167
N8_7 N 0.1578(4) 0.3519(5) 0.7316(4)
N9_13 N 0.1139(4) 0.3440(5) 0.7450(5)
N10_13 N 0.1338(4) 0.4102(4) 0.7675(4)
Cd3_4 Cd 0.20132(4) 0.29868(4) 0.70132(4)
C1_13 C 0.6080(5) 0.2447(5) 0.3331(5)
H1_13 H 0.593693 0.238853 0.306381
C2_13 C 0.6218(6) 0.2664(6) 0.3981(6)
H2_13 H 0.618892 0.279953 0.425724
C3_13 C 0.5471(5) 0.2900(4) 0.3685(5)
C4_13 C 0.5273(7) 0.2935(7) 0.4082(5)
H3_13 H 0.539536 0.279163 0.432672
C5_14 C 0.4893(6) 0.3178(7) 0.4130(5)
H4_14 H 0.477606 0.322986 0.441132
C6_14 C 0.4683(5) 0.3346(5) 0.3757(5)
C7_14 C 0.4878(6) 0.3293(6) 0.3348(5)
H5_14 H 0.474131 0.340485 0.309506
C8_13 C 0.5293(5) 0.3063(5) 0.3314(5)
H6_13 H 0.543383 0.302868 0.304095
C9_14 C 0.4269(5) 0.3617(5) 0.3825(5)
C10_14 C 0.3986(5) 0.3541(5) 0.4184(5)
H7_14 H 0.403924 0.330167 0.437116
C11_13 C 0.7868(12) 0.1829(13) 0.2402(9)
H8_13 H 0.796826 0.209652 0.252044
C12_13 C 0.8110(13) 0.1190(11) 0.1980(12)
H9_13 H 0.812526 0.122448 0.166371
H10_13 H 0.835219 0.100817 0.207905
H11_13 H 0.783400 0.105132 0.205866
C13_13 C 0.8614(9) 0.1741(14) 0.2138(12)
H12_13 H 0.877042 0.172593 0.241480
H13_13 H 0.875798 0.155346 0.192399
H14_13 H 0.861265 0.204130 0.203211
Cd1_7 Cd 0.70132(4) 0.20132(4) 0.29868(4)
N1_13 N 0.6481(5) 0.2316(4) 0.3422(4)
N2_13 N 0.6560(5) 0.2450(5) 0.3861(4)
N3_13 N 0.5898(4) 0.2675(4) 0.3662(4)
N4_13 N 0.8170(7) 0.1625(9) 0.2202(7)
O41_13 O 0.7520(7) 0.1773(8) 0.2472(8)
C14_14 C 0.2447(5) 0.3331(5) 0.6080(5)
H15_14 H 0.238853 0.306381 0.593693
C15_14 C 0.2664(6) 0.3981(6) 0.6218(6)
H16_14 H 0.279953 0.425724 0.618892
C16_14 C 0.2900(4) 0.3685(5) 0.5471(5)
C17_14 C 0.2935(7) 0.4082(5) 0.5273(7)
H17_14 H 0.279163 0.432672 0.539536
C18_14 C 0.3178(7) 0.4130(5) 0.4893(6)
H18_14 H 0.322986 0.441132 0.477606
C19_14 C 0.3346(5) 0.3757(5) 0.4683(5)
C20_14 C 0.3293(6) 0.3348(5) 0.4878(6)
H19_14 H 0.340485 0.309506 0.474131
C21_14 C 0.3063(5) 0.3314(5) 0.5293(5)
H20_14 H 0.302868 0.304095 0.543383
C22_14 C 0.3617(5) 0.3825(5) 0.4269(5)
C23_14 C 0.3541(5) 0.4184(5) 0.3986(5)
H21_14 H 0.330167 0.437116 0.403924
N5_8 N 0.2316(4) 0.3422(4) 0.6481(5)
N6_14 N 0.2450(5) 0.3861(4) 0.6560(5)
N7_14 N 0.2675(4) 0.3662(4) 0.5898(4)
C24_14 C 0.3331(5) 0.6080(5) 0.2447(5)
H22_14 H 0.306381 0.593693 0.238853
C25_14 C 0.3981(6) 0.6218(6) 0.2664(6)
H23_14 H 0.425724 0.618892 0.279953
C26_14 C 0.3685(5) 0.5471(5) 0.2900(4)
C27_14 C 0.4082(5) 0.5273(7) 0.2935(7)
H24_14 H 0.432672 0.539536 0.279163
C28_14 C 0.4130(5) 0.4893(6) 0.3178(7)
H25_14 H 0.441132 0.477606 0.322986
C29_14 C 0.3757(5) 0.4683(5) 0.3346(5)
C30_14 C 0.3348(5) 0.4878(6) 0.3293(6)
H26_14 H 0.309506 0.474131 0.340485
C31_14 C 0.3314(5) 0.5293(5) 0.3063(5)
H27_14 H 0.304095 0.543383 0.302868
C32_14 C 0.3825(5) 0.4269(5) 0.3617(5)
C33_14 C 0.4184(5) 0.3986(5) 0.3541(5)
H28_14 H 0.437116 0.403924 0.330167
N8_8 N 0.3422(4) 0.6481(5) 0.2316(4)
N9_14 N 0.3861(4) 0.6560(5) 0.2450(5)
N10_14 N 0.3662(4) 0.5898(4) 0.2675(4)
C34_13 C 0.6829(13) 0.2598(9) 0.2132(12)
H29_13 H 0.709652 0.247956 0.203174
C35_13 C 0.6190(11) 0.3020(12) 0.1890(13)
H30_13 H 0.622448 0.333629 0.187474
H31_13 H 0.600817 0.292095 0.164781
H32_13 H 0.605132 0.294134 0.216600
C36_13 C 0.6741(14) 0.2862(12) 0.1386(9)
H33_13 H 0.672593 0.258520 0.122958
H34_13 H 0.655346 0.307601 0.124202
H35_13 H 0.704130 0.296789 0.138735
N11_13 N 0.6625(9) 0.2798(7) 0.1830(7)
O42_13 O 0.6773(8) 0.2528(8) 0.2480(7)
C37_13 C 0.7598(9) 0.2868(12) 0.3171(13)
H36_13 H 0.747956 0.296826 0.290348
C38_13 C 0.8020(12) 0.3110(13) 0.3810(11)
H37_13 H 0.833629 0.312526 0.377552
H38_13 H 0.792095 0.335219 0.399183
H39_13 H 0.794134 0.283400 0.394868
C39_13 C 0.7862(12) 0.3614(9) 0.3259(14)
H40_13 H 0.758520 0.377042 0.327407
H41_13 H 0.807601 0.375798 0.344654
H42_13 H 0.796789 0.361265 0.295870
N12_13 N 0.7798(7) 0.3170(7) 0.3375(9)
O43_13 O 0.7528(8) 0.2520(7) 0.3227(8)
N13_7 N 0.7316(4) 0.1578(4) 0.3519(5)
N14_7 N 0.6578(4) 0.1481(5) 0.2684(4)
C24_15 C 0.6669(5) 0.1080(5) 0.2553(5)
H22_15 H 0.693619 0.093693 0.261147
C25_15 C 0.6019(6) 0.1218(6) 0.2336(6)
H23_15 H 0.574276 0.118892 0.220047
C26_15 C 0.6315(5) 0.0471(5) 0.2100(4)
C27_15 C 0.5918(5) 0.0273(7) 0.2065(7)
H24_15 H 0.567328 0.039536 0.220837
C31_15 C 0.6686(5) 0.0293(5) 0.1937(5)
H27_15 H 0.695905 0.043383 0.197132
N9_15 N 0.6139(4) 0.1560(5) 0.2550(5)
N10_15 N 0.6338(4) 0.0898(4) 0.2325(4)
C1_14 C 0.3920(5) 0.7447(5) 0.1669(5)
H1_14 H 0.406307 0.738853 0.193619
C2_14 C 0.3782(6) 0.7664(6) 0.1019(6)
H2_14 H 0.381108 0.779953 0.074276
C3_14 C 0.4529(5) 0.7900(4) 0.1315(5)
C4_14 C 0.4727(7) 0.7935(7) 0.0918(5)
H3_14 H 0.460464 0.779163 0.067328
C5_15 C 0.5107(6) 0.8178(7) 0.0870(5)
H4_15 H 0.522394 0.822986 0.058868
C6_15 C 0.5317(5) 0.8346(5) 0.1243(5)
C7_15 C 0.5122(6) 0.8293(6) 0.1652(5)
H5_15 H 0.525869 0.840485 0.190494
C8_14 C 0.4707(5) 0.8063(5) 0.1686(5)
H6_14 H 0.456617 0.802868 0.195905
C9_15 C 0.5731(5) 0.8617(5) 0.1175(5)
C10_15 C 0.6014(5) 0.8541(5) 0.0816(5)
H7_15 H 0.596076 0.830167 0.062884
C11_14 C 0.2132(12) 0.6829(13) 0.2598(9)
H8_14 H 0.203174 0.709652 0.247956
C12_14 C 0.1890(13) 0.6190(11) 0.3020(12)
H9_14 H 0.187474 0.622448 0.333629
H10_14 H 0.164781 0.600817 0.292095
H11_14 H 0.216600 0.605132 0.294134
C13_14 C 0.1386(9) 0.6741(14) 0.2862(12)
H12_14 H 0.122958 0.672593 0.258520
H13_14 H 0.124202 0.655346 0.307601
H14_14 H 0.138735 0.704130 0.296789
N1_14 N 0.3519(5) 0.7316(4) 0.1578(4)
N2_14 N 0.3440(5) 0.7450(5) 0.1139(4)
N3_14 N 0.4102(4) 0.7675(4) 0.1338(4)
N4_14 N 0.1830(7) 0.6625(9) 0.2798(7)
O41_14 O 0.2480(7) 0.6773(8) 0.2528(8)
C18_15 C 0.6822(7) 0.9130(5) 0.0107(6)
H18_15 H 0.677014 0.941132 0.022394
C19_15 C 0.6654(5) 0.8757(5) 0.0317(5)
C20_15 C 0.6707(6) 0.8348(5) 0.0122(6)
H19_15 H 0.659515 0.809506 0.025869
C22_15 C 0.6383(5) 0.8825(5) 0.0731(5)
C23_15 C 0.6459(5) 0.9184(5) 0.1014(5)
H21_15 H 0.669833 0.937116 0.096076
C28_15 C 0.5870(5) 0.9893(6) 0.1822(7)
H25_15 H 0.558868 0.977606 0.177014
C29_15 C 0.6243(5) 0.9683(5) 0.1654(5)
C30_15 C 0.6652(5) 0.9878(6) 0.1707(6)
H26_15 H 0.690494 0.974131 0.159515
C32_15 C 0.6175(5) 0.9269(5) 0.1383(5)
C33_15 C 0.5816(5) 0.8986(5) 0.1459(5)
H28_15 H 0.562884 0.903924 0.169833
C34_14 C 0.3171(13) 0.7598(9) 0.2868(12)
H29_14 H 0.290348 0.747956 0.296826
C35_14 C 0.3810(11) 0.8020(12) 0.3110(13)
H30_14 H 0.377552 0.833629 0.312526
H31_14 H 0.399183 0.792095 0.335219
H32_14 H 0.394868 0.794134 0.283400
C36_14 C 0.3259(14) 0.7862(12) 0.3614(9)
H33_14 H 0.327407 0.758520 0.377042
H34_14 H 0.344654 0.807601 0.375798
H35_14 H 0.295870 0.796789 0.361265
N11_14 N 0.3375(9) 0.7798(7) 0.3170(7)
O42_14 O 0.3227(8) 0.7528(8) 0.2520(7)
C37_14 C 0.2402(9) 0.7868(12) 0.1829(13)
H36_14 H 0.252044 0.796826 0.209652
C38_14 C 0.1980(12) 0.8110(13) 0.1190(11)
H37_14 H 0.166371 0.812526 0.122448
H38_14 H 0.207905 0.835219 0.100817
H39_14 H 0.205866 0.783400 0.105132
C39_14 C 0.2138(12) 0.8614(9) 0.1741(14)
H40_14 H 0.241480 0.877042 0.172593
H41_14 H 0.192399 0.875798 0.155346
H42_14 H 0.203211 0.861265 0.204130
N12_14 N 0.2202(7) 0.8170(7) 0.1625(9)
O43_14 O 0.2472(8) 0.7520(7) 0.1773(8)
C1_15 C 0.1080(5) 0.2553(5) 0.6669(5)
H1_15 H 0.093693 0.261147 0.693619
C2_15 C 0.1218(6) 0.2336(6) 0.6019(6)
H2_15 H 0.118892 0.220047 0.574276
C3_15 C 0.0471(5) 0.2100(4) 0.6315(5)
C4_15 C 0.0273(7) 0.2065(7) 0.5918(5)
H3_15 H 0.039536 0.220837 0.567328
C8_15 C 0.0293(5) 0.1937(5) 0.6686(5)
H6_15 H 0.043383 0.197132 0.695905
C11_15 C 0.2868(12) 0.3171(13) 0.7598(9)
H8_15 H 0.296826 0.290348 0.747956
C12_15 C 0.3110(13) 0.3810(11) 0.8020(12)
H9_15 H 0.312526 0.377552 0.833629
H10_15 H 0.335219 0.399183 0.792095
H11_15 H 0.283400 0.394868 0.794134
C13_15 C 0.3614(9) 0.3259(14) 0.7862(12)
H12_15 H 0.377042 0.327407 0.758520
H13_15 H 0.375798 0.344654 0.807601
H14_15 H 0.361265 0.295870 0.796789
N1_15 N 0.1481(5) 0.2684(4) 0.6578(4)
N2_15 N 0.1560(5) 0.2550(5) 0.6139(4)
N3_15 N 0.0898(4) 0.2325(4) 0.6338(4)
N4_15 N 0.3170(7) 0.3375(9) 0.7798(7)
O41_15 O 0.2520(7) 0.3227(8) 0.7528(8)
C34_15 C 0.1829(13) 0.2402(9) 0.7868(12)
H29_15 H 0.209652 0.252044 0.796826
C35_15 C 0.1190(11) 0.1980(12) 0.8110(13)
H30_15 H 0.122448 0.166371 0.812526
H31_15 H 0.100817 0.207905 0.835219
H32_15 H 0.105132 0.205866 0.783400
C36_15 C 0.1741(14) 0.2138(12) 0.8614(9)
H33_15 H 0.172593 0.241480 0.877042
H34_15 H 0.155346 0.192399 0.875798
H35_15 H 0.204130 0.203211 0.861265
N11_15 N 0.1625(9) 0.2202(7) 0.8170(7)
O42_15 O 0.1773(8) 0.2472(8) 0.7520(7)
C37_15 C 0.2598(9) 0.2132(12) 0.6829(13)
H36_15 H 0.247956 0.203174 0.709652
C38_15 C 0.3020(12) 0.1890(13) 0.6190(11)
H37_15 H 0.333629 0.187474 0.622448
H38_15 H 0.292095 0.164781 0.600817
H39_15 H 0.294134 0.216600 0.605132
C39_15 C 0.2862(12) 0.1386(9) 0.6741(14)
H40_15 H 0.258520 0.122958 0.672593
H41_15 H 0.307601 0.124202 0.655346
H42_15 H 0.296789 0.138735 0.704130
N12_15 N 0.2798(7) 0.1830(7) 0.6625(9)
O43_15 O 0.2528(8) 0.2480(7) 0.6773(8)
C5_16 C 0.9893(6) 0.1822(7) 0.5870(5)
H4_16 H 0.977606 0.177014 0.558868
C6_16 C 0.9683(5) 0.1654(5) 0.6243(5)
C7_16 C 0.9878(6) 0.1707(6) 0.6652(5)
H5_16 H 0.974131 0.159515 0.690494
C9_16 C 0.9269(5) 0.1383(5) 0.6175(5)
C10_16 C 0.8986(5) 0.1459(5) 0.5816(5)
H7_16 H 0.903924 0.169833 0.562884
C14_15 C 0.7447(5) 0.1669(5) 0.3920(5)
H15_15 H 0.738853 0.193619 0.406307
C15_15 C 0.7664(6) 0.1019(6) 0.3782(6)
H16_15 H 0.779953 0.074276 0.381108
C16_15 C 0.7900(4) 0.1315(5) 0.4529(5)
C17_15 C 0.7935(7) 0.0918(5) 0.4727(7)
H17_15 H 0.779163 0.067328 0.460464
C18_16 C 0.8178(7) 0.0870(5) 0.5107(6)
H18_16 H 0.822986 0.058868 0.522394
C19_16 C 0.8346(5) 0.1243(5) 0.5317(5)
C20_16 C 0.8293(6) 0.1652(5) 0.5122(6)
H19_16 H 0.840485 0.190494 0.525869
C21_15 C 0.8063(5) 0.1686(5) 0.4707(5)
H20_15 H 0.802868 0.195905 0.456617
C22_16 C 0.8617(5) 0.1175(5) 0.5731(5)
C23_16 C 0.8541(5) 0.0816(5) 0.6014(5)
H21_16 H 0.830167 0.062884 0.596076
N6_15 N 0.7450(5) 0.1139(4) 0.3440(5)
N7_15 N 0.7675(4) 0.1338(4) 0.4102(4)
C28_16 C 0.9130(5) 0.0107(6) 0.6822(7)
H25_16 H 0.941132 0.022394 0.677014
C29_16 C 0.8757(5) 0.0317(5) 0.6654(5)
C30_16 C 0.8348(5) 0.0122(6) 0.6707(6)
H26_16 H 0.809506 0.025869 0.659515
C32_16 C 0.8825(5) 0.0731(5) 0.6383(5)
C33_16 C 0.9184(5) 0.1014(5) 0.6459(5)
H28_16 H 0.937116 0.096076 0.669833
C1_16 C 0.8920(5) 0.7553(5) 0.8331(5)
H1_16 H 0.906307 0.761147 0.806381
C2_16 C 0.8782(6) 0.7336(6) 0.8981(6)
H2_16 H 0.881108 0.720047 0.925724
C3_16 C 0.9529(5) 0.7100(4) 0.8685(5)
C4_16 C 0.9727(7) 0.7065(7) 0.9082(5)
H3_16 H 0.960464 0.720837 0.932672
C8_16 C 0.9707(5) 0.6937(5) 0.8314(5)
H6_16 H 0.956617 0.697132 0.804095
C11_16 C 0.7132(12) 0.8171(13) 0.7402(9)
H8_16 H 0.703174 0.790348 0.752044
C12_16 C 0.6890(13) 0.8810(11) 0.6980(12)
H9_16 H 0.687474 0.877552 0.666371
H10_16 H 0.664781 0.899183 0.707905
H11_16 H 0.716600 0.894868 0.705866
C13_16 C 0.6386(9) 0.8259(14) 0.7138(12)
H12_16 H 0.622958 0.827407 0.741480
H13_16 H 0.624202 0.844654 0.692399
H14_16 H 0.638735 0.795870 0.703211
Cd1_8 Cd 0.79868(4) 0.79868(4) 0.79868(4)
N1_16 N 0.8519(5) 0.7684(4) 0.8422(4)
N2_16 N 0.8440(5) 0.7550(5) 0.8861(4)
N3_16 N 0.9102(4) 0.7325(4) 0.8662(4)
N4_16 N 0.6830(7) 0.8375(9) 0.7202(7)
O41_16 O 0.7480(7) 0.8227(8) 0.7472(8)
C34_16 C 0.8171(13) 0.7402(9) 0.7132(12)
H29_16 H 0.790348 0.752044 0.703174
C35_16 C 0.8810(11) 0.6980(12) 0.6890(13)
H30_16 H 0.877552 0.666371 0.687474
H31_16 H 0.899183 0.707905 0.664781
H32_16 H 0.894868 0.705866 0.716600
C36_16 C 0.8259(14) 0.7138(12) 0.6386(9)
H33_16 H 0.827407 0.741480 0.622958
H34_16 H 0.844654 0.692399 0.624202
H35_16 H 0.795870 0.703211 0.638735
N11_16 N 0.8375(9) 0.7202(7) 0.6830(7)
O42_16 O 0.8227(8) 0.7472(8) 0.7480(7)
C37_16 C 0.7402(9) 0.7132(12) 0.8171(13)
H36_16 H 0.752044 0.703174 0.790348
C38_16 C 0.6980(12) 0.6890(13) 0.8810(11)
H37_16 H 0.666371 0.687474 0.877552
H38_16 H 0.707905 0.664781 0.899183
H39_16 H 0.705866 0.716600 0.894868
C39_16 C 0.7138(12) 0.6386(9) 0.8259(14)
H40_16 H 0.741480 0.622958 0.827407
H41_16 H 0.692399 0.624202 0.844654
H42_16 H 0.703211 0.638735 0.795870
N12_16 N 0.7202(7) 0.6830(7) 0.8375(9)
O43_16 O 0.7472(8) 0.7480(7) 0.8227(8)
N13_8 N 0.7684(4) 0.8422(4) 0.8519(5)
N14_8 N 0.8422(4) 0.8519(5) 0.7684(4)
C14_16 C 0.7553(5) 0.8331(5) 0.8920(5)
H15_16 H 0.761147 0.806381 0.906307
C15_16 C 0.7336(6) 0.8981(6) 0.8782(6)
H16_16 H 0.720047 0.925724 0.881108
C16_16 C 0.7100(4) 0.8685(5) 0.9529(5)
C17_16 C 0.7065(7) 0.9082(5) 0.9727(7)
H17_16 H 0.720837 0.932672 0.960464
C21_16 C 0.6937(5) 0.8314(5) 0.9707(5)
H20_16 H 0.697132 0.804095 0.956617
N6_16 N 0.7550(5) 0.8861(4) 0.8440(5)
N7_16 N 0.7325(4) 0.8662(4) 0.9102(4)
C24_16 C 0.8331(5) 0.8920(5) 0.7553(5)
H22_16 H 0.806381 0.906307 0.761147
C25_16 C 0.8981(6) 0.8782(6) 0.7336(6)
H23_16 H 0.925724 0.881108 0.720047
C26_16 C 0.8685(5) 0.9529(5) 0.7100(4)
C27_16 C 0.9082(5) 0.9727(7) 0.7065(7)
H24_16 H 0.932672 0.960464 0.720837
C31_16 C 0.8314(5) 0.9707(5) 0.6937(5)
H27_16 H 0.804095 0.956617 0.697132
N9_16 N 0.8861(4) 0.8440(5) 0.7550(5)
N10_16 N 0.8662(4) 0.9102(4) 0.7325(4)
loop_
_geom_bond_atom_site_label_1
_geom_bond_atom_site_label_2
_geom_bond_site_symmetry_1
_geom_bond_site_symmetry_2
Mo2 O3 1_555 1_555
O4 Mo2 1_555 1_555
O5 Mo2 1_555 1_555
O9 Mo2 1_555 1_555
P1 O9 1_555 1_555
O13 P1 1_555 1_555
Mo7 O13 1_555 1_555
O23 Mo7 1_555 1_555
O24 Mo7 1_555 1_555
O28 Mo9 1_555 1_555
O30 Mo9 1_555 1_555
O31 Mo9 1_555 1_555
Mo10 O7 1_555 1_555
Mo11 O13 1_555 1_555
Mo12 O13 1_555 1_555
O32 Mo10 1_555 1_555
O33 Mo2 1_555 1_555
O34 Mo10 1_555 1_555
O35 Mo11 1_555 1_555
O36 Mo11 1_555 1_555
O37 Mo12 1_555 1_555
O38 Mo7 1_555 1_555
O40 Mo2 1_555 1_555
O9 Mo10 1_555 1_555
O24 Mo11 1_555 1_555
O30 Mo10 1_555 1_555
O31 Mo11 1_555 1_555
Mo10 O33 1_555 1_555
Mo11 O34 1_555 1_555
Mo12 O36 1_555 1_555
Mo12 O38 1_555 1_555
Mo12 O39 1_555 1_555
Mo12 O40 1_555 1_555
Mo1 O1 1_555 1_555
O2 Mo1 1_555 1_555
O6 Mo3 1_555 1_555
O8 Mo3 1_555 1_555
O10 Mo3 1_555 1_555
O11 Mo1 1_555 1_555
O12 P1_2 1_555 1_555
Mo4 O8 1_555 1_555
Mo5 O2 1_555 1_555
Mo6 O11 1_555 1_555
O14 Mo4 1_555 1_555
O15 Mo4 1_555 1_555
O16 Mo4 1_555 1_555
O17 Mo5 1_555 1_555
O18 Mo5 1_555 1_555
O19 Mo6 1_555 1_555
O20 Mo1 1_555 1_555
O21 Mo6 1_555 1_555
O22 Mo6 1_555 1_555
Mo8 O12 1_555 1_555
O26 Mo8 1_555 1_555
O27 Mo8 1_555 1_555
O29 Mo4 1_555 1_555
O10 Mo5 1_555 1_555
P1_2 O11 1_555 1_555
O11 Mo5 1_555 1_555
O12 Mo4 1_555 1_555
Mo5 O16 1_555 1_555
Mo6 O18 1_555 1_555
Mo6 O20 1_555 1_555
O15 Mo8 1_555 1_555
O22 Mo8 1_555 1_555
Mo8 O25 1_555 1_555
Mo1_2 O1_2 1_555 1_555
Mo2_2 O3_2 1_555 1_555
Mo3_2 O5_2 1_555 1_555
O2_2 Mo1_2 1_555 1_555
O3_2 Mo1_2 1_555 1_555
O4_2 Mo2_2 1_555 1_555
O5_2 Mo2_2 1_555 1_555
O6_2 Mo3_2 1_555 1_555
O7_2 Mo3_2 1_555 1_555
O8_2 Mo3_2 1_555 1_555
O9_2 Mo2_2 1_555 1_555
O10_2 Mo3_2 1_555 1_555
P1_3 O9_2 1_555 1_555
O11_2 Mo1_2 1_555 1_555
O12_2 P1_3 1_555 1_555
O13_2 P1_3 1_555 1_555
Mo4_2 O8_2 1_555 1_555
Mo5_2 O2_2 1_555 1_555
Mo6_2 O11_2 1_555 1_555
O14_2 Mo4_2 1_555 1_555
O15_2 Mo4_2 1_555 1_555
O16_2 Mo4_2 1_555 1_555
O17_2 Mo5_2 1_555 1_555
O18_2 Mo5_2 1_555 1_555
O19_2 Mo6_2 1_555 1_555
O20_2 Mo1_2 1_555 1_555
O21_2 Mo6_2 1_555 1_555
O22_2 Mo6_2 1_555 1_555
Mo7_2 O13_2 1_555 1_555
Mo8_2 O12_2 1_555 1_555
Mo9_2 O12_2 1_555 1_555
O23_2 Mo7_2 1_555 1_555
O24_2 Mo7_2 1_555 1_555
O25_2 Mo7_2 1_555 1_555
O26_2 Mo8_2 1_555 1_555
O27_2 Mo8_2 1_555 1_555
O28_2 Mo9_2 1_555 1_555
O29_2 Mo4_2 1_555 1_555
O30_2 Mo9_2 1_555 1_555
O31_2 Mo9_2 1_555 1_555
Mo10_2 O7_2 1_555 1_555
Mo11_2 O13_2 1_555 1_555
Mo12_2 O13_2 1_555 1_555
O32_2 Mo10_2 1_555 1_555
O33_2 Mo2_2 1_555 1_555
O34_2 Mo10_2 1_555 1_555
O35_2 Mo11_2 1_555 1_555
O36_2 Mo11_2 1_555 1_555
O37_2 Mo12_2 1_555 1_555
O38_2 Mo7_2 1_555 1_555
O39_2 Mo1_2 1_555 1_555
O40_2 Mo2_2 1_555 1_555
Mo3_2 O9_2 1_555 1_555
O9_2 Mo10_2 1_555 1_555
O10_2 Mo5_2 1_555 1_555
P1_3 O11_2 1_555 1_555
O11_2 Mo5_2 1_555 1_555
O12_2 Mo4_2 1_555 1_555
Mo5_2 O16_2 1_555 1_555
Mo6_2 O18_2 1_555 1_555
Mo6_2 O20_2 1_555 1_555
O15_2 Mo8_2 1_555 1_555
O21_2 Mo7_2 1_555 1_555
O22_2 Mo8_2 1_555 1_555
Mo8_2 O25_2 1_555 1_555
Mo9_2 O27_2 1_555 1_555
Mo9_2 O29_2 1_555 1_555
O24_2 Mo11_2 1_555 1_555
O30_2 Mo10_2 1_555 1_555
O31_2 Mo11_2 1_555 1_555
Mo10_2 O33_2 1_555 1_555
Mo11_2 O34_2 1_555 1_555
Mo12_2 O36_2 1_555 1_555
Mo12_2 O38_2 1_555 1_555
Mo12_2 O39_2 1_555 1_555
Mo12_2 O40_2 1_555 1_555
Mo1_3 O1_3 1_555 1_555
Mo2_3 O3_3 1_555 1_555
Mo3_3 O5_3 1_555 1_555
O2_3 Mo1_3 1_555 1_555
O3_3 Mo1_3 1_555 1_555
O4_3 Mo2_3 1_555 1_555
O5_3 Mo2_3 1_555 1_555
O6_3 Mo3_3 1_555 1_555
O7_3 Mo3_3 1_555 1_555
O8_3 Mo3_3 1_555 1_555
O9_3 Mo2_3 1_555 1_555
O10_3 Mo3_3 1_555 1_555
P1_4 O9_3 1_555 1_555
O11_3 Mo1_3 1_555 1_555
O12_3 P1_4 1_555 1_555
O13_3 P1_4 1_555 1_555
Mo4_3 O8_3 1_555 1_555
Mo5_3 O2_3 1_555 1_555
Mo6_3 O11_3 1_555 1_555
O14_3 Mo4_3 1_555 1_555
O15_3 Mo4_3 1_555 1_555
O16_3 Mo4_3 1_555 1_555
O17_3 Mo5_3 1_555 1_555
O18_3 Mo5_3 1_555 1_555
O19_3 Mo6_3 1_555 1_555
O20_3 Mo1_3 1_555 1_555
O21_3 Mo6_3 1_555 1_555
O22_3 Mo6_3 1_555 1_555
Mo7_3 O13_3 1_555 1_555
Mo8_3 O12_3 1_555 1_555
Mo9_3 O12_3 1_555 1_555
O23_3 Mo7_3 1_555 1_555
O24_3 Mo7_3 1_555 1_555
O25_3 Mo7_3 1_555 1_555
O26_3 Mo8_3 1_555 1_555
O27_3 Mo8_3 1_555 1_555
O28_3 Mo9_3 1_555 1_555
O29_3 Mo4_3 1_555 1_555
O30_3 Mo9_3 1_555 1_555
O31_3 Mo9_3 1_555 1_555
Mo10_3 O7_3 1_555 1_555
Mo11_3 O13_3 1_555 1_555
Mo12_3 O13_3 1_555 1_555
O32_3 Mo10_3 1_555 1_555
O33_3 Mo2_3 1_555 1_555
O34_3 Mo10_3 1_555 1_555
O35_3 Mo11_3 1_555 1_555
O36_3 Mo11_3 1_555 1_555
O37_3 Mo12_3 1_555 1_555
O38_3 Mo7_3 1_555 1_555
O39_3 Mo1_3 1_555 1_555
O40_3 Mo2_3 1_555 1_555
Mo3_3 O9_3 1_555 1_555
O9_3 Mo10_3 1_555 1_555
O10_3 Mo5_3 1_555 1_555
P1_4 O11_3 1_555 1_555
O11_3 Mo5_3 1_555 1_555
O12_3 Mo4_3 1_555 1_555
Mo5_3 O16_3 1_555 1_555
Mo6_3 O18_3 1_555 1_555
Mo6_3 O20_3 1_555 1_555
O15_3 Mo8_3 1_555 1_555
O21_3 Mo7_3 1_555 1_555
O22_3 Mo8_3 1_555 1_555
Mo8_3 O25_3 1_555 1_555
Mo9_3 O27_3 1_555 1_555
Mo9_3 O29_3 1_555 1_555
O24_3 Mo11_3 1_555 1_555
O30_3 Mo10_3 1_555 1_555
O31_3 Mo11_3 1_555 1_555
Mo10_3 O33_3 1_555 1_555
Mo11_3 O34_3 1_555 1_555
Mo12_3 O36_3 1_555 1_555
Mo12_3 O38_3 1_555 1_555
Mo12_3 O39_3 1_555 1_555
Mo12_3 O40_3 1_555 1_555
Mo1_4 O1_4 1_555 1_555
O2_4 Mo1_4 1_555 1_555
O6_4 Mo3_4 1_555 1_555
O8_4 Mo3_4 1_555 1_555
O10_4 Mo3_4 1_555 1_555
O11_4 Mo1_4 1_555 1_555
O12_4 P1_5 1_555 1_555
Mo4_4 O8_4 1_555 1_555
Mo5_4 O2_4 1_555 1_555
Mo6_4 O11_4 1_555 1_555
O14_4 Mo4_4 1_555 1_555
O15_4 Mo4_4 1_555 1_555
O16_4 Mo4_4 1_555 1_555
O17_4 Mo5_4 1_555 1_555
O18_4 Mo5_4 1_555 1_555
O19_4 Mo6_4 1_555 1_555
O20_4 Mo1_4 1_555 1_555
O21_4 Mo6_4 1_555 1_555
O22_4 Mo6_4 1_555 1_555
Mo8_4 O12_4 1_555 1_555
O26_4 Mo8_4 1_555 1_555
O27_4 Mo8_4 1_555 1_555
O29_4 Mo4_4 1_555 1_555
O10_4 Mo5_4 1_555 1_555
P1_5 O11_4 1_555 1_555
O11_4 Mo5_4 1_555 1_555
O12_4 Mo4_4 1_555 1_555
Mo5_4 O16_4 1_555 1_555
Mo6_4 O18_4 1_555 1_555
Mo6_4 O20_4 1_555 1_555
O15_4 Mo8_4 1_555 1_555
O22_4 Mo8_4 1_555 1_555
Mo8_4 O25_4 1_555 1_555
Mo2_4 O3_4 1_555 1_555
O4_4 Mo2_4 1_555 1_555
O5_4 Mo2_4 1_555 1_555
O9_4 Mo2_4 1_555 1_555
P1_6 O9_4 1_555 1_555
O13_4 P1_6 1_555 1_555
Mo7_4 O13_4 1_555 1_555
O23_4 Mo7_4 1_555 1_555
O24_4 Mo7_4 1_555 1_555
O28_4 Mo9_4 1_555 1_555
O30_4 Mo9_4 1_555 1_555
O31_4 Mo9_4 1_555 1_555
Mo10_4 O7_4 1_555 1_555
Mo11_4 O13_4 1_555 1_555
Mo12_4 O13_4 1_555 1_555
O32_4 Mo10_4 1_555 1_555
O33_4 Mo2_4 1_555 1_555
O34_4 Mo10_4 1_555 1_555
O35_4 Mo11_4 1_555 1_555
O36_4 Mo11_4 1_555 1_555
O37_4 Mo12_4 1_555 1_555
O38_4 Mo7_4 1_555 1_555
O40_4 Mo2_4 1_555 1_555
O9_4 Mo10_4 1_555 1_555
O24_4 Mo11_4 1_555 1_555
O30_4 Mo10_4 1_555 1_555
O31_4 Mo11_4 1_555 1_555
Mo10_4 O33_4 1_555 1_555
Mo11_4 O34_4 1_555 1_555
Mo12_4 O36_4 1_555 1_555
Mo12_4 O38_4 1_555 1_555
Mo12_4 O39_4 1_555 1_555
Mo12_4 O40_4 1_555 1_555
Mo2_5 O3_5 1_555 1_555
O4_5 Mo2_5 1_555 1_555
O5_5 Mo2_5 1_555 1_555
O9_5 Mo2_5 1_555 1_555
P1_7 O9_5 1_555 1_555
O13_5 P1_7 1_555 1_555
Mo7_5 O13_5 1_555 1_555
O23_5 Mo7_5 1_555 1_555
O24_5 Mo7_5 1_555 1_555
O28_5 Mo9_5 1_555 1_555
O30_5 Mo9_5 1_555 1_555
O31_5 Mo9_5 1_555 1_555
Mo10_5 O7_5 1_555 1_555
Mo11_5 O13_5 1_555 1_555
Mo12_5 O13_5 1_555 1_555
O32_5 Mo10_5 1_555 1_555
O33_5 Mo2_5 1_555 1_555
O34_5 Mo10_5 1_555 1_555
O35_5 Mo11_5 1_555 1_555
O36_5 Mo11_5 1_555 1_555
O37_5 Mo12_5 1_555 1_555
O38_5 Mo7_5 1_555 1_555
O40_5 Mo2_5 1_555 1_555
O9_5 Mo10_5 1_555 1_555
O24_5 Mo11_5 1_555 1_555
O30_5 Mo10_5 1_555 1_555
O31_5 Mo11_5 1_555 1_555
Mo10_5 O33_5 1_555 1_555
Mo11_5 O34_5 1_555 1_555
Mo12_5 O36_5 1_555 1_555
Mo12_5 O38_5 1_555 1_555
Mo12_5 O39_5 1_555 1_555
Mo12_5 O40_5 1_555 1_555
Mo1_5 O1_5 1_555 1_555
O2_5 Mo1_5 1_555 1_555
O6_5 Mo3_5 1_555 1_555
O8_5 Mo3_5 1_555 1_555
O10_5 Mo3_5 1_555 1_555
O11_5 Mo1_5 1_555 1_555
O12_5 P1_8 1_555 1_555
Mo4_5 O8_5 1_555 1_555
Mo5_5 O2_5 1_555 1_555
Mo6_5 O11_5 1_555 1_555
O14_5 Mo4_5 1_555 1_555
O15_5 Mo4_5 1_555 1_555
O16_5 Mo4_5 1_555 1_555
O17_5 Mo5_5 1_555 1_555
O18_5 Mo5_5 1_555 1_555
O19_5 Mo6_5 1_555 1_555
O20_5 Mo1_5 1_555 1_555
O21_5 Mo6_5 1_555 1_555
O22_5 Mo6_5 1_555 1_555
Mo8_5 O12_5 1_555 1_555
O26_5 Mo8_5 1_555 1_555
O27_5 Mo8_5 1_555 1_555
O29_5 Mo4_5 1_555 1_555
O10_5 Mo5_5 1_555 1_555
P1_8 O11_5 1_555 1_555
O11_5 Mo5_5 1_555 1_555
O12_5 Mo4_5 1_555 1_555
Mo5_5 O16_5 1_555 1_555
Mo6_5 O18_5 1_555 1_555
Mo6_5 O20_5 1_555 1_555
O15_5 Mo8_5 1_555 1_555
O22_5 Mo8_5 1_555 1_555
Mo8_5 O25_5 1_555 1_555
Mo1_6 O1_6 1_555 1_555
Mo2_6 O3_6 1_555 1_555
Mo3_6 O5_6 1_555 1_555
O2_6 Mo1_6 1_555 1_555
O3_6 Mo1_6 1_555 1_555
O4_6 Mo2_6 1_555 1_555
O5_6 Mo2_6 1_555 1_555
O6_6 Mo3_6 1_555 1_555
O7_6 Mo3_6 1_555 1_555
O8_6 Mo3_6 1_555 1_555
O9_6 Mo2_6 1_555 1_555
O10_6 Mo3_6 1_555 1_555
P1_9 O9_6 1_555 1_555
O11_6 Mo1_6 1_555 1_555
O12_6 P1_9 1_555 1_555
O13_6 P1_9 1_555 1_555
Mo4_6 O8_6 1_555 1_555
Mo5_6 O2_6 1_555 1_555
Mo6_6 O11_6 1_555 1_555
O14_6 Mo4_6 1_555 1_555
O15_6 Mo4_6 1_555 1_555
O16_6 Mo4_6 1_555 1_555
O17_6 Mo5_6 1_555 1_555
O18_6 Mo5_6 1_555 1_555
O19_6 Mo6_6 1_555 1_555
O20_6 Mo1_6 1_555 1_555
O21_6 Mo6_6 1_555 1_555
O22_6 Mo6_6 1_555 1_555
Mo7_6 O13_6 1_555 1_555
Mo8_6 O12_6 1_555 1_555
Mo9_6 O12_6 1_555 1_555
O23_6 Mo7_6 1_555 1_555
O24_6 Mo7_6 1_555 1_555
O25_6 Mo7_6 1_555 1_555
O26_6 Mo8_6 1_555 1_555
O27_6 Mo8_6 1_555 1_555
O28_6 Mo9_6 1_555 1_555
O29_6 Mo4_6 1_555 1_555
O30_6 Mo9_6 1_555 1_555
O31_6 Mo9_6 1_555 1_555
Mo10_6 O7_6 1_555 1_555
Mo11_6 O13_6 1_555 1_555
Mo12_6 O13_6 1_555 1_555
O32_6 Mo10_6 1_555 1_555
O33_6 Mo2_6 1_555 1_555
O34_6 Mo10_6 1_555 1_555
O35_6 Mo11_6 1_555 1_555
O36_6 Mo11_6 1_555 1_555
O37_6 Mo12_6 1_555 1_555
O38_6 Mo7_6 1_555 1_555
O39_6 Mo1_6 1_555 1_555
O40_6 Mo2_6 1_555 1_555
Mo3_6 O9_6 1_555 1_555
O9_6 Mo10_6 1_555 1_555
O10_6 Mo5_6 1_555 1_555
P1_9 O11_6 1_555 1_555
O11_6 Mo5_6 1_555 1_555
O12_6 Mo4_6 1_555 1_555
Mo5_6 O16_6 1_555 1_555
Mo6_6 O18_6 1_555 1_555
Mo6_6 O20_6 1_555 1_555
O15_6 Mo8_6 1_555 1_555
O21_6 Mo7_6 1_555 1_555
O22_6 Mo8_6 1_555 1_555
Mo8_6 O25_6 1_555 1_555
Mo9_6 O27_6 1_555 1_555
Mo9_6 O29_6 1_555 1_555
O24_6 Mo11_6 1_555 1_555
O30_6 Mo10_6 1_555 1_555
O31_6 Mo11_6 1_555 1_555
Mo10_6 O33_6 1_555 1_555
Mo11_6 O34_6 1_555 1_555
Mo12_6 O36_6 1_555 1_555
Mo12_6 O38_6 1_555 1_555
Mo12_6 O39_6 1_555 1_555
Mo12_6 O40_6 1_555 1_555
Mo1_7 O1_7 1_555 1_555
Mo2_7 O3_7 1_555 1_555
Mo3_7 O5_7 1_555 1_555
O2_7 Mo1_7 1_555 1_555
O3_7 Mo1_7 1_555 1_555
O4_7 Mo2_7 1_555 1_555
O5_7 Mo2_7 1_555 1_555
O6_7 Mo3_7 1_555 1_555
O7_7 Mo3_7 1_555 1_555
O8_7 Mo3_7 1_555 1_555
O9_7 Mo2_7 1_555 1_555
O10_7 Mo3_7 1_555 1_555
P1_10 O9_7 1_555 1_555
O11_7 Mo1_7 1_555 1_555
O12_7 P1_10 1_555 1_555
O13_7 P1_10 1_555 1_555
Mo4_7 O8_7 1_555 1_555
Mo5_7 O2_7 1_555 1_555
Mo6_7 O11_7 1_555 1_555
O14_7 Mo4_7 1_555 1_555
O15_7 Mo4_7 1_555 1_555
O16_7 Mo4_7 1_555 1_555
O17_7 Mo5_7 1_555 1_555
O18_7 Mo5_7 1_555 1_555
O19_7 Mo6_7 1_555 1_555
O20_7 Mo1_7 1_555 1_555
O21_7 Mo6_7 1_555 1_555
O22_7 Mo6_7 1_555 1_555
Mo7_7 O13_7 1_555 1_555
Mo8_7 O12_7 1_555 1_555
Mo9_7 O12_7 1_555 1_555
O23_7 Mo7_7 1_555 1_555
O24_7 Mo7_7 1_555 1_555
O25_7 Mo7_7 1_555 1_555
O26_7 Mo8_7 1_555 1_555
O27_7 Mo8_7 1_555 1_555
O28_7 Mo9_7 1_555 1_555
O29_7 Mo4_7 1_555 1_555
O30_7 Mo9_7 1_555 1_555
O31_7 Mo9_7 1_555 1_555
Mo10_7 O7_7 1_555 1_555
Mo11_7 O13_7 1_555 1_555
Mo12_7 O13_7 1_555 1_555
O32_7 Mo10_7 1_555 1_555
O33_7 Mo2_7 1_555 1_555
O34_7 Mo10_7 1_555 1_555
O35_7 Mo11_7 1_555 1_555
O36_7 Mo11_7 1_555 1_555
O37_7 Mo12_7 1_555 1_555
O38_7 Mo7_7 1_555 1_555
O39_7 Mo1_7 1_555 1_555
O40_7 Mo2_7 1_555 1_555
Mo3_7 O9_7 1_555 1_555
O9_7 Mo10_7 1_555 1_555
O10_7 Mo5_7 1_555 1_555
P1_10 O11_7 1_555 1_555
O11_7 Mo5_7 1_555 1_555
O12_7 Mo4_7 1_555 1_555
Mo5_7 O16_7 1_555 1_555
Mo6_7 O18_7 1_555 1_555
Mo6_7 O20_7 1_555 1_555
O15_7 Mo8_7 1_555 1_555
O21_7 Mo7_7 1_555 1_555
O22_7 Mo8_7 1_555 1_555
Mo8_7 O25_7 1_555 1_555
Mo9_7 O27_7 1_555 1_555
Mo9_7 O29_7 1_555 1_555
O24_7 Mo11_7 1_555 1_555
O30_7 Mo10_7 1_555 1_555
O31_7 Mo11_7 1_555 1_555
Mo10_7 O33_7 1_555 1_555
Mo11_7 O34_7 1_555 1_555
Mo12_7 O36_7 1_555 1_555
Mo12_7 O38_7 1_555 1_555
Mo12_7 O39_7 1_555 1_555
Mo12_7 O40_7 1_555 1_555
Mo1_8 O1_8 1_555 1_555
O2_8 Mo1_8 1_555 1_555
O6_8 Mo3_8 1_555 1_555
O8_8 Mo3_8 1_555 1_555
O10_8 Mo3_8 1_555 1_555
O11_8 Mo1_8 1_555 1_555
O12_8 P1_11 1_555 1_555
Mo4_8 O8_8 1_555 1_555
Mo5_8 O2_8 1_555 1_555
Mo6_8 O11_8 1_555 1_555
O14_8 Mo4_8 1_555 1_555
O15_8 Mo4_8 1_555 1_555
O16_8 Mo4_8 1_555 1_555
O17_8 Mo5_8 1_555 1_555
O18_8 Mo5_8 1_555 1_555
O19_8 Mo6_8 1_555 1_555
O20_8 Mo1_8 1_555 1_555
O21_8 Mo6_8 1_555 1_555
O22_8 Mo6_8 1_555 1_555
Mo8_8 O12_8 1_555 1_555
O26_8 Mo8_8 1_555 1_555
O27_8 Mo8_8 1_555 1_555
O29_8 Mo4_8 1_555 1_555
O10_8 Mo5_8 1_555 1_555
P1_11 O11_8 1_555 1_555
O11_8 Mo5_8 1_555 1_555
O12_8 Mo4_8 1_555 1_555
Mo5_8 O16_8 1_555 1_555
Mo6_8 O18_8 1_555 1_555
Mo6_8 O20_8 1_555 1_555
O15_8 Mo8_8 1_555 1_555
O22_8 Mo8_8 1_555 1_555
Mo8_8 O25_8 1_555 1_555
Mo2_8 O3_8 1_555 1_555
O4_8 Mo2_8 1_555 1_555
O5_8 Mo2_8 1_555 1_555
O9_8 Mo2_8 1_555 1_555
P1_12 O9_8 1_555 1_555
O13_8 P1_12 1_555 1_555
Mo7_8 O13_8 1_555 1_555
O23_8 Mo7_8 1_555 1_555
O24_8 Mo7_8 1_555 1_555
O28_8 Mo9_8 1_555 1_555
O30_8 Mo9_8 1_555 1_555
O31_8 Mo9_8 1_555 1_555
Mo10_8 O7_8 1_555 1_555
Mo11_8 O13_8 1_555 1_555
Mo12_8 O13_8 1_555 1_555
O32_8 Mo10_8 1_555 1_555
O33_8 Mo2_8 1_555 1_555
O34_8 Mo10_8 1_555 1_555
O35_8 Mo11_8 1_555 1_555
O36_8 Mo11_8 1_555 1_555
O37_8 Mo12_8 1_555 1_555
O38_8 Mo7_8 1_555 1_555
O40_8 Mo2_8 1_555 1_555
O9_8 Mo10_8 1_555 1_555
O24_8 Mo11_8 1_555 1_555
O30_8 Mo10_8 1_555 1_555
O31_8 Mo11_8 1_555 1_555
Mo10_8 O33_8 1_555 1_555
Mo11_8 O34_8 1_555 1_555
Mo12_8 O36_8 1_555 1_555
Mo12_8 O38_8 1_555 1_555
Mo12_8 O39_8 1_555 1_555
Mo12_8 O40_8 1_555 1_555
Mo2_9 O3_9 1_555 1_555
O4_9 Mo2_9 1_555 1_555
O5_9 Mo2_9 1_555 1_555
O9_9 Mo2_9 1_555 1_555
P1_13 O9_9 1_555 1_555
O13_9 P1_13 1_555 1_555
Mo7_9 O13_9 1_555 1_555
O23_9 Mo7_9 1_555 1_555
O24_9 Mo7_9 1_555 1_555
O28_9 Mo9_9 1_555 1_555
O30_9 Mo9_9 1_555 1_555
O31_9 Mo9_9 1_555 1_555
Mo10_9 O7_9 1_555 1_555
Mo11_9 O13_9 1_555 1_555
Mo12_9 O13_9 1_555 1_555
O32_9 Mo10_9 1_555 1_555
O33_9 Mo2_9 1_555 1_555
O34_9 Mo10_9 1_555 1_555
O35_9 Mo11_9 1_555 1_555
O36_9 Mo11_9 1_555 1_555
O37_9 Mo12_9 1_555 1_555
O38_9 Mo7_9 1_555 1_555
O40_9 Mo2_9 1_555 1_555
O9_9 Mo10_9 1_555 1_555
O24_9 Mo11_9 1_555 1_555
O30_9 Mo10_9 1_555 1_555
O31_9 Mo11_9 1_555 1_555
Mo10_9 O33_9 1_555 1_555
Mo11_9 O34_9 1_555 1_555
Mo12_9 O36_9 1_555 1_555
Mo12_9 O38_9 1_555 1_555
Mo12_9 O39_9 1_555 1_555
Mo12_9 O40_9 1_555 1_555
Mo1_9 O1_9 1_555 1_555
O2_9 Mo1_9 1_555 1_555
O6_9 Mo3_9 1_555 1_555
O8_9 Mo3_9 1_555 1_555
O10_9 Mo3_9 1_555 1_555
O11_9 Mo1_9 1_555 1_555
O12_9 P1_14 1_555 1_555
Mo4_9 O8_9 1_555 1_555
Mo5_9 O2_9 1_555 1_555
Mo6_9 O11_9 1_555 1_555
O14_9 Mo4_9 1_555 1_555
O15_9 Mo4_9 1_555 1_555
O16_9 Mo4_9 1_555 1_555
O17_9 Mo5_9 1_555 1_555
O18_9 Mo5_9 1_555 1_555
O19_9 Mo6_9 1_555 1_555
O20_9 Mo1_9 1_555 1_555
O21_9 Mo6_9 1_555 1_555
O22_9 Mo6_9 1_555 1_555
Mo8_9 O12_9 1_555 1_555
O26_9 Mo8_9 1_555 1_555
O27_9 Mo8_9 1_555 1_555
O29_9 Mo4_9 1_555 1_555
O10_9 Mo5_9 1_555 1_555
P1_14 O11_9 1_555 1_555
O11_9 Mo5_9 1_555 1_555
O12_9 Mo4_9 1_555 1_555
Mo5_9 O16_9 1_555 1_555
Mo6_9 O18_9 1_555 1_555
Mo6_9 O20_9 1_555 1_555
O15_9 Mo8_9 1_555 1_555
O22_9 Mo8_9 1_555 1_555
Mo8_9 O25_9 1_555 1_555
Mo1_10 O1_10 1_555 1_555
Mo2_10 O3_10 1_555 1_555
Mo3_10 O5_10 1_555 1_555
O2_10 Mo1_10 1_555 1_555
O3_10 Mo1_10 1_555 1_555
O4_10 Mo2_10 1_555 1_555
O5_10 Mo2_10 1_555 1_555
O6_10 Mo3_10 1_555 1_555
O7_10 Mo3_10 1_555 1_555
O8_10 Mo3_10 1_555 1_555
O9_10 Mo2_10 1_555 1_555
O10_10 Mo3_10 1_555 1_555
P1_15 O9_10 1_555 1_555
O11_10 Mo1_10 1_555 1_555
O12_10 P1_15 1_555 1_555
O13_10 P1_15 1_555 1_555
Mo4_10 O8_10 1_555 1_555
Mo5_10 O2_10 1_555 1_555
Mo6_10 O11_10 1_555 1_555
O14_10 Mo4_10 1_555 1_555
O15_10 Mo4_10 1_555 1_555
O16_10 Mo4_10 1_555 1_555
O17_10 Mo5_10 1_555 1_555
O18_10 Mo5_10 1_555 1_555
O19_10 Mo6_10 1_555 1_555
O20_10 Mo1_10 1_555 1_555
O21_10 Mo6_10 1_555 1_555
O22_10 Mo6_10 1_555 1_555
Mo7_10 O13_10 1_555 1_555
Mo8_10 O12_10 1_555 1_555
Mo9_10 O12_10 1_555 1_555
O23_10 Mo7_10 1_555 1_555
O24_10 Mo7_10 1_555 1_555
O25_10 Mo7_10 1_555 1_555
O26_10 Mo8_10 1_555 1_555
O27_10 Mo8_10 1_555 1_555
O28_10 Mo9_10 1_555 1_555
O29_10 Mo4_10 1_555 1_555
O30_10 Mo9_10 1_555 1_555
O31_10 Mo9_10 1_555 1_555
Mo10_10 O7_10 1_555 1_555
Mo11_10 O13_10 1_555 1_555
Mo12_10 O13_10 1_555 1_555
O32_10 Mo10_10 1_555 1_555
O33_10 Mo2_10 1_555 1_555
O34_10 Mo10_10 1_555 1_555
O35_10 Mo11_10 1_555 1_555
O36_10 Mo11_10 1_555 1_555
O37_10 Mo12_10 1_555 1_555
O38_10 Mo7_10 1_555 1_555
O39_10 Mo1_10 1_555 1_555
O40_10 Mo2_10 1_555 1_555
Mo3_10 O9_10 1_555 1_555
O9_10 Mo10_10 1_555 1_555
O10_10 Mo5_10 1_555 1_555
P1_15 O11_10 1_555 1_555
O11_10 Mo5_10 1_555 1_555
O12_10 Mo4_10 1_555 1_555
Mo5_10 O16_10 1_555 1_555
Mo6_10 O18_10 1_555 1_555
Mo6_10 O20_10 1_555 1_555
O15_10 Mo8_10 1_555 1_555
O21_10 Mo7_10 1_555 1_555
O22_10 Mo8_10 1_555 1_555
Mo8_10 O25_10 1_555 1_555
Mo9_10 O27_10 1_555 1_555
Mo9_10 O29_10 1_555 1_555
O24_10 Mo11_10 1_555 1_555
O30_10 Mo10_10 1_555 1_555
O31_10 Mo11_10 1_555 1_555
Mo10_10 O33_10 1_555 1_555
Mo11_10 O34_10 1_555 1_555
Mo12_10 O36_10 1_555 1_555
Mo12_10 O38_10 1_555 1_555
Mo12_10 O39_10 1_555 1_555
Mo12_10 O40_10 1_555 1_555
Mo1_11 O1_11 1_555 1_555
Mo2_11 O3_11 1_555 1_555
Mo3_11 O5_11 1_555 1_555
O2_11 Mo1_11 1_555 1_555
O3_11 Mo1_11 1_555 1_555
O4_11 Mo2_11 1_555 1_555
O5_11 Mo2_11 1_555 1_555
O6_11 Mo3_11 1_555 1_555
O7_11 Mo3_11 1_555 1_555
O8_11 Mo3_11 1_555 1_555
O9_11 Mo2_11 1_555 1_555
O10_11 Mo3_11 1_555 1_555
P1_16 O9_11 1_555 1_555
O11_11 Mo1_11 1_555 1_555
O12_11 P1_16 1_555 1_555
O13_11 P1_16 1_555 1_555
Mo4_11 O8_11 1_555 1_555
Mo5_11 O2_11 1_555 1_555
Mo6_11 O11_11 1_555 1_555
O14_11 Mo4_11 1_555 1_555
O15_11 Mo4_11 1_555 1_555
O16_11 Mo4_11 1_555 1_555
O17_11 Mo5_11 1_555 1_555
O18_11 Mo5_11 1_555 1_555
O19_11 Mo6_11 1_555 1_555
O20_11 Mo1_11 1_555 1_555
O21_11 Mo6_11 1_555 1_555
O22_11 Mo6_11 1_555 1_555
Mo7_11 O13_11 1_555 1_555
Mo8_11 O12_11 1_555 1_555
Mo9_11 O12_11 1_555 1_555
O23_11 Mo7_11 1_555 1_555
O24_11 Mo7_11 1_555 1_555
O25_11 Mo7_11 1_555 1_555
O26_11 Mo8_11 1_555 1_555
O27_11 Mo8_11 1_555 1_555
O28_11 Mo9_11 1_555 1_555
O29_11 Mo4_11 1_555 1_555
O30_11 Mo9_11 1_555 1_555
O31_11 Mo9_11 1_555 1_555
Mo10_11 O7_11 1_555 1_555
Mo11_11 O13_11 1_555 1_555
Mo12_11 O13_11 1_555 1_555
O32_11 Mo10_11 1_555 1_555
O33_11 Mo2_11 1_555 1_555
O34_11 Mo10_11 1_555 1_555
O35_11 Mo11_11 1_555 1_555
O36_11 Mo11_11 1_555 1_555
O37_11 Mo12_11 1_555 1_555
O38_11 Mo7_11 1_555 1_555
O39_11 Mo1_11 1_555 1_555
O40_11 Mo2_11 1_555 1_555
Mo3_11 O9_11 1_555 1_555
O9_11 Mo10_11 1_555 1_555
O10_11 Mo5_11 1_555 1_555
P1_16 O11_11 1_555 1_555
O11_11 Mo5_11 1_555 1_555
O12_11 Mo4_11 1_555 1_555
Mo5_11 O16_11 1_555 1_555
Mo6_11 O18_11 1_555 1_555
Mo6_11 O20_11 1_555 1_555
O15_11 Mo8_11 1_555 1_555
O21_11 Mo7_11 1_555 1_555
O22_11 Mo8_11 1_555 1_555
Mo8_11 O25_11 1_555 1_555
Mo9_11 O27_11 1_555 1_555
Mo9_11 O29_11 1_555 1_555
O24_11 Mo11_11 1_555 1_555
O30_11 Mo10_11 1_555 1_555
O31_11 Mo11_11 1_555 1_555
Mo10_11 O33_11 1_555 1_555
Mo11_11 O34_11 1_555 1_555
Mo12_11 O36_11 1_555 1_555
Mo12_11 O38_11 1_555 1_555
Mo12_11 O39_11 1_555 1_555
Mo12_11 O40_11 1_555 1_555
Mo1_12 O1_12 1_555 1_555
O2_12 Mo1_12 1_555 1_555
O6_12 Mo3_12 1_555 1_555
O8_12 Mo3_12 1_555 1_555
O10_12 Mo3_12 1_555 1_555
O11_12 Mo1_12 1_555 1_555
O12_12 P1_17 1_555 1_555
Mo4_12 O8_12 1_555 1_555
Mo5_12 O2_12 1_555 1_555
Mo6_12 O11_12 1_555 1_555
O14_12 Mo4_12 1_555 1_555
O15_12 Mo4_12 1_555 1_555
O16_12 Mo4_12 1_555 1_555
O17_12 Mo5_12 1_555 1_555
O18_12 Mo5_12 1_555 1_555
O19_12 Mo6_12 1_555 1_555
O20_12 Mo1_12 1_555 1_555
O21_12 Mo6_12 1_555 1_555
O22_12 Mo6_12 1_555 1_555
Mo8_12 O12_12 1_555 1_555
O26_12 Mo8_12 1_555 1_555
O27_12 Mo8_12 1_555 1_555
O29_12 Mo4_12 1_555 1_555
O10_12 Mo5_12 1_555 1_555
P1_17 O11_12 1_555 1_555
O11_12 Mo5_12 1_555 1_555
O12_12 Mo4_12 1_555 1_555
Mo5_12 O16_12 1_555 1_555
Mo6_12 O18_12 1_555 1_555
Mo6_12 O20_12 1_555 1_555
O15_12 Mo8_12 1_555 1_555
O22_12 Mo8_12 1_555 1_555
Mo8_12 O25_12 1_555 1_555
Mo2_12 O3_12 1_555 1_555
O4_12 Mo2_12 1_555 1_555
O5_12 Mo2_12 1_555 1_555
O9_12 Mo2_12 1_555 1_555
P1_18 O9_12 1_555 1_555
O13_12 P1_18 1_555 1_555
Mo7_12 O13_12 1_555 1_555
O23_12 Mo7_12 1_555 1_555
O24_12 Mo7_12 1_555 1_555
O28_12 Mo9_12 1_555 1_555
O30_12 Mo9_12 1_555 1_555
O31_12 Mo9_12 1_555 1_555
Mo10_12 O7_12 1_555 1_555
Mo11_12 O13_12 1_555 1_555
Mo12_12 O13_12 1_555 1_555
O32_12 Mo10_12 1_555 1_555
O33_12 Mo2_12 1_555 1_555
O34_12 Mo10_12 1_555 1_555
O35_12 Mo11_12 1_555 1_555
O36_12 Mo11_12 1_555 1_555
O37_12 Mo12_12 1_555 1_555
O38_12 Mo7_12 1_555 1_555
O40_12 Mo2_12 1_555 1_555
O9_12 Mo10_12 1_555 1_555
O24_12 Mo11_12 1_555 1_555
O30_12 Mo10_12 1_555 1_555
O31_12 Mo11_12 1_555 1_555
Mo10_12 O33_12 1_555 1_555
Mo11_12 O34_12 1_555 1_555
Mo12_12 O36_12 1_555 1_555
Mo12_12 O38_12 1_555 1_555
Mo12_12 O39_12 1_555 1_555
Mo12_12 O40_12 1_555 1_555
C1 H1 1_555 1_555
Cd1 N1 1_555 1_555
N1 C1 1_555 1_555
N13 Cd1 1_555 1_555
N14 Cd1 1_555 1_555
N1 N2 1_555 1_555
C12 H9 1_555 1_555
H10 C12 1_555 1_555
H11 C12 1_555 1_555
C13 H12 1_555 1_555
H13 C13 1_555 1_555
H14 C13 1_555 1_555
N4 C11 1_555 1_555
O41 C11 1_555 1_555
C12 N4 1_555 1_555
C13 N4 1_555 1_555
C2 H2 1_555 1_555
C3 C4 1_555 1_555
C4 H3 1_555 1_555
C5 C4 1_555 1_555
H4 C5 1_555 1_555
C6 C5 1_555 1_555
C7 C6 1_555 1_555
H5 C7 1_555 1_555
C8 C3 1_555 1_555
H6 C8 1_555 1_555
C9 C6 1_555 1_555
C10 C9 1_555 1_555
H7 C10 1_555 1_555
C14 H15 1_555 1_555
C15 H16 1_555 1_555
C16 C17 1_555 1_555
C17 H17 1_555 1_555
C18 C17 1_555 1_555
H18 C18 1_555 1_555
C19 C18 1_555 1_555
C20 C19 1_555 1_555
H19 C20 1_555 1_555
C21 C16 1_555 1_555
H20 C21 1_555 1_555
C22 C10 1_555 1_555
C23 C22 1_555 1_555
H21 C23 1_555 1_555
N5 C14 1_555 1_555
N6 C15 1_555 1_555
N7 C14 1_555 1_555
C25 H23 1_555 1_555
C26 C27 1_555 1_555
C27 H24 1_555 1_555
C28 C27 1_555 1_555
H25 C28 1_555 1_555
C29 C28 1_555 1_555
C30 C29 1_555 1_555
H26 C30 1_555 1_555
C31 C26 1_555 1_555
H27 C31 1_555 1_555
C32 C23 1_555 1_555
C33 C9 1_555 1_555
H28 C33 1_555 1_555
Cd2 N5 1_555 1_555
C2 N3 1_555 1_555
C3 N3 1_555 1_555
C7 C8 1_555 1_555
C15 N7 1_555 1_555
C16 N7 1_555 1_555
C19 C22 1_555 1_555
C20 C21 1_555 1_555
N5 N6 1_555 1_555
C25 N10 1_555 1_555
C26 N10 1_555 1_555
C29 C32 1_555 1_555
C30 C31 1_555 1_555
C32 C33 1_555 1_555
C24 H22 1_555 1_555
N8 C24 1_555 1_555
C35 H30 1_555 1_555
H31 C35 1_555 1_555
H32 C35 1_555 1_555
C36 H33 1_555 1_555
H34 C36 1_555 1_555
H35 C36 1_555 1_555
N11 C34 1_555 1_555
Cd3 N8 1_555 1_555
N8 N9 1_555 1_555
C34 O42 1_555 1_555
C35 N11 1_555 1_555
C36 N11 1_555 1_555
C38 H37 1_555 1_555
H38 C38 1_555 1_555
H39 C38 1_555 1_555
C39 H40 1_555 1_555
H41 C39 1_555 1_555
H42 C39 1_555 1_555
N12 C37 1_555 1_555
C37 O43 1_555 1_555
C38 N12 1_555 1_555
C39 N12 1_555 1_555
C11_2 H8_2 1_555 1_555
C12_2 H9_2 1_555 1_555
H10_2 C12_2 1_555 1_555
H11_2 C12_2 1_555 1_555
C13_2 H12_2 1_555 1_555
H13_2 C13_2 1_555 1_555
H14_2 C13_2 1_555 1_555
N4_2 C11_2 1_555 1_555
O41_2 C11_2 1_555 1_555
C38_2 H37_2 1_555 1_555
H38_2 C38_2 1_555 1_555
H39_2 C38_2 1_555 1_555
C39_2 H40_2 1_555 1_555
H41_2 C39_2 1_555 1_555
H42_2 C39_2 1_555 1_555
N12_2 C37_2 1_555 1_555
C12_2 N4_2 1_555 1_555
C13_2 N4_2 1_555 1_555
C37_2 O43_2 1_555 1_555
C38_2 N12_2 1_555 1_555
C39_2 N12_2 1_555 1_555
C1_2 H1_2 1_555 1_555
C2_2 H2_2 1_555 1_555
C3_2 C4_2 1_555 1_555
C4_2 H3_2 1_555 1_555
C5_2 C4_2 1_555 1_555
H4_2 C5_2 1_555 1_555
C6_2 C5_2 1_555 1_555
C7_2 C6_2 1_555 1_555
H5_2 C7_2 1_555 1_555
C8_2 C3_2 1_555 1_555
H6_2 C8_2 1_555 1_555
C9_2 C6_2 1_555 1_555
C10_2 C9_2 1_555 1_555
H7_2 C10_2 1_555 1_555
Cd1_2 N1_2 1_555 1_555
N1_2 C1_2 1_555 1_555
N2_2 C2_2 1_555 1_555
N3_2 C1_2 1_555 1_555
C14_2 H15_2 1_555 1_555
C15_2 H16_2 1_555 1_555
C16_2 C17_2 1_555 1_555
C17_2 H17_2 1_555 1_555
C18_2 C17_2 1_555 1_555
H18_2 C18_2 1_555 1_555
C19_2 C18_2 1_555 1_555
C20_2 C19_2 1_555 1_555
H19_2 C20_2 1_555 1_555
C21_2 C16_2 1_555 1_555
H20_2 C21_2 1_555 1_555
C22_2 C10_2 1_555 1_555
C23_2 C22_2 1_555 1_555
H21_2 C23_2 1_555 1_555
N5_2 C14_2 1_555 1_555
N6_2 C15_2 1_555 1_555
N7_2 C14_2 1_555 1_555
C24_2 H22_2 1_555 1_555
C25_2 H23_2 1_555 1_555
C26_2 C27_2 1_555 1_555
C27_2 H24_2 1_555 1_555
C28_2 C27_2 1_555 1_555
H25_2 C28_2 1_555 1_555
C29_2 C28_2 1_555 1_555
C30_2 C29_2 1_555 1_555
H26_2 C30_2 1_555 1_555
C31_2 C26_2 1_555 1_555
H27_2 C31_2 1_555 1_555
C32_2 C23_2 1_555 1_555
C33_2 C9_2 1_555 1_555
H28_2 C33_2 1_555 1_555
N8_2 C24_2 1_555 1_555
N9_2 C25_2 1_555 1_555
N10_2 C24_2 1_555 1_555
C34_2 H29_2 1_555 1_555
C35_2 H30_2 1_555 1_555
H31_2 C35_2 1_555 1_555
H32_2 C35_2 1_555 1_555
C36_2 H33_2 1_555 1_555
H34_2 C36_2 1_555 1_555
H35_2 C36_2 1_555 1_555
N11_2 C34_2 1_555 1_555
O42_2 Cd1_2 1_555 1_555
Cd3 N5_2 1_555 1_555
Cd2 N8_2 1_555 1_555
N13_2 Cd1_2 1_555 1_555
N14_2 Cd1_2 1_555 1_555
C2_2 N3_2 1_555 1_555
C3_2 N3_2 1_555 1_555
C7_2 C8_2 1_555 1_555
N1_2 N2_2 1_555 1_555
C15_2 N7_2 1_555 1_555
C16_2 N7_2 1_555 1_555
C19_2 C22_2 1_555 1_555
C20_2 C21_2 1_555 1_555
N5_2 N6_2 1_555 1_555
C25_2 N10_2 1_555 1_555
C26_2 N10_2 1_555 1_555
C29_2 C32_2 1_555 1_555
C30_2 C31_2 1_555 1_555
C32_2 C33_2 1_555 1_555
N8_2 N9_2 1_555 1_555
C34_2 O42_2 1_555 1_555
C35_2 N11_2 1_555 1_555
C36_2 N11_2 1_555 1_555
C14_3 H15_3 1_555 1_555
N13 C14_3 1_555 1_555
N13 N6_3 1_555 1_555
C2_3 H2_3 1_555 1_555
C3_3 C4_3 1_555 1_555
C4_3 H3_3 1_555 1_555
C5_3 C4_3 1_555 1_555
H4_3 C5_3 1_555 1_555
C6_3 C5_3 1_555 1_555
C7_3 C6_3 1_555 1_555
H5_3 C7_3 1_555 1_555
C8_3 C3_3 1_555 1_555
H6_3 C8_3 1_555 1_555
C9_3 C6_3 1_555 1_555
C10_3 C9_3 1_555 1_555
H7_3 C10_3 1_555 1_555
C15_3 H16_3 1_555 1_555
C16_3 C17_3 1_555 1_555
C17_3 H17_3 1_555 1_555
C18_3 C17_3 1_555 1_555
H18_3 C18_3 1_555 1_555
C19_3 C18_3 1_555 1_555
C20_3 C19_3 1_555 1_555
H19_3 C20_3 1_555 1_555
C21_3 C16_3 1_555 1_555
H20_3 C21_3 1_555 1_555
C22_3 C10_3 1_555 1_555
C23_3 C22_3 1_555 1_555
H21_3 C23_3 1_555 1_555
C24_3 H22_3 1_555 1_555
C25_3 H23_3 1_555 1_555
C26_3 C27_3 1_555 1_555
C27_3 H24_3 1_555 1_555
C28_3 C27_3 1_555 1_555
H25_3 C28_3 1_555 1_555
C29_3 C28_3 1_555 1_555
C30_3 C29_3 1_555 1_555
H26_3 C30_3 1_555 1_555
C31_3 C26_3 1_555 1_555
H27_3 C31_3 1_555 1_555
C32_3 C23_3 1_555 1_555
C33_3 C9_3 1_555 1_555
H28_3 C33_3 1_555 1_555
N14_2 C24_3 1_555 1_555
N9_3 C25_3 1_555 1_555
N10_3 C24_3 1_555 1_555
C35_3 H30_3 1_555 1_555
H31_3 C35_3 1_555 1_555
H32_3 C35_3 1_555 1_555
C36_3 H33_3 1_555 1_555
H34_3 C36_3 1_555 1_555
H35_3 C36_3 1_555 1_555
N11_3 C34_3 1_555 1_555
C37_3 H36_3 1_555 1_555
C38_3 H37_3 1_555 1_555
H38_3 C38_3 1_555 1_555
H39_3 C38_3 1_555 1_555
C39_3 H40_3 1_555 1_555
H41_3 C39_3 1_555 1_555
H42_3 C39_3 1_555 1_555
N12_3 C37_3 1_555 1_555
C2_3 N3_3 1_555 1_555
C3_3 N3_3 1_555 1_555
C7_3 C8_3 1_555 1_555
C15_3 N7_3 1_555 1_555
C16_3 N7_3 1_555 1_555
C19_3 C22_3 1_555 1_555
C20_3 C21_3 1_555 1_555
C25_3 N10_3 1_555 1_555
C26_3 N10_3 1_555 1_555
C29_3 C32_3 1_555 1_555
C30_3 C31_3 1_555 1_555
C32_3 C33_3 1_555 1_555
N14_2 N9_3 1_555 1_555
C34_3 O42_3 1_555 1_555
C35_3 N11_3 1_555 1_555
C36_3 N11_3 1_555 1_555
C37_3 O43_3 1_555 1_555
C38_3 N12_3 1_555 1_555
C39_3 N12_3 1_555 1_555
C1_3 H1_3 1_555 1_555
C11_3 H8_3 1_555 1_555
C12_3 H9_3 1_555 1_555
H10_3 C12_3 1_555 1_555
H11_3 C12_3 1_555 1_555
C13_3 H12_3 1_555 1_555
H13_3 C13_3 1_555 1_555
H14_3 C13_3 1_555 1_555
Cd2 N1_3 1_555 1_555
N1_3 C1_3 1_555 1_555
N4_3 C11_3 1_555 1_555
O41_3 C11_3 1_555 1_555
C12_3 N4_3 1_555 1_555
C13_3 N4_3 1_555 1_555
Cd2 O41_3 1_555 1_555
N1_3 N2_3 1_555 1_555
C12_4 H9_4 1_555 1_555
H10_4 C12_4 1_555 1_555
H11_4 C12_4 1_555 1_555
C13_4 H12_4 1_555 1_555
H13_4 C13_4 1_555 1_555
H14_4 C13_4 1_555 1_555
N4_4 C11_4 1_555 1_555
O41_4 C11_4 1_555 1_555
C24_4 H22_4 1_555 1_555
N14 C24_4 1_555 1_555
C34_4 H29_4 1_555 1_555
C35_4 H30_4 1_555 1_555
H31_4 C35_4 1_555 1_555
H32_4 C35_4 1_555 1_555
C36_4 H33_4 1_555 1_555
H34_4 C36_4 1_555 1_555
H35_4 C36_4 1_555 1_555
N11_4 C34_4 1_555 1_555
C12_4 N4_4 1_555 1_555
C13_4 N4_4 1_555 1_555
N14 N9_4 1_555 1_555
C34_4 O42_4 1_555 1_555
C35_4 N11_4 1_555 1_555
C36_4 N11_4 1_555 1_555
C1_4 H1_4 1_555 1_555
C2_4 H2_4 1_555 1_555
C3_4 C4_4 1_555 1_555
C4_4 H3_4 1_555 1_555
C5_4 C4_4 1_555 1_555
H4_4 C5_4 1_555 1_555
C6_4 C5_4 1_555 1_555
C7_4 C6_4 1_555 1_555
H5_4 C7_4 1_555 1_555
C8_4 C3_4 1_555 1_555
H6_4 C8_4 1_555 1_555
C9_4 C6_4 1_555 1_555
C10_4 C9_4 1_555 1_555
H7_4 C10_4 1_555 1_555
Cd3 N1_4 1_555 1_555
N1_4 C1_4 1_555 1_555
N2_4 C2_4 1_555 1_555
N3_4 C1_4 1_555 1_555
C15_4 H16_4 1_555 1_555
C16_4 C17_4 1_555 1_555
C17_4 H17_4 1_555 1_555
C18_4 C17_4 1_555 1_555
H18_4 C18_4 1_555 1_555
C19_4 C18_4 1_555 1_555
C20_4 C19_4 1_555 1_555
H19_4 C20_4 1_555 1_555
C21_4 C16_4 1_555 1_555
H20_4 C21_4 1_555 1_555
C22_4 C10_4 1_555 1_555
C23_4 C22_4 1_555 1_555
H21_4 C23_4 1_555 1_555
C25_4 H23_4 1_555 1_555
C26_4 C27_4 1_555 1_555
C27_4 H24_4 1_555 1_555
C28_4 C27_4 1_555 1_555
H25_4 C28_4 1_555 1_555
C29_4 C28_4 1_555 1_555
C30_4 C29_4 1_555 1_555
H26_4 C30_4 1_555 1_555
C31_4 C26_4 1_555 1_555
H27_4 C31_4 1_555 1_555
C32_4 C23_4 1_555 1_555
C33_4 C9_4 1_555 1_555
H28_4 C33_4 1_555 1_555
C37_4 H36_4 1_555 1_555
C38_4 H37_4 1_555 1_555
H38_4 C38_4 1_555 1_555
H39_4 C38_4 1_555 1_555
C39_4 H40_4 1_555 1_555
H41_4 C39_4 1_555 1_555
H42_4 C39_4 1_555 1_555
N12_4 C37_4 1_555 1_555
O43_4 Cd3 1_555 1_555
C2_4 N3_4 1_555 1_555
C3_4 N3_4 1_555 1_555
C7_4 C8_4 1_555 1_555
N1_4 N2_4 1_555 1_555
C15_4 N7_4 1_555 1_555
C16_4 N7_4 1_555 1_555
C19_4 C22_4 1_555 1_555
C20_4 C21_4 1_555 1_555
C25_4 N10_4 1_555 1_555
C26_4 N10_4 1_555 1_555
C29_4 C32_4 1_555 1_555
C30_4 C31_4 1_555 1_555
C32_4 C33_4 1_555 1_555
C37_4 O43_4 1_555 1_555
C38_4 N12_4 1_555 1_555
C39_4 N12_4 1_555 1_555
C14_4 H15_4 1_555 1_555
N13_2 C14_4 1_555 1_555
N13_2 N6_4 1_555 1_555
C1_5 H1_5 1_555 1_555
C2_5 H2_5 1_555 1_555
C3_5 C4_5 1_555 1_555
C4_5 H3_5 1_555 1_555
C5_5 C4_5 1_555 1_555
H4_5 C5_5 1_555 1_555
C6_5 C5_5 1_555 1_555
C7_5 C6_5 1_555 1_555
H5_5 C7_5 1_555 1_555
C8_5 C3_5 1_555 1_555
H6_5 C8_5 1_555 1_555
C9_5 C6_5 1_555 1_555
C10_5 C9_5 1_555 1_555
H7_5 C10_5 1_555 1_555
C11_5 H8_5 1_555 1_555
C12_5 H9_5 1_555 1_555
H10_5 C12_5 1_555 1_555
H11_5 C12_5 1_555 1_555
C13_5 H12_5 1_555 1_555
H13_5 C13_5 1_555 1_555
H14_5 C13_5 1_555 1_555
Cd1_3 N1_5 1_555 1_555
N1_5 C1_5 1_555 1_555
N2_5 C2_5 1_555 1_555
N3_5 C1_5 1_555 1_555
N4_5 C11_5 1_555 1_555
O41_5 C11_5 1_555 1_555
C14_5 H15_5 1_555 1_555
C15_5 H16_5 1_555 1_555
C16_5 C17_5 1_555 1_555
C17_5 H17_5 1_555 1_555
C18_5 C17_5 1_555 1_555
H18_5 C18_5 1_555 1_555
C19_5 C18_5 1_555 1_555
C20_5 C19_5 1_555 1_555
H19_5 C20_5 1_555 1_555
C21_5 C16_5 1_555 1_555
H20_5 C21_5 1_555 1_555
C22_5 C10_5 1_555 1_555
C23_5 C22_5 1_555 1_555
H21_5 C23_5 1_555 1_555
N5_3 C14_5 1_555 1_555
N6_5 C15_5 1_555 1_555
N7_5 C14_5 1_555 1_555
H25_5 C28_5 1_555 1_555
C29_5 C28_5 1_555 1_555
C30_5 C29_5 1_555 1_555
H26_5 C30_5 1_555 1_555
C32_5 C23_5 1_555 1_555
C33_5 C9_5 1_555 1_555
H28_5 C33_5 1_555 1_555
C34_5 H29_5 1_555 1_555
C35_5 H30_5 1_555 1_555
H31_5 C35_5 1_555 1_555
H32_5 C35_5 1_555 1_555
C36_5 H33_5 1_555 1_555
H34_5 C36_5 1_555 1_555
H35_5 C36_5 1_555 1_555
N11_5 C34_5 1_555 1_555
O42_5 Cd1_3 1_555 1_555
C37_5 H36_5 1_555 1_555
C38_5 H37_5 1_555 1_555
H38_5 C38_5 1_555 1_555
H39_5 C38_5 1_555 1_555
C39_5 H40_5 1_555 1_555
H41_5 C39_5 1_555 1_555
H42_5 C39_5 1_555 1_555
N12_5 C37_5 1_555 1_555
O43_5 Cd1_3 1_555 1_555
Cd2_2 N5_3 1_555 1_555
N13_3 Cd1_3 1_555 1_555
N14_3 Cd1_3 1_555 1_555
C2_5 N3_5 1_555 1_555
C3_5 N3_5 1_555 1_555
C7_5 C8_5 1_555 1_555
C12_5 N4_5 1_555 1_555
C13_5 N4_5 1_555 1_555
Cd1_3 O41_5 1_555 1_555
N1_5 N2_5 1_555 1_555
C15_5 N7_5 1_555 1_555
C16_5 N7_5 1_555 1_555
C19_5 C22_5 1_555 1_555
C20_5 C21_5 1_555 1_555
N5_3 N6_5 1_555 1_555
C29_5 C32_5 1_555 1_555
C32_5 C33_5 1_555 1_555
C34_5 O42_5 1_555 1_555
C35_5 N11_5 1_555 1_555
C36_5 N11_5 1_555 1_555
C37_5 O43_5 1_555 1_555
C38_5 N12_5 1_555 1_555
C39_5 N12_5 1_555 1_555
C24_5 H22_5 1_555 1_555
C25_5 H23_5 1_555 1_555
C26_5 C27_5 1_555 1_555
C27_5 H24_5 1_555 1_555
C31_5 C26_5 1_555 1_555
H27_5 C31_5 1_555 1_555
N8_3 C24_5 1_555 1_555
N9_5 C25_5 1_555 1_555
N10_5 C24_5 1_555 1_555
Cd3_2 N8_3 1_555 1_555
C25_5 N10_5 1_555 1_555
C26_5 N10_5 1_555 1_555
N8_3 N9_5 1_555 1_555
C1_6 H1_6 1_555 1_555
C2_6 H2_6 1_555 1_555
C3_6 C4_6 1_555 1_555
C4_6 H3_6 1_555 1_555
C8_6 C3_6 1_555 1_555
H6_6 C8_6 1_555 1_555
C11_6 H8_6 1_555 1_555
C12_6 H9_6 1_555 1_555
H10_6 C12_6 1_555 1_555
H11_6 C12_6 1_555 1_555
C13_6 H12_6 1_555 1_555
H13_6 C13_6 1_555 1_555
H14_6 C13_6 1_555 1_555
Cd1_4 N1_6 1_555 1_555
N1_6 C1_6 1_555 1_555
N2_6 C2_6 1_555 1_555
N3_6 C1_6 1_555 1_555
N4_6 C11_6 1_555 1_555
O41_6 C11_6 1_555 1_555
C34_6 H29_6 1_555 1_555
C35_6 H30_6 1_555 1_555
H31_6 C35_6 1_555 1_555
H32_6 C35_6 1_555 1_555
C36_6 H33_6 1_555 1_555
H34_6 C36_6 1_555 1_555
H35_6 C36_6 1_555 1_555
N11_6 C34_6 1_555 1_555
O42_6 Cd1_4 1_555 1_555
C37_6 H36_6 1_555 1_555
C38_6 H37_6 1_555 1_555
H38_6 C38_6 1_555 1_555
H39_6 C38_6 1_555 1_555
C39_6 H40_6 1_555 1_555
H41_6 C39_6 1_555 1_555
H42_6 C39_6 1_555 1_555
N12_6 C37_6 1_555 1_555
O43_6 Cd1_4 1_555 1_555
N13_4 Cd1_4 1_555 1_555
N14_4 Cd1_4 1_555 1_555
C2_6 N3_6 1_555 1_555
C3_6 N3_6 1_555 1_555
C12_6 N4_6 1_555 1_555
C13_6 N4_6 1_555 1_555
Cd1_4 O41_6 1_555 1_555
N1_6 N2_6 1_555 1_555
C34_6 O42_6 1_555 1_555
C35_6 N11_6 1_555 1_555
C36_6 N11_6 1_555 1_555
C37_6 O43_6 1_555 1_555
C38_6 N12_6 1_555 1_555
C39_6 N12_6 1_555 1_555
C24_6 H22_6 1_555 1_555
C25_6 H23_6 1_555 1_555
C26_6 C27_6 1_555 1_555
C27_6 H24_6 1_555 1_555
C31_6 C26_6 1_555 1_555
H27_6 C31_6 1_555 1_555
N8_4 C24_6 1_555 1_555
N9_6 C25_6 1_555 1_555
N10_6 C24_6 1_555 1_555
Cd2_2 N8_4 1_555 1_555
C25_6 N10_6 1_555 1_555
C26_6 N10_6 1_555 1_555
N8_4 N9_6 1_555 1_555
C14_6 H15_6 1_555 1_555
C15_6 H16_6 1_555 1_555
C16_6 C17_6 1_555 1_555
C17_6 H17_6 1_555 1_555
C21_6 C16_6 1_555 1_555
H20_6 C21_6 1_555 1_555
N5_4 C14_6 1_555 1_555
N6_6 C15_6 1_555 1_555
N7_6 C14_6 1_555 1_555
Cd3_2 N5_4 1_555 1_555
C15_6 N7_6 1_555 1_555
C16_6 N7_6 1_555 1_555
N5_4 N6_6 1_555 1_555
H4_6 C5_6 1_555 1_555
C6_6 C5_6 1_555 1_555
C7_6 C6_6 1_555 1_555
H5_6 C7_6 1_555 1_555
C9_6 C6_6 1_555 1_555
C10_6 C9_6 1_555 1_555
H7_6 C10_6 1_555 1_555
C14_7 H15_7 1_555 1_555
C15_7 H16_7 1_555 1_555
C16_7 C17_7 1_555 1_555
C17_7 H17_7 1_555 1_555
C18_6 C17_7 1_555 1_555
H18_6 C18_6 1_555 1_555
C19_6 C18_6 1_555 1_555
C20_6 C19_6 1_555 1_555
H19_6 C20_6 1_555 1_555
C21_7 C16_7 1_555 1_555
H20_7 C21_7 1_555 1_555
C22_6 C10_6 1_555 1_555
C23_6 C22_6 1_555 1_555
H21_6 C23_6 1_555 1_555
N13_3 C14_7 1_555 1_555
N6_7 C15_7 1_555 1_555
N7_7 C14_7 1_555 1_555
C24_7 H22_7 1_555 1_555
C25_7 H23_7 1_555 1_555
C26_7 C27_7 1_555 1_555
C27_7 H24_7 1_555 1_555
C28_6 C27_7 1_555 1_555
H25_6 C28_6 1_555 1_555
C29_6 C28_6 1_555 1_555
C30_6 C29_6 1_555 1_555
H26_6 C30_6 1_555 1_555
C31_7 C26_7 1_555 1_555
H27_7 C31_7 1_555 1_555
C32_6 C23_6 1_555 1_555
C33_6 C9_6 1_555 1_555
H28_6 C33_6 1_555 1_555
N14_4 C24_7 1_555 1_555
N9_7 C25_7 1_555 1_555
N10_7 C24_7 1_555 1_555
C15_7 N7_7 1_555 1_555
C16_7 N7_7 1_555 1_555
C19_6 C22_6 1_555 1_555
C20_6 C21_7 1_555 1_555
N13_3 N6_7 1_555 1_555
C25_7 N10_7 1_555 1_555
C26_7 N10_7 1_555 1_555
C29_6 C32_6 1_555 1_555
C30_6 C31_7 1_555 1_555
C32_6 C33_6 1_555 1_555
N14_4 N9_7 1_555 1_555
C1_7 H1_7 1_555 1_555
C2_7 H2_7 1_555 1_555
C3_7 C4_7 1_555 1_555
C4_7 H3_7 1_555 1_555
C8_7 C3_7 1_555 1_555
H6_7 C8_7 1_555 1_555
C11_7 H8_7 1_555 1_555
C12_7 H9_7 1_555 1_555
H10_7 C12_7 1_555 1_555
H11_7 C12_7 1_555 1_555
C13_7 H12_7 1_555 1_555
H13_7 C13_7 1_555 1_555
H14_7 C13_7 1_555 1_555
Cd2_2 N1_7 1_555 1_555
N1_7 C1_7 1_555 1_555
N2_7 C2_7 1_555 1_555
N3_7 C1_7 1_555 1_555
N4_7 C11_7 1_555 1_555
O41_7 C11_7 1_555 1_555
C34_7 H29_7 1_555 1_555
C35_7 H30_7 1_555 1_555
H31_7 C35_7 1_555 1_555
H32_7 C35_7 1_555 1_555
C36_7 H33_7 1_555 1_555
H34_7 C36_7 1_555 1_555
H35_7 C36_7 1_555 1_555
N11_7 C34_7 1_555 1_555
O42_7 Cd2_2 1_555 1_555
C37_7 H36_7 1_555 1_555
C38_7 H37_7 1_555 1_555
H38_7 C38_7 1_555 1_555
H39_7 C38_7 1_555 1_555
C39_7 H40_7 1_555 1_555
H41_7 C39_7 1_555 1_555
H42_7 C39_7 1_555 1_555
N12_7 C37_7 1_555 1_555
O43_7 Cd2_2 1_555 1_555
C2_7 N3_7 1_555 1_555
C3_7 N3_7 1_555 1_555
C12_7 N4_7 1_555 1_555
C13_7 N4_7 1_555 1_555
Cd2_2 O41_7 1_555 1_555
N1_7 N2_7 1_555 1_555
C34_7 O42_7 1_555 1_555
C35_7 N11_7 1_555 1_555
C36_7 N11_7 1_555 1_555
C37_7 O43_7 1_555 1_555
C38_7 N12_7 1_555 1_555
C39_7 N12_7 1_555 1_555
C1_8 H1_8 1_555 1_555
C2_8 H2_8 1_555 1_555
C3_8 C4_8 1_555 1_555
C4_8 H3_8 1_555 1_555
C5_7 C4_8 1_555 1_555
H4_7 C5_7 1_555 1_555
C6_7 C5_7 1_555 1_555
C7_7 C6_7 1_555 1_555
H5_7 C7_7 1_555 1_555
C8_8 C3_8 1_555 1_555
H6_8 C8_8 1_555 1_555
C9_7 C6_7 1_555 1_555
C10_7 C9_7 1_555 1_555
H7_7 C10_7 1_555 1_555
C11_8 H8_8 1_555 1_555
C12_8 H9_8 1_555 1_555
H10_8 C12_8 1_555 1_555
H11_8 C12_8 1_555 1_555
C13_8 H12_8 1_555 1_555
H13_8 C13_8 1_555 1_555
H14_8 C13_8 1_555 1_555
Cd3_2 N1_8 1_555 1_555
N1_8 C1_8 1_555 1_555
N2_8 C2_8 1_555 1_555
N3_8 C1_8 1_555 1_555
N4_8 C11_8 1_555 1_555
O41_8 C11_8 1_555 1_555
H18_7 C18_7 1_555 1_555
C19_7 C18_7 1_555 1_555
C20_7 C19_7 1_555 1_555
H19_7 C20_7 1_555 1_555
C22_7 C10_7 1_555 1_555
C23_7 C22_7 1_555 1_555
H21_7 C23_7 1_555 1_555
C24_8 H22_8 1_555 1_555
C25_8 H23_8 1_555 1_555
C26_8 C27_8 1_555 1_555
C27_8 H24_8 1_555 1_555
C28_7 C27_8 1_555 1_555
H25_7 C28_7 1_555 1_555
C29_7 C28_7 1_555 1_555
C30_7 C29_7 1_555 1_555
H26_7 C30_7 1_555 1_555
C31_8 C26_8 1_555 1_555
H27_8 C31_8 1_555 1_555
C32_7 C23_7 1_555 1_555
C33_7 C9_7 1_555 1_555
H28_7 C33_7 1_555 1_555
N14_3 C24_8 1_555 1_555
N9_8 C25_8 1_555 1_555
N10_8 C24_8 1_555 1_555
C34_8 H29_8 1_555 1_555
C35_8 H30_8 1_555 1_555
H31_8 C35_8 1_555 1_555
H32_8 C35_8 1_555 1_555
C36_8 H33_8 1_555 1_555
H34_8 C36_8 1_555 1_555
H35_8 C36_8 1_555 1_555
N11_8 C34_8 1_555 1_555
O42_8 Cd3_2 1_555 1_555
C37_8 H36_8 1_555 1_555
C38_8 H37_8 1_555 1_555
H38_8 C38_8 1_555 1_555
H39_8 C38_8 1_555 1_555
C39_8 H40_8 1_555 1_555
H41_8 C39_8 1_555 1_555
H42_8 C39_8 1_555 1_555
N12_8 C37_8 1_555 1_555
O43_8 Cd3_2 1_555 1_555
C2_8 N3_8 1_555 1_555
C3_8 N3_8 1_555 1_555
C7_7 C8_8 1_555 1_555
C12_8 N4_8 1_555 1_555
C13_8 N4_8 1_555 1_555
Cd3_2 O41_8 1_555 1_555
N1_8 N2_8 1_555 1_555
C19_7 C22_7 1_555 1_555
C25_8 N10_8 1_555 1_555
C26_8 N10_8 1_555 1_555
C29_7 C32_7 1_555 1_555
C30_7 C31_8 1_555 1_555
C32_7 C33_7 1_555 1_555
N14_3 N9_8 1_555 1_555
C34_8 O42_8 1_555 1_555
C35_8 N11_8 1_555 1_555
C36_8 N11_8 1_555 1_555
C37_8 O43_8 1_555 1_555
C38_8 N12_8 1_555 1_555
C39_8 N12_8 1_555 1_555
C14_8 H15_8 1_555 1_555
C15_8 H16_8 1_555 1_555
C16_8 C17_8 1_555 1_555
C17_8 H17_8 1_555 1_555
C21_8 C16_8 1_555 1_555
H20_8 C21_8 1_555 1_555
N13_4 C14_8 1_555 1_555
N6_8 C15_8 1_555 1_555
N7_8 C14_8 1_555 1_555
C15_8 N7_8 1_555 1_555
C16_8 N7_8 1_555 1_555
N13_4 N6_8 1_555 1_555
H4_8 C5_8 1_555 1_555
C6_8 C5_8 1_555 1_555
C7_8 C6_8 1_555 1_555
H5_8 C7_8 1_555 1_555
C9_8 C6_8 1_555 1_555
C10_8 C9_8 1_555 1_555
H7_8 C10_8 1_555 1_555
H18_8 C18_8 1_555 1_555
C19_8 C18_8 1_555 1_555
C20_8 C19_8 1_555 1_555
H19_8 C20_8 1_555 1_555
C22_8 C10_8 1_555 1_555
C23_8 C22_8 1_555 1_555
H21_8 C23_8 1_555 1_555
H25_8 C28_8 1_555 1_555
C29_8 C28_8 1_555 1_555
C30_8 C29_8 1_555 1_555
H26_8 C30_8 1_555 1_555
C32_8 C23_8 1_555 1_555
C33_8 C9_8 1_555 1_555
H28_8 C33_8 1_555 1_555
C19_8 C22_8 1_555 1_555
C29_8 C32_8 1_555 1_555
C32_8 C33_8 1_555 1_555
C14_9 H15_9 1_555 1_555
N5_5 C14_9 1_555 1_555
Cd2_3 N5_5 1_555 1_555
N5_5 N6_9 1_555 1_555
C1_9 H1_9 1_555 1_555
C2_9 H2_9 1_555 1_555
C3_9 C4_9 1_555 1_555
C4_9 H3_9 1_555 1_555
C5_9 C4_9 1_555 1_555
H4_9 C5_9 1_555 1_555
C6_9 C5_9 1_555 1_555
C7_9 C6_9 1_555 1_555
H5_9 C7_9 1_555 1_555
C8_9 C3_9 1_555 1_555
H6_9 C8_9 1_555 1_555
C9_9 C6_9 1_555 1_555
C10_9 C9_9 1_555 1_555
H7_9 C10_9 1_555 1_555
C11_9 H8_9 1_555 1_555
C12_9 H9_9 1_555 1_555
H10_9 C12_9 1_555 1_555
H11_9 C12_9 1_555 1_555
C13_9 H12_9 1_555 1_555
H13_9 C13_9 1_555 1_555
H14_9 C13_9 1_555 1_555
Cd1_5 N1_9 1_555 1_555
N1_9 C1_9 1_555 1_555
N2_9 C2_9 1_555 1_555
N3_9 C1_9 1_555 1_555
N4_9 C11_9 1_555 1_555
O41_9 C11_9 1_555 1_555
C15_9 H16_9 1_555 1_555
C16_9 C17_9 1_555 1_555
C17_9 H17_9 1_555 1_555
C18_9 C17_9 1_555 1_555
H18_9 C18_9 1_555 1_555
C19_9 C18_9 1_555 1_555
C20_9 C19_9 1_555 1_555
H19_9 C20_9 1_555 1_555
C21_9 C16_9 1_555 1_555
H20_9 C21_9 1_555 1_555
C22_9 C10_9 1_555 1_555
C23_9 C22_9 1_555 1_555
H21_9 C23_9 1_555 1_555
C24_9 H22_9 1_555 1_555
C25_9 H23_9 1_555 1_555
C26_9 C27_9 1_555 1_555
C27_9 H24_9 1_555 1_555
C28_9 C27_9 1_555 1_555
H25_9 C28_9 1_555 1_555
C29_9 C28_9 1_555 1_555
C30_9 C29_9 1_555 1_555
H26_9 C30_9 1_555 1_555
C31_9 C26_9 1_555 1_555
H27_9 C31_9 1_555 1_555
C32_9 C23_9 1_555 1_555
C33_9 C9_9 1_555 1_555
H28_9 C33_9 1_555 1_555
N8_5 C24_9 1_555 1_555
N9_9 C25_9 1_555 1_555
N10_9 C24_9 1_555 1_555
C34_9 H29_9 1_555 1_555
C35_9 H30_9 1_555 1_555
H31_9 C35_9 1_555 1_555
H32_9 C35_9 1_555 1_555
C36_9 H33_9 1_555 1_555
H34_9 C36_9 1_555 1_555
H35_9 C36_9 1_555 1_555
N11_9 C34_9 1_555 1_555
O42_9 Cd1_5 1_555 1_555
C37_9 H36_9 1_555 1_555
C38_9 H37_9 1_555 1_555
H38_9 C38_9 1_555 1_555
H39_9 C38_9 1_555 1_555
C39_9 H40_9 1_555 1_555
H41_9 C39_9 1_555 1_555
H42_9 C39_9 1_555 1_555
N12_9 C37_9 1_555 1_555
O43_9 Cd1_5 1_555 1_555
Cd3_3 N8_5 1_555 1_555
N13_5 Cd1_5 1_555 1_555
N14_5 Cd1_5 1_555 1_555
C2_9 N3_9 1_555 1_555
C3_9 N3_9 1_555 1_555
C7_9 C8_9 1_555 1_555
C12_9 N4_9 1_555 1_555
C13_9 N4_9 1_555 1_555
Cd1_5 O41_9 1_555 1_555
N1_9 N2_9 1_555 1_555
C15_9 N7_9 1_555 1_555
C16_9 N7_9 1_555 1_555
C19_9 C22_9 1_555 1_555
C20_9 C21_9 1_555 1_555
C25_9 N10_9 1_555 1_555
C26_9 N10_9 1_555 1_555
C29_9 C32_9 1_555 1_555
C30_9 C31_9 1_555 1_555
C32_9 C33_9 1_555 1_555
N8_5 N9_9 1_555 1_555
C34_9 O42_9 1_555 1_555
C35_9 N11_9 1_555 1_555
C36_9 N11_9 1_555 1_555
C37_9 O43_9 1_555 1_555
C38_9 N12_9 1_555 1_555
C39_9 N12_9 1_555 1_555
C2_10 H2_10 1_555 1_555
C3_10 C4_10 1_555 1_555
C4_10 H3_10 1_555 1_555
C5_10 C4_10 1_555 1_555
H4_10 C5_10 1_555 1_555
C6_10 C5_10 1_555 1_555
C7_10 C6_10 1_555 1_555
H5_10 C7_10 1_555 1_555
C8_10 C3_10 1_555 1_555
H6_10 C8_10 1_555 1_555
C9_10 C6_10 1_555 1_555
C10_10 C9_10 1_555 1_555
H7_10 C10_10 1_555 1_555
C15_10 H16_10 1_555 1_555
C16_10 C17_10 1_555 1_555
C17_10 H17_10 1_555 1_555
C18_10 C17_10 1_555 1_555
H18_10 C18_10 1_555 1_555
C19_10 C18_10 1_555 1_555
C20_10 C19_10 1_555 1_555
H19_10 C20_10 1_555 1_555
C21_10 C16_10 1_555 1_555
H20_10 C21_10 1_555 1_555
C22_10 C10_10 1_555 1_555
C23_10 C22_10 1_555 1_555
H21_10 C23_10 1_555 1_555
C25_10 H23_10 1_555 1_555
C26_10 C27_10 1_555 1_555
C27_10 H24_10 1_555 1_555
C28_10 C27_10 1_555 1_555
H25_10 C28_10 1_555 1_555
C29_10 C28_10 1_555 1_555
C30_10 C29_10 1_555 1_555
H26_10 C30_10 1_555 1_555
C31_10 C26_10 1_555 1_555
H27_10 C31_10 1_555 1_555
C32_10 C23_10 1_555 1_555
C33_10 C9_10 1_555 1_555
H28_10 C33_10 1_555 1_555
C37_10 H36_10 1_555 1_555
C38_10 H37_10 1_555 1_555
H38_10 C38_10 1_555 1_555
H39_10 C38_10 1_555 1_555
C39_10 H40_10 1_555 1_555
H41_10 C39_10 1_555 1_555
H42_10 C39_10 1_555 1_555
N12_10 C37_10 1_555 1_555
C2_10 N3_10 1_555 1_555
C3_10 N3_10 1_555 1_555
C7_10 C8_10 1_555 1_555
C15_10 N7_10 1_555 1_555
C16_10 N7_10 1_555 1_555
C19_10 C22_10 1_555 1_555
C20_10 C21_10 1_555 1_555
C25_10 N10_10 1_555 1_555
C26_10 N10_10 1_555 1_555
C29_10 C32_10 1_555 1_555
C30_10 C31_10 1_555 1_555
C32_10 C33_10 1_555 1_555
C37_10 O43_10 1_555 1_555
C38_10 N12_10 1_555 1_555
C39_10 N12_10 1_555 1_555
C24_10 H22_10 1_555 1_555
N8_6 C24_10 1_555 1_555
C35_10 H30_10 1_555 1_555
H31_10 C35_10 1_555 1_555
H32_10 C35_10 1_555 1_555
C36_10 H33_10 1_555 1_555
H34_10 C36_10 1_555 1_555
H35_10 C36_10 1_555 1_555
N11_10 C34_10 1_555 1_555
Cd2_3 N8_6 1_555 1_555
N8_6 N9_10 1_555 1_555
C34_10 O42_10 1_555 1_555
C35_10 N11_10 1_555 1_555
C36_10 N11_10 1_555 1_555
C14_10 H15_10 1_555 1_555
N5_6 C14_10 1_555 1_555
Cd3_3 N5_6 1_555 1_555
N5_6 N6_10 1_555 1_555
C1_10 H1_10 1_555 1_555
Cd1_6 N1_10 1_555 1_555
N1_10 C1_10 1_555 1_555
N13_6 Cd1_6 1_555 1_555
N14_6 Cd1_6 1_555 1_555
N1_10 N2_10 1_555 1_555
C12_10 H9_10 1_555 1_555
H10_10 C12_10 1_555 1_555
H11_10 C12_10 1_555 1_555
C13_10 H12_10 1_555 1_555
H13_10 C13_10 1_555 1_555
H14_10 C13_10 1_555 1_555
N4_10 C11_10 1_555 1_555
O41_10 C11_10 1_555 1_555
C12_10 N4_10 1_555 1_555
C13_10 N4_10 1_555 1_555
C24_11 H22_11 1_555 1_555
N14_6 C24_11 1_555 1_555
C34_11 H29_11 1_555 1_555
C35_11 H30_11 1_555 1_555
H31_11 C35_11 1_555 1_555
H32_11 C35_11 1_555 1_555
C36_11 H33_11 1_555 1_555
H34_11 C36_11 1_555 1_555
H35_11 C36_11 1_555 1_555
N11_11 C34_11 1_555 1_555
N14_6 N9_11 1_555 1_555
C34_11 O42_11 1_555 1_555
C35_11 N11_11 1_555 1_555
C36_11 N11_11 1_555 1_555
C1_11 H1_11 1_555 1_555
C2_11 H2_11 1_555 1_555
C3_11 C4_11 1_555 1_555
C4_11 H3_11 1_555 1_555
C5_11 C4_11 1_555 1_555
H4_11 C5_11 1_555 1_555
C6_11 C5_11 1_555 1_555
C7_11 C6_11 1_555 1_555
H5_11 C7_11 1_555 1_555
C8_11 C3_11 1_555 1_555
H6_11 C8_11 1_555 1_555
C9_11 C6_11 1_555 1_555
C10_11 C9_11 1_555 1_555
H7_11 C10_11 1_555 1_555
Cd2_3 N1_11 1_555 1_555
N1_11 C1_11 1_555 1_555
N2_11 C2_11 1_555 1_555
N3_11 C1_11 1_555 1_555
C14_11 H15_11 1_555 1_555
C15_11 H16_11 1_555 1_555
C16_11 C17_11 1_555 1_555
C17_11 H17_11 1_555 1_555
C18_11 C17_11 1_555 1_555
H18_11 C18_11 1_555 1_555
C19_11 C18_11 1_555 1_555
C20_11 C19_11 1_555 1_555
H19_11 C20_11 1_555 1_555
C21_11 C16_11 1_555 1_555
H20_11 C21_11 1_555 1_555
C22_11 C10_11 1_555 1_555
C23_11 C22_11 1_555 1_555
H21_11 C23_11 1_555 1_555
N13_5 C14_11 1_555 1_555
N6_11 C15_11 1_555 1_555
N7_11 C14_11 1_555 1_555
C25_11 H23_11 1_555 1_555
C26_11 C27_11 1_555 1_555
C27_11 H24_11 1_555 1_555
C28_11 C27_11 1_555 1_555
H25_11 C28_11 1_555 1_555
C29_11 C28_11 1_555 1_555
C30_11 C29_11 1_555 1_555
H26_11 C30_11 1_555 1_555
C31_11 C26_11 1_555 1_555
H27_11 C31_11 1_555 1_555
C32_11 C23_11 1_555 1_555
C33_11 C9_11 1_555 1_555
H28_11 C33_11 1_555 1_555
C2_11 N3_11 1_555 1_555
C3_11 N3_11 1_555 1_555
C7_11 C8_11 1_555 1_555
N1_11 N2_11 1_555 1_555
C15_11 N7_11 1_555 1_555
C16_11 N7_11 1_555 1_555
C19_11 C22_11 1_555 1_555
C20_11 C21_11 1_555 1_555
N13_5 N6_11 1_555 1_555
C25_11 N10_11 1_555 1_555
C26_11 N10_11 1_555 1_555
C29_11 C32_11 1_555 1_555
C30_11 C31_11 1_555 1_555
C32_11 C33_11 1_555 1_555
C12_11 H9_11 1_555 1_555
H10_11 C12_11 1_555 1_555
H11_11 C12_11 1_555 1_555
C13_11 H12_11 1_555 1_555
H13_11 C13_11 1_555 1_555
H14_11 C13_11 1_555 1_555
N4_11 C11_11 1_555 1_555
O41_11 C11_11 1_555 1_555
C12_11 N4_11 1_555 1_555
C13_11 N4_11 1_555 1_555
C38_11 H37_11 1_555 1_555
H38_11 C38_11 1_555 1_555
H39_11 C38_11 1_555 1_555
C39_11 H40_11 1_555 1_555
H41_11 C39_11 1_555 1_555
H42_11 C39_11 1_555 1_555
N12_11 C37_11 1_555 1_555
C37_11 O43_11 1_555 1_555
C38_11 N12_11 1_555 1_555
C39_11 N12_11 1_555 1_555
C11_12 H8_12 1_555 1_555
C12_12 H9_12 1_555 1_555
H10_12 C12_12 1_555 1_555
H11_12 C12_12 1_555 1_555
C13_12 H12_12 1_555 1_555
H13_12 C13_12 1_555 1_555
H14_12 C13_12 1_555 1_555
N4_12 C11_12 1_555 1_555
O41_12 C11_12 1_555 1_555
C12_12 N4_12 1_555 1_555
C13_12 N4_12 1_555 1_555
C1_12 H1_12 1_555 1_555
Cd3_3 N1_12 1_555 1_555
N1_12 C1_12 1_555 1_555
N1_12 N2_12 1_555 1_555
C38_12 H37_12 1_555 1_555
H38_12 C38_12 1_555 1_555
H39_12 C38_12 1_555 1_555
C39_12 H40_12 1_555 1_555
H41_12 C39_12 1_555 1_555
H42_12 C39_12 1_555 1_555
N12_12 C37_12 1_555 1_555
C37_12 O43_12 1_555 1_555
C38_12 N12_12 1_555 1_555
C39_12 N12_12 1_555 1_555
C2_12 H2_12 1_555 1_555
C3_12 C4_12 1_555 1_555
C4_12 H3_12 1_555 1_555
C5_12 C4_12 1_555 1_555
H4_12 C5_12 1_555 1_555
C6_12 C5_12 1_555 1_555
C7_12 C6_12 1_555 1_555
H5_12 C7_12 1_555 1_555
C8_12 C3_12 1_555 1_555
H6_12 C8_12 1_555 1_555
C9_12 C6_12 1_555 1_555
C10_12 C9_12 1_555 1_555
H7_12 C10_12 1_555 1_555
C14_12 H15_12 1_555 1_555
C15_12 H16_12 1_555 1_555
C16_12 C17_12 1_555 1_555
C17_12 H17_12 1_555 1_555
C18_12 C17_12 1_555 1_555
H18_12 C18_12 1_555 1_555
C19_12 C18_12 1_555 1_555
C20_12 C19_12 1_555 1_555
H19_12 C20_12 1_555 1_555
C21_12 C16_12 1_555 1_555
H20_12 C21_12 1_555 1_555
C22_12 C10_12 1_555 1_555
C23_12 C22_12 1_555 1_555
H21_12 C23_12 1_555 1_555
N13_6 C14_12 1_555 1_555
N6_12 C15_12 1_555 1_555
N7_12 C14_12 1_555 1_555
C24_12 H22_12 1_555 1_555
C25_12 H23_12 1_555 1_555
C26_12 C27_12 1_555 1_555
C27_12 H24_12 1_555 1_555
C28_12 C27_12 1_555 1_555
H25_12 C28_12 1_555 1_555
C29_12 C28_12 1_555 1_555
C30_12 C29_12 1_555 1_555
H26_12 C30_12 1_555 1_555
C31_12 C26_12 1_555 1_555
H27_12 C31_12 1_555 1_555
C32_12 C23_12 1_555 1_555
C33_12 C9_12 1_555 1_555
H28_12 C33_12 1_555 1_555
N14_5 C24_12 1_555 1_555
N9_12 C25_12 1_555 1_555
N10_12 C24_12 1_555 1_555
C35_12 H30_12 1_555 1_555
H31_12 C35_12 1_555 1_555
H32_12 C35_12 1_555 1_555
C36_12 H33_12 1_555 1_555
H34_12 C36_12 1_555 1_555
H35_12 C36_12 1_555 1_555
N11_12 C34_12 1_555 1_555
C2_12 N3_12 1_555 1_555
C3_12 N3_12 1_555 1_555
C7_12 C8_12 1_555 1_555
C15_12 N7_12 1_555 1_555
C16_12 N7_12 1_555 1_555
C19_12 C22_12 1_555 1_555
C20_12 C21_12 1_555 1_555
N13_6 N6_12 1_555 1_555
C25_12 N10_12 1_555 1_555
C26_12 N10_12 1_555 1_555
C29_12 C32_12 1_555 1_555
C30_12 C31_12 1_555 1_555
C32_12 C33_12 1_555 1_555
N14_5 N9_12 1_555 1_555
C34_12 O42_12 1_555 1_555
C35_12 N11_12 1_555 1_555
C36_12 N11_12 1_555 1_555
C14_13 H15_13 1_555 1_555
C15_13 H16_13 1_555 1_555
C16_13 C17_13 1_555 1_555
C17_13 H17_13 1_555 1_555
C21_13 C16_13 1_555 1_555
H20_13 C21_13 1_555 1_555
N5_7 C14_13 1_555 1_555
N6_13 C15_13 1_555 1_555
N7_13 C14_13 1_555 1_555
Cd2_4 N5_7 1_555 1_555
C15_13 N7_13 1_555 1_555
C16_13 N7_13 1_555 1_555
N5_7 N6_13 1_555 1_555
H4_13 C5_13 1_555 1_555
C6_13 C5_13 1_555 1_555
C7_13 C6_13 1_555 1_555
H5_13 C7_13 1_555 1_555
C9_13 C6_13 1_555 1_555
C10_13 C9_13 1_555 1_555
H7_13 C10_13 1_555 1_555
H18_13 C18_13 1_555 1_555
C19_13 C18_13 1_555 1_555
C20_13 C19_13 1_555 1_555
H19_13 C20_13 1_555 1_555
C22_13 C10_13 1_555 1_555
C23_13 C22_13 1_555 1_555
H21_13 C23_13 1_555 1_555
C24_13 H22_13 1_555 1_555
C25_13 H23_13 1_555 1_555
C26_13 C27_13 1_555 1_555
C27_13 H24_13 1_555 1_555
C28_13 C27_13 1_555 1_555
H25_13 C28_13 1_555 1_555
C29_13 C28_13 1_555 1_555
C30_13 C29_13 1_555 1_555
H26_13 C30_13 1_555 1_555
C31_13 C26_13 1_555 1_555
H27_13 C31_13 1_555 1_555
C32_13 C23_13 1_555 1_555
C33_13 C9_13 1_555 1_555
H28_13 C33_13 1_555 1_555
N8_7 C24_13 1_555 1_555
N9_13 C25_13 1_555 1_555
N10_13 C24_13 1_555 1_555
Cd3_4 N8_7 1_555 1_555
C19_13 C22_13 1_555 1_555
C25_13 N10_13 1_555 1_555
C26_13 N10_13 1_555 1_555
C29_13 C32_13 1_555 1_555
C30_13 C31_13 1_555 1_555
C32_13 C33_13 1_555 1_555
N8_7 N9_13 1_555 1_555
C1_13 H1_13 1_555 1_555
C2_13 H2_13 1_555 1_555
C3_13 C4_13 1_555 1_555
C4_13 H3_13 1_555 1_555
C5_14 C4_13 1_555 1_555
H4_14 C5_14 1_555 1_555
C6_14 C5_14 1_555 1_555
C7_14 C6_14 1_555 1_555
H5_14 C7_14 1_555 1_555
C8_13 C3_13 1_555 1_555
H6_13 C8_13 1_555 1_555
C9_14 C6_14 1_555 1_555
C10_14 C9_14 1_555 1_555
H7_14 C10_14 1_555 1_555
C11_13 H8_13 1_555 1_555
C12_13 H9_13 1_555 1_555
H10_13 C12_13 1_555 1_555
H11_13 C12_13 1_555 1_555
C13_13 H12_13 1_555 1_555
H13_13 C13_13 1_555 1_555
H14_13 C13_13 1_555 1_555
Cd1_7 N1_13 1_555 1_555
N1_13 C1_13 1_555 1_555
N2_13 C2_13 1_555 1_555
N3_13 C1_13 1_555 1_555
N4_13 C11_13 1_555 1_555
O41_13 C11_13 1_555 1_555
C14_14 H15_14 1_555 1_555
C15_14 H16_14 1_555 1_555
C16_14 C17_14 1_555 1_555
C17_14 H17_14 1_555 1_555
C18_14 C17_14 1_555 1_555
H18_14 C18_14 1_555 1_555
C19_14 C18_14 1_555 1_555
C20_14 C19_14 1_555 1_555
H19_14 C20_14 1_555 1_555
C21_14 C16_14 1_555 1_555
H20_14 C21_14 1_555 1_555
C22_14 C10_14 1_555 1_555
C23_14 C22_14 1_555 1_555
H21_14 C23_14 1_555 1_555
N5_8 C14_14 1_555 1_555
N6_14 C15_14 1_555 1_555
N7_14 C14_14 1_555 1_555
C24_14 H22_14 1_555 1_555
C25_14 H23_14 1_555 1_555
C26_14 C27_14 1_555 1_555
C27_14 H24_14 1_555 1_555
C28_14 C27_14 1_555 1_555
H25_14 C28_14 1_555 1_555
C29_14 C28_14 1_555 1_555
C30_14 C29_14 1_555 1_555
H26_14 C30_14 1_555 1_555
C31_14 C26_14 1_555 1_555
H27_14 C31_14 1_555 1_555
C32_14 C23_14 1_555 1_555
C33_14 C9_14 1_555 1_555
H28_14 C33_14 1_555 1_555
N8_8 C24_14 1_555 1_555
N9_14 C25_14 1_555 1_555
N10_14 C24_14 1_555 1_555
C34_13 H29_13 1_555 1_555
C35_13 H30_13 1_555 1_555
H31_13 C35_13 1_555 1_555
H32_13 C35_13 1_555 1_555
C36_13 H33_13 1_555 1_555
H34_13 C36_13 1_555 1_555
H35_13 C36_13 1_555 1_555
N11_13 C34_13 1_555 1_555
O42_13 Cd1_7 1_555 1_555
C37_13 H36_13 1_555 1_555
C38_13 H37_13 1_555 1_555
H38_13 C38_13 1_555 1_555
H39_13 C38_13 1_555 1_555
C39_13 H40_13 1_555 1_555
H41_13 C39_13 1_555 1_555
H42_13 C39_13 1_555 1_555
N12_13 C37_13 1_555 1_555
O43_13 Cd1_7 1_555 1_555
Cd3_4 N5_8 1_555 1_555
Cd2_4 N8_8 1_555 1_555
N13_7 Cd1_7 1_555 1_555
N14_7 Cd1_7 1_555 1_555
C2_13 N3_13 1_555 1_555
C3_13 N3_13 1_555 1_555
C7_14 C8_13 1_555 1_555
C12_13 N4_13 1_555 1_555
C13_13 N4_13 1_555 1_555
Cd1_7 O41_13 1_555 1_555
N1_13 N2_13 1_555 1_555
C15_14 N7_14 1_555 1_555
C16_14 N7_14 1_555 1_555
C19_14 C22_14 1_555 1_555
C20_14 C21_14 1_555 1_555
N5_8 N6_14 1_555 1_555
C25_14 N10_14 1_555 1_555
C26_14 N10_14 1_555 1_555
C29_14 C32_14 1_555 1_555
C30_14 C31_14 1_555 1_555
C32_14 C33_14 1_555 1_555
N8_8 N9_14 1_555 1_555
C34_13 O42_13 1_555 1_555
C35_13 N11_13 1_555 1_555
C36_13 N11_13 1_555 1_555
C37_13 O43_13 1_555 1_555
C38_13 N12_13 1_555 1_555
C39_13 N12_13 1_555 1_555
C24_15 H22_15 1_555 1_555
C25_15 H23_15 1_555 1_555
C26_15 C27_15 1_555 1_555
C27_15 H24_15 1_555 1_555
C31_15 C26_15 1_555 1_555
H27_15 C31_15 1_555 1_555
N14_7 C24_15 1_555 1_555
N9_15 C25_15 1_555 1_555
N10_15 C24_15 1_555 1_555
C25_15 N10_15 1_555 1_555
C26_15 N10_15 1_555 1_555
N14_7 N9_15 1_555 1_555
C1_14 H1_14 1_555 1_555
C2_14 H2_14 1_555 1_555
C3_14 C4_14 1_555 1_555
C4_14 H3_14 1_555 1_555
C5_15 C4_14 1_555 1_555
H4_15 C5_15 1_555 1_555
C6_15 C5_15 1_555 1_555
C7_15 C6_15 1_555 1_555
H5_15 C7_15 1_555 1_555
C8_14 C3_14 1_555 1_555
H6_14 C8_14 1_555 1_555
C9_15 C6_15 1_555 1_555
C10_15 C9_15 1_555 1_555
H7_15 C10_15 1_555 1_555
C11_14 H8_14 1_555 1_555
C12_14 H9_14 1_555 1_555
H10_14 C12_14 1_555 1_555
H11_14 C12_14 1_555 1_555
C13_14 H12_14 1_555 1_555
H13_14 C13_14 1_555 1_555
H14_14 C13_14 1_555 1_555
Cd2_4 N1_14 1_555 1_555
N1_14 C1_14 1_555 1_555
N2_14 C2_14 1_555 1_555
N3_14 C1_14 1_555 1_555
N4_14 C11_14 1_555 1_555
O41_14 C11_14 1_555 1_555
H18_15 C18_15 1_555 1_555
C19_15 C18_15 1_555 1_555
C20_15 C19_15 1_555 1_555
H19_15 C20_15 1_555 1_555
C22_15 C10_15 1_555 1_555
C23_15 C22_15 1_555 1_555
H21_15 C23_15 1_555 1_555
H25_15 C28_15 1_555 1_555
C29_15 C28_15 1_555 1_555
C30_15 C29_15 1_555 1_555
H26_15 C30_15 1_555 1_555
C32_15 C23_15 1_555 1_555
C33_15 C9_15 1_555 1_555
H28_15 C33_15 1_555 1_555
C34_14 H29_14 1_555 1_555
C35_14 H30_14 1_555 1_555
H31_14 C35_14 1_555 1_555
H32_14 C35_14 1_555 1_555
C36_14 H33_14 1_555 1_555
H34_14 C36_14 1_555 1_555
H35_14 C36_14 1_555 1_555
N11_14 C34_14 1_555 1_555
O42_14 Cd2_4 1_555 1_555
C37_14 H36_14 1_555 1_555
C38_14 H37_14 1_555 1_555
H38_14 C38_14 1_555 1_555
H39_14 C38_14 1_555 1_555
C39_14 H40_14 1_555 1_555
H41_14 C39_14 1_555 1_555
H42_14 C39_14 1_555 1_555
N12_14 C37_14 1_555 1_555
O43_14 Cd2_4 1_555 1_555
C2_14 N3_14 1_555 1_555
C3_14 N3_14 1_555 1_555
C7_15 C8_14 1_555 1_555
C12_14 N4_14 1_555 1_555
C13_14 N4_14 1_555 1_555
Cd2_4 O41_14 1_555 1_555
N1_14 N2_14 1_555 1_555
C19_15 C22_15 1_555 1_555
C29_15 C32_15 1_555 1_555
C32_15 C33_15 1_555 1_555
C34_14 O42_14 1_555 1_555
C35_14 N11_14 1_555 1_555
C36_14 N11_14 1_555 1_555
C37_14 O43_14 1_555 1_555
C38_14 N12_14 1_555 1_555
C39_14 N12_14 1_555 1_555
C1_15 H1_15 1_555 1_555
C2_15 H2_15 1_555 1_555
C3_15 C4_15 1_555 1_555
C4_15 H3_15 1_555 1_555
C8_15 C3_15 1_555 1_555
H6_15 C8_15 1_555 1_555
C11_15 H8_15 1_555 1_555
C12_15 H9_15 1_555 1_555
H10_15 C12_15 1_555 1_555
H11_15 C12_15 1_555 1_555
C13_15 H12_15 1_555 1_555
H13_15 C13_15 1_555 1_555
H14_15 C13_15 1_555 1_555
Cd3_4 N1_15 1_555 1_555
N1_15 C1_15 1_555 1_555
N2_15 C2_15 1_555 1_555
N3_15 C1_15 1_555 1_555
N4_15 C11_15 1_555 1_555
O41_15 C11_15 1_555 1_555
C34_15 H29_15 1_555 1_555
C35_15 H30_15 1_555 1_555
H31_15 C35_15 1_555 1_555
H32_15 C35_15 1_555 1_555
C36_15 H33_15 1_555 1_555
H34_15 C36_15 1_555 1_555
H35_15 C36_15 1_555 1_555
N11_15 C34_15 1_555 1_555
O42_15 Cd3_4 1_555 1_555
C37_15 H36_15 1_555 1_555
C38_15 H37_15 1_555 1_555
H38_15 C38_15 1_555 1_555
H39_15 C38_15 1_555 1_555
C39_15 H40_15 1_555 1_555
H41_15 C39_15 1_555 1_555
H42_15 C39_15 1_555 1_555
N12_15 C37_15 1_555 1_555
O43_15 Cd3_4 1_555 1_555
C2_15 N3_15 1_555 1_555
C3_15 N3_15 1_555 1_555
C12_15 N4_15 1_555 1_555
C13_15 N4_15 1_555 1_555
Cd3_4 O41_15 1_555 1_555
N1_15 N2_15 1_555 1_555
C34_15 O42_15 1_555 1_555
C35_15 N11_15 1_555 1_555
C36_15 N11_15 1_555 1_555
C37_15 O43_15 1_555 1_555
C38_15 N12_15 1_555 1_555
C39_15 N12_15 1_555 1_555
H4_16 C5_16 1_555 1_555
C6_16 C5_16 1_555 1_555
C7_16 C6_16 1_555 1_555
H5_16 C7_16 1_555 1_555
C9_16 C6_16 1_555 1_555
C10_16 C9_16 1_555 1_555
H7_16 C10_16 1_555 1_555
C14_15 H15_15 1_555 1_555
C15_15 H16_15 1_555 1_555
C16_15 C17_15 1_555 1_555
C17_15 H17_15 1_555 1_555
C18_16 C17_15 1_555 1_555
H18_16 C18_16 1_555 1_555
C19_16 C18_16 1_555 1_555
C20_16 C19_16 1_555 1_555
H19_16 C20_16 1_555 1_555
C21_15 C16_15 1_555 1_555
H20_15 C21_15 1_555 1_555
C22_16 C10_16 1_555 1_555
C23_16 C22_16 1_555 1_555
H21_16 C23_16 1_555 1_555
N13_7 C14_15 1_555 1_555
N6_15 C15_15 1_555 1_555
N7_15 C14_15 1_555 1_555
H25_16 C28_16 1_555 1_555
C29_16 C28_16 1_555 1_555
C30_16 C29_16 1_555 1_555
H26_16 C30_16 1_555 1_555
C32_16 C23_16 1_555 1_555
C33_16 C9_16 1_555 1_555
H28_16 C33_16 1_555 1_555
C15_15 N7_15 1_555 1_555
C16_15 N7_15 1_555 1_555
C19_16 C22_16 1_555 1_555
C20_16 C21_15 1_555 1_555
N13_7 N6_15 1_555 1_555
C29_16 C32_16 1_555 1_555
C32_16 C33_16 1_555 1_555
C1_16 H1_16 1_555 1_555
C2_16 H2_16 1_555 1_555
C3_16 C4_16 1_555 1_555
C4_16 H3_16 1_555 1_555
C8_16 C3_16 1_555 1_555
H6_16 C8_16 1_555 1_555
C11_16 H8_16 1_555 1_555
C12_16 H9_16 1_555 1_555
H10_16 C12_16 1_555 1_555
H11_16 C12_16 1_555 1_555
C13_16 H12_16 1_555 1_555
H13_16 C13_16 1_555 1_555
H14_16 C13_16 1_555 1_555
Cd1_8 N1_16 1_555 1_555
N1_16 C1_16 1_555 1_555
N2_16 C2_16 1_555 1_555
N3_16 C1_16 1_555 1_555
N4_16 C11_16 1_555 1_555
O41_16 C11_16 1_555 1_555
C34_16 H29_16 1_555 1_555
C35_16 H30_16 1_555 1_555
H31_16 C35_16 1_555 1_555
H32_16 C35_16 1_555 1_555
C36_16 H33_16 1_555 1_555
H34_16 C36_16 1_555 1_555
H35_16 C36_16 1_555 1_555
N11_16 C34_16 1_555 1_555
O42_16 Cd1_8 1_555 1_555
C37_16 H36_16 1_555 1_555
C38_16 H37_16 1_555 1_555
H38_16 C38_16 1_555 1_555
H39_16 C38_16 1_555 1_555
C39_16 H40_16 1_555 1_555
H41_16 C39_16 1_555 1_555
H42_16 C39_16 1_555 1_555
N12_16 C37_16 1_555 1_555
O43_16 Cd1_8 1_555 1_555
N13_8 Cd1_8 1_555 1_555
N14_8 Cd1_8 1_555 1_555
C2_16 N3_16 1_555 1_555
C3_16 N3_16 1_555 1_555
C12_16 N4_16 1_555 1_555
C13_16 N4_16 1_555 1_555
Cd1_8 O41_16 1_555 1_555
N1_16 N2_16 1_555 1_555
C34_16 O42_16 1_555 1_555
C35_16 N11_16 1_555 1_555
C36_16 N11_16 1_555 1_555
C37_16 O43_16 1_555 1_555
C38_16 N12_16 1_555 1_555
C39_16 N12_16 1_555 1_555
C14_16 H15_16 1_555 1_555
C15_16 H16_16 1_555 1_555
C16_16 C17_16 1_555 1_555
C17_16 H17_16 1_555 1_555
C21_16 C16_16 1_555 1_555
H20_16 C21_16 1_555 1_555
N13_8 C14_16 1_555 1_555
N6_16 C15_16 1_555 1_555
N7_16 C14_16 1_555 1_555
C15_16 N7_16 1_555 1_555
C16_16 N7_16 1_555 1_555
N13_8 N6_16 1_555 1_555
C24_16 H22_16 1_555 1_555
C25_16 H23_16 1_555 1_555
C26_16 C27_16 1_555 1_555
C27_16 H24_16 1_555 1_555
C31_16 C26_16 1_555 1_555
H27_16 C31_16 1_555 1_555
N14_8 C24_16 1_555 1_555
N9_16 C25_16 1_555 1_555
N10_16 C24_16 1_555 1_555
C25_16 N10_16 1_555 1_555
C26_16 N10_16 1_555 1_555
N14_8 N9_16 1_555 1_555

#END
