
###############################################################################
#
# This file contains modified crystal structure data generated from the
# MOF subset of the Cambridge Structural Database (CSD) v543 
# hosted by the Cambridge Crystallographic Data Centre (CCDC).
#
# This work is licensed under the Creative Commons
# Attribution-NonCommercial-ShareAlike 4.0 International License.
# To view a copy of this license, visit
# http://creativecommons.org/licenses/by-nc-sa/4.0/
# or send a letter to
# Creative Commons, PO Box 1866, Mountain View, CA 94042, USA.
#
# CIF created using the CSD Python API on 29 September 2022
# The structure has been converted into the P1 space group
# The structure has a 3D framework
# The original CSD entry SICQUT is in the rhombohedral crystal system
# The framework has been calculated to contain at least 10.0% void space
# The void calculation uses a probe of radius 1.32A, grid spacing 0.4
#
###############################################################################

data_SICQUT
_chemical_formula_moiety         '(C288 H72 Co58 O200)n'
_symmetry_cell_setting           triclinic
_symmetry_space_group_name_H-M   'P 1'
_symmetry_Int_Tables_number      1
_space_group_name_Hall           'P 1'
loop_
_symmetry_equiv_pos_site_id
_symmetry_equiv_pos_as_xyz
1 x,y,z
_cell_length_a                   51.7341(19)
_cell_length_b                   51.7341(19)
_cell_length_c                   6.8014(3)
_cell_angle_alpha                90
_cell_angle_beta                 90
_cell_angle_gamma                120
_cell_volume                     15764.6
loop_
_atom_site_label
_atom_site_type_symbol
_atom_site_fract_x
_atom_site_fract_y
_atom_site_fract_z
Co1 Co 0.64839(4) 0.64258(4) 0.6816(2)
Co4 Co 0.62677(4) 0.48306(4) 0.3110(3)
O1 O 0.6602(2) 0.6467(2) 0.1310(14)
O5 O 0.6717(2) 0.6334(2) 0.4886(13)
O7 O 0.6548(2) 0.5112(2) 0.5266(14)
O9 O 0.6404(2) 0.5230(2) 0.1678(13)
O10 O 0.6678(2) 0.5450(2) 0.7640(14)
O12 O 0.6008(2) 0.4552(2) 0.0954(14)
C2 C 0.6524(3) 0.6210(3) 0.0656(18)
C7 C 0.6591(3) 0.5361(3) 0.5892(18)
C8 C 0.6563(3) 0.5564(3) 0.4501(19)
C9 C 0.6637(3) 0.5849(3) 0.5218(19)
H1 H 0.669338 0.589457 0.655819
C10 C 0.6545(3) 0.5995(3) 0.2049(19)
C11 C 0.6631(3) 0.6065(3) 0.4043(19)
C14 C 0.6467(3) 0.5708(3) 0.1343(19)
H3 H 0.640634 0.566078 0.001052
C15 C 0.6475(3) 0.5493(3) 0.2510(19)
Co6 Co 0.66086(6) 0.68494(4) 0.0149(2)
Co7 Co 0.69075(4) 0.67248(6) 0.3483(2)
Co8 Co 0.51813(4) 0.32986(4) 0.0250(3)
Co10 Co 0.66319(4) 0.47840(6) 0.6417(3)
Co11 Co 0.66605(4) 0.51719(4) 0.9748(3)
O13 O 0.6532(3) 0.6731(2) 0.4643(14)
O14 O 0.6866(2) 0.6802(3) 0.7977(14)
O16 O 0.6433(2) 0.6129(2) 0.8929(14)
O19 O 0.6284(3) 0.6616(2) 0.8219(13)
O20 O 0.6244(2) 0.4519(2) 0.5011(14)
O23 O 0.6679(2) 0.4901(3) 0.1931(14)
O2 O 0.6342(2) 0.4770(2) 0.8588(14)
O4 O 0.5207(2) 0.3602(2) 0.8315(14)
O8 O 0.5112(2) 0.3346(2) 0.4736(14)
O11 O 0.5447(2) 0.3572(2) 0.2370(14)
C1 C 0.5352(3) 0.3562(3) 0.4103(19)
C3 C 0.5536(3) 0.3815(3) 0.5480(19)
C4 C 0.6096(3) 0.4554(3) 0.9241(19)
C5 C 0.5456(3) 0.3815(3) 0.7463(19)
C6 C 0.5994(3) 0.4300(3) 0.5866(19)
C12 C 0.5652(3) 0.4067(3) 0.861(2)
H2 H 0.560042 0.407348 0.994395
C13 C 0.5914(3) 0.4303(3) 0.7882(18)
C16 C 0.5798(3) 0.4054(3) 0.473(2)
H4 H 0.584467 0.404922 0.338375
Co12 Co 0.48219(6) 0.33272(4) 0.6919(3)
Co14 Co 0.47704(6) 0.29344(4) 0.3557(3)
O18 O 0.6935(2) 0.5062(3) 0.8352(14)
O21 O 0.5058(3) 0.2911(2) 0.1656(14)
O22 O 0.4769(3) 0.3215(2) 0.1401(14)
O15 O 0.4905(3) 0.3009(2) 0.8079(14)
Co1_2 Co 0.35742(4) 0.00581(6) 0.6816(2)
Co4_2 Co 0.51694(4) 0.14371(6) 0.3110(3)
O1_2 O 0.3533(2) 0.0135(3) 0.1310(14)
O5_2 O 0.3666(2) 0.0383(3) 0.4886(13)
O7_2 O 0.4888(2) 0.1436(3) 0.5266(14)
O9_2 O 0.4770(2) 0.1174(3) 0.1678(13)
O10_2 O 0.4550(2) 0.1228(3) 0.7640(14)
O12_2 O 0.5448(2) 0.1456(3) 0.0954(14)
C2_2 C 0.3790(3) 0.0314(4) 0.0656(18)
C7_2 C 0.4639(3) 0.1230(4) 0.5892(18)
C8_2 C 0.4436(3) 0.0999(4) 0.4501(19)
C9_2 C 0.4151(3) 0.0788(4) 0.5218(19)
H1_2 H 0.410543 0.079881 0.655819
C10_2 C 0.4005(3) 0.0550(4) 0.2049(19)
C11_2 C 0.3935(3) 0.0566(4) 0.4043(19)
C14_2 C 0.4292(3) 0.0759(4) 0.1343(19)
H3_2 H 0.433922 0.074556 0.001052
C15_2 C 0.4507(3) 0.0982(4) 0.2510(19)
Co7_2 Co 0.32752(6) 0.01828(7) 0.3483(2)
Co8_2 Co 0.67014(4) 0.18827(6) 0.0250(3)
Co10_2 Co 0.52160(6) 0.18480(7) 0.6417(3)
Co11_2 Co 0.48281(4) 0.14886(6) 0.9748(3)
O14_2 O 0.3198(3) 0.0065(4) 0.7977(14)
O16_2 O 0.3871(2) 0.0304(3) 0.8929(14)
O20_2 O 0.5481(2) 0.1725(3) 0.5011(14)
O23_2 O 0.5099(3) 0.1779(4) 0.1931(14)
O2_2 O 0.5230(2) 0.1572(3) 0.8588(14)
O4_2 O 0.6398(2) 0.1605(3) 0.8315(14)
O8_2 O 0.6654(2) 0.1766(3) 0.4736(14)
O11_2 O 0.6428(2) 0.1875(3) 0.2370(14)
C1_2 C 0.6438(3) 0.1790(4) 0.4103(19)
C3_2 C 0.6185(3) 0.1721(4) 0.5480(19)
C4_2 C 0.5446(3) 0.1542(4) 0.9241(19)
C5_2 C 0.6185(3) 0.1641(4) 0.7463(19)
C6_2 C 0.5700(3) 0.1694(4) 0.5866(19)
C12_2 C 0.5933(3) 0.1585(4) 0.861(2)
H2_2 H 0.592652 0.152694 0.994395
C13_2 C 0.5697(3) 0.1611(4) 0.7882(18)
C16_2 C 0.5946(3) 0.1744(4) 0.473(2)
H4_2 H 0.595078 0.179545 0.338375
Co12_2 Co 0.66728(4) 0.14948(7) 0.6919(3)
Co14_2 Co 0.70656(4) 0.18361(7) 0.3557(3)
O18_2 O 0.4938(3) 0.1874(4) 0.8352(14)
O21_2 O 0.7089(2) 0.2148(4) 0.1656(14)
O22_2 O 0.6785(2) 0.1555(4) 0.1401(14)
O15_2 O 0.6991(2) 0.1897(4) 0.8079(14)
Co6_2 Co 0.31506(4) 0.97591(7) 0.0149(2)
O13_2 O 0.3269(2) 0.9800(4) 0.4643(14)
O19_2 O 0.3384(2) 0.9667(4) 0.8219(13)
Co6_3 Co 0.02409(7) 0.33914(6) 0.0149(2)
O13_3 O 0.0200(4) 0.3468(3) 0.4643(14)
O19_3 O 0.0333(4) 0.3716(3) 0.8219(13)
Co1_3 Co 0.99419(6) 0.35161(4) 0.6816(2)
Co4_3 Co 0.85629(6) 0.37323(4) 0.3110(3)
O1_3 O 0.9865(3) 0.3398(2) 0.1310(14)
O5_3 O 0.9617(3) 0.3283(2) 0.4886(13)
O7_3 O 0.8564(3) 0.3452(2) 0.5266(14)
O9_3 O 0.8826(3) 0.3596(2) 0.1678(13)
O10_3 O 0.8772(3) 0.3322(2) 0.7640(14)
O12_3 O 0.8544(3) 0.3992(2) 0.0954(14)
C2_3 C 0.9686(4) 0.3476(3) 0.0656(18)
C7_3 C 0.8770(4) 0.3409(3) 0.5892(18)
C8_3 C 0.9001(4) 0.3437(3) 0.4501(19)
C9_3 C 0.9212(4) 0.3363(3) 0.5218(19)
H1_3 H 0.920119 0.330662 0.655819
C10_3 C 0.9450(4) 0.3455(3) 0.2049(19)
C11_3 C 0.9434(4) 0.3369(3) 0.4043(19)
C14_3 C 0.9241(4) 0.3533(3) 0.1343(19)
H3_3 H 0.925444 0.359366 0.001052
C15_3 C 0.9018(4) 0.3525(3) 0.2510(19)
Co7_3 Co 0.98172(7) 0.30925(4) 0.3483(2)
Co8_3 Co 0.81173(6) 0.48187(4) 0.0250(3)
Co10_3 Co 0.81520(7) 0.33681(4) 0.6417(3)
Co11_3 Co 0.85114(6) 0.33395(4) 0.9748(3)
O14_3 O 0.9935(4) 0.3134(2) 0.7977(14)
O16_3 O 0.9696(3) 0.3567(2) 0.8929(14)
O20_3 O 0.8275(3) 0.3756(2) 0.5011(14)
O23_3 O 0.8221(4) 0.3321(2) 0.1931(14)
O2_3 O 0.8428(3) 0.3658(2) 0.8588(14)
O4_3 O 0.8395(3) 0.4793(2) 0.8315(14)
O8_3 O 0.8234(3) 0.4888(2) 0.4736(14)
O11_3 O 0.8125(3) 0.4553(2) 0.2370(14)
C1_3 C 0.8210(4) 0.4648(3) 0.4103(19)
C3_3 C 0.8279(4) 0.4464(3) 0.5480(19)
C4_3 C 0.8458(4) 0.3904(3) 0.9241(19)
C5_3 C 0.8359(4) 0.4544(3) 0.7463(19)
C6_3 C 0.8306(4) 0.4006(3) 0.5866(19)
C12_3 C 0.8415(4) 0.4348(3) 0.861(2)
H2_3 H 0.847306 0.439958 0.994395
C13_3 C 0.8389(4) 0.4086(3) 0.7882(18)
C16_3 C 0.8256(4) 0.4202(3) 0.473(2)
H4_3 H 0.820455 0.415533 0.338375
Co12_3 Co 0.85052(7) 0.51781(6) 0.6919(3)
Co14_3 Co 0.81639(7) 0.52296(6) 0.3557(3)
O18_3 O 0.8126(4) 0.3065(2) 0.8352(14)
O21_3 O 0.7852(4) 0.4942(3) 0.1656(14)
O22_3 O 0.8445(4) 0.5231(3) 0.1401(14)
O15_3 O 0.8103(4) 0.5095(3) 0.8079(14)
O10_4 O 0.3345(2) 0.8783(2) 0.0973(14)
Co11_4 Co 0.33272(4) 0.85052(4) 0.3081(3)
O16_4 O 0.3100(2) 0.9462(2) 0.2262(14)
O19_4 O 0.2950(3) 0.9950(2) 0.1553(13)
Co4_4 Co 0.29344(4) 0.81639(4) 0.6443(3)
O2_4 O 0.3009(2) 0.8103(2) 0.1921(14)
O4_4 O 0.1874(2) 0.6935(2) 0.1648(14)
O7_4 O 0.3215(2) 0.8445(2) 0.8599(14)
O9_4 O 0.3071(2) 0.8563(2) 0.5011(13)
O12_4 O 0.2675(2) 0.7885(2) 0.4287(14)
C2_4 C 0.3191(3) 0.9543(3) 0.3989(18)
C4_4 C 0.2763(3) 0.7887(3) 0.2574(19)
C5_4 C 0.2123(3) 0.7148(3) 0.0796(19)
C7_4 C 0.3258(3) 0.8694(3) 0.9225(18)
C8_4 C 0.3230(3) 0.8897(3) 0.7834(19)
C9_4 C 0.3304(3) 0.9182(3) 0.8551(19)
H1_4 H 0.336005 0.922790 0.989152
C10_4 C 0.3212(3) 0.9328(3) 0.5382(19)
C11_4 C 0.3298(3) 0.9398(3) 0.7376(19)
C12_4 C 0.2319(3) 0.7400(3) 0.194(2)
H2_4 H 0.226709 0.740681 0.327728
C13_4 C 0.2581(3) 0.7636(3) 0.1215(18)
C14_4 C 0.3134(3) 0.9041(3) 0.4676(19)
H3_4 H 0.307301 0.899411 0.334385
C15_4 C 0.3142(3) 0.8826(3) 0.5843(19)
Co8_4 Co 0.18480(4) 0.66319(4) 0.3583(3)
Co10_4 Co 0.32986(4) 0.81173(6) 0.9750(3)
Co12_4 Co 0.14886(6) 0.66605(4) 0.0252(3)
O18_4 O 0.3602(2) 0.8395(3) 0.1685(14)
O20_4 O 0.2911(2) 0.7852(2) 0.8344(14)
O23_4 O 0.3346(2) 0.8234(3) 0.5264(14)
O8_4 O 0.1779(2) 0.6679(2) 0.8069(14)
O11_4 O 0.2114(2) 0.6905(2) 0.5703(14)
C1_4 C 0.2019(3) 0.6895(3) 0.7436(19)
C3_4 C 0.2203(3) 0.7148(3) 0.8813(19)
C6_4 C 0.2661(3) 0.7633(3) 0.9199(19)
C16_4 C 0.2465(3) 0.7387(3) 0.806(2)
H4_4 H 0.251134 0.738255 0.671708
Co14_4 Co 0.14371(6) 0.62677(4) 0.6890(3)
O15_4 O 0.1572(3) 0.6342(2) 0.1412(14)
O21_4 O 0.1725(3) 0.6244(2) 0.4989(14)
O22_4 O 0.1436(3) 0.6548(2) 0.4734(14)
O10_5 O 0.1217(2) 0.4561(3) 0.0973(14)
Co11_5 Co 0.14948(4) 0.48219(6) 0.3081(3)
O16_5 O 0.0538(2) 0.3637(3) 0.2262(14)
O19_5 O 0.0050(2) 0.3001(4) 0.1553(13)
Co4_5 Co 0.18361(4) 0.47704(6) 0.6443(3)
O2_5 O 0.1897(2) 0.4905(3) 0.1921(14)
O4_5 O 0.3065(2) 0.4938(3) 0.1648(14)
O7_5 O 0.1555(2) 0.4769(3) 0.8599(14)
O9_5 O 0.1437(2) 0.4507(3) 0.5011(13)
O12_5 O 0.2115(2) 0.4789(3) 0.4287(14)
C2_5 C 0.0457(3) 0.3647(4) 0.3989(18)
C4_5 C 0.2113(3) 0.4875(4) 0.2574(19)
C5_5 C 0.2852(3) 0.4974(4) 0.0796(19)
C7_5 C 0.1306(3) 0.4563(4) 0.9225(18)
C8_5 C 0.1103(3) 0.4332(4) 0.7834(19)
C9_5 C 0.0818(3) 0.4121(4) 0.8551(19)
H1_5 H 0.077210 0.413214 0.989152
C10_5 C 0.0672(3) 0.3883(4) 0.5382(19)
C11_5 C 0.0602(3) 0.3899(4) 0.7376(19)
C12_5 C 0.2600(3) 0.4918(4) 0.194(2)
H2_5 H 0.259319 0.486027 0.327728
C13_5 C 0.2364(3) 0.4944(4) 0.1215(18)
C14_5 C 0.0959(3) 0.4092(4) 0.4676(19)
H3_5 H 0.100589 0.407889 0.334385
C15_5 C 0.1174(3) 0.4315(4) 0.5843(19)
Co8_5 Co 0.33681(4) 0.52160(6) 0.3583(3)
Co10_5 Co 0.18827(6) 0.51813(7) 0.9750(3)
Co12_5 Co 0.33395(4) 0.48281(7) 0.0252(3)
O18_5 O 0.1605(3) 0.5207(4) 0.1685(14)
O20_5 O 0.2148(2) 0.5058(3) 0.8344(14)
O23_5 O 0.1766(3) 0.5112(4) 0.5264(14)
O8_5 O 0.3321(2) 0.5099(3) 0.8069(14)
O11_5 O 0.3095(2) 0.5208(3) 0.5703(14)
C1_5 C 0.3105(3) 0.5123(4) 0.7436(19)
C3_5 C 0.2852(3) 0.5054(4) 0.8813(19)
C6_5 C 0.2367(3) 0.5027(4) 0.9199(19)
C16_5 C 0.2613(3) 0.5077(4) 0.806(2)
H4_5 H 0.261745 0.512878 0.671708
Co14_5 Co 0.37323(4) 0.51694(7) 0.6890(3)
O15_5 O 0.3658(2) 0.5230(4) 0.1412(14)
O21_5 O 0.3756(2) 0.5481(4) 0.4989(14)
O22_5 O 0.3452(2) 0.4888(4) 0.4734(14)
O10_6 O 0.5439(3) 0.6655(2) 0.0973(14)
Co11_6 Co 0.51781(6) 0.66728(4) 0.3081(3)
O16_6 O 0.6363(3) 0.6900(2) 0.2262(14)
O19_6 O 0.6999(4) 0.7050(3) 0.1553(13)
Co4_6 Co 0.52296(6) 0.70656(4) 0.6443(3)
O2_6 O 0.5095(3) 0.6991(2) 0.1921(14)
O4_6 O 0.5062(3) 0.8126(2) 0.1648(14)
O7_6 O 0.5231(3) 0.6785(2) 0.8599(14)
O9_6 O 0.5493(3) 0.6929(2) 0.5011(13)
O12_6 O 0.5211(3) 0.7325(2) 0.4287(14)
C2_6 C 0.6353(4) 0.6809(3) 0.3989(18)
C4_6 C 0.5125(4) 0.7237(3) 0.2574(19)
C5_6 C 0.5026(4) 0.7877(3) 0.0796(19)
C7_6 C 0.5437(4) 0.6742(3) 0.9225(18)
C8_6 C 0.5668(4) 0.6770(3) 0.7834(19)
C9_6 C 0.5879(4) 0.6696(3) 0.8551(19)
H1_6 H 0.586786 0.663995 0.989152
C10_6 C 0.6117(4) 0.6788(3) 0.5382(19)
C11_6 C 0.6101(4) 0.6702(3) 0.7376(19)
C12_6 C 0.5082(4) 0.7681(3) 0.194(2)
H2_6 H 0.513973 0.773291 0.327728
C13_6 C 0.5056(4) 0.7419(3) 0.1215(18)
C14_6 C 0.5908(4) 0.6866(3) 0.4676(19)
H3_6 H 0.592111 0.692699 0.334385
C15_6 C 0.5685(4) 0.6858(3) 0.5843(19)
Co8_6 Co 0.47840(6) 0.81520(4) 0.3583(3)
Co10_6 Co 0.48187(7) 0.67014(4) 0.9750(3)
Co12_6 Co 0.51719(7) 0.85114(6) 0.0252(3)
O18_6 O 0.4793(4) 0.6398(2) 0.1685(14)
O20_6 O 0.4942(3) 0.7089(2) 0.8344(14)
O23_6 O 0.4888(4) 0.6654(2) 0.5264(14)
O8_6 O 0.4901(3) 0.8221(2) 0.8069(14)
O11_6 O 0.4792(3) 0.7886(2) 0.5703(14)
C1_6 C 0.4877(4) 0.7981(3) 0.7436(19)
C3_6 C 0.4946(4) 0.7797(3) 0.8813(19)
C6_6 C 0.4973(4) 0.7339(3) 0.9199(19)
C16_6 C 0.4923(4) 0.7535(3) 0.806(2)
H4_6 H 0.487122 0.748866 0.671708
Co14_6 Co 0.48306(7) 0.85629(6) 0.6890(3)
O15_6 O 0.4770(4) 0.8428(3) 0.1412(14)
O21_6 O 0.4519(4) 0.8275(3) 0.4989(14)
O22_6 O 0.5112(4) 0.8564(3) 0.4734(14)
O10_7 O 0.0011(2) 0.2117(2) 0.4307(14)
H1_7 H 0.002671 0.256124 0.322486
O18_7 O 0.0269(2) 0.1728(3) 0.5018(14)
O23_7 O 0.0013(2) 0.1567(3) 0.8597(14)
O7_7 O 0.9881(2) 0.1779(2) 0.1933(14)
C7_7 C 0.9924(3) 0.2028(3) 0.2559(18)
C8_7 C 0.9896(3) 0.2231(3) 0.1168(19)
C9_7 C 0.9970(3) 0.2516(3) 0.1885(19)
C11_7 C 0.9964(3) 0.2732(3) 0.0710(19)
Co10_7 Co 0.99653(4) 0.14506(6) 0.3083(3)
Co11_7 Co 0.99938(4) 0.18386(4) 0.6415(3)
O16_7 O 0.9766(2) 0.2796(2) 0.5596(14)
O20_7 O 0.9577(2) 0.1186(2) 0.1678(14)
Co4_7 Co 0.96010(4) 0.14973(4) 0.9777(3)
O2_7 O 0.9675(2) 0.1437(2) 0.5255(14)
O4_7 O 0.8540(2) 0.0269(2) 0.4982(14)
O8_7 O 0.8445(2) 0.0013(2) 0.1403(14)
O9_7 O 0.9737(2) 0.1897(2) 0.8345(13)
O12_7 O 0.9341(2) 0.1219(2) 0.7621(14)
C1_7 C 0.8685(3) 0.0229(3) 0.0770(19)
C2_7 C 0.9857(3) 0.2877(3) 0.7323(18)
C3_7 C 0.8869(3) 0.0482(3) 0.2147(19)
C4_7 C 0.9429(3) 0.1221(3) 0.5908(19)
C5_7 C 0.8789(3) 0.0482(3) 0.4130(19)
C6_7 C 0.9327(3) 0.0967(3) 0.2533(19)
C10_7 C 0.9878(3) 0.2662(3) 0.8716(19)
C12_7 C 0.8985(3) 0.0734(3) 0.528(2)
H2_7 H 0.893375 0.074015 0.661062
C13_7 C 0.9247(3) 0.0970(3) 0.4549(18)
C14_7 C 0.9800(3) 0.2375(3) 0.8010(19)
H3_7 H 0.973967 0.232745 0.667719
C15_7 C 0.9808(3) 0.2160(3) 0.9177(19)
C16_7 C 0.9131(3) 0.0721(3) 0.140(2)
H4_7 H 0.917800 0.071589 0.005042
O11_7 O 0.8780(2) 0.0239(2) 0.9037(14)
Co8_7 Co 0.85146(4) 0.99653(4) 0.6917(3)
Co12_7 Co 0.81553(6) 0.99938(4) 0.3585(3)
Co14_7 Co 0.81038(6) 0.96010(4) 0.0223(3)
O15_7 O 0.8239(3) 0.9675(2) 0.4745(14)
O21_7 O 0.8392(3) 0.9577(2) 0.8322(14)
O22_7 O 0.8103(3) 0.9881(2) 0.8067(14)
Co8_8 Co 0.00347(4) 0.85494(6) 0.6917(3)
Co12_8 Co 0.00062(4) 0.81614(7) 0.3585(3)
Co14_8 Co 0.03990(4) 0.85027(7) 0.0223(3)
O15_8 O 0.0325(2) 0.8563(4) 0.4745(14)
O21_8 O 0.0423(2) 0.8814(4) 0.8322(14)
O22_8 O 0.0119(2) 0.8221(4) 0.8067(14)
O7_8 O 0.8221(2) 0.8103(3) 0.1933(14)
O10_8 O 0.7883(2) 0.7895(3) 0.4307(14)
C7_8 C 0.7972(3) 0.7897(4) 0.2559(18)
C8_8 C 0.7769(3) 0.7666(4) 0.1168(19)
C9_8 C 0.7484(3) 0.7455(4) 0.1885(19)
H1_8 H 0.743876 0.746548 0.322486
C11_8 C 0.7268(3) 0.7233(4) 0.0710(19)
Co10_8 Co 0.85494(6) 0.85146(7) 0.3083(3)
Co11_8 Co 0.81614(4) 0.81553(6) 0.6415(3)
O16_8 O 0.7204(2) 0.6971(3) 0.5596(14)
O20_8 O 0.8814(2) 0.8392(3) 0.1678(14)
Co4_8 Co 0.85027(4) 0.81038(6) 0.9777(3)
O2_8 O 0.8563(2) 0.8239(3) 0.5255(14)
O4_8 O 0.9731(2) 0.8272(3) 0.4982(14)
O8_8 O 0.9987(2) 0.8433(3) 0.1403(14)
O9_8 O 0.8103(2) 0.7841(3) 0.8345(13)
O12_8 O 0.8781(2) 0.8123(3) 0.7621(14)
C1_8 C 0.9771(3) 0.8457(4) 0.0770(19)
C2_8 C 0.7123(3) 0.6981(4) 0.7323(18)
C3_8 C 0.9518(3) 0.8388(4) 0.2147(19)
C4_8 C 0.8779(3) 0.8209(4) 0.5908(19)
C5_8 C 0.9518(3) 0.8308(4) 0.4130(19)
C6_8 C 0.9033(3) 0.8361(4) 0.2533(19)
C10_8 C 0.7338(3) 0.7217(4) 0.8716(19)
C12_8 C 0.9266(3) 0.8252(4) 0.528(2)
H2_8 H 0.925985 0.819361 0.661062
C13_8 C 0.9030(3) 0.8278(4) 0.4549(18)
C14_8 C 0.7625(3) 0.7426(4) 0.8010(19)
H3_8 H 0.767255 0.741223 0.667719
C15_8 C 0.7840(3) 0.7649(4) 0.9177(19)
C16_8 C 0.9279(3) 0.8411(4) 0.140(2)
H4_8 H 0.928411 0.846212 0.005042
O18_8 O 0.8272(3) 0.8540(4) 0.5018(14)
O23_8 O 0.8433(3) 0.8445(4) 0.8597(14)
O11_8 O 0.9761(2) 0.8542(3) 0.9037(14)
O7_9 O 0.1897(3) 0.0119(2) 0.1933(14)
C7_9 C 0.2103(4) 0.0076(3) 0.2559(18)
C8_9 C 0.2334(4) 0.0104(3) 0.1168(19)
C9_9 C 0.2545(4) 0.0030(3) 0.1885(19)
C11_9 C 0.2767(4) 0.0036(3) 0.0710(19)
Co10_9 Co 0.14854(7) 0.00347(4) 0.3083(3)
Co11_9 Co 0.18447(6) 0.00062(4) 0.6415(3)
O16_9 O 0.3029(3) 0.0234(2) 0.5596(14)
O20_9 O 0.1608(3) 0.0423(2) 0.1678(14)
Co4_9 Co 0.18962(6) 0.03990(4) 0.9777(3)
O2_9 O 0.1761(3) 0.0325(2) 0.5255(14)
O4_9 O 0.1728(3) 0.1460(2) 0.4982(14)
O8_9 O 0.1567(3) 0.1555(2) 0.1403(14)
O9_9 O 0.2159(3) 0.0263(2) 0.8345(13)
O12_9 O 0.1877(3) 0.0659(2) 0.7621(14)
C1_9 C 0.1543(4) 0.1315(3) 0.0770(19)
C2_9 C 0.3019(4) 0.0143(3) 0.7323(18)
C3_9 C 0.1612(4) 0.1131(3) 0.2147(19)
C4_9 C 0.1791(4) 0.0571(3) 0.5908(19)
C5_9 C 0.1692(4) 0.1211(3) 0.4130(19)
C6_9 C 0.1639(4) 0.0673(3) 0.2533(19)
C10_9 C 0.2783(4) 0.0122(3) 0.8716(19)
C12_9 C 0.1748(4) 0.1015(3) 0.528(2)
H2_9 H 0.180639 0.106625 0.661062
C13_9 C 0.1722(4) 0.0753(3) 0.4549(18)
C14_9 C 0.2574(4) 0.0200(3) 0.8010(19)
H3_9 H 0.258777 0.026033 0.667719
C15_9 C 0.2351(4) 0.0192(3) 0.9177(19)
C16_9 C 0.1589(4) 0.0869(3) 0.140(2)
H4_9 H 0.153788 0.082200 0.005042
Co8_9 Co 0.14506(6) 0.14854(4) 0.6917(3)
Co12_9 Co 0.18386(7) 0.18447(6) 0.3585(3)
Co14_9 Co 0.14973(7) 0.18962(6) 0.0223(3)
O11_9 O 0.1458(3) 0.1220(2) 0.9037(14)
O15_9 O 0.1437(4) 0.1761(3) 0.4745(14)
O21_9 O 0.1186(4) 0.1608(3) 0.8322(14)
O22_9 O 0.1779(4) 0.1897(3) 0.8067(14)
O10_9 O 0.2105(3) 0.9989(2) 0.4307(14)
H1_9 H 0.253452 0.997329 0.322486
O18_9 O 0.1460(4) 0.9731(2) 0.5018(14)
O23_9 O 0.1555(4) 0.9987(2) 0.8597(14)
O3 O 0.3567(2) 0.3871(2) 0.1071(14)
O11_10 O 0.4553(2) 0.6428(2) 0.7630(14)
C1_10 C 0.4648(3) 0.6438(3) 0.5897(19)
C3_10 C 0.4464(3) 0.6185(3) 0.4520(19)
C4_10 C 0.3904(3) 0.5446(3) 0.0759(19)
C5_10 C 0.4544(3) 0.6185(3) 0.2537(19)
C6_10 C 0.4006(3) 0.5700(3) 0.4134(19)
C12_10 C 0.4348(3) 0.5933(3) 0.139(2)
H2_10 H 0.439958 0.592652 0.005605
C13_10 C 0.4086(3) 0.5697(3) 0.2118(18)
C16_10 C 0.4202(3) 0.5946(3) 0.527(2)
H4_10 H 0.415533 0.595078 0.661625
Co5 Co 0.35161(4) 0.35742(4) 0.3184(2)
O24 O 0.3322(2) 0.4550(2) 0.2360(14)
O1_4 O 0.3398(2) 0.3533(2) 0.8690(14)
O5_4 O 0.3283(2) 0.3666(2) 0.5114(13)
O9_10 O 0.3596(2) 0.4770(2) 0.8322(13)
O12_10 O 0.3992(2) 0.5448(2) 0.9046(14)
C2_10 C 0.3476(3) 0.3790(3) 0.9344(18)
C7_10 C 0.3409(3) 0.4639(3) 0.4108(18)
C8_10 C 0.3437(3) 0.4436(3) 0.5499(19)
C9_10 C 0.3363(3) 0.4151(3) 0.4782(19)
H1_10 H 0.330662 0.410543 0.344181
C10_10 C 0.3455(3) 0.4005(3) 0.7951(19)
C11_10 C 0.3369(3) 0.3935(3) 0.5957(19)
C14_10 C 0.3533(3) 0.4292(3) 0.8657(19)
H3_10 H 0.359366 0.433922 0.998948
C15_10 C 0.3525(3) 0.4507(3) 0.7490(19)
Co6_4 Co 0.33914(6) 0.31506(4) 0.9851(2)
Co7_4 Co 0.30925(4) 0.32752(6) 0.6517(2)
O13_4 O 0.3468(3) 0.3269(2) 0.5357(14)
O14_4 O 0.3134(2) 0.3198(3) 0.2023(14)
O19_7 O 0.3716(3) 0.3384(2) 0.1781(13)
Co6_5 Co 0.68494(4) 0.02409(7) 0.9851(2)
O13_5 O 0.6731(2) 0.0200(4) 0.5357(14)
O19_8 O 0.6616(2) 0.0333(4) 0.1781(13)
O3_2 O 0.6129(2) 0.9696(3) 0.1071(14)
O11_11 O 0.3572(2) 0.8125(3) 0.7630(14)
C1_11 C 0.3562(3) 0.8210(4) 0.5897(19)
C3_11 C 0.3815(3) 0.8279(4) 0.4520(19)
C4_11 C 0.4554(3) 0.8458(4) 0.0759(19)
C5_11 C 0.3815(3) 0.8359(4) 0.2537(19)
C6_11 C 0.4300(3) 0.8306(4) 0.4134(19)
C12_11 C 0.4067(3) 0.8415(4) 0.139(2)
H2_11 H 0.407348 0.847306 0.005605
C13_11 C 0.4303(3) 0.8389(4) 0.2118(18)
C16_11 C 0.4054(3) 0.8256(4) 0.527(2)
H4_11 H 0.404922 0.820455 0.661625
Co5_2 Co 0.64258(4) 0.99419(6) 0.3184(2)
O24_2 O 0.5450(2) 0.8772(3) 0.2360(14)
O1_5 O 0.6467(2) 0.9865(3) 0.8690(14)
O5_5 O 0.6334(2) 0.9617(3) 0.5114(13)
O9_11 O 0.5230(2) 0.8826(3) 0.8322(13)
O12_11 O 0.4552(2) 0.8544(3) 0.9046(14)
C2_11 C 0.6210(3) 0.9686(4) 0.9344(18)
C7_11 C 0.5361(3) 0.8770(4) 0.4108(18)
C8_11 C 0.5564(3) 0.9001(4) 0.5499(19)
C9_11 C 0.5849(3) 0.9212(4) 0.4782(19)
H1_11 H 0.589457 0.920119 0.344181
C10_11 C 0.5995(3) 0.9450(4) 0.7951(19)
C11_11 C 0.6065(3) 0.9434(4) 0.5957(19)
C14_11 C 0.5708(3) 0.9241(4) 0.8657(19)
H3_11 H 0.566078 0.925444 0.998948
C15_11 C 0.5493(3) 0.9018(4) 0.7490(19)
Co7_5 Co 0.67248(6) 0.98172(7) 0.6517(2)
O14_5 O 0.6802(3) 0.9935(4) 0.2023(14)
O3_3 O 0.0304(3) 0.6433(2) 0.1071(14)
O11_12 O 0.1875(3) 0.5447(2) 0.7630(14)
C1_12 C 0.1790(4) 0.5352(3) 0.5897(19)
C3_12 C 0.1721(4) 0.5536(3) 0.4520(19)
C4_12 C 0.1542(4) 0.6096(3) 0.0759(19)
C5_12 C 0.1641(4) 0.5456(3) 0.2537(19)
C6_12 C 0.1694(4) 0.5994(3) 0.4134(19)
C12_12 C 0.1585(4) 0.5652(3) 0.139(2)
H2_12 H 0.152694 0.560042 0.005605
C13_12 C 0.1611(4) 0.5914(3) 0.2118(18)
C16_12 C 0.1744(4) 0.5798(3) 0.527(2)
H4_12 H 0.179545 0.584467 0.661625
Co5_3 Co 0.00581(6) 0.64839(4) 0.3184(2)
O24_3 O 0.1228(3) 0.6678(2) 0.2360(14)
O1_6 O 0.0135(3) 0.6602(2) 0.8690(14)
O5_6 O 0.0383(3) 0.6717(2) 0.5114(13)
O9_12 O 0.1174(3) 0.6404(2) 0.8322(13)
O12_12 O 0.1456(3) 0.6008(2) 0.9046(14)
C2_12 C 0.0314(4) 0.6524(3) 0.9344(18)
C7_12 C 0.1230(4) 0.6591(3) 0.4108(18)
C8_12 C 0.0999(4) 0.6563(3) 0.5499(19)
C9_12 C 0.0788(4) 0.6637(3) 0.4782(19)
H1_12 H 0.079881 0.669338 0.344181
C10_12 C 0.0550(4) 0.6545(3) 0.7951(19)
C11_12 C 0.0566(4) 0.6631(3) 0.5957(19)
C14_12 C 0.0759(4) 0.6467(3) 0.8657(19)
H3_12 H 0.074556 0.640634 0.998948
C15_12 C 0.0982(4) 0.6475(3) 0.7490(19)
Co7_6 Co 0.01828(7) 0.69075(4) 0.6517(2)
O14_6 O 0.0065(4) 0.6866(2) 0.2023(14)
Co6_6 Co 0.97591(7) 0.66086(6) 0.9851(2)
O13_6 O 0.9800(4) 0.6532(3) 0.5357(14)
O19_9 O 0.9667(4) 0.6284(3) 0.1781(13)
O11_13 O 0.7886(2) 0.3095(2) 0.4297(14)
C1_13 C 0.7981(3) 0.3105(3) 0.2564(19)
C3_13 C 0.7797(3) 0.2852(3) 0.1187(19)
C6_13 C 0.7339(3) 0.2367(3) 0.0801(19)
C16_13 C 0.7535(3) 0.2613(3) 0.194(2)
H4_13 H 0.748866 0.261745 0.328292
O3_4 O 0.6900(2) 0.0538(2) 0.7738(14)
O9_13 O 0.6929(2) 0.1437(2) 0.4989(13)
O12_13 O 0.7325(2) 0.2115(2) 0.5713(14)
C2_13 C 0.6809(3) 0.0457(3) 0.6011(18)
C4_13 C 0.7237(3) 0.2113(3) 0.7426(19)
C5_13 C 0.7877(3) 0.2852(3) 0.9204(19)
C7_13 C 0.6742(3) 0.1306(3) 0.0775(18)
C8_13 C 0.6770(3) 0.1103(3) 0.2166(19)
C9_13 C 0.6696(3) 0.0818(3) 0.1449(19)
H1_13 H 0.663995 0.077210 0.010848
C10_13 C 0.6788(3) 0.0672(3) 0.4618(19)
C11_13 C 0.6702(3) 0.0602(3) 0.2624(19)
C12_13 C 0.7681(3) 0.2600(3) 0.806(2)
H2_13 H 0.773291 0.259319 0.672272
C13_13 C 0.7419(3) 0.2364(3) 0.8785(18)
C14_13 C 0.6866(3) 0.0959(3) 0.5324(19)
H3_13 H 0.692699 0.100589 0.665615
C15_13 C 0.6858(3) 0.1174(3) 0.4157(19)
O24_4 O 0.6655(2) 0.1217(2) 0.9027(14)
O19_10 O 0.7050(3) 0.0050(2) 0.8447(13)
O11_14 O 0.6905(2) 0.4792(3) 0.4297(14)
C1_14 C 0.6895(3) 0.4877(4) 0.2564(19)
C3_14 C 0.7148(3) 0.4946(4) 0.1187(19)
C6_14 C 0.7633(3) 0.4973(4) 0.0801(19)
C16_14 C 0.7387(3) 0.4923(4) 0.194(2)
H4_14 H 0.738255 0.487122 0.328292
O3_5 O 0.9462(2) 0.6363(3) 0.7738(14)
O9_14 O 0.8563(2) 0.5493(3) 0.4989(13)
O12_14 O 0.7885(2) 0.5211(3) 0.5713(14)
C2_14 C 0.9543(3) 0.6353(4) 0.6011(18)
C4_14 C 0.7887(3) 0.5125(4) 0.7426(19)
C5_14 C 0.7148(3) 0.5026(4) 0.9204(19)
C7_14 C 0.8694(3) 0.5437(4) 0.0775(18)
C8_14 C 0.8897(3) 0.5668(4) 0.2166(19)
C9_14 C 0.9182(3) 0.5879(4) 0.1449(19)
H1_14 H 0.922790 0.586786 0.010848
C10_14 C 0.9328(3) 0.6117(4) 0.4618(19)
C11_14 C 0.9398(3) 0.6101(4) 0.2624(19)
C12_14 C 0.7400(3) 0.5082(4) 0.806(2)
H2_14 H 0.740681 0.513973 0.672272
C13_14 C 0.7636(3) 0.5056(4) 0.8785(18)
C14_14 C 0.9041(3) 0.5908(4) 0.5324(19)
H3_14 H 0.899411 0.592111 0.665615
C15_14 C 0.8826(3) 0.5685(4) 0.4157(19)
O24_5 O 0.8783(2) 0.5439(3) 0.9027(14)
O19_11 O 0.9950(2) 0.6999(4) 0.8447(13)
O11_15 O 0.5208(3) 0.2114(2) 0.4297(14)
C1_15 C 0.5123(4) 0.2019(3) 0.2564(19)
C3_15 C 0.5054(4) 0.2203(3) 0.1187(19)
C6_15 C 0.5027(4) 0.2661(3) 0.0801(19)
C16_15 C 0.5077(4) 0.2465(3) 0.194(2)
H4_15 H 0.512878 0.251134 0.328292
O3_6 O 0.3637(3) 0.3100(2) 0.7738(14)
O9_15 O 0.4507(3) 0.3071(2) 0.4989(13)
O12_15 O 0.4789(3) 0.2675(2) 0.5713(14)
C2_15 C 0.3647(4) 0.3191(3) 0.6011(18)
C4_15 C 0.4875(4) 0.2763(3) 0.7426(19)
C5_15 C 0.4974(4) 0.2123(3) 0.9204(19)
C7_15 C 0.4563(4) 0.3258(3) 0.0775(18)
C8_15 C 0.4332(4) 0.3230(3) 0.2166(19)
C9_15 C 0.4121(4) 0.3304(3) 0.1449(19)
H1_15 H 0.413214 0.336005 0.010848
C10_15 C 0.3883(4) 0.3212(3) 0.4618(19)
C11_15 C 0.3899(4) 0.3298(3) 0.2624(19)
C12_15 C 0.4918(4) 0.2319(3) 0.806(2)
H2_15 H 0.486027 0.226709 0.672272
C13_15 C 0.4944(4) 0.2581(3) 0.8785(18)
C14_15 C 0.4092(4) 0.3134(3) 0.5324(19)
H3_15 H 0.407889 0.307301 0.665615
C15_15 C 0.4315(4) 0.3142(3) 0.4157(19)
O24_6 O 0.4561(3) 0.3345(2) 0.9027(14)
O19_12 O 0.3001(4) 0.2950(3) 0.8447(13)
O11_16 O 0.1220(2) 0.9761(2) 0.0963(14)
O3_7 O 0.0234(2) 0.7204(2) 0.4404(14)
O9_16 O 0.0263(2) 0.8103(2) 0.1655(13)
O12_16 O 0.0659(2) 0.8781(2) 0.2379(14)
C1_16 C 0.1315(3) 0.9771(3) 0.9230(19)
C2_16 C 0.0143(3) 0.7123(3) 0.2677(18)
C3_16 C 0.1131(3) 0.9518(3) 0.7853(19)
C4_16 C 0.0571(3) 0.8779(3) 0.4092(19)
C5_16 C 0.1211(3) 0.9518(3) 0.5870(19)
C6_16 C 0.0673(3) 0.9033(3) 0.7467(19)
C10_16 C 0.0122(3) 0.7338(3) 0.1284(19)
C12_16 C 0.1015(3) 0.9266(3) 0.472(2)
H2_16 H 0.106625 0.925985 0.338938
C13_16 C 0.0753(3) 0.9030(3) 0.5451(18)
C14_16 C 0.0200(3) 0.7625(3) 0.1990(19)
H3_16 H 0.026033 0.767255 0.332281
C15_16 C 0.0192(3) 0.7840(3) 0.0823(19)
C16_16 C 0.0869(3) 0.9279(3) 0.860(2)
H4_16 H 0.082200 0.928411 0.994958
C7_16 C 0.0076(3) 0.7972(3) 0.7441(18)
C8_16 C 0.0104(3) 0.7769(3) 0.8832(19)
C9_16 C 0.0030(3) 0.7484(3) 0.8115(19)
C11_16 C 0.0036(3) 0.7268(3) 0.9290(19)
O24_7 O 0.9989(2) 0.7883(2) 0.5693(14)
H1_16 H 0.997329 0.743876 0.677514
O11_17 O 0.0239(2) 0.1458(3) 0.0963(14)
O3_8 O 0.2796(2) 0.3029(3) 0.4404(14)
O9_17 O 0.1897(2) 0.2159(3) 0.1655(13)
O12_17 O 0.1219(2) 0.1877(3) 0.2379(14)
C1_17 C 0.0229(3) 0.1543(4) 0.9230(19)
C2_17 C 0.2877(3) 0.3019(4) 0.2677(18)
C3_17 C 0.0482(3) 0.1612(4) 0.7853(19)
C4_17 C 0.1221(3) 0.1791(4) 0.4092(19)
C5_17 C 0.0482(3) 0.1692(4) 0.5870(19)
C6_17 C 0.0967(3) 0.1639(4) 0.7467(19)
C10_17 C 0.2662(3) 0.2783(4) 0.1284(19)
C12_17 C 0.0734(3) 0.1748(4) 0.472(2)
H2_17 H 0.074015 0.180639 0.338938
C13_17 C 0.0970(3) 0.1722(4) 0.5451(18)
C14_17 C 0.2375(3) 0.2574(4) 0.1990(19)
H3_17 H 0.232745 0.258777 0.332281
C15_17 C 0.2160(3) 0.2351(4) 0.0823(19)
C16_17 C 0.0721(3) 0.1589(4) 0.860(2)
H4_17 H 0.071589 0.153788 0.994958
O24_8 O 0.2117(2) 0.2105(3) 0.5693(14)
C7_17 C 0.2028(3) 0.2103(4) 0.7441(18)
C8_17 C 0.2231(3) 0.2334(4) 0.8832(19)
C9_17 C 0.2516(3) 0.2545(4) 0.8115(19)
H1_17 H 0.256124 0.253452 0.677514
C11_17 C 0.2732(3) 0.2767(4) 0.9290(19)
O24_9 O 0.7895(3) 0.0011(2) 0.5693(14)
H1_18 H 0.746548 0.002671 0.677514
O11_18 O 0.8542(3) 0.8780(2) 0.0963(14)
O3_9 O 0.6971(3) 0.9766(2) 0.4404(14)
O9_18 O 0.7841(3) 0.9737(2) 0.1655(13)
O12_18 O 0.8123(3) 0.9341(2) 0.2379(14)
C1_18 C 0.8457(4) 0.8685(3) 0.9230(19)
C2_18 C 0.6981(4) 0.9857(3) 0.2677(18)
C3_18 C 0.8388(4) 0.8869(3) 0.7853(19)
C4_18 C 0.8209(4) 0.9429(3) 0.4092(19)
C5_18 C 0.8308(4) 0.8789(3) 0.5870(19)
C6_18 C 0.8361(4) 0.9327(3) 0.7467(19)
C10_18 C 0.7217(4) 0.9878(3) 0.1284(19)
C12_18 C 0.8252(4) 0.8985(3) 0.472(2)
H2_18 H 0.819361 0.893375 0.338938
C13_18 C 0.8278(4) 0.9247(3) 0.5451(18)
C14_18 C 0.7426(4) 0.9800(3) 0.1990(19)
H3_18 H 0.741223 0.973967 0.332281
C15_18 C 0.7649(4) 0.9808(3) 0.0823(19)
C16_18 C 0.8411(4) 0.9131(3) 0.860(2)
H4_18 H 0.846212 0.917800 0.994958
C7_18 C 0.7897(4) 0.9924(3) 0.7441(18)
C8_18 C 0.7666(4) 0.9896(3) 0.8832(19)
C9_18 C 0.7455(4) 0.9970(3) 0.8115(19)
C11_18 C 0.7233(4) 0.9964(3) 0.9290(19)
loop_
_geom_bond_atom_site_label_1
_geom_bond_atom_site_label_2
_geom_bond_site_symmetry_1
_geom_bond_site_symmetry_2
Co1 O5 1_555 1_555
Co4 O7 1_555 1_555
O1 C2 1_555 1_555
O5 C11 1_555 1_555
O7 C7 1_555 1_555
O10 C7 1_555 1_555
O12 Co4 1_555 1_555
C2 C10 1_555 1_555
C7 C8 1_555 1_555
C8 C9 1_555 1_555
C9 H1 1_555 1_555
C10 C11 1_555 1_555
C11 C9 1_555 1_555
C14 C10 1_555 1_555
H3 C14 1_555 1_555
C15 O9 1_555 1_555
Co6 O1 1_555 1_555
Co7 O1 1_555 1_555
Co10 O7 1_555 1_555
Co11 O10 1_555 1_555
O13 Co1 1_555 1_555
O14 Co1 1_555 1_555
O16 Co1 1_555 1_555
O19 Co1 1_555 1_555
O20 Co4 1_555 1_555
Co4 O9 1_555 1_555
Co4 O23 1_555 1_555
O5 Co7 1_555 1_555
C8 C15 1_555 1_555
C14 C15 1_555 1_555
Co7 O13 1_555 1_555
Co10 O20 1_555 1_555
Co8 O11 1_555 1_555
Co11 O2 1_555 1_555
O2 C4 1_555 1_555
O4 C5 1_555 1_555
O20 C6 1_555 1_555
O8 C1 1_555 1_555
O11 C1 1_555 1_555
C1 C3 1_555 1_555
C3 C5 1_555 1_555
C5 C12 1_555 1_555
C6 C13 1_555 1_555
C12 H2 1_555 1_555
C13 C4 1_555 1_555
C16 C3 1_555 1_555
H4 C16 1_555 1_555
Co10 O2 1_555 1_555
Co12 O4 1_555 1_555
Co14 O8 1_555 1_555
O18 Co11 1_555 1_555
O21 Co8 1_555 1_555
O22 Co8 1_555 1_555
O8 Co12 1_555 1_555
C6 C16 1_555 1_555
C12 C13 1_555 1_555
Co10 O18 1_555 1_555
Co14 O21 1_555 1_555
Co14 O22 1_555 1_555
Co1_2 O5_2 1_555 1_555
Co4_2 O7_2 1_555 1_555
O1_2 C2_2 1_555 1_555
O5_2 C11_2 1_555 1_555
O7_2 C7_2 1_555 1_555
O10_2 C7_2 1_555 1_555
O12_2 Co4_2 1_555 1_555
C2_2 C10_2 1_555 1_555
C7_2 C8_2 1_555 1_555
C8_2 C9_2 1_555 1_555
C9_2 H1_2 1_555 1_555
C10_2 C11_2 1_555 1_555
C11_2 C9_2 1_555 1_555
C14_2 C10_2 1_555 1_555
H3_2 C14_2 1_555 1_555
C15_2 O9_2 1_555 1_555
Co7_2 O1_2 1_555 1_555
Co10_2 O7_2 1_555 1_555
Co11_2 O10_2 1_555 1_555
O14_2 Co1_2 1_555 1_555
O16_2 Co1_2 1_555 1_555
O20_2 Co4_2 1_555 1_555
Co4_2 O9_2 1_555 1_555
Co4_2 O23_2 1_555 1_555
O5_2 Co7_2 1_555 1_555
C8_2 C15_2 1_555 1_555
C14_2 C15_2 1_555 1_555
Co10_2 O20_2 1_555 1_555
Co8_2 O11_2 1_555 1_555
Co11_2 O2_2 1_555 1_555
O2_2 C4_2 1_555 1_555
O4_2 C5_2 1_555 1_555
O20_2 C6_2 1_555 1_555
O8_2 C1_2 1_555 1_555
O11_2 C1_2 1_555 1_555
C1_2 C3_2 1_555 1_555
C3_2 C5_2 1_555 1_555
C5_2 C12_2 1_555 1_555
C6_2 C13_2 1_555 1_555
C12_2 H2_2 1_555 1_555
C13_2 C4_2 1_555 1_555
C16_2 C3_2 1_555 1_555
H4_2 C16_2 1_555 1_555
Co10_2 O2_2 1_555 1_555
Co12_2 O4_2 1_555 1_555
Co14_2 O8_2 1_555 1_555
O18_2 Co11_2 1_555 1_555
O21_2 Co8_2 1_555 1_555
O22_2 Co8_2 1_555 1_555
O8_2 Co12_2 1_555 1_555
C6_2 C16_2 1_555 1_555
C12_2 C13_2 1_555 1_555
Co10_2 O18_2 1_555 1_555
Co14_2 O21_2 1_555 1_555
Co14_2 O22_2 1_555 1_555
Co1_3 O5_3 1_555 1_555
Co4_3 O7_3 1_555 1_555
O1_3 C2_3 1_555 1_555
O5_3 C11_3 1_555 1_555
O7_3 C7_3 1_555 1_555
O10_3 C7_3 1_555 1_555
O12_3 Co4_3 1_555 1_555
C2_3 C10_3 1_555 1_555
C7_3 C8_3 1_555 1_555
C8_3 C9_3 1_555 1_555
C9_3 H1_3 1_555 1_555
C10_3 C11_3 1_555 1_555
C11_3 C9_3 1_555 1_555
C14_3 C10_3 1_555 1_555
H3_3 C14_3 1_555 1_555
C15_3 O9_3 1_555 1_555
Co7_3 O1_3 1_555 1_555
Co10_3 O7_3 1_555 1_555
Co11_3 O10_3 1_555 1_555
O14_3 Co1_3 1_555 1_555
O16_3 Co1_3 1_555 1_555
O20_3 Co4_3 1_555 1_555
Co4_3 O9_3 1_555 1_555
Co4_3 O23_3 1_555 1_555
O5_3 Co7_3 1_555 1_555
C8_3 C15_3 1_555 1_555
C14_3 C15_3 1_555 1_555
Co10_3 O20_3 1_555 1_555
Co8_3 O11_3 1_555 1_555
Co11_3 O2_3 1_555 1_555
O2_3 C4_3 1_555 1_555
O4_3 C5_3 1_555 1_555
O20_3 C6_3 1_555 1_555
O8_3 C1_3 1_555 1_555
O11_3 C1_3 1_555 1_555
C1_3 C3_3 1_555 1_555
C3_3 C5_3 1_555 1_555
C5_3 C12_3 1_555 1_555
C6_3 C13_3 1_555 1_555
C12_3 H2_3 1_555 1_555
C13_3 C4_3 1_555 1_555
C16_3 C3_3 1_555 1_555
H4_3 C16_3 1_555 1_555
Co10_3 O2_3 1_555 1_555
Co12_3 O4_3 1_555 1_555
Co14_3 O8_3 1_555 1_555
O18_3 Co11_3 1_555 1_555
O21_3 Co8_3 1_555 1_555
O22_3 Co8_3 1_555 1_555
O8_3 Co12_3 1_555 1_555
C6_3 C16_3 1_555 1_555
C12_3 C13_3 1_555 1_555
Co10_3 O18_3 1_555 1_555
Co14_3 O21_3 1_555 1_555
Co14_3 O22_3 1_555 1_555
Co11_4 O10_4 1_555 1_555
O16_4 Co6_2 1_555 1_555
O19_4 Co6_2 1_555 1_555
Co11_4 O2_4 1_555 1_555
Co4_4 O7_4 1_555 1_555
O13_2 C2_4 1_555 1_555
O2_4 C4_4 1_555 1_555
O16_4 C2_4 1_555 1_555
O4_4 C5_4 1_555 1_555
O19_2 C11_4 1_555 1_555
O7_4 C7_4 1_555 1_555
O9_4 Co11_4 1_555 1_555
O12_4 Co4_4 1_555 1_555
C2_4 C10_4 1_555 1_555
C4_4 O12_4 1_555 1_555
C5_4 C12_4 1_555 1_555
C7_4 C8_4 1_555 1_555
C8_4 C9_4 1_555 1_555
C9_4 H1_4 1_555 1_555
C10_4 C11_4 1_555 1_555
C11_4 C9_4 1_555 1_555
C12_4 H2_4 1_555 1_555
C13_4 C4_4 1_555 1_555
C14_4 C10_4 1_555 1_555
H3_4 C14_4 1_555 1_555
C15_4 O9_4 1_555 1_555
Co8_4 O4_4 1_555 1_555
Co10_4 O7_4 1_555 1_555
Co12_4 O4_4 1_555 1_555
O18_4 Co11_4 1_555 1_555
O20_4 Co4_4 1_555 1_555
O23_4 Co11_4 1_555 1_555
Co4_4 O9_4 1_555 1_555
Co4_4 O23_4 1_555 1_555
C8_4 C15_4 1_555 1_555
C12_4 C13_4 1_555 1_555
C14_4 C15_4 1_555 1_555
Co10_4 O20_4 1_555 1_555
Co8_4 O11_4 1_555 1_555
O20_4 C6_4 1_555 1_555
O8_4 C1_4 1_555 1_555
O11_4 C1_4 1_555 1_555
C1_4 C3_4 1_555 1_555
C16_4 C3_4 1_555 1_555
H4_4 C16_4 1_555 1_555
Co14_4 O8_4 1_555 1_555
O15_4 Co8_4 1_555 1_555
O21_4 Co8_4 1_555 1_555
O22_4 Co8_4 1_555 1_555
C6_4 C16_4 1_555 1_555
Co14_4 O21_4 1_555 1_555
Co14_4 O22_4 1_555 1_555
Co11_5 O10_5 1_555 1_555
O16_5 Co6_3 1_555 1_555
O19_5 Co6_3 1_555 1_555
Co11_5 O2_5 1_555 1_555
Co4_5 O7_5 1_555 1_555
O13_3 C2_5 1_555 1_555
O2_5 C4_5 1_555 1_555
O16_5 C2_5 1_555 1_555
O4_5 C5_5 1_555 1_555
O19_3 C11_5 1_555 1_555
O7_5 C7_5 1_555 1_555
O9_5 Co11_5 1_555 1_555
O12_5 Co4_5 1_555 1_555
C2_5 C10_5 1_555 1_555
C4_5 O12_5 1_555 1_555
C5_5 C12_5 1_555 1_555
C7_5 C8_5 1_555 1_555
C8_5 C9_5 1_555 1_555
C9_5 H1_5 1_555 1_555
C10_5 C11_5 1_555 1_555
C11_5 C9_5 1_555 1_555
C12_5 H2_5 1_555 1_555
C13_5 C4_5 1_555 1_555
C14_5 C10_5 1_555 1_555
H3_5 C14_5 1_555 1_555
C15_5 O9_5 1_555 1_555
Co8_5 O4_5 1_555 1_555
Co10_5 O7_5 1_555 1_555
Co12_5 O4_5 1_555 1_555
O18_5 Co11_5 1_555 1_555
O20_5 Co4_5 1_555 1_555
O23_5 Co11_5 1_555 1_555
Co4_5 O9_5 1_555 1_555
Co4_5 O23_5 1_555 1_555
C8_5 C15_5 1_555 1_555
C12_5 C13_5 1_555 1_555
C14_5 C15_5 1_555 1_555
Co10_5 O20_5 1_555 1_555
Co8_5 O11_5 1_555 1_555
O20_5 C6_5 1_555 1_555
O8_5 C1_5 1_555 1_555
O11_5 C1_5 1_555 1_555
C1_5 C3_5 1_555 1_555
C16_5 C3_5 1_555 1_555
H4_5 C16_5 1_555 1_555
Co14_5 O8_5 1_555 1_555
O15_5 Co8_5 1_555 1_555
O21_5 Co8_5 1_555 1_555
O22_5 Co8_5 1_555 1_555
C6_5 C16_5 1_555 1_555
Co14_5 O21_5 1_555 1_555
Co14_5 O22_5 1_555 1_555
Co11_6 O10_6 1_555 1_555
O16_6 Co6 1_555 1_555
O19_6 Co6 1_555 1_555
Co11_6 O2_6 1_555 1_555
Co4_6 O7_6 1_555 1_555
O13 C2_6 1_555 1_555
O2_6 C4_6 1_555 1_555
O16_6 C2_6 1_555 1_555
O4_6 C5_6 1_555 1_555
O19 C11_6 1_555 1_555
O7_6 C7_6 1_555 1_555
O9_6 Co11_6 1_555 1_555
O12_6 Co4_6 1_555 1_555
C2_6 C10_6 1_555 1_555
C4_6 O12_6 1_555 1_555
C5_6 C12_6 1_555 1_555
C7_6 C8_6 1_555 1_555
C8_6 C9_6 1_555 1_555
C9_6 H1_6 1_555 1_555
C10_6 C11_6 1_555 1_555
C11_6 C9_6 1_555 1_555
C12_6 H2_6 1_555 1_555
C13_6 C4_6 1_555 1_555
C14_6 C10_6 1_555 1_555
H3_6 C14_6 1_555 1_555
C15_6 O9_6 1_555 1_555
Co8_6 O4_6 1_555 1_555
Co10_6 O7_6 1_555 1_555
Co12_6 O4_6 1_555 1_555
O18_6 Co11_6 1_555 1_555
O20_6 Co4_6 1_555 1_555
O23_6 Co11_6 1_555 1_555
Co4_6 O9_6 1_555 1_555
Co4_6 O23_6 1_555 1_555
C8_6 C15_6 1_555 1_555
C12_6 C13_6 1_555 1_555
C14_6 C15_6 1_555 1_555
Co10_6 O20_6 1_555 1_555
Co8_6 O11_6 1_555 1_555
O20_6 C6_6 1_555 1_555
O8_6 C1_6 1_555 1_555
O11_6 C1_6 1_555 1_555
C1_6 C3_6 1_555 1_555
C16_6 C3_6 1_555 1_555
H4_6 C16_6 1_555 1_555
Co14_6 O8_6 1_555 1_555
O15_6 Co8_6 1_555 1_555
O21_6 Co8_6 1_555 1_555
O22_6 Co8_6 1_555 1_555
C6_6 C16_6 1_555 1_555
Co14_6 O21_6 1_555 1_555
Co14_6 O22_6 1_555 1_555
O7_7 C7_7 1_555 1_555
C7_7 C8_7 1_555 1_555
C8_7 C9_7 1_555 1_555
C11_7 C9_7 1_555 1_555
Co10_7 O7_7 1_555 1_555
O16_7 Co7_3 1_555 1_555
Co10_7 O20_7 1_555 1_555
Co11_7 O2_7 1_555 1_555
O14_3 C2_7 1_555 1_555
O2_7 C4_7 1_555 1_555
O16_7 C2_7 1_555 1_555
O4_7 C5_7 1_555 1_555
O20_7 C6_7 1_555 1_555
O8_7 C1_7 1_555 1_555
O9_7 Co11_7 1_555 1_555
O12_7 Co4_7 1_555 1_555
C1_7 C3_7 1_555 1_555
C2_7 C10_7 1_555 1_555
C3_7 C5_7 1_555 1_555
C4_7 O12_7 1_555 1_555
C5_7 C12_7 1_555 1_555
C6_7 C13_7 1_555 1_555
C12_7 H2_7 1_555 1_555
C13_7 C4_7 1_555 1_555
C14_7 C10_7 1_555 1_555
H3_7 C14_7 1_555 1_555
C15_7 O9_7 1_555 1_555
C16_7 C3_7 1_555 1_555
H4_7 C16_7 1_555 1_555
Co10_7 O2_7 1_555 1_555
Co4_7 O9_7 1_555 1_555
C6_7 C16_7 1_555 1_555
C12_7 C13_7 1_555 1_555
C14_7 C15_7 1_555 1_555
O15_7 Co8_7 1_555 1_555
O21_7 Co8_7 1_555 1_555
O22_7 Co8_7 1_555 1_555
O15_8 Co8_8 1_555 1_555
O21_8 Co8_8 1_555 1_555
O22_8 Co8_8 1_555 1_555
Co7 O19_6 1_555 1_555
O19_6 C11_8 1_555 1_555
O7_8 C7_8 1_555 1_555
O10_8 C7_8 1_555 1_555
C7_8 C8_8 1_555 1_555
C8_8 C9_8 1_555 1_555
C9_8 H1_8 1_555 1_555
C11_8 C9_8 1_555 1_555
Co10_8 O7_8 1_555 1_555
Co11_8 O10_8 1_555 1_555
O16_8 Co7 1_555 1_555
Co10_8 O20_8 1_555 1_555
Co11_8 O2_8 1_555 1_555
O14 C2_8 1_555 1_555
O2_8 C4_8 1_555 1_555
O16_8 C2_8 1_555 1_555
O4_8 C5_8 1_555 1_555
O20_8 C6_8 1_555 1_555
O8_8 C1_8 1_555 1_555
O9_8 Co11_8 1_555 1_555
O12_8 Co4_8 1_555 1_555
C1_8 C3_8 1_555 1_555
C2_8 C10_8 1_555 1_555
C3_8 C5_8 1_555 1_555
C4_8 O12_8 1_555 1_555
C5_8 C12_8 1_555 1_555
C6_8 C13_8 1_555 1_555
C12_8 H2_8 1_555 1_555
C13_8 C4_8 1_555 1_555
C14_8 C10_8 1_555 1_555
H3_8 C14_8 1_555 1_555
C15_8 O9_8 1_555 1_555
C16_8 C3_8 1_555 1_555
H4_8 C16_8 1_555 1_555
Co10_8 O2_8 1_555 1_555
O18_8 Co11_8 1_555 1_555
O23_8 Co11_8 1_555 1_555
Co4_8 O9_8 1_555 1_555
Co4_8 O23_8 1_555 1_555
C6_8 C16_8 1_555 1_555
C12_8 C13_8 1_555 1_555
C14_8 C15_8 1_555 1_555
Co10_8 O18_8 1_555 1_555
O7_9 C7_9 1_555 1_555
C7_9 C8_9 1_555 1_555
C8_9 C9_9 1_555 1_555
C11_9 C9_9 1_555 1_555
Co10_9 O7_9 1_555 1_555
O16_9 Co7_2 1_555 1_555
Co10_9 O20_9 1_555 1_555
Co11_9 O2_9 1_555 1_555
O14_2 C2_9 1_555 1_555
O2_9 C4_9 1_555 1_555
O16_9 C2_9 1_555 1_555
O4_9 C5_9 1_555 1_555
O20_9 C6_9 1_555 1_555
O8_9 C1_9 1_555 1_555
O9_9 Co11_9 1_555 1_555
O12_9 Co4_9 1_555 1_555
C1_9 C3_9 1_555 1_555
C2_9 C10_9 1_555 1_555
C3_9 C5_9 1_555 1_555
C4_9 O12_9 1_555 1_555
C5_9 C12_9 1_555 1_555
C6_9 C13_9 1_555 1_555
C12_9 H2_9 1_555 1_555
C13_9 C4_9 1_555 1_555
C14_9 C10_9 1_555 1_555
H3_9 C14_9 1_555 1_555
C15_9 O9_9 1_555 1_555
C16_9 C3_9 1_555 1_555
H4_9 C16_9 1_555 1_555
Co8_9 O4_9 1_555 1_555
Co10_9 O2_9 1_555 1_555
Co12_9 O4_9 1_555 1_555
Co14_9 O8_9 1_555 1_555
Co4_9 O9_9 1_555 1_555
O8_9 Co12_9 1_555 1_555
C6_9 C16_9 1_555 1_555
C12_9 C13_9 1_555 1_555
C14_9 C15_9 1_555 1_555
Co8_9 O11_9 1_555 1_555
O15_9 Co8_9 1_555 1_555
O21_9 Co8_9 1_555 1_555
O22_9 Co8_9 1_555 1_555
Co10_6 O11_10 1_555 1_555
Co12_5 O15_5 1_555 1_555
O15_5 C4_10 1_555 1_555
O18_6 C5_10 1_555 1_555
O21_5 C6_10 1_555 1_555
O23_6 C1_10 1_555 1_555
O11_10 C1_10 1_555 1_555
C1_10 C3_10 1_555 1_555
C3_10 C5_10 1_555 1_555
C5_10 C12_10 1_555 1_555
C6_10 C13_10 1_555 1_555
C12_10 H2_10 1_555 1_555
C13_10 C4_10 1_555 1_555
C16_10 C3_10 1_555 1_555
H4_10 C16_10 1_555 1_555
Co5 O3 1_555 1_555
O24 Co12_5 1_555 1_555
C6_10 C16_10 1_555 1_555
C12_10 C13_10 1_555 1_555
Co5 O5_4 1_555 1_555
O1_4 C2_10 1_555 1_555
O5_4 C11_10 1_555 1_555
O22_5 C7_10 1_555 1_555
O24 C7_10 1_555 1_555
O12_10 Co14_5 1_555 1_555
C2_10 C10_10 1_555 1_555
C7_10 C8_10 1_555 1_555
C8_10 C9_10 1_555 1_555
C9_10 H1_10 1_555 1_555
C10_10 C11_10 1_555 1_555
C11_10 C9_10 1_555 1_555
C14_10 C10_10 1_555 1_555
H3_10 C14_10 1_555 1_555
C15_10 O9_10 1_555 1_555
Co6_4 O1_4 1_555 1_555
Co7_4 O1_4 1_555 1_555
O13_4 Co5 1_555 1_555
O14_4 Co5 1_555 1_555
O19_7 Co5 1_555 1_555
Co14_5 O9_10 1_555 1_555
O5_4 Co7_4 1_555 1_555
C8_10 C15_10 1_555 1_555
C14_10 C15_10 1_555 1_555
Co7_4 O13_4 1_555 1_555
Co10_4 O11_11 1_555 1_555
Co12_6 O15_6 1_555 1_555
O15_6 C4_11 1_555 1_555
O18_4 C5_11 1_555 1_555
O21_6 C6_11 1_555 1_555
O23_4 C1_11 1_555 1_555
O11_11 C1_11 1_555 1_555
C1_11 C3_11 1_555 1_555
C3_11 C5_11 1_555 1_555
C5_11 C12_11 1_555 1_555
C6_11 C13_11 1_555 1_555
C12_11 H2_11 1_555 1_555
C13_11 C4_11 1_555 1_555
C16_11 C3_11 1_555 1_555
H4_11 C16_11 1_555 1_555
Co5_2 O3_2 1_555 1_555
O24_2 Co12_6 1_555 1_555
C6_11 C16_11 1_555 1_555
C12_11 C13_11 1_555 1_555
Co5_2 O5_5 1_555 1_555
O1_5 C2_11 1_555 1_555
O5_5 C11_11 1_555 1_555
O22_6 C7_11 1_555 1_555
O24_2 C7_11 1_555 1_555
O12_11 Co14_6 1_555 1_555
C2_11 C10_11 1_555 1_555
C7_11 C8_11 1_555 1_555
C8_11 C9_11 1_555 1_555
C9_11 H1_11 1_555 1_555
C10_11 C11_11 1_555 1_555
C11_11 C9_11 1_555 1_555
C14_11 C10_11 1_555 1_555
H3_11 C14_11 1_555 1_555
C15_11 O9_11 1_555 1_555
Co7_5 O1_5 1_555 1_555
O14_5 Co5_2 1_555 1_555
Co14_6 O9_11 1_555 1_555
O5_5 Co7_5 1_555 1_555
C8_11 C15_11 1_555 1_555
C14_11 C15_11 1_555 1_555
Co10_5 O11_12 1_555 1_555
Co12_4 O15_4 1_555 1_555
O15_4 C4_12 1_555 1_555
O18_5 C5_12 1_555 1_555
O21_4 C6_12 1_555 1_555
O23_5 C1_12 1_555 1_555
O11_12 C1_12 1_555 1_555
C1_12 C3_12 1_555 1_555
C3_12 C5_12 1_555 1_555
C5_12 C12_12 1_555 1_555
C6_12 C13_12 1_555 1_555
C12_12 H2_12 1_555 1_555
C13_12 C4_12 1_555 1_555
C16_12 C3_12 1_555 1_555
H4_12 C16_12 1_555 1_555
Co5_3 O3_3 1_555 1_555
O24_3 Co12_4 1_555 1_555
C6_12 C16_12 1_555 1_555
C12_12 C13_12 1_555 1_555
Co5_3 O5_6 1_555 1_555
O1_6 C2_12 1_555 1_555
O5_6 C11_12 1_555 1_555
O22_4 C7_12 1_555 1_555
O24_3 C7_12 1_555 1_555
O12_12 Co14_4 1_555 1_555
C2_12 C10_12 1_555 1_555
C7_12 C8_12 1_555 1_555
C8_12 C9_12 1_555 1_555
C9_12 H1_12 1_555 1_555
C10_12 C11_12 1_555 1_555
C11_12 C9_12 1_555 1_555
C14_12 C10_12 1_555 1_555
H3_12 C14_12 1_555 1_555
C15_12 O9_12 1_555 1_555
Co7_6 O1_6 1_555 1_555
O14_6 Co5_3 1_555 1_555
Co14_4 O9_12 1_555 1_555
O5_6 Co7_6 1_555 1_555
C8_12 C15_12 1_555 1_555
C14_12 C15_12 1_555 1_555
Co10_3 O11_13 1_555 1_555
O21_2 C6_13 1_555 1_555
O23_3 C1_13 1_555 1_555
O11_13 C1_13 1_555 1_555
C1_13 C3_13 1_555 1_555
C16_13 C3_13 1_555 1_555
H4_13 C16_13 1_555 1_555
C6_13 C16_13 1_555 1_555
Co12_2 O15_2 1_555 1_555
O13_5 C2_13 1_555 1_555
O15_2 C4_13 1_555 1_555
O3_4 C2_13 1_555 1_555
O18_3 C5_13 1_555 1_555
O19_8 C11_13 1_555 1_555
O22_2 C7_13 1_555 1_555
O9_13 Co12_2 1_555 1_555
O12_13 Co14_2 1_555 1_555
C2_13 C10_13 1_555 1_555
C4_13 O12_13 1_555 1_555
C5_13 C12_13 1_555 1_555
C7_13 C8_13 1_555 1_555
C8_13 C9_13 1_555 1_555
C9_13 H1_13 1_555 1_555
C10_13 C11_13 1_555 1_555
C11_13 C9_13 1_555 1_555
C12_13 H2_13 1_555 1_555
C13_13 C4_13 1_555 1_555
C14_13 C10_13 1_555 1_555
H3_13 C14_13 1_555 1_555
C15_13 O9_13 1_555 1_555
Co6_5 O3_4 1_555 1_555
O24_4 Co12_2 1_555 1_555
Co14_2 O9_13 1_555 1_555
C8_13 C15_13 1_555 1_555
C12_13 C13_13 1_555 1_555
C14_13 C15_13 1_555 1_555
O19_10 Co6_5 1_555 1_555
Co10 O11_14 1_555 1_555
O21_3 C6_14 1_555 1_555
O23 C1_14 1_555 1_555
O11_14 C1_14 1_555 1_555
C1_14 C3_14 1_555 1_555
C16_14 C3_14 1_555 1_555
H4_14 C16_14 1_555 1_555
C6_14 C16_14 1_555 1_555
Co12_3 O15_3 1_555 1_555
O13_6 C2_14 1_555 1_555
O15_3 C4_14 1_555 1_555
O3_5 C2_14 1_555 1_555
O18 C5_14 1_555 1_555
O19_9 C11_14 1_555 1_555
O22_3 C7_14 1_555 1_555
O9_14 Co12_3 1_555 1_555
O12_14 Co14_3 1_555 1_555
C2_14 C10_14 1_555 1_555
C4_14 O12_14 1_555 1_555
C5_14 C12_14 1_555 1_555
C7_14 C8_14 1_555 1_555
C8_14 C9_14 1_555 1_555
C9_14 H1_14 1_555 1_555
C10_14 C11_14 1_555 1_555
C11_14 C9_14 1_555 1_555
C12_14 H2_14 1_555 1_555
C13_14 C4_14 1_555 1_555
C14_14 C10_14 1_555 1_555
H3_14 C14_14 1_555 1_555
C15_14 O9_14 1_555 1_555
Co6_6 O3_5 1_555 1_555
O24_5 Co12_3 1_555 1_555
Co14_3 O9_14 1_555 1_555
C8_14 C15_14 1_555 1_555
C12_14 C13_14 1_555 1_555
C14_14 C15_14 1_555 1_555
O19_11 Co6_6 1_555 1_555
Co10_2 O11_15 1_555 1_555
O21 C6_15 1_555 1_555
O23_2 C1_15 1_555 1_555
O11_15 C1_15 1_555 1_555
C1_15 C3_15 1_555 1_555
C16_15 C3_15 1_555 1_555
H4_15 C16_15 1_555 1_555
C6_15 C16_15 1_555 1_555
Co12 O15 1_555 1_555
O13_4 C2_15 1_555 1_555
O15 C4_15 1_555 1_555
O3_6 C2_15 1_555 1_555
O18_2 C5_15 1_555 1_555
O19_7 C11_15 1_555 1_555
O22 C7_15 1_555 1_555
O9_15 Co12 1_555 1_555
O12_15 Co14 1_555 1_555
C2_15 C10_15 1_555 1_555
C4_15 O12_15 1_555 1_555
C5_15 C12_15 1_555 1_555
C7_15 C8_15 1_555 1_555
C8_15 C9_15 1_555 1_555
C9_15 H1_15 1_555 1_555
C10_15 C11_15 1_555 1_555
C11_15 C9_15 1_555 1_555
C12_15 H2_15 1_555 1_555
C13_15 C4_15 1_555 1_555
C14_15 C10_15 1_555 1_555
H3_15 C14_15 1_555 1_555
C15_15 O9_15 1_555 1_555
Co6_4 O3_6 1_555 1_555
O24_6 Co12 1_555 1_555
Co14 O9_15 1_555 1_555
C8_15 C15_15 1_555 1_555
C12_15 C13_15 1_555 1_555
C14_15 C15_15 1_555 1_555
O19_12 Co6_4 1_555 1_555
Co12_8 O15_8 1_555 1_555
O14_6 C2_16 1_555 1_555
O15_8 C4_16 1_555 1_555
O3_7 C2_16 1_555 1_555
O18_9 C5_16 1_555 1_555
O21_8 C6_16 1_555 1_555
O23_9 C1_16 1_555 1_555
O9_16 Co12_8 1_555 1_555
O12_16 Co14_8 1_555 1_555
C1_16 C3_16 1_555 1_555
C2_16 C10_16 1_555 1_555
C3_16 C5_16 1_555 1_555
C4_16 O12_16 1_555 1_555
C5_16 C12_16 1_555 1_555
C6_16 C13_16 1_555 1_555
C12_16 H2_16 1_555 1_555
C13_16 C4_16 1_555 1_555
C14_16 C10_16 1_555 1_555
H3_16 C14_16 1_555 1_555
C15_16 O9_16 1_555 1_555
C16_16 C3_16 1_555 1_555
H4_16 C16_16 1_555 1_555
Co7_6 O3_7 1_555 1_555
Co14_8 O9_16 1_555 1_555
C6_16 C16_16 1_555 1_555
C12_16 C13_16 1_555 1_555
C14_16 C15_16 1_555 1_555
O22_8 C7_16 1_555 1_555
C7_16 C8_16 1_555 1_555
C8_16 C9_16 1_555 1_555
C11_16 C9_16 1_555 1_555
Co12_9 O15_9 1_555 1_555
O14_4 C2_17 1_555 1_555
O15_9 C4_17 1_555 1_555
O3_8 C2_17 1_555 1_555
O18_7 C5_17 1_555 1_555
O21_9 C6_17 1_555 1_555
O23_7 C1_17 1_555 1_555
O9_17 Co12_9 1_555 1_555
O12_17 Co14_9 1_555 1_555
C1_17 C3_17 1_555 1_555
C2_17 C10_17 1_555 1_555
C3_17 C5_17 1_555 1_555
C4_17 O12_17 1_555 1_555
C5_17 C12_17 1_555 1_555
C6_17 C13_17 1_555 1_555
C12_17 H2_17 1_555 1_555
C13_17 C4_17 1_555 1_555
C14_17 C10_17 1_555 1_555
H3_17 C14_17 1_555 1_555
C15_17 O9_17 1_555 1_555
C16_17 C3_17 1_555 1_555
H4_17 C16_17 1_555 1_555
Co7_4 O3_8 1_555 1_555
O24_8 Co12_9 1_555 1_555
Co14_9 O9_17 1_555 1_555
C6_17 C16_17 1_555 1_555
C12_17 C13_17 1_555 1_555
C14_17 C15_17 1_555 1_555
Co7_4 O19_12 1_555 1_555
O19_12 C11_17 1_555 1_555
O22_9 C7_17 1_555 1_555
O24_8 C7_17 1_555 1_555
C7_17 C8_17 1_555 1_555
C8_17 C9_17 1_555 1_555
C9_17 H1_17 1_555 1_555
C11_17 C9_17 1_555 1_555
Co10_8 O11_18 1_555 1_555
Co12_7 O15_7 1_555 1_555
O14_5 C2_18 1_555 1_555
O15_7 C4_18 1_555 1_555
O3_9 C2_18 1_555 1_555
O18_8 C5_18 1_555 1_555
O21_7 C6_18 1_555 1_555
O23_8 C1_18 1_555 1_555
O9_18 Co12_7 1_555 1_555
O12_18 Co14_7 1_555 1_555
C1_18 C3_18 1_555 1_555
C2_18 C10_18 1_555 1_555
C3_18 C5_18 1_555 1_555
C4_18 O12_18 1_555 1_555
C5_18 C12_18 1_555 1_555
C6_18 C13_18 1_555 1_555
C12_18 H2_18 1_555 1_555
C13_18 C4_18 1_555 1_555
C14_18 C10_18 1_555 1_555
H3_18 C14_18 1_555 1_555
C15_18 O9_18 1_555 1_555
C16_18 C3_18 1_555 1_555
H4_18 C16_18 1_555 1_555
Co7_5 O3_9 1_555 1_555
Co14_7 O9_18 1_555 1_555
C6_18 C16_18 1_555 1_555
C12_18 C13_18 1_555 1_555
C14_18 C15_18 1_555 1_555
O22_7 C7_18 1_555 1_555
C7_18 C8_18 1_555 1_555
C8_18 C9_18 1_555 1_555
C11_18 C9_18 1_555 1_555

#END
