
###############################################################################
#
# This file contains modified crystal structure data generated from the
# MOF subset of the Cambridge Structural Database (CSD) v543 
# hosted by the Cambridge Crystallographic Data Centre (CCDC).
#
# This work is licensed under the Creative Commons
# Attribution-NonCommercial-ShareAlike 4.0 International License.
# To view a copy of this license, visit
# http://creativecommons.org/licenses/by-nc-sa/4.0/
# or send a letter to
# Creative Commons, PO Box 1866, Mountain View, CA 94042, USA.
#
# CIF created using the CSD Python API on 29 September 2022
# The structure has been converted into the P1 space group
# The structure has a 3D framework
# The original CSD entry SICZIP is in the orthorhombic crystal system
# The original CSD entry SICZIP is in a Sohncke space group
# The framework has been calculated to contain at least 10.0% void space
# The void calculation uses a probe of radius 1.32A, grid spacing 0.4
# H atom positions have been added when not included in the experimental data
#
###############################################################################

data_SICZIP
_chemical_formula_moiety         '(C208 H84 Cd8 O77 P4)n'
_symmetry_cell_setting           triclinic
_symmetry_space_group_name_H-M   'P 1'
_symmetry_Int_Tables_number      1
_space_group_name_Hall           'P 1'
loop_
_symmetry_equiv_pos_site_id
_symmetry_equiv_pos_as_xyz
1 x,y,z
_cell_length_a                   17.4396(10)
_cell_length_b                   22.4040(15)
_cell_length_c                   29.2728(18)
_cell_angle_alpha                90
_cell_angle_beta                 90
_cell_angle_gamma                90
_cell_volume                     11437.4
loop_
_atom_site_label
_atom_site_type_symbol
_atom_site_fract_x
_atom_site_fract_y
_atom_site_fract_z
Cd2 Cd 0.842418(13) 0.772001(11) 0.065295(8)
P1 P 0.36249(6) 0.59629(6) 0.40439(3)
O1 O 0.78216(12) 0.62996(12) 0.43791(8)
O3 O 0.77212(13) 0.68600(11) 0.49775(10)
O4 O 0.44438(14) 0.79898(10) 0.47648(8)
C1 C 0.42021(16) 0.62095(17) 0.30207(9)
C2 C 0.33578(17) 0.61643(17) 0.29566(10)
O7 O 0.40151(12) 0.65108(11) 0.37837(7)
O8 O 0.32747(12) 0.55780(10) 0.36300(7)
C3 C 0.12469(19) 0.73132(19) 0.05056(11)
H1 H 0.1034 0.7357 0.0216
O9 O 0.77609(14) 0.70885(11) 0.11293(8)
O10 O 0.60584(18) 0.42667(12) 0.06430(9)
C4 C 0.6632(2) 0.51714(15) 0.08543(10)
O11 O 0.81261(16) 0.65809(14) 0.05240(9)
C5 C 0.6184(2) 0.52417(14) 0.12498(9)
H2 H 0.5826 0.4951 0.1326
C6 C 0.62673(18) 0.57336(15) 0.15244(10)
O12 O 0.11290(17) 0.36870(11) 0.44189(10)
C7 C 0.63585(16) 0.66125(14) 0.40632(10)
H3 H 0.6631 0.6327 0.3899
C8 C 0.2542(2) 0.7244(2) 0.01307(14)
C9 C 0.67851(17) 0.61669(16) 0.14067(10)
H4 H 0.6831 0.6502 0.1592
O13 O 0.19142(16) 0.36023(12) 0.38549(10)
C10 C 0.1092(2) 0.7206(2) 0.13077(11)
H5 H 0.0773 0.7195 0.1562
C11 C 0.6531(2) 0.46428(16) 0.05543(11)
O15 O 0.32450(13) 0.72802(15) 0.01801(9)
C12 C 0.72386(18) 0.61241(16) 0.10255(11)
C13 C 0.71669(19) 0.56219(16) 0.07460(11)
H6 H 0.7473 0.5584 0.0487
C14 C 0.57824(17) 0.64315(15) 0.31135(10)
H7 H 0.6303 0.6511 0.3143
C15 C 0.55037(16) 0.62000(17) 0.27012(10)
C16 C 0.10161(17) 0.57203(16) 0.37595(10)
H8 H 0.0899 0.6112 0.3681
C17 C 0.52353(17) 0.72261(16) 0.41628(10)
H9 H 0.4751 0.7350 0.4069
O17 O 0.69488(16) 0.45899(13) 0.02034(9)
O18 O 0.4215(2) 0.55597(17) 0.42612(11)
C18 C 0.16392(18) 0.54519(15) 0.35593(10)
C19 C 0.20305(18) 0.72316(19) 0.05496(11)
C20 C 0.17839(17) 0.48593(16) 0.36661(11)
H10 H 0.2191 0.4663 0.3527
C21 C 0.66826(16) 0.68557(14) 0.44511(10)
C22 C 0.07785(18) 0.73302(19) 0.08836(12)
C23 C 0.56275(16) 0.67840(15) 0.39087(10)
O19 O 0.29969(19) 0.62402(18) 0.43153(11)
C24 C 0.07353(18) 0.48408(16) 0.41789(11)
H11 H 0.0441 0.4637 0.4393
C25 C 0.57397(18) 0.58197(16) 0.19307(10)
C26 C 0.45151(18) 0.64148(14) 0.34244(10)
C27 C 0.62884(17) 0.72971(16) 0.46973(11)
H12 H 0.6506 0.7469 0.4956
C28 C 0.60115(17) 0.60713(14) 0.23297(10)
H13 H 0.6531 0.6158 0.2358
C29 C 0.44596(18) 0.57750(19) 0.22460(11)
H14 H 0.3949 0.5660 0.2221
C30 C 0.53013(16) 0.65441(15) 0.34774(10)
C31 C 0.13368(18) 0.45597(15) 0.39734(10)
C32 C 0.05585(18) 0.54294(15) 0.40718(11)
C34 C 0.21723(18) 0.63829(19) 0.25233(11)
C35 C 0.55580(17) 0.74748(15) 0.45451(12)
C37 C 0.74575(18) 0.66603(16) 0.46123(11)
C38 C 0.47221(17) 0.60628(16) 0.26531(10)
C39 C 0.17564(18) 0.60471(17) 0.28458(11)
H15 H 0.1231 0.5998 0.2806
C40 C 0.3355(2) 0.68494(18) 0.22868(12)
H16 H 0.3860 0.6959 0.2345
C41 C 0.29915(18) 0.64657(18) 0.25879(11)
C42 C 0.5137(2) 0.79602(18) 0.48076(14)
C43 C 0.23394(19) 0.71324(19) 0.09682(12)
H17 H 0.2868 0.7088 0.0995
C44 C 0.18223(19) 0.6608(2) 0.21204(12)
H18 H 0.1305 0.6535 0.2069
C45 C 0.29163(17) 0.58503(16) 0.32651(10)
C46 C 0.77528(18) 0.66320(19) 0.08837(12)
C47 C 0.21056(17) 0.57903(16) 0.32188(11)
C48 C 0.49519(19) 0.56678(18) 0.18941(11)
H19 H 0.4770 0.5493 0.1627
C49 C 0.2226(2) 0.6928(2) 0.18094(12)
C50 C 0.29962(19) 0.7075(2) 0.19033(13)
H20 H 0.3264 0.7325 0.1706
O20 O 0.5519(2) 0.8331(2) 0.50081(19)
C51 C 0.18773(18) 0.7094(2) 0.13647(12)
C52 C 0.1479(2) 0.39098(15) 0.40889(13)
Cd3 Cd 0.883911(11) 0.622325(9) 0.492078(7)
Cd5 Cd 0.383911(11) 0.877675(9) 0.507922(7)
Cd8 Cd 0.157582(13) 0.272001(11) 0.434705(8)
O22 O 0.72409(14) 0.78282(14) 0.02558(8)
O25 O 0.95472(13) 0.75246(14) 0.11866(9)
O27 O 0.88710(17) 0.86870(11) 0.05811(10)
O28 O 0.80858(16) 0.86023(12) 0.11451(10)
O29 O 0.96649(13) 0.74466(12) 0.04471(9)
H21 H 0.45212 0.579098 0.448584
O2 O 0.22409(14) 0.71718(14) 0.97442(8)
Cd4 Cd 0.616089(11) 0.377675(9) 0.992078(7)
Cd7 Cd 0.342418(13) 0.727999(11) 0.934705(8)
O30 O 0.82450(13) 0.77198(15) 0.98199(9)
O5 O 0.96437(16) 0.61988(16) 0.41441(11)
O16 O 0.96244(15) 0.55118(12) 0.46518(9)
C33 C 0.99372(19) 0.74343(16) 0.08383(13)
C36 C 0.98900(18) 0.57464(16) 0.43030(13)
O24 O 0.94438(14) 0.70102(10) 0.52352(8)
O26 O 0.89416(18) 0.57333(12) 0.56430(9)
O31 O 0.80512(16) 0.54101(13) 0.52034(9)
Cd5_2 Cd 0.116089(11) 0.122325(9) 0.007922(7)
O24_2 O 0.55562(14) 0.29898(10) 0.02352(8)
P1_2 P 0.13751(6) 0.40371(6) 0.90439(3)
O2_2 O 0.27591(14) 0.28282(14) 0.47442(8)
O4_2 O 0.05562(14) 0.20102(10) 0.97648(8)
C1_2 C 0.07979(16) 0.37905(17) 0.80207(9)
O5_2 O 0.53563(16) 0.38012(16) 0.91441(11)
C2_2 C 0.16422(17) 0.38357(17) 0.79566(10)
O6 O 0.54528(13) 0.24754(14) 0.61866(9)
O7_2 O 0.09849(12) 0.34892(11) 0.87837(7)
O8_2 O 0.17253(12) 0.44220(10) 0.86300(7)
C3_2 C 0.37531(19) 0.26868(19) 0.55056(11)
H1_2 H 0.3966 0.2643 0.5216
O12_2 O 0.38710(17) 0.63130(11) 0.94189(10)
C8_2 C 0.2458(2) 0.2756(2) 0.51307(14)
O13_2 O 0.30858(16) 0.63977(12) 0.88549(10)
O14 O 0.53351(13) 0.25534(12) 0.54471(9)
C10_2 C 0.3908(2) 0.2794(2) 0.63077(11)
H5_2 H 0.4227 0.2805 0.6562
O15_2 O 0.17550(13) 0.27198(15) 0.51801(9)
O16_2 O 0.53756(15) 0.44882(12) 0.96518(9)
C16_2 C 0.39839(17) 0.42797(16) 0.87595(10)
H8_2 H 0.4101 0.3888 0.8681
H9_2 H 0.0249 0.2650 0.9069
O18_2 O 0.0785(2) 0.44403(17) 0.92612(11)
C18_2 C 0.33608(18) 0.45481(15) 0.85593(10)
C19_2 C 0.29695(18) 0.27684(19) 0.55496(11)
C20_2 C 0.32161(17) 0.51407(16) 0.86661(11)
H10_2 H 0.2809 0.5337 0.8527
C22_2 C 0.42215(18) 0.26698(19) 0.58836(12)
O19_2 O 0.20031(19) 0.37598(18) 0.93153(11)
C24_2 C 0.42647(18) 0.51592(16) 0.91789(11)
H11_2 H 0.4559 0.5363 0.9393
C26_2 C 0.04849(18) 0.35852(14) 0.84244(10)
C29_2 C 0.05404(18) 0.42250(19) 0.72460(11)
H14_2 H 0.1051 0.4340 0.7221
C31_2 C 0.36632(18) 0.54403(15) 0.89734(10)
C32_2 C 0.44415(18) 0.45706(15) 0.90718(11)
C33_2 C 0.50628(19) 0.25657(16) 0.58383(13)
C34_2 C 0.28277(18) 0.36171(19) 0.75233(11)
C36_2 C 0.51100(18) 0.42536(16) 0.93030(13)
C38_2 C 0.02779(17) 0.39372(16) 0.76531(10)
C39_2 C 0.32436(18) 0.39529(17) 0.78458(11)
H15_2 H 0.3769 0.4002 0.7806
C40_2 C 0.1645(2) 0.31506(18) 0.72868(12)
H16_2 H 0.1140 0.3041 0.7345
C41_2 C 0.20085(18) 0.35343(18) 0.75879(11)
C43_2 C 0.26606(19) 0.28676(19) 0.59682(12)
H17_2 H 0.2132 0.2912 0.5995
C44_2 C 0.31777(19) 0.3392(2) 0.71204(12)
H18_2 H 0.3695 0.3465 0.7069
C45_2 C 0.20837(17) 0.41497(16) 0.82651(10)
C47_2 C 0.28944(17) 0.42097(16) 0.82188(11)
C48_2 C 0.00481(19) 0.43322(18) 0.68941(11)
H19_2 H 0.0230 0.4507 0.6627
C49_2 C 0.2774(2) 0.3072(2) 0.68094(12)
C50_2 C 0.20038(19) 0.2925(2) 0.69033(13)
H20_2 H 0.1736 0.2675 0.6706
C51_2 C 0.31227(18) 0.2906(2) 0.63647(12)
C52_2 C 0.3521(2) 0.60902(15) 0.90889(13)
Cd6 Cd 0.657582(13) 0.227999(11) 0.565295(8)
O21 O 0.71784(12) 0.37004(12) 0.93791(8)
O23 O 0.72788(13) 0.31400(11) 0.99775(10)
H21_2 H 0.0478801 0.420902 0.948584
O9_2 O 0.72391(14) 0.29115(11) 0.61293(8)
C4_2 C 0.8368(2) 0.48286(15) 0.58543(10)
O11_2 O 0.68739(16) 0.34191(14) 0.55240(9)
C5_2 C 0.8816(2) 0.47583(14) 0.62498(9)
H2_2 H 0.9174 0.5049 0.6326
C6_2 C 0.87327(18) 0.42664(15) 0.65244(10)
C7_2 C 0.86415(16) 0.33875(14) 0.90632(10)
H3_2 H 0.8369 0.3673 0.8899
C9_2 C 0.82149(17) 0.38331(16) 0.64067(10)
H4_2 H 0.8169 0.3498 0.6592
C11_2 C 0.8469(2) 0.53572(16) 0.55543(11)
C12_2 C 0.77614(18) 0.38759(16) 0.60255(11)
C13_2 C 0.78331(19) 0.43781(16) 0.57460(11)
H6_2 H 0.7527 0.4416 0.5487
C14_2 C 0.92176(17) 0.35685(15) 0.81135(10)
H7_2 H 0.8697 0.3489 0.8143
C15_2 C 0.94963(16) 0.38000(17) 0.77012(10)
C17_2 C 0.97647(17) 0.27739(16) 0.91628(10)
C21_2 C 0.83174(16) 0.31443(14) 0.94511(10)
C23_2 C 0.93725(16) 0.32160(15) 0.89087(10)
C25_2 C 0.92603(18) 0.41803(16) 0.69307(10)
C27_2 C 0.87116(17) 0.27029(16) 0.96973(11)
H12_2 H 0.8494 0.2531 0.9956
C28_2 C 0.89885(17) 0.39287(14) 0.73297(10)
H13_2 H 0.8469 0.3842 0.7358
C30_2 C 0.96987(16) 0.34559(15) 0.84774(10)
C35_2 C 0.94420(17) 0.25252(15) 0.95451(12)
C37_2 C 0.75425(18) 0.33397(16) 0.96123(11)
C42_2 C 0.9863(2) 0.20398(18) 0.98076(14)
C46_2 C 0.72472(18) 0.33680(19) 0.58837(12)
O22_2 O 0.77591(14) 0.21718(14) 0.52558(8)
O27_2 O 0.61290(17) 0.13130(11) 0.55811(10)
O28_2 O 0.69142(16) 0.13977(12) 0.61451(10)
O30_2 O 0.67550(13) 0.22802(15) 0.48199(9)
O10_2 O 0.10584(18) 0.07333(12) 0.93570(9)
H2_3 H 0.0826 0.0049 0.8674
C11_3 C 0.1531(2) 0.03572(16) 0.94457(11)
O17_2 O 0.19488(16) 0.04101(13) 0.97966(9)
O1_2 O 0.28216(12) 0.87004(12) 0.56209(8)
O3_2 O 0.27212(13) 0.81400(11) 0.50225(10)
O9_3 O 0.27609(14) 0.79115(11) 0.88707(8)
C4_3 C 0.1632(2) 0.98286(15) 0.91457(10)
O11_3 O 0.31261(16) 0.84191(14) 0.94760(9)
C5_3 C 0.1184(2) 0.97583(14) 0.87502(9)
C6_3 C 0.12673(18) 0.92664(15) 0.84756(10)
C7_3 C 0.13585(16) 0.83875(14) 0.59368(10)
H3_3 H 0.1631 0.8673 0.6101
C9_3 C 0.17851(17) 0.88331(16) 0.85933(10)
H4_3 H 0.1831 0.8498 0.8408
C12_3 C 0.22386(18) 0.88759(16) 0.89745(11)
C13_3 C 0.21669(19) 0.93781(16) 0.92540(11)
H6_3 H 0.2473 0.9416 0.9513
C14_3 C 0.07824(17) 0.85685(15) 0.68865(10)
H7_3 H 0.1303 0.8489 0.6857
C15_3 C 0.05037(16) 0.88000(17) 0.72988(10)
C17_3 C 0.02353(17) 0.77739(16) 0.58372(10)
C21_3 C 0.16826(16) 0.81443(14) 0.55489(10)
C23_3 C 0.06275(16) 0.82160(15) 0.60913(10)
C25_3 C 0.07397(18) 0.91803(16) 0.80693(10)
C27_3 C 0.12884(17) 0.77029(16) 0.53027(11)
H12_3 H 0.1506 0.7531 0.5044
C28_3 C 0.10115(17) 0.89287(14) 0.76703(10)
H13_3 H 0.1531 0.8842 0.7642
C30_3 C 0.03013(16) 0.84559(15) 0.65226(10)
C35_3 C 0.05580(17) 0.75252(15) 0.54549(12)
C37_3 C 0.24575(18) 0.83397(16) 0.53877(11)
C42_3 C 0.0137(2) 0.70398(18) 0.51924(14)
C46_3 C 0.27528(18) 0.83680(19) 0.91163(12)
O20_2 O 0.0519(2) 0.6669(2) 0.49919(19)
O25_2 O 0.45472(13) 0.74754(14) 0.88134(9)
O29_2 O 0.46649(13) 0.75534(12) 0.95529(9)
C20_3 C 0.67839(17) 0.01407(16) 0.63339(11)
H10_3 H 0.7191 0.0337 0.6473
C24_3 C 0.57353(18) 0.01592(16) 0.58211(11)
H11_3 H 0.5441 0.0363 0.5607
C31_3 C 0.63368(18) 0.04403(15) 0.60266(10)
C52_3 C 0.6479(2) 0.10902(15) 0.59111(13)
P1_3 P 0.86249(6) 0.90371(6) 0.59561(3)
C1_3 C 0.92021(16) 0.87905(17) 0.69793(9)
O5_3 O 0.46437(16) 0.88012(16) 0.58559(11)
C2_3 C 0.83578(17) 0.88357(17) 0.70434(10)
O7_3 O 0.90151(12) 0.84892(11) 0.62163(7)
O8_3 O 0.82747(12) 0.94220(10) 0.63700(7)
C3_3 C 0.62469(19) 0.76868(19) 0.94944(11)
H1_3 H 0.6034 0.7643 0.9784
C8_3 C 0.7542(2) 0.7756(2) 0.98693(14)
C10_3 C 0.6092(2) 0.7794(2) 0.86923(11)
H5_3 H 0.5773 0.7805 0.8438
O16_3 O 0.46244(15) 0.94882(12) 0.53482(9)
C16_3 C 0.60161(17) 0.92797(16) 0.62405(10)
H8_3 H 0.5899 0.8888 0.6319
H9_3 H 0.9751 0.7650 0.5931
O18_3 O 0.9215(2) 0.94403(17) 0.57388(11)
C18_3 C 0.66392(18) 0.95481(15) 0.64407(10)
C19_3 C 0.70305(18) 0.77684(19) 0.94504(11)
C22_3 C 0.57785(18) 0.76698(19) 0.91164(12)
O19_3 O 0.79969(19) 0.87598(18) 0.56847(11)
C26_3 C 0.95151(18) 0.85852(14) 0.65756(10)
C29_3 C 0.94596(18) 0.92250(19) 0.77540(11)
H14_3 H 0.8949 0.9340 0.7779
C32_3 C 0.55585(18) 0.95706(15) 0.59282(11)
C33_3 C 0.49372(19) 0.75657(16) 0.91617(13)
C34_3 C 0.71723(18) 0.86171(19) 0.74767(11)
C36_3 C 0.48900(18) 0.92536(16) 0.56970(13)
C38_3 C 0.97221(17) 0.89372(16) 0.73469(10)
C39_3 C 0.67564(18) 0.89529(17) 0.71542(11)
H15_3 H 0.6231 0.9002 0.7194
C40_3 C 0.8355(2) 0.81506(18) 0.77132(12)
H16_3 H 0.8860 0.8041 0.7655
C41_3 C 0.79915(18) 0.85343(18) 0.74121(11)
C43_3 C 0.73394(19) 0.78676(19) 0.90318(12)
H17_3 H 0.7868 0.7912 0.9005
C44_3 C 0.68223(19) 0.8392(2) 0.78796(12)
H18_3 H 0.6305 0.8465 0.7931
C45_3 C 0.79163(17) 0.91497(16) 0.67349(10)
C47_3 C 0.71056(17) 0.92097(16) 0.67812(11)
C48_3 C 0.99519(19) 0.93322(18) 0.81059(11)
H19_3 H 0.9770 0.9507 0.8373
C49_3 C 0.7226(2) 0.8072(2) 0.81906(12)
C50_3 C 0.79962(19) 0.7925(2) 0.80967(13)
H20_3 H 0.8264 0.7675 0.8294
C51_3 C 0.68773(18) 0.7906(2) 0.86353(12)
O26_2 O 0.39416(18) 0.92667(12) 0.43570(9)
O31_2 O 0.30512(16) 0.95899(13) 0.47966(9)
H21_3 H 0.95212 0.920902 0.551416
O5_4 O 0.03563(16) 0.11988(16) 0.08559(11)
O6_2 O 0.04528(13) 0.25246(14) 0.38134(9)
O14_2 O 0.03351(13) 0.24466(12) 0.45529(9)
O16_4 O 0.03756(15) 0.05118(12) 0.03482(9)
C33_4 C 0.00628(19) 0.24343(16) 0.41617(13)
C36_4 C 0.01100(18) 0.07464(16) 0.06970(13)
O21_2 O 0.21784(12) 0.12996(12) 0.06209(8)
O23_2 O 0.22788(13) 0.18600(11) 0.00225(10)
P1_4 P 0.63751(6) 0.09629(6) 0.09561(3)
C1_4 C 0.57979(16) 0.12095(17) 0.19793(9)
C2_4 C 0.66422(17) 0.11643(17) 0.20434(10)
O7_4 O 0.59849(12) 0.15108(11) 0.12163(7)
O8_4 O 0.67253(12) 0.05780(10) 0.13700(7)
C3_4 C 0.87531(19) 0.23132(19) 0.44944(11)
H1_4 H 0.8966 0.2357 0.4784
O9_4 O 0.22391(14) 0.20885(11) 0.38707(8)
C4_4 C 0.3368(2) 0.01714(15) 0.41457(10)
O11_4 O 0.18739(16) 0.15809(14) 0.44760(9)
C5_4 C 0.3816(2) 0.02417(14) 0.37502(9)
C6_4 C 0.37327(18) 0.07336(15) 0.34756(10)
C7_4 C 0.36415(16) 0.16125(14) 0.09368(10)
H3_4 H 0.3369 0.1327 0.1101
C8_4 C 0.7458(2) 0.2244(2) 0.48693(14)
C9_4 C 0.32149(17) 0.11669(16) 0.35933(10)
H4_4 H 0.3169 0.1502 0.3408
C10_4 C 0.8908(2) 0.2206(2) 0.36923(11)
H5_4 H 0.9227 0.2195 0.3438
C12_4 C 0.27614(18) 0.11241(16) 0.39745(11)
C13_4 C 0.28331(19) 0.06219(16) 0.42540(11)
H6_4 H 0.2527 0.0584 0.4513
C14_4 C 0.42176(17) 0.14315(15) 0.18865(10)
H7_4 H 0.3697 0.1511 0.1857
C15_4 C 0.44963(16) 0.12000(17) 0.22988(10)
C16_4 C 0.89839(17) 0.07203(16) 0.12405(10)
H8_4 H 0.9101 0.1112 0.1319
C17_4 C 0.47647(17) 0.22261(16) 0.08372(10)
H9_4 H 0.5249 0.2350 0.0931
O18_4 O 0.5785(2) 0.05597(17) 0.07388(11)
C18_4 C 0.83608(18) 0.04519(15) 0.14407(10)
C19_4 C 0.79695(18) 0.22316(19) 0.44504(11)
C21_4 C 0.33174(16) 0.18557(14) 0.05489(10)
C22_4 C 0.92215(18) 0.23302(19) 0.41164(12)
C23_4 C 0.43725(16) 0.17840(15) 0.10913(10)
O19_4 O 0.70031(19) 0.12402(18) 0.06847(11)
C25_4 C 0.42603(18) 0.08197(16) 0.30693(10)
C26_4 C 0.54849(18) 0.14148(14) 0.15756(10)
C27_4 C 0.37116(17) 0.22971(16) 0.03027(11)
H12_4 H 0.3494 0.2469 0.0044
C28_4 C 0.39885(17) 0.10713(14) 0.26703(10)
H13_4 H 0.3469 0.1158 0.2642
C29_4 C 0.55404(18) 0.07750(19) 0.27540(11)
H14_4 H 0.6051 0.0660 0.2779
C30_4 C 0.46987(16) 0.15441(15) 0.15226(10)
C32_4 C 0.94415(18) 0.04294(15) 0.09282(11)
C34_4 C 0.78277(18) 0.13829(19) 0.24767(11)
C35_4 C 0.44420(17) 0.24748(15) 0.04549(12)
C37_4 C 0.25425(18) 0.16603(16) 0.03877(11)
C38_4 C 0.52779(17) 0.10628(16) 0.23469(10)
C39_4 C 0.82436(18) 0.10471(17) 0.21542(11)
H15_4 H 0.8769 0.0998 0.2194
C40_4 C 0.6645(2) 0.18494(18) 0.27132(12)
H16_4 H 0.6140 0.1959 0.2655
C41_4 C 0.70085(18) 0.14657(18) 0.24121(11)
C42_4 C 0.4863(2) 0.29602(18) 0.01924(14)
C43_4 C 0.76606(19) 0.21324(19) 0.40318(12)
H17_4 H 0.7132 0.2088 0.4005
C44_4 C 0.81777(19) 0.1608(2) 0.28796(12)
H18_4 H 0.8695 0.1535 0.2931
C45_4 C 0.70837(17) 0.08503(16) 0.17349(10)
C46_4 C 0.22472(18) 0.16320(19) 0.41163(12)
C47_4 C 0.78944(17) 0.07903(16) 0.17812(11)
C48_4 C 0.50481(19) 0.06678(18) 0.31059(11)
H19_4 H 0.5230 0.0493 0.3373
C49_4 C 0.7774(2) 0.1928(2) 0.31906(12)
C50_4 C 0.70038(19) 0.2075(2) 0.30967(13)
H20_4 H 0.6736 0.2325 0.3294
C51_4 C 0.81227(18) 0.2094(2) 0.36353(12)
H21_4 H 0.54788 0.0790977 0.0514162
O20_3 O 0.4481(2) 0.3331(2) 0.99919(19)
H2_4 H 0.4174 0.9951 0.3674
C11_4 C 0.3469(2) 0.96428(16) 0.44457(11)
C20_4 C 0.82161(17) 0.98593(16) 0.13339(11)
H10_4 H 0.7809 0.9663 0.1473
C24_4 C 0.92647(18) 0.98408(16) 0.08211(11)
H11_4 H 0.9559 0.9637 0.0607
C31_4 C 0.86632(18) 0.95597(15) 0.10266(10)
C52_4 C 0.8521(2) 0.89098(15) 0.09111(13)
O20_4 O 0.9481(2) 0.1669(2) 0.00081(19)
loop_
_geom_bond_atom_site_label_1
_geom_bond_atom_site_label_2
_geom_bond_site_symmetry_1
_geom_bond_site_symmetry_2
Cd2 O9 1_555 1_555
P1 O7 1_555 1_555
O1 C37 1_555 1_555
O3 C37 1_555 1_555
O4 C42 1_555 1_555
C1 C2 1_555 1_555
C2 C41 1_555 1_555
O7 C26 1_555 1_555
O8 P1 1_555 1_555
C3 H1 1_555 1_555
O9 C46 1_555 1_555
O10 C11 1_555 1_555
C4 C5 1_555 1_555
O11 Cd2 1_555 1_555
C5 H2 1_555 1_555
C6 C5 1_555 1_555
O12 C52 1_555 1_555
C7 H3 1_555 1_555
C8 O15 1_555 1_555
C9 C6 1_555 1_555
H4 C9 1_555 1_555
O13 C52 1_555 1_555
C10 H5 1_555 1_555
C11 C4 1_555 1_555
C12 C9 1_555 1_555
C13 C4 1_555 1_555
H6 C13 1_555 1_555
C14 H7 1_555 1_555
C15 C14 1_555 1_555
C16 H8 1_555 1_555
C17 H9 1_555 1_555
O17 C11 1_555 1_555
O18 P1 1_555 1_555
C18 C16 1_555 1_555
C19 C3 1_555 1_555
C20 C18 1_555 1_555
H10 C20 1_555 1_555
C21 C7 1_555 1_555
C22 C3 1_555 1_555
C23 C7 1_555 1_555
O19 P1 1_555 1_555
C24 H11 1_555 1_555
C25 C6 1_555 1_555
C26 C1 1_555 1_555
C27 C21 1_555 1_555
H12 C27 1_555 1_555
C28 C15 1_555 1_555
H13 C28 1_555 1_555
C29 H14 1_555 1_555
C30 C14 1_555 1_555
C31 C20 1_555 1_555
C32 C16 1_555 1_555
C34 C39 1_555 1_555
C35 C17 1_555 1_555
C37 C21 1_555 1_555
C38 C1 1_555 1_555
C39 H15 1_555 1_555
C40 H16 1_555 1_555
C41 C34 1_555 1_555
C42 C35 1_555 1_555
C43 C19 1_555 1_555
H17 C43 1_555 1_555
C44 C34 1_555 1_555
H18 C44 1_555 1_555
C45 C2 1_555 1_555
C46 O11 1_555 1_555
C47 C18 1_555 1_555
C48 C25 1_555 1_555
H19 C48 1_555 1_555
C49 C44 1_555 1_555
C50 C40 1_555 1_555
H20 C50 1_555 1_555
O20 C42 1_555 1_555
C51 C10 1_555 1_555
C52 C31 1_555 1_555
Cd3 O1 1_555 1_555
Cd5 O4 1_555 1_555
Cd8 O12 1_555 1_555
O22 Cd2 1_555 1_555
O25 Cd2 1_555 1_555
O27 Cd2 1_555 1_555
O28 Cd2 1_555 1_555
O29 Cd2 1_555 1_555
O3 Cd3 1_555 1_555
O8 C45 1_555 1_555
C8 C19 1_555 1_555
O13 Cd8 1_555 1_555
C10 C22 1_555 1_555
C12 C13 1_555 1_555
C12 C46 1_555 1_555
C15 C38 1_555 1_555
C17 C23 1_555 1_555
C23 C30 1_555 1_555
C24 C31 1_555 1_555
C24 C32 1_555 1_555
C25 C28 1_555 1_555
C26 C30 1_555 1_555
C27 C35 1_555 1_555
C29 C38 1_555 1_555
C29 C48 1_555 1_555
C39 C47 1_555 1_555
C40 C41 1_555 1_555
C43 C51 1_555 1_555
C45 C47 1_555 1_555
C49 C50 1_555 1_555
C49 C51 1_555 1_555
O18 H21 1_555 1_555
Cd7 O2 1_555 1_555
Cd3 O5 1_555 1_555
O5 C36 1_555 1_555
O25 C33 1_555 1_555
O29 C33 1_555 1_555
O16 Cd3 1_555 1_555
C36 O16 1_555 1_555
O24 Cd3 1_555 1_555
O26 Cd3 1_555 1_555
O31 Cd3 1_555 1_555
Cd4 O5_2 1_555 1_555
P1_2 O7_2 1_555 1_555
O2_2 C8_2 1_555 1_555
C1_2 C2_2 1_555 1_555
O5_2 C36_2 1_555 1_555
C2_2 C41_2 1_555 1_555
O6 C33_2 1_555 1_555
O7_2 C26_2 1_555 1_555
O8_2 P1_2 1_555 1_555
C3_2 H1_2 1_555 1_555
O12_2 C52_2 1_555 1_555
C8_2 O15_2 1_555 1_555
O13_2 C52_2 1_555 1_555
O14 C33_2 1_555 1_555
C10_2 H5_2 1_555 1_555
O15_2 Cd8 1_555 1_555
O16_2 Cd4 1_555 1_555
C16_2 H8_2 1_555 1_555
O18_2 P1_2 1_555 1_555
C18_2 C16_2 1_555 1_555
C19_2 C3_2 1_555 1_555
C20_2 C18_2 1_555 1_555
H10_2 C20_2 1_555 1_555
C22_2 C3_2 1_555 1_555
O19_2 P1_2 1_555 1_555
C24_2 H11_2 1_555 1_555
C26_2 C1_2 1_555 1_555
C29_2 H14_2 1_555 1_555
C31_2 C20_2 1_555 1_555
C32_2 C16_2 1_555 1_555
C33_2 C22_2 1_555 1_555
C34_2 C39_2 1_555 1_555
C36_2 O16_2 1_555 1_555
C38_2 C1_2 1_555 1_555
C39_2 H15_2 1_555 1_555
C40_2 H16_2 1_555 1_555
C41_2 C34_2 1_555 1_555
C43_2 C19_2 1_555 1_555
H17_2 C43_2 1_555 1_555
C44_2 C34_2 1_555 1_555
H18_2 C44_2 1_555 1_555
C45_2 C2_2 1_555 1_555
C47_2 C18_2 1_555 1_555
H19_2 C48_2 1_555 1_555
C49_2 C44_2 1_555 1_555
C50_2 C40_2 1_555 1_555
H20_2 C50_2 1_555 1_555
C51_2 C10_2 1_555 1_555
C52_2 C31_2 1_555 1_555
Cd6 O6 1_555 1_555
Cd8 O2_2 1_555 1_555
Cd7 O12_2 1_555 1_555
O21 Cd4 1_555 1_555
O23 Cd4 1_555 1_555
O8_2 C45_2 1_555 1_555
C8_2 C19_2 1_555 1_555
O13_2 Cd7 1_555 1_555
O14 Cd6 1_555 1_555
C10_2 C22_2 1_555 1_555
C24_2 C31_2 1_555 1_555
C24_2 C32_2 1_555 1_555
C29_2 C38_2 1_555 1_555
C29_2 C48_2 1_555 1_555
C32_2 C36_2 1_555 1_555
C39_2 C47_2 1_555 1_555
C40_2 C41_2 1_555 1_555
C43_2 C51_2 1_555 1_555
C45_2 C47_2 1_555 1_555
C49_2 C50_2 1_555 1_555
C49_2 C51_2 1_555 1_555
O18_2 H21_2 1_555 1_555
Cd6 O9_2 1_555 1_555
O21 C37_2 1_555 1_555
O23 C37_2 1_555 1_555
O9_2 C46_2 1_555 1_555
O26 C11_2 1_555 1_555
C4_2 C5_2 1_555 1_555
O11_2 Cd6 1_555 1_555
C5_2 H2_2 1_555 1_555
C6_2 C5_2 1_555 1_555
C7_2 H3_2 1_555 1_555
C9_2 C6_2 1_555 1_555
H4_2 C9_2 1_555 1_555
C11_2 C4_2 1_555 1_555
C12_2 C9_2 1_555 1_555
C13_2 C4_2 1_555 1_555
H6_2 C13_2 1_555 1_555
C14_2 H7_2 1_555 1_555
C15_2 C14_2 1_555 1_555
O31 C11_2 1_555 1_555
C21_2 C7_2 1_555 1_555
C23_2 C7_2 1_555 1_555
C25_2 C6_2 1_555 1_555
C27_2 C21_2 1_555 1_555
H12_2 C27_2 1_555 1_555
C28_2 C15_2 1_555 1_555
H13_2 C28_2 1_555 1_555
C30_2 C14_2 1_555 1_555
C35_2 C17_2 1_555 1_555
C37_2 C21_2 1_555 1_555
C42_2 C35_2 1_555 1_555
C46_2 O11_2 1_555 1_555
O22_2 Cd6 1_555 1_555
O27_2 Cd6 1_555 1_555
O28_2 Cd6 1_555 1_555
O30_2 Cd6 1_555 1_555
C12_2 C13_2 1_555 1_555
C12_2 C46_2 1_555 1_555
C17_2 C23_2 1_555 1_555
C23_2 C30_2 1_555 1_555
C25_2 C28_2 1_555 1_555
C27_2 C35_2 1_555 1_555
O10_2 C11_3 1_555 1_555
O17_2 C11_3 1_555 1_555
Cd7 O9_3 1_555 1_555
O1_2 C37_3 1_555 1_555
O3_2 C37_3 1_555 1_555
O9_3 C46_3 1_555 1_555
C4_3 C5_3 1_555 1_555
O11_3 Cd7 1_555 1_555
C6_3 C5_3 1_555 1_555
C7_3 H3_3 1_555 1_555
C9_3 C6_3 1_555 1_555
H4_3 C9_3 1_555 1_555
C12_3 C9_3 1_555 1_555
C13_3 C4_3 1_555 1_555
H6_3 C13_3 1_555 1_555
C14_3 H7_3 1_555 1_555
C15_3 C14_3 1_555 1_555
C21_3 C7_3 1_555 1_555
C23_3 C7_3 1_555 1_555
C25_3 C6_3 1_555 1_555
C27_3 C21_3 1_555 1_555
H12_3 C27_3 1_555 1_555
C28_3 C15_3 1_555 1_555
H13_3 C28_3 1_555 1_555
C30_3 C14_3 1_555 1_555
C35_3 C17_3 1_555 1_555
C37_3 C21_3 1_555 1_555
C42_3 C35_3 1_555 1_555
C46_3 O11_3 1_555 1_555
O20_2 C42_3 1_555 1_555
Cd5 O1_2 1_555 1_555
O25_2 Cd7 1_555 1_555
O29_2 Cd7 1_555 1_555
O3_2 Cd5 1_555 1_555
C12_3 C13_3 1_555 1_555
C12_3 C46_3 1_555 1_555
C17_3 C23_3 1_555 1_555
C23_3 C30_3 1_555 1_555
C25_3 C28_3 1_555 1_555
C27_3 C35_3 1_555 1_555
O27_2 C52_3 1_555 1_555
O28_2 C52_3 1_555 1_555
H10_3 C20_3 1_555 1_555
C24_3 H11_3 1_555 1_555
C31_3 C20_3 1_555 1_555
C52_3 C31_3 1_555 1_555
C24_3 C31_3 1_555 1_555
Cd5 O5_3 1_555 1_555
P1_3 O7_3 1_555 1_555
C1_3 C2_3 1_555 1_555
O5_3 C36_3 1_555 1_555
C2_3 C41_3 1_555 1_555
O25_2 C33_3 1_555 1_555
O7_3 C26_3 1_555 1_555
O8_3 P1_3 1_555 1_555
C3_3 H1_3 1_555 1_555
C8_3 O30 1_555 1_555
O29_2 C33_3 1_555 1_555
C10_3 H5_3 1_555 1_555
O16_3 Cd5 1_555 1_555
C16_3 H8_3 1_555 1_555
O18_3 P1_3 1_555 1_555
C18_3 C16_3 1_555 1_555
C19_3 C3_3 1_555 1_555
C22_3 C3_3 1_555 1_555
O19_3 P1_3 1_555 1_555
C26_3 C1_3 1_555 1_555
C29_3 H14_3 1_555 1_555
C32_3 C16_3 1_555 1_555
C33_3 C22_3 1_555 1_555
C34_3 C39_3 1_555 1_555
C36_3 O16_3 1_555 1_555
C38_3 C1_3 1_555 1_555
C39_3 H15_3 1_555 1_555
C40_3 H16_3 1_555 1_555
C41_3 C34_3 1_555 1_555
C43_3 C19_3 1_555 1_555
H17_3 C43_3 1_555 1_555
C44_3 C34_3 1_555 1_555
H18_3 C44_3 1_555 1_555
C45_3 C2_3 1_555 1_555
C47_3 C18_3 1_555 1_555
H19_3 C48_3 1_555 1_555
C49_3 C44_3 1_555 1_555
C50_3 C40_3 1_555 1_555
H20_3 C50_3 1_555 1_555
C51_3 C10_3 1_555 1_555
O26_2 Cd5 1_555 1_555
O31_2 Cd5 1_555 1_555
O8_3 C45_3 1_555 1_555
C8_3 C19_3 1_555 1_555
C10_3 C22_3 1_555 1_555
C29_3 C38_3 1_555 1_555
C29_3 C48_3 1_555 1_555
C32_3 C36_3 1_555 1_555
C39_3 C47_3 1_555 1_555
C40_3 C41_3 1_555 1_555
C43_3 C51_3 1_555 1_555
C45_3 C47_3 1_555 1_555
C49_3 C50_3 1_555 1_555
C49_3 C51_3 1_555 1_555
O18_3 H21_3 1_555 1_555
Cd5_2 O5_4 1_555 1_555
O5_4 C36_4 1_555 1_555
O6_2 C33_4 1_555 1_555
O14_2 C33_4 1_555 1_555
O16_4 Cd5_2 1_555 1_555
C36_4 O16_4 1_555 1_555
Cd8 O6_2 1_555 1_555
O21_2 Cd5_2 1_555 1_555
O23_2 Cd5_2 1_555 1_555
O14_2 Cd8 1_555 1_555
Cd8 O9_4 1_555 1_555
P1_4 O7_4 1_555 1_555
O21_2 C37_4 1_555 1_555
O22_2 C8_4 1_555 1_555
O23_2 C37_4 1_555 1_555
O24_2 C42_4 1_555 1_555
C1_4 C2_4 1_555 1_555
C2_4 C41_4 1_555 1_555
O7_4 C26_4 1_555 1_555
O8_4 P1_4 1_555 1_555
C3_4 H1_4 1_555 1_555
O9_4 C46_4 1_555 1_555
C4_4 C5_4 1_555 1_555
O11_4 Cd8 1_555 1_555
C6_4 C5_4 1_555 1_555
C7_4 H3_4 1_555 1_555
C8_4 O30_2 1_555 1_555
C9_4 C6_4 1_555 1_555
H4_4 C9_4 1_555 1_555
C10_4 H5_4 1_555 1_555
C12_4 C9_4 1_555 1_555
C13_4 C4_4 1_555 1_555
H6_4 C13_4 1_555 1_555
C14_4 H7_4 1_555 1_555
C15_4 C14_4 1_555 1_555
C16_4 H8_4 1_555 1_555
C17_4 H9_4 1_555 1_555
O18_4 P1_4 1_555 1_555
C18_4 C16_4 1_555 1_555
C19_4 C3_4 1_555 1_555
C21_4 C7_4 1_555 1_555
C22_4 C3_4 1_555 1_555
C23_4 C7_4 1_555 1_555
O19_4 P1_4 1_555 1_555
C25_4 C6_4 1_555 1_555
C26_4 C1_4 1_555 1_555
C27_4 C21_4 1_555 1_555
H12_4 C27_4 1_555 1_555
C28_4 C15_4 1_555 1_555
H13_4 C28_4 1_555 1_555
C29_4 H14_4 1_555 1_555
C30_4 C14_4 1_555 1_555
C32_4 C16_4 1_555 1_555
C34_4 C39_4 1_555 1_555
C35_4 C17_4 1_555 1_555
C37_4 C21_4 1_555 1_555
C38_4 C1_4 1_555 1_555
C39_4 H15_4 1_555 1_555
C40_4 H16_4 1_555 1_555
C41_4 C34_4 1_555 1_555
C42_4 C35_4 1_555 1_555
C43_4 C19_4 1_555 1_555
H17_4 C43_4 1_555 1_555
C44_4 C34_4 1_555 1_555
H18_4 C44_4 1_555 1_555
C45_4 C2_4 1_555 1_555
C46_4 O11_4 1_555 1_555
C47_4 C18_4 1_555 1_555
C48_4 C25_4 1_555 1_555
H19_4 C48_4 1_555 1_555
C49_4 C44_4 1_555 1_555
C50_4 C40_4 1_555 1_555
H20_4 C50_4 1_555 1_555
C51_4 C10_4 1_555 1_555
O8_4 C45_4 1_555 1_555
C8_4 C19_4 1_555 1_555
C10_4 C22_4 1_555 1_555
C12_4 C13_4 1_555 1_555
C12_4 C46_4 1_555 1_555
C15_4 C38_4 1_555 1_555
C17_4 C23_4 1_555 1_555
C23_4 C30_4 1_555 1_555
C25_4 C28_4 1_555 1_555
C26_4 C30_4 1_555 1_555
C27_4 C35_4 1_555 1_555
C29_4 C38_4 1_555 1_555
C29_4 C48_4 1_555 1_555
C39_4 C47_4 1_555 1_555
C40_4 C41_4 1_555 1_555
C43_4 C51_4 1_555 1_555
C45_4 C47_4 1_555 1_555
C49_4 C50_4 1_555 1_555
C49_4 C51_4 1_555 1_555
O18_4 H21_4 1_555 1_555
O26_2 C11_4 1_555 1_555
O27 C52_4 1_555 1_555
O28 C52_4 1_555 1_555
O31_2 C11_4 1_555 1_555
H10_4 C20_4 1_555 1_555
C24_4 H11_4 1_555 1_555
C31_4 C20_4 1_555 1_555
C52_4 C31_4 1_555 1_555
C24_4 C31_4 1_555 1_555

#END
