
###############################################################################
#
# This file contains modified crystal structure data generated from the
# MOF subset of the Cambridge Structural Database (CSD) v543 
# hosted by the Cambridge Crystallographic Data Centre (CCDC).
#
# This work is licensed under the Creative Commons
# Attribution-NonCommercial-ShareAlike 4.0 International License.
# To view a copy of this license, visit
# http://creativecommons.org/licenses/by-nc-sa/4.0/
# or send a letter to
# Creative Commons, PO Box 1866, Mountain View, CA 94042, USA.
#
# CIF created using the CSD Python API on 29 September 2022
# The structure has been converted into the P1 space group
# The structure has a 3D framework
# The original CSD entry SIDCAL is in the triclinic crystal system
# The framework has been calculated to contain at least 10.0% void space
# The void calculation uses a probe of radius 1.32A, grid spacing 0.4
# The framework is charged, counterions have been retained in the structure
#
###############################################################################

data_SIDCAL
_chemical_formula_moiety         '(C104 H130 Cd10 N4 O30)n'
_symmetry_cell_setting           triclinic
_symmetry_space_group_name_H-M   'P 1'
_symmetry_Int_Tables_number      1
_space_group_name_Hall           'P 1'
loop_
_symmetry_equiv_pos_site_id
_symmetry_equiv_pos_as_xyz
1 x,y,z
_cell_length_a                   9.8523(7)
_cell_length_b                   19.5244(15)
_cell_length_c                   19.6699(15)
_cell_angle_alpha                89.715(2)
_cell_angle_beta                 83.058(2)
_cell_angle_gamma                87.776(2)
_cell_volume                     3753.14
loop_
_atom_site_label
_atom_site_type_symbol
_atom_site_fract_x
_atom_site_fract_y
_atom_site_fract_z
C45 C 0.119(2) 0.0002(11) 0.2593(12)
H40 H 0.1160 0.0050 0.2109
H42 H 0.0998 0.0440 0.2810
Cd15 Cd 0.0000 0.0000 0.0000
Cd15_2 Cd 0.0000 0.0000 1.0000
Cd2 Cd 0.06366(7) 0.57392(4) 0.34431(4)
Cd4 Cd -0.0000 0.5000 0.5000
C3 C 0.0055(11) 0.3293(5) 0.2663(5)
H1 H 0.0159 0.3553 0.2263
C4 C 0.0094(10) 0.3599(5) 0.3299(5)
H2 H 0.0001 0.3411 0.4324
C8 C 0.0334(10) 0.4344(5) 0.3326(6)
H4 H 0.0664 0.1197 0.4134
C11 C 0.092(2) 0.2221(14) 0.4916(13)
H7 H 0.0918 0.2703 0.5012
H8 H 0.1766 0.2084 0.4648
H9 H 0.0829 0.1970 0.5339
C36 C 0.0668(11) 0.6934(6) 0.2740(5)
C37 C 0.0486(11) 0.7595(5) 0.2381(5)
C38 C 0.0341(14) 0.8196(6) 0.2757(6)
H37 H 0.0308 0.8165 0.3230
C39 C 0.0242(11) 0.8851(5) 0.2464(5)
C40 C 0.0425(10) 0.7642(5) 0.1680(5)
H38 H 0.0508 0.7248 0.1411
C41 C 0.0241(10) 0.8270(5) 0.1388(5)
C42 C 0.0161(11) 0.8859(5) 0.1750(5)
H39 H 0.0052 0.9275 0.1527
C43 C 0.0076(10) 0.8323(5) 0.0625(5)
C44 C 0.0111(15) 0.9501(6) 0.2884(7)
H41 H 0.2077 0.9829 0.2676
C47 C 0.012(3) 0.9443(10) 0.3601(9)
H46 H 0.0919 0.9182 0.3695
H48 H 0.0121 0.9892 0.3797
O3 O 0.0480(9) 0.4584(4) 0.3923(4)
O4 O 0.0455(8) 0.4713(4) 0.2812(4)
O13 O 0.0599(8) 0.6370(4) 0.2409(4)
O14 O 0.0739(11) 0.6935(4) 0.3368(4)
O15 O 0.0217(8) 0.7790(4) 0.0257(4)
Cd15_3 Cd 0.0000 1.0000 0.0000
O35 O 0.1616(8) 0.0194(5) 0.0649(4)
O36 O 0.2247(9) 0.1272(5) 0.0728(4)
O38 O 0.0993(7) 0.4136(4) 0.5564(4)
O39 O 0.1798(7) 0.5655(4) 0.4785(5)
O41 O 0.2761(8) 0.5696(4) 0.3704(5)
Cd10 Cd 0.00076(7) 0.84584(4) 0.92316(4)
Cd15_4 Cd 0.0000 1.0000 1.0000
O47 O 0.0174(8) 0.1093(4) 0.9623(4)
O34 O 0.1309(7) 0.9456(4) 0.9115(4)
H44 H 0.8949 0.0374 0.2989
Cd15_5 Cd 1.0000 0.0000 0.0000
Cd15_6 Cd 1.0000 0.0000 1.0000
Cd1 Cd 0.99924(7) 0.15416(4) 0.07684(4)
Cd4_2 Cd 1.0000 0.5000 0.5000
C1 C 0.9839(12) 0.2223(6) 0.1960(6)
C2 C 0.9857(11) 0.2587(5) 0.2638(5)
C5 C 0.9971(11) 0.3201(5) 0.3902(5)
H2_2 H 1.0001 0.3411 0.4324
C6 C 0.9807(13) 0.2508(6) 0.3874(6)
C7 C 0.9707(13) 0.2204(6) 0.3237(6)
H3 H 0.9538 0.1740 0.3216
C9 C 0.9744(18) 0.2076(6) 0.4524(6)
C10 C 0.984(2) 0.1321(7) 0.4426(10)
H5 H 0.9063 0.1179 0.4218
H6 H 0.9851 0.1099 0.4862
C12 C 0.846(2) 0.2274(13) 0.4970(13)
H10 H 0.8407 0.2763 0.5030
H11 H 0.8467 0.2055 0.5408
H12 H 0.7689 0.2133 0.4760
C13 C 0.7524(10) 0.0847(6) 0.0837(5)
C14 C 0.6261(9) 0.0448(6) 0.0894(5)
C15 C 0.5000(11) 0.0733(5) 0.0789(5)
H13 H 0.4921 0.1195 0.0676
C16 C 0.3872(10) 0.0348(6) 0.0849(5)
C20 C 0.2488(12) 0.0628(6) 0.0736(5)
C24 C 0.7948(11) 0.5827(5) 0.4120(6)
C25 C 0.6571(11) 0.5891(5) 0.4534(6)
C26 C 0.5405(10) 0.5777(5) 0.4240(6)
H25 H 0.5470 0.5658 0.3780
C27 C 0.4121(11) 0.5838(5) 0.4628(6)
C28 C 0.4048(12) 0.6040(6) 0.5324(6)
H26 H 0.3197 0.6074 0.5586
C29 C 0.5186(11) 0.6185(6) 0.5621(6)
C30 C 0.6511(12) 0.6080(6) 0.5214(6)
H27 H 0.7312 0.6141 0.5409
C31 C 0.2802(12) 0.5712(6) 0.4355(6)
C32 C 0.502(2) 0.6414(9) 0.6379(9)
C33 C 0.633(2) 0.6446(14) 0.6684(14)
H28 H 0.6932 0.6071 0.6515
H29 H 0.6145 0.6416 0.7174
H30 H 0.6749 0.6871 0.6560
C34 C 0.422(2) 0.5864(12) 0.6773(14)
H31 H 0.3415 0.5781 0.6563
H32 H 0.3968 0.6012 0.7237
H33 H 0.4781 0.5449 0.6770
C35 C 0.400(2) 0.6994(12) 0.6513(15)
H34 H 0.3146 0.6869 0.6374
H35 H 0.4325 0.7389 0.6258
H36 H 0.3882 0.7100 0.6993
C46 C 0.889(3) 0.9935(14) 0.2779(15)
H43 H 0.8849 0.9995 0.2297
H45 H 0.8083 0.9718 0.2982
H47 H 0.9315 0.9216 0.3796
O1 O 0.9721(13) 0.1602(4) 0.1965(4)
O2 O 0.9970(9) 0.2564(4) 0.1411(4)
O5 O 0.7391(8) 0.1494(4) 0.0747(4)
O6 O 0.8691(7) 0.0544(4) 0.0885(4)
O9 O 0.7985(7) 0.5773(4) 0.3498(4)
O10 O 0.9007(7) 0.5864(4) 0.4436(4)
O16 O 0.9826(8) 0.8907(4) 0.0377(4)
Cd15_7 Cd 1.0000 1.0000 0.0000
O33 O 0.9520(9) 0.5416(4) 0.6077(4)
O40 O 0.8202(7) 0.4345(4) 0.5215(5)
C65 C 0.5987(12) 0.0341(6) 0.8965(6)
H62 H 0.6759 0.0605 0.8938
C66 C 0.4793(10) 0.0651(6) 0.8821(6)
C67 C 0.3625(10) 0.0251(6) 0.8918(5)
H63 H 0.2773 0.0448 0.8859
C69 C 0.593(2) 0.1679(13) 0.8297(12)
H64 H 0.6647 0.1560 0.8572
H65 H 0.6161 0.1489 0.7846
H66 H 0.5830 0.2168 0.8266
C70 C 0.442(3) 0.1809(12) 0.9281(10)
H67 H 0.3584 0.1673 0.9540
H68 H 0.5169 0.1717 0.9542
H69 H 0.4355 0.2290 0.9182
C71 C 0.332(2) 0.1667(13) 0.8417(13)
H70 H 0.2589 0.1492 0.8732
H71 H 0.3275 0.2159 0.8435
H72 H 0.3217 0.1520 0.7962
C96 C 0.4658(19) 0.1404(7) 0.8609(8)
Cd15_8 Cd 1.0000 1.0000 1.0000
O44 O 0.9783(8) 0.2210(4) 0.9743(4)
C17 C 0.4013(12) 0.9659(6) 0.1035(6)
H14 H 0.3241 0.9395 0.1062
C18 C 0.5207(10) 0.9349(6) 0.1179(6)
C19 C 0.6375(10) 0.9749(6) 0.1082(5)
H15 H 0.7227 0.9552 0.1141
C21 C 0.407(2) 0.8321(13) 0.1703(12)
H16 H 0.3353 0.8440 0.1428
H17 H 0.3839 0.8511 0.2154
H18 H 0.4170 0.7832 0.1734
C22 C 0.558(3) 0.8191(12) 0.0719(10)
H19 H 0.6416 0.8327 0.0460
H20 H 0.4831 0.8283 0.0458
H21 H 0.5645 0.7710 0.0818
C23 C 0.668(2) 0.8333(13) 0.1583(13)
H22 H 0.7411 0.8508 0.1268
H23 H 0.6725 0.7841 0.1565
H24 H 0.6783 0.8480 0.2038
C48 C 0.5342(19) 0.8596(7) 0.1391(8)
C49 C 0.0161(12) 0.7777(6) 0.8040(6)
C50 C 0.0143(11) 0.7413(5) 0.7362(5)
C53 C 0.0029(11) 0.6799(5) 0.6098(5)
H50 H -0.0001 0.6589 0.5676
C54 C 0.0193(13) 0.7492(6) 0.6126(6)
C55 C 0.0293(13) 0.7796(6) 0.6763(6)
H51 H 0.0462 0.8260 0.6784
C57 C 0.0256(18) 0.7924(6) 0.5476(6)
C58 C 0.016(2) 0.8679(7) 0.5574(10)
H53 H 0.0937 0.8821 0.5782
H54 H 0.0149 0.8901 0.5138
C60 C 0.154(2) 0.7726(13) 0.5030(13)
H58 H 0.1593 0.7237 0.4970
H59 H 0.1533 0.7945 0.4592
H60 H 0.2311 0.7867 0.5240
C61 C 0.2476(10) 0.9153(6) 0.9163(5)
C62 C 0.3739(9) 0.9552(6) 0.9106(5)
C63 C 0.5000(11) 0.9267(5) 0.9211(5)
H61 H 0.5079 0.8805 0.9324
C64 C 0.6128(10) 0.9652(6) 0.9151(5)
C68 C 0.7512(12) 0.9372(6) 0.9264(5)
C72 C 0.2052(11) 0.4173(5) 0.5880(6)
C73 C 0.3429(11) 0.4109(5) 0.5466(6)
C74 C 0.4595(10) 0.4223(5) 0.5760(6)
H73 H 0.4530 0.4342 0.6220
C75 C 0.5879(11) 0.4162(5) 0.5372(6)
C76 C 0.5952(12) 0.3960(6) 0.4676(6)
H74 H 0.6803 0.3926 0.4414
C77 C 0.4814(11) 0.3815(6) 0.4379(6)
C78 C 0.3489(12) 0.3920(6) 0.4786(6)
H75 H 0.2688 0.3859 0.4591
C79 C 0.7198(12) 0.4288(6) 0.5645(6)
C80 C 0.498(2) 0.3586(9) 0.3621(9)
C81 C 0.367(2) 0.3554(14) 0.3316(14)
H76 H 0.3068 0.3929 0.3485
H77 H 0.3855 0.3584 0.2826
H78 H 0.3251 0.3129 0.3440
C82 C 0.578(2) 0.4136(12) 0.3227(14)
H79 H 0.6585 0.4219 0.3437
H80 H 0.6032 0.3988 0.2763
H81 H 0.5219 0.4551 0.3230
C83 C 0.600(2) 0.3006(12) 0.3487(15)
H82 H 0.6854 0.3131 0.3626
H83 H 0.5675 0.2611 0.3742
H84 H 0.6118 0.2900 0.3007
C94 C 0.111(3) 0.0065(14) 0.7221(15)
H91 H 0.1151 0.0005 0.7703
H93 H 0.1917 0.0282 0.7018
H95 H 0.0685 0.0784 0.6204
O17 O 0.0279(13) 0.8398(4) 0.8035(4)
O18 O 0.0030(9) 0.7436(4) 0.8589(4)
O21 O 0.2609(8) 0.8506(4) 0.9253(4)
O23 O 0.8384(8) 0.9806(5) 0.9351(4)
O24 O 0.7753(9) 0.8728(5) 0.9272(4)
O25 O 0.2015(7) 0.4227(4) 0.6502(4)
O28 O 0.7239(8) 0.4304(4) 0.6296(5)
Cd12 Cd 0.93634(7) 0.42608(4) 0.65569(4)
H92 H 0.1051 0.9626 0.7011
C51 C 0.9945(11) 0.6707(5) 0.7337(5)
H49 H 0.9841 0.6447 0.7737
C52 C 0.9906(10) 0.6401(5) 0.6701(5)
H50_2 H 0.9999 0.6589 0.5676
C56 C 0.9666(10) 0.5656(5) 0.6674(6)
H52 H 0.9336 0.8803 0.5866
C59 C 0.908(2) 0.7779(14) 0.5084(13)
H55 H 0.9082 0.7297 0.4988
H56 H 0.8234 0.7916 0.5352
H57 H 0.9171 0.8030 0.4661
C84 C 0.9332(11) 0.3066(6) 0.7260(5)
C85 C 0.9514(11) 0.2405(5) 0.7619(5)
C86 C 0.9659(14) 0.1804(6) 0.7243(6)
H85 H 0.9692 0.1835 0.6770
C87 C 0.9758(11) 0.1149(5) 0.7536(5)
C88 C 0.9575(10) 0.2358(5) 0.8320(5)
H86 H 0.9492 0.2752 0.8589
C89 C 0.9759(10) 0.1730(5) 0.8612(5)
C90 C 0.9839(11) 0.1141(5) 0.8250(5)
H87 H 0.9948 0.0725 0.8473
C91 C 0.9924(10) 0.1677(5) 0.9375(5)
C92 C 0.9889(15) 0.0499(6) 0.7116(7)
H89 H 0.7923 0.0171 0.7324
C95 C 0.988(3) 0.0557(10) 0.6399(9)
H94 H 0.9081 0.0818 0.6305
H96 H 0.9879 0.0108 0.6203
O20 O 0.9545(8) 0.5287(4) 0.7188(4)
O29 O 0.9401(8) 0.3630(4) 0.7591(4)
O30 O 0.9261(11) 0.3065(4) 0.6632(4)
C93 C 0.881(2) 0.9998(11) 0.7407(12)
H88 H 0.8840 0.9950 0.7891
H90 H 0.9002 0.9560 0.7190
C97 C 0.803(3) 0.6222(18) 0.1316(14)
H97 H 0.8188 0.6704 0.1322
H98 H 0.7129 0.6154 0.1193
H99 H 0.8698 0.5999 0.0986
N1 N 0.814(2) 0.5927(13) 0.2006(10)
H100 H 0.8977 0.5997 0.2124
H101 H 0.7519 0.6140 0.2316
C98 C 0.790(3) 0.5182(12) 0.2014(11)
H102 H 0.7958 0.5003 0.2466
H103 H 0.8578 0.4952 0.1694
H104 H 0.7006 0.5107 0.1887
C97_2 C 0.197(3) 0.3778(18) 0.8684(14)
H97_2 H 0.1812 0.3296 0.8678
H98_2 H 0.2871 0.3846 0.8807
H99_2 H 0.1302 0.4001 0.9014
N1_2 N 0.186(2) 0.4073(13) 0.7994(10)
H100_2 H 0.1023 0.4003 0.7876
H101_2 H 0.2481 0.3860 0.7684
C98_2 C 0.210(3) 0.4818(12) 0.7986(11)
H102_2 H 0.2042 0.4997 0.7534
H103_2 H 0.1422 0.5048 0.8306
H104_2 H 0.2994 0.4893 0.8113
C99 C 0.681(4) 0.2998(18) 0.0138(19)
H107 H 0.5895 0.3184 0.0233
C100 C 0.731(5) 0.3702(16) 0.106(3)
H108 H 0.7672 0.3712 0.1489
H109 H 0.6358 0.3837 0.1122
H110 H 0.7797 0.4012 0.0744
N2 N 0.748(4) 0.2994(17) 0.077(2)
H111 H 0.8374 0.2873 0.0680
H112 H 0.7084 0.2694 0.1076
H105 H 0.6797 0.2537 0.9971
H106 H 0.7319 0.3274 0.9798
H105_2 H 0.3203 0.7463 0.0029
H106_2 H 0.2681 0.6726 0.0202
C99_2 C 0.319(4) 0.7002(18) 0.9862(19)
H107_2 H 0.4105 0.6816 0.9767
C100_2 C 0.269(5) 0.6298(16) 0.894(3)
H108_2 H 0.2328 0.6288 0.8511
H109_2 H 0.3642 0.6163 0.8878
H110_2 H 0.2203 0.5988 0.9256
N2_2 N 0.252(4) 0.7006(17) 0.923(2)
H111_2 H 0.1626 0.7127 0.9320
H112_2 H 0.2916 0.7306 0.8924
loop_
_geom_bond_atom_site_label_1
_geom_bond_atom_site_label_2
_geom_bond_site_symmetry_1
_geom_bond_site_symmetry_2
H40 C45 1_555 1_555
H42 C45 1_555 1_555
Cd2 O3 1_555 1_555
Cd4 O3 1_555 1_555
C3 H1 1_555 1_555
C4 C3 1_555 1_555
C8 C4 1_555 1_555
H7 C11 1_555 1_555
H8 C11 1_555 1_555
H9 C11 1_555 1_555
C36 C37 1_555 1_555
C37 C38 1_555 1_555
C38 H37 1_555 1_555
C39 C38 1_555 1_555
C40 C37 1_555 1_555
H38 C40 1_555 1_555
C41 C40 1_555 1_555
C42 C39 1_555 1_555
H39 C42 1_555 1_555
C43 C41 1_555 1_555
C44 C39 1_555 1_555
C47 C44 1_555 1_555
H46 C47 1_555 1_555
H48 C47 1_555 1_555
O3 C8 1_555 1_555
O4 Cd2 1_555 1_555
O13 Cd2 1_555 1_555
O14 Cd2 1_555 1_555
O15 C43 1_555 1_555
O35 Cd15 1_555 1_555
O38 Cd4 1_555 1_555
O39 Cd4 1_555 1_555
O41 Cd2 1_555 1_555
C8 O4 1_555 1_555
C36 O13 1_555 1_555
C36 O14 1_555 1_555
C41 C42 1_555 1_555
Cd15_2 O47 1_555 1_555
O34 Cd15_4 1_555 1_555
Cd10 O34 1_555 1_555
Cd1 O1 1_555 1_555
Cd15_5 O6 1_555 1_555
C1 C2 1_555 1_555
H2_2 C5 1_555 1_555
C6 C5 1_555 1_555
C7 C2 1_555 1_555
H3 C7 1_555 1_555
C9 C6 1_555 1_555
C10 C9 1_555 1_555
H5 C10 1_555 1_555
H6 C10 1_555 1_555
C12 C9 1_555 1_555
H10 C12 1_555 1_555
H11 C12 1_555 1_555
H12 C12 1_555 1_555
C13 C14 1_555 1_555
C14 C15 1_555 1_555
C15 H13 1_555 1_555
C16 C15 1_555 1_555
C20 C16 1_555 1_555
C24 C25 1_555 1_555
C25 C26 1_555 1_555
C26 H25 1_555 1_555
C27 C26 1_555 1_555
C28 C27 1_555 1_555
H26 C28 1_555 1_555
C29 C28 1_555 1_555
C30 C25 1_555 1_555
H27 C30 1_555 1_555
C31 C27 1_555 1_555
C32 C29 1_555 1_555
C33 C32 1_555 1_555
H28 C33 1_555 1_555
H29 C33 1_555 1_555
H30 C33 1_555 1_555
C34 C32 1_555 1_555
H31 C34 1_555 1_555
H32 C34 1_555 1_555
H33 C34 1_555 1_555
C35 C32 1_555 1_555
H34 C35 1_555 1_555
H35 C35 1_555 1_555
H36 C35 1_555 1_555
H43 C46 1_555 1_555
H45 C46 1_555 1_555
O1 C1 1_555 1_555
O2 Cd1 1_555 1_555
O5 Cd1 1_555 1_555
O6 Cd1 1_555 1_555
O35 C20 1_555 1_555
O36 C20 1_555 1_555
O39 C31 1_555 1_555
O41 C31 1_555 1_555
Cd15_7 O16 1_555 1_555
O33 Cd4_2 1_555 1_555
O40 Cd4_2 1_555 1_555
Cd4_2 O10 1_555 1_555
C1 O2 1_555 1_555
C6 C7 1_555 1_555
C13 O5 1_555 1_555
C13 O6 1_555 1_555
C24 O9 1_555 1_555
C24 O10 1_555 1_555
C29 C30 1_555 1_555
H62 C65 1_555 1_555
C66 C65 1_555 1_555
H63 C67 1_555 1_555
C69 H64 1_555 1_555
H65 C69 1_555 1_555
H66 C69 1_555 1_555
C70 H67 1_555 1_555
H68 C70 1_555 1_555
H69 C70 1_555 1_555
C71 H70 1_555 1_555
H71 C71 1_555 1_555
H72 C71 1_555 1_555
C96 C66 1_555 1_555
C66 C67 1_555 1_555
C69 C96 1_555 1_555
C70 C96 1_555 1_555
C71 C96 1_555 1_555
H14 C17 1_555 1_555
C18 C17 1_555 1_555
H15 C19 1_555 1_555
C21 H16 1_555 1_555
H17 C21 1_555 1_555
H18 C21 1_555 1_555
C22 H19 1_555 1_555
H20 C22 1_555 1_555
H21 C22 1_555 1_555
C23 H22 1_555 1_555
H23 C23 1_555 1_555
H24 C23 1_555 1_555
C48 C18 1_555 1_555
C18 C19 1_555 1_555
C21 C48 1_555 1_555
C22 C48 1_555 1_555
C23 C48 1_555 1_555
Cd10 O17 1_555 1_555
C49 C50 1_555 1_555
H50 C53 1_555 1_555
C54 C53 1_555 1_555
C55 C50 1_555 1_555
H51 C55 1_555 1_555
C57 C54 1_555 1_555
C58 C57 1_555 1_555
H53 C58 1_555 1_555
H54 C58 1_555 1_555
C60 C57 1_555 1_555
H58 C60 1_555 1_555
H59 C60 1_555 1_555
H60 C60 1_555 1_555
C61 C62 1_555 1_555
C62 C63 1_555 1_555
C63 H61 1_555 1_555
C64 C63 1_555 1_555
C68 C64 1_555 1_555
C72 C73 1_555 1_555
C73 C74 1_555 1_555
C74 H73 1_555 1_555
C75 C74 1_555 1_555
C76 C75 1_555 1_555
H74 C76 1_555 1_555
C77 C76 1_555 1_555
C78 C73 1_555 1_555
H75 C78 1_555 1_555
C79 C75 1_555 1_555
C80 C77 1_555 1_555
C81 C80 1_555 1_555
H76 C81 1_555 1_555
H77 C81 1_555 1_555
H78 C81 1_555 1_555
C82 C80 1_555 1_555
H79 C82 1_555 1_555
H80 C82 1_555 1_555
H81 C82 1_555 1_555
C83 C80 1_555 1_555
H82 C83 1_555 1_555
H83 C83 1_555 1_555
H84 C83 1_555 1_555
H91 C94 1_555 1_555
H93 C94 1_555 1_555
O17 C49 1_555 1_555
O18 Cd10 1_555 1_555
O21 Cd10 1_555 1_555
O23 Cd15_8 1_555 1_555
O24 C68 1_555 1_555
O40 C79 1_555 1_555
O28 C79 1_555 1_555
Cd12 O28 1_555 1_555
C49 O18 1_555 1_555
C54 C55 1_555 1_555
C61 O21 1_555 1_555
C61 O34 1_555 1_555
C68 O23 1_555 1_555
C72 O25 1_555 1_555
C72 O38 1_555 1_555
C77 C78 1_555 1_555
Cd12 O33 1_555 1_555
C51 H49 1_555 1_555
C52 C51 1_555 1_555
C56 C52 1_555 1_555
H55 C59 1_555 1_555
H56 C59 1_555 1_555
H57 C59 1_555 1_555
C84 C85 1_555 1_555
C85 C86 1_555 1_555
C86 H85 1_555 1_555
C87 C86 1_555 1_555
C88 C85 1_555 1_555
H86 C88 1_555 1_555
C89 C88 1_555 1_555
C90 C87 1_555 1_555
H87 C90 1_555 1_555
C91 C89 1_555 1_555
C92 C87 1_555 1_555
C95 C92 1_555 1_555
H94 C95 1_555 1_555
H96 C95 1_555 1_555
O33 C56 1_555 1_555
O20 Cd12 1_555 1_555
O29 Cd12 1_555 1_555
O30 Cd12 1_555 1_555
O44 C91 1_555 1_555
C56 O20 1_555 1_555
C84 O29 1_555 1_555
C84 O30 1_555 1_555
C89 C90 1_555 1_555
H88 C93 1_555 1_555
H90 C93 1_555 1_555
C97 H97 1_555 1_555
H98 C97 1_555 1_555
H99 C97 1_555 1_555
N1 C97 1_555 1_555
H100 N1 1_555 1_555
H101 N1 1_555 1_555
C98 N1 1_555 1_555
H102 C98 1_555 1_555
H103 C98 1_555 1_555
H104 C98 1_555 1_555
C97_2 H97_2 1_555 1_555
H98_2 C97_2 1_555 1_555
H99_2 C97_2 1_555 1_555
N1_2 C97_2 1_555 1_555
H100_2 N1_2 1_555 1_555
H101_2 N1_2 1_555 1_555
C98_2 N1_2 1_555 1_555
H102_2 C98_2 1_555 1_555
H103_2 C98_2 1_555 1_555
H104_2 C98_2 1_555 1_555
H107 C99 1_555 1_555
C100 H108 1_555 1_555
H109 C100 1_555 1_555
H110 C100 1_555 1_555
N2 C99 1_555 1_555
H111 N2 1_555 1_555
H112 N2 1_555 1_555
C100 N2 1_555 1_555
H107_2 C99_2 1_555 1_555
C100_2 H108_2 1_555 1_555
H109_2 C100_2 1_555 1_555
H110_2 C100_2 1_555 1_555
N2_2 C99_2 1_555 1_555
H111_2 N2_2 1_555 1_555
H112_2 N2_2 1_555 1_555
C100_2 N2_2 1_555 1_555

#END
