
###############################################################################
#
# This file contains modified crystal structure data generated from the
# MOF subset of the Cambridge Structural Database (CSD) v543 
# hosted by the Cambridge Crystallographic Data Centre (CCDC).
#
# This work is licensed under the Creative Commons
# Attribution-NonCommercial-ShareAlike 4.0 International License.
# To view a copy of this license, visit
# http://creativecommons.org/licenses/by-nc-sa/4.0/
# or send a letter to
# Creative Commons, PO Box 1866, Mountain View, CA 94042, USA.
#
# CIF created using the CSD Python API on 29 September 2022
# The structure has been converted into the P1 space group
# The structure has a 3D framework
# The original CSD entry SIDXOV is in the cubic crystal system
# The framework has been calculated to contain at least 10.0% void space
# The void calculation uses a probe of radius 1.32A, grid spacing 0.4
#
###############################################################################

data_SIDXOV
_chemical_formula_moiety         '(C1032 H888 Co48 N144 O160)n'
_symmetry_cell_setting           triclinic
_symmetry_space_group_name_H-M   'P 1'
_symmetry_Int_Tables_number      1
_space_group_name_Hall           'P 1'
loop_
_symmetry_equiv_pos_site_id
_symmetry_equiv_pos_as_xyz
1 x,y,z
_cell_length_a                   34.630(2)
_cell_length_b                   34.630(2)
_cell_length_c                   34.630(2)
_cell_angle_alpha                90
_cell_angle_beta                 90
_cell_angle_gamma                90
_cell_volume                     41529.6
loop_
_atom_site_label
_atom_site_type_symbol
_atom_site_fract_x
_atom_site_fract_y
_atom_site_fract_z
C1 C 0.30453(10) 0.10753(9) 0.08202(10)
H1 H 0.3278 0.1086 0.0687
C2 C 0.29464(9) 0.07362(9) 0.10031(9)
H2 H 0.3112 0.0525 0.1000
C3 C 0.25970(9) 0.07169(8) 0.11911(8)
C4 C 0.23763(9) 0.10405(9) 0.11982(9)
H3 H 0.2145 0.1042 0.1334
C5 C 0.24930(8) 0.13649(9) 0.10057(10)
H4 H 0.2330 0.1578 0.1004
C6 C 0.25782(14) -0.0000 0.11986(13)
H5 H 0.2704 -0.0000 0.0961
C7 C 0.24832(8) 0.03492(7) 0.13781(8)
C8 C 0.22935(8) 0.03462(8) 0.17318(8)
H6 H 0.2232 0.0578 0.1853
C9 C 0.21970(12) -0.0000 0.19041(10)
C10 C 0.20253(11) -0.0000 0.23030(11)
C11 C 0.38650(10) 0.20134(11) 0.06628(9)
H7 H 0.3846 0.2127 0.0420
C12 C 0.42181(9) 0.20052(10) 0.08316(9)
H8 H 0.4428 0.2103 0.0695
C13 C 0.42773(8) 0.18647(10) 0.11814(8)
C14 C 0.39491(9) 0.16947(10) 0.13511(10)
H9 H 0.3960 0.1580 0.1593
C15 C 0.36155(9) 0.17068(10) 0.11446(9)
H10 H 0.3405 0.1580 0.1253
C16 C 0.5000 0.18491(14) 0.11809(12)
H11 H 0.5000 0.1854 0.0912
C17 C 0.46522(8) 0.18457(8) 0.13789(8)
C18 C 0.46542(8) 0.18476(9) 0.17797(8)
H12 H 0.4422 0.1859 0.1914
C19 C 0.5000 0.18321(11) 0.19820(10)
C20 C 0.5000 0.18467(11) 0.24125(11)
C21 C 0.26411(11) 0.25001(11) 0.09320(12)
H13 H 0.2693 0.2588 0.0684
C22 C 0.21909(13) 0.30546(11) 0.10024(14)
H14 H 0.2346 0.3178 0.0809
H15 H 0.2147 0.3231 0.1212
H16 H 0.1948 0.2979 0.0892
C23 C 0.22384(13) 0.25432(13) 0.15043(13)
H17 H 0.2098 0.2312 0.1444
H18 H 0.2069 0.2724 0.1629
H19 H 0.2449 0.2482 0.1674
Co1 Co 0.300214(10) 0.189922(9) 0.053307(10)
N1 N 0.28213(7) 0.13893(7) 0.08250(7)
N2 N 0.35542(6) 0.18760(7) 0.08114(6)
N3 N 0.23909(11) 0.27148(11) 0.11450(11)
O2 O 0.46841(5) 0.18533(6) 0.25688(5)
O3 O 0.28033(6) 0.22090(6) 0.10286(6)
O4 O 0.32528(7) 0.16332(10) 0.0000
O5 O 0.19667(5) 0.03291(5) 0.24541(5)
C31 C 0.61350(10) 0.20134(11) 0.06628(9)
H25 H 0.6154 0.2127 0.0420
C32 C 0.57819(9) 0.20052(10) 0.08316(9)
H26 H 0.5572 0.2103 0.0695
C33 C 0.57227(8) 0.18647(10) 0.11814(8)
C34 C 0.60509(9) 0.16947(10) 0.13511(10)
H27 H 0.6040 0.1580 0.1593
C35 C 0.63845(9) 0.17068(10) 0.11446(9)
H28 H 0.6595 0.1580 0.1253
C36 C 0.53478(8) 0.18457(8) 0.13789(8)
C37 C 0.53458(8) 0.18476(9) 0.17797(8)
H29 H 0.5578 0.1859 0.1914
N5 N 0.64458(6) 0.18760(7) 0.08114(6)
O6 O 0.53159(5) 0.18533(6) 0.25688(5)
Co3 Co 0.189922(9) 0.053307(10) 0.300214(10)
Co4 Co 0.553307(10) 0.199786(10) 0.310078(9)
Co7 Co 0.699786(10) 0.189922(9) 0.053307(10)
Co8 Co 0.446693(10) 0.199786(10) 0.310078(9)
O8 O 0.24541(5) 0.19667(5) 0.03291(5)
O10 O 0.31467(6) 0.24312(5) 0.03159(5)
O11 O 0.16332(10) -0.0000 0.32528(7)
O4_2 O 0.32528(7) 0.16332(10) 1.0000
Co5 Co 0.300214(10) 0.189922(9) 0.946693(10)
C6_2 C 0.25782(14) 1.0000 0.11986(13)
H5_2 H 0.2704 1.0000 0.0961
C9_2 C 0.21970(12) 1.0000 0.19041(10)
C10_2 C 0.20253(11) 1.0000 0.23030(11)
O1 O 0.19667(5) 0.96709(5) 0.24541(5)
C24 C 0.30453(10) 0.89247(9) 0.08202(10)
H20 H 0.3278 0.8914 0.0687
C25 C 0.29464(9) 0.92638(9) 0.10031(9)
H21 H 0.3112 0.9475 0.1000
C26 C 0.25970(9) 0.92831(8) 0.11911(8)
C27 C 0.23763(9) 0.89595(9) 0.11982(9)
H22 H 0.2145 0.8958 0.1334
C28 C 0.24930(8) 0.86351(9) 0.10057(10)
H23 H 0.2330 0.8422 0.1004
C29 C 0.24832(8) 0.96508(7) 0.13781(8)
C30 C 0.22935(8) 0.96538(8) 0.17318(8)
H24 H 0.2232 0.9422 0.1853
N4 N 0.28213(7) 0.86107(7) 0.08250(7)
C38 C 0.25001(11) 0.90680(12) 0.26411(11)
H30 H 0.2588 0.9316 0.2693
C39 C 0.30546(11) 0.89976(14) 0.21909(13)
H31 H 0.3178 0.9191 0.2346
H32 H 0.3231 0.8788 0.2147
H33 H 0.2979 0.9108 0.1948
C40 C 0.25432(13) 0.84957(13) 0.22384(13)
H34 H 0.2312 0.8556 0.2098
H35 H 0.2724 0.8371 0.2069
H36 H 0.2482 0.8326 0.2449
Co2 Co 0.189922(9) 0.946693(10) 0.300214(10)
N6 N 0.27148(11) 0.88550(11) 0.23909(11)
O7 O 0.22090(6) 0.89714(6) 0.28033(6)
Co6 Co 0.300214(10) 0.810078(9) 0.053307(10)
N7 N 0.13893(7) 0.91750(7) 0.28213(7)
N8 N 0.18760(7) 0.91886(6) 0.35542(6)
O9 O 0.24312(5) 0.96841(5) 0.31467(6)
O11_2 O 0.16332(10) 1.0000 0.32528(7)
C6_3 C 0.74218(14) 0.0000 0.11986(13)
H5_3 H 0.7296 0.0000 0.0961
C9_3 C 0.78030(12) 0.0000 0.19041(10)
C10_3 C 0.79747(11) 0.0000 0.23030(11)
O1_2 O 0.80333(5) 0.03291(5) 0.24541(5)
C24_2 C 0.69547(10) 0.10753(9) 0.08202(10)
H20_2 H 0.6722 0.1086 0.0687
C25_2 C 0.70536(9) 0.07362(9) 0.10031(9)
H21_2 H 0.6888 0.0525 0.1000
C26_2 C 0.74030(9) 0.07169(8) 0.11911(8)
C27_2 C 0.76237(9) 0.10405(9) 0.11982(9)
H22_2 H 0.7855 0.1042 0.1334
C28_2 C 0.75070(8) 0.13649(9) 0.10057(10)
H23_2 H 0.7670 0.1578 0.1004
C29_2 C 0.75168(8) 0.03492(7) 0.13781(8)
C30_2 C 0.77065(8) 0.03462(8) 0.17318(8)
H24_2 H 0.7768 0.0578 0.1853
N4_2 N 0.71787(7) 0.13893(7) 0.08250(7)
C38_2 C 0.74999(11) 0.09320(12) 0.26411(11)
H30_2 H 0.7412 0.0684 0.2693
C39_2 C 0.69454(11) 0.10024(14) 0.21909(13)
H31_2 H 0.6822 0.0809 0.2346
H32_2 H 0.6769 0.1212 0.2147
H33_2 H 0.7021 0.0892 0.1948
C40_2 C 0.74568(13) 0.15043(13) 0.22384(13)
H34_2 H 0.7688 0.1444 0.2098
H35_2 H 0.7276 0.1629 0.2069
H36_2 H 0.7518 0.1674 0.2449
Co2_2 Co 0.810078(9) 0.053307(10) 0.300214(10)
N6_2 N 0.72852(11) 0.11450(11) 0.23909(11)
O7_2 O 0.77910(6) 0.10286(6) 0.28033(6)
N7_2 N 0.86107(7) 0.08250(7) 0.28213(7)
N8_2 N 0.81240(7) 0.08114(6) 0.35542(6)
O9_2 O 0.75688(5) 0.03159(5) 0.31467(6)
O11_3 O 0.83668(10) 0.0000 0.32528(7)
C1_2 C 0.69547(10) 0.89247(9) 0.08202(10)
H1_2 H 0.6722 0.8914 0.0687
C2_2 C 0.70536(9) 0.92638(9) 0.10031(9)
H2_2 H 0.6888 0.9475 0.1000
C3_2 C 0.74030(9) 0.92831(8) 0.11911(8)
C4_2 C 0.76237(9) 0.89595(9) 0.11982(9)
H3_2 H 0.7855 0.8958 0.1334
C5_2 C 0.75070(8) 0.86351(9) 0.10057(10)
H4_2 H 0.7670 0.8422 0.1004
C6_4 C 0.74218(14) 1.0000 0.11986(13)
H5_4 H 0.7296 1.0000 0.0961
C7_2 C 0.75168(8) 0.96508(7) 0.13781(8)
C8_2 C 0.77065(8) 0.96538(8) 0.17318(8)
H6_2 H 0.7768 0.9422 0.1853
C9_4 C 0.78030(12) 1.0000 0.19041(10)
C10_4 C 0.79747(11) 1.0000 0.23030(11)
C11_2 C 0.61350(10) 0.79866(11) 0.06628(9)
H7_2 H 0.6154 0.7873 0.0420
C12_2 C 0.57819(9) 0.79948(10) 0.08316(9)
H8_2 H 0.5572 0.7897 0.0695
C13_2 C 0.57227(8) 0.81353(10) 0.11814(8)
C14_2 C 0.60509(9) 0.83053(10) 0.13511(10)
H9_2 H 0.6040 0.8420 0.1593
C15_2 C 0.63845(9) 0.82932(10) 0.11446(9)
H10_2 H 0.6595 0.8420 0.1253
C16_2 C 0.5000 0.81509(14) 0.11809(12)
H11_2 H 0.5000 0.8146 0.0912
C17_2 C 0.53478(8) 0.81543(8) 0.13789(8)
C18_2 C 0.53458(8) 0.81524(9) 0.17797(8)
H12_2 H 0.5578 0.8141 0.1914
C19_2 C 0.5000 0.81679(11) 0.19820(10)
C20_2 C 0.5000 0.81533(11) 0.24125(11)
C21_2 C 0.73589(11) 0.74999(11) 0.09320(12)
H13_2 H 0.7307 0.7412 0.0684
C22_2 C 0.78091(13) 0.69454(11) 0.10024(14)
H14_2 H 0.7654 0.6822 0.0809
H15_2 H 0.7853 0.6769 0.1212
H16_2 H 0.8052 0.7021 0.0892
C23_2 C 0.77616(13) 0.74568(13) 0.15043(13)
H17_2 H 0.7902 0.7688 0.1444
H18_2 H 0.7931 0.7276 0.1629
H19_2 H 0.7551 0.7518 0.1674
Co1_2 Co 0.699786(10) 0.810078(9) 0.053307(10)
N1_2 N 0.71787(7) 0.86107(7) 0.08250(7)
N2_2 N 0.64458(6) 0.81240(7) 0.08114(6)
N3_2 N 0.76091(11) 0.72852(11) 0.11450(11)
O2_2 O 0.53159(5) 0.81467(6) 0.25688(5)
O3_2 O 0.71967(6) 0.77910(6) 0.10286(6)
O4_3 O 0.67472(7) 0.83668(10) 0.0000
O5_2 O 0.80333(5) 0.96709(5) 0.24541(5)
C31_2 C 0.38650(10) 0.79866(11) 0.06628(9)
H25_2 H 0.3846 0.7873 0.0420
C32_2 C 0.42181(9) 0.79948(10) 0.08316(9)
H26_2 H 0.4428 0.7897 0.0695
C33_2 C 0.42773(8) 0.81353(10) 0.11814(8)
C34_2 C 0.39491(9) 0.83053(10) 0.13511(10)
H27_2 H 0.3960 0.8420 0.1593
C35_2 C 0.36155(9) 0.82932(10) 0.11446(9)
H28_2 H 0.3405 0.8420 0.1253
C36_2 C 0.46522(8) 0.81543(8) 0.13789(8)
C37_2 C 0.46542(8) 0.81524(9) 0.17797(8)
H29_2 H 0.4422 0.8141 0.1914
N5_2 N 0.35542(6) 0.81240(7) 0.08114(6)
O6_2 O 0.46841(5) 0.81467(6) 0.25688(5)
Co3_2 Co 0.810078(9) 0.946693(10) 0.300214(10)
Co4_2 Co 0.446693(10) 0.800214(10) 0.310078(9)
Co8_2 Co 0.553307(10) 0.800214(10) 0.310078(9)
O8_2 O 0.75459(5) 0.80333(5) 0.03291(5)
O10_2 O 0.68533(6) 0.75688(5) 0.03159(5)
O11_4 O 0.83668(10) 1.0000 0.32528(7)
O4_4 O 0.67472(7) 0.83668(10) 1.0000
Co5_2 Co 0.699786(10) 0.810078(9) 0.946693(10)
O4_5 O 0.67472(7) 0.16332(10) 0.0000
C1_3 C 0.69547(10) 0.10753(9) 0.91798(10)
H1_3 H 0.6722 0.1086 0.9313
C2_3 C 0.70536(9) 0.07362(9) 0.89969(9)
H2_3 H 0.6888 0.0525 0.9000
C3_3 C 0.74030(9) 0.07169(8) 0.88089(8)
C4_3 C 0.76237(9) 0.10405(9) 0.88018(9)
H3_3 H 0.7855 0.1042 0.8666
C5_3 C 0.75070(8) 0.13649(9) 0.89943(10)
H4_3 H 0.7670 0.1578 0.8996
C6_5 C 0.74218(14) -0.0000 0.88014(13)
H5_5 H 0.7296 -0.0000 0.9039
C7_3 C 0.75168(8) 0.03492(7) 0.86219(8)
C8_3 C 0.77065(8) 0.03462(8) 0.82682(8)
H6_3 H 0.7768 0.0578 0.8147
C9_5 C 0.78030(12) -0.0000 0.80959(10)
C10_5 C 0.79747(11) -0.0000 0.76970(11)
C11_3 C 0.61350(10) 0.20134(11) 0.93372(9)
H7_3 H 0.6154 0.2127 0.9580
C12_3 C 0.57819(9) 0.20052(10) 0.91684(9)
H8_3 H 0.5572 0.2103 0.9305
C13_3 C 0.57227(8) 0.18647(10) 0.88186(8)
C14_3 C 0.60509(9) 0.16947(10) 0.86489(10)
H9_3 H 0.6040 0.1580 0.8407
C15_3 C 0.63845(9) 0.17068(10) 0.88554(9)
H10_3 H 0.6595 0.1580 0.8747
C16_3 C 0.5000 0.18491(14) 0.88191(12)
H11_3 H 0.5000 0.1854 0.9088
C17_3 C 0.53478(8) 0.18457(8) 0.86211(8)
C18_3 C 0.53458(8) 0.18476(9) 0.82203(8)
H12_3 H 0.5578 0.1859 0.8086
C19_3 C 0.5000 0.18321(11) 0.80180(10)
C20_3 C 0.5000 0.18467(11) 0.75875(11)
C21_3 C 0.73589(11) 0.25001(11) 0.90680(12)
H13_3 H 0.7307 0.2588 0.9316
C22_3 C 0.78091(13) 0.30546(11) 0.89976(14)
H14_3 H 0.7654 0.3178 0.9191
H15_3 H 0.7853 0.3231 0.8788
H16_3 H 0.8052 0.2979 0.9108
C23_3 C 0.77616(13) 0.25432(13) 0.84957(13)
H17_3 H 0.7902 0.2312 0.8556
H18_3 H 0.7931 0.2724 0.8371
H19_3 H 0.7551 0.2482 0.8326
Co1_3 Co 0.699786(10) 0.189922(9) 0.946693(10)
N1_3 N 0.71787(7) 0.13893(7) 0.91750(7)
N2_3 N 0.64458(6) 0.18760(7) 0.91886(6)
N3_3 N 0.76091(11) 0.27148(11) 0.88550(11)
O2_3 O 0.53159(5) 0.18533(6) 0.74312(5)
O3_3 O 0.71967(6) 0.22090(6) 0.89714(6)
O4_6 O 0.67472(7) 0.16332(10) 1.0000
O5_3 O 0.80333(5) 0.03291(5) 0.75459(5)
C31_3 C 0.38650(10) 0.20134(11) 0.93372(9)
H25_3 H 0.3846 0.2127 0.9580
C32_3 C 0.42181(9) 0.20052(10) 0.91684(9)
H26_3 H 0.4428 0.2103 0.9305
C33_3 C 0.42773(8) 0.18647(10) 0.88186(8)
C34_3 C 0.39491(9) 0.16947(10) 0.86489(10)
H27_3 H 0.3960 0.1580 0.8407
C35_3 C 0.36155(9) 0.17068(10) 0.88554(9)
H28_3 H 0.3405 0.1580 0.8747
C36_3 C 0.46522(8) 0.18457(8) 0.86211(8)
C37_3 C 0.46542(8) 0.18476(9) 0.82203(8)
H29_3 H 0.4422 0.1859 0.8086
N5_3 N 0.35542(6) 0.18760(7) 0.91886(6)
O6_3 O 0.46841(5) 0.18533(6) 0.74312(5)
Co3_3 Co 0.810078(9) 0.053307(10) 0.699786(10)
Co4_3 Co 0.446693(10) 0.199786(10) 0.689922(9)
Co8_3 Co 0.553307(10) 0.199786(10) 0.689922(9)
O8_3 O 0.75459(5) 0.19667(5) 0.96709(5)
O10_3 O 0.68533(6) 0.24312(5) 0.96841(5)
O11_5 O 0.83668(10) -0.0000 0.67472(7)
C6_6 C 0.74218(14) 1.0000 0.88014(13)
H5_6 H 0.7296 1.0000 0.9039
C9_6 C 0.78030(12) 1.0000 0.80959(10)
C10_6 C 0.79747(11) 1.0000 0.76970(11)
O1_3 O 0.80333(5) 0.96709(5) 0.75459(5)
C24_3 C 0.69547(10) 0.89247(9) 0.91798(10)
H20_3 H 0.6722 0.8914 0.9313
C25_3 C 0.70536(9) 0.92638(9) 0.89969(9)
H21_3 H 0.6888 0.9475 0.9000
C26_3 C 0.74030(9) 0.92831(8) 0.88089(8)
C27_3 C 0.76237(9) 0.89595(9) 0.88018(9)
H22_3 H 0.7855 0.8958 0.8666
C28_3 C 0.75070(8) 0.86351(9) 0.89943(10)
H23_3 H 0.7670 0.8422 0.8996
C29_3 C 0.75168(8) 0.96508(7) 0.86219(8)
C30_3 C 0.77065(8) 0.96538(8) 0.82682(8)
H24_3 H 0.7768 0.9422 0.8147
N4_3 N 0.71787(7) 0.86107(7) 0.91750(7)
C38_3 C 0.74999(11) 0.90680(12) 0.73589(11)
H30_3 H 0.7412 0.9316 0.7307
C39_3 C 0.69454(11) 0.89976(14) 0.78091(13)
H31_3 H 0.6822 0.9191 0.7654
H32_3 H 0.6769 0.8788 0.7853
H33_3 H 0.7021 0.9108 0.8052
C40_3 C 0.74568(13) 0.84957(13) 0.77616(13)
H34_3 H 0.7688 0.8556 0.7902
H35_3 H 0.7276 0.8371 0.7931
H36_3 H 0.7518 0.8326 0.7551
Co2_3 Co 0.810078(9) 0.946693(10) 0.699786(10)
N6_3 N 0.72852(11) 0.88550(11) 0.76091(11)
O7_3 O 0.77910(6) 0.89714(6) 0.71967(6)
N7_3 N 0.86107(7) 0.91750(7) 0.71787(7)
N8_3 N 0.81240(7) 0.91886(6) 0.64458(6)
O9_3 O 0.75688(5) 0.96841(5) 0.68533(6)
O11_6 O 0.83668(10) 1.0000 0.67472(7)
C6_7 C 0.25782(14) -0.0000 0.88014(13)
H5_7 H 0.2704 -0.0000 0.9039
C9_7 C 0.21970(12) -0.0000 0.80959(10)
C10_7 C 0.20253(11) 0.0000 0.76970(11)
O1_4 O 0.19667(5) 0.03291(5) 0.75459(5)
C24_4 C 0.30453(10) 0.10753(9) 0.91798(10)
H20_4 H 0.3278 0.1086 0.9313
C25_4 C 0.29464(9) 0.07362(9) 0.89969(9)
H21_4 H 0.3112 0.0525 0.9000
C26_4 C 0.25970(9) 0.07169(8) 0.88089(8)
C27_4 C 0.23763(9) 0.10405(9) 0.88018(9)
H22_4 H 0.2145 0.1042 0.8666
C28_4 C 0.24930(8) 0.13649(9) 0.89943(10)
H23_4 H 0.2330 0.1578 0.8996
C29_4 C 0.24832(8) 0.03492(7) 0.86219(8)
C30_4 C 0.22935(8) 0.03462(8) 0.82682(8)
H24_4 H 0.2232 0.0578 0.8147
N4_4 N 0.28213(7) 0.13893(7) 0.91750(7)
C38_4 C 0.25001(11) 0.09320(12) 0.73589(11)
H30_4 H 0.2588 0.0684 0.7307
C39_4 C 0.30546(11) 0.10024(14) 0.78091(13)
H31_4 H 0.3178 0.0809 0.7654
H32_4 H 0.3231 0.1212 0.7853
H33_4 H 0.2979 0.0892 0.8052
C40_4 C 0.25432(13) 0.15043(13) 0.77616(13)
H34_4 H 0.2312 0.1444 0.7902
H35_4 H 0.2724 0.1629 0.7931
H36_4 H 0.2482 0.1674 0.7551
Co2_4 Co 0.189922(9) 0.053307(10) 0.699786(10)
N6_4 N 0.27148(11) 0.11450(11) 0.76091(11)
O7_4 O 0.22090(6) 0.10286(6) 0.71967(6)
N7_4 N 0.13893(7) 0.08250(7) 0.71787(7)
N8_4 N 0.18760(7) 0.08114(6) 0.64458(6)
O9_4 O 0.24312(5) 0.03159(5) 0.68533(6)
O11_7 O 0.16332(10) 0.0000 0.67472(7)
O4_7 O 0.32528(7) 0.83668(10) 0.0000
C1_4 C 0.30453(10) 0.89247(9) 0.91798(10)
H1_4 H 0.3278 0.8914 0.9313
C2_4 C 0.29464(9) 0.92638(9) 0.89969(9)
H2_4 H 0.3112 0.9475 0.9000
C3_4 C 0.25970(9) 0.92831(8) 0.88089(8)
C4_4 C 0.23763(9) 0.89595(9) 0.88018(9)
H3_4 H 0.2145 0.8958 0.8666
C5_4 C 0.24930(8) 0.86351(9) 0.89943(10)
H4_4 H 0.2330 0.8422 0.8996
C6_8 C 0.25782(14) 1.0000 0.88014(13)
H5_8 H 0.2704 1.0000 0.9039
C7_4 C 0.24832(8) 0.96508(7) 0.86219(8)
C8_4 C 0.22935(8) 0.96538(8) 0.82682(8)
H6_4 H 0.2232 0.9422 0.8147
C9_8 C 0.21970(12) 1.0000 0.80959(10)
C10_8 C 0.20253(11) 1.0000 0.76970(11)
C11_4 C 0.38650(10) 0.79866(11) 0.93372(9)
H7_4 H 0.3846 0.7873 0.9580
C12_4 C 0.42181(9) 0.79948(10) 0.91684(9)
H8_4 H 0.4428 0.7897 0.9305
C13_4 C 0.42773(8) 0.81353(10) 0.88186(8)
C14_4 C 0.39491(9) 0.83053(10) 0.86489(10)
H9_4 H 0.3960 0.8420 0.8407
C15_4 C 0.36155(9) 0.82932(10) 0.88554(9)
H10_4 H 0.3405 0.8420 0.8747
C16_4 C 0.5000 0.81509(14) 0.88191(12)
H11_4 H 0.5000 0.8146 0.9088
C17_4 C 0.46522(8) 0.81543(8) 0.86211(8)
C18_4 C 0.46542(8) 0.81524(9) 0.82203(8)
H12_4 H 0.4422 0.8141 0.8086
C19_4 C 0.5000 0.81679(11) 0.80180(10)
C20_4 C 0.5000 0.81533(11) 0.75875(11)
C21_4 C 0.26411(11) 0.74999(11) 0.90680(12)
H13_4 H 0.2693 0.7412 0.9316
C22_4 C 0.21909(13) 0.69454(11) 0.89976(14)
H14_4 H 0.2346 0.6822 0.9191
H15_4 H 0.2147 0.6769 0.8788
H16_4 H 0.1948 0.7021 0.9108
C23_4 C 0.22384(13) 0.74568(13) 0.84957(13)
H17_4 H 0.2098 0.7688 0.8556
H18_4 H 0.2069 0.7276 0.8371
H19_4 H 0.2449 0.7518 0.8326
Co1_4 Co 0.300214(10) 0.810078(9) 0.946693(10)
N1_4 N 0.28213(7) 0.86107(7) 0.91750(7)
N2_4 N 0.35542(6) 0.81240(7) 0.91886(6)
N3_4 N 0.23909(11) 0.72852(11) 0.88550(11)
O2_4 O 0.46841(5) 0.81467(6) 0.74312(5)
O3_4 O 0.28033(6) 0.77910(6) 0.89714(6)
O4_8 O 0.32528(7) 0.83668(10) 1.0000
O5_4 O 0.19667(5) 0.96709(5) 0.75459(5)
C31_4 C 0.61350(10) 0.79866(11) 0.93372(9)
H25_4 H 0.6154 0.7873 0.9580
C32_4 C 0.57819(9) 0.79948(10) 0.91684(9)
H26_4 H 0.5572 0.7897 0.9305
C33_4 C 0.57227(8) 0.81353(10) 0.88186(8)
C34_4 C 0.60509(9) 0.83053(10) 0.86489(10)
H27_4 H 0.6040 0.8420 0.8407
C35_4 C 0.63845(9) 0.82932(10) 0.88554(9)
H28_4 H 0.6595 0.8420 0.8747
C36_4 C 0.53478(8) 0.81543(8) 0.86211(8)
C37_4 C 0.53458(8) 0.81524(9) 0.82203(8)
H29_4 H 0.5578 0.8141 0.8086
N5_4 N 0.64458(6) 0.81240(7) 0.91886(6)
O6_4 O 0.53159(5) 0.81467(6) 0.74312(5)
Co3_4 Co 0.189922(9) 0.946693(10) 0.699786(10)
Co4_4 Co 0.553307(10) 0.800214(10) 0.689922(9)
Co8_4 Co 0.446693(10) 0.800214(10) 0.689922(9)
O8_4 O 0.24541(5) 0.80333(5) 0.96709(5)
O10_4 O 0.31467(6) 0.75688(5) 0.96841(5)
O11_8 O 0.16332(10) 1.0000 0.67472(7)
C1_5 C 0.08202(10) 0.30453(10) 0.10753(9)
H1_5 H 0.0687 0.3278 0.1086
C2_5 C 0.10031(9) 0.29464(9) 0.07362(9)
H2_5 H 0.1000 0.3112 0.0525
C3_5 C 0.11911(8) 0.25970(9) 0.07169(8)
C4_5 C 0.11982(9) 0.23763(9) 0.10405(9)
H3_5 H 0.1334 0.2145 0.1042
C5_5 C 0.10057(10) 0.24930(8) 0.13649(9)
H4_5 H 0.1004 0.2330 0.1578
C6_9 C 0.11986(13) 0.25782(14) -0.0000
H5_9 H 0.0961 0.2704 -0.0000
C7_5 C 0.13781(8) 0.24832(8) 0.03492(7)
C8_5 C 0.17318(8) 0.22935(8) 0.03462(8)
H6_5 H 0.1853 0.2232 0.0578
C9_9 C 0.19041(10) 0.21970(12) -0.0000
C10_9 C 0.23030(11) 0.20253(11) -0.0000
C11_5 C 0.06628(9) 0.38650(10) 0.20134(11)
H7_5 H 0.0420 0.3846 0.2127
C12_5 C 0.08316(9) 0.42181(9) 0.20052(10)
H8_5 H 0.0695 0.4428 0.2103
C13_5 C 0.11814(8) 0.42773(8) 0.18647(10)
C14_5 C 0.13511(10) 0.39491(9) 0.16947(10)
H9_5 H 0.1593 0.3960 0.1580
C15_5 C 0.11446(9) 0.36155(9) 0.17068(10)
H10_5 H 0.1253 0.3405 0.1580
C16_5 C 0.11809(12) 0.5000 0.18491(14)
H11_5 H 0.0912 0.5000 0.1854
C17_5 C 0.13789(8) 0.46522(8) 0.18457(8)
C18_5 C 0.17797(8) 0.46542(8) 0.18476(9)
H12_5 H 0.1914 0.4422 0.1859
C19_5 C 0.19820(10) 0.5000 0.18321(11)
C20_5 C 0.24125(11) 0.5000 0.18467(11)
C21_5 C 0.09320(12) 0.26411(11) 0.25001(11)
H13_5 H 0.0684 0.2693 0.2588
C22_5 C 0.10024(14) 0.21909(13) 0.30546(11)
H14_5 H 0.0809 0.2346 0.3178
H15_5 H 0.1212 0.2147 0.3231
H16_5 H 0.0892 0.1948 0.2979
C23_5 C 0.15043(13) 0.22384(13) 0.25432(13)
H17_5 H 0.1444 0.2098 0.2312
H18_5 H 0.1629 0.2069 0.2724
H19_5 H 0.1674 0.2449 0.2482
Co1_5 Co 0.053307(10) 0.300214(10) 0.189922(9)
N1_5 N 0.08250(7) 0.28213(7) 0.13893(7)
N2_5 N 0.08114(6) 0.35542(6) 0.18760(7)
N3_5 N 0.11450(11) 0.23909(11) 0.27148(11)
O2_5 O 0.25688(5) 0.46841(5) 0.18533(6)
O3_5 O 0.10286(6) 0.28033(6) 0.22090(6)
O4_9 O -0.0000 0.32528(7) 0.16332(10)
C31_5 C 0.06628(9) 0.61350(10) 0.20134(11)
H25_5 H 0.0420 0.6154 0.2127
C32_5 C 0.08316(9) 0.57819(9) 0.20052(10)
H26_5 H 0.0695 0.5572 0.2103
C33_5 C 0.11814(8) 0.57227(8) 0.18647(10)
C34_5 C 0.13511(10) 0.60509(9) 0.16947(10)
H27_5 H 0.1593 0.6040 0.1580
C35_5 C 0.11446(9) 0.63845(9) 0.17068(10)
H28_5 H 0.1253 0.6595 0.1580
C36_5 C 0.13789(8) 0.53478(8) 0.18457(8)
C37_5 C 0.17797(8) 0.53458(8) 0.18476(9)
H29_5 H 0.1914 0.5578 0.1859
N5_5 N 0.08114(6) 0.64458(6) 0.18760(7)
O6_5 O 0.25688(5) 0.53159(5) 0.18533(6)
Co4_5 Co 0.310078(9) 0.553307(10) 0.199786(10)
Co7_2 Co 0.053307(10) 0.699786(10) 0.189922(9)
Co8_5 Co 0.310078(9) 0.446693(10) 0.199786(10)
O8_5 O 0.03291(5) 0.24541(5) 0.19667(5)
O10_5 O 0.03159(5) 0.31467(6) 0.24312(5)
C6_10 C 0.11986(13) 0.25782(14) 1.0000
H5_10 H 0.0961 0.2704 1.0000
C9_10 C 0.19041(10) 0.21970(12) 1.0000
C10_10 C 0.23030(11) 0.20253(11) 1.0000
O1_5 O 0.24541(5) 0.19667(5) 0.96709(5)
C24_5 C 0.08202(10) 0.30453(10) 0.89247(9)
H20_5 H 0.0687 0.3278 0.8914
C25_5 C 0.10031(9) 0.29464(9) 0.92638(9)
H21_5 H 0.1000 0.3112 0.9475
C26_5 C 0.11911(8) 0.25970(9) 0.92831(8)
C27_5 C 0.11982(9) 0.23763(9) 0.89595(9)
H22_5 H 0.1334 0.2145 0.8958
C28_5 C 0.10057(10) 0.24930(8) 0.86351(9)
H23_5 H 0.1004 0.2330 0.8422
C29_5 C 0.13781(8) 0.24832(8) 0.96508(7)
C30_5 C 0.17318(8) 0.22935(8) 0.96538(8)
H24_5 H 0.1853 0.2232 0.9422
N4_5 N 0.08250(7) 0.28213(7) 0.86107(7)
C38_5 C 0.26411(11) 0.25001(11) 0.90680(12)
H30_5 H 0.2693 0.2588 0.9316
C39_5 C 0.21909(13) 0.30546(11) 0.89976(14)
H31_5 H 0.2346 0.3178 0.9191
H32_5 H 0.2147 0.3231 0.8788
H33_5 H 0.1948 0.2979 0.9108
C40_5 C 0.22384(13) 0.25432(13) 0.84957(13)
H34_5 H 0.2098 0.2312 0.8556
H35_5 H 0.2069 0.2724 0.8371
H36_5 H 0.2449 0.2482 0.8326
N6_5 N 0.23909(11) 0.27148(11) 0.88550(11)
O7_5 O 0.28033(6) 0.22090(6) 0.89714(6)
Co6_2 Co 0.053307(10) 0.300214(10) 0.810078(9)
O9_5 O 0.31467(6) 0.24312(5) 0.96841(5)
O4_10 O 1.0000 0.32528(7) 0.16332(10)
Co5_3 Co 0.946693(10) 0.300214(10) 0.189922(9)
C6_11 C 0.11986(13) 0.74218(14) 0.0000
H5_11 H 0.0961 0.7296 0.0000
C9_11 C 0.19041(10) 0.78030(12) 0.0000
C10_11 C 0.23030(11) 0.79747(11) 0.0000
O1_6 O 0.24541(5) 0.80333(5) 0.03291(5)
C24_6 C 0.08202(10) 0.69547(10) 0.10753(9)
H20_6 H 0.0687 0.6722 0.1086
C25_6 C 0.10031(9) 0.70536(9) 0.07362(9)
H21_6 H 0.1000 0.6888 0.0525
C26_6 C 0.11911(8) 0.74030(9) 0.07169(8)
C27_6 C 0.11982(9) 0.76237(9) 0.10405(9)
H22_6 H 0.1334 0.7855 0.1042
C28_6 C 0.10057(10) 0.75070(8) 0.13649(9)
H23_6 H 0.1004 0.7670 0.1578
C29_6 C 0.13781(8) 0.75168(8) 0.03492(7)
C30_6 C 0.17318(8) 0.77065(8) 0.03462(8)
H24_6 H 0.1853 0.7768 0.0578
N4_6 N 0.08250(7) 0.71787(7) 0.13893(7)
C38_6 C 0.26411(11) 0.74999(11) 0.09320(12)
H30_6 H 0.2693 0.7412 0.0684
C39_6 C 0.21909(13) 0.69454(11) 0.10024(14)
H31_6 H 0.2346 0.6822 0.0809
H32_6 H 0.2147 0.6769 0.1212
H33_6 H 0.1948 0.7021 0.0892
C40_6 C 0.22384(13) 0.74568(13) 0.15043(13)
H34_6 H 0.2098 0.7688 0.1444
H35_6 H 0.2069 0.7276 0.1629
H36_6 H 0.2449 0.7518 0.1674
N6_6 N 0.23909(11) 0.72852(11) 0.11450(11)
O7_6 O 0.28033(6) 0.77910(6) 0.10286(6)
O9_6 O 0.31467(6) 0.75688(5) 0.03159(5)
C1_6 C 0.08202(10) 0.69547(10) 0.89247(9)
H1_6 H 0.0687 0.6722 0.8914
C2_6 C 0.10031(9) 0.70536(9) 0.92638(9)
H2_6 H 0.1000 0.6888 0.9475
C3_6 C 0.11911(8) 0.74030(9) 0.92831(8)
C4_6 C 0.11982(9) 0.76237(9) 0.89595(9)
H3_6 H 0.1334 0.7855 0.8958
C5_6 C 0.10057(10) 0.75070(8) 0.86351(9)
H4_6 H 0.1004 0.7670 0.8422
C6_12 C 0.11986(13) 0.74218(14) 1.0000
H5_12 H 0.0961 0.7296 1.0000
C7_6 C 0.13781(8) 0.75168(8) 0.96508(7)
C8_6 C 0.17318(8) 0.77065(8) 0.96538(8)
H6_6 H 0.1853 0.7768 0.9422
C9_12 C 0.19041(10) 0.78030(12) 1.0000
C10_12 C 0.23030(11) 0.79747(11) 1.0000
C11_6 C 0.06628(9) 0.61350(10) 0.79866(11)
H7_6 H 0.0420 0.6154 0.7873
C12_6 C 0.08316(9) 0.57819(9) 0.79948(10)
H8_6 H 0.0695 0.5572 0.7897
C13_6 C 0.11814(8) 0.57227(8) 0.81353(10)
C14_6 C 0.13511(10) 0.60509(9) 0.83053(10)
H9_6 H 0.1593 0.6040 0.8420
C15_6 C 0.11446(9) 0.63845(9) 0.82932(10)
H10_6 H 0.1253 0.6595 0.8420
C16_6 C 0.11809(12) 0.5000 0.81509(14)
H11_6 H 0.0912 0.5000 0.8146
C17_6 C 0.13789(8) 0.53478(8) 0.81543(8)
C18_6 C 0.17797(8) 0.53458(8) 0.81524(9)
H12_6 H 0.1914 0.5578 0.8141
C19_6 C 0.19820(10) 0.5000 0.81679(11)
C20_6 C 0.24125(11) 0.5000 0.81533(11)
C21_6 C 0.09320(12) 0.73589(11) 0.74999(11)
H13_6 H 0.0684 0.7307 0.7412
C22_6 C 0.10024(14) 0.78091(13) 0.69454(11)
H14_6 H 0.0809 0.7654 0.6822
H15_6 H 0.1212 0.7853 0.6769
H16_6 H 0.0892 0.8052 0.7021
C23_6 C 0.15043(13) 0.77616(13) 0.74568(13)
H17_6 H 0.1444 0.7902 0.7688
H18_6 H 0.1629 0.7931 0.7276
H19_6 H 0.1674 0.7551 0.7518
Co1_6 Co 0.053307(10) 0.699786(10) 0.810078(9)
N1_6 N 0.08250(7) 0.71787(7) 0.86107(7)
N2_6 N 0.08114(6) 0.64458(6) 0.81240(7)
N3_6 N 0.11450(11) 0.76091(11) 0.72852(11)
O2_6 O 0.25688(5) 0.53159(5) 0.81467(6)
O3_6 O 0.10286(6) 0.71967(6) 0.77910(6)
O4_11 O -0.0000 0.67472(7) 0.83668(10)
C31_6 C 0.06628(9) 0.38650(10) 0.79866(11)
H25_6 H 0.0420 0.3846 0.7873
C32_6 C 0.08316(9) 0.42181(9) 0.79948(10)
H26_6 H 0.0695 0.4428 0.7897
C33_6 C 0.11814(8) 0.42773(8) 0.81353(10)
C34_6 C 0.13511(10) 0.39491(9) 0.83053(10)
H27_6 H 0.1593 0.3960 0.8420
C35_6 C 0.11446(9) 0.36155(9) 0.82932(10)
H28_6 H 0.1253 0.3405 0.8420
C36_6 C 0.13789(8) 0.46522(8) 0.81543(8)
C37_6 C 0.17797(8) 0.46542(8) 0.81524(9)
H29_6 H 0.1914 0.4422 0.8141
N5_6 N 0.08114(6) 0.35542(6) 0.81240(7)
O6_6 O 0.25688(5) 0.46841(5) 0.81467(6)
Co4_6 Co 0.310078(9) 0.446693(10) 0.800214(10)
Co8_6 Co 0.310078(9) 0.553307(10) 0.800214(10)
O8_6 O 0.03291(5) 0.75459(5) 0.80333(5)
O10_6 O 0.03159(5) 0.68533(6) 0.75688(5)
O4_12 O 1.0000 0.67472(7) 0.83668(10)
Co5_4 Co 0.946693(10) 0.699786(10) 0.810078(9)
O4_13 O -0.0000 0.67472(7) 0.16332(10)
C1_7 C 0.91798(10) 0.69547(10) 0.10753(9)
H1_7 H 0.9313 0.6722 0.1086
C2_7 C 0.89969(9) 0.70536(9) 0.07362(9)
H2_7 H 0.9000 0.6888 0.0525
C3_7 C 0.88089(8) 0.74030(9) 0.07169(8)
C4_7 C 0.88018(9) 0.76237(9) 0.10405(9)
H3_7 H 0.8666 0.7855 0.1042
C5_7 C 0.89943(10) 0.75070(8) 0.13649(9)
H4_7 H 0.8996 0.7670 0.1578
C6_13 C 0.88014(13) 0.74218(14) -0.0000
H5_13 H 0.9039 0.7296 -0.0000
C7_7 C 0.86219(8) 0.75168(8) 0.03492(7)
C8_7 C 0.82682(8) 0.77065(8) 0.03462(8)
H6_7 H 0.8147 0.7768 0.0578
C9_13 C 0.80959(10) 0.78030(12) -0.0000
C10_13 C 0.76970(11) 0.79747(11) -0.0000
C11_7 C 0.93372(9) 0.61350(10) 0.20134(11)
H7_7 H 0.9580 0.6154 0.2127
C12_7 C 0.91684(9) 0.57819(9) 0.20052(10)
H8_7 H 0.9305 0.5572 0.2103
C13_7 C 0.88186(8) 0.57227(8) 0.18647(10)
C14_7 C 0.86489(10) 0.60509(9) 0.16947(10)
H9_7 H 0.8407 0.6040 0.1580
C15_7 C 0.88554(9) 0.63845(9) 0.17068(10)
H10_7 H 0.8747 0.6595 0.1580
C16_7 C 0.88191(12) 0.5000 0.18491(14)
H11_7 H 0.9088 0.5000 0.1854
C17_7 C 0.86211(8) 0.53478(8) 0.18457(8)
C18_7 C 0.82203(8) 0.53458(8) 0.18476(9)
H12_7 H 0.8086 0.5578 0.1859
C19_7 C 0.80180(10) 0.5000 0.18321(11)
C20_7 C 0.75875(11) 0.5000 0.18467(11)
C21_7 C 0.90680(12) 0.73589(11) 0.25001(11)
H13_7 H 0.9316 0.7307 0.2588
C22_7 C 0.89976(14) 0.78091(13) 0.30546(11)
H14_7 H 0.9191 0.7654 0.3178
H15_7 H 0.8788 0.7853 0.3231
H16_7 H 0.9108 0.8052 0.2979
C23_7 C 0.84957(13) 0.77616(13) 0.25432(13)
H17_7 H 0.8556 0.7902 0.2312
H18_7 H 0.8371 0.7931 0.2724
H19_7 H 0.8326 0.7551 0.2482
Co1_7 Co 0.946693(10) 0.699786(10) 0.189922(9)
N1_7 N 0.91750(7) 0.71787(7) 0.13893(7)
N2_7 N 0.91886(6) 0.64458(6) 0.18760(7)
N3_7 N 0.88550(11) 0.76091(11) 0.27148(11)
O2_7 O 0.74312(5) 0.53159(5) 0.18533(6)
O3_7 O 0.89714(6) 0.71967(6) 0.22090(6)
O4_14 O 1.0000 0.67472(7) 0.16332(10)
C31_7 C 0.93372(9) 0.38650(10) 0.20134(11)
H25_7 H 0.9580 0.3846 0.2127
C32_7 C 0.91684(9) 0.42181(9) 0.20052(10)
H26_7 H 0.9305 0.4428 0.2103
C33_7 C 0.88186(8) 0.42773(8) 0.18647(10)
C34_7 C 0.86489(10) 0.39491(9) 0.16947(10)
H27_7 H 0.8407 0.3960 0.1580
C35_7 C 0.88554(9) 0.36155(9) 0.17068(10)
H28_7 H 0.8747 0.3405 0.1580
C36_7 C 0.86211(8) 0.46522(8) 0.18457(8)
C37_7 C 0.82203(8) 0.46542(8) 0.18476(9)
H29_7 H 0.8086 0.4422 0.1859
N5_7 N 0.91886(6) 0.35542(6) 0.18760(7)
O6_7 O 0.74312(5) 0.46841(5) 0.18533(6)
Co4_7 Co 0.689922(9) 0.446693(10) 0.199786(10)
Co8_7 Co 0.689922(9) 0.553307(10) 0.199786(10)
O8_7 O 0.96709(5) 0.75459(5) 0.19667(5)
O10_7 O 0.96841(5) 0.68533(6) 0.24312(5)
C6_14 C 0.88014(13) 0.74218(14) 1.0000
H5_14 H 0.9039 0.7296 1.0000
C9_14 C 0.80959(10) 0.78030(12) 1.0000
C10_14 C 0.76970(11) 0.79747(11) 1.0000
O1_7 O 0.75459(5) 0.80333(5) 0.96709(5)
C24_7 C 0.91798(10) 0.69547(10) 0.89247(9)
H20_7 H 0.9313 0.6722 0.8914
C25_7 C 0.89969(9) 0.70536(9) 0.92638(9)
H21_7 H 0.9000 0.6888 0.9475
C26_7 C 0.88089(8) 0.74030(9) 0.92831(8)
C27_7 C 0.88018(9) 0.76237(9) 0.89595(9)
H22_7 H 0.8666 0.7855 0.8958
C28_7 C 0.89943(10) 0.75070(8) 0.86351(9)
H23_7 H 0.8996 0.7670 0.8422
C29_7 C 0.86219(8) 0.75168(8) 0.96508(7)
C30_7 C 0.82682(8) 0.77065(8) 0.96538(8)
H24_7 H 0.8147 0.7768 0.9422
N4_7 N 0.91750(7) 0.71787(7) 0.86107(7)
C38_7 C 0.73589(11) 0.74999(11) 0.90680(12)
H30_7 H 0.7307 0.7412 0.9316
C39_7 C 0.78091(13) 0.69454(11) 0.89976(14)
H31_7 H 0.7654 0.6822 0.9191
H32_7 H 0.7853 0.6769 0.8788
H33_7 H 0.8052 0.7021 0.9108
C40_7 C 0.77616(13) 0.74568(13) 0.84957(13)
H34_7 H 0.7902 0.7688 0.8556
H35_7 H 0.7931 0.7276 0.8371
H36_7 H 0.7551 0.7518 0.8326
N6_7 N 0.76091(11) 0.72852(11) 0.88550(11)
O7_7 O 0.71967(6) 0.77910(6) 0.89714(6)
O9_7 O 0.68533(6) 0.75688(5) 0.96841(5)
O4_15 O -0.0000 0.32528(7) 0.83668(10)
C6_15 C 0.88014(13) 0.25782(14) 0.0000
H5_15 H 0.9039 0.2704 0.0000
C9_15 C 0.80959(10) 0.21970(12) 0.0000
C10_15 C 0.76970(11) 0.20253(11) 0.0000
O1_8 O 0.75459(5) 0.19667(5) 0.03291(5)
C24_8 C 0.91798(10) 0.30453(10) 0.10753(9)
H20_8 H 0.9313 0.3278 0.1086
C25_8 C 0.89969(9) 0.29464(9) 0.07362(9)
H21_8 H 0.9000 0.3112 0.0525
C26_8 C 0.88089(8) 0.25970(9) 0.07169(8)
C27_8 C 0.88018(9) 0.23763(9) 0.10405(9)
H22_8 H 0.8666 0.2145 0.1042
C28_8 C 0.89943(10) 0.24930(8) 0.13649(9)
H23_8 H 0.8996 0.2330 0.1578
C29_8 C 0.86219(8) 0.24832(8) 0.03492(7)
C30_8 C 0.82682(8) 0.22935(8) 0.03462(8)
H24_8 H 0.8147 0.2232 0.0578
N4_8 N 0.91750(7) 0.28213(7) 0.13893(7)
C38_8 C 0.73589(11) 0.25001(11) 0.09320(12)
H30_8 H 0.7307 0.2588 0.0684
C39_8 C 0.78091(13) 0.30546(11) 0.10024(14)
H31_8 H 0.7654 0.3178 0.0809
H32_8 H 0.7853 0.3231 0.1212
H33_8 H 0.8052 0.2979 0.0892
C40_8 C 0.77616(13) 0.25432(13) 0.15043(13)
H34_8 H 0.7902 0.2312 0.1444
H35_8 H 0.7931 0.2724 0.1629
H36_8 H 0.7551 0.2482 0.1674
N6_8 N 0.76091(11) 0.27148(11) 0.11450(11)
O7_8 O 0.71967(6) 0.22090(6) 0.10286(6)
O9_8 O 0.68533(6) 0.24312(5) 0.03159(5)
C1_8 C 0.91798(10) 0.30453(10) 0.89247(9)
H1_8 H 0.9313 0.3278 0.8914
C2_8 C 0.89969(9) 0.29464(9) 0.92638(9)
H2_8 H 0.9000 0.3112 0.9475
C3_8 C 0.88089(8) 0.25970(9) 0.92831(8)
C4_8 C 0.88018(9) 0.23763(9) 0.89595(9)
H3_8 H 0.8666 0.2145 0.8958
C5_8 C 0.89943(10) 0.24930(8) 0.86351(9)
H4_8 H 0.8996 0.2330 0.8422
C6_16 C 0.88014(13) 0.25782(14) 1.0000
H5_16 H 0.9039 0.2704 1.0000
C7_8 C 0.86219(8) 0.24832(8) 0.96508(7)
C8_8 C 0.82682(8) 0.22935(8) 0.96538(8)
H6_8 H 0.8147 0.2232 0.9422
C9_16 C 0.80959(10) 0.21970(12) 1.0000
C10_16 C 0.76970(11) 0.20253(11) 1.0000
C11_8 C 0.93372(9) 0.38650(10) 0.79866(11)
H7_8 H 0.9580 0.3846 0.7873
C12_8 C 0.91684(9) 0.42181(9) 0.79948(10)
H8_8 H 0.9305 0.4428 0.7897
C13_8 C 0.88186(8) 0.42773(8) 0.81353(10)
C14_8 C 0.86489(10) 0.39491(9) 0.83053(10)
H9_8 H 0.8407 0.3960 0.8420
C15_8 C 0.88554(9) 0.36155(9) 0.82932(10)
H10_8 H 0.8747 0.3405 0.8420
C16_8 C 0.88191(12) 0.5000 0.81509(14)
H11_8 H 0.9088 0.5000 0.8146
C17_8 C 0.86211(8) 0.46522(8) 0.81543(8)
C18_8 C 0.82203(8) 0.46542(8) 0.81524(9)
H12_8 H 0.8086 0.4422 0.8141
C19_8 C 0.80180(10) 0.5000 0.81679(11)
C20_8 C 0.75875(11) 0.5000 0.81533(11)
C21_8 C 0.90680(12) 0.26411(11) 0.74999(11)
H13_8 H 0.9316 0.2693 0.7412
C22_8 C 0.89976(14) 0.21909(13) 0.69454(11)
H14_8 H 0.9191 0.2346 0.6822
H15_8 H 0.8788 0.2147 0.6769
H16_8 H 0.9108 0.1948 0.7021
C23_8 C 0.84957(13) 0.22384(13) 0.74568(13)
H17_8 H 0.8556 0.2098 0.7688
H18_8 H 0.8371 0.2069 0.7276
H19_8 H 0.8326 0.2449 0.7518
Co1_8 Co 0.946693(10) 0.300214(10) 0.810078(9)
N1_8 N 0.91750(7) 0.28213(7) 0.86107(7)
N2_8 N 0.91886(6) 0.35542(6) 0.81240(7)
N3_8 N 0.88550(11) 0.23909(11) 0.72852(11)
O2_8 O 0.74312(5) 0.46841(5) 0.81467(6)
O3_8 O 0.89714(6) 0.28033(6) 0.77910(6)
O4_16 O 1.0000 0.32528(7) 0.83668(10)
C31_8 C 0.93372(9) 0.61350(10) 0.79866(11)
H25_8 H 0.9580 0.6154 0.7873
C32_8 C 0.91684(9) 0.57819(9) 0.79948(10)
H26_8 H 0.9305 0.5572 0.7897
C33_8 C 0.88186(8) 0.57227(8) 0.81353(10)
C34_8 C 0.86489(10) 0.60509(9) 0.83053(10)
H27_8 H 0.8407 0.6040 0.8420
C35_8 C 0.88554(9) 0.63845(9) 0.82932(10)
H28_8 H 0.8747 0.6595 0.8420
C36_8 C 0.86211(8) 0.53478(8) 0.81543(8)
C37_8 C 0.82203(8) 0.53458(8) 0.81524(9)
H29_8 H 0.8086 0.5578 0.8141
N5_8 N 0.91886(6) 0.64458(6) 0.81240(7)
O6_8 O 0.74312(5) 0.53159(5) 0.81467(6)
Co4_8 Co 0.689922(9) 0.553307(10) 0.800214(10)
Co8_8 Co 0.689922(9) 0.446693(10) 0.800214(10)
O8_8 O 0.96709(5) 0.24541(5) 0.80333(5)
O10_8 O 0.96841(5) 0.31467(6) 0.75688(5)
C1_9 C 0.10753(9) 0.08202(10) 0.30453(10)
H1_9 H 0.1086 0.0687 0.3278
C2_9 C 0.07362(9) 0.10031(9) 0.29464(9)
H2_9 H 0.0525 0.1000 0.3112
C3_9 C 0.07169(8) 0.11911(8) 0.25970(9)
C4_9 C 0.10405(9) 0.11982(9) 0.23763(9)
H3_9 H 0.1042 0.1334 0.2145
C5_9 C 0.13649(9) 0.10057(10) 0.24930(8)
H4_9 H 0.1578 0.1004 0.2330
C6_17 C -0.0000 0.11986(13) 0.25782(14)
H5_17 H -0.0000 0.0961 0.2704
C7_9 C 0.03492(7) 0.13781(8) 0.24832(8)
C8_9 C 0.03462(8) 0.17318(8) 0.22935(8)
H6_9 H 0.0578 0.1853 0.2232
C9_17 C -0.0000 0.19041(10) 0.21970(12)
C10_17 C -0.0000 0.23030(11) 0.20253(11)
C11_9 C 0.20134(11) 0.06628(9) 0.38650(10)
H7_9 H 0.2127 0.0420 0.3846
C12_9 C 0.20052(10) 0.08316(9) 0.42181(9)
H8_9 H 0.2103 0.0695 0.4428
C13_9 C 0.18647(10) 0.11814(8) 0.42773(8)
C14_9 C 0.16947(10) 0.13511(10) 0.39491(9)
H9_9 H 0.1580 0.1593 0.3960
C15_9 C 0.17068(10) 0.11446(9) 0.36155(9)
H10_9 H 0.1580 0.1253 0.3405
C16_9 C 0.18491(14) 0.11809(12) 0.5000
H11_9 H 0.1854 0.0912 0.5000
C17_9 C 0.18457(8) 0.13789(8) 0.46522(8)
C18_9 C 0.18476(9) 0.17797(8) 0.46542(8)
H12_9 H 0.1859 0.1914 0.4422
C19_9 C 0.18321(11) 0.19820(10) 0.5000
C20_9 C 0.18467(11) 0.24125(11) 0.5000
C21_9 C 0.25001(11) 0.09320(12) 0.26411(11)
H13_9 H 0.2588 0.0684 0.2693
C22_9 C 0.30546(11) 0.10024(14) 0.21909(13)
H14_9 H 0.3178 0.0809 0.2346
H15_9 H 0.3231 0.1212 0.2147
H16_9 H 0.2979 0.0892 0.1948
C23_9 C 0.25432(13) 0.15043(13) 0.22384(13)
H17_9 H 0.2312 0.1444 0.2098
H18_9 H 0.2724 0.1629 0.2069
H19_9 H 0.2482 0.1674 0.2449
N1_9 N 0.13893(7) 0.08250(7) 0.28213(7)
N2_9 N 0.18760(7) 0.08114(6) 0.35542(6)
N3_9 N 0.27148(11) 0.11450(11) 0.23909(11)
O2_9 O 0.18533(6) 0.25688(5) 0.46841(5)
O3_9 O 0.22090(6) 0.10286(6) 0.28033(6)
C31_9 C 0.20134(11) 0.06628(9) 0.61350(10)
H25_9 H 0.2127 0.0420 0.6154
C32_9 C 0.20052(10) 0.08316(9) 0.57819(9)
H26_9 H 0.2103 0.0695 0.5572
C33_9 C 0.18647(10) 0.11814(8) 0.57227(8)
C34_9 C 0.16947(10) 0.13511(10) 0.60509(9)
H27_9 H 0.1580 0.1593 0.6040
C35_9 C 0.17068(10) 0.11446(9) 0.63845(9)
H28_9 H 0.1580 0.1253 0.6595
C36_9 C 0.18457(8) 0.13789(8) 0.53478(8)
C37_9 C 0.18476(9) 0.17797(8) 0.53458(8)
H29_9 H 0.1859 0.1914 0.5578
O6_9 O 0.18533(6) 0.25688(5) 0.53159(5)
Co4_9 Co 0.199786(10) 0.310078(9) 0.553307(10)
Co8_9 Co 0.199786(10) 0.310078(9) 0.446693(10)
O10_9 O 0.24312(5) 0.03159(5) 0.31467(6)
C6_18 C 1.0000 0.11986(13) 0.25782(14)
H5_18 H 1.0000 0.0961 0.2704
C9_18 C 1.0000 0.19041(10) 0.21970(12)
C10_18 C 1.0000 0.23030(11) 0.20253(11)
O1_9 O 0.96709(5) 0.24541(5) 0.19667(5)
C24_9 C 0.89247(9) 0.08202(10) 0.30453(10)
H20_9 H 0.8914 0.0687 0.3278
C25_9 C 0.92638(9) 0.10031(9) 0.29464(9)
H21_9 H 0.9475 0.1000 0.3112
C26_9 C 0.92831(8) 0.11911(8) 0.25970(9)
C27_9 C 0.89595(9) 0.11982(9) 0.23763(9)
H22_9 H 0.8958 0.1334 0.2145
C28_9 C 0.86351(9) 0.10057(10) 0.24930(8)
H23_9 H 0.8422 0.1004 0.2330
C29_9 C 0.96508(7) 0.13781(8) 0.24832(8)
C30_9 C 0.96538(8) 0.17318(8) 0.22935(8)
H24_9 H 0.9422 0.1853 0.2232
C38_9 C 0.90680(12) 0.26411(11) 0.25001(11)
H30_9 H 0.9316 0.2693 0.2588
C39_9 C 0.89976(14) 0.21909(13) 0.30546(11)
H31_9 H 0.9191 0.2346 0.3178
H32_9 H 0.8788 0.2147 0.3231
H33_9 H 0.9108 0.1948 0.2979
C40_9 C 0.84957(13) 0.22384(13) 0.25432(13)
H34_9 H 0.8556 0.2098 0.2312
H35_9 H 0.8371 0.2069 0.2724
H36_9 H 0.8326 0.2449 0.2482
N6_9 N 0.88550(11) 0.23909(11) 0.27148(11)
O7_9 O 0.89714(6) 0.28033(6) 0.22090(6)
O9_9 O 0.96841(5) 0.31467(6) 0.24312(5)
C6_19 C -0.0000 0.11986(13) 0.74218(14)
H5_19 H -0.0000 0.0961 0.7296
C9_19 C 0.0000 0.19041(10) 0.78030(12)
C10_19 C -0.0000 0.23030(11) 0.79747(11)
O1_10 O 0.03291(5) 0.24541(5) 0.80333(5)
C24_10 C 0.10753(9) 0.08202(10) 0.69547(10)
H20_10 H 0.1086 0.0687 0.6722
C25_10 C 0.07362(9) 0.10031(9) 0.70536(9)
H21_10 H 0.0525 0.1000 0.6888
C26_10 C 0.07169(8) 0.11911(8) 0.74030(9)
C27_10 C 0.10405(9) 0.11982(9) 0.76237(9)
H22_10 H 0.1042 0.1334 0.7855
C28_10 C 0.13649(9) 0.10057(10) 0.75070(8)
H23_10 H 0.1578 0.1004 0.7670
C29_10 C 0.03492(7) 0.13781(8) 0.75168(8)
C30_10 C 0.03462(8) 0.17318(8) 0.77065(8)
H24_10 H 0.0578 0.1853 0.7768
C38_10 C 0.09320(12) 0.26411(11) 0.74999(11)
H30_10 H 0.0684 0.2693 0.7412
C39_10 C 0.10024(14) 0.21909(13) 0.69454(11)
H31_10 H 0.0809 0.2346 0.6822
H32_10 H 0.1212 0.2147 0.6769
H33_10 H 0.0892 0.1948 0.7021
C40_10 C 0.15043(13) 0.22384(13) 0.74568(13)
H34_10 H 0.1444 0.2098 0.7688
H35_10 H 0.1629 0.2069 0.7276
H36_10 H 0.1674 0.2449 0.7518
N6_10 N 0.11450(11) 0.23909(11) 0.72852(11)
O7_10 O 0.10286(6) 0.28033(6) 0.77910(6)
O9_10 O 0.03159(5) 0.31467(6) 0.75688(5)
C1_10 C 0.89247(9) 0.08202(10) 0.69547(10)
H1_10 H 0.8914 0.0687 0.6722
C2_10 C 0.92638(9) 0.10031(9) 0.70536(9)
H2_10 H 0.9475 0.1000 0.6888
C3_10 C 0.92831(8) 0.11911(8) 0.74030(9)
C4_10 C 0.89595(9) 0.11982(9) 0.76237(9)
H3_10 H 0.8958 0.1334 0.7855
C5_10 C 0.86351(9) 0.10057(10) 0.75070(8)
H4_10 H 0.8422 0.1004 0.7670
C6_20 C 1.0000 0.11986(13) 0.74218(14)
H5_20 H 1.0000 0.0961 0.7296
C7_10 C 0.96508(7) 0.13781(8) 0.75168(8)
C8_10 C 0.96538(8) 0.17318(8) 0.77065(8)
H6_10 H 0.9422 0.1853 0.7768
C9_20 C 1.0000 0.19041(10) 0.78030(12)
C10_20 C 1.0000 0.23030(11) 0.79747(11)
C11_10 C 0.79866(11) 0.06628(9) 0.61350(10)
H7_10 H 0.7873 0.0420 0.6154
C12_10 C 0.79948(10) 0.08316(9) 0.57819(9)
H8_10 H 0.7897 0.0695 0.5572
C13_10 C 0.81353(10) 0.11814(8) 0.57227(8)
C14_10 C 0.83053(10) 0.13511(10) 0.60509(9)
H9_10 H 0.8420 0.1593 0.6040
C15_10 C 0.82932(10) 0.11446(9) 0.63845(9)
H10_10 H 0.8420 0.1253 0.6595
C16_10 C 0.81509(14) 0.11809(12) 0.5000
H11_10 H 0.8146 0.0912 0.5000
C17_10 C 0.81543(8) 0.13789(8) 0.53478(8)
C18_10 C 0.81524(9) 0.17797(8) 0.53458(8)
H12_10 H 0.8141 0.1914 0.5578
C19_10 C 0.81679(11) 0.19820(10) 0.5000
C20_10 C 0.81533(11) 0.24125(11) 0.5000
C21_10 C 0.74999(11) 0.09320(12) 0.73589(11)
H13_10 H 0.7412 0.0684 0.7307
C22_10 C 0.69454(11) 0.10024(14) 0.78091(13)
H14_10 H 0.6822 0.0809 0.7654
H15_10 H 0.6769 0.1212 0.7853
H16_10 H 0.7021 0.0892 0.8052
C23_10 C 0.74568(13) 0.15043(13) 0.77616(13)
H17_10 H 0.7688 0.1444 0.7902
H18_10 H 0.7276 0.1629 0.7931
H19_10 H 0.7518 0.1674 0.7551
N1_10 N 0.86107(7) 0.08250(7) 0.71787(7)
N2_10 N 0.81240(7) 0.08114(6) 0.64458(6)
N3_10 N 0.72852(11) 0.11450(11) 0.76091(11)
O2_10 O 0.81467(6) 0.25688(5) 0.53159(5)
O3_10 O 0.77910(6) 0.10286(6) 0.71967(6)
C31_10 C 0.79866(11) 0.06628(9) 0.38650(10)
H25_10 H 0.7873 0.0420 0.3846
C32_10 C 0.79948(10) 0.08316(9) 0.42181(9)
H26_10 H 0.7897 0.0695 0.4428
C33_10 C 0.81353(10) 0.11814(8) 0.42773(8)
C34_10 C 0.83053(10) 0.13511(10) 0.39491(9)
H27_10 H 0.8420 0.1593 0.3960
C35_10 C 0.82932(10) 0.11446(9) 0.36155(9)
H28_10 H 0.8420 0.1253 0.3405
C36_10 C 0.81543(8) 0.13789(8) 0.46522(8)
C37_10 C 0.81524(9) 0.17797(8) 0.46542(8)
H29_10 H 0.8141 0.1914 0.4422
O6_10 O 0.81467(6) 0.25688(5) 0.46841(5)
Co4_10 Co 0.800214(10) 0.310078(9) 0.446693(10)
Co8_10 Co 0.800214(10) 0.310078(9) 0.553307(10)
O10_10 O 0.75688(5) 0.03159(5) 0.68533(6)
C1_11 C 0.10753(9) 0.91798(10) 0.69547(10)
H1_11 H 0.1086 0.9313 0.6722
C2_11 C 0.07362(9) 0.89969(9) 0.70536(9)
H2_11 H 0.0525 0.9000 0.6888
C3_11 C 0.07169(8) 0.88089(8) 0.74030(9)
C4_11 C 0.10405(9) 0.88018(9) 0.76237(9)
H3_11 H 0.1042 0.8666 0.7855
C5_11 C 0.13649(9) 0.89943(10) 0.75070(8)
H4_11 H 0.1578 0.8996 0.7670
C6_21 C -0.0000 0.88014(13) 0.74218(14)
H5_21 H -0.0000 0.9039 0.7296
C7_11 C 0.03492(7) 0.86219(8) 0.75168(8)
C8_11 C 0.03462(8) 0.82682(8) 0.77065(8)
H6_11 H 0.0578 0.8147 0.7768
C9_21 C -0.0000 0.80959(10) 0.78030(12)
C10_21 C -0.0000 0.76970(11) 0.79747(11)
C11_11 C 0.20134(11) 0.93372(9) 0.61350(10)
H7_11 H 0.2127 0.9580 0.6154
C12_11 C 0.20052(10) 0.91684(9) 0.57819(9)
H8_11 H 0.2103 0.9305 0.5572
C13_11 C 0.18647(10) 0.88186(8) 0.57227(8)
C14_11 C 0.16947(10) 0.86489(10) 0.60509(9)
H9_11 H 0.1580 0.8407 0.6040
C15_11 C 0.17068(10) 0.88554(9) 0.63845(9)
H10_11 H 0.1580 0.8747 0.6595
C16_11 C 0.18491(14) 0.88191(12) 0.5000
H11_11 H 0.1854 0.9088 0.5000
C17_11 C 0.18457(8) 0.86211(8) 0.53478(8)
C18_11 C 0.18476(9) 0.82203(8) 0.53458(8)
H12_11 H 0.1859 0.8086 0.5578
C19_11 C 0.18321(11) 0.80180(10) 0.5000
C20_11 C 0.18467(11) 0.75875(11) 0.5000
C21_11 C 0.25001(11) 0.90680(12) 0.73589(11)
H13_11 H 0.2588 0.9316 0.7307
C22_11 C 0.30546(11) 0.89976(14) 0.78091(13)
H14_11 H 0.3178 0.9191 0.7654
H15_11 H 0.3231 0.8788 0.7853
H16_11 H 0.2979 0.9108 0.8052
C23_11 C 0.25432(13) 0.84957(13) 0.77616(13)
H17_11 H 0.2312 0.8556 0.7902
H18_11 H 0.2724 0.8371 0.7931
H19_11 H 0.2482 0.8326 0.7551
N1_11 N 0.13893(7) 0.91750(7) 0.71787(7)
N2_11 N 0.18760(7) 0.91886(6) 0.64458(6)
N3_11 N 0.27148(11) 0.88550(11) 0.76091(11)
O2_11 O 0.18533(6) 0.74312(5) 0.53159(5)
O3_11 O 0.22090(6) 0.89714(6) 0.71967(6)
C31_11 C 0.20134(11) 0.93372(9) 0.38650(10)
H25_11 H 0.2127 0.9580 0.3846
C32_11 C 0.20052(10) 0.91684(9) 0.42181(9)
H26_11 H 0.2103 0.9305 0.4428
C33_11 C 0.18647(10) 0.88186(8) 0.42773(8)
C34_11 C 0.16947(10) 0.86489(10) 0.39491(9)
H27_11 H 0.1580 0.8407 0.3960
C35_11 C 0.17068(10) 0.88554(9) 0.36155(9)
H28_11 H 0.1580 0.8747 0.3405
C36_11 C 0.18457(8) 0.86211(8) 0.46522(8)
C37_11 C 0.18476(9) 0.82203(8) 0.46542(8)
H29_11 H 0.1859 0.8086 0.4422
O6_11 O 0.18533(6) 0.74312(5) 0.46841(5)
Co4_11 Co 0.199786(10) 0.689922(9) 0.446693(10)
Co8_11 Co 0.199786(10) 0.689922(9) 0.553307(10)
O10_11 O 0.24312(5) 0.96841(5) 0.68533(6)
C6_22 C 1.0000 0.88014(13) 0.74218(14)
H5_22 H 1.0000 0.9039 0.7296
C9_22 C 1.0000 0.80959(10) 0.78030(12)
C10_22 C 1.0000 0.76970(11) 0.79747(11)
O1_11 O 0.96709(5) 0.75459(5) 0.80333(5)
C24_11 C 0.89247(9) 0.91798(10) 0.69547(10)
H20_11 H 0.8914 0.9313 0.6722
C25_11 C 0.92638(9) 0.89969(9) 0.70536(9)
H21_11 H 0.9475 0.9000 0.6888
C26_11 C 0.92831(8) 0.88089(8) 0.74030(9)
C27_11 C 0.89595(9) 0.88018(9) 0.76237(9)
H22_11 H 0.8958 0.8666 0.7855
C28_11 C 0.86351(9) 0.89943(10) 0.75070(8)
H23_11 H 0.8422 0.8996 0.7670
C29_11 C 0.96508(7) 0.86219(8) 0.75168(8)
C30_11 C 0.96538(8) 0.82682(8) 0.77065(8)
H24_11 H 0.9422 0.8147 0.7768
C38_11 C 0.90680(12) 0.73589(11) 0.74999(11)
H30_11 H 0.9316 0.7307 0.7412
C39_11 C 0.89976(14) 0.78091(13) 0.69454(11)
H31_11 H 0.9191 0.7654 0.6822
H32_11 H 0.8788 0.7853 0.6769
H33_11 H 0.9108 0.8052 0.7021
C40_11 C 0.84957(13) 0.77616(13) 0.74568(13)
H34_11 H 0.8556 0.7902 0.7688
H35_11 H 0.8371 0.7931 0.7276
H36_11 H 0.8326 0.7551 0.7518
N6_11 N 0.88550(11) 0.76091(11) 0.72852(11)
O7_11 O 0.89714(6) 0.71967(6) 0.77910(6)
O9_11 O 0.96841(5) 0.68533(6) 0.75688(5)
C6_23 C -0.0000 0.88014(13) 0.25782(14)
H5_23 H -0.0000 0.9039 0.2704
C9_23 C -0.0000 0.80959(10) 0.21970(12)
C10_23 C -0.0000 0.76970(11) 0.20253(11)
O1_12 O 0.03291(5) 0.75459(5) 0.19667(5)
C24_12 C 0.10753(9) 0.91798(10) 0.30453(10)
H20_12 H 0.1086 0.9313 0.3278
C25_12 C 0.07362(9) 0.89969(9) 0.29464(9)
H21_12 H 0.0525 0.9000 0.3112
C26_12 C 0.07169(8) 0.88089(8) 0.25970(9)
C27_12 C 0.10405(9) 0.88018(9) 0.23763(9)
H22_12 H 0.1042 0.8666 0.2145
C28_12 C 0.13649(9) 0.89943(10) 0.24930(8)
H23_12 H 0.1578 0.8996 0.2330
C29_12 C 0.03492(7) 0.86219(8) 0.24832(8)
C30_12 C 0.03462(8) 0.82682(8) 0.22935(8)
H24_12 H 0.0578 0.8147 0.2232
C38_12 C 0.09320(12) 0.73589(11) 0.25001(11)
H30_12 H 0.0684 0.7307 0.2588
C39_12 C 0.10024(14) 0.78091(13) 0.30546(11)
H31_12 H 0.0809 0.7654 0.3178
H32_12 H 0.1212 0.7853 0.3231
H33_12 H 0.0892 0.8052 0.2979
C40_12 C 0.15043(13) 0.77616(13) 0.25432(13)
H34_12 H 0.1444 0.7902 0.2312
H35_12 H 0.1629 0.7931 0.2724
H36_12 H 0.1674 0.7551 0.2482
N6_12 N 0.11450(11) 0.76091(11) 0.27148(11)
O7_12 O 0.10286(6) 0.71967(6) 0.22090(6)
O9_12 O 0.03159(5) 0.68533(6) 0.24312(5)
C1_12 C 0.89247(9) 0.91798(10) 0.30453(10)
H1_12 H 0.8914 0.9313 0.3278
C2_12 C 0.92638(9) 0.89969(9) 0.29464(9)
H2_12 H 0.9475 0.9000 0.3112
C3_12 C 0.92831(8) 0.88089(8) 0.25970(9)
C4_12 C 0.89595(9) 0.88018(9) 0.23763(9)
H3_12 H 0.8958 0.8666 0.2145
C5_12 C 0.86351(9) 0.89943(10) 0.24930(8)
H4_12 H 0.8422 0.8996 0.2330
C6_24 C 1.0000 0.88014(13) 0.25782(14)
H5_24 H 1.0000 0.9039 0.2704
C7_12 C 0.96508(7) 0.86219(8) 0.24832(8)
C8_12 C 0.96538(8) 0.82682(8) 0.22935(8)
H6_12 H 0.9422 0.8147 0.2232
C9_24 C 1.0000 0.80959(10) 0.21970(12)
C10_24 C 1.0000 0.76970(11) 0.20253(11)
C11_12 C 0.79866(11) 0.93372(9) 0.38650(10)
H7_12 H 0.7873 0.9580 0.3846
C12_12 C 0.79948(10) 0.91684(9) 0.42181(9)
H8_12 H 0.7897 0.9305 0.4428
C13_12 C 0.81353(10) 0.88186(8) 0.42773(8)
C14_12 C 0.83053(10) 0.86489(10) 0.39491(9)
H9_12 H 0.8420 0.8407 0.3960
C15_12 C 0.82932(10) 0.88554(9) 0.36155(9)
H10_12 H 0.8420 0.8747 0.3405
C16_12 C 0.81509(14) 0.88191(12) 0.5000
H11_12 H 0.8146 0.9088 0.5000
C17_12 C 0.81543(8) 0.86211(8) 0.46522(8)
C18_12 C 0.81524(9) 0.82203(8) 0.46542(8)
H12_12 H 0.8141 0.8086 0.4422
C19_12 C 0.81679(11) 0.80180(10) 0.5000
C20_12 C 0.81533(11) 0.75875(11) 0.5000
C21_12 C 0.74999(11) 0.90680(12) 0.26411(11)
H13_12 H 0.7412 0.9316 0.2693
C22_12 C 0.69454(11) 0.89976(14) 0.21909(13)
H14_12 H 0.6822 0.9191 0.2346
H15_12 H 0.6769 0.8788 0.2147
H16_12 H 0.7021 0.9108 0.1948
C23_12 C 0.74568(13) 0.84957(13) 0.22384(13)
H17_12 H 0.7688 0.8556 0.2098
H18_12 H 0.7276 0.8371 0.2069
H19_12 H 0.7518 0.8326 0.2449
N1_12 N 0.86107(7) 0.91750(7) 0.28213(7)
N2_12 N 0.81240(7) 0.91886(6) 0.35542(6)
N3_12 N 0.72852(11) 0.88550(11) 0.23909(11)
O2_12 O 0.81467(6) 0.74312(5) 0.46841(5)
O3_12 O 0.77910(6) 0.89714(6) 0.28033(6)
C31_12 C 0.79866(11) 0.93372(9) 0.61350(10)
H25_12 H 0.7873 0.9580 0.6154
C32_12 C 0.79948(10) 0.91684(9) 0.57819(9)
H26_12 H 0.7897 0.9305 0.5572
C33_12 C 0.81353(10) 0.88186(8) 0.57227(8)
C34_12 C 0.83053(10) 0.86489(10) 0.60509(9)
H27_12 H 0.8420 0.8407 0.6040
C35_12 C 0.82932(10) 0.88554(9) 0.63845(9)
H28_12 H 0.8420 0.8747 0.6595
C36_12 C 0.81543(8) 0.86211(8) 0.53478(8)
C37_12 C 0.81524(9) 0.82203(8) 0.53458(8)
H29_12 H 0.8141 0.8086 0.5578
O6_12 O 0.81467(6) 0.74312(5) 0.53159(5)
Co4_12 Co 0.800214(10) 0.689922(9) 0.553307(10)
Co8_12 Co 0.800214(10) 0.689922(9) 0.446693(10)
O10_12 O 0.75688(5) 0.96841(5) 0.31467(6)
C16_13 C -0.0000 0.68491(14) 0.61809(12)
H11_13 H -0.0000 0.6854 0.5912
C19_13 C -0.0000 0.68321(11) 0.69820(10)
C20_13 C -0.0000 0.68467(11) 0.74125(11)
C31_13 C 0.11350(10) 0.70134(11) 0.56628(9)
H25_13 H 0.1154 0.7127 0.5420
C32_13 C 0.07819(9) 0.70052(10) 0.58316(9)
H26_13 H 0.0572 0.7103 0.5695
C33_13 C 0.07227(8) 0.68647(10) 0.61814(8)
C34_13 C 0.10509(9) 0.66947(10) 0.63511(10)
H27_13 H 0.1040 0.6580 0.6593
C35_13 C 0.13845(9) 0.67068(10) 0.61446(9)
H28_13 H 0.1595 0.6580 0.6253
C36_13 C 0.03478(8) 0.68457(8) 0.63789(8)
C37_13 C 0.03458(8) 0.68476(9) 0.67797(8)
H29_13 H 0.0578 0.6859 0.6914
N5_9 N 0.14458(6) 0.68760(7) 0.58114(6)
C1_13 C 0.80453(10) 0.60753(9) 0.58202(10)
H1_13 H 0.8278 0.6086 0.5687
C2_13 C 0.79464(9) 0.57362(9) 0.60031(9)
H2_13 H 0.8112 0.5525 0.6000
C3_13 C 0.75970(9) 0.57169(8) 0.61911(8)
C4_13 C 0.73763(9) 0.60405(9) 0.61982(9)
H3_13 H 0.7145 0.6042 0.6334
C5_13 C 0.74930(8) 0.63649(9) 0.60057(10)
H4_13 H 0.7330 0.6578 0.6004
C6_25 C 0.75782(14) 0.5000 0.61986(13)
H5_25 H 0.7704 0.5000 0.5961
C7_13 C 0.74832(8) 0.53492(7) 0.63781(8)
C8_13 C 0.72935(8) 0.53462(8) 0.67318(8)
H6_13 H 0.7232 0.5578 0.6853
C9_25 C 0.71970(12) 0.5000 0.69041(10)
C10_25 C 0.70253(11) 0.5000 0.73030(11)
C11_13 C 0.88650(10) 0.70134(11) 0.56628(9)
H7_13 H 0.8846 0.7127 0.5420
C12_13 C 0.92181(9) 0.70052(10) 0.58316(9)
H8_13 H 0.9428 0.7103 0.5695
C13_13 C 0.92773(8) 0.68647(10) 0.61814(8)
C14_13 C 0.89491(9) 0.66947(10) 0.63511(10)
H9_13 H 0.8960 0.6580 0.6593
C15_13 C 0.86155(9) 0.67068(10) 0.61446(9)
H10_13 H 0.8405 0.6580 0.6253
C16_14 C 1.0000 0.68491(14) 0.61809(12)
H11_14 H 1.0000 0.6854 0.5912
C17_13 C 0.96522(8) 0.68457(8) 0.63789(8)
C18_13 C 0.96542(8) 0.68476(9) 0.67797(8)
H12_13 H 0.9422 0.6859 0.6914
C19_14 C 1.0000 0.68321(11) 0.69820(10)
C20_14 C 1.0000 0.68467(11) 0.74125(11)
C21_13 C 0.76411(11) 0.75001(11) 0.59320(12)
H13_13 H 0.7693 0.7588 0.5684
C22_13 C 0.71909(13) 0.80546(11) 0.60024(14)
H14_13 H 0.7346 0.8178 0.5809
H15_13 H 0.7147 0.8231 0.6212
H16_13 H 0.6948 0.7979 0.5892
C23_13 C 0.72384(13) 0.75432(13) 0.65043(13)
H17_13 H 0.7098 0.7312 0.6444
H18_13 H 0.7069 0.7724 0.6629
H19_13 H 0.7449 0.7482 0.6674
N1_13 N 0.78213(7) 0.63893(7) 0.58250(7)
N2_13 N 0.85542(6) 0.68760(7) 0.58114(6)
N3_13 N 0.73909(11) 0.77148(11) 0.61450(11)
O1_13 O 0.69667(5) 0.46709(5) 0.74541(5)
O3_13 O 0.78033(6) 0.72090(6) 0.60286(6)
O4_17 O 0.82528(7) 0.66332(10) 0.5000
C24_13 C 0.80453(10) 0.39247(9) 0.58202(10)
H20_13 H 0.8278 0.3914 0.5687
C25_13 C 0.79464(9) 0.42638(9) 0.60031(9)
H21_13 H 0.8112 0.4475 0.6000
C26_13 C 0.75970(9) 0.42831(8) 0.61911(8)
C27_13 C 0.73763(9) 0.39595(9) 0.61982(9)
H22_13 H 0.7145 0.3958 0.6334
C28_13 C 0.74930(8) 0.36351(9) 0.60057(10)
H23_13 H 0.7330 0.3422 0.6004
C29_13 C 0.74832(8) 0.46508(7) 0.63781(8)
C30_13 C 0.72935(8) 0.46538(8) 0.67318(8)
H24_13 H 0.7232 0.4422 0.6853
N4_9 N 0.78213(7) 0.36107(7) 0.58250(7)
O5_5 O 0.69667(5) 0.53291(5) 0.74541(5)
C38_13 C 0.75001(11) 0.40680(12) 0.76411(11)
H30_13 H 0.7588 0.4316 0.7693
C39_13 C 0.80546(11) 0.39976(14) 0.71909(13)
H31_13 H 0.8178 0.4191 0.7346
H32_13 H 0.8231 0.3788 0.7147
H33_13 H 0.7979 0.4108 0.6948
C40_13 C 0.75432(13) 0.34957(13) 0.72384(13)
H34_13 H 0.7312 0.3556 0.7098
H35_13 H 0.7724 0.3371 0.7069
H36_13 H 0.7482 0.3326 0.7449
N6_13 N 0.77148(11) 0.38550(11) 0.73909(11)
O7_13 O 0.72090(6) 0.39714(6) 0.78033(6)
N7_5 N 0.63893(7) 0.41750(7) 0.78213(7)
N8_5 N 0.68760(7) 0.41886(6) 0.85542(6)
O8_9 O 0.74541(5) 0.69667(5) 0.53291(5)
O11_9 O 0.66332(10) 0.5000 0.82528(7)
C1_14 C 0.19547(10) 0.39247(9) 0.58202(10)
H1_14 H 0.1722 0.3914 0.5687
C2_14 C 0.20536(9) 0.42638(9) 0.60031(9)
H2_14 H 0.1888 0.4475 0.6000
C3_14 C 0.24030(9) 0.42831(8) 0.61911(8)
C4_14 C 0.26237(9) 0.39595(9) 0.61982(9)
H3_14 H 0.2855 0.3958 0.6334
C5_14 C 0.25070(8) 0.36351(9) 0.60057(10)
H4_14 H 0.2670 0.3422 0.6004
C6_26 C 0.24218(14) 0.5000 0.61986(13)
H5_26 H 0.2296 0.5000 0.5961
C7_14 C 0.25168(8) 0.46508(7) 0.63781(8)
C8_14 C 0.27065(8) 0.46538(8) 0.67318(8)
H6_14 H 0.2768 0.4422 0.6853
C9_26 C 0.28030(12) 0.5000 0.69041(10)
C10_26 C 0.29747(11) 0.5000 0.73030(11)
C11_14 C 0.11350(10) 0.29866(11) 0.56628(9)
H7_14 H 0.1154 0.2873 0.5420
C12_14 C 0.07819(9) 0.29948(10) 0.58316(9)
H8_14 H 0.0572 0.2897 0.5695
C13_14 C 0.07227(8) 0.31353(10) 0.61814(8)
C14_14 C 0.10509(9) 0.33053(10) 0.63511(10)
H9_14 H 0.1040 0.3420 0.6593
C15_14 C 0.13845(9) 0.32932(10) 0.61446(9)
H10_14 H 0.1595 0.3420 0.6253
C16_15 C -0.0000 0.31509(14) 0.61809(12)
H11_15 H -0.0000 0.3146 0.5912
C17_14 C 0.03478(8) 0.31543(8) 0.63789(8)
C18_14 C 0.03458(8) 0.31524(9) 0.67797(8)
H12_14 H 0.0578 0.3141 0.6914
C19_15 C -0.0000 0.31679(11) 0.69820(10)
C20_15 C -0.0000 0.31533(11) 0.74125(11)
C21_14 C 0.23589(11) 0.24999(11) 0.59320(12)
H13_14 H 0.2307 0.2412 0.5684
C22_14 C 0.28091(13) 0.19454(11) 0.60024(14)
H14_14 H 0.2654 0.1822 0.5809
H15_14 H 0.2853 0.1769 0.6212
H16_14 H 0.3052 0.2021 0.5892
C23_14 C 0.27616(13) 0.24568(13) 0.65043(13)
H17_14 H 0.2902 0.2688 0.6444
H18_14 H 0.2931 0.2276 0.6629
H19_14 H 0.2551 0.2518 0.6674
N1_14 N 0.21787(7) 0.36107(7) 0.58250(7)
N2_14 N 0.14458(6) 0.31240(7) 0.58114(6)
N3_14 N 0.26091(11) 0.22852(11) 0.61450(11)
O1_14 O 0.30333(5) 0.53291(5) 0.74541(5)
O3_14 O 0.21967(6) 0.27910(6) 0.60286(6)
O4_18 O 0.17472(7) 0.33668(10) 0.5000
C24_14 C 0.19547(10) 0.60753(9) 0.58202(10)
H20_14 H 0.1722 0.6086 0.5687
C25_14 C 0.20536(9) 0.57362(9) 0.60031(9)
H21_14 H 0.1888 0.5525 0.6000
C26_14 C 0.24030(9) 0.57169(8) 0.61911(8)
C27_14 C 0.26237(9) 0.60405(9) 0.61982(9)
H22_14 H 0.2855 0.6042 0.6334
C28_14 C 0.25070(8) 0.63649(9) 0.60057(10)
H23_14 H 0.2670 0.6578 0.6004
C29_14 C 0.25168(8) 0.53492(7) 0.63781(8)
C30_14 C 0.27065(8) 0.53462(8) 0.67318(8)
H24_14 H 0.2768 0.5578 0.6853
N4_10 N 0.21787(7) 0.63893(7) 0.58250(7)
O5_6 O 0.30333(5) 0.46709(5) 0.74541(5)
C38_14 C 0.24999(11) 0.59320(12) 0.76411(11)
H30_14 H 0.2412 0.5684 0.7693
C39_14 C 0.19454(11) 0.60024(14) 0.71909(13)
H31_14 H 0.1822 0.5809 0.7346
H32_14 H 0.1769 0.6212 0.7147
H33_14 H 0.2021 0.5892 0.6948
C40_14 C 0.24568(13) 0.65043(13) 0.72384(13)
H34_14 H 0.2688 0.6444 0.7098
H35_14 H 0.2276 0.6629 0.7069
H36_14 H 0.2518 0.6674 0.7449
N6_14 N 0.22852(11) 0.61450(11) 0.73909(11)
O7_14 O 0.27910(6) 0.60286(6) 0.78033(6)
N7_6 N 0.36107(7) 0.58250(7) 0.78213(7)
N8_6 N 0.31240(7) 0.58114(6) 0.85542(6)
O8_10 O 0.25459(5) 0.30333(5) 0.53291(5)
O11_10 O 0.33668(10) 0.5000 0.82528(7)
C16_16 C 1.0000 0.31509(14) 0.61809(12)
H11_16 H 1.0000 0.3146 0.5912
C19_16 C 1.0000 0.31679(11) 0.69820(10)
C20_16 C 1.0000 0.31533(11) 0.74125(11)
C31_14 C 0.88650(10) 0.29866(11) 0.56628(9)
H25_14 H 0.8846 0.2873 0.5420
C32_14 C 0.92181(9) 0.29948(10) 0.58316(9)
H26_14 H 0.9428 0.2897 0.5695
C33_14 C 0.92773(8) 0.31353(10) 0.61814(8)
C34_14 C 0.89491(9) 0.33053(10) 0.63511(10)
H27_14 H 0.8960 0.3420 0.6593
C35_14 C 0.86155(9) 0.32932(10) 0.61446(9)
H28_14 H 0.8405 0.3420 0.6253
C36_14 C 0.96522(8) 0.31543(8) 0.63789(8)
C37_14 C 0.96542(8) 0.31524(9) 0.67797(8)
H29_14 H 0.9422 0.3141 0.6914
N5_10 N 0.85542(6) 0.31240(7) 0.58114(6)
C1_15 C 0.19547(10) 0.60753(9) 0.41798(10)
H1_15 H 0.1722 0.6086 0.4313
C2_15 C 0.20536(9) 0.57362(9) 0.39969(9)
H2_15 H 0.1888 0.5525 0.4000
C3_15 C 0.24030(9) 0.57169(8) 0.38089(8)
C4_15 C 0.26237(9) 0.60405(9) 0.38018(9)
H3_15 H 0.2855 0.6042 0.3666
C5_15 C 0.25070(8) 0.63649(9) 0.39943(10)
H4_15 H 0.2670 0.6578 0.3996
C6_27 C 0.24218(14) 0.5000 0.38014(13)
H5_27 H 0.2296 0.5000 0.4039
C7_15 C 0.25168(8) 0.53492(7) 0.36219(8)
C8_15 C 0.27065(8) 0.53462(8) 0.32682(8)
H6_15 H 0.2768 0.5578 0.3147
C9_27 C 0.28030(12) 0.5000 0.30959(10)
C10_27 C 0.29747(11) 0.5000 0.26970(11)
C11_15 C 0.11350(10) 0.70134(11) 0.43372(9)
H7_15 H 0.1154 0.7127 0.4580
C12_15 C 0.07819(9) 0.70052(10) 0.41684(9)
H8_15 H 0.0572 0.7103 0.4305
C13_15 C 0.07227(8) 0.68647(10) 0.38186(8)
C14_15 C 0.10509(9) 0.66947(10) 0.36489(10)
H9_15 H 0.1040 0.6580 0.3407
C15_15 C 0.13845(9) 0.67068(10) 0.38554(9)
H10_15 H 0.1595 0.6580 0.3747
C16_17 C -0.0000 0.68491(14) 0.38191(12)
H11_17 H -0.0000 0.6854 0.4088
C17_15 C 0.03478(8) 0.68457(8) 0.36211(8)
C18_15 C 0.03458(8) 0.68476(9) 0.32203(8)
H12_15 H 0.0578 0.6859 0.3086
C19_17 C -0.0000 0.68321(11) 0.30180(10)
C20_17 C -0.0000 0.68467(11) 0.25875(11)
C21_15 C 0.23589(11) 0.75001(11) 0.40680(12)
H13_15 H 0.2307 0.7588 0.4316
C22_15 C 0.28091(13) 0.80546(11) 0.39976(14)
H14_15 H 0.2654 0.8178 0.4191
H15_15 H 0.2853 0.8231 0.3788
H16_15 H 0.3052 0.7979 0.4108
C23_15 C 0.27616(13) 0.75432(13) 0.34957(13)
H17_15 H 0.2902 0.7312 0.3556
H18_15 H 0.2931 0.7724 0.3371
H19_15 H 0.2551 0.7482 0.3326
N1_15 N 0.21787(7) 0.63893(7) 0.41750(7)
N2_15 N 0.14458(6) 0.68760(7) 0.41886(6)
N3_15 N 0.26091(11) 0.77148(11) 0.38550(11)
O1_15 O 0.30333(5) 0.46709(5) 0.25459(5)
O3_15 O 0.21967(6) 0.72090(6) 0.39714(6)
O4_19 O 0.17472(7) 0.66332(10) 0.5000
C24_15 C 0.19547(10) 0.39247(9) 0.41798(10)
H20_15 H 0.1722 0.3914 0.4313
C25_15 C 0.20536(9) 0.42638(9) 0.39969(9)
H21_15 H 0.1888 0.4475 0.4000
C26_15 C 0.24030(9) 0.42831(8) 0.38089(8)
C27_15 C 0.26237(9) 0.39595(9) 0.38018(9)
H22_15 H 0.2855 0.3958 0.3666
C28_15 C 0.25070(8) 0.36351(9) 0.39943(10)
H23_15 H 0.2670 0.3422 0.3996
C29_15 C 0.25168(8) 0.46508(7) 0.36219(8)
C30_15 C 0.27065(8) 0.46538(8) 0.32682(8)
H24_15 H 0.2768 0.4422 0.3147
N4_11 N 0.21787(7) 0.36107(7) 0.41750(7)
O5_7 O 0.30333(5) 0.53291(5) 0.25459(5)
C38_15 C 0.24999(11) 0.40680(12) 0.23589(11)
H30_15 H 0.2412 0.4316 0.2307
C39_15 C 0.19454(11) 0.39976(14) 0.28091(13)
H31_15 H 0.1822 0.4191 0.2654
H32_15 H 0.1769 0.3788 0.2853
H33_15 H 0.2021 0.4108 0.3052
C40_15 C 0.24568(13) 0.34957(13) 0.27616(13)
H34_15 H 0.2688 0.3556 0.2902
H35_15 H 0.2276 0.3371 0.2931
H36_15 H 0.2518 0.3326 0.2551
N6_15 N 0.22852(11) 0.38550(11) 0.26091(11)
O7_15 O 0.27910(6) 0.39714(6) 0.21967(6)
N7_7 N 0.36107(7) 0.41750(7) 0.21787(7)
N8_7 N 0.31240(7) 0.41886(6) 0.14458(6)
O8_11 O 0.25459(5) 0.69667(5) 0.46709(5)
O11_11 O 0.33668(10) 0.5000 0.17472(7)
C16_18 C 1.0000 0.68491(14) 0.38191(12)
H11_18 H 1.0000 0.6854 0.4088
C19_18 C 1.0000 0.68321(11) 0.30180(10)
C20_18 C 1.0000 0.68467(11) 0.25875(11)
C31_15 C 0.88650(10) 0.70134(11) 0.43372(9)
H25_15 H 0.8846 0.7127 0.4580
C32_15 C 0.92181(9) 0.70052(10) 0.41684(9)
H26_15 H 0.9428 0.7103 0.4305
C33_15 C 0.92773(8) 0.68647(10) 0.38186(8)
C34_15 C 0.89491(9) 0.66947(10) 0.36489(10)
H27_15 H 0.8960 0.6580 0.3407
C35_15 C 0.86155(9) 0.67068(10) 0.38554(9)
H28_15 H 0.8405 0.6580 0.3747
C36_15 C 0.96522(8) 0.68457(8) 0.36211(8)
C37_15 C 0.96542(8) 0.68476(9) 0.32203(8)
H29_15 H 0.9422 0.6859 0.3086
N5_11 N 0.85542(6) 0.68760(7) 0.41886(6)
C16_19 C -0.0000 0.31509(14) 0.38191(12)
H11_19 H -0.0000 0.3146 0.4088
C19_19 C -0.0000 0.31679(11) 0.30180(10)
C20_19 C -0.0000 0.31533(11) 0.25875(11)
C31_16 C 0.11350(10) 0.29866(11) 0.43372(9)
H25_16 H 0.1154 0.2873 0.4580
C32_16 C 0.07819(9) 0.29948(10) 0.41684(9)
H26_16 H 0.0572 0.2897 0.4305
C33_16 C 0.07227(8) 0.31353(10) 0.38186(8)
C34_16 C 0.10509(9) 0.33053(10) 0.36489(10)
H27_16 H 0.1040 0.3420 0.3407
C35_16 C 0.13845(9) 0.32932(10) 0.38554(9)
H28_16 H 0.1595 0.3420 0.3747
C36_16 C 0.03478(8) 0.31543(8) 0.36211(8)
C37_16 C 0.03458(8) 0.31524(9) 0.32203(8)
H29_16 H 0.0578 0.3141 0.3086
N5_12 N 0.14458(6) 0.31240(7) 0.41886(6)
C1_16 C 0.80453(10) 0.39247(9) 0.41798(10)
H1_16 H 0.8278 0.3914 0.4313
C2_16 C 0.79464(9) 0.42638(9) 0.39969(9)
H2_16 H 0.8112 0.4475 0.4000
C3_16 C 0.75970(9) 0.42831(8) 0.38089(8)
C4_16 C 0.73763(9) 0.39595(9) 0.38018(9)
H3_16 H 0.7145 0.3958 0.3666
C5_16 C 0.74930(8) 0.36351(9) 0.39943(10)
H4_16 H 0.7330 0.3422 0.3996
C6_28 C 0.75782(14) 0.5000 0.38014(13)
H5_28 H 0.7704 0.5000 0.4039
C7_16 C 0.74832(8) 0.46508(7) 0.36219(8)
C8_16 C 0.72935(8) 0.46538(8) 0.32682(8)
H6_16 H 0.7232 0.4422 0.3147
C9_28 C 0.71970(12) 0.5000 0.30959(10)
C10_28 C 0.70253(11) 0.5000 0.26970(11)
C11_16 C 0.88650(10) 0.29866(11) 0.43372(9)
H7_16 H 0.8846 0.2873 0.4580
C12_16 C 0.92181(9) 0.29948(10) 0.41684(9)
H8_16 H 0.9428 0.2897 0.4305
C13_16 C 0.92773(8) 0.31353(10) 0.38186(8)
C14_16 C 0.89491(9) 0.33053(10) 0.36489(10)
H9_16 H 0.8960 0.3420 0.3407
C15_16 C 0.86155(9) 0.32932(10) 0.38554(9)
H10_16 H 0.8405 0.3420 0.3747
C16_20 C 1.0000 0.31509(14) 0.38191(12)
H11_20 H 1.0000 0.3146 0.4088
C17_16 C 0.96522(8) 0.31543(8) 0.36211(8)
C18_16 C 0.96542(8) 0.31524(9) 0.32203(8)
H12_16 H 0.9422 0.3141 0.3086
C19_20 C 1.0000 0.31679(11) 0.30180(10)
C20_20 C 1.0000 0.31533(11) 0.25875(11)
C21_16 C 0.76411(11) 0.24999(11) 0.40680(12)
H13_16 H 0.7693 0.2412 0.4316
C22_16 C 0.71909(13) 0.19454(11) 0.39976(14)
H14_16 H 0.7346 0.1822 0.4191
H15_16 H 0.7147 0.1769 0.3788
H16_16 H 0.6948 0.2021 0.4108
C23_16 C 0.72384(13) 0.24568(13) 0.34957(13)
H17_16 H 0.7098 0.2688 0.3556
H18_16 H 0.7069 0.2276 0.3371
H19_16 H 0.7449 0.2518 0.3326
N1_16 N 0.78213(7) 0.36107(7) 0.41750(7)
N2_16 N 0.85542(6) 0.31240(7) 0.41886(6)
N3_16 N 0.73909(11) 0.22852(11) 0.38550(11)
O1_16 O 0.69667(5) 0.53291(5) 0.25459(5)
O3_16 O 0.78033(6) 0.27910(6) 0.39714(6)
O4_20 O 0.82528(7) 0.33668(10) 0.5000
C24_16 C 0.80453(10) 0.60753(9) 0.41798(10)
H20_16 H 0.8278 0.6086 0.4313
C25_16 C 0.79464(9) 0.57362(9) 0.39969(9)
H21_16 H 0.8112 0.5525 0.4000
C26_16 C 0.75970(9) 0.57169(8) 0.38089(8)
C27_16 C 0.73763(9) 0.60405(9) 0.38018(9)
H22_16 H 0.7145 0.6042 0.3666
C28_16 C 0.74930(8) 0.63649(9) 0.39943(10)
H23_16 H 0.7330 0.6578 0.3996
C29_16 C 0.74832(8) 0.53492(7) 0.36219(8)
C30_16 C 0.72935(8) 0.53462(8) 0.32682(8)
H24_16 H 0.7232 0.5578 0.3147
N4_12 N 0.78213(7) 0.63893(7) 0.41750(7)
O5_8 O 0.69667(5) 0.46709(5) 0.25459(5)
C38_16 C 0.75001(11) 0.59320(12) 0.23589(11)
H30_16 H 0.7588 0.5684 0.2307
C39_16 C 0.80546(11) 0.60024(14) 0.28091(13)
H31_16 H 0.8178 0.5809 0.2654
H32_16 H 0.8231 0.6212 0.2853
H33_16 H 0.7979 0.5892 0.3052
C40_16 C 0.75432(13) 0.65043(13) 0.27616(13)
H34_16 H 0.7312 0.6444 0.2902
H35_16 H 0.7724 0.6629 0.2931
H36_16 H 0.7482 0.6674 0.2551
N6_16 N 0.77148(11) 0.61450(11) 0.26091(11)
O7_16 O 0.72090(6) 0.60286(6) 0.21967(6)
N7_8 N 0.63893(7) 0.58250(7) 0.21787(7)
N8_8 N 0.68760(7) 0.58114(6) 0.14458(6)
O8_12 O 0.74541(5) 0.30333(5) 0.46709(5)
O11_12 O 0.66332(10) 0.5000 0.17472(7)
C16_21 C 0.61809(12) -0.0000 0.68491(14)
H11_21 H 0.5912 0.0000 0.6854
C19_21 C 0.69820(10) -0.0000 0.68321(11)
C20_21 C 0.74125(11) -0.0000 0.68467(11)
C31_17 C 0.56628(9) 0.11350(10) 0.70134(11)
H25_17 H 0.5420 0.1154 0.7127
C32_17 C 0.58316(9) 0.07819(9) 0.70052(10)
H26_17 H 0.5695 0.0572 0.7103
C33_17 C 0.61814(8) 0.07227(8) 0.68647(10)
C34_17 C 0.63511(10) 0.10509(9) 0.66947(10)
H27_17 H 0.6593 0.1040 0.6580
C35_17 C 0.61446(9) 0.13845(9) 0.67068(10)
H28_17 H 0.6253 0.1595 0.6580
C36_17 C 0.63789(8) 0.03478(8) 0.68457(8)
C37_17 C 0.67797(8) 0.03458(8) 0.68476(9)
H29_17 H 0.6914 0.0578 0.6859
N5_13 N 0.58114(6) 0.14458(6) 0.68760(7)
C1_17 C 0.58202(10) 0.80453(10) 0.60753(9)
H1_17 H 0.5687 0.8278 0.6086
C2_17 C 0.60031(9) 0.79464(9) 0.57362(9)
H2_17 H 0.6000 0.8112 0.5525
C3_17 C 0.61911(8) 0.75970(9) 0.57169(8)
C4_17 C 0.61982(9) 0.73763(9) 0.60405(9)
H3_17 H 0.6334 0.7145 0.6042
C5_17 C 0.60057(10) 0.74930(8) 0.63649(9)
H4_17 H 0.6004 0.7330 0.6578
C6_29 C 0.61986(13) 0.75782(14) 0.5000
H5_29 H 0.5961 0.7704 0.5000
C7_17 C 0.63781(8) 0.74832(8) 0.53492(7)
C8_17 C 0.67318(8) 0.72935(8) 0.53462(8)
H6_17 H 0.6853 0.7232 0.5578
C9_29 C 0.69041(10) 0.71970(12) 0.5000
C10_29 C 0.73030(11) 0.70253(11) 0.5000
C11_17 C 0.56628(9) 0.88650(10) 0.70134(11)
H7_17 H 0.5420 0.8846 0.7127
C12_17 C 0.58316(9) 0.92181(9) 0.70052(10)
H8_17 H 0.5695 0.9428 0.7103
C13_17 C 0.61814(8) 0.92773(8) 0.68647(10)
C14_17 C 0.63511(10) 0.89491(9) 0.66947(10)
H9_17 H 0.6593 0.8960 0.6580
C15_17 C 0.61446(9) 0.86155(9) 0.67068(10)
H10_17 H 0.6253 0.8405 0.6580
C16_22 C 0.61809(12) 1.0000 0.68491(14)
H11_22 H 0.5912 1.0000 0.6854
C17_17 C 0.63789(8) 0.96522(8) 0.68457(8)
C18_17 C 0.67797(8) 0.96542(8) 0.68476(9)
H12_17 H 0.6914 0.9422 0.6859
C19_22 C 0.69820(10) 1.0000 0.68321(11)
C20_22 C 0.74125(11) 1.0000 0.68467(11)
C21_17 C 0.59320(12) 0.76411(11) 0.75001(11)
H13_17 H 0.5684 0.7693 0.7588
C22_17 C 0.60024(14) 0.71909(13) 0.80546(11)
H14_17 H 0.5809 0.7346 0.8178
H15_17 H 0.6212 0.7147 0.8231
H16_17 H 0.5892 0.6948 0.7979
C23_17 C 0.65043(13) 0.72384(13) 0.75432(13)
H17_17 H 0.6444 0.7098 0.7312
H18_17 H 0.6629 0.7069 0.7724
H19_17 H 0.6674 0.7449 0.7482
N1_17 N 0.58250(7) 0.78213(7) 0.63893(7)
N2_17 N 0.58114(6) 0.85542(6) 0.68760(7)
N3_17 N 0.61450(11) 0.73909(11) 0.77148(11)
O1_17 O 0.74541(5) 0.69667(5) 0.46709(5)
O3_17 O 0.60286(6) 0.78033(6) 0.72090(6)
O4_21 O 0.5000 0.82528(7) 0.66332(10)
C24_17 C 0.58202(10) 0.80453(10) 0.39247(9)
H20_17 H 0.5687 0.8278 0.3914
C25_17 C 0.60031(9) 0.79464(9) 0.42638(9)
H21_17 H 0.6000 0.8112 0.4475
C26_17 C 0.61911(8) 0.75970(9) 0.42831(8)
C27_17 C 0.61982(9) 0.73763(9) 0.39595(9)
H22_17 H 0.6334 0.7145 0.3958
C28_17 C 0.60057(10) 0.74930(8) 0.36351(9)
H23_17 H 0.6004 0.7330 0.3422
C29_17 C 0.63781(8) 0.74832(8) 0.46508(7)
C30_17 C 0.67318(8) 0.72935(8) 0.46538(8)
H24_17 H 0.6853 0.7232 0.4422
N4_13 N 0.58250(7) 0.78213(7) 0.36107(7)
C38_17 C 0.76411(11) 0.75001(11) 0.40680(12)
H30_17 H 0.7693 0.7588 0.4316
C39_17 C 0.71909(13) 0.80546(11) 0.39976(14)
H31_17 H 0.7346 0.8178 0.4191
H32_17 H 0.7147 0.8231 0.3788
H33_17 H 0.6948 0.7979 0.4108
C40_17 C 0.72384(13) 0.75432(13) 0.34957(13)
H34_17 H 0.7098 0.7312 0.3556
H35_17 H 0.7069 0.7724 0.3371
H36_17 H 0.7449 0.7482 0.3326
N6_17 N 0.73909(11) 0.77148(11) 0.38550(11)
O7_17 O 0.78033(6) 0.72090(6) 0.39714(6)
O8_13 O 0.53291(5) 0.74541(5) 0.69667(5)
C1_18 C 0.58202(10) 0.19547(10) 0.39247(9)
H1_18 H 0.5687 0.1722 0.3914
C2_18 C 0.60031(9) 0.20536(9) 0.42638(9)
H2_18 H 0.6000 0.1888 0.4475
C3_18 C 0.61911(8) 0.24030(9) 0.42831(8)
C4_18 C 0.61982(9) 0.26237(9) 0.39595(9)
H3_18 H 0.6334 0.2855 0.3958
C5_18 C 0.60057(10) 0.25070(8) 0.36351(9)
H4_18 H 0.6004 0.2670 0.3422
C6_30 C 0.61986(13) 0.24218(14) 0.5000
H5_30 H 0.5961 0.2296 0.5000
C7_18 C 0.63781(8) 0.25168(8) 0.46508(7)
C8_18 C 0.67318(8) 0.27065(8) 0.46538(8)
H6_18 H 0.6853 0.2768 0.4422
C9_30 C 0.69041(10) 0.28030(12) 0.5000
C10_30 C 0.73030(11) 0.29747(11) 0.5000
C11_18 C 0.56628(9) 0.11350(10) 0.29866(11)
H7_18 H 0.5420 0.1154 0.2873
C12_18 C 0.58316(9) 0.07819(9) 0.29948(10)
H8_18 H 0.5695 0.0572 0.2897
C13_18 C 0.61814(8) 0.07227(8) 0.31353(10)
C14_18 C 0.63511(10) 0.10509(9) 0.33053(10)
H9_18 H 0.6593 0.1040 0.3420
C15_18 C 0.61446(9) 0.13845(9) 0.32932(10)
H10_18 H 0.6253 0.1595 0.3420
C16_23 C 0.61809(12) 0.0000 0.31509(14)
H11_23 H 0.5912 0.0000 0.3146
C17_18 C 0.63789(8) 0.03478(8) 0.31543(8)
C18_18 C 0.67797(8) 0.03458(8) 0.31524(9)
H12_18 H 0.6914 0.0578 0.3141
C19_23 C 0.69820(10) -0.0000 0.31679(11)
C20_23 C 0.74125(11) -0.0000 0.31533(11)
C21_18 C 0.59320(12) 0.23589(11) 0.24999(11)
H13_18 H 0.5684 0.2307 0.2412
C22_18 C 0.60024(14) 0.28091(13) 0.19454(11)
H14_18 H 0.5809 0.2654 0.1822
H15_18 H 0.6212 0.2853 0.1769
H16_18 H 0.5892 0.3052 0.2021
C23_18 C 0.65043(13) 0.27616(13) 0.24568(13)
H17_18 H 0.6444 0.2902 0.2688
H18_18 H 0.6629 0.2931 0.2276
H19_18 H 0.6674 0.2551 0.2518
N1_18 N 0.58250(7) 0.21787(7) 0.36107(7)
N2_18 N 0.58114(6) 0.14458(6) 0.31240(7)
N3_18 N 0.61450(11) 0.26091(11) 0.22852(11)
O1_18 O 0.74541(5) 0.30333(5) 0.53291(5)
O3_18 O 0.60286(6) 0.21967(6) 0.27910(6)
O4_22 O 0.5000 0.17472(7) 0.33668(10)
C24_18 C 0.58202(10) 0.19547(10) 0.60753(9)
H20_18 H 0.5687 0.1722 0.6086
C25_18 C 0.60031(9) 0.20536(9) 0.57362(9)
H21_18 H 0.6000 0.1888 0.5525
C26_18 C 0.61911(8) 0.24030(9) 0.57169(8)
C27_18 C 0.61982(9) 0.26237(9) 0.60405(9)
H22_18 H 0.6334 0.2855 0.6042
C28_18 C 0.60057(10) 0.25070(8) 0.63649(9)
H23_18 H 0.6004 0.2670 0.6578
C29_18 C 0.63781(8) 0.25168(8) 0.53492(7)
C30_18 C 0.67318(8) 0.27065(8) 0.53462(8)
H24_18 H 0.6853 0.2768 0.5578
N4_14 N 0.58250(7) 0.21787(7) 0.63893(7)
C38_18 C 0.76411(11) 0.24999(11) 0.59320(12)
H30_18 H 0.7693 0.2412 0.5684
C39_18 C 0.71909(13) 0.19454(11) 0.60024(14)
H31_18 H 0.7346 0.1822 0.5809
H32_18 H 0.7147 0.1769 0.6212
H33_18 H 0.6948 0.2021 0.5892
C40_18 C 0.72384(13) 0.24568(13) 0.65043(13)
H34_18 H 0.7098 0.2688 0.6444
H35_18 H 0.7069 0.2276 0.6629
H36_18 H 0.7449 0.2518 0.6674
N6_18 N 0.73909(11) 0.22852(11) 0.61450(11)
O7_18 O 0.78033(6) 0.27910(6) 0.60286(6)
O8_14 O 0.53291(5) 0.25459(5) 0.30333(5)
C16_24 C 0.61809(12) 1.0000 0.31509(14)
H11_24 H 0.5912 1.0000 0.3146
C19_24 C 0.69820(10) 1.0000 0.31679(11)
C20_24 C 0.74125(11) 1.0000 0.31533(11)
C31_18 C 0.56628(9) 0.88650(10) 0.29866(11)
H25_18 H 0.5420 0.8846 0.2873
C32_18 C 0.58316(9) 0.92181(9) 0.29948(10)
H26_18 H 0.5695 0.9428 0.2897
C33_18 C 0.61814(8) 0.92773(8) 0.31353(10)
C34_18 C 0.63511(10) 0.89491(9) 0.33053(10)
H27_18 H 0.6593 0.8960 0.3420
C35_18 C 0.61446(9) 0.86155(9) 0.32932(10)
H28_18 H 0.6253 0.8405 0.3420
C36_18 C 0.63789(8) 0.96522(8) 0.31543(8)
C37_18 C 0.67797(8) 0.96542(8) 0.31524(9)
H29_18 H 0.6914 0.9422 0.3141
N5_14 N 0.58114(6) 0.85542(6) 0.31240(7)
C1_19 C 0.41798(10) 0.19547(10) 0.60753(9)
H1_19 H 0.4313 0.1722 0.6086
C2_19 C 0.39969(9) 0.20536(9) 0.57362(9)
H2_19 H 0.4000 0.1888 0.5525
C3_19 C 0.38089(8) 0.24030(9) 0.57169(8)
C4_19 C 0.38018(9) 0.26237(9) 0.60405(9)
H3_19 H 0.3666 0.2855 0.6042
C5_19 C 0.39943(10) 0.25070(8) 0.63649(9)
H4_19 H 0.3996 0.2670 0.6578
C6_31 C 0.38014(13) 0.24218(14) 0.5000
H5_31 H 0.4039 0.2296 0.5000
C7_19 C 0.36219(8) 0.25168(8) 0.53492(7)
C8_19 C 0.32682(8) 0.27065(8) 0.53462(8)
H6_19 H 0.3147 0.2768 0.5578
C9_31 C 0.30959(10) 0.28030(12) 0.5000
C10_31 C 0.26970(11) 0.29747(11) 0.5000
C11_19 C 0.43372(9) 0.11350(10) 0.70134(11)
H7_19 H 0.4580 0.1154 0.7127
C12_19 C 0.41684(9) 0.07819(9) 0.70052(10)
H8_19 H 0.4305 0.0572 0.7103
C13_19 C 0.38186(8) 0.07227(8) 0.68647(10)
C14_19 C 0.36489(10) 0.10509(9) 0.66947(10)
H9_19 H 0.3407 0.1040 0.6580
C15_19 C 0.38554(9) 0.13845(9) 0.67068(10)
H10_19 H 0.3747 0.1595 0.6580
C16_25 C 0.38191(12) -0.0000 0.68491(14)
H11_25 H 0.4088 0.0000 0.6854
C17_19 C 0.36211(8) 0.03478(8) 0.68457(8)
C18_19 C 0.32203(8) 0.03458(8) 0.68476(9)
H12_19 H 0.3086 0.0578 0.6859
C19_25 C 0.30180(10) -0.0000 0.68321(11)
C20_25 C 0.25875(11) -0.0000 0.68467(11)
C21_19 C 0.40680(12) 0.23589(11) 0.75001(11)
H13_19 H 0.4316 0.2307 0.7588
C22_19 C 0.39976(14) 0.28091(13) 0.80546(11)
H14_19 H 0.4191 0.2654 0.8178
H15_19 H 0.3788 0.2853 0.8231
H16_19 H 0.4108 0.3052 0.7979
C23_19 C 0.34957(13) 0.27616(13) 0.75432(13)
H17_19 H 0.3556 0.2902 0.7312
H18_19 H 0.3371 0.2931 0.7724
H19_19 H 0.3326 0.2551 0.7482
N1_19 N 0.41750(7) 0.21787(7) 0.63893(7)
N2_19 N 0.41886(6) 0.14458(6) 0.68760(7)
N3_19 N 0.38550(11) 0.26091(11) 0.77148(11)
O1_19 O 0.25459(5) 0.30333(5) 0.46709(5)
O3_19 O 0.39714(6) 0.21967(6) 0.72090(6)
O4_23 O 0.5000 0.17472(7) 0.66332(10)
C24_19 C 0.41798(10) 0.19547(10) 0.39247(9)
H20_19 H 0.4313 0.1722 0.3914
C25_19 C 0.39969(9) 0.20536(9) 0.42638(9)
H21_19 H 0.4000 0.1888 0.4475
C26_19 C 0.38089(8) 0.24030(9) 0.42831(8)
C27_19 C 0.38018(9) 0.26237(9) 0.39595(9)
H22_19 H 0.3666 0.2855 0.3958
C28_19 C 0.39943(10) 0.25070(8) 0.36351(9)
H23_19 H 0.3996 0.2670 0.3422
C29_19 C 0.36219(8) 0.25168(8) 0.46508(7)
C30_19 C 0.32682(8) 0.27065(8) 0.46538(8)
H24_19 H 0.3147 0.2768 0.4422
N4_15 N 0.41750(7) 0.21787(7) 0.36107(7)
C38_19 C 0.23589(11) 0.24999(11) 0.40680(12)
H30_19 H 0.2307 0.2412 0.4316
C39_19 C 0.28091(13) 0.19454(11) 0.39976(14)
H31_19 H 0.2654 0.1822 0.4191
H32_19 H 0.2853 0.1769 0.3788
H33_19 H 0.3052 0.2021 0.4108
C40_19 C 0.27616(13) 0.24568(13) 0.34957(13)
H34_19 H 0.2902 0.2688 0.3556
H35_19 H 0.2931 0.2276 0.3371
H36_19 H 0.2551 0.2518 0.3326
N6_19 N 0.26091(11) 0.22852(11) 0.38550(11)
O7_19 O 0.21967(6) 0.27910(6) 0.39714(6)
O8_15 O 0.46709(5) 0.25459(5) 0.69667(5)
C16_26 C 0.38191(12) 1.0000 0.68491(14)
H11_26 H 0.4088 1.0000 0.6854
C19_26 C 0.30180(10) 1.0000 0.68321(11)
C20_26 C 0.25875(11) 1.0000 0.68467(11)
C31_19 C 0.43372(9) 0.88650(10) 0.70134(11)
H25_19 H 0.4580 0.8846 0.7127
C32_19 C 0.41684(9) 0.92181(9) 0.70052(10)
H26_19 H 0.4305 0.9428 0.7103
C33_19 C 0.38186(8) 0.92773(8) 0.68647(10)
C34_19 C 0.36489(10) 0.89491(9) 0.66947(10)
H27_19 H 0.3407 0.8960 0.6580
C35_19 C 0.38554(9) 0.86155(9) 0.67068(10)
H28_19 H 0.3747 0.8405 0.6580
C36_19 C 0.36211(8) 0.96522(8) 0.68457(8)
C37_19 C 0.32203(8) 0.96542(8) 0.68476(9)
H29_19 H 0.3086 0.9422 0.6859
N5_15 N 0.41886(6) 0.85542(6) 0.68760(7)
C16_27 C 0.38191(12) 0.0000 0.31509(14)
H11_27 H 0.4088 0.0000 0.3146
C19_27 C 0.30180(10) -0.0000 0.31679(11)
C20_27 C 0.25875(11) -0.0000 0.31533(11)
C31_20 C 0.43372(9) 0.11350(10) 0.29866(11)
H25_20 H 0.4580 0.1154 0.2873
C32_20 C 0.41684(9) 0.07819(9) 0.29948(10)
H26_20 H 0.4305 0.0572 0.2897
C33_20 C 0.38186(8) 0.07227(8) 0.31353(10)
C34_20 C 0.36489(10) 0.10509(9) 0.33053(10)
H27_20 H 0.3407 0.1040 0.3420
C35_20 C 0.38554(9) 0.13845(9) 0.32932(10)
H28_20 H 0.3747 0.1595 0.3420
C36_20 C 0.36211(8) 0.03478(8) 0.31543(8)
C37_20 C 0.32203(8) 0.03458(8) 0.31524(9)
H29_20 H 0.3086 0.0578 0.3141
N5_16 N 0.41886(6) 0.14458(6) 0.31240(7)
C1_20 C 0.41798(10) 0.80453(10) 0.39247(9)
H1_20 H 0.4313 0.8278 0.3914
C2_20 C 0.39969(9) 0.79464(9) 0.42638(9)
H2_20 H 0.4000 0.8112 0.4475
C3_20 C 0.38089(8) 0.75970(9) 0.42831(8)
C4_20 C 0.38018(9) 0.73763(9) 0.39595(9)
H3_20 H 0.3666 0.7145 0.3958
C5_20 C 0.39943(10) 0.74930(8) 0.36351(9)
H4_20 H 0.3996 0.7330 0.3422
C6_32 C 0.38014(13) 0.75782(14) 0.5000
H5_32 H 0.4039 0.7704 0.5000
C7_20 C 0.36219(8) 0.74832(8) 0.46508(7)
C8_20 C 0.32682(8) 0.72935(8) 0.46538(8)
H6_20 H 0.3147 0.7232 0.4422
C9_32 C 0.30959(10) 0.71970(12) 0.5000
C10_32 C 0.26970(11) 0.70253(11) 0.5000
C11_20 C 0.43372(9) 0.88650(10) 0.29866(11)
H7_20 H 0.4580 0.8846 0.2873
C12_20 C 0.41684(9) 0.92181(9) 0.29948(10)
H8_20 H 0.4305 0.9428 0.2897
C13_20 C 0.38186(8) 0.92773(8) 0.31353(10)
C14_20 C 0.36489(10) 0.89491(9) 0.33053(10)
H9_20 H 0.3407 0.8960 0.3420
C15_20 C 0.38554(9) 0.86155(9) 0.32932(10)
H10_20 H 0.3747 0.8405 0.3420
C16_28 C 0.38191(12) 1.0000 0.31509(14)
H11_28 H 0.4088 1.0000 0.3146
C17_20 C 0.36211(8) 0.96522(8) 0.31543(8)
C18_20 C 0.32203(8) 0.96542(8) 0.31524(9)
H12_20 H 0.3086 0.9422 0.3141
C19_28 C 0.30180(10) 1.0000 0.31679(11)
C20_28 C 0.25875(11) 1.0000 0.31533(11)
C21_20 C 0.40680(12) 0.76411(11) 0.24999(11)
H13_20 H 0.4316 0.7693 0.2412
C22_20 C 0.39976(14) 0.71909(13) 0.19454(11)
H14_20 H 0.4191 0.7346 0.1822
H15_20 H 0.3788 0.7147 0.1769
H16_20 H 0.4108 0.6948 0.2021
C23_20 C 0.34957(13) 0.72384(13) 0.24568(13)
H17_20 H 0.3556 0.7098 0.2688
H18_20 H 0.3371 0.7069 0.2276
H19_20 H 0.3326 0.7449 0.2518
N1_20 N 0.41750(7) 0.78213(7) 0.36107(7)
N2_20 N 0.41886(6) 0.85542(6) 0.31240(7)
N3_20 N 0.38550(11) 0.73909(11) 0.22852(11)
O1_20 O 0.25459(5) 0.69667(5) 0.53291(5)
O3_20 O 0.39714(6) 0.78033(6) 0.27910(6)
O4_24 O 0.5000 0.82528(7) 0.33668(10)
C24_20 C 0.41798(10) 0.80453(10) 0.60753(9)
H20_20 H 0.4313 0.8278 0.6086
C25_20 C 0.39969(9) 0.79464(9) 0.57362(9)
H21_20 H 0.4000 0.8112 0.5525
C26_20 C 0.38089(8) 0.75970(9) 0.57169(8)
C27_20 C 0.38018(9) 0.73763(9) 0.60405(9)
H22_20 H 0.3666 0.7145 0.6042
C28_20 C 0.39943(10) 0.74930(8) 0.63649(9)
H23_20 H 0.3996 0.7330 0.6578
C29_20 C 0.36219(8) 0.74832(8) 0.53492(7)
C30_20 C 0.32682(8) 0.72935(8) 0.53462(8)
H24_20 H 0.3147 0.7232 0.5578
N4_16 N 0.41750(7) 0.78213(7) 0.63893(7)
C38_20 C 0.23589(11) 0.75001(11) 0.59320(12)
H30_20 H 0.2307 0.7588 0.5684
C39_20 C 0.28091(13) 0.80546(11) 0.60024(14)
H31_20 H 0.2654 0.8178 0.5809
H32_20 H 0.2853 0.8231 0.6212
H33_20 H 0.3052 0.7979 0.5892
C40_20 C 0.27616(13) 0.75432(13) 0.65043(13)
H34_20 H 0.2902 0.7312 0.6444
H35_20 H 0.2931 0.7724 0.6629
H36_20 H 0.2551 0.7482 0.6674
N6_20 N 0.26091(11) 0.77148(11) 0.61450(11)
O7_20 O 0.21967(6) 0.72090(6) 0.60286(6)
O8_16 O 0.46709(5) 0.74541(5) 0.30333(5)
C16_29 C 0.68491(14) 0.61809(12) 0.0000
H11_29 H 0.6854 0.5912 0.0000
C19_29 C 0.68321(11) 0.69820(10) 0.0000
C20_29 C 0.68467(11) 0.74125(11) 0.0000
C31_21 C 0.70134(11) 0.56628(9) 0.11350(10)
H25_21 H 0.7127 0.5420 0.1154
C32_21 C 0.70052(10) 0.58316(9) 0.07819(9)
H26_21 H 0.7103 0.5695 0.0572
C33_21 C 0.68647(10) 0.61814(8) 0.07227(8)
C34_21 C 0.66947(10) 0.63511(10) 0.10509(9)
H27_21 H 0.6580 0.6593 0.1040
C35_21 C 0.67068(10) 0.61446(9) 0.13845(9)
H28_21 H 0.6580 0.6253 0.1595
C36_21 C 0.68457(8) 0.63789(8) 0.03478(8)
C37_21 C 0.68476(9) 0.67797(8) 0.03458(8)
H29_21 H 0.6859 0.6914 0.0578
C1_21 C 0.60753(9) 0.58202(10) 0.80453(10)
H1_21 H 0.6086 0.5687 0.8278
C2_21 C 0.57362(9) 0.60031(9) 0.79464(9)
H2_21 H 0.5525 0.6000 0.8112
C3_21 C 0.57169(8) 0.61911(8) 0.75970(9)
C4_21 C 0.60405(9) 0.61982(9) 0.73763(9)
H3_21 H 0.6042 0.6334 0.7145
C5_21 C 0.63649(9) 0.60057(10) 0.74930(8)
H4_21 H 0.6578 0.6004 0.7330
C6_33 C 0.5000 0.61986(13) 0.75782(14)
H5_33 H 0.5000 0.5961 0.7704
C7_21 C 0.53492(7) 0.63781(8) 0.74832(8)
C8_21 C 0.53462(8) 0.67318(8) 0.72935(8)
H6_21 H 0.5578 0.6853 0.7232
C9_33 C 0.5000 0.69041(10) 0.71970(12)
C10_33 C 0.5000 0.73030(11) 0.70253(11)
C11_21 C 0.70134(11) 0.56628(9) 0.88650(10)
H7_21 H 0.7127 0.5420 0.8846
C12_21 C 0.70052(10) 0.58316(9) 0.92181(9)
H8_21 H 0.7103 0.5695 0.9428
C13_21 C 0.68647(10) 0.61814(8) 0.92773(8)
C14_21 C 0.66947(10) 0.63511(10) 0.89491(9)
H9_21 H 0.6580 0.6593 0.8960
C15_21 C 0.67068(10) 0.61446(9) 0.86155(9)
H10_21 H 0.6580 0.6253 0.8405
C16_30 C 0.68491(14) 0.61809(12) 1.0000
H11_30 H 0.6854 0.5912 1.0000
C17_21 C 0.68457(8) 0.63789(8) 0.96522(8)
C18_21 C 0.68476(9) 0.67797(8) 0.96542(8)
H12_21 H 0.6859 0.6914 0.9422
C19_30 C 0.68321(11) 0.69820(10) 1.0000
C20_30 C 0.68467(11) 0.74125(11) 1.0000
C21_21 C 0.75001(11) 0.59320(12) 0.76411(11)
H13_21 H 0.7588 0.5684 0.7693
C22_21 C 0.80546(11) 0.60024(14) 0.71909(13)
H14_21 H 0.8178 0.5809 0.7346
H15_21 H 0.8231 0.6212 0.7147
H16_21 H 0.7979 0.5892 0.6948
C23_21 C 0.75432(13) 0.65043(13) 0.72384(13)
H17_21 H 0.7312 0.6444 0.7098
H18_21 H 0.7724 0.6629 0.7069
H19_21 H 0.7482 0.6674 0.7449
N1_21 N 0.63893(7) 0.58250(7) 0.78213(7)
N2_21 N 0.68760(7) 0.58114(6) 0.85542(6)
N3_21 N 0.77148(11) 0.61450(11) 0.73909(11)
O1_21 O 0.46709(5) 0.74541(5) 0.69667(5)
O3_21 O 0.72090(6) 0.60286(6) 0.78033(6)
C24_21 C 0.39247(9) 0.58202(10) 0.80453(10)
H20_21 H 0.3914 0.5687 0.8278
C25_21 C 0.42638(9) 0.60031(9) 0.79464(9)
H21_21 H 0.4475 0.6000 0.8112
C26_21 C 0.42831(8) 0.61911(8) 0.75970(9)
C27_21 C 0.39595(9) 0.61982(9) 0.73763(9)
H22_21 H 0.3958 0.6334 0.7145
C28_21 C 0.36351(9) 0.60057(10) 0.74930(8)
H23_21 H 0.3422 0.6004 0.7330
C29_21 C 0.46508(7) 0.63781(8) 0.74832(8)
C30_21 C 0.46538(8) 0.67318(8) 0.72935(8)
H24_21 H 0.4422 0.6853 0.7232
C38_21 C 0.40680(12) 0.76411(11) 0.75001(11)
H30_21 H 0.4316 0.7693 0.7588
C39_21 C 0.39976(14) 0.71909(13) 0.80546(11)
H31_21 H 0.4191 0.7346 0.8178
H32_21 H 0.3788 0.7147 0.8231
H33_21 H 0.4108 0.6948 0.7979
C40_21 C 0.34957(13) 0.72384(13) 0.75432(13)
H34_21 H 0.3556 0.7098 0.7312
H35_21 H 0.3371 0.7069 0.7724
H36_21 H 0.3326 0.7449 0.7482
N6_21 N 0.38550(11) 0.73909(11) 0.77148(11)
O7_21 O 0.39714(6) 0.78033(6) 0.72090(6)
C1_22 C 0.39247(9) 0.58202(10) 0.19547(10)
H1_22 H 0.3914 0.5687 0.1722
C2_22 C 0.42638(9) 0.60031(9) 0.20536(9)
H2_22 H 0.4475 0.6000 0.1888
C3_22 C 0.42831(8) 0.61911(8) 0.24030(9)
C4_22 C 0.39595(9) 0.61982(9) 0.26237(9)
H3_22 H 0.3958 0.6334 0.2855
C5_22 C 0.36351(9) 0.60057(10) 0.25070(8)
H4_22 H 0.3422 0.6004 0.2670
C6_34 C 0.5000 0.61986(13) 0.24218(14)
H5_34 H 0.5000 0.5961 0.2296
C7_22 C 0.46508(7) 0.63781(8) 0.25168(8)
C8_22 C 0.46538(8) 0.67318(8) 0.27065(8)
H6_22 H 0.4422 0.6853 0.2768
C9_34 C 0.5000 0.69041(10) 0.28030(12)
C10_34 C 0.5000 0.73030(11) 0.29747(11)
C11_22 C 0.29866(11) 0.56628(9) 0.11350(10)
H7_22 H 0.2873 0.5420 0.1154
C12_22 C 0.29948(10) 0.58316(9) 0.07819(9)
H8_22 H 0.2897 0.5695 0.0572
C13_22 C 0.31353(10) 0.61814(8) 0.07227(8)
C14_22 C 0.33053(10) 0.63511(10) 0.10509(9)
H9_22 H 0.3420 0.6593 0.1040
C15_22 C 0.32932(10) 0.61446(9) 0.13845(9)
H10_22 H 0.3420 0.6253 0.1595
C16_31 C 0.31509(14) 0.61809(12) 0.0000
H11_31 H 0.3146 0.5912 0.0000
C17_22 C 0.31543(8) 0.63789(8) 0.03478(8)
C18_22 C 0.31524(9) 0.67797(8) 0.03458(8)
H12_22 H 0.3141 0.6914 0.0578
C19_31 C 0.31679(11) 0.69820(10) 0.0000
C20_31 C 0.31533(11) 0.74125(11) 0.0000
C21_22 C 0.24999(11) 0.59320(12) 0.23589(11)
H13_22 H 0.2412 0.5684 0.2307
C22_22 C 0.19454(11) 0.60024(14) 0.28091(13)
H14_22 H 0.1822 0.5809 0.2654
H15_22 H 0.1769 0.6212 0.2853
H16_22 H 0.2021 0.5892 0.3052
C23_22 C 0.24568(13) 0.65043(13) 0.27616(13)
H17_22 H 0.2688 0.6444 0.2902
H18_22 H 0.2276 0.6629 0.2931
H19_22 H 0.2518 0.6674 0.2551
N1_22 N 0.36107(7) 0.58250(7) 0.21787(7)
N2_22 N 0.31240(7) 0.58114(6) 0.14458(6)
N3_22 N 0.22852(11) 0.61450(11) 0.26091(11)
O1_22 O 0.53291(5) 0.74541(5) 0.30333(5)
O3_22 O 0.27910(6) 0.60286(6) 0.21967(6)
C24_22 C 0.60753(9) 0.58202(10) 0.19547(10)
H20_22 H 0.6086 0.5687 0.1722
C25_22 C 0.57362(9) 0.60031(9) 0.20536(9)
H21_22 H 0.5525 0.6000 0.1888
C26_22 C 0.57169(8) 0.61911(8) 0.24030(9)
C27_22 C 0.60405(9) 0.61982(9) 0.26237(9)
H22_22 H 0.6042 0.6334 0.2855
C28_22 C 0.63649(9) 0.60057(10) 0.25070(8)
H23_22 H 0.6578 0.6004 0.2670
C29_22 C 0.53492(7) 0.63781(8) 0.25168(8)
C30_22 C 0.53462(8) 0.67318(8) 0.27065(8)
H24_22 H 0.5578 0.6853 0.2768
C38_22 C 0.59320(12) 0.76411(11) 0.24999(11)
H30_22 H 0.5684 0.7693 0.2412
C39_22 C 0.60024(14) 0.71909(13) 0.19454(11)
H31_22 H 0.5809 0.7346 0.1822
H32_22 H 0.6212 0.7147 0.1769
H33_22 H 0.5892 0.6948 0.2021
C40_22 C 0.65043(13) 0.72384(13) 0.24568(13)
H34_22 H 0.6444 0.7098 0.2688
H35_22 H 0.6629 0.7069 0.2276
H36_22 H 0.6674 0.7449 0.2518
N6_22 N 0.61450(11) 0.73909(11) 0.22852(11)
O7_22 O 0.60286(6) 0.78033(6) 0.27910(6)
C16_32 C 0.31509(14) 0.61809(12) 1.0000
H11_32 H 0.3146 0.5912 1.0000
C19_32 C 0.31679(11) 0.69820(10) 1.0000
C20_32 C 0.31533(11) 0.74125(11) 1.0000
C31_22 C 0.29866(11) 0.56628(9) 0.88650(10)
H25_22 H 0.2873 0.5420 0.8846
C32_22 C 0.29948(10) 0.58316(9) 0.92181(9)
H26_22 H 0.2897 0.5695 0.9428
C33_22 C 0.31353(10) 0.61814(8) 0.92773(8)
C34_22 C 0.33053(10) 0.63511(10) 0.89491(9)
H27_22 H 0.3420 0.6593 0.8960
C35_22 C 0.32932(10) 0.61446(9) 0.86155(9)
H28_22 H 0.3420 0.6253 0.8405
C36_22 C 0.31543(8) 0.63789(8) 0.96522(8)
C37_22 C 0.31524(9) 0.67797(8) 0.96542(8)
H29_22 H 0.3141 0.6914 0.9422
C1_23 C 0.60753(9) 0.41798(10) 0.19547(10)
H1_23 H 0.6086 0.4313 0.1722
C2_23 C 0.57362(9) 0.39969(9) 0.20536(9)
H2_23 H 0.5525 0.4000 0.1888
C3_23 C 0.57169(8) 0.38089(8) 0.24030(9)
C4_23 C 0.60405(9) 0.38018(9) 0.26237(9)
H3_23 H 0.6042 0.3666 0.2855
C5_23 C 0.63649(9) 0.39943(10) 0.25070(8)
H4_23 H 0.6578 0.3996 0.2670
C6_35 C 0.5000 0.38014(13) 0.24218(14)
H5_35 H 0.5000 0.4039 0.2296
C7_23 C 0.53492(7) 0.36219(8) 0.25168(8)
C8_23 C 0.53462(8) 0.32682(8) 0.27065(8)
H6_23 H 0.5578 0.3147 0.2768
C9_35 C 0.5000 0.30959(10) 0.28030(12)
C10_35 C 0.5000 0.26970(11) 0.29747(11)
C11_23 C 0.70134(11) 0.43372(9) 0.11350(10)
H7_23 H 0.7127 0.4580 0.1154
C12_23 C 0.70052(10) 0.41684(9) 0.07819(9)
H8_23 H 0.7103 0.4305 0.0572
C13_23 C 0.68647(10) 0.38186(8) 0.07227(8)
C14_23 C 0.66947(10) 0.36489(10) 0.10509(9)
H9_23 H 0.6580 0.3407 0.1040
C15_23 C 0.67068(10) 0.38554(9) 0.13845(9)
H10_23 H 0.6580 0.3747 0.1595
C16_33 C 0.68491(14) 0.38191(12) 0.0000
H11_33 H 0.6854 0.4088 0.0000
C17_23 C 0.68457(8) 0.36211(8) 0.03478(8)
C18_23 C 0.68476(9) 0.32203(8) 0.03458(8)
H12_23 H 0.6859 0.3086 0.0578
C19_33 C 0.68321(11) 0.30180(10) 0.0000
C20_33 C 0.68467(11) 0.25875(11) 0.0000
C21_23 C 0.75001(11) 0.40680(12) 0.23589(11)
H13_23 H 0.7588 0.4316 0.2307
C22_23 C 0.80546(11) 0.39976(14) 0.28091(13)
H14_23 H 0.8178 0.4191 0.2654
H15_23 H 0.8231 0.3788 0.2853
H16_23 H 0.7979 0.4108 0.3052
C23_23 C 0.75432(13) 0.34957(13) 0.27616(13)
H17_23 H 0.7312 0.3556 0.2902
H18_23 H 0.7724 0.3371 0.2931
H19_23 H 0.7482 0.3326 0.2551
N1_23 N 0.63893(7) 0.41750(7) 0.21787(7)
N2_23 N 0.68760(7) 0.41886(6) 0.14458(6)
N3_23 N 0.77148(11) 0.38550(11) 0.26091(11)
O1_23 O 0.46709(5) 0.25459(5) 0.30333(5)
O3_23 O 0.72090(6) 0.39714(6) 0.21967(6)
C24_23 C 0.39247(9) 0.41798(10) 0.19547(10)
H20_23 H 0.3914 0.4313 0.1722
C25_23 C 0.42638(9) 0.39969(9) 0.20536(9)
H21_23 H 0.4475 0.4000 0.1888
C26_23 C 0.42831(8) 0.38089(8) 0.24030(9)
C27_23 C 0.39595(9) 0.38018(9) 0.26237(9)
H22_23 H 0.3958 0.3666 0.2855
C28_23 C 0.36351(9) 0.39943(10) 0.25070(8)
H23_23 H 0.3422 0.3996 0.2670
C29_23 C 0.46508(7) 0.36219(8) 0.25168(8)
C30_23 C 0.46538(8) 0.32682(8) 0.27065(8)
H24_23 H 0.4422 0.3147 0.2768
C38_23 C 0.40680(12) 0.23589(11) 0.24999(11)
H30_23 H 0.4316 0.2307 0.2412
C39_23 C 0.39976(14) 0.28091(13) 0.19454(11)
H31_23 H 0.4191 0.2654 0.1822
H32_23 H 0.3788 0.2853 0.1769
H33_23 H 0.4108 0.3052 0.2021
C40_23 C 0.34957(13) 0.27616(13) 0.24568(13)
H34_23 H 0.3556 0.2902 0.2688
H35_23 H 0.3371 0.2931 0.2276
H36_23 H 0.3326 0.2551 0.2518
N6_23 N 0.38550(11) 0.26091(11) 0.22852(11)
O7_23 O 0.39714(6) 0.21967(6) 0.27910(6)
C16_34 C 0.68491(14) 0.38191(12) 1.0000
H11_34 H 0.6854 0.4088 1.0000
C19_34 C 0.68321(11) 0.30180(10) 1.0000
C20_34 C 0.68467(11) 0.25875(11) 1.0000
C31_23 C 0.70134(11) 0.43372(9) 0.88650(10)
H25_23 H 0.7127 0.4580 0.8846
C32_23 C 0.70052(10) 0.41684(9) 0.92181(9)
H26_23 H 0.7103 0.4305 0.9428
C33_23 C 0.68647(10) 0.38186(8) 0.92773(8)
C34_23 C 0.66947(10) 0.36489(10) 0.89491(9)
H27_23 H 0.6580 0.3407 0.8960
C35_23 C 0.67068(10) 0.38554(9) 0.86155(9)
H28_23 H 0.6580 0.3747 0.8405
C36_23 C 0.68457(8) 0.36211(8) 0.96522(8)
C37_23 C 0.68476(9) 0.32203(8) 0.96542(8)
H29_23 H 0.6859 0.3086 0.9422
C16_35 C 0.31509(14) 0.38191(12) 0.0000
H11_35 H 0.3146 0.4088 0.0000
C19_35 C 0.31679(11) 0.30180(10) 0.0000
C20_35 C 0.31533(11) 0.25875(11) 0.0000
C31_24 C 0.29866(11) 0.43372(9) 0.11350(10)
H25_24 H 0.2873 0.4580 0.1154
C32_24 C 0.29948(10) 0.41684(9) 0.07819(9)
H26_24 H 0.2897 0.4305 0.0572
C33_24 C 0.31353(10) 0.38186(8) 0.07227(8)
C34_24 C 0.33053(10) 0.36489(10) 0.10509(9)
H27_24 H 0.3420 0.3407 0.1040
C35_24 C 0.32932(10) 0.38554(9) 0.13845(9)
H28_24 H 0.3420 0.3747 0.1595
C36_24 C 0.31543(8) 0.36211(8) 0.03478(8)
C37_24 C 0.31524(9) 0.32203(8) 0.03458(8)
H29_24 H 0.3141 0.3086 0.0578
C1_24 C 0.39247(9) 0.41798(10) 0.80453(10)
H1_24 H 0.3914 0.4313 0.8278
C2_24 C 0.42638(9) 0.39969(9) 0.79464(9)
H2_24 H 0.4475 0.4000 0.8112
C3_24 C 0.42831(8) 0.38089(8) 0.75970(9)
C4_24 C 0.39595(9) 0.38018(9) 0.73763(9)
H3_24 H 0.3958 0.3666 0.7145
C5_24 C 0.36351(9) 0.39943(10) 0.74930(8)
H4_24 H 0.3422 0.3996 0.7330
C6_36 C 0.5000 0.38014(13) 0.75782(14)
H5_36 H 0.5000 0.4039 0.7704
C7_24 C 0.46508(7) 0.36219(8) 0.74832(8)
C8_24 C 0.46538(8) 0.32682(8) 0.72935(8)
H6_24 H 0.4422 0.3147 0.7232
C9_36 C 0.5000 0.30959(10) 0.71970(12)
C10_36 C 0.5000 0.26970(11) 0.70253(11)
C11_24 C 0.29866(11) 0.43372(9) 0.88650(10)
H7_24 H 0.2873 0.4580 0.8846
C12_24 C 0.29948(10) 0.41684(9) 0.92181(9)
H8_24 H 0.2897 0.4305 0.9428
C13_24 C 0.31353(10) 0.38186(8) 0.92773(8)
C14_24 C 0.33053(10) 0.36489(10) 0.89491(9)
H9_24 H 0.3420 0.3407 0.8960
C15_24 C 0.32932(10) 0.38554(9) 0.86155(9)
H10_24 H 0.3420 0.3747 0.8405
C16_36 C 0.31509(14) 0.38191(12) 1.0000
H11_36 H 0.3146 0.4088 1.0000
C17_24 C 0.31543(8) 0.36211(8) 0.96522(8)
C18_24 C 0.31524(9) 0.32203(8) 0.96542(8)
H12_24 H 0.3141 0.3086 0.9422
C19_36 C 0.31679(11) 0.30180(10) 1.0000
C20_36 C 0.31533(11) 0.25875(11) 1.0000
C21_24 C 0.24999(11) 0.40680(12) 0.76411(11)
H13_24 H 0.2412 0.4316 0.7693
C22_24 C 0.19454(11) 0.39976(14) 0.71909(13)
H14_24 H 0.1822 0.4191 0.7346
H15_24 H 0.1769 0.3788 0.7147
H16_24 H 0.2021 0.4108 0.6948
C23_24 C 0.24568(13) 0.34957(13) 0.72384(13)
H17_24 H 0.2688 0.3556 0.7098
H18_24 H 0.2276 0.3371 0.7069
H19_24 H 0.2518 0.3326 0.7449
N1_24 N 0.36107(7) 0.41750(7) 0.78213(7)
N2_24 N 0.31240(7) 0.41886(6) 0.85542(6)
N3_24 N 0.22852(11) 0.38550(11) 0.73909(11)
O1_24 O 0.53291(5) 0.25459(5) 0.69667(5)
O3_24 O 0.27910(6) 0.39714(6) 0.78033(6)
C24_24 C 0.60753(9) 0.41798(10) 0.80453(10)
H20_24 H 0.6086 0.4313 0.8278
C25_24 C 0.57362(9) 0.39969(9) 0.79464(9)
H21_24 H 0.5525 0.4000 0.8112
C26_24 C 0.57169(8) 0.38089(8) 0.75970(9)
C27_24 C 0.60405(9) 0.38018(9) 0.73763(9)
H22_24 H 0.6042 0.3666 0.7145
C28_24 C 0.63649(9) 0.39943(10) 0.74930(8)
H23_24 H 0.6578 0.3996 0.7330
C29_24 C 0.53492(7) 0.36219(8) 0.74832(8)
C30_24 C 0.53462(8) 0.32682(8) 0.72935(8)
H24_24 H 0.5578 0.3147 0.7232
C38_24 C 0.59320(12) 0.23589(11) 0.75001(11)
H30_24 H 0.5684 0.2307 0.7588
C39_24 C 0.60024(14) 0.28091(13) 0.80546(11)
H31_24 H 0.5809 0.2654 0.8178
H32_24 H 0.6212 0.2853 0.8231
H33_24 H 0.5892 0.3052 0.7979
C40_24 C 0.65043(13) 0.27616(13) 0.75432(13)
H34_24 H 0.6444 0.2902 0.7312
H35_24 H 0.6629 0.2931 0.7724
H36_24 H 0.6674 0.2551 0.7482
N6_24 N 0.61450(11) 0.26091(11) 0.77148(11)
O7_24 O 0.60286(6) 0.21967(6) 0.72090(6)
loop_
_geom_bond_atom_site_label_1
_geom_bond_atom_site_label_2
_geom_bond_site_symmetry_1
_geom_bond_site_symmetry_2
C1 H1 1_555 1_555
C2 C1 1_555 1_555
H2 C2 1_555 1_555
C3 C2 1_555 1_555
C4 C3 1_555 1_555
H3 C4 1_555 1_555
C5 C4 1_555 1_555
H4 C5 1_555 1_555
C6 H5 1_555 1_555
C7 C3 1_555 1_555
C8 C7 1_555 1_555
H6 C8 1_555 1_555
C9 C8 1_555 1_555
C10 C9 1_555 1_555
C11 H7 1_555 1_555
C12 C11 1_555 1_555
H8 C12 1_555 1_555
C13 C12 1_555 1_555
C14 C13 1_555 1_555
H9 C14 1_555 1_555
C15 C14 1_555 1_555
H10 C15 1_555 1_555
C16 H11 1_555 1_555
C17 C13 1_555 1_555
C18 C17 1_555 1_555
H12 C18 1_555 1_555
C19 C18 1_555 1_555
C20 C19 1_555 1_555
C21 H13 1_555 1_555
C22 H14 1_555 1_555
H15 C22 1_555 1_555
H16 C22 1_555 1_555
C23 H17 1_555 1_555
H18 C23 1_555 1_555
H19 C23 1_555 1_555
Co1 N1 1_555 1_555
N1 C1 1_555 1_555
N2 C11 1_555 1_555
N3 C21 1_555 1_555
O2 C20 1_555 1_555
O3 C21 1_555 1_555
O4 Co1 1_555 1_555
O5 C10 1_555 1_555
C31 H25 1_555 1_555
C32 C31 1_555 1_555
H26 C32 1_555 1_555
C33 C32 1_555 1_555
C34 C33 1_555 1_555
H27 C34 1_555 1_555
C35 C34 1_555 1_555
H28 C35 1_555 1_555
C36 C16 1_555 1_555
C37 C19 1_555 1_555
H29 C37 1_555 1_555
N5 C31 1_555 1_555
O6 C20 1_555 1_555
Co3 O5 1_555 1_555
Co4 O6 1_555 1_555
Co7 N5 1_555 1_555
Co8 O2 1_555 1_555
O8 Co1 1_555 1_555
O10 Co1 1_555 1_555
C5 N1 1_555 1_555
C6 C7 1_555 1_555
C15 N2 1_555 1_555
C16 C17 1_555 1_555
C22 N3 1_555 1_555
C23 N3 1_555 1_555
Co1 N2 1_555 1_555
Co1 O3 1_555 1_555
C33 C36 1_555 1_555
C35 N5 1_555 1_555
C36 C37 1_555 1_555
Co3 O11 1_555 1_555
Co5 O4_2 1_555 1_555
C6_2 H5_2 1_555 1_555
C10_2 C9_2 1_555 1_555
O1 C10_2 1_555 1_555
C24 H20 1_555 1_555
C25 C24 1_555 1_555
H21 C25 1_555 1_555
C26 C25 1_555 1_555
C27 C26 1_555 1_555
H22 C27 1_555 1_555
C28 C27 1_555 1_555
H23 C28 1_555 1_555
C29 C6_2 1_555 1_555
C30 C9_2 1_555 1_555
H24 C30 1_555 1_555
N4 C24 1_555 1_555
C38 H30 1_555 1_555
C39 H31 1_555 1_555
H32 C39 1_555 1_555
H33 C39 1_555 1_555
C40 H34 1_555 1_555
H35 C40 1_555 1_555
H36 C40 1_555 1_555
Co2 O1 1_555 1_555
N6 C38 1_555 1_555
O7 C38 1_555 1_555
Co6 N4 1_555 1_555
N7 Co2 1_555 1_555
N8 Co2 1_555 1_555
O9 Co2 1_555 1_555
O11_2 Co2 1_555 1_555
C26 C29 1_555 1_555
C28 N4 1_555 1_555
C29 C30 1_555 1_555
C39 N6 1_555 1_555
C40 N6 1_555 1_555
Co2 O7 1_555 1_555
C6_3 H5_3 1_555 1_555
C10_3 C9_3 1_555 1_555
O1_2 C10_3 1_555 1_555
C24_2 H20_2 1_555 1_555
C25_2 C24_2 1_555 1_555
H21_2 C25_2 1_555 1_555
C26_2 C25_2 1_555 1_555
C27_2 C26_2 1_555 1_555
H22_2 C27_2 1_555 1_555
C28_2 C27_2 1_555 1_555
H23_2 C28_2 1_555 1_555
C29_2 C6_3 1_555 1_555
C30_2 C9_3 1_555 1_555
H24_2 C30_2 1_555 1_555
N4_2 C24_2 1_555 1_555
C38_2 H30_2 1_555 1_555
C39_2 H31_2 1_555 1_555
H32_2 C39_2 1_555 1_555
H33_2 C39_2 1_555 1_555
C40_2 H34_2 1_555 1_555
H35_2 C40_2 1_555 1_555
H36_2 C40_2 1_555 1_555
Co2_2 O1_2 1_555 1_555
N6_2 C38_2 1_555 1_555
O7_2 C38_2 1_555 1_555
Co7 N4_2 1_555 1_555
N7_2 Co2_2 1_555 1_555
N8_2 Co2_2 1_555 1_555
O9_2 Co2_2 1_555 1_555
O11_3 Co2_2 1_555 1_555
C26_2 C29_2 1_555 1_555
C28_2 N4_2 1_555 1_555
C29_2 C30_2 1_555 1_555
C39_2 N6_2 1_555 1_555
C40_2 N6_2 1_555 1_555
Co2_2 O7_2 1_555 1_555
C1_2 H1_2 1_555 1_555
C2_2 C1_2 1_555 1_555
H2_2 C2_2 1_555 1_555
C3_2 C2_2 1_555 1_555
C4_2 C3_2 1_555 1_555
H3_2 C4_2 1_555 1_555
C5_2 C4_2 1_555 1_555
H4_2 C5_2 1_555 1_555
C6_4 H5_4 1_555 1_555
C7_2 C3_2 1_555 1_555
C8_2 C7_2 1_555 1_555
H6_2 C8_2 1_555 1_555
C9_4 C8_2 1_555 1_555
C10_4 C9_4 1_555 1_555
C11_2 H7_2 1_555 1_555
C12_2 C11_2 1_555 1_555
H8_2 C12_2 1_555 1_555
C13_2 C12_2 1_555 1_555
C14_2 C13_2 1_555 1_555
H9_2 C14_2 1_555 1_555
C15_2 C14_2 1_555 1_555
H10_2 C15_2 1_555 1_555
C16_2 H11_2 1_555 1_555
C17_2 C13_2 1_555 1_555
C18_2 C17_2 1_555 1_555
H12_2 C18_2 1_555 1_555
C19_2 C18_2 1_555 1_555
C20_2 C19_2 1_555 1_555
C21_2 H13_2 1_555 1_555
C22_2 H14_2 1_555 1_555
H15_2 C22_2 1_555 1_555
H16_2 C22_2 1_555 1_555
C23_2 H17_2 1_555 1_555
H18_2 C23_2 1_555 1_555
H19_2 C23_2 1_555 1_555
Co1_2 N1_2 1_555 1_555
N1_2 C1_2 1_555 1_555
N2_2 C11_2 1_555 1_555
N3_2 C21_2 1_555 1_555
O2_2 C20_2 1_555 1_555
O3_2 C21_2 1_555 1_555
O4_3 Co1_2 1_555 1_555
O5_2 C10_4 1_555 1_555
C31_2 H25_2 1_555 1_555
C32_2 C31_2 1_555 1_555
H26_2 C32_2 1_555 1_555
C33_2 C32_2 1_555 1_555
C34_2 C33_2 1_555 1_555
H27_2 C34_2 1_555 1_555
C35_2 C34_2 1_555 1_555
H28_2 C35_2 1_555 1_555
C36_2 C16_2 1_555 1_555
C37_2 C19_2 1_555 1_555
H29_2 C37_2 1_555 1_555
N5_2 C31_2 1_555 1_555
O6_2 C20_2 1_555 1_555
Co3_2 O5_2 1_555 1_555
Co4_2 O6_2 1_555 1_555
Co6 N5_2 1_555 1_555
Co8_2 O2_2 1_555 1_555
O8_2 Co1_2 1_555 1_555
O10_2 Co1_2 1_555 1_555
C5_2 N1_2 1_555 1_555
C6_4 C7_2 1_555 1_555
C15_2 N2_2 1_555 1_555
C16_2 C17_2 1_555 1_555
C22_2 N3_2 1_555 1_555
C23_2 N3_2 1_555 1_555
Co1_2 N2_2 1_555 1_555
Co1_2 O3_2 1_555 1_555
C33_2 C36_2 1_555 1_555
C35_2 N5_2 1_555 1_555
C36_2 C37_2 1_555 1_555
Co3_2 O11_4 1_555 1_555
Co5_2 O4_4 1_555 1_555
Co7 O4_5 1_555 1_555
C1_3 H1_3 1_555 1_555
C2_3 C1_3 1_555 1_555
H2_3 C2_3 1_555 1_555
C3_3 C2_3 1_555 1_555
C4_3 C3_3 1_555 1_555
H3_3 C4_3 1_555 1_555
C5_3 C4_3 1_555 1_555
H4_3 C5_3 1_555 1_555
C6_5 H5_5 1_555 1_555
C7_3 C3_3 1_555 1_555
C8_3 C7_3 1_555 1_555
H6_3 C8_3 1_555 1_555
C9_5 C8_3 1_555 1_555
C10_5 C9_5 1_555 1_555
C11_3 H7_3 1_555 1_555
C12_3 C11_3 1_555 1_555
H8_3 C12_3 1_555 1_555
C13_3 C12_3 1_555 1_555
C14_3 C13_3 1_555 1_555
H9_3 C14_3 1_555 1_555
C15_3 C14_3 1_555 1_555
H10_3 C15_3 1_555 1_555
C16_3 H11_3 1_555 1_555
C17_3 C13_3 1_555 1_555
C18_3 C17_3 1_555 1_555
H12_3 C18_3 1_555 1_555
C19_3 C18_3 1_555 1_555
C20_3 C19_3 1_555 1_555
C21_3 H13_3 1_555 1_555
C22_3 H14_3 1_555 1_555
H15_3 C22_3 1_555 1_555
H16_3 C22_3 1_555 1_555
C23_3 H17_3 1_555 1_555
H18_3 C23_3 1_555 1_555
H19_3 C23_3 1_555 1_555
Co1_3 N1_3 1_555 1_555
N1_3 C1_3 1_555 1_555
N2_3 C11_3 1_555 1_555
N3_3 C21_3 1_555 1_555
O2_3 C20_3 1_555 1_555
O3_3 C21_3 1_555 1_555
O4_6 Co1_3 1_555 1_555
O5_3 C10_5 1_555 1_555
C31_3 H25_3 1_555 1_555
C32_3 C31_3 1_555 1_555
H26_3 C32_3 1_555 1_555
C33_3 C32_3 1_555 1_555
C34_3 C33_3 1_555 1_555
H27_3 C34_3 1_555 1_555
C35_3 C34_3 1_555 1_555
H28_3 C35_3 1_555 1_555
C36_3 C16_3 1_555 1_555
C37_3 C19_3 1_555 1_555
H29_3 C37_3 1_555 1_555
N5_3 C31_3 1_555 1_555
O6_3 C20_3 1_555 1_555
Co3_3 O5_3 1_555 1_555
Co4_3 O6_3 1_555 1_555
Co5 N5_3 1_555 1_555
Co8_3 O2_3 1_555 1_555
O8_3 Co1_3 1_555 1_555
O10_3 Co1_3 1_555 1_555
C5_3 N1_3 1_555 1_555
C6_5 C7_3 1_555 1_555
C15_3 N2_3 1_555 1_555
C16_3 C17_3 1_555 1_555
C22_3 N3_3 1_555 1_555
C23_3 N3_3 1_555 1_555
Co1_3 N2_3 1_555 1_555
Co1_3 O3_3 1_555 1_555
C33_3 C36_3 1_555 1_555
C35_3 N5_3 1_555 1_555
C36_3 C37_3 1_555 1_555
Co3_3 O11_5 1_555 1_555
C6_6 H5_6 1_555 1_555
C10_6 C9_6 1_555 1_555
O1_3 C10_6 1_555 1_555
C24_3 H20_3 1_555 1_555
C25_3 C24_3 1_555 1_555
H21_3 C25_3 1_555 1_555
C26_3 C25_3 1_555 1_555
C27_3 C26_3 1_555 1_555
H22_3 C27_3 1_555 1_555
C28_3 C27_3 1_555 1_555
H23_3 C28_3 1_555 1_555
C29_3 C6_6 1_555 1_555
C30_3 C9_6 1_555 1_555
H24_3 C30_3 1_555 1_555
N4_3 C24_3 1_555 1_555
C38_3 H30_3 1_555 1_555
C39_3 H31_3 1_555 1_555
H32_3 C39_3 1_555 1_555
H33_3 C39_3 1_555 1_555
C40_3 H34_3 1_555 1_555
H35_3 C40_3 1_555 1_555
H36_3 C40_3 1_555 1_555
Co2_3 O1_3 1_555 1_555
N6_3 C38_3 1_555 1_555
O7_3 C38_3 1_555 1_555
Co5_2 N4_3 1_555 1_555
N7_3 Co2_3 1_555 1_555
N8_3 Co2_3 1_555 1_555
O9_3 Co2_3 1_555 1_555
O11_6 Co2_3 1_555 1_555
C26_3 C29_3 1_555 1_555
C28_3 N4_3 1_555 1_555
C29_3 C30_3 1_555 1_555
C39_3 N6_3 1_555 1_555
C40_3 N6_3 1_555 1_555
Co2_3 O7_3 1_555 1_555
C6_7 H5_7 1_555 1_555
C10_7 C9_7 1_555 1_555
O1_4 C10_7 1_555 1_555
C24_4 H20_4 1_555 1_555
C25_4 C24_4 1_555 1_555
H21_4 C25_4 1_555 1_555
C26_4 C25_4 1_555 1_555
C27_4 C26_4 1_555 1_555
H22_4 C27_4 1_555 1_555
C28_4 C27_4 1_555 1_555
H23_4 C28_4 1_555 1_555
C29_4 C6_7 1_555 1_555
C30_4 C9_7 1_555 1_555
H24_4 C30_4 1_555 1_555
N4_4 C24_4 1_555 1_555
C38_4 H30_4 1_555 1_555
C39_4 H31_4 1_555 1_555
H32_4 C39_4 1_555 1_555
H33_4 C39_4 1_555 1_555
C40_4 H34_4 1_555 1_555
H35_4 C40_4 1_555 1_555
H36_4 C40_4 1_555 1_555
Co2_4 O1_4 1_555 1_555
N6_4 C38_4 1_555 1_555
O7_4 C38_4 1_555 1_555
Co5 N4_4 1_555 1_555
N7_4 Co2_4 1_555 1_555
N8_4 Co2_4 1_555 1_555
O9_4 Co2_4 1_555 1_555
O11_7 Co2_4 1_555 1_555
C26_4 C29_4 1_555 1_555
C28_4 N4_4 1_555 1_555
C29_4 C30_4 1_555 1_555
C39_4 N6_4 1_555 1_555
C40_4 N6_4 1_555 1_555
Co2_4 O7_4 1_555 1_555
Co6 O4_7 1_555 1_555
C1_4 H1_4 1_555 1_555
C2_4 C1_4 1_555 1_555
H2_4 C2_4 1_555 1_555
C3_4 C2_4 1_555 1_555
C4_4 C3_4 1_555 1_555
H3_4 C4_4 1_555 1_555
C5_4 C4_4 1_555 1_555
H4_4 C5_4 1_555 1_555
C6_8 H5_8 1_555 1_555
C7_4 C3_4 1_555 1_555
C8_4 C7_4 1_555 1_555
H6_4 C8_4 1_555 1_555
C9_8 C8_4 1_555 1_555
C10_8 C9_8 1_555 1_555
C11_4 H7_4 1_555 1_555
C12_4 C11_4 1_555 1_555
H8_4 C12_4 1_555 1_555
C13_4 C12_4 1_555 1_555
C14_4 C13_4 1_555 1_555
H9_4 C14_4 1_555 1_555
C15_4 C14_4 1_555 1_555
H10_4 C15_4 1_555 1_555
C16_4 H11_4 1_555 1_555
C17_4 C13_4 1_555 1_555
C18_4 C17_4 1_555 1_555
H12_4 C18_4 1_555 1_555
C19_4 C18_4 1_555 1_555
C20_4 C19_4 1_555 1_555
C21_4 H13_4 1_555 1_555
C22_4 H14_4 1_555 1_555
H15_4 C22_4 1_555 1_555
H16_4 C22_4 1_555 1_555
C23_4 H17_4 1_555 1_555
H18_4 C23_4 1_555 1_555
H19_4 C23_4 1_555 1_555
Co1_4 N1_4 1_555 1_555
N1_4 C1_4 1_555 1_555
N2_4 C11_4 1_555 1_555
N3_4 C21_4 1_555 1_555
O2_4 C20_4 1_555 1_555
O3_4 C21_4 1_555 1_555
O4_8 Co1_4 1_555 1_555
O5_4 C10_8 1_555 1_555
C31_4 H25_4 1_555 1_555
C32_4 C31_4 1_555 1_555
H26_4 C32_4 1_555 1_555
C33_4 C32_4 1_555 1_555
C34_4 C33_4 1_555 1_555
H27_4 C34_4 1_555 1_555
C35_4 C34_4 1_555 1_555
H28_4 C35_4 1_555 1_555
C36_4 C16_4 1_555 1_555
C37_4 C19_4 1_555 1_555
H29_4 C37_4 1_555 1_555
N5_4 C31_4 1_555 1_555
O6_4 C20_4 1_555 1_555
Co3_4 O5_4 1_555 1_555
Co4_4 O6_4 1_555 1_555
Co5_2 N5_4 1_555 1_555
Co8_4 O2_4 1_555 1_555
O8_4 Co1_4 1_555 1_555
O10_4 Co1_4 1_555 1_555
C5_4 N1_4 1_555 1_555
C6_8 C7_4 1_555 1_555
C15_4 N2_4 1_555 1_555
C16_4 C17_4 1_555 1_555
C22_4 N3_4 1_555 1_555
C23_4 N3_4 1_555 1_555
Co1_4 N2_4 1_555 1_555
Co1_4 O3_4 1_555 1_555
C33_4 C36_4 1_555 1_555
C35_4 N5_4 1_555 1_555
C36_4 C37_4 1_555 1_555
Co3_4 O11_8 1_555 1_555
C1_5 H1_5 1_555 1_555
C2_5 C1_5 1_555 1_555
H2_5 C2_5 1_555 1_555
C3_5 C2_5 1_555 1_555
C4_5 C3_5 1_555 1_555
H3_5 C4_5 1_555 1_555
C5_5 C4_5 1_555 1_555
H4_5 C5_5 1_555 1_555
C6_9 H5_9 1_555 1_555
C7_5 C3_5 1_555 1_555
C8_5 C7_5 1_555 1_555
H6_5 C8_5 1_555 1_555
C9_9 C8_5 1_555 1_555
C10_9 C9_9 1_555 1_555
C11_5 H7_5 1_555 1_555
C12_5 C11_5 1_555 1_555
H8_5 C12_5 1_555 1_555
C13_5 C12_5 1_555 1_555
C14_5 C13_5 1_555 1_555
H9_5 C14_5 1_555 1_555
C15_5 C14_5 1_555 1_555
H10_5 C15_5 1_555 1_555
C16_5 H11_5 1_555 1_555
C17_5 C13_5 1_555 1_555
C18_5 C17_5 1_555 1_555
H12_5 C18_5 1_555 1_555
C19_5 C18_5 1_555 1_555
C20_5 C19_5 1_555 1_555
C21_5 H13_5 1_555 1_555
C22_5 H14_5 1_555 1_555
H15_5 C22_5 1_555 1_555
H16_5 C22_5 1_555 1_555
C23_5 H17_5 1_555 1_555
H18_5 C23_5 1_555 1_555
H19_5 C23_5 1_555 1_555
Co1_5 N1_5 1_555 1_555
N1_5 C1_5 1_555 1_555
N2_5 C11_5 1_555 1_555
N3_5 C21_5 1_555 1_555
O2_5 C20_5 1_555 1_555
O3_5 C21_5 1_555 1_555
O4_9 Co1_5 1_555 1_555
O8 C10_9 1_555 1_555
C31_5 H25_5 1_555 1_555
C32_5 C31_5 1_555 1_555
H26_5 C32_5 1_555 1_555
C33_5 C32_5 1_555 1_555
C34_5 C33_5 1_555 1_555
H27_5 C34_5 1_555 1_555
C35_5 C34_5 1_555 1_555
H28_5 C35_5 1_555 1_555
C36_5 C16_5 1_555 1_555
C37_5 C19_5 1_555 1_555
H29_5 C37_5 1_555 1_555
N5_5 C31_5 1_555 1_555
O6_5 C20_5 1_555 1_555
Co4_5 O6_5 1_555 1_555
Co7_2 N5_5 1_555 1_555
Co8_5 O2_5 1_555 1_555
O8_5 Co1_5 1_555 1_555
O10_5 Co1_5 1_555 1_555
C5_5 N1_5 1_555 1_555
C6_9 C7_5 1_555 1_555
C15_5 N2_5 1_555 1_555
C16_5 C17_5 1_555 1_555
C22_5 N3_5 1_555 1_555
C23_5 N3_5 1_555 1_555
Co1_5 N2_5 1_555 1_555
Co1_5 O3_5 1_555 1_555
C33_5 C36_5 1_555 1_555
C35_5 N5_5 1_555 1_555
C36_5 C37_5 1_555 1_555
C6_10 H5_10 1_555 1_555
C10_10 C9_10 1_555 1_555
O1_5 C10_10 1_555 1_555
C24_5 H20_5 1_555 1_555
C25_5 C24_5 1_555 1_555
H21_5 C25_5 1_555 1_555
C26_5 C25_5 1_555 1_555
C27_5 C26_5 1_555 1_555
H22_5 C27_5 1_555 1_555
C28_5 C27_5 1_555 1_555
H23_5 C28_5 1_555 1_555
C29_5 C6_10 1_555 1_555
C30_5 C9_10 1_555 1_555
H24_5 C30_5 1_555 1_555
N4_5 C24_5 1_555 1_555
C38_5 H30_5 1_555 1_555
C39_5 H31_5 1_555 1_555
H32_5 C39_5 1_555 1_555
H33_5 C39_5 1_555 1_555
C40_5 H34_5 1_555 1_555
H35_5 C40_5 1_555 1_555
H36_5 C40_5 1_555 1_555
Co5 O1_5 1_555 1_555
N6_5 C38_5 1_555 1_555
O7_5 C38_5 1_555 1_555
Co6_2 N4_5 1_555 1_555
O9_5 Co5 1_555 1_555
C26_5 C29_5 1_555 1_555
C28_5 N4_5 1_555 1_555
C29_5 C30_5 1_555 1_555
C39_5 N6_5 1_555 1_555
C40_5 N6_5 1_555 1_555
Co5 O7_5 1_555 1_555
Co5_3 O4_10 1_555 1_555
C6_11 H5_11 1_555 1_555
C10_11 C9_11 1_555 1_555
O1_6 C10_11 1_555 1_555
C24_6 H20_6 1_555 1_555
C25_6 C24_6 1_555 1_555
H21_6 C25_6 1_555 1_555
C26_6 C25_6 1_555 1_555
C27_6 C26_6 1_555 1_555
H22_6 C27_6 1_555 1_555
C28_6 C27_6 1_555 1_555
H23_6 C28_6 1_555 1_555
C29_6 C6_11 1_555 1_555
C30_6 C9_11 1_555 1_555
H24_6 C30_6 1_555 1_555
N4_6 C24_6 1_555 1_555
C38_6 H30_6 1_555 1_555
C39_6 H31_6 1_555 1_555
H32_6 C39_6 1_555 1_555
H33_6 C39_6 1_555 1_555
C40_6 H34_6 1_555 1_555
H35_6 C40_6 1_555 1_555
H36_6 C40_6 1_555 1_555
Co6 O1_6 1_555 1_555
N6_6 C38_6 1_555 1_555
O7_6 C38_6 1_555 1_555
Co7_2 N4_6 1_555 1_555
O9_6 Co6 1_555 1_555
C26_6 C29_6 1_555 1_555
C28_6 N4_6 1_555 1_555
C29_6 C30_6 1_555 1_555
C39_6 N6_6 1_555 1_555
C40_6 N6_6 1_555 1_555
Co6 O7_6 1_555 1_555
C1_6 H1_6 1_555 1_555
C2_6 C1_6 1_555 1_555
H2_6 C2_6 1_555 1_555
C3_6 C2_6 1_555 1_555
C4_6 C3_6 1_555 1_555
H3_6 C4_6 1_555 1_555
C5_6 C4_6 1_555 1_555
H4_6 C5_6 1_555 1_555
C6_12 H5_12 1_555 1_555
C7_6 C3_6 1_555 1_555
C8_6 C7_6 1_555 1_555
H6_6 C8_6 1_555 1_555
C9_12 C8_6 1_555 1_555
C10_12 C9_12 1_555 1_555
C11_6 H7_6 1_555 1_555
C12_6 C11_6 1_555 1_555
H8_6 C12_6 1_555 1_555
C13_6 C12_6 1_555 1_555
C14_6 C13_6 1_555 1_555
H9_6 C14_6 1_555 1_555
C15_6 C14_6 1_555 1_555
H10_6 C15_6 1_555 1_555
C16_6 H11_6 1_555 1_555
C17_6 C13_6 1_555 1_555
C18_6 C17_6 1_555 1_555
H12_6 C18_6 1_555 1_555
C19_6 C18_6 1_555 1_555
C20_6 C19_6 1_555 1_555
C21_6 H13_6 1_555 1_555
C22_6 H14_6 1_555 1_555
H15_6 C22_6 1_555 1_555
H16_6 C22_6 1_555 1_555
C23_6 H17_6 1_555 1_555
H18_6 C23_6 1_555 1_555
H19_6 C23_6 1_555 1_555
Co1_6 N1_6 1_555 1_555
N1_6 C1_6 1_555 1_555
N2_6 C11_6 1_555 1_555
N3_6 C21_6 1_555 1_555
O2_6 C20_6 1_555 1_555
O3_6 C21_6 1_555 1_555
O4_11 Co1_6 1_555 1_555
O8_4 C10_12 1_555 1_555
C31_6 H25_6 1_555 1_555
C32_6 C31_6 1_555 1_555
H26_6 C32_6 1_555 1_555
C33_6 C32_6 1_555 1_555
C34_6 C33_6 1_555 1_555
H27_6 C34_6 1_555 1_555
C35_6 C34_6 1_555 1_555
H28_6 C35_6 1_555 1_555
C36_6 C16_6 1_555 1_555
C37_6 C19_6 1_555 1_555
H29_6 C37_6 1_555 1_555
N5_6 C31_6 1_555 1_555
O6_6 C20_6 1_555 1_555
Co4_6 O6_6 1_555 1_555
Co6_2 N5_6 1_555 1_555
Co8_6 O2_6 1_555 1_555
O8_6 Co1_6 1_555 1_555
O10_6 Co1_6 1_555 1_555
C5_6 N1_6 1_555 1_555
C6_12 C7_6 1_555 1_555
C15_6 N2_6 1_555 1_555
C16_6 C17_6 1_555 1_555
C22_6 N3_6 1_555 1_555
C23_6 N3_6 1_555 1_555
Co1_6 N2_6 1_555 1_555
Co1_6 O3_6 1_555 1_555
C33_6 C36_6 1_555 1_555
C35_6 N5_6 1_555 1_555
C36_6 C37_6 1_555 1_555
Co5_4 O4_12 1_555 1_555
Co7_2 O4_13 1_555 1_555
C1_7 H1_7 1_555 1_555
C2_7 C1_7 1_555 1_555
H2_7 C2_7 1_555 1_555
C3_7 C2_7 1_555 1_555
C4_7 C3_7 1_555 1_555
H3_7 C4_7 1_555 1_555
C5_7 C4_7 1_555 1_555
H4_7 C5_7 1_555 1_555
C6_13 H5_13 1_555 1_555
C7_7 C3_7 1_555 1_555
C8_7 C7_7 1_555 1_555
H6_7 C8_7 1_555 1_555
C9_13 C8_7 1_555 1_555
C10_13 C9_13 1_555 1_555
C11_7 H7_7 1_555 1_555
C12_7 C11_7 1_555 1_555
H8_7 C12_7 1_555 1_555
C13_7 C12_7 1_555 1_555
C14_7 C13_7 1_555 1_555
H9_7 C14_7 1_555 1_555
C15_7 C14_7 1_555 1_555
H10_7 C15_7 1_555 1_555
C16_7 H11_7 1_555 1_555
C17_7 C13_7 1_555 1_555
C18_7 C17_7 1_555 1_555
H12_7 C18_7 1_555 1_555
C19_7 C18_7 1_555 1_555
C20_7 C19_7 1_555 1_555
C21_7 H13_7 1_555 1_555
C22_7 H14_7 1_555 1_555
H15_7 C22_7 1_555 1_555
H16_7 C22_7 1_555 1_555
C23_7 H17_7 1_555 1_555
H18_7 C23_7 1_555 1_555
H19_7 C23_7 1_555 1_555
Co1_7 N1_7 1_555 1_555
N1_7 C1_7 1_555 1_555
N2_7 C11_7 1_555 1_555
N3_7 C21_7 1_555 1_555
O2_7 C20_7 1_555 1_555
O3_7 C21_7 1_555 1_555
O4_14 Co1_7 1_555 1_555
O8_2 C10_13 1_555 1_555
C31_7 H25_7 1_555 1_555
C32_7 C31_7 1_555 1_555
H26_7 C32_7 1_555 1_555
C33_7 C32_7 1_555 1_555
C34_7 C33_7 1_555 1_555
H27_7 C34_7 1_555 1_555
C35_7 C34_7 1_555 1_555
H28_7 C35_7 1_555 1_555
C36_7 C16_7 1_555 1_555
C37_7 C19_7 1_555 1_555
H29_7 C37_7 1_555 1_555
N5_7 C31_7 1_555 1_555
O6_7 C20_7 1_555 1_555
Co4_7 O6_7 1_555 1_555
Co5_3 N5_7 1_555 1_555
Co8_7 O2_7 1_555 1_555
O8_7 Co1_7 1_555 1_555
O10_7 Co1_7 1_555 1_555
C5_7 N1_7 1_555 1_555
C6_13 C7_7 1_555 1_555
C15_7 N2_7 1_555 1_555
C16_7 C17_7 1_555 1_555
C22_7 N3_7 1_555 1_555
C23_7 N3_7 1_555 1_555
Co1_7 N2_7 1_555 1_555
Co1_7 O3_7 1_555 1_555
C33_7 C36_7 1_555 1_555
C35_7 N5_7 1_555 1_555
C36_7 C37_7 1_555 1_555
C6_14 H5_14 1_555 1_555
C10_14 C9_14 1_555 1_555
O1_7 C10_14 1_555 1_555
C24_7 H20_7 1_555 1_555
C25_7 C24_7 1_555 1_555
H21_7 C25_7 1_555 1_555
C26_7 C25_7 1_555 1_555
C27_7 C26_7 1_555 1_555
H22_7 C27_7 1_555 1_555
C28_7 C27_7 1_555 1_555
H23_7 C28_7 1_555 1_555
C29_7 C6_14 1_555 1_555
C30_7 C9_14 1_555 1_555
H24_7 C30_7 1_555 1_555
N4_7 C24_7 1_555 1_555
C38_7 H30_7 1_555 1_555
C39_7 H31_7 1_555 1_555
H32_7 C39_7 1_555 1_555
H33_7 C39_7 1_555 1_555
C40_7 H34_7 1_555 1_555
H35_7 C40_7 1_555 1_555
H36_7 C40_7 1_555 1_555
Co5_2 O1_7 1_555 1_555
N6_7 C38_7 1_555 1_555
O7_7 C38_7 1_555 1_555
Co5_4 N4_7 1_555 1_555
O9_7 Co5_2 1_555 1_555
C26_7 C29_7 1_555 1_555
C28_7 N4_7 1_555 1_555
C29_7 C30_7 1_555 1_555
C39_7 N6_7 1_555 1_555
C40_7 N6_7 1_555 1_555
Co5_2 O7_7 1_555 1_555
Co6_2 O4_15 1_555 1_555
C6_15 H5_15 1_555 1_555
C10_15 C9_15 1_555 1_555
O1_8 C10_15 1_555 1_555
C24_8 H20_8 1_555 1_555
C25_8 C24_8 1_555 1_555
H21_8 C25_8 1_555 1_555
C26_8 C25_8 1_555 1_555
C27_8 C26_8 1_555 1_555
H22_8 C27_8 1_555 1_555
C28_8 C27_8 1_555 1_555
H23_8 C28_8 1_555 1_555
C29_8 C6_15 1_555 1_555
C30_8 C9_15 1_555 1_555
H24_8 C30_8 1_555 1_555
N4_8 C24_8 1_555 1_555
C38_8 H30_8 1_555 1_555
C39_8 H31_8 1_555 1_555
H32_8 C39_8 1_555 1_555
H33_8 C39_8 1_555 1_555
C40_8 H34_8 1_555 1_555
H35_8 C40_8 1_555 1_555
H36_8 C40_8 1_555 1_555
Co7 O1_8 1_555 1_555
N6_8 C38_8 1_555 1_555
O7_8 C38_8 1_555 1_555
Co5_3 N4_8 1_555 1_555
O9_8 Co7 1_555 1_555
C26_8 C29_8 1_555 1_555
C28_8 N4_8 1_555 1_555
C29_8 C30_8 1_555 1_555
C39_8 N6_8 1_555 1_555
C40_8 N6_8 1_555 1_555
Co7 O7_8 1_555 1_555
C1_8 H1_8 1_555 1_555
C2_8 C1_8 1_555 1_555
H2_8 C2_8 1_555 1_555
C3_8 C2_8 1_555 1_555
C4_8 C3_8 1_555 1_555
H3_8 C4_8 1_555 1_555
C5_8 C4_8 1_555 1_555
H4_8 C5_8 1_555 1_555
C6_16 H5_16 1_555 1_555
C7_8 C3_8 1_555 1_555
C8_8 C7_8 1_555 1_555
H6_8 C8_8 1_555 1_555
C9_16 C8_8 1_555 1_555
C10_16 C9_16 1_555 1_555
C11_8 H7_8 1_555 1_555
C12_8 C11_8 1_555 1_555
H8_8 C12_8 1_555 1_555
C13_8 C12_8 1_555 1_555
C14_8 C13_8 1_555 1_555
H9_8 C14_8 1_555 1_555
C15_8 C14_8 1_555 1_555
H10_8 C15_8 1_555 1_555
C16_8 H11_8 1_555 1_555
C17_8 C13_8 1_555 1_555
C18_8 C17_8 1_555 1_555
H12_8 C18_8 1_555 1_555
C19_8 C18_8 1_555 1_555
C20_8 C19_8 1_555 1_555
C21_8 H13_8 1_555 1_555
C22_8 H14_8 1_555 1_555
H15_8 C22_8 1_555 1_555
H16_8 C22_8 1_555 1_555
C23_8 H17_8 1_555 1_555
H18_8 C23_8 1_555 1_555
H19_8 C23_8 1_555 1_555
Co1_8 N1_8 1_555 1_555
N1_8 C1_8 1_555 1_555
N2_8 C11_8 1_555 1_555
N3_8 C21_8 1_555 1_555
O2_8 C20_8 1_555 1_555
O3_8 C21_8 1_555 1_555
O4_16 Co1_8 1_555 1_555
O8_3 C10_16 1_555 1_555
C31_8 H25_8 1_555 1_555
C32_8 C31_8 1_555 1_555
H26_8 C32_8 1_555 1_555
C33_8 C32_8 1_555 1_555
C34_8 C33_8 1_555 1_555
H27_8 C34_8 1_555 1_555
C35_8 C34_8 1_555 1_555
H28_8 C35_8 1_555 1_555
C36_8 C16_8 1_555 1_555
C37_8 C19_8 1_555 1_555
H29_8 C37_8 1_555 1_555
N5_8 C31_8 1_555 1_555
O6_8 C20_8 1_555 1_555
Co4_8 O6_8 1_555 1_555
Co5_4 N5_8 1_555 1_555
Co8_8 O2_8 1_555 1_555
O8_8 Co1_8 1_555 1_555
O10_8 Co1_8 1_555 1_555
C5_8 N1_8 1_555 1_555
C6_16 C7_8 1_555 1_555
C15_8 N2_8 1_555 1_555
C16_8 C17_8 1_555 1_555
C22_8 N3_8 1_555 1_555
C23_8 N3_8 1_555 1_555
Co1_8 N2_8 1_555 1_555
Co1_8 O3_8 1_555 1_555
C33_8 C36_8 1_555 1_555
C35_8 N5_8 1_555 1_555
C36_8 C37_8 1_555 1_555
C1_9 H1_9 1_555 1_555
C2_9 C1_9 1_555 1_555
H2_9 C2_9 1_555 1_555
C3_9 C2_9 1_555 1_555
C4_9 C3_9 1_555 1_555
H3_9 C4_9 1_555 1_555
C5_9 C4_9 1_555 1_555
H4_9 C5_9 1_555 1_555
C6_17 H5_17 1_555 1_555
C7_9 C3_9 1_555 1_555
C8_9 C7_9 1_555 1_555
H6_9 C8_9 1_555 1_555
C9_17 C8_9 1_555 1_555
C10_17 C9_17 1_555 1_555
C11_9 H7_9 1_555 1_555
C12_9 C11_9 1_555 1_555
H8_9 C12_9 1_555 1_555
C13_9 C12_9 1_555 1_555
C14_9 C13_9 1_555 1_555
H9_9 C14_9 1_555 1_555
C15_9 C14_9 1_555 1_555
H10_9 C15_9 1_555 1_555
C16_9 H11_9 1_555 1_555
C17_9 C13_9 1_555 1_555
C18_9 C17_9 1_555 1_555
H12_9 C18_9 1_555 1_555
C19_9 C18_9 1_555 1_555
C20_9 C19_9 1_555 1_555
C21_9 H13_9 1_555 1_555
C22_9 H14_9 1_555 1_555
H15_9 C22_9 1_555 1_555
H16_9 C22_9 1_555 1_555
C23_9 H17_9 1_555 1_555
H18_9 C23_9 1_555 1_555
H19_9 C23_9 1_555 1_555
Co3 N1_9 1_555 1_555
N1_9 C1_9 1_555 1_555
N2_9 C11_9 1_555 1_555
N3_9 C21_9 1_555 1_555
O2_9 C20_9 1_555 1_555
O3_9 C21_9 1_555 1_555
O8_5 C10_17 1_555 1_555
C31_9 H25_9 1_555 1_555
C32_9 C31_9 1_555 1_555
H26_9 C32_9 1_555 1_555
C33_9 C32_9 1_555 1_555
C34_9 C33_9 1_555 1_555
H27_9 C34_9 1_555 1_555
C35_9 C34_9 1_555 1_555
H28_9 C35_9 1_555 1_555
C36_9 C16_9 1_555 1_555
C37_9 C19_9 1_555 1_555
H29_9 C37_9 1_555 1_555
N8_4 C31_9 1_555 1_555
O6_9 C20_9 1_555 1_555
Co4_9 O6_9 1_555 1_555
Co8_9 O2_9 1_555 1_555
O10_9 Co3 1_555 1_555
C5_9 N1_9 1_555 1_555
C6_17 C7_9 1_555 1_555
C15_9 N2_9 1_555 1_555
C16_9 C17_9 1_555 1_555
C22_9 N3_9 1_555 1_555
C23_9 N3_9 1_555 1_555
Co3 N2_9 1_555 1_555
Co3 O3_9 1_555 1_555
C33_9 C36_9 1_555 1_555
C35_9 N8_4 1_555 1_555
C36_9 C37_9 1_555 1_555
C6_18 H5_18 1_555 1_555
C10_18 C9_18 1_555 1_555
O1_9 C10_18 1_555 1_555
C24_9 H20_9 1_555 1_555
C25_9 C24_9 1_555 1_555
H21_9 C25_9 1_555 1_555
C26_9 C25_9 1_555 1_555
C27_9 C26_9 1_555 1_555
H22_9 C27_9 1_555 1_555
C28_9 C27_9 1_555 1_555
H23_9 C28_9 1_555 1_555
C29_9 C6_18 1_555 1_555
C30_9 C9_18 1_555 1_555
H24_9 C30_9 1_555 1_555
N7_2 C24_9 1_555 1_555
C38_9 H30_9 1_555 1_555
C39_9 H31_9 1_555 1_555
H32_9 C39_9 1_555 1_555
H33_9 C39_9 1_555 1_555
C40_9 H34_9 1_555 1_555
H35_9 C40_9 1_555 1_555
H36_9 C40_9 1_555 1_555
Co5_3 O1_9 1_555 1_555
N6_9 C38_9 1_555 1_555
O7_9 C38_9 1_555 1_555
O9_9 Co5_3 1_555 1_555
C26_9 C29_9 1_555 1_555
C28_9 N7_2 1_555 1_555
C29_9 C30_9 1_555 1_555
C39_9 N6_9 1_555 1_555
C40_9 N6_9 1_555 1_555
Co5_3 O7_9 1_555 1_555
C6_19 H5_19 1_555 1_555
C10_19 C9_19 1_555 1_555
O1_10 C10_19 1_555 1_555
C24_10 H20_10 1_555 1_555
C25_10 C24_10 1_555 1_555
H21_10 C25_10 1_555 1_555
C26_10 C25_10 1_555 1_555
C27_10 C26_10 1_555 1_555
H22_10 C27_10 1_555 1_555
C28_10 C27_10 1_555 1_555
H23_10 C28_10 1_555 1_555
C29_10 C6_19 1_555 1_555
C30_10 C9_19 1_555 1_555
H24_10 C30_10 1_555 1_555
N7_4 C24_10 1_555 1_555
C38_10 H30_10 1_555 1_555
C39_10 H31_10 1_555 1_555
H32_10 C39_10 1_555 1_555
H33_10 C39_10 1_555 1_555
C40_10 H34_10 1_555 1_555
H35_10 C40_10 1_555 1_555
H36_10 C40_10 1_555 1_555
Co6_2 O1_10 1_555 1_555
N6_10 C38_10 1_555 1_555
O7_10 C38_10 1_555 1_555
O9_10 Co6_2 1_555 1_555
C26_10 C29_10 1_555 1_555
C28_10 N7_4 1_555 1_555
C29_10 C30_10 1_555 1_555
C39_10 N6_10 1_555 1_555
C40_10 N6_10 1_555 1_555
Co6_2 O7_10 1_555 1_555
C1_10 H1_10 1_555 1_555
C2_10 C1_10 1_555 1_555
H2_10 C2_10 1_555 1_555
C3_10 C2_10 1_555 1_555
C4_10 C3_10 1_555 1_555
H3_10 C4_10 1_555 1_555
C5_10 C4_10 1_555 1_555
H4_10 C5_10 1_555 1_555
C6_20 H5_20 1_555 1_555
C7_10 C3_10 1_555 1_555
C8_10 C7_10 1_555 1_555
H6_10 C8_10 1_555 1_555
C9_20 C8_10 1_555 1_555
C10_20 C9_20 1_555 1_555
C11_10 H7_10 1_555 1_555
C12_10 C11_10 1_555 1_555
H8_10 C12_10 1_555 1_555
C13_10 C12_10 1_555 1_555
C14_10 C13_10 1_555 1_555
H9_10 C14_10 1_555 1_555
C15_10 C14_10 1_555 1_555
H10_10 C15_10 1_555 1_555
C16_10 H11_10 1_555 1_555
C17_10 C13_10 1_555 1_555
C18_10 C17_10 1_555 1_555
H12_10 C18_10 1_555 1_555
C19_10 C18_10 1_555 1_555
C20_10 C19_10 1_555 1_555
C21_10 H13_10 1_555 1_555
C22_10 H14_10 1_555 1_555
H15_10 C22_10 1_555 1_555
H16_10 C22_10 1_555 1_555
C23_10 H17_10 1_555 1_555
H18_10 C23_10 1_555 1_555
H19_10 C23_10 1_555 1_555
Co3_3 N1_10 1_555 1_555
N1_10 C1_10 1_555 1_555
N2_10 C11_10 1_555 1_555
N3_10 C21_10 1_555 1_555
O2_10 C20_10 1_555 1_555
O3_10 C21_10 1_555 1_555
O8_8 C10_20 1_555 1_555
C31_10 H25_10 1_555 1_555
C32_10 C31_10 1_555 1_555
H26_10 C32_10 1_555 1_555
C33_10 C32_10 1_555 1_555
C34_10 C33_10 1_555 1_555
H27_10 C34_10 1_555 1_555
C35_10 C34_10 1_555 1_555
H28_10 C35_10 1_555 1_555
C36_10 C16_10 1_555 1_555
C37_10 C19_10 1_555 1_555
H29_10 C37_10 1_555 1_555
N8_2 C31_10 1_555 1_555
O6_10 C20_10 1_555 1_555
Co4_10 O6_10 1_555 1_555
Co8_10 O2_10 1_555 1_555
O10_10 Co3_3 1_555 1_555
C5_10 N1_10 1_555 1_555
C6_20 C7_10 1_555 1_555
C15_10 N2_10 1_555 1_555
C16_10 C17_10 1_555 1_555
C22_10 N3_10 1_555 1_555
C23_10 N3_10 1_555 1_555
Co3_3 N2_10 1_555 1_555
Co3_3 O3_10 1_555 1_555
C33_10 C36_10 1_555 1_555
C35_10 N8_2 1_555 1_555
C36_10 C37_10 1_555 1_555
C1_11 H1_11 1_555 1_555
C2_11 C1_11 1_555 1_555
H2_11 C2_11 1_555 1_555
C3_11 C2_11 1_555 1_555
C4_11 C3_11 1_555 1_555
H3_11 C4_11 1_555 1_555
C5_11 C4_11 1_555 1_555
H4_11 C5_11 1_555 1_555
C6_21 H5_21 1_555 1_555
C7_11 C3_11 1_555 1_555
C8_11 C7_11 1_555 1_555
H6_11 C8_11 1_555 1_555
C9_21 C8_11 1_555 1_555
C10_21 C9_21 1_555 1_555
C11_11 H7_11 1_555 1_555
C12_11 C11_11 1_555 1_555
H8_11 C12_11 1_555 1_555
C13_11 C12_11 1_555 1_555
C14_11 C13_11 1_555 1_555
H9_11 C14_11 1_555 1_555
C15_11 C14_11 1_555 1_555
H10_11 C15_11 1_555 1_555
C16_11 H11_11 1_555 1_555
C17_11 C13_11 1_555 1_555
C18_11 C17_11 1_555 1_555
H12_11 C18_11 1_555 1_555
C19_11 C18_11 1_555 1_555
C20_11 C19_11 1_555 1_555
C21_11 H13_11 1_555 1_555
C22_11 H14_11 1_555 1_555
H15_11 C22_11 1_555 1_555
H16_11 C22_11 1_555 1_555
C23_11 H17_11 1_555 1_555
H18_11 C23_11 1_555 1_555
H19_11 C23_11 1_555 1_555
Co3_4 N1_11 1_555 1_555
N1_11 C1_11 1_555 1_555
N2_11 C11_11 1_555 1_555
N3_11 C21_11 1_555 1_555
O2_11 C20_11 1_555 1_555
O3_11 C21_11 1_555 1_555
O8_6 C10_21 1_555 1_555
C31_11 H25_11 1_555 1_555
C32_11 C31_11 1_555 1_555
H26_11 C32_11 1_555 1_555
C33_11 C32_11 1_555 1_555
C34_11 C33_11 1_555 1_555
H27_11 C34_11 1_555 1_555
C35_11 C34_11 1_555 1_555
H28_11 C35_11 1_555 1_555
C36_11 C16_11 1_555 1_555
C37_11 C19_11 1_555 1_555
H29_11 C37_11 1_555 1_555
N8 C31_11 1_555 1_555
O6_11 C20_11 1_555 1_555
Co4_11 O6_11 1_555 1_555
Co8_11 O2_11 1_555 1_555
O10_11 Co3_4 1_555 1_555
C5_11 N1_11 1_555 1_555
C6_21 C7_11 1_555 1_555
C15_11 N2_11 1_555 1_555
C16_11 C17_11 1_555 1_555
C22_11 N3_11 1_555 1_555
C23_11 N3_11 1_555 1_555
Co3_4 N2_11 1_555 1_555
Co3_4 O3_11 1_555 1_555
C33_11 C36_11 1_555 1_555
C35_11 N8 1_555 1_555
C36_11 C37_11 1_555 1_555
C6_22 H5_22 1_555 1_555
C10_22 C9_22 1_555 1_555
O1_11 C10_22 1_555 1_555
C24_11 H20_11 1_555 1_555
C25_11 C24_11 1_555 1_555
H21_11 C25_11 1_555 1_555
C26_11 C25_11 1_555 1_555
C27_11 C26_11 1_555 1_555
H22_11 C27_11 1_555 1_555
C28_11 C27_11 1_555 1_555
H23_11 C28_11 1_555 1_555
C29_11 C6_22 1_555 1_555
C30_11 C9_22 1_555 1_555
H24_11 C30_11 1_555 1_555
N7_3 C24_11 1_555 1_555
C38_11 H30_11 1_555 1_555
C39_11 H31_11 1_555 1_555
H32_11 C39_11 1_555 1_555
H33_11 C39_11 1_555 1_555
C40_11 H34_11 1_555 1_555
H35_11 C40_11 1_555 1_555
H36_11 C40_11 1_555 1_555
Co5_4 O1_11 1_555 1_555
N6_11 C38_11 1_555 1_555
O7_11 C38_11 1_555 1_555
O9_11 Co5_4 1_555 1_555
C26_11 C29_11 1_555 1_555
C28_11 N7_3 1_555 1_555
C29_11 C30_11 1_555 1_555
C39_11 N6_11 1_555 1_555
C40_11 N6_11 1_555 1_555
Co5_4 O7_11 1_555 1_555
C6_23 H5_23 1_555 1_555
C10_23 C9_23 1_555 1_555
O1_12 C10_23 1_555 1_555
C24_12 H20_12 1_555 1_555
C25_12 C24_12 1_555 1_555
H21_12 C25_12 1_555 1_555
C26_12 C25_12 1_555 1_555
C27_12 C26_12 1_555 1_555
H22_12 C27_12 1_555 1_555
C28_12 C27_12 1_555 1_555
H23_12 C28_12 1_555 1_555
C29_12 C6_23 1_555 1_555
C30_12 C9_23 1_555 1_555
H24_12 C30_12 1_555 1_555
N7 C24_12 1_555 1_555
C38_12 H30_12 1_555 1_555
C39_12 H31_12 1_555 1_555
H32_12 C39_12 1_555 1_555
H33_12 C39_12 1_555 1_555
C40_12 H34_12 1_555 1_555
H35_12 C40_12 1_555 1_555
H36_12 C40_12 1_555 1_555
Co7_2 O1_12 1_555 1_555
N6_12 C38_12 1_555 1_555
O7_12 C38_12 1_555 1_555
O9_12 Co7_2 1_555 1_555
C26_12 C29_12 1_555 1_555
C28_12 N7 1_555 1_555
C29_12 C30_12 1_555 1_555
C39_12 N6_12 1_555 1_555
C40_12 N6_12 1_555 1_555
Co7_2 O7_12 1_555 1_555
C1_12 H1_12 1_555 1_555
C2_12 C1_12 1_555 1_555
H2_12 C2_12 1_555 1_555
C3_12 C2_12 1_555 1_555
C4_12 C3_12 1_555 1_555
H3_12 C4_12 1_555 1_555
C5_12 C4_12 1_555 1_555
H4_12 C5_12 1_555 1_555
C6_24 H5_24 1_555 1_555
C7_12 C3_12 1_555 1_555
C8_12 C7_12 1_555 1_555
H6_12 C8_12 1_555 1_555
C9_24 C8_12 1_555 1_555
C10_24 C9_24 1_555 1_555
C11_12 H7_12 1_555 1_555
C12_12 C11_12 1_555 1_555
H8_12 C12_12 1_555 1_555
C13_12 C12_12 1_555 1_555
C14_12 C13_12 1_555 1_555
H9_12 C14_12 1_555 1_555
C15_12 C14_12 1_555 1_555
H10_12 C15_12 1_555 1_555
C16_12 H11_12 1_555 1_555
C17_12 C13_12 1_555 1_555
C18_12 C17_12 1_555 1_555
H12_12 C18_12 1_555 1_555
C19_12 C18_12 1_555 1_555
C20_12 C19_12 1_555 1_555
C21_12 H13_12 1_555 1_555
C22_12 H14_12 1_555 1_555
H15_12 C22_12 1_555 1_555
H16_12 C22_12 1_555 1_555
C23_12 H17_12 1_555 1_555
H18_12 C23_12 1_555 1_555
H19_12 C23_12 1_555 1_555
Co3_2 N1_12 1_555 1_555
N1_12 C1_12 1_555 1_555
N2_12 C11_12 1_555 1_555
N3_12 C21_12 1_555 1_555
O2_12 C20_12 1_555 1_555
O3_12 C21_12 1_555 1_555
O8_7 C10_24 1_555 1_555
C31_12 H25_12 1_555 1_555
C32_12 C31_12 1_555 1_555
H26_12 C32_12 1_555 1_555
C33_12 C32_12 1_555 1_555
C34_12 C33_12 1_555 1_555
H27_12 C34_12 1_555 1_555
C35_12 C34_12 1_555 1_555
H28_12 C35_12 1_555 1_555
C36_12 C16_12 1_555 1_555
C37_12 C19_12 1_555 1_555
H29_12 C37_12 1_555 1_555
N8_3 C31_12 1_555 1_555
O6_12 C20_12 1_555 1_555
Co4_12 O6_12 1_555 1_555
Co8_12 O2_12 1_555 1_555
O10_12 Co3_2 1_555 1_555
C5_12 N1_12 1_555 1_555
C6_24 C7_12 1_555 1_555
C15_12 N2_12 1_555 1_555
C16_12 C17_12 1_555 1_555
C22_12 N3_12 1_555 1_555
C23_12 N3_12 1_555 1_555
Co3_2 N2_12 1_555 1_555
Co3_2 O3_12 1_555 1_555
C33_12 C36_12 1_555 1_555
C35_12 N8_3 1_555 1_555
C36_12 C37_12 1_555 1_555
C16_13 H11_13 1_555 1_555
C20_13 C19_13 1_555 1_555
C31_13 H25_13 1_555 1_555
C32_13 C31_13 1_555 1_555
H26_13 C32_13 1_555 1_555
C33_13 C32_13 1_555 1_555
C34_13 C33_13 1_555 1_555
H27_13 C34_13 1_555 1_555
C35_13 C34_13 1_555 1_555
H28_13 C35_13 1_555 1_555
C36_13 C16_13 1_555 1_555
C37_13 C19_13 1_555 1_555
H29_13 C37_13 1_555 1_555
N5_9 C31_13 1_555 1_555
O10_6 C20_13 1_555 1_555
Co8_11 N5_9 1_555 1_555
C33_13 C36_13 1_555 1_555
C35_13 N5_9 1_555 1_555
C36_13 C37_13 1_555 1_555
C1_13 H1_13 1_555 1_555
C2_13 C1_13 1_555 1_555
H2_13 C2_13 1_555 1_555
C3_13 C2_13 1_555 1_555
C4_13 C3_13 1_555 1_555
H3_13 C4_13 1_555 1_555
C5_13 C4_13 1_555 1_555
H4_13 C5_13 1_555 1_555
C6_25 H5_25 1_555 1_555
C7_13 C3_13 1_555 1_555
C8_13 C7_13 1_555 1_555
H6_13 C8_13 1_555 1_555
C9_25 C8_13 1_555 1_555
C10_25 C9_25 1_555 1_555
C11_13 H7_13 1_555 1_555
C12_13 C11_13 1_555 1_555
H8_13 C12_13 1_555 1_555
C13_13 C12_13 1_555 1_555
C14_13 C13_13 1_555 1_555
H9_13 C14_13 1_555 1_555
C15_13 C14_13 1_555 1_555
H10_13 C15_13 1_555 1_555
C16_14 H11_14 1_555 1_555
C17_13 C13_13 1_555 1_555
C18_13 C17_13 1_555 1_555
H12_13 C18_13 1_555 1_555
C19_14 C18_13 1_555 1_555
C20_14 C19_14 1_555 1_555
C21_13 H13_13 1_555 1_555
C22_13 H14_13 1_555 1_555
H15_13 C22_13 1_555 1_555
H16_13 C22_13 1_555 1_555
C23_13 H17_13 1_555 1_555
H18_13 C23_13 1_555 1_555
H19_13 C23_13 1_555 1_555
Co4_12 N1_13 1_555 1_555
N1_13 C1_13 1_555 1_555
N2_13 C11_13 1_555 1_555
N3_13 C21_13 1_555 1_555
O1_13 C10_25 1_555 1_555
O9_11 C20_14 1_555 1_555
O3_13 C21_13 1_555 1_555
O4_17 Co4_12 1_555 1_555
C24_13 H20_13 1_555 1_555
C25_13 C24_13 1_555 1_555
H21_13 C25_13 1_555 1_555
C26_13 C25_13 1_555 1_555
C27_13 C26_13 1_555 1_555
H22_13 C27_13 1_555 1_555
C28_13 C27_13 1_555 1_555
H23_13 C28_13 1_555 1_555
C29_13 C6_25 1_555 1_555
C30_13 C9_25 1_555 1_555
H24_13 C30_13 1_555 1_555
N4_9 C24_13 1_555 1_555
O5_5 C10_25 1_555 1_555
C38_13 H30_13 1_555 1_555
C39_13 H31_13 1_555 1_555
H32_13 C39_13 1_555 1_555
H33_13 C39_13 1_555 1_555
C40_13 H34_13 1_555 1_555
H35_13 C40_13 1_555 1_555
H36_13 C40_13 1_555 1_555
Co8_8 O1_13 1_555 1_555
N6_13 C38_13 1_555 1_555
O7_13 C38_13 1_555 1_555
Co4_8 O5_5 1_555 1_555
Co8_12 O4_17 1_555 1_555
Co8_10 N4_9 1_555 1_555
N7_5 Co8_8 1_555 1_555
N8_5 Co8_8 1_555 1_555
O8_9 Co4_12 1_555 1_555
O11_9 Co8_8 1_555 1_555
C5_13 N1_13 1_555 1_555
C6_25 C7_13 1_555 1_555
C15_13 N2_13 1_555 1_555
C16_14 C17_13 1_555 1_555
C22_13 N3_13 1_555 1_555
C23_13 N3_13 1_555 1_555
Co4_12 N2_13 1_555 1_555
Co4_12 O3_13 1_555 1_555
C26_13 C29_13 1_555 1_555
C28_13 N4_9 1_555 1_555
C29_13 C30_13 1_555 1_555
C39_13 N6_13 1_555 1_555
C40_13 N6_13 1_555 1_555
Co8_8 O7_13 1_555 1_555
Co4_8 O11_9 1_555 1_555
C1_14 H1_14 1_555 1_555
C2_14 C1_14 1_555 1_555
H2_14 C2_14 1_555 1_555
C3_14 C2_14 1_555 1_555
C4_14 C3_14 1_555 1_555
H3_14 C4_14 1_555 1_555
C5_14 C4_14 1_555 1_555
H4_14 C5_14 1_555 1_555
C6_26 H5_26 1_555 1_555
C7_14 C3_14 1_555 1_555
C8_14 C7_14 1_555 1_555
H6_14 C8_14 1_555 1_555
C9_26 C8_14 1_555 1_555
C10_26 C9_26 1_555 1_555
C11_14 H7_14 1_555 1_555
C12_14 C11_14 1_555 1_555
H8_14 C12_14 1_555 1_555
C13_14 C12_14 1_555 1_555
C14_14 C13_14 1_555 1_555
H9_14 C14_14 1_555 1_555
C15_14 C14_14 1_555 1_555
H10_14 C15_14 1_555 1_555
C16_15 H11_15 1_555 1_555
C17_14 C13_14 1_555 1_555
C18_14 C17_14 1_555 1_555
H12_14 C18_14 1_555 1_555
C19_15 C18_14 1_555 1_555
C20_15 C19_15 1_555 1_555
C21_14 H13_14 1_555 1_555
C22_14 H14_14 1_555 1_555
H15_14 C22_14 1_555 1_555
H16_14 C22_14 1_555 1_555
C23_14 H17_14 1_555 1_555
H18_14 C23_14 1_555 1_555
H19_14 C23_14 1_555 1_555
Co4_9 N1_14 1_555 1_555
N1_14 C1_14 1_555 1_555
N2_14 C11_14 1_555 1_555
N3_14 C21_14 1_555 1_555
O1_14 C10_26 1_555 1_555
O9_10 C20_15 1_555 1_555
O3_14 C21_14 1_555 1_555
O4_18 Co4_9 1_555 1_555
C24_14 H20_14 1_555 1_555
C25_14 C24_14 1_555 1_555
H21_14 C25_14 1_555 1_555
C26_14 C25_14 1_555 1_555
C27_14 C26_14 1_555 1_555
H22_14 C27_14 1_555 1_555
C28_14 C27_14 1_555 1_555
H23_14 C28_14 1_555 1_555
C29_14 C6_26 1_555 1_555
C30_14 C9_26 1_555 1_555
H24_14 C30_14 1_555 1_555
N4_10 C24_14 1_555 1_555
O5_6 C10_26 1_555 1_555
C38_14 H30_14 1_555 1_555
C39_14 H31_14 1_555 1_555
H32_14 C39_14 1_555 1_555
H33_14 C39_14 1_555 1_555
C40_14 H34_14 1_555 1_555
H35_14 C40_14 1_555 1_555
H36_14 C40_14 1_555 1_555
Co8_6 O1_14 1_555 1_555
N6_14 C38_14 1_555 1_555
O7_14 C38_14 1_555 1_555
Co4_6 O5_6 1_555 1_555
Co8_9 O4_18 1_555 1_555
Co8_11 N4_10 1_555 1_555
N7_6 Co8_6 1_555 1_555
N8_6 Co8_6 1_555 1_555
O8_10 Co4_9 1_555 1_555
O11_10 Co8_6 1_555 1_555
C5_14 N1_14 1_555 1_555
C6_26 C7_14 1_555 1_555
C15_14 N2_14 1_555 1_555
C16_15 C17_14 1_555 1_555
C22_14 N3_14 1_555 1_555
C23_14 N3_14 1_555 1_555
Co4_9 N2_14 1_555 1_555
Co4_9 O3_14 1_555 1_555
C26_14 C29_14 1_555 1_555
C28_14 N4_10 1_555 1_555
C29_14 C30_14 1_555 1_555
C39_14 N6_14 1_555 1_555
C40_14 N6_14 1_555 1_555
Co8_6 O7_14 1_555 1_555
Co4_6 O11_10 1_555 1_555
C16_16 H11_16 1_555 1_555
C20_16 C19_16 1_555 1_555
C31_14 H25_14 1_555 1_555
C32_14 C31_14 1_555 1_555
H26_14 C32_14 1_555 1_555
C33_14 C32_14 1_555 1_555
C34_14 C33_14 1_555 1_555
H27_14 C34_14 1_555 1_555
C35_14 C34_14 1_555 1_555
H28_14 C35_14 1_555 1_555
C36_14 C16_16 1_555 1_555
C37_14 C19_16 1_555 1_555
H29_14 C37_14 1_555 1_555
N5_10 C31_14 1_555 1_555
O10_8 C20_16 1_555 1_555
Co8_10 N5_10 1_555 1_555
C33_14 C36_14 1_555 1_555
C35_14 N5_10 1_555 1_555
C36_14 C37_14 1_555 1_555
C1_15 H1_15 1_555 1_555
C2_15 C1_15 1_555 1_555
H2_15 C2_15 1_555 1_555
C3_15 C2_15 1_555 1_555
C4_15 C3_15 1_555 1_555
H3_15 C4_15 1_555 1_555
C5_15 C4_15 1_555 1_555
H4_15 C5_15 1_555 1_555
C6_27 H5_27 1_555 1_555
C7_15 C3_15 1_555 1_555
C8_15 C7_15 1_555 1_555
H6_15 C8_15 1_555 1_555
C9_27 C8_15 1_555 1_555
C10_27 C9_27 1_555 1_555
C11_15 H7_15 1_555 1_555
C12_15 C11_15 1_555 1_555
H8_15 C12_15 1_555 1_555
C13_15 C12_15 1_555 1_555
C14_15 C13_15 1_555 1_555
H9_15 C14_15 1_555 1_555
C15_15 C14_15 1_555 1_555
H10_15 C15_15 1_555 1_555
C16_17 H11_17 1_555 1_555
C17_15 C13_15 1_555 1_555
C18_15 C17_15 1_555 1_555
H12_15 C18_15 1_555 1_555
C19_17 C18_15 1_555 1_555
C20_17 C19_17 1_555 1_555
C21_15 H13_15 1_555 1_555
C22_15 H14_15 1_555 1_555
H15_15 C22_15 1_555 1_555
H16_15 C22_15 1_555 1_555
C23_15 H17_15 1_555 1_555
H18_15 C23_15 1_555 1_555
H19_15 C23_15 1_555 1_555
Co4_11 N1_15 1_555 1_555
N1_15 C1_15 1_555 1_555
N2_15 C11_15 1_555 1_555
N3_15 C21_15 1_555 1_555
O1_15 C10_27 1_555 1_555
O9_12 C20_17 1_555 1_555
O3_15 C21_15 1_555 1_555
O4_19 Co4_11 1_555 1_555
C24_15 H20_15 1_555 1_555
C25_15 C24_15 1_555 1_555
H21_15 C25_15 1_555 1_555
C26_15 C25_15 1_555 1_555
C27_15 C26_15 1_555 1_555
H22_15 C27_15 1_555 1_555
C28_15 C27_15 1_555 1_555
H23_15 C28_15 1_555 1_555
C29_15 C6_27 1_555 1_555
C30_15 C9_27 1_555 1_555
H24_15 C30_15 1_555 1_555
N4_11 C24_15 1_555 1_555
O5_7 C10_27 1_555 1_555
C38_15 H30_15 1_555 1_555
C39_15 H31_15 1_555 1_555
H32_15 C39_15 1_555 1_555
H33_15 C39_15 1_555 1_555
C40_15 H34_15 1_555 1_555
H35_15 C40_15 1_555 1_555
H36_15 C40_15 1_555 1_555
Co8_5 O1_15 1_555 1_555
N6_15 C38_15 1_555 1_555
O7_15 C38_15 1_555 1_555
Co4_5 O5_7 1_555 1_555
Co8_11 O4_19 1_555 1_555
Co8_9 N4_11 1_555 1_555
N7_7 Co8_5 1_555 1_555
N8_7 Co8_5 1_555 1_555
O8_11 Co4_11 1_555 1_555
O11_11 Co8_5 1_555 1_555
C5_15 N1_15 1_555 1_555
C6_27 C7_15 1_555 1_555
C15_15 N2_15 1_555 1_555
C16_17 C17_15 1_555 1_555
C22_15 N3_15 1_555 1_555
C23_15 N3_15 1_555 1_555
Co4_11 N2_15 1_555 1_555
Co4_11 O3_15 1_555 1_555
C26_15 C29_15 1_555 1_555
C28_15 N4_11 1_555 1_555
C29_15 C30_15 1_555 1_555
C39_15 N6_15 1_555 1_555
C40_15 N6_15 1_555 1_555
Co8_5 O7_15 1_555 1_555
Co4_5 O11_11 1_555 1_555
C16_18 H11_18 1_555 1_555
C20_18 C19_18 1_555 1_555
C31_15 H25_15 1_555 1_555
C32_15 C31_15 1_555 1_555
H26_15 C32_15 1_555 1_555
C33_15 C32_15 1_555 1_555
C34_15 C33_15 1_555 1_555
H27_15 C34_15 1_555 1_555
C35_15 C34_15 1_555 1_555
H28_15 C35_15 1_555 1_555
C36_15 C16_18 1_555 1_555
C37_15 C19_18 1_555 1_555
H29_15 C37_15 1_555 1_555
N5_11 C31_15 1_555 1_555
O10_7 C20_18 1_555 1_555
Co8_12 N5_11 1_555 1_555
C33_15 C36_15 1_555 1_555
C35_15 N5_11 1_555 1_555
C36_15 C37_15 1_555 1_555
C16_19 H11_19 1_555 1_555
C20_19 C19_19 1_555 1_555
C31_16 H25_16 1_555 1_555
C32_16 C31_16 1_555 1_555
H26_16 C32_16 1_555 1_555
C33_16 C32_16 1_555 1_555
C34_16 C33_16 1_555 1_555
H27_16 C34_16 1_555 1_555
C35_16 C34_16 1_555 1_555
H28_16 C35_16 1_555 1_555
C36_16 C16_19 1_555 1_555
C37_16 C19_19 1_555 1_555
H29_16 C37_16 1_555 1_555
N5_12 C31_16 1_555 1_555
O10_5 C20_19 1_555 1_555
Co8_9 N5_12 1_555 1_555
C33_16 C36_16 1_555 1_555
C35_16 N5_12 1_555 1_555
C36_16 C37_16 1_555 1_555
C1_16 H1_16 1_555 1_555
C2_16 C1_16 1_555 1_555
H2_16 C2_16 1_555 1_555
C3_16 C2_16 1_555 1_555
C4_16 C3_16 1_555 1_555
H3_16 C4_16 1_555 1_555
C5_16 C4_16 1_555 1_555
H4_16 C5_16 1_555 1_555
C6_28 H5_28 1_555 1_555
C7_16 C3_16 1_555 1_555
C8_16 C7_16 1_555 1_555
H6_16 C8_16 1_555 1_555
C9_28 C8_16 1_555 1_555
C10_28 C9_28 1_555 1_555
C11_16 H7_16 1_555 1_555
C12_16 C11_16 1_555 1_555
H8_16 C12_16 1_555 1_555
C13_16 C12_16 1_555 1_555
C14_16 C13_16 1_555 1_555
H9_16 C14_16 1_555 1_555
C15_16 C14_16 1_555 1_555
H10_16 C15_16 1_555 1_555
C16_20 H11_20 1_555 1_555
C17_16 C13_16 1_555 1_555
C18_16 C17_16 1_555 1_555
H12_16 C18_16 1_555 1_555
C19_20 C18_16 1_555 1_555
C20_20 C19_20 1_555 1_555
C21_16 H13_16 1_555 1_555
C22_16 H14_16 1_555 1_555
H15_16 C22_16 1_555 1_555
H16_16 C22_16 1_555 1_555
C23_16 H17_16 1_555 1_555
H18_16 C23_16 1_555 1_555
H19_16 C23_16 1_555 1_555
Co4_10 N1_16 1_555 1_555
N1_16 C1_16 1_555 1_555
N2_16 C11_16 1_555 1_555
N3_16 C21_16 1_555 1_555
O1_16 C10_28 1_555 1_555
O9_9 C20_20 1_555 1_555
O3_16 C21_16 1_555 1_555
O4_20 Co4_10 1_555 1_555
C24_16 H20_16 1_555 1_555
C25_16 C24_16 1_555 1_555
H21_16 C25_16 1_555 1_555
C26_16 C25_16 1_555 1_555
C27_16 C26_16 1_555 1_555
H22_16 C27_16 1_555 1_555
C28_16 C27_16 1_555 1_555
H23_16 C28_16 1_555 1_555
C29_16 C6_28 1_555 1_555
C30_16 C9_28 1_555 1_555
H24_16 C30_16 1_555 1_555
N4_12 C24_16 1_555 1_555
O5_8 C10_28 1_555 1_555
C38_16 H30_16 1_555 1_555
C39_16 H31_16 1_555 1_555
H32_16 C39_16 1_555 1_555
H33_16 C39_16 1_555 1_555
C40_16 H34_16 1_555 1_555
H35_16 C40_16 1_555 1_555
H36_16 C40_16 1_555 1_555
Co8_7 O1_16 1_555 1_555
N6_16 C38_16 1_555 1_555
O7_16 C38_16 1_555 1_555
Co4_7 O5_8 1_555 1_555
Co8_10 O4_20 1_555 1_555
Co8_12 N4_12 1_555 1_555
N7_8 Co8_7 1_555 1_555
N8_8 Co8_7 1_555 1_555
O8_12 Co4_10 1_555 1_555
O11_12 Co8_7 1_555 1_555
C5_16 N1_16 1_555 1_555
C6_28 C7_16 1_555 1_555
C15_16 N2_16 1_555 1_555
C16_20 C17_16 1_555 1_555
C22_16 N3_16 1_555 1_555
C23_16 N3_16 1_555 1_555
Co4_10 N2_16 1_555 1_555
Co4_10 O3_16 1_555 1_555
C26_16 C29_16 1_555 1_555
C28_16 N4_12 1_555 1_555
C29_16 C30_16 1_555 1_555
C39_16 N6_16 1_555 1_555
C40_16 N6_16 1_555 1_555
Co8_7 O7_16 1_555 1_555
Co4_7 O11_12 1_555 1_555
C16_21 H11_21 1_555 1_555
C20_21 C19_21 1_555 1_555
C31_17 H25_17 1_555 1_555
C32_17 C31_17 1_555 1_555
H26_17 C32_17 1_555 1_555
C33_17 C32_17 1_555 1_555
C34_17 C33_17 1_555 1_555
H27_17 C34_17 1_555 1_555
C35_17 C34_17 1_555 1_555
H28_17 C35_17 1_555 1_555
C36_17 C16_21 1_555 1_555
C37_17 C19_21 1_555 1_555
H29_17 C37_17 1_555 1_555
N5_13 C31_17 1_555 1_555
O10_10 C20_21 1_555 1_555
Co8_3 N5_13 1_555 1_555
C33_17 C36_17 1_555 1_555
C35_17 N5_13 1_555 1_555
C36_17 C37_17 1_555 1_555
C1_17 H1_17 1_555 1_555
C2_17 C1_17 1_555 1_555
H2_17 C2_17 1_555 1_555
C3_17 C2_17 1_555 1_555
C4_17 C3_17 1_555 1_555
H3_17 C4_17 1_555 1_555
C5_17 C4_17 1_555 1_555
H4_17 C5_17 1_555 1_555
C6_29 H5_29 1_555 1_555
C7_17 C3_17 1_555 1_555
C8_17 C7_17 1_555 1_555
H6_17 C8_17 1_555 1_555
C9_29 C8_17 1_555 1_555
C10_29 C9_29 1_555 1_555
C11_17 H7_17 1_555 1_555
C12_17 C11_17 1_555 1_555
H8_17 C12_17 1_555 1_555
C13_17 C12_17 1_555 1_555
C14_17 C13_17 1_555 1_555
H9_17 C14_17 1_555 1_555
C15_17 C14_17 1_555 1_555
H10_17 C15_17 1_555 1_555
C16_22 H11_22 1_555 1_555
C17_17 C13_17 1_555 1_555
C18_17 C17_17 1_555 1_555
H12_17 C18_17 1_555 1_555
C19_22 C18_17 1_555 1_555
C20_22 C19_22 1_555 1_555
C21_17 H13_17 1_555 1_555
C22_17 H14_17 1_555 1_555
H15_17 C22_17 1_555 1_555
H16_17 C22_17 1_555 1_555
C23_17 H17_17 1_555 1_555
H18_17 C23_17 1_555 1_555
H19_17 C23_17 1_555 1_555
Co4_4 N1_17 1_555 1_555
N1_17 C1_17 1_555 1_555
N2_17 C11_17 1_555 1_555
N3_17 C21_17 1_555 1_555
O1_17 C10_29 1_555 1_555
O9_3 C20_22 1_555 1_555
O3_17 C21_17 1_555 1_555
O4_21 Co4_4 1_555 1_555
C24_17 H20_17 1_555 1_555
C25_17 C24_17 1_555 1_555
H21_17 C25_17 1_555 1_555
C26_17 C25_17 1_555 1_555
C27_17 C26_17 1_555 1_555
H22_17 C27_17 1_555 1_555
C28_17 C27_17 1_555 1_555
H23_17 C28_17 1_555 1_555
C29_17 C6_29 1_555 1_555
C30_17 C9_29 1_555 1_555
H24_17 C30_17 1_555 1_555
N4_13 C24_17 1_555 1_555
O8_9 C10_29 1_555 1_555
C38_17 H30_17 1_555 1_555
C39_17 H31_17 1_555 1_555
H32_17 C39_17 1_555 1_555
H33_17 C39_17 1_555 1_555
C40_17 H34_17 1_555 1_555
H35_17 C40_17 1_555 1_555
H36_17 C40_17 1_555 1_555
Co8_12 O1_17 1_555 1_555
N6_17 C38_17 1_555 1_555
O7_17 C38_17 1_555 1_555
Co8_4 O4_21 1_555 1_555
Co8_2 N4_13 1_555 1_555
O8_13 Co4_4 1_555 1_555
C5_17 N1_17 1_555 1_555
C6_29 C7_17 1_555 1_555
C15_17 N2_17 1_555 1_555
C16_22 C17_17 1_555 1_555
C22_17 N3_17 1_555 1_555
C23_17 N3_17 1_555 1_555
Co4_4 N2_17 1_555 1_555
Co4_4 O3_17 1_555 1_555
C26_17 C29_17 1_555 1_555
C28_17 N4_13 1_555 1_555
C29_17 C30_17 1_555 1_555
C39_17 N6_17 1_555 1_555
C40_17 N6_17 1_555 1_555
Co8_12 O7_17 1_555 1_555
C1_18 H1_18 1_555 1_555
C2_18 C1_18 1_555 1_555
H2_18 C2_18 1_555 1_555
C3_18 C2_18 1_555 1_555
C4_18 C3_18 1_555 1_555
H3_18 C4_18 1_555 1_555
C5_18 C4_18 1_555 1_555
H4_18 C5_18 1_555 1_555
C6_30 H5_30 1_555 1_555
C7_18 C3_18 1_555 1_555
C8_18 C7_18 1_555 1_555
H6_18 C8_18 1_555 1_555
C9_30 C8_18 1_555 1_555
C10_30 C9_30 1_555 1_555
C11_18 H7_18 1_555 1_555
C12_18 C11_18 1_555 1_555
H8_18 C12_18 1_555 1_555
C13_18 C12_18 1_555 1_555
C14_18 C13_18 1_555 1_555
H9_18 C14_18 1_555 1_555
C15_18 C14_18 1_555 1_555
H10_18 C15_18 1_555 1_555
C16_23 H11_23 1_555 1_555
C17_18 C13_18 1_555 1_555
C18_18 C17_18 1_555 1_555
H12_18 C18_18 1_555 1_555
C19_23 C18_18 1_555 1_555
C20_23 C19_23 1_555 1_555
C21_18 H13_18 1_555 1_555
C22_18 H14_18 1_555 1_555
H15_18 C22_18 1_555 1_555
H16_18 C22_18 1_555 1_555
C23_18 H17_18 1_555 1_555
H18_18 C23_18 1_555 1_555
H19_18 C23_18 1_555 1_555
Co4 N1_18 1_555 1_555
N1_18 C1_18 1_555 1_555
N2_18 C11_18 1_555 1_555
N3_18 C21_18 1_555 1_555
O1_18 C10_30 1_555 1_555
O9_2 C20_23 1_555 1_555
O3_18 C21_18 1_555 1_555
O4_22 Co4 1_555 1_555
C24_18 H20_18 1_555 1_555
C25_18 C24_18 1_555 1_555
H21_18 C25_18 1_555 1_555
C26_18 C25_18 1_555 1_555
C27_18 C26_18 1_555 1_555
H22_18 C27_18 1_555 1_555
C28_18 C27_18 1_555 1_555
H23_18 C28_18 1_555 1_555
C29_18 C6_30 1_555 1_555
C30_18 C9_30 1_555 1_555
H24_18 C30_18 1_555 1_555
N4_14 C24_18 1_555 1_555
O8_12 C10_30 1_555 1_555
C38_18 H30_18 1_555 1_555
C39_18 H31_18 1_555 1_555
H32_18 C39_18 1_555 1_555
H33_18 C39_18 1_555 1_555
C40_18 H34_18 1_555 1_555
H35_18 C40_18 1_555 1_555
H36_18 C40_18 1_555 1_555
Co8_10 O1_18 1_555 1_555
N6_18 C38_18 1_555 1_555
O7_18 C38_18 1_555 1_555
Co8 O4_22 1_555 1_555
Co8_3 N4_14 1_555 1_555
O8_14 Co4 1_555 1_555
C5_18 N1_18 1_555 1_555
C6_30 C7_18 1_555 1_555
C15_18 N2_18 1_555 1_555
C16_23 C17_18 1_555 1_555
C22_18 N3_18 1_555 1_555
C23_18 N3_18 1_555 1_555
Co4 N2_18 1_555 1_555
Co4 O3_18 1_555 1_555
C26_18 C29_18 1_555 1_555
C28_18 N4_14 1_555 1_555
C29_18 C30_18 1_555 1_555
C39_18 N6_18 1_555 1_555
C40_18 N6_18 1_555 1_555
Co8_10 O7_18 1_555 1_555
C16_24 H11_24 1_555 1_555
C20_24 C19_24 1_555 1_555
C31_18 H25_18 1_555 1_555
C32_18 C31_18 1_555 1_555
H26_18 C32_18 1_555 1_555
C33_18 C32_18 1_555 1_555
C34_18 C33_18 1_555 1_555
H27_18 C34_18 1_555 1_555
C35_18 C34_18 1_555 1_555
H28_18 C35_18 1_555 1_555
C36_18 C16_24 1_555 1_555
C37_18 C19_24 1_555 1_555
H29_18 C37_18 1_555 1_555
N5_14 C31_18 1_555 1_555
O10_12 C20_24 1_555 1_555
Co8_2 N5_14 1_555 1_555
C33_18 C36_18 1_555 1_555
C35_18 N5_14 1_555 1_555
C36_18 C37_18 1_555 1_555
C1_19 H1_19 1_555 1_555
C2_19 C1_19 1_555 1_555
H2_19 C2_19 1_555 1_555
C3_19 C2_19 1_555 1_555
C4_19 C3_19 1_555 1_555
H3_19 C4_19 1_555 1_555
C5_19 C4_19 1_555 1_555
H4_19 C5_19 1_555 1_555
C6_31 H5_31 1_555 1_555
C7_19 C3_19 1_555 1_555
C8_19 C7_19 1_555 1_555
H6_19 C8_19 1_555 1_555
C9_31 C8_19 1_555 1_555
C10_31 C9_31 1_555 1_555
C11_19 H7_19 1_555 1_555
C12_19 C11_19 1_555 1_555
H8_19 C12_19 1_555 1_555
C13_19 C12_19 1_555 1_555
C14_19 C13_19 1_555 1_555
H9_19 C14_19 1_555 1_555
C15_19 C14_19 1_555 1_555
H10_19 C15_19 1_555 1_555
C16_25 H11_25 1_555 1_555
C17_19 C13_19 1_555 1_555
C18_19 C17_19 1_555 1_555
H12_19 C18_19 1_555 1_555
C19_25 C18_19 1_555 1_555
C20_25 C19_25 1_555 1_555
C21_19 H13_19 1_555 1_555
C22_19 H14_19 1_555 1_555
H15_19 C22_19 1_555 1_555
H16_19 C22_19 1_555 1_555
C23_19 H17_19 1_555 1_555
H18_19 C23_19 1_555 1_555
H19_19 C23_19 1_555 1_555
Co4_3 N1_19 1_555 1_555
N1_19 C1_19 1_555 1_555
N2_19 C11_19 1_555 1_555
N3_19 C21_19 1_555 1_555
O1_19 C10_31 1_555 1_555
O9_4 C20_25 1_555 1_555
O3_19 C21_19 1_555 1_555
O4_23 Co4_3 1_555 1_555
C24_19 H20_19 1_555 1_555
C25_19 C24_19 1_555 1_555
H21_19 C25_19 1_555 1_555
C26_19 C25_19 1_555 1_555
C27_19 C26_19 1_555 1_555
H22_19 C27_19 1_555 1_555
C28_19 C27_19 1_555 1_555
H23_19 C28_19 1_555 1_555
C29_19 C6_31 1_555 1_555
C30_19 C9_31 1_555 1_555
H24_19 C30_19 1_555 1_555
N4_15 C24_19 1_555 1_555
O8_10 C10_31 1_555 1_555
C38_19 H30_19 1_555 1_555
C39_19 H31_19 1_555 1_555
H32_19 C39_19 1_555 1_555
H33_19 C39_19 1_555 1_555
C40_19 H34_19 1_555 1_555
H35_19 C40_19 1_555 1_555
H36_19 C40_19 1_555 1_555
Co8_9 O1_19 1_555 1_555
N6_19 C38_19 1_555 1_555
O7_19 C38_19 1_555 1_555
Co8_3 O4_23 1_555 1_555
Co8 N4_15 1_555 1_555
O8_15 Co4_3 1_555 1_555
C5_19 N1_19 1_555 1_555
C6_31 C7_19 1_555 1_555
C15_19 N2_19 1_555 1_555
C16_25 C17_19 1_555 1_555
C22_19 N3_19 1_555 1_555
C23_19 N3_19 1_555 1_555
Co4_3 N2_19 1_555 1_555
Co4_3 O3_19 1_555 1_555
C26_19 C29_19 1_555 1_555
C28_19 N4_15 1_555 1_555
C29_19 C30_19 1_555 1_555
C39_19 N6_19 1_555 1_555
C40_19 N6_19 1_555 1_555
Co8_9 O7_19 1_555 1_555
C16_26 H11_26 1_555 1_555
C20_26 C19_26 1_555 1_555
C31_19 H25_19 1_555 1_555
C32_19 C31_19 1_555 1_555
H26_19 C32_19 1_555 1_555
C33_19 C32_19 1_555 1_555
C34_19 C33_19 1_555 1_555
H27_19 C34_19 1_555 1_555
C35_19 C34_19 1_555 1_555
H28_19 C35_19 1_555 1_555
C36_19 C16_26 1_555 1_555
C37_19 C19_26 1_555 1_555
H29_19 C37_19 1_555 1_555
N5_15 C31_19 1_555 1_555
O10_11 C20_26 1_555 1_555
Co8_4 N5_15 1_555 1_555
C33_19 C36_19 1_555 1_555
C35_19 N5_15 1_555 1_555
C36_19 C37_19 1_555 1_555
C16_27 H11_27 1_555 1_555
C20_27 C19_27 1_555 1_555
C31_20 H25_20 1_555 1_555
C32_20 C31_20 1_555 1_555
H26_20 C32_20 1_555 1_555
C33_20 C32_20 1_555 1_555
C34_20 C33_20 1_555 1_555
H27_20 C34_20 1_555 1_555
C35_20 C34_20 1_555 1_555
H28_20 C35_20 1_555 1_555
C36_20 C16_27 1_555 1_555
C37_20 C19_27 1_555 1_555
H29_20 C37_20 1_555 1_555
N5_16 C31_20 1_555 1_555
O10_9 C20_27 1_555 1_555
Co8 N5_16 1_555 1_555
C33_20 C36_20 1_555 1_555
C35_20 N5_16 1_555 1_555
C36_20 C37_20 1_555 1_555
C1_20 H1_20 1_555 1_555
C2_20 C1_20 1_555 1_555
H2_20 C2_20 1_555 1_555
C3_20 C2_20 1_555 1_555
C4_20 C3_20 1_555 1_555
H3_20 C4_20 1_555 1_555
C5_20 C4_20 1_555 1_555
H4_20 C5_20 1_555 1_555
C6_32 H5_32 1_555 1_555
C7_20 C3_20 1_555 1_555
C8_20 C7_20 1_555 1_555
H6_20 C8_20 1_555 1_555
C9_32 C8_20 1_555 1_555
C10_32 C9_32 1_555 1_555
C11_20 H7_20 1_555 1_555
C12_20 C11_20 1_555 1_555
H8_20 C12_20 1_555 1_555
C13_20 C12_20 1_555 1_555
C14_20 C13_20 1_555 1_555
H9_20 C14_20 1_555 1_555
C15_20 C14_20 1_555 1_555
H10_20 C15_20 1_555 1_555
C16_28 H11_28 1_555 1_555
C17_20 C13_20 1_555 1_555
C18_20 C17_20 1_555 1_555
H12_20 C18_20 1_555 1_555
C19_28 C18_20 1_555 1_555
C20_28 C19_28 1_555 1_555
C21_20 H13_20 1_555 1_555
C22_20 H14_20 1_555 1_555
H15_20 C22_20 1_555 1_555
H16_20 C22_20 1_555 1_555
C23_20 H17_20 1_555 1_555
H18_20 C23_20 1_555 1_555
H19_20 C23_20 1_555 1_555
Co4_2 N1_20 1_555 1_555
N1_20 C1_20 1_555 1_555
N2_20 C11_20 1_555 1_555
N3_20 C21_20 1_555 1_555
O1_20 C10_32 1_555 1_555
O9 C20_28 1_555 1_555
O3_20 C21_20 1_555 1_555
O4_24 Co4_2 1_555 1_555
C24_20 H20_20 1_555 1_555
C25_20 C24_20 1_555 1_555
H21_20 C25_20 1_555 1_555
C26_20 C25_20 1_555 1_555
C27_20 C26_20 1_555 1_555
H22_20 C27_20 1_555 1_555
C28_20 C27_20 1_555 1_555
H23_20 C28_20 1_555 1_555
C29_20 C6_32 1_555 1_555
C30_20 C9_32 1_555 1_555
H24_20 C30_20 1_555 1_555
N4_16 C24_20 1_555 1_555
O8_11 C10_32 1_555 1_555
C38_20 H30_20 1_555 1_555
C39_20 H31_20 1_555 1_555
H32_20 C39_20 1_555 1_555
H33_20 C39_20 1_555 1_555
C40_20 H34_20 1_555 1_555
H35_20 C40_20 1_555 1_555
H36_20 C40_20 1_555 1_555
Co8_11 O1_20 1_555 1_555
N6_20 C38_20 1_555 1_555
O7_20 C38_20 1_555 1_555
Co8_2 O4_24 1_555 1_555
Co8_4 N4_16 1_555 1_555
O8_16 Co4_2 1_555 1_555
C5_20 N1_20 1_555 1_555
C6_32 C7_20 1_555 1_555
C15_20 N2_20 1_555 1_555
C16_28 C17_20 1_555 1_555
C22_20 N3_20 1_555 1_555
C23_20 N3_20 1_555 1_555
Co4_2 N2_20 1_555 1_555
Co4_2 O3_20 1_555 1_555
C26_20 C29_20 1_555 1_555
C28_20 N4_16 1_555 1_555
C29_20 C30_20 1_555 1_555
C39_20 N6_20 1_555 1_555
C40_20 N6_20 1_555 1_555
Co8_11 O7_20 1_555 1_555
C16_29 H11_29 1_555 1_555
C20_29 C19_29 1_555 1_555
C31_21 H25_21 1_555 1_555
C32_21 C31_21 1_555 1_555
H26_21 C32_21 1_555 1_555
C33_21 C32_21 1_555 1_555
C34_21 C33_21 1_555 1_555
H27_21 C34_21 1_555 1_555
C35_21 C34_21 1_555 1_555
H28_21 C35_21 1_555 1_555
C36_21 C16_29 1_555 1_555
C37_21 C19_29 1_555 1_555
H29_21 C37_21 1_555 1_555
N8_8 C31_21 1_555 1_555
O10_2 C20_29 1_555 1_555
C33_21 C36_21 1_555 1_555
C35_21 N8_8 1_555 1_555
C36_21 C37_21 1_555 1_555
C1_21 H1_21 1_555 1_555
C2_21 C1_21 1_555 1_555
H2_21 C2_21 1_555 1_555
C3_21 C2_21 1_555 1_555
C4_21 C3_21 1_555 1_555
H3_21 C4_21 1_555 1_555
C5_21 C4_21 1_555 1_555
H4_21 C5_21 1_555 1_555
C6_33 H5_33 1_555 1_555
C7_21 C3_21 1_555 1_555
C8_21 C7_21 1_555 1_555
H6_21 C8_21 1_555 1_555
C9_33 C8_21 1_555 1_555
C10_33 C9_33 1_555 1_555
C11_21 H7_21 1_555 1_555
C12_21 C11_21 1_555 1_555
H8_21 C12_21 1_555 1_555
C13_21 C12_21 1_555 1_555
C14_21 C13_21 1_555 1_555
H9_21 C14_21 1_555 1_555
C15_21 C14_21 1_555 1_555
H10_21 C15_21 1_555 1_555
C16_30 H11_30 1_555 1_555
C17_21 C13_21 1_555 1_555
C18_21 C17_21 1_555 1_555
H12_21 C18_21 1_555 1_555
C19_30 C18_21 1_555 1_555
C20_30 C19_30 1_555 1_555
C21_21 H13_21 1_555 1_555
C22_21 H14_21 1_555 1_555
H15_21 C22_21 1_555 1_555
H16_21 C22_21 1_555 1_555
C23_21 H17_21 1_555 1_555
H18_21 C23_21 1_555 1_555
H19_21 C23_21 1_555 1_555
Co4_8 N1_21 1_555 1_555
N1_21 C1_21 1_555 1_555
N2_21 C11_21 1_555 1_555
N3_21 C21_21 1_555 1_555
O1_21 C10_33 1_555 1_555
O9_7 C20_30 1_555 1_555
O3_21 C21_21 1_555 1_555
C24_21 H20_21 1_555 1_555
C25_21 C24_21 1_555 1_555
H21_21 C25_21 1_555 1_555
C26_21 C25_21 1_555 1_555
C27_21 C26_21 1_555 1_555
H22_21 C27_21 1_555 1_555
C28_21 C27_21 1_555 1_555
H23_21 C28_21 1_555 1_555
C29_21 C6_33 1_555 1_555
C30_21 C9_33 1_555 1_555
H24_21 C30_21 1_555 1_555
N7_6 C24_21 1_555 1_555
O8_13 C10_33 1_555 1_555
C38_21 H30_21 1_555 1_555
C39_21 H31_21 1_555 1_555
H32_21 C39_21 1_555 1_555
H33_21 C39_21 1_555 1_555
C40_21 H34_21 1_555 1_555
H35_21 C40_21 1_555 1_555
H36_21 C40_21 1_555 1_555
Co8_4 O1_21 1_555 1_555
N6_21 C38_21 1_555 1_555
O7_21 C38_21 1_555 1_555
C5_21 N1_21 1_555 1_555
C6_33 C7_21 1_555 1_555
C15_21 N2_21 1_555 1_555
C16_30 C17_21 1_555 1_555
C22_21 N3_21 1_555 1_555
C23_21 N3_21 1_555 1_555
Co4_8 N2_21 1_555 1_555
Co4_8 O3_21 1_555 1_555
C26_21 C29_21 1_555 1_555
C28_21 N7_6 1_555 1_555
C29_21 C30_21 1_555 1_555
C39_21 N6_21 1_555 1_555
C40_21 N6_21 1_555 1_555
Co8_4 O7_21 1_555 1_555
C1_22 H1_22 1_555 1_555
C2_22 C1_22 1_555 1_555
H2_22 C2_22 1_555 1_555
C3_22 C2_22 1_555 1_555
C4_22 C3_22 1_555 1_555
H3_22 C4_22 1_555 1_555
C5_22 C4_22 1_555 1_555
H4_22 C5_22 1_555 1_555
C6_34 H5_34 1_555 1_555
C7_22 C3_22 1_555 1_555
C8_22 C7_22 1_555 1_555
H6_22 C8_22 1_555 1_555
C9_34 C8_22 1_555 1_555
C10_34 C9_34 1_555 1_555
C11_22 H7_22 1_555 1_555
C12_22 C11_22 1_555 1_555
H8_22 C12_22 1_555 1_555
C13_22 C12_22 1_555 1_555
C14_22 C13_22 1_555 1_555
H9_22 C14_22 1_555 1_555
C15_22 C14_22 1_555 1_555
H10_22 C15_22 1_555 1_555
C16_31 H11_31 1_555 1_555
C17_22 C13_22 1_555 1_555
C18_22 C17_22 1_555 1_555
H12_22 C18_22 1_555 1_555
C19_31 C18_22 1_555 1_555
C20_31 C19_31 1_555 1_555
C21_22 H13_22 1_555 1_555
C22_22 H14_22 1_555 1_555
H15_22 C22_22 1_555 1_555
H16_22 C22_22 1_555 1_555
C23_22 H17_22 1_555 1_555
H18_22 C23_22 1_555 1_555
H19_22 C23_22 1_555 1_555
Co4_5 N1_22 1_555 1_555
N1_22 C1_22 1_555 1_555
N2_22 C11_22 1_555 1_555
N3_22 C21_22 1_555 1_555
O1_22 C10_34 1_555 1_555
O9_6 C20_31 1_555 1_555
O3_22 C21_22 1_555 1_555
C24_22 H20_22 1_555 1_555
C25_22 C24_22 1_555 1_555
H21_22 C25_22 1_555 1_555
C26_22 C25_22 1_555 1_555
C27_22 C26_22 1_555 1_555
H22_22 C27_22 1_555 1_555
C28_22 C27_22 1_555 1_555
H23_22 C28_22 1_555 1_555
C29_22 C6_34 1_555 1_555
C30_22 C9_34 1_555 1_555
H24_22 C30_22 1_555 1_555
N7_8 C24_22 1_555 1_555
O8_16 C10_34 1_555 1_555
C38_22 H30_22 1_555 1_555
C39_22 H31_22 1_555 1_555
H32_22 C39_22 1_555 1_555
H33_22 C39_22 1_555 1_555
C40_22 H34_22 1_555 1_555
H35_22 C40_22 1_555 1_555
H36_22 C40_22 1_555 1_555
Co8_2 O1_22 1_555 1_555
N6_22 C38_22 1_555 1_555
O7_22 C38_22 1_555 1_555
C5_22 N1_22 1_555 1_555
C6_34 C7_22 1_555 1_555
C15_22 N2_22 1_555 1_555
C16_31 C17_22 1_555 1_555
C22_22 N3_22 1_555 1_555
C23_22 N3_22 1_555 1_555
Co4_5 N2_22 1_555 1_555
Co4_5 O3_22 1_555 1_555
C26_22 C29_22 1_555 1_555
C28_22 N7_8 1_555 1_555
C29_22 C30_22 1_555 1_555
C39_22 N6_22 1_555 1_555
C40_22 N6_22 1_555 1_555
Co8_2 O7_22 1_555 1_555
C16_32 H11_32 1_555 1_555
C20_32 C19_32 1_555 1_555
C31_22 H25_22 1_555 1_555
C32_22 C31_22 1_555 1_555
H26_22 C32_22 1_555 1_555
C33_22 C32_22 1_555 1_555
C34_22 C33_22 1_555 1_555
H27_22 C34_22 1_555 1_555
C35_22 C34_22 1_555 1_555
H28_22 C35_22 1_555 1_555
C36_22 C16_32 1_555 1_555
C37_22 C19_32 1_555 1_555
H29_22 C37_22 1_555 1_555
N8_6 C31_22 1_555 1_555
O10_4 C20_32 1_555 1_555
C33_22 C36_22 1_555 1_555
C35_22 N8_6 1_555 1_555
C36_22 C37_22 1_555 1_555
C1_23 H1_23 1_555 1_555
C2_23 C1_23 1_555 1_555
H2_23 C2_23 1_555 1_555
C3_23 C2_23 1_555 1_555
C4_23 C3_23 1_555 1_555
H3_23 C4_23 1_555 1_555
C5_23 C4_23 1_555 1_555
H4_23 C5_23 1_555 1_555
C6_35 H5_35 1_555 1_555
C7_23 C3_23 1_555 1_555
C8_23 C7_23 1_555 1_555
H6_23 C8_23 1_555 1_555
C9_35 C8_23 1_555 1_555
C10_35 C9_35 1_555 1_555
C11_23 H7_23 1_555 1_555
C12_23 C11_23 1_555 1_555
H8_23 C12_23 1_555 1_555
C13_23 C12_23 1_555 1_555
C14_23 C13_23 1_555 1_555
H9_23 C14_23 1_555 1_555
C15_23 C14_23 1_555 1_555
H10_23 C15_23 1_555 1_555
C16_33 H11_33 1_555 1_555
C17_23 C13_23 1_555 1_555
C18_23 C17_23 1_555 1_555
H12_23 C18_23 1_555 1_555
C19_33 C18_23 1_555 1_555
C20_33 C19_33 1_555 1_555
C21_23 H13_23 1_555 1_555
C22_23 H14_23 1_555 1_555
H15_23 C22_23 1_555 1_555
H16_23 C22_23 1_555 1_555
C23_23 H17_23 1_555 1_555
H18_23 C23_23 1_555 1_555
H19_23 C23_23 1_555 1_555
Co4_7 N1_23 1_555 1_555
N1_23 C1_23 1_555 1_555
N2_23 C11_23 1_555 1_555
N3_23 C21_23 1_555 1_555
O1_23 C10_35 1_555 1_555
O9_8 C20_33 1_555 1_555
O3_23 C21_23 1_555 1_555
C24_23 H20_23 1_555 1_555
C25_23 C24_23 1_555 1_555
H21_23 C25_23 1_555 1_555
C26_23 C25_23 1_555 1_555
C27_23 C26_23 1_555 1_555
H22_23 C27_23 1_555 1_555
C28_23 C27_23 1_555 1_555
H23_23 C28_23 1_555 1_555
C29_23 C6_35 1_555 1_555
C30_23 C9_35 1_555 1_555
H24_23 C30_23 1_555 1_555
N7_7 C24_23 1_555 1_555
O8_14 C10_35 1_555 1_555
C38_23 H30_23 1_555 1_555
C39_23 H31_23 1_555 1_555
H32_23 C39_23 1_555 1_555
H33_23 C39_23 1_555 1_555
C40_23 H34_23 1_555 1_555
H35_23 C40_23 1_555 1_555
H36_23 C40_23 1_555 1_555
Co8 O1_23 1_555 1_555
N6_23 C38_23 1_555 1_555
O7_23 C38_23 1_555 1_555
C5_23 N1_23 1_555 1_555
C6_35 C7_23 1_555 1_555
C15_23 N2_23 1_555 1_555
C16_33 C17_23 1_555 1_555
C22_23 N3_23 1_555 1_555
C23_23 N3_23 1_555 1_555
Co4_7 N2_23 1_555 1_555
Co4_7 O3_23 1_555 1_555
C26_23 C29_23 1_555 1_555
C28_23 N7_7 1_555 1_555
C29_23 C30_23 1_555 1_555
C39_23 N6_23 1_555 1_555
C40_23 N6_23 1_555 1_555
Co8 O7_23 1_555 1_555
C16_34 H11_34 1_555 1_555
C20_34 C19_34 1_555 1_555
C31_23 H25_23 1_555 1_555
C32_23 C31_23 1_555 1_555
H26_23 C32_23 1_555 1_555
C33_23 C32_23 1_555 1_555
C34_23 C33_23 1_555 1_555
H27_23 C34_23 1_555 1_555
C35_23 C34_23 1_555 1_555
H28_23 C35_23 1_555 1_555
C36_23 C16_34 1_555 1_555
C37_23 C19_34 1_555 1_555
H29_23 C37_23 1_555 1_555
N8_5 C31_23 1_555 1_555
O10_3 C20_34 1_555 1_555
C33_23 C36_23 1_555 1_555
C35_23 N8_5 1_555 1_555
C36_23 C37_23 1_555 1_555
C16_35 H11_35 1_555 1_555
C20_35 C19_35 1_555 1_555
C31_24 H25_24 1_555 1_555
C32_24 C31_24 1_555 1_555
H26_24 C32_24 1_555 1_555
C33_24 C32_24 1_555 1_555
C34_24 C33_24 1_555 1_555
H27_24 C34_24 1_555 1_555
C35_24 C34_24 1_555 1_555
H28_24 C35_24 1_555 1_555
C36_24 C16_35 1_555 1_555
C37_24 C19_35 1_555 1_555
H29_24 C37_24 1_555 1_555
N8_7 C31_24 1_555 1_555
O10 C20_35 1_555 1_555
C33_24 C36_24 1_555 1_555
C35_24 N8_7 1_555 1_555
C36_24 C37_24 1_555 1_555
C1_24 H1_24 1_555 1_555
C2_24 C1_24 1_555 1_555
H2_24 C2_24 1_555 1_555
C3_24 C2_24 1_555 1_555
C4_24 C3_24 1_555 1_555
H3_24 C4_24 1_555 1_555
C5_24 C4_24 1_555 1_555
H4_24 C5_24 1_555 1_555
C6_36 H5_36 1_555 1_555
C7_24 C3_24 1_555 1_555
C8_24 C7_24 1_555 1_555
H6_24 C8_24 1_555 1_555
C9_36 C8_24 1_555 1_555
C10_36 C9_36 1_555 1_555
C11_24 H7_24 1_555 1_555
C12_24 C11_24 1_555 1_555
H8_24 C12_24 1_555 1_555
C13_24 C12_24 1_555 1_555
C14_24 C13_24 1_555 1_555
H9_24 C14_24 1_555 1_555
C15_24 C14_24 1_555 1_555
H10_24 C15_24 1_555 1_555
C16_36 H11_36 1_555 1_555
C17_24 C13_24 1_555 1_555
C18_24 C17_24 1_555 1_555
H12_24 C18_24 1_555 1_555
C19_36 C18_24 1_555 1_555
C20_36 C19_36 1_555 1_555
C21_24 H13_24 1_555 1_555
C22_24 H14_24 1_555 1_555
H15_24 C22_24 1_555 1_555
H16_24 C22_24 1_555 1_555
C23_24 H17_24 1_555 1_555
H18_24 C23_24 1_555 1_555
H19_24 C23_24 1_555 1_555
Co4_6 N1_24 1_555 1_555
N1_24 C1_24 1_555 1_555
N2_24 C11_24 1_555 1_555
N3_24 C21_24 1_555 1_555
O1_24 C10_36 1_555 1_555
O9_5 C20_36 1_555 1_555
O3_24 C21_24 1_555 1_555
C24_24 H20_24 1_555 1_555
C25_24 C24_24 1_555 1_555
H21_24 C25_24 1_555 1_555
C26_24 C25_24 1_555 1_555
C27_24 C26_24 1_555 1_555
H22_24 C27_24 1_555 1_555
C28_24 C27_24 1_555 1_555
H23_24 C28_24 1_555 1_555
C29_24 C6_36 1_555 1_555
C30_24 C9_36 1_555 1_555
H24_24 C30_24 1_555 1_555
N7_5 C24_24 1_555 1_555
O8_15 C10_36 1_555 1_555
C38_24 H30_24 1_555 1_555
C39_24 H31_24 1_555 1_555
H32_24 C39_24 1_555 1_555
H33_24 C39_24 1_555 1_555
C40_24 H34_24 1_555 1_555
H35_24 C40_24 1_555 1_555
H36_24 C40_24 1_555 1_555
Co8_3 O1_24 1_555 1_555
N6_24 C38_24 1_555 1_555
O7_24 C38_24 1_555 1_555
C5_24 N1_24 1_555 1_555
C6_36 C7_24 1_555 1_555
C15_24 N2_24 1_555 1_555
C16_36 C17_24 1_555 1_555
C22_24 N3_24 1_555 1_555
C23_24 N3_24 1_555 1_555
Co4_6 N2_24 1_555 1_555
Co4_6 O3_24 1_555 1_555
C26_24 C29_24 1_555 1_555
C28_24 N7_5 1_555 1_555
C29_24 C30_24 1_555 1_555
C39_24 N6_24 1_555 1_555
C40_24 N6_24 1_555 1_555
Co8_3 O7_24 1_555 1_555

#END
