
###############################################################################
#
# This file contains modified crystal structure data generated from the
# MOF subset of the Cambridge Structural Database (CSD) v543 
# hosted by the Cambridge Crystallographic Data Centre (CCDC).
#
# This work is licensed under the Creative Commons
# Attribution-NonCommercial-ShareAlike 4.0 International License.
# To view a copy of this license, visit
# http://creativecommons.org/licenses/by-nc-sa/4.0/
# or send a letter to
# Creative Commons, PO Box 1866, Mountain View, CA 94042, USA.
#
# CIF created using the CSD Python API on 29 September 2022
# The structure has been converted into the P1 space group
# The structure has a 3D framework
# The original CSD entry SIDXUB is in the rhombohedral crystal system
# The framework has been calculated to contain at least 10.0% void space
# The void calculation uses a probe of radius 1.32A, grid spacing 0.4
# The framework is charged, counterions have been retained in the structure
#
###############################################################################

data_SIDXUB
_chemical_formula_moiety         '(C1026 H828 Co36 N144 O180)n'
_symmetry_cell_setting           triclinic
_symmetry_space_group_name_H-M   'P 1'
_symmetry_Int_Tables_number      1
_space_group_name_Hall           'P 1'
loop_
_symmetry_equiv_pos_site_id
_symmetry_equiv_pos_as_xyz
1 x,y,z
_cell_length_a                   46.2728(16)
_cell_length_b                   46.2728(16)
_cell_length_c                   20.4602(15)
_cell_angle_alpha                90
_cell_angle_beta                 90
_cell_angle_gamma                120
_cell_volume                     37939.5
loop_
_atom_site_label
_atom_site_type_symbol
_atom_site_fract_x
_atom_site_fract_y
_atom_site_fract_z
C1 C 0.50502(6) 0.15791(6) 0.19100(12)
C2 C 0.51802(7) 0.17839(6) 0.13731(13)
H1 H 0.5278 0.1725 0.1041
C3 C 0.51678(7) 0.20769(7) 0.13182(14)
C4 C 0.50326(7) 0.21782(6) 0.18238(13)
C5 C 0.49010(6) 0.19671(6) 0.23764(12)
C6 C 0.48992(6) 0.16660(6) 0.23938(12)
H2 H 0.4794 0.1520 0.2739
C7 C 0.50626(6) 0.12668(6) 0.19401(12)
C8 C 0.50135(7) 0.24916(7) 0.17349(14)
H3 H 0.5215 0.2680 0.1893
H4 H 0.4827 0.2473 0.1976
H5 H 0.4986 0.2522 0.1279
C10 C 0.51473(8) 0.21398(8) 0.01167(14)
H7 H 0.4951 0.1934 0.0108
C11 C 0.53026(8) 0.22733(7) 0.07038(15)
C12 C 0.55929(8) 0.25865(8) 0.07291(16)
H8 H 0.5693 0.2678 0.1128
C13 C 0.57317(8) 0.27618(8) 0.01430(16)
H9 H 0.5928 0.2967 0.0150
C14 C 0.47207(7) 0.24018(7) 0.37310(13)
H10 H 0.4835 0.2604 0.3953
C15 C 0.48813(7) 0.23435(7) 0.32307(14)
H11 H 0.5093 0.2510 0.3106
C16 C 0.47325(6) 0.20429(6) 0.29110(13)
C17 C 0.44213(6) 0.18106(6) 0.31235(13)
H12 H 0.4312 0.1599 0.2936
C18 C 0.42700(7) 0.18914(6) 0.36178(12)
H13 H 0.4057 0.1729 0.3748
C19 C 0.46894(6) 0.00214(6) 0.35520(12)
H15 H 0.5131 0.0041 0.3439
C25 C 0.47525(6) 0.03055(6) 0.31000(12)
C37 C 0.42931(6) 0.02001(6) 0.07623(12)
C38 C 0.43946(6) 0.00270(6) 0.03467(12)
H27 H 0.4593 0.0028 0.0432
C41 C 0.38172(6) 0.00454(6) 0.00633(12)
C42 C 0.40050(6) 0.02054(6) 0.06146(12)
H28 H 0.3935 0.0318 0.0890
C43 C 0.44924(6) 0.03856(6) 0.13536(12)
C53 C 0.33017(6) 0.00721(7) 0.03434(13)
C54 C 0.30580(7) 0.01494(6) 0.01774(13)
H39 H 0.2906 0.0129 0.0496
C55 C 0.46674(7) 0.10805(7) 0.38292(13)
H40 H 0.4851 0.1059 0.3718
C56 C 0.49912(7) 0.13984(8) 0.48291(15)
H41 H 0.5080 0.1250 0.4838
H42 H 0.4937 0.1431 0.5266
H43 H 0.5154 0.1609 0.4649
C57 C 0.43673(7) 0.12534(7) 0.46243(14)
H44 H 0.4361 0.1436 0.4415
H45 H 0.4371 0.1281 0.5090
H46 H 0.4173 0.1047 0.4503
Co1 Co 0.515611(8) 0.077503(8) 0.204930(15)
Co2 Co 0.438476(8) 0.067833(8) 0.263348(15)
N2 N 0.44084(5) 0.21849(5) 0.39192(10)
N7 N 0.46795(6) 0.12486(6) 0.44107(11)
O1 O 0.52525(4) 0.12255(4) 0.15676(8)
O2 O 0.48932(4) 0.10444(4) 0.23655(8)
O3 O 0.45697(4) 0.04289(4) 0.31819(8)
O4 O 0.49838(4) 0.03938(4) 0.26944(8)
O5 O 0.47986(4) 0.04879(4) 0.13466(8)
O6 O 0.43329(4) 0.04176(4) 0.18023(8)
O7 O 0.44228(4) 0.09594(4) 0.34600(8)
Co4 Co 0.410836(8) 0.228559(11) 0.461737(15)
N8 N 0.55568(7) 0.10751(5) 0.27475(10)
N9 N 0.41744(5) 0.09273(7) 0.20866(10)
N10 N 0.54414(5) 0.06175(5) 0.15052(10)
N11 N 0.38867(7) 0.03017(5) 0.29184(9)
C9 C 0.52850(8) 0.23144(8) 0.95254(15)
H6 H 0.5184 0.2223 0.9127
H34 H 0.4471 0.0020 0.8656
C50 C 0.32636(6) 0.02834(7) 0.91573(13)
H36 H 0.3259 0.0363 0.8742
C51 C 0.35096(7) 0.02071(7) 0.92884(13)
H37 H 0.3657 0.0224 0.8962
C52 C 0.35356(6) 0.01064(6) 0.99034(12)
N1 N 0.55718(7) 0.26236(7) 0.95518(13)
N6 N 0.30316(5) 0.02516(5) 0.95851(9)
Co6 Co 0.265500(8) 0.037310(11) 0.930015(15)
C20 C 0.43889(6) 0.98515(6) 0.38835(12)
H14 H 0.4223 0.9904 0.3806
C21 C 0.43337(6) 0.96045(6) 0.43288(13)
C22 C 0.45760(6) 0.95136(7) 0.44429(12)
C23 C 0.48790(6) 0.96868(6) 0.41189(12)
C24 C 0.49303(6) 0.99330(6) 0.36681(12)
C26 C 0.45001(7) 0.92253(7) 0.48940(14)
H16 H 0.4600 0.9102 0.4724
H17 H 0.4263 0.9081 0.4925
H18 H 0.4590 0.9309 0.5320
C27 C 0.37072(6) 0.93856(6) 0.56937(12)
H19 H 0.3707 0.9450 0.6124
C28 C 0.40082(7) 0.95285(6) 0.53513(12)
H20 H 0.4206 0.9681 0.5557
C29 C 0.40115(6) 0.94433(6) 0.47048(13)
C30 C 0.37114(6) 0.92107(6) 0.44218(13)
H21 H 0.3703 0.9146 0.3988
C31 C 0.34256(6) 0.90772(6) 0.47987(13)
H22 H 0.3226 0.8921 0.4607
C32 C 0.55332(7) 0.95640(7) 0.49880(14)
H23 H 0.5596 0.9561 0.5418
C33 C 0.52662(6) 0.96177(6) 0.48785(12)
H24 H 0.5160 0.9653 0.5230
C34 C 0.51590(6) 0.96181(6) 0.42523(13)
C35 C 0.53338(7) 0.95776(7) 0.37612(14)
H25 H 0.5274 0.9579 0.3328
C36 C 0.56043(7) 0.95332(7) 0.39155(14)
H26 H 0.5726 0.9512 0.3575
H38 H 0.3305 0.9996 0.0762
N3 N 0.34195(5) 0.91589(5) 0.54199(10)
N4 N 0.56972(6) 0.95190(6) 0.45353(12)
Co5 Co 0.296024(11) 0.894857(8) 0.596681(15)
C39 C 0.42023(6) 0.98532(6) 0.98057(12)
C40 C 0.39066(6) 0.98581(6) 0.96650(13)
C44 C 0.36885(6) 0.96511(7) 0.91001(13)
H29 H 0.3498 0.9680 0.9067
H30 H 0.3616 0.9420 0.9175
H31 H 0.3814 0.9722 0.8701
C45 C 0.44208(7) 0.92437(7) 0.90470(12)
H32 H 0.4395 0.9035 0.9141
C46 C 0.43096(7) 0.93882(7) 0.95086(14)
H33 H 0.4228 0.9285 0.9910
C47 C 0.43216(6) 0.96814(6) 0.93675(12)
C48 C 0.44563(7) 0.98195(7) 0.87792(13)
C49 C 0.45714(7) 0.96652(7) 0.83640(13)
H35 H 0.4664 0.9768 0.7967
N5 N 0.45586(5) 0.93825(5) 0.84948(10)
Co3 Co 0.484389(8) 0.922497(8) 0.795070(15)
C20_2 C 0.01485(6) 0.45374(8) 0.38835(12)
H14_2 H 0.0096 0.4319 0.3806
C21_2 C 0.03955(6) 0.47292(8) 0.43288(13)
C22_2 C 0.04864(7) 0.50624(9) 0.44429(12)
C23_2 C 0.03132(6) 0.51922(8) 0.41189(12)
C24_2 C 0.00670(6) 0.49973(8) 0.36681(12)
C26_2 C 0.07747(7) 0.52748(10) 0.48940(14)
H16_2 H 0.0898 0.5498 0.4724
H17_2 H 0.0919 0.5182 0.4925
H18_2 H 0.0691 0.5281 0.5320
C27_2 C 0.06144(6) 0.43216(8) 0.56937(12)
H19_2 H 0.0550 0.4257 0.6124
C28_2 C 0.04715(6) 0.44797(9) 0.53513(12)
H20_2 H 0.0319 0.4525 0.5557
C29_2 C 0.05567(6) 0.45682(8) 0.47048(13)
C30_2 C 0.07893(6) 0.45007(8) 0.44218(13)
H21_2 H 0.0854 0.4557 0.3988
C31_2 C 0.09228(6) 0.43484(8) 0.47987(13)
H22_2 H 0.1079 0.4305 0.4607
C32_2 C 0.04360(7) 0.59692(10) 0.49880(14)
H23_2 H 0.0439 0.6035 0.5418
C33_2 C 0.03823(6) 0.56485(8) 0.48785(12)
H24_2 H 0.0347 0.5507 0.5230
C34_2 C 0.03819(6) 0.55409(8) 0.42523(13)
C35_2 C 0.04224(7) 0.57562(10) 0.37612(14)
H25_2 H 0.0421 0.5695 0.3328
C36_2 C 0.04668(7) 0.60711(10) 0.39155(14)
H26_2 H 0.0488 0.6214 0.3575
H38_2 H 0.0004 0.3309 0.0762
N3_2 N 0.08411(5) 0.42606(7) 0.54199(10)
N4_2 N 0.04810(6) 0.61782(8) 0.45353(12)
Co5_2 Co 0.105143(8) 0.401166(14) 0.596681(15)
C39_2 C 0.01468(6) 0.43491(8) 0.98057(12)
C40_2 C 0.01419(6) 0.40485(8) 0.96650(13)
C44_2 C 0.03489(7) 0.40374(9) 0.91001(13)
H29_2 H 0.0320 0.3818 0.9067
H30_2 H 0.0580 0.4196 0.9175
H31_2 H 0.0278 0.4092 0.8701
C45_2 C 0.07563(7) 0.51771(10) 0.90470(12)
H32_2 H 0.0965 0.5360 0.9141
C46_2 C 0.06118(7) 0.49214(10) 0.95086(14)
H33_2 H 0.0715 0.4943 0.9910
C47_2 C 0.03186(6) 0.46402(8) 0.93675(12)
C48_2 C 0.01805(7) 0.46368(10) 0.87792(13)
C49_2 C 0.03348(7) 0.49062(10) 0.83640(13)
H35_2 H 0.0232 0.4896 0.7967
N5_2 N 0.06175(5) 0.51761(7) 0.84948(10)
Co3_2 Co 0.077503(8) 0.561892(11) 0.795070(15)
C1_2 C 0.84209(6) 0.34711(8) 0.19100(12)
C2_2 C 0.82161(6) 0.33963(9) 0.13731(13)
H1_2 H 0.8275 0.3553 0.1041
C3_2 C 0.79231(7) 0.30909(10) 0.13182(14)
C4_2 C 0.78218(6) 0.28544(9) 0.18238(13)
C5_2 C 0.80329(6) 0.29339(8) 0.23764(12)
C6_2 C 0.83340(6) 0.32332(8) 0.23938(12)
H2_2 H 0.8480 0.3274 0.2739
C7_2 C 0.87332(6) 0.37958(8) 0.19401(12)
C8_2 C 0.75084(7) 0.25219(10) 0.17349(14)
H3_2 H 0.7320 0.2535 0.1893
H4_2 H 0.7527 0.2354 0.1976
H5_2 H 0.7478 0.2464 0.1279
C10_2 C 0.78602(8) 0.30075(11) 0.01167(14)
H7_2 H 0.8066 0.3017 0.0108
C11_2 C 0.77267(7) 0.30293(11) 0.07038(15)
C12_2 C 0.74135(8) 0.30064(11) 0.07291(16)
H8_2 H 0.7322 0.3015 0.1128
C13_2 C 0.72382(8) 0.29699(11) 0.01430(16)
H9_2 H 0.7033 0.2961 0.0150
C14_2 C 0.75982(7) 0.23189(10) 0.37310(13)
H10_2 H 0.7396 0.2231 0.3953
C15_2 C 0.76565(7) 0.25378(10) 0.32307(14)
H11_2 H 0.7490 0.2583 0.3106
C16_2 C 0.79571(6) 0.26896(8) 0.29110(13)
C17_2 C 0.81894(6) 0.26107(8) 0.31235(13)
H12_2 H 0.8401 0.2713 0.2936
C18_2 C 0.81086(6) 0.23786(9) 0.36178(12)
H13_2 H 0.8271 0.2328 0.3748
C19_2 C 0.99786(6) 0.46680(8) 0.35520(12)
H15_2 H 0.9959 0.5090 0.3439
C25_2 C 0.96945(6) 0.44470(8) 0.31000(12)
C37_2 C 0.97999(6) 0.40930(8) 0.07623(12)
C38_2 C 0.99730(6) 0.43676(8) 0.03467(12)
H27_2 H 0.9972 0.4565 0.0432
C41_2 C 0.99546(6) 0.37718(8) 0.00633(12)
C42_2 C 0.97946(6) 0.37996(8) 0.06146(12)
H28_2 H 0.9682 0.3617 0.0890
C43_2 C 0.96144(6) 0.41068(8) 0.13536(12)
C53_2 C 0.99279(7) 0.32296(9) 0.03434(13)
C54_2 C 0.98506(6) 0.29086(9) 0.01774(13)
H39_2 H 0.9871 0.2777 0.0496
C55_2 C 0.89195(7) 0.35869(10) 0.38292(13)
H40_2 H 0.8941 0.3792 0.3718
C56_2 C 0.86016(8) 0.35928(11) 0.48291(15)
H41_2 H 0.8750 0.3830 0.4838
H42_2 H 0.8569 0.3506 0.5266
H43_2 H 0.8391 0.3545 0.4649
C57_2 C 0.87466(7) 0.31139(10) 0.46243(14)
H44_2 H 0.8564 0.2925 0.4415
H45_2 H 0.8719 0.3090 0.5090
H46_2 H 0.8953 0.3126 0.4503
Co1_2 Co 0.922497(8) 0.438108(11) 0.204930(15)
Co2_2 Co 0.932167(8) 0.370643(11) 0.263348(15)
N2_2 N 0.78151(5) 0.22235(7) 0.39192(10)
N7_2 N 0.87514(6) 0.34309(8) 0.44107(11)
O1_2 O 0.87745(4) 0.40270(6) 0.15676(8)
O2_2 O 0.89556(4) 0.38488(6) 0.23655(8)
O3_2 O 0.95711(4) 0.41408(6) 0.31819(8)
O4_2 O 0.96062(4) 0.45900(6) 0.26944(8)
O5_2 O 0.95121(4) 0.43107(6) 0.13466(8)
O6_2 O 0.95824(4) 0.39153(6) 0.18023(8)
O7_2 O 0.90406(4) 0.34634(6) 0.34600(8)
Co4_2 Co 0.771441(11) 0.182278(14) 0.461737(15)
N8_2 N 0.89249(5) 0.44818(9) 0.27475(10)
N9_2 N 0.90727(7) 0.32472(9) 0.20866(10)
N10_2 N 0.93825(5) 0.48239(7) 0.15052(10)
N11_2 N 0.96983(5) 0.35849(9) 0.29184(9)
C9_2 C 0.76856(8) 0.29706(11) 0.95254(15)
H6_2 H 0.7777 0.2961 0.9127
H34_2 H 0.9980 0.4451 0.8656
C50_2 C 0.97166(7) 0.29802(9) 0.91573(13)
H36_2 H 0.9637 0.2896 0.8742
C51_2 C 0.97929(7) 0.33025(10) 0.92884(13)
H37_2 H 0.9776 0.3433 0.8962
C52_2 C 0.98936(6) 0.34292(8) 0.99034(12)
N1_2 N 0.73764(7) 0.29482(10) 0.95518(13)
N6_2 N 0.97484(5) 0.27800(7) 0.95851(9)
Co6_2 Co 0.962690(11) 0.228191(14) 0.930015(15)
C1_3 C 0.65289(8) 0.49498(6) 0.19100(12)
C2_3 C 0.66037(9) 0.48198(7) 0.13731(13)
H1_3 H 0.6447 0.4722 0.1041
C3_3 C 0.69091(10) 0.48322(7) 0.13182(14)
C4_3 C 0.71456(9) 0.49674(7) 0.18238(13)
C5_3 C 0.70661(8) 0.50990(6) 0.23764(12)
C6_3 C 0.67668(8) 0.51008(6) 0.23938(12)
H2_3 H 0.6726 0.5206 0.2739
C7_3 C 0.62042(8) 0.49374(6) 0.19401(12)
C8_3 C 0.74781(10) 0.49865(7) 0.17349(14)
H3_3 H 0.7465 0.4785 0.1893
H4_3 H 0.7646 0.5173 0.1976
H5_3 H 0.7536 0.5014 0.1279
C10_3 C 0.69925(11) 0.48527(8) 0.01167(14)
H7_3 H 0.6983 0.5049 0.0108
C11_3 C 0.69707(11) 0.46974(8) 0.07038(15)
C12_3 C 0.69936(11) 0.44071(8) 0.07291(16)
H8_3 H 0.6985 0.4307 0.1128
C13_3 C 0.70301(11) 0.42683(8) 0.01430(16)
H9_3 H 0.7039 0.4072 0.0150
C14_3 C 0.76811(10) 0.52793(7) 0.37310(13)
H10_3 H 0.7769 0.5165 0.3953
C15_3 C 0.74622(10) 0.51187(7) 0.32307(14)
H11_3 H 0.7417 0.4907 0.3106
C16_3 C 0.73104(8) 0.52675(6) 0.29110(13)
C17_3 C 0.73893(8) 0.55787(6) 0.31235(13)
H12_3 H 0.7287 0.5688 0.2936
C18_3 C 0.76214(9) 0.57300(7) 0.36178(12)
H13_3 H 0.7672 0.5943 0.3748
C19_3 C 0.53320(8) 0.53106(6) 0.35520(12)
C20_3 C 0.54626(8) 0.56111(6) 0.38835(12)
H14_3 H 0.5681 0.5777 0.3806
C21_3 C 0.52708(8) 0.56663(6) 0.43288(13)
C22_3 C 0.49376(9) 0.54240(6) 0.44429(12)
C23_3 C 0.48078(8) 0.51210(6) 0.41189(12)
C24_3 C 0.50027(8) 0.50697(6) 0.36681(12)
H15_3 H 0.4910 0.4869 0.3439
C25_3 C 0.55530(8) 0.52475(6) 0.31000(12)
C26_3 C 0.47252(10) 0.54999(7) 0.48940(14)
H16_3 H 0.4502 0.5400 0.4724
H17_3 H 0.4818 0.5737 0.4925
H18_3 H 0.4719 0.5410 0.5320
C27_3 C 0.56784(8) 0.62928(6) 0.56937(12)
H19_3 H 0.5743 0.6293 0.6124
C28_3 C 0.55203(9) 0.59918(7) 0.53513(12)
H20_3 H 0.5475 0.5794 0.5557
C29_3 C 0.54318(8) 0.59885(6) 0.47048(13)
C30_3 C 0.54993(8) 0.62886(6) 0.44218(13)
H21_3 H 0.5443 0.6297 0.3988
C31_3 C 0.56516(8) 0.65744(6) 0.47987(13)
H22_3 H 0.5695 0.6774 0.4607
C32_3 C 0.40308(10) 0.44668(7) 0.49880(14)
H23_3 H 0.3965 0.4404 0.5418
C33_3 C 0.43515(8) 0.47338(6) 0.48785(12)
H24_3 H 0.4493 0.4840 0.5230
C34_3 C 0.44591(8) 0.48410(6) 0.42523(13)
C35_3 C 0.42438(10) 0.46662(7) 0.37612(14)
H25_3 H 0.4305 0.4726 0.3328
C36_3 C 0.39289(10) 0.43957(7) 0.39155(14)
H26_3 H 0.3786 0.4274 0.3575
C37_3 C 0.59070(8) 0.57069(6) 0.07623(12)
C38_3 C 0.56324(8) 0.56054(6) 0.03467(12)
H27_3 H 0.5435 0.5407 0.0432
C41_3 C 0.62282(8) 0.61828(6) 0.00633(12)
C42_3 C 0.62004(8) 0.59950(6) 0.06146(12)
H28_3 H 0.6383 0.6065 0.0890
C43_3 C 0.58932(8) 0.55076(6) 0.13536(12)
C53_3 C 0.67704(9) 0.66983(6) 0.03434(13)
H38_3 H 0.6691 0.6695 0.0762
C54_3 C 0.70914(9) 0.69420(7) 0.01774(13)
H39_3 H 0.7223 0.7094 0.0496
C55_3 C 0.64131(10) 0.53326(7) 0.38292(13)
H40_3 H 0.6208 0.5149 0.3718
C56_3 C 0.64072(11) 0.50088(7) 0.48291(15)
H41_3 H 0.6170 0.4920 0.4838
H42_3 H 0.6494 0.5063 0.5266
H43_3 H 0.6455 0.4846 0.4649
C57_3 C 0.68861(10) 0.56327(7) 0.46243(14)
H44_3 H 0.7075 0.5639 0.4415
H45_3 H 0.6910 0.5629 0.5090
H46_3 H 0.6874 0.5827 0.4503
Co1_3 Co 0.561892(11) 0.484389(8) 0.204930(15)
Co2_3 Co 0.629357(11) 0.561524(8) 0.263348(15)
N2_3 N 0.77765(7) 0.55916(5) 0.39192(10)
N3_3 N 0.57394(7) 0.65805(5) 0.54199(10)
N4_3 N 0.38218(8) 0.43028(6) 0.45353(12)
N7_3 N 0.65691(8) 0.53205(6) 0.44107(11)
O1_3 O 0.59730(6) 0.47475(4) 0.15676(8)
O2_3 O 0.61512(6) 0.51068(4) 0.23655(8)
O3_3 O 0.58592(6) 0.54303(4) 0.31819(8)
O4_3 O 0.54100(6) 0.50162(4) 0.26944(8)
O5_3 O 0.56893(6) 0.52014(4) 0.13466(8)
O6_3 O 0.60847(6) 0.56671(4) 0.18023(8)
O7_3 O 0.65366(6) 0.55772(4) 0.34600(8)
Co4_3 Co 0.817722(14) 0.589164(8) 0.461737(15)
Co5_3 Co 0.598834(14) 0.703976(11) 0.596681(15)
N8_3 N 0.55182(9) 0.44432(7) 0.27475(10)
N9_3 N 0.67528(9) 0.58256(5) 0.20866(10)
N10_3 N 0.51761(7) 0.45586(5) 0.15052(10)
N11_3 N 0.64151(9) 0.61133(7) 0.29184(9)
C9_3 C 0.70294(11) 0.47150(8) 0.95254(15)
H6_3 H 0.7039 0.4816 0.9127
C39_3 C 0.56509(8) 0.57977(6) 0.98057(12)
C40_3 C 0.59515(8) 0.60934(6) 0.96650(13)
C44_3 C 0.59626(9) 0.63115(6) 0.91001(13)
H29_3 H 0.6182 0.6502 0.9067
H30_3 H 0.5804 0.6384 0.9175
H31_3 H 0.5908 0.6186 0.8701
C45_3 C 0.48229(10) 0.55792(7) 0.90470(12)
H32_3 H 0.4640 0.5605 0.9141
C46_3 C 0.50786(10) 0.56904(7) 0.95086(14)
H33_3 H 0.5057 0.5772 0.9910
C47_3 C 0.53598(8) 0.56784(6) 0.93675(12)
C48_3 C 0.53632(10) 0.55437(7) 0.87792(13)
H34_3 H 0.5549 0.5529 0.8656
C49_3 C 0.50938(10) 0.54286(7) 0.83640(13)
H35_3 H 0.5104 0.5336 0.7967
C50_3 C 0.70198(9) 0.67364(6) 0.91573(13)
H36_3 H 0.7104 0.6741 0.8742
C51_3 C 0.66975(10) 0.64904(7) 0.92884(13)
H37_3 H 0.6567 0.6343 0.8962
C52_3 C 0.65708(8) 0.64644(6) 0.99034(12)
N1_3 N 0.70518(10) 0.44282(7) 0.95518(13)
N5_3 N 0.48239(7) 0.54414(5) 0.84948(10)
N6_3 N 0.72200(7) 0.69684(5) 0.95851(9)
Co3_3 Co 0.438108(11) 0.515611(8) 0.795070(15)
Co6_3 Co 0.771809(14) 0.734500(8) 0.930015(15)
C1_4 C 0.17169(6) 0.49124(6) 0.52433(12)
C2_4 C 0.18469(7) 0.51172(6) 0.47064(13)
H1_4 H 0.1945 0.5058 0.4374
C3_4 C 0.18345(7) 0.54102(7) 0.46515(14)
C4_4 C 0.16993(7) 0.55115(6) 0.51571(13)
C5_4 C 0.15677(6) 0.53004(6) 0.57097(12)
C6_4 C 0.15659(6) 0.49993(6) 0.57271(12)
H2_4 H 0.1461 0.4853 0.6072
C7_4 C 0.17293(6) 0.46001(6) 0.52734(12)
C8_4 C 0.16802(7) 0.58249(7) 0.50682(14)
H3_4 H 0.1882 0.6013 0.5226
H4_4 H 0.1494 0.5806 0.5309
H5_4 H 0.1653 0.5855 0.4612
C9_4 C 0.19517(8) 0.56477(8) 0.28587(15)
H6_4 H 0.1851 0.5556 0.2460
C10_4 C 0.18140(8) 0.54731(8) 0.34500(14)
H7_4 H 0.1618 0.5267 0.3441
C11_4 C 0.19693(8) 0.56066(7) 0.40371(15)
C12_4 C 0.22596(8) 0.59198(8) 0.40624(16)
H8_4 H 0.2360 0.6011 0.4461
C13_4 C 0.23984(8) 0.60951(8) 0.34763(16)
H9_4 H 0.2595 0.6300 0.3483
C14_4 C 0.13874(7) 0.57351(7) 0.70643(13)
H10_4 H 0.1502 0.5937 0.7286
C15_4 C 0.15480(7) 0.56768(7) 0.65640(14)
H11_4 H 0.1760 0.5843 0.6439
C16_4 C 0.13992(6) 0.53762(6) 0.62443(13)
C17_4 C 0.10880(6) 0.51439(6) 0.64568(13)
H12_4 H 0.0979 0.4932 0.6269
C18_4 C 0.09367(7) 0.52247(6) 0.69511(12)
H13_4 H 0.0724 0.5062 0.7081
C19_4 C 0.13561(6) 0.33547(6) 0.68853(12)
C20_4 C 0.10556(6) 0.31848(6) 0.72168(12)
H14_4 H 0.0890 0.3237 0.7139
C21_4 C 0.10004(6) 0.29378(6) 0.76621(13)
C22_4 C 0.12427(6) 0.28469(7) 0.77762(12)
C23_4 C 0.15457(6) 0.30201(6) 0.74522(12)
C24_4 C 0.15970(6) 0.32663(6) 0.70014(12)
H15_4 H 0.1798 0.3374 0.6772
C25_4 C 0.14192(6) 0.36388(6) 0.64333(12)
C26_4 C 0.11668(7) 0.25586(7) 0.82273(14)
H16_4 H 0.1267 0.2435 0.8057
H17_4 H 0.0930 0.2414 0.8258
H18_4 H 0.1257 0.2642 0.8653
C27_4 C 0.03739(6) 0.27189(6) 0.90270(12)
H19_4 H 0.0374 0.2783 0.9457
C28_4 C 0.06749(7) 0.28618(6) 0.86846(12)
H20_4 H 0.0873 0.3014 0.8890
C29_4 C 0.06782(6) 0.27766(6) 0.80381(13)
C30_4 C 0.03781(6) 0.25440(6) 0.77551(13)
H21_4 H 0.0370 0.2479 0.7321
C31_4 C 0.00923(6) 0.24105(6) 0.81320(13)
C32_4 C 0.21999(7) 0.28973(7) 0.83213(14)
H23_4 H 0.2263 0.2894 0.8751
C33_4 C 0.19329(6) 0.29510(6) 0.82118(12)
H24_4 H 0.1827 0.2986 0.8563
C34_4 C 0.18257(6) 0.29514(6) 0.75856(13)
C35_4 C 0.20005(7) 0.29109(7) 0.70945(14)
H25_4 H 0.1941 0.2912 0.6661
C36_4 C 0.22710(7) 0.28665(7) 0.72488(14)
H26_4 H 0.2393 0.2845 0.6908
C37_4 C 0.09598(6) 0.35334(6) 0.40956(12)
C38_4 C 0.10613(6) 0.33603(6) 0.36800(12)
H27_4 H 0.1260 0.3361 0.3765
C39_4 C 0.08690(6) 0.31865(6) 0.31390(12)
C40_4 C 0.05733(6) 0.31914(6) 0.29983(13)
C41_4 C 0.04839(6) 0.33787(6) 0.33966(12)
C42_4 C 0.06717(6) 0.35387(6) 0.39479(12)
H28_4 H 0.0602 0.3651 0.4223
C43_4 C 0.11591(6) 0.37189(6) 0.46869(12)
C44_4 C 0.03552(6) 0.29844(7) 0.24334(13)
H29_4 H 0.0165 0.3013 0.2400
H30_4 H 0.0283 0.2753 0.2508
H31_4 H 0.0481 0.3055 0.2034
C45_4 C 0.10875(7) 0.25770(7) 0.23803(12)
H32_4 H 0.1062 0.2368 0.2474
C46_4 C 0.09763(7) 0.27215(7) 0.28419(14)
H33_4 H 0.0895 0.2618 0.3243
C47_4 C 0.09883(6) 0.30147(6) 0.27008(12)
C48_4 C 0.11230(7) 0.31528(7) 0.21125(13)
H34_4 H 0.1138 0.3353 0.1989
C49_4 C 0.12381(7) 0.29985(7) 0.16973(13)
H35_4 H 0.1331 0.3101 0.1300
C51_4 C 0.01763(7) 0.35404(7) 0.26217(13)
H37_4 H 0.0324 0.3557 0.2295
C52_4 C 0.02023(6) 0.34397(6) 0.32367(12)
C55_4 C 0.13341(7) 0.44138(7) 0.71625(13)
H40_4 H 0.1518 0.4392 0.7051
C56_4 C 0.16579(7) 0.47317(8) 0.81624(15)
H41_4 H 0.1747 0.4583 0.8171
H42_4 H 0.1604 0.4764 0.8599
H43_4 H 0.1821 0.4942 0.7982
C57_4 C 0.10340(7) 0.45867(7) 0.79576(14)
H44_4 H 0.1028 0.4769 0.7748
H45_4 H 0.1038 0.4614 0.8423
H46_4 H 0.0840 0.4380 0.7836
Co1_4 Co 0.182278(8) 0.410836(8) 0.538263(15)
N1_4 N 0.22385(7) 0.59569(7) 0.28851(13)
N2_4 N 0.10751(5) 0.55182(5) 0.72525(10)
N3_4 N 0.00862(5) 0.24922(5) 0.87532(10)
N4_4 N 0.23639(6) 0.28523(6) 0.78686(12)
N5_4 N 0.12253(5) 0.27158(5) 0.18281(10)
N7_4 N 0.13462(6) 0.45819(6) 0.77440(11)
O1_4 O 0.19192(4) 0.45588(4) 0.49009(8)
O2_4 O 0.15599(4) 0.43777(4) 0.56988(8)
O3_4 O 0.12364(4) 0.37622(4) 0.65152(8)
O4_4 O 0.16505(4) 0.37271(4) 0.60277(8)
O5_4 O 0.14653(4) 0.38212(4) 0.46799(8)
O6_4 O 0.09996(4) 0.37509(4) 0.51356(8)
O7_4 O 0.10895(4) 0.42927(4) 0.67933(8)
Co3_4 Co 0.151056(8) 0.255830(8) 0.128403(15)
N8_4 N 0.22235(7) 0.44084(5) 0.60808(10)
N10_4 N 0.21081(5) 0.39508(5) 0.48385(10)
N11_4 N 0.05533(7) 0.36351(5) 0.62518(9)
H22_4 H 0.9893 0.2254 0.7940
C50_4 C 0.99303(6) 0.36167(7) 0.24906(13)
H36_4 H 0.9926 0.3696 0.2075
C53_4 C 0.99684(6) 0.34054(7) 0.36767(13)
H38_4 H 0.9972 0.3329 0.4095
C54_4 C 0.97247(7) 0.34827(6) 0.35107(13)
H39_4 H 0.9573 0.3462 0.3829
C1_5 C 0.50876(6) 0.68044(8) 0.52433(12)
C2_5 C 0.48828(6) 0.67296(9) 0.47064(13)
H1_5 H 0.4942 0.6886 0.4374
C3_5 C 0.45898(7) 0.64242(10) 0.46515(14)
C4_5 C 0.44885(6) 0.61877(9) 0.51571(13)
C5_5 C 0.46996(6) 0.62672(8) 0.57097(12)
C6_5 C 0.50007(6) 0.65665(8) 0.57271(12)
H2_5 H 0.5147 0.6607 0.6072
C7_5 C 0.53999(6) 0.71291(8) 0.52734(12)
C8_5 C 0.41751(7) 0.58552(10) 0.50682(14)
H3_5 H 0.3987 0.5868 0.5226
H4_5 H 0.4194 0.5687 0.5309
H5_5 H 0.4145 0.5797 0.4612
C9_5 C 0.43523(8) 0.63039(11) 0.28587(15)
H6_5 H 0.4444 0.6294 0.2460
C10_5 C 0.45269(8) 0.63408(11) 0.34500(14)
H7_5 H 0.4733 0.6350 0.3441
C11_5 C 0.43934(7) 0.63626(11) 0.40371(15)
C12_5 C 0.40802(8) 0.63397(11) 0.40624(16)
H8_5 H 0.3989 0.6348 0.4461
C13_5 C 0.39049(8) 0.63032(11) 0.34763(16)
H9_5 H 0.3700 0.6294 0.3483
C14_5 C 0.42649(7) 0.56522(10) 0.70643(13)
H10_5 H 0.4063 0.5564 0.7286
C15_5 C 0.43232(7) 0.58711(10) 0.65640(14)
H11_5 H 0.4157 0.5916 0.6439
C16_5 C 0.46238(6) 0.60229(8) 0.62443(13)
C17_5 C 0.48561(6) 0.59440(8) 0.64568(13)
H12_5 H 0.5068 0.6046 0.6269
C18_5 C 0.47753(6) 0.57119(9) 0.69511(12)
H13_5 H 0.4938 0.5661 0.7081
C19_5 C 0.66453(6) 0.80013(8) 0.68853(12)
C20_5 C 0.68152(6) 0.78707(8) 0.72168(12)
H14_5 H 0.6763 0.7652 0.7139
C21_5 C 0.70622(6) 0.80625(8) 0.76621(13)
C22_5 C 0.71531(7) 0.83957(9) 0.77762(12)
C23_5 C 0.69799(6) 0.85255(8) 0.74522(12)
C24_5 C 0.67337(6) 0.83306(8) 0.70014(12)
H15_5 H 0.6626 0.8423 0.6772
C25_5 C 0.63612(6) 0.77803(8) 0.64333(12)
C26_5 C 0.74414(7) 0.86081(10) 0.82273(14)
H16_5 H 0.7565 0.8831 0.8057
H17_5 H 0.7586 0.8515 0.8258
H18_5 H 0.7358 0.8614 0.8653
C27_5 C 0.72811(6) 0.76549(8) 0.90270(12)
H19_5 H 0.7217 0.7590 0.9457
C28_5 C 0.71382(6) 0.78130(9) 0.86846(12)
H20_5 H 0.6986 0.7858 0.8890
C29_5 C 0.72234(6) 0.79015(8) 0.80381(13)
C30_5 C 0.74560(6) 0.78340(8) 0.77551(13)
H21_5 H 0.7521 0.7890 0.7321
C31_5 C 0.75895(6) 0.76817(8) 0.81320(13)
H22_5 H 0.7746 0.7638 0.7940
C32_5 C 0.71027(7) 0.93025(10) 0.83213(14)
H23_5 H 0.7106 0.9368 0.8751
C33_5 C 0.70490(6) 0.89818(8) 0.82118(12)
H24_5 H 0.7014 0.8840 0.8563
C34_5 C 0.70486(6) 0.88742(8) 0.75856(13)
C35_5 C 0.70891(7) 0.90895(10) 0.70945(14)
H25_5 H 0.7088 0.9028 0.6661
C36_5 C 0.71335(7) 0.94044(10) 0.72488(14)
H26_5 H 0.7155 0.9547 0.6908
C37_5 C 0.64666(6) 0.74263(8) 0.40956(12)
C38_5 C 0.66397(6) 0.77009(8) 0.36800(12)
H27_5 H 0.6639 0.7898 0.3765
C39_5 C 0.68135(6) 0.76824(8) 0.31390(12)
C40_5 C 0.68086(6) 0.73818(8) 0.29983(13)
C41_5 C 0.66213(6) 0.71051(8) 0.33966(12)
C42_5 C 0.64613(6) 0.71329(8) 0.39479(12)
H28_5 H 0.6349 0.6950 0.4223
C43_5 C 0.62811(6) 0.74401(8) 0.46869(12)
C44_5 C 0.70156(7) 0.73707(9) 0.24334(13)
H29_5 H 0.6987 0.7151 0.2400
H30_5 H 0.7247 0.7529 0.2508
H31_5 H 0.6945 0.7425 0.2034
C45_5 C 0.74230(7) 0.85104(10) 0.23803(12)
H32_5 H 0.7632 0.8693 0.2474
C46_5 C 0.72785(7) 0.82547(10) 0.28419(14)
H33_5 H 0.7382 0.8276 0.3243
C47_5 C 0.69853(6) 0.79735(8) 0.27008(12)
C48_5 C 0.68472(7) 0.79701(10) 0.21125(13)
H34_5 H 0.6647 0.7784 0.1989
C49_5 C 0.70015(7) 0.82395(10) 0.16973(13)
H35_5 H 0.6899 0.8229 0.1300
C50_5 C 0.63833(7) 0.63135(9) 0.24906(13)
H36_5 H 0.6304 0.6229 0.2075
C51_5 C 0.64596(7) 0.66358(10) 0.26217(13)
H37_5 H 0.6443 0.6766 0.2295
C52_5 C 0.65603(6) 0.67625(8) 0.32367(12)
C53_5 C 0.65946(7) 0.65629(9) 0.36767(13)
H38_5 H 0.6671 0.6642 0.4095
C54_5 C 0.65173(6) 0.62419(9) 0.35107(13)
H39_5 H 0.6538 0.6110 0.3829
C55_5 C 0.55862(7) 0.69202(10) 0.71625(13)
H40_5 H 0.5608 0.7125 0.7051
C56_5 C 0.52683(8) 0.69261(11) 0.81624(15)
H41_5 H 0.5417 0.7163 0.8171
H42_5 H 0.5236 0.6839 0.8599
H43_5 H 0.5058 0.6878 0.7982
C57_5 C 0.54133(7) 0.64472(10) 0.79576(14)
H44_5 H 0.5231 0.6258 0.7748
H45_5 H 0.5386 0.6423 0.8423
H46_5 H 0.5620 0.6459 0.7836
Co1_5 Co 0.589164(8) 0.771441(11) 0.538263(15)
N1_5 N 0.40431(7) 0.62815(10) 0.28851(13)
N2_5 N 0.44818(5) 0.55568(7) 0.72525(10)
N3_5 N 0.75078(5) 0.75939(7) 0.87532(10)
N4_5 N 0.71477(6) 0.95115(8) 0.78686(12)
N5_5 N 0.72842(5) 0.85094(7) 0.18281(10)
N7_5 N 0.54181(6) 0.67642(8) 0.77440(11)
O1_5 O 0.54412(4) 0.73603(6) 0.49009(8)
O2_5 O 0.56223(4) 0.71821(6) 0.56988(8)
O3_5 O 0.62378(4) 0.74741(6) 0.65152(8)
O4_5 O 0.62729(4) 0.79233(6) 0.60277(8)
O5_5 O 0.61788(4) 0.76440(6) 0.46799(8)
O6_5 O 0.62491(4) 0.72486(6) 0.51356(8)
O7_5 O 0.57073(4) 0.67967(6) 0.67933(8)
Co3_5 Co 0.744170(8) 0.895225(11) 0.128403(15)
N8_5 N 0.55916(5) 0.78151(9) 0.60808(10)
N10_5 N 0.60492(5) 0.81572(7) 0.48385(10)
N11_5 N 0.63649(5) 0.69183(9) 0.62518(9)
H22_6 H 0.2362 0.0107 0.7940
C50_6 C 0.36865(9) 0.00697(6) 0.24906(13)
H36_6 H 0.3771 0.0074 0.2075
C53_6 C 0.34371(9) 0.00316(6) 0.36767(13)
H38_6 H 0.3358 0.0028 0.4095
C54_6 C 0.37581(9) 0.02753(7) 0.35107(13)
H39_6 H 0.3890 0.0427 0.3829
C1_6 C 0.31956(8) 0.82831(6) 0.52433(12)
C2_6 C 0.32704(9) 0.81531(7) 0.47064(13)
H1_6 H 0.3114 0.8055 0.4374
C3_6 C 0.35758(10) 0.81655(7) 0.46515(14)
C4_6 C 0.38123(9) 0.83007(7) 0.51571(13)
C5_6 C 0.37328(8) 0.84323(6) 0.57097(12)
C6_6 C 0.34335(8) 0.84341(6) 0.57271(12)
H2_6 H 0.3393 0.8539 0.6072
C7_6 C 0.28709(8) 0.82707(6) 0.52734(12)
C8_6 C 0.41448(10) 0.83198(7) 0.50682(14)
H3_6 H 0.4132 0.8118 0.5226
H4_6 H 0.4313 0.8506 0.5309
H5_6 H 0.4203 0.8347 0.4612
C9_6 C 0.36961(11) 0.80483(8) 0.28587(15)
H6_6 H 0.3706 0.8149 0.2460
C10_6 C 0.36592(11) 0.81860(8) 0.34500(14)
H7_6 H 0.3650 0.8382 0.3441
C11_6 C 0.36374(11) 0.80307(8) 0.40371(15)
C12_6 C 0.36603(11) 0.77404(8) 0.40624(16)
H8_6 H 0.3652 0.7640 0.4461
C13_6 C 0.36968(11) 0.76016(8) 0.34763(16)
H9_6 H 0.3706 0.7405 0.3483
C14_6 C 0.43478(10) 0.86126(7) 0.70643(13)
H10_6 H 0.4436 0.8498 0.7286
C15_6 C 0.41289(10) 0.84520(7) 0.65640(14)
H11_6 H 0.4084 0.8240 0.6439
C16_6 C 0.39771(8) 0.86008(6) 0.62443(13)
C17_6 C 0.40560(8) 0.89120(6) 0.64568(13)
H12_6 H 0.3954 0.9021 0.6269
C18_6 C 0.42881(9) 0.90633(7) 0.69511(12)
H13_6 H 0.4339 0.9276 0.7081
C19_6 C 0.19987(8) 0.86439(6) 0.68853(12)
C20_6 C 0.21293(8) 0.89444(6) 0.72168(12)
H14_6 H 0.2348 0.9110 0.7139
C21_6 C 0.19375(8) 0.89996(6) 0.76621(13)
C22_6 C 0.16043(9) 0.87573(6) 0.77762(12)
C23_6 C 0.14745(8) 0.84543(6) 0.74522(12)
C24_6 C 0.16694(8) 0.84030(6) 0.70014(12)
H15_6 H 0.1577 0.8202 0.6772
C25_6 C 0.22197(8) 0.85808(6) 0.64333(12)
C26_6 C 0.13919(10) 0.88332(7) 0.82273(14)
H16_6 H 0.1169 0.8733 0.8057
H17_6 H 0.1485 0.9070 0.8258
H18_6 H 0.1386 0.8743 0.8653
C27_6 C 0.23451(8) 0.96261(6) 0.90270(12)
H19_6 H 0.2410 0.9626 0.9457
C28_6 C 0.21870(9) 0.93251(7) 0.86846(12)
H20_6 H 0.2142 0.9127 0.8890
C29_6 C 0.20985(8) 0.93218(6) 0.80381(13)
C30_6 C 0.21660(8) 0.96219(6) 0.77551(13)
H21_6 H 0.2110 0.9630 0.7321
C31_6 C 0.23183(8) 0.99077(6) 0.81320(13)
C32_6 C 0.06975(10) 0.78001(7) 0.83213(14)
H23_6 H 0.0632 0.7737 0.8751
C33_6 C 0.10182(8) 0.80671(6) 0.82118(12)
H24_6 H 0.1160 0.8173 0.8563
C34_6 C 0.11258(8) 0.81743(6) 0.75856(13)
C35_6 C 0.09105(10) 0.79995(7) 0.70945(14)
H25_6 H 0.0972 0.8059 0.6661
C36_6 C 0.05956(10) 0.77290(7) 0.72488(14)
H26_6 H 0.0453 0.7607 0.6908
C37_6 C 0.25737(8) 0.90402(6) 0.40956(12)
C38_6 C 0.22991(8) 0.89387(6) 0.36800(12)
H27_6 H 0.2102 0.8740 0.3765
C39_6 C 0.23176(8) 0.91310(6) 0.31390(12)
C40_6 C 0.26182(8) 0.94267(6) 0.29983(13)
C41_6 C 0.28949(8) 0.95161(6) 0.33966(12)
C42_6 C 0.28671(8) 0.93283(6) 0.39479(12)
H28_6 H 0.3050 0.9398 0.4223
C43_6 C 0.25599(8) 0.88409(6) 0.46869(12)
C44_6 C 0.26293(9) 0.96448(6) 0.24334(13)
H29_6 H 0.2849 0.9835 0.2400
H30_6 H 0.2471 0.9717 0.2508
H31_6 H 0.2575 0.9519 0.2034
C45_6 C 0.14896(10) 0.89125(7) 0.23803(12)
H32_6 H 0.1307 0.8938 0.2474
C46_6 C 0.17453(10) 0.90237(7) 0.28419(14)
H33_6 H 0.1724 0.9105 0.3243
C47_6 C 0.20265(8) 0.90117(6) 0.27008(12)
C48_6 C 0.20299(10) 0.88770(7) 0.21125(13)
H34_6 H 0.2216 0.8862 0.1989
C49_6 C 0.17605(10) 0.87619(7) 0.16973(13)
H35_6 H 0.1771 0.8669 0.1300
C51_6 C 0.33642(10) 0.98237(7) 0.26217(13)
H37_6 H 0.3234 0.9676 0.2295
C52_6 C 0.32375(8) 0.97977(6) 0.32367(12)
C55_6 C 0.30798(10) 0.86659(7) 0.71625(13)
H40_6 H 0.2875 0.8482 0.7051
C56_6 C 0.30739(11) 0.83421(7) 0.81624(15)
H41_6 H 0.2837 0.8253 0.8171
H42_6 H 0.3161 0.8396 0.8599
H43_6 H 0.3122 0.8179 0.7982
C57_6 C 0.35528(10) 0.89660(7) 0.79576(14)
H44_6 H 0.3742 0.8972 0.7748
H45_6 H 0.3577 0.8962 0.8423
H46_6 H 0.3541 0.9160 0.7836
Co1_6 Co 0.228559(11) 0.817722(8) 0.538263(15)
N1_6 N 0.37185(10) 0.77615(7) 0.28851(13)
N2_6 N 0.44432(7) 0.89249(5) 0.72525(10)
N3_6 N 0.24061(7) 0.99138(5) 0.87532(10)
N4_6 N 0.04885(8) 0.76361(6) 0.78686(12)
N5_6 N 0.14906(7) 0.87747(5) 0.18281(10)
N7_6 N 0.32358(8) 0.86538(6) 0.77440(11)
O1_6 O 0.26397(6) 0.80808(4) 0.49009(8)
O2_6 O 0.28179(6) 0.84401(4) 0.56988(8)
O3_6 O 0.25259(6) 0.87636(4) 0.65152(8)
O4_6 O 0.20767(6) 0.83495(4) 0.60277(8)
O5_6 O 0.23560(6) 0.85347(4) 0.46799(8)
O6_6 O 0.27514(6) 0.90004(4) 0.51356(8)
O7_6 O 0.32033(6) 0.89105(4) 0.67933(8)
Co3_6 Co 0.104775(11) 0.848944(8) 0.128403(15)
N8_6 N 0.21849(9) 0.77765(7) 0.60808(10)
N10_6 N 0.18428(7) 0.78919(5) 0.48385(10)
N11_6 N 0.30817(9) 0.94467(7) 0.62518(9)
C14_7 C 0.80540(7) 0.90685(7) 0.03977(13)
H10_7 H 0.8168 0.9271 0.0620
C18_7 C 0.76033(7) 0.85581(6) 0.02845(12)
H13_7 H 0.7390 0.8396 0.0415
C19_7 C 0.80227(6) 0.66881(6) 0.02187(12)
C20_7 C 0.77222(6) 0.65182(6) 0.05502(12)
H14_7 H 0.7556 0.6571 0.0473
C21_7 C 0.76670(6) 0.62712(6) 0.09955(13)
C22_7 C 0.79093(6) 0.61803(7) 0.11096(12)
C23_7 C 0.82123(6) 0.63535(6) 0.07856(12)
C24_7 C 0.82636(6) 0.65997(6) 0.03348(12)
H15_7 H 0.8464 0.6708 0.0106
C26_7 C 0.78334(7) 0.58920(7) 0.15607(14)
H16_7 H 0.7933 0.5769 0.1391
H17_7 H 0.7596 0.5748 0.1592
H18_7 H 0.7923 0.5976 0.1987
C27_7 C 0.70405(6) 0.60523(6) 0.23604(12)
H19_7 H 0.7040 0.6117 0.2791
C28_7 C 0.73415(7) 0.61952(6) 0.20180(12)
H20_7 H 0.7539 0.6348 0.2224
C29_7 C 0.73448(6) 0.61100(6) 0.13715(13)
C30_7 C 0.70447(6) 0.58774(6) 0.10885(13)
H21_7 H 0.7036 0.5813 0.0655
C31_7 C 0.67589(6) 0.57439(6) 0.14654(13)
H22_7 H 0.6559 0.5588 0.1274
C32_7 C 0.88665(7) 0.62307(7) 0.16547(14)
H23_7 H 0.8929 0.6228 0.2085
C33_7 C 0.85995(6) 0.62844(6) 0.15452(12)
H24_7 H 0.8493 0.6320 0.1897
C34_7 C 0.84923(6) 0.62848(6) 0.09190(13)
C35_7 C 0.86671(7) 0.62443(7) 0.04279(14)
C36_7 C 0.89376(7) 0.61999(7) 0.05822(14)
H26_7 H 0.9059 0.6179 0.0242
C55_7 C 0.80007(7) 0.77472(7) 0.04959(13)
H40_7 H 0.8184 0.7726 0.0385
C56_7 C 0.83245(7) 0.80651(8) 0.14958(15)
H41_7 H 0.8413 0.7917 0.1505
H42_7 H 0.8270 0.8098 0.1933
H43_7 H 0.8487 0.8276 0.1316
C57_7 C 0.77006(7) 0.79201(7) 0.12910(14)
H44_7 H 0.7694 0.8103 0.1082
H45_7 H 0.7704 0.7948 0.1757
H46_7 H 0.7506 0.7714 0.1170
N2_7 N 0.77417(5) 0.88516(5) 0.05859(10)
N4_7 N 0.90305(6) 0.61857(6) 0.12020(12)
N7_7 N 0.80128(6) 0.79153(6) 0.10774(11)
O7_7 O 0.77561(4) 0.76261(4) 0.01267(8)
C1_7 C 0.83835(6) 0.82458(6) 0.85767(12)
C2_7 C 0.85135(7) 0.84506(6) 0.80398(13)
H1_7 H 0.8611 0.8392 0.7708
C3_7 C 0.85011(7) 0.87436(7) 0.79849(14)
C4_7 C 0.83659(7) 0.88449(6) 0.84905(13)
C5_7 C 0.82343(6) 0.86338(6) 0.90431(12)
C6_7 C 0.82325(6) 0.83327(6) 0.90605(12)
H2_7 H 0.8127 0.8187 0.9406
C7_7 C 0.83959(6) 0.79335(6) 0.86068(12)
C8_7 C 0.83468(7) 0.91583(7) 0.84016(14)
H3_7 H 0.8548 0.9347 0.8560
H4_7 H 0.8160 0.9140 0.8643
H5_7 H 0.8319 0.9189 0.7946
C9_7 C 0.86183(8) 0.89811(8) 0.61921(15)
H6_7 H 0.8517 0.8890 0.5794
C10_7 C 0.84806(8) 0.88065(8) 0.67834(14)
H7_7 H 0.8284 0.8601 0.6775
C11_7 C 0.86359(8) 0.89400(7) 0.73705(15)
C12_7 C 0.89262(8) 0.92532(8) 0.73958(16)
H8_7 H 0.9026 0.9345 0.7795
C13_7 C 0.90650(8) 0.94285(8) 0.68097(16)
H9_7 H 0.9261 0.9634 0.6817
C15_7 C 0.82146(7) 0.90102(7) 0.98974(14)
H11_7 H 0.8426 0.9177 0.9773
C16_7 C 0.80658(6) 0.87096(6) 0.95777(13)
C17_7 C 0.77546(6) 0.84773(6) 0.97902(13)
H12_7 H 0.7645 0.8266 0.9603
C25_7 C 0.80858(6) 0.69722(6) 0.97667(12)
H25_7 H 0.8607 0.6246 0.9995
C37_7 C 0.76264(6) 0.68668(6) 0.74290(12)
C38_7 C 0.77279(6) 0.66937(6) 0.70134(12)
H27_7 H 0.7926 0.6695 0.7099
C39_7 C 0.75356(6) 0.65199(6) 0.64724(12)
C40_7 C 0.72399(6) 0.65248(6) 0.63317(13)
C41_7 C 0.71505(6) 0.67121(6) 0.67300(12)
C42_7 C 0.73383(6) 0.68721(6) 0.72813(12)
H28_7 H 0.7268 0.6985 0.7557
C43_7 C 0.78257(6) 0.70523(6) 0.80203(12)
C44_7 C 0.70218(6) 0.63178(7) 0.57668(13)
H29_7 H 0.6831 0.6347 0.5734
H30_7 H 0.6949 0.6087 0.5842
H31_7 H 0.7147 0.6389 0.5368
C45_7 C 0.77541(7) 0.59104(7) 0.57137(12)
H32_7 H 0.7728 0.5702 0.5808
C46_7 C 0.76429(7) 0.60549(7) 0.61753(14)
H33_7 H 0.7561 0.5952 0.6577
C47_7 C 0.76549(6) 0.63481(6) 0.60342(12)
C48_7 C 0.77896(7) 0.64862(7) 0.54459(13)
H34_7 H 0.7804 0.6687 0.5323
C49_7 C 0.79047(7) 0.63319(7) 0.50307(13)
H35_7 H 0.7997 0.6435 0.4634
C50_7 C 0.65969(6) 0.69501(7) 0.58240(13)
H36_7 H 0.6592 0.7030 0.5409
C51_7 C 0.68429(7) 0.68738(7) 0.59551(13)
H37_7 H 0.6990 0.6891 0.5629
C52_7 C 0.68689(6) 0.67731(6) 0.65701(12)
C53_7 C 0.66350(6) 0.67388(7) 0.70101(13)
H38_7 H 0.6638 0.6663 0.7429
C54_7 C 0.63913(7) 0.68161(6) 0.68441(13)
H39_7 H 0.6239 0.6796 0.7163
Co1_7 Co 0.848944(8) 0.744170(8) 0.871597(15)
N1_7 N 0.89051(7) 0.92903(7) 0.62185(13)
N5_7 N 0.78919(5) 0.60492(5) 0.51615(10)
O1_7 O 0.85858(4) 0.78922(4) 0.82343(8)
O2_7 O 0.82265(4) 0.77111(4) 0.90322(8)
O3_7 O 0.79030(4) 0.70956(4) 0.98486(8)
O4_7 O 0.83171(4) 0.70605(4) 0.93611(8)
O5_7 O 0.81319(4) 0.71546(4) 0.80133(8)
O6_7 O 0.76662(4) 0.70843(4) 0.84690(8)
N8_7 N 0.88902(7) 0.77417(5) 0.94141(10)
N10_7 N 0.87747(5) 0.72842(5) 0.81719(10)
C19_8 C 0.33119(6) 0.13347(8) 0.02187(12)
C20_8 C 0.34818(6) 0.12041(8) 0.05502(12)
H14_8 H 0.3429 0.0986 0.0473
C21_8 C 0.37288(6) 0.13959(8) 0.09955(13)
C22_8 C 0.38197(7) 0.17291(9) 0.11096(12)
C23_8 C 0.36465(6) 0.18589(8) 0.07856(12)
C24_8 C 0.34003(6) 0.16640(8) 0.03348(12)
H15_8 H 0.3292 0.1757 0.0106
C26_8 C 0.41080(7) 0.19415(10) 0.15607(14)
H16_8 H 0.4231 0.2165 0.1391
H17_8 H 0.4252 0.1849 0.1592
H18_8 H 0.4024 0.1948 0.1987
C27_8 C 0.39477(6) 0.09883(8) 0.23604(12)
H19_8 H 0.3883 0.0924 0.2791
C28_8 C 0.38048(6) 0.11464(9) 0.20180(12)
H20_8 H 0.3652 0.1192 0.2224
C29_8 C 0.38900(6) 0.12349(8) 0.13715(13)
C30_8 C 0.41226(6) 0.11674(8) 0.10885(13)
H21_8 H 0.4187 0.1224 0.0655
C31_8 C 0.42561(6) 0.10151(8) 0.14654(13)
H22_8 H 0.4412 0.0972 0.1274
C32_8 C 0.37693(7) 0.26359(10) 0.16547(14)
H23_8 H 0.3772 0.2702 0.2085
C33_8 C 0.37156(6) 0.23152(8) 0.15452(12)
H24_8 H 0.3680 0.2174 0.1897
C34_8 C 0.37152(6) 0.22076(8) 0.09190(13)
C35_8 C 0.37557(7) 0.24229(10) 0.04279(14)
C36_8 C 0.38001(7) 0.27378(10) 0.05822(14)
H26_8 H 0.3821 0.2881 0.0242
C55_8 C 0.22528(7) 0.02536(10) 0.04959(13)
H40_8 H 0.2274 0.0459 0.0385
C56_8 C 0.19349(8) 0.02595(11) 0.14958(15)
H41_8 H 0.2083 0.0497 0.1505
H42_8 H 0.1902 0.0173 0.1933
H43_8 H 0.1724 0.0212 0.1316
N4_8 N 0.38143(6) 0.28449(8) 0.12020(12)
N7_8 N 0.20847(6) 0.00976(8) 0.10774(11)
O7_8 O 0.23739(4) 0.01301(6) 0.01267(8)
C1_8 C 0.17542(6) 0.01378(8) 0.85767(12)
C2_8 C 0.15494(6) 0.00630(9) 0.80398(13)
H1_8 H 0.1608 0.0220 0.7708
C7_8 C 0.20665(6) 0.04625(8) 0.86068(12)
C25_8 C 0.30278(6) 0.11137(8) 0.97667(12)
H25_8 H 0.3754 0.2362 0.9995
C37_8 C 0.31332(6) 0.07597(8) 0.74290(12)
C38_8 C 0.33063(6) 0.10343(8) 0.70134(12)
H27_8 H 0.3305 0.1232 0.7099
C39_8 C 0.34801(6) 0.10158(8) 0.64724(12)
C40_8 C 0.34752(6) 0.07152(8) 0.63317(13)
C41_8 C 0.32879(6) 0.04385(8) 0.67300(12)
C42_8 C 0.31279(6) 0.04663(8) 0.72813(12)
H28_8 H 0.3015 0.0284 0.7557
C43_8 C 0.29477(6) 0.07735(8) 0.80203(12)
C44_8 C 0.36822(7) 0.07041(9) 0.57668(13)
H29_8 H 0.3653 0.0485 0.5734
H30_8 H 0.3913 0.0863 0.5842
H31_8 H 0.3611 0.0759 0.5368
C45_8 C 0.40896(7) 0.18438(10) 0.57137(12)
H32_8 H 0.4298 0.2027 0.5808
C46_8 C 0.39451(7) 0.15881(10) 0.61753(14)
H33_8 H 0.4048 0.1610 0.6577
C47_8 C 0.36519(6) 0.13069(8) 0.60342(12)
C48_8 C 0.35138(7) 0.13035(10) 0.54459(13)
H34_8 H 0.3313 0.1118 0.5323
C49_8 C 0.36681(7) 0.15729(10) 0.50307(13)
H35_8 H 0.3565 0.1563 0.4634
H37_8 H 0.3109 0.0100 0.5629
C52_8 C 0.32269(6) 0.00959(8) 0.65701(12)
Co1_8 Co 0.255830(8) 0.104775(11) 0.871597(15)
N5_8 N 0.39508(5) 0.18428(7) 0.51615(10)
O1_8 O 0.21078(4) 0.06937(6) 0.82343(8)
O2_8 O 0.22889(4) 0.05155(6) 0.90322(8)
O3_8 O 0.29044(4) 0.08075(6) 0.98486(8)
O4_8 O 0.29395(4) 0.12567(6) 0.93611(8)
O5_8 O 0.28454(4) 0.09774(6) 0.80133(8)
O6_8 O 0.29157(4) 0.05820(6) 0.84690(8)
N8_8 N 0.22583(5) 0.11484(9) 0.94141(10)
N10_8 N 0.27158(5) 0.14906(7) 0.81719(10)
C14_8 C 0.09315(7) 0.89856(10) 0.03977(13)
H10_8 H 0.0729 0.8898 0.0620
C18_8 C 0.14419(6) 0.90453(9) 0.02845(12)
H13_8 H 0.1604 0.8995 0.0415
C57_8 C 0.20799(7) 0.97806(10) 0.12910(14)
H44_8 H 0.1897 0.9592 0.1082
H45_8 H 0.2052 0.9757 0.1757
H46_8 H 0.2286 0.9793 0.1170
N2_8 N 0.11484(5) 0.88902(7) 0.05859(10)
C3_8 C 0.12564(7) 0.97576(10) 0.79849(14)
C4_8 C 0.11551(6) 0.95211(9) 0.84905(13)
C5_8 C 0.13662(6) 0.96006(8) 0.90431(12)
C6_8 C 0.16673(6) 0.98999(8) 0.90605(12)
H2_8 H 0.1813 0.9941 0.9406
C8_8 C 0.08417(7) 0.91886(10) 0.84016(14)
H3_8 H 0.0653 0.9202 0.8560
H4_8 H 0.0860 0.9021 0.8643
H5_8 H 0.0811 0.9131 0.7946
C9_8 C 0.10189(8) 0.96373(11) 0.61921(15)
H6_8 H 0.1110 0.9628 0.5794
C10_8 C 0.11935(8) 0.96742(11) 0.67834(14)
H7_8 H 0.1399 0.9684 0.6775
C11_8 C 0.10600(7) 0.96960(11) 0.73705(15)
C12_8 C 0.07468(8) 0.96731(11) 0.73958(16)
H8_8 H 0.0655 0.9682 0.7795
C13_8 C 0.05715(8) 0.96366(11) 0.68097(16)
H9_8 H 0.0366 0.9628 0.6817
C15_8 C 0.09898(7) 0.92045(10) 0.98974(14)
H11_8 H 0.0823 0.9250 0.9773
C16_8 C 0.12904(6) 0.93563(8) 0.95777(13)
C17_8 C 0.15227(6) 0.92774(8) 0.97902(13)
H12_8 H 0.1734 0.9380 0.9603
C50_8 C 0.30499(7) 0.96469(9) 0.58240(13)
H36_8 H 0.2970 0.9563 0.5409
C51_8 C 0.31262(7) 0.99692(10) 0.59551(13)
C53_8 C 0.32612(7) 0.98963(9) 0.70101(13)
H38_8 H 0.3337 0.9976 0.7429
C54_8 C 0.31839(6) 0.95753(9) 0.68441(13)
H39_8 H 0.3204 0.9444 0.7163
N1_8 N 0.07097(7) 0.96149(10) 0.62185(13)
C14_9 C 0.10144(10) 0.19460(7) 0.03977(13)
H10_9 H 0.1102 0.1832 0.0620
C18_9 C 0.09547(9) 0.23967(7) 0.02845(12)
H13_9 H 0.1005 0.2610 0.0415
C57_9 C 0.02194(10) 0.22994(7) 0.12910(14)
H44_9 H 0.0408 0.2306 0.1082
H45_9 H 0.0243 0.2296 0.1757
H46_9 H 0.0207 0.2494 0.1170
N2_9 N 0.11098(7) 0.22583(5) 0.05859(10)
C3_9 C 0.02424(10) 0.14989(7) 0.79849(14)
C4_9 C 0.04789(9) 0.16341(7) 0.84905(13)
C5_9 C 0.03994(8) 0.17657(6) 0.90431(12)
C6_9 C 0.01001(8) 0.17675(6) 0.90605(12)
H2_9 H 0.0059 0.1873 0.9406
C8_9 C 0.08114(10) 0.16532(7) 0.84016(14)
H3_9 H 0.0798 0.1452 0.8560
H4_9 H 0.0979 0.1840 0.8643
H5_9 H 0.0869 0.1681 0.7946
C9_9 C 0.03627(11) 0.13817(8) 0.61921(15)
H6_9 H 0.0372 0.1483 0.5794
C10_9 C 0.03258(11) 0.15194(8) 0.67834(14)
H7_9 H 0.0316 0.1716 0.6775
C11_9 C 0.03040(11) 0.13641(8) 0.73705(15)
C12_9 C 0.03269(11) 0.10738(8) 0.73958(16)
H8_9 H 0.0318 0.0974 0.7795
C13_9 C 0.03634(11) 0.09350(8) 0.68097(16)
H9_9 H 0.0372 0.0739 0.6817
C15_9 C 0.07955(10) 0.17854(7) 0.98974(14)
H11_9 H 0.0750 0.1574 0.9773
C16_9 C 0.06437(8) 0.19342(6) 0.95777(13)
C17_9 C 0.07226(8) 0.22454(6) 0.97902(13)
H12_9 H 0.0620 0.2355 0.9603
C50_9 C 0.03531(9) 0.34031(6) 0.58240(13)
H36_9 H 0.0437 0.3408 0.5409
C51_9 C 0.00308(10) 0.31571(7) 0.59551(13)
C53_9 C 0.01037(9) 0.33650(6) 0.70101(13)
H38_9 H 0.0024 0.3362 0.7429
C54_9 C 0.04247(9) 0.36087(7) 0.68441(13)
H39_9 H 0.0556 0.3761 0.7163
N1_9 N 0.03851(10) 0.10949(7) 0.62185(13)
C19_9 C 0.86653(8) 0.19773(6) 0.02187(12)
C20_9 C 0.87959(8) 0.22778(6) 0.05502(12)
H14_9 H 0.9014 0.2444 0.0473
C21_9 C 0.86041(8) 0.23330(6) 0.09955(13)
C22_9 C 0.82709(9) 0.20907(6) 0.11096(12)
C23_9 C 0.81411(8) 0.17877(6) 0.07856(12)
C24_9 C 0.83360(8) 0.17364(6) 0.03348(12)
H15_9 H 0.8243 0.1536 0.0106
C26_9 C 0.80585(10) 0.21666(7) 0.15607(14)
H16_9 H 0.7835 0.2067 0.1391
H17_9 H 0.8151 0.2404 0.1592
H18_9 H 0.8052 0.2077 0.1987
C27_9 C 0.90117(8) 0.29595(6) 0.23604(12)
H19_9 H 0.9076 0.2960 0.2791
C28_9 C 0.88536(9) 0.26585(7) 0.20180(12)
H20_9 H 0.8808 0.2461 0.2224
C29_9 C 0.87651(8) 0.26552(6) 0.13715(13)
C30_9 C 0.88326(8) 0.29553(6) 0.10885(13)
H21_9 H 0.8776 0.2964 0.0655
C31_9 C 0.89849(8) 0.32411(6) 0.14654(13)
H22_9 H 0.9028 0.3441 0.1274
C32_9 C 0.73641(10) 0.11335(7) 0.16547(14)
H23_9 H 0.7298 0.1071 0.2085
C33_9 C 0.76848(8) 0.14005(6) 0.15452(12)
H24_9 H 0.7826 0.1507 0.1897
C34_9 C 0.77924(8) 0.15077(6) 0.09190(13)
C35_9 C 0.75771(10) 0.13329(7) 0.04279(14)
C36_9 C 0.72622(10) 0.10624(7) 0.05822(14)
H26_9 H 0.7119 0.0941 0.0242
C55_9 C 0.97464(10) 0.19993(7) 0.04959(13)
H40_9 H 0.9541 0.1816 0.0385
C56_9 C 0.97405(11) 0.16755(7) 0.14958(15)
H41_9 H 0.9503 0.1587 0.1505
H42_9 H 0.9827 0.1730 0.1933
H43_9 H 0.9788 0.1513 0.1316
N4_9 N 0.71551(8) 0.09695(6) 0.12020(12)
N7_9 N 0.99024(8) 0.19872(6) 0.10774(11)
O7_9 O 0.98699(6) 0.22439(4) 0.01267(8)
C1_9 C 0.98622(8) 0.16165(6) 0.85767(12)
C2_9 C 0.99370(9) 0.14865(7) 0.80398(13)
H1_9 H 0.9780 0.1389 0.7708
C7_9 C 0.95375(8) 0.16041(6) 0.86068(12)
C25_9 C 0.88863(8) 0.19142(6) 0.97667(12)
H25_9 H 0.7638 0.1393 0.9995
C37_9 C 0.92403(8) 0.23736(6) 0.74290(12)
C38_9 C 0.89657(8) 0.22721(6) 0.70134(12)
H27_9 H 0.8768 0.2074 0.7099
C39_9 C 0.89842(8) 0.24644(6) 0.64724(12)
C40_9 C 0.92848(8) 0.27601(6) 0.63317(13)
C41_9 C 0.95615(8) 0.28495(6) 0.67300(12)
C42_9 C 0.95337(8) 0.26617(6) 0.72813(12)
H28_9 H 0.9716 0.2732 0.7557
C43_9 C 0.92265(8) 0.21743(6) 0.80203(12)
C44_9 C 0.92959(9) 0.29782(6) 0.57668(13)
H29_9 H 0.9515 0.3169 0.5734
H30_9 H 0.9137 0.3051 0.5842
H31_9 H 0.9241 0.2853 0.5368
C45_9 C 0.81562(10) 0.22459(7) 0.57137(12)
H32_9 H 0.7973 0.2272 0.5808
C46_9 C 0.84119(10) 0.23571(7) 0.61753(14)
H33_9 H 0.8390 0.2439 0.6577
C47_9 C 0.86931(8) 0.23451(6) 0.60342(12)
C48_9 C 0.86965(10) 0.22104(7) 0.54459(13)
H34_9 H 0.8882 0.2196 0.5323
C49_9 C 0.84271(10) 0.20953(7) 0.50307(13)
H35_9 H 0.8437 0.2003 0.4634
H37_9 H 0.9900 0.3010 0.5629
C52_9 C 0.99041(8) 0.31311(6) 0.65701(12)
Co1_9 Co 0.895225(11) 0.151056(8) 0.871597(15)
N5_9 N 0.81572(7) 0.21081(5) 0.51615(10)
O1_9 O 0.93063(6) 0.14142(4) 0.82343(8)
O2_9 O 0.94845(6) 0.17735(4) 0.90322(8)
O3_9 O 0.91925(6) 0.20970(4) 0.98486(8)
O4_9 O 0.87433(6) 0.16829(4) 0.93611(8)
O5_9 O 0.90226(6) 0.18681(4) 0.80133(8)
O6_9 O 0.94180(6) 0.23338(4) 0.84690(8)
N8_9 N 0.88516(9) 0.11098(7) 0.94141(10)
N10_9 N 0.85094(7) 0.12253(5) 0.81719(10)
C39_10 C 0.57977(6) 0.01468(6) 0.01943(12)
C40_10 C 0.60934(6) 0.01419(6) 0.03350(13)
C44_10 C 0.63115(6) 0.03489(7) 0.08999(13)
H29_10 H 0.6502 0.0320 0.0933
H30_10 H 0.6384 0.0580 0.0825
H31_10 H 0.6186 0.0278 0.1299
C45_10 C 0.55792(7) 0.07563(7) 0.09530(12)
H32_10 H 0.5605 0.0965 0.0859
C46_10 C 0.56904(7) 0.06118(7) 0.04914(14)
H33_10 H 0.5772 0.0715 0.0090
C47_10 C 0.56784(6) 0.03186(6) 0.06325(12)
C48_10 C 0.55437(7) 0.01805(7) 0.12208(13)
C49_10 C 0.54286(7) 0.03348(7) 0.16360(13)
H35_10 H 0.5336 0.0232 0.2033
C20_10 C 0.56111(6) 0.01485(6) 0.61165(12)
H14_10 H 0.5777 0.0096 0.6194
C21_10 C 0.56663(6) 0.03955(6) 0.56712(13)
C22_10 C 0.54240(6) 0.04864(7) 0.55571(12)
C23_10 C 0.51210(6) 0.03132(6) 0.58811(12)
C24_10 C 0.50697(6) 0.00670(6) 0.63319(12)
C26_10 C 0.54999(7) 0.07747(7) 0.51060(14)
H16_10 H 0.5400 0.0898 0.5276
H17_10 H 0.5737 0.0919 0.5075
H18_10 H 0.5410 0.0691 0.4680
C27_10 C 0.62928(6) 0.06144(6) 0.43063(12)
H19_10 H 0.6293 0.0550 0.3876
C28_10 C 0.59918(7) 0.04715(6) 0.46487(12)
H20_10 H 0.5794 0.0319 0.4443
C29_10 C 0.59885(6) 0.05567(6) 0.52952(13)
C30_10 C 0.62886(6) 0.07893(6) 0.55782(13)
H21_10 H 0.6297 0.0854 0.6012
C31_10 C 0.65744(6) 0.09228(6) 0.52013(13)
H22_10 H 0.6774 0.1079 0.5393
C32_10 C 0.44668(7) 0.04360(7) 0.50120(14)
H23_10 H 0.4404 0.0439 0.4582
C33_10 C 0.47338(6) 0.03823(6) 0.51215(12)
H24_10 H 0.4840 0.0347 0.4770
C34_10 C 0.48410(6) 0.03819(6) 0.57477(13)
C35_10 C 0.46662(7) 0.04224(7) 0.62388(14)
H25_10 H 0.4726 0.0421 0.6672
C36_10 C 0.43957(7) 0.04668(7) 0.60845(14)
H26_10 H 0.4274 0.0488 0.6425
H38_10 H 0.6695 0.0004 0.9238
N3_7 N 0.65805(5) 0.08411(5) 0.45801(10)
N4_10 N 0.43028(6) 0.04810(6) 0.54647(12)
Co5_4 Co 0.703976(11) 0.105143(8) 0.403319(15)
C9_10 C 0.47150(8) 0.76856(8) 0.04746(15)
H6_10 H 0.4816 0.7777 0.0873
H34_10 H 0.5529 0.9980 0.1344
C50_10 C 0.67364(6) 0.97166(7) 0.08427(13)
H36_10 H 0.6741 0.9637 0.1258
C51_10 C 0.64904(7) 0.97929(7) 0.07116(13)
H37_10 H 0.6343 0.9776 0.1038
C52_10 C 0.64644(6) 0.98936(6) 0.00966(12)
N1_10 N 0.44282(7) 0.73764(7) 0.04482(13)
N6_4 N 0.69684(5) 0.97484(5) 0.04149(9)
Co6_4 Co 0.734500(8) 0.962690(11) 0.069985(15)
C1_10 C 0.49498(6) 0.84209(6) 0.80900(12)
C2_10 C 0.48198(7) 0.82161(6) 0.86269(13)
H1_10 H 0.4722 0.8275 0.8959
C3_10 C 0.48322(7) 0.79231(7) 0.86818(14)
C4_10 C 0.49674(7) 0.78218(6) 0.81762(13)
C5_10 C 0.50990(6) 0.80329(6) 0.76236(12)
C6_10 C 0.51008(6) 0.83340(6) 0.76062(12)
H2_10 H 0.5206 0.8480 0.7261
C7_10 C 0.49374(6) 0.87332(6) 0.80599(12)
C8_10 C 0.49865(7) 0.75084(7) 0.82651(14)
H3_10 H 0.4785 0.7320 0.8107
H4_10 H 0.5173 0.7527 0.8024
H5_10 H 0.5014 0.7478 0.8721
C10_10 C 0.48527(8) 0.78602(8) 0.98833(14)
H7_10 H 0.5049 0.8066 0.9892
C11_10 C 0.46974(8) 0.77267(7) 0.92962(15)
C12_10 C 0.44071(8) 0.74135(8) 0.92709(16)
H8_10 H 0.4307 0.7322 0.8872
C13_10 C 0.42683(8) 0.72382(8) 0.98570(16)
H9_10 H 0.4072 0.7033 0.9850
C14_10 C 0.52793(7) 0.75982(7) 0.62690(13)
H10_10 H 0.5165 0.7396 0.6047
C15_10 C 0.51187(7) 0.76565(7) 0.67693(14)
H11_10 H 0.4907 0.7490 0.6894
C16_10 C 0.52675(6) 0.79571(6) 0.70890(13)
C17_10 C 0.55787(6) 0.81894(6) 0.68765(13)
H12_10 H 0.5688 0.8401 0.7064
C18_10 C 0.57300(7) 0.81086(6) 0.63822(12)
H13_10 H 0.5943 0.8271 0.6252
C19_10 C 0.53106(6) 0.99786(6) 0.64480(12)
H15_10 H 0.4869 0.9959 0.6561
C25_10 C 0.52475(6) 0.96945(6) 0.69000(12)
C37_10 C 0.57069(6) 0.97999(6) 0.92377(12)
C38_10 C 0.56054(6) 0.99730(6) 0.96533(12)
H27_10 H 0.5407 0.9972 0.9568
C41_10 C 0.61828(6) 0.99546(6) 0.99367(12)
C42_10 C 0.59950(6) 0.97946(6) 0.93854(12)
H28_10 H 0.6065 0.9682 0.9110
C43_10 C 0.55076(6) 0.96144(6) 0.86464(12)
C53_10 C 0.66983(6) 0.99279(7) 0.96566(13)
C54_10 C 0.69420(7) 0.98506(6) 0.98226(13)
H39_10 H 0.7094 0.9871 0.9504
C55_10 C 0.53326(7) 0.89195(7) 0.61708(13)
H40_10 H 0.5149 0.8941 0.6282
C56_10 C 0.50088(7) 0.86016(8) 0.51709(15)
H41_10 H 0.4920 0.8750 0.5162
H42_10 H 0.5063 0.8569 0.4734
H43_10 H 0.4846 0.8391 0.5351
C57_10 C 0.56327(7) 0.87466(7) 0.53757(14)
H44_10 H 0.5639 0.8564 0.5585
H45_10 H 0.5629 0.8719 0.4910
H46_10 H 0.5827 0.8953 0.5497
Co2_4 Co 0.561524(8) 0.932167(8) 0.736652(15)
N7_10 N 0.53205(6) 0.87514(6) 0.55893(11)
O1_10 O 0.47475(4) 0.87745(4) 0.84324(8)
O2_10 O 0.51068(4) 0.89556(4) 0.76345(8)
O3_10 O 0.54303(4) 0.95711(4) 0.68181(8)
O4_10 O 0.50162(4) 0.96062(4) 0.73056(8)
O5_10 O 0.52014(4) 0.95121(4) 0.86534(8)
O6_10 O 0.56671(4) 0.95824(4) 0.81977(8)
O7_10 O 0.55772(4) 0.90406(4) 0.65400(8)
N9_4 N 0.58256(5) 0.90727(7) 0.79134(10)
N11_7 N 0.61133(7) 0.96983(5) 0.70816(9)
C9_11 C 0.23144(8) 0.70294(11) 0.04746(15)
H6_11 H 0.2223 0.7039 0.0873
H34_11 H 0.0020 0.5549 0.1344
C50_11 C 0.02834(7) 0.70198(9) 0.08427(13)
H36_11 H 0.0363 0.7104 0.1258
C51_11 C 0.02071(7) 0.66975(10) 0.07116(13)
H37_11 H 0.0224 0.6567 0.1038
C52_11 C 0.01064(6) 0.65708(8) 0.00966(12)
N1_11 N 0.26236(7) 0.70518(10) 0.04482(13)
N6_5 N 0.02516(5) 0.72200(7) 0.04149(9)
Co6_5 Co 0.037310(11) 0.771809(14) 0.069985(15)
C1_11 C 0.15791(6) 0.65289(8) 0.80900(12)
C2_11 C 0.17839(6) 0.66037(9) 0.86269(13)
H1_11 H 0.1725 0.6447 0.8959
C3_11 C 0.20769(7) 0.69091(10) 0.86818(14)
C4_11 C 0.21782(6) 0.71456(9) 0.81762(13)
C5_11 C 0.19671(6) 0.70661(8) 0.76236(12)
C6_11 C 0.16660(6) 0.67668(8) 0.76062(12)
H2_11 H 0.1520 0.6726 0.7261
C7_11 C 0.12668(6) 0.62042(8) 0.80599(12)
C8_11 C 0.24916(7) 0.74781(10) 0.82651(14)
H3_11 H 0.2680 0.7465 0.8107
H4_11 H 0.2473 0.7646 0.8024
H5_11 H 0.2522 0.7536 0.8721
C10_11 C 0.21398(8) 0.69925(11) 0.98833(14)
H7_11 H 0.1934 0.6983 0.9892
C11_11 C 0.22733(7) 0.69707(11) 0.92962(15)
C12_11 C 0.25865(8) 0.69936(11) 0.92709(16)
H8_11 H 0.2678 0.6985 0.8872
C13_11 C 0.27618(8) 0.70301(11) 0.98570(16)
H9_11 H 0.2967 0.7039 0.9850
C14_11 C 0.24018(7) 0.76811(10) 0.62690(13)
H10_11 H 0.2604 0.7769 0.6047
C15_11 C 0.23435(7) 0.74622(10) 0.67693(14)
H11_11 H 0.2510 0.7417 0.6894
C16_11 C 0.20429(6) 0.73104(8) 0.70890(13)
C17_11 C 0.18106(6) 0.73893(8) 0.68765(13)
H12_11 H 0.1599 0.7287 0.7064
C18_11 C 0.18914(6) 0.76214(9) 0.63822(12)
H13_11 H 0.1729 0.7672 0.6252
C19_11 C 0.00214(6) 0.53320(8) 0.64480(12)
H15_11 H 0.0041 0.4910 0.6561
C25_11 C 0.03055(6) 0.55530(8) 0.69000(12)
C37_11 C 0.02001(6) 0.59070(8) 0.92377(12)
C38_11 C 0.00270(6) 0.56324(8) 0.96533(12)
H27_11 H 0.0028 0.5435 0.9568
C41_11 C 0.00454(6) 0.62282(8) 0.99367(12)
C42_11 C 0.02054(6) 0.62004(8) 0.93854(12)
H28_11 H 0.0318 0.6383 0.9110
C43_11 C 0.03856(6) 0.58932(8) 0.86464(12)
C53_11 C 0.00721(7) 0.67704(9) 0.96566(13)
C54_11 C 0.01494(6) 0.70914(9) 0.98226(13)
H39_11 H 0.0129 0.7223 0.9504
C55_11 C 0.10805(7) 0.64131(10) 0.61708(13)
H40_11 H 0.1059 0.6208 0.6282
C56_11 C 0.13984(8) 0.64072(11) 0.51709(15)
H41_11 H 0.1250 0.6170 0.5162
H42_11 H 0.1431 0.6494 0.4734
H43_11 H 0.1609 0.6455 0.5351
C57_11 C 0.12534(7) 0.68861(10) 0.53757(14)
H44_11 H 0.1436 0.7075 0.5585
H45_11 H 0.1281 0.6910 0.4910
H46_11 H 0.1047 0.6874 0.5497
Co2_5 Co 0.067833(8) 0.629357(11) 0.736652(15)
N7_11 N 0.12486(6) 0.65691(8) 0.55893(11)
O1_11 O 0.12255(4) 0.59730(6) 0.84324(8)
O2_11 O 0.10444(4) 0.61512(6) 0.76345(8)
O3_11 O 0.04289(4) 0.58592(6) 0.68181(8)
O4_11 O 0.03938(4) 0.54100(6) 0.73056(8)
O5_11 O 0.04879(4) 0.56893(6) 0.86534(8)
O6_11 O 0.04176(4) 0.60847(6) 0.81977(8)
O7_11 O 0.09594(4) 0.65366(6) 0.65400(8)
N9_5 N 0.09273(7) 0.67528(9) 0.79134(10)
N11_8 N 0.03017(5) 0.64151(9) 0.70816(9)
C39_11 C 0.98532(6) 0.56509(8) 0.01943(12)
C40_11 C 0.98581(6) 0.59515(8) 0.03350(13)
C44_11 C 0.96511(7) 0.59626(9) 0.08999(13)
H29_11 H 0.9680 0.6182 0.0933
H30_11 H 0.9420 0.5804 0.0825
H31_11 H 0.9722 0.5908 0.1299
C45_11 C 0.92437(7) 0.48229(10) 0.09530(12)
H32_11 H 0.9035 0.4640 0.0859
C46_11 C 0.93882(7) 0.50786(10) 0.04914(14)
H33_11 H 0.9285 0.5057 0.0090
C47_11 C 0.96814(6) 0.53598(8) 0.06325(12)
C48_11 C 0.98195(7) 0.53632(10) 0.12208(13)
C49_11 C 0.96652(7) 0.50938(10) 0.16360(13)
H35_11 H 0.9768 0.5104 0.2033
C20_11 C 0.98515(6) 0.54626(8) 0.61165(12)
H14_11 H 0.9904 0.5681 0.6194
C21_11 C 0.96045(6) 0.52708(8) 0.56712(13)
C22_11 C 0.95136(7) 0.49376(9) 0.55571(12)
C23_11 C 0.96868(6) 0.48078(8) 0.58811(12)
C24_11 C 0.99330(6) 0.50027(8) 0.63319(12)
C26_11 C 0.92253(7) 0.47252(10) 0.51060(14)
H16_11 H 0.9102 0.4502 0.5276
H17_11 H 0.9081 0.4818 0.5075
H18_11 H 0.9309 0.4719 0.4680
C27_11 C 0.93856(6) 0.56784(8) 0.43063(12)
H19_11 H 0.9450 0.5743 0.3876
C28_11 C 0.95285(6) 0.55203(9) 0.46487(12)
H20_11 H 0.9681 0.5475 0.4443
C29_11 C 0.94433(6) 0.54318(8) 0.52952(13)
C30_11 C 0.92107(6) 0.54993(8) 0.55782(13)
H21_11 H 0.9146 0.5443 0.6012
C31_11 C 0.90772(6) 0.56516(8) 0.52013(13)
H22_11 H 0.8921 0.5695 0.5393
C32_11 C 0.95640(7) 0.40308(10) 0.50120(14)
H23_11 H 0.9561 0.3965 0.4582
C33_11 C 0.96177(6) 0.43515(8) 0.51215(12)
H24_11 H 0.9653 0.4493 0.4770
C34_11 C 0.96181(6) 0.44591(8) 0.57477(13)
C35_11 C 0.95776(7) 0.42438(10) 0.62388(14)
H25_11 H 0.9579 0.4305 0.6672
C36_11 C 0.95332(7) 0.39289(10) 0.60845(14)
H26_11 H 0.9512 0.3786 0.6425
H38_11 H 0.9996 0.6691 0.9238
N3_8 N 0.91589(5) 0.57394(7) 0.45801(10)
N4_11 N 0.95190(6) 0.38218(8) 0.54647(12)
Co5_5 Co 0.894857(8) 0.598834(14) 0.403319(15)
C9_12 C 0.29706(11) 0.52850(8) 0.04746(15)
H6_12 H 0.2961 0.5184 0.0873
C39_12 C 0.43491(8) 0.42023(6) 0.01943(12)
C40_12 C 0.40485(8) 0.39066(6) 0.03350(13)
C44_12 C 0.40374(9) 0.36885(6) 0.08999(13)
H29_12 H 0.3818 0.3498 0.0933
H30_12 H 0.4196 0.3616 0.0825
H31_12 H 0.4092 0.3814 0.1299
C45_12 C 0.51771(10) 0.44208(7) 0.09530(12)
H32_12 H 0.5360 0.4395 0.0859
C46_12 C 0.49214(10) 0.43096(7) 0.04914(14)
H33_12 H 0.4943 0.4228 0.0090
C47_12 C 0.46402(8) 0.43216(6) 0.06325(12)
C48_12 C 0.46368(10) 0.44563(7) 0.12208(13)
H34_12 H 0.4451 0.4471 0.1344
C49_12 C 0.49062(10) 0.45714(7) 0.16360(13)
H35_12 H 0.4896 0.4664 0.2033
C50_12 C 0.29802(9) 0.32636(6) 0.08427(13)
H36_12 H 0.2896 0.3259 0.1258
C51_12 C 0.33025(10) 0.35096(7) 0.07116(13)
H37_12 H 0.3433 0.3657 0.1038
C52_12 C 0.34292(8) 0.35356(6) 0.00966(12)
N1_12 N 0.29482(10) 0.55718(7) 0.04482(13)
N6_6 N 0.27800(7) 0.30316(5) 0.04149(9)
Co6_6 Co 0.228191(14) 0.265500(8) 0.069985(15)
C1_12 C 0.34711(8) 0.50502(6) 0.80900(12)
C2_12 C 0.33963(9) 0.51802(7) 0.86269(13)
H1_12 H 0.3553 0.5278 0.8959
C3_12 C 0.30909(10) 0.51678(7) 0.86818(14)
C4_12 C 0.28544(9) 0.50326(7) 0.81762(13)
C5_12 C 0.29339(8) 0.49010(6) 0.76236(12)
C6_12 C 0.32332(8) 0.48992(6) 0.76062(12)
H2_12 H 0.3274 0.4794 0.7261
C7_12 C 0.37958(8) 0.50626(6) 0.80599(12)
C8_12 C 0.25219(10) 0.50135(7) 0.82651(14)
H3_12 H 0.2535 0.5215 0.8107
H4_12 H 0.2354 0.4827 0.8024
H5_12 H 0.2464 0.4986 0.8721
C10_12 C 0.30075(11) 0.51473(8) 0.98833(14)
H7_12 H 0.3017 0.4951 0.9892
C11_12 C 0.30293(11) 0.53026(8) 0.92962(15)
C12_12 C 0.30064(11) 0.55929(8) 0.92709(16)
H8_12 H 0.3015 0.5693 0.8872
C13_12 C 0.29699(11) 0.57317(8) 0.98570(16)
H9_12 H 0.2961 0.5928 0.9850
C14_12 C 0.23189(10) 0.47207(7) 0.62690(13)
H10_12 H 0.2231 0.4835 0.6047
C15_12 C 0.25378(10) 0.48813(7) 0.67693(14)
H11_12 H 0.2583 0.5093 0.6894
C16_12 C 0.26896(8) 0.47325(6) 0.70890(13)
C17_12 C 0.26107(8) 0.44213(6) 0.68765(13)
H12_12 H 0.2713 0.4312 0.7064
C18_12 C 0.23786(9) 0.42700(7) 0.63822(12)
H13_12 H 0.2328 0.4057 0.6252
C19_12 C 0.46680(8) 0.46894(6) 0.64480(12)
C20_12 C 0.45374(8) 0.43889(6) 0.61165(12)
H14_12 H 0.4319 0.4223 0.6194
C21_12 C 0.47292(8) 0.43337(6) 0.56712(13)
C22_12 C 0.50624(9) 0.45760(6) 0.55571(12)
C23_12 C 0.51922(8) 0.48790(6) 0.58811(12)
C24_12 C 0.49973(8) 0.49303(6) 0.63319(12)
H15_12 H 0.5090 0.5131 0.6561
C25_12 C 0.44470(8) 0.47525(6) 0.69000(12)
C26_12 C 0.52748(10) 0.45001(7) 0.51060(14)
H16_12 H 0.5498 0.4600 0.5276
H17_12 H 0.5182 0.4263 0.5075
H18_12 H 0.5281 0.4590 0.4680
C27_12 C 0.43216(8) 0.37072(6) 0.43063(12)
H19_12 H 0.4257 0.3707 0.3876
C28_12 C 0.44797(9) 0.40082(7) 0.46487(12)
H20_12 H 0.4525 0.4206 0.4443
C29_12 C 0.45682(8) 0.40115(6) 0.52952(13)
C30_12 C 0.45007(8) 0.37114(6) 0.55782(13)
H21_12 H 0.4557 0.3703 0.6012
C31_12 C 0.43484(8) 0.34256(6) 0.52013(13)
H22_12 H 0.4305 0.3226 0.5393
C32_12 C 0.59692(10) 0.55332(7) 0.50120(14)
H23_12 H 0.6035 0.5596 0.4582
C33_12 C 0.56485(8) 0.52662(6) 0.51215(12)
H24_12 H 0.5507 0.5160 0.4770
C34_12 C 0.55409(8) 0.51590(6) 0.57477(13)
C35_12 C 0.57562(10) 0.53338(7) 0.62388(14)
H25_12 H 0.5695 0.5274 0.6672
C36_12 C 0.60711(10) 0.56043(7) 0.60845(14)
H26_12 H 0.6214 0.5726 0.6425
C37_12 C 0.40930(8) 0.42931(6) 0.92377(12)
C38_12 C 0.43676(8) 0.43946(6) 0.96533(12)
H27_12 H 0.4565 0.4593 0.9568
C41_12 C 0.37718(8) 0.38172(6) 0.99367(12)
C42_12 C 0.37996(8) 0.40050(6) 0.93854(12)
H28_12 H 0.3617 0.3935 0.9110
C43_12 C 0.41068(8) 0.44924(6) 0.86464(12)
C53_12 C 0.32296(9) 0.33017(6) 0.96566(13)
H38_12 H 0.3309 0.3305 0.9238
C54_12 C 0.29086(9) 0.30580(7) 0.98226(13)
H39_12 H 0.2777 0.2906 0.9504
C55_12 C 0.35869(10) 0.46674(7) 0.61708(13)
H40_12 H 0.3792 0.4851 0.6282
C56_12 C 0.35928(11) 0.49912(7) 0.51709(15)
H41_12 H 0.3830 0.5080 0.5162
H42_12 H 0.3506 0.4937 0.4734
H43_12 H 0.3545 0.5154 0.5351
C57_12 C 0.31139(10) 0.43673(7) 0.53757(14)
H44_12 H 0.2925 0.4361 0.5585
H45_12 H 0.3090 0.4371 0.4910
H46_12 H 0.3126 0.4173 0.5497
Co2_6 Co 0.370643(11) 0.438476(8) 0.736652(15)
N3_9 N 0.42606(7) 0.34195(5) 0.45801(10)
N4_12 N 0.61782(8) 0.56972(6) 0.54647(12)
N7_12 N 0.34309(8) 0.46795(6) 0.55893(11)
O1_12 O 0.40270(6) 0.52525(4) 0.84324(8)
O2_12 O 0.38488(6) 0.48932(4) 0.76345(8)
O3_12 O 0.41408(6) 0.45697(4) 0.68181(8)
O4_12 O 0.45900(6) 0.49838(4) 0.73056(8)
O5_12 O 0.43107(6) 0.47986(4) 0.86534(8)
O6_12 O 0.39153(6) 0.43329(4) 0.81977(8)
O7_12 O 0.34634(6) 0.44228(4) 0.65400(8)
Co5_6 Co 0.401166(14) 0.296024(11) 0.403319(15)
N9_6 N 0.32472(9) 0.41744(5) 0.79134(10)
N11_9 N 0.35849(9) 0.38867(7) 0.70816(9)
H22_13 H 0.0107 0.7746 0.2060
C50_13 C 0.00697(6) 0.63833(7) 0.75094(13)
H36_13 H 0.0074 0.6304 0.7925
C53_13 C 0.00316(6) 0.65946(7) 0.63233(13)
H38_13 H 0.0028 0.6671 0.5905
C54_13 C 0.02753(7) 0.65173(6) 0.64893(13)
H39_13 H 0.0427 0.6538 0.6171
C1_13 C 0.82831(6) 0.50876(6) 0.47567(12)
C2_13 C 0.81531(7) 0.48828(6) 0.52936(13)
H1_13 H 0.8055 0.4942 0.5626
C3_13 C 0.81655(7) 0.45898(7) 0.53485(14)
C4_13 C 0.83007(7) 0.44885(6) 0.48429(13)
C5_13 C 0.84323(6) 0.46996(6) 0.42903(12)
C6_13 C 0.84341(6) 0.50007(6) 0.42729(12)
H2_13 H 0.8539 0.5147 0.3928
C7_13 C 0.82707(6) 0.53999(6) 0.47266(12)
C8_13 C 0.83198(7) 0.41751(7) 0.49318(14)
H3_13 H 0.8118 0.3987 0.4774
H4_13 H 0.8506 0.4194 0.4691
H5_13 H 0.8347 0.4145 0.5388
C9_13 C 0.80483(8) 0.43523(8) 0.71413(15)
H6_13 H 0.8149 0.4444 0.7540
C10_13 C 0.81860(8) 0.45269(8) 0.65500(14)
H7_13 H 0.8382 0.4733 0.6559
C11_13 C 0.80307(8) 0.43934(7) 0.59629(15)
C12_13 C 0.77404(8) 0.40802(8) 0.59376(16)
H8_13 H 0.7640 0.3989 0.5539
C13_13 C 0.76016(8) 0.39049(8) 0.65237(16)
H9_13 H 0.7405 0.3700 0.6517
C14_13 C 0.86126(7) 0.42649(7) 0.29357(13)
H10_13 H 0.8498 0.4063 0.2714
C15_13 C 0.84520(7) 0.43232(7) 0.34360(14)
H11_13 H 0.8240 0.4157 0.3561
C16_13 C 0.86008(6) 0.46238(6) 0.37557(13)
C17_13 C 0.89120(6) 0.48561(6) 0.35432(13)
H12_13 H 0.9021 0.5068 0.3731
C18_13 C 0.90633(7) 0.47753(6) 0.30489(12)
H13_13 H 0.9276 0.4938 0.2919
C19_13 C 0.86439(6) 0.66453(6) 0.31147(12)
C20_13 C 0.89444(6) 0.68152(6) 0.27832(12)
H14_13 H 0.9110 0.6763 0.2861
C21_13 C 0.89996(6) 0.70622(6) 0.23379(13)
C22_13 C 0.87573(6) 0.71531(7) 0.22238(12)
C23_13 C 0.84543(6) 0.69799(6) 0.25478(12)
C24_13 C 0.84030(6) 0.67337(6) 0.29986(12)
H15_13 H 0.8202 0.6626 0.3228
C25_13 C 0.85808(6) 0.63612(6) 0.35667(12)
C26_13 C 0.88332(7) 0.74414(7) 0.17727(14)
H16_13 H 0.8733 0.7565 0.1943
H17_13 H 0.9070 0.7586 0.1742
H18_13 H 0.8743 0.7358 0.1347
C27_13 C 0.96261(6) 0.72811(6) 0.09730(12)
H19_13 H 0.9626 0.7217 0.0543
C28_13 C 0.93251(7) 0.71382(6) 0.13154(12)
H20_13 H 0.9127 0.6986 0.1110
C29_13 C 0.93218(6) 0.72234(6) 0.19619(13)
C30_13 C 0.96219(6) 0.74560(6) 0.22449(13)
H21_13 H 0.9630 0.7521 0.2679
C31_13 C 0.99077(6) 0.75895(6) 0.18680(13)
C32_13 C 0.78001(7) 0.71027(7) 0.16787(14)
H23_13 H 0.7737 0.7106 0.1249
C33_13 C 0.80671(6) 0.70490(6) 0.17882(12)
H24_13 H 0.8173 0.7014 0.1437
C34_13 C 0.81743(6) 0.70486(6) 0.24144(13)
C35_13 C 0.79995(7) 0.70891(7) 0.29055(14)
H25_13 H 0.8059 0.7088 0.3339
C36_13 C 0.77290(7) 0.71335(7) 0.27512(14)
H26_13 H 0.7607 0.7155 0.3092
C37_13 C 0.90402(6) 0.64666(6) 0.59044(12)
C38_13 C 0.89387(6) 0.66397(6) 0.63200(12)
H27_13 H 0.8740 0.6639 0.6235
C39_13 C 0.91310(6) 0.68135(6) 0.68610(12)
C40_13 C 0.94267(6) 0.68086(6) 0.70017(13)
C41_13 C 0.95161(6) 0.66213(6) 0.66034(12)
C42_13 C 0.93283(6) 0.64613(6) 0.60521(12)
H28_13 H 0.9398 0.6349 0.5777
C43_13 C 0.88409(6) 0.62811(6) 0.53131(12)
C44_13 C 0.96448(6) 0.70156(7) 0.75666(13)
H29_13 H 0.9835 0.6987 0.7600
H30_13 H 0.9717 0.7247 0.7492
H31_13 H 0.9519 0.6945 0.7966
C45_13 C 0.89125(7) 0.74230(7) 0.76197(12)
H32_13 H 0.8938 0.7632 0.7526
C46_13 C 0.90237(7) 0.72785(7) 0.71581(14)
H33_13 H 0.9105 0.7382 0.6757
C47_13 C 0.90117(6) 0.69853(6) 0.72992(12)
C48_13 C 0.88770(7) 0.68472(7) 0.78875(13)
H34_13 H 0.8862 0.6647 0.8011
C49_13 C 0.87619(7) 0.70015(7) 0.83027(13)
H35_13 H 0.8669 0.6899 0.8700
C51_13 C 0.98237(7) 0.64596(7) 0.73783(13)
H37_13 H 0.9676 0.6443 0.7705
C52_13 C 0.97977(6) 0.65603(6) 0.67633(12)
C55_13 C 0.86659(7) 0.55862(7) 0.28375(13)
H40_13 H 0.8482 0.5608 0.2949
C56_13 C 0.83421(7) 0.52683(8) 0.18376(15)
H41_13 H 0.8253 0.5417 0.1829
H42_13 H 0.8396 0.5236 0.1401
H43_13 H 0.8179 0.5058 0.2018
C57_13 C 0.89660(7) 0.54133(7) 0.20424(14)
H44_13 H 0.8972 0.5231 0.2252
H45_13 H 0.8962 0.5386 0.1577
H46_13 H 0.9160 0.5620 0.2164
N1_13 N 0.77615(7) 0.40431(7) 0.71149(13)
N3_10 N 0.99138(5) 0.75078(5) 0.12468(10)
N4_13 N 0.76361(6) 0.71477(6) 0.21314(12)
N7_13 N 0.86538(6) 0.54181(6) 0.22560(11)
O1_13 O 0.80808(4) 0.54412(4) 0.50991(8)
O2_13 O 0.84401(4) 0.56223(4) 0.43012(8)
O3_13 O 0.87636(4) 0.62378(4) 0.34848(8)
O4_13 O 0.83495(4) 0.62729(4) 0.39723(8)
O5_13 O 0.85347(4) 0.61788(4) 0.53201(8)
O6_13 O 0.90004(4) 0.62491(4) 0.48644(8)
O7_13 O 0.89105(4) 0.57073(4) 0.32067(8)
N11_10 N 0.94467(7) 0.63649(5) 0.37482(9)
C1_14 C 0.49124(6) 0.31956(8) 0.47567(12)
C2_14 C 0.51172(6) 0.32704(9) 0.52936(13)
H1_14 H 0.5058 0.3114 0.5626
C3_14 C 0.54102(7) 0.35758(10) 0.53485(14)
C4_14 C 0.55115(6) 0.38123(9) 0.48429(13)
C5_14 C 0.53004(6) 0.37328(8) 0.42903(12)
C6_14 C 0.49993(6) 0.34335(8) 0.42729(12)
H2_14 H 0.4853 0.3393 0.3928
C7_14 C 0.46001(6) 0.28709(8) 0.47266(12)
C8_14 C 0.58249(7) 0.41448(10) 0.49318(14)
H3_14 H 0.6013 0.4132 0.4774
H4_14 H 0.5806 0.4313 0.4691
H5_14 H 0.5855 0.4203 0.5388
C9_14 C 0.56477(8) 0.36961(11) 0.71413(15)
H6_14 H 0.5556 0.3706 0.7540
C10_14 C 0.54731(8) 0.36592(11) 0.65500(14)
H7_14 H 0.5267 0.3650 0.6559
C11_14 C 0.56066(7) 0.36374(11) 0.59629(15)
C12_14 C 0.59198(8) 0.36603(11) 0.59376(16)
H8_14 H 0.6011 0.3652 0.5539
C13_14 C 0.60951(8) 0.36968(11) 0.65237(16)
H9_14 H 0.6300 0.3706 0.6517
C14_14 C 0.57351(7) 0.43478(10) 0.29357(13)
H10_14 H 0.5937 0.4436 0.2714
C15_14 C 0.56768(7) 0.41289(10) 0.34360(14)
H11_14 H 0.5843 0.4084 0.3561
C16_14 C 0.53762(6) 0.39771(8) 0.37557(13)
C17_14 C 0.51439(6) 0.40560(8) 0.35432(13)
H12_14 H 0.4932 0.3954 0.3731
C18_14 C 0.52247(6) 0.42881(9) 0.30489(12)
H13_14 H 0.5062 0.4339 0.2919
C19_14 C 0.33547(6) 0.19987(8) 0.31147(12)
C20_14 C 0.31848(6) 0.21293(8) 0.27832(12)
H14_14 H 0.3237 0.2348 0.2861
C21_14 C 0.29378(6) 0.19375(8) 0.23379(13)
C22_14 C 0.28469(7) 0.16043(9) 0.22238(12)
C23_14 C 0.30201(6) 0.14745(8) 0.25478(12)
C24_14 C 0.32663(6) 0.16694(8) 0.29986(12)
H15_14 H 0.3374 0.1577 0.3228
C25_14 C 0.36388(6) 0.22197(8) 0.35667(12)
C26_14 C 0.25586(7) 0.13919(10) 0.17727(14)
H16_14 H 0.2435 0.1169 0.1943
H17_14 H 0.2414 0.1485 0.1742
H18_14 H 0.2642 0.1386 0.1347
C27_14 C 0.27189(6) 0.23451(8) 0.09730(12)
H19_14 H 0.2783 0.2410 0.0543
C28_14 C 0.28618(6) 0.21870(9) 0.13154(12)
H20_14 H 0.3014 0.2142 0.1110
C29_14 C 0.27766(6) 0.20985(8) 0.19619(13)
C30_14 C 0.25440(6) 0.21660(8) 0.22449(13)
H21_14 H 0.2479 0.2110 0.2679
C31_14 C 0.24105(6) 0.23183(8) 0.18680(13)
H22_14 H 0.2254 0.2362 0.2060
C32_14 C 0.28973(7) 0.06975(10) 0.16787(14)
H23_14 H 0.2894 0.0632 0.1249
C33_14 C 0.29510(6) 0.10182(8) 0.17882(12)
H24_14 H 0.2986 0.1160 0.1437
C34_14 C 0.29514(6) 0.11258(8) 0.24144(13)
C35_14 C 0.29109(7) 0.09105(10) 0.29055(14)
H25_14 H 0.2912 0.0972 0.3339
C36_14 C 0.28665(7) 0.05956(10) 0.27512(14)
H26_14 H 0.2845 0.0453 0.3092
C37_14 C 0.35334(6) 0.25737(8) 0.59044(12)
C38_14 C 0.33603(6) 0.22991(8) 0.63200(12)
H27_14 H 0.3361 0.2102 0.6235
C39_14 C 0.31865(6) 0.23176(8) 0.68610(12)
C40_14 C 0.31914(6) 0.26182(8) 0.70017(13)
C41_14 C 0.33787(6) 0.28949(8) 0.66034(12)
C42_14 C 0.35387(6) 0.28671(8) 0.60521(12)
H28_14 H 0.3651 0.3050 0.5777
C43_14 C 0.37189(6) 0.25599(8) 0.53131(12)
C44_14 C 0.29844(7) 0.26293(9) 0.75666(13)
H29_14 H 0.3013 0.2849 0.7600
H30_14 H 0.2753 0.2471 0.7492
H31_14 H 0.3055 0.2575 0.7966
C45_14 C 0.25770(7) 0.14896(10) 0.76197(12)
H32_14 H 0.2368 0.1307 0.7526
C46_14 C 0.27215(7) 0.17453(10) 0.71581(14)
H33_14 H 0.2618 0.1724 0.6757
C47_14 C 0.30147(6) 0.20265(8) 0.72992(12)
C48_14 C 0.31528(7) 0.20299(10) 0.78875(13)
H34_14 H 0.3353 0.2216 0.8011
C49_14 C 0.29985(7) 0.17605(10) 0.83027(13)
H35_14 H 0.3101 0.1771 0.8700
C50_14 C 0.36167(7) 0.36865(9) 0.75094(13)
H36_14 H 0.3696 0.3771 0.7925
C51_14 C 0.35404(7) 0.33642(10) 0.73783(13)
H37_14 H 0.3557 0.3234 0.7705
C52_14 C 0.34397(6) 0.32375(8) 0.67633(12)
C53_14 C 0.34054(7) 0.34371(9) 0.63233(13)
H38_14 H 0.3329 0.3358 0.5905
C54_14 C 0.34827(6) 0.37581(9) 0.64893(13)
H39_14 H 0.3462 0.3890 0.6171
C55_14 C 0.44138(7) 0.30798(10) 0.28375(13)
H40_14 H 0.4392 0.2875 0.2949
C56_14 C 0.47317(8) 0.30739(11) 0.18376(15)
H41_14 H 0.4583 0.2837 0.1829
H42_14 H 0.4764 0.3161 0.1401
H43_14 H 0.4942 0.3122 0.2018
C57_14 C 0.45867(7) 0.35528(10) 0.20424(14)
H44_14 H 0.4769 0.3742 0.2252
H45_14 H 0.4614 0.3577 0.1577
H46_14 H 0.4380 0.3541 0.2164
N1_14 N 0.59569(7) 0.37185(10) 0.71149(13)
N3_11 N 0.24922(5) 0.24061(7) 0.12468(10)
N4_14 N 0.28523(6) 0.04885(8) 0.21314(12)
N7_14 N 0.45819(6) 0.32358(8) 0.22560(11)
O1_14 O 0.45588(4) 0.26397(6) 0.50991(8)
O2_14 O 0.43777(4) 0.28179(6) 0.43012(8)
O3_14 O 0.37622(4) 0.25259(6) 0.34848(8)
O4_14 O 0.37271(4) 0.20767(6) 0.39723(8)
O5_14 O 0.38212(4) 0.23560(6) 0.53201(8)
O6_14 O 0.37509(4) 0.27514(6) 0.48644(8)
O7_14 O 0.42927(4) 0.32033(6) 0.32067(8)
N11_11 N 0.36351(5) 0.30817(9) 0.37482(9)
C1_15 C 0.68044(8) 0.17169(6) 0.47567(12)
C2_15 C 0.67296(9) 0.18469(7) 0.52936(13)
H1_15 H 0.6886 0.1945 0.5626
C3_15 C 0.64242(10) 0.18345(7) 0.53485(14)
C4_15 C 0.61877(9) 0.16993(7) 0.48429(13)
C5_15 C 0.62672(8) 0.15677(6) 0.42903(12)
C6_15 C 0.65665(8) 0.15659(6) 0.42729(12)
H2_15 H 0.6607 0.1461 0.3928
C7_15 C 0.71291(8) 0.17293(6) 0.47266(12)
C8_15 C 0.58552(10) 0.16802(7) 0.49318(14)
H3_15 H 0.5868 0.1882 0.4774
H4_15 H 0.5687 0.1494 0.4691
H5_15 H 0.5797 0.1653 0.5388
C9_15 C 0.63039(11) 0.19517(8) 0.71413(15)
H6_15 H 0.6294 0.1851 0.7540
C10_15 C 0.63408(11) 0.18140(8) 0.65500(14)
H7_15 H 0.6350 0.1618 0.6559
C11_15 C 0.63626(11) 0.19693(8) 0.59629(15)
C12_15 C 0.63397(11) 0.22596(8) 0.59376(16)
H8_15 H 0.6348 0.2360 0.5539
C13_15 C 0.63032(11) 0.23984(8) 0.65237(16)
H9_15 H 0.6294 0.2595 0.6517
C14_15 C 0.56522(10) 0.13874(7) 0.29357(13)
H10_15 H 0.5564 0.1502 0.2714
C15_15 C 0.58711(10) 0.15480(7) 0.34360(14)
H11_15 H 0.5916 0.1760 0.3561
C16_15 C 0.60229(8) 0.13992(6) 0.37557(13)
C17_15 C 0.59440(8) 0.10880(6) 0.35432(13)
H12_15 H 0.6046 0.0979 0.3731
C18_15 C 0.57119(9) 0.09367(7) 0.30489(12)
H13_15 H 0.5661 0.0724 0.2919
C19_15 C 0.80013(8) 0.13561(6) 0.31147(12)
C20_15 C 0.78707(8) 0.10556(6) 0.27832(12)
H14_15 H 0.7652 0.0890 0.2861
C21_15 C 0.80625(8) 0.10004(6) 0.23379(13)
C22_15 C 0.83957(9) 0.12427(6) 0.22238(12)
C23_15 C 0.85255(8) 0.15457(6) 0.25478(12)
C24_15 C 0.83306(8) 0.15970(6) 0.29986(12)
H15_15 H 0.8423 0.1798 0.3228
C25_15 C 0.77803(8) 0.14192(6) 0.35667(12)
C26_15 C 0.86081(10) 0.11668(7) 0.17727(14)
H16_15 H 0.8831 0.1267 0.1943
H17_15 H 0.8515 0.0930 0.1742
H18_15 H 0.8614 0.1257 0.1347
C27_15 C 0.76549(8) 0.03739(6) 0.09730(12)
H19_15 H 0.7590 0.0374 0.0543
C28_15 C 0.78130(9) 0.06749(7) 0.13154(12)
H20_15 H 0.7858 0.0873 0.1110
C29_15 C 0.79015(8) 0.06782(6) 0.19619(13)
C30_15 C 0.78340(8) 0.03781(6) 0.22449(13)
H21_15 H 0.7890 0.0370 0.2679
C31_15 C 0.76817(8) 0.00923(6) 0.18680(13)
C32_15 C 0.93025(10) 0.21999(7) 0.16787(14)
H23_15 H 0.9368 0.2263 0.1249
C33_15 C 0.89818(8) 0.19329(6) 0.17882(12)
H24_15 H 0.8840 0.1827 0.1437
C34_15 C 0.88742(8) 0.18257(6) 0.24144(13)
C35_15 C 0.90895(10) 0.20005(7) 0.29055(14)
H25_15 H 0.9028 0.1941 0.3339
C36_15 C 0.94044(10) 0.22710(7) 0.27512(14)
H26_15 H 0.9547 0.2393 0.3092
C37_15 C 0.74263(8) 0.09598(6) 0.59044(12)
C38_15 C 0.77009(8) 0.10613(6) 0.63200(12)
H27_15 H 0.7898 0.1260 0.6235
C39_15 C 0.76824(8) 0.08690(6) 0.68610(12)
C40_15 C 0.73818(8) 0.05733(6) 0.70017(13)
C41_15 C 0.71051(8) 0.04839(6) 0.66034(12)
C42_15 C 0.71329(8) 0.06717(6) 0.60521(12)
H28_15 H 0.6950 0.0602 0.5777
C43_15 C 0.74401(8) 0.11591(6) 0.53131(12)
C44_15 C 0.73707(9) 0.03552(6) 0.75666(13)
H29_15 H 0.7151 0.0165 0.7600
H30_15 H 0.7529 0.0283 0.7492
H31_15 H 0.7425 0.0481 0.7966
C45_15 C 0.85104(10) 0.10875(7) 0.76197(12)
H32_15 H 0.8693 0.1062 0.7526
C46_15 C 0.82547(10) 0.09763(7) 0.71581(14)
H33_15 H 0.8276 0.0895 0.6757
C47_15 C 0.79735(8) 0.09883(6) 0.72992(12)
C48_15 C 0.79701(10) 0.11230(7) 0.78875(13)
H34_15 H 0.7784 0.1138 0.8011
C49_15 C 0.82395(10) 0.12381(7) 0.83027(13)
H35_15 H 0.8229 0.1331 0.8700
C51_15 C 0.66358(10) 0.01763(7) 0.73783(13)
H37_15 H 0.6766 0.0324 0.7705
C52_15 C 0.67625(8) 0.02023(6) 0.67633(12)
C55_15 C 0.69202(10) 0.13341(7) 0.28375(13)
H40_15 H 0.7125 0.1518 0.2949
C56_15 C 0.69261(11) 0.16579(7) 0.18376(15)
H41_15 H 0.7163 0.1747 0.1829
H42_15 H 0.6839 0.1604 0.1401
H43_15 H 0.6878 0.1821 0.2018
C57_15 C 0.64472(10) 0.10340(7) 0.20424(14)
H44_15 H 0.6258 0.1028 0.2252
H45_15 H 0.6423 0.1038 0.1577
H46_15 H 0.6459 0.0840 0.2164
N1_15 N 0.62815(10) 0.22385(7) 0.71149(13)
N3_12 N 0.75939(7) 0.00862(5) 0.12468(10)
N4_15 N 0.95115(8) 0.23639(6) 0.21314(12)
N7_15 N 0.67642(8) 0.13462(6) 0.22560(11)
O1_15 O 0.73603(6) 0.19192(4) 0.50991(8)
O2_15 O 0.71821(6) 0.15599(4) 0.43012(8)
O3_15 O 0.74741(6) 0.12364(4) 0.34848(8)
O4_15 O 0.79233(6) 0.16505(4) 0.39723(8)
O5_15 O 0.76440(6) 0.14653(4) 0.53201(8)
O6_15 O 0.72486(6) 0.09996(4) 0.48644(8)
O7_15 O 0.67967(6) 0.10895(4) 0.32067(8)
N11_12 N 0.69183(9) 0.05533(7) 0.37482(9)
H22_15 H 0.7638 0.9893 0.2060
C50_15 C 0.63135(9) 0.99303(6) 0.75094(13)
H36_15 H 0.6229 0.9926 0.7925
C53_15 C 0.65629(9) 0.99684(6) 0.63233(13)
H38_15 H 0.6642 0.9972 0.5905
C54_15 C 0.62419(9) 0.97247(7) 0.64893(13)
H39_15 H 0.6110 0.9573 0.6171
C1_16 C 0.16165(6) 0.17542(6) 0.14233(12)
C2_16 C 0.14865(7) 0.15494(6) 0.19602(13)
H1_16 H 0.1389 0.1608 0.2292
C3_16 C 0.14989(7) 0.12564(7) 0.20151(14)
C4_16 C 0.16341(7) 0.11551(6) 0.15095(13)
C5_16 C 0.17657(6) 0.13662(6) 0.09569(12)
C6_16 C 0.17675(6) 0.16673(6) 0.09395(12)
H2_16 H 0.1873 0.1813 0.0594
C7_16 C 0.16041(6) 0.20665(6) 0.13932(12)
C8_16 C 0.16532(7) 0.08417(7) 0.15984(14)
H3_16 H 0.1452 0.0653 0.1440
H4_16 H 0.1840 0.0860 0.1357
H5_16 H 0.1681 0.0811 0.2054
C9_16 C 0.13817(8) 0.10189(8) 0.38079(15)
H6_16 H 0.1483 0.1110 0.4206
C10_16 C 0.15194(8) 0.11935(8) 0.32166(14)
H7_16 H 0.1716 0.1399 0.3225
C11_16 C 0.13641(8) 0.10600(7) 0.26295(15)
C12_16 C 0.10738(8) 0.07468(8) 0.26042(16)
H8_16 H 0.0974 0.0655 0.2205
C13_16 C 0.09350(8) 0.05715(8) 0.31903(16)
H9_16 H 0.0739 0.0366 0.3183
C15_16 C 0.17854(7) 0.09898(7) 0.01026(14)
H11_16 H 0.1574 0.0823 0.0227
C16_16 C 0.19342(6) 0.12904(6) 0.04223(13)
C17_16 C 0.22454(6) 0.15227(6) 0.02098(13)
H12_16 H 0.2355 0.1734 0.0397
C25_16 C 0.19142(6) 0.30278(6) 0.02333(12)
H25_16 H 0.1393 0.3754 0.0005
C37_16 C 0.23736(6) 0.31332(6) 0.25710(12)
C38_16 C 0.22721(6) 0.33063(6) 0.29866(12)
H27_16 H 0.2074 0.3305 0.2901
C39_16 C 0.24644(6) 0.34801(6) 0.35276(12)
C40_16 C 0.27601(6) 0.34752(6) 0.36683(13)
C41_16 C 0.28495(6) 0.32879(6) 0.32700(12)
C42_16 C 0.26617(6) 0.31279(6) 0.27187(12)
H28_16 H 0.2732 0.3015 0.2443
C43_16 C 0.21743(6) 0.29477(6) 0.19797(12)
C44_16 C 0.29782(6) 0.36822(7) 0.42332(13)
H29_16 H 0.3169 0.3653 0.4266
H30_16 H 0.3051 0.3913 0.4158
H31_16 H 0.2853 0.3611 0.4632
C45_16 C 0.22459(7) 0.40896(7) 0.42863(12)
H32_16 H 0.2272 0.4298 0.4192
C46_16 C 0.23571(7) 0.39451(7) 0.38247(14)
H33_16 H 0.2439 0.4048 0.3423
C47_16 C 0.23451(6) 0.36519(6) 0.39658(12)
C48_16 C 0.22104(7) 0.35138(7) 0.45541(13)
H34_16 H 0.2196 0.3313 0.4677
C49_16 C 0.20953(7) 0.36681(7) 0.49693(13)
H35_16 H 0.2003 0.3565 0.5366
C50_16 C 0.34031(6) 0.30499(7) 0.41760(13)
H36_16 H 0.3408 0.2970 0.4591
C51_16 C 0.31571(7) 0.31262(7) 0.40449(13)
H37_16 H 0.3010 0.3109 0.4371
C52_16 C 0.31311(6) 0.32269(6) 0.34299(12)
C53_16 C 0.33650(6) 0.32612(7) 0.29899(13)
H38_16 H 0.3362 0.3337 0.2571
C54_16 C 0.36087(7) 0.31839(6) 0.31559(13)
H39_16 H 0.3761 0.3204 0.2837
N1_16 N 0.10949(7) 0.07097(7) 0.37815(13)
O1_16 O 0.14142(4) 0.21078(4) 0.17657(8)
O2_16 O 0.17735(4) 0.22889(4) 0.09678(8)
O3_16 O 0.20970(4) 0.29044(4) 0.01514(8)
O4_16 O 0.16829(4) 0.29395(4) 0.06389(8)
O5_16 O 0.18681(4) 0.28454(4) 0.19867(8)
O6_16 O 0.23338(4) 0.29157(4) 0.15310(8)
C14_16 C 0.19460(7) 0.09315(7) 0.96023(13)
H10_16 H 0.1832 0.0729 0.9380
C18_16 C 0.23967(7) 0.14419(6) 0.97155(12)
H13_16 H 0.2610 0.1604 0.9585
C19_16 C 0.19773(6) 0.33119(6) 0.97813(12)
C20_16 C 0.22778(6) 0.34818(6) 0.94498(12)
H14_16 H 0.2444 0.3429 0.9527
C21_16 C 0.23330(6) 0.37288(6) 0.90045(13)
C22_16 C 0.20907(6) 0.38197(7) 0.88904(12)
C23_16 C 0.17877(6) 0.36465(6) 0.92144(12)
C24_16 C 0.17364(6) 0.34003(6) 0.96652(12)
H15_16 H 0.1536 0.3292 0.9894
C26_16 C 0.21666(7) 0.41080(7) 0.84393(14)
H16_16 H 0.2067 0.4231 0.8609
H17_16 H 0.2404 0.4252 0.8408
H18_16 H 0.2077 0.4024 0.8013
C27_16 C 0.29595(6) 0.39477(6) 0.76396(12)
H19_16 H 0.2960 0.3883 0.7209
C28_16 C 0.26585(7) 0.38048(6) 0.79820(12)
H20_16 H 0.2461 0.3652 0.7776
C29_16 C 0.26552(6) 0.38900(6) 0.86285(13)
C30_16 C 0.29553(6) 0.41226(6) 0.89115(13)
H21_16 H 0.2964 0.4187 0.9345
C31_16 C 0.32411(6) 0.42561(6) 0.85346(13)
H22_16 H 0.3441 0.4412 0.8726
C32_16 C 0.11335(7) 0.37693(7) 0.83453(14)
H23_16 H 0.1071 0.3772 0.7915
C33_16 C 0.14005(6) 0.37156(6) 0.84548(12)
H24_16 H 0.1507 0.3680 0.8103
C34_16 C 0.15077(6) 0.37152(6) 0.90810(13)
C35_16 C 0.13329(7) 0.37557(7) 0.95721(14)
C36_16 C 0.10624(7) 0.38001(7) 0.94178(14)
H26_16 H 0.0941 0.3821 0.9758
C55_16 C 0.19993(7) 0.22528(7) 0.95041(13)
H40_16 H 0.1816 0.2274 0.9615
C56_16 C 0.16755(7) 0.19349(8) 0.85042(15)
H41_16 H 0.1587 0.2083 0.8495
H42_16 H 0.1730 0.1902 0.8067
H43_16 H 0.1513 0.1724 0.8684
C57_16 C 0.22994(7) 0.20799(7) 0.87090(14)
H44_16 H 0.2306 0.1897 0.8918
H45_16 H 0.2296 0.2052 0.8243
H46_16 H 0.2494 0.2286 0.8830
N4_16 N 0.09695(6) 0.38143(6) 0.87980(12)
N7_16 N 0.19872(6) 0.20847(6) 0.89226(11)
O7_16 O 0.22439(4) 0.23739(4) 0.98733(8)
C3_17 C 0.87436(7) 0.02424(10) 0.20151(14)
C4_17 C 0.88449(6) 0.04789(9) 0.15095(13)
C5_17 C 0.86338(6) 0.03994(8) 0.09569(12)
C6_17 C 0.83327(6) 0.01001(8) 0.09395(12)
H2_17 H 0.8187 0.0059 0.0594
C8_17 C 0.91583(7) 0.08114(10) 0.15984(14)
H3_17 H 0.9347 0.0798 0.1440
H4_17 H 0.9140 0.0979 0.1357
H5_17 H 0.9189 0.0869 0.2054
C9_17 C 0.89811(8) 0.03627(11) 0.38079(15)
H6_17 H 0.8890 0.0372 0.4206
C10_17 C 0.88065(8) 0.03258(11) 0.32166(14)
H7_17 H 0.8601 0.0316 0.3225
C11_17 C 0.89400(7) 0.03040(11) 0.26295(15)
C12_17 C 0.92532(8) 0.03269(11) 0.26042(16)
H8_17 H 0.9345 0.0318 0.2205
C13_17 C 0.94285(8) 0.03634(11) 0.31903(16)
H9_17 H 0.9634 0.0372 0.3183
C15_17 C 0.90102(7) 0.07955(10) 0.01026(14)
H11_17 H 0.9177 0.0750 0.0227
C16_17 C 0.87096(6) 0.06437(8) 0.04223(13)
C17_17 C 0.84773(6) 0.07226(8) 0.02098(13)
H12_17 H 0.8266 0.0620 0.0397
C50_17 C 0.69501(7) 0.03531(9) 0.41760(13)
H36_17 H 0.7030 0.0437 0.4591
C51_17 C 0.68738(7) 0.00308(10) 0.40449(13)
C53_17 C 0.67388(7) 0.01037(9) 0.29899(13)
H38_17 H 0.6663 0.0024 0.2571
C54_17 C 0.68161(6) 0.04247(9) 0.31559(13)
H39_17 H 0.6796 0.0556 0.2837
N1_17 N 0.92903(7) 0.03851(10) 0.37815(13)
C14_17 C 0.90685(7) 0.10144(10) 0.96023(13)
H10_17 H 0.9271 0.1102 0.9380
C18_17 C 0.85581(6) 0.09547(9) 0.97155(12)
H13_17 H 0.8396 0.1005 0.9585
C57_17 C 0.79201(7) 0.02194(10) 0.87090(14)
H44_17 H 0.8103 0.0408 0.8918
H45_17 H 0.7948 0.0243 0.8243
H46_17 H 0.7714 0.0207 0.8830
C1_17 C 0.82458(6) 0.98622(8) 0.14233(12)
C2_17 C 0.84506(6) 0.99370(9) 0.19602(13)
H1_17 H 0.8392 0.9780 0.2292
C7_17 C 0.79335(6) 0.95375(8) 0.13932(12)
C25_17 C 0.69722(6) 0.88863(8) 0.02333(12)
H25_17 H 0.6246 0.7638 0.0005
C37_17 C 0.68668(6) 0.92403(8) 0.25710(12)
C38_17 C 0.66937(6) 0.89657(8) 0.29866(12)
H27_17 H 0.6695 0.8768 0.2901
C39_17 C 0.65199(6) 0.89842(8) 0.35276(12)
C40_17 C 0.65248(6) 0.92848(8) 0.36683(13)
C41_17 C 0.67121(6) 0.95615(8) 0.32700(12)
C42_17 C 0.68721(6) 0.95337(8) 0.27187(12)
H28_17 H 0.6985 0.9716 0.2443
C43_17 C 0.70523(6) 0.92265(8) 0.19797(12)
C44_17 C 0.63178(7) 0.92959(9) 0.42332(13)
H29_17 H 0.6347 0.9515 0.4266
H30_17 H 0.6087 0.9137 0.4158
H31_17 H 0.6389 0.9241 0.4632
C45_17 C 0.59104(7) 0.81562(10) 0.42863(12)
H32_17 H 0.5702 0.7973 0.4192
C46_17 C 0.60549(7) 0.84119(10) 0.38247(14)
H33_17 H 0.5952 0.8390 0.3423
C47_17 C 0.63481(6) 0.86931(8) 0.39658(12)
C48_17 C 0.64862(7) 0.86965(10) 0.45541(13)
H34_17 H 0.6687 0.8882 0.4677
C49_17 C 0.63319(7) 0.84271(10) 0.49693(13)
H35_17 H 0.6435 0.8437 0.5366
H37_17 H 0.6891 0.9900 0.4371
C52_17 C 0.67731(6) 0.99041(8) 0.34299(12)
O1_17 O 0.78922(4) 0.93063(6) 0.17657(8)
O2_17 O 0.77111(4) 0.94845(6) 0.09678(8)
O3_17 O 0.70956(4) 0.91925(6) 0.01514(8)
O4_17 O 0.70605(4) 0.87433(6) 0.06389(8)
O5_17 O 0.71546(4) 0.90226(6) 0.19867(8)
O6_17 O 0.70843(4) 0.94180(6) 0.15310(8)
C19_17 C 0.66881(6) 0.86653(8) 0.97813(12)
C20_17 C 0.65182(6) 0.87959(8) 0.94498(12)
H14_17 H 0.6571 0.9014 0.9527
C21_17 C 0.62712(6) 0.86041(8) 0.90045(13)
C22_17 C 0.61803(7) 0.82709(9) 0.88904(12)
C23_17 C 0.63535(6) 0.81411(8) 0.92144(12)
C24_17 C 0.65997(6) 0.83360(8) 0.96652(12)
H15_17 H 0.6708 0.8243 0.9894
C26_17 C 0.58920(7) 0.80585(10) 0.84393(14)
H16_17 H 0.5769 0.7835 0.8609
H17_17 H 0.5748 0.8151 0.8408
H18_17 H 0.5976 0.8052 0.8013
C27_17 C 0.60523(6) 0.90117(8) 0.76396(12)
H19_17 H 0.6117 0.9076 0.7209
C28_17 C 0.61952(6) 0.88536(9) 0.79820(12)
H20_17 H 0.6348 0.8808 0.7776
C29_17 C 0.61100(6) 0.87651(8) 0.86285(13)
C30_17 C 0.58774(6) 0.88326(8) 0.89115(13)
H21_17 H 0.5813 0.8776 0.9345
C31_17 C 0.57439(6) 0.89849(8) 0.85346(13)
H22_17 H 0.5588 0.9028 0.8726
C32_17 C 0.62307(7) 0.73641(10) 0.83453(14)
H23_17 H 0.6228 0.7298 0.7915
C33_17 C 0.62844(6) 0.76848(8) 0.84548(12)
H24_17 H 0.6320 0.7826 0.8103
C34_17 C 0.62848(6) 0.77924(8) 0.90810(13)
C35_17 C 0.62443(7) 0.75771(10) 0.95721(14)
C36_17 C 0.61999(7) 0.72622(10) 0.94178(14)
H26_17 H 0.6179 0.7119 0.9758
C55_17 C 0.77472(7) 0.97464(10) 0.95041(13)
H40_17 H 0.7726 0.9541 0.9615
C56_17 C 0.80651(8) 0.97405(11) 0.85042(15)
H41_17 H 0.7917 0.9503 0.8495
H42_17 H 0.8098 0.9827 0.8067
H43_17 H 0.8276 0.9788 0.8684
N4_17 N 0.61857(6) 0.71551(8) 0.87980(12)
N7_17 N 0.79153(6) 0.99024(8) 0.89226(11)
O7_17 O 0.76261(4) 0.98699(6) 0.98733(8)
C1_18 C 0.01378(8) 0.83835(6) 0.14233(12)
C2_18 C 0.00630(9) 0.85135(7) 0.19602(13)
H1_18 H 0.0220 0.8611 0.2292
C7_18 C 0.04625(8) 0.83959(6) 0.13932(12)
C25_18 C 0.11137(8) 0.80858(6) 0.02333(12)
H25_18 H 0.2362 0.8607 0.0005
C37_18 C 0.07597(8) 0.76264(6) 0.25710(12)
C38_18 C 0.10343(8) 0.77279(6) 0.29866(12)
H27_18 H 0.1232 0.7926 0.2901
C39_18 C 0.10158(8) 0.75356(6) 0.35276(12)
C40_18 C 0.07152(8) 0.72399(6) 0.36683(13)
C41_18 C 0.04385(8) 0.71505(6) 0.32700(12)
C42_18 C 0.04663(8) 0.73383(6) 0.27187(12)
H28_18 H 0.0284 0.7268 0.2443
C43_18 C 0.07735(8) 0.78257(6) 0.19797(12)
C44_18 C 0.07041(9) 0.70218(6) 0.42332(13)
H29_18 H 0.0485 0.6831 0.4266
H30_18 H 0.0863 0.6949 0.4158
H31_18 H 0.0759 0.7147 0.4632
C45_18 C 0.18438(10) 0.77541(7) 0.42863(12)
H32_18 H 0.2027 0.7728 0.4192
C46_18 C 0.15881(10) 0.76429(7) 0.38247(14)
H33_18 H 0.1610 0.7561 0.3423
C47_18 C 0.13069(8) 0.76549(6) 0.39658(12)
C48_18 C 0.13035(10) 0.77896(7) 0.45541(13)
H34_18 H 0.1118 0.7804 0.4677
C49_18 C 0.15729(10) 0.79047(7) 0.49693(13)
H35_18 H 0.1563 0.7997 0.5366
H37_18 H 0.0100 0.6990 0.4371
C52_18 C 0.00959(8) 0.68689(6) 0.34299(12)
O1_18 O 0.06937(6) 0.85858(4) 0.17657(8)
O2_18 O 0.05155(6) 0.82265(4) 0.09678(8)
O3_18 O 0.08075(6) 0.79030(4) 0.01514(8)
O4_18 O 0.12567(6) 0.83171(4) 0.06389(8)
O5_18 O 0.09774(6) 0.81319(4) 0.19867(8)
O6_18 O 0.05820(6) 0.76662(4) 0.15310(8)
C19_18 C 0.13347(8) 0.80227(6) 0.97813(12)
C20_18 C 0.12041(8) 0.77222(6) 0.94498(12)
H14_18 H 0.0986 0.7556 0.9527
C21_18 C 0.13959(8) 0.76670(6) 0.90045(13)
C22_18 C 0.17291(9) 0.79093(6) 0.88904(12)
C23_18 C 0.18589(8) 0.82123(6) 0.92144(12)
C24_18 C 0.16640(8) 0.82636(6) 0.96652(12)
H15_18 H 0.1757 0.8464 0.9894
C26_18 C 0.19415(10) 0.78334(7) 0.84393(14)
H16_18 H 0.2165 0.7933 0.8609
H17_18 H 0.1849 0.7596 0.8408
H18_18 H 0.1948 0.7923 0.8013
C27_18 C 0.09883(8) 0.70405(6) 0.76396(12)
H19_18 H 0.0924 0.7040 0.7209
C28_18 C 0.11464(9) 0.73415(7) 0.79820(12)
H20_18 H 0.1192 0.7539 0.7776
C29_18 C 0.12349(8) 0.73448(6) 0.86285(13)
C30_18 C 0.11674(8) 0.70447(6) 0.89115(13)
H21_18 H 0.1224 0.7036 0.9345
C31_18 C 0.10151(8) 0.67589(6) 0.85346(13)
H22_18 H 0.0972 0.6559 0.8726
C32_18 C 0.26359(10) 0.88665(7) 0.83453(14)
H23_18 H 0.2702 0.8929 0.7915
C33_18 C 0.23152(8) 0.85995(6) 0.84548(12)
H24_18 H 0.2174 0.8493 0.8103
C34_18 C 0.22076(8) 0.84923(6) 0.90810(13)
C35_18 C 0.24229(10) 0.86671(7) 0.95721(14)
C36_18 C 0.27378(10) 0.89376(7) 0.94178(14)
H26_18 H 0.2881 0.9059 0.9758
C55_18 C 0.02536(10) 0.80007(7) 0.95041(13)
H40_18 H 0.0459 0.8184 0.9615
C56_18 C 0.02595(11) 0.83245(7) 0.85042(15)
H41_18 H 0.0497 0.8413 0.8495
H42_18 H 0.0173 0.8270 0.8067
H43_18 H 0.0212 0.8487 0.8684
N4_18 N 0.28449(8) 0.90305(6) 0.87980(12)
N7_18 N 0.00976(8) 0.80128(6) 0.89226(11)
O7_18 O 0.01301(6) 0.77561(4) 0.98733(8)
C3_18 C 0.97576(10) 0.85011(7) 0.20151(14)
C4_18 C 0.95211(9) 0.83659(7) 0.15095(13)
C5_18 C 0.96006(8) 0.82343(6) 0.09569(12)
C6_18 C 0.98999(8) 0.82325(6) 0.09395(12)
H2_18 H 0.9941 0.8127 0.0594
C8_18 C 0.91886(10) 0.83468(7) 0.15984(14)
H3_18 H 0.9202 0.8548 0.1440
H4_18 H 0.9021 0.8160 0.1357
H5_18 H 0.9131 0.8319 0.2054
C9_18 C 0.96373(11) 0.86183(8) 0.38079(15)
H6_18 H 0.9628 0.8517 0.4206
C10_18 C 0.96742(11) 0.84806(8) 0.32166(14)
H7_18 H 0.9684 0.8284 0.3225
C11_18 C 0.96960(11) 0.86359(8) 0.26295(15)
C12_18 C 0.96731(11) 0.89262(8) 0.26042(16)
H8_18 H 0.9682 0.9026 0.2205
C13_18 C 0.96366(11) 0.90650(8) 0.31903(16)
H9_18 H 0.9628 0.9261 0.3183
C15_18 C 0.92045(10) 0.82146(7) 0.01026(14)
H11_18 H 0.9250 0.8426 0.0227
C16_18 C 0.93563(8) 0.80658(6) 0.04223(13)
C17_18 C 0.92774(8) 0.77546(6) 0.02098(13)
H12_18 H 0.9380 0.7645 0.0397
C50_18 C 0.96469(9) 0.65969(6) 0.41760(13)
H36_18 H 0.9563 0.6592 0.4591
C51_18 C 0.99692(10) 0.68429(7) 0.40449(13)
C53_18 C 0.98963(9) 0.66350(6) 0.29899(13)
H38_18 H 0.9976 0.6638 0.2571
C54_18 C 0.95753(9) 0.63913(7) 0.31559(13)
H39_18 H 0.9444 0.6239 0.2837
N1_18 N 0.96149(10) 0.89051(7) 0.37815(13)
C14_18 C 0.89856(10) 0.80540(7) 0.96023(13)
H10_18 H 0.8898 0.8168 0.9380
C18_18 C 0.90453(9) 0.76033(7) 0.97155(12)
H13_18 H 0.8995 0.7390 0.9585
C57_18 C 0.97806(10) 0.77006(7) 0.87090(14)
H44_18 H 0.9592 0.7694 0.8918
H45_18 H 0.9757 0.7704 0.8243
H46_18 H 0.9793 0.7506 0.8830
N12 N 0.58578(7) 0.01180(7) 0.26982(13)
O8 O 0.57620(5) 0.02793(5) 0.30232(11)
O9 O 0.61662(6) 0.02345(5) 0.26168(11)
O10 O 0.56558(5) 0.98560(5) 0.24266(10)
O10_2 O 0.01440(5) 0.57998(7) 0.24266(10)
N12_2 N 0.98820(7) 0.57398(10) 0.26982(13)
O8_2 O 0.97207(5) 0.54827(7) 0.30232(11)
O9_2 O 0.97655(5) 0.59317(8) 0.26168(11)
N12_3 N 0.42602(10) 0.41422(7) 0.26982(13)
O8_3 O 0.45173(7) 0.42380(5) 0.30232(11)
O9_3 O 0.40683(8) 0.38338(6) 0.26168(11)
O10_3 O 0.42002(7) 0.43442(5) 0.24266(10)
N12_4 N 0.25245(7) 0.34513(7) 0.60315(13)
O8_4 O 0.24287(5) 0.36126(5) 0.63565(11)
O9_4 O 0.28329(6) 0.35678(5) 0.59501(11)
O10_4 O 0.23225(5) 0.31893(5) 0.57599(10)
N12_5 N 0.65487(7) 0.90731(10) 0.60315(13)
O8_5 O 0.63874(5) 0.88160(7) 0.63565(11)
O9_5 O 0.64322(5) 0.92650(8) 0.59501(11)
O10_5 O 0.68107(5) 0.91331(7) 0.57599(10)
N12_6 N 0.09269(10) 0.74755(7) 0.60315(13)
O8_6 O 0.11840(7) 0.75713(5) 0.63565(11)
O9_6 O 0.07350(8) 0.71671(6) 0.59501(11)
O10_6 O 0.08669(7) 0.76775(5) 0.57599(10)
N12_7 N 0.91911(7) 0.67847(7) 0.93649(13)
O8_7 O 0.90953(5) 0.69460(5) 0.96899(11)
O9_7 O 0.94995(6) 0.69012(5) 0.92835(11)
O10_7 O 0.89891(5) 0.65227(5) 0.90933(10)
N12_8 N 0.32153(7) 0.24065(10) 0.93649(13)
O8_8 O 0.30540(5) 0.21494(7) 0.96899(11)
O9_8 O 0.30988(5) 0.25984(8) 0.92835(11)
O10_8 O 0.34773(5) 0.24665(7) 0.90933(10)
N12_9 N 0.75935(10) 0.08089(7) 0.93649(13)
O8_9 O 0.78506(7) 0.09047(5) 0.96899(11)
O9_9 O 0.74016(8) 0.05005(6) 0.92835(11)
O10_9 O 0.75335(7) 0.10109(5) 0.90933(10)
O10_10 O 0.43442(5) 0.01440(5) 0.75734(10)
N12_10 N 0.41422(7) 0.98820(7) 0.73018(13)
O8_10 O 0.42380(5) 0.97207(5) 0.69768(11)
O9_10 O 0.38338(6) 0.97655(5) 0.73832(11)
N12_11 N 0.01180(7) 0.42602(10) 0.73018(13)
O8_11 O 0.02793(5) 0.45173(7) 0.69768(11)
O9_11 O 0.02345(5) 0.40683(8) 0.73832(11)
O10_11 O 0.98560(5) 0.42002(7) 0.75734(10)
N12_12 N 0.57398(10) 0.58578(7) 0.73018(13)
O8_12 O 0.54827(7) 0.57620(5) 0.69768(11)
O9_12 O 0.59317(8) 0.61662(6) 0.73832(11)
O10_12 O 0.57998(7) 0.56558(5) 0.75734(10)
N12_13 N 0.74755(7) 0.65487(7) 0.39685(13)
O8_13 O 0.75713(5) 0.63874(5) 0.36435(11)
O9_13 O 0.71671(6) 0.64322(5) 0.40499(11)
O10_13 O 0.76775(5) 0.68107(5) 0.42401(10)
N12_14 N 0.34513(7) 0.09269(10) 0.39685(13)
O8_14 O 0.36126(5) 0.11840(7) 0.36435(11)
O9_14 O 0.35678(5) 0.07350(8) 0.40499(11)
O10_14 O 0.31893(5) 0.08669(7) 0.42401(10)
N12_15 N 0.90731(10) 0.25245(7) 0.39685(13)
O8_15 O 0.88160(7) 0.24287(5) 0.36435(11)
O9_15 O 0.92650(8) 0.28329(6) 0.40499(11)
O10_15 O 0.91331(7) 0.23225(5) 0.42401(10)
N12_16 N 0.08089(7) 0.32153(7) 0.06351(13)
O8_16 O 0.09047(5) 0.30540(5) 0.03101(11)
O9_16 O 0.05005(6) 0.30988(5) 0.07165(11)
O10_16 O 0.10109(5) 0.34773(5) 0.09067(10)
N12_17 N 0.67847(7) 0.75935(10) 0.06351(13)
O8_17 O 0.69460(5) 0.78506(7) 0.03101(11)
O9_17 O 0.69012(5) 0.74016(8) 0.07165(11)
O10_17 O 0.65227(5) 0.75335(7) 0.09067(10)
N12_18 N 0.24065(10) 0.91911(7) 0.06351(13)
O8_18 O 0.21494(7) 0.90953(5) 0.03101(11)
O9_18 O 0.25984(8) 0.94995(6) 0.07165(11)
O10_18 O 0.24665(7) 0.89891(5) 0.09067(10)
loop_
_geom_bond_atom_site_label_1
_geom_bond_atom_site_label_2
_geom_bond_site_symmetry_1
_geom_bond_site_symmetry_2
C1 C2 1_555 1_555
C2 H1 1_555 1_555
C3 C2 1_555 1_555
C4 C3 1_555 1_555
C5 C4 1_555 1_555
C6 C1 1_555 1_555
H2 C6 1_555 1_555
C7 C1 1_555 1_555
C8 C4 1_555 1_555
H3 C8 1_555 1_555
H4 C8 1_555 1_555
H5 C8 1_555 1_555
H7 C10 1_555 1_555
C11 C3 1_555 1_555
C12 C11 1_555 1_555
H8 C12 1_555 1_555
C13 C12 1_555 1_555
H9 C13 1_555 1_555
C14 H10 1_555 1_555
C15 C14 1_555 1_555
H11 C15 1_555 1_555
C16 C5 1_555 1_555
C17 C16 1_555 1_555
H12 C17 1_555 1_555
C18 C17 1_555 1_555
H13 C18 1_555 1_555
C25 C19 1_555 1_555
C37 C38 1_555 1_555
C38 H27 1_555 1_555
C42 C37 1_555 1_555
H28 C42 1_555 1_555
C43 C37 1_555 1_555
C54 C53 1_555 1_555
H39 C54 1_555 1_555
C55 H40 1_555 1_555
C56 H41 1_555 1_555
H42 C56 1_555 1_555
H43 C56 1_555 1_555
C57 H44 1_555 1_555
H45 C57 1_555 1_555
H46 C57 1_555 1_555
Co1 O1 1_555 1_555
Co2 O2 1_555 1_555
N2 C14 1_555 1_555
N7 C55 1_555 1_555
O1 C7 1_555 1_555
O2 C7 1_555 1_555
O3 C25 1_555 1_555
O4 C25 1_555 1_555
O5 C43 1_555 1_555
O6 C43 1_555 1_555
O7 C55 1_555 1_555
Co4 N2 1_555 1_555
N8 Co1 1_555 1_555
N9 Co2 1_555 1_555
N10 Co1 1_555 1_555
N11 Co2 1_555 1_555
C5 C6 1_555 1_555
C10 C11 1_555 1_555
C15 C16 1_555 1_555
C18 N2 1_555 1_555
C41 C42 1_555 1_555
C56 N7 1_555 1_555
C57 N7 1_555 1_555
Co1 O2 1_555 1_555
Co1 O4 1_555 1_555
Co1 O5 1_555 1_555
Co2 O3 1_555 1_555
Co2 O6 1_555 1_555
Co2 O7 1_555 1_555
C9 H6 1_555 1_555
C50 H36 1_555 1_555
C51 C50 1_555 1_555
H37 C51 1_555 1_555
N1 C9 1_555 1_555
N6 C50 1_555 1_555
Co6 N6 1_555 1_555
C51 C52 1_555 1_555
C20 H14 1_555 1_555
C21 C20 1_555 1_555
C22 C21 1_555 1_555
C23 C22 1_555 1_555
C26 C22 1_555 1_555
H16 C26 1_555 1_555
H17 C26 1_555 1_555
H18 C26 1_555 1_555
C27 H19 1_555 1_555
C28 C27 1_555 1_555
H20 C28 1_555 1_555
C29 C21 1_555 1_555
C30 C29 1_555 1_555
H21 C30 1_555 1_555
C31 C30 1_555 1_555
H22 C31 1_555 1_555
C32 H23 1_555 1_555
C33 C32 1_555 1_555
H24 C33 1_555 1_555
C34 C23 1_555 1_555
C35 C34 1_555 1_555
H25 C35 1_555 1_555
C36 C35 1_555 1_555
H26 C36 1_555 1_555
N3 C27 1_555 1_555
N4 C32 1_555 1_555
Co5 N3 1_555 1_555
C23 C24 1_555 1_555
C28 C29 1_555 1_555
C31 N3 1_555 1_555
C33 C34 1_555 1_555
C36 N4 1_555 1_555
C40 C39 1_555 1_555
C44 C40 1_555 1_555
H29 C44 1_555 1_555
H30 C44 1_555 1_555
H31 C44 1_555 1_555
C45 H32 1_555 1_555
C46 C45 1_555 1_555
H33 C46 1_555 1_555
C47 C39 1_555 1_555
C48 C47 1_555 1_555
C49 C48 1_555 1_555
H35 C49 1_555 1_555
N5 C45 1_555 1_555
Co3 N5 1_555 1_555
C46 C47 1_555 1_555
C49 N5 1_555 1_555
C20_2 H14_2 1_555 1_555
C21_2 C20_2 1_555 1_555
C22_2 C21_2 1_555 1_555
C23_2 C22_2 1_555 1_555
C26_2 C22_2 1_555 1_555
H16_2 C26_2 1_555 1_555
H17_2 C26_2 1_555 1_555
H18_2 C26_2 1_555 1_555
C27_2 H19_2 1_555 1_555
C28_2 C27_2 1_555 1_555
H20_2 C28_2 1_555 1_555
C29_2 C21_2 1_555 1_555
C30_2 C29_2 1_555 1_555
H21_2 C30_2 1_555 1_555
C31_2 C30_2 1_555 1_555
H22_2 C31_2 1_555 1_555
C32_2 H23_2 1_555 1_555
C33_2 C32_2 1_555 1_555
H24_2 C33_2 1_555 1_555
C34_2 C23_2 1_555 1_555
C35_2 C34_2 1_555 1_555
H25_2 C35_2 1_555 1_555
C36_2 C35_2 1_555 1_555
H26_2 C36_2 1_555 1_555
N3_2 C27_2 1_555 1_555
N4_2 C32_2 1_555 1_555
Co5_2 N3_2 1_555 1_555
C23_2 C24_2 1_555 1_555
C28_2 C29_2 1_555 1_555
C31_2 N3_2 1_555 1_555
C33_2 C34_2 1_555 1_555
C36_2 N4_2 1_555 1_555
C40_2 C39_2 1_555 1_555
C44_2 C40_2 1_555 1_555
H29_2 C44_2 1_555 1_555
H30_2 C44_2 1_555 1_555
H31_2 C44_2 1_555 1_555
C45_2 H32_2 1_555 1_555
C46_2 C45_2 1_555 1_555
H33_2 C46_2 1_555 1_555
C47_2 C39_2 1_555 1_555
C48_2 C47_2 1_555 1_555
C49_2 C48_2 1_555 1_555
H35_2 C49_2 1_555 1_555
N5_2 C45_2 1_555 1_555
Co3_2 N5_2 1_555 1_555
C46_2 C47_2 1_555 1_555
C49_2 N5_2 1_555 1_555
C1_2 C2_2 1_555 1_555
C2_2 H1_2 1_555 1_555
C3_2 C2_2 1_555 1_555
C4_2 C3_2 1_555 1_555
C5_2 C4_2 1_555 1_555
C6_2 C1_2 1_555 1_555
H2_2 C6_2 1_555 1_555
C7_2 C1_2 1_555 1_555
C8_2 C4_2 1_555 1_555
H3_2 C8_2 1_555 1_555
H4_2 C8_2 1_555 1_555
H5_2 C8_2 1_555 1_555
H7_2 C10_2 1_555 1_555
C11_2 C3_2 1_555 1_555
C12_2 C11_2 1_555 1_555
H8_2 C12_2 1_555 1_555
C13_2 C12_2 1_555 1_555
H9_2 C13_2 1_555 1_555
C14_2 H10_2 1_555 1_555
C15_2 C14_2 1_555 1_555
H11_2 C15_2 1_555 1_555
C16_2 C5_2 1_555 1_555
C17_2 C16_2 1_555 1_555
H12_2 C17_2 1_555 1_555
C18_2 C17_2 1_555 1_555
H13_2 C18_2 1_555 1_555
C25_2 C19_2 1_555 1_555
C37_2 C38_2 1_555 1_555
C38_2 H27_2 1_555 1_555
C42_2 C37_2 1_555 1_555
H28_2 C42_2 1_555 1_555
C43_2 C37_2 1_555 1_555
C54_2 C53_2 1_555 1_555
H39_2 C54_2 1_555 1_555
C55_2 H40_2 1_555 1_555
C56_2 H41_2 1_555 1_555
H42_2 C56_2 1_555 1_555
H43_2 C56_2 1_555 1_555
C57_2 H44_2 1_555 1_555
H45_2 C57_2 1_555 1_555
H46_2 C57_2 1_555 1_555
Co1_2 O1_2 1_555 1_555
Co2_2 O2_2 1_555 1_555
N2_2 C14_2 1_555 1_555
N7_2 C55_2 1_555 1_555
O1_2 C7_2 1_555 1_555
O2_2 C7_2 1_555 1_555
O3_2 C25_2 1_555 1_555
O4_2 C25_2 1_555 1_555
O5_2 C43_2 1_555 1_555
O6_2 C43_2 1_555 1_555
O7_2 C55_2 1_555 1_555
Co4_2 N2_2 1_555 1_555
N8_2 Co1_2 1_555 1_555
N9_2 Co2_2 1_555 1_555
N10_2 Co1_2 1_555 1_555
N11_2 Co2_2 1_555 1_555
C5_2 C6_2 1_555 1_555
C10_2 C11_2 1_555 1_555
C15_2 C16_2 1_555 1_555
C18_2 N2_2 1_555 1_555
C41_2 C42_2 1_555 1_555
C56_2 N7_2 1_555 1_555
C57_2 N7_2 1_555 1_555
Co1_2 O2_2 1_555 1_555
Co1_2 O4_2 1_555 1_555
Co1_2 O5_2 1_555 1_555
Co2_2 O3_2 1_555 1_555
Co2_2 O6_2 1_555 1_555
Co2_2 O7_2 1_555 1_555
C9_2 H6_2 1_555 1_555
C50_2 H36_2 1_555 1_555
C51_2 C50_2 1_555 1_555
H37_2 C51_2 1_555 1_555
N1_2 C9_2 1_555 1_555
N6_2 C50_2 1_555 1_555
Co6_2 N6_2 1_555 1_555
C51_2 C52_2 1_555 1_555
C1_3 C2_3 1_555 1_555
C2_3 H1_3 1_555 1_555
C3_3 C2_3 1_555 1_555
C4_3 C3_3 1_555 1_555
C5_3 C4_3 1_555 1_555
C6_3 C1_3 1_555 1_555
H2_3 C6_3 1_555 1_555
C7_3 C1_3 1_555 1_555
C8_3 C4_3 1_555 1_555
H3_3 C8_3 1_555 1_555
H4_3 C8_3 1_555 1_555
H5_3 C8_3 1_555 1_555
H7_3 C10_3 1_555 1_555
C11_3 C3_3 1_555 1_555
C12_3 C11_3 1_555 1_555
H8_3 C12_3 1_555 1_555
C13_3 C12_3 1_555 1_555
H9_3 C13_3 1_555 1_555
C14_3 H10_3 1_555 1_555
C15_3 C14_3 1_555 1_555
H11_3 C15_3 1_555 1_555
C16_3 C5_3 1_555 1_555
C17_3 C16_3 1_555 1_555
H12_3 C17_3 1_555 1_555
C18_3 C17_3 1_555 1_555
H13_3 C18_3 1_555 1_555
C19_3 C20_3 1_555 1_555
C20_3 H14_3 1_555 1_555
C21_3 C20_3 1_555 1_555
C22_3 C21_3 1_555 1_555
C23_3 C22_3 1_555 1_555
C24_3 C19_3 1_555 1_555
H15_3 C24_3 1_555 1_555
C25_3 C19_3 1_555 1_555
C26_3 C22_3 1_555 1_555
H16_3 C26_3 1_555 1_555
H17_3 C26_3 1_555 1_555
H18_3 C26_3 1_555 1_555
C27_3 H19_3 1_555 1_555
C28_3 C27_3 1_555 1_555
H20_3 C28_3 1_555 1_555
C29_3 C21_3 1_555 1_555
C30_3 C29_3 1_555 1_555
H21_3 C30_3 1_555 1_555
C31_3 C30_3 1_555 1_555
H22_3 C31_3 1_555 1_555
C32_3 H23_3 1_555 1_555
C33_3 C32_3 1_555 1_555
H24_3 C33_3 1_555 1_555
C34_3 C23_3 1_555 1_555
C35_3 C34_3 1_555 1_555
H25_3 C35_3 1_555 1_555
C36_3 C35_3 1_555 1_555
H26_3 C36_3 1_555 1_555
C37_3 C38_3 1_555 1_555
C38_3 H27_3 1_555 1_555
C42_3 C37_3 1_555 1_555
H28_3 C42_3 1_555 1_555
C43_3 C37_3 1_555 1_555
H38_3 C53_3 1_555 1_555
C54_3 C53_3 1_555 1_555
H39_3 C54_3 1_555 1_555
C55_3 H40_3 1_555 1_555
C56_3 H41_3 1_555 1_555
H42_3 C56_3 1_555 1_555
H43_3 C56_3 1_555 1_555
C57_3 H44_3 1_555 1_555
H45_3 C57_3 1_555 1_555
H46_3 C57_3 1_555 1_555
Co1_3 O1_3 1_555 1_555
Co2_3 O2_3 1_555 1_555
N2_3 C14_3 1_555 1_555
N3_3 C27_3 1_555 1_555
N4_3 C32_3 1_555 1_555
N7_3 C55_3 1_555 1_555
O1_3 C7_3 1_555 1_555
O2_3 C7_3 1_555 1_555
O3_3 C25_3 1_555 1_555
O4_3 C25_3 1_555 1_555
O5_3 C43_3 1_555 1_555
O6_3 C43_3 1_555 1_555
O7_3 C55_3 1_555 1_555
Co4_3 N2_3 1_555 1_555
Co5_3 N3_3 1_555 1_555
N8_3 Co1_3 1_555 1_555
N9_3 Co2_3 1_555 1_555
N10_3 Co1_3 1_555 1_555
N11_3 Co2_3 1_555 1_555
C5_3 C6_3 1_555 1_555
C10_3 C11_3 1_555 1_555
C15_3 C16_3 1_555 1_555
C18_3 N2_3 1_555 1_555
C23_3 C24_3 1_555 1_555
C28_3 C29_3 1_555 1_555
C31_3 N3_3 1_555 1_555
C33_3 C34_3 1_555 1_555
C36_3 N4_3 1_555 1_555
C41_3 C42_3 1_555 1_555
C56_3 N7_3 1_555 1_555
C57_3 N7_3 1_555 1_555
Co1_3 O2_3 1_555 1_555
Co1_3 O4_3 1_555 1_555
Co1_3 O5_3 1_555 1_555
Co2_3 O3_3 1_555 1_555
Co2_3 O6_3 1_555 1_555
Co2_3 O7_3 1_555 1_555
C9_3 H6_3 1_555 1_555
C40_3 C39_3 1_555 1_555
C44_3 C40_3 1_555 1_555
H29_3 C44_3 1_555 1_555
H30_3 C44_3 1_555 1_555
H31_3 C44_3 1_555 1_555
C45_3 H32_3 1_555 1_555
C46_3 C45_3 1_555 1_555
H33_3 C46_3 1_555 1_555
C47_3 C39_3 1_555 1_555
C48_3 C47_3 1_555 1_555
H34_3 C48_3 1_555 1_555
C49_3 C48_3 1_555 1_555
H35_3 C49_3 1_555 1_555
C50_3 H36_3 1_555 1_555
C51_3 C50_3 1_555 1_555
H37_3 C51_3 1_555 1_555
N1_3 C9_3 1_555 1_555
N5_3 C45_3 1_555 1_555
N6_3 C50_3 1_555 1_555
Co3_3 N5_3 1_555 1_555
Co6_3 N6_3 1_555 1_555
C46_3 C47_3 1_555 1_555
C49_3 N5_3 1_555 1_555
C51_3 C52_3 1_555 1_555
C1_4 C2_4 1_555 1_555
C2_4 H1_4 1_555 1_555
C3_4 C2_4 1_555 1_555
C4_4 C3_4 1_555 1_555
C5_4 C4_4 1_555 1_555
C6_4 C1_4 1_555 1_555
H2_4 C6_4 1_555 1_555
C7_4 C1_4 1_555 1_555
C8_4 C4_4 1_555 1_555
H3_4 C8_4 1_555 1_555
H4_4 C8_4 1_555 1_555
H5_4 C8_4 1_555 1_555
C9_4 H6_4 1_555 1_555
C10_4 C9_4 1_555 1_555
H7_4 C10_4 1_555 1_555
C11_4 C3_4 1_555 1_555
C12_4 C11_4 1_555 1_555
H8_4 C12_4 1_555 1_555
C13_4 C12_4 1_555 1_555
H9_4 C13_4 1_555 1_555
C14_4 H10_4 1_555 1_555
C15_4 C14_4 1_555 1_555
H11_4 C15_4 1_555 1_555
C16_4 C5_4 1_555 1_555
C17_4 C16_4 1_555 1_555
H12_4 C17_4 1_555 1_555
C18_4 C17_4 1_555 1_555
H13_4 C18_4 1_555 1_555
C19_4 C20_4 1_555 1_555
C20_4 H14_4 1_555 1_555
C21_4 C20_4 1_555 1_555
C22_4 C21_4 1_555 1_555
C23_4 C22_4 1_555 1_555
C24_4 C19_4 1_555 1_555
H15_4 C24_4 1_555 1_555
C25_4 C19_4 1_555 1_555
C26_4 C22_4 1_555 1_555
H16_4 C26_4 1_555 1_555
H17_4 C26_4 1_555 1_555
H18_4 C26_4 1_555 1_555
C27_4 H19_4 1_555 1_555
C28_4 C27_4 1_555 1_555
H20_4 C28_4 1_555 1_555
C29_4 C21_4 1_555 1_555
C30_4 C29_4 1_555 1_555
H21_4 C30_4 1_555 1_555
C31_4 C30_4 1_555 1_555
C32_4 H23_4 1_555 1_555
C33_4 C32_4 1_555 1_555
H24_4 C33_4 1_555 1_555
C34_4 C23_4 1_555 1_555
C35_4 C34_4 1_555 1_555
H25_4 C35_4 1_555 1_555
C36_4 C35_4 1_555 1_555
H26_4 C36_4 1_555 1_555
C37_4 C38_4 1_555 1_555
C38_4 H27_4 1_555 1_555
C39_4 C38_4 1_555 1_555
C40_4 C39_4 1_555 1_555
C41_4 C40_4 1_555 1_555
C42_4 C37_4 1_555 1_555
H28_4 C42_4 1_555 1_555
C43_4 C37_4 1_555 1_555
C44_4 C40_4 1_555 1_555
H29_4 C44_4 1_555 1_555
H30_4 C44_4 1_555 1_555
H31_4 C44_4 1_555 1_555
C45_4 H32_4 1_555 1_555
C46_4 C45_4 1_555 1_555
H33_4 C46_4 1_555 1_555
C47_4 C39_4 1_555 1_555
C48_4 C47_4 1_555 1_555
H34_4 C48_4 1_555 1_555
C49_4 C48_4 1_555 1_555
H35_4 C49_4 1_555 1_555
H37_4 C51_4 1_555 1_555
C52_4 C41_4 1_555 1_555
C55_4 H40_4 1_555 1_555
C56_4 H41_4 1_555 1_555
H42_4 C56_4 1_555 1_555
H43_4 C56_4 1_555 1_555
C57_4 H44_4 1_555 1_555
H45_4 C57_4 1_555 1_555
H46_4 C57_4 1_555 1_555
Co1_4 O1_4 1_555 1_555
Co5_2 O2_4 1_555 1_555
N1_4 C9_4 1_555 1_555
N2_4 C14_4 1_555 1_555
N3_4 C27_4 1_555 1_555
N4_4 C32_4 1_555 1_555
N5_4 C45_4 1_555 1_555
N7_4 C55_4 1_555 1_555
O1_4 C7_4 1_555 1_555
O2_4 C7_4 1_555 1_555
O3_4 C25_4 1_555 1_555
O4_4 C25_4 1_555 1_555
O5_4 C43_4 1_555 1_555
O6_4 C43_4 1_555 1_555
O7_4 C55_4 1_555 1_555
Co3_4 N5_4 1_555 1_555
Co3_2 N2_4 1_555 1_555
N8_4 Co1_4 1_555 1_555
N10_4 Co1_4 1_555 1_555
N11_4 Co5_2 1_555 1_555
C5_4 C6_4 1_555 1_555
C10_4 C11_4 1_555 1_555
C13_4 N1_4 1_555 1_555
C15_4 C16_4 1_555 1_555
C18_4 N2_4 1_555 1_555
C23_4 C24_4 1_555 1_555
C28_4 C29_4 1_555 1_555
C31_4 N3_4 1_555 1_555
C33_4 C34_4 1_555 1_555
C36_4 N4_4 1_555 1_555
C41_4 C42_4 1_555 1_555
C46_4 C47_4 1_555 1_555
C49_4 N5_4 1_555 1_555
C51_4 C52_4 1_555 1_555
C56_4 N7_4 1_555 1_555
C57_4 N7_4 1_555 1_555
Co1_4 O2_4 1_555 1_555
Co1_4 O4_4 1_555 1_555
Co1_4 O5_4 1_555 1_555
Co5_2 O3_4 1_555 1_555
Co5_2 O6_4 1_555 1_555
Co5_2 O7_4 1_555 1_555
C50_4 H36_4 1_555 1_555
H38_4 C53_4 1_555 1_555
C54_4 C53_4 1_555 1_555
H39_4 C54_4 1_555 1_555
N11_2 C50_4 1_555 1_555
C54_4 N11_2 1_555 1_555
C1_5 C2_5 1_555 1_555
C2_5 H1_5 1_555 1_555
C3_5 C2_5 1_555 1_555
C4_5 C3_5 1_555 1_555
C5_5 C4_5 1_555 1_555
C6_5 C1_5 1_555 1_555
H2_5 C6_5 1_555 1_555
C7_5 C1_5 1_555 1_555
C8_5 C4_5 1_555 1_555
H3_5 C8_5 1_555 1_555
H4_5 C8_5 1_555 1_555
H5_5 C8_5 1_555 1_555
C9_5 H6_5 1_555 1_555
C10_5 C9_5 1_555 1_555
H7_5 C10_5 1_555 1_555
C11_5 C3_5 1_555 1_555
C12_5 C11_5 1_555 1_555
H8_5 C12_5 1_555 1_555
C13_5 C12_5 1_555 1_555
H9_5 C13_5 1_555 1_555
C14_5 H10_5 1_555 1_555
C15_5 C14_5 1_555 1_555
H11_5 C15_5 1_555 1_555
C16_5 C5_5 1_555 1_555
C17_5 C16_5 1_555 1_555
H12_5 C17_5 1_555 1_555
C18_5 C17_5 1_555 1_555
H13_5 C18_5 1_555 1_555
C19_5 C20_5 1_555 1_555
C20_5 H14_5 1_555 1_555
C21_5 C20_5 1_555 1_555
C22_5 C21_5 1_555 1_555
C23_5 C22_5 1_555 1_555
C24_5 C19_5 1_555 1_555
H15_5 C24_5 1_555 1_555
C25_5 C19_5 1_555 1_555
C26_5 C22_5 1_555 1_555
H16_5 C26_5 1_555 1_555
H17_5 C26_5 1_555 1_555
H18_5 C26_5 1_555 1_555
C27_5 H19_5 1_555 1_555
C28_5 C27_5 1_555 1_555
H20_5 C28_5 1_555 1_555
C29_5 C21_5 1_555 1_555
C30_5 C29_5 1_555 1_555
H21_5 C30_5 1_555 1_555
C31_5 C30_5 1_555 1_555
H22_5 C31_5 1_555 1_555
C32_5 H23_5 1_555 1_555
C33_5 C32_5 1_555 1_555
H24_5 C33_5 1_555 1_555
C34_5 C23_5 1_555 1_555
C35_5 C34_5 1_555 1_555
H25_5 C35_5 1_555 1_555
C36_5 C35_5 1_555 1_555
H26_5 C36_5 1_555 1_555
C37_5 C38_5 1_555 1_555
C38_5 H27_5 1_555 1_555
C39_5 C38_5 1_555 1_555
C40_5 C39_5 1_555 1_555
C41_5 C40_5 1_555 1_555
C42_5 C37_5 1_555 1_555
H28_5 C42_5 1_555 1_555
C43_5 C37_5 1_555 1_555
C44_5 C40_5 1_555 1_555
H29_5 C44_5 1_555 1_555
H30_5 C44_5 1_555 1_555
H31_5 C44_5 1_555 1_555
C45_5 H32_5 1_555 1_555
C46_5 C45_5 1_555 1_555
H33_5 C46_5 1_555 1_555
C47_5 C39_5 1_555 1_555
C48_5 C47_5 1_555 1_555
H34_5 C48_5 1_555 1_555
C49_5 C48_5 1_555 1_555
H35_5 C49_5 1_555 1_555
C50_5 H36_5 1_555 1_555
C51_5 C50_5 1_555 1_555
H37_5 C51_5 1_555 1_555
C52_5 C41_5 1_555 1_555
C53_5 C52_5 1_555 1_555
H38_5 C53_5 1_555 1_555
C54_5 C53_5 1_555 1_555
H39_5 C54_5 1_555 1_555
C55_5 H40_5 1_555 1_555
C56_5 H41_5 1_555 1_555
H42_5 C56_5 1_555 1_555
H43_5 C56_5 1_555 1_555
C57_5 H44_5 1_555 1_555
H45_5 C57_5 1_555 1_555
H46_5 C57_5 1_555 1_555
Co1_5 O1_5 1_555 1_555
Co5_3 O2_5 1_555 1_555
N1_5 C9_5 1_555 1_555
N2_5 C14_5 1_555 1_555
N3_5 C27_5 1_555 1_555
N4_5 C32_5 1_555 1_555
N5_5 C45_5 1_555 1_555
N11_3 C50_5 1_555 1_555
N7_5 C55_5 1_555 1_555
O1_5 C7_5 1_555 1_555
O2_5 C7_5 1_555 1_555
O3_5 C25_5 1_555 1_555
O4_5 C25_5 1_555 1_555
O5_5 C43_5 1_555 1_555
O6_5 C43_5 1_555 1_555
O7_5 C55_5 1_555 1_555
Co3_5 N5_5 1_555 1_555
Co3_3 N2_5 1_555 1_555
Co6_3 N3_5 1_555 1_555
N8_5 Co1_5 1_555 1_555
N10_5 Co1_5 1_555 1_555
N11_5 Co5_3 1_555 1_555
C5_5 C6_5 1_555 1_555
C10_5 C11_5 1_555 1_555
C13_5 N1_5 1_555 1_555
C15_5 C16_5 1_555 1_555
C18_5 N2_5 1_555 1_555
C23_5 C24_5 1_555 1_555
C28_5 C29_5 1_555 1_555
C31_5 N3_5 1_555 1_555
C33_5 C34_5 1_555 1_555
C36_5 N4_5 1_555 1_555
C41_5 C42_5 1_555 1_555
C46_5 C47_5 1_555 1_555
C49_5 N5_5 1_555 1_555
C51_5 C52_5 1_555 1_555
C54_5 N11_3 1_555 1_555
C56_5 N7_5 1_555 1_555
C57_5 N7_5 1_555 1_555
Co1_5 O2_5 1_555 1_555
Co1_5 O4_5 1_555 1_555
Co1_5 O5_5 1_555 1_555
Co5_3 O3_5 1_555 1_555
Co5_3 O6_5 1_555 1_555
Co5_3 O7_5 1_555 1_555
C50_6 H36_6 1_555 1_555
H38_6 C53_6 1_555 1_555
C54_6 C53_6 1_555 1_555
H39_6 C54_6 1_555 1_555
N11 C50_6 1_555 1_555
C54_6 N11 1_555 1_555
C1_6 C2_6 1_555 1_555
C2_6 H1_6 1_555 1_555
C3_6 C2_6 1_555 1_555
C4_6 C3_6 1_555 1_555
C5_6 C4_6 1_555 1_555
C6_6 C1_6 1_555 1_555
H2_6 C6_6 1_555 1_555
C7_6 C1_6 1_555 1_555
C8_6 C4_6 1_555 1_555
H3_6 C8_6 1_555 1_555
H4_6 C8_6 1_555 1_555
H5_6 C8_6 1_555 1_555
C9_6 H6_6 1_555 1_555
C10_6 C9_6 1_555 1_555
H7_6 C10_6 1_555 1_555
C11_6 C3_6 1_555 1_555
C12_6 C11_6 1_555 1_555
H8_6 C12_6 1_555 1_555
C13_6 C12_6 1_555 1_555
H9_6 C13_6 1_555 1_555
C14_6 H10_6 1_555 1_555
C15_6 C14_6 1_555 1_555
H11_6 C15_6 1_555 1_555
C16_6 C5_6 1_555 1_555
C17_6 C16_6 1_555 1_555
H12_6 C17_6 1_555 1_555
C18_6 C17_6 1_555 1_555
H13_6 C18_6 1_555 1_555
C19_6 C20_6 1_555 1_555
C20_6 H14_6 1_555 1_555
C21_6 C20_6 1_555 1_555
C22_6 C21_6 1_555 1_555
C23_6 C22_6 1_555 1_555
C24_6 C19_6 1_555 1_555
H15_6 C24_6 1_555 1_555
C25_6 C19_6 1_555 1_555
C26_6 C22_6 1_555 1_555
H16_6 C26_6 1_555 1_555
H17_6 C26_6 1_555 1_555
H18_6 C26_6 1_555 1_555
C27_6 H19_6 1_555 1_555
C28_6 C27_6 1_555 1_555
H20_6 C28_6 1_555 1_555
C29_6 C21_6 1_555 1_555
C30_6 C29_6 1_555 1_555
H21_6 C30_6 1_555 1_555
C31_6 C30_6 1_555 1_555
C32_6 H23_6 1_555 1_555
C33_6 C32_6 1_555 1_555
H24_6 C33_6 1_555 1_555
C34_6 C23_6 1_555 1_555
C35_6 C34_6 1_555 1_555
H25_6 C35_6 1_555 1_555
C36_6 C35_6 1_555 1_555
H26_6 C36_6 1_555 1_555
C37_6 C38_6 1_555 1_555
C38_6 H27_6 1_555 1_555
C39_6 C38_6 1_555 1_555
C40_6 C39_6 1_555 1_555
C41_6 C40_6 1_555 1_555
C42_6 C37_6 1_555 1_555
H28_6 C42_6 1_555 1_555
C43_6 C37_6 1_555 1_555
C44_6 C40_6 1_555 1_555
H29_6 C44_6 1_555 1_555
H30_6 C44_6 1_555 1_555
H31_6 C44_6 1_555 1_555
C45_6 H32_6 1_555 1_555
C46_6 C45_6 1_555 1_555
H33_6 C46_6 1_555 1_555
C47_6 C39_6 1_555 1_555
C48_6 C47_6 1_555 1_555
H34_6 C48_6 1_555 1_555
C49_6 C48_6 1_555 1_555
H35_6 C49_6 1_555 1_555
H37_6 C51_6 1_555 1_555
C52_6 C41_6 1_555 1_555
C55_6 H40_6 1_555 1_555
C56_6 H41_6 1_555 1_555
H42_6 C56_6 1_555 1_555
H43_6 C56_6 1_555 1_555
C57_6 H44_6 1_555 1_555
H45_6 C57_6 1_555 1_555
H46_6 C57_6 1_555 1_555
Co1_6 O1_6 1_555 1_555
Co5 O2_6 1_555 1_555
N1_6 C9_6 1_555 1_555
N2_6 C14_6 1_555 1_555
N3_6 C27_6 1_555 1_555
N4_6 C32_6 1_555 1_555
N5_6 C45_6 1_555 1_555
N7_6 C55_6 1_555 1_555
O1_6 C7_6 1_555 1_555
O2_6 C7_6 1_555 1_555
O3_6 C25_6 1_555 1_555
O4_6 C25_6 1_555 1_555
O5_6 C43_6 1_555 1_555
O6_6 C43_6 1_555 1_555
O7_6 C55_6 1_555 1_555
Co3_6 N5_6 1_555 1_555
Co3 N2_6 1_555 1_555
N8_6 Co1_6 1_555 1_555
N10_6 Co1_6 1_555 1_555
N11_6 Co5 1_555 1_555
C5_6 C6_6 1_555 1_555
C10_6 C11_6 1_555 1_555
C13_6 N1_6 1_555 1_555
C15_6 C16_6 1_555 1_555
C18_6 N2_6 1_555 1_555
C23_6 C24_6 1_555 1_555
C28_6 C29_6 1_555 1_555
C31_6 N3_6 1_555 1_555
C33_6 C34_6 1_555 1_555
C36_6 N4_6 1_555 1_555
C41_6 C42_6 1_555 1_555
C46_6 C47_6 1_555 1_555
C49_6 N5_6 1_555 1_555
C51_6 C52_6 1_555 1_555
C56_6 N7_6 1_555 1_555
C57_6 N7_6 1_555 1_555
Co1_6 O2_6 1_555 1_555
Co1_6 O4_6 1_555 1_555
Co1_6 O5_6 1_555 1_555
Co5 O3_6 1_555 1_555
Co5 O6_6 1_555 1_555
Co5 O7_6 1_555 1_555
C14_7 H10_7 1_555 1_555
H13_7 C18_7 1_555 1_555
C19_7 C20_7 1_555 1_555
C20_7 H14_7 1_555 1_555
C21_7 C20_7 1_555 1_555
C22_7 C21_7 1_555 1_555
C23_7 C22_7 1_555 1_555
C24_7 C19_7 1_555 1_555
H15_7 C24_7 1_555 1_555
C26_7 C22_7 1_555 1_555
H16_7 C26_7 1_555 1_555
H17_7 C26_7 1_555 1_555
H18_7 C26_7 1_555 1_555
C27_7 H19_7 1_555 1_555
C28_7 C27_7 1_555 1_555
H20_7 C28_7 1_555 1_555
C29_7 C21_7 1_555 1_555
C30_7 C29_7 1_555 1_555
H21_7 C30_7 1_555 1_555
C31_7 C30_7 1_555 1_555
H22_7 C31_7 1_555 1_555
C32_7 H23_7 1_555 1_555
C33_7 C32_7 1_555 1_555
H24_7 C33_7 1_555 1_555
C34_7 C23_7 1_555 1_555
C35_7 C34_7 1_555 1_555
C36_7 C35_7 1_555 1_555
H26_7 C36_7 1_555 1_555
C55_7 H40_7 1_555 1_555
C56_7 H41_7 1_555 1_555
H42_7 C56_7 1_555 1_555
H43_7 C56_7 1_555 1_555
C57_7 H44_7 1_555 1_555
H45_7 C57_7 1_555 1_555
H46_7 C57_7 1_555 1_555
N2_7 C14_7 1_555 1_555
N9_3 C27_7 1_555 1_555
N4_7 C32_7 1_555 1_555
N7_7 C55_7 1_555 1_555
O7_7 C55_7 1_555 1_555
Co3_5 N2_7 1_555 1_555
C18_7 N2_7 1_555 1_555
C23_7 C24_7 1_555 1_555
C28_7 C29_7 1_555 1_555
C31_7 N9_3 1_555 1_555
C33_7 C34_7 1_555 1_555
C36_7 N4_7 1_555 1_555
C56_7 N7_7 1_555 1_555
C57_7 N7_7 1_555 1_555
C1_7 C2_7 1_555 1_555
C2_7 H1_7 1_555 1_555
C3_7 C2_7 1_555 1_555
C4_7 C3_7 1_555 1_555
C5_7 C4_7 1_555 1_555
C6_7 C1_7 1_555 1_555
H2_7 C6_7 1_555 1_555
C7_7 C1_7 1_555 1_555
C8_7 C4_7 1_555 1_555
H3_7 C8_7 1_555 1_555
H4_7 C8_7 1_555 1_555
H5_7 C8_7 1_555 1_555
C9_7 H6_7 1_555 1_555
C10_7 C9_7 1_555 1_555
H7_7 C10_7 1_555 1_555
C11_7 C3_7 1_555 1_555
C12_7 C11_7 1_555 1_555
H8_7 C12_7 1_555 1_555
C13_7 C12_7 1_555 1_555
H9_7 C13_7 1_555 1_555
H11_7 C15_7 1_555 1_555
C16_7 C5_7 1_555 1_555
C17_7 C16_7 1_555 1_555
H12_7 C17_7 1_555 1_555
C37_7 C38_7 1_555 1_555
C38_7 H27_7 1_555 1_555
C39_7 C38_7 1_555 1_555
C40_7 C39_7 1_555 1_555
C41_7 C40_7 1_555 1_555
C42_7 C37_7 1_555 1_555
H28_7 C42_7 1_555 1_555
C43_7 C37_7 1_555 1_555
C44_7 C40_7 1_555 1_555
H29_7 C44_7 1_555 1_555
H30_7 C44_7 1_555 1_555
H31_7 C44_7 1_555 1_555
C45_7 H32_7 1_555 1_555
C46_7 C45_7 1_555 1_555
H33_7 C46_7 1_555 1_555
C47_7 C39_7 1_555 1_555
C48_7 C47_7 1_555 1_555
H34_7 C48_7 1_555 1_555
C49_7 C48_7 1_555 1_555
H35_7 C49_7 1_555 1_555
C50_7 H36_7 1_555 1_555
C51_7 C50_7 1_555 1_555
H37_7 C51_7 1_555 1_555
C52_7 C41_7 1_555 1_555
C53_7 C52_7 1_555 1_555
H38_7 C53_7 1_555 1_555
C54_7 C53_7 1_555 1_555
H39_7 C54_7 1_555 1_555
Co1_7 O1_7 1_555 1_555
Co6_3 O2_7 1_555 1_555
N1_7 C9_7 1_555 1_555
N5_7 C45_7 1_555 1_555
N11_5 C50_7 1_555 1_555
O1_7 C7_7 1_555 1_555
O2_7 C7_7 1_555 1_555
O3_7 C25_7 1_555 1_555
O4_7 C25_7 1_555 1_555
O5_7 C43_7 1_555 1_555
O6_7 C43_7 1_555 1_555
Co4_3 N5_7 1_555 1_555
N8_7 Co1_7 1_555 1_555
N10_7 Co1_7 1_555 1_555
C5_7 C6_7 1_555 1_555
C10_7 C11_7 1_555 1_555
C13_7 N1_7 1_555 1_555
C15_7 C16_7 1_555 1_555
C41_7 C42_7 1_555 1_555
C46_7 C47_7 1_555 1_555
C49_7 N5_7 1_555 1_555
C51_7 C52_7 1_555 1_555
C54_7 N11_5 1_555 1_555
Co1_7 O2_7 1_555 1_555
Co1_7 O4_7 1_555 1_555
Co1_7 O5_7 1_555 1_555
Co6_3 O3_7 1_555 1_555
Co6_3 O6_7 1_555 1_555
C19_8 C20_8 1_555 1_555
C20_8 H14_8 1_555 1_555
C21_8 C20_8 1_555 1_555
C22_8 C21_8 1_555 1_555
C23_8 C22_8 1_555 1_555
C24_8 C19_8 1_555 1_555
H15_8 C24_8 1_555 1_555
C26_8 C22_8 1_555 1_555
H16_8 C26_8 1_555 1_555
H17_8 C26_8 1_555 1_555
H18_8 C26_8 1_555 1_555
C27_8 H19_8 1_555 1_555
C28_8 C27_8 1_555 1_555
H20_8 C28_8 1_555 1_555
C29_8 C21_8 1_555 1_555
C30_8 C29_8 1_555 1_555
H21_8 C30_8 1_555 1_555
C31_8 C30_8 1_555 1_555
H22_8 C31_8 1_555 1_555
C32_8 H23_8 1_555 1_555
C33_8 C32_8 1_555 1_555
H24_8 C33_8 1_555 1_555
C34_8 C23_8 1_555 1_555
C35_8 C34_8 1_555 1_555
C36_8 C35_8 1_555 1_555
H26_8 C36_8 1_555 1_555
C55_8 H40_8 1_555 1_555
C56_8 H41_8 1_555 1_555
H42_8 C56_8 1_555 1_555
H43_8 C56_8 1_555 1_555
N9 C27_8 1_555 1_555
N4_8 C32_8 1_555 1_555
N7_8 C55_8 1_555 1_555
O7_8 C55_8 1_555 1_555
C23_8 C24_8 1_555 1_555
C28_8 C29_8 1_555 1_555
C31_8 N9 1_555 1_555
C33_8 C34_8 1_555 1_555
C36_8 N4_8 1_555 1_555
C56_8 N7_8 1_555 1_555
C1_8 C2_8 1_555 1_555
C2_8 H1_8 1_555 1_555
C7_8 C1_8 1_555 1_555
C37_8 C38_8 1_555 1_555
C38_8 H27_8 1_555 1_555
C39_8 C38_8 1_555 1_555
C40_8 C39_8 1_555 1_555
C41_8 C40_8 1_555 1_555
C42_8 C37_8 1_555 1_555
H28_8 C42_8 1_555 1_555
C43_8 C37_8 1_555 1_555
C44_8 C40_8 1_555 1_555
H29_8 C44_8 1_555 1_555
H30_8 C44_8 1_555 1_555
H31_8 C44_8 1_555 1_555
C45_8 H32_8 1_555 1_555
C46_8 C45_8 1_555 1_555
H33_8 C46_8 1_555 1_555
C47_8 C39_8 1_555 1_555
C48_8 C47_8 1_555 1_555
H34_8 C48_8 1_555 1_555
C49_8 C48_8 1_555 1_555
H35_8 C49_8 1_555 1_555
C52_8 C41_8 1_555 1_555
Co1_8 O1_8 1_555 1_555
Co6 O2_8 1_555 1_555
N5_8 C45_8 1_555 1_555
O1_8 C7_8 1_555 1_555
O2_8 C7_8 1_555 1_555
O3_8 C25_8 1_555 1_555
O4_8 C25_8 1_555 1_555
O5_8 C43_8 1_555 1_555
O6_8 C43_8 1_555 1_555
Co4 N5_8 1_555 1_555
N8_8 Co1_8 1_555 1_555
N10_8 Co1_8 1_555 1_555
C41_8 C42_8 1_555 1_555
C46_8 C47_8 1_555 1_555
C49_8 N5_8 1_555 1_555
Co1_8 O2_8 1_555 1_555
Co1_8 O4_8 1_555 1_555
Co1_8 O5_8 1_555 1_555
Co6 O3_8 1_555 1_555
Co6 O6_8 1_555 1_555
C14_8 H10_8 1_555 1_555
H13_8 C18_8 1_555 1_555
C57_8 H44_8 1_555 1_555
H45_8 C57_8 1_555 1_555
H46_8 C57_8 1_555 1_555
N2_8 C14_8 1_555 1_555
Co3_6 N2_8 1_555 1_555
C18_8 N2_8 1_555 1_555
C4_8 C3_8 1_555 1_555
C5_8 C4_8 1_555 1_555
H2_8 C6_8 1_555 1_555
C8_8 C4_8 1_555 1_555
H3_8 C8_8 1_555 1_555
H4_8 C8_8 1_555 1_555
H5_8 C8_8 1_555 1_555
C9_8 H6_8 1_555 1_555
C10_8 C9_8 1_555 1_555
H7_8 C10_8 1_555 1_555
C11_8 C3_8 1_555 1_555
C12_8 C11_8 1_555 1_555
H8_8 C12_8 1_555 1_555
C13_8 C12_8 1_555 1_555
H9_8 C13_8 1_555 1_555
H11_8 C15_8 1_555 1_555
C16_8 C5_8 1_555 1_555
C17_8 C16_8 1_555 1_555
H12_8 C17_8 1_555 1_555
C50_8 H36_8 1_555 1_555
C51_8 C50_8 1_555 1_555
H38_8 C53_8 1_555 1_555
C54_8 C53_8 1_555 1_555
H39_8 C54_8 1_555 1_555
N1_8 C9_8 1_555 1_555
N11_6 C50_8 1_555 1_555
C5_8 C6_8 1_555 1_555
C10_8 C11_8 1_555 1_555
C13_8 N1_8 1_555 1_555
C15_8 C16_8 1_555 1_555
C54_8 N11_6 1_555 1_555
C14_9 H10_9 1_555 1_555
H13_9 C18_9 1_555 1_555
C57_9 H44_9 1_555 1_555
H45_9 C57_9 1_555 1_555
H46_9 C57_9 1_555 1_555
N2_9 C14_9 1_555 1_555
Co3_4 N2_9 1_555 1_555
C18_9 N2_9 1_555 1_555
C4_9 C3_9 1_555 1_555
C5_9 C4_9 1_555 1_555
H2_9 C6_9 1_555 1_555
C8_9 C4_9 1_555 1_555
H3_9 C8_9 1_555 1_555
H4_9 C8_9 1_555 1_555
H5_9 C8_9 1_555 1_555
C9_9 H6_9 1_555 1_555
C10_9 C9_9 1_555 1_555
H7_9 C10_9 1_555 1_555
C11_9 C3_9 1_555 1_555
C12_9 C11_9 1_555 1_555
H8_9 C12_9 1_555 1_555
C13_9 C12_9 1_555 1_555
H9_9 C13_9 1_555 1_555
H11_9 C15_9 1_555 1_555
C16_9 C5_9 1_555 1_555
C17_9 C16_9 1_555 1_555
H12_9 C17_9 1_555 1_555
C50_9 H36_9 1_555 1_555
C51_9 C50_9 1_555 1_555
H38_9 C53_9 1_555 1_555
C54_9 C53_9 1_555 1_555
H39_9 C54_9 1_555 1_555
N1_9 C9_9 1_555 1_555
N11_4 C50_9 1_555 1_555
C5_9 C6_9 1_555 1_555
C10_9 C11_9 1_555 1_555
C13_9 N1_9 1_555 1_555
C15_9 C16_9 1_555 1_555
C54_9 N11_4 1_555 1_555
C19_9 C20_9 1_555 1_555
C20_9 H14_9 1_555 1_555
C21_9 C20_9 1_555 1_555
C22_9 C21_9 1_555 1_555
C23_9 C22_9 1_555 1_555
C24_9 C19_9 1_555 1_555
H15_9 C24_9 1_555 1_555
C26_9 C22_9 1_555 1_555
H16_9 C26_9 1_555 1_555
H17_9 C26_9 1_555 1_555
H18_9 C26_9 1_555 1_555
C27_9 H19_9 1_555 1_555
C28_9 C27_9 1_555 1_555
H20_9 C28_9 1_555 1_555
C29_9 C21_9 1_555 1_555
C30_9 C29_9 1_555 1_555
H21_9 C30_9 1_555 1_555
C31_9 C30_9 1_555 1_555
H22_9 C31_9 1_555 1_555
C32_9 H23_9 1_555 1_555
C33_9 C32_9 1_555 1_555
H24_9 C33_9 1_555 1_555
C34_9 C23_9 1_555 1_555
C35_9 C34_9 1_555 1_555
C36_9 C35_9 1_555 1_555
H26_9 C36_9 1_555 1_555
C55_9 H40_9 1_555 1_555
C56_9 H41_9 1_555 1_555
H42_9 C56_9 1_555 1_555
H43_9 C56_9 1_555 1_555
N9_2 C27_9 1_555 1_555
N4_9 C32_9 1_555 1_555
N7_9 C55_9 1_555 1_555
O7_9 C55_9 1_555 1_555
C23_9 C24_9 1_555 1_555
C28_9 C29_9 1_555 1_555
C31_9 N9_2 1_555 1_555
C33_9 C34_9 1_555 1_555
C36_9 N4_9 1_555 1_555
C56_9 N7_9 1_555 1_555
C1_9 C2_9 1_555 1_555
C2_9 H1_9 1_555 1_555
C7_9 C1_9 1_555 1_555
C37_9 C38_9 1_555 1_555
C38_9 H27_9 1_555 1_555
C39_9 C38_9 1_555 1_555
C40_9 C39_9 1_555 1_555
C41_9 C40_9 1_555 1_555
C42_9 C37_9 1_555 1_555
H28_9 C42_9 1_555 1_555
C43_9 C37_9 1_555 1_555
C44_9 C40_9 1_555 1_555
H29_9 C44_9 1_555 1_555
H30_9 C44_9 1_555 1_555
H31_9 C44_9 1_555 1_555
C45_9 H32_9 1_555 1_555
C46_9 C45_9 1_555 1_555
H33_9 C46_9 1_555 1_555
C47_9 C39_9 1_555 1_555
C48_9 C47_9 1_555 1_555
H34_9 C48_9 1_555 1_555
C49_9 C48_9 1_555 1_555
H35_9 C49_9 1_555 1_555
C52_9 C41_9 1_555 1_555
Co1_9 O1_9 1_555 1_555
Co6_2 O2_9 1_555 1_555
N5_9 C45_9 1_555 1_555
O1_9 C7_9 1_555 1_555
O2_9 C7_9 1_555 1_555
O3_9 C25_9 1_555 1_555
O4_9 C25_9 1_555 1_555
O5_9 C43_9 1_555 1_555
O6_9 C43_9 1_555 1_555
Co4_2 N5_9 1_555 1_555
N8_9 Co1_9 1_555 1_555
N10_9 Co1_9 1_555 1_555
C41_9 C42_9 1_555 1_555
C46_9 C47_9 1_555 1_555
C49_9 N5_9 1_555 1_555
Co1_9 O2_9 1_555 1_555
Co1_9 O4_9 1_555 1_555
Co1_9 O5_9 1_555 1_555
Co6_2 O3_9 1_555 1_555
Co6_2 O6_9 1_555 1_555
C40_10 C39_10 1_555 1_555
C44_10 C40_10 1_555 1_555
H29_10 C44_10 1_555 1_555
H30_10 C44_10 1_555 1_555
H31_10 C44_10 1_555 1_555
C45_10 H32_10 1_555 1_555
C46_10 C45_10 1_555 1_555
H33_10 C46_10 1_555 1_555
C47_10 C39_10 1_555 1_555
C48_10 C47_10 1_555 1_555
C49_10 C48_10 1_555 1_555
H35_10 C49_10 1_555 1_555
N10 C45_10 1_555 1_555
C46_10 C47_10 1_555 1_555
C49_10 N10 1_555 1_555
C20_10 H14_10 1_555 1_555
C21_10 C20_10 1_555 1_555
C22_10 C21_10 1_555 1_555
C23_10 C22_10 1_555 1_555
C26_10 C22_10 1_555 1_555
H16_10 C26_10 1_555 1_555
H17_10 C26_10 1_555 1_555
H18_10 C26_10 1_555 1_555
C27_10 H19_10 1_555 1_555
C28_10 C27_10 1_555 1_555
H20_10 C28_10 1_555 1_555
C29_10 C21_10 1_555 1_555
C30_10 C29_10 1_555 1_555
H21_10 C30_10 1_555 1_555
C31_10 C30_10 1_555 1_555
H22_10 C31_10 1_555 1_555
C32_10 H23_10 1_555 1_555
C33_10 C32_10 1_555 1_555
H24_10 C33_10 1_555 1_555
C34_10 C23_10 1_555 1_555
C35_10 C34_10 1_555 1_555
H25_10 C35_10 1_555 1_555
C36_10 C35_10 1_555 1_555
H26_10 C36_10 1_555 1_555
N3_7 C27_10 1_555 1_555
N4_10 C32_10 1_555 1_555
Co5_4 N3_7 1_555 1_555
C23_10 C24_10 1_555 1_555
C28_10 C29_10 1_555 1_555
C31_10 N3_7 1_555 1_555
C33_10 C34_10 1_555 1_555
C36_10 N4_10 1_555 1_555
C9_10 H6_10 1_555 1_555
C50_10 H36_10 1_555 1_555
C51_10 C50_10 1_555 1_555
H37_10 C51_10 1_555 1_555
N1_10 C9_10 1_555 1_555
N6_4 C50_10 1_555 1_555
Co6_4 N6_4 1_555 1_555
C51_10 C52_10 1_555 1_555
C1_10 C2_10 1_555 1_555
C2_10 H1_10 1_555 1_555
C3_10 C2_10 1_555 1_555
C4_10 C3_10 1_555 1_555
C5_10 C4_10 1_555 1_555
C6_10 C1_10 1_555 1_555
H2_10 C6_10 1_555 1_555
C7_10 C1_10 1_555 1_555
C8_10 C4_10 1_555 1_555
H3_10 C8_10 1_555 1_555
H4_10 C8_10 1_555 1_555
H5_10 C8_10 1_555 1_555
H7_10 C10_10 1_555 1_555
C11_10 C3_10 1_555 1_555
C12_10 C11_10 1_555 1_555
H8_10 C12_10 1_555 1_555
C13_10 C12_10 1_555 1_555
H9_10 C13_10 1_555 1_555
C14_10 H10_10 1_555 1_555
C15_10 C14_10 1_555 1_555
H11_10 C15_10 1_555 1_555
C16_10 C5_10 1_555 1_555
C17_10 C16_10 1_555 1_555
H12_10 C17_10 1_555 1_555
C18_10 C17_10 1_555 1_555
H13_10 C18_10 1_555 1_555
C25_10 C19_10 1_555 1_555
C37_10 C38_10 1_555 1_555
C38_10 H27_10 1_555 1_555
C42_10 C37_10 1_555 1_555
H28_10 C42_10 1_555 1_555
C43_10 C37_10 1_555 1_555
C54_10 C53_10 1_555 1_555
H39_10 C54_10 1_555 1_555
C55_10 H40_10 1_555 1_555
C56_10 H41_10 1_555 1_555
H42_10 C56_10 1_555 1_555
H43_10 C56_10 1_555 1_555
C57_10 H44_10 1_555 1_555
H45_10 C57_10 1_555 1_555
H46_10 C57_10 1_555 1_555
Co3 O1_10 1_555 1_555
Co2_4 O2_10 1_555 1_555
N8_5 C14_10 1_555 1_555
N7_10 C55_10 1_555 1_555
O1_10 C7_10 1_555 1_555
O2_10 C7_10 1_555 1_555
O3_10 C25_10 1_555 1_555
O4_10 C25_10 1_555 1_555
O5_10 C43_10 1_555 1_555
O6_10 C43_10 1_555 1_555
O7_10 C55_10 1_555 1_555
N9_4 Co2_4 1_555 1_555
N11_7 Co2_4 1_555 1_555
C5_10 C6_10 1_555 1_555
C10_10 C11_10 1_555 1_555
C15_10 C16_10 1_555 1_555
C18_10 N8_5 1_555 1_555
C41_10 C42_10 1_555 1_555
C56_10 N7_10 1_555 1_555
C57_10 N7_10 1_555 1_555
Co3 O2_10 1_555 1_555
Co3 O4_10 1_555 1_555
Co3 O5_10 1_555 1_555
Co2_4 O3_10 1_555 1_555
Co2_4 O6_10 1_555 1_555
Co2_4 O7_10 1_555 1_555
C9_11 H6_11 1_555 1_555
C50_11 H36_11 1_555 1_555
C51_11 C50_11 1_555 1_555
H37_11 C51_11 1_555 1_555
N1_11 C9_11 1_555 1_555
N6_5 C50_11 1_555 1_555
Co6_5 N6_5 1_555 1_555
C51_11 C52_11 1_555 1_555
C1_11 C2_11 1_555 1_555
C2_11 H1_11 1_555 1_555
C3_11 C2_11 1_555 1_555
C4_11 C3_11 1_555 1_555
C5_11 C4_11 1_555 1_555
C6_11 C1_11 1_555 1_555
H2_11 C6_11 1_555 1_555
C7_11 C1_11 1_555 1_555
C8_11 C4_11 1_555 1_555
H3_11 C8_11 1_555 1_555
H4_11 C8_11 1_555 1_555
H5_11 C8_11 1_555 1_555
H7_11 C10_11 1_555 1_555
C11_11 C3_11 1_555 1_555
C12_11 C11_11 1_555 1_555
H8_11 C12_11 1_555 1_555
C13_11 C12_11 1_555 1_555
H9_11 C13_11 1_555 1_555
C14_11 H10_11 1_555 1_555
C15_11 C14_11 1_555 1_555
H11_11 C15_11 1_555 1_555
C16_11 C5_11 1_555 1_555
C17_11 C16_11 1_555 1_555
H12_11 C17_11 1_555 1_555
C18_11 C17_11 1_555 1_555
H13_11 C18_11 1_555 1_555
C25_11 C19_11 1_555 1_555
C37_11 C38_11 1_555 1_555
C38_11 H27_11 1_555 1_555
C42_11 C37_11 1_555 1_555
H28_11 C42_11 1_555 1_555
C43_11 C37_11 1_555 1_555
C54_11 C53_11 1_555 1_555
H39_11 C54_11 1_555 1_555
C55_11 H40_11 1_555 1_555
C56_11 H41_11 1_555 1_555
H42_11 C56_11 1_555 1_555
H43_11 C56_11 1_555 1_555
C57_11 H44_11 1_555 1_555
H45_11 C57_11 1_555 1_555
H46_11 C57_11 1_555 1_555
Co3_2 O1_11 1_555 1_555
Co2_5 O2_11 1_555 1_555
N8_6 C14_11 1_555 1_555
N7_11 C55_11 1_555 1_555
O1_11 C7_11 1_555 1_555
O2_11 C7_11 1_555 1_555
O3_11 C25_11 1_555 1_555
O4_11 C25_11 1_555 1_555
O5_11 C43_11 1_555 1_555
O6_11 C43_11 1_555 1_555
O7_11 C55_11 1_555 1_555
N9_5 Co2_5 1_555 1_555
N11_8 Co2_5 1_555 1_555
C5_11 C6_11 1_555 1_555
C10_11 C11_11 1_555 1_555
C15_11 C16_11 1_555 1_555
C18_11 N8_6 1_555 1_555
C41_11 C42_11 1_555 1_555
C56_11 N7_11 1_555 1_555
C57_11 N7_11 1_555 1_555
Co3_2 O2_11 1_555 1_555
Co3_2 O4_11 1_555 1_555
Co3_2 O5_11 1_555 1_555
Co2_5 O3_11 1_555 1_555
Co2_5 O6_11 1_555 1_555
Co2_5 O7_11 1_555 1_555
C40_11 C39_11 1_555 1_555
C44_11 C40_11 1_555 1_555
H29_11 C44_11 1_555 1_555
H30_11 C44_11 1_555 1_555
H31_11 C44_11 1_555 1_555
C45_11 H32_11 1_555 1_555
C46_11 C45_11 1_555 1_555
H33_11 C46_11 1_555 1_555
C47_11 C39_11 1_555 1_555
C48_11 C47_11 1_555 1_555
C49_11 C48_11 1_555 1_555
H35_11 C49_11 1_555 1_555
N10_2 C45_11 1_555 1_555
C46_11 C47_11 1_555 1_555
C49_11 N10_2 1_555 1_555
C20_11 H14_11 1_555 1_555
C21_11 C20_11 1_555 1_555
C22_11 C21_11 1_555 1_555
C23_11 C22_11 1_555 1_555
C26_11 C22_11 1_555 1_555
H16_11 C26_11 1_555 1_555
H17_11 C26_11 1_555 1_555
H18_11 C26_11 1_555 1_555
C27_11 H19_11 1_555 1_555
C28_11 C27_11 1_555 1_555
H20_11 C28_11 1_555 1_555
C29_11 C21_11 1_555 1_555
C30_11 C29_11 1_555 1_555
H21_11 C30_11 1_555 1_555
C31_11 C30_11 1_555 1_555
H22_11 C31_11 1_555 1_555
C32_11 H23_11 1_555 1_555
C33_11 C32_11 1_555 1_555
H24_11 C33_11 1_555 1_555
C34_11 C23_11 1_555 1_555
C35_11 C34_11 1_555 1_555
H25_11 C35_11 1_555 1_555
C36_11 C35_11 1_555 1_555
H26_11 C36_11 1_555 1_555
N3_8 C27_11 1_555 1_555
N4_11 C32_11 1_555 1_555
Co5_5 N3_8 1_555 1_555
C23_11 C24_11 1_555 1_555
C28_11 C29_11 1_555 1_555
C31_11 N3_8 1_555 1_555
C33_11 C34_11 1_555 1_555
C36_11 N4_11 1_555 1_555
C9_12 H6_12 1_555 1_555
C40_12 C39_12 1_555 1_555
C44_12 C40_12 1_555 1_555
H29_12 C44_12 1_555 1_555
H30_12 C44_12 1_555 1_555
H31_12 C44_12 1_555 1_555
C45_12 H32_12 1_555 1_555
C46_12 C45_12 1_555 1_555
H33_12 C46_12 1_555 1_555
C47_12 C39_12 1_555 1_555
C48_12 C47_12 1_555 1_555
H34_12 C48_12 1_555 1_555
C49_12 C48_12 1_555 1_555
H35_12 C49_12 1_555 1_555
C50_12 H36_12 1_555 1_555
C51_12 C50_12 1_555 1_555
H37_12 C51_12 1_555 1_555
N1_12 C9_12 1_555 1_555
N10_3 C45_12 1_555 1_555
N6_6 C50_12 1_555 1_555
Co6_6 N6_6 1_555 1_555
C46_12 C47_12 1_555 1_555
C49_12 N10_3 1_555 1_555
C51_12 C52_12 1_555 1_555
C1_12 C2_12 1_555 1_555
C2_12 H1_12 1_555 1_555
C3_12 C2_12 1_555 1_555
C4_12 C3_12 1_555 1_555
C5_12 C4_12 1_555 1_555
C6_12 C1_12 1_555 1_555
H2_12 C6_12 1_555 1_555
C7_12 C1_12 1_555 1_555
C8_12 C4_12 1_555 1_555
H3_12 C8_12 1_555 1_555
H4_12 C8_12 1_555 1_555
H5_12 C8_12 1_555 1_555
H7_12 C10_12 1_555 1_555
C11_12 C3_12 1_555 1_555
C12_12 C11_12 1_555 1_555
H8_12 C12_12 1_555 1_555
C13_12 C12_12 1_555 1_555
H9_12 C13_12 1_555 1_555
C14_12 H10_12 1_555 1_555
C15_12 C14_12 1_555 1_555
H11_12 C15_12 1_555 1_555
C16_12 C5_12 1_555 1_555
C17_12 C16_12 1_555 1_555
H12_12 C17_12 1_555 1_555
C18_12 C17_12 1_555 1_555
H13_12 C18_12 1_555 1_555
C19_12 C20_12 1_555 1_555
C20_12 H14_12 1_555 1_555
C21_12 C20_12 1_555 1_555
C22_12 C21_12 1_555 1_555
C23_12 C22_12 1_555 1_555
C24_12 C19_12 1_555 1_555
H15_12 C24_12 1_555 1_555
C25_12 C19_12 1_555 1_555
C26_12 C22_12 1_555 1_555
H16_12 C26_12 1_555 1_555
H17_12 C26_12 1_555 1_555
H18_12 C26_12 1_555 1_555
C27_12 H19_12 1_555 1_555
C28_12 C27_12 1_555 1_555
H20_12 C28_12 1_555 1_555
C29_12 C21_12 1_555 1_555
C30_12 C29_12 1_555 1_555
H21_12 C30_12 1_555 1_555
C31_12 C30_12 1_555 1_555
H22_12 C31_12 1_555 1_555
C32_12 H23_12 1_555 1_555
C33_12 C32_12 1_555 1_555
H24_12 C33_12 1_555 1_555
C34_12 C23_12 1_555 1_555
C35_12 C34_12 1_555 1_555
H25_12 C35_12 1_555 1_555
C36_12 C35_12 1_555 1_555
H26_12 C36_12 1_555 1_555
C37_12 C38_12 1_555 1_555
C38_12 H27_12 1_555 1_555
C42_12 C37_12 1_555 1_555
H28_12 C42_12 1_555 1_555
C43_12 C37_12 1_555 1_555
H38_12 C53_12 1_555 1_555
C54_12 C53_12 1_555 1_555
H39_12 C54_12 1_555 1_555
C55_12 H40_12 1_555 1_555
C56_12 H41_12 1_555 1_555
H42_12 C56_12 1_555 1_555
H43_12 C56_12 1_555 1_555
C57_12 H44_12 1_555 1_555
H45_12 C57_12 1_555 1_555
H46_12 C57_12 1_555 1_555
Co3_3 O1_12 1_555 1_555
Co2_6 O2_12 1_555 1_555
N8_4 C14_12 1_555 1_555
N3_9 C27_12 1_555 1_555
N4_12 C32_12 1_555 1_555
N7_12 C55_12 1_555 1_555
O1_12 C7_12 1_555 1_555
O2_12 C7_12 1_555 1_555
O3_12 C25_12 1_555 1_555
O4_12 C25_12 1_555 1_555
O5_12 C43_12 1_555 1_555
O6_12 C43_12 1_555 1_555
O7_12 C55_12 1_555 1_555
Co5_6 N3_9 1_555 1_555
N9_6 Co2_6 1_555 1_555
N11_9 Co2_6 1_555 1_555
C5_12 C6_12 1_555 1_555
C10_12 C11_12 1_555 1_555
C15_12 C16_12 1_555 1_555
C18_12 N8_4 1_555 1_555
C23_12 C24_12 1_555 1_555
C28_12 C29_12 1_555 1_555
C31_12 N3_9 1_555 1_555
C33_12 C34_12 1_555 1_555
C36_12 N4_12 1_555 1_555
C41_12 C42_12 1_555 1_555
C56_12 N7_12 1_555 1_555
C57_12 N7_12 1_555 1_555
Co3_3 O2_12 1_555 1_555
Co3_3 O4_12 1_555 1_555
Co3_3 O5_12 1_555 1_555
Co2_6 O3_12 1_555 1_555
Co2_6 O6_12 1_555 1_555
Co2_6 O7_12 1_555 1_555
C50_13 H36_13 1_555 1_555
H38_13 C53_13 1_555 1_555
C54_13 C53_13 1_555 1_555
H39_13 C54_13 1_555 1_555
N11_8 C50_13 1_555 1_555
C54_13 N11_8 1_555 1_555
C1_13 C2_13 1_555 1_555
C2_13 H1_13 1_555 1_555
C3_13 C2_13 1_555 1_555
C4_13 C3_13 1_555 1_555
C5_13 C4_13 1_555 1_555
C6_13 C1_13 1_555 1_555
H2_13 C6_13 1_555 1_555
C7_13 C1_13 1_555 1_555
C8_13 C4_13 1_555 1_555
H3_13 C8_13 1_555 1_555
H4_13 C8_13 1_555 1_555
H5_13 C8_13 1_555 1_555
C9_13 H6_13 1_555 1_555
C10_13 C9_13 1_555 1_555
H7_13 C10_13 1_555 1_555
C11_13 C3_13 1_555 1_555
C12_13 C11_13 1_555 1_555
H8_13 C12_13 1_555 1_555
C13_13 C12_13 1_555 1_555
H9_13 C13_13 1_555 1_555
C14_13 H10_13 1_555 1_555
C15_13 C14_13 1_555 1_555
H11_13 C15_13 1_555 1_555
C16_13 C5_13 1_555 1_555
C17_13 C16_13 1_555 1_555
H12_13 C17_13 1_555 1_555
C18_13 C17_13 1_555 1_555
H13_13 C18_13 1_555 1_555
C19_13 C20_13 1_555 1_555
C20_13 H14_13 1_555 1_555
C21_13 C20_13 1_555 1_555
C22_13 C21_13 1_555 1_555
C23_13 C22_13 1_555 1_555
C24_13 C19_13 1_555 1_555
H15_13 C24_13 1_555 1_555
C25_13 C19_13 1_555 1_555
C26_13 C22_13 1_555 1_555
H16_13 C26_13 1_555 1_555
H17_13 C26_13 1_555 1_555
H18_13 C26_13 1_555 1_555
C27_13 H19_13 1_555 1_555
C28_13 C27_13 1_555 1_555
H20_13 C28_13 1_555 1_555
C29_13 C21_13 1_555 1_555
C30_13 C29_13 1_555 1_555
H21_13 C30_13 1_555 1_555
C31_13 C30_13 1_555 1_555
C32_13 H23_13 1_555 1_555
C33_13 C32_13 1_555 1_555
H24_13 C33_13 1_555 1_555
C34_13 C23_13 1_555 1_555
C35_13 C34_13 1_555 1_555
H25_13 C35_13 1_555 1_555
C36_13 C35_13 1_555 1_555
H26_13 C36_13 1_555 1_555
C37_13 C38_13 1_555 1_555
C38_13 H27_13 1_555 1_555
C39_13 C38_13 1_555 1_555
C40_13 C39_13 1_555 1_555
C41_13 C40_13 1_555 1_555
C42_13 C37_13 1_555 1_555
H28_13 C42_13 1_555 1_555
C43_13 C37_13 1_555 1_555
C44_13 C40_13 1_555 1_555
H29_13 C44_13 1_555 1_555
H30_13 C44_13 1_555 1_555
H31_13 C44_13 1_555 1_555
C45_13 H32_13 1_555 1_555
C46_13 C45_13 1_555 1_555
H33_13 C46_13 1_555 1_555
C47_13 C39_13 1_555 1_555
C48_13 C47_13 1_555 1_555
H34_13 C48_13 1_555 1_555
C49_13 C48_13 1_555 1_555
H35_13 C49_13 1_555 1_555
H37_13 C51_13 1_555 1_555
C52_13 C41_13 1_555 1_555
C55_13 H40_13 1_555 1_555
C56_13 H41_13 1_555 1_555
H42_13 C56_13 1_555 1_555
H43_13 C56_13 1_555 1_555
C57_13 H44_13 1_555 1_555
H45_13 C57_13 1_555 1_555
H46_13 C57_13 1_555 1_555
Co4_3 O1_13 1_555 1_555
Co5_5 O2_13 1_555 1_555
N1_13 C9_13 1_555 1_555
N8_2 C14_13 1_555 1_555
N3_10 C27_13 1_555 1_555
N4_13 C32_13 1_555 1_555
N10_7 C45_13 1_555 1_555
N7_13 C55_13 1_555 1_555
O1_13 C7_13 1_555 1_555
O2_13 C7_13 1_555 1_555
O3_13 C25_13 1_555 1_555
O4_13 C25_13 1_555 1_555
O5_13 C43_13 1_555 1_555
O6_13 C43_13 1_555 1_555
O7_13 C55_13 1_555 1_555
N11_10 Co5_5 1_555 1_555
C5_13 C6_13 1_555 1_555
C10_13 C11_13 1_555 1_555
C13_13 N1_13 1_555 1_555
C15_13 C16_13 1_555 1_555
C18_13 N8_2 1_555 1_555
C23_13 C24_13 1_555 1_555
C28_13 C29_13 1_555 1_555
C31_13 N3_10 1_555 1_555
C33_13 C34_13 1_555 1_555
C36_13 N4_13 1_555 1_555
C41_13 C42_13 1_555 1_555
C46_13 C47_13 1_555 1_555
C49_13 N10_7 1_555 1_555
C51_13 C52_13 1_555 1_555
C56_13 N7_13 1_555 1_555
C57_13 N7_13 1_555 1_555
Co4_3 O2_13 1_555 1_555
Co4_3 O4_13 1_555 1_555
Co4_3 O5_13 1_555 1_555
Co5_5 O3_13 1_555 1_555
Co5_5 O6_13 1_555 1_555
Co5_5 O7_13 1_555 1_555
C1_14 C2_14 1_555 1_555
C2_14 H1_14 1_555 1_555
C3_14 C2_14 1_555 1_555
C4_14 C3_14 1_555 1_555
C5_14 C4_14 1_555 1_555
C6_14 C1_14 1_555 1_555
H2_14 C6_14 1_555 1_555
C7_14 C1_14 1_555 1_555
C8_14 C4_14 1_555 1_555
H3_14 C8_14 1_555 1_555
H4_14 C8_14 1_555 1_555
H5_14 C8_14 1_555 1_555
C9_14 H6_14 1_555 1_555
C10_14 C9_14 1_555 1_555
H7_14 C10_14 1_555 1_555
C11_14 C3_14 1_555 1_555
C12_14 C11_14 1_555 1_555
H8_14 C12_14 1_555 1_555
C13_14 C12_14 1_555 1_555
H9_14 C13_14 1_555 1_555
C14_14 H10_14 1_555 1_555
C15_14 C14_14 1_555 1_555
H11_14 C15_14 1_555 1_555
C16_14 C5_14 1_555 1_555
C17_14 C16_14 1_555 1_555
H12_14 C17_14 1_555 1_555
C18_14 C17_14 1_555 1_555
H13_14 C18_14 1_555 1_555
C19_14 C20_14 1_555 1_555
C20_14 H14_14 1_555 1_555
C21_14 C20_14 1_555 1_555
C22_14 C21_14 1_555 1_555
C23_14 C22_14 1_555 1_555
C24_14 C19_14 1_555 1_555
H15_14 C24_14 1_555 1_555
C25_14 C19_14 1_555 1_555
C26_14 C22_14 1_555 1_555
H16_14 C26_14 1_555 1_555
H17_14 C26_14 1_555 1_555
H18_14 C26_14 1_555 1_555
C27_14 H19_14 1_555 1_555
C28_14 C27_14 1_555 1_555
H20_14 C28_14 1_555 1_555
C29_14 C21_14 1_555 1_555
C30_14 C29_14 1_555 1_555
H21_14 C30_14 1_555 1_555
C31_14 C30_14 1_555 1_555
H22_14 C31_14 1_555 1_555
C32_14 H23_14 1_555 1_555
C33_14 C32_14 1_555 1_555
H24_14 C33_14 1_555 1_555
C34_14 C23_14 1_555 1_555
C35_14 C34_14 1_555 1_555
H25_14 C35_14 1_555 1_555
C36_14 C35_14 1_555 1_555
H26_14 C36_14 1_555 1_555
C37_14 C38_14 1_555 1_555
C38_14 H27_14 1_555 1_555
C39_14 C38_14 1_555 1_555
C40_14 C39_14 1_555 1_555
C41_14 C40_14 1_555 1_555
C42_14 C37_14 1_555 1_555
H28_14 C42_14 1_555 1_555
C43_14 C37_14 1_555 1_555
C44_14 C40_14 1_555 1_555
H29_14 C44_14 1_555 1_555
H30_14 C44_14 1_555 1_555
H31_14 C44_14 1_555 1_555
C45_14 H32_14 1_555 1_555
C46_14 C45_14 1_555 1_555
H33_14 C46_14 1_555 1_555
C47_14 C39_14 1_555 1_555
C48_14 C47_14 1_555 1_555
H34_14 C48_14 1_555 1_555
C49_14 C48_14 1_555 1_555
H35_14 C49_14 1_555 1_555
C50_14 H36_14 1_555 1_555
C51_14 C50_14 1_555 1_555
H37_14 C51_14 1_555 1_555
C52_14 C41_14 1_555 1_555
C53_14 C52_14 1_555 1_555
H38_14 C53_14 1_555 1_555
C54_14 C53_14 1_555 1_555
H39_14 C54_14 1_555 1_555
C55_14 H40_14 1_555 1_555
C56_14 H41_14 1_555 1_555
H42_14 C56_14 1_555 1_555
H43_14 C56_14 1_555 1_555
C57_14 H44_14 1_555 1_555
H45_14 C57_14 1_555 1_555
H46_14 C57_14 1_555 1_555
Co4 O1_14 1_555 1_555
Co5_6 O2_14 1_555 1_555
N1_14 C9_14 1_555 1_555
N8_3 C14_14 1_555 1_555
N3_11 C27_14 1_555 1_555
N4_14 C32_14 1_555 1_555
N10_8 C45_14 1_555 1_555
N11_9 C50_14 1_555 1_555
N7_14 C55_14 1_555 1_555
O1_14 C7_14 1_555 1_555
O2_14 C7_14 1_555 1_555
O3_14 C25_14 1_555 1_555
O4_14 C25_14 1_555 1_555
O5_14 C43_14 1_555 1_555
O6_14 C43_14 1_555 1_555
O7_14 C55_14 1_555 1_555
Co6_6 N3_11 1_555 1_555
N11_11 Co5_6 1_555 1_555
C5_14 C6_14 1_555 1_555
C10_14 C11_14 1_555 1_555
C13_14 N1_14 1_555 1_555
C15_14 C16_14 1_555 1_555
C18_14 N8_3 1_555 1_555
C23_14 C24_14 1_555 1_555
C28_14 C29_14 1_555 1_555
C31_14 N3_11 1_555 1_555
C33_14 C34_14 1_555 1_555
C36_14 N4_14 1_555 1_555
C41_14 C42_14 1_555 1_555
C46_14 C47_14 1_555 1_555
C49_14 N10_8 1_555 1_555
C51_14 C52_14 1_555 1_555
C54_14 N11_9 1_555 1_555
C56_14 N7_14 1_555 1_555
C57_14 N7_14 1_555 1_555
Co4 O2_14 1_555 1_555
Co4 O4_14 1_555 1_555
Co4 O5_14 1_555 1_555
Co5_6 O3_14 1_555 1_555
Co5_6 O6_14 1_555 1_555
Co5_6 O7_14 1_555 1_555
C1_15 C2_15 1_555 1_555
C2_15 H1_15 1_555 1_555
C3_15 C2_15 1_555 1_555
C4_15 C3_15 1_555 1_555
C5_15 C4_15 1_555 1_555
C6_15 C1_15 1_555 1_555
H2_15 C6_15 1_555 1_555
C7_15 C1_15 1_555 1_555
C8_15 C4_15 1_555 1_555
H3_15 C8_15 1_555 1_555
H4_15 C8_15 1_555 1_555
H5_15 C8_15 1_555 1_555
C9_15 H6_15 1_555 1_555
C10_15 C9_15 1_555 1_555
H7_15 C10_15 1_555 1_555
C11_15 C3_15 1_555 1_555
C12_15 C11_15 1_555 1_555
H8_15 C12_15 1_555 1_555
C13_15 C12_15 1_555 1_555
H9_15 C13_15 1_555 1_555
C14_15 H10_15 1_555 1_555
C15_15 C14_15 1_555 1_555
H11_15 C15_15 1_555 1_555
C16_15 C5_15 1_555 1_555
C17_15 C16_15 1_555 1_555
H12_15 C17_15 1_555 1_555
C18_15 C17_15 1_555 1_555
H13_15 C18_15 1_555 1_555
C19_15 C20_15 1_555 1_555
C20_15 H14_15 1_555 1_555
C21_15 C20_15 1_555 1_555
C22_15 C21_15 1_555 1_555
C23_15 C22_15 1_555 1_555
C24_15 C19_15 1_555 1_555
H15_15 C24_15 1_555 1_555
C25_15 C19_15 1_555 1_555
C26_15 C22_15 1_555 1_555
H16_15 C26_15 1_555 1_555
H17_15 C26_15 1_555 1_555
H18_15 C26_15 1_555 1_555
C27_15 H19_15 1_555 1_555
C28_15 C27_15 1_555 1_555
H20_15 C28_15 1_555 1_555
C29_15 C21_15 1_555 1_555
C30_15 C29_15 1_555 1_555
H21_15 C30_15 1_555 1_555
C31_15 C30_15 1_555 1_555
C32_15 H23_15 1_555 1_555
C33_15 C32_15 1_555 1_555
H24_15 C33_15 1_555 1_555
C34_15 C23_15 1_555 1_555
C35_15 C34_15 1_555 1_555
H25_15 C35_15 1_555 1_555
C36_15 C35_15 1_555 1_555
H26_15 C36_15 1_555 1_555
C37_15 C38_15 1_555 1_555
C38_15 H27_15 1_555 1_555
C39_15 C38_15 1_555 1_555
C40_15 C39_15 1_555 1_555
C41_15 C40_15 1_555 1_555
C42_15 C37_15 1_555 1_555
H28_15 C42_15 1_555 1_555
C43_15 C37_15 1_555 1_555
C44_15 C40_15 1_555 1_555
H29_15 C44_15 1_555 1_555
H30_15 C44_15 1_555 1_555
H31_15 C44_15 1_555 1_555
C45_15 H32_15 1_555 1_555
C46_15 C45_15 1_555 1_555
H33_15 C46_15 1_555 1_555
C47_15 C39_15 1_555 1_555
C48_15 C47_15 1_555 1_555
H34_15 C48_15 1_555 1_555
C49_15 C48_15 1_555 1_555
H35_15 C49_15 1_555 1_555
H37_15 C51_15 1_555 1_555
C52_15 C41_15 1_555 1_555
C55_15 H40_15 1_555 1_555
C56_15 H41_15 1_555 1_555
H42_15 C56_15 1_555 1_555
H43_15 C56_15 1_555 1_555
C57_15 H44_15 1_555 1_555
H45_15 C57_15 1_555 1_555
H46_15 C57_15 1_555 1_555
Co4_2 O1_15 1_555 1_555
Co5_4 O2_15 1_555 1_555
N1_15 C9_15 1_555 1_555
N8 C14_15 1_555 1_555
N3_12 C27_15 1_555 1_555
N4_15 C32_15 1_555 1_555
N10_9 C45_15 1_555 1_555
N7_15 C55_15 1_555 1_555
O1_15 C7_15 1_555 1_555
O2_15 C7_15 1_555 1_555
O3_15 C25_15 1_555 1_555
O4_15 C25_15 1_555 1_555
O5_15 C43_15 1_555 1_555
O6_15 C43_15 1_555 1_555
O7_15 C55_15 1_555 1_555
N11_12 Co5_4 1_555 1_555
C5_15 C6_15 1_555 1_555
C10_15 C11_15 1_555 1_555
C13_15 N1_15 1_555 1_555
C15_15 C16_15 1_555 1_555
C18_15 N8 1_555 1_555
C23_15 C24_15 1_555 1_555
C28_15 C29_15 1_555 1_555
C31_15 N3_12 1_555 1_555
C33_15 C34_15 1_555 1_555
C36_15 N4_15 1_555 1_555
C41_15 C42_15 1_555 1_555
C46_15 C47_15 1_555 1_555
C49_15 N10_9 1_555 1_555
C51_15 C52_15 1_555 1_555
C56_15 N7_15 1_555 1_555
C57_15 N7_15 1_555 1_555
Co4_2 O2_15 1_555 1_555
Co4_2 O4_15 1_555 1_555
Co4_2 O5_15 1_555 1_555
Co5_4 O3_15 1_555 1_555
Co5_4 O6_15 1_555 1_555
Co5_4 O7_15 1_555 1_555
C50_15 H36_15 1_555 1_555
H38_15 C53_15 1_555 1_555
C54_15 C53_15 1_555 1_555
H39_15 C54_15 1_555 1_555
N11_7 C50_15 1_555 1_555
C54_15 N11_7 1_555 1_555
C1_16 C2_16 1_555 1_555
C2_16 H1_16 1_555 1_555
C3_16 C2_16 1_555 1_555
C4_16 C3_16 1_555 1_555
C5_16 C4_16 1_555 1_555
C6_16 C1_16 1_555 1_555
H2_16 C6_16 1_555 1_555
C7_16 C1_16 1_555 1_555
C8_16 C4_16 1_555 1_555
H3_16 C8_16 1_555 1_555
H4_16 C8_16 1_555 1_555
H5_16 C8_16 1_555 1_555
C9_16 H6_16 1_555 1_555
C10_16 C9_16 1_555 1_555
H7_16 C10_16 1_555 1_555
C11_16 C3_16 1_555 1_555
C12_16 C11_16 1_555 1_555
H8_16 C12_16 1_555 1_555
C13_16 C12_16 1_555 1_555
H9_16 C13_16 1_555 1_555
H11_16 C15_16 1_555 1_555
C16_16 C5_16 1_555 1_555
C17_16 C16_16 1_555 1_555
H12_16 C17_16 1_555 1_555
C37_16 C38_16 1_555 1_555
C38_16 H27_16 1_555 1_555
C39_16 C38_16 1_555 1_555
C40_16 C39_16 1_555 1_555
C41_16 C40_16 1_555 1_555
C42_16 C37_16 1_555 1_555
H28_16 C42_16 1_555 1_555
C43_16 C37_16 1_555 1_555
C44_16 C40_16 1_555 1_555
H29_16 C44_16 1_555 1_555
H30_16 C44_16 1_555 1_555
H31_16 C44_16 1_555 1_555
C45_16 H32_16 1_555 1_555
C46_16 C45_16 1_555 1_555
H33_16 C46_16 1_555 1_555
C47_16 C39_16 1_555 1_555
C48_16 C47_16 1_555 1_555
H34_16 C48_16 1_555 1_555
C49_16 C48_16 1_555 1_555
H35_16 C49_16 1_555 1_555
C50_16 H36_16 1_555 1_555
C51_16 C50_16 1_555 1_555
H37_16 C51_16 1_555 1_555
C52_16 C41_16 1_555 1_555
C53_16 C52_16 1_555 1_555
H38_16 C53_16 1_555 1_555
C54_16 C53_16 1_555 1_555
H39_16 C54_16 1_555 1_555
Co3_4 O1_16 1_555 1_555
Co6_6 O2_16 1_555 1_555
N1_16 C9_16 1_555 1_555
N10_4 C45_16 1_555 1_555
N11_11 C50_16 1_555 1_555
O1_16 C7_16 1_555 1_555
O2_16 C7_16 1_555 1_555
O3_16 C25_16 1_555 1_555
O4_16 C25_16 1_555 1_555
O5_16 C43_16 1_555 1_555
O6_16 C43_16 1_555 1_555
C5_16 C6_16 1_555 1_555
C10_16 C11_16 1_555 1_555
C13_16 N1_16 1_555 1_555
C15_16 C16_16 1_555 1_555
C41_16 C42_16 1_555 1_555
C46_16 C47_16 1_555 1_555
C49_16 N10_4 1_555 1_555
C51_16 C52_16 1_555 1_555
C54_16 N11_11 1_555 1_555
Co3_4 O2_16 1_555 1_555
Co3_4 O4_16 1_555 1_555
Co3_4 O5_16 1_555 1_555
Co6_6 O3_16 1_555 1_555
Co6_6 O6_16 1_555 1_555
C14_16 H10_16 1_555 1_555
H13_16 C18_16 1_555 1_555
C19_16 C20_16 1_555 1_555
C20_16 H14_16 1_555 1_555
C21_16 C20_16 1_555 1_555
C22_16 C21_16 1_555 1_555
C23_16 C22_16 1_555 1_555
C24_16 C19_16 1_555 1_555
H15_16 C24_16 1_555 1_555
C26_16 C22_16 1_555 1_555
H16_16 C26_16 1_555 1_555
H17_16 C26_16 1_555 1_555
H18_16 C26_16 1_555 1_555
C27_16 H19_16 1_555 1_555
C28_16 C27_16 1_555 1_555
H20_16 C28_16 1_555 1_555
C29_16 C21_16 1_555 1_555
C30_16 C29_16 1_555 1_555
H21_16 C30_16 1_555 1_555
C31_16 C30_16 1_555 1_555
H22_16 C31_16 1_555 1_555
C32_16 H23_16 1_555 1_555
C33_16 C32_16 1_555 1_555
H24_16 C33_16 1_555 1_555
C34_16 C23_16 1_555 1_555
C35_16 C34_16 1_555 1_555
C36_16 C35_16 1_555 1_555
H26_16 C36_16 1_555 1_555
C55_16 H40_16 1_555 1_555
C56_16 H41_16 1_555 1_555
H42_16 C56_16 1_555 1_555
H43_16 C56_16 1_555 1_555
C57_16 H44_16 1_555 1_555
H45_16 C57_16 1_555 1_555
H46_16 C57_16 1_555 1_555
N8_8 C14_16 1_555 1_555
N9_6 C27_16 1_555 1_555
N4_16 C32_16 1_555 1_555
N7_16 C55_16 1_555 1_555
O7_16 C55_16 1_555 1_555
C18_16 N8_8 1_555 1_555
C23_16 C24_16 1_555 1_555
C28_16 C29_16 1_555 1_555
C31_16 N9_6 1_555 1_555
C33_16 C34_16 1_555 1_555
C36_16 N4_16 1_555 1_555
C56_16 N7_16 1_555 1_555
C57_16 N7_16 1_555 1_555
C4_17 C3_17 1_555 1_555
C5_17 C4_17 1_555 1_555
H2_17 C6_17 1_555 1_555
C8_17 C4_17 1_555 1_555
H3_17 C8_17 1_555 1_555
H4_17 C8_17 1_555 1_555
H5_17 C8_17 1_555 1_555
C9_17 H6_17 1_555 1_555
C10_17 C9_17 1_555 1_555
H7_17 C10_17 1_555 1_555
C11_17 C3_17 1_555 1_555
C12_17 C11_17 1_555 1_555
H8_17 C12_17 1_555 1_555
C13_17 C12_17 1_555 1_555
H9_17 C13_17 1_555 1_555
H11_17 C15_17 1_555 1_555
C16_17 C5_17 1_555 1_555
C17_17 C16_17 1_555 1_555
H12_17 C17_17 1_555 1_555
C50_17 H36_17 1_555 1_555
C51_17 C50_17 1_555 1_555
H38_17 C53_17 1_555 1_555
C54_17 C53_17 1_555 1_555
H39_17 C54_17 1_555 1_555
N1_17 C9_17 1_555 1_555
N11_12 C50_17 1_555 1_555
C5_17 C6_17 1_555 1_555
C10_17 C11_17 1_555 1_555
C13_17 N1_17 1_555 1_555
C15_17 C16_17 1_555 1_555
C54_17 N11_12 1_555 1_555
C14_17 H10_17 1_555 1_555
H13_17 C18_17 1_555 1_555
C57_17 H44_17 1_555 1_555
H45_17 C57_17 1_555 1_555
H46_17 C57_17 1_555 1_555
N8_9 C14_17 1_555 1_555
C18_17 N8_9 1_555 1_555
C1_17 C2_17 1_555 1_555
C2_17 H1_17 1_555 1_555
C7_17 C1_17 1_555 1_555
C37_17 C38_17 1_555 1_555
C38_17 H27_17 1_555 1_555
C39_17 C38_17 1_555 1_555
C40_17 C39_17 1_555 1_555
C41_17 C40_17 1_555 1_555
C42_17 C37_17 1_555 1_555
H28_17 C42_17 1_555 1_555
C43_17 C37_17 1_555 1_555
C44_17 C40_17 1_555 1_555
H29_17 C44_17 1_555 1_555
H30_17 C44_17 1_555 1_555
H31_17 C44_17 1_555 1_555
C45_17 H32_17 1_555 1_555
C46_17 C45_17 1_555 1_555
H33_17 C46_17 1_555 1_555
C47_17 C39_17 1_555 1_555
C48_17 C47_17 1_555 1_555
H34_17 C48_17 1_555 1_555
C49_17 C48_17 1_555 1_555
H35_17 C49_17 1_555 1_555
C52_17 C41_17 1_555 1_555
Co3_5 O1_17 1_555 1_555
Co6_4 O2_17 1_555 1_555
N10_5 C45_17 1_555 1_555
O1_17 C7_17 1_555 1_555
O2_17 C7_17 1_555 1_555
O3_17 C25_17 1_555 1_555
O4_17 C25_17 1_555 1_555
O5_17 C43_17 1_555 1_555
O6_17 C43_17 1_555 1_555
C41_17 C42_17 1_555 1_555
C46_17 C47_17 1_555 1_555
C49_17 N10_5 1_555 1_555
Co3_5 O2_17 1_555 1_555
Co3_5 O4_17 1_555 1_555
Co3_5 O5_17 1_555 1_555
Co6_4 O3_17 1_555 1_555
Co6_4 O6_17 1_555 1_555
C19_17 C20_17 1_555 1_555
C20_17 H14_17 1_555 1_555
C21_17 C20_17 1_555 1_555
C22_17 C21_17 1_555 1_555
C23_17 C22_17 1_555 1_555
C24_17 C19_17 1_555 1_555
H15_17 C24_17 1_555 1_555
C26_17 C22_17 1_555 1_555
H16_17 C26_17 1_555 1_555
H17_17 C26_17 1_555 1_555
H18_17 C26_17 1_555 1_555
C27_17 H19_17 1_555 1_555
C28_17 C27_17 1_555 1_555
H20_17 C28_17 1_555 1_555
C29_17 C21_17 1_555 1_555
C30_17 C29_17 1_555 1_555
H21_17 C30_17 1_555 1_555
C31_17 C30_17 1_555 1_555
H22_17 C31_17 1_555 1_555
C32_17 H23_17 1_555 1_555
C33_17 C32_17 1_555 1_555
H24_17 C33_17 1_555 1_555
C34_17 C23_17 1_555 1_555
C35_17 C34_17 1_555 1_555
C36_17 C35_17 1_555 1_555
H26_17 C36_17 1_555 1_555
C55_17 H40_17 1_555 1_555
C56_17 H41_17 1_555 1_555
H42_17 C56_17 1_555 1_555
H43_17 C56_17 1_555 1_555
N9_4 C27_17 1_555 1_555
N4_17 C32_17 1_555 1_555
N7_17 C55_17 1_555 1_555
O7_17 C55_17 1_555 1_555
C23_17 C24_17 1_555 1_555
C28_17 C29_17 1_555 1_555
C31_17 N9_4 1_555 1_555
C33_17 C34_17 1_555 1_555
C36_17 N4_17 1_555 1_555
C56_17 N7_17 1_555 1_555
C1_18 C2_18 1_555 1_555
C2_18 H1_18 1_555 1_555
C7_18 C1_18 1_555 1_555
C37_18 C38_18 1_555 1_555
C38_18 H27_18 1_555 1_555
C39_18 C38_18 1_555 1_555
C40_18 C39_18 1_555 1_555
C41_18 C40_18 1_555 1_555
C42_18 C37_18 1_555 1_555
H28_18 C42_18 1_555 1_555
C43_18 C37_18 1_555 1_555
C44_18 C40_18 1_555 1_555
H29_18 C44_18 1_555 1_555
H30_18 C44_18 1_555 1_555
H31_18 C44_18 1_555 1_555
C45_18 H32_18 1_555 1_555
C46_18 C45_18 1_555 1_555
H33_18 C46_18 1_555 1_555
C47_18 C39_18 1_555 1_555
C48_18 C47_18 1_555 1_555
H34_18 C48_18 1_555 1_555
C49_18 C48_18 1_555 1_555
H35_18 C49_18 1_555 1_555
C52_18 C41_18 1_555 1_555
Co3_6 O1_18 1_555 1_555
Co6_5 O2_18 1_555 1_555
N10_6 C45_18 1_555 1_555
O1_18 C7_18 1_555 1_555
O2_18 C7_18 1_555 1_555
O3_18 C25_18 1_555 1_555
O4_18 C25_18 1_555 1_555
O5_18 C43_18 1_555 1_555
O6_18 C43_18 1_555 1_555
C41_18 C42_18 1_555 1_555
C46_18 C47_18 1_555 1_555
C49_18 N10_6 1_555 1_555
Co3_6 O2_18 1_555 1_555
Co3_6 O4_18 1_555 1_555
Co3_6 O5_18 1_555 1_555
Co6_5 O3_18 1_555 1_555
Co6_5 O6_18 1_555 1_555
C19_18 C20_18 1_555 1_555
C20_18 H14_18 1_555 1_555
C21_18 C20_18 1_555 1_555
C22_18 C21_18 1_555 1_555
C23_18 C22_18 1_555 1_555
C24_18 C19_18 1_555 1_555
H15_18 C24_18 1_555 1_555
C26_18 C22_18 1_555 1_555
H16_18 C26_18 1_555 1_555
H17_18 C26_18 1_555 1_555
H18_18 C26_18 1_555 1_555
C27_18 H19_18 1_555 1_555
C28_18 C27_18 1_555 1_555
H20_18 C28_18 1_555 1_555
C29_18 C21_18 1_555 1_555
C30_18 C29_18 1_555 1_555
H21_18 C30_18 1_555 1_555
C31_18 C30_18 1_555 1_555
H22_18 C31_18 1_555 1_555
C32_18 H23_18 1_555 1_555
C33_18 C32_18 1_555 1_555
H24_18 C33_18 1_555 1_555
C34_18 C23_18 1_555 1_555
C35_18 C34_18 1_555 1_555
C36_18 C35_18 1_555 1_555
H26_18 C36_18 1_555 1_555
C55_18 H40_18 1_555 1_555
C56_18 H41_18 1_555 1_555
H42_18 C56_18 1_555 1_555
H43_18 C56_18 1_555 1_555
N9_5 C27_18 1_555 1_555
N4_18 C32_18 1_555 1_555
N7_18 C55_18 1_555 1_555
O7_18 C55_18 1_555 1_555
C23_18 C24_18 1_555 1_555
C28_18 C29_18 1_555 1_555
C31_18 N9_5 1_555 1_555
C33_18 C34_18 1_555 1_555
C36_18 N4_18 1_555 1_555
C56_18 N7_18 1_555 1_555
C4_18 C3_18 1_555 1_555
C5_18 C4_18 1_555 1_555
H2_18 C6_18 1_555 1_555
C8_18 C4_18 1_555 1_555
H3_18 C8_18 1_555 1_555
H4_18 C8_18 1_555 1_555
H5_18 C8_18 1_555 1_555
C9_18 H6_18 1_555 1_555
C10_18 C9_18 1_555 1_555
H7_18 C10_18 1_555 1_555
C11_18 C3_18 1_555 1_555
C12_18 C11_18 1_555 1_555
H8_18 C12_18 1_555 1_555
C13_18 C12_18 1_555 1_555
H9_18 C13_18 1_555 1_555
H11_18 C15_18 1_555 1_555
C16_18 C5_18 1_555 1_555
C17_18 C16_18 1_555 1_555
H12_18 C17_18 1_555 1_555
C50_18 H36_18 1_555 1_555
C51_18 C50_18 1_555 1_555
H38_18 C53_18 1_555 1_555
C54_18 C53_18 1_555 1_555
H39_18 C54_18 1_555 1_555
N1_18 C9_18 1_555 1_555
N11_10 C50_18 1_555 1_555
C5_18 C6_18 1_555 1_555
C10_18 C11_18 1_555 1_555
C13_18 N1_18 1_555 1_555
C15_18 C16_18 1_555 1_555
C54_18 N11_10 1_555 1_555
C14_18 H10_18 1_555 1_555
H13_18 C18_18 1_555 1_555
C57_18 H44_18 1_555 1_555
H45_18 C57_18 1_555 1_555
H46_18 C57_18 1_555 1_555
N8_7 C14_18 1_555 1_555
C18_18 N8_7 1_555 1_555
N12 O8 1_555 1_555
O9 N12 1_555 1_555
N12_2 O8_2 1_555 1_555
O9_2 N12_2 1_555 1_555
N12_3 O8_3 1_555 1_555
O9_3 N12_3 1_555 1_555
O10_3 N12_3 1_555 1_555
N12_4 O8_4 1_555 1_555
O9_4 N12_4 1_555 1_555
O10_4 N12_4 1_555 1_555
N12_5 O8_5 1_555 1_555
O9_5 N12_5 1_555 1_555
O10_5 N12_5 1_555 1_555
N12_6 O8_6 1_555 1_555
O9_6 N12_6 1_555 1_555
O10_6 N12_6 1_555 1_555
N12_7 O8_7 1_555 1_555
O9_7 N12_7 1_555 1_555
O10_7 N12_7 1_555 1_555
N12_8 O8_8 1_555 1_555
O9_8 N12_8 1_555 1_555
O10_8 N12_8 1_555 1_555
N12_9 O8_9 1_555 1_555
O9_9 N12_9 1_555 1_555
O10_9 N12_9 1_555 1_555
N12_10 O8_10 1_555 1_555
O9_10 N12_10 1_555 1_555
N12_11 O8_11 1_555 1_555
O9_11 N12_11 1_555 1_555
N12_12 O8_12 1_555 1_555
O9_12 N12_12 1_555 1_555
O10_12 N12_12 1_555 1_555
N12_13 O8_13 1_555 1_555
O9_13 N12_13 1_555 1_555
O10_13 N12_13 1_555 1_555
N12_14 O8_14 1_555 1_555
O9_14 N12_14 1_555 1_555
O10_14 N12_14 1_555 1_555
N12_15 O8_15 1_555 1_555
O9_15 N12_15 1_555 1_555
O10_15 N12_15 1_555 1_555
N12_16 O8_16 1_555 1_555
O9_16 N12_16 1_555 1_555
O10_16 N12_16 1_555 1_555
N12_17 O8_17 1_555 1_555
O9_17 N12_17 1_555 1_555
O10_17 N12_17 1_555 1_555
N12_18 O8_18 1_555 1_555
O9_18 N12_18 1_555 1_555
O10_18 N12_18 1_555 1_555

#END
