
###############################################################################
#
# This file contains modified crystal structure data generated from the
# MOF subset of the Cambridge Structural Database (CSD) v543 
# hosted by the Cambridge Crystallographic Data Centre (CCDC).
#
# This work is licensed under the Creative Commons
# Attribution-NonCommercial-ShareAlike 4.0 International License.
# To view a copy of this license, visit
# http://creativecommons.org/licenses/by-nc-sa/4.0/
# or send a letter to
# Creative Commons, PO Box 1866, Mountain View, CA 94042, USA.
#
# CIF created using the CSD Python API on 29 September 2022
# The structure has been converted into the P1 space group
# The structure has a 3D framework
# The original CSD entry SIDZUD is in the tetragonal crystal system
# The framework has been calculated to contain at least 10.0% void space
# The void calculation uses a probe of radius 1.32A, grid spacing 0.4
# The framework is charged, counterions have been retained in the structure
#
###############################################################################

data_SIDZUD
_chemical_formula_moiety         '(C72 H80 Cu2 N8 O66 V24 5-)n'
_symmetry_cell_setting           triclinic
_symmetry_space_group_name_H-M   'P 1'
_symmetry_Int_Tables_number      1
_space_group_name_Hall           'P 1'
loop_
_symmetry_equiv_pos_site_id
_symmetry_equiv_pos_as_xyz
1 x,y,z
_cell_length_a                   20.8997(4)
_cell_length_b                   20.8997(4)
_cell_length_c                   9.8147(4)
_cell_angle_alpha                90
_cell_angle_beta                 90
_cell_angle_gamma                90
_cell_volume                     4287.04
loop_
_atom_site_label
_atom_site_type_symbol
_atom_site_fract_x
_atom_site_fract_y
_atom_site_fract_z
O12 O -0.0000 0.0000 0.5000
V22 V 0.09374(3) 0.05018(3) 0.46488(6)
O48 O 0.04976(13) 0.08440(13) 0.3245(3)
V1 V 0.45729(3) 0.58151(3) 0.38105(7)
V2 V 0.53289(3) 0.44636(3) 0.31582(6)
V3 V 0.59374(3) 0.55018(3) 0.53512(6)
O1 O 0.60905(12) 0.50173(12) 0.3586(3)
O2 O 0.5000 0.5000 0.5000
O3 O 0.49905(12) 0.52783(12) 0.2339(2)
O4 O 0.38890(12) 0.52542(13) 0.3749(3)
O5 O 0.54807(12) 0.61141(12) 0.4095(3)
O6 O 0.54976(13) 0.58440(13) 0.6755(3)
O7 O 0.43852(13) 0.60966(13) 0.5521(3)
O8 O 0.66153(14) 0.58730(15) 0.5360(3)
O9 O 0.55931(16) 0.41612(14) 0.1758(3)
O10 O 0.43506(14) 0.63948(15) 0.2848(3)
C1 C 0.63677(17) 0.62062(17) 0.0770(4)
C3 C 0.58219(18) 0.63792(17) 0.2980(4)
H2 H 0.6225 0.6571 0.3319
H3 H 0.5563 0.6725 0.2566
C4 C 0.59821(17) 0.58755(17) 0.1877(3)
C5 C 0.53598(18) 0.55887(19) 0.1305(4)
H4 H 0.5101 0.5934 0.0887
H5 H 0.5466 0.5276 0.0583
C6 C 0.73209(18) 0.67531(18) 0.0045(4)
H6 H 0.7737 0.6905 0.0259
C8 C 0.69754(18) 0.64512(19) 0.1056(4)
H8 H 0.7150 0.6410 0.1945
C9 C 0.64013(17) 0.53366(17) 0.2488(4)
H9 H 0.6504 0.5022 0.1767
H10 H 0.6809 0.5522 0.2818
V6 V 0.90626(3) 0.94982(3) 0.53512(6)
O11 O 0.89095(12) 0.99827(12) 0.3586(3)
O12_2 O 1.0000 1.0000 0.5000
O15 O 0.95193(12) 0.88859(12) 0.4095(3)
O16 O 0.95024(13) 0.91560(13) 0.6755(3)
O18 O 0.83847(14) 0.91270(15) 0.5360(3)
C10 C 0.86323(17) 0.87938(17) 0.0770(4)
C12 C 0.91781(18) 0.86208(17) 0.2980(4)
H12 H 0.8775 0.8429 0.3319
H13 H 0.9437 0.8275 0.2566
C13 C 0.90179(17) 0.91245(17) 0.1877(3)
C14 C 0.96402(18) 0.94113(19) 0.1305(4)
H14 H 0.9899 0.9066 0.0887
H15 H 0.9534 0.9724 0.0583
C15 C 0.76791(18) 0.82469(18) 0.0045(4)
H16 H 0.7263 0.8095 0.0259
C17 C 0.80246(18) 0.85488(19) 0.1056(4)
H18 H 0.7850 0.8590 0.1945
C18 C 0.85987(17) 0.96634(17) 0.2488(4)
H19 H 0.8496 0.9978 0.1767
H20 H 0.8191 0.9478 0.2818
V13 V 0.54271(3) 0.41849(3) 0.61895(7)
V17 V 0.46711(3) 0.55364(3) 0.68418(6)
V21 V 0.40626(3) 0.44982(3) 0.46488(6)
O43 O 0.61110(12) 0.47458(13) 0.6251(3)
O47 O 0.45024(13) 0.41560(13) 0.3245(3)
O51 O 0.56148(13) 0.39034(13) 0.4479(3)
O21 O 0.10905(12) 0.00173(12) 0.6414(3)
O24 O 0.04807(12) 0.11141(12) 0.5905(3)
O27 O 0.16153(14) 0.08730(15) 0.4640(3)
C19 C 0.13677(17) 0.12062(17) 0.9230(4)
C21 C 0.08219(18) 0.13792(17) 0.7020(4)
H22 H 0.1225 0.1571 0.6681
H23 H 0.0563 0.1725 0.7434
C22 C 0.09821(17) 0.08755(17) 0.8123(3)
C23 C 0.03598(18) 0.05887(19) 0.8695(4)
H24 H 0.0101 0.0934 0.9113
H25 H 0.0466 0.0276 0.9417
C24 C 0.23209(18) 0.17531(18) 0.9955(4)
H26 H 0.2737 0.1905 0.9741
C26 C 0.19754(18) 0.14512(19) 0.8944(4)
H28 H 0.2150 0.1410 0.8055
C27 C 0.14013(17) 0.03366(17) 0.7512(4)
H29 H 0.1504 0.0022 0.8233
H30 H 0.1809 0.0522 0.7182
O30 O 0.39095(12) 0.49827(12) 0.6414(3)
O31 O 0.50095(12) 0.47217(12) 0.7661(2)
O33 O 0.45193(12) 0.38859(12) 0.5905(3)
O36 O 0.33847(14) 0.41270(15) 0.4640(3)
O37 O 0.44069(16) 0.58388(14) 0.8242(3)
O38 O 0.56494(14) 0.36052(15) 0.7152(3)
C28 C 0.36323(17) 0.37938(17) 0.9230(4)
C30 C 0.41781(18) 0.36208(17) 0.7020(4)
H32 H 0.3775 0.3429 0.6681
H33 H 0.4437 0.3275 0.7434
C31 C 0.40179(17) 0.41245(17) 0.8123(3)
C32 C 0.46402(18) 0.44113(19) 0.8695(4)
H34 H 0.4899 0.4066 0.9113
H35 H 0.4534 0.4724 0.9417
C33 C 0.26791(18) 0.32469(18) 0.9955(4)
H36 H 0.2263 0.3095 0.9741
C35 C 0.30246(18) 0.35488(19) 0.8944(4)
H38 H 0.2850 0.3590 0.8055
C36 C 0.35987(17) 0.46634(17) 0.7512(4)
H39 H 0.3496 0.4978 0.8233
H40 H 0.3191 0.4478 0.7182
V4 V 0.04271(3) 0.91849(3) 0.38105(7)
O12_3 O -0.0000 1.0000 0.5000
O13 O 0.00095(12) 0.97217(12) 0.2339(2)
O14 O 0.11110(12) 0.97458(13) 0.3749(3)
O17 O 0.06148(13) 0.89034(13) 0.5521(3)
O20 O 0.06494(14) 0.86052(15) 0.2848(3)
V18 V 0.03289(3) 0.94636(3) 0.68418(6)
O28 O 0.05931(16) 0.91612(14) 0.8242(3)
V11 V 0.05364(3) 0.53289(3) 0.18418(6)
O37_2 O 0.08388(14) 0.55931(16) 0.3242(3)
V20 V 0.05018(3) 0.40626(3) 0.03512(6)
O40 O 0.0000 0.5000 0.0000
O46 O 0.08440(13) 0.45024(13) 0.1755(3)
O50 O 0.10966(13) 0.56148(13) 0.0521(3)
V7 V 0.58151(3) 0.04271(3) 0.11895(7)
O22 O 0.52783(12) 0.00095(12) 0.2661(2)
O23 O 0.52542(13) 0.11110(12) 0.1251(3)
O29 O 0.63948(15) 0.06494(14) 0.2152(3)
V19 V 0.44982(3) 0.09374(3) 0.03512(6)
O39 O 0.5000 0.0000 0.0000
O45 O 0.41560(13) 0.04976(13) 0.1755(3)
O8_2 O 0.41270(15) 0.16153(14) 0.0360(3)
O18_2 O 0.08730(15) 0.33847(14) 0.0360(3)
O40_2 O 0.0000 0.5000 1.0000
O42 O 0.02542(13) 0.61110(12) 0.8749(3)
O26 O 0.60966(13) 0.06148(13) 0.9479(3)
V15 V 0.55364(3) 0.03289(3) 0.81582(6)
O39_2 O 0.5000 0.0000 1.0000
Cu1 Cu 0.2500 0.2500 0.2500
N1 N 0.31567(15) 0.20994(15) 0.3771(3)
O1_2 O 0.49827(12) 0.10905(12) 0.8586(3)
O5_2 O 0.38859(12) 0.04807(12) 0.9095(3)
O9_2 O 0.58388(14) 0.05931(16) 0.6758(3)
C1_2 C 0.37938(17) 0.13677(17) 0.5770(4)
C2 C 0.37213(19) 0.11507(18) 0.4437(4)
H1 H 0.3892 0.0747 0.4180
C3_2 C 0.36208(17) 0.08219(18) 0.7980(4)
H2_2 H 0.3429 0.1225 0.8319
H3_2 H 0.3275 0.0563 0.7566
C4_2 C 0.41245(17) 0.09821(17) 0.6877(3)
C5_2 C 0.44113(19) 0.03598(18) 0.6305(4)
H4_2 H 0.4066 0.0101 0.5887
H5_2 H 0.4724 0.0466 0.5583
C6_2 C 0.32469(18) 0.23209(18) 0.5045(4)
H6_2 H 0.3095 0.2737 0.5259
C7 C 0.34023(19) 0.15199(18) 0.3484(4)
H7 H 0.3354 0.1357 0.2587
C8_2 C 0.35488(19) 0.19754(18) 0.6056(4)
H8_2 H 0.3590 0.2150 0.6945
C9_2 C 0.46634(17) 0.14013(17) 0.7488(4)
H9_2 H 0.4978 0.1504 0.6767
H10_2 H 0.4478 0.1809 0.7818
V4_2 V 0.08151(3) 0.54271(3) 0.88105(7)
N2 N 0.18433(15) 0.29006(15) 0.3771(3)
O11_2 O 0.00173(12) 0.39095(12) 0.8586(3)
O13_2 O 0.02783(12) 0.50095(12) 0.7339(2)
O15_2 O 0.11141(12) 0.45193(12) 0.9095(3)
O20_2 O 0.13948(15) 0.56494(14) 0.7848(3)
C10_2 C 0.12062(17) 0.36323(17) 0.5770(4)
C11 C 0.12787(19) 0.38493(18) 0.4437(4)
H11 H 0.1108 0.4253 0.4180
C12_2 C 0.13792(17) 0.41781(18) 0.7980(4)
H12_2 H 0.1571 0.3775 0.8319
H13_2 H 0.1725 0.4437 0.7566
C13_2 C 0.08755(17) 0.40179(17) 0.6877(3)
C14_2 C 0.05887(19) 0.46402(18) 0.6305(4)
H14_2 H 0.0934 0.4899 0.5887
H15_2 H 0.0276 0.4534 0.5583
C15_2 C 0.17531(18) 0.26791(18) 0.5045(4)
H16_2 H 0.1905 0.2263 0.5259
C16 C 0.15977(19) 0.34801(18) 0.3484(4)
H17 H 0.1646 0.3643 0.2587
C17_2 C 0.14512(19) 0.30246(18) 0.6056(4)
H18_2 H 0.1410 0.2850 0.6945
C18_2 C 0.03366(17) 0.35987(17) 0.7488(4)
H19_2 H 0.0022 0.3496 0.6767
H20_2 H 0.0522 0.3191 0.7818
N3 N 0.20994(15) 0.18433(15) 0.1229(3)
C20 C 0.11507(18) 0.12787(19) 0.0563(4)
H21 H 0.0747 0.1108 0.0820
C25 C 0.15199(18) 0.15977(19) 0.1516(4)
H27 H 0.1357 0.1646 0.2413
N4 N 0.29006(15) 0.31567(15) 0.1229(3)
C29 C 0.38493(18) 0.37213(19) 0.0563(4)
H31 H 0.4253 0.3892 0.0820
C34 C 0.34801(18) 0.34023(19) 0.1516(4)
H37 H 0.3643 0.3354 0.2413
V5 V 0.96711(3) 0.05364(3) 0.31582(6)
O12_4 O 1.0000 0.0000 0.5000
O19 O 0.94069(16) 0.08388(14) 0.1758(3)
V14 V 0.95729(3) 0.08151(3) 0.61895(7)
O44 O 0.88890(12) 0.02542(13) 0.6251(3)
O52 O 0.93852(13) 0.10966(13) 0.4479(3)
O22_2 O 0.99905(12) 0.02783(12) 0.7661(2)
O29_2 O 0.93506(14) 0.13948(15) 0.7152(3)
Cu1_2 Cu 0.7500 0.7500 0.7500
N1_2 N 0.70994(15) 0.68433(15) 0.8771(3)
C2_2 C 0.61507(18) 0.62787(19) 0.9437(4)
H1_2 H 0.5747 0.6108 0.9180
C7_2 C 0.65199(18) 0.65977(19) 0.8484(4)
H7_2 H 0.6357 0.6646 0.7587
N2_2 N 0.79006(15) 0.81567(15) 0.8771(3)
C11_2 C 0.88493(18) 0.87213(19) 0.9437(4)
H11_2 H 0.9253 0.8892 0.9180
C16_2 C 0.84801(18) 0.84023(19) 0.8484(4)
H17_2 H 0.8643 0.8354 0.7587
V8 V 0.44636(3) 0.96711(3) 0.18418(6)
N3_2 N 0.68433(15) 0.79006(15) 0.6229(3)
O21_2 O 0.50173(12) 0.89095(12) 0.1414(3)
O24_2 O 0.61141(12) 0.95193(12) 0.0905(3)
O28_2 O 0.41612(14) 0.94069(16) 0.3242(3)
C19_2 C 0.62062(17) 0.86323(17) 0.4230(4)
C20_2 C 0.62787(19) 0.88493(18) 0.5563(4)
H21_2 H 0.6108 0.9253 0.5820
C21_2 C 0.63792(17) 0.91781(18) 0.2020(4)
H22_2 H 0.6571 0.8775 0.1681
H23_2 H 0.6725 0.9437 0.2434
C22_2 C 0.58755(17) 0.90179(17) 0.3123(3)
C23_2 C 0.55887(19) 0.96402(18) 0.3695(4)
H24_2 H 0.5934 0.9899 0.4113
H25_2 H 0.5276 0.9534 0.4417
C24_2 C 0.67531(18) 0.76791(18) 0.4955(4)
H26_2 H 0.6905 0.7263 0.4741
C25_2 C 0.65977(19) 0.84801(18) 0.6516(4)
H27_2 H 0.6646 0.8643 0.7413
C26_2 C 0.64512(19) 0.80246(18) 0.3944(4)
H28_2 H 0.6410 0.7850 0.3055
C27_2 C 0.53366(17) 0.85987(17) 0.2512(4)
H29_2 H 0.5022 0.8496 0.3233
H30_2 H 0.5522 0.8191 0.2182
V10 V 0.91849(3) 0.45729(3) 0.11895(7)
N4_2 N 0.81567(15) 0.70994(15) 0.6229(3)
O30_2 O 0.99827(12) 0.60905(12) 0.1414(3)
O31_2 O 0.97217(12) 0.49905(12) 0.2661(2)
O32 O 0.97458(13) 0.38890(12) 0.1251(3)
O33_2 O 0.88859(12) 0.54807(12) 0.0905(3)
O38_2 O 0.86052(15) 0.43506(14) 0.2152(3)
C28_2 C 0.87938(17) 0.63677(17) 0.4230(4)
C29_2 C 0.87213(19) 0.61507(18) 0.5563(4)
H31_2 H 0.8892 0.5747 0.5820
C30_2 C 0.86208(17) 0.58219(18) 0.2020(4)
H32_2 H 0.8429 0.6225 0.1681
H33_2 H 0.8275 0.5563 0.2434
C31_2 C 0.91245(17) 0.59821(17) 0.3123(3)
C32_2 C 0.94113(19) 0.53598(18) 0.3695(4)
H34_2 H 0.9066 0.5101 0.4113
H35_2 H 0.9724 0.5466 0.4417
C33_2 C 0.82469(18) 0.73209(18) 0.4955(4)
H36_2 H 0.8095 0.7737 0.4741
C34_2 C 0.84023(19) 0.65199(18) 0.6516(4)
H37_2 H 0.8354 0.6357 0.7413
C35_2 C 0.85488(19) 0.69754(18) 0.3944(4)
H38_2 H 0.8590 0.7150 0.3055
C36_2 C 0.96634(17) 0.64013(17) 0.2512(4)
H39_2 H 0.9978 0.6504 0.3233
H40_2 H 0.9478 0.6809 0.2182
O39_3 O 0.5000 1.0000 0.0000
O40_3 O 1.0000 0.5000 0.0000
O49 O 0.39034(13) 0.93852(13) 0.0521(3)
V9 V 0.55018(3) 0.90626(3) 0.96488(6)
O25 O 0.58440(13) 0.95024(13) 0.8245(3)
O27_2 O 0.58730(15) 0.83847(14) 0.9640(3)
V12 V 0.94982(3) 0.59374(3) 0.96488(6)
O34 O 0.91560(13) 0.54976(13) 0.8245(3)
O35 O 0.89034(13) 0.43852(13) 0.9479(3)
O36_2 O 0.91270(15) 0.66153(14) 0.9640(3)
V16 V 0.94636(3) 0.46711(3) 0.81582(6)
O39_4 O 0.5000 1.0000 1.0000
O40_4 O 1.0000 0.5000 1.0000
O41 O 0.47458(13) 0.88890(12) 0.8749(3)
V1_2 V 0.41849(3) 0.95729(3) 0.88105(7)
O3_2 O 0.47217(12) 0.99905(12) 0.7339(2)
O10_2 O 0.36052(15) 0.93506(14) 0.7848(3)
O19_2 O 0.91612(14) 0.44069(16) 0.6758(3)
loop_
_geom_bond_atom_site_label_1
_geom_bond_atom_site_label_2
_geom_bond_site_symmetry_1
_geom_bond_site_symmetry_2
V22 O12 1_555 1_555
V22 O48 1_555 1_555
V1 O2 1_555 1_555
V2 O1 1_555 1_555
V3 O1 1_555 1_555
O1 C9 1_555 1_555
O2 V2 1_555 1_555
O3 V1 1_555 1_555
O4 V1 1_555 1_555
O5 V1 1_555 1_555
O6 V3 1_555 1_555
O7 V1 1_555 1_555
O8 V3 1_555 1_555
O9 V2 1_555 1_555
O10 V1 1_555 1_555
C3 O5 1_555 1_555
H2 C3 1_555 1_555
H3 C3 1_555 1_555
C4 C1 1_555 1_555
C5 O3 1_555 1_555
H4 C5 1_555 1_555
H5 C5 1_555 1_555
C6 H6 1_555 1_555
C8 C1 1_555 1_555
H8 C8 1_555 1_555
C9 C4 1_555 1_555
H9 C9 1_555 1_555
H10 C9 1_555 1_555
V6 O11 1_555 1_555
O11 C18 1_555 1_555
O16 V6 1_555 1_555
O18 V6 1_555 1_555
C12 O15 1_555 1_555
H12 C12 1_555 1_555
H13 C12 1_555 1_555
C13 C10 1_555 1_555
H14 C14 1_555 1_555
H15 C14 1_555 1_555
H16 C15 1_555 1_555
C17 C10 1_555 1_555
H18 C17 1_555 1_555
C18 C13 1_555 1_555
H19 C18 1_555 1_555
H20 C18 1_555 1_555
V13 O2 1_555 1_555
V17 O2 1_555 1_555
V21 O2 1_555 1_555
O43 V3 1_555 1_555
O47 V2 1_555 1_555
O51 V2 1_555 1_555
V2 O3 1_555 1_555
V3 O2 1_555 1_555
V3 O5 1_555 1_555
O4 V21 1_555 1_555
O6 V17 1_555 1_555
O7 V17 1_555 1_555
C3 C4 1_555 1_555
C4 C5 1_555 1_555
C6 C8 1_555 1_555
V6 O12_2 1_555 1_555
V6 O15 1_555 1_555
C12 C13 1_555 1_555
C13 C14 1_555 1_555
C15 C17 1_555 1_555
V13 O43 1_555 1_555
V13 O51 1_555 1_555
V21 O47 1_555 1_555
V22 O21 1_555 1_555
O21 C27 1_555 1_555
O27 V22 1_555 1_555
C21 O24 1_555 1_555
H22 C21 1_555 1_555
H23 C21 1_555 1_555
C22 C19 1_555 1_555
H24 C23 1_555 1_555
H25 C23 1_555 1_555
H26 C24 1_555 1_555
C26 C19 1_555 1_555
H28 C26 1_555 1_555
C27 C22 1_555 1_555
H29 C27 1_555 1_555
H30 C27 1_555 1_555
V13 O31 1_555 1_555
V17 O30 1_555 1_555
V21 O30 1_555 1_555
O30 C36 1_555 1_555
O31 V17 1_555 1_555
O33 V13 1_555 1_555
O36 V21 1_555 1_555
O37 V17 1_555 1_555
O38 V13 1_555 1_555
C30 O33 1_555 1_555
H32 C30 1_555 1_555
H33 C30 1_555 1_555
C31 C28 1_555 1_555
C32 O31 1_555 1_555
H34 C32 1_555 1_555
H35 C32 1_555 1_555
H36 C33 1_555 1_555
C35 C28 1_555 1_555
H38 C35 1_555 1_555
C36 C31 1_555 1_555
H39 C36 1_555 1_555
H40 C36 1_555 1_555
V22 O24 1_555 1_555
C21 C22 1_555 1_555
C22 C23 1_555 1_555
C24 C26 1_555 1_555
V21 O33 1_555 1_555
C30 C31 1_555 1_555
C31 C32 1_555 1_555
C33 C35 1_555 1_555
V4 O12_3 1_555 1_555
O13 V4 1_555 1_555
O14 V4 1_555 1_555
O17 V4 1_555 1_555
O20 V4 1_555 1_555
V18 O12_3 1_555 1_555
O17 V18 1_555 1_555
O28 V18 1_555 1_555
O37_2 V11 1_555 1_555
O46 V11 1_555 1_555
O50 V11 1_555 1_555
V11 O40 1_555 1_555
V20 O40 1_555 1_555
V20 O46 1_555 1_555
V7 O22 1_555 1_555
O23 V7 1_555 1_555
O29 V7 1_555 1_555
V19 O23 1_555 1_555
O39 V7 1_555 1_555
V19 O39 1_555 1_555
V19 O45 1_555 1_555
O8_2 V19 1_555 1_555
O18_2 V20 1_555 1_555
O26 V15 1_555 1_555
V15 O39_2 1_555 1_555
Cu1 N1 1_555 1_555
V15 O1_2 1_555 1_555
N1 C6_2 1_555 1_555
O1_2 C9_2 1_555 1_555
O9_2 V15 1_555 1_555
C1_2 C2 1_555 1_555
C2 H1 1_555 1_555
C3_2 O5_2 1_555 1_555
H2_2 C3_2 1_555 1_555
H3_2 C3_2 1_555 1_555
C4_2 C1_2 1_555 1_555
H4_2 C5_2 1_555 1_555
H5_2 C5_2 1_555 1_555
C6_2 H6_2 1_555 1_555
C7 N1 1_555 1_555
H7 C7 1_555 1_555
C8_2 C1_2 1_555 1_555
H8_2 C8_2 1_555 1_555
C9_2 C4_2 1_555 1_555
H9_2 C9_2 1_555 1_555
H10_2 C9_2 1_555 1_555
V4_2 O40_2 1_555 1_555
N2 Cu1 1_555 1_555
O11_2 C18_2 1_555 1_555
O13_2 V4_2 1_555 1_555
O42 V4_2 1_555 1_555
O15_2 V4_2 1_555 1_555
O20_2 V4_2 1_555 1_555
C10_2 C11 1_555 1_555
C11 H11 1_555 1_555
C12_2 O15_2 1_555 1_555
H12_2 C12_2 1_555 1_555
H13_2 C12_2 1_555 1_555
C13_2 C10_2 1_555 1_555
C14_2 O13_2 1_555 1_555
H14_2 C14_2 1_555 1_555
H15_2 C14_2 1_555 1_555
C15_2 N2 1_555 1_555
H16_2 C15_2 1_555 1_555
C16 N2 1_555 1_555
H17 C16 1_555 1_555
C17_2 C10_2 1_555 1_555
H18_2 C17_2 1_555 1_555
C18_2 C13_2 1_555 1_555
H19_2 C18_2 1_555 1_555
H20_2 C18_2 1_555 1_555
N3 Cu1 1_555 1_555
C20 H21 1_555 1_555
C25 N3 1_555 1_555
H27 C25 1_555 1_555
N4 Cu1 1_555 1_555
C29 H31 1_555 1_555
C34 N4 1_555 1_555
H37 C34 1_555 1_555
C2 C7 1_555 1_555
C3_2 C4_2 1_555 1_555
C4_2 C5_2 1_555 1_555
C6_2 C8_2 1_555 1_555
C11 C16 1_555 1_555
C12_2 C13_2 1_555 1_555
C13_2 C14_2 1_555 1_555
C15_2 C17_2 1_555 1_555
C20 C25 1_555 1_555
C29 C34 1_555 1_555
O12_4 V5 1_555 1_555
O19 V5 1_555 1_555
V14 O12_4 1_555 1_555
O52 V5 1_555 1_555
V14 O44 1_555 1_555
V14 O52 1_555 1_555
V14 O22_2 1_555 1_555
O29_2 V14 1_555 1_555
Cu1_2 N1_2 1_555 1_555
C2_2 H1_2 1_555 1_555
C7_2 N1_2 1_555 1_555
H7_2 C7_2 1_555 1_555
N2_2 Cu1_2 1_555 1_555
C11_2 H11_2 1_555 1_555
C16_2 N2_2 1_555 1_555
H17_2 C16_2 1_555 1_555
V8 O21_2 1_555 1_555
N3_2 Cu1_2 1_555 1_555
O21_2 C27_2 1_555 1_555
O28_2 V8 1_555 1_555
C19_2 C20_2 1_555 1_555
C20_2 H21_2 1_555 1_555
C21_2 O24_2 1_555 1_555
H22_2 C21_2 1_555 1_555
H23_2 C21_2 1_555 1_555
C22_2 C19_2 1_555 1_555
H24_2 C23_2 1_555 1_555
H25_2 C23_2 1_555 1_555
C24_2 N3_2 1_555 1_555
H26_2 C24_2 1_555 1_555
C25_2 N3_2 1_555 1_555
H27_2 C25_2 1_555 1_555
C26_2 C19_2 1_555 1_555
H28_2 C26_2 1_555 1_555
C27_2 C22_2 1_555 1_555
H29_2 C27_2 1_555 1_555
H30_2 C27_2 1_555 1_555
V10 O31_2 1_555 1_555
N4_2 Cu1_2 1_555 1_555
O30_2 C36_2 1_555 1_555
O32 V10 1_555 1_555
O33_2 V10 1_555 1_555
O38_2 V10 1_555 1_555
C28_2 C29_2 1_555 1_555
C29_2 H31_2 1_555 1_555
C30_2 O33_2 1_555 1_555
H32_2 C30_2 1_555 1_555
H33_2 C30_2 1_555 1_555
C31_2 C28_2 1_555 1_555
C32_2 O31_2 1_555 1_555
H34_2 C32_2 1_555 1_555
H35_2 C32_2 1_555 1_555
C33_2 N4_2 1_555 1_555
H36_2 C33_2 1_555 1_555
C34_2 N4_2 1_555 1_555
H37_2 C34_2 1_555 1_555
C35_2 C28_2 1_555 1_555
H38_2 C35_2 1_555 1_555
C36_2 C31_2 1_555 1_555
H39_2 C36_2 1_555 1_555
H40_2 C36_2 1_555 1_555
O40_3 V10 1_555 1_555
O49 V8 1_555 1_555
C2_2 C7_2 1_555 1_555
C11_2 C16_2 1_555 1_555
V8 O39_3 1_555 1_555
C20_2 C25_2 1_555 1_555
C21_2 C22_2 1_555 1_555
C22_2 C23_2 1_555 1_555
C24_2 C26_2 1_555 1_555
C29_2 C34_2 1_555 1_555
C30_2 C31_2 1_555 1_555
C31_2 C32_2 1_555 1_555
C33_2 C35_2 1_555 1_555
O25 V9 1_555 1_555
O27_2 V9 1_555 1_555
O34 V12 1_555 1_555
O36_2 V12 1_555 1_555
V16 O34 1_555 1_555
O41 V9 1_555 1_555
V9 O39_4 1_555 1_555
V12 O40_4 1_555 1_555
O35 V16 1_555 1_555
V16 O40_4 1_555 1_555
V1_2 O39_4 1_555 1_555
O3_2 V1_2 1_555 1_555
O41 V1_2 1_555 1_555
O10_2 V1_2 1_555 1_555
O19_2 V16 1_555 1_555

#END
