
###############################################################################
#
# This file contains modified crystal structure data generated from the
# MOF subset of the Cambridge Structural Database (CSD) v543 
# hosted by the Cambridge Crystallographic Data Centre (CCDC).
#
# This work is licensed under the Creative Commons
# Attribution-NonCommercial-ShareAlike 4.0 International License.
# To view a copy of this license, visit
# http://creativecommons.org/licenses/by-nc-sa/4.0/
# or send a letter to
# Creative Commons, PO Box 1866, Mountain View, CA 94042, USA.
#
# CIF created using the CSD Python API on 29 September 2022
# The structure has been converted into the P1 space group
# The structure has a 3D framework
# The original CSD entry SIGKOL is in the monoclinic crystal system
# The framework has been calculated to contain at least 10.0% void space
# The void calculation uses a probe of radius 1.32A, grid spacing 0.4
#
###############################################################################

data_SIGKOL
_chemical_formula_moiety         '(C200 H144 N12 O40 Zn8)n'
_symmetry_cell_setting           triclinic
_symmetry_space_group_name_H-M   'P 1'
_symmetry_Int_Tables_number      1
_space_group_name_Hall           'P 1'
loop_
_symmetry_equiv_pos_site_id
_symmetry_equiv_pos_as_xyz
1 x,y,z
_cell_length_a                   14.6564(9)
_cell_length_b                   25.3323(10)
_cell_length_c                   15.9430(8)
_cell_angle_alpha                90
_cell_angle_beta                 109.865(6)
_cell_angle_gamma                90
_cell_volume                     5567.1
loop_
_atom_site_label
_atom_site_type_symbol
_atom_site_fract_x
_atom_site_fract_y
_atom_site_fract_z
Zn4 Zn 0.42221(2) 0.00358(2) 0.13904(2)
Zn1 Zn 0.07779(2) 0.50358(2) 0.36096(2)
O1 O 0.47058(10) 0.93016(5) 0.14045(9)
O2 O 0.04026(11) 0.54525(6) 0.14329(10)
O3 O 0.32541(12) 0.93087(5) 0.15011(11)
N1 N 0.16398(12) 0.52450(6) 0.48663(11)
O4 O 0.39806(11) 0.68345(5) 0.13402(11)
O5 O 0.13176(11) 0.54618(6) 0.28679(10)
C1 C 0.39617(14) 0.90602(7) 0.14529(11)
C2 C 0.18864(13) 0.59182(6) 0.18691(11)
C3 C 0.39622(13) 0.84730(6) 0.14379(11)
C4 C 0.11409(13) 0.55827(6) 0.20668(12)
N2 N 0.39100(16) 0.53079(8) 0.80530(14)
H1 H 0.355(2) 0.5031(8) 0.795(2)
C5 C 0.32657(14) 0.65377(7) 0.15223(14)
C6 C 0.39229(14) 0.73774(7) 0.13778(13)
C7 C 0.47173(14) 0.81933(7) 0.13104(14)
H2 H 0.523942 0.837582 0.124473
C8 C 0.31882(14) 0.81921(7) 0.15353(14)
H3 H 0.267716 0.837500 0.162201
C9 C 0.12643(14) 0.54829(9) 0.54271(13)
H4 H 0.060096 0.554957 0.523263
C10 C 0.18178(15) 0.56323(9) 0.62770(14)
H5 H 0.152523 0.578942 0.664824
C11 C 0.31638(14) 0.76475(7) 0.15058(15)
H6 H 0.264174 0.746492 0.157145
C12 C 0.26592(15) 0.61198(9) 0.25551(13)
H7 H 0.271687 0.604462 0.314189
C13 C 0.47086(15) 0.76482(8) 0.12790(15)
H8 H 0.521922 0.746452 0.119327
C14 C 0.18215(17) 0.60286(10) 0.10019(13)
H9 H 0.130619 0.589461 0.053032
C15 C 0.28028(15) 0.55497(9) 0.65782(15)
C16 C 0.33498(16) 0.64318(9) 0.23858(14)
H10 H 0.386588 0.656821 0.285394
C17 C 0.25974(17) 0.51354(11) 0.51837(18)
H11 H 0.286976 0.495474 0.481888
C18 C 0.25178(19) 0.63374(11) 0.08290(14)
H12 H 0.247510 0.640736 0.024420
C20 C 0.43720(14) 0.53971(10) 0.89631(15)
C21 C 0.34227(18) 0.57357(10) 0.74920(17)
H13 H 0.390057 0.598463 0.743394
H14 H 0.301758 0.591826 0.776955
C23 C 0.44768(18) 0.59007(10) 0.93203(18)
H16 H 0.425386 0.619014 0.894792
C24 C 0.31861(17) 0.52796(13) 0.60233(19)
H17 H 0.384272 0.519542 0.621784
C30 C 0.47674(15) 0.49578(8) 0.95349(16)
C33 C 0.47246(19) 0.44360(10) 0.92022(17)
H25 H 0.444710 0.437474 0.859277
C36 C 0.5085(2) 0.40243(11) 0.9764(2)
H28 H 0.503748 0.368455 0.953167
O12 O 0.02942(10) 0.43016(5) 0.35955(9)
O14 O 0.17459(12) 0.43087(5) 0.34989(11)
Zn3 Zn 0.57779(2) 0.00358(2) 0.36096(2)
Zn2 Zn 0.92221(2) 0.50358(2) 0.13904(2)
O6 O 0.52942(10) 0.93016(5) 0.35955(9)
O7 O 0.95974(11) 0.54525(6) 0.35671(10)
O8 O 0.67459(12) 0.93087(5) 0.34989(11)
O9 O 0.60194(11) 0.68345(5) 0.36598(11)
O10 O 0.86824(11) 0.54618(6) 0.21321(10)
C37 C 0.60383(14) 0.90602(7) 0.35471(11)
C38 C 0.81136(13) 0.59182(6) 0.31309(11)
C39 C 0.60378(13) 0.84730(6) 0.35621(11)
C40 C 0.88591(13) 0.55827(6) 0.29332(12)
C41 C 0.67343(14) 0.65377(7) 0.34777(14)
C42 C 0.60771(14) 0.73774(7) 0.36222(13)
C43 C 0.52827(14) 0.81933(7) 0.36896(14)
H29 H 0.476058 0.837582 0.375527
C44 C 0.68118(14) 0.81921(7) 0.34647(14)
H30 H 0.732284 0.837500 0.337799
C45 C 0.68362(14) 0.76475(7) 0.34942(15)
H31 H 0.735826 0.746492 0.342855
C46 C 0.73408(15) 0.61198(9) 0.24449(13)
H32 H 0.728313 0.604462 0.185811
C47 C 0.52914(15) 0.76482(8) 0.37210(15)
H33 H 0.478078 0.746452 0.380673
C48 C 0.81785(17) 0.60286(10) 0.39981(13)
H34 H 0.869381 0.589461 0.446968
C49 C 0.66502(16) 0.64318(9) 0.26142(14)
H35 H 0.613412 0.656821 0.214606
C50 C 0.74822(19) 0.63374(11) 0.41710(14)
H36 H 0.752490 0.640736 0.475580
O11 O 0.97058(10) 0.43016(5) 0.14045(9)
O13 O 0.82541(12) 0.43087(5) 0.15011(11)
N5 N 0.83602(12) 0.52450(6) 0.01337(11)
H11_2 H 0.713024 0.495474 0.018112
O2_2 O 0.54026(11) 0.04525(6) 0.14329(10)
N1_2 N 0.66398(12) 0.02450(6) 0.48663(11)
O4_2 O 0.89806(11) 0.18345(5) 0.13402(11)
O5_2 O 0.63176(11) 0.04618(6) 0.28679(10)
C1_2 C 0.89617(14) 0.40602(7) 0.14529(11)
C2_2 C 0.68864(13) 0.09182(6) 0.18691(11)
C3_2 C 0.89622(13) 0.34730(6) 0.14379(11)
C4_2 C 0.61409(13) 0.05827(6) 0.20668(12)
N2_2 N 0.89100(16) 0.03079(8) 0.80530(14)
H1_2 H 0.855(2) 0.0031(8) 0.795(2)
C5_2 C 0.82657(14) 0.15377(7) 0.15223(14)
C6_2 C 0.89229(14) 0.23774(7) 0.13778(13)
C7_2 C 0.97173(14) 0.31933(7) 0.13104(14)
C8_2 C 0.81882(14) 0.31921(7) 0.15353(14)
H3_2 H 0.767716 0.337500 0.162201
C9_2 C 0.62643(14) 0.04829(9) 0.54271(13)
H4_2 H 0.560096 0.054957 0.523263
C10_2 C 0.68178(15) 0.06323(9) 0.62770(14)
H5_2 H 0.652523 0.078942 0.664824
C11_2 C 0.81638(14) 0.26475(7) 0.15058(15)
H6_2 H 0.764174 0.246492 0.157145
C12_2 C 0.76592(15) 0.11198(9) 0.25551(13)
H7_2 H 0.771687 0.104462 0.314189
C13_2 C 0.97086(15) 0.26482(8) 0.12790(15)
C14_2 C 0.68215(17) 0.10286(10) 0.10019(13)
H9_2 H 0.630619 0.089461 0.053032
C15_2 C 0.78028(15) 0.05497(9) 0.65782(15)
C16_2 C 0.83498(16) 0.14318(9) 0.23858(14)
H10_2 H 0.886588 0.156821 0.285394
C17_2 C 0.75974(17) 0.01354(11) 0.51837(18)
C18_2 C 0.75178(19) 0.13374(11) 0.08290(14)
H12_2 H 0.747510 0.140736 0.024420
C20_2 C 0.93720(14) 0.03971(10) 0.89631(15)
C21_2 C 0.84227(18) 0.07357(10) 0.74920(17)
H13_2 H 0.890057 0.098463 0.743394
H14_2 H 0.801758 0.091826 0.776955
C23_2 C 0.94768(18) 0.09007(10) 0.93203(18)
H16_2 H 0.925386 0.119014 0.894792
C24_2 C 0.81861(17) 0.02796(13) 0.60233(19)
H17_2 H 0.884272 0.019542 0.621784
O7_2 O 0.45974(11) 0.04525(6) 0.35671(10)
O9_2 O 0.10194(11) 0.18345(5) 0.36598(11)
O10_2 O 0.36824(11) 0.04618(6) 0.21321(10)
C37_2 C 0.10383(14) 0.40602(7) 0.35471(11)
C38_2 C 0.31136(13) 0.09182(6) 0.31309(11)
C39_2 C 0.10378(13) 0.34730(6) 0.35621(11)
C40_2 C 0.38591(13) 0.05827(6) 0.29332(12)
C41_2 C 0.17343(14) 0.15377(7) 0.34777(14)
C42_2 C 0.10771(14) 0.23774(7) 0.36222(13)
C43_2 C 0.02827(14) 0.31933(7) 0.36896(14)
C44_2 C 0.18118(14) 0.31921(7) 0.34647(14)
H30_2 H 0.232284 0.337500 0.337799
C45_2 C 0.18362(14) 0.26475(7) 0.34942(15)
H31_2 H 0.235826 0.246492 0.342855
C46_2 C 0.23408(15) 0.11198(9) 0.24449(13)
H32_2 H 0.228313 0.104462 0.185811
C47_2 C 0.02914(15) 0.26482(8) 0.37210(15)
C48_2 C 0.31785(17) 0.10286(10) 0.39981(13)
H34_2 H 0.369381 0.089461 0.446968
C49_2 C 0.16502(16) 0.14318(9) 0.26142(14)
H35_2 H 0.113412 0.156821 0.214606
C50_2 C 0.24822(19) 0.13374(11) 0.41710(14)
H36_2 H 0.252490 0.140736 0.475580
N5_2 N 0.33602(12) 0.02450(6) 0.01337(11)
H11_3 H 0.786976 0.995474 0.481888
C30_2 C 0.97674(15) 0.99578(8) 0.95349(16)
C33_2 C 0.97246(19) 0.94360(10) 0.92022(17)
H25_2 H 0.944710 0.937474 0.859277
H11_4 H 0.213024 0.995474 0.018112
C19 C 0.52326(15) 0.50422(8) 0.04651(16)
C22 C 0.52754(19) 0.55640(10) 0.07978(17)
H15 H 0.555290 0.562526 0.140723
C25 C 0.4915(2) 0.59757(11) 0.0236(2)
H18 H 0.496252 0.631545 0.046833
N3 N 0.83602(12) 0.47550(6) 0.51337(11)
N4 N 0.60900(16) 0.46921(8) 0.19470(14)
H19 H 0.645(2) 0.4969(8) 0.205(2)
C26 C 0.87357(14) 0.45171(9) 0.45729(13)
H20 H 0.939904 0.445043 0.476737
C27 C 0.81822(15) 0.43677(9) 0.37230(14)
H21 H 0.847477 0.421058 0.335176
C28 C 0.71972(15) 0.44503(9) 0.34218(15)
C29 C 0.74026(17) 0.48646(11) 0.48163(18)
H22 H 0.713024 0.504526 0.518112
C31 C 0.56280(14) 0.46029(10) 0.10369(15)
C32 C 0.65773(18) 0.42643(10) 0.25080(17)
H23 H 0.609943 0.401537 0.256606
H24 H 0.698242 0.408174 0.223045
C34 C 0.55232(18) 0.40993(10) 0.06797(18)
H26 H 0.574614 0.380986 0.105208
C35 C 0.68139(17) 0.47204(13) 0.39767(19)
H27 H 0.615728 0.480458 0.378216
Zn5 Zn 0.92221(2) 0.49642(2) 0.63904(2)
N3_2 N 0.16398(12) 0.47550(6) 0.98663(11)
H22_2 H 0.286976 0.504526 0.981888
Zn5_2 Zn 0.07779(2) 0.49642(2) 0.86096(2)
C19_2 C 0.02326(15) 0.00422(8) 0.04651(16)
C22_2 C 0.02754(19) 0.05640(10) 0.07978(17)
H15_2 H 0.055290 0.062526 0.140723
H22_3 H 0.213024 0.004526 0.518112
N3_3 N 0.33602(12) 0.97550(6) 0.51337(11)
N4_2 N 0.10900(16) 0.96921(8) 0.19470(14)
H19_2 H 0.145(2) 0.9969(8) 0.205(2)
C26_2 C 0.37357(14) 0.95171(9) 0.45729(13)
H20_2 H 0.439904 0.945043 0.476737
C27_2 C 0.31822(15) 0.93677(9) 0.37230(14)
H21_2 H 0.347477 0.921058 0.335176
C28_2 C 0.21972(15) 0.94503(9) 0.34218(15)
C29_2 C 0.24026(17) 0.98646(11) 0.48163(18)
C31_2 C 0.06280(14) 0.96029(10) 0.10369(15)
C32_2 C 0.15773(18) 0.92643(10) 0.25080(17)
H23_2 H 0.109943 0.901537 0.256606
H24_2 H 0.198242 0.908174 0.223045
C34_2 C 0.05232(18) 0.90993(10) 0.06797(18)
H26_2 H 0.074614 0.880986 0.105208
C35_2 C 0.18139(17) 0.97204(13) 0.39767(19)
H27_2 H 0.115728 0.980458 0.378216
Zn5_3 Zn 0.42221(2) 0.99642(2) 0.63904(2)
H22_4 H 0.786976 0.004526 0.981888
N3_4 N 0.66398(12) 0.97550(6) 0.98663(11)
Zn5_4 Zn 0.57779(2) 0.99642(2) 0.86096(2)
O6_2 O 0.47058(10) 0.06984(5) 0.64045(9)
O7_3 O 0.04026(11) 0.45475(6) 0.64329(10)
O8_2 O 0.32541(12) 0.06913(5) 0.65011(11)
O9_3 O 0.39806(11) 0.31655(5) 0.63402(11)
O10_3 O 0.13176(11) 0.45382(6) 0.78679(10)
C37_3 C 0.39617(14) 0.09398(7) 0.64529(11)
C38_3 C 0.18864(13) 0.40818(6) 0.68691(11)
C39_3 C 0.39622(13) 0.15270(6) 0.64379(11)
C40_3 C 0.11409(13) 0.44173(6) 0.70668(12)
C41_3 C 0.32657(14) 0.34623(7) 0.65223(14)
C42_3 C 0.39229(14) 0.26226(7) 0.63778(13)
C43_3 C 0.47173(14) 0.18067(7) 0.63104(14)
H29_2 H 0.523942 0.162418 0.624473
C44_3 C 0.31882(14) 0.18079(7) 0.65353(14)
H30_3 H 0.267716 0.162500 0.662201
C45_3 C 0.31638(14) 0.23525(7) 0.65058(15)
H31_3 H 0.264174 0.253508 0.657145
C46_3 C 0.26592(15) 0.38802(9) 0.75551(13)
H32_3 H 0.271687 0.395538 0.814189
C47_3 C 0.47086(15) 0.23518(8) 0.62790(15)
H33_2 H 0.521922 0.253548 0.619327
C48_3 C 0.18215(17) 0.39714(10) 0.60019(13)
H34_3 H 0.130619 0.410539 0.553032
C49_3 C 0.33498(16) 0.35682(9) 0.73858(14)
H35_3 H 0.386588 0.343179 0.785394
C50_3 C 0.25178(19) 0.36626(11) 0.58290(14)
H36_3 H 0.247510 0.359264 0.524420
O11_2 O 0.02942(10) 0.56984(5) 0.85955(9)
O13_2 O 0.17459(12) 0.56913(5) 0.84989(11)
O1_2 O 0.52942(10) 0.06984(5) 0.85955(9)
O2_3 O 0.95974(11) 0.45475(6) 0.85671(10)
O3_2 O 0.67459(12) 0.06913(5) 0.84989(11)
O4_3 O 0.60194(11) 0.31655(5) 0.86598(11)
O5_3 O 0.86824(11) 0.45382(6) 0.71321(10)
C1_3 C 0.60383(14) 0.09398(7) 0.85471(11)
C2_3 C 0.81136(13) 0.40818(6) 0.81309(11)
C3_3 C 0.60378(13) 0.15270(6) 0.85621(11)
C4_3 C 0.88591(13) 0.44173(6) 0.79332(12)
C5_3 C 0.67343(14) 0.34623(7) 0.84777(14)
C6_3 C 0.60771(14) 0.26226(7) 0.86222(13)
C7_3 C 0.52827(14) 0.18067(7) 0.86896(14)
H2_2 H 0.476058 0.162418 0.875527
C8_3 C 0.68118(14) 0.18079(7) 0.84647(14)
H3_3 H 0.732284 0.162500 0.837799
C11_3 C 0.68362(14) 0.23525(7) 0.84942(15)
H6_3 H 0.735826 0.253508 0.842855
C12_3 C 0.73408(15) 0.38802(9) 0.74449(13)
H7_3 H 0.728313 0.395538 0.685811
C13_3 C 0.52914(15) 0.23518(8) 0.87210(15)
H8_2 H 0.478078 0.253548 0.880673
C14_3 C 0.81785(17) 0.39714(10) 0.89981(13)
H9_3 H 0.869381 0.410539 0.946968
C16_3 C 0.66502(16) 0.35682(9) 0.76142(14)
H10_3 H 0.613412 0.343179 0.714606
C18_3 C 0.74822(19) 0.36626(11) 0.91710(14)
H12_3 H 0.752490 0.359264 0.975580
O12_2 O 0.97058(10) 0.56984(5) 0.64045(9)
O14_2 O 0.82541(12) 0.56913(5) 0.65011(11)
O2_4 O 0.45974(11) 0.95475(6) 0.85671(10)
O4_4 O 0.10194(11) 0.81655(5) 0.86598(11)
O5_4 O 0.36824(11) 0.95382(6) 0.71321(10)
C1_4 C 0.10383(14) 0.59398(7) 0.85471(11)
C2_4 C 0.31136(13) 0.90818(6) 0.81309(11)
C3_4 C 0.10378(13) 0.65270(6) 0.85621(11)
C4_4 C 0.38591(13) 0.94173(6) 0.79332(12)
C5_4 C 0.17343(14) 0.84623(7) 0.84777(14)
C6_4 C 0.10771(14) 0.76226(7) 0.86222(13)
C7_4 C 0.02827(14) 0.68067(7) 0.86896(14)
C8_4 C 0.18118(14) 0.68079(7) 0.84647(14)
H3_4 H 0.232284 0.662500 0.837799
C11_4 C 0.18362(14) 0.73525(7) 0.84942(15)
H6_4 H 0.235826 0.753508 0.842855
C12_4 C 0.23408(15) 0.88802(9) 0.74449(13)
H7_4 H 0.228313 0.895538 0.685811
C13_4 C 0.02914(15) 0.73518(8) 0.87210(15)
C14_4 C 0.31785(17) 0.89714(10) 0.89981(13)
H9_4 H 0.369381 0.910539 0.946968
C16_4 C 0.16502(16) 0.85682(9) 0.76142(14)
H10_4 H 0.113412 0.843179 0.714606
C18_4 C 0.24822(19) 0.86626(11) 0.91710(14)
H12_4 H 0.252490 0.859264 0.975580
O7_4 O 0.54026(11) 0.95475(6) 0.64329(10)
O9_4 O 0.89806(11) 0.81655(5) 0.63402(11)
O10_4 O 0.63176(11) 0.95382(6) 0.78679(10)
C37_4 C 0.89617(14) 0.59398(7) 0.64529(11)
C38_4 C 0.68864(13) 0.90818(6) 0.68691(11)
C39_4 C 0.89622(13) 0.65270(6) 0.64379(11)
C40_4 C 0.61409(13) 0.94173(6) 0.70668(12)
C41_4 C 0.82657(14) 0.84623(7) 0.65223(14)
C42_4 C 0.89229(14) 0.76226(7) 0.63778(13)
C43_4 C 0.97173(14) 0.68067(7) 0.63104(14)
C44_4 C 0.81882(14) 0.68079(7) 0.65353(14)
H30_4 H 0.767716 0.662500 0.662201
C45_4 C 0.81638(14) 0.73525(7) 0.65058(15)
H31_4 H 0.764174 0.753508 0.657145
C46_4 C 0.76592(15) 0.88802(9) 0.75551(13)
H32_4 H 0.771687 0.895538 0.814189
C47_4 C 0.97086(15) 0.73518(8) 0.62790(15)
C48_4 C 0.68215(17) 0.89714(10) 0.60019(13)
H34_4 H 0.630619 0.910539 0.553032
C49_4 C 0.83498(16) 0.85682(9) 0.73858(14)
H35_4 H 0.886588 0.843179 0.785394
C50_4 C 0.75178(19) 0.86626(11) 0.58290(14)
H36_4 H 0.747510 0.859264 0.524420
N2_3 N 0.60900(16) 0.53079(8) 0.69470(14)
H1_3 H 0.645(2) 0.5031(8) 0.705(2)
C9_3 C 0.87357(14) 0.54829(9) 0.95729(13)
H4_3 H 0.939904 0.554957 0.976737
C10_3 C 0.81822(15) 0.56323(9) 0.87230(14)
H5_3 H 0.847477 0.578942 0.835176
C15_3 C 0.71972(15) 0.55497(9) 0.84218(15)
C17_3 C 0.74026(17) 0.51354(11) 0.98163(18)
C19_3 C 0.47674(15) 0.50422(8) 0.45349(16)
C20_3 C 0.56280(14) 0.53971(10) 0.60369(15)
C21_3 C 0.65773(18) 0.57357(10) 0.75080(17)
H13_3 H 0.609943 0.598463 0.756606
H14_3 H 0.698242 0.591826 0.723045
C22_3 C 0.47246(19) 0.55640(10) 0.42022(17)
H15_3 H 0.444710 0.562526 0.359277
C23_3 C 0.55232(18) 0.59007(10) 0.56797(18)
H16_3 H 0.574614 0.619014 0.605208
C24_3 C 0.68139(17) 0.52796(13) 0.89767(19)
H17_3 H 0.615728 0.519542 0.878216
C25_2 C 0.5085(2) 0.59757(11) 0.4764(2)
H18_2 H 0.503748 0.631545 0.453167
N4_3 N 0.39100(16) 0.46921(8) 0.30530(14)
H19_3 H 0.355(2) 0.4969(8) 0.295(2)
C26_3 C 0.12643(14) 0.45171(9) 0.04271(13)
H20_3 H 0.060096 0.445043 0.023263
C27_3 C 0.18178(15) 0.43677(9) 0.12770(14)
H21_3 H 0.152523 0.421058 0.164824
C28_3 C 0.28028(15) 0.44503(9) 0.15782(15)
C29_3 C 0.25974(17) 0.48646(11) 0.01837(18)
C30_3 C 0.52326(15) 0.49578(8) 0.54651(16)
C31_3 C 0.43720(14) 0.46029(10) 0.39631(15)
C32_3 C 0.34227(18) 0.42643(10) 0.24920(17)
H23_3 H 0.390057 0.401537 0.243394
H24_3 H 0.301758 0.408174 0.276955
C33_3 C 0.52754(19) 0.44360(10) 0.57978(17)
H25_3 H 0.555290 0.437474 0.640723
C34_3 C 0.44768(18) 0.40993(10) 0.43203(18)
H26_3 H 0.425386 0.380986 0.394792
C35_3 C 0.31861(17) 0.47204(13) 0.10233(19)
H27_3 H 0.384272 0.480458 0.121784
C36_2 C 0.4915(2) 0.40243(11) 0.5236(2)
H28_2 H 0.496252 0.368455 0.546833
H2_3 H 0.023942 0.337582 0.124473
H8_3 H 0.021922 0.246452 0.119327
C36_3 C 0.0085(2) 0.90243(11) 0.9764(2)
H28_3 H 0.003748 0.868455 0.953167
C25_3 C 0.9915(2) 0.09757(11) 0.0236(2)
H18_3 H 0.996252 0.131545 0.046833
H29_3 H 0.976058 0.337582 0.375527
H33_3 H 0.978078 0.246452 0.380673
N2_4 N 0.10900(16) 0.03079(8) 0.69470(14)
H1_4 H 0.145(2) 0.0031(8) 0.705(2)
C9_4 C 0.37357(14) 0.04829(9) 0.95729(13)
H4_4 H 0.439904 0.054957 0.976737
C10_4 C 0.31822(15) 0.06323(9) 0.87230(14)
H5_4 H 0.347477 0.078942 0.835176
C15_4 C 0.21972(15) 0.05497(9) 0.84218(15)
C17_4 C 0.24026(17) 0.01354(11) 0.98163(18)
C20_4 C 0.06280(14) 0.03971(10) 0.60369(15)
C21_4 C 0.15773(18) 0.07357(10) 0.75080(17)
H13_4 H 0.109943 0.098463 0.756606
H14_4 H 0.198242 0.091826 0.723045
C23_4 C 0.05232(18) 0.09007(10) 0.56797(18)
H16_4 H 0.074614 0.119014 0.605208
C24_4 C 0.18139(17) 0.02796(13) 0.89767(19)
H17_4 H 0.115728 0.019542 0.878216
C25_4 C 0.0085(2) 0.09757(11) 0.4764(2)
H18_4 H 0.003748 0.131545 0.453167
C30_4 C 0.02326(15) 0.99578(8) 0.54651(16)
C33_4 C 0.02754(19) 0.94360(10) 0.57978(17)
H25_4 H 0.055290 0.937474 0.640723
C19_4 C 0.97674(15) 0.00422(8) 0.45349(16)
C22_4 C 0.97246(19) 0.05640(10) 0.42022(17)
H15_4 H 0.944710 0.062526 0.359277
N4_4 N 0.89100(16) 0.96921(8) 0.30530(14)
H19_4 H 0.855(2) 0.9969(8) 0.295(2)
C26_4 C 0.62643(14) 0.95171(9) 0.04271(13)
H20_4 H 0.560096 0.945043 0.023263
C27_4 C 0.68178(15) 0.93677(9) 0.12770(14)
H21_4 H 0.652523 0.921058 0.164824
C28_4 C 0.78028(15) 0.94503(9) 0.15782(15)
C29_4 C 0.75974(17) 0.98646(11) 0.01837(18)
C31_4 C 0.93720(14) 0.96029(10) 0.39631(15)
C32_4 C 0.84227(18) 0.92643(10) 0.24920(17)
H23_4 H 0.890057 0.901537 0.243394
H24_4 H 0.801758 0.908174 0.276955
C34_4 C 0.94768(18) 0.90993(10) 0.43203(18)
H26_4 H 0.925386 0.880986 0.394792
C35_4 C 0.81861(17) 0.97204(13) 0.10233(19)
H27_4 H 0.884272 0.980458 0.121784
C36_4 C 0.9915(2) 0.90243(11) 0.5236(2)
H28_4 H 0.996252 0.868455 0.546833
H29_4 H 0.023942 0.662418 0.624473
H33_4 H 0.021922 0.753548 0.619327
H2_4 H 0.976058 0.662418 0.875527
H8_4 H 0.978078 0.753548 0.880673
loop_
_geom_bond_atom_site_label_1
_geom_bond_atom_site_label_2
_geom_bond_site_symmetry_1
_geom_bond_site_symmetry_2
Zn1 N1 1_555 1_555
O1 C1 1_555 1_555
O2 C4 1_555 1_555
O3 C1 1_555 1_555
N1 C9 1_555 1_555
O4 C5 1_555 1_555
O5 Zn1 1_555 1_555
C1 C3 1_555 1_555
C2 C4 1_555 1_555
C3 C7 1_555 1_555
C4 O5 1_555 1_555
N2 H1 1_555 1_555
C5 C16 1_555 1_555
C6 O4 1_555 1_555
C7 H2 1_555 1_555
C8 C3 1_555 1_555
H3 C8 1_555 1_555
C9 H4 1_555 1_555
C10 C9 1_555 1_555
H5 C10 1_555 1_555
C11 C6 1_555 1_555
H6 C11 1_555 1_555
C12 C2 1_555 1_555
H7 C12 1_555 1_555
C13 C6 1_555 1_555
H8 C13 1_555 1_555
C14 C2 1_555 1_555
H9 C14 1_555 1_555
C15 C10 1_555 1_555
C16 C12 1_555 1_555
H10 C16 1_555 1_555
C17 N1 1_555 1_555
H11 C17 1_555 1_555
C18 C5 1_555 1_555
H12 C18 1_555 1_555
C20 N2 1_555 1_555
C21 N2 1_555 1_555
H13 C21 1_555 1_555
H14 C21 1_555 1_555
C23 C20 1_555 1_555
H16 C23 1_555 1_555
C24 C15 1_555 1_555
H17 C24 1_555 1_555
C33 C30 1_555 1_555
H25 C33 1_555 1_555
C36 C33 1_555 1_555
H28 C36 1_555 1_555
O12 Zn1 1_555 1_555
O14 Zn1 1_555 1_555
C7 C13 1_555 1_555
C8 C11 1_555 1_555
C14 C18 1_555 1_555
C15 C21 1_555 1_555
C17 C24 1_555 1_555
C20 C30 1_555 1_555
O6 C37 1_555 1_555
O8 C37 1_555 1_555
O9 C41 1_555 1_555
O10 Zn2 1_555 1_555
C37 C39 1_555 1_555
C38 C40 1_555 1_555
C39 C43 1_555 1_555
C40 O7 1_555 1_555
C41 C49 1_555 1_555
C42 O9 1_555 1_555
C43 H29 1_555 1_555
C44 C39 1_555 1_555
H30 C44 1_555 1_555
C45 C42 1_555 1_555
H31 C45 1_555 1_555
C46 C38 1_555 1_555
H32 C46 1_555 1_555
C47 C42 1_555 1_555
H33 C47 1_555 1_555
C48 C38 1_555 1_555
H34 C48 1_555 1_555
C49 C46 1_555 1_555
H35 C49 1_555 1_555
C50 C41 1_555 1_555
H36 C50 1_555 1_555
O11 Zn2 1_555 1_555
O13 Zn2 1_555 1_555
N5 Zn2 1_555 1_555
O10 C40 1_555 1_555
C43 C47 1_555 1_555
C44 C45 1_555 1_555
C48 C50 1_555 1_555
Zn3 N1_2 1_555 1_555
O11 C1_2 1_555 1_555
O2_2 C4_2 1_555 1_555
O13 C1_2 1_555 1_555
N1_2 C9_2 1_555 1_555
O4_2 C5_2 1_555 1_555
O5_2 Zn3 1_555 1_555
C1_2 C3_2 1_555 1_555
C2_2 C4_2 1_555 1_555
C3_2 C7_2 1_555 1_555
C4_2 O5_2 1_555 1_555
N2_2 H1_2 1_555 1_555
C5_2 C16_2 1_555 1_555
C6_2 O4_2 1_555 1_555
C8_2 C3_2 1_555 1_555
H3_2 C8_2 1_555 1_555
C9_2 H4_2 1_555 1_555
C10_2 C9_2 1_555 1_555
H5_2 C10_2 1_555 1_555
C11_2 C6_2 1_555 1_555
H6_2 C11_2 1_555 1_555
C12_2 C2_2 1_555 1_555
H7_2 C12_2 1_555 1_555
C13_2 C6_2 1_555 1_555
C14_2 C2_2 1_555 1_555
H9_2 C14_2 1_555 1_555
C15_2 C10_2 1_555 1_555
C16_2 C12_2 1_555 1_555
H10_2 C16_2 1_555 1_555
C17_2 N1_2 1_555 1_555
C18_2 C5_2 1_555 1_555
H12_2 C18_2 1_555 1_555
C20_2 N2_2 1_555 1_555
C21_2 N2_2 1_555 1_555
H13_2 C21_2 1_555 1_555
H14_2 C21_2 1_555 1_555
C23_2 C20_2 1_555 1_555
H16_2 C23_2 1_555 1_555
C24_2 C15_2 1_555 1_555
H17_2 C24_2 1_555 1_555
Zn4 O2_2 1_555 1_555
O12 C37_2 1_555 1_555
O7_2 Zn3 1_555 1_555
O14 C37_2 1_555 1_555
O9_2 C41_2 1_555 1_555
O10_2 Zn4 1_555 1_555
C37_2 C39_2 1_555 1_555
C38_2 C40_2 1_555 1_555
C39_2 C43_2 1_555 1_555
C40_2 O7_2 1_555 1_555
C41_2 C49_2 1_555 1_555
C42_2 O9_2 1_555 1_555
C44_2 C39_2 1_555 1_555
H30_2 C44_2 1_555 1_555
C45_2 C42_2 1_555 1_555
H31_2 C45_2 1_555 1_555
C46_2 C38_2 1_555 1_555
H32_2 C46_2 1_555 1_555
C47_2 C42_2 1_555 1_555
C48_2 C38_2 1_555 1_555
H34_2 C48_2 1_555 1_555
C49_2 C46_2 1_555 1_555
H35_2 C49_2 1_555 1_555
C50_2 C41_2 1_555 1_555
H36_2 C50_2 1_555 1_555
N5_2 Zn4 1_555 1_555
C7_2 C13_2 1_555 1_555
C8_2 C11_2 1_555 1_555
C14_2 C18_2 1_555 1_555
C15_2 C21_2 1_555 1_555
C17_2 C24_2 1_555 1_555
O10_2 C40_2 1_555 1_555
C43_2 C47_2 1_555 1_555
C44_2 C45_2 1_555 1_555
C48_2 C50_2 1_555 1_555
C33_2 C30_2 1_555 1_555
H25_2 C33_2 1_555 1_555
C19 C22 1_555 1_555
C22 H15 1_555 1_555
C25 C22 1_555 1_555
H18 C25 1_555 1_555
N3 C26 1_555 1_555
N4 H19 1_555 1_555
C26 H20 1_555 1_555
C27 C26 1_555 1_555
H21 C27 1_555 1_555
C28 C27 1_555 1_555
C29 N3 1_555 1_555
H22 C29 1_555 1_555
C31 C19 1_555 1_555
C32 N4 1_555 1_555
H23 C32 1_555 1_555
H24 C32 1_555 1_555
C34 C31 1_555 1_555
H26 C34 1_555 1_555
C35 C28 1_555 1_555
H27 C35 1_555 1_555
Zn5 N3 1_555 1_555
N4 C31 1_555 1_555
C28 C32 1_555 1_555
C29 C35 1_555 1_555
Zn5_2 N3_2 1_555 1_555
C19_2 C22_2 1_555 1_555
C22_2 H15_2 1_555 1_555
N3_3 C26_2 1_555 1_555
N4_2 H19_2 1_555 1_555
C26_2 H20_2 1_555 1_555
C27_2 C26_2 1_555 1_555
H21_2 C27_2 1_555 1_555
C28_2 C27_2 1_555 1_555
C29_2 N3_3 1_555 1_555
C32_2 N4_2 1_555 1_555
H23_2 C32_2 1_555 1_555
H24_2 C32_2 1_555 1_555
C34_2 C31_2 1_555 1_555
H26_2 C34_2 1_555 1_555
C35_2 C28_2 1_555 1_555
H27_2 C35_2 1_555 1_555
Zn5_3 N3_3 1_555 1_555
N4_2 C31_2 1_555 1_555
C28_2 C32_2 1_555 1_555
C29_2 C35_2 1_555 1_555
Zn5_4 N3_4 1_555 1_555
O6_2 C37_3 1_555 1_555
O8_2 C37_3 1_555 1_555
O9_3 C41_3 1_555 1_555
O10_3 Zn5_2 1_555 1_555
C37_3 C39_3 1_555 1_555
C38_3 C40_3 1_555 1_555
C39_3 C43_3 1_555 1_555
C40_3 O7_3 1_555 1_555
C41_3 C49_3 1_555 1_555
C42_3 O9_3 1_555 1_555
C43_3 H29_2 1_555 1_555
C44_3 C39_3 1_555 1_555
H30_3 C44_3 1_555 1_555
C45_3 C42_3 1_555 1_555
H31_3 C45_3 1_555 1_555
C46_3 C38_3 1_555 1_555
H32_3 C46_3 1_555 1_555
C47_3 C42_3 1_555 1_555
H33_2 C47_3 1_555 1_555
C48_3 C38_3 1_555 1_555
H34_3 C48_3 1_555 1_555
C49_3 C46_3 1_555 1_555
H35_3 C49_3 1_555 1_555
C50_3 C41_3 1_555 1_555
H36_3 C50_3 1_555 1_555
O11_2 Zn5_2 1_555 1_555
O13_2 Zn5_2 1_555 1_555
O10_3 C40_3 1_555 1_555
C43_3 C47_3 1_555 1_555
C44_3 C45_3 1_555 1_555
C48_3 C50_3 1_555 1_555
O1_2 C1_3 1_555 1_555
O2_3 C4_3 1_555 1_555
O3_2 C1_3 1_555 1_555
O4_3 C5_3 1_555 1_555
O5_3 Zn5 1_555 1_555
C1_3 C3_3 1_555 1_555
C2_3 C4_3 1_555 1_555
C3_3 C7_3 1_555 1_555
C4_3 O5_3 1_555 1_555
C5_3 C16_3 1_555 1_555
C6_3 O4_3 1_555 1_555
C7_3 H2_2 1_555 1_555
C8_3 C3_3 1_555 1_555
H3_3 C8_3 1_555 1_555
C11_3 C6_3 1_555 1_555
H6_3 C11_3 1_555 1_555
C12_3 C2_3 1_555 1_555
H7_3 C12_3 1_555 1_555
C13_3 C6_3 1_555 1_555
H8_2 C13_3 1_555 1_555
C14_3 C2_3 1_555 1_555
H9_3 C14_3 1_555 1_555
C16_3 C12_3 1_555 1_555
H10_3 C16_3 1_555 1_555
C18_3 C5_3 1_555 1_555
H12_3 C18_3 1_555 1_555
O12_2 Zn5 1_555 1_555
O14_2 Zn5 1_555 1_555
C7_3 C13_3 1_555 1_555
C8_3 C11_3 1_555 1_555
C14_3 C18_3 1_555 1_555
O11_2 C1_4 1_555 1_555
O2_4 C4_4 1_555 1_555
O13_2 C1_4 1_555 1_555
O4_4 C5_4 1_555 1_555
O5_4 Zn5_3 1_555 1_555
C1_4 C3_4 1_555 1_555
C2_4 C4_4 1_555 1_555
C3_4 C7_4 1_555 1_555
C4_4 O5_4 1_555 1_555
C5_4 C16_4 1_555 1_555
C6_4 O4_4 1_555 1_555
C8_4 C3_4 1_555 1_555
H3_4 C8_4 1_555 1_555
C11_4 C6_4 1_555 1_555
H6_4 C11_4 1_555 1_555
C12_4 C2_4 1_555 1_555
H7_4 C12_4 1_555 1_555
C13_4 C6_4 1_555 1_555
C14_4 C2_4 1_555 1_555
H9_4 C14_4 1_555 1_555
C16_4 C12_4 1_555 1_555
H10_4 C16_4 1_555 1_555
C18_4 C5_4 1_555 1_555
H12_4 C18_4 1_555 1_555
Zn5_4 O2_4 1_555 1_555
O12_2 C37_4 1_555 1_555
O7_4 Zn5_3 1_555 1_555
O14_2 C37_4 1_555 1_555
O9_4 C41_4 1_555 1_555
O10_4 Zn5_4 1_555 1_555
C37_4 C39_4 1_555 1_555
C38_4 C40_4 1_555 1_555
C39_4 C43_4 1_555 1_555
C40_4 O7_4 1_555 1_555
C41_4 C49_4 1_555 1_555
C42_4 O9_4 1_555 1_555
C44_4 C39_4 1_555 1_555
H30_4 C44_4 1_555 1_555
C45_4 C42_4 1_555 1_555
H31_4 C45_4 1_555 1_555
C46_4 C38_4 1_555 1_555
H32_4 C46_4 1_555 1_555
C47_4 C42_4 1_555 1_555
C48_4 C38_4 1_555 1_555
H34_4 C48_4 1_555 1_555
C49_4 C46_4 1_555 1_555
H35_4 C49_4 1_555 1_555
C50_4 C41_4 1_555 1_555
H36_4 C50_4 1_555 1_555
C7_4 C13_4 1_555 1_555
C8_4 C11_4 1_555 1_555
C14_4 C18_4 1_555 1_555
O10_4 C40_4 1_555 1_555
C43_4 C47_4 1_555 1_555
C44_4 C45_4 1_555 1_555
C48_4 C50_4 1_555 1_555
N2_3 H1_3 1_555 1_555
C9_3 H4_3 1_555 1_555
C10_3 C9_3 1_555 1_555
H5_3 C10_3 1_555 1_555
C15_3 C10_3 1_555 1_555
C19_3 C22_3 1_555 1_555
C20_3 N2_3 1_555 1_555
C21_3 N2_3 1_555 1_555
H13_3 C21_3 1_555 1_555
H14_3 C21_3 1_555 1_555
C22_3 H15_3 1_555 1_555
C23_3 C20_3 1_555 1_555
H16_3 C23_3 1_555 1_555
C24_3 C15_3 1_555 1_555
H17_3 C24_3 1_555 1_555
C25_2 C22_3 1_555 1_555
H18_2 C25_2 1_555 1_555
N4_3 H19_3 1_555 1_555
C26_3 H20_3 1_555 1_555
C27_3 C26_3 1_555 1_555
H21_3 C27_3 1_555 1_555
C28_3 C27_3 1_555 1_555
C30_3 C19_3 1_555 1_555
C31_3 C19_3 1_555 1_555
C32_3 N4_3 1_555 1_555
H23_3 C32_3 1_555 1_555
H24_3 C32_3 1_555 1_555
C33_3 C30_3 1_555 1_555
H25_3 C33_3 1_555 1_555
C34_3 C31_3 1_555 1_555
H26_3 C34_3 1_555 1_555
C35_3 C28_3 1_555 1_555
H27_3 C35_3 1_555 1_555
C36_2 C33_3 1_555 1_555
H28_2 C36_2 1_555 1_555
C15_3 C21_3 1_555 1_555
C17_3 C24_3 1_555 1_555
C20_3 C30_3 1_555 1_555
C23_3 C25_2 1_555 1_555
N4_3 C31_3 1_555 1_555
C28_3 C32_3 1_555 1_555
C29_3 C35_3 1_555 1_555
C34_3 C36_2 1_555 1_555
H28_3 C36_3 1_555 1_555
H18_3 C25_3 1_555 1_555
N2_4 H1_4 1_555 1_555
C9_4 H4_4 1_555 1_555
C10_4 C9_4 1_555 1_555
H5_4 C10_4 1_555 1_555
C15_4 C10_4 1_555 1_555
C20_4 N2_4 1_555 1_555
C21_4 N2_4 1_555 1_555
H13_4 C21_4 1_555 1_555
H14_4 C21_4 1_555 1_555
C23_4 C20_4 1_555 1_555
H16_4 C23_4 1_555 1_555
C24_4 C15_4 1_555 1_555
H17_4 C24_4 1_555 1_555
H18_4 C25_4 1_555 1_555
C15_4 C21_4 1_555 1_555
C17_4 C24_4 1_555 1_555
C23_4 C25_4 1_555 1_555
C33_4 C30_4 1_555 1_555
H25_4 C33_4 1_555 1_555
C19_4 C22_4 1_555 1_555
C22_4 H15_4 1_555 1_555
N4_4 H19_4 1_555 1_555
C26_4 H20_4 1_555 1_555
C27_4 C26_4 1_555 1_555
H21_4 C27_4 1_555 1_555
C28_4 C27_4 1_555 1_555
C32_4 N4_4 1_555 1_555
H23_4 C32_4 1_555 1_555
H24_4 C32_4 1_555 1_555
C34_4 C31_4 1_555 1_555
H26_4 C34_4 1_555 1_555
C35_4 C28_4 1_555 1_555
H27_4 C35_4 1_555 1_555
H28_4 C36_4 1_555 1_555
N4_4 C31_4 1_555 1_555
C28_4 C32_4 1_555 1_555
C29_4 C35_4 1_555 1_555
C34_4 C36_4 1_555 1_555

#END
