
###############################################################################
#
# This file contains modified crystal structure data generated from the
# MOF subset of the Cambridge Structural Database (CSD) v543 
# hosted by the Cambridge Crystallographic Data Centre (CCDC).
#
# This work is licensed under the Creative Commons
# Attribution-NonCommercial-ShareAlike 4.0 International License.
# To view a copy of this license, visit
# http://creativecommons.org/licenses/by-nc-sa/4.0/
# or send a letter to
# Creative Commons, PO Box 1866, Mountain View, CA 94042, USA.
#
# CIF created using the CSD Python API on 29 September 2022
# The structure has been converted into the P1 space group
# The structure has a 3D framework
# The original CSD entry SIGLUS is in the monoclinic crystal system
# The framework has been calculated to contain at least 10.0% void space
# The void calculation uses a probe of radius 1.32A, grid spacing 0.4
#
###############################################################################

data_SIGLUS
_chemical_formula_moiety         '(C256 H160 Mn16 N32 O62 S16)n'
_symmetry_cell_setting           triclinic
_symmetry_space_group_name_H-M   'P 1'
_symmetry_Int_Tables_number      1
_space_group_name_Hall           'P 1'
loop_
_symmetry_equiv_pos_site_id
_symmetry_equiv_pos_as_xyz
1 x,y,z
_cell_length_a                   36.605(3)
_cell_length_b                   11.6017(9)
_cell_length_c                   16.0104(14)
_cell_angle_alpha                90
_cell_angle_beta                 90.281(5)
_cell_angle_gamma                90
_cell_volume                     6799.22
loop_
_atom_site_label
_atom_site_type_symbol
_atom_site_fract_x
_atom_site_fract_y
_atom_site_fract_z
H13 H 0.0187 0.0855 0.1233
H26 H 0.0186 0.2849 0.1192
H21 H 0.0041 0.9189 0.1874
H31 H 0.0014 0.7200 0.1928
O21 O 0.02059(7) 0.5181(2) 0.14699(15)
Mn12 Mn 0.03495(2) 0.49710(4) 0.89230(3)
N4 N 0.96645(8) 0.3082(2) 0.09308(19)
C25 C 0.99667(10) 0.1259(3) 0.1113(3)
C34 C 0.93552(10) 0.2493(3) 0.0776(2)
H18 H 0.9139 0.2917 0.0655
C35 C 0.96452(10) 0.0661(3) 0.0959(2)
C48 C 0.99631(10) 0.2453(3) 0.1090(3)
C51 C 0.93350(10) 0.1303(3) 0.0785(2)
H28 H 0.9109 0.0928 0.0673
Mn11 Mn 0.96505(2) 0.50290(4) 0.10770(3)
N8 N 0.52921(8) 0.2590(2) 0.90690(18)
C6 C 0.50125(10) 0.0773(3) 0.8756(2)
H2 H 0.4807 0.0366 0.8544
C9 C 0.53187(10) 0.0171(3) 0.9054(2)
C18 C 0.56097(10) 0.0835(3) 0.9355(2)
H8 H 0.5824 0.0469 0.9560
C28 C 0.50119(9) 0.1961(3) 0.8775(2)
H16 H 0.4802 0.2355 0.8570
C45 C 0.55860(10) 0.2014(3) 0.9354(2)
H23 H 0.5787 0.2445 0.9566
Mn6 Mn 0.53191(2) 0.45369(4) 0.89785(3)
N7 N 0.96136(8) 0.6972(2) 0.11050(19)
C4 C 0.93771(10) 0.8746(3) 0.0554(2)
H1 H 0.9206 0.9122 0.0199
C8 C 0.96283(10) 0.9385(3) 0.1013(2)
C40 C 0.98683(10) 0.8784(3) 0.1540(2)
C50 C 0.93783(10) 0.7557(3) 0.0617(2)
H27 H 0.9204 0.7133 0.0301
C55 C 0.98507(10) 0.7597(3) 0.1566(2)
O17 O 0.90242(7) 0.4884(2) 0.14552(15)
O22 O 0.94771(6) 0.4808(2) 0.23765(16)
Mn2 Mn 0.71696(2) 0.41797(4) 0.40444(3)
Mn3 Mn 0.78396(2) 0.36334(4) 0.61079(3)
S1 S 0.90893(2) 0.42071(7) 0.77226(6)
S2 S 0.65676(2) 0.39640(7) 0.74296(5)
S3 S 0.59190(2) 0.47883(8) 0.24016(5)
S4 S 0.84240(2) 0.44713(7) 0.27362(5)
O2 O 0.77194(6) 0.42272(19) 0.36382(15)
O3 O 0.55101(6) 0.4431(2) 0.76803(15)
O4 O 0.72956(6) 0.36415(19) 0.66113(15)
O5 O 0.52334(7) 0.5365(2) 0.14617(16)
O6 O 0.59419(7) 0.4311(2) 0.86499(15)
O7 O 0.54025(7) 0.4558(2) 0.02655(15)
O8 O 0.95690(7) 0.5204(2) 0.97905(15)
O9 O 0.69624(6) 0.4248(2) 0.27787(16)
O10 O 0.97941(7) 0.4819(2) 0.85301(15)
O11 O 0.71052(7) 0.4088(2) 0.53306(15)
O12 O 0.79592(7) 0.3524(2) 0.48231(15)
O13 O 0.80354(6) 0.3745(2) 0.74014(15)
O15 O 0.84744(7) 0.3748(2) 0.64645(15)
O16 O 0.65246(7) 0.4406(2) 0.37154(15)
N2 N 0.71499(8) 0.2243(2) 0.40560(18)
N6 N 0.78332(8) 0.1707(2) 0.60895(18)
C5 C 0.66315(10) 0.4340(3) 0.2976(2)
C12 C 0.54652(9) 0.4873(2) 0.1005(2)
C13 C 0.58411(10) 0.4293(3) 0.7900(2)
C14 C 0.74234(10) 0.0457(3) 0.3658(2)
H5 H 0.7609 0.0069 0.3354
C16 C 0.91415(10) 0.4715(3) 0.2183(2)
C17 C 0.69086(10) 0.1644(3) 0.4494(2)
H7 H 0.6727 0.2054 0.4793
C21 C 0.74012(10) 0.1650(3) 0.3634(2)
H11 H 0.7572 0.2062 0.3304
C22 C 0.61119(9) 0.4136(3) 0.7221(2)
C23 C 0.88526(10) 0.4532(3) 0.9212(2)
H12 H 0.8841 0.4695 0.9793
C24 C 0.58293(10) 0.4624(3) 0.1349(2)
C26 C 0.80832(11) 0.1114(3) 0.5671(2)
H14 H 0.8265 0.1531 0.5377
C27 C 0.63604(10) 0.4074(3) 0.5896(2)
H15 H 0.6362 0.4088 0.5303
C29 C 0.91670(9) 0.4551(3) 0.8754(2)
C30 C 0.69084(11) 0.0456(3) 0.4539(2)
H17 H 0.6726 0.0069 0.4852
C31 C 0.63657(10) 0.4380(3) 0.2273(2)
C32 C 0.79841(9) 0.3914(3) 0.4094(2)
C33 C 0.83659(10) 0.3818(3) 0.7203(2)
C36 C 0.95368(9) 0.4877(3) 0.9055(2)
C37 C 0.86299(9) 0.4056(3) 0.7896(2)
C38 C 0.61303(10) 0.4254(3) 0.0929(2)
H19 H 0.6133 0.4101 0.0346
C39 C 0.86764(10) 0.3791(3) 0.4150(2)
H20 H 0.8692 0.3513 0.4707
C41 C 0.88891(10) 0.4390(3) 0.2868(2)
C42 C 0.89820(10) 0.4018(3) 0.3648(2)
H22 H 0.9227 0.3923 0.3833
C44 C 0.70482(9) 0.3880(3) 0.6087(2)
C49 C 0.66649(9) 0.3968(3) 0.6377(2)
C53 C 0.60416(10) 0.4159(3) 0.6382(2)
H30 H 0.5803 0.4225 0.6150
C54 C 0.83534(10) 0.4015(3) 0.3749(2)
C57 C 0.85470(10) 0.4241(3) 0.8715(2)
H33 H 0.8306 0.4180 0.8930
C58 C 0.75796(10) 0.1104(3) 0.6505(2)
H34 H 0.7401 0.1512 0.6816
C59 C 0.64355(10) 0.4124(3) 0.1453(2)
H35 H 0.6668 0.3883 0.1259
Mn7 Mn 0.46809(2) 0.54631(4) 0.10215(3)
N9 N 0.78303(8) 0.5587(2) 0.6048(2)
N11 N 0.71970(9) 0.6127(2) 0.41666(19)
N1 N 0.53703(8) 0.6476(2) 0.89636(19)
C2 C 0.53409(10) 0.8896(3) 0.9018(2)
C10 C 0.51508(10) 0.7087(3) 0.8453(2)
H3 H 0.5002 0.6673 0.8068
C15 C 0.51273(10) 0.8267(3) 0.8451(2)
H6 H 0.4969 0.8651 0.8071
C20 C 0.55736(10) 0.8269(3) 0.9544(2)
H10 H 0.5726 0.8658 0.9936
C46 C 0.55811(10) 0.7088(3) 0.9492(2)
H24 H 0.5744 0.6680 0.9849
O19 O 0.47666(7) 0.4635(2) 0.85383(16)
C1 C 0.78300(10) 0.9297(3) 0.6059(2)
C3 C 0.71729(10) 0.9829(3) 0.4129(2)
C7 C 0.71844(10) 0.8549(3) 0.4154(2)
C11 C 0.80932(11) 0.9922(3) 0.5640(2)
H4 H 0.8279 0.9538 0.5334
C19 C 0.75675(11) 0.9919(3) 0.6500(2)
H9 H 0.7381 0.9525 0.6795
C43 C 0.78291(10) 0.8016(3) 0.6052(2)
C47 C 0.74568(13) 0.7927(3) 0.3792(4)
H25 H 0.7651 0.8319 0.3520
C52 C 0.69334(13) 0.6720(3) 0.4526(3)
H29 H 0.6743 0.6307 0.4795
C56 C 0.69196(13) 0.7914(3) 0.4532(3)
H32 H 0.6723 0.8294 0.4804
C60 C 0.75697(13) 0.7378(3) 0.6451(3)
H36 H 0.7381 0.7760 0.6749
C61 C 0.80818(12) 0.6192(3) 0.5656(3)
H37 H 0.8267 0.5789 0.5363
C62 C 0.80898(12) 0.7383(3) 0.5651(4)
H38 H 0.8280 0.7770 0.5362
C63 C 0.75762(14) 0.6197(3) 0.6430(3)
H39 H 0.7386 0.5793 0.6706
C64 C 0.74562(13) 0.6745(3) 0.3813(3)
H40 H 0.7654 0.6349 0.3558
N3 N 0.21697(8) 0.4413(2) 0.3952(2)
N5 N 0.28030(9) 0.3873(2) 0.58334(19)
C1_2 C 0.21700(10) 0.0703(3) 0.3941(2)
C3_2 C 0.28271(10) 0.0171(3) 0.5871(2)
C7_2 C 0.28156(10) 0.1451(3) 0.5846(2)
C11_2 C 0.19068(11) 0.0078(3) 0.4360(2)
H4_2 H 0.1721 0.0462 0.4666
C19_2 C 0.24325(11) 0.0081(3) 0.3500(2)
H9_2 H 0.2619 0.0475 0.3205
C43_2 C 0.21709(10) 0.1984(3) 0.3948(2)
C47_2 C 0.25432(13) 0.2073(3) 0.6208(4)
H25_2 H 0.2349 0.1681 0.6480
C52_2 C 0.30666(13) 0.3280(3) 0.5474(3)
H29_2 H 0.3257 0.3693 0.5205
C56_2 C 0.30804(13) 0.2086(3) 0.5468(3)
H32_2 H 0.3277 0.1706 0.5196
C60_2 C 0.24303(13) 0.2622(3) 0.3549(3)
H36_2 H 0.2619 0.2240 0.3251
C61_2 C 0.19182(12) 0.3808(3) 0.4344(3)
H37_2 H 0.1733 0.4211 0.4637
C62_2 C 0.19102(12) 0.2617(3) 0.4349(4)
H38_2 H 0.1720 0.2230 0.4638
C63_2 C 0.24238(14) 0.3803(3) 0.3570(3)
H39_2 H 0.2614 0.4207 0.3294
C64_2 C 0.25438(13) 0.3255(3) 0.6187(3)
H40_2 H 0.2346 0.3651 0.6442
Mn8 Mn 0.28304(2) 0.58203(4) 0.59556(3)
Mn9 Mn 0.21604(2) 0.63666(4) 0.38921(3)
N1_2 N 0.46297(8) 0.3524(2) 0.10364(19)
C2_2 C 0.46591(10) 0.1104(3) 0.0982(2)
C10_2 C 0.48492(10) 0.2913(3) 0.1547(2)
H3_2 H 0.4998 0.3327 0.1932
C15_2 C 0.48727(10) 0.1733(3) 0.1549(2)
H6_2 H 0.5031 0.1349 0.1929
C20_2 C 0.44264(10) 0.1731(3) 0.0456(2)
H10_2 H 0.4274 0.1342 0.0064
C46_2 C 0.44189(10) 0.2912(3) 0.0508(2)
H24_2 H 0.4256 0.3320 0.0151
O18 O 0.44899(6) 0.5569(2) 0.23197(15)
O20 O 0.40581(7) 0.5689(2) 0.13501(15)
N12 N 0.47079(8) 0.7410(2) 0.09310(18)
S1_2 S 0.09107(2) 0.57929(7) 0.22774(6)
S2_2 S 0.34324(2) 0.60360(7) 0.25704(5)
S3_2 S 0.40810(2) 0.52117(8) 0.75984(5)
S4_2 S 0.15760(2) 0.55287(7) 0.72638(5)
O1 O 0.09758(7) 0.5116(2) 0.85448(15)
O2_2 O 0.22806(6) 0.57728(19) 0.63618(15)
O4_2 O 0.27044(6) 0.63585(19) 0.33887(15)
O7_2 O 0.45975(7) 0.5442(2) 0.97345(15)
O8_2 O 0.04310(7) 0.4796(2) 0.02095(15)
O9_2 O 0.30376(6) 0.5752(2) 0.72213(16)
O11_2 O 0.28948(7) 0.5912(2) 0.46694(15)
O12_2 O 0.20408(7) 0.6476(2) 0.51769(15)
O13_2 O 0.19646(6) 0.6255(2) 0.25986(15)
O14 O 0.05229(6) 0.5192(2) 0.76235(16)
O15_2 O 0.15256(7) 0.6252(2) 0.35355(15)
O16_2 O 0.34754(7) 0.5594(2) 0.62846(15)
N2_2 N 0.28501(8) 0.7757(2) 0.59440(18)
N6_2 N 0.21668(8) 0.8293(2) 0.39105(18)
C5_2 C 0.33685(10) 0.5660(3) 0.7024(2)
C12_2 C 0.45348(9) 0.5127(2) 0.8995(2)
C13_2 C 0.41589(10) 0.5707(3) 0.2100(2)
C14_2 C 0.25766(10) 0.9543(3) 0.6342(2)
H5_2 H 0.2391 0.9931 0.6646
C16_2 C 0.08585(10) 0.5285(3) 0.7817(2)
C17_2 C 0.30914(10) 0.8356(3) 0.5506(2)
H7_2 H 0.3273 0.7946 0.5207
C21_2 C 0.25988(10) 0.8350(3) 0.6366(2)
H11_2 H 0.2428 0.7938 0.6696
C22_2 C 0.38881(9) 0.5864(3) 0.2779(2)
C23_2 C 0.11474(10) 0.5468(3) 0.0788(2)
H12_2 H 0.1159 0.5305 0.0207
C24_2 C 0.41707(10) 0.5376(3) 0.8651(2)
C26_2 C 0.19168(11) 0.8886(3) 0.4329(2)
H14_2 H 0.1735 0.8469 0.4623
C27_2 C 0.36396(10) 0.5926(3) 0.4104(2)
H15_2 H 0.3638 0.5912 0.4697
C29_2 C 0.08330(9) 0.5449(3) 0.1246(2)
C30_2 C 0.30916(11) 0.9544(3) 0.5461(2)
H17_2 H 0.3274 0.9931 0.5148
C31_2 C 0.36343(10) 0.5620(3) 0.7727(2)
C32_2 C 0.20159(9) 0.6086(3) 0.5906(2)
C33_2 C 0.16341(10) 0.6182(3) 0.2797(2)
C36_2 C 0.04632(9) 0.5123(3) 0.0945(2)
C37_2 C 0.13701(9) 0.5944(3) 0.2104(2)
C38_2 C 0.38697(10) 0.5746(3) 0.9071(2)
H19_2 H 0.3867 0.5899 0.9654
C39_2 C 0.13236(10) 0.6209(3) 0.5850(2)
H20_2 H 0.1308 0.6487 0.5293
C41_2 C 0.11109(10) 0.5610(3) 0.7132(2)
C42_2 C 0.10180(10) 0.5982(3) 0.6352(2)
H22_2 H 0.0773 0.6077 0.6167
C44_2 C 0.29518(9) 0.6120(3) 0.3913(2)
C49_2 C 0.33351(9) 0.6032(3) 0.3623(2)
C53_2 C 0.39584(10) 0.5841(3) 0.3618(2)
H30_2 H 0.4197 0.5775 0.3850
C54_2 C 0.16466(10) 0.5985(3) 0.6251(2)
C57_2 C 0.14530(10) 0.5759(3) 0.1285(2)
H33_2 H 0.1694 0.5820 0.1070
C58_2 C 0.24204(10) 0.8896(3) 0.3495(2)
H34_2 H 0.2599 0.8488 0.3184
C59_2 C 0.35645(10) 0.5876(3) 0.8547(2)
H35_2 H 0.3332 0.6117 0.8741
N7_2 N 0.03864(8) 0.3028(2) 0.88950(19)
C4_2 C 0.06229(10) 0.1254(3) 0.9446(2)
H1_2 H 0.0794 0.0878 0.9801
C8_2 C 0.03717(10) 0.0615(3) 0.8987(2)
C40_2 C 0.01317(10) 0.1216(3) 0.8460(2)
C50_2 C 0.06217(10) 0.2443(3) 0.9383(2)
H27_2 H 0.0796 0.2867 0.9699
C55_2 C 0.01493(10) 0.2403(3) 0.8434(2)
N10 N 0.03355(8) 0.6918(2) 0.90692(19)
C6_2 C 0.49875(10) 0.9227(3) 0.1244(2)
H2_2 H 0.5193 0.9634 0.1456
C9_2 C 0.46813(10) 0.9829(3) 0.0946(2)
C18_2 C 0.43903(10) 0.9165(3) 0.0645(2)
H8_2 H 0.4176 0.9531 0.0440
C28_2 C 0.49881(9) 0.8039(3) 0.1225(2)
H16_2 H 0.5198 0.7645 0.1430
C45_2 C 0.44140(10) 0.7986(3) 0.0646(2)
H23_2 H 0.4213 0.7555 0.0434
C25_2 C 0.00333(10) 0.8741(3) 0.8887(3)
C34_2 C 0.06448(10) 0.7507(3) 0.9224(2)
H18_2 H 0.0861 0.7083 0.9345
C35_2 C 0.03548(10) 0.9339(3) 0.9041(2)
C48_2 C 0.00369(10) 0.7547(3) 0.8910(3)
C51_2 C 0.06650(10) 0.8697(3) 0.9215(2)
H28_2 H 0.0891 0.9072 0.9327
H21_2 H 0.9959 0.0811 0.8126
H31_2 H 0.9986 0.2800 0.8072
Mn11_2 Mn 0.03495(2) 0.00290(4) 0.39230(3)
O5_2 O 0.47666(7) 0.0365(2) 0.35383(16)
N1_3 N 0.46297(8) 0.1476(2) 0.60364(19)
N8_2 N 0.47079(8) 0.7590(2) 0.59310(18)
C2_3 C 0.46591(10) 0.3896(3) 0.5982(2)
C6_3 C 0.49875(10) 0.5773(3) 0.6244(2)
H2_3 H 0.5193 0.5366 0.6456
C9_3 C 0.46813(10) 0.5171(3) 0.5946(2)
C10_3 C 0.48492(10) 0.2087(3) 0.6547(2)
H3_3 H 0.4998 0.1673 0.6932
C15_3 C 0.48727(10) 0.3267(3) 0.6549(2)
H6_3 H 0.5031 0.3651 0.6929
C18_3 C 0.43903(10) 0.5835(3) 0.5645(2)
H8_3 H 0.4176 0.5469 0.5440
C20_3 C 0.44264(10) 0.3269(3) 0.5456(2)
H10_3 H 0.4274 0.3658 0.5064
C28_3 C 0.49881(9) 0.6961(3) 0.6225(2)
H16_3 H 0.5198 0.7355 0.6430
C45_3 C 0.44140(10) 0.7014(3) 0.5646(2)
H23_3 H 0.4213 0.7445 0.5434
C46_3 C 0.44189(10) 0.2088(3) 0.5508(2)
H24_3 H 0.4256 0.1680 0.5151
Mn6_2 Mn 0.46809(2) 0.95369(4) 0.60215(3)
Mn7_2 Mn 0.53191(2) 0.04631(4) 0.39785(3)
N11_2 N 0.28030(9) 0.1127(2) 0.08334(19)
O8_3 O 0.04310(7) 0.0204(2) 0.52095(15)
N4_2 N 0.03355(8) 0.8082(2) 0.40692(19)
N7_3 N 0.03864(8) 0.1972(2) 0.38950(19)
C4_3 C 0.06229(10) 0.3746(3) 0.4446(2)
H1_3 H 0.0794 0.4122 0.4801
C8_3 C 0.03717(10) 0.4385(3) 0.3987(2)
C25_3 C 0.00333(10) 0.6259(3) 0.3887(3)
C34_3 C 0.06448(10) 0.7493(3) 0.4224(2)
H18_3 H 0.0861 0.7917 0.4345
C35_3 C 0.03548(10) 0.5661(3) 0.4041(2)
C40_3 C 0.01317(10) 0.3784(3) 0.3460(2)
C48_3 C 0.00369(10) 0.7453(3) 0.3910(3)
C50_3 C 0.06217(10) 0.2557(3) 0.4383(2)
H27_3 H 0.0796 0.2133 0.4699
C51_3 C 0.06650(10) 0.6303(3) 0.4215(2)
H28_3 H 0.0891 0.5928 0.4327
C55_3 C 0.01493(10) 0.2597(3) 0.3434(2)
N9_2 N 0.21697(8) 0.0587(2) 0.8952(2)
Mn2_2 Mn 0.28304(2) 0.91797(4) 0.09556(3)
S3_3 S 0.40810(2) 0.97883(8) 0.25984(5)
S4_3 S 0.15760(2) 0.94713(7) 0.22638(5)
O1_2 O 0.09758(7) 0.9884(2) 0.35448(15)
O2_3 O 0.22806(6) 0.92272(19) 0.13618(15)
O7_3 O 0.45975(7) 0.9558(2) 0.47345(15)
O9_3 O 0.30376(6) 0.9248(2) 0.22213(16)
O12_3 O 0.20408(7) 0.8524(2) 0.01769(15)
O14_2 O 0.05229(6) 0.9808(2) 0.26235(16)
O16_3 O 0.34754(7) 0.9406(2) 0.12846(15)
N2_3 N 0.28501(8) 0.7243(2) 0.09440(18)
C3_3 C 0.28271(10) 0.4829(3) 0.0871(2)
C5_3 C 0.33685(10) 0.9340(3) 0.2024(2)
C7_3 C 0.28156(10) 0.3549(3) 0.0846(2)
C12_3 C 0.45348(9) 0.9873(2) 0.3995(2)
C14_3 C 0.25766(10) 0.5457(3) 0.1342(2)
H5_3 H 0.2391 0.5069 0.1646
C16_3 C 0.08585(10) 0.9715(3) 0.2817(2)
C17_3 C 0.30914(10) 0.6644(3) 0.0506(2)
H7_3 H 0.3273 0.7054 0.0207
C21_3 C 0.25988(10) 0.6650(3) 0.1366(2)
H11_3 H 0.2428 0.7062 0.1696
C24_3 C 0.41707(10) 0.9624(3) 0.3651(2)
C30_3 C 0.30916(11) 0.5456(3) 0.0461(2)
H17_3 H 0.3274 0.5069 0.0148
C31_3 C 0.36343(10) 0.9380(3) 0.2727(2)
C32_3 C 0.20159(9) 0.8914(3) 0.0906(2)
C38_3 C 0.38697(10) 0.9254(3) 0.4071(2)
H19_3 H 0.3867 0.9101 0.4654
C39_3 C 0.13236(10) 0.8791(3) 0.0850(2)
H20_3 H 0.1308 0.8513 0.0293
C41_3 C 0.11109(10) 0.9390(3) 0.2132(2)
C42_3 C 0.10180(10) 0.9018(3) 0.1352(2)
H22_3 H 0.0773 0.8923 0.1167
C47_3 C 0.25432(13) 0.2927(3) 0.1208(4)
H25_3 H 0.2349 0.3319 0.1480
C52_3 C 0.30666(13) 0.1720(3) 0.0474(3)
H29_3 H 0.3257 0.1307 0.0205
C54_3 C 0.16466(10) 0.9015(3) 0.1251(2)
C56_3 C 0.30804(13) 0.2914(3) 0.0468(3)
H32_3 H 0.3277 0.3294 0.0196
C59_3 C 0.35645(10) 0.9124(3) 0.3547(2)
H35_3 H 0.3332 0.8883 0.3741
C64_3 C 0.25438(13) 0.1745(3) 0.1187(3)
H40_3 H 0.2346 0.1349 0.1442
O18_2 O 0.44899(6) 0.9431(2) 0.73197(15)
O19_2 O 0.52334(7) 0.9635(2) 0.64617(16)
O20_2 O 0.40581(7) 0.9311(2) 0.63501(15)
Mn3_2 Mn 0.21604(2) 0.86334(4) 0.88921(3)
S1_3 S 0.09107(2) 0.92071(7) 0.72774(6)
S2_3 S 0.34324(2) 0.89640(7) 0.75704(5)
O4_3 O 0.27044(6) 0.86415(19) 0.83887(15)
O10_2 O 0.02059(7) 0.9819(2) 0.64699(15)
O11_3 O 0.28948(7) 0.9088(2) 0.96694(15)
O13_3 O 0.19646(6) 0.8745(2) 0.75986(15)
O15_3 O 0.15256(7) 0.8748(2) 0.85355(15)
N6_3 N 0.21668(8) 0.6707(2) 0.89105(18)
C1_3 C 0.21700(10) 0.4297(3) 0.8941(2)
C11_3 C 0.19068(11) 0.4922(3) 0.9360(2)
H4_3 H 0.1721 0.4538 0.9666
C13_3 C 0.41589(10) 0.9293(3) 0.7100(2)
C19_3 C 0.24325(11) 0.4919(3) 0.8500(2)
H9_3 H 0.2619 0.4525 0.8205
C22_3 C 0.38881(9) 0.9136(3) 0.7779(2)
C23_3 C 0.11474(10) 0.9532(3) 0.5788(2)
H12_3 H 0.1159 0.9695 0.5207
C26_3 C 0.19168(11) 0.6114(3) 0.9329(2)
H14_3 H 0.1735 0.6531 0.9623
C27_3 C 0.36396(10) 0.9074(3) 0.9104(2)
H15_3 H 0.3638 0.9088 0.9697
C29_3 C 0.08330(9) 0.9551(3) 0.6246(2)
C33_3 C 0.16341(10) 0.8818(3) 0.7797(2)
C36_3 C 0.04632(9) 0.9877(3) 0.5945(2)
C37_3 C 0.13701(9) 0.9056(3) 0.7104(2)
C43_3 C 0.21709(10) 0.3016(3) 0.8948(2)
C44_3 C 0.29518(9) 0.8880(3) 0.8913(2)
C49_3 C 0.33351(9) 0.8968(3) 0.8623(2)
C53_3 C 0.39584(10) 0.9159(3) 0.8618(2)
H30_3 H 0.4197 0.9225 0.8850
C57_3 C 0.14530(10) 0.9241(3) 0.6285(2)
H33_3 H 0.1694 0.9180 0.6070
C58_3 C 0.24204(10) 0.6104(3) 0.8495(2)
H34_3 H 0.2599 0.6512 0.8184
C60_3 C 0.24303(13) 0.2378(3) 0.8549(3)
H36_3 H 0.2619 0.2760 0.8251
C61_3 C 0.19182(12) 0.1192(3) 0.9344(3)
H37_3 H 0.1733 0.0789 0.9637
C62_3 C 0.19102(12) 0.2383(3) 0.9349(4)
H38_3 H 0.1720 0.2770 0.9638
C63_3 C 0.24238(14) 0.1197(3) 0.8570(3)
H39_3 H 0.2614 0.0793 0.8294
H13_2 H 0.9813 0.5855 0.3767
H21_3 H 0.9959 0.4189 0.3126
H26_2 H 0.9814 0.7849 0.3808
H31_3 H 0.9986 0.2200 0.3072
O21_2 O 0.97941(7) 0.0181(2) 0.35301(15)
Mn12_2 Mn 0.96505(2) 0.99710(4) 0.60770(3)
H13_3 H 0.0187 0.4145 0.6233
H21_4 H 0.0041 0.5811 0.6874
H26_3 H 0.0186 0.2151 0.6192
H31_4 H 0.0014 0.7800 0.6928
Mn9_2 Mn 0.78396(2) 0.13666(4) 0.11079(3)
Mn8_2 Mn 0.71696(2) 0.08203(4) 0.90444(3)
S1_4 S 0.90893(2) 0.07929(7) 0.27226(6)
S2_4 S 0.65676(2) 0.10360(7) 0.24296(5)
O3_2 O 0.55101(6) 0.0569(2) 0.26803(15)
O4_4 O 0.72956(6) 0.13585(19) 0.16113(15)
O6_2 O 0.59419(7) 0.0689(2) 0.36499(15)
O11_4 O 0.71052(7) 0.0912(2) 0.03306(15)
O13_4 O 0.80354(6) 0.1255(2) 0.24014(15)
O15_4 O 0.84744(7) 0.1252(2) 0.14645(15)
N3_2 N 0.78303(8) 0.9413(2) 0.1048(2)
N6_4 N 0.78332(8) 0.3293(2) 0.10895(18)
C1_4 C 0.78300(10) 0.5703(3) 0.1059(2)
C11_4 C 0.80932(11) 0.5078(3) 0.0640(2)
H4_4 H 0.8279 0.5462 0.0334
C13_4 C 0.58411(10) 0.0707(3) 0.2900(2)
C19_4 C 0.75675(11) 0.5081(3) 0.1500(2)
H9_4 H 0.7381 0.5475 0.1795
C22_4 C 0.61119(9) 0.0864(3) 0.2221(2)
C23_4 C 0.88526(10) 0.0468(3) 0.4212(2)
H12_4 H 0.8841 0.0305 0.4793
C26_4 C 0.80832(11) 0.3886(3) 0.0671(2)
H14_4 H 0.8265 0.3469 0.0377
C27_4 C 0.63604(10) 0.0926(3) 0.0896(2)
H15_4 H 0.6362 0.0912 0.0303
C29_4 C 0.91670(9) 0.0449(3) 0.3754(2)
C33_4 C 0.83659(10) 0.1182(3) 0.2203(2)
C36_4 C 0.95368(9) 0.0123(3) 0.4055(2)
C37_4 C 0.86299(9) 0.0944(3) 0.2896(2)
C43_4 C 0.78291(10) 0.6984(3) 0.1052(2)
C44_4 C 0.70482(9) 0.1120(3) 0.1087(2)
C49_4 C 0.66649(9) 0.1032(3) 0.1377(2)
C53_4 C 0.60416(10) 0.0841(3) 0.1382(2)
H30_4 H 0.5803 0.0775 0.1150
C57_4 C 0.85470(10) 0.0759(3) 0.3715(2)
H33_4 H 0.8306 0.0820 0.3930
C58_4 C 0.75796(10) 0.3896(3) 0.1505(2)
H34_4 H 0.7401 0.3488 0.1816
C60_4 C 0.75697(13) 0.7622(3) 0.1451(3)
H36_4 H 0.7381 0.7240 0.1749
C61_4 C 0.80818(12) 0.8808(3) 0.0656(3)
H37_4 H 0.8267 0.9211 0.0363
C62_4 C 0.80898(12) 0.7617(3) 0.0651(4)
H38_4 H 0.8280 0.7230 0.0362
C63_4 C 0.75762(14) 0.8803(3) 0.1430(3)
H39_4 H 0.7386 0.9207 0.1706
O17_2 O 0.90242(7) 0.0116(2) 0.64552(15)
O22_2 O 0.94771(6) 0.0192(2) 0.73765(16)
N10_2 N 0.96645(8) 0.1918(2) 0.59308(19)
S3_4 S 0.59190(2) 0.02117(8) 0.74016(5)
S4_4 S 0.84240(2) 0.05287(7) 0.77362(5)
O2_4 O 0.77194(6) 0.07728(19) 0.86382(15)
O7_4 O 0.54025(7) 0.0442(2) 0.52655(15)
O9_4 O 0.69624(6) 0.0752(2) 0.77787(16)
O12_4 O 0.79592(7) 0.1476(2) 0.98231(15)
O16_4 O 0.65246(7) 0.0594(2) 0.87154(15)
N2_4 N 0.71499(8) 0.2757(2) 0.90560(18)
N5_2 N 0.71970(9) 0.8873(2) 0.91666(19)
C3_4 C 0.71729(10) 0.5171(3) 0.9129(2)
C5_4 C 0.66315(10) 0.0660(3) 0.7976(2)
C7_4 C 0.71844(10) 0.6451(3) 0.9154(2)
C12_4 C 0.54652(9) 0.0127(2) 0.6005(2)
C14_4 C 0.74234(10) 0.4543(3) 0.8658(2)
H5_4 H 0.7609 0.4931 0.8354
C16_4 C 0.91415(10) 0.0285(3) 0.7183(2)
C17_4 C 0.69086(10) 0.3356(3) 0.9494(2)
H7_4 H 0.6727 0.2946 0.9793
C21_4 C 0.74012(10) 0.3350(3) 0.8634(2)
H11_4 H 0.7572 0.2938 0.8304
C24_4 C 0.58293(10) 0.0376(3) 0.6349(2)
C30_4 C 0.69084(11) 0.4544(3) 0.9539(2)
H17_4 H 0.6726 0.4931 0.9852
C31_4 C 0.63657(10) 0.0620(3) 0.7273(2)
C32_4 C 0.79841(9) 0.1086(3) 0.9094(2)
C38_4 C 0.61303(10) 0.0746(3) 0.5929(2)
H19_4 H 0.6133 0.0899 0.5346
C39_4 C 0.86764(10) 0.1209(3) 0.9150(2)
H20_4 H 0.8692 0.1487 0.9707
C41_4 C 0.88891(10) 0.0610(3) 0.7868(2)
C42_4 C 0.89820(10) 0.0982(3) 0.8648(2)
H22_4 H 0.9227 0.1077 0.8833
C47_4 C 0.74568(13) 0.7073(3) 0.8792(4)
H25_4 H 0.7651 0.6681 0.8520
C52_4 C 0.69334(13) 0.8280(3) 0.9526(3)
H29_4 H 0.6743 0.8693 0.9795
C54_4 C 0.83534(10) 0.0985(3) 0.8749(2)
C56_4 C 0.69196(13) 0.7086(3) 0.9532(3)
H32_4 H 0.6723 0.6706 0.9804
C59_4 C 0.64355(10) 0.0876(3) 0.6453(2)
H35_4 H 0.6668 0.1117 0.6259
C64_4 C 0.74562(13) 0.8255(3) 0.8813(3)
H40_4 H 0.7654 0.8651 0.8558
N12_2 N 0.52921(8) 0.2410(2) 0.40690(18)
O8_4 O 0.95690(7) 0.9796(2) 0.47905(15)
N7_4 N 0.96136(8) 0.8028(2) 0.61050(19)
C4_4 C 0.93771(10) 0.6254(3) 0.5554(2)
H1_4 H 0.9206 0.5878 0.5199
C8_4 C 0.96283(10) 0.5615(3) 0.6013(2)
C25_4 C 0.99667(10) 0.3741(3) 0.6113(3)
C34_4 C 0.93552(10) 0.2507(3) 0.5776(2)
H18_4 H 0.9139 0.2083 0.5655
C35_4 C 0.96452(10) 0.4339(3) 0.5959(2)
C40_4 C 0.98683(10) 0.6216(3) 0.6540(2)
C48_4 C 0.99631(10) 0.2547(3) 0.6090(3)
C50_4 C 0.93783(10) 0.7443(3) 0.5617(2)
H27_4 H 0.9204 0.7867 0.5301
C51_4 C 0.93350(10) 0.3697(3) 0.5785(2)
H28_4 H 0.9109 0.4072 0.5673
C55_4 C 0.98507(10) 0.7403(3) 0.6566(2)
N1_4 N 0.53703(8) 0.8524(2) 0.39636(19)
C2_4 C 0.53409(10) 0.6104(3) 0.4018(2)
C6_4 C 0.50125(10) 0.4227(3) 0.3756(2)
H2_4 H 0.4807 0.4634 0.3544
C9_4 C 0.53187(10) 0.4829(3) 0.4054(2)
C10_4 C 0.51508(10) 0.7913(3) 0.3453(2)
H3_4 H 0.5002 0.8327 0.3068
C15_4 C 0.51273(10) 0.6733(3) 0.3451(2)
H6_4 H 0.4969 0.6349 0.3071
C18_4 C 0.56097(10) 0.4165(3) 0.4355(2)
H8_4 H 0.5824 0.4531 0.4560
C20_4 C 0.55736(10) 0.6731(3) 0.4544(2)
H10_4 H 0.5726 0.6342 0.4936
C28_4 C 0.50119(9) 0.3039(3) 0.3775(2)
H16_4 H 0.4802 0.2645 0.3570
C45_4 C 0.55860(10) 0.2986(3) 0.4354(2)
H23_4 H 0.5787 0.2555 0.4566
C46_4 C 0.55811(10) 0.7912(3) 0.4492(2)
H24_4 H 0.5744 0.8320 0.4849
H13_4 H 0.9813 0.9145 0.8767
H26_4 H 0.9814 0.7151 0.8808
loop_
_geom_bond_atom_site_label_1
_geom_bond_atom_site_label_2
_geom_bond_site_symmetry_1
_geom_bond_site_symmetry_2
N4 C34 1_555 1_555
C34 H18 1_555 1_555
C48 N4 1_555 1_555
C51 C34 1_555 1_555
H28 C51 1_555 1_555
Mn11 N4 1_555 1_555
C25 C35 1_555 1_555
C25 C48 1_555 1_555
C35 C51 1_555 1_555
N8 C28 1_555 1_555
C6 H2 1_555 1_555
C9 C6 1_555 1_555
C18 C9 1_555 1_555
H8 C18 1_555 1_555
C28 C6 1_555 1_555
H16 C28 1_555 1_555
C45 N8 1_555 1_555
H23 C45 1_555 1_555
Mn6 N8 1_555 1_555
C18 C45 1_555 1_555
N7 Mn11 1_555 1_555
C4 H1 1_555 1_555
C8 C4 1_555 1_555
C40 C8 1_555 1_555
C50 N7 1_555 1_555
H27 C50 1_555 1_555
C55 N7 1_555 1_555
O17 Mn11 1_555 1_555
O22 Mn11 1_555 1_555
C4 C50 1_555 1_555
C40 C55 1_555 1_555
Mn2 O2 1_555 1_555
Mn3 O4 1_555 1_555
S1 C29 1_555 1_555
S2 C22 1_555 1_555
S3 C24 1_555 1_555
S4 C41 1_555 1_555
O17 C16 1_555 1_555
O2 C32 1_555 1_555
O3 C13 1_555 1_555
O4 C44 1_555 1_555
O5 C12 1_555 1_555
O6 C13 1_555 1_555
O7 C12 1_555 1_555
O8 C36 1_555 1_555
O9 Mn2 1_555 1_555
O10 C36 1_555 1_555
O11 Mn2 1_555 1_555
O12 Mn3 1_555 1_555
O13 Mn3 1_555 1_555
O22 C16 1_555 1_555
O15 Mn3 1_555 1_555
O16 Mn2 1_555 1_555
N2 Mn2 1_555 1_555
N6 Mn3 1_555 1_555
C5 O9 1_555 1_555
C12 C24 1_555 1_555
C13 C22 1_555 1_555
H5 C14 1_555 1_555
C16 C41 1_555 1_555
C17 N2 1_555 1_555
H7 C17 1_555 1_555
C21 N2 1_555 1_555
H11 C21 1_555 1_555
C22 C53 1_555 1_555
C23 H12 1_555 1_555
C24 C38 1_555 1_555
C26 N6 1_555 1_555
H14 C26 1_555 1_555
C27 H15 1_555 1_555
C29 C23 1_555 1_555
H17 C30 1_555 1_555
C31 S3 1_555 1_555
C32 O12 1_555 1_555
C33 O13 1_555 1_555
C36 C29 1_555 1_555
C37 S1 1_555 1_555
C38 H19 1_555 1_555
C39 H20 1_555 1_555
C41 C42 1_555 1_555
C42 C39 1_555 1_555
H22 C42 1_555 1_555
C44 O11 1_555 1_555
C49 S2 1_555 1_555
C53 C27 1_555 1_555
H30 C53 1_555 1_555
C54 S4 1_555 1_555
C57 C23 1_555 1_555
H33 C57 1_555 1_555
C58 N6 1_555 1_555
H34 C58 1_555 1_555
C59 C31 1_555 1_555
H35 C59 1_555 1_555
Mn6 O3 1_555 1_555
Mn7 O5 1_555 1_555
N9 Mn3 1_555 1_555
N11 Mn2 1_555 1_555
O6 Mn6 1_555 1_555
O15 C33 1_555 1_555
O16 C5 1_555 1_555
C5 C31 1_555 1_555
C14 C21 1_555 1_555
C17 C30 1_555 1_555
C27 C49 1_555 1_555
C32 C54 1_555 1_555
C33 C37 1_555 1_555
C37 C57 1_555 1_555
C38 C59 1_555 1_555
C39 C54 1_555 1_555
C44 C49 1_555 1_555
N1 Mn6 1_555 1_555
C10 N1 1_555 1_555
H3 C10 1_555 1_555
C15 C2 1_555 1_555
H6 C15 1_555 1_555
C20 C2 1_555 1_555
H10 C20 1_555 1_555
C46 N1 1_555 1_555
H24 C46 1_555 1_555
O19 Mn6 1_555 1_555
C10 C15 1_555 1_555
C20 C46 1_555 1_555
N9 C61 1_555 1_555
N11 C52 1_555 1_555
C1 C11 1_555 1_555
C3 C7 1_555 1_555
C7 C47 1_555 1_555
C11 H4 1_555 1_555
C19 C1 1_555 1_555
H9 C19 1_555 1_555
C43 C1 1_555 1_555
C47 H25 1_555 1_555
C52 H29 1_555 1_555
C56 C7 1_555 1_555
H32 C56 1_555 1_555
C60 C43 1_555 1_555
H36 C60 1_555 1_555
C61 H37 1_555 1_555
C62 C43 1_555 1_555
H38 C62 1_555 1_555
C63 N9 1_555 1_555
H39 C63 1_555 1_555
C64 N11 1_555 1_555
H40 C64 1_555 1_555
C47 C64 1_555 1_555
C52 C56 1_555 1_555
C60 C63 1_555 1_555
C61 C62 1_555 1_555
N3 C61_2 1_555 1_555
N5 C52_2 1_555 1_555
C1_2 C11_2 1_555 1_555
C3_2 C7_2 1_555 1_555
C7_2 C47_2 1_555 1_555
C11_2 H4_2 1_555 1_555
C19_2 C1_2 1_555 1_555
H9_2 C19_2 1_555 1_555
C43_2 C1_2 1_555 1_555
C47_2 H25_2 1_555 1_555
C52_2 H29_2 1_555 1_555
C56_2 C7_2 1_555 1_555
H32_2 C56_2 1_555 1_555
C60_2 C43_2 1_555 1_555
H36_2 C60_2 1_555 1_555
C61_2 H37_2 1_555 1_555
C62_2 C43_2 1_555 1_555
H38_2 C62_2 1_555 1_555
C63_2 N3 1_555 1_555
H39_2 C63_2 1_555 1_555
C64_2 N5 1_555 1_555
H40_2 C64_2 1_555 1_555
Mn8 N5 1_555 1_555
Mn9 N3 1_555 1_555
C47_2 C64_2 1_555 1_555
C52_2 C56_2 1_555 1_555
C60_2 C63_2 1_555 1_555
C61_2 C62_2 1_555 1_555
N1_2 Mn7 1_555 1_555
C10_2 N1_2 1_555 1_555
H3_2 C10_2 1_555 1_555
C15_2 C2_2 1_555 1_555
H6_2 C15_2 1_555 1_555
C20_2 C2_2 1_555 1_555
H10_2 C20_2 1_555 1_555
C46_2 N1_2 1_555 1_555
H24_2 C46_2 1_555 1_555
O18 Mn7 1_555 1_555
O20 Mn7 1_555 1_555
N12 Mn7 1_555 1_555
C10_2 C15_2 1_555 1_555
C20_2 C46_2 1_555 1_555
Mn8 O2_2 1_555 1_555
Mn9 O4_2 1_555 1_555
S1_2 C29_2 1_555 1_555
S2_2 C22_2 1_555 1_555
S3_2 C24_2 1_555 1_555
S4_2 C41_2 1_555 1_555
O1 C16_2 1_555 1_555
O2_2 C32_2 1_555 1_555
O18 C13_2 1_555 1_555
O4_2 C44_2 1_555 1_555
O19 C12_2 1_555 1_555
O20 C13_2 1_555 1_555
O7_2 C12_2 1_555 1_555
O8_2 C36_2 1_555 1_555
O9_2 Mn8 1_555 1_555
O21 C36_2 1_555 1_555
O11_2 Mn8 1_555 1_555
O12_2 Mn9 1_555 1_555
O13_2 Mn9 1_555 1_555
O14 C16_2 1_555 1_555
O15_2 Mn9 1_555 1_555
O16_2 Mn8 1_555 1_555
N2_2 Mn8 1_555 1_555
N6_2 Mn9 1_555 1_555
C5_2 O9_2 1_555 1_555
C12_2 C24_2 1_555 1_555
C13_2 C22_2 1_555 1_555
H5_2 C14_2 1_555 1_555
C16_2 C41_2 1_555 1_555
C17_2 N2_2 1_555 1_555
H7_2 C17_2 1_555 1_555
C21_2 N2_2 1_555 1_555
H11_2 C21_2 1_555 1_555
C22_2 C53_2 1_555 1_555
C23_2 H12_2 1_555 1_555
C24_2 C38_2 1_555 1_555
C26_2 N6_2 1_555 1_555
H14_2 C26_2 1_555 1_555
C27_2 H15_2 1_555 1_555
C29_2 C23_2 1_555 1_555
H17_2 C30_2 1_555 1_555
C31_2 S3_2 1_555 1_555
C32_2 O12_2 1_555 1_555
C33_2 O13_2 1_555 1_555
C36_2 C29_2 1_555 1_555
C37_2 S1_2 1_555 1_555
C38_2 H19_2 1_555 1_555
C39_2 H20_2 1_555 1_555
C41_2 C42_2 1_555 1_555
C42_2 C39_2 1_555 1_555
H22_2 C42_2 1_555 1_555
C44_2 O11_2 1_555 1_555
C49_2 S2_2 1_555 1_555
C53_2 C27_2 1_555 1_555
H30_2 C53_2 1_555 1_555
C54_2 S4_2 1_555 1_555
C57_2 C23_2 1_555 1_555
H33_2 C57_2 1_555 1_555
C58_2 N6_2 1_555 1_555
H34_2 C58_2 1_555 1_555
C59_2 C31_2 1_555 1_555
H35_2 C59_2 1_555 1_555
Mn12 O1 1_555 1_555
O14 Mn12 1_555 1_555
O15_2 C33_2 1_555 1_555
O16_2 C5_2 1_555 1_555
C5_2 C31_2 1_555 1_555
C14_2 C21_2 1_555 1_555
C17_2 C30_2 1_555 1_555
C27_2 C49_2 1_555 1_555
C32_2 C54_2 1_555 1_555
C33_2 C37_2 1_555 1_555
C37_2 C57_2 1_555 1_555
C38_2 C59_2 1_555 1_555
C39_2 C54_2 1_555 1_555
C44_2 C49_2 1_555 1_555
N7_2 Mn12 1_555 1_555
C4_2 H1_2 1_555 1_555
C8_2 C4_2 1_555 1_555
C40_2 C8_2 1_555 1_555
C50_2 N7_2 1_555 1_555
H27_2 C50_2 1_555 1_555
C55_2 N7_2 1_555 1_555
N10 Mn12 1_555 1_555
C4_2 C50_2 1_555 1_555
C40_2 C55_2 1_555 1_555
N12 C28_2 1_555 1_555
C6_2 H2_2 1_555 1_555
C9_2 C6_2 1_555 1_555
C18_2 C9_2 1_555 1_555
H8_2 C18_2 1_555 1_555
C28_2 C6_2 1_555 1_555
H16_2 C28_2 1_555 1_555
C45_2 N12 1_555 1_555
H23_2 C45_2 1_555 1_555
C18_2 C45_2 1_555 1_555
N10 C34_2 1_555 1_555
C34_2 H18_2 1_555 1_555
C48_2 N10 1_555 1_555
C51_2 C34_2 1_555 1_555
H28_2 C51_2 1_555 1_555
C25_2 C35_2 1_555 1_555
C25_2 C48_2 1_555 1_555
C35_2 C51_2 1_555 1_555
N8_2 C28_3 1_555 1_555
C2_3 C9_3 1_555 1_555
C6_3 H2_3 1_555 1_555
C9_3 C6_3 1_555 1_555
C10_3 N1_3 1_555 1_555
H3_3 C10_3 1_555 1_555
C15_3 C2_3 1_555 1_555
H6_3 C15_3 1_555 1_555
C18_3 C9_3 1_555 1_555
H8_3 C18_3 1_555 1_555
C20_3 C2_3 1_555 1_555
H10_3 C20_3 1_555 1_555
C28_3 C6_3 1_555 1_555
H16_3 C28_3 1_555 1_555
C45_3 N8_2 1_555 1_555
H23_3 C45_3 1_555 1_555
C46_3 N1_3 1_555 1_555
H24_3 C46_3 1_555 1_555
Mn6_2 N8_2 1_555 1_555
Mn7_2 O5_2 1_555 1_555
C10_3 C15_3 1_555 1_555
C18_3 C45_3 1_555 1_555
C20_3 C46_3 1_555 1_555
Mn11_2 O8_3 1_555 1_555
N4_2 C34_3 1_555 1_555
N7_3 Mn11_2 1_555 1_555
C4_3 H1_3 1_555 1_555
C8_3 C4_3 1_555 1_555
C34_3 H18_3 1_555 1_555
C35_3 C8_3 1_555 1_555
C40_3 C8_3 1_555 1_555
C48_3 N4_2 1_555 1_555
C50_3 N7_3 1_555 1_555
H27_3 C50_3 1_555 1_555
C51_3 C34_3 1_555 1_555
H28_3 C51_3 1_555 1_555
C55_3 N7_3 1_555 1_555
C4_3 C50_3 1_555 1_555
C25_3 C35_3 1_555 1_555
C25_3 C48_3 1_555 1_555
C35_3 C51_3 1_555 1_555
C40_3 C55_3 1_555 1_555
Mn6_2 O7_3 1_555 1_555
Mn2_2 O2_3 1_555 1_555
S3_3 C24_3 1_555 1_555
S4_3 C41_3 1_555 1_555
O1_2 C16_3 1_555 1_555
O2_3 C32_3 1_555 1_555
O7_3 C12_3 1_555 1_555
O9_3 Mn2_2 1_555 1_555
O14_2 C16_3 1_555 1_555
O16_3 Mn2_2 1_555 1_555
N2_3 Mn2_2 1_555 1_555
N11_2 C52_3 1_555 1_555
C3_3 C7_3 1_555 1_555
C5_3 O9_3 1_555 1_555
C7_3 C47_3 1_555 1_555
C12_3 C24_3 1_555 1_555
C14_3 C3_3 1_555 1_555
H5_3 C14_3 1_555 1_555
C16_3 C41_3 1_555 1_555
C17_3 N2_3 1_555 1_555
H7_3 C17_3 1_555 1_555
C21_3 N2_3 1_555 1_555
H11_3 C21_3 1_555 1_555
C24_3 C38_3 1_555 1_555
C30_3 C3_3 1_555 1_555
H17_3 C30_3 1_555 1_555
C31_3 S3_3 1_555 1_555
C32_3 O12_3 1_555 1_555
C38_3 H19_3 1_555 1_555
C39_3 H20_3 1_555 1_555
C41_3 C42_3 1_555 1_555
C42_3 C39_3 1_555 1_555
H22_3 C42_3 1_555 1_555
C47_3 H25_3 1_555 1_555
C52_3 H29_3 1_555 1_555
C54_3 S4_3 1_555 1_555
C56_3 C7_3 1_555 1_555
H32_3 C56_3 1_555 1_555
C59_3 C31_3 1_555 1_555
H35_3 C59_3 1_555 1_555
C64_3 N11_2 1_555 1_555
H40_3 C64_3 1_555 1_555
O18_2 Mn6_2 1_555 1_555
O19_2 Mn6_2 1_555 1_555
O20_2 Mn6_2 1_555 1_555
O16_3 C5_3 1_555 1_555
C5_3 C31_3 1_555 1_555
C14_3 C21_3 1_555 1_555
C17_3 C30_3 1_555 1_555
C32_3 C54_3 1_555 1_555
C38_3 C59_3 1_555 1_555
C39_3 C54_3 1_555 1_555
C47_3 C64_3 1_555 1_555
C52_3 C56_3 1_555 1_555
Mn3_2 O4_3 1_555 1_555
S1_3 C29_3 1_555 1_555
S2_3 C22_3 1_555 1_555
O18_2 C13_3 1_555 1_555
O4_3 C44_3 1_555 1_555
O20_2 C13_3 1_555 1_555
O10_2 C36_3 1_555 1_555
O13_3 Mn3_2 1_555 1_555
O15_3 Mn3_2 1_555 1_555
N9_2 C61_3 1_555 1_555
N6_3 Mn3_2 1_555 1_555
C1_3 C11_3 1_555 1_555
C11_3 H4_3 1_555 1_555
C13_3 C22_3 1_555 1_555
C19_3 C1_3 1_555 1_555
H9_3 C19_3 1_555 1_555
C22_3 C53_3 1_555 1_555
C23_3 H12_3 1_555 1_555
C26_3 N6_3 1_555 1_555
H14_3 C26_3 1_555 1_555
C27_3 H15_3 1_555 1_555
C29_3 C23_3 1_555 1_555
C33_3 O13_3 1_555 1_555
C36_3 C29_3 1_555 1_555
C37_3 S1_3 1_555 1_555
C43_3 C1_3 1_555 1_555
C44_3 O11_3 1_555 1_555
C49_3 S2_3 1_555 1_555
C53_3 C27_3 1_555 1_555
H30_3 C53_3 1_555 1_555
C57_3 C23_3 1_555 1_555
H33_3 C57_3 1_555 1_555
C58_3 N6_3 1_555 1_555
H34_3 C58_3 1_555 1_555
C60_3 C43_3 1_555 1_555
H36_3 C60_3 1_555 1_555
C61_3 H37_3 1_555 1_555
C62_3 C43_3 1_555 1_555
H38_3 C62_3 1_555 1_555
C63_3 N9_2 1_555 1_555
H39_3 C63_3 1_555 1_555
O15_3 C33_3 1_555 1_555
C11_3 C26_3 1_555 1_555
C19_3 C58_3 1_555 1_555
C27_3 C49_3 1_555 1_555
C33_3 C37_3 1_555 1_555
C37_3 C57_3 1_555 1_555
C44_3 C49_3 1_555 1_555
C60_3 C63_3 1_555 1_555
C61_3 C62_3 1_555 1_555
Mn9_2 O4_4 1_555 1_555
S1_4 C29_4 1_555 1_555
S2_4 C22_4 1_555 1_555
O3_2 C13_4 1_555 1_555
O4_4 C44_4 1_555 1_555
O6_2 C13_4 1_555 1_555
O21_2 C36_4 1_555 1_555
O13_4 Mn9_2 1_555 1_555
O15_4 Mn9_2 1_555 1_555
N3_2 C61_4 1_555 1_555
N6_4 Mn9_2 1_555 1_555
C1_4 C11_4 1_555 1_555
C11_4 H4_4 1_555 1_555
C13_4 C22_4 1_555 1_555
C19_4 C1_4 1_555 1_555
H9_4 C19_4 1_555 1_555
C22_4 C53_4 1_555 1_555
C23_4 H12_4 1_555 1_555
C26_4 N6_4 1_555 1_555
H14_4 C26_4 1_555 1_555
C27_4 H15_4 1_555 1_555
C29_4 C23_4 1_555 1_555
C33_4 O13_4 1_555 1_555
C36_4 C29_4 1_555 1_555
C37_4 S1_4 1_555 1_555
C43_4 C1_4 1_555 1_555
C44_4 O11_4 1_555 1_555
C49_4 S2_4 1_555 1_555
C53_4 C27_4 1_555 1_555
H30_4 C53_4 1_555 1_555
C57_4 C23_4 1_555 1_555
H33_4 C57_4 1_555 1_555
C58_4 N6_4 1_555 1_555
H34_4 C58_4 1_555 1_555
C60_4 C43_4 1_555 1_555
H36_4 C60_4 1_555 1_555
C61_4 H37_4 1_555 1_555
C62_4 C43_4 1_555 1_555
H38_4 C62_4 1_555 1_555
C63_4 N3_2 1_555 1_555
H39_4 C63_4 1_555 1_555
Mn7_2 O3_2 1_555 1_555
O6_2 Mn7_2 1_555 1_555
O15_4 C33_4 1_555 1_555
C11_4 C26_4 1_555 1_555
C19_4 C58_4 1_555 1_555
C27_4 C49_4 1_555 1_555
C33_4 C37_4 1_555 1_555
C37_4 C57_4 1_555 1_555
C44_4 C49_4 1_555 1_555
C60_4 C63_4 1_555 1_555
C61_4 C62_4 1_555 1_555
Mn7_2 O7_4 1_555 1_555
Mn8_2 O2_4 1_555 1_555
S3_4 C24_4 1_555 1_555
S4_4 C41_4 1_555 1_555
O17_2 C16_4 1_555 1_555
O2_4 C32_4 1_555 1_555
O7_4 C12_4 1_555 1_555
O9_4 Mn8_2 1_555 1_555
O22_2 C16_4 1_555 1_555
O16_4 Mn8_2 1_555 1_555
N2_4 Mn8_2 1_555 1_555
N5_2 C52_4 1_555 1_555
C3_4 C7_4 1_555 1_555
C5_4 O9_4 1_555 1_555
C7_4 C47_4 1_555 1_555
C12_4 C24_4 1_555 1_555
C14_4 C3_4 1_555 1_555
H5_4 C14_4 1_555 1_555
C16_4 C41_4 1_555 1_555
C17_4 N2_4 1_555 1_555
H7_4 C17_4 1_555 1_555
C21_4 N2_4 1_555 1_555
H11_4 C21_4 1_555 1_555
C24_4 C38_4 1_555 1_555
C30_4 C3_4 1_555 1_555
H17_4 C30_4 1_555 1_555
C31_4 S3_4 1_555 1_555
C32_4 O12_4 1_555 1_555
C38_4 H19_4 1_555 1_555
C39_4 H20_4 1_555 1_555
C41_4 C42_4 1_555 1_555
C42_4 C39_4 1_555 1_555
H22_4 C42_4 1_555 1_555
C47_4 H25_4 1_555 1_555
C52_4 H29_4 1_555 1_555
C54_4 S4_4 1_555 1_555
C56_4 C7_4 1_555 1_555
H32_4 C56_4 1_555 1_555
C59_4 C31_4 1_555 1_555
H35_4 C59_4 1_555 1_555
C64_4 N5_2 1_555 1_555
H40_4 C64_4 1_555 1_555
N12_2 Mn7_2 1_555 1_555
O16_4 C5_4 1_555 1_555
C5_4 C31_4 1_555 1_555
C14_4 C21_4 1_555 1_555
C17_4 C30_4 1_555 1_555
C32_4 C54_4 1_555 1_555
C38_4 C59_4 1_555 1_555
C39_4 C54_4 1_555 1_555
C47_4 C64_4 1_555 1_555
C52_4 C56_4 1_555 1_555
Mn12_2 O8_4 1_555 1_555
N10_2 C34_4 1_555 1_555
N7_4 Mn12_2 1_555 1_555
C4_4 H1_4 1_555 1_555
C8_4 C4_4 1_555 1_555
C34_4 H18_4 1_555 1_555
C35_4 C8_4 1_555 1_555
C40_4 C8_4 1_555 1_555
C48_4 N10_2 1_555 1_555
C50_4 N7_4 1_555 1_555
H27_4 C50_4 1_555 1_555
C51_4 C34_4 1_555 1_555
H28_4 C51_4 1_555 1_555
C55_4 N7_4 1_555 1_555
C4_4 C50_4 1_555 1_555
C25_4 C35_4 1_555 1_555
C25_4 C48_4 1_555 1_555
C35_4 C51_4 1_555 1_555
C40_4 C55_4 1_555 1_555
N12_2 C28_4 1_555 1_555
C2_4 C9_4 1_555 1_555
C6_4 H2_4 1_555 1_555
C9_4 C6_4 1_555 1_555
C10_4 N1_4 1_555 1_555
H3_4 C10_4 1_555 1_555
C15_4 C2_4 1_555 1_555
H6_4 C15_4 1_555 1_555
C18_4 C9_4 1_555 1_555
H8_4 C18_4 1_555 1_555
C20_4 C2_4 1_555 1_555
H10_4 C20_4 1_555 1_555
C28_4 C6_4 1_555 1_555
H16_4 C28_4 1_555 1_555
C45_4 N12_2 1_555 1_555
H23_4 C45_4 1_555 1_555
C46_4 N1_4 1_555 1_555
H24_4 C46_4 1_555 1_555
C10_4 C15_4 1_555 1_555
C18_4 C45_4 1_555 1_555
C20_4 C46_4 1_555 1_555

#END
