
###############################################################################
#
# This file contains modified crystal structure data generated from the
# MOF subset of the Cambridge Structural Database (CSD) v543 
# hosted by the Cambridge Crystallographic Data Centre (CCDC).
#
# This work is licensed under the Creative Commons
# Attribution-NonCommercial-ShareAlike 4.0 International License.
# To view a copy of this license, visit
# http://creativecommons.org/licenses/by-nc-sa/4.0/
# or send a letter to
# Creative Commons, PO Box 1866, Mountain View, CA 94042, USA.
#
# CIF created using the CSD Python API on 29 September 2022
# The structure has been converted into the P1 space group
# The structure has a 3D framework
# The original CSD entry SIGMED is in the monoclinic crystal system
# The framework has been calculated to contain at least 10.0% void space
# The void calculation uses a probe of radius 1.32A, grid spacing 0.4
#
###############################################################################

data_SIGMED
_chemical_formula_moiety         '(C144 H96 Mn8 N32 O32 S8)n'
_symmetry_cell_setting           triclinic
_symmetry_space_group_name_H-M   'P 1'
_symmetry_Int_Tables_number      1
_space_group_name_Hall           'P 1'
loop_
_symmetry_equiv_pos_site_id
_symmetry_equiv_pos_as_xyz
1 x,y,z
_cell_length_a                   15.7687(12)
_cell_length_b                   15.1078(11)
_cell_length_c                   18.9323(14)
_cell_angle_alpha                90
_cell_angle_beta                 102.465(3)
_cell_angle_gamma                90
_cell_volume                     4403.93
loop_
_atom_site_label
_atom_site_type_symbol
_atom_site_fract_x
_atom_site_fract_y
_atom_site_fract_z
N1 N 0.12162(14) 0.14604(14) 0.41970(12)
C10 C 0.07608(17) 0.19413(18) 0.36507(15)
H4 H 0.1064 0.2226 0.3332
C16 C 0.07719(17) 0.10636(18) 0.46382(16)
H10 H 0.1085 0.0708 0.5021
Mn2 Mn 0.26855(2) 0.14232(2) 0.44546(2)
S1 S 0.23330(4) 0.49187(4) 0.30538(3)
O1 O 0.23717(12) 0.50829(12) 0.09940(10)
O2 O 0.26443(12) 0.27955(12) 0.42626(10)
O3 O 0.22228(11) 0.41459(12) 0.44823(10)
O4 O 0.23609(12) 0.61412(12) 0.17978(10)
N2 N 0.72156(14) 0.17371(15) 0.42641(13)
N3 N 0.41431(14) 0.15457(14) 0.46440(12)
N4 N 0.81147(14) 0.15699(15) 0.44254(13)
C1 C 0.24366(15) 0.35710(17) 0.40668(14)
C2 C 0.94180(17) 0.16486(17) 0.39980(15)
C3 C 0.23907(16) 0.53407(17) 0.16336(14)
C4 C 0.84774(17) 0.17791(17) 0.39110(16)
H1 H 0.8144 0.2018 0.3474
C5 C 0.26038(17) 0.32922(18) 0.27715(14)
H2 H 0.2695 0.2672 0.2819
C6 C 0.24693(16) 0.38292(16) 0.33239(14)
C7 C 0.59309(17) 0.14869(17) 0.47157(15)
C8 C 0.24480(16) 0.46498(17) 0.21982(14)
C9 C 0.98895(17) 0.11439(19) 0.45671(16)
H3 H 0.9605 0.0861 0.4900
C11 C 0.55671(17) 0.10962(19) 0.52433(16)
H5 H 0.5927 0.0802 0.5641
C12 C 0.68665(17) 0.14111(18) 0.47578(16)
H6 H 0.7220 0.1115 0.5158
C13 C 0.46816(17) 0.11363(18) 0.51884(15)
H7 H 0.4444 0.0861 0.5553
C14 C 0.25916(17) 0.37617(17) 0.21309(15)
H8 H 0.2674 0.3493 0.1697
C15 C 0.53765(18) 0.19398(19) 0.41591(17)
H9 H 0.5600 0.2236 0.3795
C17 C 0.98717(17) 0.20427(19) 0.35286(15)
H11 H 0.9572 0.2379 0.3127
C18 C 0.45010(18) 0.1950(2) 0.41460(17)
H12 H 0.4129 0.2259 0.3764
Mn3 Mn 0.23145(2) 0.64232(2) 0.05454(2)
Mn4 Mn 0.23145(2) 0.35768(2) 0.55454(2)
O5 O 0.26283(12) 0.00829(12) 0.40060(10)
O6 O 0.27772(11) 0.08541(12) 0.55177(10)
O7 O 0.26391(12) 0.11412(12) 0.32022(10)
C3_2 C 0.26093(16) 0.03407(17) 0.33664(14)
S1_2 S 0.26670(4) 0.99187(4) 0.19462(3)
O2_2 O 0.23557(12) 0.77955(12) 0.07374(10)
O3_2 O 0.27772(11) 0.91459(12) 0.05177(10)
N3_2 N 0.08569(14) 0.65457(14) 0.03560(12)
C1_2 C 0.25634(15) 0.85710(17) 0.09332(14)
C5_2 C 0.23962(17) 0.82922(18) 0.22285(14)
H2_2 H 0.2305 0.7672 0.2181
C6_2 C 0.25307(16) 0.88292(16) 0.16761(14)
C8_2 C 0.25520(16) 0.96498(17) 0.28018(14)
C14_2 C 0.24084(17) 0.87617(17) 0.28691(15)
H8_2 H 0.2326 0.8493 0.3303
C18_2 C 0.04990(18) 0.6950(2) 0.08540(17)
H12_2 H 0.0871 0.7259 0.1236
N5 N 0.37838(14) 0.64604(14) 0.08030(12)
C13_2 C 0.03184(17) 0.61363(18) 0.98116(15)
H7_2 H 0.0556 0.5861 0.9447
Mn4_2 Mn 0.26855(2) 0.85768(2) 0.94546(2)
O6_2 O 0.22228(11) 0.58541(12) 0.94823(10)
N2_2 N 0.77844(14) 0.67371(15) 0.07359(13)
N4_2 N 0.68853(14) 0.65699(15) 0.05746(13)
C2_2 C 0.55820(17) 0.66486(17) 0.10020(15)
C4_2 C 0.65226(17) 0.67791(17) 0.10890(16)
H1_2 H 0.6856 0.7018 0.1526
C7_2 C 0.90691(17) 0.64869(17) 0.02843(15)
C9_2 C 0.51105(17) 0.61439(19) 0.04329(16)
H3_2 H 0.5395 0.5861 0.0100
C10_2 C 0.42392(17) 0.69413(18) 0.13493(15)
H4_2 H 0.3936 0.7226 0.1668
C12_2 C 0.81335(17) 0.64111(18) 0.02422(16)
C15_2 C 0.96235(18) 0.69398(19) 0.08409(17)
H9_2 H 0.9400 0.7236 0.1205
C16_2 C 0.42281(17) 0.60636(18) 0.03618(16)
C17_2 C 0.51283(17) 0.70427(19) 0.14714(15)
H11_2 H 0.5428 0.7379 0.1873
N1_2 N 0.12162(14) 0.85396(14) 0.91970(12)
C10_3 C 0.07608(17) 0.80587(18) 0.86507(15)
H4_3 H 0.1064 0.7774 0.8332
C16_3 C 0.07719(17) 0.89364(18) 0.96382(16)
C11_2 C 0.55671(17) 0.89038(19) 0.02433(16)
H5_2 H 0.5927 0.9198 0.0641
H6_2 H 0.7220 0.8885 0.0158
C13_3 C 0.46816(17) 0.88637(18) 0.01884(15)
H7_3 H 0.4444 0.9139 0.0553
S1_3 S 0.23330(4) 0.50813(4) 0.80538(3)
O1_2 O 0.23717(12) 0.49171(12) 0.59940(10)
O2_3 O 0.26443(12) 0.72045(12) 0.92626(10)
O4_2 O 0.23609(12) 0.38588(12) 0.67978(10)
N2_3 N 0.72156(14) 0.82629(15) 0.92641(13)
N3_3 N 0.41431(14) 0.84543(14) 0.96440(12)
N4_3 N 0.81147(14) 0.84301(15) 0.94254(13)
C1_3 C 0.24366(15) 0.64290(17) 0.90668(14)
C2_3 C 0.94180(17) 0.83514(17) 0.89980(15)
C3_3 C 0.23907(16) 0.46593(17) 0.66336(14)
C4_3 C 0.84774(17) 0.82209(17) 0.89110(16)
H1_3 H 0.8144 0.7982 0.8474
C5_3 C 0.26038(17) 0.67078(18) 0.77715(14)
H2_3 H 0.2695 0.7328 0.7819
C6_3 C 0.24693(16) 0.61708(16) 0.83239(14)
C7_3 C 0.59309(17) 0.85131(17) 0.97157(15)
C8_3 C 0.24480(16) 0.53502(17) 0.71982(14)
C9_3 C 0.98895(17) 0.88561(19) 0.95671(16)
H3_3 H 0.9605 0.9139 0.9900
C12_3 C 0.68665(17) 0.85889(18) 0.97578(16)
C14_3 C 0.25916(17) 0.62383(17) 0.71309(15)
H8_3 H 0.2674 0.6507 0.6697
C15_3 C 0.53765(18) 0.80602(19) 0.91591(17)
H9_3 H 0.5600 0.7764 0.8795
C17_3 C 0.98717(17) 0.79573(19) 0.85286(15)
H11_3 H 0.9572 0.7621 0.8127
C18_3 C 0.45010(18) 0.8050(2) 0.91460(17)
H12_3 H 0.4129 0.7741 0.8764
O5_2 O 0.26283(12) 0.99171(12) 0.90060(10)
O7_2 O 0.26391(12) 0.88588(12) 0.82022(10)
S1_4 S 0.26670(4) 0.00813(4) 0.69462(3)
O2_4 O 0.23557(12) 0.22045(12) 0.57374(10)
N3_4 N 0.08569(14) 0.34543(14) 0.53560(12)
C1_4 C 0.25634(15) 0.14290(17) 0.59332(14)
C5_4 C 0.23962(17) 0.17078(18) 0.72285(14)
H2_4 H 0.2305 0.2328 0.7181
C6_4 C 0.25307(16) 0.11708(16) 0.66761(14)
C8_4 C 0.25520(16) 0.03502(17) 0.78018(14)
C13_4 C 0.03184(17) 0.38637(18) 0.48116(15)
H7_4 H 0.0556 0.4139 0.4447
C14_4 C 0.24084(17) 0.12383(17) 0.78691(15)
H8_4 H 0.2326 0.1507 0.8303
C18_4 C 0.04990(18) 0.3050(2) 0.58540(17)
H12_4 H 0.0871 0.2741 0.6236
N5_2 N 0.37838(14) 0.35396(14) 0.58030(12)
C3_4 C 0.26093(16) 0.96593(17) 0.83664(14)
N2_4 N 0.77844(14) 0.32629(15) 0.57359(13)
N4_4 N 0.68853(14) 0.34301(15) 0.55746(13)
C2_4 C 0.55820(17) 0.33514(17) 0.60020(15)
C4_4 C 0.65226(17) 0.32209(17) 0.60890(16)
H1_4 H 0.6856 0.2982 0.6526
C7_4 C 0.90691(17) 0.35131(17) 0.52843(15)
C9_4 C 0.51105(17) 0.38561(19) 0.54329(16)
H3_4 H 0.5395 0.4139 0.5100
C10_4 C 0.42392(17) 0.30587(18) 0.63493(15)
H4_4 H 0.3936 0.2774 0.6668
C11_3 C 0.94329(17) 0.39038(19) 0.47567(16)
H5_3 H 0.9073 0.4198 0.4359
C12_4 C 0.81335(17) 0.35889(18) 0.52422(16)
H6_3 H 0.7780 0.3885 0.4842
C15_4 C 0.96235(18) 0.30602(19) 0.58409(17)
H9_4 H 0.9400 0.2764 0.6205
C16_4 C 0.42281(17) 0.39364(18) 0.53618(16)
H10_2 H 0.3915 0.4292 0.4979
C17_4 C 0.51283(17) 0.29573(19) 0.64714(15)
H11_4 H 0.5428 0.2621 0.6873
Mn1 Mn 0.73145(2) 0.14232(2) 0.05454(2)
S1_5 S 0.76670(4) 0.49187(4) 0.19462(3)
O1_3 O 0.76283(12) 0.50829(12) 0.40060(10)
O2_5 O 0.73557(12) 0.27955(12) 0.07374(10)
O3_3 O 0.77772(11) 0.41459(12) 0.05177(10)
O4_3 O 0.76391(12) 0.61412(12) 0.32022(10)
N2_5 N 0.27844(14) 0.17371(15) 0.07359(13)
N3_5 N 0.58569(14) 0.15457(14) 0.03560(12)
N4_5 N 0.18853(14) 0.15699(15) 0.05746(13)
C1_5 C 0.75634(15) 0.35710(17) 0.09332(14)
C2_5 C 0.05820(17) 0.16486(17) 0.10020(15)
C3_5 C 0.76093(16) 0.53407(17) 0.33664(14)
C4_5 C 0.15226(17) 0.17791(17) 0.10890(16)
H1_5 H 0.1856 0.2018 0.1526
C5_5 C 0.73962(17) 0.32922(18) 0.22285(14)
H2_5 H 0.7305 0.2672 0.2181
C6_5 C 0.75307(16) 0.38292(16) 0.16761(14)
C7_5 C 0.40691(17) 0.14869(17) 0.02843(15)
C8_5 C 0.75520(16) 0.46498(17) 0.28018(14)
C9_5 C 0.01105(17) 0.11439(19) 0.04329(16)
H3_5 H 0.0395 0.0861 0.0100
C12_5 C 0.31335(17) 0.14111(18) 0.02422(16)
C14_5 C 0.74084(17) 0.37617(17) 0.28691(15)
H8_5 H 0.7326 0.3493 0.3303
C15_5 C 0.46235(18) 0.19398(19) 0.08409(17)
H9_5 H 0.4400 0.2236 0.1205
C17_5 C 0.01283(17) 0.20427(19) 0.14714(15)
H11_5 H 0.0428 0.2379 0.1873
C18_5 C 0.54990(18) 0.1950(2) 0.08540(17)
H12_5 H 0.5871 0.2259 0.1236
Mn3_2 Mn 0.76855(2) 0.64232(2) 0.44546(2)
O5_3 O 0.73717(12) 0.00829(12) 0.09940(10)
O7_3 O 0.73609(12) 0.11412(12) 0.17978(10)
N5_3 N 0.87838(14) 0.14604(14) 0.08030(12)
C11_4 C 0.44329(17) 0.10962(19) 0.97567(16)
H5_4 H 0.4073 0.0802 0.9359
H6_4 H 0.2780 0.1115 0.9842
C13_5 C 0.53184(17) 0.11363(18) 0.98116(15)
H7_5 H 0.5556 0.0861 0.9447
Mn4_3 Mn 0.76855(2) 0.35768(2) 0.94546(2)
O6_3 O 0.72228(11) 0.08541(12) 0.94823(10)
C10_5 C 0.92392(17) 0.19413(18) 0.13493(15)
H4_5 H 0.8936 0.2226 0.1668
C16_5 C 0.92281(17) 0.10636(18) 0.03618(16)
N1_3 N 0.62162(14) 0.64604(14) 0.41970(12)
N2_6 N 0.22156(14) 0.67371(15) 0.42641(13)
N4_6 N 0.31147(14) 0.65699(15) 0.44254(13)
C2_6 C 0.44180(17) 0.66486(17) 0.39980(15)
C4_6 C 0.34774(17) 0.67791(17) 0.39110(16)
H1_6 H 0.3144 0.7018 0.3474
C7_6 C 0.09309(17) 0.64869(17) 0.47157(15)
C9_6 C 0.48895(17) 0.61439(19) 0.45671(16)
H3_6 H 0.4605 0.5861 0.4900
C10_6 C 0.57608(17) 0.69413(18) 0.36507(15)
H4_6 H 0.6064 0.7226 0.3332
C11_5 C 0.05671(17) 0.60962(19) 0.52433(16)
H5_5 H 0.0927 0.5802 0.5641
C12_6 C 0.18665(17) 0.64111(18) 0.47578(16)
H6_5 H 0.2220 0.6115 0.5158
C15_6 C 0.03765(18) 0.69398(19) 0.41591(17)
H9_6 H 0.0600 0.7236 0.3795
C16_6 C 0.57719(17) 0.60636(18) 0.46382(16)
H10_3 H 0.6085 0.5708 0.5021
C17_6 C 0.48717(17) 0.70427(19) 0.35286(15)
H11_6 H 0.4572 0.7379 0.3127
C3_6 C 0.73907(16) 0.03407(17) 0.16336(14)
S1_6 S 0.73330(4) 0.99187(4) 0.30538(3)
O2_6 O 0.76443(12) 0.77955(12) 0.42626(10)
O3_4 O 0.72228(11) 0.91459(12) 0.44823(10)
N3_6 N 0.91431(14) 0.65457(14) 0.46440(12)
C1_6 C 0.74366(15) 0.85710(17) 0.40668(14)
C5_6 C 0.76038(17) 0.82922(18) 0.27715(14)
H2_6 H 0.7695 0.7672 0.2819
C6_6 C 0.74693(16) 0.88292(16) 0.33239(14)
C8_6 C 0.74480(16) 0.96498(17) 0.21982(14)
C13_6 C 0.96816(17) 0.61363(18) 0.51884(15)
H7_6 H 0.9444 0.5861 0.5553
C14_6 C 0.75916(17) 0.87617(17) 0.21309(15)
H8_6 H 0.7674 0.8493 0.1697
C18_6 C 0.95010(18) 0.6950(2) 0.41460(17)
H12_6 H 0.9129 0.7259 0.3764
Mn4_4 Mn 0.73145(2) 0.85768(2) 0.55454(2)
O6_4 O 0.77772(11) 0.58541(12) 0.55177(10)
S1_7 S 0.76670(4) 0.50813(4) 0.69462(3)
O1_4 O 0.76283(12) 0.49171(12) 0.90060(10)
O2_7 O 0.73557(12) 0.72045(12) 0.57374(10)
O4_4 O 0.76391(12) 0.38588(12) 0.82022(10)
N2_7 N 0.27844(14) 0.82629(15) 0.57359(13)
N3_7 N 0.58569(14) 0.84543(14) 0.53560(12)
N4_7 N 0.18853(14) 0.84301(15) 0.55746(13)
C1_7 C 0.75634(15) 0.64290(17) 0.59332(14)
C2_7 C 0.05820(17) 0.83514(17) 0.60020(15)
C3_7 C 0.76093(16) 0.46593(17) 0.83664(14)
C4_7 C 0.15226(17) 0.82209(17) 0.60890(16)
H1_7 H 0.1856 0.7982 0.6526
C5_7 C 0.73962(17) 0.67078(18) 0.72285(14)
H2_7 H 0.7305 0.7328 0.7181
C6_7 C 0.75307(16) 0.61708(16) 0.66761(14)
C7_7 C 0.40691(17) 0.85131(17) 0.52843(15)
C8_7 C 0.75520(16) 0.53502(17) 0.78018(14)
C9_7 C 0.01105(17) 0.88561(19) 0.54329(16)
H3_7 H 0.0395 0.9139 0.5100
C11_6 C 0.44329(17) 0.89038(19) 0.47567(16)
H5_6 H 0.4073 0.9198 0.4359
C12_7 C 0.31335(17) 0.85889(18) 0.52422(16)
H6_6 H 0.2780 0.8885 0.4842
C13_7 C 0.53184(17) 0.88637(18) 0.48116(15)
H7_7 H 0.5556 0.9139 0.4447
C14_7 C 0.74084(17) 0.62383(17) 0.78691(15)
H8_7 H 0.7326 0.6507 0.8303
C15_7 C 0.46235(18) 0.80602(19) 0.58409(17)
H9_7 H 0.4400 0.7764 0.6205
C17_7 C 0.01283(17) 0.79573(19) 0.64714(15)
H11_7 H 0.0428 0.7621 0.6873
C18_7 C 0.54990(18) 0.8050(2) 0.58540(17)
H12_7 H 0.5871 0.7741 0.6236
O5_4 O 0.73717(12) 0.99171(12) 0.59940(10)
O7_4 O 0.73609(12) 0.88588(12) 0.67978(10)
N5_4 N 0.87838(14) 0.85396(14) 0.58030(12)
C10_7 C 0.92392(17) 0.80587(18) 0.63493(15)
H4_7 H 0.8936 0.7774 0.6668
C16_7 C 0.92281(17) 0.89364(18) 0.53618(16)
H10_4 H 0.8915 0.9292 0.4979
N1_4 N 0.62162(14) 0.35396(14) 0.91970(12)
N2_8 N 0.22156(14) 0.32629(15) 0.92641(13)
N4_8 N 0.31147(14) 0.34301(15) 0.94254(13)
C2_8 C 0.44180(17) 0.33514(17) 0.89980(15)
C4_8 C 0.34774(17) 0.32209(17) 0.89110(16)
H1_8 H 0.3144 0.2982 0.8474
C7_8 C 0.09309(17) 0.35131(17) 0.97157(15)
C9_8 C 0.48895(17) 0.38561(19) 0.95671(16)
H3_8 H 0.4605 0.4139 0.9900
C10_8 C 0.57608(17) 0.30587(18) 0.86507(15)
H4_8 H 0.6064 0.2774 0.8332
C12_8 C 0.18665(17) 0.35889(18) 0.97578(16)
C15_8 C 0.03765(18) 0.30602(19) 0.91591(17)
H9_8 H 0.0600 0.2764 0.8795
C16_8 C 0.57719(17) 0.39364(18) 0.96382(16)
C17_8 C 0.48717(17) 0.29573(19) 0.85286(15)
H11_8 H 0.4572 0.2621 0.8127
C13_8 C 0.96816(17) 0.38637(18) 0.01884(15)
H7_8 H 0.9444 0.4139 0.0553
S1_8 S 0.73330(4) 0.00813(4) 0.80538(3)
O2_8 O 0.76443(12) 0.22045(12) 0.92626(10)
N3_8 N 0.91431(14) 0.34543(14) 0.96440(12)
C1_8 C 0.74366(15) 0.14290(17) 0.90668(14)
C5_8 C 0.76038(17) 0.17078(18) 0.77715(14)
H2_8 H 0.7695 0.2328 0.7819
C6_8 C 0.74693(16) 0.11708(16) 0.83239(14)
C8_8 C 0.74480(16) 0.03502(17) 0.71982(14)
C14_8 C 0.75916(17) 0.12383(17) 0.71309(15)
H8_8 H 0.7674 0.1507 0.6697
C18_8 C 0.95010(18) 0.3050(2) 0.91460(17)
H12_8 H 0.9129 0.2741 0.8764
C3_8 C 0.73907(16) 0.96593(17) 0.66336(14)
H10_5 H 0.8915 0.0708 0.9979
C11_7 C 0.94329(17) 0.60962(19) 0.97567(16)
H5_7 H 0.9073 0.5802 0.9359
H6_7 H 0.7780 0.6115 0.9842
H10_6 H 0.3915 0.5708 0.9979
H10_7 H 0.1085 0.9292 0.0021
C11_8 C 0.05671(17) 0.39038(19) 0.02433(16)
H5_8 H 0.0927 0.4198 0.0641
H6_8 H 0.2220 0.3885 0.0158
H10_8 H 0.6085 0.4292 0.0021
loop_
_geom_bond_atom_site_label_1
_geom_bond_atom_site_label_2
_geom_bond_site_symmetry_1
_geom_bond_site_symmetry_2
N1 C10 1_555 1_555
C10 H4 1_555 1_555
C16 N1 1_555 1_555
H10 C16 1_555 1_555
Mn2 N1 1_555 1_555
Mn2 O2 1_555 1_555
S1 C6 1_555 1_555
O1 C3 1_555 1_555
O2 C1 1_555 1_555
O3 C1 1_555 1_555
O4 C3 1_555 1_555
N2 N4 1_555 1_555
N3 Mn2 1_555 1_555
N4 C4 1_555 1_555
C1 C6 1_555 1_555
C2 C4 1_555 1_555
C3 C8 1_555 1_555
C4 H1 1_555 1_555
C5 H2 1_555 1_555
C6 C5 1_555 1_555
C7 C11 1_555 1_555
C8 S1 1_555 1_555
C9 C2 1_555 1_555
H3 C9 1_555 1_555
C11 H5 1_555 1_555
C12 N2 1_555 1_555
H6 C12 1_555 1_555
C13 N3 1_555 1_555
H7 C13 1_555 1_555
C14 C5 1_555 1_555
H8 C14 1_555 1_555
C15 C7 1_555 1_555
H9 C15 1_555 1_555
C17 C2 1_555 1_555
H11 C17 1_555 1_555
C18 N3 1_555 1_555
H12 C18 1_555 1_555
Mn3 O1 1_555 1_555
Mn4 O3 1_555 1_555
O5 Mn2 1_555 1_555
O6 Mn2 1_555 1_555
O7 Mn2 1_555 1_555
O4 Mn3 1_555 1_555
C7 C12 1_555 1_555
C8 C14 1_555 1_555
C11 C13 1_555 1_555
C15 C18 1_555 1_555
O5 C3_2 1_555 1_555
O7 C3_2 1_555 1_555
Mn3 O2_2 1_555 1_555
S1_2 C6_2 1_555 1_555
O2_2 C1_2 1_555 1_555
O3_2 C1_2 1_555 1_555
N3_2 Mn3 1_555 1_555
C1_2 C6_2 1_555 1_555
C5_2 H2_2 1_555 1_555
C6_2 C5_2 1_555 1_555
C8_2 S1_2 1_555 1_555
C14_2 C5_2 1_555 1_555
H8_2 C14_2 1_555 1_555
C18_2 N3_2 1_555 1_555
H12_2 C18_2 1_555 1_555
N5 Mn3 1_555 1_555
C8_2 C14_2 1_555 1_555
H7_2 C13_2 1_555 1_555
N5 C10_2 1_555 1_555
N2_2 N4_2 1_555 1_555
N4_2 C4_2 1_555 1_555
C2_2 C4_2 1_555 1_555
C4_2 H1_2 1_555 1_555
C9_2 C2_2 1_555 1_555
H3_2 C9_2 1_555 1_555
C10_2 H4_2 1_555 1_555
C12_2 N2_2 1_555 1_555
C15_2 C7_2 1_555 1_555
H9_2 C15_2 1_555 1_555
C16_2 N5 1_555 1_555
C17_2 C2_2 1_555 1_555
H11_2 C17_2 1_555 1_555
C7_2 C12_2 1_555 1_555
C9_2 C16_2 1_555 1_555
C10_2 C17_2 1_555 1_555
N1_2 C10_3 1_555 1_555
C10_3 H4_3 1_555 1_555
C16_3 N1_2 1_555 1_555
Mn4_2 N1_2 1_555 1_555
C11_2 H5_2 1_555 1_555
H7_3 C13_3 1_555 1_555
C11_2 C13_3 1_555 1_555
Mn4_2 O2_3 1_555 1_555
S1_3 C6_3 1_555 1_555
O1_2 C3_3 1_555 1_555
O2_3 C1_3 1_555 1_555
O6_2 C1_3 1_555 1_555
O4_2 C3_3 1_555 1_555
N2_3 N4_3 1_555 1_555
N3_3 Mn4_2 1_555 1_555
N4_3 C4_3 1_555 1_555
C1_3 C6_3 1_555 1_555
C2_3 C4_3 1_555 1_555
C3_3 C8_3 1_555 1_555
C4_3 H1_3 1_555 1_555
C5_3 H2_3 1_555 1_555
C6_3 C5_3 1_555 1_555
C8_3 S1_3 1_555 1_555
C9_3 C2_3 1_555 1_555
H3_3 C9_3 1_555 1_555
C12_3 N2_3 1_555 1_555
C14_3 C5_3 1_555 1_555
H8_3 C14_3 1_555 1_555
C15_3 C7_3 1_555 1_555
H9_3 C15_3 1_555 1_555
C17_3 C2_3 1_555 1_555
H11_3 C17_3 1_555 1_555
C18_3 N3_3 1_555 1_555
H12_3 C18_3 1_555 1_555
Mn4 O1_2 1_555 1_555
O5_2 Mn4_2 1_555 1_555
O7_2 Mn4_2 1_555 1_555
O4_2 Mn4 1_555 1_555
C7_3 C12_3 1_555 1_555
C8_3 C14_3 1_555 1_555
C15_3 C18_3 1_555 1_555
Mn4 O2_4 1_555 1_555
S1_4 C6_4 1_555 1_555
O2_4 C1_4 1_555 1_555
O6 C1_4 1_555 1_555
N3_4 Mn4 1_555 1_555
C1_4 C6_4 1_555 1_555
C5_4 H2_4 1_555 1_555
C6_4 C5_4 1_555 1_555
C8_4 S1_4 1_555 1_555
C13_4 N3_4 1_555 1_555
H7_4 C13_4 1_555 1_555
C14_4 C5_4 1_555 1_555
H8_4 C14_4 1_555 1_555
C18_4 N3_4 1_555 1_555
H12_4 C18_4 1_555 1_555
N5_2 Mn4 1_555 1_555
C8_4 C14_4 1_555 1_555
O5_2 C3_4 1_555 1_555
O7_2 C3_4 1_555 1_555
N5_2 C10_4 1_555 1_555
N2_4 N4_4 1_555 1_555
N4_4 C4_4 1_555 1_555
C2_4 C4_4 1_555 1_555
C4_4 H1_4 1_555 1_555
C7_4 C11_3 1_555 1_555
C9_4 C2_4 1_555 1_555
H3_4 C9_4 1_555 1_555
C10_4 H4_4 1_555 1_555
C11_3 H5_3 1_555 1_555
C12_4 N2_4 1_555 1_555
H6_3 C12_4 1_555 1_555
C15_4 C7_4 1_555 1_555
H9_4 C15_4 1_555 1_555
C16_4 N5_2 1_555 1_555
H10_2 C16_4 1_555 1_555
C17_4 C2_4 1_555 1_555
H11_4 C17_4 1_555 1_555
C7_4 C12_4 1_555 1_555
C9_4 C16_4 1_555 1_555
C10_4 C17_4 1_555 1_555
Mn1 O2_5 1_555 1_555
S1_5 C6_5 1_555 1_555
O1_3 C3_5 1_555 1_555
O2_5 C1_5 1_555 1_555
O3_3 C1_5 1_555 1_555
O4_3 C3_5 1_555 1_555
N2_5 N4_5 1_555 1_555
N3_5 Mn1 1_555 1_555
N4_5 C4_5 1_555 1_555
C1_5 C6_5 1_555 1_555
C2_5 C4_5 1_555 1_555
C3_5 C8_5 1_555 1_555
C4_5 H1_5 1_555 1_555
C5_5 H2_5 1_555 1_555
C6_5 C5_5 1_555 1_555
C8_5 S1_5 1_555 1_555
C9_5 C2_5 1_555 1_555
H3_5 C9_5 1_555 1_555
C12_5 N2_5 1_555 1_555
C14_5 C5_5 1_555 1_555
H8_5 C14_5 1_555 1_555
C15_5 C7_5 1_555 1_555
H9_5 C15_5 1_555 1_555
C17_5 C2_5 1_555 1_555
H11_5 C17_5 1_555 1_555
C18_5 N3_5 1_555 1_555
H12_5 C18_5 1_555 1_555
Mn3_2 O1_3 1_555 1_555
O5_3 Mn1 1_555 1_555
O7_3 Mn1 1_555 1_555
N5_3 Mn1 1_555 1_555
O4_3 Mn3_2 1_555 1_555
C7_5 C12_5 1_555 1_555
C8_5 C14_5 1_555 1_555
C15_5 C18_5 1_555 1_555
C11_4 H5_4 1_555 1_555
H7_5 C13_5 1_555 1_555
C11_4 C13_5 1_555 1_555
N5_3 C10_5 1_555 1_555
C10_5 H4_5 1_555 1_555
C16_5 N5_3 1_555 1_555
N1_3 C10_6 1_555 1_555
N2_6 N4_6 1_555 1_555
N4_6 C4_6 1_555 1_555
C2_6 C4_6 1_555 1_555
C4_6 H1_6 1_555 1_555
C7_6 C11_5 1_555 1_555
C9_6 C2_6 1_555 1_555
H3_6 C9_6 1_555 1_555
C10_6 H4_6 1_555 1_555
C11_5 H5_5 1_555 1_555
C12_6 N2_6 1_555 1_555
H6_5 C12_6 1_555 1_555
C15_6 C7_6 1_555 1_555
H9_6 C15_6 1_555 1_555
C16_6 N1_3 1_555 1_555
H10_3 C16_6 1_555 1_555
C17_6 C2_6 1_555 1_555
H11_6 C17_6 1_555 1_555
Mn3_2 N1_3 1_555 1_555
C7_6 C12_6 1_555 1_555
C9_6 C16_6 1_555 1_555
C10_6 C17_6 1_555 1_555
O5_3 C3_6 1_555 1_555
O7_3 C3_6 1_555 1_555
Mn3_2 O2_6 1_555 1_555
S1_6 C6_6 1_555 1_555
O2_6 C1_6 1_555 1_555
O3_4 C1_6 1_555 1_555
N3_6 Mn3_2 1_555 1_555
C1_6 C6_6 1_555 1_555
C5_6 H2_6 1_555 1_555
C6_6 C5_6 1_555 1_555
C8_6 S1_6 1_555 1_555
C13_6 N3_6 1_555 1_555
H7_6 C13_6 1_555 1_555
C14_6 C5_6 1_555 1_555
H8_6 C14_6 1_555 1_555
C18_6 N3_6 1_555 1_555
H12_6 C18_6 1_555 1_555
Mn4_4 O3_4 1_555 1_555
O6_4 Mn3_2 1_555 1_555
C8_6 C14_6 1_555 1_555
Mn4_4 O2_7 1_555 1_555
S1_7 C6_7 1_555 1_555
O1_4 C3_7 1_555 1_555
O2_7 C1_7 1_555 1_555
O6_4 C1_7 1_555 1_555
O4_4 C3_7 1_555 1_555
N2_7 N4_7 1_555 1_555
N3_7 Mn4_4 1_555 1_555
N4_7 C4_7 1_555 1_555
C1_7 C6_7 1_555 1_555
C2_7 C4_7 1_555 1_555
C3_7 C8_7 1_555 1_555
C4_7 H1_7 1_555 1_555
C5_7 H2_7 1_555 1_555
C6_7 C5_7 1_555 1_555
C7_7 C11_6 1_555 1_555
C8_7 S1_7 1_555 1_555
C9_7 C2_7 1_555 1_555
H3_7 C9_7 1_555 1_555
C11_6 H5_6 1_555 1_555
C12_7 N2_7 1_555 1_555
H6_6 C12_7 1_555 1_555
C13_7 N3_7 1_555 1_555
H7_7 C13_7 1_555 1_555
C14_7 C5_7 1_555 1_555
H8_7 C14_7 1_555 1_555
C15_7 C7_7 1_555 1_555
H9_7 C15_7 1_555 1_555
C17_7 C2_7 1_555 1_555
H11_7 C17_7 1_555 1_555
C18_7 N3_7 1_555 1_555
H12_7 C18_7 1_555 1_555
Mn4_3 O1_4 1_555 1_555
O5_4 Mn4_4 1_555 1_555
O7_4 Mn4_4 1_555 1_555
N5_4 Mn4_4 1_555 1_555
O4_4 Mn4_3 1_555 1_555
C7_7 C12_7 1_555 1_555
C8_7 C14_7 1_555 1_555
C11_6 C13_7 1_555 1_555
C15_7 C18_7 1_555 1_555
N5_4 C10_7 1_555 1_555
C10_7 H4_7 1_555 1_555
C16_7 N5_4 1_555 1_555
H10_4 C16_7 1_555 1_555
N1_4 C10_8 1_555 1_555
N2_8 N4_8 1_555 1_555
N4_8 C4_8 1_555 1_555
C2_8 C4_8 1_555 1_555
C4_8 H1_8 1_555 1_555
C9_8 C2_8 1_555 1_555
H3_8 C9_8 1_555 1_555
C10_8 H4_8 1_555 1_555
C12_8 N2_8 1_555 1_555
C15_8 C7_8 1_555 1_555
H9_8 C15_8 1_555 1_555
C16_8 N1_4 1_555 1_555
C17_8 C2_8 1_555 1_555
H11_8 C17_8 1_555 1_555
Mn4_3 N1_4 1_555 1_555
C7_8 C12_8 1_555 1_555
C9_8 C16_8 1_555 1_555
C10_8 C17_8 1_555 1_555
H7_8 C13_8 1_555 1_555
Mn4_3 O2_8 1_555 1_555
S1_8 C6_8 1_555 1_555
O2_8 C1_8 1_555 1_555
O6_3 C1_8 1_555 1_555
N3_8 Mn4_3 1_555 1_555
C1_8 C6_8 1_555 1_555
C5_8 H2_8 1_555 1_555
C6_8 C5_8 1_555 1_555
C8_8 S1_8 1_555 1_555
C14_8 C5_8 1_555 1_555
H8_8 C14_8 1_555 1_555
C18_8 N3_8 1_555 1_555
H12_8 C18_8 1_555 1_555
C8_8 C14_8 1_555 1_555
O5_4 C3_8 1_555 1_555
O7_4 C3_8 1_555 1_555
C11_7 H5_7 1_555 1_555
C11_8 H5_8 1_555 1_555

#END
