
###############################################################################
#
# This file contains modified crystal structure data generated from the
# MOF subset of the Cambridge Structural Database (CSD) v543 
# hosted by the Cambridge Crystallographic Data Centre (CCDC).
#
# This work is licensed under the Creative Commons
# Attribution-NonCommercial-ShareAlike 4.0 International License.
# To view a copy of this license, visit
# http://creativecommons.org/licenses/by-nc-sa/4.0/
# or send a letter to
# Creative Commons, PO Box 1866, Mountain View, CA 94042, USA.
#
# CIF created using the CSD Python API on 29 September 2022
# The structure has been converted into the P1 space group
# The structure has a 3D framework
# The original CSD entry SIGNUU is in the monoclinic crystal system
# The framework has been calculated to contain at least 10.0% void space
# The void calculation uses a probe of radius 1.32A, grid spacing 0.4
#
###############################################################################

data_SIGNUU
_chemical_formula_moiety         '(C184 H136 N12 O40 Zn8)n'
_symmetry_cell_setting           triclinic
_symmetry_space_group_name_H-M   'P 1'
_symmetry_Int_Tables_number      1
_space_group_name_Hall           'P 1'
loop_
_symmetry_equiv_pos_site_id
_symmetry_equiv_pos_as_xyz
1 x,y,z
_cell_length_a                   14.9534(6)
_cell_length_b                   23.9949(9)
_cell_length_c                   15.9759(6)
_cell_angle_alpha                90
_cell_angle_beta                 112.674(2)
_cell_angle_gamma                90
_cell_volume                     5289.21
loop_
_atom_site_label
_atom_site_type_symbol
_atom_site_fract_x
_atom_site_fract_y
_atom_site_fract_z
Zn4 Zn 0.42035(2) 0.01134(2) 0.13599(2)
Zn1 Zn 0.07965(2) 0.51134(2) 0.36401(2)
O1 O 0.47556(8) 0.93468(4) 0.14240(7)
O2 O 0.32733(9) 0.93331(5) 0.13932(8)
O3 O 0.03842(10) 0.55360(5) 0.14315(7)
O4 O 0.41041(9) 0.67307(5) 0.13131(8)
O5 O 0.13562(10) 0.55252(5) 0.29047(8)
N1 N 0.16743(10) 0.53250(5) 0.49319(8)
N2 N 0.41088(11) 0.51513(6) 0.81096(9)
H1 H 0.3867 0.4844 0.7841
C1 C 0.40343(10) 0.84611(6) 0.13993(9)
C2 C 0.40128(11) 0.90814(6) 0.14147(9)
C3 C 0.48108(11) 0.76006(6) 0.12789(11)
H2 H 0.5324 0.7412 0.1214
C4 C 0.48062(10) 0.81768(6) 0.13121(10)
H3 H 0.5323 0.8376 0.1276
C5 C 0.40421(11) 0.73079(6) 0.13434(10)
C6 C 0.18379(12) 0.56058(7) 0.64208(10)
H4 H 0.1546 0.5730 0.6806
C7 C 0.32693(10) 0.81586(7) 0.14520(10)
H5 H 0.2751 0.8346 0.1508
C8 C 0.12875(12) 0.55087(6) 0.55119(10)
H6 H 0.0623 0.5573 0.5295
C9 C 0.19553(14) 0.59056(7) 0.18793(10)
C10 C 0.33964(14) 0.64406(7) 0.15084(11)
C11 C 0.28312(13) 0.55156(7) 0.67505(10)
C12 C 0.32618(11) 0.75826(7) 0.14227(11)
H7 H 0.2743 0.7383 0.1455
C13 C 0.11711(14) 0.56319(6) 0.20857(10)
C14 C 0.45580(12) 0.55049(7) 0.96567(10)
H8 H 0.4265 0.5845 0.9436
C15 C 0.45287(11) 0.50797(7) 0.90555(11)
C16 C 0.49758(12) 0.45772(7) 0.94114(11)
H9 H 0.4964 0.4289 0.9018
C17 C 0.26007(14) 0.62357(8) 0.08004(11)
H10 H 0.2553 0.6272 0.0205
C18 C 0.18756(14) 0.59760(7) 0.09892(11)
H11 H 0.1327 0.5847 0.0515
C19 C 0.26349(13) 0.52384(8) 0.52490(11)
H12 H 0.2909 0.5110 0.4852
C20 C 0.32324(14) 0.53335(9) 0.61460(11)
H13 H 0.3897 0.5276 0.6342
C21 C 0.35165(15) 0.63603(8) 0.24015(12)
H14 H 0.4072 0.6487 0.2871
C22 C 0.28007(16) 0.60903(8) 0.25847(11)
H15 H 0.2879 0.6029 0.3184
C23 C 0.34380(13) 0.56086(9) 0.77444(11)
H16 H 0.3797 0.5954 0.7818
H17 H 0.3018 0.5641 0.8077
O12 O 0.02444(8) 0.43468(4) 0.35760(7)
O14 O 0.17267(9) 0.43331(5) 0.36068(8)
Zn3 Zn 0.57965(2) 0.01134(2) 0.36401(2)
Zn2 Zn 0.92035(2) 0.51134(2) 0.13599(2)
O6 O 0.52444(8) 0.93468(4) 0.35760(7)
O7 O 0.67267(9) 0.93331(5) 0.36068(8)
O8 O 0.96158(10) 0.55360(5) 0.35685(7)
O9 O 0.58959(9) 0.67307(5) 0.36869(8)
O10 O 0.86438(10) 0.55252(5) 0.20953(8)
C33 C 0.59657(10) 0.84611(6) 0.36007(9)
C34 C 0.59872(11) 0.90814(6) 0.35853(9)
C35 C 0.51892(11) 0.76006(6) 0.37211(11)
H27 H 0.4676 0.7412 0.3786
C36 C 0.51938(10) 0.81768(6) 0.36879(10)
H28 H 0.4677 0.8376 0.3724
C37 C 0.59579(11) 0.73079(6) 0.36566(10)
C38 C 0.67307(10) 0.81586(7) 0.35480(10)
H29 H 0.7249 0.8346 0.3492
C39 C 0.80447(14) 0.59056(7) 0.31207(10)
C40 C 0.66036(14) 0.64406(7) 0.34916(11)
C41 C 0.67382(11) 0.75826(7) 0.35773(11)
H30 H 0.7257 0.7383 0.3545
C42 C 0.88289(14) 0.56319(6) 0.29143(10)
C43 C 0.73993(14) 0.62357(8) 0.41996(11)
H31 H 0.7447 0.6272 0.4795
C44 C 0.81244(14) 0.59760(7) 0.40108(11)
H32 H 0.8673 0.5847 0.4485
C45 C 0.64835(15) 0.63603(8) 0.25985(12)
H33 H 0.5928 0.6487 0.2129
C46 C 0.71993(16) 0.60903(8) 0.24153(11)
H34 H 0.7121 0.6029 0.1816
O11 O 0.97556(8) 0.43468(4) 0.14240(7)
O13 O 0.82733(9) 0.43331(5) 0.13932(8)
N5 N 0.83257(10) 0.53250(5) 0.00681(8)
H12_2 H 0.7091 0.5110 0.0148
O3_2 O 0.53842(10) 0.05360(5) 0.14315(7)
O4_2 O 0.91041(9) 0.17307(5) 0.13131(8)
O5_2 O 0.63562(10) 0.05252(5) 0.29047(8)
N1_2 N 0.66743(10) 0.03250(5) 0.49319(8)
N2_2 N 0.91088(11) 0.01513(6) 0.81096(9)
C1_2 C 0.90343(10) 0.34611(6) 0.13993(9)
C2_2 C 0.90128(11) 0.40814(6) 0.14147(9)
C3_2 C 0.98108(11) 0.26006(6) 0.12789(11)
C4_2 C 0.98062(10) 0.31768(6) 0.13121(10)
C5_2 C 0.90421(11) 0.23079(6) 0.13434(10)
C6_2 C 0.68379(12) 0.06058(7) 0.64208(10)
H4_2 H 0.6546 0.0730 0.6806
C7_2 C 0.82693(10) 0.31586(7) 0.14520(10)
H5_2 H 0.7751 0.3346 0.1508
C8_2 C 0.62875(12) 0.05087(6) 0.55119(10)
H6_2 H 0.5623 0.0573 0.5295
C9_2 C 0.69553(14) 0.09056(7) 0.18793(10)
C10_2 C 0.83964(14) 0.14406(7) 0.15084(11)
C11_2 C 0.78312(13) 0.05156(7) 0.67505(10)
C12_2 C 0.82618(11) 0.25826(7) 0.14227(11)
H7_2 H 0.7743 0.2383 0.1455
C13_2 C 0.61711(14) 0.06319(6) 0.20857(10)
C14_2 C 0.95580(12) 0.05049(7) 0.96567(10)
H8_2 H 0.9265 0.0845 0.9436
C15_2 C 0.95287(11) 0.00797(7) 0.90555(11)
C17_2 C 0.76007(14) 0.12357(8) 0.08004(11)
H10_2 H 0.7553 0.1272 0.0205
C18_2 C 0.68756(14) 0.09760(7) 0.09892(11)
H11_2 H 0.6327 0.0847 0.0515
C19_2 C 0.76349(13) 0.02384(8) 0.52490(11)
H12_3 H 0.7909 0.0110 0.4852
C20_2 C 0.82324(14) 0.03335(9) 0.61460(11)
H13_2 H 0.8897 0.0276 0.6342
C21_2 C 0.85165(15) 0.13603(8) 0.24015(12)
H14_2 H 0.9072 0.1487 0.2871
C22_2 C 0.78007(16) 0.10903(8) 0.25847(11)
H15_2 H 0.7879 0.1029 0.3184
C23_2 C 0.84380(13) 0.06086(9) 0.77444(11)
H16_2 H 0.8797 0.0954 0.7818
H17_2 H 0.8018 0.0641 0.8077
O8_2 O 0.46158(10) 0.05360(5) 0.35685(7)
O9_2 O 0.08959(9) 0.17307(5) 0.36869(8)
O10_2 O 0.36438(10) 0.05252(5) 0.20953(8)
C33_2 C 0.09657(10) 0.34611(6) 0.36007(9)
C34_2 C 0.09872(11) 0.40814(6) 0.35853(9)
C35_2 C 0.01892(11) 0.26006(6) 0.37211(11)
C36_2 C 0.01938(10) 0.31768(6) 0.36879(10)
C37_2 C 0.09579(11) 0.23079(6) 0.36566(10)
C38_2 C 0.17307(10) 0.31586(7) 0.35480(10)
H29_2 H 0.2249 0.3346 0.3492
C39_2 C 0.30447(14) 0.09056(7) 0.31207(10)
C40_2 C 0.16036(14) 0.14406(7) 0.34916(11)
C41_2 C 0.17382(11) 0.25826(7) 0.35773(11)
H30_2 H 0.2257 0.2383 0.3545
C42_2 C 0.38289(14) 0.06319(6) 0.29143(10)
C43_2 C 0.23993(14) 0.12357(8) 0.41996(11)
H31_2 H 0.2447 0.1272 0.4795
C44_2 C 0.31244(14) 0.09760(7) 0.40108(11)
H32_2 H 0.3673 0.0847 0.4485
C45_2 C 0.14835(15) 0.13603(8) 0.25985(12)
H33_2 H 0.0928 0.1487 0.2129
C46_2 C 0.21993(16) 0.10903(8) 0.24153(11)
H34_2 H 0.2121 0.1029 0.1816
N5_2 N 0.33257(10) 0.03250(5) 0.00681(8)
H1_2 H 0.8867 0.9844 0.7841
C16_2 C 0.99758(12) 0.95772(7) 0.94114(11)
H9_2 H 0.9964 0.9289 0.9018
H12_4 H 0.2091 0.0110 0.0148
N3 N 0.83257(10) 0.46750(5) 0.50681(8)
N4 N 0.58912(11) 0.48487(6) 0.18904(9)
H18 H 0.6133 0.5156 0.2159
C24 C 0.81621(12) 0.43942(7) 0.35792(10)
H19 H 0.8454 0.4270 0.3194
C25 C 0.87125(12) 0.44913(6) 0.44881(10)
H20 H 0.9377 0.4427 0.4705
C26 C 0.71688(13) 0.44844(7) 0.32495(10)
C27 C 0.54420(12) 0.44951(7) 0.03433(10)
H21 H 0.5735 0.4155 0.0564
C28 C 0.54713(11) 0.49203(7) 0.09445(11)
C29 C 0.50242(12) 0.54228(7) 0.05886(11)
H22 H 0.5036 0.5711 0.0982
C30 C 0.73651(13) 0.47616(8) 0.47510(11)
H23 H 0.7091 0.4890 0.5148
C31 C 0.67676(14) 0.46665(9) 0.38540(11)
H24 H 0.6103 0.4724 0.3658
C32 C 0.65620(13) 0.43914(9) 0.22556(11)
H25 H 0.6203 0.4046 0.2182
H26 H 0.6982 0.4359 0.1923
Zn5 Zn 0.92035(2) 0.48866(2) 0.63599(2)
N3_2 N 0.16743(10) 0.46750(5) 0.99319(8)
H23_2 H 0.2909 0.4890 0.9852
Zn5_2 Zn 0.07965(2) 0.48866(2) 0.86401(2)
H18_2 H 0.1133 0.0156 0.2159
C29_2 C 0.00242(12) 0.04228(7) 0.05886(11)
H22_2 H 0.0036 0.0711 0.0982
N3_3 N 0.33257(10) 0.96750(5) 0.50681(8)
N4_2 N 0.08912(11) 0.98487(6) 0.18904(9)
C24_2 C 0.31621(12) 0.93942(7) 0.35792(10)
H19_2 H 0.3454 0.9270 0.3194
C25_2 C 0.37125(12) 0.94913(6) 0.44881(10)
H20_2 H 0.4377 0.9427 0.4705
C26_2 C 0.21688(13) 0.94844(7) 0.32495(10)
C27_2 C 0.04420(12) 0.94951(7) 0.03433(10)
H21_2 H 0.0735 0.9155 0.0564
C28_2 C 0.04713(11) 0.99203(7) 0.09445(11)
C30_2 C 0.23651(13) 0.97616(8) 0.47510(11)
H23_3 H 0.2091 0.9890 0.5148
C31_2 C 0.17676(14) 0.96665(9) 0.38540(11)
H24_2 H 0.1103 0.9724 0.3658
C32_2 C 0.15620(13) 0.93914(9) 0.22556(11)
H25_2 H 0.1203 0.9046 0.2182
H26_2 H 0.1982 0.9359 0.1923
Zn5_3 Zn 0.42035(2) 0.98866(2) 0.63599(2)
N3_4 N 0.66743(10) 0.96750(5) 0.99319(8)
H23_4 H 0.7909 0.9890 0.9852
Zn5_4 Zn 0.57965(2) 0.98866(2) 0.86401(2)
O6_2 O 0.47556(8) 0.06532(4) 0.64240(7)
O7_2 O 0.32733(9) 0.06669(5) 0.63932(8)
O8_3 O 0.03842(10) 0.44640(5) 0.64315(7)
O9_3 O 0.41041(9) 0.32693(5) 0.63131(8)
O10_3 O 0.13562(10) 0.44748(5) 0.79047(8)
C33_3 C 0.40343(10) 0.15389(6) 0.63993(9)
C34_3 C 0.40128(11) 0.09186(6) 0.64147(9)
C35_3 C 0.48108(11) 0.23994(6) 0.62789(11)
H27_2 H 0.5324 0.2588 0.6214
C36_3 C 0.48062(10) 0.18232(6) 0.63121(10)
H28_2 H 0.5323 0.1624 0.6276
C37_3 C 0.40421(11) 0.26921(6) 0.63434(10)
C38_3 C 0.32693(10) 0.18414(7) 0.64520(10)
H29_3 H 0.2751 0.1654 0.6508
C39_3 C 0.19553(14) 0.40944(7) 0.68793(10)
C40_3 C 0.33964(14) 0.35594(7) 0.65084(11)
C41_3 C 0.32618(11) 0.24174(7) 0.64227(11)
H30_3 H 0.2743 0.2617 0.6455
C42_3 C 0.11711(14) 0.43681(6) 0.70857(10)
C43_3 C 0.26007(14) 0.37643(8) 0.58004(11)
H31_3 H 0.2553 0.3728 0.5205
C44_3 C 0.18756(14) 0.40240(7) 0.59892(11)
H32_3 H 0.1327 0.4153 0.5515
C45_3 C 0.35165(15) 0.36397(8) 0.74015(12)
H33_3 H 0.4072 0.3513 0.7871
C46_3 C 0.28007(16) 0.39097(8) 0.75847(11)
H34_3 H 0.2879 0.3971 0.8184
O11_2 O 0.02444(8) 0.56532(4) 0.85760(7)
O13_2 O 0.17267(9) 0.56669(5) 0.86068(8)
O1_2 O 0.52444(8) 0.06532(4) 0.85760(7)
O2_2 O 0.67267(9) 0.06669(5) 0.86068(8)
O3_3 O 0.96158(10) 0.44640(5) 0.85685(7)
O4_3 O 0.58959(9) 0.32693(5) 0.86869(8)
O5_3 O 0.86438(10) 0.44748(5) 0.70953(8)
C1_3 C 0.59657(10) 0.15389(6) 0.86007(9)
C2_3 C 0.59872(11) 0.09186(6) 0.85853(9)
C3_3 C 0.51892(11) 0.23994(6) 0.87211(11)
H2_2 H 0.4676 0.2588 0.8786
C4_3 C 0.51938(10) 0.18232(6) 0.86879(10)
H3_2 H 0.4677 0.1624 0.8724
C5_3 C 0.59579(11) 0.26921(6) 0.86566(10)
C7_3 C 0.67307(10) 0.18414(7) 0.85480(10)
H5_3 H 0.7249 0.1654 0.8492
C9_3 C 0.80447(14) 0.40944(7) 0.81207(10)
C10_3 C 0.66036(14) 0.35594(7) 0.84916(11)
C12_3 C 0.67382(11) 0.24174(7) 0.85773(11)
H7_3 H 0.7257 0.2617 0.8545
C13_3 C 0.88289(14) 0.43681(6) 0.79143(10)
C17_3 C 0.73993(14) 0.37643(8) 0.91996(11)
H10_3 H 0.7447 0.3728 0.9795
C18_3 C 0.81244(14) 0.40240(7) 0.90108(11)
H11_3 H 0.8673 0.4153 0.9485
C21_3 C 0.64835(15) 0.36397(8) 0.75985(12)
H14_3 H 0.5928 0.3513 0.7129
C22_3 C 0.71993(16) 0.39097(8) 0.74153(11)
H15_3 H 0.7121 0.3971 0.6816
O12_2 O 0.97556(8) 0.56532(4) 0.64240(7)
O14_2 O 0.82733(9) 0.56669(5) 0.63932(8)
O3_4 O 0.46158(10) 0.94640(5) 0.85685(7)
O4_4 O 0.08959(9) 0.82693(5) 0.86869(8)
O5_4 O 0.36438(10) 0.94748(5) 0.70953(8)
C1_4 C 0.09657(10) 0.65389(6) 0.86007(9)
C2_4 C 0.09872(11) 0.59186(6) 0.85853(9)
C3_4 C 0.01892(11) 0.73994(6) 0.87211(11)
C4_4 C 0.01938(10) 0.68232(6) 0.86879(10)
C5_4 C 0.09579(11) 0.76921(6) 0.86566(10)
C7_4 C 0.17307(10) 0.68414(7) 0.85480(10)
H5_4 H 0.2249 0.6654 0.8492
C9_4 C 0.30447(14) 0.90944(7) 0.81207(10)
C10_4 C 0.16036(14) 0.85594(7) 0.84916(11)
C12_4 C 0.17382(11) 0.74174(7) 0.85773(11)
H7_4 H 0.2257 0.7617 0.8545
C13_4 C 0.38289(14) 0.93681(6) 0.79143(10)
C17_4 C 0.23993(14) 0.87643(8) 0.91996(11)
H10_4 H 0.2447 0.8728 0.9795
C18_4 C 0.31244(14) 0.90240(7) 0.90108(11)
H11_4 H 0.3673 0.9153 0.9485
C21_4 C 0.14835(15) 0.86397(8) 0.75985(12)
H14_4 H 0.0928 0.8513 0.7129
C22_4 C 0.21993(16) 0.89097(8) 0.74153(11)
H15_4 H 0.2121 0.8971 0.6816
O8_4 O 0.53842(10) 0.94640(5) 0.64315(7)
O9_4 O 0.91041(9) 0.82693(5) 0.63131(8)
O10_4 O 0.63562(10) 0.94748(5) 0.79047(8)
C33_4 C 0.90343(10) 0.65389(6) 0.63993(9)
C34_4 C 0.90128(11) 0.59186(6) 0.64147(9)
C35_4 C 0.98108(11) 0.73994(6) 0.62789(11)
C36_4 C 0.98062(10) 0.68232(6) 0.63121(10)
C37_4 C 0.90421(11) 0.76921(6) 0.63434(10)
C38_4 C 0.82693(10) 0.68414(7) 0.64520(10)
H29_4 H 0.7751 0.6654 0.6508
C39_4 C 0.69553(14) 0.90944(7) 0.68793(10)
C40_4 C 0.83964(14) 0.85594(7) 0.65084(11)
C41_4 C 0.82618(11) 0.74174(7) 0.64227(11)
H30_4 H 0.7743 0.7617 0.6455
C42_4 C 0.61711(14) 0.93681(6) 0.70857(10)
C43_4 C 0.76007(14) 0.87643(8) 0.58004(11)
H31_4 H 0.7553 0.8728 0.5205
C44_4 C 0.68756(14) 0.90240(7) 0.59892(11)
H32_4 H 0.6327 0.9153 0.5515
C45_4 C 0.85165(15) 0.86397(8) 0.74015(12)
H33_4 H 0.9072 0.8513 0.7871
C46_4 C 0.78007(16) 0.89097(8) 0.75847(11)
H34_4 H 0.7879 0.8971 0.8184
N2_3 N 0.58912(11) 0.51513(6) 0.68904(9)
H1_3 H 0.6133 0.4844 0.7159
C6_3 C 0.81621(12) 0.56058(7) 0.85792(10)
H4_3 H 0.8454 0.5730 0.8194
C8_3 C 0.87125(12) 0.55087(6) 0.94881(10)
H6_3 H 0.9377 0.5573 0.9705
C11_3 C 0.71688(13) 0.55156(7) 0.82495(10)
C14_3 C 0.54420(12) 0.55049(7) 0.53433(10)
H8_3 H 0.5735 0.5845 0.5564
C15_3 C 0.54713(11) 0.50797(7) 0.59445(11)
C16_3 C 0.50242(12) 0.45772(7) 0.55886(11)
H9_3 H 0.5036 0.4289 0.5982
C19_3 C 0.73651(13) 0.52384(8) 0.97510(11)
C20_3 C 0.67676(14) 0.53335(9) 0.88540(11)
H13_3 H 0.6103 0.5276 0.8658
C23_3 C 0.65620(13) 0.56086(9) 0.72556(11)
H16_3 H 0.6203 0.5954 0.7182
H17_3 H 0.6982 0.5641 0.6923
N4_3 N 0.41088(11) 0.48487(6) 0.31096(9)
H18_3 H 0.3867 0.5156 0.2841
C24_3 C 0.18379(12) 0.43942(7) 0.14208(10)
H19_3 H 0.1546 0.4270 0.1806
C25_3 C 0.12875(12) 0.44913(6) 0.05119(10)
H20_3 H 0.0623 0.4427 0.0295
C26_3 C 0.28312(13) 0.44844(7) 0.17505(10)
C27_3 C 0.45580(12) 0.44951(7) 0.46567(10)
H21_3 H 0.4265 0.4155 0.4436
C28_3 C 0.45287(11) 0.49203(7) 0.40555(11)
C29_3 C 0.49758(12) 0.54228(7) 0.44114(11)
H22_3 H 0.4964 0.5711 0.4018
C30_3 C 0.26349(13) 0.47616(8) 0.02490(11)
C31_3 C 0.32324(14) 0.46665(9) 0.11460(11)
H24_3 H 0.3897 0.4724 0.1342
C32_3 C 0.34380(13) 0.43914(9) 0.27444(11)
H25_3 H 0.3797 0.4046 0.2818
H26_3 H 0.3018 0.4359 0.3077
H2_3 H 0.0324 0.2412 0.1214
H3_3 H 0.0323 0.3376 0.1276
H27_3 H 0.9676 0.2412 0.3786
H28_3 H 0.9677 0.3376 0.3724
N2_4 N 0.08912(11) 0.01513(6) 0.68904(9)
C6_4 C 0.31621(12) 0.06058(7) 0.85792(10)
H4_4 H 0.3454 0.0730 0.8194
C8_4 C 0.37125(12) 0.05087(6) 0.94881(10)
H6_4 H 0.4377 0.0573 0.9705
C11_4 C 0.21688(13) 0.05156(7) 0.82495(10)
C14_4 C 0.04420(12) 0.05049(7) 0.53433(10)
H8_4 H 0.0735 0.0845 0.5564
C15_4 C 0.04713(11) 0.00797(7) 0.59445(11)
C19_4 C 0.23651(13) 0.02384(8) 0.97510(11)
C20_4 C 0.17676(14) 0.03335(9) 0.88540(11)
H13_4 H 0.1103 0.0276 0.8658
C23_4 C 0.15620(13) 0.06086(9) 0.72556(11)
H16_4 H 0.1203 0.0954 0.7182
H17_4 H 0.1982 0.0641 0.6923
H1_4 H 0.1133 0.9844 0.7159
C16_4 C 0.00242(12) 0.95772(7) 0.55886(11)
H9_4 H 0.0036 0.9289 0.5982
H18_4 H 0.8867 0.0156 0.2841
C29_4 C 0.99758(12) 0.04228(7) 0.44114(11)
H22_4 H 0.9964 0.0711 0.4018
N4_4 N 0.91088(11) 0.98487(6) 0.31096(9)
C24_4 C 0.68379(12) 0.93942(7) 0.14208(10)
H19_4 H 0.6546 0.9270 0.1806
C25_4 C 0.62875(12) 0.94913(6) 0.05119(10)
H20_4 H 0.5623 0.9427 0.0295
C26_4 C 0.78312(13) 0.94844(7) 0.17505(10)
C27_4 C 0.95580(12) 0.94951(7) 0.46567(10)
H21_4 H 0.9265 0.9155 0.4436
C28_4 C 0.95287(11) 0.99203(7) 0.40555(11)
C30_4 C 0.76349(13) 0.97616(8) 0.02490(11)
C31_4 C 0.82324(14) 0.96665(9) 0.11460(11)
H24_4 H 0.8897 0.9724 0.1342
C32_4 C 0.84380(13) 0.93914(9) 0.27444(11)
H25_4 H 0.8797 0.9046 0.2818
H26_4 H 0.8018 0.9359 0.3077
H27_4 H 0.0324 0.7588 0.6214
H28_4 H 0.0323 0.6624 0.6276
H2_4 H 0.9676 0.7588 0.8786
H3_4 H 0.9677 0.6624 0.8724
loop_
_geom_bond_atom_site_label_1
_geom_bond_atom_site_label_2
_geom_bond_site_symmetry_1
_geom_bond_site_symmetry_2
Zn1 O5 1_555 1_555
O1 C2 1_555 1_555
O2 C2 1_555 1_555
O3 C13 1_555 1_555
O4 C5 1_555 1_555
O5 C13 1_555 1_555
N1 Zn1 1_555 1_555
N2 H1 1_555 1_555
C1 C2 1_555 1_555
C3 H2 1_555 1_555
C4 C1 1_555 1_555
H3 C4 1_555 1_555
C5 C3 1_555 1_555
C6 H4 1_555 1_555
C7 C1 1_555 1_555
H5 C7 1_555 1_555
C8 N1 1_555 1_555
H6 C8 1_555 1_555
C9 C13 1_555 1_555
C10 O4 1_555 1_555
C11 C6 1_555 1_555
C12 C5 1_555 1_555
H7 C12 1_555 1_555
C14 H8 1_555 1_555
C15 N2 1_555 1_555
C16 C15 1_555 1_555
H9 C16 1_555 1_555
C17 C10 1_555 1_555
H10 C17 1_555 1_555
C18 C9 1_555 1_555
H11 C18 1_555 1_555
C19 N1 1_555 1_555
H12 C19 1_555 1_555
C20 C11 1_555 1_555
H13 C20 1_555 1_555
C21 C10 1_555 1_555
H14 C21 1_555 1_555
C22 C9 1_555 1_555
H15 C22 1_555 1_555
C23 N2 1_555 1_555
H16 C23 1_555 1_555
H17 C23 1_555 1_555
O12 Zn1 1_555 1_555
O14 Zn1 1_555 1_555
C3 C4 1_555 1_555
C6 C8 1_555 1_555
C7 C12 1_555 1_555
C11 C23 1_555 1_555
C14 C15 1_555 1_555
C17 C18 1_555 1_555
C19 C20 1_555 1_555
C21 C22 1_555 1_555
O6 C34 1_555 1_555
O7 C34 1_555 1_555
O9 C37 1_555 1_555
O10 Zn2 1_555 1_555
C33 C34 1_555 1_555
C35 H27 1_555 1_555
C36 C33 1_555 1_555
H28 C36 1_555 1_555
C37 C35 1_555 1_555
C38 C33 1_555 1_555
H29 C38 1_555 1_555
C39 C42 1_555 1_555
C40 O9 1_555 1_555
C41 C37 1_555 1_555
H30 C41 1_555 1_555
C42 O8 1_555 1_555
C43 C40 1_555 1_555
H31 C43 1_555 1_555
C44 C39 1_555 1_555
H32 C44 1_555 1_555
C45 C40 1_555 1_555
H33 C45 1_555 1_555
C46 C39 1_555 1_555
H34 C46 1_555 1_555
O11 Zn2 1_555 1_555
O13 Zn2 1_555 1_555
N5 Zn2 1_555 1_555
O10 C42 1_555 1_555
C35 C36 1_555 1_555
C38 C41 1_555 1_555
C43 C44 1_555 1_555
C45 C46 1_555 1_555
Zn3 O5_2 1_555 1_555
O11 C2_2 1_555 1_555
O13 C2_2 1_555 1_555
O3_2 C13_2 1_555 1_555
O4_2 C5_2 1_555 1_555
O5_2 C13_2 1_555 1_555
N1_2 Zn3 1_555 1_555
C1_2 C2_2 1_555 1_555
C4_2 C1_2 1_555 1_555
C5_2 C3_2 1_555 1_555
C6_2 H4_2 1_555 1_555
C7_2 C1_2 1_555 1_555
H5_2 C7_2 1_555 1_555
C8_2 N1_2 1_555 1_555
H6_2 C8_2 1_555 1_555
C9_2 C13_2 1_555 1_555
C10_2 O4_2 1_555 1_555
C11_2 C6_2 1_555 1_555
C12_2 C5_2 1_555 1_555
H7_2 C12_2 1_555 1_555
C14_2 H8_2 1_555 1_555
C15_2 N2_2 1_555 1_555
C17_2 C10_2 1_555 1_555
H10_2 C17_2 1_555 1_555
C18_2 C9_2 1_555 1_555
H11_2 C18_2 1_555 1_555
C19_2 N1_2 1_555 1_555
H12_3 C19_2 1_555 1_555
C20_2 C11_2 1_555 1_555
H13_2 C20_2 1_555 1_555
C21_2 C10_2 1_555 1_555
H14_2 C21_2 1_555 1_555
C22_2 C9_2 1_555 1_555
H15_2 C22_2 1_555 1_555
C23_2 N2_2 1_555 1_555
H16_2 C23_2 1_555 1_555
H17_2 C23_2 1_555 1_555
Zn4 O3_2 1_555 1_555
O12 C34_2 1_555 1_555
O14 C34_2 1_555 1_555
O8_2 Zn3 1_555 1_555
O9_2 C37_2 1_555 1_555
O10_2 Zn4 1_555 1_555
C33_2 C34_2 1_555 1_555
C36_2 C33_2 1_555 1_555
C37_2 C35_2 1_555 1_555
C38_2 C33_2 1_555 1_555
H29_2 C38_2 1_555 1_555
C39_2 C42_2 1_555 1_555
C40_2 O9_2 1_555 1_555
C41_2 C37_2 1_555 1_555
H30_2 C41_2 1_555 1_555
C42_2 O8_2 1_555 1_555
C43_2 C40_2 1_555 1_555
H31_2 C43_2 1_555 1_555
C44_2 C39_2 1_555 1_555
H32_2 C44_2 1_555 1_555
C45_2 C40_2 1_555 1_555
H33_2 C45_2 1_555 1_555
C46_2 C39_2 1_555 1_555
H34_2 C46_2 1_555 1_555
N5_2 Zn4 1_555 1_555
C3_2 C4_2 1_555 1_555
C6_2 C8_2 1_555 1_555
C7_2 C12_2 1_555 1_555
C11_2 C23_2 1_555 1_555
C14_2 C15_2 1_555 1_555
C17_2 C18_2 1_555 1_555
C19_2 C20_2 1_555 1_555
C21_2 C22_2 1_555 1_555
O10_2 C42_2 1_555 1_555
C35_2 C36_2 1_555 1_555
C38_2 C41_2 1_555 1_555
C43_2 C44_2 1_555 1_555
C45_2 C46_2 1_555 1_555
H9_2 C16_2 1_555 1_555
N3 C25 1_555 1_555
N4 H18 1_555 1_555
C24 H19 1_555 1_555
C25 C24 1_555 1_555
H20 C25 1_555 1_555
C26 C24 1_555 1_555
H21 C27 1_555 1_555
C28 N4 1_555 1_555
H22 C29 1_555 1_555
C30 N3 1_555 1_555
H23 C30 1_555 1_555
C31 C26 1_555 1_555
H24 C31 1_555 1_555
C32 N4 1_555 1_555
H25 C32 1_555 1_555
H26 C32 1_555 1_555
Zn5 N3 1_555 1_555
C26 C32 1_555 1_555
C27 C28 1_555 1_555
C28 C29 1_555 1_555
C30 C31 1_555 1_555
Zn5_2 N3_2 1_555 1_555
H22_2 C29_2 1_555 1_555
N3_3 C25_2 1_555 1_555
C24_2 H19_2 1_555 1_555
C25_2 C24_2 1_555 1_555
H20_2 C25_2 1_555 1_555
C26_2 C24_2 1_555 1_555
H21_2 C27_2 1_555 1_555
C28_2 N4_2 1_555 1_555
C30_2 N3_3 1_555 1_555
H23_3 C30_2 1_555 1_555
C31_2 C26_2 1_555 1_555
H24_2 C31_2 1_555 1_555
C32_2 N4_2 1_555 1_555
H25_2 C32_2 1_555 1_555
H26_2 C32_2 1_555 1_555
Zn5_3 N3_3 1_555 1_555
C26_2 C32_2 1_555 1_555
C27_2 C28_2 1_555 1_555
C30_2 C31_2 1_555 1_555
Zn5_4 N3_4 1_555 1_555
O6_2 C34_3 1_555 1_555
O7_2 C34_3 1_555 1_555
O9_3 C37_3 1_555 1_555
O10_3 Zn5_2 1_555 1_555
C33_3 C34_3 1_555 1_555
C35_3 H27_2 1_555 1_555
C36_3 C33_3 1_555 1_555
H28_2 C36_3 1_555 1_555
C37_3 C35_3 1_555 1_555
C38_3 C33_3 1_555 1_555
H29_3 C38_3 1_555 1_555
C39_3 C42_3 1_555 1_555
C40_3 O9_3 1_555 1_555
C41_3 C37_3 1_555 1_555
H30_3 C41_3 1_555 1_555
C42_3 O8_3 1_555 1_555
C43_3 C40_3 1_555 1_555
H31_3 C43_3 1_555 1_555
C44_3 C39_3 1_555 1_555
H32_3 C44_3 1_555 1_555
C45_3 C40_3 1_555 1_555
H33_3 C45_3 1_555 1_555
C46_3 C39_3 1_555 1_555
H34_3 C46_3 1_555 1_555
O11_2 Zn5_2 1_555 1_555
O13_2 Zn5_2 1_555 1_555
O10_3 C42_3 1_555 1_555
C35_3 C36_3 1_555 1_555
C38_3 C41_3 1_555 1_555
C43_3 C44_3 1_555 1_555
C45_3 C46_3 1_555 1_555
Zn5 O5_3 1_555 1_555
O1_2 C2_3 1_555 1_555
O2_2 C2_3 1_555 1_555
O3_3 C13_3 1_555 1_555
O4_3 C5_3 1_555 1_555
O5_3 C13_3 1_555 1_555
C1_3 C2_3 1_555 1_555
C3_3 H2_2 1_555 1_555
C4_3 C1_3 1_555 1_555
H3_2 C4_3 1_555 1_555
C5_3 C3_3 1_555 1_555
C7_3 C1_3 1_555 1_555
H5_3 C7_3 1_555 1_555
C9_3 C13_3 1_555 1_555
C10_3 O4_3 1_555 1_555
C12_3 C5_3 1_555 1_555
H7_3 C12_3 1_555 1_555
C17_3 C10_3 1_555 1_555
H10_3 C17_3 1_555 1_555
C18_3 C9_3 1_555 1_555
H11_3 C18_3 1_555 1_555
C21_3 C10_3 1_555 1_555
H14_3 C21_3 1_555 1_555
C22_3 C9_3 1_555 1_555
H15_3 C22_3 1_555 1_555
O12_2 Zn5 1_555 1_555
O14_2 Zn5 1_555 1_555
C3_3 C4_3 1_555 1_555
C7_3 C12_3 1_555 1_555
C17_3 C18_3 1_555 1_555
C21_3 C22_3 1_555 1_555
Zn5_3 O5_4 1_555 1_555
O11_2 C2_4 1_555 1_555
O13_2 C2_4 1_555 1_555
O3_4 C13_4 1_555 1_555
O4_4 C5_4 1_555 1_555
O5_4 C13_4 1_555 1_555
C1_4 C2_4 1_555 1_555
C4_4 C1_4 1_555 1_555
C5_4 C3_4 1_555 1_555
C7_4 C1_4 1_555 1_555
H5_4 C7_4 1_555 1_555
C9_4 C13_4 1_555 1_555
C10_4 O4_4 1_555 1_555
C12_4 C5_4 1_555 1_555
H7_4 C12_4 1_555 1_555
C17_4 C10_4 1_555 1_555
H10_4 C17_4 1_555 1_555
C18_4 C9_4 1_555 1_555
H11_4 C18_4 1_555 1_555
C21_4 C10_4 1_555 1_555
H14_4 C21_4 1_555 1_555
C22_4 C9_4 1_555 1_555
H15_4 C22_4 1_555 1_555
Zn5_4 O3_4 1_555 1_555
O12_2 C34_4 1_555 1_555
O14_2 C34_4 1_555 1_555
O8_4 Zn5_3 1_555 1_555
O9_4 C37_4 1_555 1_555
O10_4 Zn5_4 1_555 1_555
C33_4 C34_4 1_555 1_555
C36_4 C33_4 1_555 1_555
C37_4 C35_4 1_555 1_555
C38_4 C33_4 1_555 1_555
H29_4 C38_4 1_555 1_555
C39_4 C42_4 1_555 1_555
C40_4 O9_4 1_555 1_555
C41_4 C37_4 1_555 1_555
H30_4 C41_4 1_555 1_555
C42_4 O8_4 1_555 1_555
C43_4 C40_4 1_555 1_555
H31_4 C43_4 1_555 1_555
C44_4 C39_4 1_555 1_555
H32_4 C44_4 1_555 1_555
C45_4 C40_4 1_555 1_555
H33_4 C45_4 1_555 1_555
C46_4 C39_4 1_555 1_555
H34_4 C46_4 1_555 1_555
C3_4 C4_4 1_555 1_555
C7_4 C12_4 1_555 1_555
C17_4 C18_4 1_555 1_555
C21_4 C22_4 1_555 1_555
O10_4 C42_4 1_555 1_555
C35_4 C36_4 1_555 1_555
C38_4 C41_4 1_555 1_555
C43_4 C44_4 1_555 1_555
C45_4 C46_4 1_555 1_555
N2_3 H1_3 1_555 1_555
C6_3 H4_3 1_555 1_555
H6_3 C8_3 1_555 1_555
C11_3 C6_3 1_555 1_555
C14_3 H8_3 1_555 1_555
C15_3 N2_3 1_555 1_555
C16_3 C15_3 1_555 1_555
H9_3 C16_3 1_555 1_555
C20_3 C11_3 1_555 1_555
H13_3 C20_3 1_555 1_555
C23_3 N2_3 1_555 1_555
H16_3 C23_3 1_555 1_555
H17_3 C23_3 1_555 1_555
N4_3 H18_3 1_555 1_555
C24_3 H19_3 1_555 1_555
C25_3 C24_3 1_555 1_555
H20_3 C25_3 1_555 1_555
C26_3 C24_3 1_555 1_555
C27_3 C16_3 1_555 1_555
H21_3 C27_3 1_555 1_555
C28_3 N4_3 1_555 1_555
C29_3 C14_3 1_555 1_555
H22_3 C29_3 1_555 1_555
C31_3 C26_3 1_555 1_555
H24_3 C31_3 1_555 1_555
C32_3 N4_3 1_555 1_555
H25_3 C32_3 1_555 1_555
H26_3 C32_3 1_555 1_555
C6_3 C8_3 1_555 1_555
C11_3 C23_3 1_555 1_555
C14_3 C15_3 1_555 1_555
C19_3 C20_3 1_555 1_555
C26_3 C32_3 1_555 1_555
C27_3 C28_3 1_555 1_555
C28_3 C29_3 1_555 1_555
C30_3 C31_3 1_555 1_555
C6_4 H4_4 1_555 1_555
H6_4 C8_4 1_555 1_555
C11_4 C6_4 1_555 1_555
C14_4 H8_4 1_555 1_555
C15_4 N2_4 1_555 1_555
C20_4 C11_4 1_555 1_555
H13_4 C20_4 1_555 1_555
C23_4 N2_4 1_555 1_555
H16_4 C23_4 1_555 1_555
H17_4 C23_4 1_555 1_555
C6_4 C8_4 1_555 1_555
C11_4 C23_4 1_555 1_555
C14_4 C15_4 1_555 1_555
C19_4 C20_4 1_555 1_555
H9_4 C16_4 1_555 1_555
H22_4 C29_4 1_555 1_555
C24_4 H19_4 1_555 1_555
C25_4 C24_4 1_555 1_555
H20_4 C25_4 1_555 1_555
C26_4 C24_4 1_555 1_555
H21_4 C27_4 1_555 1_555
C28_4 N4_4 1_555 1_555
C31_4 C26_4 1_555 1_555
H24_4 C31_4 1_555 1_555
C32_4 N4_4 1_555 1_555
H25_4 C32_4 1_555 1_555
H26_4 C32_4 1_555 1_555
C26_4 C32_4 1_555 1_555
C27_4 C28_4 1_555 1_555
C30_4 C31_4 1_555 1_555

#END
