
###############################################################################
#
# This file contains modified crystal structure data generated from the
# MOF subset of the Cambridge Structural Database (CSD) v543 
# hosted by the Cambridge Crystallographic Data Centre (CCDC).
#
# This work is licensed under the Creative Commons
# Attribution-NonCommercial-ShareAlike 4.0 International License.
# To view a copy of this license, visit
# http://creativecommons.org/licenses/by-nc-sa/4.0/
# or send a letter to
# Creative Commons, PO Box 1866, Mountain View, CA 94042, USA.
#
# CIF created using the CSD Python API on 29 September 2022
# The structure has been converted into the P1 space group
# The structure has a 3D framework
# The original CSD entry SIGTOU is in the monoclinic crystal system
# The framework has been calculated to contain at least 10.0% void space
# The void calculation uses a probe of radius 1.32A, grid spacing 0.4
# H atom positions have been added when not included in the experimental data
#
###############################################################################

data_SIGTOU
_chemical_formula_moiety         '(C48 H104 Cu32 N72 O255 P8 W72)n'
_symmetry_cell_setting           triclinic
_symmetry_space_group_name_H-M   'P 1'
_symmetry_Int_Tables_number      1
_space_group_name_Hall           'P 1'
loop_
_symmetry_equiv_pos_site_id
_symmetry_equiv_pos_as_xyz
1 x,y,z
_cell_length_a                   18.483(4)
_cell_length_b                   14.856(3)
_cell_length_c                   33.190(7)
_cell_angle_alpha                90
_cell_angle_beta                 97.739(3)
_cell_angle_gamma                90
_cell_volume                     9030.42
loop_
_atom_site_label
_atom_site_type_symbol
_atom_site_fract_x
_atom_site_fract_y
_atom_site_fract_z
C5 C 0.2263(12) 0.0263(16) 0.4263(7)
H5 H 0.2760 0.0134 0.4312
C6 C 0.1256(13) 0.0932(16) 0.4251(7)
H6 H 0.0904 0.1356 0.4295
N5 N 0.1109(10) 0.0154(13) 0.4044(6)
N14 N 0.1969(9) 0.1016(13) 0.4384(6)
O14 O 0.0009(8) 0.3454(10) 0.4194(4)
O24 O 0.0085(8) 0.3039(10) 0.3098(5)
O54 O 0.0101(8) 0.3053(10) 0.5010(5)
O55 O 0.1167(9) 0.2930(11) 0.3765(5)
W16 W 0.02576(6) 0.31779(7) 0.36721(3)
O78 O 0.0289(7) 0.4457(9) 0.3570(4)
Cu9 Cu 0.24422(15) 0.19044(19) 0.47958(9)
H14 H 0.201606 0.013415 0.326452
C3 C 0.1462(12) 0.6191(15) 0.3230(7)
H3 H 0.1164 0.5703 0.3147
C4 C 0.2347(12) 0.7034(15) 0.3343(7)
H4 H 0.2815 0.7266 0.3349
N2 N 0.1832(10) 0.7475(13) 0.3479(6)
N3 N 0.1218(10) 0.6928(13) 0.3399(6)
N13 N 0.1770(9) 0.9715(12) 0.4063(5)
N17 N 0.2160(10) 0.6214(13) 0.3192(6)
O25 O 0.1382(7) 0.6921(9) 0.5071(4)
O31 O 0.4031(7) 0.7652(9) 0.5582(4)
O32 O 0.2818(7) 0.6868(10) 0.5469(4)
O33 O 0.3003(7) 0.8217(9) 0.5939(4)
O34 O 0.3619(7) 0.6764(9) 0.6150(4)
O36 O 0.2058(8) 0.8481(10) 0.5173(4)
O37 O 0.2510(9) 0.6238(10) 0.4745(5)
O41 O 0.3127(8) 0.7890(10) 0.4803(4)
O44 O 0.4092(9) 0.9211(12) 0.4597(5)
O45 O 0.4768(8) 0.9009(10) 0.5382(5)
O46 O 0.4579(8) 0.7581(10) 0.4899(5)
O47 O 0.5830(9) 0.8999(13) 0.6070(5)
O48 O 0.5405(9) 0.6060(13) 0.5070(6)
O50 O 0.1752(8) 0.7746(10) 0.4394(5)
O56 O 0.3090(8) 0.4553(11) 0.4870(5)
O58 O 0.3900(8) 0.6038(10) 0.5083(4)
P2 P 0.3347(3) 0.7368(4) 0.57902(16)
Cu3 Cu 0.01845(13) 0.94617(18) 0.38786(9)
Cu5 Cu 0.02701(13) 0.73661(17) 0.34973(9)
Cu7 Cu 0.18183(14) 0.85975(19) 0.37683(9)
W3 W 0.21838(5) 0.74243(6) 0.48647(3)
W10 W 0.30218(5) 0.54889(6) 0.51460(3)
W11 W 0.39843(6) 0.85733(8) 0.50020(4)
W15 W 0.50377(5) 0.84332(7) 0.59038(3)
W18 W 0.47999(7) 0.66388(9) 0.52970(5)
O62 O 0.2919(8) 0.8490(12) 0.3935(6)
O64 O 0.0266(10) 0.6918(12) 0.4160(6)
O65 O 0.0414(11) 0.8688(15) 0.4497(7)
O68 O 0.2002(17) 0.9487(16) 0.3189(7)
O70 O 0.0725(8) 0.8606(10) 0.3593(4)
O71 O 0.5420(8) 0.7491(10) 0.5609(5)
O81 O 0.2095(8) 0.5170(10) 0.5326(5)
O87 O 0.3448(8) 0.5153(10) 0.5679(5)
O90 O 0.4952(8) 0.7639(10) 0.6336(5)
O91 O 0.4336(8) 0.9164(10) 0.6124(4)
O92 O 0.3323(9) 0.9298(10) 0.5275(4)
O93 O 0.4727(8) 0.5945(10) 0.5775(5)
Cu11 Cu 0.27105(14) 0.53222(18) 0.29384(9)
W20 W 0.24774(5) 0.94031(6) 0.55204(3)
W21 W 0.41746(5) 0.53496(6) 0.61207(3)
W23 W 0.35199(5) 0.92818(6) 0.64223(3)
W30 W 0.05740(5) 0.67188(6) 0.53771(3)
W32 W 0.43978(5) 0.71271(6) 0.67337(3)
H13 H 0.159486 0.938044 0.296673
H17 H 0.0680872 0.720442 0.433487
H19 H 0.316751 0.847066 0.368787
H20 H 0.309694 0.901761 0.410358
H21 H 0.0432532 0.912289 0.472536
H22 H 0.00180804 0.824446 0.451596
O2 O 0.7691(8) 0.3811(10) 0.3419(5)
O3 O 0.8307(7) 0.2352(9) 0.3651(4)
O4 O 0.8491(7) 0.3712(10) 0.4105(4)
O9 O 0.9226(8) 0.2104(10) 0.4394(4)
O10 O 0.8798(8) 0.0855(10) 0.3426(4)
O11 O 0.8016(9) 0.0704(10) 0.2656(5)
O16 O 0.9818(8) 0.2052(10) 0.3736(5)
O17 O 0.9045(7) 0.3660(10) 0.3457(5)
O18 O 0.8801(8) 0.2192(10) 0.2885(5)
O26 O 0.8280(7) 0.0807(9) 0.4140(4)
O28 O 0.7355(8) 0.0912(10) 0.3342(4)
O35 O 0.6994(8) 0.0029(10) 0.4003(4)
O43 O 0.5664(8) 0.0836(10) 0.3876(4)
O53 O 0.6677(9) 0.0702(10) 0.4725(4)
O60 O 0.9678(8) 0.0415(10) 0.4123(5)
P1 P 0.8357(3) 0.3378(3) 0.36668(16)
Cu6 Cu 0.72895(14) 0.03222(18) 0.20616(9)
W2 W 0.75226(5) 0.05969(6) 0.44796(3)
W5 W 0.91074(5) 0.13219(6) 0.39590(3)
W6 W 0.64801(5) 0.07182(6) 0.35777(3)
W12 W 0.94260(5) 0.32812(6) 0.46229(3)
W14 W 0.80755(5) 0.14375(6) 0.30519(3)
N19 N 0.6342(9) 0.1084(11) 0.2017(5)
N21 N 0.7840(10) 0.1214(13) 0.1808(6)
O74 O 0.7403(8) 0.2330(10) 0.2869(5)
O75 O 0.9323(8) 0.4559(10) 0.4678(4)
O80 O 0.8618(7) 0.3079(9) 0.4929(4)
O83 O 0.6997(7) 0.1783(9) 0.4061(4)
O86 O 0.7942(8) 0.1519(10) 0.4827(4)
O89 O 0.6109(8) 0.1775(10) 0.3303(5)
W19 W 0.74193(5) 0.53321(6) 0.33538(3)
W24 W 0.94317(5) 0.51379(6) 0.33893(3)
W25 W 0.85745(5) 0.52088(6) 0.43420(3)
W26 W 0.71916(5) 0.35590(6) 0.27371(3)
W28 W 0.60157(6) 0.14267(8) 0.49980(4)
W34 W 0.49623(5) 0.15668(7) 0.40962(3)
W37 W 0.91941(6) 0.33298(8) 0.27689(3)
C1 C 0.8527(12) 0.8879(16) 0.3681(7)
H1 H 0.8321 0.9395 0.3776
C2 C 0.4043(12) 0.6462(17) 0.2706(8)
H2 H 0.3918 0.6429 0.2425
C7 C 0.6275(12) 0.8951(15) 0.2334(7)
H7 H 0.5893 0.9070 0.2128
C8 C 0.4042(16) 0.630(2) 0.3347(8)
H8 H 0.3905 0.6127 0.3596
C9 C 0.6484(14) 0.7286(17) 0.4516(8)
H9 H 0.6149 0.7095 0.4683
C10 C 0.7412(13) 0.7816(16) 0.4319(7)
H10 H 0.7866 0.8085 0.4320
C11 C 0.7293(13) 0.9000(16) 0.2723(7)
H11 H 0.7762 0.9163 0.2837
C12 C 0.8651(11) 0.7601(14) 0.3417(6)
H12 H 0.8547 0.7050 0.3289
N1 N 0.6363(10) 0.7282(13) 0.4121(6)
N4 N 0.9301(10) 0.7913(13) 0.3519(6)
N6 N 0.7149(10) 0.7598(12) 0.4653(6)
N7 N 0.6925(10) 0.9379(12) 0.2377(6)
N8 N 0.3658(9) 0.6084(11) 0.2983(5)
N9 N 0.4633(10) 0.6892(12) 0.2898(6)
N10 N 0.6253(10) 0.8328(14) 0.2628(5)
N11 N 0.6901(9) 0.8380(12) 0.2873(6)
N12 N 0.8136(9) 0.8180(11) 0.3521(5)
N15 N 0.6975(9) 0.7623(12) 0.3981(6)
N16 N 0.9243(9) 0.8762(12) 0.3691(5)
N18 N 0.4637(13) 0.6773(16) 0.3308(7)
O1 O 0.9817(8) 0.6168(10) 0.3301(5)
O6 O 0.7133(8) 0.4830(10) 0.2837(4)
O7 O 0.7824(8) 0.5407(10) 0.3911(5)
O12 O 0.6807(9) 0.3487(11) 0.2237(5)
O13 O 0.8712(9) 0.6296(11) 0.4515(5)
O15 O 0.9239(8) 0.5264(10) 0.3935(5)
O19 O 0.8175(8) 0.3691(10) 0.2652(5)
O20 O 0.8415(8) 0.5372(10) 0.3246(5)
O21 O 0.9425(9) 0.3210(10) 0.2308(5)
O23 O 0.9422(8) 0.4580(10) 0.2871(4)
O27 O 0.7905(8) 0.4830(10) 0.4674(5)
O29 O 0.6521(8) 0.5004(11) 0.3520(5)
O30 O 0.6325(8) 0.3384(10) 0.2997(5)
O38 O 0.6552(8) 0.4847(10) 0.4321(5)
O39 O 0.5311(8) 0.4029(11) 0.3418(5)
O40 O 0.3891(8) 0.6775(10) 0.1697(5)
O42 O 0.4952(8) 0.7361(10) 0.1336(5)
O49 O 0.5371(8) 0.5658(11) 0.3859(6)
O51 O 0.7890(10) 0.9648(11) 0.4719(5)
O52 O 0.5015(8) 0.7685(10) 0.2165(5)
O57 O 0.6120(9) 0.9883(11) 0.3259(5)
O59 O 0.5273(8) 0.4055(10) 0.4225(5)
O61 O 0.7239(9) 0.6433(11) 0.3236(5)
Cu1 Cu 0.54504(19) 0.7096(3) 0.37251(10)
Cu2 Cu 0.70345(13) 0.78734(17) 0.34176(8)
Cu4 Cu 0.75578(15) 0.80956(19) 0.52042(9)
Cu8 Cu 0.54609(15) 0.7559(2) 0.27383(9)
W4 W 0.58254(5) 0.46504(6) 0.38793(3)
W13 W 0.43978(5) 0.78729(6) 0.17337(3)
O63 O 0.6582(10) 0.8569(16) 0.5277(6)
O66 O 0.8543(12) 0.7686(15) 0.5110(7)
O67 O 0.5958(13) 0.7599(16) 0.3319(7)
O69 O 0.7413(15) 0.6954(16) 0.5628(7)
N20 N 0.8031(9) 0.8984(13) 0.5616(6)
O82 O 0.3675(8) 0.8384(10) 0.2003(5)
O84 O 0.6381(7) 0.3236(9) 0.3850(4)
O85 O 0.3619(7) 0.8236(9) 0.1150(4)
O88 O 0.4689(8) 0.9029(11) 0.1582(5)
W22 W 0.35199(5) 0.57182(6) 0.14223(3)
W27 W 0.69782(5) 0.45111(6) 0.48540(3)
W31 W 0.56022(5) 0.28729(6) 0.32663(3)
W35 W 0.50377(5) 0.65668(7) 0.09038(3)
W38 W 0.52001(7) 0.33612(9) 0.47030(5)
H15 H 0.622856 0.80635 0.526725
H16 H 0.661031 0.887736 0.554411
H18 H 0.979976 0.710288 0.425339
H23 H 0.867958 0.798474 0.486343
H24 H 0.890383 0.784498 0.534873
H25 H 0.768806 0.642087 0.5551
H26 H 0.760025 0.713438 0.591096
W19_2 W 0.25807(5) 0.03321(6) 0.16462(3)
W24_2 W 0.05683(5) 0.01379(6) 0.16107(3)
W25_2 W 0.14255(5) 0.02088(6) 0.06580(3)
C1_2 C 0.1473(12) 0.3879(16) 0.1319(7)
H1_2 H 0.1679 0.4395 0.1224
C2_2 C 0.5957(12) 0.1462(17) 0.2294(8)
H2_2 H 0.6082 0.1429 0.2575
C7_2 C 0.3725(12) 0.3951(15) 0.2666(7)
H7_2 H 0.4107 0.4070 0.2872
C8_2 C 0.5958(16) 0.130(2) 0.1653(8)
H8_2 H 0.6095 0.1127 0.1404
C9_2 C 0.3516(14) 0.2286(17) 0.0484(8)
H9_2 H 0.3851 0.2095 0.0317
C10_2 C 0.2588(13) 0.2816(16) 0.0681(7)
H10_2 H 0.2134 0.3085 0.0680
C11_2 C 0.2707(13) 0.4000(16) 0.2277(7)
H11_2 H 0.2238 0.4163 0.2163
C12_2 C 0.1349(11) 0.2601(14) 0.1583(6)
H12_2 H 0.1453 0.2050 0.1711
N1_2 N 0.3637(10) 0.2282(13) 0.0879(6)
N4_2 N 0.0699(10) 0.2913(13) 0.1481(6)
N6_2 N 0.2851(10) 0.2598(12) 0.0347(6)
N7_2 N 0.3075(10) 0.4379(12) 0.2623(6)
N9_2 N 0.5367(10) 0.1892(12) 0.2102(6)
N10_2 N 0.3747(10) 0.3328(14) 0.2372(5)
N11_2 N 0.3099(9) 0.3380(12) 0.2127(6)
N12_2 N 0.1864(9) 0.3180(11) 0.1479(5)
N15_2 N 0.3025(9) 0.2623(12) 0.1019(6)
N16_2 N 0.0757(9) 0.3762(12) 0.1309(5)
N18_2 N 0.5363(13) 0.1773(16) 0.1692(7)
O1_2 O 0.0183(8) 0.1168(10) 0.1699(5)
O2_2 O 0.2309(8) 0.8811(10) 0.1581(5)
O3_2 O 0.1693(7) 0.7352(9) 0.1349(4)
O4_2 O 0.1509(7) 0.8712(10) 0.0895(4)
O7_2 O 0.2176(8) 0.0407(10) 0.1089(5)
O9_2 O 0.0774(8) 0.7104(10) 0.0606(4)
O10_2 O 0.1202(8) 0.5855(10) 0.1574(4)
O11_2 O 0.1984(9) 0.5704(10) 0.2344(5)
O13_2 O 0.1288(9) 0.1296(11) 0.0485(5)
O15_2 O 0.0761(8) 0.0264(10) 0.1065(5)
O16_2 O 0.0182(8) 0.7052(10) 0.1264(5)
O17_2 O 0.0955(7) 0.8660(10) 0.1543(5)
O18_2 O 0.1199(8) 0.7192(10) 0.2115(5)
O20_2 O 0.1585(8) 0.0372(10) 0.1754(5)
O26_2 O 0.1720(7) 0.5807(9) 0.0860(4)
O28_2 O 0.2645(8) 0.5912(10) 0.1658(4)
O29_2 O 0.3479(8) 0.0004(11) 0.1480(5)
O35_2 O 0.3006(8) 0.5029(10) 0.0997(4)
O42_2 O 0.5048(8) 0.2361(10) 0.3664(5)
O43_2 O 0.4336(8) 0.5836(10) 0.1124(4)
O49_2 O 0.4629(8) 0.0658(11) 0.1141(6)
O51_2 O 0.2110(10) 0.4648(11) 0.0281(5)
O52_2 O 0.4985(8) 0.2685(10) 0.2835(5)
O53_2 O 0.3323(9) 0.5702(10) 0.0275(4)
O57_2 O 0.3880(9) 0.4883(11) 0.1741(5)
O60_2 O 0.0322(8) 0.5415(10) 0.0877(5)
O61_2 O 0.2761(9) 0.1433(11) 0.1764(5)
P1_2 P 0.1643(3) 0.8378(3) 0.13332(16)
Cu1_2 Cu 0.45496(19) 0.2096(3) 0.12749(10)
Cu2_2 Cu 0.29655(13) 0.28734(17) 0.15824(8)
Cu8_2 Cu 0.45391(15) 0.2559(2) 0.22617(9)
W2_2 W 0.24774(5) 0.55969(6) 0.05204(3)
W5_2 W 0.08926(5) 0.63219(6) 0.10410(3)
W12_2 W 0.05740(5) 0.82812(6) 0.03771(3)
W14_2 W 0.19245(5) 0.64375(6) 0.19481(3)
O67_2 O 0.4042(13) 0.2599(16) 0.1681(7)
O74_2 O 0.2597(8) 0.7330(10) 0.2131(5)
O75_2 O 0.0677(8) 0.9559(10) 0.0322(4)
O80_2 O 0.1382(7) 0.8079(9) 0.0071(4)
O83_2 O 0.3003(7) 0.6783(9) 0.0939(4)
O86_2 O 0.2058(8) 0.6519(10) 0.0173(4)
W26_2 W 0.28084(5) 0.85590(6) 0.22629(3)
W28_2 W 0.39843(6) 0.64267(8) 0.00020(4)
W37_2 W 0.08059(6) 0.83298(8) 0.22311(3)
H18_2 H 0.0200237 0.210288 0.0746613
H23_2 H 0.132042 0.298474 0.013657
Cu4_2 Cu 0.24422(15) 0.30956(19) 0.97958(9)
O63_2 O 0.3418(10) 0.3569(16) 0.9723(6)
O66_2 O 0.1457(12) 0.2686(15) 0.9890(7)
O69_2 O 0.2587(15) 0.1954(16) 0.9372(7)
N20_2 N 0.1969(9) 0.3984(13) 0.9384(6)
H15_2 H 0.377144 0.30635 0.973275
H16_2 H 0.338969 0.387736 0.945589
H24_2 H 0.109617 0.284498 0.965127
H25_2 H 0.231194 0.142087 0.9449
H26_2 H 0.239975 0.213438 0.908904
O6_2 O 0.2867(8) 0.9830(10) 0.2163(4)
O12_2 O 0.3193(9) 0.8487(11) 0.2763(5)
O19_2 O 0.1825(8) 0.8691(10) 0.2348(5)
O21_2 O 0.0575(9) 0.8210(10) 0.2692(5)
O23_2 O 0.0578(8) 0.9580(10) 0.2129(4)
O27_2 O 0.2095(8) 0.9830(10) 0.0326(5)
O38_2 O 0.3448(8) 0.9847(10) 0.0679(5)
O59_2 O 0.4727(8) 0.9055(10) 0.0775(5)
W4_2 W 0.41746(5) 0.96504(6) 0.11207(3)
W27_2 W 0.30218(5) 0.95111(6) 0.01460(3)
W38_2 W 0.47999(7) 0.83612(9) 0.02970(5)
C3_2 C 0.8538(12) 0.1191(15) 0.1770(7)
H3_2 H 0.8836 0.0703 0.1853
C4_2 C 0.7653(12) 0.2034(15) 0.1657(7)
H4_2 H 0.7185 0.2266 0.1651
C5_2 C 0.7737(12) 0.5263(16) 0.0737(7)
H5_2 H 0.7240 0.5134 0.0688
C6_2 C 0.8744(13) 0.5932(16) 0.0749(7)
H6_2 H 0.9096 0.6356 0.0705
N2_2 N 0.8168(10) 0.2475(13) 0.1521(6)
N3_2 N 0.8782(10) 0.1928(13) 0.1601(6)
N5_2 N 0.8891(10) 0.5154(13) 0.0956(6)
N13_2 N 0.8230(9) 0.4715(12) 0.0937(5)
N14_2 N 0.8031(9) 0.6016(13) 0.0616(6)
O14_2 O 0.9991(8) 0.8454(10) 0.0806(4)
O24_2 O 0.9915(8) 0.8039(10) 0.1902(5)
O37_2 O 0.7490(9) 0.1238(10) 0.0255(5)
O41_2 O 0.6873(8) 0.2890(10) 0.0197(4)
O44_2 O 0.5908(9) 0.4211(12) 0.0403(5)
O46_2 O 0.5421(8) 0.2581(10) 0.0101(5)
O50_2 O 0.8248(8) 0.2746(10) 0.0606(5)
O55_2 O 0.8833(9) 0.7930(11) 0.1235(5)
Cu3_2 Cu 0.98155(13) 0.44617(18) 0.11214(9)
Cu5_2 Cu 0.97299(13) 0.23661(17) 0.15027(9)
Cu7_2 Cu 0.81817(14) 0.35975(19) 0.12317(9)
W3_2 W 0.78162(5) 0.24243(6) 0.01353(3)
W16_2 W 0.97424(6) 0.81779(7) 0.13279(3)
O62_2 O 0.7081(8) 0.3490(12) 0.1065(6)
O64_2 O 0.9734(10) 0.1918(12) 0.0840(6)
O65_2 O 0.9586(11) 0.3688(15) 0.0503(7)
O68_2 O 0.7998(17) 0.4487(16) 0.1811(7)
O70_2 O 0.9275(8) 0.3606(10) 0.1407(4)
O78_2 O 0.9711(7) 0.9457(9) 0.1430(4)
Cu9_2 Cu 0.75578(15) 0.69044(19) 0.02042(9)
H13_2 H 0.840514 0.438044 0.203327
H14_2 H 0.798394 0.513415 0.173548
H17_2 H 0.931913 0.220442 0.066513
H19_2 H 0.683249 0.347066 0.131213
H20_2 H 0.690306 0.401761 0.0896416
H21_2 H 0.956747 0.412289 0.0274639
H22_2 H 0.998192 0.324446 0.0484038
O25_2 O 0.8618(7) 0.1921(9) 0.9929(4)
O31_2 O 0.5969(7) 0.2652(9) 0.9418(4)
O32_2 O 0.7182(7) 0.1868(10) 0.9531(4)
O33_2 O 0.6997(7) 0.3217(9) 0.9061(4)
O34_2 O 0.6381(7) 0.1764(9) 0.8850(4)
O36_2 O 0.7942(8) 0.3481(10) 0.9827(4)
O45_2 O 0.5232(8) 0.4009(10) 0.9618(5)
O47_2 O 0.4170(9) 0.3999(13) 0.8930(5)
O48_2 O 0.4595(9) 0.1060(13) 0.9930(6)
O54_2 O 0.9899(8) 0.8053(10) 0.9990(5)
O58_2 O 0.6100(8) 0.1038(10) 0.9917(4)
P2_2 P 0.6653(3) 0.2368(4) 0.92098(16)
W10_2 W 0.69782(5) 0.04889(6) 0.98540(3)
W11_2 W 0.60157(6) 0.35733(8) 0.99980(4)
W15_2 W 0.49623(5) 0.34332(7) 0.90962(3)
W18_2 W 0.52001(7) 0.16388(9) 0.97030(5)
O71_2 O 0.4580(8) 0.2491(10) 0.9391(5)
O81_2 O 0.7905(8) 0.0170(10) 0.9674(5)
O87_2 O 0.6552(8) 0.0153(10) 0.9321(5)
O90_2 O 0.5048(8) 0.2639(10) 0.8664(5)
O91_2 O 0.5664(8) 0.4164(10) 0.8876(4)
O92_2 O 0.6677(9) 0.4298(10) 0.9725(4)
O93_2 O 0.5273(8) 0.0945(10) 0.9225(5)
W20_2 W 0.75226(5) 0.44031(6) 0.94796(3)
W21_2 W 0.58254(5) 0.03496(6) 0.88793(3)
W23_2 W 0.64801(5) 0.42818(6) 0.85777(3)
W30_2 W 0.94260(5) 0.17188(6) 0.96229(3)
W32_2 W 0.56022(5) 0.21271(6) 0.82663(3)
O56_2 O 0.6910(8) 0.9553(11) 0.0130(5)
C1_3 C 0.1473(12) 0.1121(16) 0.6319(7)
H1_3 H 0.1679 0.0605 0.6224
C2_3 C 0.5957(12) 0.3538(17) 0.7294(8)
H2_3 H 0.6082 0.3571 0.7575
C7_3 C 0.3725(12) 0.1049(15) 0.7666(7)
H7_3 H 0.4107 0.0930 0.7872
C8_3 C 0.5958(16) 0.370(2) 0.6653(8)
H8_3 H 0.6095 0.3873 0.6404
C9_3 C 0.3516(14) 0.2714(17) 0.5484(8)
H9_3 H 0.3851 0.2905 0.5317
C10_3 C 0.2588(13) 0.2184(16) 0.5681(7)
H10_3 H 0.2134 0.1915 0.5680
C11_3 C 0.2707(13) 0.1000(16) 0.7277(7)
H11_3 H 0.2238 0.0837 0.7163
C12_3 C 0.1349(11) 0.2399(14) 0.6583(6)
H12_3 H 0.1453 0.2950 0.6711
N1_3 N 0.3637(10) 0.2718(13) 0.5879(6)
N4_3 N 0.0699(10) 0.2087(13) 0.6481(6)
N6_3 N 0.2851(10) 0.2402(12) 0.5347(6)
N7_3 N 0.3075(10) 0.0621(12) 0.7623(6)
N8_2 N 0.6342(9) 0.3916(11) 0.7017(5)
N9_3 N 0.5367(10) 0.3108(12) 0.7102(6)
N10_3 N 0.3747(10) 0.1672(14) 0.7372(5)
N11_3 N 0.3099(9) 0.1620(12) 0.7127(6)
N12_3 N 0.1864(9) 0.1820(11) 0.6479(5)
N15_3 N 0.3025(9) 0.2377(12) 0.6019(6)
N16_3 N 0.0757(9) 0.1238(12) 0.6309(5)
N18_3 N 0.5363(13) 0.3227(16) 0.6692(7)
O1_3 O 0.0183(8) 0.3832(10) 0.6699(5)
O5 O 0.2597(8) 0.7670(10) 0.7131(5)
O6_3 O 0.2867(8) 0.5170(10) 0.7163(4)
O7_3 O 0.2176(8) 0.4593(10) 0.6089(5)
O8 O 0.0677(8) 0.5441(10) 0.5322(4)
O12_3 O 0.3193(9) 0.6513(11) 0.7763(5)
O13_3 O 0.1288(9) 0.3704(11) 0.5485(5)
O15_3 O 0.0761(8) 0.4736(10) 0.6065(5)
O19_3 O 0.1825(8) 0.6309(10) 0.7348(5)
O20_3 O 0.1585(8) 0.4628(10) 0.6754(5)
O21_3 O 0.0575(9) 0.6790(10) 0.7692(5)
O23_3 O 0.0578(8) 0.5420(10) 0.7129(4)
O29_3 O 0.3479(8) 0.4996(11) 0.6480(5)
O30_2 O 0.3675(8) 0.6616(10) 0.7003(5)
O39_2 O 0.4689(8) 0.5971(11) 0.6582(5)
O40_2 O 0.6109(8) 0.3225(10) 0.8303(5)
O49_3 O 0.4629(8) 0.4342(11) 0.6141(6)
O51_3 O 0.2110(10) 0.0352(11) 0.5281(5)
O52_3 O 0.4985(8) 0.2315(10) 0.7835(5)
O57_3 O 0.3880(9) 0.0117(11) 0.6741(5)
O61_3 O 0.2761(9) 0.3567(11) 0.6764(5)
Cu1_3 Cu 0.45496(19) 0.2904(3) 0.62749(10)
Cu2_3 Cu 0.29655(13) 0.21266(17) 0.65824(8)
Cu8_3 Cu 0.45391(15) 0.2441(2) 0.72617(9)
W1 W 0.25807(5) 0.46679(6) 0.66462(3)
W7 W 0.05683(5) 0.48621(6) 0.66107(3)
W8 W 0.14255(5) 0.47912(6) 0.56580(3)
W9 W 0.28084(5) 0.64410(6) 0.72629(3)
W17 W 0.08059(6) 0.66702(8) 0.72311(3)
O63_3 O 0.3418(10) 0.1431(16) 0.4723(6)
O66_3 O 0.1457(12) 0.2314(15) 0.4890(7)
O67_3 O 0.4042(13) 0.2401(16) 0.6681(7)
O69_3 O 0.2587(15) 0.3046(16) 0.4372(7)
O72 O 0.2309(8) 0.6189(10) 0.6581(5)
O73 O 0.1509(7) 0.6288(10) 0.5895(4)
O76 O 0.0955(7) 0.6340(10) 0.6543(5)
O77 O 0.1199(8) 0.7808(10) 0.7115(5)
O82_2 O 0.6325(8) 0.1616(10) 0.7997(5)
O88_2 O 0.5311(8) 0.0971(11) 0.8418(5)
Cu10 Cu 0.72895(14) 0.46778(18) 0.70616(9)
W33 W 0.19245(5) 0.85625(6) 0.69481(3)
H15_3 H 0.377144 0.19365 0.473275
H16_3 H 0.338969 0.112264 0.445589
H18_3 H 0.0200237 0.289712 0.574661
H23_3 H 0.132042 0.201526 0.513657
H24_3 H 0.109617 0.215502 0.465127
H25_3 H 0.231194 0.357913 0.4449
H26_3 H 0.239975 0.286562 0.408904
O3_3 O 0.1693(7) 0.7648(9) 0.6349(4)
O9_3 O 0.0774(8) 0.7896(10) 0.5606(4)
O10_3 O 0.1202(8) 0.9145(10) 0.6574(4)
O11_3 O 0.1984(9) 0.9296(10) 0.7344(5)
O16_3 O 0.0182(8) 0.7948(10) 0.6264(5)
O26_3 O 0.1720(7) 0.9193(9) 0.5860(4)
O28_3 O 0.2645(8) 0.9088(10) 0.6658(4)
O35_3 O 0.3006(8) 0.9971(10) 0.5997(4)
O60_3 O 0.0322(8) 0.9585(10) 0.5877(5)
P1_3 P 0.1643(3) 0.6622(3) 0.63332(16)
Cu6_2 Cu 0.27105(14) 0.96778(18) 0.79384(9)
W5_3 W 0.08926(5) 0.86781(6) 0.60410(3)
N19_2 N 0.3658(9) 0.8916(11) 0.7983(5)
N21_2 N 0.2160(10) 0.8786(13) 0.8192(6)
O89_2 O 0.3891(8) 0.8225(10) 0.6697(5)
C3_3 C 0.8538(12) 0.3809(15) 0.6770(7)
H3_3 H 0.8836 0.4297 0.6853
C4_3 C 0.7653(12) 0.2966(15) 0.6657(7)
H4_3 H 0.7185 0.2734 0.6651
N2_3 N 0.8168(10) 0.2525(13) 0.6521(6)
N3_3 N 0.8782(10) 0.3072(13) 0.6601(6)
N13_3 N 0.8230(9) 0.0285(12) 0.5937(5)
N17_2 N 0.7840(10) 0.3786(13) 0.6808(6)
O22 O 0.9711(7) 0.5543(9) 0.6430(4)
O31_3 O 0.5969(7) 0.2348(9) 0.4418(4)
O32_3 O 0.7182(7) 0.3132(10) 0.4531(4)
O37_3 O 0.7490(9) 0.3762(10) 0.5255(5)
O41_3 O 0.6873(8) 0.2110(10) 0.5197(4)
O44_3 O 0.5908(9) 0.0789(12) 0.5403(5)
O45_3 O 0.5232(8) 0.0991(10) 0.4618(5)
O46_3 O 0.5421(8) 0.2419(10) 0.5101(5)
O47_3 O 0.4170(9) 0.1001(13) 0.3930(5)
O48_3 O 0.4595(9) 0.3940(13) 0.4930(6)
O50_3 O 0.8248(8) 0.2254(10) 0.5606(5)
O56_3 O 0.6910(8) 0.5447(11) 0.5130(5)
O58_3 O 0.6100(8) 0.3962(10) 0.4917(4)
P2_3 P 0.6653(3) 0.2632(4) 0.42098(16)
Cu3_3 Cu 0.98155(13) 0.05383(18) 0.61214(9)
Cu5_3 Cu 0.97299(13) 0.26339(17) 0.65027(9)
Cu7_3 Cu 0.81817(14) 0.14025(19) 0.62317(9)
W3_3 W 0.78162(5) 0.25757(6) 0.51353(3)
O62_3 O 0.7081(8) 0.1510(12) 0.6065(6)
O64_3 O 0.9734(10) 0.3082(12) 0.5840(6)
O65_3 O 0.9586(11) 0.1312(15) 0.5503(7)
O68_3 O 0.7998(17) 0.0513(16) 0.6811(7)
O70_3 O 0.9275(8) 0.1394(10) 0.6407(4)
O71_3 O 0.4580(8) 0.2509(10) 0.4391(5)
O79 O 0.9915(8) 0.6961(10) 0.6902(5)
W36 W 0.97424(6) 0.68221(7) 0.63279(3)
H13_3 H 0.840514 0.0619559 0.703327
H17_3 H 0.931913 0.279558 0.566513
H19_3 H 0.683249 0.152934 0.631213
H20_3 H 0.690306 0.0982391 0.589642
H21_3 H 0.956747 0.087711 0.527464
H22_3 H 0.998192 0.175554 0.548404
C5_3 C 0.7737(12) 0.9737(16) 0.5737(7)
H5_3 H 0.7240 0.9866 0.5688
C6_3 C 0.8744(13) 0.9068(16) 0.5749(7)
H6_3 H 0.9096 0.8644 0.5705
N5_3 N 0.8891(10) 0.9846(13) 0.5956(6)
O14_3 O 0.9991(8) 0.6546(10) 0.5806(4)
O54_3 O 0.9899(8) 0.6947(10) 0.4990(5)
O55_3 O 0.8833(9) 0.7070(11) 0.6235(5)
H14_3 H 0.798394 0.986585 0.673548
O22_2 O 0.0289(7) 0.0543(9) 0.8570(4)
O56_4 O 0.3090(8) 0.0447(11) 0.9870(5)
O79_2 O 0.0085(8) 0.1961(10) 0.8098(5)
W36_2 W 0.02576(6) 0.18221(7) 0.86721(3)
O31_4 O 0.4031(7) 0.7348(9) 0.0582(4)
O32_4 O 0.2818(7) 0.8132(10) 0.0469(4)
O45_4 O 0.4768(8) 0.5991(10) 0.0382(5)
O47_4 O 0.5830(9) 0.6001(13) 0.1070(5)
O48_4 O 0.5405(9) 0.8940(13) 0.0070(6)
O54_4 O 0.0101(8) 0.1947(10) 0.0010(5)
O58_4 O 0.3900(8) 0.8962(10) 0.0083(4)
P2_4 P 0.3347(3) 0.7632(4) 0.07902(16)
O71_4 O 0.5420(8) 0.7509(10) 0.0609(5)
C3_4 C 0.1462(12) 0.8809(15) 0.8230(7)
H3_4 H 0.1164 0.9297 0.8147
C4_4 C 0.2347(12) 0.7966(15) 0.8343(7)
H4_4 H 0.2815 0.7734 0.8349
C5_4 C 0.2263(12) 0.4737(16) 0.9263(7)
H5_4 H 0.2760 0.4866 0.9312
C6_4 C 0.1256(13) 0.4068(16) 0.9251(7)
H6_4 H 0.0904 0.3644 0.9295
N2_4 N 0.1832(10) 0.7525(13) 0.8479(6)
N3_4 N 0.1218(10) 0.8072(13) 0.8399(6)
N5_4 N 0.1109(10) 0.4846(13) 0.9044(6)
N13_4 N 0.1770(9) 0.5285(12) 0.9063(5)
O14_4 O 0.0009(8) 0.1546(10) 0.9194(4)
O37_4 O 0.2510(9) 0.8762(10) 0.9745(5)
O41_4 O 0.3127(8) 0.7110(10) 0.9803(4)
O44_4 O 0.4092(9) 0.5789(12) 0.9597(5)
O46_4 O 0.4579(8) 0.7419(10) 0.9899(5)
O50_4 O 0.1752(8) 0.7254(10) 0.9394(5)
O55_4 O 0.1167(9) 0.2070(11) 0.8765(5)
Cu3_4 Cu 0.01845(13) 0.55383(18) 0.88786(9)
Cu5_4 Cu 0.02701(13) 0.76339(17) 0.84973(9)
Cu7_4 Cu 0.18183(14) 0.64025(19) 0.87683(9)
W3_4 W 0.21838(5) 0.75757(6) 0.98647(3)
O62_4 O 0.2919(8) 0.6510(12) 0.8935(6)
O64_4 O 0.0266(10) 0.8082(12) 0.9160(6)
O65_4 O 0.0414(11) 0.6312(15) 0.9497(7)
O68_4 O 0.2002(17) 0.5513(16) 0.8189(7)
O70_4 O 0.0725(8) 0.6394(10) 0.8593(4)
H13_4 H 0.159486 0.561956 0.796673
H14_4 H 0.201606 0.486585 0.826452
H17_4 H 0.0680872 0.779558 0.933487
H19_4 H 0.316751 0.652934 0.868787
H20_4 H 0.309694 0.598239 0.910358
H21_4 H 0.0432532 0.587711 0.972536
H22_4 H 0.00180804 0.675554 0.951596
O5_2 O 0.7403(8) 0.2670(10) 0.7869(5)
O6_4 O 0.7133(8) 0.0170(10) 0.7837(4)
O8_2 O 0.9323(8) 0.0441(10) 0.9678(4)
O12_4 O 0.6807(9) 0.1513(11) 0.7237(5)
O19_4 O 0.8175(8) 0.1309(10) 0.7652(5)
O21_4 O 0.9425(9) 0.1790(10) 0.7308(5)
O23_4 O 0.9422(8) 0.0420(10) 0.7871(4)
W9_2 W 0.71916(5) 0.14410(6) 0.77371(3)
W17_2 W 0.91941(6) 0.16702(8) 0.77689(3)
O72_2 O 0.7691(8) 0.1189(10) 0.8419(5)
O73_2 O 0.8491(7) 0.1288(10) 0.9105(4)
O76_2 O 0.9045(7) 0.1340(10) 0.8457(5)
O77_2 O 0.8801(8) 0.2808(10) 0.7885(5)
W33_2 W 0.80755(5) 0.35625(6) 0.80519(3)
O63_4 O 0.6582(10) 0.6431(16) 0.0277(6)
O66_4 O 0.8543(12) 0.7314(15) 0.0110(7)
O69_4 O 0.7413(15) 0.8046(16) 0.0628(7)
H15_4 H 0.622856 0.69365 0.0267245
H16_4 H 0.661031 0.612264 0.0544111
H24_4 H 0.890383 0.715502 0.0348728
H25_4 H 0.768806 0.857913 0.0551001
H26_4 H 0.760025 0.786562 0.0910961
C1_4 C 0.8527(12) 0.6121(16) 0.8681(7)
H1_4 H 0.8321 0.5605 0.8776
C2_4 C 0.4043(12) 0.8538(17) 0.7706(8)
H2_4 H 0.3918 0.8571 0.7425
C7_4 C 0.6275(12) 0.6049(15) 0.7334(7)
H7_4 H 0.5893 0.5930 0.7128
C8_4 C 0.4042(16) 0.870(2) 0.8347(8)
H8_4 H 0.3905 0.8873 0.8596
C9_4 C 0.6484(14) 0.7714(17) 0.9516(8)
H9_4 H 0.6149 0.7905 0.9683
C10_4 C 0.7412(13) 0.7184(16) 0.9319(7)
H10_4 H 0.7866 0.6915 0.9320
C11_4 C 0.7293(13) 0.6000(16) 0.7723(7)
H11_4 H 0.7762 0.5837 0.7837
C12_4 C 0.8651(11) 0.7399(14) 0.8417(6)
H12_4 H 0.8547 0.7950 0.8289
N1_4 N 0.6363(10) 0.7718(13) 0.9121(6)
N4_4 N 0.9301(10) 0.7087(13) 0.8519(6)
N6_4 N 0.7149(10) 0.7402(12) 0.9653(6)
N7_4 N 0.6925(10) 0.5621(12) 0.7377(6)
N9_4 N 0.4633(10) 0.8108(12) 0.7898(6)
N10_4 N 0.6253(10) 0.6672(14) 0.7628(5)
N11_4 N 0.6901(9) 0.6620(12) 0.7873(6)
N12_4 N 0.8136(9) 0.6820(11) 0.8521(5)
N15_4 N 0.6975(9) 0.7377(12) 0.8981(6)
N16_4 N 0.9243(9) 0.6238(12) 0.8691(5)
N18_4 N 0.4637(13) 0.8227(16) 0.8308(7)
O1_4 O 0.9817(8) 0.8832(10) 0.8301(5)
O3_4 O 0.8307(7) 0.2648(9) 0.8651(4)
O7_4 O 0.7824(8) 0.9593(10) 0.8911(5)
O9_4 O 0.9226(8) 0.2896(10) 0.9394(4)
O10_4 O 0.8798(8) 0.4145(10) 0.8426(4)
O11_4 O 0.8016(9) 0.4296(10) 0.7656(5)
O13_4 O 0.8712(9) 0.8704(11) 0.9515(5)
O15_4 O 0.9239(8) 0.9736(10) 0.8935(5)
O16_4 O 0.9818(8) 0.2948(10) 0.8736(5)
O20_4 O 0.8415(8) 0.9628(10) 0.8246(5)
O26_4 O 0.8280(7) 0.4193(9) 0.9140(4)
O28_4 O 0.7355(8) 0.4088(10) 0.8342(4)
O29_4 O 0.6521(8) 0.9996(11) 0.8520(5)
O35_4 O 0.6994(8) 0.4971(10) 0.9003(4)
O49_4 O 0.5371(8) 0.9342(11) 0.8859(6)
O51_4 O 0.7890(10) 0.5352(11) 0.9719(5)
O52_4 O 0.5015(8) 0.7315(10) 0.7165(5)
O57_4 O 0.6120(9) 0.5117(11) 0.8259(5)
O60_4 O 0.9678(8) 0.4585(10) 0.9123(5)
O61_4 O 0.7239(9) 0.8567(11) 0.8236(5)
P1_4 P 0.8357(3) 0.1622(3) 0.86668(16)
Cu1_4 Cu 0.54504(19) 0.7904(3) 0.87251(10)
Cu2_4 Cu 0.70345(13) 0.71266(17) 0.84176(8)
Cu8_4 Cu 0.54609(15) 0.7441(2) 0.77383(9)
W1_2 W 0.74193(5) 0.96679(6) 0.83538(3)
W5_4 W 0.91074(5) 0.36781(6) 0.89590(3)
W7_2 W 0.94317(5) 0.98621(6) 0.83893(3)
W8_2 W 0.85745(5) 0.97912(6) 0.93420(3)
O67_4 O 0.5958(13) 0.7401(16) 0.8319(7)
H18_4 H 0.979976 0.789712 0.925339
H23_4 H 0.867958 0.701526 0.986343
loop_
_geom_bond_atom_site_label_1
_geom_bond_atom_site_label_2
_geom_bond_site_symmetry_1
_geom_bond_site_symmetry_2
C5 H5 1_555 1_555
C6 H6 1_555 1_555
N5 C6 1_555 1_555
N14 C5 1_555 1_555
O24 W16 1_555 1_555
O55 W16 1_555 1_555
W16 O14 1_555 1_555
O78 W16 1_555 1_555
Cu9 N14 1_555 1_555
C6 N14 1_555 1_555
C3 H3 1_555 1_555
C4 H4 1_555 1_555
N2 C4 1_555 1_555
N3 C3 1_555 1_555
N17 C3 1_555 1_555
O25 W3 1_555 1_555
O31 P2 1_555 1_555
O32 P2 1_555 1_555
O33 P2 1_555 1_555
O34 P2 1_555 1_555
O36 W3 1_555 1_555
O37 W3 1_555 1_555
O41 W3 1_555 1_555
O44 W11 1_555 1_555
O45 W11 1_555 1_555
O46 W11 1_555 1_555
O47 W15 1_555 1_555
O48 W18 1_555 1_555
O50 Cu7 1_555 1_555
O56 W10 1_555 1_555
O58 W10 1_555 1_555
Cu5 N3 1_555 1_555
Cu7 N2 1_555 1_555
W3 O32 1_555 1_555
W10 O32 1_555 1_555
W11 O31 1_555 1_555
W15 O31 1_555 1_555
W18 O31 1_555 1_555
O62 Cu7 1_555 1_555
O64 Cu5 1_555 1_555
O65 Cu3 1_555 1_555
O68 Cu7 1_555 1_555
O70 Cu3 1_555 1_555
O71 W15 1_555 1_555
O81 W10 1_555 1_555
O87 W10 1_555 1_555
O90 W15 1_555 1_555
O91 W15 1_555 1_555
O92 W11 1_555 1_555
O93 W18 1_555 1_555
Cu11 N17 1_555 1_555
W20 O33 1_555 1_555
W21 O34 1_555 1_555
W23 O33 1_555 1_555
W30 O25 1_555 1_555
W32 O34 1_555 1_555
C4 N17 1_555 1_555
N2 N3 1_555 1_555
N13 Cu7 1_555 1_555
O36 W20 1_555 1_555
O37 W10 1_555 1_555
O41 W11 1_555 1_555
O45 W15 1_555 1_555
O46 W18 1_555 1_555
O50 W3 1_555 1_555
O58 W18 1_555 1_555
Cu5 O70 1_555 1_555
Cu7 O70 1_555 1_555
W18 O71 1_555 1_555
O87 W21 1_555 1_555
O90 W32 1_555 1_555
O91 W23 1_555 1_555
O92 W20 1_555 1_555
O93 W21 1_555 1_555
O68 H13 1_555 1_555
O64 H17 1_555 1_555
O62 H19 1_555 1_555
O62 H20 1_555 1_555
O65 H21 1_555 1_555
O65 H22 1_555 1_555
O2 P1 1_555 1_555
O3 P1 1_555 1_555
O4 P1 1_555 1_555
O9 W5 1_555 1_555
O10 W5 1_555 1_555
O11 Cu6 1_555 1_555
O16 W5 1_555 1_555
O17 P1 1_555 1_555
O18 W14 1_555 1_555
O26 W2 1_555 1_555
O28 W6 1_555 1_555
O35 W2 1_555 1_555
O43 W6 1_555 1_555
O53 W2 1_555 1_555
W2 O83 1_555 1_555
W5 O3 1_555 1_555
W6 O35 1_555 1_555
W12 O4 1_555 1_555
W14 O3 1_555 1_555
N19 Cu6 1_555 1_555
N21 Cu6 1_555 1_555
O74 W14 1_555 1_555
O75 W12 1_555 1_555
O80 W12 1_555 1_555
O83 W6 1_555 1_555
O86 W2 1_555 1_555
O89 W6 1_555 1_555
W19 O2 1_555 1_555
W24 O17 1_555 1_555
W25 O4 1_555 1_555
W26 O2 1_555 1_555
W28 O53 1_555 1_555
W34 O43 1_555 1_555
W37 O17 1_555 1_555
O9 W12 1_555 1_555
O10 W14 1_555 1_555
O11 W14 1_555 1_555
O18 W37 1_555 1_555
O26 W5 1_555 1_555
O28 W14 1_555 1_555
O60 W5 1_555 1_555
O74 W26 1_555 1_555
O75 W25 1_555 1_555
C1 H1 1_555 1_555
C2 H2 1_555 1_555
C7 H7 1_555 1_555
C8 H8 1_555 1_555
C9 H9 1_555 1_555
C10 H10 1_555 1_555
C11 H11 1_555 1_555
C12 H12 1_555 1_555
N1 C9 1_555 1_555
N4 C12 1_555 1_555
N6 C9 1_555 1_555
N7 C7 1_555 1_555
N8 C2 1_555 1_555
N9 C2 1_555 1_555
N10 C7 1_555 1_555
N11 C11 1_555 1_555
N12 C1 1_555 1_555
N15 C10 1_555 1_555
N16 C1 1_555 1_555
N18 C8 1_555 1_555
O6 W19 1_555 1_555
O7 W19 1_555 1_555
O12 W26 1_555 1_555
O13 W25 1_555 1_555
O15 W24 1_555 1_555
O19 W26 1_555 1_555
O20 W19 1_555 1_555
O21 W37 1_555 1_555
O23 W24 1_555 1_555
O27 W25 1_555 1_555
O29 W19 1_555 1_555
O30 W26 1_555 1_555
O38 W4 1_555 1_555
O39 W4 1_555 1_555
O40 W13 1_555 1_555
O42 W13 1_555 1_555
O49 Cu1 1_555 1_555
O52 Cu8 1_555 1_555
O59 W4 1_555 1_555
O61 Cu2 1_555 1_555
Cu1 N1 1_555 1_555
Cu2 N11 1_555 1_555
Cu4 N6 1_555 1_555
Cu8 N9 1_555 1_555
W19 O61 1_555 1_555
W4 O29 1_555 1_555
W24 O1 1_555 1_555
W25 O7 1_555 1_555
W26 O6 1_555 1_555
W13 O52 1_555 1_555
W37 O19 1_555 1_555
O63 Cu4 1_555 1_555
O66 Cu4 1_555 1_555
O67 Cu1 1_555 1_555
O69 Cu4 1_555 1_555
N20 Cu4 1_555 1_555
O82 W13 1_555 1_555
O84 W4 1_555 1_555
O85 W13 1_555 1_555
O88 W13 1_555 1_555
Cu11 N8 1_555 1_555
W22 O40 1_555 1_555
W27 O27 1_555 1_555
W31 O30 1_555 1_555
W35 O42 1_555 1_555
W38 O59 1_555 1_555
C8 N8 1_555 1_555
C10 N6 1_555 1_555
C11 N7 1_555 1_555
C12 N12 1_555 1_555
N1 N15 1_555 1_555
N4 N16 1_555 1_555
N9 N18 1_555 1_555
N10 N11 1_555 1_555
N10 Cu8 1_555 1_555
N12 Cu2 1_555 1_555
N15 Cu2 1_555 1_555
N18 Cu1 1_555 1_555
O15 W25 1_555 1_555
O20 W24 1_555 1_555
O23 W37 1_555 1_555
O38 W27 1_555 1_555
O39 W31 1_555 1_555
O49 W4 1_555 1_555
Cu2 O67 1_555 1_555
Cu8 O67 1_555 1_555
O84 W31 1_555 1_555
O63 H15 1_555 1_555
O63 H16 1_555 1_555
O66 H23 1_555 1_555
O66 H24 1_555 1_555
O69 H25 1_555 1_555
O69 H26 1_555 1_555
C1_2 H1_2 1_555 1_555
C2_2 H2_2 1_555 1_555
C7_2 H7_2 1_555 1_555
C8_2 H8_2 1_555 1_555
C9_2 H9_2 1_555 1_555
C10_2 H10_2 1_555 1_555
C11_2 H11_2 1_555 1_555
C12_2 H12_2 1_555 1_555
N1_2 C9_2 1_555 1_555
N4_2 C12_2 1_555 1_555
N6_2 C9_2 1_555 1_555
N7_2 C7_2 1_555 1_555
N19 C2_2 1_555 1_555
N9_2 C2_2 1_555 1_555
N10_2 C7_2 1_555 1_555
N11_2 C11_2 1_555 1_555
N12_2 C1_2 1_555 1_555
N15_2 C10_2 1_555 1_555
N16_2 C1_2 1_555 1_555
N18_2 C8_2 1_555 1_555
O2_2 P1_2 1_555 1_555
O3_2 P1_2 1_555 1_555
O4_2 P1_2 1_555 1_555
O7_2 W19_2 1_555 1_555
O9_2 W5_2 1_555 1_555
O10_2 W5_2 1_555 1_555
O11_2 Cu11 1_555 1_555
O13_2 W25_2 1_555 1_555
O15_2 W24_2 1_555 1_555
O16_2 W5_2 1_555 1_555
O17_2 P1_2 1_555 1_555
O18_2 W14_2 1_555 1_555
O20_2 W19_2 1_555 1_555
O26_2 W2_2 1_555 1_555
O28_2 W22 1_555 1_555
O29_2 W19_2 1_555 1_555
O35_2 W2_2 1_555 1_555
O89 W31 1_555 1_555
O42_2 W31 1_555 1_555
O43_2 W22 1_555 1_555
O49_2 Cu1_2 1_555 1_555
O51_2 W2_2 1_555 1_555
O52_2 Cu8_2 1_555 1_555
O53_2 W2_2 1_555 1_555
O57_2 W22 1_555 1_555
O61_2 Cu2_2 1_555 1_555
Cu1_2 N1_2 1_555 1_555
Cu2_2 N11_2 1_555 1_555
Cu11 N7_2 1_555 1_555
Cu8_2 N9_2 1_555 1_555
W19_2 O61_2 1_555 1_555
W2_2 O83_2 1_555 1_555
W5_2 O3_2 1_555 1_555
W22 O35_2 1_555 1_555
W24_2 O1_2 1_555 1_555
W25_2 O7_2 1_555 1_555
W12_2 O4_2 1_555 1_555
W31 O52_2 1_555 1_555
W14_2 O3_2 1_555 1_555
O67_2 Cu1_2 1_555 1_555
O74_2 W14_2 1_555 1_555
O75_2 W12_2 1_555 1_555
O80_2 W12_2 1_555 1_555
O83_2 W22 1_555 1_555
O86_2 W2_2 1_555 1_555
W26_2 O2_2 1_555 1_555
W28_2 O53_2 1_555 1_555
W35 O43_2 1_555 1_555
W34 O42_2 1_555 1_555
W37_2 O17_2 1_555 1_555
C8_2 N19 1_555 1_555
C10_2 N6_2 1_555 1_555
C11_2 N7_2 1_555 1_555
C12_2 N12_2 1_555 1_555
N1_2 N15_2 1_555 1_555
N4_2 N16_2 1_555 1_555
N9_2 N18_2 1_555 1_555
N10_2 N11_2 1_555 1_555
N10_2 Cu8_2 1_555 1_555
N12_2 Cu2_2 1_555 1_555
N15_2 Cu2_2 1_555 1_555
N18_2 Cu1_2 1_555 1_555
O9_2 W12_2 1_555 1_555
O10_2 W14_2 1_555 1_555
O11_2 W14_2 1_555 1_555
O15_2 W25_2 1_555 1_555
O18_2 W37_2 1_555 1_555
O20_2 W24_2 1_555 1_555
O26_2 W5_2 1_555 1_555
O28_2 W14_2 1_555 1_555
O60_2 W5_2 1_555 1_555
Cu2_2 O67_2 1_555 1_555
Cu8_2 O67_2 1_555 1_555
O74_2 W26_2 1_555 1_555
O63_2 Cu4_2 1_555 1_555
O66_2 Cu4_2 1_555 1_555
O69_2 Cu4_2 1_555 1_555
N20_2 Cu4_2 1_555 1_555
O63_2 H15_2 1_555 1_555
O63_2 H16_2 1_555 1_555
O66_2 H24_2 1_555 1_555
O69_2 H25_2 1_555 1_555
O69_2 H26_2 1_555 1_555
O12_2 W26_2 1_555 1_555
O19_2 W26_2 1_555 1_555
O21_2 W37_2 1_555 1_555
O82 W26_2 1_555 1_555
O38_2 W4_2 1_555 1_555
O88 W4_2 1_555 1_555
O59_2 W4_2 1_555 1_555
W26_2 O6_2 1_555 1_555
W37_2 O19_2 1_555 1_555
O85 W4_2 1_555 1_555
W27_2 O27_2 1_555 1_555
W38_2 O59_2 1_555 1_555
O23_2 W37_2 1_555 1_555
O38_2 W27_2 1_555 1_555
C3_2 H3_2 1_555 1_555
C4_2 H4_2 1_555 1_555
C5_2 H5_2 1_555 1_555
C6_2 H6_2 1_555 1_555
N2_2 C4_2 1_555 1_555
N3_2 C3_2 1_555 1_555
N5_2 C6_2 1_555 1_555
N13_2 C5_2 1_555 1_555
N14_2 C5_2 1_555 1_555
N21 C3_2 1_555 1_555
O24_2 W16_2 1_555 1_555
O37_2 W3_2 1_555 1_555
O41_2 W3_2 1_555 1_555
O50_2 Cu7_2 1_555 1_555
O55_2 W16_2 1_555 1_555
Cu3_2 N5_2 1_555 1_555
Cu5_2 N3_2 1_555 1_555
Cu7_2 N2_2 1_555 1_555
W16_2 O14_2 1_555 1_555
O62_2 Cu7_2 1_555 1_555
O64_2 Cu5_2 1_555 1_555
O65_2 Cu3_2 1_555 1_555
O68_2 Cu7_2 1_555 1_555
O70_2 Cu3_2 1_555 1_555
O78_2 W16_2 1_555 1_555
Cu9_2 N14_2 1_555 1_555
C4_2 N21 1_555 1_555
C6_2 N14_2 1_555 1_555
N2_2 N3_2 1_555 1_555
N5_2 N13_2 1_555 1_555
N13_2 Cu7_2 1_555 1_555
O50_2 W3_2 1_555 1_555
Cu5_2 O70_2 1_555 1_555
Cu7_2 O70_2 1_555 1_555
O68_2 H13_2 1_555 1_555
O68_2 H14_2 1_555 1_555
O64_2 H17_2 1_555 1_555
O62_2 H19_2 1_555 1_555
O62_2 H20_2 1_555 1_555
O65_2 H21_2 1_555 1_555
O65_2 H22_2 1_555 1_555
O31_2 P2_2 1_555 1_555
O32_2 P2_2 1_555 1_555
O33_2 P2_2 1_555 1_555
O34_2 P2_2 1_555 1_555
O45_2 W11_2 1_555 1_555
O47_2 W15_2 1_555 1_555
O48_2 W18_2 1_555 1_555
O58_2 W10_2 1_555 1_555
W10_2 O32_2 1_555 1_555
W11_2 O31_2 1_555 1_555
W15_2 O31_2 1_555 1_555
W18_2 O31_2 1_555 1_555
O71_2 W15_2 1_555 1_555
O81_2 W10_2 1_555 1_555
O87_2 W10_2 1_555 1_555
O90_2 W15_2 1_555 1_555
O91_2 W15_2 1_555 1_555
O92_2 W11_2 1_555 1_555
O93_2 W18_2 1_555 1_555
W20_2 O33_2 1_555 1_555
W21_2 O34_2 1_555 1_555
W23_2 O33_2 1_555 1_555
W30_2 O25_2 1_555 1_555
W32_2 O34_2 1_555 1_555
O36_2 W20_2 1_555 1_555
O45_2 W15_2 1_555 1_555
O58_2 W18_2 1_555 1_555
W18_2 O71_2 1_555 1_555
O87_2 W21_2 1_555 1_555
O90_2 W32_2 1_555 1_555
O91_2 W23_2 1_555 1_555
O92_2 W20_2 1_555 1_555
O93_2 W21_2 1_555 1_555
C1_3 H1_3 1_555 1_555
C2_3 H2_3 1_555 1_555
C7_3 H7_3 1_555 1_555
C8_3 H8_3 1_555 1_555
C9_3 H9_3 1_555 1_555
C10_3 H10_3 1_555 1_555
C11_3 H11_3 1_555 1_555
C12_3 H12_3 1_555 1_555
N1_3 C9_3 1_555 1_555
N4_3 C12_3 1_555 1_555
N6_3 C9_3 1_555 1_555
N7_3 C7_3 1_555 1_555
N8_2 C2_3 1_555 1_555
N9_3 C2_3 1_555 1_555
N10_3 C7_3 1_555 1_555
N11_3 C11_3 1_555 1_555
N12_3 C1_3 1_555 1_555
N15_3 C10_3 1_555 1_555
N16_3 C1_3 1_555 1_555
N18_3 C8_3 1_555 1_555
O5 W9 1_555 1_555
O6_3 W1 1_555 1_555
O7_3 W1 1_555 1_555
O8 W8 1_555 1_555
O12_3 W9 1_555 1_555
O13_3 W8 1_555 1_555
O15_3 W7 1_555 1_555
O19_3 W9 1_555 1_555
O20_3 W1 1_555 1_555
O21_3 W17 1_555 1_555
O23_3 W7 1_555 1_555
O81 W8 1_555 1_555
O29_3 W1 1_555 1_555
O30_2 W9 1_555 1_555
O39_2 W21 1_555 1_555
O40_2 W32_2 1_555 1_555
O49_3 Cu1_3 1_555 1_555
O52_3 Cu8_3 1_555 1_555
O61_3 Cu2_3 1_555 1_555
Cu1_3 N1_3 1_555 1_555
Cu2_3 N11_3 1_555 1_555
Cu9 N6_3 1_555 1_555
Cu8_3 N9_3 1_555 1_555
W1 O61_3 1_555 1_555
W21 O29_3 1_555 1_555
W7 O1_3 1_555 1_555
W8 O7_3 1_555 1_555
W9 O6_3 1_555 1_555
W32_2 O52_3 1_555 1_555
W17 O19_3 1_555 1_555
O63_3 Cu9 1_555 1_555
O66_3 Cu9 1_555 1_555
O67_3 Cu1_3 1_555 1_555
O69_3 Cu9 1_555 1_555
O72 W1 1_555 1_555
O73 W8 1_555 1_555
O76 W7 1_555 1_555
O77 W17 1_555 1_555
O82_2 W32_2 1_555 1_555
O88_2 W32_2 1_555 1_555
Cu10 N8_2 1_555 1_555
W23_2 O40_2 1_555 1_555
W30 O8 1_555 1_555
W32 O30_2 1_555 1_555
W33 O5 1_555 1_555
C8_3 N8_2 1_555 1_555
C10_3 N6_3 1_555 1_555
C11_3 N7_3 1_555 1_555
C12_3 N12_3 1_555 1_555
N1_3 N15_3 1_555 1_555
N4_3 N16_3 1_555 1_555
N9_3 N18_3 1_555 1_555
N10_3 N11_3 1_555 1_555
N10_3 Cu8_3 1_555 1_555
N12_3 Cu2_3 1_555 1_555
N15_3 Cu2_3 1_555 1_555
N18_3 Cu1_3 1_555 1_555
O15_3 W8 1_555 1_555
O20_3 W7 1_555 1_555
O23_3 W17 1_555 1_555
O39_2 W32 1_555 1_555
O49_3 W21 1_555 1_555
Cu2_3 O67_3 1_555 1_555
Cu8_3 O67_3 1_555 1_555
W9 O72 1_555 1_555
W17 O76 1_555 1_555
O73 W30 1_555 1_555
O77 W33 1_555 1_555
O63_3 H15_3 1_555 1_555
O63_3 H16_3 1_555 1_555
O66_3 H23_3 1_555 1_555
O66_3 H24_3 1_555 1_555
O69_3 H25_3 1_555 1_555
O69_3 H26_3 1_555 1_555
O72 P1_3 1_555 1_555
O3_3 P1_3 1_555 1_555
O73 P1_3 1_555 1_555
O9_3 W5_3 1_555 1_555
O10_3 W5_3 1_555 1_555
O11_3 Cu6_2 1_555 1_555
O16_3 W5_3 1_555 1_555
O76 P1_3 1_555 1_555
O26_3 W20 1_555 1_555
O28_3 W23 1_555 1_555
O35_3 W20 1_555 1_555
W5_3 O3_3 1_555 1_555
W23 O35_3 1_555 1_555
W33 O3_3 1_555 1_555
N19_2 Cu6_2 1_555 1_555
N21_2 Cu6_2 1_555 1_555
O89_2 W23 1_555 1_555
O9_3 W30 1_555 1_555
O10_3 W33 1_555 1_555
O11_3 W33 1_555 1_555
O26_3 W5_3 1_555 1_555
O28_3 W33 1_555 1_555
O60_3 W5_3 1_555 1_555
C3_3 H3_3 1_555 1_555
C4_3 H4_3 1_555 1_555
N2_3 C4_3 1_555 1_555
N3_3 C3_3 1_555 1_555
N17_2 C3_3 1_555 1_555
O80 W3_3 1_555 1_555
O31_3 P2_3 1_555 1_555
O32_3 P2_3 1_555 1_555
O83 P2_3 1_555 1_555
O84 P2_3 1_555 1_555
O86 W3_3 1_555 1_555
O37_3 W3_3 1_555 1_555
O41_3 W3_3 1_555 1_555
O44_3 W28 1_555 1_555
O45_3 W28 1_555 1_555
O46_3 W28 1_555 1_555
O47_3 W34 1_555 1_555
O48_3 W38 1_555 1_555
O50_3 Cu7_3 1_555 1_555
O56_3 W27 1_555 1_555
O58_3 W27 1_555 1_555
Cu5_3 N3_3 1_555 1_555
Cu7_3 N2_3 1_555 1_555
W3_3 O32_3 1_555 1_555
W27 O32_3 1_555 1_555
W28 O31_3 1_555 1_555
W34 O31_3 1_555 1_555
W38 O31_3 1_555 1_555
O62_3 Cu7_3 1_555 1_555
O64_3 Cu5_3 1_555 1_555
O65_3 Cu3_3 1_555 1_555
O68_3 Cu7_3 1_555 1_555
O70_3 Cu3_3 1_555 1_555
O71_3 W34 1_555 1_555
Cu10 N17_2 1_555 1_555
W36 O22 1_555 1_555
C4_3 N17_2 1_555 1_555
N2_3 N3_3 1_555 1_555
N13_3 Cu7_3 1_555 1_555
O37_3 W27 1_555 1_555
O41_3 W28 1_555 1_555
O45_3 W34 1_555 1_555
O46_3 W38 1_555 1_555
O50_3 W3_3 1_555 1_555
O58_3 W38 1_555 1_555
Cu5_3 O70_3 1_555 1_555
Cu7_3 O70_3 1_555 1_555
W38 O71_3 1_555 1_555
O79 W36 1_555 1_555
O68_3 H13_3 1_555 1_555
O64_3 H17_3 1_555 1_555
O62_3 H19_3 1_555 1_555
O62_3 H20_3 1_555 1_555
O65_3 H21_3 1_555 1_555
O65_3 H22_3 1_555 1_555
C5_3 H5_3 1_555 1_555
C6_3 H6_3 1_555 1_555
N5_3 C6_3 1_555 1_555
N20 C5_3 1_555 1_555
O55_3 W36 1_555 1_555
W36 O14_3 1_555 1_555
C6_3 N20 1_555 1_555
W36_2 O22_2 1_555 1_555
O79_2 W36_2 1_555 1_555
O31_4 P2_4 1_555 1_555
O32_4 P2_4 1_555 1_555
O83_2 P2_4 1_555 1_555
O85 P2_4 1_555 1_555
O45_4 W28_2 1_555 1_555
O47_4 W35 1_555 1_555
O48_4 W38_2 1_555 1_555
O58_4 W27_2 1_555 1_555
W27_2 O32_4 1_555 1_555
W28_2 O31_4 1_555 1_555
W35 O31_4 1_555 1_555
W38_2 O31_4 1_555 1_555
O71_4 W35 1_555 1_555
O45_4 W35 1_555 1_555
O58_4 W38_2 1_555 1_555
W38_2 O71_4 1_555 1_555
C3_4 H3_4 1_555 1_555
C4_4 H4_4 1_555 1_555
C5_4 H5_4 1_555 1_555
C6_4 H6_4 1_555 1_555
N2_4 C4_4 1_555 1_555
N3_4 C3_4 1_555 1_555
N5_4 C6_4 1_555 1_555
N13_4 C5_4 1_555 1_555
N20_2 C5_4 1_555 1_555
N21_2 C3_4 1_555 1_555
O37_4 W3_4 1_555 1_555
O41_4 W3_4 1_555 1_555
O50_4 Cu7_4 1_555 1_555
O55_4 W36_2 1_555 1_555
Cu3_4 N5_4 1_555 1_555
Cu5_4 N3_4 1_555 1_555
Cu7_4 N2_4 1_555 1_555
W36_2 O14_4 1_555 1_555
O62_4 Cu7_4 1_555 1_555
O64_4 Cu5_4 1_555 1_555
O65_4 Cu3_4 1_555 1_555
O68_4 Cu7_4 1_555 1_555
O70_4 Cu3_4 1_555 1_555
C4_4 N21_2 1_555 1_555
C6_4 N20_2 1_555 1_555
N2_4 N3_4 1_555 1_555
N5_4 N13_4 1_555 1_555
N13_4 Cu7_4 1_555 1_555
O50_4 W3_4 1_555 1_555
Cu5_4 O70_4 1_555 1_555
Cu7_4 O70_4 1_555 1_555
O68_4 H13_4 1_555 1_555
O68_4 H14_4 1_555 1_555
O64_4 H17_4 1_555 1_555
O62_4 H19_4 1_555 1_555
O62_4 H20_4 1_555 1_555
O65_4 H21_4 1_555 1_555
O65_4 H22_4 1_555 1_555
O5_2 W9_2 1_555 1_555
O12_4 W9_2 1_555 1_555
O19_4 W9_2 1_555 1_555
O21_4 W17_2 1_555 1_555
O82_2 W9_2 1_555 1_555
O88_2 W21_2 1_555 1_555
W9_2 O6_4 1_555 1_555
W17_2 O19_4 1_555 1_555
O77_2 W17_2 1_555 1_555
W30_2 O8_2 1_555 1_555
W33_2 O5_2 1_555 1_555
O23_4 W17_2 1_555 1_555
W9_2 O72_2 1_555 1_555
W17_2 O76_2 1_555 1_555
O73_2 W30_2 1_555 1_555
O77_2 W33_2 1_555 1_555
O63_4 Cu9_2 1_555 1_555
O66_4 Cu9_2 1_555 1_555
O69_4 Cu9_2 1_555 1_555
O63_4 H15_4 1_555 1_555
O63_4 H16_4 1_555 1_555
O66_4 H24_4 1_555 1_555
O69_4 H25_4 1_555 1_555
O69_4 H26_4 1_555 1_555
C1_4 H1_4 1_555 1_555
C2_4 H2_4 1_555 1_555
C7_4 H7_4 1_555 1_555
C8_4 H8_4 1_555 1_555
C9_4 H9_4 1_555 1_555
C10_4 H10_4 1_555 1_555
C11_4 H11_4 1_555 1_555
C12_4 H12_4 1_555 1_555
N1_4 C9_4 1_555 1_555
N4_4 C12_4 1_555 1_555
N6_4 C9_4 1_555 1_555
N7_4 C7_4 1_555 1_555
N19_2 C2_4 1_555 1_555
N9_4 C2_4 1_555 1_555
N10_4 C7_4 1_555 1_555
N11_4 C11_4 1_555 1_555
N12_4 C1_4 1_555 1_555
N15_4 C10_4 1_555 1_555
N16_4 C1_4 1_555 1_555
N18_4 C8_4 1_555 1_555
O72_2 P1_4 1_555 1_555
O3_4 P1_4 1_555 1_555
O73_2 P1_4 1_555 1_555
O7_4 W1_2 1_555 1_555
O9_4 W5_4 1_555 1_555
O10_4 W5_4 1_555 1_555
O11_4 Cu10 1_555 1_555
O13_4 W8_2 1_555 1_555
O15_4 W7_2 1_555 1_555
O16_4 W5_4 1_555 1_555
O76_2 P1_4 1_555 1_555
O20_4 W1_2 1_555 1_555
O26_4 W20_2 1_555 1_555
O28_4 W23_2 1_555 1_555
O29_4 W1_2 1_555 1_555
O35_4 W20_2 1_555 1_555
O89_2 W32 1_555 1_555
O49_4 Cu1_4 1_555 1_555
O51_4 W20_2 1_555 1_555
O52_4 Cu8_4 1_555 1_555
O57_4 W23_2 1_555 1_555
O61_4 Cu2_4 1_555 1_555
Cu1_4 N1_4 1_555 1_555
Cu2_4 N11_4 1_555 1_555
Cu10 N7_4 1_555 1_555
Cu8_4 N9_4 1_555 1_555
W1_2 O61_4 1_555 1_555
W5_4 O3_4 1_555 1_555
W23_2 O35_4 1_555 1_555
W7_2 O1_4 1_555 1_555
W8_2 O7_4 1_555 1_555
W32 O52_4 1_555 1_555
W33_2 O3_4 1_555 1_555
O67_4 Cu1_4 1_555 1_555
C8_4 N19_2 1_555 1_555
C10_4 N6_4 1_555 1_555
C11_4 N7_4 1_555 1_555
C12_4 N12_4 1_555 1_555
N1_4 N15_4 1_555 1_555
N4_4 N16_4 1_555 1_555
N9_4 N18_4 1_555 1_555
N10_4 N11_4 1_555 1_555
N10_4 Cu8_4 1_555 1_555
N12_4 Cu2_4 1_555 1_555
N15_4 Cu2_4 1_555 1_555
N18_4 Cu1_4 1_555 1_555
O9_4 W30_2 1_555 1_555
O10_4 W33_2 1_555 1_555
O11_4 W33_2 1_555 1_555
O15_4 W8_2 1_555 1_555
O20_4 W7_2 1_555 1_555
O26_4 W5_4 1_555 1_555
O28_4 W33_2 1_555 1_555
O60_4 W5_4 1_555 1_555
Cu2_4 O67_4 1_555 1_555
Cu8_4 O67_4 1_555 1_555

#END
