
###############################################################################
#
# This file contains modified crystal structure data generated from the
# MOF subset of the Cambridge Structural Database (CSD) v543 
# hosted by the Cambridge Crystallographic Data Centre (CCDC).
#
# This work is licensed under the Creative Commons
# Attribution-NonCommercial-ShareAlike 4.0 International License.
# To view a copy of this license, visit
# http://creativecommons.org/licenses/by-nc-sa/4.0/
# or send a letter to
# Creative Commons, PO Box 1866, Mountain View, CA 94042, USA.
#
# CIF created using the CSD Python API on 29 September 2022
# The structure has been converted into the P1 space group
# The structure has a 3D framework
# The original CSD entry SIHCOE is in the hexagonal crystal system
# The original CSD entry SIHCOE is in a Sohncke space group
# The framework has been calculated to contain at least 10.0% void space
# The void calculation uses a probe of radius 1.32A, grid spacing 0.4
#
###############################################################################

data_SIHCOE
_chemical_formula_moiety         '(C210 H132 Cd6 N36 O36)n'
_symmetry_cell_setting           triclinic
_symmetry_space_group_name_H-M   'P 1'
_symmetry_Int_Tables_number      1
_space_group_name_Hall           'P 1'
loop_
_symmetry_equiv_pos_site_id
_symmetry_equiv_pos_as_xyz
1 x,y,z
_cell_length_a                   18.9853(5)
_cell_length_b                   18.9853(5)
_cell_length_c                   21.1139(9)
_cell_angle_alpha                90
_cell_angle_beta                 90
_cell_angle_gamma                120
_cell_volume                     6590.74
loop_
_atom_site_label
_atom_site_type_symbol
_atom_site_fract_x
_atom_site_fract_y
_atom_site_fract_z
N1 N 0.0077(3) 0.6964(3) 0.4096(2)
N6 N 0.0721(3) 0.8313(4) 0.4312(3)
C30 C 0.1298(4) 0.8075(6) 0.4262(4)
C31 C 0.0917(4) 0.7232(6) 0.4154(3)
C32 C 0.1322(4) 0.6824(6) 0.4113(4)
H17 H 0.1049 0.6265 0.4048
C33 C 0.2150(5) 0.7257(7) 0.4170(5)
H18 H 0.2446 0.6992 0.4118
C34 C 0.2152(5) 0.8489(7) 0.4323(5)
H19 H 0.2445 0.9050 0.4378
C35 C 0.2539(5) 0.8042(9) 0.4299(6)
H20 H 0.3095 0.8302 0.4375
H22 H 0.082(9) 0.824(9) 0.477(2)
N7 N 0.0400(4) 0.6258(2) 0.2735(2)
Cd1 Cd 0.93826(2) 0.59074(2) 0.34310(3)
O1 O 0.9413(2) 0.4904(3) 0.4046(2)
O2 O 0.8326(3) 0.5018(3) 0.4135(2)
O3 O 0.6478(3) 0.1577(3) 0.6063(3)
O4 O 0.7633(2) 0.1601(2) 0.61736(19)
O5 O 0.6442(3) 0.2801(4) 0.5552(4)
H1 H 0.618(3) 0.237(4) 0.585(4)
O6 O 0.9514(3) 0.3769(3) 0.4658(3)
H2 H 0.988(4) 0.405(5) 0.430(3)
N2 N 0.6258(2) 0.5858(3) 0.4402(2)
N3 N 0.9026(3) 0.9763(3) 0.4208(3)
N4 N 0.7651(3) 0.9021(3) 0.4287(2)
H3 H 0.712(2) 0.851(2) 0.424(3)
N5 N 0.6976(3) 0.5283(4) 0.4084(3)
C1 C 0.7740(3) 0.6786(3) 0.4255(3)
C2 C 0.8499(3) 0.6833(3) 0.4275(3)
H4 H 0.8535 0.6363 0.4310
C3 C 0.9214(3) 0.7608(3) 0.4239(3)
C4 C 0.9171(3) 0.8298(3) 0.4217(3)
H5 H 0.9646 0.8800 0.4197
C5 C 0.8402(3) 0.8263(3) 0.4224(3)
C6 C 0.8365(3) 0.9012(3) 0.4234(3)
H9 H 0.6867 0.9935 0.4359
C12 C 0.7884(4) 0.9852(3) 0.4284(3)
C13 C 0.7707(3) 0.7508(3) 0.4235(3)
H10 H 0.7202 0.7476 0.4229
C14 C 0.6203(3) 0.4667(4) 0.4136(3)
C15 C 0.5741(3) 0.5027(4) 0.4322(3)
C16 C 0.4890(4) 0.4535(6) 0.4415(4)
H11 H 0.4574 0.4757 0.4543
C17 C 0.4560(4) 0.3729(6) 0.4308(5)
H12 H 0.3999 0.3407 0.4352
C18 C 0.4996(5) 0.3330(8) 0.4136(5)
H13 H 0.4735 0.2767 0.4097
C19 C 0.5847(5) 0.3822(7) 0.4023(5)
H14 H 0.622(5) 0.375(8) 0.382(5)
C20 C 0.9999(3) 0.7609(3) 0.4212(3)
C21 C 0.8701(4) 0.4661(3) 0.4273(3)
C22 C 0.8339(3) 0.3952(3) 0.4706(3)
C23 C 0.8758(3) 0.3542(3) 0.4886(3)
C24 C 0.7580(4) 0.3694(4) 0.4942(3)
H15 H 0.7306 0.3968 0.4832
C25 C 0.7207(3) 0.3020(4) 0.5346(3)
C26 C 0.7221(3) 0.1890(3) 0.5945(3)
C27 C 0.7615(3) 0.2618(3) 0.5511(3)
C28 C 0.8384(3) 0.2885(3) 0.5293(3)
H16 H 0.8662 0.2621 0.5420
C29 C 0.6979(3) 0.5997(4) 0.4264(3)
H21 H 0.745(6) 0.519(7) 0.405(8)
Cd2 Cd 0.65248(3) 0.06174(2) 0.67643(3)
Cd3 Cd 0.59074(2) 0.65248(3) 0.50977(3)
O7 O 0.8423(3) 0.4901(4) 0.2730(3)
O8 O 0.8399(2) 0.6032(3) 0.28403(19)
N1_2 N 0.3113(4) 0.0077(3) 0.2429(2)
N6_2 N 0.2408(5) 0.0721(3) 0.2645(3)
C30_2 C 0.3223(7) 0.1298(4) 0.2595(4)
C31_2 C 0.3685(7) 0.0917(4) 0.2487(3)
C32_2 C 0.4498(7) 0.1322(4) 0.2446(4)
H17_2 H 0.4784 0.1049 0.2381
C33_2 C 0.4893(9) 0.2150(5) 0.2503(5)
H18_2 H 0.5454 0.2446 0.2451
C34_2 C 0.3663(9) 0.2152(5) 0.2656(5)
H19_2 H 0.3395 0.2445 0.2711
C35_2 C 0.4497(10) 0.2539(5) 0.2632(6)
H20_2 H 0.4793 0.3095 0.2708
H22_2 H 0.258(13) 0.082(9) 0.310(2)
N7_2 N 0.4142(4) 0.0400(4) 0.1069(2)
Cd1_2 Cd 0.34752(3) 0.93826(2) 0.17643(3)
O1_2 O 0.4509(4) 0.9413(2) 0.2379(2)
O2_2 O 0.3308(4) 0.8326(3) 0.2468(2)
O3_2 O 0.4901(4) 0.6478(3) 0.4396(3)
O4_2 O 0.6032(3) 0.7633(2) 0.45069(19)
O5_2 O 0.3641(5) 0.6442(3) 0.3885(4)
H1_2 H 0.381(5) 0.618(3) 0.418(4)
O6_2 O 0.5745(4) 0.9514(3) 0.2991(3)
H2_2 H 0.583(6) 0.988(4) 0.263(3)
N5_2 N 0.1693(5) 0.6976(3) 0.2417(3)
C1_2 C 0.0954(4) 0.7740(3) 0.2588(3)
C2_2 C 0.1666(4) 0.8499(3) 0.2608(3)
H4_2 H 0.2172 0.8535 0.2643
C3_2 C 0.1606(4) 0.9214(3) 0.2572(3)
C4_2 C 0.0873(4) 0.9171(3) 0.2550(3)
H5_2 H 0.0846 0.9646 0.2530
C5_2 C 0.0139(4) 0.8402(3) 0.2557(3)
C13_2 C 0.0199(4) 0.7707(3) 0.2568(3)
C14_2 C 0.1536(5) 0.6203(3) 0.2469(3)
C15_2 C 0.0714(5) 0.5741(3) 0.2655(3)
C16_2 C 0.0355(7) 0.4890(4) 0.2748(4)
C17_2 C 0.0831(7) 0.4560(4) 0.2641(5)
H12_2 H 0.0592 0.3999 0.2685
C18_2 C 0.1666(9) 0.4996(5) 0.2469(5)
H13_2 H 0.1968 0.4735 0.2430
C19_2 C 0.2025(9) 0.5847(5) 0.2356(5)
H14_2 H 0.247(9) 0.622(5) 0.215(5)
C20_2 C 0.2390(4) 0.9999(3) 0.2545(3)
C21_2 C 0.4040(5) 0.8701(4) 0.2606(3)
C22_2 C 0.4387(4) 0.8339(3) 0.3039(3)
C23_2 C 0.5216(4) 0.8758(3) 0.3219(3)
C24_2 C 0.3886(6) 0.7580(4) 0.3275(3)
H15_2 H 0.3338 0.7306 0.3165
C25_2 C 0.4187(5) 0.7207(3) 0.3679(3)
C26_2 C 0.5331(4) 0.7221(3) 0.4278(3)
C27_2 C 0.4997(4) 0.7615(3) 0.3844(3)
C28_2 C 0.5499(4) 0.8384(3) 0.3626(3)
H16_2 H 0.6041 0.8662 0.3753
C29_2 C 0.0982(5) 0.6979(3) 0.2597(3)
H21_2 H 0.226(9) 0.745(6) 0.238(8)
O7_2 O 0.3522(5) 0.8423(3) 0.1063(3)
O8_2 O 0.2367(4) 0.8399(2) 0.11736(19)
N3_2 N 0.9263(4) 0.9026(3) 0.2541(3)
N4_2 N 0.8630(4) 0.7651(3) 0.2620(2)
H3_2 H 0.861(3) 0.712(2) 0.257(3)
C6_2 C 0.9353(4) 0.8365(3) 0.2567(3)
C7 C 0.8447(5) 0.8707(4) 0.2568(3)
C8 C 0.7972(7) 0.9109(6) 0.2569(4)
H6 H 0.8228 0.9672 0.2531
C9 C 0.7143(9) 0.8658(7) 0.2624(4)
H7 H 0.6833 0.8912 0.2628
C10 C 0.6776(7) 0.7825(6) 0.2674(4)
H8 H 0.6213 0.7524 0.2716
C11 C 0.7196(6) 0.7431(5) 0.2666(4)
H9_2 H 0.6932 0.6867 0.2692
C12_2 C 0.8032(5) 0.7884(4) 0.2617(3)
H10_2 H 0.9726 0.7202 0.2562
H11_2 H 0.9817 0.4574 0.2876
Cd1_3 Cd 0.40926(2) 0.34752(3) 0.00977(3)
O1_3 O 0.5096(3) 0.4509(4) 0.0713(2)
O2_3 O 0.4982(3) 0.3308(4) 0.0802(2)
O5_3 O 0.7199(4) 0.3641(5) 0.2219(4)
H1_3 H 0.763(4) 0.381(5) 0.252(4)
O6_3 O 0.6231(3) 0.5745(4) 0.1325(3)
H2_3 H 0.595(5) 0.583(6) 0.097(3)
N1_3 N 0.3036(3) 0.3113(4) 0.0763(2)
N5_3 N 0.4717(4) 0.1693(5) 0.0751(3)
N6_3 N 0.1687(4) 0.2408(5) 0.0979(3)
C1_3 C 0.3214(3) 0.0954(4) 0.0922(3)
C2_3 C 0.3167(3) 0.1666(4) 0.0942(3)
H4_3 H 0.3637 0.2172 0.0977
C3_3 C 0.2392(3) 0.1606(4) 0.0906(3)
C4_3 C 0.1702(3) 0.0873(4) 0.0884(3)
H5_3 H 0.1200 0.0846 0.0864
C5_3 C 0.1737(3) 0.0139(4) 0.0891(3)
C13_3 C 0.2492(3) 0.0199(4) 0.0902(3)
C14_3 C 0.5333(4) 0.1536(5) 0.0803(3)
C15_3 C 0.4973(4) 0.0714(5) 0.0989(3)
C16_3 C 0.5465(6) 0.0355(7) 0.1082(4)
C17_3 C 0.6271(6) 0.0831(7) 0.0975(5)
H12_3 H 0.6593 0.0592 0.1019
C18_3 C 0.6670(8) 0.1666(9) 0.0803(5)
H13_3 H 0.7233 0.1968 0.0764
C19_3 C 0.6178(7) 0.2025(9) 0.0690(5)
H14_3 H 0.625(8) 0.247(9) 0.049(5)
C20_3 C 0.2391(3) 0.2390(4) 0.0879(3)
C21_3 C 0.5339(3) 0.4040(5) 0.0940(3)
C22_3 C 0.6048(3) 0.4387(4) 0.1373(3)
C23_3 C 0.6458(3) 0.5216(4) 0.1553(3)
C24_3 C 0.6306(4) 0.3886(6) 0.1609(3)
H15_3 H 0.6032 0.3338 0.1499
C25_3 C 0.6980(4) 0.4187(5) 0.2013(3)
C26_3 C 0.8110(3) 0.5331(4) 0.2612(3)
C27_3 C 0.7382(3) 0.4997(4) 0.2178(3)
C28_3 C 0.7115(3) 0.5499(4) 0.1960(3)
H16_3 H 0.7379 0.6041 0.2087
C29_3 C 0.4003(4) 0.0982(5) 0.0931(3)
C30_3 C 0.1925(6) 0.3223(7) 0.0929(4)
C31_3 C 0.2768(6) 0.3685(7) 0.0821(3)
C32_3 C 0.3176(6) 0.4498(7) 0.0780(4)
H17_3 H 0.3735 0.4784 0.0715
C33_3 C 0.2743(7) 0.4893(9) 0.0837(5)
H18_3 H 0.3008 0.5454 0.0785
C34_3 C 0.1511(7) 0.3663(9) 0.0990(5)
H19_3 H 0.0950 0.3395 0.1045
C35_3 C 0.1958(9) 0.4497(10) 0.0966(6)
H20_3 H 0.1698 0.4793 0.1042
H21_3 H 0.481(7) 0.226(9) 0.072(8)
H22_3 H 0.176(9) 0.258(13) 0.144(2)
O7_3 O 0.5099(4) 0.3522(5) 0.9396(3)
O8_3 O 0.3968(3) 0.2367(4) 0.95069(19)
N7_3 N 0.3742(2) 0.4142(4) 0.9402(2)
N3_3 N 0.0237(3) 0.9263(4) 0.0875(3)
N4_3 N 0.0979(3) 0.8630(4) 0.0954(2)
H3_3 H 0.149(2) 0.861(3) 0.091(3)
C6_3 C 0.0988(3) 0.9353(4) 0.0901(3)
H9_3 H 0.0065 0.6932 0.1026
C12_3 C 0.0148(3) 0.8032(5) 0.0951(3)
H10_3 H 0.2524 0.9726 0.0896
H11_3 H 0.5243 0.9817 0.1210
O5_4 O 0.3558(3) 0.7199(4) 0.0552(4)
H1_4 H 0.382(3) 0.763(4) 0.085(4)
C25_4 C 0.2793(3) 0.6980(4) 0.0346(3)
C26_4 C 0.2779(3) 0.8110(3) 0.0945(3)
C27_4 C 0.2385(3) 0.7382(3) 0.0511(3)
C28_4 C 0.1616(3) 0.7115(3) 0.0293(3)
H16_4 H 0.1338 0.7379 0.0420
Cd1_4 Cd 0.06174(2) 0.40926(2) 0.84310(3)
O1_4 O 0.0587(2) 0.5096(3) 0.9046(2)
O2_4 O 0.1674(3) 0.4982(3) 0.9135(2)
O6_4 O 0.0486(3) 0.6231(3) 0.9658(3)
H2_4 H 0.012(4) 0.595(5) 0.930(3)
N3_4 N 0.0974(3) 0.0237(3) 0.9208(3)
N4_4 N 0.2349(3) 0.0979(3) 0.9287(2)
H3_4 H 0.288(2) 0.149(2) 0.924(3)
N5_4 N 0.3024(3) 0.4717(4) 0.9084(3)
C1_4 C 0.2260(3) 0.3214(3) 0.9255(3)
C2_4 C 0.1501(3) 0.3167(3) 0.9275(3)
H4_4 H 0.1465 0.3637 0.9310
C3_4 C 0.0786(3) 0.2392(3) 0.9239(3)
C4_4 C 0.0829(3) 0.1702(3) 0.9217(3)
H5_4 H 0.0354 0.1200 0.9197
C5_4 C 0.1598(3) 0.1737(3) 0.9224(3)
C6_4 C 0.1635(3) 0.0988(3) 0.9234(3)
H9_4 H 0.3133 0.0065 0.9359
C12_4 C 0.2116(4) 0.0148(3) 0.9284(3)
C13_4 C 0.2293(3) 0.2492(3) 0.9235(3)
H10_4 H 0.2798 0.2524 0.9229
C14_4 C 0.3797(3) 0.5333(4) 0.9136(3)
C15_4 C 0.4259(3) 0.4973(4) 0.9322(3)
C16_4 C 0.5110(4) 0.5465(6) 0.9415(4)
H11_4 H 0.5426 0.5243 0.9543
C17_4 C 0.5440(4) 0.6271(6) 0.9308(5)
H12_4 H 0.6001 0.6593 0.9352
C18_4 C 0.5004(5) 0.6670(8) 0.9136(5)
H13_4 H 0.5265 0.7233 0.9097
C19_4 C 0.4153(5) 0.6178(7) 0.9023(5)
H14_4 H 0.378(5) 0.625(8) 0.882(5)
C20_4 C 0.0001(3) 0.2391(3) 0.9212(3)
C21_4 C 0.1299(4) 0.5339(3) 0.9273(3)
C22_4 C 0.1661(3) 0.6048(3) 0.9706(3)
C23_4 C 0.1242(3) 0.6458(3) 0.9886(3)
C24_4 C 0.2420(4) 0.6306(4) 0.9942(3)
H15_4 H 0.2694 0.6032 0.9832
C29_4 C 0.3021(3) 0.4003(4) 0.9264(3)
H21_4 H 0.255(6) 0.481(7) 0.905(8)
O7_4 O 0.1577(3) 0.5099(4) 0.7730(3)
O8_4 O 0.1601(2) 0.3968(3) 0.78403(19)
N1_4 N 0.9923(3) 0.3036(3) 0.9096(2)
N6_4 N 0.9279(3) 0.1687(4) 0.9312(3)
C30_4 C 0.8702(4) 0.1925(6) 0.9262(4)
C31_4 C 0.9083(4) 0.2768(6) 0.9154(3)
C32_4 C 0.8678(4) 0.3176(6) 0.9113(4)
H17_4 H 0.8951 0.3735 0.9048
C33_4 C 0.7850(5) 0.2743(7) 0.9170(5)
H18_4 H 0.7554 0.3008 0.9118
C34_4 C 0.7848(5) 0.1511(7) 0.9323(5)
H19_4 H 0.7555 0.0950 0.9378
C35_4 C 0.7461(5) 0.1958(9) 0.9299(6)
H20_4 H 0.6905 0.1698 0.9375
H22_4 H 0.918(9) 0.176(9) 0.977(2)
N7_4 N 0.9600(4) 0.3742(2) 0.7735(2)
N3_5 N 0.0737(4) 0.0974(3) 0.7541(3)
N4_5 N 0.1370(4) 0.2349(3) 0.7620(2)
H3_5 H 0.139(3) 0.288(2) 0.757(3)
C6_5 C 0.0647(4) 0.1635(3) 0.7567(3)
C7_2 C 0.1553(5) 0.1293(4) 0.7568(3)
C8_2 C 0.2028(7) 0.0891(6) 0.7569(4)
H6_2 H 0.1772 0.0328 0.7531
C9_2 C 0.2857(9) 0.1342(7) 0.7624(4)
H7_2 H 0.3167 0.1088 0.7628
C10_2 C 0.3224(7) 0.2175(6) 0.7674(4)
H8_2 H 0.3787 0.2476 0.7716
C11_2 C 0.2804(6) 0.2569(5) 0.7666(4)
H9_5 H 0.3068 0.3133 0.7692
C12_5 C 0.1968(5) 0.2116(4) 0.7617(3)
H10_5 H 0.0274 0.2798 0.7562
H11_5 H 0.0183 0.5426 0.7876
O1_5 O 0.5491(4) 0.0587(2) 0.7379(2)
O2_5 O 0.6692(4) 0.1674(3) 0.7468(2)
O5_5 O 0.6359(5) 0.3558(3) 0.8885(4)
H1_5 H 0.619(5) 0.382(3) 0.918(4)
O6_5 O 0.4255(4) 0.0486(3) 0.7991(3)
H2_5 H 0.417(6) 0.012(4) 0.763(3)
N5_5 N 0.8307(5) 0.3024(3) 0.7417(3)
C1_5 C 0.9046(4) 0.2260(3) 0.7588(3)
C2_5 C 0.8334(4) 0.1501(3) 0.7608(3)
H4_5 H 0.7828 0.1465 0.7643
C3_5 C 0.8394(4) 0.0786(3) 0.7572(3)
C4_5 C 0.9127(4) 0.0829(3) 0.7550(3)
H5_5 H 0.9154 0.0354 0.7530
C5_5 C 0.9861(4) 0.1598(3) 0.7557(3)
C13_5 C 0.9801(4) 0.2293(3) 0.7568(3)
C14_5 C 0.8464(5) 0.3797(3) 0.7469(3)
C15_5 C 0.9286(5) 0.4259(3) 0.7655(3)
C16_5 C 0.9645(7) 0.5110(4) 0.7748(4)
C17_5 C 0.9169(7) 0.5440(4) 0.7641(5)
H12_5 H 0.9408 0.6001 0.7685
C18_5 C 0.8334(9) 0.5004(5) 0.7469(5)
H13_5 H 0.8032 0.5265 0.7430
C19_5 C 0.7975(9) 0.4153(5) 0.7356(5)
H14_5 H 0.753(9) 0.378(5) 0.715(5)
C20_5 C 0.7610(4) 0.0001(3) 0.7545(3)
C21_5 C 0.5960(5) 0.1299(4) 0.7606(3)
C22_5 C 0.5613(4) 0.1661(3) 0.8039(3)
C23_5 C 0.4784(4) 0.1242(3) 0.8219(3)
C24_5 C 0.6114(6) 0.2420(4) 0.8275(3)
H15_5 H 0.6662 0.2694 0.8165
C25_5 C 0.5813(5) 0.2793(3) 0.8679(3)
C26_5 C 0.4669(4) 0.2779(3) 0.9278(3)
C27_5 C 0.5003(4) 0.2385(3) 0.8844(3)
C28_5 C 0.4501(4) 0.1616(3) 0.8626(3)
H16_5 H 0.3959 0.1338 0.8753
C29_5 C 0.9018(5) 0.3021(3) 0.7597(3)
H21_5 H 0.774(9) 0.255(6) 0.738(8)
N1_5 N 0.6887(4) 0.9923(3) 0.7429(2)
N6_5 N 0.7592(5) 0.9279(3) 0.7645(3)
C30_5 C 0.6777(7) 0.8702(4) 0.7595(4)
C31_5 C 0.6315(7) 0.9083(4) 0.7487(3)
C32_5 C 0.5502(7) 0.8678(4) 0.7446(4)
H17_5 H 0.5216 0.8951 0.7381
C33_5 C 0.5107(9) 0.7850(5) 0.7503(5)
H18_5 H 0.4546 0.7554 0.7451
C34_5 C 0.6337(9) 0.7848(5) 0.7656(5)
H19_5 H 0.6605 0.7555 0.7711
C35_5 C 0.5503(10) 0.7461(5) 0.7632(6)
H20_5 H 0.5207 0.6905 0.7708
H22_5 H 0.742(13) 0.918(9) 0.810(2)
N7_5 N 0.5858(4) 0.9600(4) 0.6069(2)
N3_6 N 0.9763(3) 0.0737(4) 0.5875(3)
N4_6 N 0.9021(3) 0.1370(4) 0.5954(2)
H3_6 H 0.851(2) 0.139(3) 0.591(3)
C6_6 C 0.9012(3) 0.0647(4) 0.5901(3)
H9_6 H 0.9935 0.3068 0.6026
C12_6 C 0.9852(3) 0.1968(5) 0.5951(3)
H10_6 H 0.7476 0.0274 0.5896
H11_6 H 0.4757 0.0183 0.6210
O1_6 O 0.4904(3) 0.5491(4) 0.5713(2)
O2_6 O 0.5018(3) 0.6692(4) 0.5802(2)
O5_6 O 0.2801(4) 0.6359(5) 0.7219(4)
H1_6 H 0.237(4) 0.619(5) 0.752(4)
O6_6 O 0.3769(3) 0.4255(4) 0.6325(3)
H2_6 H 0.405(5) 0.417(6) 0.597(3)
N1_6 N 0.6964(3) 0.6887(4) 0.5763(2)
N5_6 N 0.5283(4) 0.8307(5) 0.5751(3)
N6_6 N 0.8313(4) 0.7592(5) 0.5979(3)
C1_6 C 0.6786(3) 0.9046(4) 0.5922(3)
C2_6 C 0.6833(3) 0.8334(4) 0.5942(3)
H4_6 H 0.6363 0.7828 0.5977
C3_6 C 0.7608(3) 0.8394(4) 0.5906(3)
C4_6 C 0.8298(3) 0.9127(4) 0.5884(3)
H5_6 H 0.8800 0.9154 0.5864
C5_6 C 0.8263(3) 0.9861(4) 0.5891(3)
C13_6 C 0.7508(3) 0.9801(4) 0.5902(3)
C14_6 C 0.4667(4) 0.8464(5) 0.5803(3)
C15_6 C 0.5027(4) 0.9286(5) 0.5989(3)
C16_6 C 0.4535(6) 0.9645(7) 0.6082(4)
C17_6 C 0.3729(6) 0.9169(7) 0.5975(5)
H12_6 H 0.3407 0.9408 0.6019
C18_6 C 0.3330(8) 0.8334(9) 0.5803(5)
H13_6 H 0.2767 0.8032 0.5764
C19_6 C 0.3822(7) 0.7975(9) 0.5690(5)
H14_6 H 0.375(8) 0.753(9) 0.549(5)
C20_6 C 0.7609(3) 0.7610(4) 0.5879(3)
C21_6 C 0.4661(3) 0.5960(5) 0.5940(3)
C22_6 C 0.3952(3) 0.5613(4) 0.6373(3)
C23_6 C 0.3542(3) 0.4784(4) 0.6553(3)
C24_6 C 0.3694(4) 0.6114(6) 0.6609(3)
H15_6 H 0.3968 0.6662 0.6499
C25_6 C 0.3020(4) 0.5813(5) 0.7013(3)
C26_6 C 0.1890(3) 0.4669(4) 0.7612(3)
C27_6 C 0.2618(3) 0.5003(4) 0.7178(3)
C28_6 C 0.2885(3) 0.4501(4) 0.6960(3)
H16_6 H 0.2621 0.3959 0.7087
C29_6 C 0.5997(4) 0.9018(5) 0.5931(3)
C30_6 C 0.8075(6) 0.6777(7) 0.5929(4)
C31_6 C 0.7232(6) 0.6315(7) 0.5821(3)
C32_6 C 0.6824(6) 0.5502(7) 0.5780(4)
H17_6 H 0.6265 0.5216 0.5715
C33_6 C 0.7257(7) 0.5107(9) 0.5837(5)
H18_6 H 0.6992 0.4546 0.5785
C34_6 C 0.8489(7) 0.6337(9) 0.5990(5)
H19_6 H 0.9050 0.6605 0.6045
C35_6 C 0.8042(9) 0.5503(10) 0.5966(6)
H20_6 H 0.8302 0.5207 0.6042
H21_6 H 0.519(7) 0.774(9) 0.572(8)
H22_6 H 0.824(9) 0.742(13) 0.644(2)
C7_3 C 0.8707(4) 0.0260(3) 0.4235(3)
C8_3 C 0.9109(6) 0.1137(4) 0.4236(4)
H6_3 H 0.9672 0.1444 0.4198
C9_3 C 0.8658(7) 0.1515(5) 0.4291(4)
H7_3 H 0.8912 0.2079 0.4295
C10_3 C 0.7825(6) 0.1049(4) 0.4341(4)
H8_3 H 0.7524 0.1311 0.4383
C11_3 C 0.7431(5) 0.0235(4) 0.4333(4)
C7_4 C 0.9740(3) 0.8447(5) 0.0902(3)
C8_4 C 0.8863(4) 0.7972(7) 0.0903(4)
H6_4 H 0.8556 0.8228 0.0865
C9_4 C 0.8485(5) 0.7143(9) 0.0958(4)
H7_4 H 0.7921 0.6833 0.0962
C10_4 C 0.8951(4) 0.6776(7) 0.1008(4)
H8_4 H 0.8689 0.6213 0.1050
C11_4 C 0.9765(4) 0.7196(6) 0.1000(4)
C7_5 C 0.1293(4) 0.9740(3) 0.9235(3)
C8_5 C 0.0891(6) 0.8863(4) 0.9236(4)
H6_5 H 0.0328 0.8556 0.9198
C9_5 C 0.1342(7) 0.8485(5) 0.9291(4)
H7_5 H 0.1088 0.7921 0.9295
C10_5 C 0.2175(6) 0.8951(4) 0.9341(4)
H8_5 H 0.2476 0.8689 0.9383
C11_5 C 0.2569(5) 0.9765(4) 0.9333(4)
C7_6 C 0.0260(3) 0.1553(5) 0.5902(3)
C8_6 C 0.1137(4) 0.2028(7) 0.5903(4)
H6_6 H 0.1444 0.1772 0.5865
C9_6 C 0.1515(5) 0.2857(9) 0.5958(4)
H7_6 H 0.2079 0.3167 0.5962
C10_6 C 0.1049(4) 0.3224(7) 0.6008(4)
H8_6 H 0.1311 0.3787 0.6050
C11_6 C 0.0235(4) 0.2804(6) 0.6000(4)
loop_
_geom_bond_atom_site_label_1
_geom_bond_atom_site_label_2
_geom_bond_site_symmetry_1
_geom_bond_site_symmetry_2
C30 N6 1_555 1_555
C31 N1 1_555 1_555
C32 C31 1_555 1_555
H17 C32 1_555 1_555
C33 C32 1_555 1_555
H18 C33 1_555 1_555
C34 C30 1_555 1_555
H19 C34 1_555 1_555
C35 C33 1_555 1_555
H20 C35 1_555 1_555
H22 N6 1_555 1_555
C30 C31 1_555 1_555
C34 C35 1_555 1_555
Cd1 O1 1_555 1_555
O1 C21 1_555 1_555
O2 Cd1 1_555 1_555
O3 C26 1_555 1_555
O4 C26 1_555 1_555
O5 H1 1_555 1_555
O6 H2 1_555 1_555
N2 C15 1_555 1_555
N3 C6 1_555 1_555
N4 H3 1_555 1_555
N5 C14 1_555 1_555
C1 C2 1_555 1_555
C2 H4 1_555 1_555
C3 C2 1_555 1_555
C4 C3 1_555 1_555
H5 C4 1_555 1_555
C5 C4 1_555 1_555
C6 N4 1_555 1_555
C12 N4 1_555 1_555
C13 C1 1_555 1_555
H10 C13 1_555 1_555
C14 C15 1_555 1_555
C15 C16 1_555 1_555
C16 H11 1_555 1_555
C17 C16 1_555 1_555
H12 C17 1_555 1_555
C18 C17 1_555 1_555
H13 C18 1_555 1_555
C19 C14 1_555 1_555
H14 C19 1_555 1_555
C21 O2 1_555 1_555
C22 C21 1_555 1_555
C23 O6 1_555 1_555
C24 C22 1_555 1_555
H15 C24 1_555 1_555
C25 O5 1_555 1_555
C26 C27 1_555 1_555
C27 C25 1_555 1_555
C28 C23 1_555 1_555
H16 C28 1_555 1_555
C29 N2 1_555 1_555
H21 N5 1_555 1_555
Cd2 O3 1_555 1_555
Cd3 N2 1_555 1_555
O7 Cd1 1_555 1_555
O8 Cd1 1_555 1_555
O4 Cd2 1_555 1_555
N5 C29 1_555 1_555
C1 C29 1_555 1_555
C3 C20 1_555 1_555
C5 C6 1_555 1_555
C5 C13 1_555 1_555
C18 C19 1_555 1_555
C22 C23 1_555 1_555
C24 C25 1_555 1_555
C27 C28 1_555 1_555
C30_2 N6_2 1_555 1_555
C31_2 N1_2 1_555 1_555
C32_2 C31_2 1_555 1_555
H17_2 C32_2 1_555 1_555
C33_2 C32_2 1_555 1_555
H18_2 C33_2 1_555 1_555
C34_2 C30_2 1_555 1_555
H19_2 C34_2 1_555 1_555
C35_2 C33_2 1_555 1_555
H20_2 C35_2 1_555 1_555
H22_2 N6_2 1_555 1_555
C30_2 C31_2 1_555 1_555
C34_2 C35_2 1_555 1_555
Cd1_2 O1_2 1_555 1_555
O1_2 C21_2 1_555 1_555
O2_2 Cd1_2 1_555 1_555
O3_2 C26_2 1_555 1_555
O4_2 C26_2 1_555 1_555
O5_2 H1_2 1_555 1_555
O6_2 H2_2 1_555 1_555
N7 C15_2 1_555 1_555
N5_2 C14_2 1_555 1_555
C1_2 C2_2 1_555 1_555
C2_2 H4_2 1_555 1_555
C3_2 C2_2 1_555 1_555
C4_2 C3_2 1_555 1_555
H5_2 C4_2 1_555 1_555
C5_2 C4_2 1_555 1_555
C13_2 C1_2 1_555 1_555
C14_2 C15_2 1_555 1_555
C15_2 C16_2 1_555 1_555
C17_2 C16_2 1_555 1_555
H12_2 C17_2 1_555 1_555
C18_2 C17_2 1_555 1_555
H13_2 C18_2 1_555 1_555
C19_2 C14_2 1_555 1_555
H14_2 C19_2 1_555 1_555
C21_2 O2_2 1_555 1_555
C22_2 C21_2 1_555 1_555
C23_2 O6_2 1_555 1_555
C24_2 C22_2 1_555 1_555
H15_2 C24_2 1_555 1_555
C25_2 O5_2 1_555 1_555
C26_2 C27_2 1_555 1_555
C27_2 C25_2 1_555 1_555
C28_2 C23_2 1_555 1_555
H16_2 C28_2 1_555 1_555
C29_2 N7 1_555 1_555
H21_2 N5_2 1_555 1_555
Cd3 O3_2 1_555 1_555
O7_2 Cd1_2 1_555 1_555
O8_2 Cd1_2 1_555 1_555
O4_2 Cd3 1_555 1_555
N5_2 C29_2 1_555 1_555
C1_2 C29_2 1_555 1_555
C3_2 C20_2 1_555 1_555
C5_2 C13_2 1_555 1_555
C18_2 C19_2 1_555 1_555
C22_2 C23_2 1_555 1_555
C24_2 C25_2 1_555 1_555
C27_2 C28_2 1_555 1_555
N3_2 C6_2 1_555 1_555
N4_2 H3_2 1_555 1_555
C6_2 N4_2 1_555 1_555
C7 N3_2 1_555 1_555
C8 C7 1_555 1_555
H6 C8 1_555 1_555
C9 C8 1_555 1_555
H7 C9 1_555 1_555
C10 C9 1_555 1_555
H8 C10 1_555 1_555
C11 C10 1_555 1_555
H9_2 C11 1_555 1_555
C12_2 N4_2 1_555 1_555
C7 C12_2 1_555 1_555
C11 C12_2 1_555 1_555
Cd1_3 O1_3 1_555 1_555
O1_3 C21_3 1_555 1_555
O2_3 Cd1_3 1_555 1_555
O7 C26_3 1_555 1_555
O8 C26_3 1_555 1_555
O5_3 H1_3 1_555 1_555
O6_3 H2_3 1_555 1_555
N1_3 Cd1_3 1_555 1_555
N7_2 C15_3 1_555 1_555
N5_3 C14_3 1_555 1_555
N6_3 C20_3 1_555 1_555
C1_3 C2_3 1_555 1_555
C2_3 H4_3 1_555 1_555
C3_3 C2_3 1_555 1_555
C4_3 C3_3 1_555 1_555
H5_3 C4_3 1_555 1_555
C5_3 C4_3 1_555 1_555
C13_3 C1_3 1_555 1_555
C14_3 C15_3 1_555 1_555
C15_3 C16_3 1_555 1_555
C17_3 C16_3 1_555 1_555
H12_3 C17_3 1_555 1_555
C18_3 C17_3 1_555 1_555
H13_3 C18_3 1_555 1_555
C19_3 C14_3 1_555 1_555
H14_3 C19_3 1_555 1_555
C20_3 N1_3 1_555 1_555
C21_3 O2_3 1_555 1_555
C22_3 C21_3 1_555 1_555
C23_3 O6_3 1_555 1_555
C24_3 C22_3 1_555 1_555
H15_3 C24_3 1_555 1_555
C25_3 O5_3 1_555 1_555
C26_3 C27_3 1_555 1_555
C27_3 C25_3 1_555 1_555
C28_3 C23_3 1_555 1_555
H16_3 C28_3 1_555 1_555
C29_3 N7_2 1_555 1_555
C30_3 N6_3 1_555 1_555
C31_3 N1_3 1_555 1_555
C32_3 C31_3 1_555 1_555
H17_3 C32_3 1_555 1_555
C33_3 C32_3 1_555 1_555
H18_3 C33_3 1_555 1_555
C34_3 C30_3 1_555 1_555
H19_3 C34_3 1_555 1_555
C35_3 C33_3 1_555 1_555
H20_3 C35_3 1_555 1_555
H21_3 N5_3 1_555 1_555
H22_3 N6_3 1_555 1_555
N5_3 C29_3 1_555 1_555
C1_3 C29_3 1_555 1_555
C3_3 C20_3 1_555 1_555
C5_3 C13_3 1_555 1_555
C18_3 C19_3 1_555 1_555
C22_3 C23_3 1_555 1_555
C24_3 C25_3 1_555 1_555
C27_3 C28_3 1_555 1_555
C30_3 C31_3 1_555 1_555
C34_3 C35_3 1_555 1_555
N3_3 C6_3 1_555 1_555
N4_3 H3_3 1_555 1_555
C6_3 N4_3 1_555 1_555
C12_3 N4_3 1_555 1_555
O7_2 C26_4 1_555 1_555
O8_2 C26_4 1_555 1_555
O5_4 H1_4 1_555 1_555
C25_4 O5_4 1_555 1_555
C26_4 C27_4 1_555 1_555
C27_4 C25_4 1_555 1_555
H16_4 C28_4 1_555 1_555
C27_4 C28_4 1_555 1_555
Cd1_4 O1_4 1_555 1_555
O1_4 C21_4 1_555 1_555
O2_4 Cd1_4 1_555 1_555
O6_4 H2_4 1_555 1_555
N7_3 C15_4 1_555 1_555
N3_4 C6_4 1_555 1_555
N4_4 H3_4 1_555 1_555
N5_4 C14_4 1_555 1_555
C1_4 C2_4 1_555 1_555
C2_4 H4_4 1_555 1_555
C3_4 C2_4 1_555 1_555
C4_4 C3_4 1_555 1_555
H5_4 C4_4 1_555 1_555
C5_4 C4_4 1_555 1_555
C6_4 N4_4 1_555 1_555
C12_4 N4_4 1_555 1_555
C13_4 C1_4 1_555 1_555
H10_4 C13_4 1_555 1_555
C14_4 C15_4 1_555 1_555
C15_4 C16_4 1_555 1_555
C16_4 H11_4 1_555 1_555
C17_4 C16_4 1_555 1_555
H12_4 C17_4 1_555 1_555
C18_4 C17_4 1_555 1_555
H13_4 C18_4 1_555 1_555
C19_4 C14_4 1_555 1_555
H14_4 C19_4 1_555 1_555
C21_4 O2_4 1_555 1_555
C22_4 C21_4 1_555 1_555
C23_4 O6_4 1_555 1_555
C24_4 C22_4 1_555 1_555
H15_4 C24_4 1_555 1_555
C29_4 N7_3 1_555 1_555
H21_4 N5_4 1_555 1_555
O7_4 Cd1_4 1_555 1_555
O8_4 Cd1_4 1_555 1_555
N5_4 C29_4 1_555 1_555
C1_4 C29_4 1_555 1_555
C3_4 C20_4 1_555 1_555
C5_4 C6_4 1_555 1_555
C5_4 C13_4 1_555 1_555
C18_4 C19_4 1_555 1_555
C22_4 C23_4 1_555 1_555
C30_4 N6_4 1_555 1_555
C31_4 N1_4 1_555 1_555
C32_4 C31_4 1_555 1_555
H17_4 C32_4 1_555 1_555
C33_4 C32_4 1_555 1_555
H18_4 C33_4 1_555 1_555
C34_4 C30_4 1_555 1_555
H19_4 C34_4 1_555 1_555
C35_4 C33_4 1_555 1_555
H20_4 C35_4 1_555 1_555
H22_4 N6_4 1_555 1_555
C30_4 C31_4 1_555 1_555
C34_4 C35_4 1_555 1_555
N3_5 C6_5 1_555 1_555
N4_5 H3_5 1_555 1_555
C6_5 N4_5 1_555 1_555
C7_2 N3_5 1_555 1_555
C8_2 C7_2 1_555 1_555
H6_2 C8_2 1_555 1_555
C9_2 C8_2 1_555 1_555
H7_2 C9_2 1_555 1_555
C10_2 C9_2 1_555 1_555
H8_2 C10_2 1_555 1_555
C11_2 C10_2 1_555 1_555
H9_5 C11_2 1_555 1_555
C12_5 N4_5 1_555 1_555
C7_2 C12_5 1_555 1_555
C11_2 C12_5 1_555 1_555
Cd2 O1_5 1_555 1_555
O1_5 C21_5 1_555 1_555
O2_5 Cd2 1_555 1_555
O7_3 C26_5 1_555 1_555
O8_3 C26_5 1_555 1_555
O5_5 H1_5 1_555 1_555
O6_5 H2_5 1_555 1_555
N7_4 C15_5 1_555 1_555
N5_5 C14_5 1_555 1_555
C1_5 C2_5 1_555 1_555
C2_5 H4_5 1_555 1_555
C3_5 C2_5 1_555 1_555
C4_5 C3_5 1_555 1_555
H5_5 C4_5 1_555 1_555
C5_5 C4_5 1_555 1_555
C13_5 C1_5 1_555 1_555
C14_5 C15_5 1_555 1_555
C15_5 C16_5 1_555 1_555
C17_5 C16_5 1_555 1_555
H12_5 C17_5 1_555 1_555
C18_5 C17_5 1_555 1_555
H13_5 C18_5 1_555 1_555
C19_5 C14_5 1_555 1_555
H14_5 C19_5 1_555 1_555
C21_5 O2_5 1_555 1_555
C22_5 C21_5 1_555 1_555
C23_5 O6_5 1_555 1_555
C24_5 C22_5 1_555 1_555
H15_5 C24_5 1_555 1_555
C25_5 O5_5 1_555 1_555
C26_5 C27_5 1_555 1_555
C27_5 C25_5 1_555 1_555
C28_5 C23_5 1_555 1_555
H16_5 C28_5 1_555 1_555
C29_5 N7_4 1_555 1_555
H21_5 N5_5 1_555 1_555
N5_5 C29_5 1_555 1_555
C1_5 C29_5 1_555 1_555
C3_5 C20_5 1_555 1_555
C5_5 C13_5 1_555 1_555
C18_5 C19_5 1_555 1_555
C22_5 C23_5 1_555 1_555
C24_5 C25_5 1_555 1_555
C27_5 C28_5 1_555 1_555
C30_5 N6_5 1_555 1_555
C31_5 N1_5 1_555 1_555
C32_5 C31_5 1_555 1_555
H17_5 C32_5 1_555 1_555
C33_5 C32_5 1_555 1_555
H18_5 C33_5 1_555 1_555
C34_5 C30_5 1_555 1_555
H19_5 C34_5 1_555 1_555
C35_5 C33_5 1_555 1_555
H20_5 C35_5 1_555 1_555
H22_5 N6_5 1_555 1_555
C30_5 C31_5 1_555 1_555
C34_5 C35_5 1_555 1_555
N3_6 C6_6 1_555 1_555
N4_6 H3_6 1_555 1_555
C6_6 N4_6 1_555 1_555
C12_6 N4_6 1_555 1_555
Cd3 O1_6 1_555 1_555
O1_6 C21_6 1_555 1_555
O2_6 Cd3 1_555 1_555
O7_4 C26_6 1_555 1_555
O8_4 C26_6 1_555 1_555
O5_6 H1_6 1_555 1_555
O6_6 H2_6 1_555 1_555
N1_6 Cd3 1_555 1_555
N7_5 C15_6 1_555 1_555
N5_6 C14_6 1_555 1_555
N6_6 C20_6 1_555 1_555
C1_6 C2_6 1_555 1_555
C2_6 H4_6 1_555 1_555
C3_6 C2_6 1_555 1_555
C4_6 C3_6 1_555 1_555
H5_6 C4_6 1_555 1_555
C5_6 C4_6 1_555 1_555
C13_6 C1_6 1_555 1_555
C14_6 C15_6 1_555 1_555
C15_6 C16_6 1_555 1_555
C17_6 C16_6 1_555 1_555
H12_6 C17_6 1_555 1_555
C18_6 C17_6 1_555 1_555
H13_6 C18_6 1_555 1_555
C19_6 C14_6 1_555 1_555
H14_6 C19_6 1_555 1_555
C20_6 N1_6 1_555 1_555
C21_6 O2_6 1_555 1_555
C22_6 C21_6 1_555 1_555
C23_6 O6_6 1_555 1_555
C24_6 C22_6 1_555 1_555
H15_6 C24_6 1_555 1_555
C25_6 O5_6 1_555 1_555
C26_6 C27_6 1_555 1_555
C27_6 C25_6 1_555 1_555
C28_6 C23_6 1_555 1_555
H16_6 C28_6 1_555 1_555
C29_6 N7_5 1_555 1_555
C30_6 N6_6 1_555 1_555
C31_6 N1_6 1_555 1_555
C32_6 C31_6 1_555 1_555
H17_6 C32_6 1_555 1_555
C33_6 C32_6 1_555 1_555
H18_6 C33_6 1_555 1_555
C34_6 C30_6 1_555 1_555
H19_6 C34_6 1_555 1_555
C35_6 C33_6 1_555 1_555
H20_6 C35_6 1_555 1_555
H21_6 N5_6 1_555 1_555
H22_6 N6_6 1_555 1_555
N5_6 C29_6 1_555 1_555
C1_6 C29_6 1_555 1_555
C3_6 C20_6 1_555 1_555
C5_6 C13_6 1_555 1_555
C18_6 C19_6 1_555 1_555
C22_6 C23_6 1_555 1_555
C24_6 C25_6 1_555 1_555
C27_6 C28_6 1_555 1_555
C30_6 C31_6 1_555 1_555
C34_6 C35_6 1_555 1_555
C8_3 C7_3 1_555 1_555
H6_3 C8_3 1_555 1_555
C9_3 C8_3 1_555 1_555
H7_3 C9_3 1_555 1_555
C10_3 C9_3 1_555 1_555
H8_3 C10_3 1_555 1_555
C11_3 C10_3 1_555 1_555
C8_4 C7_4 1_555 1_555
H6_4 C8_4 1_555 1_555
C9_4 C8_4 1_555 1_555
H7_4 C9_4 1_555 1_555
C10_4 C9_4 1_555 1_555
H8_4 C10_4 1_555 1_555
C11_4 C10_4 1_555 1_555
C8_5 C7_5 1_555 1_555
H6_5 C8_5 1_555 1_555
C9_5 C8_5 1_555 1_555
H7_5 C9_5 1_555 1_555
C10_5 C9_5 1_555 1_555
H8_5 C10_5 1_555 1_555
C11_5 C10_5 1_555 1_555
C8_6 C7_6 1_555 1_555
H6_6 C8_6 1_555 1_555
C9_6 C8_6 1_555 1_555
H7_6 C9_6 1_555 1_555
C10_6 C9_6 1_555 1_555
H8_6 C10_6 1_555 1_555
C11_6 C10_6 1_555 1_555

#END
