
###############################################################################
#
# This file contains modified crystal structure data generated from the
# MOF subset of the Cambridge Structural Database (CSD) v543 
# hosted by the Cambridge Crystallographic Data Centre (CCDC).
#
# This work is licensed under the Creative Commons
# Attribution-NonCommercial-ShareAlike 4.0 International License.
# To view a copy of this license, visit
# http://creativecommons.org/licenses/by-nc-sa/4.0/
# or send a letter to
# Creative Commons, PO Box 1866, Mountain View, CA 94042, USA.
#
# CIF created using the CSD Python API on 29 September 2022
# The structure has been converted into the P1 space group
# The structure has a 3D framework
# The original CSD entry SIHCIY is in the monoclinic crystal system
# The framework has been calculated to contain at least 10.0% void space
# The void calculation uses a probe of radius 1.32A, grid spacing 0.4
#
###############################################################################

data_SIHCIY
_chemical_formula_moiety         '(C48 H32 Co2 N16)n'
_symmetry_cell_setting           triclinic
_symmetry_space_group_name_H-M   'P 1'
_symmetry_Int_Tables_number      1
_space_group_name_Hall           'P 1'
loop_
_symmetry_equiv_pos_site_id
_symmetry_equiv_pos_as_xyz
1 x,y,z
_cell_length_a                   24.6998(60)
_cell_length_b                   8.2115(23)
_cell_length_c                   7.0889(17)
_cell_angle_alpha                90
_cell_angle_beta                 90.237(41)
_cell_angle_gamma                90
_cell_volume                     1437.78
loop_
_atom_site_label
_atom_site_type_symbol
_atom_site_fract_x
_atom_site_fract_y
_atom_site_fract_z
_atom_site_U_iso_or_equiv
_atom_site_thermal_displace_type
C5 C 0.099(2) 0.27(1) 0.13(1) 0.0400 Uiso
N1 N 0.047(2) 0.33(1) 0.09(1) 0.0400 Uiso
Co1 Co -0.000 0.468(2) 0.250 0.0300 Uiso
H3 H 0.110146 0.213783 0.263767 0.0600 Uiso
C7 C 0.217(2) 0.15(1) 0.11(1) 0.0400 Uiso
C8 C 0.272(2) 0.15(1) 0.13(1) 0.0400 Uiso
C9 C 0.307(2) 0.24(1) 0.02(1) 0.0400 Uiso
C10 C 0.365(2) 0.21(1) 0.02(1) 0.0400 Uiso
C12 C 0.391(2) 0.13(1) 0.15(1) 0.0400 Uiso
N4 N 0.447(2) 0.11(1) 0.11(1) 0.0400 Uiso
H5 H 0.371838 0.082961 0.276895 0.0600 Uiso
H6 H 0.28947 0.073798 0.240264 0.0600 Uiso
H8 H 0.192039 0.067154 0.192259 0.0600 Uiso
N7 N 0.053(2) 0.61(1) 0.39(1) 0.0400 Uiso
C1 C 0.283(2) 0.35(1) 0.89(1) 0.0400 Uiso
C2 C 0.228(2) 0.35(1) 0.87(1) 0.0400 Uiso
C3 C 0.193(2) 0.26(1) 0.98(1) 0.0400 Uiso
C4 C 0.135(2) 0.29(1) 0.98(1) 0.0400 Uiso
C6 C 0.109(2) 0.37(1) 0.85(1) 0.0400 Uiso
N2 N 0.053(2) 0.39(1) 0.89(1) 0.0400 Uiso
H1 H 0.128162 0.417039 0.723105 0.0600 Uiso
H2 H 0.21053 0.426202 0.759736 0.0600 Uiso
H4 H 0.307961 0.432846 0.807741 0.0600 Uiso
C11 C 0.401(2) 0.23(1) 0.87(1) 0.0400 Uiso
N3 N 0.453(2) 0.17(1) 0.91(1) 0.0400 Uiso
H7 H 0.389854 0.286217 0.736233 0.0600 Uiso
Co2 Co 0.000 0.532(2) 0.750 0.0300 Uiso
Co3 Co 0.500 0.032(2) 0.750 0.0300 Uiso
Co4 Co 0.500 0.968(2) 0.250 0.0300 Uiso
Co1_2 Co 1.000 0.468(2) 0.250 0.0300 Uiso
N5 N 0.953(2) 0.33(1) 0.41(1) 0.0400 Uiso
N6 N 0.947(2) 0.61(1) 0.11(1) 0.0400 Uiso
Co2_2 Co 1.000 0.532(2) 0.750 0.0300 Uiso
C1_2 C 0.717(2) 0.35(1) 0.61(1) 0.0400 Uiso
C2_2 C 0.772(2) 0.35(1) 0.63(1) 0.0400 Uiso
C3_2 C 0.807(2) 0.26(1) 0.52(1) 0.0400 Uiso
C4_2 C 0.865(2) 0.29(1) 0.52(1) 0.0400 Uiso
C5_2 C 0.901(2) 0.27(1) 0.37(1) 0.0400 Uiso
C6_2 C 0.891(2) 0.37(1) 0.65(1) 0.0400 Uiso
N2_2 N 0.947(2) 0.39(1) 0.61(1) 0.0400 Uiso
H1_2 H 0.871838 0.417039 0.776895 0.0600 Uiso
H2_2 H 0.78947 0.426202 0.740264 0.0600 Uiso
H3_2 H 0.889854 0.213783 0.236233 0.0600 Uiso
H4_2 H 0.692039 0.432846 0.692259 0.0600 Uiso
C7_2 C 0.783(2) 0.15(1) 0.39(1) 0.0400 Uiso
C8_2 C 0.728(2) 0.15(1) 0.37(1) 0.0400 Uiso
C9_2 C 0.693(2) 0.24(1) 0.48(1) 0.0400 Uiso
C10_2 C 0.635(2) 0.21(1) 0.48(1) 0.0400 Uiso
C11_2 C 0.599(2) 0.23(1) 0.63(1) 0.0400 Uiso
C12_2 C 0.609(2) 0.13(1) 0.35(1) 0.0400 Uiso
N3_2 N 0.547(2) 0.17(1) 0.59(1) 0.0400 Uiso
N4_2 N 0.553(2) 0.11(1) 0.39(1) 0.0400 Uiso
H5_2 H 0.628162 0.082961 0.223105 0.0600 Uiso
H6_2 H 0.71053 0.073798 0.259736 0.0600 Uiso
H7_2 H 0.610146 0.286217 0.763767 0.0600 Uiso
H8_2 H 0.807961 0.067154 0.307741 0.0600 Uiso
C1_3 C 0.217(2) 0.85(1) 0.61(1) 0.0400 Uiso
C2_3 C 0.272(2) 0.85(1) 0.63(1) 0.0400 Uiso
C3_3 C 0.307(2) 0.76(1) 0.52(1) 0.0400 Uiso
C4_3 C 0.365(2) 0.79(1) 0.52(1) 0.0400 Uiso
C5_3 C 0.401(2) 0.77(1) 0.37(1) 0.0400 Uiso
C6_3 C 0.391(2) 0.87(1) 0.65(1) 0.0400 Uiso
N1_2 N 0.453(2) 0.83(1) 0.41(1) 0.0400 Uiso
N2_3 N 0.447(2) 0.89(1) 0.61(1) 0.0400 Uiso
H1_3 H 0.371838 0.917039 0.776895 0.0600 Uiso
H2_3 H 0.28947 0.926202 0.740264 0.0600 Uiso
H3_3 H 0.389854 0.713783 0.236233 0.0600 Uiso
H4_3 H 0.192039 0.932846 0.692259 0.0600 Uiso
C7_3 C 0.283(2) 0.65(1) 0.39(1) 0.0400 Uiso
C8_3 C 0.228(2) 0.65(1) 0.37(1) 0.0400 Uiso
C9_3 C 0.193(2) 0.74(1) 0.48(1) 0.0400 Uiso
C10_3 C 0.135(2) 0.71(1) 0.48(1) 0.0400 Uiso
C11_3 C 0.099(2) 0.73(1) 0.63(1) 0.0400 Uiso
C12_3 C 0.109(2) 0.63(1) 0.35(1) 0.0400 Uiso
N3_3 N 0.047(2) 0.67(1) 0.59(1) 0.0400 Uiso
H5_3 H 0.128162 0.582961 0.223105 0.0600 Uiso
H6_3 H 0.21053 0.573798 0.259736 0.0600 Uiso
H7_3 H 0.110146 0.786217 0.763767 0.0600 Uiso
H8_3 H 0.307961 0.567154 0.307741 0.0600 Uiso
N5_2 N 0.547(2) 0.83(1) 0.09(1) 0.0400 Uiso
C5_4 C 0.599(2) 0.77(1) 0.13(1) 0.0400 Uiso
H3_4 H 0.610146 0.713783 0.263767 0.0600 Uiso
C7_4 C 0.717(2) 0.65(1) 0.11(1) 0.0400 Uiso
C8_4 C 0.772(2) 0.65(1) 0.13(1) 0.0400 Uiso
C9_4 C 0.807(2) 0.74(1) 0.02(1) 0.0400 Uiso
C10_4 C 0.865(2) 0.71(1) 0.02(1) 0.0400 Uiso
C12_4 C 0.891(2) 0.63(1) 0.15(1) 0.0400 Uiso
H5_4 H 0.871838 0.582961 0.276895 0.0600 Uiso
H6_4 H 0.78947 0.573798 0.240264 0.0600 Uiso
H8_4 H 0.692039 0.567154 0.192259 0.0600 Uiso
C1_4 C 0.783(2) 0.85(1) 0.89(1) 0.0400 Uiso
C2_4 C 0.728(2) 0.85(1) 0.87(1) 0.0400 Uiso
C3_4 C 0.693(2) 0.76(1) 0.98(1) 0.0400 Uiso
C4_4 C 0.635(2) 0.79(1) 0.98(1) 0.0400 Uiso
C6_4 C 0.609(2) 0.87(1) 0.85(1) 0.0400 Uiso
N2_4 N 0.553(2) 0.89(1) 0.89(1) 0.0400 Uiso
H1_4 H 0.628162 0.917039 0.723105 0.0600 Uiso
H2_4 H 0.71053 0.926202 0.759736 0.0600 Uiso
H4_4 H 0.807961 0.932846 0.807741 0.0600 Uiso
C11_4 C 0.901(2) 0.73(1) 0.87(1) 0.0400 Uiso
N3_4 N 0.953(2) 0.67(1) 0.91(1) 0.0400 Uiso
H7_4 H 0.889854 0.786217 0.736233 0.0600 Uiso
loop_
_geom_bond_atom_site_label_1
_geom_bond_atom_site_label_2
_geom_bond_site_symmetry_1
_geom_bond_site_symmetry_2
C5 N1 1_555 1_555
Co1 N1 1_555 1_555
H3 C5 1_555 1_555
C8 C7 1_555 1_555
C10 C9 1_555 1_555
C12 C10 1_555 1_555
N4 C12 1_555 1_555
H5 C12 1_555 1_555
H6 C8 1_555 1_555
H8 C7 1_555 1_555
N7 Co1 1_555 1_555
C8 C9 1_555 1_555
C1 C2 1_555 1_555
C2 C3 1_555 1_555
C3 C4 1_555 1_555
C6 C4 1_555 1_555
N2 C6 1_555 1_555
H1 C6 1_555 1_555
H2 C2 1_555 1_555
H4 C1 1_555 1_555
N3 C11 1_555 1_555
H7 C11 1_555 1_555
Co2 N2 1_555 1_555
Co3 N3 1_555 1_555
N5 Co1_2 1_555 1_555
N6 Co1_2 1_555 1_555
C1_2 C2_2 1_555 1_555
C2_2 C3_2 1_555 1_555
C3_2 C4_2 1_555 1_555
C4_2 C5_2 1_555 1_555
C5_2 N5 1_555 1_555
C6_2 C4_2 1_555 1_555
N5 N2_2 1_555 1_555
N2_2 C6_2 1_555 1_555
H1_2 C6_2 1_555 1_555
H2_2 C2_2 1_555 1_555
H3_2 C5_2 1_555 1_555
H4_2 C1_2 1_555 1_555
C7_2 C3_2 1_555 1_555
C8_2 C7_2 1_555 1_555
C9_2 C1_2 1_555 1_555
C10_2 C9_2 1_555 1_555
C11_2 C10_2 1_555 1_555
C12_2 C10_2 1_555 1_555
N3_2 C11_2 1_555 1_555
N4_2 C12_2 1_555 1_555
H5_2 C12_2 1_555 1_555
H6_2 C8_2 1_555 1_555
H7_2 C11_2 1_555 1_555
H8_2 C7_2 1_555 1_555
Co2_2 N2_2 1_555 1_555
Co3 N3_2 1_555 1_555
C8_2 C9_2 1_555 1_555
N3_2 N4_2 1_555 1_555
C1_3 C2_3 1_555 1_555
C2_3 C3_3 1_555 1_555
C3_3 C4_3 1_555 1_555
C4_3 C5_3 1_555 1_555
C5_3 N1_2 1_555 1_555
C6_3 C4_3 1_555 1_555
N1_2 N2_3 1_555 1_555
N2_3 C6_3 1_555 1_555
Co4 N1_2 1_555 1_555
H1_3 C6_3 1_555 1_555
H2_3 C2_3 1_555 1_555
H3_3 C5_3 1_555 1_555
H4_3 C1_3 1_555 1_555
C7_3 C3_3 1_555 1_555
C8_3 C7_3 1_555 1_555
C9_3 C1_3 1_555 1_555
C10_3 C9_3 1_555 1_555
C11_3 C10_3 1_555 1_555
C12_3 C10_3 1_555 1_555
N3_3 C11_3 1_555 1_555
N7 C12_3 1_555 1_555
H5_3 C12_3 1_555 1_555
H6_3 C8_3 1_555 1_555
H7_3 C11_3 1_555 1_555
H8_3 C7_3 1_555 1_555
N5_2 Co4 1_555 1_555
Co2 N3_3 1_555 1_555
C8_3 C9_3 1_555 1_555
N3_3 N7 1_555 1_555
C5_4 N5_2 1_555 1_555
H3_4 C5_4 1_555 1_555
C8_4 C7_4 1_555 1_555
C10_4 C9_4 1_555 1_555
C12_4 C10_4 1_555 1_555
N6 C12_4 1_555 1_555
H5_4 C12_4 1_555 1_555
H6_4 C8_4 1_555 1_555
H8_4 C7_4 1_555 1_555
C8_4 C9_4 1_555 1_555
C1_4 C2_4 1_555 1_555
C2_4 C3_4 1_555 1_555
C3_4 C4_4 1_555 1_555
C6_4 C4_4 1_555 1_555
N2_4 C6_4 1_555 1_555
H1_4 C6_4 1_555 1_555
H2_4 C2_4 1_555 1_555
H4_4 C1_4 1_555 1_555
N3_4 C11_4 1_555 1_555
H7_4 C11_4 1_555 1_555
Co2_2 N3_4 1_555 1_555

#END
