
###############################################################################
#
# This file contains modified crystal structure data generated from the
# MOF subset of the Cambridge Structural Database (CSD) v543 
# hosted by the Cambridge Crystallographic Data Centre (CCDC).
#
# This work is licensed under the Creative Commons
# Attribution-NonCommercial-ShareAlike 4.0 International License.
# To view a copy of this license, visit
# http://creativecommons.org/licenses/by-nc-sa/4.0/
# or send a letter to
# Creative Commons, PO Box 1866, Mountain View, CA 94042, USA.
#
# CIF created using the CSD Python API on 29 September 2022
# The structure has been converted into the P1 space group
# The structure has a 3D framework
# The original CSD entry SIJCUM is in the monoclinic crystal system
# The framework has been calculated to contain at least 10.0% void space
# The void calculation uses a probe of radius 1.32A, grid spacing 0.4
# The framework is charged, counterions have been retained in the structure
#
###############################################################################

data_SIJCUM
_chemical_formula_moiety         '(C224 H96 Cd20 N16 O96 18-)n'
_symmetry_cell_setting           triclinic
_symmetry_space_group_name_H-M   'P 1'
_symmetry_Int_Tables_number      1
_space_group_name_Hall           'P 1'
loop_
_symmetry_equiv_pos_site_id
_symmetry_equiv_pos_as_xyz
1 x,y,z
_cell_length_a                   26.4534(15)
_cell_length_b                   24.3372(13)
_cell_length_c                   17.6488(8)
_cell_angle_alpha                90
_cell_angle_beta                 109.622(2)
_cell_angle_gamma                90
_cell_volume                     10702.5
loop_
_atom_site_label
_atom_site_type_symbol
_atom_site_fract_x
_atom_site_fract_y
_atom_site_fract_z
Cd3 Cd 0.500000 0.37214(4) 0.250000
C9 C 0.5054(4) 0.2503(4) 0.0554(5)
C10 C 0.5565(4) 0.2291(4) 0.0842(6)
H4 H 0.567460 0.202783 0.053101
C11 C 0.5927(4) 0.2458(4) 0.1590(6)
C12 C 0.5752(4) 0.2849(4) 0.2033(6)
H5 H 0.598907 0.295567 0.254688
C13 C 0.4914(3) 0.2899(4) 0.1042(5)
H6 H 0.456070 0.304483 0.085853
C14 C 0.6473(4) 0.2228(4) 0.1940(7)
C21 C 0.2709(4) 0.4642(4) 0.0231(6)
C22 C 0.3170(4) 0.4348(4) 0.0617(6)
H10 H 0.324831 0.403076 0.036381
C23 C 0.3525(4) 0.4504(4) 0.1371(6)
C24 C 0.3405(4) 0.4961(4) 0.1756(6)
H11 H 0.364138 0.506517 0.227282
C25 C 0.2949(4) 0.5262(4) 0.1394(6)
C26 C 0.2609(4) 0.5113(4) 0.0633(6)
H12 H 0.230140 0.533200 0.037630
C27 C 0.4036(4) 0.4176(4) 0.1735(6)
C28 C 0.2830(4) 0.5759(4) 0.1814(6)
N1 N 0.5257(3) 0.3080(3) 0.1752(5)
O5 O 0.6594(3) 0.1842(4) 0.1533(5)
O6 O 0.6775(3) 0.2363(3) 0.2619(5)
O7 O 0.4108(3) 0.3748(3) 0.1431(4)
O8 O 0.4361(3) 0.4367(3) 0.2374(5)
O9 O 0.2420(3) 0.6032(3) 0.1427(4)
O10 O 0.3105(3) 0.5867(3) 0.2508(4)
Cd6 Cd 0.24309(2) 0.66346(3) 0.24401(4)
Cd8 Cd 0.74309(2) 0.16346(3) 0.24401(4)
N5 N 0.4743(3) 0.3080(3) 0.3248(5)
O33 O 0.5892(3) 0.3748(3) 0.3569(4)
O34 O 0.5639(3) 0.4367(3) 0.2626(5)
Cd1 Cd 0.24309(2) 0.33654(3) 0.74401(4)
Cd2 Cd 0.000000 0.54193(4) 0.750000
C1 C 0.3299(4) 0.2771(4) 0.8280(6)
C2 C 0.3819(4) 0.2450(3) 0.8692(5)
C3 C 0.4162(3) 0.2605(4) 0.9416(5)
H1 H 0.406933 0.290592 0.968742
C4 C 0.4654(4) 0.2332(4) 0.9779(5)
C5 C 0.4772(4) 0.1907(4) 0.9360(6)
H2 H 0.510783 0.172522 0.957715
C6 C 0.4414(4) 0.1734(4) 0.8623(5)
C7 C 0.3947(4) 0.2025(4) 0.8289(6)
H3 H 0.371039 0.192832 0.776887
C8 C 0.4556(4) 0.1252(4) 0.8193(6)
C15 C 0.0914(4) 0.4815(4) 0.8068(6)
C16 C 0.1455(4) 0.4552(4) 0.8375(6)
C17 C 0.1806(4) 0.4693(4) 0.9147(6)
H7 H 0.168630 0.492880 0.948198
C18 C 0.2328(4) 0.4488(4) 0.9420(6)
C19 C 0.2464(4) 0.4135(4) 0.8930(6)
H8 H 0.282091 0.399716 0.910958
C20 C 0.1638(4) 0.4191(3) 0.7924(6)
H9 H 0.140941 0.409816 0.739731
N2 N 0.2134(3) 0.3965(3) 0.8208(4)
O1 O 0.3061(2) 0.2709(2) 0.7548(3)
O2 O 0.3122(3) 0.3079(3) 0.8721(4)
O3 O 0.4235(3) 0.1116(3) 0.7505(5)
O4 O 0.4986(3) 0.0997(3) 0.8513(5)
O11 O 0.0763(3) 0.5107(3) 0.8525(4)
O12 O 0.0626(2) 0.4728(3) 0.7357(4)
Cd10 Cd 0.500000 0.04193(4) 0.750000
O26 O 0.0765(3) 0.6116(3) 0.7495(5)
O28 O 0.0014(3) 0.5997(3) 0.6487(5)
O30 O 0.1594(3) 0.3158(4) 0.6533(5)
O32 O 0.1775(3) 0.2637(3) 0.7619(5)
O36 O 0.2420(3) 0.3968(3) 0.6427(4)
O38 O 0.3105(3) 0.4133(3) 0.7508(4)
Cd2_2 Cd 1.000000 0.54193(4) 0.750000
Cd4 Cd 0.75691(2) 0.33654(3) 0.75599(4)
C29 C 0.6701(4) 0.2771(4) 0.6720(6)
C30 C 0.6181(4) 0.2450(3) 0.6308(5)
C31 C 0.5838(3) 0.2605(4) 0.5584(5)
H13 H 0.593067 0.290592 0.531258
C32 C 0.5346(4) 0.2332(4) 0.5221(5)
C33 C 0.5228(4) 0.1907(4) 0.5640(6)
H14 H 0.489217 0.172522 0.542285
C34 C 0.5586(4) 0.1734(4) 0.6377(5)
C35 C 0.6053(4) 0.2025(4) 0.6711(6)
H15 H 0.628961 0.192832 0.723113
C36 C 0.5444(4) 0.1252(4) 0.6807(6)
C37 C 0.4946(4) 0.2503(4) 0.4446(5)
C38 C 0.4435(4) 0.2291(4) 0.4158(6)
H16 H 0.432540 0.202783 0.446899
C39 C 0.4073(4) 0.2458(4) 0.3410(6)
C40 C 0.4248(4) 0.2849(4) 0.2967(6)
H17 H 0.401093 0.295567 0.245312
C41 C 0.5086(3) 0.2899(4) 0.3958(5)
H18 H 0.543930 0.304483 0.414147
C42 C 0.3527(4) 0.2228(4) 0.3060(7)
C43 C 0.9086(4) 0.4815(4) 0.6932(6)
C44 C 0.8545(4) 0.4552(4) 0.6625(6)
C45 C 0.8194(4) 0.4693(4) 0.5853(6)
H19 H 0.831370 0.492880 0.551802
C46 C 0.7672(4) 0.4488(4) 0.5580(6)
C47 C 0.7536(4) 0.4135(4) 0.6070(6)
H20 H 0.717909 0.399716 0.589042
C48 C 0.8362(4) 0.4191(3) 0.7076(6)
H21 H 0.859059 0.409816 0.760269
C49 C 0.7291(4) 0.4642(4) 0.4769(6)
C50 C 0.6830(4) 0.4348(4) 0.4383(6)
H22 H 0.675169 0.403076 0.463619
C51 C 0.6475(4) 0.4504(4) 0.3629(6)
C52 C 0.6595(4) 0.4961(4) 0.3244(6)
H23 H 0.635862 0.506517 0.272718
C53 C 0.7051(4) 0.5262(4) 0.3606(6)
C54 C 0.7391(4) 0.5113(4) 0.4367(6)
H24 H 0.769860 0.533200 0.462370
C55 C 0.5964(4) 0.4176(4) 0.3265(6)
C56 C 0.7170(4) 0.5759(4) 0.3186(6)
N4 N 0.7866(3) 0.3965(3) 0.6792(4)
O13 O 0.6939(2) 0.2709(2) 0.7452(3)
O14 O 0.6878(3) 0.3079(3) 0.6279(4)
O15 O 0.5765(3) 0.1116(3) 0.7495(5)
O16 O 0.5014(3) 0.0997(3) 0.6487(5)
O17 O 0.3406(3) 0.1842(4) 0.3467(5)
O18 O 0.3225(3) 0.2363(3) 0.2381(5)
O21 O 0.7580(3) 0.6032(3) 0.3573(4)
O22 O 0.6895(3) 0.5867(3) 0.2492(4)
O23 O 0.9237(3) 0.5107(3) 0.6475(4)
O24 O 0.9374(2) 0.4728(3) 0.7643(4)
Cd5 Cd 0.75691(2) 0.66346(3) 0.25599(4)
Cd7 Cd 0.25691(2) 0.16346(3) 0.25599(4)
O25 O 0.9235(3) 0.6116(3) 0.7505(5)
O27 O 0.9986(3) 0.5997(3) 0.8513(5)
O29 O 0.8406(3) 0.3158(4) 0.8467(5)
O31 O 0.8225(3) 0.2637(3) 0.7381(5)
O35 O 0.7580(3) 0.3968(3) 0.8573(4)
O37 O 0.6895(3) 0.4133(3) 0.7492(4)
Cd3_2 Cd 0.000000 0.87214(4) 0.250000
C9_2 C 0.0054(4) 0.7503(4) 0.0554(5)
C10_2 C 0.0565(4) 0.7291(4) 0.0842(6)
H4_2 H 0.067460 0.702783 0.053101
C11_2 C 0.0927(4) 0.7458(4) 0.1590(6)
C12_2 C 0.0752(4) 0.7849(4) 0.2033(6)
H5_2 H 0.098907 0.795567 0.254688
C14_2 C 0.1473(4) 0.7228(4) 0.1940(7)
N1_2 N 0.0257(3) 0.8080(3) 0.1752(5)
O5_2 O 0.1594(3) 0.6842(4) 0.1533(5)
O6_2 O 0.1775(3) 0.7363(3) 0.2619(5)
O33_2 O 0.0892(3) 0.8748(3) 0.3569(4)
O34_2 O 0.0639(3) 0.9367(3) 0.2626(5)
H2_2 H 0.010783 0.672522 0.957715
H11_2 H 0.864138 0.006517 0.227282
C25_2 C 0.7949(4) 0.0262(4) 0.1394(6)
C26_2 C 0.7609(4) 0.0113(4) 0.0633(6)
H12_2 H 0.730140 0.033200 0.037630
C28_2 C 0.7830(4) 0.0759(4) 0.1814(6)
O9_2 O 0.7420(3) 0.1032(3) 0.1427(4)
O10_2 O 0.8105(3) 0.0867(3) 0.2508(4)
O11_2 O 0.5763(3) 0.0107(3) 0.8525(4)
H23_2 H 0.135862 0.006517 0.272718
C53_2 C 0.2051(4) 0.0262(4) 0.3606(6)
C54_2 C 0.2391(4) 0.0113(4) 0.4367(6)
H24_2 H 0.269860 0.033200 0.462370
C56_2 C 0.2170(4) 0.0759(4) 0.3186(6)
O21_2 O 0.2580(3) 0.1032(3) 0.3573(4)
O22_2 O 0.1895(3) 0.0867(3) 0.2492(4)
O23_2 O 0.4237(3) 0.0107(3) 0.6475(4)
Cd3_3 Cd 1.000000 0.87214(4) 0.250000
C13_2 C 0.9914(3) 0.7899(4) 0.1042(5)
H6_2 H 0.956070 0.804483 0.085853
C21_2 C 0.7709(4) 0.9642(4) 0.0231(6)
C22_2 C 0.8170(4) 0.9348(4) 0.0617(6)
H10_2 H 0.824831 0.903076 0.036381
C23_2 C 0.8525(4) 0.9504(4) 0.1371(6)
C24_2 C 0.8405(4) 0.9961(4) 0.1756(6)
C27_2 C 0.9036(4) 0.9176(4) 0.1735(6)
O7_2 O 0.9108(3) 0.8748(3) 0.1431(4)
O8_2 O 0.9361(3) 0.9367(3) 0.2374(5)
N5_2 N 0.9743(3) 0.8080(3) 0.3248(5)
Cd1_2 Cd 0.74309(2) 0.83654(3) 0.74401(4)
C1_2 C 0.8299(4) 0.7771(4) 0.8280(6)
C2_2 C 0.8819(4) 0.7450(3) 0.8692(5)
C3_2 C 0.9162(3) 0.7605(4) 0.9416(5)
H1_2 H 0.906933 0.790592 0.968742
C4_2 C 0.9654(4) 0.7332(4) 0.9779(5)
C5_2 C 0.9772(4) 0.6907(4) 0.9360(6)
C6_2 C 0.9414(4) 0.6734(4) 0.8623(5)
C7_2 C 0.8947(4) 0.7025(4) 0.8289(6)
H3_2 H 0.871039 0.692832 0.776887
C8_2 C 0.9556(4) 0.6252(4) 0.8193(6)
C15_2 C 0.5914(4) 0.9815(4) 0.8068(6)
C16_2 C 0.6455(4) 0.9552(4) 0.8375(6)
C17_2 C 0.6806(4) 0.9693(4) 0.9147(6)
H7_2 H 0.668630 0.992880 0.948198
C18_2 C 0.7328(4) 0.9488(4) 0.9420(6)
C19_2 C 0.7464(4) 0.9135(4) 0.8930(6)
H8_2 H 0.782091 0.899716 0.910958
C20_2 C 0.6638(4) 0.9191(3) 0.7924(6)
H9_2 H 0.640941 0.909816 0.739731
N2_2 N 0.7134(3) 0.8965(3) 0.8208(4)
O1_2 O 0.8061(2) 0.7709(2) 0.7548(3)
O2_2 O 0.8122(3) 0.8079(3) 0.8721(4)
O12_2 O 0.5626(2) 0.9728(3) 0.7357(4)
Cd4_2 Cd 0.25691(2) 0.83654(3) 0.75599(4)
C29_2 C 0.1701(4) 0.7771(4) 0.6720(6)
C30_2 C 0.1181(4) 0.7450(3) 0.6308(5)
C31_2 C 0.0838(3) 0.7605(4) 0.5584(5)
H13_2 H 0.093067 0.790592 0.531258
C32_2 C 0.0346(4) 0.7332(4) 0.5221(5)
C33_2 C 0.0228(4) 0.6907(4) 0.5640(6)
C34_2 C 0.0586(4) 0.6734(4) 0.6377(5)
C35_2 C 0.1053(4) 0.7025(4) 0.6711(6)
H15_2 H 0.128961 0.692832 0.723113
C36_2 C 0.0444(4) 0.6252(4) 0.6807(6)
C41_2 C 0.0086(3) 0.7899(4) 0.3958(5)
H18_2 H 0.043930 0.804483 0.414147
C43_2 C 0.4086(4) 0.9815(4) 0.6932(6)
C44_2 C 0.3545(4) 0.9552(4) 0.6625(6)
C45_2 C 0.3194(4) 0.9693(4) 0.5853(6)
H19_2 H 0.331370 0.992880 0.551802
C46_2 C 0.2672(4) 0.9488(4) 0.5580(6)
C47_2 C 0.2536(4) 0.9135(4) 0.6070(6)
H20_2 H 0.217909 0.899716 0.589042
C48_2 C 0.3362(4) 0.9191(3) 0.7076(6)
H21_2 H 0.359059 0.909816 0.760269
C49_2 C 0.2291(4) 0.9642(4) 0.4769(6)
C50_2 C 0.1830(4) 0.9348(4) 0.4383(6)
H22_2 H 0.175169 0.903076 0.463619
C51_2 C 0.1475(4) 0.9504(4) 0.3629(6)
C52_2 C 0.1595(4) 0.9961(4) 0.3244(6)
C55_2 C 0.0964(4) 0.9176(4) 0.3265(6)
N4_2 N 0.2866(3) 0.8965(3) 0.6792(4)
O13_2 O 0.1939(2) 0.7709(2) 0.7452(3)
O14_2 O 0.1878(3) 0.8079(3) 0.6279(4)
O24_2 O 0.4374(2) 0.9728(3) 0.7643(4)
O29_2 O 0.3406(3) 0.8158(4) 0.8467(5)
O30_2 O 0.6594(3) 0.8158(4) 0.6533(5)
O31_2 O 0.3225(3) 0.7637(3) 0.7381(5)
O32_2 O 0.6775(3) 0.7637(3) 0.7619(5)
O35_2 O 0.2580(3) 0.8968(3) 0.8573(4)
O36_2 O 0.7420(3) 0.8968(3) 0.6427(4)
O37_2 O 0.1895(3) 0.9133(3) 0.7492(4)
O38_2 O 0.8105(3) 0.9133(3) 0.7508(4)
H14_2 H 0.989217 0.672522 0.542285
C37_2 C 0.9946(4) 0.7503(4) 0.4446(5)
C38_2 C 0.9435(4) 0.7291(4) 0.4158(6)
H16_2 H 0.932540 0.702783 0.446899
C39_2 C 0.9073(4) 0.7458(4) 0.3410(6)
C40_2 C 0.9248(4) 0.7849(4) 0.2967(6)
H17_2 H 0.901093 0.795567 0.245312
C42_2 C 0.8527(4) 0.7228(4) 0.3060(7)
O17_2 O 0.8406(3) 0.6842(4) 0.3467(5)
O18_2 O 0.8225(3) 0.7363(3) 0.2381(5)
Cd2_3 Cd 0.000000 0.45807(4) 0.250000
C29_3 C 0.3299(4) 0.7229(4) 0.3280(6)
C30_3 C 0.3819(4) 0.7550(3) 0.3692(5)
C31_3 C 0.4162(3) 0.7395(4) 0.4416(5)
H13_3 H 0.406933 0.709408 0.468742
C32_3 C 0.4654(4) 0.7668(4) 0.4779(5)
C33_3 C 0.4772(4) 0.8093(4) 0.4360(6)
H14_3 H 0.510783 0.827478 0.457715
C34_3 C 0.4414(4) 0.8266(4) 0.3623(5)
C35_3 C 0.3947(4) 0.7975(4) 0.3289(6)
H15_3 H 0.371039 0.807168 0.276887
C36_3 C 0.4556(4) 0.8748(4) 0.3193(6)
C37_3 C 0.5054(4) 0.7497(4) 0.5554(5)
C38_3 C 0.5565(4) 0.7709(4) 0.5842(6)
H16_3 H 0.567460 0.797217 0.553101
C39_3 C 0.5927(4) 0.7542(4) 0.6590(6)
C40_3 C 0.5752(4) 0.7151(4) 0.7033(6)
H17_3 H 0.598907 0.704433 0.754688
C41_3 C 0.4914(3) 0.7101(4) 0.6042(5)
H18_3 H 0.456070 0.695517 0.585853
C42_3 C 0.6473(4) 0.7772(4) 0.6940(7)
C43_3 C 0.0914(4) 0.5185(4) 0.3068(6)
C44_3 C 0.1455(4) 0.5448(4) 0.3375(6)
C45_3 C 0.1806(4) 0.5307(4) 0.4147(6)
H19_3 H 0.168630 0.507120 0.448198
C46_3 C 0.2328(4) 0.5512(4) 0.4420(6)
C47_3 C 0.2464(4) 0.5865(4) 0.3930(6)
H20_3 H 0.282091 0.600284 0.410958
C48_3 C 0.1638(4) 0.5809(3) 0.2924(6)
H21_3 H 0.140941 0.590184 0.239731
C49_3 C 0.2709(4) 0.5358(4) 0.5231(6)
C50_3 C 0.3170(4) 0.5652(4) 0.5617(6)
H22_3 H 0.324831 0.596924 0.536381
C51_3 C 0.3525(4) 0.5496(4) 0.6371(6)
C52_3 C 0.3405(4) 0.5039(4) 0.6756(6)
H23_3 H 0.364138 0.493483 0.727282
C53_3 C 0.2949(4) 0.4738(4) 0.6394(6)
C54_3 C 0.2609(4) 0.4887(4) 0.5633(6)
H24_3 H 0.230140 0.466800 0.537630
C55_3 C 0.4036(4) 0.5824(4) 0.6735(6)
C56_3 C 0.2830(4) 0.4241(4) 0.6814(6)
N3 N 0.5257(3) 0.6920(3) 0.6752(5)
N4_3 N 0.2134(3) 0.6035(3) 0.3208(4)
O13_3 O 0.3061(2) 0.7291(2) 0.2548(3)
O14_3 O 0.3122(3) 0.6921(3) 0.3721(4)
O15_2 O 0.4235(3) 0.8884(3) 0.2505(5)
O16_2 O 0.4986(3) 0.9003(3) 0.3513(5)
O19 O 0.4108(3) 0.6252(3) 0.6431(4)
O20 O 0.4361(3) 0.5633(3) 0.7374(5)
O23_3 O 0.0763(3) 0.4893(3) 0.3525(4)
O24_3 O 0.0626(2) 0.5272(3) 0.2357(4)
Cd9 Cd 0.500000 0.95807(4) 0.250000
Cd11 Cd 0.500000 0.62786(4) 0.750000
O25_2 O 0.0765(3) 0.3884(3) 0.2495(5)
O27_2 O 0.0014(3) 0.4003(3) 0.1487(5)
Cd2_4 Cd 1.000000 0.45807(4) 0.250000
C1_3 C 0.6701(4) 0.7229(4) 0.1720(6)
C2_3 C 0.6181(4) 0.7550(3) 0.1308(5)
C3_3 C 0.5838(3) 0.7395(4) 0.0584(5)
H1_3 H 0.593067 0.709408 0.031258
C4_3 C 0.5346(4) 0.7668(4) 0.0221(5)
C5_3 C 0.5228(4) 0.8093(4) 0.0640(6)
H2_3 H 0.489217 0.827478 0.042285
C6_3 C 0.5586(4) 0.8266(4) 0.1377(5)
C7_3 C 0.6053(4) 0.7975(4) 0.1711(6)
H3_3 H 0.628961 0.807168 0.223113
C8_3 C 0.5444(4) 0.8748(4) 0.1807(6)
C15_3 C 0.9086(4) 0.5185(4) 0.1932(6)
C16_3 C 0.8545(4) 0.5448(4) 0.1625(6)
C17_3 C 0.8194(4) 0.5307(4) 0.0853(6)
H7_3 H 0.831370 0.507120 0.051802
C18_3 C 0.7672(4) 0.5512(4) 0.0580(6)
C19_3 C 0.7536(4) 0.5865(4) 0.1070(6)
H8_3 H 0.717909 0.600284 0.089042
C20_3 C 0.8362(4) 0.5809(3) 0.2076(6)
H9_3 H 0.859059 0.590184 0.260269
N2_3 N 0.7866(3) 0.6035(3) 0.1792(4)
O1_3 O 0.6939(2) 0.7291(2) 0.2452(3)
O2_3 O 0.6878(3) 0.6921(3) 0.1279(4)
O3_2 O 0.5765(3) 0.8884(3) 0.2495(5)
O4_2 O 0.5014(3) 0.9003(3) 0.1487(5)
O11_3 O 0.9237(3) 0.4893(3) 0.1475(4)
O12_3 O 0.9374(2) 0.5272(3) 0.2643(4)
O26_2 O 0.9235(3) 0.3884(3) 0.2505(5)
O28_2 O 0.9986(3) 0.4003(3) 0.3513(5)
C9_3 C 0.4946(4) 0.7497(4) 0.9446(5)
C10_3 C 0.4435(4) 0.7709(4) 0.9158(6)
H4_3 H 0.432540 0.797217 0.946899
C11_3 C 0.4073(4) 0.7542(4) 0.8410(6)
C12_3 C 0.4248(4) 0.7151(4) 0.7967(6)
H5_3 H 0.401093 0.704433 0.745312
C13_3 C 0.5086(3) 0.7101(4) 0.8958(5)
H6_3 H 0.543930 0.695517 0.914147
C14_3 C 0.3527(4) 0.7772(4) 0.8060(7)
C21_3 C 0.7291(4) 0.5358(4) 0.9769(6)
C22_3 C 0.6830(4) 0.5652(4) 0.9383(6)
H10_3 H 0.675169 0.596924 0.963619
C23_3 C 0.6475(4) 0.5496(4) 0.8629(6)
C24_3 C 0.6595(4) 0.5039(4) 0.8244(6)
H11_3 H 0.635862 0.493483 0.772718
C25_3 C 0.7051(4) 0.4738(4) 0.8606(6)
C26_3 C 0.7391(4) 0.4887(4) 0.9367(6)
H12_3 H 0.769860 0.466800 0.962370
C27_3 C 0.5964(4) 0.5824(4) 0.8265(6)
C28_3 C 0.7170(4) 0.4241(4) 0.8186(6)
N1_3 N 0.4743(3) 0.6920(3) 0.8248(5)
O7_3 O 0.5892(3) 0.6252(3) 0.8569(4)
O8_3 O 0.5639(3) 0.5633(3) 0.7626(5)
H14_4 H 0.010783 0.327478 0.457715
C37_4 C 0.0054(4) 0.2497(4) 0.5554(5)
C38_4 C 0.0565(4) 0.2709(4) 0.5842(6)
H16_4 H 0.067460 0.297217 0.553101
C39_4 C 0.0927(4) 0.2542(4) 0.6590(6)
C40_4 C 0.0752(4) 0.2151(4) 0.7033(6)
H17_4 H 0.098907 0.204433 0.754688
C42_4 C 0.1473(4) 0.2772(4) 0.6940(7)
N3_2 N 0.0257(3) 0.1920(3) 0.6752(5)
Cd11_2 Cd 0.000000 0.12786(4) 0.750000
C1_4 C 0.1701(4) 0.2229(4) 0.1720(6)
C2_4 C 0.1181(4) 0.2550(3) 0.1308(5)
C3_4 C 0.0838(3) 0.2395(4) 0.0584(5)
H1_4 H 0.093067 0.209408 0.031258
C4_4 C 0.0346(4) 0.2668(4) 0.0221(5)
C5_4 C 0.0228(4) 0.3093(4) 0.0640(6)
C6_4 C 0.0586(4) 0.3266(4) 0.1377(5)
C7_4 C 0.1053(4) 0.2975(4) 0.1711(6)
H3_4 H 0.128961 0.307168 0.223113
C8_4 C 0.0444(4) 0.3748(4) 0.1807(6)
C15_4 C 0.4086(4) 0.0185(4) 0.1932(6)
C16_4 C 0.3545(4) 0.0448(4) 0.1625(6)
C17_4 C 0.3194(4) 0.0307(4) 0.0853(6)
H7_4 H 0.331370 0.007120 0.051802
C18_4 C 0.2672(4) 0.0512(4) 0.0580(6)
C19_4 C 0.2536(4) 0.0865(4) 0.1070(6)
H8_4 H 0.217909 0.100284 0.089042
C20_4 C 0.3362(4) 0.0809(3) 0.2076(6)
H9_4 H 0.359059 0.090184 0.260269
N2_4 N 0.2866(3) 0.1035(3) 0.1792(4)
O1_4 O 0.1939(2) 0.2291(2) 0.2452(3)
O2_4 O 0.1878(3) 0.1921(3) 0.1279(4)
O12_4 O 0.4374(2) 0.0272(3) 0.2643(4)
C29_4 C 0.8299(4) 0.2229(4) 0.3280(6)
C30_4 C 0.8819(4) 0.2550(3) 0.3692(5)
C31_4 C 0.9162(3) 0.2395(4) 0.4416(5)
H13_4 H 0.906933 0.209408 0.468742
C32_4 C 0.9654(4) 0.2668(4) 0.4779(5)
C33_4 C 0.9772(4) 0.3093(4) 0.4360(6)
C34_4 C 0.9414(4) 0.3266(4) 0.3623(5)
C35_4 C 0.8947(4) 0.2975(4) 0.3289(6)
H15_4 H 0.871039 0.307168 0.276887
C36_4 C 0.9556(4) 0.3748(4) 0.3193(6)
C41_4 C 0.9914(3) 0.2101(4) 0.6042(5)
H18_4 H 0.956070 0.195517 0.585853
C43_4 C 0.5914(4) 0.0185(4) 0.3068(6)
C44_4 C 0.6455(4) 0.0448(4) 0.3375(6)
C45_4 C 0.6806(4) 0.0307(4) 0.4147(6)
H19_4 H 0.668630 0.007120 0.448198
C46_4 C 0.7328(4) 0.0512(4) 0.4420(6)
C47_4 C 0.7464(4) 0.0865(4) 0.3930(6)
H20_4 H 0.782091 0.100284 0.410958
C48_4 C 0.6638(4) 0.0809(3) 0.2924(6)
H21_4 H 0.640941 0.090184 0.239731
C49_4 C 0.7709(4) 0.0358(4) 0.5231(6)
C50_4 C 0.8170(4) 0.0652(4) 0.5617(6)
H22_4 H 0.824831 0.096924 0.536381
C51_4 C 0.8525(4) 0.0496(4) 0.6371(6)
C52_4 C 0.8405(4) 0.0039(4) 0.6756(6)
C55_4 C 0.9036(4) 0.0824(4) 0.6735(6)
N4_4 N 0.7134(3) 0.1035(3) 0.3208(4)
O13_4 O 0.8061(2) 0.2291(2) 0.2548(3)
O14_4 O 0.8122(3) 0.1921(3) 0.3721(4)
O19_2 O 0.9108(3) 0.1252(3) 0.6431(4)
O20_2 O 0.9361(3) 0.0633(3) 0.7374(5)
O24_4 O 0.5626(2) 0.0272(3) 0.2357(4)
Cd11_3 Cd 1.000000 0.12786(4) 0.750000
C13_4 C 0.0086(3) 0.2101(4) 0.8958(5)
H6_4 H 0.043930 0.195517 0.914147
C21_4 C 0.2291(4) 0.0358(4) 0.9769(6)
C22_4 C 0.1830(4) 0.0652(4) 0.9383(6)
H10_4 H 0.175169 0.096924 0.963619
C23_4 C 0.1475(4) 0.0496(4) 0.8629(6)
C24_4 C 0.1595(4) 0.0039(4) 0.8244(6)
C27_4 C 0.0964(4) 0.0824(4) 0.8265(6)
O7_4 O 0.0892(3) 0.1252(3) 0.8569(4)
O8_4 O 0.0639(3) 0.0633(3) 0.7626(5)
O11_4 O 0.4237(3) 0.9893(3) 0.1475(4)
H23_4 H 0.864138 0.993483 0.727282
C53_4 C 0.7949(4) 0.9738(4) 0.6394(6)
C54_4 C 0.7609(4) 0.9887(4) 0.5633(6)
H24_4 H 0.730140 0.966800 0.537630
C56_4 C 0.7830(4) 0.9241(4) 0.6814(6)
O23_4 O 0.5763(3) 0.9893(3) 0.3525(4)
H11_4 H 0.135862 0.993483 0.772718
C25_4 C 0.2051(4) 0.9738(4) 0.8606(6)
C26_4 C 0.2391(4) 0.9887(4) 0.9367(6)
H12_4 H 0.269860 0.966800 0.962370
C28_4 C 0.2170(4) 0.9241(4) 0.8186(6)
H2_4 H 0.989217 0.327478 0.042285
C9_4 C 0.9946(4) 0.2497(4) 0.9446(5)
C10_4 C 0.9435(4) 0.2709(4) 0.9158(6)
H4_4 H 0.932540 0.297217 0.946899
C11_4 C 0.9073(4) 0.2542(4) 0.8410(6)
C12_4 C 0.9248(4) 0.2151(4) 0.7967(6)
H5_4 H 0.901093 0.204433 0.745312
C14_4 C 0.8527(4) 0.2772(4) 0.8060(7)
N1_4 N 0.9743(3) 0.1920(3) 0.8248(5)
loop_
_geom_bond_atom_site_label_1
_geom_bond_atom_site_label_2
_geom_bond_site_symmetry_1
_geom_bond_site_symmetry_2
Cd3 N1 1_555 1_555
C10 C9 1_555 1_555
H4 C10 1_555 1_555
C11 C10 1_555 1_555
C12 C11 1_555 1_555
H5 C12 1_555 1_555
C13 C9 1_555 1_555
H6 C13 1_555 1_555
C14 C11 1_555 1_555
C22 C21 1_555 1_555
H10 C22 1_555 1_555
C23 C22 1_555 1_555
C24 C23 1_555 1_555
H11 C24 1_555 1_555
C25 C24 1_555 1_555
C26 C21 1_555 1_555
H12 C26 1_555 1_555
C27 C23 1_555 1_555
C28 C25 1_555 1_555
N1 C12 1_555 1_555
O5 C14 1_555 1_555
O6 C14 1_555 1_555
O7 Cd3 1_555 1_555
O8 Cd3 1_555 1_555
O9 C28 1_555 1_555
O10 C28 1_555 1_555
Cd6 O9 1_555 1_555
Cd8 O5 1_555 1_555
N5 Cd3 1_555 1_555
O33 Cd3 1_555 1_555
O34 Cd3 1_555 1_555
C13 N1 1_555 1_555
C25 C26 1_555 1_555
C27 O7 1_555 1_555
C27 O8 1_555 1_555
O6 Cd8 1_555 1_555
O10 Cd6 1_555 1_555
Cd1 N2 1_555 1_555
Cd2 O11 1_555 1_555
C1 C2 1_555 1_555
C2 C3 1_555 1_555
C3 H1 1_555 1_555
C4 C3 1_555 1_555
C5 C4 1_555 1_555
H2 C5 1_555 1_555
C6 C5 1_555 1_555
C7 C2 1_555 1_555
H3 C7 1_555 1_555
C8 C6 1_555 1_555
C15 C16 1_555 1_555
C16 C17 1_555 1_555
C17 H7 1_555 1_555
C18 C17 1_555 1_555
C19 C18 1_555 1_555
H8 C19 1_555 1_555
C20 C16 1_555 1_555
H9 C20 1_555 1_555
N2 C19 1_555 1_555
O1 Cd1 1_555 1_555
O2 Cd1 1_555 1_555
O3 C8 1_555 1_555
O4 C8 1_555 1_555
O11 C15 1_555 1_555
O12 Cd2 1_555 1_555
Cd10 O3 1_555 1_555
O26 Cd2 1_555 1_555
O28 Cd2 1_555 1_555
O30 Cd1 1_555 1_555
O32 Cd1 1_555 1_555
O36 Cd1 1_555 1_555
O38 Cd1 1_555 1_555
C1 O1 1_555 1_555
C1 O2 1_555 1_555
C6 C7 1_555 1_555
C15 O12 1_555 1_555
C20 N2 1_555 1_555
O4 Cd10 1_555 1_555
Cd4 N4 1_555 1_555
C29 C30 1_555 1_555
C30 C31 1_555 1_555
C31 H13 1_555 1_555
C32 C31 1_555 1_555
C33 C32 1_555 1_555
H14 C33 1_555 1_555
C34 C33 1_555 1_555
C35 C30 1_555 1_555
H15 C35 1_555 1_555
C36 C34 1_555 1_555
C37 C32 1_555 1_555
C38 C37 1_555 1_555
H16 C38 1_555 1_555
C39 C38 1_555 1_555
C40 C39 1_555 1_555
H17 C40 1_555 1_555
C41 C37 1_555 1_555
H18 C41 1_555 1_555
C42 C39 1_555 1_555
C43 C44 1_555 1_555
C44 C45 1_555 1_555
C45 H19 1_555 1_555
C46 C45 1_555 1_555
C47 C46 1_555 1_555
H20 C47 1_555 1_555
C48 C44 1_555 1_555
H21 C48 1_555 1_555
C49 C46 1_555 1_555
C50 C49 1_555 1_555
H22 C50 1_555 1_555
C51 C50 1_555 1_555
C52 C51 1_555 1_555
H23 C52 1_555 1_555
C53 C52 1_555 1_555
C54 C49 1_555 1_555
H24 C54 1_555 1_555
C55 C51 1_555 1_555
C56 C53 1_555 1_555
N5 C40 1_555 1_555
N4 C47 1_555 1_555
O13 Cd4 1_555 1_555
O14 Cd4 1_555 1_555
O15 C36 1_555 1_555
O16 C36 1_555 1_555
O17 C42 1_555 1_555
O18 C42 1_555 1_555
O33 C55 1_555 1_555
O34 C55 1_555 1_555
O21 C56 1_555 1_555
O22 C56 1_555 1_555
O23 Cd2_2 1_555 1_555
O24 Cd2_2 1_555 1_555
Cd5 O21 1_555 1_555
Cd7 O17 1_555 1_555
Cd10 O15 1_555 1_555
O25 Cd2_2 1_555 1_555
O27 Cd2_2 1_555 1_555
O29 Cd4 1_555 1_555
O31 Cd4 1_555 1_555
O35 Cd4 1_555 1_555
O37 Cd4 1_555 1_555
C29 O13 1_555 1_555
C29 O14 1_555 1_555
C34 C35 1_555 1_555
C41 N5 1_555 1_555
C43 O23 1_555 1_555
C43 O24 1_555 1_555
C48 N4 1_555 1_555
C53 C54 1_555 1_555
O16 Cd10 1_555 1_555
O18 Cd7 1_555 1_555
O22 Cd5 1_555 1_555
Cd3_2 N1_2 1_555 1_555
C10_2 C9_2 1_555 1_555
H4_2 C10_2 1_555 1_555
C11_2 C10_2 1_555 1_555
C12_2 C11_2 1_555 1_555
H5_2 C12_2 1_555 1_555
C14_2 C11_2 1_555 1_555
N1_2 C12_2 1_555 1_555
O5_2 C14_2 1_555 1_555
O6_2 C14_2 1_555 1_555
Cd6 O5_2 1_555 1_555
O33_2 Cd3_2 1_555 1_555
O34_2 Cd3_2 1_555 1_555
O6_2 Cd6 1_555 1_555
H12_2 C26_2 1_555 1_555
C28_2 C25_2 1_555 1_555
O9_2 C28_2 1_555 1_555
O10_2 C28_2 1_555 1_555
Cd8 O9_2 1_555 1_555
C25_2 C26_2 1_555 1_555
O10_2 Cd8 1_555 1_555
Cd10 O11_2 1_555 1_555
H24_2 C54_2 1_555 1_555
C56_2 C53_2 1_555 1_555
O21_2 C56_2 1_555 1_555
O22_2 C56_2 1_555 1_555
O23_2 Cd10 1_555 1_555
Cd7 O21_2 1_555 1_555
C53_2 C54_2 1_555 1_555
O22_2 Cd7 1_555 1_555
H6_2 C13_2 1_555 1_555
C22_2 C21_2 1_555 1_555
H10_2 C22_2 1_555 1_555
C23_2 C22_2 1_555 1_555
C24_2 C23_2 1_555 1_555
C27_2 C23_2 1_555 1_555
O7_2 Cd3_3 1_555 1_555
O8_2 Cd3_3 1_555 1_555
N5_2 Cd3_3 1_555 1_555
C27_2 O7_2 1_555 1_555
C27_2 O8_2 1_555 1_555
Cd1_2 N2_2 1_555 1_555
C1_2 C2_2 1_555 1_555
C2_2 C3_2 1_555 1_555
C3_2 H1_2 1_555 1_555
C4_2 C3_2 1_555 1_555
C5_2 C4_2 1_555 1_555
C6_2 C5_2 1_555 1_555
C7_2 C2_2 1_555 1_555
H3_2 C7_2 1_555 1_555
C8_2 C6_2 1_555 1_555
C15_2 C16_2 1_555 1_555
C16_2 C17_2 1_555 1_555
C17_2 H7_2 1_555 1_555
C18_2 C17_2 1_555 1_555
C19_2 C18_2 1_555 1_555
H8_2 C19_2 1_555 1_555
C20_2 C16_2 1_555 1_555
H9_2 C20_2 1_555 1_555
N2_2 C19_2 1_555 1_555
O1_2 Cd1_2 1_555 1_555
O2_2 Cd1_2 1_555 1_555
O25 C8_2 1_555 1_555
O27 C8_2 1_555 1_555
Cd4_2 N4_2 1_555 1_555
C29_2 C30_2 1_555 1_555
C30_2 C31_2 1_555 1_555
C31_2 H13_2 1_555 1_555
C32_2 C31_2 1_555 1_555
C33_2 C32_2 1_555 1_555
C34_2 C33_2 1_555 1_555
C35_2 C30_2 1_555 1_555
H15_2 C35_2 1_555 1_555
C36_2 C34_2 1_555 1_555
H18_2 C41_2 1_555 1_555
C43_2 C44_2 1_555 1_555
C44_2 C45_2 1_555 1_555
C45_2 H19_2 1_555 1_555
C46_2 C45_2 1_555 1_555
C47_2 C46_2 1_555 1_555
H20_2 C47_2 1_555 1_555
C48_2 C44_2 1_555 1_555
H21_2 C48_2 1_555 1_555
C49_2 C46_2 1_555 1_555
C50_2 C49_2 1_555 1_555
H22_2 C50_2 1_555 1_555
C51_2 C50_2 1_555 1_555
C52_2 C51_2 1_555 1_555
C55_2 C51_2 1_555 1_555
N4_2 C47_2 1_555 1_555
O13_2 Cd4_2 1_555 1_555
O14_2 Cd4_2 1_555 1_555
O26 C36_2 1_555 1_555
O28 C36_2 1_555 1_555
O33_2 C55_2 1_555 1_555
O34_2 C55_2 1_555 1_555
O29_2 Cd4_2 1_555 1_555
O30_2 Cd1_2 1_555 1_555
O31_2 Cd4_2 1_555 1_555
O32_2 Cd1_2 1_555 1_555
O35_2 Cd4_2 1_555 1_555
O36_2 Cd1_2 1_555 1_555
O37_2 Cd4_2 1_555 1_555
O38_2 Cd1_2 1_555 1_555
C1_2 O1_2 1_555 1_555
C1_2 O2_2 1_555 1_555
C6_2 C7_2 1_555 1_555
C15_2 O12_2 1_555 1_555
C20_2 N2_2 1_555 1_555
C29_2 O13_2 1_555 1_555
C29_2 O14_2 1_555 1_555
C34_2 C35_2 1_555 1_555
C43_2 O24_2 1_555 1_555
C48_2 N4_2 1_555 1_555
C38_2 C37_2 1_555 1_555
H16_2 C38_2 1_555 1_555
C39_2 C38_2 1_555 1_555
C40_2 C39_2 1_555 1_555
H17_2 C40_2 1_555 1_555
C42_2 C39_2 1_555 1_555
N5_2 C40_2 1_555 1_555
O17_2 C42_2 1_555 1_555
O18_2 C42_2 1_555 1_555
Cd5 O17_2 1_555 1_555
O18_2 Cd5 1_555 1_555
Cd6 N4_3 1_555 1_555
C29_3 C30_3 1_555 1_555
C30_3 C31_3 1_555 1_555
C31_3 H13_3 1_555 1_555
C32_3 C31_3 1_555 1_555
C33_3 C32_3 1_555 1_555
H14_3 C33_3 1_555 1_555
C34_3 C33_3 1_555 1_555
C35_3 C30_3 1_555 1_555
H15_3 C35_3 1_555 1_555
C36_3 C34_3 1_555 1_555
C37_3 C32_3 1_555 1_555
C38_3 C37_3 1_555 1_555
H16_3 C38_3 1_555 1_555
C39_3 C38_3 1_555 1_555
C40_3 C39_3 1_555 1_555
H17_3 C40_3 1_555 1_555
C41_3 C37_3 1_555 1_555
H18_3 C41_3 1_555 1_555
C42_3 C39_3 1_555 1_555
C43_3 C44_3 1_555 1_555
C44_3 C45_3 1_555 1_555
C45_3 H19_3 1_555 1_555
C46_3 C45_3 1_555 1_555
C47_3 C46_3 1_555 1_555
H20_3 C47_3 1_555 1_555
C48_3 C44_3 1_555 1_555
H21_3 C48_3 1_555 1_555
C49_3 C46_3 1_555 1_555
C50_3 C49_3 1_555 1_555
H22_3 C50_3 1_555 1_555
C51_3 C50_3 1_555 1_555
C52_3 C51_3 1_555 1_555
H23_3 C52_3 1_555 1_555
C53_3 C52_3 1_555 1_555
C54_3 C49_3 1_555 1_555
H24_3 C54_3 1_555 1_555
C55_3 C51_3 1_555 1_555
C56_3 C53_3 1_555 1_555
N3 C40_3 1_555 1_555
N4_3 C47_3 1_555 1_555
O13_3 Cd6 1_555 1_555
O14_3 Cd6 1_555 1_555
O15_2 C36_3 1_555 1_555
O16_2 C36_3 1_555 1_555
O30_2 C42_3 1_555 1_555
O32_2 C42_3 1_555 1_555
O19 C55_3 1_555 1_555
O20 C55_3 1_555 1_555
O36 C56_3 1_555 1_555
O38 C56_3 1_555 1_555
O23_3 Cd2_3 1_555 1_555
O24_3 Cd2_3 1_555 1_555
Cd9 O15_2 1_555 1_555
Cd11 N3 1_555 1_555
O25_2 Cd2_3 1_555 1_555
O27_2 Cd2_3 1_555 1_555
C29_3 O13_3 1_555 1_555
C29_3 O14_3 1_555 1_555
C34_3 C35_3 1_555 1_555
C41_3 N3 1_555 1_555
C43_3 O23_3 1_555 1_555
C43_3 O24_3 1_555 1_555
C48_3 N4_3 1_555 1_555
C53_3 C54_3 1_555 1_555
O16_2 Cd9 1_555 1_555
O19 Cd11 1_555 1_555
O20 Cd11 1_555 1_555
Cd5 N2_3 1_555 1_555
Cd2_4 O11_3 1_555 1_555
C1_3 C2_3 1_555 1_555
C2_3 C3_3 1_555 1_555
C3_3 H1_3 1_555 1_555
C4_3 C3_3 1_555 1_555
C5_3 C4_3 1_555 1_555
H2_3 C5_3 1_555 1_555
C6_3 C5_3 1_555 1_555
C7_3 C2_3 1_555 1_555
H3_3 C7_3 1_555 1_555
C8_3 C6_3 1_555 1_555
C15_3 C16_3 1_555 1_555
C16_3 C17_3 1_555 1_555
C17_3 H7_3 1_555 1_555
C18_3 C17_3 1_555 1_555
C19_3 C18_3 1_555 1_555
H8_3 C19_3 1_555 1_555
C20_3 C16_3 1_555 1_555
H9_3 C20_3 1_555 1_555
N2_3 C19_3 1_555 1_555
O1_3 Cd5 1_555 1_555
O2_3 Cd5 1_555 1_555
O3_2 C8_3 1_555 1_555
O4_2 C8_3 1_555 1_555
O11_3 C15_3 1_555 1_555
O12_3 Cd2_4 1_555 1_555
Cd9 O3_2 1_555 1_555
O26_2 Cd2_4 1_555 1_555
O28_2 Cd2_4 1_555 1_555
C1_3 O1_3 1_555 1_555
C1_3 O2_3 1_555 1_555
C6_3 C7_3 1_555 1_555
C15_3 O12_3 1_555 1_555
C20_3 N2_3 1_555 1_555
O4_2 Cd9 1_555 1_555
Cd11 N1_3 1_555 1_555
C10_3 C9_3 1_555 1_555
H4_3 C10_3 1_555 1_555
C11_3 C10_3 1_555 1_555
C12_3 C11_3 1_555 1_555
H5_3 C12_3 1_555 1_555
C13_3 C9_3 1_555 1_555
H6_3 C13_3 1_555 1_555
C14_3 C11_3 1_555 1_555
C22_3 C21_3 1_555 1_555
H10_3 C22_3 1_555 1_555
C23_3 C22_3 1_555 1_555
C24_3 C23_3 1_555 1_555
H11_3 C24_3 1_555 1_555
C25_3 C24_3 1_555 1_555
C26_3 C21_3 1_555 1_555
H12_3 C26_3 1_555 1_555
C27_3 C23_3 1_555 1_555
C28_3 C25_3 1_555 1_555
N1_3 C12_3 1_555 1_555
O29_2 C14_3 1_555 1_555
O31_2 C14_3 1_555 1_555
O7_3 Cd11 1_555 1_555
O8_3 Cd11 1_555 1_555
O35 C28_3 1_555 1_555
O37 C28_3 1_555 1_555
C13_3 N1_3 1_555 1_555
C25_3 C26_3 1_555 1_555
C27_3 O7_3 1_555 1_555
C27_3 O8_3 1_555 1_555
C38_4 C37_4 1_555 1_555
H16_4 C38_4 1_555 1_555
C39_4 C38_4 1_555 1_555
C40_4 C39_4 1_555 1_555
H17_4 C40_4 1_555 1_555
C42_4 C39_4 1_555 1_555
N3_2 C40_4 1_555 1_555
O30 C42_4 1_555 1_555
O32 C42_4 1_555 1_555
Cd11_2 N3_2 1_555 1_555
Cd7 N2_4 1_555 1_555
C1_4 C2_4 1_555 1_555
C2_4 C3_4 1_555 1_555
C3_4 H1_4 1_555 1_555
C4_4 C3_4 1_555 1_555
C5_4 C4_4 1_555 1_555
C6_4 C5_4 1_555 1_555
C7_4 C2_4 1_555 1_555
H3_4 C7_4 1_555 1_555
C8_4 C6_4 1_555 1_555
C15_4 C16_4 1_555 1_555
C16_4 C17_4 1_555 1_555
C17_4 H7_4 1_555 1_555
C18_4 C17_4 1_555 1_555
C19_4 C18_4 1_555 1_555
H8_4 C19_4 1_555 1_555
C20_4 C16_4 1_555 1_555
H9_4 C20_4 1_555 1_555
N2_4 C19_4 1_555 1_555
O1_4 Cd7 1_555 1_555
O2_4 Cd7 1_555 1_555
O25_2 C8_4 1_555 1_555
O27_2 C8_4 1_555 1_555
Cd8 N4_4 1_555 1_555
C29_4 C30_4 1_555 1_555
C30_4 C31_4 1_555 1_555
C31_4 H13_4 1_555 1_555
C32_4 C31_4 1_555 1_555
C33_4 C32_4 1_555 1_555
C34_4 C33_4 1_555 1_555
C35_4 C30_4 1_555 1_555
H15_4 C35_4 1_555 1_555
C36_4 C34_4 1_555 1_555
H18_4 C41_4 1_555 1_555
C43_4 C44_4 1_555 1_555
C44_4 C45_4 1_555 1_555
C45_4 H19_4 1_555 1_555
C46_4 C45_4 1_555 1_555
C47_4 C46_4 1_555 1_555
H20_4 C47_4 1_555 1_555
C48_4 C44_4 1_555 1_555
H21_4 C48_4 1_555 1_555
C49_4 C46_4 1_555 1_555
C50_4 C49_4 1_555 1_555
H22_4 C50_4 1_555 1_555
C51_4 C50_4 1_555 1_555
C52_4 C51_4 1_555 1_555
C55_4 C51_4 1_555 1_555
N4_4 C47_4 1_555 1_555
O13_4 Cd8 1_555 1_555
O14_4 Cd8 1_555 1_555
O26_2 C36_4 1_555 1_555
O28_2 C36_4 1_555 1_555
O19_2 C55_4 1_555 1_555
O20_2 C55_4 1_555 1_555
C1_4 O1_4 1_555 1_555
C1_4 O2_4 1_555 1_555
C6_4 C7_4 1_555 1_555
C15_4 O12_4 1_555 1_555
C20_4 N2_4 1_555 1_555
C29_4 O13_4 1_555 1_555
C29_4 O14_4 1_555 1_555
C34_4 C35_4 1_555 1_555
C43_4 O24_4 1_555 1_555
C48_4 N4_4 1_555 1_555
O19_2 Cd11_3 1_555 1_555
O20_2 Cd11_3 1_555 1_555
H6_4 C13_4 1_555 1_555
C22_4 C21_4 1_555 1_555
H10_4 C22_4 1_555 1_555
C23_4 C22_4 1_555 1_555
C24_4 C23_4 1_555 1_555
C27_4 C23_4 1_555 1_555
O7_4 Cd11_2 1_555 1_555
O8_4 Cd11_2 1_555 1_555
C27_4 O7_4 1_555 1_555
C27_4 O8_4 1_555 1_555
Cd9 O11_4 1_555 1_555
H24_4 C54_4 1_555 1_555
C56_4 C53_4 1_555 1_555
O36_2 C56_4 1_555 1_555
O38_2 C56_4 1_555 1_555
O23_4 Cd9 1_555 1_555
C53_4 C54_4 1_555 1_555
H12_4 C26_4 1_555 1_555
C28_4 C25_4 1_555 1_555
O35_2 C28_4 1_555 1_555
O37_2 C28_4 1_555 1_555
C25_4 C26_4 1_555 1_555
Cd11_3 N1_4 1_555 1_555
C10_4 C9_4 1_555 1_555
H4_4 C10_4 1_555 1_555
C11_4 C10_4 1_555 1_555
C12_4 C11_4 1_555 1_555
H5_4 C12_4 1_555 1_555
C14_4 C11_4 1_555 1_555
N1_4 C12_4 1_555 1_555
O29 C14_4 1_555 1_555
O31 C14_4 1_555 1_555

#END
