
###############################################################################
#
# This file contains modified crystal structure data generated from the
# MOF subset of the Cambridge Structural Database (CSD) v543 
# hosted by the Cambridge Crystallographic Data Centre (CCDC).
#
# This work is licensed under the Creative Commons
# Attribution-NonCommercial-ShareAlike 4.0 International License.
# To view a copy of this license, visit
# http://creativecommons.org/licenses/by-nc-sa/4.0/
# or send a letter to
# Creative Commons, PO Box 1866, Mountain View, CA 94042, USA.
#
# CIF created using the CSD Python API on 29 September 2022
# The structure has been converted into the P1 space group
# The structure has a 3D framework
# The original CSD entry SIJDUM is in the cubic crystal system
# The framework has been calculated to contain at least 10.0% void space
# The void calculation uses a probe of radius 1.32A, grid spacing 0.4
# The framework is charged, counterions have been retained in the structure
#
###############################################################################

data_SIJDUM
_chemical_formula_moiety         '(C4032 H1728 O1920 Zn384 128-)n'
_symmetry_cell_setting           triclinic
_symmetry_space_group_name_H-M   'P 1'
_symmetry_Int_Tables_number      1
_space_group_name_Hall           'P 1'
loop_
_symmetry_equiv_pos_site_id
_symmetry_equiv_pos_as_xyz
1 x,y,z
_cell_length_a                   62.779(7)
_cell_length_b                   62.779(7)
_cell_length_c                   62.779(7)
_cell_angle_alpha                90
_cell_angle_beta                 90
_cell_angle_gamma                90
_cell_volume                     247425
loop_
_atom_site_label
_atom_site_type_symbol
_atom_site_fract_x
_atom_site_fract_y
_atom_site_fract_z
Zn1 Zn 0.668532(9) 0.288606(8) 0.034656(11)
Zn2 Zn 0.630794(11) 0.326385(10) 0.045467(13)
O1 O 0.66141(5) 0.29754(4) 0.00645(6)
O2 O 0.63684(7) 0.32126(8) 0.01486(7)
C7 C 0.64787(8) 0.31183(9) 0.00162(12)
O7 O 0.61635(6) 0.30089(7) 0.05262(8)
O8 O 0.64438(8) 0.28042(6) 0.05235(7)
C10 C 0.61139(10) 0.26451(10) 0.05560(12)
C11 C 0.61977(12) 0.24471(11) 0.05148(12)
H4 H 0.6345 0.2430 0.0482
C12 C 0.60660(15) 0.22777(14) 0.05217(13)
H5 H 0.6118 0.2143 0.0476
C13 C 0.58613(16) 0.22929(13) 0.05914(14)
C14 C 0.57738(14) 0.24883(16) 0.06454(19)
H6 H 0.5629 0.2503 0.0686
C15 C 0.59076(14) 0.26566(14) 0.06361(17)
H7 H 0.5858 0.2790 0.0687
C16 C 0.62470(10) 0.28326(10) 0.05312(11)
C17 C 0.56944(15) 0.21067(16) 0.0578(2)
O9 O 0.69069(5) 0.26797(4) 0.04110(5)
O10 O 0.66956(5) 0.24880(5) 0.02016(6)
C18 C 0.5541(2) 0.20784(19) 0.07153(17)
H8 H 0.5532 0.2171 0.0835
C19 C 0.70253(5) 0.23375(5) 0.03216(5)
C20 C 0.70250(5) 0.21828(5) 0.01662(5)
H9 H 0.6917 0.2185 0.0060
C21 C 0.68637(6) 0.25179(7) 0.03047(7)
C23 C 0.55148(12) 0.13023(12) 0.00529(11)
H10 H 0.5482 0.1155 0.0070
C24 C 0.55217(13) 0.14340(15) 0.02223(14)
H11 H 0.5476 0.1382 0.0357
C25 C 0.55914(14) 0.16387(16) 0.02071(13)
C26 C 0.56454(19) 0.17262(14) 0.00117(16)
C29 C 0.5578(2) 0.18056(15) 0.03933(16)
C30 C 0.57153(17) 0.1959(2) 0.04216(19)
H14 H 0.5835 0.1968 0.0329
O13 O 0.44911(7) 0.19738(8) 0.11635(6)
O14 O 0.46958(6) 0.19765(7) 0.14438(8)
C31 C 0.48549(10) 0.19440(12) 0.11139(10)
C32 C 0.50529(11) 0.19852(12) 0.11977(12)
H15 H 0.5070 0.2018 0.1345
C33 C 0.52223(14) 0.19783(13) 0.10660(15)
H16 H 0.5357 0.2024 0.1118
C34 C 0.52071(13) 0.19086(14) 0.08613(16)
C35 C 0.50117(16) 0.18546(19) 0.07738(14)
H17 H 0.4997 0.1814 0.0629
C36 C 0.48434(14) 0.18639(17) 0.09076(14)
H18 H 0.4710 0.1813 0.0858
C37 C 0.46674(10) 0.19688(11) 0.12470(10)
C38 C 0.53933(16) 0.1922(2) 0.06944(15)
C39 C 0.54216(19) 0.17847(17) 0.0541(2)
H19 H 0.5329 0.1665 0.0532
O16 O 0.72984(6) 0.16956(5) 0.00120(5)
C40 C 0.71784(5) 0.20253(5) 0.01625(5)
C41 C 0.73338(5) 0.20250(5) 0.03172(5)
H20 H 0.7440 0.1917 0.0315
O17 O 0.76797(4) 0.20890(5) 0.05931(5)
O18 O 0.74880(5) 0.22984(6) 0.08044(5)
C43 C 0.73375(5) 0.21784(5) 0.04747(5)
C44 C 0.71828(5) 0.23338(5) 0.04750(5)
H21 H 0.7185 0.2440 0.0583
C45 C 0.75179(7) 0.21953(7) 0.06363(6)
Zn5 Zn 0.788606(8) 0.215344(11) 0.081468(9)
Zn6 Zn 0.826385(10) 0.204533(13) 0.119206(11)
O25 O 0.79754(4) 0.24355(6) 0.08859(5)
O26 O 0.82126(8) 0.23514(7) 0.11316(7)
O27 O 0.86104(7) 0.28947(8) 0.15109(6)
O28 O 0.85708(9) 0.32180(10) 0.14396(8)
O29 O 0.80736(6) 0.34314(7) 0.08647(5)
O30 O 0.79696(7) 0.31758(6) 0.06414(5)
C55 C 0.81840(7) 0.27158(9) 0.10443(7)
C56 C 0.83267(7) 0.27674(10) 0.12084(8)
H25 H 0.8384 0.2660 0.1299
C57 C 0.83794(9) 0.29750(11) 0.12334(8)
C58 C 0.82879(7) 0.31345(10) 0.11106(7)
H26 H 0.8320 0.3280 0.1136
C59 C 0.81435(7) 0.30754(9) 0.09442(6)
C60 C 0.81009(7) 0.28616(9) 0.09150(6)
H27 H 0.8011 0.2818 0.0801
C61 C 0.81183(9) 0.24838(12) 0.10213(8)
C62 C 0.85299(10) 0.30381(13) 0.14060(10)
C63 C 0.80557(8) 0.32393(10) 0.08031(7)
Zn8 Zn 0.461394(8) 0.215344(11) 0.168532(9)
Zn10 Zn 0.784656(11) 0.331468(9) 0.038606(8)
Zn14 Zn 0.880794(11) 0.295467(13) 0.173615(10)
Zn15 Zn 0.423615(10) 0.204533(13) 0.130794(11)
Zn18 Zn 0.795467(13) 0.369206(11) 0.076385(10)
O32 O 0.84891(6) 0.21053(8) 0.13896(7)
O33 O 0.61104(7) 0.34891(6) 0.03947(8)
O34 O 0.83647(5) 0.19264(6) 0.09314(7)
O35 O 0.65686(7) 0.33647(5) 0.05736(6)
O37 O 0.81414(5) 0.20304(7) 0.06758(6)
O38 O 0.68242(6) 0.31414(5) 0.04696(7)
O41 O 0.80089(7) 0.19738(8) 0.13365(6)
O43 O 0.78042(6) 0.19765(7) 0.10562(8)
O3 O 0.59891(6) 0.36104(7) 0.96053(8)
O4 O 0.60604(8) 0.35708(9) 0.92820(10)
O5 O 0.66353(5) 0.30736(6) 0.90686(7)
O6 O 0.68586(5) 0.29696(7) 0.93242(6)
C1 C 0.64557(7) 0.31840(7) 0.97842(9)
C2 C 0.62916(8) 0.33267(7) 0.97326(10)
H1 H 0.6201 0.3384 0.9840
C3 C 0.62666(8) 0.33794(9) 0.95250(11)
C4 C 0.63894(7) 0.32879(7) 0.93655(10)
H2 H 0.6364 0.3320 0.9220
C5 C 0.65558(6) 0.31435(7) 0.94246(9)
C6 C 0.65850(6) 0.31009(7) 0.96384(9)
H3 H 0.6699 0.3011 0.9682
C8 C 0.60940(10) 0.35299(10) 0.94619(13)
C9 C 0.66969(7) 0.30557(8) 0.92607(10)
O11 O 0.55262(8) 0.13365(6) 0.94911(7)
O12 O 0.55235(7) 0.10562(8) 0.96958(6)
C22 C 0.55560(12) 0.13861(10) 0.98549(10)
H12 H 0.5686 0.1871 0.9997
C27 C 0.56361(17) 0.15924(14) 0.98434(14)
H13 H 0.5687 0.1642 0.9710
C28 C 0.55312(11) 0.12530(10) 0.96674(10)
O15 O 0.70890(5) 0.19069(5) 0.98203(4)
C42 C 0.71953(7) 0.18637(6) 0.99821(7)
Zn3 Zn 0.715344(11) 0.168532(9) 0.961394(8)
Zn4 Zn 0.704533(13) 0.130794(11) 0.923615(10)
O19 O 0.74355(6) 0.16141(5) 0.95246(4)
O20 O 0.73514(7) 0.13684(7) 0.92874(8)
O21 O 0.78947(8) 0.09891(6) 0.88896(7)
O22 O 0.82180(10) 0.10604(8) 0.89292(9)
O23 O 0.84314(7) 0.16353(5) 0.94264(6)
O24 O 0.81758(6) 0.18586(5) 0.95304(7)
C46 C 0.77158(9) 0.14557(7) 0.93160(7)
C47 C 0.77674(10) 0.12916(8) 0.91733(7)
H22 H 0.7660 0.1201 0.9116
C48 C 0.79750(11) 0.12666(8) 0.91206(9)
C49 C 0.81345(10) 0.13894(7) 0.92121(7)
H23 H 0.8280 0.1364 0.9180
C50 C 0.80754(9) 0.15558(6) 0.93565(7)
C51 C 0.78616(9) 0.15850(6) 0.93991(7)
H24 H 0.7818 0.1699 0.9489
C52 C 0.74838(12) 0.14787(8) 0.93817(9)
C53 C 0.80381(13) 0.10940(10) 0.89701(10)
C54 C 0.82393(10) 0.16969(7) 0.94443(8)
Zn7 Zn 0.534656(11) 0.081468(9) 0.961394(8)
Zn9 Zn 0.831468(9) 0.211394(8) 0.965344(11)
Zn11 Zn 0.711394(8) 0.284656(11) 0.918532(9)
Zn12 Zn 0.545467(13) 0.119206(11) 0.923615(10)
Zn13 Zn 0.795467(13) 0.076385(10) 0.869206(11)
Zn16 Zn 0.576385(10) 0.380794(11) 0.954533(13)
Zn17 Zn 0.869206(11) 0.173615(10) 0.954533(13)
Zn19 Zn 0.673615(10) 0.295467(13) 0.880794(11)
O31 O 0.71053(8) 0.11104(7) 0.90109(6)
O36 O 0.69264(6) 0.15686(7) 0.91353(5)
O39 O 0.70304(7) 0.18242(6) 0.93586(5)
O40 O 0.69738(8) 0.11635(6) 0.94911(7)
O42 O 0.69765(7) 0.14438(8) 0.96958(6)
Zn1_2 Zn 0.581468(9) 0.461394(8) 0.534656(11)
Zn2_2 Zn 0.619206(11) 0.423615(10) 0.545467(13)
O1_2 O 0.58859(5) 0.45246(4) 0.50645(6)
O2_2 O 0.61316(7) 0.42874(8) 0.51486(7)
O3_2 O 0.65109(6) 0.38896(7) 0.46053(8)
O4_2 O 0.64396(8) 0.39292(9) 0.42820(10)
O5_2 O 0.58647(5) 0.44264(6) 0.40686(7)
O6_2 O 0.56414(5) 0.45304(7) 0.43242(6)
C1_2 C 0.60443(7) 0.43160(7) 0.47842(9)
C2_2 C 0.62084(8) 0.41733(7) 0.47326(10)
H1_2 H 0.6299 0.4116 0.4840
C3_2 C 0.62334(8) 0.41206(9) 0.45250(11)
C4_2 C 0.61106(7) 0.42121(7) 0.43655(10)
H2_2 H 0.6136 0.4180 0.4220
C5_2 C 0.59442(6) 0.43565(7) 0.44246(9)
C6_2 C 0.59150(6) 0.43991(7) 0.46384(9)
H3_2 H 0.5801 0.4489 0.4682
C7_2 C 0.60213(8) 0.43817(9) 0.50162(12)
C8_2 C 0.64060(10) 0.39701(10) 0.44619(13)
C9_2 C 0.58031(7) 0.44443(8) 0.42607(10)
O7_2 O 0.63365(6) 0.44911(7) 0.55262(8)
O8_2 O 0.60562(8) 0.46958(6) 0.55235(7)
C10_2 C 0.63861(10) 0.48549(10) 0.55560(12)
C11_2 C 0.63023(12) 0.50529(11) 0.55148(12)
H4_2 H 0.6155 0.5070 0.5482
C12_2 C 0.64340(15) 0.52223(14) 0.55217(13)
H5_2 H 0.6382 0.5357 0.5476
C13_2 C 0.66387(16) 0.52071(13) 0.55914(14)
C14_2 C 0.67262(14) 0.50117(16) 0.56454(19)
H6_2 H 0.6871 0.4997 0.5686
C15_2 C 0.65924(14) 0.48434(14) 0.56361(17)
H7_2 H 0.6642 0.4710 0.5687
C16_2 C 0.62530(10) 0.46674(10) 0.55312(11)
C17_2 C 0.68056(15) 0.53933(16) 0.5578(2)
O9_2 O 0.55931(5) 0.48203(4) 0.54110(5)
O10_2 O 0.58044(5) 0.50120(5) 0.52016(6)
C18_2 C 0.6959(2) 0.54216(19) 0.57153(17)
H8_2 H 0.6968 0.5329 0.5835
C19_2 C 0.54747(5) 0.51625(5) 0.53216(5)
C20_2 C 0.54750(5) 0.53172(5) 0.51662(5)
H9_2 H 0.5583 0.5315 0.5060
C21_2 C 0.56363(6) 0.49821(7) 0.53047(7)
O11_2 O 0.69738(8) 0.61635(6) 0.44911(7)
O12_2 O 0.69765(7) 0.64438(8) 0.46958(6)
C22_2 C 0.69440(12) 0.61139(10) 0.48549(10)
C23_2 C 0.69852(12) 0.61977(12) 0.50529(11)
H10_2 H 0.7018 0.6345 0.5070
C24_2 C 0.69783(13) 0.60660(15) 0.52223(14)
H11_2 H 0.7024 0.6118 0.5357
C25_2 C 0.69086(14) 0.58613(16) 0.52071(13)
C26_2 C 0.68546(19) 0.57738(14) 0.50117(16)
H12_2 H 0.6814 0.5629 0.4997
C27_2 C 0.68639(17) 0.59076(14) 0.48434(14)
H13_2 H 0.6813 0.5858 0.4710
C28_2 C 0.69688(11) 0.62470(10) 0.46674(10)
C29_2 C 0.6922(2) 0.56944(15) 0.53933(16)
C30_2 C 0.67847(17) 0.5541(2) 0.54216(19)
H14_2 H 0.6665 0.5532 0.5329
O13_2 O 0.80089(7) 0.55262(8) 0.61635(6)
O14_2 O 0.78042(6) 0.55235(7) 0.64438(8)
C31_2 C 0.76451(10) 0.55560(12) 0.61139(10)
C32_2 C 0.74471(11) 0.55148(12) 0.61977(12)
H15_2 H 0.7430 0.5482 0.6345
C33_2 C 0.72777(14) 0.55217(13) 0.60660(15)
H16_2 H 0.7143 0.5476 0.6118
C34_2 C 0.72929(13) 0.55914(14) 0.58613(16)
C35_2 C 0.74883(16) 0.56454(19) 0.57738(14)
H17_2 H 0.7503 0.5686 0.5629
C36_2 C 0.76566(14) 0.56361(17) 0.59076(14)
H18_2 H 0.7790 0.5687 0.5858
C37_2 C 0.78326(10) 0.55312(11) 0.62470(10)
C38_2 C 0.71067(16) 0.5578(2) 0.56944(15)
C39_2 C 0.70784(19) 0.57153(17) 0.5541(2)
H19_2 H 0.7171 0.5835 0.5532
O15_2 O 0.54110(5) 0.55931(5) 0.48203(4)
O16_2 O 0.52016(6) 0.58044(5) 0.50120(5)
C40_2 C 0.53216(5) 0.54747(5) 0.51625(5)
C41_2 C 0.51662(5) 0.54750(5) 0.53172(5)
H20_2 H 0.5060 0.5583 0.5315
C42_2 C 0.53047(7) 0.56363(6) 0.49821(7)
O17_2 O 0.48203(4) 0.54110(5) 0.55931(5)
O18_2 O 0.50120(5) 0.52016(6) 0.58044(5)
C43_2 C 0.51625(5) 0.53216(5) 0.54747(5)
C44_2 C 0.53172(5) 0.51662(5) 0.54750(5)
H21_2 H 0.5315 0.5060 0.5583
C45_2 C 0.49821(7) 0.53047(7) 0.56363(6)
Zn3_2 Zn 0.534656(11) 0.581468(9) 0.461394(8)
Zn4_2 Zn 0.545467(13) 0.619206(11) 0.423615(10)
O19_2 O 0.50645(6) 0.58859(5) 0.45246(4)
O20_2 O 0.51486(7) 0.61316(7) 0.42874(8)
O21_2 O 0.46053(8) 0.65109(6) 0.38896(7)
O22_2 O 0.42820(10) 0.64396(8) 0.39292(9)
O23_2 O 0.40686(7) 0.58647(5) 0.44264(6)
O24_2 O 0.43242(6) 0.56414(5) 0.45304(7)
C46_2 C 0.47842(9) 0.60443(7) 0.43160(7)
C47_2 C 0.47326(10) 0.62084(8) 0.41733(7)
H22_2 H 0.4840 0.6299 0.4116
C48_2 C 0.45250(11) 0.62334(8) 0.41206(9)
C49_2 C 0.43655(10) 0.61106(7) 0.42121(7)
H23_2 H 0.4220 0.6136 0.4180
C50_2 C 0.44246(9) 0.59442(6) 0.43565(7)
C51_2 C 0.46384(9) 0.59150(6) 0.43991(7)
H24_2 H 0.4682 0.5801 0.4489
C52_2 C 0.50162(12) 0.60213(8) 0.43817(9)
C53_2 C 0.44619(13) 0.64060(10) 0.39701(10)
C54_2 C 0.42607(10) 0.58031(7) 0.44443(8)
Zn5_2 Zn 0.461394(8) 0.534656(11) 0.581468(9)
Zn6_2 Zn 0.423615(10) 0.545467(13) 0.619206(11)
O25_2 O 0.45246(4) 0.50645(6) 0.58859(5)
O26_2 O 0.42874(8) 0.51486(7) 0.61316(7)
O27_2 O 0.38896(7) 0.46053(8) 0.65109(6)
O28_2 O 0.39292(9) 0.42820(10) 0.64396(8)
O29_2 O 0.44264(6) 0.40686(7) 0.58647(5)
O30_2 O 0.45304(7) 0.43242(6) 0.56414(5)
C55_2 C 0.43160(7) 0.47842(9) 0.60443(7)
C56_2 C 0.41733(7) 0.47326(10) 0.62084(8)
H25_2 H 0.4116 0.4840 0.6299
C57_2 C 0.41206(9) 0.45250(11) 0.62334(8)
C58_2 C 0.42121(7) 0.43655(10) 0.61106(7)
H26_2 H 0.4180 0.4220 0.6136
C59_2 C 0.43565(7) 0.44246(9) 0.59442(6)
C60_2 C 0.43991(7) 0.46384(9) 0.59150(6)
H27_2 H 0.4489 0.4682 0.5801
C61_2 C 0.43817(9) 0.50162(12) 0.60213(8)
C62_2 C 0.39701(10) 0.44619(13) 0.64060(10)
C63_2 C 0.44443(8) 0.42607(10) 0.58031(7)
Zn7_2 Zn 0.715344(11) 0.668532(9) 0.461394(8)
Zn8_2 Zn 0.788606(8) 0.534656(11) 0.668532(9)
Zn9_2 Zn 0.418532(9) 0.538606(8) 0.465344(11)
Zn10_2 Zn 0.465344(11) 0.418532(9) 0.538606(8)
Zn11_2 Zn 0.538606(8) 0.465344(11) 0.418532(9)
Zn12_2 Zn 0.704533(13) 0.630794(11) 0.423615(10)
Zn13_2 Zn 0.454533(13) 0.673615(10) 0.369206(11)
Zn14_2 Zn 0.369206(11) 0.454533(13) 0.673615(10)
Zn15_2 Zn 0.826385(10) 0.545467(13) 0.630794(11)
Zn16_2 Zn 0.673615(10) 0.369206(11) 0.454533(13)
Zn17_2 Zn 0.380794(11) 0.576385(10) 0.454533(13)
Zn18_2 Zn 0.454533(13) 0.380794(11) 0.576385(10)
Zn19_2 Zn 0.576385(10) 0.454533(13) 0.380794(11)
O31_2 O 0.53947(8) 0.63896(7) 0.40109(6)
O32_2 O 0.40109(6) 0.53947(8) 0.63896(7)
O33_2 O 0.63896(7) 0.40109(6) 0.53947(8)
O34_2 O 0.41353(5) 0.55736(6) 0.59314(7)
O35_2 O 0.59314(7) 0.41353(5) 0.55736(6)
O36_2 O 0.55736(6) 0.59314(7) 0.41353(5)
O37_2 O 0.43586(5) 0.54696(7) 0.56758(6)
O38_2 O 0.56758(6) 0.43586(5) 0.54696(7)
O39_2 O 0.54696(7) 0.56758(6) 0.43586(5)
O40_2 O 0.55262(8) 0.63365(6) 0.44911(7)
O41_2 O 0.44911(7) 0.55262(8) 0.63365(6)
O42_2 O 0.55235(7) 0.60562(8) 0.46958(6)
O43_2 O 0.46958(6) 0.55235(7) 0.60562(8)
Zn1_3 Zn 0.081468(9) 0.788606(8) 0.215344(11)
Zn2_3 Zn 0.119206(11) 0.826385(10) 0.204533(13)
O1_3 O 0.08859(5) 0.79754(4) 0.24355(6)
O2_3 O 0.11316(7) 0.82126(8) 0.23514(7)
O3_3 O 0.15109(6) 0.86104(7) 0.28947(8)
O4_3 O 0.14396(8) 0.85708(9) 0.32180(10)
O5_3 O 0.08647(5) 0.80736(6) 0.34314(7)
O6_3 O 0.06414(5) 0.79696(7) 0.31758(6)
C1_3 C 0.10443(7) 0.81840(7) 0.27158(9)
C2_3 C 0.12084(8) 0.83267(7) 0.27674(10)
H1_3 H 0.1299 0.8384 0.2660
C3_3 C 0.12334(8) 0.83794(9) 0.29750(11)
C4_3 C 0.11106(7) 0.82879(7) 0.31345(10)
H2_3 H 0.1136 0.8320 0.3280
C5_3 C 0.09442(6) 0.81435(7) 0.30754(9)
C6_3 C 0.09150(6) 0.81009(7) 0.28616(9)
H3_3 H 0.0801 0.8011 0.2818
C7_3 C 0.10213(8) 0.81183(9) 0.24838(12)
C8_3 C 0.14060(10) 0.85299(10) 0.30381(13)
C9_3 C 0.08031(7) 0.80557(8) 0.32393(10)
O7_3 O 0.13365(6) 0.80089(7) 0.19738(8)
O8_3 O 0.10562(8) 0.78042(6) 0.19765(7)
C10_3 C 0.13861(10) 0.76451(10) 0.19440(12)
C11_3 C 0.13023(12) 0.74471(11) 0.19852(12)
H4_3 H 0.1155 0.7430 0.2018
C12_3 C 0.14340(15) 0.72777(14) 0.19783(13)
H5_3 H 0.1382 0.7143 0.2024
C13_3 C 0.16387(16) 0.72929(13) 0.19086(14)
C14_3 C 0.17262(14) 0.74883(16) 0.18546(19)
H6_3 H 0.1871 0.7503 0.1814
C15_3 C 0.15924(14) 0.76566(14) 0.18639(17)
H7_3 H 0.1642 0.7790 0.1813
C16_3 C 0.12530(10) 0.78326(10) 0.19688(11)
C17_3 C 0.18056(15) 0.71067(16) 0.1922(2)
O9_3 O 0.05931(5) 0.76797(4) 0.20890(5)
O10_3 O 0.08044(5) 0.74880(5) 0.22984(6)
C18_3 C 0.1959(2) 0.70784(19) 0.17847(17)
H8_3 H 0.1968 0.7171 0.1665
C19_3 C 0.04747(5) 0.73375(5) 0.21784(5)
C20_3 C 0.04750(5) 0.71828(5) 0.23338(5)
H9_3 H 0.0583 0.7185 0.2440
C21_3 C 0.06363(6) 0.75179(7) 0.21953(7)
O11_3 O 0.19738(8) 0.63365(6) 0.30089(7)
O12_3 O 0.19765(7) 0.60562(8) 0.28042(6)
C22_3 C 0.19440(12) 0.63861(10) 0.26451(10)
C23_3 C 0.19852(12) 0.63023(12) 0.24471(11)
H10_3 H 0.2018 0.6155 0.2430
C24_3 C 0.19783(13) 0.64340(15) 0.22777(14)
H11_3 H 0.2024 0.6382 0.2143
C25_3 C 0.19086(14) 0.66387(16) 0.22929(13)
C26_3 C 0.18546(19) 0.67262(14) 0.24883(16)
H12_3 H 0.1814 0.6871 0.2503
C27_3 C 0.18639(17) 0.65924(14) 0.26566(14)
H13_3 H 0.1813 0.6642 0.2790
C28_3 C 0.19688(11) 0.62530(10) 0.28326(10)
C29_3 C 0.1922(2) 0.68056(15) 0.21067(16)
C30_3 C 0.17847(17) 0.6959(2) 0.20784(19)
H14_3 H 0.1665 0.6968 0.2171
O13_3 O 0.30089(7) 0.69738(8) 0.13365(6)
O14_3 O 0.28042(6) 0.69765(7) 0.10562(8)
C31_3 C 0.26451(10) 0.69440(12) 0.13861(10)
C32_3 C 0.24471(11) 0.69852(12) 0.13023(12)
H15_3 H 0.2430 0.7018 0.1155
C33_3 C 0.22777(14) 0.69783(13) 0.14340(15)
H16_3 H 0.2143 0.7024 0.1382
C34_3 C 0.22929(13) 0.69086(14) 0.16387(16)
C35_3 C 0.24883(16) 0.68546(19) 0.17262(14)
H17_3 H 0.2503 0.6814 0.1871
C36_3 C 0.26566(14) 0.68639(17) 0.15924(14)
H18_3 H 0.2790 0.6813 0.1642
C37_3 C 0.28326(10) 0.69688(11) 0.12530(10)
C38_3 C 0.21067(16) 0.6922(2) 0.18056(15)
C39_3 C 0.20784(19) 0.67847(17) 0.1959(2)
H19_3 H 0.2171 0.6665 0.1968
O15_3 O 0.04110(5) 0.69069(5) 0.26797(4)
O16_3 O 0.02016(6) 0.66956(5) 0.24880(5)
C40_3 C 0.03216(5) 0.70253(5) 0.23375(5)
C41_3 C 0.01662(5) 0.70250(5) 0.21828(5)
H20_3 H 0.0060 0.6917 0.2185
C42_3 C 0.03047(7) 0.68637(6) 0.25179(7)
O18_3 O 0.00120(5) 0.72984(6) 0.16956(5)
C43_3 C 0.01625(5) 0.71784(5) 0.20253(5)
C44_3 C 0.03172(5) 0.73338(5) 0.20250(5)
H21_3 H 0.0315 0.7440 0.1917
Zn3_3 Zn 0.034656(11) 0.668532(9) 0.288606(8)
Zn4_3 Zn 0.045467(13) 0.630794(11) 0.326385(10)
O19_3 O 0.00645(6) 0.66141(5) 0.29754(4)
O20_3 O 0.01486(7) 0.63684(7) 0.32126(8)
C52_3 C 0.00162(12) 0.64787(8) 0.31183(9)
Zn7_3 Zn 0.215344(11) 0.581468(9) 0.288606(8)
Zn8_3 Zn 0.288606(8) 0.715344(11) 0.081468(9)
Zn11_3 Zn 0.038606(8) 0.784656(11) 0.331468(9)
Zn12_3 Zn 0.204533(13) 0.619206(11) 0.326385(10)
Zn15_3 Zn 0.326385(10) 0.704533(13) 0.119206(11)
Zn16_3 Zn 0.173615(10) 0.880794(11) 0.295467(13)
Zn19_3 Zn 0.076385(10) 0.795467(13) 0.369206(11)
O31_3 O 0.03947(8) 0.61104(7) 0.34891(6)
O33_3 O 0.13896(7) 0.84891(6) 0.21053(8)
O35_3 O 0.09314(7) 0.83647(5) 0.19264(6)
O36_3 O 0.05736(6) 0.65686(7) 0.33647(5)
O38_3 O 0.06758(6) 0.81414(5) 0.20304(7)
O39_3 O 0.04696(7) 0.68242(6) 0.31414(5)
O40_3 O 0.05262(8) 0.61635(6) 0.30089(7)
O42_3 O 0.05235(7) 0.64438(8) 0.28042(6)
O17_3 O 0.98203(4) 0.70890(5) 0.19069(5)
C45_3 C 0.99821(7) 0.71953(7) 0.18637(6)
O21_3 O 0.96053(8) 0.59891(6) 0.36104(7)
O22_3 O 0.92820(10) 0.60604(8) 0.35708(9)
O23_3 O 0.90686(7) 0.66353(5) 0.30736(6)
O24_3 O 0.93242(6) 0.68586(5) 0.29696(7)
C46_3 C 0.97842(9) 0.64557(7) 0.31840(7)
C47_3 C 0.97326(10) 0.62916(8) 0.33267(7)
H22_3 H 0.9840 0.6201 0.3384
C48_3 C 0.95250(11) 0.62666(8) 0.33794(9)
C49_3 C 0.93655(10) 0.63894(7) 0.32879(7)
H23_3 H 0.9220 0.6364 0.3320
C50_3 C 0.94246(9) 0.65558(6) 0.31435(7)
C51_3 C 0.96384(9) 0.65850(6) 0.31009(7)
H24_3 H 0.9682 0.6699 0.3011
C53_3 C 0.94619(13) 0.60940(10) 0.35299(10)
C54_3 C 0.92607(10) 0.66969(7) 0.30557(8)
Zn5_3 Zn 0.961394(8) 0.715344(11) 0.168532(9)
Zn6_3 Zn 0.923615(10) 0.704533(13) 0.130794(11)
O25_3 O 0.95246(4) 0.74355(6) 0.16141(5)
O26_3 O 0.92874(8) 0.73514(7) 0.13684(7)
O27_3 O 0.88896(7) 0.78947(8) 0.09891(6)
O28_3 O 0.89292(9) 0.82180(10) 0.10604(8)
O29_3 O 0.94264(6) 0.84314(7) 0.16353(5)
O30_3 O 0.95304(7) 0.81758(6) 0.18586(5)
C55_3 C 0.93160(7) 0.77158(9) 0.14557(7)
C56_3 C 0.91733(7) 0.77674(10) 0.12916(8)
H25_3 H 0.9116 0.7660 0.1201
C57_3 C 0.91206(9) 0.79750(11) 0.12666(8)
C58_3 C 0.92121(7) 0.81345(10) 0.13894(7)
H26_3 H 0.9180 0.8280 0.1364
C59_3 C 0.93565(7) 0.80754(9) 0.15558(6)
C60_3 C 0.93991(7) 0.78616(9) 0.15850(6)
H27_3 H 0.9489 0.7818 0.1699
C61_3 C 0.93817(9) 0.74838(12) 0.14787(8)
C62_3 C 0.89701(10) 0.80381(13) 0.10940(10)
C63_3 C 0.94443(8) 0.82393(10) 0.16969(7)
Zn9_3 Zn 0.918532(9) 0.711394(8) 0.284656(11)
Zn10_3 Zn 0.965344(11) 0.831468(9) 0.211394(8)
Zn13_3 Zn 0.954533(13) 0.576385(10) 0.380794(11)
Zn14_3 Zn 0.869206(11) 0.795467(13) 0.076385(10)
Zn17_3 Zn 0.880794(11) 0.673615(10) 0.295467(13)
Zn18_3 Zn 0.954533(13) 0.869206(11) 0.173615(10)
O32_3 O 0.90109(6) 0.71053(8) 0.11104(7)
O34_3 O 0.91353(5) 0.69264(6) 0.15686(7)
O37_3 O 0.93586(5) 0.70304(7) 0.18242(6)
O41_3 O 0.94911(7) 0.69738(8) 0.11635(6)
O43_3 O 0.96958(6) 0.69765(7) 0.14438(8)
C11_4 C 0.11977(12) 0.00529(11) 0.69852(12)
H4_4 H 0.1345 0.0070 0.7018
C12_4 C 0.10660(15) 0.02223(14) 0.69783(13)
H5_4 H 0.1118 0.0357 0.7024
C13_4 C 0.08613(16) 0.02071(13) 0.69086(14)
C14_4 C 0.07738(14) 0.00117(16) 0.68546(19)
C17_4 C 0.06944(15) 0.03933(16) 0.6922(2)
O10_4 O 0.16956(5) 0.00120(5) 0.72984(6)
C18_4 C 0.0541(2) 0.04216(19) 0.67847(17)
H8_4 H 0.0532 0.0329 0.6665
C19_4 C 0.20253(5) 0.01625(5) 0.71784(5)
C20_4 C 0.20250(5) 0.03172(5) 0.73338(5)
H9_4 H 0.1917 0.0315 0.7440
O11_4 O 0.05262(8) 0.11635(6) 0.80089(7)
O12_4 O 0.05235(7) 0.14438(8) 0.78042(6)
C22_4 C 0.05560(12) 0.11139(10) 0.76451(10)
C23_4 C 0.05148(12) 0.11977(12) 0.74471(11)
H10_4 H 0.0482 0.1345 0.7430
C24_4 C 0.05217(13) 0.10660(15) 0.72777(14)
H11_4 H 0.0476 0.1118 0.7143
C25_4 C 0.05914(14) 0.08613(16) 0.72929(13)
C26_4 C 0.06454(19) 0.07738(14) 0.74883(16)
H12_4 H 0.0686 0.0629 0.7503
C27_4 C 0.06361(17) 0.09076(14) 0.76566(14)
H13_4 H 0.0687 0.0858 0.7790
C28_4 C 0.05312(11) 0.12470(10) 0.78326(10)
C29_4 C 0.0578(2) 0.06944(15) 0.71067(16)
C30_4 C 0.07153(17) 0.0541(2) 0.70784(19)
H14_4 H 0.0835 0.0532 0.7171
C32_4 C 0.00529(11) 0.05148(12) 0.63023(12)
H15_4 H 0.0070 0.0482 0.6155
C33_4 C 0.02223(14) 0.05217(13) 0.64340(15)
H16_4 H 0.0357 0.0476 0.6382
C34_4 C 0.02071(13) 0.05914(14) 0.66387(16)
C35_4 C 0.00117(16) 0.06454(19) 0.67262(14)
C38_4 C 0.03933(16) 0.0578(2) 0.68056(15)
C39_4 C 0.04216(19) 0.07153(17) 0.6959(2)
H19_4 H 0.0329 0.0835 0.6968
O15_4 O 0.20890(5) 0.05931(5) 0.76797(4)
O16_4 O 0.22984(6) 0.08044(5) 0.74880(5)
C40_4 C 0.21784(5) 0.04747(5) 0.73375(5)
C41_4 C 0.23338(5) 0.04750(5) 0.71828(5)
H20_4 H 0.2440 0.0583 0.7185
C42_4 C 0.21953(7) 0.06363(6) 0.75179(7)
O17_4 O 0.26797(4) 0.04110(5) 0.69069(5)
O18_4 O 0.24880(5) 0.02016(6) 0.66956(5)
C43_4 C 0.23375(5) 0.03216(5) 0.70253(5)
C44_4 C 0.21828(5) 0.01662(5) 0.70250(5)
H21_4 H 0.2185 0.0060 0.6917
C45_4 C 0.25179(7) 0.03047(7) 0.68637(6)
Zn3_4 Zn 0.215344(11) 0.081468(9) 0.788606(8)
Zn4_4 Zn 0.204533(13) 0.119206(11) 0.826385(10)
O19_4 O 0.24355(6) 0.08859(5) 0.79754(4)
O20_4 O 0.23514(7) 0.11316(7) 0.82126(8)
O21_4 O 0.28947(8) 0.15109(6) 0.86104(7)
O22_4 O 0.32180(10) 0.14396(8) 0.85708(9)
O23_4 O 0.34314(7) 0.08647(5) 0.80736(6)
O24_4 O 0.31758(6) 0.06414(5) 0.79696(7)
C46_4 C 0.27158(9) 0.10443(7) 0.81840(7)
C47_4 C 0.27674(10) 0.12084(8) 0.83267(7)
H22_4 H 0.2660 0.1299 0.8384
C48_4 C 0.29750(11) 0.12334(8) 0.83794(9)
C49_4 C 0.31345(10) 0.11106(7) 0.82879(7)
H23_4 H 0.3280 0.1136 0.8320
C50_4 C 0.30754(9) 0.09442(6) 0.81435(7)
C51_4 C 0.28616(9) 0.09150(6) 0.81009(7)
H24_4 H 0.2818 0.0801 0.8011
C52_4 C 0.24838(12) 0.10213(8) 0.81183(9)
C53_4 C 0.30381(13) 0.14060(10) 0.85299(10)
C54_4 C 0.32393(10) 0.08031(7) 0.80557(8)
Zn5_4 Zn 0.288606(8) 0.034656(11) 0.668532(9)
Zn6_4 Zn 0.326385(10) 0.045467(13) 0.630794(11)
O25_4 O 0.29754(4) 0.00645(6) 0.66141(5)
O26_4 O 0.32126(8) 0.01486(7) 0.63684(7)
C61_4 C 0.31183(9) 0.00162(12) 0.64787(8)
Zn7_4 Zn 0.034656(11) 0.168532(9) 0.788606(8)
Zn9_4 Zn 0.331468(9) 0.038606(8) 0.784656(11)
Zn12_4 Zn 0.045467(13) 0.130794(11) 0.826385(10)
Zn13_4 Zn 0.295467(13) 0.173615(10) 0.880794(11)
Zn17_4 Zn 0.369206(11) 0.076385(10) 0.795467(13)
O31_4 O 0.21053(8) 0.13896(7) 0.84891(6)
O32_4 O 0.34891(6) 0.03947(8) 0.61104(7)
O34_4 O 0.33647(5) 0.05736(6) 0.65686(7)
O36_4 O 0.19264(6) 0.09314(7) 0.83647(5)
O37_4 O 0.31414(5) 0.04696(7) 0.68242(6)
O39_4 O 0.20304(7) 0.06758(6) 0.81414(5)
O40_4 O 0.19738(8) 0.13365(6) 0.80089(7)
O41_4 O 0.30089(7) 0.05262(8) 0.61635(6)
O42_4 O 0.19765(7) 0.10562(8) 0.78042(6)
O43_4 O 0.28042(6) 0.05235(7) 0.64438(8)
Zn1_4 Zn 0.168532(9) 0.961394(8) 0.715344(11)
Zn2_4 Zn 0.130794(11) 0.923615(10) 0.704533(13)
O1_4 O 0.16141(5) 0.95246(4) 0.74355(6)
O2_4 O 0.13684(7) 0.92874(8) 0.73514(7)
O3_4 O 0.09891(6) 0.88896(7) 0.78947(8)
O4_4 O 0.10604(8) 0.89292(9) 0.82180(10)
O5_4 O 0.16353(5) 0.94264(6) 0.84314(7)
O6_4 O 0.18586(5) 0.95304(7) 0.81758(6)
C1_4 C 0.14557(7) 0.93160(7) 0.77158(9)
C2_4 C 0.12916(8) 0.91733(7) 0.77674(10)
H1_4 H 0.1201 0.9116 0.7660
C3_4 C 0.12666(8) 0.91206(9) 0.79750(11)
C4_4 C 0.13894(7) 0.92121(7) 0.81345(10)
H2_4 H 0.1364 0.9180 0.8280
C5_4 C 0.15558(6) 0.93565(7) 0.80754(9)
C6_4 C 0.15850(6) 0.93991(7) 0.78616(9)
H3_4 H 0.1699 0.9489 0.7818
C7_4 C 0.14787(8) 0.93817(9) 0.74838(12)
C8_4 C 0.10940(10) 0.89701(10) 0.80381(13)
C9_4 C 0.16969(7) 0.94443(8) 0.82393(10)
O7_4 O 0.11635(6) 0.94911(7) 0.69738(8)
O8_4 O 0.14438(8) 0.96958(6) 0.69765(7)
C10_4 C 0.11139(10) 0.98549(10) 0.69440(12)
H6_4 H 0.0629 0.9997 0.6814
C15_4 C 0.09076(14) 0.98434(14) 0.68639(17)
H7_4 H 0.0858 0.9710 0.6813
C16_4 C 0.12470(10) 0.96674(10) 0.69688(11)
O9_4 O 0.19069(5) 0.98203(4) 0.70890(5)
C21_4 C 0.18637(6) 0.99821(7) 0.71953(7)
O27_4 O 0.36104(7) 0.96053(8) 0.59891(6)
O28_4 O 0.35708(9) 0.92820(10) 0.60604(8)
O29_4 O 0.30736(6) 0.90686(7) 0.66353(5)
O30_4 O 0.29696(7) 0.93242(6) 0.68586(5)
C55_4 C 0.31840(7) 0.97842(9) 0.64557(7)
C56_4 C 0.33267(7) 0.97326(10) 0.62916(8)
H25_4 H 0.3384 0.9840 0.6201
C57_4 C 0.33794(9) 0.95250(11) 0.62666(8)
C58_4 C 0.32879(7) 0.93655(10) 0.63894(7)
H26_4 H 0.3320 0.9220 0.6364
C59_4 C 0.31435(7) 0.94246(9) 0.65558(6)
C60_4 C 0.31009(7) 0.96384(9) 0.65850(6)
H27_4 H 0.3011 0.9682 0.6699
C62_4 C 0.35299(10) 0.94619(13) 0.60940(10)
C63_4 C 0.30557(8) 0.92607(10) 0.66969(7)
Zn10_4 Zn 0.284656(11) 0.918532(9) 0.711394(8)
Zn11_4 Zn 0.211394(8) 0.965344(11) 0.831468(9)
Zn14_4 Zn 0.380794(11) 0.954533(13) 0.576385(10)
Zn16_4 Zn 0.076385(10) 0.869206(11) 0.795467(13)
Zn18_4 Zn 0.295467(13) 0.880794(11) 0.673615(10)
Zn19_4 Zn 0.173615(10) 0.954533(13) 0.869206(11)
O33_4 O 0.11104(7) 0.90109(6) 0.71053(8)
O35_4 O 0.15686(7) 0.91353(5) 0.69264(6)
O38_4 O 0.18242(6) 0.93586(5) 0.70304(7)
O13_4 O 0.94911(7) 0.05262(8) 0.63365(6)
O14_4 O 0.96958(6) 0.05235(7) 0.60562(8)
C31_4 C 0.98549(10) 0.05560(12) 0.63861(10)
H17_4 H 0.9997 0.0686 0.6871
C36_4 C 0.98434(14) 0.06361(17) 0.65924(14)
H18_4 H 0.9710 0.0687 0.6642
C37_4 C 0.96674(10) 0.05312(11) 0.62530(10)
Zn8_4 Zn 0.961394(8) 0.034656(11) 0.581468(9)
Zn15_4 Zn 0.923615(10) 0.045467(13) 0.619206(11)
C10_5 C 0.05560(12) 0.61139(10) 0.26451(10)
C11_5 C 0.05148(12) 0.61977(12) 0.24471(11)
H4_5 H 0.0482 0.6345 0.2430
C12_5 C 0.05217(13) 0.60660(15) 0.22777(14)
H5_5 H 0.0476 0.6118 0.2143
C13_5 C 0.05914(14) 0.58613(16) 0.22929(13)
C14_5 C 0.06454(19) 0.57738(14) 0.24883(16)
H6_5 H 0.0686 0.5629 0.2503
C15_5 C 0.06361(17) 0.59076(14) 0.26566(14)
H7_5 H 0.0687 0.5858 0.2790
C16_5 C 0.05312(11) 0.62470(10) 0.28326(10)
C17_5 C 0.0578(2) 0.56944(15) 0.21067(16)
C18_5 C 0.07153(17) 0.5541(2) 0.20784(19)
H8_5 H 0.0835 0.5532 0.2171
C23_5 C 0.00529(11) 0.55148(12) 0.13023(12)
H10_5 H 0.0070 0.5482 0.1155
C24_5 C 0.02223(14) 0.55217(13) 0.14340(15)
H11_5 H 0.0357 0.5476 0.1382
C25_5 C 0.02071(13) 0.55914(14) 0.16387(16)
C26_5 C 0.00117(16) 0.56454(19) 0.17262(14)
C29_5 C 0.03933(16) 0.5578(2) 0.18056(15)
C30_5 C 0.04216(19) 0.57153(17) 0.1959(2)
H14_5 H 0.0329 0.5835 0.1968
O13_5 O 0.11635(6) 0.44911(7) 0.19738(8)
O14_5 O 0.14438(8) 0.46958(6) 0.19765(7)
C31_5 C 0.11139(10) 0.48549(10) 0.19440(12)
C32_5 C 0.11977(12) 0.50529(11) 0.19852(12)
H15_5 H 0.1345 0.5070 0.2018
C33_5 C 0.10660(15) 0.52223(14) 0.19783(13)
H16_5 H 0.1118 0.5357 0.2024
C34_5 C 0.08613(16) 0.52071(13) 0.19086(14)
C35_5 C 0.07738(14) 0.50117(16) 0.18546(19)
H17_5 H 0.0629 0.4997 0.1814
C36_5 C 0.09076(14) 0.48434(14) 0.18639(17)
H18_5 H 0.0858 0.4710 0.1813
C37_5 C 0.12470(10) 0.46674(10) 0.19688(11)
C38_5 C 0.06944(15) 0.53933(16) 0.1922(2)
C39_5 C 0.0541(2) 0.54216(19) 0.17847(17)
H19_5 H 0.0532 0.5329 0.1665
Zn8_5 Zn 0.168532(9) 0.461394(8) 0.215344(11)
Zn15_5 Zn 0.130794(11) 0.423615(10) 0.204533(13)
O11_5 O 0.94911(7) 0.55262(8) 0.13365(6)
O12_5 O 0.96958(6) 0.55235(7) 0.10562(8)
C22_5 C 0.98549(10) 0.55560(12) 0.13861(10)
H12_5 H 0.9997 0.5686 0.1871
C27_5 C 0.98434(14) 0.56361(17) 0.15924(14)
H13_5 H 0.9710 0.5687 0.1642
C28_5 C 0.96674(10) 0.55312(11) 0.12530(10)
Zn7_5 Zn 0.961394(8) 0.534656(11) 0.081468(9)
Zn12_5 Zn 0.923615(10) 0.545467(13) 0.119206(11)
C10_6 C 0.55560(12) 0.63861(10) 0.48549(10)
C11_6 C 0.55148(12) 0.63023(12) 0.50529(11)
H4_6 H 0.5482 0.6155 0.5070
C12_6 C 0.55217(13) 0.64340(15) 0.52223(14)
H5_6 H 0.5476 0.6382 0.5357
C13_6 C 0.55914(14) 0.66387(16) 0.52071(13)
C14_6 C 0.56454(19) 0.67262(14) 0.50117(16)
H6_6 H 0.5686 0.6871 0.4997
C15_6 C 0.56361(17) 0.65924(14) 0.48434(14)
H7_6 H 0.5687 0.6642 0.4710
C16_6 C 0.55312(11) 0.62530(10) 0.46674(10)
C17_6 C 0.5578(2) 0.68056(15) 0.53933(16)
C18_6 C 0.57153(17) 0.6959(2) 0.54216(19)
H8_6 H 0.5835 0.6968 0.5329
O11_6 O 0.44911(7) 0.69738(8) 0.61635(6)
O12_6 O 0.46958(6) 0.69765(7) 0.64438(8)
C22_6 C 0.48549(10) 0.69440(12) 0.61139(10)
C23_6 C 0.50529(11) 0.69852(12) 0.61977(12)
H10_6 H 0.5070 0.7018 0.6345
C24_6 C 0.52223(14) 0.69783(13) 0.60660(15)
H11_6 H 0.5357 0.7024 0.6118
C25_6 C 0.52071(13) 0.69086(14) 0.58613(16)
C26_6 C 0.50117(16) 0.68546(19) 0.57738(14)
H12_6 H 0.4997 0.6814 0.5629
C27_6 C 0.48434(14) 0.68639(17) 0.59076(14)
H13_6 H 0.4710 0.6813 0.5858
C28_6 C 0.46674(10) 0.69688(11) 0.62470(10)
C29_6 C 0.53933(16) 0.6922(2) 0.56944(15)
C30_6 C 0.54216(19) 0.67847(17) 0.5541(2)
H14_6 H 0.5329 0.6665 0.5532
O13_6 O 0.61635(6) 0.80089(7) 0.55262(8)
O14_6 O 0.64438(8) 0.78042(6) 0.55235(7)
C31_6 C 0.61139(10) 0.76451(10) 0.55560(12)
C32_6 C 0.61977(12) 0.74471(11) 0.55148(12)
H15_6 H 0.6345 0.7430 0.5482
C33_6 C 0.60660(15) 0.72777(14) 0.55217(13)
H16_6 H 0.6118 0.7143 0.5476
C34_6 C 0.58613(16) 0.72929(13) 0.55914(14)
C35_6 C 0.57738(14) 0.74883(16) 0.56454(19)
H17_6 H 0.5629 0.7503 0.5686
C36_6 C 0.59076(14) 0.76566(14) 0.56361(17)
H18_6 H 0.5858 0.7790 0.5687
C37_6 C 0.62470(10) 0.78326(10) 0.55312(11)
C38_6 C 0.56944(15) 0.71067(16) 0.5578(2)
C39_6 C 0.5541(2) 0.70784(19) 0.57153(17)
H19_6 H 0.5532 0.7171 0.5835
Zn7_6 Zn 0.461394(8) 0.715344(11) 0.668532(9)
Zn8_6 Zn 0.668532(9) 0.788606(8) 0.534656(11)
Zn12_6 Zn 0.423615(10) 0.704533(13) 0.630794(11)
Zn15_6 Zn 0.630794(11) 0.826385(10) 0.545467(13)
C10_7 C 0.19440(12) 0.13861(10) 0.76451(10)
C11_7 C 0.19852(12) 0.13023(12) 0.74471(11)
H4_7 H 0.2018 0.1155 0.7430
C12_7 C 0.19783(13) 0.14340(15) 0.72777(14)
H5_7 H 0.2024 0.1382 0.7143
C13_7 C 0.19086(14) 0.16387(16) 0.72929(13)
C14_7 C 0.18546(19) 0.17262(14) 0.74883(16)
H6_7 H 0.1814 0.1871 0.7503
C15_7 C 0.18639(17) 0.15924(14) 0.76566(14)
H7_7 H 0.1813 0.1642 0.7790
C16_7 C 0.19688(11) 0.12530(10) 0.78326(10)
C17_7 C 0.1922(2) 0.18056(15) 0.71067(16)
C18_7 C 0.17847(17) 0.1959(2) 0.70784(19)
H8_7 H 0.1665 0.1968 0.7171
O11_7 O 0.30089(7) 0.19738(8) 0.63365(6)
O12_7 O 0.28042(6) 0.19765(7) 0.60562(8)
C22_7 C 0.26451(10) 0.19440(12) 0.63861(10)
C23_7 C 0.24471(11) 0.19852(12) 0.63023(12)
H10_7 H 0.2430 0.2018 0.6155
C24_7 C 0.22777(14) 0.19783(13) 0.64340(15)
H11_7 H 0.2143 0.2024 0.6382
C25_7 C 0.22929(13) 0.19086(14) 0.66387(16)
C26_7 C 0.24883(16) 0.18546(19) 0.67262(14)
H12_7 H 0.2503 0.1814 0.6871
C27_7 C 0.26566(14) 0.18639(17) 0.65924(14)
H13_7 H 0.2790 0.1813 0.6642
C28_7 C 0.28326(10) 0.19688(11) 0.62530(10)
C29_7 C 0.21067(16) 0.1922(2) 0.68056(15)
C30_7 C 0.20784(19) 0.17847(17) 0.6959(2)
H14_7 H 0.2171 0.1665 0.6968
O13_7 O 0.13365(6) 0.30089(7) 0.69738(8)
O14_7 O 0.10562(8) 0.28042(6) 0.69765(7)
C31_7 C 0.13861(10) 0.26451(10) 0.69440(12)
C32_7 C 0.13023(12) 0.24471(11) 0.69852(12)
H15_7 H 0.1155 0.2430 0.7018
C33_7 C 0.14340(15) 0.22777(14) 0.69783(13)
H16_7 H 0.1382 0.2143 0.7024
C34_7 C 0.16387(16) 0.22929(13) 0.69086(14)
C35_7 C 0.17262(14) 0.24883(16) 0.68546(19)
H17_7 H 0.1871 0.2503 0.6814
C36_7 C 0.15924(14) 0.26566(14) 0.68639(17)
H18_7 H 0.1642 0.2790 0.6813
C37_7 C 0.12530(10) 0.28326(10) 0.69688(11)
C38_7 C 0.18056(15) 0.21067(16) 0.6922(2)
C39_7 C 0.1959(2) 0.20784(19) 0.67847(17)
H19_7 H 0.1968 0.2171 0.6665
Zn7_7 Zn 0.288606(8) 0.215344(11) 0.581468(9)
Zn8_7 Zn 0.081468(9) 0.288606(8) 0.715344(11)
Zn12_7 Zn 0.326385(10) 0.204533(13) 0.619206(11)
Zn15_7 Zn 0.119206(11) 0.326385(10) 0.704533(13)
C11_8 C 0.69852(12) 0.11977(12) 0.00529(11)
H4_8 H 0.7018 0.1345 0.0070
C12_8 C 0.69783(13) 0.10660(15) 0.02223(14)
H5_8 H 0.7024 0.1118 0.0357
C13_8 C 0.69086(14) 0.08613(16) 0.02071(13)
C14_8 C 0.68546(19) 0.07738(14) 0.00117(16)
C17_8 C 0.6922(2) 0.06944(15) 0.03933(16)
C18_8 C 0.67847(17) 0.0541(2) 0.04216(19)
H8_8 H 0.6665 0.0532 0.0329
O11_8 O 0.80089(7) 0.05262(8) 0.11635(6)
O12_8 O 0.78042(6) 0.05235(7) 0.14438(8)
C22_8 C 0.76451(10) 0.05560(12) 0.11139(10)
C23_8 C 0.74471(11) 0.05148(12) 0.11977(12)
H10_8 H 0.7430 0.0482 0.1345
C24_8 C 0.72777(14) 0.05217(13) 0.10660(15)
H11_8 H 0.7143 0.0476 0.1118
C25_8 C 0.72929(13) 0.05914(14) 0.08613(16)
C26_8 C 0.74883(16) 0.06454(19) 0.07738(14)
H12_8 H 0.7503 0.0686 0.0629
C27_8 C 0.76566(14) 0.06361(17) 0.09076(14)
H13_8 H 0.7790 0.0687 0.0858
C28_8 C 0.78326(10) 0.05312(11) 0.12470(10)
C29_8 C 0.71067(16) 0.0578(2) 0.06944(15)
C30_8 C 0.70784(19) 0.07153(17) 0.0541(2)
H14_8 H 0.7171 0.0835 0.0532
C32_8 C 0.63023(12) 0.00529(11) 0.05148(12)
H15_8 H 0.6155 0.0070 0.0482
C33_8 C 0.64340(15) 0.02223(14) 0.05217(13)
H16_8 H 0.6382 0.0357 0.0476
C34_8 C 0.66387(16) 0.02071(13) 0.05914(14)
C35_8 C 0.67262(14) 0.00117(16) 0.06454(19)
C38_8 C 0.68056(15) 0.03933(16) 0.0578(2)
C39_8 C 0.6959(2) 0.04216(19) 0.07153(17)
H19_8 H 0.6968 0.0329 0.0835
Zn7_8 Zn 0.788606(8) 0.034656(11) 0.168532(9)
Zn12_8 Zn 0.826385(10) 0.045467(13) 0.130794(11)
C10_8 C 0.69440(12) 0.11139(10) 0.98549(10)
H6_8 H 0.6814 0.0629 0.9997
C15_8 C 0.68639(17) 0.09076(14) 0.98434(14)
H7_8 H 0.6813 0.0858 0.9710
C16_8 C 0.69688(11) 0.12470(10) 0.96674(10)
O13_8 O 0.63365(6) 0.94911(7) 0.05262(8)
O14_8 O 0.60562(8) 0.96958(6) 0.05235(7)
C31_8 C 0.63861(10) 0.98549(10) 0.05560(12)
H17_8 H 0.6871 0.9997 0.0686
C36_8 C 0.65924(14) 0.98434(14) 0.06361(17)
H18_8 H 0.6642 0.9710 0.0687
C37_8 C 0.62530(10) 0.96674(10) 0.05312(11)
Zn8_8 Zn 0.581468(9) 0.961394(8) 0.034656(11)
Zn15_8 Zn 0.619206(11) 0.923615(10) 0.045467(13)
C10_9 C 0.26451(10) 0.05560(12) 0.61139(10)
C11_9 C 0.24471(11) 0.05148(12) 0.61977(12)
H4_9 H 0.2430 0.0482 0.6345
C12_9 C 0.22777(14) 0.05217(13) 0.60660(15)
H5_9 H 0.2143 0.0476 0.6118
C13_9 C 0.22929(13) 0.05914(14) 0.58613(16)
C14_9 C 0.24883(16) 0.06454(19) 0.57738(14)
H6_9 H 0.2503 0.0686 0.5629
C15_9 C 0.26566(14) 0.06361(17) 0.59076(14)
H7_9 H 0.2790 0.0687 0.5858
C16_9 C 0.28326(10) 0.05312(11) 0.62470(10)
C17_9 C 0.21067(16) 0.0578(2) 0.56944(15)
C18_9 C 0.20784(19) 0.07153(17) 0.5541(2)
H8_9 H 0.2171 0.0835 0.5532
C23_9 C 0.13023(12) 0.00529(11) 0.55148(12)
H10_9 H 0.1155 0.0070 0.5482
C24_9 C 0.14340(15) 0.02223(14) 0.55217(13)
H11_9 H 0.1382 0.0357 0.5476
C25_9 C 0.16387(16) 0.02071(13) 0.55914(14)
C26_9 C 0.17262(14) 0.00117(16) 0.56454(19)
C29_9 C 0.18056(15) 0.03933(16) 0.5578(2)
C30_9 C 0.1959(2) 0.04216(19) 0.57153(17)
H14_9 H 0.1968 0.0329 0.5835
O13_9 O 0.19738(8) 0.11635(6) 0.44911(7)
O14_9 O 0.19765(7) 0.14438(8) 0.46958(6)
C31_9 C 0.19440(12) 0.11139(10) 0.48549(10)
C32_9 C 0.19852(12) 0.11977(12) 0.50529(11)
H15_9 H 0.2018 0.1345 0.5070
C33_9 C 0.19783(13) 0.10660(15) 0.52223(14)
H16_9 H 0.2024 0.1118 0.5357
C34_9 C 0.19086(14) 0.08613(16) 0.52071(13)
C35_9 C 0.18546(19) 0.07738(14) 0.50117(16)
H17_9 H 0.1814 0.0629 0.4997
C36_9 C 0.18639(17) 0.09076(14) 0.48434(14)
H18_9 H 0.1813 0.0858 0.4710
C37_9 C 0.19688(11) 0.12470(10) 0.46674(10)
C38_9 C 0.1922(2) 0.06944(15) 0.53933(16)
C39_9 C 0.17847(17) 0.0541(2) 0.54216(19)
H19_9 H 0.1665 0.0532 0.5329
Zn8_9 Zn 0.215344(11) 0.168532(9) 0.461394(8)
Zn15_9 Zn 0.204533(13) 0.130794(11) 0.423615(10)
O11_9 O 0.13365(6) 0.94911(7) 0.55262(8)
O12_9 O 0.10562(8) 0.96958(6) 0.55235(7)
C22_9 C 0.13861(10) 0.98549(10) 0.55560(12)
H12_9 H 0.1871 0.9997 0.5686
C27_9 C 0.15924(14) 0.98434(14) 0.56361(17)
H13_9 H 0.1642 0.9710 0.5687
C28_9 C 0.12530(10) 0.96674(10) 0.55312(11)
Zn7_9 Zn 0.081468(9) 0.961394(8) 0.534656(11)
Zn12_9 Zn 0.119206(11) 0.923615(10) 0.545467(13)
C10_10 C 0.48549(10) 0.55560(12) 0.63861(10)
C11_10 C 0.50529(11) 0.55148(12) 0.63023(12)
H4_10 H 0.5070 0.5482 0.6155
C12_10 C 0.52223(14) 0.55217(13) 0.64340(15)
H5_10 H 0.5357 0.5476 0.6382
C13_10 C 0.52071(13) 0.55914(14) 0.66387(16)
C14_10 C 0.50117(16) 0.56454(19) 0.67262(14)
H6_10 H 0.4997 0.5686 0.6871
C15_10 C 0.48434(14) 0.56361(17) 0.65924(14)
H7_10 H 0.4710 0.5687 0.6642
C16_10 C 0.46674(10) 0.55312(11) 0.62530(10)
C17_10 C 0.53933(16) 0.5578(2) 0.68056(15)
C18_10 C 0.54216(19) 0.57153(17) 0.6959(2)
H8_10 H 0.5329 0.5835 0.6968
O11_10 O 0.61635(6) 0.44911(7) 0.69738(8)
O12_10 O 0.64438(8) 0.46958(6) 0.69765(7)
C22_10 C 0.61139(10) 0.48549(10) 0.69440(12)
C23_10 C 0.61977(12) 0.50529(11) 0.69852(12)
H10_10 H 0.6345 0.5070 0.7018
C24_10 C 0.60660(15) 0.52223(14) 0.69783(13)
H11_10 H 0.6118 0.5357 0.7024
C25_10 C 0.58613(16) 0.52071(13) 0.69086(14)
C26_10 C 0.57738(14) 0.50117(16) 0.68546(19)
H12_10 H 0.5629 0.4997 0.6814
C27_10 C 0.59076(14) 0.48434(14) 0.68639(17)
H13_10 H 0.5858 0.4710 0.6813
C28_10 C 0.62470(10) 0.46674(10) 0.69688(11)
C29_10 C 0.56944(15) 0.53933(16) 0.6922(2)
C30_10 C 0.5541(2) 0.54216(19) 0.67847(17)
H14_10 H 0.5532 0.5329 0.6665
O13_10 O 0.55262(8) 0.61635(6) 0.80089(7)
O14_10 O 0.55235(7) 0.64438(8) 0.78042(6)
C31_10 C 0.55560(12) 0.61139(10) 0.76451(10)
C32_10 C 0.55148(12) 0.61977(12) 0.74471(11)
H15_10 H 0.5482 0.6345 0.7430
C33_10 C 0.55217(13) 0.60660(15) 0.72777(14)
H16_10 H 0.5476 0.6118 0.7143
C34_10 C 0.55914(14) 0.58613(16) 0.72929(13)
C35_10 C 0.56454(19) 0.57738(14) 0.74883(16)
H17_10 H 0.5686 0.5629 0.7503
C36_10 C 0.56361(17) 0.59076(14) 0.76566(14)
H18_10 H 0.5687 0.5858 0.7790
C37_10 C 0.55312(11) 0.62470(10) 0.78326(10)
C38_10 C 0.5578(2) 0.56944(15) 0.71067(16)
C39_10 C 0.57153(17) 0.5541(2) 0.70784(19)
H19_10 H 0.5835 0.5532 0.7171
Zn7_10 Zn 0.668532(9) 0.461394(8) 0.715344(11)
Zn8_10 Zn 0.534656(11) 0.668532(9) 0.788606(8)
Zn12_10 Zn 0.630794(11) 0.423615(10) 0.704533(13)
Zn15_10 Zn 0.545467(13) 0.630794(11) 0.826385(10)
C10_11 C 0.76451(10) 0.19440(12) 0.13861(10)
C11_11 C 0.74471(11) 0.19852(12) 0.13023(12)
H4_11 H 0.7430 0.2018 0.1155
C12_11 C 0.72777(14) 0.19783(13) 0.14340(15)
H5_11 H 0.7143 0.2024 0.1382
C13_11 C 0.72929(13) 0.19086(14) 0.16387(16)
C14_11 C 0.74883(16) 0.18546(19) 0.17262(14)
H6_11 H 0.7503 0.1814 0.1871
C15_11 C 0.76566(14) 0.18639(17) 0.15924(14)
H7_11 H 0.7790 0.1813 0.1642
C16_11 C 0.78326(10) 0.19688(11) 0.12530(10)
C17_11 C 0.71067(16) 0.1922(2) 0.18056(15)
C18_11 C 0.70784(19) 0.17847(17) 0.1959(2)
H8_11 H 0.7171 0.1665 0.1968
O11_11 O 0.63365(6) 0.30089(7) 0.19738(8)
O12_11 O 0.60562(8) 0.28042(6) 0.19765(7)
C22_11 C 0.63861(10) 0.26451(10) 0.19440(12)
C23_11 C 0.63023(12) 0.24471(11) 0.19852(12)
H10_11 H 0.6155 0.2430 0.2018
C24_11 C 0.64340(15) 0.22777(14) 0.19783(13)
H11_11 H 0.6382 0.2143 0.2024
C25_11 C 0.66387(16) 0.22929(13) 0.19086(14)
C26_11 C 0.67262(14) 0.24883(16) 0.18546(19)
H12_11 H 0.6871 0.2503 0.1814
C27_11 C 0.65924(14) 0.26566(14) 0.18639(17)
H13_11 H 0.6642 0.2790 0.1813
C28_11 C 0.62530(10) 0.28326(10) 0.19688(11)
C29_11 C 0.68056(15) 0.21067(16) 0.1922(2)
C30_11 C 0.6959(2) 0.20784(19) 0.17847(17)
H14_11 H 0.6968 0.2171 0.1665
O13_11 O 0.69738(8) 0.13365(6) 0.30089(7)
O14_11 O 0.69765(7) 0.10562(8) 0.28042(6)
C31_11 C 0.69440(12) 0.13861(10) 0.26451(10)
C32_11 C 0.69852(12) 0.13023(12) 0.24471(11)
H15_11 H 0.7018 0.1155 0.2430
C33_11 C 0.69783(13) 0.14340(15) 0.22777(14)
H16_11 H 0.7024 0.1382 0.2143
C34_11 C 0.69086(14) 0.16387(16) 0.22929(13)
C35_11 C 0.68546(19) 0.17262(14) 0.24883(16)
H17_11 H 0.6814 0.1871 0.2503
C36_11 C 0.68639(17) 0.15924(14) 0.26566(14)
H18_11 H 0.6813 0.1642 0.2790
C37_11 C 0.69688(11) 0.12530(10) 0.28326(10)
C38_11 C 0.6922(2) 0.18056(15) 0.21067(16)
C39_11 C 0.67847(17) 0.1959(2) 0.20784(19)
H19_11 H 0.6665 0.1968 0.2171
Zn7_11 Zn 0.581468(9) 0.288606(8) 0.215344(11)
Zn8_11 Zn 0.715344(11) 0.081468(9) 0.288606(8)
Zn12_11 Zn 0.619206(11) 0.326385(10) 0.204533(13)
Zn15_11 Zn 0.704533(13) 0.119206(11) 0.326385(10)
C11_12 C 0.00529(11) 0.69852(12) 0.11977(12)
H4_12 H 0.0070 0.7018 0.1345
C12_12 C 0.02223(14) 0.69783(13) 0.10660(15)
H5_12 H 0.0357 0.7024 0.1118
C13_12 C 0.02071(13) 0.69086(14) 0.08613(16)
C14_12 C 0.00117(16) 0.68546(19) 0.07738(14)
C17_12 C 0.03933(16) 0.6922(2) 0.06944(15)
C18_12 C 0.04216(19) 0.67847(17) 0.0541(2)
H8_12 H 0.0329 0.6665 0.0532
O11_12 O 0.11635(6) 0.80089(7) 0.05262(8)
O12_12 O 0.14438(8) 0.78042(6) 0.05235(7)
C22_12 C 0.11139(10) 0.76451(10) 0.05560(12)
C23_12 C 0.11977(12) 0.74471(11) 0.05148(12)
H10_12 H 0.1345 0.7430 0.0482
C24_12 C 0.10660(15) 0.72777(14) 0.05217(13)
H11_12 H 0.1118 0.7143 0.0476
C25_12 C 0.08613(16) 0.72929(13) 0.05914(14)
C26_12 C 0.07738(14) 0.74883(16) 0.06454(19)
H12_12 H 0.0629 0.7503 0.0686
C27_12 C 0.09076(14) 0.76566(14) 0.06361(17)
H13_12 H 0.0858 0.7790 0.0687
C28_12 C 0.12470(10) 0.78326(10) 0.05312(11)
C29_12 C 0.06944(15) 0.71067(16) 0.0578(2)
C30_12 C 0.0541(2) 0.70784(19) 0.07153(17)
H14_12 H 0.0532 0.7171 0.0835
C32_12 C 0.05148(12) 0.63023(12) 0.00529(11)
H15_12 H 0.0482 0.6155 0.0070
C33_12 C 0.05217(13) 0.64340(15) 0.02223(14)
H16_12 H 0.0476 0.6382 0.0357
C34_12 C 0.05914(14) 0.66387(16) 0.02071(13)
C35_12 C 0.06454(19) 0.67262(14) 0.00117(16)
C38_12 C 0.0578(2) 0.68056(15) 0.03933(16)
C39_12 C 0.07153(17) 0.6959(2) 0.04216(19)
H19_12 H 0.0835 0.6968 0.0329
Zn7_12 Zn 0.168532(9) 0.788606(8) 0.034656(11)
Zn12_12 Zn 0.130794(11) 0.826385(10) 0.045467(13)
O13_12 O 0.05262(8) 0.63365(6) 0.94911(7)
O14_12 O 0.05235(7) 0.60562(8) 0.96958(6)
C31_12 C 0.05560(12) 0.63861(10) 0.98549(10)
H17_12 H 0.0686 0.6871 0.9997
C36_12 C 0.06361(17) 0.65924(14) 0.98434(14)
H18_12 H 0.0687 0.6642 0.9710
C37_12 C 0.05312(11) 0.62530(10) 0.96674(10)
Zn8_12 Zn 0.034656(11) 0.581468(9) 0.961394(8)
Zn15_12 Zn 0.045467(13) 0.619206(11) 0.923615(10)
C10_12 C 0.98549(10) 0.69440(12) 0.11139(10)
H6_12 H 0.9997 0.6814 0.0629
C15_12 C 0.98434(14) 0.68639(17) 0.09076(14)
H7_12 H 0.9710 0.6813 0.0858
C16_12 C 0.96674(10) 0.69688(11) 0.12470(10)
O27_5 O 0.03947(8) 0.11104(7) 0.84891(6)
O28_5 O 0.07180(10) 0.10708(9) 0.85604(8)
O29_5 O 0.09314(7) 0.05736(6) 0.91353(5)
O30_5 O 0.06758(6) 0.04696(7) 0.93586(5)
C55_5 C 0.02158(9) 0.06840(7) 0.89557(7)
C56_5 C 0.02674(10) 0.08267(7) 0.87916(8)
H25_5 H 0.0160 0.0884 0.8701
C57_5 C 0.04750(11) 0.08794(9) 0.87666(8)
C58_5 C 0.06345(10) 0.07879(7) 0.88894(7)
H26_5 H 0.0780 0.0820 0.8864
C59_5 C 0.05754(9) 0.06435(7) 0.90558(6)
C60_5 C 0.03616(9) 0.06009(7) 0.90850(6)
H27_5 H 0.0318 0.0511 0.9199
C62_5 C 0.05381(13) 0.10299(10) 0.85940(10)
C63_5 C 0.07393(10) 0.05557(8) 0.91969(7)
Zn10_5 Zn 0.081468(9) 0.034656(11) 0.961394(8)
Zn18_5 Zn 0.119206(11) 0.045467(13) 0.923615(10)
O3_5 O 0.11104(7) 0.84891(6) 0.03947(8)
O4_5 O 0.10708(9) 0.85604(8) 0.07180(10)
O5_5 O 0.05736(6) 0.91353(5) 0.09314(7)
O6_5 O 0.04696(7) 0.93586(5) 0.06758(6)
C1_5 C 0.06840(7) 0.89557(7) 0.02158(9)
C2_5 C 0.08267(7) 0.87916(8) 0.02674(10)
H1_5 H 0.0884 0.8701 0.0160
C3_5 C 0.08794(9) 0.87666(8) 0.04750(11)
C4_5 C 0.07879(7) 0.88894(7) 0.06345(10)
H2_5 H 0.0820 0.8864 0.0780
C5_5 C 0.06435(7) 0.90558(6) 0.05754(9)
C6_5 C 0.06009(7) 0.90850(6) 0.03616(9)
H3_5 H 0.0511 0.9199 0.0318
C8_5 C 0.10299(10) 0.85940(10) 0.05381(13)
C9_5 C 0.05557(8) 0.91969(7) 0.07393(10)
Zn11_5 Zn 0.034656(11) 0.961394(8) 0.081468(9)
Zn19_5 Zn 0.045467(13) 0.923615(10) 0.119206(11)
Zn1_5 Zn 0.038606(8) 0.918532(9) 0.965344(11)
Zn2_5 Zn 0.076385(10) 0.880794(11) 0.954533(13)
O1_5 O 0.04754(4) 0.91141(5) 0.99355(6)
O2_5 O 0.07126(8) 0.88684(7) 0.98514(7)
C7_5 C 0.06183(9) 0.89787(8) 0.99838(12)
O7_5 O 0.05089(7) 0.86635(6) 0.94738(8)
O8_5 O 0.03042(6) 0.89438(8) 0.94765(7)
C10_13 C 0.01451(10) 0.86139(10) 0.94440(12)
H6_13 H 0.0003 0.8129 0.9314
C15_13 C 0.01566(14) 0.84076(14) 0.93639(17)
H7_13 H 0.0290 0.8358 0.9313
C16_13 C 0.03326(10) 0.87470(10) 0.94688(11)
O9_5 O 0.01797(4) 0.94069(5) 0.95890(5)
C21_5 C 0.00179(7) 0.93637(6) 0.96953(7)
O33_5 O 0.09891(6) 0.86104(7) 0.96053(8)
O35_5 O 0.08647(5) 0.90686(7) 0.94264(6)
O38_5 O 0.06414(5) 0.93242(6) 0.95304(7)
O21_5 O 0.84891(6) 0.03947(8) 0.11104(7)
O22_5 O 0.85604(8) 0.07180(10) 0.10708(9)
O23_5 O 0.91353(5) 0.09314(7) 0.05736(6)
O24_5 O 0.93586(5) 0.06758(6) 0.04696(7)
C46_5 C 0.89557(7) 0.02158(9) 0.06840(7)
C47_5 C 0.87916(8) 0.02674(10) 0.08267(7)
H22_5 H 0.8701 0.0160 0.0884
C48_5 C 0.87666(8) 0.04750(11) 0.08794(9)
C49_5 C 0.88894(7) 0.06345(10) 0.07879(7)
H23_5 H 0.8864 0.0780 0.0820
C50_5 C 0.90558(6) 0.05754(9) 0.06435(7)
C51_5 C 0.90850(6) 0.03616(9) 0.06009(7)
H24_5 H 0.9199 0.0318 0.0511
C53_5 C 0.85940(10) 0.05381(13) 0.10299(10)
C54_5 C 0.91969(7) 0.07393(10) 0.05557(8)
Zn9_5 Zn 0.961394(8) 0.081468(9) 0.034656(11)
Zn17_5 Zn 0.923615(10) 0.119206(11) 0.045467(13)
O17_5 O 0.95890(5) 0.01797(4) 0.94069(5)
C45_5 C 0.96953(7) 0.00179(7) 0.93637(6)
Zn5_5 Zn 0.965344(11) 0.038606(8) 0.918532(9)
Zn6_5 Zn 0.954533(13) 0.076385(10) 0.880794(11)
O25_5 O 0.99355(6) 0.04754(4) 0.91141(5)
O26_5 O 0.98514(7) 0.07126(8) 0.88684(7)
C61_5 C 0.99838(12) 0.06183(9) 0.89787(8)
O32_5 O 0.96053(8) 0.09891(6) 0.86104(7)
O34_5 O 0.94264(6) 0.08647(5) 0.90686(7)
O37_5 O 0.95304(7) 0.06414(5) 0.93242(6)
O41_5 O 0.94738(8) 0.05089(7) 0.86635(6)
O43_5 O 0.94765(7) 0.03042(6) 0.89438(8)
O11_13 O 0.88365(6) 0.80262(8) 0.05089(7)
O12_13 O 0.85562(8) 0.80235(7) 0.03042(6)
C22_13 C 0.88861(10) 0.80560(12) 0.01451(10)
H12_13 H 0.9371 0.8186 0.0003
C27_13 C 0.90924(14) 0.81361(17) 0.01566(14)
H13_13 H 0.9142 0.8187 0.0290
C28_13 C 0.87530(10) 0.80312(11) 0.03326(10)
O15_5 O 0.94069(5) 0.95890(5) 0.01797(4)
C42_5 C 0.93637(6) 0.96953(7) 0.00179(7)
Zn3_5 Zn 0.918532(9) 0.965344(11) 0.038606(8)
Zn4_5 Zn 0.880794(11) 0.954533(13) 0.076385(10)
O19_5 O 0.91141(5) 0.99355(6) 0.04754(4)
O20_5 O 0.88684(7) 0.98514(7) 0.07126(8)
C52_5 C 0.89787(8) 0.99838(12) 0.06183(9)
Zn7_13 Zn 0.831468(9) 0.784656(11) 0.038606(8)
O31_5 O 0.86104(7) 0.96053(8) 0.09891(6)
O36_5 O 0.90686(7) 0.94264(6) 0.08647(5)
O39_5 O 0.93242(6) 0.95304(7) 0.06414(5)
O40_5 O 0.86635(6) 0.94738(8) 0.05089(7)
O42_5 O 0.89438(8) 0.94765(7) 0.03042(6)
C11_13 C 0.99471(11) 0.86977(12) 0.94852(12)
H4_13 H 0.9930 0.8845 0.9518
C12_13 C 0.97777(14) 0.85660(15) 0.94783(13)
H5_13 H 0.9643 0.8618 0.9524
C13_13 C 0.97929(13) 0.83613(16) 0.94086(14)
C14_13 C 0.99883(16) 0.82738(14) 0.93546(19)
C17_13 C 0.96067(16) 0.81944(15) 0.9422(2)
O10_5 O 0.99880(5) 0.91956(5) 0.97984(6)
C18_13 C 0.95784(19) 0.8041(2) 0.92847(17)
H8_13 H 0.9671 0.8032 0.9165
C19_5 C 0.98375(5) 0.95253(5) 0.96784(5)
C20_5 C 0.96828(5) 0.95250(5) 0.98338(5)
H9_5 H 0.9685 0.9417 0.9940
C23_13 C 0.88023(12) 0.80148(12) 0.99471(11)
H10_13 H 0.8655 0.7982 0.9930
C24_13 C 0.89340(15) 0.80217(13) 0.97777(14)
H11_13 H 0.8882 0.7976 0.9643
C25_13 C 0.91387(16) 0.80914(14) 0.97929(13)
C26_13 C 0.92262(14) 0.81454(19) 0.99883(16)
C29_13 C 0.93056(15) 0.8078(2) 0.96067(16)
C30_13 C 0.9459(2) 0.82153(17) 0.95784(19)
H14_13 H 0.9468 0.8335 0.9671
O13_13 O 0.94738(8) 0.69911(7) 0.88365(6)
O14_13 O 0.94765(7) 0.71958(6) 0.85562(8)
C31_13 C 0.94440(12) 0.73549(10) 0.88861(10)
C32_13 C 0.94852(12) 0.75529(11) 0.88023(12)
H15_13 H 0.9518 0.7570 0.8655
C33_13 C 0.94783(13) 0.77223(14) 0.89340(15)
H16_13 H 0.9524 0.7857 0.8882
C34_13 C 0.94086(14) 0.77071(13) 0.91387(16)
C35_13 C 0.93546(19) 0.75117(16) 0.92262(14)
H17_13 H 0.9314 0.7497 0.9371
C36_13 C 0.93639(17) 0.73434(14) 0.90924(14)
H18_13 H 0.9313 0.7210 0.9142
C37_13 C 0.94688(11) 0.71674(10) 0.87530(10)
C38_13 C 0.9422(2) 0.78933(16) 0.93056(15)
C39_13 C 0.92847(17) 0.79216(19) 0.9459(2)
H19_13 H 0.9165 0.7829 0.9468
O16_5 O 0.91956(5) 0.97984(6) 0.99880(5)
C40_5 C 0.95253(5) 0.96784(5) 0.98375(5)
C41_5 C 0.95250(5) 0.98338(5) 0.96828(5)
H20_5 H 0.9417 0.9940 0.9685
O18_5 O 0.97984(6) 0.99880(5) 0.91956(5)
C43_5 C 0.96784(5) 0.98375(5) 0.95253(5)
C44_5 C 0.98338(5) 0.96828(5) 0.95250(5)
H21_5 H 0.9940 0.9685 0.9417
Zn8_13 Zn 0.965344(11) 0.711394(8) 0.831468(9)
Zn15_13 Zn 0.954533(13) 0.673615(10) 0.869206(11)
O13_14 O 0.30262(8) 0.05089(7) 0.38365(6)
O14_14 O 0.30235(7) 0.03042(6) 0.35562(8)
C31_14 C 0.30560(12) 0.01451(10) 0.38861(10)
H17_14 H 0.3186 0.0003 0.4371
C36_14 C 0.31361(17) 0.01566(14) 0.40924(14)
H18_14 H 0.3187 0.0290 0.4142
C37_14 C 0.30312(11) 0.03326(10) 0.37530(10)
Zn8_14 Zn 0.284656(11) 0.038606(8) 0.331468(9)
Zn15_14 Zn 0.295467(13) 0.076385(10) 0.369206(11)
Zn1_6 Zn 0.211394(8) 0.831468(9) 0.465344(11)
Zn2_6 Zn 0.173615(10) 0.869206(11) 0.454533(13)
O1_6 O 0.20246(4) 0.83859(5) 0.49355(6)
O2_6 O 0.17874(8) 0.86316(7) 0.48514(7)
O3_6 O 0.13896(7) 0.90109(6) 0.53947(8)
O4_6 O 0.14292(9) 0.89396(8) 0.57180(10)
O5_6 O 0.19264(6) 0.83647(5) 0.59314(7)
O6_6 O 0.20304(7) 0.81414(5) 0.56758(6)
C1_6 C 0.18160(7) 0.85443(7) 0.52158(9)
C2_6 C 0.16733(7) 0.87084(8) 0.52674(10)
H1_6 H 0.1616 0.8799 0.5160
C3_6 C 0.16206(9) 0.87334(8) 0.54750(11)
C4_6 C 0.17121(7) 0.86106(7) 0.56345(10)
H2_6 H 0.1680 0.8636 0.5780
C5_6 C 0.18565(7) 0.84442(6) 0.55754(9)
C6_6 C 0.18991(7) 0.84150(6) 0.53616(9)
H3_6 H 0.1989 0.8301 0.5318
C7_6 C 0.18817(9) 0.85213(8) 0.49838(12)
C8_6 C 0.14701(10) 0.89060(10) 0.55381(13)
C9_6 C 0.19443(8) 0.83031(7) 0.57393(10)
O7_6 O 0.19911(7) 0.88365(6) 0.44738(8)
O8_6 O 0.21958(6) 0.85562(8) 0.44765(7)
C10_14 C 0.23549(10) 0.88861(10) 0.44440(12)
C11_14 C 0.25529(11) 0.88023(12) 0.44852(12)
H4_14 H 0.2570 0.8655 0.4518
C12_14 C 0.27223(14) 0.89340(15) 0.44783(13)
H5_14 H 0.2857 0.8882 0.4524
C13_14 C 0.27071(13) 0.91387(16) 0.44086(14)
C14_14 C 0.25117(16) 0.92262(14) 0.43546(19)
H6_14 H 0.2497 0.9371 0.4314
C15_14 C 0.23434(14) 0.90924(14) 0.43639(17)
H7_14 H 0.2210 0.9142 0.4313
C16_14 C 0.21674(10) 0.87530(10) 0.44688(11)
C17_14 C 0.28933(16) 0.93056(15) 0.4422(2)
O9_6 O 0.23203(4) 0.80931(5) 0.45890(5)
O10_6 O 0.25120(5) 0.83044(5) 0.47984(6)
C18_14 C 0.29216(19) 0.9459(2) 0.42847(17)
H8_14 H 0.2829 0.9468 0.4165
C19_6 C 0.26625(5) 0.79747(5) 0.46784(5)
C20_6 C 0.28172(5) 0.79750(5) 0.48338(5)
H9_6 H 0.2815 0.8083 0.4940
C21_6 C 0.24821(7) 0.81363(6) 0.46953(7)
O11_14 O 0.36635(6) 0.94738(8) 0.55089(7)
O12_14 O 0.39438(8) 0.94765(7) 0.53042(6)
C22_14 C 0.36139(10) 0.94440(12) 0.51451(10)
C23_14 C 0.36977(12) 0.94852(12) 0.49471(11)
H10_14 H 0.3845 0.9518 0.4930
C24_14 C 0.35660(15) 0.94783(13) 0.47777(14)
H11_14 H 0.3618 0.9524 0.4643
C25_14 C 0.33613(16) 0.94086(14) 0.47929(13)
C26_14 C 0.32738(14) 0.93546(19) 0.49883(16)
H12_14 H 0.3129 0.9314 0.5003
C27_14 C 0.34076(14) 0.93639(17) 0.51566(14)
H13_14 H 0.3358 0.9313 0.5290
C28_14 C 0.37470(10) 0.94688(11) 0.53326(10)
C29_14 C 0.31944(15) 0.9422(2) 0.46067(16)
C30_14 C 0.3041(2) 0.92847(17) 0.45784(19)
H14_14 H 0.3032 0.9165 0.4671
C32_14 C 0.30148(12) 0.99471(11) 0.38023(12)
H15_14 H 0.2982 0.9930 0.3655
C33_14 C 0.30217(13) 0.97777(14) 0.39340(15)
H16_14 H 0.2976 0.9643 0.3882
C34_14 C 0.30914(14) 0.97929(13) 0.41387(16)
C35_14 C 0.31454(19) 0.99883(16) 0.42262(14)
C38_14 C 0.3078(2) 0.96067(16) 0.43056(15)
C39_14 C 0.32153(17) 0.95784(19) 0.4459(2)
H19_14 H 0.3335 0.9671 0.4468
O15_6 O 0.30931(5) 0.79110(5) 0.51797(4)
O16_6 O 0.33044(5) 0.77016(6) 0.49880(5)
C40_6 C 0.29747(5) 0.78216(5) 0.48375(5)
C41_6 C 0.29750(5) 0.76662(5) 0.46828(5)
H20_6 H 0.3083 0.7560 0.4685
C42_6 C 0.31363(6) 0.78047(7) 0.50179(7)
O17_6 O 0.29110(5) 0.73203(4) 0.44069(5)
O18_6 O 0.27016(6) 0.75120(5) 0.41956(5)
C43_6 C 0.28216(5) 0.76625(5) 0.45253(5)
C44_6 C 0.26662(5) 0.78172(5) 0.45250(5)
H21_6 H 0.2560 0.7815 0.4417
C45_6 C 0.28047(7) 0.74821(7) 0.43637(6)
Zn3_6 Zn 0.331468(9) 0.784656(11) 0.538606(8)
Zn4_6 Zn 0.369206(11) 0.795467(13) 0.576385(10)
O19_6 O 0.33859(5) 0.75645(6) 0.54754(4)
O20_6 O 0.36316(7) 0.76486(7) 0.57126(8)
O21_6 O 0.40109(6) 0.71053(8) 0.61104(7)
O22_6 O 0.39396(8) 0.67820(10) 0.60708(9)
O23_6 O 0.33647(5) 0.65686(7) 0.55736(6)
O24_6 O 0.31414(5) 0.68242(6) 0.54696(7)
C46_6 C 0.35443(7) 0.72842(9) 0.56840(7)
C47_6 C 0.37084(8) 0.72326(10) 0.58267(7)
H22_6 H 0.3799 0.7340 0.5884
C48_6 C 0.37334(8) 0.70250(11) 0.58794(9)
C49_6 C 0.36106(7) 0.68655(10) 0.57879(7)
H23_6 H 0.3636 0.6720 0.5820
C50_6 C 0.34442(6) 0.69246(9) 0.56435(7)
C51_6 C 0.34150(6) 0.71384(9) 0.56009(7)
H24_6 H 0.3301 0.7182 0.5511
C52_6 C 0.35213(8) 0.75162(12) 0.56183(9)
C53_6 C 0.39060(10) 0.69619(13) 0.60299(10)
C54_6 C 0.33031(7) 0.67607(10) 0.55557(8)
Zn5_6 Zn 0.284656(11) 0.711394(8) 0.418532(9)
Zn6_6 Zn 0.295467(13) 0.673615(10) 0.380794(11)
O25_6 O 0.25645(6) 0.70246(4) 0.41141(5)
O26_6 O 0.26486(7) 0.67874(8) 0.38684(7)
O27_6 O 0.21053(8) 0.63896(7) 0.34891(6)
O28_6 O 0.17820(10) 0.64292(9) 0.35604(8)
O29_6 O 0.15686(7) 0.69264(6) 0.41353(5)
O30_6 O 0.18242(6) 0.70304(7) 0.43586(5)
C55_6 C 0.22842(9) 0.68160(7) 0.39557(7)
C56_6 C 0.22326(10) 0.66733(7) 0.37916(8)
H25_6 H 0.2340 0.6616 0.3701
C57_6 C 0.20250(11) 0.66206(9) 0.37666(8)
C58_6 C 0.18655(10) 0.67121(7) 0.38894(7)
H26_6 H 0.1720 0.6680 0.3864
C59_6 C 0.19246(9) 0.68565(7) 0.40558(6)
C60_6 C 0.21384(9) 0.68991(7) 0.40850(6)
H27_6 H 0.2182 0.6989 0.4199
C61_6 C 0.25162(12) 0.68817(9) 0.39787(8)
C62_6 C 0.19619(13) 0.64701(10) 0.35940(10)
C63_6 C 0.17607(10) 0.69443(8) 0.41969(7)
Zn7_14 Zn 0.418532(9) 0.965344(11) 0.538606(8)
Zn9_6 Zn 0.288606(8) 0.668532(9) 0.534656(11)
Zn10_6 Zn 0.168532(9) 0.715344(11) 0.461394(8)
Zn11_6 Zn 0.215344(11) 0.788606(8) 0.581468(9)
Zn17_6 Zn 0.326385(10) 0.630794(11) 0.545467(13)
Zn18_6 Zn 0.130794(11) 0.704533(13) 0.423615(10)
Zn19_6 Zn 0.204533(13) 0.826385(10) 0.619206(11)
O31_6 O 0.38896(7) 0.78947(8) 0.59891(6)
O32_6 O 0.28947(8) 0.65109(6) 0.36104(7)
O33_6 O 0.15109(6) 0.88896(7) 0.46053(8)
O34_6 O 0.30736(6) 0.66353(5) 0.40686(7)
O35_6 O 0.16353(5) 0.84314(7) 0.44264(6)
O36_6 O 0.34314(7) 0.80736(6) 0.58647(5)
O37_6 O 0.29696(7) 0.68586(5) 0.43242(6)
O38_6 O 0.18586(5) 0.81758(6) 0.45304(7)
O39_6 O 0.31758(6) 0.79696(7) 0.56414(5)
O40_6 O 0.38365(6) 0.80262(8) 0.55089(7)
O41_6 O 0.30262(8) 0.69911(7) 0.36635(6)
O42_6 O 0.35562(8) 0.80235(7) 0.53042(6)
O43_6 O 0.30235(7) 0.71958(6) 0.39438(8)
Zn1_7 Zn 0.538606(8) 0.331468(9) 0.784656(11)
Zn2_7 Zn 0.576385(10) 0.369206(11) 0.795467(13)
O1_7 O 0.54754(4) 0.33859(5) 0.75645(6)
O2_7 O 0.57126(8) 0.36316(7) 0.76486(7)
O3_7 O 0.61104(7) 0.40109(6) 0.71053(8)
O4_7 O 0.60708(9) 0.39396(8) 0.67820(10)
O5_7 O 0.55736(6) 0.33647(5) 0.65686(7)
O6_7 O 0.54696(7) 0.31414(5) 0.68242(6)
C1_7 C 0.56840(7) 0.35443(7) 0.72842(9)
C2_7 C 0.58267(7) 0.37084(8) 0.72326(10)
H1_7 H 0.5884 0.3799 0.7340
C3_7 C 0.58794(9) 0.37334(8) 0.70250(11)
C4_7 C 0.57879(7) 0.36106(7) 0.68655(10)
H2_7 H 0.5820 0.3636 0.6720
C5_7 C 0.56435(7) 0.34442(6) 0.69246(9)
C6_7 C 0.56009(7) 0.34150(6) 0.71384(9)
H3_7 H 0.5511 0.3301 0.7182
C7_7 C 0.56183(9) 0.35213(8) 0.75162(12)
C8_7 C 0.60299(10) 0.39060(10) 0.69619(13)
C9_7 C 0.55557(8) 0.33031(7) 0.67607(10)
O7_7 O 0.55089(7) 0.38365(6) 0.80262(8)
O8_7 O 0.53042(6) 0.35562(8) 0.80235(7)
C10_15 C 0.51451(10) 0.38861(10) 0.80560(12)
C11_15 C 0.49471(11) 0.38023(12) 0.80148(12)
H4_15 H 0.4930 0.3655 0.7982
C12_15 C 0.47777(14) 0.39340(15) 0.80217(13)
H5_15 H 0.4643 0.3882 0.7976
C13_15 C 0.47929(13) 0.41387(16) 0.80914(14)
C14_15 C 0.49883(16) 0.42262(14) 0.81454(19)
H6_15 H 0.5003 0.4371 0.8186
C15_15 C 0.51566(14) 0.40924(14) 0.81361(17)
H7_15 H 0.5290 0.4142 0.8187
C16_15 C 0.53326(10) 0.37530(10) 0.80312(11)
C17_15 C 0.46067(16) 0.43056(15) 0.8078(2)
O9_7 O 0.51797(4) 0.30931(5) 0.79110(5)
O10_7 O 0.49880(5) 0.33044(5) 0.77016(6)
C18_15 C 0.45784(19) 0.4459(2) 0.82153(17)
H8_15 H 0.4671 0.4468 0.8335
C19_7 C 0.48375(5) 0.29747(5) 0.78216(5)
C20_7 C 0.46828(5) 0.29750(5) 0.76662(5)
H9_7 H 0.4685 0.3083 0.7560
C21_7 C 0.50179(7) 0.31363(6) 0.78047(7)
O11_15 O 0.38365(6) 0.44738(8) 0.69911(7)
O12_15 O 0.35562(8) 0.44765(7) 0.71958(6)
C22_15 C 0.38861(10) 0.44440(12) 0.73549(10)
C23_15 C 0.38023(12) 0.44852(12) 0.75529(11)
H10_15 H 0.3655 0.4518 0.7570
C24_15 C 0.39340(15) 0.44783(13) 0.77223(14)
H11_15 H 0.3882 0.4524 0.7857
C25_15 C 0.41387(16) 0.44086(14) 0.77071(13)
C26_15 C 0.42262(14) 0.43546(19) 0.75117(16)
H12_15 H 0.4371 0.4314 0.7497
C27_15 C 0.40924(14) 0.43639(17) 0.73434(14)
H13_15 H 0.4142 0.4313 0.7210
C28_15 C 0.37530(10) 0.44688(11) 0.71674(10)
C29_15 C 0.43056(15) 0.4422(2) 0.78933(16)
C30_15 C 0.4459(2) 0.42847(17) 0.79216(19)
H14_15 H 0.4468 0.4165 0.7829
O13_15 O 0.44738(8) 0.55089(7) 0.86635(6)
O14_15 O 0.44765(7) 0.53042(6) 0.89438(8)
C31_15 C 0.44440(12) 0.51451(10) 0.86139(10)
C32_15 C 0.44852(12) 0.49471(11) 0.86977(12)
H15_15 H 0.4518 0.4930 0.8845
C33_15 C 0.44783(13) 0.47777(14) 0.85660(15)
H16_15 H 0.4524 0.4643 0.8618
C34_15 C 0.44086(14) 0.47929(13) 0.83613(16)
C35_15 C 0.43546(19) 0.49883(16) 0.82738(14)
H17_15 H 0.4314 0.5003 0.8129
C36_15 C 0.43639(17) 0.51566(14) 0.84076(14)
H18_15 H 0.4313 0.5290 0.8358
C37_15 C 0.44688(11) 0.53326(10) 0.87470(10)
C38_15 C 0.4422(2) 0.46067(16) 0.81944(15)
C39_15 C 0.42847(17) 0.45784(19) 0.8041(2)
H19_15 H 0.4165 0.4671 0.8032
O15_7 O 0.44069(5) 0.29110(5) 0.73203(4)
O16_7 O 0.41956(5) 0.27016(6) 0.75120(5)
C40_7 C 0.45253(5) 0.28216(5) 0.76625(5)
C41_7 C 0.45250(5) 0.26662(5) 0.78172(5)
H20_7 H 0.4417 0.2560 0.7815
C42_7 C 0.43637(6) 0.28047(7) 0.74821(7)
O17_7 O 0.45890(5) 0.23203(4) 0.80931(5)
O18_7 O 0.47984(6) 0.25120(5) 0.83044(5)
C43_7 C 0.46784(5) 0.26625(5) 0.79747(5)
C44_7 C 0.48338(5) 0.28172(5) 0.79750(5)
H21_7 H 0.4940 0.2815 0.8083
C45_7 C 0.46953(7) 0.24821(7) 0.81363(6)
Zn3_7 Zn 0.418532(9) 0.284656(11) 0.711394(8)
Zn4_7 Zn 0.380794(11) 0.295467(13) 0.673615(10)
O19_7 O 0.41141(5) 0.25645(6) 0.70246(4)
O20_7 O 0.38684(7) 0.26486(7) 0.67874(8)
O21_7 O 0.34891(6) 0.21053(8) 0.63896(7)
O22_7 O 0.35604(8) 0.17820(10) 0.64292(9)
O23_7 O 0.41353(5) 0.15686(7) 0.69264(6)
O24_7 O 0.43586(5) 0.18242(6) 0.70304(7)
C46_7 C 0.39557(7) 0.22842(9) 0.68160(7)
C47_7 C 0.37916(8) 0.22326(10) 0.66733(7)
H22_7 H 0.3701 0.2340 0.6616
C48_7 C 0.37666(8) 0.20250(11) 0.66206(9)
C49_7 C 0.38894(7) 0.18655(10) 0.67121(7)
H23_7 H 0.3864 0.1720 0.6680
C50_7 C 0.40558(6) 0.19246(9) 0.68565(7)
C51_7 C 0.40850(6) 0.21384(9) 0.68991(7)
H24_7 H 0.4199 0.2182 0.6989
C52_7 C 0.39787(8) 0.25162(12) 0.68817(9)
C53_7 C 0.35940(10) 0.19619(13) 0.64701(10)
C54_7 C 0.41969(7) 0.17607(10) 0.69443(8)
Zn5_7 Zn 0.465344(11) 0.211394(8) 0.831468(9)
Zn6_7 Zn 0.454533(13) 0.173615(10) 0.869206(11)
O25_7 O 0.49355(6) 0.20246(4) 0.83859(5)
O26_7 O 0.48514(7) 0.17874(8) 0.86316(7)
O27_7 O 0.53947(8) 0.13896(7) 0.90109(6)
O28_7 O 0.57180(10) 0.14292(9) 0.89396(8)
O29_7 O 0.59314(7) 0.19264(6) 0.83647(5)
O30_7 O 0.56758(6) 0.20304(7) 0.81414(5)
C55_7 C 0.52158(9) 0.18160(7) 0.85443(7)
C56_7 C 0.52674(10) 0.16733(7) 0.87084(8)
H25_7 H 0.5160 0.1616 0.8799
C57_7 C 0.54750(11) 0.16206(9) 0.87334(8)
C58_7 C 0.56345(10) 0.17121(7) 0.86106(7)
H26_7 H 0.5780 0.1680 0.8636
C59_7 C 0.55754(9) 0.18565(7) 0.84442(6)
C60_7 C 0.53616(9) 0.18991(7) 0.84150(6)
H27_7 H 0.5318 0.1989 0.8301
C61_7 C 0.49838(12) 0.18817(9) 0.85213(8)
C62_7 C 0.55381(13) 0.14701(10) 0.89060(10)
C63_7 C 0.57393(10) 0.19443(8) 0.83031(7)
Zn7_15 Zn 0.331468(9) 0.465344(11) 0.711394(8)
Zn8_15 Zn 0.465344(11) 0.538606(8) 0.918532(9)
Zn9_7 Zn 0.461394(8) 0.168532(9) 0.715344(11)
Zn10_7 Zn 0.581468(9) 0.215344(11) 0.788606(8)
Zn11_7 Zn 0.534656(11) 0.288606(8) 0.668532(9)
Zn15_15 Zn 0.454533(13) 0.576385(10) 0.880794(11)
Zn17_7 Zn 0.423615(10) 0.130794(11) 0.704533(13)
Zn18_7 Zn 0.619206(11) 0.204533(13) 0.826385(10)
Zn19_7 Zn 0.545467(13) 0.326385(10) 0.630794(11)
O31_7 O 0.36104(7) 0.28947(8) 0.65109(6)
O32_7 O 0.46053(8) 0.15109(6) 0.88896(7)
O33_7 O 0.59891(6) 0.38896(7) 0.78947(8)
O34_7 O 0.44264(6) 0.16353(5) 0.84314(7)
O35_7 O 0.58647(5) 0.34314(7) 0.80736(6)
O36_7 O 0.40686(7) 0.30736(6) 0.66353(5)
O37_7 O 0.45304(7) 0.18586(5) 0.81758(6)
O38_7 O 0.56414(5) 0.31758(6) 0.79696(7)
O39_7 O 0.43242(6) 0.29696(7) 0.68586(5)
O40_7 O 0.36635(6) 0.30262(8) 0.69911(7)
O41_7 O 0.44738(8) 0.19911(7) 0.88365(6)
O42_7 O 0.39438(8) 0.30235(7) 0.71958(6)
O43_7 O 0.44765(7) 0.21958(6) 0.85562(8)
Zn1_8 Zn 0.711394(8) 0.418532(9) 0.284656(11)
Zn2_8 Zn 0.673615(10) 0.380794(11) 0.295467(13)
O1_8 O 0.70246(4) 0.41141(5) 0.25645(6)
O2_8 O 0.67874(8) 0.38684(7) 0.26486(7)
O3_8 O 0.63896(7) 0.34891(6) 0.21053(8)
O4_8 O 0.64292(9) 0.35604(8) 0.17820(10)
O5_8 O 0.69264(6) 0.41353(5) 0.15686(7)
O6_8 O 0.70304(7) 0.43586(5) 0.18242(6)
C1_8 C 0.68160(7) 0.39557(7) 0.22842(9)
C2_8 C 0.66733(7) 0.37916(8) 0.22326(10)
H1_8 H 0.6616 0.3701 0.2340
C3_8 C 0.66206(9) 0.37666(8) 0.20250(11)
C4_8 C 0.67121(7) 0.38894(7) 0.18655(10)
H2_8 H 0.6680 0.3864 0.1720
C5_8 C 0.68565(7) 0.40558(6) 0.19246(9)
C6_8 C 0.68991(7) 0.40850(6) 0.21384(9)
H3_8 H 0.6989 0.4199 0.2182
C7_8 C 0.68817(9) 0.39787(8) 0.25162(12)
C8_8 C 0.64701(10) 0.35940(10) 0.19619(13)
C9_8 C 0.69443(8) 0.41969(7) 0.17607(10)
O7_8 O 0.69911(7) 0.36635(6) 0.30262(8)
O8_8 O 0.71958(6) 0.39438(8) 0.30235(7)
C10_16 C 0.73549(10) 0.36139(10) 0.30560(12)
C11_16 C 0.75529(11) 0.36977(12) 0.30148(12)
H4_16 H 0.7570 0.3845 0.2982
C12_16 C 0.77223(14) 0.35660(15) 0.30217(13)
H5_16 H 0.7857 0.3618 0.2976
C13_16 C 0.77071(13) 0.33613(16) 0.30914(14)
C14_16 C 0.75117(16) 0.32738(14) 0.31454(19)
H6_16 H 0.7497 0.3129 0.3186
C15_16 C 0.73434(14) 0.34076(14) 0.31361(17)
H7_16 H 0.7210 0.3358 0.3187
C16_16 C 0.71674(10) 0.37470(10) 0.30312(11)
C17_16 C 0.78933(16) 0.31944(15) 0.3078(2)
O9_8 O 0.73203(4) 0.44069(5) 0.29110(5)
O10_8 O 0.75120(5) 0.41956(5) 0.27016(6)
C18_16 C 0.79216(19) 0.3041(2) 0.32153(17)
H8_16 H 0.7829 0.3032 0.3335
C19_8 C 0.76625(5) 0.45253(5) 0.28216(5)
C20_8 C 0.78172(5) 0.45250(5) 0.26662(5)
H9_8 H 0.7815 0.4417 0.2560
C21_8 C 0.74821(7) 0.43637(6) 0.28047(7)
O11_16 O 0.86635(6) 0.30262(8) 0.19911(7)
O12_16 O 0.89438(8) 0.30235(7) 0.21958(6)
C22_16 C 0.86139(10) 0.30560(12) 0.23549(10)
C23_16 C 0.86977(12) 0.30148(12) 0.25529(11)
H10_16 H 0.8845 0.2982 0.2570
C24_16 C 0.85660(15) 0.30217(13) 0.27223(14)
H11_16 H 0.8618 0.2976 0.2857
C25_16 C 0.83613(16) 0.30914(14) 0.27071(13)
C26_16 C 0.82738(14) 0.31454(19) 0.25117(16)
H12_16 H 0.8129 0.3186 0.2497
C27_16 C 0.84076(14) 0.31361(17) 0.23434(14)
H13_16 H 0.8358 0.3187 0.2210
C28_16 C 0.87470(10) 0.30312(11) 0.21674(10)
C29_16 C 0.81944(15) 0.3078(2) 0.28933(16)
C30_16 C 0.8041(2) 0.32153(17) 0.29216(19)
H14_16 H 0.8032 0.3335 0.2829
O13_16 O 0.80262(8) 0.19911(7) 0.36635(6)
O14_16 O 0.80235(7) 0.21958(6) 0.39438(8)
C31_16 C 0.80560(12) 0.23549(10) 0.36139(10)
C32_16 C 0.80148(12) 0.25529(11) 0.36977(12)
H15_16 H 0.7982 0.2570 0.3845
C33_16 C 0.80217(13) 0.27223(14) 0.35660(15)
H16_16 H 0.7976 0.2857 0.3618
C34_16 C 0.80914(14) 0.27071(13) 0.33613(16)
C35_16 C 0.81454(19) 0.25117(16) 0.32738(14)
H17_16 H 0.8186 0.2497 0.3129
C36_16 C 0.81361(17) 0.23434(14) 0.34076(14)
H18_16 H 0.8187 0.2210 0.3358
C37_16 C 0.80312(11) 0.21674(10) 0.37470(10)
C38_16 C 0.8078(2) 0.28933(16) 0.31944(15)
C39_16 C 0.82153(17) 0.29216(19) 0.3041(2)
H19_16 H 0.8335 0.2829 0.3032
O15_8 O 0.80931(5) 0.45890(5) 0.23203(4)
O16_8 O 0.83044(5) 0.47984(6) 0.25120(5)
C40_8 C 0.79747(5) 0.46784(5) 0.26625(5)
C41_8 C 0.79750(5) 0.48338(5) 0.28172(5)
H20_8 H 0.8083 0.4940 0.2815
C42_8 C 0.81363(6) 0.46953(7) 0.24821(7)
O17_8 O 0.79110(5) 0.51797(4) 0.30931(5)
O18_8 O 0.77016(6) 0.49880(5) 0.33044(5)
C43_8 C 0.78216(5) 0.48375(5) 0.29747(5)
C44_8 C 0.76662(5) 0.46828(5) 0.29750(5)
H21_8 H 0.7560 0.4685 0.3083
C45_8 C 0.78047(7) 0.50179(7) 0.31363(6)
Zn3_8 Zn 0.831468(9) 0.465344(11) 0.211394(8)
Zn4_8 Zn 0.869206(11) 0.454533(13) 0.173615(10)
O19_8 O 0.83859(5) 0.49355(6) 0.20246(4)
O20_8 O 0.86316(7) 0.48514(7) 0.17874(8)
O21_8 O 0.90109(6) 0.53947(8) 0.13896(7)
O22_8 O 0.89396(8) 0.57180(10) 0.14292(9)
O23_8 O 0.83647(5) 0.59314(7) 0.19264(6)
O24_8 O 0.81414(5) 0.56758(6) 0.20304(7)
C46_8 C 0.85443(7) 0.52158(9) 0.18160(7)
C47_8 C 0.87084(8) 0.52674(10) 0.16733(7)
H22_8 H 0.8799 0.5160 0.1616
C48_8 C 0.87334(8) 0.54750(11) 0.16206(9)
C49_8 C 0.86106(7) 0.56345(10) 0.17121(7)
H23_8 H 0.8636 0.5780 0.1680
C50_8 C 0.84442(6) 0.55754(9) 0.18565(7)
C51_8 C 0.84150(6) 0.53616(9) 0.18991(7)
H24_8 H 0.8301 0.5318 0.1989
C52_8 C 0.85213(8) 0.49838(12) 0.18817(9)
C53_8 C 0.89060(10) 0.55381(13) 0.14701(10)
C54_8 C 0.83031(7) 0.57393(10) 0.19443(8)
Zn5_8 Zn 0.784656(11) 0.538606(8) 0.331468(9)
Zn6_8 Zn 0.795467(13) 0.576385(10) 0.369206(11)
O25_8 O 0.75645(6) 0.54754(4) 0.33859(5)
O26_8 O 0.76486(7) 0.57126(8) 0.36316(7)
O27_8 O 0.71053(8) 0.61104(7) 0.40109(6)
O28_8 O 0.67820(10) 0.60708(9) 0.39396(8)
O29_8 O 0.65686(7) 0.55736(6) 0.33647(5)
O30_8 O 0.68242(6) 0.54696(7) 0.31414(5)
C55_8 C 0.72842(9) 0.56840(7) 0.35443(7)
C56_8 C 0.72326(10) 0.58267(7) 0.37084(8)
H25_8 H 0.7340 0.5884 0.3799
C57_8 C 0.70250(11) 0.58794(9) 0.37334(8)
C58_8 C 0.68655(10) 0.57879(7) 0.36106(7)
H26_8 H 0.6720 0.5820 0.3636
C59_8 C 0.69246(9) 0.56435(7) 0.34442(6)
C60_8 C 0.71384(9) 0.56009(7) 0.34150(6)
H27_8 H 0.7182 0.5511 0.3301
C61_8 C 0.75162(12) 0.56183(9) 0.35213(8)
C62_8 C 0.69619(13) 0.60299(10) 0.39060(10)
C63_8 C 0.67607(10) 0.55557(8) 0.33031(7)
Zn7_16 Zn 0.918532(9) 0.284656(11) 0.211394(8)
Zn8_16 Zn 0.784656(11) 0.211394(8) 0.418532(9)
Zn9_8 Zn 0.788606(8) 0.581468(9) 0.215344(11)
Zn10_8 Zn 0.668532(9) 0.534656(11) 0.288606(8)
Zn11_8 Zn 0.715344(11) 0.461394(8) 0.168532(9)
Zn15_16 Zn 0.795467(13) 0.173615(10) 0.380794(11)
Zn17_8 Zn 0.826385(10) 0.619206(11) 0.204533(13)
Zn18_8 Zn 0.630794(11) 0.545467(13) 0.326385(10)
Zn19_8 Zn 0.704533(13) 0.423615(10) 0.130794(11)
O31_8 O 0.88896(7) 0.46053(8) 0.15109(6)
O32_8 O 0.78947(8) 0.59891(6) 0.38896(7)
O33_8 O 0.65109(6) 0.36104(7) 0.28947(8)
O34_8 O 0.80736(6) 0.58647(5) 0.34314(7)
O35_8 O 0.66353(5) 0.40686(7) 0.30736(6)
O36_8 O 0.84314(7) 0.44264(6) 0.16353(5)
O37_8 O 0.79696(7) 0.56414(5) 0.31758(6)
O38_8 O 0.68586(5) 0.43242(6) 0.29696(7)
O39_8 O 0.81758(6) 0.45304(7) 0.18586(5)
O40_8 O 0.88365(6) 0.44738(8) 0.19911(7)
O41_8 O 0.80262(8) 0.55089(7) 0.38365(6)
O42_8 O 0.85562(8) 0.44765(7) 0.21958(6)
O43_8 O 0.80235(7) 0.53042(6) 0.35562(8)
C10_17 C 0.36139(10) 0.30560(12) 0.73549(10)
C11_17 C 0.36977(12) 0.30148(12) 0.75529(11)
H4_17 H 0.3845 0.2982 0.7570
C12_17 C 0.35660(15) 0.30217(13) 0.77223(14)
H5_17 H 0.3618 0.2976 0.7857
C13_17 C 0.33613(16) 0.30914(14) 0.77071(13)
C14_17 C 0.32738(14) 0.31454(19) 0.75117(16)
H6_17 H 0.3129 0.3186 0.7497
C15_17 C 0.34076(14) 0.31361(17) 0.73434(14)
H7_17 H 0.3358 0.3187 0.7210
C16_17 C 0.37470(10) 0.30312(11) 0.71674(10)
C17_17 C 0.31944(15) 0.3078(2) 0.78933(16)
C18_17 C 0.3041(2) 0.32153(17) 0.79216(19)
H8_17 H 0.3032 0.3335 0.7829
O11_17 O 0.30262(8) 0.19911(7) 0.86635(6)
O12_17 O 0.30235(7) 0.21958(6) 0.89438(8)
C22_17 C 0.30560(12) 0.23549(10) 0.86139(10)
C23_17 C 0.30148(12) 0.25529(11) 0.86977(12)
H10_17 H 0.2982 0.2570 0.8845
C24_17 C 0.30217(13) 0.27223(14) 0.85660(15)
H11_17 H 0.2976 0.2857 0.8618
C25_17 C 0.30914(14) 0.27071(13) 0.83613(16)
C26_17 C 0.31454(19) 0.25117(16) 0.82738(14)
H12_17 H 0.3186 0.2497 0.8129
C27_17 C 0.31361(17) 0.23434(14) 0.84076(14)
H13_17 H 0.3187 0.2210 0.8358
C28_17 C 0.30312(11) 0.21674(10) 0.87470(10)
C29_17 C 0.3078(2) 0.28933(16) 0.81944(15)
C30_17 C 0.32153(17) 0.29216(19) 0.8041(2)
H14_17 H 0.3335 0.2829 0.8032
O13_17 O 0.19911(7) 0.36635(6) 0.80262(8)
O14_17 O 0.21958(6) 0.39438(8) 0.80235(7)
C31_17 C 0.23549(10) 0.36139(10) 0.80560(12)
C32_17 C 0.25529(11) 0.36977(12) 0.80148(12)
H15_17 H 0.2570 0.3845 0.7982
C33_17 C 0.27223(14) 0.35660(15) 0.80217(13)
H16_17 H 0.2857 0.3618 0.7976
C34_17 C 0.27071(13) 0.33613(16) 0.80914(14)
C35_17 C 0.25117(16) 0.32738(14) 0.81454(19)
H17_17 H 0.2497 0.3129 0.8186
C36_17 C 0.23434(14) 0.34076(14) 0.81361(17)
H18_17 H 0.2210 0.3358 0.8187
C37_17 C 0.21674(10) 0.37470(10) 0.80312(11)
C38_17 C 0.28933(16) 0.31944(15) 0.8078(2)
C39_17 C 0.29216(19) 0.3041(2) 0.82153(17)
H19_17 H 0.2829 0.3032 0.8335
Zn7_17 Zn 0.284656(11) 0.211394(8) 0.918532(9)
Zn8_17 Zn 0.211394(8) 0.418532(9) 0.784656(11)
Zn15_17 Zn 0.173615(10) 0.380794(11) 0.795467(13)
C10_18 C 0.38861(10) 0.80560(12) 0.51451(10)
C11_18 C 0.38023(12) 0.80148(12) 0.49471(11)
H4_18 H 0.3655 0.7982 0.4930
C12_18 C 0.39340(15) 0.80217(13) 0.47777(14)
H5_18 H 0.3882 0.7976 0.4643
C13_18 C 0.41387(16) 0.80914(14) 0.47929(13)
C14_18 C 0.42262(14) 0.81454(19) 0.49883(16)
H6_18 H 0.4371 0.8186 0.5003
C15_18 C 0.40924(14) 0.81361(17) 0.51566(14)
H7_18 H 0.4142 0.8187 0.5290
C16_18 C 0.37530(10) 0.80312(11) 0.53326(10)
C17_18 C 0.43056(15) 0.8078(2) 0.46067(16)
C18_18 C 0.4459(2) 0.82153(17) 0.45784(19)
H8_18 H 0.4468 0.8335 0.4671
O11_18 O 0.44738(8) 0.69911(7) 0.38365(6)
O12_18 O 0.44765(7) 0.71958(6) 0.35562(8)
C22_18 C 0.44440(12) 0.73549(10) 0.38861(10)
C23_18 C 0.44852(12) 0.75529(11) 0.38023(12)
H10_18 H 0.4518 0.7570 0.3655
C24_18 C 0.44783(13) 0.77223(14) 0.39340(15)
H11_18 H 0.4524 0.7857 0.3882
C25_18 C 0.44086(14) 0.77071(13) 0.41387(16)
C26_18 C 0.43546(19) 0.75117(16) 0.42262(14)
H12_18 H 0.4314 0.7497 0.4371
C27_18 C 0.43639(17) 0.73434(14) 0.40924(14)
H13_18 H 0.4313 0.7210 0.4142
C28_18 C 0.44688(11) 0.71674(10) 0.37530(10)
C29_18 C 0.4422(2) 0.78933(16) 0.43056(15)
C30_18 C 0.42847(17) 0.79216(19) 0.4459(2)
H14_18 H 0.4165 0.7829 0.4468
O13_18 O 0.55089(7) 0.86635(6) 0.44738(8)
O14_18 O 0.53042(6) 0.89438(8) 0.44765(7)
C31_18 C 0.51451(10) 0.86139(10) 0.44440(12)
C32_18 C 0.49471(11) 0.86977(12) 0.44852(12)
H15_18 H 0.4930 0.8845 0.4518
C33_18 C 0.47777(14) 0.85660(15) 0.44783(13)
H16_18 H 0.4643 0.8618 0.4524
C34_18 C 0.47929(13) 0.83613(16) 0.44086(14)
C35_18 C 0.49883(16) 0.82738(14) 0.43546(19)
H17_18 H 0.5003 0.8129 0.4314
C36_18 C 0.51566(14) 0.84076(14) 0.43639(17)
H18_18 H 0.5290 0.8358 0.4313
C37_18 C 0.53326(10) 0.87470(10) 0.44688(11)
C38_18 C 0.46067(16) 0.81944(15) 0.4422(2)
C39_18 C 0.45784(19) 0.8041(2) 0.42847(17)
H19_18 H 0.4671 0.8032 0.4165
Zn7_18 Zn 0.465344(11) 0.711394(8) 0.331468(9)
Zn8_18 Zn 0.538606(8) 0.918532(9) 0.465344(11)
Zn15_18 Zn 0.576385(10) 0.880794(11) 0.454533(13)
O13_19 O 0.05089(7) 0.38365(6) 0.30262(8)
O14_19 O 0.03042(6) 0.35562(8) 0.30235(7)
C31_19 C 0.01451(10) 0.38861(10) 0.30560(12)
H17_19 H 0.0003 0.4371 0.3186
C36_19 C 0.01566(14) 0.40924(14) 0.31361(17)
H18_19 H 0.0290 0.4142 0.3187
C37_19 C 0.03326(10) 0.37530(10) 0.30312(11)
Zn8_19 Zn 0.038606(8) 0.331468(9) 0.284656(11)
Zn15_19 Zn 0.076385(10) 0.369206(11) 0.295467(13)
C10_19 C 0.88861(10) 0.44440(12) 0.23549(10)
C11_19 C 0.88023(12) 0.44852(12) 0.25529(11)
H4_19 H 0.8655 0.4518 0.2570
C12_19 C 0.89340(15) 0.44783(13) 0.27223(14)
H5_19 H 0.8882 0.4524 0.2857
C13_19 C 0.91387(16) 0.44086(14) 0.27071(13)
C14_19 C 0.92262(14) 0.43546(19) 0.25117(16)
H6_19 H 0.9371 0.4314 0.2497
C15_19 C 0.90924(14) 0.43639(17) 0.23434(14)
H7_19 H 0.9142 0.4313 0.2210
C16_19 C 0.87530(10) 0.44688(11) 0.21674(10)
C17_19 C 0.93056(15) 0.4422(2) 0.28933(16)
C18_19 C 0.9459(2) 0.42847(17) 0.29216(19)
H8_19 H 0.9468 0.4165 0.2829
O11_19 O 0.94738(8) 0.55089(7) 0.36635(6)
O12_19 O 0.94765(7) 0.53042(6) 0.39438(8)
C22_19 C 0.94440(12) 0.51451(10) 0.36139(10)
C23_19 C 0.94852(12) 0.49471(11) 0.36977(12)
H10_19 H 0.9518 0.4930 0.3845
C24_19 C 0.94783(13) 0.47777(14) 0.35660(15)
H11_19 H 0.9524 0.4643 0.3618
C25_19 C 0.94086(14) 0.47929(13) 0.33613(16)
C26_19 C 0.93546(19) 0.49883(16) 0.32738(14)
H12_19 H 0.9314 0.5003 0.3129
C27_19 C 0.93639(17) 0.51566(14) 0.34076(14)
H13_19 H 0.9313 0.5290 0.3358
C28_19 C 0.94688(11) 0.53326(10) 0.37470(10)
C29_19 C 0.9422(2) 0.46067(16) 0.31944(15)
C30_19 C 0.92847(17) 0.45784(19) 0.3041(2)
H14_19 H 0.9165 0.4671 0.3032
C32_19 C 0.99471(11) 0.38023(12) 0.30148(12)
H15_19 H 0.9930 0.3655 0.2982
C33_19 C 0.97777(14) 0.39340(15) 0.30217(13)
H16_19 H 0.9643 0.3882 0.2976
C34_19 C 0.97929(13) 0.41387(16) 0.30914(14)
C35_19 C 0.99883(16) 0.42262(14) 0.31454(19)
C38_19 C 0.96067(16) 0.43056(15) 0.3078(2)
C39_19 C 0.95784(19) 0.4459(2) 0.32153(17)
H19_19 H 0.9671 0.4468 0.3335
Zn7_19 Zn 0.965344(11) 0.538606(8) 0.418532(9)
O11_20 O 0.80262(8) 0.05089(7) 0.88365(6)
O12_20 O 0.80235(7) 0.03042(6) 0.85562(8)
C22_20 C 0.80560(12) 0.01451(10) 0.88861(10)
H12_20 H 0.8186 0.0003 0.9371
C27_20 C 0.81361(17) 0.01566(14) 0.90924(14)
H13_20 H 0.8187 0.0290 0.9142
C28_20 C 0.80312(11) 0.03326(10) 0.87530(10)
Zn7_20 Zn 0.784656(11) 0.038606(8) 0.831468(9)
C10_20 C 0.86139(10) 0.94440(12) 0.01451(10)
H6_20 H 0.8129 0.9314 0.0003
C15_20 C 0.84076(14) 0.93639(17) 0.01566(14)
H7_20 H 0.8358 0.9313 0.0290
C16_20 C 0.87470(10) 0.94688(11) 0.03326(10)
C11_20 C 0.86977(12) 0.94852(12) 0.99471(11)
H4_20 H 0.8845 0.9518 0.9930
C12_20 C 0.85660(15) 0.94783(13) 0.97777(14)
H5_20 H 0.8618 0.9524 0.9643
C13_20 C 0.83613(16) 0.94086(14) 0.97929(13)
C14_20 C 0.82738(14) 0.93546(19) 0.99883(16)
C17_20 C 0.81944(15) 0.9422(2) 0.96067(16)
C18_20 C 0.8041(2) 0.92847(17) 0.95784(19)
H8_20 H 0.8032 0.9165 0.9671
C23_20 C 0.80148(12) 0.99471(11) 0.88023(12)
H10_20 H 0.7982 0.9930 0.8655
C24_20 C 0.80217(13) 0.97777(14) 0.89340(15)
H11_20 H 0.7976 0.9643 0.8882
C25_20 C 0.80914(14) 0.97929(13) 0.91387(16)
C26_20 C 0.81454(19) 0.99883(16) 0.92262(14)
C29_20 C 0.8078(2) 0.96067(16) 0.93056(15)
C30_20 C 0.82153(17) 0.95784(19) 0.9459(2)
H14_20 H 0.8335 0.9671 0.9468
O13_20 O 0.69911(7) 0.88365(6) 0.94738(8)
O14_20 O 0.71958(6) 0.85562(8) 0.94765(7)
C31_20 C 0.73549(10) 0.88861(10) 0.94440(12)
C32_20 C 0.75529(11) 0.88023(12) 0.94852(12)
H15_20 H 0.7570 0.8655 0.9518
C33_20 C 0.77223(14) 0.89340(15) 0.94783(13)
H16_20 H 0.7857 0.8882 0.9524
C34_20 C 0.77071(13) 0.91387(16) 0.94086(14)
C35_20 C 0.75117(16) 0.92262(14) 0.93546(19)
H17_20 H 0.7497 0.9371 0.9314
C36_20 C 0.73434(14) 0.90924(14) 0.93639(17)
H18_20 H 0.7210 0.9142 0.9313
C37_20 C 0.71674(10) 0.87530(10) 0.94688(11)
C38_20 C 0.78933(16) 0.93056(15) 0.9422(2)
C39_20 C 0.79216(19) 0.9459(2) 0.92847(17)
H19_20 H 0.7829 0.9468 0.9165
Zn8_20 Zn 0.711394(8) 0.831468(9) 0.965344(11)
Zn15_20 Zn 0.673615(10) 0.869206(11) 0.954533(13)
C10_21 C 0.80560(12) 0.51451(10) 0.38861(10)
C11_21 C 0.80148(12) 0.49471(11) 0.38023(12)
H4_21 H 0.7982 0.4930 0.3655
C12_21 C 0.80217(13) 0.47777(14) 0.39340(15)
H5_21 H 0.7976 0.4643 0.3882
C13_21 C 0.80914(14) 0.47929(13) 0.41387(16)
C14_21 C 0.81454(19) 0.49883(16) 0.42262(14)
H6_21 H 0.8186 0.5003 0.4371
C15_21 C 0.81361(17) 0.51566(14) 0.40924(14)
H7_21 H 0.8187 0.5290 0.4142
C16_21 C 0.80312(11) 0.53326(10) 0.37530(10)
C17_21 C 0.8078(2) 0.46067(16) 0.43056(15)
C18_21 C 0.82153(17) 0.45784(19) 0.4459(2)
H8_21 H 0.8335 0.4671 0.4468
O11_21 O 0.69911(7) 0.38365(6) 0.44738(8)
O12_21 O 0.71958(6) 0.35562(8) 0.44765(7)
C22_21 C 0.73549(10) 0.38861(10) 0.44440(12)
C23_21 C 0.75529(11) 0.38023(12) 0.44852(12)
H10_21 H 0.7570 0.3655 0.4518
C24_21 C 0.77223(14) 0.39340(15) 0.44783(13)
H11_21 H 0.7857 0.3882 0.4524
C25_21 C 0.77071(13) 0.41387(16) 0.44086(14)
C26_21 C 0.75117(16) 0.42262(14) 0.43546(19)
H12_21 H 0.7497 0.4371 0.4314
C27_21 C 0.73434(14) 0.40924(14) 0.43639(17)
H13_21 H 0.7210 0.4142 0.4313
C28_21 C 0.71674(10) 0.37530(10) 0.44688(11)
C29_21 C 0.78933(16) 0.43056(15) 0.4422(2)
C30_21 C 0.79216(19) 0.4459(2) 0.42847(17)
H14_21 H 0.7829 0.4468 0.4165
O13_21 O 0.86635(6) 0.44738(8) 0.55089(7)
O14_21 O 0.89438(8) 0.44765(7) 0.53042(6)
C31_21 C 0.86139(10) 0.44440(12) 0.51451(10)
C32_21 C 0.86977(12) 0.44852(12) 0.49471(11)
H15_21 H 0.8845 0.4518 0.4930
C33_21 C 0.85660(15) 0.44783(13) 0.47777(14)
H16_21 H 0.8618 0.4524 0.4643
C34_21 C 0.83613(16) 0.44086(14) 0.47929(13)
C35_21 C 0.82738(14) 0.43546(19) 0.49883(16)
H17_21 H 0.8129 0.4314 0.5003
C36_21 C 0.84076(14) 0.43639(17) 0.51566(14)
H18_21 H 0.8358 0.4313 0.5290
C37_21 C 0.87470(10) 0.44688(11) 0.53326(10)
C38_21 C 0.81944(15) 0.4422(2) 0.46067(16)
C39_21 C 0.8041(2) 0.42847(17) 0.45784(19)
H19_21 H 0.8032 0.4165 0.4671
Zn7_21 Zn 0.711394(8) 0.331468(9) 0.465344(11)
Zn8_21 Zn 0.918532(9) 0.465344(11) 0.538606(8)
Zn15_21 Zn 0.880794(11) 0.454533(13) 0.576385(10)
C10_22 C 0.30560(12) 0.73549(10) 0.36139(10)
C11_22 C 0.30148(12) 0.75529(11) 0.36977(12)
H4_22 H 0.2982 0.7570 0.3845
C12_22 C 0.30217(13) 0.77223(14) 0.35660(15)
H5_22 H 0.2976 0.7857 0.3618
C13_22 C 0.30914(14) 0.77071(13) 0.33613(16)
C14_22 C 0.31454(19) 0.75117(16) 0.32738(14)
H6_22 H 0.3186 0.7497 0.3129
C15_22 C 0.31361(17) 0.73434(14) 0.34076(14)
H7_22 H 0.3187 0.7210 0.3358
C16_22 C 0.30312(11) 0.71674(10) 0.37470(10)
C17_22 C 0.3078(2) 0.78933(16) 0.31944(15)
C18_22 C 0.32153(17) 0.79216(19) 0.3041(2)
H8_22 H 0.3335 0.7829 0.3032
O11_22 O 0.19911(7) 0.86635(6) 0.30262(8)
O12_22 O 0.21958(6) 0.89438(8) 0.30235(7)
C22_22 C 0.23549(10) 0.86139(10) 0.30560(12)
C23_22 C 0.25529(11) 0.86977(12) 0.30148(12)
H10_22 H 0.2570 0.8845 0.2982
C24_22 C 0.27223(14) 0.85660(15) 0.30217(13)
H11_22 H 0.2857 0.8618 0.2976
C25_22 C 0.27071(13) 0.83613(16) 0.30914(14)
C26_22 C 0.25117(16) 0.82738(14) 0.31454(19)
H12_22 H 0.2497 0.8129 0.3186
C27_22 C 0.23434(14) 0.84076(14) 0.31361(17)
H13_22 H 0.2210 0.8358 0.3187
C28_22 C 0.21674(10) 0.87470(10) 0.30312(11)
C29_22 C 0.28933(16) 0.81944(15) 0.3078(2)
C30_22 C 0.29216(19) 0.8041(2) 0.32153(17)
H14_22 H 0.2829 0.8032 0.3335
O13_22 O 0.36635(6) 0.80262(8) 0.19911(7)
O14_22 O 0.39438(8) 0.80235(7) 0.21958(6)
C31_22 C 0.36139(10) 0.80560(12) 0.23549(10)
C32_22 C 0.36977(12) 0.80148(12) 0.25529(11)
H15_22 H 0.3845 0.7982 0.2570
C33_22 C 0.35660(15) 0.80217(13) 0.27223(14)
H16_22 H 0.3618 0.7976 0.2857
C34_22 C 0.33613(16) 0.80914(14) 0.27071(13)
C35_22 C 0.32738(14) 0.81454(19) 0.25117(16)
H17_22 H 0.3129 0.8186 0.2497
C36_22 C 0.34076(14) 0.81361(17) 0.23434(14)
H18_22 H 0.3358 0.8187 0.2210
C37_22 C 0.37470(10) 0.80312(11) 0.21674(10)
C38_22 C 0.31944(15) 0.8078(2) 0.28933(16)
C39_22 C 0.3041(2) 0.82153(17) 0.29216(19)
H19_22 H 0.3032 0.8335 0.2829
Zn7_22 Zn 0.211394(8) 0.918532(9) 0.284656(11)
Zn8_22 Zn 0.418532(9) 0.784656(11) 0.211394(8)
Zn15_22 Zn 0.380794(11) 0.795467(13) 0.173615(10)
O11_23 O 0.05089(7) 0.88365(6) 0.80262(8)
O12_23 O 0.03042(6) 0.85562(8) 0.80235(7)
C22_23 C 0.01451(10) 0.88861(10) 0.80560(12)
H12_23 H 0.0003 0.9371 0.8186
C27_23 C 0.01566(14) 0.90924(14) 0.81361(17)
H13_23 H 0.0290 0.9142 0.8187
C28_23 C 0.03326(10) 0.87530(10) 0.80312(11)
Zn7_23 Zn 0.038606(8) 0.831468(9) 0.784656(11)
C10_23 C 0.94440(12) 0.01451(10) 0.86139(10)
H6_23 H 0.9314 0.0003 0.8129
C15_23 C 0.93639(17) 0.01566(14) 0.84076(14)
H7_23 H 0.9313 0.0290 0.8358
C16_23 C 0.94688(11) 0.03326(10) 0.87470(10)
C11_23 C 0.94852(12) 0.99471(11) 0.86977(12)
H4_23 H 0.9518 0.9930 0.8845
C12_23 C 0.94783(13) 0.97777(14) 0.85660(15)
H5_23 H 0.9524 0.9643 0.8618
C13_23 C 0.94086(14) 0.97929(13) 0.83613(16)
C14_23 C 0.93546(19) 0.99883(16) 0.82738(14)
C17_23 C 0.9422(2) 0.96067(16) 0.81944(15)
C18_23 C 0.92847(17) 0.95784(19) 0.8041(2)
H8_23 H 0.9165 0.9671 0.8032
C23_23 C 0.99471(11) 0.88023(12) 0.80148(12)
H10_23 H 0.9930 0.8655 0.7982
C24_23 C 0.97777(14) 0.89340(15) 0.80217(13)
H11_23 H 0.9643 0.8882 0.7976
C25_23 C 0.97929(13) 0.91387(16) 0.80914(14)
C26_23 C 0.99883(16) 0.92262(14) 0.81454(19)
C29_23 C 0.96067(16) 0.93056(15) 0.8078(2)
C30_23 C 0.95784(19) 0.9459(2) 0.82153(17)
H14_23 H 0.9671 0.9468 0.8335
O13_23 O 0.88365(6) 0.94738(8) 0.69911(7)
O14_23 O 0.85562(8) 0.94765(7) 0.71958(6)
C31_23 C 0.88861(10) 0.94440(12) 0.73549(10)
C32_23 C 0.88023(12) 0.94852(12) 0.75529(11)
H15_23 H 0.8655 0.9518 0.7570
C33_23 C 0.89340(15) 0.94783(13) 0.77223(14)
H16_23 H 0.8882 0.9524 0.7857
C34_23 C 0.91387(16) 0.94086(14) 0.77071(13)
C35_23 C 0.92262(14) 0.93546(19) 0.75117(16)
H17_23 H 0.9371 0.9314 0.7497
C36_23 C 0.90924(14) 0.93639(17) 0.73434(14)
H18_23 H 0.9142 0.9313 0.7210
C37_23 C 0.87530(10) 0.94688(11) 0.71674(10)
C38_23 C 0.93056(15) 0.9422(2) 0.78933(16)
C39_23 C 0.9459(2) 0.92847(17) 0.79216(19)
H19_23 H 0.9468 0.9165 0.7829
Zn8_23 Zn 0.831468(9) 0.965344(11) 0.711394(8)
Zn15_23 Zn 0.869206(11) 0.954533(13) 0.673615(10)
O13_24 O 0.38365(6) 0.30262(8) 0.05089(7)
O14_24 O 0.35562(8) 0.30235(7) 0.03042(6)
C31_24 C 0.38861(10) 0.30560(12) 0.01451(10)
H17_24 H 0.4371 0.3186 0.0003
C36_24 C 0.40924(14) 0.31361(17) 0.01566(14)
H18_24 H 0.4142 0.3187 0.0290
C37_24 C 0.37530(10) 0.30312(11) 0.03326(10)
Zn8_24 Zn 0.331468(9) 0.284656(11) 0.038606(8)
Zn15_24 Zn 0.369206(11) 0.295467(13) 0.076385(10)
C10_24 C 0.44440(12) 0.23549(10) 0.88861(10)
C11_24 C 0.44852(12) 0.25529(11) 0.88023(12)
H4_24 H 0.4518 0.2570 0.8655
C12_24 C 0.44783(13) 0.27223(14) 0.89340(15)
H5_24 H 0.4524 0.2857 0.8882
C13_24 C 0.44086(14) 0.27071(13) 0.91387(16)
C14_24 C 0.43546(19) 0.25117(16) 0.92262(14)
H6_24 H 0.4314 0.2497 0.9371
C15_24 C 0.43639(17) 0.23434(14) 0.90924(14)
H7_24 H 0.4313 0.2210 0.9142
C16_24 C 0.44688(11) 0.21674(10) 0.87530(10)
C17_24 C 0.4422(2) 0.28933(16) 0.93056(15)
C18_24 C 0.42847(17) 0.29216(19) 0.9459(2)
H8_24 H 0.4165 0.2829 0.9468
O11_24 O 0.55089(7) 0.36635(6) 0.94738(8)
O12_24 O 0.53042(6) 0.39438(8) 0.94765(7)
C22_24 C 0.51451(10) 0.36139(10) 0.94440(12)
C23_24 C 0.49471(11) 0.36977(12) 0.94852(12)
H10_24 H 0.4930 0.3845 0.9518
C24_24 C 0.47777(14) 0.35660(15) 0.94783(13)
H11_24 H 0.4643 0.3618 0.9524
C25_24 C 0.47929(13) 0.33613(16) 0.94086(14)
C26_24 C 0.49883(16) 0.32738(14) 0.93546(19)
H12_24 H 0.5003 0.3129 0.9314
C27_24 C 0.51566(14) 0.34076(14) 0.93639(17)
H13_24 H 0.5290 0.3358 0.9313
C28_24 C 0.53326(10) 0.37470(10) 0.94688(11)
C29_24 C 0.46067(16) 0.31944(15) 0.9422(2)
C30_24 C 0.45784(19) 0.3041(2) 0.92847(17)
H14_24 H 0.4671 0.3032 0.9165
C32_24 C 0.38023(12) 0.30148(12) 0.99471(11)
H15_24 H 0.3655 0.2982 0.9930
C33_24 C 0.39340(15) 0.30217(13) 0.97777(14)
H16_24 H 0.3882 0.2976 0.9643
C34_24 C 0.41387(16) 0.30914(14) 0.97929(13)
C35_24 C 0.42262(14) 0.31454(19) 0.99883(16)
C38_24 C 0.43056(15) 0.3078(2) 0.96067(16)
C39_24 C 0.4459(2) 0.32153(17) 0.95784(19)
H19_24 H 0.4468 0.3335 0.9671
Zn7_24 Zn 0.538606(8) 0.418532(9) 0.965344(11)
O1_9 O 0.66141(5) 0.79754(4) 0.50645(6)
O2_9 O 0.63684(7) 0.82126(8) 0.51486(7)
O3_9 O 0.59891(6) 0.86104(7) 0.46053(8)
O4_9 O 0.60604(8) 0.85708(9) 0.42820(10)
O5_9 O 0.66353(5) 0.80736(6) 0.40686(7)
O6_9 O 0.68586(5) 0.79696(7) 0.43242(6)
C1_9 C 0.64557(7) 0.81840(7) 0.47842(9)
C2_9 C 0.62916(8) 0.83267(7) 0.47326(10)
H1_9 H 0.6201 0.8384 0.4840
C3_9 C 0.62666(8) 0.83794(9) 0.45250(11)
C4_9 C 0.63894(7) 0.82879(7) 0.43655(10)
H2_9 H 0.6364 0.8320 0.4220
C5_9 C 0.65558(6) 0.81435(7) 0.44246(9)
C6_9 C 0.65850(6) 0.81009(7) 0.46384(9)
H3_9 H 0.6699 0.8011 0.4682
C7_9 C 0.64787(8) 0.81183(9) 0.50162(12)
C8_9 C 0.60940(10) 0.85299(10) 0.44619(13)
C9_9 C 0.66969(7) 0.80557(8) 0.42607(10)
O9_9 O 0.69069(5) 0.76797(4) 0.54110(5)
O10_9 O 0.66956(5) 0.74880(5) 0.52016(6)
C19_9 C 0.70253(5) 0.73375(5) 0.53216(5)
C20_9 C 0.70250(5) 0.71828(5) 0.51662(5)
H9_9 H 0.6917 0.7185 0.5060
C21_9 C 0.68637(6) 0.75179(7) 0.53047(7)
O15_9 O 0.70890(5) 0.69069(5) 0.48203(4)
O16_9 O 0.72984(6) 0.66956(5) 0.50120(5)
C40_9 C 0.71784(5) 0.70253(5) 0.51625(5)
C41_9 C 0.73338(5) 0.70250(5) 0.53172(5)
H20_9 H 0.7440 0.6917 0.5315
C42_9 C 0.71953(7) 0.68637(6) 0.49821(7)
O17_9 O 0.76797(4) 0.70890(5) 0.55931(5)
O18_9 O 0.74880(5) 0.72984(6) 0.58044(5)
C43_9 C 0.73375(5) 0.71784(5) 0.54747(5)
C44_9 C 0.71828(5) 0.73338(5) 0.54750(5)
H21_9 H 0.7185 0.7440 0.5583
C45_9 C 0.75179(7) 0.71953(7) 0.56363(6)
O19_9 O 0.74355(6) 0.66141(5) 0.45246(4)
O20_9 O 0.73514(7) 0.63684(7) 0.42874(8)
O22_9 O 0.82180(10) 0.60604(8) 0.39292(9)
O23_9 O 0.84314(7) 0.66353(5) 0.44264(6)
O24_9 O 0.81758(6) 0.68586(5) 0.45304(7)
C46_9 C 0.77158(9) 0.64557(7) 0.43160(7)
C47_9 C 0.77674(10) 0.62916(8) 0.41733(7)
H22_9 H 0.7660 0.6201 0.4116
C48_9 C 0.79750(11) 0.62666(8) 0.41206(9)
C49_9 C 0.81345(10) 0.63894(7) 0.42121(7)
H23_9 H 0.8280 0.6364 0.4180
C50_9 C 0.80754(9) 0.65558(6) 0.43565(7)
C51_9 C 0.78616(9) 0.65850(6) 0.43991(7)
H24_9 H 0.7818 0.6699 0.4489
C52_9 C 0.74838(12) 0.64787(8) 0.43817(9)
C53_9 C 0.80381(13) 0.60940(10) 0.39701(10)
C54_9 C 0.82393(10) 0.66969(7) 0.44443(8)
Zn5_9 Zn 0.788606(8) 0.715344(11) 0.581468(9)
Zn6_9 Zn 0.826385(10) 0.704533(13) 0.619206(11)
O25_9 O 0.79754(4) 0.74355(6) 0.58859(5)
O26_9 O 0.82126(8) 0.73514(7) 0.61316(7)
O27_9 O 0.86104(7) 0.78947(8) 0.65109(6)
O28_9 O 0.85708(9) 0.82180(10) 0.64396(8)
O29_9 O 0.80736(6) 0.84314(7) 0.58647(5)
O30_9 O 0.79696(7) 0.81758(6) 0.56414(5)
C55_9 C 0.81840(7) 0.77158(9) 0.60443(7)
C56_9 C 0.83267(7) 0.77674(10) 0.62084(8)
H25_9 H 0.8384 0.7660 0.6299
C57_9 C 0.83794(9) 0.79750(11) 0.62334(8)
C58_9 C 0.82879(7) 0.81345(10) 0.61106(7)
H26_9 H 0.8320 0.8280 0.6136
C59_9 C 0.81435(7) 0.80754(9) 0.59442(6)
C60_9 C 0.81009(7) 0.78616(9) 0.59150(6)
H27_9 H 0.8011 0.7818 0.5801
C61_9 C 0.81183(9) 0.74838(12) 0.60213(8)
C62_9 C 0.85299(10) 0.80381(13) 0.64060(10)
C63_9 C 0.80557(8) 0.82393(10) 0.58031(7)
Zn9_9 Zn 0.831468(9) 0.711394(8) 0.465344(11)
Zn10_9 Zn 0.784656(11) 0.831468(9) 0.538606(8)
Zn11_9 Zn 0.711394(8) 0.784656(11) 0.418532(9)
Zn14_5 Zn 0.880794(11) 0.795467(13) 0.673615(10)
Zn17_9 Zn 0.869206(11) 0.673615(10) 0.454533(13)
Zn18_9 Zn 0.795467(13) 0.869206(11) 0.576385(10)
Zn19_9 Zn 0.673615(10) 0.795467(13) 0.380794(11)
O32_9 O 0.84891(6) 0.71053(8) 0.63896(7)
O33_9 O 0.61104(7) 0.84891(6) 0.53947(8)
O34_9 O 0.83647(5) 0.69264(6) 0.59314(7)
O35_9 O 0.65686(7) 0.83647(5) 0.55736(6)
O36_9 O 0.69264(6) 0.65686(7) 0.41353(5)
O37_9 O 0.81414(5) 0.70304(7) 0.56758(6)
O38_9 O 0.68242(6) 0.81414(5) 0.54696(7)
O39_9 O 0.70304(7) 0.68242(6) 0.43586(5)
O41_9 O 0.80089(7) 0.69738(8) 0.63365(6)
O43_9 O 0.78042(6) 0.69765(7) 0.60562(8)
O10_10 O 0.58044(5) 0.00120(5) 0.02016(6)
C19_10 C 0.54747(5) 0.01625(5) 0.03216(5)
C20_10 C 0.54750(5) 0.03172(5) 0.01662(5)
H9_10 H 0.5583 0.0315 0.0060
O16_10 O 0.52016(6) 0.08044(5) 0.00120(5)
C40_10 C 0.53216(5) 0.04747(5) 0.01625(5)
C41_10 C 0.51662(5) 0.04750(5) 0.03172(5)
H20_10 H 0.5060 0.0583 0.0315
O17_10 O 0.48203(4) 0.04110(5) 0.05931(5)
O18_10 O 0.50120(5) 0.02016(6) 0.08044(5)
C43_10 C 0.51625(5) 0.03216(5) 0.04747(5)
C44_10 C 0.53172(5) 0.01662(5) 0.04750(5)
H21_10 H 0.5315 0.0060 0.0583
C45_10 C 0.49821(7) 0.03047(7) 0.06363(6)
Zn5_10 Zn 0.461394(8) 0.034656(11) 0.081468(9)
Zn6_10 Zn 0.423615(10) 0.045467(13) 0.119206(11)
O25_10 O 0.45246(4) 0.00645(6) 0.08859(5)
O26_10 O 0.42874(8) 0.01486(7) 0.11316(7)
C61_10 C 0.43817(9) 0.00162(12) 0.10213(8)
O32_10 O 0.40109(6) 0.03947(8) 0.13896(7)
O34_10 O 0.41353(5) 0.05736(6) 0.09314(7)
O37_10 O 0.43586(5) 0.04696(7) 0.06758(6)
O41_10 O 0.44911(7) 0.05262(8) 0.13365(6)
O43_10 O 0.46958(6) 0.05235(7) 0.10562(8)
O15_10 O 0.54110(5) 0.05931(5) 0.98203(4)
C42_10 C 0.53047(7) 0.06363(6) 0.99821(7)
O19_10 O 0.50645(6) 0.08859(5) 0.95246(4)
O20_10 O 0.51486(7) 0.11316(7) 0.92874(8)
O22_10 O 0.42820(10) 0.14396(8) 0.89292(9)
O23_10 O 0.40686(7) 0.08647(5) 0.94264(6)
O24_10 O 0.43242(6) 0.06414(5) 0.95304(7)
C46_10 C 0.47842(9) 0.10443(7) 0.93160(7)
C47_10 C 0.47326(10) 0.12084(8) 0.91733(7)
H22_10 H 0.4840 0.1299 0.9116
C48_10 C 0.45250(11) 0.12334(8) 0.91206(9)
C49_10 C 0.43655(10) 0.11106(7) 0.92121(7)
H23_10 H 0.4220 0.1136 0.9180
C50_10 C 0.44246(9) 0.09442(6) 0.93565(7)
C51_10 C 0.46384(9) 0.09150(6) 0.93991(7)
H24_10 H 0.4682 0.0801 0.9489
C52_10 C 0.50162(12) 0.10213(8) 0.93817(9)
C53_10 C 0.44619(13) 0.14060(10) 0.89701(10)
C54_10 C 0.42607(10) 0.08031(7) 0.94443(8)
Zn9_10 Zn 0.418532(9) 0.038606(8) 0.965344(11)
Zn17_10 Zn 0.380794(11) 0.076385(10) 0.954533(13)
O36_10 O 0.55736(6) 0.09314(7) 0.91353(5)
O39_10 O 0.54696(7) 0.06758(6) 0.93586(5)
O1_10 O 0.58859(5) 0.95246(4) 0.00645(6)
O2_10 O 0.61316(7) 0.92874(8) 0.01486(7)
C7_10 C 0.60213(8) 0.93817(9) 0.00162(12)
O9_10 O 0.55931(5) 0.98203(4) 0.04110(5)
C21_10 C 0.56363(6) 0.99821(7) 0.03047(7)
O27_10 O 0.38896(7) 0.96053(8) 0.15109(6)
O28_10 O 0.39292(9) 0.92820(10) 0.14396(8)
O29_10 O 0.44264(6) 0.90686(7) 0.08647(5)
O30_10 O 0.45304(7) 0.93242(6) 0.06414(5)
C55_10 C 0.43160(7) 0.97842(9) 0.10443(7)
C56_10 C 0.41733(7) 0.97326(10) 0.12084(8)
H25_10 H 0.4116 0.9840 0.1299
C57_10 C 0.41206(9) 0.95250(11) 0.12334(8)
C58_10 C 0.42121(7) 0.93655(10) 0.11106(7)
H26_10 H 0.4180 0.9220 0.1136
C59_10 C 0.43565(7) 0.94246(9) 0.09442(6)
C60_10 C 0.43991(7) 0.96384(9) 0.09150(6)
H27_10 H 0.4489 0.9682 0.0801
C62_10 C 0.39701(10) 0.94619(13) 0.14060(10)
C63_10 C 0.44443(8) 0.92607(10) 0.08031(7)
Zn10_10 Zn 0.465344(11) 0.918532(9) 0.038606(8)
Zn14_6 Zn 0.369206(11) 0.954533(13) 0.173615(10)
Zn18_10 Zn 0.454533(13) 0.880794(11) 0.076385(10)
O33_10 O 0.63896(7) 0.90109(6) 0.03947(8)
O35_10 O 0.59314(7) 0.91353(5) 0.05736(6)
O38_10 O 0.56758(6) 0.93586(5) 0.04696(7)
O3_10 O 0.65109(6) 0.88896(7) 0.96053(8)
O4_10 O 0.64396(8) 0.89292(9) 0.92820(10)
O5_10 O 0.58647(5) 0.94264(6) 0.90686(7)
O6_10 O 0.56414(5) 0.95304(7) 0.93242(6)
C1_10 C 0.60443(7) 0.93160(7) 0.97842(9)
C2_10 C 0.62084(8) 0.91733(7) 0.97326(10)
H1_10 H 0.6299 0.9116 0.9840
C3_10 C 0.62334(8) 0.91206(9) 0.95250(11)
C4_10 C 0.61106(7) 0.92121(7) 0.93655(10)
H2_10 H 0.6136 0.9180 0.9220
C5_10 C 0.59442(6) 0.93565(7) 0.94246(9)
C6_10 C 0.59150(6) 0.93991(7) 0.96384(9)
H3_10 H 0.5801 0.9489 0.9682
C8_10 C 0.64060(10) 0.89701(10) 0.94619(13)
C9_10 C 0.58031(7) 0.94443(8) 0.92607(10)
Zn11_10 Zn 0.538606(8) 0.965344(11) 0.918532(9)
Zn19_10 Zn 0.576385(10) 0.954533(13) 0.880794(11)
O1_11 O 0.08859(5) 0.29754(4) 0.74355(6)
O2_11 O 0.11316(7) 0.32126(8) 0.73514(7)
O3_11 O 0.15109(6) 0.36104(7) 0.78947(8)
O4_11 O 0.14396(8) 0.35708(9) 0.82180(10)
O5_11 O 0.08647(5) 0.30736(6) 0.84314(7)
O6_11 O 0.06414(5) 0.29696(7) 0.81758(6)
C1_11 C 0.10443(7) 0.31840(7) 0.77158(9)
C2_11 C 0.12084(8) 0.33267(7) 0.77674(10)
H1_11 H 0.1299 0.3384 0.7660
C3_11 C 0.12334(8) 0.33794(9) 0.79750(11)
C4_11 C 0.11106(7) 0.32879(7) 0.81345(10)
H2_11 H 0.1136 0.3320 0.8280
C5_11 C 0.09442(6) 0.31435(7) 0.80754(9)
C6_11 C 0.09150(6) 0.31009(7) 0.78616(9)
H3_11 H 0.0801 0.3011 0.7818
C7_11 C 0.10213(8) 0.31183(9) 0.74838(12)
C8_11 C 0.14060(10) 0.35299(10) 0.80381(13)
C9_11 C 0.08031(7) 0.30557(8) 0.82393(10)
O9_11 O 0.05931(5) 0.26797(4) 0.70890(5)
O10_11 O 0.08044(5) 0.24880(5) 0.72984(6)
C19_11 C 0.04747(5) 0.23375(5) 0.71784(5)
C20_11 C 0.04750(5) 0.21828(5) 0.73338(5)
H9_11 H 0.0583 0.2185 0.7440
C21_11 C 0.06363(6) 0.25179(7) 0.71953(7)
O15_11 O 0.04110(5) 0.19069(5) 0.76797(4)
O16_11 O 0.02016(6) 0.16956(5) 0.74880(5)
C40_11 C 0.03216(5) 0.20253(5) 0.73375(5)
C41_11 C 0.01662(5) 0.20250(5) 0.71828(5)
H20_11 H 0.0060 0.1917 0.7185
C42_11 C 0.03047(7) 0.18637(6) 0.75179(7)
O18_11 O 0.00120(5) 0.22984(6) 0.66956(5)
C43_11 C 0.01625(5) 0.21784(5) 0.70253(5)
C44_11 C 0.03172(5) 0.23338(5) 0.70250(5)
H21_11 H 0.0315 0.2440 0.6917
O19_11 O 0.00645(6) 0.16141(5) 0.79754(4)
O20_11 O 0.01486(7) 0.13684(7) 0.82126(8)
C52_11 C 0.00162(12) 0.14787(8) 0.81183(9)
Zn11_11 Zn 0.038606(8) 0.284656(11) 0.831468(9)
Zn19_11 Zn 0.076385(10) 0.295467(13) 0.869206(11)
O33_11 O 0.13896(7) 0.34891(6) 0.71053(8)
O35_11 O 0.09314(7) 0.33647(5) 0.69264(6)
O36_11 O 0.05736(6) 0.15686(7) 0.83647(5)
O38_11 O 0.06758(6) 0.31414(5) 0.70304(7)
O39_11 O 0.04696(7) 0.18242(6) 0.81414(5)
O17_11 O 0.98203(4) 0.20890(5) 0.69069(5)
C45_11 C 0.99821(7) 0.21953(7) 0.68637(6)
O22_11 O 0.92820(10) 0.10604(8) 0.85708(9)
O23_11 O 0.90686(7) 0.16353(5) 0.80736(6)
O24_11 O 0.93242(6) 0.18586(5) 0.79696(7)
C46_11 C 0.97842(9) 0.14557(7) 0.81840(7)
C47_11 C 0.97326(10) 0.12916(8) 0.83267(7)
H22_11 H 0.9840 0.1201 0.8384
C48_11 C 0.95250(11) 0.12666(8) 0.83794(9)
C49_11 C 0.93655(10) 0.13894(7) 0.82879(7)
H23_11 H 0.9220 0.1364 0.8320
C50_11 C 0.94246(9) 0.15558(6) 0.81435(7)
C51_11 C 0.96384(9) 0.15850(6) 0.81009(7)
H24_11 H 0.9682 0.1699 0.8011
C53_11 C 0.94619(13) 0.10940(10) 0.85299(10)
C54_11 C 0.92607(10) 0.16969(7) 0.80557(8)
Zn5_11 Zn 0.961394(8) 0.215344(11) 0.668532(9)
Zn6_11 Zn 0.923615(10) 0.204533(13) 0.630794(11)
O25_11 O 0.95246(4) 0.24355(6) 0.66141(5)
O26_11 O 0.92874(8) 0.23514(7) 0.63684(7)
O27_11 O 0.88896(7) 0.28947(8) 0.59891(6)
O28_11 O 0.89292(9) 0.32180(10) 0.60604(8)
O29_11 O 0.94264(6) 0.34314(7) 0.66353(5)
O30_11 O 0.95304(7) 0.31758(6) 0.68586(5)
C55_11 C 0.93160(7) 0.27158(9) 0.64557(7)
C56_11 C 0.91733(7) 0.27674(10) 0.62916(8)
H25_11 H 0.9116 0.2660 0.6201
C57_11 C 0.91206(9) 0.29750(11) 0.62666(8)
C58_11 C 0.92121(7) 0.31345(10) 0.63894(7)
H26_11 H 0.9180 0.3280 0.6364
C59_11 C 0.93565(7) 0.30754(9) 0.65558(6)
C60_11 C 0.93991(7) 0.28616(9) 0.65850(6)
H27_11 H 0.9489 0.2818 0.6699
C61_11 C 0.93817(9) 0.24838(12) 0.64787(8)
C62_11 C 0.89701(10) 0.30381(13) 0.60940(10)
C63_11 C 0.94443(8) 0.32393(10) 0.66969(7)
Zn9_11 Zn 0.918532(9) 0.211394(8) 0.784656(11)
Zn10_11 Zn 0.965344(11) 0.331468(9) 0.711394(8)
Zn14_7 Zn 0.869206(11) 0.295467(13) 0.576385(10)
Zn17_11 Zn 0.880794(11) 0.173615(10) 0.795467(13)
Zn18_11 Zn 0.954533(13) 0.369206(11) 0.673615(10)
O32_11 O 0.90109(6) 0.21053(8) 0.61104(7)
O34_11 O 0.91353(5) 0.19264(6) 0.65686(7)
O37_11 O 0.93586(5) 0.20304(7) 0.68242(6)
O41_11 O 0.94911(7) 0.19738(8) 0.61635(6)
O43_11 O 0.96958(6) 0.19765(7) 0.64438(8)
O1_12 O 0.16141(5) 0.45246(4) 0.24355(6)
O2_12 O 0.13684(7) 0.42874(8) 0.23514(7)
O3_12 O 0.09891(6) 0.38896(7) 0.28947(8)
O4_12 O 0.10604(8) 0.39292(9) 0.32180(10)
O5_12 O 0.16353(5) 0.44264(6) 0.34314(7)
O6_12 O 0.18586(5) 0.45304(7) 0.31758(6)
C1_12 C 0.14557(7) 0.43160(7) 0.27158(9)
C2_12 C 0.12916(8) 0.41733(7) 0.27674(10)
H1_12 H 0.1201 0.4116 0.2660
C3_12 C 0.12666(8) 0.41206(9) 0.29750(11)
C4_12 C 0.13894(7) 0.42121(7) 0.31345(10)
H2_12 H 0.1364 0.4180 0.3280
C5_12 C 0.15558(6) 0.43565(7) 0.30754(9)
C6_12 C 0.15850(6) 0.43991(7) 0.28616(9)
H3_12 H 0.1699 0.4489 0.2818
C7_12 C 0.14787(8) 0.43817(9) 0.24838(12)
C8_12 C 0.10940(10) 0.39701(10) 0.30381(13)
C9_12 C 0.16969(7) 0.44443(8) 0.32393(10)
O9_12 O 0.19069(5) 0.48203(4) 0.20890(5)
O10_12 O 0.16956(5) 0.50120(5) 0.22984(6)
C19_12 C 0.20253(5) 0.51625(5) 0.21784(5)
C20_12 C 0.20250(5) 0.53172(5) 0.23338(5)
H9_12 H 0.1917 0.5315 0.2440
C21_12 C 0.18637(6) 0.49821(7) 0.21953(7)
O15_12 O 0.20890(5) 0.55931(5) 0.26797(4)
O16_12 O 0.22984(6) 0.58044(5) 0.24880(5)
C40_12 C 0.21784(5) 0.54747(5) 0.23375(5)
C41_12 C 0.23338(5) 0.54750(5) 0.21828(5)
H20_12 H 0.2440 0.5583 0.2185
C42_12 C 0.21953(7) 0.56363(6) 0.25179(7)
O17_12 O 0.26797(4) 0.54110(5) 0.19069(5)
O18_12 O 0.24880(5) 0.52016(6) 0.16956(5)
C43_12 C 0.23375(5) 0.53216(5) 0.20253(5)
C44_12 C 0.21828(5) 0.51662(5) 0.20250(5)
H21_12 H 0.2185 0.5060 0.1917
C45_12 C 0.25179(7) 0.53047(7) 0.18637(6)
O19_12 O 0.24355(6) 0.58859(5) 0.29754(4)
O20_12 O 0.23514(7) 0.61316(7) 0.32126(8)
O22_12 O 0.32180(10) 0.64396(8) 0.35708(9)
O23_12 O 0.34314(7) 0.58647(5) 0.30736(6)
O24_12 O 0.31758(6) 0.56414(5) 0.29696(7)
C46_12 C 0.27158(9) 0.60443(7) 0.31840(7)
C47_12 C 0.27674(10) 0.62084(8) 0.33267(7)
H22_12 H 0.2660 0.6299 0.3384
C48_12 C 0.29750(11) 0.62334(8) 0.33794(9)
C49_12 C 0.31345(10) 0.61106(7) 0.32879(7)
H23_12 H 0.3280 0.6136 0.3320
C50_12 C 0.30754(9) 0.59442(6) 0.31435(7)
C51_12 C 0.28616(9) 0.59150(6) 0.31009(7)
H24_12 H 0.2818 0.5801 0.3011
C52_12 C 0.24838(12) 0.60213(8) 0.31183(9)
C53_12 C 0.30381(13) 0.64060(10) 0.35299(10)
C54_12 C 0.32393(10) 0.58031(7) 0.30557(8)
Zn5_12 Zn 0.288606(8) 0.534656(11) 0.168532(9)
Zn6_12 Zn 0.326385(10) 0.545467(13) 0.130794(11)
O25_12 O 0.29754(4) 0.50645(6) 0.16141(5)
O26_12 O 0.32126(8) 0.51486(7) 0.13684(7)
O27_12 O 0.36104(7) 0.46053(8) 0.09891(6)
O28_12 O 0.35708(9) 0.42820(10) 0.10604(8)
O29_12 O 0.30736(6) 0.40686(7) 0.16353(5)
O30_12 O 0.29696(7) 0.43242(6) 0.18586(5)
C55_12 C 0.31840(7) 0.47842(9) 0.14557(7)
C56_12 C 0.33267(7) 0.47326(10) 0.12916(8)
H25_12 H 0.3384 0.4840 0.1201
C57_12 C 0.33794(9) 0.45250(11) 0.12666(8)
C58_12 C 0.32879(7) 0.43655(10) 0.13894(7)
H26_12 H 0.3320 0.4220 0.1364
C59_12 C 0.31435(7) 0.44246(9) 0.15558(6)
C60_12 C 0.31009(7) 0.46384(9) 0.15850(6)
H27_12 H 0.3011 0.4682 0.1699
C61_12 C 0.31183(9) 0.50162(12) 0.14787(8)
C62_12 C 0.35299(10) 0.44619(13) 0.10940(10)
C63_12 C 0.30557(8) 0.42607(10) 0.16969(7)
Zn9_12 Zn 0.331468(9) 0.538606(8) 0.284656(11)
Zn10_12 Zn 0.284656(11) 0.418532(9) 0.211394(8)
Zn11_12 Zn 0.211394(8) 0.465344(11) 0.331468(9)
Zn14_8 Zn 0.380794(11) 0.454533(13) 0.076385(10)
Zn17_12 Zn 0.369206(11) 0.576385(10) 0.295467(13)
Zn18_12 Zn 0.295467(13) 0.380794(11) 0.173615(10)
Zn19_12 Zn 0.173615(10) 0.454533(13) 0.369206(11)
O32_12 O 0.34891(6) 0.53947(8) 0.11104(7)
O33_12 O 0.11104(7) 0.40109(6) 0.21053(8)
O34_12 O 0.33647(5) 0.55736(6) 0.15686(7)
O35_12 O 0.15686(7) 0.41353(5) 0.19264(6)
O36_12 O 0.19264(6) 0.59314(7) 0.33647(5)
O37_12 O 0.31414(5) 0.54696(7) 0.18242(6)
O38_12 O 0.18242(6) 0.43586(5) 0.20304(7)
O39_12 O 0.20304(7) 0.56758(6) 0.31414(5)
O41_12 O 0.30089(7) 0.55262(8) 0.11635(6)
O43_12 O 0.28042(6) 0.55235(7) 0.14438(8)
C10_25 C 0.26451(10) 0.55560(12) 0.11139(10)
C11_25 C 0.24471(11) 0.55148(12) 0.11977(12)
H4_25 H 0.2430 0.5482 0.1345
C12_25 C 0.22777(14) 0.55217(13) 0.10660(15)
H5_25 H 0.2143 0.5476 0.1118
C13_25 C 0.22929(13) 0.55914(14) 0.08613(16)
C14_25 C 0.24883(16) 0.56454(19) 0.07738(14)
H6_25 H 0.2503 0.5686 0.0629
C15_25 C 0.26566(14) 0.56361(17) 0.09076(14)
H7_25 H 0.2790 0.5687 0.0858
C16_25 C 0.28326(10) 0.55312(11) 0.12470(10)
C17_25 C 0.21067(16) 0.5578(2) 0.06944(15)
C18_25 C 0.20784(19) 0.57153(17) 0.0541(2)
H8_25 H 0.2171 0.5835 0.0532
O11_25 O 0.13365(6) 0.44911(7) 0.05262(8)
O12_25 O 0.10562(8) 0.46958(6) 0.05235(7)
C22_25 C 0.13861(10) 0.48549(10) 0.05560(12)
C23_25 C 0.13023(12) 0.50529(11) 0.05148(12)
H10_25 H 0.1155 0.5070 0.0482
C24_25 C 0.14340(15) 0.52223(14) 0.05217(13)
H11_25 H 0.1382 0.5357 0.0476
C25_25 C 0.16387(16) 0.52071(13) 0.05914(14)
C26_25 C 0.17262(14) 0.50117(16) 0.06454(19)
H12_25 H 0.1871 0.4997 0.0686
C27_25 C 0.15924(14) 0.48434(14) 0.06361(17)
H13_25 H 0.1642 0.4710 0.0687
C28_25 C 0.12530(10) 0.46674(10) 0.05312(11)
C29_25 C 0.18056(15) 0.53933(16) 0.0578(2)
C30_25 C 0.1959(2) 0.54216(19) 0.07153(17)
H14_25 H 0.1968 0.5329 0.0835
C32_25 C 0.19852(12) 0.61977(12) 0.00529(11)
H15_25 H 0.2018 0.6345 0.0070
C33_25 C 0.19783(13) 0.60660(15) 0.02223(14)
H16_25 H 0.2024 0.6118 0.0357
C34_25 C 0.19086(14) 0.58613(16) 0.02071(13)
C35_25 C 0.18546(19) 0.57738(14) 0.00117(16)
C38_25 C 0.1922(2) 0.56944(15) 0.03933(16)
C39_25 C 0.17847(17) 0.5541(2) 0.04216(19)
H19_25 H 0.1665 0.5532 0.0329
Zn7_25 Zn 0.081468(9) 0.461394(8) 0.034656(11)
Zn12_13 Zn 0.119206(11) 0.423615(10) 0.045467(13)
O13_25 O 0.19738(8) 0.61635(6) 0.94911(7)
O14_25 O 0.19765(7) 0.64438(8) 0.96958(6)
C31_25 C 0.19440(12) 0.61139(10) 0.98549(10)
H17_25 H 0.1814 0.5629 0.9997
C36_25 C 0.18639(17) 0.59076(14) 0.98434(14)
H18_25 H 0.1813 0.5858 0.9710
C37_25 C 0.19688(11) 0.62470(10) 0.96674(10)
Zn8_25 Zn 0.215344(11) 0.668532(9) 0.961394(8)
Zn15_25 Zn 0.204533(13) 0.630794(11) 0.923615(10)
C10_26 C 0.48549(10) 0.05560(12) 0.13861(10)
C11_26 C 0.50529(11) 0.05148(12) 0.13023(12)
H4_26 H 0.5070 0.0482 0.1155
C12_26 C 0.52223(14) 0.05217(13) 0.14340(15)
H5_26 H 0.5357 0.0476 0.1382
C13_26 C 0.52071(13) 0.05914(14) 0.16387(16)
C14_26 C 0.50117(16) 0.06454(19) 0.17262(14)
H6_26 H 0.4997 0.0686 0.1871
C15_26 C 0.48434(14) 0.06361(17) 0.15924(14)
H7_26 H 0.4710 0.0687 0.1642
C16_26 C 0.46674(10) 0.05312(11) 0.12530(10)
C17_26 C 0.53933(16) 0.0578(2) 0.18056(15)
C18_26 C 0.54216(19) 0.07153(17) 0.1959(2)
H8_26 H 0.5329 0.0835 0.1968
C23_26 C 0.61977(12) 0.00529(11) 0.19852(12)
H10_26 H 0.6345 0.0070 0.2018
C24_26 C 0.60660(15) 0.02223(14) 0.19783(13)
H11_26 H 0.6118 0.0357 0.2024
C25_26 C 0.58613(16) 0.02071(13) 0.19086(14)
C26_26 C 0.57738(14) 0.00117(16) 0.18546(19)
C29_26 C 0.56944(15) 0.03933(16) 0.1922(2)
C30_26 C 0.5541(2) 0.04216(19) 0.17847(17)
H14_26 H 0.5532 0.0329 0.1665
O13_26 O 0.55262(8) 0.11635(6) 0.30089(7)
O14_26 O 0.55235(7) 0.14438(8) 0.28042(6)
C31_26 C 0.55560(12) 0.11139(10) 0.26451(10)
C32_26 C 0.55148(12) 0.11977(12) 0.24471(11)
H15_26 H 0.5482 0.1345 0.2430
C33_26 C 0.55217(13) 0.10660(15) 0.22777(14)
H16_26 H 0.5476 0.1118 0.2143
C34_26 C 0.55914(14) 0.08613(16) 0.22929(13)
C35_26 C 0.56454(19) 0.07738(14) 0.24883(16)
H17_26 H 0.5686 0.0629 0.2503
C36_26 C 0.56361(17) 0.09076(14) 0.26566(14)
H18_26 H 0.5687 0.0858 0.2790
C37_26 C 0.55312(11) 0.12470(10) 0.28326(10)
C38_26 C 0.5578(2) 0.06944(15) 0.21067(16)
C39_26 C 0.57153(17) 0.0541(2) 0.20784(19)
H19_26 H 0.5835 0.0532 0.2171
Zn8_26 Zn 0.534656(11) 0.168532(9) 0.288606(8)
Zn15_26 Zn 0.545467(13) 0.130794(11) 0.326385(10)
O11_26 O 0.61635(6) 0.94911(7) 0.19738(8)
O12_26 O 0.64438(8) 0.96958(6) 0.19765(7)
C22_26 C 0.61139(10) 0.98549(10) 0.19440(12)
H12_26 H 0.5629 0.9997 0.1814
C27_26 C 0.59076(14) 0.98434(14) 0.18639(17)
H13_26 H 0.5858 0.9710 0.1813
C28_26 C 0.62470(10) 0.96674(10) 0.19688(11)
Zn7_26 Zn 0.668532(9) 0.961394(8) 0.215344(11)
Zn12_14 Zn 0.630794(11) 0.923615(10) 0.204533(13)
C10_27 C 0.76451(10) 0.69440(12) 0.63861(10)
C11_27 C 0.74471(11) 0.69852(12) 0.63023(12)
H4_27 H 0.7430 0.7018 0.6155
C12_27 C 0.72777(14) 0.69783(13) 0.64340(15)
H5_27 H 0.7143 0.7024 0.6382
C13_27 C 0.72929(13) 0.69086(14) 0.66387(16)
C14_27 C 0.74883(16) 0.68546(19) 0.67262(14)
H6_27 H 0.7503 0.6814 0.6871
C15_27 C 0.76566(14) 0.68639(17) 0.65924(14)
H7_27 H 0.7790 0.6813 0.6642
C16_27 C 0.78326(10) 0.69688(11) 0.62530(10)
C17_27 C 0.71067(16) 0.6922(2) 0.68056(15)
C18_27 C 0.70784(19) 0.67847(17) 0.6959(2)
H8_27 H 0.7171 0.6665 0.6968
O11_27 O 0.63365(6) 0.80089(7) 0.69738(8)
O12_27 O 0.60562(8) 0.78042(6) 0.69765(7)
C22_27 C 0.63861(10) 0.76451(10) 0.69440(12)
C23_27 C 0.63023(12) 0.74471(11) 0.69852(12)
H10_27 H 0.6155 0.7430 0.7018
C24_27 C 0.64340(15) 0.72777(14) 0.69783(13)
H11_27 H 0.6382 0.7143 0.7024
C25_27 C 0.66387(16) 0.72929(13) 0.69086(14)
C26_27 C 0.67262(14) 0.74883(16) 0.68546(19)
H12_27 H 0.6871 0.7503 0.6814
C27_27 C 0.65924(14) 0.76566(14) 0.68639(17)
H13_27 H 0.6642 0.7790 0.6813
C28_27 C 0.62530(10) 0.78326(10) 0.69688(11)
C29_27 C 0.68056(15) 0.71067(16) 0.6922(2)
C30_27 C 0.6959(2) 0.70784(19) 0.67847(17)
H14_27 H 0.6968 0.7171 0.6665
O13_27 O 0.69738(8) 0.63365(6) 0.80089(7)
O14_27 O 0.69765(7) 0.60562(8) 0.78042(6)
C31_27 C 0.69440(12) 0.63861(10) 0.76451(10)
C32_27 C 0.69852(12) 0.63023(12) 0.74471(11)
H15_27 H 0.7018 0.6155 0.7430
C33_27 C 0.69783(13) 0.64340(15) 0.72777(14)
H16_27 H 0.7024 0.6382 0.7143
C34_27 C 0.69086(14) 0.66387(16) 0.72929(13)
C35_27 C 0.68546(19) 0.67262(14) 0.74883(16)
H17_27 H 0.6814 0.6871 0.7503
C36_27 C 0.68639(17) 0.65924(14) 0.76566(14)
H18_27 H 0.6813 0.6642 0.7790
C37_27 C 0.69688(11) 0.62530(10) 0.78326(10)
C38_27 C 0.6922(2) 0.68056(15) 0.71067(16)
C39_27 C 0.67847(17) 0.6959(2) 0.70784(19)
H19_27 H 0.6665 0.6968 0.7171
Zn7_27 Zn 0.581468(9) 0.788606(8) 0.715344(11)
Zn8_27 Zn 0.715344(11) 0.581468(9) 0.788606(8)
Zn12_15 Zn 0.619206(11) 0.826385(10) 0.704533(13)
Zn15_27 Zn 0.704533(13) 0.619206(11) 0.826385(10)
C11_28 C 0.00529(11) 0.19852(12) 0.61977(12)
H4_28 H 0.0070 0.2018 0.6345
C12_28 C 0.02223(14) 0.19783(13) 0.60660(15)
H5_28 H 0.0357 0.2024 0.6118
C13_28 C 0.02071(13) 0.19086(14) 0.58613(16)
C14_28 C 0.00117(16) 0.18546(19) 0.57738(14)
C17_28 C 0.03933(16) 0.1922(2) 0.56944(15)
C18_28 C 0.04216(19) 0.17847(17) 0.5541(2)
H8_28 H 0.0329 0.1665 0.5532
O11_28 O 0.11635(6) 0.30089(7) 0.55262(8)
O12_28 O 0.14438(8) 0.28042(6) 0.55235(7)
C22_28 C 0.11139(10) 0.26451(10) 0.55560(12)
C23_28 C 0.11977(12) 0.24471(11) 0.55148(12)
H10_28 H 0.1345 0.2430 0.5482
C24_28 C 0.10660(15) 0.22777(14) 0.55217(13)
H11_28 H 0.1118 0.2143 0.5476
C25_28 C 0.08613(16) 0.22929(13) 0.55914(14)
C26_28 C 0.07738(14) 0.24883(16) 0.56454(19)
H12_28 H 0.0629 0.2503 0.5686
C27_28 C 0.09076(14) 0.26566(14) 0.56361(17)
H13_28 H 0.0858 0.2790 0.5687
C28_28 C 0.12470(10) 0.28326(10) 0.55312(11)
C29_28 C 0.06944(15) 0.21067(16) 0.5578(2)
C30_28 C 0.0541(2) 0.20784(19) 0.57153(17)
H14_28 H 0.0532 0.2171 0.5835
O13_28 O 0.05262(8) 0.13365(6) 0.44911(7)
O14_28 O 0.05235(7) 0.10562(8) 0.46958(6)
C31_28 C 0.05560(12) 0.13861(10) 0.48549(10)
C32_28 C 0.05148(12) 0.13023(12) 0.50529(11)
H15_28 H 0.0482 0.1155 0.5070
C33_28 C 0.05217(13) 0.14340(15) 0.52223(14)
H16_28 H 0.0476 0.1382 0.5357
C34_28 C 0.05914(14) 0.16387(16) 0.52071(13)
C35_28 C 0.06454(19) 0.17262(14) 0.50117(16)
H17_28 H 0.0686 0.1871 0.4997
C36_28 C 0.06361(17) 0.15924(14) 0.48434(14)
H18_28 H 0.0687 0.1642 0.4710
C37_28 C 0.05312(11) 0.12530(10) 0.46674(10)
C38_28 C 0.0578(2) 0.18056(15) 0.53933(16)
C39_28 C 0.07153(17) 0.1959(2) 0.54216(19)
H19_28 H 0.0835 0.1968 0.5329
Zn7_28 Zn 0.168532(9) 0.288606(8) 0.534656(11)
Zn8_28 Zn 0.034656(11) 0.081468(9) 0.461394(8)
Zn12_16 Zn 0.130794(11) 0.326385(10) 0.545467(13)
Zn15_28 Zn 0.045467(13) 0.119206(11) 0.423615(10)
C10_28 C 0.98549(10) 0.19440(12) 0.61139(10)
H6_28 H 0.9997 0.1814 0.5629
C15_28 C 0.98434(14) 0.18639(17) 0.59076(14)
H7_28 H 0.9710 0.1813 0.5858
C16_28 C 0.96674(10) 0.19688(11) 0.62470(10)
Zn1_9 Zn 0.038606(8) 0.418532(9) 0.465344(11)
Zn2_9 Zn 0.076385(10) 0.380794(11) 0.454533(13)
O1_13 O 0.04754(4) 0.41141(5) 0.49355(6)
O2_13 O 0.07126(8) 0.38684(7) 0.48514(7)
O3_13 O 0.11104(7) 0.34891(6) 0.53947(8)
O4_13 O 0.10708(9) 0.35604(8) 0.57180(10)
O5_13 O 0.05736(6) 0.41353(5) 0.59314(7)
O6_13 O 0.04696(7) 0.43586(5) 0.56758(6)
C1_13 C 0.06840(7) 0.39557(7) 0.52158(9)
C2_13 C 0.08267(7) 0.37916(8) 0.52674(10)
H1_13 H 0.0884 0.3701 0.5160
C3_13 C 0.08794(9) 0.37666(8) 0.54750(11)
C4_13 C 0.07879(7) 0.38894(7) 0.56345(10)
H2_13 H 0.0820 0.3864 0.5780
C5_13 C 0.06435(7) 0.40558(6) 0.55754(9)
C6_13 C 0.06009(7) 0.40850(6) 0.53616(9)
H3_13 H 0.0511 0.4199 0.5318
C7_13 C 0.06183(9) 0.39787(8) 0.49838(12)
C8_13 C 0.10299(10) 0.35940(10) 0.55381(13)
C9_13 C 0.05557(8) 0.41969(7) 0.57393(10)
O7_9 O 0.05089(7) 0.36635(6) 0.44738(8)
O8_9 O 0.03042(6) 0.39438(8) 0.44765(7)
C10_29 C 0.01451(10) 0.36139(10) 0.44440(12)
H6_29 H 0.0003 0.3129 0.4314
C15_29 C 0.01566(14) 0.34076(14) 0.43639(17)
H7_29 H 0.0290 0.3358 0.4313
C16_29 C 0.03326(10) 0.37470(10) 0.44688(11)
O9_13 O 0.01797(4) 0.44069(5) 0.45890(5)
C21_13 C 0.00179(7) 0.43637(6) 0.46953(7)
O28_13 O 0.07180(10) 0.60708(9) 0.35604(8)
O29_13 O 0.09314(7) 0.55736(6) 0.41353(5)
O30_13 O 0.06758(6) 0.54696(7) 0.43586(5)
C55_13 C 0.02158(9) 0.56840(7) 0.39557(7)
C56_13 C 0.02674(10) 0.58267(7) 0.37916(8)
H25_13 H 0.0160 0.5884 0.3701
C57_13 C 0.04750(11) 0.58794(9) 0.37666(8)
C58_13 C 0.06345(10) 0.57879(7) 0.38894(7)
H26_13 H 0.0780 0.5820 0.3864
C59_13 C 0.05754(9) 0.56435(7) 0.40558(6)
C60_13 C 0.03616(9) 0.56009(7) 0.40850(6)
H27_13 H 0.0318 0.5511 0.4199
C62_13 C 0.05381(13) 0.60299(10) 0.35940(10)
C63_13 C 0.07393(10) 0.55557(8) 0.41969(7)
Zn10_13 Zn 0.081468(9) 0.534656(11) 0.461394(8)
Zn11_13 Zn 0.034656(11) 0.461394(8) 0.581468(9)
Zn18_13 Zn 0.119206(11) 0.545467(13) 0.423615(10)
Zn19_13 Zn 0.045467(13) 0.423615(10) 0.619206(11)
O33_13 O 0.09891(6) 0.36104(7) 0.46053(8)
O35_13 O 0.08647(5) 0.40686(7) 0.44264(6)
O38_13 O 0.06414(5) 0.43242(6) 0.45304(7)
C11_29 C 0.99471(11) 0.36977(12) 0.44852(12)
H4_29 H 0.9930 0.3845 0.4518
C12_29 C 0.97777(14) 0.35660(15) 0.44783(13)
H5_29 H 0.9643 0.3618 0.4524
C13_29 C 0.97929(13) 0.33613(16) 0.44086(14)
C14_29 C 0.99883(16) 0.32738(14) 0.43546(19)
C17_29 C 0.96067(16) 0.31944(15) 0.4422(2)
O10_13 O 0.99880(5) 0.41956(5) 0.47984(6)
C18_29 C 0.95784(19) 0.3041(2) 0.42847(17)
H8_29 H 0.9671 0.3032 0.4165
C19_13 C 0.98375(5) 0.45253(5) 0.46784(5)
C20_13 C 0.96828(5) 0.45250(5) 0.48338(5)
H9_13 H 0.9685 0.4417 0.4940
O11_29 O 0.88365(6) 0.30262(8) 0.55089(7)
O12_29 O 0.85562(8) 0.30235(7) 0.53042(6)
C22_29 C 0.88861(10) 0.30560(12) 0.51451(10)
C23_29 C 0.88023(12) 0.30148(12) 0.49471(11)
H10_29 H 0.8655 0.2982 0.4930
C24_29 C 0.89340(15) 0.30217(13) 0.47777(14)
H11_29 H 0.8882 0.2976 0.4643
C25_29 C 0.91387(16) 0.30914(14) 0.47929(13)
C26_29 C 0.92262(14) 0.31454(19) 0.49883(16)
H12_29 H 0.9371 0.3186 0.5003
C27_29 C 0.90924(14) 0.31361(17) 0.51566(14)
H13_29 H 0.9142 0.3187 0.5290
C28_29 C 0.87530(10) 0.30312(11) 0.53326(10)
C29_29 C 0.93056(15) 0.3078(2) 0.46067(16)
C30_29 C 0.9459(2) 0.32153(17) 0.45784(19)
H14_29 H 0.9468 0.3335 0.4671
O13_29 O 0.94738(8) 0.19911(7) 0.38365(6)
O14_29 O 0.94765(7) 0.21958(6) 0.35562(8)
C31_29 C 0.94440(12) 0.23549(10) 0.38861(10)
C32_29 C 0.94852(12) 0.25529(11) 0.38023(12)
H15_29 H 0.9518 0.2570 0.3655
C33_29 C 0.94783(13) 0.27223(14) 0.39340(15)
H16_29 H 0.9524 0.2857 0.3882
C34_29 C 0.94086(14) 0.27071(13) 0.41387(16)
C35_29 C 0.93546(19) 0.25117(16) 0.42262(14)
H17_29 H 0.9314 0.2497 0.4371
C36_29 C 0.93639(17) 0.23434(14) 0.40924(14)
H18_29 H 0.9313 0.2210 0.4142
C37_29 C 0.94688(11) 0.21674(10) 0.37530(10)
C38_29 C 0.9422(2) 0.28933(16) 0.43056(15)
C39_29 C 0.92847(17) 0.29216(19) 0.4459(2)
H19_29 H 0.9165 0.2829 0.4468
O15_13 O 0.94069(5) 0.45890(5) 0.51797(4)
O16_13 O 0.91956(5) 0.47984(6) 0.49880(5)
C40_13 C 0.95253(5) 0.46784(5) 0.48375(5)
C41_13 C 0.95250(5) 0.48338(5) 0.46828(5)
H20_13 H 0.9417 0.4940 0.4685
C42_13 C 0.93637(6) 0.46953(7) 0.50179(7)
O17_13 O 0.95890(5) 0.51797(4) 0.44069(5)
O18_13 O 0.97984(6) 0.49880(5) 0.41956(5)
C43_13 C 0.96784(5) 0.48375(5) 0.45253(5)
C44_13 C 0.98338(5) 0.46828(5) 0.45250(5)
H21_13 H 0.9940 0.4685 0.4417
C45_13 C 0.96953(7) 0.50179(7) 0.43637(6)
O19_13 O 0.91141(5) 0.49355(6) 0.54754(4)
O20_13 O 0.88684(7) 0.48514(7) 0.57126(8)
O21_9 O 0.84891(6) 0.53947(8) 0.61104(7)
O22_13 O 0.85604(8) 0.57180(10) 0.60708(9)
O23_13 O 0.91353(5) 0.59314(7) 0.55736(6)
O24_13 O 0.93586(5) 0.56758(6) 0.54696(7)
C46_13 C 0.89557(7) 0.52158(9) 0.56840(7)
C47_13 C 0.87916(8) 0.52674(10) 0.58267(7)
H22_13 H 0.8701 0.5160 0.5884
C48_13 C 0.87666(8) 0.54750(11) 0.58794(9)
C49_13 C 0.88894(7) 0.56345(10) 0.57879(7)
H23_13 H 0.8864 0.5780 0.5820
C50_13 C 0.90558(6) 0.55754(9) 0.56435(7)
C51_13 C 0.90850(6) 0.53616(9) 0.56009(7)
H24_13 H 0.9199 0.5318 0.5511
C52_13 C 0.89787(8) 0.49838(12) 0.56183(9)
C53_13 C 0.85940(10) 0.55381(13) 0.60299(10)
C54_13 C 0.91969(7) 0.57393(10) 0.55557(8)
O25_13 O 0.99355(6) 0.54754(4) 0.41141(5)
O26_13 O 0.98514(7) 0.57126(8) 0.38684(7)
C61_13 C 0.99838(12) 0.56183(9) 0.39787(8)
Zn7_29 Zn 0.831468(9) 0.284656(11) 0.538606(8)
Zn8_29 Zn 0.965344(11) 0.211394(8) 0.331468(9)
Zn9_13 Zn 0.961394(8) 0.581468(9) 0.534656(11)
Zn15_29 Zn 0.954533(13) 0.173615(10) 0.369206(11)
Zn17_13 Zn 0.923615(10) 0.619206(11) 0.545467(13)
O31_9 O 0.86104(7) 0.46053(8) 0.59891(6)
O34_13 O 0.94264(6) 0.58647(5) 0.40686(7)
O36_13 O 0.90686(7) 0.44264(6) 0.58647(5)
O37_13 O 0.95304(7) 0.56414(5) 0.43242(6)
O39_13 O 0.93242(6) 0.45304(7) 0.56414(5)
O3_14 O 0.13896(7) 0.40109(6) 0.03947(8)
O4_14 O 0.14292(9) 0.39396(8) 0.07180(10)
O5_14 O 0.19264(6) 0.33647(5) 0.09314(7)
O6_14 O 0.20304(7) 0.31414(5) 0.06758(6)
C1_14 C 0.18160(7) 0.35443(7) 0.02158(9)
C2_14 C 0.16733(7) 0.37084(8) 0.02674(10)
H1_14 H 0.1616 0.3799 0.0160
C3_14 C 0.16206(9) 0.37334(8) 0.04750(11)
C4_14 C 0.17121(7) 0.36106(7) 0.06345(10)
H2_14 H 0.1680 0.3636 0.0780
C5_14 C 0.18565(7) 0.34442(6) 0.05754(9)
C6_14 C 0.18991(7) 0.34150(6) 0.03616(9)
H3_14 H 0.1989 0.3301 0.0318
C8_14 C 0.14701(10) 0.39060(10) 0.05381(13)
C9_14 C 0.19443(8) 0.33031(7) 0.07393(10)
O11_30 O 0.36635(6) 0.44738(8) 0.05089(7)
O12_30 O 0.39438(8) 0.44765(7) 0.03042(6)
C22_30 C 0.36139(10) 0.44440(12) 0.01451(10)
H12_30 H 0.3129 0.4314 0.0003
C27_30 C 0.34076(14) 0.43639(17) 0.01566(14)
H13_30 H 0.3358 0.4313 0.0290
C28_30 C 0.37470(10) 0.44688(11) 0.03326(10)
O15_14 O 0.30931(5) 0.29110(5) 0.01797(4)
C42_14 C 0.31363(6) 0.28047(7) 0.00179(7)
O19_14 O 0.33859(5) 0.25645(6) 0.04754(4)
O20_14 O 0.36316(7) 0.26486(7) 0.07126(8)
O21_10 O 0.40109(6) 0.21053(8) 0.11104(7)
O22_14 O 0.39396(8) 0.17820(10) 0.10708(9)
O23_14 O 0.33647(5) 0.15686(7) 0.05736(6)
O24_14 O 0.31414(5) 0.18242(6) 0.04696(7)
C46_14 C 0.35443(7) 0.22842(9) 0.06840(7)
C47_14 C 0.37084(8) 0.22326(10) 0.08267(7)
H22_14 H 0.3799 0.2340 0.0884
C48_14 C 0.37334(8) 0.20250(11) 0.08794(9)
C49_14 C 0.36106(7) 0.18655(10) 0.07879(7)
H23_14 H 0.3636 0.1720 0.0820
C50_14 C 0.34442(6) 0.19246(9) 0.06435(7)
C51_14 C 0.34150(6) 0.21384(9) 0.06009(7)
H24_14 H 0.3301 0.2182 0.0511
C52_14 C 0.35213(8) 0.25162(12) 0.06183(9)
C53_14 C 0.39060(10) 0.19619(13) 0.10299(10)
C54_14 C 0.33031(7) 0.17607(10) 0.05557(8)
Zn7_30 Zn 0.418532(9) 0.465344(11) 0.038606(8)
Zn9_14 Zn 0.288606(8) 0.168532(9) 0.034656(11)
Zn11_14 Zn 0.215344(11) 0.288606(8) 0.081468(9)
Zn17_14 Zn 0.326385(10) 0.130794(11) 0.045467(13)
Zn19_14 Zn 0.204533(13) 0.326385(10) 0.119206(11)
O31_10 O 0.38896(7) 0.28947(8) 0.09891(6)
O36_14 O 0.34314(7) 0.30736(6) 0.08647(5)
O39_14 O 0.31758(6) 0.29696(7) 0.06414(5)
Zn1_10 Zn 0.211394(8) 0.331468(9) 0.965344(11)
Zn2_10 Zn 0.173615(10) 0.369206(11) 0.954533(13)
O1_14 O 0.20246(4) 0.33859(5) 0.99355(6)
O2_14 O 0.17874(8) 0.36316(7) 0.98514(7)
C7_14 C 0.18817(9) 0.35213(8) 0.99838(12)
O7_10 O 0.19911(7) 0.38365(6) 0.94738(8)
O8_10 O 0.21958(6) 0.35562(8) 0.94765(7)
C10_30 C 0.23549(10) 0.38861(10) 0.94440(12)
C11_30 C 0.25529(11) 0.38023(12) 0.94852(12)
H4_30 H 0.2570 0.3655 0.9518
C12_30 C 0.27223(14) 0.39340(15) 0.94783(13)
H5_30 H 0.2857 0.3882 0.9524
C13_30 C 0.27071(13) 0.41387(16) 0.94086(14)
C14_30 C 0.25117(16) 0.42262(14) 0.93546(19)
H6_30 H 0.2497 0.4371 0.9314
C15_30 C 0.23434(14) 0.40924(14) 0.93639(17)
H7_30 H 0.2210 0.4142 0.9313
C16_30 C 0.21674(10) 0.37530(10) 0.94688(11)
C17_30 C 0.28933(16) 0.43056(15) 0.9422(2)
O9_14 O 0.23203(4) 0.30931(5) 0.95890(5)
O10_14 O 0.25120(5) 0.33044(5) 0.97984(6)
C18_30 C 0.29216(19) 0.4459(2) 0.92847(17)
H8_30 H 0.2829 0.4468 0.9165
C19_14 C 0.26625(5) 0.29747(5) 0.96784(5)
C20_14 C 0.28172(5) 0.29750(5) 0.98338(5)
H9_14 H 0.2815 0.3083 0.9940
C21_14 C 0.24821(7) 0.31363(6) 0.96953(7)
C23_30 C 0.36977(12) 0.44852(12) 0.99471(11)
H10_30 H 0.3845 0.4518 0.9930
C24_30 C 0.35660(15) 0.44783(13) 0.97777(14)
H11_30 H 0.3618 0.4524 0.9643
C25_30 C 0.33613(16) 0.44086(14) 0.97929(13)
C26_30 C 0.32738(14) 0.43546(19) 0.99883(16)
C29_30 C 0.31944(15) 0.4422(2) 0.96067(16)
C30_30 C 0.3041(2) 0.42847(17) 0.95784(19)
H14_30 H 0.3032 0.4165 0.9671
O13_30 O 0.30262(8) 0.55089(7) 0.88365(6)
O14_30 O 0.30235(7) 0.53042(6) 0.85562(8)
C31_30 C 0.30560(12) 0.51451(10) 0.88861(10)
C32_30 C 0.30148(12) 0.49471(11) 0.88023(12)
H15_30 H 0.2982 0.4930 0.8655
C33_30 C 0.30217(13) 0.47777(14) 0.89340(15)
H16_30 H 0.2976 0.4643 0.8882
C34_30 C 0.30914(14) 0.47929(13) 0.91387(16)
C35_30 C 0.31454(19) 0.49883(16) 0.92262(14)
H17_30 H 0.3186 0.5003 0.9371
C36_30 C 0.31361(17) 0.51566(14) 0.90924(14)
H18_30 H 0.3187 0.5290 0.9142
C37_30 C 0.30312(11) 0.53326(10) 0.87530(10)
C38_30 C 0.3078(2) 0.46067(16) 0.93056(15)
C39_30 C 0.32153(17) 0.45784(19) 0.9459(2)
H19_30 H 0.3335 0.4671 0.9468
O16_14 O 0.33044(5) 0.27016(6) 0.99880(5)
C40_14 C 0.29747(5) 0.28216(5) 0.98375(5)
C41_14 C 0.29750(5) 0.26662(5) 0.96828(5)
H20_14 H 0.3083 0.2560 0.9685
O17_14 O 0.29110(5) 0.23203(4) 0.94069(5)
O18_14 O 0.27016(6) 0.25120(5) 0.91956(5)
C43_14 C 0.28216(5) 0.26625(5) 0.95253(5)
C44_14 C 0.26662(5) 0.28172(5) 0.95250(5)
H21_14 H 0.2560 0.2815 0.9417
C45_14 C 0.28047(7) 0.24821(7) 0.93637(6)
O25_14 O 0.25645(6) 0.20246(4) 0.91141(5)
O26_14 O 0.26486(7) 0.17874(8) 0.88684(7)
O28_14 O 0.17820(10) 0.14292(9) 0.85604(8)
O29_14 O 0.15686(7) 0.19264(6) 0.91353(5)
O30_14 O 0.18242(6) 0.20304(7) 0.93586(5)
C55_14 C 0.22842(9) 0.18160(7) 0.89557(7)
C56_14 C 0.22326(10) 0.16733(7) 0.87916(8)
H25_14 H 0.2340 0.1616 0.8701
C57_14 C 0.20250(11) 0.16206(9) 0.87666(8)
C58_14 C 0.18655(10) 0.17121(7) 0.88894(7)
H26_14 H 0.1720 0.1680 0.8864
C59_14 C 0.19246(9) 0.18565(7) 0.90558(6)
C60_14 C 0.21384(9) 0.18991(7) 0.90850(6)
H27_14 H 0.2182 0.1989 0.9199
C61_14 C 0.25162(12) 0.18817(9) 0.89787(8)
C62_14 C 0.19619(13) 0.14701(10) 0.85940(10)
C63_14 C 0.17607(10) 0.19443(8) 0.91969(7)
Zn8_30 Zn 0.284656(11) 0.538606(8) 0.831468(9)
Zn10_14 Zn 0.168532(9) 0.215344(11) 0.961394(8)
Zn15_30 Zn 0.295467(13) 0.576385(10) 0.869206(11)
Zn18_14 Zn 0.130794(11) 0.204533(13) 0.923615(10)
O33_14 O 0.15109(6) 0.38896(7) 0.96053(8)
O34_14 O 0.30736(6) 0.16353(5) 0.90686(7)
O35_14 O 0.16353(5) 0.34314(7) 0.94264(6)
O37_14 O 0.29696(7) 0.18586(5) 0.93242(6)
O38_14 O 0.18586(5) 0.31758(6) 0.95304(7)
O13_31 O 0.44738(8) 0.05089(7) 0.36635(6)
O14_31 O 0.44765(7) 0.03042(6) 0.39438(8)
C31_31 C 0.44440(12) 0.01451(10) 0.36139(10)
H17_31 H 0.4314 0.0003 0.3129
C36_31 C 0.43639(17) 0.01566(14) 0.34076(14)
H18_31 H 0.4313 0.0290 0.3358
C37_31 C 0.44688(11) 0.03326(10) 0.37470(10)
Zn8_31 Zn 0.465344(11) 0.038606(8) 0.418532(9)
Zn15_31 Zn 0.454533(13) 0.076385(10) 0.380794(11)
Zn1_11 Zn 0.538606(8) 0.831468(9) 0.284656(11)
Zn2_11 Zn 0.576385(10) 0.869206(11) 0.295467(13)
O1_15 O 0.54754(4) 0.83859(5) 0.25645(6)
O2_15 O 0.57126(8) 0.86316(7) 0.26486(7)
O3_15 O 0.61104(7) 0.90109(6) 0.21053(8)
O4_15 O 0.60708(9) 0.89396(8) 0.17820(10)
O5_15 O 0.55736(6) 0.83647(5) 0.15686(7)
O6_15 O 0.54696(7) 0.81414(5) 0.18242(6)
C1_15 C 0.56840(7) 0.85443(7) 0.22842(9)
C2_15 C 0.58267(7) 0.87084(8) 0.22326(10)
H1_15 H 0.5884 0.8799 0.2340
C3_15 C 0.58794(9) 0.87334(8) 0.20250(11)
C4_15 C 0.57879(7) 0.86106(7) 0.18655(10)
H2_15 H 0.5820 0.8636 0.1720
C5_15 C 0.56435(7) 0.84442(6) 0.19246(9)
C6_15 C 0.56009(7) 0.84150(6) 0.21384(9)
H3_15 H 0.5511 0.8301 0.2182
C7_15 C 0.56183(9) 0.85213(8) 0.25162(12)
C8_15 C 0.60299(10) 0.89060(10) 0.19619(13)
C9_15 C 0.55557(8) 0.83031(7) 0.17607(10)
O7_11 O 0.55089(7) 0.88365(6) 0.30262(8)
O8_11 O 0.53042(6) 0.85562(8) 0.30235(7)
C10_31 C 0.51451(10) 0.88861(10) 0.30560(12)
C11_31 C 0.49471(11) 0.88023(12) 0.30148(12)
H4_31 H 0.4930 0.8655 0.2982
C12_31 C 0.47777(14) 0.89340(15) 0.30217(13)
H5_31 H 0.4643 0.8882 0.2976
C13_31 C 0.47929(13) 0.91387(16) 0.30914(14)
C14_31 C 0.49883(16) 0.92262(14) 0.31454(19)
H6_31 H 0.5003 0.9371 0.3186
C15_31 C 0.51566(14) 0.90924(14) 0.31361(17)
H7_31 H 0.5290 0.9142 0.3187
C16_31 C 0.53326(10) 0.87530(10) 0.30312(11)
C17_31 C 0.46067(16) 0.93056(15) 0.3078(2)
O9_15 O 0.51797(4) 0.80931(5) 0.29110(5)
O10_15 O 0.49880(5) 0.83044(5) 0.27016(6)
C18_31 C 0.45784(19) 0.9459(2) 0.32153(17)
H8_31 H 0.4671 0.9468 0.3335
C19_15 C 0.48375(5) 0.79747(5) 0.28216(5)
C20_15 C 0.46828(5) 0.79750(5) 0.26662(5)
H9_15 H 0.4685 0.8083 0.2560
C21_15 C 0.50179(7) 0.81363(6) 0.28047(7)
O11_31 O 0.38365(6) 0.94738(8) 0.19911(7)
O12_31 O 0.35562(8) 0.94765(7) 0.21958(6)
C22_31 C 0.38861(10) 0.94440(12) 0.23549(10)
C23_31 C 0.38023(12) 0.94852(12) 0.25529(11)
H10_31 H 0.3655 0.9518 0.2570
C24_31 C 0.39340(15) 0.94783(13) 0.27223(14)
H11_31 H 0.3882 0.9524 0.2857
C25_31 C 0.41387(16) 0.94086(14) 0.27071(13)
C26_31 C 0.42262(14) 0.93546(19) 0.25117(16)
H12_31 H 0.4371 0.9314 0.2497
C27_31 C 0.40924(14) 0.93639(17) 0.23434(14)
H13_31 H 0.4142 0.9313 0.2210
C28_31 C 0.37530(10) 0.94688(11) 0.21674(10)
C29_31 C 0.43056(15) 0.9422(2) 0.28933(16)
C30_31 C 0.4459(2) 0.92847(17) 0.29216(19)
H14_31 H 0.4468 0.9165 0.2829
C32_31 C 0.44852(12) 0.99471(11) 0.36977(12)
H15_31 H 0.4518 0.9930 0.3845
C33_31 C 0.44783(13) 0.97777(14) 0.35660(15)
H16_31 H 0.4524 0.9643 0.3618
C34_31 C 0.44086(14) 0.97929(13) 0.33613(16)
C35_31 C 0.43546(19) 0.99883(16) 0.32738(14)
C38_31 C 0.4422(2) 0.96067(16) 0.31944(15)
C39_31 C 0.42847(17) 0.95784(19) 0.3041(2)
H19_31 H 0.4165 0.9671 0.3032
O15_15 O 0.44069(5) 0.79110(5) 0.23203(4)
O16_15 O 0.41956(5) 0.77016(6) 0.25120(5)
C40_15 C 0.45253(5) 0.78216(5) 0.26625(5)
C41_15 C 0.45250(5) 0.76662(5) 0.28172(5)
H20_15 H 0.4417 0.7560 0.2815
C42_15 C 0.43637(6) 0.78047(7) 0.24821(7)
O17_15 O 0.45890(5) 0.73203(4) 0.30931(5)
O18_15 O 0.47984(6) 0.75120(5) 0.33044(5)
C43_15 C 0.46784(5) 0.76625(5) 0.29747(5)
C44_15 C 0.48338(5) 0.78172(5) 0.29750(5)
H21_15 H 0.4940 0.7815 0.3083
C45_15 C 0.46953(7) 0.74821(7) 0.31363(6)
O19_15 O 0.41141(5) 0.75645(6) 0.20246(4)
O20_15 O 0.38684(7) 0.76486(7) 0.17874(8)
O21_11 O 0.34891(6) 0.71053(8) 0.13896(7)
O22_15 O 0.35604(8) 0.67820(10) 0.14292(9)
O23_15 O 0.41353(5) 0.65686(7) 0.19264(6)
O24_15 O 0.43586(5) 0.68242(6) 0.20304(7)
C46_15 C 0.39557(7) 0.72842(9) 0.18160(7)
C47_15 C 0.37916(8) 0.72326(10) 0.16733(7)
H22_15 H 0.3701 0.7340 0.1616
C48_15 C 0.37666(8) 0.70250(11) 0.16206(9)
C49_15 C 0.38894(7) 0.68655(10) 0.17121(7)
H23_15 H 0.3864 0.6720 0.1680
C50_15 C 0.40558(6) 0.69246(9) 0.18565(7)
C51_15 C 0.40850(6) 0.71384(9) 0.18991(7)
H24_15 H 0.4199 0.7182 0.1989
C52_15 C 0.39787(8) 0.75162(12) 0.18817(9)
C53_15 C 0.35940(10) 0.69619(13) 0.14701(10)
C54_15 C 0.41969(7) 0.67607(10) 0.19443(8)
O25_15 O 0.49355(6) 0.70246(4) 0.33859(5)
O26_15 O 0.48514(7) 0.67874(8) 0.36316(7)
O28_15 O 0.57180(10) 0.64292(9) 0.39396(8)
O29_15 O 0.59314(7) 0.69264(6) 0.33647(5)
O30_15 O 0.56758(6) 0.70304(7) 0.31414(5)
C55_15 C 0.52158(9) 0.68160(7) 0.35443(7)
C56_15 C 0.52674(10) 0.66733(7) 0.37084(8)
H25_15 H 0.5160 0.6616 0.3799
C57_15 C 0.54750(11) 0.66206(9) 0.37334(8)
C58_15 C 0.56345(10) 0.67121(7) 0.36106(7)
H26_15 H 0.5780 0.6680 0.3636
C59_15 C 0.55754(9) 0.68565(7) 0.34442(6)
C60_15 C 0.53616(9) 0.68991(7) 0.34150(6)
H27_15 H 0.5318 0.6989 0.3301
C61_15 C 0.49838(12) 0.68817(9) 0.35213(8)
C62_15 C 0.55381(13) 0.64701(10) 0.39060(10)
C63_15 C 0.57393(10) 0.69443(8) 0.33031(7)
Zn7_31 Zn 0.331468(9) 0.965344(11) 0.211394(8)
Zn9_15 Zn 0.461394(8) 0.668532(9) 0.215344(11)
Zn10_15 Zn 0.581468(9) 0.715344(11) 0.288606(8)
Zn11_15 Zn 0.534656(11) 0.788606(8) 0.168532(9)
Zn17_15 Zn 0.423615(10) 0.630794(11) 0.204533(13)
Zn18_15 Zn 0.619206(11) 0.704533(13) 0.326385(10)
Zn19_15 Zn 0.545467(13) 0.826385(10) 0.130794(11)
O31_11 O 0.36104(7) 0.78947(8) 0.15109(6)
O33_15 O 0.59891(6) 0.88896(7) 0.28947(8)
O34_15 O 0.44264(6) 0.66353(5) 0.34314(7)
O35_15 O 0.58647(5) 0.84314(7) 0.30736(6)
O36_15 O 0.40686(7) 0.80736(6) 0.16353(5)
O37_15 O 0.45304(7) 0.68586(5) 0.31758(6)
O38_15 O 0.56414(5) 0.81758(6) 0.29696(7)
O39_15 O 0.43242(6) 0.79696(7) 0.18586(5)
O17_16 O 0.79110(5) 0.01797(4) 0.80931(5)
C45_16 C 0.78047(7) 0.00179(7) 0.81363(6)
O21_12 O 0.90109(6) 0.03947(8) 0.63896(7)
O22_16 O 0.89396(8) 0.07180(10) 0.64292(9)
O23_16 O 0.83647(5) 0.09314(7) 0.69264(6)
O24_16 O 0.81414(5) 0.06758(6) 0.70304(7)
C46_16 C 0.85443(7) 0.02158(9) 0.68160(7)
C47_16 C 0.87084(8) 0.02674(10) 0.66733(7)
H22_16 H 0.8799 0.0160 0.6616
C48_16 C 0.87334(8) 0.04750(11) 0.66206(9)
C49_16 C 0.86106(7) 0.06345(10) 0.67121(7)
H23_16 H 0.8636 0.0780 0.6680
C50_16 C 0.84442(6) 0.05754(9) 0.68565(7)
C51_16 C 0.84150(6) 0.03616(9) 0.68991(7)
H24_16 H 0.8301 0.0318 0.6989
C53_16 C 0.89060(10) 0.05381(13) 0.64701(10)
C54_16 C 0.83031(7) 0.07393(10) 0.69443(8)
O25_16 O 0.75645(6) 0.04754(4) 0.83859(5)
O26_16 O 0.76486(7) 0.07126(8) 0.86316(7)
O28_16 O 0.67820(10) 0.10708(9) 0.89396(8)
O29_16 O 0.65686(7) 0.05736(6) 0.83647(5)
O30_16 O 0.68242(6) 0.04696(7) 0.81414(5)
C55_16 C 0.72842(9) 0.06840(7) 0.85443(7)
C56_16 C 0.72326(10) 0.08267(7) 0.87084(8)
H25_16 H 0.7340 0.0884 0.8799
C57_16 C 0.70250(11) 0.08794(9) 0.87334(8)
C58_16 C 0.68655(10) 0.07879(7) 0.86106(7)
H26_16 H 0.6720 0.0820 0.8636
C59_16 C 0.69246(9) 0.06435(7) 0.84442(6)
C60_16 C 0.71384(9) 0.06009(7) 0.84150(6)
H27_16 H 0.7182 0.0511 0.8301
C61_16 C 0.75162(12) 0.06183(9) 0.85213(8)
C62_16 C 0.69619(13) 0.10299(10) 0.89060(10)
C63_16 C 0.67607(10) 0.05557(8) 0.83031(7)
Zn9_16 Zn 0.788606(8) 0.081468(9) 0.715344(11)
Zn10_16 Zn 0.668532(9) 0.034656(11) 0.788606(8)
Zn17_16 Zn 0.826385(10) 0.119206(11) 0.704533(13)
Zn18_16 Zn 0.630794(11) 0.045467(13) 0.826385(10)
O34_16 O 0.80736(6) 0.08647(5) 0.84314(7)
O37_16 O 0.79696(7) 0.06414(5) 0.81758(6)
Zn1_12 Zn 0.711394(8) 0.918532(9) 0.784656(11)
Zn2_12 Zn 0.673615(10) 0.880794(11) 0.795467(13)
O1_16 O 0.70246(4) 0.91141(5) 0.75645(6)
O2_16 O 0.67874(8) 0.88684(7) 0.76486(7)
O3_16 O 0.63896(7) 0.84891(6) 0.71053(8)
O4_16 O 0.64292(9) 0.85604(8) 0.67820(10)
O5_16 O 0.69264(6) 0.91353(5) 0.65686(7)
O6_16 O 0.70304(7) 0.93586(5) 0.68242(6)
C1_16 C 0.68160(7) 0.89557(7) 0.72842(9)
C2_16 C 0.66733(7) 0.87916(8) 0.72326(10)
H1_16 H 0.6616 0.8701 0.7340
C3_16 C 0.66206(9) 0.87666(8) 0.70250(11)
C4_16 C 0.67121(7) 0.88894(7) 0.68655(10)
H2_16 H 0.6680 0.8864 0.6720
C5_16 C 0.68565(7) 0.90558(6) 0.69246(9)
C6_16 C 0.68991(7) 0.90850(6) 0.71384(9)
H3_16 H 0.6989 0.9199 0.7182
C7_16 C 0.68817(9) 0.89787(8) 0.75162(12)
C8_16 C 0.64701(10) 0.85940(10) 0.69619(13)
C9_16 C 0.69443(8) 0.91969(7) 0.67607(10)
O7_12 O 0.69911(7) 0.86635(6) 0.80262(8)
O8_12 O 0.71958(6) 0.89438(8) 0.80235(7)
C10_32 C 0.73549(10) 0.86139(10) 0.80560(12)
C11_32 C 0.75529(11) 0.86977(12) 0.80148(12)
H4_32 H 0.7570 0.8845 0.7982
C12_32 C 0.77223(14) 0.85660(15) 0.80217(13)
H5_32 H 0.7857 0.8618 0.7976
C13_32 C 0.77071(13) 0.83613(16) 0.80914(14)
C14_32 C 0.75117(16) 0.82738(14) 0.81454(19)
H6_32 H 0.7497 0.8129 0.8186
C15_32 C 0.73434(14) 0.84076(14) 0.81361(17)
H7_32 H 0.7210 0.8358 0.8187
C16_32 C 0.71674(10) 0.87470(10) 0.80312(11)
C17_32 C 0.78933(16) 0.81944(15) 0.8078(2)
O9_16 O 0.73203(4) 0.94069(5) 0.79110(5)
O10_16 O 0.75120(5) 0.91956(5) 0.77016(6)
C18_32 C 0.79216(19) 0.8041(2) 0.82153(17)
H8_32 H 0.7829 0.8032 0.8335
C19_16 C 0.76625(5) 0.95253(5) 0.78216(5)
C20_16 C 0.78172(5) 0.95250(5) 0.76662(5)
H9_16 H 0.7815 0.9417 0.7560
C21_16 C 0.74821(7) 0.93637(6) 0.78047(7)
O11_32 O 0.86635(6) 0.80262(8) 0.69911(7)
O12_32 O 0.89438(8) 0.80235(7) 0.71958(6)
C22_32 C 0.86139(10) 0.80560(12) 0.73549(10)
C23_32 C 0.86977(12) 0.80148(12) 0.75529(11)
H10_32 H 0.8845 0.7982 0.7570
C24_32 C 0.85660(15) 0.80217(13) 0.77223(14)
H11_32 H 0.8618 0.7976 0.7857
C25_32 C 0.83613(16) 0.80914(14) 0.77071(13)
C26_32 C 0.82738(14) 0.81454(19) 0.75117(16)
H12_32 H 0.8129 0.8186 0.7497
C27_32 C 0.84076(14) 0.81361(17) 0.73434(14)
H13_32 H 0.8358 0.8187 0.7210
C28_32 C 0.87470(10) 0.80312(11) 0.71674(10)
C29_32 C 0.81944(15) 0.8078(2) 0.78933(16)
C30_32 C 0.8041(2) 0.82153(17) 0.79216(19)
H14_32 H 0.8032 0.8335 0.7829
O13_32 O 0.80262(8) 0.69911(7) 0.86635(6)
O14_32 O 0.80235(7) 0.71958(6) 0.89438(8)
C31_32 C 0.80560(12) 0.73549(10) 0.86139(10)
C32_32 C 0.80148(12) 0.75529(11) 0.86977(12)
H15_32 H 0.7982 0.7570 0.8845
C33_32 C 0.80217(13) 0.77223(14) 0.85660(15)
H16_32 H 0.7976 0.7857 0.8618
C34_32 C 0.80914(14) 0.77071(13) 0.83613(16)
C35_32 C 0.81454(19) 0.75117(16) 0.82738(14)
H17_32 H 0.8186 0.7497 0.8129
C36_32 C 0.81361(17) 0.73434(14) 0.84076(14)
H18_32 H 0.8187 0.7210 0.8358
C37_32 C 0.80312(11) 0.71674(10) 0.87470(10)
C38_32 C 0.8078(2) 0.78933(16) 0.81944(15)
C39_32 C 0.82153(17) 0.79216(19) 0.8041(2)
H19_32 H 0.8335 0.7829 0.8032
O15_16 O 0.80931(5) 0.95890(5) 0.73203(4)
O16_16 O 0.83044(5) 0.97984(6) 0.75120(5)
C40_16 C 0.79747(5) 0.96784(5) 0.76625(5)
C41_16 C 0.79750(5) 0.98338(5) 0.78172(5)
H20_16 H 0.8083 0.9940 0.7815
C42_16 C 0.81363(6) 0.96953(7) 0.74821(7)
O18_16 O 0.77016(6) 0.99880(5) 0.83044(5)
C43_16 C 0.78216(5) 0.98375(5) 0.79747(5)
C44_16 C 0.76662(5) 0.96828(5) 0.79750(5)
H21_16 H 0.7560 0.9685 0.8083
O19_16 O 0.83859(5) 0.99355(6) 0.70246(4)
O20_16 O 0.86316(7) 0.98514(7) 0.67874(8)
C52_16 C 0.85213(8) 0.99838(12) 0.68817(9)
Zn7_32 Zn 0.918532(9) 0.784656(11) 0.711394(8)
Zn8_32 Zn 0.784656(11) 0.711394(8) 0.918532(9)
Zn11_16 Zn 0.715344(11) 0.961394(8) 0.668532(9)
Zn15_32 Zn 0.795467(13) 0.673615(10) 0.880794(11)
Zn19_16 Zn 0.704533(13) 0.923615(10) 0.630794(11)
O31_12 O 0.88896(7) 0.96053(8) 0.65109(6)
O33_16 O 0.65109(6) 0.86104(7) 0.78947(8)
O35_16 O 0.66353(5) 0.90686(7) 0.80736(6)
O36_16 O 0.84314(7) 0.94264(6) 0.66353(5)
O38_16 O 0.68586(5) 0.93242(6) 0.79696(7)
O39_16 O 0.81758(6) 0.95304(7) 0.68586(5)
O1_17 O 0.16141(5) 0.29754(4) 0.50645(6)
O2_17 O 0.13684(7) 0.32126(8) 0.51486(7)
O4_17 O 0.10604(8) 0.35708(9) 0.42820(10)
O5_17 O 0.16353(5) 0.30736(6) 0.40686(7)
O6_17 O 0.18586(5) 0.29696(7) 0.43242(6)
C1_17 C 0.14557(7) 0.31840(7) 0.47842(9)
C2_17 C 0.12916(8) 0.33267(7) 0.47326(10)
H1_17 H 0.1201 0.3384 0.4840
C3_17 C 0.12666(8) 0.33794(9) 0.45250(11)
C4_17 C 0.13894(7) 0.32879(7) 0.43655(10)
H2_17 H 0.1364 0.3320 0.4220
C5_17 C 0.15558(6) 0.31435(7) 0.44246(9)
C6_17 C 0.15850(6) 0.31009(7) 0.46384(9)
H3_17 H 0.1699 0.3011 0.4682
C7_17 C 0.14787(8) 0.31183(9) 0.50162(12)
C8_17 C 0.10940(10) 0.35299(10) 0.44619(13)
C9_17 C 0.16969(7) 0.30557(8) 0.42607(10)
O9_17 O 0.19069(5) 0.26797(4) 0.54110(5)
O10_17 O 0.16956(5) 0.24880(5) 0.52016(6)
C19_17 C 0.20253(5) 0.23375(5) 0.53216(5)
C20_17 C 0.20250(5) 0.21828(5) 0.51662(5)
H9_17 H 0.1917 0.2185 0.5060
C21_17 C 0.18637(6) 0.25179(7) 0.53047(7)
O15_17 O 0.20890(5) 0.19069(5) 0.48203(4)
O16_17 O 0.22984(6) 0.16956(5) 0.50120(5)
C40_17 C 0.21784(5) 0.20253(5) 0.51625(5)
C41_17 C 0.23338(5) 0.20250(5) 0.53172(5)
H20_17 H 0.2440 0.1917 0.5315
C42_17 C 0.21953(7) 0.18637(6) 0.49821(7)
O17_17 O 0.26797(4) 0.20890(5) 0.55931(5)
O18_17 O 0.24880(5) 0.22984(6) 0.58044(5)
C43_17 C 0.23375(5) 0.21784(5) 0.54747(5)
C44_17 C 0.21828(5) 0.23338(5) 0.54750(5)
H21_17 H 0.2185 0.2440 0.5583
C45_17 C 0.25179(7) 0.21953(7) 0.56363(6)
O19_17 O 0.24355(6) 0.16141(5) 0.45246(4)
O20_17 O 0.23514(7) 0.13684(7) 0.42874(8)
O21_13 O 0.28947(8) 0.09891(6) 0.38896(7)
O22_17 O 0.32180(10) 0.10604(8) 0.39292(9)
O23_17 O 0.34314(7) 0.16353(5) 0.44264(6)
O24_17 O 0.31758(6) 0.18586(5) 0.45304(7)
C46_17 C 0.27158(9) 0.14557(7) 0.43160(7)
C47_17 C 0.27674(10) 0.12916(8) 0.41733(7)
H22_17 H 0.2660 0.1201 0.4116
C48_17 C 0.29750(11) 0.12666(8) 0.41206(9)
C49_17 C 0.31345(10) 0.13894(7) 0.42121(7)
H23_17 H 0.3280 0.1364 0.4180
C50_17 C 0.30754(9) 0.15558(6) 0.43565(7)
C51_17 C 0.28616(9) 0.15850(6) 0.43991(7)
H24_17 H 0.2818 0.1699 0.4489
C52_17 C 0.24838(12) 0.14787(8) 0.43817(9)
C53_17 C 0.30381(13) 0.10940(10) 0.39701(10)
C54_17 C 0.32393(10) 0.16969(7) 0.44443(8)
O25_17 O 0.29754(4) 0.24355(6) 0.58859(5)
O26_17 O 0.32126(8) 0.23514(7) 0.61316(7)
O28_17 O 0.35708(9) 0.32180(10) 0.64396(8)
O29_17 O 0.30736(6) 0.34314(7) 0.58647(5)
O30_17 O 0.29696(7) 0.31758(6) 0.56414(5)
C55_17 C 0.31840(7) 0.27158(9) 0.60443(7)
C56_17 C 0.33267(7) 0.27674(10) 0.62084(8)
H25_17 H 0.3384 0.2660 0.6299
C57_17 C 0.33794(9) 0.29750(11) 0.62334(8)
C58_17 C 0.32879(7) 0.31345(10) 0.61106(7)
H26_17 H 0.3320 0.3280 0.6136
C59_17 C 0.31435(7) 0.30754(9) 0.59442(6)
C60_17 C 0.31009(7) 0.28616(9) 0.59150(6)
H27_17 H 0.3011 0.2818 0.5801
C61_17 C 0.31183(9) 0.24838(12) 0.60213(8)
C62_17 C 0.35299(10) 0.30381(13) 0.64060(10)
C63_17 C 0.30557(8) 0.32393(10) 0.58031(7)
Zn9_17 Zn 0.331468(9) 0.211394(8) 0.465344(11)
Zn10_17 Zn 0.284656(11) 0.331468(9) 0.538606(8)
Zn11_17 Zn 0.211394(8) 0.284656(11) 0.418532(9)
Zn17_17 Zn 0.369206(11) 0.173615(10) 0.454533(13)
Zn18_17 Zn 0.295467(13) 0.369206(11) 0.576385(10)
Zn19_17 Zn 0.173615(10) 0.295467(13) 0.380794(11)
O31_13 O 0.21053(8) 0.11104(7) 0.40109(6)
O34_17 O 0.33647(5) 0.19264(6) 0.59314(7)
O35_17 O 0.15686(7) 0.33647(5) 0.55736(6)
O36_17 O 0.19264(6) 0.15686(7) 0.41353(5)
O37_17 O 0.31414(5) 0.20304(7) 0.56758(6)
O38_17 O 0.18242(6) 0.31414(5) 0.54696(7)
O39_17 O 0.20304(7) 0.18242(6) 0.43586(5)
O1_18 O 0.08859(5) 0.45246(4) 0.00645(6)
O2_18 O 0.11316(7) 0.42874(8) 0.01486(7)
C7_18 C 0.10213(8) 0.43817(9) 0.00162(12)
O9_18 O 0.05931(5) 0.48203(4) 0.04110(5)
O10_18 O 0.08044(5) 0.50120(5) 0.02016(6)
C19_18 C 0.04747(5) 0.51625(5) 0.03216(5)
C20_18 C 0.04750(5) 0.53172(5) 0.01662(5)
H9_18 H 0.0583 0.5315 0.0060
C21_18 C 0.06363(6) 0.49821(7) 0.03047(7)
O16_18 O 0.02016(6) 0.58044(5) 0.00120(5)
C40_18 C 0.03216(5) 0.54747(5) 0.01625(5)
C41_18 C 0.01662(5) 0.54750(5) 0.03172(5)
H20_18 H 0.0060 0.5583 0.0315
O18_18 O 0.00120(5) 0.52016(6) 0.08044(5)
C43_18 C 0.01625(5) 0.53216(5) 0.04747(5)
C44_18 C 0.03172(5) 0.51662(5) 0.04750(5)
H21_18 H 0.0315 0.5060 0.0583
O35_18 O 0.09314(7) 0.41353(5) 0.05736(6)
O38_18 O 0.06758(6) 0.43586(5) 0.04696(7)
O4_18 O 0.14396(8) 0.39292(9) 0.92820(10)
O5_18 O 0.08647(5) 0.44264(6) 0.90686(7)
O6_18 O 0.06414(5) 0.45304(7) 0.93242(6)
C1_18 C 0.10443(7) 0.43160(7) 0.97842(9)
C2_18 C 0.12084(8) 0.41733(7) 0.97326(10)
H1_18 H 0.1299 0.4116 0.9840
C3_18 C 0.12334(8) 0.41206(9) 0.95250(11)
C4_18 C 0.11106(7) 0.42121(7) 0.93655(10)
H2_18 H 0.1136 0.4180 0.9220
C5_18 C 0.09442(6) 0.43565(7) 0.94246(9)
C6_18 C 0.09150(6) 0.43991(7) 0.96384(9)
H3_18 H 0.0801 0.4489 0.9682
C8_18 C 0.14060(10) 0.39701(10) 0.94619(13)
C9_18 C 0.08031(7) 0.44443(8) 0.92607(10)
O15_18 O 0.04110(5) 0.55931(5) 0.98203(4)
C42_18 C 0.03047(7) 0.56363(6) 0.99821(7)
O19_18 O 0.00645(6) 0.58859(5) 0.95246(4)
O20_18 O 0.01486(7) 0.61316(7) 0.92874(8)
C52_18 C 0.00162(12) 0.60213(8) 0.93817(9)
Zn11_18 Zn 0.038606(8) 0.465344(11) 0.918532(9)
Zn19_18 Zn 0.076385(10) 0.454533(13) 0.880794(11)
O31_14 O 0.03947(8) 0.63896(7) 0.90109(6)
O36_18 O 0.05736(6) 0.59314(7) 0.91353(5)
O39_18 O 0.04696(7) 0.56758(6) 0.93586(5)
O17_18 O 0.98203(4) 0.54110(5) 0.05931(5)
C45_18 C 0.99821(7) 0.53047(7) 0.06363(6)
O25_18 O 0.95246(4) 0.50645(6) 0.08859(5)
O26_18 O 0.92874(8) 0.51486(7) 0.11316(7)
O28_18 O 0.89292(9) 0.42820(10) 0.14396(8)
O29_18 O 0.94264(6) 0.40686(7) 0.08647(5)
O30_18 O 0.95304(7) 0.43242(6) 0.06414(5)
C55_18 C 0.93160(7) 0.47842(9) 0.10443(7)
C56_18 C 0.91733(7) 0.47326(10) 0.12084(8)
H25_18 H 0.9116 0.4840 0.1299
C57_18 C 0.91206(9) 0.45250(11) 0.12334(8)
C58_18 C 0.92121(7) 0.43655(10) 0.11106(7)
H26_18 H 0.9180 0.4220 0.1136
C59_18 C 0.93565(7) 0.44246(9) 0.09442(6)
C60_18 C 0.93991(7) 0.46384(9) 0.09150(6)
H27_18 H 0.9489 0.4682 0.0801
C61_18 C 0.93817(9) 0.50162(12) 0.10213(8)
C62_18 C 0.89701(10) 0.44619(13) 0.14060(10)
C63_18 C 0.94443(8) 0.42607(10) 0.08031(7)
Zn10_18 Zn 0.965344(11) 0.418532(9) 0.038606(8)
Zn18_18 Zn 0.954533(13) 0.380794(11) 0.076385(10)
O34_18 O 0.91353(5) 0.55736(6) 0.09314(7)
O37_18 O 0.93586(5) 0.54696(7) 0.06758(6)
O21_14 O 0.96053(8) 0.65109(6) 0.88896(7)
O22_18 O 0.92820(10) 0.64396(8) 0.89292(9)
O23_18 O 0.90686(7) 0.58647(5) 0.94264(6)
O24_18 O 0.93242(6) 0.56414(5) 0.95304(7)
C46_18 C 0.97842(9) 0.60443(7) 0.93160(7)
C47_18 C 0.97326(10) 0.62084(8) 0.91733(7)
H22_18 H 0.9840 0.6299 0.9116
C48_18 C 0.95250(11) 0.62334(8) 0.91206(9)
C49_18 C 0.93655(10) 0.61106(7) 0.92121(7)
H23_18 H 0.9220 0.6136 0.9180
C50_18 C 0.94246(9) 0.59442(6) 0.93565(7)
C51_18 C 0.96384(9) 0.59150(6) 0.93991(7)
H24_18 H 0.9682 0.5801 0.9489
C53_18 C 0.94619(13) 0.64060(10) 0.89701(10)
C54_18 C 0.92607(10) 0.58031(7) 0.94443(8)
Zn9_18 Zn 0.918532(9) 0.538606(8) 0.965344(11)
Zn17_18 Zn 0.880794(11) 0.576385(10) 0.954533(13)
O1_19 O 0.58859(5) 0.79754(4) 0.74355(6)
O2_19 O 0.61316(7) 0.82126(8) 0.73514(7)
O4_19 O 0.64396(8) 0.85708(9) 0.82180(10)
O5_19 O 0.58647(5) 0.80736(6) 0.84314(7)
O6_19 O 0.56414(5) 0.79696(7) 0.81758(6)
C1_19 C 0.60443(7) 0.81840(7) 0.77158(9)
C2_19 C 0.62084(8) 0.83267(7) 0.77674(10)
H1_19 H 0.6299 0.8384 0.7660
C3_19 C 0.62334(8) 0.83794(9) 0.79750(11)
C4_19 C 0.61106(7) 0.82879(7) 0.81345(10)
H2_19 H 0.6136 0.8320 0.8280
C5_19 C 0.59442(6) 0.81435(7) 0.80754(9)
C6_19 C 0.59150(6) 0.81009(7) 0.78616(9)
H3_19 H 0.5801 0.8011 0.7818
C7_19 C 0.60213(8) 0.81183(9) 0.74838(12)
C8_19 C 0.64060(10) 0.85299(10) 0.80381(13)
C9_19 C 0.58031(7) 0.80557(8) 0.82393(10)
O9_19 O 0.55931(5) 0.76797(4) 0.70890(5)
O10_19 O 0.58044(5) 0.74880(5) 0.72984(6)
C19_19 C 0.54747(5) 0.73375(5) 0.71784(5)
C20_19 C 0.54750(5) 0.71828(5) 0.73338(5)
H9_19 H 0.5583 0.7185 0.7440
C21_19 C 0.56363(6) 0.75179(7) 0.71953(7)
O15_19 O 0.54110(5) 0.69069(5) 0.76797(4)
O16_19 O 0.52016(6) 0.66956(5) 0.74880(5)
C40_19 C 0.53216(5) 0.70253(5) 0.73375(5)
C41_19 C 0.51662(5) 0.70250(5) 0.71828(5)
H20_19 H 0.5060 0.6917 0.7185
C42_19 C 0.53047(7) 0.68637(6) 0.75179(7)
O17_19 O 0.48203(4) 0.70890(5) 0.69069(5)
O18_19 O 0.50120(5) 0.72984(6) 0.66956(5)
C43_19 C 0.51625(5) 0.71784(5) 0.70253(5)
C44_19 C 0.53172(5) 0.73338(5) 0.70250(5)
H21_19 H 0.5315 0.7440 0.6917
C45_19 C 0.49821(7) 0.71953(7) 0.68637(6)
O19_19 O 0.50645(6) 0.66141(5) 0.79754(4)
O20_19 O 0.51486(7) 0.63684(7) 0.82126(8)
O21_15 O 0.46053(8) 0.59891(6) 0.86104(7)
O22_19 O 0.42820(10) 0.60604(8) 0.85708(9)
O23_19 O 0.40686(7) 0.66353(5) 0.80736(6)
O24_19 O 0.43242(6) 0.68586(5) 0.79696(7)
C46_19 C 0.47842(9) 0.64557(7) 0.81840(7)
C47_19 C 0.47326(10) 0.62916(8) 0.83267(7)
H22_19 H 0.4840 0.6201 0.8384
C48_19 C 0.45250(11) 0.62666(8) 0.83794(9)
C49_19 C 0.43655(10) 0.63894(7) 0.82879(7)
H23_19 H 0.4220 0.6364 0.8320
C50_19 C 0.44246(9) 0.65558(6) 0.81435(7)
C51_19 C 0.46384(9) 0.65850(6) 0.81009(7)
H24_19 H 0.4682 0.6699 0.8011
C52_19 C 0.50162(12) 0.64787(8) 0.81183(9)
C53_19 C 0.44619(13) 0.60940(10) 0.85299(10)
C54_19 C 0.42607(10) 0.66969(7) 0.80557(8)
O25_19 O 0.45246(4) 0.74355(6) 0.66141(5)
O26_19 O 0.42874(8) 0.73514(7) 0.63684(7)
O28_19 O 0.39292(9) 0.82180(10) 0.60604(8)
O29_19 O 0.44264(6) 0.84314(7) 0.66353(5)
O30_19 O 0.45304(7) 0.81758(6) 0.68586(5)
C55_19 C 0.43160(7) 0.77158(9) 0.64557(7)
C56_19 C 0.41733(7) 0.77674(10) 0.62916(8)
H25_19 H 0.4116 0.7660 0.6201
C57_19 C 0.41206(9) 0.79750(11) 0.62666(8)
C58_19 C 0.42121(7) 0.81345(10) 0.63894(7)
H26_19 H 0.4180 0.8280 0.6364
C59_19 C 0.43565(7) 0.80754(9) 0.65558(6)
C60_19 C 0.43991(7) 0.78616(9) 0.65850(6)
H27_19 H 0.4489 0.7818 0.6699
C61_19 C 0.43817(9) 0.74838(12) 0.64787(8)
C62_19 C 0.39701(10) 0.80381(13) 0.60940(10)
C63_19 C 0.44443(8) 0.82393(10) 0.66969(7)
Zn9_19 Zn 0.418532(9) 0.711394(8) 0.784656(11)
Zn10_19 Zn 0.465344(11) 0.831468(9) 0.711394(8)
Zn11_19 Zn 0.538606(8) 0.784656(11) 0.831468(9)
Zn17_19 Zn 0.380794(11) 0.673615(10) 0.795467(13)
Zn18_19 Zn 0.454533(13) 0.869206(11) 0.673615(10)
Zn19_19 Zn 0.576385(10) 0.795467(13) 0.869206(11)
O31_15 O 0.53947(8) 0.61104(7) 0.84891(6)
O34_19 O 0.41353(5) 0.69264(6) 0.65686(7)
O35_19 O 0.59314(7) 0.83647(5) 0.69264(6)
O36_19 O 0.55736(6) 0.65686(7) 0.83647(5)
O37_19 O 0.43586(5) 0.70304(7) 0.68242(6)
O38_19 O 0.56758(6) 0.81414(5) 0.70304(7)
O39_19 O 0.54696(7) 0.68242(6) 0.81414(5)
O10_20 O 0.66956(5) 0.00120(5) 0.22984(6)
C19_20 C 0.70253(5) 0.01625(5) 0.21784(5)
C20_20 C 0.70250(5) 0.03172(5) 0.23338(5)
H9_20 H 0.6917 0.0315 0.2440
O15_20 O 0.70890(5) 0.05931(5) 0.26797(4)
O16_20 O 0.72984(6) 0.08044(5) 0.24880(5)
C40_20 C 0.71784(5) 0.04747(5) 0.23375(5)
C41_20 C 0.73338(5) 0.04750(5) 0.21828(5)
H20_20 H 0.7440 0.0583 0.2185
C42_20 C 0.71953(7) 0.06363(6) 0.25179(7)
O17_20 O 0.76797(4) 0.04110(5) 0.19069(5)
O18_20 O 0.74880(5) 0.02016(6) 0.16956(5)
C43_20 C 0.73375(5) 0.03216(5) 0.20253(5)
C44_20 C 0.71828(5) 0.01662(5) 0.20250(5)
H21_20 H 0.7185 0.0060 0.1917
C45_20 C 0.75179(7) 0.03047(7) 0.18637(6)
O19_20 O 0.74355(6) 0.08859(5) 0.29754(4)
O20_20 O 0.73514(7) 0.11316(7) 0.32126(8)
O21_16 O 0.78947(8) 0.15109(6) 0.36104(7)
O22_20 O 0.82180(10) 0.14396(8) 0.35708(9)
O23_20 O 0.84314(7) 0.08647(5) 0.30736(6)
O24_20 O 0.81758(6) 0.06414(5) 0.29696(7)
C46_20 C 0.77158(9) 0.10443(7) 0.31840(7)
C47_20 C 0.77674(10) 0.12084(8) 0.33267(7)
H22_20 H 0.7660 0.1299 0.3384
C48_20 C 0.79750(11) 0.12334(8) 0.33794(9)
C49_20 C 0.81345(10) 0.11106(7) 0.32879(7)
H23_20 H 0.8280 0.1136 0.3320
C50_20 C 0.80754(9) 0.09442(6) 0.31435(7)
C51_20 C 0.78616(9) 0.09150(6) 0.31009(7)
H24_20 H 0.7818 0.0801 0.3011
C52_20 C 0.74838(12) 0.10213(8) 0.31183(9)
C53_20 C 0.80381(13) 0.14060(10) 0.35299(10)
C54_20 C 0.82393(10) 0.08031(7) 0.30557(8)
O25_20 O 0.79754(4) 0.00645(6) 0.16141(5)
O26_20 O 0.82126(8) 0.01486(7) 0.13684(7)
C61_20 C 0.81183(9) 0.00162(12) 0.14787(8)
Zn9_20 Zn 0.831468(9) 0.038606(8) 0.284656(11)
Zn17_20 Zn 0.869206(11) 0.076385(10) 0.295467(13)
O31_16 O 0.71053(8) 0.13896(7) 0.34891(6)
O34_20 O 0.83647(5) 0.05736(6) 0.15686(7)
O36_20 O 0.69264(6) 0.09314(7) 0.33647(5)
O37_20 O 0.81414(5) 0.04696(7) 0.18242(6)
O39_20 O 0.70304(7) 0.06758(6) 0.31414(5)
O1_20 O 0.66141(5) 0.95246(4) 0.24355(6)
O2_20 O 0.63684(7) 0.92874(8) 0.23514(7)
O4_20 O 0.60604(8) 0.89292(9) 0.32180(10)
O5_20 O 0.66353(5) 0.94264(6) 0.34314(7)
O6_20 O 0.68586(5) 0.95304(7) 0.31758(6)
C1_20 C 0.64557(7) 0.93160(7) 0.27158(9)
C2_20 C 0.62916(8) 0.91733(7) 0.27674(10)
H1_20 H 0.6201 0.9116 0.2660
C3_20 C 0.62666(8) 0.91206(9) 0.29750(11)
C4_20 C 0.63894(7) 0.92121(7) 0.31345(10)
H2_20 H 0.6364 0.9180 0.3280
C5_20 C 0.65558(6) 0.93565(7) 0.30754(9)
C6_20 C 0.65850(6) 0.93991(7) 0.28616(9)
H3_20 H 0.6699 0.9489 0.2818
C7_20 C 0.64787(8) 0.93817(9) 0.24838(12)
C8_20 C 0.60940(10) 0.89701(10) 0.30381(13)
C9_20 C 0.66969(7) 0.94443(8) 0.32393(10)
O9_20 O 0.69069(5) 0.98203(4) 0.20890(5)
C21_20 C 0.68637(6) 0.99821(7) 0.21953(7)
O28_20 O 0.85708(9) 0.92820(10) 0.10604(8)
O29_20 O 0.80736(6) 0.90686(7) 0.16353(5)
O30_20 O 0.79696(7) 0.93242(6) 0.18586(5)
C55_20 C 0.81840(7) 0.97842(9) 0.14557(7)
C56_20 C 0.83267(7) 0.97326(10) 0.12916(8)
H25_20 H 0.8384 0.9840 0.1201
C57_20 C 0.83794(9) 0.95250(11) 0.12666(8)
C58_20 C 0.82879(7) 0.93655(10) 0.13894(7)
H26_20 H 0.8320 0.9220 0.1364
C59_20 C 0.81435(7) 0.94246(9) 0.15558(6)
C60_20 C 0.81009(7) 0.96384(9) 0.15850(6)
H27_20 H 0.8011 0.9682 0.1699
C62_20 C 0.85299(10) 0.94619(13) 0.10940(10)
C63_20 C 0.80557(8) 0.92607(10) 0.16969(7)
Zn10_20 Zn 0.784656(11) 0.918532(9) 0.211394(8)
Zn11_20 Zn 0.711394(8) 0.965344(11) 0.331468(9)
Zn18_20 Zn 0.795467(13) 0.880794(11) 0.173615(10)
Zn19_20 Zn 0.673615(10) 0.954533(13) 0.369206(11)
O35_20 O 0.65686(7) 0.91353(5) 0.19264(6)
O38_20 O 0.68242(6) 0.93586(5) 0.20304(7)
O17_21 O 0.45890(5) 0.01797(4) 0.44069(5)
C45_21 C 0.46953(7) 0.00179(7) 0.43637(6)
O22_21 O 0.35604(8) 0.07180(10) 0.60708(9)
O23_21 O 0.41353(5) 0.09314(7) 0.55736(6)
O24_21 O 0.43586(5) 0.06758(6) 0.54696(7)
C46_21 C 0.39557(7) 0.02158(9) 0.56840(7)
C47_21 C 0.37916(8) 0.02674(10) 0.58267(7)
H22_21 H 0.3701 0.0160 0.5884
C48_21 C 0.37666(8) 0.04750(11) 0.58794(9)
C49_21 C 0.38894(7) 0.06345(10) 0.57879(7)
H23_21 H 0.3864 0.0780 0.5820
C50_21 C 0.40558(6) 0.05754(9) 0.56435(7)
C51_21 C 0.40850(6) 0.03616(9) 0.56009(7)
H24_21 H 0.4199 0.0318 0.5511
C53_21 C 0.35940(10) 0.05381(13) 0.60299(10)
C54_21 C 0.41969(7) 0.07393(10) 0.55557(8)
O25_21 O 0.49355(6) 0.04754(4) 0.41141(5)
O26_21 O 0.48514(7) 0.07126(8) 0.38684(7)
O27_13 O 0.53947(8) 0.11104(7) 0.34891(6)
O28_21 O 0.57180(10) 0.10708(9) 0.35604(8)
O29_21 O 0.59314(7) 0.05736(6) 0.41353(5)
O30_21 O 0.56758(6) 0.04696(7) 0.43586(5)
C55_21 C 0.52158(9) 0.06840(7) 0.39557(7)
C56_21 C 0.52674(10) 0.08267(7) 0.37916(8)
H25_21 H 0.5160 0.0884 0.3701
C57_21 C 0.54750(11) 0.08794(9) 0.37666(8)
C58_21 C 0.56345(10) 0.07879(7) 0.38894(7)
H26_21 H 0.5780 0.0820 0.3864
C59_21 C 0.55754(9) 0.06435(7) 0.40558(6)
C60_21 C 0.53616(9) 0.06009(7) 0.40850(6)
H27_21 H 0.5318 0.0511 0.4199
C61_21 C 0.49838(12) 0.06183(9) 0.39787(8)
C62_21 C 0.55381(13) 0.10299(10) 0.35940(10)
C63_21 C 0.57393(10) 0.05557(8) 0.41969(7)
Zn9_21 Zn 0.461394(8) 0.081468(9) 0.534656(11)
Zn10_21 Zn 0.581468(9) 0.034656(11) 0.461394(8)
Zn17_21 Zn 0.423615(10) 0.119206(11) 0.545467(13)
Zn18_21 Zn 0.619206(11) 0.045467(13) 0.423615(10)
O32_13 O 0.46053(8) 0.09891(6) 0.36104(7)
O34_21 O 0.44264(6) 0.08647(5) 0.40686(7)
O37_21 O 0.45304(7) 0.06414(5) 0.43242(6)
O1_21 O 0.54754(4) 0.91141(5) 0.49355(6)
O2_21 O 0.57126(8) 0.88684(7) 0.48514(7)
O4_21 O 0.60708(9) 0.85604(8) 0.57180(10)
O5_21 O 0.55736(6) 0.91353(5) 0.59314(7)
O6_21 O 0.54696(7) 0.93586(5) 0.56758(6)
C1_21 C 0.56840(7) 0.89557(7) 0.52158(9)
C2_21 C 0.58267(7) 0.87916(8) 0.52674(10)
H1_21 H 0.5884 0.8701 0.5160
C3_21 C 0.58794(9) 0.87666(8) 0.54750(11)
C4_21 C 0.57879(7) 0.88894(7) 0.56345(10)
H2_21 H 0.5820 0.8864 0.5780
C5_21 C 0.56435(7) 0.90558(6) 0.55754(9)
C6_21 C 0.56009(7) 0.90850(6) 0.53616(9)
H3_21 H 0.5511 0.9199 0.5318
C7_21 C 0.56183(9) 0.89787(8) 0.49838(12)
C8_21 C 0.60299(10) 0.85940(10) 0.55381(13)
C9_21 C 0.55557(8) 0.91969(7) 0.57393(10)
O9_21 O 0.51797(4) 0.94069(5) 0.45890(5)
O10_21 O 0.49880(5) 0.91956(5) 0.47984(6)
C19_21 C 0.48375(5) 0.95253(5) 0.46784(5)
C20_21 C 0.46828(5) 0.95250(5) 0.48338(5)
H9_21 H 0.4685 0.9417 0.4940
C21_21 C 0.50179(7) 0.93637(6) 0.46953(7)
O15_21 O 0.44069(5) 0.95890(5) 0.51797(4)
O16_21 O 0.41956(5) 0.97984(6) 0.49880(5)
C40_21 C 0.45253(5) 0.96784(5) 0.48375(5)
C41_21 C 0.45250(5) 0.98338(5) 0.46828(5)
H20_21 H 0.4417 0.9940 0.4685
C42_21 C 0.43637(6) 0.96953(7) 0.50179(7)
O18_21 O 0.47984(6) 0.99880(5) 0.41956(5)
C43_21 C 0.46784(5) 0.98375(5) 0.45253(5)
C44_21 C 0.48338(5) 0.96828(5) 0.45250(5)
H21_21 H 0.4940 0.9685 0.4417
O19_21 O 0.41141(5) 0.99355(6) 0.54754(4)
O20_21 O 0.38684(7) 0.98514(7) 0.57126(8)
C52_21 C 0.39787(8) 0.99838(12) 0.56183(9)
Zn11_21 Zn 0.534656(11) 0.961394(8) 0.581468(9)
Zn19_21 Zn 0.545467(13) 0.923615(10) 0.619206(11)
O35_21 O 0.58647(5) 0.90686(7) 0.44264(6)
O36_21 O 0.40686(7) 0.94264(6) 0.58647(5)
O38_21 O 0.56414(5) 0.93242(6) 0.45304(7)
O39_21 O 0.43242(6) 0.95304(7) 0.56414(5)
O4_22 O 0.64292(9) 0.89396(8) 0.07180(10)
O5_22 O 0.69264(6) 0.83647(5) 0.09314(7)
O6_22 O 0.70304(7) 0.81414(5) 0.06758(6)
C1_22 C 0.68160(7) 0.85443(7) 0.02158(9)
C2_22 C 0.66733(7) 0.87084(8) 0.02674(10)
H1_22 H 0.6616 0.8799 0.0160
C3_22 C 0.66206(9) 0.87334(8) 0.04750(11)
C4_22 C 0.67121(7) 0.86106(7) 0.06345(10)
H2_22 H 0.6680 0.8636 0.0780
C5_22 C 0.68565(7) 0.84442(6) 0.05754(9)
C6_22 C 0.68991(7) 0.84150(6) 0.03616(9)
H3_22 H 0.6989 0.8301 0.0318
C8_22 C 0.64701(10) 0.89060(10) 0.05381(13)
C9_22 C 0.69443(8) 0.83031(7) 0.07393(10)
O15_22 O 0.80931(5) 0.79110(5) 0.01797(4)
C42_22 C 0.81363(6) 0.78047(7) 0.00179(7)
O19_22 O 0.83859(5) 0.75645(6) 0.04754(4)
O20_22 O 0.86316(7) 0.76486(7) 0.07126(8)
O22_22 O 0.89396(8) 0.67820(10) 0.10708(9)
O23_22 O 0.83647(5) 0.65686(7) 0.05736(6)
O24_22 O 0.81414(5) 0.68242(6) 0.04696(7)
C46_22 C 0.85443(7) 0.72842(9) 0.06840(7)
C47_22 C 0.87084(8) 0.72326(10) 0.08267(7)
H22_22 H 0.8799 0.7340 0.0884
C48_22 C 0.87334(8) 0.70250(11) 0.08794(9)
C49_22 C 0.86106(7) 0.68655(10) 0.07879(7)
H23_22 H 0.8636 0.6720 0.0820
C50_22 C 0.84442(6) 0.69246(9) 0.06435(7)
C51_22 C 0.84150(6) 0.71384(9) 0.06009(7)
H24_22 H 0.8301 0.7182 0.0511
C52_22 C 0.85213(8) 0.75162(12) 0.06183(9)
C53_22 C 0.89060(10) 0.69619(13) 0.10299(10)
C54_22 C 0.83031(7) 0.67607(10) 0.05557(8)
Zn9_22 Zn 0.788606(8) 0.668532(9) 0.034656(11)
Zn11_22 Zn 0.715344(11) 0.788606(8) 0.081468(9)
Zn17_22 Zn 0.826385(10) 0.630794(11) 0.045467(13)
Zn19_22 Zn 0.704533(13) 0.826385(10) 0.119206(11)
O36_22 O 0.84314(7) 0.80736(6) 0.08647(5)
O39_22 O 0.81758(6) 0.79696(7) 0.06414(5)
O1_22 O 0.70246(4) 0.83859(5) 0.99355(6)
O2_22 O 0.67874(8) 0.86316(7) 0.98514(7)
C7_22 C 0.68817(9) 0.85213(8) 0.99838(12)
O9_22 O 0.73203(4) 0.80931(5) 0.95890(5)
O10_22 O 0.75120(5) 0.83044(5) 0.97984(6)
C19_22 C 0.76625(5) 0.79747(5) 0.96784(5)
C20_22 C 0.78172(5) 0.79750(5) 0.98338(5)
H9_22 H 0.7815 0.8083 0.9940
C21_22 C 0.74821(7) 0.81363(6) 0.96953(7)
O16_22 O 0.83044(5) 0.77016(6) 0.99880(5)
C40_22 C 0.79747(5) 0.78216(5) 0.98375(5)
C41_22 C 0.79750(5) 0.76662(5) 0.96828(5)
H20_22 H 0.8083 0.7560 0.9685
O17_22 O 0.79110(5) 0.73203(4) 0.94069(5)
O18_22 O 0.77016(6) 0.75120(5) 0.91956(5)
C43_22 C 0.78216(5) 0.76625(5) 0.95253(5)
C44_22 C 0.76662(5) 0.78172(5) 0.95250(5)
H21_22 H 0.7560 0.7815 0.9417
C45_22 C 0.78047(7) 0.74821(7) 0.93637(6)
O25_22 O 0.75645(6) 0.70246(4) 0.91141(5)
O26_22 O 0.76486(7) 0.67874(8) 0.88684(7)
O27_14 O 0.71053(8) 0.63896(7) 0.84891(6)
O28_22 O 0.67820(10) 0.64292(9) 0.85604(8)
O29_22 O 0.65686(7) 0.69264(6) 0.91353(5)
O30_22 O 0.68242(6) 0.70304(7) 0.93586(5)
C55_22 C 0.72842(9) 0.68160(7) 0.89557(7)
C56_22 C 0.72326(10) 0.66733(7) 0.87916(8)
H25_22 H 0.7340 0.6616 0.8701
C57_22 C 0.70250(11) 0.66206(9) 0.87666(8)
C58_22 C 0.68655(10) 0.67121(7) 0.88894(7)
H26_22 H 0.6720 0.6680 0.8864
C59_22 C 0.69246(9) 0.68565(7) 0.90558(6)
C60_22 C 0.71384(9) 0.68991(7) 0.90850(6)
H27_22 H 0.7182 0.6989 0.9199
C61_22 C 0.75162(12) 0.68817(9) 0.89787(8)
C62_22 C 0.69619(13) 0.64701(10) 0.85940(10)
C63_22 C 0.67607(10) 0.69443(8) 0.91969(7)
Zn10_22 Zn 0.668532(9) 0.715344(11) 0.961394(8)
Zn18_22 Zn 0.630794(11) 0.704533(13) 0.923615(10)
O32_14 O 0.78947(8) 0.65109(6) 0.86104(7)
O34_22 O 0.80736(6) 0.66353(5) 0.90686(7)
O35_22 O 0.66353(5) 0.84314(7) 0.94264(6)
O37_22 O 0.79696(7) 0.68586(5) 0.93242(6)
O38_22 O 0.68586(5) 0.81758(6) 0.95304(7)
O1_23 O 0.04754(4) 0.33859(5) 0.25645(6)
O2_23 O 0.07126(8) 0.36316(7) 0.26486(7)
O4_23 O 0.10708(9) 0.39396(8) 0.17820(10)
O5_23 O 0.05736(6) 0.33647(5) 0.15686(7)
O6_23 O 0.04696(7) 0.31414(5) 0.18242(6)
C1_23 C 0.06840(7) 0.35443(7) 0.22842(9)
C2_23 C 0.08267(7) 0.37084(8) 0.22326(10)
H1_23 H 0.0884 0.3799 0.2340
C3_23 C 0.08794(9) 0.37334(8) 0.20250(11)
C4_23 C 0.07879(7) 0.36106(7) 0.18655(10)
H2_23 H 0.0820 0.3636 0.1720
C5_23 C 0.06435(7) 0.34442(6) 0.19246(9)
C6_23 C 0.06009(7) 0.34150(6) 0.21384(9)
H3_23 H 0.0511 0.3301 0.2182
C7_23 C 0.06183(9) 0.35213(8) 0.25162(12)
C8_23 C 0.10299(10) 0.39060(10) 0.19619(13)
C9_23 C 0.05557(8) 0.33031(7) 0.17607(10)
O9_23 O 0.01797(4) 0.30931(5) 0.29110(5)
C21_23 C 0.00179(7) 0.31363(6) 0.28047(7)
O27_15 O 0.03947(8) 0.13896(7) 0.40109(6)
O28_23 O 0.07180(10) 0.14292(9) 0.39396(8)
O29_23 O 0.09314(7) 0.19264(6) 0.33647(5)
O30_23 O 0.06758(6) 0.20304(7) 0.31414(5)
C55_23 C 0.02158(9) 0.18160(7) 0.35443(7)
C56_23 C 0.02674(10) 0.16733(7) 0.37084(8)
H25_23 H 0.0160 0.1616 0.3799
C57_23 C 0.04750(11) 0.16206(9) 0.37334(8)
C58_23 C 0.06345(10) 0.17121(7) 0.36106(7)
H26_23 H 0.0780 0.1680 0.3636
C59_23 C 0.05754(9) 0.18565(7) 0.34442(6)
C60_23 C 0.03616(9) 0.18991(7) 0.34150(6)
H27_23 H 0.0318 0.1989 0.3301
C62_23 C 0.05381(13) 0.14701(10) 0.39060(10)
C63_23 C 0.07393(10) 0.19443(8) 0.33031(7)
Zn10_23 Zn 0.081468(9) 0.215344(11) 0.288606(8)
Zn11_23 Zn 0.034656(11) 0.288606(8) 0.168532(9)
Zn18_23 Zn 0.119206(11) 0.204533(13) 0.326385(10)
Zn19_23 Zn 0.045467(13) 0.326385(10) 0.130794(11)
O35_23 O 0.08647(5) 0.34314(7) 0.30736(6)
O38_23 O 0.06414(5) 0.31758(6) 0.29696(7)
O10_23 O 0.99880(5) 0.33044(5) 0.27016(6)
C19_23 C 0.98375(5) 0.29747(5) 0.28216(5)
C20_23 C 0.96828(5) 0.29750(5) 0.26662(5)
H9_23 H 0.9685 0.3083 0.2560
O15_23 O 0.94069(5) 0.29110(5) 0.23203(4)
O16_23 O 0.91956(5) 0.27016(6) 0.25120(5)
C40_23 C 0.95253(5) 0.28216(5) 0.26625(5)
C41_23 C 0.95250(5) 0.26662(5) 0.28172(5)
H20_23 H 0.9417 0.2560 0.2815
C42_23 C 0.93637(6) 0.28047(7) 0.24821(7)
O17_23 O 0.95890(5) 0.23203(4) 0.30931(5)
O18_23 O 0.97984(6) 0.25120(5) 0.33044(5)
C43_23 C 0.96784(5) 0.26625(5) 0.29747(5)
C44_23 C 0.98338(5) 0.28172(5) 0.29750(5)
H21_23 H 0.9940 0.2815 0.3083
C45_23 C 0.96953(7) 0.24821(7) 0.31363(6)
O19_23 O 0.91141(5) 0.25645(6) 0.20246(4)
O20_23 O 0.88684(7) 0.26486(7) 0.17874(8)
O22_23 O 0.85604(8) 0.17820(10) 0.14292(9)
O23_23 O 0.91353(5) 0.15686(7) 0.19264(6)
O24_23 O 0.93586(5) 0.18242(6) 0.20304(7)
C46_23 C 0.89557(7) 0.22842(9) 0.18160(7)
C47_23 C 0.87916(8) 0.22326(10) 0.16733(7)
H22_23 H 0.8701 0.2340 0.1616
C48_23 C 0.87666(8) 0.20250(11) 0.16206(9)
C49_23 C 0.88894(7) 0.18655(10) 0.17121(7)
H23_23 H 0.8864 0.1720 0.1680
C50_23 C 0.90558(6) 0.19246(9) 0.18565(7)
C51_23 C 0.90850(6) 0.21384(9) 0.18991(7)
H24_23 H 0.9199 0.2182 0.1989
C52_23 C 0.89787(8) 0.25162(12) 0.18817(9)
C53_23 C 0.85940(10) 0.19619(13) 0.14701(10)
C54_23 C 0.91969(7) 0.17607(10) 0.19443(8)
O25_23 O 0.99355(6) 0.20246(4) 0.33859(5)
O26_23 O 0.98514(7) 0.17874(8) 0.36316(7)
C61_23 C 0.99838(12) 0.18817(9) 0.35213(8)
Zn9_23 Zn 0.961394(8) 0.168532(9) 0.215344(11)
Zn17_23 Zn 0.923615(10) 0.130794(11) 0.204533(13)
O32_15 O 0.96053(8) 0.15109(6) 0.38896(7)
O34_23 O 0.94264(6) 0.16353(5) 0.34314(7)
O36_23 O 0.90686(7) 0.30736(6) 0.16353(5)
O37_23 O 0.95304(7) 0.18586(5) 0.31758(6)
O39_23 O 0.93242(6) 0.29696(7) 0.18586(5)
O1_24 O 0.20246(4) 0.41141(5) 0.75645(6)
O2_24 O 0.17874(8) 0.38684(7) 0.76486(7)
O4_24 O 0.14292(9) 0.35604(8) 0.67820(10)
O5_24 O 0.19264(6) 0.41353(5) 0.65686(7)
O6_24 O 0.20304(7) 0.43586(5) 0.68242(6)
C1_24 C 0.18160(7) 0.39557(7) 0.72842(9)
C2_24 C 0.16733(7) 0.37916(8) 0.72326(10)
H1_24 H 0.1616 0.3701 0.7340
C3_24 C 0.16206(9) 0.37666(8) 0.70250(11)
C4_24 C 0.17121(7) 0.38894(7) 0.68655(10)
H2_24 H 0.1680 0.3864 0.6720
C5_24 C 0.18565(7) 0.40558(6) 0.69246(9)
C6_24 C 0.18991(7) 0.40850(6) 0.71384(9)
H3_24 H 0.1989 0.4199 0.7182
C7_24 C 0.18817(9) 0.39787(8) 0.75162(12)
C8_24 C 0.14701(10) 0.35940(10) 0.69619(13)
C9_24 C 0.19443(8) 0.41969(7) 0.67607(10)
O9_24 O 0.23203(4) 0.44069(5) 0.79110(5)
O10_24 O 0.25120(5) 0.41956(5) 0.77016(6)
C19_24 C 0.26625(5) 0.45253(5) 0.78216(5)
C20_24 C 0.28172(5) 0.45250(5) 0.76662(5)
H9_24 H 0.2815 0.4417 0.7560
C21_24 C 0.24821(7) 0.43637(6) 0.78047(7)
O15_24 O 0.30931(5) 0.45890(5) 0.73203(4)
O16_24 O 0.33044(5) 0.47984(6) 0.75120(5)
C40_24 C 0.29747(5) 0.46784(5) 0.76625(5)
C41_24 C 0.29750(5) 0.48338(5) 0.78172(5)
H20_24 H 0.3083 0.4940 0.7815
C42_24 C 0.31363(6) 0.46953(7) 0.74821(7)
O17_24 O 0.29110(5) 0.51797(4) 0.80931(5)
O18_24 O 0.27016(6) 0.49880(5) 0.83044(5)
C43_24 C 0.28216(5) 0.48375(5) 0.79747(5)
C44_24 C 0.26662(5) 0.46828(5) 0.79750(5)
H21_24 H 0.2560 0.4685 0.8083
C45_24 C 0.28047(7) 0.50179(7) 0.81363(6)
O19_24 O 0.33859(5) 0.49355(6) 0.70246(4)
O20_24 O 0.36316(7) 0.48514(7) 0.67874(8)
O22_24 O 0.39396(8) 0.57180(10) 0.64292(9)
O23_24 O 0.33647(5) 0.59314(7) 0.69264(6)
O24_24 O 0.31414(5) 0.56758(6) 0.70304(7)
C46_24 C 0.35443(7) 0.52158(9) 0.68160(7)
C47_24 C 0.37084(8) 0.52674(10) 0.66733(7)
H22_24 H 0.3799 0.5160 0.6616
C48_24 C 0.37334(8) 0.54750(11) 0.66206(9)
C49_24 C 0.36106(7) 0.56345(10) 0.67121(7)
H23_24 H 0.3636 0.5780 0.6680
C50_24 C 0.34442(6) 0.55754(9) 0.68565(7)
C51_24 C 0.34150(6) 0.53616(9) 0.68991(7)
H24_24 H 0.3301 0.5318 0.6989
C52_24 C 0.35213(8) 0.49838(12) 0.68817(9)
C53_24 C 0.39060(10) 0.55381(13) 0.64701(10)
C54_24 C 0.33031(7) 0.57393(10) 0.69443(8)
O25_24 O 0.25645(6) 0.54754(4) 0.83859(5)
O26_24 O 0.26486(7) 0.57126(8) 0.86316(7)
O27_16 O 0.21053(8) 0.61104(7) 0.90109(6)
O28_24 O 0.17820(10) 0.60708(9) 0.89396(8)
O29_24 O 0.15686(7) 0.55736(6) 0.83647(5)
O30_24 O 0.18242(6) 0.54696(7) 0.81414(5)
C55_24 C 0.22842(9) 0.56840(7) 0.85443(7)
C56_24 C 0.22326(10) 0.58267(7) 0.87084(8)
H25_24 H 0.2340 0.5884 0.8799
C57_24 C 0.20250(11) 0.58794(9) 0.87334(8)
C58_24 C 0.18655(10) 0.57879(7) 0.86106(7)
H26_24 H 0.1720 0.5820 0.8636
C59_24 C 0.19246(9) 0.56435(7) 0.84442(6)
C60_24 C 0.21384(9) 0.56009(7) 0.84150(6)
H27_24 H 0.2182 0.5511 0.8301
C61_24 C 0.25162(12) 0.56183(9) 0.85213(8)
C62_24 C 0.19619(13) 0.60299(10) 0.89060(10)
C63_24 C 0.17607(10) 0.55557(8) 0.83031(7)
Zn9_24 Zn 0.288606(8) 0.581468(9) 0.715344(11)
Zn10_24 Zn 0.168532(9) 0.534656(11) 0.788606(8)
Zn11_24 Zn 0.215344(11) 0.461394(8) 0.668532(9)
Zn17_24 Zn 0.326385(10) 0.619206(11) 0.704533(13)
Zn18_24 Zn 0.130794(11) 0.545467(13) 0.826385(10)
Zn19_24 Zn 0.204533(13) 0.423615(10) 0.630794(11)
O32_16 O 0.28947(8) 0.59891(6) 0.88896(7)
O34_24 O 0.30736(6) 0.58647(5) 0.84314(7)
O35_24 O 0.16353(5) 0.40686(7) 0.80736(6)
O36_24 O 0.34314(7) 0.44264(6) 0.66353(5)
O37_24 O 0.29696(7) 0.56414(5) 0.81758(6)
O38_24 O 0.18586(5) 0.43242(6) 0.79696(7)
O39_24 O 0.31758(6) 0.45304(7) 0.68586(5)
O1_25 O 0.16141(5) 0.79754(4) 0.00645(6)
O2_25 O 0.13684(7) 0.82126(8) 0.01486(7)
C7_25 C 0.14787(8) 0.81183(9) 0.00162(12)
O9_25 O 0.19069(5) 0.76797(4) 0.04110(5)
O10_25 O 0.16956(5) 0.74880(5) 0.02016(6)
C19_25 C 0.20253(5) 0.73375(5) 0.03216(5)
C20_25 C 0.20250(5) 0.71828(5) 0.01662(5)
H9_25 H 0.1917 0.7185 0.0060
C21_25 C 0.18637(6) 0.75179(7) 0.03047(7)
O16_25 O 0.22984(6) 0.66956(5) 0.00120(5)
C40_25 C 0.21784(5) 0.70253(5) 0.01625(5)
C41_25 C 0.23338(5) 0.70250(5) 0.03172(5)
H20_25 H 0.2440 0.6917 0.0315
O17_25 O 0.26797(4) 0.70890(5) 0.05931(5)
O18_25 O 0.24880(5) 0.72984(6) 0.08044(5)
C43_25 C 0.23375(5) 0.71784(5) 0.04747(5)
C44_25 C 0.21828(5) 0.73338(5) 0.04750(5)
H21_25 H 0.2185 0.7440 0.0583
C45_25 C 0.25179(7) 0.71953(7) 0.06363(6)
O25_25 O 0.29754(4) 0.74355(6) 0.08859(5)
O26_25 O 0.32126(8) 0.73514(7) 0.11316(7)
O28_25 O 0.35708(9) 0.82180(10) 0.14396(8)
O29_25 O 0.30736(6) 0.84314(7) 0.08647(5)
O30_25 O 0.29696(7) 0.81758(6) 0.06414(5)
C55_25 C 0.31840(7) 0.77158(9) 0.10443(7)
C56_25 C 0.33267(7) 0.77674(10) 0.12084(8)
H25_25 H 0.3384 0.7660 0.1299
C57_25 C 0.33794(9) 0.79750(11) 0.12334(8)
C58_25 C 0.32879(7) 0.81345(10) 0.11106(7)
H26_25 H 0.3320 0.8280 0.1136
C59_25 C 0.31435(7) 0.80754(9) 0.09442(6)
C60_25 C 0.31009(7) 0.78616(9) 0.09150(6)
H27_25 H 0.3011 0.7818 0.0801
C61_25 C 0.31183(9) 0.74838(12) 0.10213(8)
C62_25 C 0.35299(10) 0.80381(13) 0.14060(10)
C63_25 C 0.30557(8) 0.82393(10) 0.08031(7)
Zn10_25 Zn 0.284656(11) 0.831468(9) 0.038606(8)
Zn18_25 Zn 0.295467(13) 0.869206(11) 0.076385(10)
O34_25 O 0.33647(5) 0.69264(6) 0.09314(7)
O35_25 O 0.15686(7) 0.83647(5) 0.05736(6)
O37_25 O 0.31414(5) 0.70304(7) 0.06758(6)
O38_25 O 0.18242(6) 0.81414(5) 0.04696(7)
O4_25 O 0.10604(8) 0.85708(9) 0.92820(10)
O5_25 O 0.16353(5) 0.80736(6) 0.90686(7)
O6_25 O 0.18586(5) 0.79696(7) 0.93242(6)
C1_25 C 0.14557(7) 0.81840(7) 0.97842(9)
C2_25 C 0.12916(8) 0.83267(7) 0.97326(10)
H1_25 H 0.1201 0.8384 0.9840
C3_25 C 0.12666(8) 0.83794(9) 0.95250(11)
C4_25 C 0.13894(7) 0.82879(7) 0.93655(10)
H2_25 H 0.1364 0.8320 0.9220
C5_25 C 0.15558(6) 0.81435(7) 0.94246(9)
C6_25 C 0.15850(6) 0.81009(7) 0.96384(9)
H3_25 H 0.1699 0.8011 0.9682
C8_25 C 0.10940(10) 0.85299(10) 0.94619(13)
C9_25 C 0.16969(7) 0.80557(8) 0.92607(10)
O15_25 O 0.20890(5) 0.69069(5) 0.98203(4)
C42_25 C 0.21953(7) 0.68637(6) 0.99821(7)
O19_25 O 0.24355(6) 0.66141(5) 0.95246(4)
O20_25 O 0.23514(7) 0.63684(7) 0.92874(8)
O22_25 O 0.32180(10) 0.60604(8) 0.89292(9)
O23_25 O 0.34314(7) 0.66353(5) 0.94264(6)
O24_25 O 0.31758(6) 0.68586(5) 0.95304(7)
C46_25 C 0.27158(9) 0.64557(7) 0.93160(7)
C47_25 C 0.27674(10) 0.62916(8) 0.91733(7)
H22_25 H 0.2660 0.6201 0.9116
C48_25 C 0.29750(11) 0.62666(8) 0.91206(9)
C49_25 C 0.31345(10) 0.63894(7) 0.92121(7)
H23_25 H 0.3280 0.6364 0.9180
C50_25 C 0.30754(9) 0.65558(6) 0.93565(7)
C51_25 C 0.28616(9) 0.65850(6) 0.93991(7)
H24_25 H 0.2818 0.6699 0.9489
C52_25 C 0.24838(12) 0.64787(8) 0.93817(9)
C53_25 C 0.30381(13) 0.60940(10) 0.89701(10)
C54_25 C 0.32393(10) 0.66969(7) 0.94443(8)
Zn9_25 Zn 0.331468(9) 0.711394(8) 0.965344(11)
Zn11_25 Zn 0.211394(8) 0.784656(11) 0.918532(9)
Zn17_25 Zn 0.369206(11) 0.673615(10) 0.954533(13)
Zn19_25 Zn 0.173615(10) 0.795467(13) 0.880794(11)
O36_25 O 0.19264(6) 0.65686(7) 0.91353(5)
O39_25 O 0.20304(7) 0.68242(6) 0.93586(5)
O10_26 O 0.08044(5) 0.00120(5) 0.52016(6)
C19_26 C 0.04747(5) 0.01625(5) 0.53216(5)
C20_26 C 0.04750(5) 0.03172(5) 0.51662(5)
H9_26 H 0.0583 0.0315 0.5060
O15_26 O 0.04110(5) 0.05931(5) 0.48203(4)
O16_26 O 0.02016(6) 0.08044(5) 0.50120(5)
C40_26 C 0.03216(5) 0.04747(5) 0.51625(5)
C41_26 C 0.01662(5) 0.04750(5) 0.53172(5)
H20_26 H 0.0060 0.0583 0.5315
C42_26 C 0.03047(7) 0.06363(6) 0.49821(7)
O18_26 O 0.00120(5) 0.02016(6) 0.58044(5)
C43_26 C 0.01625(5) 0.03216(5) 0.54747(5)
C44_26 C 0.03172(5) 0.01662(5) 0.54750(5)
H21_26 H 0.0315 0.0060 0.5583
O19_26 O 0.00645(6) 0.08859(5) 0.45246(4)
O20_26 O 0.01486(7) 0.11316(7) 0.42874(8)
C52_26 C 0.00162(12) 0.10213(8) 0.43817(9)
O36_26 O 0.05736(6) 0.09314(7) 0.41353(5)
O39_26 O 0.04696(7) 0.06758(6) 0.43586(5)
O1_26 O 0.08859(5) 0.95246(4) 0.50645(6)
O2_26 O 0.11316(7) 0.92874(8) 0.51486(7)
O4_26 O 0.14396(8) 0.89292(9) 0.42820(10)
O5_26 O 0.08647(5) 0.94264(6) 0.40686(7)
O6_26 O 0.06414(5) 0.95304(7) 0.43242(6)
C1_26 C 0.10443(7) 0.93160(7) 0.47842(9)
C2_26 C 0.12084(8) 0.91733(7) 0.47326(10)
H1_26 H 0.1299 0.9116 0.4840
C3_26 C 0.12334(8) 0.91206(9) 0.45250(11)
C4_26 C 0.11106(7) 0.92121(7) 0.43655(10)
H2_26 H 0.1136 0.9180 0.4220
C5_26 C 0.09442(6) 0.93565(7) 0.44246(9)
C6_26 C 0.09150(6) 0.93991(7) 0.46384(9)
H3_26 H 0.0801 0.9489 0.4682
C7_26 C 0.10213(8) 0.93817(9) 0.50162(12)
C8_26 C 0.14060(10) 0.89701(10) 0.44619(13)
C9_26 C 0.08031(7) 0.94443(8) 0.42607(10)
O9_26 O 0.05931(5) 0.98203(4) 0.54110(5)
C21_26 C 0.06363(6) 0.99821(7) 0.53047(7)
Zn11_26 Zn 0.038606(8) 0.965344(11) 0.418532(9)
Zn19_26 Zn 0.076385(10) 0.954533(13) 0.380794(11)
O35_26 O 0.09314(7) 0.91353(5) 0.55736(6)
O38_26 O 0.06758(6) 0.93586(5) 0.54696(7)
O17_26 O 0.98203(4) 0.04110(5) 0.55931(5)
C45_26 C 0.99821(7) 0.03047(7) 0.56363(6)
O22_26 O 0.92820(10) 0.14396(8) 0.39292(9)
O23_26 O 0.90686(7) 0.08647(5) 0.44264(6)
O24_26 O 0.93242(6) 0.06414(5) 0.45304(7)
C46_26 C 0.97842(9) 0.10443(7) 0.43160(7)
C47_26 C 0.97326(10) 0.12084(8) 0.41733(7)
H22_26 H 0.9840 0.1299 0.4116
C48_26 C 0.95250(11) 0.12334(8) 0.41206(9)
C49_26 C 0.93655(10) 0.11106(7) 0.42121(7)
H23_26 H 0.9220 0.1136 0.4180
C50_26 C 0.94246(9) 0.09442(6) 0.43565(7)
C51_26 C 0.96384(9) 0.09150(6) 0.43991(7)
H24_26 H 0.9682 0.0801 0.4489
C53_26 C 0.94619(13) 0.14060(10) 0.39701(10)
C54_26 C 0.92607(10) 0.08031(7) 0.44443(8)
O25_26 O 0.95246(4) 0.00645(6) 0.58859(5)
O26_26 O 0.92874(8) 0.01486(7) 0.61316(7)
C61_26 C 0.93817(9) 0.00162(12) 0.60213(8)
Zn9_26 Zn 0.918532(9) 0.038606(8) 0.465344(11)
Zn17_26 Zn 0.880794(11) 0.076385(10) 0.454533(13)
O34_26 O 0.91353(5) 0.05736(6) 0.59314(7)
O37_26 O 0.93586(5) 0.04696(7) 0.56758(6)
O28_26 O 0.89292(9) 0.92820(10) 0.64396(8)
O29_26 O 0.94264(6) 0.90686(7) 0.58647(5)
O30_26 O 0.95304(7) 0.93242(6) 0.56414(5)
C55_26 C 0.93160(7) 0.97842(9) 0.60443(7)
C56_26 C 0.91733(7) 0.97326(10) 0.62084(8)
H25_26 H 0.9116 0.9840 0.6299
C57_26 C 0.91206(9) 0.95250(11) 0.62334(8)
C58_26 C 0.92121(7) 0.93655(10) 0.61106(7)
H26_26 H 0.9180 0.9220 0.6136
C59_26 C 0.93565(7) 0.94246(9) 0.59442(6)
C60_26 C 0.93991(7) 0.96384(9) 0.59150(6)
H27_26 H 0.9489 0.9682 0.5801
C62_26 C 0.89701(10) 0.94619(13) 0.64060(10)
C63_26 C 0.94443(8) 0.92607(10) 0.58031(7)
Zn10_26 Zn 0.965344(11) 0.918532(9) 0.538606(8)
Zn18_26 Zn 0.954533(13) 0.880794(11) 0.576385(10)
O1_27 O 0.58859(5) 0.29754(4) 0.24355(6)
O2_27 O 0.61316(7) 0.32126(8) 0.23514(7)
O4_27 O 0.64396(8) 0.35708(9) 0.32180(10)
O5_27 O 0.58647(5) 0.30736(6) 0.34314(7)
O6_27 O 0.56414(5) 0.29696(7) 0.31758(6)
C1_27 C 0.60443(7) 0.31840(7) 0.27158(9)
C2_27 C 0.62084(8) 0.33267(7) 0.27674(10)
H1_27 H 0.6299 0.3384 0.2660
C3_27 C 0.62334(8) 0.33794(9) 0.29750(11)
C4_27 C 0.61106(7) 0.32879(7) 0.31345(10)
H2_27 H 0.6136 0.3320 0.3280
C5_27 C 0.59442(6) 0.31435(7) 0.30754(9)
C6_27 C 0.59150(6) 0.31009(7) 0.28616(9)
H3_27 H 0.5801 0.3011 0.2818
C7_27 C 0.60213(8) 0.31183(9) 0.24838(12)
C8_27 C 0.64060(10) 0.35299(10) 0.30381(13)
C9_27 C 0.58031(7) 0.30557(8) 0.32393(10)
O9_27 O 0.55931(5) 0.26797(4) 0.20890(5)
O10_27 O 0.58044(5) 0.24880(5) 0.22984(6)
C19_27 C 0.54747(5) 0.23375(5) 0.21784(5)
C20_27 C 0.54750(5) 0.21828(5) 0.23338(5)
H9_27 H 0.5583 0.2185 0.2440
C21_27 C 0.56363(6) 0.25179(7) 0.21953(7)
O15_27 O 0.54110(5) 0.19069(5) 0.26797(4)
O16_27 O 0.52016(6) 0.16956(5) 0.24880(5)
C40_27 C 0.53216(5) 0.20253(5) 0.23375(5)
C41_27 C 0.51662(5) 0.20250(5) 0.21828(5)
H20_27 H 0.5060 0.1917 0.2185
C42_27 C 0.53047(7) 0.18637(6) 0.25179(7)
O17_27 O 0.48203(4) 0.20890(5) 0.19069(5)
O18_27 O 0.50120(5) 0.22984(6) 0.16956(5)
C43_27 C 0.51625(5) 0.21784(5) 0.20253(5)
C44_27 C 0.53172(5) 0.23338(5) 0.20250(5)
H21_27 H 0.5315 0.2440 0.1917
C45_27 C 0.49821(7) 0.21953(7) 0.18637(6)
O19_27 O 0.50645(6) 0.16141(5) 0.29754(4)
O20_27 O 0.51486(7) 0.13684(7) 0.32126(8)
O22_27 O 0.42820(10) 0.10604(8) 0.35708(9)
O23_27 O 0.40686(7) 0.16353(5) 0.30736(6)
O24_27 O 0.43242(6) 0.18586(5) 0.29696(7)
C46_27 C 0.47842(9) 0.14557(7) 0.31840(7)
C47_27 C 0.47326(10) 0.12916(8) 0.33267(7)
H22_27 H 0.4840 0.1201 0.3384
C48_27 C 0.45250(11) 0.12666(8) 0.33794(9)
C49_27 C 0.43655(10) 0.13894(7) 0.32879(7)
H23_27 H 0.4220 0.1364 0.3320
C50_27 C 0.44246(9) 0.15558(6) 0.31435(7)
C51_27 C 0.46384(9) 0.15850(6) 0.31009(7)
H24_27 H 0.4682 0.1699 0.3011
C52_27 C 0.50162(12) 0.14787(8) 0.31183(9)
C53_27 C 0.44619(13) 0.10940(10) 0.35299(10)
C54_27 C 0.42607(10) 0.16969(7) 0.30557(8)
O25_27 O 0.45246(4) 0.24355(6) 0.16141(5)
O26_27 O 0.42874(8) 0.23514(7) 0.13684(7)
O28_27 O 0.39292(9) 0.32180(10) 0.10604(8)
O29_27 O 0.44264(6) 0.34314(7) 0.16353(5)
O30_27 O 0.45304(7) 0.31758(6) 0.18586(5)
C55_27 C 0.43160(7) 0.27158(9) 0.14557(7)
C56_27 C 0.41733(7) 0.27674(10) 0.12916(8)
H25_27 H 0.4116 0.2660 0.1201
C57_27 C 0.41206(9) 0.29750(11) 0.12666(8)
C58_27 C 0.42121(7) 0.31345(10) 0.13894(7)
H26_27 H 0.4180 0.3280 0.1364
C59_27 C 0.43565(7) 0.30754(9) 0.15558(6)
C60_27 C 0.43991(7) 0.28616(9) 0.15850(6)
H27_27 H 0.4489 0.2818 0.1699
C61_27 C 0.43817(9) 0.24838(12) 0.14787(8)
C62_27 C 0.39701(10) 0.30381(13) 0.10940(10)
C63_27 C 0.44443(8) 0.32393(10) 0.16969(7)
Zn9_27 Zn 0.418532(9) 0.211394(8) 0.284656(11)
Zn10_27 Zn 0.465344(11) 0.331468(9) 0.211394(8)
Zn11_27 Zn 0.538606(8) 0.284656(11) 0.331468(9)
Zn17_27 Zn 0.380794(11) 0.173615(10) 0.295467(13)
Zn18_27 Zn 0.454533(13) 0.369206(11) 0.173615(10)
Zn19_27 Zn 0.576385(10) 0.295467(13) 0.369206(11)
O34_27 O 0.41353(5) 0.19264(6) 0.15686(7)
O35_27 O 0.59314(7) 0.33647(5) 0.19264(6)
O36_27 O 0.55736(6) 0.15686(7) 0.33647(5)
O37_27 O 0.43586(5) 0.20304(7) 0.18242(6)
O38_27 O 0.56758(6) 0.31414(5) 0.20304(7)
O39_27 O 0.54696(7) 0.18242(6) 0.31414(5)
O1_28 O 0.66141(5) 0.45246(4) 0.74355(6)
O2_28 O 0.63684(7) 0.42874(8) 0.73514(7)
O4_28 O 0.60604(8) 0.39292(9) 0.82180(10)
O5_28 O 0.66353(5) 0.44264(6) 0.84314(7)
O6_28 O 0.68586(5) 0.45304(7) 0.81758(6)
C1_28 C 0.64557(7) 0.43160(7) 0.77158(9)
C2_28 C 0.62916(8) 0.41733(7) 0.77674(10)
H1_28 H 0.6201 0.4116 0.7660
C3_28 C 0.62666(8) 0.41206(9) 0.79750(11)
C4_28 C 0.63894(7) 0.42121(7) 0.81345(10)
H2_28 H 0.6364 0.4180 0.8280
C5_28 C 0.65558(6) 0.43565(7) 0.80754(9)
C6_28 C 0.65850(6) 0.43991(7) 0.78616(9)
H3_28 H 0.6699 0.4489 0.7818
C7_28 C 0.64787(8) 0.43817(9) 0.74838(12)
C8_28 C 0.60940(10) 0.39701(10) 0.80381(13)
C9_28 C 0.66969(7) 0.44443(8) 0.82393(10)
O9_28 O 0.69069(5) 0.48203(4) 0.70890(5)
O10_28 O 0.66956(5) 0.50120(5) 0.72984(6)
C19_28 C 0.70253(5) 0.51625(5) 0.71784(5)
C20_28 C 0.70250(5) 0.53172(5) 0.73338(5)
H9_28 H 0.6917 0.5315 0.7440
C21_28 C 0.68637(6) 0.49821(7) 0.71953(7)
O15_28 O 0.70890(5) 0.55931(5) 0.76797(4)
O16_28 O 0.72984(6) 0.58044(5) 0.74880(5)
C40_28 C 0.71784(5) 0.54747(5) 0.73375(5)
C41_28 C 0.73338(5) 0.54750(5) 0.71828(5)
H20_28 H 0.7440 0.5583 0.7185
C42_28 C 0.71953(7) 0.56363(6) 0.75179(7)
O17_28 O 0.76797(4) 0.54110(5) 0.69069(5)
O18_28 O 0.74880(5) 0.52016(6) 0.66956(5)
C43_28 C 0.73375(5) 0.53216(5) 0.70253(5)
C44_28 C 0.71828(5) 0.51662(5) 0.70250(5)
H21_28 H 0.7185 0.5060 0.6917
C45_28 C 0.75179(7) 0.53047(7) 0.68637(6)
O19_28 O 0.74355(6) 0.58859(5) 0.79754(4)
O20_28 O 0.73514(7) 0.61316(7) 0.82126(8)
O22_28 O 0.82180(10) 0.64396(8) 0.85708(9)
O23_28 O 0.84314(7) 0.58647(5) 0.80736(6)
O24_28 O 0.81758(6) 0.56414(5) 0.79696(7)
C46_28 C 0.77158(9) 0.60443(7) 0.81840(7)
C47_28 C 0.77674(10) 0.62084(8) 0.83267(7)
H22_28 H 0.7660 0.6299 0.8384
C48_28 C 0.79750(11) 0.62334(8) 0.83794(9)
C49_28 C 0.81345(10) 0.61106(7) 0.82879(7)
H23_28 H 0.8280 0.6136 0.8320
C50_28 C 0.80754(9) 0.59442(6) 0.81435(7)
C51_28 C 0.78616(9) 0.59150(6) 0.81009(7)
H24_28 H 0.7818 0.5801 0.8011
C52_28 C 0.74838(12) 0.60213(8) 0.81183(9)
C53_28 C 0.80381(13) 0.64060(10) 0.85299(10)
C54_28 C 0.82393(10) 0.58031(7) 0.80557(8)
O25_28 O 0.79754(4) 0.50645(6) 0.66141(5)
O26_28 O 0.82126(8) 0.51486(7) 0.63684(7)
O28_28 O 0.85708(9) 0.42820(10) 0.60604(8)
O29_28 O 0.80736(6) 0.40686(7) 0.66353(5)
O30_28 O 0.79696(7) 0.43242(6) 0.68586(5)
C55_28 C 0.81840(7) 0.47842(9) 0.64557(7)
C56_28 C 0.83267(7) 0.47326(10) 0.62916(8)
H25_28 H 0.8384 0.4840 0.6201
C57_28 C 0.83794(9) 0.45250(11) 0.62666(8)
C58_28 C 0.82879(7) 0.43655(10) 0.63894(7)
H26_28 H 0.8320 0.4220 0.6364
C59_28 C 0.81435(7) 0.44246(9) 0.65558(6)
C60_28 C 0.81009(7) 0.46384(9) 0.65850(6)
H27_28 H 0.8011 0.4682 0.6699
C61_28 C 0.81183(9) 0.50162(12) 0.64787(8)
C62_28 C 0.85299(10) 0.44619(13) 0.60940(10)
C63_28 C 0.80557(8) 0.42607(10) 0.66969(7)
Zn9_28 Zn 0.831468(9) 0.538606(8) 0.784656(11)
Zn10_28 Zn 0.784656(11) 0.418532(9) 0.711394(8)
Zn11_28 Zn 0.711394(8) 0.465344(11) 0.831468(9)
Zn17_28 Zn 0.869206(11) 0.576385(10) 0.795467(13)
Zn18_28 Zn 0.795467(13) 0.380794(11) 0.673615(10)
Zn19_28 Zn 0.673615(10) 0.454533(13) 0.869206(11)
O34_28 O 0.83647(5) 0.55736(6) 0.65686(7)
O35_28 O 0.65686(7) 0.41353(5) 0.69264(6)
O36_28 O 0.69264(6) 0.59314(7) 0.83647(5)
O37_28 O 0.81414(5) 0.54696(7) 0.68242(6)
O38_28 O 0.68242(6) 0.43586(5) 0.70304(7)
O39_28 O 0.70304(7) 0.56758(6) 0.81414(5)
O4_29 O 0.60708(9) 0.35604(8) 0.07180(10)
O5_29 O 0.55736(6) 0.41353(5) 0.09314(7)
O6_29 O 0.54696(7) 0.43586(5) 0.06758(6)
C1_29 C 0.56840(7) 0.39557(7) 0.02158(9)
C2_29 C 0.58267(7) 0.37916(8) 0.02674(10)
H1_29 H 0.5884 0.3701 0.0160
C3_29 C 0.58794(9) 0.37666(8) 0.04750(11)
C4_29 C 0.57879(7) 0.38894(7) 0.06345(10)
H2_29 H 0.5820 0.3864 0.0780
C5_29 C 0.56435(7) 0.40558(6) 0.05754(9)
C6_29 C 0.56009(7) 0.40850(6) 0.03616(9)
H3_29 H 0.5511 0.4199 0.0318
C8_29 C 0.60299(10) 0.35940(10) 0.05381(13)
C9_29 C 0.55557(8) 0.41969(7) 0.07393(10)
O15_29 O 0.44069(5) 0.45890(5) 0.01797(4)
C42_29 C 0.43637(6) 0.46953(7) 0.00179(7)
O19_29 O 0.41141(5) 0.49355(6) 0.04754(4)
O20_29 O 0.38684(7) 0.48514(7) 0.07126(8)
O22_29 O 0.35604(8) 0.57180(10) 0.10708(9)
O23_29 O 0.41353(5) 0.59314(7) 0.05736(6)
O24_29 O 0.43586(5) 0.56758(6) 0.04696(7)
C46_29 C 0.39557(7) 0.52158(9) 0.06840(7)
C47_29 C 0.37916(8) 0.52674(10) 0.08267(7)
H22_29 H 0.3701 0.5160 0.0884
C48_29 C 0.37666(8) 0.54750(11) 0.08794(9)
C49_29 C 0.38894(7) 0.56345(10) 0.07879(7)
H23_29 H 0.3864 0.5780 0.0820
C50_29 C 0.40558(6) 0.55754(9) 0.06435(7)
C51_29 C 0.40850(6) 0.53616(9) 0.06009(7)
H24_29 H 0.4199 0.5318 0.0511
C52_29 C 0.39787(8) 0.49838(12) 0.06183(9)
C53_29 C 0.35940(10) 0.55381(13) 0.10299(10)
C54_29 C 0.41969(7) 0.57393(10) 0.05557(8)
Zn9_29 Zn 0.461394(8) 0.581468(9) 0.034656(11)
Zn11_29 Zn 0.534656(11) 0.461394(8) 0.081468(9)
Zn17_29 Zn 0.423615(10) 0.619206(11) 0.045467(13)
Zn19_29 Zn 0.545467(13) 0.423615(10) 0.119206(11)
O36_29 O 0.40686(7) 0.44264(6) 0.08647(5)
O39_29 O 0.43242(6) 0.45304(7) 0.06414(5)
O1_29 O 0.54754(4) 0.41141(5) 0.99355(6)
O2_29 O 0.57126(8) 0.38684(7) 0.98514(7)
C7_29 C 0.56183(9) 0.39787(8) 0.99838(12)
O9_29 O 0.51797(4) 0.44069(5) 0.95890(5)
O10_29 O 0.49880(5) 0.41956(5) 0.97984(6)
C19_29 C 0.48375(5) 0.45253(5) 0.96784(5)
C20_29 C 0.46828(5) 0.45250(5) 0.98338(5)
H9_29 H 0.4685 0.4417 0.9940
C21_29 C 0.50179(7) 0.43637(6) 0.96953(7)
O16_29 O 0.41956(5) 0.47984(6) 0.99880(5)
C40_29 C 0.45253(5) 0.46784(5) 0.98375(5)
C41_29 C 0.45250(5) 0.48338(5) 0.96828(5)
H20_29 H 0.4417 0.4940 0.9685
O17_29 O 0.45890(5) 0.51797(4) 0.94069(5)
O18_29 O 0.47984(6) 0.49880(5) 0.91956(5)
C43_29 C 0.46784(5) 0.48375(5) 0.95253(5)
C44_29 C 0.48338(5) 0.46828(5) 0.95250(5)
H21_29 H 0.4940 0.4685 0.9417
C45_29 C 0.46953(7) 0.50179(7) 0.93637(6)
O25_29 O 0.49355(6) 0.54754(4) 0.91141(5)
O26_29 O 0.48514(7) 0.57126(8) 0.88684(7)
O28_29 O 0.57180(10) 0.60708(9) 0.85604(8)
O29_29 O 0.59314(7) 0.55736(6) 0.91353(5)
O30_29 O 0.56758(6) 0.54696(7) 0.93586(5)
C55_29 C 0.52158(9) 0.56840(7) 0.89557(7)
C56_29 C 0.52674(10) 0.58267(7) 0.87916(8)
H25_29 H 0.5160 0.5884 0.8701
C57_29 C 0.54750(11) 0.58794(9) 0.87666(8)
C58_29 C 0.56345(10) 0.57879(7) 0.88894(7)
H26_29 H 0.5780 0.5820 0.8864
C59_29 C 0.55754(9) 0.56435(7) 0.90558(6)
C60_29 C 0.53616(9) 0.56009(7) 0.90850(6)
H27_29 H 0.5318 0.5511 0.9199
C61_29 C 0.49838(12) 0.56183(9) 0.89787(8)
C62_29 C 0.55381(13) 0.60299(10) 0.85940(10)
C63_29 C 0.57393(10) 0.55557(8) 0.91969(7)
Zn10_29 Zn 0.581468(9) 0.534656(11) 0.961394(8)
Zn18_29 Zn 0.619206(11) 0.545467(13) 0.923615(10)
O34_29 O 0.44264(6) 0.58647(5) 0.90686(7)
O35_29 O 0.58647(5) 0.40686(7) 0.94264(6)
O37_29 O 0.45304(7) 0.56414(5) 0.93242(6)
O38_29 O 0.56414(5) 0.43242(6) 0.95304(7)
O1_30 O 0.70246(4) 0.33859(5) 0.49355(6)
O2_30 O 0.67874(8) 0.36316(7) 0.48514(7)
O4_30 O 0.64292(9) 0.39396(8) 0.57180(10)
O5_30 O 0.69264(6) 0.33647(5) 0.59314(7)
O6_30 O 0.70304(7) 0.31414(5) 0.56758(6)
C1_30 C 0.68160(7) 0.35443(7) 0.52158(9)
C2_30 C 0.66733(7) 0.37084(8) 0.52674(10)
H1_30 H 0.6616 0.3799 0.5160
C3_30 C 0.66206(9) 0.37334(8) 0.54750(11)
C4_30 C 0.67121(7) 0.36106(7) 0.56345(10)
H2_30 H 0.6680 0.3636 0.5780
C5_30 C 0.68565(7) 0.34442(6) 0.55754(9)
C6_30 C 0.68991(7) 0.34150(6) 0.53616(9)
H3_30 H 0.6989 0.3301 0.5318
C7_30 C 0.68817(9) 0.35213(8) 0.49838(12)
C8_30 C 0.64701(10) 0.39060(10) 0.55381(13)
C9_30 C 0.69443(8) 0.33031(7) 0.57393(10)
O9_30 O 0.73203(4) 0.30931(5) 0.45890(5)
O10_30 O 0.75120(5) 0.33044(5) 0.47984(6)
C19_30 C 0.76625(5) 0.29747(5) 0.46784(5)
C20_30 C 0.78172(5) 0.29750(5) 0.48338(5)
H9_30 H 0.7815 0.3083 0.4940
C21_30 C 0.74821(7) 0.31363(6) 0.46953(7)
O15_30 O 0.80931(5) 0.29110(5) 0.51797(4)
O16_30 O 0.83044(5) 0.27016(6) 0.49880(5)
C40_30 C 0.79747(5) 0.28216(5) 0.48375(5)
C41_30 C 0.79750(5) 0.26662(5) 0.46828(5)
H20_30 H 0.8083 0.2560 0.4685
C42_30 C 0.81363(6) 0.28047(7) 0.50179(7)
O17_30 O 0.79110(5) 0.23203(4) 0.44069(5)
O18_30 O 0.77016(6) 0.25120(5) 0.41956(5)
C43_30 C 0.78216(5) 0.26625(5) 0.45253(5)
C44_30 C 0.76662(5) 0.28172(5) 0.45250(5)
H21_30 H 0.7560 0.2815 0.4417
C45_30 C 0.78047(7) 0.24821(7) 0.43637(6)
O19_30 O 0.83859(5) 0.25645(6) 0.54754(4)
O20_30 O 0.86316(7) 0.26486(7) 0.57126(8)
O22_30 O 0.89396(8) 0.17820(10) 0.60708(9)
O23_30 O 0.83647(5) 0.15686(7) 0.55736(6)
O24_30 O 0.81414(5) 0.18242(6) 0.54696(7)
C46_30 C 0.85443(7) 0.22842(9) 0.56840(7)
C47_30 C 0.87084(8) 0.22326(10) 0.58267(7)
H22_30 H 0.8799 0.2340 0.5884
C48_30 C 0.87334(8) 0.20250(11) 0.58794(9)
C49_30 C 0.86106(7) 0.18655(10) 0.57879(7)
H23_30 H 0.8636 0.1720 0.5820
C50_30 C 0.84442(6) 0.19246(9) 0.56435(7)
C51_30 C 0.84150(6) 0.21384(9) 0.56009(7)
H24_30 H 0.8301 0.2182 0.5511
C52_30 C 0.85213(8) 0.25162(12) 0.56183(9)
C53_30 C 0.89060(10) 0.19619(13) 0.60299(10)
C54_30 C 0.83031(7) 0.17607(10) 0.55557(8)
O25_30 O 0.75645(6) 0.20246(4) 0.41141(5)
O26_30 O 0.76486(7) 0.17874(8) 0.38684(7)
O28_30 O 0.67820(10) 0.14292(9) 0.35604(8)
O29_30 O 0.65686(7) 0.19264(6) 0.41353(5)
O30_30 O 0.68242(6) 0.20304(7) 0.43586(5)
C55_30 C 0.72842(9) 0.18160(7) 0.39557(7)
C56_30 C 0.72326(10) 0.16733(7) 0.37916(8)
H25_30 H 0.7340 0.1616 0.3701
C57_30 C 0.70250(11) 0.16206(9) 0.37666(8)
C58_30 C 0.68655(10) 0.17121(7) 0.38894(7)
H26_30 H 0.6720 0.1680 0.3864
C59_30 C 0.69246(9) 0.18565(7) 0.40558(6)
C60_30 C 0.71384(9) 0.18991(7) 0.40850(6)
H27_30 H 0.7182 0.1989 0.4199
C61_30 C 0.75162(12) 0.18817(9) 0.39787(8)
C62_30 C 0.69619(13) 0.14701(10) 0.35940(10)
C63_30 C 0.67607(10) 0.19443(8) 0.41969(7)
Zn9_30 Zn 0.788606(8) 0.168532(9) 0.534656(11)
Zn10_30 Zn 0.668532(9) 0.215344(11) 0.461394(8)
Zn11_30 Zn 0.715344(11) 0.288606(8) 0.581468(9)
Zn17_30 Zn 0.826385(10) 0.130794(11) 0.545467(13)
Zn18_30 Zn 0.630794(11) 0.204533(13) 0.423615(10)
Zn19_30 Zn 0.704533(13) 0.326385(10) 0.619206(11)
O34_30 O 0.80736(6) 0.16353(5) 0.40686(7)
O35_30 O 0.66353(5) 0.34314(7) 0.44264(6)
O36_30 O 0.84314(7) 0.30736(6) 0.58647(5)
O37_30 O 0.79696(7) 0.18586(5) 0.43242(6)
O38_30 O 0.68586(5) 0.31758(6) 0.45304(7)
O39_30 O 0.81758(6) 0.29696(7) 0.56414(5)
O1_31 O 0.04754(4) 0.83859(5) 0.75645(6)
O2_31 O 0.07126(8) 0.86316(7) 0.76486(7)
O4_31 O 0.10708(9) 0.89396(8) 0.67820(10)
O5_31 O 0.05736(6) 0.83647(5) 0.65686(7)
O6_31 O 0.04696(7) 0.81414(5) 0.68242(6)
C1_31 C 0.06840(7) 0.85443(7) 0.72842(9)
C2_31 C 0.08267(7) 0.87084(8) 0.72326(10)
H1_31 H 0.0884 0.8799 0.7340
C3_31 C 0.08794(9) 0.87334(8) 0.70250(11)
C4_31 C 0.07879(7) 0.86106(7) 0.68655(10)
H2_31 H 0.0820 0.8636 0.6720
C5_31 C 0.06435(7) 0.84442(6) 0.69246(9)
C6_31 C 0.06009(7) 0.84150(6) 0.71384(9)
H3_31 H 0.0511 0.8301 0.7182
C7_31 C 0.06183(9) 0.85213(8) 0.75162(12)
C8_31 C 0.10299(10) 0.89060(10) 0.69619(13)
C9_31 C 0.05557(8) 0.83031(7) 0.67607(10)
O9_31 O 0.01797(4) 0.80931(5) 0.79110(5)
C21_31 C 0.00179(7) 0.81363(6) 0.78047(7)
O28_31 O 0.07180(10) 0.64292(9) 0.89396(8)
O29_31 O 0.09314(7) 0.69264(6) 0.83647(5)
O30_31 O 0.06758(6) 0.70304(7) 0.81414(5)
C55_31 C 0.02158(9) 0.68160(7) 0.85443(7)
C56_31 C 0.02674(10) 0.66733(7) 0.87084(8)
H25_31 H 0.0160 0.6616 0.8799
C57_31 C 0.04750(11) 0.66206(9) 0.87334(8)
C58_31 C 0.06345(10) 0.67121(7) 0.86106(7)
H26_31 H 0.0780 0.6680 0.8636
C59_31 C 0.05754(9) 0.68565(7) 0.84442(6)
C60_31 C 0.03616(9) 0.68991(7) 0.84150(6)
H27_31 H 0.0318 0.6989 0.8301
C62_31 C 0.05381(13) 0.64701(10) 0.89060(10)
C63_31 C 0.07393(10) 0.69443(8) 0.83031(7)
Zn10_31 Zn 0.081468(9) 0.715344(11) 0.788606(8)
Zn11_31 Zn 0.034656(11) 0.788606(8) 0.668532(9)
Zn18_31 Zn 0.119206(11) 0.704533(13) 0.826385(10)
Zn19_31 Zn 0.045467(13) 0.826385(10) 0.630794(11)
O35_31 O 0.08647(5) 0.84314(7) 0.80736(6)
O38_31 O 0.06414(5) 0.81758(6) 0.79696(7)
O10_31 O 0.99880(5) 0.83044(5) 0.77016(6)
C19_31 C 0.98375(5) 0.79747(5) 0.78216(5)
C20_31 C 0.96828(5) 0.79750(5) 0.76662(5)
H9_31 H 0.9685 0.8083 0.7560
O15_31 O 0.94069(5) 0.79110(5) 0.73203(4)
O16_31 O 0.91956(5) 0.77016(6) 0.75120(5)
C40_31 C 0.95253(5) 0.78216(5) 0.76625(5)
C41_31 C 0.95250(5) 0.76662(5) 0.78172(5)
H20_31 H 0.9417 0.7560 0.7815
C42_31 C 0.93637(6) 0.78047(7) 0.74821(7)
O17_31 O 0.95890(5) 0.73203(4) 0.80931(5)
O18_31 O 0.97984(6) 0.75120(5) 0.83044(5)
C43_31 C 0.96784(5) 0.76625(5) 0.79747(5)
C44_31 C 0.98338(5) 0.78172(5) 0.79750(5)
H21_31 H 0.9940 0.7815 0.8083
C45_31 C 0.96953(7) 0.74821(7) 0.81363(6)
O19_31 O 0.91141(5) 0.75645(6) 0.70246(4)
O20_31 O 0.88684(7) 0.76486(7) 0.67874(8)
O22_31 O 0.85604(8) 0.67820(10) 0.64292(9)
O23_31 O 0.91353(5) 0.65686(7) 0.69264(6)
O24_31 O 0.93586(5) 0.68242(6) 0.70304(7)
C46_31 C 0.89557(7) 0.72842(9) 0.68160(7)
C47_31 C 0.87916(8) 0.72326(10) 0.66733(7)
H22_31 H 0.8701 0.7340 0.6616
C48_31 C 0.87666(8) 0.70250(11) 0.66206(9)
C49_31 C 0.88894(7) 0.68655(10) 0.67121(7)
H23_31 H 0.8864 0.6720 0.6680
C50_31 C 0.90558(6) 0.69246(9) 0.68565(7)
C51_31 C 0.90850(6) 0.71384(9) 0.68991(7)
H24_31 H 0.9199 0.7182 0.6989
C52_31 C 0.89787(8) 0.75162(12) 0.68817(9)
C53_31 C 0.85940(10) 0.69619(13) 0.64701(10)
C54_31 C 0.91969(7) 0.67607(10) 0.69443(8)
O25_31 O 0.99355(6) 0.70246(4) 0.83859(5)
O26_31 O 0.98514(7) 0.67874(8) 0.86316(7)
C61_31 C 0.99838(12) 0.68817(9) 0.85213(8)
Zn9_31 Zn 0.961394(8) 0.668532(9) 0.715344(11)
Zn17_31 Zn 0.923615(10) 0.630794(11) 0.704533(13)
O34_31 O 0.94264(6) 0.66353(5) 0.84314(7)
O36_31 O 0.90686(7) 0.80736(6) 0.66353(5)
O37_31 O 0.95304(7) 0.68586(5) 0.81758(6)
O39_31 O 0.93242(6) 0.79696(7) 0.68586(5)
O17_32 O 0.29110(5) 0.01797(4) 0.30931(5)
C45_32 C 0.28047(7) 0.00179(7) 0.31363(6)
O22_32 O 0.39396(8) 0.07180(10) 0.14292(9)
O23_32 O 0.33647(5) 0.09314(7) 0.19264(6)
O24_32 O 0.31414(5) 0.06758(6) 0.20304(7)
C46_32 C 0.35443(7) 0.02158(9) 0.18160(7)
C47_32 C 0.37084(8) 0.02674(10) 0.16733(7)
H22_32 H 0.3799 0.0160 0.1616
C48_32 C 0.37334(8) 0.04750(11) 0.16206(9)
C49_32 C 0.36106(7) 0.06345(10) 0.17121(7)
H23_32 H 0.3636 0.0780 0.1680
C50_32 C 0.34442(6) 0.05754(9) 0.18565(7)
C51_32 C 0.34150(6) 0.03616(9) 0.18991(7)
H24_32 H 0.3301 0.0318 0.1989
C53_32 C 0.39060(10) 0.05381(13) 0.14701(10)
C54_32 C 0.33031(7) 0.07393(10) 0.19443(8)
O25_32 O 0.25645(6) 0.04754(4) 0.33859(5)
O26_32 O 0.26486(7) 0.07126(8) 0.36316(7)
O28_32 O 0.17820(10) 0.10708(9) 0.39396(8)
O29_32 O 0.15686(7) 0.05736(6) 0.33647(5)
O30_32 O 0.18242(6) 0.04696(7) 0.31414(5)
C55_32 C 0.22842(9) 0.06840(7) 0.35443(7)
C56_32 C 0.22326(10) 0.08267(7) 0.37084(8)
H25_32 H 0.2340 0.0884 0.3799
C57_32 C 0.20250(11) 0.08794(9) 0.37334(8)
C58_32 C 0.18655(10) 0.07879(7) 0.36106(7)
H26_32 H 0.1720 0.0820 0.3636
C59_32 C 0.19246(9) 0.06435(7) 0.34442(6)
C60_32 C 0.21384(9) 0.06009(7) 0.34150(6)
H27_32 H 0.2182 0.0511 0.3301
C61_32 C 0.25162(12) 0.06183(9) 0.35213(8)
C62_32 C 0.19619(13) 0.10299(10) 0.39060(10)
C63_32 C 0.17607(10) 0.05557(8) 0.33031(7)
Zn9_32 Zn 0.288606(8) 0.081468(9) 0.215344(11)
Zn10_32 Zn 0.168532(9) 0.034656(11) 0.288606(8)
Zn17_32 Zn 0.326385(10) 0.119206(11) 0.204533(13)
Zn18_32 Zn 0.130794(11) 0.045467(13) 0.326385(10)
O34_32 O 0.30736(6) 0.08647(5) 0.34314(7)
O37_32 O 0.29696(7) 0.06414(5) 0.31758(6)
O1_32 O 0.20246(4) 0.91141(5) 0.25645(6)
O2_32 O 0.17874(8) 0.88684(7) 0.26486(7)
O4_32 O 0.14292(9) 0.85604(8) 0.17820(10)
O5_32 O 0.19264(6) 0.91353(5) 0.15686(7)
O6_32 O 0.20304(7) 0.93586(5) 0.18242(6)
C1_32 C 0.18160(7) 0.89557(7) 0.22842(9)
C2_32 C 0.16733(7) 0.87916(8) 0.22326(10)
H1_32 H 0.1616 0.8701 0.2340
C3_32 C 0.16206(9) 0.87666(8) 0.20250(11)
C4_32 C 0.17121(7) 0.88894(7) 0.18655(10)
H2_32 H 0.1680 0.8864 0.1720
C5_32 C 0.18565(7) 0.90558(6) 0.19246(9)
C6_32 C 0.18991(7) 0.90850(6) 0.21384(9)
H3_32 H 0.1989 0.9199 0.2182
C7_32 C 0.18817(9) 0.89787(8) 0.25162(12)
C8_32 C 0.14701(10) 0.85940(10) 0.19619(13)
C9_32 C 0.19443(8) 0.91969(7) 0.17607(10)
O9_32 O 0.23203(4) 0.94069(5) 0.29110(5)
O10_32 O 0.25120(5) 0.91956(5) 0.27016(6)
C19_32 C 0.26625(5) 0.95253(5) 0.28216(5)
C20_32 C 0.28172(5) 0.95250(5) 0.26662(5)
H9_32 H 0.2815 0.9417 0.2560
C21_32 C 0.24821(7) 0.93637(6) 0.28047(7)
O15_32 O 0.30931(5) 0.95890(5) 0.23203(4)
O16_32 O 0.33044(5) 0.97984(6) 0.25120(5)
C40_32 C 0.29747(5) 0.96784(5) 0.26625(5)
C41_32 C 0.29750(5) 0.98338(5) 0.28172(5)
H20_32 H 0.3083 0.9940 0.2815
C42_32 C 0.31363(6) 0.96953(7) 0.24821(7)
O18_32 O 0.27016(6) 0.99880(5) 0.33044(5)
C43_32 C 0.28216(5) 0.98375(5) 0.29747(5)
C44_32 C 0.26662(5) 0.96828(5) 0.29750(5)
H21_32 H 0.2560 0.9685 0.3083
O19_32 O 0.33859(5) 0.99355(6) 0.20246(4)
O20_32 O 0.36316(7) 0.98514(7) 0.17874(8)
C52_32 C 0.35213(8) 0.99838(12) 0.18817(9)
Zn11_32 Zn 0.215344(11) 0.961394(8) 0.168532(9)
Zn19_32 Zn 0.204533(13) 0.923615(10) 0.130794(11)
O35_32 O 0.16353(5) 0.90686(7) 0.30736(6)
O36_32 O 0.34314(7) 0.94264(6) 0.16353(5)
O38_32 O 0.18586(5) 0.93242(6) 0.29696(7)
O39_32 O 0.31758(6) 0.95304(7) 0.18586(5)
O3_17 O 0.40109(6) 0.63896(7) 0.03947(8)
O4_33 O 0.39396(8) 0.64292(9) 0.07180(10)
C1_33 C 0.35443(7) 0.68160(7) 0.02158(9)
C2_33 C 0.37084(8) 0.66733(7) 0.02674(10)
H1_33 H 0.3799 0.6616 0.0160
C3_33 C 0.37334(8) 0.66206(9) 0.04750(11)
C4_33 C 0.36106(7) 0.67121(7) 0.06345(10)
H2_33 H 0.3636 0.6680 0.0780
C5_33 C 0.34442(6) 0.68565(7) 0.05754(9)
C6_33 C 0.34150(6) 0.68991(7) 0.03616(9)
H3_33 H 0.3301 0.6989 0.0318
C8_33 C 0.39060(10) 0.64701(10) 0.05381(13)
C9_33 C 0.33031(7) 0.69443(8) 0.07393(10)
O11_33 O 0.44738(8) 0.86635(6) 0.05089(7)
O12_33 O 0.44765(7) 0.89438(8) 0.03042(6)
C22_33 C 0.44440(12) 0.86139(10) 0.01451(10)
H12_33 H 0.4314 0.8129 0.0003
C27_33 C 0.43639(17) 0.84076(14) 0.01566(14)
H13_33 H 0.4313 0.8358 0.0290
C28_33 C 0.44688(11) 0.87470(10) 0.03326(10)
O15_33 O 0.29110(5) 0.80931(5) 0.01797(4)
C42_33 C 0.28047(7) 0.81363(6) 0.00179(7)
O19_33 O 0.25645(6) 0.83859(5) 0.04754(4)
O20_33 O 0.26486(7) 0.86316(7) 0.07126(8)
O21_17 O 0.21053(8) 0.90109(6) 0.11104(7)
O22_33 O 0.17820(10) 0.89396(8) 0.10708(9)
C46_33 C 0.22842(9) 0.85443(7) 0.06840(7)
C47_33 C 0.22326(10) 0.87084(8) 0.08267(7)
H22_33 H 0.2340 0.8799 0.0884
C48_33 C 0.20250(11) 0.87334(8) 0.08794(9)
C49_33 C 0.18655(10) 0.86106(7) 0.07879(7)
H23_33 H 0.1720 0.8636 0.0820
C50_33 C 0.19246(9) 0.84442(6) 0.06435(7)
C51_33 C 0.21384(9) 0.84150(6) 0.06009(7)
H24_33 H 0.2182 0.8301 0.0511
C52_33 C 0.25162(12) 0.85213(8) 0.06183(9)
C53_33 C 0.19619(13) 0.89060(10) 0.10299(10)
C54_33 C 0.17607(10) 0.83031(7) 0.05557(8)
O31_17 O 0.28947(8) 0.88896(7) 0.09891(6)
O40_9 O 0.30262(8) 0.88365(6) 0.05089(7)
O42_9 O 0.30235(7) 0.85562(8) 0.03042(6)
O1_33 O 0.33859(5) 0.70246(4) 0.99355(6)
O2_33 O 0.36316(7) 0.67874(8) 0.98514(7)
C7_33 C 0.35213(8) 0.68817(9) 0.99838(12)
O7_13 O 0.38365(6) 0.69911(7) 0.94738(8)
O8_13 O 0.35562(8) 0.71958(6) 0.94765(7)
C10_33 C 0.38861(10) 0.73549(10) 0.94440(12)
C11_33 C 0.38023(12) 0.75529(11) 0.94852(12)
H4_33 H 0.3655 0.7570 0.9518
C12_33 C 0.39340(15) 0.77223(14) 0.94783(13)
H5_33 H 0.3882 0.7857 0.9524
C13_33 C 0.41387(16) 0.77071(13) 0.94086(14)
C14_33 C 0.42262(14) 0.75117(16) 0.93546(19)
H6_33 H 0.4371 0.7497 0.9314
C15_33 C 0.40924(14) 0.73434(14) 0.93639(17)
H7_33 H 0.4142 0.7210 0.9313
C16_33 C 0.37530(10) 0.71674(10) 0.94688(11)
C17_33 C 0.43056(15) 0.78933(16) 0.9422(2)
O9_33 O 0.30931(5) 0.73203(4) 0.95890(5)
O10_33 O 0.33044(5) 0.75120(5) 0.97984(6)
C18_33 C 0.4459(2) 0.79216(19) 0.92847(17)
H8_33 H 0.4468 0.7829 0.9165
C19_33 C 0.29747(5) 0.76625(5) 0.96784(5)
C20_33 C 0.29750(5) 0.78172(5) 0.98338(5)
H9_33 H 0.3083 0.7815 0.9940
C21_33 C 0.31363(6) 0.74821(7) 0.96953(7)
C23_33 C 0.44852(12) 0.86977(12) 0.99471(11)
H10_33 H 0.4518 0.8845 0.9930
C24_33 C 0.44783(13) 0.85660(15) 0.97777(14)
H11_33 H 0.4524 0.8618 0.9643
C25_33 C 0.44086(14) 0.83613(16) 0.97929(13)
C26_33 C 0.43546(19) 0.82738(14) 0.99883(16)
C29_33 C 0.4422(2) 0.81944(15) 0.96067(16)
C30_33 C 0.42847(17) 0.8041(2) 0.95784(19)
H14_33 H 0.4165 0.8032 0.9671
O13_33 O 0.55089(7) 0.80262(8) 0.88365(6)
O14_33 O 0.53042(6) 0.80235(7) 0.85562(8)
C31_33 C 0.51451(10) 0.80560(12) 0.88861(10)
C32_33 C 0.49471(11) 0.80148(12) 0.88023(12)
H15_33 H 0.4930 0.7982 0.8655
C33_33 C 0.47777(14) 0.80217(13) 0.89340(15)
H16_33 H 0.4643 0.7976 0.8882
C34_33 C 0.47929(13) 0.80914(14) 0.91387(16)
C35_33 C 0.49883(16) 0.81454(19) 0.92262(14)
H17_33 H 0.5003 0.8186 0.9371
C36_33 C 0.51566(14) 0.81361(17) 0.90924(14)
H18_33 H 0.5290 0.8187 0.9142
C37_33 C 0.53326(10) 0.80312(11) 0.87530(10)
C38_33 C 0.46067(16) 0.8078(2) 0.93056(15)
C39_33 C 0.45784(19) 0.82153(17) 0.9459(2)
H19_33 H 0.4671 0.8335 0.9468
O16_33 O 0.27016(6) 0.83044(5) 0.99880(5)
C40_33 C 0.28216(5) 0.79747(5) 0.98375(5)
C41_33 C 0.26662(5) 0.79750(5) 0.96828(5)
H20_33 H 0.2560 0.8083 0.9685
O17_33 O 0.23203(4) 0.79110(5) 0.94069(5)
O18_33 O 0.25120(5) 0.77016(6) 0.91956(5)
C43_33 C 0.26625(5) 0.78216(5) 0.95253(5)
C44_33 C 0.28172(5) 0.76662(5) 0.95250(5)
H21_33 H 0.2815 0.7560 0.9417
C45_33 C 0.24821(7) 0.78047(7) 0.93637(6)
O25_33 O 0.20246(4) 0.75645(6) 0.91141(5)
O26_33 O 0.17874(8) 0.76486(7) 0.88684(7)
O27_17 O 0.13896(7) 0.71053(8) 0.84891(6)
O28_33 O 0.14292(9) 0.67820(10) 0.85604(8)
C55_33 C 0.18160(7) 0.72842(9) 0.89557(7)
C56_33 C 0.16733(7) 0.72326(10) 0.87916(8)
H25_33 H 0.1616 0.7340 0.8701
C57_33 C 0.16206(9) 0.70250(11) 0.87666(8)
C58_33 C 0.17121(7) 0.68655(10) 0.88894(7)
H26_33 H 0.1680 0.6720 0.8864
C59_33 C 0.18565(7) 0.69246(9) 0.90558(6)
C60_33 C 0.18991(7) 0.71384(9) 0.90850(6)
H27_33 H 0.1989 0.7182 0.9199
C61_33 C 0.18817(9) 0.75162(12) 0.89787(8)
C62_33 C 0.14701(10) 0.69619(13) 0.85940(10)
C63_33 C 0.19443(8) 0.67607(10) 0.91969(7)
O32_17 O 0.15109(6) 0.78947(8) 0.86104(7)
O33_17 O 0.38896(7) 0.65109(6) 0.96053(8)
O41_13 O 0.19911(7) 0.80262(8) 0.86635(6)
O43_13 O 0.21958(6) 0.80235(7) 0.89438(8)
O1_34 O 0.41141(5) 0.54754(4) 0.49355(6)
O2_34 O 0.38684(7) 0.57126(8) 0.48514(7)
O3_18 O 0.34891(6) 0.61104(7) 0.53947(8)
O4_34 O 0.35604(8) 0.60708(9) 0.57180(10)
C1_34 C 0.39557(7) 0.56840(7) 0.52158(9)
C2_34 C 0.37916(8) 0.58267(7) 0.52674(10)
H1_34 H 0.3701 0.5884 0.5160
C3_34 C 0.37666(8) 0.58794(9) 0.54750(11)
C4_34 C 0.38894(7) 0.57879(7) 0.56345(10)
H2_34 H 0.3864 0.5820 0.5780
C5_34 C 0.40558(6) 0.56435(7) 0.55754(9)
C6_34 C 0.40850(6) 0.56009(7) 0.53616(9)
H3_34 H 0.4199 0.5511 0.5318
C7_34 C 0.39787(8) 0.56183(9) 0.49838(12)
C8_34 C 0.35940(10) 0.60299(10) 0.55381(13)
C9_34 C 0.41969(7) 0.55557(8) 0.57393(10)
O7_14 O 0.36635(6) 0.55089(7) 0.44738(8)
O8_14 O 0.39438(8) 0.53042(6) 0.44765(7)
C10_34 C 0.36139(10) 0.51451(10) 0.44440(12)
C11_34 C 0.36977(12) 0.49471(11) 0.44852(12)
H4_34 H 0.3845 0.4930 0.4518
C12_34 C 0.35660(15) 0.47777(14) 0.44783(13)
H5_34 H 0.3618 0.4643 0.4524
C13_34 C 0.33613(16) 0.47929(13) 0.44086(14)
C14_34 C 0.32738(14) 0.49883(16) 0.43546(19)
H6_34 H 0.3129 0.5003 0.4314
C15_34 C 0.34076(14) 0.51566(14) 0.43639(17)
H7_34 H 0.3358 0.5290 0.4313
C16_34 C 0.37470(10) 0.53326(10) 0.44688(11)
C17_34 C 0.31944(15) 0.46067(16) 0.4422(2)
O9_34 O 0.44069(5) 0.51797(4) 0.45890(5)
O10_34 O 0.41956(5) 0.49880(5) 0.47984(6)
C18_34 C 0.3041(2) 0.45784(19) 0.42847(17)
H8_34 H 0.3032 0.4671 0.4165
C19_34 C 0.45253(5) 0.48375(5) 0.46784(5)
C20_34 C 0.45250(5) 0.46828(5) 0.48338(5)
H9_34 H 0.4417 0.4685 0.4940
C21_34 C 0.43637(6) 0.50179(7) 0.46953(7)
O11_34 O 0.30262(8) 0.38365(6) 0.55089(7)
O12_34 O 0.30235(7) 0.35562(8) 0.53042(6)
C22_34 C 0.30560(12) 0.38861(10) 0.51451(10)
C23_34 C 0.30148(12) 0.38023(12) 0.49471(11)
H10_34 H 0.2982 0.3655 0.4930
C24_34 C 0.30217(13) 0.39340(15) 0.47777(14)
H11_34 H 0.2976 0.3882 0.4643
C25_34 C 0.30914(14) 0.41387(16) 0.47929(13)
C26_34 C 0.31454(19) 0.42262(14) 0.49883(16)
H12_34 H 0.3186 0.4371 0.5003
C27_34 C 0.31361(17) 0.40924(14) 0.51566(14)
H13_34 H 0.3187 0.4142 0.5290
C28_34 C 0.30312(11) 0.37530(10) 0.53326(10)
C29_34 C 0.3078(2) 0.43056(15) 0.46067(16)
C30_34 C 0.32153(17) 0.4459(2) 0.45784(19)
H14_34 H 0.3335 0.4468 0.4671
O13_34 O 0.19911(7) 0.44738(8) 0.38365(6)
O14_34 O 0.21958(6) 0.44765(7) 0.35562(8)
C31_34 C 0.23549(10) 0.44440(12) 0.38861(10)
C32_34 C 0.25529(11) 0.44852(12) 0.38023(12)
H15_34 H 0.2570 0.4518 0.3655
C33_34 C 0.27223(14) 0.44783(13) 0.39340(15)
H16_34 H 0.2857 0.4524 0.3882
C34_34 C 0.27071(13) 0.44086(14) 0.41387(16)
C35_34 C 0.25117(16) 0.43546(19) 0.42262(14)
H17_34 H 0.2497 0.4314 0.4371
C36_34 C 0.23434(14) 0.43639(17) 0.40924(14)
H18_34 H 0.2210 0.4313 0.4142
C37_34 C 0.21674(10) 0.44688(11) 0.37530(10)
C38_34 C 0.28933(16) 0.4422(2) 0.43056(15)
C39_34 C 0.29216(19) 0.42847(17) 0.4459(2)
H19_34 H 0.2829 0.4165 0.4468
O15_34 O 0.45890(5) 0.44069(5) 0.51797(4)
O16_34 O 0.47984(6) 0.41956(5) 0.49880(5)
C40_34 C 0.46784(5) 0.45253(5) 0.48375(5)
C41_34 C 0.48338(5) 0.45250(5) 0.46828(5)
H20_34 H 0.4940 0.4417 0.4685
C42_34 C 0.46953(7) 0.43637(6) 0.50179(7)
O17_34 O 0.51797(4) 0.45890(5) 0.44069(5)
O18_34 O 0.49880(5) 0.47984(6) 0.41956(5)
C43_34 C 0.48375(5) 0.46784(5) 0.45253(5)
C44_34 C 0.46828(5) 0.48338(5) 0.45250(5)
H21_34 H 0.4685 0.4940 0.4417
C45_34 C 0.50179(7) 0.46953(7) 0.43637(6)
O19_34 O 0.49355(6) 0.41141(5) 0.54754(4)
O20_34 O 0.48514(7) 0.38684(7) 0.57126(8)
O21_18 O 0.53947(8) 0.34891(6) 0.61104(7)
O22_34 O 0.57180(10) 0.35604(8) 0.60708(9)
C46_34 C 0.52158(9) 0.39557(7) 0.56840(7)
C47_34 C 0.52674(10) 0.37916(8) 0.58267(7)
H22_34 H 0.5160 0.3701 0.5884
C48_34 C 0.54750(11) 0.37666(8) 0.58794(9)
C49_34 C 0.56345(10) 0.38894(7) 0.57879(7)
H23_34 H 0.5780 0.3864 0.5820
C50_34 C 0.55754(9) 0.40558(6) 0.56435(7)
C51_34 C 0.53616(9) 0.40850(6) 0.56009(7)
H24_34 H 0.5318 0.4199 0.5511
C52_34 C 0.49838(12) 0.39787(8) 0.56183(9)
C53_34 C 0.55381(13) 0.35940(10) 0.60299(10)
C54_34 C 0.57393(10) 0.41969(7) 0.55557(8)
O25_34 O 0.54754(4) 0.49355(6) 0.41141(5)
O26_34 O 0.57126(8) 0.48514(7) 0.38684(7)
O27_18 O 0.61104(7) 0.53947(8) 0.34891(6)
O28_34 O 0.60708(9) 0.57180(10) 0.35604(8)
C55_34 C 0.56840(7) 0.52158(9) 0.39557(7)
C56_34 C 0.58267(7) 0.52674(10) 0.37916(8)
H25_34 H 0.5884 0.5160 0.3701
C57_34 C 0.58794(9) 0.54750(11) 0.37666(8)
C58_34 C 0.57879(7) 0.56345(10) 0.38894(7)
H26_34 H 0.5820 0.5780 0.3864
C59_34 C 0.56435(7) 0.55754(9) 0.40558(6)
C60_34 C 0.56009(7) 0.53616(9) 0.40850(6)
H27_34 H 0.5511 0.5318 0.4199
C61_34 C 0.56183(9) 0.49838(12) 0.39787(8)
C62_34 C 0.60299(10) 0.55381(13) 0.35940(10)
C63_34 C 0.55557(8) 0.57393(10) 0.41969(7)
O31_18 O 0.46053(8) 0.36104(7) 0.59891(6)
O32_18 O 0.59891(6) 0.46053(8) 0.36104(7)
O33_18 O 0.36104(7) 0.59891(6) 0.46053(8)
O40_10 O 0.44738(8) 0.36635(6) 0.55089(7)
O41_14 O 0.55089(7) 0.44738(8) 0.36635(6)
O42_10 O 0.44765(7) 0.39438(8) 0.53042(6)
O43_14 O 0.53042(6) 0.44765(7) 0.39438(8)
O17_35 O 0.01797(4) 0.29110(5) 0.80931(5)
C45_35 C 0.00179(7) 0.28047(7) 0.81363(6)
O21_19 O 0.03947(8) 0.40109(6) 0.63896(7)
O22_35 O 0.07180(10) 0.39396(8) 0.64292(9)
C46_35 C 0.02158(9) 0.35443(7) 0.68160(7)
C47_35 C 0.02674(10) 0.37084(8) 0.66733(7)
H22_35 H 0.0160 0.3799 0.6616
C48_35 C 0.04750(11) 0.37334(8) 0.66206(9)
C49_35 C 0.06345(10) 0.36106(7) 0.67121(7)
H23_35 H 0.0780 0.3636 0.6680
C50_35 C 0.05754(9) 0.34442(6) 0.68565(7)
C51_35 C 0.03616(9) 0.34150(6) 0.68991(7)
H24_35 H 0.0318 0.3301 0.6989
C53_35 C 0.05381(13) 0.39060(10) 0.64701(10)
C54_35 C 0.07393(10) 0.33031(7) 0.69443(8)
O25_35 O 0.04754(4) 0.25645(6) 0.83859(5)
O26_35 O 0.07126(8) 0.26486(7) 0.86316(7)
O27_19 O 0.11104(7) 0.21053(8) 0.90109(6)
O28_35 O 0.10708(9) 0.17820(10) 0.89396(8)
C55_35 C 0.06840(7) 0.22842(9) 0.85443(7)
C56_35 C 0.08267(7) 0.22326(10) 0.87084(8)
H25_35 H 0.0884 0.2340 0.8799
C57_35 C 0.08794(9) 0.20250(11) 0.87334(8)
C58_35 C 0.07879(7) 0.18655(10) 0.86106(7)
H26_35 H 0.0820 0.1720 0.8636
C59_35 C 0.06435(7) 0.19246(9) 0.84442(6)
C60_35 C 0.06009(7) 0.21384(9) 0.84150(6)
H27_35 H 0.0511 0.2182 0.8301
C61_35 C 0.06183(9) 0.25162(12) 0.85213(8)
C62_35 C 0.10299(10) 0.19619(13) 0.89060(10)
C63_35 C 0.05557(8) 0.17607(10) 0.83031(7)
O32_19 O 0.09891(6) 0.28947(8) 0.88896(7)
O41_15 O 0.05089(7) 0.30262(8) 0.88365(6)
O43_15 O 0.03042(6) 0.30235(7) 0.85562(8)
O1_35 O 0.91141(5) 0.20246(4) 0.75645(6)
O2_35 O 0.88684(7) 0.17874(8) 0.76486(7)
O3_19 O 0.84891(6) 0.13896(7) 0.71053(8)
O4_35 O 0.85604(8) 0.14292(9) 0.67820(10)
C1_35 C 0.89557(7) 0.18160(7) 0.72842(9)
C2_35 C 0.87916(8) 0.16733(7) 0.72326(10)
H1_35 H 0.8701 0.1616 0.7340
C3_35 C 0.87666(8) 0.16206(9) 0.70250(11)
C4_35 C 0.88894(7) 0.17121(7) 0.68655(10)
H2_35 H 0.8864 0.1680 0.6720
C5_35 C 0.90558(6) 0.18565(7) 0.69246(9)
C6_35 C 0.90850(6) 0.18991(7) 0.71384(9)
H3_35 H 0.9199 0.1989 0.7182
C7_35 C 0.89787(8) 0.18817(9) 0.75162(12)
C8_35 C 0.85940(10) 0.14701(10) 0.69619(13)
C9_35 C 0.91969(7) 0.19443(8) 0.67607(10)
O7_15 O 0.86635(6) 0.19911(7) 0.80262(8)
O8_15 O 0.89438(8) 0.21958(6) 0.80235(7)
C10_35 C 0.86139(10) 0.23549(10) 0.80560(12)
C11_35 C 0.86977(12) 0.25529(11) 0.80148(12)
H4_35 H 0.8845 0.2570 0.7982
C12_35 C 0.85660(15) 0.27223(14) 0.80217(13)
H5_35 H 0.8618 0.2857 0.7976
C13_35 C 0.83613(16) 0.27071(13) 0.80914(14)
C14_35 C 0.82738(14) 0.25117(16) 0.81454(19)
H6_35 H 0.8129 0.2497 0.8186
C15_35 C 0.84076(14) 0.23434(14) 0.81361(17)
H7_35 H 0.8358 0.2210 0.8187
C16_35 C 0.87470(10) 0.21674(10) 0.80312(11)
C17_35 C 0.81944(15) 0.28933(16) 0.8078(2)
O9_35 O 0.94069(5) 0.23203(4) 0.79110(5)
O10_35 O 0.91956(5) 0.25120(5) 0.77016(6)
C18_35 C 0.8041(2) 0.29216(19) 0.82153(17)
H8_35 H 0.8032 0.2829 0.8335
C19_35 C 0.95253(5) 0.26625(5) 0.78216(5)
C20_35 C 0.95250(5) 0.28172(5) 0.76662(5)
H9_35 H 0.9417 0.2815 0.7560
C21_35 C 0.93637(6) 0.24821(7) 0.78047(7)
O11_35 O 0.80262(8) 0.36635(6) 0.69911(7)
O12_35 O 0.80235(7) 0.39438(8) 0.71958(6)
C22_35 C 0.80560(12) 0.36139(10) 0.73549(10)
C23_35 C 0.80148(12) 0.36977(12) 0.75529(11)
H10_35 H 0.7982 0.3845 0.7570
C24_35 C 0.80217(13) 0.35660(15) 0.77223(14)
H11_35 H 0.7976 0.3618 0.7857
C25_35 C 0.80914(14) 0.33613(16) 0.77071(13)
C26_35 C 0.81454(19) 0.32738(14) 0.75117(16)
H12_35 H 0.8186 0.3129 0.7497
C27_35 C 0.81361(17) 0.34076(14) 0.73434(14)
H13_35 H 0.8187 0.3358 0.7210
C28_35 C 0.80312(11) 0.37470(10) 0.71674(10)
C29_35 C 0.8078(2) 0.31944(15) 0.78933(16)
C30_35 C 0.82153(17) 0.3041(2) 0.79216(19)
H14_35 H 0.8335 0.3032 0.7829
O13_35 O 0.69911(7) 0.30262(8) 0.86635(6)
O14_35 O 0.71958(6) 0.30235(7) 0.89438(8)
C31_35 C 0.73549(10) 0.30560(12) 0.86139(10)
C32_35 C 0.75529(11) 0.30148(12) 0.86977(12)
H15_35 H 0.7570 0.2982 0.8845
C33_35 C 0.77223(14) 0.30217(13) 0.85660(15)
H16_35 H 0.7857 0.2976 0.8618
C34_35 C 0.77071(13) 0.30914(14) 0.83613(16)
C35_35 C 0.75117(16) 0.31454(19) 0.82738(14)
H17_35 H 0.7497 0.3186 0.8129
C36_35 C 0.73434(14) 0.31361(17) 0.84076(14)
H18_35 H 0.7210 0.3187 0.8358
C37_35 C 0.71674(10) 0.30312(11) 0.87470(10)
C38_35 C 0.78933(16) 0.3078(2) 0.81944(15)
C39_35 C 0.79216(19) 0.32153(17) 0.8041(2)
H19_35 H 0.7829 0.3335 0.8032
O15_35 O 0.95890(5) 0.30931(5) 0.73203(4)
O16_35 O 0.97984(6) 0.33044(5) 0.75120(5)
C40_35 C 0.96784(5) 0.29747(5) 0.76625(5)
C41_35 C 0.98338(5) 0.29750(5) 0.78172(5)
H20_35 H 0.9940 0.3083 0.7815
C42_35 C 0.96953(7) 0.31363(6) 0.74821(7)
O18_35 O 0.99880(5) 0.27016(6) 0.83044(5)
C43_35 C 0.98375(5) 0.28216(5) 0.79747(5)
C44_35 C 0.96828(5) 0.26662(5) 0.79750(5)
H21_35 H 0.9685 0.2560 0.8083
O19_35 O 0.99355(6) 0.33859(5) 0.70246(4)
O20_35 O 0.98514(7) 0.36316(7) 0.67874(8)
C52_35 C 0.99838(12) 0.35213(8) 0.68817(9)
O31_19 O 0.96053(8) 0.38896(7) 0.65109(6)
O33_19 O 0.86104(7) 0.15109(6) 0.78947(8)
O40_11 O 0.94738(8) 0.38365(6) 0.69911(7)
O42_11 O 0.94765(7) 0.35562(8) 0.71958(6)
O13_36 O 0.05089(7) 0.94738(8) 0.36635(6)
O14_36 O 0.03042(6) 0.94765(7) 0.39438(8)
C31_36 C 0.01451(10) 0.94440(12) 0.36139(10)
H17_36 H 0.0003 0.9314 0.3129
C36_36 C 0.01566(14) 0.93639(17) 0.34076(14)
H18_36 H 0.0290 0.9313 0.3358
C37_36 C 0.03326(10) 0.94688(11) 0.37470(10)
O1_36 O 0.83859(5) 0.04754(4) 0.25645(6)
O2_36 O 0.86316(7) 0.07126(8) 0.26486(7)
O3_20 O 0.90109(6) 0.11104(7) 0.21053(8)
O4_36 O 0.89396(8) 0.10708(9) 0.17820(10)
C1_36 C 0.85443(7) 0.06840(7) 0.22842(9)
C2_36 C 0.87084(8) 0.08267(7) 0.22326(10)
H1_36 H 0.8799 0.0884 0.2340
C3_36 C 0.87334(8) 0.08794(9) 0.20250(11)
C4_36 C 0.86106(7) 0.07879(7) 0.18655(10)
H2_36 H 0.8636 0.0820 0.1720
C5_36 C 0.84442(6) 0.06435(7) 0.19246(9)
C6_36 C 0.84150(6) 0.06009(7) 0.21384(9)
H3_36 H 0.8301 0.0511 0.2182
C7_36 C 0.85213(8) 0.06183(9) 0.25162(12)
C8_36 C 0.89060(10) 0.10299(10) 0.19619(13)
C9_36 C 0.83031(7) 0.05557(8) 0.17607(10)
O7_16 O 0.88365(6) 0.05089(7) 0.30262(8)
O8_16 O 0.85562(8) 0.03042(6) 0.30235(7)
C10_36 C 0.88861(10) 0.01451(10) 0.30560(12)
H6_36 H 0.9371 0.0003 0.3186
C15_36 C 0.90924(14) 0.01566(14) 0.31361(17)
H7_36 H 0.9142 0.0290 0.3187
C16_36 C 0.87530(10) 0.03326(10) 0.30312(11)
O9_36 O 0.80931(5) 0.01797(4) 0.29110(5)
C21_36 C 0.81363(6) 0.00179(7) 0.28047(7)
O27_20 O 0.63896(7) 0.03947(8) 0.40109(6)
O28_36 O 0.64292(9) 0.07180(10) 0.39396(8)
C55_36 C 0.68160(7) 0.02158(9) 0.35443(7)
C56_36 C 0.66733(7) 0.02674(10) 0.37084(8)
H25_36 H 0.6616 0.0160 0.3799
C57_36 C 0.66206(9) 0.04750(11) 0.37334(8)
C58_36 C 0.67121(7) 0.06345(10) 0.36106(7)
H26_36 H 0.6680 0.0780 0.3636
C59_36 C 0.68565(7) 0.05754(9) 0.34442(6)
C60_36 C 0.68991(7) 0.03616(9) 0.34150(6)
H27_36 H 0.6989 0.0318 0.3301
C62_36 C 0.64701(10) 0.05381(13) 0.39060(10)
C63_36 C 0.69443(8) 0.07393(10) 0.33031(7)
O33_20 O 0.88896(7) 0.09891(6) 0.28947(8)
C11_36 C 0.88023(12) 0.99471(11) 0.30148(12)
H4_36 H 0.8655 0.9930 0.2982
C12_36 C 0.89340(15) 0.97777(14) 0.30217(13)
H5_36 H 0.8882 0.9643 0.2976
C13_36 C 0.91387(16) 0.97929(13) 0.30914(14)
C14_36 C 0.92262(14) 0.99883(16) 0.31454(19)
C17_36 C 0.93056(15) 0.96067(16) 0.3078(2)
O10_36 O 0.83044(5) 0.99880(5) 0.27016(6)
C18_36 C 0.9459(2) 0.95784(19) 0.32153(17)
H8_36 H 0.9468 0.9671 0.3335
C19_36 C 0.79747(5) 0.98375(5) 0.28216(5)
C20_36 C 0.79750(5) 0.96828(5) 0.26662(5)
H9_36 H 0.8083 0.9685 0.2560
O11_36 O 0.94738(8) 0.88365(6) 0.19911(7)
O12_36 O 0.94765(7) 0.85562(8) 0.21958(6)
C22_36 C 0.94440(12) 0.88861(10) 0.23549(10)
C23_36 C 0.94852(12) 0.88023(12) 0.25529(11)
H10_36 H 0.9518 0.8655 0.2570
C24_36 C 0.94783(13) 0.89340(15) 0.27223(14)
H11_36 H 0.9524 0.8882 0.2857
C25_36 C 0.94086(14) 0.91387(16) 0.27071(13)
C26_36 C 0.93546(19) 0.92262(14) 0.25117(16)
H12_36 H 0.9314 0.9371 0.2497
C27_36 C 0.93639(17) 0.90924(14) 0.23434(14)
H13_36 H 0.9313 0.9142 0.2210
C28_36 C 0.94688(11) 0.87530(10) 0.21674(10)
C29_36 C 0.9422(2) 0.93056(15) 0.28933(16)
C30_36 C 0.92847(17) 0.9459(2) 0.29216(19)
H14_36 H 0.9165 0.9468 0.2829
C32_36 C 0.99471(11) 0.94852(12) 0.36977(12)
H15_36 H 0.9930 0.9518 0.3845
C33_36 C 0.97777(14) 0.94783(13) 0.35660(15)
H16_36 H 0.9643 0.9524 0.3618
C34_36 C 0.97929(13) 0.94086(14) 0.33613(16)
C35_36 C 0.99883(16) 0.93546(19) 0.32738(14)
C38_36 C 0.96067(16) 0.9422(2) 0.31944(15)
C39_36 C 0.95784(19) 0.92847(17) 0.3041(2)
H19_36 H 0.9671 0.9165 0.3032
O15_36 O 0.79110(5) 0.94069(5) 0.23203(4)
O16_36 O 0.77016(6) 0.91956(5) 0.25120(5)
C40_36 C 0.78216(5) 0.95253(5) 0.26625(5)
C41_36 C 0.76662(5) 0.95250(5) 0.28172(5)
H20_36 H 0.7560 0.9417 0.2815
C42_36 C 0.78047(7) 0.93637(6) 0.24821(7)
O17_36 O 0.73203(4) 0.95890(5) 0.30931(5)
O18_36 O 0.75120(5) 0.97984(6) 0.33044(5)
C43_36 C 0.76625(5) 0.96784(5) 0.29747(5)
C44_36 C 0.78172(5) 0.98338(5) 0.29750(5)
H21_36 H 0.7815 0.9940 0.3083
C45_36 C 0.74821(7) 0.96953(7) 0.31363(6)
O19_36 O 0.75645(6) 0.91141(5) 0.20246(4)
O20_36 O 0.76486(7) 0.88684(7) 0.17874(8)
O21_20 O 0.71053(8) 0.84891(6) 0.13896(7)
O22_36 O 0.67820(10) 0.85604(8) 0.14292(9)
C46_36 C 0.72842(9) 0.89557(7) 0.18160(7)
C47_36 C 0.72326(10) 0.87916(8) 0.16733(7)
H22_36 H 0.7340 0.8701 0.1616
C48_36 C 0.70250(11) 0.87666(8) 0.16206(9)
C49_36 C 0.68655(10) 0.88894(7) 0.17121(7)
H23_36 H 0.6720 0.8864 0.1680
C50_36 C 0.69246(9) 0.90558(6) 0.18565(7)
C51_36 C 0.71384(9) 0.90850(6) 0.18991(7)
H24_36 H 0.7182 0.9199 0.1989
C52_36 C 0.75162(12) 0.89787(8) 0.18817(9)
C53_36 C 0.69619(13) 0.85940(10) 0.14701(10)
C54_36 C 0.67607(10) 0.91969(7) 0.19443(8)
O25_36 O 0.70246(4) 0.99355(6) 0.33859(5)
O26_36 O 0.67874(8) 0.98514(7) 0.36316(7)
C61_36 C 0.68817(9) 0.99838(12) 0.35213(8)
O31_20 O 0.78947(8) 0.86104(7) 0.15109(6)
O32_20 O 0.65109(6) 0.96053(8) 0.38896(7)
O40_12 O 0.80262(8) 0.86635(6) 0.19911(7)
O41_16 O 0.69911(7) 0.94738(8) 0.38365(6)
O42_12 O 0.80235(7) 0.89438(8) 0.21958(6)
O43_16 O 0.71958(6) 0.94765(7) 0.35562(8)
O11_37 O 0.05089(7) 0.44738(8) 0.86635(6)
O12_37 O 0.03042(6) 0.44765(7) 0.89438(8)
C22_37 C 0.01451(10) 0.44440(12) 0.86139(10)
H12_37 H 0.0003 0.4314 0.8129
C27_37 C 0.01566(14) 0.43639(17) 0.84076(14)
H13_37 H 0.0290 0.4313 0.8358
C28_37 C 0.03326(10) 0.44688(11) 0.87470(10)
C10_37 C 0.94440(12) 0.38861(10) 0.73549(10)
C11_37 C 0.94852(12) 0.38023(12) 0.75529(11)
H4_37 H 0.9518 0.3655 0.7570
C12_37 C 0.94783(13) 0.39340(15) 0.77223(14)
H5_37 H 0.9524 0.3882 0.7857
C13_37 C 0.94086(14) 0.41387(16) 0.77071(13)
C14_37 C 0.93546(19) 0.42262(14) 0.75117(16)
H6_37 H 0.9314 0.4371 0.7497
C15_37 C 0.93639(17) 0.40924(14) 0.73434(14)
H7_37 H 0.9313 0.4142 0.7210
C16_37 C 0.94688(11) 0.37530(10) 0.71674(10)
C17_37 C 0.9422(2) 0.43056(15) 0.78933(16)
C18_37 C 0.92847(17) 0.4459(2) 0.79216(19)
H8_37 H 0.9165 0.4468 0.7829
C23_37 C 0.99471(11) 0.44852(12) 0.86977(12)
H10_37 H 0.9930 0.4518 0.8845
C24_37 C 0.97777(14) 0.44783(13) 0.85660(15)
H11_37 H 0.9643 0.4524 0.8618
C25_37 C 0.97929(13) 0.44086(14) 0.83613(16)
C26_37 C 0.99883(16) 0.43546(19) 0.82738(14)
C29_37 C 0.96067(16) 0.4422(2) 0.81944(15)
C30_37 C 0.95784(19) 0.42847(17) 0.8041(2)
H14_37 H 0.9671 0.4165 0.8032
O13_37 O 0.88365(6) 0.55089(7) 0.80262(8)
O14_37 O 0.85562(8) 0.53042(6) 0.80235(7)
C31_37 C 0.88861(10) 0.51451(10) 0.80560(12)
C32_37 C 0.88023(12) 0.49471(11) 0.80148(12)
H15_37 H 0.8655 0.4930 0.7982
C33_37 C 0.89340(15) 0.47777(14) 0.80217(13)
H16_37 H 0.8882 0.4643 0.7976
C34_37 C 0.91387(16) 0.47929(13) 0.80914(14)
C35_37 C 0.92262(14) 0.49883(16) 0.81454(19)
H17_37 H 0.9371 0.5003 0.8186
C36_37 C 0.90924(14) 0.51566(14) 0.81361(17)
H18_37 H 0.9142 0.5290 0.8187
C37_37 C 0.87530(10) 0.53326(10) 0.80312(11)
C38_37 C 0.93056(15) 0.46067(16) 0.8078(2)
C39_37 C 0.9459(2) 0.45784(19) 0.82153(17)
H19_37 H 0.9468 0.4671 0.8335
C10_38 C 0.44440(12) 0.36139(10) 0.51451(10)
C11_38 C 0.44852(12) 0.36977(12) 0.49471(11)
H4_38 H 0.4518 0.3845 0.4930
C12_38 C 0.44783(13) 0.35660(15) 0.47777(14)
H5_38 H 0.4524 0.3618 0.4643
C13_38 C 0.44086(14) 0.33613(16) 0.47929(13)
C14_38 C 0.43546(19) 0.32738(14) 0.49883(16)
H6_38 H 0.4314 0.3129 0.5003
C15_38 C 0.43639(17) 0.34076(14) 0.51566(14)
H7_38 H 0.4313 0.3358 0.5290
C16_38 C 0.44688(11) 0.37470(10) 0.53326(10)
C17_38 C 0.4422(2) 0.31944(15) 0.46067(16)
C18_38 C 0.42847(17) 0.3041(2) 0.45784(19)
H8_38 H 0.4165 0.3032 0.4671
O11_38 O 0.55089(7) 0.30262(8) 0.38365(6)
O12_38 O 0.53042(6) 0.30235(7) 0.35562(8)
C22_38 C 0.51451(10) 0.30560(12) 0.38861(10)
C23_38 C 0.49471(11) 0.30148(12) 0.38023(12)
H10_38 H 0.4930 0.2982 0.3655
C24_38 C 0.47777(14) 0.30217(13) 0.39340(15)
H11_38 H 0.4643 0.2976 0.3882
C25_38 C 0.47929(13) 0.30914(14) 0.41387(16)
C26_38 C 0.49883(16) 0.31454(19) 0.42262(14)
H12_38 H 0.5003 0.3186 0.4371
C27_38 C 0.51566(14) 0.31361(17) 0.40924(14)
H13_38 H 0.5290 0.3187 0.4142
C28_38 C 0.53326(10) 0.30312(11) 0.37530(10)
C29_38 C 0.46067(16) 0.3078(2) 0.43056(15)
C30_38 C 0.45784(19) 0.32153(17) 0.4459(2)
H14_38 H 0.4671 0.3335 0.4468
O13_38 O 0.38365(6) 0.19911(7) 0.44738(8)
O14_38 O 0.35562(8) 0.21958(6) 0.44765(7)
C31_38 C 0.38861(10) 0.23549(10) 0.44440(12)
C32_38 C 0.38023(12) 0.25529(11) 0.44852(12)
H15_38 H 0.3655 0.2570 0.4518
C33_38 C 0.39340(15) 0.27223(14) 0.44783(13)
H16_38 H 0.3882 0.2857 0.4524
C34_38 C 0.41387(16) 0.27071(13) 0.44086(14)
C35_38 C 0.42262(14) 0.25117(16) 0.43546(19)
H17_38 H 0.4371 0.2497 0.4314
C36_38 C 0.40924(14) 0.23434(14) 0.43639(17)
H18_38 H 0.4142 0.2210 0.4313
C37_38 C 0.37530(10) 0.21674(10) 0.44688(11)
C38_38 C 0.43056(15) 0.28933(16) 0.4422(2)
C39_38 C 0.4459(2) 0.29216(19) 0.42847(17)
H19_38 H 0.4468 0.2829 0.4165
C10_39 C 0.80560(12) 0.86139(10) 0.23549(10)
C11_39 C 0.80148(12) 0.86977(12) 0.25529(11)
H4_39 H 0.7982 0.8845 0.2570
C12_39 C 0.80217(13) 0.85660(15) 0.27223(14)
H5_39 H 0.7976 0.8618 0.2857
C13_39 C 0.80914(14) 0.83613(16) 0.27071(13)
C14_39 C 0.81454(19) 0.82738(14) 0.25117(16)
H6_39 H 0.8186 0.8129 0.2497
C15_39 C 0.81361(17) 0.84076(14) 0.23434(14)
H7_39 H 0.8187 0.8358 0.2210
C16_39 C 0.80312(11) 0.87470(10) 0.21674(10)
C17_39 C 0.8078(2) 0.81944(15) 0.28933(16)
C18_39 C 0.82153(17) 0.8041(2) 0.29216(19)
H8_39 H 0.8335 0.8032 0.2829
O11_39 O 0.69911(7) 0.80262(8) 0.36635(6)
O12_39 O 0.71958(6) 0.80235(7) 0.39438(8)
C22_39 C 0.73549(10) 0.80560(12) 0.36139(10)
C23_39 C 0.75529(11) 0.80148(12) 0.36977(12)
H10_39 H 0.7570 0.7982 0.3845
C24_39 C 0.77223(14) 0.80217(13) 0.35660(15)
H11_39 H 0.7857 0.7976 0.3618
C25_39 C 0.77071(13) 0.80914(14) 0.33613(16)
C26_39 C 0.75117(16) 0.81454(19) 0.32738(14)
H12_39 H 0.7497 0.8186 0.3129
C27_39 C 0.73434(14) 0.81361(17) 0.34076(14)
H13_39 H 0.7210 0.8187 0.3358
C28_39 C 0.71674(10) 0.80312(11) 0.37470(10)
C29_39 C 0.78933(16) 0.8078(2) 0.31944(15)
C30_39 C 0.79216(19) 0.82153(17) 0.3041(2)
H14_39 H 0.7829 0.8335 0.3032
O13_39 O 0.86635(6) 0.69911(7) 0.30262(8)
O14_39 O 0.89438(8) 0.71958(6) 0.30235(7)
C31_39 C 0.86139(10) 0.73549(10) 0.30560(12)
C32_39 C 0.86977(12) 0.75529(11) 0.30148(12)
H15_39 H 0.8845 0.7570 0.2982
C33_39 C 0.85660(15) 0.77223(14) 0.30217(13)
H16_39 H 0.8618 0.7857 0.2976
C34_39 C 0.83613(16) 0.77071(13) 0.30914(14)
C35_39 C 0.82738(14) 0.75117(16) 0.31454(19)
H17_39 H 0.8129 0.7497 0.3186
C36_39 C 0.84076(14) 0.73434(14) 0.31361(17)
H18_39 H 0.8358 0.7210 0.3187
C37_39 C 0.87470(10) 0.71674(10) 0.30312(11)
C38_39 C 0.81944(15) 0.78933(16) 0.3078(2)
C39_39 C 0.8041(2) 0.79216(19) 0.32153(17)
H19_39 H 0.8032 0.7829 0.3335
O13_40 O 0.36635(6) 0.05089(7) 0.94738(8)
O14_40 O 0.39438(8) 0.03042(6) 0.94765(7)
C31_40 C 0.36139(10) 0.01451(10) 0.94440(12)
H17_40 H 0.3129 0.0003 0.9314
C36_40 C 0.34076(14) 0.01566(14) 0.93639(17)
H18_40 H 0.3358 0.0290 0.9313
C37_40 C 0.37470(10) 0.03326(10) 0.94688(11)
C10_40 C 0.30560(12) 0.88861(10) 0.01451(10)
H6_40 H 0.3186 0.9371 0.0003
C15_40 C 0.31361(17) 0.90924(14) 0.01566(14)
H7_40 H 0.3187 0.9142 0.0290
C16_40 C 0.30312(11) 0.87530(10) 0.03326(10)
C11_40 C 0.30148(12) 0.88023(12) 0.99471(11)
H4_40 H 0.2982 0.8655 0.9930
C12_40 C 0.30217(13) 0.89340(15) 0.97777(14)
H5_40 H 0.2976 0.8882 0.9643
C13_40 C 0.30914(14) 0.91387(16) 0.97929(13)
C14_40 C 0.31454(19) 0.92262(14) 0.99883(16)
C17_40 C 0.3078(2) 0.93056(15) 0.96067(16)
C18_40 C 0.32153(17) 0.9459(2) 0.95784(19)
H8_40 H 0.3335 0.9468 0.9671
O11_40 O 0.19911(7) 0.94738(8) 0.88365(6)
O12_40 O 0.21958(6) 0.94765(7) 0.85562(8)
C22_40 C 0.23549(10) 0.94440(12) 0.88861(10)
C23_40 C 0.25529(11) 0.94852(12) 0.88023(12)
H10_40 H 0.2570 0.9518 0.8655
C24_40 C 0.27223(14) 0.94783(13) 0.89340(15)
H11_40 H 0.2857 0.9524 0.8882
C25_40 C 0.27071(13) 0.94086(14) 0.91387(16)
C26_40 C 0.25117(16) 0.93546(19) 0.92262(14)
H12_40 H 0.2497 0.9314 0.9371
C27_40 C 0.23434(14) 0.93639(17) 0.90924(14)
H13_40 H 0.2210 0.9313 0.9142
C28_40 C 0.21674(10) 0.94688(11) 0.87530(10)
C29_40 C 0.28933(16) 0.9422(2) 0.93056(15)
C30_40 C 0.29216(19) 0.92847(17) 0.9459(2)
H14_40 H 0.2829 0.9165 0.9468
C32_40 C 0.36977(12) 0.99471(11) 0.94852(12)
H15_40 H 0.3845 0.9930 0.9518
C33_40 C 0.35660(15) 0.97777(14) 0.94783(13)
H16_40 H 0.3618 0.9643 0.9524
C34_40 C 0.33613(16) 0.97929(13) 0.94086(14)
C35_40 C 0.32738(14) 0.99883(16) 0.93546(19)
C38_40 C 0.31944(15) 0.96067(16) 0.9422(2)
C39_40 C 0.3041(2) 0.95784(19) 0.92847(17)
H19_40 H 0.3032 0.9671 0.9165
O11_41 O 0.86635(6) 0.05089(7) 0.44738(8)
O12_41 O 0.89438(8) 0.03042(6) 0.44765(7)
C22_41 C 0.86139(10) 0.01451(10) 0.44440(12)
H12_41 H 0.8129 0.0003 0.4314
C27_41 C 0.84076(14) 0.01566(14) 0.43639(17)
H13_41 H 0.8358 0.0290 0.4313
C28_41 C 0.87470(10) 0.03326(10) 0.44688(11)
C10_41 C 0.73549(10) 0.94440(12) 0.38861(10)
C11_41 C 0.75529(11) 0.94852(12) 0.38023(12)
H4_41 H 0.7570 0.9518 0.3655
C12_41 C 0.77223(14) 0.94783(13) 0.39340(15)
H5_41 H 0.7857 0.9524 0.3882
C13_41 C 0.77071(13) 0.94086(14) 0.41387(16)
C14_41 C 0.75117(16) 0.93546(19) 0.42262(14)
H6_41 H 0.7497 0.9314 0.4371
C15_41 C 0.73434(14) 0.93639(17) 0.40924(14)
H7_41 H 0.7210 0.9313 0.4142
C16_41 C 0.71674(10) 0.94688(11) 0.37530(10)
C17_41 C 0.78933(16) 0.9422(2) 0.43056(15)
C18_41 C 0.79216(19) 0.92847(17) 0.4459(2)
H8_41 H 0.7829 0.9165 0.4468
C23_41 C 0.86977(12) 0.99471(11) 0.44852(12)
H10_41 H 0.8845 0.9930 0.4518
C24_41 C 0.85660(15) 0.97777(14) 0.44783(13)
H11_41 H 0.8618 0.9643 0.4524
C25_41 C 0.83613(16) 0.97929(13) 0.44086(14)
C26_41 C 0.82738(14) 0.99883(16) 0.43546(19)
C29_41 C 0.81944(15) 0.96067(16) 0.4422(2)
C30_41 C 0.8041(2) 0.95784(19) 0.42847(17)
H14_41 H 0.8032 0.9671 0.4165
O13_41 O 0.80262(8) 0.88365(6) 0.55089(7)
O14_41 O 0.80235(7) 0.85562(8) 0.53042(6)
C31_41 C 0.80560(12) 0.88861(10) 0.51451(10)
C32_41 C 0.80148(12) 0.88023(12) 0.49471(11)
H15_41 H 0.7982 0.8655 0.4930
C33_41 C 0.80217(13) 0.89340(15) 0.47777(14)
H16_41 H 0.7976 0.8882 0.4643
C34_41 C 0.80914(14) 0.91387(16) 0.47929(13)
C35_41 C 0.81454(19) 0.92262(14) 0.49883(16)
H17_41 H 0.8186 0.9371 0.5003
C36_41 C 0.81361(17) 0.90924(14) 0.51566(14)
H18_41 H 0.8187 0.9142 0.5290
C37_41 C 0.80312(11) 0.87530(10) 0.53326(10)
C38_41 C 0.8078(2) 0.93056(15) 0.46067(16)
C39_41 C 0.82153(17) 0.9459(2) 0.45784(19)
H19_41 H 0.8335 0.9468 0.4671
C10_42 C 0.51451(10) 0.44440(12) 0.36139(10)
C11_42 C 0.49471(11) 0.44852(12) 0.36977(12)
H4_42 H 0.4930 0.4518 0.3845
C12_42 C 0.47777(14) 0.44783(13) 0.35660(15)
H5_42 H 0.4643 0.4524 0.3618
C13_42 C 0.47929(13) 0.44086(14) 0.33613(16)
C14_42 C 0.49883(16) 0.43546(19) 0.32738(14)
H6_42 H 0.5003 0.4314 0.3129
C15_42 C 0.51566(14) 0.43639(17) 0.34076(14)
H7_42 H 0.5290 0.4313 0.3358
C16_42 C 0.53326(10) 0.44688(11) 0.37470(10)
C17_42 C 0.46067(16) 0.4422(2) 0.31944(15)
C18_42 C 0.45784(19) 0.42847(17) 0.3041(2)
H8_42 H 0.4671 0.4165 0.3032
O11_42 O 0.38365(6) 0.55089(7) 0.30262(8)
O12_42 O 0.35562(8) 0.53042(6) 0.30235(7)
C22_42 C 0.38861(10) 0.51451(10) 0.30560(12)
C23_42 C 0.38023(12) 0.49471(11) 0.30148(12)
H10_42 H 0.3655 0.4930 0.2982
C24_42 C 0.39340(15) 0.47777(14) 0.30217(13)
H11_42 H 0.3882 0.4643 0.2976
C25_42 C 0.41387(16) 0.47929(13) 0.30914(14)
C26_42 C 0.42262(14) 0.49883(16) 0.31454(19)
H12_42 H 0.4371 0.5003 0.3186
C27_42 C 0.40924(14) 0.51566(14) 0.31361(17)
H13_42 H 0.4142 0.5290 0.3187
C28_42 C 0.37530(10) 0.53326(10) 0.30312(11)
C29_42 C 0.43056(15) 0.46067(16) 0.3078(2)
C30_42 C 0.4459(2) 0.45784(19) 0.32153(17)
H14_42 H 0.4468 0.4671 0.3335
O13_42 O 0.44738(8) 0.38365(6) 0.19911(7)
O14_42 O 0.44765(7) 0.35562(8) 0.21958(6)
C31_42 C 0.44440(12) 0.38861(10) 0.23549(10)
C32_42 C 0.44852(12) 0.38023(12) 0.25529(11)
H15_42 H 0.4518 0.3655 0.2570
C33_42 C 0.44783(13) 0.39340(15) 0.27223(14)
H16_42 H 0.4524 0.3882 0.2857
C34_42 C 0.44086(14) 0.41387(16) 0.27071(13)
C35_42 C 0.43546(19) 0.42262(14) 0.25117(16)
H17_42 H 0.4314 0.4371 0.2497
C36_42 C 0.43639(17) 0.40924(14) 0.23434(14)
H18_42 H 0.4313 0.4142 0.2210
C37_42 C 0.44688(11) 0.37530(10) 0.21674(10)
C38_42 C 0.4422(2) 0.43056(15) 0.28933(16)
C39_42 C 0.42847(17) 0.4459(2) 0.29216(19)
H19_42 H 0.4165 0.4468 0.2829
C10_43 C 0.23549(10) 0.80560(12) 0.86139(10)
C11_43 C 0.25529(11) 0.80148(12) 0.86977(12)
H4_43 H 0.2570 0.7982 0.8845
C12_43 C 0.27223(14) 0.80217(13) 0.85660(15)
H5_43 H 0.2857 0.7976 0.8618
C13_43 C 0.27071(13) 0.80914(14) 0.83613(16)
C14_43 C 0.25117(16) 0.81454(19) 0.82738(14)
H6_43 H 0.2497 0.8186 0.8129
C15_43 C 0.23434(14) 0.81361(17) 0.84076(14)
H7_43 H 0.2210 0.8187 0.8358
C16_43 C 0.21674(10) 0.80312(11) 0.87470(10)
C17_43 C 0.28933(16) 0.8078(2) 0.81944(15)
C18_43 C 0.29216(19) 0.82153(17) 0.8041(2)
H8_43 H 0.2829 0.8335 0.8032
O11_43 O 0.36635(6) 0.69911(7) 0.80262(8)
O12_43 O 0.39438(8) 0.71958(6) 0.80235(7)
C22_43 C 0.36139(10) 0.73549(10) 0.80560(12)
C23_43 C 0.36977(12) 0.75529(11) 0.80148(12)
H10_43 H 0.3845 0.7570 0.7982
C24_43 C 0.35660(15) 0.77223(14) 0.80217(13)
H11_43 H 0.3618 0.7857 0.7976
C25_43 C 0.33613(16) 0.77071(13) 0.80914(14)
C26_43 C 0.32738(14) 0.75117(16) 0.81454(19)
H12_43 H 0.3129 0.7497 0.8186
C27_43 C 0.34076(14) 0.73434(14) 0.81361(17)
H13_43 H 0.3358 0.7210 0.8187
C28_43 C 0.37470(10) 0.71674(10) 0.80312(11)
C29_43 C 0.31944(15) 0.78933(16) 0.8078(2)
C30_43 C 0.3041(2) 0.79216(19) 0.82153(17)
H14_43 H 0.3032 0.7829 0.8335
O13_43 O 0.30262(8) 0.86635(6) 0.69911(7)
O14_43 O 0.30235(7) 0.89438(8) 0.71958(6)
C31_43 C 0.30560(12) 0.86139(10) 0.73549(10)
C32_43 C 0.30148(12) 0.86977(12) 0.75529(11)
H15_43 H 0.2982 0.8845 0.7570
C33_43 C 0.30217(13) 0.85660(15) 0.77223(14)
H16_43 H 0.2976 0.8618 0.7857
C34_43 C 0.30914(14) 0.83613(16) 0.77071(13)
C35_43 C 0.31454(19) 0.82738(14) 0.75117(16)
H17_43 H 0.3186 0.8129 0.7497
C36_43 C 0.31361(17) 0.84076(14) 0.73434(14)
H18_43 H 0.3187 0.8358 0.7210
C37_43 C 0.30312(11) 0.87470(10) 0.71674(10)
C38_43 C 0.3078(2) 0.81944(15) 0.78933(16)
C39_43 C 0.32153(17) 0.8041(2) 0.79216(19)
H19_43 H 0.3335 0.8032 0.7829
C10_44 C 0.01451(10) 0.30560(12) 0.88861(10)
H6_44 H 0.0003 0.3186 0.9371
C15_44 C 0.01566(14) 0.31361(17) 0.90924(14)
H7_44 H 0.0290 0.3187 0.9142
C16_44 C 0.03326(10) 0.30312(11) 0.87530(10)
O13_44 O 0.94738(8) 0.36635(6) 0.05089(7)
O14_44 O 0.94765(7) 0.39438(8) 0.03042(6)
C31_44 C 0.94440(12) 0.36139(10) 0.01451(10)
H17_44 H 0.9314 0.3129 0.0003
C36_44 C 0.93639(17) 0.34076(14) 0.01566(14)
H18_44 H 0.9313 0.3358 0.0290
C37_44 C 0.94688(11) 0.37470(10) 0.03326(10)
C11_44 C 0.99471(11) 0.30148(12) 0.88023(12)
H4_44 H 0.9930 0.2982 0.8655
C12_44 C 0.97777(14) 0.30217(13) 0.89340(15)
H5_44 H 0.9643 0.2976 0.8882
C13_44 C 0.97929(13) 0.30914(14) 0.91387(16)
C14_44 C 0.99883(16) 0.31454(19) 0.92262(14)
C17_44 C 0.96067(16) 0.3078(2) 0.93056(15)
C18_44 C 0.95784(19) 0.32153(17) 0.9459(2)
H8_44 H 0.9671 0.3335 0.9468
O11_44 O 0.88365(6) 0.19911(7) 0.94738(8)
O12_44 O 0.85562(8) 0.21958(6) 0.94765(7)
C22_44 C 0.88861(10) 0.23549(10) 0.94440(12)
C23_44 C 0.88023(12) 0.25529(11) 0.94852(12)
H10_44 H 0.8655 0.2570 0.9518
C24_44 C 0.89340(15) 0.27223(14) 0.94783(13)
H11_44 H 0.8882 0.2857 0.9524
C25_44 C 0.91387(16) 0.27071(13) 0.94086(14)
C26_44 C 0.92262(14) 0.25117(16) 0.93546(19)
H12_44 H 0.9371 0.2497 0.9314
C27_44 C 0.90924(14) 0.23434(14) 0.93639(17)
H13_44 H 0.9142 0.2210 0.9313
C28_44 C 0.87530(10) 0.21674(10) 0.94688(11)
C29_44 C 0.93056(15) 0.28933(16) 0.9422(2)
C30_44 C 0.9459(2) 0.29216(19) 0.92847(17)
H14_44 H 0.9468 0.2829 0.9165
C32_44 C 0.94852(12) 0.36977(12) 0.99471(11)
H15_44 H 0.9518 0.3845 0.9930
C33_44 C 0.94783(13) 0.35660(15) 0.97777(14)
H16_44 H 0.9524 0.3618 0.9643
C34_44 C 0.94086(14) 0.33613(16) 0.97929(13)
C35_44 C 0.93546(19) 0.32738(14) 0.99883(16)
C38_44 C 0.9422(2) 0.31944(15) 0.96067(16)
C39_44 C 0.92847(17) 0.3041(2) 0.95784(19)
H19_44 H 0.9165 0.3032 0.9671
C11_45 C 0.00529(11) 0.13023(12) 0.05148(12)
H4_45 H 0.0070 0.1155 0.0482
C12_45 C 0.02223(14) 0.14340(15) 0.05217(13)
H5_45 H 0.0357 0.1382 0.0476
C13_45 C 0.02071(13) 0.16387(16) 0.05914(14)
C14_45 C 0.00117(16) 0.17262(14) 0.06454(19)
C17_45 C 0.03933(16) 0.18056(15) 0.0578(2)
O10_37 O 0.00120(5) 0.08044(5) 0.02016(6)
C18_45 C 0.04216(19) 0.1959(2) 0.07153(17)
H8_45 H 0.0329 0.1968 0.0835
C19_37 C 0.01625(5) 0.04747(5) 0.03216(5)
C20_37 C 0.03172(5) 0.04750(5) 0.01662(5)
H9_37 H 0.0315 0.0583 0.0060
C23_45 C 0.11977(12) 0.19852(12) 0.00529(11)
H10_45 H 0.1345 0.2018 0.0070
C24_45 C 0.10660(15) 0.19783(13) 0.02223(14)
H11_45 H 0.1118 0.2024 0.0357
C25_45 C 0.08613(16) 0.19086(14) 0.02071(13)
C26_45 C 0.07738(14) 0.18546(19) 0.00117(16)
C29_45 C 0.06944(15) 0.1922(2) 0.03933(16)
C30_45 C 0.0541(2) 0.17847(17) 0.04216(19)
H14_45 H 0.0532 0.1665 0.0329
O13_45 O 0.05262(8) 0.30089(7) 0.11635(6)
O14_45 O 0.05235(7) 0.28042(6) 0.14438(8)
C31_45 C 0.05560(12) 0.26451(10) 0.11139(10)
C32_45 C 0.05148(12) 0.24471(11) 0.11977(12)
H15_45 H 0.0482 0.2430 0.1345
C33_45 C 0.05217(13) 0.22777(14) 0.10660(15)
H16_45 H 0.0476 0.2143 0.1118
C34_45 C 0.05914(14) 0.22929(13) 0.08613(16)
C35_45 C 0.06454(19) 0.24883(16) 0.07738(14)
H17_45 H 0.0686 0.2503 0.0629
C36_45 C 0.06361(17) 0.26566(14) 0.09076(14)
H18_45 H 0.0687 0.2790 0.0858
C37_45 C 0.05312(11) 0.28326(10) 0.12470(10)
C38_45 C 0.0578(2) 0.21067(16) 0.06944(15)
C39_45 C 0.07153(17) 0.20784(19) 0.0541(2)
H19_45 H 0.0835 0.2171 0.0532
O16_37 O 0.08044(5) 0.02016(6) 0.00120(5)
C40_37 C 0.04747(5) 0.03216(5) 0.01625(5)
C41_37 C 0.04750(5) 0.01662(5) 0.03172(5)
H20_37 H 0.0583 0.0060 0.0315
O18_37 O 0.02016(6) 0.00120(5) 0.08044(5)
C43_37 C 0.03216(5) 0.01625(5) 0.04747(5)
C44_37 C 0.01662(5) 0.03172(5) 0.04750(5)
H21_37 H 0.0060 0.0315 0.0583
O11_45 O 0.11635(6) 0.19738(8) 0.94911(7)
O12_45 O 0.14438(8) 0.19765(7) 0.96958(6)
C22_45 C 0.11139(10) 0.19440(12) 0.98549(10)
H12_45 H 0.0629 0.1814 0.9997
C27_45 C 0.09076(14) 0.18639(17) 0.98434(14)
H13_45 H 0.0858 0.1813 0.9710
C28_45 C 0.12470(10) 0.19688(11) 0.96674(10)
O15_37 O 0.05931(5) 0.04110(5) 0.98203(4)
C42_37 C 0.06363(6) 0.03047(7) 0.99821(7)
O19_37 O 0.08859(5) 0.00645(6) 0.95246(4)
O20_37 O 0.11316(7) 0.01486(7) 0.92874(8)
C52_37 C 0.10213(8) 0.00162(12) 0.93817(9)
O31_21 O 0.13896(7) 0.03947(8) 0.90109(6)
O40_13 O 0.13365(6) 0.05262(8) 0.94911(7)
O42_13 O 0.10562(8) 0.05235(7) 0.96958(6)
O17_37 O 0.04110(5) 0.98203(4) 0.05931(5)
C45_37 C 0.03047(7) 0.99821(7) 0.06363(6)
O25_37 O 0.00645(6) 0.95246(4) 0.08859(5)
O26_37 O 0.01486(7) 0.92874(8) 0.11316(7)
C61_37 C 0.00162(12) 0.93817(9) 0.10213(8)
O32_21 O 0.03947(8) 0.90109(6) 0.13896(7)
O41_17 O 0.05262(8) 0.94911(7) 0.13365(6)
O43_17 O 0.05235(7) 0.96958(6) 0.10562(8)
O21_21 O 0.15109(6) 0.96053(8) 0.88896(7)
O22_37 O 0.14396(8) 0.92820(10) 0.89292(9)
C46_37 C 0.10443(7) 0.97842(9) 0.93160(7)
C47_37 C 0.12084(8) 0.97326(10) 0.91733(7)
H22_37 H 0.1299 0.9840 0.9116
C48_37 C 0.12334(8) 0.95250(11) 0.91206(9)
C49_37 C 0.11106(7) 0.93655(10) 0.92121(7)
H23_37 H 0.1136 0.9220 0.9180
C50_37 C 0.09442(6) 0.94246(9) 0.93565(7)
C51_37 C 0.09150(6) 0.96384(9) 0.93991(7)
H24_37 H 0.0801 0.9682 0.9489
C53_37 C 0.14060(10) 0.94619(13) 0.89701(10)
C54_37 C 0.08031(7) 0.92607(10) 0.94443(8)
O1_37 O 0.95246(4) 0.08859(5) 0.00645(6)
O2_37 O 0.92874(8) 0.11316(7) 0.01486(7)
C7_37 C 0.93817(9) 0.10213(8) 0.00162(12)
O7_17 O 0.94911(7) 0.13365(6) 0.05262(8)
O8_17 O 0.96958(6) 0.10562(8) 0.05235(7)
C10_45 C 0.98549(10) 0.13861(10) 0.05560(12)
H6_45 H 0.9997 0.1871 0.0686
C15_45 C 0.98434(14) 0.15924(14) 0.06361(17)
H7_45 H 0.9710 0.1642 0.0687
C16_45 C 0.96674(10) 0.12530(10) 0.05312(11)
O9_37 O 0.98203(4) 0.05931(5) 0.04110(5)
C21_37 C 0.99821(7) 0.06363(6) 0.03047(7)
O33_21 O 0.90109(6) 0.13896(7) 0.03947(8)
O3_21 O 0.88896(7) 0.15109(6) 0.96053(8)
O4_37 O 0.89292(9) 0.14396(8) 0.92820(10)
C1_37 C 0.93160(7) 0.10443(7) 0.97842(9)
C2_37 C 0.91733(7) 0.12084(8) 0.97326(10)
H1_37 H 0.9116 0.1299 0.9840
C3_37 C 0.91206(9) 0.12334(8) 0.95250(11)
C4_37 C 0.92121(7) 0.11106(7) 0.93655(10)
H2_37 H 0.9180 0.1136 0.9220
C5_37 C 0.93565(7) 0.09442(6) 0.94246(9)
C6_37 C 0.93991(7) 0.09150(6) 0.96384(9)
H3_37 H 0.9489 0.0801 0.9682
C8_37 C 0.89701(10) 0.14060(10) 0.94619(13)
C9_37 C 0.94443(8) 0.08031(7) 0.92607(10)
O27_21 O 0.96053(8) 0.88896(7) 0.15109(6)
O28_37 O 0.92820(10) 0.89292(9) 0.14396(8)
C55_37 C 0.97842(9) 0.93160(7) 0.10443(7)
C56_37 C 0.97326(10) 0.91733(7) 0.12084(8)
H25_37 H 0.9840 0.9116 0.1299
C57_37 C 0.95250(11) 0.91206(9) 0.12334(8)
C58_37 C 0.93655(10) 0.92121(7) 0.11106(7)
H26_37 H 0.9220 0.9180 0.1136
C59_37 C 0.94246(9) 0.93565(7) 0.09442(6)
C60_37 C 0.96384(9) 0.93991(7) 0.09150(6)
H27_37 H 0.9682 0.9489 0.0801
C62_37 C 0.94619(13) 0.89701(10) 0.14060(10)
C63_37 C 0.92607(10) 0.94443(8) 0.08031(7)
O1_38 O 0.79754(4) 0.16141(5) 0.50645(6)
O2_38 O 0.82126(8) 0.13684(7) 0.51486(7)
O3_22 O 0.86104(7) 0.09891(6) 0.46053(8)
O4_38 O 0.85708(9) 0.10604(8) 0.42820(10)
C1_38 C 0.81840(7) 0.14557(7) 0.47842(9)
C2_38 C 0.83267(7) 0.12916(8) 0.47326(10)
H1_38 H 0.8384 0.1201 0.4840
C3_38 C 0.83794(9) 0.12666(8) 0.45250(11)
C4_38 C 0.82879(7) 0.13894(7) 0.43655(10)
H2_38 H 0.8320 0.1364 0.4220
C5_38 C 0.81435(7) 0.15558(6) 0.44246(9)
C6_38 C 0.81009(7) 0.15850(6) 0.46384(9)
H3_38 H 0.8011 0.1699 0.4682
C7_38 C 0.81183(9) 0.14787(8) 0.50162(12)
C8_38 C 0.85299(10) 0.10940(10) 0.44619(13)
C9_38 C 0.80557(8) 0.16969(7) 0.42607(10)
O7_18 O 0.80089(7) 0.11635(6) 0.55262(8)
O8_18 O 0.78042(6) 0.14438(8) 0.55235(7)
C10_46 C 0.76451(10) 0.11139(10) 0.55560(12)
C11_46 C 0.74471(11) 0.11977(12) 0.55148(12)
H4_46 H 0.7430 0.1345 0.5482
C12_46 C 0.72777(14) 0.10660(15) 0.55217(13)
H5_46 H 0.7143 0.1118 0.5476
C13_46 C 0.72929(13) 0.08613(16) 0.55914(14)
C14_46 C 0.74883(16) 0.07738(14) 0.56454(19)
H6_46 H 0.7503 0.0629 0.5686
C15_46 C 0.76566(14) 0.09076(14) 0.56361(17)
H7_46 H 0.7790 0.0858 0.5687
C16_46 C 0.78326(10) 0.12470(10) 0.55312(11)
C17_46 C 0.71067(16) 0.06944(15) 0.5578(2)
O9_38 O 0.76797(4) 0.19069(5) 0.54110(5)
O10_38 O 0.74880(5) 0.16956(5) 0.52016(6)
C18_46 C 0.70784(19) 0.0541(2) 0.57153(17)
H8_46 H 0.7171 0.0532 0.5835
C19_38 C 0.73375(5) 0.20253(5) 0.53216(5)
C20_38 C 0.71828(5) 0.20250(5) 0.51662(5)
H9_38 H 0.7185 0.1917 0.5060
C21_38 C 0.75179(7) 0.18637(6) 0.53047(7)
O11_46 O 0.63365(6) 0.05262(8) 0.44911(7)
O12_46 O 0.60562(8) 0.05235(7) 0.46958(6)
C22_46 C 0.63861(10) 0.05560(12) 0.48549(10)
C23_46 C 0.63023(12) 0.05148(12) 0.50529(11)
H10_46 H 0.6155 0.0482 0.5070
C24_46 C 0.64340(15) 0.05217(13) 0.52223(14)
H11_46 H 0.6382 0.0476 0.5357
C25_46 C 0.66387(16) 0.05914(14) 0.52071(13)
C26_46 C 0.67262(14) 0.06454(19) 0.50117(16)
H12_46 H 0.6871 0.0686 0.4997
C27_46 C 0.65924(14) 0.06361(17) 0.48434(14)
H13_46 H 0.6642 0.0687 0.4710
C28_46 C 0.62530(10) 0.05312(11) 0.46674(10)
C29_46 C 0.68056(15) 0.0578(2) 0.53933(16)
C30_46 C 0.6959(2) 0.07153(17) 0.54216(19)
H14_46 H 0.6968 0.0835 0.5329
C32_46 C 0.69852(12) 0.00529(11) 0.61977(12)
H15_46 H 0.7018 0.0070 0.6345
C33_46 C 0.69783(13) 0.02223(14) 0.60660(15)
H16_46 H 0.7024 0.0357 0.6118
C34_46 C 0.69086(14) 0.02071(13) 0.58613(16)
C35_46 C 0.68546(19) 0.00117(16) 0.57738(14)
C38_46 C 0.6922(2) 0.03933(16) 0.56944(15)
C39_46 C 0.67847(17) 0.04216(19) 0.5541(2)
H19_46 H 0.6665 0.0329 0.5532
O15_38 O 0.69069(5) 0.20890(5) 0.48203(4)
O16_38 O 0.66956(5) 0.22984(6) 0.50120(5)
C40_38 C 0.70253(5) 0.21784(5) 0.51625(5)
C41_38 C 0.70250(5) 0.23338(5) 0.53172(5)
H20_38 H 0.6917 0.2440 0.5315
C42_38 C 0.68637(6) 0.21953(7) 0.49821(7)
O17_38 O 0.70890(5) 0.26797(4) 0.55931(5)
O18_38 O 0.72984(6) 0.24880(5) 0.58044(5)
C43_38 C 0.71784(5) 0.23375(5) 0.54747(5)
C44_38 C 0.73338(5) 0.21828(5) 0.54750(5)
H21_38 H 0.7440 0.2185 0.5583
C45_38 C 0.71953(7) 0.25179(7) 0.56363(6)
O19_38 O 0.66141(5) 0.24355(6) 0.45246(4)
O20_38 O 0.63684(7) 0.23514(7) 0.42874(8)
O21_22 O 0.59891(6) 0.28947(8) 0.38896(7)
O22_38 O 0.60604(8) 0.32180(10) 0.39292(9)
C46_38 C 0.64557(7) 0.27158(9) 0.43160(7)
C47_38 C 0.62916(8) 0.27674(10) 0.41733(7)
H22_38 H 0.6201 0.2660 0.4116
C48_38 C 0.62666(8) 0.29750(11) 0.41206(9)
C49_38 C 0.63894(7) 0.31345(10) 0.42121(7)
H23_38 H 0.6364 0.3280 0.4180
C50_38 C 0.65558(6) 0.30754(9) 0.43565(7)
C51_38 C 0.65850(6) 0.28616(9) 0.43991(7)
H24_38 H 0.6699 0.2818 0.4489
C52_38 C 0.64787(8) 0.24838(12) 0.43817(9)
C53_38 C 0.60940(10) 0.30381(13) 0.39701(10)
C54_38 C 0.66969(7) 0.32393(10) 0.44443(8)
O25_38 O 0.74355(6) 0.29754(4) 0.58859(5)
O26_38 O 0.73514(7) 0.32126(8) 0.61316(7)
O27_22 O 0.78947(8) 0.36104(7) 0.65109(6)
O28_38 O 0.82180(10) 0.35708(9) 0.64396(8)
C55_38 C 0.77158(9) 0.31840(7) 0.60443(7)
C56_38 C 0.77674(10) 0.33267(7) 0.62084(8)
H25_38 H 0.7660 0.3384 0.6299
C57_38 C 0.79750(11) 0.33794(9) 0.62334(8)
C58_38 C 0.81345(10) 0.32879(7) 0.61106(7)
H26_38 H 0.8280 0.3320 0.6136
C59_38 C 0.80754(9) 0.31435(7) 0.59442(6)
C60_38 C 0.78616(9) 0.31009(7) 0.59150(6)
H27_38 H 0.7818 0.3011 0.5801
C61_38 C 0.74838(12) 0.31183(9) 0.60213(8)
C62_38 C 0.80381(13) 0.35299(10) 0.64060(10)
C63_38 C 0.82393(10) 0.30557(8) 0.58031(7)
O31_22 O 0.61104(7) 0.21053(8) 0.40109(6)
O32_22 O 0.71053(8) 0.34891(6) 0.63896(7)
O33_22 O 0.84891(6) 0.11104(7) 0.53947(8)
O40_14 O 0.61635(6) 0.19738(8) 0.44911(7)
O41_18 O 0.69738(8) 0.30089(7) 0.63365(6)
O42_14 O 0.64438(8) 0.19765(7) 0.46958(6)
O43_18 O 0.69765(7) 0.28042(6) 0.60562(8)
O13_46 O 0.69738(8) 0.94911(7) 0.61635(6)
O14_46 O 0.69765(7) 0.96958(6) 0.64438(8)
C31_46 C 0.69440(12) 0.98549(10) 0.61139(10)
H17_46 H 0.6814 0.9997 0.5629
C36_46 C 0.68639(17) 0.98434(14) 0.59076(14)
H18_46 H 0.6813 0.9710 0.5858
C37_46 C 0.69688(11) 0.96674(10) 0.62470(10)
O1_39 O 0.45246(4) 0.66141(5) 0.24355(6)
O2_39 O 0.42874(8) 0.63684(7) 0.23514(7)
O3_23 O 0.38896(7) 0.59891(6) 0.28947(8)
O4_39 O 0.39292(9) 0.60604(8) 0.32180(10)
C1_39 C 0.43160(7) 0.64557(7) 0.27158(9)
C2_39 C 0.41733(7) 0.62916(8) 0.27674(10)
H1_39 H 0.4116 0.6201 0.2660
C3_39 C 0.41206(9) 0.62666(8) 0.29750(11)
C4_39 C 0.42121(7) 0.63894(7) 0.31345(10)
H2_39 H 0.4180 0.6364 0.3280
C5_39 C 0.43565(7) 0.65558(6) 0.30754(9)
C6_39 C 0.43991(7) 0.65850(6) 0.28616(9)
H3_39 H 0.4489 0.6699 0.2818
C7_39 C 0.43817(9) 0.64787(8) 0.24838(12)
C8_39 C 0.39701(10) 0.60940(10) 0.30381(13)
C9_39 C 0.44443(8) 0.66969(7) 0.32393(10)
O7_19 O 0.44911(7) 0.61635(6) 0.19738(8)
O8_19 O 0.46958(6) 0.64438(8) 0.19765(7)
C10_47 C 0.48549(10) 0.61139(10) 0.19440(12)
C11_47 C 0.50529(11) 0.61977(12) 0.19852(12)
H4_47 H 0.5070 0.6345 0.2018
C12_47 C 0.52223(14) 0.60660(15) 0.19783(13)
H5_47 H 0.5357 0.6118 0.2024
C13_47 C 0.52071(13) 0.58613(16) 0.19086(14)
C14_47 C 0.50117(16) 0.57738(14) 0.18546(19)
H6_47 H 0.4997 0.5629 0.1814
C15_47 C 0.48434(14) 0.59076(14) 0.18639(17)
H7_47 H 0.4710 0.5858 0.1813
C16_47 C 0.46674(10) 0.62470(10) 0.19688(11)
C17_47 C 0.53933(16) 0.56944(15) 0.1922(2)
O9_39 O 0.48203(4) 0.69069(5) 0.20890(5)
O10_39 O 0.50120(5) 0.66956(5) 0.22984(6)
C18_47 C 0.54216(19) 0.5541(2) 0.17847(17)
H8_47 H 0.5329 0.5532 0.1665
C19_39 C 0.51625(5) 0.70253(5) 0.21784(5)
C20_39 C 0.53172(5) 0.70250(5) 0.23338(5)
H9_39 H 0.5315 0.6917 0.2440
C21_39 C 0.49821(7) 0.68637(6) 0.21953(7)
O11_47 O 0.61635(6) 0.55262(8) 0.30089(7)
O12_47 O 0.64438(8) 0.55235(7) 0.28042(6)
C22_47 C 0.61139(10) 0.55560(12) 0.26451(10)
C23_47 C 0.61977(12) 0.55148(12) 0.24471(11)
H10_47 H 0.6345 0.5482 0.2430
C24_47 C 0.60660(15) 0.55217(13) 0.22777(14)
H11_47 H 0.6118 0.5476 0.2143
C25_47 C 0.58613(16) 0.55914(14) 0.22929(13)
C26_47 C 0.57738(14) 0.56454(19) 0.24883(16)
H12_47 H 0.5629 0.5686 0.2503
C27_47 C 0.59076(14) 0.56361(17) 0.26566(14)
H13_47 H 0.5858 0.5687 0.2790
C28_47 C 0.62470(10) 0.55312(11) 0.28326(10)
C29_47 C 0.56944(15) 0.5578(2) 0.21067(16)
C30_47 C 0.5541(2) 0.57153(17) 0.20784(19)
H14_47 H 0.5532 0.5835 0.2171
O13_47 O 0.55262(8) 0.44911(7) 0.13365(6)
O14_47 O 0.55235(7) 0.46958(6) 0.10562(8)
C31_47 C 0.55560(12) 0.48549(10) 0.13861(10)
C32_47 C 0.55148(12) 0.50529(11) 0.13023(12)
H15_47 H 0.5482 0.5070 0.1155
C33_47 C 0.55217(13) 0.52223(14) 0.14340(15)
H16_47 H 0.5476 0.5357 0.1382
C34_47 C 0.55914(14) 0.52071(13) 0.16387(16)
C35_47 C 0.56454(19) 0.50117(16) 0.17262(14)
H17_47 H 0.5686 0.4997 0.1871
C36_47 C 0.56361(17) 0.48434(14) 0.15924(14)
H18_47 H 0.5687 0.4710 0.1642
C37_47 C 0.55312(11) 0.46674(10) 0.12530(10)
C38_47 C 0.5578(2) 0.53933(16) 0.18056(15)
C39_47 C 0.57153(17) 0.54216(19) 0.1959(2)
H19_47 H 0.5835 0.5329 0.1968
O15_39 O 0.55931(5) 0.70890(5) 0.26797(4)
O16_39 O 0.58044(5) 0.72984(6) 0.24880(5)
C40_39 C 0.54747(5) 0.71784(5) 0.23375(5)
C41_39 C 0.54750(5) 0.73338(5) 0.21828(5)
H20_39 H 0.5583 0.7440 0.2185
C42_39 C 0.56363(6) 0.71953(7) 0.25179(7)
O17_39 O 0.54110(5) 0.76797(4) 0.19069(5)
O18_39 O 0.52016(6) 0.74880(5) 0.16956(5)
C43_39 C 0.53216(5) 0.73375(5) 0.20253(5)
C44_39 C 0.51662(5) 0.71828(5) 0.20250(5)
H21_39 H 0.5060 0.7185 0.1917
C45_39 C 0.53047(7) 0.75179(7) 0.18637(6)
O19_39 O 0.58859(5) 0.74355(6) 0.29754(4)
O20_39 O 0.61316(7) 0.73514(7) 0.32126(8)
O21_23 O 0.65109(6) 0.78947(8) 0.36104(7)
O22_39 O 0.64396(8) 0.82180(10) 0.35708(9)
C46_39 C 0.60443(7) 0.77158(9) 0.31840(7)
C47_39 C 0.62084(8) 0.77674(10) 0.33267(7)
H22_39 H 0.6299 0.7660 0.3384
C48_39 C 0.62334(8) 0.79750(11) 0.33794(9)
C49_39 C 0.61106(7) 0.81345(10) 0.32879(7)
H23_39 H 0.6136 0.8280 0.3320
C50_39 C 0.59442(6) 0.80754(9) 0.31435(7)
C51_39 C 0.59150(6) 0.78616(9) 0.31009(7)
H24_39 H 0.5801 0.7818 0.3011
C52_39 C 0.60213(8) 0.74838(12) 0.31183(9)
C53_39 C 0.64060(10) 0.80381(13) 0.35299(10)
C54_39 C 0.58031(7) 0.82393(10) 0.30557(8)
O25_39 O 0.50645(6) 0.79754(4) 0.16141(5)
O26_39 O 0.51486(7) 0.82126(8) 0.13684(7)
O27_23 O 0.46053(8) 0.86104(7) 0.09891(6)
O28_39 O 0.42820(10) 0.85708(9) 0.10604(8)
C55_39 C 0.47842(9) 0.81840(7) 0.14557(7)
C56_39 C 0.47326(10) 0.83267(7) 0.12916(8)
H25_39 H 0.4840 0.8384 0.1201
C57_39 C 0.45250(11) 0.83794(9) 0.12666(8)
C58_39 C 0.43655(10) 0.82879(7) 0.13894(7)
H26_39 H 0.4220 0.8320 0.1364
C59_39 C 0.44246(9) 0.81435(7) 0.15558(6)
C60_39 C 0.46384(9) 0.81009(7) 0.15850(6)
H27_39 H 0.4682 0.8011 0.1699
C61_39 C 0.50162(12) 0.81183(9) 0.14787(8)
C62_39 C 0.44619(13) 0.85299(10) 0.10940(10)
C63_39 C 0.42607(10) 0.80557(8) 0.16969(7)
O31_23 O 0.63896(7) 0.71053(8) 0.34891(6)
O32_23 O 0.53947(8) 0.84891(6) 0.11104(7)
O33_23 O 0.40109(6) 0.61104(7) 0.21053(8)
O40_15 O 0.63365(6) 0.69738(8) 0.30089(7)
O41_19 O 0.55262(8) 0.80089(7) 0.11635(6)
O42_15 O 0.60562(8) 0.69765(7) 0.28042(6)
O43_19 O 0.55235(7) 0.78042(6) 0.14438(8)
O1_40 O 0.29754(4) 0.58859(5) 0.74355(6)
O2_40 O 0.32126(8) 0.61316(7) 0.73514(7)
O3_24 O 0.36104(7) 0.65109(6) 0.78947(8)
O4_40 O 0.35708(9) 0.64396(8) 0.82180(10)
C1_40 C 0.31840(7) 0.60443(7) 0.77158(9)
C2_40 C 0.33267(7) 0.62084(8) 0.77674(10)
H1_40 H 0.3384 0.6299 0.7660
C3_40 C 0.33794(9) 0.62334(8) 0.79750(11)
C4_40 C 0.32879(7) 0.61106(7) 0.81345(10)
H2_40 H 0.3320 0.6136 0.8280
C5_40 C 0.31435(7) 0.59442(6) 0.80754(9)
C6_40 C 0.31009(7) 0.59150(6) 0.78616(9)
H3_40 H 0.3011 0.5801 0.7818
C7_40 C 0.31183(9) 0.60213(8) 0.74838(12)
C8_40 C 0.35299(10) 0.64060(10) 0.80381(13)
C9_40 C 0.30557(8) 0.58031(7) 0.82393(10)
O7_20 O 0.30089(7) 0.63365(6) 0.69738(8)
O8_20 O 0.28042(6) 0.60562(8) 0.69765(7)
C10_48 C 0.26451(10) 0.63861(10) 0.69440(12)
C11_48 C 0.24471(11) 0.63023(12) 0.69852(12)
H4_48 H 0.2430 0.6155 0.7018
C12_48 C 0.22777(14) 0.64340(15) 0.69783(13)
H5_48 H 0.2143 0.6382 0.7024
C13_48 C 0.22929(13) 0.66387(16) 0.69086(14)
C14_48 C 0.24883(16) 0.67262(14) 0.68546(19)
H6_48 H 0.2503 0.6871 0.6814
C15_48 C 0.26566(14) 0.65924(14) 0.68639(17)
H7_48 H 0.2790 0.6642 0.6813
C16_48 C 0.28326(10) 0.62530(10) 0.69688(11)
C17_48 C 0.21067(16) 0.68056(15) 0.6922(2)
O9_40 O 0.26797(4) 0.55931(5) 0.70890(5)
O10_40 O 0.24880(5) 0.58044(5) 0.72984(6)
C18_48 C 0.20784(19) 0.6959(2) 0.67847(17)
H8_48 H 0.2171 0.6968 0.6665
C19_40 C 0.23375(5) 0.54747(5) 0.71784(5)
C20_40 C 0.21828(5) 0.54750(5) 0.73338(5)
H9_40 H 0.2185 0.5583 0.7440
C21_40 C 0.25179(7) 0.56363(6) 0.71953(7)
O11_48 O 0.13365(6) 0.69738(8) 0.80089(7)
O12_48 O 0.10562(8) 0.69765(7) 0.78042(6)
C22_48 C 0.13861(10) 0.69440(12) 0.76451(10)
C23_48 C 0.13023(12) 0.69852(12) 0.74471(11)
H10_48 H 0.1155 0.7018 0.7430
C24_48 C 0.14340(15) 0.69783(13) 0.72777(14)
H11_48 H 0.1382 0.7024 0.7143
C25_48 C 0.16387(16) 0.69086(14) 0.72929(13)
C26_48 C 0.17262(14) 0.68546(19) 0.74883(16)
H12_48 H 0.1871 0.6814 0.7503
C27_48 C 0.15924(14) 0.68639(17) 0.76566(14)
H13_48 H 0.1642 0.6813 0.7790
C28_48 C 0.12530(10) 0.69688(11) 0.78326(10)
C29_48 C 0.18056(15) 0.6922(2) 0.71067(16)
C30_48 C 0.1959(2) 0.67847(17) 0.70784(19)
H14_48 H 0.1968 0.6665 0.7171
O13_48 O 0.19738(8) 0.80089(7) 0.63365(6)
O14_48 O 0.19765(7) 0.78042(6) 0.60562(8)
C31_48 C 0.19440(12) 0.76451(10) 0.63861(10)
C32_48 C 0.19852(12) 0.74471(11) 0.63023(12)
H15_48 H 0.2018 0.7430 0.6155
C33_48 C 0.19783(13) 0.72777(14) 0.64340(15)
H16_48 H 0.2024 0.7143 0.6382
C34_48 C 0.19086(14) 0.72929(13) 0.66387(16)
C35_48 C 0.18546(19) 0.74883(16) 0.67262(14)
H17_48 H 0.1814 0.7503 0.6871
C36_48 C 0.18639(17) 0.76566(14) 0.65924(14)
H18_48 H 0.1813 0.7790 0.6642
C37_48 C 0.19688(11) 0.78326(10) 0.62530(10)
C38_48 C 0.1922(2) 0.71067(16) 0.68056(15)
C39_48 C 0.17847(17) 0.70784(19) 0.6959(2)
H19_48 H 0.1665 0.7171 0.6968
O15_40 O 0.19069(5) 0.54110(5) 0.76797(4)
O16_40 O 0.16956(5) 0.52016(6) 0.74880(5)
C40_40 C 0.20253(5) 0.53216(5) 0.73375(5)
C41_40 C 0.20250(5) 0.51662(5) 0.71828(5)
H20_40 H 0.1917 0.5060 0.7185
C42_40 C 0.18637(6) 0.53047(7) 0.75179(7)
O17_40 O 0.20890(5) 0.48203(4) 0.69069(5)
O18_40 O 0.22984(6) 0.50120(5) 0.66956(5)
C43_40 C 0.21784(5) 0.51625(5) 0.70253(5)
C44_40 C 0.23338(5) 0.53172(5) 0.70250(5)
H21_40 H 0.2440 0.5315 0.6917
C45_40 C 0.21953(7) 0.49821(7) 0.68637(6)
O19_40 O 0.16141(5) 0.50645(6) 0.79754(4)
O20_40 O 0.13684(7) 0.51486(7) 0.82126(8)
O21_24 O 0.09891(6) 0.46053(8) 0.86104(7)
O22_40 O 0.10604(8) 0.42820(10) 0.85708(9)
C46_40 C 0.14557(7) 0.47842(9) 0.81840(7)
C47_40 C 0.12916(8) 0.47326(10) 0.83267(7)
H22_40 H 0.1201 0.4840 0.8384
C48_40 C 0.12666(8) 0.45250(11) 0.83794(9)
C49_40 C 0.13894(7) 0.43655(10) 0.82879(7)
H23_40 H 0.1364 0.4220 0.8320
C50_40 C 0.15558(6) 0.44246(9) 0.81435(7)
C51_40 C 0.15850(6) 0.46384(9) 0.81009(7)
H24_40 H 0.1699 0.4682 0.8011
C52_40 C 0.14787(8) 0.50162(12) 0.81183(9)
C53_40 C 0.10940(10) 0.44619(13) 0.85299(10)
C54_40 C 0.16969(7) 0.42607(10) 0.80557(8)
O25_40 O 0.24355(6) 0.45246(4) 0.66141(5)
O26_40 O 0.23514(7) 0.42874(8) 0.63684(7)
O27_24 O 0.28947(8) 0.38896(7) 0.59891(6)
O28_40 O 0.32180(10) 0.39292(9) 0.60604(8)
C55_40 C 0.27158(9) 0.43160(7) 0.64557(7)
C56_40 C 0.27674(10) 0.41733(7) 0.62916(8)
H25_40 H 0.2660 0.4116 0.6201
C57_40 C 0.29750(11) 0.41206(9) 0.62666(8)
C58_40 C 0.31345(10) 0.42121(7) 0.63894(7)
H26_40 H 0.3280 0.4180 0.6364
C59_40 C 0.30754(9) 0.43565(7) 0.65558(6)
C60_40 C 0.28616(9) 0.43991(7) 0.65850(6)
H27_40 H 0.2818 0.4489 0.6699
C61_40 C 0.24838(12) 0.43817(9) 0.64787(8)
C62_40 C 0.30381(13) 0.39701(10) 0.60940(10)
C63_40 C 0.32393(10) 0.44443(8) 0.66969(7)
O31_24 O 0.11104(7) 0.53947(8) 0.84891(6)
O32_24 O 0.21053(8) 0.40109(6) 0.61104(7)
O33_24 O 0.34891(6) 0.63896(7) 0.71053(8)
O40_16 O 0.11635(6) 0.55262(8) 0.80089(7)
O41_20 O 0.19738(8) 0.44911(7) 0.61635(6)
O42_16 O 0.14438(8) 0.55235(7) 0.78042(6)
O43_20 O 0.19765(7) 0.46958(6) 0.64438(8)
C10_49 C 0.63861(10) 0.69440(12) 0.26451(10)
C11_49 C 0.63023(12) 0.69852(12) 0.24471(11)
H4_49 H 0.6155 0.7018 0.2430
C12_49 C 0.64340(15) 0.69783(13) 0.22777(14)
H5_49 H 0.6382 0.7024 0.2143
C13_49 C 0.66387(16) 0.69086(14) 0.22929(13)
C14_49 C 0.67262(14) 0.68546(19) 0.24883(16)
H6_49 H 0.6871 0.6814 0.2503
C15_49 C 0.65924(14) 0.68639(17) 0.26566(14)
H7_49 H 0.6642 0.6813 0.2790
C16_49 C 0.62530(10) 0.69688(11) 0.28326(10)
C17_49 C 0.68056(15) 0.6922(2) 0.21067(16)
C18_49 C 0.6959(2) 0.67847(17) 0.20784(19)
H8_49 H 0.6968 0.6665 0.2171
O11_49 O 0.69738(8) 0.80089(7) 0.13365(6)
O12_49 O 0.69765(7) 0.78042(6) 0.10562(8)
C22_49 C 0.69440(12) 0.76451(10) 0.13861(10)
C23_49 C 0.69852(12) 0.74471(11) 0.13023(12)
H10_49 H 0.7018 0.7430 0.1155
C24_49 C 0.69783(13) 0.72777(14) 0.14340(15)
H11_49 H 0.7024 0.7143 0.1382
C25_49 C 0.69086(14) 0.72929(13) 0.16387(16)
C26_49 C 0.68546(19) 0.74883(16) 0.17262(14)
H12_49 H 0.6814 0.7503 0.1871
C27_49 C 0.68639(17) 0.76566(14) 0.15924(14)
H13_49 H 0.6813 0.7790 0.1642
C28_49 C 0.69688(11) 0.78326(10) 0.12530(10)
C29_49 C 0.6922(2) 0.71067(16) 0.18056(15)
C30_49 C 0.67847(17) 0.70784(19) 0.1959(2)
H14_49 H 0.6665 0.7171 0.1968
O13_49 O 0.80089(7) 0.63365(6) 0.19738(8)
O14_49 O 0.78042(6) 0.60562(8) 0.19765(7)
C31_49 C 0.76451(10) 0.63861(10) 0.19440(12)
C32_49 C 0.74471(11) 0.63023(12) 0.19852(12)
H15_49 H 0.7430 0.6155 0.2018
C33_49 C 0.72777(14) 0.64340(15) 0.19783(13)
H16_49 H 0.7143 0.6382 0.2024
C34_49 C 0.72929(13) 0.66387(16) 0.19086(14)
C35_49 C 0.74883(16) 0.67262(14) 0.18546(19)
H17_49 H 0.7503 0.6871 0.1814
C36_49 C 0.76566(14) 0.65924(14) 0.18639(17)
H18_49 H 0.7790 0.6642 0.1813
C37_49 C 0.78326(10) 0.62530(10) 0.19688(11)
C38_49 C 0.71067(16) 0.68056(15) 0.1922(2)
C39_49 C 0.70784(19) 0.6959(2) 0.17847(17)
H19_49 H 0.7171 0.6968 0.1665
C10_50 C 0.61139(10) 0.19440(12) 0.48549(10)
C11_50 C 0.61977(12) 0.19852(12) 0.50529(11)
H4_50 H 0.6345 0.2018 0.5070
C12_50 C 0.60660(15) 0.19783(13) 0.52223(14)
H5_50 H 0.6118 0.2024 0.5357
C13_50 C 0.58613(16) 0.19086(14) 0.52071(13)
C14_50 C 0.57738(14) 0.18546(19) 0.50117(16)
H6_50 H 0.5629 0.1814 0.4997
C15_50 C 0.59076(14) 0.18639(17) 0.48434(14)
H7_50 H 0.5858 0.1813 0.4710
C16_50 C 0.62470(10) 0.19688(11) 0.46674(10)
C17_50 C 0.56944(15) 0.1922(2) 0.53933(16)
C18_50 C 0.5541(2) 0.17847(17) 0.54216(19)
H8_50 H 0.5532 0.1665 0.5329
O11_50 O 0.55262(8) 0.30089(7) 0.61635(6)
O12_50 O 0.55235(7) 0.28042(6) 0.64438(8)
C22_50 C 0.55560(12) 0.26451(10) 0.61139(10)
C23_50 C 0.55148(12) 0.24471(11) 0.61977(12)
H10_50 H 0.5482 0.2430 0.6345
C24_50 C 0.55217(13) 0.22777(14) 0.60660(15)
H11_50 H 0.5476 0.2143 0.6118
C25_50 C 0.55914(14) 0.22929(13) 0.58613(16)
C26_50 C 0.56454(19) 0.24883(16) 0.57738(14)
H12_50 H 0.5686 0.2503 0.5629
C27_50 C 0.56361(17) 0.26566(14) 0.59076(14)
H13_50 H 0.5687 0.2790 0.5858
C28_50 C 0.55312(11) 0.28326(10) 0.62470(10)
C29_50 C 0.5578(2) 0.21067(16) 0.56944(15)
C30_50 C 0.57153(17) 0.20784(19) 0.5541(2)
H14_50 H 0.5835 0.2171 0.5532
O13_50 O 0.44911(7) 0.13365(6) 0.55262(8)
O14_50 O 0.46958(6) 0.10562(8) 0.55235(7)
C31_50 C 0.48549(10) 0.13861(10) 0.55560(12)
C32_50 C 0.50529(11) 0.13023(12) 0.55148(12)
H15_50 H 0.5070 0.1155 0.5482
C33_50 C 0.52223(14) 0.14340(15) 0.55217(13)
H16_50 H 0.5357 0.1382 0.5476
C34_50 C 0.52071(13) 0.16387(16) 0.55914(14)
C35_50 C 0.50117(16) 0.17262(14) 0.56454(19)
H17_50 H 0.4997 0.1871 0.5686
C36_50 C 0.48434(14) 0.15924(14) 0.56361(17)
H18_50 H 0.4710 0.1642 0.5687
C37_50 C 0.46674(10) 0.12530(10) 0.55312(11)
C38_50 C 0.53933(16) 0.18056(15) 0.5578(2)
C39_50 C 0.54216(19) 0.1959(2) 0.57153(17)
H19_50 H 0.5329 0.1968 0.5835
C10_51 C 0.11139(10) 0.55560(12) 0.76451(10)
C11_51 C 0.11977(12) 0.55148(12) 0.74471(11)
H4_51 H 0.1345 0.5482 0.7430
C12_51 C 0.10660(15) 0.55217(13) 0.72777(14)
H5_51 H 0.1118 0.5476 0.7143
C13_51 C 0.08613(16) 0.55914(14) 0.72929(13)
C14_51 C 0.07738(14) 0.56454(19) 0.74883(16)
H6_51 H 0.0629 0.5686 0.7503
C15_51 C 0.09076(14) 0.56361(17) 0.76566(14)
H7_51 H 0.0858 0.5687 0.7790
C16_51 C 0.12470(10) 0.55312(11) 0.78326(10)
C17_51 C 0.06944(15) 0.5578(2) 0.71067(16)
C18_51 C 0.0541(2) 0.57153(17) 0.70784(19)
H8_51 H 0.0532 0.5835 0.7171
O11_51 O 0.05262(8) 0.44911(7) 0.63365(6)
O12_51 O 0.05235(7) 0.46958(6) 0.60562(8)
C22_51 C 0.05560(12) 0.48549(10) 0.63861(10)
C23_51 C 0.05148(12) 0.50529(11) 0.63023(12)
H10_51 H 0.0482 0.5070 0.6155
C24_51 C 0.05217(13) 0.52223(14) 0.64340(15)
H11_51 H 0.0476 0.5357 0.6382
C25_51 C 0.05914(14) 0.52071(13) 0.66387(16)
C26_51 C 0.06454(19) 0.50117(16) 0.67262(14)
H12_51 H 0.0686 0.4997 0.6871
C27_51 C 0.06361(17) 0.48434(14) 0.65924(14)
H13_51 H 0.0687 0.4710 0.6642
C28_51 C 0.05312(11) 0.46674(10) 0.62530(10)
C29_51 C 0.0578(2) 0.53933(16) 0.68056(15)
C30_51 C 0.07153(17) 0.54216(19) 0.6959(2)
H14_51 H 0.0835 0.5329 0.6968
C32_51 C 0.00529(11) 0.61977(12) 0.69852(12)
H15_51 H 0.0070 0.6345 0.7018
C33_51 C 0.02223(14) 0.60660(15) 0.69783(13)
H16_51 H 0.0357 0.6118 0.7024
C34_51 C 0.02071(13) 0.58613(16) 0.69086(14)
C35_51 C 0.00117(16) 0.57738(14) 0.68546(19)
C38_51 C 0.03933(16) 0.56944(15) 0.6922(2)
C39_51 C 0.04216(19) 0.5541(2) 0.67847(17)
H19_51 H 0.0329 0.5532 0.6665
O13_51 O 0.94911(7) 0.61635(6) 0.69738(8)
O14_51 O 0.96958(6) 0.64438(8) 0.69765(7)
C31_51 C 0.98549(10) 0.61139(10) 0.69440(12)
H17_51 H 0.9997 0.5629 0.6814
C36_51 C 0.98434(14) 0.59076(14) 0.68639(17)
H18_51 H 0.9710 0.5858 0.6813
C37_51 C 0.96674(10) 0.62470(10) 0.69688(11)
C11_52 C 0.13023(12) 0.05148(12) 0.00529(11)
H4_52 H 0.1155 0.0482 0.0070
C12_52 C 0.14340(15) 0.05217(13) 0.02223(14)
H5_52 H 0.1382 0.0476 0.0357
C13_52 C 0.16387(16) 0.05914(14) 0.02071(13)
C14_52 C 0.17262(14) 0.06454(19) 0.00117(16)
C17_52 C 0.18056(15) 0.0578(2) 0.03933(16)
C18_52 C 0.1959(2) 0.07153(17) 0.04216(19)
H8_52 H 0.1968 0.0835 0.0329
C23_52 C 0.19852(12) 0.00529(11) 0.11977(12)
H10_52 H 0.2018 0.0070 0.1345
C24_52 C 0.19783(13) 0.02223(14) 0.10660(15)
H11_52 H 0.2024 0.0357 0.1118
C25_52 C 0.19086(14) 0.02071(13) 0.08613(16)
C26_52 C 0.18546(19) 0.00117(16) 0.07738(14)
C29_52 C 0.1922(2) 0.03933(16) 0.06944(15)
C30_52 C 0.17847(17) 0.04216(19) 0.0541(2)
H14_52 H 0.1665 0.0329 0.0532
O13_52 O 0.30089(7) 0.11635(6) 0.05262(8)
O14_52 O 0.28042(6) 0.14438(8) 0.05235(7)
C31_52 C 0.26451(10) 0.11139(10) 0.05560(12)
C32_52 C 0.24471(11) 0.11977(12) 0.05148(12)
H15_52 H 0.2430 0.1345 0.0482
C33_52 C 0.22777(14) 0.10660(15) 0.05217(13)
H16_52 H 0.2143 0.1118 0.0476
C34_52 C 0.22929(13) 0.08613(16) 0.05914(14)
C35_52 C 0.24883(16) 0.07738(14) 0.06454(19)
H17_52 H 0.2503 0.0629 0.0686
C36_52 C 0.26566(14) 0.09076(14) 0.06361(17)
H18_52 H 0.2790 0.0858 0.0687
C37_52 C 0.28326(10) 0.12470(10) 0.05312(11)
C38_52 C 0.21067(16) 0.06944(15) 0.0578(2)
C39_52 C 0.20784(19) 0.0541(2) 0.07153(17)
H19_52 H 0.2171 0.0532 0.0835
C10_52 C 0.13861(10) 0.05560(12) 0.98549(10)
H6_52 H 0.1871 0.0686 0.9997
C15_52 C 0.15924(14) 0.06361(17) 0.98434(14)
H7_52 H 0.1642 0.0687 0.9710
C16_52 C 0.12530(10) 0.05312(11) 0.96674(10)
O11_52 O 0.19738(8) 0.94911(7) 0.11635(6)
O12_52 O 0.19765(7) 0.96958(6) 0.14438(8)
C22_52 C 0.19440(12) 0.98549(10) 0.11139(10)
H12_52 H 0.1814 0.9997 0.0629
C27_52 C 0.18639(17) 0.98434(14) 0.09076(14)
H13_52 H 0.1813 0.9710 0.0858
C28_52 C 0.19688(11) 0.96674(10) 0.12470(10)
C10_53 C 0.19440(12) 0.48549(10) 0.61139(10)
C11_53 C 0.19852(12) 0.50529(11) 0.61977(12)
H4_53 H 0.2018 0.5070 0.6345
C12_53 C 0.19783(13) 0.52223(14) 0.60660(15)
H5_53 H 0.2024 0.5357 0.6118
C13_53 C 0.19086(14) 0.52071(13) 0.58613(16)
C14_53 C 0.18546(19) 0.50117(16) 0.57738(14)
H6_53 H 0.1814 0.4997 0.5629
C15_53 C 0.18639(17) 0.48434(14) 0.59076(14)
H7_53 H 0.1813 0.4710 0.5858
C16_53 C 0.19688(11) 0.46674(10) 0.62470(10)
C17_53 C 0.1922(2) 0.53933(16) 0.56944(15)
C18_53 C 0.17847(17) 0.54216(19) 0.5541(2)
H8_53 H 0.1665 0.5329 0.5532
O11_53 O 0.30089(7) 0.61635(6) 0.55262(8)
O12_53 O 0.28042(6) 0.64438(8) 0.55235(7)
C22_53 C 0.26451(10) 0.61139(10) 0.55560(12)
C23_53 C 0.24471(11) 0.61977(12) 0.55148(12)
H10_53 H 0.2430 0.6345 0.5482
C24_53 C 0.22777(14) 0.60660(15) 0.55217(13)
H11_53 H 0.2143 0.6118 0.5476
C25_53 C 0.22929(13) 0.58613(16) 0.55914(14)
C26_53 C 0.24883(16) 0.57738(14) 0.56454(19)
H12_53 H 0.2503 0.5629 0.5686
C27_53 C 0.26566(14) 0.59076(14) 0.56361(17)
H13_53 H 0.2790 0.5858 0.5687
C28_53 C 0.28326(10) 0.62470(10) 0.55312(11)
C29_53 C 0.21067(16) 0.56944(15) 0.5578(2)
C30_53 C 0.20784(19) 0.5541(2) 0.57153(17)
H14_53 H 0.2171 0.5532 0.5835
O13_53 O 0.13365(6) 0.55262(8) 0.44911(7)
O14_53 O 0.10562(8) 0.55235(7) 0.46958(6)
C31_53 C 0.13861(10) 0.55560(12) 0.48549(10)
C32_53 C 0.13023(12) 0.55148(12) 0.50529(11)
H15_53 H 0.1155 0.5482 0.5070
C33_53 C 0.14340(15) 0.55217(13) 0.52223(14)
H16_53 H 0.1382 0.5476 0.5357
C34_53 C 0.16387(16) 0.55914(14) 0.52071(13)
C35_53 C 0.17262(14) 0.56454(19) 0.50117(16)
H17_53 H 0.1871 0.5686 0.4997
C36_53 C 0.15924(14) 0.56361(17) 0.48434(14)
H18_53 H 0.1642 0.5687 0.4710
C37_53 C 0.12530(10) 0.55312(11) 0.46674(10)
C38_53 C 0.18056(15) 0.5578(2) 0.53933(16)
C39_53 C 0.1959(2) 0.57153(17) 0.54216(19)
H19_53 H 0.1968 0.5835 0.5329
C10_54 C 0.69440(12) 0.26451(10) 0.63861(10)
C11_54 C 0.69852(12) 0.24471(11) 0.63023(12)
H4_54 H 0.7018 0.2430 0.6155
C12_54 C 0.69783(13) 0.22777(14) 0.64340(15)
H5_54 H 0.7024 0.2143 0.6382
C13_54 C 0.69086(14) 0.22929(13) 0.66387(16)
C14_54 C 0.68546(19) 0.24883(16) 0.67262(14)
H6_54 H 0.6814 0.2503 0.6871
C15_54 C 0.68639(17) 0.26566(14) 0.65924(14)
H7_54 H 0.6813 0.2790 0.6642
C16_54 C 0.69688(11) 0.28326(10) 0.62530(10)
C17_54 C 0.6922(2) 0.21067(16) 0.68056(15)
C18_54 C 0.67847(17) 0.20784(19) 0.6959(2)
H8_54 H 0.6665 0.2171 0.6968
O11_54 O 0.80089(7) 0.13365(6) 0.69738(8)
O12_54 O 0.78042(6) 0.10562(8) 0.69765(7)
C22_54 C 0.76451(10) 0.13861(10) 0.69440(12)
C23_54 C 0.74471(11) 0.13023(12) 0.69852(12)
H10_54 H 0.7430 0.1155 0.7018
C24_54 C 0.72777(14) 0.14340(15) 0.69783(13)
H11_54 H 0.7143 0.1382 0.7024
C25_54 C 0.72929(13) 0.16387(16) 0.69086(14)
C26_54 C 0.74883(16) 0.17262(14) 0.68546(19)
H12_54 H 0.7503 0.1871 0.6814
C27_54 C 0.76566(14) 0.15924(14) 0.68639(17)
H13_54 H 0.7790 0.1642 0.6813
C28_54 C 0.78326(10) 0.12530(10) 0.69688(11)
C29_54 C 0.71067(16) 0.18056(15) 0.6922(2)
C30_54 C 0.70784(19) 0.1959(2) 0.67847(17)
H14_54 H 0.7171 0.1968 0.6665
O13_54 O 0.63365(6) 0.19738(8) 0.80089(7)
O14_54 O 0.60562(8) 0.19765(7) 0.78042(6)
C31_54 C 0.63861(10) 0.19440(12) 0.76451(10)
C32_54 C 0.63023(12) 0.19852(12) 0.74471(11)
H15_54 H 0.6155 0.2018 0.7430
C33_54 C 0.64340(15) 0.19783(13) 0.72777(14)
H16_54 H 0.6382 0.2024 0.7143
C34_54 C 0.66387(16) 0.19086(14) 0.72929(13)
C35_54 C 0.67262(14) 0.18546(19) 0.74883(16)
H17_54 H 0.6871 0.1814 0.7503
C36_54 C 0.65924(14) 0.18639(17) 0.76566(14)
H18_54 H 0.6642 0.1813 0.7790
C37_54 C 0.62530(10) 0.19688(11) 0.78326(10)
C38_54 C 0.68056(15) 0.1922(2) 0.71067(16)
C39_54 C 0.6959(2) 0.17847(17) 0.70784(19)
H19_54 H 0.6968 0.1665 0.7171
C11_55 C 0.05148(12) 0.00529(11) 0.13023(12)
H4_55 H 0.0482 0.0070 0.1155
C12_55 C 0.05217(13) 0.02223(14) 0.14340(15)
H5_55 H 0.0476 0.0357 0.1382
C13_55 C 0.05914(14) 0.02071(13) 0.16387(16)
C14_55 C 0.06454(19) 0.00117(16) 0.17262(14)
C17_55 C 0.0578(2) 0.03933(16) 0.18056(15)
C18_55 C 0.07153(17) 0.04216(19) 0.1959(2)
H8_55 H 0.0835 0.0329 0.1968
C23_55 C 0.00529(11) 0.11977(12) 0.19852(12)
H10_55 H 0.0070 0.1345 0.2018
C24_55 C 0.02223(14) 0.10660(15) 0.19783(13)
H11_55 H 0.0357 0.1118 0.2024
C25_55 C 0.02071(13) 0.08613(16) 0.19086(14)
C26_55 C 0.00117(16) 0.07738(14) 0.18546(19)
C29_55 C 0.03933(16) 0.06944(15) 0.1922(2)
C30_55 C 0.04216(19) 0.0541(2) 0.17847(17)
H14_55 H 0.0329 0.0532 0.1665
O13_55 O 0.11635(6) 0.05262(8) 0.30089(7)
O14_55 O 0.14438(8) 0.05235(7) 0.28042(6)
C31_55 C 0.11139(10) 0.05560(12) 0.26451(10)
C32_55 C 0.11977(12) 0.05148(12) 0.24471(11)
H15_55 H 0.1345 0.0482 0.2430
C33_55 C 0.10660(15) 0.05217(13) 0.22777(14)
H16_55 H 0.1118 0.0476 0.2143
C34_55 C 0.08613(16) 0.05914(14) 0.22929(13)
C35_55 C 0.07738(14) 0.06454(19) 0.24883(16)
H17_55 H 0.0629 0.0686 0.2503
C36_55 C 0.09076(14) 0.06361(17) 0.26566(14)
H18_55 H 0.0858 0.0687 0.2790
C37_55 C 0.12470(10) 0.05312(11) 0.28326(10)
C38_55 C 0.06944(15) 0.0578(2) 0.21067(16)
C39_55 C 0.0541(2) 0.07153(17) 0.20784(19)
H19_55 H 0.0532 0.0835 0.2171
C10_55 C 0.05560(12) 0.98549(10) 0.13861(10)
H6_55 H 0.0686 0.9997 0.1871
C15_55 C 0.06361(17) 0.98434(14) 0.15924(14)
H7_55 H 0.0687 0.9710 0.1642
C16_55 C 0.05312(11) 0.96674(10) 0.12530(10)
O11_55 O 0.94911(7) 0.11635(6) 0.19738(8)
O12_55 O 0.96958(6) 0.14438(8) 0.19765(7)
C22_55 C 0.98549(10) 0.11139(10) 0.19440(12)
H12_55 H 0.9997 0.0629 0.1814
C27_55 C 0.98434(14) 0.09076(14) 0.18639(17)
H13_55 H 0.9710 0.0858 0.1813
C28_55 C 0.96674(10) 0.12470(10) 0.19688(11)
C10_56 C 0.55560(12) 0.76451(10) 0.11139(10)
C11_56 C 0.55148(12) 0.74471(11) 0.11977(12)
H4_56 H 0.5482 0.7430 0.1345
C12_56 C 0.55217(13) 0.72777(14) 0.10660(15)
H5_56 H 0.5476 0.7143 0.1118
C13_56 C 0.55914(14) 0.72929(13) 0.08613(16)
C14_56 C 0.56454(19) 0.74883(16) 0.07738(14)
H6_56 H 0.5686 0.7503 0.0629
C15_56 C 0.56361(17) 0.76566(14) 0.09076(14)
H7_56 H 0.5687 0.7790 0.0858
C16_56 C 0.55312(11) 0.78326(10) 0.12470(10)
C17_56 C 0.5578(2) 0.71067(16) 0.06944(15)
C18_56 C 0.57153(17) 0.70784(19) 0.0541(2)
H8_56 H 0.5835 0.7171 0.0532
O11_56 O 0.44911(7) 0.63365(6) 0.05262(8)
O12_56 O 0.46958(6) 0.60562(8) 0.05235(7)
C22_56 C 0.48549(10) 0.63861(10) 0.05560(12)
C23_56 C 0.50529(11) 0.63023(12) 0.05148(12)
H10_56 H 0.5070 0.6155 0.0482
C24_56 C 0.52223(14) 0.64340(15) 0.05217(13)
H11_56 H 0.5357 0.6382 0.0476
C25_56 C 0.52071(13) 0.66387(16) 0.05914(14)
C26_56 C 0.50117(16) 0.67262(14) 0.06454(19)
H12_56 H 0.4997 0.6871 0.0686
C27_56 C 0.48434(14) 0.65924(14) 0.06361(17)
H13_56 H 0.4710 0.6642 0.0687
C28_56 C 0.46674(10) 0.62530(10) 0.05312(11)
C29_56 C 0.53933(16) 0.68056(15) 0.0578(2)
C30_56 C 0.54216(19) 0.6959(2) 0.07153(17)
H14_56 H 0.5329 0.6968 0.0835
C32_56 C 0.61977(12) 0.69852(12) 0.00529(11)
H15_56 H 0.6345 0.7018 0.0070
C33_56 C 0.60660(15) 0.69783(13) 0.02223(14)
H16_56 H 0.6118 0.7024 0.0357
C34_56 C 0.58613(16) 0.69086(14) 0.02071(13)
C35_56 C 0.57738(14) 0.68546(19) 0.00117(16)
C38_56 C 0.56944(15) 0.6922(2) 0.03933(16)
C39_56 C 0.5541(2) 0.67847(17) 0.04216(19)
H19_56 H 0.5532 0.6665 0.0329
O13_56 O 0.61635(6) 0.69738(8) 0.94911(7)
O14_56 O 0.64438(8) 0.69765(7) 0.96958(6)
C31_56 C 0.61139(10) 0.69440(12) 0.98549(10)
H17_56 H 0.5629 0.6814 0.9997
C36_56 C 0.59076(14) 0.68639(17) 0.98434(14)
H18_56 H 0.5858 0.6813 0.9710
C37_56 C 0.62470(10) 0.69688(11) 0.96674(10)
O1_41 O 0.33859(5) 0.20246(4) 0.49355(6)
O2_41 O 0.36316(7) 0.17874(8) 0.48514(7)
O3_25 O 0.40109(6) 0.13896(7) 0.53947(8)
O4_41 O 0.39396(8) 0.14292(9) 0.57180(10)
C1_41 C 0.35443(7) 0.18160(7) 0.52158(9)
C2_41 C 0.37084(8) 0.16733(7) 0.52674(10)
H1_41 H 0.3799 0.1616 0.5160
C3_41 C 0.37334(8) 0.16206(9) 0.54750(11)
C4_41 C 0.36106(7) 0.17121(7) 0.56345(10)
H2_41 H 0.3636 0.1680 0.5780
C5_41 C 0.34442(6) 0.18565(7) 0.55754(9)
C6_41 C 0.34150(6) 0.18991(7) 0.53616(9)
H3_41 H 0.3301 0.1989 0.5318
C7_41 C 0.35213(8) 0.18817(9) 0.49838(12)
C8_41 C 0.39060(10) 0.14701(10) 0.55381(13)
C9_41 C 0.33031(7) 0.19443(8) 0.57393(10)
O9_41 O 0.30931(5) 0.23203(4) 0.45890(5)
O10_41 O 0.33044(5) 0.25120(5) 0.47984(6)
C19_41 C 0.29747(5) 0.26625(5) 0.46784(5)
C20_41 C 0.29750(5) 0.28172(5) 0.48338(5)
H9_41 H 0.3083 0.2815 0.4940
C21_41 C 0.31363(6) 0.24821(7) 0.46953(7)
O15_41 O 0.29110(5) 0.30931(5) 0.51797(4)
O16_41 O 0.27016(6) 0.33044(5) 0.49880(5)
C40_41 C 0.28216(5) 0.29747(5) 0.48375(5)
C41_41 C 0.26662(5) 0.29750(5) 0.46828(5)
H20_41 H 0.2560 0.3083 0.4685
C42_41 C 0.28047(7) 0.31363(6) 0.50179(7)
O17_41 O 0.23203(4) 0.29110(5) 0.44069(5)
O18_41 O 0.25120(5) 0.27016(6) 0.41956(5)
C43_41 C 0.26625(5) 0.28216(5) 0.45253(5)
C44_41 C 0.28172(5) 0.26662(5) 0.45250(5)
H21_41 H 0.2815 0.2560 0.4417
C45_41 C 0.24821(7) 0.28047(7) 0.43637(6)
O19_41 O 0.25645(6) 0.33859(5) 0.54754(4)
O20_41 O 0.26486(7) 0.36316(7) 0.57126(8)
O22_41 O 0.17820(10) 0.39396(8) 0.60708(9)
C46_41 C 0.22842(9) 0.35443(7) 0.56840(7)
C47_41 C 0.22326(10) 0.37084(8) 0.58267(7)
H22_41 H 0.2340 0.3799 0.5884
C48_41 C 0.20250(11) 0.37334(8) 0.58794(9)
C49_41 C 0.18655(10) 0.36106(7) 0.57879(7)
H23_41 H 0.1720 0.3636 0.5820
C50_41 C 0.19246(9) 0.34442(6) 0.56435(7)
C51_41 C 0.21384(9) 0.34150(6) 0.56009(7)
H24_41 H 0.2182 0.3301 0.5511
C52_41 C 0.25162(12) 0.35213(8) 0.56183(9)
C53_41 C 0.19619(13) 0.39060(10) 0.60299(10)
C54_41 C 0.17607(10) 0.33031(7) 0.55557(8)
O25_41 O 0.20246(4) 0.25645(6) 0.41141(5)
O26_41 O 0.17874(8) 0.26486(7) 0.38684(7)
O27_25 O 0.13896(7) 0.21053(8) 0.34891(6)
O28_41 O 0.14292(9) 0.17820(10) 0.35604(8)
C55_41 C 0.18160(7) 0.22842(9) 0.39557(7)
C56_41 C 0.16733(7) 0.22326(10) 0.37916(8)
H25_41 H 0.1616 0.2340 0.3701
C57_41 C 0.16206(9) 0.20250(11) 0.37666(8)
C58_41 C 0.17121(7) 0.18655(10) 0.38894(7)
H26_41 H 0.1680 0.1720 0.3864
C59_41 C 0.18565(7) 0.19246(9) 0.40558(6)
C60_41 C 0.18991(7) 0.21384(9) 0.40850(6)
H27_41 H 0.1989 0.2182 0.4199
C61_41 C 0.18817(9) 0.25162(12) 0.39787(8)
C62_41 C 0.14701(10) 0.19619(13) 0.35940(10)
C63_41 C 0.19443(8) 0.17607(10) 0.41969(7)
O32_25 O 0.15109(6) 0.28947(8) 0.36104(7)
O33_25 O 0.38896(7) 0.15109(6) 0.46053(8)
O41_21 O 0.19911(7) 0.30262(8) 0.36635(6)
O43_21 O 0.21958(6) 0.30235(7) 0.39438(8)
O3_26 O 0.34891(6) 0.11104(7) 0.03947(8)
O4_42 O 0.35604(8) 0.10708(9) 0.07180(10)
C1_42 C 0.39557(7) 0.06840(7) 0.02158(9)
C2_42 C 0.37916(8) 0.08267(7) 0.02674(10)
H1_42 H 0.3701 0.0884 0.0160
C3_42 C 0.37666(8) 0.08794(9) 0.04750(11)
C4_42 C 0.38894(7) 0.07879(7) 0.06345(10)
H2_42 H 0.3864 0.0820 0.0780
C5_42 C 0.40558(6) 0.06435(7) 0.05754(9)
C6_42 C 0.40850(6) 0.06009(7) 0.03616(9)
H3_42 H 0.4199 0.0511 0.0318
C8_42 C 0.35940(10) 0.10299(10) 0.05381(13)
C9_42 C 0.41969(7) 0.05557(8) 0.07393(10)
O1_42 O 0.41141(5) 0.04754(4) 0.99355(6)
O2_42 O 0.38684(7) 0.07126(8) 0.98514(7)
C7_42 C 0.39787(8) 0.06183(9) 0.99838(12)
O9_42 O 0.44069(5) 0.01797(4) 0.95890(5)
C21_42 C 0.43637(6) 0.00179(7) 0.96953(7)
O27_26 O 0.61104(7) 0.03947(8) 0.84891(6)
O28_42 O 0.60708(9) 0.07180(10) 0.85604(8)
C55_42 C 0.56840(7) 0.02158(9) 0.89557(7)
C56_42 C 0.58267(7) 0.02674(10) 0.87916(8)
H25_42 H 0.5884 0.0160 0.8701
C57_42 C 0.58794(9) 0.04750(11) 0.87666(8)
C58_42 C 0.57879(7) 0.06345(10) 0.88894(7)
H26_42 H 0.5820 0.0780 0.8864
C59_42 C 0.56435(7) 0.05754(9) 0.90558(6)
C60_42 C 0.56009(7) 0.03616(9) 0.90850(6)
H27_42 H 0.5511 0.0318 0.9199
C62_42 C 0.60299(10) 0.05381(13) 0.85940(10)
C63_42 C 0.55557(8) 0.07393(10) 0.91969(7)
O33_26 O 0.36104(7) 0.09891(6) 0.96053(8)
O15_42 O 0.45890(5) 0.94069(5) 0.01797(4)
C42_42 C 0.46953(7) 0.93637(6) 0.00179(7)
O19_42 O 0.49355(6) 0.91141(5) 0.04754(4)
O20_42 O 0.48514(7) 0.88684(7) 0.07126(8)
O22_42 O 0.57180(10) 0.85604(8) 0.10708(9)
C46_42 C 0.52158(9) 0.89557(7) 0.06840(7)
C47_42 C 0.52674(10) 0.87916(8) 0.08267(7)
H22_42 H 0.5160 0.8701 0.0884
C48_42 C 0.54750(11) 0.87666(8) 0.08794(9)
C49_42 C 0.56345(10) 0.88894(7) 0.07879(7)
H23_42 H 0.5780 0.8864 0.0820
C50_42 C 0.55754(9) 0.90558(6) 0.06435(7)
C51_42 C 0.53616(9) 0.90850(6) 0.06009(7)
H24_42 H 0.5318 0.9199 0.0511
C52_42 C 0.49838(12) 0.89787(8) 0.06183(9)
C53_42 C 0.55381(13) 0.85940(10) 0.10299(10)
C54_42 C 0.57393(10) 0.91969(7) 0.05557(8)
O10_42 O 0.41956(5) 0.99880(5) 0.97984(6)
C19_42 C 0.45253(5) 0.98375(5) 0.96784(5)
C20_42 C 0.45250(5) 0.96828(5) 0.98338(5)
H9_42 H 0.4417 0.9685 0.9940
O16_42 O 0.47984(6) 0.91956(5) 0.99880(5)
C40_42 C 0.46784(5) 0.95253(5) 0.98375(5)
C41_42 C 0.48338(5) 0.95250(5) 0.96828(5)
H20_42 H 0.4940 0.9417 0.9685
O17_42 O 0.51797(4) 0.95890(5) 0.94069(5)
O18_42 O 0.49880(5) 0.97984(6) 0.91956(5)
C43_42 C 0.48375(5) 0.96784(5) 0.95253(5)
C44_42 C 0.46828(5) 0.98338(5) 0.95250(5)
H21_42 H 0.4685 0.9940 0.9417
C45_42 C 0.50179(7) 0.96953(7) 0.93637(6)
O25_42 O 0.54754(4) 0.99355(6) 0.91141(5)
O26_42 O 0.57126(8) 0.98514(7) 0.88684(7)
C61_42 C 0.56183(9) 0.99838(12) 0.89787(8)
O32_26 O 0.59891(6) 0.96053(8) 0.86104(7)
O41_22 O 0.55089(7) 0.94738(8) 0.86635(6)
O43_22 O 0.53042(6) 0.94765(7) 0.89438(8)
O17_43 O 0.01797(4) 0.79110(5) 0.30931(5)
C45_43 C 0.00179(7) 0.78047(7) 0.31363(6)
O22_43 O 0.07180(10) 0.89396(8) 0.14292(9)
C46_43 C 0.02158(9) 0.85443(7) 0.18160(7)
C47_43 C 0.02674(10) 0.87084(8) 0.16733(7)
H22_43 H 0.0160 0.8799 0.1616
C48_43 C 0.04750(11) 0.87334(8) 0.16206(9)
C49_43 C 0.06345(10) 0.86106(7) 0.17121(7)
H23_43 H 0.0780 0.8636 0.1680
C50_43 C 0.05754(9) 0.84442(6) 0.18565(7)
C51_43 C 0.03616(9) 0.84150(6) 0.18991(7)
H24_43 H 0.0318 0.8301 0.1989
C53_43 C 0.05381(13) 0.89060(10) 0.14701(10)
C54_43 C 0.07393(10) 0.83031(7) 0.19443(8)
O25_43 O 0.04754(4) 0.75645(6) 0.33859(5)
O26_43 O 0.07126(8) 0.76486(7) 0.36316(7)
O27_27 O 0.11104(7) 0.71053(8) 0.40109(6)
O28_43 O 0.10708(9) 0.67820(10) 0.39396(8)
C55_43 C 0.06840(7) 0.72842(9) 0.35443(7)
C56_43 C 0.08267(7) 0.72326(10) 0.37084(8)
H25_43 H 0.0884 0.7340 0.3799
C57_43 C 0.08794(9) 0.70250(11) 0.37334(8)
C58_43 C 0.07879(7) 0.68655(10) 0.36106(7)
H26_43 H 0.0820 0.6720 0.3636
C59_43 C 0.06435(7) 0.69246(9) 0.34442(6)
C60_43 C 0.06009(7) 0.71384(9) 0.34150(6)
H27_43 H 0.0511 0.7182 0.3301
C61_43 C 0.06183(9) 0.75162(12) 0.35213(8)
C62_43 C 0.10299(10) 0.69619(13) 0.39060(10)
C63_43 C 0.05557(8) 0.67607(10) 0.33031(7)
O32_27 O 0.09891(6) 0.78947(8) 0.38896(7)
O41_23 O 0.05089(7) 0.80262(8) 0.38365(6)
O43_23 O 0.03042(6) 0.80235(7) 0.35562(8)
O1_43 O 0.91141(5) 0.70246(4) 0.25645(6)
O2_43 O 0.88684(7) 0.67874(8) 0.26486(7)
O3_27 O 0.84891(6) 0.63896(7) 0.21053(8)
O4_43 O 0.85604(8) 0.64292(9) 0.17820(10)
C1_43 C 0.89557(7) 0.68160(7) 0.22842(9)
C2_43 C 0.87916(8) 0.66733(7) 0.22326(10)
H1_43 H 0.8701 0.6616 0.2340
C3_43 C 0.87666(8) 0.66206(9) 0.20250(11)
C4_43 C 0.88894(7) 0.67121(7) 0.18655(10)
H2_43 H 0.8864 0.6680 0.1720
C5_43 C 0.90558(6) 0.68565(7) 0.19246(9)
C6_43 C 0.90850(6) 0.68991(7) 0.21384(9)
H3_43 H 0.9199 0.6989 0.2182
C7_43 C 0.89787(8) 0.68817(9) 0.25162(12)
C8_43 C 0.85940(10) 0.64701(10) 0.19619(13)
C9_43 C 0.91969(7) 0.69443(8) 0.17607(10)
O9_43 O 0.94069(5) 0.73203(4) 0.29110(5)
O10_43 O 0.91956(5) 0.75120(5) 0.27016(6)
C19_43 C 0.95253(5) 0.76625(5) 0.28216(5)
C20_43 C 0.95250(5) 0.78172(5) 0.26662(5)
H9_43 H 0.9417 0.7815 0.2560
C21_43 C 0.93637(6) 0.74821(7) 0.28047(7)
O15_43 O 0.95890(5) 0.80931(5) 0.23203(4)
O16_43 O 0.97984(6) 0.83044(5) 0.25120(5)
C40_43 C 0.96784(5) 0.79747(5) 0.26625(5)
C41_43 C 0.98338(5) 0.79750(5) 0.28172(5)
H20_43 H 0.9940 0.8083 0.2815
C42_43 C 0.96953(7) 0.81363(6) 0.24821(7)
O18_43 O 0.99880(5) 0.77016(6) 0.33044(5)
C43_43 C 0.98375(5) 0.78216(5) 0.29747(5)
C44_43 C 0.96828(5) 0.76662(5) 0.29750(5)
H21_43 H 0.9685 0.7560 0.3083
O19_43 O 0.99355(6) 0.83859(5) 0.20246(4)
O20_43 O 0.98514(7) 0.86316(7) 0.17874(8)
C52_43 C 0.99838(12) 0.85213(8) 0.18817(9)
O33_27 O 0.86104(7) 0.65109(6) 0.28947(8)
O1_44 O 0.83859(5) 0.54754(4) 0.75645(6)
O2_44 O 0.86316(7) 0.57126(8) 0.76486(7)
O3_28 O 0.90109(6) 0.61104(7) 0.71053(8)
O4_44 O 0.89396(8) 0.60708(9) 0.67820(10)
C1_44 C 0.85443(7) 0.56840(7) 0.72842(9)
C2_44 C 0.87084(8) 0.58267(7) 0.72326(10)
H1_44 H 0.8799 0.5884 0.7340
C3_44 C 0.87334(8) 0.58794(9) 0.70250(11)
C4_44 C 0.86106(7) 0.57879(7) 0.68655(10)
H2_44 H 0.8636 0.5820 0.6720
C5_44 C 0.84442(6) 0.56435(7) 0.69246(9)
C6_44 C 0.84150(6) 0.56009(7) 0.71384(9)
H3_44 H 0.8301 0.5511 0.7182
C7_44 C 0.85213(8) 0.56183(9) 0.75162(12)
C8_44 C 0.89060(10) 0.60299(10) 0.69619(13)
C9_44 C 0.83031(7) 0.55557(8) 0.67607(10)
O9_44 O 0.80931(5) 0.51797(4) 0.79110(5)
O10_44 O 0.83044(5) 0.49880(5) 0.77016(6)
C19_44 C 0.79747(5) 0.48375(5) 0.78216(5)
C20_44 C 0.79750(5) 0.46828(5) 0.76662(5)
H9_44 H 0.8083 0.4685 0.7560
C21_44 C 0.81363(6) 0.50179(7) 0.78047(7)
O15_44 O 0.79110(5) 0.44069(5) 0.73203(4)
O16_44 O 0.77016(6) 0.41956(5) 0.75120(5)
C40_44 C 0.78216(5) 0.45253(5) 0.76625(5)
C41_44 C 0.76662(5) 0.45250(5) 0.78172(5)
H20_44 H 0.7560 0.4417 0.7815
C42_44 C 0.78047(7) 0.43637(6) 0.74821(7)
O17_44 O 0.73203(4) 0.45890(5) 0.80931(5)
O18_44 O 0.75120(5) 0.47984(6) 0.83044(5)
C43_44 C 0.76625(5) 0.46784(5) 0.79747(5)
C44_44 C 0.78172(5) 0.48338(5) 0.79750(5)
H21_44 H 0.7815 0.4940 0.8083
C45_44 C 0.74821(7) 0.46953(7) 0.81363(6)
O19_44 O 0.75645(6) 0.41141(5) 0.70246(4)
O20_44 O 0.76486(7) 0.38684(7) 0.67874(8)
O22_44 O 0.67820(10) 0.35604(8) 0.64292(9)
C46_44 C 0.72842(9) 0.39557(7) 0.68160(7)
C47_44 C 0.72326(10) 0.37916(8) 0.66733(7)
H22_44 H 0.7340 0.3701 0.6616
C48_44 C 0.70250(11) 0.37666(8) 0.66206(9)
C49_44 C 0.68655(10) 0.38894(7) 0.67121(7)
H23_44 H 0.6720 0.3864 0.6680
C50_44 C 0.69246(9) 0.40558(6) 0.68565(7)
C51_44 C 0.71384(9) 0.40850(6) 0.68991(7)
H24_44 H 0.7182 0.4199 0.6989
C52_44 C 0.75162(12) 0.39787(8) 0.68817(9)
C53_44 C 0.69619(13) 0.35940(10) 0.64701(10)
C54_44 C 0.67607(10) 0.41969(7) 0.69443(8)
O25_44 O 0.70246(4) 0.49355(6) 0.83859(5)
O26_44 O 0.67874(8) 0.48514(7) 0.86316(7)
O27_28 O 0.63896(7) 0.53947(8) 0.90109(6)
O28_44 O 0.64292(9) 0.57180(10) 0.89396(8)
C55_44 C 0.68160(7) 0.52158(9) 0.85443(7)
C56_44 C 0.66733(7) 0.52674(10) 0.87084(8)
H25_44 H 0.6616 0.5160 0.8799
C57_44 C 0.66206(9) 0.54750(11) 0.87334(8)
C58_44 C 0.67121(7) 0.56345(10) 0.86106(7)
H26_44 H 0.6680 0.5780 0.8636
C59_44 C 0.68565(7) 0.55754(9) 0.84442(6)
C60_44 C 0.68991(7) 0.53616(9) 0.84150(6)
H27_44 H 0.6989 0.5318 0.8301
C61_44 C 0.68817(9) 0.49838(12) 0.85213(8)
C62_44 C 0.64701(10) 0.55381(13) 0.89060(10)
C63_44 C 0.69443(8) 0.57393(10) 0.83031(7)
O32_28 O 0.65109(6) 0.46053(8) 0.88896(7)
O33_28 O 0.88896(7) 0.59891(6) 0.78947(8)
O41_24 O 0.69911(7) 0.44738(8) 0.88365(6)
O43_24 O 0.71958(6) 0.44765(7) 0.85562(8)
O13_57 O 0.80262(8) 0.38365(6) 0.05089(7)
O14_57 O 0.80235(7) 0.35562(8) 0.03042(6)
C31_57 C 0.80560(12) 0.38861(10) 0.01451(10)
H17_57 H 0.8186 0.4371 0.0003
C36_57 C 0.81361(17) 0.40924(14) 0.01566(14)
H18_57 H 0.8187 0.4142 0.0290
C37_57 C 0.80312(11) 0.37530(10) 0.03326(10)
C10_57 C 0.73549(10) 0.44440(12) 0.88861(10)
C11_57 C 0.75529(11) 0.44852(12) 0.88023(12)
H4_57 H 0.7570 0.4518 0.8655
C12_57 C 0.77223(14) 0.44783(13) 0.89340(15)
H5_57 H 0.7857 0.4524 0.8882
C13_57 C 0.77071(13) 0.44086(14) 0.91387(16)
C14_57 C 0.75117(16) 0.43546(19) 0.92262(14)
H6_57 H 0.7497 0.4314 0.9371
C15_57 C 0.73434(14) 0.43639(17) 0.90924(14)
H7_57 H 0.7210 0.4313 0.9142
C16_57 C 0.71674(10) 0.44688(11) 0.87530(10)
C17_57 C 0.78933(16) 0.4422(2) 0.93056(15)
C18_57 C 0.79216(19) 0.42847(17) 0.9459(2)
H8_57 H 0.7829 0.4165 0.9468
O11_57 O 0.86635(6) 0.55089(7) 0.94738(8)
O12_57 O 0.89438(8) 0.53042(6) 0.94765(7)
C22_57 C 0.86139(10) 0.51451(10) 0.94440(12)
C23_57 C 0.86977(12) 0.49471(11) 0.94852(12)
H10_57 H 0.8845 0.4930 0.9518
C24_57 C 0.85660(15) 0.47777(14) 0.94783(13)
H11_57 H 0.8618 0.4643 0.9524
C25_57 C 0.83613(16) 0.47929(13) 0.94086(14)
C26_57 C 0.82738(14) 0.49883(16) 0.93546(19)
H12_57 H 0.8129 0.5003 0.9314
C27_57 C 0.84076(14) 0.51566(14) 0.93639(17)
H13_57 H 0.8358 0.5290 0.9313
C28_57 C 0.87470(10) 0.53326(10) 0.94688(11)
C29_57 C 0.81944(15) 0.46067(16) 0.9422(2)
C30_57 C 0.8041(2) 0.45784(19) 0.92847(17)
H14_57 H 0.8032 0.4671 0.9165
C32_57 C 0.80148(12) 0.38023(12) 0.99471(11)
H15_57 H 0.7982 0.3655 0.9930
C33_57 C 0.80217(13) 0.39340(15) 0.97777(14)
H16_57 H 0.7976 0.3882 0.9643
C34_57 C 0.80914(14) 0.41387(16) 0.97929(13)
C35_57 C 0.81454(19) 0.42262(14) 0.99883(16)
C38_57 C 0.8078(2) 0.43056(15) 0.96067(16)
C39_57 C 0.82153(17) 0.4459(2) 0.95784(19)
H19_57 H 0.8335 0.4468 0.9671
O11_58 O 0.38365(6) 0.05089(7) 0.80262(8)
O12_58 O 0.35562(8) 0.03042(6) 0.80235(7)
C22_58 C 0.38861(10) 0.01451(10) 0.80560(12)
H12_58 H 0.4371 0.0003 0.8186
C27_58 C 0.40924(14) 0.01566(14) 0.81361(17)
H13_58 H 0.4142 0.0290 0.8187
C28_58 C 0.37530(10) 0.03326(10) 0.80312(11)
C10_58 C 0.51451(10) 0.94440(12) 0.86139(10)
C11_58 C 0.49471(11) 0.94852(12) 0.86977(12)
H4_58 H 0.4930 0.9518 0.8845
C12_58 C 0.47777(14) 0.94783(13) 0.85660(15)
H5_58 H 0.4643 0.9524 0.8618
C13_58 C 0.47929(13) 0.94086(14) 0.83613(16)
C14_58 C 0.49883(16) 0.93546(19) 0.82738(14)
H6_58 H 0.5003 0.9314 0.8129
C15_58 C 0.51566(14) 0.93639(17) 0.84076(14)
H7_58 H 0.5290 0.9313 0.8358
C16_58 C 0.53326(10) 0.94688(11) 0.87470(10)
C17_58 C 0.46067(16) 0.9422(2) 0.81944(15)
C18_58 C 0.45784(19) 0.92847(17) 0.8041(2)
H8_58 H 0.4671 0.9165 0.8032
C23_58 C 0.38023(12) 0.99471(11) 0.80148(12)
H10_58 H 0.3655 0.9930 0.7982
C24_58 C 0.39340(15) 0.97777(14) 0.80217(13)
H11_58 H 0.3882 0.9643 0.7976
C25_58 C 0.41387(16) 0.97929(13) 0.80914(14)
C26_58 C 0.42262(14) 0.99883(16) 0.81454(19)
C29_58 C 0.43056(15) 0.96067(16) 0.8078(2)
C30_58 C 0.4459(2) 0.95784(19) 0.82153(17)
H14_58 H 0.4468 0.9671 0.8335
O13_58 O 0.44738(8) 0.88365(6) 0.69911(7)
O14_58 O 0.44765(7) 0.85562(8) 0.71958(6)
C31_58 C 0.44440(12) 0.88861(10) 0.73549(10)
C32_58 C 0.44852(12) 0.88023(12) 0.75529(11)
H15_58 H 0.4518 0.8655 0.7570
C33_58 C 0.44783(13) 0.89340(15) 0.77223(14)
H16_58 H 0.4524 0.8882 0.7857
C34_58 C 0.44086(14) 0.91387(16) 0.77071(13)
C35_58 C 0.43546(19) 0.92262(14) 0.75117(16)
H17_58 H 0.4314 0.9371 0.7497
C36_58 C 0.43639(17) 0.90924(14) 0.73434(14)
H18_58 H 0.4313 0.9142 0.7210
C37_58 C 0.44688(11) 0.87530(10) 0.71674(10)
C38_58 C 0.4422(2) 0.93056(15) 0.78933(16)
C39_58 C 0.42847(17) 0.9459(2) 0.79216(19)
H19_58 H 0.4165 0.9468 0.7829
C10_59 C 0.23549(10) 0.30560(12) 0.36139(10)
C11_59 C 0.25529(11) 0.30148(12) 0.36977(12)
H4_59 H 0.2570 0.2982 0.3845
C12_59 C 0.27223(14) 0.30217(13) 0.35660(15)
H5_59 H 0.2857 0.2976 0.3618
C13_59 C 0.27071(13) 0.30914(14) 0.33613(16)
C14_59 C 0.25117(16) 0.31454(19) 0.32738(14)
H6_59 H 0.2497 0.3186 0.3129
C15_59 C 0.23434(14) 0.31361(17) 0.34076(14)
H7_59 H 0.2210 0.3187 0.3358
C16_59 C 0.21674(10) 0.30312(11) 0.37470(10)
C17_59 C 0.28933(16) 0.3078(2) 0.31944(15)
C18_59 C 0.29216(19) 0.32153(17) 0.3041(2)
H8_59 H 0.2829 0.3335 0.3032
O11_59 O 0.36635(6) 0.19911(7) 0.30262(8)
O12_59 O 0.39438(8) 0.21958(6) 0.30235(7)
C22_59 C 0.36139(10) 0.23549(10) 0.30560(12)
C23_59 C 0.36977(12) 0.25529(11) 0.30148(12)
H10_59 H 0.3845 0.2570 0.2982
C24_59 C 0.35660(15) 0.27223(14) 0.30217(13)
H11_59 H 0.3618 0.2857 0.2976
C25_59 C 0.33613(16) 0.27071(13) 0.30914(14)
C26_59 C 0.32738(14) 0.25117(16) 0.31454(19)
H12_59 H 0.3129 0.2497 0.3186
C27_59 C 0.34076(14) 0.23434(14) 0.31361(17)
H13_59 H 0.3358 0.2210 0.3187
C28_59 C 0.37470(10) 0.21674(10) 0.30312(11)
C29_59 C 0.31944(15) 0.28933(16) 0.3078(2)
C30_59 C 0.3041(2) 0.29216(19) 0.32153(17)
H14_59 H 0.3032 0.2829 0.3335
O13_59 O 0.30262(8) 0.36635(6) 0.19911(7)
O14_59 O 0.30235(7) 0.39438(8) 0.21958(6)
C31_59 C 0.30560(12) 0.36139(10) 0.23549(10)
C32_59 C 0.30148(12) 0.36977(12) 0.25529(11)
H15_59 H 0.2982 0.3845 0.2570
C33_59 C 0.30217(13) 0.35660(15) 0.27223(14)
H16_59 H 0.2976 0.3618 0.2857
C34_59 C 0.30914(14) 0.33613(16) 0.27071(13)
C35_59 C 0.31454(19) 0.32738(14) 0.25117(16)
H17_59 H 0.3186 0.3129 0.2497
C36_59 C 0.31361(17) 0.34076(14) 0.23434(14)
H18_59 H 0.3187 0.3358 0.2210
C37_59 C 0.30312(11) 0.37470(10) 0.21674(10)
C38_59 C 0.3078(2) 0.31944(15) 0.28933(16)
C39_59 C 0.32153(17) 0.3041(2) 0.29216(19)
H19_59 H 0.3335 0.3032 0.2829
C10_60 C 0.01451(10) 0.80560(12) 0.38861(10)
H6_60 H 0.0003 0.8186 0.4371
C15_60 C 0.01566(14) 0.81361(17) 0.40924(14)
H7_60 H 0.0290 0.8187 0.4142
C16_60 C 0.03326(10) 0.80312(11) 0.37530(10)
C11_60 C 0.99471(11) 0.80148(12) 0.38023(12)
H4_60 H 0.9930 0.7982 0.3655
C12_60 C 0.97777(14) 0.80217(13) 0.39340(15)
H5_60 H 0.9643 0.7976 0.3882
C13_60 C 0.97929(13) 0.80914(14) 0.41387(16)
C14_60 C 0.99883(16) 0.81454(19) 0.42262(14)
C17_60 C 0.96067(16) 0.8078(2) 0.43056(15)
C18_60 C 0.95784(19) 0.82153(17) 0.4459(2)
H8_60 H 0.9671 0.8335 0.4468
O11_60 O 0.88365(6) 0.69911(7) 0.44738(8)
O12_60 O 0.85562(8) 0.71958(6) 0.44765(7)
C22_60 C 0.88861(10) 0.73549(10) 0.44440(12)
C23_60 C 0.88023(12) 0.75529(11) 0.44852(12)
H10_60 H 0.8655 0.7570 0.4518
C24_60 C 0.89340(15) 0.77223(14) 0.44783(13)
H11_60 H 0.8882 0.7857 0.4524
C25_60 C 0.91387(16) 0.77071(13) 0.44086(14)
C26_60 C 0.92262(14) 0.75117(16) 0.43546(19)
H12_60 H 0.9371 0.7497 0.4314
C27_60 C 0.90924(14) 0.73434(14) 0.43639(17)
H13_60 H 0.9142 0.7210 0.4313
C28_60 C 0.87530(10) 0.71674(10) 0.44688(11)
C29_60 C 0.93056(15) 0.78933(16) 0.4422(2)
C30_60 C 0.9459(2) 0.79216(19) 0.42847(17)
H14_60 H 0.9468 0.7829 0.4165
O13_60 O 0.94738(8) 0.86635(6) 0.55089(7)
O14_60 O 0.94765(7) 0.89438(8) 0.53042(6)
C31_60 C 0.94440(12) 0.86139(10) 0.51451(10)
C32_60 C 0.94852(12) 0.86977(12) 0.49471(11)
H15_60 H 0.9518 0.8845 0.4930
C33_60 C 0.94783(13) 0.85660(15) 0.47777(14)
H16_60 H 0.9524 0.8618 0.4643
C34_60 C 0.94086(14) 0.83613(16) 0.47929(13)
C35_60 C 0.93546(19) 0.82738(14) 0.49883(16)
H17_60 H 0.9314 0.8129 0.5003
C36_60 C 0.93639(17) 0.84076(14) 0.51566(14)
H18_60 H 0.9313 0.8358 0.5290
C37_60 C 0.94688(11) 0.87470(10) 0.53326(10)
C38_60 C 0.9422(2) 0.81944(15) 0.46067(16)
C39_60 C 0.92847(17) 0.8041(2) 0.45784(19)
H19_60 H 0.9165 0.8032 0.4671
C11_61 C 0.00529(11) 0.63023(12) 0.55148(12)
H4_61 H 0.0070 0.6155 0.5482
C12_61 C 0.02223(14) 0.64340(15) 0.55217(13)
H5_61 H 0.0357 0.6382 0.5476
C13_61 C 0.02071(13) 0.66387(16) 0.55914(14)
C14_61 C 0.00117(16) 0.67262(14) 0.56454(19)
C17_61 C 0.03933(16) 0.68056(15) 0.5578(2)
O10_45 O 0.00120(5) 0.58044(5) 0.52016(6)
C18_61 C 0.04216(19) 0.6959(2) 0.57153(17)
H8_61 H 0.0329 0.6968 0.5835
C19_45 C 0.01625(5) 0.54747(5) 0.53216(5)
C20_45 C 0.03172(5) 0.54750(5) 0.51662(5)
H9_45 H 0.0315 0.5583 0.5060
O11_61 O 0.11635(6) 0.69738(8) 0.44911(7)
O12_61 O 0.14438(8) 0.69765(7) 0.46958(6)
C22_61 C 0.11139(10) 0.69440(12) 0.48549(10)
C23_61 C 0.11977(12) 0.69852(12) 0.50529(11)
H10_61 H 0.1345 0.7018 0.5070
C24_61 C 0.10660(15) 0.69783(13) 0.52223(14)
H11_61 H 0.1118 0.7024 0.5357
C25_61 C 0.08613(16) 0.69086(14) 0.52071(13)
C26_61 C 0.07738(14) 0.68546(19) 0.50117(16)
H12_61 H 0.0629 0.6814 0.4997
C27_61 C 0.09076(14) 0.68639(17) 0.48434(14)
H13_61 H 0.0858 0.6813 0.4710
C28_61 C 0.12470(10) 0.69688(11) 0.46674(10)
C29_61 C 0.06944(15) 0.6922(2) 0.53933(16)
C30_61 C 0.0541(2) 0.67847(17) 0.54216(19)
H14_61 H 0.0532 0.6665 0.5329
O13_61 O 0.05262(8) 0.80089(7) 0.61635(6)
O14_61 O 0.05235(7) 0.78042(6) 0.64438(8)
C31_61 C 0.05560(12) 0.76451(10) 0.61139(10)
C32_61 C 0.05148(12) 0.74471(11) 0.61977(12)
H15_61 H 0.0482 0.7430 0.6345
C33_61 C 0.05217(13) 0.72777(14) 0.60660(15)
H16_61 H 0.0476 0.7143 0.6118
C34_61 C 0.05914(14) 0.72929(13) 0.58613(16)
C35_61 C 0.06454(19) 0.74883(16) 0.57738(14)
H17_61 H 0.0686 0.7503 0.5629
C36_61 C 0.06361(17) 0.76566(14) 0.59076(14)
H18_61 H 0.0687 0.7790 0.5858
C37_61 C 0.05312(11) 0.78326(10) 0.62470(10)
C38_61 C 0.0578(2) 0.71067(16) 0.56944(15)
C39_61 C 0.07153(17) 0.70784(19) 0.5541(2)
H19_61 H 0.0835 0.7171 0.5532
O15_45 O 0.05931(5) 0.54110(5) 0.48203(4)
O16_45 O 0.08044(5) 0.52016(6) 0.50120(5)
C40_45 C 0.04747(5) 0.53216(5) 0.51625(5)
C41_45 C 0.04750(5) 0.51662(5) 0.53172(5)
H20_45 H 0.0583 0.5060 0.5315
C42_45 C 0.06363(6) 0.53047(7) 0.49821(7)
O17_45 O 0.04110(5) 0.48203(4) 0.55931(5)
O18_45 O 0.02016(6) 0.50120(5) 0.58044(5)
C43_45 C 0.03216(5) 0.51625(5) 0.54747(5)
C44_45 C 0.01662(5) 0.53172(5) 0.54750(5)
H21_45 H 0.0060 0.5315 0.5583
C45_45 C 0.03047(7) 0.49821(7) 0.56363(6)
O19_45 O 0.08859(5) 0.50645(6) 0.45246(4)
O20_45 O 0.11316(7) 0.51486(7) 0.42874(8)
O21_25 O 0.15109(6) 0.46053(8) 0.38896(7)
O22_45 O 0.14396(8) 0.42820(10) 0.39292(9)
C46_45 C 0.10443(7) 0.47842(9) 0.43160(7)
C47_45 C 0.12084(8) 0.47326(10) 0.41733(7)
H22_45 H 0.1299 0.4840 0.4116
C48_45 C 0.12334(8) 0.45250(11) 0.41206(9)
C49_45 C 0.11106(7) 0.43655(10) 0.42121(7)
H23_45 H 0.1136 0.4220 0.4180
C50_45 C 0.09442(6) 0.44246(9) 0.43565(7)
C51_45 C 0.09150(6) 0.46384(9) 0.43991(7)
H24_45 H 0.0801 0.4682 0.4489
C52_45 C 0.10213(8) 0.50162(12) 0.43817(9)
C53_45 C 0.14060(10) 0.44619(13) 0.39701(10)
C54_45 C 0.08031(7) 0.42607(10) 0.44443(8)
O25_45 O 0.00645(6) 0.45246(4) 0.58859(5)
O26_45 O 0.01486(7) 0.42874(8) 0.61316(7)
C61_45 C 0.00162(12) 0.43817(9) 0.60213(8)
O31_25 O 0.13896(7) 0.53947(8) 0.40109(6)
O1_45 O 0.95246(4) 0.58859(5) 0.50645(6)
O2_45 O 0.92874(8) 0.61316(7) 0.51486(7)
O3_29 O 0.88896(7) 0.65109(6) 0.46053(8)
O4_45 O 0.89292(9) 0.64396(8) 0.42820(10)
C1_45 C 0.93160(7) 0.60443(7) 0.47842(9)
C2_45 C 0.91733(7) 0.62084(8) 0.47326(10)
H1_45 H 0.9116 0.6299 0.4840
C3_45 C 0.91206(9) 0.62334(8) 0.45250(11)
C4_45 C 0.92121(7) 0.61106(7) 0.43655(10)
H2_45 H 0.9180 0.6136 0.4220
C5_45 C 0.93565(7) 0.59442(6) 0.44246(9)
C6_45 C 0.93991(7) 0.59150(6) 0.46384(9)
H3_45 H 0.9489 0.5801 0.4682
C7_45 C 0.93817(9) 0.60213(8) 0.50162(12)
C8_45 C 0.89701(10) 0.64060(10) 0.44619(13)
C9_45 C 0.94443(8) 0.58031(7) 0.42607(10)
O7_21 O 0.94911(7) 0.63365(6) 0.55262(8)
O8_21 O 0.96958(6) 0.60562(8) 0.55235(7)
C10_61 C 0.98549(10) 0.63861(10) 0.55560(12)
H6_61 H 0.9997 0.6871 0.5686
C15_61 C 0.98434(14) 0.65924(14) 0.56361(17)
H7_61 H 0.9710 0.6642 0.5687
C16_61 C 0.96674(10) 0.62530(10) 0.55312(11)
O9_45 O 0.98203(4) 0.55931(5) 0.54110(5)
C21_45 C 0.99821(7) 0.56363(6) 0.53047(7)
O28_45 O 0.92820(10) 0.39292(9) 0.64396(8)
C55_45 C 0.97842(9) 0.43160(7) 0.60443(7)
C56_45 C 0.97326(10) 0.41733(7) 0.62084(8)
H25_45 H 0.9840 0.4116 0.6299
C57_45 C 0.95250(11) 0.41206(9) 0.62334(8)
C58_45 C 0.93655(10) 0.42121(7) 0.61106(7)
H26_45 H 0.9220 0.4180 0.6136
C59_45 C 0.94246(9) 0.43565(7) 0.59442(6)
C60_45 C 0.96384(9) 0.43991(7) 0.59150(6)
H27_45 H 0.9682 0.4489 0.5801
C62_45 C 0.94619(13) 0.39701(10) 0.64060(10)
C63_45 C 0.92607(10) 0.44443(8) 0.58031(7)
O33_29 O 0.90109(6) 0.63896(7) 0.53947(8)
O1_46 O 0.79754(4) 0.66141(5) 0.00645(6)
O2_46 O 0.82126(8) 0.63684(7) 0.01486(7)
C7_46 C 0.81183(9) 0.64787(8) 0.00162(12)
O7_22 O 0.80089(7) 0.61635(6) 0.05262(8)
O8_22 O 0.78042(6) 0.64438(8) 0.05235(7)
C10_62 C 0.76451(10) 0.61139(10) 0.05560(12)
C11_62 C 0.74471(11) 0.61977(12) 0.05148(12)
H4_62 H 0.7430 0.6345 0.0482
C12_62 C 0.72777(14) 0.60660(15) 0.05217(13)
H5_62 H 0.7143 0.6118 0.0476
C13_62 C 0.72929(13) 0.58613(16) 0.05914(14)
C14_62 C 0.74883(16) 0.57738(14) 0.06454(19)
H6_62 H 0.7503 0.5629 0.0686
C15_62 C 0.76566(14) 0.59076(14) 0.06361(17)
H7_62 H 0.7790 0.5858 0.0687
C16_62 C 0.78326(10) 0.62470(10) 0.05312(11)
C17_62 C 0.71067(16) 0.56944(15) 0.0578(2)
O9_46 O 0.76797(4) 0.69069(5) 0.04110(5)
O10_46 O 0.74880(5) 0.66956(5) 0.02016(6)
C18_62 C 0.70784(19) 0.5541(2) 0.07153(17)
H8_62 H 0.7171 0.5532 0.0835
C19_46 C 0.73375(5) 0.70253(5) 0.03216(5)
C20_46 C 0.71828(5) 0.70250(5) 0.01662(5)
H9_46 H 0.7185 0.6917 0.0060
C21_46 C 0.75179(7) 0.68637(6) 0.03047(7)
C23_62 C 0.63023(12) 0.55148(12) 0.00529(11)
H10_62 H 0.6155 0.5482 0.0070
C24_62 C 0.64340(15) 0.55217(13) 0.02223(14)
H11_62 H 0.6382 0.5476 0.0357
C25_62 C 0.66387(16) 0.55914(14) 0.02071(13)
C26_62 C 0.67262(14) 0.56454(19) 0.00117(16)
C29_62 C 0.68056(15) 0.5578(2) 0.03933(16)
C30_62 C 0.6959(2) 0.57153(17) 0.04216(19)
H14_62 H 0.6968 0.5835 0.0329
O13_62 O 0.69738(8) 0.44911(7) 0.11635(6)
O14_62 O 0.69765(7) 0.46958(6) 0.14438(8)
C31_62 C 0.69440(12) 0.48549(10) 0.11139(10)
C32_62 C 0.69852(12) 0.50529(11) 0.11977(12)
H15_62 H 0.7018 0.5070 0.1345
C33_62 C 0.69783(13) 0.52223(14) 0.10660(15)
H16_62 H 0.7024 0.5357 0.1118
C34_62 C 0.69086(14) 0.52071(13) 0.08613(16)
C35_62 C 0.68546(19) 0.50117(16) 0.07738(14)
H17_62 H 0.6814 0.4997 0.0629
C36_62 C 0.68639(17) 0.48434(14) 0.09076(14)
H18_62 H 0.6813 0.4710 0.0858
C37_62 C 0.69688(11) 0.46674(10) 0.12470(10)
C38_62 C 0.6922(2) 0.53933(16) 0.06944(15)
C39_62 C 0.67847(17) 0.54216(19) 0.0541(2)
H19_62 H 0.6665 0.5329 0.0532
O16_46 O 0.66956(5) 0.72984(6) 0.00120(5)
C40_46 C 0.70253(5) 0.71784(5) 0.01625(5)
C41_46 C 0.70250(5) 0.73338(5) 0.03172(5)
H20_46 H 0.6917 0.7440 0.0315
O17_46 O 0.70890(5) 0.76797(4) 0.05931(5)
O18_46 O 0.72984(6) 0.74880(5) 0.08044(5)
C43_46 C 0.71784(5) 0.73375(5) 0.04747(5)
C44_46 C 0.73338(5) 0.71828(5) 0.04750(5)
H21_46 H 0.7440 0.7185 0.0583
C45_46 C 0.71953(7) 0.75179(7) 0.06363(6)
O25_46 O 0.74355(6) 0.79754(4) 0.08859(5)
O26_46 O 0.73514(7) 0.82126(8) 0.11316(7)
O28_46 O 0.82180(10) 0.85708(9) 0.14396(8)
C55_46 C 0.77158(9) 0.81840(7) 0.10443(7)
C56_46 C 0.77674(10) 0.83267(7) 0.12084(8)
H25_46 H 0.7660 0.8384 0.1299
C57_46 C 0.79750(11) 0.83794(9) 0.12334(8)
C58_46 C 0.81345(10) 0.82879(7) 0.11106(7)
H26_46 H 0.8280 0.8320 0.1136
C59_46 C 0.80754(9) 0.81435(7) 0.09442(6)
C60_46 C 0.78616(9) 0.81009(7) 0.09150(6)
H27_46 H 0.7818 0.8011 0.0801
C61_46 C 0.74838(12) 0.81183(9) 0.10213(8)
C62_46 C 0.80381(13) 0.85299(10) 0.14060(10)
C63_46 C 0.82393(10) 0.80557(8) 0.08031(7)
O33_30 O 0.84891(6) 0.61104(7) 0.03947(8)
O3_30 O 0.86104(7) 0.59891(6) 0.96053(8)
O4_46 O 0.85708(9) 0.60604(8) 0.92820(10)
C1_46 C 0.81840(7) 0.64557(7) 0.97842(9)
C2_46 C 0.83267(7) 0.62916(8) 0.97326(10)
H1_46 H 0.8384 0.6201 0.9840
C3_46 C 0.83794(9) 0.62666(8) 0.95250(11)
C4_46 C 0.82879(7) 0.63894(7) 0.93655(10)
H2_46 H 0.8320 0.6364 0.9220
C5_46 C 0.81435(7) 0.65558(6) 0.94246(9)
C6_46 C 0.81009(7) 0.65850(6) 0.96384(9)
H3_46 H 0.8011 0.6699 0.9682
C8_46 C 0.85299(10) 0.60940(10) 0.94619(13)
C9_46 C 0.80557(8) 0.66969(7) 0.92607(10)
O11_62 O 0.63365(6) 0.55262(8) 0.94911(7)
O12_62 O 0.60562(8) 0.55235(7) 0.96958(6)
C22_62 C 0.63861(10) 0.55560(12) 0.98549(10)
H12_62 H 0.6871 0.5686 0.9997
C27_62 C 0.65924(14) 0.56361(17) 0.98434(14)
H13_62 H 0.6642 0.5687 0.9710
C28_62 C 0.62530(10) 0.55312(11) 0.96674(10)
O15_46 O 0.69069(5) 0.70890(5) 0.98203(4)
C42_46 C 0.68637(6) 0.71953(7) 0.99821(7)
O19_46 O 0.66141(5) 0.74355(6) 0.95246(4)
O20_46 O 0.63684(7) 0.73514(7) 0.92874(8)
O21_26 O 0.59891(6) 0.78947(8) 0.88896(7)
O22_46 O 0.60604(8) 0.82180(10) 0.89292(9)
C46_46 C 0.64557(7) 0.77158(9) 0.93160(7)
C47_46 C 0.62916(8) 0.77674(10) 0.91733(7)
H22_46 H 0.6201 0.7660 0.9116
C48_46 C 0.62666(8) 0.79750(11) 0.91206(9)
C49_46 C 0.63894(7) 0.81345(10) 0.92121(7)
H23_46 H 0.6364 0.8280 0.9180
C50_46 C 0.65558(6) 0.80754(9) 0.93565(7)
C51_46 C 0.65850(6) 0.78616(9) 0.93991(7)
H24_46 H 0.6699 0.7818 0.9489
C52_46 C 0.64787(8) 0.74838(12) 0.93817(9)
C53_46 C 0.60940(10) 0.80381(13) 0.89701(10)
C54_46 C 0.66969(7) 0.82393(10) 0.94443(8)
O31_26 O 0.61104(7) 0.71053(8) 0.90109(6)
O1_47 O 0.45246(4) 0.16141(5) 0.74355(6)
O2_47 O 0.42874(8) 0.13684(7) 0.73514(7)
O3_31 O 0.38896(7) 0.09891(6) 0.78947(8)
O4_47 O 0.39292(9) 0.10604(8) 0.82180(10)
C1_47 C 0.43160(7) 0.14557(7) 0.77158(9)
C2_47 C 0.41733(7) 0.12916(8) 0.77674(10)
H1_47 H 0.4116 0.1201 0.7660
C3_47 C 0.41206(9) 0.12666(8) 0.79750(11)
C4_47 C 0.42121(7) 0.13894(7) 0.81345(10)
H2_47 H 0.4180 0.1364 0.8280
C5_47 C 0.43565(7) 0.15558(6) 0.80754(9)
C6_47 C 0.43991(7) 0.15850(6) 0.78616(9)
H3_47 H 0.4489 0.1699 0.7818
C7_47 C 0.43817(9) 0.14787(8) 0.74838(12)
C8_47 C 0.39701(10) 0.10940(10) 0.80381(13)
C9_47 C 0.44443(8) 0.16969(7) 0.82393(10)
O7_23 O 0.44911(7) 0.11635(6) 0.69738(8)
O8_23 O 0.46958(6) 0.14438(8) 0.69765(7)
C10_63 C 0.48549(10) 0.11139(10) 0.69440(12)
C11_63 C 0.50529(11) 0.11977(12) 0.69852(12)
H4_63 H 0.5070 0.1345 0.7018
C12_63 C 0.52223(14) 0.10660(15) 0.69783(13)
H5_63 H 0.5357 0.1118 0.7024
C13_63 C 0.52071(13) 0.08613(16) 0.69086(14)
C14_63 C 0.50117(16) 0.07738(14) 0.68546(19)
H6_63 H 0.4997 0.0629 0.6814
C15_63 C 0.48434(14) 0.09076(14) 0.68639(17)
H7_63 H 0.4710 0.0858 0.6813
C16_63 C 0.46674(10) 0.12470(10) 0.69688(11)
C17_63 C 0.53933(16) 0.06944(15) 0.6922(2)
O9_47 O 0.48203(4) 0.19069(5) 0.70890(5)
O10_47 O 0.50120(5) 0.16956(5) 0.72984(6)
C18_63 C 0.54216(19) 0.0541(2) 0.67847(17)
H8_63 H 0.5329 0.0532 0.6665
C19_47 C 0.51625(5) 0.20253(5) 0.71784(5)
C20_47 C 0.53172(5) 0.20250(5) 0.73338(5)
H9_47 H 0.5315 0.1917 0.7440
C21_47 C 0.49821(7) 0.18637(6) 0.71953(7)
O11_63 O 0.61635(6) 0.05262(8) 0.80089(7)
O12_63 O 0.64438(8) 0.05235(7) 0.78042(6)
C22_63 C 0.61139(10) 0.05560(12) 0.76451(10)
C23_63 C 0.61977(12) 0.05148(12) 0.74471(11)
H10_63 H 0.6345 0.0482 0.7430
C24_63 C 0.60660(15) 0.05217(13) 0.72777(14)
H11_63 H 0.6118 0.0476 0.7143
C25_63 C 0.58613(16) 0.05914(14) 0.72929(13)
C26_63 C 0.57738(14) 0.06454(19) 0.74883(16)
H12_63 H 0.5629 0.0686 0.7503
C27_63 C 0.59076(14) 0.06361(17) 0.76566(14)
H13_63 H 0.5858 0.0687 0.7790
C28_63 C 0.62470(10) 0.05312(11) 0.78326(10)
C29_63 C 0.56944(15) 0.0578(2) 0.71067(16)
C30_63 C 0.5541(2) 0.07153(17) 0.70784(19)
H14_63 H 0.5532 0.0835 0.7171
C32_63 C 0.55148(12) 0.00529(11) 0.63023(12)
H15_63 H 0.5482 0.0070 0.6155
C33_63 C 0.55217(13) 0.02223(14) 0.64340(15)
H16_63 H 0.5476 0.0357 0.6382
C34_63 C 0.55914(14) 0.02071(13) 0.66387(16)
C35_63 C 0.56454(19) 0.00117(16) 0.67262(14)
C38_63 C 0.5578(2) 0.03933(16) 0.68056(15)
C39_63 C 0.57153(17) 0.04216(19) 0.6959(2)
H19_63 H 0.5835 0.0329 0.6968
O15_47 O 0.55931(5) 0.20890(5) 0.76797(4)
O16_47 O 0.58044(5) 0.22984(6) 0.74880(5)
C40_47 C 0.54747(5) 0.21784(5) 0.73375(5)
C41_47 C 0.54750(5) 0.23338(5) 0.71828(5)
H20_47 H 0.5583 0.2440 0.7185
C42_47 C 0.56363(6) 0.21953(7) 0.75179(7)
O17_47 O 0.54110(5) 0.26797(4) 0.69069(5)
O18_47 O 0.52016(6) 0.24880(5) 0.66956(5)
C43_47 C 0.53216(5) 0.23375(5) 0.70253(5)
C44_47 C 0.51662(5) 0.21828(5) 0.70250(5)
H21_47 H 0.5060 0.2185 0.6917
C45_47 C 0.53047(7) 0.25179(7) 0.68637(6)
O19_47 O 0.58859(5) 0.24355(6) 0.79754(4)
O20_47 O 0.61316(7) 0.23514(7) 0.82126(8)
O21_27 O 0.65109(6) 0.28947(8) 0.86104(7)
O22_47 O 0.64396(8) 0.32180(10) 0.85708(9)
C46_47 C 0.60443(7) 0.27158(9) 0.81840(7)
C47_47 C 0.62084(8) 0.27674(10) 0.83267(7)
H22_47 H 0.6299 0.2660 0.8384
C48_47 C 0.62334(8) 0.29750(11) 0.83794(9)
C49_47 C 0.61106(7) 0.31345(10) 0.82879(7)
H23_47 H 0.6136 0.3280 0.8320
C50_47 C 0.59442(6) 0.30754(9) 0.81435(7)
C51_47 C 0.59150(6) 0.28616(9) 0.81009(7)
H24_47 H 0.5801 0.2818 0.8011
C52_47 C 0.60213(8) 0.24838(12) 0.81183(9)
C53_47 C 0.64060(10) 0.30381(13) 0.85299(10)
C54_47 C 0.58031(7) 0.32393(10) 0.80557(8)
O25_47 O 0.50645(6) 0.29754(4) 0.66141(5)
O26_47 O 0.51486(7) 0.32126(8) 0.63684(7)
O28_47 O 0.42820(10) 0.35708(9) 0.60604(8)
C55_47 C 0.47842(9) 0.31840(7) 0.64557(7)
C56_47 C 0.47326(10) 0.33267(7) 0.62916(8)
H25_47 H 0.4840 0.3384 0.6201
C57_47 C 0.45250(11) 0.33794(9) 0.62666(8)
C58_47 C 0.43655(10) 0.32879(7) 0.63894(7)
H26_47 H 0.4220 0.3320 0.6364
C59_47 C 0.44246(9) 0.31435(7) 0.65558(6)
C60_47 C 0.46384(9) 0.31009(7) 0.65850(6)
H27_47 H 0.4682 0.3011 0.6699
C61_47 C 0.50162(12) 0.31183(9) 0.64787(8)
C62_47 C 0.44619(13) 0.35299(10) 0.60940(10)
C63_47 C 0.42607(10) 0.30557(8) 0.66969(7)
O31_27 O 0.63896(7) 0.21053(8) 0.84891(6)
O33_31 O 0.40109(6) 0.11104(7) 0.71053(8)
O13_63 O 0.55262(8) 0.94911(7) 0.63365(6)
O14_63 O 0.55235(7) 0.96958(6) 0.60562(8)
C31_63 C 0.55560(12) 0.98549(10) 0.63861(10)
H17_63 H 0.5686 0.9997 0.6871
C36_63 C 0.56361(17) 0.98434(14) 0.65924(14)
H18_63 H 0.5687 0.9710 0.6642
C37_63 C 0.55312(11) 0.96674(10) 0.62530(10)
O1_48 O 0.29754(4) 0.08859(5) 0.24355(6)
O2_48 O 0.32126(8) 0.11316(7) 0.23514(7)
O3_32 O 0.36104(7) 0.15109(6) 0.28947(8)
O4_48 O 0.35708(9) 0.14396(8) 0.32180(10)
C1_48 C 0.31840(7) 0.10443(7) 0.27158(9)
C2_48 C 0.33267(7) 0.12084(8) 0.27674(10)
H1_48 H 0.3384 0.1299 0.2660
C3_48 C 0.33794(9) 0.12334(8) 0.29750(11)
C4_48 C 0.32879(7) 0.11106(7) 0.31345(10)
H2_48 H 0.3320 0.1136 0.3280
C5_48 C 0.31435(7) 0.09442(6) 0.30754(9)
C6_48 C 0.31009(7) 0.09150(6) 0.28616(9)
H3_48 H 0.3011 0.0801 0.2818
C7_48 C 0.31183(9) 0.10213(8) 0.24838(12)
C8_48 C 0.35299(10) 0.14060(10) 0.30381(13)
C9_48 C 0.30557(8) 0.08031(7) 0.32393(10)
O7_24 O 0.30089(7) 0.13365(6) 0.19738(8)
O8_24 O 0.28042(6) 0.10562(8) 0.19765(7)
C10_64 C 0.26451(10) 0.13861(10) 0.19440(12)
C11_64 C 0.24471(11) 0.13023(12) 0.19852(12)
H4_64 H 0.2430 0.1155 0.2018
C12_64 C 0.22777(14) 0.14340(15) 0.19783(13)
H5_64 H 0.2143 0.1382 0.2024
C13_64 C 0.22929(13) 0.16387(16) 0.19086(14)
C14_64 C 0.24883(16) 0.17262(14) 0.18546(19)
H6_64 H 0.2503 0.1871 0.1814
C15_64 C 0.26566(14) 0.15924(14) 0.18639(17)
H7_64 H 0.2790 0.1642 0.1813
C16_64 C 0.28326(10) 0.12530(10) 0.19688(11)
C17_64 C 0.21067(16) 0.18056(15) 0.1922(2)
O9_48 O 0.26797(4) 0.05931(5) 0.20890(5)
O10_48 O 0.24880(5) 0.08044(5) 0.22984(6)
C18_64 C 0.20784(19) 0.1959(2) 0.17847(17)
H8_64 H 0.2171 0.1968 0.1665
C19_48 C 0.23375(5) 0.04747(5) 0.21784(5)
C20_48 C 0.21828(5) 0.04750(5) 0.23338(5)
H9_48 H 0.2185 0.0583 0.2440
C21_48 C 0.25179(7) 0.06363(6) 0.21953(7)
O11_64 O 0.13365(6) 0.19738(8) 0.30089(7)
O12_64 O 0.10562(8) 0.19765(7) 0.28042(6)
C22_64 C 0.13861(10) 0.19440(12) 0.26451(10)
C23_64 C 0.13023(12) 0.19852(12) 0.24471(11)
H10_64 H 0.1155 0.2018 0.2430
C24_64 C 0.14340(15) 0.19783(13) 0.22777(14)
H11_64 H 0.1382 0.2024 0.2143
C25_64 C 0.16387(16) 0.19086(14) 0.22929(13)
C26_64 C 0.17262(14) 0.18546(19) 0.24883(16)
H12_64 H 0.1871 0.1814 0.2503
C27_64 C 0.15924(14) 0.18639(17) 0.26566(14)
H13_64 H 0.1642 0.1813 0.2790
C28_64 C 0.12530(10) 0.19688(11) 0.28326(10)
C29_64 C 0.18056(15) 0.1922(2) 0.21067(16)
C30_64 C 0.1959(2) 0.17847(17) 0.20784(19)
H14_64 H 0.1968 0.1665 0.2171
O13_64 O 0.19738(8) 0.30089(7) 0.13365(6)
O14_64 O 0.19765(7) 0.28042(6) 0.10562(8)
C31_64 C 0.19440(12) 0.26451(10) 0.13861(10)
C32_64 C 0.19852(12) 0.24471(11) 0.13023(12)
H15_64 H 0.2018 0.2430 0.1155
C33_64 C 0.19783(13) 0.22777(14) 0.14340(15)
H16_64 H 0.2024 0.2143 0.1382
C34_64 C 0.19086(14) 0.22929(13) 0.16387(16)
C35_64 C 0.18546(19) 0.24883(16) 0.17262(14)
H17_64 H 0.1814 0.2503 0.1871
C36_64 C 0.18639(17) 0.26566(14) 0.15924(14)
H18_64 H 0.1813 0.2790 0.1642
C37_64 C 0.19688(11) 0.28326(10) 0.12530(10)
C38_64 C 0.1922(2) 0.21067(16) 0.18056(15)
C39_64 C 0.17847(17) 0.20784(19) 0.1959(2)
H19_64 H 0.1665 0.2171 0.1968
O15_48 O 0.19069(5) 0.04110(5) 0.26797(4)
O16_48 O 0.16956(5) 0.02016(6) 0.24880(5)
C40_48 C 0.20253(5) 0.03216(5) 0.23375(5)
C41_48 C 0.20250(5) 0.01662(5) 0.21828(5)
H20_48 H 0.1917 0.0060 0.2185
C42_48 C 0.18637(6) 0.03047(7) 0.25179(7)
O18_48 O 0.22984(6) 0.00120(5) 0.16956(5)
C43_48 C 0.21784(5) 0.01625(5) 0.20253(5)
C44_48 C 0.23338(5) 0.03172(5) 0.20250(5)
H21_48 H 0.2440 0.0315 0.1917
O19_48 O 0.16141(5) 0.00645(6) 0.29754(4)
O20_48 O 0.13684(7) 0.01486(7) 0.32126(8)
C52_48 C 0.14787(8) 0.00162(12) 0.31183(9)
O31_28 O 0.11104(7) 0.03947(8) 0.34891(6)
O33_32 O 0.34891(6) 0.13896(7) 0.21053(8)
O17_48 O 0.20890(5) 0.98203(4) 0.19069(5)
C45_48 C 0.21953(7) 0.99821(7) 0.18637(6)
O21_28 O 0.09891(6) 0.96053(8) 0.36104(7)
O22_48 O 0.10604(8) 0.92820(10) 0.35708(9)
C46_48 C 0.14557(7) 0.97842(9) 0.31840(7)
C47_48 C 0.12916(8) 0.97326(10) 0.33267(7)
H22_48 H 0.1201 0.9840 0.3384
C48_48 C 0.12666(8) 0.95250(11) 0.33794(9)
C49_48 C 0.13894(7) 0.93655(10) 0.32879(7)
H23_48 H 0.1364 0.9220 0.3320
C50_48 C 0.15558(6) 0.94246(9) 0.31435(7)
C51_48 C 0.15850(6) 0.96384(9) 0.31009(7)
H24_48 H 0.1699 0.9682 0.3011
C53_48 C 0.10940(10) 0.94619(13) 0.35299(10)
C54_48 C 0.16969(7) 0.92607(10) 0.30557(8)
O25_48 O 0.24355(6) 0.95246(4) 0.16141(5)
O26_48 O 0.23514(7) 0.92874(8) 0.13684(7)
O28_48 O 0.32180(10) 0.89292(9) 0.10604(8)
C55_48 C 0.27158(9) 0.93160(7) 0.14557(7)
C56_48 C 0.27674(10) 0.91733(7) 0.12916(8)
H25_48 H 0.2660 0.9116 0.1201
C57_48 C 0.29750(11) 0.91206(9) 0.12666(8)
C58_48 C 0.31345(10) 0.92121(7) 0.13894(7)
H26_48 H 0.3280 0.9180 0.1364
C59_48 C 0.30754(9) 0.93565(7) 0.15558(6)
C60_48 C 0.28616(9) 0.93991(7) 0.15850(6)
H27_48 H 0.2818 0.9489 0.1699
C61_48 C 0.24838(12) 0.93817(9) 0.14787(8)
C62_48 C 0.30381(13) 0.89701(10) 0.10940(10)
C63_48 C 0.32393(10) 0.94443(8) 0.16969(7)
O1_49 O 0.83859(5) 0.70246(4) 0.49355(6)
O2_49 O 0.86316(7) 0.67874(8) 0.48514(7)
O4_49 O 0.89396(8) 0.64292(9) 0.57180(10)
C1_49 C 0.85443(7) 0.68160(7) 0.52158(9)
C2_49 C 0.87084(8) 0.66733(7) 0.52674(10)
H1_49 H 0.8799 0.6616 0.5160
C3_49 C 0.87334(8) 0.66206(9) 0.54750(11)
C4_49 C 0.86106(7) 0.67121(7) 0.56345(10)
H2_49 H 0.8636 0.6680 0.5780
C5_49 C 0.84442(6) 0.68565(7) 0.55754(9)
C6_49 C 0.84150(6) 0.68991(7) 0.53616(9)
H3_49 H 0.8301 0.6989 0.5318
C7_49 C 0.85213(8) 0.68817(9) 0.49838(12)
C8_49 C 0.89060(10) 0.64701(10) 0.55381(13)
C9_49 C 0.83031(7) 0.69443(8) 0.57393(10)
O9_49 O 0.80931(5) 0.73203(4) 0.45890(5)
O10_49 O 0.83044(5) 0.75120(5) 0.47984(6)
C19_49 C 0.79747(5) 0.76625(5) 0.46784(5)
C20_49 C 0.79750(5) 0.78172(5) 0.48338(5)
H9_49 H 0.8083 0.7815 0.4940
C21_49 C 0.81363(6) 0.74821(7) 0.46953(7)
O15_49 O 0.79110(5) 0.80931(5) 0.51797(4)
O16_49 O 0.77016(6) 0.83044(5) 0.49880(5)
C40_49 C 0.78216(5) 0.79747(5) 0.48375(5)
C41_49 C 0.76662(5) 0.79750(5) 0.46828(5)
H20_49 H 0.7560 0.8083 0.4685
C42_49 C 0.78047(7) 0.81363(6) 0.50179(7)
O17_49 O 0.73203(4) 0.79110(5) 0.44069(5)
O18_49 O 0.75120(5) 0.77016(6) 0.41956(5)
C43_49 C 0.76625(5) 0.78216(5) 0.45253(5)
C44_49 C 0.78172(5) 0.76662(5) 0.45250(5)
H21_49 H 0.7815 0.7560 0.4417
C45_49 C 0.74821(7) 0.78047(7) 0.43637(6)
O19_49 O 0.75645(6) 0.83859(5) 0.54754(4)
O20_49 O 0.76486(7) 0.86316(7) 0.57126(8)
O21_29 O 0.71053(8) 0.90109(6) 0.61104(7)
O22_49 O 0.67820(10) 0.89396(8) 0.60708(9)
C46_49 C 0.72842(9) 0.85443(7) 0.56840(7)
C47_49 C 0.72326(10) 0.87084(8) 0.58267(7)
H22_49 H 0.7340 0.8799 0.5884
C48_49 C 0.70250(11) 0.87334(8) 0.58794(9)
C49_49 C 0.68655(10) 0.86106(7) 0.57879(7)
H23_49 H 0.6720 0.8636 0.5820
C50_49 C 0.69246(9) 0.84442(6) 0.56435(7)
C51_49 C 0.71384(9) 0.84150(6) 0.56009(7)
H24_49 H 0.7182 0.8301 0.5511
C52_49 C 0.75162(12) 0.85213(8) 0.56183(9)
C53_49 C 0.69619(13) 0.89060(10) 0.60299(10)
C54_49 C 0.67607(10) 0.83031(7) 0.55557(8)
O25_49 O 0.70246(4) 0.75645(6) 0.41141(5)
O26_49 O 0.67874(8) 0.76486(7) 0.38684(7)
O28_49 O 0.64292(9) 0.67820(10) 0.35604(8)
C55_49 C 0.68160(7) 0.72842(9) 0.39557(7)
C56_49 C 0.66733(7) 0.72326(10) 0.37916(8)
H25_49 H 0.6616 0.7340 0.3701
C57_49 C 0.66206(9) 0.70250(11) 0.37666(8)
C58_49 C 0.67121(7) 0.68655(10) 0.38894(7)
H26_49 H 0.6680 0.6720 0.3864
C59_49 C 0.68565(7) 0.69246(9) 0.40558(6)
C60_49 C 0.68991(7) 0.71384(9) 0.40850(6)
H27_49 H 0.6989 0.7182 0.4199
C61_49 C 0.68817(9) 0.75162(12) 0.39787(8)
C62_49 C 0.64701(10) 0.69619(13) 0.35940(10)
C63_49 C 0.69443(8) 0.67607(10) 0.41969(7)
O31_29 O 0.78947(8) 0.88896(7) 0.59891(6)
O21_30 O 0.03947(8) 0.34891(6) 0.11104(7)
O22_50 O 0.07180(10) 0.35604(8) 0.10708(9)
C46_50 C 0.02158(9) 0.39557(7) 0.06840(7)
C47_50 C 0.02674(10) 0.37916(8) 0.08267(7)
H22_50 H 0.0160 0.3701 0.0884
C48_50 C 0.04750(11) 0.37666(8) 0.08794(9)
C49_50 C 0.06345(10) 0.38894(7) 0.07879(7)
H23_50 H 0.0780 0.3864 0.0820
C50_50 C 0.05754(9) 0.40558(6) 0.06435(7)
C51_50 C 0.03616(9) 0.40850(6) 0.06009(7)
H24_50 H 0.0318 0.4199 0.0511
C53_50 C 0.05381(13) 0.35940(10) 0.10299(10)
C54_50 C 0.07393(10) 0.41969(7) 0.05557(8)
O17_50 O 0.01797(4) 0.45890(5) 0.94069(5)
C45_50 C 0.00179(7) 0.46953(7) 0.93637(6)
O25_50 O 0.04754(4) 0.49355(6) 0.91141(5)
O26_50 O 0.07126(8) 0.48514(7) 0.88684(7)
O28_50 O 0.10708(9) 0.57180(10) 0.85604(8)
C55_50 C 0.06840(7) 0.52158(9) 0.89557(7)
C56_50 C 0.08267(7) 0.52674(10) 0.87916(8)
H25_50 H 0.0884 0.5160 0.8701
C57_50 C 0.08794(9) 0.54750(11) 0.87666(8)
C58_50 C 0.07879(7) 0.56345(10) 0.88894(7)
H26_50 H 0.0820 0.5780 0.8864
C59_50 C 0.06435(7) 0.55754(9) 0.90558(6)
C60_50 C 0.06009(7) 0.53616(9) 0.90850(6)
H27_50 H 0.0511 0.5318 0.9199
C61_50 C 0.06183(9) 0.49838(12) 0.89787(8)
C62_50 C 0.10299(10) 0.55381(13) 0.85940(10)
C63_50 C 0.05557(8) 0.57393(10) 0.91969(7)
O4_50 O 0.85604(8) 0.60708(9) 0.07180(10)
C1_50 C 0.89557(7) 0.56840(7) 0.02158(9)
C2_50 C 0.87916(8) 0.58267(7) 0.02674(10)
H1_50 H 0.8701 0.5884 0.0160
C3_50 C 0.87666(8) 0.58794(9) 0.04750(11)
C4_50 C 0.88894(7) 0.57879(7) 0.06345(10)
H2_50 H 0.8864 0.5820 0.0780
C5_50 C 0.90558(6) 0.56435(7) 0.05754(9)
C6_50 C 0.90850(6) 0.56009(7) 0.03616(9)
H3_50 H 0.9199 0.5511 0.0318
C8_50 C 0.85940(10) 0.60299(10) 0.05381(13)
C9_50 C 0.91969(7) 0.55557(8) 0.07393(10)
O15_50 O 0.95890(5) 0.44069(5) 0.01797(4)
C42_50 C 0.96953(7) 0.43637(6) 0.00179(7)
O19_50 O 0.99355(6) 0.41141(5) 0.04754(4)
O20_50 O 0.98514(7) 0.38684(7) 0.07126(8)
C52_50 C 0.99838(12) 0.39787(8) 0.06183(9)
O31_30 O 0.96053(8) 0.36104(7) 0.09891(6)
O1_50 O 0.91141(5) 0.54754(4) 0.99355(6)
O2_50 O 0.88684(7) 0.57126(8) 0.98514(7)
C7_50 C 0.89787(8) 0.56183(9) 0.99838(12)
O9_50 O 0.94069(5) 0.51797(4) 0.95890(5)
O10_50 O 0.91956(5) 0.49880(5) 0.97984(6)
C19_50 C 0.95253(5) 0.48375(5) 0.96784(5)
C20_50 C 0.95250(5) 0.46828(5) 0.98338(5)
H9_50 H 0.9417 0.4685 0.9940
C21_50 C 0.93637(6) 0.50179(7) 0.96953(7)
O16_50 O 0.97984(6) 0.41956(5) 0.99880(5)
C40_50 C 0.96784(5) 0.45253(5) 0.98375(5)
C41_50 C 0.98338(5) 0.45250(5) 0.96828(5)
H20_50 H 0.9940 0.4417 0.9685
O18_50 O 0.99880(5) 0.47984(6) 0.91956(5)
C43_50 C 0.98375(5) 0.46784(5) 0.95253(5)
C44_50 C 0.96828(5) 0.48338(5) 0.95250(5)
H21_50 H 0.9685 0.4940 0.9417
O1_51 O 0.41141(5) 0.20246(4) 0.25645(6)
O2_51 O 0.38684(7) 0.17874(8) 0.26486(7)
O4_51 O 0.35604(8) 0.14292(9) 0.17820(10)
C1_51 C 0.39557(7) 0.18160(7) 0.22842(9)
C2_51 C 0.37916(8) 0.16733(7) 0.22326(10)
H1_51 H 0.3701 0.1616 0.2340
C3_51 C 0.37666(8) 0.16206(9) 0.20250(11)
C4_51 C 0.38894(7) 0.17121(7) 0.18655(10)
H2_51 H 0.3864 0.1680 0.1720
C5_51 C 0.40558(6) 0.18565(7) 0.19246(9)
C6_51 C 0.40850(6) 0.18991(7) 0.21384(9)
H3_51 H 0.4199 0.1989 0.2182
C7_51 C 0.39787(8) 0.18817(9) 0.25162(12)
C8_51 C 0.35940(10) 0.14701(10) 0.19619(13)
C9_51 C 0.41969(7) 0.19443(8) 0.17607(10)
O9_51 O 0.44069(5) 0.23203(4) 0.29110(5)
O10_51 O 0.41956(5) 0.25120(5) 0.27016(6)
C19_51 C 0.45253(5) 0.26625(5) 0.28216(5)
C20_51 C 0.45250(5) 0.28172(5) 0.26662(5)
H9_51 H 0.4417 0.2815 0.2560
C21_51 C 0.43637(6) 0.24821(7) 0.28047(7)
O15_51 O 0.45890(5) 0.30931(5) 0.23203(4)
O16_51 O 0.47984(6) 0.33044(5) 0.25120(5)
C40_51 C 0.46784(5) 0.29747(5) 0.26625(5)
C41_51 C 0.48338(5) 0.29750(5) 0.28172(5)
H20_51 H 0.4940 0.3083 0.2815
C42_51 C 0.46953(7) 0.31363(6) 0.24821(7)
O17_51 O 0.51797(4) 0.29110(5) 0.30931(5)
O18_51 O 0.49880(5) 0.27016(6) 0.33044(5)
C43_51 C 0.48375(5) 0.28216(5) 0.29747(5)
C44_51 C 0.46828(5) 0.26662(5) 0.29750(5)
H21_51 H 0.4685 0.2560 0.3083
C45_51 C 0.50179(7) 0.28047(7) 0.31363(6)
O19_51 O 0.49355(6) 0.33859(5) 0.20246(4)
O20_51 O 0.48514(7) 0.36316(7) 0.17874(8)
O21_31 O 0.53947(8) 0.40109(6) 0.13896(7)
O22_51 O 0.57180(10) 0.39396(8) 0.14292(9)
C46_51 C 0.52158(9) 0.35443(7) 0.18160(7)
C47_51 C 0.52674(10) 0.37084(8) 0.16733(7)
H22_51 H 0.5160 0.3799 0.1616
C48_51 C 0.54750(11) 0.37334(8) 0.16206(9)
C49_51 C 0.56345(10) 0.36106(7) 0.17121(7)
H23_51 H 0.5780 0.3636 0.1680
C50_51 C 0.55754(9) 0.34442(6) 0.18565(7)
C51_51 C 0.53616(9) 0.34150(6) 0.18991(7)
H24_51 H 0.5318 0.3301 0.1989
C52_51 C 0.49838(12) 0.35213(8) 0.18817(9)
C53_51 C 0.55381(13) 0.39060(10) 0.14701(10)
C54_51 C 0.57393(10) 0.33031(7) 0.19443(8)
O25_51 O 0.54754(4) 0.25645(6) 0.33859(5)
O26_51 O 0.57126(8) 0.26486(7) 0.36316(7)
O28_51 O 0.60708(9) 0.17820(10) 0.39396(8)
C55_51 C 0.56840(7) 0.22842(9) 0.35443(7)
C56_51 C 0.58267(7) 0.22326(10) 0.37084(8)
H25_51 H 0.5884 0.2340 0.3799
C57_51 C 0.58794(9) 0.20250(11) 0.37334(8)
C58_51 C 0.57879(7) 0.18655(10) 0.36106(7)
H26_51 H 0.5820 0.1720 0.3636
C59_51 C 0.56435(7) 0.19246(9) 0.34442(6)
C60_51 C 0.56009(7) 0.21384(9) 0.34150(6)
H27_51 H 0.5511 0.2182 0.3301
C61_51 C 0.56183(9) 0.25162(12) 0.35213(8)
C62_51 C 0.60299(10) 0.19619(13) 0.39060(10)
C63_51 C 0.55557(8) 0.17607(10) 0.33031(7)
O31_31 O 0.46053(8) 0.38896(7) 0.15109(6)
O1_52 O 0.33859(5) 0.04754(4) 0.75645(6)
O2_52 O 0.36316(7) 0.07126(8) 0.76486(7)
O4_52 O 0.39396(8) 0.10708(9) 0.67820(10)
C1_52 C 0.35443(7) 0.06840(7) 0.72842(9)
C2_52 C 0.37084(8) 0.08267(7) 0.72326(10)
H1_52 H 0.3799 0.0884 0.7340
C3_52 C 0.37334(8) 0.08794(9) 0.70250(11)
C4_52 C 0.36106(7) 0.07879(7) 0.68655(10)
H2_52 H 0.3636 0.0820 0.6720
C5_52 C 0.34442(6) 0.06435(7) 0.69246(9)
C6_52 C 0.34150(6) 0.06009(7) 0.71384(9)
H3_52 H 0.3301 0.0511 0.7182
C7_52 C 0.35213(8) 0.06183(9) 0.75162(12)
C8_52 C 0.39060(10) 0.10299(10) 0.69619(13)
C9_52 C 0.33031(7) 0.05557(8) 0.67607(10)
O9_52 O 0.30931(5) 0.01797(4) 0.79110(5)
C21_52 C 0.31363(6) 0.00179(7) 0.78047(7)
O28_52 O 0.14292(9) 0.07180(10) 0.89396(8)
C55_52 C 0.18160(7) 0.02158(9) 0.85443(7)
C56_52 C 0.16733(7) 0.02674(10) 0.87084(8)
H25_52 H 0.1616 0.0160 0.8799
C57_52 C 0.16206(9) 0.04750(11) 0.87334(8)
C58_52 C 0.17121(7) 0.06345(10) 0.86106(7)
H26_52 H 0.1680 0.0780 0.8636
C59_52 C 0.18565(7) 0.05754(9) 0.84442(6)
C60_52 C 0.18991(7) 0.03616(9) 0.84150(6)
H27_52 H 0.1989 0.0318 0.8301
C62_52 C 0.14701(10) 0.05381(13) 0.89060(10)
C63_52 C 0.19443(8) 0.07393(10) 0.83031(7)
O10_52 O 0.33044(5) 0.99880(5) 0.77016(6)
C19_52 C 0.29747(5) 0.98375(5) 0.78216(5)
C20_52 C 0.29750(5) 0.96828(5) 0.76662(5)
H9_52 H 0.3083 0.9685 0.7560
O15_52 O 0.29110(5) 0.94069(5) 0.73203(4)
O16_52 O 0.27016(6) 0.91956(5) 0.75120(5)
C40_52 C 0.28216(5) 0.95253(5) 0.76625(5)
C41_52 C 0.26662(5) 0.95250(5) 0.78172(5)
H20_52 H 0.2560 0.9417 0.7815
C42_52 C 0.28047(7) 0.93637(6) 0.74821(7)
O17_52 O 0.23203(4) 0.95890(5) 0.80931(5)
O18_52 O 0.25120(5) 0.97984(6) 0.83044(5)
C43_52 C 0.26625(5) 0.96784(5) 0.79747(5)
C44_52 C 0.28172(5) 0.98338(5) 0.79750(5)
H21_52 H 0.2815 0.9940 0.8083
C45_52 C 0.24821(7) 0.96953(7) 0.81363(6)
O19_52 O 0.25645(6) 0.91141(5) 0.70246(4)
O20_52 O 0.26486(7) 0.88684(7) 0.67874(8)
O21_32 O 0.21053(8) 0.84891(6) 0.63896(7)
O22_52 O 0.17820(10) 0.85604(8) 0.64292(9)
C46_52 C 0.22842(9) 0.89557(7) 0.68160(7)
C47_52 C 0.22326(10) 0.87916(8) 0.66733(7)
H22_52 H 0.2340 0.8701 0.6616
C48_52 C 0.20250(11) 0.87666(8) 0.66206(9)
C49_52 C 0.18655(10) 0.88894(7) 0.67121(7)
H23_52 H 0.1720 0.8864 0.6680
C50_52 C 0.19246(9) 0.90558(6) 0.68565(7)
C51_52 C 0.21384(9) 0.90850(6) 0.68991(7)
H24_52 H 0.2182 0.9199 0.6989
C52_52 C 0.25162(12) 0.89787(8) 0.68817(9)
C53_52 C 0.19619(13) 0.85940(10) 0.64701(10)
C54_52 C 0.17607(10) 0.91969(7) 0.69443(8)
O25_52 O 0.20246(4) 0.99355(6) 0.83859(5)
O26_52 O 0.17874(8) 0.98514(7) 0.86316(7)
C61_52 C 0.18817(9) 0.99838(12) 0.85213(8)
O31_32 O 0.28947(8) 0.86104(7) 0.65109(6)
O1_53 O 0.45246(4) 0.08859(5) 0.50645(6)
O2_53 O 0.42874(8) 0.11316(7) 0.51486(7)
O4_53 O 0.39292(9) 0.14396(8) 0.42820(10)
C1_53 C 0.43160(7) 0.10443(7) 0.47842(9)
C2_53 C 0.41733(7) 0.12084(8) 0.47326(10)
H1_53 H 0.4116 0.1299 0.4840
C3_53 C 0.41206(9) 0.12334(8) 0.45250(11)
C4_53 C 0.42121(7) 0.11106(7) 0.43655(10)
H2_53 H 0.4180 0.1136 0.4220
C5_53 C 0.43565(7) 0.09442(6) 0.44246(9)
C6_53 C 0.43991(7) 0.09150(6) 0.46384(9)
H3_53 H 0.4489 0.0801 0.4682
C7_53 C 0.43817(9) 0.10213(8) 0.50162(12)
C8_53 C 0.39701(10) 0.14060(10) 0.44619(13)
C9_53 C 0.44443(8) 0.08031(7) 0.42607(10)
O9_53 O 0.48203(4) 0.05931(5) 0.54110(5)
O10_53 O 0.50120(5) 0.08044(5) 0.52016(6)
C19_53 C 0.51625(5) 0.04747(5) 0.53216(5)
C20_53 C 0.53172(5) 0.04750(5) 0.51662(5)
H9_53 H 0.5315 0.0583 0.5060
C21_53 C 0.49821(7) 0.06363(6) 0.53047(7)
O15_53 O 0.55931(5) 0.04110(5) 0.48203(4)
O16_53 O 0.58044(5) 0.02016(6) 0.50120(5)
C40_53 C 0.54747(5) 0.03216(5) 0.51625(5)
C41_53 C 0.54750(5) 0.01662(5) 0.53172(5)
H20_53 H 0.5583 0.0060 0.5315
C42_53 C 0.56363(6) 0.03047(7) 0.49821(7)
O18_53 O 0.52016(6) 0.00120(5) 0.58044(5)
C43_53 C 0.53216(5) 0.01625(5) 0.54747(5)
C44_53 C 0.51662(5) 0.03172(5) 0.54750(5)
H21_53 H 0.5060 0.0315 0.5583
O19_53 O 0.58859(5) 0.00645(6) 0.45246(4)
O20_53 O 0.61316(7) 0.01486(7) 0.42874(8)
C52_53 C 0.60213(8) 0.00162(12) 0.43817(9)
O17_53 O 0.54110(5) 0.98203(4) 0.55931(5)
C45_53 C 0.53047(7) 0.99821(7) 0.56363(6)
O22_53 O 0.64396(8) 0.92820(10) 0.39292(9)
C46_53 C 0.60443(7) 0.97842(9) 0.43160(7)
C47_53 C 0.62084(8) 0.97326(10) 0.41733(7)
H22_53 H 0.6299 0.9840 0.4116
C48_53 C 0.62334(8) 0.95250(11) 0.41206(9)
C49_53 C 0.61106(7) 0.93655(10) 0.42121(7)
H23_53 H 0.6136 0.9220 0.4180
C50_53 C 0.59442(6) 0.94246(9) 0.43565(7)
C51_53 C 0.59150(6) 0.96384(9) 0.43991(7)
H24_53 H 0.5801 0.9682 0.4489
C53_53 C 0.64060(10) 0.94619(13) 0.39701(10)
C54_53 C 0.58031(7) 0.92607(10) 0.44443(8)
O25_53 O 0.50645(6) 0.95246(4) 0.58859(5)
O26_53 O 0.51486(7) 0.92874(8) 0.61316(7)
O27_29 O 0.46053(8) 0.88896(7) 0.65109(6)
O28_53 O 0.42820(10) 0.89292(9) 0.64396(8)
C55_53 C 0.47842(9) 0.93160(7) 0.60443(7)
C56_53 C 0.47326(10) 0.91733(7) 0.62084(8)
H25_53 H 0.4840 0.9116 0.6299
C57_53 C 0.45250(11) 0.91206(9) 0.62334(8)
C58_53 C 0.43655(10) 0.92121(7) 0.61106(7)
H26_53 H 0.4220 0.9180 0.6136
C59_53 C 0.44246(9) 0.93565(7) 0.59442(6)
C60_53 C 0.46384(9) 0.93991(7) 0.59150(6)
H27_53 H 0.4682 0.9489 0.5801
C61_53 C 0.50162(12) 0.93817(9) 0.60213(8)
C62_53 C 0.44619(13) 0.89701(10) 0.64060(10)
C63_53 C 0.42607(10) 0.94443(8) 0.58031(7)
O32_29 O 0.53947(8) 0.90109(6) 0.63896(7)
O1_54 O 0.29754(4) 0.16141(5) 0.00645(6)
O2_54 O 0.32126(8) 0.13684(7) 0.01486(7)
C7_54 C 0.31183(9) 0.14787(8) 0.00162(12)
O9_54 O 0.26797(4) 0.19069(5) 0.04110(5)
O10_54 O 0.24880(5) 0.16956(5) 0.02016(6)
C19_54 C 0.23375(5) 0.20253(5) 0.03216(5)
C20_54 C 0.21828(5) 0.20250(5) 0.01662(5)
H9_54 H 0.2185 0.1917 0.0060
C21_54 C 0.25179(7) 0.18637(6) 0.03047(7)
O16_54 O 0.16956(5) 0.22984(6) 0.00120(5)
C40_54 C 0.20253(5) 0.21784(5) 0.01625(5)
C41_54 C 0.20250(5) 0.23338(5) 0.03172(5)
H20_54 H 0.1917 0.2440 0.0315
O17_54 O 0.20890(5) 0.26797(4) 0.05931(5)
O18_54 O 0.22984(6) 0.24880(5) 0.08044(5)
C43_54 C 0.21784(5) 0.23375(5) 0.04747(5)
C44_54 C 0.23338(5) 0.21828(5) 0.04750(5)
H21_54 H 0.2440 0.2185 0.0583
C45_54 C 0.21953(7) 0.25179(7) 0.06363(6)
O25_54 O 0.24355(6) 0.29754(4) 0.08859(5)
O26_54 O 0.23514(7) 0.32126(8) 0.11316(7)
O27_30 O 0.28947(8) 0.36104(7) 0.15109(6)
O28_54 O 0.32180(10) 0.35708(9) 0.14396(8)
C55_54 C 0.27158(9) 0.31840(7) 0.10443(7)
C56_54 C 0.27674(10) 0.33267(7) 0.12084(8)
H25_54 H 0.2660 0.3384 0.1299
C57_54 C 0.29750(11) 0.33794(9) 0.12334(8)
C58_54 C 0.31345(10) 0.32879(7) 0.11106(7)
H26_54 H 0.3280 0.3320 0.1136
C59_54 C 0.30754(9) 0.31435(7) 0.09442(6)
C60_54 C 0.28616(9) 0.31009(7) 0.09150(6)
H27_54 H 0.2818 0.3011 0.0801
C61_54 C 0.24838(12) 0.31183(9) 0.10213(8)
C62_54 C 0.30381(13) 0.35299(10) 0.14060(10)
C63_54 C 0.32393(10) 0.30557(8) 0.08031(7)
O32_30 O 0.21053(8) 0.34891(6) 0.13896(7)
O4_54 O 0.35708(9) 0.10604(8) 0.92820(10)
C1_54 C 0.31840(7) 0.14557(7) 0.97842(9)
C2_54 C 0.33267(7) 0.12916(8) 0.97326(10)
H1_54 H 0.3384 0.1201 0.9840
C3_54 C 0.33794(9) 0.12666(8) 0.95250(11)
C4_54 C 0.32879(7) 0.13894(7) 0.93655(10)
H2_54 H 0.3320 0.1364 0.9220
C5_54 C 0.31435(7) 0.15558(6) 0.94246(9)
C6_54 C 0.31009(7) 0.15850(6) 0.96384(9)
H3_54 H 0.3011 0.1699 0.9682
C8_54 C 0.35299(10) 0.10940(10) 0.94619(13)
C9_54 C 0.30557(8) 0.16969(7) 0.92607(10)
O15_54 O 0.19069(5) 0.20890(5) 0.98203(4)
C42_54 C 0.18637(6) 0.21953(7) 0.99821(7)
O19_54 O 0.16141(5) 0.24355(6) 0.95246(4)
O20_54 O 0.13684(7) 0.23514(7) 0.92874(8)
O22_54 O 0.10604(8) 0.32180(10) 0.89292(9)
C46_54 C 0.14557(7) 0.27158(9) 0.93160(7)
C47_54 C 0.12916(8) 0.27674(10) 0.91733(7)
H22_54 H 0.1201 0.2660 0.9116
C48_54 C 0.12666(8) 0.29750(11) 0.91206(9)
C49_54 C 0.13894(7) 0.31345(10) 0.92121(7)
H23_54 H 0.1364 0.3280 0.9180
C50_54 C 0.15558(6) 0.30754(9) 0.93565(7)
C51_54 C 0.15850(6) 0.28616(9) 0.93991(7)
H24_54 H 0.1699 0.2818 0.9489
C52_54 C 0.14787(8) 0.24838(12) 0.93817(9)
C53_54 C 0.10940(10) 0.30381(13) 0.89701(10)
C54_54 C 0.16969(7) 0.32393(10) 0.94443(8)
O10_55 O 0.00120(5) 0.66956(5) 0.72984(6)
C19_55 C 0.01625(5) 0.70253(5) 0.71784(5)
C20_55 C 0.03172(5) 0.70250(5) 0.73338(5)
H9_55 H 0.0315 0.6917 0.7440
O15_55 O 0.05931(5) 0.70890(5) 0.76797(4)
O16_55 O 0.08044(5) 0.72984(6) 0.74880(5)
C40_55 C 0.04747(5) 0.71784(5) 0.73375(5)
C41_55 C 0.04750(5) 0.73338(5) 0.71828(5)
H20_55 H 0.0583 0.7440 0.7185
C42_55 C 0.06363(6) 0.71953(7) 0.75179(7)
O17_55 O 0.04110(5) 0.76797(4) 0.69069(5)
O18_55 O 0.02016(6) 0.74880(5) 0.66956(5)
C43_55 C 0.03216(5) 0.73375(5) 0.70253(5)
C44_55 C 0.01662(5) 0.71828(5) 0.70250(5)
H21_55 H 0.0060 0.7185 0.6917
C45_55 C 0.03047(7) 0.75179(7) 0.68637(6)
O19_55 O 0.08859(5) 0.74355(6) 0.79754(4)
O20_55 O 0.11316(7) 0.73514(7) 0.82126(8)
O22_55 O 0.14396(8) 0.82180(10) 0.85708(9)
C46_55 C 0.10443(7) 0.77158(9) 0.81840(7)
C47_55 C 0.12084(8) 0.77674(10) 0.83267(7)
H22_55 H 0.1299 0.7660 0.8384
C48_55 C 0.12334(8) 0.79750(11) 0.83794(9)
C49_55 C 0.11106(7) 0.81345(10) 0.82879(7)
H23_55 H 0.1136 0.8280 0.8320
C50_55 C 0.09442(6) 0.80754(9) 0.81435(7)
C51_55 C 0.09150(6) 0.78616(9) 0.81009(7)
H24_55 H 0.0801 0.7818 0.8011
C52_55 C 0.10213(8) 0.74838(12) 0.81183(9)
C53_55 C 0.14060(10) 0.80381(13) 0.85299(10)
C54_55 C 0.08031(7) 0.82393(10) 0.80557(8)
O25_55 O 0.00645(6) 0.79754(4) 0.66141(5)
O26_55 O 0.01486(7) 0.82126(8) 0.63684(7)
C61_55 C 0.00162(12) 0.81183(9) 0.64787(8)
O32_31 O 0.03947(8) 0.84891(6) 0.61104(7)
O1_55 O 0.95246(4) 0.66141(5) 0.74355(6)
O2_55 O 0.92874(8) 0.63684(7) 0.73514(7)
O4_55 O 0.89292(9) 0.60604(8) 0.82180(10)
C1_55 C 0.93160(7) 0.64557(7) 0.77158(9)
C2_55 C 0.91733(7) 0.62916(8) 0.77674(10)
H1_55 H 0.9116 0.6201 0.7660
C3_55 C 0.91206(9) 0.62666(8) 0.79750(11)
C4_55 C 0.92121(7) 0.63894(7) 0.81345(10)
H2_55 H 0.9180 0.6364 0.8280
C5_55 C 0.93565(7) 0.65558(6) 0.80754(9)
C6_55 C 0.93991(7) 0.65850(6) 0.78616(9)
H3_55 H 0.9489 0.6699 0.7818
C7_55 C 0.93817(9) 0.64787(8) 0.74838(12)
C8_55 C 0.89701(10) 0.60940(10) 0.80381(13)
C9_55 C 0.94443(8) 0.66969(7) 0.82393(10)
O9_55 O 0.98203(4) 0.69069(5) 0.70890(5)
C21_55 C 0.99821(7) 0.68637(6) 0.71953(7)
O27_31 O 0.96053(8) 0.86104(7) 0.59891(6)
O28_55 O 0.92820(10) 0.85708(9) 0.60604(8)
C55_55 C 0.97842(9) 0.81840(7) 0.64557(7)
C56_55 C 0.97326(10) 0.83267(7) 0.62916(8)
H25_55 H 0.9840 0.8384 0.6201
C57_55 C 0.95250(11) 0.83794(9) 0.62666(8)
C58_55 C 0.93655(10) 0.82879(7) 0.63894(7)
H26_55 H 0.9220 0.8320 0.6364
C59_55 C 0.94246(9) 0.81435(7) 0.65558(6)
C60_55 C 0.96384(9) 0.81009(7) 0.65850(6)
H27_55 H 0.9682 0.8011 0.6699
C62_55 C 0.94619(13) 0.85299(10) 0.60940(10)
C63_55 C 0.92607(10) 0.80557(8) 0.66969(7)
O1_56 O 0.79754(4) 0.58859(5) 0.24355(6)
O2_56 O 0.82126(8) 0.61316(7) 0.23514(7)
O4_56 O 0.85708(9) 0.64396(8) 0.32180(10)
C1_56 C 0.81840(7) 0.60443(7) 0.27158(9)
C2_56 C 0.83267(7) 0.62084(8) 0.27674(10)
H1_56 H 0.8384 0.6299 0.2660
C3_56 C 0.83794(9) 0.62334(8) 0.29750(11)
C4_56 C 0.82879(7) 0.61106(7) 0.31345(10)
H2_56 H 0.8320 0.6136 0.3280
C5_56 C 0.81435(7) 0.59442(6) 0.30754(9)
C6_56 C 0.81009(7) 0.59150(6) 0.28616(9)
H3_56 H 0.8011 0.5801 0.2818
C7_56 C 0.81183(9) 0.60213(8) 0.24838(12)
C8_56 C 0.85299(10) 0.64060(10) 0.30381(13)
C9_56 C 0.80557(8) 0.58031(7) 0.32393(10)
O9_56 O 0.76797(4) 0.55931(5) 0.20890(5)
O10_56 O 0.74880(5) 0.58044(5) 0.22984(6)
C19_56 C 0.73375(5) 0.54747(5) 0.21784(5)
C20_56 C 0.71828(5) 0.54750(5) 0.23338(5)
H9_56 H 0.7185 0.5583 0.2440
C21_56 C 0.75179(7) 0.56363(6) 0.21953(7)
O15_56 O 0.69069(5) 0.54110(5) 0.26797(4)
O16_56 O 0.66956(5) 0.52016(6) 0.24880(5)
C40_56 C 0.70253(5) 0.53216(5) 0.23375(5)
C41_56 C 0.70250(5) 0.51662(5) 0.21828(5)
H20_56 H 0.6917 0.5060 0.2185
C42_56 C 0.68637(6) 0.53047(7) 0.25179(7)
O17_56 O 0.70890(5) 0.48203(4) 0.19069(5)
O18_56 O 0.72984(6) 0.50120(5) 0.16956(5)
C43_56 C 0.71784(5) 0.51625(5) 0.20253(5)
C44_56 C 0.73338(5) 0.53172(5) 0.20250(5)
H21_56 H 0.7440 0.5315 0.1917
C45_56 C 0.71953(7) 0.49821(7) 0.18637(6)
O19_56 O 0.66141(5) 0.50645(6) 0.29754(4)
O20_56 O 0.63684(7) 0.51486(7) 0.32126(8)
O22_56 O 0.60604(8) 0.42820(10) 0.35708(9)
C46_56 C 0.64557(7) 0.47842(9) 0.31840(7)
C47_56 C 0.62916(8) 0.47326(10) 0.33267(7)
H22_56 H 0.6201 0.4840 0.3384
C48_56 C 0.62666(8) 0.45250(11) 0.33794(9)
C49_56 C 0.63894(7) 0.43655(10) 0.32879(7)
H23_56 H 0.6364 0.4220 0.3320
C50_56 C 0.65558(6) 0.44246(9) 0.31435(7)
C51_56 C 0.65850(6) 0.46384(9) 0.31009(7)
H24_56 H 0.6699 0.4682 0.3011
C52_56 C 0.64787(8) 0.50162(12) 0.31183(9)
C53_56 C 0.60940(10) 0.44619(13) 0.35299(10)
C54_56 C 0.66969(7) 0.42607(10) 0.30557(8)
O25_56 O 0.74355(6) 0.45246(4) 0.16141(5)
O26_56 O 0.73514(7) 0.42874(8) 0.13684(7)
O27_32 O 0.78947(8) 0.38896(7) 0.09891(6)
O28_56 O 0.82180(10) 0.39292(9) 0.10604(8)
C55_56 C 0.77158(9) 0.43160(7) 0.14557(7)
C56_56 C 0.77674(10) 0.41733(7) 0.12916(8)
H25_56 H 0.7660 0.4116 0.1201
C57_56 C 0.79750(11) 0.41206(9) 0.12666(8)
C58_56 C 0.81345(10) 0.42121(7) 0.13894(7)
H26_56 H 0.8280 0.4180 0.1364
C59_56 C 0.80754(9) 0.43565(7) 0.15558(6)
C60_56 C 0.78616(9) 0.43991(7) 0.15850(6)
H27_56 H 0.7818 0.4489 0.1699
C61_56 C 0.74838(12) 0.43817(9) 0.14787(8)
C62_56 C 0.80381(13) 0.39701(10) 0.10940(10)
C63_56 C 0.82393(10) 0.44443(8) 0.16969(7)
O32_32 O 0.71053(8) 0.40109(6) 0.11104(7)
O4_57 O 0.89396(8) 0.14292(9) 0.07180(10)
C1_57 C 0.85443(7) 0.18160(7) 0.02158(9)
C2_57 C 0.87084(8) 0.16733(7) 0.02674(10)
H1_57 H 0.8799 0.1616 0.0160
C3_57 C 0.87334(8) 0.16206(9) 0.04750(11)
C4_57 C 0.86106(7) 0.17121(7) 0.06345(10)
H2_57 H 0.8636 0.1680 0.0780
C5_57 C 0.84442(6) 0.18565(7) 0.05754(9)
C6_57 C 0.84150(6) 0.18991(7) 0.03616(9)
H3_57 H 0.8301 0.1989 0.0318
C8_57 C 0.89060(10) 0.14701(10) 0.05381(13)
C9_57 C 0.83031(7) 0.19443(8) 0.07393(10)
O15_57 O 0.79110(5) 0.30931(5) 0.01797(4)
C42_57 C 0.78047(7) 0.31363(6) 0.00179(7)
O19_57 O 0.75645(6) 0.33859(5) 0.04754(4)
O20_57 O 0.76486(7) 0.36316(7) 0.07126(8)
O22_57 O 0.67820(10) 0.39396(8) 0.10708(9)
C46_57 C 0.72842(9) 0.35443(7) 0.06840(7)
C47_57 C 0.72326(10) 0.37084(8) 0.08267(7)
H22_57 H 0.7340 0.3799 0.0884
C48_57 C 0.70250(11) 0.37334(8) 0.08794(9)
C49_57 C 0.68655(10) 0.36106(7) 0.07879(7)
H23_57 H 0.6720 0.3636 0.0820
C50_57 C 0.69246(9) 0.34442(6) 0.06435(7)
C51_57 C 0.71384(9) 0.34150(6) 0.06009(7)
H24_57 H 0.7182 0.3301 0.0511
C52_57 C 0.75162(12) 0.35213(8) 0.06183(9)
C53_57 C 0.69619(13) 0.39060(10) 0.10299(10)
C54_57 C 0.67607(10) 0.33031(7) 0.05557(8)
O1_57 O 0.83859(5) 0.20246(4) 0.99355(6)
O2_57 O 0.86316(7) 0.17874(8) 0.98514(7)
C7_57 C 0.85213(8) 0.18817(9) 0.99838(12)
O9_57 O 0.80931(5) 0.23203(4) 0.95890(5)
O10_57 O 0.83044(5) 0.25120(5) 0.97984(6)
C19_57 C 0.79747(5) 0.26625(5) 0.96784(5)
C20_57 C 0.79750(5) 0.28172(5) 0.98338(5)
H9_57 H 0.8083 0.2815 0.9940
C21_57 C 0.81363(6) 0.24821(7) 0.96953(7)
O16_57 O 0.77016(6) 0.33044(5) 0.99880(5)
C40_57 C 0.78216(5) 0.29747(5) 0.98375(5)
C41_57 C 0.76662(5) 0.29750(5) 0.96828(5)
H20_57 H 0.7560 0.3083 0.9685
O17_57 O 0.73203(4) 0.29110(5) 0.94069(5)
O18_57 O 0.75120(5) 0.27016(6) 0.91956(5)
C43_57 C 0.76625(5) 0.28216(5) 0.95253(5)
C44_57 C 0.78172(5) 0.26662(5) 0.95250(5)
H21_57 H 0.7815 0.2560 0.9417
C45_57 C 0.74821(7) 0.28047(7) 0.93637(6)
O25_57 O 0.70246(4) 0.25645(6) 0.91141(5)
O26_57 O 0.67874(8) 0.26486(7) 0.88684(7)
O28_57 O 0.64292(9) 0.17820(10) 0.85604(8)
C55_57 C 0.68160(7) 0.22842(9) 0.89557(7)
C56_57 C 0.66733(7) 0.22326(10) 0.87916(8)
H25_57 H 0.6616 0.2340 0.8701
C57_57 C 0.66206(9) 0.20250(11) 0.87666(8)
C58_57 C 0.67121(7) 0.18655(10) 0.88894(7)
H26_57 H 0.6680 0.1720 0.8864
C59_57 C 0.68565(7) 0.19246(9) 0.90558(6)
C60_57 C 0.68991(7) 0.21384(9) 0.90850(6)
H27_57 H 0.6989 0.2182 0.9199
C61_57 C 0.68817(9) 0.25162(12) 0.89787(8)
C62_57 C 0.64701(10) 0.19619(13) 0.85940(10)
C63_57 C 0.69443(8) 0.17607(10) 0.91969(7)
O28_58 O 0.10708(9) 0.07180(10) 0.35604(8)
C55_58 C 0.06840(7) 0.02158(9) 0.39557(7)
C56_58 C 0.08267(7) 0.02674(10) 0.37916(8)
H25_58 H 0.0884 0.0160 0.3701
C57_58 C 0.08794(9) 0.04750(11) 0.37666(8)
C58_58 C 0.07879(7) 0.06345(10) 0.38894(7)
H26_58 H 0.0820 0.0780 0.3864
C59_58 C 0.06435(7) 0.05754(9) 0.40558(6)
C60_58 C 0.06009(7) 0.03616(9) 0.40850(6)
H27_58 H 0.0511 0.0318 0.4199
C62_58 C 0.10299(10) 0.05381(13) 0.35940(10)
C63_58 C 0.05557(8) 0.07393(10) 0.41969(7)
O17_58 O 0.01797(4) 0.95890(5) 0.44069(5)
C45_58 C 0.00179(7) 0.96953(7) 0.43637(6)
O22_58 O 0.07180(10) 0.85604(8) 0.60708(9)
C46_58 C 0.02158(9) 0.89557(7) 0.56840(7)
C47_58 C 0.02674(10) 0.87916(8) 0.58267(7)
H22_58 H 0.0160 0.8701 0.5884
C48_58 C 0.04750(11) 0.87666(8) 0.58794(9)
C49_58 C 0.06345(10) 0.88894(7) 0.57879(7)
H23_58 H 0.0780 0.8864 0.5820
C50_58 C 0.05754(9) 0.90558(6) 0.56435(7)
C51_58 C 0.03616(9) 0.90850(6) 0.56009(7)
H24_58 H 0.0318 0.9199 0.5511
C53_58 C 0.05381(13) 0.85940(10) 0.60299(10)
C54_58 C 0.07393(10) 0.91969(7) 0.55557(8)
O25_58 O 0.04754(4) 0.99355(6) 0.41141(5)
O26_58 O 0.07126(8) 0.98514(7) 0.38684(7)
C61_58 C 0.06183(9) 0.99838(12) 0.39787(8)
O1_58 O 0.91141(5) 0.04754(4) 0.49355(6)
O2_58 O 0.88684(7) 0.07126(8) 0.48514(7)
O4_58 O 0.85604(8) 0.10708(9) 0.57180(10)
C1_58 C 0.89557(7) 0.06840(7) 0.52158(9)
C2_58 C 0.87916(8) 0.08267(7) 0.52674(10)
H1_58 H 0.8701 0.0884 0.5160
C3_58 C 0.87666(8) 0.08794(9) 0.54750(11)
C4_58 C 0.88894(7) 0.07879(7) 0.56345(10)
H2_58 H 0.8864 0.0820 0.5780
C5_58 C 0.90558(6) 0.06435(7) 0.55754(9)
C6_58 C 0.90850(6) 0.06009(7) 0.53616(9)
H3_58 H 0.9199 0.0511 0.5318
C7_58 C 0.89787(8) 0.06183(9) 0.49838(12)
C8_58 C 0.85940(10) 0.10299(10) 0.55381(13)
C9_58 C 0.91969(7) 0.05557(8) 0.57393(10)
O9_58 O 0.94069(5) 0.01797(4) 0.45890(5)
C21_58 C 0.93637(6) 0.00179(7) 0.46953(7)
O10_58 O 0.91956(5) 0.99880(5) 0.47984(6)
C19_58 C 0.95253(5) 0.98375(5) 0.46784(5)
C20_58 C 0.95250(5) 0.96828(5) 0.48338(5)
H9_58 H 0.9417 0.9685 0.4940
O15_58 O 0.95890(5) 0.94069(5) 0.51797(4)
O16_58 O 0.97984(6) 0.91956(5) 0.49880(5)
C40_58 C 0.96784(5) 0.95253(5) 0.48375(5)
C41_58 C 0.98338(5) 0.95250(5) 0.46828(5)
H20_58 H 0.9940 0.9417 0.4685
C42_58 C 0.96953(7) 0.93637(6) 0.50179(7)
O18_58 O 0.99880(5) 0.97984(6) 0.41956(5)
C43_58 C 0.98375(5) 0.96784(5) 0.45253(5)
C44_58 C 0.96828(5) 0.98338(5) 0.45250(5)
H21_58 H 0.9685 0.9940 0.4417
O19_58 O 0.99355(6) 0.91141(5) 0.54754(4)
O20_58 O 0.98514(7) 0.88684(7) 0.57126(8)
C52_58 C 0.99838(12) 0.89787(8) 0.56183(9)
O1_59 O 0.41141(5) 0.70246(4) 0.75645(6)
O2_59 O 0.38684(7) 0.67874(8) 0.76486(7)
O4_59 O 0.35604(8) 0.64292(9) 0.67820(10)
C1_59 C 0.39557(7) 0.68160(7) 0.72842(9)
C2_59 C 0.37916(8) 0.66733(7) 0.72326(10)
H1_59 H 0.3701 0.6616 0.7340
C3_59 C 0.37666(8) 0.66206(9) 0.70250(11)
C4_59 C 0.38894(7) 0.67121(7) 0.68655(10)
H2_59 H 0.3864 0.6680 0.6720
C5_59 C 0.40558(6) 0.68565(7) 0.69246(9)
C6_59 C 0.40850(6) 0.68991(7) 0.71384(9)
H3_59 H 0.4199 0.6989 0.7182
C7_59 C 0.39787(8) 0.68817(9) 0.75162(12)
C8_59 C 0.35940(10) 0.64701(10) 0.69619(13)
C9_59 C 0.41969(7) 0.69443(8) 0.67607(10)
O9_59 O 0.44069(5) 0.73203(4) 0.79110(5)
O10_59 O 0.41956(5) 0.75120(5) 0.77016(6)
C19_59 C 0.45253(5) 0.76625(5) 0.78216(5)
C20_59 C 0.45250(5) 0.78172(5) 0.76662(5)
H9_59 H 0.4417 0.7815 0.7560
C21_59 C 0.43637(6) 0.74821(7) 0.78047(7)
O15_59 O 0.45890(5) 0.80931(5) 0.73203(4)
O16_59 O 0.47984(6) 0.83044(5) 0.75120(5)
C40_59 C 0.46784(5) 0.79747(5) 0.76625(5)
C41_59 C 0.48338(5) 0.79750(5) 0.78172(5)
H20_59 H 0.4940 0.8083 0.7815
C42_59 C 0.46953(7) 0.81363(6) 0.74821(7)
O17_59 O 0.51797(4) 0.79110(5) 0.80931(5)
O18_59 O 0.49880(5) 0.77016(6) 0.83044(5)
C43_59 C 0.48375(5) 0.78216(5) 0.79747(5)
C44_59 C 0.46828(5) 0.76662(5) 0.79750(5)
H21_59 H 0.4685 0.7560 0.8083
C45_59 C 0.50179(7) 0.78047(7) 0.81363(6)
O19_59 O 0.49355(6) 0.83859(5) 0.70246(4)
O20_59 O 0.48514(7) 0.86316(7) 0.67874(8)
O22_59 O 0.57180(10) 0.89396(8) 0.64292(9)
C46_59 C 0.52158(9) 0.85443(7) 0.68160(7)
C47_59 C 0.52674(10) 0.87084(8) 0.66733(7)
H22_59 H 0.5160 0.8799 0.6616
C48_59 C 0.54750(11) 0.87334(8) 0.66206(9)
C49_59 C 0.56345(10) 0.86106(7) 0.67121(7)
H23_59 H 0.5780 0.8636 0.6680
C50_59 C 0.55754(9) 0.84442(6) 0.68565(7)
C51_59 C 0.53616(9) 0.84150(6) 0.68991(7)
H24_59 H 0.5318 0.8301 0.6989
C52_59 C 0.49838(12) 0.85213(8) 0.68817(9)
C53_59 C 0.55381(13) 0.89060(10) 0.64701(10)
C54_59 C 0.57393(10) 0.83031(7) 0.69443(8)
O25_59 O 0.54754(4) 0.75645(6) 0.83859(5)
O26_59 O 0.57126(8) 0.76486(7) 0.86316(7)
O28_59 O 0.60708(9) 0.67820(10) 0.89396(8)
C55_59 C 0.56840(7) 0.72842(9) 0.85443(7)
C56_59 C 0.58267(7) 0.72326(10) 0.87084(8)
H25_59 H 0.5884 0.7340 0.8799
C57_59 C 0.58794(9) 0.70250(11) 0.87334(8)
C58_59 C 0.57879(7) 0.68655(10) 0.86106(7)
H26_59 H 0.5820 0.6720 0.8636
C59_59 C 0.56435(7) 0.69246(9) 0.84442(6)
C60_59 C 0.56009(7) 0.71384(9) 0.84150(6)
H27_59 H 0.5511 0.7182 0.8301
C61_59 C 0.56183(9) 0.75162(12) 0.85213(8)
C62_59 C 0.60299(10) 0.69619(13) 0.89060(10)
C63_59 C 0.55557(8) 0.67607(10) 0.83031(7)
O1_60 O 0.33859(5) 0.54754(4) 0.25645(6)
O2_60 O 0.36316(7) 0.57126(8) 0.26486(7)
O4_60 O 0.39396(8) 0.60708(9) 0.17820(10)
C1_60 C 0.35443(7) 0.56840(7) 0.22842(9)
C2_60 C 0.37084(8) 0.58267(7) 0.22326(10)
H1_60 H 0.3799 0.5884 0.2340
C3_60 C 0.37334(8) 0.58794(9) 0.20250(11)
C4_60 C 0.36106(7) 0.57879(7) 0.18655(10)
H2_60 H 0.3636 0.5820 0.1720
C5_60 C 0.34442(6) 0.56435(7) 0.19246(9)
C6_60 C 0.34150(6) 0.56009(7) 0.21384(9)
H3_60 H 0.3301 0.5511 0.2182
C7_60 C 0.35213(8) 0.56183(9) 0.25162(12)
C8_60 C 0.39060(10) 0.60299(10) 0.19619(13)
C9_60 C 0.33031(7) 0.55557(8) 0.17607(10)
O9_60 O 0.30931(5) 0.51797(4) 0.29110(5)
O10_60 O 0.33044(5) 0.49880(5) 0.27016(6)
C19_60 C 0.29747(5) 0.48375(5) 0.28216(5)
C20_60 C 0.29750(5) 0.46828(5) 0.26662(5)
H9_60 H 0.3083 0.4685 0.2560
C21_60 C 0.31363(6) 0.50179(7) 0.28047(7)
O15_60 O 0.29110(5) 0.44069(5) 0.23203(4)
O16_60 O 0.27016(6) 0.41956(5) 0.25120(5)
C40_60 C 0.28216(5) 0.45253(5) 0.26625(5)
C41_60 C 0.26662(5) 0.45250(5) 0.28172(5)
H20_60 H 0.2560 0.4417 0.2815
C42_60 C 0.28047(7) 0.43637(6) 0.24821(7)
O17_60 O 0.23203(4) 0.45890(5) 0.30931(5)
O18_60 O 0.25120(5) 0.47984(6) 0.33044(5)
C43_60 C 0.26625(5) 0.46784(5) 0.29747(5)
C44_60 C 0.28172(5) 0.48338(5) 0.29750(5)
H21_60 H 0.2815 0.4940 0.3083
C45_60 C 0.24821(7) 0.46953(7) 0.31363(6)
O19_60 O 0.25645(6) 0.41141(5) 0.20246(4)
O20_60 O 0.26486(7) 0.38684(7) 0.17874(8)
O22_60 O 0.17820(10) 0.35604(8) 0.14292(9)
C46_60 C 0.22842(9) 0.39557(7) 0.18160(7)
C47_60 C 0.22326(10) 0.37916(8) 0.16733(7)
H22_60 H 0.2340 0.3701 0.1616
C48_60 C 0.20250(11) 0.37666(8) 0.16206(9)
C49_60 C 0.18655(10) 0.38894(7) 0.17121(7)
H23_60 H 0.1720 0.3864 0.1680
C50_60 C 0.19246(9) 0.40558(6) 0.18565(7)
C51_60 C 0.21384(9) 0.40850(6) 0.18991(7)
H24_60 H 0.2182 0.4199 0.1989
C52_60 C 0.25162(12) 0.39787(8) 0.18817(9)
C53_60 C 0.19619(13) 0.35940(10) 0.14701(10)
C54_60 C 0.17607(10) 0.41969(7) 0.19443(8)
O25_60 O 0.20246(4) 0.49355(6) 0.33859(5)
O26_60 O 0.17874(8) 0.48514(7) 0.36316(7)
O28_60 O 0.14292(9) 0.57180(10) 0.39396(8)
C55_60 C 0.18160(7) 0.52158(9) 0.35443(7)
C56_60 C 0.16733(7) 0.52674(10) 0.37084(8)
H25_60 H 0.1616 0.5160 0.3799
C57_60 C 0.16206(9) 0.54750(11) 0.37334(8)
C58_60 C 0.17121(7) 0.56345(10) 0.36106(7)
H26_60 H 0.1680 0.5780 0.3636
C59_60 C 0.18565(7) 0.55754(9) 0.34442(6)
C60_60 C 0.18991(7) 0.53616(9) 0.34150(6)
H27_60 H 0.1989 0.5318 0.3301
C61_60 C 0.18817(9) 0.49838(12) 0.35213(8)
C62_60 C 0.14701(10) 0.55381(13) 0.39060(10)
C63_60 C 0.19443(8) 0.57393(10) 0.33031(7)
O1_61 O 0.45246(4) 0.58859(5) 0.00645(6)
O2_61 O 0.42874(8) 0.61316(7) 0.01486(7)
C7_61 C 0.43817(9) 0.60213(8) 0.00162(12)
O9_61 O 0.48203(4) 0.55931(5) 0.04110(5)
O10_61 O 0.50120(5) 0.58044(5) 0.02016(6)
C19_61 C 0.51625(5) 0.54747(5) 0.03216(5)
C20_61 C 0.53172(5) 0.54750(5) 0.01662(5)
H9_61 H 0.5315 0.5583 0.0060
C21_61 C 0.49821(7) 0.56363(6) 0.03047(7)
O16_61 O 0.58044(5) 0.52016(6) 0.00120(5)
C40_61 C 0.54747(5) 0.53216(5) 0.01625(5)
C41_61 C 0.54750(5) 0.51662(5) 0.03172(5)
H20_61 H 0.5583 0.5060 0.0315
O17_61 O 0.54110(5) 0.48203(4) 0.05931(5)
O18_61 O 0.52016(6) 0.50120(5) 0.08044(5)
C43_61 C 0.53216(5) 0.51625(5) 0.04747(5)
C44_61 C 0.51662(5) 0.53172(5) 0.04750(5)
H21_61 H 0.5060 0.5315 0.0583
C45_61 C 0.53047(7) 0.49821(7) 0.06363(6)
O25_61 O 0.50645(6) 0.45246(4) 0.08859(5)
O26_61 O 0.51486(7) 0.42874(8) 0.11316(7)
O28_61 O 0.42820(10) 0.39292(9) 0.14396(8)
C55_61 C 0.47842(9) 0.43160(7) 0.10443(7)
C56_61 C 0.47326(10) 0.41733(7) 0.12084(8)
H25_61 H 0.4840 0.4116 0.1299
C57_61 C 0.45250(11) 0.41206(9) 0.12334(8)
C58_61 C 0.43655(10) 0.42121(7) 0.11106(7)
H26_61 H 0.4220 0.4180 0.1136
C59_61 C 0.44246(9) 0.43565(7) 0.09442(6)
C60_61 C 0.46384(9) 0.43991(7) 0.09150(6)
H27_61 H 0.4682 0.4489 0.0801
C61_61 C 0.50162(12) 0.43817(9) 0.10213(8)
C62_61 C 0.44619(13) 0.39701(10) 0.14060(10)
C63_61 C 0.42607(10) 0.44443(8) 0.08031(7)
O4_61 O 0.39292(9) 0.64396(8) 0.92820(10)
C1_61 C 0.43160(7) 0.60443(7) 0.97842(9)
C2_61 C 0.41733(7) 0.62084(8) 0.97326(10)
H1_61 H 0.4116 0.6299 0.9840
C3_61 C 0.41206(9) 0.62334(8) 0.95250(11)
C4_61 C 0.42121(7) 0.61106(7) 0.93655(10)
H2_61 H 0.4180 0.6136 0.9220
C5_61 C 0.43565(7) 0.59442(6) 0.94246(9)
C6_61 C 0.43991(7) 0.59150(6) 0.96384(9)
H3_61 H 0.4489 0.5801 0.9682
C8_61 C 0.39701(10) 0.64060(10) 0.94619(13)
C9_61 C 0.44443(8) 0.58031(7) 0.92607(10)
O15_61 O 0.55931(5) 0.54110(5) 0.98203(4)
C42_61 C 0.56363(6) 0.53047(7) 0.99821(7)
O19_61 O 0.58859(5) 0.50645(6) 0.95246(4)
O20_61 O 0.61316(7) 0.51486(7) 0.92874(8)
O22_61 O 0.64396(8) 0.42820(10) 0.89292(9)
C46_61 C 0.60443(7) 0.47842(9) 0.93160(7)
C47_61 C 0.62084(8) 0.47326(10) 0.91733(7)
H22_61 H 0.6299 0.4840 0.9116
C48_61 C 0.62334(8) 0.45250(11) 0.91206(9)
C49_61 C 0.61106(7) 0.43655(10) 0.92121(7)
H23_61 H 0.6136 0.4220 0.9180
C50_61 C 0.59442(6) 0.44246(9) 0.93565(7)
C51_61 C 0.59150(6) 0.46384(9) 0.93991(7)
H24_61 H 0.5801 0.4682 0.9489
C52_61 C 0.60213(8) 0.50162(12) 0.93817(9)
C53_61 C 0.64060(10) 0.44619(13) 0.89701(10)
C54_61 C 0.58031(7) 0.42607(10) 0.94443(8)
O1_62 O 0.29754(4) 0.66141(5) 0.50645(6)
O2_62 O 0.32126(8) 0.63684(7) 0.51486(7)
O4_62 O 0.35708(9) 0.60604(8) 0.42820(10)
C1_62 C 0.31840(7) 0.64557(7) 0.47842(9)
C2_62 C 0.33267(7) 0.62916(8) 0.47326(10)
H1_62 H 0.3384 0.6201 0.4840
C3_62 C 0.33794(9) 0.62666(8) 0.45250(11)
C4_62 C 0.32879(7) 0.63894(7) 0.43655(10)
H2_62 H 0.3320 0.6364 0.4220
C5_62 C 0.31435(7) 0.65558(6) 0.44246(9)
C6_62 C 0.31009(7) 0.65850(6) 0.46384(9)
H3_62 H 0.3011 0.6699 0.4682
C7_62 C 0.31183(9) 0.64787(8) 0.50162(12)
C8_62 C 0.35299(10) 0.60940(10) 0.44619(13)
C9_62 C 0.30557(8) 0.66969(7) 0.42607(10)
O9_62 O 0.26797(4) 0.69069(5) 0.54110(5)
O10_62 O 0.24880(5) 0.66956(5) 0.52016(6)
C19_62 C 0.23375(5) 0.70253(5) 0.53216(5)
C20_62 C 0.21828(5) 0.70250(5) 0.51662(5)
H9_62 H 0.2185 0.6917 0.5060
C21_62 C 0.25179(7) 0.68637(6) 0.53047(7)
O15_62 O 0.19069(5) 0.70890(5) 0.48203(4)
O16_62 O 0.16956(5) 0.72984(6) 0.50120(5)
C40_62 C 0.20253(5) 0.71784(5) 0.51625(5)
C41_62 C 0.20250(5) 0.73338(5) 0.53172(5)
H20_62 H 0.1917 0.7440 0.5315
C42_62 C 0.18637(6) 0.71953(7) 0.49821(7)
O17_62 O 0.20890(5) 0.76797(4) 0.55931(5)
O18_62 O 0.22984(6) 0.74880(5) 0.58044(5)
C43_62 C 0.21784(5) 0.73375(5) 0.54747(5)
C44_62 C 0.23338(5) 0.71828(5) 0.54750(5)
H21_62 H 0.2440 0.7185 0.5583
C45_62 C 0.21953(7) 0.75179(7) 0.56363(6)
O19_62 O 0.16141(5) 0.74355(6) 0.45246(4)
O20_62 O 0.13684(7) 0.73514(7) 0.42874(8)
O22_62 O 0.10604(8) 0.82180(10) 0.39292(9)
C46_62 C 0.14557(7) 0.77158(9) 0.43160(7)
C47_62 C 0.12916(8) 0.77674(10) 0.41733(7)
H22_62 H 0.1201 0.7660 0.4116
C48_62 C 0.12666(8) 0.79750(11) 0.41206(9)
C49_62 C 0.13894(7) 0.81345(10) 0.42121(7)
H23_62 H 0.1364 0.8280 0.4180
C50_62 C 0.15558(6) 0.80754(9) 0.43565(7)
C51_62 C 0.15850(6) 0.78616(9) 0.43991(7)
H24_62 H 0.1699 0.7818 0.4489
C52_62 C 0.14787(8) 0.74838(12) 0.43817(9)
C53_62 C 0.10940(10) 0.80381(13) 0.39701(10)
C54_62 C 0.16969(7) 0.82393(10) 0.44443(8)
O25_62 O 0.24355(6) 0.79754(4) 0.58859(5)
O26_62 O 0.23514(7) 0.82126(8) 0.61316(7)
O28_62 O 0.32180(10) 0.85708(9) 0.64396(8)
C55_62 C 0.27158(9) 0.81840(7) 0.60443(7)
C56_62 C 0.27674(10) 0.83267(7) 0.62084(8)
H25_62 H 0.2660 0.8384 0.6299
C57_62 C 0.29750(11) 0.83794(9) 0.62334(8)
C58_62 C 0.31345(10) 0.82879(7) 0.61106(7)
H26_62 H 0.3280 0.8320 0.6136
C59_62 C 0.30754(9) 0.81435(7) 0.59442(6)
C60_62 C 0.28616(9) 0.81009(7) 0.59150(6)
H27_62 H 0.2818 0.8011 0.5801
C61_62 C 0.24838(12) 0.81183(9) 0.60213(8)
C62_62 C 0.30381(13) 0.85299(10) 0.64060(10)
C63_62 C 0.32393(10) 0.80557(8) 0.58031(7)
O10_63 O 0.00120(5) 0.16956(5) 0.22984(6)
C19_63 C 0.01625(5) 0.20253(5) 0.21784(5)
C20_63 C 0.03172(5) 0.20250(5) 0.23338(5)
H9_63 H 0.0315 0.1917 0.2440
O15_63 O 0.05931(5) 0.20890(5) 0.26797(4)
O16_63 O 0.08044(5) 0.22984(6) 0.24880(5)
C40_63 C 0.04747(5) 0.21784(5) 0.23375(5)
C41_63 C 0.04750(5) 0.23338(5) 0.21828(5)
H20_63 H 0.0583 0.2440 0.2185
C42_63 C 0.06363(6) 0.21953(7) 0.25179(7)
O17_63 O 0.04110(5) 0.26797(4) 0.19069(5)
O18_63 O 0.02016(6) 0.24880(5) 0.16956(5)
C43_63 C 0.03216(5) 0.23375(5) 0.20253(5)
C44_63 C 0.01662(5) 0.21828(5) 0.20250(5)
H21_63 H 0.0060 0.2185 0.1917
C45_63 C 0.03047(7) 0.25179(7) 0.18637(6)
O19_63 O 0.08859(5) 0.24355(6) 0.29754(4)
O20_63 O 0.11316(7) 0.23514(7) 0.32126(8)
O22_63 O 0.14396(8) 0.32180(10) 0.35708(9)
C46_63 C 0.10443(7) 0.27158(9) 0.31840(7)
C47_63 C 0.12084(8) 0.27674(10) 0.33267(7)
H22_63 H 0.1299 0.2660 0.3384
C48_63 C 0.12334(8) 0.29750(11) 0.33794(9)
C49_63 C 0.11106(7) 0.31345(10) 0.32879(7)
H23_63 H 0.1136 0.3280 0.3320
C50_63 C 0.09442(6) 0.30754(9) 0.31435(7)
C51_63 C 0.09150(6) 0.28616(9) 0.31009(7)
H24_63 H 0.0801 0.2818 0.3011
C52_63 C 0.10213(8) 0.24838(12) 0.31183(9)
C53_63 C 0.14060(10) 0.30381(13) 0.35299(10)
C54_63 C 0.08031(7) 0.32393(10) 0.30557(8)
O25_63 O 0.00645(6) 0.29754(4) 0.16141(5)
O26_63 O 0.01486(7) 0.32126(8) 0.13684(7)
C61_63 C 0.00162(12) 0.31183(9) 0.14787(8)
O1_63 O 0.95246(4) 0.16141(5) 0.24355(6)
O2_63 O 0.92874(8) 0.13684(7) 0.23514(7)
O4_63 O 0.89292(9) 0.10604(8) 0.32180(10)
C1_63 C 0.93160(7) 0.14557(7) 0.27158(9)
C2_63 C 0.91733(7) 0.12916(8) 0.27674(10)
H1_63 H 0.9116 0.1201 0.2660
C3_63 C 0.91206(9) 0.12666(8) 0.29750(11)
C4_63 C 0.92121(7) 0.13894(7) 0.31345(10)
H2_63 H 0.9180 0.1364 0.3280
C5_63 C 0.93565(7) 0.15558(6) 0.30754(9)
C6_63 C 0.93991(7) 0.15850(6) 0.28616(9)
H3_63 H 0.9489 0.1699 0.2818
C7_63 C 0.93817(9) 0.14787(8) 0.24838(12)
C8_63 C 0.89701(10) 0.10940(10) 0.30381(13)
C9_63 C 0.94443(8) 0.16969(7) 0.32393(10)
O9_63 O 0.98203(4) 0.19069(5) 0.20890(5)
C21_63 C 0.99821(7) 0.18637(6) 0.21953(7)
O28_63 O 0.92820(10) 0.35708(9) 0.10604(8)
C55_63 C 0.97842(9) 0.31840(7) 0.14557(7)
C56_63 C 0.97326(10) 0.33267(7) 0.12916(8)
H25_63 H 0.9840 0.3384 0.1201
C57_63 C 0.95250(11) 0.33794(9) 0.12666(8)
C58_63 C 0.93655(10) 0.32879(7) 0.13894(7)
H26_63 H 0.9220 0.3320 0.1364
C59_63 C 0.94246(9) 0.31435(7) 0.15558(6)
C60_63 C 0.96384(9) 0.31009(7) 0.15850(6)
H27_63 H 0.9682 0.3011 0.1699
C62_63 C 0.94619(13) 0.35299(10) 0.10940(10)
C63_63 C 0.92607(10) 0.30557(8) 0.16969(7)
O1_64 O 0.79754(4) 0.08859(5) 0.74355(6)
O2_64 O 0.82126(8) 0.11316(7) 0.73514(7)
O4_64 O 0.85708(9) 0.14396(8) 0.82180(10)
C1_64 C 0.81840(7) 0.10443(7) 0.77158(9)
C2_64 C 0.83267(7) 0.12084(8) 0.77674(10)
H1_64 H 0.8384 0.1299 0.7660
C3_64 C 0.83794(9) 0.12334(8) 0.79750(11)
C4_64 C 0.82879(7) 0.11106(7) 0.81345(10)
H2_64 H 0.8320 0.1136 0.8280
C5_64 C 0.81435(7) 0.09442(6) 0.80754(9)
C6_64 C 0.81009(7) 0.09150(6) 0.78616(9)
H3_64 H 0.8011 0.0801 0.7818
C7_64 C 0.81183(9) 0.10213(8) 0.74838(12)
C8_64 C 0.85299(10) 0.14060(10) 0.80381(13)
C9_64 C 0.80557(8) 0.08031(7) 0.82393(10)
O9_64 O 0.76797(4) 0.05931(5) 0.70890(5)
O10_64 O 0.74880(5) 0.08044(5) 0.72984(6)
C19_64 C 0.73375(5) 0.04747(5) 0.71784(5)
C20_64 C 0.71828(5) 0.04750(5) 0.73338(5)
H9_64 H 0.7185 0.0583 0.7440
C21_64 C 0.75179(7) 0.06363(6) 0.71953(7)
O15_64 O 0.69069(5) 0.04110(5) 0.76797(4)
O16_64 O 0.66956(5) 0.02016(6) 0.74880(5)
C40_64 C 0.70253(5) 0.03216(5) 0.73375(5)
C41_64 C 0.70250(5) 0.01662(5) 0.71828(5)
H20_64 H 0.6917 0.0060 0.7185
C42_64 C 0.68637(6) 0.03047(7) 0.75179(7)
O18_64 O 0.72984(6) 0.00120(5) 0.66956(5)
C43_64 C 0.71784(5) 0.01625(5) 0.70253(5)
C44_64 C 0.73338(5) 0.03172(5) 0.70250(5)
H21_64 H 0.7440 0.0315 0.6917
O19_64 O 0.66141(5) 0.00645(6) 0.79754(4)
O20_64 O 0.63684(7) 0.01486(7) 0.82126(8)
C52_64 C 0.64787(8) 0.00162(12) 0.81183(9)
O17_64 O 0.70890(5) 0.98203(4) 0.69069(5)
C45_64 C 0.71953(7) 0.99821(7) 0.68637(6)
O22_64 O 0.60604(8) 0.92820(10) 0.85708(9)
C46_64 C 0.64557(7) 0.97842(9) 0.81840(7)
C47_64 C 0.62916(8) 0.97326(10) 0.83267(7)
H22_64 H 0.6201 0.9840 0.8384
C48_64 C 0.62666(8) 0.95250(11) 0.83794(9)
C49_64 C 0.63894(7) 0.93655(10) 0.82879(7)
H23_64 H 0.6364 0.9220 0.8320
C50_64 C 0.65558(6) 0.94246(9) 0.81435(7)
C51_64 C 0.65850(6) 0.96384(9) 0.81009(7)
H24_64 H 0.6699 0.9682 0.8011
C53_64 C 0.60940(10) 0.94619(13) 0.85299(10)
C54_64 C 0.66969(7) 0.92607(10) 0.80557(8)
O25_64 O 0.74355(6) 0.95246(4) 0.66141(5)
O26_64 O 0.73514(7) 0.92874(8) 0.63684(7)
O28_64 O 0.82180(10) 0.89292(9) 0.60604(8)
C55_64 C 0.77158(9) 0.93160(7) 0.64557(7)
C56_64 C 0.77674(10) 0.91733(7) 0.62916(8)
H25_64 H 0.7660 0.9116 0.6201
C57_64 C 0.79750(11) 0.91206(9) 0.62666(8)
C58_64 C 0.81345(10) 0.92121(7) 0.63894(7)
H26_64 H 0.8280 0.9180 0.6364
C59_64 C 0.80754(9) 0.93565(7) 0.65558(6)
C60_64 C 0.78616(9) 0.93991(7) 0.65850(6)
H27_64 H 0.7818 0.9489 0.6699
C61_64 C 0.74838(12) 0.93817(9) 0.64787(8)
C62_64 C 0.80381(13) 0.89701(10) 0.60940(10)
C63_64 C 0.82393(10) 0.94443(8) 0.66969(7)
loop_
_geom_bond_atom_site_label_1
_geom_bond_atom_site_label_2
_geom_bond_site_symmetry_1
_geom_bond_site_symmetry_2
Zn1 O1 1_555 1_555
Zn2 O2 1_555 1_555
O1 C7 1_555 1_555
O2 C7 1_555 1_555
O7 Zn2 1_555 1_555
O8 Zn1 1_555 1_555
C10 C11 1_555 1_555
C11 H4 1_555 1_555
C12 C11 1_555 1_555
H5 C12 1_555 1_555
C13 C12 1_555 1_555
C14 C13 1_555 1_555
H6 C14 1_555 1_555
C15 C10 1_555 1_555
H7 C15 1_555 1_555
C16 O7 1_555 1_555
C17 C13 1_555 1_555
O9 Zn1 1_555 1_555
O10 C21 1_555 1_555
C18 C17 1_555 1_555
H8 C18 1_555 1_555
C19 C20 1_555 1_555
C20 H9 1_555 1_555
C21 O9 1_555 1_555
C23 H10 1_555 1_555
C24 C23 1_555 1_555
H11 C24 1_555 1_555
C25 C24 1_555 1_555
C26 C25 1_555 1_555
C29 C25 1_555 1_555
C30 C17 1_555 1_555
H14 C30 1_555 1_555
O13 C37 1_555 1_555
O14 C37 1_555 1_555
C31 C32 1_555 1_555
C32 H15 1_555 1_555
C33 C32 1_555 1_555
H16 C33 1_555 1_555
C34 C33 1_555 1_555
C35 C34 1_555 1_555
H17 C35 1_555 1_555
C36 C31 1_555 1_555
H18 C36 1_555 1_555
C37 C31 1_555 1_555
C38 C18 1_555 1_555
C39 C29 1_555 1_555
H19 C39 1_555 1_555
C40 C20 1_555 1_555
C41 C40 1_555 1_555
H20 C41 1_555 1_555
O17 C45 1_555 1_555
O18 C45 1_555 1_555
C43 C41 1_555 1_555
C44 C19 1_555 1_555
H21 C44 1_555 1_555
C45 C43 1_555 1_555
Zn5 O17 1_555 1_555
Zn6 O26 1_555 1_555
O25 Zn5 1_555 1_555
O26 C61 1_555 1_555
O27 C62 1_555 1_555
O28 C62 1_555 1_555
O29 C63 1_555 1_555
O30 C63 1_555 1_555
C55 C56 1_555 1_555
C56 H25 1_555 1_555
C57 C56 1_555 1_555
C58 C57 1_555 1_555
H26 C58 1_555 1_555
C59 C58 1_555 1_555
C60 C55 1_555 1_555
H27 C60 1_555 1_555
C61 O25 1_555 1_555
C62 C57 1_555 1_555
C63 C59 1_555 1_555
Zn8 O14 1_555 1_555
Zn10 O30 1_555 1_555
Zn14 O27 1_555 1_555
Zn15 O13 1_555 1_555
Zn18 O29 1_555 1_555
O32 Zn6 1_555 1_555
O33 Zn2 1_555 1_555
O34 Zn6 1_555 1_555
O35 Zn2 1_555 1_555
O37 Zn5 1_555 1_555
O38 Zn1 1_555 1_555
O41 Zn6 1_555 1_555
O43 Zn5 1_555 1_555
O8 C16 1_555 1_555
C10 C16 1_555 1_555
C14 C15 1_555 1_555
C19 C21 1_555 1_555
C29 C30 1_555 1_555
C34 C38 1_555 1_555
C35 C36 1_555 1_555
C38 C39 1_555 1_555
C43 C44 1_555 1_555
C55 C61 1_555 1_555
C59 C60 1_555 1_555
O3 C8 1_555 1_555
O4 C8 1_555 1_555
O5 C9 1_555 1_555
O6 C9 1_555 1_555
C1 C2 1_555 1_555
C2 H1 1_555 1_555
C3 C2 1_555 1_555
C4 C3 1_555 1_555
H2 C4 1_555 1_555
C5 C4 1_555 1_555
C6 C1 1_555 1_555
H3 C6 1_555 1_555
C8 C3 1_555 1_555
C9 C5 1_555 1_555
O11 C28 1_555 1_555
O12 C28 1_555 1_555
C27 C22 1_555 1_555
H13 C27 1_555 1_555
C28 C22 1_555 1_555
O15 C42 1_555 1_555
Zn3 O15 1_555 1_555
Zn4 O20 1_555 1_555
O19 Zn3 1_555 1_555
O20 C52 1_555 1_555
O21 C53 1_555 1_555
O22 C53 1_555 1_555
O23 C54 1_555 1_555
O24 C54 1_555 1_555
C46 C47 1_555 1_555
C47 H22 1_555 1_555
C48 C47 1_555 1_555
C49 C48 1_555 1_555
H23 C49 1_555 1_555
C50 C49 1_555 1_555
C51 C46 1_555 1_555
H24 C51 1_555 1_555
C52 O19 1_555 1_555
C53 C48 1_555 1_555
C54 C50 1_555 1_555
Zn7 O12 1_555 1_555
Zn9 O24 1_555 1_555
Zn11 O6 1_555 1_555
Zn12 O11 1_555 1_555
Zn13 O21 1_555 1_555
Zn16 O3 1_555 1_555
Zn17 O23 1_555 1_555
Zn19 O5 1_555 1_555
O31 Zn4 1_555 1_555
O36 Zn4 1_555 1_555
O39 Zn3 1_555 1_555
O40 Zn4 1_555 1_555
O42 Zn3 1_555 1_555
C5 C6 1_555 1_555
C46 C52 1_555 1_555
C50 C51 1_555 1_555
Zn1_2 O1_2 1_555 1_555
Zn2_2 O2_2 1_555 1_555
O1_2 C7_2 1_555 1_555
O2_2 C7_2 1_555 1_555
O3_2 C8_2 1_555 1_555
O4_2 C8_2 1_555 1_555
O5_2 C9_2 1_555 1_555
O6_2 C9_2 1_555 1_555
C1_2 C2_2 1_555 1_555
C2_2 H1_2 1_555 1_555
C3_2 C2_2 1_555 1_555
C4_2 C3_2 1_555 1_555
H2_2 C4_2 1_555 1_555
C5_2 C4_2 1_555 1_555
C6_2 C1_2 1_555 1_555
H3_2 C6_2 1_555 1_555
C7_2 C1_2 1_555 1_555
C8_2 C3_2 1_555 1_555
C9_2 C5_2 1_555 1_555
O7_2 Zn2_2 1_555 1_555
O8_2 Zn1_2 1_555 1_555
C10_2 C11_2 1_555 1_555
C11_2 H4_2 1_555 1_555
C12_2 C11_2 1_555 1_555
H5_2 C12_2 1_555 1_555
C13_2 C12_2 1_555 1_555
C14_2 C13_2 1_555 1_555
H6_2 C14_2 1_555 1_555
C15_2 C10_2 1_555 1_555
H7_2 C15_2 1_555 1_555
C16_2 O7_2 1_555 1_555
C17_2 C13_2 1_555 1_555
O9_2 Zn1_2 1_555 1_555
O10_2 C21_2 1_555 1_555
C18_2 C17_2 1_555 1_555
H8_2 C18_2 1_555 1_555
C19_2 C20_2 1_555 1_555
C20_2 H9_2 1_555 1_555
C21_2 O9_2 1_555 1_555
O11_2 C28_2 1_555 1_555
O12_2 C28_2 1_555 1_555
C22_2 C23_2 1_555 1_555
C23_2 H10_2 1_555 1_555
C24_2 C23_2 1_555 1_555
H11_2 C24_2 1_555 1_555
C25_2 C24_2 1_555 1_555
C26_2 C25_2 1_555 1_555
H12_2 C26_2 1_555 1_555
C27_2 C22_2 1_555 1_555
H13_2 C27_2 1_555 1_555
C28_2 C22_2 1_555 1_555
C29_2 C25_2 1_555 1_555
C30_2 C17_2 1_555 1_555
H14_2 C30_2 1_555 1_555
O13_2 C37_2 1_555 1_555
O14_2 C37_2 1_555 1_555
C31_2 C32_2 1_555 1_555
C32_2 H15_2 1_555 1_555
C33_2 C32_2 1_555 1_555
H16_2 C33_2 1_555 1_555
C34_2 C33_2 1_555 1_555
C35_2 C34_2 1_555 1_555
H17_2 C35_2 1_555 1_555
C36_2 C31_2 1_555 1_555
H18_2 C36_2 1_555 1_555
C37_2 C31_2 1_555 1_555
C38_2 C18_2 1_555 1_555
C39_2 C29_2 1_555 1_555
H19_2 C39_2 1_555 1_555
O15_2 C42_2 1_555 1_555
O16_2 C42_2 1_555 1_555
C40_2 C20_2 1_555 1_555
C41_2 C40_2 1_555 1_555
H20_2 C41_2 1_555 1_555
C42_2 C40_2 1_555 1_555
O17_2 C45_2 1_555 1_555
O18_2 C45_2 1_555 1_555
C43_2 C41_2 1_555 1_555
C44_2 C19_2 1_555 1_555
H21_2 C44_2 1_555 1_555
C45_2 C43_2 1_555 1_555
Zn3_2 O15_2 1_555 1_555
Zn4_2 O20_2 1_555 1_555
O19_2 Zn3_2 1_555 1_555
O20_2 C52_2 1_555 1_555
O21_2 C53_2 1_555 1_555
O22_2 C53_2 1_555 1_555
O23_2 C54_2 1_555 1_555
O24_2 C54_2 1_555 1_555
C46_2 C47_2 1_555 1_555
C47_2 H22_2 1_555 1_555
C48_2 C47_2 1_555 1_555
C49_2 C48_2 1_555 1_555
H23_2 C49_2 1_555 1_555
C50_2 C49_2 1_555 1_555
C51_2 C46_2 1_555 1_555
H24_2 C51_2 1_555 1_555
C52_2 O19_2 1_555 1_555
C53_2 C48_2 1_555 1_555
C54_2 C50_2 1_555 1_555
Zn5_2 O17_2 1_555 1_555
Zn6_2 O26_2 1_555 1_555
O25_2 Zn5_2 1_555 1_555
O26_2 C61_2 1_555 1_555
O27_2 C62_2 1_555 1_555
O28_2 C62_2 1_555 1_555
O29_2 C63_2 1_555 1_555
O30_2 C63_2 1_555 1_555
C55_2 C56_2 1_555 1_555
C56_2 H25_2 1_555 1_555
C57_2 C56_2 1_555 1_555
C58_2 C57_2 1_555 1_555
H26_2 C58_2 1_555 1_555
C59_2 C58_2 1_555 1_555
C60_2 C55_2 1_555 1_555
H27_2 C60_2 1_555 1_555
C61_2 O25_2 1_555 1_555
C62_2 C57_2 1_555 1_555
C63_2 C59_2 1_555 1_555
Zn7_2 O12_2 1_555 1_555
Zn8_2 O14_2 1_555 1_555
Zn9_2 O24_2 1_555 1_555
Zn10_2 O30_2 1_555 1_555
Zn11_2 O6_2 1_555 1_555
Zn12_2 O11_2 1_555 1_555
Zn13_2 O21_2 1_555 1_555
Zn14_2 O27_2 1_555 1_555
Zn15_2 O13_2 1_555 1_555
Zn16_2 O3_2 1_555 1_555
Zn17_2 O23_2 1_555 1_555
Zn18_2 O29_2 1_555 1_555
Zn19_2 O5_2 1_555 1_555
O31_2 Zn4_2 1_555 1_555
O32_2 Zn6_2 1_555 1_555
O33_2 Zn2_2 1_555 1_555
O34_2 Zn6_2 1_555 1_555
O35_2 Zn2_2 1_555 1_555
O36_2 Zn4_2 1_555 1_555
O37_2 Zn5_2 1_555 1_555
O38_2 Zn1_2 1_555 1_555
O39_2 Zn3_2 1_555 1_555
O40_2 Zn4_2 1_555 1_555
O41_2 Zn6_2 1_555 1_555
O42_2 Zn3_2 1_555 1_555
O43_2 Zn5_2 1_555 1_555
C5_2 C6_2 1_555 1_555
O8_2 C16_2 1_555 1_555
C10_2 C16_2 1_555 1_555
C14_2 C15_2 1_555 1_555
C19_2 C21_2 1_555 1_555
C26_2 C27_2 1_555 1_555
C29_2 C30_2 1_555 1_555
C34_2 C38_2 1_555 1_555
C35_2 C36_2 1_555 1_555
C38_2 C39_2 1_555 1_555
C43_2 C44_2 1_555 1_555
C46_2 C52_2 1_555 1_555
C50_2 C51_2 1_555 1_555
C55_2 C61_2 1_555 1_555
C59_2 C60_2 1_555 1_555
Zn1_3 O1_3 1_555 1_555
Zn2_3 O2_3 1_555 1_555
O1_3 C7_3 1_555 1_555
O2_3 C7_3 1_555 1_555
O3_3 C8_3 1_555 1_555
O4_3 C8_3 1_555 1_555
O5_3 C9_3 1_555 1_555
O6_3 C9_3 1_555 1_555
C1_3 C2_3 1_555 1_555
C2_3 H1_3 1_555 1_555
C3_3 C2_3 1_555 1_555
C4_3 C3_3 1_555 1_555
H2_3 C4_3 1_555 1_555
C5_3 C4_3 1_555 1_555
C6_3 C1_3 1_555 1_555
H3_3 C6_3 1_555 1_555
C7_3 C1_3 1_555 1_555
C8_3 C3_3 1_555 1_555
C9_3 C5_3 1_555 1_555
O7_3 Zn2_3 1_555 1_555
O8_3 Zn1_3 1_555 1_555
C10_3 C11_3 1_555 1_555
C11_3 H4_3 1_555 1_555
C12_3 C11_3 1_555 1_555
H5_3 C12_3 1_555 1_555
C13_3 C12_3 1_555 1_555
C14_3 C13_3 1_555 1_555
H6_3 C14_3 1_555 1_555
C15_3 C10_3 1_555 1_555
H7_3 C15_3 1_555 1_555
C16_3 O7_3 1_555 1_555
C17_3 C13_3 1_555 1_555
O9_3 Zn1_3 1_555 1_555
O10_3 C21_3 1_555 1_555
C18_3 C17_3 1_555 1_555
H8_3 C18_3 1_555 1_555
C19_3 C20_3 1_555 1_555
C20_3 H9_3 1_555 1_555
C21_3 O9_3 1_555 1_555
O11_3 C28_3 1_555 1_555
O12_3 C28_3 1_555 1_555
C22_3 C23_3 1_555 1_555
C23_3 H10_3 1_555 1_555
C24_3 C23_3 1_555 1_555
H11_3 C24_3 1_555 1_555
C25_3 C24_3 1_555 1_555
C26_3 C25_3 1_555 1_555
H12_3 C26_3 1_555 1_555
C27_3 C22_3 1_555 1_555
H13_3 C27_3 1_555 1_555
C28_3 C22_3 1_555 1_555
C29_3 C25_3 1_555 1_555
C30_3 C17_3 1_555 1_555
H14_3 C30_3 1_555 1_555
O13_3 C37_3 1_555 1_555
O14_3 C37_3 1_555 1_555
C31_3 C32_3 1_555 1_555
C32_3 H15_3 1_555 1_555
C33_3 C32_3 1_555 1_555
H16_3 C33_3 1_555 1_555
C34_3 C33_3 1_555 1_555
C35_3 C34_3 1_555 1_555
H17_3 C35_3 1_555 1_555
C36_3 C31_3 1_555 1_555
H18_3 C36_3 1_555 1_555
C37_3 C31_3 1_555 1_555
C38_3 C18_3 1_555 1_555
C39_3 C29_3 1_555 1_555
H19_3 C39_3 1_555 1_555
O15_3 C42_3 1_555 1_555
O16_3 C42_3 1_555 1_555
C40_3 C20_3 1_555 1_555
C41_3 C40_3 1_555 1_555
H20_3 C41_3 1_555 1_555
C42_3 C40_3 1_555 1_555
C43_3 C41_3 1_555 1_555
C44_3 C19_3 1_555 1_555
H21_3 C44_3 1_555 1_555
Zn3_3 O15_3 1_555 1_555
Zn4_3 O20_3 1_555 1_555
O19_3 Zn3_3 1_555 1_555
O20_3 C52_3 1_555 1_555
C52_3 O19_3 1_555 1_555
Zn7_3 O12_3 1_555 1_555
Zn8_3 O14_3 1_555 1_555
Zn11_3 O6_3 1_555 1_555
Zn12_3 O11_3 1_555 1_555
Zn15_3 O13_3 1_555 1_555
Zn16_3 O3_3 1_555 1_555
Zn19_3 O5_3 1_555 1_555
O31_3 Zn4_3 1_555 1_555
O33_3 Zn2_3 1_555 1_555
O35_3 Zn2_3 1_555 1_555
O36_3 Zn4_3 1_555 1_555
O38_3 Zn1_3 1_555 1_555
O39_3 Zn3_3 1_555 1_555
O40_3 Zn4_3 1_555 1_555
O42_3 Zn3_3 1_555 1_555
C5_3 C6_3 1_555 1_555
O8_3 C16_3 1_555 1_555
C10_3 C16_3 1_555 1_555
C14_3 C15_3 1_555 1_555
C19_3 C21_3 1_555 1_555
C26_3 C27_3 1_555 1_555
C29_3 C30_3 1_555 1_555
C34_3 C38_3 1_555 1_555
C35_3 C36_3 1_555 1_555
C38_3 C39_3 1_555 1_555
C43_3 C44_3 1_555 1_555
O17_3 C45_3 1_555 1_555
O21_3 C53_3 1_555 1_555
O22_3 C53_3 1_555 1_555
O23_3 C54_3 1_555 1_555
O24_3 C54_3 1_555 1_555
C46_3 C47_3 1_555 1_555
C47_3 H22_3 1_555 1_555
C48_3 C47_3 1_555 1_555
C49_3 C48_3 1_555 1_555
H23_3 C49_3 1_555 1_555
C50_3 C49_3 1_555 1_555
C51_3 C46_3 1_555 1_555
H24_3 C51_3 1_555 1_555
C53_3 C48_3 1_555 1_555
C54_3 C50_3 1_555 1_555
Zn5_3 O17_3 1_555 1_555
Zn6_3 O26_3 1_555 1_555
O25_3 Zn5_3 1_555 1_555
O26_3 C61_3 1_555 1_555
O27_3 C62_3 1_555 1_555
O28_3 C62_3 1_555 1_555
O29_3 C63_3 1_555 1_555
O30_3 C63_3 1_555 1_555
C55_3 C56_3 1_555 1_555
C56_3 H25_3 1_555 1_555
C57_3 C56_3 1_555 1_555
C58_3 C57_3 1_555 1_555
H26_3 C58_3 1_555 1_555
C59_3 C58_3 1_555 1_555
C60_3 C55_3 1_555 1_555
H27_3 C60_3 1_555 1_555
C61_3 O25_3 1_555 1_555
C62_3 C57_3 1_555 1_555
C63_3 C59_3 1_555 1_555
Zn9_3 O24_3 1_555 1_555
Zn10_3 O30_3 1_555 1_555
Zn13_3 O21_3 1_555 1_555
Zn14_3 O27_3 1_555 1_555
Zn17_3 O23_3 1_555 1_555
Zn18_3 O29_3 1_555 1_555
O32_3 Zn6_3 1_555 1_555
O34_3 Zn6_3 1_555 1_555
O37_3 Zn5_3 1_555 1_555
O41_3 Zn6_3 1_555 1_555
O43_3 Zn5_3 1_555 1_555
C50_3 C51_3 1_555 1_555
C55_3 C61_3 1_555 1_555
C59_3 C60_3 1_555 1_555
C11_4 H4_4 1_555 1_555
C12_4 C11_4 1_555 1_555
H5_4 C12_4 1_555 1_555
C13_4 C12_4 1_555 1_555
C14_4 C13_4 1_555 1_555
C17_4 C13_4 1_555 1_555
C18_4 C17_4 1_555 1_555
H8_4 C18_4 1_555 1_555
C19_4 C20_4 1_555 1_555
C20_4 H9_4 1_555 1_555
O11_4 C28_4 1_555 1_555
O12_4 C28_4 1_555 1_555
C22_4 C23_4 1_555 1_555
C23_4 H10_4 1_555 1_555
C24_4 C23_4 1_555 1_555
H11_4 C24_4 1_555 1_555
C25_4 C24_4 1_555 1_555
C26_4 C25_4 1_555 1_555
H12_4 C26_4 1_555 1_555
C27_4 C22_4 1_555 1_555
H13_4 C27_4 1_555 1_555
C28_4 C22_4 1_555 1_555
C29_4 C25_4 1_555 1_555
C30_4 C17_4 1_555 1_555
H14_4 C30_4 1_555 1_555
C32_4 H15_4 1_555 1_555
C33_4 C32_4 1_555 1_555
H16_4 C33_4 1_555 1_555
C34_4 C33_4 1_555 1_555
C35_4 C34_4 1_555 1_555
C38_4 C18_4 1_555 1_555
C39_4 C29_4 1_555 1_555
H19_4 C39_4 1_555 1_555
O15_4 C42_4 1_555 1_555
O16_4 C42_4 1_555 1_555
C40_4 C20_4 1_555 1_555
C41_4 C40_4 1_555 1_555
H20_4 C41_4 1_555 1_555
C42_4 C40_4 1_555 1_555
O17_4 C45_4 1_555 1_555
O18_4 C45_4 1_555 1_555
C43_4 C41_4 1_555 1_555
C44_4 C19_4 1_555 1_555
H21_4 C44_4 1_555 1_555
C45_4 C43_4 1_555 1_555
Zn3_4 O15_4 1_555 1_555
Zn4_4 O20_4 1_555 1_555
O19_4 Zn3_4 1_555 1_555
O20_4 C52_4 1_555 1_555
O21_4 C53_4 1_555 1_555
O22_4 C53_4 1_555 1_555
O23_4 C54_4 1_555 1_555
O24_4 C54_4 1_555 1_555
C46_4 C47_4 1_555 1_555
C47_4 H22_4 1_555 1_555
C48_4 C47_4 1_555 1_555
C49_4 C48_4 1_555 1_555
H23_4 C49_4 1_555 1_555
C50_4 C49_4 1_555 1_555
C51_4 C46_4 1_555 1_555
H24_4 C51_4 1_555 1_555
C52_4 O19_4 1_555 1_555
C53_4 C48_4 1_555 1_555
C54_4 C50_4 1_555 1_555
Zn5_4 O17_4 1_555 1_555
Zn6_4 O26_4 1_555 1_555
O25_4 Zn5_4 1_555 1_555
O26_4 C61_4 1_555 1_555
C61_4 O25_4 1_555 1_555
Zn7_4 O12_4 1_555 1_555
Zn9_4 O24_4 1_555 1_555
Zn12_4 O11_4 1_555 1_555
Zn13_4 O21_4 1_555 1_555
Zn17_4 O23_4 1_555 1_555
O31_4 Zn4_4 1_555 1_555
O32_4 Zn6_4 1_555 1_555
O34_4 Zn6_4 1_555 1_555
O36_4 Zn4_4 1_555 1_555
O37_4 Zn5_4 1_555 1_555
O39_4 Zn3_4 1_555 1_555
O40_4 Zn4_4 1_555 1_555
O41_4 Zn6_4 1_555 1_555
O42_4 Zn3_4 1_555 1_555
O43_4 Zn5_4 1_555 1_555
C26_4 C27_4 1_555 1_555
C29_4 C30_4 1_555 1_555
C34_4 C38_4 1_555 1_555
C38_4 C39_4 1_555 1_555
C43_4 C44_4 1_555 1_555
C46_4 C52_4 1_555 1_555
C50_4 C51_4 1_555 1_555
Zn1_4 O1_4 1_555 1_555
Zn2_4 O2_4 1_555 1_555
O1_4 C7_4 1_555 1_555
O2_4 C7_4 1_555 1_555
O3_4 C8_4 1_555 1_555
O4_4 C8_4 1_555 1_555
O5_4 C9_4 1_555 1_555
O6_4 C9_4 1_555 1_555
C1_4 C2_4 1_555 1_555
C2_4 H1_4 1_555 1_555
C3_4 C2_4 1_555 1_555
C4_4 C3_4 1_555 1_555
H2_4 C4_4 1_555 1_555
C5_4 C4_4 1_555 1_555
C6_4 C1_4 1_555 1_555
H3_4 C6_4 1_555 1_555
C7_4 C1_4 1_555 1_555
C8_4 C3_4 1_555 1_555
C9_4 C5_4 1_555 1_555
O7_4 Zn2_4 1_555 1_555
O8_4 Zn1_4 1_555 1_555
C15_4 C10_4 1_555 1_555
H7_4 C15_4 1_555 1_555
C16_4 O7_4 1_555 1_555
O9_4 Zn1_4 1_555 1_555
C21_4 O9_4 1_555 1_555
O27_4 C62_4 1_555 1_555
O28_4 C62_4 1_555 1_555
O29_4 C63_4 1_555 1_555
O30_4 C63_4 1_555 1_555
C55_4 C56_4 1_555 1_555
C56_4 H25_4 1_555 1_555
C57_4 C56_4 1_555 1_555
C58_4 C57_4 1_555 1_555
H26_4 C58_4 1_555 1_555
C59_4 C58_4 1_555 1_555
C60_4 C55_4 1_555 1_555
H27_4 C60_4 1_555 1_555
C62_4 C57_4 1_555 1_555
C63_4 C59_4 1_555 1_555
Zn10_4 O30_4 1_555 1_555
Zn11_4 O6_4 1_555 1_555
Zn14_4 O27_4 1_555 1_555
Zn16_4 O3_4 1_555 1_555
Zn18_4 O29_4 1_555 1_555
Zn19_4 O5_4 1_555 1_555
O33_4 Zn2_4 1_555 1_555
O35_4 Zn2_4 1_555 1_555
O38_4 Zn1_4 1_555 1_555
C5_4 C6_4 1_555 1_555
O8_4 C16_4 1_555 1_555
C10_4 C16_4 1_555 1_555
C59_4 C60_4 1_555 1_555
O13_4 C37_4 1_555 1_555
O14_4 C37_4 1_555 1_555
C36_4 C31_4 1_555 1_555
H18_4 C36_4 1_555 1_555
C37_4 C31_4 1_555 1_555
Zn8_4 O14_4 1_555 1_555
Zn15_4 O13_4 1_555 1_555
C10_5 C11_5 1_555 1_555
C11_5 H4_5 1_555 1_555
C12_5 C11_5 1_555 1_555
H5_5 C12_5 1_555 1_555
C13_5 C12_5 1_555 1_555
C14_5 C13_5 1_555 1_555
H6_5 C14_5 1_555 1_555
C15_5 C10_5 1_555 1_555
H7_5 C15_5 1_555 1_555
C16_5 O40_3 1_555 1_555
C17_5 C13_5 1_555 1_555
C18_5 C17_5 1_555 1_555
H8_5 C18_5 1_555 1_555
C23_5 H10_5 1_555 1_555
C24_5 C23_5 1_555 1_555
H11_5 C24_5 1_555 1_555
C25_5 C24_5 1_555 1_555
C26_5 C25_5 1_555 1_555
C29_5 C25_5 1_555 1_555
C30_5 C17_5 1_555 1_555
H14_5 C30_5 1_555 1_555
O13_5 C37_5 1_555 1_555
O14_5 C37_5 1_555 1_555
C31_5 C32_5 1_555 1_555
C32_5 H15_5 1_555 1_555
C33_5 C32_5 1_555 1_555
H16_5 C33_5 1_555 1_555
C34_5 C33_5 1_555 1_555
C35_5 C34_5 1_555 1_555
H17_5 C35_5 1_555 1_555
C36_5 C31_5 1_555 1_555
H18_5 C36_5 1_555 1_555
C37_5 C31_5 1_555 1_555
C38_5 C18_5 1_555 1_555
C39_5 C29_5 1_555 1_555
H19_5 C39_5 1_555 1_555
Zn8_5 O14_5 1_555 1_555
Zn15_5 O13_5 1_555 1_555
O42_3 C16_5 1_555 1_555
C10_5 C16_5 1_555 1_555
C14_5 C15_5 1_555 1_555
C29_5 C30_5 1_555 1_555
C34_5 C38_5 1_555 1_555
C35_5 C36_5 1_555 1_555
C38_5 C39_5 1_555 1_555
O11_5 C28_5 1_555 1_555
O12_5 C28_5 1_555 1_555
C27_5 C22_5 1_555 1_555
H13_5 C27_5 1_555 1_555
C28_5 C22_5 1_555 1_555
Zn7_5 O12_5 1_555 1_555
Zn12_5 O11_5 1_555 1_555
C10_6 C11_6 1_555 1_555
C11_6 H4_6 1_555 1_555
C12_6 C11_6 1_555 1_555
H5_6 C12_6 1_555 1_555
C13_6 C12_6 1_555 1_555
C14_6 C13_6 1_555 1_555
H6_6 C14_6 1_555 1_555
C15_6 C10_6 1_555 1_555
H7_6 C15_6 1_555 1_555
C16_6 O40_2 1_555 1_555
C17_6 C13_6 1_555 1_555
C18_6 C17_6 1_555 1_555
H8_6 C18_6 1_555 1_555
O11_6 C28_6 1_555 1_555
O12_6 C28_6 1_555 1_555
C22_6 C23_6 1_555 1_555
C23_6 H10_6 1_555 1_555
C24_6 C23_6 1_555 1_555
H11_6 C24_6 1_555 1_555
C25_6 C24_6 1_555 1_555
C26_6 C25_6 1_555 1_555
H12_6 C26_6 1_555 1_555
C27_6 C22_6 1_555 1_555
H13_6 C27_6 1_555 1_555
C28_6 C22_6 1_555 1_555
C29_6 C25_6 1_555 1_555
C30_6 C17_6 1_555 1_555
H14_6 C30_6 1_555 1_555
O13_6 C37_6 1_555 1_555
O14_6 C37_6 1_555 1_555
C31_6 C32_6 1_555 1_555
C32_6 H15_6 1_555 1_555
C33_6 C32_6 1_555 1_555
H16_6 C33_6 1_555 1_555
C34_6 C33_6 1_555 1_555
C35_6 C34_6 1_555 1_555
H17_6 C35_6 1_555 1_555
C36_6 C31_6 1_555 1_555
H18_6 C36_6 1_555 1_555
C37_6 C31_6 1_555 1_555
C38_6 C18_6 1_555 1_555
C39_6 C29_6 1_555 1_555
H19_6 C39_6 1_555 1_555
Zn7_6 O12_6 1_555 1_555
Zn8_6 O14_6 1_555 1_555
Zn12_6 O11_6 1_555 1_555
Zn15_6 O13_6 1_555 1_555
O42_2 C16_6 1_555 1_555
C10_6 C16_6 1_555 1_555
C14_6 C15_6 1_555 1_555
C26_6 C27_6 1_555 1_555
C29_6 C30_6 1_555 1_555
C34_6 C38_6 1_555 1_555
C35_6 C36_6 1_555 1_555
C38_6 C39_6 1_555 1_555
C10_7 C11_7 1_555 1_555
C11_7 H4_7 1_555 1_555
C12_7 C11_7 1_555 1_555
H5_7 C12_7 1_555 1_555
C13_7 C12_7 1_555 1_555
C14_7 C13_7 1_555 1_555
H6_7 C14_7 1_555 1_555
C15_7 C10_7 1_555 1_555
H7_7 C15_7 1_555 1_555
C16_7 O40_4 1_555 1_555
C17_7 C13_7 1_555 1_555
C18_7 C17_7 1_555 1_555
H8_7 C18_7 1_555 1_555
O11_7 C28_7 1_555 1_555
O12_7 C28_7 1_555 1_555
C22_7 C23_7 1_555 1_555
C23_7 H10_7 1_555 1_555
C24_7 C23_7 1_555 1_555
H11_7 C24_7 1_555 1_555
C25_7 C24_7 1_555 1_555
C26_7 C25_7 1_555 1_555
H12_7 C26_7 1_555 1_555
C27_7 C22_7 1_555 1_555
H13_7 C27_7 1_555 1_555
C28_7 C22_7 1_555 1_555
C29_7 C25_7 1_555 1_555
C30_7 C17_7 1_555 1_555
H14_7 C30_7 1_555 1_555
O13_7 C37_7 1_555 1_555
O14_7 C37_7 1_555 1_555
C31_7 C32_7 1_555 1_555
C32_7 H15_7 1_555 1_555
C33_7 C32_7 1_555 1_555
H16_7 C33_7 1_555 1_555
C34_7 C33_7 1_555 1_555
C35_7 C34_7 1_555 1_555
H17_7 C35_7 1_555 1_555
C36_7 C31_7 1_555 1_555
H18_7 C36_7 1_555 1_555
C37_7 C31_7 1_555 1_555
C38_7 C18_7 1_555 1_555
C39_7 C29_7 1_555 1_555
H19_7 C39_7 1_555 1_555
Zn7_7 O12_7 1_555 1_555
Zn8_7 O14_7 1_555 1_555
Zn12_7 O11_7 1_555 1_555
Zn15_7 O13_7 1_555 1_555
O42_4 C16_7 1_555 1_555
C10_7 C16_7 1_555 1_555
C14_7 C15_7 1_555 1_555
C26_7 C27_7 1_555 1_555
C29_7 C30_7 1_555 1_555
C34_7 C38_7 1_555 1_555
C35_7 C36_7 1_555 1_555
C38_7 C39_7 1_555 1_555
C11_8 H4_8 1_555 1_555
C12_8 C11_8 1_555 1_555
H5_8 C12_8 1_555 1_555
C13_8 C12_8 1_555 1_555
C14_8 C13_8 1_555 1_555
C17_8 C13_8 1_555 1_555
C18_8 C17_8 1_555 1_555
H8_8 C18_8 1_555 1_555
O11_8 C28_8 1_555 1_555
O12_8 C28_8 1_555 1_555
C22_8 C23_8 1_555 1_555
C23_8 H10_8 1_555 1_555
C24_8 C23_8 1_555 1_555
H11_8 C24_8 1_555 1_555
C25_8 C24_8 1_555 1_555
C26_8 C25_8 1_555 1_555
H12_8 C26_8 1_555 1_555
C27_8 C22_8 1_555 1_555
H13_8 C27_8 1_555 1_555
C28_8 C22_8 1_555 1_555
C29_8 C25_8 1_555 1_555
C30_8 C17_8 1_555 1_555
H14_8 C30_8 1_555 1_555
C32_8 H15_8 1_555 1_555
C33_8 C32_8 1_555 1_555
H16_8 C33_8 1_555 1_555
C34_8 C33_8 1_555 1_555
C35_8 C34_8 1_555 1_555
C38_8 C18_8 1_555 1_555
C39_8 C29_8 1_555 1_555
H19_8 C39_8 1_555 1_555
Zn7_8 O12_8 1_555 1_555
Zn12_8 O11_8 1_555 1_555
C26_8 C27_8 1_555 1_555
C29_8 C30_8 1_555 1_555
C34_8 C38_8 1_555 1_555
C38_8 C39_8 1_555 1_555
C15_8 C10_8 1_555 1_555
H7_8 C15_8 1_555 1_555
C16_8 O40 1_555 1_555
O42 C16_8 1_555 1_555
C10_8 C16_8 1_555 1_555
O13_8 C37_8 1_555 1_555
O14_8 C37_8 1_555 1_555
C36_8 C31_8 1_555 1_555
H18_8 C36_8 1_555 1_555
C37_8 C31_8 1_555 1_555
Zn8_8 O14_8 1_555 1_555
Zn15_8 O13_8 1_555 1_555
C10_9 C11_9 1_555 1_555
C11_9 H4_9 1_555 1_555
C12_9 C11_9 1_555 1_555
H5_9 C12_9 1_555 1_555
C13_9 C12_9 1_555 1_555
C14_9 C13_9 1_555 1_555
H6_9 C14_9 1_555 1_555
C15_9 C10_9 1_555 1_555
H7_9 C15_9 1_555 1_555
C16_9 O41_4 1_555 1_555
C17_9 C13_9 1_555 1_555
C18_9 C17_9 1_555 1_555
H8_9 C18_9 1_555 1_555
C23_9 H10_9 1_555 1_555
C24_9 C23_9 1_555 1_555
H11_9 C24_9 1_555 1_555
C25_9 C24_9 1_555 1_555
C26_9 C25_9 1_555 1_555
C29_9 C25_9 1_555 1_555
C30_9 C17_9 1_555 1_555
H14_9 C30_9 1_555 1_555
O13_9 C37_9 1_555 1_555
O14_9 C37_9 1_555 1_555
C31_9 C32_9 1_555 1_555
C32_9 H15_9 1_555 1_555
C33_9 C32_9 1_555 1_555
H16_9 C33_9 1_555 1_555
C34_9 C33_9 1_555 1_555
C35_9 C34_9 1_555 1_555
H17_9 C35_9 1_555 1_555
C36_9 C31_9 1_555 1_555
H18_9 C36_9 1_555 1_555
C37_9 C31_9 1_555 1_555
C38_9 C18_9 1_555 1_555
C39_9 C29_9 1_555 1_555
H19_9 C39_9 1_555 1_555
Zn8_9 O14_9 1_555 1_555
Zn15_9 O13_9 1_555 1_555
O43_4 C16_9 1_555 1_555
C10_9 C16_9 1_555 1_555
C14_9 C15_9 1_555 1_555
C29_9 C30_9 1_555 1_555
C34_9 C38_9 1_555 1_555
C35_9 C36_9 1_555 1_555
C38_9 C39_9 1_555 1_555
O11_9 C28_9 1_555 1_555
O12_9 C28_9 1_555 1_555
C27_9 C22_9 1_555 1_555
H13_9 C27_9 1_555 1_555
C28_9 C22_9 1_555 1_555
Zn7_9 O12_9 1_555 1_555
Zn12_9 O11_9 1_555 1_555
C10_10 C11_10 1_555 1_555
C11_10 H4_10 1_555 1_555
C12_10 C11_10 1_555 1_555
H5_10 C12_10 1_555 1_555
C13_10 C12_10 1_555 1_555
C14_10 C13_10 1_555 1_555
H6_10 C14_10 1_555 1_555
C15_10 C10_10 1_555 1_555
H7_10 C15_10 1_555 1_555
C16_10 O41_2 1_555 1_555
C17_10 C13_10 1_555 1_555
C18_10 C17_10 1_555 1_555
H8_10 C18_10 1_555 1_555
O11_10 C28_10 1_555 1_555
O12_10 C28_10 1_555 1_555
C22_10 C23_10 1_555 1_555
C23_10 H10_10 1_555 1_555
C24_10 C23_10 1_555 1_555
H11_10 C24_10 1_555 1_555
C25_10 C24_10 1_555 1_555
C26_10 C25_10 1_555 1_555
H12_10 C26_10 1_555 1_555
C27_10 C22_10 1_555 1_555
H13_10 C27_10 1_555 1_555
C28_10 C22_10 1_555 1_555
C29_10 C25_10 1_555 1_555
C30_10 C17_10 1_555 1_555
H14_10 C30_10 1_555 1_555
O13_10 C37_10 1_555 1_555
O14_10 C37_10 1_555 1_555
C31_10 C32_10 1_555 1_555
C32_10 H15_10 1_555 1_555
C33_10 C32_10 1_555 1_555
H16_10 C33_10 1_555 1_555
C34_10 C33_10 1_555 1_555
C35_10 C34_10 1_555 1_555
H17_10 C35_10 1_555 1_555
C36_10 C31_10 1_555 1_555
H18_10 C36_10 1_555 1_555
C37_10 C31_10 1_555 1_555
C38_10 C18_10 1_555 1_555
C39_10 C29_10 1_555 1_555
H19_10 C39_10 1_555 1_555
Zn7_10 O12_10 1_555 1_555
Zn8_10 O14_10 1_555 1_555
Zn12_10 O11_10 1_555 1_555
Zn15_10 O13_10 1_555 1_555
O43_2 C16_10 1_555 1_555
C10_10 C16_10 1_555 1_555
C14_10 C15_10 1_555 1_555
C26_10 C27_10 1_555 1_555
C29_10 C30_10 1_555 1_555
C34_10 C38_10 1_555 1_555
C35_10 C36_10 1_555 1_555
C38_10 C39_10 1_555 1_555
C10_11 C11_11 1_555 1_555
C11_11 H4_11 1_555 1_555
C12_11 C11_11 1_555 1_555
H5_11 C12_11 1_555 1_555
C13_11 C12_11 1_555 1_555
C14_11 C13_11 1_555 1_555
H6_11 C14_11 1_555 1_555
C15_11 C10_11 1_555 1_555
H7_11 C15_11 1_555 1_555
C16_11 O41 1_555 1_555
C17_11 C13_11 1_555 1_555
C18_11 C17_11 1_555 1_555
H8_11 C18_11 1_555 1_555
O11_11 C28_11 1_555 1_555
O12_11 C28_11 1_555 1_555
C22_11 C23_11 1_555 1_555
C23_11 H10_11 1_555 1_555
C24_11 C23_11 1_555 1_555
H11_11 C24_11 1_555 1_555
C25_11 C24_11 1_555 1_555
C26_11 C25_11 1_555 1_555
H12_11 C26_11 1_555 1_555
C27_11 C22_11 1_555 1_555
H13_11 C27_11 1_555 1_555
C28_11 C22_11 1_555 1_555
C29_11 C25_11 1_555 1_555
C30_11 C17_11 1_555 1_555
H14_11 C30_11 1_555 1_555
O13_11 C37_11 1_555 1_555
O14_11 C37_11 1_555 1_555
C31_11 C32_11 1_555 1_555
C32_11 H15_11 1_555 1_555
C33_11 C32_11 1_555 1_555
H16_11 C33_11 1_555 1_555
C34_11 C33_11 1_555 1_555
C35_11 C34_11 1_555 1_555
H17_11 C35_11 1_555 1_555
C36_11 C31_11 1_555 1_555
H18_11 C36_11 1_555 1_555
C37_11 C31_11 1_555 1_555
C38_11 C18_11 1_555 1_555
C39_11 C29_11 1_555 1_555
H19_11 C39_11 1_555 1_555
Zn7_11 O12_11 1_555 1_555
Zn8_11 O14_11 1_555 1_555
Zn12_11 O11_11 1_555 1_555
Zn15_11 O13_11 1_555 1_555
O43 C16_11 1_555 1_555
C10_11 C16_11 1_555 1_555
C14_11 C15_11 1_555 1_555
C26_11 C27_11 1_555 1_555
C29_11 C30_11 1_555 1_555
C34_11 C38_11 1_555 1_555
C35_11 C36_11 1_555 1_555
C38_11 C39_11 1_555 1_555
C11_12 H4_12 1_555 1_555
C12_12 C11_12 1_555 1_555
H5_12 C12_12 1_555 1_555
C13_12 C12_12 1_555 1_555
C14_12 C13_12 1_555 1_555
C17_12 C13_12 1_555 1_555
C18_12 C17_12 1_555 1_555
H8_12 C18_12 1_555 1_555
O11_12 C28_12 1_555 1_555
O12_12 C28_12 1_555 1_555
C22_12 C23_12 1_555 1_555
C23_12 H10_12 1_555 1_555
C24_12 C23_12 1_555 1_555
H11_12 C24_12 1_555 1_555
C25_12 C24_12 1_555 1_555
C26_12 C25_12 1_555 1_555
H12_12 C26_12 1_555 1_555
C27_12 C22_12 1_555 1_555
H13_12 C27_12 1_555 1_555
C28_12 C22_12 1_555 1_555
C29_12 C25_12 1_555 1_555
C30_12 C17_12 1_555 1_555
H14_12 C30_12 1_555 1_555
C32_12 H15_12 1_555 1_555
C33_12 C32_12 1_555 1_555
H16_12 C33_12 1_555 1_555
C34_12 C33_12 1_555 1_555
C35_12 C34_12 1_555 1_555
C38_12 C18_12 1_555 1_555
C39_12 C29_12 1_555 1_555
H19_12 C39_12 1_555 1_555
Zn7_12 O12_12 1_555 1_555
Zn12_12 O11_12 1_555 1_555
C26_12 C27_12 1_555 1_555
C29_12 C30_12 1_555 1_555
C34_12 C38_12 1_555 1_555
C38_12 C39_12 1_555 1_555
O13_12 C37_12 1_555 1_555
O14_12 C37_12 1_555 1_555
C36_12 C31_12 1_555 1_555
H18_12 C36_12 1_555 1_555
C37_12 C31_12 1_555 1_555
Zn8_12 O14_12 1_555 1_555
Zn15_12 O13_12 1_555 1_555
C15_12 C10_12 1_555 1_555
H7_12 C15_12 1_555 1_555
C16_12 O41_3 1_555 1_555
O43_3 C16_12 1_555 1_555
C10_12 C16_12 1_555 1_555
O27_5 C62_5 1_555 1_555
O28_5 C62_5 1_555 1_555
O29_5 C63_5 1_555 1_555
O30_5 C63_5 1_555 1_555
C55_5 C56_5 1_555 1_555
C56_5 H25_5 1_555 1_555
C57_5 C56_5 1_555 1_555
C58_5 C57_5 1_555 1_555
H26_5 C58_5 1_555 1_555
C59_5 C58_5 1_555 1_555
C60_5 C55_5 1_555 1_555
H27_5 C60_5 1_555 1_555
C62_5 C57_5 1_555 1_555
C63_5 C59_5 1_555 1_555
Zn10_5 O30_5 1_555 1_555
Zn12_4 O27_5 1_555 1_555
Zn18_5 O29_5 1_555 1_555
C59_5 C60_5 1_555 1_555
O3_5 C8_5 1_555 1_555
O4_5 C8_5 1_555 1_555
O5_5 C9_5 1_555 1_555
O6_5 C9_5 1_555 1_555
C1_5 C2_5 1_555 1_555
C2_5 H1_5 1_555 1_555
C3_5 C2_5 1_555 1_555
C4_5 C3_5 1_555 1_555
H2_5 C4_5 1_555 1_555
C5_5 C4_5 1_555 1_555
C6_5 C1_5 1_555 1_555
H3_5 C6_5 1_555 1_555
C8_5 C3_5 1_555 1_555
C9_5 C5_5 1_555 1_555
Zn11_5 O6_5 1_555 1_555
Zn12_12 O3_5 1_555 1_555
Zn19_5 O5_5 1_555 1_555
C5_5 C6_5 1_555 1_555
Zn1_5 O1_5 1_555 1_555
Zn2_5 O2_5 1_555 1_555
O1_5 C7_5 1_555 1_555
O2_5 C7_5 1_555 1_555
O7_5 Zn2_5 1_555 1_555
O8_5 Zn1_5 1_555 1_555
C15_13 C10_13 1_555 1_555
H7_13 C15_13 1_555 1_555
C16_13 O7_5 1_555 1_555
O9_5 Zn1_5 1_555 1_555
C21_5 O9_5 1_555 1_555
O33_5 Zn2_5 1_555 1_555
O35_5 Zn2_5 1_555 1_555
O38_5 Zn1_5 1_555 1_555
O8_5 C16_13 1_555 1_555
C10_13 C16_13 1_555 1_555
O21_5 C53_5 1_555 1_555
O22_5 C53_5 1_555 1_555
O23_5 C54_5 1_555 1_555
O24_5 C54_5 1_555 1_555
C46_5 C47_5 1_555 1_555
C47_5 H22_5 1_555 1_555
C48_5 C47_5 1_555 1_555
C49_5 C48_5 1_555 1_555
H23_5 C49_5 1_555 1_555
C50_5 C49_5 1_555 1_555
C51_5 C46_5 1_555 1_555
H24_5 C51_5 1_555 1_555
C53_5 C48_5 1_555 1_555
C54_5 C50_5 1_555 1_555
Zn9_5 O24_5 1_555 1_555
Zn12_8 O21_5 1_555 1_555
Zn17_5 O23_5 1_555 1_555
C50_5 C51_5 1_555 1_555
O17_5 C45_5 1_555 1_555
Zn5_5 O17_5 1_555 1_555
Zn6_5 O26_5 1_555 1_555
O25_5 Zn5_5 1_555 1_555
O26_5 C61_5 1_555 1_555
C61_5 O25_5 1_555 1_555
O32_5 Zn6_5 1_555 1_555
O34_5 Zn6_5 1_555 1_555
O37_5 Zn5_5 1_555 1_555
O41_5 Zn6_5 1_555 1_555
O43_5 Zn5_5 1_555 1_555
O11_13 C28_13 1_555 1_555
O12_13 C28_13 1_555 1_555
C27_13 C22_13 1_555 1_555
H13_13 C27_13 1_555 1_555
C28_13 C22_13 1_555 1_555
O15_5 C42_5 1_555 1_555
Zn3_5 O15_5 1_555 1_555
Zn4_5 O20_5 1_555 1_555
O19_5 Zn3_5 1_555 1_555
O20_5 C52_5 1_555 1_555
C52_5 O19_5 1_555 1_555
Zn7_13 O12_13 1_555 1_555
Zn14_3 O11_13 1_555 1_555
O31_5 Zn4_5 1_555 1_555
O36_5 Zn4_5 1_555 1_555
O39_5 Zn3_5 1_555 1_555
O40_5 Zn4_5 1_555 1_555
O42_5 Zn3_5 1_555 1_555
C11_13 H4_13 1_555 1_555
C12_13 C11_13 1_555 1_555
H5_13 C12_13 1_555 1_555
C13_13 C12_13 1_555 1_555
C14_13 C13_13 1_555 1_555
C17_13 C13_13 1_555 1_555
C18_13 C17_13 1_555 1_555
H8_13 C18_13 1_555 1_555
C19_5 C20_5 1_555 1_555
C20_5 H9_5 1_555 1_555
C23_13 H10_13 1_555 1_555
C24_13 C23_13 1_555 1_555
H11_13 C24_13 1_555 1_555
C25_13 C24_13 1_555 1_555
C26_13 C25_13 1_555 1_555
C29_13 C25_13 1_555 1_555
C30_13 C17_13 1_555 1_555
H14_13 C30_13 1_555 1_555
O13_13 C37_13 1_555 1_555
O14_13 C37_13 1_555 1_555
C31_13 C32_13 1_555 1_555
C32_13 H15_13 1_555 1_555
C33_13 C32_13 1_555 1_555
H16_13 C33_13 1_555 1_555
C34_13 C33_13 1_555 1_555
C35_13 C34_13 1_555 1_555
H17_13 C35_13 1_555 1_555
C36_13 C31_13 1_555 1_555
H18_13 C36_13 1_555 1_555
C37_13 C31_13 1_555 1_555
C38_13 C18_13 1_555 1_555
C39_13 C29_13 1_555 1_555
H19_13 C39_13 1_555 1_555
C40_5 C20_5 1_555 1_555
C41_5 C40_5 1_555 1_555
H20_5 C41_5 1_555 1_555
C43_5 C41_5 1_555 1_555
C44_5 C19_5 1_555 1_555
H21_5 C44_5 1_555 1_555
Zn8_13 O14_13 1_555 1_555
Zn15_13 O13_13 1_555 1_555
C29_13 C30_13 1_555 1_555
C34_13 C38_13 1_555 1_555
C35_13 C36_13 1_555 1_555
C38_13 C39_13 1_555 1_555
C43_5 C44_5 1_555 1_555
O13_14 C37_14 1_555 1_555
O14_14 C37_14 1_555 1_555
C36_14 C31_14 1_555 1_555
H18_14 C36_14 1_555 1_555
C37_14 C31_14 1_555 1_555
Zn8_14 O14_14 1_555 1_555
Zn15_14 O13_14 1_555 1_555
Zn1_6 O1_6 1_555 1_555
Zn2_6 O2_6 1_555 1_555
O1_6 C7_6 1_555 1_555
O2_6 C7_6 1_555 1_555
O3_6 C8_6 1_555 1_555
O4_6 C8_6 1_555 1_555
O5_6 C9_6 1_555 1_555
O6_6 C9_6 1_555 1_555
C1_6 C2_6 1_555 1_555
C2_6 H1_6 1_555 1_555
C3_6 C2_6 1_555 1_555
C4_6 C3_6 1_555 1_555
H2_6 C4_6 1_555 1_555
C5_6 C4_6 1_555 1_555
C6_6 C1_6 1_555 1_555
H3_6 C6_6 1_555 1_555
C7_6 C1_6 1_555 1_555
C8_6 C3_6 1_555 1_555
C9_6 C5_6 1_555 1_555
O7_6 Zn2_6 1_555 1_555
O8_6 Zn1_6 1_555 1_555
C10_14 C11_14 1_555 1_555
C11_14 H4_14 1_555 1_555
C12_14 C11_14 1_555 1_555
H5_14 C12_14 1_555 1_555
C13_14 C12_14 1_555 1_555
C14_14 C13_14 1_555 1_555
H6_14 C14_14 1_555 1_555
C15_14 C10_14 1_555 1_555
H7_14 C15_14 1_555 1_555
C16_14 O7_6 1_555 1_555
C17_14 C13_14 1_555 1_555
O9_6 Zn1_6 1_555 1_555
O10_6 C21_6 1_555 1_555
C18_14 C17_14 1_555 1_555
H8_14 C18_14 1_555 1_555
C19_6 C20_6 1_555 1_555
C20_6 H9_6 1_555 1_555
C21_6 O9_6 1_555 1_555
O11_14 C28_14 1_555 1_555
O12_14 C28_14 1_555 1_555
C22_14 C23_14 1_555 1_555
C23_14 H10_14 1_555 1_555
C24_14 C23_14 1_555 1_555
H11_14 C24_14 1_555 1_555
C25_14 C24_14 1_555 1_555
C26_14 C25_14 1_555 1_555
H12_14 C26_14 1_555 1_555
C27_14 C22_14 1_555 1_555
H13_14 C27_14 1_555 1_555
C28_14 C22_14 1_555 1_555
C29_14 C25_14 1_555 1_555
C30_14 C17_14 1_555 1_555
H14_14 C30_14 1_555 1_555
C32_14 H15_14 1_555 1_555
C33_14 C32_14 1_555 1_555
H16_14 C33_14 1_555 1_555
C34_14 C33_14 1_555 1_555
C35_14 C34_14 1_555 1_555
C38_14 C18_14 1_555 1_555
C39_14 C29_14 1_555 1_555
H19_14 C39_14 1_555 1_555
O15_6 C42_6 1_555 1_555
O16_6 C42_6 1_555 1_555
C40_6 C20_6 1_555 1_555
C41_6 C40_6 1_555 1_555
H20_6 C41_6 1_555 1_555
C42_6 C40_6 1_555 1_555
O17_6 C45_6 1_555 1_555
O18_6 C45_6 1_555 1_555
C43_6 C41_6 1_555 1_555
C44_6 C19_6 1_555 1_555
H21_6 C44_6 1_555 1_555
C45_6 C43_6 1_555 1_555
Zn3_6 O15_6 1_555 1_555
Zn4_6 O20_6 1_555 1_555
O19_6 Zn3_6 1_555 1_555
O20_6 C52_6 1_555 1_555
O21_6 C53_6 1_555 1_555
O22_6 C53_6 1_555 1_555
O23_6 C54_6 1_555 1_555
O24_6 C54_6 1_555 1_555
C46_6 C47_6 1_555 1_555
C47_6 H22_6 1_555 1_555
C48_6 C47_6 1_555 1_555
C49_6 C48_6 1_555 1_555
H23_6 C49_6 1_555 1_555
C50_6 C49_6 1_555 1_555
C51_6 C46_6 1_555 1_555
H24_6 C51_6 1_555 1_555
C52_6 O19_6 1_555 1_555
C53_6 C48_6 1_555 1_555
C54_6 C50_6 1_555 1_555
Zn5_6 O17_6 1_555 1_555
Zn6_6 O26_6 1_555 1_555
O25_6 Zn5_6 1_555 1_555
O26_6 C61_6 1_555 1_555
O27_6 C62_6 1_555 1_555
O28_6 C62_6 1_555 1_555
O29_6 C63_6 1_555 1_555
O30_6 C63_6 1_555 1_555
C55_6 C56_6 1_555 1_555
C56_6 H25_6 1_555 1_555
C57_6 C56_6 1_555 1_555
C58_6 C57_6 1_555 1_555
H26_6 C58_6 1_555 1_555
C59_6 C58_6 1_555 1_555
C60_6 C55_6 1_555 1_555
H27_6 C60_6 1_555 1_555
C61_6 O25_6 1_555 1_555
C62_6 C57_6 1_555 1_555
C63_6 C59_6 1_555 1_555
Zn7_14 O12_14 1_555 1_555
Zn9_6 O24_6 1_555 1_555
Zn10_6 O30_6 1_555 1_555
Zn11_6 O6_6 1_555 1_555
Zn14_4 O11_14 1_555 1_555
Zn12_6 O21_6 1_555 1_555
Zn12_3 O27_6 1_555 1_555
Zn12_9 O3_6 1_555 1_555
Zn17_6 O23_6 1_555 1_555
Zn18_6 O29_6 1_555 1_555
Zn19_6 O5_6 1_555 1_555
O31_6 Zn4_6 1_555 1_555
O32_6 Zn6_6 1_555 1_555
O33_6 Zn2_6 1_555 1_555
O34_6 Zn6_6 1_555 1_555
O35_6 Zn2_6 1_555 1_555
O36_6 Zn4_6 1_555 1_555
O37_6 Zn5_6 1_555 1_555
O38_6 Zn1_6 1_555 1_555
O39_6 Zn3_6 1_555 1_555
O40_6 Zn4_6 1_555 1_555
O41_6 Zn6_6 1_555 1_555
O42_6 Zn3_6 1_555 1_555
O43_6 Zn5_6 1_555 1_555
C5_6 C6_6 1_555 1_555
O8_6 C16_14 1_555 1_555
C10_14 C16_14 1_555 1_555
C14_14 C15_14 1_555 1_555
C19_6 C21_6 1_555 1_555
C26_14 C27_14 1_555 1_555
C29_14 C30_14 1_555 1_555
C34_14 C38_14 1_555 1_555
C38_14 C39_14 1_555 1_555
C43_6 C44_6 1_555 1_555
C46_6 C52_6 1_555 1_555
C50_6 C51_6 1_555 1_555
C55_6 C61_6 1_555 1_555
C59_6 C60_6 1_555 1_555
Zn1_7 O1_7 1_555 1_555
Zn2_7 O2_7 1_555 1_555
O1_7 C7_7 1_555 1_555
O2_7 C7_7 1_555 1_555
O3_7 C8_7 1_555 1_555
O4_7 C8_7 1_555 1_555
O5_7 C9_7 1_555 1_555
O6_7 C9_7 1_555 1_555
C1_7 C2_7 1_555 1_555
C2_7 H1_7 1_555 1_555
C3_7 C2_7 1_555 1_555
C4_7 C3_7 1_555 1_555
H2_7 C4_7 1_555 1_555
C5_7 C4_7 1_555 1_555
C6_7 C1_7 1_555 1_555
H3_7 C6_7 1_555 1_555
C7_7 C1_7 1_555 1_555
C8_7 C3_7 1_555 1_555
C9_7 C5_7 1_555 1_555
O7_7 Zn2_7 1_555 1_555
O8_7 Zn1_7 1_555 1_555
C10_15 C11_15 1_555 1_555
C11_15 H4_15 1_555 1_555
C12_15 C11_15 1_555 1_555
H5_15 C12_15 1_555 1_555
C13_15 C12_15 1_555 1_555
C14_15 C13_15 1_555 1_555
H6_15 C14_15 1_555 1_555
C15_15 C10_15 1_555 1_555
H7_15 C15_15 1_555 1_555
C16_15 O7_7 1_555 1_555
C17_15 C13_15 1_555 1_555
O9_7 Zn1_7 1_555 1_555
O10_7 C21_7 1_555 1_555
C18_15 C17_15 1_555 1_555
H8_15 C18_15 1_555 1_555
C19_7 C20_7 1_555 1_555
C20_7 H9_7 1_555 1_555
C21_7 O9_7 1_555 1_555
O11_15 C28_15 1_555 1_555
O12_15 C28_15 1_555 1_555
C22_15 C23_15 1_555 1_555
C23_15 H10_15 1_555 1_555
C24_15 C23_15 1_555 1_555
H11_15 C24_15 1_555 1_555
C25_15 C24_15 1_555 1_555
C26_15 C25_15 1_555 1_555
H12_15 C26_15 1_555 1_555
C27_15 C22_15 1_555 1_555
H13_15 C27_15 1_555 1_555
C28_15 C22_15 1_555 1_555
C29_15 C25_15 1_555 1_555
C30_15 C17_15 1_555 1_555
H14_15 C30_15 1_555 1_555
O13_15 C37_15 1_555 1_555
O14_15 C37_15 1_555 1_555
C31_15 C32_15 1_555 1_555
C32_15 H15_15 1_555 1_555
C33_15 C32_15 1_555 1_555
H16_15 C33_15 1_555 1_555
C34_15 C33_15 1_555 1_555
C35_15 C34_15 1_555 1_555
H17_15 C35_15 1_555 1_555
C36_15 C31_15 1_555 1_555
H18_15 C36_15 1_555 1_555
C37_15 C31_15 1_555 1_555
C38_15 C18_15 1_555 1_555
C39_15 C29_15 1_555 1_555
H19_15 C39_15 1_555 1_555
O15_7 C42_7 1_555 1_555
O16_7 C42_7 1_555 1_555
C40_7 C20_7 1_555 1_555
C41_7 C40_7 1_555 1_555
H20_7 C41_7 1_555 1_555
C42_7 C40_7 1_555 1_555
O17_7 C45_7 1_555 1_555
O18_7 C45_7 1_555 1_555
C43_7 C41_7 1_555 1_555
C44_7 C19_7 1_555 1_555
H21_7 C44_7 1_555 1_555
C45_7 C43_7 1_555 1_555
Zn3_7 O15_7 1_555 1_555
Zn4_7 O20_7 1_555 1_555
O19_7 Zn3_7 1_555 1_555
O20_7 C52_7 1_555 1_555
O21_7 C53_7 1_555 1_555
O22_7 C53_7 1_555 1_555
O23_7 C54_7 1_555 1_555
O24_7 C54_7 1_555 1_555
C46_7 C47_7 1_555 1_555
C47_7 H22_7 1_555 1_555
C48_7 C47_7 1_555 1_555
C49_7 C48_7 1_555 1_555
H23_7 C49_7 1_555 1_555
C50_7 C49_7 1_555 1_555
C51_7 C46_7 1_555 1_555
H24_7 C51_7 1_555 1_555
C52_7 O19_7 1_555 1_555
C53_7 C48_7 1_555 1_555
C54_7 C50_7 1_555 1_555
Zn5_7 O17_7 1_555 1_555
Zn6_7 O26_7 1_555 1_555
O25_7 Zn5_7 1_555 1_555
O26_7 C61_7 1_555 1_555
O27_7 C62_7 1_555 1_555
O28_7 C62_7 1_555 1_555
O29_7 C63_7 1_555 1_555
O30_7 C63_7 1_555 1_555
C55_7 C56_7 1_555 1_555
C56_7 H25_7 1_555 1_555
C57_7 C56_7 1_555 1_555
C58_7 C57_7 1_555 1_555
H26_7 C58_7 1_555 1_555
C59_7 C58_7 1_555 1_555
C60_7 C55_7 1_555 1_555
H27_7 C60_7 1_555 1_555
C61_7 O25_7 1_555 1_555
C62_7 C57_7 1_555 1_555
C63_7 C59_7 1_555 1_555
Zn7_15 O12_15 1_555 1_555
Zn8_15 O14_15 1_555 1_555
Zn9_7 O24_7 1_555 1_555
Zn10_7 O30_7 1_555 1_555
Zn11_7 O6_7 1_555 1_555
Zn14_2 O11_15 1_555 1_555
Zn12_7 O21_7 1_555 1_555
Zn12 O27_7 1_555 1_555
Zn15_15 O13_15 1_555 1_555
Zn12_10 O3_7 1_555 1_555
Zn17_7 O23_7 1_555 1_555
Zn18_7 O29_7 1_555 1_555
Zn19_7 O5_7 1_555 1_555
O31_7 Zn4_7 1_555 1_555
O32_7 Zn6_7 1_555 1_555
O33_7 Zn2_7 1_555 1_555
O34_7 Zn6_7 1_555 1_555
O35_7 Zn2_7 1_555 1_555
O36_7 Zn4_7 1_555 1_555
O37_7 Zn5_7 1_555 1_555
O38_7 Zn1_7 1_555 1_555
O39_7 Zn3_7 1_555 1_555
O40_7 Zn4_7 1_555 1_555
O41_7 Zn6_7 1_555 1_555
O42_7 Zn3_7 1_555 1_555
O43_7 Zn5_7 1_555 1_555
C5_7 C6_7 1_555 1_555
O8_7 C16_15 1_555 1_555
C10_15 C16_15 1_555 1_555
C14_15 C15_15 1_555 1_555
C19_7 C21_7 1_555 1_555
C26_15 C27_15 1_555 1_555
C29_15 C30_15 1_555 1_555
C34_15 C38_15 1_555 1_555
C35_15 C36_15 1_555 1_555
C38_15 C39_15 1_555 1_555
C43_7 C44_7 1_555 1_555
C46_7 C52_7 1_555 1_555
C50_7 C51_7 1_555 1_555
C55_7 C61_7 1_555 1_555
C59_7 C60_7 1_555 1_555
Zn1_8 O1_8 1_555 1_555
Zn2_8 O2_8 1_555 1_555
O1_8 C7_8 1_555 1_555
O2_8 C7_8 1_555 1_555
O3_8 C8_8 1_555 1_555
O4_8 C8_8 1_555 1_555
O5_8 C9_8 1_555 1_555
O6_8 C9_8 1_555 1_555
C1_8 C2_8 1_555 1_555
C2_8 H1_8 1_555 1_555
C3_8 C2_8 1_555 1_555
C4_8 C3_8 1_555 1_555
H2_8 C4_8 1_555 1_555
C5_8 C4_8 1_555 1_555
C6_8 C1_8 1_555 1_555
H3_8 C6_8 1_555 1_555
C7_8 C1_8 1_555 1_555
C8_8 C3_8 1_555 1_555
C9_8 C5_8 1_555 1_555
O7_8 Zn2_8 1_555 1_555
O8_8 Zn1_8 1_555 1_555
C10_16 C11_16 1_555 1_555
C11_16 H4_16 1_555 1_555
C12_16 C11_16 1_555 1_555
H5_16 C12_16 1_555 1_555
C13_16 C12_16 1_555 1_555
C14_16 C13_16 1_555 1_555
H6_16 C14_16 1_555 1_555
C15_16 C10_16 1_555 1_555
H7_16 C15_16 1_555 1_555
C16_16 O7_8 1_555 1_555
C17_16 C13_16 1_555 1_555
O9_8 Zn1_8 1_555 1_555
O10_8 C21_8 1_555 1_555
C18_16 C17_16 1_555 1_555
H8_16 C18_16 1_555 1_555
C19_8 C20_8 1_555 1_555
C20_8 H9_8 1_555 1_555
C21_8 O9_8 1_555 1_555
O11_16 C28_16 1_555 1_555
O12_16 C28_16 1_555 1_555
C22_16 C23_16 1_555 1_555
C23_16 H10_16 1_555 1_555
C24_16 C23_16 1_555 1_555
H11_16 C24_16 1_555 1_555
C25_16 C24_16 1_555 1_555
C26_16 C25_16 1_555 1_555
H12_16 C26_16 1_555 1_555
C27_16 C22_16 1_555 1_555
H13_16 C27_16 1_555 1_555
C28_16 C22_16 1_555 1_555
C29_16 C25_16 1_555 1_555
C30_16 C17_16 1_555 1_555
H14_16 C30_16 1_555 1_555
O13_16 C37_16 1_555 1_555
O14_16 C37_16 1_555 1_555
C31_16 C32_16 1_555 1_555
C32_16 H15_16 1_555 1_555
C33_16 C32_16 1_555 1_555
H16_16 C33_16 1_555 1_555
C34_16 C33_16 1_555 1_555
C35_16 C34_16 1_555 1_555
H17_16 C35_16 1_555 1_555
C36_16 C31_16 1_555 1_555
H18_16 C36_16 1_555 1_555
C37_16 C31_16 1_555 1_555
C38_16 C18_16 1_555 1_555
C39_16 C29_16 1_555 1_555
H19_16 C39_16 1_555 1_555
O15_8 C42_8 1_555 1_555
O16_8 C42_8 1_555 1_555
C40_8 C20_8 1_555 1_555
C41_8 C40_8 1_555 1_555
H20_8 C41_8 1_555 1_555
C42_8 C40_8 1_555 1_555
O17_8 C45_8 1_555 1_555
O18_8 C45_8 1_555 1_555
C43_8 C41_8 1_555 1_555
C44_8 C19_8 1_555 1_555
H21_8 C44_8 1_555 1_555
C45_8 C43_8 1_555 1_555
Zn3_8 O15_8 1_555 1_555
Zn4_8 O20_8 1_555 1_555
O19_8 Zn3_8 1_555 1_555
O20_8 C52_8 1_555 1_555
O21_8 C53_8 1_555 1_555
O22_8 C53_8 1_555 1_555
O23_8 C54_8 1_555 1_555
O24_8 C54_8 1_555 1_555
C46_8 C47_8 1_555 1_555
C47_8 H22_8 1_555 1_555
C48_8 C47_8 1_555 1_555
C49_8 C48_8 1_555 1_555
H23_8 C49_8 1_555 1_555
C50_8 C49_8 1_555 1_555
C51_8 C46_8 1_555 1_555
H24_8 C51_8 1_555 1_555
C52_8 O19_8 1_555 1_555
C53_8 C48_8 1_555 1_555
C54_8 C50_8 1_555 1_555
Zn5_8 O17_8 1_555 1_555
Zn6_8 O26_8 1_555 1_555
O25_8 Zn5_8 1_555 1_555
O26_8 C61_8 1_555 1_555
O27_8 C62_8 1_555 1_555
O28_8 C62_8 1_555 1_555
O29_8 C63_8 1_555 1_555
O30_8 C63_8 1_555 1_555
C55_8 C56_8 1_555 1_555
C56_8 H25_8 1_555 1_555
C57_8 C56_8 1_555 1_555
C58_8 C57_8 1_555 1_555
H26_8 C58_8 1_555 1_555
C59_8 C58_8 1_555 1_555
C60_8 C55_8 1_555 1_555
H27_8 C60_8 1_555 1_555
C61_8 O25_8 1_555 1_555
C62_8 C57_8 1_555 1_555
C63_8 C59_8 1_555 1_555
Zn7_16 O12_16 1_555 1_555
Zn8_16 O14_16 1_555 1_555
Zn9_8 O24_8 1_555 1_555
Zn10_8 O30_8 1_555 1_555
Zn11_8 O6_8 1_555 1_555
Zn14 O11_16 1_555 1_555
Zn12_5 O21_8 1_555 1_555
Zn12_2 O27_8 1_555 1_555
Zn15_16 O13_16 1_555 1_555
Zn12_11 O3_8 1_555 1_555
Zn17_8 O23_8 1_555 1_555
Zn18_8 O29_8 1_555 1_555
Zn19_8 O5_8 1_555 1_555
O31_8 Zn4_8 1_555 1_555
O32_8 Zn6_8 1_555 1_555
O33_8 Zn2_8 1_555 1_555
O34_8 Zn6_8 1_555 1_555
O35_8 Zn2_8 1_555 1_555
O36_8 Zn4_8 1_555 1_555
O37_8 Zn5_8 1_555 1_555
O38_8 Zn1_8 1_555 1_555
O39_8 Zn3_8 1_555 1_555
O40_8 Zn4_8 1_555 1_555
O41_8 Zn6_8 1_555 1_555
O42_8 Zn3_8 1_555 1_555
O43_8 Zn5_8 1_555 1_555
C5_8 C6_8 1_555 1_555
O8_8 C16_16 1_555 1_555
C10_16 C16_16 1_555 1_555
C14_16 C15_16 1_555 1_555
C19_8 C21_8 1_555 1_555
C26_16 C27_16 1_555 1_555
C29_16 C30_16 1_555 1_555
C34_16 C38_16 1_555 1_555
C35_16 C36_16 1_555 1_555
C38_16 C39_16 1_555 1_555
C43_8 C44_8 1_555 1_555
C46_8 C52_8 1_555 1_555
C50_8 C51_8 1_555 1_555
C55_8 C61_8 1_555 1_555
C59_8 C60_8 1_555 1_555
C10_17 C11_17 1_555 1_555
C11_17 H4_17 1_555 1_555
C12_17 C11_17 1_555 1_555
H5_17 C12_17 1_555 1_555
C13_17 C12_17 1_555 1_555
C14_17 C13_17 1_555 1_555
H6_17 C14_17 1_555 1_555
C15_17 C10_17 1_555 1_555
H7_17 C15_17 1_555 1_555
C16_17 O40_7 1_555 1_555
C17_17 C13_17 1_555 1_555
C18_17 C17_17 1_555 1_555
H8_17 C18_17 1_555 1_555
O11_17 C28_17 1_555 1_555
O12_17 C28_17 1_555 1_555
C22_17 C23_17 1_555 1_555
C23_17 H10_17 1_555 1_555
C24_17 C23_17 1_555 1_555
H11_17 C24_17 1_555 1_555
C25_17 C24_17 1_555 1_555
C26_17 C25_17 1_555 1_555
H12_17 C26_17 1_555 1_555
C27_17 C22_17 1_555 1_555
H13_17 C27_17 1_555 1_555
C28_17 C22_17 1_555 1_555
C29_17 C25_17 1_555 1_555
C30_17 C17_17 1_555 1_555
H14_17 C30_17 1_555 1_555
O13_17 C37_17 1_555 1_555
O14_17 C37_17 1_555 1_555
C31_17 C32_17 1_555 1_555
C32_17 H15_17 1_555 1_555
C33_17 C32_17 1_555 1_555
H16_17 C33_17 1_555 1_555
C34_17 C33_17 1_555 1_555
C35_17 C34_17 1_555 1_555
H17_17 C35_17 1_555 1_555
C36_17 C31_17 1_555 1_555
H18_17 C36_17 1_555 1_555
C37_17 C31_17 1_555 1_555
C38_17 C18_17 1_555 1_555
C39_17 C29_17 1_555 1_555
H19_17 C39_17 1_555 1_555
Zn7_17 O12_17 1_555 1_555
Zn8_17 O14_17 1_555 1_555
Zn13_4 O11_17 1_555 1_555
Zn15_17 O13_17 1_555 1_555
O42_7 C16_17 1_555 1_555
C10_17 C16_17 1_555 1_555
C14_17 C15_17 1_555 1_555
C26_17 C27_17 1_555 1_555
C29_17 C30_17 1_555 1_555
C34_17 C38_17 1_555 1_555
C35_17 C36_17 1_555 1_555
C38_17 C39_17 1_555 1_555
C10_18 C11_18 1_555 1_555
C11_18 H4_18 1_555 1_555
C12_18 C11_18 1_555 1_555
H5_18 C12_18 1_555 1_555
C13_18 C12_18 1_555 1_555
C14_18 C13_18 1_555 1_555
H6_18 C14_18 1_555 1_555
C15_18 C10_18 1_555 1_555
H7_18 C15_18 1_555 1_555
C16_18 O40_6 1_555 1_555
C17_18 C13_18 1_555 1_555
C18_18 C17_18 1_555 1_555
H8_18 C18_18 1_555 1_555
O11_18 C28_18 1_555 1_555
O12_18 C28_18 1_555 1_555
C22_18 C23_18 1_555 1_555
C23_18 H10_18 1_555 1_555
C24_18 C23_18 1_555 1_555
H11_18 C24_18 1_555 1_555
C25_18 C24_18 1_555 1_555
C26_18 C25_18 1_555 1_555
H12_18 C26_18 1_555 1_555
C27_18 C22_18 1_555 1_555
H13_18 C27_18 1_555 1_555
C28_18 C22_18 1_555 1_555
C29_18 C25_18 1_555 1_555
C30_18 C17_18 1_555 1_555
H14_18 C30_18 1_555 1_555
O13_18 C37_18 1_555 1_555
O14_18 C37_18 1_555 1_555
C31_18 C32_18 1_555 1_555
C32_18 H15_18 1_555 1_555
C33_18 C32_18 1_555 1_555
H16_18 C33_18 1_555 1_555
C34_18 C33_18 1_555 1_555
C35_18 C34_18 1_555 1_555
H17_18 C35_18 1_555 1_555
C36_18 C31_18 1_555 1_555
H18_18 C36_18 1_555 1_555
C37_18 C31_18 1_555 1_555
C38_18 C18_18 1_555 1_555
C39_18 C29_18 1_555 1_555
H19_18 C39_18 1_555 1_555
Zn7_18 O12_18 1_555 1_555
Zn8_18 O14_18 1_555 1_555
Zn13_2 O11_18 1_555 1_555
Zn15_18 O13_18 1_555 1_555
O42_6 C16_18 1_555 1_555
C10_18 C16_18 1_555 1_555
C14_18 C15_18 1_555 1_555
C26_18 C27_18 1_555 1_555
C29_18 C30_18 1_555 1_555
C34_18 C38_18 1_555 1_555
C35_18 C36_18 1_555 1_555
C38_18 C39_18 1_555 1_555
O13_19 C37_19 1_555 1_555
O14_19 C37_19 1_555 1_555
C36_19 C31_19 1_555 1_555
H18_19 C36_19 1_555 1_555
C37_19 C31_19 1_555 1_555
Zn8_19 O14_19 1_555 1_555
Zn15_19 O13_19 1_555 1_555
C10_19 C11_19 1_555 1_555
C11_19 H4_19 1_555 1_555
C12_19 C11_19 1_555 1_555
H5_19 C12_19 1_555 1_555
C13_19 C12_19 1_555 1_555
C14_19 C13_19 1_555 1_555
H6_19 C14_19 1_555 1_555
C15_19 C10_19 1_555 1_555
H7_19 C15_19 1_555 1_555
C16_19 O40_8 1_555 1_555
C17_19 C13_19 1_555 1_555
C18_19 C17_19 1_555 1_555
H8_19 C18_19 1_555 1_555
O11_19 C28_19 1_555 1_555
O12_19 C28_19 1_555 1_555
C22_19 C23_19 1_555 1_555
C23_19 H10_19 1_555 1_555
C24_19 C23_19 1_555 1_555
H11_19 C24_19 1_555 1_555
C25_19 C24_19 1_555 1_555
C26_19 C25_19 1_555 1_555
H12_19 C26_19 1_555 1_555
C27_19 C22_19 1_555 1_555
H13_19 C27_19 1_555 1_555
C28_19 C22_19 1_555 1_555
C29_19 C25_19 1_555 1_555
C30_19 C17_19 1_555 1_555
H14_19 C30_19 1_555 1_555
C32_19 H15_19 1_555 1_555
C33_19 C32_19 1_555 1_555
H16_19 C33_19 1_555 1_555
C34_19 C33_19 1_555 1_555
C35_19 C34_19 1_555 1_555
C38_19 C18_19 1_555 1_555
C39_19 C29_19 1_555 1_555
H19_19 C39_19 1_555 1_555
Zn7_19 O12_19 1_555 1_555
Zn13_3 O11_19 1_555 1_555
O42_8 C16_19 1_555 1_555
C10_19 C16_19 1_555 1_555
C14_19 C15_19 1_555 1_555
C26_19 C27_19 1_555 1_555
C29_19 C30_19 1_555 1_555
C34_19 C38_19 1_555 1_555
C38_19 C39_19 1_555 1_555
O11_20 C28_20 1_555 1_555
O12_20 C28_20 1_555 1_555
C27_20 C22_20 1_555 1_555
H13_20 C27_20 1_555 1_555
C28_20 C22_20 1_555 1_555
Zn7_20 O12_20 1_555 1_555
Zn13 O11_20 1_555 1_555
C15_20 C10_20 1_555 1_555
H7_20 C15_20 1_555 1_555
C16_20 O40_5 1_555 1_555
O42_5 C16_20 1_555 1_555
C10_20 C16_20 1_555 1_555
C11_20 H4_20 1_555 1_555
C12_20 C11_20 1_555 1_555
H5_20 C12_20 1_555 1_555
C13_20 C12_20 1_555 1_555
C14_20 C13_20 1_555 1_555
C17_20 C13_20 1_555 1_555
C18_20 C17_20 1_555 1_555
H8_20 C18_20 1_555 1_555
C23_20 H10_20 1_555 1_555
C24_20 C23_20 1_555 1_555
H11_20 C24_20 1_555 1_555
C25_20 C24_20 1_555 1_555
C26_20 C25_20 1_555 1_555
C29_20 C25_20 1_555 1_555
C30_20 C17_20 1_555 1_555
H14_20 C30_20 1_555 1_555
O13_20 C37_20 1_555 1_555
O14_20 C37_20 1_555 1_555
C31_20 C32_20 1_555 1_555
C32_20 H15_20 1_555 1_555
C33_20 C32_20 1_555 1_555
H16_20 C33_20 1_555 1_555
C34_20 C33_20 1_555 1_555
C35_20 C34_20 1_555 1_555
H17_20 C35_20 1_555 1_555
C36_20 C31_20 1_555 1_555
H18_20 C36_20 1_555 1_555
C37_20 C31_20 1_555 1_555
C38_20 C18_20 1_555 1_555
C39_20 C29_20 1_555 1_555
H19_20 C39_20 1_555 1_555
Zn8_20 O14_20 1_555 1_555
Zn15_20 O13_20 1_555 1_555
C29_20 C30_20 1_555 1_555
C34_20 C38_20 1_555 1_555
C35_20 C36_20 1_555 1_555
C38_20 C39_20 1_555 1_555
C10_21 C11_21 1_555 1_555
C11_21 H4_21 1_555 1_555
C12_21 C11_21 1_555 1_555
H5_21 C12_21 1_555 1_555
C13_21 C12_21 1_555 1_555
C14_21 C13_21 1_555 1_555
H6_21 C14_21 1_555 1_555
C15_21 C10_21 1_555 1_555
H7_21 C15_21 1_555 1_555
C16_21 O41_8 1_555 1_555
C17_21 C13_21 1_555 1_555
C18_21 C17_21 1_555 1_555
H8_21 C18_21 1_555 1_555
O11_21 C28_21 1_555 1_555
O12_21 C28_21 1_555 1_555
C22_21 C23_21 1_555 1_555
C23_21 H10_21 1_555 1_555
C24_21 C23_21 1_555 1_555
H11_21 C24_21 1_555 1_555
C25_21 C24_21 1_555 1_555
C26_21 C25_21 1_555 1_555
H12_21 C26_21 1_555 1_555
C27_21 C22_21 1_555 1_555
H13_21 C27_21 1_555 1_555
C28_21 C22_21 1_555 1_555
C29_21 C25_21 1_555 1_555
C30_21 C17_21 1_555 1_555
H14_21 C30_21 1_555 1_555
O13_21 C37_21 1_555 1_555
O14_21 C37_21 1_555 1_555
C31_21 C32_21 1_555 1_555
C32_21 H15_21 1_555 1_555
C33_21 C32_21 1_555 1_555
H16_21 C33_21 1_555 1_555
C34_21 C33_21 1_555 1_555
C35_21 C34_21 1_555 1_555
H17_21 C35_21 1_555 1_555
C36_21 C31_21 1_555 1_555
H18_21 C36_21 1_555 1_555
C37_21 C31_21 1_555 1_555
C38_21 C18_21 1_555 1_555
C39_21 C29_21 1_555 1_555
H19_21 C39_21 1_555 1_555
Zn7_21 O12_21 1_555 1_555
Zn8_21 O14_21 1_555 1_555
Zn16_2 O11_21 1_555 1_555
Zn15_21 O13_21 1_555 1_555
O43_8 C16_21 1_555 1_555
C10_21 C16_21 1_555 1_555
C14_21 C15_21 1_555 1_555
C26_21 C27_21 1_555 1_555
C29_21 C30_21 1_555 1_555
C34_21 C38_21 1_555 1_555
C35_21 C36_21 1_555 1_555
C38_21 C39_21 1_555 1_555
C10_22 C11_22 1_555 1_555
C11_22 H4_22 1_555 1_555
C12_22 C11_22 1_555 1_555
H5_22 C12_22 1_555 1_555
C13_22 C12_22 1_555 1_555
C14_22 C13_22 1_555 1_555
H6_22 C14_22 1_555 1_555
C15_22 C10_22 1_555 1_555
H7_22 C15_22 1_555 1_555
C16_22 O41_6 1_555 1_555
C17_22 C13_22 1_555 1_555
C18_22 C17_22 1_555 1_555
H8_22 C18_22 1_555 1_555
O11_22 C28_22 1_555 1_555
O12_22 C28_22 1_555 1_555
C22_22 C23_22 1_555 1_555
C23_22 H10_22 1_555 1_555
C24_22 C23_22 1_555 1_555
H11_22 C24_22 1_555 1_555
C25_22 C24_22 1_555 1_555
C26_22 C25_22 1_555 1_555
H12_22 C26_22 1_555 1_555
C27_22 C22_22 1_555 1_555
H13_22 C27_22 1_555 1_555
C28_22 C22_22 1_555 1_555
C29_22 C25_22 1_555 1_555
C30_22 C17_22 1_555 1_555
H14_22 C30_22 1_555 1_555
O13_22 C37_22 1_555 1_555
O14_22 C37_22 1_555 1_555
C31_22 C32_22 1_555 1_555
C32_22 H15_22 1_555 1_555
C33_22 C32_22 1_555 1_555
H16_22 C33_22 1_555 1_555
C34_22 C33_22 1_555 1_555
C35_22 C34_22 1_555 1_555
H17_22 C35_22 1_555 1_555
C36_22 C31_22 1_555 1_555
H18_22 C36_22 1_555 1_555
C37_22 C31_22 1_555 1_555
C38_22 C18_22 1_555 1_555
C39_22 C29_22 1_555 1_555
H19_22 C39_22 1_555 1_555
Zn7_22 O12_22 1_555 1_555
Zn8_22 O14_22 1_555 1_555
Zn16_3 O11_22 1_555 1_555
Zn15_22 O13_22 1_555 1_555
O43_6 C16_22 1_555 1_555
C10_22 C16_22 1_555 1_555
C14_22 C15_22 1_555 1_555
C26_22 C27_22 1_555 1_555
C29_22 C30_22 1_555 1_555
C34_22 C38_22 1_555 1_555
C35_22 C36_22 1_555 1_555
C38_22 C39_22 1_555 1_555
O11_23 C28_23 1_555 1_555
O12_23 C28_23 1_555 1_555
C27_23 C22_23 1_555 1_555
H13_23 C27_23 1_555 1_555
C28_23 C22_23 1_555 1_555
Zn7_23 O12_23 1_555 1_555
Zn16_4 O11_23 1_555 1_555
C15_23 C10_23 1_555 1_555
H7_23 C15_23 1_555 1_555
C16_23 O41_5 1_555 1_555
O43_5 C16_23 1_555 1_555
C10_23 C16_23 1_555 1_555
C11_23 H4_23 1_555 1_555
C12_23 C11_23 1_555 1_555
H5_23 C12_23 1_555 1_555
C13_23 C12_23 1_555 1_555
C14_23 C13_23 1_555 1_555
C17_23 C13_23 1_555 1_555
C18_23 C17_23 1_555 1_555
H8_23 C18_23 1_555 1_555
C23_23 H10_23 1_555 1_555
C24_23 C23_23 1_555 1_555
H11_23 C24_23 1_555 1_555
C25_23 C24_23 1_555 1_555
C26_23 C25_23 1_555 1_555
C29_23 C25_23 1_555 1_555
C30_23 C17_23 1_555 1_555
H14_23 C30_23 1_555 1_555
O13_23 C37_23 1_555 1_555
O14_23 C37_23 1_555 1_555
C31_23 C32_23 1_555 1_555
C32_23 H15_23 1_555 1_555
C33_23 C32_23 1_555 1_555
H16_23 C33_23 1_555 1_555
C34_23 C33_23 1_555 1_555
C35_23 C34_23 1_555 1_555
H17_23 C35_23 1_555 1_555
C36_23 C31_23 1_555 1_555
H18_23 C36_23 1_555 1_555
C37_23 C31_23 1_555 1_555
C38_23 C18_23 1_555 1_555
C39_23 C29_23 1_555 1_555
H19_23 C39_23 1_555 1_555
Zn8_23 O14_23 1_555 1_555
Zn15_23 O13_23 1_555 1_555
C29_23 C30_23 1_555 1_555
C34_23 C38_23 1_555 1_555
C35_23 C36_23 1_555 1_555
C38_23 C39_23 1_555 1_555
O13_24 C37_24 1_555 1_555
O14_24 C37_24 1_555 1_555
C36_24 C31_24 1_555 1_555
H18_24 C36_24 1_555 1_555
C37_24 C31_24 1_555 1_555
Zn8_24 O14_24 1_555 1_555
Zn15_24 O13_24 1_555 1_555
C10_24 C11_24 1_555 1_555
C11_24 H4_24 1_555 1_555
C12_24 C11_24 1_555 1_555
H5_24 C12_24 1_555 1_555
C13_24 C12_24 1_555 1_555
C14_24 C13_24 1_555 1_555
H6_24 C14_24 1_555 1_555
C15_24 C10_24 1_555 1_555
H7_24 C15_24 1_555 1_555
C16_24 O41_7 1_555 1_555
C17_24 C13_24 1_555 1_555
C18_24 C17_24 1_555 1_555
H8_24 C18_24 1_555 1_555
O11_24 C28_24 1_555 1_555
O12_24 C28_24 1_555 1_555
C22_24 C23_24 1_555 1_555
C23_24 H10_24 1_555 1_555
C24_24 C23_24 1_555 1_555
H11_24 C24_24 1_555 1_555
C25_24 C24_24 1_555 1_555
C26_24 C25_24 1_555 1_555
H12_24 C26_24 1_555 1_555
C27_24 C22_24 1_555 1_555
H13_24 C27_24 1_555 1_555
C28_24 C22_24 1_555 1_555
C29_24 C25_24 1_555 1_555
C30_24 C17_24 1_555 1_555
H14_24 C30_24 1_555 1_555
C32_24 H15_24 1_555 1_555
C33_24 C32_24 1_555 1_555
H16_24 C33_24 1_555 1_555
C34_24 C33_24 1_555 1_555
C35_24 C34_24 1_555 1_555
C38_24 C18_24 1_555 1_555
C39_24 C29_24 1_555 1_555
H19_24 C39_24 1_555 1_555
Zn7_24 O12_24 1_555 1_555
Zn16 O11_24 1_555 1_555
O43_7 C16_24 1_555 1_555
C10_24 C16_24 1_555 1_555
C14_24 C15_24 1_555 1_555
C26_24 C27_24 1_555 1_555
C29_24 C30_24 1_555 1_555
C34_24 C38_24 1_555 1_555
C38_24 C39_24 1_555 1_555
Zn8_6 O1_9 1_555 1_555
Zn15_6 O2_9 1_555 1_555
O1_9 C7_9 1_555 1_555
O2_9 C7_9 1_555 1_555
O3_9 C8_9 1_555 1_555
O4_9 C8_9 1_555 1_555
O5_9 C9_9 1_555 1_555
O6_9 C9_9 1_555 1_555
C1_9 C2_9 1_555 1_555
C2_9 H1_9 1_555 1_555
C3_9 C2_9 1_555 1_555
C4_9 C3_9 1_555 1_555
H2_9 C4_9 1_555 1_555
C5_9 C4_9 1_555 1_555
C6_9 C1_9 1_555 1_555
H3_9 C6_9 1_555 1_555
C7_9 C1_9 1_555 1_555
C8_9 C3_9 1_555 1_555
C9_9 C5_9 1_555 1_555
O9_9 Zn8_6 1_555 1_555
O10_9 C21_9 1_555 1_555
C19_9 C20_9 1_555 1_555
C20_9 H9_9 1_555 1_555
C21_9 O9_9 1_555 1_555
O15_9 C42_9 1_555 1_555
O16_9 C42_9 1_555 1_555
C40_9 C20_9 1_555 1_555
C41_9 C40_9 1_555 1_555
H20_9 C41_9 1_555 1_555
C42_9 C40_9 1_555 1_555
O17_9 C45_9 1_555 1_555
O18_9 C45_9 1_555 1_555
C43_9 C41_9 1_555 1_555
C44_9 C19_9 1_555 1_555
H21_9 C44_9 1_555 1_555
C45_9 C43_9 1_555 1_555
Zn7_2 O15_9 1_555 1_555
Zn12_2 O20_9 1_555 1_555
O19_9 Zn7_2 1_555 1_555
O20_9 C52_9 1_555 1_555
O32_8 C53_9 1_555 1_555
O22_9 C53_9 1_555 1_555
O23_9 C54_9 1_555 1_555
O24_9 C54_9 1_555 1_555
C46_9 C47_9 1_555 1_555
C47_9 H22_9 1_555 1_555
C48_9 C47_9 1_555 1_555
C49_9 C48_9 1_555 1_555
H23_9 C49_9 1_555 1_555
C50_9 C49_9 1_555 1_555
C51_9 C46_9 1_555 1_555
H24_9 C51_9 1_555 1_555
C52_9 O19_9 1_555 1_555
C53_9 C48_9 1_555 1_555
C54_9 C50_9 1_555 1_555
Zn5_9 O17_9 1_555 1_555
Zn6_9 O26_9 1_555 1_555
O25_9 Zn5_9 1_555 1_555
O26_9 C61_9 1_555 1_555
O27_9 C62_9 1_555 1_555
O28_9 C62_9 1_555 1_555
O29_9 C63_9 1_555 1_555
O30_9 C63_9 1_555 1_555
C55_9 C56_9 1_555 1_555
C56_9 H25_9 1_555 1_555
C57_9 C56_9 1_555 1_555
C58_9 C57_9 1_555 1_555
H26_9 C58_9 1_555 1_555
C59_9 C58_9 1_555 1_555
C60_9 C55_9 1_555 1_555
H27_9 C60_9 1_555 1_555
C61_9 O25_9 1_555 1_555
C62_9 C57_9 1_555 1_555
C63_9 C59_9 1_555 1_555
Zn9_9 O24_9 1_555 1_555
Zn10_9 O30_9 1_555 1_555
Zn11_9 O6_9 1_555 1_555
Zn14_5 O27_9 1_555 1_555
Zn15_18 O3_9 1_555 1_555
Zn17_9 O23_9 1_555 1_555
Zn18_9 O29_9 1_555 1_555
Zn19_9 O5_9 1_555 1_555
O32_9 Zn6_9 1_555 1_555
O33_9 Zn15_6 1_555 1_555
O34_9 Zn6_9 1_555 1_555
O35_9 Zn15_6 1_555 1_555
O36_9 Zn12_2 1_555 1_555
O37_9 Zn5_9 1_555 1_555
O38_9 Zn8_6 1_555 1_555
O39_9 Zn7_2 1_555 1_555
O41_9 Zn6_9 1_555 1_555
O43_9 Zn5_9 1_555 1_555
C5_9 C6_9 1_555 1_555
C19_9 C21_9 1_555 1_555
C43_9 C44_9 1_555 1_555
C46_9 C52_9 1_555 1_555
C50_9 C51_9 1_555 1_555
C55_9 C61_9 1_555 1_555
C59_9 C60_9 1_555 1_555
C19_10 C20_10 1_555 1_555
C20_10 H9_10 1_555 1_555
C40_10 C20_10 1_555 1_555
C41_10 C40_10 1_555 1_555
H20_10 C41_10 1_555 1_555
O17_10 C45_10 1_555 1_555
O18_10 C45_10 1_555 1_555
C43_10 C41_10 1_555 1_555
C44_10 C19_10 1_555 1_555
H21_10 C44_10 1_555 1_555
C45_10 C43_10 1_555 1_555
Zn5_10 O17_10 1_555 1_555
Zn6_10 O26_10 1_555 1_555
O25_10 Zn5_10 1_555 1_555
O26_10 C61_10 1_555 1_555
C61_10 O25_10 1_555 1_555
O32_10 Zn6_10 1_555 1_555
O34_10 Zn6_10 1_555 1_555
O37_10 Zn5_10 1_555 1_555
O41_10 Zn6_10 1_555 1_555
O43_10 Zn5_10 1_555 1_555
C43_10 C44_10 1_555 1_555
O15_10 C42_10 1_555 1_555
Zn7 O15_10 1_555 1_555
Zn12 O20_10 1_555 1_555
O19_10 Zn7 1_555 1_555
O20_10 C52_10 1_555 1_555
O32_7 C53_10 1_555 1_555
O22_10 C53_10 1_555 1_555
O23_10 C54_10 1_555 1_555
O24_10 C54_10 1_555 1_555
C46_10 C47_10 1_555 1_555
C47_10 H22_10 1_555 1_555
C48_10 C47_10 1_555 1_555
C49_10 C48_10 1_555 1_555
H23_10 C49_10 1_555 1_555
C50_10 C49_10 1_555 1_555
C51_10 C46_10 1_555 1_555
H24_10 C51_10 1_555 1_555
C52_10 O19_10 1_555 1_555
C53_10 C48_10 1_555 1_555
C54_10 C50_10 1_555 1_555
Zn9_10 O24_10 1_555 1_555
Zn17_10 O23_10 1_555 1_555
O36_10 Zn12 1_555 1_555
O39_10 Zn7 1_555 1_555
C46_10 C52_10 1_555 1_555
C50_10 C51_10 1_555 1_555
Zn8_8 O1_10 1_555 1_555
Zn15_8 O2_10 1_555 1_555
O1_10 C7_10 1_555 1_555
O2_10 C7_10 1_555 1_555
O9_10 Zn8_8 1_555 1_555
C21_10 O9_10 1_555 1_555
O27_10 C62_10 1_555 1_555
O28_10 C62_10 1_555 1_555
O29_10 C63_10 1_555 1_555
O30_10 C63_10 1_555 1_555
C55_10 C56_10 1_555 1_555
C56_10 H25_10 1_555 1_555
C57_10 C56_10 1_555 1_555
C58_10 C57_10 1_555 1_555
H26_10 C58_10 1_555 1_555
C59_10 C58_10 1_555 1_555
C60_10 C55_10 1_555 1_555
H27_10 C60_10 1_555 1_555
C62_10 C57_10 1_555 1_555
C63_10 C59_10 1_555 1_555
Zn10_10 O30_10 1_555 1_555
Zn14_6 O27_10 1_555 1_555
Zn18_10 O29_10 1_555 1_555
O33_10 Zn15_8 1_555 1_555
O35_10 Zn15_8 1_555 1_555
O38_10 Zn8_8 1_555 1_555
C59_10 C60_10 1_555 1_555
O3_10 C8_10 1_555 1_555
O4_10 C8_10 1_555 1_555
O5_10 C9_10 1_555 1_555
O6_10 C9_10 1_555 1_555
C1_10 C2_10 1_555 1_555
C2_10 H1_10 1_555 1_555
C3_10 C2_10 1_555 1_555
C4_10 C3_10 1_555 1_555
H2_10 C4_10 1_555 1_555
C5_10 C4_10 1_555 1_555
C6_10 C1_10 1_555 1_555
H3_10 C6_10 1_555 1_555
C8_10 C3_10 1_555 1_555
C9_10 C5_10 1_555 1_555
Zn11_10 O6_10 1_555 1_555
Zn15_20 O3_10 1_555 1_555
Zn19_10 O5_10 1_555 1_555
C5_10 C6_10 1_555 1_555
Zn8_7 O1_11 1_555 1_555
Zn15_7 O2_11 1_555 1_555
O1_11 C7_11 1_555 1_555
O2_11 C7_11 1_555 1_555
O3_11 C8_11 1_555 1_555
O4_11 C8_11 1_555 1_555
O5_11 C9_11 1_555 1_555
O6_11 C9_11 1_555 1_555
C1_11 C2_11 1_555 1_555
C2_11 H1_11 1_555 1_555
C3_11 C2_11 1_555 1_555
C4_11 C3_11 1_555 1_555
H2_11 C4_11 1_555 1_555
C5_11 C4_11 1_555 1_555
C6_11 C1_11 1_555 1_555
H3_11 C6_11 1_555 1_555
C7_11 C1_11 1_555 1_555
C8_11 C3_11 1_555 1_555
C9_11 C5_11 1_555 1_555
O9_11 Zn8_7 1_555 1_555
O10_11 C21_11 1_555 1_555
C19_11 C20_11 1_555 1_555
C20_11 H9_11 1_555 1_555
C21_11 O9_11 1_555 1_555
O15_11 C42_11 1_555 1_555
O16_11 C42_11 1_555 1_555
C40_11 C20_11 1_555 1_555
C41_11 C40_11 1_555 1_555
H20_11 C41_11 1_555 1_555
C42_11 C40_11 1_555 1_555
C43_11 C41_11 1_555 1_555
C44_11 C19_11 1_555 1_555
H21_11 C44_11 1_555 1_555
Zn7_4 O15_11 1_555 1_555
Zn12_4 O20_11 1_555 1_555
O19_11 Zn7_4 1_555 1_555
O20_11 C52_11 1_555 1_555
C52_11 O19_11 1_555 1_555
Zn11_11 O6_11 1_555 1_555
Zn15_17 O3_11 1_555 1_555
Zn19_11 O5_11 1_555 1_555
O33_11 Zn15_7 1_555 1_555
O35_11 Zn15_7 1_555 1_555
O36_11 Zn12_4 1_555 1_555
O38_11 Zn8_7 1_555 1_555
O39_11 Zn7_4 1_555 1_555
C5_11 C6_11 1_555 1_555
C19_11 C21_11 1_555 1_555
C43_11 C44_11 1_555 1_555
O17_11 C45_11 1_555 1_555
O32_5 C53_11 1_555 1_555
O22_11 C53_11 1_555 1_555
O23_11 C54_11 1_555 1_555
O24_11 C54_11 1_555 1_555
C46_11 C47_11 1_555 1_555
C47_11 H22_11 1_555 1_555
C48_11 C47_11 1_555 1_555
C49_11 C48_11 1_555 1_555
H23_11 C49_11 1_555 1_555
C50_11 C49_11 1_555 1_555
C51_11 C46_11 1_555 1_555
H24_11 C51_11 1_555 1_555
C53_11 C48_11 1_555 1_555
C54_11 C50_11 1_555 1_555
Zn5_11 O17_11 1_555 1_555
Zn6_11 O26_11 1_555 1_555
O25_11 Zn5_11 1_555 1_555
O26_11 C61_11 1_555 1_555
O27_11 C62_11 1_555 1_555
O28_11 C62_11 1_555 1_555
O29_11 C63_11 1_555 1_555
O30_11 C63_11 1_555 1_555
C55_11 C56_11 1_555 1_555
C56_11 H25_11 1_555 1_555
C57_11 C56_11 1_555 1_555
C58_11 C57_11 1_555 1_555
H26_11 C58_11 1_555 1_555
C59_11 C58_11 1_555 1_555
C60_11 C55_11 1_555 1_555
H27_11 C60_11 1_555 1_555
C61_11 O25_11 1_555 1_555
C62_11 C57_11 1_555 1_555
C63_11 C59_11 1_555 1_555
Zn9_11 O24_11 1_555 1_555
Zn10_11 O30_11 1_555 1_555
Zn14_7 O27_11 1_555 1_555
Zn17_11 O23_11 1_555 1_555
Zn18_11 O29_11 1_555 1_555
O32_11 Zn6_11 1_555 1_555
O34_11 Zn6_11 1_555 1_555
O37_11 Zn5_11 1_555 1_555
O41_11 Zn6_11 1_555 1_555
O43_11 Zn5_11 1_555 1_555
C50_11 C51_11 1_555 1_555
C55_11 C61_11 1_555 1_555
C59_11 C60_11 1_555 1_555
Zn8_5 O1_12 1_555 1_555
Zn15_5 O2_12 1_555 1_555
O1_12 C7_12 1_555 1_555
O2_12 C7_12 1_555 1_555
O3_12 C8_12 1_555 1_555
O4_12 C8_12 1_555 1_555
O5_12 C9_12 1_555 1_555
O6_12 C9_12 1_555 1_555
C1_12 C2_12 1_555 1_555
C2_12 H1_12 1_555 1_555
C3_12 C2_12 1_555 1_555
C4_12 C3_12 1_555 1_555
H2_12 C4_12 1_555 1_555
C5_12 C4_12 1_555 1_555
C6_12 C1_12 1_555 1_555
H3_12 C6_12 1_555 1_555
C7_12 C1_12 1_555 1_555
C8_12 C3_12 1_555 1_555
C9_12 C5_12 1_555 1_555
O9_12 Zn8_5 1_555 1_555
O10_12 C21_12 1_555 1_555
C19_12 C20_12 1_555 1_555
C20_12 H9_12 1_555 1_555
C21_12 O9_12 1_555 1_555
O15_12 C42_12 1_555 1_555
O16_12 C42_12 1_555 1_555
C40_12 C20_12 1_555 1_555
C41_12 C40_12 1_555 1_555
H20_12 C41_12 1_555 1_555
C42_12 C40_12 1_555 1_555
O17_12 C45_12 1_555 1_555
O18_12 C45_12 1_555 1_555
C43_12 C41_12 1_555 1_555
C44_12 C19_12 1_555 1_555
H21_12 C44_12 1_555 1_555
C45_12 C43_12 1_555 1_555
Zn7_3 O15_12 1_555 1_555
Zn12_3 O20_12 1_555 1_555
O19_12 Zn7_3 1_555 1_555
O20_12 C52_12 1_555 1_555
O32_6 C53_12 1_555 1_555
O22_12 C53_12 1_555 1_555
O23_12 C54_12 1_555 1_555
O24_12 C54_12 1_555 1_555
C46_12 C47_12 1_555 1_555
C47_12 H22_12 1_555 1_555
C48_12 C47_12 1_555 1_555
C49_12 C48_12 1_555 1_555
H23_12 C49_12 1_555 1_555
C50_12 C49_12 1_555 1_555
C51_12 C46_12 1_555 1_555
H24_12 C51_12 1_555 1_555
C52_12 O19_12 1_555 1_555
C53_12 C48_12 1_555 1_555
C54_12 C50_12 1_555 1_555
Zn5_12 O17_12 1_555 1_555
Zn6_12 O26_12 1_555 1_555
O25_12 Zn5_12 1_555 1_555
O26_12 C61_12 1_555 1_555
O27_12 C62_12 1_555 1_555
O28_12 C62_12 1_555 1_555
O29_12 C63_12 1_555 1_555
O30_12 C63_12 1_555 1_555
C55_12 C56_12 1_555 1_555
C56_12 H25_12 1_555 1_555
C57_12 C56_12 1_555 1_555
C58_12 C57_12 1_555 1_555
H26_12 C58_12 1_555 1_555
C59_12 C58_12 1_555 1_555
C60_12 C55_12 1_555 1_555
H27_12 C60_12 1_555 1_555
C61_12 O25_12 1_555 1_555
C62_12 C57_12 1_555 1_555
C63_12 C59_12 1_555 1_555
Zn9_12 O24_12 1_555 1_555
Zn10_12 O30_12 1_555 1_555
Zn11_12 O6_12 1_555 1_555
Zn14_8 O27_12 1_555 1_555
Zn15_19 O3_12 1_555 1_555
Zn17_12 O23_12 1_555 1_555
Zn18_12 O29_12 1_555 1_555
Zn19_12 O5_12 1_555 1_555
O32_12 Zn6_12 1_555 1_555
O33_12 Zn15_5 1_555 1_555
O34_12 Zn6_12 1_555 1_555
O35_12 Zn15_5 1_555 1_555
O36_12 Zn12_3 1_555 1_555
O37_12 Zn5_12 1_555 1_555
O38_12 Zn8_5 1_555 1_555
O39_12 Zn7_3 1_555 1_555
O41_12 Zn6_12 1_555 1_555
O43_12 Zn5_12 1_555 1_555
C5_12 C6_12 1_555 1_555
C19_12 C21_12 1_555 1_555
C43_12 C44_12 1_555 1_555
C46_12 C52_12 1_555 1_555
C50_12 C51_12 1_555 1_555
C55_12 C61_12 1_555 1_555
C59_12 C60_12 1_555 1_555
C10_25 C11_25 1_555 1_555
C11_25 H4_25 1_555 1_555
C12_25 C11_25 1_555 1_555
H5_25 C12_25 1_555 1_555
C13_25 C12_25 1_555 1_555
C14_25 C13_25 1_555 1_555
H6_25 C14_25 1_555 1_555
C15_25 C10_25 1_555 1_555
H7_25 C15_25 1_555 1_555
C16_25 O41_12 1_555 1_555
C17_25 C13_25 1_555 1_555
C18_25 C17_25 1_555 1_555
H8_25 C18_25 1_555 1_555
O11_25 C28_25 1_555 1_555
O12_25 C28_25 1_555 1_555
C22_25 C23_25 1_555 1_555
C23_25 H10_25 1_555 1_555
C24_25 C23_25 1_555 1_555
H11_25 C24_25 1_555 1_555
C25_25 C24_25 1_555 1_555
C26_25 C25_25 1_555 1_555
H12_25 C26_25 1_555 1_555
C27_25 C22_25 1_555 1_555
H13_25 C27_25 1_555 1_555
C28_25 C22_25 1_555 1_555
C29_25 C25_25 1_555 1_555
C30_25 C17_25 1_555 1_555
H14_25 C30_25 1_555 1_555
C32_25 H15_25 1_555 1_555
C33_25 C32_25 1_555 1_555
H16_25 C33_25 1_555 1_555
C34_25 C33_25 1_555 1_555
C35_25 C34_25 1_555 1_555
C38_25 C18_25 1_555 1_555
C39_25 C29_25 1_555 1_555
H19_25 C39_25 1_555 1_555
Zn7_25 O12_25 1_555 1_555
Zn12_13 O11_25 1_555 1_555
O43_12 C16_25 1_555 1_555
C10_25 C16_25 1_555 1_555
C14_25 C15_25 1_555 1_555
C26_25 C27_25 1_555 1_555
C29_25 C30_25 1_555 1_555
C34_25 C38_25 1_555 1_555
C38_25 C39_25 1_555 1_555
O13_25 C37_25 1_555 1_555
O14_25 C37_25 1_555 1_555
C36_25 C31_25 1_555 1_555
H18_25 C36_25 1_555 1_555
C37_25 C31_25 1_555 1_555
Zn8_25 O14_25 1_555 1_555
Zn15_25 O13_25 1_555 1_555
C10_26 C11_26 1_555 1_555
C11_26 H4_26 1_555 1_555
C12_26 C11_26 1_555 1_555
H5_26 C12_26 1_555 1_555
C13_26 C12_26 1_555 1_555
C14_26 C13_26 1_555 1_555
H6_26 C14_26 1_555 1_555
C15_26 C10_26 1_555 1_555
H7_26 C15_26 1_555 1_555
C16_26 O41_10 1_555 1_555
C17_26 C13_26 1_555 1_555
C18_26 C17_26 1_555 1_555
H8_26 C18_26 1_555 1_555
C23_26 H10_26 1_555 1_555
C24_26 C23_26 1_555 1_555
H11_26 C24_26 1_555 1_555
C25_26 C24_26 1_555 1_555
C26_26 C25_26 1_555 1_555
C29_26 C25_26 1_555 1_555
C30_26 C17_26 1_555 1_555
H14_26 C30_26 1_555 1_555
O13_26 C37_26 1_555 1_555
O14_26 C37_26 1_555 1_555
C31_26 C32_26 1_555 1_555
C32_26 H15_26 1_555 1_555
C33_26 C32_26 1_555 1_555
H16_26 C33_26 1_555 1_555
C34_26 C33_26 1_555 1_555
C35_26 C34_26 1_555 1_555
H17_26 C35_26 1_555 1_555
C36_26 C31_26 1_555 1_555
H18_26 C36_26 1_555 1_555
C37_26 C31_26 1_555 1_555
C38_26 C18_26 1_555 1_555
C39_26 C29_26 1_555 1_555
H19_26 C39_26 1_555 1_555
Zn8_26 O14_26 1_555 1_555
Zn15_26 O13_26 1_555 1_555
O43_10 C16_26 1_555 1_555
C10_26 C16_26 1_555 1_555
C14_26 C15_26 1_555 1_555
C29_26 C30_26 1_555 1_555
C34_26 C38_26 1_555 1_555
C35_26 C36_26 1_555 1_555
C38_26 C39_26 1_555 1_555
O11_26 C28_26 1_555 1_555
O12_26 C28_26 1_555 1_555
C27_26 C22_26 1_555 1_555
H13_26 C27_26 1_555 1_555
C28_26 C22_26 1_555 1_555
Zn7_26 O12_26 1_555 1_555
Zn12_14 O11_26 1_555 1_555
C10_27 C11_27 1_555 1_555
C11_27 H4_27 1_555 1_555
C12_27 C11_27 1_555 1_555
H5_27 C12_27 1_555 1_555
C13_27 C12_27 1_555 1_555
C14_27 C13_27 1_555 1_555
H6_27 C14_27 1_555 1_555
C15_27 C10_27 1_555 1_555
H7_27 C15_27 1_555 1_555
C16_27 O41_9 1_555 1_555
C17_27 C13_27 1_555 1_555
C18_27 C17_27 1_555 1_555
H8_27 C18_27 1_555 1_555
O11_27 C28_27 1_555 1_555
O12_27 C28_27 1_555 1_555
C22_27 C23_27 1_555 1_555
C23_27 H10_27 1_555 1_555
C24_27 C23_27 1_555 1_555
H11_27 C24_27 1_555 1_555
C25_27 C24_27 1_555 1_555
C26_27 C25_27 1_555 1_555
H12_27 C26_27 1_555 1_555
C27_27 C22_27 1_555 1_555
H13_27 C27_27 1_555 1_555
C28_27 C22_27 1_555 1_555
C29_27 C25_27 1_555 1_555
C30_27 C17_27 1_555 1_555
H14_27 C30_27 1_555 1_555
O13_27 C37_27 1_555 1_555
O14_27 C37_27 1_555 1_555
C31_27 C32_27 1_555 1_555
C32_27 H15_27 1_555 1_555
C33_27 C32_27 1_555 1_555
H16_27 C33_27 1_555 1_555
C34_27 C33_27 1_555 1_555
C35_27 C34_27 1_555 1_555
H17_27 C35_27 1_555 1_555
C36_27 C31_27 1_555 1_555
H18_27 C36_27 1_555 1_555
C37_27 C31_27 1_555 1_555
C38_27 C18_27 1_555 1_555
C39_27 C29_27 1_555 1_555
H19_27 C39_27 1_555 1_555
Zn7_27 O12_27 1_555 1_555
Zn8_27 O14_27 1_555 1_555
Zn12_15 O11_27 1_555 1_555
Zn15_27 O13_27 1_555 1_555
O43_9 C16_27 1_555 1_555
C10_27 C16_27 1_555 1_555
C14_27 C15_27 1_555 1_555
C26_27 C27_27 1_555 1_555
C29_27 C30_27 1_555 1_555
C34_27 C38_27 1_555 1_555
C35_27 C36_27 1_555 1_555
C38_27 C39_27 1_555 1_555
C11_28 H4_28 1_555 1_555
C12_28 C11_28 1_555 1_555
H5_28 C12_28 1_555 1_555
C13_28 C12_28 1_555 1_555
C14_28 C13_28 1_555 1_555
C17_28 C13_28 1_555 1_555
C18_28 C17_28 1_555 1_555
H8_28 C18_28 1_555 1_555
O11_28 C28_28 1_555 1_555
O12_28 C28_28 1_555 1_555
C22_28 C23_28 1_555 1_555
C23_28 H10_28 1_555 1_555
C24_28 C23_28 1_555 1_555
H11_28 C24_28 1_555 1_555
C25_28 C24_28 1_555 1_555
C26_28 C25_28 1_555 1_555
H12_28 C26_28 1_555 1_555
C27_28 C22_28 1_555 1_555
H13_28 C27_28 1_555 1_555
C28_28 C22_28 1_555 1_555
C29_28 C25_28 1_555 1_555
C30_28 C17_28 1_555 1_555
H14_28 C30_28 1_555 1_555
O13_28 C37_28 1_555 1_555
O14_28 C37_28 1_555 1_555
C31_28 C32_28 1_555 1_555
C32_28 H15_28 1_555 1_555
C33_28 C32_28 1_555 1_555
H16_28 C33_28 1_555 1_555
C34_28 C33_28 1_555 1_555
C35_28 C34_28 1_555 1_555
H17_28 C35_28 1_555 1_555
C36_28 C31_28 1_555 1_555
H18_28 C36_28 1_555 1_555
C37_28 C31_28 1_555 1_555
C38_28 C18_28 1_555 1_555
C39_28 C29_28 1_555 1_555
H19_28 C39_28 1_555 1_555
Zn7_28 O12_28 1_555 1_555
Zn8_28 O14_28 1_555 1_555
Zn12_16 O11_28 1_555 1_555
Zn15_28 O13_28 1_555 1_555
C26_28 C27_28 1_555 1_555
C29_28 C30_28 1_555 1_555
C34_28 C38_28 1_555 1_555
C35_28 C36_28 1_555 1_555
C38_28 C39_28 1_555 1_555
C15_28 C10_28 1_555 1_555
H7_28 C15_28 1_555 1_555
C16_28 O41_11 1_555 1_555
O43_11 C16_28 1_555 1_555
C10_28 C16_28 1_555 1_555
Zn1_9 O1_13 1_555 1_555
Zn2_9 O2_13 1_555 1_555
O1_13 C7_13 1_555 1_555
O2_13 C7_13 1_555 1_555
O3_13 C8_13 1_555 1_555
O4_13 C8_13 1_555 1_555
O5_13 C9_13 1_555 1_555
O6_13 C9_13 1_555 1_555
C1_13 C2_13 1_555 1_555
C2_13 H1_13 1_555 1_555
C3_13 C2_13 1_555 1_555
C4_13 C3_13 1_555 1_555
H2_13 C4_13 1_555 1_555
C5_13 C4_13 1_555 1_555
C6_13 C1_13 1_555 1_555
H3_13 C6_13 1_555 1_555
C7_13 C1_13 1_555 1_555
C8_13 C3_13 1_555 1_555
C9_13 C5_13 1_555 1_555
O7_9 Zn2_9 1_555 1_555
O8_9 Zn1_9 1_555 1_555
C15_29 C10_29 1_555 1_555
H7_29 C15_29 1_555 1_555
C16_29 O7_9 1_555 1_555
O9_13 Zn1_9 1_555 1_555
C21_13 O9_13 1_555 1_555
O31_3 C62_13 1_555 1_555
O28_13 C62_13 1_555 1_555
O29_13 C63_13 1_555 1_555
O30_13 C63_13 1_555 1_555
C55_13 C56_13 1_555 1_555
C56_13 H25_13 1_555 1_555
C57_13 C56_13 1_555 1_555
C58_13 C57_13 1_555 1_555
H26_13 C58_13 1_555 1_555
C59_13 C58_13 1_555 1_555
C60_13 C55_13 1_555 1_555
H27_13 C60_13 1_555 1_555
C62_13 C57_13 1_555 1_555
C63_13 C59_13 1_555 1_555
Zn10_13 O30_13 1_555 1_555
Zn11_13 O6_13 1_555 1_555
Zn12_16 O3_13 1_555 1_555
Zn18_13 O29_13 1_555 1_555
Zn19_13 O5_13 1_555 1_555
O33_13 Zn2_9 1_555 1_555
O35_13 Zn2_9 1_555 1_555
O38_13 Zn1_9 1_555 1_555
C5_13 C6_13 1_555 1_555
O8_9 C16_29 1_555 1_555
C10_29 C16_29 1_555 1_555
C59_13 C60_13 1_555 1_555
C11_29 H4_29 1_555 1_555
C12_29 C11_29 1_555 1_555
H5_29 C12_29 1_555 1_555
C13_29 C12_29 1_555 1_555
C14_29 C13_29 1_555 1_555
C17_29 C13_29 1_555 1_555
C18_29 C17_29 1_555 1_555
H8_29 C18_29 1_555 1_555
C19_13 C20_13 1_555 1_555
C20_13 H9_13 1_555 1_555
O11_29 C28_29 1_555 1_555
O12_29 C28_29 1_555 1_555
C22_29 C23_29 1_555 1_555
C23_29 H10_29 1_555 1_555
C24_29 C23_29 1_555 1_555
H11_29 C24_29 1_555 1_555
C25_29 C24_29 1_555 1_555
C26_29 C25_29 1_555 1_555
H12_29 C26_29 1_555 1_555
C27_29 C22_29 1_555 1_555
H13_29 C27_29 1_555 1_555
C28_29 C22_29 1_555 1_555
C29_29 C25_29 1_555 1_555
C30_29 C17_29 1_555 1_555
H14_29 C30_29 1_555 1_555
O13_29 C37_29 1_555 1_555
O14_29 C37_29 1_555 1_555
C31_29 C32_29 1_555 1_555
C32_29 H15_29 1_555 1_555
C33_29 C32_29 1_555 1_555
H16_29 C33_29 1_555 1_555
C34_29 C33_29 1_555 1_555
C35_29 C34_29 1_555 1_555
H17_29 C35_29 1_555 1_555
C36_29 C31_29 1_555 1_555
H18_29 C36_29 1_555 1_555
C37_29 C31_29 1_555 1_555
C38_29 C18_29 1_555 1_555
C39_29 C29_29 1_555 1_555
H19_29 C39_29 1_555 1_555
O15_13 C42_13 1_555 1_555
O16_13 C42_13 1_555 1_555
C40_13 C20_13 1_555 1_555
C41_13 C40_13 1_555 1_555
H20_13 C41_13 1_555 1_555
C42_13 C40_13 1_555 1_555
O17_13 C45_13 1_555 1_555
O18_13 C45_13 1_555 1_555
C43_13 C41_13 1_555 1_555
C44_13 C19_13 1_555 1_555
H21_13 C44_13 1_555 1_555
C45_13 C43_13 1_555 1_555
Zn8_21 O15_13 1_555 1_555
Zn15_21 O20_13 1_555 1_555
O19_13 Zn8_21 1_555 1_555
O20_13 C52_13 1_555 1_555
O21_9 C53_13 1_555 1_555
O22_13 C53_13 1_555 1_555
O23_13 C54_13 1_555 1_555
O24_13 C54_13 1_555 1_555
C46_13 C47_13 1_555 1_555
C47_13 H22_13 1_555 1_555
C48_13 C47_13 1_555 1_555
C49_13 C48_13 1_555 1_555
H23_13 C49_13 1_555 1_555
C50_13 C49_13 1_555 1_555
C51_13 C46_13 1_555 1_555
H24_13 C51_13 1_555 1_555
C52_13 O19_13 1_555 1_555
C53_13 C48_13 1_555 1_555
C54_13 C50_13 1_555 1_555
Zn7_19 O17_13 1_555 1_555
Zn13_3 O26_13 1_555 1_555
O25_13 Zn7_19 1_555 1_555
O26_13 C61_13 1_555 1_555
C61_13 O25_13 1_555 1_555
Zn7_29 O12_29 1_555 1_555
Zn8_29 O14_29 1_555 1_555
Zn9_13 O24_13 1_555 1_555
Zn14_7 O11_29 1_555 1_555
Zn15_2 O21_9 1_555 1_555
Zn15_29 O13_29 1_555 1_555
Zn17_13 O23_13 1_555 1_555
O31_9 Zn15_21 1_555 1_555
O34_13 Zn13_3 1_555 1_555
O36_13 Zn15_21 1_555 1_555
O37_13 Zn7_19 1_555 1_555
O39_13 Zn8_21 1_555 1_555
C26_29 C27_29 1_555 1_555
C29_29 C30_29 1_555 1_555
C34_29 C38_29 1_555 1_555
C35_29 C36_29 1_555 1_555
C38_29 C39_29 1_555 1_555
C43_13 C44_13 1_555 1_555
C46_13 C52_13 1_555 1_555
C50_13 C51_13 1_555 1_555
O3_14 C8_14 1_555 1_555
O4_14 C8_14 1_555 1_555
O5_14 C9_14 1_555 1_555
O6_14 C9_14 1_555 1_555
C1_14 C2_14 1_555 1_555
C2_14 H1_14 1_555 1_555
C3_14 C2_14 1_555 1_555
C4_14 C3_14 1_555 1_555
H2_14 C4_14 1_555 1_555
C5_14 C4_14 1_555 1_555
C6_14 C1_14 1_555 1_555
H3_14 C6_14 1_555 1_555
C8_14 C3_14 1_555 1_555
C9_14 C5_14 1_555 1_555
O11_30 C28_30 1_555 1_555
O12_30 C28_30 1_555 1_555
C27_30 C22_30 1_555 1_555
H13_30 C27_30 1_555 1_555
C28_30 C22_30 1_555 1_555
O15_14 C42_14 1_555 1_555
Zn8_24 O15_14 1_555 1_555
Zn15_24 O20_14 1_555 1_555
O19_14 Zn8_24 1_555 1_555
O20_14 C52_14 1_555 1_555
O21_10 C53_14 1_555 1_555
O22_14 C53_14 1_555 1_555
O23_14 C54_14 1_555 1_555
O24_14 C54_14 1_555 1_555
C46_14 C47_14 1_555 1_555
C47_14 H22_14 1_555 1_555
C48_14 C47_14 1_555 1_555
C49_14 C48_14 1_555 1_555
H23_14 C49_14 1_555 1_555
C50_14 C49_14 1_555 1_555
C51_14 C46_14 1_555 1_555
H24_14 C51_14 1_555 1_555
C52_14 O19_14 1_555 1_555
C53_14 C48_14 1_555 1_555
C54_14 C50_14 1_555 1_555
Zn7_30 O12_30 1_555 1_555
Zn9_14 O24_14 1_555 1_555
Zn11_14 O6_14 1_555 1_555
Zn14_8 O11_30 1_555 1_555
Zn15 O21_10 1_555 1_555
Zn12_13 O3_14 1_555 1_555
Zn17_14 O23_14 1_555 1_555
Zn19_14 O5_14 1_555 1_555
O31_10 Zn15_24 1_555 1_555
O36_14 Zn15_24 1_555 1_555
O39_14 Zn8_24 1_555 1_555
C5_14 C6_14 1_555 1_555
C46_14 C52_14 1_555 1_555
C50_14 C51_14 1_555 1_555
Zn1_10 O1_14 1_555 1_555
Zn2_10 O2_14 1_555 1_555
O1_14 C7_14 1_555 1_555
O2_14 C7_14 1_555 1_555
O7_10 Zn2_10 1_555 1_555
O8_10 Zn1_10 1_555 1_555
C10_30 C11_30 1_555 1_555
C11_30 H4_30 1_555 1_555
C12_30 C11_30 1_555 1_555
H5_30 C12_30 1_555 1_555
C13_30 C12_30 1_555 1_555
C14_30 C13_30 1_555 1_555
H6_30 C14_30 1_555 1_555
C15_30 C10_30 1_555 1_555
H7_30 C15_30 1_555 1_555
C16_30 O7_10 1_555 1_555
C17_30 C13_30 1_555 1_555
O9_14 Zn1_10 1_555 1_555
O10_14 C21_14 1_555 1_555
C18_30 C17_30 1_555 1_555
H8_30 C18_30 1_555 1_555
C19_14 C20_14 1_555 1_555
C20_14 H9_14 1_555 1_555
C21_14 O9_14 1_555 1_555
C23_30 H10_30 1_555 1_555
C24_30 C23_30 1_555 1_555
H11_30 C24_30 1_555 1_555
C25_30 C24_30 1_555 1_555
C26_30 C25_30 1_555 1_555
C29_30 C25_30 1_555 1_555
C30_30 C17_30 1_555 1_555
H14_30 C30_30 1_555 1_555
O13_30 C37_30 1_555 1_555
O14_30 C37_30 1_555 1_555
C31_30 C32_30 1_555 1_555
C32_30 H15_30 1_555 1_555
C33_30 C32_30 1_555 1_555
H16_30 C33_30 1_555 1_555
C34_30 C33_30 1_555 1_555
C35_30 C34_30 1_555 1_555
H17_30 C35_30 1_555 1_555
C36_30 C31_30 1_555 1_555
H18_30 C36_30 1_555 1_555
C37_30 C31_30 1_555 1_555
C38_30 C18_30 1_555 1_555
C39_30 C29_30 1_555 1_555
H19_30 C39_30 1_555 1_555
C40_14 C20_14 1_555 1_555
C41_14 C40_14 1_555 1_555
H20_14 C41_14 1_555 1_555
O17_14 C45_14 1_555 1_555
O18_14 C45_14 1_555 1_555
C43_14 C41_14 1_555 1_555
C44_14 C19_14 1_555 1_555
H21_14 C44_14 1_555 1_555
C45_14 C43_14 1_555 1_555
Zn7_17 O17_14 1_555 1_555
Zn13_4 O26_14 1_555 1_555
O25_14 Zn7_17 1_555 1_555
O26_14 C61_14 1_555 1_555
O31_4 C62_14 1_555 1_555
O28_14 C62_14 1_555 1_555
O29_14 C63_14 1_555 1_555
O30_14 C63_14 1_555 1_555
C55_14 C56_14 1_555 1_555
C56_14 H25_14 1_555 1_555
C57_14 C56_14 1_555 1_555
C58_14 C57_14 1_555 1_555
H26_14 C58_14 1_555 1_555
C59_14 C58_14 1_555 1_555
C60_14 C55_14 1_555 1_555
H27_14 C60_14 1_555 1_555
C61_14 O25_14 1_555 1_555
C62_14 C57_14 1_555 1_555
C63_14 C59_14 1_555 1_555
Zn8_30 O14_30 1_555 1_555
Zn10_14 O30_14 1_555 1_555
Zn15_30 O13_30 1_555 1_555
Zn18_14 O29_14 1_555 1_555
O33_14 Zn2_10 1_555 1_555
O34_14 Zn13_4 1_555 1_555
O35_14 Zn2_10 1_555 1_555
O37_14 Zn7_17 1_555 1_555
O38_14 Zn1_10 1_555 1_555
O8_10 C16_30 1_555 1_555
C10_30 C16_30 1_555 1_555
C14_30 C15_30 1_555 1_555
C19_14 C21_14 1_555 1_555
C29_30 C30_30 1_555 1_555
C34_30 C38_30 1_555 1_555
C35_30 C36_30 1_555 1_555
C38_30 C39_30 1_555 1_555
C43_14 C44_14 1_555 1_555
C55_14 C61_14 1_555 1_555
C59_14 C60_14 1_555 1_555
O13_31 C37_31 1_555 1_555
O14_31 C37_31 1_555 1_555
C36_31 C31_31 1_555 1_555
H18_31 C36_31 1_555 1_555
C37_31 C31_31 1_555 1_555
Zn8_31 O14_31 1_555 1_555
Zn15_31 O13_31 1_555 1_555
Zn1_11 O1_15 1_555 1_555
Zn2_11 O2_15 1_555 1_555
O1_15 C7_15 1_555 1_555
O2_15 C7_15 1_555 1_555
O3_15 C8_15 1_555 1_555
O4_15 C8_15 1_555 1_555
O5_15 C9_15 1_555 1_555
O6_15 C9_15 1_555 1_555
C1_15 C2_15 1_555 1_555
C2_15 H1_15 1_555 1_555
C3_15 C2_15 1_555 1_555
C4_15 C3_15 1_555 1_555
H2_15 C4_15 1_555 1_555
C5_15 C4_15 1_555 1_555
C6_15 C1_15 1_555 1_555
H3_15 C6_15 1_555 1_555
C7_15 C1_15 1_555 1_555
C8_15 C3_15 1_555 1_555
C9_15 C5_15 1_555 1_555
O7_11 Zn2_11 1_555 1_555
O8_11 Zn1_11 1_555 1_555
C10_31 C11_31 1_555 1_555
C11_31 H4_31 1_555 1_555
C12_31 C11_31 1_555 1_555
H5_31 C12_31 1_555 1_555
C13_31 C12_31 1_555 1_555
C14_31 C13_31 1_555 1_555
H6_31 C14_31 1_555 1_555
C15_31 C10_31 1_555 1_555
H7_31 C15_31 1_555 1_555
C16_31 O7_11 1_555 1_555
C17_31 C13_31 1_555 1_555
O9_15 Zn1_11 1_555 1_555
O10_15 C21_15 1_555 1_555
C18_31 C17_31 1_555 1_555
H8_31 C18_31 1_555 1_555
C19_15 C20_15 1_555 1_555
C20_15 H9_15 1_555 1_555
C21_15 O9_15 1_555 1_555
O11_31 C28_31 1_555 1_555
O12_31 C28_31 1_555 1_555
C22_31 C23_31 1_555 1_555
C23_31 H10_31 1_555 1_555
C24_31 C23_31 1_555 1_555
H11_31 C24_31 1_555 1_555
C25_31 C24_31 1_555 1_555
C26_31 C25_31 1_555 1_555
H12_31 C26_31 1_555 1_555
C27_31 C22_31 1_555 1_555
H13_31 C27_31 1_555 1_555
C28_31 C22_31 1_555 1_555
C29_31 C25_31 1_555 1_555
C30_31 C17_31 1_555 1_555
H14_31 C30_31 1_555 1_555
C32_31 H15_31 1_555 1_555
C33_31 C32_31 1_555 1_555
H16_31 C33_31 1_555 1_555
C34_31 C33_31 1_555 1_555
C35_31 C34_31 1_555 1_555
C38_31 C18_31 1_555 1_555
C39_31 C29_31 1_555 1_555
H19_31 C39_31 1_555 1_555
O15_15 C42_15 1_555 1_555
O16_15 C42_15 1_555 1_555
C40_15 C20_15 1_555 1_555
C41_15 C40_15 1_555 1_555
H20_15 C41_15 1_555 1_555
C42_15 C40_15 1_555 1_555
O17_15 C45_15 1_555 1_555
O18_15 C45_15 1_555 1_555
C43_15 C41_15 1_555 1_555
C44_15 C19_15 1_555 1_555
H21_15 C44_15 1_555 1_555
C45_15 C43_15 1_555 1_555
Zn8_22 O15_15 1_555 1_555
Zn15_22 O20_15 1_555 1_555
O19_15 Zn8_22 1_555 1_555
O20_15 C52_15 1_555 1_555
O21_11 C53_15 1_555 1_555
O22_15 C53_15 1_555 1_555
O23_15 C54_15 1_555 1_555
O24_15 C54_15 1_555 1_555
C46_15 C47_15 1_555 1_555
C47_15 H22_15 1_555 1_555
C48_15 C47_15 1_555 1_555
C49_15 C48_15 1_555 1_555
H23_15 C49_15 1_555 1_555
C50_15 C49_15 1_555 1_555
C51_15 C46_15 1_555 1_555
H24_15 C51_15 1_555 1_555
C52_15 O19_15 1_555 1_555
C53_15 C48_15 1_555 1_555
C54_15 C50_15 1_555 1_555
Zn7_18 O17_15 1_555 1_555
Zn13_2 O26_15 1_555 1_555
O25_15 Zn7_18 1_555 1_555
O26_15 C61_15 1_555 1_555
O31_2 C62_15 1_555 1_555
O28_15 C62_15 1_555 1_555
O29_15 C63_15 1_555 1_555
O30_15 C63_15 1_555 1_555
C55_15 C56_15 1_555 1_555
C56_15 H25_15 1_555 1_555
C57_15 C56_15 1_555 1_555
C58_15 C57_15 1_555 1_555
H26_15 C58_15 1_555 1_555
C59_15 C58_15 1_555 1_555
C60_15 C55_15 1_555 1_555
H27_15 C60_15 1_555 1_555
C61_15 O25_15 1_555 1_555
C62_15 C57_15 1_555 1_555
C63_15 C59_15 1_555 1_555
Zn7_31 O12_31 1_555 1_555
Zn9_15 O24_15 1_555 1_555
Zn10_15 O30_15 1_555 1_555
Zn11_15 O6_15 1_555 1_555
Zn14_6 O11_31 1_555 1_555
Zn15_3 O21_11 1_555 1_555
Zn12_14 O3_15 1_555 1_555
Zn17_15 O23_15 1_555 1_555
Zn18_15 O29_15 1_555 1_555
Zn19_15 O5_15 1_555 1_555
O31_11 Zn15_22 1_555 1_555
O33_15 Zn2_11 1_555 1_555
O34_15 Zn13_2 1_555 1_555
O35_15 Zn2_11 1_555 1_555
O36_15 Zn15_22 1_555 1_555
O37_15 Zn7_18 1_555 1_555
O38_15 Zn1_11 1_555 1_555
O39_15 Zn8_22 1_555 1_555
C5_15 C6_15 1_555 1_555
O8_11 C16_31 1_555 1_555
C10_31 C16_31 1_555 1_555
C14_31 C15_31 1_555 1_555
C19_15 C21_15 1_555 1_555
C26_31 C27_31 1_555 1_555
C29_31 C30_31 1_555 1_555
C34_31 C38_31 1_555 1_555
C38_31 C39_31 1_555 1_555
C43_15 C44_15 1_555 1_555
C46_15 C52_15 1_555 1_555
C50_15 C51_15 1_555 1_555
C55_15 C61_15 1_555 1_555
C59_15 C60_15 1_555 1_555
O17_16 C45_16 1_555 1_555
O21_12 C53_16 1_555 1_555
O22_16 C53_16 1_555 1_555
O23_16 C54_16 1_555 1_555
O24_16 C54_16 1_555 1_555
C46_16 C47_16 1_555 1_555
C47_16 H22_16 1_555 1_555
C48_16 C47_16 1_555 1_555
C49_16 C48_16 1_555 1_555
H23_16 C49_16 1_555 1_555
C50_16 C49_16 1_555 1_555
C51_16 C46_16 1_555 1_555
H24_16 C51_16 1_555 1_555
C53_16 C48_16 1_555 1_555
C54_16 C50_16 1_555 1_555
Zn7_20 O17_16 1_555 1_555
Zn13 O26_16 1_555 1_555
O25_16 Zn7_20 1_555 1_555
O26_16 C61_16 1_555 1_555
O31 C62_16 1_555 1_555
O28_16 C62_16 1_555 1_555
O29_16 C63_16 1_555 1_555
O30_16 C63_16 1_555 1_555
C55_16 C56_16 1_555 1_555
C56_16 H25_16 1_555 1_555
C57_16 C56_16 1_555 1_555
C58_16 C57_16 1_555 1_555
H26_16 C58_16 1_555 1_555
C59_16 C58_16 1_555 1_555
C60_16 C55_16 1_555 1_555
H27_16 C60_16 1_555 1_555
C61_16 O25_16 1_555 1_555
C62_16 C57_16 1_555 1_555
C63_16 C59_16 1_555 1_555
Zn9_16 O24_16 1_555 1_555
Zn10_16 O30_16 1_555 1_555
Zn15_4 O21_12 1_555 1_555
Zn17_16 O23_16 1_555 1_555
Zn18_16 O29_16 1_555 1_555
O34_16 Zn13 1_555 1_555
O37_16 Zn7_20 1_555 1_555
C50_16 C51_16 1_555 1_555
C55_16 C61_16 1_555 1_555
C59_16 C60_16 1_555 1_555
Zn1_12 O1_16 1_555 1_555
Zn2_12 O2_16 1_555 1_555
O1_16 C7_16 1_555 1_555
O2_16 C7_16 1_555 1_555
O3_16 C8_16 1_555 1_555
O4_16 C8_16 1_555 1_555
O5_16 C9_16 1_555 1_555
O6_16 C9_16 1_555 1_555
C1_16 C2_16 1_555 1_555
C2_16 H1_16 1_555 1_555
C3_16 C2_16 1_555 1_555
C4_16 C3_16 1_555 1_555
H2_16 C4_16 1_555 1_555
C5_16 C4_16 1_555 1_555
C6_16 C1_16 1_555 1_555
H3_16 C6_16 1_555 1_555
C7_16 C1_16 1_555 1_555
C8_16 C3_16 1_555 1_555
C9_16 C5_16 1_555 1_555
O7_12 Zn2_12 1_555 1_555
O8_12 Zn1_12 1_555 1_555
C10_32 C11_32 1_555 1_555
C11_32 H4_32 1_555 1_555
C12_32 C11_32 1_555 1_555
H5_32 C12_32 1_555 1_555
C13_32 C12_32 1_555 1_555
C14_32 C13_32 1_555 1_555
H6_32 C14_32 1_555 1_555
C15_32 C10_32 1_555 1_555
H7_32 C15_32 1_555 1_555
C16_32 O7_12 1_555 1_555
C17_32 C13_32 1_555 1_555
O9_16 Zn1_12 1_555 1_555
O10_16 C21_16 1_555 1_555
C18_32 C17_32 1_555 1_555
H8_32 C18_32 1_555 1_555
C19_16 C20_16 1_555 1_555
C20_16 H9_16 1_555 1_555
C21_16 O9_16 1_555 1_555
O11_32 C28_32 1_555 1_555
O12_32 C28_32 1_555 1_555
C22_32 C23_32 1_555 1_555
C23_32 H10_32 1_555 1_555
C24_32 C23_32 1_555 1_555
H11_32 C24_32 1_555 1_555
C25_32 C24_32 1_555 1_555
C26_32 C25_32 1_555 1_555
H12_32 C26_32 1_555 1_555
C27_32 C22_32 1_555 1_555
H13_32 C27_32 1_555 1_555
C28_32 C22_32 1_555 1_555
C29_32 C25_32 1_555 1_555
C30_32 C17_32 1_555 1_555
H14_32 C30_32 1_555 1_555
O13_32 C37_32 1_555 1_555
O14_32 C37_32 1_555 1_555
C31_32 C32_32 1_555 1_555
C32_32 H15_32 1_555 1_555
C33_32 C32_32 1_555 1_555
H16_32 C33_32 1_555 1_555
C34_32 C33_32 1_555 1_555
C35_32 C34_32 1_555 1_555
H17_32 C35_32 1_555 1_555
C36_32 C31_32 1_555 1_555
H18_32 C36_32 1_555 1_555
C37_32 C31_32 1_555 1_555
C38_32 C18_32 1_555 1_555
C39_32 C29_32 1_555 1_555
H19_32 C39_32 1_555 1_555
O15_16 C42_16 1_555 1_555
O16_16 C42_16 1_555 1_555
C40_16 C20_16 1_555 1_555
C41_16 C40_16 1_555 1_555
H20_16 C41_16 1_555 1_555
C42_16 C40_16 1_555 1_555
C43_16 C41_16 1_555 1_555
C44_16 C19_16 1_555 1_555
H21_16 C44_16 1_555 1_555
Zn8_23 O15_16 1_555 1_555
Zn15_23 O20_16 1_555 1_555
O19_16 Zn8_23 1_555 1_555
O20_16 C52_16 1_555 1_555
C52_16 O19_16 1_555 1_555
Zn7_32 O12_32 1_555 1_555
Zn8_32 O14_32 1_555 1_555
Zn11_16 O6_16 1_555 1_555
Zn14_5 O11_32 1_555 1_555
Zn15_32 O13_32 1_555 1_555
Zn12_15 O3_16 1_555 1_555
Zn19_16 O5_16 1_555 1_555
O31_12 Zn15_23 1_555 1_555
O33_16 Zn2_12 1_555 1_555
O35_16 Zn2_12 1_555 1_555
O36_16 Zn15_23 1_555 1_555
O38_16 Zn1_12 1_555 1_555
O39_16 Zn8_23 1_555 1_555
C5_16 C6_16 1_555 1_555
O8_12 C16_32 1_555 1_555
C10_32 C16_32 1_555 1_555
C14_32 C15_32 1_555 1_555
C19_16 C21_16 1_555 1_555
C26_32 C27_32 1_555 1_555
C29_32 C30_32 1_555 1_555
C34_32 C38_32 1_555 1_555
C35_32 C36_32 1_555 1_555
C38_32 C39_32 1_555 1_555
C43_16 C44_16 1_555 1_555
Zn7_28 O1_17 1_555 1_555
Zn12_16 O2_17 1_555 1_555
O1_17 C7_17 1_555 1_555
O2_17 C7_17 1_555 1_555
O33_13 C8_17 1_555 1_555
O4_17 C8_17 1_555 1_555
O5_17 C9_17 1_555 1_555
O6_17 C9_17 1_555 1_555
C1_17 C2_17 1_555 1_555
C2_17 H1_17 1_555 1_555
C3_17 C2_17 1_555 1_555
C4_17 C3_17 1_555 1_555
H2_17 C4_17 1_555 1_555
C5_17 C4_17 1_555 1_555
C6_17 C1_17 1_555 1_555
H3_17 C6_17 1_555 1_555
C7_17 C1_17 1_555 1_555
C8_17 C3_17 1_555 1_555
C9_17 C5_17 1_555 1_555
O9_17 Zn7_28 1_555 1_555
O10_17 C21_17 1_555 1_555
C19_17 C20_17 1_555 1_555
C20_17 H9_17 1_555 1_555
C21_17 O9_17 1_555 1_555
O15_17 C42_17 1_555 1_555
O16_17 C42_17 1_555 1_555
C40_17 C20_17 1_555 1_555
C41_17 C40_17 1_555 1_555
H20_17 C41_17 1_555 1_555
C42_17 C40_17 1_555 1_555
O17_17 C45_17 1_555 1_555
O18_17 C45_17 1_555 1_555
C43_17 C41_17 1_555 1_555
C44_17 C19_17 1_555 1_555
H21_17 C44_17 1_555 1_555
C45_17 C43_17 1_555 1_555
Zn8_9 O15_17 1_555 1_555
Zn15_9 O20_17 1_555 1_555
O19_17 Zn8_9 1_555 1_555
O20_17 C52_17 1_555 1_555
O21_13 C53_17 1_555 1_555
O22_17 C53_17 1_555 1_555
O23_17 C54_17 1_555 1_555
O24_17 C54_17 1_555 1_555
C46_17 C47_17 1_555 1_555
C47_17 H22_17 1_555 1_555
C48_17 C47_17 1_555 1_555
C49_17 C48_17 1_555 1_555
H23_17 C49_17 1_555 1_555
C50_17 C49_17 1_555 1_555
C51_17 C46_17 1_555 1_555
H24_17 C51_17 1_555 1_555
C52_17 O19_17 1_555 1_555
C53_17 C48_17 1_555 1_555
C54_17 C50_17 1_555 1_555
Zn7_7 O17_17 1_555 1_555
Zn12_7 O26_17 1_555 1_555
O25_17 Zn7_7 1_555 1_555
O26_17 C61_17 1_555 1_555
O31_7 C62_17 1_555 1_555
O28_17 C62_17 1_555 1_555
O29_17 C63_17 1_555 1_555
O30_17 C63_17 1_555 1_555
C55_17 C56_17 1_555 1_555
C56_17 H25_17 1_555 1_555
C57_17 C56_17 1_555 1_555
C58_17 C57_17 1_555 1_555
H26_17 C58_17 1_555 1_555
C59_17 C58_17 1_555 1_555
C60_17 C55_17 1_555 1_555
H27_17 C60_17 1_555 1_555
C61_17 O25_17 1_555 1_555
C62_17 C57_17 1_555 1_555
C63_17 C59_17 1_555 1_555
Zn9_17 O24_17 1_555 1_555
Zn10_17 O30_17 1_555 1_555
Zn11_17 O6_17 1_555 1_555
Zn15_14 O21_13 1_555 1_555
Zn17_17 O23_17 1_555 1_555
Zn18_17 O29_17 1_555 1_555
Zn19_17 O5_17 1_555 1_555
O31_13 Zn15_9 1_555 1_555
O34_17 Zn12_7 1_555 1_555
O35_17 Zn12_16 1_555 1_555
O36_17 Zn15_9 1_555 1_555
O37_17 Zn7_7 1_555 1_555
O38_17 Zn7_28 1_555 1_555
O39_17 Zn8_9 1_555 1_555
C5_17 C6_17 1_555 1_555
C19_17 C21_17 1_555 1_555
C43_17 C44_17 1_555 1_555
C46_17 C52_17 1_555 1_555
C50_17 C51_17 1_555 1_555
C55_17 C61_17 1_555 1_555
C59_17 C60_17 1_555 1_555
Zn7_25 O1_18 1_555 1_555
Zn12_13 O2_18 1_555 1_555
O1_18 C7_18 1_555 1_555
O2_18 C7_18 1_555 1_555
O9_18 Zn7_25 1_555 1_555
O10_18 C21_18 1_555 1_555
C19_18 C20_18 1_555 1_555
C20_18 H9_18 1_555 1_555
C21_18 O9_18 1_555 1_555
C40_18 C20_18 1_555 1_555
C41_18 C40_18 1_555 1_555
H20_18 C41_18 1_555 1_555
C43_18 C41_18 1_555 1_555
C44_18 C19_18 1_555 1_555
H21_18 C44_18 1_555 1_555
O35_18 Zn12_13 1_555 1_555
O38_18 Zn7_25 1_555 1_555
C19_18 C21_18 1_555 1_555
C43_18 C44_18 1_555 1_555
O33_14 C8_18 1_555 1_555
O4_18 C8_18 1_555 1_555
O5_18 C9_18 1_555 1_555
O6_18 C9_18 1_555 1_555
C1_18 C2_18 1_555 1_555
C2_18 H1_18 1_555 1_555
C3_18 C2_18 1_555 1_555
C4_18 C3_18 1_555 1_555
H2_18 C4_18 1_555 1_555
C5_18 C4_18 1_555 1_555
C6_18 C1_18 1_555 1_555
H3_18 C6_18 1_555 1_555
C8_18 C3_18 1_555 1_555
C9_18 C5_18 1_555 1_555
O15_18 C42_18 1_555 1_555
Zn8_12 O15_18 1_555 1_555
Zn15_12 O20_18 1_555 1_555
O19_18 Zn8_12 1_555 1_555
O20_18 C52_18 1_555 1_555
C52_18 O19_18 1_555 1_555
Zn11_18 O6_18 1_555 1_555
Zn19_18 O5_18 1_555 1_555
O31_14 Zn15_12 1_555 1_555
O36_18 Zn15_12 1_555 1_555
O39_18 Zn8_12 1_555 1_555
C5_18 C6_18 1_555 1_555
O17_18 C45_18 1_555 1_555
Zn7_5 O17_18 1_555 1_555
Zn12_5 O26_18 1_555 1_555
O25_18 Zn7_5 1_555 1_555
O26_18 C61_18 1_555 1_555
O31_8 C62_18 1_555 1_555
O28_18 C62_18 1_555 1_555
O29_18 C63_18 1_555 1_555
O30_18 C63_18 1_555 1_555
C55_18 C56_18 1_555 1_555
C56_18 H25_18 1_555 1_555
C57_18 C56_18 1_555 1_555
C58_18 C57_18 1_555 1_555
H26_18 C58_18 1_555 1_555
C59_18 C58_18 1_555 1_555
C60_18 C55_18 1_555 1_555
H27_18 C60_18 1_555 1_555
C61_18 O25_18 1_555 1_555
C62_18 C57_18 1_555 1_555
C63_18 C59_18 1_555 1_555
Zn10_18 O30_18 1_555 1_555
Zn18_18 O29_18 1_555 1_555
O34_18 Zn12_5 1_555 1_555
O37_18 Zn7_5 1_555 1_555
C55_18 C61_18 1_555 1_555
C59_18 C60_18 1_555 1_555
O21_14 C53_18 1_555 1_555
O22_18 C53_18 1_555 1_555
O23_18 C54_18 1_555 1_555
O24_18 C54_18 1_555 1_555
C46_18 C47_18 1_555 1_555
C47_18 H22_18 1_555 1_555
C48_18 C47_18 1_555 1_555
C49_18 C48_18 1_555 1_555
H23_18 C49_18 1_555 1_555
C50_18 C49_18 1_555 1_555
C51_18 C46_18 1_555 1_555
H24_18 C51_18 1_555 1_555
C53_18 C48_18 1_555 1_555
C54_18 C50_18 1_555 1_555
Zn9_18 O24_18 1_555 1_555
Zn15_13 O21_14 1_555 1_555
Zn17_18 O23_18 1_555 1_555
C50_18 C51_18 1_555 1_555
Zn7_27 O1_19 1_555 1_555
Zn12_15 O2_19 1_555 1_555
O1_19 C7_19 1_555 1_555
O2_19 C7_19 1_555 1_555
O33_16 C8_19 1_555 1_555
O4_19 C8_19 1_555 1_555
O5_19 C9_19 1_555 1_555
O6_19 C9_19 1_555 1_555
C1_19 C2_19 1_555 1_555
C2_19 H1_19 1_555 1_555
C3_19 C2_19 1_555 1_555
C4_19 C3_19 1_555 1_555
H2_19 C4_19 1_555 1_555
C5_19 C4_19 1_555 1_555
C6_19 C1_19 1_555 1_555
H3_19 C6_19 1_555 1_555
C7_19 C1_19 1_555 1_555
C8_19 C3_19 1_555 1_555
C9_19 C5_19 1_555 1_555
O9_19 Zn7_27 1_555 1_555
O10_19 C21_19 1_555 1_555
C19_19 C20_19 1_555 1_555
C20_19 H9_19 1_555 1_555
C21_19 O9_19 1_555 1_555
O15_19 C42_19 1_555 1_555
O16_19 C42_19 1_555 1_555
C40_19 C20_19 1_555 1_555
C41_19 C40_19 1_555 1_555
H20_19 C41_19 1_555 1_555
C42_19 C40_19 1_555 1_555
O17_19 C45_19 1_555 1_555
O18_19 C45_19 1_555 1_555
C43_19 C41_19 1_555 1_555
C44_19 C19_19 1_555 1_555
H21_19 C44_19 1_555 1_555
C45_19 C43_19 1_555 1_555
Zn8_10 O15_19 1_555 1_555
Zn15_10 O20_19 1_555 1_555
O19_19 Zn8_10 1_555 1_555
O20_19 C52_19 1_555 1_555
O21_15 C53_19 1_555 1_555
O22_19 C53_19 1_555 1_555
O23_19 C54_19 1_555 1_555
O24_19 C54_19 1_555 1_555
C46_19 C47_19 1_555 1_555
C47_19 H22_19 1_555 1_555
C48_19 C47_19 1_555 1_555
C49_19 C48_19 1_555 1_555
H23_19 C49_19 1_555 1_555
C50_19 C49_19 1_555 1_555
C51_19 C46_19 1_555 1_555
H24_19 C51_19 1_555 1_555
C52_19 O19_19 1_555 1_555
C53_19 C48_19 1_555 1_555
C54_19 C50_19 1_555 1_555
Zn7_6 O17_19 1_555 1_555
Zn12_6 O26_19 1_555 1_555
O25_19 Zn7_6 1_555 1_555
O26_19 C61_19 1_555 1_555
O31_6 C62_19 1_555 1_555
O28_19 C62_19 1_555 1_555
O29_19 C63_19 1_555 1_555
O30_19 C63_19 1_555 1_555
C55_19 C56_19 1_555 1_555
C56_19 H25_19 1_555 1_555
C57_19 C56_19 1_555 1_555
C58_19 C57_19 1_555 1_555
H26_19 C58_19 1_555 1_555
C59_19 C58_19 1_555 1_555
C60_19 C55_19 1_555 1_555
H27_19 C60_19 1_555 1_555
C61_19 O25_19 1_555 1_555
C62_19 C57_19 1_555 1_555
C63_19 C59_19 1_555 1_555
Zn9_19 O24_19 1_555 1_555
Zn10_19 O30_19 1_555 1_555
Zn11_19 O6_19 1_555 1_555
Zn15_15 O21_15 1_555 1_555
Zn17_19 O23_19 1_555 1_555
Zn18_19 O29_19 1_555 1_555
Zn19_19 O5_19 1_555 1_555
O31_15 Zn15_10 1_555 1_555
O34_19 Zn12_6 1_555 1_555
O35_19 Zn12_15 1_555 1_555
O36_19 Zn15_10 1_555 1_555
O37_19 Zn7_6 1_555 1_555
O38_19 Zn7_27 1_555 1_555
O39_19 Zn8_10 1_555 1_555
C5_19 C6_19 1_555 1_555
C19_19 C21_19 1_555 1_555
C43_19 C44_19 1_555 1_555
C46_19 C52_19 1_555 1_555
C50_19 C51_19 1_555 1_555
C55_19 C61_19 1_555 1_555
C59_19 C60_19 1_555 1_555
C19_20 C20_20 1_555 1_555
C20_20 H9_20 1_555 1_555
O15_20 C42_20 1_555 1_555
O16_20 C42_20 1_555 1_555
C40_20 C20_20 1_555 1_555
C41_20 C40_20 1_555 1_555
H20_20 C41_20 1_555 1_555
C42_20 C40_20 1_555 1_555
O17_20 C45_20 1_555 1_555
O18_20 C45_20 1_555 1_555
C43_20 C41_20 1_555 1_555
C44_20 C19_20 1_555 1_555
H21_20 C44_20 1_555 1_555
C45_20 C43_20 1_555 1_555
Zn8_11 O15_20 1_555 1_555
Zn15_11 O20_20 1_555 1_555
O19_20 Zn8_11 1_555 1_555
O20_20 C52_20 1_555 1_555
O21_16 C53_20 1_555 1_555
O22_20 C53_20 1_555 1_555
O23_20 C54_20 1_555 1_555
O24_20 C54_20 1_555 1_555
C46_20 C47_20 1_555 1_555
C47_20 H22_20 1_555 1_555
C48_20 C47_20 1_555 1_555
C49_20 C48_20 1_555 1_555
H23_20 C49_20 1_555 1_555
C50_20 C49_20 1_555 1_555
C51_20 C46_20 1_555 1_555
H24_20 C51_20 1_555 1_555
C52_20 O19_20 1_555 1_555
C53_20 C48_20 1_555 1_555
C54_20 C50_20 1_555 1_555
Zn7_8 O17_20 1_555 1_555
Zn12_8 O26_20 1_555 1_555
O25_20 Zn7_8 1_555 1_555
O26_20 C61_20 1_555 1_555
C61_20 O25_20 1_555 1_555
Zn9_20 O24_20 1_555 1_555
Zn15_16 O21_16 1_555 1_555
Zn17_20 O23_20 1_555 1_555
O31_16 Zn15_11 1_555 1_555
O34_20 Zn12_8 1_555 1_555
O36_20 Zn15_11 1_555 1_555
O37_20 Zn7_8 1_555 1_555
O39_20 Zn8_11 1_555 1_555
C43_20 C44_20 1_555 1_555
C46_20 C52_20 1_555 1_555
C50_20 C51_20 1_555 1_555
Zn7_26 O1_20 1_555 1_555
Zn12_14 O2_20 1_555 1_555
O1_20 C7_20 1_555 1_555
O2_20 C7_20 1_555 1_555
O33_15 C8_20 1_555 1_555
O4_20 C8_20 1_555 1_555
O5_20 C9_20 1_555 1_555
O6_20 C9_20 1_555 1_555
C1_20 C2_20 1_555 1_555
C2_20 H1_20 1_555 1_555
C3_20 C2_20 1_555 1_555
C4_20 C3_20 1_555 1_555
H2_20 C4_20 1_555 1_555
C5_20 C4_20 1_555 1_555
C6_20 C1_20 1_555 1_555
H3_20 C6_20 1_555 1_555
C7_20 C1_20 1_555 1_555
C8_20 C3_20 1_555 1_555
C9_20 C5_20 1_555 1_555
O9_20 Zn7_26 1_555 1_555
C21_20 O9_20 1_555 1_555
O31_5 C62_20 1_555 1_555
O28_20 C62_20 1_555 1_555
O29_20 C63_20 1_555 1_555
O30_20 C63_20 1_555 1_555
C55_20 C56_20 1_555 1_555
C56_20 H25_20 1_555 1_555
C57_20 C56_20 1_555 1_555
C58_20 C57_20 1_555 1_555
H26_20 C58_20 1_555 1_555
C59_20 C58_20 1_555 1_555
C60_20 C55_20 1_555 1_555
H27_20 C60_20 1_555 1_555
C62_20 C57_20 1_555 1_555
C63_20 C59_20 1_555 1_555
Zn10_20 O30_20 1_555 1_555
Zn11_20 O6_20 1_555 1_555
Zn18_20 O29_20 1_555 1_555
Zn19_20 O5_20 1_555 1_555
O35_20 Zn12_14 1_555 1_555
O38_20 Zn7_26 1_555 1_555
C5_20 C6_20 1_555 1_555
C59_20 C60_20 1_555 1_555
O17_21 C45_21 1_555 1_555
O32_4 C53_21 1_555 1_555
O22_21 C53_21 1_555 1_555
O23_21 C54_21 1_555 1_555
O24_21 C54_21 1_555 1_555
C46_21 C47_21 1_555 1_555
C47_21 H22_21 1_555 1_555
C48_21 C47_21 1_555 1_555
C49_21 C48_21 1_555 1_555
H23_21 C49_21 1_555 1_555
C50_21 C49_21 1_555 1_555
C51_21 C46_21 1_555 1_555
H24_21 C51_21 1_555 1_555
C53_21 C48_21 1_555 1_555
C54_21 C50_21 1_555 1_555
Zn8_31 O17_21 1_555 1_555
Zn15_31 O26_21 1_555 1_555
O25_21 Zn8_31 1_555 1_555
O26_21 C61_21 1_555 1_555
O27_13 C62_21 1_555 1_555
O28_21 C62_21 1_555 1_555
O29_21 C63_21 1_555 1_555
O30_21 C63_21 1_555 1_555
C55_21 C56_21 1_555 1_555
C56_21 H25_21 1_555 1_555
C57_21 C56_21 1_555 1_555
C58_21 C57_21 1_555 1_555
H26_21 C58_21 1_555 1_555
C59_21 C58_21 1_555 1_555
C60_21 C55_21 1_555 1_555
H27_21 C60_21 1_555 1_555
C61_21 O25_21 1_555 1_555
C62_21 C57_21 1_555 1_555
C63_21 C59_21 1_555 1_555
Zn9_21 O24_21 1_555 1_555
Zn10_21 O30_21 1_555 1_555
Zn15_26 O27_13 1_555 1_555
Zn17_21 O23_21 1_555 1_555
Zn18_21 O29_21 1_555 1_555
O32_13 Zn15_31 1_555 1_555
O34_21 Zn15_31 1_555 1_555
O37_21 Zn8_31 1_555 1_555
C50_21 C51_21 1_555 1_555
C55_21 C61_21 1_555 1_555
C59_21 C60_21 1_555 1_555
Zn8_18 O1_21 1_555 1_555
Zn15_18 O2_21 1_555 1_555
O1_21 C7_21 1_555 1_555
O2_21 C7_21 1_555 1_555
O33_9 C8_21 1_555 1_555
O4_21 C8_21 1_555 1_555
O5_21 C9_21 1_555 1_555
O6_21 C9_21 1_555 1_555
C1_21 C2_21 1_555 1_555
C2_21 H1_21 1_555 1_555
C3_21 C2_21 1_555 1_555
C4_21 C3_21 1_555 1_555
H2_21 C4_21 1_555 1_555
C5_21 C4_21 1_555 1_555
C6_21 C1_21 1_555 1_555
H3_21 C6_21 1_555 1_555
C7_21 C1_21 1_555 1_555
C8_21 C3_21 1_555 1_555
C9_21 C5_21 1_555 1_555
O9_21 Zn8_18 1_555 1_555
O10_21 C21_21 1_555 1_555
C19_21 C20_21 1_555 1_555
C20_21 H9_21 1_555 1_555
C21_21 O9_21 1_555 1_555
O15_21 C42_21 1_555 1_555
O16_21 C42_21 1_555 1_555
C40_21 C20_21 1_555 1_555
C41_21 C40_21 1_555 1_555
H20_21 C41_21 1_555 1_555
C42_21 C40_21 1_555 1_555
C43_21 C41_21 1_555 1_555
C44_21 C19_21 1_555 1_555
H21_21 C44_21 1_555 1_555
Zn7_14 O15_21 1_555 1_555
Zn14_4 O20_21 1_555 1_555
O19_21 Zn7_14 1_555 1_555
O20_21 C52_21 1_555 1_555
C52_21 O19_21 1_555 1_555
Zn11_21 O6_21 1_555 1_555
Zn19_21 O5_21 1_555 1_555
O35_21 Zn15_18 1_555 1_555
O36_21 Zn14_4 1_555 1_555
O38_21 Zn8_18 1_555 1_555
O39_21 Zn7_14 1_555 1_555
C5_21 C6_21 1_555 1_555
C19_21 C21_21 1_555 1_555
C43_21 C44_21 1_555 1_555
O33_10 C8_22 1_555 1_555
O4_22 C8_22 1_555 1_555
O5_22 C9_22 1_555 1_555
O6_22 C9_22 1_555 1_555
C1_22 C2_22 1_555 1_555
C2_22 H1_22 1_555 1_555
C3_22 C2_22 1_555 1_555
C4_22 C3_22 1_555 1_555
H2_22 C4_22 1_555 1_555
C5_22 C4_22 1_555 1_555
C6_22 C1_22 1_555 1_555
H3_22 C6_22 1_555 1_555
C8_22 C3_22 1_555 1_555
C9_22 C5_22 1_555 1_555
O15_22 C42_22 1_555 1_555
Zn7_13 O15_22 1_555 1_555
Zn14_3 O20_22 1_555 1_555
O19_22 Zn7_13 1_555 1_555
O20_22 C52_22 1_555 1_555
O32_3 C53_22 1_555 1_555
O22_22 C53_22 1_555 1_555
O23_22 C54_22 1_555 1_555
O24_22 C54_22 1_555 1_555
C46_22 C47_22 1_555 1_555
C47_22 H22_22 1_555 1_555
C48_22 C47_22 1_555 1_555
C49_22 C48_22 1_555 1_555
H23_22 C49_22 1_555 1_555
C50_22 C49_22 1_555 1_555
C51_22 C46_22 1_555 1_555
H24_22 C51_22 1_555 1_555
C52_22 O19_22 1_555 1_555
C53_22 C48_22 1_555 1_555
C54_22 C50_22 1_555 1_555
Zn9_22 O24_22 1_555 1_555
Zn11_22 O6_22 1_555 1_555
Zn17_22 O23_22 1_555 1_555
Zn19_22 O5_22 1_555 1_555
O36_22 Zn14_3 1_555 1_555
O39_22 Zn7_13 1_555 1_555
C5_22 C6_22 1_555 1_555
C46_22 C52_22 1_555 1_555
C50_22 C51_22 1_555 1_555
Zn8_20 O1_22 1_555 1_555
Zn15_20 O2_22 1_555 1_555
O1_22 C7_22 1_555 1_555
O2_22 C7_22 1_555 1_555
O9_22 Zn8_20 1_555 1_555
O10_22 C21_22 1_555 1_555
C19_22 C20_22 1_555 1_555
C20_22 H9_22 1_555 1_555
C21_22 O9_22 1_555 1_555
C40_22 C20_22 1_555 1_555
C41_22 C40_22 1_555 1_555
H20_22 C41_22 1_555 1_555
O17_22 C45_22 1_555 1_555
O18_22 C45_22 1_555 1_555
C43_22 C41_22 1_555 1_555
C44_22 C19_22 1_555 1_555
H21_22 C44_22 1_555 1_555
C45_22 C43_22 1_555 1_555
Zn8_32 O17_22 1_555 1_555
Zn15_32 O26_22 1_555 1_555
O25_22 Zn8_32 1_555 1_555
O26_22 C61_22 1_555 1_555
O27_14 C62_22 1_555 1_555
O28_22 C62_22 1_555 1_555
O29_22 C63_22 1_555 1_555
O30_22 C63_22 1_555 1_555
C55_22 C56_22 1_555 1_555
C56_22 H25_22 1_555 1_555
C57_22 C56_22 1_555 1_555
C58_22 C57_22 1_555 1_555
H26_22 C58_22 1_555 1_555
C59_22 C58_22 1_555 1_555
C60_22 C55_22 1_555 1_555
H27_22 C60_22 1_555 1_555
C61_22 O25_22 1_555 1_555
C62_22 C57_22 1_555 1_555
C63_22 C59_22 1_555 1_555
Zn10_22 O30_22 1_555 1_555
Zn15_27 O27_14 1_555 1_555
Zn18_22 O29_22 1_555 1_555
O32_14 Zn15_32 1_555 1_555
O34_22 Zn15_32 1_555 1_555
O35_22 Zn15_20 1_555 1_555
O37_22 Zn8_32 1_555 1_555
O38_22 Zn8_20 1_555 1_555
C19_22 C21_22 1_555 1_555
C43_22 C44_22 1_555 1_555
C55_22 C61_22 1_555 1_555
C59_22 C60_22 1_555 1_555
Zn8_19 O1_23 1_555 1_555
Zn15_19 O2_23 1_555 1_555
O1_23 C7_23 1_555 1_555
O2_23 C7_23 1_555 1_555
O33_12 C8_23 1_555 1_555
O4_23 C8_23 1_555 1_555
O5_23 C9_23 1_555 1_555
O6_23 C9_23 1_555 1_555
C1_23 C2_23 1_555 1_555
C2_23 H1_23 1_555 1_555
C3_23 C2_23 1_555 1_555
C4_23 C3_23 1_555 1_555
H2_23 C4_23 1_555 1_555
C5_23 C4_23 1_555 1_555
C6_23 C1_23 1_555 1_555
H3_23 C6_23 1_555 1_555
C7_23 C1_23 1_555 1_555
C8_23 C3_23 1_555 1_555
C9_23 C5_23 1_555 1_555
O9_23 Zn8_19 1_555 1_555
C21_23 O9_23 1_555 1_555
O27_15 C62_23 1_555 1_555
O28_23 C62_23 1_555 1_555
O29_23 C63_23 1_555 1_555
O30_23 C63_23 1_555 1_555
C55_23 C56_23 1_555 1_555
C56_23 H25_23 1_555 1_555
C57_23 C56_23 1_555 1_555
C58_23 C57_23 1_555 1_555
H26_23 C58_23 1_555 1_555
C59_23 C58_23 1_555 1_555
C60_23 C55_23 1_555 1_555
H27_23 C60_23 1_555 1_555
C62_23 C57_23 1_555 1_555
C63_23 C59_23 1_555 1_555
Zn10_23 O30_23 1_555 1_555
Zn11_23 O6_23 1_555 1_555
Zn15_28 O27_15 1_555 1_555
Zn18_23 O29_23 1_555 1_555
Zn19_23 O5_23 1_555 1_555
O35_23 Zn15_19 1_555 1_555
O38_23 Zn8_19 1_555 1_555
C5_23 C6_23 1_555 1_555
C59_23 C60_23 1_555 1_555
C19_23 C20_23 1_555 1_555
C20_23 H9_23 1_555 1_555
O15_23 C42_23 1_555 1_555
O16_23 C42_23 1_555 1_555
C40_23 C20_23 1_555 1_555
C41_23 C40_23 1_555 1_555
H20_23 C41_23 1_555 1_555
C42_23 C40_23 1_555 1_555
O17_23 C45_23 1_555 1_555
O18_23 C45_23 1_555 1_555
C43_23 C41_23 1_555 1_555
C44_23 C19_23 1_555 1_555
H21_23 C44_23 1_555 1_555
C45_23 C43_23 1_555 1_555
Zn7_16 O15_23 1_555 1_555
Zn14 O20_23 1_555 1_555
O19_23 Zn7_16 1_555 1_555
O20_23 C52_23 1_555 1_555
O32 C53_23 1_555 1_555
O22_23 C53_23 1_555 1_555
O23_23 C54_23 1_555 1_555
O24_23 C54_23 1_555 1_555
C46_23 C47_23 1_555 1_555
C47_23 H22_23 1_555 1_555
C48_23 C47_23 1_555 1_555
C49_23 C48_23 1_555 1_555
H23_23 C49_23 1_555 1_555
C50_23 C49_23 1_555 1_555
C51_23 C46_23 1_555 1_555
H24_23 C51_23 1_555 1_555
C52_23 O19_23 1_555 1_555
C53_23 C48_23 1_555 1_555
C54_23 C50_23 1_555 1_555
Zn8_29 O17_23 1_555 1_555
Zn15_29 O26_23 1_555 1_555
O25_23 Zn8_29 1_555 1_555
O26_23 C61_23 1_555 1_555
C61_23 O25_23 1_555 1_555
Zn9_23 O24_23 1_555 1_555
Zn17_23 O23_23 1_555 1_555
O32_15 Zn15_29 1_555 1_555
O34_23 Zn15_29 1_555 1_555
O36_23 Zn14 1_555 1_555
O37_23 Zn8_29 1_555 1_555
O39_23 Zn7_16 1_555 1_555
C43_23 C44_23 1_555 1_555
C46_23 C52_23 1_555 1_555
C50_23 C51_23 1_555 1_555
Zn8_17 O1_24 1_555 1_555
Zn15_17 O2_24 1_555 1_555
O1_24 C7_24 1_555 1_555
O2_24 C7_24 1_555 1_555
O33_11 C8_24 1_555 1_555
O4_24 C8_24 1_555 1_555
O5_24 C9_24 1_555 1_555
O6_24 C9_24 1_555 1_555
C1_24 C2_24 1_555 1_555
C2_24 H1_24 1_555 1_555
C3_24 C2_24 1_555 1_555
C4_24 C3_24 1_555 1_555
H2_24 C4_24 1_555 1_555
C5_24 C4_24 1_555 1_555
C6_24 C1_24 1_555 1_555
H3_24 C6_24 1_555 1_555
C7_24 C1_24 1_555 1_555
C8_24 C3_24 1_555 1_555
C9_24 C5_24 1_555 1_555
O9_24 Zn8_17 1_555 1_555
O10_24 C21_24 1_555 1_555
C19_24 C20_24 1_555 1_555
C20_24 H9_24 1_555 1_555
C21_24 O9_24 1_555 1_555
O15_24 C42_24 1_555 1_555
O16_24 C42_24 1_555 1_555
C40_24 C20_24 1_555 1_555
C41_24 C40_24 1_555 1_555
H20_24 C41_24 1_555 1_555
C42_24 C40_24 1_555 1_555
O17_24 C45_24 1_555 1_555
O18_24 C45_24 1_555 1_555
C43_24 C41_24 1_555 1_555
C44_24 C19_24 1_555 1_555
H21_24 C44_24 1_555 1_555
C45_24 C43_24 1_555 1_555
Zn7_15 O15_24 1_555 1_555
Zn14_2 O20_24 1_555 1_555
O19_24 Zn7_15 1_555 1_555
O20_24 C52_24 1_555 1_555
O32_2 C53_24 1_555 1_555
O22_24 C53_24 1_555 1_555
O23_24 C54_24 1_555 1_555
O24_24 C54_24 1_555 1_555
C46_24 C47_24 1_555 1_555
C47_24 H22_24 1_555 1_555
C48_24 C47_24 1_555 1_555
C49_24 C48_24 1_555 1_555
H23_24 C49_24 1_555 1_555
C50_24 C49_24 1_555 1_555
C51_24 C46_24 1_555 1_555
H24_24 C51_24 1_555 1_555
C52_24 O19_24 1_555 1_555
C53_24 C48_24 1_555 1_555
C54_24 C50_24 1_555 1_555
Zn8_30 O17_24 1_555 1_555
Zn15_30 O26_24 1_555 1_555
O25_24 Zn8_30 1_555 1_555
O26_24 C61_24 1_555 1_555
O27_16 C62_24 1_555 1_555
O28_24 C62_24 1_555 1_555
O29_24 C63_24 1_555 1_555
O30_24 C63_24 1_555 1_555
C55_24 C56_24 1_555 1_555
C56_24 H25_24 1_555 1_555
C57_24 C56_24 1_555 1_555
C58_24 C57_24 1_555 1_555
H26_24 C58_24 1_555 1_555
C59_24 C58_24 1_555 1_555
C60_24 C55_24 1_555 1_555
H27_24 C60_24 1_555 1_555
C61_24 O25_24 1_555 1_555
C62_24 C57_24 1_555 1_555
C63_24 C59_24 1_555 1_555
Zn9_24 O24_24 1_555 1_555
Zn10_24 O30_24 1_555 1_555
Zn11_24 O6_24 1_555 1_555
Zn15_25 O27_16 1_555 1_555
Zn17_24 O23_24 1_555 1_555
Zn18_24 O29_24 1_555 1_555
Zn19_24 O5_24 1_555 1_555
O32_16 Zn15_30 1_555 1_555
O34_24 Zn15_30 1_555 1_555
O35_24 Zn15_17 1_555 1_555
O36_24 Zn14_2 1_555 1_555
O37_24 Zn8_30 1_555 1_555
O38_24 Zn8_17 1_555 1_555
O39_24 Zn7_15 1_555 1_555
C5_24 C6_24 1_555 1_555
C19_24 C21_24 1_555 1_555
C43_24 C44_24 1_555 1_555
C46_24 C52_24 1_555 1_555
C50_24 C51_24 1_555 1_555
C55_24 C61_24 1_555 1_555
C59_24 C60_24 1_555 1_555
Zn7_12 O1_25 1_555 1_555
Zn12_12 O2_25 1_555 1_555
O1_25 C7_25 1_555 1_555
O2_25 C7_25 1_555 1_555
O9_25 Zn7_12 1_555 1_555
O10_25 C21_25 1_555 1_555
C19_25 C20_25 1_555 1_555
C20_25 H9_25 1_555 1_555
C21_25 O9_25 1_555 1_555
C40_25 C20_25 1_555 1_555
C41_25 C40_25 1_555 1_555
H20_25 C41_25 1_555 1_555
O17_25 C45_25 1_555 1_555
O18_25 C45_25 1_555 1_555
C43_25 C41_25 1_555 1_555
C44_25 C19_25 1_555 1_555
H21_25 C44_25 1_555 1_555
C45_25 C43_25 1_555 1_555
Zn8_3 O17_25 1_555 1_555
Zn15_3 O26_25 1_555 1_555
O25_25 Zn8_3 1_555 1_555
O26_25 C61_25 1_555 1_555
O31_11 C62_25 1_555 1_555
O28_25 C62_25 1_555 1_555
O29_25 C63_25 1_555 1_555
O30_25 C63_25 1_555 1_555
C55_25 C56_25 1_555 1_555
C56_25 H25_25 1_555 1_555
C57_25 C56_25 1_555 1_555
C58_25 C57_25 1_555 1_555
H26_25 C58_25 1_555 1_555
C59_25 C58_25 1_555 1_555
C60_25 C55_25 1_555 1_555
H27_25 C60_25 1_555 1_555
C61_25 O25_25 1_555 1_555
C62_25 C57_25 1_555 1_555
C63_25 C59_25 1_555 1_555
Zn10_25 O30_25 1_555 1_555
Zn18_25 O29_25 1_555 1_555
O34_25 Zn15_3 1_555 1_555
O35_25 Zn12_12 1_555 1_555
O37_25 Zn8_3 1_555 1_555
O38_25 Zn7_12 1_555 1_555
C19_25 C21_25 1_555 1_555
C43_25 C44_25 1_555 1_555
C55_25 C61_25 1_555 1_555
C59_25 C60_25 1_555 1_555
O33_5 C8_25 1_555 1_555
O4_25 C8_25 1_555 1_555
O5_25 C9_25 1_555 1_555
O6_25 C9_25 1_555 1_555
C1_25 C2_25 1_555 1_555
C2_25 H1_25 1_555 1_555
C3_25 C2_25 1_555 1_555
C4_25 C3_25 1_555 1_555
H2_25 C4_25 1_555 1_555
C5_25 C4_25 1_555 1_555
C6_25 C1_25 1_555 1_555
H3_25 C6_25 1_555 1_555
C8_25 C3_25 1_555 1_555
C9_25 C5_25 1_555 1_555
O15_25 C42_25 1_555 1_555
Zn8_25 O15_25 1_555 1_555
Zn15_25 O20_25 1_555 1_555
O19_25 Zn8_25 1_555 1_555
O20_25 C52_25 1_555 1_555
O32_16 C53_25 1_555 1_555
O22_25 C53_25 1_555 1_555
O23_25 C54_25 1_555 1_555
O24_25 C54_25 1_555 1_555
C46_25 C47_25 1_555 1_555
C47_25 H22_25 1_555 1_555
C48_25 C47_25 1_555 1_555
C49_25 C48_25 1_555 1_555
H23_25 C49_25 1_555 1_555
C50_25 C49_25 1_555 1_555
C51_25 C46_25 1_555 1_555
H24_25 C51_25 1_555 1_555
C52_25 O19_25 1_555 1_555
C53_25 C48_25 1_555 1_555
C54_25 C50_25 1_555 1_555
Zn9_25 O24_25 1_555 1_555
Zn11_25 O6_25 1_555 1_555
Zn17_25 O23_25 1_555 1_555
Zn19_25 O5_25 1_555 1_555
O36_25 Zn15_25 1_555 1_555
O39_25 Zn8_25 1_555 1_555
C5_25 C6_25 1_555 1_555
C46_25 C52_25 1_555 1_555
C50_25 C51_25 1_555 1_555
C19_26 C20_26 1_555 1_555
C20_26 H9_26 1_555 1_555
O15_26 C42_26 1_555 1_555
O16_26 C42_26 1_555 1_555
C40_26 C20_26 1_555 1_555
C41_26 C40_26 1_555 1_555
H20_26 C41_26 1_555 1_555
C42_26 C40_26 1_555 1_555
C43_26 C41_26 1_555 1_555
C44_26 C19_26 1_555 1_555
H21_26 C44_26 1_555 1_555
Zn8_28 O15_26 1_555 1_555
Zn15_28 O20_26 1_555 1_555
O19_26 Zn8_28 1_555 1_555
O20_26 C52_26 1_555 1_555
C52_26 O19_26 1_555 1_555
O36_26 Zn15_28 1_555 1_555
O39_26 Zn8_28 1_555 1_555
C43_26 C44_26 1_555 1_555
Zn7_9 O1_26 1_555 1_555
Zn12_9 O2_26 1_555 1_555
O1_26 C7_26 1_555 1_555
O2_26 C7_26 1_555 1_555
O33_6 C8_26 1_555 1_555
O4_26 C8_26 1_555 1_555
O5_26 C9_26 1_555 1_555
O6_26 C9_26 1_555 1_555
C1_26 C2_26 1_555 1_555
C2_26 H1_26 1_555 1_555
C3_26 C2_26 1_555 1_555
C4_26 C3_26 1_555 1_555
H2_26 C4_26 1_555 1_555
C5_26 C4_26 1_555 1_555
C6_26 C1_26 1_555 1_555
H3_26 C6_26 1_555 1_555
C7_26 C1_26 1_555 1_555
C8_26 C3_26 1_555 1_555
C9_26 C5_26 1_555 1_555
O9_26 Zn7_9 1_555 1_555
C21_26 O9_26 1_555 1_555
Zn11_26 O6_26 1_555 1_555
Zn19_26 O5_26 1_555 1_555
O35_26 Zn12_9 1_555 1_555
O38_26 Zn7_9 1_555 1_555
C5_26 C6_26 1_555 1_555
O17_26 C45_26 1_555 1_555
O32_15 C53_26 1_555 1_555
O22_26 C53_26 1_555 1_555
O23_26 C54_26 1_555 1_555
O24_26 C54_26 1_555 1_555
C46_26 C47_26 1_555 1_555
C47_26 H22_26 1_555 1_555
C48_26 C47_26 1_555 1_555
C49_26 C48_26 1_555 1_555
H23_26 C49_26 1_555 1_555
C50_26 C49_26 1_555 1_555
C51_26 C46_26 1_555 1_555
H24_26 C51_26 1_555 1_555
C53_26 C48_26 1_555 1_555
C54_26 C50_26 1_555 1_555
Zn8_4 O17_26 1_555 1_555
Zn15_4 O26_26 1_555 1_555
O25_26 Zn8_4 1_555 1_555
O26_26 C61_26 1_555 1_555
C61_26 O25_26 1_555 1_555
Zn9_26 O24_26 1_555 1_555
Zn17_26 O23_26 1_555 1_555
O34_26 Zn15_4 1_555 1_555
O37_26 Zn8_4 1_555 1_555
C50_26 C51_26 1_555 1_555
O31_12 C62_26 1_555 1_555
O28_26 C62_26 1_555 1_555
O29_26 C63_26 1_555 1_555
O30_26 C63_26 1_555 1_555
C55_26 C56_26 1_555 1_555
C56_26 H25_26 1_555 1_555
C57_26 C56_26 1_555 1_555
C58_26 C57_26 1_555 1_555
H26_26 C58_26 1_555 1_555
C59_26 C58_26 1_555 1_555
C60_26 C55_26 1_555 1_555
H27_26 C60_26 1_555 1_555
C62_26 C57_26 1_555 1_555
C63_26 C59_26 1_555 1_555
Zn10_26 O30_26 1_555 1_555
Zn18_26 O29_26 1_555 1_555
C59_26 C60_26 1_555 1_555
Zn7_11 O1_27 1_555 1_555
Zn12_11 O2_27 1_555 1_555
O1_27 C7_27 1_555 1_555
O2_27 C7_27 1_555 1_555
O33_8 C8_27 1_555 1_555
O4_27 C8_27 1_555 1_555
O5_27 C9_27 1_555 1_555
O6_27 C9_27 1_555 1_555
C1_27 C2_27 1_555 1_555
C2_27 H1_27 1_555 1_555
C3_27 C2_27 1_555 1_555
C4_27 C3_27 1_555 1_555
H2_27 C4_27 1_555 1_555
C5_27 C4_27 1_555 1_555
C6_27 C1_27 1_555 1_555
H3_27 C6_27 1_555 1_555
C7_27 C1_27 1_555 1_555
C8_27 C3_27 1_555 1_555
C9_27 C5_27 1_555 1_555
O9_27 Zn7_11 1_555 1_555
O10_27 C21_27 1_555 1_555
C19_27 C20_27 1_555 1_555
C20_27 H9_27 1_555 1_555
C21_27 O9_27 1_555 1_555
O15_27 C42_27 1_555 1_555
O16_27 C42_27 1_555 1_555
C40_27 C20_27 1_555 1_555
C41_27 C40_27 1_555 1_555
H20_27 C41_27 1_555 1_555
C42_27 C40_27 1_555 1_555
O17_27 C45_27 1_555 1_555
O18_27 C45_27 1_555 1_555
C43_27 C41_27 1_555 1_555
C44_27 C19_27 1_555 1_555
H21_27 C44_27 1_555 1_555
C45_27 C43_27 1_555 1_555
Zn8_26 O15_27 1_555 1_555
Zn15_26 O20_27 1_555 1_555
O19_27 Zn8_26 1_555 1_555
O20_27 C52_27 1_555 1_555
O32_13 C53_27 1_555 1_555
O22_27 C53_27 1_555 1_555
O23_27 C54_27 1_555 1_555
O24_27 C54_27 1_555 1_555
C46_27 C47_27 1_555 1_555
C47_27 H22_27 1_555 1_555
C48_27 C47_27 1_555 1_555
C49_27 C48_27 1_555 1_555
H23_27 C49_27 1_555 1_555
C50_27 C49_27 1_555 1_555
C51_27 C46_27 1_555 1_555
H24_27 C51_27 1_555 1_555
C52_27 O19_27 1_555 1_555
C53_27 C48_27 1_555 1_555
C54_27 C50_27 1_555 1_555
Zn8 O17_27 1_555 1_555
Zn15 O26_27 1_555 1_555
O25_27 Zn8 1_555 1_555
O26_27 C61_27 1_555 1_555
O31_10 C62_27 1_555 1_555
O28_27 C62_27 1_555 1_555
O29_27 C63_27 1_555 1_555
O30_27 C63_27 1_555 1_555
C55_27 C56_27 1_555 1_555
C56_27 H25_27 1_555 1_555
C57_27 C56_27 1_555 1_555
C58_27 C57_27 1_555 1_555
H26_27 C58_27 1_555 1_555
C59_27 C58_27 1_555 1_555
C60_27 C55_27 1_555 1_555
H27_27 C60_27 1_555 1_555
C61_27 O25_27 1_555 1_555
C62_27 C57_27 1_555 1_555
C63_27 C59_27 1_555 1_555
Zn9_27 O24_27 1_555 1_555
Zn10_27 O30_27 1_555 1_555
Zn11_27 O6_27 1_555 1_555
Zn17_27 O23_27 1_555 1_555
Zn18_27 O29_27 1_555 1_555
Zn19_27 O5_27 1_555 1_555
O34_27 Zn15 1_555 1_555
O35_27 Zn12_11 1_555 1_555
O36_27 Zn15_26 1_555 1_555
O37_27 Zn8 1_555 1_555
O38_27 Zn7_11 1_555 1_555
O39_27 Zn8_26 1_555 1_555
C5_27 C6_27 1_555 1_555
C19_27 C21_27 1_555 1_555
C43_27 C44_27 1_555 1_555
C46_27 C52_27 1_555 1_555
C50_27 C51_27 1_555 1_555
C55_27 C61_27 1_555 1_555
C59_27 C60_27 1_555 1_555
Zn7_10 O1_28 1_555 1_555
Zn12_10 O2_28 1_555 1_555
O1_28 C7_28 1_555 1_555
O2_28 C7_28 1_555 1_555
O33_7 C8_28 1_555 1_555
O4_28 C8_28 1_555 1_555
O5_28 C9_28 1_555 1_555
O6_28 C9_28 1_555 1_555
C1_28 C2_28 1_555 1_555
C2_28 H1_28 1_555 1_555
C3_28 C2_28 1_555 1_555
C4_28 C3_28 1_555 1_555
H2_28 C4_28 1_555 1_555
C5_28 C4_28 1_555 1_555
C6_28 C1_28 1_555 1_555
H3_28 C6_28 1_555 1_555
C7_28 C1_28 1_555 1_555
C8_28 C3_28 1_555 1_555
C9_28 C5_28 1_555 1_555
O9_28 Zn7_10 1_555 1_555
O10_28 C21_28 1_555 1_555
C19_28 C20_28 1_555 1_555
C20_28 H9_28 1_555 1_555
C21_28 O9_28 1_555 1_555
O15_28 C42_28 1_555 1_555
O16_28 C42_28 1_555 1_555
C40_28 C20_28 1_555 1_555
C41_28 C40_28 1_555 1_555
H20_28 C41_28 1_555 1_555
C42_28 C40_28 1_555 1_555
O17_28 C45_28 1_555 1_555
O18_28 C45_28 1_555 1_555
C43_28 C41_28 1_555 1_555
C44_28 C19_28 1_555 1_555
H21_28 C44_28 1_555 1_555
C45_28 C43_28 1_555 1_555
Zn8_27 O15_28 1_555 1_555
Zn15_27 O20_28 1_555 1_555
O19_28 Zn8_27 1_555 1_555
O20_28 C52_28 1_555 1_555
O32_14 C53_28 1_555 1_555
O22_28 C53_28 1_555 1_555
O23_28 C54_28 1_555 1_555
O24_28 C54_28 1_555 1_555
C46_28 C47_28 1_555 1_555
C47_28 H22_28 1_555 1_555
C48_28 C47_28 1_555 1_555
C49_28 C48_28 1_555 1_555
H23_28 C49_28 1_555 1_555
C50_28 C49_28 1_555 1_555
C51_28 C46_28 1_555 1_555
H24_28 C51_28 1_555 1_555
C52_28 O19_28 1_555 1_555
C53_28 C48_28 1_555 1_555
C54_28 C50_28 1_555 1_555
Zn8_2 O17_28 1_555 1_555
Zn15_2 O26_28 1_555 1_555
O25_28 Zn8_2 1_555 1_555
O26_28 C61_28 1_555 1_555
O31_9 C62_28 1_555 1_555
O28_28 C62_28 1_555 1_555
O29_28 C63_28 1_555 1_555
O30_28 C63_28 1_555 1_555
C55_28 C56_28 1_555 1_555
C56_28 H25_28 1_555 1_555
C57_28 C56_28 1_555 1_555
C58_28 C57_28 1_555 1_555
H26_28 C58_28 1_555 1_555
C59_28 C58_28 1_555 1_555
C60_28 C55_28 1_555 1_555
H27_28 C60_28 1_555 1_555
C61_28 O25_28 1_555 1_555
C62_28 C57_28 1_555 1_555
C63_28 C59_28 1_555 1_555
Zn9_28 O24_28 1_555 1_555
Zn10_28 O30_28 1_555 1_555
Zn11_28 O6_28 1_555 1_555
Zn17_28 O23_28 1_555 1_555
Zn18_28 O29_28 1_555 1_555
Zn19_28 O5_28 1_555 1_555
O34_28 Zn15_2 1_555 1_555
O35_28 Zn12_10 1_555 1_555
O36_28 Zn15_27 1_555 1_555
O37_28 Zn8_2 1_555 1_555
O38_28 Zn7_10 1_555 1_555
O39_28 Zn8_27 1_555 1_555
C5_28 C6_28 1_555 1_555
C19_28 C21_28 1_555 1_555
C43_28 C44_28 1_555 1_555
C46_28 C52_28 1_555 1_555
C50_28 C51_28 1_555 1_555
C55_28 C61_28 1_555 1_555
C59_28 C60_28 1_555 1_555
O33 C8_29 1_555 1_555
O4_29 C8_29 1_555 1_555
O5_29 C9_29 1_555 1_555
O6_29 C9_29 1_555 1_555
C1_29 C2_29 1_555 1_555
C2_29 H1_29 1_555 1_555
C3_29 C2_29 1_555 1_555
C4_29 C3_29 1_555 1_555
H2_29 C4_29 1_555 1_555
C5_29 C4_29 1_555 1_555
C6_29 C1_29 1_555 1_555
H3_29 C6_29 1_555 1_555
C8_29 C3_29 1_555 1_555
C9_29 C5_29 1_555 1_555
O15_29 C42_29 1_555 1_555
Zn7_30 O15_29 1_555 1_555
Zn14_8 O20_29 1_555 1_555
O19_29 Zn7_30 1_555 1_555
O20_29 C52_29 1_555 1_555
O32_12 C53_29 1_555 1_555
O22_29 C53_29 1_555 1_555
O23_29 C54_29 1_555 1_555
O24_29 C54_29 1_555 1_555
C46_29 C47_29 1_555 1_555
C47_29 H22_29 1_555 1_555
C48_29 C47_29 1_555 1_555
C49_29 C48_29 1_555 1_555
H23_29 C49_29 1_555 1_555
C50_29 C49_29 1_555 1_555
C51_29 C46_29 1_555 1_555
H24_29 C51_29 1_555 1_555
C52_29 O19_29 1_555 1_555
C53_29 C48_29 1_555 1_555
C54_29 C50_29 1_555 1_555
Zn9_29 O24_29 1_555 1_555
Zn11_29 O6_29 1_555 1_555
Zn17_29 O23_29 1_555 1_555
Zn19_29 O5_29 1_555 1_555
O36_29 Zn14_8 1_555 1_555
O39_29 Zn7_30 1_555 1_555
C5_29 C6_29 1_555 1_555
C46_29 C52_29 1_555 1_555
C50_29 C51_29 1_555 1_555
Zn7_24 O1_29 1_555 1_555
Zn16 O2_29 1_555 1_555
O1_29 C7_29 1_555 1_555
O2_29 C7_29 1_555 1_555
O9_29 Zn7_24 1_555 1_555
O10_29 C21_29 1_555 1_555
C19_29 C20_29 1_555 1_555
C20_29 H9_29 1_555 1_555
C21_29 O9_29 1_555 1_555
C40_29 C20_29 1_555 1_555
C41_29 C40_29 1_555 1_555
H20_29 C41_29 1_555 1_555
O17_29 C45_29 1_555 1_555
O18_29 C45_29 1_555 1_555
C43_29 C41_29 1_555 1_555
C44_29 C19_29 1_555 1_555
H21_29 C44_29 1_555 1_555
C45_29 C43_29 1_555 1_555
Zn8_15 O17_29 1_555 1_555
Zn15_15 O26_29 1_555 1_555
O25_29 Zn8_15 1_555 1_555
O26_29 C61_29 1_555 1_555
O31_15 C62_29 1_555 1_555
O28_29 C62_29 1_555 1_555
O29_29 C63_29 1_555 1_555
O30_29 C63_29 1_555 1_555
C55_29 C56_29 1_555 1_555
C56_29 H25_29 1_555 1_555
C57_29 C56_29 1_555 1_555
C58_29 C57_29 1_555 1_555
H26_29 C58_29 1_555 1_555
C59_29 C58_29 1_555 1_555
C60_29 C55_29 1_555 1_555
H27_29 C60_29 1_555 1_555
C61_29 O25_29 1_555 1_555
C62_29 C57_29 1_555 1_555
C63_29 C59_29 1_555 1_555
Zn10_29 O30_29 1_555 1_555
Zn18_29 O29_29 1_555 1_555
O34_29 Zn15_15 1_555 1_555
O35_29 Zn16 1_555 1_555
O37_29 Zn8_15 1_555 1_555
O38_29 Zn7_24 1_555 1_555
C19_29 C21_29 1_555 1_555
C43_29 C44_29 1_555 1_555
C55_29 C61_29 1_555 1_555
C59_29 C60_29 1_555 1_555
Zn7_21 O1_30 1_555 1_555
Zn16_2 O2_30 1_555 1_555
O1_30 C7_30 1_555 1_555
O2_30 C7_30 1_555 1_555
O33_2 C8_30 1_555 1_555
O4_30 C8_30 1_555 1_555
O5_30 C9_30 1_555 1_555
O6_30 C9_30 1_555 1_555
C1_30 C2_30 1_555 1_555
C2_30 H1_30 1_555 1_555
C3_30 C2_30 1_555 1_555
C4_30 C3_30 1_555 1_555
H2_30 C4_30 1_555 1_555
C5_30 C4_30 1_555 1_555
C6_30 C1_30 1_555 1_555
H3_30 C6_30 1_555 1_555
C7_30 C1_30 1_555 1_555
C8_30 C3_30 1_555 1_555
C9_30 C5_30 1_555 1_555
O9_30 Zn7_21 1_555 1_555
O10_30 C21_30 1_555 1_555
C19_30 C20_30 1_555 1_555
C20_30 H9_30 1_555 1_555
C21_30 O9_30 1_555 1_555
O15_30 C42_30 1_555 1_555
O16_30 C42_30 1_555 1_555
C40_30 C20_30 1_555 1_555
C41_30 C40_30 1_555 1_555
H20_30 C41_30 1_555 1_555
C42_30 C40_30 1_555 1_555
O17_30 C45_30 1_555 1_555
O18_30 C45_30 1_555 1_555
C43_30 C41_30 1_555 1_555
C44_30 C19_30 1_555 1_555
H21_30 C44_30 1_555 1_555
C45_30 C43_30 1_555 1_555
Zn7_29 O15_30 1_555 1_555
Zn14_7 O20_30 1_555 1_555
O19_30 Zn7_29 1_555 1_555
O20_30 C52_30 1_555 1_555
O32_11 C53_30 1_555 1_555
O22_30 C53_30 1_555 1_555
O23_30 C54_30 1_555 1_555
O24_30 C54_30 1_555 1_555
C46_30 C47_30 1_555 1_555
C47_30 H22_30 1_555 1_555
C48_30 C47_30 1_555 1_555
C49_30 C48_30 1_555 1_555
H23_30 C49_30 1_555 1_555
C50_30 C49_30 1_555 1_555
C51_30 C46_30 1_555 1_555
H24_30 C51_30 1_555 1_555
C52_30 O19_30 1_555 1_555
C53_30 C48_30 1_555 1_555
C54_30 C50_30 1_555 1_555
Zn8_16 O17_30 1_555 1_555
Zn15_16 O26_30 1_555 1_555
O25_30 Zn8_16 1_555 1_555
O26_30 C61_30 1_555 1_555
O31_16 C62_30 1_555 1_555
O28_30 C62_30 1_555 1_555
O29_30 C63_30 1_555 1_555
O30_30 C63_30 1_555 1_555
C55_30 C56_30 1_555 1_555
C56_30 H25_30 1_555 1_555
C57_30 C56_30 1_555 1_555
C58_30 C57_30 1_555 1_555
H26_30 C58_30 1_555 1_555
C59_30 C58_30 1_555 1_555
C60_30 C55_30 1_555 1_555
H27_30 C60_30 1_555 1_555
C61_30 O25_30 1_555 1_555
C62_30 C57_30 1_555 1_555
C63_30 C59_30 1_555 1_555
Zn9_30 O24_30 1_555 1_555
Zn10_30 O30_30 1_555 1_555
Zn11_30 O6_30 1_555 1_555
Zn17_30 O23_30 1_555 1_555
Zn18_30 O29_30 1_555 1_555
Zn19_30 O5_30 1_555 1_555
O34_30 Zn15_16 1_555 1_555
O35_30 Zn16_2 1_555 1_555
O36_30 Zn14_7 1_555 1_555
O37_30 Zn8_16 1_555 1_555
O38_30 Zn7_21 1_555 1_555
O39_30 Zn7_29 1_555 1_555
C5_30 C6_30 1_555 1_555
C19_30 C21_30 1_555 1_555
C43_30 C44_30 1_555 1_555
C46_30 C52_30 1_555 1_555
C50_30 C51_30 1_555 1_555
C55_30 C61_30 1_555 1_555
C59_30 C60_30 1_555 1_555
Zn7_23 O1_31 1_555 1_555
Zn16_4 O2_31 1_555 1_555
O1_31 C7_31 1_555 1_555
O2_31 C7_31 1_555 1_555
O33_4 C8_31 1_555 1_555
O4_31 C8_31 1_555 1_555
O5_31 C9_31 1_555 1_555
O6_31 C9_31 1_555 1_555
C1_31 C2_31 1_555 1_555
C2_31 H1_31 1_555 1_555
C3_31 C2_31 1_555 1_555
C4_31 C3_31 1_555 1_555
H2_31 C4_31 1_555 1_555
C5_31 C4_31 1_555 1_555
C6_31 C1_31 1_555 1_555
H3_31 C6_31 1_555 1_555
C7_31 C1_31 1_555 1_555
C8_31 C3_31 1_555 1_555
C9_31 C5_31 1_555 1_555
O9_31 Zn7_23 1_555 1_555
C21_31 O9_31 1_555 1_555
O31_14 C62_31 1_555 1_555
O28_31 C62_31 1_555 1_555
O29_31 C63_31 1_555 1_555
O30_31 C63_31 1_555 1_555
C55_31 C56_31 1_555 1_555
C56_31 H25_31 1_555 1_555
C57_31 C56_31 1_555 1_555
C58_31 C57_31 1_555 1_555
H26_31 C58_31 1_555 1_555
C59_31 C58_31 1_555 1_555
C60_31 C55_31 1_555 1_555
H27_31 C60_31 1_555 1_555
C62_31 C57_31 1_555 1_555
C63_31 C59_31 1_555 1_555
Zn10_31 O30_31 1_555 1_555
Zn11_31 O6_31 1_555 1_555
Zn18_31 O29_31 1_555 1_555
Zn19_31 O5_31 1_555 1_555
O35_31 Zn16_4 1_555 1_555
O38_31 Zn7_23 1_555 1_555
C5_31 C6_31 1_555 1_555
C59_31 C60_31 1_555 1_555
C19_31 C20_31 1_555 1_555
C20_31 H9_31 1_555 1_555
O15_31 C42_31 1_555 1_555
O16_31 C42_31 1_555 1_555
C40_31 C20_31 1_555 1_555
C41_31 C40_31 1_555 1_555
H20_31 C41_31 1_555 1_555
C42_31 C40_31 1_555 1_555
O17_31 C45_31 1_555 1_555
O18_31 C45_31 1_555 1_555
C43_31 C41_31 1_555 1_555
C44_31 C19_31 1_555 1_555
H21_31 C44_31 1_555 1_555
C45_31 C43_31 1_555 1_555
Zn7_32 O15_31 1_555 1_555
Zn14_5 O20_31 1_555 1_555
O19_31 Zn7_32 1_555 1_555
O20_31 C52_31 1_555 1_555
O32_9 C53_31 1_555 1_555
O22_31 C53_31 1_555 1_555
O23_31 C54_31 1_555 1_555
O24_31 C54_31 1_555 1_555
C46_31 C47_31 1_555 1_555
C47_31 H22_31 1_555 1_555
C48_31 C47_31 1_555 1_555
C49_31 C48_31 1_555 1_555
H23_31 C49_31 1_555 1_555
C50_31 C49_31 1_555 1_555
C51_31 C46_31 1_555 1_555
H24_31 C51_31 1_555 1_555
C52_31 O19_31 1_555 1_555
C53_31 C48_31 1_555 1_555
C54_31 C50_31 1_555 1_555
Zn8_13 O17_31 1_555 1_555
Zn15_13 O26_31 1_555 1_555
O25_31 Zn8_13 1_555 1_555
O26_31 C61_31 1_555 1_555
C61_31 O25_31 1_555 1_555
Zn9_31 O24_31 1_555 1_555
Zn17_31 O23_31 1_555 1_555
O34_31 Zn15_13 1_555 1_555
O36_31 Zn14_5 1_555 1_555
O37_31 Zn8_13 1_555 1_555
O39_31 Zn7_32 1_555 1_555
C43_31 C44_31 1_555 1_555
C46_31 C52_31 1_555 1_555
C50_31 C51_31 1_555 1_555
O17_32 C45_32 1_555 1_555
O32_10 C53_32 1_555 1_555
O22_32 C53_32 1_555 1_555
O23_32 C54_32 1_555 1_555
O24_32 C54_32 1_555 1_555
C46_32 C47_32 1_555 1_555
C47_32 H22_32 1_555 1_555
C48_32 C47_32 1_555 1_555
C49_32 C48_32 1_555 1_555
H23_32 C49_32 1_555 1_555
C50_32 C49_32 1_555 1_555
C51_32 C46_32 1_555 1_555
H24_32 C51_32 1_555 1_555
C53_32 C48_32 1_555 1_555
C54_32 C50_32 1_555 1_555
Zn8_14 O17_32 1_555 1_555
Zn15_14 O26_32 1_555 1_555
O25_32 Zn8_14 1_555 1_555
O26_32 C61_32 1_555 1_555
O31_13 C62_32 1_555 1_555
O28_32 C62_32 1_555 1_555
O29_32 C63_32 1_555 1_555
O30_32 C63_32 1_555 1_555
C55_32 C56_32 1_555 1_555
C56_32 H25_32 1_555 1_555
C57_32 C56_32 1_555 1_555
C58_32 C57_32 1_555 1_555
H26_32 C58_32 1_555 1_555
C59_32 C58_32 1_555 1_555
C60_32 C55_32 1_555 1_555
H27_32 C60_32 1_555 1_555
C61_32 O25_32 1_555 1_555
C62_32 C57_32 1_555 1_555
C63_32 C59_32 1_555 1_555
Zn9_32 O24_32 1_555 1_555
Zn10_32 O30_32 1_555 1_555
Zn17_32 O23_32 1_555 1_555
Zn18_32 O29_32 1_555 1_555
O34_32 Zn15_14 1_555 1_555
O37_32 Zn8_14 1_555 1_555
C50_32 C51_32 1_555 1_555
C55_32 C61_32 1_555 1_555
C59_32 C60_32 1_555 1_555
Zn7_22 O1_32 1_555 1_555
Zn16_3 O2_32 1_555 1_555
O1_32 C7_32 1_555 1_555
O2_32 C7_32 1_555 1_555
O33_3 C8_32 1_555 1_555
O4_32 C8_32 1_555 1_555
O5_32 C9_32 1_555 1_555
O6_32 C9_32 1_555 1_555
C1_32 C2_32 1_555 1_555
C2_32 H1_32 1_555 1_555
C3_32 C2_32 1_555 1_555
C4_32 C3_32 1_555 1_555
H2_32 C4_32 1_555 1_555
C5_32 C4_32 1_555 1_555
C6_32 C1_32 1_555 1_555
H3_32 C6_32 1_555 1_555
C7_32 C1_32 1_555 1_555
C8_32 C3_32 1_555 1_555
C9_32 C5_32 1_555 1_555
O9_32 Zn7_22 1_555 1_555
O10_32 C21_32 1_555 1_555
C19_32 C20_32 1_555 1_555
C20_32 H9_32 1_555 1_555
C21_32 O9_32 1_555 1_555
O15_32 C42_32 1_555 1_555
O16_32 C42_32 1_555 1_555
C40_32 C20_32 1_555 1_555
C41_32 C40_32 1_555 1_555
H20_32 C41_32 1_555 1_555
C42_32 C40_32 1_555 1_555
C43_32 C41_32 1_555 1_555
C44_32 C19_32 1_555 1_555
H21_32 C44_32 1_555 1_555
Zn7_31 O15_32 1_555 1_555
Zn14_6 O20_32 1_555 1_555
O19_32 Zn7_31 1_555 1_555
O20_32 C52_32 1_555 1_555
C52_32 O19_32 1_555 1_555
Zn11_32 O6_32 1_555 1_555
Zn19_32 O5_32 1_555 1_555
O35_32 Zn16_3 1_555 1_555
O36_32 Zn14_6 1_555 1_555
O38_32 Zn7_22 1_555 1_555
O39_32 Zn7_31 1_555 1_555
C5_32 C6_32 1_555 1_555
C19_32 C21_32 1_555 1_555
C43_32 C44_32 1_555 1_555
O3_17 C8_33 1_555 1_555
O4_33 C8_33 1_555 1_555
O34_25 C9_33 1_555 1_555
O37_25 C9_33 1_555 1_555
C1_33 C2_33 1_555 1_555
C2_33 H1_33 1_555 1_555
C3_33 C2_33 1_555 1_555
C4_33 C3_33 1_555 1_555
H2_33 C4_33 1_555 1_555
C5_33 C4_33 1_555 1_555
C6_33 C1_33 1_555 1_555
H3_33 C6_33 1_555 1_555
C8_33 C3_33 1_555 1_555
C9_33 C5_33 1_555 1_555
O11_33 C28_33 1_555 1_555
O12_33 C28_33 1_555 1_555
C27_33 C22_33 1_555 1_555
H13_33 C27_33 1_555 1_555
C28_33 C22_33 1_555 1_555
O15_33 C42_33 1_555 1_555
Zn10_25 O15_33 1_555 1_555
Zn18_25 O20_33 1_555 1_555
O19_33 Zn10_25 1_555 1_555
O20_33 C52_33 1_555 1_555
O21_17 C53_33 1_555 1_555
O22_33 C53_33 1_555 1_555
O35_25 C54_33 1_555 1_555
O38_25 C54_33 1_555 1_555
C46_33 C47_33 1_555 1_555
C47_33 H22_33 1_555 1_555
C48_33 C47_33 1_555 1_555
C49_33 C48_33 1_555 1_555
H23_33 C49_33 1_555 1_555
C50_33 C49_33 1_555 1_555
C51_33 C46_33 1_555 1_555
H24_33 C51_33 1_555 1_555
C52_33 O19_33 1_555 1_555
C53_33 C48_33 1_555 1_555
C54_33 C50_33 1_555 1_555
Zn10_10 O12_33 1_555 1_555
Zn18_10 O11_33 1_555 1_555
Zn19_32 O21_17 1_555 1_555
Zn17_29 O3_17 1_555 1_555
O31_17 Zn18_25 1_555 1_555
O40_9 Zn18_25 1_555 1_555
O42_9 Zn10_25 1_555 1_555
C5_33 C6_33 1_555 1_555
C46_33 C52_33 1_555 1_555
C50_33 C51_33 1_555 1_555
Zn9_25 O1_33 1_555 1_555
Zn17_25 O2_33 1_555 1_555
O1_33 C7_33 1_555 1_555
O2_33 C7_33 1_555 1_555
O7_13 Zn17_25 1_555 1_555
O8_13 Zn9_25 1_555 1_555
C10_33 C11_33 1_555 1_555
C11_33 H4_33 1_555 1_555
C12_33 C11_33 1_555 1_555
H5_33 C12_33 1_555 1_555
C13_33 C12_33 1_555 1_555
C14_33 C13_33 1_555 1_555
H6_33 C14_33 1_555 1_555
C15_33 C10_33 1_555 1_555
H7_33 C15_33 1_555 1_555
C16_33 O7_13 1_555 1_555
C17_33 C13_33 1_555 1_555
O9_33 Zn9_25 1_555 1_555
O10_33 C21_33 1_555 1_555
C18_33 C17_33 1_555 1_555
H8_33 C18_33 1_555 1_555
C19_33 C20_33 1_555 1_555
C20_33 H9_33 1_555 1_555
C21_33 O9_33 1_555 1_555
C23_33 H10_33 1_555 1_555
C24_33 C23_33 1_555 1_555
H11_33 C24_33 1_555 1_555
C25_33 C24_33 1_555 1_555
C26_33 C25_33 1_555 1_555
C29_33 C25_33 1_555 1_555
C30_33 C17_33 1_555 1_555
H14_33 C30_33 1_555 1_555
O13_33 C37_33 1_555 1_555
O14_33 C37_33 1_555 1_555
C31_33 C32_33 1_555 1_555
C32_33 H15_33 1_555 1_555
C33_33 C32_33 1_555 1_555
H16_33 C33_33 1_555 1_555
C34_33 C33_33 1_555 1_555
C35_33 C34_33 1_555 1_555
H17_33 C35_33 1_555 1_555
C36_33 C31_33 1_555 1_555
H18_33 C36_33 1_555 1_555
C37_33 C31_33 1_555 1_555
C38_33 C18_33 1_555 1_555
C39_33 C29_33 1_555 1_555
H19_33 C39_33 1_555 1_555
C40_33 C20_33 1_555 1_555
C41_33 C40_33 1_555 1_555
H20_33 C41_33 1_555 1_555
O17_33 C45_33 1_555 1_555
O18_33 C45_33 1_555 1_555
C43_33 C41_33 1_555 1_555
C44_33 C19_33 1_555 1_555
H21_33 C44_33 1_555 1_555
C45_33 C43_33 1_555 1_555
Zn11_25 O17_33 1_555 1_555
Zn19_25 O26_33 1_555 1_555
O25_33 Zn11_25 1_555 1_555
O26_33 C61_33 1_555 1_555
O27_17 C62_33 1_555 1_555
O28_33 C62_33 1_555 1_555
O36_25 C63_33 1_555 1_555
O39_25 C63_33 1_555 1_555
C55_33 C56_33 1_555 1_555
C56_33 H25_33 1_555 1_555
C57_33 C56_33 1_555 1_555
C58_33 C57_33 1_555 1_555
H26_33 C58_33 1_555 1_555
C59_33 C58_33 1_555 1_555
C60_33 C55_33 1_555 1_555
H27_33 C60_33 1_555 1_555
C61_33 O25_33 1_555 1_555
C62_33 C57_33 1_555 1_555
C63_33 C59_33 1_555 1_555
Zn11_19 O14_33 1_555 1_555
Zn18_31 O27_17 1_555 1_555
Zn19_19 O13_33 1_555 1_555
O32_17 Zn19_25 1_555 1_555
O33_17 Zn17_25 1_555 1_555
O41_13 Zn19_25 1_555 1_555
O43_13 Zn11_25 1_555 1_555
O8_13 C16_33 1_555 1_555
C10_33 C16_33 1_555 1_555
C14_33 C15_33 1_555 1_555
C19_33 C21_33 1_555 1_555
C29_33 C30_33 1_555 1_555
C34_33 C38_33 1_555 1_555
C35_33 C36_33 1_555 1_555
C38_33 C39_33 1_555 1_555
C43_33 C44_33 1_555 1_555
C55_33 C61_33 1_555 1_555
C59_33 C60_33 1_555 1_555
Zn9_2 O1_34 1_555 1_555
Zn17_2 O2_34 1_555 1_555
O1_34 C7_34 1_555 1_555
O2_34 C7_34 1_555 1_555
O3_18 C8_34 1_555 1_555
O4_34 C8_34 1_555 1_555
O34_2 C9_34 1_555 1_555
O37_2 C9_34 1_555 1_555
C1_34 C2_34 1_555 1_555
C2_34 H1_34 1_555 1_555
C3_34 C2_34 1_555 1_555
C4_34 C3_34 1_555 1_555
H2_34 C4_34 1_555 1_555
C5_34 C4_34 1_555 1_555
C6_34 C1_34 1_555 1_555
H3_34 C6_34 1_555 1_555
C7_34 C1_34 1_555 1_555
C8_34 C3_34 1_555 1_555
C9_34 C5_34 1_555 1_555
O7_14 Zn17_2 1_555 1_555
O8_14 Zn9_2 1_555 1_555
C10_34 C11_34 1_555 1_555
C11_34 H4_34 1_555 1_555
C12_34 C11_34 1_555 1_555
H5_34 C12_34 1_555 1_555
C13_34 C12_34 1_555 1_555
C14_34 C13_34 1_555 1_555
H6_34 C14_34 1_555 1_555
C15_34 C10_34 1_555 1_555
H7_34 C15_34 1_555 1_555
C16_34 O7_14 1_555 1_555
C17_34 C13_34 1_555 1_555
O9_34 Zn9_2 1_555 1_555
O10_34 C21_34 1_555 1_555
C18_34 C17_34 1_555 1_555
H8_34 C18_34 1_555 1_555
C19_34 C20_34 1_555 1_555
C20_34 H9_34 1_555 1_555
C21_34 O9_34 1_555 1_555
O11_34 C28_34 1_555 1_555
O12_34 C28_34 1_555 1_555
C22_34 C23_34 1_555 1_555
C23_34 H10_34 1_555 1_555
C24_34 C23_34 1_555 1_555
H11_34 C24_34 1_555 1_555
C25_34 C24_34 1_555 1_555
C26_34 C25_34 1_555 1_555
H12_34 C26_34 1_555 1_555
C27_34 C22_34 1_555 1_555
H13_34 C27_34 1_555 1_555
C28_34 C22_34 1_555 1_555
C29_34 C25_34 1_555 1_555
C30_34 C17_34 1_555 1_555
H14_34 C30_34 1_555 1_555
O13_34 C37_34 1_555 1_555
O14_34 C37_34 1_555 1_555
C31_34 C32_34 1_555 1_555
C32_34 H15_34 1_555 1_555
C33_34 C32_34 1_555 1_555
H16_34 C33_34 1_555 1_555
C34_34 C33_34 1_555 1_555
C35_34 C34_34 1_555 1_555
H17_34 C35_34 1_555 1_555
C36_34 C31_34 1_555 1_555
H18_34 C36_34 1_555 1_555
C37_34 C31_34 1_555 1_555
C38_34 C18_34 1_555 1_555
C39_34 C29_34 1_555 1_555
H19_34 C39_34 1_555 1_555
O15_34 C42_34 1_555 1_555
O16_34 C42_34 1_555 1_555
C40_34 C20_34 1_555 1_555
C41_34 C40_34 1_555 1_555
H20_34 C41_34 1_555 1_555
C42_34 C40_34 1_555 1_555
O17_34 C45_34 1_555 1_555
O18_34 C45_34 1_555 1_555
C43_34 C41_34 1_555 1_555
C44_34 C19_34 1_555 1_555
H21_34 C44_34 1_555 1_555
C45_34 C43_34 1_555 1_555
Zn10_2 O15_34 1_555 1_555
Zn18_2 O20_34 1_555 1_555
O19_34 Zn10_2 1_555 1_555
O20_34 C52_34 1_555 1_555
O21_18 C53_34 1_555 1_555
O22_34 C53_34 1_555 1_555
O35_2 C54_34 1_555 1_555
O38_2 C54_34 1_555 1_555
C46_34 C47_34 1_555 1_555
C47_34 H22_34 1_555 1_555
C48_34 C47_34 1_555 1_555
C49_34 C48_34 1_555 1_555
H23_34 C49_34 1_555 1_555
C50_34 C49_34 1_555 1_555
C51_34 C46_34 1_555 1_555
H24_34 C51_34 1_555 1_555
C52_34 O19_34 1_555 1_555
C53_34 C48_34 1_555 1_555
C54_34 C50_34 1_555 1_555
Zn11_2 O17_34 1_555 1_555
Zn19_2 O26_34 1_555 1_555
O25_34 Zn11_2 1_555 1_555
O26_34 C61_34 1_555 1_555
O27_18 C62_34 1_555 1_555
O28_34 C62_34 1_555 1_555
O36_2 C63_34 1_555 1_555
O39_2 C63_34 1_555 1_555
C55_34 C56_34 1_555 1_555
C56_34 H25_34 1_555 1_555
C57_34 C56_34 1_555 1_555
C58_34 C57_34 1_555 1_555
H26_34 C58_34 1_555 1_555
C59_34 C58_34 1_555 1_555
C60_34 C55_34 1_555 1_555
H27_34 C60_34 1_555 1_555
C61_34 O25_34 1_555 1_555
C62_34 C57_34 1_555 1_555
C63_34 C59_34 1_555 1_555
Zn10_17 O12_34 1_555 1_555
Zn11_12 O14_34 1_555 1_555
Zn18_17 O11_34 1_555 1_555
Zn19_7 O21_18 1_555 1_555
Zn18_8 O27_18 1_555 1_555
Zn19_12 O13_34 1_555 1_555
Zn17_6 O3_18 1_555 1_555
O31_18 Zn18_2 1_555 1_555
O32_18 Zn19_2 1_555 1_555
O33_18 Zn17_2 1_555 1_555
O40_10 Zn18_2 1_555 1_555
O41_14 Zn19_2 1_555 1_555
O42_10 Zn10_2 1_555 1_555
O43_14 Zn11_2 1_555 1_555
C5_34 C6_34 1_555 1_555
O8_14 C16_34 1_555 1_555
C10_34 C16_34 1_555 1_555
C14_34 C15_34 1_555 1_555
C19_34 C21_34 1_555 1_555
C26_34 C27_34 1_555 1_555
C29_34 C30_34 1_555 1_555
C34_34 C38_34 1_555 1_555
C35_34 C36_34 1_555 1_555
C38_34 C39_34 1_555 1_555
C43_34 C44_34 1_555 1_555
C46_34 C52_34 1_555 1_555
C50_34 C51_34 1_555 1_555
C55_34 C61_34 1_555 1_555
C59_34 C60_34 1_555 1_555
O17_35 C45_35 1_555 1_555
O21_19 C53_35 1_555 1_555
O22_35 C53_35 1_555 1_555
O35_11 C54_35 1_555 1_555
O38_11 C54_35 1_555 1_555
C46_35 C47_35 1_555 1_555
C47_35 H22_35 1_555 1_555
C48_35 C47_35 1_555 1_555
C49_35 C48_35 1_555 1_555
H23_35 C49_35 1_555 1_555
C50_35 C49_35 1_555 1_555
C51_35 C46_35 1_555 1_555
H24_35 C51_35 1_555 1_555
C53_35 C48_35 1_555 1_555
C54_35 C50_35 1_555 1_555
Zn11_11 O17_35 1_555 1_555
Zn19_11 O26_35 1_555 1_555
O25_35 Zn11_11 1_555 1_555
O26_35 C61_35 1_555 1_555
O27_19 C62_35 1_555 1_555
O28_35 C62_35 1_555 1_555
O36_11 C63_35 1_555 1_555
O39_11 C63_35 1_555 1_555
C55_35 C56_35 1_555 1_555
C56_35 H25_35 1_555 1_555
C57_35 C56_35 1_555 1_555
C58_35 C57_35 1_555 1_555
H26_35 C58_35 1_555 1_555
C59_35 C58_35 1_555 1_555
C60_35 C55_35 1_555 1_555
H27_35 C60_35 1_555 1_555
C61_35 O25_35 1_555 1_555
C62_35 C57_35 1_555 1_555
C63_35 C59_35 1_555 1_555
Zn19_13 O21_19 1_555 1_555
Zn18_14 O27_19 1_555 1_555
O32_19 Zn19_11 1_555 1_555
O41_15 Zn19_11 1_555 1_555
O43_15 Zn11_11 1_555 1_555
C50_35 C51_35 1_555 1_555
C55_35 C61_35 1_555 1_555
C59_35 C60_35 1_555 1_555
Zn9_11 O1_35 1_555 1_555
Zn17_11 O2_35 1_555 1_555
O1_35 C7_35 1_555 1_555
O2_35 C7_35 1_555 1_555
O3_19 C8_35 1_555 1_555
O4_35 C8_35 1_555 1_555
O34_11 C9_35 1_555 1_555
O37_11 C9_35 1_555 1_555
C1_35 C2_35 1_555 1_555
C2_35 H1_35 1_555 1_555
C3_35 C2_35 1_555 1_555
C4_35 C3_35 1_555 1_555
H2_35 C4_35 1_555 1_555
C5_35 C4_35 1_555 1_555
C6_35 C1_35 1_555 1_555
H3_35 C6_35 1_555 1_555
C7_35 C1_35 1_555 1_555
C8_35 C3_35 1_555 1_555
C9_35 C5_35 1_555 1_555
O7_15 Zn17_11 1_555 1_555
O8_15 Zn9_11 1_555 1_555
C10_35 C11_35 1_555 1_555
C11_35 H4_35 1_555 1_555
C12_35 C11_35 1_555 1_555
H5_35 C12_35 1_555 1_555
C13_35 C12_35 1_555 1_555
C14_35 C13_35 1_555 1_555
H6_35 C14_35 1_555 1_555
C15_35 C10_35 1_555 1_555
H7_35 C15_35 1_555 1_555
C16_35 O7_15 1_555 1_555
C17_35 C13_35 1_555 1_555
O9_35 Zn9_11 1_555 1_555
O10_35 C21_35 1_555 1_555
C18_35 C17_35 1_555 1_555
H8_35 C18_35 1_555 1_555
C19_35 C20_35 1_555 1_555
C20_35 H9_35 1_555 1_555
C21_35 O9_35 1_555 1_555
O11_35 C28_35 1_555 1_555
O12_35 C28_35 1_555 1_555
C22_35 C23_35 1_555 1_555
C23_35 H10_35 1_555 1_555
C24_35 C23_35 1_555 1_555
H11_35 C24_35 1_555 1_555
C25_35 C24_35 1_555 1_555
C26_35 C25_35 1_555 1_555
H12_35 C26_35 1_555 1_555
C27_35 C22_35 1_555 1_555
H13_35 C27_35 1_555 1_555
C28_35 C22_35 1_555 1_555
C29_35 C25_35 1_555 1_555
C30_35 C17_35 1_555 1_555
H14_35 C30_35 1_555 1_555
O13_35 C37_35 1_555 1_555
O14_35 C37_35 1_555 1_555
C31_35 C32_35 1_555 1_555
C32_35 H15_35 1_555 1_555
C33_35 C32_35 1_555 1_555
H16_35 C33_35 1_555 1_555
C34_35 C33_35 1_555 1_555
C35_35 C34_35 1_555 1_555
H17_35 C35_35 1_555 1_555
C36_35 C31_35 1_555 1_555
H18_35 C36_35 1_555 1_555
C37_35 C31_35 1_555 1_555
C38_35 C18_35 1_555 1_555
C39_35 C29_35 1_555 1_555
H19_35 C39_35 1_555 1_555
O15_35 C42_35 1_555 1_555
O16_35 C42_35 1_555 1_555
C40_35 C20_35 1_555 1_555
C41_35 C40_35 1_555 1_555
H20_35 C41_35 1_555 1_555
C42_35 C40_35 1_555 1_555
C43_35 C41_35 1_555 1_555
C44_35 C19_35 1_555 1_555
H21_35 C44_35 1_555 1_555
Zn10_11 O15_35 1_555 1_555
Zn18_11 O20_35 1_555 1_555
O19_35 Zn10_11 1_555 1_555
O20_35 C52_35 1_555 1_555
C52_35 O19_35 1_555 1_555
Zn10_28 O12_35 1_555 1_555
Zn11 O14_35 1_555 1_555
Zn18_28 O11_35 1_555 1_555
Zn19 O13_35 1_555 1_555
Zn17_16 O3_19 1_555 1_555
O31_19 Zn18_11 1_555 1_555
O33_19 Zn17_11 1_555 1_555
O40_11 Zn18_11 1_555 1_555
O42_11 Zn10_11 1_555 1_555
C5_35 C6_35 1_555 1_555
O8_15 C16_35 1_555 1_555
C10_35 C16_35 1_555 1_555
C14_35 C15_35 1_555 1_555
C19_35 C21_35 1_555 1_555
C26_35 C27_35 1_555 1_555
C29_35 C30_35 1_555 1_555
C34_35 C38_35 1_555 1_555
C35_35 C36_35 1_555 1_555
C38_35 C39_35 1_555 1_555
C43_35 C44_35 1_555 1_555
O13_36 C37_36 1_555 1_555
O14_36 C37_36 1_555 1_555
C36_36 C31_36 1_555 1_555
H18_36 C36_36 1_555 1_555
C37_36 C31_36 1_555 1_555
Zn11_26 O14_36 1_555 1_555
Zn19_26 O13_36 1_555 1_555
Zn9_20 O1_36 1_555 1_555
Zn17_20 O2_36 1_555 1_555
O1_36 C7_36 1_555 1_555
O2_36 C7_36 1_555 1_555
O3_20 C8_36 1_555 1_555
O4_36 C8_36 1_555 1_555
O34_20 C9_36 1_555 1_555
O37_20 C9_36 1_555 1_555
C1_36 C2_36 1_555 1_555
C2_36 H1_36 1_555 1_555
C3_36 C2_36 1_555 1_555
C4_36 C3_36 1_555 1_555
H2_36 C4_36 1_555 1_555
C5_36 C4_36 1_555 1_555
C6_36 C1_36 1_555 1_555
H3_36 C6_36 1_555 1_555
C7_36 C1_36 1_555 1_555
C8_36 C3_36 1_555 1_555
C9_36 C5_36 1_555 1_555
O7_16 Zn17_20 1_555 1_555
O8_16 Zn9_20 1_555 1_555
C15_36 C10_36 1_555 1_555
H7_36 C15_36 1_555 1_555
C16_36 O7_16 1_555 1_555
O9_36 Zn9_20 1_555 1_555
C21_36 O9_36 1_555 1_555
O27_20 C62_36 1_555 1_555
O28_36 C62_36 1_555 1_555
O36_20 C63_36 1_555 1_555
O39_20 C63_36 1_555 1_555
C55_36 C56_36 1_555 1_555
C56_36 H25_36 1_555 1_555
C57_36 C56_36 1_555 1_555
C58_36 C57_36 1_555 1_555
H26_36 C58_36 1_555 1_555
C59_36 C58_36 1_555 1_555
C60_36 C55_36 1_555 1_555
H27_36 C60_36 1_555 1_555
C62_36 C57_36 1_555 1_555
C63_36 C59_36 1_555 1_555
Zn18_21 O27_20 1_555 1_555
Zn17_23 O3_20 1_555 1_555
O33_20 Zn17_20 1_555 1_555
C5_36 C6_36 1_555 1_555
O8_16 C16_36 1_555 1_555
C10_36 C16_36 1_555 1_555
C59_36 C60_36 1_555 1_555
C11_36 H4_36 1_555 1_555
C12_36 C11_36 1_555 1_555
H5_36 C12_36 1_555 1_555
C13_36 C12_36 1_555 1_555
C14_36 C13_36 1_555 1_555
C17_36 C13_36 1_555 1_555
C18_36 C17_36 1_555 1_555
H8_36 C18_36 1_555 1_555
C19_36 C20_36 1_555 1_555
C20_36 H9_36 1_555 1_555
O11_36 C28_36 1_555 1_555
O12_36 C28_36 1_555 1_555
C22_36 C23_36 1_555 1_555
C23_36 H10_36 1_555 1_555
C24_36 C23_36 1_555 1_555
H11_36 C24_36 1_555 1_555
C25_36 C24_36 1_555 1_555
C26_36 C25_36 1_555 1_555
H12_36 C26_36 1_555 1_555
C27_36 C22_36 1_555 1_555
H13_36 C27_36 1_555 1_555
C28_36 C22_36 1_555 1_555
C29_36 C25_36 1_555 1_555
C30_36 C17_36 1_555 1_555
H14_36 C30_36 1_555 1_555
C32_36 H15_36 1_555 1_555
C33_36 C32_36 1_555 1_555
H16_36 C33_36 1_555 1_555
C34_36 C33_36 1_555 1_555
C35_36 C34_36 1_555 1_555
C38_36 C18_36 1_555 1_555
C39_36 C29_36 1_555 1_555
H19_36 C39_36 1_555 1_555
O15_36 C42_36 1_555 1_555
O16_36 C42_36 1_555 1_555
C40_36 C20_36 1_555 1_555
C41_36 C40_36 1_555 1_555
H20_36 C41_36 1_555 1_555
C42_36 C40_36 1_555 1_555
O17_36 C45_36 1_555 1_555
O18_36 C45_36 1_555 1_555
C43_36 C41_36 1_555 1_555
C44_36 C19_36 1_555 1_555
H21_36 C44_36 1_555 1_555
C45_36 C43_36 1_555 1_555
Zn10_20 O15_36 1_555 1_555
Zn18_20 O20_36 1_555 1_555
O19_36 Zn10_20 1_555 1_555
O20_36 C52_36 1_555 1_555
O21_20 C53_36 1_555 1_555
O22_36 C53_36 1_555 1_555
O35_20 C54_36 1_555 1_555
O38_20 C54_36 1_555 1_555
C46_36 C47_36 1_555 1_555
C47_36 H22_36 1_555 1_555
C48_36 C47_36 1_555 1_555
C49_36 C48_36 1_555 1_555
H23_36 C49_36 1_555 1_555
C50_36 C49_36 1_555 1_555
C51_36 C46_36 1_555 1_555
H24_36 C51_36 1_555 1_555
C52_36 O19_36 1_555 1_555
C53_36 C48_36 1_555 1_555
C54_36 C50_36 1_555 1_555
Zn11_20 O17_36 1_555 1_555
Zn19_20 O26_36 1_555 1_555
O25_36 Zn11_20 1_555 1_555
O26_36 C61_36 1_555 1_555
C61_36 O25_36 1_555 1_555
Zn10_3 O12_36 1_555 1_555
Zn18_3 O11_36 1_555 1_555
Zn19_22 O21_20 1_555 1_555
O31_20 Zn18_20 1_555 1_555
O32_20 Zn19_20 1_555 1_555
O40_12 Zn18_20 1_555 1_555
O41_16 Zn19_20 1_555 1_555
O42_12 Zn10_20 1_555 1_555
O43_16 Zn11_20 1_555 1_555
C26_36 C27_36 1_555 1_555
C29_36 C30_36 1_555 1_555
C34_36 C38_36 1_555 1_555
C38_36 C39_36 1_555 1_555
C43_36 C44_36 1_555 1_555
C46_36 C52_36 1_555 1_555
C50_36 C51_36 1_555 1_555
O11_37 C28_37 1_555 1_555
O12_37 C28_37 1_555 1_555
C27_37 C22_37 1_555 1_555
H13_37 C27_37 1_555 1_555
C28_37 C22_37 1_555 1_555
Zn11_18 O12_37 1_555 1_555
Zn19_18 O11_37 1_555 1_555
C10_37 C11_37 1_555 1_555
C11_37 H4_37 1_555 1_555
C12_37 C11_37 1_555 1_555
H5_37 C12_37 1_555 1_555
C13_37 C12_37 1_555 1_555
C14_37 C13_37 1_555 1_555
H6_37 C14_37 1_555 1_555
C15_37 C10_37 1_555 1_555
H7_37 C15_37 1_555 1_555
C16_37 O40_11 1_555 1_555
C17_37 C13_37 1_555 1_555
C18_37 C17_37 1_555 1_555
H8_37 C18_37 1_555 1_555
C23_37 H10_37 1_555 1_555
C24_37 C23_37 1_555 1_555
H11_37 C24_37 1_555 1_555
C25_37 C24_37 1_555 1_555
C26_37 C25_37 1_555 1_555
C29_37 C25_37 1_555 1_555
C30_37 C17_37 1_555 1_555
H14_37 C30_37 1_555 1_555
O13_37 C37_37 1_555 1_555
O14_37 C37_37 1_555 1_555
C31_37 C32_37 1_555 1_555
C32_37 H15_37 1_555 1_555
C33_37 C32_37 1_555 1_555
H16_37 C33_37 1_555 1_555
C34_37 C33_37 1_555 1_555
C35_37 C34_37 1_555 1_555
H17_37 C35_37 1_555 1_555
C36_37 C31_37 1_555 1_555
H18_37 C36_37 1_555 1_555
C37_37 C31_37 1_555 1_555
C38_37 C18_37 1_555 1_555
C39_37 C29_37 1_555 1_555
H19_37 C39_37 1_555 1_555
Zn9_28 O14_37 1_555 1_555
Zn17_28 O13_37 1_555 1_555
O42_11 C16_37 1_555 1_555
C10_37 C16_37 1_555 1_555
C14_37 C15_37 1_555 1_555
C29_37 C30_37 1_555 1_555
C34_37 C38_37 1_555 1_555
C35_37 C36_37 1_555 1_555
C38_37 C39_37 1_555 1_555
C10_38 C11_38 1_555 1_555
C11_38 H4_38 1_555 1_555
C12_38 C11_38 1_555 1_555
H5_38 C12_38 1_555 1_555
C13_38 C12_38 1_555 1_555
C14_38 C13_38 1_555 1_555
H6_38 C14_38 1_555 1_555
C15_38 C10_38 1_555 1_555
H7_38 C15_38 1_555 1_555
C16_38 O40_10 1_555 1_555
C17_38 C13_38 1_555 1_555
C18_38 C17_38 1_555 1_555
H8_38 C18_38 1_555 1_555
O11_38 C28_38 1_555 1_555
O12_38 C28_38 1_555 1_555
C22_38 C23_38 1_555 1_555
C23_38 H10_38 1_555 1_555
C24_38 C23_38 1_555 1_555
H11_38 C24_38 1_555 1_555
C25_38 C24_38 1_555 1_555
C26_38 C25_38 1_555 1_555
H12_38 C26_38 1_555 1_555
C27_38 C22_38 1_555 1_555
H13_38 C27_38 1_555 1_555
C28_38 C22_38 1_555 1_555
C29_38 C25_38 1_555 1_555
C30_38 C17_38 1_555 1_555
H14_38 C30_38 1_555 1_555
O13_38 C37_38 1_555 1_555
O14_38 C37_38 1_555 1_555
C31_38 C32_38 1_555 1_555
C32_38 H15_38 1_555 1_555
C33_38 C32_38 1_555 1_555
H16_38 C33_38 1_555 1_555
C34_38 C33_38 1_555 1_555
C35_38 C34_38 1_555 1_555
H17_38 C35_38 1_555 1_555
C36_38 C31_38 1_555 1_555
H18_38 C36_38 1_555 1_555
C37_38 C31_38 1_555 1_555
C38_38 C18_38 1_555 1_555
C39_38 C29_38 1_555 1_555
H19_38 C39_38 1_555 1_555
Zn11_27 O12_38 1_555 1_555
Zn9_17 O14_38 1_555 1_555
Zn19_27 O11_38 1_555 1_555
Zn17_17 O13_38 1_555 1_555
O42_10 C16_38 1_555 1_555
C10_38 C16_38 1_555 1_555
C14_38 C15_38 1_555 1_555
C26_38 C27_38 1_555 1_555
C29_38 C30_38 1_555 1_555
C34_38 C38_38 1_555 1_555
C35_38 C36_38 1_555 1_555
C38_38 C39_38 1_555 1_555
C10_39 C11_39 1_555 1_555
C11_39 H4_39 1_555 1_555
C12_39 C11_39 1_555 1_555
H5_39 C12_39 1_555 1_555
C13_39 C12_39 1_555 1_555
C14_39 C13_39 1_555 1_555
H6_39 C14_39 1_555 1_555
C15_39 C10_39 1_555 1_555
H7_39 C15_39 1_555 1_555
C16_39 O40_12 1_555 1_555
C17_39 C13_39 1_555 1_555
C18_39 C17_39 1_555 1_555
H8_39 C18_39 1_555 1_555
O11_39 C28_39 1_555 1_555
O12_39 C28_39 1_555 1_555
C22_39 C23_39 1_555 1_555
C23_39 H10_39 1_555 1_555
C24_39 C23_39 1_555 1_555
H11_39 C24_39 1_555 1_555
C25_39 C24_39 1_555 1_555
C26_39 C25_39 1_555 1_555
H12_39 C26_39 1_555 1_555
C27_39 C22_39 1_555 1_555
H13_39 C27_39 1_555 1_555
C28_39 C22_39 1_555 1_555
C29_39 C25_39 1_555 1_555
C30_39 C17_39 1_555 1_555
H14_39 C30_39 1_555 1_555
O13_39 C37_39 1_555 1_555
O14_39 C37_39 1_555 1_555
C31_39 C32_39 1_555 1_555
C32_39 H15_39 1_555 1_555
C33_39 C32_39 1_555 1_555
H16_39 C33_39 1_555 1_555
C34_39 C33_39 1_555 1_555
C35_39 C34_39 1_555 1_555
H17_39 C35_39 1_555 1_555
C36_39 C31_39 1_555 1_555
H18_39 C36_39 1_555 1_555
C37_39 C31_39 1_555 1_555
C38_39 C18_39 1_555 1_555
C39_39 C29_39 1_555 1_555
H19_39 C39_39 1_555 1_555
Zn11_9 O12_39 1_555 1_555
Zn9_3 O14_39 1_555 1_555
Zn19_9 O11_39 1_555 1_555
Zn17_3 O13_39 1_555 1_555
O42_12 C16_39 1_555 1_555
C10_39 C16_39 1_555 1_555
C14_39 C15_39 1_555 1_555
C26_39 C27_39 1_555 1_555
C29_39 C30_39 1_555 1_555
C34_39 C38_39 1_555 1_555
C35_39 C36_39 1_555 1_555
C38_39 C39_39 1_555 1_555
O13_40 C37_40 1_555 1_555
O14_40 C37_40 1_555 1_555
C36_40 C31_40 1_555 1_555
H18_40 C36_40 1_555 1_555
C37_40 C31_40 1_555 1_555
Zn9_10 O14_40 1_555 1_555
Zn17_10 O13_40 1_555 1_555
C15_40 C10_40 1_555 1_555
H7_40 C15_40 1_555 1_555
C16_40 O40_9 1_555 1_555
O42_9 C16_40 1_555 1_555
C10_40 C16_40 1_555 1_555
C11_40 H4_40 1_555 1_555
C12_40 C11_40 1_555 1_555
H5_40 C12_40 1_555 1_555
C13_40 C12_40 1_555 1_555
C14_40 C13_40 1_555 1_555
C17_40 C13_40 1_555 1_555
C18_40 C17_40 1_555 1_555
H8_40 C18_40 1_555 1_555
O11_40 C28_40 1_555 1_555
O12_40 C28_40 1_555 1_555
C22_40 C23_40 1_555 1_555
C23_40 H10_40 1_555 1_555
C24_40 C23_40 1_555 1_555
H11_40 C24_40 1_555 1_555
C25_40 C24_40 1_555 1_555
C26_40 C25_40 1_555 1_555
H12_40 C26_40 1_555 1_555
C27_40 C22_40 1_555 1_555
H13_40 C27_40 1_555 1_555
C28_40 C22_40 1_555 1_555
C29_40 C25_40 1_555 1_555
C30_40 C17_40 1_555 1_555
H14_40 C30_40 1_555 1_555
C32_40 H15_40 1_555 1_555
C33_40 C32_40 1_555 1_555
H16_40 C33_40 1_555 1_555
C34_40 C33_40 1_555 1_555
C35_40 C34_40 1_555 1_555
C38_40 C18_40 1_555 1_555
C39_40 C29_40 1_555 1_555
H19_40 C39_40 1_555 1_555
Zn11_4 O12_40 1_555 1_555
Zn19_4 O11_40 1_555 1_555
C26_40 C27_40 1_555 1_555
C29_40 C30_40 1_555 1_555
C34_40 C38_40 1_555 1_555
C38_40 C39_40 1_555 1_555
O11_41 C28_41 1_555 1_555
O12_41 C28_41 1_555 1_555
C27_41 C22_41 1_555 1_555
H13_41 C27_41 1_555 1_555
C28_41 C22_41 1_555 1_555
Zn9_26 O12_41 1_555 1_555
Zn17_26 O11_41 1_555 1_555
C10_41 C11_41 1_555 1_555
C11_41 H4_41 1_555 1_555
C12_41 C11_41 1_555 1_555
H5_41 C12_41 1_555 1_555
C13_41 C12_41 1_555 1_555
C14_41 C13_41 1_555 1_555
H6_41 C14_41 1_555 1_555
C15_41 C10_41 1_555 1_555
H7_41 C15_41 1_555 1_555
C16_41 O41_16 1_555 1_555
C17_41 C13_41 1_555 1_555
C18_41 C17_41 1_555 1_555
H8_41 C18_41 1_555 1_555
C23_41 H10_41 1_555 1_555
C24_41 C23_41 1_555 1_555
H11_41 C24_41 1_555 1_555
C25_41 C24_41 1_555 1_555
C26_41 C25_41 1_555 1_555
C29_41 C25_41 1_555 1_555
C30_41 C17_41 1_555 1_555
H14_41 C30_41 1_555 1_555
O13_41 C37_41 1_555 1_555
O14_41 C37_41 1_555 1_555
C31_41 C32_41 1_555 1_555
C32_41 H15_41 1_555 1_555
C33_41 C32_41 1_555 1_555
H16_41 C33_41 1_555 1_555
C34_41 C33_41 1_555 1_555
C35_41 C34_41 1_555 1_555
H17_41 C35_41 1_555 1_555
C36_41 C31_41 1_555 1_555
H18_41 C36_41 1_555 1_555
C37_41 C31_41 1_555 1_555
C38_41 C18_41 1_555 1_555
C39_41 C29_41 1_555 1_555
H19_41 C39_41 1_555 1_555
Zn10_9 O14_41 1_555 1_555
Zn18_9 O13_41 1_555 1_555
O43_16 C16_41 1_555 1_555
C10_41 C16_41 1_555 1_555
C14_41 C15_41 1_555 1_555
C29_41 C30_41 1_555 1_555
C34_41 C38_41 1_555 1_555
C35_41 C36_41 1_555 1_555
C38_41 C39_41 1_555 1_555
C10_42 C11_42 1_555 1_555
C11_42 H4_42 1_555 1_555
C12_42 C11_42 1_555 1_555
H5_42 C12_42 1_555 1_555
C13_42 C12_42 1_555 1_555
C14_42 C13_42 1_555 1_555
H6_42 C14_42 1_555 1_555
C15_42 C10_42 1_555 1_555
H7_42 C15_42 1_555 1_555
C16_42 O41_14 1_555 1_555
C17_42 C13_42 1_555 1_555
C18_42 C17_42 1_555 1_555
H8_42 C18_42 1_555 1_555
O11_42 C28_42 1_555 1_555
O12_42 C28_42 1_555 1_555
C22_42 C23_42 1_555 1_555
C23_42 H10_42 1_555 1_555
C24_42 C23_42 1_555 1_555
H11_42 C24_42 1_555 1_555
C25_42 C24_42 1_555 1_555
C26_42 C25_42 1_555 1_555
H12_42 C26_42 1_555 1_555
C27_42 C22_42 1_555 1_555
H13_42 C27_42 1_555 1_555
C28_42 C22_42 1_555 1_555
C29_42 C25_42 1_555 1_555
C30_42 C17_42 1_555 1_555
H14_42 C30_42 1_555 1_555
O13_42 C37_42 1_555 1_555
O14_42 C37_42 1_555 1_555
C31_42 C32_42 1_555 1_555
C32_42 H15_42 1_555 1_555
C33_42 C32_42 1_555 1_555
H16_42 C33_42 1_555 1_555
C34_42 C33_42 1_555 1_555
C35_42 C34_42 1_555 1_555
H17_42 C35_42 1_555 1_555
C36_42 C31_42 1_555 1_555
H18_42 C36_42 1_555 1_555
C37_42 C31_42 1_555 1_555
C38_42 C18_42 1_555 1_555
C39_42 C29_42 1_555 1_555
H19_42 C39_42 1_555 1_555
Zn9_12 O12_42 1_555 1_555
Zn10_27 O14_42 1_555 1_555
Zn17_12 O11_42 1_555 1_555
Zn18_27 O13_42 1_555 1_555
O43_14 C16_42 1_555 1_555
C10_42 C16_42 1_555 1_555
C14_42 C15_42 1_555 1_555
C26_42 C27_42 1_555 1_555
C29_42 C30_42 1_555 1_555
C34_42 C38_42 1_555 1_555
C35_42 C36_42 1_555 1_555
C38_42 C39_42 1_555 1_555
C10_43 C11_43 1_555 1_555
C11_43 H4_43 1_555 1_555
C12_43 C11_43 1_555 1_555
H5_43 C12_43 1_555 1_555
C13_43 C12_43 1_555 1_555
C14_43 C13_43 1_555 1_555
H6_43 C14_43 1_555 1_555
C15_43 C10_43 1_555 1_555
H7_43 C15_43 1_555 1_555
C16_43 O41_13 1_555 1_555
C17_43 C13_43 1_555 1_555
C18_43 C17_43 1_555 1_555
H8_43 C18_43 1_555 1_555
O11_43 C28_43 1_555 1_555
O12_43 C28_43 1_555 1_555
C22_43 C23_43 1_555 1_555
C23_43 H10_43 1_555 1_555
C24_43 C23_43 1_555 1_555
H11_43 C24_43 1_555 1_555
C25_43 C24_43 1_555 1_555
C26_43 C25_43 1_555 1_555
H12_43 C26_43 1_555 1_555
C27_43 C22_43 1_555 1_555
H13_43 C27_43 1_555 1_555
C28_43 C22_43 1_555 1_555
C29_43 C25_43 1_555 1_555
C30_43 C17_43 1_555 1_555
H14_43 C30_43 1_555 1_555
O13_43 C37_43 1_555 1_555
O14_43 C37_43 1_555 1_555
C31_43 C32_43 1_555 1_555
C32_43 H15_43 1_555 1_555
C33_43 C32_43 1_555 1_555
H16_43 C33_43 1_555 1_555
C34_43 C33_43 1_555 1_555
C35_43 C34_43 1_555 1_555
H17_43 C35_43 1_555 1_555
C36_43 C31_43 1_555 1_555
H18_43 C36_43 1_555 1_555
C37_43 C31_43 1_555 1_555
C38_43 C18_43 1_555 1_555
C39_43 C29_43 1_555 1_555
H19_43 C39_43 1_555 1_555
Zn9_19 O12_43 1_555 1_555
Zn10_4 O14_43 1_555 1_555
Zn17_19 O11_43 1_555 1_555
Zn18_4 O13_43 1_555 1_555
O43_13 C16_43 1_555 1_555
C10_43 C16_43 1_555 1_555
C14_43 C15_43 1_555 1_555
C26_43 C27_43 1_555 1_555
C29_43 C30_43 1_555 1_555
C34_43 C38_43 1_555 1_555
C35_43 C36_43 1_555 1_555
C38_43 C39_43 1_555 1_555
C15_44 C10_44 1_555 1_555
H7_44 C15_44 1_555 1_555
C16_44 O41_15 1_555 1_555
O43_15 C16_44 1_555 1_555
C10_44 C16_44 1_555 1_555
O13_44 C37_44 1_555 1_555
O14_44 C37_44 1_555 1_555
C36_44 C31_44 1_555 1_555
H18_44 C36_44 1_555 1_555
C37_44 C31_44 1_555 1_555
Zn10_18 O14_44 1_555 1_555
Zn18_18 O13_44 1_555 1_555
C11_44 H4_44 1_555 1_555
C12_44 C11_44 1_555 1_555
H5_44 C12_44 1_555 1_555
C13_44 C12_44 1_555 1_555
C14_44 C13_44 1_555 1_555
C17_44 C13_44 1_555 1_555
C18_44 C17_44 1_555 1_555
H8_44 C18_44 1_555 1_555
O11_44 C28_44 1_555 1_555
O12_44 C28_44 1_555 1_555
C22_44 C23_44 1_555 1_555
C23_44 H10_44 1_555 1_555
C24_44 C23_44 1_555 1_555
H11_44 C24_44 1_555 1_555
C25_44 C24_44 1_555 1_555
C26_44 C25_44 1_555 1_555
H12_44 C26_44 1_555 1_555
C27_44 C22_44 1_555 1_555
H13_44 C27_44 1_555 1_555
C28_44 C22_44 1_555 1_555
C29_44 C25_44 1_555 1_555
C30_44 C17_44 1_555 1_555
H14_44 C30_44 1_555 1_555
C32_44 H15_44 1_555 1_555
C33_44 C32_44 1_555 1_555
H16_44 C33_44 1_555 1_555
C34_44 C33_44 1_555 1_555
C35_44 C34_44 1_555 1_555
C38_44 C18_44 1_555 1_555
C39_44 C29_44 1_555 1_555
H19_44 C39_44 1_555 1_555
Zn9 O12_44 1_555 1_555
Zn17 O11_44 1_555 1_555
C26_44 C27_44 1_555 1_555
C29_44 C30_44 1_555 1_555
C34_44 C38_44 1_555 1_555
C38_44 C39_44 1_555 1_555
C11_45 H4_45 1_555 1_555
C12_45 C11_45 1_555 1_555
H5_45 C12_45 1_555 1_555
C13_45 C12_45 1_555 1_555
C14_45 C13_45 1_555 1_555
C17_45 C13_45 1_555 1_555
C18_45 C17_45 1_555 1_555
H8_45 C18_45 1_555 1_555
C19_37 C20_37 1_555 1_555
C20_37 H9_37 1_555 1_555
C23_45 H10_45 1_555 1_555
C24_45 C23_45 1_555 1_555
H11_45 C24_45 1_555 1_555
C25_45 C24_45 1_555 1_555
C26_45 C25_45 1_555 1_555
C29_45 C25_45 1_555 1_555
C30_45 C17_45 1_555 1_555
H14_45 C30_45 1_555 1_555
O13_45 C37_45 1_555 1_555
O14_45 C37_45 1_555 1_555
C31_45 C32_45 1_555 1_555
C32_45 H15_45 1_555 1_555
C33_45 C32_45 1_555 1_555
H16_45 C33_45 1_555 1_555
C34_45 C33_45 1_555 1_555
C35_45 C34_45 1_555 1_555
H17_45 C35_45 1_555 1_555
C36_45 C31_45 1_555 1_555
H18_45 C36_45 1_555 1_555
C37_45 C31_45 1_555 1_555
C38_45 C18_45 1_555 1_555
C39_45 C29_45 1_555 1_555
H19_45 C39_45 1_555 1_555
C40_37 C20_37 1_555 1_555
C41_37 C40_37 1_555 1_555
H20_37 C41_37 1_555 1_555
C43_37 C41_37 1_555 1_555
C44_37 C19_37 1_555 1_555
H21_37 C44_37 1_555 1_555
Zn11_23 O14_45 1_555 1_555
Zn19_23 O13_45 1_555 1_555
C29_45 C30_45 1_555 1_555
C34_45 C38_45 1_555 1_555
C35_45 C36_45 1_555 1_555
C38_45 C39_45 1_555 1_555
C43_37 C44_37 1_555 1_555
O11_45 C28_45 1_555 1_555
O12_45 C28_45 1_555 1_555
C27_45 C22_45 1_555 1_555
H13_45 C27_45 1_555 1_555
C28_45 C22_45 1_555 1_555
O15_37 C42_37 1_555 1_555
Zn10_5 O15_37 1_555 1_555
Zn18_5 O20_37 1_555 1_555
O19_37 Zn10_5 1_555 1_555
O20_37 C52_37 1_555 1_555
C52_37 O19_37 1_555 1_555
Zn10_14 O12_45 1_555 1_555
Zn18_14 O11_45 1_555 1_555
O31_21 Zn18_5 1_555 1_555
O40_13 Zn18_5 1_555 1_555
O42_13 Zn10_5 1_555 1_555
O17_37 C45_37 1_555 1_555
Zn11_5 O17_37 1_555 1_555
Zn19_5 O26_37 1_555 1_555
O25_37 Zn11_5 1_555 1_555
O26_37 C61_37 1_555 1_555
C61_37 O25_37 1_555 1_555
O32_21 Zn19_5 1_555 1_555
O41_17 Zn19_5 1_555 1_555
O43_17 Zn11_5 1_555 1_555
O21_21 C53_37 1_555 1_555
O22_37 C53_37 1_555 1_555
O35_5 C54_37 1_555 1_555
O38_5 C54_37 1_555 1_555
C46_37 C47_37 1_555 1_555
C47_37 H22_37 1_555 1_555
C48_37 C47_37 1_555 1_555
C49_37 C48_37 1_555 1_555
H23_37 C49_37 1_555 1_555
C50_37 C49_37 1_555 1_555
C51_37 C46_37 1_555 1_555
H24_37 C51_37 1_555 1_555
C53_37 C48_37 1_555 1_555
C54_37 C50_37 1_555 1_555
Zn19_4 O21_21 1_555 1_555
C50_37 C51_37 1_555 1_555
Zn9_5 O1_37 1_555 1_555
Zn17_5 O2_37 1_555 1_555
O1_37 C7_37 1_555 1_555
O2_37 C7_37 1_555 1_555
O7_17 Zn17_5 1_555 1_555
O8_17 Zn9_5 1_555 1_555
C15_45 C10_45 1_555 1_555
H7_45 C15_45 1_555 1_555
C16_45 O7_17 1_555 1_555
O9_37 Zn9_5 1_555 1_555
C21_37 O9_37 1_555 1_555
O33_21 Zn17_5 1_555 1_555
O8_17 C16_45 1_555 1_555
C10_45 C16_45 1_555 1_555
O3_21 C8_37 1_555 1_555
O4_37 C8_37 1_555 1_555
O34_5 C9_37 1_555 1_555
O37_5 C9_37 1_555 1_555
C1_37 C2_37 1_555 1_555
C2_37 H1_37 1_555 1_555
C3_37 C2_37 1_555 1_555
C4_37 C3_37 1_555 1_555
H2_37 C4_37 1_555 1_555
C5_37 C4_37 1_555 1_555
C6_37 C1_37 1_555 1_555
H3_37 C6_37 1_555 1_555
C8_37 C3_37 1_555 1_555
C9_37 C5_37 1_555 1_555
Zn17 O3_21 1_555 1_555
C5_37 C6_37 1_555 1_555
O27_21 C62_37 1_555 1_555
O28_37 C62_37 1_555 1_555
O36_5 C63_37 1_555 1_555
O39_5 C63_37 1_555 1_555
C55_37 C56_37 1_555 1_555
C56_37 H25_37 1_555 1_555
C57_37 C56_37 1_555 1_555
C58_37 C57_37 1_555 1_555
H26_37 C58_37 1_555 1_555
C59_37 C58_37 1_555 1_555
C60_37 C55_37 1_555 1_555
H27_37 C60_37 1_555 1_555
C62_37 C57_37 1_555 1_555
C63_37 C59_37 1_555 1_555
Zn18_3 O27_21 1_555 1_555
C59_37 C60_37 1_555 1_555
Zn9_30 O1_38 1_555 1_555
Zn17_30 O2_38 1_555 1_555
O1_38 C7_38 1_555 1_555
O2_38 C7_38 1_555 1_555
O3_22 C8_38 1_555 1_555
O4_38 C8_38 1_555 1_555
O34_30 C9_38 1_555 1_555
O37_30 C9_38 1_555 1_555
C1_38 C2_38 1_555 1_555
C2_38 H1_38 1_555 1_555
C3_38 C2_38 1_555 1_555
C4_38 C3_38 1_555 1_555
H2_38 C4_38 1_555 1_555
C5_38 C4_38 1_555 1_555
C6_38 C1_38 1_555 1_555
H3_38 C6_38 1_555 1_555
C7_38 C1_38 1_555 1_555
C8_38 C3_38 1_555 1_555
C9_38 C5_38 1_555 1_555
O7_18 Zn17_30 1_555 1_555
O8_18 Zn9_30 1_555 1_555
C10_46 C11_46 1_555 1_555
C11_46 H4_46 1_555 1_555
C12_46 C11_46 1_555 1_555
H5_46 C12_46 1_555 1_555
C13_46 C12_46 1_555 1_555
C14_46 C13_46 1_555 1_555
H6_46 C14_46 1_555 1_555
C15_46 C10_46 1_555 1_555
H7_46 C15_46 1_555 1_555
C16_46 O7_18 1_555 1_555
C17_46 C13_46 1_555 1_555
O9_38 Zn9_30 1_555 1_555
O10_38 C21_38 1_555 1_555
C18_46 C17_46 1_555 1_555
H8_46 C18_46 1_555 1_555
C19_38 C20_38 1_555 1_555
C20_38 H9_38 1_555 1_555
C21_38 O9_38 1_555 1_555
O11_46 C28_46 1_555 1_555
O12_46 C28_46 1_555 1_555
C22_46 C23_46 1_555 1_555
C23_46 H10_46 1_555 1_555
C24_46 C23_46 1_555 1_555
H11_46 C24_46 1_555 1_555
C25_46 C24_46 1_555 1_555
C26_46 C25_46 1_555 1_555
H12_46 C26_46 1_555 1_555
C27_46 C22_46 1_555 1_555
H13_46 C27_46 1_555 1_555
C28_46 C22_46 1_555 1_555
C29_46 C25_46 1_555 1_555
C30_46 C17_46 1_555 1_555
H14_46 C30_46 1_555 1_555
C32_46 H15_46 1_555 1_555
C33_46 C32_46 1_555 1_555
H16_46 C33_46 1_555 1_555
C34_46 C33_46 1_555 1_555
C35_46 C34_46 1_555 1_555
C38_46 C18_46 1_555 1_555
C39_46 C29_46 1_555 1_555
H19_46 C39_46 1_555 1_555
O15_38 C42_38 1_555 1_555
O16_38 C42_38 1_555 1_555
C40_38 C20_38 1_555 1_555
C41_38 C40_38 1_555 1_555
H20_38 C41_38 1_555 1_555
C42_38 C40_38 1_555 1_555
O17_38 C45_38 1_555 1_555
O18_38 C45_38 1_555 1_555
C43_38 C41_38 1_555 1_555
C44_38 C19_38 1_555 1_555
H21_38 C44_38 1_555 1_555
C45_38 C43_38 1_555 1_555
Zn10_30 O15_38 1_555 1_555
Zn18_30 O20_38 1_555 1_555
O19_38 Zn10_30 1_555 1_555
O20_38 C52_38 1_555 1_555
O21_22 C53_38 1_555 1_555
O22_38 C53_38 1_555 1_555
O35_30 C54_38 1_555 1_555
O38_30 C54_38 1_555 1_555
C46_38 C47_38 1_555 1_555
C47_38 H22_38 1_555 1_555
C48_38 C47_38 1_555 1_555
C49_38 C48_38 1_555 1_555
H23_38 C49_38 1_555 1_555
C50_38 C49_38 1_555 1_555
C51_38 C46_38 1_555 1_555
H24_38 C51_38 1_555 1_555
C52_38 O19_38 1_555 1_555
C53_38 C48_38 1_555 1_555
C54_38 C50_38 1_555 1_555
Zn11_30 O17_38 1_555 1_555
Zn19_30 O26_38 1_555 1_555
O25_38 Zn11_30 1_555 1_555
O26_38 C61_38 1_555 1_555
O27_22 C62_38 1_555 1_555
O28_38 C62_38 1_555 1_555
O36_30 C63_38 1_555 1_555
O39_30 C63_38 1_555 1_555
C55_38 C56_38 1_555 1_555
C56_38 H25_38 1_555 1_555
C57_38 C56_38 1_555 1_555
C58_38 C57_38 1_555 1_555
H26_38 C58_38 1_555 1_555
C59_38 C58_38 1_555 1_555
C60_38 C55_38 1_555 1_555
H27_38 C60_38 1_555 1_555
C61_38 O25_38 1_555 1_555
C62_38 C57_38 1_555 1_555
C63_38 C59_38 1_555 1_555
Zn10_21 O12_46 1_555 1_555
Zn18_21 O11_46 1_555 1_555
Zn19_27 O21_22 1_555 1_555
Zn18_28 O27_22 1_555 1_555
Zn17_26 O3_22 1_555 1_555
O31_22 Zn18_30 1_555 1_555
O32_22 Zn19_30 1_555 1_555
O33_22 Zn17_30 1_555 1_555
O40_14 Zn18_30 1_555 1_555
O41_18 Zn19_30 1_555 1_555
O42_14 Zn10_30 1_555 1_555
O43_18 Zn11_30 1_555 1_555
C5_38 C6_38 1_555 1_555
O8_18 C16_46 1_555 1_555
C10_46 C16_46 1_555 1_555
C14_46 C15_46 1_555 1_555
C19_38 C21_38 1_555 1_555
C26_46 C27_46 1_555 1_555
C29_46 C30_46 1_555 1_555
C34_46 C38_46 1_555 1_555
C38_46 C39_46 1_555 1_555
C43_38 C44_38 1_555 1_555
C46_38 C52_38 1_555 1_555
C50_38 C51_38 1_555 1_555
C55_38 C61_38 1_555 1_555
C59_38 C60_38 1_555 1_555
O13_46 C37_46 1_555 1_555
O14_46 C37_46 1_555 1_555
C36_46 C31_46 1_555 1_555
H18_46 C36_46 1_555 1_555
C37_46 C31_46 1_555 1_555
Zn11_16 O14_46 1_555 1_555
Zn19_16 O13_46 1_555 1_555
Zn9_15 O1_39 1_555 1_555
Zn17_15 O2_39 1_555 1_555
O1_39 C7_39 1_555 1_555
O2_39 C7_39 1_555 1_555
O3_23 C8_39 1_555 1_555
O4_39 C8_39 1_555 1_555
O34_15 C9_39 1_555 1_555
O37_15 C9_39 1_555 1_555
C1_39 C2_39 1_555 1_555
C2_39 H1_39 1_555 1_555
C3_39 C2_39 1_555 1_555
C4_39 C3_39 1_555 1_555
H2_39 C4_39 1_555 1_555
C5_39 C4_39 1_555 1_555
C6_39 C1_39 1_555 1_555
H3_39 C6_39 1_555 1_555
C7_39 C1_39 1_555 1_555
C8_39 C3_39 1_555 1_555
C9_39 C5_39 1_555 1_555
O7_19 Zn17_15 1_555 1_555
O8_19 Zn9_15 1_555 1_555
C10_47 C11_47 1_555 1_555
C11_47 H4_47 1_555 1_555
C12_47 C11_47 1_555 1_555
H5_47 C12_47 1_555 1_555
C13_47 C12_47 1_555 1_555
C14_47 C13_47 1_555 1_555
H6_47 C14_47 1_555 1_555
C15_47 C10_47 1_555 1_555
H7_47 C15_47 1_555 1_555
C16_47 O7_19 1_555 1_555
C17_47 C13_47 1_555 1_555
O9_39 Zn9_15 1_555 1_555
O10_39 C21_39 1_555 1_555
C18_47 C17_47 1_555 1_555
H8_47 C18_47 1_555 1_555
C19_39 C20_39 1_555 1_555
C20_39 H9_39 1_555 1_555
C21_39 O9_39 1_555 1_555
O11_47 C28_47 1_555 1_555
O12_47 C28_47 1_555 1_555
C22_47 C23_47 1_555 1_555
C23_47 H10_47 1_555 1_555
C24_47 C23_47 1_555 1_555
H11_47 C24_47 1_555 1_555
C25_47 C24_47 1_555 1_555
C26_47 C25_47 1_555 1_555
H12_47 C26_47 1_555 1_555
C27_47 C22_47 1_555 1_555
H13_47 C27_47 1_555 1_555
C28_47 C22_47 1_555 1_555
C29_47 C25_47 1_555 1_555
C30_47 C17_47 1_555 1_555
H14_47 C30_47 1_555 1_555
O13_47 C37_47 1_555 1_555
O14_47 C37_47 1_555 1_555
C31_47 C32_47 1_555 1_555
C32_47 H15_47 1_555 1_555
C33_47 C32_47 1_555 1_555
H16_47 C33_47 1_555 1_555
C34_47 C33_47 1_555 1_555
C35_47 C34_47 1_555 1_555
H17_47 C35_47 1_555 1_555
C36_47 C31_47 1_555 1_555
H18_47 C36_47 1_555 1_555
C37_47 C31_47 1_555 1_555
C38_47 C18_47 1_555 1_555
C39_47 C29_47 1_555 1_555
H19_47 C39_47 1_555 1_555
O15_39 C42_39 1_555 1_555
O16_39 C42_39 1_555 1_555
C40_39 C20_39 1_555 1_555
C41_39 C40_39 1_555 1_555
H20_39 C41_39 1_555 1_555
C42_39 C40_39 1_555 1_555
O17_39 C45_39 1_555 1_555
O18_39 C45_39 1_555 1_555
C43_39 C41_39 1_555 1_555
C44_39 C19_39 1_555 1_555
H21_39 C44_39 1_555 1_555
C45_39 C43_39 1_555 1_555
Zn10_15 O15_39 1_555 1_555
Zn18_15 O20_39 1_555 1_555
O19_39 Zn10_15 1_555 1_555
O20_39 C52_39 1_555 1_555
O21_23 C53_39 1_555 1_555
O22_39 C53_39 1_555 1_555
O35_15 C54_39 1_555 1_555
O38_15 C54_39 1_555 1_555
C46_39 C47_39 1_555 1_555
C47_39 H22_39 1_555 1_555
C48_39 C47_39 1_555 1_555
C49_39 C48_39 1_555 1_555
H23_39 C49_39 1_555 1_555
C50_39 C49_39 1_555 1_555
C51_39 C46_39 1_555 1_555
H24_39 C51_39 1_555 1_555
C52_39 O19_39 1_555 1_555
C53_39 C48_39 1_555 1_555
C54_39 C50_39 1_555 1_555
Zn11_15 O17_39 1_555 1_555
Zn19_15 O26_39 1_555 1_555
O25_39 Zn11_15 1_555 1_555
O26_39 C61_39 1_555 1_555
O27_23 C62_39 1_555 1_555
O28_39 C62_39 1_555 1_555
O36_15 C63_39 1_555 1_555
O39_15 C63_39 1_555 1_555
C55_39 C56_39 1_555 1_555
C56_39 H25_39 1_555 1_555
C57_39 C56_39 1_555 1_555
C58_39 C57_39 1_555 1_555
H26_39 C58_39 1_555 1_555
C59_39 C58_39 1_555 1_555
C60_39 C55_39 1_555 1_555
H27_39 C60_39 1_555 1_555
C61_39 O25_39 1_555 1_555
C62_39 C57_39 1_555 1_555
C63_39 C59_39 1_555 1_555
Zn10_8 O12_47 1_555 1_555
Zn11_29 O14_47 1_555 1_555
Zn18_8 O11_47 1_555 1_555
Zn19_9 O21_23 1_555 1_555
Zn18_10 O27_23 1_555 1_555
Zn19_29 O13_47 1_555 1_555
Zn17_12 O3_23 1_555 1_555
O31_23 Zn18_15 1_555 1_555
O32_23 Zn19_15 1_555 1_555
O33_23 Zn17_15 1_555 1_555
O40_15 Zn18_15 1_555 1_555
O41_19 Zn19_15 1_555 1_555
O42_15 Zn10_15 1_555 1_555
O43_19 Zn11_15 1_555 1_555
C5_39 C6_39 1_555 1_555
O8_19 C16_47 1_555 1_555
C10_47 C16_47 1_555 1_555
C14_47 C15_47 1_555 1_555
C19_39 C21_39 1_555 1_555
C26_47 C27_47 1_555 1_555
C29_47 C30_47 1_555 1_555
C34_47 C38_47 1_555 1_555
C35_47 C36_47 1_555 1_555
C38_47 C39_47 1_555 1_555
C43_39 C44_39 1_555 1_555
C46_39 C52_39 1_555 1_555
C50_39 C51_39 1_555 1_555
C55_39 C61_39 1_555 1_555
C59_39 C60_39 1_555 1_555
Zn9_24 O1_40 1_555 1_555
Zn17_24 O2_40 1_555 1_555
O1_40 C7_40 1_555 1_555
O2_40 C7_40 1_555 1_555
O3_24 C8_40 1_555 1_555
O4_40 C8_40 1_555 1_555
O34_24 C9_40 1_555 1_555
O37_24 C9_40 1_555 1_555
C1_40 C2_40 1_555 1_555
C2_40 H1_40 1_555 1_555
C3_40 C2_40 1_555 1_555
C4_40 C3_40 1_555 1_555
H2_40 C4_40 1_555 1_555
C5_40 C4_40 1_555 1_555
C6_40 C1_40 1_555 1_555
H3_40 C6_40 1_555 1_555
C7_40 C1_40 1_555 1_555
C8_40 C3_40 1_555 1_555
C9_40 C5_40 1_555 1_555
O7_20 Zn17_24 1_555 1_555
O8_20 Zn9_24 1_555 1_555
C10_48 C11_48 1_555 1_555
C11_48 H4_48 1_555 1_555
C12_48 C11_48 1_555 1_555
H5_48 C12_48 1_555 1_555
C13_48 C12_48 1_555 1_555
C14_48 C13_48 1_555 1_555
H6_48 C14_48 1_555 1_555
C15_48 C10_48 1_555 1_555
H7_48 C15_48 1_555 1_555
C16_48 O7_20 1_555 1_555
C17_48 C13_48 1_555 1_555
O9_40 Zn9_24 1_555 1_555
O10_40 C21_40 1_555 1_555
C18_48 C17_48 1_555 1_555
H8_48 C18_48 1_555 1_555
C19_40 C20_40 1_555 1_555
C20_40 H9_40 1_555 1_555
C21_40 O9_40 1_555 1_555
O11_48 C28_48 1_555 1_555
O12_48 C28_48 1_555 1_555
C22_48 C23_48 1_555 1_555
C23_48 H10_48 1_555 1_555
C24_48 C23_48 1_555 1_555
H11_48 C24_48 1_555 1_555
C25_48 C24_48 1_555 1_555
C26_48 C25_48 1_555 1_555
H12_48 C26_48 1_555 1_555
C27_48 C22_48 1_555 1_555
H13_48 C27_48 1_555 1_555
C28_48 C22_48 1_555 1_555
C29_48 C25_48 1_555 1_555
C30_48 C17_48 1_555 1_555
H14_48 C30_48 1_555 1_555
O13_48 C37_48 1_555 1_555
O14_48 C37_48 1_555 1_555
C31_48 C32_48 1_555 1_555
C32_48 H15_48 1_555 1_555
C33_48 C32_48 1_555 1_555
H16_48 C33_48 1_555 1_555
C34_48 C33_48 1_555 1_555
C35_48 C34_48 1_555 1_555
H17_48 C35_48 1_555 1_555
C36_48 C31_48 1_555 1_555
H18_48 C36_48 1_555 1_555
C37_48 C31_48 1_555 1_555
C38_48 C18_48 1_555 1_555
C39_48 C29_48 1_555 1_555
H19_48 C39_48 1_555 1_555
O15_40 C42_40 1_555 1_555
O16_40 C42_40 1_555 1_555
C40_40 C20_40 1_555 1_555
C41_40 C40_40 1_555 1_555
H20_40 C41_40 1_555 1_555
C42_40 C40_40 1_555 1_555
O17_40 C45_40 1_555 1_555
O18_40 C45_40 1_555 1_555
C43_40 C41_40 1_555 1_555
C44_40 C19_40 1_555 1_555
H21_40 C44_40 1_555 1_555
C45_40 C43_40 1_555 1_555
Zn10_24 O15_40 1_555 1_555
Zn18_24 O20_40 1_555 1_555
O19_40 Zn10_24 1_555 1_555
O20_40 C52_40 1_555 1_555
O21_24 C53_40 1_555 1_555
O22_40 C53_40 1_555 1_555
O35_24 C54_40 1_555 1_555
O38_24 C54_40 1_555 1_555
C46_40 C47_40 1_555 1_555
C47_40 H22_40 1_555 1_555
C48_40 C47_40 1_555 1_555
C49_40 C48_40 1_555 1_555
H23_40 C49_40 1_555 1_555
C50_40 C49_40 1_555 1_555
C51_40 C46_40 1_555 1_555
H24_40 C51_40 1_555 1_555
C52_40 O19_40 1_555 1_555
C53_40 C48_40 1_555 1_555
C54_40 C50_40 1_555 1_555
Zn11_24 O17_40 1_555 1_555
Zn19_24 O26_40 1_555 1_555
O25_40 Zn11_24 1_555 1_555
O26_40 C61_40 1_555 1_555
O27_24 C62_40 1_555 1_555
O28_40 C62_40 1_555 1_555
O36_24 C63_40 1_555 1_555
O39_24 C63_40 1_555 1_555
C55_40 C56_40 1_555 1_555
C56_40 H25_40 1_555 1_555
C57_40 C56_40 1_555 1_555
C58_40 C57_40 1_555 1_555
H26_40 C58_40 1_555 1_555
C59_40 C58_40 1_555 1_555
C60_40 C55_40 1_555 1_555
H27_40 C60_40 1_555 1_555
C61_40 O25_40 1_555 1_555
C62_40 C57_40 1_555 1_555
C63_40 C59_40 1_555 1_555
Zn10_31 O12_48 1_555 1_555
Zn11_6 O14_48 1_555 1_555
Zn18_31 O11_48 1_555 1_555
Zn19_18 O21_24 1_555 1_555
Zn18_17 O27_24 1_555 1_555
Zn19_6 O13_48 1_555 1_555
Zn17_19 O3_24 1_555 1_555
O31_24 Zn18_24 1_555 1_555
O32_24 Zn19_24 1_555 1_555
O33_24 Zn17_24 1_555 1_555
O40_16 Zn18_24 1_555 1_555
O41_20 Zn19_24 1_555 1_555
O42_16 Zn10_24 1_555 1_555
O43_20 Zn11_24 1_555 1_555
C5_40 C6_40 1_555 1_555
O8_20 C16_48 1_555 1_555
C10_48 C16_48 1_555 1_555
C14_48 C15_48 1_555 1_555
C19_40 C21_40 1_555 1_555
C26_48 C27_48 1_555 1_555
C29_48 C30_48 1_555 1_555
C34_48 C38_48 1_555 1_555
C35_48 C36_48 1_555 1_555
C38_48 C39_48 1_555 1_555
C43_40 C44_40 1_555 1_555
C46_40 C52_40 1_555 1_555
C50_40 C51_40 1_555 1_555
C55_40 C61_40 1_555 1_555
C59_40 C60_40 1_555 1_555
C10_49 C11_49 1_555 1_555
C11_49 H4_49 1_555 1_555
C12_49 C11_49 1_555 1_555
H5_49 C12_49 1_555 1_555
C13_49 C12_49 1_555 1_555
C14_49 C13_49 1_555 1_555
H6_49 C14_49 1_555 1_555
C15_49 C10_49 1_555 1_555
H7_49 C15_49 1_555 1_555
C16_49 O40_15 1_555 1_555
C17_49 C13_49 1_555 1_555
C18_49 C17_49 1_555 1_555
H8_49 C18_49 1_555 1_555
O11_49 C28_49 1_555 1_555
O12_49 C28_49 1_555 1_555
C22_49 C23_49 1_555 1_555
C23_49 H10_49 1_555 1_555
C24_49 C23_49 1_555 1_555
H11_49 C24_49 1_555 1_555
C25_49 C24_49 1_555 1_555
C26_49 C25_49 1_555 1_555
H12_49 C26_49 1_555 1_555
C27_49 C22_49 1_555 1_555
H13_49 C27_49 1_555 1_555
C28_49 C22_49 1_555 1_555
C29_49 C25_49 1_555 1_555
C30_49 C17_49 1_555 1_555
H14_49 C30_49 1_555 1_555
O13_49 C37_49 1_555 1_555
O14_49 C37_49 1_555 1_555
C31_49 C32_49 1_555 1_555
C32_49 H15_49 1_555 1_555
C33_49 C32_49 1_555 1_555
H16_49 C33_49 1_555 1_555
C34_49 C33_49 1_555 1_555
C35_49 C34_49 1_555 1_555
H17_49 C35_49 1_555 1_555
C36_49 C31_49 1_555 1_555
H18_49 C36_49 1_555 1_555
C37_49 C31_49 1_555 1_555
C38_49 C18_49 1_555 1_555
C39_49 C29_49 1_555 1_555
H19_49 C39_49 1_555 1_555
Zn11_22 O12_49 1_555 1_555
Zn9_8 O14_49 1_555 1_555
Zn19_22 O11_49 1_555 1_555
Zn17_8 O13_49 1_555 1_555
O42_15 C16_49 1_555 1_555
C10_49 C16_49 1_555 1_555
C14_49 C15_49 1_555 1_555
C26_49 C27_49 1_555 1_555
C29_49 C30_49 1_555 1_555
C34_49 C38_49 1_555 1_555
C35_49 C36_49 1_555 1_555
C38_49 C39_49 1_555 1_555
C10_50 C11_50 1_555 1_555
C11_50 H4_50 1_555 1_555
C12_50 C11_50 1_555 1_555
H5_50 C12_50 1_555 1_555
C13_50 C12_50 1_555 1_555
C14_50 C13_50 1_555 1_555
H6_50 C14_50 1_555 1_555
C15_50 C10_50 1_555 1_555
H7_50 C15_50 1_555 1_555
C16_50 O40_14 1_555 1_555
C17_50 C13_50 1_555 1_555
C18_50 C17_50 1_555 1_555
H8_50 C18_50 1_555 1_555
O11_50 C28_50 1_555 1_555
O12_50 C28_50 1_555 1_555
C22_50 C23_50 1_555 1_555
C23_50 H10_50 1_555 1_555
C24_50 C23_50 1_555 1_555
H11_50 C24_50 1_555 1_555
C25_50 C24_50 1_555 1_555
C26_50 C25_50 1_555 1_555
H12_50 C26_50 1_555 1_555
C27_50 C22_50 1_555 1_555
H13_50 C27_50 1_555 1_555
C28_50 C22_50 1_555 1_555
C29_50 C25_50 1_555 1_555
C30_50 C17_50 1_555 1_555
H14_50 C30_50 1_555 1_555
O13_50 C37_50 1_555 1_555
O14_50 C37_50 1_555 1_555
C31_50 C32_50 1_555 1_555
C32_50 H15_50 1_555 1_555
C33_50 C32_50 1_555 1_555
H16_50 C33_50 1_555 1_555
C34_50 C33_50 1_555 1_555
C35_50 C34_50 1_555 1_555
H17_50 C35_50 1_555 1_555
C36_50 C31_50 1_555 1_555
H18_50 C36_50 1_555 1_555
C37_50 C31_50 1_555 1_555
C38_50 C18_50 1_555 1_555
C39_50 C29_50 1_555 1_555
H19_50 C39_50 1_555 1_555
Zn11_7 O12_50 1_555 1_555
Zn9_21 O14_50 1_555 1_555
Zn19_7 O11_50 1_555 1_555
Zn17_21 O13_50 1_555 1_555
O42_14 C16_50 1_555 1_555
C10_50 C16_50 1_555 1_555
C14_50 C15_50 1_555 1_555
C26_50 C27_50 1_555 1_555
C29_50 C30_50 1_555 1_555
C34_50 C38_50 1_555 1_555
C35_50 C36_50 1_555 1_555
C38_50 C39_50 1_555 1_555
C10_51 C11_51 1_555 1_555
C11_51 H4_51 1_555 1_555
C12_51 C11_51 1_555 1_555
H5_51 C12_51 1_555 1_555
C13_51 C12_51 1_555 1_555
C14_51 C13_51 1_555 1_555
H6_51 C14_51 1_555 1_555
C15_51 C10_51 1_555 1_555
H7_51 C15_51 1_555 1_555
C16_51 O40_16 1_555 1_555
C17_51 C13_51 1_555 1_555
C18_51 C17_51 1_555 1_555
H8_51 C18_51 1_555 1_555
O11_51 C28_51 1_555 1_555
O12_51 C28_51 1_555 1_555
C22_51 C23_51 1_555 1_555
C23_51 H10_51 1_555 1_555
C24_51 C23_51 1_555 1_555
H11_51 C24_51 1_555 1_555
C25_51 C24_51 1_555 1_555
C26_51 C25_51 1_555 1_555
H12_51 C26_51 1_555 1_555
C27_51 C22_51 1_555 1_555
H13_51 C27_51 1_555 1_555
C28_51 C22_51 1_555 1_555
C29_51 C25_51 1_555 1_555
C30_51 C17_51 1_555 1_555
H14_51 C30_51 1_555 1_555
C32_51 H15_51 1_555 1_555
C33_51 C32_51 1_555 1_555
H16_51 C33_51 1_555 1_555
C34_51 C33_51 1_555 1_555
C35_51 C34_51 1_555 1_555
C38_51 C18_51 1_555 1_555
C39_51 C29_51 1_555 1_555
H19_51 C39_51 1_555 1_555
Zn11_13 O12_51 1_555 1_555
Zn19_13 O11_51 1_555 1_555
O42_16 C16_51 1_555 1_555
C10_51 C16_51 1_555 1_555
C14_51 C15_51 1_555 1_555
C26_51 C27_51 1_555 1_555
C29_51 C30_51 1_555 1_555
C34_51 C38_51 1_555 1_555
C38_51 C39_51 1_555 1_555
O13_51 C37_51 1_555 1_555
O14_51 C37_51 1_555 1_555
C36_51 C31_51 1_555 1_555
H18_51 C36_51 1_555 1_555
C37_51 C31_51 1_555 1_555
Zn9_31 O14_51 1_555 1_555
Zn17_31 O13_51 1_555 1_555
C11_52 H4_52 1_555 1_555
C12_52 C11_52 1_555 1_555
H5_52 C12_52 1_555 1_555
C13_52 C12_52 1_555 1_555
C14_52 C13_52 1_555 1_555
C17_52 C13_52 1_555 1_555
C18_52 C17_52 1_555 1_555
H8_52 C18_52 1_555 1_555
C23_52 H10_52 1_555 1_555
C24_52 C23_52 1_555 1_555
H11_52 C24_52 1_555 1_555
C25_52 C24_52 1_555 1_555
C26_52 C25_52 1_555 1_555
C29_52 C25_52 1_555 1_555
C30_52 C17_52 1_555 1_555
H14_52 C30_52 1_555 1_555
O13_52 C37_52 1_555 1_555
O14_52 C37_52 1_555 1_555
C31_52 C32_52 1_555 1_555
C32_52 H15_52 1_555 1_555
C33_52 C32_52 1_555 1_555
H16_52 C33_52 1_555 1_555
C34_52 C33_52 1_555 1_555
C35_52 C34_52 1_555 1_555
H17_52 C35_52 1_555 1_555
C36_52 C31_52 1_555 1_555
H18_52 C36_52 1_555 1_555
C37_52 C31_52 1_555 1_555
C38_52 C18_52 1_555 1_555
C39_52 C29_52 1_555 1_555
H19_52 C39_52 1_555 1_555
Zn9_14 O14_52 1_555 1_555
Zn17_14 O13_52 1_555 1_555
C29_52 C30_52 1_555 1_555
C34_52 C38_52 1_555 1_555
C35_52 C36_52 1_555 1_555
C38_52 C39_52 1_555 1_555
C15_52 C10_52 1_555 1_555
H7_52 C15_52 1_555 1_555
C16_52 O40_13 1_555 1_555
O42_13 C16_52 1_555 1_555
C10_52 C16_52 1_555 1_555
O11_52 C28_52 1_555 1_555
O12_52 C28_52 1_555 1_555
C27_52 C22_52 1_555 1_555
H13_52 C27_52 1_555 1_555
C28_52 C22_52 1_555 1_555
Zn11_32 O12_52 1_555 1_555
Zn19_32 O11_52 1_555 1_555
C10_53 C11_53 1_555 1_555
C11_53 H4_53 1_555 1_555
C12_53 C11_53 1_555 1_555
H5_53 C12_53 1_555 1_555
C13_53 C12_53 1_555 1_555
C14_53 C13_53 1_555 1_555
H6_53 C14_53 1_555 1_555
C15_53 C10_53 1_555 1_555
H7_53 C15_53 1_555 1_555
C16_53 O41_20 1_555 1_555
C17_53 C13_53 1_555 1_555
C18_53 C17_53 1_555 1_555
H8_53 C18_53 1_555 1_555
O11_53 C28_53 1_555 1_555
O12_53 C28_53 1_555 1_555
C22_53 C23_53 1_555 1_555
C23_53 H10_53 1_555 1_555
C24_53 C23_53 1_555 1_555
H11_53 C24_53 1_555 1_555
C25_53 C24_53 1_555 1_555
C26_53 C25_53 1_555 1_555
H12_53 C26_53 1_555 1_555
C27_53 C22_53 1_555 1_555
H13_53 C27_53 1_555 1_555
C28_53 C22_53 1_555 1_555
C29_53 C25_53 1_555 1_555
C30_53 C17_53 1_555 1_555
H14_53 C30_53 1_555 1_555
O13_53 C37_53 1_555 1_555
O14_53 C37_53 1_555 1_555
C31_53 C32_53 1_555 1_555
C32_53 H15_53 1_555 1_555
C33_53 C32_53 1_555 1_555
H16_53 C33_53 1_555 1_555
C34_53 C33_53 1_555 1_555
C35_53 C34_53 1_555 1_555
H17_53 C35_53 1_555 1_555
C36_53 C31_53 1_555 1_555
H18_53 C36_53 1_555 1_555
C37_53 C31_53 1_555 1_555
C38_53 C18_53 1_555 1_555
C39_53 C29_53 1_555 1_555
H19_53 C39_53 1_555 1_555
Zn9_6 O12_53 1_555 1_555
Zn10_13 O14_53 1_555 1_555
Zn17_6 O11_53 1_555 1_555
Zn18_13 O13_53 1_555 1_555
O43_20 C16_53 1_555 1_555
C10_53 C16_53 1_555 1_555
C14_53 C15_53 1_555 1_555
C26_53 C27_53 1_555 1_555
C29_53 C30_53 1_555 1_555
C34_53 C38_53 1_555 1_555
C35_53 C36_53 1_555 1_555
C38_53 C39_53 1_555 1_555
C10_54 C11_54 1_555 1_555
C11_54 H4_54 1_555 1_555
C12_54 C11_54 1_555 1_555
H5_54 C12_54 1_555 1_555
C13_54 C12_54 1_555 1_555
C14_54 C13_54 1_555 1_555
H6_54 C14_54 1_555 1_555
C15_54 C10_54 1_555 1_555
H7_54 C15_54 1_555 1_555
C16_54 O41_18 1_555 1_555
C17_54 C13_54 1_555 1_555
C18_54 C17_54 1_555 1_555
H8_54 C18_54 1_555 1_555
O11_54 C28_54 1_555 1_555
O12_54 C28_54 1_555 1_555
C22_54 C23_54 1_555 1_555
C23_54 H10_54 1_555 1_555
C24_54 C23_54 1_555 1_555
H11_54 C24_54 1_555 1_555
C25_54 C24_54 1_555 1_555
C26_54 C25_54 1_555 1_555
H12_54 C26_54 1_555 1_555
C27_54 C22_54 1_555 1_555
H13_54 C27_54 1_555 1_555
C28_54 C22_54 1_555 1_555
C29_54 C25_54 1_555 1_555
C30_54 C17_54 1_555 1_555
H14_54 C30_54 1_555 1_555
O13_54 C37_54 1_555 1_555
O14_54 C37_54 1_555 1_555
C31_54 C32_54 1_555 1_555
C32_54 H15_54 1_555 1_555
C33_54 C32_54 1_555 1_555
H16_54 C33_54 1_555 1_555
C34_54 C33_54 1_555 1_555
C35_54 C34_54 1_555 1_555
H17_54 C35_54 1_555 1_555
C36_54 C31_54 1_555 1_555
H18_54 C36_54 1_555 1_555
C37_54 C31_54 1_555 1_555
C38_54 C18_54 1_555 1_555
C39_54 C29_54 1_555 1_555
H19_54 C39_54 1_555 1_555
Zn9_16 O12_54 1_555 1_555
Zn10_7 O14_54 1_555 1_555
Zn17_16 O11_54 1_555 1_555
Zn18_7 O13_54 1_555 1_555
O43_18 C16_54 1_555 1_555
C10_54 C16_54 1_555 1_555
C14_54 C15_54 1_555 1_555
C26_54 C27_54 1_555 1_555
C29_54 C30_54 1_555 1_555
C34_54 C38_54 1_555 1_555
C35_54 C36_54 1_555 1_555
C38_54 C39_54 1_555 1_555
C11_55 H4_55 1_555 1_555
C12_55 C11_55 1_555 1_555
H5_55 C12_55 1_555 1_555
C13_55 C12_55 1_555 1_555
C14_55 C13_55 1_555 1_555
C17_55 C13_55 1_555 1_555
C18_55 C17_55 1_555 1_555
H8_55 C18_55 1_555 1_555
C23_55 H10_55 1_555 1_555
C24_55 C23_55 1_555 1_555
H11_55 C24_55 1_555 1_555
C25_55 C24_55 1_555 1_555
C26_55 C25_55 1_555 1_555
C29_55 C25_55 1_555 1_555
C30_55 C17_55 1_555 1_555
H14_55 C30_55 1_555 1_555
O13_55 C37_55 1_555 1_555
O14_55 C37_55 1_555 1_555
C31_55 C32_55 1_555 1_555
C32_55 H15_55 1_555 1_555
C33_55 C32_55 1_555 1_555
H16_55 C33_55 1_555 1_555
C34_55 C33_55 1_555 1_555
C35_55 C34_55 1_555 1_555
H17_55 C35_55 1_555 1_555
C36_55 C31_55 1_555 1_555
H18_55 C36_55 1_555 1_555
C37_55 C31_55 1_555 1_555
C38_55 C18_55 1_555 1_555
C39_55 C29_55 1_555 1_555
H19_55 C39_55 1_555 1_555
Zn10_32 O14_55 1_555 1_555
Zn18_32 O13_55 1_555 1_555
C29_55 C30_55 1_555 1_555
C34_55 C38_55 1_555 1_555
C35_55 C36_55 1_555 1_555
C38_55 C39_55 1_555 1_555
C15_55 C10_55 1_555 1_555
H7_55 C15_55 1_555 1_555
C16_55 O41_17 1_555 1_555
O43_17 C16_55 1_555 1_555
C10_55 C16_55 1_555 1_555
O11_55 C28_55 1_555 1_555
O12_55 C28_55 1_555 1_555
C27_55 C22_55 1_555 1_555
H13_55 C27_55 1_555 1_555
C28_55 C22_55 1_555 1_555
Zn9_23 O12_55 1_555 1_555
Zn17_23 O11_55 1_555 1_555
C10_56 C11_56 1_555 1_555
C11_56 H4_56 1_555 1_555
C12_56 C11_56 1_555 1_555
H5_56 C12_56 1_555 1_555
C13_56 C12_56 1_555 1_555
C14_56 C13_56 1_555 1_555
H6_56 C14_56 1_555 1_555
C15_56 C10_56 1_555 1_555
H7_56 C15_56 1_555 1_555
C16_56 O41_19 1_555 1_555
C17_56 C13_56 1_555 1_555
C18_56 C17_56 1_555 1_555
H8_56 C18_56 1_555 1_555
O11_56 C28_56 1_555 1_555
O12_56 C28_56 1_555 1_555
C22_56 C23_56 1_555 1_555
C23_56 H10_56 1_555 1_555
C24_56 C23_56 1_555 1_555
H11_56 C24_56 1_555 1_555
C25_56 C24_56 1_555 1_555
C26_56 C25_56 1_555 1_555
H12_56 C26_56 1_555 1_555
C27_56 C22_56 1_555 1_555
H13_56 C27_56 1_555 1_555
C28_56 C22_56 1_555 1_555
C29_56 C25_56 1_555 1_555
C30_56 C17_56 1_555 1_555
H14_56 C30_56 1_555 1_555
C32_56 H15_56 1_555 1_555
C33_56 C32_56 1_555 1_555
H16_56 C33_56 1_555 1_555
C34_56 C33_56 1_555 1_555
C35_56 C34_56 1_555 1_555
C38_56 C18_56 1_555 1_555
C39_56 C29_56 1_555 1_555
H19_56 C39_56 1_555 1_555
Zn9_29 O12_56 1_555 1_555
Zn17_29 O11_56 1_555 1_555
O43_19 C16_56 1_555 1_555
C10_56 C16_56 1_555 1_555
C14_56 C15_56 1_555 1_555
C26_56 C27_56 1_555 1_555
C29_56 C30_56 1_555 1_555
C34_56 C38_56 1_555 1_555
C38_56 C39_56 1_555 1_555
O13_56 C37_56 1_555 1_555
O14_56 C37_56 1_555 1_555
C36_56 C31_56 1_555 1_555
H18_56 C36_56 1_555 1_555
C37_56 C31_56 1_555 1_555
Zn10_22 O14_56 1_555 1_555
Zn18_22 O13_56 1_555 1_555
Zn9_17 O1_41 1_555 1_555
Zn17_17 O2_41 1_555 1_555
O1_41 C7_41 1_555 1_555
O2_41 C7_41 1_555 1_555
O3_25 C8_41 1_555 1_555
O4_41 C8_41 1_555 1_555
O34_17 C9_41 1_555 1_555
O37_17 C9_41 1_555 1_555
C1_41 C2_41 1_555 1_555
C2_41 H1_41 1_555 1_555
C3_41 C2_41 1_555 1_555
C4_41 C3_41 1_555 1_555
H2_41 C4_41 1_555 1_555
C5_41 C4_41 1_555 1_555
C6_41 C1_41 1_555 1_555
H3_41 C6_41 1_555 1_555
C7_41 C1_41 1_555 1_555
C8_41 C3_41 1_555 1_555
C9_41 C5_41 1_555 1_555
O9_41 Zn9_17 1_555 1_555
O10_41 C21_41 1_555 1_555
C19_41 C20_41 1_555 1_555
C20_41 H9_41 1_555 1_555
C21_41 O9_41 1_555 1_555
O15_41 C42_41 1_555 1_555
O16_41 C42_41 1_555 1_555
C40_41 C20_41 1_555 1_555
C41_41 C40_41 1_555 1_555
H20_41 C41_41 1_555 1_555
C42_41 C40_41 1_555 1_555
O17_41 C45_41 1_555 1_555
O18_41 C45_41 1_555 1_555
C43_41 C41_41 1_555 1_555
C44_41 C19_41 1_555 1_555
H21_41 C44_41 1_555 1_555
C45_41 C43_41 1_555 1_555
Zn10_17 O15_41 1_555 1_555
Zn18_17 O20_41 1_555 1_555
O19_41 Zn10_17 1_555 1_555
O20_41 C52_41 1_555 1_555
O32_24 C53_41 1_555 1_555
O22_41 C53_41 1_555 1_555
O35_17 C54_41 1_555 1_555
O38_17 C54_41 1_555 1_555
C46_41 C47_41 1_555 1_555
C47_41 H22_41 1_555 1_555
C48_41 C47_41 1_555 1_555
C49_41 C48_41 1_555 1_555
H23_41 C49_41 1_555 1_555
C50_41 C49_41 1_555 1_555
C51_41 C46_41 1_555 1_555
H24_41 C51_41 1_555 1_555
C52_41 O19_41 1_555 1_555
C53_41 C48_41 1_555 1_555
C54_41 C50_41 1_555 1_555
Zn11_17 O17_41 1_555 1_555
Zn19_17 O26_41 1_555 1_555
O25_41 Zn11_17 1_555 1_555
O26_41 C61_41 1_555 1_555
O27_25 C62_41 1_555 1_555
O28_41 C62_41 1_555 1_555
O36_17 C63_41 1_555 1_555
O39_17 C63_41 1_555 1_555
C55_41 C56_41 1_555 1_555
C56_41 H25_41 1_555 1_555
C57_41 C56_41 1_555 1_555
C58_41 C57_41 1_555 1_555
H26_41 C58_41 1_555 1_555
C59_41 C58_41 1_555 1_555
C60_41 C55_41 1_555 1_555
H27_41 C60_41 1_555 1_555
C61_41 O25_41 1_555 1_555
C62_41 C57_41 1_555 1_555
C63_41 C59_41 1_555 1_555
Zn18_23 O27_25 1_555 1_555
Zn17_21 O3_25 1_555 1_555
O32_25 Zn19_17 1_555 1_555
O33_25 Zn17_17 1_555 1_555
O41_21 Zn19_17 1_555 1_555
O43_21 Zn11_17 1_555 1_555
C5_41 C6_41 1_555 1_555
C19_41 C21_41 1_555 1_555
C43_41 C44_41 1_555 1_555
C46_41 C52_41 1_555 1_555
C50_41 C51_41 1_555 1_555
C55_41 C61_41 1_555 1_555
C59_41 C60_41 1_555 1_555
O3_26 C8_42 1_555 1_555
O4_42 C8_42 1_555 1_555
O34_10 C9_42 1_555 1_555
O37_10 C9_42 1_555 1_555
C1_42 C2_42 1_555 1_555
C2_42 H1_42 1_555 1_555
C3_42 C2_42 1_555 1_555
C4_42 C3_42 1_555 1_555
H2_42 C4_42 1_555 1_555
C5_42 C4_42 1_555 1_555
C6_42 C1_42 1_555 1_555
H3_42 C6_42 1_555 1_555
C8_42 C3_42 1_555 1_555
C9_42 C5_42 1_555 1_555
Zn17_14 O3_26 1_555 1_555
C5_42 C6_42 1_555 1_555
Zn9_10 O1_42 1_555 1_555
Zn17_10 O2_42 1_555 1_555
O1_42 C7_42 1_555 1_555
O2_42 C7_42 1_555 1_555
O9_42 Zn9_10 1_555 1_555
C21_42 O9_42 1_555 1_555
O27_26 C62_42 1_555 1_555
O28_42 C62_42 1_555 1_555
O36_10 C63_42 1_555 1_555
O39_10 C63_42 1_555 1_555
C55_42 C56_42 1_555 1_555
C56_42 H25_42 1_555 1_555
C57_42 C56_42 1_555 1_555
C58_42 C57_42 1_555 1_555
H26_42 C58_42 1_555 1_555
C59_42 C58_42 1_555 1_555
C60_42 C55_42 1_555 1_555
H27_42 C60_42 1_555 1_555
C62_42 C57_42 1_555 1_555
C63_42 C59_42 1_555 1_555
Zn18_16 O27_26 1_555 1_555
O33_26 Zn17_10 1_555 1_555
C59_42 C60_42 1_555 1_555
O15_42 C42_42 1_555 1_555
Zn10_10 O15_42 1_555 1_555
Zn18_10 O20_42 1_555 1_555
O19_42 Zn10_10 1_555 1_555
O20_42 C52_42 1_555 1_555
O32_23 C53_42 1_555 1_555
O22_42 C53_42 1_555 1_555
O35_10 C54_42 1_555 1_555
O38_10 C54_42 1_555 1_555
C46_42 C47_42 1_555 1_555
C47_42 H22_42 1_555 1_555
C48_42 C47_42 1_555 1_555
C49_42 C48_42 1_555 1_555
H23_42 C49_42 1_555 1_555
C50_42 C49_42 1_555 1_555
C51_42 C46_42 1_555 1_555
H24_42 C51_42 1_555 1_555
C52_42 O19_42 1_555 1_555
C53_42 C48_42 1_555 1_555
C54_42 C50_42 1_555 1_555
C46_42 C52_42 1_555 1_555
C50_42 C51_42 1_555 1_555
C19_42 C20_42 1_555 1_555
C20_42 H9_42 1_555 1_555
C40_42 C20_42 1_555 1_555
C41_42 C40_42 1_555 1_555
H20_42 C41_42 1_555 1_555
O17_42 C45_42 1_555 1_555
O18_42 C45_42 1_555 1_555
C43_42 C41_42 1_555 1_555
C44_42 C19_42 1_555 1_555
H21_42 C44_42 1_555 1_555
C45_42 C43_42 1_555 1_555
Zn11_10 O17_42 1_555 1_555
Zn19_10 O26_42 1_555 1_555
O25_42 Zn11_10 1_555 1_555
O26_42 C61_42 1_555 1_555
C61_42 O25_42 1_555 1_555
O32_26 Zn19_10 1_555 1_555
O41_22 Zn19_10 1_555 1_555
O43_22 Zn11_10 1_555 1_555
C43_42 C44_42 1_555 1_555
O17_43 C45_43 1_555 1_555
O32_21 C53_43 1_555 1_555
O22_43 C53_43 1_555 1_555
O35_3 C54_43 1_555 1_555
O38_3 C54_43 1_555 1_555
C46_43 C47_43 1_555 1_555
C47_43 H22_43 1_555 1_555
C48_43 C47_43 1_555 1_555
C49_43 C48_43 1_555 1_555
H23_43 C49_43 1_555 1_555
C50_43 C49_43 1_555 1_555
C51_43 C46_43 1_555 1_555
H24_43 C51_43 1_555 1_555
C53_43 C48_43 1_555 1_555
C54_43 C50_43 1_555 1_555
Zn11_3 O17_43 1_555 1_555
Zn19_3 O26_43 1_555 1_555
O25_43 Zn11_3 1_555 1_555
O26_43 C61_43 1_555 1_555
O27_27 C62_43 1_555 1_555
O28_43 C62_43 1_555 1_555
O36_3 C63_43 1_555 1_555
O39_3 C63_43 1_555 1_555
C55_43 C56_43 1_555 1_555
C56_43 H25_43 1_555 1_555
C57_43 C56_43 1_555 1_555
C58_43 C57_43 1_555 1_555
H26_43 C58_43 1_555 1_555
C59_43 C58_43 1_555 1_555
C60_43 C55_43 1_555 1_555
H27_43 C60_43 1_555 1_555
C61_43 O25_43 1_555 1_555
C62_43 C57_43 1_555 1_555
C63_43 C59_43 1_555 1_555
Zn18_6 O27_27 1_555 1_555
O32_27 Zn19_3 1_555 1_555
O41_23 Zn19_3 1_555 1_555
O43_23 Zn11_3 1_555 1_555
C50_43 C51_43 1_555 1_555
C55_43 C61_43 1_555 1_555
C59_43 C60_43 1_555 1_555
Zn9_3 O1_43 1_555 1_555
Zn17_3 O2_43 1_555 1_555
O1_43 C7_43 1_555 1_555
O2_43 C7_43 1_555 1_555
O3_27 C8_43 1_555 1_555
O4_43 C8_43 1_555 1_555
O34_3 C9_43 1_555 1_555
O37_3 C9_43 1_555 1_555
C1_43 C2_43 1_555 1_555
C2_43 H1_43 1_555 1_555
C3_43 C2_43 1_555 1_555
C4_43 C3_43 1_555 1_555
H2_43 C4_43 1_555 1_555
C5_43 C4_43 1_555 1_555
C6_43 C1_43 1_555 1_555
H3_43 C6_43 1_555 1_555
C7_43 C1_43 1_555 1_555
C8_43 C3_43 1_555 1_555
C9_43 C5_43 1_555 1_555
O9_43 Zn9_3 1_555 1_555
O10_43 C21_43 1_555 1_555
C19_43 C20_43 1_555 1_555
C20_43 H9_43 1_555 1_555
C21_43 O9_43 1_555 1_555
O15_43 C42_43 1_555 1_555
O16_43 C42_43 1_555 1_555
C40_43 C20_43 1_555 1_555
C41_43 C40_43 1_555 1_555
H20_43 C41_43 1_555 1_555
C42_43 C40_43 1_555 1_555
C43_43 C41_43 1_555 1_555
C44_43 C19_43 1_555 1_555
H21_43 C44_43 1_555 1_555
Zn10_3 O15_43 1_555 1_555
Zn18_3 O20_43 1_555 1_555
O19_43 Zn10_3 1_555 1_555
O20_43 C52_43 1_555 1_555
C52_43 O19_43 1_555 1_555
Zn17_8 O3_27 1_555 1_555
O33_27 Zn17_3 1_555 1_555
C5_43 C6_43 1_555 1_555
C19_43 C21_43 1_555 1_555
C43_43 C44_43 1_555 1_555
Zn9_28 O1_44 1_555 1_555
Zn17_28 O2_44 1_555 1_555
O1_44 C7_44 1_555 1_555
O2_44 C7_44 1_555 1_555
O3_28 C8_44 1_555 1_555
O4_44 C8_44 1_555 1_555
O34_28 C9_44 1_555 1_555
O37_28 C9_44 1_555 1_555
C1_44 C2_44 1_555 1_555
C2_44 H1_44 1_555 1_555
C3_44 C2_44 1_555 1_555
C4_44 C3_44 1_555 1_555
H2_44 C4_44 1_555 1_555
C5_44 C4_44 1_555 1_555
C6_44 C1_44 1_555 1_555
H3_44 C6_44 1_555 1_555
C7_44 C1_44 1_555 1_555
C8_44 C3_44 1_555 1_555
C9_44 C5_44 1_555 1_555
O9_44 Zn9_28 1_555 1_555
O10_44 C21_44 1_555 1_555
C19_44 C20_44 1_555 1_555
C20_44 H9_44 1_555 1_555
C21_44 O9_44 1_555 1_555
O15_44 C42_44 1_555 1_555
O16_44 C42_44 1_555 1_555
C40_44 C20_44 1_555 1_555
C41_44 C40_44 1_555 1_555
H20_44 C41_44 1_555 1_555
C42_44 C40_44 1_555 1_555
O17_44 C45_44 1_555 1_555
O18_44 C45_44 1_555 1_555
C43_44 C41_44 1_555 1_555
C44_44 C19_44 1_555 1_555
H21_44 C44_44 1_555 1_555
C45_44 C43_44 1_555 1_555
Zn10_28 O15_44 1_555 1_555
Zn18_28 O20_44 1_555 1_555
O19_44 Zn10_28 1_555 1_555
O20_44 C52_44 1_555 1_555
O32_22 C53_44 1_555 1_555
O22_44 C53_44 1_555 1_555
O35_28 C54_44 1_555 1_555
O38_28 C54_44 1_555 1_555
C46_44 C47_44 1_555 1_555
C47_44 H22_44 1_555 1_555
C48_44 C47_44 1_555 1_555
C49_44 C48_44 1_555 1_555
H23_44 C49_44 1_555 1_555
C50_44 C49_44 1_555 1_555
C51_44 C46_44 1_555 1_555
H24_44 C51_44 1_555 1_555
C52_44 O19_44 1_555 1_555
C53_44 C48_44 1_555 1_555
C54_44 C50_44 1_555 1_555
Zn11_28 O17_44 1_555 1_555
Zn19_28 O26_44 1_555 1_555
O25_44 Zn11_28 1_555 1_555
O26_44 C61_44 1_555 1_555
O27_28 C62_44 1_555 1_555
O28_44 C62_44 1_555 1_555
O36_28 C63_44 1_555 1_555
O39_28 C63_44 1_555 1_555
C55_44 C56_44 1_555 1_555
C56_44 H25_44 1_555 1_555
C57_44 C56_44 1_555 1_555
C58_44 C57_44 1_555 1_555
H26_44 C58_44 1_555 1_555
C59_44 C58_44 1_555 1_555
C60_44 C55_44 1_555 1_555
H27_44 C60_44 1_555 1_555
C61_44 O25_44 1_555 1_555
C62_44 C57_44 1_555 1_555
C63_44 C59_44 1_555 1_555
Zn18_29 O27_28 1_555 1_555
Zn17_31 O3_28 1_555 1_555
O32_28 Zn19_28 1_555 1_555
O33_28 Zn17_28 1_555 1_555
O41_24 Zn19_28 1_555 1_555
O43_24 Zn11_28 1_555 1_555
C5_44 C6_44 1_555 1_555
C19_44 C21_44 1_555 1_555
C43_44 C44_44 1_555 1_555
C46_44 C52_44 1_555 1_555
C50_44 C51_44 1_555 1_555
C55_44 C61_44 1_555 1_555
C59_44 C60_44 1_555 1_555
O13_57 C37_57 1_555 1_555
O14_57 C37_57 1_555 1_555
C36_57 C31_57 1_555 1_555
H18_57 C36_57 1_555 1_555
C37_57 C31_57 1_555 1_555
Zn10 O14_57 1_555 1_555
Zn18 O13_57 1_555 1_555
C10_57 C11_57 1_555 1_555
C11_57 H4_57 1_555 1_555
C12_57 C11_57 1_555 1_555
H5_57 C12_57 1_555 1_555
C13_57 C12_57 1_555 1_555
C14_57 C13_57 1_555 1_555
H6_57 C14_57 1_555 1_555
C15_57 C10_57 1_555 1_555
H7_57 C15_57 1_555 1_555
C16_57 O41_24 1_555 1_555
C17_57 C13_57 1_555 1_555
C18_57 C17_57 1_555 1_555
H8_57 C18_57 1_555 1_555
O11_57 C28_57 1_555 1_555
O12_57 C28_57 1_555 1_555
C22_57 C23_57 1_555 1_555
C23_57 H10_57 1_555 1_555
C24_57 C23_57 1_555 1_555
H11_57 C24_57 1_555 1_555
C25_57 C24_57 1_555 1_555
C26_57 C25_57 1_555 1_555
H12_57 C26_57 1_555 1_555
C27_57 C22_57 1_555 1_555
H13_57 C27_57 1_555 1_555
C28_57 C22_57 1_555 1_555
C29_57 C25_57 1_555 1_555
C30_57 C17_57 1_555 1_555
H14_57 C30_57 1_555 1_555
C32_57 H15_57 1_555 1_555
C33_57 C32_57 1_555 1_555
H16_57 C33_57 1_555 1_555
C34_57 C33_57 1_555 1_555
C35_57 C34_57 1_555 1_555
C38_57 C18_57 1_555 1_555
C39_57 C29_57 1_555 1_555
H19_57 C39_57 1_555 1_555
Zn9_18 O12_57 1_555 1_555
Zn17_18 O11_57 1_555 1_555
O43_24 C16_57 1_555 1_555
C10_57 C16_57 1_555 1_555
C14_57 C15_57 1_555 1_555
C26_57 C27_57 1_555 1_555
C29_57 C30_57 1_555 1_555
C34_57 C38_57 1_555 1_555
C38_57 C39_57 1_555 1_555
O11_58 C28_58 1_555 1_555
O12_58 C28_58 1_555 1_555
C27_58 C22_58 1_555 1_555
H13_58 C27_58 1_555 1_555
C28_58 C22_58 1_555 1_555
Zn9_4 O12_58 1_555 1_555
Zn17_4 O11_58 1_555 1_555
C10_58 C11_58 1_555 1_555
C11_58 H4_58 1_555 1_555
C12_58 C11_58 1_555 1_555
H5_58 C12_58 1_555 1_555
C13_58 C12_58 1_555 1_555
C14_58 C13_58 1_555 1_555
H6_58 C14_58 1_555 1_555
C15_58 C10_58 1_555 1_555
H7_58 C15_58 1_555 1_555
C16_58 O41_22 1_555 1_555
C17_58 C13_58 1_555 1_555
C18_58 C17_58 1_555 1_555
H8_58 C18_58 1_555 1_555
C23_58 H10_58 1_555 1_555
C24_58 C23_58 1_555 1_555
H11_58 C24_58 1_555 1_555
C25_58 C24_58 1_555 1_555
C26_58 C25_58 1_555 1_555
C29_58 C25_58 1_555 1_555
C30_58 C17_58 1_555 1_555
H14_58 C30_58 1_555 1_555
O13_58 C37_58 1_555 1_555
O14_58 C37_58 1_555 1_555
C31_58 C32_58 1_555 1_555
C32_58 H15_58 1_555 1_555
C33_58 C32_58 1_555 1_555
H16_58 C33_58 1_555 1_555
C34_58 C33_58 1_555 1_555
C35_58 C34_58 1_555 1_555
H17_58 C35_58 1_555 1_555
C36_58 C31_58 1_555 1_555
H18_58 C36_58 1_555 1_555
C37_58 C31_58 1_555 1_555
C38_58 C18_58 1_555 1_555
C39_58 C29_58 1_555 1_555
H19_58 C39_58 1_555 1_555
Zn10_19 O14_58 1_555 1_555
Zn18_19 O13_58 1_555 1_555
O43_22 C16_58 1_555 1_555
C10_58 C16_58 1_555 1_555
C14_58 C15_58 1_555 1_555
C29_58 C30_58 1_555 1_555
C34_58 C38_58 1_555 1_555
C35_58 C36_58 1_555 1_555
C38_58 C39_58 1_555 1_555
C10_59 C11_59 1_555 1_555
C11_59 H4_59 1_555 1_555
C12_59 C11_59 1_555 1_555
H5_59 C12_59 1_555 1_555
C13_59 C12_59 1_555 1_555
C14_59 C13_59 1_555 1_555
H6_59 C14_59 1_555 1_555
C15_59 C10_59 1_555 1_555
H7_59 C15_59 1_555 1_555
C16_59 O41_21 1_555 1_555
C17_59 C13_59 1_555 1_555
C18_59 C17_59 1_555 1_555
H8_59 C18_59 1_555 1_555
O11_59 C28_59 1_555 1_555
O12_59 C28_59 1_555 1_555
C22_59 C23_59 1_555 1_555
C23_59 H10_59 1_555 1_555
C24_59 C23_59 1_555 1_555
H11_59 C24_59 1_555 1_555
C25_59 C24_59 1_555 1_555
C26_59 C25_59 1_555 1_555
H12_59 C26_59 1_555 1_555
C27_59 C22_59 1_555 1_555
H13_59 C27_59 1_555 1_555
C28_59 C22_59 1_555 1_555
C29_59 C25_59 1_555 1_555
C30_59 C17_59 1_555 1_555
H14_59 C30_59 1_555 1_555
O13_59 C37_59 1_555 1_555
O14_59 C37_59 1_555 1_555
C31_59 C32_59 1_555 1_555
C32_59 H15_59 1_555 1_555
C33_59 C32_59 1_555 1_555
H16_59 C33_59 1_555 1_555
C34_59 C33_59 1_555 1_555
C35_59 C34_59 1_555 1_555
H17_59 C35_59 1_555 1_555
C36_59 C31_59 1_555 1_555
H18_59 C36_59 1_555 1_555
C37_59 C31_59 1_555 1_555
C38_59 C18_59 1_555 1_555
C39_59 C29_59 1_555 1_555
H19_59 C39_59 1_555 1_555
Zn9_27 O12_59 1_555 1_555
Zn10_12 O14_59 1_555 1_555
Zn17_27 O11_59 1_555 1_555
Zn18_12 O13_59 1_555 1_555
O43_21 C16_59 1_555 1_555
C10_59 C16_59 1_555 1_555
C14_59 C15_59 1_555 1_555
C26_59 C27_59 1_555 1_555
C29_59 C30_59 1_555 1_555
C34_59 C38_59 1_555 1_555
C35_59 C36_59 1_555 1_555
C38_59 C39_59 1_555 1_555
C15_60 C10_60 1_555 1_555
H7_60 C15_60 1_555 1_555
C16_60 O41_23 1_555 1_555
O43_23 C16_60 1_555 1_555
C10_60 C16_60 1_555 1_555
C11_60 H4_60 1_555 1_555
C12_60 C11_60 1_555 1_555
H5_60 C12_60 1_555 1_555
C13_60 C12_60 1_555 1_555
C14_60 C13_60 1_555 1_555
C17_60 C13_60 1_555 1_555
C18_60 C17_60 1_555 1_555
H8_60 C18_60 1_555 1_555
O11_60 C28_60 1_555 1_555
O12_60 C28_60 1_555 1_555
C22_60 C23_60 1_555 1_555
C23_60 H10_60 1_555 1_555
C24_60 C23_60 1_555 1_555
H11_60 C24_60 1_555 1_555
C25_60 C24_60 1_555 1_555
C26_60 C25_60 1_555 1_555
H12_60 C26_60 1_555 1_555
C27_60 C22_60 1_555 1_555
H13_60 C27_60 1_555 1_555
C28_60 C22_60 1_555 1_555
C29_60 C25_60 1_555 1_555
C30_60 C17_60 1_555 1_555
H14_60 C30_60 1_555 1_555
O13_60 C37_60 1_555 1_555
O14_60 C37_60 1_555 1_555
C31_60 C32_60 1_555 1_555
C32_60 H15_60 1_555 1_555
C33_60 C32_60 1_555 1_555
H16_60 C33_60 1_555 1_555
C34_60 C33_60 1_555 1_555
C35_60 C34_60 1_555 1_555
H17_60 C35_60 1_555 1_555
C36_60 C31_60 1_555 1_555
H18_60 C36_60 1_555 1_555
C37_60 C31_60 1_555 1_555
C38_60 C18_60 1_555 1_555
C39_60 C29_60 1_555 1_555
H19_60 C39_60 1_555 1_555
Zn9_9 O12_60 1_555 1_555
Zn10_26 O14_60 1_555 1_555
Zn17_9 O11_60 1_555 1_555
Zn18_26 O13_60 1_555 1_555
C26_60 C27_60 1_555 1_555
C29_60 C30_60 1_555 1_555
C34_60 C38_60 1_555 1_555
C35_60 C36_60 1_555 1_555
C38_60 C39_60 1_555 1_555
C11_61 H4_61 1_555 1_555
C12_61 C11_61 1_555 1_555
H5_61 C12_61 1_555 1_555
C13_61 C12_61 1_555 1_555
C14_61 C13_61 1_555 1_555
C17_61 C13_61 1_555 1_555
C18_61 C17_61 1_555 1_555
H8_61 C18_61 1_555 1_555
C19_45 C20_45 1_555 1_555
C20_45 H9_45 1_555 1_555
O11_61 C28_61 1_555 1_555
O12_61 C28_61 1_555 1_555
C22_61 C23_61 1_555 1_555
C23_61 H10_61 1_555 1_555
C24_61 C23_61 1_555 1_555
H11_61 C24_61 1_555 1_555
C25_61 C24_61 1_555 1_555
C26_61 C25_61 1_555 1_555
H12_61 C26_61 1_555 1_555
C27_61 C22_61 1_555 1_555
H13_61 C27_61 1_555 1_555
C28_61 C22_61 1_555 1_555
C29_61 C25_61 1_555 1_555
C30_61 C17_61 1_555 1_555
H14_61 C30_61 1_555 1_555
O13_61 C37_61 1_555 1_555
O14_61 C37_61 1_555 1_555
C31_61 C32_61 1_555 1_555
C32_61 H15_61 1_555 1_555
C33_61 C32_61 1_555 1_555
H16_61 C33_61 1_555 1_555
C34_61 C33_61 1_555 1_555
C35_61 C34_61 1_555 1_555
H17_61 C35_61 1_555 1_555
C36_61 C31_61 1_555 1_555
H18_61 C36_61 1_555 1_555
C37_61 C31_61 1_555 1_555
C38_61 C18_61 1_555 1_555
C39_61 C29_61 1_555 1_555
H19_61 C39_61 1_555 1_555
O15_45 C42_45 1_555 1_555
O16_45 C42_45 1_555 1_555
C40_45 C20_45 1_555 1_555
C41_45 C40_45 1_555 1_555
H20_45 C41_45 1_555 1_555
C42_45 C40_45 1_555 1_555
O17_45 C45_45 1_555 1_555
O18_45 C45_45 1_555 1_555
C43_45 C41_45 1_555 1_555
C44_45 C19_45 1_555 1_555
H21_45 C44_45 1_555 1_555
C45_45 C43_45 1_555 1_555
Zn10_13 O15_45 1_555 1_555
Zn18_13 O20_45 1_555 1_555
O19_45 Zn10_13 1_555 1_555
O20_45 C52_45 1_555 1_555
O21_25 C53_45 1_555 1_555
O22_45 C53_45 1_555 1_555
O35_13 C54_45 1_555 1_555
O38_13 C54_45 1_555 1_555
C46_45 C47_45 1_555 1_555
C47_45 H22_45 1_555 1_555
C48_45 C47_45 1_555 1_555
C49_45 C48_45 1_555 1_555
H23_45 C49_45 1_555 1_555
C50_45 C49_45 1_555 1_555
C51_45 C46_45 1_555 1_555
H24_45 C51_45 1_555 1_555
C52_45 O19_45 1_555 1_555
C53_45 C48_45 1_555 1_555
C54_45 C50_45 1_555 1_555
Zn11_13 O17_45 1_555 1_555
Zn19_13 O26_45 1_555 1_555
O25_45 Zn11_13 1_555 1_555
O26_45 C61_45 1_555 1_555
C61_45 O25_45 1_555 1_555
Zn10_6 O12_61 1_555 1_555
Zn11_31 O14_61 1_555 1_555
Zn18_6 O11_61 1_555 1_555
Zn19_12 O21_25 1_555 1_555
Zn19_31 O13_61 1_555 1_555
O31_25 Zn18_13 1_555 1_555
C26_61 C27_61 1_555 1_555
C29_61 C30_61 1_555 1_555
C34_61 C38_61 1_555 1_555
C35_61 C36_61 1_555 1_555
C38_61 C39_61 1_555 1_555
C43_45 C44_45 1_555 1_555
C46_45 C52_45 1_555 1_555
C50_45 C51_45 1_555 1_555
Zn9_13 O1_45 1_555 1_555
Zn17_13 O2_45 1_555 1_555
O1_45 C7_45 1_555 1_555
O2_45 C7_45 1_555 1_555
O3_29 C8_45 1_555 1_555
O4_45 C8_45 1_555 1_555
O34_13 C9_45 1_555 1_555
O37_13 C9_45 1_555 1_555
C1_45 C2_45 1_555 1_555
C2_45 H1_45 1_555 1_555
C3_45 C2_45 1_555 1_555
C4_45 C3_45 1_555 1_555
H2_45 C4_45 1_555 1_555
C5_45 C4_45 1_555 1_555
C6_45 C1_45 1_555 1_555
H3_45 C6_45 1_555 1_555
C7_45 C1_45 1_555 1_555
C8_45 C3_45 1_555 1_555
C9_45 C5_45 1_555 1_555
O7_21 Zn17_13 1_555 1_555
O8_21 Zn9_13 1_555 1_555
C15_61 C10_61 1_555 1_555
H7_61 C15_61 1_555 1_555
C16_61 O7_21 1_555 1_555
O9_45 Zn9_13 1_555 1_555
C21_45 O9_45 1_555 1_555
O31_19 C62_45 1_555 1_555
O28_45 C62_45 1_555 1_555
O36_13 C63_45 1_555 1_555
O39_13 C63_45 1_555 1_555
C55_45 C56_45 1_555 1_555
C56_45 H25_45 1_555 1_555
C57_45 C56_45 1_555 1_555
C58_45 C57_45 1_555 1_555
H26_45 C58_45 1_555 1_555
C59_45 C58_45 1_555 1_555
C60_45 C55_45 1_555 1_555
H27_45 C60_45 1_555 1_555
C62_45 C57_45 1_555 1_555
C63_45 C59_45 1_555 1_555
Zn17_9 O3_29 1_555 1_555
O33_29 Zn17_13 1_555 1_555
C5_45 C6_45 1_555 1_555
O8_21 C16_61 1_555 1_555
C10_61 C16_61 1_555 1_555
C59_45 C60_45 1_555 1_555
Zn9_22 O1_46 1_555 1_555
Zn17_22 O2_46 1_555 1_555
O1_46 C7_46 1_555 1_555
O2_46 C7_46 1_555 1_555
O7_22 Zn17_22 1_555 1_555
O8_22 Zn9_22 1_555 1_555
C10_62 C11_62 1_555 1_555
C11_62 H4_62 1_555 1_555
C12_62 C11_62 1_555 1_555
H5_62 C12_62 1_555 1_555
C13_62 C12_62 1_555 1_555
C14_62 C13_62 1_555 1_555
H6_62 C14_62 1_555 1_555
C15_62 C10_62 1_555 1_555
H7_62 C15_62 1_555 1_555
C16_62 O7_22 1_555 1_555
C17_62 C13_62 1_555 1_555
O9_46 Zn9_22 1_555 1_555
O10_46 C21_46 1_555 1_555
C18_62 C17_62 1_555 1_555
H8_62 C18_62 1_555 1_555
C19_46 C20_46 1_555 1_555
C20_46 H9_46 1_555 1_555
C21_46 O9_46 1_555 1_555
C23_62 H10_62 1_555 1_555
C24_62 C23_62 1_555 1_555
H11_62 C24_62 1_555 1_555
C25_62 C24_62 1_555 1_555
C26_62 C25_62 1_555 1_555
C29_62 C25_62 1_555 1_555
C30_62 C17_62 1_555 1_555
H14_62 C30_62 1_555 1_555
O13_62 C37_62 1_555 1_555
O14_62 C37_62 1_555 1_555
C31_62 C32_62 1_555 1_555
C32_62 H15_62 1_555 1_555
C33_62 C32_62 1_555 1_555
H16_62 C33_62 1_555 1_555
C34_62 C33_62 1_555 1_555
C35_62 C34_62 1_555 1_555
H17_62 C35_62 1_555 1_555
C36_62 C31_62 1_555 1_555
H18_62 C36_62 1_555 1_555
C37_62 C31_62 1_555 1_555
C38_62 C18_62 1_555 1_555
C39_62 C29_62 1_555 1_555
H19_62 C39_62 1_555 1_555
C40_46 C20_46 1_555 1_555
C41_46 C40_46 1_555 1_555
H20_46 C41_46 1_555 1_555
O17_46 C45_46 1_555 1_555
O18_46 C45_46 1_555 1_555
C43_46 C41_46 1_555 1_555
C44_46 C19_46 1_555 1_555
H21_46 C44_46 1_555 1_555
C45_46 C43_46 1_555 1_555
Zn11_22 O17_46 1_555 1_555
Zn19_22 O26_46 1_555 1_555
O25_46 Zn11_22 1_555 1_555
O26_46 C61_46 1_555 1_555
O31_20 C62_46 1_555 1_555
O28_46 C62_46 1_555 1_555
O36_22 C63_46 1_555 1_555
O39_22 C63_46 1_555 1_555
C55_46 C56_46 1_555 1_555
C56_46 H25_46 1_555 1_555
C57_46 C56_46 1_555 1_555
C58_46 C57_46 1_555 1_555
H26_46 C58_46 1_555 1_555
C59_46 C58_46 1_555 1_555
C60_46 C55_46 1_555 1_555
H27_46 C60_46 1_555 1_555
C61_46 O25_46 1_555 1_555
C62_46 C57_46 1_555 1_555
C63_46 C59_46 1_555 1_555
Zn11_8 O14_62 1_555 1_555
Zn19_8 O13_62 1_555 1_555
O33_30 Zn17_22 1_555 1_555
O8_22 C16_62 1_555 1_555
C10_62 C16_62 1_555 1_555
C14_62 C15_62 1_555 1_555
C19_46 C21_46 1_555 1_555
C29_62 C30_62 1_555 1_555
C34_62 C38_62 1_555 1_555
C35_62 C36_62 1_555 1_555
C38_62 C39_62 1_555 1_555
C43_46 C44_46 1_555 1_555
C55_46 C61_46 1_555 1_555
C59_46 C60_46 1_555 1_555
O3_30 C8_46 1_555 1_555
O4_46 C8_46 1_555 1_555
O34_22 C9_46 1_555 1_555
O37_22 C9_46 1_555 1_555
C1_46 C2_46 1_555 1_555
C2_46 H1_46 1_555 1_555
C3_46 C2_46 1_555 1_555
C4_46 C3_46 1_555 1_555
H2_46 C4_46 1_555 1_555
C5_46 C4_46 1_555 1_555
C6_46 C1_46 1_555 1_555
H3_46 C6_46 1_555 1_555
C8_46 C3_46 1_555 1_555
C9_46 C5_46 1_555 1_555
O11_62 C28_62 1_555 1_555
O12_62 C28_62 1_555 1_555
C27_62 C22_62 1_555 1_555
H13_62 C27_62 1_555 1_555
C28_62 C22_62 1_555 1_555
O15_46 C42_46 1_555 1_555
Zn10_22 O15_46 1_555 1_555
Zn18_22 O20_46 1_555 1_555
O19_46 Zn10_22 1_555 1_555
O20_46 C52_46 1_555 1_555
O21_26 C53_46 1_555 1_555
O22_46 C53_46 1_555 1_555
O35_22 C54_46 1_555 1_555
O38_22 C54_46 1_555 1_555
C46_46 C47_46 1_555 1_555
C47_46 H22_46 1_555 1_555
C48_46 C47_46 1_555 1_555
C49_46 C48_46 1_555 1_555
H23_46 C49_46 1_555 1_555
C50_46 C49_46 1_555 1_555
C51_46 C46_46 1_555 1_555
H24_46 C51_46 1_555 1_555
C52_46 O19_46 1_555 1_555
C53_46 C48_46 1_555 1_555
C54_46 C50_46 1_555 1_555
Zn10_29 O12_62 1_555 1_555
Zn18_29 O11_62 1_555 1_555
Zn19_19 O21_26 1_555 1_555
Zn17_18 O3_30 1_555 1_555
O31_26 Zn18_22 1_555 1_555
C5_46 C6_46 1_555 1_555
C46_46 C52_46 1_555 1_555
C50_46 C51_46 1_555 1_555
Zn9_7 O1_47 1_555 1_555
Zn17_7 O2_47 1_555 1_555
O1_47 C7_47 1_555 1_555
O2_47 C7_47 1_555 1_555
O3_31 C8_47 1_555 1_555
O4_47 C8_47 1_555 1_555
O34_7 C9_47 1_555 1_555
O37_7 C9_47 1_555 1_555
C1_47 C2_47 1_555 1_555
C2_47 H1_47 1_555 1_555
C3_47 C2_47 1_555 1_555
C4_47 C3_47 1_555 1_555
H2_47 C4_47 1_555 1_555
C5_47 C4_47 1_555 1_555
C6_47 C1_47 1_555 1_555
H3_47 C6_47 1_555 1_555
C7_47 C1_47 1_555 1_555
C8_47 C3_47 1_555 1_555
C9_47 C5_47 1_555 1_555
O7_23 Zn17_7 1_555 1_555
O8_23 Zn9_7 1_555 1_555
C10_63 C11_63 1_555 1_555
C11_63 H4_63 1_555 1_555
C12_63 C11_63 1_555 1_555
H5_63 C12_63 1_555 1_555
C13_63 C12_63 1_555 1_555
C14_63 C13_63 1_555 1_555
H6_63 C14_63 1_555 1_555
C15_63 C10_63 1_555 1_555
H7_63 C15_63 1_555 1_555
C16_63 O7_23 1_555 1_555
C17_63 C13_63 1_555 1_555
O9_47 Zn9_7 1_555 1_555
O10_47 C21_47 1_555 1_555
C18_63 C17_63 1_555 1_555
H8_63 C18_63 1_555 1_555
C19_47 C20_47 1_555 1_555
C20_47 H9_47 1_555 1_555
C21_47 O9_47 1_555 1_555
O11_63 C28_63 1_555 1_555
O12_63 C28_63 1_555 1_555
C22_63 C23_63 1_555 1_555
C23_63 H10_63 1_555 1_555
C24_63 C23_63 1_555 1_555
H11_63 C24_63 1_555 1_555
C25_63 C24_63 1_555 1_555
C26_63 C25_63 1_555 1_555
H12_63 C26_63 1_555 1_555
C27_63 C22_63 1_555 1_555
H13_63 C27_63 1_555 1_555
C28_63 C22_63 1_555 1_555
C29_63 C25_63 1_555 1_555
C30_63 C17_63 1_555 1_555
H14_63 C30_63 1_555 1_555
C32_63 H15_63 1_555 1_555
C33_63 C32_63 1_555 1_555
H16_63 C33_63 1_555 1_555
C34_63 C33_63 1_555 1_555
C35_63 C34_63 1_555 1_555
C38_63 C18_63 1_555 1_555
C39_63 C29_63 1_555 1_555
H19_63 C39_63 1_555 1_555
O15_47 C42_47 1_555 1_555
O16_47 C42_47 1_555 1_555
C40_47 C20_47 1_555 1_555
C41_47 C40_47 1_555 1_555
H20_47 C41_47 1_555 1_555
C42_47 C40_47 1_555 1_555
O17_47 C45_47 1_555 1_555
O18_47 C45_47 1_555 1_555
C43_47 C41_47 1_555 1_555
C44_47 C19_47 1_555 1_555
H21_47 C44_47 1_555 1_555
C45_47 C43_47 1_555 1_555
Zn10_7 O15_47 1_555 1_555
Zn18_7 O20_47 1_555 1_555
O19_47 Zn10_7 1_555 1_555
O20_47 C52_47 1_555 1_555
O21_27 C53_47 1_555 1_555
O22_47 C53_47 1_555 1_555
O35_7 C54_47 1_555 1_555
O38_7 C54_47 1_555 1_555
C46_47 C47_47 1_555 1_555
C47_47 H22_47 1_555 1_555
C48_47 C47_47 1_555 1_555
C49_47 C48_47 1_555 1_555
H23_47 C49_47 1_555 1_555
C50_47 C49_47 1_555 1_555
C51_47 C46_47 1_555 1_555
H24_47 C51_47 1_555 1_555
C52_47 O19_47 1_555 1_555
C53_47 C48_47 1_555 1_555
C54_47 C50_47 1_555 1_555
Zn11_7 O17_47 1_555 1_555
Zn19_7 O26_47 1_555 1_555
O25_47 Zn11_7 1_555 1_555
O26_47 C61_47 1_555 1_555
O31_18 C62_47 1_555 1_555
O28_47 C62_47 1_555 1_555
O36_7 C63_47 1_555 1_555
O39_7 C63_47 1_555 1_555
C55_47 C56_47 1_555 1_555
C56_47 H25_47 1_555 1_555
C57_47 C56_47 1_555 1_555
C58_47 C57_47 1_555 1_555
H26_47 C58_47 1_555 1_555
C59_47 C58_47 1_555 1_555
C60_47 C55_47 1_555 1_555
H27_47 C60_47 1_555 1_555
C61_47 O25_47 1_555 1_555
C62_47 C57_47 1_555 1_555
C63_47 C59_47 1_555 1_555
Zn10_16 O12_63 1_555 1_555
Zn18_16 O11_63 1_555 1_555
Zn19 O21_27 1_555 1_555
Zn17_4 O3_31 1_555 1_555
O31_27 Zn18_7 1_555 1_555
O33_31 Zn17_7 1_555 1_555
C5_47 C6_47 1_555 1_555
O8_23 C16_63 1_555 1_555
C10_63 C16_63 1_555 1_555
C14_63 C15_63 1_555 1_555
C19_47 C21_47 1_555 1_555
C26_63 C27_63 1_555 1_555
C29_63 C30_63 1_555 1_555
C34_63 C38_63 1_555 1_555
C38_63 C39_63 1_555 1_555
C43_47 C44_47 1_555 1_555
C46_47 C52_47 1_555 1_555
C50_47 C51_47 1_555 1_555
C55_47 C61_47 1_555 1_555
C59_47 C60_47 1_555 1_555
O13_63 C37_63 1_555 1_555
O14_63 C37_63 1_555 1_555
C36_63 C31_63 1_555 1_555
H18_63 C36_63 1_555 1_555
C37_63 C31_63 1_555 1_555
Zn11_21 O14_63 1_555 1_555
Zn19_21 O13_63 1_555 1_555
Zn9_32 O1_48 1_555 1_555
Zn17_32 O2_48 1_555 1_555
O1_48 C7_48 1_555 1_555
O2_48 C7_48 1_555 1_555
O3_32 C8_48 1_555 1_555
O4_48 C8_48 1_555 1_555
O34_32 C9_48 1_555 1_555
O37_32 C9_48 1_555 1_555
C1_48 C2_48 1_555 1_555
C2_48 H1_48 1_555 1_555
C3_48 C2_48 1_555 1_555
C4_48 C3_48 1_555 1_555
H2_48 C4_48 1_555 1_555
C5_48 C4_48 1_555 1_555
C6_48 C1_48 1_555 1_555
H3_48 C6_48 1_555 1_555
C7_48 C1_48 1_555 1_555
C8_48 C3_48 1_555 1_555
C9_48 C5_48 1_555 1_555
O7_24 Zn17_32 1_555 1_555
O8_24 Zn9_32 1_555 1_555
C10_64 C11_64 1_555 1_555
C11_64 H4_64 1_555 1_555
C12_64 C11_64 1_555 1_555
H5_64 C12_64 1_555 1_555
C13_64 C12_64 1_555 1_555
C14_64 C13_64 1_555 1_555
H6_64 C14_64 1_555 1_555
C15_64 C10_64 1_555 1_555
H7_64 C15_64 1_555 1_555
C16_64 O7_24 1_555 1_555
C17_64 C13_64 1_555 1_555
O9_48 Zn9_32 1_555 1_555
O10_48 C21_48 1_555 1_555
C18_64 C17_64 1_555 1_555
H8_64 C18_64 1_555 1_555
C19_48 C20_48 1_555 1_555
C20_48 H9_48 1_555 1_555
C21_48 O9_48 1_555 1_555
O11_64 C28_64 1_555 1_555
O12_64 C28_64 1_555 1_555
C22_64 C23_64 1_555 1_555
C23_64 H10_64 1_555 1_555
C24_64 C23_64 1_555 1_555
H11_64 C24_64 1_555 1_555
C25_64 C24_64 1_555 1_555
C26_64 C25_64 1_555 1_555
H12_64 C26_64 1_555 1_555
C27_64 C22_64 1_555 1_555
H13_64 C27_64 1_555 1_555
C28_64 C22_64 1_555 1_555
C29_64 C25_64 1_555 1_555
C30_64 C17_64 1_555 1_555
H14_64 C30_64 1_555 1_555
O13_64 C37_64 1_555 1_555
O14_64 C37_64 1_555 1_555
C31_64 C32_64 1_555 1_555
C32_64 H15_64 1_555 1_555
C33_64 C32_64 1_555 1_555
H16_64 C33_64 1_555 1_555
C34_64 C33_64 1_555 1_555
C35_64 C34_64 1_555 1_555
H17_64 C35_64 1_555 1_555
C36_64 C31_64 1_555 1_555
H18_64 C36_64 1_555 1_555
C37_64 C31_64 1_555 1_555
C38_64 C18_64 1_555 1_555
C39_64 C29_64 1_555 1_555
H19_64 C39_64 1_555 1_555
O15_48 C42_48 1_555 1_555
O16_48 C42_48 1_555 1_555
C40_48 C20_48 1_555 1_555
C41_48 C40_48 1_555 1_555
H20_48 C41_48 1_555 1_555
C42_48 C40_48 1_555 1_555
C43_48 C41_48 1_555 1_555
C44_48 C19_48 1_555 1_555
H21_48 C44_48 1_555 1_555
Zn10_32 O15_48 1_555 1_555
Zn18_32 O20_48 1_555 1_555
O19_48 Zn10_32 1_555 1_555
O20_48 C52_48 1_555 1_555
C52_48 O19_48 1_555 1_555
Zn10_23 O12_64 1_555 1_555
Zn11_14 O14_64 1_555 1_555
Zn18_23 O11_64 1_555 1_555
Zn19_14 O13_64 1_555 1_555
Zn17_27 O3_32 1_555 1_555
O31_28 Zn18_32 1_555 1_555
O33_32 Zn17_32 1_555 1_555
C5_48 C6_48 1_555 1_555
O8_24 C16_64 1_555 1_555
C10_64 C16_64 1_555 1_555
C14_64 C15_64 1_555 1_555
C19_48 C21_48 1_555 1_555
C26_64 C27_64 1_555 1_555
C29_64 C30_64 1_555 1_555
C34_64 C38_64 1_555 1_555
C35_64 C36_64 1_555 1_555
C38_64 C39_64 1_555 1_555
C43_48 C44_48 1_555 1_555
O17_48 C45_48 1_555 1_555
O21_28 C53_48 1_555 1_555
O22_48 C53_48 1_555 1_555
O35_32 C54_48 1_555 1_555
O38_32 C54_48 1_555 1_555
C46_48 C47_48 1_555 1_555
C47_48 H22_48 1_555 1_555
C48_48 C47_48 1_555 1_555
C49_48 C48_48 1_555 1_555
H23_48 C49_48 1_555 1_555
C50_48 C49_48 1_555 1_555
C51_48 C46_48 1_555 1_555
H24_48 C51_48 1_555 1_555
C53_48 C48_48 1_555 1_555
C54_48 C50_48 1_555 1_555
Zn11_32 O17_48 1_555 1_555
Zn19_32 O26_48 1_555 1_555
O25_48 Zn11_32 1_555 1_555
O26_48 C61_48 1_555 1_555
O31_17 C62_48 1_555 1_555
O28_48 C62_48 1_555 1_555
O36_32 C63_48 1_555 1_555
O39_32 C63_48 1_555 1_555
C55_48 C56_48 1_555 1_555
C56_48 H25_48 1_555 1_555
C57_48 C56_48 1_555 1_555
C58_48 C57_48 1_555 1_555
H26_48 C58_48 1_555 1_555
C59_48 C58_48 1_555 1_555
C60_48 C55_48 1_555 1_555
H27_48 C60_48 1_555 1_555
C61_48 O25_48 1_555 1_555
C62_48 C57_48 1_555 1_555
C63_48 C59_48 1_555 1_555
Zn19_26 O21_28 1_555 1_555
C50_48 C51_48 1_555 1_555
C55_48 C61_48 1_555 1_555
C59_48 C60_48 1_555 1_555
Zn9_9 O1_49 1_555 1_555
Zn17_9 O2_49 1_555 1_555
O1_49 C7_49 1_555 1_555
O2_49 C7_49 1_555 1_555
O33_29 C8_49 1_555 1_555
O4_49 C8_49 1_555 1_555
O34_9 C9_49 1_555 1_555
O37_9 C9_49 1_555 1_555
C1_49 C2_49 1_555 1_555
C2_49 H1_49 1_555 1_555
C3_49 C2_49 1_555 1_555
C4_49 C3_49 1_555 1_555
H2_49 C4_49 1_555 1_555
C5_49 C4_49 1_555 1_555
C6_49 C1_49 1_555 1_555
H3_49 C6_49 1_555 1_555
C7_49 C1_49 1_555 1_555
C8_49 C3_49 1_555 1_555
C9_49 C5_49 1_555 1_555
O9_49 Zn9_9 1_555 1_555
O10_49 C21_49 1_555 1_555
C19_49 C20_49 1_555 1_555
C20_49 H9_49 1_555 1_555
C21_49 O9_49 1_555 1_555
O15_49 C42_49 1_555 1_555
O16_49 C42_49 1_555 1_555
C40_49 C20_49 1_555 1_555
C41_49 C40_49 1_555 1_555
H20_49 C41_49 1_555 1_555
C42_49 C40_49 1_555 1_555
O17_49 C45_49 1_555 1_555
O18_49 C45_49 1_555 1_555
C43_49 C41_49 1_555 1_555
C44_49 C19_49 1_555 1_555
H21_49 C44_49 1_555 1_555
C45_49 C43_49 1_555 1_555
Zn10_9 O15_49 1_555 1_555
Zn18_9 O20_49 1_555 1_555
O19_49 Zn10_9 1_555 1_555
O20_49 C52_49 1_555 1_555
O21_29 C53_49 1_555 1_555
O22_49 C53_49 1_555 1_555
O35_9 C54_49 1_555 1_555
O38_9 C54_49 1_555 1_555
C46_49 C47_49 1_555 1_555
C47_49 H22_49 1_555 1_555
C48_49 C47_49 1_555 1_555
C49_49 C48_49 1_555 1_555
H23_49 C49_49 1_555 1_555
C50_49 C49_49 1_555 1_555
C51_49 C46_49 1_555 1_555
H24_49 C51_49 1_555 1_555
C52_49 O19_49 1_555 1_555
C53_49 C48_49 1_555 1_555
C54_49 C50_49 1_555 1_555
Zn11_9 O17_49 1_555 1_555
Zn19_9 O26_49 1_555 1_555
O25_49 Zn11_9 1_555 1_555
O26_49 C61_49 1_555 1_555
O31_23 C62_49 1_555 1_555
O28_49 C62_49 1_555 1_555
O36_9 C63_49 1_555 1_555
O39_9 C63_49 1_555 1_555
C55_49 C56_49 1_555 1_555
C56_49 H25_49 1_555 1_555
C57_49 C56_49 1_555 1_555
C58_49 C57_49 1_555 1_555
H26_49 C58_49 1_555 1_555
C59_49 C58_49 1_555 1_555
C60_49 C55_49 1_555 1_555
H27_49 C60_49 1_555 1_555
C61_49 O25_49 1_555 1_555
C62_49 C57_49 1_555 1_555
C63_49 C59_49 1_555 1_555
Zn19_16 O21_29 1_555 1_555
O31_29 Zn18_9 1_555 1_555
C5_49 C6_49 1_555 1_555
C19_49 C21_49 1_555 1_555
C43_49 C44_49 1_555 1_555
C46_49 C52_49 1_555 1_555
C50_49 C51_49 1_555 1_555
C55_49 C61_49 1_555 1_555
C59_49 C60_49 1_555 1_555
O21_30 C53_50 1_555 1_555
O22_50 C53_50 1_555 1_555
O35_18 C54_50 1_555 1_555
O38_18 C54_50 1_555 1_555
C46_50 C47_50 1_555 1_555
C47_50 H22_50 1_555 1_555
C48_50 C47_50 1_555 1_555
C49_50 C48_50 1_555 1_555
H23_50 C49_50 1_555 1_555
C50_50 C49_50 1_555 1_555
C51_50 C46_50 1_555 1_555
H24_50 C51_50 1_555 1_555
C53_50 C48_50 1_555 1_555
C54_50 C50_50 1_555 1_555
Zn19_23 O21_30 1_555 1_555
C50_50 C51_50 1_555 1_555
O17_50 C45_50 1_555 1_555
Zn11_18 O17_50 1_555 1_555
Zn19_18 O26_50 1_555 1_555
O25_50 Zn11_18 1_555 1_555
O26_50 C61_50 1_555 1_555
O31_24 C62_50 1_555 1_555
O28_50 C62_50 1_555 1_555
O36_18 C63_50 1_555 1_555
O39_18 C63_50 1_555 1_555
C55_50 C56_50 1_555 1_555
C56_50 H25_50 1_555 1_555
C57_50 C56_50 1_555 1_555
C58_50 C57_50 1_555 1_555
H26_50 C58_50 1_555 1_555
C59_50 C58_50 1_555 1_555
C60_50 C55_50 1_555 1_555
H27_50 C60_50 1_555 1_555
C61_50 O25_50 1_555 1_555
C62_50 C57_50 1_555 1_555
C63_50 C59_50 1_555 1_555
C55_50 C61_50 1_555 1_555
C59_50 C60_50 1_555 1_555
O33_30 C8_50 1_555 1_555
O4_50 C8_50 1_555 1_555
O34_18 C9_50 1_555 1_555
O37_18 C9_50 1_555 1_555
C1_50 C2_50 1_555 1_555
C2_50 H1_50 1_555 1_555
C3_50 C2_50 1_555 1_555
C4_50 C3_50 1_555 1_555
H2_50 C4_50 1_555 1_555
C5_50 C4_50 1_555 1_555
C6_50 C1_50 1_555 1_555
H3_50 C6_50 1_555 1_555
C8_50 C3_50 1_555 1_555
C9_50 C5_50 1_555 1_555
O15_50 C42_50 1_555 1_555
Zn10_18 O15_50 1_555 1_555
Zn18_18 O20_50 1_555 1_555
O19_50 Zn10_18 1_555 1_555
O20_50 C52_50 1_555 1_555
C52_50 O19_50 1_555 1_555
O31_30 Zn18_18 1_555 1_555
C5_50 C6_50 1_555 1_555
Zn9_18 O1_50 1_555 1_555
Zn17_18 O2_50 1_555 1_555
O1_50 C7_50 1_555 1_555
O2_50 C7_50 1_555 1_555
O9_50 Zn9_18 1_555 1_555
O10_50 C21_50 1_555 1_555
C19_50 C20_50 1_555 1_555
C20_50 H9_50 1_555 1_555
C21_50 O9_50 1_555 1_555
C40_50 C20_50 1_555 1_555
C41_50 C40_50 1_555 1_555
H20_50 C41_50 1_555 1_555
C43_50 C41_50 1_555 1_555
C44_50 C19_50 1_555 1_555
H21_50 C44_50 1_555 1_555
C19_50 C21_50 1_555 1_555
C43_50 C44_50 1_555 1_555
Zn9_27 O1_51 1_555 1_555
Zn17_27 O2_51 1_555 1_555
O1_51 C7_51 1_555 1_555
O2_51 C7_51 1_555 1_555
O33_32 C8_51 1_555 1_555
O4_51 C8_51 1_555 1_555
O34_27 C9_51 1_555 1_555
O37_27 C9_51 1_555 1_555
C1_51 C2_51 1_555 1_555
C2_51 H1_51 1_555 1_555
C3_51 C2_51 1_555 1_555
C4_51 C3_51 1_555 1_555
H2_51 C4_51 1_555 1_555
C5_51 C4_51 1_555 1_555
C6_51 C1_51 1_555 1_555
H3_51 C6_51 1_555 1_555
C7_51 C1_51 1_555 1_555
C8_51 C3_51 1_555 1_555
C9_51 C5_51 1_555 1_555
O9_51 Zn9_27 1_555 1_555
O10_51 C21_51 1_555 1_555
C19_51 C20_51 1_555 1_555
C20_51 H9_51 1_555 1_555
C21_51 O9_51 1_555 1_555
O15_51 C42_51 1_555 1_555
O16_51 C42_51 1_555 1_555
C40_51 C20_51 1_555 1_555
C41_51 C40_51 1_555 1_555
H20_51 C41_51 1_555 1_555
C42_51 C40_51 1_555 1_555
O17_51 C45_51 1_555 1_555
O18_51 C45_51 1_555 1_555
C43_51 C41_51 1_555 1_555
C44_51 C19_51 1_555 1_555
H21_51 C44_51 1_555 1_555
C45_51 C43_51 1_555 1_555
Zn10_27 O15_51 1_555 1_555
Zn18_27 O20_51 1_555 1_555
O19_51 Zn10_27 1_555 1_555
O20_51 C52_51 1_555 1_555
O21_31 C53_51 1_555 1_555
O22_51 C53_51 1_555 1_555
O35_27 C54_51 1_555 1_555
O38_27 C54_51 1_555 1_555
C46_51 C47_51 1_555 1_555
C47_51 H22_51 1_555 1_555
C48_51 C47_51 1_555 1_555
C49_51 C48_51 1_555 1_555
H23_51 C49_51 1_555 1_555
C50_51 C49_51 1_555 1_555
C51_51 C46_51 1_555 1_555
H24_51 C51_51 1_555 1_555
C52_51 O19_51 1_555 1_555
C53_51 C48_51 1_555 1_555
C54_51 C50_51 1_555 1_555
Zn11_27 O17_51 1_555 1_555
Zn19_27 O26_51 1_555 1_555
O25_51 Zn11_27 1_555 1_555
O26_51 C61_51 1_555 1_555
O31_22 C62_51 1_555 1_555
O28_51 C62_51 1_555 1_555
O36_27 C63_51 1_555 1_555
O39_27 C63_51 1_555 1_555
C55_51 C56_51 1_555 1_555
C56_51 H25_51 1_555 1_555
C57_51 C56_51 1_555 1_555
C58_51 C57_51 1_555 1_555
H26_51 C58_51 1_555 1_555
C59_51 C58_51 1_555 1_555
C60_51 C55_51 1_555 1_555
H27_51 C60_51 1_555 1_555
C61_51 O25_51 1_555 1_555
C62_51 C57_51 1_555 1_555
C63_51 C59_51 1_555 1_555
Zn19_29 O21_31 1_555 1_555
O31_31 Zn18_27 1_555 1_555
C5_51 C6_51 1_555 1_555
C19_51 C21_51 1_555 1_555
C43_51 C44_51 1_555 1_555
C46_51 C52_51 1_555 1_555
C50_51 C51_51 1_555 1_555
C55_51 C61_51 1_555 1_555
C59_51 C60_51 1_555 1_555
Zn9_4 O1_52 1_555 1_555
Zn17_4 O2_52 1_555 1_555
O1_52 C7_52 1_555 1_555
O2_52 C7_52 1_555 1_555
O33_31 C8_52 1_555 1_555
O4_52 C8_52 1_555 1_555
O34_4 C9_52 1_555 1_555
O37_4 C9_52 1_555 1_555
C1_52 C2_52 1_555 1_555
C2_52 H1_52 1_555 1_555
C3_52 C2_52 1_555 1_555
C4_52 C3_52 1_555 1_555
H2_52 C4_52 1_555 1_555
C5_52 C4_52 1_555 1_555
C6_52 C1_52 1_555 1_555
H3_52 C6_52 1_555 1_555
C7_52 C1_52 1_555 1_555
C8_52 C3_52 1_555 1_555
C9_52 C5_52 1_555 1_555
O9_52 Zn9_4 1_555 1_555
C21_52 O9_52 1_555 1_555
O31_21 C62_52 1_555 1_555
O28_52 C62_52 1_555 1_555
O36_4 C63_52 1_555 1_555
O39_4 C63_52 1_555 1_555
C55_52 C56_52 1_555 1_555
C56_52 H25_52 1_555 1_555
C57_52 C56_52 1_555 1_555
C58_52 C57_52 1_555 1_555
H26_52 C58_52 1_555 1_555
C59_52 C58_52 1_555 1_555
C60_52 C55_52 1_555 1_555
H27_52 C60_52 1_555 1_555
C62_52 C57_52 1_555 1_555
C63_52 C59_52 1_555 1_555
C5_52 C6_52 1_555 1_555
C59_52 C60_52 1_555 1_555
C19_52 C20_52 1_555 1_555
C20_52 H9_52 1_555 1_555
O15_52 C42_52 1_555 1_555
O16_52 C42_52 1_555 1_555
C40_52 C20_52 1_555 1_555
C41_52 C40_52 1_555 1_555
H20_52 C41_52 1_555 1_555
C42_52 C40_52 1_555 1_555
O17_52 C45_52 1_555 1_555
O18_52 C45_52 1_555 1_555
C43_52 C41_52 1_555 1_555
C44_52 C19_52 1_555 1_555
H21_52 C44_52 1_555 1_555
C45_52 C43_52 1_555 1_555
Zn10_4 O15_52 1_555 1_555
Zn18_4 O20_52 1_555 1_555
O19_52 Zn10_4 1_555 1_555
O20_52 C52_52 1_555 1_555
O21_32 C53_52 1_555 1_555
O22_52 C53_52 1_555 1_555
O35_4 C54_52 1_555 1_555
O38_4 C54_52 1_555 1_555
C46_52 C47_52 1_555 1_555
C47_52 H22_52 1_555 1_555
C48_52 C47_52 1_555 1_555
C49_52 C48_52 1_555 1_555
H23_52 C49_52 1_555 1_555
C50_52 C49_52 1_555 1_555
C51_52 C46_52 1_555 1_555
H24_52 C51_52 1_555 1_555
C52_52 O19_52 1_555 1_555
C53_52 C48_52 1_555 1_555
C54_52 C50_52 1_555 1_555
Zn11_4 O17_52 1_555 1_555
Zn19_4 O26_52 1_555 1_555
O25_52 Zn11_4 1_555 1_555
O26_52 C61_52 1_555 1_555
C61_52 O25_52 1_555 1_555
Zn19_6 O21_32 1_555 1_555
O31_32 Zn18_4 1_555 1_555
C43_52 C44_52 1_555 1_555
C46_52 C52_52 1_555 1_555
C50_52 C51_52 1_555 1_555
Zn9_21 O1_53 1_555 1_555
Zn17_21 O2_53 1_555 1_555
O1_53 C7_53 1_555 1_555
O2_53 C7_53 1_555 1_555
O33_25 C8_53 1_555 1_555
O4_53 C8_53 1_555 1_555
O34_21 C9_53 1_555 1_555
O37_21 C9_53 1_555 1_555
C1_53 C2_53 1_555 1_555
C2_53 H1_53 1_555 1_555
C3_53 C2_53 1_555 1_555
C4_53 C3_53 1_555 1_555
H2_53 C4_53 1_555 1_555
C5_53 C4_53 1_555 1_555
C6_53 C1_53 1_555 1_555
H3_53 C6_53 1_555 1_555
C7_53 C1_53 1_555 1_555
C8_53 C3_53 1_555 1_555
C9_53 C5_53 1_555 1_555
O9_53 Zn9_21 1_555 1_555
O10_53 C21_53 1_555 1_555
C19_53 C20_53 1_555 1_555
C20_53 H9_53 1_555 1_555
C21_53 O9_53 1_555 1_555
O15_53 C42_53 1_555 1_555
O16_53 C42_53 1_555 1_555
C40_53 C20_53 1_555 1_555
C41_53 C40_53 1_555 1_555
H20_53 C41_53 1_555 1_555
C42_53 C40_53 1_555 1_555
C43_53 C41_53 1_555 1_555
C44_53 C19_53 1_555 1_555
H21_53 C44_53 1_555 1_555
Zn10_21 O15_53 1_555 1_555
Zn18_21 O20_53 1_555 1_555
O19_53 Zn10_21 1_555 1_555
O20_53 C52_53 1_555 1_555
C52_53 O19_53 1_555 1_555
C5_53 C6_53 1_555 1_555
C19_53 C21_53 1_555 1_555
C43_53 C44_53 1_555 1_555
O17_53 C45_53 1_555 1_555
O32_20 C53_53 1_555 1_555
O22_53 C53_53 1_555 1_555
O35_21 C54_53 1_555 1_555
O38_21 C54_53 1_555 1_555
C46_53 C47_53 1_555 1_555
C47_53 H22_53 1_555 1_555
C48_53 C47_53 1_555 1_555
C49_53 C48_53 1_555 1_555
H23_53 C49_53 1_555 1_555
C50_53 C49_53 1_555 1_555
C51_53 C46_53 1_555 1_555
H24_53 C51_53 1_555 1_555
C53_53 C48_53 1_555 1_555
C54_53 C50_53 1_555 1_555
Zn11_21 O17_53 1_555 1_555
Zn19_21 O26_53 1_555 1_555
O25_53 Zn11_21 1_555 1_555
O26_53 C61_53 1_555 1_555
O27_29 C62_53 1_555 1_555
O28_53 C62_53 1_555 1_555
O36_21 C63_53 1_555 1_555
O39_21 C63_53 1_555 1_555
C55_53 C56_53 1_555 1_555
C56_53 H25_53 1_555 1_555
C57_53 C56_53 1_555 1_555
C58_53 C57_53 1_555 1_555
H26_53 C58_53 1_555 1_555
C59_53 C58_53 1_555 1_555
C60_53 C55_53 1_555 1_555
H27_53 C60_53 1_555 1_555
C61_53 O25_53 1_555 1_555
C62_53 C57_53 1_555 1_555
C63_53 C59_53 1_555 1_555
Zn18_19 O27_29 1_555 1_555
O32_29 Zn19_21 1_555 1_555
C50_53 C51_53 1_555 1_555
C55_53 C61_53 1_555 1_555
C59_53 C60_53 1_555 1_555
Zn9_14 O1_54 1_555 1_555
Zn17_14 O2_54 1_555 1_555
O1_54 C7_54 1_555 1_555
O2_54 C7_54 1_555 1_555
O9_54 Zn9_14 1_555 1_555
O10_54 C21_54 1_555 1_555
C19_54 C20_54 1_555 1_555
C20_54 H9_54 1_555 1_555
C21_54 O9_54 1_555 1_555
C40_54 C20_54 1_555 1_555
C41_54 C40_54 1_555 1_555
H20_54 C41_54 1_555 1_555
O17_54 C45_54 1_555 1_555
O18_54 C45_54 1_555 1_555
C43_54 C41_54 1_555 1_555
C44_54 C19_54 1_555 1_555
H21_54 C44_54 1_555 1_555
C45_54 C43_54 1_555 1_555
Zn11_14 O17_54 1_555 1_555
Zn19_14 O26_54 1_555 1_555
O25_54 Zn11_14 1_555 1_555
O26_54 C61_54 1_555 1_555
O27_30 C62_54 1_555 1_555
O28_54 C62_54 1_555 1_555
O36_14 C63_54 1_555 1_555
O39_14 C63_54 1_555 1_555
C55_54 C56_54 1_555 1_555
C56_54 H25_54 1_555 1_555
C57_54 C56_54 1_555 1_555
C58_54 C57_54 1_555 1_555
H26_54 C58_54 1_555 1_555
C59_54 C58_54 1_555 1_555
C60_54 C55_54 1_555 1_555
H27_54 C60_54 1_555 1_555
C61_54 O25_54 1_555 1_555
C62_54 C57_54 1_555 1_555
C63_54 C59_54 1_555 1_555
Zn18_12 O27_30 1_555 1_555
O32_30 Zn19_14 1_555 1_555
C19_54 C21_54 1_555 1_555
C43_54 C44_54 1_555 1_555
C55_54 C61_54 1_555 1_555
C59_54 C60_54 1_555 1_555
O33_26 C8_54 1_555 1_555
O4_54 C8_54 1_555 1_555
O34_14 C9_54 1_555 1_555
O37_14 C9_54 1_555 1_555
C1_54 C2_54 1_555 1_555
C2_54 H1_54 1_555 1_555
C3_54 C2_54 1_555 1_555
C4_54 C3_54 1_555 1_555
H2_54 C4_54 1_555 1_555
C5_54 C4_54 1_555 1_555
C6_54 C1_54 1_555 1_555
H3_54 C6_54 1_555 1_555
C8_54 C3_54 1_555 1_555
C9_54 C5_54 1_555 1_555
O15_54 C42_54 1_555 1_555
Zn10_14 O15_54 1_555 1_555
Zn18_14 O20_54 1_555 1_555
O19_54 Zn10_14 1_555 1_555
O20_54 C52_54 1_555 1_555
O32_19 C53_54 1_555 1_555
O22_54 C53_54 1_555 1_555
O35_14 C54_54 1_555 1_555
O38_14 C54_54 1_555 1_555
C46_54 C47_54 1_555 1_555
C47_54 H22_54 1_555 1_555
C48_54 C47_54 1_555 1_555
C49_54 C48_54 1_555 1_555
H23_54 C49_54 1_555 1_555
C50_54 C49_54 1_555 1_555
C51_54 C46_54 1_555 1_555
H24_54 C51_54 1_555 1_555
C52_54 O19_54 1_555 1_555
C53_54 C48_54 1_555 1_555
C54_54 C50_54 1_555 1_555
C5_54 C6_54 1_555 1_555
C46_54 C52_54 1_555 1_555
C50_54 C51_54 1_555 1_555
C19_55 C20_55 1_555 1_555
C20_55 H9_55 1_555 1_555
O15_55 C42_55 1_555 1_555
O16_55 C42_55 1_555 1_555
C40_55 C20_55 1_555 1_555
C41_55 C40_55 1_555 1_555
H20_55 C41_55 1_555 1_555
C42_55 C40_55 1_555 1_555
O17_55 C45_55 1_555 1_555
O18_55 C45_55 1_555 1_555
C43_55 C41_55 1_555 1_555
C44_55 C19_55 1_555 1_555
H21_55 C44_55 1_555 1_555
C45_55 C43_55 1_555 1_555
Zn10_31 O15_55 1_555 1_555
Zn18_31 O20_55 1_555 1_555
O19_55 Zn10_31 1_555 1_555
O20_55 C52_55 1_555 1_555
O32_17 C53_55 1_555 1_555
O22_55 C53_55 1_555 1_555
O35_31 C54_55 1_555 1_555
O38_31 C54_55 1_555 1_555
C46_55 C47_55 1_555 1_555
C47_55 H22_55 1_555 1_555
C48_55 C47_55 1_555 1_555
C49_55 C48_55 1_555 1_555
H23_55 C49_55 1_555 1_555
C50_55 C49_55 1_555 1_555
C51_55 C46_55 1_555 1_555
H24_55 C51_55 1_555 1_555
C52_55 O19_55 1_555 1_555
C53_55 C48_55 1_555 1_555
C54_55 C50_55 1_555 1_555
Zn11_31 O17_55 1_555 1_555
Zn19_31 O26_55 1_555 1_555
O25_55 Zn11_31 1_555 1_555
O26_55 C61_55 1_555 1_555
C61_55 O25_55 1_555 1_555
O32_31 Zn19_31 1_555 1_555
C43_55 C44_55 1_555 1_555
C46_55 C52_55 1_555 1_555
C50_55 C51_55 1_555 1_555
Zn9_31 O1_55 1_555 1_555
Zn17_31 O2_55 1_555 1_555
O1_55 C7_55 1_555 1_555
O2_55 C7_55 1_555 1_555
O33_28 C8_55 1_555 1_555
O4_55 C8_55 1_555 1_555
O34_31 C9_55 1_555 1_555
O37_31 C9_55 1_555 1_555
C1_55 C2_55 1_555 1_555
C2_55 H1_55 1_555 1_555
C3_55 C2_55 1_555 1_555
C4_55 C3_55 1_555 1_555
H2_55 C4_55 1_555 1_555
C5_55 C4_55 1_555 1_555
C6_55 C1_55 1_555 1_555
H3_55 C6_55 1_555 1_555
C7_55 C1_55 1_555 1_555
C8_55 C3_55 1_555 1_555
C9_55 C5_55 1_555 1_555
O9_55 Zn9_31 1_555 1_555
C21_55 O9_55 1_555 1_555
O27_31 C62_55 1_555 1_555
O28_55 C62_55 1_555 1_555
O36_31 C63_55 1_555 1_555
O39_31 C63_55 1_555 1_555
C55_55 C56_55 1_555 1_555
C56_55 H25_55 1_555 1_555
C57_55 C56_55 1_555 1_555
C58_55 C57_55 1_555 1_555
H26_55 C58_55 1_555 1_555
C59_55 C58_55 1_555 1_555
C60_55 C55_55 1_555 1_555
H27_55 C60_55 1_555 1_555
C62_55 C57_55 1_555 1_555
C63_55 C59_55 1_555 1_555
Zn18_26 O27_31 1_555 1_555
C5_55 C6_55 1_555 1_555
C59_55 C60_55 1_555 1_555
Zn9_8 O1_56 1_555 1_555
Zn17_8 O2_56 1_555 1_555
O1_56 C7_56 1_555 1_555
O2_56 C7_56 1_555 1_555
O33_27 C8_56 1_555 1_555
O4_56 C8_56 1_555 1_555
O34_8 C9_56 1_555 1_555
O37_8 C9_56 1_555 1_555
C1_56 C2_56 1_555 1_555
C2_56 H1_56 1_555 1_555
C3_56 C2_56 1_555 1_555
C4_56 C3_56 1_555 1_555
H2_56 C4_56 1_555 1_555
C5_56 C4_56 1_555 1_555
C6_56 C1_56 1_555 1_555
H3_56 C6_56 1_555 1_555
C7_56 C1_56 1_555 1_555
C8_56 C3_56 1_555 1_555
C9_56 C5_56 1_555 1_555
O9_56 Zn9_8 1_555 1_555
O10_56 C21_56 1_555 1_555
C19_56 C20_56 1_555 1_555
C20_56 H9_56 1_555 1_555
C21_56 O9_56 1_555 1_555
O15_56 C42_56 1_555 1_555
O16_56 C42_56 1_555 1_555
C40_56 C20_56 1_555 1_555
C41_56 C40_56 1_555 1_555
H20_56 C41_56 1_555 1_555
C42_56 C40_56 1_555 1_555
O17_56 C45_56 1_555 1_555
O18_56 C45_56 1_555 1_555
C43_56 C41_56 1_555 1_555
C44_56 C19_56 1_555 1_555
H21_56 C44_56 1_555 1_555
C45_56 C43_56 1_555 1_555
Zn10_8 O15_56 1_555 1_555
Zn18_8 O20_56 1_555 1_555
O19_56 Zn10_8 1_555 1_555
O20_56 C52_56 1_555 1_555
O32_18 C53_56 1_555 1_555
O22_56 C53_56 1_555 1_555
O35_8 C54_56 1_555 1_555
O38_8 C54_56 1_555 1_555
C46_56 C47_56 1_555 1_555
C47_56 H22_56 1_555 1_555
C48_56 C47_56 1_555 1_555
C49_56 C48_56 1_555 1_555
H23_56 C49_56 1_555 1_555
C50_56 C49_56 1_555 1_555
C51_56 C46_56 1_555 1_555
H24_56 C51_56 1_555 1_555
C52_56 O19_56 1_555 1_555
C53_56 C48_56 1_555 1_555
C54_56 C50_56 1_555 1_555
Zn11_8 O17_56 1_555 1_555
Zn19_8 O26_56 1_555 1_555
O25_56 Zn11_8 1_555 1_555
O26_56 C61_56 1_555 1_555
O27_32 C62_56 1_555 1_555
O28_56 C62_56 1_555 1_555
O36_8 C63_56 1_555 1_555
O39_8 C63_56 1_555 1_555
C55_56 C56_56 1_555 1_555
C56_56 H25_56 1_555 1_555
C57_56 C56_56 1_555 1_555
C58_56 C57_56 1_555 1_555
H26_56 C58_56 1_555 1_555
C59_56 C58_56 1_555 1_555
C60_56 C55_56 1_555 1_555
H27_56 C60_56 1_555 1_555
C61_56 O25_56 1_555 1_555
C62_56 C57_56 1_555 1_555
C63_56 C59_56 1_555 1_555
Zn18 O27_32 1_555 1_555
O32_32 Zn19_8 1_555 1_555
C5_56 C6_56 1_555 1_555
C19_56 C21_56 1_555 1_555
C43_56 C44_56 1_555 1_555
C46_56 C52_56 1_555 1_555
C50_56 C51_56 1_555 1_555
C55_56 C61_56 1_555 1_555
C59_56 C60_56 1_555 1_555
O33_21 C8_57 1_555 1_555
O4_57 C8_57 1_555 1_555
O34 C9_57 1_555 1_555
O37 C9_57 1_555 1_555
C1_57 C2_57 1_555 1_555
C2_57 H1_57 1_555 1_555
C3_57 C2_57 1_555 1_555
C4_57 C3_57 1_555 1_555
H2_57 C4_57 1_555 1_555
C5_57 C4_57 1_555 1_555
C6_57 C1_57 1_555 1_555
H3_57 C6_57 1_555 1_555
C8_57 C3_57 1_555 1_555
C9_57 C5_57 1_555 1_555
O15_57 C42_57 1_555 1_555
Zn10 O15_57 1_555 1_555
Zn18 O20_57 1_555 1_555
O19_57 Zn10 1_555 1_555
O20_57 C52_57 1_555 1_555
O32_32 C53_57 1_555 1_555
O22_57 C53_57 1_555 1_555
O35 C54_57 1_555 1_555
O38 C54_57 1_555 1_555
C46_57 C47_57 1_555 1_555
C47_57 H22_57 1_555 1_555
C48_57 C47_57 1_555 1_555
C49_57 C48_57 1_555 1_555
H23_57 C49_57 1_555 1_555
C50_57 C49_57 1_555 1_555
C51_57 C46_57 1_555 1_555
H24_57 C51_57 1_555 1_555
C52_57 O19_57 1_555 1_555
C53_57 C48_57 1_555 1_555
C54_57 C50_57 1_555 1_555
C5_57 C6_57 1_555 1_555
C46_57 C52_57 1_555 1_555
C50_57 C51_57 1_555 1_555
Zn9 O1_57 1_555 1_555
Zn17 O2_57 1_555 1_555
O1_57 C7_57 1_555 1_555
O2_57 C7_57 1_555 1_555
O9_57 Zn9 1_555 1_555
O10_57 C21_57 1_555 1_555
C19_57 C20_57 1_555 1_555
C20_57 H9_57 1_555 1_555
C21_57 O9_57 1_555 1_555
C40_57 C20_57 1_555 1_555
C41_57 C40_57 1_555 1_555
H20_57 C41_57 1_555 1_555
O17_57 C45_57 1_555 1_555
O18_57 C45_57 1_555 1_555
C43_57 C41_57 1_555 1_555
C44_57 C19_57 1_555 1_555
H21_57 C44_57 1_555 1_555
C45_57 C43_57 1_555 1_555
Zn11 O17_57 1_555 1_555
Zn19 O26_57 1_555 1_555
O25_57 Zn11 1_555 1_555
O26_57 C61_57 1_555 1_555
O31_27 C62_57 1_555 1_555
O28_57 C62_57 1_555 1_555
O36 C63_57 1_555 1_555
O39 C63_57 1_555 1_555
C55_57 C56_57 1_555 1_555
C56_57 H25_57 1_555 1_555
C57_57 C56_57 1_555 1_555
C58_57 C57_57 1_555 1_555
H26_57 C58_57 1_555 1_555
C59_57 C58_57 1_555 1_555
C60_57 C55_57 1_555 1_555
H27_57 C60_57 1_555 1_555
C61_57 O25_57 1_555 1_555
C62_57 C57_57 1_555 1_555
C63_57 C59_57 1_555 1_555
C19_57 C21_57 1_555 1_555
C43_57 C44_57 1_555 1_555
C55_57 C61_57 1_555 1_555
C59_57 C60_57 1_555 1_555
O31_28 C62_58 1_555 1_555
O28_58 C62_58 1_555 1_555
O36_26 C63_58 1_555 1_555
O39_26 C63_58 1_555 1_555
C55_58 C56_58 1_555 1_555
C56_58 H25_58 1_555 1_555
C57_58 C56_58 1_555 1_555
C58_58 C57_58 1_555 1_555
H26_58 C58_58 1_555 1_555
C59_58 C58_58 1_555 1_555
C60_58 C55_58 1_555 1_555
H27_58 C60_58 1_555 1_555
C62_58 C57_58 1_555 1_555
C63_58 C59_58 1_555 1_555
C59_58 C60_58 1_555 1_555
O17_58 C45_58 1_555 1_555
O32_31 C53_58 1_555 1_555
O22_58 C53_58 1_555 1_555
O35_26 C54_58 1_555 1_555
O38_26 C54_58 1_555 1_555
C46_58 C47_58 1_555 1_555
C47_58 H22_58 1_555 1_555
C48_58 C47_58 1_555 1_555
C49_58 C48_58 1_555 1_555
H23_58 C49_58 1_555 1_555
C50_58 C49_58 1_555 1_555
C51_58 C46_58 1_555 1_555
H24_58 C51_58 1_555 1_555
C53_58 C48_58 1_555 1_555
C54_58 C50_58 1_555 1_555
Zn11_26 O17_58 1_555 1_555
Zn19_26 O26_58 1_555 1_555
O25_58 Zn11_26 1_555 1_555
O26_58 C61_58 1_555 1_555
C61_58 O25_58 1_555 1_555
C50_58 C51_58 1_555 1_555
Zn9_26 O1_58 1_555 1_555
Zn17_26 O2_58 1_555 1_555
O1_58 C7_58 1_555 1_555
O2_58 C7_58 1_555 1_555
O33_22 C8_58 1_555 1_555
O4_58 C8_58 1_555 1_555
O34_26 C9_58 1_555 1_555
O37_26 C9_58 1_555 1_555
C1_58 C2_58 1_555 1_555
C2_58 H1_58 1_555 1_555
C3_58 C2_58 1_555 1_555
C4_58 C3_58 1_555 1_555
H2_58 C4_58 1_555 1_555
C5_58 C4_58 1_555 1_555
C6_58 C1_58 1_555 1_555
H3_58 C6_58 1_555 1_555
C7_58 C1_58 1_555 1_555
C8_58 C3_58 1_555 1_555
C9_58 C5_58 1_555 1_555
O9_58 Zn9_26 1_555 1_555
C21_58 O9_58 1_555 1_555
C5_58 C6_58 1_555 1_555
C19_58 C20_58 1_555 1_555
C20_58 H9_58 1_555 1_555
O15_58 C42_58 1_555 1_555
O16_58 C42_58 1_555 1_555
C40_58 C20_58 1_555 1_555
C41_58 C40_58 1_555 1_555
H20_58 C41_58 1_555 1_555
C42_58 C40_58 1_555 1_555
C43_58 C41_58 1_555 1_555
C44_58 C19_58 1_555 1_555
H21_58 C44_58 1_555 1_555
Zn10_26 O15_58 1_555 1_555
Zn18_26 O20_58 1_555 1_555
O19_58 Zn10_26 1_555 1_555
O20_58 C52_58 1_555 1_555
C52_58 O19_58 1_555 1_555
C43_58 C44_58 1_555 1_555
Zn9_19 O1_59 1_555 1_555
Zn17_19 O2_59 1_555 1_555
O1_59 C7_59 1_555 1_555
O2_59 C7_59 1_555 1_555
O33_24 C8_59 1_555 1_555
O4_59 C8_59 1_555 1_555
O34_19 C9_59 1_555 1_555
O37_19 C9_59 1_555 1_555
C1_59 C2_59 1_555 1_555
C2_59 H1_59 1_555 1_555
C3_59 C2_59 1_555 1_555
C4_59 C3_59 1_555 1_555
H2_59 C4_59 1_555 1_555
C5_59 C4_59 1_555 1_555
C6_59 C1_59 1_555 1_555
H3_59 C6_59 1_555 1_555
C7_59 C1_59 1_555 1_555
C8_59 C3_59 1_555 1_555
C9_59 C5_59 1_555 1_555
O9_59 Zn9_19 1_555 1_555
O10_59 C21_59 1_555 1_555
C19_59 C20_59 1_555 1_555
C20_59 H9_59 1_555 1_555
C21_59 O9_59 1_555 1_555
O15_59 C42_59 1_555 1_555
O16_59 C42_59 1_555 1_555
C40_59 C20_59 1_555 1_555
C41_59 C40_59 1_555 1_555
H20_59 C41_59 1_555 1_555
C42_59 C40_59 1_555 1_555
O17_59 C45_59 1_555 1_555
O18_59 C45_59 1_555 1_555
C43_59 C41_59 1_555 1_555
C44_59 C19_59 1_555 1_555
H21_59 C44_59 1_555 1_555
C45_59 C43_59 1_555 1_555
Zn10_19 O15_59 1_555 1_555
Zn18_19 O20_59 1_555 1_555
O19_59 Zn10_19 1_555 1_555
O20_59 C52_59 1_555 1_555
O32_29 C53_59 1_555 1_555
O22_59 C53_59 1_555 1_555
O35_19 C54_59 1_555 1_555
O38_19 C54_59 1_555 1_555
C46_59 C47_59 1_555 1_555
C47_59 H22_59 1_555 1_555
C48_59 C47_59 1_555 1_555
C49_59 C48_59 1_555 1_555
H23_59 C49_59 1_555 1_555
C50_59 C49_59 1_555 1_555
C51_59 C46_59 1_555 1_555
H24_59 C51_59 1_555 1_555
C52_59 O19_59 1_555 1_555
C53_59 C48_59 1_555 1_555
C54_59 C50_59 1_555 1_555
Zn11_19 O17_59 1_555 1_555
Zn19_19 O26_59 1_555 1_555
O25_59 Zn11_19 1_555 1_555
O26_59 C61_59 1_555 1_555
O31_26 C62_59 1_555 1_555
O28_59 C62_59 1_555 1_555
O36_19 C63_59 1_555 1_555
O39_19 C63_59 1_555 1_555
C55_59 C56_59 1_555 1_555
C56_59 H25_59 1_555 1_555
C57_59 C56_59 1_555 1_555
C58_59 C57_59 1_555 1_555
H26_59 C58_59 1_555 1_555
C59_59 C58_59 1_555 1_555
C60_59 C55_59 1_555 1_555
H27_59 C60_59 1_555 1_555
C61_59 O25_59 1_555 1_555
C62_59 C57_59 1_555 1_555
C63_59 C59_59 1_555 1_555
C5_59 C6_59 1_555 1_555
C19_59 C21_59 1_555 1_555
C43_59 C44_59 1_555 1_555
C46_59 C52_59 1_555 1_555
C50_59 C51_59 1_555 1_555
C55_59 C61_59 1_555 1_555
C59_59 C60_59 1_555 1_555
Zn9_12 O1_60 1_555 1_555
Zn17_12 O2_60 1_555 1_555
O1_60 C7_60 1_555 1_555
O2_60 C7_60 1_555 1_555
O33_23 C8_60 1_555 1_555
O4_60 C8_60 1_555 1_555
O34_12 C9_60 1_555 1_555
O37_12 C9_60 1_555 1_555
C1_60 C2_60 1_555 1_555
C2_60 H1_60 1_555 1_555
C3_60 C2_60 1_555 1_555
C4_60 C3_60 1_555 1_555
H2_60 C4_60 1_555 1_555
C5_60 C4_60 1_555 1_555
C6_60 C1_60 1_555 1_555
H3_60 C6_60 1_555 1_555
C7_60 C1_60 1_555 1_555
C8_60 C3_60 1_555 1_555
C9_60 C5_60 1_555 1_555
O9_60 Zn9_12 1_555 1_555
O10_60 C21_60 1_555 1_555
C19_60 C20_60 1_555 1_555
C20_60 H9_60 1_555 1_555
C21_60 O9_60 1_555 1_555
O15_60 C42_60 1_555 1_555
O16_60 C42_60 1_555 1_555
C40_60 C20_60 1_555 1_555
C41_60 C40_60 1_555 1_555
H20_60 C41_60 1_555 1_555
C42_60 C40_60 1_555 1_555
O17_60 C45_60 1_555 1_555
O18_60 C45_60 1_555 1_555
C43_60 C41_60 1_555 1_555
C44_60 C19_60 1_555 1_555
H21_60 C44_60 1_555 1_555
C45_60 C43_60 1_555 1_555
Zn10_12 O15_60 1_555 1_555
Zn18_12 O20_60 1_555 1_555
O19_60 Zn10_12 1_555 1_555
O20_60 C52_60 1_555 1_555
O32_30 C53_60 1_555 1_555
O22_60 C53_60 1_555 1_555
O35_12 C54_60 1_555 1_555
O38_12 C54_60 1_555 1_555
C46_60 C47_60 1_555 1_555
C47_60 H22_60 1_555 1_555
C48_60 C47_60 1_555 1_555
C49_60 C48_60 1_555 1_555
H23_60 C49_60 1_555 1_555
C50_60 C49_60 1_555 1_555
C51_60 C46_60 1_555 1_555
H24_60 C51_60 1_555 1_555
C52_60 O19_60 1_555 1_555
C53_60 C48_60 1_555 1_555
C54_60 C50_60 1_555 1_555
Zn11_12 O17_60 1_555 1_555
Zn19_12 O26_60 1_555 1_555
O25_60 Zn11_12 1_555 1_555
O26_60 C61_60 1_555 1_555
O31_25 C62_60 1_555 1_555
O28_60 C62_60 1_555 1_555
O36_12 C63_60 1_555 1_555
O39_12 C63_60 1_555 1_555
C55_60 C56_60 1_555 1_555
C56_60 H25_60 1_555 1_555
C57_60 C56_60 1_555 1_555
C58_60 C57_60 1_555 1_555
H26_60 C58_60 1_555 1_555
C59_60 C58_60 1_555 1_555
C60_60 C55_60 1_555 1_555
H27_60 C60_60 1_555 1_555
C61_60 O25_60 1_555 1_555
C62_60 C57_60 1_555 1_555
C63_60 C59_60 1_555 1_555
C5_60 C6_60 1_555 1_555
C19_60 C21_60 1_555 1_555
C43_60 C44_60 1_555 1_555
C46_60 C52_60 1_555 1_555
C50_60 C51_60 1_555 1_555
C55_60 C61_60 1_555 1_555
C59_60 C60_60 1_555 1_555
Zn9_29 O1_61 1_555 1_555
Zn17_29 O2_61 1_555 1_555
O1_61 C7_61 1_555 1_555
O2_61 C7_61 1_555 1_555
O9_61 Zn9_29 1_555 1_555
O10_61 C21_61 1_555 1_555
C19_61 C20_61 1_555 1_555
C20_61 H9_61 1_555 1_555
C21_61 O9_61 1_555 1_555
C40_61 C20_61 1_555 1_555
C41_61 C40_61 1_555 1_555
H20_61 C41_61 1_555 1_555
O17_61 C45_61 1_555 1_555
O18_61 C45_61 1_555 1_555
C43_61 C41_61 1_555 1_555
C44_61 C19_61 1_555 1_555
H21_61 C44_61 1_555 1_555
C45_61 C43_61 1_555 1_555
Zn11_29 O17_61 1_555 1_555
Zn19_29 O26_61 1_555 1_555
O25_61 Zn11_29 1_555 1_555
O26_61 C61_61 1_555 1_555
O31_31 C62_61 1_555 1_555
O28_61 C62_61 1_555 1_555
O36_29 C63_61 1_555 1_555
O39_29 C63_61 1_555 1_555
C55_61 C56_61 1_555 1_555
C56_61 H25_61 1_555 1_555
C57_61 C56_61 1_555 1_555
C58_61 C57_61 1_555 1_555
H26_61 C58_61 1_555 1_555
C59_61 C58_61 1_555 1_555
C60_61 C55_61 1_555 1_555
H27_61 C60_61 1_555 1_555
C61_61 O25_61 1_555 1_555
C62_61 C57_61 1_555 1_555
C63_61 C59_61 1_555 1_555
C19_61 C21_61 1_555 1_555
C43_61 C44_61 1_555 1_555
C55_61 C61_61 1_555 1_555
C59_61 C60_61 1_555 1_555
O33_17 C8_61 1_555 1_555
O4_61 C8_61 1_555 1_555
O34_29 C9_61 1_555 1_555
O37_29 C9_61 1_555 1_555
C1_61 C2_61 1_555 1_555
C2_61 H1_61 1_555 1_555
C3_61 C2_61 1_555 1_555
C4_61 C3_61 1_555 1_555
H2_61 C4_61 1_555 1_555
C5_61 C4_61 1_555 1_555
C6_61 C1_61 1_555 1_555
H3_61 C6_61 1_555 1_555
C8_61 C3_61 1_555 1_555
C9_61 C5_61 1_555 1_555
O15_61 C42_61 1_555 1_555
Zn10_29 O15_61 1_555 1_555
Zn18_29 O20_61 1_555 1_555
O19_61 Zn10_29 1_555 1_555
O20_61 C52_61 1_555 1_555
O32_28 C53_61 1_555 1_555
O22_61 C53_61 1_555 1_555
O35_29 C54_61 1_555 1_555
O38_29 C54_61 1_555 1_555
C46_61 C47_61 1_555 1_555
C47_61 H22_61 1_555 1_555
C48_61 C47_61 1_555 1_555
C49_61 C48_61 1_555 1_555
H23_61 C49_61 1_555 1_555
C50_61 C49_61 1_555 1_555
C51_61 C46_61 1_555 1_555
H24_61 C51_61 1_555 1_555
C52_61 O19_61 1_555 1_555
C53_61 C48_61 1_555 1_555
C54_61 C50_61 1_555 1_555
C5_61 C6_61 1_555 1_555
C46_61 C52_61 1_555 1_555
C50_61 C51_61 1_555 1_555
Zn9_6 O1_62 1_555 1_555
Zn17_6 O2_62 1_555 1_555
O1_62 C7_62 1_555 1_555
O2_62 C7_62 1_555 1_555
O33_18 C8_62 1_555 1_555
O4_62 C8_62 1_555 1_555
O34_6 C9_62 1_555 1_555
O37_6 C9_62 1_555 1_555
C1_62 C2_62 1_555 1_555
C2_62 H1_62 1_555 1_555
C3_62 C2_62 1_555 1_555
C4_62 C3_62 1_555 1_555
H2_62 C4_62 1_555 1_555
C5_62 C4_62 1_555 1_555
C6_62 C1_62 1_555 1_555
H3_62 C6_62 1_555 1_555
C7_62 C1_62 1_555 1_555
C8_62 C3_62 1_555 1_555
C9_62 C5_62 1_555 1_555
O9_62 Zn9_6 1_555 1_555
O10_62 C21_62 1_555 1_555
C19_62 C20_62 1_555 1_555
C20_62 H9_62 1_555 1_555
C21_62 O9_62 1_555 1_555
O15_62 C42_62 1_555 1_555
O16_62 C42_62 1_555 1_555
C40_62 C20_62 1_555 1_555
C41_62 C40_62 1_555 1_555
H20_62 C41_62 1_555 1_555
C42_62 C40_62 1_555 1_555
O17_62 C45_62 1_555 1_555
O18_62 C45_62 1_555 1_555
C43_62 C41_62 1_555 1_555
C44_62 C19_62 1_555 1_555
H21_62 C44_62 1_555 1_555
C45_62 C43_62 1_555 1_555
Zn10_6 O15_62 1_555 1_555
Zn18_6 O20_62 1_555 1_555
O19_62 Zn10_6 1_555 1_555
O20_62 C52_62 1_555 1_555
O32_27 C53_62 1_555 1_555
O22_62 C53_62 1_555 1_555
O35_6 C54_62 1_555 1_555
O38_6 C54_62 1_555 1_555
C46_62 C47_62 1_555 1_555
C47_62 H22_62 1_555 1_555
C48_62 C47_62 1_555 1_555
C49_62 C48_62 1_555 1_555
H23_62 C49_62 1_555 1_555
C50_62 C49_62 1_555 1_555
C51_62 C46_62 1_555 1_555
H24_62 C51_62 1_555 1_555
C52_62 O19_62 1_555 1_555
C53_62 C48_62 1_555 1_555
C54_62 C50_62 1_555 1_555
Zn11_6 O17_62 1_555 1_555
Zn19_6 O26_62 1_555 1_555
O25_62 Zn11_6 1_555 1_555
O26_62 C61_62 1_555 1_555
O31_32 C62_62 1_555 1_555
O28_62 C62_62 1_555 1_555
O36_6 C63_62 1_555 1_555
O39_6 C63_62 1_555 1_555
C55_62 C56_62 1_555 1_555
C56_62 H25_62 1_555 1_555
C57_62 C56_62 1_555 1_555
C58_62 C57_62 1_555 1_555
H26_62 C58_62 1_555 1_555
C59_62 C58_62 1_555 1_555
C60_62 C55_62 1_555 1_555
H27_62 C60_62 1_555 1_555
C61_62 O25_62 1_555 1_555
C62_62 C57_62 1_555 1_555
C63_62 C59_62 1_555 1_555
C5_62 C6_62 1_555 1_555
C19_62 C21_62 1_555 1_555
C43_62 C44_62 1_555 1_555
C46_62 C52_62 1_555 1_555
C50_62 C51_62 1_555 1_555
C55_62 C61_62 1_555 1_555
C59_62 C60_62 1_555 1_555
C19_63 C20_63 1_555 1_555
C20_63 H9_63 1_555 1_555
O15_63 C42_63 1_555 1_555
O16_63 C42_63 1_555 1_555
C40_63 C20_63 1_555 1_555
C41_63 C40_63 1_555 1_555
H20_63 C41_63 1_555 1_555
C42_63 C40_63 1_555 1_555
O17_63 C45_63 1_555 1_555
O18_63 C45_63 1_555 1_555
C43_63 C41_63 1_555 1_555
C44_63 C19_63 1_555 1_555
H21_63 C44_63 1_555 1_555
C45_63 C43_63 1_555 1_555
Zn10_23 O15_63 1_555 1_555
Zn18_23 O20_63 1_555 1_555
O19_63 Zn10_23 1_555 1_555
O20_63 C52_63 1_555 1_555
O32_25 C53_63 1_555 1_555
O22_63 C53_63 1_555 1_555
O35_23 C54_63 1_555 1_555
O38_23 C54_63 1_555 1_555
C46_63 C47_63 1_555 1_555
C47_63 H22_63 1_555 1_555
C48_63 C47_63 1_555 1_555
C49_63 C48_63 1_555 1_555
H23_63 C49_63 1_555 1_555
C50_63 C49_63 1_555 1_555
C51_63 C46_63 1_555 1_555
H24_63 C51_63 1_555 1_555
C52_63 O19_63 1_555 1_555
C53_63 C48_63 1_555 1_555
C54_63 C50_63 1_555 1_555
Zn11_23 O17_63 1_555 1_555
Zn19_23 O26_63 1_555 1_555
O25_63 Zn11_23 1_555 1_555
O26_63 C61_63 1_555 1_555
C61_63 O25_63 1_555 1_555
C43_63 C44_63 1_555 1_555
C46_63 C52_63 1_555 1_555
C50_63 C51_63 1_555 1_555
Zn9_23 O1_63 1_555 1_555
Zn17_23 O2_63 1_555 1_555
O1_63 C7_63 1_555 1_555
O2_63 C7_63 1_555 1_555
O33_20 C8_63 1_555 1_555
O4_63 C8_63 1_555 1_555
O34_23 C9_63 1_555 1_555
O37_23 C9_63 1_555 1_555
C1_63 C2_63 1_555 1_555
C2_63 H1_63 1_555 1_555
C3_63 C2_63 1_555 1_555
C4_63 C3_63 1_555 1_555
H2_63 C4_63 1_555 1_555
C5_63 C4_63 1_555 1_555
C6_63 C1_63 1_555 1_555
H3_63 C6_63 1_555 1_555
C7_63 C1_63 1_555 1_555
C8_63 C3_63 1_555 1_555
C9_63 C5_63 1_555 1_555
O9_63 Zn9_23 1_555 1_555
C21_63 O9_63 1_555 1_555
O31_30 C62_63 1_555 1_555
O28_63 C62_63 1_555 1_555
O36_23 C63_63 1_555 1_555
O39_23 C63_63 1_555 1_555
C55_63 C56_63 1_555 1_555
C56_63 H25_63 1_555 1_555
C57_63 C56_63 1_555 1_555
C58_63 C57_63 1_555 1_555
H26_63 C58_63 1_555 1_555
C59_63 C58_63 1_555 1_555
C60_63 C55_63 1_555 1_555
H27_63 C60_63 1_555 1_555
C62_63 C57_63 1_555 1_555
C63_63 C59_63 1_555 1_555
C5_63 C6_63 1_555 1_555
C59_63 C60_63 1_555 1_555
Zn9_16 O1_64 1_555 1_555
Zn17_16 O2_64 1_555 1_555
O1_64 C7_64 1_555 1_555
O2_64 C7_64 1_555 1_555
O33_19 C8_64 1_555 1_555
O4_64 C8_64 1_555 1_555
O34_16 C9_64 1_555 1_555
O37_16 C9_64 1_555 1_555
C1_64 C2_64 1_555 1_555
C2_64 H1_64 1_555 1_555
C3_64 C2_64 1_555 1_555
C4_64 C3_64 1_555 1_555
H2_64 C4_64 1_555 1_555
C5_64 C4_64 1_555 1_555
C6_64 C1_64 1_555 1_555
H3_64 C6_64 1_555 1_555
C7_64 C1_64 1_555 1_555
C8_64 C3_64 1_555 1_555
C9_64 C5_64 1_555 1_555
O9_64 Zn9_16 1_555 1_555
O10_64 C21_64 1_555 1_555
C19_64 C20_64 1_555 1_555
C20_64 H9_64 1_555 1_555
C21_64 O9_64 1_555 1_555
O15_64 C42_64 1_555 1_555
O16_64 C42_64 1_555 1_555
C40_64 C20_64 1_555 1_555
C41_64 C40_64 1_555 1_555
H20_64 C41_64 1_555 1_555
C42_64 C40_64 1_555 1_555
C43_64 C41_64 1_555 1_555
C44_64 C19_64 1_555 1_555
H21_64 C44_64 1_555 1_555
Zn10_16 O15_64 1_555 1_555
Zn18_16 O20_64 1_555 1_555
O19_64 Zn10_16 1_555 1_555
O20_64 C52_64 1_555 1_555
C52_64 O19_64 1_555 1_555
C5_64 C6_64 1_555 1_555
C19_64 C21_64 1_555 1_555
C43_64 C44_64 1_555 1_555
O17_64 C45_64 1_555 1_555
O32_26 C53_64 1_555 1_555
O22_64 C53_64 1_555 1_555
O35_16 C54_64 1_555 1_555
O38_16 C54_64 1_555 1_555
C46_64 C47_64 1_555 1_555
C47_64 H22_64 1_555 1_555
C48_64 C47_64 1_555 1_555
C49_64 C48_64 1_555 1_555
H23_64 C49_64 1_555 1_555
C50_64 C49_64 1_555 1_555
C51_64 C46_64 1_555 1_555
H24_64 C51_64 1_555 1_555
C53_64 C48_64 1_555 1_555
C54_64 C50_64 1_555 1_555
Zn11_16 O17_64 1_555 1_555
Zn19_16 O26_64 1_555 1_555
O25_64 Zn11_16 1_555 1_555
O26_64 C61_64 1_555 1_555
O31_29 C62_64 1_555 1_555
O28_64 C62_64 1_555 1_555
O36_16 C63_64 1_555 1_555
O39_16 C63_64 1_555 1_555
C55_64 C56_64 1_555 1_555
C56_64 H25_64 1_555 1_555
C57_64 C56_64 1_555 1_555
C58_64 C57_64 1_555 1_555
H26_64 C58_64 1_555 1_555
C59_64 C58_64 1_555 1_555
C60_64 C55_64 1_555 1_555
H27_64 C60_64 1_555 1_555
C61_64 O25_64 1_555 1_555
C62_64 C57_64 1_555 1_555
C63_64 C59_64 1_555 1_555
C50_64 C51_64 1_555 1_555
C55_64 C61_64 1_555 1_555
C59_64 C60_64 1_555 1_555

#END
