
###############################################################################
#
# This file contains modified crystal structure data generated from the
# MOF subset of the Cambridge Structural Database (CSD) v543 
# hosted by the Cambridge Crystallographic Data Centre (CCDC).
#
# This work is licensed under the Creative Commons
# Attribution-NonCommercial-ShareAlike 4.0 International License.
# To view a copy of this license, visit
# http://creativecommons.org/licenses/by-nc-sa/4.0/
# or send a letter to
# Creative Commons, PO Box 1866, Mountain View, CA 94042, USA.
#
# CIF created using the CSD Python API on 29 September 2022
# The structure has been converted into the P1 space group
# The structure has a 3D framework
# The original CSD entry SIKHUQ is in the rhombohedral crystal system
# The framework has been calculated to contain at least 10.0% void space
# The void calculation uses a probe of radius 1.32A, grid spacing 0.4
# The framework is charged, counterions have been retained in the structure
#
###############################################################################

data_SIKHUQ
_chemical_formula_moiety         '(C216 H216 Ag23 Cl48 N102 O120 13-)n'
_symmetry_cell_setting           triclinic
_symmetry_space_group_name_H-M   'P 1'
_symmetry_Int_Tables_number      1
_space_group_name_Hall           'P 1'
loop_
_symmetry_equiv_pos_site_id
_symmetry_equiv_pos_as_xyz
1 x,y,z
_cell_length_a                   12.3993(6)
_cell_length_b                   12.3993(6)
_cell_length_c                   66.177(6)
_cell_angle_alpha                90
_cell_angle_beta                 90
_cell_angle_gamma                120.00
_cell_volume                     8811.14
loop_
_atom_site_label
_atom_site_type_symbol
_atom_site_fract_x
_atom_site_fract_y
_atom_site_fract_z
Ag8 Ag -0.00000(8) 0.78388(6) 0.2500
H9 H 0.0694 0.6604 0.2892
Ag5 Ag 0.6667 0.3333 0.3333
Ag7 Ag 0.78388(6) -0.00000(8) 0.2500
Ag10 Ag 0.21612(6) 0.21612(6) 0.2500
N8 N 0.3222(5) 0.2514(5) 0.28025(7)
N15 N 0.4683(7) 0.2831(6) 0.31383(9)
N28 N 0.2542(4) 0.0559(5) 0.25580(7)
C11 C 0.3608(7) 0.3487(6) 0.29219(10)
H8 H 0.6604 0.0694 0.2108
H11 H 0.3396 0.4090 0.2892
C16 C 0.4327(8) 0.3632(7) 0.30922(11)
H16 H 0.4561 0.4318 0.3176
C21 C 0.4240(9) 0.1806(7) 0.30242(11)
H21 H 0.4416 0.1185 0.3060
C26 C 0.3514(6) 0.1643(6) 0.28513(8)
C31 C 0.3062(6) 0.0522(6) 0.27240(9)
C35 C 0.3775(13) 0.0521(9) 0.22104(16)
H25 H 0.4086 0.1170 0.2310
H30 H 0.3686 0.0844 0.2084
H35 H 0.4350 0.0221 0.2195
Ag1 Ag 0.3333 0.6667 0.1667
N1 N 0.2514(5) 0.3222(5) 0.21975(7)
N2 N 0.2831(6) 0.4683(7) 0.18617(9)
N3 N 0.0559(5) 0.2542(4) 0.24420(7)
C1 C 0.3487(6) 0.3608(7) 0.20781(10)
H1 H 0.4090 0.3396 0.2108
C2 C 0.3632(7) 0.4327(8) 0.19078(11)
H2 H 0.4318 0.4561 0.1824
C3 C 0.1806(7) 0.4240(9) 0.19758(11)
H3 H 0.1185 0.4416 0.1940
C4 C 0.1643(6) 0.3514(6) 0.21487(8)
C5 C 0.0522(6) 0.3062(6) 0.22760(9)
Ag7_2 Ag 0.78388(6) 1.00000(8) 0.2500
Ag8_2 Ag 1.00000(8) 0.78388(6) 0.2500
N5 N 0.6778(5) 0.9292(7) 0.21975(7)
N6 N 0.9292(7) 0.6778(5) 0.28025(7)
N7 N 0.0708(7) 0.7486(5) 0.21975(7)
N12 N 0.5317(7) 0.8148(9) 0.18617(9)
N13 N 0.8148(9) 0.5317(7) 0.31383(9)
N14 N 0.1852(9) 0.7169(6) 0.18617(9)
N16 N 0.1350(7) 0.5185(9) 0.14716(9)
N17 N 0.4815(9) 0.6164(6) 0.14716(9)
N18 N 0.3836(6) 0.8650(7) 0.14716(9)
N25 N 0.7458(4) 0.8017(6) 0.24420(7)
N26 N 0.8017(6) 0.7458(4) 0.25580(7)
N27 N 0.1983(6) 0.9441(5) 0.24420(7)
C8 C 0.6392(7) 0.9879(9) 0.20781(10)
C9 C 0.9879(9) 0.6392(7) 0.29219(10)
C10 C 0.0121(9) 0.6513(6) 0.20781(10)
C13 C 0.5673(8) 0.9305(11) 0.19078(11)
C14 C 0.9305(11) 0.5673(8) 0.30922(11)
C15 C 0.0695(11) 0.6368(7) 0.19078(11)
H13 H 0.5439 0.9757 0.1824
H14 H 0.9757 0.5439 0.3176
H15 H 0.0243 0.5682 0.1824
C18 C 0.5760(9) 0.7566(11) 0.19758(11)
C19 C 0.7566(11) 0.5760(9) 0.30242(11)
C20 C 0.2434(11) 0.8194(7) 0.19758(11)
H18 H 0.5584 0.6769 0.1940
H19 H 0.6769 0.5584 0.3060
H20 H 0.3231 0.8815 0.1940
C23 C 0.6486(6) 0.8129(8) 0.21487(8)
C24 C 0.8129(8) 0.6486(6) 0.28513(8)
C25 C 0.1871(8) 0.8357(6) 0.21487(8)
C28 C 0.6938(6) 0.7460(8) 0.22760(9)
C29 C 0.7460(8) 0.6938(6) 0.27240(9)
C30 C 0.2540(8) 0.9478(6) 0.22760(9)
C32 C 0.0521(9) 0.3775(13) 0.27896(16)
C33 C 0.6746(10) 0.6225(13) 0.22104(16)
C34 C 0.6225(13) 0.6746(10) 0.27896(16)
C36 C 0.3254(10) 0.9479(9) 0.27896(16)
H22 H 0.1170 0.4086 0.2690
H23 H 0.7084 0.5914 0.2310
H24 H 0.5914 0.7084 0.2690
H26 H 0.2916 0.8830 0.2690
H27 H 0.0844 0.3686 0.2916
H28 H 0.7158 0.6314 0.2084
H29 H 0.6314 0.7158 0.2916
H31 H 0.2842 0.9156 0.2916
H32 H 0.0221 0.4350 0.2805
H33 H 0.5871 0.5650 0.2195
H34 H 0.5650 0.5871 0.2805
H36 H 0.4129 0.9779 0.2805
C6 C 0.9479(9) 0.3254(10) 0.22104(16)
H4 H 0.8830 0.2916 0.2310
H5 H 0.9156 0.2842 0.2084
H6 H 0.9779 0.4129 0.2195
N4 N 0.7486(5) 0.0708(7) 0.28025(7)
N11 N 0.7169(6) 0.1852(9) 0.31383(9)
N20 N 0.5185(9) 0.1350(7) 0.35284(9)
N21 N 0.6164(6) 0.4815(9) 0.35284(9)
N22 N 0.8650(7) 0.3836(6) 0.35284(9)
N24 N 0.9441(5) 0.1983(6) 0.25580(7)
C7 C 0.6513(6) 0.0121(9) 0.29219(10)
H10 H 0.9306 0.5910 0.2108
C12 C 0.6368(7) 0.0695(11) 0.30922(11)
H12 H 0.5682 0.0243 0.3176
C17 C 0.8194(7) 0.2434(11) 0.30242(11)
H17 H 0.8815 0.3231 0.3060
C22 C 0.8357(6) 0.1871(8) 0.28513(8)
C27 C 0.9478(6) 0.2540(8) 0.27240(9)
H7 H 0.5910 0.9306 0.2892
Ag1_2 Ag -0.0000 0.0000 0.5000
Ag5_2 Ag 0.3334 0.6666 0.6666
Ag7_3 Ag 0.45055(6) 0.33333(8) 0.5833
Ag8_3 Ag 0.66667(8) 0.11721(6) 0.5833
N5_2 N 0.3445(5) 0.2625(7) 0.55308(7)
N6_2 N 0.5959(7) 0.0111(5) 0.61358(7)
N12_2 N 0.1984(7) 0.1481(9) 0.51950(9)
N15_2 N 0.1350(7) 0.6164(6) 0.64716(9)
N18_2 N 0.0502(6) 0.1984(7) 0.48050(9)
N25_2 N 0.4125(4) 0.1350(6) 0.57753(7)
N26_2 N 0.4684(6) 0.0791(4) 0.58913(7)
C8_2 C 0.3059(7) 0.3212(9) 0.54114(10)
C11_2 C 0.0275(7) 0.6820(6) 0.62552(10)
H8_2 H 0.3271 0.4027 0.5441
H11_2 H 0.0063 0.7423 0.6225
C13_2 C 0.2340(8) 0.2638(11) 0.52411(11)
C16_2 C 0.0994(8) 0.6965(7) 0.64255(11)
H13_2 H 0.2106 0.3090 0.5157
H16_2 H 0.1228 0.7651 0.6509
C18_2 C 0.2427(9) 0.0899(11) 0.53091(11)
C21_2 C 0.0907(9) 0.5139(7) 0.63575(11)
H18_2 H 0.2251 0.0102 0.5273
H21_2 H 0.1083 0.4518 0.6393
C23_2 C 0.3153(6) 0.1462(8) 0.54820(8)
C26_2 C 0.0181(6) 0.4976(6) 0.61846(8)
C28_2 C 0.3605(6) 0.0793(8) 0.56093(9)
C29_2 C 0.4127(8) 0.0271(6) 0.60573(9)
C34_2 C 0.2892(13) 0.0079(10) 0.61229(16)
C35_2 C 0.0442(13) 0.3854(9) 0.55437(16)
H24_2 H 0.2581 0.0417 0.6023
H25_2 H 0.0753 0.4503 0.5643
H29_2 H 0.2981 0.0491 0.6249
H30_2 H 0.0353 0.4177 0.5417
H35_2 H 0.1017 0.3554 0.5528
H36_2 H 0.0796 0.3112 0.6138
Ag1_3 Ag -0.0000 1.0000 0.5000
C1_2 C 0.0154(6) 0.6941(7) 0.54114(10)
H1_2 H 0.0757 0.6729 0.5441
C2_2 C 0.0299(7) 0.7660(8) 0.52411(11)
H2_2 H 0.0985 0.7894 0.5157
N13_2 N 0.4815(9) 0.8650(7) 0.64716(9)
N17_2 N 0.1481(9) 0.9498(6) 0.48050(9)
C9_2 C 0.6546(9) 0.9725(7) 0.62552(10)
H9_2 H 0.7361 0.9937 0.6225
C14_2 C 0.5972(11) 0.9006(8) 0.64255(11)
H14_2 H 0.6424 0.8772 0.6509
C19_2 C 0.4233(11) 0.9093(9) 0.63575(11)
H19_2 H 0.3436 0.8917 0.6393
C24_2 C 0.4796(8) 0.9819(6) 0.61846(8)
C33_2 C 0.3413(10) 0.9558(13) 0.55437(16)
H23_2 H 0.3751 0.9247 0.5643
H28_2 H 0.3825 0.9647 0.5417
H33_2 H 0.2538 0.8983 0.5528
H34_2 H 0.2317 0.9204 0.6138
Ag1_4 Ag 1.0000 0.0000 0.5000
Ag10_2 Ag 0.88279(6) 0.54945(6) 0.5833
N7_2 N 0.7375(7) 0.0819(5) 0.55308(7)
N8_2 N 0.9889(5) 0.5847(5) 0.61358(7)
N14_2 N 0.8519(9) 0.0502(6) 0.51950(9)
N27_2 N 0.8650(6) 0.2774(5) 0.57753(7)
N28_2 N 0.9209(4) 0.3892(5) 0.58913(7)
C20_2 C 0.9101(11) 0.1527(7) 0.53091(11)
H20_2 H 0.9898 0.2148 0.5273
C25_2 C 0.8538(8) 0.1690(6) 0.54820(8)
C30_2 C 0.9207(8) 0.2811(6) 0.56093(9)
C31_2 C 0.9729(6) 0.3855(6) 0.60573(9)
C36_2 C 0.9921(10) 0.2812(9) 0.61229(16)
H26_2 H 0.9583 0.2163 0.6023
H31_2 H 0.9509 0.2489 0.6249
Ag1_5 Ag 1.0000 1.0000 0.5000
N1_2 N 0.9181(5) 0.6555(5) 0.55308(7)
N2_2 N 0.9498(6) 0.8016(7) 0.51950(9)
N3_2 N 0.7226(5) 0.5875(4) 0.57753(7)
C3_2 C 0.8473(7) 0.7573(9) 0.53091(11)
H3_2 H 0.7852 0.7749 0.5273
C4_2 C 0.8310(6) 0.6847(6) 0.54820(8)
C5_2 C 0.7189(6) 0.6395(6) 0.56093(9)
C6_2 C 0.6146(9) 0.6587(10) 0.55437(16)
H4_2 H 0.5497 0.6249 0.5643
H5_2 H 0.5823 0.6175 0.5417
H6_2 H 0.6446 0.7462 0.5528
N4_2 N 0.4153(5) 0.4041(7) 0.61358(7)
N11_2 N 0.3836(6) 0.5185(9) 0.64716(9)
N16_2 N 0.8016(7) 0.8519(9) 0.48050(9)
N20_2 N 0.1852(9) 0.4683(7) 0.68617(9)
N21_2 N 0.2831(6) 0.8148(9) 0.68617(9)
N22_2 N 0.5317(7) 0.7169(6) 0.68617(9)
N24_2 N 0.6108(5) 0.5316(6) 0.58913(7)
C7_2 C 0.3180(6) 0.3454(9) 0.62552(10)
C10_2 C 0.6788(9) 0.9846(6) 0.54114(10)
H7_2 H 0.2577 0.2639 0.6225
H10_2 H 0.5973 0.9243 0.5441
C12_2 C 0.3035(7) 0.4028(11) 0.64255(11)
C15_2 C 0.7362(11) 0.9701(7) 0.52411(11)
H12_2 H 0.2349 0.3576 0.6509
H15_2 H 0.6910 0.9015 0.5157
C17_2 C 0.4861(7) 0.5767(11) 0.63575(11)
H17_2 H 0.5482 0.6564 0.6393
C22_2 C 0.5024(6) 0.5204(8) 0.61846(8)
C27_2 C 0.6145(6) 0.5873(8) 0.60573(9)
C32_2 C 0.7188(9) 0.7108(13) 0.61229(16)
H22_2 H 0.7837 0.7419 0.6023
H27_2 H 0.7511 0.7019 0.6249
H32_2 H 0.6888 0.7683 0.6138
Ag5_3 Ag 0.0000 -0.0000 1.0000
Ag5_4 Ag 0.0000 1.0000 1.0000
Ag7_4 Ag 0.11721(6) 0.66667(8) 0.9167
Ag8_4 Ag 0.33333(8) 0.45055(6) 0.9167
N5_3 N 0.0111(5) 0.5959(7) 0.88642(7)
N6_3 N 0.2625(7) 0.3445(5) 0.94692(7)
N13_3 N 0.1481(9) 0.1984(7) 0.98050(9)
N25_3 N 0.0791(4) 0.4684(6) 0.91087(7)
N26_3 N 0.1350(6) 0.4125(4) 0.92247(7)
C9_3 C 0.3212(9) 0.3059(7) 0.95886(10)
H9_3 H 0.4027 0.3271 0.9559
C14_3 C 0.2638(11) 0.2340(8) 0.97589(11)
H14_3 H 0.3090 0.2106 0.9843
C19_3 C 0.0899(11) 0.2427(9) 0.96909(11)
H19_3 H 0.0102 0.2251 0.9727
C24_3 C 0.1462(8) 0.3153(6) 0.95180(8)
C28_3 C 0.0271(6) 0.4127(8) 0.89427(9)
C29_3 C 0.0793(8) 0.3605(6) 0.93907(9)
C33_3 C 0.0079(10) 0.2892(13) 0.88771(16)
H23_3 H 0.0417 0.2581 0.8977
H28_3 H 0.0491 0.2981 0.8751
Ag5_5 Ag 1.0000 -0.0000 1.0000
C11_3 C 0.6941(7) 0.0154(6) 0.95886(10)
H11_3 H 0.6729 0.0757 0.9559
C16_3 C 0.7660(8) 0.0299(7) 0.97589(11)
H16_3 H 0.7894 0.0985 0.9843
N22_3 N 0.1984(7) 0.0502(6) 0.01950(9)
Ag1_6 Ag 0.6666 0.3334 0.8334
N2_3 N 0.6164(6) 0.1350(7) 0.85284(9)
C1_3 C 0.6820(6) 0.0275(7) 0.87448(10)
H1_3 H 0.7423 0.0063 0.8775
C2_3 C 0.6965(7) 0.0994(8) 0.85745(11)
H2_3 H 0.7651 0.1228 0.8491
C3_3 C 0.5139(7) 0.0907(9) 0.86425(11)
H3_3 H 0.4518 0.1083 0.8607
C4_3 C 0.4976(6) 0.0181(6) 0.88154(8)
H6_3 H 0.3112 0.0796 0.8862
Ag5_6 Ag 1.0000 1.0000 1.0000
Ag10_3 Ag 0.54945(6) 0.88279(6) 0.9167
N7_3 N 0.4041(7) 0.4153(5) 0.88642(7)
N8_3 N 0.6555(5) 0.9181(5) 0.94692(7)
N12_3 N 0.8650(7) 0.4815(9) 0.85284(9)
N14_3 N 0.5185(9) 0.3836(6) 0.85284(9)
N15_3 N 0.8016(7) 0.9498(6) 0.98050(9)
N16_3 N 0.4683(7) 0.1852(9) 0.81383(9)
N17_3 N 0.8148(9) 0.2831(6) 0.81383(9)
N18_3 N 0.7169(6) 0.5317(7) 0.81383(9)
N27_3 N 0.5316(6) 0.6108(5) 0.91087(7)
N28_3 N 0.5875(4) 0.7226(5) 0.92247(7)
C8_3 C 0.9725(7) 0.6546(9) 0.87448(10)
C10_3 C 0.3454(9) 0.3180(6) 0.87448(10)
H8_3 H 0.9937 0.7361 0.8775
H10_3 H 0.2639 0.2577 0.8775
C13_3 C 0.9006(8) 0.5972(11) 0.85745(11)
C15_3 C 0.4028(11) 0.3035(7) 0.85745(11)
H13_3 H 0.8772 0.6424 0.8491
H15_3 H 0.3576 0.2349 0.8491
C18_3 C 0.9093(9) 0.4233(11) 0.86425(11)
C20_3 C 0.5767(11) 0.4861(7) 0.86425(11)
C21_3 C 0.7573(9) 0.8473(7) 0.96909(11)
H18_3 H 0.8917 0.3436 0.8607
H20_3 H 0.6564 0.5482 0.8607
H21_3 H 0.7749 0.7852 0.9727
C23_3 C 0.9819(6) 0.4796(8) 0.88154(8)
C25_3 C 0.5204(8) 0.5024(6) 0.88154(8)
C26_3 C 0.6847(6) 0.8310(6) 0.95180(8)
C30_3 C 0.5873(8) 0.6145(6) 0.89427(9)
C31_3 C 0.6395(6) 0.7189(6) 0.93907(9)
C32_3 C 0.3854(9) 0.0442(13) 0.94563(16)
C34_3 C 0.9558(13) 0.3413(10) 0.94563(16)
C35_3 C 0.7108(13) 0.7188(9) 0.88771(16)
C36_3 C 0.6587(10) 0.6146(9) 0.94563(16)
H22_3 H 0.4503 0.0753 0.9357
H24_3 H 0.9247 0.3751 0.9357
H25_3 H 0.7419 0.7837 0.8977
H26_3 H 0.6249 0.5497 0.9357
H27_3 H 0.4177 0.0353 0.9583
H29_3 H 0.9647 0.3825 0.9583
H30_3 H 0.7019 0.7511 0.8751
H31_3 H 0.6175 0.5823 0.9583
H32_3 H 0.3554 0.1017 0.9472
H33_3 H 0.9204 0.2317 0.8862
H34_3 H 0.8983 0.2538 0.9472
H35_3 H 0.7683 0.6888 0.8862
H36_3 H 0.7462 0.6446 0.9472
N1_3 N 0.5847(5) 0.9889(5) 0.88642(7)
N3_3 N 0.3892(5) 0.9209(4) 0.91087(7)
C5_3 C 0.3855(6) 0.9729(6) 0.89427(9)
C6_3 C 0.2812(9) 0.9921(10) 0.88771(16)
H4_3 H 0.2163 0.9583 0.8977
H5_3 H 0.2489 0.9509 0.8751
N4_3 N 0.0819(5) 0.7375(7) 0.94692(7)
N11_3 N 0.0502(6) 0.8519(9) 0.98050(9)
N24_3 N 0.2774(5) 0.8650(6) 0.92247(7)
C17_3 C 0.1527(7) 0.9101(11) 0.96909(11)
H17_3 H 0.2148 0.9898 0.9727
C22_3 C 0.1690(6) 0.8538(8) 0.95180(8)
C27_3 C 0.2811(6) 0.9207(8) 0.93907(9)
N21_3 N 0.9498(6) 0.1481(9) 0.01950(9)
N20_3 N 0.8519(9) 0.8016(7) 0.01950(9)
C7_3 C 0.9846(6) 0.6788(9) 0.95886(10)
H7_3 H 0.9243 0.5973 0.9559
C12_3 C 0.9701(7) 0.7362(11) 0.97589(11)
H12_3 H 0.9015 0.6910 0.9843
Ag6 Ag 0.21612(6) -0.00000(8) 0.7500
N10 N 0.3222(5) 0.0708(7) 0.78025(7)
N30 N 0.2542(4) 0.1983(6) 0.75580(7)
H7_4 H 0.4090 0.0694 0.7108
C6_4 C 0.0521(9) 0.6746(10) 0.77896(16)
H4_4 H 0.1170 0.7084 0.7690
H5_4 H 0.0844 0.7158 0.7916
H6_4 H 0.0221 0.5871 0.7805
Ag6_2 Ag 0.21612(6) 1.00000(8) 0.7500
Ag9 Ag 0.00000(8) 0.21612(6) 0.7500
N4_4 N 0.2514(5) 0.9292(7) 0.71975(7)
N24_4 N 0.0559(5) 0.8017(6) 0.74420(7)
C7_4 C 0.3487(6) 0.9879(9) 0.70781(10)
H10_4 H 0.0694 0.4090 0.7892
C12_4 C 0.3632(7) 0.9305(11) 0.69078(11)
H12_4 H 0.4318 0.9757 0.6824
C17_4 C 0.1806(7) 0.7566(11) 0.69758(11)
H17_4 H 0.1185 0.6769 0.6940
C22_4 C 0.1643(6) 0.8129(8) 0.71487(8)
C27_4 C 0.0522(6) 0.7460(8) 0.72760(9)
Ag2 Ag 0.78388(6) 0.78388(6) 0.7500
N1_4 N 0.7486(5) 0.6778(5) 0.78025(7)
N3_4 N 0.9441(5) 0.7458(4) 0.75580(7)
C1_4 C 0.6513(6) 0.6392(7) 0.79219(10)
H1_4 H 0.5910 0.6604 0.7892
C2_4 C 0.6368(7) 0.5673(8) 0.80922(11)
H2_4 H 0.5682 0.5439 0.8176
C3_4 C 0.8194(7) 0.5760(9) 0.80242(11)
H3_4 H 0.8815 0.5584 0.8060
C4_4 C 0.8357(6) 0.6486(6) 0.78513(8)
C5_4 C 0.9478(6) 0.6938(6) 0.77240(9)
Ag9_2 Ag 1.00000(8) 0.21612(6) 0.7500
N6_4 N 0.0708(7) 0.3222(5) 0.71975(7)
N7_4 N 0.9292(7) 0.2514(5) 0.78025(7)
N9 N 0.6778(5) 0.7486(5) 0.71975(7)
N26_4 N 0.1983(6) 0.2542(4) 0.74420(7)
N27_4 N 0.8017(6) 0.0559(5) 0.75580(7)
N29 N 0.7458(4) 0.9441(5) 0.74420(7)
C8_4 C 0.3608(7) 0.0121(9) 0.79219(10)
C9_4 C 0.0121(9) 0.3608(7) 0.70781(10)
C10_4 C 0.9879(9) 0.3487(6) 0.79219(10)
C13_4 C 0.4327(8) 0.0695(11) 0.80922(11)
C14_4 C 0.0695(11) 0.4327(8) 0.69078(11)
C15_4 C 0.9305(11) 0.3632(7) 0.80922(11)
H13_4 H 0.4561 0.0243 0.8176
H14_4 H 0.0243 0.4561 0.6824
H15_4 H 0.9757 0.4318 0.8176
C18_4 C 0.4240(9) 0.2434(11) 0.80242(11)
C19_4 C 0.2434(11) 0.4240(9) 0.69758(11)
C20_4 C 0.7566(11) 0.1806(7) 0.80242(11)
H18_4 H 0.4416 0.3231 0.8060
H19_4 H 0.3231 0.4416 0.6940
H20_4 H 0.6769 0.1185 0.8060
C23_4 C 0.3514(6) 0.1871(8) 0.78513(8)
C24_4 C 0.1871(8) 0.3514(6) 0.71487(8)
C25_4 C 0.8129(8) 0.1643(6) 0.78513(8)
C28_4 C 0.3062(6) 0.2540(8) 0.77240(9)
C29_4 C 0.2540(8) 0.3062(6) 0.72760(9)
C30_4 C 0.7460(8) 0.0522(6) 0.77240(9)
C32_4 C 0.9479(9) 0.6225(13) 0.72104(16)
C33_4 C 0.3254(10) 0.3775(13) 0.77896(16)
C34_4 C 0.3775(13) 0.3254(10) 0.72104(16)
C36_4 C 0.6746(10) 0.0521(9) 0.72104(16)
H22_4 H 0.8830 0.5914 0.7310
H23_4 H 0.2916 0.4086 0.7690
H24_4 H 0.4086 0.2916 0.7310
H26_4 H 0.7084 0.1170 0.7310
H27_4 H 0.9156 0.6314 0.7084
H28_4 H 0.2842 0.3686 0.7916
H29_4 H 0.3686 0.2842 0.7084
H31_4 H 0.7158 0.0844 0.7084
H32_4 H 0.9779 0.5650 0.7195
H33_4 H 0.4129 0.4350 0.7805
H34_4 H 0.4350 0.4129 0.7195
H36_4 H 0.5871 0.0221 0.7195
C11_4 C 0.6392(7) 0.6513(6) 0.70781(10)
H8_4 H 0.3396 0.9306 0.7892
H11_4 H 0.6604 0.5910 0.7108
C16_4 C 0.5673(8) 0.6368(7) 0.69078(11)
H16_4 H 0.5439 0.5682 0.6824
C21_4 C 0.5760(9) 0.8194(7) 0.69758(11)
H21_4 H 0.5584 0.8815 0.6940
C26_4 C 0.6486(6) 0.8357(6) 0.71487(8)
C31_4 C 0.6938(6) 0.9478(6) 0.72760(9)
C35_4 C 0.6225(13) 0.9479(9) 0.77896(16)
H25_4 H 0.5914 0.8830 0.7690
H30_4 H 0.6314 0.9156 0.7916
H35_4 H 0.5650 0.9779 0.7805
H9_4 H 0.9306 0.3396 0.7108
Ag2_2 Ag 0.11721(6) 0.45055(6) 0.4167
N1_5 N 0.0819(5) 0.3445(5) 0.44692(7)
N3_5 N 0.2774(5) 0.4125(4) 0.42247(7)
C3_5 C 0.1527(7) 0.2427(9) 0.46909(11)
H3_5 H 0.2148 0.2251 0.4727
C4_5 C 0.1690(6) 0.3153(6) 0.45180(8)
C5_5 C 0.2811(6) 0.3605(6) 0.43907(9)
C6_5 C 0.3854(9) 0.3413(10) 0.44563(16)
H4_5 H 0.4503 0.3751 0.4357
H5_5 H 0.4177 0.3825 0.4583
H6_5 H 0.3554 0.2538 0.4472
Ag6_3 Ag 0.54945(6) 0.66667(8) 0.4167
N4_5 N 0.5847(5) 0.5959(7) 0.38642(7)
N9_2 N 0.0111(5) 0.4153(5) 0.38642(7)
N10_2 N 0.6555(5) 0.7375(7) 0.44692(7)
N24_5 N 0.3892(5) 0.4684(6) 0.41087(7)
N29_2 N 0.0791(4) 0.6108(5) 0.41087(7)
N30_2 N 0.5875(4) 0.8650(6) 0.42247(7)
C7_5 C 0.6820(6) 0.6546(9) 0.37448(10)
C10_5 C 0.3212(9) 0.0154(6) 0.45886(10)
H7_5 H 0.7423 0.7361 0.3775
H10_5 H 0.4027 0.0757 0.4559
C12_5 C 0.6965(7) 0.5972(11) 0.35745(11)
C15_5 C 0.2638(11) 0.0299(7) 0.47589(11)
H12_5 H 0.7651 0.6424 0.3491
H15_5 H 0.3090 0.0985 0.4843
C17_5 C 0.5139(7) 0.4233(11) 0.36425(11)
H17_5 H 0.4518 0.3436 0.3607
C22_5 C 0.4976(6) 0.4796(8) 0.38154(8)
C27_5 C 0.3855(6) 0.4127(8) 0.39427(9)
C32_5 C 0.2812(9) 0.2892(13) 0.38771(16)
H22_5 H 0.2163 0.2581 0.3977
H27_5 H 0.2489 0.2981 0.3751
H32_5 H 0.3112 0.2317 0.3862
Ag9_3 Ag 0.33333(8) 0.88279(6) 0.4167
N7_5 N 0.2625(7) 0.9181(5) 0.44692(7)
N27_5 N 0.1350(6) 0.7226(5) 0.42247(7)
C20_5 C 0.0899(11) 0.8473(7) 0.46909(11)
H20_5 H 0.0102 0.7852 0.4727
C25_5 C 0.1462(8) 0.8310(6) 0.45180(8)
C30_5 C 0.0793(8) 0.7189(6) 0.43907(9)
C31_5 C 0.0271(6) 0.6145(6) 0.39427(9)
C36_5 C 0.0079(10) 0.7188(9) 0.38771(16)
H26_5 H 0.0417 0.7837 0.3977
H31_5 H 0.0491 0.7511 0.3751
C1_5 C 0.9846(6) 0.3059(7) 0.45886(10)
H1_5 H 0.9243 0.3271 0.4559
C2_5 C 0.9701(7) 0.2340(8) 0.47589(11)
H2_5 H 0.9015 0.2106 0.4843
C9_5 C 0.3454(9) 0.0275(7) 0.37448(10)
H9_5 H 0.2639 0.0063 0.3775
C14_5 C 0.4028(11) 0.0994(8) 0.35745(11)
H14_5 H 0.3576 0.1228 0.3491
C19_5 C 0.5767(11) 0.0907(9) 0.36425(11)
H19_5 H 0.6564 0.1083 0.3607
C24_5 C 0.5204(8) 0.0181(6) 0.38154(8)
C33_5 C 0.6587(10) 0.0442(13) 0.44563(16)
H23_5 H 0.6249 0.0753 0.4357
H28_5 H 0.6175 0.0353 0.4583
H33_5 H 0.7462 0.1017 0.4472
H34_5 H 0.7683 0.0796 0.3862
N6_5 N 0.4041(7) 0.9889(5) 0.38642(7)
N26_5 N 0.5316(6) 0.9209(4) 0.41087(7)
C8_5 C 0.6941(7) 0.6788(9) 0.45886(10)
C11_5 C 0.9725(7) 0.3180(6) 0.37448(10)
H8_5 H 0.6729 0.5973 0.4559
H11_5 H 0.9937 0.2577 0.3775
C13_5 C 0.7660(8) 0.7362(11) 0.47589(11)
C16_5 C 0.9006(8) 0.3035(7) 0.35745(11)
H13_5 H 0.7894 0.6910 0.4843
H16_5 H 0.8772 0.2349 0.3491
C18_5 C 0.7573(9) 0.9101(11) 0.46909(11)
C21_5 C 0.9093(9) 0.4861(7) 0.36425(11)
H18_5 H 0.7749 0.9898 0.4727
H21_5 H 0.8917 0.5482 0.3607
C23_5 C 0.6847(6) 0.8538(8) 0.45180(8)
C26_5 C 0.9819(6) 0.5024(6) 0.38154(8)
C28_5 C 0.6395(6) 0.9207(8) 0.43907(9)
C29_5 C 0.5873(8) 0.9729(6) 0.39427(9)
C34_5 C 0.7108(13) 0.9921(10) 0.38771(16)
C35_5 C 0.9558(13) 0.6146(9) 0.44563(16)
H24_5 H 0.7419 0.9583 0.3977
H25_5 H 0.9247 0.5497 0.4357
H29_5 H 0.7019 0.9509 0.3751
H30_5 H 0.9647 0.5823 0.4583
H35_5 H 0.8983 0.6446 0.4472
H36_5 H 0.9204 0.6888 0.3862
Ag3 Ag -0.0000 -0.0001 0.0000
C7_6 C 0.0154(6) 0.3212(9) 0.04114(10)
H7_6 H 0.0757 0.4027 0.0441
C12_6 C 0.0299(7) 0.2638(11) 0.02411(11)
H12_6 H 0.0985 0.3090 0.0157
Ag3_2 Ag -0.0000 0.9999 0.0000
Ag2_3 Ag 0.45055(6) 0.11721(6) 0.0833
N1_6 N 0.4153(5) 0.0111(5) 0.11358(7)
N3_6 N 0.6108(5) 0.0791(4) 0.08913(7)
C5_6 C 0.6145(6) 0.0271(6) 0.10573(9)
C6_6 C 0.7188(9) 0.0079(10) 0.11229(16)
H4_6 H 0.7837 0.0417 0.1023
H5_6 H 0.7511 0.0491 0.1249
Ag3_3 Ag 1.0000 -0.0001 0.0000
Ag6_4 Ag 0.88279(6) 0.33333(8) 0.0833
N4_6 N 0.9181(5) 0.2625(7) 0.05308(7)
N9_3 N 0.3445(5) 0.0819(5) 0.05308(7)
N10_3 N 0.9889(5) 0.4041(7) 0.11358(7)
N24_6 N 0.7226(5) 0.1350(6) 0.07753(7)
N29_3 N 0.4125(4) 0.2774(5) 0.07753(7)
N30_3 N 0.9209(4) 0.5316(6) 0.08913(7)
C17_6 C 0.8473(7) 0.0899(11) 0.03091(11)
H17_6 H 0.7852 0.0102 0.0273
C22_6 C 0.8310(6) 0.1462(8) 0.04820(8)
C27_6 C 0.7189(6) 0.0793(8) 0.06093(9)
C1_6 C 0.3180(6) 0.9725(7) 0.12552(10)
H1_6 H 0.2577 0.9937 0.1225
C2_6 C 0.3035(7) 0.9006(8) 0.14255(11)
H2_6 H 0.2349 0.8772 0.1509
C3_6 C 0.4861(7) 0.9093(9) 0.13575(11)
H3_6 H 0.5482 0.8917 0.1393
C4_6 C 0.5024(6) 0.9819(6) 0.11846(8)
H6_6 H 0.6888 0.9204 0.1138
Ag3_4 Ag 1.0000 0.9999 0.0000
Ag9_4 Ag 0.66667(8) 0.54945(6) 0.0833
N7_6 N 0.5959(7) 0.5847(5) 0.11358(7)
N27_6 N 0.4684(6) 0.3892(5) 0.08913(7)
C8_6 C 0.0275(7) 0.3454(9) 0.12552(10)
C10_6 C 0.6546(9) 0.6820(6) 0.12552(10)
H8_6 H 0.0063 0.2639 0.1225
H10_6 H 0.7361 0.7423 0.1225
C13_6 C 0.0994(8) 0.4028(11) 0.14255(11)
C15_6 C 0.5972(11) 0.6965(7) 0.14255(11)
H13_6 H 0.1228 0.3576 0.1509
H15_6 H 0.6424 0.7651 0.1509
C18_6 C 0.0907(9) 0.5767(11) 0.13575(11)
C20_6 C 0.4233(11) 0.5139(7) 0.13575(11)
C21_6 C 0.2427(9) 0.1527(7) 0.03091(11)
H18_6 H 0.1083 0.6564 0.1393
H20_6 H 0.3436 0.4518 0.1393
H21_6 H 0.2251 0.2148 0.0273
C23_6 C 0.0181(6) 0.5204(8) 0.11846(8)
C25_6 C 0.4796(8) 0.4976(6) 0.11846(8)
C26_6 C 0.3153(6) 0.1690(6) 0.04820(8)
C30_6 C 0.4127(8) 0.3855(6) 0.10573(9)
C31_6 C 0.3605(6) 0.2811(6) 0.06093(9)
C32_6 C 0.6146(9) 0.9558(13) 0.05437(16)
C34_6 C 0.0442(13) 0.6587(10) 0.05437(16)
C35_6 C 0.2892(13) 0.2812(9) 0.11229(16)
C36_6 C 0.3413(10) 0.3854(9) 0.05437(16)
H22_6 H 0.5497 0.9247 0.0643
H24_6 H 0.0753 0.6249 0.0643
H25_6 H 0.2581 0.2163 0.1023
H26_6 H 0.3751 0.4503 0.0643
H27_6 H 0.5823 0.9647 0.0417
H29_6 H 0.0353 0.6175 0.0417
H30_6 H 0.2981 0.2489 0.1249
H31_6 H 0.3825 0.4177 0.0417
H32_6 H 0.6446 0.8983 0.0528
H33_6 H 0.0796 0.7683 0.1138
H34_6 H 0.1017 0.7462 0.0528
H35_6 H 0.2317 0.3112 0.1138
H36_6 H 0.2538 0.3554 0.0528
C11_6 C 0.3059(7) 0.9846(6) 0.04114(10)
H11_6 H 0.3271 0.9243 0.0441
C16_6 C 0.2340(8) 0.9701(7) 0.02411(11)
H16_6 H 0.2106 0.9015 0.0157
N6_6 N 0.7375(7) 0.6555(5) 0.05308(7)
N26_6 N 0.8650(6) 0.5875(4) 0.07753(7)
C9_6 C 0.6788(9) 0.6941(7) 0.04114(10)
H9_6 H 0.5973 0.6729 0.0441
C14_6 C 0.7362(11) 0.7660(8) 0.02411(11)
H14_6 H 0.6910 0.7894 0.0157
C19_6 C 0.9101(11) 0.7573(9) 0.03091(11)
H19_6 H 0.9898 0.7749 0.0273
C24_6 C 0.8538(8) 0.6847(6) 0.04820(8)
C28_6 C 0.9729(6) 0.5873(8) 0.10573(9)
C29_6 C 0.9207(8) 0.6395(6) 0.06093(9)
C33_6 C 0.9921(10) 0.7108(13) 0.11229(16)
H23_6 H 0.9583 0.7419 0.1023
H28_6 H 0.9509 0.7019 0.1249
Cl1 Cl 0.3333 0.6667 0.24530(6)
O1 O 0.3333 0.6667 0.22386(17)
O2 O 0.345(2) 0.5667(16) 0.2534(3)
O3 O 0.4333(16) 0.7783(26) 0.2534(3)
O4 O 0.2217(26) 0.655(2) 0.2534(3)
Cl1_2 Cl 0.6667 0.3333 0.25470(6)
O1_2 O 0.6667 0.3333 0.27614(17)
O2_2 O 0.5667(16) 0.345(2) 0.2466(3)
O3_2 O 0.7783(26) 0.4333(16) 0.2466(3)
O4_2 O 0.655(2) 0.2217(26) 0.2466(3)
Cl1_3 Cl -0.0000 0.0000 0.57863(6)
O1_3 O -0.0000 0.0000 0.55719(17)
O3_3 O 0.1000(16) 0.1116(26) 0.5867(3)
Cl1_4 Cl -0.0000 1.0000 0.57863(6)
O1_4 O -0.0000 1.0000 0.55719(17)
O2_3 O 0.012(2) 0.9000(16) 0.5867(3)
Cl1_5 Cl 1.0000 0.0000 0.57863(6)
O1_5 O 1.0000 0.0000 0.55719(17)
Cl1_6 Cl 1.0000 1.0000 0.57863(6)
O1_6 O 1.0000 1.0000 0.55719(17)
O4_3 O 0.8884(26) 0.988(2) 0.5867(3)
Cl1_7 Cl 0.3334 0.6666 0.58803(6)
O1_7 O 0.3334 0.6666 0.60947(17)
O2_4 O 0.2334(16) 0.678(2) 0.5799(3)
O3_4 O 0.4450(26) 0.7666(16) 0.5799(3)
O4_4 O 0.322(2) 0.5550(26) 0.5799(3)
Cl1_8 Cl 0.6666 0.3334 0.91197(6)
O1_8 O 0.6666 0.3334 0.89053(17)
O2_5 O 0.678(2) 0.2334(16) 0.9201(3)
O3_5 O 0.7666(16) 0.4450(26) 0.9201(3)
O4_5 O 0.5550(26) 0.322(2) 0.9201(3)
Cl1_9 Cl 0.0000 -0.0000 0.92137(6)
O1_9 O 0.0000 -0.0000 0.94281(17)
O3_6 O 0.1116(26) 0.1000(16) 0.9133(3)
Cl1_10 Cl 0.0000 1.0000 0.92137(6)
O1_10 O 0.0000 1.0000 0.94281(17)
Cl1_11 Cl 1.0000 -0.0000 0.92137(6)
O1_11 O 1.0000 -0.0000 0.94281(17)
O2_6 O 0.9000(16) 0.012(2) 0.9133(3)
Cl1_12 Cl 1.0000 1.0000 0.92137(6)
O1_12 O 1.0000 1.0000 0.94281(17)
O4_6 O 0.988(2) 0.8884(26) 0.9133(3)
Cl1_13 Cl 0.6667 0.3333 0.75470(6)
O1_13 O 0.6667 0.3333 0.77614(17)
O2_7 O 0.655(2) 0.4333(16) 0.7466(3)
O3_7 O 0.5667(16) 0.2217(26) 0.7466(3)
O4_7 O 0.7783(26) 0.345(2) 0.7466(3)
Cl1_14 Cl 0.3333 0.6667 0.74530(6)
O1_14 O 0.3333 0.6667 0.72386(17)
O2_8 O 0.4333(16) 0.655(2) 0.7534(3)
O3_8 O 0.2217(26) 0.5667(16) 0.7534(3)
O4_8 O 0.345(2) 0.7783(26) 0.7534(3)
Cl1_15 Cl 0.0000 -0.0000 0.42137(6)
O1_15 O 0.0000 -0.0000 0.44281(17)
O4_9 O 0.1116(26) 0.012(2) 0.4133(3)
Cl1_16 Cl 0.0000 1.0000 0.42137(6)
O1_16 O 0.0000 1.0000 0.44281(17)
Cl1_17 Cl 1.0000 -0.0000 0.42137(6)
O1_17 O 1.0000 -0.0000 0.44281(17)
O2_9 O 0.988(2) 0.1000(16) 0.4133(3)
Cl1_18 Cl 1.0000 1.0000 0.42137(6)
O1_18 O 1.0000 1.0000 0.44281(17)
O3_9 O 0.9000(16) 0.8884(26) 0.4133(3)
Cl1_19 Cl 0.6666 0.3334 0.41197(6)
O1_19 O 0.6666 0.3334 0.39053(17)
O2_10 O 0.7666(16) 0.322(2) 0.4201(3)
O3_10 O 0.5550(26) 0.2334(16) 0.4201(3)
O4_10 O 0.678(2) 0.4450(26) 0.4201(3)
Cl1_20 Cl 0.3334 0.6666 0.08803(6)
O1_20 O 0.3334 0.6666 0.10947(17)
O2_11 O 0.322(2) 0.7666(16) 0.0799(3)
O3_11 O 0.2334(16) 0.5550(26) 0.0799(3)
O4_11 O 0.4450(26) 0.678(2) 0.0799(3)
Cl1_21 Cl -0.0000 0.0000 0.07863(6)
O1_21 O -0.0000 0.0000 0.05719(17)
O4_12 O 0.012(2) 0.1116(26) 0.0867(3)
Cl1_22 Cl -0.0000 1.0000 0.07863(6)
O1_22 O -0.0000 1.0000 0.05719(17)
O2_12 O 0.1000(16) 0.988(2) 0.0867(3)
Cl1_23 Cl 1.0000 0.0000 0.07863(6)
O1_23 O 1.0000 0.0000 0.05719(17)
Cl1_24 Cl 1.0000 1.0000 0.07863(6)
O1_24 O 1.0000 1.0000 0.05719(17)
O3_12 O 0.8884(26) 0.9000(16) 0.0867(3)
Cl2 Cl 0.3333 0.6667 0.37050(8)
O5 O 0.2453(9) 0.6972(14) 0.3628(2)
O6 O 0.3333 0.6667 0.39177(16)
O7 O 0.3028(14) 0.5481(17) 0.3628(2)
O8 O 0.4519(17) 0.7547(9) 0.3628(2)
Cl2_2 Cl 0.6667 0.3333 0.12950(8)
O5_2 O 0.6972(14) 0.2453(9) 0.1372(2)
O6_2 O 0.6667 0.3333 0.10823(16)
O7_2 O 0.5481(17) 0.3028(14) 0.1372(2)
O8_2 O 0.7547(9) 0.4519(17) 0.1372(2)
Cl2_3 Cl -0.0000 0.0000 0.70383(8)
O6_3 O -0.0000 0.0000 0.72510(16)
O8_3 O 0.1186(17) 0.0880(9) 0.6961(2)
Cl2_4 Cl -0.0000 1.0000 0.70383(8)
O6_4 O -0.0000 1.0000 0.72510(16)
Cl2_5 Cl 1.0000 0.0000 0.70383(8)
O5_3 O 0.9120(9) 0.0305(14) 0.6961(2)
O6_5 O 1.0000 0.0000 0.72510(16)
Cl2_6 Cl 1.0000 1.0000 0.70383(8)
O6_6 O 1.0000 1.0000 0.72510(16)
O7_3 O 0.9695(14) 0.8814(17) 0.6961(2)
Cl2_7 Cl 0.3334 0.6666 0.46283(8)
O5_4 O 0.3639(14) 0.5786(9) 0.4705(2)
O6_7 O 0.3334 0.6666 0.44156(16)
O7_4 O 0.2148(17) 0.6361(14) 0.4705(2)
O8_4 O 0.4214(9) 0.7852(17) 0.4705(2)
Cl2_8 Cl 0.6666 0.3334 0.03717(8)
O5_5 O 0.5786(9) 0.3639(14) 0.0295(2)
O6_8 O 0.6666 0.3334 0.05844(16)
O7_5 O 0.6361(14) 0.2148(17) 0.0295(2)
O8_5 O 0.7852(17) 0.4214(9) 0.0295(2)
Cl2_9 Cl 0.0000 -0.0000 0.79617(8)
O6_9 O 0.0000 -0.0000 0.77490(16)
O8_6 O 0.0880(9) 0.1186(17) 0.8039(2)
Cl2_10 Cl 0.0000 1.0000 0.79617(8)
O5_6 O 0.0305(14) 0.9120(9) 0.8039(2)
O6_10 O 0.0000 1.0000 0.77490(16)
Cl2_11 Cl 1.0000 -0.0000 0.79617(8)
O6_11 O 1.0000 -0.0000 0.77490(16)
Cl2_12 Cl 1.0000 1.0000 0.79617(8)
O6_12 O 1.0000 1.0000 0.77490(16)
O7_6 O 0.8814(17) 0.9695(14) 0.8039(2)
Cl2_13 Cl 0.6667 0.3333 0.62950(8)
O5_7 O 0.7547(9) 0.3028(14) 0.6372(2)
O6_13 O 0.6667 0.3333 0.60823(16)
O7_7 O 0.6972(14) 0.4519(17) 0.6372(2)
O8_7 O 0.5481(17) 0.2453(9) 0.6372(2)
Cl2_14 Cl 0.3333 0.6667 0.87050(8)
O5_8 O 0.3028(14) 0.7547(9) 0.8628(2)
O6_14 O 0.3333 0.6667 0.89177(16)
O7_8 O 0.4519(17) 0.6972(14) 0.8628(2)
O8_8 O 0.2453(9) 0.5481(17) 0.8628(2)
Cl2_15 Cl 0.0000 -0.0000 0.29617(8)
O6_15 O 0.0000 -0.0000 0.27490(16)
O7_9 O 0.0305(14) 0.1186(17) 0.3039(2)
Cl2_16 Cl 0.0000 1.0000 0.29617(8)
O5_9 O 0.0880(9) 0.9695(14) 0.3039(2)
O6_16 O 0.0000 1.0000 0.27490(16)
Cl2_17 Cl 1.0000 -0.0000 0.29617(8)
O6_17 O 1.0000 -0.0000 0.27490(16)
Cl2_18 Cl 1.0000 1.0000 0.29617(8)
O6_18 O 1.0000 1.0000 0.27490(16)
O8_9 O 0.8814(17) 0.9120(9) 0.3039(2)
Cl2_19 Cl 0.6666 0.3334 0.53717(8)
O5_10 O 0.6361(14) 0.4214(9) 0.5295(2)
O6_19 O 0.6666 0.3334 0.55844(16)
O7_10 O 0.7852(17) 0.3639(14) 0.5295(2)
O8_10 O 0.5786(9) 0.2148(17) 0.5295(2)
Cl2_20 Cl 0.3334 0.6666 0.96283(8)
O5_11 O 0.4214(9) 0.6361(14) 0.9705(2)
O6_20 O 0.3334 0.6666 0.94156(16)
O7_11 O 0.3639(14) 0.7852(17) 0.9705(2)
O8_11 O 0.2148(17) 0.5786(9) 0.9705(2)
Cl2_21 Cl -0.0000 0.0000 0.20383(8)
O6_21 O -0.0000 0.0000 0.22510(16)
O7_12 O 0.1186(17) 0.0305(14) 0.1961(2)
Cl2_22 Cl -0.0000 1.0000 0.20383(8)
O6_22 O -0.0000 1.0000 0.22510(16)
Cl2_23 Cl 1.0000 0.0000 0.20383(8)
O5_12 O 0.9695(14) 0.0880(9) 0.1961(2)
O6_23 O 1.0000 0.0000 0.22510(16)
Cl2_24 Cl 1.0000 1.0000 0.20383(8)
O6_24 O 1.0000 1.0000 0.22510(16)
O8_12 O 0.9120(9) 0.8814(17) 0.1961(2)
loop_
_geom_bond_atom_site_label_1
_geom_bond_atom_site_label_2
_geom_bond_site_symmetry_1
_geom_bond_site_symmetry_2
Ag5 N15 1_555 1_555
Ag10 N8 1_555 1_555
N8 C11 1_555 1_555
N15 C16 1_555 1_555
N28 Ag10 1_555 1_555
C11 H11 1_555 1_555
C16 C11 1_555 1_555
H16 C16 1_555 1_555
C21 N15 1_555 1_555
H21 C21 1_555 1_555
C26 N8 1_555 1_555
C31 N28 1_555 1_555
H25 C35 1_555 1_555
H30 C35 1_555 1_555
H35 C35 1_555 1_555
C21 C26 1_555 1_555
C26 C31 1_555 1_555
Ag1 N2 1_555 1_555
Ag10 N1 1_555 1_555
N1 C1 1_555 1_555
N2 C2 1_555 1_555
N3 Ag10 1_555 1_555
C1 H1 1_555 1_555
C2 C1 1_555 1_555
H2 C2 1_555 1_555
C3 N2 1_555 1_555
H3 C3 1_555 1_555
C4 N1 1_555 1_555
C5 N3 1_555 1_555
Ag5 N13 1_555 1_555
Ag7_2 N5 1_555 1_555
Ag8_2 N6 1_555 1_555
Ag8 N7 1_555 1_555
N5 C8 1_555 1_555
N6 C9 1_555 1_555
N7 C10 1_555 1_555
N12 Ag1 1_555 1_555
N13 C14 1_555 1_555
N14 Ag1 1_555 1_555
N16 Ag1 1_555 1_555
N17 Ag1 1_555 1_555
N18 Ag1 1_555 1_555
N25 Ag7_2 1_555 1_555
N26 Ag8_2 1_555 1_555
N27 Ag8 1_555 1_555
C13 N12 1_555 1_555
C14 C9 1_555 1_555
C15 N14 1_555 1_555
H13 C13 1_555 1_555
H14 C14 1_555 1_555
H15 C15 1_555 1_555
C18 N12 1_555 1_555
C19 N13 1_555 1_555
C20 N14 1_555 1_555
H18 C18 1_555 1_555
H19 C19 1_555 1_555
H20 C20 1_555 1_555
C23 N5 1_555 1_555
C24 N6 1_555 1_555
C25 N7 1_555 1_555
C28 N25 1_555 1_555
C29 N26 1_555 1_555
C30 N27 1_555 1_555
C33 C28 1_555 1_555
C34 C29 1_555 1_555
H22 C32 1_555 1_555
H23 C33 1_555 1_555
H24 C34 1_555 1_555
H26 C36 1_555 1_555
H27 C32 1_555 1_555
H28 C33 1_555 1_555
H29 C34 1_555 1_555
H31 C36 1_555 1_555
H32 C32 1_555 1_555
H33 C33 1_555 1_555
H34 C34 1_555 1_555
H36 C36 1_555 1_555
C3 C4 1_555 1_555
C4 C5 1_555 1_555
N25 N26 1_555 1_555
C8 C13 1_555 1_555
C10 C15 1_555 1_555
C18 C23 1_555 1_555
C19 C24 1_555 1_555
C20 C25 1_555 1_555
C23 C28 1_555 1_555
C24 C29 1_555 1_555
C25 C30 1_555 1_555
H4 C6 1_555 1_555
H5 C6 1_555 1_555
H6 C6 1_555 1_555
Ag5 N11 1_555 1_555
Ag7 N4 1_555 1_555
N4 C7 1_555 1_555
N11 C12 1_555 1_555
N20 Ag5 1_555 1_555
N21 Ag5 1_555 1_555
N22 Ag5 1_555 1_555
C12 C7 1_555 1_555
H12 C12 1_555 1_555
C17 N11 1_555 1_555
H17 C17 1_555 1_555
C22 N4 1_555 1_555
C27 N24 1_555 1_555
Ag7 N24 1_555 1_555
C17 C22 1_555 1_555
C22 C27 1_555 1_555
Ag5_2 N15_2 1_555 1_555
Ag7_3 N5_2 1_555 1_555
Ag8_3 N6_2 1_555 1_555
N5_2 C8_2 1_555 1_555
N12_2 Ag1_2 1_555 1_555
N15_2 C16_2 1_555 1_555
N18_2 Ag1_2 1_555 1_555
N25_2 Ag7_3 1_555 1_555
N26_2 Ag8_3 1_555 1_555
C8_2 H8_2 1_555 1_555
C11_2 H11_2 1_555 1_555
C13_2 N12_2 1_555 1_555
C16_2 C11_2 1_555 1_555
H13_2 C13_2 1_555 1_555
H16_2 C16_2 1_555 1_555
C18_2 N12_2 1_555 1_555
C21_2 N15_2 1_555 1_555
H18_2 C18_2 1_555 1_555
H21_2 C21_2 1_555 1_555
C23_2 N5_2 1_555 1_555
C28_2 N25_2 1_555 1_555
C29_2 N26_2 1_555 1_555
C34_2 C29_2 1_555 1_555
H24_2 C34_2 1_555 1_555
H25_2 C35_2 1_555 1_555
H29_2 C34_2 1_555 1_555
H30_2 C35_2 1_555 1_555
H35_2 C35_2 1_555 1_555
N25_2 N26_2 1_555 1_555
C8_2 C13_2 1_555 1_555
C18_2 C23_2 1_555 1_555
C21_2 C26_2 1_555 1_555
C23_2 C28_2 1_555 1_555
C1_2 H1_2 1_555 1_555
C2_2 C1_2 1_555 1_555
H2_2 C2_2 1_555 1_555
Ag5_2 N13_2 1_555 1_555
N13_2 C14_2 1_555 1_555
N17_2 Ag1_3 1_555 1_555
C9_2 H9_2 1_555 1_555
C14_2 C9_2 1_555 1_555
H14_2 C14_2 1_555 1_555
C19_2 N13_2 1_555 1_555
H19_2 C19_2 1_555 1_555
H23_2 C33_2 1_555 1_555
H28_2 C33_2 1_555 1_555
H33_2 C33_2 1_555 1_555
C19_2 C24_2 1_555 1_555
Ag8_3 N7_2 1_555 1_555
Ag10_2 N8_2 1_555 1_555
N14_2 Ag1_4 1_555 1_555
N27_2 Ag8_3 1_555 1_555
N28_2 Ag10_2 1_555 1_555
C20_2 N14_2 1_555 1_555
H20_2 C20_2 1_555 1_555
C25_2 N7_2 1_555 1_555
C30_2 N27_2 1_555 1_555
C31_2 N28_2 1_555 1_555
C36_2 C31_2 1_555 1_555
H26_2 C36_2 1_555 1_555
H31_2 C36_2 1_555 1_555
N27_2 N28_2 1_555 1_555
C20_2 C25_2 1_555 1_555
C25_2 C30_2 1_555 1_555
Ag1_5 N2_2 1_555 1_555
Ag10_2 N1_2 1_555 1_555
N3_2 Ag10_2 1_555 1_555
C3_2 N2_2 1_555 1_555
H3_2 C3_2 1_555 1_555
C4_2 N1_2 1_555 1_555
C5_2 N3_2 1_555 1_555
C6_2 C5_2 1_555 1_555
H4_2 C6_2 1_555 1_555
H5_2 C6_2 1_555 1_555
H6_2 C6_2 1_555 1_555
Ag5_2 N11_2 1_555 1_555
Ag7_3 N4_2 1_555 1_555
N4_2 C7_2 1_555 1_555
N11_2 C12_2 1_555 1_555
N16_2 Ag1_5 1_555 1_555
N20_2 Ag5_2 1_555 1_555
N21_2 Ag5_2 1_555 1_555
N22_2 Ag5_2 1_555 1_555
N24_2 N3_2 1_555 1_555
C7_2 H7_2 1_555 1_555
C10_2 H10_2 1_555 1_555
C12_2 C7_2 1_555 1_555
H12_2 C12_2 1_555 1_555
H15_2 C15_2 1_555 1_555
C17_2 N11_2 1_555 1_555
H17_2 C17_2 1_555 1_555
C22_2 N4_2 1_555 1_555
C27_2 N24_2 1_555 1_555
C32_2 C27_2 1_555 1_555
H22_2 C32_2 1_555 1_555
H27_2 C32_2 1_555 1_555
H32_2 C32_2 1_555 1_555
C3_2 C4_2 1_555 1_555
C4_2 C5_2 1_555 1_555
Ag7_3 N24_2 1_555 1_555
C10_2 C15_2 1_555 1_555
C17_2 C22_2 1_555 1_555
C22_2 C27_2 1_555 1_555
Ag5_3 N13_3 1_555 1_555
Ag7_4 N5_3 1_555 1_555
Ag8_4 N6_3 1_555 1_555
N6_3 C9_3 1_555 1_555
N13_3 C14_3 1_555 1_555
N25_3 Ag7_4 1_555 1_555
N26_3 Ag8_4 1_555 1_555
C9_3 H9_3 1_555 1_555
C14_3 C9_3 1_555 1_555
H14_3 C14_3 1_555 1_555
C19_3 N13_3 1_555 1_555
H19_3 C19_3 1_555 1_555
C24_3 N6_3 1_555 1_555
C28_3 N25_3 1_555 1_555
C29_3 N26_3 1_555 1_555
C33_3 C28_3 1_555 1_555
H23_3 C33_3 1_555 1_555
H28_3 C33_3 1_555 1_555
N25_3 N26_3 1_555 1_555
C19_3 C24_3 1_555 1_555
C24_3 C29_3 1_555 1_555
C11_3 H11_3 1_555 1_555
C16_3 C11_3 1_555 1_555
H16_3 C16_3 1_555 1_555
Ag1_6 N2_3 1_555 1_555
N2_3 C2_3 1_555 1_555
C1_3 H1_3 1_555 1_555
C2_3 C1_3 1_555 1_555
H2_3 C2_3 1_555 1_555
C3_3 N2_3 1_555 1_555
H3_3 C3_3 1_555 1_555
Ag5_6 N15_3 1_555 1_555
Ag8_4 N7_3 1_555 1_555
Ag10_3 N8_3 1_555 1_555
N7_3 C10_3 1_555 1_555
N12_3 Ag1_6 1_555 1_555
N14_3 Ag1_6 1_555 1_555
N16_3 Ag1_6 1_555 1_555
N17_3 Ag1_6 1_555 1_555
N18_3 Ag1_6 1_555 1_555
N27_3 Ag8_4 1_555 1_555
N28_3 Ag10_3 1_555 1_555
C8_3 H8_3 1_555 1_555
C10_3 H10_3 1_555 1_555
C13_3 N12_3 1_555 1_555
C15_3 N14_3 1_555 1_555
H13_3 C13_3 1_555 1_555
H15_3 C15_3 1_555 1_555
C18_3 N12_3 1_555 1_555
C20_3 N14_3 1_555 1_555
C21_3 N15_3 1_555 1_555
H18_3 C18_3 1_555 1_555
H20_3 C20_3 1_555 1_555
H21_3 C21_3 1_555 1_555
C25_3 N7_3 1_555 1_555
C26_3 N8_3 1_555 1_555
C30_3 N27_3 1_555 1_555
C31_3 N28_3 1_555 1_555
C35_3 C30_3 1_555 1_555
C36_3 C31_3 1_555 1_555
H22_3 C32_3 1_555 1_555
H24_3 C34_3 1_555 1_555
H25_3 C35_3 1_555 1_555
H26_3 C36_3 1_555 1_555
H27_3 C32_3 1_555 1_555
H29_3 C34_3 1_555 1_555
H30_3 C35_3 1_555 1_555
H31_3 C36_3 1_555 1_555
H32_3 C32_3 1_555 1_555
H34_3 C34_3 1_555 1_555
H35_3 C35_3 1_555 1_555
H36_3 C36_3 1_555 1_555
C3_3 C4_3 1_555 1_555
N27_3 N28_3 1_555 1_555
C8_3 C13_3 1_555 1_555
C10_3 C15_3 1_555 1_555
C18_3 C23_3 1_555 1_555
C20_3 C25_3 1_555 1_555
C21_3 C26_3 1_555 1_555
C25_3 C30_3 1_555 1_555
C26_3 C31_3 1_555 1_555
Ag10_3 N1_3 1_555 1_555
N3_3 Ag10_3 1_555 1_555
C5_3 N3_3 1_555 1_555
C6_3 C5_3 1_555 1_555
H4_3 C6_3 1_555 1_555
H5_3 C6_3 1_555 1_555
Ag5_4 N11_3 1_555 1_555
Ag7_4 N4_3 1_555 1_555
N24_3 N3_3 1_555 1_555
C17_3 N11_3 1_555 1_555
H17_3 C17_3 1_555 1_555
C22_3 N4_3 1_555 1_555
C27_3 N24_3 1_555 1_555
Ag7_4 N24_3 1_555 1_555
C17_3 C22_3 1_555 1_555
C22_3 C27_3 1_555 1_555
C7_3 H7_3 1_555 1_555
C12_3 C7_3 1_555 1_555
H12_3 C12_3 1_555 1_555
N10 Ag6 1_555 1_555
N30 Ag6 1_555 1_555
H4_4 C6_4 1_555 1_555
H5_4 C6_4 1_555 1_555
H6_4 C6_4 1_555 1_555
Ag6_2 N4_4 1_555 1_555
N4_4 C7_4 1_555 1_555
N21_2 C12_4 1_555 1_555
C12_4 C7_4 1_555 1_555
H12_4 C12_4 1_555 1_555
C17_4 N21_2 1_555 1_555
H17_4 C17_4 1_555 1_555
C22_4 N4_4 1_555 1_555
C27_4 N24_4 1_555 1_555
Ag6_2 N24_4 1_555 1_555
C17_4 C22_4 1_555 1_555
C22_4 C27_4 1_555 1_555
Ag2 N1_4 1_555 1_555
N1_4 C1_4 1_555 1_555
N18_3 C2_4 1_555 1_555
N3_4 Ag2 1_555 1_555
C1_4 H1_4 1_555 1_555
C2_4 C1_4 1_555 1_555
H2_4 C2_4 1_555 1_555
C3_4 N18_3 1_555 1_555
H3_4 C3_4 1_555 1_555
C4_4 N1_4 1_555 1_555
C5_4 N3_4 1_555 1_555
Ag9 N6_4 1_555 1_555
Ag9_2 N7_4 1_555 1_555
N10 C8_4 1_555 1_555
N6_4 C9_4 1_555 1_555
N7_4 C10_4 1_555 1_555
N9 Ag2 1_555 1_555
N20_2 C14_4 1_555 1_555
N26_4 Ag9 1_555 1_555
N27_4 Ag9_2 1_555 1_555
N29 Ag2 1_555 1_555
C13_4 N16_3 1_555 1_555
C14_4 C9_4 1_555 1_555
C15_4 N17_3 1_555 1_555
H13_4 C13_4 1_555 1_555
H14_4 C14_4 1_555 1_555
H15_4 C15_4 1_555 1_555
C18_4 N16_3 1_555 1_555
C19_4 N20_2 1_555 1_555
C20_4 N17_3 1_555 1_555
H18_4 C18_4 1_555 1_555
H19_4 C19_4 1_555 1_555
H20_4 C20_4 1_555 1_555
C23_4 N10 1_555 1_555
C24_4 N6_4 1_555 1_555
C25_4 N7_4 1_555 1_555
C28_4 N30 1_555 1_555
C29_4 N26_4 1_555 1_555
C30_4 N27_4 1_555 1_555
C33_4 C28_4 1_555 1_555
C34_4 C29_4 1_555 1_555
H22_4 C32_4 1_555 1_555
H23_4 C33_4 1_555 1_555
H24_4 C34_4 1_555 1_555
H26_4 C36_4 1_555 1_555
H27_4 C32_4 1_555 1_555
H28_4 C33_4 1_555 1_555
H29_4 C34_4 1_555 1_555
H31_4 C36_4 1_555 1_555
H32_4 C32_4 1_555 1_555
H33_4 C33_4 1_555 1_555
H34_4 C34_4 1_555 1_555
H36_4 C36_4 1_555 1_555
C3_4 C4_4 1_555 1_555
C4_4 C5_4 1_555 1_555
N30 N26_4 1_555 1_555
C8_4 C13_4 1_555 1_555
C10_4 C15_4 1_555 1_555
C18_4 C23_4 1_555 1_555
C19_4 C24_4 1_555 1_555
C20_4 C25_4 1_555 1_555
C23_4 C28_4 1_555 1_555
C24_4 C29_4 1_555 1_555
C25_4 C30_4 1_555 1_555
N9 C11_4 1_555 1_555
N22_2 C16_4 1_555 1_555
C11_4 H11_4 1_555 1_555
C16_4 C11_4 1_555 1_555
H16_4 C16_4 1_555 1_555
C21_4 N22_2 1_555 1_555
H21_4 C21_4 1_555 1_555
C26_4 N9 1_555 1_555
C31_4 N29 1_555 1_555
H25_4 C35_4 1_555 1_555
H30_4 C35_4 1_555 1_555
H35_4 C35_4 1_555 1_555
C21_4 C26_4 1_555 1_555
C26_4 C31_4 1_555 1_555
Ag2_2 N1_5 1_555 1_555
N3_5 Ag2_2 1_555 1_555
C3_5 N18_2 1_555 1_555
H3_5 C3_5 1_555 1_555
C4_5 N1_5 1_555 1_555
C5_5 N3_5 1_555 1_555
C6_5 C5_5 1_555 1_555
H4_5 C6_5 1_555 1_555
H5_5 C6_5 1_555 1_555
H6_5 C6_5 1_555 1_555
Ag6_3 N4_5 1_555 1_555
N4_5 C7_5 1_555 1_555
N9_2 Ag2_2 1_555 1_555
N10_2 Ag6_3 1_555 1_555
N21 C12_5 1_555 1_555
N24_5 N3_5 1_555 1_555
N29_2 Ag2_2 1_555 1_555
N30_2 Ag6_3 1_555 1_555
C7_5 H7_5 1_555 1_555
C10_5 H10_5 1_555 1_555
C12_5 C7_5 1_555 1_555
H12_5 C12_5 1_555 1_555
H15_5 C15_5 1_555 1_555
C17_5 N21 1_555 1_555
H17_5 C17_5 1_555 1_555
C22_5 N4_5 1_555 1_555
C27_5 N24_5 1_555 1_555
C32_5 C27_5 1_555 1_555
H22_5 C32_5 1_555 1_555
H27_5 C32_5 1_555 1_555
H32_5 C32_5 1_555 1_555
C3_5 C4_5 1_555 1_555
C4_5 C5_5 1_555 1_555
Ag6_3 N24_5 1_555 1_555
C10_5 C15_5 1_555 1_555
C17_5 C22_5 1_555 1_555
C22_5 C27_5 1_555 1_555
Ag9_3 N7_5 1_555 1_555
N27_5 Ag9_3 1_555 1_555
C20_5 N17_2 1_555 1_555
H20_5 C20_5 1_555 1_555
C25_5 N7_5 1_555 1_555
C30_5 N27_5 1_555 1_555
C31_5 N29_2 1_555 1_555
C36_5 C31_5 1_555 1_555
H26_5 C36_5 1_555 1_555
H31_5 C36_5 1_555 1_555
N27_5 N29_2 1_555 1_555
C20_5 C25_5 1_555 1_555
C25_5 C30_5 1_555 1_555
C1_5 H1_5 1_555 1_555
C2_5 C1_5 1_555 1_555
H2_5 C2_5 1_555 1_555
N20 C14_5 1_555 1_555
C9_5 H9_5 1_555 1_555
C14_5 C9_5 1_555 1_555
H14_5 C14_5 1_555 1_555
C19_5 N20 1_555 1_555
H19_5 C19_5 1_555 1_555
H23_5 C33_5 1_555 1_555
H28_5 C33_5 1_555 1_555
H33_5 C33_5 1_555 1_555
C19_5 C24_5 1_555 1_555
Ag9_3 N6_5 1_555 1_555
N10_2 C8_5 1_555 1_555
N22 C16_5 1_555 1_555
N26_5 Ag9_3 1_555 1_555
C8_5 H8_5 1_555 1_555
C11_5 H11_5 1_555 1_555
C13_5 N16_2 1_555 1_555
C16_5 C11_5 1_555 1_555
H13_5 C13_5 1_555 1_555
H16_5 C16_5 1_555 1_555
C18_5 N16_2 1_555 1_555
C21_5 N22 1_555 1_555
H18_5 C18_5 1_555 1_555
H21_5 C21_5 1_555 1_555
C23_5 N10_2 1_555 1_555
C28_5 N30_2 1_555 1_555
C29_5 N26_5 1_555 1_555
C34_5 C29_5 1_555 1_555
H24_5 C34_5 1_555 1_555
H25_5 C35_5 1_555 1_555
H29_5 C34_5 1_555 1_555
H30_5 C35_5 1_555 1_555
H35_5 C35_5 1_555 1_555
N30_2 N26_5 1_555 1_555
C8_5 C13_5 1_555 1_555
C18_5 C23_5 1_555 1_555
C21_5 C26_5 1_555 1_555
C23_5 C28_5 1_555 1_555
N22_3 Ag3 1_555 1_555
C7_6 H7_6 1_555 1_555
C12_6 C7_6 1_555 1_555
H12_6 C12_6 1_555 1_555
Ag2_3 N1_6 1_555 1_555
N3_6 Ag2_3 1_555 1_555
C5_6 N3_6 1_555 1_555
C6_6 C5_6 1_555 1_555
H4_6 C6_6 1_555 1_555
H5_6 C6_6 1_555 1_555
Ag3_3 N21_3 1_555 1_555
Ag6_4 N4_6 1_555 1_555
N9_3 Ag2_3 1_555 1_555
N10_3 Ag6_4 1_555 1_555
N24_6 N3_6 1_555 1_555
N29_3 Ag2_3 1_555 1_555
N30_3 Ag6_4 1_555 1_555
C17_6 N21_3 1_555 1_555
H17_6 C17_6 1_555 1_555
C22_6 N4_6 1_555 1_555
C27_6 N24_6 1_555 1_555
Ag6_4 N24_6 1_555 1_555
C17_6 C22_6 1_555 1_555
C22_6 C27_6 1_555 1_555
N18 C2_6 1_555 1_555
C1_6 H1_6 1_555 1_555
C2_6 C1_6 1_555 1_555
H2_6 C2_6 1_555 1_555
C3_6 N18 1_555 1_555
H3_6 C3_6 1_555 1_555
Ag9_4 N7_6 1_555 1_555
N7_6 C10_6 1_555 1_555
N20_3 Ag3_4 1_555 1_555
N27_6 Ag9_4 1_555 1_555
C8_6 H8_6 1_555 1_555
C10_6 H10_6 1_555 1_555
C13_6 N16 1_555 1_555
C15_6 N17 1_555 1_555
H13_6 C13_6 1_555 1_555
H15_6 C15_6 1_555 1_555
C18_6 N16 1_555 1_555
C20_6 N17 1_555 1_555
C21_6 N22_3 1_555 1_555
H18_6 C18_6 1_555 1_555
H20_6 C20_6 1_555 1_555
H21_6 C21_6 1_555 1_555
C25_6 N7_6 1_555 1_555
C26_6 N9_3 1_555 1_555
C30_6 N27_6 1_555 1_555
C31_6 N29_3 1_555 1_555
C35_6 C30_6 1_555 1_555
C36_6 C31_6 1_555 1_555
H22_6 C32_6 1_555 1_555
H24_6 C34_6 1_555 1_555
H25_6 C35_6 1_555 1_555
H26_6 C36_6 1_555 1_555
H27_6 C32_6 1_555 1_555
H29_6 C34_6 1_555 1_555
H30_6 C35_6 1_555 1_555
H31_6 C36_6 1_555 1_555
H32_6 C32_6 1_555 1_555
H34_6 C34_6 1_555 1_555
H35_6 C35_6 1_555 1_555
H36_6 C36_6 1_555 1_555
C3_6 C4_6 1_555 1_555
N27_6 N29_3 1_555 1_555
C8_6 C13_6 1_555 1_555
C10_6 C15_6 1_555 1_555
C18_6 C23_6 1_555 1_555
C20_6 C25_6 1_555 1_555
C21_6 C26_6 1_555 1_555
C25_6 C30_6 1_555 1_555
C26_6 C31_6 1_555 1_555
C11_6 H11_6 1_555 1_555
C16_6 C11_6 1_555 1_555
H16_6 C16_6 1_555 1_555
Ag9_4 N6_6 1_555 1_555
N6_6 C9_6 1_555 1_555
N20_3 C14_6 1_555 1_555
N26_6 Ag9_4 1_555 1_555
C9_6 H9_6 1_555 1_555
C14_6 C9_6 1_555 1_555
H14_6 C14_6 1_555 1_555
C19_6 N20_3 1_555 1_555
H19_6 C19_6 1_555 1_555
C24_6 N6_6 1_555 1_555
C28_6 N30_3 1_555 1_555
C29_6 N26_6 1_555 1_555
C33_6 C28_6 1_555 1_555
H23_6 C33_6 1_555 1_555
H28_6 C33_6 1_555 1_555
N30_3 N26_6 1_555 1_555
C19_6 C24_6 1_555 1_555
C24_6 C29_6 1_555 1_555
Cl1 O1 1_555 1_555
O2 Cl1 1_555 1_555
O3 Cl1 1_555 1_555
O4 Cl1 1_555 1_555
Cl1_2 O1_2 1_555 1_555
O2_2 Cl1_2 1_555 1_555
O3_2 Cl1_2 1_555 1_555
O4_2 Cl1_2 1_555 1_555
Cl1_3 O1_3 1_555 1_555
O3_3 Cl1_3 1_555 1_555
Cl1_4 O1_4 1_555 1_555
O2_3 Cl1_4 1_555 1_555
Cl1_5 O1_5 1_555 1_555
Cl1_6 O1_6 1_555 1_555
O4_3 Cl1_6 1_555 1_555
Cl1_7 O1_7 1_555 1_555
O2_4 Cl1_7 1_555 1_555
O3_4 Cl1_7 1_555 1_555
O4_4 Cl1_7 1_555 1_555
Cl1_8 O1_8 1_555 1_555
O2_5 Cl1_8 1_555 1_555
O3_5 Cl1_8 1_555 1_555
O4_5 Cl1_8 1_555 1_555
Cl1_9 O1_9 1_555 1_555
O3_6 Cl1_9 1_555 1_555
Cl1_10 O1_10 1_555 1_555
Cl1_11 O1_11 1_555 1_555
O2_6 Cl1_11 1_555 1_555
Cl1_12 O1_12 1_555 1_555
O4_6 Cl1_12 1_555 1_555
Cl1_13 O1_13 1_555 1_555
O2_7 Cl1_13 1_555 1_555
O3_7 Cl1_13 1_555 1_555
O4_7 Cl1_13 1_555 1_555
Cl1_14 O1_14 1_555 1_555
O2_8 Cl1_14 1_555 1_555
O3_8 Cl1_14 1_555 1_555
O4_8 Cl1_14 1_555 1_555
Cl1_15 O1_15 1_555 1_555
O4_9 Cl1_15 1_555 1_555
Cl1_16 O1_16 1_555 1_555
Cl1_17 O1_17 1_555 1_555
O2_9 Cl1_17 1_555 1_555
Cl1_18 O1_18 1_555 1_555
O3_9 Cl1_18 1_555 1_555
Cl1_19 O1_19 1_555 1_555
O2_10 Cl1_19 1_555 1_555
O3_10 Cl1_19 1_555 1_555
O4_10 Cl1_19 1_555 1_555
Cl1_20 O1_20 1_555 1_555
O2_11 Cl1_20 1_555 1_555
O3_11 Cl1_20 1_555 1_555
O4_11 Cl1_20 1_555 1_555
Cl1_21 O1_21 1_555 1_555
O4_12 Cl1_21 1_555 1_555
Cl1_22 O1_22 1_555 1_555
O2_12 Cl1_22 1_555 1_555
Cl1_23 O1_23 1_555 1_555
Cl1_24 O1_24 1_555 1_555
O3_12 Cl1_24 1_555 1_555
Cl2 O5 1_555 1_555
O6 Cl2 1_555 1_555
O7 Cl2 1_555 1_555
O8 Cl2 1_555 1_555
Cl2_2 O5_2 1_555 1_555
O6_2 Cl2_2 1_555 1_555
O7_2 Cl2_2 1_555 1_555
O8_2 Cl2_2 1_555 1_555
O6_3 Cl2_3 1_555 1_555
O8_3 Cl2_3 1_555 1_555
O6_4 Cl2_4 1_555 1_555
Cl2_5 O5_3 1_555 1_555
O6_5 Cl2_5 1_555 1_555
O6_6 Cl2_6 1_555 1_555
O7_3 Cl2_6 1_555 1_555
Cl2_7 O5_4 1_555 1_555
O6_7 Cl2_7 1_555 1_555
O7_4 Cl2_7 1_555 1_555
O8_4 Cl2_7 1_555 1_555
Cl2_8 O5_5 1_555 1_555
O6_8 Cl2_8 1_555 1_555
O7_5 Cl2_8 1_555 1_555
O8_5 Cl2_8 1_555 1_555
O6_9 Cl2_9 1_555 1_555
O8_6 Cl2_9 1_555 1_555
Cl2_10 O5_6 1_555 1_555
O6_10 Cl2_10 1_555 1_555
O6_11 Cl2_11 1_555 1_555
O6_12 Cl2_12 1_555 1_555
O7_6 Cl2_12 1_555 1_555
Cl2_13 O5_7 1_555 1_555
O6_13 Cl2_13 1_555 1_555
O7_7 Cl2_13 1_555 1_555
O8_7 Cl2_13 1_555 1_555
Cl2_14 O5_8 1_555 1_555
O6_14 Cl2_14 1_555 1_555
O7_8 Cl2_14 1_555 1_555
O8_8 Cl2_14 1_555 1_555
O6_15 Cl2_15 1_555 1_555
O7_9 Cl2_15 1_555 1_555
Cl2_16 O5_9 1_555 1_555
O6_16 Cl2_16 1_555 1_555
O6_17 Cl2_17 1_555 1_555
O6_18 Cl2_18 1_555 1_555
O8_9 Cl2_18 1_555 1_555
Cl2_19 O5_10 1_555 1_555
O6_19 Cl2_19 1_555 1_555
O7_10 Cl2_19 1_555 1_555
O8_10 Cl2_19 1_555 1_555
Cl2_20 O5_11 1_555 1_555
O6_20 Cl2_20 1_555 1_555
O7_11 Cl2_20 1_555 1_555
O8_11 Cl2_20 1_555 1_555
O6_21 Cl2_21 1_555 1_555
O7_12 Cl2_21 1_555 1_555
O6_22 Cl2_22 1_555 1_555
Cl2_23 O5_12 1_555 1_555
O6_23 Cl2_23 1_555 1_555
O6_24 Cl2_24 1_555 1_555
O8_12 Cl2_24 1_555 1_555

#END
