
###############################################################################
#
# This file contains modified crystal structure data generated from the
# MOF subset of the Cambridge Structural Database (CSD) v543 
# hosted by the Cambridge Crystallographic Data Centre (CCDC).
#
# This work is licensed under the Creative Commons
# Attribution-NonCommercial-ShareAlike 4.0 International License.
# To view a copy of this license, visit
# http://creativecommons.org/licenses/by-nc-sa/4.0/
# or send a letter to
# Creative Commons, PO Box 1866, Mountain View, CA 94042, USA.
#
# CIF created using the CSD Python API on 29 September 2022
# The structure has been converted into the P1 space group
# The structure has a 3D framework
# The original CSD entry SIKYER is in the monoclinic crystal system
# The framework has been calculated to contain at least 10.0% void space
# The void calculation uses a probe of radius 1.32A, grid spacing 0.4
#
###############################################################################

data_SIKYER
_chemical_formula_moiety         '(C56 H56 Eu4 O32)n'
_symmetry_cell_setting           triclinic
_symmetry_space_group_name_H-M   'P 1'
_symmetry_Int_Tables_number      1
_space_group_name_Hall           'P 1'
loop_
_symmetry_equiv_pos_site_id
_symmetry_equiv_pos_as_xyz
1 x,y,z
_cell_length_a                   11.716(2)
_cell_length_b                   13.693(3)
_cell_length_c                   13.800(3)
_cell_angle_alpha                90
_cell_angle_beta                 99.44(3)
_cell_angle_gamma                90
_cell_volume                     2183.91
loop_
_atom_site_label
_atom_site_type_symbol
_atom_site_fract_x
_atom_site_fract_y
_atom_site_fract_z
Eu6 Eu 0.113521(12) 0.459839(10) 0.413416(9)
O1 O 0.27793(18) 0.10144(16) 0.02019(15)
O6 O 0.33337(19) 0.02971(16) 0.24880(15)
C12 C 0.4111(3) 0.0591(3) 0.4559(2)
H6 H 0.3512 0.0990 0.4263
Eu5 Eu 0.613521(12) 0.040161(10) 0.913416(9)
O12 O 0.52876(19) 0.07160(17) 0.16137(15)
O16 O 0.67499(18) 0.09473(16) 0.07755(14)
O17 O 0.55973(19) 0.10221(16) 0.74835(14)
C23 C 0.5959(3) 0.0300(2) 0.7051(2)
C24 C 0.5479(3) 0.0147(2) 0.5981(2)
C25 C 0.4582(3) 0.0738(3) 0.5531(2)
H19 H 0.4299 0.1234 0.5886
H24 H 0.9137 0.0900 0.0226
H28 H 0.6484 0.2840 0.0395
O2 O 0.43638(17) 0.09368(15) 0.95428(14)
O3 O 0.02876(19) 0.42840(17) 0.66137(15)
O4 O 0.17499(18) 0.40527(16) 0.57755(14)
C1 C 0.3352(3) 0.1280(2) 0.9561(2)
C2 C 0.2842(3) 0.2001(2) 0.8790(2)
C3 C 0.1798(3) 0.2457(3) 0.8864(2)
H1 H 0.1445 0.2345 0.9410
C4 C 0.1286(3) 0.3073(3) 0.8129(2)
H2 H 0.0582 0.3367 0.8178
C5 C 0.1811(3) 0.3258(2) 0.7314(2)
C6 C 0.2860(3) 0.2815(3) 0.7253(2)
H3 H 0.3220 0.2941 0.6713
C7 C 0.3383(3) 0.2188(3) 0.7982(2)
H4 H 0.4087 0.1895 0.7932
C8 C 0.1238(3) 0.3922(2) 0.6502(2)
O21 O 0.8133(2) 0.07889(19) 0.89478(17)
H21 H 0.8314 0.0215 0.8894
C27 C 0.8996(4) 0.1265(4) 0.9624(4)
H22 H 0.9697 0.1307 0.9351
H23 H 0.8738 0.1910 0.9753
O22 O 0.6306(2) 0.22111(17) 0.91095(15)
H25 H 0.6494 0.2466 0.8621
C28 C 0.6039(4) 0.2943(3) 0.9754(3)
H26 H 0.6221 0.3572 0.9513
H27 H 0.5229 0.2916 0.9795
Eu1 Eu 0.386479(12) 0.959839(10) 0.086584(9)
O5 O 0.44027(19) 0.89779(16) 0.25165(14)
C9 C 0.4041(3) 0.9700(2) 0.2949(2)
C10 C 0.4521(3) 0.9853(2) 0.4019(2)
C11 C 0.5418(3) 0.9262(3) 0.4469(2)
H5 H 0.5701 0.8766 0.4114
O7 O 0.1867(2) 0.92111(19) 0.10522(17)
H7 H 0.1686 0.9785 0.1106
C13 C 0.1004(4) 0.8735(4) 0.0376(4)
H8 H 0.0303 0.8693 0.0649
H9 H 0.1262 0.8090 0.0247
O8 O 0.3694(2) 0.77889(17) 0.08905(15)
H11 H 0.3506 0.7534 0.1379
C14 C 0.3961(4) 0.7057(3) 0.0246(3)
H12 H 0.3779 0.6428 0.0487
H13 H 0.4771 0.7084 0.0205
Eu7 Eu 0.886479(12) 0.540161(10) 0.586584(9)
O10 O 0.56362(17) 0.90632(15) 0.04572(14)
O11 O 0.97124(19) 0.57160(17) 0.33863(15)
O14 O 0.82501(18) 0.59473(16) 0.42245(14)
O19 O 0.66663(19) 0.97029(16) 0.75120(15)
C15 C 0.6648(3) 0.8720(2) 0.0439(2)
C16 C 0.7158(3) 0.7999(2) 0.1210(2)
C17 C 0.8202(3) 0.7543(3) 0.1136(2)
H15 H 0.8555 0.7655 0.0590
C18 C 0.8714(3) 0.6927(3) 0.1871(2)
H16 H 0.9418 0.6633 0.1822
C19 C 0.8189(3) 0.6742(2) 0.2686(2)
C20 C 0.7140(3) 0.7185(3) 0.2747(2)
H17 H 0.6780 0.7059 0.3287
C21 C 0.6617(3) 0.7812(3) 0.2018(2)
H18 H 0.5913 0.8105 0.2068
C22 C 0.8762(3) 0.6078(2) 0.3498(2)
C26 C 0.5889(3) 0.9409(3) 0.5441(2)
H20 H 0.6488 0.9010 0.5737
H10 H 0.0863 0.9100 0.9774
H14 H 0.3516 0.7160 0.9605
O9 O 0.72207(18) 0.89856(16) 0.97981(15)
O13 O 0.47124(19) 0.92840(17) 0.83863(15)
O15 O 0.32501(18) 0.90527(16) 0.92245(14)
O1_2 O 0.22207(18) 0.60144(16) 0.47981(15)
O2_2 O 0.06362(17) 0.59368(15) 0.54572(14)
O5_2 O 0.05973(19) 0.39779(16) 0.24835(14)
O6_2 O 0.16663(19) 0.52971(16) 0.25120(15)
C1_2 C 0.1648(3) 0.6280(2) 0.5439(2)
C2_2 C 0.2158(3) 0.7001(2) 0.6210(2)
C3_2 C 0.3202(3) 0.7457(3) 0.6136(2)
H1_2 H 0.3555 0.7345 0.5590
C4_2 C 0.3714(3) 0.8073(3) 0.6871(2)
H2_2 H 0.4418 0.8367 0.6822
C5_2 C 0.3189(3) 0.8258(2) 0.7686(2)
C6_2 C 0.2140(3) 0.7815(3) 0.7747(2)
H3_2 H 0.1780 0.7941 0.8287
C7_2 C 0.1617(3) 0.7188(3) 0.7018(2)
H4_2 H 0.0913 0.6895 0.7068
C8_2 C 0.3762(3) 0.8922(2) 0.8498(2)
C9_2 C 0.0959(3) 0.4700(2) 0.2051(2)
C10_2 C 0.0479(3) 0.4853(2) 0.0981(2)
C12_2 C 0.0889(3) 0.5591(3) 0.0441(2)
H6_2 H 0.1488 0.5990 0.0737
O7_2 O 0.3133(2) 0.42111(19) 0.39478(17)
H7_2 H 0.3314 0.4785 0.3894
C13_2 C 0.3996(4) 0.3735(4) 0.4624(4)
H8_2 H 0.4697 0.3693 0.4351
H9_2 H 0.3738 0.3090 0.4753
H10_2 H 0.4137 0.4100 0.5226
O8_2 O 0.1306(2) 0.27889(17) 0.41095(15)
H11_2 H 0.1494 0.2534 0.3621
C14_2 C 0.1039(4) 0.2057(3) 0.4754(3)
H12_2 H 0.1221 0.1428 0.4513
H13_2 H 0.0229 0.2084 0.4795
H14_2 H 0.1484 0.2160 0.5395
C25_2 C 0.0418(3) 0.5738(3) 0.9469(2)
H19_2 H 0.0701 0.6234 0.9114
C11_2 C 0.9582(3) 0.4262(3) 0.0531(2)
H5_2 H 0.9299 0.3766 0.0886
O9_2 O 0.77793(18) 0.39856(16) 0.52019(15)
O10_2 O 0.93638(17) 0.40632(15) 0.45428(14)
O18 O 0.94027(19) 0.60221(16) 0.75165(14)
O20 O 0.83337(19) 0.47029(16) 0.74880(15)
C15_2 C 0.8352(3) 0.3720(2) 0.4561(2)
C16_2 C 0.7842(3) 0.2999(2) 0.3790(2)
C17_2 C 0.6798(3) 0.2543(3) 0.3864(2)
H15_2 H 0.6445 0.2655 0.4410
C18_2 C 0.6286(3) 0.1927(3) 0.3129(2)
H16_2 H 0.5582 0.1633 0.3178
C19_2 C 0.6811(3) 0.1742(2) 0.2314(2)
C20_2 C 0.7860(3) 0.2185(3) 0.2253(2)
H17_2 H 0.8220 0.2059 0.1713
C21_2 C 0.8383(3) 0.2812(3) 0.2982(2)
H18_2 H 0.9087 0.3105 0.2932
C22_2 C 0.6238(3) 0.1078(2) 0.1502(2)
O21_2 O 0.6867(2) 0.57889(19) 0.60522(17)
H21_2 H 0.6686 0.5215 0.6106
C27_2 C 0.6004(4) 0.6265(4) 0.5376(4)
H22_2 H 0.5303 0.6307 0.5649
H23_2 H 0.6262 0.6910 0.5247
H24_2 H 0.5863 0.5900 0.4774
O22_2 O 0.8694(2) 0.72111(17) 0.58905(15)
H25_2 H 0.8506 0.7466 0.6379
C28_2 C 0.8961(4) 0.7943(3) 0.5246(3)
H26_2 H 0.8779 0.8572 0.5487
H27_2 H 0.9771 0.7916 0.5205
H28_2 H 0.8516 0.7840 0.4605
C23_2 C 0.9041(3) 0.5300(2) 0.7949(2)
C24_2 C 0.9521(3) 0.5147(2) 0.9019(2)
C26_2 C 0.9111(3) 0.4409(3) 0.9559(2)
H20_2 H 0.8512 0.4010 0.9263
loop_
_geom_bond_atom_site_label_1
_geom_bond_atom_site_label_2
_geom_bond_site_symmetry_1
_geom_bond_site_symmetry_2
H6 C12 1_555 1_555
Eu5 O17 1_555 1_555
O17 C23 1_555 1_555
C24 C23 1_555 1_555
C25 C12 1_555 1_555
H19 C25 1_555 1_555
C24 C25 1_555 1_555
O3 C8 1_555 1_555
O4 C8 1_555 1_555
C1 O2 1_555 1_555
C2 C1 1_555 1_555
C3 C2 1_555 1_555
H1 C3 1_555 1_555
C4 C3 1_555 1_555
H2 C4 1_555 1_555
C5 C4 1_555 1_555
C6 C5 1_555 1_555
H3 C6 1_555 1_555
C7 C2 1_555 1_555
H4 C7 1_555 1_555
C8 C5 1_555 1_555
Eu5 O2 1_555 1_555
Eu6 O4 1_555 1_555
O21 Eu5 1_555 1_555
H21 O21 1_555 1_555
C27 O21 1_555 1_555
H22 C27 1_555 1_555
H23 C27 1_555 1_555
O22 Eu5 1_555 1_555
H25 O22 1_555 1_555
C28 O22 1_555 1_555
H26 C28 1_555 1_555
H27 C28 1_555 1_555
C6 C7 1_555 1_555
O5 Eu1 1_555 1_555
C9 O5 1_555 1_555
C10 C9 1_555 1_555
C11 C10 1_555 1_555
H5 C11 1_555 1_555
O7 Eu1 1_555 1_555
H7 O7 1_555 1_555
C13 O7 1_555 1_555
H8 C13 1_555 1_555
H9 C13 1_555 1_555
O8 Eu1 1_555 1_555
H11 O8 1_555 1_555
C14 O8 1_555 1_555
H12 C14 1_555 1_555
H13 C14 1_555 1_555
Eu7 O14 1_555 1_555
O10 Eu1 1_555 1_555
O11 C22 1_555 1_555
O14 C22 1_555 1_555
C16 C15 1_555 1_555
C17 C16 1_555 1_555
H15 C17 1_555 1_555
C18 C17 1_555 1_555
H16 C18 1_555 1_555
C19 C18 1_555 1_555
C20 C19 1_555 1_555
H17 C20 1_555 1_555
C21 C16 1_555 1_555
H18 C21 1_555 1_555
C22 C19 1_555 1_555
C26 C11 1_555 1_555
H20 C26 1_555 1_555
O10 C15 1_555 1_555
C20 C21 1_555 1_555
Eu6 O1_2 1_555 1_555
O1_2 C1_2 1_555 1_555
O2_2 Eu6 1_555 1_555
O13 C8_2 1_555 1_555
O15 C8_2 1_555 1_555
O5_2 Eu6 1_555 1_555
O6_2 Eu6 1_555 1_555
C1_2 O2_2 1_555 1_555
C2_2 C1_2 1_555 1_555
C3_2 C2_2 1_555 1_555
H1_2 C3_2 1_555 1_555
C4_2 C3_2 1_555 1_555
H2_2 C4_2 1_555 1_555
C5_2 C4_2 1_555 1_555
C6_2 C5_2 1_555 1_555
H3_2 C6_2 1_555 1_555
C7_2 C2_2 1_555 1_555
H4_2 C7_2 1_555 1_555
C8_2 C5_2 1_555 1_555
C9_2 O5_2 1_555 1_555
C10_2 C9_2 1_555 1_555
C12_2 C10_2 1_555 1_555
H6_2 C12_2 1_555 1_555
O7_2 Eu6 1_555 1_555
H7_2 O7_2 1_555 1_555
C13_2 O7_2 1_555 1_555
H8_2 C13_2 1_555 1_555
H9_2 C13_2 1_555 1_555
H10_2 C13_2 1_555 1_555
O8_2 Eu6 1_555 1_555
H11_2 O8_2 1_555 1_555
C14_2 O8_2 1_555 1_555
H12_2 C14_2 1_555 1_555
H13_2 C14_2 1_555 1_555
H14_2 C14_2 1_555 1_555
O6_2 C9_2 1_555 1_555
C6_2 C7_2 1_555 1_555
H19_2 C25_2 1_555 1_555
H5_2 C11_2 1_555 1_555
O9_2 Eu7 1_555 1_555
O12 C22_2 1_555 1_555
O16 C22_2 1_555 1_555
O18 Eu7 1_555 1_555
O20 Eu7 1_555 1_555
C15_2 O9_2 1_555 1_555
C16_2 C15_2 1_555 1_555
C17_2 C16_2 1_555 1_555
H15_2 C17_2 1_555 1_555
C18_2 C17_2 1_555 1_555
H16_2 C18_2 1_555 1_555
C19_2 C18_2 1_555 1_555
C20_2 C19_2 1_555 1_555
H17_2 C20_2 1_555 1_555
C21_2 C16_2 1_555 1_555
H18_2 C21_2 1_555 1_555
C22_2 C19_2 1_555 1_555
O21_2 Eu7 1_555 1_555
H21_2 O21_2 1_555 1_555
C27_2 O21_2 1_555 1_555
H22_2 C27_2 1_555 1_555
H23_2 C27_2 1_555 1_555
H24_2 C27_2 1_555 1_555
O22_2 Eu7 1_555 1_555
H25_2 O22_2 1_555 1_555
C28_2 O22_2 1_555 1_555
H26_2 C28_2 1_555 1_555
H27_2 C28_2 1_555 1_555
H28_2 C28_2 1_555 1_555
Eu7 O10_2 1_555 1_555
O10_2 C15_2 1_555 1_555
C20_2 C21_2 1_555 1_555
O18 C23_2 1_555 1_555
C23_2 O20 1_555 1_555
C24_2 C23_2 1_555 1_555
H20_2 C26_2 1_555 1_555
C24_2 C26_2 1_555 1_555

#END
