
###############################################################################
#
# This file contains modified crystal structure data generated from the
# MOF subset of the Cambridge Structural Database (CSD) v543 
# hosted by the Cambridge Crystallographic Data Centre (CCDC).
#
# This work is licensed under the Creative Commons
# Attribution-NonCommercial-ShareAlike 4.0 International License.
# To view a copy of this license, visit
# http://creativecommons.org/licenses/by-nc-sa/4.0/
# or send a letter to
# Creative Commons, PO Box 1866, Mountain View, CA 94042, USA.
#
# CIF created using the CSD Python API on 29 September 2022
# The structure has been converted into the P1 space group
# The structure has a 3D framework
# The original CSD entry SIMYEV is in the monoclinic crystal system
# The framework has been calculated to contain at least 10.0% void space
# The void calculation uses a probe of radius 1.32A, grid spacing 0.4
# H atom positions have been added when not included in the experimental data
#
###############################################################################

data_SIMYEV
_chemical_formula_moiety         '(C48 H80 N72 Ni16 O172 Si6 W48)n'
_symmetry_cell_setting           triclinic
_symmetry_space_group_name_H-M   'P 1'
_symmetry_Int_Tables_number      1
_space_group_name_Hall           'P 1'
loop_
_symmetry_equiv_pos_site_id
_symmetry_equiv_pos_as_xyz
1 x,y,z
_cell_length_a                   27.606(5)
_cell_length_b                   12.397(2)
_cell_length_c                   21.397(4)
_cell_angle_alpha                90
_cell_angle_beta                 117.979(2)
_cell_angle_gamma                90
_cell_volume                     6466.85
loop_
_atom_site_label
_atom_site_type_symbol
_atom_site_fract_x
_atom_site_fract_y
_atom_site_fract_z
C9 C 0.3144(4) 0.0625(9) 0.8299(5)
H9 H 0.3426 0.0165 0.8590
C10 C 0.2375(5) 0.1235(9) 0.7555(6)
H10 H 0.2006 0.1283 0.7223
H11 H 0.2568 0.0180 0.6415
N11 N 0.3203(4) 0.1654(7) 0.8255(5)
N13 N 0.2705(4) 0.2064(7) 0.7764(5)
N14 N 0.2622(4) 0.0294(7) 0.7872(5)
Ni5 Ni 0.38903(5) 0.25724(11) 0.88244(7)
Ni10 Ni 0.25911(6) 0.36771(11) 0.74529(7)
O25 O 0.0964(3) 0.3257(6) 0.0258(4)
Ni7 Ni 0.11097(5) 0.24276(11) 0.11756(7)
O12 O 0.0404(3) 0.6239(6) 0.8635(4)
O20 O 0.0300(3) 0.1106(6) 0.8344(4)
Si1 Si 0.0000 0.3491(3) 0.7500
O23 O 0.0247(3) 0.4244(5) 0.8202(4)
O24 O 0.0489(3) 0.2738(6) 0.7505(4)
C7 C 0.0852(5) 0.8281(10) 0.7346(7)
H7 H 0.0484 0.8092 0.7090
C8 C 0.1633(5) 0.8798(9) 0.8178(6)
H8 H 0.1910 0.9020 0.8616
C11 C 0.2246(6) 0.9783(13) 0.6185(7)
C12 C 0.1472(6) 0.9133(11) 0.5390(8)
H12 H 0.1161 0.9003 0.4962
N10 N 0.1099(4) 0.8582(8) 0.8032(6)
N12 N 0.1195(4) 0.8290(7) 0.7088(5)
N15 N 0.1555(4) 0.8749(8) 0.5988(5)
N16 N 0.1693(4) 0.8646(8) 0.7623(5)
N17 N 0.2040(4) 0.9137(7) 0.6497(5)
N18 N 0.1906(6) 0.9767(12) 0.5469(8)
O26 O 0.1472(3) 0.6429(6) 0.8829(5)
O27 O 0.0575(3) 0.5866(6) 0.7514(4)
O28 O 0.0169(3) 0.4698(6) 0.9329(4)
O29 O 0.0419(4) 0.8467(7) 0.5535(5)
O30 O 0.1516(3) 0.2264(6) 0.8222(4)
O31 O 0.2871(4) 0.8208(8) 0.8622(5)
O32 O 0.0063(3) 0.2592(6) 0.9014(4)
O33 O 0.1867(3) 0.3635(6) 0.7492(4)
O35 O 0.0567(3) 0.6440(6) 0.6243(4)
O36 O 0.1003(3) 0.2249(6) 0.6803(4)
O37 O 0.0782(3) 0.4363(6) 0.6821(4)
O38 O 0.1007(3) 0.2580(6) 0.9028(4)
O39 O 0.0772(3) 0.0745(6) 0.7507(4)
O40 O 0.1289(3) 0.4383(6) 0.8204(4)
O41 O 0.0374(4) 0.0514(7) 0.6042(4)
O43 O 0.1401(4) 0.0526(7) 0.8967(4)
O44 O 0.1140(3) 0.4688(6) 0.9351(4)
Ni3 Ni 0.11097(5) 0.75724(11) 0.61756(7)
Ni4 Ni 0.24089(6) 0.86771(11) 0.75471(7)
W7 W 0.066066(18) 0.35777(3) 0.93632(2)
W8 W 0.026047(18) 0.55023(4) 0.65411(2)
W9 W 0.09864(2) 0.14715(4) 0.83926(3)
W10 W 0.03586(2) 0.14541(4) 0.66203(2)
W11 W 0.126419(19) 0.33736(4) 0.75168(3)
W12 W 0.096445(19) 0.54888(4) 0.84942(3)
N19 N 0.1797(4) 0.6654(7) 0.6745(5)
N21 N 0.2295(4) 0.7064(7) 0.7236(5)
O45 O 0.0964(3) 0.6743(6) 0.5258(4)
O47 O 0.3133(3) 0.8635(6) 0.7508(4)
H17 H 0.051214 0.924675 0.559525
H18 H 0.0287396 0.825977 0.503288
H19 H 0.271608 0.855639 0.890701
H20 H 0.285466 0.741187 0.86597
C3 C 0.6856(4) 0.0625(9) 0.6701(5)
H3 H 0.6574 0.0165 0.6410
C4 C 0.7625(5) 0.1235(9) 0.7445(6)
H4 H 0.7994 0.1283 0.7777
H5 H 0.7432 0.0180 0.8585
N2 N 0.6797(4) 0.1654(7) 0.6745(5)
N4 N 0.7295(4) 0.2064(7) 0.7236(5)
N5 N 0.7378(4) 0.0294(7) 0.7128(5)
Ni6 Ni 0.61097(5) 0.25724(11) 0.61756(7)
Ni12 Ni 0.74089(6) 0.36771(11) 0.75471(7)
C1 C 0.9148(5) 0.8281(10) 0.7654(7)
H1 H 0.9516 0.8092 0.7910
C2 C 0.8367(5) 0.8798(9) 0.6822(6)
H2 H 0.8090 0.9020 0.6384
C5 C 0.7754(6) 0.9783(13) 0.8815(7)
C6 C 0.8528(6) 0.9133(11) 0.9610(8)
N1 N 0.8901(4) 0.8582(8) 0.6968(6)
N3 N 0.8805(4) 0.8290(7) 0.7912(5)
N6 N 0.8445(4) 0.8749(8) 0.9012(5)
N7 N 0.8307(4) 0.8646(8) 0.7377(5)
N8 N 0.7960(4) 0.9137(7) 0.8503(5)
N9 N 0.8094(6) 0.9767(12) 0.9531(8)
O1 O 0.9036(3) 0.3257(6) 0.4742(4)
O2 O 0.8528(3) 0.6429(6) 0.6171(5)
O3 O 0.9753(3) 0.4244(5) 0.6798(4)
O4 O 0.9425(3) 0.5866(6) 0.7486(4)
O5 O 0.9831(3) 0.4698(6) 0.5671(4)
O6 O 0.9581(4) 0.8467(7) 0.9465(5)
O7 O 0.8484(3) 0.2264(6) 0.6778(4)
O8 O 0.7129(4) 0.8208(8) 0.6378(5)
O9 O 0.9937(3) 0.2592(6) 0.5986(4)
O10 O 0.9511(3) 0.2738(6) 0.7495(4)
O11 O 0.8133(3) 0.3635(6) 0.7508(4)
O13 O 0.9433(3) 0.6440(6) 0.8757(4)
O14 O 0.8997(3) 0.2249(6) 0.8197(4)
O15 O 0.9218(3) 0.4363(6) 0.8179(4)
O16 O 0.8993(3) 0.2580(6) 0.5972(4)
O17 O 0.9228(3) 0.0745(6) 0.7493(4)
O18 O 0.8711(3) 0.4383(6) 0.6796(4)
O19 O 0.9626(4) 0.0514(7) 0.8958(4)
O21 O 0.8599(4) 0.0526(7) 0.6033(4)
O22 O 0.8860(3) 0.4688(6) 0.5649(4)
Ni1 Ni 0.88903(5) 0.75724(11) 0.88244(7)
Ni2 Ni 0.75911(6) 0.86771(11) 0.74529(7)
W1 W 0.933934(18) 0.35777(3) 0.56368(2)
W2 W 0.973953(18) 0.55023(4) 0.84589(2)
W3 W 0.90136(2) 0.14715(4) 0.66074(3)
W4 W 0.96414(2) 0.14541(4) 0.83797(2)
W5 W 0.873581(19) 0.33736(4) 0.74832(3)
W6 W 0.903555(19) 0.54888(4) 0.65058(3)
Si1_2 Si 1.0000 0.3491(3) 0.7500
O34 O 0.9596(3) 0.6239(6) 0.6365(4)
O42 O 0.9700(3) 0.1106(6) 0.6656(4)
N20 N 0.8203(4) 0.6654(7) 0.8255(5)
N22 N 0.7705(4) 0.7064(7) 0.7764(5)
O46 O 0.9036(3) 0.6743(6) 0.9742(4)
O48 O 0.6867(3) 0.8635(6) 0.7492(4)
Ni8 Ni 0.88903(5) 0.24276(11) 0.38244(7)
H13 H 0.948786 0.924675 0.940475
H14 H 0.97126 0.825977 0.996712
H15 H 0.728392 0.855639 0.609299
H16 H 0.714534 0.741187 0.63403
C1_2 C 0.4148(5) 0.3281(10) 0.7654(7)
H1_2 H 0.4516 0.3092 0.7910
C2_2 C 0.3367(5) 0.3798(9) 0.6822(6)
H2_2 H 0.3090 0.4020 0.6384
C3_2 C 0.1856(4) 0.5625(9) 0.6701(5)
H3_2 H 0.1574 0.5165 0.6410
C4_2 C 0.2625(5) 0.6235(9) 0.7445(6)
H4_2 H 0.2994 0.6283 0.7777
C5_2 C 0.2754(6) 0.4783(13) 0.8815(7)
H5_2 H 0.2432 0.5180 0.8585
C6_2 C 0.3528(6) 0.4133(11) 0.9610(8)
N1_2 N 0.3901(4) 0.3582(8) 0.6968(6)
N3_2 N 0.3805(4) 0.3290(7) 0.7912(5)
N5_2 N 0.2378(4) 0.5294(7) 0.7128(5)
N6_2 N 0.3445(4) 0.3749(8) 0.9012(5)
N7_2 N 0.3307(4) 0.3646(8) 0.7377(5)
N8_2 N 0.2960(4) 0.4137(7) 0.8503(5)
N9_2 N 0.3094(6) 0.4767(12) 0.9531(8)
O2_2 O 0.3528(3) 0.1429(6) 0.6171(5)
O4_2 O 0.4425(3) 0.0866(6) 0.7486(4)
O6_2 O 0.4581(4) 0.3467(7) 0.9465(5)
O8_2 O 0.2129(4) 0.3208(8) 0.6378(5)
O12_2 O 0.5404(3) 0.1239(6) 0.8635(4)
O13_2 O 0.4433(3) 0.1440(6) 0.8757(4)
W2_2 W 0.473953(18) 0.05023(4) 0.84589(2)
W6_2 W 0.403555(19) 0.04888(4) 0.65058(3)
C7_2 C 0.5852(5) 0.3281(10) 0.7346(7)
H7_2 H 0.5484 0.3092 0.7090
C8_2 C 0.6633(5) 0.3798(9) 0.8178(6)
H8_2 H 0.6910 0.4020 0.8616
C9_2 C 0.8144(4) 0.5625(9) 0.8299(5)
H9_2 H 0.8426 0.5165 0.8590
C10_2 C 0.7375(5) 0.6235(9) 0.7555(6)
H10_2 H 0.7006 0.6283 0.7223
C11_2 C 0.7246(6) 0.4783(13) 0.6185(7)
H11_2 H 0.7568 0.5180 0.6415
C12_2 C 0.6472(6) 0.4133(11) 0.5390(8)
H12_2 H 0.6161 0.4003 0.4962
N10_2 N 0.6099(4) 0.3582(8) 0.8032(6)
N12_2 N 0.6195(4) 0.3290(7) 0.7088(5)
N14_2 N 0.7622(4) 0.5294(7) 0.7872(5)
N15_2 N 0.6555(4) 0.3749(8) 0.5988(5)
N16_2 N 0.6693(4) 0.3646(8) 0.7623(5)
N17_2 N 0.7040(4) 0.4137(7) 0.6497(5)
N18_2 N 0.6906(6) 0.4767(12) 0.5469(8)
O26_2 O 0.6472(3) 0.1429(6) 0.8829(5)
O27_2 O 0.5575(3) 0.0866(6) 0.7514(4)
O29_2 O 0.5419(4) 0.3467(7) 0.5535(5)
O31_2 O 0.7871(4) 0.3208(8) 0.8622(5)
O34_2 O 0.4596(3) 0.1239(6) 0.6365(4)
O35_2 O 0.5567(3) 0.1440(6) 0.6243(4)
W8_2 W 0.526047(18) 0.05023(4) 0.65411(2)
W12_2 W 0.596445(19) 0.04888(4) 0.84942(3)
O45_2 O 0.5964(3) 0.1743(6) 0.5258(4)
O46_2 O 0.4036(3) 0.1743(6) 0.9742(4)
H13_2 H 0.448786 0.424675 0.940475
H14_2 H 0.47126 0.325977 0.996712
H15_2 H 0.228392 0.355639 0.609299
H16_2 H 0.214534 0.241187 0.63403
H17_2 H 0.551214 0.424675 0.559525
H18_2 H 0.52874 0.325977 0.503288
H19_2 H 0.771608 0.355639 0.890701
H20_2 H 0.785466 0.241187 0.86597
O25_2 O 0.5964(3) 0.8257(6) 0.0258(4)
Ni7_2 Ni 0.61097(5) 0.74276(11) 0.11756(7)
O1_2 O 0.4036(3) 0.8257(6) 0.4742(4)
O3_2 O 0.4753(3) 0.9244(5) 0.6798(4)
O5_2 O 0.4831(3) 0.9698(6) 0.5671(4)
O7_2 O 0.3484(3) 0.7264(6) 0.6778(4)
O9_2 O 0.4937(3) 0.7592(6) 0.5986(4)
O10_2 O 0.4511(3) 0.7738(6) 0.7495(4)
O14_2 O 0.3997(3) 0.7249(6) 0.8197(4)
O15_2 O 0.4218(3) 0.9363(6) 0.8179(4)
O16_2 O 0.3993(3) 0.7580(6) 0.5972(4)
O17_2 O 0.4228(3) 0.5745(6) 0.7493(4)
O18_2 O 0.3711(3) 0.9383(6) 0.6796(4)
O19_2 O 0.4626(4) 0.5514(7) 0.8958(4)
O20_2 O 0.5300(3) 0.6106(6) 0.8344(4)
O21_2 O 0.3599(4) 0.5526(7) 0.6033(4)
O22_2 O 0.3860(3) 0.9688(6) 0.5649(4)
W1_2 W 0.433934(18) 0.85777(3) 0.56368(2)
W3_2 W 0.40136(2) 0.64715(4) 0.66074(3)
W4_2 W 0.46414(2) 0.64541(4) 0.83797(2)
W5_2 W 0.373581(19) 0.83736(4) 0.74832(3)
Si1_3 Si 0.5000 0.8491(3) 0.7500
O23_2 O 0.5247(3) 0.9244(5) 0.8202(4)
O24_2 O 0.5489(3) 0.7738(6) 0.7505(4)
O28_2 O 0.5169(3) 0.9698(6) 0.9329(4)
O30_2 O 0.6516(3) 0.7264(6) 0.8222(4)
O32_2 O 0.5063(3) 0.7592(6) 0.9014(4)
O36_2 O 0.6003(3) 0.7249(6) 0.6803(4)
O37_2 O 0.5782(3) 0.9363(6) 0.6821(4)
O38_2 O 0.6007(3) 0.7580(6) 0.9028(4)
O39_2 O 0.5772(3) 0.5745(6) 0.7507(4)
O40_2 O 0.6289(3) 0.9383(6) 0.8204(4)
O41_2 O 0.5374(4) 0.5514(7) 0.6042(4)
O42_2 O 0.4700(3) 0.6106(6) 0.6656(4)
O43_2 O 0.6401(4) 0.5526(7) 0.8967(4)
O44_2 O 0.6140(3) 0.9688(6) 0.9351(4)
W7_2 W 0.566066(18) 0.85777(3) 0.93632(2)
W9_2 W 0.59864(2) 0.64715(4) 0.83926(3)
W10_2 W 0.53586(2) 0.64541(4) 0.66203(2)
W11_2 W 0.626419(19) 0.83736(4) 0.75168(3)
Ni8_2 Ni 0.38903(5) 0.74276(11) 0.38244(7)
C1_3 C 0.0852(5) 0.1719(10) 0.2346(7)
H1_3 H 0.0484 0.1908 0.2090
C2_3 C 0.1633(5) 0.1202(9) 0.3178(6)
H2_3 H 0.1910 0.0980 0.3616
C5_3 C 0.2246(6) 0.0217(13) 0.1185(7)
C6_3 C 0.1472(6) 0.0867(11) 0.0390(8)
N1_3 N 0.1099(4) 0.1418(8) 0.3032(6)
N3_3 N 0.1195(4) 0.1710(7) 0.2088(5)
N6_3 N 0.1555(4) 0.1251(8) 0.0988(5)
N7_3 N 0.1693(4) 0.1354(8) 0.2623(5)
N8_3 N 0.2040(4) 0.0863(7) 0.1497(5)
N9_3 N 0.1906(6) 0.0233(12) 0.0469(8)
O2_3 O 0.1472(3) 0.3571(6) 0.3829(5)
O3_3 O 0.0247(3) 0.5756(5) 0.3202(4)
O4_3 O 0.0575(3) 0.4134(6) 0.2514(4)
O5_3 O 0.0169(3) 0.5302(6) 0.4329(4)
O6_3 O 0.0419(4) 0.1533(7) 0.0535(5)
O7_3 O 0.1516(3) 0.7736(6) 0.3222(4)
O8_3 O 0.2871(4) 0.1792(8) 0.3622(5)
O9_3 O 0.0063(3) 0.7408(6) 0.4014(4)
O10_3 O 0.0489(3) 0.7262(6) 0.2505(4)
O11_2 O 0.1867(3) 0.6365(6) 0.2492(4)
O13_3 O 0.0567(3) 0.3560(6) 0.1243(4)
O14_3 O 0.1003(3) 0.7751(6) 0.1803(4)
O15_3 O 0.0782(3) 0.5637(6) 0.1821(4)
O16_3 O 0.1007(3) 0.7420(6) 0.4028(4)
O17_3 O 0.0772(3) 0.9255(6) 0.2507(4)
O18_3 O 0.1289(3) 0.5617(6) 0.3204(4)
O19_3 O 0.0374(4) 0.9486(7) 0.1042(4)
O21_3 O 0.1401(4) 0.9474(7) 0.3967(4)
O22_3 O 0.1140(3) 0.5312(6) 0.4351(4)
Ni2_2 Ni 0.24089(6) 0.13229(11) 0.25471(7)
W1_3 W 0.066066(18) 0.64223(3) 0.43632(2)
W2_3 W 0.026047(18) 0.44977(4) 0.15411(2)
W3_3 W 0.09864(2) 0.85285(4) 0.33926(3)
W4_3 W 0.03586(2) 0.85459(4) 0.16203(2)
W5_3 W 0.126419(19) 0.66264(4) 0.25168(3)
W6_3 W 0.096445(19) 0.45112(4) 0.34942(3)
Si1_4 Si 0.0000 0.6509(3) 0.2500
O34_3 O 0.0404(3) 0.3761(6) 0.3635(4)
O42_3 O 0.0300(3) 0.8894(6) 0.3344(4)
N20_2 N 0.1797(4) 0.3346(7) 0.1745(5)
N22_2 N 0.2295(4) 0.2936(7) 0.2236(5)
O48_2 O 0.3133(3) 0.1365(6) 0.2508(4)
Ni11 Ni 0.25911(6) 0.63229(11) 0.24529(7)
H13_3 H 0.051214 0.0753252 0.0595249
H14_3 H 0.0287396 0.174023 0.00328809
H15_3 H 0.271608 0.144361 0.390701
H16_3 H 0.285466 0.258813 0.36597
C3_3 C 0.3144(4) 0.9375(9) 0.3299(5)
H3_3 H 0.3426 0.9835 0.3590
C4_3 C 0.2375(5) 0.8765(9) 0.2555(6)
H4_3 H 0.2006 0.8717 0.2223
H5_3 H 0.2568 0.9820 0.1415
N2_2 N 0.3203(4) 0.8346(7) 0.3255(5)
N4_2 N 0.2705(4) 0.7936(7) 0.2764(5)
N5_3 N 0.2622(4) 0.9706(7) 0.2872(5)
O12_3 O 0.9596(3) 0.3761(6) 0.1365(4)
O20_3 O 0.9700(3) 0.8894(6) 0.1656(4)
Si1_5 Si 1.0000 0.6509(3) 0.2500
O23_3 O 0.9753(3) 0.5756(5) 0.1798(4)
O24_3 O 0.9511(3) 0.7262(6) 0.2495(4)
C7_3 C 0.9148(5) 0.1719(10) 0.2654(7)
H7_3 H 0.9516 0.1908 0.2910
C8_3 C 0.8367(5) 0.1202(9) 0.1822(6)
H8_3 H 0.8090 0.0980 0.1384
C11_3 C 0.7754(6) 0.0217(13) 0.3815(7)
C12_3 C 0.8528(6) 0.0867(11) 0.4610(8)
H12_3 H 0.8839 0.0997 0.5038
N10_3 N 0.8901(4) 0.1418(8) 0.1968(6)
N12_3 N 0.8805(4) 0.1710(7) 0.2912(5)
N15_3 N 0.8445(4) 0.1251(8) 0.4012(5)
N16_3 N 0.8307(4) 0.1354(8) 0.2377(5)
N17_3 N 0.7960(4) 0.0863(7) 0.3503(5)
N18_3 N 0.8094(6) 0.0233(12) 0.4531(8)
O26_3 O 0.8528(3) 0.3571(6) 0.1171(5)
O27_3 O 0.9425(3) 0.4134(6) 0.2486(4)
O28_3 O 0.9831(3) 0.5302(6) 0.0671(4)
O29_3 O 0.9581(4) 0.1533(7) 0.4465(5)
O30_3 O 0.8484(3) 0.7736(6) 0.1778(4)
O31_3 O 0.7129(4) 0.1792(8) 0.1378(5)
O32_3 O 0.9937(3) 0.7408(6) 0.0986(4)
O33_2 O 0.8133(3) 0.6365(6) 0.2508(4)
O35_3 O 0.9433(3) 0.3560(6) 0.3757(4)
O36_3 O 0.8997(3) 0.7751(6) 0.3197(4)
O37_3 O 0.9218(3) 0.5637(6) 0.3179(4)
O38_3 O 0.8993(3) 0.7420(6) 0.0972(4)
O39_3 O 0.9228(3) 0.9255(6) 0.2493(4)
O40_3 O 0.8711(3) 0.5617(6) 0.1796(4)
O41_3 O 0.9626(4) 0.9486(7) 0.3958(4)
O43_3 O 0.8599(4) 0.9474(7) 0.1033(4)
O44_3 O 0.8860(3) 0.5312(6) 0.0649(4)
Ni4_2 Ni 0.75911(6) 0.13229(11) 0.24529(7)
W7_3 W 0.933934(18) 0.64223(3) 0.06368(2)
W8_3 W 0.973953(18) 0.44977(4) 0.34589(2)
W9_3 W 0.90136(2) 0.85285(4) 0.16074(3)
W10_3 W 0.96414(2) 0.85459(4) 0.33797(2)
W11_3 W 0.873581(19) 0.66264(4) 0.24832(3)
W12_3 W 0.903555(19) 0.45112(4) 0.15058(3)
N19_2 N 0.8203(4) 0.3346(7) 0.3255(5)
N21_2 N 0.7705(4) 0.2936(7) 0.2764(5)
O47_2 O 0.6867(3) 0.1365(6) 0.2492(4)
Ni9 Ni 0.74089(6) 0.63229(11) 0.25471(7)
H17_3 H 0.948786 0.0753252 0.440475
H18_3 H 0.97126 0.174023 0.496712
H19_3 H 0.728392 0.144361 0.109299
H20_3 H 0.714534 0.258813 0.13403
C9_3 C 0.6856(4) 0.9375(9) 0.1701(5)
H9_3 H 0.6574 0.9835 0.1410
C10_3 C 0.7625(5) 0.8765(9) 0.2445(6)
H10_3 H 0.7994 0.8717 0.2777
H11_3 H 0.7432 0.9820 0.3585
N11_2 N 0.6797(4) 0.8346(7) 0.1745(5)
N13_2 N 0.7295(4) 0.7936(7) 0.2236(5)
N14_3 N 0.7378(4) 0.9706(7) 0.2128(5)
O3_4 O 0.5247(3) 0.0756(5) 0.3202(4)
O5_4 O 0.5169(3) 0.0302(6) 0.4329(4)
O7_4 O 0.6516(3) 0.2736(6) 0.3222(4)
O9_4 O 0.5063(3) 0.2408(6) 0.4014(4)
O10_4 O 0.5489(3) 0.2262(6) 0.2505(4)
O14_4 O 0.6003(3) 0.2751(6) 0.1803(4)
O15_4 O 0.5782(3) 0.0637(6) 0.1821(4)
O16_4 O 0.6007(3) 0.2420(6) 0.4028(4)
O17_4 O 0.5772(3) 0.4255(6) 0.2507(4)
O18_4 O 0.6289(3) 0.0617(6) 0.3204(4)
O19_4 O 0.5374(4) 0.4486(7) 0.1042(4)
O20_4 O 0.4700(3) 0.3894(6) 0.1656(4)
O21_4 O 0.6401(4) 0.4474(7) 0.3967(4)
O22_4 O 0.6140(3) 0.0312(6) 0.4351(4)
W1_4 W 0.566066(18) 0.14223(3) 0.43632(2)
W3_4 W 0.59864(2) 0.35285(4) 0.33926(3)
W4_4 W 0.53586(2) 0.35459(4) 0.16203(2)
W5_4 W 0.626419(19) 0.16264(4) 0.25168(3)
Si1_6 Si 0.5000 0.1509(3) 0.2500
O23_4 O 0.4753(3) 0.0756(5) 0.1798(4)
O24_4 O 0.4511(3) 0.2262(6) 0.2495(4)
O28_4 O 0.4831(3) 0.0302(6) 0.0671(4)
O30_4 O 0.3484(3) 0.2736(6) 0.1778(4)
O32_4 O 0.4937(3) 0.2408(6) 0.0986(4)
O36_4 O 0.3997(3) 0.2751(6) 0.3197(4)
O37_4 O 0.4218(3) 0.0637(6) 0.3179(4)
O38_4 O 0.3993(3) 0.2420(6) 0.0972(4)
O39_4 O 0.4228(3) 0.4255(6) 0.2493(4)
O40_4 O 0.3711(3) 0.0617(6) 0.1796(4)
O41_4 O 0.4626(4) 0.4486(7) 0.3958(4)
O42_4 O 0.5300(3) 0.3894(6) 0.3344(4)
O43_4 O 0.3599(4) 0.4474(7) 0.1033(4)
O44_4 O 0.3860(3) 0.0312(6) 0.0649(4)
W7_4 W 0.433934(18) 0.14223(3) 0.06368(2)
W9_4 W 0.40136(2) 0.35285(4) 0.16074(3)
W10_4 W 0.46414(2) 0.35459(4) 0.33797(2)
W11_4 W 0.373581(19) 0.16264(4) 0.24832(3)
C1_4 C 0.5852(5) 0.6719(10) 0.2346(7)
H1_4 H 0.5484 0.6908 0.2090
C2_4 C 0.6633(5) 0.6202(9) 0.3178(6)
H2_4 H 0.6910 0.5980 0.3616
C3_4 C 0.8144(4) 0.4375(9) 0.3299(5)
H3_4 H 0.8426 0.4835 0.3590
C4_4 C 0.7375(5) 0.3765(9) 0.2555(6)
H4_4 H 0.7006 0.3717 0.2223
C5_4 C 0.7246(6) 0.5217(13) 0.1185(7)
H5_4 H 0.7568 0.4820 0.1415
C6_4 C 0.6472(6) 0.5867(11) 0.0390(8)
N1_4 N 0.6099(4) 0.6418(8) 0.3032(6)
N3_4 N 0.6195(4) 0.6710(7) 0.2088(5)
N5_4 N 0.7622(4) 0.4706(7) 0.2872(5)
N6_4 N 0.6555(4) 0.6251(8) 0.0988(5)
N7_4 N 0.6693(4) 0.6354(8) 0.2623(5)
N8_4 N 0.7040(4) 0.5863(7) 0.1497(5)
N9_4 N 0.6906(6) 0.5233(12) 0.0469(8)
O2_4 O 0.6472(3) 0.8571(6) 0.3829(5)
O4_4 O 0.5575(3) 0.9134(6) 0.2514(4)
O6_4 O 0.5419(4) 0.6533(7) 0.0535(5)
O8_4 O 0.7871(4) 0.6792(8) 0.3622(5)
O12_4 O 0.4596(3) 0.8761(6) 0.1365(4)
O13_4 O 0.5567(3) 0.8560(6) 0.1243(4)
W2_4 W 0.526047(18) 0.94977(4) 0.15411(2)
W6_4 W 0.596445(19) 0.95112(4) 0.34942(3)
C7_4 C 0.4148(5) 0.6719(10) 0.2654(7)
H7_4 H 0.4516 0.6908 0.2910
C8_4 C 0.3367(5) 0.6202(9) 0.1822(6)
H8_4 H 0.3090 0.5980 0.1384
C9_4 C 0.1856(4) 0.4375(9) 0.1701(5)
H9_4 H 0.1574 0.4835 0.1410
C10_4 C 0.2625(5) 0.3765(9) 0.2445(6)
H10_4 H 0.2994 0.3717 0.2777
C11_4 C 0.2754(6) 0.5217(13) 0.3815(7)
H11_4 H 0.2432 0.4820 0.3585
C12_4 C 0.3528(6) 0.5867(11) 0.4610(8)
H12_4 H 0.3839 0.5997 0.5038
N10_4 N 0.3901(4) 0.6418(8) 0.1968(6)
N12_4 N 0.3805(4) 0.6710(7) 0.2912(5)
N14_4 N 0.2378(4) 0.4706(7) 0.2128(5)
N15_4 N 0.3445(4) 0.6251(8) 0.4012(5)
N16_4 N 0.3307(4) 0.6354(8) 0.2377(5)
N17_4 N 0.2960(4) 0.5863(7) 0.3503(5)
N18_4 N 0.3094(6) 0.5233(12) 0.4531(8)
O26_4 O 0.3528(3) 0.8571(6) 0.1171(5)
O27_4 O 0.4425(3) 0.9134(6) 0.2486(4)
O29_4 O 0.4581(4) 0.6533(7) 0.4465(5)
O31_4 O 0.2129(4) 0.6792(8) 0.1378(5)
O34_4 O 0.5404(3) 0.8761(6) 0.3635(4)
O35_4 O 0.4433(3) 0.8560(6) 0.3757(4)
W8_4 W 0.473953(18) 0.94977(4) 0.34589(2)
W12_4 W 0.403555(19) 0.95112(4) 0.15058(3)
H13_4 H 0.551214 0.575325 0.0595249
H14_4 H 0.52874 0.674023 0.00328809
H15_4 H 0.771608 0.644361 0.390701
H16_4 H 0.785466 0.758813 0.36597
H17_4 H 0.448786 0.575325 0.440475
H18_4 H 0.47126 0.674023 0.496712
H19_4 H 0.228392 0.644361 0.109299
H20_4 H 0.214534 0.758813 0.13403
H6 H 0.8839 0.9003 0.0038
H6_2 H 0.3839 0.4003 0.0038
H6_3 H 0.1161 0.0997 0.9962
H6_4 H 0.6161 0.5997 0.9962
loop_
_geom_bond_atom_site_label_1
_geom_bond_atom_site_label_2
_geom_bond_site_symmetry_1
_geom_bond_site_symmetry_2
C9 H9 1_555 1_555
C10 H10 1_555 1_555
N11 C9 1_555 1_555
N13 C10 1_555 1_555
N14 C9 1_555 1_555
Ni5 N11 1_555 1_555
Ni10 N13 1_555 1_555
C10 N14 1_555 1_555
N11 N13 1_555 1_555
Ni7 O25 1_555 1_555
O24 Si1 1_555 1_555
C7 H7 1_555 1_555
C8 H8 1_555 1_555
C12 H12 1_555 1_555
N10 C7 1_555 1_555
N12 C7 1_555 1_555
N15 C12 1_555 1_555
N16 C8 1_555 1_555
N17 C11 1_555 1_555
N18 C11 1_555 1_555
O26 W12 1_555 1_555
O27 W8 1_555 1_555
O29 Ni3 1_555 1_555
O30 W9 1_555 1_555
O31 Ni4 1_555 1_555
O33 W11 1_555 1_555
O35 Ni3 1_555 1_555
O36 W10 1_555 1_555
O37 W8 1_555 1_555
O38 W7 1_555 1_555
O39 W9 1_555 1_555
O40 W11 1_555 1_555
O41 W10 1_555 1_555
O43 W9 1_555 1_555
O44 W7 1_555 1_555
Ni3 N12 1_555 1_555
W7 O23 1_555 1_555
W9 O20 1_555 1_555
W11 O24 1_555 1_555
W12 O12 1_555 1_555
N19 Ni3 1_555 1_555
N21 Ni4 1_555 1_555
O45 Ni3 1_555 1_555
O47 Ni4 1_555 1_555
Ni10 O33 1_555 1_555
Si1 O23 1_555 1_555
O23 W12 1_555 1_555
O24 W9 1_555 1_555
O24 W10 1_555 1_555
C8 N10 1_555 1_555
C12 N18 1_555 1_555
N12 N16 1_555 1_555
N15 N17 1_555 1_555
N15 Ni3 1_555 1_555
N16 Ni4 1_555 1_555
N17 Ni4 1_555 1_555
O27 W12 1_555 1_555
O28 W7 1_555 1_555
O30 W11 1_555 1_555
O32 W7 1_555 1_555
O35 W8 1_555 1_555
O36 W11 1_555 1_555
O37 W11 1_555 1_555
O38 W9 1_555 1_555
O39 W10 1_555 1_555
O40 W12 1_555 1_555
O44 W12 1_555 1_555
N19 N21 1_555 1_555
O29 H17 1_555 1_555
O29 H18 1_555 1_555
O31 H19 1_555 1_555
O31 H20 1_555 1_555
C3 H3 1_555 1_555
C4 H4 1_555 1_555
N2 C3 1_555 1_555
N4 C4 1_555 1_555
N5 C3 1_555 1_555
Ni6 N2 1_555 1_555
Ni12 N4 1_555 1_555
C4 N5 1_555 1_555
N2 N4 1_555 1_555
C1 H1 1_555 1_555
C2 H2 1_555 1_555
N1 C1 1_555 1_555
N3 C1 1_555 1_555
N6 C6 1_555 1_555
N7 C2 1_555 1_555
N8 C5 1_555 1_555
N9 C5 1_555 1_555
O1 W1 1_555 1_555
O2 W6 1_555 1_555
O3 W1 1_555 1_555
O4 W2 1_555 1_555
O5 W1 1_555 1_555
O6 Ni1 1_555 1_555
O7 W3 1_555 1_555
O8 Ni2 1_555 1_555
O9 W1 1_555 1_555
O10 W3 1_555 1_555
O11 W5 1_555 1_555
O13 Ni1 1_555 1_555
O14 W4 1_555 1_555
O15 W2 1_555 1_555
O16 W1 1_555 1_555
O17 W3 1_555 1_555
O18 W5 1_555 1_555
O19 W4 1_555 1_555
O21 W3 1_555 1_555
O22 W1 1_555 1_555
Ni1 N3 1_555 1_555
W2 O13 1_555 1_555
W3 O16 1_555 1_555
W4 O10 1_555 1_555
W5 O7 1_555 1_555
W6 O3 1_555 1_555
Si1_2 O3 1_555 1_555
O34 W6 1_555 1_555
O42 W3 1_555 1_555
N20 Ni1 1_555 1_555
N22 Ni2 1_555 1_555
O46 Ni1 1_555 1_555
O48 Ni2 1_555 1_555
Ni8 O1 1_555 1_555
Ni12 O11 1_555 1_555
C2 N1 1_555 1_555
C6 N9 1_555 1_555
N3 N7 1_555 1_555
N6 N8 1_555 1_555
N6 Ni1 1_555 1_555
N7 Ni2 1_555 1_555
N8 Ni2 1_555 1_555
O4 W6 1_555 1_555
O10 W5 1_555 1_555
O10 Si1_2 1_555 1_555
O14 W5 1_555 1_555
O15 W5 1_555 1_555
O17 W4 1_555 1_555
O18 W6 1_555 1_555
O22 W6 1_555 1_555
N20 N22 1_555 1_555
O6 H13 1_555 1_555
O6 H14 1_555 1_555
O8 H15 1_555 1_555
O8 H16 1_555 1_555
C1_2 H1_2 1_555 1_555
C2_2 H2_2 1_555 1_555
C3_2 H3_2 1_555 1_555
C4_2 H4_2 1_555 1_555
C5_2 H5_2 1_555 1_555
N1_2 C1_2 1_555 1_555
N19 C3_2 1_555 1_555
N3_2 C1_2 1_555 1_555
N21 C4_2 1_555 1_555
N5_2 C3_2 1_555 1_555
N6_2 C6_2 1_555 1_555
N7_2 C2_2 1_555 1_555
N8_2 C5_2 1_555 1_555
N9_2 C5_2 1_555 1_555
O2_2 W6_2 1_555 1_555
O4_2 W2_2 1_555 1_555
O6_2 Ni5 1_555 1_555
O8_2 Ni10 1_555 1_555
O12_2 W2_2 1_555 1_555
O13_2 Ni5 1_555 1_555
Ni5 N3_2 1_555 1_555
Ni10 N5_2 1_555 1_555
W2_2 O13_2 1_555 1_555
C7_2 H7_2 1_555 1_555
C8_2 H8_2 1_555 1_555
C9_2 H9_2 1_555 1_555
C10_2 H10_2 1_555 1_555
C11_2 H11_2 1_555 1_555
C12_2 H12_2 1_555 1_555
N10_2 C7_2 1_555 1_555
N20 C9_2 1_555 1_555
N12_2 C7_2 1_555 1_555
N22 C10_2 1_555 1_555
N14_2 C9_2 1_555 1_555
N15_2 C12_2 1_555 1_555
N16_2 C8_2 1_555 1_555
N17_2 C11_2 1_555 1_555
N18_2 C11_2 1_555 1_555
O26_2 W12_2 1_555 1_555
O27_2 W8_2 1_555 1_555
O29_2 Ni6 1_555 1_555
O31_2 Ni12 1_555 1_555
O34_2 W6_2 1_555 1_555
O35_2 Ni6 1_555 1_555
Ni6 N12_2 1_555 1_555
Ni12 N14_2 1_555 1_555
W12_2 O12_2 1_555 1_555
O45_2 Ni6 1_555 1_555
O46_2 Ni5 1_555 1_555
C2_2 N1_2 1_555 1_555
C4_2 N5_2 1_555 1_555
C6_2 N9_2 1_555 1_555
N3_2 N7_2 1_555 1_555
N6_2 N8_2 1_555 1_555
N6_2 Ni5 1_555 1_555
N7_2 Ni10 1_555 1_555
N8_2 Ni10 1_555 1_555
O4_2 W6_2 1_555 1_555
C8_2 N10_2 1_555 1_555
C10_2 N14_2 1_555 1_555
C12_2 N18_2 1_555 1_555
N12_2 N16_2 1_555 1_555
N15_2 N17_2 1_555 1_555
N15_2 Ni6 1_555 1_555
N16_2 Ni12 1_555 1_555
N17_2 Ni12 1_555 1_555
O27_2 W12_2 1_555 1_555
O34_2 W8_2 1_555 1_555
O35_2 W8_2 1_555 1_555
O6_2 H13_2 1_555 1_555
O6_2 H14_2 1_555 1_555
O8_2 H15_2 1_555 1_555
O8_2 H16_2 1_555 1_555
O29_2 H17_2 1_555 1_555
O29_2 H18_2 1_555 1_555
O31_2 H19_2 1_555 1_555
O31_2 H20_2 1_555 1_555
Ni7_2 O25_2 1_555 1_555
O1_2 W1_2 1_555 1_555
O3_2 W1_2 1_555 1_555
O5_2 W1_2 1_555 1_555
O7_2 W3_2 1_555 1_555
O9_2 W1_2 1_555 1_555
O10_2 W3_2 1_555 1_555
O47 W5_2 1_555 1_555
O14_2 W4_2 1_555 1_555
O16_2 W1_2 1_555 1_555
O17_2 W3_2 1_555 1_555
O18_2 W5_2 1_555 1_555
O19_2 W4_2 1_555 1_555
O20_2 W4_2 1_555 1_555
O21_2 W3_2 1_555 1_555
O22_2 W1_2 1_555 1_555
W3_2 O16_2 1_555 1_555
W4_2 O10_2 1_555 1_555
W5_2 O7_2 1_555 1_555
Si1_3 O3_2 1_555 1_555
O24_2 Si1_3 1_555 1_555
O30_2 W9_2 1_555 1_555
O32_2 W4_2 1_555 1_555
O48 W11_2 1_555 1_555
O36_2 W10_2 1_555 1_555
O38_2 W7_2 1_555 1_555
O39_2 W9_2 1_555 1_555
O40_2 W11_2 1_555 1_555
O41_2 W10_2 1_555 1_555
O42_2 W3_2 1_555 1_555
O43_2 W9_2 1_555 1_555
O44_2 W7_2 1_555 1_555
W7_2 O23_2 1_555 1_555
W9_2 O20_2 1_555 1_555
W10_2 O9_2 1_555 1_555
W11_2 O24_2 1_555 1_555
Ni8_2 O1_2 1_555 1_555
O10_2 W5_2 1_555 1_555
O10_2 Si1_3 1_555 1_555
O14_2 W5_2 1_555 1_555
O15_2 W5_2 1_555 1_555
O17_2 W4_2 1_555 1_555
Si1_3 O23_2 1_555 1_555
O24_2 W9_2 1_555 1_555
O24_2 W10_2 1_555 1_555
O28_2 W7_2 1_555 1_555
O30_2 W11_2 1_555 1_555
O32_2 W7_2 1_555 1_555
O36_2 W11_2 1_555 1_555
O37_2 W11_2 1_555 1_555
O38_2 W9_2 1_555 1_555
O39_2 W10_2 1_555 1_555
O42_2 W10_2 1_555 1_555
C1_3 H1_3 1_555 1_555
C2_3 H2_3 1_555 1_555
N1_3 C1_3 1_555 1_555
N3_3 C1_3 1_555 1_555
N6_3 C6_3 1_555 1_555
N7_3 C2_3 1_555 1_555
N8_3 C5_3 1_555 1_555
N9_3 C5_3 1_555 1_555
O45 W1_3 1_555 1_555
O2_3 W6_3 1_555 1_555
O3_3 W1_3 1_555 1_555
O4_3 W2_3 1_555 1_555
O5_3 W1_3 1_555 1_555
O6_3 Ni7 1_555 1_555
O7_3 W3_3 1_555 1_555
O8_3 Ni2_2 1_555 1_555
O9_3 W1_3 1_555 1_555
O10_3 W3_3 1_555 1_555
O11_2 W5_3 1_555 1_555
O13_3 Ni7 1_555 1_555
O14_3 W4_3 1_555 1_555
O15_3 W2_3 1_555 1_555
O16_3 W1_3 1_555 1_555
O17_3 W3_3 1_555 1_555
O18_3 W5_3 1_555 1_555
O19_3 W4_3 1_555 1_555
O21_3 W3_3 1_555 1_555
O22_3 W1_3 1_555 1_555
Ni7 N3_3 1_555 1_555
W2_3 O13_3 1_555 1_555
W3_3 O16_3 1_555 1_555
W4_3 O10_3 1_555 1_555
W5_3 O7_3 1_555 1_555
W6_3 O3_3 1_555 1_555
Si1_4 O3_3 1_555 1_555
O34_3 W6_3 1_555 1_555
O42_3 W3_3 1_555 1_555
N20_2 Ni7 1_555 1_555
N22_2 Ni2_2 1_555 1_555
O48_2 Ni2_2 1_555 1_555
Ni11 O11_2 1_555 1_555
C2_3 N1_3 1_555 1_555
C6_3 N9_3 1_555 1_555
N3_3 N7_3 1_555 1_555
N6_3 N8_3 1_555 1_555
N6_3 Ni7 1_555 1_555
N7_3 Ni2_2 1_555 1_555
N8_3 Ni2_2 1_555 1_555
O4_3 W6_3 1_555 1_555
O10_3 W5_3 1_555 1_555
O10_3 Si1_4 1_555 1_555
O14_3 W5_3 1_555 1_555
O15_3 W5_3 1_555 1_555
O17_3 W4_3 1_555 1_555
O18_3 W6_3 1_555 1_555
O22_3 W6_3 1_555 1_555
N20_2 N22_2 1_555 1_555
O6_3 H13_3 1_555 1_555
O6_3 H14_3 1_555 1_555
O8_3 H15_3 1_555 1_555
O8_3 H16_3 1_555 1_555
C3_3 H3_3 1_555 1_555
C4_3 H4_3 1_555 1_555
N2_2 C3_3 1_555 1_555
N4_2 C4_3 1_555 1_555
N5_3 C3_3 1_555 1_555
Ni8_2 N2_2 1_555 1_555
Ni11 N4_2 1_555 1_555
C4_3 N5_3 1_555 1_555
N2_2 N4_2 1_555 1_555
O24_3 Si1_5 1_555 1_555
C7_3 H7_3 1_555 1_555
C8_3 H8_3 1_555 1_555
C12_3 H12_3 1_555 1_555
N10_3 C7_3 1_555 1_555
N12_3 C7_3 1_555 1_555
N15_3 C12_3 1_555 1_555
N16_3 C8_3 1_555 1_555
N17_3 C11_3 1_555 1_555
N18_3 C11_3 1_555 1_555
O26_3 W12_3 1_555 1_555
O27_3 W8_3 1_555 1_555
O29_3 Ni8 1_555 1_555
O30_3 W9_3 1_555 1_555
O31_3 Ni4_2 1_555 1_555
O33_2 W11_3 1_555 1_555
O35_3 Ni8 1_555 1_555
O36_3 W10_3 1_555 1_555
O37_3 W8_3 1_555 1_555
O38_3 W7_3 1_555 1_555
O39_3 W9_3 1_555 1_555
O40_3 W11_3 1_555 1_555
O41_3 W10_3 1_555 1_555
O43_3 W9_3 1_555 1_555
O44_3 W7_3 1_555 1_555
Ni8 N12_3 1_555 1_555
W7_3 O23_3 1_555 1_555
W9_3 O20_3 1_555 1_555
W11_3 O24_3 1_555 1_555
W12_3 O12_3 1_555 1_555
N19_2 Ni8 1_555 1_555
N21_2 Ni4_2 1_555 1_555
O47_2 Ni4_2 1_555 1_555
Ni9 O33_2 1_555 1_555
Si1_5 O23_3 1_555 1_555
O23_3 W12_3 1_555 1_555
O24_3 W9_3 1_555 1_555
O24_3 W10_3 1_555 1_555
C8_3 N10_3 1_555 1_555
C12_3 N18_3 1_555 1_555
N12_3 N16_3 1_555 1_555
N15_3 N17_3 1_555 1_555
N15_3 Ni8 1_555 1_555
N16_3 Ni4_2 1_555 1_555
N17_3 Ni4_2 1_555 1_555
O27_3 W12_3 1_555 1_555
O28_3 W7_3 1_555 1_555
O30_3 W11_3 1_555 1_555
O32_3 W7_3 1_555 1_555
O35_3 W8_3 1_555 1_555
O36_3 W11_3 1_555 1_555
O37_3 W11_3 1_555 1_555
O38_3 W9_3 1_555 1_555
O39_3 W10_3 1_555 1_555
O40_3 W12_3 1_555 1_555
O44_3 W12_3 1_555 1_555
N19_2 N21_2 1_555 1_555
O29_3 H17_3 1_555 1_555
O29_3 H18_3 1_555 1_555
O31_3 H19_3 1_555 1_555
O31_3 H20_3 1_555 1_555
C9_3 H9_3 1_555 1_555
C10_3 H10_3 1_555 1_555
N11_2 C9_3 1_555 1_555
N13_2 C10_3 1_555 1_555
N14_3 C9_3 1_555 1_555
Ni7_2 N11_2 1_555 1_555
Ni9 N13_2 1_555 1_555
C10_3 N14_3 1_555 1_555
N11_2 N13_2 1_555 1_555
O45_2 W1_4 1_555 1_555
O3_4 W1_4 1_555 1_555
O5_4 W1_4 1_555 1_555
O7_4 W3_4 1_555 1_555
O9_4 W1_4 1_555 1_555
O10_4 W3_4 1_555 1_555
O47_2 W5_4 1_555 1_555
O14_4 W4_4 1_555 1_555
O16_4 W1_4 1_555 1_555
O17_4 W3_4 1_555 1_555
O18_4 W5_4 1_555 1_555
O19_4 W4_4 1_555 1_555
O20_4 W4_4 1_555 1_555
O21_4 W3_4 1_555 1_555
O22_4 W1_4 1_555 1_555
W3_4 O16_4 1_555 1_555
W4_4 O10_4 1_555 1_555
W5_4 O7_4 1_555 1_555
Si1_6 O3_4 1_555 1_555
O24_4 Si1_6 1_555 1_555
O30_4 W9_4 1_555 1_555
O32_4 W4_4 1_555 1_555
O48_2 W11_4 1_555 1_555
O36_4 W10_4 1_555 1_555
O38_4 W7_4 1_555 1_555
O39_4 W9_4 1_555 1_555
O40_4 W11_4 1_555 1_555
O41_4 W10_4 1_555 1_555
O42_4 W3_4 1_555 1_555
O43_4 W9_4 1_555 1_555
O44_4 W7_4 1_555 1_555
W7_4 O23_4 1_555 1_555
W9_4 O20_4 1_555 1_555
W10_4 O9_4 1_555 1_555
W11_4 O24_4 1_555 1_555
O10_4 W5_4 1_555 1_555
O10_4 Si1_6 1_555 1_555
O14_4 W5_4 1_555 1_555
O15_4 W5_4 1_555 1_555
O17_4 W4_4 1_555 1_555
Si1_6 O23_4 1_555 1_555
O24_4 W9_4 1_555 1_555
O24_4 W10_4 1_555 1_555
O28_4 W7_4 1_555 1_555
O30_4 W11_4 1_555 1_555
O32_4 W7_4 1_555 1_555
O36_4 W11_4 1_555 1_555
O37_4 W11_4 1_555 1_555
O38_4 W9_4 1_555 1_555
O39_4 W10_4 1_555 1_555
O42_4 W10_4 1_555 1_555
C1_4 H1_4 1_555 1_555
C2_4 H2_4 1_555 1_555
C3_4 H3_4 1_555 1_555
C4_4 H4_4 1_555 1_555
C5_4 H5_4 1_555 1_555
N1_4 C1_4 1_555 1_555
N19_2 C3_4 1_555 1_555
N3_4 C1_4 1_555 1_555
N21_2 C4_4 1_555 1_555
N5_4 C3_4 1_555 1_555
N6_4 C6_4 1_555 1_555
N7_4 C2_4 1_555 1_555
N8_4 C5_4 1_555 1_555
N9_4 C5_4 1_555 1_555
O2_4 W6_4 1_555 1_555
O4_4 W2_4 1_555 1_555
O6_4 Ni7_2 1_555 1_555
O8_4 Ni9 1_555 1_555
O12_4 W2_4 1_555 1_555
O13_4 Ni7_2 1_555 1_555
Ni7_2 N3_4 1_555 1_555
Ni9 N5_4 1_555 1_555
W2_4 O13_4 1_555 1_555
C7_4 H7_4 1_555 1_555
C8_4 H8_4 1_555 1_555
C9_4 H9_4 1_555 1_555
C10_4 H10_4 1_555 1_555
C11_4 H11_4 1_555 1_555
C12_4 H12_4 1_555 1_555
N10_4 C7_4 1_555 1_555
N20_2 C9_4 1_555 1_555
N12_4 C7_4 1_555 1_555
N22_2 C10_4 1_555 1_555
N14_4 C9_4 1_555 1_555
N15_4 C12_4 1_555 1_555
N16_4 C8_4 1_555 1_555
N17_4 C11_4 1_555 1_555
N18_4 C11_4 1_555 1_555
O26_4 W12_4 1_555 1_555
O27_4 W8_4 1_555 1_555
O29_4 Ni8_2 1_555 1_555
O31_4 Ni11 1_555 1_555
O34_4 W6_4 1_555 1_555
O35_4 Ni8_2 1_555 1_555
Ni8_2 N12_4 1_555 1_555
Ni11 N14_4 1_555 1_555
W12_4 O12_4 1_555 1_555
C2_4 N1_4 1_555 1_555
C4_4 N5_4 1_555 1_555
C6_4 N9_4 1_555 1_555
N3_4 N7_4 1_555 1_555
N6_4 N8_4 1_555 1_555
N6_4 Ni7_2 1_555 1_555
N7_4 Ni9 1_555 1_555
N8_4 Ni9 1_555 1_555
O4_4 W6_4 1_555 1_555
C8_4 N10_4 1_555 1_555
C10_4 N14_4 1_555 1_555
C12_4 N18_4 1_555 1_555
N12_4 N16_4 1_555 1_555
N15_4 N17_4 1_555 1_555
N15_4 Ni8_2 1_555 1_555
N16_4 Ni11 1_555 1_555
N17_4 Ni11 1_555 1_555
O27_4 W12_4 1_555 1_555
O34_4 W8_4 1_555 1_555
O35_4 W8_4 1_555 1_555
O6_4 H13_4 1_555 1_555
O6_4 H14_4 1_555 1_555
O8_4 H15_4 1_555 1_555
O8_4 H16_4 1_555 1_555
O29_4 H17_4 1_555 1_555
O29_4 H18_4 1_555 1_555
O31_4 H19_4 1_555 1_555
O31_4 H20_4 1_555 1_555

#END
