
###############################################################################
#
# This file contains modified crystal structure data generated from the
# MOF subset of the Cambridge Structural Database (CSD) v543 
# hosted by the Cambridge Crystallographic Data Centre (CCDC).
#
# This work is licensed under the Creative Commons
# Attribution-NonCommercial-ShareAlike 4.0 International License.
# To view a copy of this license, visit
# http://creativecommons.org/licenses/by-nc-sa/4.0/
# or send a letter to
# Creative Commons, PO Box 1866, Mountain View, CA 94042, USA.
#
# CIF created using the CSD Python API on 29 September 2022
# The structure has been converted into the P1 space group
# The structure has a 3D framework
# The original CSD entry SINTAN is in the monoclinic crystal system
# The framework has been calculated to contain at least 10.0% void space
# The void calculation uses a probe of radius 1.32A, grid spacing 0.4
#
###############################################################################

data_SINTAN
_chemical_formula_moiety         '(C120 H92 Co24 N32 O56)n'
_symmetry_cell_setting           triclinic
_symmetry_space_group_name_H-M   'P 1'
_symmetry_Int_Tables_number      1
_space_group_name_Hall           'P 1'
loop_
_symmetry_equiv_pos_site_id
_symmetry_equiv_pos_as_xyz
1 x,y,z
_cell_length_a                   34.882(9)
_cell_length_b                   10.203(3)
_cell_length_c                   13.579(4)
_cell_angle_alpha                90
_cell_angle_beta                 112.867(4)
_cell_angle_gamma                90
_cell_volume                     4452.97
loop_
_atom_site_label
_atom_site_type_symbol
_atom_site_fract_x
_atom_site_fract_y
_atom_site_fract_z
C1 C 0.3765(4) 0.2931(13) 0.7486(12)
C2 C 0.3602(4) 0.1582(16) 0.7357(12)
C3 C 0.3824(4) 0.0518(14) 0.7546(13)
H1 H 0.4112 0.0602 0.7801
C6 C 0.2984(4) 0.0234(17) 0.6728(12)
C7 C 0.3154(4) 0.1375(14) 0.6909(12)
H3 H 0.2982 0.2107 0.6744
C9 C 0.2512(3) 0.0048(14) 0.6264(12)
C13 C 0.1864(4) 0.0721(16) 0.6332(14)
H6 H 0.1718 0.1193 0.6659
C14 C 0.2305(4) 0.0734(19) 0.6761(15)
H7 H 0.2452 0.1209 0.7377
N1 N 0.0952(3) 0.0003(11) 0.5529(8)
O1 O 0.4163(3) 0.3048(9) 0.7883(9)
H9 H 0.0180 0.2389 0.4925
O3 O 0.3531(3) 0.3886(10) 0.7269(9)
O4 O 0.0000 0.1751(17) 0.2500
H10 H 0.0188 0.2029 0.3075
O8 O 0.0349(2) 0.0565(9) 0.6609(8)
H12 H 0.0353 0.1366 0.6568
Co1 Co 0.09664(5) 0.01000(19) 0.72169(15)
Co2 Co 0.0000 -0.0000 0.5000
N11 N 0.0950(3) 0.0171(11) 0.8875(8)
O20 O 0.1234(3) 0.1942(8) 0.7461(8)
Co8 Co 0.40336(5) 0.51000(19) 0.77831(15)
Co11 Co 0.0000 0.0000 0.0000
Co13 Co -0.0000 0.0268(2) 0.7500
Co11_2 Co 0.0000 -0.0000 1.0000
C4 C 0.3653(5) 0.9230(15) 0.7386(14)
C5 C 0.3237(4) 0.9030(17) 0.6956(13)
H2 H 0.3120 0.8197 0.6814
C8 C 0.3945(4) 0.8041(16) 0.7661(14)
C10 C 0.2301(4) 0.9291(16) 0.5366(14)
H4 H 0.2448 0.8811 0.5046
C11 C 0.1867(4) 0.9257(16) 0.4946(14)
H5 H 0.1725 0.8736 0.4353
C12 C 0.1649(3) 0.9977(14) 0.5395(10)
C15 C 0.1179(3) 0.9878(10) 0.4927(8)
N2 N 0.0561(3) 0.9978(10) 0.4780(9)
N3 N 0.0562(3) 0.9871(10) 0.3836(9)
N4 N 0.0950(3) 0.9829(11) 0.3875(8)
O5 O 0.3766(3) 0.6942(8) 0.7539(8)
O6 O 0.0000 0.754(2) 0.2500
O7 O 0.4326(3) 0.8187(11) 0.8048(12)
Co2_2 Co 0.0000 1.0000 0.5000
Co3 Co 0.0000 0.9732(2) 0.2500
H14 H 0.0001 0.7263 0.1911
O14 O 0.0059(4) 0.7965(17) 0.5275(11)
H23 H 0.0193 0.7836 0.5940
O16 O 0.0837(3) 0.8048(9) 0.7117(9)
O18 O 0.1469(3) 0.8886(10) 0.7731(9)
O22 O 0.0349(2) 0.9435(9) 0.1609(8)
Co10 Co 0.09664(5) 0.99000(19) 0.22169(15)
Co11_3 Co -0.0000 1.0000 0.0000
Co11_4 Co 0.0000 1.0000 1.0000
O2 O 0.9941(4) 0.2035(17) 0.4725(11)
H8 H 0.9807 0.2164 0.4060
O4_2 O 1.0000 0.1751(17) 0.2500
Co2_3 Co 1.0000 -0.0000 0.5000
H13 H 0.9812 0.2029 0.1925
N9 N 0.9439(3) 0.0022(10) 0.5220(9)
Co11_5 Co 1.0000 0.0000 0.0000
Co13_2 Co 1.0000 0.0268(2) 0.7500
C16 C 0.6235(4) 0.2931(13) 0.7514(12)
C17 C 0.6398(4) 0.1582(16) 0.7643(12)
C18 C 0.6176(4) 0.0518(14) 0.7454(13)
H15 H 0.5888 0.0602 0.7199
C21 C 0.7016(4) 0.0234(17) 0.8272(12)
C22 C 0.6846(4) 0.1375(14) 0.8091(12)
H17 H 0.7018 0.2107 0.8256
C24 C 0.7488(3) 0.0048(14) 0.8736(12)
C28 C 0.8136(4) 0.0721(16) 0.8668(14)
H20 H 0.8282 0.1193 0.8341
C29 C 0.7695(4) 0.0734(19) 0.8239(15)
H21 H 0.7548 0.1209 0.7623
N5 N 0.9048(3) 0.0003(11) 0.9471(8)
O9 O 0.5837(3) 0.3048(9) 0.7117(9)
O10 O 0.6469(3) 0.3886(10) 0.7731(9)
O13 O 0.9651(2) 0.0565(9) 0.8391(8)
H22 H 0.9647 0.1366 0.8432
Co4 Co 0.90336(5) 0.01000(19) 0.77831(15)
N10 N 0.9050(3) 0.0171(11) 0.6125(8)
O19 O 0.8766(3) 0.1942(8) 0.7539(8)
Co6 Co 0.59664(5) 0.51000(19) 0.72169(15)
Co11_6 Co 1.0000 -0.0000 1.0000
O6_2 O 1.0000 0.754(2) 0.2500
H11 H 0.9999 0.7263 0.3089
Co2_4 Co 1.0000 1.0000 0.5000
Co3_2 Co 1.0000 0.9732(2) 0.2500
C26 C 0.8133(4) 0.9257(16) 0.0054(14)
H19 H 0.8275 0.8736 0.0647
C30 C 0.8821(3) 0.9878(10) 0.0073(8)
N6 N 0.9439(3) 0.9978(10) 0.0220(9)
N7 N 0.9438(3) 0.9871(10) 0.1164(9)
N8 N 0.9050(3) 0.9829(11) 0.1125(8)
H24 H 0.9820 0.7611 0.5075
O21 O 0.9651(2) 0.9435(9) 0.3391(8)
Co9 Co 0.90336(5) 0.99000(19) 0.27831(15)
Co11_7 Co 1.0000 1.0000 0.0000
C19 C 0.6347(5) 0.9230(15) 0.7614(14)
C20 C 0.6763(4) 0.9030(17) 0.8044(13)
H16 H 0.6880 0.8197 0.8186
C23 C 0.6055(4) 0.8041(16) 0.7339(14)
C25 C 0.7699(4) 0.9291(16) 0.9634(14)
H18 H 0.7552 0.8811 0.9954
C27 C 0.8351(3) 0.9977(14) 0.9605(10)
O11 O 0.6234(3) 0.6942(8) 0.7461(8)
O12 O 0.5674(3) 0.8187(11) 0.6952(12)
O15 O 0.9163(3) 0.8048(9) 0.7883(9)
O17 O 0.8531(3) 0.8886(10) 0.7269(9)
Co11_8 Co 1.0000 1.0000 1.0000
O2_2 O 0.0059(4) 0.2035(17) 0.0275(11)
H8_2 H 0.0193 0.2164 0.0940
N9_2 N 0.0561(3) 0.0022(10) 0.9780(9)
H24_2 H 0.0180 0.7611 0.9925
H9_2 H 0.9820 0.2389 0.0075
O14_2 O 0.9941(4) 0.7965(17) 0.9725(11)
H23_2 H 0.9807 0.7836 0.9060
C1_2 C 0.8765(4) 0.7931(13) 0.7486(12)
C2_2 C 0.8602(4) 0.6582(16) 0.7357(12)
C3_2 C 0.8824(4) 0.5518(14) 0.7546(13)
H1_2 H 0.9112 0.5602 0.7801
C4_2 C 0.8653(5) 0.4230(15) 0.7386(14)
C5_2 C 0.8237(4) 0.4030(17) 0.6956(13)
H2_2 H 0.8120 0.3197 0.6814
C6_2 C 0.7984(4) 0.5234(17) 0.6728(12)
C7_2 C 0.8154(4) 0.6375(14) 0.6909(12)
H3_2 H 0.7982 0.7107 0.6744
C8_2 C 0.8945(4) 0.3041(16) 0.7661(14)
C9_2 C 0.7512(3) 0.5048(14) 0.6264(12)
C10_2 C 0.7301(4) 0.4291(16) 0.5366(14)
H4_2 H 0.7448 0.3811 0.5046
C11_2 C 0.6867(4) 0.4257(16) 0.4946(14)
H5_2 H 0.6725 0.3736 0.4353
C12_2 C 0.6649(3) 0.4977(14) 0.5395(10)
C13_2 C 0.6864(4) 0.5721(16) 0.6332(14)
H6_2 H 0.6718 0.6193 0.6659
C14_2 C 0.7305(4) 0.5734(19) 0.6761(15)
H7_2 H 0.7452 0.6209 0.7377
C15_2 C 0.6179(3) 0.4878(10) 0.4927(8)
N1_2 N 0.5952(3) 0.5003(11) 0.5529(8)
N2_2 N 0.5561(3) 0.4978(10) 0.4780(9)
N3_2 N 0.5562(3) 0.4871(10) 0.3836(9)
N4_2 N 0.5950(3) 0.4829(11) 0.3875(8)
O2_3 O 0.4941(4) 0.7035(17) 0.4725(11)
H8_3 H 0.4807 0.7164 0.4060
H9_3 H 0.5180 0.7389 0.4925
O4_3 O 0.5000 0.6751(17) 0.2500
H10_2 H 0.5188 0.7029 0.3075
O6_3 O 0.5000 0.254(2) 0.2500
H11_2 H 0.4999 0.2263 0.3089
O7_2 O 0.9326(3) 0.3187(11) 0.8048(12)
O8_2 O 0.5349(2) 0.5565(9) 0.6609(8)
H12_2 H 0.5353 0.6366 0.6568
Co2_5 Co 0.5000 0.5000 0.5000
Co3_3 Co 0.5000 0.4732(2) 0.2500
H13_2 H 0.4812 0.7029 0.1925
H14_2 H 0.5001 0.2263 0.1911
C26_2 C 0.3133(4) 0.4257(16) 0.0054(14)
H19_2 H 0.3275 0.3736 0.0647
C30_2 C 0.3821(3) 0.4878(10) 0.0073(8)
N6_2 N 0.4439(3) 0.4978(10) 0.0220(9)
N7_2 N 0.4438(3) 0.4871(10) 0.1164(9)
N8_2 N 0.4050(3) 0.4829(11) 0.1125(8)
O14_3 O 0.5059(4) 0.2965(17) 0.5275(11)
H23_3 H 0.5193 0.2836 0.5940
H24_3 H 0.4820 0.2611 0.5075
N9_3 N 0.4439(3) 0.5022(10) 0.5220(9)
N11_2 N 0.5950(3) 0.5171(11) 0.8875(8)
O21_2 O 0.4651(2) 0.4435(9) 0.3391(8)
O22_2 O 0.5349(2) 0.4435(9) 0.1609(8)
Co9_2 Co 0.40336(5) 0.49000(19) 0.27831(15)
Co10_2 Co 0.59664(5) 0.49000(19) 0.22169(15)
Co11_9 Co 0.5000 0.5000 0.0000
Co13_3 Co 0.5000 0.5268(2) 0.7500
C16_2 C 0.1235(4) 0.7931(13) 0.7514(12)
C17_2 C 0.1398(4) 0.6582(16) 0.7643(12)
C18_2 C 0.1176(4) 0.5518(14) 0.7454(13)
H15_2 H 0.0888 0.5602 0.7199
C19_2 C 0.1347(5) 0.4230(15) 0.7614(14)
C20_2 C 0.1763(4) 0.4030(17) 0.8044(13)
H16_2 H 0.1880 0.3197 0.8186
C21_2 C 0.2016(4) 0.5234(17) 0.8272(12)
C22_2 C 0.1846(4) 0.6375(14) 0.8091(12)
H17_2 H 0.2018 0.7107 0.8256
C23_2 C 0.1055(4) 0.3041(16) 0.7339(14)
C24_2 C 0.2488(3) 0.5048(14) 0.8736(12)
C25_2 C 0.2699(4) 0.4291(16) 0.9634(14)
H18_2 H 0.2552 0.3811 0.9954
C27_2 C 0.3351(3) 0.4977(14) 0.9605(10)
C28_2 C 0.3136(4) 0.5721(16) 0.8668(14)
H20_2 H 0.3282 0.6193 0.8341
C29_2 C 0.2695(4) 0.5734(19) 0.8239(15)
H21_2 H 0.2548 0.6209 0.7623
N5_2 N 0.4048(3) 0.5003(11) 0.9471(8)
O12_2 O 0.0674(3) 0.3187(11) 0.6952(12)
O13_2 O 0.4651(2) 0.5565(9) 0.8391(8)
H22_2 H 0.4647 0.6366 0.8432
N10_2 N 0.4050(3) 0.5171(11) 0.6125(8)
Co11_10 Co 0.5000 0.5000 1.0000
O2_4 O 0.5059(4) 0.7035(17) 0.0275(11)
H8_4 H 0.5193 0.7164 0.0940
H9_4 H 0.4820 0.7389 0.0075
O14_4 O 0.4941(4) 0.2965(17) 0.9725(11)
H23_4 H 0.4807 0.2836 0.9060
H24_4 H 0.5180 0.2611 0.9925
N9_4 N 0.5561(3) 0.5022(10) 0.9780(9)
C19_3 C 0.3653(5) 0.0770(15) 0.2386(14)
C20_3 C 0.3237(4) 0.0970(17) 0.1956(13)
H16_3 H 0.3120 0.1803 0.1814
C23_3 C 0.3945(4) 0.1959(16) 0.2661(14)
C25_3 C 0.2301(4) 0.0709(16) 0.0366(14)
H18_3 H 0.2448 0.1189 0.0046
C27_3 C 0.1649(3) 0.0023(14) 0.0395(10)
O11_2 O 0.3766(3) 0.3058(8) 0.2539(8)
O12_3 O 0.4326(3) 0.1813(11) 0.3048(12)
O15_2 O 0.0837(3) 0.1952(9) 0.2117(9)
O17_2 O 0.1469(3) 0.1114(10) 0.2731(9)
O6_4 O -0.0000 0.246(2) 0.7500
H11_3 H 0.0001 0.2737 0.6911
C26_3 C 0.1867(4) 0.0743(16) 0.9946(14)
H19_3 H 0.1725 0.1264 0.9353
C30_3 C 0.1179(3) 0.0122(10) 0.9927(8)
N7_3 N 0.0562(3) 0.0129(10) 0.8836(9)
C16_3 C 0.3765(4) 0.7069(13) 0.2486(12)
C17_3 C 0.3602(4) 0.8418(16) 0.2357(12)
C18_3 C 0.3824(4) 0.9482(14) 0.2546(13)
H15_3 H 0.4112 0.9398 0.2801
C21_3 C 0.2984(4) 0.9766(17) 0.1728(12)
C22_3 C 0.3154(4) 0.8625(14) 0.1909(12)
H17_3 H 0.2982 0.7893 0.1744
C24_3 C 0.2512(3) 0.9952(14) 0.1264(12)
C28_3 C 0.1864(4) 0.9279(16) 0.1332(14)
H20_3 H 0.1718 0.8807 0.1659
C29_3 C 0.2305(4) 0.9266(19) 0.1761(15)
H21_3 H 0.2452 0.8791 0.2377
N5_3 N 0.0952(3) 0.9997(11) 0.0529(8)
O9_2 O 0.4163(3) 0.6952(9) 0.2883(9)
O10_2 O 0.3531(3) 0.6114(10) 0.2269(9)
H22_3 H 0.0353 0.8634 0.1568
O19_2 O 0.1234(3) 0.8058(8) 0.2461(8)
O4_4 O -0.0000 0.8249(17) 0.7500
H13_3 H 0.0188 0.7971 0.8075
C4_3 C 0.6347(5) 0.0770(15) 0.2614(14)
C5_3 C 0.6763(4) 0.0970(17) 0.3044(13)
H2_3 H 0.6880 0.1803 0.3186
C8_3 C 0.6055(4) 0.1959(16) 0.2339(14)
C10_3 C 0.7699(4) 0.0709(16) 0.4634(14)
H4_3 H 0.7552 0.1189 0.4954
C11_3 C 0.8133(4) 0.0743(16) 0.5054(14)
H5_3 H 0.8275 0.1264 0.5647
C12_3 C 0.8351(3) 0.0023(14) 0.4605(10)
C15_3 C 0.8821(3) 0.0122(10) 0.5073(8)
N3_3 N 0.9438(3) 0.0129(10) 0.6164(9)
O5_2 O 0.6234(3) 0.3058(8) 0.2461(8)
O6_5 O 1.0000 0.246(2) 0.7500
O7_3 O 0.5674(3) 0.1813(11) 0.1952(12)
H14_3 H 0.9999 0.2737 0.8089
O16_2 O 0.9163(3) 0.1952(9) 0.2883(9)
O18_2 O 0.8531(3) 0.1114(10) 0.2269(9)
C1_3 C 0.6235(4) 0.7069(13) 0.2514(12)
C2_3 C 0.6398(4) 0.8418(16) 0.2643(12)
C3_3 C 0.6176(4) 0.9482(14) 0.2454(13)
H1_3 H 0.5888 0.9398 0.2199
C6_3 C 0.7016(4) 0.9766(17) 0.3272(12)
C7_3 C 0.6846(4) 0.8625(14) 0.3091(12)
H3_3 H 0.7018 0.7893 0.3256
C9_3 C 0.7488(3) 0.9952(14) 0.3736(12)
C13_3 C 0.8136(4) 0.9279(16) 0.3668(14)
H6_3 H 0.8282 0.8807 0.3341
C14_3 C 0.7695(4) 0.9266(19) 0.3239(15)
H7_3 H 0.7548 0.8791 0.2623
N1_3 N 0.9048(3) 0.9997(11) 0.4471(8)
O1_2 O 0.5837(3) 0.6952(9) 0.2117(9)
O3_2 O 0.6469(3) 0.6114(10) 0.2731(9)
O4_5 O 1.0000 0.8249(17) 0.7500
H10_3 H 0.9812 0.7971 0.6925
H12_3 H 0.9647 0.8634 0.3432
O20_2 O 0.8766(3) 0.8058(8) 0.2539(8)
C16_4 C 0.8765(4) 0.2069(13) 0.2486(12)
C17_4 C 0.8602(4) 0.3418(16) 0.2357(12)
C18_4 C 0.8824(4) 0.4482(14) 0.2546(13)
H15_4 H 0.9112 0.4398 0.2801
C19_4 C 0.8653(5) 0.5770(15) 0.2386(14)
C20_4 C 0.8237(4) 0.5970(17) 0.1956(13)
H16_4 H 0.8120 0.6803 0.1814
C21_4 C 0.7984(4) 0.4766(17) 0.1728(12)
C22_4 C 0.8154(4) 0.3625(14) 0.1909(12)
H17_4 H 0.7982 0.2893 0.1744
C23_4 C 0.8945(4) 0.6959(16) 0.2661(14)
C24_4 C 0.7512(3) 0.4952(14) 0.1264(12)
C25_4 C 0.7301(4) 0.5709(16) 0.0366(14)
H18_4 H 0.7448 0.6189 0.0046
C27_4 C 0.6649(3) 0.5023(14) 0.0395(10)
C28_4 C 0.6864(4) 0.4279(16) 0.1332(14)
H20_4 H 0.6718 0.3807 0.1659
C29_4 C 0.7305(4) 0.4266(19) 0.1761(15)
H21_4 H 0.7452 0.3791 0.2377
N5_4 N 0.5952(3) 0.4997(11) 0.0529(8)
O12_4 O 0.9326(3) 0.6813(11) 0.3048(12)
H22_4 H 0.5353 0.3634 0.1568
C1_4 C 0.1235(4) 0.2069(13) 0.2514(12)
C2_4 C 0.1398(4) 0.3418(16) 0.2643(12)
C3_4 C 0.1176(4) 0.4482(14) 0.2454(13)
H1_4 H 0.0888 0.4398 0.2199
C4_4 C 0.1347(5) 0.5770(15) 0.2614(14)
C5_4 C 0.1763(4) 0.5970(17) 0.3044(13)
H2_4 H 0.1880 0.6803 0.3186
C6_4 C 0.2016(4) 0.4766(17) 0.3272(12)
C7_4 C 0.1846(4) 0.3625(14) 0.3091(12)
H3_4 H 0.2018 0.2893 0.3256
C8_4 C 0.1055(4) 0.6959(16) 0.2339(14)
C9_4 C 0.2488(3) 0.4952(14) 0.3736(12)
C10_4 C 0.2699(4) 0.5709(16) 0.4634(14)
H4_4 H 0.2552 0.6189 0.4954
C11_4 C 0.3133(4) 0.5743(16) 0.5054(14)
H5_4 H 0.3275 0.6264 0.5647
C12_4 C 0.3351(3) 0.5023(14) 0.4605(10)
C13_4 C 0.3136(4) 0.4279(16) 0.3668(14)
H6_4 H 0.3282 0.3807 0.3341
C14_4 C 0.2695(4) 0.4266(19) 0.3239(15)
H7_4 H 0.2548 0.3791 0.2623
C15_4 C 0.3821(3) 0.5122(10) 0.5073(8)
N1_4 N 0.4048(3) 0.4997(11) 0.4471(8)
N3_4 N 0.4438(3) 0.5129(10) 0.6164(9)
O4_6 O 0.5000 0.3249(17) 0.7500
H10_4 H 0.4812 0.2971 0.6925
O6_6 O 0.5000 0.746(2) 0.7500
H11_4 H 0.5001 0.7737 0.6911
O7_4 O 0.0674(3) 0.6813(11) 0.1952(12)
H12_4 H 0.4647 0.3634 0.3432
H13_4 H 0.5188 0.2971 0.8075
H14_4 H 0.4999 0.7737 0.8089
C26_4 C 0.6867(4) 0.5743(16) 0.9946(14)
H19_4 H 0.6725 0.6264 0.9353
C30_4 C 0.6179(3) 0.5122(10) 0.9927(8)
N7_4 N 0.5562(3) 0.5129(10) 0.8836(9)
loop_
_geom_bond_atom_site_label_1
_geom_bond_atom_site_label_2
_geom_bond_site_symmetry_1
_geom_bond_site_symmetry_2
C1 C2 1_555 1_555
C2 C3 1_555 1_555
C3 H1 1_555 1_555
C7 C2 1_555 1_555
H3 C7 1_555 1_555
C9 C6 1_555 1_555
H6 C13 1_555 1_555
C14 C9 1_555 1_555
H7 C14 1_555 1_555
O1 C1 1_555 1_555
O3 C1 1_555 1_555
O4 H10 1_555 1_555
O8 H12 1_555 1_555
Co1 N1 1_555 1_555
N11 Co1 1_555 1_555
O20 Co1 1_555 1_555
Co8 O1 1_555 1_555
Co13 O8 1_555 1_555
C6 C7 1_555 1_555
C13 C14 1_555 1_555
O3 Co8 1_555 1_555
O8 Co1 1_555 1_555
O8 Co2 1_555 1_555
C5 C4 1_555 1_555
H2 C5 1_555 1_555
C8 C4 1_555 1_555
H4 C10 1_555 1_555
C11 C10 1_555 1_555
H5 C11 1_555 1_555
C12 C11 1_555 1_555
C15 C12 1_555 1_555
N3 N2 1_555 1_555
N4 C15 1_555 1_555
O5 C8 1_555 1_555
O7 C8 1_555 1_555
Co2_2 N2 1_555 1_555
Co3 N3 1_555 1_555
H14 O6 1_555 1_555
O14 Co2_2 1_555 1_555
H23 O14 1_555 1_555
O22 Co3 1_555 1_555
Co8 O5 1_555 1_555
Co10 N4 1_555 1_555
N3 N4 1_555 1_555
O6 Co3 1_555 1_555
O22 Co10 1_555 1_555
O22 Co11_3 1_555 1_555
O2 H8 1_555 1_555
H13 O4_2 1_555 1_555
N9 Co2_3 1_555 1_555
O2 Co2_3 1_555 1_555
C16 C17 1_555 1_555
C17 C18 1_555 1_555
C18 H15 1_555 1_555
C22 C17 1_555 1_555
H17 C22 1_555 1_555
C24 C21 1_555 1_555
H20 C28 1_555 1_555
C29 C24 1_555 1_555
H21 C29 1_555 1_555
O9 C16 1_555 1_555
O10 C16 1_555 1_555
O13 H22 1_555 1_555
Co4 N5 1_555 1_555
N10 Co4 1_555 1_555
O19 Co4 1_555 1_555
Co6 O9 1_555 1_555
Co13_2 O13 1_555 1_555
C21 C22 1_555 1_555
C28 C29 1_555 1_555
O10 Co6 1_555 1_555
O13 Co4 1_555 1_555
O13 Co11_6 1_555 1_555
O6_2 H11 1_555 1_555
H19 C26 1_555 1_555
N7 Co3_2 1_555 1_555
N8 C30 1_555 1_555
O21 Co2_4 1_555 1_555
Co9 N8 1_555 1_555
Co11_7 N6 1_555 1_555
O6_2 Co3_2 1_555 1_555
Co3_2 O21 1_555 1_555
N6 N7 1_555 1_555
N7 N8 1_555 1_555
O21 Co9 1_555 1_555
C20 C19 1_555 1_555
H16 C20 1_555 1_555
C23 C19 1_555 1_555
H18 C25 1_555 1_555
O11 C23 1_555 1_555
O12 C23 1_555 1_555
Co6 O11 1_555 1_555
O2_2 H8_2 1_555 1_555
O2_2 Co11 1_555 1_555
N9_2 Co11_2 1_555 1_555
O14_2 Co11_8 1_555 1_555
H23_2 O14_2 1_555 1_555
C1_2 C2_2 1_555 1_555
C2_2 C3_2 1_555 1_555
C3_2 H1_2 1_555 1_555
C4_2 C3_2 1_555 1_555
C5_2 C4_2 1_555 1_555
H2_2 C5_2 1_555 1_555
C6_2 C5_2 1_555 1_555
C7_2 C2_2 1_555 1_555
H3_2 C7_2 1_555 1_555
C8_2 C4_2 1_555 1_555
C9_2 C6_2 1_555 1_555
C10_2 C9_2 1_555 1_555
H4_2 C10_2 1_555 1_555
C11_2 C10_2 1_555 1_555
H5_2 C11_2 1_555 1_555
C12_2 C11_2 1_555 1_555
C13_2 C12_2 1_555 1_555
H6_2 C13_2 1_555 1_555
C14_2 C9_2 1_555 1_555
H7_2 C14_2 1_555 1_555
C15_2 C12_2 1_555 1_555
N1_2 C15_2 1_555 1_555
N2_2 N1_2 1_555 1_555
N3_2 N2_2 1_555 1_555
N4_2 C15_2 1_555 1_555
O15 C1_2 1_555 1_555
O2_3 H8_3 1_555 1_555
H9_3 O2_3 1_555 1_555
O17 C1_2 1_555 1_555
O4_3 H10_2 1_555 1_555
O19 C8_2 1_555 1_555
O6_3 H11_2 1_555 1_555
O7_2 C8_2 1_555 1_555
O8_2 H12_2 1_555 1_555
Co6 N1_2 1_555 1_555
Co2_5 N2_2 1_555 1_555
Co3_3 N3_2 1_555 1_555
H13_2 O4_3 1_555 1_555
H14_2 O6_3 1_555 1_555
H19_2 C26_2 1_555 1_555
N7_2 Co3_3 1_555 1_555
N8_2 C30_2 1_555 1_555
O14_3 Co2_5 1_555 1_555
H23_3 O14_3 1_555 1_555
H24_3 O14_3 1_555 1_555
N9_3 Co2_5 1_555 1_555
N11_2 Co6 1_555 1_555
O21_2 Co2_5 1_555 1_555
O22_2 Co3_3 1_555 1_555
Co9_2 N8_2 1_555 1_555
Co10_2 N4_2 1_555 1_555
Co11_9 N6_2 1_555 1_555
Co13_3 O8_2 1_555 1_555
C6_2 C7_2 1_555 1_555
C13_2 C14_2 1_555 1_555
N3_2 N4_2 1_555 1_555
O2_3 Co2_5 1_555 1_555
O4_3 Co3_3 1_555 1_555
O6_3 Co3_3 1_555 1_555
O8_2 Co6 1_555 1_555
O8_2 Co2_5 1_555 1_555
Co3_3 O21_2 1_555 1_555
N6_2 N7_2 1_555 1_555
N7_2 N8_2 1_555 1_555
O21_2 Co9_2 1_555 1_555
O22_2 Co10_2 1_555 1_555
O22_2 Co11_9 1_555 1_555
C16_2 C17_2 1_555 1_555
C17_2 C18_2 1_555 1_555
C18_2 H15_2 1_555 1_555
C19_2 C18_2 1_555 1_555
C20_2 C19_2 1_555 1_555
H16_2 C20_2 1_555 1_555
C21_2 C20_2 1_555 1_555
C22_2 C17_2 1_555 1_555
H17_2 C22_2 1_555 1_555
C23_2 C19_2 1_555 1_555
C24_2 C21_2 1_555 1_555
C25_2 C24_2 1_555 1_555
H18_2 C25_2 1_555 1_555
C28_2 C27_2 1_555 1_555
H20_2 C28_2 1_555 1_555
C29_2 C24_2 1_555 1_555
H21_2 C29_2 1_555 1_555
O16 C16_2 1_555 1_555
O18 C16_2 1_555 1_555
O20 C23_2 1_555 1_555
O12_2 C23_2 1_555 1_555
O13_2 H22_2 1_555 1_555
Co8 N5_2 1_555 1_555
N10_2 Co8 1_555 1_555
Co13_3 O13_2 1_555 1_555
C21_2 C22_2 1_555 1_555
C28_2 C29_2 1_555 1_555
O13_2 Co8 1_555 1_555
O13_2 Co11_10 1_555 1_555
O2_4 H8_4 1_555 1_555
H9_4 O2_4 1_555 1_555
O2_4 Co11_9 1_555 1_555
O14_4 Co11_10 1_555 1_555
H23_4 O14_4 1_555 1_555
H24_4 O14_4 1_555 1_555
N9_4 Co11_10 1_555 1_555
C20_3 C19_3 1_555 1_555
H16_3 C20_3 1_555 1_555
C23_3 C19_3 1_555 1_555
H18_3 C25_3 1_555 1_555
O11_2 C23_3 1_555 1_555
O12_3 C23_3 1_555 1_555
Co9_2 O11_2 1_555 1_555
O6_4 H11_3 1_555 1_555
H19_3 C26_3 1_555 1_555
N7_3 Co13 1_555 1_555
N11 C30_3 1_555 1_555
O6_4 Co13 1_555 1_555
N9_2 N7_3 1_555 1_555
N7_3 N11 1_555 1_555
C16_3 C17_3 1_555 1_555
C17_3 C18_3 1_555 1_555
C18_3 H15_3 1_555 1_555
C22_3 C17_3 1_555 1_555
H17_3 C22_3 1_555 1_555
C24_3 C21_3 1_555 1_555
H20_3 C28_3 1_555 1_555
C29_3 C24_3 1_555 1_555
H21_3 C29_3 1_555 1_555
O9_2 C16_3 1_555 1_555
O10_2 C16_3 1_555 1_555
O22 H22_3 1_555 1_555
Co10 N5_3 1_555 1_555
O19_2 Co10 1_555 1_555
Co9_2 O9_2 1_555 1_555
C21_3 C22_3 1_555 1_555
C28_3 C29_3 1_555 1_555
O10_2 Co9_2 1_555 1_555
H13_3 O4_4 1_555 1_555
C5_3 C4_3 1_555 1_555
H2_3 C5_3 1_555 1_555
C8_3 C4_3 1_555 1_555
H4_3 C10_3 1_555 1_555
C11_3 C10_3 1_555 1_555
H5_3 C11_3 1_555 1_555
C12_3 C11_3 1_555 1_555
C15_3 C12_3 1_555 1_555
N3_3 N9 1_555 1_555
N10 C15_3 1_555 1_555
O5_2 C8_3 1_555 1_555
O7_3 C8_3 1_555 1_555
Co13_2 N3_3 1_555 1_555
H14_3 O6_5 1_555 1_555
Co10_2 O5_2 1_555 1_555
N3_3 N10 1_555 1_555
O6_5 Co13_2 1_555 1_555
C1_3 C2_3 1_555 1_555
C2_3 C3_3 1_555 1_555
C3_3 H1_3 1_555 1_555
C7_3 C2_3 1_555 1_555
H3_3 C7_3 1_555 1_555
C9_3 C6_3 1_555 1_555
H6_3 C13_3 1_555 1_555
C14_3 C9_3 1_555 1_555
H7_3 C14_3 1_555 1_555
O1_2 C1_3 1_555 1_555
O3_2 C1_3 1_555 1_555
O4_5 H10_3 1_555 1_555
O21 H12_3 1_555 1_555
Co9 N1_3 1_555 1_555
O20_2 Co9 1_555 1_555
Co10_2 O1_2 1_555 1_555
C6_3 C7_3 1_555 1_555
C13_3 C14_3 1_555 1_555
O3_2 Co10_2 1_555 1_555
C16_4 C17_4 1_555 1_555
C17_4 C18_4 1_555 1_555
C18_4 H15_4 1_555 1_555
C19_4 C18_4 1_555 1_555
C20_4 C19_4 1_555 1_555
H16_4 C20_4 1_555 1_555
C21_4 C20_4 1_555 1_555
C22_4 C17_4 1_555 1_555
H17_4 C22_4 1_555 1_555
C23_4 C19_4 1_555 1_555
C24_4 C21_4 1_555 1_555
C25_4 C24_4 1_555 1_555
H18_4 C25_4 1_555 1_555
C28_4 C27_4 1_555 1_555
H20_4 C28_4 1_555 1_555
C29_4 C24_4 1_555 1_555
H21_4 C29_4 1_555 1_555
O16_2 C16_4 1_555 1_555
O18_2 C16_4 1_555 1_555
O20_2 C23_4 1_555 1_555
O12_4 C23_4 1_555 1_555
O22_2 H22_4 1_555 1_555
Co10_2 N5_4 1_555 1_555
C21_4 C22_4 1_555 1_555
C28_4 C29_4 1_555 1_555
C1_4 C2_4 1_555 1_555
C2_4 C3_4 1_555 1_555
C3_4 H1_4 1_555 1_555
C4_4 C3_4 1_555 1_555
C5_4 C4_4 1_555 1_555
H2_4 C5_4 1_555 1_555
C6_4 C5_4 1_555 1_555
C7_4 C2_4 1_555 1_555
H3_4 C7_4 1_555 1_555
C8_4 C4_4 1_555 1_555
C9_4 C6_4 1_555 1_555
C10_4 C9_4 1_555 1_555
H4_4 C10_4 1_555 1_555
C11_4 C10_4 1_555 1_555
H5_4 C11_4 1_555 1_555
C12_4 C11_4 1_555 1_555
C13_4 C12_4 1_555 1_555
H6_4 C13_4 1_555 1_555
C14_4 C9_4 1_555 1_555
H7_4 C14_4 1_555 1_555
C15_4 C12_4 1_555 1_555
N1_4 C15_4 1_555 1_555
N9_3 N1_4 1_555 1_555
N3_4 N9_3 1_555 1_555
N10_2 C15_4 1_555 1_555
O15_2 C1_4 1_555 1_555
O17_2 C1_4 1_555 1_555
O4_6 H10_4 1_555 1_555
O19_2 C8_4 1_555 1_555
O6_6 H11_4 1_555 1_555
O7_4 C8_4 1_555 1_555
O21_2 H12_4 1_555 1_555
Co9_2 N1_4 1_555 1_555
Co13_3 N3_4 1_555 1_555
H13_4 O4_6 1_555 1_555
H14_4 O6_6 1_555 1_555
H19_4 C26_4 1_555 1_555
N7_4 Co13_3 1_555 1_555
N11_2 C30_4 1_555 1_555
C6_4 C7_4 1_555 1_555
C13_4 C14_4 1_555 1_555
N3_4 N10_2 1_555 1_555
O4_6 Co13_3 1_555 1_555
O6_6 Co13_3 1_555 1_555
N9_4 N7_4 1_555 1_555
N7_4 N11_2 1_555 1_555

#END
