
###############################################################################
#
# This file contains modified crystal structure data generated from the
# MOF subset of the Cambridge Structural Database (CSD) v543 
# hosted by the Cambridge Crystallographic Data Centre (CCDC).
#
# This work is licensed under the Creative Commons
# Attribution-NonCommercial-ShareAlike 4.0 International License.
# To view a copy of this license, visit
# http://creativecommons.org/licenses/by-nc-sa/4.0/
# or send a letter to
# Creative Commons, PO Box 1866, Mountain View, CA 94042, USA.
#
# CIF created using the CSD Python API on 29 September 2022
# The structure has been converted into the P1 space group
# The structure has a 3D framework
# The original CSD entry SINTIV is in the orthorhombic crystal system
# The framework has been calculated to contain at least 10.0% void space
# The void calculation uses a probe of radius 1.32A, grid spacing 0.4
# The framework is charged, counterions have been retained in the structure
#
###############################################################################

data_SINTIV
_chemical_formula_moiety         '(C320 H224 As8 Au8 Cl8 N24 Ni8 O22 8+)n'
_symmetry_cell_setting           triclinic
_symmetry_space_group_name_H-M   'P 1'
_symmetry_Int_Tables_number      1
_space_group_name_Hall           'P 1'
loop_
_symmetry_equiv_pos_site_id
_symmetry_equiv_pos_as_xyz
1 x,y,z
_cell_length_a                   25.7237(15)
_cell_length_b                   17.0211(19)
_cell_length_c                   27.403(2)
_cell_angle_alpha                90
_cell_angle_beta                 90
_cell_angle_gamma                90
_cell_volume                     11998.3
loop_
_atom_site_label
_atom_site_type_symbol
_atom_site_fract_x
_atom_site_fract_y
_atom_site_fract_z
Ni7 Ni 0.18461(8) 0.02105(14) 0.97349(6)
Au1 Au 0.27541(4) 0.42872(7) 0.27315(5)
Cl1 Cl 0.2143(2) 0.3769(6) 0.3228(5)
As1 As 0.34454(8) 0.46684(12) 0.22403(7)
Ni1 Ni 0.68461(8) 0.47895(14) 0.47349(6)
O1 O 0.7500 0.5000 0.5071(3)
C1 C 0.3442(6) 0.5558(9) 0.1818(5)
C2 C 0.2994(7) 0.5820(11) 0.1631(7)
H1 H 0.2688 0.5565 0.1719
C3 C 0.2964(6) 0.6417(12) 0.1330(8)
H2 H 0.2642 0.6533 0.1194
C4 C 0.3368(5) 0.6869(8) 0.1206(5)
C5 C 0.3838(7) 0.6562(16) 0.1355(12)
H3 H 0.4143 0.6781 0.1235
C6 C 0.3869(7) 0.5961(16) 0.1664(12)
H4 H 0.4194 0.5810 0.1779
C7 C 0.3334(5) 0.7550(8) 0.0853(5)
C8 C 0.2880(6) 0.7725(8) 0.0616(6)
H5 H 0.2590 0.7405 0.0653
C9 C 0.2859(5) 0.8378(9) 0.0325(5)
H6 H 0.2537 0.8530 0.0204
N1 N 0.3283(4) 0.8821(6) 0.0203(4)
C10 C 0.3738(5) 0.8594(9) 0.0410(6)
H7 H 0.4046 0.8834 0.0313
C11 C 0.3754(5) 0.8020(9) 0.0758(7)
H8 H 0.4058 0.7946 0.0936
C12 C 0.3558(8) 0.3831(7) 0.1788(5)
C13 C 0.3431(12) 0.3118(8) 0.1956(7)
H9 H 0.3319 0.3055 0.2277
C14 C 0.3466(15) 0.2484(10) 0.1653(7)
H10 H 0.3372 0.1990 0.1768
C15 C 0.3634(7) 0.2562(9) 0.1194(4)
C16 C 0.3733(13) 0.3299(10) 0.1027(7)
H11 H 0.3812 0.3375 0.0699
C17 C 0.3719(13) 0.3922(9) 0.1330(7)
H12 H 0.3822 0.4415 0.1220
C18 C 0.3626(6) 0.1810(8) 0.0849(4)
C19 C 0.3399(6) 0.1118(7) 0.1003(4)
H13 H 0.3272 0.1069 0.1319
C20 C 0.3364(7) 0.0508(8) 0.0680(4)
H14 H 0.3239 0.0026 0.0790
N2 N 0.3504(4) 0.0582(7) 0.0210(4)
C21 C 0.3736(6) 0.1258(9) 0.0064(5)
C22 C 0.3822(7) 0.1846(9) 0.0385(5)
H16 H 0.4017 0.2280 0.0290
C23 C 0.4074(6) 0.4735(9) 0.2646(4)
C24 C 0.4040(5) 0.5094(10) 0.3078(5)
H17 H 0.3735 0.5360 0.3155
C25 C 0.4430(5) 0.5088(10) 0.3408(4)
H18 H 0.4393 0.5349 0.3704
C26 C 0.4874(5) 0.4697(11) 0.3301(5)
C27 C 0.4911(9) 0.435(2) 0.2861(7)
H19 H 0.5220 0.4096 0.2778
C28 C 0.4525(7) 0.4351(16) 0.2543(6)
H20 H 0.4561 0.4090 0.2246
C29 C 0.5332(5) 0.4673(12) 0.3668(4)
C30 C 0.5253(4) 0.4756(11) 0.4159(4)
H21 H 0.4920 0.4859 0.4277
C31 C 0.5658(4) 0.4689(13) 0.4476(4)
H22 H 0.5596 0.4689 0.4811
N3 N 0.6145(4) 0.4624(10) 0.4308(4)
C32 C 0.6238(5) 0.4575(12) 0.3816(5)
H23 H 0.6577 0.4538 0.3701
C33 C 0.5833(5) 0.4581(14) 0.3498(5)
H24 H 0.5894 0.4523 0.3165
O2 O 0.7195(4) 0.4044(6) 0.4276(3)
O3 O 0.8031(4) 0.4297(7) 0.4254(3)
C34 C 0.7684(5) 0.3512(9) 0.3617(5)
C35 C 0.8139(5) 0.3497(12) 0.3369(6)
H25 H 0.8430 0.3752 0.3495
C36 C 0.8172(6) 0.3097(12) 0.2922(5)
H26 H 0.8469 0.3132 0.2730
C37 C 0.7635(6) 0.3983(8) 0.4095(4)
C38 C 0.7265(5) 0.3071(12) 0.3463(6)
H27 H 0.6969 0.3031 0.3655
C39 C 0.7292(6) 0.2687(13) 0.3015(6)
H28 H 0.6997 0.2456 0.2881
C40 C 0.7758(5) 0.2655(10) 0.2776(5)
O4 O 0.7195(4) 0.0956(6) 0.0724(3)
O5 O 0.8031(4) 0.0703(7) 0.0746(3)
C41 C 0.7684(5) 0.1488(9) 0.1383(5)
C42 C 0.8139(5) 0.1503(12) 0.1631(6)
H29 H 0.8430 0.1248 0.1505
C43 C 0.8172(6) 0.1903(12) 0.2078(5)
H30 H 0.8469 0.1868 0.2270
C44 C 0.7635(6) 0.1017(8) 0.0905(4)
C45 C 0.7265(5) 0.1929(12) 0.1537(6)
H31 H 0.6969 0.1969 0.1345
C46 C 0.7292(6) 0.2313(13) 0.1985(6)
H32 H 0.6997 0.2544 0.2119
C47 C 0.7758(5) 0.2345(10) 0.2224(5)
Au2 Au 0.22459(4) 0.57128(7) 0.27315(5)
Cl2 Cl 0.2857(2) 0.6231(6) 0.3228(5)
As2 As 0.15546(8) 0.53316(12) 0.22403(7)
C48 C 0.1558(6) 0.4442(9) 0.1818(5)
C49 C 0.2006(7) 0.4180(11) 0.1631(7)
H33 H 0.2312 0.4435 0.1719
C50 C 0.2036(6) 0.3583(12) 0.1330(8)
H34 H 0.2358 0.3467 0.1194
C51 C 0.1632(5) 0.3131(8) 0.1206(5)
C52 C 0.1162(7) 0.3438(16) 0.1355(12)
H35 H 0.0857 0.3219 0.1235
C53 C 0.1131(7) 0.4039(16) 0.1664(12)
H36 H 0.0806 0.4190 0.1779
C54 C 0.1666(5) 0.2450(8) 0.0853(5)
C55 C 0.2120(6) 0.2275(8) 0.0616(6)
H37 H 0.2410 0.2595 0.0653
C56 C 0.2141(5) 0.1622(9) 0.0325(5)
H38 H 0.2463 0.1470 0.0204
N4 N 0.1717(4) 0.1179(6) 0.0203(4)
C57 C 0.1262(5) 0.1406(9) 0.0410(6)
H39 H 0.0954 0.1166 0.0313
C58 C 0.1246(5) 0.1980(9) 0.0758(7)
H40 H 0.0942 0.2054 0.0936
C59 C 0.1442(8) 0.6169(7) 0.1788(5)
C60 C 0.1569(12) 0.6882(8) 0.1956(7)
H41 H 0.1681 0.6945 0.2277
C61 C 0.1534(15) 0.7516(10) 0.1653(7)
H42 H 0.1628 0.8010 0.1768
C62 C 0.1366(7) 0.7438(9) 0.1194(4)
C63 C 0.1267(13) 0.6701(10) 0.1027(7)
H43 H 0.1188 0.6625 0.0699
C64 C 0.1281(13) 0.6078(9) 0.1330(7)
H44 H 0.1178 0.5585 0.1220
C65 C 0.1374(6) 0.8190(8) 0.0849(4)
C66 C 0.1601(6) 0.8882(7) 0.1003(4)
H45 H 0.1728 0.8931 0.1319
C67 C 0.1636(7) 0.9492(8) 0.0680(4)
H46 H 0.1761 0.9974 0.0790
N5 N 0.1496(4) 0.9418(7) 0.0210(4)
C68 C 0.1264(6) 0.8742(9) 0.0064(5)
C69 C 0.1178(7) 0.8154(9) 0.0385(5)
H48 H 0.0983 0.7720 0.0290
C70 C 0.0926(6) 0.5265(9) 0.2646(4)
C71 C 0.0960(5) 0.4906(10) 0.3078(5)
H49 H 0.1265 0.4640 0.3155
C72 C 0.0570(5) 0.4912(10) 0.3408(4)
H50 H 0.0607 0.4651 0.3704
C73 C 0.0126(5) 0.5303(11) 0.3301(5)
C74 C 0.0089(9) 0.565(2) 0.2861(7)
C75 C 0.0475(7) 0.5649(16) 0.2543(6)
H52 H 0.0439 0.5910 0.2246
H53 H 0.0080 0.5141 0.4277
Ni3 Ni 0.81539(8) 0.52105(14) 0.47349(6)
Ni5 Ni 0.68461(8) 0.02105(14) 0.02651(6)
N8 N 0.6717(4) 0.3821(6) 0.5203(4)
N10 N 0.6496(4) 0.5582(7) 0.5210(4)
O9 O 0.6969(4) 0.5703(7) 0.4254(3)
H15 H 0.3836 0.1317 0.9740
H47 H 0.1164 0.8683 0.9740
Ni9 Ni 0.31539(8) 0.97895(14) 0.97349(6)
Ni4 Ni 0.81539(8) 0.97895(14) 0.02651(6)
H51 H 0.9780 0.5904 0.2778
C76 C 0.9668(5) 0.5327(12) 0.3668(4)
C77 C 0.9747(4) 0.5244(11) 0.4159(4)
C78 C 0.9342(4) 0.5311(13) 0.4476(4)
H54 H 0.9404 0.5311 0.4811
N6 N 0.8855(4) 0.5376(10) 0.4308(4)
C79 C 0.8762(5) 0.5425(12) 0.3816(5)
H55 H 0.8423 0.5462 0.3701
C80 C 0.9167(5) 0.5419(14) 0.3498(5)
H56 H 0.9106 0.5477 0.3165
N7 N 0.8283(4) 0.6179(6) 0.5203(4)
N9 N 0.8504(4) 0.4418(7) 0.5210(4)
O7 O 0.7805(4) 0.5956(6) 0.4276(3)
C34_2 C 0.7316(5) 0.6488(9) 0.3617(5)
C35_2 C 0.6861(5) 0.6503(12) 0.3369(6)
H25_2 H 0.6570 0.6248 0.3495
C36_2 C 0.6828(6) 0.6903(12) 0.2922(5)
H26_2 H 0.6531 0.6868 0.2730
C37_2 C 0.7365(6) 0.6017(8) 0.4095(4)
C38_2 C 0.7735(5) 0.6929(12) 0.3463(6)
H27_2 H 0.8031 0.6969 0.3655
C39_2 C 0.7708(6) 0.7313(13) 0.3015(6)
H28_2 H 0.8003 0.7544 0.2881
C40_2 C 0.7242(5) 0.7345(10) 0.2776(5)
O4_2 O 0.7805(4) 0.9044(6) 0.0724(3)
O5_2 O 0.6969(4) 0.9297(7) 0.0746(3)
C41_2 C 0.7316(5) 0.8512(9) 0.1383(5)
C42_2 C 0.6861(5) 0.8497(12) 0.1631(6)
H29_2 H 0.6570 0.8752 0.1505
C43_2 C 0.6828(6) 0.8097(12) 0.2078(5)
H30_2 H 0.6531 0.8132 0.2270
C44_2 C 0.7365(6) 0.8983(8) 0.0905(4)
C45_2 C 0.7735(5) 0.8071(12) 0.1537(6)
H31_2 H 0.8031 0.8031 0.1345
C46_2 C 0.7708(6) 0.7687(13) 0.1985(6)
H32_2 H 0.8003 0.7456 0.2119
C47_2 C 0.7242(5) 0.7655(10) 0.2224(5)
C1_2 C 0.1558(6) 0.0558(9) 0.3182(5)
C2_2 C 0.2006(7) 0.0820(11) 0.3369(7)
H1_2 H 0.2312 0.0565 0.3281
C3_2 C 0.2036(6) 0.1417(12) 0.3670(8)
H2_2 H 0.2358 0.1533 0.3806
C4_2 C 0.1632(5) 0.1869(8) 0.3794(5)
C5_2 C 0.1162(7) 0.1562(16) 0.3645(12)
H3_2 H 0.0857 0.1781 0.3765
C6_2 C 0.1131(7) 0.0961(16) 0.3336(12)
H4_2 H 0.0806 0.0810 0.3221
C7_2 C 0.1666(5) 0.2550(8) 0.4147(5)
C8_2 C 0.2120(6) 0.2725(8) 0.4384(6)
H5_2 H 0.2410 0.2405 0.4347
C9_2 C 0.2141(5) 0.3378(9) 0.4675(5)
H6_2 H 0.2463 0.3530 0.4796
N1_2 N 0.1717(4) 0.3821(6) 0.4797(4)
C10_2 C 0.1262(5) 0.3594(9) 0.4590(6)
H7_2 H 0.0954 0.3834 0.4687
C11_2 C 0.1246(5) 0.3020(9) 0.4242(7)
H8_2 H 0.0942 0.2946 0.4064
C24_2 C 0.0960(5) 0.0094(10) 0.1922(5)
H17_2 H 0.1265 0.0360 0.1845
C25_2 C 0.0570(5) 0.0088(10) 0.1592(4)
H18_2 H 0.0607 0.0349 0.1296
Au2_2 Au 0.27541(4) 0.07128(7) 0.22685(5)
Cl2_2 Cl 0.2143(2) 0.1231(6) 0.1772(5)
As2_2 As 0.34454(8) 0.03316(12) 0.27597(7)
C59_2 C 0.3558(8) 0.1169(7) 0.3212(5)
C60_2 C 0.3431(12) 0.1882(8) 0.3044(7)
H41_2 H 0.3319 0.1945 0.2723
C61_2 C 0.3466(15) 0.2516(10) 0.3347(7)
H42_2 H 0.3372 0.3010 0.3232
C62_2 C 0.3634(7) 0.2438(9) 0.3806(4)
C63_2 C 0.3733(13) 0.1701(10) 0.3973(7)
H43_2 H 0.3812 0.1625 0.4301
C64_2 C 0.3719(13) 0.1078(9) 0.3670(7)
H44_2 H 0.3822 0.0585 0.3780
C65_2 C 0.3626(6) 0.3190(8) 0.4151(4)
C66_2 C 0.3399(6) 0.3882(7) 0.3997(4)
H45_2 H 0.3272 0.3931 0.3681
C67_2 C 0.3364(7) 0.4492(8) 0.4320(4)
H46_2 H 0.3239 0.4974 0.4210
N5_2 N 0.3504(4) 0.4418(7) 0.4790(4)
C68_2 C 0.3736(6) 0.3742(9) 0.4936(5)
H47_2 H 0.3836 0.3683 0.5260
C69_2 C 0.3822(7) 0.3154(9) 0.4615(5)
H48_2 H 0.4017 0.2720 0.4710
C70_2 C 0.4074(6) 0.0265(9) 0.2354(4)
C73_2 C 0.4874(5) 0.0303(11) 0.1699(5)
C74_2 C 0.4911(9) 0.065(2) 0.2139(7)
H51_2 H 0.5220 0.0904 0.2222
C75_2 C 0.4525(7) 0.0649(16) 0.2457(6)
H52_2 H 0.4561 0.0910 0.2754
C76_2 C 0.5332(5) 0.0327(12) 0.1332(4)
C77_2 C 0.5253(4) 0.0244(11) 0.0841(4)
H53_2 H 0.4920 0.0141 0.0723
C78_2 C 0.5658(4) 0.0311(13) 0.0524(4)
H54_2 H 0.5596 0.0311 0.0189
N6_2 N 0.6145(4) 0.0376(10) 0.0692(4)
C79_2 C 0.6238(5) 0.0425(12) 0.1184(5)
H55_2 H 0.6577 0.0462 0.1299
C80_2 C 0.5833(5) 0.0419(14) 0.1502(5)
H56_2 H 0.5894 0.0477 0.1835
Ni7_2 Ni 0.31539(8) 0.52105(14) 0.52651(6)
Ni9_2 Ni 0.18461(8) 0.47895(14) 0.52651(6)
O6 O 0.7500 -0.0000 0.9929(3)
N7_2 N 0.6717(4) 0.1179(6) 0.9797(4)
Au1_2 Au 0.22459(4) 0.92872(7) 0.22685(5)
Cl1_2 Cl 0.2857(2) 0.8769(6) 0.1772(5)
As1_2 As 0.15546(8) 0.96684(12) 0.27597(7)
C12_2 C 0.1442(8) 0.8831(7) 0.3212(5)
C13_2 C 0.1569(12) 0.8118(8) 0.3044(7)
H9_2 H 0.1681 0.8055 0.2723
C14_2 C 0.1534(15) 0.7484(10) 0.3347(7)
H10_2 H 0.1628 0.6990 0.3232
C15_2 C 0.1366(7) 0.7562(9) 0.3806(4)
C16_2 C 0.1267(13) 0.8299(10) 0.3973(7)
H11_2 H 0.1188 0.8375 0.4301
C17_2 C 0.1281(13) 0.8922(9) 0.3670(7)
H12_2 H 0.1178 0.9415 0.3780
C18_2 C 0.1374(6) 0.6810(8) 0.4151(4)
C19_2 C 0.1601(6) 0.6118(7) 0.3997(4)
H13_2 H 0.1728 0.6069 0.3681
C20_2 C 0.1636(7) 0.5508(8) 0.4320(4)
H14_2 H 0.1761 0.5026 0.4210
N2_2 N 0.1496(4) 0.5582(7) 0.4790(4)
C21_2 C 0.1264(6) 0.6258(9) 0.4936(5)
H15_2 H 0.1164 0.6317 0.5260
C22_2 C 0.1178(7) 0.6846(9) 0.4615(5)
H16_2 H 0.0983 0.7280 0.4710
C23_2 C 0.0926(6) 0.9735(9) 0.2354(4)
C26_2 C 0.0126(5) 0.9697(11) 0.1699(5)
C27_2 C 0.0089(9) 0.935(2) 0.2139(7)
C28_2 C 0.0475(7) 0.9351(16) 0.2457(6)
H20_2 H 0.0439 0.9090 0.2754
H21_2 H 0.0080 0.9859 0.0723
C48_2 C 0.3442(6) 0.9442(9) 0.3182(5)
C49_2 C 0.2994(7) 0.9180(11) 0.3369(7)
H33_2 H 0.2688 0.9435 0.3281
C50_2 C 0.2964(6) 0.8583(12) 0.3670(8)
H34_2 H 0.2642 0.8467 0.3806
C51_2 C 0.3368(5) 0.8131(8) 0.3794(5)
C52_2 C 0.3838(7) 0.8438(16) 0.3645(12)
H35_2 H 0.4143 0.8219 0.3765
C53_2 C 0.3869(7) 0.9039(16) 0.3336(12)
H36_2 H 0.4194 0.9190 0.3221
C54_2 C 0.3334(5) 0.7450(8) 0.4147(5)
C55_2 C 0.2880(6) 0.7275(8) 0.4384(6)
H37_2 H 0.2590 0.7595 0.4347
C56_2 C 0.2859(5) 0.6622(9) 0.4675(5)
H38_2 H 0.2537 0.6470 0.4796
N4_2 N 0.3283(4) 0.6179(6) 0.4797(4)
C57_2 C 0.3738(5) 0.6406(9) 0.4590(6)
H39_2 H 0.4046 0.6166 0.4687
C58_2 C 0.3754(5) 0.6980(9) 0.4242(7)
H40_2 H 0.4058 0.7054 0.4064
C71_2 C 0.4040(5) 0.9906(10) 0.1922(5)
H49_2 H 0.3735 0.9640 0.1845
C72_2 C 0.4430(5) 0.9912(10) 0.1592(4)
H50_2 H 0.4393 0.9651 0.1296
O6_2 O 0.7500 1.0000 0.9929(3)
N9_2 N 0.6496(4) 0.9418(7) 0.9790(4)
N10_2 N 0.8504(4) 0.0582(7) 0.9790(4)
H19_2 H 0.9780 0.9096 0.2222
C29_2 C 0.9668(5) 0.9673(12) 0.1332(4)
C30_2 C 0.9747(4) 0.9756(11) 0.0841(4)
C31_2 C 0.9342(4) 0.9689(13) 0.0524(4)
H22_2 H 0.9404 0.9689 0.0189
N3_2 N 0.8855(4) 0.9624(10) 0.0692(4)
C32_2 C 0.8762(5) 0.9575(12) 0.1184(5)
H23_2 H 0.8423 0.9538 0.1299
C33_2 C 0.9167(5) 0.9581(14) 0.1502(5)
H24_2 H 0.9106 0.9523 0.1835
N8_2 N 0.8283(4) 0.8821(6) 0.9797(4)
H51_3 H 0.0220 0.4096 0.7222
C76_3 C 0.0332(5) 0.4673(12) 0.6332(4)
C77_3 C 0.0253(4) 0.4756(11) 0.5841(4)
C78_3 C 0.0658(4) 0.4689(13) 0.5524(4)
H54_3 H 0.0596 0.4689 0.5189
N6_3 N 0.1145(4) 0.4624(10) 0.5692(4)
C79_3 C 0.1238(5) 0.4575(12) 0.6184(5)
H55_3 H 0.1577 0.4538 0.6299
C80_3 C 0.0833(5) 0.4581(14) 0.6502(5)
H56_3 H 0.0894 0.4523 0.6835
O6_3 O 0.2500 0.5000 0.4929(3)
O7_2 O 0.2195(4) 0.4044(6) 0.5724(3)
O8 O 0.1969(4) 0.5703(7) 0.5746(3)
H15_3 H 0.6164 0.8683 0.0260
H47_3 H 0.8836 0.1317 0.0260
Au1_3 Au 0.72459(4) 0.57128(7) 0.72685(5)
Cl1_3 Cl 0.7857(2) 0.6231(6) 0.6772(5)
As1_3 As 0.65546(8) 0.53316(12) 0.77597(7)
C1_3 C 0.6558(6) 0.4442(9) 0.8182(5)
C2_3 C 0.7006(7) 0.4180(11) 0.8369(7)
H1_3 H 0.7312 0.4435 0.8281
C3_3 C 0.7036(6) 0.3583(12) 0.8670(8)
H2_3 H 0.7358 0.3467 0.8806
C4_3 C 0.6632(5) 0.3131(8) 0.8794(5)
C5_3 C 0.6162(7) 0.3438(16) 0.8645(12)
H3_3 H 0.5857 0.3219 0.8765
C6_3 C 0.6131(7) 0.4039(16) 0.8336(12)
H4_3 H 0.5806 0.4190 0.8221
C7_3 C 0.6666(5) 0.2450(8) 0.9147(5)
C8_3 C 0.7120(6) 0.2275(8) 0.9384(6)
H5_3 H 0.7410 0.2595 0.9347
C9_3 C 0.7141(5) 0.1622(9) 0.9675(5)
H6_3 H 0.7463 0.1470 0.9796
C10_3 C 0.6262(5) 0.1406(9) 0.9590(6)
H7_3 H 0.5954 0.1166 0.9687
C11_3 C 0.6246(5) 0.1980(9) 0.9242(7)
H8_3 H 0.5942 0.2054 0.9064
C12_3 C 0.6442(8) 0.6169(7) 0.8212(5)
C13_3 C 0.6569(12) 0.6882(8) 0.8044(7)
H9_3 H 0.6681 0.6945 0.7723
C14_3 C 0.6534(15) 0.7516(10) 0.8347(7)
H10_3 H 0.6628 0.8010 0.8232
C15_3 C 0.6366(7) 0.7438(9) 0.8806(4)
C16_3 C 0.6267(13) 0.6701(10) 0.8973(7)
H11_3 H 0.6188 0.6625 0.9301
C17_3 C 0.6281(13) 0.6078(9) 0.8670(7)
H12_3 H 0.6178 0.5585 0.8780
C18_3 C 0.6374(6) 0.8190(8) 0.9151(4)
C19_3 C 0.6601(6) 0.8882(7) 0.8997(4)
H13_3 H 0.6728 0.8931 0.8681
C20_3 C 0.6636(7) 0.9492(8) 0.9320(4)
H14_3 H 0.6761 0.9974 0.9210
C21_3 C 0.6264(6) 0.8742(9) 0.9936(5)
C22_3 C 0.6178(7) 0.8154(9) 0.9615(5)
H16_3 H 0.5983 0.7720 0.9710
C23_3 C 0.5926(6) 0.5265(9) 0.7354(4)
C24_3 C 0.5960(5) 0.4906(10) 0.6922(5)
H17_3 H 0.6265 0.4640 0.6845
C25_3 C 0.5570(5) 0.4912(10) 0.6592(4)
H18_3 H 0.5607 0.4651 0.6296
C26_3 C 0.5126(5) 0.5303(11) 0.6699(5)
C27_3 C 0.5089(9) 0.565(2) 0.7139(7)
H19_3 H 0.4780 0.5904 0.7222
C28_3 C 0.5475(7) 0.5649(16) 0.7457(6)
H20_3 H 0.5439 0.5910 0.7754
C29_3 C 0.4668(5) 0.5327(12) 0.6332(4)
C30_3 C 0.4747(4) 0.5244(11) 0.5841(4)
H21_3 H 0.5080 0.5141 0.5723
C31_3 C 0.4342(4) 0.5311(13) 0.5524(4)
H22_3 H 0.4404 0.5311 0.5189
N3_3 N 0.3855(4) 0.5376(10) 0.5692(4)
C32_3 C 0.3762(5) 0.5425(12) 0.6184(5)
H23_3 H 0.3423 0.5462 0.6299
C33_3 C 0.4167(5) 0.5419(14) 0.6502(5)
H24_3 H 0.4106 0.5477 0.6835
O2_2 O 0.2805(4) 0.5956(6) 0.5724(3)
C34_3 C 0.2316(5) 0.6488(9) 0.6383(5)
C35_3 C 0.1861(5) 0.6503(12) 0.6631(6)
H25_3 H 0.1570 0.6248 0.6505
C36_3 C 0.1828(6) 0.6903(12) 0.7078(5)
H26_3 H 0.1531 0.6868 0.7270
C37_3 C 0.2365(6) 0.6017(8) 0.5905(4)
C38_3 C 0.2735(5) 0.6929(12) 0.6537(6)
H27_3 H 0.3031 0.6969 0.6345
C39_3 C 0.2708(6) 0.7313(13) 0.6985(6)
H28_3 H 0.3003 0.7544 0.7119
C40_3 C 0.2242(5) 0.7345(10) 0.7224(5)
O4_3 O 0.2805(4) 0.9044(6) 0.9276(3)
O5_3 O 0.1969(4) 0.9297(7) 0.9254(3)
C41_3 C 0.2316(5) 0.8512(9) 0.8617(5)
C42_3 C 0.1861(5) 0.8497(12) 0.8369(6)
H29_3 H 0.1570 0.8752 0.8495
C43_3 C 0.1828(6) 0.8097(12) 0.7922(5)
H30_3 H 0.1531 0.8132 0.7730
C44_3 C 0.2365(6) 0.8983(8) 0.9095(4)
C45_3 C 0.2735(5) 0.8071(12) 0.8463(6)
H31_3 H 0.3031 0.8031 0.8655
C46_3 C 0.2708(6) 0.7687(13) 0.8015(6)
H32_3 H 0.3003 0.7456 0.7881
C47_3 C 0.2242(5) 0.7655(10) 0.7776(5)
Au2_3 Au 0.77541(4) 0.42872(7) 0.72685(5)
Cl2_3 Cl 0.7143(2) 0.3769(6) 0.6772(5)
As2_3 As 0.84454(8) 0.46684(12) 0.77597(7)
C48_3 C 0.8442(6) 0.5558(9) 0.8182(5)
C49_3 C 0.7994(7) 0.5820(11) 0.8369(7)
H33_3 H 0.7688 0.5565 0.8281
C50_3 C 0.7964(6) 0.6417(12) 0.8670(8)
H34_3 H 0.7642 0.6533 0.8806
C51_3 C 0.8368(5) 0.6869(8) 0.8794(5)
C52_3 C 0.8838(7) 0.6562(16) 0.8645(12)
H35_3 H 0.9143 0.6781 0.8765
C53_3 C 0.8869(7) 0.5961(16) 0.8336(12)
H36_3 H 0.9194 0.5810 0.8221
C54_3 C 0.8334(5) 0.7550(8) 0.9147(5)
C55_3 C 0.7880(6) 0.7725(8) 0.9384(6)
H37_3 H 0.7590 0.7405 0.9347
C56_3 C 0.7859(5) 0.8378(9) 0.9675(5)
H38_3 H 0.7537 0.8530 0.9796
C57_3 C 0.8738(5) 0.8594(9) 0.9590(6)
H39_3 H 0.9046 0.8834 0.9687
C58_3 C 0.8754(5) 0.8020(9) 0.9242(7)
H40_3 H 0.9058 0.7946 0.9064
C59_3 C 0.8558(8) 0.3831(7) 0.8212(5)
C60_3 C 0.8431(12) 0.3118(8) 0.8044(7)
H41_3 H 0.8319 0.3055 0.7723
C61_3 C 0.8466(15) 0.2484(10) 0.8347(7)
H42_3 H 0.8372 0.1990 0.8232
C62_3 C 0.8634(7) 0.2562(9) 0.8806(4)
C63_3 C 0.8733(13) 0.3299(10) 0.8973(7)
H43_3 H 0.8812 0.3375 0.9301
C64_3 C 0.8719(13) 0.3922(9) 0.8670(7)
H44_3 H 0.8822 0.4415 0.8780
C65_3 C 0.8626(6) 0.1810(8) 0.9151(4)
C66_3 C 0.8399(6) 0.1118(7) 0.8997(4)
H45_3 H 0.8272 0.1069 0.8681
C67_3 C 0.8364(7) 0.0508(8) 0.9320(4)
H46_3 H 0.8239 0.0026 0.9210
C68_3 C 0.8736(6) 0.1258(9) 0.9936(5)
C69_3 C 0.8822(7) 0.1846(9) 0.9615(5)
H48_3 H 0.9017 0.2280 0.9710
C70_3 C 0.9074(6) 0.4735(9) 0.7354(4)
C71_3 C 0.9040(5) 0.5094(10) 0.6922(5)
H49_3 H 0.8735 0.5360 0.6845
C72_3 C 0.9430(5) 0.5088(10) 0.6592(4)
H50_3 H 0.9393 0.5349 0.6296
C73_3 C 0.9874(5) 0.4697(11) 0.6699(5)
C74_3 C 0.9911(9) 0.435(2) 0.7139(7)
C75_3 C 0.9525(7) 0.4351(16) 0.7457(6)
H52_3 H 0.9561 0.4090 0.7754
H53_3 H 0.9920 0.4859 0.5723
O9_2 O 0.3031(4) 0.4297(7) 0.5746(3)
C34_4 C 0.2684(5) 0.3512(9) 0.6383(5)
C35_4 C 0.3139(5) 0.3497(12) 0.6631(6)
H25_4 H 0.3430 0.3752 0.6505
C36_4 C 0.3172(6) 0.3097(12) 0.7078(5)
H26_4 H 0.3469 0.3132 0.7270
C37_4 C 0.2635(6) 0.3983(8) 0.5905(4)
C38_4 C 0.2265(5) 0.3071(12) 0.6537(6)
H27_4 H 0.1969 0.3031 0.6345
C39_4 C 0.2292(6) 0.2687(13) 0.6985(6)
H28_4 H 0.1997 0.2456 0.7119
C40_4 C 0.2758(5) 0.2655(10) 0.7224(5)
O4_4 O 0.2195(4) 0.0956(6) 0.9276(3)
O5_4 O 0.3031(4) 0.0703(7) 0.9254(3)
C41_4 C 0.2684(5) 0.1488(9) 0.8617(5)
C42_4 C 0.3139(5) 0.1503(12) 0.8369(6)
H29_4 H 0.3430 0.1248 0.8495
C43_4 C 0.3172(6) 0.1903(12) 0.7922(5)
H30_4 H 0.3469 0.1868 0.7730
C44_4 C 0.2635(6) 0.1017(8) 0.9095(4)
C45_4 C 0.2265(5) 0.1929(12) 0.8463(6)
H31_4 H 0.1969 0.1969 0.8655
C46_4 C 0.2292(6) 0.2313(13) 0.8015(6)
H32_4 H 0.1997 0.2544 0.7881
C47_4 C 0.2758(5) 0.2345(10) 0.7776(5)
O1_2 O 0.2500 0.0000 0.0071(3)
H19_4 H 0.0220 0.0904 0.7778
C29_4 C 0.0332(5) 0.0327(12) 0.8668(4)
C30_4 C 0.0253(4) 0.0244(11) 0.9159(4)
C31_4 C 0.0658(4) 0.0311(13) 0.9476(4)
H22_4 H 0.0596 0.0311 0.9811
N3_4 N 0.1145(4) 0.0376(10) 0.9308(4)
C32_4 C 0.1238(5) 0.0425(12) 0.8816(5)
H23_4 H 0.1577 0.0462 0.8701
C33_4 C 0.0833(5) 0.0419(14) 0.8498(5)
H24_4 H 0.0894 0.0477 0.8165
O1_3 O 0.2500 1.0000 0.0071(3)
Au1_4 Au 0.77541(4) 0.07128(7) 0.77315(5)
Cl1_4 Cl 0.7143(2) 0.1231(6) 0.8228(5)
As1_4 As 0.84454(8) 0.03316(12) 0.72403(7)
C12_4 C 0.8558(8) 0.1169(7) 0.6788(5)
C13_4 C 0.8431(12) 0.1882(8) 0.6956(7)
H9_4 H 0.8319 0.1945 0.7277
C14_4 C 0.8466(15) 0.2516(10) 0.6653(7)
H10_4 H 0.8372 0.3010 0.6768
C15_4 C 0.8634(7) 0.2438(9) 0.6194(4)
C16_4 C 0.8733(13) 0.1701(10) 0.6027(7)
H11_4 H 0.8812 0.1625 0.5699
C17_4 C 0.8719(13) 0.1078(9) 0.6330(7)
H12_4 H 0.8822 0.0585 0.6220
C18_4 C 0.8626(6) 0.3190(8) 0.5849(4)
C19_4 C 0.8399(6) 0.3882(7) 0.6003(4)
H13_4 H 0.8272 0.3931 0.6319
C20_4 C 0.8364(7) 0.4492(8) 0.5680(4)
H14_4 H 0.8239 0.4974 0.5790
C21_4 C 0.8736(6) 0.3742(9) 0.5064(5)
H15_4 H 0.8836 0.3683 0.4740
C22_4 C 0.8822(7) 0.3154(9) 0.5385(5)
H16_4 H 0.9017 0.2720 0.5290
C23_4 C 0.9074(6) 0.0265(9) 0.7646(4)
C26_4 C 0.9874(5) 0.0303(11) 0.8301(5)
C27_4 C 0.9911(9) 0.065(2) 0.7861(7)
C28_4 C 0.9525(7) 0.0649(16) 0.7543(6)
H20_4 H 0.9561 0.0910 0.7246
H21_4 H 0.9920 0.0141 0.9277
C48_4 C 0.6558(6) 0.0558(9) 0.6818(5)
C49_4 C 0.7006(7) 0.0820(11) 0.6631(7)
H33_4 H 0.7312 0.0565 0.6719
C50_4 C 0.7036(6) 0.1417(12) 0.6330(8)
H34_4 H 0.7358 0.1533 0.6194
C51_4 C 0.6632(5) 0.1869(8) 0.6206(5)
C52_4 C 0.6162(7) 0.1562(16) 0.6355(12)
H35_4 H 0.5857 0.1781 0.6235
C53_4 C 0.6131(7) 0.0961(16) 0.6664(12)
H36_4 H 0.5806 0.0810 0.6779
C54_4 C 0.6666(5) 0.2550(8) 0.5853(5)
C55_4 C 0.7120(6) 0.2725(8) 0.5616(6)
H37_4 H 0.7410 0.2405 0.5653
C56_4 C 0.7141(5) 0.3378(9) 0.5325(5)
H38_4 H 0.7463 0.3530 0.5204
C57_4 C 0.6262(5) 0.3594(9) 0.5410(6)
H39_4 H 0.5954 0.3834 0.5313
C58_4 C 0.6246(5) 0.3020(9) 0.5758(7)
H40_4 H 0.5942 0.2946 0.5936
C71_4 C 0.5960(5) 0.0094(10) 0.8078(5)
H49_4 H 0.6265 0.0360 0.8155
C72_4 C 0.5570(5) 0.0088(10) 0.8408(4)
H50_4 H 0.5607 0.0349 0.8704
C1_4 C 0.8442(6) 0.9442(9) 0.6818(5)
C2_4 C 0.7994(7) 0.9180(11) 0.6631(7)
H1_4 H 0.7688 0.9435 0.6719
C3_4 C 0.7964(6) 0.8583(12) 0.6330(8)
H2_4 H 0.7642 0.8467 0.6194
C4_4 C 0.8368(5) 0.8131(8) 0.6206(5)
C5_4 C 0.8838(7) 0.8438(16) 0.6355(12)
H3_4 H 0.9143 0.8219 0.6235
C6_4 C 0.8869(7) 0.9039(16) 0.6664(12)
H4_4 H 0.9194 0.9190 0.6779
C7_4 C 0.8334(5) 0.7450(8) 0.5853(5)
C8_4 C 0.7880(6) 0.7275(8) 0.5616(6)
H5_4 H 0.7590 0.7595 0.5653
C9_4 C 0.7859(5) 0.6622(9) 0.5325(5)
H6_4 H 0.7537 0.6470 0.5204
C10_4 C 0.8738(5) 0.6406(9) 0.5410(6)
H7_4 H 0.9046 0.6166 0.5313
C11_4 C 0.8754(5) 0.6980(9) 0.5758(7)
H8_4 H 0.9058 0.7054 0.5936
C24_4 C 0.9040(5) 0.9906(10) 0.8078(5)
H17_4 H 0.8735 0.9640 0.8155
C25_4 C 0.9430(5) 0.9912(10) 0.8408(4)
H18_4 H 0.9393 0.9651 0.8704
Au2_4 Au 0.72459(4) 0.92872(7) 0.77315(5)
Cl2_4 Cl 0.7857(2) 0.8769(6) 0.8228(5)
As2_4 As 0.65546(8) 0.96684(12) 0.72403(7)
C59_4 C 0.6442(8) 0.8831(7) 0.6788(5)
C60_4 C 0.6569(12) 0.8118(8) 0.6956(7)
H41_4 H 0.6681 0.8055 0.7277
C61_4 C 0.6534(15) 0.7484(10) 0.6653(7)
H42_4 H 0.6628 0.6990 0.6768
C62_4 C 0.6366(7) 0.7562(9) 0.6194(4)
C63_4 C 0.6267(13) 0.8299(10) 0.6027(7)
H43_4 H 0.6188 0.8375 0.5699
C64_4 C 0.6281(13) 0.8922(9) 0.6330(7)
H44_4 H 0.6178 0.9415 0.6220
C65_4 C 0.6374(6) 0.6810(8) 0.5849(4)
C66_4 C 0.6601(6) 0.6118(7) 0.6003(4)
H45_4 H 0.6728 0.6069 0.6319
C67_4 C 0.6636(7) 0.5508(8) 0.5680(4)
H46_4 H 0.6761 0.5026 0.5790
C68_4 C 0.6264(6) 0.6258(9) 0.5064(5)
H47_4 H 0.6164 0.6317 0.4740
C69_4 C 0.6178(7) 0.6846(9) 0.5385(5)
H48_4 H 0.5983 0.7280 0.5290
C70_4 C 0.5926(6) 0.9735(9) 0.7646(4)
C73_4 C 0.5126(5) 0.9697(11) 0.8301(5)
C74_4 C 0.5089(9) 0.935(2) 0.7861(7)
H51_4 H 0.4780 0.9096 0.7778
C75_4 C 0.5475(7) 0.9351(16) 0.7543(6)
H52_4 H 0.5439 0.9090 0.7246
C76_4 C 0.4668(5) 0.9673(12) 0.8668(4)
C77_4 C 0.4747(4) 0.9756(11) 0.9159(4)
H53_4 H 0.5080 0.9859 0.9277
C78_4 C 0.4342(4) 0.9689(13) 0.9476(4)
H54_4 H 0.4404 0.9689 0.9811
N6_4 N 0.3855(4) 0.9624(10) 0.9308(4)
C79_4 C 0.3762(5) 0.9575(12) 0.8816(5)
H55_4 H 0.3423 0.9538 0.8701
C80_4 C 0.4167(5) 0.9581(14) 0.8498(5)
H56_4 H 0.4106 0.9523 0.8165
loop_
_geom_bond_atom_site_label_1
_geom_bond_atom_site_label_2
_geom_bond_site_symmetry_1
_geom_bond_site_symmetry_2
Au1 Cl1 1_555 1_555
As1 Au1 1_555 1_555
Ni1 O1 1_555 1_555
O1 Ni3 1_555 1_555
C1 As1 1_555 1_555
C2 C1 1_555 1_555
H1 C2 1_555 1_555
C3 C2 1_555 1_555
H2 C3 1_555 1_555
C4 C3 1_555 1_555
C5 C4 1_555 1_555
H3 C5 1_555 1_555
C6 C1 1_555 1_555
H4 C6 1_555 1_555
C7 C4 1_555 1_555
C8 C7 1_555 1_555
H5 C8 1_555 1_555
C9 C8 1_555 1_555
H6 C9 1_555 1_555
N1 C9 1_555 1_555
C10 N1 1_555 1_555
H7 C10 1_555 1_555
C11 C7 1_555 1_555
H8 C11 1_555 1_555
C12 As1 1_555 1_555
C13 C12 1_555 1_555
H9 C13 1_555 1_555
C14 C13 1_555 1_555
H10 C14 1_555 1_555
C15 C14 1_555 1_555
C16 C15 1_555 1_555
H11 C16 1_555 1_555
C17 C12 1_555 1_555
H12 C17 1_555 1_555
C18 C15 1_555 1_555
C19 C18 1_555 1_555
H13 C19 1_555 1_555
C20 C19 1_555 1_555
H14 C20 1_555 1_555
N2 C20 1_555 1_555
C21 N2 1_555 1_555
C22 C18 1_555 1_555
H16 C22 1_555 1_555
C23 As1 1_555 1_555
C24 C23 1_555 1_555
H17 C24 1_555 1_555
C25 C24 1_555 1_555
H18 C25 1_555 1_555
C26 C25 1_555 1_555
C27 C26 1_555 1_555
H19 C27 1_555 1_555
C28 C23 1_555 1_555
H20 C28 1_555 1_555
C29 C26 1_555 1_555
C30 C29 1_555 1_555
H21 C30 1_555 1_555
C31 C30 1_555 1_555
H22 C31 1_555 1_555
N3 Ni1 1_555 1_555
C32 N3 1_555 1_555
H23 C32 1_555 1_555
C33 C29 1_555 1_555
H24 C33 1_555 1_555
O2 Ni1 1_555 1_555
O3 C37 1_555 1_555
C34 C35 1_555 1_555
C35 H25 1_555 1_555
C36 C35 1_555 1_555
H26 C36 1_555 1_555
C37 O2 1_555 1_555
C38 C34 1_555 1_555
H27 C38 1_555 1_555
C39 C38 1_555 1_555
H28 C39 1_555 1_555
C40 C36 1_555 1_555
O4 C44 1_555 1_555
O5 C44 1_555 1_555
C41 C42 1_555 1_555
C42 H29 1_555 1_555
C43 C42 1_555 1_555
H30 C43 1_555 1_555
C44 C41 1_555 1_555
C45 C41 1_555 1_555
H31 C45 1_555 1_555
C46 C45 1_555 1_555
H32 C46 1_555 1_555
C47 C40 1_555 1_555
Au2 Au1 1_555 1_555
Cl2 Au2 1_555 1_555
As2 Au2 1_555 1_555
C48 As2 1_555 1_555
C49 C48 1_555 1_555
H33 C49 1_555 1_555
C50 C49 1_555 1_555
H34 C50 1_555 1_555
C51 C50 1_555 1_555
C52 C51 1_555 1_555
H35 C52 1_555 1_555
C53 C48 1_555 1_555
H36 C53 1_555 1_555
C54 C51 1_555 1_555
C55 C54 1_555 1_555
H37 C55 1_555 1_555
C56 C55 1_555 1_555
H38 C56 1_555 1_555
N4 C56 1_555 1_555
C57 N4 1_555 1_555
H39 C57 1_555 1_555
C58 C54 1_555 1_555
H40 C58 1_555 1_555
C59 As2 1_555 1_555
C60 C59 1_555 1_555
H41 C60 1_555 1_555
C61 C60 1_555 1_555
H42 C61 1_555 1_555
C62 C61 1_555 1_555
C63 C62 1_555 1_555
H43 C63 1_555 1_555
C64 C59 1_555 1_555
H44 C64 1_555 1_555
C65 C62 1_555 1_555
C66 C65 1_555 1_555
H45 C66 1_555 1_555
C67 C66 1_555 1_555
H46 C67 1_555 1_555
N5 C67 1_555 1_555
C68 N5 1_555 1_555
C69 C65 1_555 1_555
H48 C69 1_555 1_555
C70 As2 1_555 1_555
C71 C70 1_555 1_555
H49 C71 1_555 1_555
C72 C71 1_555 1_555
H50 C72 1_555 1_555
C73 C72 1_555 1_555
C74 C73 1_555 1_555
C75 C70 1_555 1_555
H52 C75 1_555 1_555
Ni3 O3 1_555 1_555
Ni5 O4 1_555 1_555
N8 Ni1 1_555 1_555
N10 Ni1 1_555 1_555
O9 Ni1 1_555 1_555
C5 C6 1_555 1_555
C10 C11 1_555 1_555
C16 C17 1_555 1_555
C21 C22 1_555 1_555
C27 C28 1_555 1_555
C31 N3 1_555 1_555
C32 C33 1_555 1_555
C34 C37 1_555 1_555
C39 C40 1_555 1_555
C43 C47 1_555 1_555
C46 C47 1_555 1_555
C52 C53 1_555 1_555
C57 C58 1_555 1_555
C63 C64 1_555 1_555
C68 C69 1_555 1_555
C74 C75 1_555 1_555
Ni3 N6 1_555 1_555
C77 C76 1_555 1_555
C78 C77 1_555 1_555
H54 C78 1_555 1_555
N6 C78 1_555 1_555
C79 N6 1_555 1_555
H55 C79 1_555 1_555
C80 C76 1_555 1_555
H56 C80 1_555 1_555
N7 Ni3 1_555 1_555
N9 Ni3 1_555 1_555
O7 Ni3 1_555 1_555
C79 C80 1_555 1_555
O9 C37_2 1_555 1_555
C34_2 C35_2 1_555 1_555
C35_2 H25_2 1_555 1_555
C36_2 C35_2 1_555 1_555
H26_2 C36_2 1_555 1_555
C37_2 O7 1_555 1_555
C38_2 C34_2 1_555 1_555
H27_2 C38_2 1_555 1_555
C39_2 C38_2 1_555 1_555
H28_2 C39_2 1_555 1_555
C40_2 C36_2 1_555 1_555
O4_2 C44_2 1_555 1_555
O5_2 C44_2 1_555 1_555
C41_2 C42_2 1_555 1_555
C42_2 H29_2 1_555 1_555
C43_2 C42_2 1_555 1_555
H30_2 C43_2 1_555 1_555
C44_2 C41_2 1_555 1_555
C45_2 C41_2 1_555 1_555
H31_2 C45_2 1_555 1_555
C46_2 C45_2 1_555 1_555
H32_2 C46_2 1_555 1_555
C47_2 C40_2 1_555 1_555
Ni4 O4_2 1_555 1_555
C34_2 C37_2 1_555 1_555
C39_2 C40_2 1_555 1_555
C43_2 C47_2 1_555 1_555
C46_2 C47_2 1_555 1_555
C2_2 C1_2 1_555 1_555
H1_2 C2_2 1_555 1_555
C3_2 C2_2 1_555 1_555
H2_2 C3_2 1_555 1_555
C4_2 C3_2 1_555 1_555
C5_2 C4_2 1_555 1_555
H3_2 C5_2 1_555 1_555
C6_2 C1_2 1_555 1_555
H4_2 C6_2 1_555 1_555
C7_2 C4_2 1_555 1_555
C8_2 C7_2 1_555 1_555
H5_2 C8_2 1_555 1_555
C9_2 C8_2 1_555 1_555
H6_2 C9_2 1_555 1_555
N1_2 C9_2 1_555 1_555
C10_2 N1_2 1_555 1_555
H7_2 C10_2 1_555 1_555
C11_2 C7_2 1_555 1_555
H8_2 C11_2 1_555 1_555
H17_2 C24_2 1_555 1_555
C25_2 C24_2 1_555 1_555
H18_2 C25_2 1_555 1_555
Cl2_2 Au2_2 1_555 1_555
As2_2 Au2_2 1_555 1_555
Ni5 N6_2 1_555 1_555
C59_2 As2_2 1_555 1_555
C60_2 C59_2 1_555 1_555
H41_2 C60_2 1_555 1_555
C61_2 C60_2 1_555 1_555
H42_2 C61_2 1_555 1_555
C62_2 C61_2 1_555 1_555
C63_2 C62_2 1_555 1_555
H43_2 C63_2 1_555 1_555
C64_2 C59_2 1_555 1_555
H44_2 C64_2 1_555 1_555
C65_2 C62_2 1_555 1_555
C66_2 C65_2 1_555 1_555
H45_2 C66_2 1_555 1_555
C67_2 C66_2 1_555 1_555
H46_2 C67_2 1_555 1_555
N5_2 C67_2 1_555 1_555
C68_2 N5_2 1_555 1_555
H47_2 C68_2 1_555 1_555
C69_2 C65_2 1_555 1_555
H48_2 C69_2 1_555 1_555
C70_2 As2_2 1_555 1_555
C74_2 C73_2 1_555 1_555
H51_2 C74_2 1_555 1_555
C75_2 C70_2 1_555 1_555
H52_2 C75_2 1_555 1_555
C76_2 C73_2 1_555 1_555
C77_2 C76_2 1_555 1_555
H53_2 C77_2 1_555 1_555
C78_2 C77_2 1_555 1_555
H54_2 C78_2 1_555 1_555
N6_2 C78_2 1_555 1_555
C79_2 N6_2 1_555 1_555
H55_2 C79_2 1_555 1_555
C80_2 C76_2 1_555 1_555
H56_2 C80_2 1_555 1_555
Ni7_2 N5_2 1_555 1_555
Ni9_2 N1_2 1_555 1_555
C5_2 C6_2 1_555 1_555
C10_2 C11_2 1_555 1_555
C63_2 C64_2 1_555 1_555
C68_2 C69_2 1_555 1_555
C74_2 C75_2 1_555 1_555
C79_2 C80_2 1_555 1_555
Au1_2 Cl1_2 1_555 1_555
As1_2 Au1_2 1_555 1_555
C12_2 As1_2 1_555 1_555
C13_2 C12_2 1_555 1_555
H9_2 C13_2 1_555 1_555
C14_2 C13_2 1_555 1_555
H10_2 C14_2 1_555 1_555
C15_2 C14_2 1_555 1_555
C16_2 C15_2 1_555 1_555
H11_2 C16_2 1_555 1_555
C17_2 C12_2 1_555 1_555
H12_2 C17_2 1_555 1_555
C18_2 C15_2 1_555 1_555
C19_2 C18_2 1_555 1_555
H13_2 C19_2 1_555 1_555
C20_2 C19_2 1_555 1_555
H14_2 C20_2 1_555 1_555
N2_2 C20_2 1_555 1_555
C21_2 N2_2 1_555 1_555
H15_2 C21_2 1_555 1_555
C22_2 C18_2 1_555 1_555
H16_2 C22_2 1_555 1_555
C23_2 As1_2 1_555 1_555
C27_2 C26_2 1_555 1_555
C28_2 C23_2 1_555 1_555
H20_2 C28_2 1_555 1_555
C49_2 C48_2 1_555 1_555
H33_2 C49_2 1_555 1_555
C50_2 C49_2 1_555 1_555
H34_2 C50_2 1_555 1_555
C51_2 C50_2 1_555 1_555
C52_2 C51_2 1_555 1_555
H35_2 C52_2 1_555 1_555
C53_2 C48_2 1_555 1_555
H36_2 C53_2 1_555 1_555
C54_2 C51_2 1_555 1_555
C55_2 C54_2 1_555 1_555
H37_2 C55_2 1_555 1_555
C56_2 C55_2 1_555 1_555
H38_2 C56_2 1_555 1_555
N4_2 C56_2 1_555 1_555
C57_2 N4_2 1_555 1_555
H39_2 C57_2 1_555 1_555
C58_2 C54_2 1_555 1_555
H40_2 C58_2 1_555 1_555
H49_2 C71_2 1_555 1_555
C72_2 C71_2 1_555 1_555
H50_2 C72_2 1_555 1_555
Ni7_2 N4_2 1_555 1_555
Ni9_2 N2_2 1_555 1_555
C16_2 C17_2 1_555 1_555
C21_2 C22_2 1_555 1_555
C27_2 C28_2 1_555 1_555
C52_2 C53_2 1_555 1_555
C57_2 C58_2 1_555 1_555
C30_2 C29_2 1_555 1_555
C31_2 C30_2 1_555 1_555
H22_2 C31_2 1_555 1_555
N3_2 Ni4 1_555 1_555
C32_2 N3_2 1_555 1_555
H23_2 C32_2 1_555 1_555
C33_2 C29_2 1_555 1_555
H24_2 C33_2 1_555 1_555
C31_2 N3_2 1_555 1_555
C32_2 C33_2 1_555 1_555
Ni9_2 N6_3 1_555 1_555
C77_3 C76_3 1_555 1_555
C78_3 C77_3 1_555 1_555
H54_3 C78_3 1_555 1_555
N6_3 C78_3 1_555 1_555
C79_3 N6_3 1_555 1_555
H55_3 C79_3 1_555 1_555
C80_3 C76_3 1_555 1_555
H56_3 C80_3 1_555 1_555
O6_3 Ni9_2 1_555 1_555
O7_2 Ni9_2 1_555 1_555
O8 Ni9_2 1_555 1_555
C79_3 C80_3 1_555 1_555
Au1_3 Cl1_3 1_555 1_555
As1_3 Au1_3 1_555 1_555
Ni7_2 O6_3 1_555 1_555
C1_3 As1_3 1_555 1_555
C2_3 C1_3 1_555 1_555
H1_3 C2_3 1_555 1_555
C3_3 C2_3 1_555 1_555
H2_3 C3_3 1_555 1_555
C4_3 C3_3 1_555 1_555
C5_3 C4_3 1_555 1_555
H3_3 C5_3 1_555 1_555
C6_3 C1_3 1_555 1_555
H4_3 C6_3 1_555 1_555
C7_3 C4_3 1_555 1_555
C8_3 C7_3 1_555 1_555
H5_3 C8_3 1_555 1_555
C9_3 C8_3 1_555 1_555
H6_3 C9_3 1_555 1_555
N7_2 C9_3 1_555 1_555
C10_3 N7_2 1_555 1_555
H7_3 C10_3 1_555 1_555
C11_3 C7_3 1_555 1_555
H8_3 C11_3 1_555 1_555
C12_3 As1_3 1_555 1_555
C13_3 C12_3 1_555 1_555
H9_3 C13_3 1_555 1_555
C14_3 C13_3 1_555 1_555
H10_3 C14_3 1_555 1_555
C15_3 C14_3 1_555 1_555
C16_3 C15_3 1_555 1_555
H11_3 C16_3 1_555 1_555
C17_3 C12_3 1_555 1_555
H12_3 C17_3 1_555 1_555
C18_3 C15_3 1_555 1_555
C19_3 C18_3 1_555 1_555
H13_3 C19_3 1_555 1_555
C20_3 C19_3 1_555 1_555
H14_3 C20_3 1_555 1_555
N9_2 C20_3 1_555 1_555
C21_3 N9_2 1_555 1_555
C22_3 C18_3 1_555 1_555
H16_3 C22_3 1_555 1_555
C23_3 As1_3 1_555 1_555
C24_3 C23_3 1_555 1_555
H17_3 C24_3 1_555 1_555
C25_3 C24_3 1_555 1_555
H18_3 C25_3 1_555 1_555
C26_3 C25_3 1_555 1_555
C27_3 C26_3 1_555 1_555
H19_3 C27_3 1_555 1_555
C28_3 C23_3 1_555 1_555
H20_3 C28_3 1_555 1_555
C29_3 C26_3 1_555 1_555
C30_3 C29_3 1_555 1_555
H21_3 C30_3 1_555 1_555
C31_3 C30_3 1_555 1_555
H22_3 C31_3 1_555 1_555
N3_3 Ni7_2 1_555 1_555
C32_3 N3_3 1_555 1_555
H23_3 C32_3 1_555 1_555
C33_3 C29_3 1_555 1_555
H24_3 C33_3 1_555 1_555
O2_2 Ni7_2 1_555 1_555
O8 C37_3 1_555 1_555
C34_3 C35_3 1_555 1_555
C35_3 H25_3 1_555 1_555
C36_3 C35_3 1_555 1_555
H26_3 C36_3 1_555 1_555
C37_3 O2_2 1_555 1_555
C38_3 C34_3 1_555 1_555
H27_3 C38_3 1_555 1_555
C39_3 C38_3 1_555 1_555
H28_3 C39_3 1_555 1_555
C40_3 C36_3 1_555 1_555
O4_3 C44_3 1_555 1_555
O5_3 C44_3 1_555 1_555
C41_3 C42_3 1_555 1_555
C42_3 H29_3 1_555 1_555
C43_3 C42_3 1_555 1_555
H30_3 C43_3 1_555 1_555
C44_3 C41_3 1_555 1_555
C45_3 C41_3 1_555 1_555
H31_3 C45_3 1_555 1_555
C46_3 C45_3 1_555 1_555
H32_3 C46_3 1_555 1_555
C47_3 C40_3 1_555 1_555
Au2_3 Au1_3 1_555 1_555
Cl2_3 Au2_3 1_555 1_555
As2_3 Au2_3 1_555 1_555
C48_3 As2_3 1_555 1_555
C49_3 C48_3 1_555 1_555
H33_3 C49_3 1_555 1_555
C50_3 C49_3 1_555 1_555
H34_3 C50_3 1_555 1_555
C51_3 C50_3 1_555 1_555
C52_3 C51_3 1_555 1_555
H35_3 C52_3 1_555 1_555
C53_3 C48_3 1_555 1_555
H36_3 C53_3 1_555 1_555
C54_3 C51_3 1_555 1_555
C55_3 C54_3 1_555 1_555
H37_3 C55_3 1_555 1_555
C56_3 C55_3 1_555 1_555
H38_3 C56_3 1_555 1_555
N8_2 C56_3 1_555 1_555
C57_3 N8_2 1_555 1_555
H39_3 C57_3 1_555 1_555
C58_3 C54_3 1_555 1_555
H40_3 C58_3 1_555 1_555
C59_3 As2_3 1_555 1_555
C60_3 C59_3 1_555 1_555
H41_3 C60_3 1_555 1_555
C61_3 C60_3 1_555 1_555
H42_3 C61_3 1_555 1_555
C62_3 C61_3 1_555 1_555
C63_3 C62_3 1_555 1_555
H43_3 C63_3 1_555 1_555
C64_3 C59_3 1_555 1_555
H44_3 C64_3 1_555 1_555
C65_3 C62_3 1_555 1_555
C66_3 C65_3 1_555 1_555
H45_3 C66_3 1_555 1_555
C67_3 C66_3 1_555 1_555
H46_3 C67_3 1_555 1_555
N10_2 C67_3 1_555 1_555
C68_3 N10_2 1_555 1_555
C69_3 C65_3 1_555 1_555
H48_3 C69_3 1_555 1_555
C70_3 As2_3 1_555 1_555
C71_3 C70_3 1_555 1_555
H49_3 C71_3 1_555 1_555
C72_3 C71_3 1_555 1_555
H50_3 C72_3 1_555 1_555
C73_3 C72_3 1_555 1_555
C74_3 C73_3 1_555 1_555
C75_3 C70_3 1_555 1_555
H52_3 C75_3 1_555 1_555
Ni9 O4_3 1_555 1_555
O9_2 Ni7_2 1_555 1_555
C5_3 C6_3 1_555 1_555
C10_3 C11_3 1_555 1_555
C16_3 C17_3 1_555 1_555
C21_3 C22_3 1_555 1_555
C27_3 C28_3 1_555 1_555
C31_3 N3_3 1_555 1_555
C32_3 C33_3 1_555 1_555
C34_3 C37_3 1_555 1_555
C39_3 C40_3 1_555 1_555
C43_3 C47_3 1_555 1_555
C46_3 C47_3 1_555 1_555
C52_3 C53_3 1_555 1_555
C57_3 C58_3 1_555 1_555
C63_3 C64_3 1_555 1_555
C68_3 C69_3 1_555 1_555
C74_3 C75_3 1_555 1_555
O9_2 C37_4 1_555 1_555
C34_4 C35_4 1_555 1_555
C35_4 H25_4 1_555 1_555
C36_4 C35_4 1_555 1_555
H26_4 C36_4 1_555 1_555
C37_4 O7_2 1_555 1_555
C38_4 C34_4 1_555 1_555
H27_4 C38_4 1_555 1_555
C39_4 C38_4 1_555 1_555
H28_4 C39_4 1_555 1_555
C40_4 C36_4 1_555 1_555
O4_4 C44_4 1_555 1_555
O5_4 C44_4 1_555 1_555
C41_4 C42_4 1_555 1_555
C42_4 H29_4 1_555 1_555
C43_4 C42_4 1_555 1_555
H30_4 C43_4 1_555 1_555
C44_4 C41_4 1_555 1_555
C45_4 C41_4 1_555 1_555
H31_4 C45_4 1_555 1_555
C46_4 C45_4 1_555 1_555
H32_4 C46_4 1_555 1_555
C47_4 C40_4 1_555 1_555
Ni7 O4_4 1_555 1_555
C34_4 C37_4 1_555 1_555
C39_4 C40_4 1_555 1_555
C43_4 C47_4 1_555 1_555
C46_4 C47_4 1_555 1_555
C30_4 C29_4 1_555 1_555
C31_4 C30_4 1_555 1_555
H22_4 C31_4 1_555 1_555
N3_4 Ni7 1_555 1_555
C32_4 N3_4 1_555 1_555
H23_4 C32_4 1_555 1_555
C33_4 C29_4 1_555 1_555
H24_4 C33_4 1_555 1_555
C31_4 N3_4 1_555 1_555
C32_4 C33_4 1_555 1_555
Au1_4 Cl1_4 1_555 1_555
As1_4 Au1_4 1_555 1_555
C12_4 As1_4 1_555 1_555
C13_4 C12_4 1_555 1_555
H9_4 C13_4 1_555 1_555
C14_4 C13_4 1_555 1_555
H10_4 C14_4 1_555 1_555
C15_4 C14_4 1_555 1_555
C16_4 C15_4 1_555 1_555
H11_4 C16_4 1_555 1_555
C17_4 C12_4 1_555 1_555
H12_4 C17_4 1_555 1_555
C18_4 C15_4 1_555 1_555
C19_4 C18_4 1_555 1_555
H13_4 C19_4 1_555 1_555
C20_4 C19_4 1_555 1_555
H14_4 C20_4 1_555 1_555
N9 C20_4 1_555 1_555
C21_4 N9 1_555 1_555
H15_4 C21_4 1_555 1_555
C22_4 C18_4 1_555 1_555
H16_4 C22_4 1_555 1_555
C23_4 As1_4 1_555 1_555
C27_4 C26_4 1_555 1_555
C28_4 C23_4 1_555 1_555
H20_4 C28_4 1_555 1_555
C49_4 C48_4 1_555 1_555
H33_4 C49_4 1_555 1_555
C50_4 C49_4 1_555 1_555
H34_4 C50_4 1_555 1_555
C51_4 C50_4 1_555 1_555
C52_4 C51_4 1_555 1_555
H35_4 C52_4 1_555 1_555
C53_4 C48_4 1_555 1_555
H36_4 C53_4 1_555 1_555
C54_4 C51_4 1_555 1_555
C55_4 C54_4 1_555 1_555
H37_4 C55_4 1_555 1_555
C56_4 C55_4 1_555 1_555
H38_4 C56_4 1_555 1_555
N8 C56_4 1_555 1_555
C57_4 N8 1_555 1_555
H39_4 C57_4 1_555 1_555
C58_4 C54_4 1_555 1_555
H40_4 C58_4 1_555 1_555
H49_4 C71_4 1_555 1_555
C72_4 C71_4 1_555 1_555
H50_4 C72_4 1_555 1_555
C16_4 C17_4 1_555 1_555
C21_4 C22_4 1_555 1_555
C27_4 C28_4 1_555 1_555
C52_4 C53_4 1_555 1_555
C57_4 C58_4 1_555 1_555
C2_4 C1_4 1_555 1_555
H1_4 C2_4 1_555 1_555
C3_4 C2_4 1_555 1_555
H2_4 C3_4 1_555 1_555
C4_4 C3_4 1_555 1_555
C5_4 C4_4 1_555 1_555
H3_4 C5_4 1_555 1_555
C6_4 C1_4 1_555 1_555
H4_4 C6_4 1_555 1_555
C7_4 C4_4 1_555 1_555
C8_4 C7_4 1_555 1_555
H5_4 C8_4 1_555 1_555
C9_4 C8_4 1_555 1_555
H6_4 C9_4 1_555 1_555
N7 C9_4 1_555 1_555
C10_4 N7 1_555 1_555
H7_4 C10_4 1_555 1_555
C11_4 C7_4 1_555 1_555
H8_4 C11_4 1_555 1_555
H17_4 C24_4 1_555 1_555
C25_4 C24_4 1_555 1_555
H18_4 C25_4 1_555 1_555
Cl2_4 Au2_4 1_555 1_555
As2_4 Au2_4 1_555 1_555
Ni9 N6_4 1_555 1_555
C59_4 As2_4 1_555 1_555
C60_4 C59_4 1_555 1_555
H41_4 C60_4 1_555 1_555
C61_4 C60_4 1_555 1_555
H42_4 C61_4 1_555 1_555
C62_4 C61_4 1_555 1_555
C63_4 C62_4 1_555 1_555
H43_4 C63_4 1_555 1_555
C64_4 C59_4 1_555 1_555
H44_4 C64_4 1_555 1_555
C65_4 C62_4 1_555 1_555
C66_4 C65_4 1_555 1_555
H45_4 C66_4 1_555 1_555
C67_4 C66_4 1_555 1_555
H46_4 C67_4 1_555 1_555
N10 C67_4 1_555 1_555
C68_4 N10 1_555 1_555
H47_4 C68_4 1_555 1_555
C69_4 C65_4 1_555 1_555
H48_4 C69_4 1_555 1_555
C70_4 As2_4 1_555 1_555
C74_4 C73_4 1_555 1_555
H51_4 C74_4 1_555 1_555
C75_4 C70_4 1_555 1_555
H52_4 C75_4 1_555 1_555
C76_4 C73_4 1_555 1_555
C77_4 C76_4 1_555 1_555
H53_4 C77_4 1_555 1_555
C78_4 C77_4 1_555 1_555
H54_4 C78_4 1_555 1_555
N6_4 C78_4 1_555 1_555
C79_4 N6_4 1_555 1_555
H55_4 C79_4 1_555 1_555
C80_4 C76_4 1_555 1_555
H56_4 C80_4 1_555 1_555
C5_4 C6_4 1_555 1_555
C10_4 C11_4 1_555 1_555
C63_4 C64_4 1_555 1_555
C68_4 C69_4 1_555 1_555
C74_4 C75_4 1_555 1_555
C79_4 C80_4 1_555 1_555

#END
