
###############################################################################
#
# This file contains modified crystal structure data generated from the
# MOF subset of the Cambridge Structural Database (CSD) v543 
# hosted by the Cambridge Crystallographic Data Centre (CCDC).
#
# This work is licensed under the Creative Commons
# Attribution-NonCommercial-ShareAlike 4.0 International License.
# To view a copy of this license, visit
# http://creativecommons.org/licenses/by-nc-sa/4.0/
# or send a letter to
# Creative Commons, PO Box 1866, Mountain View, CA 94042, USA.
#
# CIF created using the CSD Python API on 29 September 2022
# The structure has been converted into the P1 space group
# The structure has a 3D framework
# The original CSD entry SINWEU is in the trigonal crystal system
# The original CSD entry SINWEU is in a Sohncke space group
# The framework has been calculated to contain at least 10.0% void space
# The void calculation uses a probe of radius 1.32A, grid spacing 0.4
# The framework is charged, counterions have been retained in the structure
# H atom positions have been added when not included in the experimental data
#
###############################################################################

data_SINWEU
_chemical_formula_moiety         '(C18 H18 In108 N12 O24 S144 27-)n'
_symmetry_cell_setting           triclinic
_symmetry_space_group_name_H-M   'P 1'
_symmetry_Int_Tables_number      1
_space_group_name_Hall           'P 1'
loop_
_symmetry_equiv_pos_site_id
_symmetry_equiv_pos_as_xyz
1 x,y,z
_cell_length_a                   21.5880(13)
_cell_length_b                   21.5880(13)
_cell_length_c                   41.146(3)
_cell_angle_alpha                90
_cell_angle_beta                 90
_cell_angle_gamma                120
_cell_volume                     16606.7
loop_
_atom_site_label
_atom_site_type_symbol
_atom_site_fract_x
_atom_site_fract_y
_atom_site_fract_z
In5 In 0.27891(8) 0.02908(8) 0.70015(4)
O3 O 0.1804(6) 0.0189(6) 0.6884(3)
S3 S 0.1391(3) 0.1112(3) 0.74729(15)
S8 S 0.3712(3) 0.0462(4) 0.65872(14)
S9 S 0.3390(3) 0.1572(3) 0.72101(14)
In10 In 0.26507(9) 0.16255(9) 0.76673(4)
In11 In 0.13801(9) 0.18842(9) 0.70228(4)
S14 S 0.2716(3) 0.1000(3) 0.81396(16)
S16 S 0.3125(4) 0.2834(3) 0.78579(17)
S17 S 0.1842(3) 0.3103(3) 0.72033(16)
In18 In 0.30180(9) 0.34080(9) 0.73742(4)
N1 N 0.3416(9) 0.4490(9) 0.7563(5)
C1 C 0.3860(12) 0.4707(12) 0.7819(6)
C2 C 0.3176(13) 0.4948(13) 0.7508(6)
N2 N 0.3973(10) 0.5392(9) 0.7897(4)
C3 C 0.3515(14) 0.5495(14) 0.7721(6)
In21 In 0.16412(8) 0.05226(8) 0.64247(4)
S26 S 0.0441(3) 0.0266(3) 0.62167(14)
S28 S 0.2106(3) 0.1833(3) 0.65630(14)
S29 S 0.2444(3) 0.0729(4) 0.59473(14)
In29 In 0.33679(9) 0.23370(8) 0.67587(4)
In30 In 0.37147(8) 0.12297(12) 0.61316(4)
S39 S 0.0177(3) 0.1517(3) 0.68506(16)
S42 S 0.4164(3) 0.2434(3) 0.63248(16)
S43 S 0.3847(4) 0.3555(4) 0.69438(17)
S44 S 0.4429(3) 0.1188(4) 0.56939(16)
In37 In 0.46768(16) 0.60318(9) 0.83003(4)
H1 H 0.408519 0.441627 0.794066
H2 H 0.278329 0.488989 0.732648
H3 H 0.342681 0.594751 0.774455
In7 In 0.61536(11) 0.69827(8) 0.97743(4)
S8_2 S 0.6750(5) 0.6288(3) 0.99205(14)
S12 S 0.5319(5) 0.6131(3) 0.93462(15)
S23 S 0.3705(5) 0.6492(3) 0.95541(17)
O5 O 0.8151(8) 0.8767(6) 0.9617(3)
O6 O 0.6875(8) 0.9179(6) 0.9834(3)
In20 In 0.88807(11) 0.98746(8) 0.94263(4)
In21_2 In 0.88814(11) 0.83588(8) 0.97581(4)
In22 In 0.75410(11) 0.81296(8) 0.91965(4)
In24 In 0.61635(11) 0.85475(8) 0.94322(4)
S25 S 0.8279(4) 0.9293(3) 0.89070(15)
S26_2 S 0.9825(4) 0.9559(3) 0.95501(14)
S28_2 S 0.9727(4) 0.7894(3) 0.98964(14)
S29_2 S 0.8285(5) 0.7556(3) 0.92807(14)
S30 S 0.6867(4) 0.7395(3) 0.87026(14)
O8 O 0.6664(10) 0.7916(7) 0.9489(3)
S31 S 0.6749(4) 0.9749(3) 0.91672(14)
S34 S 0.5221(4) 0.8474(3) 0.98072(15)
S35 S 0.5351(4) 0.7874(3) 0.89594(14)
In26 In 0.75212(13) 0.97902(9) 0.87047(4)
In30_2 In 0.75150(14) 0.62853(8) 0.94650(4)
In31 In 0.60958(13) 0.78718(9) 0.84983(4)
In32 In 0.60606(16) 0.61292(9) 0.88786(4)
In33 In 0.45522(16) 0.66089(9) 0.91436(4)
S37 S 0.6778(4) 0.9062(3) 0.82726(16)
S42_2 S 0.8270(4) 0.5836(3) 0.96582(16)
S44_2 S 0.6759(5) 0.5571(3) 0.90273(16)
S45 S 0.5396(6) 0.7167(4) 0.80416(16)
S46 S 0.5278(7) 0.5383(4) 0.84498(19)
S48 S 0.3811(7) 0.5962(4) 0.86871(17)
In1 In 0.75196(8) 0.87598(6) 1.0000
In16 In 0.44300(15) 0.72150(14) 1.0000
In1_2 In 0.12402(6) 0.87598(6) 0.6667
O1 O 0.0616(6) 0.8767(6) 0.7050(3)
O2 O 0.2304(6) 0.9179(6) 0.6833(3)
In2 In 0.09939(8) 0.98746(8) 0.72404(4)
In4 In 0.05886(8) 0.81296(8) 0.74702(4)
In6 In 0.23840(8) 0.85475(8) 0.72345(4)
In7_2 In 0.30173(8) 0.91709(8) 0.64410(4)
S1 S 0.1014(3) 0.9293(3) 0.77597(15)
S6 S 0.0528(3) 0.7395(3) 0.79641(14)
O4 O 0.1252(7) 0.7916(7) 0.7178(3)
S7 S 0.3000(3) 0.9749(3) 0.74995(14)
S10 S 0.3253(3) 0.8474(3) 0.68595(15)
S11 S 0.2523(3) 0.7874(3) 0.77073(14)
S12_2 S 0.3869(3) 0.9188(4) 0.60129(15)
In8 In 0.22690(9) 0.97902(9) 0.79620(4)
In14 In 0.17760(9) 0.78718(9) 0.81684(4)
In15 In 0.00686(13) 0.61292(9) 0.77881(4)
In16_2 In 0.27850(6) 0.72150(14) 0.6667
In17 In 0.20567(13) 0.66089(9) 0.75231(4)
S13 S 0.2284(3) 0.9062(3) 0.83941(16)
S21 S 0.1771(4) 0.7167(4) 0.86251(16)
S22 S 0.0105(6) 0.5383(4) 0.82169(19)
S23_2 S 0.3508(3) 0.7213(4) 0.62208(17)
S24 S 0.2151(6) 0.5962(4) 0.79796(17)
In19 In 0.13550(13) 0.60318(9) 0.83664(4)
O5_2 O 0.1233(6) 0.9384(6) 0.6283(3)
O6_2 O 0.0821(6) 0.7696(6) 0.6500(3)
In20_2 In 0.01254(8) 0.90061(8) 0.60929(4)
In22_2 In 0.18704(8) 0.94114(8) 0.58631(4)
In24_2 In 0.14525(8) 0.76160(8) 0.60988(4)
In25 In 0.08291(8) 0.69827(8) 0.68923(4)
S25_2 S 0.0707(3) 0.8986(3) 0.55736(15)
S30_2 S 0.2605(3) 0.9472(3) 0.53692(14)
O8_2 O 0.2084(7) 0.8748(7) 0.6155(3)
S31_2 S 0.0251(3) 0.7000(3) 0.58338(14)
S34_2 S 0.1526(3) 0.6747(3) 0.64738(15)
S35_2 S 0.2126(3) 0.7477(3) 0.56260(14)
S36 S 0.0812(4) 0.6131(3) 0.73204(15)
In26_2 In 0.02098(9) 0.77310(9) 0.53713(4)
In31_2 In 0.21282(9) 0.82240(9) 0.51649(4)
In32_2 In 0.38708(9) 0.99314(13) 0.55452(4)
In33_2 In 0.33911(9) 0.79433(13) 0.58102(4)
S37_2 S 0.0938(3) 0.7716(3) 0.49392(16)
S45_2 S 0.2833(4) 0.8229(4) 0.47082(16)
S46_2 S 0.4617(4) 0.9895(6) 0.51164(19)
S47 S 0.2787(4) 0.6492(3) 0.71125(17)
S48_2 S 0.4038(4) 0.7849(6) 0.53537(17)
In35 In 0.39682(9) 0.86450(13) 0.49669(4)
N5 N 0.4608(9) 0.8581(13) 0.4564(4)
N6 N 0.1419(13) 0.5392(9) 0.8770(4)
In9 In 0.96910(6) 0.93820(8) 0.3334
In11_2 In 0.81158(9) 0.94959(13) 0.36895(4)
S17_2 S 0.6897(3) 0.8739(4) 0.38700(16)
In18_2 In 0.65920(9) 0.96100(13) 0.40409(4)
N1_2 N 0.5510(9) 0.8926(13) 0.4230(5)
C1_2 C 0.5293(12) 0.9153(17) 0.4486(6)
C2_2 C 0.5052(13) 0.8228(18) 0.4175(6)
C3_2 C 0.4505(14) 0.8020(20) 0.4388(6)
S39_2 S 0.8483(3) 0.8660(4) 0.35173(16)
H1_2 H 0.558373 0.966891 0.460733
H2_2 H 0.511011 0.789341 0.399315
H3_2 H 0.405249 0.74793 0.441121
S15 S 0.1340(4) 0.1517(3) 0.98160(16)
In28 In 0.05041(13) 0.18842(9) 0.96439(4)
S41 S 0.1261(4) 0.3103(3) 0.94634(16)
In34 In 0.03900(13) 0.34080(9) 0.92925(4)
N3 N 0.1074(13) 0.4490(9) 0.9104(5)
C4 C 0.0847(17) 0.4707(12) 0.8848(6)
C5 C 0.1772(18) 0.4948(13) 0.9159(6)
C6 C 0.1980(20) 0.5495(14) 0.8946(6)
H4 H 0.210659 0.488989 0.934018
H5 H 0.25207 0.594751 0.892212
H6 H 0.0331088 0.441627 0.872601
In9_2 In 0.06180(8) 0.03090(6) 1.0000
In9_3 In 0.96910(6) 0.03090(6) 0.6667
In3 In 0.94774(8) 0.83588(8) 0.69086(4)
S2 S 0.9734(3) 0.9559(3) 0.71166(14)
S4 S 0.8167(3) 0.7894(3) 0.67703(14)
S5 S 0.9271(4) 0.7556(3) 0.73860(14)
In12 In 0.76630(8) 0.66321(9) 0.65746(4)
In13 In 0.87703(12) 0.62853(8) 0.72017(4)
S15_2 S 0.8483(3) 0.9823(3) 0.64827(16)
S18 S 0.7566(3) 0.5836(3) 0.70085(16)
S19 S 0.6445(4) 0.6153(4) 0.63895(17)
S20 S 0.8812(4) 0.5571(3) 0.76394(16)
In23 In 0.97092(8) 0.72109(8) 0.63318(4)
O7 O 0.9811(6) 0.8196(6) 0.6449(3)
S27 S 0.8888(3) 0.8609(3) 0.58604(15)
S32 S 0.9538(4) 0.6288(3) 0.67461(14)
S33 S 0.8428(3) 0.6610(3) 0.61232(14)
In27 In 0.83745(9) 0.73493(9) 0.56660(4)
In28_2 In 0.81158(9) 0.86199(9) 0.63105(4)
S38 S 0.9000(3) 0.7284(3) 0.51937(16)
S40 S 0.7166(3) 0.6875(4) 0.54754(17)
S41_2 S 0.6897(3) 0.8158(3) 0.61300(16)
In34_2 In 0.65920(9) 0.69820(9) 0.59591(4)
N3_2 N 0.5510(9) 0.6584(9) 0.5770(5)
C4_2 C 0.5293(12) 0.6140(12) 0.5514(6)
C5_2 C 0.5052(13) 0.6824(13) 0.5825(6)
N4 N 0.4608(9) 0.6027(10) 0.5436(4)
C6_2 C 0.4505(14) 0.6485(14) 0.5612(6)
In36 In 0.39682(9) 0.53232(16) 0.50331(4)
H4_2 H 0.511011 0.721671 0.600685
H5_2 H 0.405249 0.657319 0.558879
H6_2 H 0.558373 0.591481 0.539267
In1_3 In 0.12402(6) 0.24804(8) 0.3334
O1_2 O 0.1233(6) 0.1849(8) 0.3717(3)
O2_2 O 0.0821(6) 0.3125(8) 0.3500(3)
In2_2 In 0.01254(8) 0.11193(11) 0.39071(4)
In3_2 In 0.16412(8) 0.11186(11) 0.35753(4)
In4_2 In 0.18704(8) 0.24590(11) 0.41369(4)
In6_2 In 0.14525(8) 0.38365(11) 0.39012(4)
In7_3 In 0.08291(8) 0.38464(11) 0.31077(4)
S1_2 S 0.0707(3) 0.1721(4) 0.44264(15)
S2_2 S 0.0441(3) 0.0175(4) 0.37833(14)
S4_2 S 0.2106(3) 0.0273(4) 0.34370(14)
S5_2 S 0.2444(3) 0.1715(5) 0.40527(14)
S6_2 S 0.2605(3) 0.3133(4) 0.46308(14)
O4_2 O 0.2084(7) 0.3336(10) 0.3845(3)
S7_2 S 0.0251(3) 0.3251(4) 0.41662(14)
S10_2 S 0.1526(3) 0.4779(4) 0.35262(15)
S11_2 S 0.2126(3) 0.4649(4) 0.43740(14)
S12_3 S 0.0812(4) 0.4681(5) 0.26796(15)
In8_2 In 0.02098(9) 0.24788(13) 0.46287(4)
In12_2 In 0.33679(9) 0.10309(12) 0.32413(4)
In13_2 In 0.37147(8) 0.24850(14) 0.38684(4)
In14_2 In 0.21282(9) 0.39042(13) 0.48351(4)
In15_2 In 0.38708(9) 0.39394(16) 0.44548(4)
In16_3 In 0.27850(14) 0.55700(15) 0.3334
In17_2 In 0.33911(9) 0.54478(16) 0.41898(4)
S13_2 S 0.0938(3) 0.3222(4) 0.50608(16)
S18_2 S 0.4164(3) 0.1730(4) 0.36752(16)
S19_2 S 0.3847(4) 0.0292(6) 0.30562(17)
S20_2 S 0.4429(3) 0.3241(5) 0.43061(16)
S21_2 S 0.2833(4) 0.4604(6) 0.52918(16)
S22_2 S 0.4617(4) 0.4722(7) 0.48836(19)
S23_3 S 0.2787(4) 0.6295(5) 0.28875(17)
S24_2 S 0.4038(4) 0.6189(7) 0.46463(17)
O5_3 O 0.0616(6) 0.1849(8) 0.2950(3)
O6_3 O 0.2304(6) 0.3125(8) 0.3167(3)
In20_3 In 0.09939(8) 0.11193(11) 0.27596(4)
In22_3 In 0.05886(8) 0.24590(11) 0.25298(4)
In23_2 In 0.27891(8) 0.24983(11) 0.29985(4)
In24_3 In 0.23840(8) 0.38365(11) 0.27655(4)
In25_2 In 0.30173(8) 0.38464(11) 0.35590(4)
S25_3 S 0.1014(3) 0.1721(4) 0.22403(15)
O7_2 O 0.1804(6) 0.1615(8) 0.3116(3)
S27_2 S 0.1391(3) 0.0279(4) 0.25271(15)
S30_3 S 0.0528(3) 0.3133(4) 0.20359(14)
O8_3 O 0.1252(7) 0.3336(10) 0.2822(3)
S31_3 S 0.3000(3) 0.3251(4) 0.25005(14)
S32_2 S 0.3712(3) 0.3250(5) 0.34128(14)
S33_2 S 0.3390(3) 0.1818(4) 0.27899(14)
S34_3 S 0.3253(3) 0.4779(4) 0.31405(15)
S35_3 S 0.2523(3) 0.4649(4) 0.22927(14)
S36_2 S 0.3869(3) 0.4681(5) 0.39871(15)
In26_3 In 0.22690(9) 0.24788(13) 0.20380(4)
In27_2 In 0.26507(9) 0.10252(13) 0.23327(4)
In31_3 In 0.17760(9) 0.39042(13) 0.18316(4)
In32_3 In 0.00686(13) 0.39394(16) 0.22119(4)
In33_3 In 0.20567(13) 0.54478(16) 0.24769(4)
S37_3 S 0.2284(3) 0.3222(4) 0.16059(16)
S38_2 S 0.2716(3) 0.1716(4) 0.18604(16)
S40_2 S 0.3125(4) 0.0291(5) 0.21421(17)
S45_3 S 0.1771(4) 0.4604(6) 0.13749(16)
S46_3 S 0.0105(6) 0.4722(7) 0.17831(19)
S47_2 S 0.3508(3) 0.6295(5) 0.37792(17)
S48_3 S 0.2151(6) 0.6189(7) 0.20204(17)
In35_2 In 0.13550(13) 0.53232(16) 0.16336(4)
N5_2 N 0.1419(13) 0.6027(16) 0.1230(4)
In11_3 In 0.05041(13) 0.86199(9) 0.03561(4)
S17_3 S 0.1261(4) 0.8158(3) 0.05366(16)
In18_3 In 0.03900(13) 0.69820(9) 0.07075(4)
N1_3 N 0.1074(13) 0.6584(9) 0.0896(5)
C1_3 C 0.0847(17) 0.6140(12) 0.1152(6)
C2_3 C 0.1772(18) 0.6824(13) 0.0841(6)
C3_3 C 0.1980(20) 0.6485(14) 0.1054(6)
S39_3 S 0.1340(4) 0.9823(3) 0.01840(16)
H1_3 H 0.0331088 0.591481 0.127399
H2_3 H 0.210659 0.721671 0.0659817
H3_3 H 0.25207 0.657319 0.107788
S15_3 S 0.0177(3) 0.8660(4) 0.31494(16)
In28_3 In 0.13801(9) 0.94959(13) 0.29772(4)
S41_3 S 0.1842(3) 0.8739(4) 0.27967(16)
In34_3 In 0.30180(9) 0.96100(13) 0.26258(4)
N3_3 N 0.3416(9) 0.8926(13) 0.2437(5)
C4_3 C 0.3860(12) 0.9153(17) 0.2181(6)
C5_3 C 0.3176(13) 0.8228(18) 0.2492(6)
N4_2 N 0.3973(10) 0.8581(13) 0.2103(4)
C6_3 C 0.3515(14) 0.8020(20) 0.2279(6)
In36_2 In 0.46768(16) 0.86450(18) 0.16997(4)
H4_3 H 0.278329 0.789341 0.267352
H5_3 H 0.342681 0.74793 0.225545
H6_3 H 0.408519 0.966891 0.205934
In1_4 In 0.75196(8) 0.87598(6) 0.0000
O1_3 O 0.8151(8) 0.9384(6) 0.0383(3)
O2_3 O 0.6875(8) 0.7696(6) 0.0166(3)
In2_3 In 0.88807(11) 0.90061(8) 0.05737(4)
In4_3 In 0.75410(11) 0.94114(8) 0.08035(4)
In5_2 In 0.75017(11) 0.72109(8) 0.03348(4)
In6_3 In 0.61635(11) 0.76160(8) 0.05678(4)
S1_3 S 0.8279(4) 0.8986(3) 0.10930(15)
O3_2 O 0.8385(8) 0.8196(6) 0.0217(3)
S3_2 S 0.9721(4) 0.8609(3) 0.08062(15)
S6_3 S 0.6867(4) 0.9472(3) 0.12974(14)
O4_3 O 0.6664(10) 0.8748(7) 0.0511(3)
S7_3 S 0.6749(4) 0.7000(3) 0.08328(14)
S9_2 S 0.8182(4) 0.6610(3) 0.05434(14)
S10_3 S 0.5221(4) 0.6747(3) 0.01928(15)
S11_3 S 0.5351(4) 0.7477(3) 0.10406(14)
In8_3 In 0.75212(13) 0.77310(9) 0.12953(4)
In10_2 In 0.89748(13) 0.73493(9) 0.10006(4)
In14_3 In 0.60958(13) 0.82240(9) 0.15017(4)
In15_3 In 0.60606(16) 0.99314(13) 0.11214(4)
In16_4 In 0.44300(15) 0.72150(6) 0.0000
In17_3 In 0.45522(16) 0.79433(13) 0.08564(4)
S13_3 S 0.6778(4) 0.7716(3) 0.17274(16)
S14_2 S 0.8284(4) 0.7284(3) 0.14729(16)
S16_2 S 0.9709(5) 0.6875(4) 0.11912(17)
S21_3 S 0.5396(6) 0.8229(4) 0.19584(16)
S22_3 S 0.5278(7) 0.9895(6) 0.15502(19)
S24_3 S 0.3811(7) 0.7849(6) 0.13129(17)
In25_3 In 0.61536(11) 0.91709(8) 0.02257(4)
S36_3 S 0.5319(5) 0.9188(4) 0.06538(15)
In29_2 In 0.89691(12) 0.66321(9) 0.00921(4)
S43_2 S 0.9708(6) 0.6153(4) 0.02772(17)
S47_3 S 0.3705(5) 0.7213(4) 0.04459(17)
In5_3 In 0.97092(8) 0.24983(11) 0.36682(4)
O3_3 O 0.9811(6) 0.1615(8) 0.3551(3)
S3_3 S 0.8888(3) 0.0279(4) 0.41396(15)
S8_3 S 0.9538(4) 0.3250(5) 0.32539(14)
S9_3 S 0.8428(3) 0.1818(4) 0.38768(14)
In10_3 In 0.83745(9) 0.10252(13) 0.43340(4)
S14_3 S 0.9000(3) 0.1716(4) 0.48063(16)
S16_3 S 0.7166(3) 0.0291(5) 0.45246(17)
In21_3 In 0.94774(8) 0.11186(11) 0.30914(4)
S26_3 S 0.9734(3) 0.0175(4) 0.28834(14)
S28_3 S 0.8167(3) 0.0273(4) 0.32297(14)
S29_3 S 0.9271(4) 0.1715(5) 0.26140(14)
In29_3 In 0.76630(8) 0.10309(12) 0.34254(4)
In30_3 In 0.87703(12) 0.24850(14) 0.27983(4)
S42_3 S 0.7566(3) 0.1730(4) 0.29915(16)
S43_3 S 0.6445(4) 0.0292(6) 0.36105(17)
S44_3 S 0.8812(4) 0.3241(5) 0.23606(16)
In9_4 In 0.06180(8) 0.03090(6) 0.0000
In3_3 In 0.88814(11) 0.05226(8) 0.02419(4)
S2_3 S 0.9825(4) 0.0266(3) 0.04499(14)
S4_3 S 0.9727(4) 0.1833(3) 0.01036(14)
S5_3 S 0.8285(5) 0.0729(4) 0.07193(14)
In13_3 In 0.75150(14) 0.12297(12) 0.05350(4)
S18_3 S 0.8270(4) 0.2434(3) 0.03418(16)
S20_3 S 0.6759(5) 0.1188(4) 0.09727(16)
S32_3 S 0.6750(5) 0.0462(4) 0.00795(14)
In12_3 In 0.89691(12) 0.23370(8) 0.99079(4)
S19_3 S 0.9708(6) 0.3555(4) 0.97228(17)
In23_3 In 0.75017(11) 0.02908(8) 0.96652(4)
O7_3 O 0.8385(8) 0.0189(6) 0.9783(3)
S27_3 S 0.9721(4) 0.1112(3) 0.91938(15)
S33_3 S 0.8182(4) 0.1572(3) 0.94566(14)
In27_3 In 0.89748(13) 0.16255(9) 0.89994(4)
S38_3 S 0.8284(4) 0.1000(3) 0.85271(16)
S40_3 S 0.9709(5) 0.2834(3) 0.88088(17)
loop_
_geom_bond_atom_site_label_1
_geom_bond_atom_site_label_2
_geom_bond_site_symmetry_1
_geom_bond_site_symmetry_2
S8 In5 1_555 1_555
S9 In5 1_555 1_555
In10 S3 1_555 1_555
In11 S3 1_555 1_555
S16 In10 1_555 1_555
S17 In11 1_555 1_555
In18 S16 1_555 1_555
N1 In18 1_555 1_555
C1 N1 1_555 1_555
C2 N1 1_555 1_555
N2 C1 1_555 1_555
C3 C2 1_555 1_555
In21 O3 1_555 1_555
S28 In11 1_555 1_555
S29 In21 1_555 1_555
In29 S9 1_555 1_555
In30 S8 1_555 1_555
S42 In29 1_555 1_555
S43 In18 1_555 1_555
S44 In30 1_555 1_555
In37 N2 1_555 1_555
In5 O3 1_555 1_555
S9 In10 1_555 1_555
In10 S14 1_555 1_555
In11 S39 1_555 1_555
S17 In18 1_555 1_555
N2 C3 1_555 1_555
In21 S26 1_555 1_555
In21 S28 1_555 1_555
S28 In29 1_555 1_555
S29 In30 1_555 1_555
In29 S43 1_555 1_555
In30 S42 1_555 1_555
C1 H1 1_555 1_555
C2 H2 1_555 1_555
C3 H3 1_555 1_555
S12 In7 1_555 1_555
In20 O5 1_555 1_555
In22 O5 1_555 1_555
In24 O6 1_555 1_555
S25 In20 1_555 1_555
S29_2 In21_2 1_555 1_555
S30 In22 1_555 1_555
O8 In7 1_555 1_555
S35 In24 1_555 1_555
In26 S25 1_555 1_555
In30_2 S8_2 1_555 1_555
In31 S30 1_555 1_555
In32 S12 1_555 1_555
In33 S12 1_555 1_555
S37 In26 1_555 1_555
S44_2 In30_2 1_555 1_555
S45 In31 1_555 1_555
S46 In32 1_555 1_555
S48 In33 1_555 1_555
In37 S45 1_555 1_555
In7 S8_2 1_555 1_555
S23 In33 1_555 1_555
O5 In21_2 1_555 1_555
In20 S26_2 1_555 1_555
In21_2 S26_2 1_555 1_555
In21_2 S28_2 1_555 1_555
In22 S25 1_555 1_555
In22 S29_2 1_555 1_555
In22 O8 1_555 1_555
In24 O8 1_555 1_555
In24 S31 1_555 1_555
In24 S34 1_555 1_555
S29_2 In30_2 1_555 1_555
S30 In32 1_555 1_555
S31 In26 1_555 1_555
S35 In31 1_555 1_555
S35 In33 1_555 1_555
In30_2 S42_2 1_555 1_555
In31 S37 1_555 1_555
In32 S44_2 1_555 1_555
S46 In37 1_555 1_555
S48 In37 1_555 1_555
In1 O5 1_555 1_555
O6 In1 1_555 1_555
In16 S34 1_555 1_555
S23 In16 1_555 1_555
In1_2 O1 1_555 1_555
O1 In2 1_555 1_555
O2 In1_2 1_555 1_555
In2 S1 1_555 1_555
In4 O1 1_555 1_555
In6 O2 1_555 1_555
In7_2 O2 1_555 1_555
S1 In4 1_555 1_555
S6 In4 1_555 1_555
O4 In4 1_555 1_555
S10 In6 1_555 1_555
S11 In6 1_555 1_555
S12_2 In7_2 1_555 1_555
In8 S1 1_555 1_555
In14 S6 1_555 1_555
In15 S6 1_555 1_555
In16_2 S10 1_555 1_555
In17 S11 1_555 1_555
S13 In8 1_555 1_555
S21 In14 1_555 1_555
S22 In15 1_555 1_555
S23_2 In16_2 1_555 1_555
S24 In17 1_555 1_555
In19 S21 1_555 1_555
O5_2 In1_2 1_555 1_555
O6_2 In1_2 1_555 1_555
In20_2 O5_2 1_555 1_555
In22_2 O5_2 1_555 1_555
In24_2 O6_2 1_555 1_555
In25 O4 1_555 1_555
S25_2 In20_2 1_555 1_555
S30_2 In22_2 1_555 1_555
O8_2 In7_2 1_555 1_555
S34_2 In16_2 1_555 1_555
S35_2 In24_2 1_555 1_555
S36 In15 1_555 1_555
In26_2 S25_2 1_555 1_555
In31_2 S30_2 1_555 1_555
In32_2 S12_2 1_555 1_555
In33_2 S12_2 1_555 1_555
S37_2 In26_2 1_555 1_555
S45_2 In31_2 1_555 1_555
S46_2 In32_2 1_555 1_555
S47 In16_2 1_555 1_555
S48_2 In33_2 1_555 1_555
In35 S45_2 1_555 1_555
N5 In35 1_555 1_555
N6 In19 1_555 1_555
In6 O4 1_555 1_555
In6 S7 1_555 1_555
In7_2 S10 1_555 1_555
S7 In8 1_555 1_555
S11 In14 1_555 1_555
In14 S13 1_555 1_555
In17 S36 1_555 1_555
In17 S47 1_555 1_555
S22 In19 1_555 1_555
S23_2 In33_2 1_555 1_555
S24 In19 1_555 1_555
O6_2 In25 1_555 1_555
In22_2 S25_2 1_555 1_555
In22_2 O8_2 1_555 1_555
In24_2 O8_2 1_555 1_555
In24_2 S31_2 1_555 1_555
In24_2 S34_2 1_555 1_555
In25 S34_2 1_555 1_555
In25 S36 1_555 1_555
S30_2 In32_2 1_555 1_555
S31_2 In26_2 1_555 1_555
S35_2 In31_2 1_555 1_555
S35_2 In33_2 1_555 1_555
In31_2 S37_2 1_555 1_555
S46_2 In35 1_555 1_555
S48_2 In35 1_555 1_555
S17_2 In11_2 1_555 1_555
N1_2 In18_2 1_555 1_555
C1_2 N1_2 1_555 1_555
C2_2 N1_2 1_555 1_555
N5 C1_2 1_555 1_555
C3_2 C2_2 1_555 1_555
S39_2 In9 1_555 1_555
In11_2 S39_2 1_555 1_555
S17_2 In18_2 1_555 1_555
N5 C3_2 1_555 1_555
C1_2 H1_2 1_555 1_555
C2_2 H2_2 1_555 1_555
C3_2 H3_2 1_555 1_555
S41 In28 1_555 1_555
N3 In34 1_555 1_555
C4 N3 1_555 1_555
C5 N3 1_555 1_555
N6 C4 1_555 1_555
C6 C5 1_555 1_555
S15 In28 1_555 1_555
S41 In34 1_555 1_555
N6 C6 1_555 1_555
C5 H4 1_555 1_555
C6 H5 1_555 1_555
C4 H6 1_555 1_555
S15 In9_2 1_555 1_555
S4 In3 1_555 1_555
S5 In3 1_555 1_555
In12 S4 1_555 1_555
In13 S5 1_555 1_555
S18 In12 1_555 1_555
S19 In12 1_555 1_555
S20 In13 1_555 1_555
O7 In3 1_555 1_555
S32 In13 1_555 1_555
S33 In12 1_555 1_555
In27 S27 1_555 1_555
In28_2 S4 1_555 1_555
S40 In27 1_555 1_555
S41_2 In28_2 1_555 1_555
In34_2 S19 1_555 1_555
N3_2 In34_2 1_555 1_555
C4_2 N3_2 1_555 1_555
C5_2 N3_2 1_555 1_555
N4 C4_2 1_555 1_555
C6_2 C5_2 1_555 1_555
In36 N4 1_555 1_555
In3 S2 1_555 1_555
In13 S18 1_555 1_555
S15_2 In28_2 1_555 1_555
In23 O7 1_555 1_555
In23 S32 1_555 1_555
In23 S33 1_555 1_555
S27 In28_2 1_555 1_555
S33 In27 1_555 1_555
In27 S38 1_555 1_555
S40 In34_2 1_555 1_555
S41_2 In34_2 1_555 1_555
N4 C6_2 1_555 1_555
C5_2 H4_2 1_555 1_555
C6_2 H5_2 1_555 1_555
C4_2 H6_2 1_555 1_555
In1_3 O1_2 1_555 1_555
O1_2 In2_2 1_555 1_555
O2_2 In1_3 1_555 1_555
In2_2 S1_2 1_555 1_555
In3_2 O1_2 1_555 1_555
In4_2 O1_2 1_555 1_555
In6_2 O2_2 1_555 1_555
In7_3 O2_2 1_555 1_555
S1_2 In4_2 1_555 1_555
S2_2 In2_2 1_555 1_555
S4_2 In3_2 1_555 1_555
S5_2 In3_2 1_555 1_555
S6_2 In4_2 1_555 1_555
O4_2 In4_2 1_555 1_555
S10_2 In6_2 1_555 1_555
S11_2 In6_2 1_555 1_555
S12_3 In7_3 1_555 1_555
In8_2 S1_2 1_555 1_555
In12_2 S4_2 1_555 1_555
In13_2 S5_2 1_555 1_555
In14_2 S6_2 1_555 1_555
In15_2 S6_2 1_555 1_555
In16_3 S10_2 1_555 1_555
In17_2 S11_2 1_555 1_555
S13_2 In8_2 1_555 1_555
S18_2 In12_2 1_555 1_555
S19_2 In12_2 1_555 1_555
S20_2 In13_2 1_555 1_555
S21_2 In14_2 1_555 1_555
S22_2 In15_2 1_555 1_555
S23_3 In16_3 1_555 1_555
S24_2 In17_2 1_555 1_555
In36 S21_2 1_555 1_555
O5_3 In1_3 1_555 1_555
O6_3 In1_3 1_555 1_555
In20_3 O5_3 1_555 1_555
In22_3 O5_3 1_555 1_555
In23_2 O6_3 1_555 1_555
In24_3 O6_3 1_555 1_555
In25_2 O4_2 1_555 1_555
S25_3 In20_3 1_555 1_555
O7_2 In3_2 1_555 1_555
S27_2 In20_3 1_555 1_555
S30_3 In22_3 1_555 1_555
O8_3 In7_3 1_555 1_555
S31_3 In23_2 1_555 1_555
S32_2 In13_2 1_555 1_555
S33_2 In12_2 1_555 1_555
S34_3 In16_3 1_555 1_555
S35_3 In24_3 1_555 1_555
S36_2 In15_2 1_555 1_555
In26_3 S25_3 1_555 1_555
In27_2 S27_2 1_555 1_555
In31_3 S30_3 1_555 1_555
In32_3 S12_3 1_555 1_555
In33_3 S12_3 1_555 1_555
S37_3 In26_3 1_555 1_555
S38_2 In26_3 1_555 1_555
S40_2 In27_2 1_555 1_555
S45_3 In31_3 1_555 1_555
S46_3 In32_3 1_555 1_555
S47_2 In16_3 1_555 1_555
S48_3 In33_3 1_555 1_555
In35_2 S45_3 1_555 1_555
N5_2 In35_2 1_555 1_555
In3_2 S2_2 1_555 1_555
In4_2 S5_2 1_555 1_555
In6_2 O4_2 1_555 1_555
In6_2 S7_2 1_555 1_555
In7_3 S10_2 1_555 1_555
S7_2 In8_2 1_555 1_555
S11_2 In14_2 1_555 1_555
In13_2 S18_2 1_555 1_555
In14_2 S13_2 1_555 1_555
In15_2 S20_2 1_555 1_555
In17_2 S36_2 1_555 1_555
In17_2 S47_2 1_555 1_555
S22_2 In36 1_555 1_555
S23_3 In33_3 1_555 1_555
S24_2 In36 1_555 1_555
O6_3 In25_2 1_555 1_555
In20_3 O7_2 1_555 1_555
In22_3 S25_3 1_555 1_555
In22_3 O8_3 1_555 1_555
In23_2 O7_2 1_555 1_555
In23_2 S32_2 1_555 1_555
In23_2 S33_2 1_555 1_555
In24_3 O8_3 1_555 1_555
In24_3 S31_3 1_555 1_555
In24_3 S34_3 1_555 1_555
In25_2 S32_2 1_555 1_555
In25_2 S34_3 1_555 1_555
In25_2 S36_2 1_555 1_555
S30_3 In32_3 1_555 1_555
S31_3 In26_3 1_555 1_555
S33_2 In27_2 1_555 1_555
S35_3 In31_3 1_555 1_555
S35_3 In33_3 1_555 1_555
In27_2 S38_2 1_555 1_555
In31_3 S37_3 1_555 1_555
S46_3 In35_2 1_555 1_555
S48_3 In35_2 1_555 1_555
S17_3 In11_3 1_555 1_555
N1_3 In18_3 1_555 1_555
C1_3 N1_3 1_555 1_555
C2_3 N1_3 1_555 1_555
N5_2 C1_3 1_555 1_555
C3_3 C2_3 1_555 1_555
In11_3 S39_3 1_555 1_555
S17_3 In18_3 1_555 1_555
N5_2 C3_3 1_555 1_555
C1_3 H1_3 1_555 1_555
C2_3 H2_3 1_555 1_555
C3_3 H3_3 1_555 1_555
S41_3 In28_3 1_555 1_555
N3_3 In34_3 1_555 1_555
C4_3 N3_3 1_555 1_555
C5_3 N3_3 1_555 1_555
N4_2 C4_3 1_555 1_555
C6_3 C5_3 1_555 1_555
In36_2 N4_2 1_555 1_555
S15_3 In28_3 1_555 1_555
S41_3 In34_3 1_555 1_555
N4_2 C6_3 1_555 1_555
C5_3 H4_3 1_555 1_555
C6_3 H5_3 1_555 1_555
C4_3 H6_3 1_555 1_555
In1_4 O1_3 1_555 1_555
O1_3 In2_3 1_555 1_555
O2_3 In1_4 1_555 1_555
In2_3 S1_3 1_555 1_555
In4_3 O1_3 1_555 1_555
In5_2 O2_3 1_555 1_555
In6_3 O2_3 1_555 1_555
S1_3 In4_3 1_555 1_555
O3_2 In2_3 1_555 1_555
S3_2 In2_3 1_555 1_555
S6_3 In4_3 1_555 1_555
O4_3 In4_3 1_555 1_555
S7_3 In5_2 1_555 1_555
S9_2 In5_2 1_555 1_555
S10_3 In6_3 1_555 1_555
S11_3 In6_3 1_555 1_555
In8_3 S1_3 1_555 1_555
In10_2 S3_2 1_555 1_555
In14_3 S6_3 1_555 1_555
In15_3 S6_3 1_555 1_555
In16_4 S10_3 1_555 1_555
In17_3 S11_3 1_555 1_555
S13_3 In8_3 1_555 1_555
S14_2 In8_3 1_555 1_555
S16_2 In10_2 1_555 1_555
S21_3 In14_3 1_555 1_555
S22_3 In15_3 1_555 1_555
S24_3 In17_3 1_555 1_555
In36_2 S21_3 1_555 1_555
In25_3 O4_3 1_555 1_555
S36_3 In15_3 1_555 1_555
In29_2 S9_2 1_555 1_555
S47_3 In16_4 1_555 1_555
In5_2 O3_2 1_555 1_555
In6_3 O4_3 1_555 1_555
In6_3 S7_3 1_555 1_555
S7_3 In8_3 1_555 1_555
S9_2 In10_2 1_555 1_555
S11_3 In14_3 1_555 1_555
In10_2 S14_2 1_555 1_555
In14_3 S13_3 1_555 1_555
In17_3 S36_3 1_555 1_555
In17_3 S47_3 1_555 1_555
S22_3 In36_2 1_555 1_555
S24_3 In36_2 1_555 1_555
In25_3 S36_3 1_555 1_555
In29_2 S43_2 1_555 1_555
S8_3 In5_3 1_555 1_555
S9_3 In5_3 1_555 1_555
In10_3 S3_3 1_555 1_555
S16_3 In10_3 1_555 1_555
In21_3 O3_3 1_555 1_555
S29_3 In21_3 1_555 1_555
In29_3 S9_3 1_555 1_555
In30_3 S8_3 1_555 1_555
S42_3 In29_3 1_555 1_555
S44_3 In30_3 1_555 1_555
In5_3 O3_3 1_555 1_555
S9_3 In10_3 1_555 1_555
In10_3 S14_3 1_555 1_555
In21_3 S26_3 1_555 1_555
In21_3 S28_3 1_555 1_555
S28_3 In29_3 1_555 1_555
S29_3 In30_3 1_555 1_555
In29_3 S43_3 1_555 1_555
In30_3 S42_3 1_555 1_555
S4_3 In3_3 1_555 1_555
S5_3 In3_3 1_555 1_555
In13_3 S5_3 1_555 1_555
S20_3 In13_3 1_555 1_555
S32_3 In13_3 1_555 1_555
In3_3 S2_3 1_555 1_555
In13_3 S18_3 1_555 1_555
S19_3 In12_3 1_555 1_555
S33_3 In12_3 1_555 1_555
In27_3 S27_3 1_555 1_555
S40_3 In27_3 1_555 1_555
In23_3 O7_3 1_555 1_555
In23_3 S33_3 1_555 1_555
S33_3 In27_3 1_555 1_555
In27_3 S38_3 1_555 1_555

#END
