
###############################################################################
#
# This file contains modified crystal structure data generated from the
# MOF subset of the Cambridge Structural Database (CSD) v543 
# hosted by the Cambridge Crystallographic Data Centre (CCDC).
#
# This work is licensed under the Creative Commons
# Attribution-NonCommercial-ShareAlike 4.0 International License.
# To view a copy of this license, visit
# http://creativecommons.org/licenses/by-nc-sa/4.0/
# or send a letter to
# Creative Commons, PO Box 1866, Mountain View, CA 94042, USA.
#
# CIF created using the CSD Python API on 29 September 2022
# The structure has been converted into the P1 space group
# The structure has a 3D framework
# The original CSD entry SINWAQ is in the trigonal crystal system
# The original CSD entry SINWAQ is in a Sohncke space group
# The framework has been calculated to contain at least 10.0% void space
# The void calculation uses a probe of radius 1.32A, grid spacing 0.4
# The framework is charged, counterions have been retained in the structure
# H atom positions have been added when not included in the experimental data
#
###############################################################################

data_SINWAQ
_chemical_formula_moiety         '(C18 H18 In108 N12 O24 S144 27-)n'
_symmetry_cell_setting           triclinic
_symmetry_space_group_name_H-M   'P 1'
_symmetry_Int_Tables_number      1
_space_group_name_Hall           'P 1'
loop_
_symmetry_equiv_pos_site_id
_symmetry_equiv_pos_as_xyz
1 x,y,z
_cell_length_a                   21.5809(19)
_cell_length_b                   21.5809(19)
_cell_length_c                   41.108(4)
_cell_angle_alpha                90
_cell_angle_beta                 90
_cell_angle_gamma                120
_cell_volume                     16580.4
loop_
_atom_site_label
_atom_site_type_symbol
_atom_site_fract_x
_atom_site_fract_y
_atom_site_fract_z
In6 In 0.18887(15) 0.05065(21) 0.63122(6)
In9 In 0.03108(10) 0.06216(14) 0.6667
S10 S 0.1508(5) 0.1338(8) 0.6481(2)
S11 S 0.3101(5) 0.1257(8) 0.6132(2)
In16 In 0.34161(15) 0.03978(22) 0.59632(6)
N6 N 0.4484(15) 0.1077(21) 0.5777(6)
In9_2 In 0.93784(14) 0.96892(17) 0.0000
In24 In 0.94935(21) 0.81113(33) 0.03545(6)
S34 S 0.8662(8) 0.8492(12) 0.0186(2)
S35 S 0.8743(8) 0.6899(12) 0.0535(2)
In33 In 0.96022(22) 0.65839(35) 0.07035(6)
N5 N 0.8923(21) 0.5516(26) 0.0890(6)
In1 In 0.89994(20) 0.01210(14) 0.27605(6)
O1 O 0.9379(15) 0.1220(10) 0.2950(4)
S1 S 0.8982(7) 0.0708(5) 0.2238(2)
In2 In 0.94061(21) 0.18687(14) 0.25296(5)
In3 In 0.87584(22) 0.12414(10) 0.3334
In5 In 0.77240(21) 0.02038(15) 0.20401(6)
S5 S 0.9472(7) 0.2601(5) 0.2037(2)
O3 O 0.8746(16) 0.2083(11) 0.2822(4)
O4 O 0.7660(16) 0.0792(11) 0.3182(4)
S7 S 0.6994(7) 0.0242(5) 0.2500(2)
S8 S 0.7706(8) 0.0935(5) 0.1609(2)
In11 In 0.82169(21) 0.21211(14) 0.18313(6)
In12 In 0.99295(21) 0.38713(15) 0.22094(6)
In13 In 0.76131(20) 0.14517(14) 0.27657(5)
In14 In 0.91705(24) 0.30181(20) 0.31056(6)
S17 S 0.7455(7) 0.2108(5) 0.2292(2)
S18 S 0.8222(8) 0.2830(6) 0.1373(2)
S19 S 0.9894(9) 0.4626(6) 0.1786(3)
S20 S 0.9185(9) 0.3866(7) 0.2679(2)
S21 S 0.6743(7) 0.1528(5) 0.3145(2)
In17 In 0.79381(21) 0.33900(15) 0.24761(6)
In18 In 0.86374(23) 0.39633(16) 0.16332(6)
In19 In 0.72122(22) 0.27882(10) 0.3334
S23 S 0.7215(8) 0.3506(6) 0.2885(2)
S24 S 0.7848(8) 0.4045(6) 0.2021(2)
N1 N 0.8592(21) 0.4605(15) 0.1232(6)
C1 C 0.804(3) 0.448(2) 0.1047(9)
C2 C 0.9142(28) 0.5292(19) 0.1140(8)
C3 C 0.8204(28) 0.502(2) 0.0835(8)
In20 In 0.98790(24) 0.10006(20) 0.39062(6)
O5 O 0.8780(19) 0.0621(15) 0.3717(4)
S25 S 0.9292(9) 0.1018(7) 0.4429(2)
In21 In 0.81313(26) 0.05939(21) 0.41371(5)
In23 In 0.97962(26) 0.22760(21) 0.46266(6)
S29 S 0.7399(9) 0.0528(7) 0.4630(2)
O7 O 0.7917(19) 0.1254(16) 0.3845(4)
O8 O 0.9208(19) 0.2340(16) 0.3485(4)
S31 S 0.9758(9) 0.3006(7) 0.4167(2)
S32 S 0.9065(10) 0.2294(8) 0.5058(2)
In28 In 0.78789(26) 0.17831(21) 0.48354(6)
In29 In 0.61287(26) 0.00705(21) 0.44573(6)
In30 In 0.85483(24) 0.23869(20) 0.39010(5)
In31 In 0.69819(28) 0.08295(24) 0.35611(6)
S41 S 0.7892(9) 0.2545(7) 0.4375(2)
S42 S 0.7170(10) 0.1778(8) 0.5294(2)
S43 S 0.5374(11) 0.0106(9) 0.4881(3)
S44 S 0.6134(10) 0.0815(9) 0.3988(2)
S45 S 0.8472(9) 0.3257(7) 0.3522(2)
In34 In 0.66100(26) 0.20619(21) 0.41906(6)
In35 In 0.60367(28) 0.13626(23) 0.50335(6)
S47 S 0.6494(10) 0.2785(8) 0.3782(2)
S48 S 0.5955(10) 0.2152(8) 0.4646(2)
N3 N 0.5395(26) 0.1408(21) 0.5435(6)
C4 C 0.552(4) 0.196(3) 0.5620(9)
C5 C 0.4708(34) 0.0858(28) 0.5527(8)
C6 C 0.4980(34) 0.1796(28) 0.5832(8)
H1 H 0.966351 0.558967 0.125622
H2 H 0.784886 0.505904 0.0658094
H3 H 0.75159 0.399965 0.106302
H4 H 0.494096 0.215114 0.600857
H5 H 0.600035 0.24841 0.560365
H6 H 0.441033 0.0336489 0.541045
S2 S 0.1104(5) 0.9719(7) 0.5864(2)
O2 O 0.0187(11) 0.8391(11) 0.6438(4)
In7 In 0.16299(15) 0.89770(21) 0.56669(6)
In8 In 0.02926(14) 0.75001(14) 0.63334(5)
S9 S 0.1002(6) 0.8283(6) 0.5192(2)
S12 S 0.1570(5) 0.8179(7) 0.6124(2)
S13 S 0.2841(6) 0.9703(8) 0.5476(2)
S14 S 0.0462(7) 0.6753(5) 0.6747(2)
S27 S 0.0268(9) 0.9823(5) 0.7119(2)
In22 In 0.05219(24) 0.88801(14) 0.69091(6)
S28 S 0.0728(7) 0.8279(5) 0.7389(2)
S30 S 0.1829(9) 0.9723(5) 0.6774(2)
In27 In 0.12311(21) 0.75136(16) 0.72044(6)
In32 In 0.23423(33) 0.89730(21) 0.65766(6)
S39 S 0.2441(7) 0.8268(5) 0.7011(2)
S40 S 0.1168(8) 0.6753(6) 0.7643(2)
S46 S 0.3561(12) 0.9702(8) 0.6394(2)
In24_2 In 0.86178(26) 0.05065(21) 0.70211(6)
S34_2 S 0.9830(9) 0.1338(8) 0.6852(2)
S35_2 S 0.8156(9) 0.1257(8) 0.7201(2)
In33_2 In 0.69817(27) 0.03978(22) 0.73701(6)
N5_2 N 0.6593(15) 0.1077(21) 0.7556(6)
In1_2 In 0.11216(14) 0.10006(20) 0.94271(6)
O1_2 O 0.1841(11) 0.0621(15) 0.9616(4)
S1_2 S 0.1726(5) 0.1018(7) 0.8904(2)
S2_2 S 0.0281(7) 0.1385(9) 0.9197(2)
O2_2 O 0.1609(11) 0.1796(16) 0.9771(4)
In2_2 In 0.24626(15) 0.05939(21) 0.91962(5)
In5_2 In 0.24798(15) 0.22760(21) 0.87067(6)
In7_2 In 0.10230(21) 0.26529(26) 0.90002(6)
In8_2 In 0.24999(14) 0.27925(20) 0.96667(5)
S5_2 S 0.3129(5) 0.0528(7) 0.8703(2)
O3_2 O 0.3337(11) 0.1254(16) 0.9488(4)
O4_2 O 0.3132(11) 0.2340(16) 0.9848(4)
S7_2 S 0.3248(5) 0.3006(7) 0.9166(2)
S8_2 S 0.3229(6) 0.2294(8) 0.8275(2)
S9_2 S 0.1717(6) 0.2719(8) 0.8525(2)
S12_2 S 0.1821(7) 0.3391(9) 0.9457(2)
S13_2 S 0.0297(8) 0.3138(10) 0.8809(2)
In11_2 In 0.39042(15) 0.17831(21) 0.84979(6)
In12_2 In 0.39418(15) 0.00705(21) 0.88760(6)
In13_2 In 0.38386(14) 0.23869(20) 0.94323(5)
In14_2 In 0.38476(14) 0.08295(24) 0.97722(6)
S17_2 S 0.4653(5) 0.2545(7) 0.8958(2)
S18_2 S 0.4608(6) 0.1778(8) 0.8039(2)
S19_2 S 0.4732(7) 0.0106(9) 0.8452(3)
S20_2 S 0.4681(5) 0.0815(9) 0.9345(2)
S21_2 S 0.4785(5) 0.3257(7) 0.9811(2)
In17_2 In 0.54519(15) 0.20619(21) 0.91427(6)
In18_2 In 0.53259(16) 0.13626(23) 0.82998(6)
S23_2 S 0.6291(6) 0.2785(8) 0.9551(2)
S24_2 S 0.6197(6) 0.2152(8) 0.8687(2)
N1_2 N 0.6013(15) 0.1408(21) 0.7898(6)
C1_2 C 0.644(2) 0.196(3) 0.7713(9)
C2_2 C 0.615(2) 0.0858(28) 0.7806(8)
C3_2 C 0.6816(19) 0.1796(28) 0.7501(8)
In32_2 In 0.10270(21) 0.33693(39) 0.99100(6)
S46_2 S 0.0298(8) 0.3859(14) 0.9728(2)
H1_2 H 0.592616 0.0336489 0.792289
H2_2 H 0.721017 0.215114 0.732476
H3_2 H 0.648375 0.24841 0.772969
In3_2 In 0.2483(2) 0.12414(10) 1.0000
In19_2 In 0.5576(2) 0.27882(10) 1.0000
In1_3 In 0.98790(14) 0.88784(14) 0.60938(6)
O1_3 O 0.8780(10) 0.8159(11) 0.6283(4)
S1_3 S 0.9292(5) 0.8274(5) 0.5571(2)
S3 S 0.9555(7) 0.9823(5) 0.6214(2)
In2_3 In 0.81313(14) 0.75374(15) 0.58629(5)
In3_3 In 0.87586(10) 0.7517(2) 0.6667
In4 In 0.83582(19) 0.88801(14) 0.64242(6)
In5_3 In 0.97962(15) 0.75202(15) 0.53734(6)
S4 S 0.7551(5) 0.8279(5) 0.5944(2)
S5_3 S 0.7399(5) 0.6871(5) 0.5370(2)
O3_3 O 0.7917(11) 0.6663(11) 0.6155(4)
O4_3 O 0.9208(11) 0.6868(11) 0.6515(4)
S6 S 0.7894(7) 0.9723(5) 0.6559(2)
S7_3 S 0.9758(5) 0.6752(5) 0.5833(2)
S8_3 S 0.9065(5) 0.6771(6) 0.4942(2)
In10 In 0.62825(14) 0.75136(16) 0.61289(6)
In11_3 In 0.78789(14) 0.60958(15) 0.51646(6)
In12_3 In 0.61287(15) 0.60582(15) 0.55427(6)
In13_3 In 0.85483(14) 0.61614(14) 0.60990(5)
In14_3 In 0.69819(20) 0.61524(14) 0.64389(6)
In15 In 0.66307(25) 0.89730(21) 0.67567(6)
S15 S 0.5827(5) 0.8268(5) 0.6322(2)
S16 S 0.5585(5) 0.6753(6) 0.5690(2)
S17_3 S 0.7892(5) 0.5347(5) 0.5625(2)
S18_3 S 0.7170(6) 0.5392(6) 0.4706(2)
S19_3 S 0.5374(6) 0.5268(7) 0.5119(3)
S20_3 S 0.6134(7) 0.5319(5) 0.6012(2)
S21_3 S 0.8472(5) 0.5215(5) 0.6478(2)
S22 S 0.6141(9) 0.9702(8) 0.6939(2)
In17_3 In 0.66100(15) 0.45481(15) 0.58094(6)
In18_3 In 0.60367(16) 0.46741(16) 0.49665(6)
In19_3 In 0.72118(10) 0.4424(2) 0.6667
S23_3 S 0.6494(6) 0.3709(6) 0.6218(2)
S24_3 S 0.5955(6) 0.3803(6) 0.5354(2)
N1_3 N 0.5395(15) 0.3987(15) 0.4565(6)
C1_3 C 0.552(2) 0.356(2) 0.4380(9)
C2_3 C 0.4708(19) 0.385(2) 0.4473(8)
C3_3 C 0.498(2) 0.3184(19) 0.4168(8)
N2 N 0.4484(15) 0.3407(15) 0.4223(6)
In20_2 In 0.89994(20) 0.88784(14) 0.72395(6)
O5_2 O 0.9379(15) 0.8159(11) 0.7050(4)
S25_2 S 0.8982(7) 0.8274(5) 0.7762(2)
S26 S 0.8615(9) 0.9719(7) 0.7469(2)
O6 O 0.8204(16) 0.8391(11) 0.6895(4)
In21_2 In 0.94061(21) 0.75374(15) 0.74704(5)
In23_2 In 0.77240(21) 0.75202(15) 0.79599(6)
In25 In 0.73471(26) 0.89770(21) 0.76664(6)
In26 In 0.72075(20) 0.75001(14) 0.69999(5)
S29_2 S 0.9472(7) 0.6871(5) 0.7963(2)
O7_2 O 0.8746(16) 0.6663(11) 0.7178(4)
O8_2 O 0.7660(16) 0.6868(11) 0.6818(4)
S31_2 S 0.6994(7) 0.6752(5) 0.7500(2)
S32_2 S 0.7706(8) 0.6771(6) 0.8391(2)
S33 S 0.7281(8) 0.8283(6) 0.8141(2)
S36 S 0.6609(9) 0.8179(7) 0.7209(2)
S37 S 0.6862(10) 0.9703(8) 0.7857(2)
S38 S 0.6291(9) 0.6753(5) 0.6586(2)
In28_2 In 0.82169(21) 0.60958(15) 0.81687(6)
In29_2 In 0.99295(21) 0.60582(15) 0.77906(6)
In30_2 In 0.76131(20) 0.61614(14) 0.72343(5)
In31_2 In 0.91705(24) 0.61524(14) 0.68944(6)
S41_2 S 0.7455(7) 0.5347(5) 0.7708(2)
S42_2 S 0.8222(8) 0.5392(6) 0.8627(2)
S43_2 S 0.9894(9) 0.5268(7) 0.8214(3)
S44_2 S 0.9185(9) 0.5319(5) 0.7321(2)
S45_2 S 0.6743(7) 0.5215(5) 0.6855(2)
In34_2 In 0.79381(21) 0.45481(15) 0.75239(6)
In35_2 In 0.86374(23) 0.46741(16) 0.83668(6)
S47_2 S 0.7215(8) 0.3709(6) 0.7115(2)
S48_2 S 0.7848(8) 0.3803(6) 0.7979(2)
N3_2 N 0.8592(21) 0.3987(15) 0.8768(6)
C4_2 C 0.804(3) 0.356(2) 0.8953(9)
C5_2 C 0.9142(28) 0.385(2) 0.8860(8)
C6_2 C 0.8204(28) 0.3184(19) 0.9165(8)
N4 N 0.8923(21) 0.3407(15) 0.9110(6)
In36 In 0.96022(22) 0.30183(27) 0.92965(6)
In37 In 0.34161(15) 0.30183(27) 0.40368(6)
H1_3 H 0.441033 0.407384 0.458955
H2_3 H 0.494096 0.278983 0.399143
H3_3 H 0.600035 0.351625 0.439635
H4_2 H 0.784886 0.278983 0.934191
H5_2 H 0.75159 0.351625 0.893698
H6_2 H 0.966351 0.407384 0.874378
In6_2 In 0.94935(21) 0.13822(26) 0.96455(6)
S10_2 S 0.8662(8) 0.0170(9) 0.9814(2)
S11_2 S 0.8743(8) 0.1844(9) 0.9465(2)
S3_2 S 0.0268(9) 0.0445(7) 0.2881(2)
In4_2 In 0.05219(24) 0.16418(19) 0.30909(6)
S4_2 S 0.0728(7) 0.2449(5) 0.2611(2)
S6_2 S 0.1829(9) 0.2106(7) 0.3226(2)
In10_2 In 0.12311(21) 0.37175(14) 0.27956(6)
In15_2 In 0.23423(33) 0.33693(25) 0.34234(6)
S15_2 S 0.2441(7) 0.4173(5) 0.2989(2)
S16_2 S 0.1168(8) 0.4415(5) 0.2357(2)
S22_2 S 0.3561(12) 0.3859(9) 0.3606(2)
S26_2 S 0.1104(11) 0.1385(9) 0.4136(2)
O6_2 O 0.0187(19) 0.1796(16) 0.3562(4)
In24_3 In 0.18887(33) 0.13822(26) 0.36878(6)
In25_2 In 0.16299(33) 0.26529(26) 0.43331(6)
In26_2 In 0.02926(24) 0.27925(20) 0.36666(5)
S33_2 S 0.1002(10) 0.2719(8) 0.4808(2)
S34_3 S 0.1508(12) 0.0170(9) 0.3519(2)
S35_3 S 0.3101(12) 0.1844(9) 0.3868(2)
S36_2 S 0.1570(11) 0.3391(9) 0.3876(2)
S37_2 S 0.2841(13) 0.3138(10) 0.4524(2)
S38_2 S 0.0462(10) 0.3709(9) 0.3253(2)
In3_4 In 0.2483(2) 0.12416(22) 0.0000
S14_2 S 0.3247(5) 0.3709(9) 0.0080(2)
In19_4 In 0.5576(2) 0.27878(22) 0.0000
In20_3 In 0.11216(14) 0.01210(24) 0.05729(6)
O5_3 O 0.1841(11) 0.1220(19) 0.0384(4)
S25_3 S 0.1726(5) 0.0708(9) 0.1096(2)
S27_2 S 0.0177(5) 0.0445(10) 0.0453(2)
In21_3 In 0.24626(15) 0.18687(26) 0.08038(5)
In22_2 In 0.11199(14) 0.16418(28) 0.02425(6)
In23_3 In 0.24798(15) 0.02038(26) 0.12933(6)
S28_2 S 0.1721(5) 0.2449(9) 0.0723(2)
S29_3 S 0.3129(5) 0.2601(9) 0.1297(2)
O7_3 O 0.3337(11) 0.2083(19) 0.0512(4)
O8_3 O 0.3132(11) 0.0792(19) 0.0152(4)
S30_2 S 0.0277(5) 0.2106(10) 0.0108(2)
S31_3 S 0.3248(5) 0.0242(9) 0.0834(2)
S32_3 S 0.3229(6) 0.0935(10) 0.1725(2)
In27_2 In 0.24864(16) 0.37175(26) 0.05378(6)
In28_3 In 0.39042(15) 0.21211(26) 0.15021(6)
In29_3 In 0.39418(15) 0.38713(26) 0.11240(6)
In30_3 In 0.38386(14) 0.14517(24) 0.05677(5)
In31_3 In 0.38476(14) 0.30181(28) 0.02278(6)
S39_2 S 0.1732(5) 0.4173(9) 0.0345(2)
S40_2 S 0.3247(6) 0.4415(10) 0.0977(2)
S41_3 S 0.4653(5) 0.2108(9) 0.1042(2)
S42_3 S 0.4608(6) 0.2830(10) 0.1961(2)
S43_3 S 0.4732(7) 0.4626(11) 0.1548(3)
S44_3 S 0.4681(5) 0.3866(10) 0.0655(2)
S45_3 S 0.4785(5) 0.1528(9) 0.0189(2)
In34_3 In 0.54519(15) 0.33900(26) 0.08573(6)
In35_3 In 0.53259(16) 0.39633(28) 0.17002(6)
S47_3 S 0.6291(6) 0.3506(10) 0.0449(2)
S48_3 S 0.6197(6) 0.4045(10) 0.1313(2)
N3_3 N 0.6013(15) 0.4605(26) 0.2102(6)
C4_3 C 0.644(2) 0.448(4) 0.2287(9)
C5_3 C 0.615(2) 0.5292(34) 0.2194(8)
C6_3 C 0.6816(19) 0.5020(34) 0.2499(8)
N4_2 N 0.6593(15) 0.5516(26) 0.2444(6)
In36_2 In 0.69817(27) 0.65839(35) 0.26299(6)
H4_3 H 0.721017 0.505904 0.267524
H5_3 H 0.648375 0.399965 0.227031
H6_3 H 0.592616 0.558967 0.207711
S2_3 S 0.8615(9) 0.8896(5) 0.2531(2)
O2_3 O 0.8204(16) 0.9813(11) 0.3105(4)
In6_3 In 0.86178(26) 0.81113(15) 0.29789(6)
In7_3 In 0.73471(26) 0.83701(15) 0.23336(6)
In8_3 In 0.72075(20) 0.97074(14) 0.30001(5)
S9_3 S 0.7281(8) 0.8998(6) 0.1859(2)
S10_3 S 0.9830(9) 0.8492(5) 0.3148(2)
S11_3 S 0.8156(9) 0.6899(5) 0.2799(2)
S12_3 S 0.6609(9) 0.8430(5) 0.2791(2)
S13_3 S 0.6862(10) 0.7159(6) 0.2143(2)
S14_3 S 0.6291(9) 0.9538(7) 0.3414(2)
S27_3 S 0.9555(10) 0.9732(9) 0.3786(2)
In22_3 In 0.83582(28) 0.94781(24) 0.35758(6)
S28_3 S 0.7551(9) 0.9272(7) 0.4056(2)
S30_3 S 0.7894(10) 0.8171(9) 0.3441(2)
In27_3 In 0.62825(26) 0.87689(21) 0.38711(6)
In32_3 In 0.66307(39) 0.76577(33) 0.32433(6)
S39_3 S 0.5827(9) 0.7559(7) 0.3678(2)
S40_3 S 0.5585(10) 0.8832(8) 0.4310(2)
S46_3 S 0.6141(14) 0.6439(12) 0.3061(2)
In15_3 In 0.10270(21) 0.76577(33) 0.00900(6)
S22_3 S 0.0298(8) 0.6439(12) 0.0272(2)
S26_3 S 0.0281(7) 0.8896(11) 0.0803(2)
O6_3 O 0.1609(11) 0.9813(19) 0.0229(4)
In25_3 In 0.10230(21) 0.83701(33) 0.09998(6)
In26_3 In 0.24999(14) 0.97074(24) 0.03333(5)
S33_3 S 0.1717(6) 0.8998(10) 0.1475(2)
S36_3 S 0.1821(7) 0.8430(11) 0.0543(2)
S37_3 S 0.0297(8) 0.7159(13) 0.1191(2)
S3_3 S 0.0177(5) 0.9732(9) 0.9547(2)
In4_3 In 0.11199(14) 0.94781(24) 0.97575(6)
S4_3 S 0.1721(5) 0.9272(7) 0.9277(2)
S6_3 S 0.0277(5) 0.8171(9) 0.9892(2)
In10_3 In 0.24864(16) 0.87689(21) 0.94622(6)
S15_3 S 0.1732(5) 0.7559(7) 0.9655(2)
S16_3 S 0.3247(6) 0.8832(8) 0.9023(2)
S38_3 S 0.3247(5) 0.9538(10) 0.9920(2)
In9_3 In 0.03108(17) 0.96892(10) 0.3334
In9_4 In 0.93784(14) 0.96892(10) 1.0000
loop_
_geom_bond_atom_site_label_1
_geom_bond_atom_site_label_2
_geom_bond_site_symmetry_1
_geom_bond_site_symmetry_2
S10 In6 1_555 1_555
S11 In6 1_555 1_555
In16 S11 1_555 1_555
N6 In16 1_555 1_555
In9 S10 1_555 1_555
S34 In9_2 1_555 1_555
S35 In24 1_555 1_555
N5 In33 1_555 1_555
In24 S34 1_555 1_555
S35 In33 1_555 1_555
In1 O1 1_555 1_555
O1 In2 1_555 1_555
S1 In1 1_555 1_555
In2 S1 1_555 1_555
In3 O1 1_555 1_555
In5 S1 1_555 1_555
S5 In2 1_555 1_555
O3 In2 1_555 1_555
O4 In3 1_555 1_555
S7 In5 1_555 1_555
S8 In5 1_555 1_555
In11 S5 1_555 1_555
In12 S5 1_555 1_555
In13 O3 1_555 1_555
In14 O3 1_555 1_555
S17 In11 1_555 1_555
S18 In11 1_555 1_555
S19 In12 1_555 1_555
S20 In12 1_555 1_555
S21 In13 1_555 1_555
In17 S17 1_555 1_555
In18 S18 1_555 1_555
In19 S21 1_555 1_555
S23 In17 1_555 1_555
S24 In17 1_555 1_555
N1 In18 1_555 1_555
C1 N1 1_555 1_555
C2 N1 1_555 1_555
C3 C1 1_555 1_555
N5 C2 1_555 1_555
In20 O5 1_555 1_555
O5 In3 1_555 1_555
S25 In20 1_555 1_555
In21 O5 1_555 1_555
In23 S25 1_555 1_555
S29 In21 1_555 1_555
O7 In21 1_555 1_555
O8 In3 1_555 1_555
S31 In23 1_555 1_555
S32 In23 1_555 1_555
In28 S29 1_555 1_555
In29 S29 1_555 1_555
In30 O7 1_555 1_555
In31 O4 1_555 1_555
S41 In28 1_555 1_555
S42 In28 1_555 1_555
S43 In29 1_555 1_555
S44 In29 1_555 1_555
S45 In14 1_555 1_555
In34 S41 1_555 1_555
In35 S42 1_555 1_555
S47 In19 1_555 1_555
S48 In34 1_555 1_555
N3 In35 1_555 1_555
C4 N3 1_555 1_555
C5 N3 1_555 1_555
C6 C4 1_555 1_555
N6 C5 1_555 1_555
O4 In13 1_555 1_555
S7 In13 1_555 1_555
S8 In11 1_555 1_555
In13 S17 1_555 1_555
In14 S20 1_555 1_555
In14 O8 1_555 1_555
S19 In18 1_555 1_555
S20 In17 1_555 1_555
S21 In31 1_555 1_555
In18 S24 1_555 1_555
In19 S23 1_555 1_555
In19 S45 1_555 1_555
C3 N5 1_555 1_555
S25 In21 1_555 1_555
O7 In31 1_555 1_555
O8 In30 1_555 1_555
S31 In30 1_555 1_555
S32 In28 1_555 1_555
In30 S41 1_555 1_555
In30 S45 1_555 1_555
In31 S44 1_555 1_555
S43 In35 1_555 1_555
S44 In34 1_555 1_555
In34 S47 1_555 1_555
In35 S48 1_555 1_555
C6 N6 1_555 1_555
C2 H1 1_555 1_555
C3 H2 1_555 1_555
C1 H3 1_555 1_555
C6 H4 1_555 1_555
C4 H5 1_555 1_555
C5 H6 1_555 1_555
In7 S2 1_555 1_555
In8 O2 1_555 1_555
S12 In7 1_555 1_555
S13 In7 1_555 1_555
S14 In8 1_555 1_555
In22 O2 1_555 1_555
In27 S14 1_555 1_555
In32 S12 1_555 1_555
S39 In27 1_555 1_555
S40 In27 1_555 1_555
In7 S9 1_555 1_555
In8 S12 1_555 1_555
S27 In22 1_555 1_555
In22 S28 1_555 1_555
In22 S30 1_555 1_555
S28 In27 1_555 1_555
S30 In32 1_555 1_555
In32 S39 1_555 1_555
In32 S46 1_555 1_555
S35_2 In24_2 1_555 1_555
N5_2 In33_2 1_555 1_555
In24_2 S34_2 1_555 1_555
S35_2 In33_2 1_555 1_555
In1_2 O1_2 1_555 1_555
O1_2 In2_2 1_555 1_555
S1_2 In1_2 1_555 1_555
S2_2 In1_2 1_555 1_555
O2_2 In1_2 1_555 1_555
In2_2 S1_2 1_555 1_555
In5_2 S1_2 1_555 1_555
In7_2 S2_2 1_555 1_555
In8_2 O2_2 1_555 1_555
S5_2 In2_2 1_555 1_555
O3_2 In2_2 1_555 1_555
S7_2 In5_2 1_555 1_555
S8_2 In5_2 1_555 1_555
S9_2 In5_2 1_555 1_555
S12_2 In7_2 1_555 1_555
S13_2 In7_2 1_555 1_555
In11_2 S5_2 1_555 1_555
In12_2 S5_2 1_555 1_555
In13_2 O3_2 1_555 1_555
In14_2 O3_2 1_555 1_555
S17_2 In11_2 1_555 1_555
S18_2 In11_2 1_555 1_555
S19_2 In12_2 1_555 1_555
S20_2 In12_2 1_555 1_555
S21_2 In13_2 1_555 1_555
In17_2 S17_2 1_555 1_555
In18_2 S18_2 1_555 1_555
S23_2 In17_2 1_555 1_555
S24_2 In17_2 1_555 1_555
N1_2 In18_2 1_555 1_555
C1_2 N1_2 1_555 1_555
C2_2 N1_2 1_555 1_555
C3_2 C1_2 1_555 1_555
N5_2 C2_2 1_555 1_555
In32_2 S12_2 1_555 1_555
In7_2 S9_2 1_555 1_555
In8_2 O4_2 1_555 1_555
In8_2 S7_2 1_555 1_555
In8_2 S12_2 1_555 1_555
O4_2 In13_2 1_555 1_555
S7_2 In13_2 1_555 1_555
S8_2 In11_2 1_555 1_555
In13_2 S17_2 1_555 1_555
In14_2 S20_2 1_555 1_555
S19_2 In18_2 1_555 1_555
S20_2 In17_2 1_555 1_555
In18_2 S24_2 1_555 1_555
C3_2 N5_2 1_555 1_555
In32_2 S46_2 1_555 1_555
C2_2 H1_2 1_555 1_555
C3_2 H2_2 1_555 1_555
C1_2 H3_2 1_555 1_555
O1_2 In3_2 1_555 1_555
O4_2 In3_2 1_555 1_555
S23_2 In19_2 1_555 1_555
In19_2 S21_2 1_555 1_555
In1_3 O1_3 1_555 1_555
O1_3 In2_3 1_555 1_555
S1_3 In1_3 1_555 1_555
S3 In1_3 1_555 1_555
In2_3 S1_3 1_555 1_555
In3_3 O1_3 1_555 1_555
In4 O1_3 1_555 1_555
In5_3 S1_3 1_555 1_555
S4 In2_3 1_555 1_555
S5_3 In2_3 1_555 1_555
O3_3 In2_3 1_555 1_555
O4_3 In3_3 1_555 1_555
S6 In4 1_555 1_555
S7_3 In5_3 1_555 1_555
S8_3 In5_3 1_555 1_555
In10 S4 1_555 1_555
In11_3 S5_3 1_555 1_555
In12_3 S5_3 1_555 1_555
In13_3 O3_3 1_555 1_555
In14_3 O3_3 1_555 1_555
In15 S6 1_555 1_555
S15 In10 1_555 1_555
S16 In10 1_555 1_555
S17_3 In11_3 1_555 1_555
S18_3 In11_3 1_555 1_555
S19_3 In12_3 1_555 1_555
S20_3 In12_3 1_555 1_555
S21_3 In13_3 1_555 1_555
S22 In15 1_555 1_555
In17_3 S17_3 1_555 1_555
In18_3 S18_3 1_555 1_555
In19_3 S21_3 1_555 1_555
S23_3 In17_3 1_555 1_555
S24_3 In17_3 1_555 1_555
N1_3 In18_3 1_555 1_555
C1_3 N1_3 1_555 1_555
C2_3 N1_3 1_555 1_555
C3_3 C1_3 1_555 1_555
N2 C2_3 1_555 1_555
In20_2 O5_2 1_555 1_555
O5_2 In3_3 1_555 1_555
S25_2 In20_2 1_555 1_555
S26 In20_2 1_555 1_555
O6 In4 1_555 1_555
In21_2 O5_2 1_555 1_555
In23_2 S25_2 1_555 1_555
In25 S26 1_555 1_555
In26 O6 1_555 1_555
S29_2 In21_2 1_555 1_555
O7_2 In21_2 1_555 1_555
O8_2 In3_3 1_555 1_555
S31_2 In23_2 1_555 1_555
S32_2 In23_2 1_555 1_555
S33 In23_2 1_555 1_555
S36 In15 1_555 1_555
S37 In25 1_555 1_555
S38 In10 1_555 1_555
In28_2 S29_2 1_555 1_555
In29_2 S29_2 1_555 1_555
In30_2 O7_2 1_555 1_555
In31_2 O4_3 1_555 1_555
S41_2 In28_2 1_555 1_555
S42_2 In28_2 1_555 1_555
S43_2 In29_2 1_555 1_555
S44_2 In29_2 1_555 1_555
S45_2 In14_3 1_555 1_555
In34_2 S41_2 1_555 1_555
In35_2 S42_2 1_555 1_555
S47_2 In19_3 1_555 1_555
S48_2 In34_2 1_555 1_555
N3_2 In35_2 1_555 1_555
C4_2 N3_2 1_555 1_555
C5_2 N3_2 1_555 1_555
C6_2 C4_2 1_555 1_555
N4 C5_2 1_555 1_555
In36 N4 1_555 1_555
In37 N2 1_555 1_555
S3 In4 1_555 1_555
In4 S4 1_555 1_555
O4_3 In13_3 1_555 1_555
S7_3 In13_3 1_555 1_555
S8_3 In11_3 1_555 1_555
In12_3 S16 1_555 1_555
In13_3 S17_3 1_555 1_555
In14_3 S20_3 1_555 1_555
In14_3 O8_2 1_555 1_555
In14_3 S38 1_555 1_555
In15 S15 1_555 1_555
S19_3 In18_3 1_555 1_555
S20_3 In17_3 1_555 1_555
S21_3 In31_2 1_555 1_555
In18_3 S24_3 1_555 1_555
In19_3 S23_3 1_555 1_555
In19_3 S45_2 1_555 1_555
C3_3 N2 1_555 1_555
In20_2 O6 1_555 1_555
S25_2 In21_2 1_555 1_555
In25 S33 1_555 1_555
In25 S36 1_555 1_555
In26 O8_2 1_555 1_555
In26 S31_2 1_555 1_555
In26 S36 1_555 1_555
In26 S38 1_555 1_555
O7_2 In31_2 1_555 1_555
O8_2 In30_2 1_555 1_555
S31_2 In30_2 1_555 1_555
S32_2 In28_2 1_555 1_555
In30_2 S41_2 1_555 1_555
In30_2 S45_2 1_555 1_555
In31_2 S44_2 1_555 1_555
S43_2 In35_2 1_555 1_555
S44_2 In34_2 1_555 1_555
In34_2 S47_2 1_555 1_555
In35_2 S48_2 1_555 1_555
C6_2 N4 1_555 1_555
C2_3 H1_3 1_555 1_555
C3_3 H2_3 1_555 1_555
C1_3 H3_3 1_555 1_555
C6_2 H4_2 1_555 1_555
C4_2 H5_2 1_555 1_555
C5_2 H6_2 1_555 1_555
S10_2 In6_2 1_555 1_555
S11_2 In6_2 1_555 1_555
In36 S11_2 1_555 1_555
S6_2 In4_2 1_555 1_555
In10_2 S4_2 1_555 1_555
In15_2 S6_2 1_555 1_555
S15_2 In10_2 1_555 1_555
S16_2 In10_2 1_555 1_555
S22_2 In15_2 1_555 1_555
O6_2 In4_2 1_555 1_555
In24_3 S6_2 1_555 1_555
In25_2 S26_2 1_555 1_555
In26_2 O6_2 1_555 1_555
S35_3 In24_3 1_555 1_555
S36_2 In15_2 1_555 1_555
S37_2 In25_2 1_555 1_555
S38_2 In10_2 1_555 1_555
In37 S22_2 1_555 1_555
S3_2 In4_2 1_555 1_555
In4_2 S4_2 1_555 1_555
In15_2 S15_2 1_555 1_555
S26_2 In24_3 1_555 1_555
In24_3 S34_3 1_555 1_555
In25_2 S33_2 1_555 1_555
In25_2 S36_2 1_555 1_555
In26_2 S36_2 1_555 1_555
In26_2 S38_2 1_555 1_555
S35_3 In37 1_555 1_555
S37_2 In37 1_555 1_555
In20_3 O5_3 1_555 1_555
O5_3 In3_4 1_555 1_555
S25_3 In20_3 1_555 1_555
In21_3 O5_3 1_555 1_555
In23_3 S25_3 1_555 1_555
S28_2 In21_3 1_555 1_555
S29_3 In21_3 1_555 1_555
O7_3 In21_3 1_555 1_555
O8_3 In3_4 1_555 1_555
S31_3 In23_3 1_555 1_555
S32_3 In23_3 1_555 1_555
In27_2 S14_2 1_555 1_555
In28_3 S29_3 1_555 1_555
In29_3 S29_3 1_555 1_555
In30_3 O7_3 1_555 1_555
S39_2 In27_2 1_555 1_555
S40_2 In27_2 1_555 1_555
S41_3 In28_3 1_555 1_555
S42_3 In28_3 1_555 1_555
S43_3 In29_3 1_555 1_555
S44_3 In29_3 1_555 1_555
In34_3 S41_3 1_555 1_555
In35_3 S42_3 1_555 1_555
S47_3 In19_4 1_555 1_555
S48_3 In34_3 1_555 1_555
N3_3 In35_3 1_555 1_555
C4_3 N3_3 1_555 1_555
C5_3 N3_3 1_555 1_555
C6_3 C4_3 1_555 1_555
N4_2 C5_3 1_555 1_555
In36_2 N4_2 1_555 1_555
S14_2 In31_3 1_555 1_555
In19_4 S45_3 1_555 1_555
In20_3 S27_2 1_555 1_555
O5_3 In22_2 1_555 1_555
S25_3 In21_3 1_555 1_555
S27_2 In22_2 1_555 1_555
In22_2 S28_2 1_555 1_555
In22_2 S30_2 1_555 1_555
S28_2 In27_2 1_555 1_555
O7_3 In31_3 1_555 1_555
O8_3 In30_3 1_555 1_555
S31_3 In30_3 1_555 1_555
S32_3 In28_3 1_555 1_555
In29_3 S40_2 1_555 1_555
In30_3 S41_3 1_555 1_555
In30_3 S45_3 1_555 1_555
In31_3 S44_3 1_555 1_555
S43_3 In35_3 1_555 1_555
S44_3 In34_3 1_555 1_555
In34_3 S47_3 1_555 1_555
In35_3 S48_3 1_555 1_555
C6_3 N4_2 1_555 1_555
C6_3 H4_3 1_555 1_555
C4_3 H5_3 1_555 1_555
C5_3 H6_3 1_555 1_555
In6_3 S2_3 1_555 1_555
In7_3 S2_3 1_555 1_555
In8_3 O2_3 1_555 1_555
S10_3 In6_3 1_555 1_555
S11_3 In6_3 1_555 1_555
S12_3 In7_3 1_555 1_555
S13_3 In7_3 1_555 1_555
S14_3 In8_3 1_555 1_555
In36_2 S11_3 1_555 1_555
In22_3 O2_3 1_555 1_555
S30_3 In6_3 1_555 1_555
In27_3 S14_3 1_555 1_555
In32_3 S12_3 1_555 1_555
S39_3 In27_3 1_555 1_555
S40_3 In27_3 1_555 1_555
S46_3 In36_2 1_555 1_555
In7_3 S9_3 1_555 1_555
In8_3 S12_3 1_555 1_555
S13_3 In36_2 1_555 1_555
S27_3 In22_3 1_555 1_555
In22_3 S28_3 1_555 1_555
In22_3 S30_3 1_555 1_555
S28_3 In27_3 1_555 1_555
S30_3 In32_3 1_555 1_555
In32_3 S39_3 1_555 1_555
In32_3 S46_3 1_555 1_555
S22_3 In15_3 1_555 1_555
In25_3 S26_3 1_555 1_555
In26_3 O6_3 1_555 1_555
S36_3 In15_3 1_555 1_555
S37_3 In25_3 1_555 1_555
In25_3 S33_3 1_555 1_555
In25_3 S36_3 1_555 1_555
In26_3 S36_3 1_555 1_555
S6_3 In4_3 1_555 1_555
In10_3 S4_3 1_555 1_555
S15_3 In10_3 1_555 1_555
S16_3 In10_3 1_555 1_555
S38_3 In10_3 1_555 1_555
S3_3 In4_3 1_555 1_555
In4_3 S4_3 1_555 1_555

#END
