
###############################################################################
#
# This file contains modified crystal structure data generated from the
# MOF subset of the Cambridge Structural Database (CSD) v543 
# hosted by the Cambridge Crystallographic Data Centre (CCDC).
#
# This work is licensed under the Creative Commons
# Attribution-NonCommercial-ShareAlike 4.0 International License.
# To view a copy of this license, visit
# http://creativecommons.org/licenses/by-nc-sa/4.0/
# or send a letter to
# Creative Commons, PO Box 1866, Mountain View, CA 94042, USA.
#
# CIF created using the CSD Python API on 29 September 2022
# The structure has been converted into the P1 space group
# The structure has a 3D framework
# The original CSD entry SINZIA is in the monoclinic crystal system
# The framework has been calculated to contain at least 10.0% void space
# The void calculation uses a probe of radius 1.32A, grid spacing 0.4
#
###############################################################################

data_SINZIA
_chemical_formula_moiety         '(C104 H84 Co4 N8 O16)n'
_symmetry_cell_setting           triclinic
_symmetry_space_group_name_H-M   'P 1'
_symmetry_Int_Tables_number      1
_space_group_name_Hall           'P 1'
loop_
_symmetry_equiv_pos_site_id
_symmetry_equiv_pos_as_xyz
1 x,y,z
_cell_length_a                   14.909(3)
_cell_length_b                   7.1963(15)
_cell_length_c                   24.592(5)
_cell_angle_alpha                90
_cell_angle_beta                 104.312(2)
_cell_angle_gamma                90
_cell_volume                     2556.58
loop_
_atom_site_label
_atom_site_type_symbol
_atom_site_fract_x
_atom_site_fract_y
_atom_site_fract_z
H22 H 0.3294 0.0298 0.5119
C30 C 0.1484(3) 0.1576(6) 0.46772(19)
C31 C 0.1032(3) 0.2812(7) 0.4267(2)
H25 H 0.1102 0.2716 0.3903
C32 C 0.0474(3) 0.4199(7) 0.4404(2)
H26 H 0.0187 0.5004 0.4118
C33 C 0.0354(3) 0.4326(6) 0.4942(2)
C34 C 0.0807(3) 0.3089(6) 0.5351(2)
H27 H 0.0753 0.3125 0.5720
C35 C 0.1370(3) 0.1705(7) 0.5216(2)
H28 H 0.1669 0.0868 0.5490
N4 N 0.2074(3) 0.0159(5) 0.45499(16)
H29 H 0.5709 0.0408 0.6311
C39 C 0.6711(3) 0.0515(6) 0.7012(2)
H30 H 0.6540 0.1667 0.7125
C43 C 0.8641(3) 0.2099(6) 0.76039(19)
H33 H 0.8899 0.1517 0.7326
H34 H 0.8237 0.3090 0.7434
H35 H 0.9131 0.2591 0.7898
C44 C 0.8088(3) 0.0656(6) 0.78502(19)
H38 H 0.9165 0.0152 0.8535
C46 C 0.7492(3) 0.1544(6) 0.82103(19)
C47 C 0.6816(3) 0.0466(7) 0.83472(19)
C48 C 0.6310(3) 0.1137(6) 0.87100(19)
H40 H 0.5879 0.0361 0.8811
C49 C 0.6425(3) 0.2925(6) 0.89264(19)
C50 C 0.7118(3) 0.4027(7) 0.8790(2)
H41 H 0.7232 0.5219 0.8937
C51 C 0.7640(3) 0.3325(7) 0.8429(2)
H42 H 0.8090 0.4068 0.8336
C52 C 0.5879(3) 0.3642(7) 0.93185(18)
O7 O 0.52421(19) 0.2688(4) 0.93900(12)
O8 O 0.6165(2) 0.5176(4) 0.95589(14)
Co4 Co 0.43922(4) 0.33794(8) 0.98826(2)
C18 C 0.2930(3) 0.0346(7) 0.9816(2)
C19 C 0.2491(3) 0.2253(7) 0.9135(2)
H16 H 0.2485 0.3205 0.8879
C20 C 0.1808(3) 0.1019(6) 0.9117(2)
H17 H 0.1245 0.0987 0.8850
N1 N 0.3205(2) 0.1870(5) 0.95995(15)
C36 C 0.4146(3) 0.7121(7) 0.9166(2)
C37 C 0.3566(3) 0.8015(6) 0.86471(19)
C38 C 0.3790(3) 0.9758(6) 0.84713(19)
C40 C 0.2530(3) 0.9619(6) 0.76605(17)
C41 C 0.2284(3) 0.7893(7) 0.7835(2)
H31 H 0.1762 0.7281 0.7626
C42 C 0.2807(3) 0.7104(7) 0.8310(2)
H32 H 0.2654 0.5925 0.8412
C45 C 0.1215(3) 0.9413(7) 0.6758(2)
H36 H 0.1537 0.8494 0.6597
H37 H 0.0831 0.8809 0.6966
H39 H 0.3301 0.9280 0.6804
O5 O 0.4840(2) 0.7965(5) 0.94455(14)
O6 O 0.3884(2) 0.5548(5) 0.92984(14)
C27 C 0.2930(3) 0.9654(7) 0.4816(2)
C28 C 0.2491(3) 0.7747(7) 0.4135(2)
H23 H 0.2485 0.6795 0.3879
C29 C 0.1808(3) 0.8981(6) 0.4117(2)
H24 H 0.1245 0.9013 0.3850
N3 N 0.3205(2) 0.8130(5) 0.45995(15)
Co5 Co 0.43922(4) 0.66206(8) 0.48826(2)
C1 C 0.4146(3) 0.2879(7) 0.4166(2)
C2 C 0.3566(3) 0.1985(6) 0.36471(19)
C3 C 0.3790(3) 0.0242(6) 0.34713(19)
C5 C 0.2530(3) 0.0381(6) 0.26605(17)
C6 C 0.2284(3) 0.2107(7) 0.2835(2)
H3 H 0.1762 0.2719 0.2626
C7 C 0.2807(3) 0.2896(7) 0.3310(2)
H4 H 0.2654 0.4075 0.3412
C10 C 0.1215(3) 0.0587(7) 0.1758(2)
H8 H 0.1537 0.1506 0.1597
H9 H 0.0831 0.1191 0.1966
H11 H 0.3301 0.0720 0.1804
C18_2 C 0.7070(3) 0.0346(7) 0.5184(2)
C19_2 C 0.7509(3) 0.2253(7) 0.5865(2)
H16_2 H 0.7515 0.3205 0.6121
C20_2 C 0.8192(3) 0.1019(6) 0.5883(2)
H17_2 H 0.8755 0.0987 0.6150
Co1 Co 0.56078(4) 0.33794(8) 0.51174(2)
N1_2 N 0.6795(2) 0.1870(5) 0.54005(15)
O1 O 0.4840(2) 0.2035(5) 0.44455(14)
O2 O 0.3884(2) 0.4452(5) 0.42984(14)
C36_2 C 0.5854(3) 0.7121(7) 0.5834(2)
C37_2 C 0.6434(3) 0.8015(6) 0.63529(19)
C38_2 C 0.6210(3) 0.9758(6) 0.65287(19)
C40_2 C 0.7470(3) 0.9619(6) 0.73395(17)
C41_2 C 0.7716(3) 0.7893(7) 0.7165(2)
H31_2 H 0.8238 0.7281 0.7374
C42_2 C 0.7193(3) 0.7104(7) 0.6690(2)
H32_2 H 0.7346 0.5925 0.6588
C45_2 C 0.8785(3) 0.9413(7) 0.8242(2)
H36_2 H 0.8463 0.8494 0.8403
H37_2 H 0.9169 0.8809 0.8034
H39_2 H 0.6699 0.9280 0.8196
O5_2 O 0.5160(2) 0.7965(5) 0.55545(14)
O6_2 O 0.6116(2) 0.5548(5) 0.57016(14)
O9 O 0.52421(19) 0.7312(4) 0.43900(12)
O10 O 0.47579(19) 0.2688(4) 0.56100(12)
O11 O 0.6165(2) 0.4824(4) 0.45589(14)
O12 O 0.3835(2) 0.5176(4) 0.54411(14)
H29_2 H 0.4291 0.0408 0.8689
C39_2 C 0.3289(3) 0.0515(6) 0.7988(2)
H30_2 H 0.3460 0.1667 0.7875
C43_2 C 0.1359(3) 0.2099(6) 0.73961(19)
H33_2 H 0.1101 0.1517 0.7674
H34_2 H 0.1763 0.3090 0.7566
H35_2 H 0.0869 0.2591 0.7102
C44_2 C 0.1912(3) 0.0656(6) 0.71498(19)
H38_2 H 0.0835 0.0152 0.6465
C46_2 C 0.2508(3) 0.1544(6) 0.67897(19)
C47_2 C 0.3184(3) 0.0466(7) 0.66528(19)
C48_2 C 0.3690(3) 0.1137(6) 0.62900(19)
H40_2 H 0.4121 0.0361 0.6189
C49_2 C 0.3575(3) 0.2925(6) 0.60736(19)
C50_2 C 0.2882(3) 0.4027(7) 0.6210(2)
H41_2 H 0.2768 0.5219 0.6063
C51_2 C 0.2360(3) 0.3325(7) 0.6571(2)
H42_2 H 0.1910 0.4068 0.6664
C52_2 C 0.4121(3) 0.3642(7) 0.56815(18)
H1 H 0.5709 0.9592 0.1311
C4 C 0.6711(3) 0.9485(6) 0.2012(2)
H2 H 0.6540 0.8333 0.2125
C8 C 0.8641(3) 0.7901(6) 0.26039(19)
H5 H 0.8899 0.8483 0.2326
H6 H 0.8237 0.6910 0.2434
H7 H 0.9131 0.7409 0.2898
C9 C 0.8088(3) 0.9344(6) 0.28502(19)
H10 H 0.9165 0.9848 0.3535
C11 C 0.7492(3) 0.8456(6) 0.32103(19)
C12 C 0.6816(3) 0.9534(7) 0.33472(19)
C13 C 0.6310(3) 0.8863(6) 0.37100(19)
H12 H 0.5879 0.9639 0.3811
C14 C 0.6425(3) 0.7075(6) 0.39264(19)
C15 C 0.7118(3) 0.5973(7) 0.3790(2)
H13 H 0.7232 0.4781 0.3937
C16 C 0.7640(3) 0.6675(7) 0.3429(2)
H14 H 0.8090 0.5932 0.3336
C17 C 0.5879(3) 0.6358(7) 0.43185(18)
H15 H 0.3294 0.9702 0.0119
C25 C 0.0807(3) 0.6911(6) 0.0351(2)
H20 H 0.0753 0.6875 0.0720
C26 C 0.1370(3) 0.8295(7) 0.0216(2)
H21 H 0.1669 0.9132 0.0490
H22_2 H 0.6706 0.0298 0.9881
C34_2 C 0.9193(3) 0.3089(6) 0.9649(2)
H27_2 H 0.9247 0.3125 0.9280
C35_2 C 0.8630(3) 0.1705(7) 0.9784(2)
H28_2 H 0.8331 0.0868 0.9510
Co7 Co 0.56078(4) 0.66206(8) 0.01174(2)
H1_2 H 0.4291 0.9592 0.3689
C4_2 C 0.3289(3) 0.9485(6) 0.2988(2)
H2_2 H 0.3460 0.8333 0.2875
C8_2 C 0.1359(3) 0.7901(6) 0.23961(19)
H5_2 H 0.1101 0.8483 0.2674
H6_2 H 0.1763 0.6910 0.2566
H7_2 H 0.0869 0.7409 0.2102
C9_2 C 0.1912(3) 0.9344(6) 0.21498(19)
H10_2 H 0.0835 0.9848 0.1465
C11_2 C 0.2508(3) 0.8456(6) 0.17897(19)
C12_2 C 0.3184(3) 0.9534(7) 0.16528(19)
C13_2 C 0.3690(3) 0.8863(6) 0.12900(19)
H12_2 H 0.4121 0.9639 0.1189
C14_2 C 0.3575(3) 0.7075(6) 0.10736(19)
C15_2 C 0.2882(3) 0.5973(7) 0.1210(2)
H13_2 H 0.2768 0.4781 0.1063
C16_2 C 0.2360(3) 0.6675(7) 0.1571(2)
H14_2 H 0.1910 0.5932 0.1664
C17_2 C 0.4121(3) 0.6358(7) 0.06815(18)
H15_2 H 0.6706 0.9702 0.4881
C21 C 0.8516(3) 0.8424(6) 0.53228(19)
C22 C 0.8968(3) 0.7188(7) 0.5733(2)
H18 H 0.8898 0.7284 0.6097
C23 C 0.9526(3) 0.5801(7) 0.5596(2)
H19 H 0.9813 0.4996 0.5882
C24 C 0.9646(3) 0.5674(6) 0.5058(2)
C25_2 C 0.9193(3) 0.6911(6) 0.4649(2)
H20_2 H 0.9247 0.6875 0.4280
C26_2 C 0.8630(3) 0.8295(7) 0.4784(2)
H21_2 H 0.8331 0.9132 0.4510
N2 N 0.7926(3) 0.9841(5) 0.54501(16)
O3 O 0.47579(19) 0.7312(4) 0.06100(12)
O4 O 0.3835(2) 0.4824(4) 0.04411(14)
C1_2 C 0.5854(3) 0.2879(7) 0.0834(2)
C2_2 C 0.6434(3) 0.1985(6) 0.13529(19)
C3_2 C 0.6210(3) 0.0242(6) 0.15287(19)
C5_2 C 0.7470(3) 0.0381(6) 0.23395(17)
C6_2 C 0.7716(3) 0.2107(7) 0.2165(2)
H3_2 H 0.8238 0.2719 0.2374
C7_2 C 0.7193(3) 0.2896(7) 0.1690(2)
H4_2 H 0.7346 0.4075 0.1588
C10_2 C 0.8785(3) 0.0587(7) 0.3242(2)
H8_2 H 0.8463 0.1506 0.3403
H9_2 H 0.9169 0.1191 0.3034
H11_2 H 0.6699 0.0720 0.3196
O1_2 O 0.5160(2) 0.2035(5) 0.05545(14)
O2_2 O 0.6116(2) 0.4452(5) 0.07016(14)
N5 N 0.6795(2) 0.8130(5) 0.04005(15)
C27_2 C 0.7070(3) 0.9654(7) 0.0184(2)
C28_2 C 0.7509(3) 0.7747(7) 0.0865(2)
H23_2 H 0.7515 0.6795 0.1121
C29_2 C 0.8192(3) 0.8981(6) 0.0883(2)
H24_2 H 0.8755 0.9013 0.1150
C21_2 C 0.1484(3) 0.8424(6) 0.96772(19)
C22_2 C 0.1032(3) 0.7188(7) 0.9267(2)
H18_2 H 0.1102 0.7284 0.8903
C23_2 C 0.0474(3) 0.5801(7) 0.9404(2)
H19_2 H 0.0187 0.4996 0.9118
C24_2 C 0.0354(3) 0.5674(6) 0.9942(2)
N2_2 N 0.2074(3) 0.9841(5) 0.95499(16)
C30_2 C 0.8516(3) 0.1576(6) 0.03228(19)
C31_2 C 0.8968(3) 0.2812(7) 0.0733(2)
H25_2 H 0.8898 0.2716 0.1097
C32_2 C 0.9526(3) 0.4199(7) 0.0596(2)
H26_2 H 0.9813 0.5004 0.0882
C33_2 C 0.9646(3) 0.4326(6) 0.0058(2)
N4_2 N 0.7926(3) 0.0159(5) 0.04501(16)
loop_
_geom_bond_atom_site_label_1
_geom_bond_atom_site_label_2
_geom_bond_site_symmetry_1
_geom_bond_site_symmetry_2
C30 C31 1_555 1_555
C31 H25 1_555 1_555
C32 C31 1_555 1_555
H26 C32 1_555 1_555
C34 C33 1_555 1_555
H27 C34 1_555 1_555
C35 C30 1_555 1_555
H28 C35 1_555 1_555
C30 N4 1_555 1_555
C32 C33 1_555 1_555
C34 C35 1_555 1_555
H30 C39 1_555 1_555
C43 H33 1_555 1_555
H34 C43 1_555 1_555
H35 C43 1_555 1_555
C46 C44 1_555 1_555
C47 C46 1_555 1_555
C48 C47 1_555 1_555
H40 C48 1_555 1_555
C49 C48 1_555 1_555
C50 C49 1_555 1_555
H41 C50 1_555 1_555
C51 C46 1_555 1_555
H42 C51 1_555 1_555
C52 C49 1_555 1_555
O7 C52 1_555 1_555
O8 C52 1_555 1_555
Co4 O7 1_555 1_555
C43 C44 1_555 1_555
C50 C51 1_555 1_555
C19 H16 1_555 1_555
C20 C19 1_555 1_555
H17 C20 1_555 1_555
Co4 N1 1_555 1_555
N1 C18 1_555 1_555
C36 C37 1_555 1_555
C37 C38 1_555 1_555
C41 C40 1_555 1_555
H31 C41 1_555 1_555
C42 C37 1_555 1_555
H32 C42 1_555 1_555
H36 C45 1_555 1_555
H37 C45 1_555 1_555
O5 C36 1_555 1_555
O6 Co4 1_555 1_555
C19 N1 1_555 1_555
C36 O6 1_555 1_555
C41 C42 1_555 1_555
C28 H23 1_555 1_555
C29 C28 1_555 1_555
H24 C29 1_555 1_555
N3 C27 1_555 1_555
Co5 N3 1_555 1_555
C28 N3 1_555 1_555
C1 C2 1_555 1_555
C2 C3 1_555 1_555
C6 C5 1_555 1_555
H3 C6 1_555 1_555
C7 C2 1_555 1_555
H4 C7 1_555 1_555
H8 C10 1_555 1_555
H9 C10 1_555 1_555
C19_2 H16_2 1_555 1_555
C20_2 C19_2 1_555 1_555
H17_2 C20_2 1_555 1_555
Co1 N1_2 1_555 1_555
N1_2 C18_2 1_555 1_555
O1 C1 1_555 1_555
O2 C1 1_555 1_555
C36_2 C37_2 1_555 1_555
C37_2 C38_2 1_555 1_555
C41_2 C40_2 1_555 1_555
H31_2 C41_2 1_555 1_555
C42_2 C37_2 1_555 1_555
H32_2 C42_2 1_555 1_555
H36_2 C45_2 1_555 1_555
H37_2 C45_2 1_555 1_555
Co5 Co1 1_555 1_555
O5_2 C36_2 1_555 1_555
O6_2 Co1 1_555 1_555
O9 Co5 1_555 1_555
O10 Co1 1_555 1_555
O11 Co1 1_555 1_555
O12 Co5 1_555 1_555
C6 C7 1_555 1_555
C19_2 N1_2 1_555 1_555
Co1 O1 1_555 1_555
O2 Co5 1_555 1_555
C36_2 O6_2 1_555 1_555
C41_2 C42_2 1_555 1_555
Co5 O5_2 1_555 1_555
H30_2 C39_2 1_555 1_555
C43_2 H33_2 1_555 1_555
H34_2 C43_2 1_555 1_555
H35_2 C43_2 1_555 1_555
C46_2 C44_2 1_555 1_555
C47_2 C46_2 1_555 1_555
C48_2 C47_2 1_555 1_555
H40_2 C48_2 1_555 1_555
C49_2 C48_2 1_555 1_555
C50_2 C49_2 1_555 1_555
H41_2 C50_2 1_555 1_555
C51_2 C46_2 1_555 1_555
H42_2 C51_2 1_555 1_555
C52_2 C49_2 1_555 1_555
O10 C52_2 1_555 1_555
O12 C52_2 1_555 1_555
C43_2 C44_2 1_555 1_555
C50_2 C51_2 1_555 1_555
H2 C4 1_555 1_555
C8 H5 1_555 1_555
H6 C8 1_555 1_555
H7 C8 1_555 1_555
C11 C9 1_555 1_555
C12 C11 1_555 1_555
C13 C12 1_555 1_555
H12 C13 1_555 1_555
C14 C13 1_555 1_555
C15 C14 1_555 1_555
H13 C15 1_555 1_555
C16 C11 1_555 1_555
H14 C16 1_555 1_555
C17 C14 1_555 1_555
H20 C25 1_555 1_555
H21 C26 1_555 1_555
O9 C17 1_555 1_555
O11 C17 1_555 1_555
C8 C9 1_555 1_555
C15 C16 1_555 1_555
C25 C26 1_555 1_555
H27_2 C34_2 1_555 1_555
H28_2 C35_2 1_555 1_555
C34_2 C35_2 1_555 1_555
H2_2 C4_2 1_555 1_555
C8_2 H5_2 1_555 1_555
H6_2 C8_2 1_555 1_555
H7_2 C8_2 1_555 1_555
C11_2 C9_2 1_555 1_555
C12_2 C11_2 1_555 1_555
C13_2 C12_2 1_555 1_555
H12_2 C13_2 1_555 1_555
C14_2 C13_2 1_555 1_555
C15_2 C14_2 1_555 1_555
H13_2 C15_2 1_555 1_555
C16_2 C11_2 1_555 1_555
H14_2 C16_2 1_555 1_555
C17_2 C14_2 1_555 1_555
C21 C22 1_555 1_555
C22 H18 1_555 1_555
C23 C22 1_555 1_555
H19 C23 1_555 1_555
C24 C23 1_555 1_555
C25_2 C24 1_555 1_555
H20_2 C25_2 1_555 1_555
C26_2 C21 1_555 1_555
H21_2 C26_2 1_555 1_555
O3 C17_2 1_555 1_555
O4 C17_2 1_555 1_555
Co7 O3 1_555 1_555
C8_2 C9_2 1_555 1_555
C15_2 C16_2 1_555 1_555
C21 N2 1_555 1_555
C25_2 C26_2 1_555 1_555
C1_2 C2_2 1_555 1_555
C2_2 C3_2 1_555 1_555
C6_2 C5_2 1_555 1_555
H3_2 C6_2 1_555 1_555
C7_2 C2_2 1_555 1_555
H4_2 C7_2 1_555 1_555
H8_2 C10_2 1_555 1_555
H9_2 C10_2 1_555 1_555
O1_2 C1_2 1_555 1_555
O2_2 C1_2 1_555 1_555
N5 Co7 1_555 1_555
C6_2 C7_2 1_555 1_555
O2_2 Co7 1_555 1_555
C28_2 H23_2 1_555 1_555
C29_2 C28_2 1_555 1_555
H24_2 C29_2 1_555 1_555
N5 C27_2 1_555 1_555
C28_2 N5 1_555 1_555
C21_2 C22_2 1_555 1_555
C22_2 H18_2 1_555 1_555
C23_2 C22_2 1_555 1_555
H19_2 C23_2 1_555 1_555
C24_2 C23_2 1_555 1_555
C21_2 N2_2 1_555 1_555
C30_2 C31_2 1_555 1_555
C31_2 H25_2 1_555 1_555
C32_2 C31_2 1_555 1_555
H26_2 C32_2 1_555 1_555
C30_2 N4_2 1_555 1_555
C32_2 C33_2 1_555 1_555

#END
