
###############################################################################
#
# This file contains modified crystal structure data generated from the
# MOF subset of the Cambridge Structural Database (CSD) v543 
# hosted by the Cambridge Crystallographic Data Centre (CCDC).
#
# This work is licensed under the Creative Commons
# Attribution-NonCommercial-ShareAlike 4.0 International License.
# To view a copy of this license, visit
# http://creativecommons.org/licenses/by-nc-sa/4.0/
# or send a letter to
# Creative Commons, PO Box 1866, Mountain View, CA 94042, USA.
#
# CIF created using the CSD Python API on 29 September 2022
# The structure has been converted into the P1 space group
# The structure has a 3D framework
# The original CSD entry SIQBEA is in the monoclinic crystal system
# The framework has been calculated to contain at least 10.0% void space
# The void calculation uses a probe of radius 1.32A, grid spacing 0.4
#
###############################################################################

data_SIQBEA
_chemical_formula_moiety         '(C84 H84 Co10 N32 O18)n'
_symmetry_cell_setting           triclinic
_symmetry_space_group_name_H-M   'P 1'
_symmetry_Int_Tables_number      1
_space_group_name_Hall           'P 1'
loop_
_symmetry_equiv_pos_site_id
_symmetry_equiv_pos_as_xyz
1 x,y,z
_cell_length_a                   10.473(2)
_cell_length_b                   17.597(4)
_cell_length_c                   14.503(3)
_cell_angle_alpha                90
_cell_angle_beta                 106.452(3)
_cell_angle_gamma                90
_cell_volume                     2563.38
loop_
_atom_site_label
_atom_site_type_symbol
_atom_site_fract_x
_atom_site_fract_y
_atom_site_fract_z
Co11 Co 0.16962(5) 0.08697(3) 0.81966(4)
O19 O 0.0321(3) 0.14237(15) 0.9193(2)
O22 O 0.0098(3) 0.15078(15) 0.76746(19)
H24 H 0.5435 0.2521 0.0093
H25 H 0.4050 0.2689 0.0267
Co4 Co 0.5000 0.0000 0.0000
O16 O 0.4709(2) 0.11765(14) 0.00388(18)
H16 H 0.0282 0.5838 0.6909
Co1 Co -0.0000 0.5000 0.5000
C22 C 0.4693(4) 0.3133(2) 0.6742(3)
C23 C 0.4726(4) 0.2939(2) 0.8267(3)
C24 C 0.6524(4) 0.2584(2) 0.7736(3)
C25 C 0.2788(4) 0.3792(2) 0.5704(3)
H22 H 0.2223 0.3499 0.5998
H23 H 0.2345 0.3820 0.5020
C26 C 0.2919(4) 0.4552(2) 0.6097(3)
C27 C 0.4480(4) 0.2506(2) 0.9799(3)
C28 C 0.4053(4) 0.1691(2) 0.9531(3)
C29 C 0.8546(4) 0.1961(2) 0.8628(3)
H26 H 0.8829 0.2335 0.9137
H27 H 0.8065 0.1563 0.8850
C30 C 0.9700(4) 0.1643(2) 0.8399(3)
C36 C 0.2004(4) 0.5498(2) 0.0809(3)
H32 H 0.1048 0.5425 0.0648
H33 H 0.2205 0.5978 0.1147
C37 C 0.2645(4) 0.4890(2) 0.1470(3)
H34 H 0.2488 0.4404 0.1142
H35 H 0.3598 0.4976 0.1689
C38 C 0.2077(4) 0.4880(2) 0.2327(3)
C39 C 0.0969(4) 0.4442(2) 0.2332(3)
H36 H 0.0578 0.4131 0.1810
C40 C 0.0449(4) 0.4466(2) 0.3103(3)
C41 C 0.2022(4) 0.5316(2) 0.3871(3)
H38 H 0.2395 0.5621 0.4403
C42 C 0.2600(4) 0.5310(2) 0.3133(3)
H39 H 0.3357 0.5601 0.3180
Co4_2 Co 0.5000 0.0000 1.0000
Co9 Co 0.33038(5) 0.58697(3) 0.68034(4)
N9 N 0.4045(3) 0.32092(19) 0.7400(2)
N10 N 0.5942(3) 0.26137(18) 0.8470(2)
N11 N 0.5904(3) 0.28208(19) 0.6869(3)
N12 N 0.4076(3) 0.3381(2) 0.5848(2)
H40 H 0.4650 0.3687 0.5666
N13 N 0.4137(3) 0.30012(17) 0.8965(2)
H41 H 0.3509 0.3360 0.8919
N14 N 0.7740(3) 0.22944(18) 0.7825(3)
H42 H 0.8036 0.2321 0.7330
N16 N 0.0950(3) 0.49043(16) 0.3863(2)
O7 O 0.1850(3) 0.49065(15) 0.60425(19)
O10 O 0.4004(2) 0.48478(13) 0.65047(18)
O13 O 0.3047(3) 0.16199(15) 0.8827(2)
O17 O 0.0291(2) 0.61765(14) 0.49612(18)
C31 C 0.2592(4) 0.6291(2) 0.8572(3)
H28 H 0.2533 0.6766 0.8282
C32 C 0.2340(4) 0.6241(2) 0.9447(3)
H29 H 0.2138 0.6676 0.9742
C33 C 0.2387(4) 0.5561(2) 0.9878(3)
C34 C 0.2747(4) 0.4937(2) 0.9419(3)
H30 H 0.2811 0.4458 0.9698
C35 C 0.3012(4) 0.5033(2) 0.8538(3)
H31 H 0.3263 0.4613 0.8243
N15 N 0.2919(3) 0.56954(19) 0.8110(2)
O15 O 0.1953(3) 0.66199(15) 0.6173(2)
O21 O 0.4679(3) 0.64237(15) 0.5807(2)
O24 O 0.4902(3) 0.65078(15) 0.73254(19)
Co4_3 Co 0.5000 1.0000 0.0000
Co4_4 Co 0.5000 1.0000 1.0000
C10 C 0.7408(4) 0.3709(2) 0.1428(3)
H7 H 0.7467 0.3234 0.1718
C11 C 0.7660(4) 0.3759(2) 0.0553(3)
H8 H 0.7862 0.3324 0.0258
C12 C 0.7613(4) 0.4439(2) 0.0122(3)
C13 C 0.7253(4) 0.5063(2) 0.0581(3)
H9 H 0.7189 0.5542 0.0302
C14 C 0.6988(4) 0.4967(2) 0.1462(3)
H10 H 0.6737 0.5387 0.1757
Co2 Co 0.66962(5) 0.41303(3) 0.31966(4)
N7 N 0.7081(3) 0.43046(19) 0.1890(2)
O8 O 0.8150(3) 0.50935(15) 0.39575(19)
O11 O 0.5996(2) 0.51522(13) 0.34953(18)
O14 O 0.8047(3) 0.33801(15) 0.3827(2)
O20 O 0.5321(3) 0.35763(15) 0.4193(2)
O23 O 0.5098(3) 0.34922(15) 0.26746(19)
C1 C 0.5307(4) 0.6867(2) 0.3258(3)
C2 C 0.5274(4) 0.7061(2) 0.1733(3)
C3 C 0.3476(4) 0.7416(2) 0.2264(3)
C4 C 0.7212(4) 0.6208(2) 0.4296(3)
H1 H 0.7777 0.6501 0.4002
H2 H 0.7655 0.6180 0.4980
C5 C 0.7081(4) 0.5448(2) 0.3903(3)
C6 C 0.5520(4) 0.7494(2) 0.0201(3)
C7 C 0.5947(4) 0.8309(2) 0.0469(3)
C8 C 0.1454(4) 0.8039(2) 0.1372(3)
H5 H 0.1171 0.7665 0.0863
H6 H 0.1935 0.8437 0.1150
C9 C 0.0300(4) 0.8357(2) 0.1601(3)
C15 C 0.7996(4) 0.4502(2) 0.9191(3)
H11 H 0.8952 0.4575 0.9352
H12 H 0.7795 0.4022 0.8853
C16 C 0.7355(4) 0.5110(2) 0.8530(3)
H13 H 0.7512 0.5596 0.8858
H14 H 0.6402 0.5024 0.8311
C17 C 0.7923(4) 0.5120(2) 0.7673(3)
C18 C 0.9031(4) 0.5558(2) 0.7668(3)
H15 H 0.9422 0.5869 0.8190
C19 C 0.9551(4) 0.5534(2) 0.6897(3)
C20 C 0.7978(4) 0.4684(2) 0.6129(3)
H17 H 0.7605 0.4379 0.5597
C21 C 0.7400(4) 0.4690(2) 0.6867(3)
H18 H 0.6643 0.4399 0.6820
Co1_2 Co 1.0000 0.5000 0.5000
N1 N 0.5955(3) 0.67908(19) 0.2600(2)
N2 N 0.4058(3) 0.73863(18) 0.1530(2)
N3 N 0.4096(3) 0.71792(19) 0.3131(3)
N4 N 0.5924(3) 0.6619(2) 0.4152(2)
H19 H 0.5350 0.6313 0.4334
N5 N 0.5863(3) 0.69988(17) 0.1035(2)
H20 H 0.6491 0.6640 0.1081
N6 N 0.2260(3) 0.77056(18) 0.2175(3)
H21 H 0.1964 0.7679 0.2670
N8 N 0.9050(3) 0.50957(16) 0.6137(2)
O3 O 0.6953(3) 0.83801(15) 0.1173(2)
H37 H 0.9718 0.4162 0.3091
Co7 Co 0.83038(5) 0.91303(3) 0.18034(4)
O18 O 0.9709(2) 0.38235(14) 0.50388(18)
H3 H 0.4565 0.7479 0.9907
H4 H 0.5950 0.7311 0.9733
O4 O 0.5291(2) 0.88235(14) 0.99612(18)
O5 O 0.9679(3) 0.85763(15) 0.0807(2)
O6 O 0.9902(3) 0.84922(15) 0.23254(19)
C3_2 C 0.1524(4) 0.2416(2) 0.2736(3)
H3_2 H 0.0435 0.2479 0.5093
C8_2 C 0.3546(4) 0.3039(2) 0.3628(3)
H5_2 H 0.3829 0.2665 0.4137
H6_2 H 0.3065 0.3437 0.3850
C9_2 C 0.4700(4) 0.3357(2) 0.3399(3)
N2_2 N 0.0942(3) 0.23863(18) 0.3470(2)
N3_2 N 0.0904(3) 0.21792(19) 0.1869(3)
N6_2 N 0.2740(3) 0.27056(18) 0.2825(3)
H21_2 H 0.3036 0.2679 0.2330
C1_2 C 0.9693(4) 0.1867(2) 0.1742(3)
C2_2 C 0.9726(4) 0.2061(2) 0.3267(3)
C4_2 C 0.7788(4) 0.1208(2) 0.0704(3)
H1_2 H 0.7223 0.1501 0.0998
H2_2 H 0.7345 0.1180 0.0020
C5_2 C 0.7919(4) 0.0448(2) 0.1097(3)
C6_2 C 0.9480(4) 0.2494(2) 0.4799(3)
H4_2 H 0.9050 0.2311 0.5267
C7_2 C 0.9053(4) 0.3309(2) 0.4531(3)
N1_2 N 0.9045(3) 0.17908(19) 0.2400(2)
N4_2 N 0.9076(3) 0.1619(2) 0.0848(2)
H19_2 H 0.9650 0.1313 0.0666
N5_2 N 0.9137(3) 0.19988(17) 0.3965(2)
H20_2 H 0.8509 0.1640 0.3919
O1 O 0.6850(3) 0.00935(15) 0.10425(19)
O2 O 0.9004(2) 0.01522(13) 0.15047(18)
C31_2 C 0.2408(4) 0.1291(2) 0.6428(3)
H28_2 H 0.2467 0.1766 0.6718
C32_2 C 0.2660(4) 0.1241(2) 0.5553(3)
H29_2 H 0.2862 0.1676 0.5258
C33_2 C 0.2613(4) 0.0561(2) 0.5122(3)
C35_2 C 0.1988(4) 0.0033(2) 0.6462(3)
C36_2 C 0.2996(4) 0.0498(2) 0.4191(3)
H32_2 H 0.3952 0.0425 0.4352
H33_2 H 0.2795 0.0978 0.3853
C41_2 C 0.2978(4) 0.0316(2) 0.1129(3)
H38_2 H 0.2605 0.0621 0.0597
C42_2 C 0.2400(4) 0.0310(2) 0.1867(3)
H39_2 H 0.1643 0.0601 0.1820
N15_2 N 0.2081(3) 0.06954(19) 0.6890(2)
C13_2 C 0.7747(4) 0.0063(2) 0.4419(3)
H9_2 H 0.7811 0.0542 0.4698
H10_2 H 0.8263 0.0387 0.3243
C16_2 C 0.7645(4) 0.0110(2) 0.6470(3)
H13_2 H 0.7488 0.0596 0.6142
H14_2 H 0.8598 0.0024 0.6689
C17_2 C 0.7077(4) 0.0120(2) 0.7327(3)
C18_2 C 0.5969(4) 0.0558(2) 0.7332(3)
H15_2 H 0.5578 0.0869 0.6810
C19_2 C 0.5449(4) 0.0534(2) 0.8103(3)
H16_2 H 0.4718 0.0838 0.8091
N8_2 N 0.5950(3) 0.00957(16) 0.8863(2)
C34_2 C 0.2253(4) 0.9937(2) 0.5581(3)
H30_2 H 0.2189 0.9458 0.5302
H31_2 H 0.1737 0.9613 0.6757
C37_2 C 0.2355(4) 0.9890(2) 0.3530(3)
H34_2 H 0.2512 0.9404 0.3858
H35_2 H 0.1402 0.9976 0.3311
C38_2 C 0.2923(4) 0.9880(2) 0.2673(3)
C39_2 C 0.4031(4) 0.9442(2) 0.2668(3)
H36_2 H 0.4422 0.9131 0.3190
C40_2 C 0.4551(4) 0.9466(2) 0.1897(3)
H37_2 H 0.5282 0.9162 0.1909
N16_2 N 0.4050(3) 0.99043(16) 0.1137(2)
O9 O 0.3150(3) 0.99065(15) 0.89575(19)
O12 O 0.0996(2) 0.98478(13) 0.84953(18)
C10_2 C 0.7592(4) 0.8709(2) 0.3572(3)
H7_2 H 0.7533 0.8234 0.3282
C11_2 C 0.7340(4) 0.8759(2) 0.4447(3)
H8_2 H 0.7138 0.8324 0.4742
C12_2 C 0.7387(4) 0.9439(2) 0.4878(3)
C14_2 C 0.8012(4) 0.9967(2) 0.3538(3)
C15_2 C 0.7004(4) 0.9502(2) 0.5809(3)
H11_2 H 0.6048 0.9575 0.5648
H12_2 H 0.7205 0.9022 0.6147
C20_2 C 0.7022(4) 0.9684(2) 0.8871(3)
H17_2 H 0.7395 0.9379 0.9403
C21_2 C 0.7600(4) 0.9690(2) 0.8133(3)
H18_2 H 0.8357 0.9399 0.8180
N7_2 N 0.7919(3) 0.93046(19) 0.3110(2)
C22_2 C 0.0307(4) 0.8133(2) 0.8258(3)
C23_2 C 0.0274(4) 0.7939(2) 0.6733(3)
C25_2 C 0.2212(4) 0.8792(2) 0.9296(3)
H22_2 H 0.2777 0.8499 0.9002
H23_2 H 0.2655 0.8820 0.9980
C26_2 C 0.2081(4) 0.9552(2) 0.8903(3)
C27_2 C 0.0520(4) 0.7506(2) 0.5201(3)
H25_2 H 0.0950 0.7689 0.4733
C28_2 C 0.0947(4) 0.6691(2) 0.5469(3)
N9_2 N 0.0955(3) 0.82092(19) 0.7600(2)
N12_2 N 0.0924(3) 0.8381(2) 0.9152(2)
H40_2 H 0.0350 0.8687 0.9334
N13_2 N 0.0863(3) 0.80012(17) 0.6035(2)
H41_2 H 0.1491 0.8360 0.6081
C24_2 C 0.8476(4) 0.7584(2) 0.7264(3)
H24_2 H 0.9565 0.7521 0.4907
C29_2 C 0.6454(4) 0.6961(2) 0.6372(3)
H26_2 H 0.6171 0.7335 0.5863
H27_2 H 0.6935 0.6563 0.6150
C30_2 C 0.5300(4) 0.6643(2) 0.6601(3)
N10_2 N 0.9058(3) 0.76137(18) 0.6530(2)
N11_2 N 0.9096(3) 0.78208(19) 0.8131(3)
N14_2 N 0.7260(3) 0.72944(18) 0.7175(3)
H42_2 H 0.6964 0.7321 0.7670
loop_
_geom_bond_atom_site_label_1
_geom_bond_atom_site_label_2
_geom_bond_site_symmetry_1
_geom_bond_site_symmetry_2
Co11 O19 1_555 1_555
Co11 O22 1_555 1_555
Co4 O16 1_555 1_555
C22 N9 1_555 1_555
C23 N9 1_555 1_555
C24 N10 1_555 1_555
C25 H22 1_555 1_555
H23 C25 1_555 1_555
C26 C25 1_555 1_555
C28 C27 1_555 1_555
C29 H26 1_555 1_555
H27 C29 1_555 1_555
C30 C29 1_555 1_555
H32 C36 1_555 1_555
H33 C36 1_555 1_555
C37 C36 1_555 1_555
H34 C37 1_555 1_555
H35 C37 1_555 1_555
C38 C37 1_555 1_555
C39 C38 1_555 1_555
H36 C39 1_555 1_555
C40 C39 1_555 1_555
C41 H38 1_555 1_555
C42 C38 1_555 1_555
H39 C42 1_555 1_555
Co9 O7 1_555 1_555
Co11 O13 1_555 1_555
N10 C23 1_555 1_555
N11 C22 1_555 1_555
N12 C22 1_555 1_555
H40 N12 1_555 1_555
N13 C23 1_555 1_555
H41 N13 1_555 1_555
N14 C24 1_555 1_555
H42 N14 1_555 1_555
N16 Co1 1_555 1_555
O7 Co1 1_555 1_555
O10 C26 1_555 1_555
O13 C28 1_555 1_555
O17 Co1 1_555 1_555
C24 N11 1_555 1_555
C25 N12 1_555 1_555
C26 O7 1_555 1_555
C27 N13 1_555 1_555
C29 N14 1_555 1_555
C40 N16 1_555 1_555
C41 C42 1_555 1_555
C41 N16 1_555 1_555
Co9 O10 1_555 1_555
C31 H28 1_555 1_555
C32 C31 1_555 1_555
H29 C32 1_555 1_555
C33 C32 1_555 1_555
C34 C33 1_555 1_555
H30 C34 1_555 1_555
C35 C34 1_555 1_555
H31 C35 1_555 1_555
Co9 N15 1_555 1_555
N15 C31 1_555 1_555
O15 Co9 1_555 1_555
O21 Co9 1_555 1_555
O24 Co9 1_555 1_555
C35 N15 1_555 1_555
C10 H7 1_555 1_555
C11 C10 1_555 1_555
H8 C11 1_555 1_555
C12 C11 1_555 1_555
C13 C12 1_555 1_555
H9 C13 1_555 1_555
C14 C13 1_555 1_555
H10 C14 1_555 1_555
Co2 N7 1_555 1_555
N7 C10 1_555 1_555
O8 Co2 1_555 1_555
O11 Co2 1_555 1_555
O14 Co2 1_555 1_555
O20 Co2 1_555 1_555
O23 Co2 1_555 1_555
C14 N7 1_555 1_555
C1 N1 1_555 1_555
C2 N1 1_555 1_555
C3 N2 1_555 1_555
C4 H1 1_555 1_555
H2 C4 1_555 1_555
C5 C4 1_555 1_555
C7 C6 1_555 1_555
C8 H5 1_555 1_555
H6 C8 1_555 1_555
C9 C8 1_555 1_555
H11 C15 1_555 1_555
H12 C15 1_555 1_555
C16 C15 1_555 1_555
H13 C16 1_555 1_555
H14 C16 1_555 1_555
C17 C16 1_555 1_555
C18 C17 1_555 1_555
H15 C18 1_555 1_555
C19 C18 1_555 1_555
C20 H17 1_555 1_555
C21 C17 1_555 1_555
H18 C21 1_555 1_555
Co1_2 N8 1_555 1_555
N2 C2 1_555 1_555
N3 C1 1_555 1_555
N4 C1 1_555 1_555
H19 N4 1_555 1_555
N5 C2 1_555 1_555
H20 N5 1_555 1_555
N6 C3 1_555 1_555
H21 N6 1_555 1_555
N8 C19 1_555 1_555
O8 C5 1_555 1_555
O11 C5 1_555 1_555
O3 C7 1_555 1_555
Co7 O3 1_555 1_555
O18 Co1_2 1_555 1_555
C3 N3 1_555 1_555
C4 N4 1_555 1_555
C6 N5 1_555 1_555
C8 N6 1_555 1_555
C20 C21 1_555 1_555
C20 N8 1_555 1_555
Co1_2 O8 1_555 1_555
Co4_4 O4 1_555 1_555
Co7 O5 1_555 1_555
O6 Co7 1_555 1_555
C3_2 N2_2 1_555 1_555
C8_2 H5_2 1_555 1_555
H6_2 C8_2 1_555 1_555
C9_2 C8_2 1_555 1_555
N6_2 C3_2 1_555 1_555
H21_2 N6_2 1_555 1_555
O20 C9_2 1_555 1_555
O23 C9_2 1_555 1_555
C3_2 N3_2 1_555 1_555
C8_2 N6_2 1_555 1_555
C1_2 N1_2 1_555 1_555
C2_2 N1_2 1_555 1_555
C4_2 H1_2 1_555 1_555
H2_2 C4_2 1_555 1_555
C5_2 C4_2 1_555 1_555
H4_2 C6_2 1_555 1_555
C7_2 C6_2 1_555 1_555
N4_2 C1_2 1_555 1_555
H19_2 N4_2 1_555 1_555
N5_2 C2_2 1_555 1_555
H20_2 N5_2 1_555 1_555
O1 C5_2 1_555 1_555
O2 C5_2 1_555 1_555
O14 C7_2 1_555 1_555
O18 C7_2 1_555 1_555
C31_2 H28_2 1_555 1_555
C32_2 C31_2 1_555 1_555
H29_2 C32_2 1_555 1_555
C33_2 C32_2 1_555 1_555
C36_2 C33_2 1_555 1_555
H32_2 C36_2 1_555 1_555
H33_2 C36_2 1_555 1_555
C41_2 H38_2 1_555 1_555
H39_2 C42_2 1_555 1_555
Co11 N15_2 1_555 1_555
N15_2 C31_2 1_555 1_555
C4_2 N4_2 1_555 1_555
C6_2 N5_2 1_555 1_555
Co4 O1 1_555 1_555
C35_2 N15_2 1_555 1_555
C41_2 C42_2 1_555 1_555
H9_2 C13_2 1_555 1_555
H13_2 C16_2 1_555 1_555
H14_2 C16_2 1_555 1_555
C17_2 C16_2 1_555 1_555
C18_2 C17_2 1_555 1_555
H15_2 C18_2 1_555 1_555
C19_2 C18_2 1_555 1_555
H16_2 C19_2 1_555 1_555
Co4_2 N8_2 1_555 1_555
N8_2 C19_2 1_555 1_555
H30_2 C34_2 1_555 1_555
H34_2 C37_2 1_555 1_555
H35_2 C37_2 1_555 1_555
C38_2 C37_2 1_555 1_555
C39_2 C38_2 1_555 1_555
H36_2 C39_2 1_555 1_555
C40_2 C39_2 1_555 1_555
H37_2 C40_2 1_555 1_555
N16_2 Co4_3 1_555 1_555
C40_2 N16_2 1_555 1_555
C10_2 H7_2 1_555 1_555
C11_2 C10_2 1_555 1_555
H8_2 C11_2 1_555 1_555
C12_2 C11_2 1_555 1_555
C15_2 C12_2 1_555 1_555
H11_2 C15_2 1_555 1_555
H12_2 C15_2 1_555 1_555
C20_2 H17_2 1_555 1_555
H18_2 C21_2 1_555 1_555
Co7 N7_2 1_555 1_555
N7_2 C10_2 1_555 1_555
C22_2 N9_2 1_555 1_555
C23_2 N9_2 1_555 1_555
C25_2 H22_2 1_555 1_555
H23_2 C25_2 1_555 1_555
C26_2 C25_2 1_555 1_555
H25_2 C27_2 1_555 1_555
C28_2 C27_2 1_555 1_555
N12_2 C22_2 1_555 1_555
H40_2 N12_2 1_555 1_555
N13_2 C23_2 1_555 1_555
H41_2 N13_2 1_555 1_555
O9 Co4_4 1_555 1_555
O12 C26_2 1_555 1_555
O15 C28_2 1_555 1_555
O17 C28_2 1_555 1_555
C14_2 N7_2 1_555 1_555
C20_2 C21_2 1_555 1_555
C25_2 N12_2 1_555 1_555
C26_2 O9 1_555 1_555
C27_2 N13_2 1_555 1_555
C24_2 N10_2 1_555 1_555
C29_2 H26_2 1_555 1_555
H27_2 C29_2 1_555 1_555
C30_2 C29_2 1_555 1_555
N14_2 C24_2 1_555 1_555
H42_2 N14_2 1_555 1_555
O21 C30_2 1_555 1_555
O24 C30_2 1_555 1_555
C24_2 N11_2 1_555 1_555
C29_2 N14_2 1_555 1_555

#END
