
###############################################################################
#
# This file contains modified crystal structure data generated from the
# MOF subset of the Cambridge Structural Database (CSD) v543 
# hosted by the Cambridge Crystallographic Data Centre (CCDC).
#
# This work is licensed under the Creative Commons
# Attribution-NonCommercial-ShareAlike 4.0 International License.
# To view a copy of this license, visit
# http://creativecommons.org/licenses/by-nc-sa/4.0/
# or send a letter to
# Creative Commons, PO Box 1866, Mountain View, CA 94042, USA.
#
# CIF created using the CSD Python API on 29 September 2022
# The structure has been converted into the P1 space group
# The structure has a 3D framework
# The original CSD entry SIQTEU is in the monoclinic crystal system
# The framework has been calculated to contain at least 10.0% void space
# The void calculation uses a probe of radius 1.32A, grid spacing 0.4
#
###############################################################################

data_SIQTEU
_chemical_formula_moiety         '(C280 H252 N80 O116 Zn32)n'
_symmetry_cell_setting           triclinic
_symmetry_space_group_name_H-M   'P 1'
_symmetry_Int_Tables_number      1
_space_group_name_Hall           'P 1'
loop_
_symmetry_equiv_pos_site_id
_symmetry_equiv_pos_as_xyz
1 x,y,z
_cell_length_a                   18.7416(12)
_cell_length_b                   10.7245(7)
_cell_length_c                   43.738(3)
_cell_angle_alpha                90
_cell_angle_beta                 98.480(2)
_cell_angle_gamma                90
_cell_volume                     8694.98
loop_
_atom_site_label
_atom_site_type_symbol
_atom_site_fract_x
_atom_site_fract_y
_atom_site_fract_z
N12 N 0.1380(5) 0.0443(9) 0.0332(2)
O18 O 0.0327(3) 0.0999(6) 0.07925(15)
Zn6 Zn 0.25157(5) 0.00652(9) 0.13448(2)
C1 C 0.3318(5) 0.1072(8) 0.2556(2)
H1 H 0.3036 0.1808 0.2523
C2 C 0.3941(4) 0.1106(7) 0.27673(19)
H2 H 0.4074 0.1852 0.2878
C3 C 0.4381(4) 0.0047(8) 0.28192(19)
C4 C 0.5068(4) 0.0055(8) 0.30442(19)
C5 C 0.5420(5) 0.1146(8) 0.3131(2)
H3 H 0.5213 0.1922 0.3060
C6 C 0.6076(5) 0.1116(8) 0.3320(2)
H4 H 0.6309 0.1885 0.3378
C11 C 0.3673(4) 0.4680(7) 0.16831(19)
C12 C 0.3378(4) 0.5694(7) 0.12268(19)
C13 C 0.2538(4) 0.4592(7) 0.14354(19)
C14 C 0.3943(4) 0.3806(7) 0.22001(18)
H9 H 0.4365 0.3379 0.2317
H10 H 0.3585 0.3157 0.2123
C15 C 0.3613(5) 0.4649(8) 0.2420(2)
C16 C 0.4819(4) 0.5181(8) 0.1983(2)
H11 H 0.5050 0.5090 0.2200
H12 H 0.4677 0.6066 0.1951
C17 C 0.5373(4) 0.4875(8) 0.1774(2)
C18 C 0.1677(4) 0.3566(7) 0.17025(19)
H13 H 0.1147 0.3471 0.1687
H14 H 0.1843 0.4070 0.1889
C19 C 0.2023(4) 0.2289(8) 0.1742(2)
C20 C 0.1277(5) 0.4706(8) 0.1202(2)
H15 H 0.0838 0.4203 0.1212
H16 H 0.1421 0.4568 0.0996
C21 C 0.1077(5) 0.6081(9) 0.1226(2)
C22 C 0.4304(5) 0.6739(8) 0.0988(2)
H17 H 0.4567 0.6803 0.1201
H18 H 0.4328 0.7562 0.0888
C23 C 0.4673(5) 0.5785(10) 0.0812(2)
C24 C 0.2975(5) 0.6868(8) 0.0760(2)
H19 H 0.2660 0.6155 0.0687
H20 H 0.3193 0.7186 0.0583
C25 C 0.2520(5) 0.7893(8) 0.0876(2)
C26 C 0.2457(6) 0.2231(9) 0.0872(2)
H21 H 0.2087 0.2516 0.0982
C27 C 0.2621(6) 0.2941(9) 0.0627(2)
H22 H 0.2364 0.3690 0.0571
C28 C 0.3157(5) 0.2559(9) 0.0465(2)
C29 C 0.3325(6) 0.3262(11) 0.0189(2)
C30 C 0.2954(6) 0.4315(11) 0.0083(2)
H23 H 0.2584 0.4625 0.0189
C33 C 0.3839(6) 0.2841(11) 0.0024(2)
H26 H 0.4110 0.2112 0.0087
C34 C 0.3533(6) 0.1483(10) 0.0567(3)
H27 H 0.3920 0.1200 0.0468
C35 C 0.3337(6) 0.0825(11) 0.0815(3)
H28 H 0.3602 0.0096 0.0883
N1 N 0.3094(4) 0.0047(6) 0.23967(15)
N2 N 0.6402(4) 0.0058(7) 0.34263(17)
N3 N 0.3895(4) 0.5407(6) 0.14653(16)
N4 N 0.2681(4) 0.5332(6) 0.12017(16)
N5 N 0.3008(4) 0.4219(6) 0.16761(16)
N6 N 0.4170(4) 0.4422(6) 0.19376(15)
N7 N 0.3550(4) 0.6437(7) 0.10025(17)
N8 N 0.1841(4) 0.4234(6) 0.14305(16)
N9 N 0.2796(4) 0.1164(7) 0.09625(16)
O1 O 0.3504(3) 0.5767(5) 0.23659(15)
O2 O 0.3481(3) 0.4087(5) 0.26644(12)
O3 O 0.5767(4) 0.5717(6) 0.17126(19)
O4 O 0.5406(3) 0.3748(5) 0.16855(14)
O5 O 0.5327(3) 0.5999(6) 0.07925(15)
O6 O 0.4336(4) 0.4824(7) 0.07130(19)
O7 O 0.2727(3) 0.8414(5) 0.11262(14)
O8 O 0.1937(3) 0.8135(6) 0.06879(15)
O9 O 0.2105(3) 0.1885(5) 0.20163(13)
O10 O 0.2176(3) 0.1747(5) 0.15099(13)
O11 O 0.1398(3) 0.6680(5) 0.14566(17)
O12 O 0.0585(5) 0.6470(8) 0.1026(2)
O13 O 0.1390(3) 0.9736(5) 0.11601(13)
H29 H 0.1838 0.9595 0.1166
O15 O 0.0334(3) 0.8305(6) 0.06030(15)
H31 H 0.0457 0.7556 0.0647
Zn1 Zn 0.21162(5) 0.01076(9) 0.20958(2)
Zn3 Zn 0.12500(5) 0.84920(9) 0.14845(2)
Zn4 Zn 0.11437(6) 0.94997(11) 0.07138(3)
N11 N 0.3598(4) 0.0058(7) 0.15737(17)
O17 O 0.0406(3) 0.8748(5) 0.16855(14)
O21 O 0.2187(3) 0.9101(5) 0.17276(12)
Zn5 Zn 0.28838(5) 0.51076(9) 0.29042(2)
Zn7 Zn 0.74843(5) 0.00652(9) 0.36552(2)
Zn9 Zn 0.62500(5) 0.34920(9) 0.14845(2)
Zn10 Zn 0.61437(6) 0.44997(11) 0.07138(3)
C31 C 0.3112(6) 0.4931(11) 0.9825(2)
H24 H 0.2843 0.5656 0.9757
C32 C 0.3963(6) 0.3493(11) 0.9762(2)
H25 H 0.4307 0.3171 0.9643
N10 N 0.3620(5) 0.4557(9) 0.9668(2)
Zn11 Zn 0.38563(6) 0.55003(11) 0.92862(3)
C7 C 0.6047(5) 0.8990(8) 0.3348(2)
H5 H 0.6263 0.8226 0.3423
C8 C 0.5384(4) 0.8957(8) 0.3165(2)
H6 H 0.5143 0.8183 0.3122
C9 C 0.4137(5) 0.8979(8) 0.2651(2)
H7 H 0.4411 0.8231 0.2677
C10 C 0.3505(4) 0.9009(8) 0.2449(2)
H8 H 0.3347 0.8268 0.2341
H30 H 0.1827 0.8623 0.1677
O16 O 0.1519(3) 0.9087(5) 0.23356(12)
N12_2 N 0.8620(5) 0.0443(9) 0.4668(2)
O18_2 O 0.9673(3) 0.0999(6) 0.42075(15)
C1_2 C 0.6682(5) 0.1072(8) 0.2444(2)
H1_2 H 0.6964 0.1808 0.2477
C2_2 C 0.6059(4) 0.1106(7) 0.22327(19)
H2_2 H 0.5926 0.1852 0.2122
C3_2 C 0.5619(4) 0.0047(8) 0.21808(19)
C4_2 C 0.4932(4) 0.0055(8) 0.19558(19)
C5_2 C 0.4580(5) 0.1146(8) 0.1869(2)
H3_2 H 0.4787 0.1922 0.1940
C6_2 C 0.3924(5) 0.1116(8) 0.1680(2)
H4_2 H 0.3691 0.1885 0.1622
C11_2 C 0.6327(4) 0.4680(7) 0.33169(19)
C12_2 C 0.6622(4) 0.5694(7) 0.37732(19)
C13_2 C 0.7462(4) 0.4592(7) 0.35646(19)
C14_2 C 0.6057(4) 0.3806(7) 0.27999(18)
H9_2 H 0.5635 0.3379 0.2683
H10_2 H 0.6415 0.3157 0.2877
C15_2 C 0.6387(5) 0.4649(8) 0.2580(2)
C16_2 C 0.5181(4) 0.5181(8) 0.3017(2)
H11_2 H 0.4950 0.5090 0.2800
H12_2 H 0.5323 0.6066 0.3049
C17_2 C 0.4627(4) 0.4875(8) 0.3226(2)
C18_2 C 0.8323(4) 0.3566(7) 0.32975(19)
H13_2 H 0.8853 0.3471 0.3313
H14_2 H 0.8157 0.4070 0.3111
C19_2 C 0.7977(4) 0.2289(8) 0.3258(2)
C20_2 C 0.8723(5) 0.4706(8) 0.3798(2)
H15_2 H 0.9162 0.4203 0.3788
H16_2 H 0.8579 0.4568 0.4004
C21_2 C 0.8923(5) 0.6081(9) 0.3774(2)
C22_2 C 0.5696(5) 0.6739(8) 0.4012(2)
H17_2 H 0.5433 0.6803 0.3799
H18_2 H 0.5672 0.7562 0.4112
C23_2 C 0.5327(5) 0.5785(10) 0.4188(2)
C24_2 C 0.7025(5) 0.6868(8) 0.4240(2)
H19_2 H 0.7340 0.6155 0.4313
H20_2 H 0.6807 0.7186 0.4417
C25_2 C 0.7480(5) 0.7893(8) 0.4124(2)
C26_2 C 0.7543(6) 0.2231(9) 0.4128(2)
H21_2 H 0.7913 0.2516 0.4018
C27_2 C 0.7379(6) 0.2941(9) 0.4373(2)
H22_2 H 0.7636 0.3690 0.4429
C28_2 C 0.6843(5) 0.2559(9) 0.4535(2)
C29_2 C 0.6675(6) 0.3262(11) 0.4811(2)
C30_2 C 0.7046(6) 0.4315(11) 0.4917(2)
H23_2 H 0.7416 0.4625 0.4811
C31_2 C 0.6888(6) 0.4931(11) 0.5175(2)
H24_2 H 0.7157 0.5656 0.5243
C32_2 C 0.6037(6) 0.3493(11) 0.5238(2)
H25_2 H 0.5693 0.3171 0.5357
C33_2 C 0.6161(6) 0.2841(11) 0.4976(2)
H26_2 H 0.5890 0.2112 0.4913
C34_2 C 0.6467(6) 0.1483(10) 0.4433(3)
H27_2 H 0.6080 0.1200 0.4532
C35_2 C 0.6663(6) 0.0825(11) 0.4185(3)
H28_2 H 0.6398 0.0096 0.4117
N1_2 N 0.6906(4) 0.0047(6) 0.26033(15)
N3_2 N 0.6105(4) 0.5407(6) 0.35347(16)
N4_2 N 0.7319(4) 0.5332(6) 0.37983(16)
N5_2 N 0.6992(4) 0.4219(6) 0.33239(16)
N6_2 N 0.5830(4) 0.4422(6) 0.30624(15)
N7_2 N 0.6450(4) 0.6437(7) 0.39975(17)
N8_2 N 0.8159(4) 0.4234(6) 0.35695(16)
N9_2 N 0.7204(4) 0.1164(7) 0.40375(16)
N10_2 N 0.6380(5) 0.4557(9) 0.5332(2)
O1_2 O 0.6496(3) 0.5767(5) 0.26341(15)
O2_2 O 0.6519(3) 0.4087(5) 0.23356(12)
O3_2 O 0.4233(4) 0.5717(6) 0.32874(19)
O4_2 O 0.4594(3) 0.3748(5) 0.33145(14)
O5_2 O 0.4673(3) 0.5999(6) 0.42075(15)
O6_2 O 0.5664(4) 0.4824(7) 0.42870(19)
O7_2 O 0.7273(3) 0.8414(5) 0.38738(14)
O8_2 O 0.8063(3) 0.8135(6) 0.43121(15)
O9_2 O 0.7895(3) 0.1885(5) 0.29837(13)
O10_2 O 0.7824(3) 0.1747(5) 0.34901(13)
O11_2 O 0.8602(3) 0.6680(5) 0.35434(17)
O12_2 O 0.9415(5) 0.6470(8) 0.3974(2)
O13_2 O 0.8610(3) 0.9736(5) 0.38399(13)
H29_2 H 0.8162 0.9595 0.3834
O15_2 O 0.9666(3) 0.8305(6) 0.43970(15)
H31_2 H 0.9543 0.7556 0.4353
Zn1_2 Zn 0.78838(5) 0.01076(9) 0.29042(2)
Zn3_2 Zn 0.87500(5) 0.84920(9) 0.35155(2)
Zn4_2 Zn 0.88563(6) 0.94997(11) 0.42862(3)
O17_2 O 0.9594(3) 0.8748(5) 0.33145(14)
O21_2 O 0.7813(3) 0.9101(5) 0.32724(12)
Zn5_2 Zn 0.71162(5) 0.51076(9) 0.20958(2)
Zn9_2 Zn 0.37500(5) 0.34920(9) 0.35155(2)
Zn10_2 Zn 0.38563(6) 0.44997(11) 0.42862(3)
Zn11_2 Zn 0.61437(6) 0.55003(11) 0.57138(3)
C7_2 C 0.3953(5) 0.8990(8) 0.1652(2)
H5_2 H 0.3737 0.8226 0.1577
C8_2 C 0.4616(4) 0.8957(8) 0.1835(2)
H6_2 H 0.4857 0.8183 0.1878
C9_2 C 0.5863(5) 0.8979(8) 0.2349(2)
H7_2 H 0.5589 0.8231 0.2323
C10_2 C 0.6495(4) 0.9009(8) 0.2551(2)
H8_2 H 0.6653 0.8268 0.2659
H30_2 H 0.8173 0.8623 0.3323
O16_2 O 0.8481(3) 0.9087(5) 0.26644(12)
H11_3 H 0.0050 0.0090 0.2200
O3_3 O 0.0767(4) 0.0717(6) 0.17126(19)
C4_3 C 0.0068(4) 0.5055(8) 0.30442(19)
C5_3 C 0.0420(5) 0.6146(8) 0.3131(2)
H3_3 H 0.0213 0.6922 0.3060
C6_3 C 0.1076(5) 0.6116(8) 0.3320(2)
H4_3 H 0.1309 0.6885 0.3378
C7_3 C 0.1047(5) 0.3990(8) 0.3348(2)
H5_3 H 0.1263 0.3226 0.3423
C8_3 C 0.0384(4) 0.3957(8) 0.3165(2)
H6_3 H 0.0143 0.3183 0.3122
C17_3 C 0.0373(4) 0.9875(8) 0.1774(2)
N2_2 N 0.1402(4) 0.5058(7) 0.34263(17)
Zn7_2 Zn 0.24843(5) 0.50652(9) 0.36552(2)
C12_3 C 0.8378(4) 0.0694(7) 0.12268(19)
C16_3 C 0.9819(4) 0.0181(8) 0.1983(2)
H12_3 H 0.9677 0.1066 0.1951
C21_3 C 0.6077(5) 0.1081(9) 0.1226(2)
C22_3 C 0.9304(5) 0.1739(8) 0.0988(2)
H17_3 H 0.9567 0.1803 0.1201
H18_3 H 0.9328 0.2562 0.0888
C23_3 C 0.9673(5) 0.0785(10) 0.0812(2)
C24_3 C 0.7975(5) 0.1868(8) 0.0760(2)
H19_3 H 0.7660 0.1155 0.0687
H20_3 H 0.8193 0.2186 0.0583
C25_3 C 0.7520(5) 0.2893(8) 0.0876(2)
N3_3 N 0.8895(4) 0.0407(6) 0.14653(16)
N4_3 N 0.7681(4) 0.0332(6) 0.12017(16)
N7_3 N 0.8550(4) 0.1437(7) 0.10025(17)
O1_3 O 0.8504(3) 0.0767(5) 0.23659(15)
O7_3 O 0.7727(3) 0.3414(5) 0.11262(14)
O8_3 O 0.6937(3) 0.3135(6) 0.06879(15)
O11_3 O 0.6398(3) 0.1680(5) 0.14566(17)
O12_3 O 0.5585(5) 0.1470(8) 0.1026(2)
O13_3 O 0.6390(3) 0.4736(5) 0.11601(13)
H29_3 H 0.6838 0.4595 0.1166
O15_3 O 0.5334(3) 0.3305(6) 0.06030(15)
H31_3 H 0.5457 0.2556 0.0647
H32 H 0.4961 0.3494 0.0683
N12_3 N 0.6380(5) 0.5443(9) 0.0332(2)
O21_3 O 0.7187(3) 0.4101(5) 0.17276(12)
Zn6_2 Zn 0.75157(5) 0.50652(9) 0.13448(2)
H24_3 H 0.7843 0.0656 0.9757
Zn11_3 Zn 0.88563(6) 0.05003(11) 0.92862(3)
C1_3 C 0.8318(5) 0.6072(8) 0.2556(2)
H1_3 H 0.8036 0.6808 0.2523
C2_3 C 0.8941(4) 0.6106(7) 0.27673(19)
H2_3 H 0.9074 0.6852 0.2878
C3_3 C 0.9381(4) 0.5047(8) 0.28192(19)
C9_3 C 0.9137(5) 0.3979(8) 0.2651(2)
H7_3 H 0.9411 0.3231 0.2677
C10_3 C 0.8505(4) 0.4009(8) 0.2449(2)
H8_3 H 0.8347 0.3268 0.2341
C11_3 C 0.8673(4) 0.9680(7) 0.16831(19)
C13_3 C 0.7538(4) 0.9592(7) 0.14354(19)
C14_3 C 0.8943(4) 0.8806(7) 0.22001(18)
H9_3 H 0.9365 0.8379 0.2317
H10_3 H 0.8585 0.8157 0.2123
C15_3 C 0.8613(5) 0.9649(8) 0.2420(2)
C18_3 C 0.6677(4) 0.8566(7) 0.17025(19)
H13_3 H 0.6147 0.8471 0.1687
H14_3 H 0.6843 0.9070 0.1889
C19_3 C 0.7023(4) 0.7289(8) 0.1742(2)
C20_3 C 0.6277(5) 0.9706(8) 0.1202(2)
H15_3 H 0.5838 0.9203 0.1212
H16_3 H 0.6421 0.9568 0.0996
C26_3 C 0.7457(6) 0.7231(9) 0.0872(2)
H21_3 H 0.7087 0.7516 0.0982
C27_3 C 0.7621(6) 0.7941(9) 0.0627(2)
H22_3 H 0.7364 0.8690 0.0571
C28_3 C 0.8157(5) 0.7559(9) 0.0465(2)
C29_3 C 0.8325(6) 0.8262(11) 0.0189(2)
C30_3 C 0.7954(6) 0.9315(11) 0.0083(2)
H23_3 H 0.7584 0.9625 0.0189
C33_3 C 0.8839(6) 0.7841(11) 0.0024(2)
H26_3 H 0.9110 0.7112 0.0087
C34_3 C 0.8533(6) 0.6483(10) 0.0567(3)
H27_3 H 0.8920 0.6200 0.0468
C35_3 C 0.8337(6) 0.5825(11) 0.0815(3)
H28_3 H 0.8602 0.5096 0.0883
N1_3 N 0.8094(4) 0.5047(6) 0.23967(15)
N5_3 N 0.8008(4) 0.9219(6) 0.16761(16)
N6_3 N 0.9170(4) 0.9422(6) 0.19376(15)
N8_3 N 0.6841(4) 0.9234(6) 0.14305(16)
N9_3 N 0.7796(4) 0.6164(7) 0.09625(16)
O6_3 O 0.9336(4) 0.9824(7) 0.07130(19)
O9_3 O 0.7105(3) 0.6885(5) 0.20163(13)
O10_3 O 0.7176(3) 0.6747(5) 0.15099(13)
H30_3 H 0.6827 0.3623 0.1677
N11_2 N 0.8598(4) 0.5058(7) 0.15737(17)
C31_3 C 0.8112(6) 0.9931(11) 0.9825(2)
C32_3 C 0.8963(6) 0.8493(11) 0.9762(2)
H25_3 H 0.9307 0.8171 0.9643
N10_3 N 0.8620(5) 0.9557(9) 0.9668(2)
C12_4 C 0.1622(4) 0.0694(7) 0.37732(19)
C16_4 C 0.0181(4) 0.0181(8) 0.3017(2)
H12_4 H 0.0323 0.1066 0.3049
C21_4 C 0.3923(5) 0.1081(9) 0.3774(2)
C22_4 C 0.0696(5) 0.1739(8) 0.4012(2)
H17_4 H 0.0433 0.1803 0.3799
H18_4 H 0.0672 0.2562 0.4112
C23_4 C 0.0327(5) 0.0785(10) 0.4188(2)
C24_4 C 0.2025(5) 0.1868(8) 0.4240(2)
H19_4 H 0.2340 0.1155 0.4313
H20_4 H 0.1807 0.2186 0.4417
C25_4 C 0.2480(5) 0.2893(8) 0.4124(2)
H24_4 H 0.2157 0.0656 0.5243
N3_4 N 0.1105(4) 0.0407(6) 0.35347(16)
N4_4 N 0.2319(4) 0.0332(6) 0.37983(16)
N7_4 N 0.1450(4) 0.1437(7) 0.39975(17)
O1_4 O 0.1496(3) 0.0767(5) 0.26341(15)
O7_4 O 0.2273(3) 0.3414(5) 0.38738(14)
O8_4 O 0.3063(3) 0.3135(6) 0.43121(15)
O11_4 O 0.3602(3) 0.1680(5) 0.35434(17)
O12_4 O 0.4415(5) 0.1470(8) 0.3974(2)
O13_4 O 0.3610(3) 0.4736(5) 0.38399(13)
H29_4 H 0.3162 0.4595 0.3834
O15_4 O 0.4666(3) 0.3305(6) 0.43970(15)
H31_4 H 0.4543 0.2556 0.4353
H32_2 H 0.5039 0.3494 0.4317
N12_4 N 0.3620(5) 0.5443(9) 0.4668(2)
O21_4 O 0.2813(3) 0.4101(5) 0.32724(12)
Zn11_4 Zn 0.11437(6) 0.05003(11) 0.57138(3)
C1_4 C 0.1682(5) 0.6072(8) 0.2444(2)
H1_4 H 0.1964 0.6808 0.2477
C2_4 C 0.1059(4) 0.6106(7) 0.22327(19)
H2_4 H 0.0926 0.6852 0.2122
C3_4 C 0.0619(4) 0.5047(8) 0.21808(19)
C9_4 C 0.0863(5) 0.3979(8) 0.2349(2)
H7_4 H 0.0589 0.3231 0.2323
C10_4 C 0.1495(4) 0.4009(8) 0.2551(2)
H8_4 H 0.1653 0.3268 0.2659
C11_4 C 0.1327(4) 0.9680(7) 0.33169(19)
C13_4 C 0.2462(4) 0.9592(7) 0.35646(19)
C14_4 C 0.1057(4) 0.8806(7) 0.27999(18)
H9_4 H 0.0635 0.8379 0.2683
H10_4 H 0.1415 0.8157 0.2877
C15_4 C 0.1387(5) 0.9649(8) 0.2580(2)
C18_4 C 0.3323(4) 0.8566(7) 0.32975(19)
H13_4 H 0.3853 0.8471 0.3313
H14_4 H 0.3157 0.9070 0.3111
C19_4 C 0.2977(4) 0.7289(8) 0.3258(2)
C20_4 C 0.3723(5) 0.9706(8) 0.3798(2)
H15_4 H 0.4162 0.9203 0.3788
H16_4 H 0.3579 0.9568 0.4004
C26_4 C 0.2543(6) 0.7231(9) 0.4128(2)
H21_4 H 0.2913 0.7516 0.4018
C27_4 C 0.2379(6) 0.7941(9) 0.4373(2)
H22_4 H 0.2636 0.8690 0.4429
C28_4 C 0.1843(5) 0.7559(9) 0.4535(2)
C29_4 C 0.1675(6) 0.8262(11) 0.4811(2)
C30_4 C 0.2046(6) 0.9315(11) 0.4917(2)
H23_4 H 0.2416 0.9625 0.4811
C31_4 C 0.1888(6) 0.9931(11) 0.5175(2)
C32_4 C 0.1037(6) 0.8493(11) 0.5238(2)
H25_4 H 0.0693 0.8171 0.5357
C33_4 C 0.1161(6) 0.7841(11) 0.4976(2)
H26_4 H 0.0890 0.7112 0.4913
C34_4 C 0.1467(6) 0.6483(10) 0.4433(3)
H27_4 H 0.1080 0.6200 0.4532
C35_4 C 0.1663(6) 0.5825(11) 0.4185(3)
H28_4 H 0.1398 0.5096 0.4117
N1_4 N 0.1906(4) 0.5047(6) 0.26033(15)
N5_4 N 0.1992(4) 0.9219(6) 0.33239(16)
N6_4 N 0.0830(4) 0.9422(6) 0.30624(15)
N8_4 N 0.3159(4) 0.9234(6) 0.35695(16)
N9_4 N 0.2204(4) 0.6164(7) 0.40375(16)
N10_4 N 0.1380(5) 0.9557(9) 0.5332(2)
O6_4 O 0.0664(4) 0.9824(7) 0.42870(19)
O9_4 O 0.2895(3) 0.6885(5) 0.29837(13)
O10_4 O 0.2824(3) 0.6747(5) 0.34901(13)
H30_4 H 0.3173 0.3623 0.3323
H11_4 H 0.9950 0.0090 0.2800
O3_4 O 0.9233(4) 0.0717(6) 0.32874(19)
C4_4 C 0.9932(4) 0.5055(8) 0.19558(19)
C5_4 C 0.9580(5) 0.6146(8) 0.1869(2)
H3_4 H 0.9787 0.6922 0.1940
C6_4 C 0.8924(5) 0.6116(8) 0.1680(2)
H4_4 H 0.8691 0.6885 0.1622
C7_4 C 0.8953(5) 0.3990(8) 0.1652(2)
H5_4 H 0.8737 0.3226 0.1577
C8_4 C 0.9616(4) 0.3957(8) 0.1835(2)
H6_4 H 0.9857 0.3183 0.1878
C17_4 C 0.9627(4) 0.9875(8) 0.3226(2)
C7_5 C 0.3953(5) 0.1010(8) 0.6652(2)
H5_5 H 0.3737 0.1774 0.6577
C8_5 C 0.4616(4) 0.1043(8) 0.6835(2)
H6_5 H 0.4857 0.1817 0.6878
C9_5 C 0.5863(5) 0.1021(8) 0.7349(2)
H7_5 H 0.5589 0.1769 0.7323
C10_5 C 0.6495(4) 0.0991(8) 0.7551(2)
H8_5 H 0.6653 0.1732 0.7659
O14 O 0.7813(3) 0.0899(5) 0.82724(12)
H30_5 H 0.8173 0.1377 0.8323
O16_3 O 0.8481(3) 0.0913(5) 0.76644(12)
O19 O 0.7273(3) 0.1586(5) 0.88738(14)
O20 O 0.8610(3) 0.0264(5) 0.88399(13)
Zn8 Zn 0.87500(5) 0.15080(9) 0.85155(2)
C31_5 C 0.6888(6) 0.5069(11) 0.0175(2)
H24_5 H 0.7157 0.4344 0.0243
C32_5 C 0.6037(6) 0.6507(11) 0.0238(2)
H25_5 H 0.5693 0.6829 0.0357
C1_5 C 0.6682(5) 0.8928(8) 0.7444(2)
H1_5 H 0.6964 0.8192 0.7477
C2_5 C 0.6059(4) 0.8894(7) 0.72327(19)
H2_5 H 0.5926 0.8148 0.7122
C3_5 C 0.5619(4) 0.9953(8) 0.71808(19)
C4_5 C 0.4932(4) 0.9945(8) 0.69558(19)
C5_5 C 0.4580(5) 0.8854(8) 0.6869(2)
H3_5 H 0.4787 0.8078 0.6940
C6_5 C 0.3924(5) 0.8884(8) 0.6680(2)
H4_5 H 0.3691 0.8115 0.6622
C11_5 C 0.6327(4) 0.5320(7) 0.83169(19)
C12_5 C 0.6622(4) 0.4306(7) 0.87732(19)
C13_5 C 0.7462(4) 0.5408(7) 0.85646(19)
C14_5 C 0.6057(4) 0.6194(7) 0.77999(18)
H9_5 H 0.5635 0.6621 0.7683
H10_5 H 0.6415 0.6843 0.7877
C15_5 C 0.6387(5) 0.5351(8) 0.7580(2)
C16_5 C 0.5181(4) 0.4819(8) 0.8017(2)
H11_5 H 0.4950 0.4910 0.7800
H12_5 H 0.5323 0.3934 0.8049
C17_5 C 0.4627(4) 0.5125(8) 0.8226(2)
C18_5 C 0.8323(4) 0.6434(7) 0.82975(19)
H13_5 H 0.8853 0.6529 0.8313
H14_5 H 0.8157 0.5930 0.8111
C19_5 C 0.7977(4) 0.7711(8) 0.8258(2)
C20_5 C 0.8723(5) 0.5294(8) 0.8798(2)
H15_5 H 0.9162 0.5797 0.8788
H16_5 H 0.8579 0.5432 0.9004
C21_5 C 0.8923(5) 0.3919(9) 0.8774(2)
C22_5 C 0.5696(5) 0.3261(8) 0.9012(2)
H17_5 H 0.5433 0.3197 0.8799
H18_5 H 0.5672 0.2438 0.9112
C23_5 C 0.5327(5) 0.4215(10) 0.9188(2)
C24_5 C 0.7025(5) 0.3132(8) 0.9240(2)
H19_5 H 0.7340 0.3845 0.9313
H20_5 H 0.6807 0.2814 0.9417
C25_5 C 0.7480(5) 0.2107(8) 0.9124(2)
C26_5 C 0.7543(6) 0.7769(9) 0.9128(2)
H21_5 H 0.7913 0.7484 0.9018
C27_5 C 0.7379(6) 0.7059(9) 0.9373(2)
H22_5 H 0.7636 0.6310 0.9429
C28_5 C 0.6843(5) 0.7441(9) 0.9535(2)
C29_5 C 0.6675(6) 0.6738(11) 0.9811(2)
C30_5 C 0.7046(6) 0.5685(11) 0.9917(2)
H23_5 H 0.7416 0.5375 0.9811
C33_5 C 0.6161(6) 0.7159(11) 0.9976(2)
H26_5 H 0.5890 0.7888 0.9913
C34_5 C 0.6467(6) 0.8517(10) 0.9433(3)
H27_5 H 0.6080 0.8800 0.9532
C35_5 C 0.6663(6) 0.9175(11) 0.9185(3)
H28_5 H 0.6398 0.9904 0.9117
N1_5 N 0.6906(4) 0.9953(6) 0.76033(15)
N2_3 N 0.3598(4) 0.9942(7) 0.65737(17)
N3_5 N 0.6105(4) 0.4593(6) 0.85347(16)
N4_5 N 0.7319(4) 0.4668(6) 0.87983(16)
N5_5 N 0.6992(4) 0.5781(6) 0.83239(16)
N6_5 N 0.5830(4) 0.5578(6) 0.80624(15)
N7_5 N 0.6450(4) 0.3563(7) 0.89975(17)
N8_5 N 0.8159(4) 0.5766(6) 0.85695(16)
N9_5 N 0.7204(4) 0.8836(7) 0.90375(16)
O1_5 O 0.6496(3) 0.4233(5) 0.76341(15)
O2_3 O 0.6519(3) 0.5913(5) 0.73356(12)
O3_5 O 0.4233(4) 0.4283(6) 0.82874(19)
O4_3 O 0.4594(3) 0.6252(5) 0.83145(14)
O5_3 O 0.4673(3) 0.4001(6) 0.92075(15)
O6_5 O 0.5664(4) 0.5176(7) 0.92870(19)
O8_5 O 0.8063(3) 0.1865(6) 0.93121(15)
O9_5 O 0.7895(3) 0.8115(5) 0.79837(13)
O10_5 O 0.7824(3) 0.8253(5) 0.84901(13)
O11_5 O 0.8602(3) 0.3320(5) 0.85434(17)
O12_5 O 0.9415(5) 0.3530(8) 0.8974(2)
H29_5 H 0.8162 0.0405 0.8834
O15_5 O 0.9666(3) 0.1695(6) 0.93970(15)
H31_5 H 0.9543 0.2444 0.9353
Zn1_3 Zn 0.78838(5) 0.98924(9) 0.79042(2)
Zn2 Zn 0.74843(5) 0.99348(9) 0.86552(2)
N11_3 N 0.6402(4) 0.9942(7) 0.84263(17)
O17_3 O 0.9594(3) 0.1252(5) 0.83145(14)
Zn5_3 Zn 0.71162(5) 0.48924(9) 0.70958(2)
Zn7_3 Zn 0.25157(5) 0.99348(9) 0.63448(2)
Zn9_3 Zn 0.37500(5) 0.65080(9) 0.85155(2)
O18_3 O 0.9673(3) 0.9001(6) 0.92075(15)
C7_6 C 0.6047(5) 0.1010(8) 0.8348(2)
H5_6 H 0.6263 0.1774 0.8423
C8_6 C 0.5384(4) 0.1043(8) 0.8165(2)
H6_6 H 0.5143 0.1817 0.8122
C9_6 C 0.4137(5) 0.1021(8) 0.7651(2)
H7_6 H 0.4411 0.1769 0.7677
C10_6 C 0.3505(4) 0.0991(8) 0.7449(2)
H8_6 H 0.3347 0.1732 0.7341
O14_2 O 0.2187(3) 0.0899(5) 0.67276(12)
H30_6 H 0.1827 0.1377 0.6677
O16_4 O 0.1519(3) 0.0913(5) 0.73356(12)
O19_2 O 0.2727(3) 0.1586(5) 0.61262(14)
O20_2 O 0.1390(3) 0.0264(5) 0.61601(13)
Zn8_2 Zn 0.12500(5) 0.15080(9) 0.64845(2)
C1_6 C 0.3318(5) 0.8928(8) 0.7556(2)
H1_6 H 0.3036 0.8192 0.7523
C2_6 C 0.3941(4) 0.8894(7) 0.77673(19)
H2_6 H 0.4074 0.8148 0.7878
C3_6 C 0.4381(4) 0.9953(8) 0.78192(19)
C4_6 C 0.5068(4) 0.9945(8) 0.80442(19)
C5_6 C 0.5420(5) 0.8854(8) 0.8131(2)
H3_6 H 0.5213 0.8078 0.8060
C6_6 C 0.6076(5) 0.8884(8) 0.8320(2)
H4_6 H 0.6309 0.8115 0.8378
C11_6 C 0.3673(4) 0.5320(7) 0.66831(19)
C12_6 C 0.3378(4) 0.4306(7) 0.62268(19)
C13_6 C 0.2538(4) 0.5408(7) 0.64354(19)
C14_6 C 0.3943(4) 0.6194(7) 0.72001(18)
H9_6 H 0.4365 0.6621 0.7317
H10_6 H 0.3585 0.6843 0.7123
C15_6 C 0.3613(5) 0.5351(8) 0.7420(2)
C16_6 C 0.4819(4) 0.4819(8) 0.6983(2)
H11_6 H 0.5050 0.4910 0.7200
H12_6 H 0.4677 0.3934 0.6951
C17_6 C 0.5373(4) 0.5125(8) 0.6774(2)
C18_6 C 0.1677(4) 0.6434(7) 0.67025(19)
H13_6 H 0.1147 0.6529 0.6687
H14_6 H 0.1843 0.5930 0.6889
C19_6 C 0.2023(4) 0.7711(8) 0.6742(2)
C20_6 C 0.1277(5) 0.5294(8) 0.6202(2)
H15_6 H 0.0838 0.5797 0.6212
H16_6 H 0.1421 0.5432 0.5996
C21_6 C 0.1077(5) 0.3919(9) 0.6226(2)
C22_6 C 0.4304(5) 0.3261(8) 0.5988(2)
H17_6 H 0.4567 0.3197 0.6201
H18_6 H 0.4328 0.2438 0.5888
C23_6 C 0.4673(5) 0.4215(10) 0.5812(2)
C24_6 C 0.2975(5) 0.3132(8) 0.5760(2)
H19_6 H 0.2660 0.3845 0.5687
H20_6 H 0.3193 0.2814 0.5583
C25_6 C 0.2520(5) 0.2107(8) 0.5876(2)
C26_6 C 0.2457(6) 0.7769(9) 0.5872(2)
H21_6 H 0.2087 0.7484 0.5982
C27_6 C 0.2621(6) 0.7059(9) 0.5627(2)
H22_6 H 0.2364 0.6310 0.5571
C28_6 C 0.3157(5) 0.7441(9) 0.5465(2)
C29_6 C 0.3325(6) 0.6738(11) 0.5189(2)
C30_6 C 0.2954(6) 0.5685(11) 0.5083(2)
H23_6 H 0.2584 0.5375 0.5189
C31_6 C 0.3112(6) 0.5069(11) 0.4825(2)
H24_6 H 0.2843 0.4344 0.4757
C32_6 C 0.3963(6) 0.6507(11) 0.4762(2)
H25_6 H 0.4307 0.6829 0.4643
C33_6 C 0.3839(6) 0.7159(11) 0.5024(2)
H26_6 H 0.4110 0.7888 0.5087
C34_6 C 0.3533(6) 0.8517(10) 0.5567(3)
H27_6 H 0.3920 0.8800 0.5468
C35_6 C 0.3337(6) 0.9175(11) 0.5815(3)
H28_6 H 0.3602 0.9904 0.5883
N1_6 N 0.3094(4) 0.9953(6) 0.73967(15)
N3_6 N 0.3895(4) 0.4593(6) 0.64653(16)
N4_6 N 0.2681(4) 0.4668(6) 0.62017(16)
N5_6 N 0.3008(4) 0.5781(6) 0.66761(16)
N6_6 N 0.4170(4) 0.5578(6) 0.69376(15)
N7_6 N 0.3550(4) 0.3563(7) 0.60025(17)
N8_6 N 0.1841(4) 0.5766(6) 0.64305(16)
N9_6 N 0.2796(4) 0.8836(7) 0.59625(16)
O1_6 O 0.3504(3) 0.4233(5) 0.73659(15)
O2_4 O 0.3481(3) 0.5913(5) 0.76644(12)
O3_6 O 0.5767(4) 0.4283(6) 0.67126(19)
O4_4 O 0.5406(3) 0.6252(5) 0.66855(14)
O5_4 O 0.5327(3) 0.4001(6) 0.57925(15)
O6_6 O 0.4336(4) 0.5176(7) 0.57130(19)
O8_6 O 0.1937(3) 0.1865(6) 0.56879(15)
O9_6 O 0.2105(3) 0.8115(5) 0.70163(13)
O10_6 O 0.2176(3) 0.8253(5) 0.65099(13)
O11_6 O 0.1398(3) 0.3320(5) 0.64566(17)
O12_6 O 0.0585(5) 0.3530(8) 0.6026(2)
H29_6 H 0.1838 0.0405 0.6166
O15_6 O 0.0334(3) 0.1695(6) 0.56030(15)
H31_6 H 0.0457 0.2444 0.5647
Zn1_4 Zn 0.21162(5) 0.98924(9) 0.70958(2)
O17_4 O 0.0406(3) 0.1252(5) 0.66855(14)
Zn5_4 Zn 0.28838(5) 0.48924(9) 0.79042(2)
Zn9_4 Zn 0.62500(5) 0.65080(9) 0.64845(2)
O18_4 O 0.0327(3) 0.9001(6) 0.57925(15)
C31_7 C 0.1888(6) 0.0069(11) 0.0175(2)
C32_7 C 0.1037(6) 0.1507(11) 0.0238(2)
H25_7 H 0.0693 0.1829 0.0357
C1_7 C 0.1682(5) 0.3928(8) 0.7444(2)
H1_7 H 0.1964 0.3192 0.7477
C2_7 C 0.1059(4) 0.3894(7) 0.72327(19)
H2_7 H 0.0926 0.3148 0.7122
C3_7 C 0.0619(4) 0.4953(8) 0.71808(19)
C9_7 C 0.0863(5) 0.6021(8) 0.7349(2)
H7_7 H 0.0589 0.6769 0.7323
C10_7 C 0.1495(4) 0.5991(8) 0.7551(2)
H8_7 H 0.1653 0.6732 0.7659
C11_7 C 0.1327(4) 0.0320(7) 0.83169(19)
C13_7 C 0.2462(4) 0.0408(7) 0.85646(19)
C14_7 C 0.1057(4) 0.1194(7) 0.77999(18)
H9_7 H 0.0635 0.1621 0.7683
H10_7 H 0.1415 0.1843 0.7877
C15_7 C 0.1387(5) 0.0351(8) 0.7580(2)
C18_7 C 0.3323(4) 0.1434(7) 0.82975(19)
H13_7 H 0.3853 0.1529 0.8313
H14_7 H 0.3157 0.0930 0.8111
C19_7 C 0.2977(4) 0.2711(8) 0.8258(2)
C20_7 C 0.3723(5) 0.0294(8) 0.8798(2)
H15_7 H 0.4162 0.0797 0.8788
H16_7 H 0.3579 0.0432 0.9004
C26_7 C 0.2543(6) 0.2769(9) 0.9128(2)
H21_7 H 0.2913 0.2484 0.9018
C27_7 C 0.2379(6) 0.2059(9) 0.9373(2)
H22_7 H 0.2636 0.1310 0.9429
C28_7 C 0.1843(5) 0.2441(9) 0.9535(2)
C29_7 C 0.1675(6) 0.1738(11) 0.9811(2)
C30_7 C 0.2046(6) 0.0685(11) 0.9917(2)
H23_7 H 0.2416 0.0375 0.9811
C33_7 C 0.1161(6) 0.2159(11) 0.9976(2)
H26_7 H 0.0890 0.2888 0.9913
C34_7 C 0.1467(6) 0.3517(10) 0.9433(3)
H27_7 H 0.1080 0.3800 0.9532
C35_7 C 0.1663(6) 0.4175(11) 0.9185(3)
H28_7 H 0.1398 0.4904 0.9117
N1_7 N 0.1906(4) 0.4953(6) 0.76033(15)
N5_7 N 0.1992(4) 0.0781(6) 0.83239(16)
N6_7 N 0.0830(4) 0.0578(6) 0.80624(15)
N8_7 N 0.3159(4) 0.0766(6) 0.85695(16)
N9_7 N 0.2204(4) 0.3836(7) 0.90375(16)
O6_7 O 0.0664(4) 0.0176(7) 0.92870(19)
O9_7 O 0.2895(3) 0.3115(5) 0.79837(13)
O10_7 O 0.2824(3) 0.3253(5) 0.84901(13)
O14_3 O 0.2813(3) 0.5899(5) 0.82724(12)
H30_7 H 0.3173 0.6377 0.8323
Zn2_2 Zn 0.24843(5) 0.49348(9) 0.86552(2)
N11_4 N 0.1402(4) 0.4942(7) 0.84263(17)
O19_3 O 0.2273(3) 0.6586(5) 0.88738(14)
O20_3 O 0.3610(3) 0.5264(5) 0.88399(13)
H24_7 H 0.2157 0.9344 0.0243
C12_7 C 0.1622(4) 0.9306(7) 0.87732(19)
C16_7 C 0.0181(4) 0.9819(8) 0.8017(2)
H12_7 H 0.0323 0.8934 0.8049
C21_7 C 0.3923(5) 0.8919(9) 0.8774(2)
C22_7 C 0.0696(5) 0.8261(8) 0.9012(2)
H17_7 H 0.0433 0.8197 0.8799
H18_7 H 0.0672 0.7438 0.9112
C23_7 C 0.0327(5) 0.9215(10) 0.9188(2)
C24_7 C 0.2025(5) 0.8132(8) 0.9240(2)
H19_7 H 0.2340 0.8845 0.9313
H20_7 H 0.1807 0.7814 0.9417
C25_7 C 0.2480(5) 0.7107(8) 0.9124(2)
N3_7 N 0.1105(4) 0.9593(6) 0.85347(16)
N4_7 N 0.2319(4) 0.9668(6) 0.87983(16)
N7_7 N 0.1450(4) 0.8563(7) 0.89975(17)
O1_7 O 0.1496(3) 0.9233(5) 0.76341(15)
O8_7 O 0.3063(3) 0.6865(6) 0.93121(15)
O11_7 O 0.3602(3) 0.8320(5) 0.85434(17)
O12_7 O 0.4415(5) 0.8530(8) 0.8974(2)
H29_7 H 0.3162 0.5405 0.8834
O15_7 O 0.4666(3) 0.6695(6) 0.93970(15)
H31_7 H 0.4543 0.7444 0.9353
H32_3 H 0.5039 0.6506 0.9317
C4_7 C 0.9932(4) 0.4945(8) 0.69558(19)
C5_7 C 0.9580(5) 0.3854(8) 0.6869(2)
H3_7 H 0.9787 0.3078 0.6940
C6_7 C 0.8924(5) 0.3884(8) 0.6680(2)
H4_7 H 0.8691 0.3115 0.6622
C7_7 C 0.8953(5) 0.6010(8) 0.6652(2)
H5_7 H 0.8737 0.6774 0.6577
C8_7 C 0.9616(4) 0.6043(8) 0.6835(2)
H6_7 H 0.9857 0.6817 0.6878
C17_7 C 0.9627(4) 0.0125(8) 0.8226(2)
N2_4 N 0.8598(4) 0.4942(7) 0.65737(17)
Zn7_4 Zn 0.75157(5) 0.49348(9) 0.63448(2)
H11_7 H 0.9950 0.9910 0.7800
O3_7 O 0.9233(4) 0.9283(6) 0.82874(19)
C4_8 C 0.0068(4) 0.4945(8) 0.80442(19)
C5_8 C 0.0420(5) 0.3854(8) 0.8131(2)
H3_8 H 0.0213 0.3078 0.8060
C6_8 C 0.1076(5) 0.3884(8) 0.8320(2)
H4_8 H 0.1309 0.3115 0.8378
C7_8 C 0.1047(5) 0.6010(8) 0.8348(2)
H5_8 H 0.1263 0.6774 0.8423
C8_8 C 0.0384(4) 0.6043(8) 0.8165(2)
H6_8 H 0.0143 0.6817 0.8122
C17_8 C 0.0373(4) 0.0125(8) 0.6774(2)
H11_8 H 0.0050 0.9910 0.7200
O3_8 O 0.0767(4) 0.9283(6) 0.67126(19)
C1_8 C 0.8318(5) 0.3928(8) 0.7556(2)
H1_8 H 0.8036 0.3192 0.7523
C2_8 C 0.8941(4) 0.3894(7) 0.77673(19)
H2_8 H 0.9074 0.3148 0.7878
C3_8 C 0.9381(4) 0.4953(8) 0.78192(19)
C9_8 C 0.9137(5) 0.6021(8) 0.7651(2)
H7_8 H 0.9411 0.6769 0.7677
C10_8 C 0.8505(4) 0.5991(8) 0.7449(2)
H8_8 H 0.8347 0.6732 0.7341
C11_8 C 0.8673(4) 0.0320(7) 0.66831(19)
C13_8 C 0.7538(4) 0.0408(7) 0.64354(19)
C14_8 C 0.8943(4) 0.1194(7) 0.72001(18)
H9_8 H 0.9365 0.1621 0.7317
H10_8 H 0.8585 0.1843 0.7123
C15_8 C 0.8613(5) 0.0351(8) 0.7420(2)
C18_8 C 0.6677(4) 0.1434(7) 0.67025(19)
H13_8 H 0.6147 0.1529 0.6687
H14_8 H 0.6843 0.0930 0.6889
C19_8 C 0.7023(4) 0.2711(8) 0.6742(2)
C20_8 C 0.6277(5) 0.0294(8) 0.6202(2)
H15_8 H 0.5838 0.0797 0.6212
H16_8 H 0.6421 0.0432 0.5996
C26_8 C 0.7457(6) 0.2769(9) 0.5872(2)
H21_8 H 0.7087 0.2484 0.5982
C27_8 C 0.7621(6) 0.2059(9) 0.5627(2)
H22_8 H 0.7364 0.1310 0.5571
C28_8 C 0.8157(5) 0.2441(9) 0.5465(2)
C29_8 C 0.8325(6) 0.1738(11) 0.5189(2)
C30_8 C 0.7954(6) 0.0685(11) 0.5083(2)
H23_8 H 0.7584 0.0375 0.5189
C31_8 C 0.8112(6) 0.0069(11) 0.4825(2)
C32_8 C 0.8963(6) 0.1507(11) 0.4762(2)
H25_8 H 0.9307 0.1829 0.4643
C33_8 C 0.8839(6) 0.2159(11) 0.5024(2)
H26_8 H 0.9110 0.2888 0.5087
C34_8 C 0.8533(6) 0.3517(10) 0.5567(3)
H27_8 H 0.8920 0.3800 0.5468
C35_8 C 0.8337(6) 0.4175(11) 0.5815(3)
H28_8 H 0.8602 0.4904 0.5883
N1_8 N 0.8094(4) 0.4953(6) 0.73967(15)
N5_8 N 0.8008(4) 0.0781(6) 0.66761(16)
N6_8 N 0.9170(4) 0.0578(6) 0.69376(15)
N8_8 N 0.6841(4) 0.0766(6) 0.64305(16)
N9_8 N 0.7796(4) 0.3836(7) 0.59625(16)
O6_8 O 0.9336(4) 0.0176(7) 0.57130(19)
O9_8 O 0.7105(3) 0.3115(5) 0.70163(13)
O10_8 O 0.7176(3) 0.3253(5) 0.65099(13)
O14_4 O 0.7187(3) 0.5899(5) 0.67276(12)
H30_8 H 0.6827 0.6377 0.6677
O19_4 O 0.7727(3) 0.6586(5) 0.61262(14)
O20_4 O 0.6390(3) 0.5264(5) 0.61601(13)
C12_8 C 0.8378(4) 0.9306(7) 0.62268(19)
C16_8 C 0.9819(4) 0.9819(8) 0.6983(2)
H12_8 H 0.9677 0.8934 0.6951
C21_8 C 0.6077(5) 0.8919(9) 0.6226(2)
C22_8 C 0.9304(5) 0.8261(8) 0.5988(2)
H17_8 H 0.9567 0.8197 0.6201
H18_8 H 0.9328 0.7438 0.5888
C23_8 C 0.9673(5) 0.9215(10) 0.5812(2)
C24_8 C 0.7975(5) 0.8132(8) 0.5760(2)
H19_8 H 0.7660 0.8845 0.5687
H20_8 H 0.8193 0.7814 0.5583
C25_8 C 0.7520(5) 0.7107(8) 0.5876(2)
H24_8 H 0.7843 0.9344 0.4757
N3_8 N 0.8895(4) 0.9593(6) 0.64653(16)
N4_8 N 0.7681(4) 0.9668(6) 0.62017(16)
N7_8 N 0.8550(4) 0.8563(7) 0.60025(17)
O1_8 O 0.8504(3) 0.9233(5) 0.73659(15)
O8_8 O 0.6937(3) 0.6865(6) 0.56879(15)
O11_8 O 0.6398(3) 0.8320(5) 0.64566(17)
O12_8 O 0.5585(5) 0.8530(8) 0.6026(2)
H29_8 H 0.6838 0.5405 0.6166
O15_8 O 0.5334(3) 0.6695(6) 0.56030(15)
H31_8 H 0.5457 0.7444 0.5647
H32_4 H 0.4961 0.6506 0.5683
H32_5 H 0.9961 0.8494 0.0683
H32_6 H 0.0039 0.8494 0.4317
H32_7 H 0.0039 0.1506 0.9317
H32_8 H 0.9961 0.1506 0.5683
loop_
_geom_bond_atom_site_label_1
_geom_bond_atom_site_label_2
_geom_bond_site_symmetry_1
_geom_bond_site_symmetry_2
C1 H1 1_555 1_555
C2 C1 1_555 1_555
H2 C2 1_555 1_555
C3 C2 1_555 1_555
C4 C3 1_555 1_555
C5 C4 1_555 1_555
H3 C5 1_555 1_555
C6 C5 1_555 1_555
H4 C6 1_555 1_555
C11 N3 1_555 1_555
C12 N3 1_555 1_555
C13 N4 1_555 1_555
C14 H9 1_555 1_555
H10 C14 1_555 1_555
C15 C14 1_555 1_555
C16 H11 1_555 1_555
H12 C16 1_555 1_555
C17 C16 1_555 1_555
C18 H13 1_555 1_555
H14 C18 1_555 1_555
C19 C18 1_555 1_555
C20 H15 1_555 1_555
H16 C20 1_555 1_555
C21 C20 1_555 1_555
C22 H17 1_555 1_555
H18 C22 1_555 1_555
C23 C22 1_555 1_555
C24 H19 1_555 1_555
H20 C24 1_555 1_555
C25 C24 1_555 1_555
C26 H21 1_555 1_555
C27 C26 1_555 1_555
H22 C27 1_555 1_555
C28 C27 1_555 1_555
C29 C28 1_555 1_555
C30 C29 1_555 1_555
H23 C30 1_555 1_555
C33 C29 1_555 1_555
H26 C33 1_555 1_555
C34 C28 1_555 1_555
H27 C34 1_555 1_555
C35 C34 1_555 1_555
H28 C35 1_555 1_555
N1 C1 1_555 1_555
N2 C6 1_555 1_555
N4 C12 1_555 1_555
N5 C11 1_555 1_555
N6 C11 1_555 1_555
N7 C12 1_555 1_555
N8 C13 1_555 1_555
N9 C26 1_555 1_555
O1 C15 1_555 1_555
O2 C15 1_555 1_555
O3 C17 1_555 1_555
O4 C17 1_555 1_555
O5 C23 1_555 1_555
O6 C23 1_555 1_555
O7 C25 1_555 1_555
O8 C25 1_555 1_555
O9 C19 1_555 1_555
O10 C19 1_555 1_555
O11 C21 1_555 1_555
O12 C21 1_555 1_555
O13 H29 1_555 1_555
O15 H31 1_555 1_555
Zn1 N1 1_555 1_555
Zn6 N9 1_555 1_555
Zn3 O11 1_555 1_555
Zn4 O8 1_555 1_555
N11 Zn6 1_555 1_555
O17 Zn3 1_555 1_555
O21 Zn3 1_555 1_555
Zn5 O2 1_555 1_555
Zn7 N2 1_555 1_555
Zn9 O4 1_555 1_555
Zn10 O5 1_555 1_555
C13 N5 1_555 1_555
C14 N6 1_555 1_555
C16 N6 1_555 1_555
C18 N8 1_555 1_555
C20 N8 1_555 1_555
C22 N7 1_555 1_555
C24 N7 1_555 1_555
C35 N9 1_555 1_555
O9 Zn1 1_555 1_555
O10 Zn6 1_555 1_555
O13 Zn3 1_555 1_555
O13 Zn4 1_555 1_555
O15 Zn4 1_555 1_555
H24 C31 1_555 1_555
C32 H25 1_555 1_555
N10 C31 1_555 1_555
Zn11 N10 1_555 1_555
C32 N10 1_555 1_555
C7 H5 1_555 1_555
H6 C8 1_555 1_555
H7 C9 1_555 1_555
C10 C9 1_555 1_555
H8 C10 1_555 1_555
O21 H30 1_555 1_555
C7 C8 1_555 1_555
C1_2 H1_2 1_555 1_555
C2_2 C1_2 1_555 1_555
H2_2 C2_2 1_555 1_555
C3_2 C2_2 1_555 1_555
C4_2 C3_2 1_555 1_555
C5_2 C4_2 1_555 1_555
H3_2 C5_2 1_555 1_555
C6_2 C5_2 1_555 1_555
H4_2 C6_2 1_555 1_555
C11_2 N3_2 1_555 1_555
C12_2 N3_2 1_555 1_555
C13_2 N4_2 1_555 1_555
C14_2 H9_2 1_555 1_555
H10_2 C14_2 1_555 1_555
C15_2 C14_2 1_555 1_555
C16_2 H11_2 1_555 1_555
H12_2 C16_2 1_555 1_555
C17_2 C16_2 1_555 1_555
C18_2 H13_2 1_555 1_555
H14_2 C18_2 1_555 1_555
C19_2 C18_2 1_555 1_555
C20_2 H15_2 1_555 1_555
H16_2 C20_2 1_555 1_555
C21_2 C20_2 1_555 1_555
C22_2 H17_2 1_555 1_555
H18_2 C22_2 1_555 1_555
C23_2 C22_2 1_555 1_555
C24_2 H19_2 1_555 1_555
H20_2 C24_2 1_555 1_555
C25_2 C24_2 1_555 1_555
C26_2 H21_2 1_555 1_555
C27_2 C26_2 1_555 1_555
H22_2 C27_2 1_555 1_555
C28_2 C27_2 1_555 1_555
C29_2 C28_2 1_555 1_555
C30_2 C29_2 1_555 1_555
H23_2 C30_2 1_555 1_555
C31_2 C30_2 1_555 1_555
H24_2 C31_2 1_555 1_555
C32_2 H25_2 1_555 1_555
C33_2 C29_2 1_555 1_555
H26_2 C33_2 1_555 1_555
C34_2 C28_2 1_555 1_555
H27_2 C34_2 1_555 1_555
C35_2 C34_2 1_555 1_555
H28_2 C35_2 1_555 1_555
N1_2 C1_2 1_555 1_555
N11 C6_2 1_555 1_555
N4_2 C12_2 1_555 1_555
N5_2 C11_2 1_555 1_555
N6_2 C11_2 1_555 1_555
N7_2 C12_2 1_555 1_555
N8_2 C13_2 1_555 1_555
N9_2 C26_2 1_555 1_555
N10_2 C31_2 1_555 1_555
O1_2 C15_2 1_555 1_555
O2_2 C15_2 1_555 1_555
O3_2 C17_2 1_555 1_555
O4_2 C17_2 1_555 1_555
O5_2 C23_2 1_555 1_555
O6_2 C23_2 1_555 1_555
O7_2 C25_2 1_555 1_555
O8_2 C25_2 1_555 1_555
O9_2 C19_2 1_555 1_555
O10_2 C19_2 1_555 1_555
O11_2 C21_2 1_555 1_555
O12_2 C21_2 1_555 1_555
O13_2 H29_2 1_555 1_555
O15_2 H31_2 1_555 1_555
Zn1_2 N1_2 1_555 1_555
Zn7 N9_2 1_555 1_555
Zn3_2 O11_2 1_555 1_555
Zn4_2 O8_2 1_555 1_555
O17_2 Zn3_2 1_555 1_555
O21_2 Zn3_2 1_555 1_555
Zn5_2 O2_2 1_555 1_555
Zn9_2 O4_2 1_555 1_555
Zn10_2 O5_2 1_555 1_555
Zn11_2 N10_2 1_555 1_555
C13_2 N5_2 1_555 1_555
C14_2 N6_2 1_555 1_555
C16_2 N6_2 1_555 1_555
C18_2 N8_2 1_555 1_555
C20_2 N8_2 1_555 1_555
C22_2 N7_2 1_555 1_555
C24_2 N7_2 1_555 1_555
C32_2 C33_2 1_555 1_555
C32_2 N10_2 1_555 1_555
C35_2 N9_2 1_555 1_555
O9_2 Zn1_2 1_555 1_555
O10_2 Zn7 1_555 1_555
O13_2 Zn3_2 1_555 1_555
O13_2 Zn4_2 1_555 1_555
O15_2 Zn4_2 1_555 1_555
C7_2 H5_2 1_555 1_555
H6_2 C8_2 1_555 1_555
H7_2 C9_2 1_555 1_555
C10_2 C9_2 1_555 1_555
H8_2 C10_2 1_555 1_555
O21_2 H30_2 1_555 1_555
C7_2 C8_2 1_555 1_555
C5_3 C4_3 1_555 1_555
H3_3 C5_3 1_555 1_555
C6_3 C5_3 1_555 1_555
H4_3 C6_3 1_555 1_555
C7_3 H5_3 1_555 1_555
C8_3 C4_3 1_555 1_555
H6_3 C8_3 1_555 1_555
N2_2 C6_3 1_555 1_555
O17 C17_3 1_555 1_555
Zn7_2 N2_2 1_555 1_555
C7_3 C8_3 1_555 1_555
C7_3 N2_2 1_555 1_555
C12_3 N3_3 1_555 1_555
H12_3 C16_3 1_555 1_555
C22_3 H17_3 1_555 1_555
H18_3 C22_3 1_555 1_555
C23_3 C22_3 1_555 1_555
C24_3 H19_3 1_555 1_555
H20_3 C24_3 1_555 1_555
C25_3 C24_3 1_555 1_555
N4_3 C12_3 1_555 1_555
N7_3 C12_3 1_555 1_555
O7_3 C25_3 1_555 1_555
O8_3 C25_3 1_555 1_555
O11_3 C21_3 1_555 1_555
O12_3 C21_3 1_555 1_555
O13_3 H29_3 1_555 1_555
O15_3 H31_3 1_555 1_555
H32 O15_3 1_555 1_555
Zn9 O11_3 1_555 1_555
Zn10 O8_3 1_555 1_555
N12_3 Zn10 1_555 1_555
O21_3 Zn9 1_555 1_555
Zn6_2 O7_3 1_555 1_555
C22_3 N7_3 1_555 1_555
C24_3 N7_3 1_555 1_555
O13_3 Zn9 1_555 1_555
O13_3 Zn10 1_555 1_555
O13_3 Zn6_2 1_555 1_555
O15_3 Zn10 1_555 1_555
O21_3 Zn6_2 1_555 1_555
C1_3 H1_3 1_555 1_555
C2_3 C1_3 1_555 1_555
H2_3 C2_3 1_555 1_555
C3_3 C2_3 1_555 1_555
C9_3 C3_3 1_555 1_555
H7_3 C9_3 1_555 1_555
C10_3 C9_3 1_555 1_555
H8_3 C10_3 1_555 1_555
C14_3 H9_3 1_555 1_555
H10_3 C14_3 1_555 1_555
C15_3 C14_3 1_555 1_555
C18_3 H13_3 1_555 1_555
H14_3 C18_3 1_555 1_555
C19_3 C18_3 1_555 1_555
C20_3 H15_3 1_555 1_555
H16_3 C20_3 1_555 1_555
C26_3 H21_3 1_555 1_555
C27_3 C26_3 1_555 1_555
H22_3 C27_3 1_555 1_555
C28_3 C27_3 1_555 1_555
C29_3 C28_3 1_555 1_555
C30_3 C29_3 1_555 1_555
H23_3 C30_3 1_555 1_555
C33_3 C29_3 1_555 1_555
H26_3 C33_3 1_555 1_555
C34_3 C28_3 1_555 1_555
H27_3 C34_3 1_555 1_555
C35_3 C34_3 1_555 1_555
H28_3 C35_3 1_555 1_555
N1_3 C1_3 1_555 1_555
N5_3 C11_3 1_555 1_555
N6_3 C11_3 1_555 1_555
N8_3 C13_3 1_555 1_555
N9_3 C26_3 1_555 1_555
O16_2 C15_3 1_555 1_555
O9_3 C19_3 1_555 1_555
O10_3 C19_3 1_555 1_555
O21_3 H30_3 1_555 1_555
Zn5_2 N1_3 1_555 1_555
Zn6_2 N9_3 1_555 1_555
N11_2 Zn6_2 1_555 1_555
C10_3 N1_3 1_555 1_555
C13_3 N5_3 1_555 1_555
C14_3 N6_3 1_555 1_555
C18_3 N8_3 1_555 1_555
C20_3 N8_3 1_555 1_555
C35_3 N9_3 1_555 1_555
O9_3 Zn5_2 1_555 1_555
O10_3 Zn6_2 1_555 1_555
O21_3 Zn5_2 1_555 1_555
C32_3 H25_3 1_555 1_555
N10_3 C31_3 1_555 1_555
C32_3 N10_3 1_555 1_555
C12_4 N3_4 1_555 1_555
H12_4 C16_4 1_555 1_555
C22_4 H17_4 1_555 1_555
H18_4 C22_4 1_555 1_555
C23_4 C22_4 1_555 1_555
C24_4 H19_4 1_555 1_555
H20_4 C24_4 1_555 1_555
C25_4 C24_4 1_555 1_555
N4_4 C12_4 1_555 1_555
N7_4 C12_4 1_555 1_555
O7_4 C25_4 1_555 1_555
O8_4 C25_4 1_555 1_555
O11_4 C21_4 1_555 1_555
O12_4 C21_4 1_555 1_555
O13_4 H29_4 1_555 1_555
O15_4 H31_4 1_555 1_555
H32_2 O15_4 1_555 1_555
Zn9_2 O11_4 1_555 1_555
Zn10_2 O8_4 1_555 1_555
N12_4 Zn10_2 1_555 1_555
O21_4 Zn9_2 1_555 1_555
Zn7_2 O7_4 1_555 1_555
C22_4 N7_4 1_555 1_555
C24_4 N7_4 1_555 1_555
O13_4 Zn9_2 1_555 1_555
O13_4 Zn10_2 1_555 1_555
O13_4 Zn7_2 1_555 1_555
O15_4 Zn10_2 1_555 1_555
O21_4 Zn7_2 1_555 1_555
C1_4 H1_4 1_555 1_555
C2_4 C1_4 1_555 1_555
H2_4 C2_4 1_555 1_555
C3_4 C2_4 1_555 1_555
C9_4 C3_4 1_555 1_555
H7_4 C9_4 1_555 1_555
C10_4 C9_4 1_555 1_555
H8_4 C10_4 1_555 1_555
C14_4 H9_4 1_555 1_555
H10_4 C14_4 1_555 1_555
C15_4 C14_4 1_555 1_555
C18_4 H13_4 1_555 1_555
H14_4 C18_4 1_555 1_555
C19_4 C18_4 1_555 1_555
C20_4 H15_4 1_555 1_555
H16_4 C20_4 1_555 1_555
C26_4 H21_4 1_555 1_555
C27_4 C26_4 1_555 1_555
H22_4 C27_4 1_555 1_555
C28_4 C27_4 1_555 1_555
C29_4 C28_4 1_555 1_555
C30_4 C29_4 1_555 1_555
H23_4 C30_4 1_555 1_555
C31_4 C30_4 1_555 1_555
C32_4 H25_4 1_555 1_555
C33_4 C29_4 1_555 1_555
H26_4 C33_4 1_555 1_555
C34_4 C28_4 1_555 1_555
H27_4 C34_4 1_555 1_555
C35_4 C34_4 1_555 1_555
H28_4 C35_4 1_555 1_555
N1_4 C1_4 1_555 1_555
N5_4 C11_4 1_555 1_555
N6_4 C11_4 1_555 1_555
N8_4 C13_4 1_555 1_555
N9_4 C26_4 1_555 1_555
N10_4 C31_4 1_555 1_555
O16 C15_4 1_555 1_555
O9_4 C19_4 1_555 1_555
O10_4 C19_4 1_555 1_555
O21_4 H30_4 1_555 1_555
Zn5 N1_4 1_555 1_555
Zn7_2 N9_4 1_555 1_555
C10_4 N1_4 1_555 1_555
C13_4 N5_4 1_555 1_555
C14_4 N6_4 1_555 1_555
C18_4 N8_4 1_555 1_555
C20_4 N8_4 1_555 1_555
C32_4 C33_4 1_555 1_555
C32_4 N10_4 1_555 1_555
C35_4 N9_4 1_555 1_555
O9_4 Zn5 1_555 1_555
O10_4 Zn7_2 1_555 1_555
O21_4 Zn5 1_555 1_555
C5_4 C4_4 1_555 1_555
H3_4 C5_4 1_555 1_555
C6_4 C5_4 1_555 1_555
H4_4 C6_4 1_555 1_555
C7_4 H5_4 1_555 1_555
C8_4 C4_4 1_555 1_555
H6_4 C8_4 1_555 1_555
N11_2 C6_4 1_555 1_555
O17_2 C17_4 1_555 1_555
C7_4 C8_4 1_555 1_555
C7_4 N11_2 1_555 1_555
C7_5 H5_5 1_555 1_555
H6_5 C8_5 1_555 1_555
H7_5 C9_5 1_555 1_555
C10_5 C9_5 1_555 1_555
H8_5 C10_5 1_555 1_555
O14 H30_5 1_555 1_555
Zn8 O14 1_555 1_555
C7_5 C8_5 1_555 1_555
O20 Zn8 1_555 1_555
H24_5 C31_5 1_555 1_555
C32_5 H25_5 1_555 1_555
N12_3 C31_5 1_555 1_555
C32_5 N12_3 1_555 1_555
C1_5 H1_5 1_555 1_555
C2_5 C1_5 1_555 1_555
H2_5 C2_5 1_555 1_555
C3_5 C2_5 1_555 1_555
C4_5 C3_5 1_555 1_555
C5_5 C4_5 1_555 1_555
H3_5 C5_5 1_555 1_555
C6_5 C5_5 1_555 1_555
H4_5 C6_5 1_555 1_555
C11_5 N3_5 1_555 1_555
C12_5 N3_5 1_555 1_555
C13_5 N4_5 1_555 1_555
C14_5 H9_5 1_555 1_555
H10_5 C14_5 1_555 1_555
C15_5 C14_5 1_555 1_555
C16_5 H11_5 1_555 1_555
H12_5 C16_5 1_555 1_555
C17_5 C16_5 1_555 1_555
C18_5 H13_5 1_555 1_555
H14_5 C18_5 1_555 1_555
C19_5 C18_5 1_555 1_555
C20_5 H15_5 1_555 1_555
H16_5 C20_5 1_555 1_555
C21_5 C20_5 1_555 1_555
C22_5 H17_5 1_555 1_555
H18_5 C22_5 1_555 1_555
C23_5 C22_5 1_555 1_555
C24_5 H19_5 1_555 1_555
H20_5 C24_5 1_555 1_555
C25_5 C24_5 1_555 1_555
C26_5 H21_5 1_555 1_555
C27_5 C26_5 1_555 1_555
H22_5 C27_5 1_555 1_555
C28_5 C27_5 1_555 1_555
C29_5 C28_5 1_555 1_555
C30_5 C29_5 1_555 1_555
H23_5 C30_5 1_555 1_555
C33_5 C29_5 1_555 1_555
H26_5 C33_5 1_555 1_555
C34_5 C28_5 1_555 1_555
H27_5 C34_5 1_555 1_555
C35_5 C34_5 1_555 1_555
H28_5 C35_5 1_555 1_555
N1_5 C1_5 1_555 1_555
N2_3 C6_5 1_555 1_555
N4_5 C12_5 1_555 1_555
N5_5 C11_5 1_555 1_555
N6_5 C11_5 1_555 1_555
N7_5 C12_5 1_555 1_555
N8_5 C13_5 1_555 1_555
N9_5 C26_5 1_555 1_555
O1_5 C15_5 1_555 1_555
O2_3 C15_5 1_555 1_555
O3_5 C17_5 1_555 1_555
O4_3 C17_5 1_555 1_555
O5_3 C23_5 1_555 1_555
O6_5 C23_5 1_555 1_555
O19 C25_5 1_555 1_555
O8_5 C25_5 1_555 1_555
O9_5 C19_5 1_555 1_555
O10_5 C19_5 1_555 1_555
O11_5 C21_5 1_555 1_555
O12_5 C21_5 1_555 1_555
O20 H29_5 1_555 1_555
O15_5 H31_5 1_555 1_555
Zn1_3 N1_5 1_555 1_555
Zn2 N9_5 1_555 1_555
Zn8 O11_5 1_555 1_555
Zn11_3 O8_5 1_555 1_555
N11_3 Zn2 1_555 1_555
O17_3 Zn8 1_555 1_555
Zn5_3 O2_3 1_555 1_555
Zn7_3 N2_3 1_555 1_555
Zn9_3 O4_3 1_555 1_555
Zn11 O5_3 1_555 1_555
C13_5 N5_5 1_555 1_555
C14_5 N6_5 1_555 1_555
C16_5 N6_5 1_555 1_555
C18_5 N8_5 1_555 1_555
C20_5 N8_5 1_555 1_555
C22_5 N7_5 1_555 1_555
C24_5 N7_5 1_555 1_555
C35_5 N9_5 1_555 1_555
O9_5 Zn1_3 1_555 1_555
O10_5 Zn2 1_555 1_555
O20 Zn11_3 1_555 1_555
O15_5 Zn11_3 1_555 1_555
C7_6 H5_6 1_555 1_555
H6_6 C8_6 1_555 1_555
H7_6 C9_6 1_555 1_555
C10_6 C9_6 1_555 1_555
H8_6 C10_6 1_555 1_555
O14_2 H30_6 1_555 1_555
Zn8_2 O14_2 1_555 1_555
C7_6 C8_6 1_555 1_555
O20_2 Zn8_2 1_555 1_555
C1_6 H1_6 1_555 1_555
C2_6 C1_6 1_555 1_555
H2_6 C2_6 1_555 1_555
C3_6 C2_6 1_555 1_555
C4_6 C3_6 1_555 1_555
C5_6 C4_6 1_555 1_555
H3_6 C5_6 1_555 1_555
C6_6 C5_6 1_555 1_555
H4_6 C6_6 1_555 1_555
C11_6 N3_6 1_555 1_555
C12_6 N3_6 1_555 1_555
C13_6 N4_6 1_555 1_555
C14_6 H9_6 1_555 1_555
H10_6 C14_6 1_555 1_555
C15_6 C14_6 1_555 1_555
C16_6 H11_6 1_555 1_555
H12_6 C16_6 1_555 1_555
C17_6 C16_6 1_555 1_555
C18_6 H13_6 1_555 1_555
H14_6 C18_6 1_555 1_555
C19_6 C18_6 1_555 1_555
C20_6 H15_6 1_555 1_555
H16_6 C20_6 1_555 1_555
C21_6 C20_6 1_555 1_555
C22_6 H17_6 1_555 1_555
H18_6 C22_6 1_555 1_555
C23_6 C22_6 1_555 1_555
C24_6 H19_6 1_555 1_555
H20_6 C24_6 1_555 1_555
C25_6 C24_6 1_555 1_555
C26_6 H21_6 1_555 1_555
C27_6 C26_6 1_555 1_555
H22_6 C27_6 1_555 1_555
C28_6 C27_6 1_555 1_555
C29_6 C28_6 1_555 1_555
C30_6 C29_6 1_555 1_555
H23_6 C30_6 1_555 1_555
C31_6 C30_6 1_555 1_555
H24_6 C31_6 1_555 1_555
C32_6 H25_6 1_555 1_555
C33_6 C29_6 1_555 1_555
H26_6 C33_6 1_555 1_555
C34_6 C28_6 1_555 1_555
H27_6 C34_6 1_555 1_555
C35_6 C34_6 1_555 1_555
H28_6 C35_6 1_555 1_555
N1_6 C1_6 1_555 1_555
N11_3 C6_6 1_555 1_555
N4_6 C12_6 1_555 1_555
N5_6 C11_6 1_555 1_555
N6_6 C11_6 1_555 1_555
N7_6 C12_6 1_555 1_555
N8_6 C13_6 1_555 1_555
N9_6 C26_6 1_555 1_555
N12_4 C31_6 1_555 1_555
O1_6 C15_6 1_555 1_555
O2_4 C15_6 1_555 1_555
O3_6 C17_6 1_555 1_555
O4_4 C17_6 1_555 1_555
O5_4 C23_6 1_555 1_555
O6_6 C23_6 1_555 1_555
O19_2 C25_6 1_555 1_555
O8_6 C25_6 1_555 1_555
O9_6 C19_6 1_555 1_555
O10_6 C19_6 1_555 1_555
O11_6 C21_6 1_555 1_555
O12_6 C21_6 1_555 1_555
O20_2 H29_6 1_555 1_555
O15_6 H31_6 1_555 1_555
Zn1_4 N1_6 1_555 1_555
Zn7_3 N9_6 1_555 1_555
Zn8_2 O11_6 1_555 1_555
Zn11_4 O8_6 1_555 1_555
O17_4 Zn8_2 1_555 1_555
Zn5_4 O2_4 1_555 1_555
Zn9_4 O4_4 1_555 1_555
Zn11_2 O5_4 1_555 1_555
C13_6 N5_6 1_555 1_555
C14_6 N6_6 1_555 1_555
C16_6 N6_6 1_555 1_555
C18_6 N8_6 1_555 1_555
C20_6 N8_6 1_555 1_555
C22_6 N7_6 1_555 1_555
C24_6 N7_6 1_555 1_555
C32_6 C33_6 1_555 1_555
C32_6 N12_4 1_555 1_555
C35_6 N9_6 1_555 1_555
O9_6 Zn1_4 1_555 1_555
O10_6 Zn7_3 1_555 1_555
O20_2 Zn11_4 1_555 1_555
O15_6 Zn11_4 1_555 1_555
C32_7 H25_7 1_555 1_555
N12 C31_7 1_555 1_555
C32_7 N12 1_555 1_555
C1_7 H1_7 1_555 1_555
C2_7 C1_7 1_555 1_555
H2_7 C2_7 1_555 1_555
C3_7 C2_7 1_555 1_555
C9_7 C3_7 1_555 1_555
H7_7 C9_7 1_555 1_555
C10_7 C9_7 1_555 1_555
H8_7 C10_7 1_555 1_555
C14_7 H9_7 1_555 1_555
H10_7 C14_7 1_555 1_555
C15_7 C14_7 1_555 1_555
C18_7 H13_7 1_555 1_555
H14_7 C18_7 1_555 1_555
C19_7 C18_7 1_555 1_555
C20_7 H15_7 1_555 1_555
H16_7 C20_7 1_555 1_555
C26_7 H21_7 1_555 1_555
C27_7 C26_7 1_555 1_555
H22_7 C27_7 1_555 1_555
C28_7 C27_7 1_555 1_555
C29_7 C28_7 1_555 1_555
C30_7 C29_7 1_555 1_555
H23_7 C30_7 1_555 1_555
C33_7 C29_7 1_555 1_555
H26_7 C33_7 1_555 1_555
C34_7 C28_7 1_555 1_555
H27_7 C34_7 1_555 1_555
C35_7 C34_7 1_555 1_555
H28_7 C35_7 1_555 1_555
N1_7 C1_7 1_555 1_555
N5_7 C11_7 1_555 1_555
N6_7 C11_7 1_555 1_555
N8_7 C13_7 1_555 1_555
N9_7 C26_7 1_555 1_555
O16_4 C15_7 1_555 1_555
O9_7 C19_7 1_555 1_555
O10_7 C19_7 1_555 1_555
O14_3 H30_7 1_555 1_555
Zn5_4 N1_7 1_555 1_555
Zn2_2 N9_7 1_555 1_555
N11_4 Zn2_2 1_555 1_555
O19_3 Zn2_2 1_555 1_555
O20_3 Zn2_2 1_555 1_555
Zn9_3 O14_3 1_555 1_555
C10_7 N1_7 1_555 1_555
C13_7 N5_7 1_555 1_555
C14_7 N6_7 1_555 1_555
C18_7 N8_7 1_555 1_555
C20_7 N8_7 1_555 1_555
C35_7 N9_7 1_555 1_555
O9_7 Zn5_4 1_555 1_555
O10_7 Zn2_2 1_555 1_555
O14_3 Zn5_4 1_555 1_555
O14_3 Zn2_2 1_555 1_555
O20_3 Zn9_3 1_555 1_555
C12_7 N3_7 1_555 1_555
H12_7 C16_7 1_555 1_555
C22_7 H17_7 1_555 1_555
H18_7 C22_7 1_555 1_555
C23_7 C22_7 1_555 1_555
C24_7 H19_7 1_555 1_555
H20_7 C24_7 1_555 1_555
C25_7 C24_7 1_555 1_555
N4_7 C12_7 1_555 1_555
N7_7 C12_7 1_555 1_555
O19_3 C25_7 1_555 1_555
O8_7 C25_7 1_555 1_555
O11_7 C21_7 1_555 1_555
O12_7 C21_7 1_555 1_555
O20_3 H29_7 1_555 1_555
O15_7 H31_7 1_555 1_555
H32_3 O15_7 1_555 1_555
Zn9_3 O11_7 1_555 1_555
Zn11 O8_7 1_555 1_555
C22_7 N7_7 1_555 1_555
C24_7 N7_7 1_555 1_555
O20_3 Zn11 1_555 1_555
O15_7 Zn11 1_555 1_555
C5_7 C4_7 1_555 1_555
H3_7 C5_7 1_555 1_555
C6_7 C5_7 1_555 1_555
H4_7 C6_7 1_555 1_555
C7_7 H5_7 1_555 1_555
C8_7 C4_7 1_555 1_555
H6_7 C8_7 1_555 1_555
N2_4 C6_7 1_555 1_555
O17_3 C17_7 1_555 1_555
Zn7_4 N2_4 1_555 1_555
C7_7 C8_7 1_555 1_555
C7_7 N2_4 1_555 1_555
C5_8 C4_8 1_555 1_555
H3_8 C5_8 1_555 1_555
C6_8 C5_8 1_555 1_555
H4_8 C6_8 1_555 1_555
C7_8 H5_8 1_555 1_555
C8_8 C4_8 1_555 1_555
H6_8 C8_8 1_555 1_555
N11_4 C6_8 1_555 1_555
O17_4 C17_8 1_555 1_555
C7_8 C8_8 1_555 1_555
C7_8 N11_4 1_555 1_555
C1_8 H1_8 1_555 1_555
C2_8 C1_8 1_555 1_555
H2_8 C2_8 1_555 1_555
C3_8 C2_8 1_555 1_555
C9_8 C3_8 1_555 1_555
H7_8 C9_8 1_555 1_555
C10_8 C9_8 1_555 1_555
H8_8 C10_8 1_555 1_555
C14_8 H9_8 1_555 1_555
H10_8 C14_8 1_555 1_555
C15_8 C14_8 1_555 1_555
C18_8 H13_8 1_555 1_555
H14_8 C18_8 1_555 1_555
C19_8 C18_8 1_555 1_555
C20_8 H15_8 1_555 1_555
H16_8 C20_8 1_555 1_555
C26_8 H21_8 1_555 1_555
C27_8 C26_8 1_555 1_555
H22_8 C27_8 1_555 1_555
C28_8 C27_8 1_555 1_555
C29_8 C28_8 1_555 1_555
C30_8 C29_8 1_555 1_555
H23_8 C30_8 1_555 1_555
C31_8 C30_8 1_555 1_555
C32_8 H25_8 1_555 1_555
C33_8 C29_8 1_555 1_555
H26_8 C33_8 1_555 1_555
C34_8 C28_8 1_555 1_555
H27_8 C34_8 1_555 1_555
C35_8 C34_8 1_555 1_555
H28_8 C35_8 1_555 1_555
N1_8 C1_8 1_555 1_555
N5_8 C11_8 1_555 1_555
N6_8 C11_8 1_555 1_555
N8_8 C13_8 1_555 1_555
N9_8 C26_8 1_555 1_555
N12_2 C31_8 1_555 1_555
O16_3 C15_8 1_555 1_555
O9_8 C19_8 1_555 1_555
O10_8 C19_8 1_555 1_555
O14_4 H30_8 1_555 1_555
Zn5_3 N1_8 1_555 1_555
Zn7_4 N9_8 1_555 1_555
O19_4 Zn7_4 1_555 1_555
O20_4 Zn7_4 1_555 1_555
Zn9_4 O14_4 1_555 1_555
C10_8 N1_8 1_555 1_555
C13_8 N5_8 1_555 1_555
C14_8 N6_8 1_555 1_555
C18_8 N8_8 1_555 1_555
C20_8 N8_8 1_555 1_555
C32_8 C33_8 1_555 1_555
C32_8 N12_2 1_555 1_555
C35_8 N9_8 1_555 1_555
O9_8 Zn5_3 1_555 1_555
O10_8 Zn7_4 1_555 1_555
O14_4 Zn5_3 1_555 1_555
O14_4 Zn7_4 1_555 1_555
O20_4 Zn9_4 1_555 1_555
C12_8 N3_8 1_555 1_555
H12_8 C16_8 1_555 1_555
C22_8 H17_8 1_555 1_555
H18_8 C22_8 1_555 1_555
C23_8 C22_8 1_555 1_555
C24_8 H19_8 1_555 1_555
H20_8 C24_8 1_555 1_555
C25_8 C24_8 1_555 1_555
N4_8 C12_8 1_555 1_555
N7_8 C12_8 1_555 1_555
O19_4 C25_8 1_555 1_555
O8_8 C25_8 1_555 1_555
O11_8 C21_8 1_555 1_555
O12_8 C21_8 1_555 1_555
O20_4 H29_8 1_555 1_555
O15_8 H31_8 1_555 1_555
H32_4 O15_8 1_555 1_555
Zn9_4 O11_8 1_555 1_555
Zn11_2 O8_8 1_555 1_555
C22_8 N7_8 1_555 1_555
C24_8 N7_8 1_555 1_555
O20_4 Zn11_2 1_555 1_555
O15_8 Zn11_2 1_555 1_555

#END
