
###############################################################################
#
# This file contains modified crystal structure data generated from the
# MOF subset of the Cambridge Structural Database (CSD) v543 
# hosted by the Cambridge Crystallographic Data Centre (CCDC).
#
# This work is licensed under the Creative Commons
# Attribution-NonCommercial-ShareAlike 4.0 International License.
# To view a copy of this license, visit
# http://creativecommons.org/licenses/by-nc-sa/4.0/
# or send a letter to
# Creative Commons, PO Box 1866, Mountain View, CA 94042, USA.
#
# CIF created using the CSD Python API on 29 September 2022
# The structure has been converted into the P1 space group
# The structure has a 3D framework
# The original CSD entry SIRBIG07 is in the orthorhombic crystal system
# The framework has been calculated to contain at least 10.0% void space
# The void calculation uses a probe of radius 1.32A, grid spacing 0.4
# The framework is charged, counterions have been retained in the structure
# H atom positions have been added when not included in the experimental data
#
###############################################################################

data_SIRBIG07
_chemical_formula_moiety         '(C14 H14 Mg5 O28 5-)n'
_symmetry_cell_setting           triclinic
_symmetry_space_group_name_H-M   'P 1'
_symmetry_Int_Tables_number      1
_space_group_name_Hall           'P 1'
loop_
_symmetry_equiv_pos_site_id
_symmetry_equiv_pos_as_xyz
1 x,y,z
_cell_length_a                   8.990(3)
_cell_length_b                   12.140(4)
_cell_length_c                   8.511(2)
_cell_angle_alpha                90
_cell_angle_beta                 90
_cell_angle_gamma                90
_cell_volume                     928.879
loop_
_atom_site_label
_atom_site_type_symbol
_atom_site_fract_x
_atom_site_fract_y
_atom_site_fract_z
Mg1 Mg 0.0000 0.5000 0.0000
O1 O -0.0000 0.3399(4) 0.0810(6)
O2 O 0.1615(4) 0.5467(3) 0.1634(4)
C1 C 0.0000 0.2500 0.0544(16)
C2 C 0.2500 0.5015(4) 0.2500
O3 O 0.0000 0.1601(4) 0.0810(6)
O4 O 0.3385(4) 0.5467(3) 0.3366(4)
Mg2 Mg 0.0000 0.0000 0.0000
Mg4 Mg 0.5000 0.5000 0.5000
H2 H 0.25 0.411797 0.25
Mg1_2 Mg 0.0000 0.5000 1.0000
Mg2_2 Mg 0.0000 0.0000 1.0000
O7 O 0.0000 0.6601(4) 0.9190(6)
O8 O 0.1615(4) 0.4533(3) 0.8366(4)
H1 H 2.18893e-18 0.25 0.926448
Mg2_3 Mg 0.0000 1.0000 0.0000
Mg2_4 Mg 0.0000 1.0000 1.0000
Mg1_3 Mg 1.0000 0.5000 0.0000
O1_2 O 1.0000 0.3399(4) 0.0810(6)
C1_2 C 1.0000 0.2500 0.0544(16)
O3_2 O 1.0000 0.1601(4) 0.0810(6)
O5 O 0.8385(4) 0.5467(3) 0.1634(4)
C3 C 0.7500 0.5015(4) 0.2500
O6 O 0.6615(4) 0.5467(3) 0.3366(4)
Mg2_5 Mg 1.0000 0.0000 0.0000
H3 H 0.75 0.411797 0.25
Mg1_4 Mg 1.0000 0.5000 1.0000
Mg2_6 Mg 1.0000 0.0000 1.0000
O7_2 O 1.0000 0.6601(4) 0.9190(6)
O9 O 0.8385(4) 0.4533(3) 0.8366(4)
H1_2 H 1 0.25 0.926448
Mg2_7 Mg 1.0000 1.0000 0.0000
Mg2_8 Mg 1.0000 1.0000 1.0000
Mg3 Mg 0.5000 -0.0000 0.5000
H3_2 H 0.25 0.0882035 0.25
O9_2 O 0.1615(4) 0.0467(3) 0.8366(4)
O5_2 O 0.1615(4) 0.9533(3) 0.1634(4)
C3_2 C 0.2500 0.9985(4) 0.2500
O6_2 O 0.3385(4) 0.9533(3) 0.3366(4)
Mg3_2 Mg 0.5000 1.0000 0.5000
O7_3 O 0.0000 0.8399(4) 0.9190(6)
H2_2 H 0.75 0.0882035 0.25
O8_2 O 0.8385(4) 0.0467(3) 0.8366(4)
O2_2 O 0.8385(4) 0.9533(3) 0.1634(4)
C2_2 C 0.7500 0.9985(4) 0.2500
O4_2 O 0.6615(4) 0.9533(3) 0.3366(4)
O7_4 O 1.0000 0.8399(4) 0.9190(6)
C3_3 C 0.2500 0.0015(4) 0.7500
O6_3 O 0.3385(4) 0.0467(3) 0.6634(4)
H1_3 H -2.18893e-18 0.75 0.0735521
C1_3 C 0.0000 0.7500 0.9456(16)
H3_3 H 0.25 0.911797 0.75
C2_3 C 0.7500 0.0015(4) 0.7500
O4_3 O 0.6615(4) 0.0467(3) 0.6634(4)
H1_4 H 1 0.75 0.0735521
C1_4 C 1.0000 0.7500 0.9456(16)
H2_3 H 0.75 0.911797 0.75
C2_4 C 0.2500 0.4985(4) 0.7500
O4_4 O 0.3385(4) 0.4533(3) 0.6634(4)
H2_4 H 0.25 0.588203 0.75
C3_4 C 0.7500 0.4985(4) 0.7500
O6_4 O 0.6615(4) 0.4533(3) 0.6634(4)
H3_4 H 0.75 0.588203 0.75
O7_5 O 0.5000 0.1601(4) 0.4190(6)
O1_3 O 0.5000 0.8399(4) 0.5810(6)
C1_5 C 0.5000 0.7500 0.5544(16)
O3_3 O 0.5000 0.6601(4) 0.5810(6)
H1_5 H 0.5 0.75 0.426448
O7_6 O 0.5000 0.3399(4) 0.4190(6)
C1_6 C 0.5000 0.2500 0.4456(16)
H1_6 H 0.5 0.25 0.573552
loop_
_geom_bond_atom_site_label_1
_geom_bond_atom_site_label_2
_geom_bond_site_symmetry_1
_geom_bond_site_symmetry_2
Mg1 O1 1_555 1_555
O1 C1 1_555 1_555
O2 Mg1 1_555 1_555
C1 O3 1_555 1_555
C2 O2 1_555 1_555
O3 Mg2 1_555 1_555
O4 C2 1_555 1_555
Mg4 O4 1_555 1_555
C2 H2 1_555 1_555
O7 Mg1_2 1_555 1_555
O8 Mg1_2 1_555 1_555
Mg1_3 O1_2 1_555 1_555
O1_2 C1_2 1_555 1_555
C1_2 O3_2 1_555 1_555
O3_2 Mg2_5 1_555 1_555
O5 Mg1_3 1_555 1_555
C3 O5 1_555 1_555
O6 C3 1_555 1_555
Mg4 O6 1_555 1_555
C3 H3 1_555 1_555
O7_2 Mg1_4 1_555 1_555
O9 Mg1_4 1_555 1_555
O9_2 Mg2_2 1_555 1_555
O5_2 Mg2_3 1_555 1_555
C3_2 O5_2 1_555 1_555
O6_2 C3_2 1_555 1_555
Mg3_2 O6_2 1_555 1_555
O7_3 Mg2_4 1_555 1_555
O8_2 Mg2_6 1_555 1_555
O2_2 Mg2_7 1_555 1_555
C2_2 O2_2 1_555 1_555
O4_2 C2_2 1_555 1_555
Mg3_2 O4_2 1_555 1_555
O7_4 Mg2_8 1_555 1_555
C3_3 O9_2 1_555 1_555
O6_3 C3_3 1_555 1_555
Mg3 O6_3 1_555 1_555
O7_3 C1_3 1_555 1_555
C1_3 O7 1_555 1_555
C2_3 O8_2 1_555 1_555
O4_3 C2_3 1_555 1_555
Mg3 O4_3 1_555 1_555
O7_4 C1_4 1_555 1_555
C1_4 O7_2 1_555 1_555
C2_4 O8 1_555 1_555
O4_4 C2_4 1_555 1_555
Mg4 O4_4 1_555 1_555
C2_4 H2_4 1_555 1_555
C3_4 O9 1_555 1_555
O6_4 C3_4 1_555 1_555
Mg4 O6_4 1_555 1_555
C3_4 H3_4 1_555 1_555
O7_5 Mg3 1_555 1_555
Mg3_2 O1_3 1_555 1_555
O1_3 C1_5 1_555 1_555
C1_5 O3_3 1_555 1_555
O3_3 Mg4 1_555 1_555
C1_5 H1_5 1_555 1_555
O7_6 Mg4 1_555 1_555
O7_6 C1_6 1_555 1_555
C1_6 O7_5 1_555 1_555
C1_6 H1_6 1_555 1_555

#END
