
###############################################################################
#
# This file contains modified crystal structure data generated from the
# MOF subset of the Cambridge Structural Database (CSD) v543 
# hosted by the Cambridge Crystallographic Data Centre (CCDC).
#
# This work is licensed under the Creative Commons
# Attribution-NonCommercial-ShareAlike 4.0 International License.
# To view a copy of this license, visit
# http://creativecommons.org/licenses/by-nc-sa/4.0/
# or send a letter to
# Creative Commons, PO Box 1866, Mountain View, CA 94042, USA.
#
# CIF created using the CSD Python API on 29 September 2022
# The structure has been converted into the P1 space group
# The structure has a 3D framework
# The original CSD entry SIRVAT is in the monoclinic crystal system
# The framework has been calculated to contain at least 10.0% void space
# The void calculation uses a probe of radius 1.32A, grid spacing 0.4
#
###############################################################################

data_SIRVAT
_chemical_formula_moiety         '(C180 H108 Cl4 Cu8 N48 O24)n'
_symmetry_cell_setting           triclinic
_symmetry_space_group_name_H-M   'P 1'
_symmetry_Int_Tables_number      1
_space_group_name_Hall           'P 1'
loop_
_symmetry_equiv_pos_site_id
_symmetry_equiv_pos_as_xyz
1 x,y,z
_cell_length_a                   14.16(3)
_cell_length_b                   13.67(3)
_cell_length_c                   26.50(5)
_cell_angle_alpha                90
_cell_angle_beta                 99.98(4)
_cell_angle_gamma                90
_cell_volume                     5051.91
loop_
_atom_site_label
_atom_site_type_symbol
_atom_site_fract_x
_atom_site_fract_y
_atom_site_fract_z
Cu2 Cu 0.1017(1) 0.2045(1) 0.2286
N2 N 0.0838(6) 0.3634(6) 0.6583(3)
N3 N 0.1129(6) 0.4141(6) 0.4739(3)
N4 N 0.1494(6) 0.5509(6) 0.4240(3)
N5 N 0.1365(6) 0.5713(6) 0.5115(3)
N7 N 0.1162(6) 0.2783(6) 0.2965(3)
C2 C 0.1285(7) 0.4574(7) 0.4300(4)
C4 C 0.1170(7) 0.4771(7) 0.5126(3)
C8 C 0.1520(7) 0.6051(7) 0.4653(3)
C11 C 0.1231(7) 0.3947(7) 0.3831(4)
C17 C 0.1186(9) 0.2385(8) 0.3409(4)
H6 H 0.1177 0.1705 0.3426
C19 C 0.2056(12) 0.8480(9) 0.4148(5)
H8 H 0.2185 0.8724 0.3839
C20 C 0.2091(15) 0.8625(11) 0.5005(6)
H9 H 0.2277 0.8982 0.5304
C21 C 0.1016(7) 0.4582(7) 0.6518(4)
H10 H 0.1076 0.4993 0.6801
C22 C 0.1809(13) 0.7734(8) 0.5057(5)
H11 H 0.1674 0.7506 0.5367
C23 C 0.1161(8) 0.3767(8) 0.2944(4)
H12 H 0.1125 0.4060 0.2625
C25 C 0.1719(8) 0.7127(8) 0.4620(4)
C26 C 0.1801(9) 0.7554(8) 0.4162(4)
H14 H 0.1677 0.7191 0.3861
N11 N 0.2143(12) 0.9099(9) 0.4551(5)
C31 C 0.1224(10) 0.2918(8) 0.3870(4)
H18 H 0.1244 0.2605 0.4184
C32 C 0.1113(7) 0.4976(7) 0.6056(3)
H19 H 0.1241 0.5639 0.6029
C37 C 0.1021(7) 0.4380(7) 0.5629(3)
C39 C 0.0707(7) 0.3061(7) 0.6177(3)
H24 H 0.0549 0.2408 0.6218
C40 C 0.0792(8) 0.3388(8) 0.5692(4)
H25 H 0.0701 0.2963 0.5414
C42 C 0.1210(8) 0.4357(7) 0.3358(4)
H26 H 0.1230 0.5032 0.3321
Cu7 Cu 0.1017(1) 0.2955(1) 0.7286
O8 O 0.1725(5) 0.0907(4) 0.2631(2)
N13 N 0.0838(6) 0.1366(6) 0.1583(3)
Cl2 Cl 0.2228(2) 0.3196(2) 0.1955(1)
Cu1 Cu 0.3686(1) 0.2145(1) 0.2241
O1 O 0.6721(4) 0.5911(4) 0.2458(2)
O2 O 0.4807(5) 0.2904(5) 0.2103(3)
O3 O 0.8275(5) 0.5907(4) 0.2369(2)
O4 O 0.9810(5) 0.2802(5) 0.2073(3)
O5 O 0.5585(5) 0.1475(5) 0.2260(3)
N1 N 0.3626(6) 0.4186(6) 0.4686(3)
N6 N 0.3816(6) 0.2838(5) 0.2927(3)
N8 N 0.3994(6) 0.5561(6) 0.4213(3)
N9 N 0.3898(6) 0.5731(6) 0.5086(3)
O6 O 0.9186(6) 0.1442(5) 0.2340(3)
N10 N 0.3532(5) 0.3514(6) 0.6546(3)
C1 C 0.7476(7) 0.5504(6) 0.2370(3)
C3 C 0.3369(8) 0.3360(6) 0.5638(4)
H1 H 0.3228 0.2967 0.5348
C5 C 0.8214(7) 0.2859(7) 0.2204(3)
C6 C 0.7358(6) 0.2358(7) 0.2203(3)
H2 H 0.7347 0.1678 0.2208
C7 C 0.7417(6) 0.4417(6) 0.2270(3)
C9 C 0.3949(8) 0.4410(7) 0.3332(3)
H3 H 0.4045 0.5080 0.3310
C10 C 0.3708(7) 0.4795(7) 0.5089(3)
C12 C 0.3690(8) 0.2436(8) 0.3362(4)
H4 H 0.3606 0.1762 0.3376
C13 C 0.5574(7) 0.2370(7) 0.2190(4)
C14 C 0.8240(7) 0.3888(6) 0.2250(3)
H5 H 0.8821 0.4214 0.2268
C15 C 0.3576(7) 0.4347(7) 0.5596(3)
C16 C 0.4040(7) 0.6089(7) 0.4638(3)
C18 C 0.4597(15) 0.8708(10) 0.4958(5)
H7 H 0.4618 0.9114 0.5241
C24 C 0.4429(11) 0.7724(9) 0.5016(5)
H13 H 0.4430 0.7462 0.5340
C27 C 0.3793(7) 0.4627(7) 0.4251(3)
C28 C 0.3957(8) 0.3838(8) 0.2924(4)
H15 H 0.4063 0.4129 0.2622
C29 C 0.3698(8) 0.4904(7) 0.6027(4)
H16 H 0.3789 0.5576 0.6010
C30 C 0.4645(12) 0.8534(9) 0.4119(5)
H17 H 0.4751 0.8792 0.3809
C33 C 0.4402(9) 0.7555(9) 0.4141(4)
H20 H 0.4332 0.7170 0.3847
C34 C 0.6545(6) 0.3934(7) 0.2251(3)
H21 H 0.5990 0.4283 0.2274
C35 C 0.3685(7) 0.4451(7) 0.6490(3)
H22 H 0.3793 0.4836 0.6783
N12 N 0.4731(11) 0.9104(7) 0.4518(4)
C36 C 0.6515(6) 0.2893(6) 0.2195(3)
C38 C 0.3678(8) 0.2999(7) 0.3806(4)
H23 H 0.3591 0.2695 0.4109
C41 C 0.4266(8) 0.7154(7) 0.4603(3)
C43 C 0.9130(6) 0.2316(7) 0.2207(4)
C44 C 0.3379(8) 0.2980(7) 0.6114(4)
H27 H 0.3275 0.2313 0.6142
C45 C 0.3793(7) 0.3989(7) 0.3794(3)
Cu3 Cu 0.6314(1) 0.7145(1) 0.2759
Cu4 Cu 0.3686(1) 0.2855(1) 0.7241
Cu6 Cu 0.8983(1) 0.7045(1) 0.2714
O7 O 0.3279(4) 0.0911(4) 0.2542(2)
N14 N 0.3532(5) 0.1486(6) 0.1546(3)
N8_2 N 0.6006(6) 0.0561(6) 0.0787(3)
C1_2 C 0.2524(7) 0.0504(6) 0.2630(3)
H3_2 H 0.5955 0.0080 0.1690
C16_2 C 0.5960(7) 0.1089(7) 0.0362(3)
C18_2 C 0.5403(15) 0.3708(10) 0.0042(5)
C30_2 C 0.5355(12) 0.3534(9) 0.0881(5)
H17_2 H 0.5249 0.3792 0.1191
C33_2 C 0.5598(9) 0.2555(9) 0.0859(4)
H20_2 H 0.5668 0.2170 0.1153
N12_2 N 0.5269(11) 0.4104(7) 0.0482(4)
C41_2 C 0.5734(8) 0.2154(7) 0.0397(3)
O2_2 O 0.5193(5) 0.7904(5) 0.2897(3)
O4_2 O 0.0190(5) 0.7802(5) 0.2927(3)
O5_2 O 0.4415(5) 0.6475(5) 0.2740(3)
N1_2 N 0.6374(6) 0.9186(6) 0.0314(3)
N6_2 N 0.6184(6) 0.7838(5) 0.2073(3)
O6_2 O 0.0814(6) 0.6442(5) 0.2660(3)
C5_2 C 0.1786(7) 0.7859(7) 0.2796(3)
C6_2 C 0.2642(6) 0.7358(7) 0.2797(3)
H2_2 H 0.2653 0.6678 0.2792
C7_2 C 0.2583(6) 0.9417(6) 0.2730(3)
C9_2 C 0.6051(8) 0.9410(7) 0.1668(3)
C12_2 C 0.6310(8) 0.7436(8) 0.1638(4)
H4_2 H 0.6394 0.6762 0.1624
C13_2 C 0.4426(7) 0.7370(7) 0.2810(4)
C14_2 C 0.1760(7) 0.8888(6) 0.2750(3)
H5_2 H 0.1179 0.9214 0.2732
C27_2 C 0.6207(7) 0.9627(7) 0.0749(3)
C28_2 C 0.6043(8) 0.8838(8) 0.2076(4)
H15_2 H 0.5937 0.9129 0.2378
C34_2 C 0.3455(6) 0.8934(7) 0.2749(3)
H21_2 H 0.4010 0.9283 0.2726
C36_2 C 0.3485(6) 0.7893(6) 0.2805(3)
C38_2 C 0.6322(8) 0.7999(7) 0.1194(4)
H23_2 H 0.6409 0.7695 0.0891
C43_2 C 0.0870(6) 0.7316(7) 0.2793(4)
C45_2 C 0.6207(7) 0.8989(7) 0.1206(3)
Cl1 Cl 0.7772(2) 0.8196(2) 0.3045(1)
N14_2 N 0.6468(5) 0.6486(6) 0.3454(3)
N10_2 N 0.6468(5) 0.8514(6) 0.8454(3)
C3_2 C 0.6631(8) 0.8360(6) 0.9362(4)
H1_2 H 0.6772 0.7967 0.9652
C10_2 C 0.6292(7) 0.9795(7) 0.9911(3)
C15_2 C 0.6424(7) 0.9347(7) 0.9404(3)
C29_2 C 0.6302(8) 0.9904(7) 0.8973(4)
C35_2 C 0.6315(7) 0.9451(7) 0.8510(3)
H22_2 H 0.6207 0.9836 0.8217
C44_2 C 0.6621(8) 0.7980(7) 0.8886(4)
H27_2 H 0.6725 0.7313 0.8858
Cu4_2 Cu 0.6314(1) 0.7855(1) 0.7759
N3_2 N 0.8871(6) 0.9141(6) 0.0261(3)
N7_2 N 0.8838(6) 0.7783(6) 0.2035(3)
C2_2 C 0.8715(7) 0.9574(7) 0.0700(4)
C11_2 C 0.8769(7) 0.8947(7) 0.1169(4)
C17_2 C 0.8814(9) 0.7385(8) 0.1591(4)
H6_2 H 0.8823 0.6705 0.1574
C23_2 C 0.8839(8) 0.8767(8) 0.2056(4)
H12_2 H 0.8875 0.9060 0.2375
C31_2 C 0.8776(10) 0.7918(8) 0.1130(4)
H18_2 H 0.8756 0.7605 0.0816
C42_2 C 0.8790(8) 0.9357(7) 0.1642(4)
N13_2 N 0.9162(6) 0.6366(6) 0.3417(3)
N2_2 N 0.9162(6) 0.8634(6) 0.8417(3)
C4_2 C 0.8830(7) 0.9771(7) 0.9874(3)
C21_2 C 0.8984(7) 0.9582(7) 0.8482(4)
H10_2 H 0.8924 0.9993 0.8199
C32_2 C 0.8887(7) 0.9976(7) 0.8944(3)
C37_2 C 0.8979(7) 0.9380(7) 0.9371(3)
C39_2 C 0.9293(7) 0.8061(7) 0.8823(3)
H24_2 H 0.9451 0.7408 0.8782
C40_2 C 0.9208(8) 0.8388(8) 0.9308(4)
H25_2 H 0.9299 0.7963 0.9586
Cu7_2 Cu 0.8983(1) 0.7955(1) 0.7714
O1_2 O 0.3279(4) 0.4089(4) 0.7542(2)
O2_3 O 0.5193(5) 0.7096(5) 0.7897(3)
O3_2 O 0.1725(5) 0.4093(4) 0.7631(2)
O4_3 O 0.0190(5) 0.7198(5) 0.7927(3)
O5_3 O 0.4415(5) 0.8525(5) 0.7740(3)
N1_3 N 0.6374(6) 0.5814(6) 0.5314(3)
N6_3 N 0.6184(6) 0.7162(5) 0.7073(3)
N8_3 N 0.6006(6) 0.4439(6) 0.5787(3)
N9_2 N 0.6102(6) 0.4269(6) 0.4914(3)
O6_3 O 0.0814(6) 0.8558(5) 0.7660(3)
C1_3 C 0.2524(7) 0.4496(6) 0.7630(3)
C3_3 C 0.6631(8) 0.6640(6) 0.4362(4)
H1_3 H 0.6772 0.7033 0.4652
C5_3 C 0.1786(7) 0.7141(7) 0.7796(3)
C6_3 C 0.2642(6) 0.7642(7) 0.7797(3)
H2_3 H 0.2653 0.8322 0.7792
C7_3 C 0.2583(6) 0.5583(6) 0.7730(3)
C9_3 C 0.6051(8) 0.5590(7) 0.6668(3)
H3_3 H 0.5955 0.4920 0.6690
C10_3 C 0.6292(7) 0.5205(7) 0.4911(3)
C12_3 C 0.6310(8) 0.7564(8) 0.6638(4)
H4_3 H 0.6394 0.8238 0.6624
C13_3 C 0.4426(7) 0.7630(7) 0.7810(4)
C14_3 C 0.1760(7) 0.6112(6) 0.7750(3)
H5_3 H 0.1179 0.5786 0.7732
C15_3 C 0.6424(7) 0.5653(7) 0.4404(3)
C16_3 C 0.5960(7) 0.3911(7) 0.5362(3)
C18_3 C 0.5403(15) 0.1292(10) 0.5042(5)
H7_2 H 0.5382 0.0886 0.4759
C24_2 C 0.5571(11) 0.2276(9) 0.4984(5)
H13_2 H 0.5570 0.2538 0.4660
C27_3 C 0.6207(7) 0.5373(7) 0.5749(3)
C28_3 C 0.6043(8) 0.6162(8) 0.7076(4)
H15_3 H 0.5937 0.5871 0.7378
C29_3 C 0.6302(8) 0.5096(7) 0.3973(4)
H16_2 H 0.6211 0.4424 0.3990
C30_3 C 0.5355(12) 0.1466(9) 0.5881(5)
H17_3 H 0.5249 0.1208 0.6191
C33_3 C 0.5598(9) 0.2445(9) 0.5859(4)
H20_3 H 0.5668 0.2830 0.6153
C34_3 C 0.3455(6) 0.6066(7) 0.7749(3)
H21_3 H 0.4010 0.5717 0.7726
C35_3 C 0.6315(7) 0.5549(7) 0.3510(3)
H22_3 H 0.6207 0.5164 0.3217
N12_3 N 0.5269(11) 0.0896(7) 0.5482(4)
C36_3 C 0.3485(6) 0.7107(6) 0.7805(3)
C38_3 C 0.6322(8) 0.7001(7) 0.6194(4)
H23_3 H 0.6409 0.7305 0.5891
C41_3 C 0.5734(8) 0.2846(7) 0.5397(3)
C43_3 C 0.0870(6) 0.7684(7) 0.7793(4)
C44_3 C 0.6621(8) 0.7020(7) 0.3886(4)
H27_3 H 0.6725 0.7687 0.3858
C45_3 C 0.6207(7) 0.6011(7) 0.6206(3)
Cl1_2 Cl 0.7772(2) 0.6804(2) 0.8045(1)
O7_2 O 0.6721(4) 0.9089(4) 0.7458(2)
N3_3 N 0.8871(6) 0.5859(6) 0.5261(3)
N4_2 N 0.8506(6) 0.4491(6) 0.5760(3)
N5_2 N 0.8635(6) 0.4287(6) 0.4885(3)
N7_3 N 0.8838(6) 0.7217(6) 0.7035(3)
C2_3 C 0.8715(7) 0.5426(7) 0.5700(4)
C4_3 C 0.8830(7) 0.5229(7) 0.4874(3)
C8_2 C 0.8480(7) 0.3949(7) 0.5347(3)
C11_3 C 0.8769(7) 0.6053(7) 0.6169(4)
C17_3 C 0.8814(9) 0.7615(8) 0.6591(4)
H6_3 H 0.8823 0.8295 0.6574
C19_2 C 0.7944(12) 0.1520(9) 0.5852(5)
H8_2 H 0.7815 0.1276 0.6161
C20_2 C 0.7909(15) 0.1375(11) 0.4995(6)
H9_2 H 0.7723 0.1018 0.4696
C21_3 C 0.8984(7) 0.5418(7) 0.3482(4)
H10_3 H 0.8924 0.5007 0.3199
C22_2 C 0.8191(13) 0.2266(8) 0.4943(5)
H11_2 H 0.8326 0.2494 0.4633
C23_3 C 0.8839(8) 0.6233(8) 0.7056(4)
H12_3 H 0.8875 0.5940 0.7375
C25_2 C 0.8281(8) 0.2873(8) 0.5380(4)
C26_2 C 0.8199(9) 0.2446(8) 0.5838(4)
H14_2 H 0.8323 0.2809 0.6139
N11_2 N 0.7857(12) 0.0901(9) 0.5449(5)
C31_3 C 0.8776(10) 0.7082(8) 0.6130(4)
H18_3 H 0.8756 0.7395 0.5816
C32_3 C 0.8887(7) 0.5024(7) 0.3944(3)
H19_2 H 0.8759 0.4361 0.3971
C37_3 C 0.8979(7) 0.5620(7) 0.4371(3)
C39_3 C 0.9293(7) 0.6939(7) 0.3823(3)
H24_3 H 0.9451 0.7592 0.3782
C40_3 C 0.9208(8) 0.6612(8) 0.4308(4)
H25_3 H 0.9299 0.7037 0.4586
C42_3 C 0.8790(8) 0.5643(7) 0.6642(4)
H26_2 H 0.8770 0.4968 0.6679
O8_2 O 0.8275(5) 0.9093(4) 0.7369(2)
C4_4 C 0.1170(7) 0.0229(7) 0.0126(3)
C21_4 C 0.1016(7) 0.0418(7) 0.1518(4)
H10_4 H 0.1076 0.0007 0.1801
C32_4 C 0.1113(7) 0.0024(7) 0.1056(3)
C37_4 C 0.1021(7) 0.0620(7) 0.0629(3)
C39_4 C 0.0707(7) 0.1939(7) 0.1177(3)
H24_4 H 0.0549 0.2592 0.1218
C40_4 C 0.0792(8) 0.1612(8) 0.0692(4)
H25_4 H 0.0701 0.2037 0.0414
N3_4 N 0.1129(6) 0.0859(6) 0.9739(3)
N7_4 N 0.1162(6) 0.2217(6) 0.7965(3)
C2_4 C 0.1285(7) 0.0426(7) 0.9300(4)
C11_4 C 0.1231(7) 0.1053(7) 0.8831(4)
C17_4 C 0.1186(9) 0.2615(8) 0.8409(4)
H6_4 H 0.1177 0.3295 0.8426
C23_4 C 0.1161(8) 0.1233(8) 0.7944(4)
H12_4 H 0.1125 0.0940 0.7625
C31_4 C 0.1224(10) 0.2082(8) 0.8870(4)
H18_4 H 0.1244 0.2395 0.9184
C42_4 C 0.1210(8) 0.0643(7) 0.8358(4)
Cl2_2 Cl 0.2228(2) 0.1804(2) 0.6955(1)
C3_4 C 0.3369(8) 0.1640(6) 0.0638(4)
H1_4 H 0.3228 0.2033 0.0348
C10_4 C 0.3708(7) 0.0205(7) 0.0089(3)
C15_4 C 0.3576(7) 0.0653(7) 0.0596(3)
C29_4 C 0.3698(8) 0.0096(7) 0.1027(4)
C35_4 C 0.3685(7) 0.0549(7) 0.1490(3)
H22_4 H 0.3793 0.0164 0.1783
C44_4 C 0.3379(8) 0.2020(7) 0.1114(4)
H27_4 H 0.3275 0.2687 0.1142
O2_4 O 0.4807(5) 0.2096(5) 0.7103(3)
O4_4 O 0.9810(5) 0.2198(5) 0.7073(3)
O5_4 O 0.5585(5) 0.3525(5) 0.7260(3)
N1_4 N 0.3626(6) 0.0814(6) 0.9686(3)
N6_4 N 0.3816(6) 0.2162(5) 0.7927(3)
O6_4 O 0.9186(6) 0.3558(5) 0.7340(3)
C5_4 C 0.8214(7) 0.2141(7) 0.7204(3)
C6_4 C 0.7358(6) 0.2642(7) 0.7203(3)
H2_4 H 0.7347 0.3322 0.7208
C7_4 C 0.7417(6) 0.0583(6) 0.7270(3)
C9_4 C 0.3949(8) 0.0590(7) 0.8332(3)
C12_4 C 0.3690(8) 0.2564(8) 0.8362(4)
H4_4 H 0.3606 0.3238 0.8376
C13_4 C 0.5574(7) 0.2630(7) 0.7190(4)
C14_4 C 0.8240(7) 0.1112(6) 0.7250(3)
H5_4 H 0.8821 0.0786 0.7268
C27_4 C 0.3793(7) 0.0373(7) 0.9251(3)
C28_4 C 0.3957(8) 0.1162(8) 0.7924(4)
H15_4 H 0.4063 0.0871 0.7622
C34_4 C 0.6545(6) 0.1066(7) 0.7251(3)
H21_4 H 0.5990 0.0717 0.7274
C36_4 C 0.6515(6) 0.2107(6) 0.7195(3)
C38_4 C 0.3678(8) 0.2001(7) 0.8806(4)
H23_4 H 0.3591 0.2305 0.9109
C43_4 C 0.9130(6) 0.2684(7) 0.7207(4)
C45_4 C 0.3793(7) 0.1011(7) 0.8794(3)
N8_4 N 0.3994(6) 0.9439(6) 0.9213(3)
C1_4 C 0.7476(7) 0.9496(6) 0.7370(3)
H3_4 H 0.4045 0.9920 0.8310
C16_4 C 0.4040(7) 0.8911(7) 0.9638(3)
C18_4 C 0.4597(15) 0.6292(10) 0.9958(5)
C30_4 C 0.4645(12) 0.6466(9) 0.9119(5)
H17_4 H 0.4751 0.6208 0.8809
C33_4 C 0.4402(9) 0.7445(9) 0.9141(4)
H20_4 H 0.4332 0.7830 0.8847
N12_4 N 0.4731(11) 0.5896(7) 0.9518(4)
C41_4 C 0.4266(8) 0.7846(7) 0.9603(3)
N9_3 N 0.6102(6) 0.0731(6) 0.9914(3)
H7_3 H 0.5382 0.4114 0.9759
C24_3 C 0.5571(11) 0.2724(9) 0.9984(5)
H13_3 H 0.5570 0.2462 0.9660
H16_3 H 0.6211 0.0576 0.8990
N4_3 N 0.8506(6) 0.0509(6) 0.0760(3)
C8_3 C 0.8480(7) 0.1051(7) 0.0347(3)
C19_3 C 0.7944(12) 0.3480(9) 0.0852(5)
H8_3 H 0.7815 0.3724 0.1161
C25_3 C 0.8281(8) 0.2127(8) 0.0380(4)
C26_3 C 0.8199(9) 0.2554(8) 0.0838(4)
H14_3 H 0.8323 0.2191 0.1139
N11_3 N 0.7857(12) 0.4099(9) 0.0449(5)
H26_3 H 0.8770 0.0032 0.1679
N5_3 N 0.8635(6) 0.0713(6) 0.9885(3)
C20_3 C 0.7909(15) 0.3625(11) 0.9995(6)
H9_3 H 0.7723 0.3982 0.9696
C22_3 C 0.8191(13) 0.2734(8) 0.9943(5)
H11_3 H 0.8326 0.2506 0.9633
H19_3 H 0.8759 0.0639 0.8971
N5_4 N 0.1365(6) 0.9287(6) 0.0115(3)
C20_4 C 0.2091(15) 0.6375(11) 0.0005(6)
H9_4 H 0.2277 0.6018 0.0304
C22_4 C 0.1809(13) 0.7266(8) 0.0057(5)
H11_4 H 0.1674 0.7494 0.0367
H19_4 H 0.1241 0.9361 0.1029
N4_4 N 0.1494(6) 0.9491(6) 0.9240(3)
C8_4 C 0.1520(7) 0.8949(7) 0.9653(3)
C19_4 C 0.2056(12) 0.6520(9) 0.9148(5)
H8_4 H 0.2185 0.6276 0.8839
C25_4 C 0.1719(8) 0.7873(8) 0.9620(4)
C26_4 C 0.1801(9) 0.7446(8) 0.9162(4)
H14_4 H 0.1677 0.7809 0.8861
N11_4 N 0.2143(12) 0.5901(9) 0.9551(5)
H26_4 H 0.1230 0.9968 0.8321
N9_4 N 0.3898(6) 0.9269(6) 0.0086(3)
H7_4 H 0.4618 0.5886 0.0241
C24_4 C 0.4429(11) 0.7276(9) 0.0016(5)
H13_4 H 0.4430 0.7538 0.0340
H16_4 H 0.3789 0.9424 0.1010
loop_
_geom_bond_atom_site_label_1
_geom_bond_atom_site_label_2
_geom_bond_site_symmetry_1
_geom_bond_site_symmetry_2
N2 C21 1_555 1_555
N3 C2 1_555 1_555
N4 C2 1_555 1_555
N5 C4 1_555 1_555
N7 Cu2 1_555 1_555
C2 C11 1_555 1_555
C4 N3 1_555 1_555
C8 N4 1_555 1_555
C11 C31 1_555 1_555
C17 N7 1_555 1_555
H6 C17 1_555 1_555
C19 H8 1_555 1_555
C20 H9 1_555 1_555
C21 H10 1_555 1_555
C22 C20 1_555 1_555
H11 C22 1_555 1_555
C23 N7 1_555 1_555
H12 C23 1_555 1_555
C25 C8 1_555 1_555
C26 C19 1_555 1_555
H14 C26 1_555 1_555
N11 C19 1_555 1_555
C31 C17 1_555 1_555
H18 C31 1_555 1_555
C32 C21 1_555 1_555
H19 C32 1_555 1_555
C37 C4 1_555 1_555
C39 N2 1_555 1_555
H24 C39 1_555 1_555
C40 C37 1_555 1_555
H25 C40 1_555 1_555
C42 C11 1_555 1_555
H26 C42 1_555 1_555
Cu7 N2 1_555 1_555
O8 Cu2 1_555 1_555
N13 Cu2 1_555 1_555
Cl2 Cu2 1_555 1_555
N5 C8 1_555 1_555
C20 N11 1_555 1_555
C22 C25 1_555 1_555
C23 C42 1_555 1_555
C25 C26 1_555 1_555
C32 C37 1_555 1_555
C39 C40 1_555 1_555
Cu1 O2 1_555 1_555
O1 C1 1_555 1_555
O2 C13 1_555 1_555
O3 C1 1_555 1_555
O4 C43 1_555 1_555
O5 C13 1_555 1_555
N1 C10 1_555 1_555
N6 Cu1 1_555 1_555
N8 C16 1_555 1_555
N9 C10 1_555 1_555
N10 C35 1_555 1_555
C1 C7 1_555 1_555
C3 H1 1_555 1_555
C5 C6 1_555 1_555
C6 H2 1_555 1_555
C7 C14 1_555 1_555
C9 H3 1_555 1_555
C10 C15 1_555 1_555
C12 N6 1_555 1_555
H4 C12 1_555 1_555
C13 C36 1_555 1_555
C14 C5 1_555 1_555
H5 C14 1_555 1_555
C15 C3 1_555 1_555
C16 N9 1_555 1_555
C18 H7 1_555 1_555
C24 C18 1_555 1_555
H13 C24 1_555 1_555
C27 N1 1_555 1_555
C28 N6 1_555 1_555
H15 C28 1_555 1_555
C29 C15 1_555 1_555
H16 C29 1_555 1_555
C30 H17 1_555 1_555
C33 C30 1_555 1_555
H20 C33 1_555 1_555
C34 C7 1_555 1_555
H21 C34 1_555 1_555
C35 C29 1_555 1_555
H22 C35 1_555 1_555
N12 C18 1_555 1_555
C36 C6 1_555 1_555
C38 C12 1_555 1_555
H23 C38 1_555 1_555
C41 C16 1_555 1_555
C43 O6 1_555 1_555
C44 N10 1_555 1_555
H27 C44 1_555 1_555
C45 C9 1_555 1_555
Cl2 Cu1 1_555 1_555
Cu3 O1 1_555 1_555
Cu4 N10 1_555 1_555
Cu6 O3 1_555 1_555
O7 Cu1 1_555 1_555
N14 Cu1 1_555 1_555
N8 C27 1_555 1_555
C3 C44 1_555 1_555
C5 C43 1_555 1_555
C9 C28 1_555 1_555
C24 C41 1_555 1_555
C27 C45 1_555 1_555
C30 N12 1_555 1_555
C33 C41 1_555 1_555
C34 C36 1_555 1_555
C38 C45 1_555 1_555
O7 C1_2 1_555 1_555
O8 C1_2 1_555 1_555
N8_2 C16_2 1_555 1_555
C30_2 H17_2 1_555 1_555
C33_2 C30_2 1_555 1_555
H20_2 C33_2 1_555 1_555
N12_2 C18_2 1_555 1_555
C41_2 C16_2 1_555 1_555
C30_2 N12_2 1_555 1_555
C33_2 C41_2 1_555 1_555
Cu3 O2_2 1_555 1_555
O2_2 C13_2 1_555 1_555
O4_2 C43_2 1_555 1_555
O5_2 C13_2 1_555 1_555
N6_2 Cu3 1_555 1_555
C5_2 C6_2 1_555 1_555
C6_2 H2_2 1_555 1_555
C7_2 C14_2 1_555 1_555
C12_2 N6_2 1_555 1_555
H4_2 C12_2 1_555 1_555
C13_2 C36_2 1_555 1_555
C14_2 C5_2 1_555 1_555
H5_2 C14_2 1_555 1_555
C27_2 N1_2 1_555 1_555
C28_2 N6_2 1_555 1_555
H15_2 C28_2 1_555 1_555
C34_2 C7_2 1_555 1_555
H21_2 C34_2 1_555 1_555
C36_2 C6_2 1_555 1_555
C38_2 C12_2 1_555 1_555
H23_2 C38_2 1_555 1_555
C43_2 O6_2 1_555 1_555
C45_2 C9_2 1_555 1_555
Cl1 Cu3 1_555 1_555
Cu6 Cl1 1_555 1_555
N14_2 Cu3 1_555 1_555
C5_2 C43_2 1_555 1_555
C9_2 C28_2 1_555 1_555
C27_2 C45_2 1_555 1_555
C34_2 C36_2 1_555 1_555
C38_2 C45_2 1_555 1_555
N10_2 C35_2 1_555 1_555
C3_2 H1_2 1_555 1_555
C10_2 C15_2 1_555 1_555
C15_2 C3_2 1_555 1_555
C29_2 C15_2 1_555 1_555
C35_2 C29_2 1_555 1_555
H22_2 C35_2 1_555 1_555
C44_2 N10_2 1_555 1_555
H27_2 C44_2 1_555 1_555
Cu4_2 N10_2 1_555 1_555
C3_2 C44_2 1_555 1_555
N3_2 C2_2 1_555 1_555
N7_2 Cu6 1_555 1_555
C2_2 C11_2 1_555 1_555
C11_2 C31_2 1_555 1_555
C17_2 N7_2 1_555 1_555
H6_2 C17_2 1_555 1_555
C23_2 N7_2 1_555 1_555
H12_2 C23_2 1_555 1_555
C31_2 C17_2 1_555 1_555
H18_2 C31_2 1_555 1_555
C42_2 C11_2 1_555 1_555
N13_2 Cu6 1_555 1_555
C23_2 C42_2 1_555 1_555
N2_2 C21_2 1_555 1_555
C21_2 H10_2 1_555 1_555
C32_2 C21_2 1_555 1_555
C37_2 C4_2 1_555 1_555
C39_2 N2_2 1_555 1_555
H24_2 C39_2 1_555 1_555
C40_2 C37_2 1_555 1_555
H25_2 C40_2 1_555 1_555
Cu7_2 N2_2 1_555 1_555
C32_2 C37_2 1_555 1_555
C39_2 C40_2 1_555 1_555
Cu4_2 O2_3 1_555 1_555
O1_2 C1_3 1_555 1_555
O2_3 C13_3 1_555 1_555
O3_2 C1_3 1_555 1_555
O4_3 C43_3 1_555 1_555
O5_3 C13_3 1_555 1_555
N1_3 C10_3 1_555 1_555
N6_3 Cu4_2 1_555 1_555
N8_3 C16_3 1_555 1_555
N9_2 C10_3 1_555 1_555
N14_2 C35_3 1_555 1_555
C1_3 C7_3 1_555 1_555
C3_3 H1_3 1_555 1_555
C5_3 C6_3 1_555 1_555
C6_3 H2_3 1_555 1_555
C7_3 C14_3 1_555 1_555
C9_3 H3_3 1_555 1_555
C10_3 C15_3 1_555 1_555
C12_3 N6_3 1_555 1_555
H4_3 C12_3 1_555 1_555
C13_3 C36_3 1_555 1_555
C14_3 C5_3 1_555 1_555
H5_3 C14_3 1_555 1_555
C15_3 C3_3 1_555 1_555
C16_3 N9_2 1_555 1_555
C18_3 H7_2 1_555 1_555
C24_2 C18_3 1_555 1_555
H13_2 C24_2 1_555 1_555
C27_3 N1_3 1_555 1_555
C28_3 N6_3 1_555 1_555
H15_3 C28_3 1_555 1_555
C29_3 C15_3 1_555 1_555
H16_2 C29_3 1_555 1_555
C30_3 H17_3 1_555 1_555
C33_3 C30_3 1_555 1_555
H20_3 C33_3 1_555 1_555
C34_3 C7_3 1_555 1_555
H21_3 C34_3 1_555 1_555
C35_3 C29_3 1_555 1_555
H22_3 C35_3 1_555 1_555
N12_3 C18_3 1_555 1_555
C36_3 C6_3 1_555 1_555
C38_3 C12_3 1_555 1_555
H23_3 C38_3 1_555 1_555
C41_3 C16_3 1_555 1_555
C43_3 O6_3 1_555 1_555
C44_3 N14_2 1_555 1_555
H27_3 C44_3 1_555 1_555
C45_3 C9_3 1_555 1_555
Cl1_2 Cu4_2 1_555 1_555
Cu4 O1_2 1_555 1_555
Cu7_2 Cl1_2 1_555 1_555
Cu7 O3_2 1_555 1_555
O7_2 Cu4_2 1_555 1_555
N8_3 C27_3 1_555 1_555
C3_3 C44_3 1_555 1_555
C5_3 C43_3 1_555 1_555
C9_3 C28_3 1_555 1_555
C24_2 C41_3 1_555 1_555
C27_3 C45_3 1_555 1_555
C30_3 N12_3 1_555 1_555
C33_3 C41_3 1_555 1_555
C34_3 C36_3 1_555 1_555
C38_3 C45_3 1_555 1_555
N13_2 C21_3 1_555 1_555
N3_3 C2_3 1_555 1_555
N4_2 C2_3 1_555 1_555
N5_2 C4_3 1_555 1_555
N7_3 Cu7_2 1_555 1_555
C2_3 C11_3 1_555 1_555
C4_3 N3_3 1_555 1_555
C8_2 N4_2 1_555 1_555
C11_3 C31_3 1_555 1_555
C17_3 N7_3 1_555 1_555
H6_3 C17_3 1_555 1_555
C19_2 H8_2 1_555 1_555
C20_2 H9_2 1_555 1_555
C21_3 H10_3 1_555 1_555
C22_2 C20_2 1_555 1_555
H11_2 C22_2 1_555 1_555
C23_3 N7_3 1_555 1_555
H12_3 C23_3 1_555 1_555
C25_2 C8_2 1_555 1_555
C26_2 C19_2 1_555 1_555
H14_2 C26_2 1_555 1_555
N11_2 C19_2 1_555 1_555
C31_3 C17_3 1_555 1_555
H18_3 C31_3 1_555 1_555
C32_3 C21_3 1_555 1_555
H19_2 C32_3 1_555 1_555
C37_3 C4_3 1_555 1_555
C39_3 N13_2 1_555 1_555
H24_3 C39_3 1_555 1_555
C40_3 C37_3 1_555 1_555
H25_3 C40_3 1_555 1_555
C42_3 C11_3 1_555 1_555
H26_2 C42_3 1_555 1_555
O8_2 Cu7_2 1_555 1_555
N5_2 C8_2 1_555 1_555
C20_2 N11_2 1_555 1_555
C22_2 C25_2 1_555 1_555
C23_3 C42_3 1_555 1_555
C25_2 C26_2 1_555 1_555
C32_3 C37_3 1_555 1_555
C39_3 C40_3 1_555 1_555
N13 C21_4 1_555 1_555
C21_4 H10_4 1_555 1_555
C32_4 C21_4 1_555 1_555
C37_4 C4_4 1_555 1_555
C39_4 N13 1_555 1_555
H24_4 C39_4 1_555 1_555
C40_4 C37_4 1_555 1_555
H25_4 C40_4 1_555 1_555
C32_4 C37_4 1_555 1_555
C39_4 C40_4 1_555 1_555
N3_4 C2_4 1_555 1_555
N7_4 Cu7 1_555 1_555
C2_4 C11_4 1_555 1_555
C11_4 C31_4 1_555 1_555
C17_4 N7_4 1_555 1_555
H6_4 C17_4 1_555 1_555
C23_4 N7_4 1_555 1_555
H12_4 C23_4 1_555 1_555
C31_4 C17_4 1_555 1_555
H18_4 C31_4 1_555 1_555
C42_4 C11_4 1_555 1_555
Cl2_2 Cu7 1_555 1_555
C23_4 C42_4 1_555 1_555
N14 C35_4 1_555 1_555
C3_4 H1_4 1_555 1_555
C10_4 C15_4 1_555 1_555
C15_4 C3_4 1_555 1_555
C29_4 C15_4 1_555 1_555
C35_4 C29_4 1_555 1_555
H22_4 C35_4 1_555 1_555
C44_4 N14 1_555 1_555
H27_4 C44_4 1_555 1_555
C3_4 C44_4 1_555 1_555
Cu4 O2_4 1_555 1_555
O2_4 C13_4 1_555 1_555
O4_4 C43_4 1_555 1_555
O5_4 C13_4 1_555 1_555
N6_4 Cu4 1_555 1_555
C5_4 C6_4 1_555 1_555
C6_4 H2_4 1_555 1_555
C7_4 C14_4 1_555 1_555
C12_4 N6_4 1_555 1_555
H4_4 C12_4 1_555 1_555
C13_4 C36_4 1_555 1_555
C14_4 C5_4 1_555 1_555
H5_4 C14_4 1_555 1_555
C27_4 N1_4 1_555 1_555
C28_4 N6_4 1_555 1_555
H15_4 C28_4 1_555 1_555
C34_4 C7_4 1_555 1_555
H21_4 C34_4 1_555 1_555
C36_4 C6_4 1_555 1_555
C38_4 C12_4 1_555 1_555
H23_4 C38_4 1_555 1_555
C43_4 O6_4 1_555 1_555
C45_4 C9_4 1_555 1_555
Cl2_2 Cu4 1_555 1_555
C5_4 C43_4 1_555 1_555
C9_4 C28_4 1_555 1_555
C27_4 C45_4 1_555 1_555
C34_4 C36_4 1_555 1_555
C38_4 C45_4 1_555 1_555
O7_2 C1_4 1_555 1_555
O8_2 C1_4 1_555 1_555
N8_4 C16_4 1_555 1_555
C30_4 H17_4 1_555 1_555
C33_4 C30_4 1_555 1_555
H20_4 C33_4 1_555 1_555
N12_4 C18_4 1_555 1_555
C41_4 C16_4 1_555 1_555
C30_4 N12_4 1_555 1_555
C33_4 C41_4 1_555 1_555
H13_3 C24_3 1_555 1_555
C8_3 N4_3 1_555 1_555
C19_3 H8_3 1_555 1_555
C25_3 C8_3 1_555 1_555
C26_3 C19_3 1_555 1_555
H14_3 C26_3 1_555 1_555
N11_3 C19_3 1_555 1_555
C25_3 C26_3 1_555 1_555
C20_3 H9_3 1_555 1_555
C22_3 C20_3 1_555 1_555
H11_3 C22_3 1_555 1_555
C20_4 H9_4 1_555 1_555
C22_4 C20_4 1_555 1_555
H11_4 C22_4 1_555 1_555
C8_4 N4_4 1_555 1_555
C19_4 H8_4 1_555 1_555
C25_4 C8_4 1_555 1_555
C26_4 C19_4 1_555 1_555
H14_4 C26_4 1_555 1_555
N11_4 C19_4 1_555 1_555
C25_4 C26_4 1_555 1_555
H13_4 C24_4 1_555 1_555

#END
