
###############################################################################
#
# This file contains modified crystal structure data generated from the
# MOF subset of the Cambridge Structural Database (CSD) v543 
# hosted by the Cambridge Crystallographic Data Centre (CCDC).
#
# This work is licensed under the Creative Commons
# Attribution-NonCommercial-ShareAlike 4.0 International License.
# To view a copy of this license, visit
# http://creativecommons.org/licenses/by-nc-sa/4.0/
# or send a letter to
# Creative Commons, PO Box 1866, Mountain View, CA 94042, USA.
#
# CIF created using the CSD Python API on 29 September 2022
# The structure has been converted into the P1 space group
# The structure has a 3D framework
# The original CSD entry SIRZUQ is in the rhombohedral crystal system
# The framework has been calculated to contain at least 10.0% void space
# The void calculation uses a probe of radius 1.32A, grid spacing 0.4
#
###############################################################################

data_SIRZUQ
_chemical_formula_moiety         '(C252 H180 Cd18 N36 O86)n'
_symmetry_cell_setting           triclinic
_symmetry_space_group_name_H-M   'P 1'
_symmetry_Int_Tables_number      1
_space_group_name_Hall           'P 1'
loop_
_symmetry_equiv_pos_site_id
_symmetry_equiv_pos_as_xyz
1 x,y,z
_cell_length_a                   26.784(4)
_cell_length_b                   26.784(4)
_cell_length_c                   11.102(2)
_cell_angle_alpha                90
_cell_angle_beta                 90
_cell_angle_gamma                120
_cell_volume                     6897.36
loop_
_atom_site_label
_atom_site_type_symbol
_atom_site_fract_x
_atom_site_fract_y
_atom_site_fract_z
C10 C 0.23355(11) 0.07428(9) 0.0386(2)
H6 H 0.2142 0.0346 0.0265
C11 C 0.21873(11) 0.09708(11) 0.1341(2)
H7 H 0.1897 0.0727 0.1868
C12 C 0.24690(10) 0.15596(10) 0.15184(19)
H8 H 0.2367 0.1709 0.2168
C13 C 0.29030(8) 0.19318(8) 0.07401(16)
C14 C 0.31931(8) 0.25674(8) 0.09753(15)
O3 O 0.34232(6) 0.29274(5) 0.01303(11)
O4 O 0.32098(7) 0.27457(6) 0.20190(13)
Cd3 Cd 0.381882(5) 0.375087(8) 0.147050(11)
Cd1 Cd 0.340129(6) 0.048549(5) 0.519617(11)
C1 C 0.40592(8) 0.14783(8) 0.63549(15)
C2 C 0.44346(8) 0.20692(8) 0.68640(16)
C3 C 0.49317(9) 0.24471(9) 0.6242(2)
H1 H 0.5020 0.2329 0.5526
C4 C 0.52975(11) 0.29961(10) 0.6670(2)
H2 H 0.5630 0.3243 0.6246
C5 C 0.51688(11) 0.31774(10) 0.7726(2)
H3 H 0.5418 0.3545 0.8020
C6 C 0.46709(9) 0.28153(9) 0.8351(2)
H4 H 0.4583 0.2941 0.9057
C7 C 0.43023(8) 0.22635(8) 0.79218(16)
C8 C 0.30589(8) 0.16926(8) 0.97950(16)
C9 C 0.27719(9) 0.11021(9) 0.9606(2)
H5 H 0.2872 0.0948 0.8960
N1 N 0.38269(7) 0.18753(6) 0.86610(13)
N2 N 0.35134(7) 0.20716(6) 0.89890(13)
O1 O 0.42364(6) 0.13439(6) 0.54269(12)
O2 O 0.35836(6) 0.11386(6) 0.68437(11)
Cd2 Cd 0.326538(6) 0.284784(5) 0.813716(11)
N3 N 0.31533(7) 0.12617(6) 0.43443(13)
O6 O 0.32435(6) 0.04059(5) 0.32030(11)
O7 O 0.38291(8) 0.00899(6) 0.65364(11)
C2_2 C 0.45975(8) 0.56987(11) 0.01973(16)
C4_2 C 0.36706(10) 0.56347(15) 0.0003(2)
C5_2 C 0.34893(10) 0.53247(15) 0.1059(2)
H3_2 H 0.3122 0.5206 0.1353
C6_2 C 0.38514(9) 0.51889(13) 0.1684(2)
H4_2 H 0.3726 0.4975 0.2390
C7_2 C 0.44032(8) 0.53721(11) 0.12551(16)
C8_2 C 0.49741(8) 0.46996(11) 0.31283(16)
C9_2 C 0.55646(9) 0.50031(13) 0.2939(2)
H5_2 H 0.5719 0.5257 0.2293
C10_2 C 0.59239(9) 0.49260(14) 0.3719(2)
H6_2 H 0.6321 0.5129 0.3598
C11_2 C 0.56959(11) 0.45498(16) 0.4674(2)
H7_2 H 0.5940 0.4503 0.5201
C12_2 C 0.51071(10) 0.42427(14) 0.48517(19)
H8_2 H 0.4958 0.3991 0.5501
C13_2 C 0.47349(8) 0.43045(11) 0.40734(16)
C14_2 C 0.40993(8) 0.39590(11) 0.43086(15)
N1_2 N 0.47914(6) 0.52849(9) 0.19943(13)
N2_2 N 0.45951(6) 0.47751(9) 0.23223(13)
O2_2 O 0.55281(6) 0.57783(8) 0.01770(11)
O3_2 O 0.37393(5) 0.38291(8) 0.34636(11)
O4_2 O 0.39210(6) 0.37974(9) 0.53523(13)
Cd3_2 Cd 0.291580(8) 0.340129(9) 0.480383(11)
O5 O 0.38877(8) 0.07824(6) 0.90732(12)
H9 H 0.3767 0.0774 0.9785
H10 H 0.3818 0.0971 0.8551
N3_2 N 0.47751(9) 0.01801(7) 0.76777(13)
O8 O 0.34569(7) 0.05876(11) 0.13143(13)
Cd1_2 Cd 0.041753(8) 0.326538(6) 0.186284(11)
C1_2 C 0.07524(11) 0.26075(8) 0.30216(15)
C2_3 C 0.09679(11) 0.22321(8) 0.35307(16)
C3_2 C 0.08487(13) 0.17350(9) 0.2909(2)
H1_2 H 0.0642 0.1647 0.2193
C4_3 C 0.10319(15) 0.13692(11) 0.3337(2)
H2_2 H 0.0946 0.1037 0.2913
C5_3 C 0.13419(15) 0.14979(11) 0.4393(2)
H3_3 H 0.1460 0.1249 0.4687
C6_3 C 0.14777(13) 0.19958(9) 0.5018(2)
H4_3 H 0.1691 0.2084 0.5724
C7_3 C 0.12945(11) 0.23644(8) 0.45885(16)
C8_3 C 0.19670(11) 0.36078(8) 0.64617(16)
C9_3 C 0.16635(13) 0.38948(9) 0.6273(2)
H5_3 H 0.1409 0.3795 0.5627
C10_3 C 0.17406(14) 0.43312(11) 0.7053(2)
H6_3 H 0.1537 0.4525 0.6932
C11_3 C 0.21168(16) 0.44794(11) 0.8008(2)
H7_3 H 0.2163 0.4770 0.8535
C12_3 C 0.24239(14) 0.41977(10) 0.81851(19)
H8_3 H 0.2675 0.4300 0.8835
C13_3 C 0.23621(11) 0.37637(8) 0.74068(16)
C14_3 C 0.27076(11) 0.34736(8) 0.76420(15)
N1_3 N 0.13817(9) 0.28398(7) 0.53277(13)
N2_3 N 0.18915(9) 0.31533(7) 0.56557(13)
O1_2 O 0.04408(8) 0.24303(6) 0.20936(12)
O2_3 O 0.08883(8) 0.30831(6) 0.35104(11)
O3_3 O 0.28375(8) 0.32435(6) 0.67970(11)
O4_3 O 0.28692(9) 0.34569(7) 0.86857(13)
O5_2 O 0.05543(8) 0.41158(6) 0.24066(12)
H9_2 H 0.0433 0.4108 0.3119
H10_2 H 0.0484 0.4305 0.1885
N3_3 N 0.14418(9) 0.35134(7) 0.10110(13)
C1_3 C 0.25809(11) 0.40592(8) 0.36451(15)
C2_4 C 0.23654(11) 0.44346(8) 0.31360(16)
C3_3 C 0.24846(13) 0.49317(9) 0.3758(2)
H1_3 H 0.2691 0.5020 0.4474
C4_4 C 0.23014(15) 0.52975(11) 0.3330(2)
H2_3 H 0.2387 0.5630 0.3754
C5_4 C 0.19914(15) 0.51688(11) 0.2274(2)
H3_4 H 0.1873 0.5418 0.1980
C6_4 C 0.18556(13) 0.46709(9) 0.1649(2)
H4_4 H 0.1642 0.4583 0.0943
C7_4 C 0.20388(11) 0.43023(8) 0.20782(16)
C8_4 C 0.13663(11) 0.30589(8) 0.02050(16)
C9_4 C 0.16698(13) 0.27719(9) 0.0394(2)
H5_4 H 0.1924 0.2872 0.1040
N1_4 N 0.19516(9) 0.38269(7) 0.13390(13)
O1_3 O 0.28925(8) 0.42364(6) 0.45731(12)
O2_4 O 0.24450(8) 0.35836(6) 0.31563(11)
O5_3 O 0.27790(8) 0.25509(6) 0.42601(12)
H9_3 H 0.2900 0.2559 0.3548
H10_3 H 0.2849 0.2362 0.4782
C1_4 C 0.48116(8) 0.40858(11) 0.03118(15)
C3_4 C 0.57804(9) 0.41821(13) 0.0425(2)
H1_4 H 0.5662 0.3976 0.1141
H2_4 H 0.6576 0.4280 0.0421
O1_4 O 0.46772(6) 0.37742(8) 0.12398(12)
O5_4 O 0.31052(6) 0.38877(8) 0.09268(12)
H9_4 H 0.2992 0.3767 0.0215
H10_4 H 0.2846 0.3818 0.1449
C2_5 C 0.56987(11) 0.11013(8) 0.98027(16)
C4_5 C 0.56347(15) 0.19642(11) 0.9997(2)
C5_5 C 0.53247(15) 0.18355(11) 0.8941(2)
H3_5 H 0.5206 0.2085 0.8647
C6_5 C 0.51889(13) 0.13376(9) 0.8316(2)
H4_5 H 0.4975 0.1250 0.7610
C7_5 C 0.53721(11) 0.09690(8) 0.87449(16)
N1_5 N 0.52849(9) 0.04936(7) 0.80057(13)
O2_5 O 0.57783(8) 0.02503(6) 0.98230(11)
C1_5 C 0.26075(8) 0.18550(8) 0.69784(15)
C2_6 C 0.22321(8) 0.12641(8) 0.64693(16)
C3_5 C 0.17350(9) 0.08862(9) 0.7091(2)
H1_5 H 0.1647 0.1004 0.7807
C4_6 C 0.13692(11) 0.03372(10) 0.6663(2)
H2_5 H 0.1037 0.0090 0.7087
C5_6 C 0.14979(11) 0.01559(10) 0.5607(2)
C6_6 C 0.19958(9) 0.05180(9) 0.4982(2)
H4_6 H 0.2084 0.0392 0.4276
C7_6 C 0.23644(8) 0.10698(8) 0.54115(16)
C8_5 C 0.36078(8) 0.16407(8) 0.35383(16)
C9_5 C 0.38948(9) 0.22312(9) 0.3727(2)
H5_5 H 0.3795 0.2385 0.4373
C10_4 C 0.43312(11) 0.25905(9) 0.2947(2)
H6_4 H 0.4525 0.2987 0.3068
C11_4 C 0.44794(11) 0.23625(11) 0.1992(2)
H7_4 H 0.4770 0.2606 0.1465
C12_4 C 0.41977(10) 0.17737(10) 0.18149(19)
H8_4 H 0.4300 0.1624 0.1165
C13_4 C 0.37637(8) 0.14015(8) 0.25932(16)
C14_4 C 0.34736(8) 0.07659(8) 0.23580(15)
N1_6 N 0.28398(7) 0.14580(6) 0.46723(13)
O1_5 O 0.24303(6) 0.19894(6) 0.79064(12)
O2_6 O 0.30831(6) 0.21947(6) 0.64896(11)
O5_5 O 0.41158(6) 0.35614(6) 0.75934(12)
H9_5 H 0.4108 0.3674 0.6881
H10_5 H 0.4305 0.3820 0.8115
H3_6 H 0.0212 0.1460 0.5313
O5_6 O 0.25509(6) 0.97719(6) 0.57399(12)
H9_6 H 0.2559 0.9659 0.6452
H10_6 H 0.2362 0.9513 0.5218
O8_2 O 0.37974(9) 0.98765(7) 0.46477(13)
Cd1_3 Cd 0.375087(8) 0.993204(6) 0.852950(11)
C1_6 C 0.40858(11) 0.92741(8) 0.96882(15)
C3_6 C 0.41821(13) 0.84016(9) 0.9575(2)
H1_6 H 0.3976 0.8313 0.8859
H2_6 H 0.4280 0.7703 0.9579
O1_6 O 0.37742(8) 0.90969(6) 0.87602(12)
O7_2 O 0.29274(10) 0.95042(8) 0.98697(11)
O8_3 O 0.27457(11) 0.95359(9) 0.79810(13)
C10_5 C 0.07428(9) 0.84073(14) 0.9614(2)
H6_5 H 0.0346 0.8204 0.9735
C11_5 C 0.09708(11) 0.87835(16) 0.8659(2)
H7_5 H 0.0727 0.8830 0.8132
C12_5 C 0.15596(10) 0.90906(14) 0.84816(19)
H8_5 H 0.1709 0.9342 0.7832
C13_5 C 0.19318(8) 0.90288(11) 0.92599(16)
C14_5 C 0.25674(8) 0.93743(11) 0.90247(15)
C8_6 C 0.46996(11) 0.97256(8) 0.68717(16)
C9_6 C 0.50031(13) 0.94386(9) 0.7061(2)
H5_6 H 0.5257 0.9539 0.7707
C10_6 C 0.49260(14) 0.90022(11) 0.6281(2)
H6_6 H 0.5129 0.8809 0.6402
C11_6 C 0.45498(16) 0.88540(11) 0.5326(2)
H7_6 H 0.4503 0.8564 0.4799
C12_6 C 0.42427(14) 0.91357(10) 0.51483(19)
H8_6 H 0.3991 0.9034 0.4499
C13_6 C 0.43045(11) 0.95697(8) 0.59266(16)
C14_6 C 0.39590(11) 0.98598(8) 0.56914(15)
O5_7 O 0.02281(6) 0.27790(8) 0.57399(12)
H9_7 H 0.0341 0.2900 0.6452
H10_7 H 0.0487 0.2849 0.5218
O8_4 O 0.01235(7) 0.39210(11) 0.46477(13)
Cd1_4 Cd 0.006796(6) 0.381882(5) 0.852950(11)
C1_7 C 0.07259(8) 0.48116(8) 0.96882(15)
C3_7 C 0.15984(9) 0.57804(9) 0.9575(2)
H1_7 H 0.1687 0.5662 0.8859
H2_7 H 0.2297 0.6576 0.9579
O1_7 O 0.09031(6) 0.46772(6) 0.87602(12)
O7_3 O 0.04958(8) 0.34232(6) 0.98697(11)
O8_5 O 0.04641(9) 0.32098(7) 0.79810(13)
C10_7 C 0.15927(14) 0.23355(11) 0.9614(2)
H6_7 H 0.1796 0.2142 0.9735
C11_7 C 0.12165(16) 0.21873(11) 0.8659(2)
H7_7 H 0.1170 0.1897 0.8132
C12_7 C 0.09094(14) 0.24690(10) 0.84816(19)
H8_7 H 0.0658 0.2367 0.7832
C13_7 C 0.09712(11) 0.29030(8) 0.92599(16)
C14_7 C 0.06257(11) 0.31931(8) 0.90247(15)
C8_7 C 0.02744(8) 0.49741(8) 0.68717(16)
C9_7 C 0.05614(9) 0.55646(9) 0.7061(2)
H5_7 H 0.0461 0.5719 0.7707
C10_8 C 0.09978(11) 0.59239(9) 0.6281(2)
H6_8 H 0.1191 0.6321 0.6402
C11_8 C 0.11460(11) 0.56959(11) 0.5326(2)
H7_8 H 0.1436 0.5940 0.4799
C12_8 C 0.08643(10) 0.51071(10) 0.51483(19)
H8_8 H 0.0966 0.4958 0.4499
C13_8 C 0.04303(8) 0.47349(8) 0.59266(16)
C14_8 C 0.01402(8) 0.40993(8) 0.56914(15)
C10_9 C 0.92572(9) 0.15927(14) 0.0386(2)
H6_9 H 0.9654 0.1796 0.0265
C11_9 C 0.90292(11) 0.12165(16) 0.1341(2)
H7_9 H 0.9273 0.1170 0.1868
C12_9 C 0.84404(10) 0.09094(14) 0.15184(19)
H8_9 H 0.8291 0.0658 0.2168
C13_9 C 0.80682(8) 0.09712(11) 0.07401(16)
C14_9 C 0.74326(8) 0.06257(11) 0.09753(15)
O3_4 O 0.70726(5) 0.04958(8) 0.01303(11)
O4_4 O 0.72543(6) 0.04641(9) 0.20190(13)
Cd3_3 Cd 0.624913(8) 0.006796(9) 0.147050(11)
C8_8 C 0.53004(11) 0.02744(8) 0.31283(16)
C9_8 C 0.49969(13) 0.05614(9) 0.2939(2)
H5_8 H 0.4743 0.0461 0.2293
C10_10 C 0.50740(14) 0.09978(11) 0.3719(2)
H6_10 H 0.4871 0.1191 0.3598
C11_10 C 0.54502(16) 0.11460(11) 0.4674(2)
H7_10 H 0.5497 0.1436 0.5201
C12_10 C 0.57573(14) 0.08643(10) 0.48517(19)
H8_10 H 0.6009 0.0966 0.5501
C13_10 C 0.56955(11) 0.04303(8) 0.40734(16)
C14_10 C 0.60410(11) 0.01402(8) 0.43086(15)
O4_5 O 0.62026(9) 0.01235(7) 0.53523(13)
O5_8 O 0.74491(6) 0.02281(6) 0.42601(12)
H9_8 H 0.7441 0.0341 0.3548
H10_8 H 0.7638 0.0487 0.4782
C1_8 C 0.59142(11) 0.07259(8) 0.03118(15)
C3_8 C 0.58179(13) 0.15984(9) 0.0425(2)
H1_8 H 0.6024 0.1687 0.1141
H2_8 H 0.5720 0.2297 0.0421
O1_8 O 0.62258(8) 0.09031(6) 0.12398(12)
Cd1_5 Cd 0.951451(5) 0.291580(8) 0.519617(11)
C1_9 C 0.85217(8) 0.25809(11) 0.63549(15)
C2_7 C 0.79308(8) 0.23654(11) 0.68640(16)
C3_9 C 0.75529(9) 0.24846(13) 0.6242(2)
H1_9 H 0.7671 0.2691 0.5526
C4_7 C 0.70039(10) 0.23014(15) 0.6670(2)
H2_9 H 0.6757 0.2387 0.6246
C5_7 C 0.68226(10) 0.19914(15) 0.7726(2)
H3_7 H 0.6455 0.1873 0.8020
C6_7 C 0.71847(9) 0.18556(13) 0.8351(2)
H4_7 H 0.7059 0.1642 0.9057
C7_7 C 0.77365(8) 0.20388(11) 0.79218(16)
C8_9 C 0.83074(8) 0.13663(11) 0.97950(16)
C9_9 C 0.88979(9) 0.16698(13) 0.9606(2)
H5_9 H 0.9052 0.1924 0.8960
N1_7 N 0.81247(6) 0.19516(9) 0.86610(13)
N2_4 N 0.79284(6) 0.14418(9) 0.89890(13)
O1_9 O 0.86561(6) 0.28925(8) 0.54269(12)
O2_7 O 0.88614(6) 0.24450(8) 0.68437(11)
Cd2_2 Cd 0.715216(5) 0.041753(8) 0.813716(11)
N3_4 N 0.87383(6) 0.18915(9) 0.43443(13)
O6_2 O 0.95941(5) 0.28375(8) 0.32030(11)
O7_4 O 0.99101(6) 0.37393(10) 0.65364(11)
O5_9 O 0.92176(6) 0.31052(6) 0.90732(12)
H9_9 H 0.9226 0.2992 0.9785
H10_9 H 0.9029 0.2846 0.8551
N3_5 N 0.98199(7) 0.45951(6) 0.76777(13)
H3_8 H 0.8751 0.0212 0.4687
O8_6 O 0.94124(11) 0.28692(9) 0.13143(13)
C2_8 C 0.88987(8) 0.45975(8) 0.98027(16)
C4_8 C 0.80358(11) 0.36706(10) 0.9997(2)
C5_8 C 0.81645(11) 0.34893(10) 0.8941(2)
H3_9 H 0.7915 0.3122 0.8647
C6_8 C 0.86624(9) 0.38514(9) 0.8316(2)
H4_8 H 0.8750 0.3726 0.7610
C7_8 C 0.90310(8) 0.44032(8) 0.87449(16)
N1_8 N 0.95064(7) 0.47914(6) 0.80057(13)
O2_8 O 0.97497(6) 0.55281(6) 0.98230(11)
C1_10 C 0.81450(8) 0.07524(11) 0.69784(15)
C2_9 C 0.87359(8) 0.09679(11) 0.64693(16)
C3_10 C 0.91138(9) 0.08487(13) 0.7091(2)
H1_10 H 0.8996 0.0642 0.7807
C4_9 C 0.96628(10) 0.10319(15) 0.6663(2)
H2_10 H 0.9910 0.0946 0.7087
C5_9 C 0.98441(10) 0.13419(15) 0.5607(2)
C6_9 C 0.94820(9) 0.14777(13) 0.4982(2)
H4_9 H 0.9608 0.1691 0.4276
C7_9 C 0.89302(8) 0.12945(11) 0.54115(16)
C8_10 C 0.83593(8) 0.19670(11) 0.35383(16)
C9_10 C 0.77688(9) 0.16635(13) 0.3727(2)
H5_10 H 0.7615 0.1409 0.4373
C10_11 C 0.74095(9) 0.17406(14) 0.2947(2)
H6_11 H 0.7013 0.1537 0.3068
C11_11 C 0.76375(11) 0.21168(16) 0.1992(2)
H7_11 H 0.7394 0.2163 0.1465
C12_11 C 0.82263(10) 0.24239(14) 0.18149(19)
H8_11 H 0.8376 0.2675 0.1165
C13_11 C 0.85985(8) 0.23621(11) 0.25932(16)
C14_11 C 0.92341(8) 0.27076(11) 0.23580(15)
N1_9 N 0.85420(6) 0.13817(9) 0.46723(13)
O1_10 O 0.80106(6) 0.04408(8) 0.79064(12)
O2_9 O 0.78053(6) 0.08883(8) 0.64896(11)
O5_10 O 0.64386(6) 0.05543(8) 0.75934(12)
H9_10 H 0.6326 0.0433 0.6881
H10_10 H 0.6180 0.0484 0.8115
C10_12 C 0.84073(14) 0.76645(11) 0.0386(2)
H6_12 H 0.8204 0.7858 0.0265
C11_12 C 0.87835(16) 0.78127(11) 0.1341(2)
H7_12 H 0.8830 0.8103 0.1868
C12_12 C 0.90906(14) 0.75310(10) 0.15184(19)
H8_12 H 0.9342 0.7633 0.2168
C13_12 C 0.90288(11) 0.70970(8) 0.07401(16)
C14_12 C 0.93743(11) 0.68069(8) 0.09753(15)
O3_5 O 0.95042(8) 0.65768(6) 0.01303(11)
O4_6 O 0.95359(9) 0.67902(7) 0.20190(13)
Cd3_4 Cd 0.993204(9) 0.618118(5) 0.147050(11)
C8_11 C 0.97256(8) 0.50259(8) 0.31283(16)
C9_11 C 0.94386(9) 0.44354(9) 0.2939(2)
H5_11 H 0.9539 0.4281 0.2293
C10_13 C 0.90022(11) 0.40761(9) 0.3719(2)
H6_13 H 0.8809 0.3679 0.3598
C11_13 C 0.88540(11) 0.43041(11) 0.4674(2)
H7_13 H 0.8564 0.4060 0.5201
C12_13 C 0.91357(10) 0.48929(10) 0.48517(19)
H8_13 H 0.9034 0.5042 0.5501
C13_13 C 0.95697(8) 0.52651(8) 0.40734(16)
C14_13 C 0.98598(8) 0.59007(8) 0.43086(15)
O4_7 O 0.98765(7) 0.60790(6) 0.53523(13)
O5_11 O 0.97719(6) 0.72210(8) 0.42601(12)
H9_11 H 0.9659 0.7100 0.3548
H10_11 H 0.9513 0.7151 0.4782
C1_11 C 0.92741(8) 0.51884(8) 0.03118(15)
C3_11 C 0.84016(9) 0.42196(9) 0.0425(2)
H1_11 H 0.8313 0.4338 0.1141
H2_11 H 0.7703 0.3424 0.0421
O1_11 O 0.90969(6) 0.53228(6) 0.12398(12)
Cd1_6 Cd 0.708420(8) 0.659871(6) 0.519617(11)
C1_12 C 0.74191(11) 0.59408(8) 0.63549(15)
C2_10 C 0.76346(11) 0.55654(8) 0.68640(16)
C3_12 C 0.75154(13) 0.50683(9) 0.6242(2)
H1_12 H 0.7309 0.4980 0.5526
C4_10 C 0.76986(15) 0.47025(11) 0.6670(2)
H2_12 H 0.7613 0.4370 0.6246
C5_10 C 0.80086(15) 0.48312(11) 0.7726(2)
H3_10 H 0.8127 0.4582 0.8020
C6_10 C 0.81444(13) 0.53291(9) 0.8351(2)
H4_10 H 0.8358 0.5417 0.9057
C7_10 C 0.79612(11) 0.56977(8) 0.79218(16)
C8_12 C 0.86337(11) 0.69411(8) 0.97950(16)
C9_12 C 0.83302(13) 0.72281(9) 0.9606(2)
H5_12 H 0.8076 0.7128 0.8960
N1_10 N 0.80484(9) 0.61731(7) 0.86610(13)
N2_5 N 0.85582(9) 0.64866(7) 0.89890(13)
O1_12 O 0.71075(8) 0.57636(6) 0.54269(12)
O2_10 O 0.75550(8) 0.64164(6) 0.68437(11)
O5_12 O 0.72210(8) 0.74491(6) 0.57399(12)
H9_12 H 0.7100 0.7441 0.6452
H10_12 H 0.7151 0.7638 0.5218
Cd2_3 Cd 0.958247(8) 0.673462(6) 0.813716(11)
N3_6 N 0.81085(9) 0.68467(7) 0.43443(13)
O6_3 O 0.71625(8) 0.67565(6) 0.32030(11)
O7_5 O 0.62607(10) 0.61709(8) 0.65364(11)
O8_7 O 0.60790(11) 0.62026(9) 0.46477(13)
Cd1_7 Cd 0.618118(5) 0.624913(8) 0.852950(11)
C1_13 C 0.51884(8) 0.59142(11) 0.96882(15)
C3_13 C 0.42196(9) 0.58179(13) 0.9575(2)
H1_13 H 0.4338 0.6024 0.8859
H2_13 H 0.3424 0.5720 0.9579
O1_13 O 0.53228(6) 0.62258(8) 0.87602(12)
O5_13 O 0.68948(6) 0.61123(8) 0.90732(12)
H9_13 H 0.7008 0.6233 0.9785
H10_13 H 0.7154 0.6182 0.8551
N3_7 N 0.54049(6) 0.52249(9) 0.76777(13)
O7_6 O 0.65768(6) 0.70726(10) 0.98697(11)
O8_8 O 0.67902(7) 0.72543(11) 0.79810(13)
C2_11 C 0.43013(11) 0.88987(8) 0.01973(16)
C4_11 C 0.43653(15) 0.80358(11) 0.0003(2)
C5_11 C 0.46753(15) 0.81645(11) 0.1059(2)
H3_11 H 0.4794 0.7915 0.1353
C6_11 C 0.48111(13) 0.86624(9) 0.1684(2)
H4_11 H 0.5025 0.8750 0.2390
C7_11 C 0.46279(11) 0.90310(8) 0.12551(16)
N1_11 N 0.47151(9) 0.95064(7) 0.19943(13)
N2_6 N 0.52249(9) 0.98199(7) 0.23223(13)
O2_11 O 0.42217(8) 0.97497(6) 0.01770(11)
O3_6 O 0.61709(8) 0.99101(6) 0.34636(11)
Cd3_5 Cd 0.659871(9) 0.951451(5) 0.480383(11)
Cd1_8 Cd 0.673462(6) 0.715216(5) 0.186284(11)
C1_14 C 0.73925(8) 0.81450(8) 0.30216(15)
C2_12 C 0.77679(8) 0.87359(8) 0.35307(16)
C3_14 C 0.82650(9) 0.91138(9) 0.2909(2)
H1_14 H 0.8353 0.8996 0.2193
C4_12 C 0.86308(11) 0.96628(10) 0.3337(2)
H2_14 H 0.8963 0.9910 0.2913
C5_12 C 0.85021(11) 0.98441(10) 0.4393(2)
C6_12 C 0.80042(9) 0.94820(9) 0.5018(2)
H4_12 H 0.7916 0.9608 0.5724
C7_12 C 0.76356(8) 0.89302(8) 0.45885(16)
C8_13 C 0.63922(8) 0.83593(8) 0.64617(16)
C9_13 C 0.61052(9) 0.77688(9) 0.6273(2)
H5_13 H 0.6205 0.7615 0.5627
C10_14 C 0.56688(11) 0.74095(9) 0.7053(2)
H6_14 H 0.5475 0.7013 0.6932
C11_14 C 0.55206(11) 0.76375(11) 0.8008(2)
H7_14 H 0.5230 0.7394 0.8535
C12_14 C 0.58023(10) 0.82263(10) 0.81851(19)
H8_14 H 0.5700 0.8376 0.8835
C13_14 C 0.62363(8) 0.85985(8) 0.74068(16)
C14_14 C 0.65264(8) 0.92341(8) 0.76420(15)
N1_12 N 0.71602(7) 0.85420(6) 0.53277(13)
N2_7 N 0.68467(7) 0.87383(6) 0.56557(13)
O1_14 O 0.75697(6) 0.80106(6) 0.20936(12)
O2_12 O 0.69169(6) 0.78053(6) 0.35104(11)
O3_7 O 0.67565(6) 0.95941(5) 0.67970(11)
O4_8 O 0.65431(7) 0.94124(6) 0.86857(13)
O5_14 O 0.58842(6) 0.64386(6) 0.24066(12)
H9_14 H 0.5892 0.6326 0.3119
H10_14 H 0.5695 0.6180 0.1885
N3_8 N 0.64866(7) 0.79284(6) 0.10110(13)
O8_9 O 0.71308(9) 0.65431(7) 0.13143(13)
H3_12 H 0.9788 0.8540 0.4687
C1_15 C 0.59408(8) 0.85217(8) 0.36451(15)
C2_13 C 0.55654(8) 0.79308(8) 0.31360(16)
C3_15 C 0.50683(9) 0.75529(9) 0.3758(2)
H1_15 H 0.4980 0.7671 0.4474
C4_13 C 0.47025(11) 0.70039(10) 0.3330(2)
H2_15 H 0.4370 0.6757 0.3754
C5_13 C 0.48312(11) 0.68226(10) 0.2274(2)
H3_13 H 0.4582 0.6455 0.1980
C6_13 C 0.53291(9) 0.71847(9) 0.1649(2)
H4_13 H 0.5417 0.7059 0.0943
C7_13 C 0.56977(8) 0.77365(8) 0.20782(16)
C8_14 C 0.69411(8) 0.83074(8) 0.02050(16)
C9_14 C 0.72281(9) 0.88979(9) 0.0394(2)
H5_14 H 0.7128 0.9052 0.1040
N1_13 N 0.61731(7) 0.81247(6) 0.13390(13)
O1_15 O 0.57636(6) 0.86561(6) 0.45731(12)
O2_13 O 0.64164(6) 0.88614(6) 0.31563(11)
C10_15 C 0.76645(11) 0.92572(9) 0.9614(2)
H6_15 H 0.7858 0.9654 0.9735
C11_15 C 0.78127(11) 0.90292(11) 0.8659(2)
H7_15 H 0.8103 0.9273 0.8132
C12_15 C 0.75310(10) 0.84404(10) 0.84816(19)
H8_15 H 0.7633 0.8291 0.7832
C13_15 C 0.70970(8) 0.80682(8) 0.92599(16)
C14_15 C 0.68069(8) 0.74326(8) 0.90247(15)
C2_14 C 0.54025(8) 0.43013(11) 0.98027(16)
C4_14 C 0.63294(10) 0.43653(15) 0.9997(2)
C5_14 C 0.65107(10) 0.46753(15) 0.8941(2)
H3_14 H 0.6878 0.4794 0.8647
C6_14 C 0.61486(9) 0.48111(13) 0.8316(2)
H4_14 H 0.6274 0.5025 0.7610
C7_14 C 0.55968(8) 0.46279(11) 0.87449(16)
C8_15 C 0.50259(8) 0.53004(11) 0.68717(16)
C9_15 C 0.44354(9) 0.49969(13) 0.7061(2)
H5_15 H 0.4281 0.4743 0.7707
C10_16 C 0.40761(9) 0.50740(14) 0.6281(2)
H6_16 H 0.3679 0.4871 0.6402
C11_16 C 0.43041(11) 0.54502(16) 0.5326(2)
H7_16 H 0.4060 0.5497 0.4799
C12_16 C 0.48929(10) 0.57573(14) 0.51483(19)
H8_16 H 0.5042 0.6009 0.4499
C13_16 C 0.52651(8) 0.56955(11) 0.59266(16)
C14_16 C 0.59007(8) 0.60410(11) 0.56914(15)
N1_14 N 0.52086(6) 0.47151(9) 0.80057(13)
O2_14 O 0.44719(6) 0.42217(8) 0.98230(11)
O5_15 O 0.61123(8) 0.92176(6) 0.09268(12)
H9_15 H 0.6233 0.9226 0.0215
H10_15 H 0.6182 0.9029 0.1449
C1_16 C 0.92476(11) 0.73925(8) 0.69784(15)
C2_15 C 0.90321(11) 0.77679(8) 0.64693(16)
C3_16 C 0.91513(13) 0.82650(9) 0.7091(2)
H1_16 H 0.9358 0.8353 0.7807
C4_15 C 0.89681(15) 0.86308(11) 0.6663(2)
H2_16 H 0.9054 0.8963 0.7087
C5_15 C 0.86581(15) 0.85021(11) 0.5607(2)
H3_15 H 0.8540 0.8751 0.5313
C6_15 C 0.85223(13) 0.80042(9) 0.4982(2)
H4_15 H 0.8309 0.7916 0.4276
C7_15 C 0.87055(11) 0.76356(8) 0.54115(16)
C8_16 C 0.80330(11) 0.63922(8) 0.35383(16)
C9_16 C 0.83365(13) 0.61052(9) 0.3727(2)
H5_16 H 0.8591 0.6205 0.4373
C10_17 C 0.82594(14) 0.56688(11) 0.2947(2)
H6_17 H 0.8463 0.5475 0.3068
C11_17 C 0.78832(16) 0.55206(11) 0.1992(2)
H7_17 H 0.7837 0.5230 0.1465
C12_17 C 0.75761(14) 0.58023(10) 0.18149(19)
H8_17 H 0.7325 0.5700 0.1165
C13_17 C 0.76379(11) 0.62363(8) 0.25932(16)
C14_17 C 0.72924(11) 0.65264(8) 0.23580(15)
N1_15 N 0.86183(9) 0.71602(7) 0.46723(13)
O1_16 O 0.95592(8) 0.75697(6) 0.79064(12)
O2_15 O 0.91117(8) 0.69169(6) 0.64896(11)
O5_16 O 0.94457(8) 0.58842(6) 0.75934(12)
H9_16 H 0.9567 0.5892 0.6881
H10_16 H 0.9516 0.5695 0.8115
C2_16 C 0.11013(8) 0.54025(8) 0.01973(16)
C4_16 C 0.19642(11) 0.63294(10) 0.0003(2)
C5_16 C 0.18355(11) 0.65107(10) 0.1059(2)
H3_16 H 0.2085 0.6878 0.1353
C6_16 C 0.13376(9) 0.61486(9) 0.1684(2)
H4_16 H 0.1250 0.6274 0.2390
C7_16 C 0.09690(8) 0.55968(8) 0.12551(16)
N1_16 N 0.04936(7) 0.52086(6) 0.19943(13)
N2_8 N 0.01801(7) 0.54049(6) 0.23223(13)
O2_16 O 0.02503(6) 0.44719(6) 0.01770(11)
O3_8 O 0.00899(6) 0.62607(5) 0.34636(11)
Cd3_6 Cd 0.048549(5) 0.708420(8) 0.480383(11)
Cd1_9 Cd 0.284784(5) 0.958247(8) 0.186284(11)
C1_17 C 0.18550(8) 0.92476(11) 0.30216(15)
C2_17 C 0.12641(8) 0.90321(11) 0.35307(16)
C3_17 C 0.08862(9) 0.91513(13) 0.2909(2)
H1_17 H 0.1004 0.9358 0.2193
C4_17 C 0.03372(10) 0.89681(15) 0.3337(2)
H2_17 H 0.0090 0.9054 0.2913
C5_17 C 0.01559(10) 0.86581(15) 0.4393(2)
C6_17 C 0.05180(9) 0.85223(13) 0.5018(2)
H4_17 H 0.0392 0.8309 0.5724
C7_17 C 0.10698(8) 0.87055(11) 0.45885(16)
C8_17 C 0.16407(8) 0.80330(11) 0.64617(16)
C9_17 C 0.22312(9) 0.83365(13) 0.6273(2)
H5_17 H 0.2385 0.8591 0.5627
C10_18 C 0.25905(9) 0.82594(14) 0.7053(2)
H6_18 H 0.2987 0.8463 0.6932
C11_18 C 0.23625(11) 0.78832(16) 0.8008(2)
H7_18 H 0.2606 0.7837 0.8535
C12_18 C 0.17737(10) 0.75761(14) 0.81851(19)
H8_18 H 0.1624 0.7325 0.8835
C13_18 C 0.14015(8) 0.76379(11) 0.74068(16)
C14_18 C 0.07659(8) 0.72924(11) 0.76420(15)
N1_17 N 0.14580(6) 0.86183(9) 0.53277(13)
N2_9 N 0.12617(6) 0.81085(9) 0.56557(13)
O1_17 O 0.19894(6) 0.95592(8) 0.20936(12)
O2_17 O 0.21947(6) 0.91117(8) 0.35104(11)
O3_9 O 0.04059(5) 0.71625(8) 0.67970(11)
O4_9 O 0.05876(6) 0.71308(9) 0.86857(13)
O5_17 O 0.35614(6) 0.94457(8) 0.24066(12)
H9_17 H 0.3674 0.9567 0.3119
H10_17 H 0.3820 0.9516 0.1885
N3_9 N 0.20716(6) 0.85582(9) 0.10110(13)
C1_18 C 0.14783(8) 0.74191(11) 0.36451(15)
C2_18 C 0.20692(8) 0.76346(11) 0.31360(16)
C3_18 C 0.24471(9) 0.75154(13) 0.3758(2)
H1_18 H 0.2329 0.7309 0.4474
C4_18 C 0.29961(10) 0.76986(15) 0.3330(2)
H2_18 H 0.3243 0.7613 0.3754
C5_18 C 0.31774(10) 0.80086(15) 0.2274(2)
H3_17 H 0.3545 0.8127 0.1980
C6_18 C 0.28153(9) 0.81444(13) 0.1649(2)
H4_18 H 0.2941 0.8358 0.0943
C7_18 C 0.22635(8) 0.79612(11) 0.20782(16)
C8_18 C 0.16926(8) 0.86337(11) 0.02050(16)
C9_18 C 0.11021(9) 0.83302(13) 0.0394(2)
H5_18 H 0.0948 0.8076 0.1040
N1_18 N 0.18753(6) 0.80484(9) 0.13390(13)
O1_18 O 0.13439(6) 0.71075(8) 0.45731(12)
O2_18 O 0.11386(6) 0.75550(8) 0.31563(11)
O5_18 O 0.07824(6) 0.68948(6) 0.09268(12)
H9_18 H 0.0774 0.7008 0.0215
H10_18 H 0.0971 0.7154 0.1449
H3_18 H 0.1249 0.9788 0.5313
loop_
_geom_bond_atom_site_label_1
_geom_bond_atom_site_label_2
_geom_bond_site_symmetry_1
_geom_bond_site_symmetry_2
H6 C10 1_555 1_555
C11 C10 1_555 1_555
H7 C11 1_555 1_555
C12 C11 1_555 1_555
H8 C12 1_555 1_555
C14 C13 1_555 1_555
O3 C14 1_555 1_555
O4 C14 1_555 1_555
Cd3 O3 1_555 1_555
C12 C13 1_555 1_555
O4 Cd3 1_555 1_555
Cd1 O1 1_555 1_555
C1 C2 1_555 1_555
C2 C3 1_555 1_555
C3 H1 1_555 1_555
C4 C3 1_555 1_555
H2 C4 1_555 1_555
C5 C4 1_555 1_555
H3 C5 1_555 1_555
C6 C5 1_555 1_555
H4 C6 1_555 1_555
C7 C2 1_555 1_555
C8 C9 1_555 1_555
C9 H5 1_555 1_555
N1 C7 1_555 1_555
N2 C8 1_555 1_555
O1 C1 1_555 1_555
O2 Cd1 1_555 1_555
Cd2 N2 1_555 1_555
N3 Cd1 1_555 1_555
O6 Cd1 1_555 1_555
O7 Cd1 1_555 1_555
C1 O2 1_555 1_555
C6 C7 1_555 1_555
N1 N2 1_555 1_555
C5_2 C4_2 1_555 1_555
H3_2 C5_2 1_555 1_555
C6_2 C5_2 1_555 1_555
H4_2 C6_2 1_555 1_555
C7_2 C2_2 1_555 1_555
C8_2 C9_2 1_555 1_555
C9_2 H5_2 1_555 1_555
C10_2 C9_2 1_555 1_555
H6_2 C10_2 1_555 1_555
C11_2 C10_2 1_555 1_555
H7_2 C11_2 1_555 1_555
C12_2 C11_2 1_555 1_555
H8_2 C12_2 1_555 1_555
C13_2 C8_2 1_555 1_555
C14_2 C13_2 1_555 1_555
N1_2 C7_2 1_555 1_555
N2_2 C8_2 1_555 1_555
O3_2 C14_2 1_555 1_555
O4_2 C14_2 1_555 1_555
Cd3 N2_2 1_555 1_555
Cd3_2 O3_2 1_555 1_555
C6_2 C7_2 1_555 1_555
C12_2 C13_2 1_555 1_555
N1_2 N2_2 1_555 1_555
O3_2 Cd3 1_555 1_555
O4_2 Cd3_2 1_555 1_555
H9 O5 1_555 1_555
H10 O5 1_555 1_555
Cd1_2 O1_2 1_555 1_555
C1_2 C2_3 1_555 1_555
C2_3 C3_2 1_555 1_555
C3_2 H1_2 1_555 1_555
C4_3 C3_2 1_555 1_555
H2_2 C4_3 1_555 1_555
C5_3 C4_3 1_555 1_555
H3_3 C5_3 1_555 1_555
C6_3 C5_3 1_555 1_555
H4_3 C6_3 1_555 1_555
C7_3 C2_3 1_555 1_555
C8_3 C9_3 1_555 1_555
C9_3 H5_3 1_555 1_555
C10_3 C9_3 1_555 1_555
H6_3 C10_3 1_555 1_555
C11_3 C10_3 1_555 1_555
H7_3 C11_3 1_555 1_555
C12_3 C11_3 1_555 1_555
H8_3 C12_3 1_555 1_555
C13_3 C8_3 1_555 1_555
C14_3 C13_3 1_555 1_555
N1_3 C7_3 1_555 1_555
N2_3 C8_3 1_555 1_555
O1_2 C1_2 1_555 1_555
O2_3 Cd1_2 1_555 1_555
O3_3 C14_3 1_555 1_555
O4_3 C14_3 1_555 1_555
O5_2 Cd1_2 1_555 1_555
H9_2 O5_2 1_555 1_555
H10_2 O5_2 1_555 1_555
Cd3_2 N2_3 1_555 1_555
Cd2 O3_3 1_555 1_555
N3_3 Cd1_2 1_555 1_555
C1_2 O2_3 1_555 1_555
C6_3 C7_3 1_555 1_555
C12_3 C13_3 1_555 1_555
N1_3 N2_3 1_555 1_555
O3_3 Cd3_2 1_555 1_555
O4_3 Cd2 1_555 1_555
Cd3_2 O1_3 1_555 1_555
C1_3 C2_4 1_555 1_555
C2_4 C3_3 1_555 1_555
C3_3 H1_3 1_555 1_555
C4_4 C3_3 1_555 1_555
H2_3 C4_4 1_555 1_555
C5_4 C4_4 1_555 1_555
H3_4 C5_4 1_555 1_555
C6_4 C5_4 1_555 1_555
H4_4 C6_4 1_555 1_555
C7_4 C2_4 1_555 1_555
C8_4 C9_4 1_555 1_555
C9_4 H5_4 1_555 1_555
N1_4 C7_4 1_555 1_555
N3_3 C8_4 1_555 1_555
O1_3 C1_3 1_555 1_555
O2_4 Cd3_2 1_555 1_555
O5_3 Cd3_2 1_555 1_555
H9_3 O5_3 1_555 1_555
H10_3 O5_3 1_555 1_555
C1_3 O2_4 1_555 1_555
C6_4 C7_4 1_555 1_555
N1_4 N3_3 1_555 1_555
Cd3 O1_4 1_555 1_555
C3_4 H1_4 1_555 1_555
O1_4 C1_4 1_555 1_555
O5_4 Cd3 1_555 1_555
H9_4 O5_4 1_555 1_555
H10_4 O5_4 1_555 1_555
C5_5 C4_5 1_555 1_555
H3_5 C5_5 1_555 1_555
C6_5 C5_5 1_555 1_555
H4_5 C6_5 1_555 1_555
C7_5 C2_5 1_555 1_555
N1_5 C7_5 1_555 1_555
C6_5 C7_5 1_555 1_555
N1_5 N3_2 1_555 1_555
Cd2 O1_5 1_555 1_555
C1_5 C2_6 1_555 1_555
C2_6 C3_5 1_555 1_555
C3_5 H1_5 1_555 1_555
C4_6 C3_5 1_555 1_555
H2_5 C4_6 1_555 1_555
C5_6 C4_6 1_555 1_555
C6_6 C5_6 1_555 1_555
H4_6 C6_6 1_555 1_555
C7_6 C2_6 1_555 1_555
C8_5 C9_5 1_555 1_555
C9_5 H5_5 1_555 1_555
C10_4 C9_5 1_555 1_555
H6_4 C10_4 1_555 1_555
C11_4 C10_4 1_555 1_555
H7_4 C11_4 1_555 1_555
C12_4 C11_4 1_555 1_555
H8_4 C12_4 1_555 1_555
C13_4 C8_5 1_555 1_555
C14_4 C13_4 1_555 1_555
N1_6 C7_6 1_555 1_555
N3 C8_5 1_555 1_555
O1_5 C1_5 1_555 1_555
O2_6 Cd2 1_555 1_555
O6 C14_4 1_555 1_555
O8 C14_4 1_555 1_555
O5_5 Cd2 1_555 1_555
H9_5 O5_5 1_555 1_555
H10_5 O5_5 1_555 1_555
C1_5 O2_6 1_555 1_555
C6_6 C7_6 1_555 1_555
C12_4 C13_4 1_555 1_555
N1_6 N3 1_555 1_555
H9_6 O5_6 1_555 1_555
H10_6 O5_6 1_555 1_555
Cd1_3 O1_6 1_555 1_555
C3_6 H1_6 1_555 1_555
O1_6 C1_6 1_555 1_555
O7_2 Cd1_3 1_555 1_555
O8_3 Cd1_3 1_555 1_555
H6_5 C10_5 1_555 1_555
C11_5 C10_5 1_555 1_555
H7_5 C11_5 1_555 1_555
C12_5 C11_5 1_555 1_555
H8_5 C12_5 1_555 1_555
C14_5 C13_5 1_555 1_555
O7_2 C14_5 1_555 1_555
O8_3 C14_5 1_555 1_555
C12_5 C13_5 1_555 1_555
C8_6 C9_6 1_555 1_555
C9_6 H5_6 1_555 1_555
C10_6 C9_6 1_555 1_555
H6_6 C10_6 1_555 1_555
C11_6 C10_6 1_555 1_555
H7_6 C11_6 1_555 1_555
C12_6 C11_6 1_555 1_555
H8_6 C12_6 1_555 1_555
C13_6 C8_6 1_555 1_555
C14_6 C13_6 1_555 1_555
O8_2 C14_6 1_555 1_555
C12_6 C13_6 1_555 1_555
H9_7 O5_7 1_555 1_555
H10_7 O5_7 1_555 1_555
Cd1_4 O1_7 1_555 1_555
C3_7 H1_7 1_555 1_555
O1_7 C1_7 1_555 1_555
O7_3 Cd1_4 1_555 1_555
O8_5 Cd1_4 1_555 1_555
H6_7 C10_7 1_555 1_555
C11_7 C10_7 1_555 1_555
H7_7 C11_7 1_555 1_555
C12_7 C11_7 1_555 1_555
H8_7 C12_7 1_555 1_555
C14_7 C13_7 1_555 1_555
O7_3 C14_7 1_555 1_555
O8_5 C14_7 1_555 1_555
C12_7 C13_7 1_555 1_555
C8_7 C9_7 1_555 1_555
C9_7 H5_7 1_555 1_555
C10_8 C9_7 1_555 1_555
H6_8 C10_8 1_555 1_555
C11_8 C10_8 1_555 1_555
H7_8 C11_8 1_555 1_555
C12_8 C11_8 1_555 1_555
H8_8 C12_8 1_555 1_555
C13_8 C8_7 1_555 1_555
C14_8 C13_8 1_555 1_555
O8_4 C14_8 1_555 1_555
C12_8 C13_8 1_555 1_555
H6_9 C10_9 1_555 1_555
C11_9 C10_9 1_555 1_555
H7_9 C11_9 1_555 1_555
C12_9 C11_9 1_555 1_555
H8_9 C12_9 1_555 1_555
C14_9 C13_9 1_555 1_555
O3_4 C14_9 1_555 1_555
O4_4 C14_9 1_555 1_555
Cd3_3 O3_4 1_555 1_555
C12_9 C13_9 1_555 1_555
O4_4 Cd3_3 1_555 1_555
C8_8 C9_8 1_555 1_555
C9_8 H5_8 1_555 1_555
C10_10 C9_8 1_555 1_555
H6_10 C10_10 1_555 1_555
C11_10 C10_10 1_555 1_555
H7_10 C11_10 1_555 1_555
C12_10 C11_10 1_555 1_555
H8_10 C12_10 1_555 1_555
C13_10 C8_8 1_555 1_555
C14_10 C13_10 1_555 1_555
O4_5 C14_10 1_555 1_555
C12_10 C13_10 1_555 1_555
H9_8 O5_8 1_555 1_555
H10_8 O5_8 1_555 1_555
Cd3_3 O1_8 1_555 1_555
C3_8 H1_8 1_555 1_555
O1_8 C1_8 1_555 1_555
Cd1_5 O1_9 1_555 1_555
C1_9 C2_7 1_555 1_555
C2_7 C3_9 1_555 1_555
C3_9 H1_9 1_555 1_555
C4_7 C3_9 1_555 1_555
H2_9 C4_7 1_555 1_555
C5_7 C4_7 1_555 1_555
H3_7 C5_7 1_555 1_555
C6_7 C5_7 1_555 1_555
H4_7 C6_7 1_555 1_555
C7_7 C2_7 1_555 1_555
C8_9 C9_9 1_555 1_555
C9_9 H5_9 1_555 1_555
N1_7 C7_7 1_555 1_555
N2_4 C8_9 1_555 1_555
O1_9 C1_9 1_555 1_555
O2_7 Cd1_5 1_555 1_555
Cd2_2 N2_4 1_555 1_555
N3_4 Cd1_5 1_555 1_555
O6_2 Cd1_5 1_555 1_555
O7_4 Cd1_5 1_555 1_555
C1_9 O2_7 1_555 1_555
C6_7 C7_7 1_555 1_555
N1_7 N2_4 1_555 1_555
H9_9 O5_9 1_555 1_555
H10_9 O5_9 1_555 1_555
C5_8 C4_8 1_555 1_555
H3_9 C5_8 1_555 1_555
C6_8 C5_8 1_555 1_555
H4_8 C6_8 1_555 1_555
C7_8 C2_8 1_555 1_555
N1_8 C7_8 1_555 1_555
C6_8 C7_8 1_555 1_555
N1_8 N3_5 1_555 1_555
Cd2_2 O1_10 1_555 1_555
C1_10 C2_9 1_555 1_555
C2_9 C3_10 1_555 1_555
C3_10 H1_10 1_555 1_555
C4_9 C3_10 1_555 1_555
H2_10 C4_9 1_555 1_555
C5_9 C4_9 1_555 1_555
C6_9 C5_9 1_555 1_555
H4_9 C6_9 1_555 1_555
C7_9 C2_9 1_555 1_555
C8_10 C9_10 1_555 1_555
C9_10 H5_10 1_555 1_555
C10_11 C9_10 1_555 1_555
H6_11 C10_11 1_555 1_555
C11_11 C10_11 1_555 1_555
H7_11 C11_11 1_555 1_555
C12_11 C11_11 1_555 1_555
H8_11 C12_11 1_555 1_555
C13_11 C8_10 1_555 1_555
C14_11 C13_11 1_555 1_555
N1_9 C7_9 1_555 1_555
N3_4 C8_10 1_555 1_555
O1_10 C1_10 1_555 1_555
O2_9 Cd2_2 1_555 1_555
O6_2 C14_11 1_555 1_555
O8_6 C14_11 1_555 1_555
O5_10 Cd2_2 1_555 1_555
H9_10 O5_10 1_555 1_555
H10_10 O5_10 1_555 1_555
C1_10 O2_9 1_555 1_555
C6_9 C7_9 1_555 1_555
C12_11 C13_11 1_555 1_555
N1_9 N3_4 1_555 1_555
H6_12 C10_12 1_555 1_555
C11_12 C10_12 1_555 1_555
H7_12 C11_12 1_555 1_555
C12_12 C11_12 1_555 1_555
H8_12 C12_12 1_555 1_555
C14_12 C13_12 1_555 1_555
O3_5 C14_12 1_555 1_555
O4_6 C14_12 1_555 1_555
Cd3_4 O3_5 1_555 1_555
C12_12 C13_12 1_555 1_555
O4_6 Cd3_4 1_555 1_555
C8_11 C9_11 1_555 1_555
C9_11 H5_11 1_555 1_555
C10_13 C9_11 1_555 1_555
H6_13 C10_13 1_555 1_555
C11_13 C10_13 1_555 1_555
H7_13 C11_13 1_555 1_555
C12_13 C11_13 1_555 1_555
H8_13 C12_13 1_555 1_555
C13_13 C8_11 1_555 1_555
C14_13 C13_13 1_555 1_555
O4_7 C14_13 1_555 1_555
C12_13 C13_13 1_555 1_555
H9_11 O5_11 1_555 1_555
H10_11 O5_11 1_555 1_555
Cd3_4 O1_11 1_555 1_555
C3_11 H1_11 1_555 1_555
O1_11 C1_11 1_555 1_555
Cd1_6 O1_12 1_555 1_555
C1_12 C2_10 1_555 1_555
C2_10 C3_12 1_555 1_555
C3_12 H1_12 1_555 1_555
C4_10 C3_12 1_555 1_555
H2_12 C4_10 1_555 1_555
C5_10 C4_10 1_555 1_555
H3_10 C5_10 1_555 1_555
C6_10 C5_10 1_555 1_555
H4_10 C6_10 1_555 1_555
C7_10 C2_10 1_555 1_555
C8_12 C9_12 1_555 1_555
C9_12 H5_12 1_555 1_555
N1_10 C7_10 1_555 1_555
N2_5 C8_12 1_555 1_555
O1_12 C1_12 1_555 1_555
O2_10 Cd1_6 1_555 1_555
O5_12 Cd1_6 1_555 1_555
H9_12 O5_12 1_555 1_555
H10_12 O5_12 1_555 1_555
Cd2_3 N2_5 1_555 1_555
N3_6 Cd1_6 1_555 1_555
O6_3 Cd1_6 1_555 1_555
O7_5 Cd1_6 1_555 1_555
O8_7 Cd1_6 1_555 1_555
C1_12 O2_10 1_555 1_555
C6_10 C7_10 1_555 1_555
N1_10 N2_5 1_555 1_555
Cd1_7 O1_13 1_555 1_555
C3_13 H1_13 1_555 1_555
O1_13 C1_13 1_555 1_555
O5_13 Cd1_7 1_555 1_555
H9_13 O5_13 1_555 1_555
H10_13 O5_13 1_555 1_555
N3_7 Cd1_7 1_555 1_555
O7_5 Cd1_7 1_555 1_555
O7_6 Cd1_7 1_555 1_555
O8_8 Cd1_7 1_555 1_555
C5_11 C4_11 1_555 1_555
H3_11 C5_11 1_555 1_555
C6_11 C5_11 1_555 1_555
H4_11 C6_11 1_555 1_555
C7_11 C2_11 1_555 1_555
N1_11 C7_11 1_555 1_555
Cd3_5 O3_6 1_555 1_555
C6_11 C7_11 1_555 1_555
N1_11 N2_6 1_555 1_555
Cd1_8 O1_14 1_555 1_555
C1_14 C2_12 1_555 1_555
C2_12 C3_14 1_555 1_555
C3_14 H1_14 1_555 1_555
C4_12 C3_14 1_555 1_555
H2_14 C4_12 1_555 1_555
C5_12 C4_12 1_555 1_555
C6_12 C5_12 1_555 1_555
H4_12 C6_12 1_555 1_555
C7_12 C2_12 1_555 1_555
C8_13 C9_13 1_555 1_555
C9_13 H5_13 1_555 1_555
C10_14 C9_13 1_555 1_555
H6_14 C10_14 1_555 1_555
C11_14 C10_14 1_555 1_555
H7_14 C11_14 1_555 1_555
C12_14 C11_14 1_555 1_555
H8_14 C12_14 1_555 1_555
C13_14 C8_13 1_555 1_555
C14_14 C13_14 1_555 1_555
N1_12 C7_12 1_555 1_555
N2_7 C8_13 1_555 1_555
O1_14 C1_14 1_555 1_555
O2_12 Cd1_8 1_555 1_555
O3_7 C14_14 1_555 1_555
O4_8 C14_14 1_555 1_555
O5_14 Cd1_8 1_555 1_555
H9_14 O5_14 1_555 1_555
H10_14 O5_14 1_555 1_555
Cd3_5 N2_7 1_555 1_555
N3_8 Cd1_8 1_555 1_555
O6_3 Cd1_8 1_555 1_555
O8_9 Cd1_8 1_555 1_555
C1_14 O2_12 1_555 1_555
C6_12 C7_12 1_555 1_555
C12_14 C13_14 1_555 1_555
N1_12 N2_7 1_555 1_555
O3_7 Cd3_5 1_555 1_555
Cd3_5 O1_15 1_555 1_555
C1_15 C2_13 1_555 1_555
C2_13 C3_15 1_555 1_555
C3_15 H1_15 1_555 1_555
C4_13 C3_15 1_555 1_555
H2_15 C4_13 1_555 1_555
C5_13 C4_13 1_555 1_555
H3_13 C5_13 1_555 1_555
C6_13 C5_13 1_555 1_555
H4_13 C6_13 1_555 1_555
C7_13 C2_13 1_555 1_555
C8_14 C9_14 1_555 1_555
C9_14 H5_14 1_555 1_555
N1_13 C7_13 1_555 1_555
N3_8 C8_14 1_555 1_555
O1_15 C1_15 1_555 1_555
O2_13 Cd3_5 1_555 1_555
C1_15 O2_13 1_555 1_555
C6_13 C7_13 1_555 1_555
N1_13 N3_8 1_555 1_555
H6_15 C10_15 1_555 1_555
C11_15 C10_15 1_555 1_555
H7_15 C11_15 1_555 1_555
C12_15 C11_15 1_555 1_555
H8_15 C12_15 1_555 1_555
C14_15 C13_15 1_555 1_555
O7_6 C14_15 1_555 1_555
O8_8 C14_15 1_555 1_555
C12_15 C13_15 1_555 1_555
C5_14 C4_14 1_555 1_555
H3_14 C5_14 1_555 1_555
C6_14 C5_14 1_555 1_555
H4_14 C6_14 1_555 1_555
C7_14 C2_14 1_555 1_555
C8_15 C9_15 1_555 1_555
C9_15 H5_15 1_555 1_555
C10_16 C9_15 1_555 1_555
H6_16 C10_16 1_555 1_555
C11_16 C10_16 1_555 1_555
H7_16 C11_16 1_555 1_555
C12_16 C11_16 1_555 1_555
H8_16 C12_16 1_555 1_555
C13_16 C8_15 1_555 1_555
C14_16 C13_16 1_555 1_555
N1_14 C7_14 1_555 1_555
N3_7 C8_15 1_555 1_555
O7_5 C14_16 1_555 1_555
O8_7 C14_16 1_555 1_555
C6_14 C7_14 1_555 1_555
C12_16 C13_16 1_555 1_555
N1_14 N3_7 1_555 1_555
H9_15 O5_15 1_555 1_555
H10_15 O5_15 1_555 1_555
Cd2_3 O1_16 1_555 1_555
C1_16 C2_15 1_555 1_555
C2_15 C3_16 1_555 1_555
C3_16 H1_16 1_555 1_555
C4_15 C3_16 1_555 1_555
H2_16 C4_15 1_555 1_555
C5_15 C4_15 1_555 1_555
H3_15 C5_15 1_555 1_555
C6_15 C5_15 1_555 1_555
H4_15 C6_15 1_555 1_555
C7_15 C2_15 1_555 1_555
C8_16 C9_16 1_555 1_555
C9_16 H5_16 1_555 1_555
C10_17 C9_16 1_555 1_555
H6_17 C10_17 1_555 1_555
C11_17 C10_17 1_555 1_555
H7_17 C11_17 1_555 1_555
C12_17 C11_17 1_555 1_555
H8_17 C12_17 1_555 1_555
C13_17 C8_16 1_555 1_555
C14_17 C13_17 1_555 1_555
N1_15 C7_15 1_555 1_555
N3_6 C8_16 1_555 1_555
O1_16 C1_16 1_555 1_555
O2_15 Cd2_3 1_555 1_555
O6_3 C14_17 1_555 1_555
O8_9 C14_17 1_555 1_555
O5_16 Cd2_3 1_555 1_555
H9_16 O5_16 1_555 1_555
H10_16 O5_16 1_555 1_555
C1_16 O2_15 1_555 1_555
C6_15 C7_15 1_555 1_555
C12_17 C13_17 1_555 1_555
N1_15 N3_6 1_555 1_555
C5_16 C4_16 1_555 1_555
H3_16 C5_16 1_555 1_555
C6_16 C5_16 1_555 1_555
H4_16 C6_16 1_555 1_555
C7_16 C2_16 1_555 1_555
N1_16 C7_16 1_555 1_555
Cd3_6 O3_8 1_555 1_555
C6_16 C7_16 1_555 1_555
N1_16 N2_8 1_555 1_555
Cd1_9 O1_17 1_555 1_555
C1_17 C2_17 1_555 1_555
C2_17 C3_17 1_555 1_555
C3_17 H1_17 1_555 1_555
C4_17 C3_17 1_555 1_555
H2_17 C4_17 1_555 1_555
C5_17 C4_17 1_555 1_555
C6_17 C5_17 1_555 1_555
H4_17 C6_17 1_555 1_555
C7_17 C2_17 1_555 1_555
C8_17 C9_17 1_555 1_555
C9_17 H5_17 1_555 1_555
C10_18 C9_17 1_555 1_555
H6_18 C10_18 1_555 1_555
C11_18 C10_18 1_555 1_555
H7_18 C11_18 1_555 1_555
C12_18 C11_18 1_555 1_555
H8_18 C12_18 1_555 1_555
C13_18 C8_17 1_555 1_555
C14_18 C13_18 1_555 1_555
N1_17 C7_17 1_555 1_555
N2_9 C8_17 1_555 1_555
O1_17 C1_17 1_555 1_555
O2_17 Cd1_9 1_555 1_555
O3_9 C14_18 1_555 1_555
O4_9 C14_18 1_555 1_555
O5_17 Cd1_9 1_555 1_555
H9_17 O5_17 1_555 1_555
H10_17 O5_17 1_555 1_555
Cd3_6 N2_9 1_555 1_555
N3_9 Cd1_9 1_555 1_555
C1_17 O2_17 1_555 1_555
C6_17 C7_17 1_555 1_555
C12_18 C13_18 1_555 1_555
N1_17 N2_9 1_555 1_555
O3_9 Cd3_6 1_555 1_555
Cd3_6 O1_18 1_555 1_555
C1_18 C2_18 1_555 1_555
C2_18 C3_18 1_555 1_555
C3_18 H1_18 1_555 1_555
C4_18 C3_18 1_555 1_555
H2_18 C4_18 1_555 1_555
C5_18 C4_18 1_555 1_555
H3_17 C5_18 1_555 1_555
C6_18 C5_18 1_555 1_555
H4_18 C6_18 1_555 1_555
C7_18 C2_18 1_555 1_555
C8_18 C9_18 1_555 1_555
C9_18 H5_18 1_555 1_555
N1_18 C7_18 1_555 1_555
N3_9 C8_18 1_555 1_555
O1_18 C1_18 1_555 1_555
O2_18 Cd3_6 1_555 1_555
C1_18 O2_18 1_555 1_555
C6_18 C7_18 1_555 1_555
N1_18 N3_9 1_555 1_555
H9_18 O5_18 1_555 1_555
H10_18 O5_18 1_555 1_555

#END
