
###############################################################################
#
# This file contains modified crystal structure data generated from the
# MOF subset of the Cambridge Structural Database (CSD) v543 
# hosted by the Cambridge Crystallographic Data Centre (CCDC).
#
# This work is licensed under the Creative Commons
# Attribution-NonCommercial-ShareAlike 4.0 International License.
# To view a copy of this license, visit
# http://creativecommons.org/licenses/by-nc-sa/4.0/
# or send a letter to
# Creative Commons, PO Box 1866, Mountain View, CA 94042, USA.
#
# CIF created using the CSD Python API on 29 September 2022
# The structure has been converted into the P1 space group
# The structure has a 3D framework
# The original CSD entry SISWEX is in the monoclinic crystal system
# The framework has been calculated to contain at least 10.0% void space
# The void calculation uses a probe of radius 1.32A, grid spacing 0.4
#
###############################################################################

data_SISWEX
_chemical_formula_moiety         '(C176 H136 Cu8 N32 O36)n'
_symmetry_cell_setting           triclinic
_symmetry_space_group_name_H-M   'P 1'
_symmetry_Int_Tables_number      1
_space_group_name_Hall           'P 1'
loop_
_symmetry_equiv_pos_site_id
_symmetry_equiv_pos_as_xyz
1 x,y,z
_cell_length_a                   18.750(3)
_cell_length_b                   10.3283(17)
_cell_length_c                   22.386(4)
_cell_angle_alpha                90
_cell_angle_beta                 97.388(3)
_cell_angle_gamma                90
_cell_volume                     4299.18
loop_
_atom_site_label
_atom_site_type_symbol
_atom_site_fract_x
_atom_site_fract_y
_atom_site_fract_z
C26 C 0.4677(6) 0.0552(11) 0.4495(5)
H15 H 0.4444 0.0948 0.4151
Cu9 Cu 0.76895(4) 0.45820(7) 0.61410(3)
N9 N 0.6103(4) 0.1859(7) 0.6206(3)
N10 N 0.7097(4) 0.2996(6) 0.6185(3)
C68 C 0.4858(6) 0.1297(12) 0.5001(5)
H48 H 0.4766 0.2182 0.4992
C69 C 0.5183(5) 0.0706(10) 0.5526(4)
C71 C 0.5349(5) 0.1519(10) 0.6110(4)
H50 H 0.5060 0.2301 0.6077
H51 H 0.5227 0.1025 0.6451
C72 C 0.6384(5) 0.2971(8) 0.6047(3)
H52 H 0.6115 0.3649 0.5861
C73 C 0.6657(6) 0.1172(11) 0.6487(5)
H53 H 0.6632 0.0361 0.6664
C74 C 0.7242(6) 0.1869(9) 0.6463(4)
H54 H 0.7702 0.1605 0.6621
O7 O 0.6909(2) 0.1633(4) 0.1105(2)
C12 C 0.7960(3) 0.0312(5) 0.1150(2)
C13 C 0.8452(3) 0.0428(6) 0.1654(3)
H5 H 0.8296 0.0707 0.2010
C14 C 0.9170(3) 0.0145(6) 0.1652(3)
H6 H 0.9495 0.0229 0.2001
C15 C 0.7179(3) 0.0590(6) 0.1211(3)
Cu4 Cu 0.60371(4) 0.03392(7) 0.17832(3)
Cu8 Cu 0.26895(4) 0.04180(7) 0.11410(3)
Cu1 Cu 0.89629(4) 0.53392(7) 0.32168(3)
O4 O 0.96931(19) 0.6398(3) 0.29165(17)
O6 O 0.68762(19) 0.9642(4) 0.14578(17)
O8 O 0.7075(2) 0.9500(5) 0.00405(19)
N3 N 0.3023(2) 0.8620(4) 0.1258(2)
N4 N 0.3525(3) 0.6878(5) 0.1697(2)
N5 N 0.7382(3) 0.5615(5) 0.1755(2)
N6 N 0.8302(3) 0.5752(5) 0.2477(2)
N7 N 0.9593(2) 0.4597(4) 0.3892(2)
N8 N 0.9949(3) 0.3544(4) 0.4721(2)
H3 H 0.9622 0.7679 0.1793
C9 C 0.9395(3) 0.9739(6) 0.1125(3)
C10 C 0.8921(3) 0.9676(6) 0.0609(2)
H4 H 0.9087 0.9442 0.0250
C11 C 0.8198(3) 0.9953(5) 0.0610(2)
C16 C 0.9387(3) 0.3942(5) 0.4348(2)
H7 H 0.8911 0.3784 0.4400
C19 C 0.9927(4) 0.2740(6) 0.5262(3)
H10 H 0.9486 0.2917 0.5431
C20 C 0.9965(4) 0.1321(6) 0.5124(3)
C22 C 0.9378(4) 0.0547(6) 0.5130(3)
H13 H 0.8948 0.0907 0.5215
C23 C 0.7701(3) 0.9818(6) 0.0039(3)
C31 C 0.3442(3) 0.8153(6) 0.1730(3)
H21 H 0.3654 0.8658 0.2048
C32 C 0.2838(3) 0.7562(6) 0.0905(3)
H22 H 0.2541 0.7577 0.0538
C33 C 0.3146(4) 0.6504(7) 0.1164(3)
H23 H 0.3109 0.5666 0.1011
C34 C 0.3975(3) 0.6063(7) 0.2129(3)
H24 H 0.4039 0.6490 0.2518
H25 H 0.3729 0.5249 0.2174
C35 C 0.4698(3) 0.5791(6) 0.1940(3)
C36 C 0.5180(3) 0.6787(6) 0.1928(3)
H26 H 0.5055 0.7615 0.2041
C37 C 0.5846(4) 0.6574(6) 0.1749(3)
H27 H 0.6161 0.7263 0.1729
C38 C 0.6049(3) 0.5326(7) 0.1599(3)
C39 C 0.5563(4) 0.4345(6) 0.1628(3)
H28 H 0.5688 0.3504 0.1533
C40 C 0.4896(4) 0.4582(6) 0.1793(3)
H29 H 0.4574 0.3901 0.1805
C41 C 0.6763(4) 0.5074(7) 0.1379(3)
H30 H 0.6748 0.5429 0.0976
H31 H 0.6830 0.4146 0.1351
C42 C 0.7778(3) 0.5004(6) 0.2212(3)
H32 H 0.7695 0.4159 0.2329
C43 C 0.7665(4) 0.6822(7) 0.1734(3)
H33 H 0.7500 0.7473 0.1464
C44 C 0.8231(3) 0.6912(7) 0.2177(3)
H34 H 0.8521 0.7637 0.2263
O10 O 0.2712(2) 0.0667(5) 0.2379(2)
O11 O 0.3459(2) 0.1096(4) 0.17161(17)
O13 O 0.53069(19) 0.1398(3) 0.20835(17)
O14 O 0.4896(2) 0.4422(4) 0.39105(18)
O15 O 0.81238(19) 0.4642(4) 0.35422(17)
O17 O 0.8091(2) 0.6633(4) 0.3895(2)
O18 O 0.7925(2) 0.4500(5) 0.49595(19)
O19 O 0.7022(2) 0.5057(4) 0.54384(17)
N11 N 0.2097(4) 0.2004(6) 0.1185(3)
N15 N 0.7618(3) 0.0615(5) 0.3245(2)
N16 N 0.6698(3) 0.0752(5) 0.2523(2)
C45 C 0.3260(3) 0.1165(6) 0.2242(3)
C46 C 0.3741(3) 0.1944(5) 0.2689(2)
C47 C 0.3417(3) 0.2817(6) 0.3037(3)
H35 H 0.2917 0.2853 0.2997
C48 C 0.3806(3) 0.3634(6) 0.3439(3)
H36 H 0.3575 0.4209 0.3670
C49 C 0.4546(3) 0.3585(6) 0.3493(3)
C50 C 0.4879(3) 0.2719(6) 0.3161(2)
H37 H 0.5378 0.2679 0.3207
C51 C 0.4484(3) 0.1900(5) 0.2756(2)
C52 C 0.4889(3) 0.0921(6) 0.2425(2)
C53 C 0.5605(3) 0.4739(6) 0.3875(3)
C54 C 0.6079(3) 0.4676(6) 0.4391(2)
H38 H 0.5913 0.4442 0.4750
C55 C 0.6802(3) 0.4953(5) 0.4390(2)
C56 C 0.7040(3) 0.5312(5) 0.3850(2)
C57 C 0.6548(3) 0.5428(6) 0.3346(3)
H39 H 0.6704 0.5707 0.2990
C58 C 0.5830(3) 0.5145(6) 0.3348(3)
H40 H 0.5505 0.5229 0.2999
C59 C 0.7821(3) 0.5590(6) 0.3789(3)
C67 C 0.7299(3) 0.4818(6) 0.4961(3)
C80 C 0.9820(3) 0.1787(6) 0.3072(3)
H60 H 0.9945 0.2615 0.2959
C81 C 0.9154(4) 0.1574(6) 0.3251(3)
H61 H 0.8839 0.2263 0.3271
C82 C 0.8951(3) 0.0326(7) 0.3401(3)
C85 C 0.8237(4) 0.0074(7) 0.3621(3)
H64 H 0.8252 0.0429 0.4024
C86 C 0.7222(3) 0.0004(6) 0.2788(3)
C87 C 0.7335(4) 0.1822(7) 0.3266(3)
H67 H 0.7500 0.2473 0.3536
C88 C 0.6769(3) 0.1912(7) 0.2823(3)
H68 H 0.6479 0.2637 0.2737
O12 O 0.4802(2) 0.9759(4) 0.25179(18)
O21 O 0.2022(2) 0.9943(4) 0.04384(17)
N18 N 0.5407(2) 0.9597(4) 0.1108(2)
C61 C 0.9662(3) 0.5392(5) 0.6010(3)
H42 H 0.9363 0.4999 0.6257
C62 C 0.9446(3) 0.6032(6) 0.5507(3)
H43 H 0.8972 0.6170 0.5339
H45 H 0.9672 0.7030 0.4438
C65 C 0.9409(4) 0.9240(7) 0.5013(3)
H46 H 0.9003 0.8730 0.5027
C83 C 0.9437(4) 0.9345(6) 0.3372(3)
H62 H 0.9312 0.8504 0.3467
H65 H 0.8170 0.9146 0.3649
H66 H 0.7305 0.9159 0.2671
N1 N 0.1103(4) 0.3141(7) 0.1206(3)
H8 H 0.4363 0.0001 0.1257
C25 C 0.0183(5) 0.4294(10) 0.0526(4)
C26_2 C 0.0323(6) 0.5552(11) 0.0505(5)
H15_2 H 0.0556 0.5948 0.0849
C27 C 0.0349(5) 0.3481(10) 0.1110(4)
H16 H 0.0060 0.2699 0.1077
H17 H 0.0227 0.3975 0.1451
C28 C 0.1384(5) 0.2029(8) 0.1047(3)
H18 H 0.1115 0.1351 0.0861
C29 C 0.1657(6) 0.3828(11) 0.1487(5)
H19 H 0.1632 0.4639 0.1664
C30 C 0.2242(6) 0.3131(9) 0.1463(4)
H20 H 0.2702 0.3395 0.1621
H48_2 H 0.0234 0.7182 0.0008
N8_2 N 0.5051(3) 0.8544(4) 0.0279(2)
C16_2 C 0.5613(3) 0.8942(5) 0.0652(2)
H7_2 H 0.6089 0.8784 0.0600
C17 C 0.4662(3) 0.9608(5) 0.1010(3)
C18 C 0.4446(3) 0.8968(6) 0.0507(3)
H9 H 0.3972 0.8830 0.0339
C21 C 0.4409(4) 0.5760(7) 0.0013(3)
H12 H 0.4003 0.6270 0.0027
C63 C 0.4927(4) 0.2260(6) 0.0262(3)
H44 H 0.4486 0.2083 0.0431
H45_2 H 0.5328 0.2030 0.0562
C64 C 0.4965(4) 0.3679(6) 0.0124(3)
C66 C 0.4378(4) 0.4453(6) 0.0130(3)
H47 H 0.3948 0.4093 0.0215
C24 C 0.9858(6) 0.3703(12) 0.0001(5)
C84 C 0.9896(4) 0.0418(6) 0.6793(3)
H63 H 0.9574 0.1099 0.6805
O1 O 0.7712(2) 0.4333(5) 0.7379(2)
O2 O 0.8459(2) 0.3904(4) 0.67161(17)
O3 O 0.9802(2) 0.5241(4) 0.75179(18)
O5 O 0.9896(2) 0.0578(4) 0.89105(18)
C1 C 0.8260(3) 0.3835(6) 0.7242(3)
C2 C 0.8741(3) 0.3056(5) 0.7689(2)
C3 C 0.8417(3) 0.2183(6) 0.8037(3)
H1 H 0.7917 0.2147 0.7997
C4 C 0.8806(3) 0.1366(6) 0.8439(3)
H2 H 0.8575 0.0791 0.8670
C5 C 0.9546(3) 0.1415(6) 0.8493(3)
C6 C 0.9879(3) 0.2281(6) 0.8161(2)
C7 C 0.9484(3) 0.3100(5) 0.7756(2)
C8 C 0.9889(3) 0.4079(6) 0.7425(2)
N12 N 0.8023(2) 0.6380(4) 0.6258(2)
N14 N 0.8525(3) 0.8122(5) 0.6697(2)
C75 C 0.8442(3) 0.6847(6) 0.6730(3)
H55 H 0.8654 0.6342 0.7048
C76 C 0.7838(3) 0.7438(6) 0.5905(3)
H56 H 0.7541 0.7423 0.5538
C77 C 0.8146(4) 0.8496(7) 0.6164(3)
H57 H 0.8109 0.9334 0.6011
C78 C 0.8975(3) 0.8937(7) 0.7129(3)
H58 H 0.9039 0.8510 0.7518
H59 H 0.8729 0.9751 0.7174
C79 C 0.9698(3) 0.9209(6) 0.6940(3)
Cu2 Cu 0.23105(4) 0.54180(7) 0.38590(3)
O1_2 O 0.2288(2) 0.5667(5) 0.2621(2)
O2_2 O 0.1541(2) 0.6096(4) 0.32839(17)
O3_2 O 0.0198(2) 0.4759(4) 0.24821(18)
O5_2 O 0.0104(2) 0.9422(4) 0.10895(18)
N1_2 N 0.3897(4) 0.8141(7) 0.3794(3)
N2 N 0.2903(4) 0.7004(6) 0.3815(3)
C1_2 C 0.1740(3) 0.6165(6) 0.2758(3)
C2_2 C 0.1259(3) 0.6944(5) 0.2311(2)
C3_2 C 0.1583(3) 0.7817(6) 0.1963(3)
H1_2 H 0.2083 0.7853 0.2003
C4_2 C 0.1194(3) 0.8634(6) 0.1561(3)
H2_2 H 0.1425 0.9209 0.1330
C5_2 C 0.0454(3) 0.8585(6) 0.1507(3)
C6_2 C 0.0121(3) 0.7719(6) 0.1839(2)
C7_2 C 0.0516(3) 0.6900(5) 0.2244(2)
C8_2 C 0.0111(3) 0.5921(6) 0.2575(2)
C17_2 C 0.0338(3) 0.4608(5) 0.3990(3)
H8_2 H 0.0637 0.5001 0.3743
C18_2 C 0.0554(3) 0.3968(6) 0.4493(3)
H9_2 H 0.1028 0.3830 0.4661
H11 H 0.0328 0.2970 0.5562
C21_2 C 0.0591(4) 0.0760(7) 0.4987(3)
H12_2 H 0.0997 0.1270 0.4973
C24_2 C 0.5142(6) 0.8703(12) 0.4999(5)
H14 H 0.5234 0.7818 0.5008
C25_2 C 0.4817(5) 0.9294(10) 0.4474(4)
C27_2 C 0.4651(5) 0.8481(10) 0.3890(4)
H16_2 H 0.4940 0.7699 0.3923
H17_2 H 0.4773 0.8975 0.3549
C28_2 C 0.3616(5) 0.7029(8) 0.3953(3)
H18_2 H 0.3885 0.6351 0.4139
C29_2 C 0.3343(6) 0.8828(11) 0.3513(5)
H19_2 H 0.3368 0.9639 0.3336
C30_2 C 0.2758(6) 0.8131(9) 0.3537(4)
H20_2 H 0.2298 0.8395 0.3379
O20 O 0.2978(2) 0.4943(4) 0.45616(17)
N12_2 N 0.1977(2) 0.3620(4) 0.3742(2)
N14_2 N 0.1475(3) 0.1878(5) 0.3303(2)
C70 C 0.5323(6) 0.9448(11) 0.5505(5)
H49 H 0.5556 0.9052 0.5849
C75_2 C 0.1558(3) 0.3153(6) 0.3270(3)
H55_2 H 0.1346 0.3658 0.2952
C76_2 C 0.2162(3) 0.2562(6) 0.4095(3)
H56_2 H 0.2459 0.2577 0.4462
C77_2 C 0.1854(4) 0.1504(7) 0.3836(3)
H57_2 H 0.1891 0.0666 0.3989
C78_2 C 0.1025(3) 0.1063(7) 0.2871(3)
H58_2 H 0.0961 0.1490 0.2482
H59_2 H 0.1271 0.0249 0.2826
C79_2 C 0.0302(3) 0.0791(6) 0.3060(3)
Cu5 Cu 0.10371(4) 0.46608(7) 0.67832(3)
N17 N 0.0407(2) 0.5403(4) 0.6108(2)
N19 N 0.0051(3) 0.6456(4) 0.5279(2)
C60 C 0.0613(3) 0.6058(5) 0.5652(2)
H41 H 0.1089 0.6216 0.5600
C63_2 C 0.0073(4) 0.7260(6) 0.4738(3)
H44_2 H 0.0514 0.7083 0.4569
C64_2 C 0.0035(4) 0.8679(6) 0.4876(3)
C66_2 C 0.0622(4) 0.9453(6) 0.4870(3)
H47_2 H 0.1052 0.9093 0.4785
C84_2 C 0.0104(4) 0.9582(6) 0.3207(3)
H63_2 H 0.0426 0.8901 0.3195
O9 O 0.7978(2) 0.0057(4) 0.95616(17)
Cu7 Cu 0.73105(4) 0.95820(7) 0.88590(3)
C68_2 C 0.0142(6) 0.6297(12) 0.9999(5)
C19_2 C 0.5073(4) 0.7740(6) 0.9738(3)
H10_2 H 0.5514 0.7917 0.9569
H11_2 H 0.4672 0.7970 0.9438
C20_2 C 0.5035(4) 0.6321(6) 0.9876(3)
C22_2 C 0.5622(4) 0.5547(6) 0.9870(3)
H13_2 H 0.6052 0.5907 0.9785
N17_2 N 0.4593(2) 0.0403(4) 0.8892(2)
N19_2 N 0.4949(3) 0.1456(4) 0.9721(2)
C60_2 C 0.4387(3) 0.1058(5) 0.9348(2)
H41_2 H 0.3911 0.1216 0.9400
C61_2 C 0.5338(3) 0.0392(5) 0.8990(3)
C62_2 C 0.5554(3) 0.1032(6) 0.9493(3)
H43_2 H 0.6028 0.1170 0.9661
C65_2 C 0.5591(4) 0.4240(7) 0.9987(3)
H46_2 H 0.5997 0.3730 0.9973
Cu5_2 Cu 0.39629(4) 0.96608(7) 0.82168(3)
H42_2 H 0.5637 0.9999 0.8743
H14_2 H 0.9766 0.2818 0.9992
N9_2 N 0.8897(4) 0.6859(7) 0.8794(3)
N10_2 N 0.7903(4) 0.7996(6) 0.8815(3)
C69_2 C 0.9817(5) 0.5706(10) 0.9474(4)
C70_2 C 0.9677(6) 0.4448(11) 0.9495(5)
H49_2 H 0.9444 0.4052 0.9151
C71_2 C 0.9651(5) 0.6519(10) 0.8890(4)
H50_2 H 0.9940 0.7301 0.8923
H51_2 H 0.9773 0.6025 0.8549
C72_2 C 0.8616(5) 0.7971(8) 0.8953(3)
H52_2 H 0.8885 0.8649 0.9139
C73_2 C 0.8343(6) 0.6172(11) 0.8513(5)
H53_2 H 0.8368 0.5361 0.8336
C74_2 C 0.7758(6) 0.6869(9) 0.8537(4)
H54_2 H 0.7298 0.6605 0.8379
O12_2 O 0.5198(2) 0.0241(4) 0.74821(18)
O16 O 0.31238(19) 0.0358(4) 0.85422(17)
N13 N 0.6977(2) 0.1380(4) 0.8742(2)
C83_2 C 0.0563(4) 0.0655(6) 0.6628(3)
H62_2 H 0.0688 0.1496 0.6533
H65_2 H 0.1830 0.0854 0.6351
H66_2 H 0.2695 0.0841 0.7329
O4_2 O 0.03069(19) 0.3602(3) 0.70835(17)
O8_2 O 0.2925(2) 0.0500(5) 0.99595(19)
N4_2 N 0.6475(3) 0.3122(5) 0.8303(2)
N5_2 N 0.2618(3) 0.4385(5) 0.8245(2)
N6_2 N 0.1698(3) 0.4248(5) 0.7523(2)
H3_2 H 0.0378 0.2321 0.8207
C9_2 C 0.0605(3) 0.0261(6) 0.8875(3)
C10_2 C 0.1079(3) 0.0324(6) 0.9391(2)
H4_2 H 0.0913 0.0558 0.9750
C11_2 C 0.1802(3) 0.0047(5) 0.9390(2)
C23_2 C 0.2299(3) 0.0182(6) 0.9961(3)
C31_2 C 0.6558(3) 0.1847(6) 0.8270(3)
H21_2 H 0.6346 0.1342 0.7952
C32_2 C 0.7162(3) 0.2438(6) 0.9095(3)
H22_2 H 0.7459 0.2423 0.9462
C33_2 C 0.6854(4) 0.3496(7) 0.8836(3)
H23_2 H 0.6891 0.4334 0.8989
C34_2 C 0.6025(3) 0.3937(7) 0.7871(3)
H24_2 H 0.5961 0.3510 0.7482
H25_2 H 0.6271 0.4751 0.7826
C35_2 C 0.5302(3) 0.4209(6) 0.8060(3)
C36_2 C 0.4820(3) 0.3213(6) 0.8072(3)
H26_2 H 0.4945 0.2385 0.7959
C37_2 C 0.4154(4) 0.3426(6) 0.8251(3)
H27_2 H 0.3839 0.2737 0.8271
C38_2 C 0.3951(3) 0.4674(7) 0.8401(3)
C39_2 C 0.4437(4) 0.5655(6) 0.8372(3)
H28_2 H 0.4312 0.6496 0.8467
C40_2 C 0.5104(4) 0.5418(6) 0.8207(3)
H29_2 H 0.5426 0.6099 0.8195
C41_2 C 0.3237(4) 0.4926(7) 0.8621(3)
H30_2 H 0.3252 0.4571 0.9024
H31_2 H 0.3170 0.5854 0.8649
C42_2 C 0.2222(3) 0.4996(6) 0.7788(3)
H32_2 H 0.2305 0.5841 0.7671
C43_2 C 0.2335(4) 0.3178(7) 0.8266(3)
H33_2 H 0.2500 0.2527 0.8536
C44_2 C 0.1769(3) 0.3088(7) 0.7823(3)
H34_2 H 0.1479 0.2363 0.7737
O10_2 O 0.7288(2) 0.9333(5) 0.7621(2)
O11_2 O 0.6541(2) 0.8904(4) 0.82839(17)
O13_2 O 0.46931(19) 0.8602(3) 0.79165(17)
O14_2 O 0.5104(2) 0.5578(4) 0.60895(18)
O15_2 O 0.18762(19) 0.5358(4) 0.64578(17)
O17_2 O 0.1909(2) 0.3367(4) 0.6105(2)
O18_2 O 0.2075(2) 0.5500(5) 0.50405(19)
N15_2 N 0.2382(3) 0.9385(5) 0.6755(2)
N16_2 N 0.3302(3) 0.9248(5) 0.7477(2)
C45_2 C 0.6740(3) 0.8835(6) 0.7758(3)
C46_2 C 0.6259(3) 0.8056(5) 0.7311(2)
C47_2 C 0.6583(3) 0.7183(6) 0.6963(3)
H35_2 H 0.7083 0.7147 0.7003
C48_2 C 0.6194(3) 0.6366(6) 0.6561(3)
H36_2 H 0.6425 0.5791 0.6330
C49_2 C 0.5454(3) 0.6415(6) 0.6507(3)
C50_2 C 0.5121(3) 0.7281(6) 0.6839(2)
H37_2 H 0.4622 0.7321 0.6793
C51_2 C 0.5516(3) 0.8100(5) 0.7244(2)
C52_2 C 0.5111(3) 0.9079(6) 0.7575(2)
C53_2 C 0.4395(3) 0.5261(6) 0.6125(3)
C54_2 C 0.3921(3) 0.5324(6) 0.5609(2)
H38_2 H 0.4087 0.5558 0.5250
C55_2 C 0.3198(3) 0.5047(5) 0.5610(2)
C56_2 C 0.2960(3) 0.4688(5) 0.6150(2)
C57_2 C 0.3452(3) 0.4572(6) 0.6654(3)
H39_2 H 0.3296 0.4293 0.7010
C58_2 C 0.4170(3) 0.4855(6) 0.6652(3)
H40_2 H 0.4495 0.4771 0.7001
C59_2 C 0.2179(3) 0.4410(6) 0.6211(3)
C67_2 C 0.2701(3) 0.5182(6) 0.5039(3)
C80_2 C 0.0180(3) 0.8213(6) 0.6928(3)
H60_2 H 0.0055 0.7385 0.7041
C81_2 C 0.0846(4) 0.8426(6) 0.6749(3)
H61_2 H 0.1161 0.7737 0.6729
C82_2 C 0.1049(3) 0.9674(7) 0.6599(3)
C85_2 C 0.1763(4) 0.9926(7) 0.6379(3)
H64_2 H 0.1748 0.9571 0.5976
C86_2 C 0.2778(3) 0.9996(6) 0.7212(3)
C87_2 C 0.2665(4) 0.8178(7) 0.6734(3)
H67_2 H 0.2500 0.7527 0.6464
C88_2 C 0.3231(3) 0.8088(7) 0.7177(3)
H68_2 H 0.3521 0.7363 0.7263
O7_2 O 0.3091(2) 0.8367(4) 0.8895(2)
C12_2 C 0.2040(3) 0.9688(5) 0.8850(2)
C13_2 C 0.1548(3) 0.9572(6) 0.8346(3)
H5_2 H 0.1704 0.9293 0.7990
C14_2 C 0.0830(3) 0.9855(6) 0.8348(3)
H6_2 H 0.0505 0.9771 0.7999
C15_2 C 0.2821(3) 0.9410(6) 0.8789(3)
loop_
_geom_bond_atom_site_label_1
_geom_bond_atom_site_label_2
_geom_bond_site_symmetry_1
_geom_bond_site_symmetry_2
H15 C26 1_555 1_555
Cu9 N10 1_555 1_555
N9 C71 1_555 1_555
N10 C72 1_555 1_555
C68 C26 1_555 1_555
H48 C68 1_555 1_555
C69 C68 1_555 1_555
C71 C69 1_555 1_555
H50 C71 1_555 1_555
H51 C71 1_555 1_555
C72 N9 1_555 1_555
H52 C72 1_555 1_555
C73 N9 1_555 1_555
H53 C73 1_555 1_555
C74 N10 1_555 1_555
H54 C74 1_555 1_555
C73 C74 1_555 1_555
O7 C15 1_555 1_555
C13 C12 1_555 1_555
H5 C13 1_555 1_555
H6 C14 1_555 1_555
C15 C12 1_555 1_555
C13 C14 1_555 1_555
Cu1 O4 1_555 1_555
O8 C23 1_555 1_555
N3 C31 1_555 1_555
N4 C31 1_555 1_555
N5 C41 1_555 1_555
N6 Cu1 1_555 1_555
N7 Cu1 1_555 1_555
N8 C16 1_555 1_555
C10 C9 1_555 1_555
H4 C10 1_555 1_555
C11 C10 1_555 1_555
C16 N7 1_555 1_555
H7 C16 1_555 1_555
C19 N8 1_555 1_555
H10 C19 1_555 1_555
C20 C19 1_555 1_555
C22 C20 1_555 1_555
H13 C22 1_555 1_555
C23 C11 1_555 1_555
C31 H21 1_555 1_555
C32 N3 1_555 1_555
H22 C32 1_555 1_555
C33 N4 1_555 1_555
H23 C33 1_555 1_555
C34 N4 1_555 1_555
H24 C34 1_555 1_555
H25 C34 1_555 1_555
C35 C34 1_555 1_555
C36 C35 1_555 1_555
H26 C36 1_555 1_555
C37 C36 1_555 1_555
H27 C37 1_555 1_555
C38 C37 1_555 1_555
C39 C38 1_555 1_555
H28 C39 1_555 1_555
C40 C35 1_555 1_555
H29 C40 1_555 1_555
C41 C38 1_555 1_555
H30 C41 1_555 1_555
H31 C41 1_555 1_555
C42 N5 1_555 1_555
H32 C42 1_555 1_555
C43 N5 1_555 1_555
H33 C43 1_555 1_555
C44 N6 1_555 1_555
H34 C44 1_555 1_555
Cu4 O13 1_555 1_555
Cu8 O11 1_555 1_555
Cu9 O19 1_555 1_555
O10 C45 1_555 1_555
O11 C45 1_555 1_555
O13 C52 1_555 1_555
O14 C49 1_555 1_555
O15 Cu1 1_555 1_555
O17 C59 1_555 1_555
O18 C67 1_555 1_555
O19 C67 1_555 1_555
N11 Cu8 1_555 1_555
N15 C85 1_555 1_555
N16 Cu4 1_555 1_555
C45 C46 1_555 1_555
C46 C47 1_555 1_555
C47 H35 1_555 1_555
C48 C47 1_555 1_555
H36 C48 1_555 1_555
C49 C48 1_555 1_555
C50 C49 1_555 1_555
H37 C50 1_555 1_555
C51 C46 1_555 1_555
C52 C51 1_555 1_555
C53 O14 1_555 1_555
C54 C53 1_555 1_555
H38 C54 1_555 1_555
C55 C54 1_555 1_555
C56 C55 1_555 1_555
C57 C56 1_555 1_555
H39 C57 1_555 1_555
C58 C53 1_555 1_555
H40 C58 1_555 1_555
C59 O15 1_555 1_555
C67 C55 1_555 1_555
H60 C80 1_555 1_555
C81 C80 1_555 1_555
H61 C81 1_555 1_555
C82 C81 1_555 1_555
C85 C82 1_555 1_555
H64 C85 1_555 1_555
C86 N15 1_555 1_555
C87 N15 1_555 1_555
H67 C87 1_555 1_555
C88 N16 1_555 1_555
H68 C88 1_555 1_555
N6 C42 1_555 1_555
C32 C33 1_555 1_555
C39 C40 1_555 1_555
C43 C44 1_555 1_555
N16 C86 1_555 1_555
C50 C51 1_555 1_555
C56 C59 1_555 1_555
C57 C58 1_555 1_555
C87 C88 1_555 1_555
H42 C61 1_555 1_555
H43 C62 1_555 1_555
H46 C65 1_555 1_555
H62 C83 1_555 1_555
C61 C62 1_555 1_555
N1 C27 1_555 1_555
C26_2 C25 1_555 1_555
H15_2 C26_2 1_555 1_555
C27 C25 1_555 1_555
H16 C27 1_555 1_555
H17 C27 1_555 1_555
C28 N1 1_555 1_555
H18 C28 1_555 1_555
C29 N1 1_555 1_555
H19 C29 1_555 1_555
C30 N11 1_555 1_555
H20 C30 1_555 1_555
N11 C28 1_555 1_555
C29 C30 1_555 1_555
N8_2 C16_2 1_555 1_555
C16_2 N18 1_555 1_555
H7_2 C16_2 1_555 1_555
C17 N18 1_555 1_555
C18 N8_2 1_555 1_555
H9 C18 1_555 1_555
H12 C21 1_555 1_555
H44 C63 1_555 1_555
H45_2 C63 1_555 1_555
C64 C63 1_555 1_555
C66 C21 1_555 1_555
H47 C66 1_555 1_555
C17 C18 1_555 1_555
C64 C66 1_555 1_555
H63 C84 1_555 1_555
Cu9 O2 1_555 1_555
O1 C1 1_555 1_555
O2 C1 1_555 1_555
O3 C8 1_555 1_555
O5 C5 1_555 1_555
C1 C2 1_555 1_555
C2 C3 1_555 1_555
C3 H1 1_555 1_555
C4 C3 1_555 1_555
H2 C4 1_555 1_555
C5 C4 1_555 1_555
C6 C5 1_555 1_555
C7 C2 1_555 1_555
C8 C7 1_555 1_555
N12 Cu9 1_555 1_555
N14 C75 1_555 1_555
C75 N12 1_555 1_555
H55 C75 1_555 1_555
C76 N12 1_555 1_555
H56 C76 1_555 1_555
C77 N14 1_555 1_555
H57 C77 1_555 1_555
C78 N14 1_555 1_555
H58 C78 1_555 1_555
H59 C78 1_555 1_555
C79 C78 1_555 1_555
C6 C7 1_555 1_555
C76 C77 1_555 1_555
Cu2 O2_2 1_555 1_555
O1_2 C1_2 1_555 1_555
O2_2 C1_2 1_555 1_555
O3_2 C8_2 1_555 1_555
O5_2 C5_2 1_555 1_555
N1_2 C27_2 1_555 1_555
N2 Cu2 1_555 1_555
C1_2 C2_2 1_555 1_555
C2_2 C3_2 1_555 1_555
C3_2 H1_2 1_555 1_555
C4_2 C3_2 1_555 1_555
H2_2 C4_2 1_555 1_555
C5_2 C4_2 1_555 1_555
C6_2 C5_2 1_555 1_555
C7_2 C2_2 1_555 1_555
C8_2 C7_2 1_555 1_555
H8_2 C17_2 1_555 1_555
H9_2 C18_2 1_555 1_555
H12_2 C21_2 1_555 1_555
C24_2 H14 1_555 1_555
C25_2 C24_2 1_555 1_555
C27_2 C25_2 1_555 1_555
H16_2 C27_2 1_555 1_555
H17_2 C27_2 1_555 1_555
C28_2 N1_2 1_555 1_555
H18_2 C28_2 1_555 1_555
C29_2 N1_2 1_555 1_555
H19_2 C29_2 1_555 1_555
C30_2 N2 1_555 1_555
H20_2 C30_2 1_555 1_555
O20 Cu2 1_555 1_555
N12_2 Cu2 1_555 1_555
N14_2 C75_2 1_555 1_555
C70 C24_2 1_555 1_555
H49 C70 1_555 1_555
C75_2 N12_2 1_555 1_555
H55_2 C75_2 1_555 1_555
C76_2 N12_2 1_555 1_555
H56_2 C76_2 1_555 1_555
C77_2 N14_2 1_555 1_555
H57_2 C77_2 1_555 1_555
C78_2 N14_2 1_555 1_555
H58_2 C78_2 1_555 1_555
H59_2 C78_2 1_555 1_555
C79_2 C78_2 1_555 1_555
N2 C28_2 1_555 1_555
C6_2 C7_2 1_555 1_555
C17_2 C18_2 1_555 1_555
C29_2 C30_2 1_555 1_555
C76_2 C77_2 1_555 1_555
Cu5 N17 1_555 1_555
N17 C60 1_555 1_555
N19 C60 1_555 1_555
C60 H41 1_555 1_555
C63_2 N19 1_555 1_555
H44_2 C63_2 1_555 1_555
C64_2 C63_2 1_555 1_555
H47_2 C66_2 1_555 1_555
H63_2 C84_2 1_555 1_555
C64_2 C66_2 1_555 1_555
H10_2 C19_2 1_555 1_555
H11_2 C19_2 1_555 1_555
C20_2 C19_2 1_555 1_555
C22_2 C20_2 1_555 1_555
H13_2 C22_2 1_555 1_555
N17_2 C60_2 1_555 1_555
N19_2 C60_2 1_555 1_555
C60_2 H41_2 1_555 1_555
C61_2 N17_2 1_555 1_555
C62_2 N19_2 1_555 1_555
H43_2 C62_2 1_555 1_555
C65_2 C22_2 1_555 1_555
H46_2 C65_2 1_555 1_555
C61_2 C62_2 1_555 1_555
Cu7 N10_2 1_555 1_555
N9_2 C71_2 1_555 1_555
N10_2 C72_2 1_555 1_555
H49_2 C70_2 1_555 1_555
C71_2 C69_2 1_555 1_555
H50_2 C71_2 1_555 1_555
H51_2 C71_2 1_555 1_555
C72_2 N9_2 1_555 1_555
H52_2 C72_2 1_555 1_555
C73_2 N9_2 1_555 1_555
H53_2 C73_2 1_555 1_555
C74_2 N10_2 1_555 1_555
H54_2 C74_2 1_555 1_555
C69_2 C70_2 1_555 1_555
C73_2 C74_2 1_555 1_555
H62_2 C83_2 1_555 1_555
Cu5 O4_2 1_555 1_555
O8_2 C23_2 1_555 1_555
N13 C31_2 1_555 1_555
N4_2 C31_2 1_555 1_555
N5_2 C41_2 1_555 1_555
N6_2 Cu5 1_555 1_555
C10_2 C9_2 1_555 1_555
H4_2 C10_2 1_555 1_555
C11_2 C10_2 1_555 1_555
C23_2 C11_2 1_555 1_555
C31_2 H21_2 1_555 1_555
C32_2 N13 1_555 1_555
H22_2 C32_2 1_555 1_555
C33_2 N4_2 1_555 1_555
H23_2 C33_2 1_555 1_555
C34_2 N4_2 1_555 1_555
H24_2 C34_2 1_555 1_555
H25_2 C34_2 1_555 1_555
C35_2 C34_2 1_555 1_555
C36_2 C35_2 1_555 1_555
H26_2 C36_2 1_555 1_555
C37_2 C36_2 1_555 1_555
H27_2 C37_2 1_555 1_555
C38_2 C37_2 1_555 1_555
C39_2 C38_2 1_555 1_555
H28_2 C39_2 1_555 1_555
C40_2 C35_2 1_555 1_555
H29_2 C40_2 1_555 1_555
C41_2 C38_2 1_555 1_555
H30_2 C41_2 1_555 1_555
H31_2 C41_2 1_555 1_555
C42_2 N5_2 1_555 1_555
H32_2 C42_2 1_555 1_555
C43_2 N5_2 1_555 1_555
H33_2 C43_2 1_555 1_555
C44_2 N6_2 1_555 1_555
H34_2 C44_2 1_555 1_555
Cu5_2 O13_2 1_555 1_555
Cu7 O11_2 1_555 1_555
O10_2 C45_2 1_555 1_555
O11_2 C45_2 1_555 1_555
O13_2 C52_2 1_555 1_555
O14_2 C49_2 1_555 1_555
O15_2 Cu5 1_555 1_555
O17_2 C59_2 1_555 1_555
O18_2 C67_2 1_555 1_555
O20 C67_2 1_555 1_555
N15_2 C85_2 1_555 1_555
N16_2 Cu5_2 1_555 1_555
C45_2 C46_2 1_555 1_555
C46_2 C47_2 1_555 1_555
C47_2 H35_2 1_555 1_555
C48_2 C47_2 1_555 1_555
H36_2 C48_2 1_555 1_555
C49_2 C48_2 1_555 1_555
C50_2 C49_2 1_555 1_555
H37_2 C50_2 1_555 1_555
C51_2 C46_2 1_555 1_555
C52_2 C51_2 1_555 1_555
C53_2 O14_2 1_555 1_555
C54_2 C53_2 1_555 1_555
H38_2 C54_2 1_555 1_555
C55_2 C54_2 1_555 1_555
C56_2 C55_2 1_555 1_555
C57_2 C56_2 1_555 1_555
H39_2 C57_2 1_555 1_555
C58_2 C53_2 1_555 1_555
H40_2 C58_2 1_555 1_555
C59_2 O15_2 1_555 1_555
C67_2 C55_2 1_555 1_555
H60_2 C80_2 1_555 1_555
C81_2 C80_2 1_555 1_555
H61_2 C81_2 1_555 1_555
C82_2 C81_2 1_555 1_555
C85_2 C82_2 1_555 1_555
H64_2 C85_2 1_555 1_555
C86_2 N15_2 1_555 1_555
C87_2 N15_2 1_555 1_555
H67_2 C87_2 1_555 1_555
C88_2 N16_2 1_555 1_555
H68_2 C88_2 1_555 1_555
N6_2 C42_2 1_555 1_555
C32_2 C33_2 1_555 1_555
C39_2 C40_2 1_555 1_555
C43_2 C44_2 1_555 1_555
N16_2 C86_2 1_555 1_555
C50_2 C51_2 1_555 1_555
C56_2 C59_2 1_555 1_555
C57_2 C58_2 1_555 1_555
C87_2 C88_2 1_555 1_555
O7_2 C15_2 1_555 1_555
C13_2 C12_2 1_555 1_555
H5_2 C13_2 1_555 1_555
H6_2 C14_2 1_555 1_555
C15_2 C12_2 1_555 1_555
C13_2 C14_2 1_555 1_555

#END
