
###############################################################################
#
# This file contains modified crystal structure data generated from the
# MOF subset of the Cambridge Structural Database (CSD) v543 
# hosted by the Cambridge Crystallographic Data Centre (CCDC).
#
# This work is licensed under the Creative Commons
# Attribution-NonCommercial-ShareAlike 4.0 International License.
# To view a copy of this license, visit
# http://creativecommons.org/licenses/by-nc-sa/4.0/
# or send a letter to
# Creative Commons, PO Box 1866, Mountain View, CA 94042, USA.
#
# CIF created using the CSD Python API on 29 September 2022
# The structure has been converted into the P1 space group
# The structure has a 3D framework
# The original CSD entry SITCUW is in the orthorhombic crystal system
# The framework has been calculated to contain at least 10.0% void space
# The void calculation uses a probe of radius 1.32A, grid spacing 0.4
# H atom positions have been added when not included in the experimental data
#
###############################################################################

data_SITCUW
_chemical_formula_moiety         '(C400 H400 N32 O176 Zn28)n'
_symmetry_cell_setting           triclinic
_symmetry_space_group_name_H-M   'P 1'
_symmetry_Int_Tables_number      1
_space_group_name_Hall           'P 1'
loop_
_symmetry_equiv_pos_site_id
_symmetry_equiv_pos_as_xyz
1 x,y,z
_cell_length_a                   26.032(5)
_cell_length_b                   18.850(5)
_cell_length_c                   27.934(5)
_cell_angle_alpha                90
_cell_angle_beta                 90
_cell_angle_gamma                90
_cell_volume                     13707.3
loop_
_atom_site_label
_atom_site_type_symbol
_atom_site_fract_x
_atom_site_fract_y
_atom_site_fract_z
C1 C 0.1508(4) 0.0419(4) 0.2905(3)
C29 C 0.1220(4) 0.1530(4) 0.3193(3)
N2 N 0.1197(4) 0.0893(4) 0.2921(3)
C37 C 0.0728(3) 0.0765(6) 0.2637(4)
C39 C 0.1977(4) 0.0682(5) 0.3280(3)
C42 C 0.0509(4) 0.0068(6) 0.4155(4)
C50 C 0.1759(5) 0.1297(6) 0.3517(4)
Zn11 Zn 0.02331(2) 0.22741(3) 0.48297(2)
H15 H 0.0882735 0.16077 0.34176
H16 H 0.127989 0.199843 0.297176
H33 H 0.232264 0.0824683 0.308262
H34 H 0.206755 0.0267037 0.353778
H39 H 0.0305489 0.0228064 0.447803
H40 H 0.0729659 0.0514898 0.401806
H41 H 0.165347 0.116544 0.388364
H42 H 0.203443 0.173182 0.351872
H43 H 0.0536702 0.02889 0.276732
H44 H 0.0470334 0.121716 0.267199
H45 H 0.0830903 0.0694492 0.226214
Zn1 Zn 0.23275(2) 0.74829(4) 0.25593(2)
Zn2 Zn 0.15417(2) 0.88299(3) 0.29377(2)
Zn4 Zn 0.02697(3) 0.63844(4) 0.57728(3)
O1 O 0.27539(14) 0.3945(2) 0.32433(14)
O2 O 0.11501(16) 0.9304(2) 0.35186(15)
O3 O 0.09410(16) 0.2365(2) 0.42792(15)
O4 O 0.17958(16) 0.6946(2) 0.29071(15)
O5 O 0.03328(15) 0.7346(2) 0.47291(15)
O7 O 0.23460(15) 0.2915(2) 0.31413(15)
O10 O 0.13674(16) 0.7852(2) 0.32451(16)
O12 O 0.15752(17) 0.9886(2) 0.26913(15)
O13 O 0.04405(15) 0.3239(2) 0.45112(14)
O16 O 0.08593(16) 0.8782(3) 0.25320(17)
C2 C 0.1597(2) 0.3304(3) 0.3788(2)
H1 H 0.1652 0.2811 0.3740
N1 N 0.0860(2) 0.9476(4) 0.4268(2)
O17 O 0.0511(2) 0.6323(3) 0.5098(2)
C4 C 0.1000(2) 0.6963(3) 0.3975(2)
H3 H 0.0901 0.7448 0.3989
C5 C 0.1449(2) 0.6002(3) 0.3582(3)
H4 H 0.1660 0.5841 0.3327
C6 C 0.1936(2) 0.3796(3) 0.3589(2)
C9 C 0.1084(2) 0.4253(3) 0.4100(2)
H6 H 0.0788 0.4408 0.4270
C11 C 0.0847(3) 0.6495(3) 0.4326(3)
C12 C 0.0999(3) 0.5790(3) 0.4306(3)
H7 H 0.0901 0.5478 0.4557
C13 C 0.1845(2) 0.4515(3) 0.3648(3)
H8 H 0.2079 0.4848 0.3516
C17 C 0.1293(3) 0.5527(3) 0.3925(3)
C19 C 0.1413(2) 0.4759(3) 0.3898(3)
C20 C 0.1306(2) 0.6712(3) 0.3599(2)
C21 C 0.1506(2) 0.7216(3) 0.3218(2)
C22 C 0.1178(2) 0.3534(3) 0.4057(2)
C25 C 0.2389(2) 0.3529(3) 0.3296(2)
O19 O 0.1064(5) 0.6167(7) 0.5984(5)
C26 C 0.0837(2) 0.2998(3) 0.4286(2)
C27 C 0.1160(3) 0.9165(4) 0.3951(3)
C35 C 0.0580(4) 0.3684(5) 0.6022(3)
C36 C 0.0631(3) 0.8369(5) 0.2299(3)
N3 N 0.0300(3) 0.8425(7) 0.1970(3)
N4 N 0.0311(3) 0.4326(4) 0.6157(3)
C38 C 0.0537(3) 0.6757(4) 0.4753(3)
O21 O 0.0095(3) 0.5402(5) 0.5891(3)
C40 C 0.0944(5) 0.4007(6) 0.5595(4)
C41 C 0.0150(4) 0.9143(7) 0.1818(4)
C43 C 0.0081(4) 0.7802(7) 0.1719(4)
C44 C 0.0660(4) 0.4661(7) 0.5432(4)
C45 C 0.0320(4) 0.4824(6) 0.5850(5)
C46 C 0.0923(5) 0.9292(6) 0.4779(3)
C47 C 0.0012(5) 0.4341(6) 0.6603(5)
C48 C 0.1565(4) 0.8766(6) 0.4215(3)
C49 C 0.1319(6) 0.8706(8) 0.4734(3)
Zn7 Zn 0.26725(2) 0.24829(4) 0.25593(2)
Zn9 Zn 0.34583(2) 0.38299(3) 0.29377(2)
O23 O 0.22461(14) 0.8945(2) 0.32433(14)
O25 O 0.02128(15) 0.8221(2) 0.56349(14)
O26 O 0.26540(15) 0.7915(2) 0.31413(15)
O27 O 0.18795(19) 0.7482(3) 0.18299(17)
O28 O 0.19539(14) 0.8391(2) 0.23168(14)
O30 O 0.2742(2) 0.6620(3) 0.23274(17)
O31 O 0.3048(2) 0.7648(3) 0.20844(19)
O32 O 0.0395(3) 0.7289(3) 0.6089(2)
H13 H 0.129199 0.654418 0.585577
H14 H 0.108873 0.615804 0.633868
H17 H 0.0566114 0.910107 0.493638
H18 H 0.106704 0.97381 0.49872
H19 H 0.0724845 0.782066 0.238511
H20 H 0.192565 0.905849 0.422306
H21 H 0.162902 0.824457 0.405811
H22 H 0.0318866 0.327761 0.58895
H23 H 0.0806119 0.346983 0.631643
H24 H 0.0434442 0.455337 0.511181
H25 H 0.0924642 0.509613 0.536171
H26 H 0.0983463 0.362828 0.530291
H27 H 0.132288 0.414419 0.57319
H28 H 0.113547 0.819087 0.47775
H29 H 0.16154 0.877094 0.50056
H30 H 0.0264766 0.42336 0.690506
H35 H 0.048645 0.942492 0.168578
H38 H 0.0232955 0.98977 0.388556
H47 H 0.0041933 0.664556 0.675516
H50 H 0.0388215 0.750787 0.154401
O6 O 0.97872(15) 0.1779(2) 0.43651(14)
O14 O 0.7742(2) 0.1620(3) 0.26726(17)
O15 O 0.8048(2) 0.2648(3) 0.29156(19)
C7 C 0.8725(2) 0.0535(4) 0.3635(2)
C8 C 0.9107(2) 0.0938(4) 0.3852(2)
H5 H 0.9351 0.0709 0.4053
C10 C 0.9141(3) 0.1658(4) 0.3783(2)
C14 C 0.8806(3) 0.1991(4) 0.3475(2)
H9 H 0.8839 0.2486 0.3417
C18 C 0.8386(3) 0.0887(4) 0.3322(2)
H11 H 0.8127 0.0626 0.3159
C24 C 0.8050(3) 0.1993(5) 0.2915(3)
O20 O 0.9605(3) 0.2711(3) 0.3911(2)
C31 C 0.8427(3) 0.1613(4) 0.3252(2)
C33 C 0.9548(3) 0.2090(4) 0.4032(2)
Zn6 Zn 0.73275(2) 0.24829(4) 0.24407(2)
Zn13 Zn 0.97303(3) 0.36156(4) 0.42272(3)
Zn3 Zn 0.97669(2) 0.77259(3) 0.51703(2)
O8 O 0.81205(19) 0.7482(3) 0.31701(17)
O9 O 0.9515(2) 0.8726(3) 0.48214(18)
O11 O 0.80461(14) 0.8391(2) 0.26832(14)
C3 C 0.8940(2) 0.9437(4) 0.4101(2)
H2 H 0.9113 0.9726 0.4329
O18 O 0.9203(2) 0.7691(3) 0.46189(17)
C15 C 0.8698(2) 0.9760(4) 0.3716(2)
C16 C 0.8453(2) 0.9308(3) 0.3390(2)
H10 H 0.8284 0.9511 0.3121
C23 C 0.9237(3) 0.8352(5) 0.4564(2)
C28 C 0.8194(2) 0.8120(3) 0.3086(2)
C30 C 0.8445(2) 0.8579(4) 0.3443(2)
C32 C 0.8681(2) 0.8273(4) 0.3834(2)
H12 H 0.8668 0.7774 0.3879
C34 C 0.8940(2) 0.8706(4) 0.4166(2)
O22 O 0.9883(4) 0.6295(6) 0.6535(4)
Zn5 Zn 0.76725(2) 0.74829(4) 0.24407(2)
Zn8 Zn 0.84583(2) 0.88299(3) 0.20623(2)
O24 O 0.90590(16) 0.7635(2) 0.57208(15)
O29 O 0.95595(15) 0.6761(2) 0.54888(14)
H31 H 0.983732 0.486196 0.664658
H32 H 0.97123 0.393856 0.658793
H36 H 0.986425 0.91066 0.153433
H37 H 0.998827 0.942893 0.212137
H46 H 0.993505 0.580906 0.666339
H48 H 0.988852 0.745988 0.197689
H49 H 0.980532 0.798039 0.145163
O1_2 O 0.22461(14) 0.1055(2) 0.82433(14)
O3_2 O 0.40590(16) 0.2635(2) 0.92792(15)
O7_2 O 0.26540(15) 0.2085(2) 0.81413(15)
O13_2 O 0.45595(15) 0.1761(2) 0.95112(14)
C2_2 C 0.3403(2) 0.1696(3) 0.8788(2)
H1_2 H 0.3348 0.2189 0.8740
C6_2 C 0.3064(2) 0.1204(3) 0.8589(2)
C9_2 C 0.3916(2) 0.0747(3) 0.9100(2)
H6_2 H 0.4212 0.0592 0.9270
C13_2 C 0.3155(2) 0.0485(3) 0.8648(3)
H8_2 H 0.2921 0.0152 0.8516
C19_2 C 0.3587(2) 0.0241(3) 0.8898(3)
C22_2 C 0.3822(2) 0.1466(3) 0.9057(2)
C25_2 C 0.2611(2) 0.1471(3) 0.8296(2)
C26_2 C 0.4163(2) 0.2002(3) 0.9286(2)
Zn7_2 Zn 0.23275(2) 0.25171(4) 0.75593(2)
Zn9_2 Zn 0.15417(2) 0.11701(3) 0.79377(2)
Zn10 Zn 0.47669(2) 0.27259(3) 0.98297(2)
Zn12 Zn 0.52697(3) 0.13844(4) 0.92272(3)
Zn3_2 Zn 0.52331(2) 0.72741(3) 0.01703(2)
Zn4_2 Zn 0.47303(3) 0.86156(4) 0.07728(3)
O17_2 O 0.4489(2) 0.8677(3) 0.0098(2)
O19_2 O 0.3936(5) 0.8833(7) 0.0984(5)
O21_2 O 0.4905(3) 0.9598(5) 0.0891(3)
O22_2 O 0.5117(4) 0.8705(6) 0.1535(4)
O24_2 O 0.59410(16) 0.7365(2) 0.07208(15)
O25_2 O 0.47872(15) 0.6779(2) 0.06349(14)
O29_2 O 0.54405(15) 0.8239(2) 0.04888(14)
O32_2 O 0.4605(3) 0.7711(3) 0.1089(2)
H13_2 H 0.370801 0.845582 0.0855772
H14_2 H 0.391127 0.884196 0.133868
H25_2 H 0.407536 0.990387 0.036171
H29_2 H 0.33846 0.622906 0.000559568
H46_2 H 0.506495 0.919094 0.166339
H47_2 H 0.495807 0.835444 0.175516
Zn1_2 Zn 0.26725(2) 0.75171(4) 0.75593(2)
Zn2_2 Zn 0.34583(2) 0.61701(3) 0.79377(2)
O2_2 O 0.38499(16) 0.5696(2) 0.85186(15)
O4_2 O 0.32042(16) 0.8054(2) 0.79071(15)
O5_2 O 0.46672(15) 0.7654(2) 0.97291(15)
O6_2 O 0.52128(15) 0.3221(2) 0.93651(14)
O8_2 O 0.68795(19) 0.7518(3) 0.81701(17)
O9_2 O 0.5485(2) 0.6274(3) 0.98214(18)
O10_2 O 0.36326(16) 0.7148(2) 0.82451(16)
O11_2 O 0.69539(14) 0.6609(2) 0.76832(14)
O12_2 O 0.34248(17) 0.5114(2) 0.76913(15)
C1_2 C 0.3492(4) 0.4581(4) 0.7905(3)
O14_2 O 0.7258(2) 0.3380(3) 0.76726(17)
O15_2 O 0.6952(2) 0.2352(3) 0.79156(19)
O16_2 O 0.41407(16) 0.6218(3) 0.75320(17)
C3_2 C 0.6060(2) 0.5563(4) 0.9101(2)
H2_2 H 0.5887 0.5274 0.9329
N1_2 N 0.4140(2) 0.5524(4) 0.9268(2)
C4_2 C 0.4000(2) 0.8037(3) 0.8975(2)
H3_2 H 0.4099 0.7552 0.8989
C5_2 C 0.3551(2) 0.8998(3) 0.8582(3)
H4_2 H 0.3340 0.9159 0.8327
C7_2 C 0.6275(2) 0.4465(4) 0.8635(2)
C8_2 C 0.5893(2) 0.4062(4) 0.8852(2)
H5_2 H 0.5649 0.4291 0.9053
C10_2 C 0.5859(3) 0.3342(4) 0.8783(2)
C11_2 C 0.4153(3) 0.8505(3) 0.9326(3)
C12_2 C 0.4001(3) 0.9210(3) 0.9306(3)
H7_2 H 0.4099 0.9522 0.9557
C14_2 C 0.6194(3) 0.3009(4) 0.8475(2)
H9_2 H 0.6161 0.2514 0.8417
O18_2 O 0.5797(2) 0.7309(3) 0.96189(17)
C15_2 C 0.6302(2) 0.5240(4) 0.8716(2)
C16_2 C 0.6547(2) 0.5692(3) 0.8390(2)
H10_2 H 0.6716 0.5489 0.8121
C17_2 C 0.3707(3) 0.9473(3) 0.8925(3)
C18_2 C 0.6614(3) 0.4113(4) 0.8322(2)
H11_2 H 0.6873 0.4374 0.8159
C20_2 C 0.3694(2) 0.8288(3) 0.8599(2)
C21_2 C 0.3494(2) 0.7784(3) 0.8218(2)
C23_2 C 0.5763(3) 0.6648(5) 0.9564(2)
C24_2 C 0.6950(3) 0.3007(5) 0.7915(3)
C27_2 C 0.3840(3) 0.5835(4) 0.8951(3)
C28_2 C 0.6806(2) 0.6880(3) 0.8086(2)
C29_2 C 0.3780(4) 0.3470(4) 0.8193(3)
O20_2 O 0.5395(3) 0.2289(3) 0.8911(2)
C30_2 C 0.6555(2) 0.6421(4) 0.8443(2)
C31_2 C 0.6573(3) 0.3387(4) 0.8252(2)
C32_2 C 0.6319(2) 0.6727(4) 0.8834(2)
H12_2 H 0.6332 0.7226 0.8879
C33_2 C 0.5452(3) 0.2910(4) 0.9032(2)
C34_2 C 0.6060(2) 0.6294(4) 0.9166(2)
C36_2 C 0.4369(3) 0.6631(5) 0.7299(3)
N2_2 N 0.3803(4) 0.4107(4) 0.7921(3)
N3_2 N 0.4700(3) 0.6575(7) 0.6970(3)
C37_2 C 0.4272(3) 0.4235(6) 0.7637(4)
C38_2 C 0.4463(3) 0.8243(4) 0.9753(3)
C39_2 C 0.3023(4) 0.4318(5) 0.8280(3)
C41_2 C 0.4850(4) 0.5857(7) 0.6818(4)
C42_2 C 0.4491(4) 0.4932(6) 0.9155(4)
C43_2 C 0.4919(4) 0.7198(7) 0.6719(4)
C46_2 C 0.4077(5) 0.5708(6) 0.9779(3)
C48_2 C 0.3435(4) 0.6234(6) 0.9215(3)
C49_2 C 0.3681(6) 0.6294(8) 0.9734(3)
C50_2 C 0.3241(5) 0.3703(6) 0.8517(4)
Zn5_2 Zn 0.73275(2) 0.75171(4) 0.74407(2)
Zn6_2 Zn 0.76725(2) 0.25171(4) 0.74407(2)
Zn8_2 Zn 0.65417(2) 0.61701(3) 0.70623(2)
O23_2 O 0.27539(14) 0.6055(2) 0.82433(14)
O26_2 O 0.23460(15) 0.7085(2) 0.81413(15)
O27_2 O 0.31205(19) 0.7518(3) 0.68299(17)
O28_2 O 0.30461(14) 0.6609(2) 0.73168(14)
O30_2 O 0.2258(2) 0.8380(3) 0.73274(17)
O31_2 O 0.1952(2) 0.7352(3) 0.70844(19)
H15_2 H 0.411726 0.33923 0.84176
H16_2 H 0.372011 0.300157 0.797176
H17_2 H 0.443389 0.589893 0.993638
H18_2 H 0.393296 0.52619 0.99872
H19_2 H 0.427516 0.717934 0.738511
H20_2 H 0.307435 0.594151 0.922306
H21_2 H 0.337098 0.675543 0.905811
H28_2 H 0.386453 0.680913 0.97775
H33_2 H 0.267736 0.417532 0.808262
H34_2 H 0.293245 0.473296 0.853778
H35_2 H 0.451355 0.557508 0.668578
H36_2 H 0.513575 0.58934 0.653433
H37_2 H 0.501173 0.557107 0.712137
H38_2 H 0.476704 0.51023 0.888556
H39_2 H 0.469451 0.477194 0.947803
H40_2 H 0.427034 0.44851 0.901806
H41_2 H 0.334653 0.383456 0.888364
H42_2 H 0.296557 0.326818 0.851872
H43_2 H 0.44633 0.47111 0.776732
H44_2 H 0.452967 0.378284 0.767199
H45_2 H 0.41691 0.430551 0.726214
H48_2 H 0.511148 0.754012 0.697689
H49_2 H 0.519468 0.701961 0.645163
H50_2 H 0.461178 0.749213 0.654401
O1_3 O 0.77539(14) 0.1055(2) 0.67567(14)
O3_3 O 0.59410(16) 0.2635(2) 0.57208(15)
O7_3 O 0.73460(15) 0.2085(2) 0.68587(15)
O13_3 O 0.54405(15) 0.1761(2) 0.54888(14)
C2_3 C 0.6597(2) 0.1696(3) 0.6212(2)
H1_3 H 0.6652 0.2189 0.6260
C6_3 C 0.6936(2) 0.1204(3) 0.6411(2)
C9_3 C 0.6084(2) 0.0747(3) 0.5900(2)
H6_3 H 0.5788 0.0592 0.5730
C13_3 C 0.6845(2) 0.0485(3) 0.6352(3)
H8_3 H 0.7079 0.0152 0.6484
C19_3 C 0.6413(2) 0.0241(3) 0.6102(3)
C22_3 C 0.6178(2) 0.1466(3) 0.5943(2)
C25_3 C 0.7389(2) 0.1471(3) 0.6704(2)
C26_3 C 0.5837(2) 0.2002(3) 0.5714(2)
C35_2 C 0.5580(4) 0.1316(5) 0.3978(3)
N4_2 N 0.5311(3) 0.0674(4) 0.3843(3)
C40_2 C 0.5944(5) 0.0993(6) 0.4405(4)
C44_2 C 0.5660(4) 0.0339(7) 0.4568(4)
C45_2 C 0.5320(4) 0.0176(6) 0.4150(5)
C47_2 C 0.5012(5) 0.0659(6) 0.3397(5)
Zn9_3 Zn 0.84583(2) 0.11701(3) 0.70623(2)
Zn10_2 Zn 0.52331(2) 0.27259(3) 0.51703(2)
Zn12_2 Zn 0.47303(3) 0.13844(4) 0.57728(3)
H22_2 H 0.531887 0.172239 0.41105
H23_2 H 0.580612 0.153017 0.368357
H24_2 H 0.543444 0.0446631 0.488819
H26_2 H 0.598346 0.137172 0.469709
H27_2 H 0.632288 0.0855808 0.42681
H30_2 H 0.526477 0.0766403 0.309494
H31_2 H 0.483732 0.0138042 0.335342
H32_2 H 0.47123 0.106144 0.341207
Zn3_3 Zn 0.47669(2) 0.72741(3) 0.48297(2)
Zn4_3 Zn 0.52697(3) 0.86156(4) 0.42272(3)
O2_3 O 0.61501(16) 0.5696(2) 0.64814(15)
O4_3 O 0.67958(16) 0.8054(2) 0.70929(15)
O5_3 O 0.53328(15) 0.7654(2) 0.52709(15)
O6_3 O 0.47872(15) 0.3221(2) 0.56349(14)
O9_3 O 0.4515(2) 0.6274(3) 0.51786(18)
O10_3 O 0.63674(16) 0.7148(2) 0.67549(16)
O12_3 O 0.65752(17) 0.5114(2) 0.73087(15)
C1_3 C 0.6508(4) 0.4581(4) 0.7095(3)
O14_3 O 0.2742(2) 0.3380(3) 0.73274(17)
O15_3 O 0.3048(2) 0.2352(3) 0.70844(19)
O16_3 O 0.58593(16) 0.6218(3) 0.74680(17)
C3_3 C 0.3940(2) 0.5563(4) 0.5899(2)
H2_3 H 0.4113 0.5274 0.5671
N1_3 N 0.5860(2) 0.5524(4) 0.5732(2)
O17_3 O 0.5511(2) 0.8677(3) 0.4902(2)
C4_3 C 0.6000(2) 0.8037(3) 0.6025(2)
H3_3 H 0.5901 0.7552 0.6011
C5_3 C 0.6449(2) 0.8998(3) 0.6418(3)
H4_3 H 0.6660 0.9159 0.6673
C7_3 C 0.3725(2) 0.4465(4) 0.6365(2)
C8_3 C 0.4107(2) 0.4062(4) 0.6148(2)
H5_3 H 0.4351 0.4291 0.5947
C10_3 C 0.4141(3) 0.3342(4) 0.6217(2)
C11_3 C 0.5847(3) 0.8505(3) 0.5674(3)
C12_3 C 0.5999(3) 0.9210(3) 0.5694(3)
H7_3 H 0.5901 0.9522 0.5443
C14_3 C 0.3806(3) 0.3009(4) 0.6525(2)
H9_3 H 0.3839 0.2514 0.6583
O18_3 O 0.4203(2) 0.7309(3) 0.53811(17)
C15_3 C 0.3698(2) 0.5240(4) 0.6284(2)
C16_3 C 0.3453(2) 0.5692(3) 0.6610(2)
H10_3 H 0.3284 0.5489 0.6879
C17_3 C 0.6293(3) 0.9473(3) 0.6075(3)
C18_3 C 0.3386(3) 0.4113(4) 0.6678(2)
H11_3 H 0.3127 0.4374 0.6841
C20_3 C 0.6306(2) 0.8288(3) 0.6401(2)
C21_3 C 0.6506(2) 0.7784(3) 0.6782(2)
C23_3 C 0.4237(3) 0.6648(5) 0.5436(2)
C24_3 C 0.3050(3) 0.3007(5) 0.7085(3)
O19_3 O 0.6064(5) 0.8833(7) 0.4016(5)
C27_3 C 0.6160(3) 0.5835(4) 0.6049(3)
C28_3 C 0.3194(2) 0.6880(3) 0.6914(2)
C29_3 C 0.6220(4) 0.3470(4) 0.6807(3)
O20_3 O 0.4605(3) 0.2289(3) 0.6089(2)
C30_3 C 0.3445(2) 0.6421(4) 0.6557(2)
C31_3 C 0.3427(3) 0.3387(4) 0.6748(2)
C32_3 C 0.3681(2) 0.6727(4) 0.6166(2)
H12_3 H 0.3668 0.7226 0.6121
C33_3 C 0.4548(3) 0.2910(4) 0.5968(2)
C34_3 C 0.3940(2) 0.6294(4) 0.5834(2)
C36_3 C 0.5631(3) 0.6631(5) 0.7701(3)
N2_3 N 0.6197(4) 0.4107(4) 0.7079(3)
N3_3 N 0.5300(3) 0.6575(7) 0.8030(3)
C37_3 C 0.5728(3) 0.4235(6) 0.7363(4)
C38_3 C 0.5537(3) 0.8243(4) 0.5247(3)
O21_3 O 0.5095(3) 0.9598(5) 0.4109(3)
C39_3 C 0.6977(4) 0.4318(5) 0.6720(3)
C41_3 C 0.5150(4) 0.5857(7) 0.8182(4)
C42_3 C 0.5509(4) 0.4932(6) 0.5845(4)
C43_3 C 0.5081(4) 0.7198(7) 0.8281(4)
C46_3 C 0.5923(5) 0.5708(6) 0.5221(3)
C48_3 C 0.6565(4) 0.6234(6) 0.5785(3)
C49_3 C 0.6319(6) 0.6294(8) 0.5266(3)
C50_3 C 0.6759(5) 0.3703(6) 0.6483(4)
O22_3 O 0.4883(4) 0.8705(6) 0.3465(4)
O23_3 O 0.72461(14) 0.6055(2) 0.67567(14)
O24_3 O 0.40590(16) 0.7365(2) 0.42792(15)
O25_3 O 0.52128(15) 0.6779(2) 0.43651(14)
O26_3 O 0.76540(15) 0.7085(2) 0.68587(15)
O29_3 O 0.45595(15) 0.8239(2) 0.45112(14)
O30_3 O 0.7742(2) 0.8380(3) 0.76726(17)
O31_3 O 0.8048(2) 0.7352(3) 0.79156(19)
O32_3 O 0.5395(3) 0.7711(3) 0.3911(2)
H13_3 H 0.629199 0.845582 0.414423
H14_3 H 0.608873 0.884196 0.366132
H15_3 H 0.588274 0.33923 0.65824
H16_3 H 0.627989 0.300157 0.702824
H17_3 H 0.556611 0.589893 0.506362
H18_3 H 0.606704 0.52619 0.50128
H19_3 H 0.572484 0.717934 0.761489
H20_3 H 0.692565 0.594151 0.577694
H21_3 H 0.662902 0.675543 0.594189
H25_3 H 0.592464 0.990387 0.463829
H28_3 H 0.613547 0.680913 0.52225
H29_3 H 0.66154 0.622906 0.49944
H33_3 H 0.732264 0.417532 0.691738
H34_3 H 0.706755 0.473296 0.646222
H35_3 H 0.548645 0.557508 0.831422
H36_3 H 0.486425 0.58934 0.846567
H37_3 H 0.498827 0.557107 0.787863
H38_3 H 0.523296 0.51023 0.611444
H39_3 H 0.530549 0.477194 0.552197
H40_3 H 0.572966 0.44851 0.598194
H41_3 H 0.665347 0.383456 0.611636
H42_3 H 0.703443 0.326818 0.648128
H43_3 H 0.55367 0.47111 0.723268
H44_3 H 0.547033 0.378284 0.732801
H45_3 H 0.58309 0.430551 0.773786
H46_3 H 0.493505 0.919094 0.333661
H47_3 H 0.504193 0.835444 0.324484
H48_3 H 0.488852 0.754012 0.802311
H49_3 H 0.480532 0.701961 0.854837
H50_3 H 0.538822 0.749213 0.845599
O6_4 O 0.02128(15) 0.1779(2) 0.06349(14)
O14_4 O 0.2258(2) 0.1620(3) 0.23274(17)
O15_4 O 0.1952(2) 0.2648(3) 0.20844(19)
C7_4 C 0.1275(2) 0.0535(4) 0.1365(2)
C8_4 C 0.0893(2) 0.0938(4) 0.1148(2)
H5_4 H 0.0649 0.0709 0.0947
C10_4 C 0.0859(3) 0.1658(4) 0.1217(2)
C14_4 C 0.1194(3) 0.1991(4) 0.1525(2)
H9_4 H 0.1161 0.2486 0.1583
C18_4 C 0.1614(3) 0.0887(4) 0.1678(2)
H11_4 H 0.1873 0.0626 0.1841
C24_4 C 0.1950(3) 0.1993(5) 0.2085(3)
O20_4 O 0.0395(3) 0.2711(3) 0.1089(2)
C31_4 C 0.1573(3) 0.1613(4) 0.1748(2)
C33_4 C 0.0452(3) 0.2090(4) 0.0968(2)
Zn13_2 Zn 0.02697(3) 0.36156(4) 0.07728(3)
O9_4 O 0.0485(2) 0.8726(3) 0.01786(18)
C3_4 C 0.1060(2) 0.9437(4) 0.0899(2)
H2_4 H 0.0887 0.9726 0.0671
O18_4 O 0.0797(2) 0.7691(3) 0.03811(17)
C15_4 C 0.1302(2) 0.9760(4) 0.1284(2)
C16_4 C 0.1547(2) 0.9308(3) 0.1610(2)
H10_4 H 0.1716 0.9511 0.1879
C23_4 C 0.0763(3) 0.8352(5) 0.0436(2)
C28_4 C 0.1806(2) 0.8120(3) 0.1914(2)
C30_4 C 0.1555(2) 0.8579(4) 0.1557(2)
C32_4 C 0.1319(2) 0.8273(4) 0.1166(2)
H12_4 H 0.1332 0.7774 0.1121
C34_4 C 0.1060(2) 0.8706(4) 0.0834(2)
H36_4 H 0.0135748 0.91066 0.346567
H37_4 H 0.00117306 0.942893 0.287863
H48_4 H 0.0111478 0.745988 0.302311
H49_4 H 0.0194684 0.798039 0.354837
Zn3_4 Zn 0.02331(2) 0.77259(3) 0.98297(2)
O22_4 O 0.0117(4) 0.6295(6) 0.8465(4)
O24_4 O 0.09410(16) 0.7635(2) 0.92792(15)
O29_4 O 0.04405(15) 0.6761(2) 0.95112(14)
H31_3 H 0.0162677 0.486196 0.835342
H32_3 H 0.0287701 0.393856 0.841207
H46_4 H 0.00649452 0.580906 0.833661
C1_4 C 0.8492(4) 0.0419(4) 0.2095(3)
C29_4 C 0.8780(4) 0.1530(4) 0.1807(3)
N2_4 N 0.8803(4) 0.0893(4) 0.2079(3)
C37_4 C 0.9272(3) 0.0765(6) 0.2363(4)
C39_4 C 0.8023(4) 0.0682(5) 0.1720(3)
C42_4 C 0.9491(4) 0.0068(6) 0.0845(4)
C50_4 C 0.8241(5) 0.1297(6) 0.1483(4)
Zn11_2 Zn 0.97669(2) 0.22741(3) 0.01703(2)
H15_4 H 0.911726 0.16077 0.15824
H16_4 H 0.872011 0.199843 0.202824
H33_4 H 0.767736 0.0824683 0.191738
H34_4 H 0.793245 0.0267037 0.146222
H39_4 H 0.969451 0.0228064 0.0521974
H40_4 H 0.927034 0.0514898 0.0981937
H41_4 H 0.834653 0.116544 0.111636
H42_4 H 0.796557 0.173182 0.148128
H43_4 H 0.94633 0.02889 0.223268
H44_4 H 0.952967 0.121716 0.232801
H45_4 H 0.91691 0.0694492 0.273786
O1_4 O 0.72461(14) 0.3945(2) 0.17567(14)
O2_4 O 0.88499(16) 0.9304(2) 0.14814(15)
O3_4 O 0.90590(16) 0.2365(2) 0.07208(15)
O4_4 O 0.82042(16) 0.6946(2) 0.20929(15)
O5_4 O 0.96672(15) 0.7346(2) 0.02709(15)
O7_4 O 0.76540(15) 0.2915(2) 0.18587(15)
O10_4 O 0.86326(16) 0.7852(2) 0.17549(16)
O12_4 O 0.84248(17) 0.9886(2) 0.23087(15)
O13_4 O 0.95595(15) 0.3239(2) 0.04888(14)
O16_4 O 0.91407(16) 0.8782(3) 0.24680(17)
C2_4 C 0.8403(2) 0.3304(3) 0.1212(2)
H1_4 H 0.8348 0.2811 0.1260
N1_4 N 0.9140(2) 0.9476(4) 0.0732(2)
C4_4 C 0.9000(2) 0.6963(3) 0.1025(2)
H3_4 H 0.9099 0.7448 0.1011
C5_4 C 0.8551(2) 0.6002(3) 0.1418(3)
H4_4 H 0.8340 0.5841 0.1673
C6_4 C 0.8064(2) 0.3796(3) 0.1411(2)
C9_4 C 0.8916(2) 0.4253(3) 0.0900(2)
H6_4 H 0.9212 0.4408 0.0730
C11_4 C 0.9153(3) 0.6495(3) 0.0674(3)
C12_4 C 0.9001(3) 0.5790(3) 0.0694(3)
H7_4 H 0.9099 0.5478 0.0443
C13_4 C 0.8155(2) 0.4515(3) 0.1352(3)
H8_4 H 0.7921 0.4848 0.1484
C17_4 C 0.8707(3) 0.5527(3) 0.1075(3)
C19_4 C 0.8587(2) 0.4759(3) 0.1102(3)
C20_4 C 0.8694(2) 0.6712(3) 0.1401(2)
C21_4 C 0.8494(2) 0.7216(3) 0.1782(2)
C22_4 C 0.8822(2) 0.3534(3) 0.0943(2)
C25_4 C 0.7611(2) 0.3529(3) 0.1704(2)
C26_4 C 0.9163(2) 0.2998(3) 0.0714(2)
C27_4 C 0.8840(3) 0.9165(4) 0.1049(3)
C36_4 C 0.9369(3) 0.8369(5) 0.2701(3)
N3_4 N 0.9700(3) 0.8425(7) 0.3030(3)
C38_4 C 0.9463(3) 0.6757(4) 0.0247(3)
C41_4 C 0.9850(4) 0.9143(7) 0.3182(4)
C43_4 C 0.9919(4) 0.7802(7) 0.3281(4)
C46_4 C 0.9077(5) 0.9292(6) 0.0221(3)
C48_4 C 0.8435(4) 0.8766(6) 0.0785(3)
C49_4 C 0.8681(6) 0.8706(8) 0.0266(3)
Zn9_4 Zn 0.65417(2) 0.38299(3) 0.20623(2)
O23_4 O 0.77539(14) 0.8945(2) 0.17567(14)
O26_4 O 0.73460(15) 0.7915(2) 0.18587(15)
O30_4 O 0.7258(2) 0.6620(3) 0.26726(17)
O31_4 O 0.6952(2) 0.7648(3) 0.29156(19)
H17_4 H 0.943389 0.910107 0.00636199
H18_4 H 0.893296 0.97381 0.00128034
H19_4 H 0.927516 0.782066 0.261489
H20_4 H 0.807435 0.905849 0.0776936
H21_4 H 0.837098 0.824457 0.0941888
H28_4 H 0.886453 0.819087 0.0222499
H35_4 H 0.951355 0.942492 0.331422
H38_4 H 0.976704 0.98977 0.111444
H50_4 H 0.961178 0.750787 0.345599
Zn4_4 Zn 0.97303(3) 0.63844(4) 0.92272(3)
O17_4 O 0.9489(2) 0.6323(3) 0.9902(2)
O19_4 O 0.8936(5) 0.6167(7) 0.9016(5)
C35_3 C 0.9420(4) 0.3684(5) 0.8978(3)
N4_3 N 0.9689(3) 0.4326(4) 0.8843(3)
O21_4 O 0.9905(3) 0.5402(5) 0.9109(3)
C40_3 C 0.9056(5) 0.4007(6) 0.9405(4)
C44_3 C 0.9340(4) 0.4661(7) 0.9568(4)
C45_3 C 0.9680(4) 0.4824(6) 0.9150(5)
C47_3 C 0.9988(5) 0.4341(6) 0.8397(5)
O25_4 O 0.97872(15) 0.8221(2) 0.93651(14)
O32_4 O 0.9605(3) 0.7289(3) 0.8911(2)
H13_4 H 0.870801 0.654418 0.914423
H14_4 H 0.891127 0.615804 0.866132
H22_3 H 0.968113 0.327761 0.91105
H23_3 H 0.919388 0.346983 0.868357
H24_3 H 0.956556 0.455337 0.988819
H25_4 H 0.907536 0.509613 0.963829
H26_3 H 0.901654 0.362828 0.969709
H27_3 H 0.867712 0.414419 0.92681
H29_4 H 0.83846 0.877094 0.99944
H30_3 H 0.973523 0.42336 0.809494
H47_4 H 0.995807 0.664556 0.824484
O8_3 O 0.18795(19) 0.2518(3) 0.68299(17)
O9_5 O 0.0485(2) 0.1274(3) 0.51786(18)
O11_3 O 0.19539(14) 0.1609(2) 0.73168(14)
C3_5 C 0.1060(2) 0.0563(4) 0.5899(2)
H2_5 H 0.0887 0.0274 0.5671
O18_5 O 0.0797(2) 0.2309(3) 0.53811(17)
C15_5 C 0.1302(2) 0.0240(4) 0.6284(2)
C16_5 C 0.1547(2) 0.0692(3) 0.6610(2)
H10_5 H 0.1716 0.0489 0.6879
C23_5 C 0.0763(3) 0.1648(5) 0.5436(2)
C28_5 C 0.1806(2) 0.1880(3) 0.6914(2)
C30_5 C 0.1555(2) 0.1421(4) 0.6557(2)
C32_5 C 0.1319(2) 0.1727(4) 0.6166(2)
H12_5 H 0.1332 0.2226 0.6121
C34_5 C 0.1060(2) 0.1294(4) 0.5834(2)
O22_5 O 0.0117(4) 0.3705(6) 0.3465(4)
H31_4 H 0.0162677 0.513804 0.335342
H32_4 H 0.0287701 0.606144 0.341207
H36_5 H 0.0135748 0.0893395 0.846567
H37_5 H 0.00117306 0.0571065 0.787863
H46_5 H 0.00649452 0.419094 0.333661
H48_5 H 0.0111478 0.254012 0.802311
H49_5 H 0.0194684 0.201961 0.854837
C7_5 C 0.1275(2) 0.9465(4) 0.6365(2)
C8_5 C 0.0893(2) 0.9062(4) 0.6148(2)
H5_5 H 0.0649 0.9291 0.5947
C10_5 C 0.0859(3) 0.8342(4) 0.6217(2)
C14_5 C 0.1194(3) 0.8009(4) 0.6525(2)
H9_5 H 0.1161 0.7514 0.6583
C18_5 C 0.1614(3) 0.9113(4) 0.6678(2)
H11_5 H 0.1873 0.9374 0.6841
C24_5 C 0.1950(3) 0.8007(5) 0.7085(3)
C31_5 C 0.1573(3) 0.8387(4) 0.6748(2)
C33_5 C 0.0452(3) 0.7910(4) 0.5968(2)
O2_5 O 0.88499(16) 0.0696(2) 0.64814(15)
O4_5 O 0.82042(16) 0.3054(2) 0.70929(15)
O5_5 O 0.96672(15) 0.2654(2) 0.52709(15)
O10_5 O 0.86326(16) 0.2148(2) 0.67549(16)
O12_5 O 0.84248(17) 0.0114(2) 0.73087(15)
O16_5 O 0.91407(16) 0.1218(3) 0.74680(17)
C2_5 C 0.8403(2) 0.6696(3) 0.6212(2)
H1_5 H 0.8348 0.7189 0.6260
N1_5 N 0.9140(2) 0.0524(4) 0.5732(2)
O17_5 O 0.9489(2) 0.3677(3) 0.4902(2)
C4_5 C 0.9000(2) 0.3037(3) 0.6025(2)
H3_5 H 0.9099 0.2552 0.6011
C5_5 C 0.8551(2) 0.3998(3) 0.6418(3)
H4_5 H 0.8340 0.4159 0.6673
C6_5 C 0.8064(2) 0.6204(3) 0.6411(2)
C9_5 C 0.8916(2) 0.5747(3) 0.5900(2)
H6_5 H 0.9212 0.5592 0.5730
C11_5 C 0.9153(3) 0.3505(3) 0.5674(3)
C12_5 C 0.9001(3) 0.4210(3) 0.5694(3)
H7_5 H 0.9099 0.4522 0.5443
C13_5 C 0.8155(2) 0.5485(3) 0.6352(3)
H8_5 H 0.7921 0.5152 0.6484
C17_5 C 0.8707(3) 0.4473(3) 0.6075(3)
C19_5 C 0.8587(2) 0.5241(3) 0.6102(3)
C20_5 C 0.8694(2) 0.3288(3) 0.6401(2)
C21_5 C 0.8494(2) 0.2784(3) 0.6782(2)
C22_5 C 0.8822(2) 0.6466(3) 0.5943(2)
C25_5 C 0.7611(2) 0.6471(3) 0.6704(2)
O19_5 O 0.8936(5) 0.3833(7) 0.4016(5)
C26_5 C 0.9163(2) 0.7002(3) 0.5714(2)
C27_5 C 0.8840(3) 0.0835(4) 0.6049(3)
C35_4 C 0.9420(4) 0.6316(5) 0.3978(3)
C36_5 C 0.9369(3) 0.1631(5) 0.7701(3)
N3_5 N 0.9700(3) 0.1575(7) 0.8030(3)
N4_4 N 0.9689(3) 0.5674(4) 0.3843(3)
C38_5 C 0.9463(3) 0.3243(4) 0.5247(3)
O21_5 O 0.9905(3) 0.4598(5) 0.4109(3)
C40_4 C 0.9056(5) 0.5993(6) 0.4405(4)
C41_5 C 0.9850(4) 0.0857(7) 0.8182(4)
C43_5 C 0.9919(4) 0.2198(7) 0.8281(4)
C44_4 C 0.9340(4) 0.5339(7) 0.4568(4)
C45_4 C 0.9680(4) 0.5176(6) 0.4150(5)
C46_5 C 0.9077(5) 0.0708(6) 0.5221(3)
C47_4 C 0.9988(5) 0.5659(6) 0.3397(5)
C48_5 C 0.8435(4) 0.1234(6) 0.5785(3)
C49_5 C 0.8681(6) 0.1294(8) 0.5266(3)
O27_3 O 0.81205(19) 0.2518(3) 0.81701(17)
O28_3 O 0.80461(14) 0.1609(2) 0.76832(14)
H13_5 H 0.870801 0.345582 0.414423
H14_5 H 0.891127 0.384196 0.366132
H17_5 H 0.943389 0.0898927 0.506362
H18_5 H 0.893296 0.0261903 0.50128
H19_5 H 0.927516 0.217934 0.761489
H20_5 H 0.807435 0.0941513 0.577694
H21_5 H 0.837098 0.175543 0.594189
H22_4 H 0.968113 0.672239 0.41105
H23_4 H 0.919388 0.653017 0.368357
H24_4 H 0.956556 0.544663 0.488819
H25_5 H 0.907536 0.490387 0.463829
H26_4 H 0.901654 0.637172 0.469709
H27_4 H 0.867712 0.585581 0.42681
H28_5 H 0.886453 0.180913 0.52225
H29_5 H 0.83846 0.122906 0.49944
H30_4 H 0.973523 0.57664 0.309494
H35_5 H 0.951355 0.0575079 0.831422
H38_5 H 0.976704 0.0102305 0.611444
H47_5 H 0.995807 0.335444 0.324484
H50_5 H 0.961178 0.249213 0.845599
C1_5 C 0.8492(4) 0.9581(4) 0.7095(3)
C29_5 C 0.8780(4) 0.8470(4) 0.6807(3)
N2_5 N 0.8803(4) 0.9107(4) 0.7079(3)
C37_5 C 0.9272(3) 0.9235(6) 0.7363(4)
C39_5 C 0.8023(4) 0.9318(5) 0.6720(3)
C42_5 C 0.9491(4) 0.9932(6) 0.5845(4)
C50_5 C 0.8241(5) 0.8703(6) 0.6483(4)
H15_5 H 0.911726 0.83923 0.65824
H16_5 H 0.872011 0.800157 0.702824
H33_5 H 0.767736 0.917532 0.691738
H34_5 H 0.793245 0.973296 0.646222
H39_5 H 0.969451 0.977194 0.552197
H40_5 H 0.927034 0.94851 0.598194
H41_5 H 0.834653 0.883456 0.611636
H42_5 H 0.796557 0.826818 0.648128
H43_5 H 0.94633 0.97111 0.723268
H44_5 H 0.952967 0.878284 0.732801
H45_5 H 0.91691 0.930551 0.773786
O2_6 O 0.61501(16) 0.4304(2) 0.14814(15)
O4_6 O 0.67958(16) 0.1946(2) 0.20929(15)
O5_6 O 0.53328(15) 0.2346(2) 0.02709(15)
O8_4 O 0.31205(19) 0.2482(3) 0.18299(17)
O9_6 O 0.4515(2) 0.3726(3) 0.01786(18)
O10_6 O 0.63674(16) 0.2852(2) 0.17549(16)
O11_4 O 0.30461(14) 0.3391(2) 0.23168(14)
O12_6 O 0.65752(17) 0.4886(2) 0.23087(15)
C1_6 C 0.6508(4) 0.5419(4) 0.2095(3)
O16_6 O 0.58593(16) 0.3782(3) 0.24680(17)
C3_6 C 0.3940(2) 0.4437(4) 0.0899(2)
H2_6 H 0.4113 0.4726 0.0671
N1_6 N 0.5860(2) 0.4476(4) 0.0732(2)
C4_6 C 0.6000(2) 0.1963(3) 0.1025(2)
H3_6 H 0.5901 0.2448 0.1011
C5_6 C 0.6449(2) 0.1002(3) 0.1418(3)
H4_6 H 0.6660 0.0841 0.1673
C7_6 C 0.3725(2) 0.5535(4) 0.1365(2)
C8_6 C 0.4107(2) 0.5938(4) 0.1148(2)
H5_6 H 0.4351 0.5709 0.0947
C10_6 C 0.4141(3) 0.6658(4) 0.1217(2)
C11_6 C 0.5847(3) 0.1495(3) 0.0674(3)
C12_6 C 0.5999(3) 0.0790(3) 0.0694(3)
H7_6 H 0.5901 0.0478 0.0443
C14_6 C 0.3806(3) 0.6991(4) 0.1525(2)
H9_6 H 0.3839 0.7486 0.1583
O18_6 O 0.4203(2) 0.2691(3) 0.03811(17)
C15_6 C 0.3698(2) 0.4760(4) 0.1284(2)
C16_6 C 0.3453(2) 0.4308(3) 0.1610(2)
H10_6 H 0.3284 0.4511 0.1879
C17_6 C 0.6293(3) 0.0527(3) 0.1075(3)
C18_6 C 0.3386(3) 0.5887(4) 0.1678(2)
H11_6 H 0.3127 0.5626 0.1841
C20_6 C 0.6306(2) 0.1712(3) 0.1401(2)
C21_6 C 0.6506(2) 0.2216(3) 0.1782(2)
C23_6 C 0.4237(3) 0.3352(5) 0.0436(2)
C24_6 C 0.3050(3) 0.6993(5) 0.2085(3)
C27_6 C 0.6160(3) 0.4165(4) 0.1049(3)
C28_6 C 0.3194(2) 0.3120(3) 0.1914(2)
C29_6 C 0.6220(4) 0.6530(4) 0.1807(3)
C30_6 C 0.3445(2) 0.3579(4) 0.1557(2)
C31_6 C 0.3427(3) 0.6613(4) 0.1748(2)
C32_6 C 0.3681(2) 0.3273(4) 0.1166(2)
H12_6 H 0.3668 0.2774 0.1121
C33_6 C 0.4548(3) 0.7090(4) 0.0968(2)
C34_6 C 0.3940(2) 0.3706(4) 0.0834(2)
C36_6 C 0.5631(3) 0.3369(5) 0.2701(3)
N2_6 N 0.6197(4) 0.5893(4) 0.2079(3)
N3_6 N 0.5300(3) 0.3425(7) 0.3030(3)
C37_6 C 0.5728(3) 0.5765(6) 0.2363(4)
C38_6 C 0.5537(3) 0.1757(4) 0.0247(3)
C39_6 C 0.6977(4) 0.5682(5) 0.1720(3)
C41_6 C 0.5150(4) 0.4143(7) 0.3182(4)
C42_6 C 0.5509(4) 0.5068(6) 0.0845(4)
C43_6 C 0.5081(4) 0.2802(7) 0.3281(4)
C46_6 C 0.5923(5) 0.4292(6) 0.0221(3)
C48_6 C 0.6565(4) 0.3766(6) 0.0785(3)
C49_6 C 0.6319(6) 0.3706(8) 0.0266(3)
C50_6 C 0.6759(5) 0.6297(6) 0.1483(4)
O27_4 O 0.68795(19) 0.2482(3) 0.31701(17)
O28_4 O 0.69539(14) 0.3391(2) 0.26832(14)
H15_6 H 0.588274 0.66077 0.15824
H16_6 H 0.627989 0.699843 0.202824
H17_6 H 0.556611 0.410107 0.00636199
H18_6 H 0.606704 0.47381 0.00128034
H19_6 H 0.572484 0.282066 0.261489
H20_6 H 0.692565 0.405849 0.0776936
H21_6 H 0.662902 0.324457 0.0941888
H28_6 H 0.613547 0.319087 0.0222499
H33_6 H 0.732264 0.582468 0.191738
H34_6 H 0.706755 0.526704 0.146222
H35_6 H 0.548645 0.442492 0.331422
H36_6 H 0.486425 0.41066 0.346567
H37_6 H 0.498827 0.442893 0.287863
H38_6 H 0.523296 0.48977 0.111444
H39_6 H 0.530549 0.522806 0.0521974
H40_6 H 0.572966 0.55149 0.0981937
H41_6 H 0.665347 0.616544 0.111636
H42_6 H 0.703443 0.673182 0.148128
H43_6 H 0.55367 0.52889 0.223268
H44_6 H 0.547033 0.621716 0.232801
H45_6 H 0.58309 0.569449 0.273786
H48_6 H 0.488852 0.245988 0.302311
H49_6 H 0.480532 0.298039 0.354837
H50_6 H 0.538822 0.250787 0.345599
O17_6 O 0.5511(2) 0.1323(3) 0.9902(2)
O19_6 O 0.6064(5) 0.1167(7) 0.9016(5)
O21_6 O 0.5095(3) 0.0402(5) 0.9109(3)
O22_6 O 0.4883(4) 0.1295(6) 0.8465(4)
H13_6 H 0.629199 0.154418 0.914423
H14_6 H 0.608873 0.115804 0.866132
H25_6 H 0.592464 0.00961303 0.963829
H29_6 H 0.66154 0.377094 0.99944
H46_6 H 0.493505 0.0809055 0.833661
H47_6 H 0.504193 0.164556 0.824484
C2_6 C 0.6597(2) 0.8304(3) 0.1212(2)
H1_6 H 0.6652 0.7811 0.1260
C6_6 C 0.6936(2) 0.8796(3) 0.1411(2)
C9_6 C 0.6084(2) 0.9253(3) 0.0900(2)
H6_6 H 0.5788 0.9408 0.0730
C13_6 C 0.6845(2) 0.9515(3) 0.1352(3)
H8_6 H 0.7079 0.9848 0.1484
C19_6 C 0.6413(2) 0.9759(3) 0.1102(3)
C22_6 C 0.6178(2) 0.8534(3) 0.0943(2)
C25_6 C 0.7389(2) 0.8529(3) 0.1704(2)
C26_6 C 0.5837(2) 0.7998(3) 0.0714(2)
O2_7 O 0.38499(16) 0.4304(2) 0.35186(15)
O4_7 O 0.32042(16) 0.1946(2) 0.29071(15)
O5_7 O 0.46672(15) 0.2346(2) 0.47291(15)
O9_7 O 0.5485(2) 0.3726(3) 0.48214(18)
O10_7 O 0.36326(16) 0.2852(2) 0.32451(16)
O12_7 O 0.34248(17) 0.4886(2) 0.26913(15)
C1_7 C 0.3492(4) 0.5419(4) 0.2905(3)
O16_7 O 0.41407(16) 0.3782(3) 0.25320(17)
C3_7 C 0.6060(2) 0.4437(4) 0.4101(2)
H2_7 H 0.5887 0.4726 0.4329
N1_7 N 0.4140(2) 0.4476(4) 0.4268(2)
O17_7 O 0.4489(2) 0.1323(3) 0.5098(2)
C4_7 C 0.4000(2) 0.1963(3) 0.3975(2)
H3_7 H 0.4099 0.2448 0.3989
C5_7 C 0.3551(2) 0.1002(3) 0.3582(3)
H4_7 H 0.3340 0.0841 0.3327
C7_7 C 0.6275(2) 0.5535(4) 0.3635(2)
C8_7 C 0.5893(2) 0.5938(4) 0.3852(2)
H5_7 H 0.5649 0.5709 0.4053
C10_7 C 0.5859(3) 0.6658(4) 0.3783(2)
C11_7 C 0.4153(3) 0.1495(3) 0.4326(3)
C12_7 C 0.4001(3) 0.0790(3) 0.4306(3)
H7_7 H 0.4099 0.0478 0.4557
C14_7 C 0.6194(3) 0.6991(4) 0.3475(2)
H9_7 H 0.6161 0.7486 0.3417
O18_7 O 0.5797(2) 0.2691(3) 0.46189(17)
C15_7 C 0.6302(2) 0.4760(4) 0.3716(2)
C16_7 C 0.6547(2) 0.4308(3) 0.3390(2)
H10_7 H 0.6716 0.4511 0.3121
C17_7 C 0.3707(3) 0.0527(3) 0.3925(3)
C18_7 C 0.6614(3) 0.5887(4) 0.3322(2)
H11_7 H 0.6873 0.5626 0.3159
C20_7 C 0.3694(2) 0.1712(3) 0.3599(2)
C21_7 C 0.3494(2) 0.2216(3) 0.3218(2)
C23_7 C 0.5763(3) 0.3352(5) 0.4564(2)
C24_7 C 0.6950(3) 0.6993(5) 0.2915(3)
O19_7 O 0.3936(5) 0.1167(7) 0.5984(5)
C27_7 C 0.3840(3) 0.4165(4) 0.3951(3)
C28_7 C 0.6806(2) 0.3120(3) 0.3086(2)
C29_7 C 0.3780(4) 0.6530(4) 0.3193(3)
C30_7 C 0.6555(2) 0.3579(4) 0.3443(2)
C31_7 C 0.6573(3) 0.6613(4) 0.3252(2)
C32_7 C 0.6319(2) 0.3273(4) 0.3834(2)
H12_7 H 0.6332 0.2774 0.3879
C33_7 C 0.5452(3) 0.7090(4) 0.4032(2)
C34_7 C 0.6060(2) 0.3706(4) 0.4166(2)
C36_7 C 0.4369(3) 0.3369(5) 0.2299(3)
N2_7 N 0.3803(4) 0.5893(4) 0.2921(3)
N3_7 N 0.4700(3) 0.3425(7) 0.1970(3)
C37_7 C 0.4272(3) 0.5765(6) 0.2637(4)
C38_7 C 0.4463(3) 0.1757(4) 0.4753(3)
O21_7 O 0.4905(3) 0.0402(5) 0.5891(3)
C39_7 C 0.3023(4) 0.5682(5) 0.3280(3)
C41_7 C 0.4850(4) 0.4143(7) 0.1818(4)
C42_7 C 0.4491(4) 0.5068(6) 0.4155(4)
C43_7 C 0.4919(4) 0.2802(7) 0.1719(4)
C46_7 C 0.4077(5) 0.4292(6) 0.4779(3)
C48_7 C 0.3435(4) 0.3766(6) 0.4215(3)
C49_7 C 0.3681(6) 0.3706(8) 0.4734(3)
C50_7 C 0.3241(5) 0.6297(6) 0.3517(4)
O22_7 O 0.5117(4) 0.1295(6) 0.6535(4)
H13_7 H 0.370801 0.154418 0.585577
H14_7 H 0.391127 0.115804 0.633868
H15_7 H 0.411726 0.66077 0.34176
H16_7 H 0.372011 0.699843 0.297176
H17_7 H 0.443389 0.410107 0.493638
H18_7 H 0.393296 0.47381 0.49872
H19_7 H 0.427516 0.282066 0.238511
H20_7 H 0.307435 0.405849 0.422306
H21_7 H 0.337098 0.324457 0.405811
H25_7 H 0.407536 0.00961303 0.536171
H28_7 H 0.386453 0.319087 0.47775
H29_7 H 0.33846 0.377094 0.50056
H33_7 H 0.267736 0.582468 0.308262
H34_7 H 0.293245 0.526704 0.353778
H35_7 H 0.451355 0.442492 0.168578
H36_7 H 0.513575 0.41066 0.153433
H37_7 H 0.501173 0.442893 0.212137
H38_7 H 0.476704 0.48977 0.388556
H39_7 H 0.469451 0.522806 0.447803
H40_7 H 0.427034 0.55149 0.401806
H41_7 H 0.334653 0.616544 0.388364
H42_7 H 0.296557 0.673182 0.351872
H43_7 H 0.44633 0.52889 0.276732
H44_7 H 0.452967 0.621716 0.267199
H45_7 H 0.41691 0.569449 0.226214
H46_7 H 0.506495 0.0809055 0.666339
H47_7 H 0.495807 0.164556 0.675516
H48_7 H 0.511148 0.245988 0.197689
H49_7 H 0.519468 0.298039 0.145163
H50_7 H 0.461178 0.250787 0.154401
C2_7 C 0.3403(2) 0.8304(3) 0.3788(2)
H1_7 H 0.3348 0.7811 0.3740
C6_7 C 0.3064(2) 0.8796(3) 0.3589(2)
C9_7 C 0.3916(2) 0.9253(3) 0.4100(2)
H6_7 H 0.4212 0.9408 0.4270
C13_7 C 0.3155(2) 0.9515(3) 0.3648(3)
H8_7 H 0.2921 0.9848 0.3516
C19_7 C 0.3587(2) 0.9759(3) 0.3898(3)
C22_7 C 0.3822(2) 0.8534(3) 0.4057(2)
C25_7 C 0.2611(2) 0.8529(3) 0.3296(2)
C26_7 C 0.4163(2) 0.7998(3) 0.4286(2)
C35_5 C 0.4420(4) 0.8684(5) 0.6022(3)
N4_5 N 0.4689(3) 0.9326(4) 0.6157(3)
C40_5 C 0.4056(5) 0.9007(6) 0.5595(4)
C44_5 C 0.4340(4) 0.9661(7) 0.5432(4)
C45_5 C 0.4680(4) 0.9824(6) 0.5850(5)
C47_5 C 0.4988(5) 0.9341(6) 0.6603(5)
H22_5 H 0.468113 0.827761 0.58895
H23_5 H 0.419388 0.846983 0.631643
H24_5 H 0.456556 0.955337 0.511181
H26_5 H 0.401654 0.862828 0.530291
H27_5 H 0.367712 0.914419 0.57319
H30_5 H 0.473523 0.92336 0.690506
H31_5 H 0.516268 0.986196 0.664658
H32_5 H 0.52877 0.893856 0.658793
O17_8 O 0.0511(2) 0.3677(3) 0.0098(2)
O19_8 O 0.1064(5) 0.3833(7) 0.0984(5)
C35_6 C 0.0580(4) 0.6316(5) 0.1022(3)
N4_6 N 0.0311(3) 0.5674(4) 0.1157(3)
O21_8 O 0.0095(3) 0.4598(5) 0.0891(3)
C40_6 C 0.0944(5) 0.5993(6) 0.0595(4)
C44_6 C 0.0660(4) 0.5339(7) 0.0432(4)
C45_6 C 0.0320(4) 0.5176(6) 0.0850(5)
C47_6 C 0.0012(5) 0.5659(6) 0.1603(5)
H13_8 H 0.129199 0.345582 0.0855772
H14_8 H 0.108873 0.384196 0.133868
H22_6 H 0.0318866 0.672239 0.0889497
H23_6 H 0.0806119 0.653017 0.131643
H24_6 H 0.0434442 0.544663 0.011181
H25_8 H 0.0924642 0.490387 0.036171
H26_6 H 0.0983463 0.637172 0.0302908
H27_6 H 0.132288 0.585581 0.0731896
H29_8 H 0.16154 0.122906 0.000559568
H30_6 H 0.0264766 0.57664 0.190506
H47_8 H 0.0041933 0.335444 0.175516
O2_8 O 0.11501(16) 0.0696(2) 0.85186(15)
O4_8 O 0.17958(16) 0.3054(2) 0.79071(15)
O5_8 O 0.03328(15) 0.2654(2) 0.97291(15)
O10_8 O 0.13674(16) 0.2148(2) 0.82451(16)
O12_8 O 0.15752(17) 0.0114(2) 0.76913(15)
O16_8 O 0.08593(16) 0.1218(3) 0.75320(17)
C2_8 C 0.1597(2) 0.6696(3) 0.8788(2)
H1_8 H 0.1652 0.7189 0.8740
N1_8 N 0.0860(2) 0.0524(4) 0.9268(2)
C4_8 C 0.1000(2) 0.3037(3) 0.8975(2)
H3_8 H 0.0901 0.2552 0.8989
C5_8 C 0.1449(2) 0.3998(3) 0.8582(3)
H4_8 H 0.1660 0.4159 0.8327
C6_8 C 0.1936(2) 0.6204(3) 0.8589(2)
C9_8 C 0.1084(2) 0.5747(3) 0.9100(2)
H6_8 H 0.0788 0.5592 0.9270
C11_8 C 0.0847(3) 0.3505(3) 0.9326(3)
C12_8 C 0.0999(3) 0.4210(3) 0.9306(3)
H7_8 H 0.0901 0.4522 0.9557
C13_8 C 0.1845(2) 0.5485(3) 0.8648(3)
H8_8 H 0.2079 0.5152 0.8516
C17_8 C 0.1293(3) 0.4473(3) 0.8925(3)
C19_8 C 0.1413(2) 0.5241(3) 0.8898(3)
C20_8 C 0.1306(2) 0.3288(3) 0.8599(2)
C21_8 C 0.1506(2) 0.2784(3) 0.8218(2)
C22_8 C 0.1178(2) 0.6466(3) 0.9057(2)
C25_8 C 0.2389(2) 0.6471(3) 0.8296(2)
C26_8 C 0.0837(2) 0.7002(3) 0.9286(2)
C27_8 C 0.1160(3) 0.0835(4) 0.8951(3)
C36_8 C 0.0631(3) 0.1631(5) 0.7299(3)
N3_8 N 0.0300(3) 0.1575(7) 0.6970(3)
C38_8 C 0.0537(3) 0.3243(4) 0.9753(3)
C41_8 C 0.0150(4) 0.0857(7) 0.6818(4)
C43_8 C 0.0081(4) 0.2198(7) 0.6719(4)
C46_8 C 0.0923(5) 0.0708(6) 0.9779(3)
C48_8 C 0.1565(4) 0.1234(6) 0.9215(3)
C49_8 C 0.1319(6) 0.1294(8) 0.9734(3)
H17_8 H 0.0566114 0.0898927 0.993638
H18_8 H 0.106704 0.0261903 0.99872
H19_8 H 0.0724845 0.217934 0.738511
H20_8 H 0.192565 0.0941513 0.922306
H21_8 H 0.162902 0.175543 0.905811
H28_8 H 0.113547 0.180913 0.97775
H35_8 H 0.048645 0.0575079 0.668578
H38_8 H 0.0232955 0.0102305 0.888556
H50_8 H 0.0388215 0.249213 0.654401
C1_8 C 0.1508(4) 0.9581(4) 0.7905(3)
C29_8 C 0.1220(4) 0.8470(4) 0.8193(3)
N2_8 N 0.1197(4) 0.9107(4) 0.7921(3)
C37_8 C 0.0728(3) 0.9235(6) 0.7637(4)
C39_8 C 0.1977(4) 0.9318(5) 0.8280(3)
C42_8 C 0.0509(4) 0.9932(6) 0.9155(4)
C50_8 C 0.1759(5) 0.8703(6) 0.8517(4)
H15_8 H 0.0882735 0.83923 0.84176
H16_8 H 0.127989 0.800157 0.797176
H33_8 H 0.232264 0.917532 0.808262
H34_8 H 0.206755 0.973296 0.853778
H39_8 H 0.0305489 0.977194 0.947803
H40_8 H 0.0729659 0.94851 0.901806
H41_8 H 0.165347 0.883456 0.888364
H42_8 H 0.203443 0.826818 0.851872
H43_8 H 0.0536702 0.97111 0.776732
H44_8 H 0.0470334 0.878284 0.767199
H45_8 H 0.0830903 0.930551 0.726214
O22_8 O 0.9883(4) 0.3705(6) 0.1535(4)
H31_6 H 0.983732 0.513804 0.164658
H32_6 H 0.97123 0.606144 0.158793
H46_8 H 0.993505 0.419094 0.166339
O9_8 O 0.9515(2) 0.1274(3) 0.98214(18)
C3_8 C 0.8940(2) 0.0563(4) 0.9101(2)
H2_8 H 0.9113 0.0274 0.9329
O18_8 O 0.9203(2) 0.2309(3) 0.96189(17)
C15_8 C 0.8698(2) 0.0240(4) 0.8716(2)
C16_8 C 0.8453(2) 0.0692(3) 0.8390(2)
H10_8 H 0.8284 0.0489 0.8121
C23_8 C 0.9237(3) 0.1648(5) 0.9564(2)
C28_8 C 0.8194(2) 0.1880(3) 0.8086(2)
C30_8 C 0.8445(2) 0.1421(4) 0.8443(2)
C32_8 C 0.8681(2) 0.1727(4) 0.8834(2)
H12_8 H 0.8668 0.2226 0.8879
C34_8 C 0.8940(2) 0.1294(4) 0.9166(2)
H36_8 H 0.986425 0.0893395 0.653433
H37_8 H 0.998827 0.0571065 0.712137
H48_8 H 0.988852 0.254012 0.697689
H49_8 H 0.980532 0.201961 0.645163
C7_8 C 0.8725(2) 0.9465(4) 0.8635(2)
C8_8 C 0.9107(2) 0.9062(4) 0.8852(2)
H5_8 H 0.9351 0.9291 0.9053
C10_8 C 0.9141(3) 0.8342(4) 0.8783(2)
C14_8 C 0.8806(3) 0.8009(4) 0.8475(2)
H9_8 H 0.8839 0.7514 0.8417
C18_8 C 0.8386(3) 0.9113(4) 0.8322(2)
H11_8 H 0.8127 0.9374 0.8159
C24_8 C 0.8050(3) 0.8007(5) 0.7915(3)
C31_8 C 0.8427(3) 0.8387(4) 0.8252(2)
C33_8 C 0.9548(3) 0.7910(4) 0.9032(2)
C35_7 C 0.4420(4) 0.1316(5) 0.1022(3)
N4_7 N 0.4689(3) 0.0674(4) 0.1157(3)
C40_7 C 0.4056(5) 0.0993(6) 0.0595(4)
C44_7 C 0.4340(4) 0.0339(7) 0.0432(4)
C45_7 C 0.4680(4) 0.0176(6) 0.0850(5)
C47_7 C 0.4988(5) 0.0659(6) 0.1603(5)
H22_7 H 0.468113 0.172239 0.0889497
H23_7 H 0.419388 0.153017 0.131643
H24_7 H 0.456556 0.0446631 0.011181
H26_7 H 0.401654 0.137172 0.0302908
H27_7 H 0.367712 0.0855808 0.0731896
H30_7 H 0.473523 0.0766403 0.190506
H31_7 H 0.516268 0.0138042 0.164658
H32_7 H 0.52877 0.106144 0.158793
C35_8 C 0.5580(4) 0.8684(5) 0.8978(3)
N4_8 N 0.5311(3) 0.9326(4) 0.8843(3)
C40_8 C 0.5944(5) 0.9007(6) 0.9405(4)
C44_8 C 0.5660(4) 0.9661(7) 0.9568(4)
C45_8 C 0.5320(4) 0.9824(6) 0.9150(5)
C47_8 C 0.5012(5) 0.9341(6) 0.8397(5)
H22_8 H 0.531887 0.827761 0.91105
H23_8 H 0.580612 0.846983 0.868357
H24_8 H 0.543444 0.955337 0.988819
H26_8 H 0.598346 0.862828 0.969709
H27_8 H 0.632288 0.914419 0.92681
H30_8 H 0.526477 0.92336 0.809494
H31_8 H 0.483732 0.986196 0.835342
H32_8 H 0.47123 0.893856 0.841207
loop_
_geom_bond_atom_site_label_1
_geom_bond_atom_site_label_2
_geom_bond_site_symmetry_1
_geom_bond_site_symmetry_2
C29 N2 1_555 1_555
N2 C1 1_555 1_555
C37 N2 1_555 1_555
C39 C1 1_555 1_555
C50 C29 1_555 1_555
C39 C50 1_555 1_555
C29 H15 1_555 1_555
C29 H16 1_555 1_555
C39 H33 1_555 1_555
C39 H34 1_555 1_555
C42 H39 1_555 1_555
C42 H40 1_555 1_555
C50 H41 1_555 1_555
C50 H42 1_555 1_555
C37 H43 1_555 1_555
C37 H44 1_555 1_555
C37 H45 1_555 1_555
Zn1 O4 1_555 1_555
Zn2 O2 1_555 1_555
Zn4 O17 1_555 1_555
O1 C25 1_555 1_555
O2 C27 1_555 1_555
O3 C26 1_555 1_555
O4 C21 1_555 1_555
O5 C38 1_555 1_555
O7 C25 1_555 1_555
O10 Zn2 1_555 1_555
O12 Zn2 1_555 1_555
O13 C26 1_555 1_555
O16 Zn2 1_555 1_555
C2 H1 1_555 1_555
N1 C27 1_555 1_555
O17 C38 1_555 1_555
C4 H3 1_555 1_555
C5 H4 1_555 1_555
C6 C2 1_555 1_555
C9 H6 1_555 1_555
C11 C4 1_555 1_555
C12 C11 1_555 1_555
H7 C12 1_555 1_555
C13 C6 1_555 1_555
H8 C13 1_555 1_555
C17 C5 1_555 1_555
C19 C9 1_555 1_555
C20 C4 1_555 1_555
C21 O10 1_555 1_555
C22 C2 1_555 1_555
C25 C6 1_555 1_555
O19 Zn4 1_555 1_555
C26 C22 1_555 1_555
C27 C48 1_555 1_555
C35 N4 1_555 1_555
C36 O16 1_555 1_555
N3 C36 1_555 1_555
N4 C45 1_555 1_555
C38 C11 1_555 1_555
O21 Zn4 1_555 1_555
C40 C35 1_555 1_555
C41 N3 1_555 1_555
C43 N3 1_555 1_555
C44 C40 1_555 1_555
C45 O21 1_555 1_555
C46 N1 1_555 1_555
C47 N4 1_555 1_555
C48 C49 1_555 1_555
C49 C46 1_555 1_555
Zn7 O7 1_555 1_555
Zn9 O1 1_555 1_555
Zn11 O3 1_555 1_555
O23 Zn2 1_555 1_555
O26 Zn1 1_555 1_555
O27 Zn1 1_555 1_555
O28 Zn1 1_555 1_555
O30 Zn1 1_555 1_555
O31 Zn1 1_555 1_555
O32 Zn4 1_555 1_555
Zn2 O28 1_555 1_555
O13 Zn11 1_555 1_555
C5 C20 1_555 1_555
C9 C22 1_555 1_555
C12 C17 1_555 1_555
C13 C19 1_555 1_555
C17 C19 1_555 1_555
C20 C21 1_555 1_555
C44 C45 1_555 1_555
O19 H13 1_555 1_555
O19 H14 1_555 1_555
C46 H17 1_555 1_555
C46 H18 1_555 1_555
C36 H19 1_555 1_555
C48 H20 1_555 1_555
C48 H21 1_555 1_555
C35 H22 1_555 1_555
C35 H23 1_555 1_555
C44 H24 1_555 1_555
C44 H25 1_555 1_555
C40 H26 1_555 1_555
C40 H27 1_555 1_555
C49 H28 1_555 1_555
C49 H29 1_555 1_555
C47 H30 1_555 1_555
C41 H35 1_555 1_555
C43 H50 1_555 1_555
O6 C33 1_555 1_555
O14 C24 1_555 1_555
O15 C24 1_555 1_555
C7 C8 1_555 1_555
C8 H5 1_555 1_555
C10 C8 1_555 1_555
C14 C10 1_555 1_555
H9 C14 1_555 1_555
C18 C7 1_555 1_555
H11 C18 1_555 1_555
C24 C31 1_555 1_555
O20 C33 1_555 1_555
C31 C14 1_555 1_555
C33 C10 1_555 1_555
Zn6 O14 1_555 1_555
Zn13 O20 1_555 1_555
O15 Zn6 1_555 1_555
C18 C31 1_555 1_555
O8 C28 1_555 1_555
O9 Zn3 1_555 1_555
O11 C28 1_555 1_555
C3 H2 1_555 1_555
O18 Zn3 1_555 1_555
C15 C3 1_555 1_555
C16 C15 1_555 1_555
H10 C16 1_555 1_555
C23 O9 1_555 1_555
C28 C30 1_555 1_555
C30 C16 1_555 1_555
C32 C30 1_555 1_555
H12 C32 1_555 1_555
C34 C3 1_555 1_555
Zn5 O8 1_555 1_555
Zn8 O11 1_555 1_555
O24 Zn3 1_555 1_555
O29 Zn3 1_555 1_555
O11 Zn5 1_555 1_555
O18 C23 1_555 1_555
C23 C34 1_555 1_555
C32 C34 1_555 1_555
O22 H46 1_555 1_555
O1_2 C25_2 1_555 1_555
O3_2 C26_2 1_555 1_555
O7_2 C25_2 1_555 1_555
O13_2 C26_2 1_555 1_555
C2_2 H1_2 1_555 1_555
C6_2 C2_2 1_555 1_555
C9_2 H6_2 1_555 1_555
C13_2 C6_2 1_555 1_555
H8_2 C13_2 1_555 1_555
C19_2 C9_2 1_555 1_555
C22_2 C2_2 1_555 1_555
C25_2 C6_2 1_555 1_555
C26_2 C22_2 1_555 1_555
Zn7_2 O7_2 1_555 1_555
Zn9_2 O1_2 1_555 1_555
Zn10 O3_2 1_555 1_555
Zn12 O13_2 1_555 1_555
O13_2 Zn10 1_555 1_555
C9_2 C22_2 1_555 1_555
C13_2 C19_2 1_555 1_555
Zn4_2 O17_2 1_555 1_555
O19_2 Zn4_2 1_555 1_555
O21_2 Zn4_2 1_555 1_555
O22_2 Zn4_2 1_555 1_555
O24_2 Zn3_2 1_555 1_555
O25_2 Zn3_2 1_555 1_555
O29_2 Zn3_2 1_555 1_555
O32_2 Zn4_2 1_555 1_555
Zn4_2 O29_2 1_555 1_555
O19_2 H13_2 1_555 1_555
O19_2 H14_2 1_555 1_555
O22_2 H46_2 1_555 1_555
O22_2 H47_2 1_555 1_555
Zn1_2 O4_2 1_555 1_555
Zn2_2 O2_2 1_555 1_555
O2_2 C27_2 1_555 1_555
O4_2 C21_2 1_555 1_555
O5_2 C38_2 1_555 1_555
O6_2 C33_2 1_555 1_555
O8_2 C28_2 1_555 1_555
O10_2 Zn2_2 1_555 1_555
O11_2 C28_2 1_555 1_555
O12_2 Zn2_2 1_555 1_555
C1_2 O12_2 1_555 1_555
O14_2 C24_2 1_555 1_555
O15_2 C24_2 1_555 1_555
O16_2 Zn2_2 1_555 1_555
C3_2 H2_2 1_555 1_555
N1_2 C27_2 1_555 1_555
C4_2 H3_2 1_555 1_555
C5_2 H4_2 1_555 1_555
C7_2 C8_2 1_555 1_555
C8_2 H5_2 1_555 1_555
C10_2 C8_2 1_555 1_555
C11_2 C4_2 1_555 1_555
C12_2 C11_2 1_555 1_555
H7_2 C12_2 1_555 1_555
C14_2 C10_2 1_555 1_555
H9_2 C14_2 1_555 1_555
C15_2 C3_2 1_555 1_555
C16_2 C15_2 1_555 1_555
H10_2 C16_2 1_555 1_555
C17_2 C5_2 1_555 1_555
C18_2 C7_2 1_555 1_555
H11_2 C18_2 1_555 1_555
C20_2 C4_2 1_555 1_555
C21_2 O10_2 1_555 1_555
C23_2 O9_2 1_555 1_555
C24_2 C31_2 1_555 1_555
C27_2 C48_2 1_555 1_555
C28_2 C30_2 1_555 1_555
C29_2 N2_2 1_555 1_555
O20_2 C33_2 1_555 1_555
C30_2 C16_2 1_555 1_555
C31_2 C14_2 1_555 1_555
C32_2 C30_2 1_555 1_555
H12_2 C32_2 1_555 1_555
C33_2 C10_2 1_555 1_555
C34_2 C3_2 1_555 1_555
C36_2 O16_2 1_555 1_555
N2_2 C1_2 1_555 1_555
N3_2 C36_2 1_555 1_555
C37_2 N2_2 1_555 1_555
C38_2 C11_2 1_555 1_555
C39_2 C1_2 1_555 1_555
C41_2 N3_2 1_555 1_555
C42_2 N1_2 1_555 1_555
C43_2 N3_2 1_555 1_555
C46_2 N1_2 1_555 1_555
C48_2 C49_2 1_555 1_555
C49_2 C46_2 1_555 1_555
C50_2 C29_2 1_555 1_555
Zn5_2 O8_2 1_555 1_555
Zn6_2 O14_2 1_555 1_555
Zn8_2 O11_2 1_555 1_555
Zn10 O6_2 1_555 1_555
Zn12 O20_2 1_555 1_555
O23_2 Zn2_2 1_555 1_555
O26_2 Zn1_2 1_555 1_555
O27_2 Zn1_2 1_555 1_555
O28_2 Zn1_2 1_555 1_555
O30_2 Zn1_2 1_555 1_555
O31_2 Zn1_2 1_555 1_555
Zn2_2 O28_2 1_555 1_555
O11_2 Zn5_2 1_555 1_555
O15_2 Zn6_2 1_555 1_555
C5_2 C20_2 1_555 1_555
C7_2 C15_2 1_555 1_555
C12_2 C17_2 1_555 1_555
O18_2 C23_2 1_555 1_555
C18_2 C31_2 1_555 1_555
C20_2 C21_2 1_555 1_555
C23_2 C34_2 1_555 1_555
C32_2 C34_2 1_555 1_555
C39_2 C50_2 1_555 1_555
C29_2 H15_2 1_555 1_555
C29_2 H16_2 1_555 1_555
C46_2 H17_2 1_555 1_555
C46_2 H18_2 1_555 1_555
C36_2 H19_2 1_555 1_555
C48_2 H20_2 1_555 1_555
C48_2 H21_2 1_555 1_555
C49_2 H28_2 1_555 1_555
C39_2 H33_2 1_555 1_555
C39_2 H34_2 1_555 1_555
C41_2 H35_2 1_555 1_555
C41_2 H36_2 1_555 1_555
C41_2 H37_2 1_555 1_555
C42_2 H38_2 1_555 1_555
C42_2 H39_2 1_555 1_555
C42_2 H40_2 1_555 1_555
C50_2 H41_2 1_555 1_555
C50_2 H42_2 1_555 1_555
C37_2 H43_2 1_555 1_555
C37_2 H44_2 1_555 1_555
C37_2 H45_2 1_555 1_555
C43_2 H48_2 1_555 1_555
C43_2 H49_2 1_555 1_555
C43_2 H50_2 1_555 1_555
O1_3 C25_3 1_555 1_555
O3_3 C26_3 1_555 1_555
O7_3 C25_3 1_555 1_555
O13_3 C26_3 1_555 1_555
C2_3 H1_3 1_555 1_555
C6_3 C2_3 1_555 1_555
C9_3 H6_3 1_555 1_555
C13_3 C6_3 1_555 1_555
H8_3 C13_3 1_555 1_555
C19_3 C9_3 1_555 1_555
C22_3 C2_3 1_555 1_555
C25_3 C6_3 1_555 1_555
C26_3 C22_3 1_555 1_555
C35_2 N4_2 1_555 1_555
N4_2 C45_2 1_555 1_555
C40_2 C35_2 1_555 1_555
C44_2 C40_2 1_555 1_555
C47_2 N4_2 1_555 1_555
Zn6_2 O7_3 1_555 1_555
Zn9_3 O1_3 1_555 1_555
Zn10_2 O3_3 1_555 1_555
Zn12_2 O13_3 1_555 1_555
O13_3 Zn10_2 1_555 1_555
C9_3 C22_3 1_555 1_555
C13_3 C19_3 1_555 1_555
C44_2 C45_2 1_555 1_555
C35_2 H22_2 1_555 1_555
C35_2 H23_2 1_555 1_555
C44_2 H24_2 1_555 1_555
C40_2 H26_2 1_555 1_555
C40_2 H27_2 1_555 1_555
C47_2 H30_2 1_555 1_555
C47_2 H31_2 1_555 1_555
C47_2 H32_2 1_555 1_555
Zn5_2 O4_3 1_555 1_555
Zn8_2 O2_3 1_555 1_555
Zn3_3 O5_3 1_555 1_555
Zn4_3 O17_3 1_555 1_555
O2_3 C27_3 1_555 1_555
O4_3 C21_3 1_555 1_555
O5_3 C38_3 1_555 1_555
O6_3 C33_3 1_555 1_555
O27_2 C28_3 1_555 1_555
O9_3 Zn3_3 1_555 1_555
O10_3 Zn8_2 1_555 1_555
O28_2 C28_3 1_555 1_555
O12_3 Zn8_2 1_555 1_555
C1_3 O12_3 1_555 1_555
O14_3 C24_3 1_555 1_555
O15_3 C24_3 1_555 1_555
O16_3 Zn8_2 1_555 1_555
C3_3 H2_3 1_555 1_555
N1_3 C27_3 1_555 1_555
O17_3 C38_3 1_555 1_555
C4_3 H3_3 1_555 1_555
C5_3 H4_3 1_555 1_555
C7_3 C8_3 1_555 1_555
C8_3 H5_3 1_555 1_555
C10_3 C8_3 1_555 1_555
C11_3 C4_3 1_555 1_555
C12_3 C11_3 1_555 1_555
H7_3 C12_3 1_555 1_555
C14_3 C10_3 1_555 1_555
H9_3 C14_3 1_555 1_555
O18_3 Zn3_3 1_555 1_555
C15_3 C3_3 1_555 1_555
C16_3 C15_3 1_555 1_555
H10_3 C16_3 1_555 1_555
C17_3 C5_3 1_555 1_555
C18_3 C7_3 1_555 1_555
H11_3 C18_3 1_555 1_555
C20_3 C4_3 1_555 1_555
C21_3 O10_3 1_555 1_555
C23_3 O9_3 1_555 1_555
C24_3 C31_3 1_555 1_555
O19_3 Zn4_3 1_555 1_555
C27_3 C48_3 1_555 1_555
C28_3 C30_3 1_555 1_555
C29_3 N2_3 1_555 1_555
O20_3 C33_3 1_555 1_555
C30_3 C16_3 1_555 1_555
C31_3 C14_3 1_555 1_555
C32_3 C30_3 1_555 1_555
H12_3 C32_3 1_555 1_555
C33_3 C10_3 1_555 1_555
C34_3 C3_3 1_555 1_555
C36_3 O16_3 1_555 1_555
N2_3 C1_3 1_555 1_555
N3_3 C36_3 1_555 1_555
C37_3 N2_3 1_555 1_555
C38_3 C11_3 1_555 1_555
O21_3 Zn4_3 1_555 1_555
C39_3 C1_3 1_555 1_555
C41_3 N3_3 1_555 1_555
C42_3 N1_3 1_555 1_555
C43_3 N3_3 1_555 1_555
C46_3 N1_3 1_555 1_555
C48_3 C49_3 1_555 1_555
C49_3 C46_3 1_555 1_555
C50_3 C29_3 1_555 1_555
O22_3 Zn4_3 1_555 1_555
Zn7_2 O14_3 1_555 1_555
Zn10_2 O6_3 1_555 1_555
Zn12_2 O20_3 1_555 1_555
O23_3 Zn8_2 1_555 1_555
O24_3 Zn3_3 1_555 1_555
O25_3 Zn3_3 1_555 1_555
O26_3 Zn5_2 1_555 1_555
O29_3 Zn3_3 1_555 1_555
O30_3 Zn5_2 1_555 1_555
O31_3 Zn5_2 1_555 1_555
O32_3 Zn4_3 1_555 1_555
Zn4_3 O29_3 1_555 1_555
O15_3 Zn7_2 1_555 1_555
C5_3 C20_3 1_555 1_555
C7_3 C15_3 1_555 1_555
C12_3 C17_3 1_555 1_555
O18_3 C23_3 1_555 1_555
C18_3 C31_3 1_555 1_555
C20_3 C21_3 1_555 1_555
C23_3 C34_3 1_555 1_555
C32_3 C34_3 1_555 1_555
C39_3 C50_3 1_555 1_555
O19_3 H13_3 1_555 1_555
O19_3 H14_3 1_555 1_555
C29_3 H15_3 1_555 1_555
C29_3 H16_3 1_555 1_555
C46_3 H17_3 1_555 1_555
C46_3 H18_3 1_555 1_555
C36_3 H19_3 1_555 1_555
C48_3 H20_3 1_555 1_555
C48_3 H21_3 1_555 1_555
C49_3 H28_3 1_555 1_555
C49_3 H29_3 1_555 1_555
C39_3 H33_3 1_555 1_555
C39_3 H34_3 1_555 1_555
C41_3 H35_3 1_555 1_555
C41_3 H36_3 1_555 1_555
C41_3 H37_3 1_555 1_555
C42_3 H38_3 1_555 1_555
C42_3 H39_3 1_555 1_555
C42_3 H40_3 1_555 1_555
C50_3 H41_3 1_555 1_555
C50_3 H42_3 1_555 1_555
C37_3 H43_3 1_555 1_555
C37_3 H44_3 1_555 1_555
C37_3 H45_3 1_555 1_555
O22_3 H46_3 1_555 1_555
O22_3 H47_3 1_555 1_555
C43_3 H48_3 1_555 1_555
C43_3 H49_3 1_555 1_555
C43_3 H50_3 1_555 1_555
O6_4 C33_4 1_555 1_555
O14_4 C24_4 1_555 1_555
O15_4 C24_4 1_555 1_555
C7_4 C8_4 1_555 1_555
C8_4 H5_4 1_555 1_555
C10_4 C8_4 1_555 1_555
C14_4 C10_4 1_555 1_555
H9_4 C14_4 1_555 1_555
C18_4 C7_4 1_555 1_555
H11_4 C18_4 1_555 1_555
C24_4 C31_4 1_555 1_555
O20_4 C33_4 1_555 1_555
C31_4 C14_4 1_555 1_555
C33_4 C10_4 1_555 1_555
Zn7 O14_4 1_555 1_555
Zn13_2 O20_4 1_555 1_555
O15_4 Zn7 1_555 1_555
C18_4 C31_4 1_555 1_555
O27 C28_4 1_555 1_555
O28 C28_4 1_555 1_555
C3_4 H2_4 1_555 1_555
C15_4 C3_4 1_555 1_555
C16_4 C15_4 1_555 1_555
H10_4 C16_4 1_555 1_555
C23_4 O9_4 1_555 1_555
C28_4 C30_4 1_555 1_555
C30_4 C16_4 1_555 1_555
C32_4 C30_4 1_555 1_555
H12_4 C32_4 1_555 1_555
C34_4 C3_4 1_555 1_555
O18_4 C23_4 1_555 1_555
C23_4 C34_4 1_555 1_555
C32_4 C34_4 1_555 1_555
O24_4 Zn3_4 1_555 1_555
O29_4 Zn3_4 1_555 1_555
O22_4 H46_4 1_555 1_555
C29_4 N2_4 1_555 1_555
N2_4 C1_4 1_555 1_555
C37_4 N2_4 1_555 1_555
C39_4 C1_4 1_555 1_555
C50_4 C29_4 1_555 1_555
C39_4 C50_4 1_555 1_555
C29_4 H15_4 1_555 1_555
C29_4 H16_4 1_555 1_555
C39_4 H33_4 1_555 1_555
C39_4 H34_4 1_555 1_555
C42_4 H39_4 1_555 1_555
C42_4 H40_4 1_555 1_555
C50_4 H41_4 1_555 1_555
C50_4 H42_4 1_555 1_555
C37_4 H43_4 1_555 1_555
C37_4 H44_4 1_555 1_555
C37_4 H45_4 1_555 1_555
Zn5 O4_4 1_555 1_555
Zn8 O2_4 1_555 1_555
O1_4 C25_4 1_555 1_555
O2_4 C27_4 1_555 1_555
O3_4 C26_4 1_555 1_555
O4_4 C21_4 1_555 1_555
O5_4 C38_4 1_555 1_555
O7_4 C25_4 1_555 1_555
O10_4 Zn8 1_555 1_555
O12_4 Zn8 1_555 1_555
O13_4 C26_4 1_555 1_555
O16_4 Zn8 1_555 1_555
C2_4 H1_4 1_555 1_555
N1_4 C27_4 1_555 1_555
C4_4 H3_4 1_555 1_555
C5_4 H4_4 1_555 1_555
C6_4 C2_4 1_555 1_555
C9_4 H6_4 1_555 1_555
C11_4 C4_4 1_555 1_555
C12_4 C11_4 1_555 1_555
H7_4 C12_4 1_555 1_555
C13_4 C6_4 1_555 1_555
H8_4 C13_4 1_555 1_555
C17_4 C5_4 1_555 1_555
C19_4 C9_4 1_555 1_555
C20_4 C4_4 1_555 1_555
C21_4 O10_4 1_555 1_555
C22_4 C2_4 1_555 1_555
C25_4 C6_4 1_555 1_555
C26_4 C22_4 1_555 1_555
C27_4 C48_4 1_555 1_555
C36_4 O16_4 1_555 1_555
N3_4 C36_4 1_555 1_555
C38_4 C11_4 1_555 1_555
C41_4 N3_4 1_555 1_555
C43_4 N3_4 1_555 1_555
C46_4 N1_4 1_555 1_555
C48_4 C49_4 1_555 1_555
C49_4 C46_4 1_555 1_555
Zn6 O7_4 1_555 1_555
Zn9_4 O1_4 1_555 1_555
Zn11_2 O3_4 1_555 1_555
O23_4 Zn8 1_555 1_555
O26_4 Zn5 1_555 1_555
O30_4 Zn5 1_555 1_555
O31_4 Zn5 1_555 1_555
O13_4 Zn11_2 1_555 1_555
C5_4 C20_4 1_555 1_555
C9_4 C22_4 1_555 1_555
C12_4 C17_4 1_555 1_555
C13_4 C19_4 1_555 1_555
C17_4 C19_4 1_555 1_555
C20_4 C21_4 1_555 1_555
C46_4 H17_4 1_555 1_555
C46_4 H18_4 1_555 1_555
C36_4 H19_4 1_555 1_555
C48_4 H20_4 1_555 1_555
C48_4 H21_4 1_555 1_555
C49_4 H28_4 1_555 1_555
C41_4 H35_4 1_555 1_555
C43_4 H50_4 1_555 1_555
Zn4_4 O17_4 1_555 1_555
O19_4 Zn4_4 1_555 1_555
C35_3 N4_3 1_555 1_555
N4_3 C45_3 1_555 1_555
O21_4 Zn4_4 1_555 1_555
C40_3 C35_3 1_555 1_555
C44_3 C40_3 1_555 1_555
C45_3 O21_4 1_555 1_555
C47_3 N4_3 1_555 1_555
O32_4 Zn4_4 1_555 1_555
C44_3 C45_3 1_555 1_555
O19_4 H13_4 1_555 1_555
O19_4 H14_4 1_555 1_555
C35_3 H22_3 1_555 1_555
C35_3 H23_3 1_555 1_555
C44_3 H24_3 1_555 1_555
C44_3 H25_4 1_555 1_555
C40_3 H26_3 1_555 1_555
C40_3 H27_3 1_555 1_555
C47_3 H30_3 1_555 1_555
O8_3 C28_5 1_555 1_555
O9_5 Zn11 1_555 1_555
O11_3 C28_5 1_555 1_555
C3_5 H2_5 1_555 1_555
O18_5 Zn11 1_555 1_555
C15_5 C3_5 1_555 1_555
C16_5 C15_5 1_555 1_555
H10_5 C16_5 1_555 1_555
C23_5 O9_5 1_555 1_555
C28_5 C30_5 1_555 1_555
C30_5 C16_5 1_555 1_555
C32_5 C30_5 1_555 1_555
H12_5 C32_5 1_555 1_555
C34_5 C3_5 1_555 1_555
Zn7_2 O8_3 1_555 1_555
Zn9_2 O11_3 1_555 1_555
O11_3 Zn7_2 1_555 1_555
O18_5 C23_5 1_555 1_555
C23_5 C34_5 1_555 1_555
C32_5 C34_5 1_555 1_555
O22_5 H46_5 1_555 1_555
O25 C33_5 1_555 1_555
O30_2 C24_5 1_555 1_555
O31_2 C24_5 1_555 1_555
C7_5 C8_5 1_555 1_555
C8_5 H5_5 1_555 1_555
C10_5 C8_5 1_555 1_555
C14_5 C10_5 1_555 1_555
H9_5 C14_5 1_555 1_555
C18_5 C7_5 1_555 1_555
H11_5 C18_5 1_555 1_555
C24_5 C31_5 1_555 1_555
O32 C33_5 1_555 1_555
C31_5 C14_5 1_555 1_555
C33_5 C10_5 1_555 1_555
C18_5 C31_5 1_555 1_555
Zn6_2 O4_5 1_555 1_555
Zn9_3 O2_5 1_555 1_555
Zn13 O17_5 1_555 1_555
O23_3 C25_5 1_555 1_555
O2_5 C27_5 1_555 1_555
O24 C26_5 1_555 1_555
O4_5 C21_5 1_555 1_555
O5_5 C38_5 1_555 1_555
O26_3 C25_5 1_555 1_555
O10_5 Zn9_3 1_555 1_555
O12_5 Zn9_3 1_555 1_555
O29 C26_5 1_555 1_555
O16_5 Zn9_3 1_555 1_555
C2_5 H1_5 1_555 1_555
N1_5 C27_5 1_555 1_555
O17_5 C38_5 1_555 1_555
C4_5 H3_5 1_555 1_555
C5_5 H4_5 1_555 1_555
C6_5 C2_5 1_555 1_555
C9_5 H6_5 1_555 1_555
C11_5 C4_5 1_555 1_555
C12_5 C11_5 1_555 1_555
H7_5 C12_5 1_555 1_555
C13_5 C6_5 1_555 1_555
H8_5 C13_5 1_555 1_555
C17_5 C5_5 1_555 1_555
C19_5 C9_5 1_555 1_555
C20_5 C4_5 1_555 1_555
C21_5 O10_5 1_555 1_555
C22_5 C2_5 1_555 1_555
C25_5 C6_5 1_555 1_555
O19_5 Zn13 1_555 1_555
C26_5 C22_5 1_555 1_555
C27_5 C48_5 1_555 1_555
C35_4 N4_4 1_555 1_555
C36_5 O16_5 1_555 1_555
N3_5 C36_5 1_555 1_555
N4_4 C45_4 1_555 1_555
C38_5 C11_5 1_555 1_555
O21_5 Zn13 1_555 1_555
C40_4 C35_4 1_555 1_555
C41_5 N3_5 1_555 1_555
C43_5 N3_5 1_555 1_555
C44_4 C40_4 1_555 1_555
C45_4 O21_5 1_555 1_555
C46_5 N1_5 1_555 1_555
C47_4 N4_4 1_555 1_555
C48_5 C49_5 1_555 1_555
C49_5 C46_5 1_555 1_555
O27_3 Zn6_2 1_555 1_555
O28_3 Zn6_2 1_555 1_555
Zn9_3 O28_3 1_555 1_555
C5_5 C20_5 1_555 1_555
C9_5 C22_5 1_555 1_555
C12_5 C17_5 1_555 1_555
C13_5 C19_5 1_555 1_555
C17_5 C19_5 1_555 1_555
C20_5 C21_5 1_555 1_555
C44_4 C45_4 1_555 1_555
O19_5 H13_5 1_555 1_555
O19_5 H14_5 1_555 1_555
C46_5 H17_5 1_555 1_555
C46_5 H18_5 1_555 1_555
C36_5 H19_5 1_555 1_555
C48_5 H20_5 1_555 1_555
C48_5 H21_5 1_555 1_555
C35_4 H22_4 1_555 1_555
C35_4 H23_4 1_555 1_555
C44_4 H24_4 1_555 1_555
C44_4 H25_5 1_555 1_555
C40_4 H26_4 1_555 1_555
C40_4 H27_4 1_555 1_555
C49_5 H28_5 1_555 1_555
C49_5 H29_5 1_555 1_555
C47_4 H30_4 1_555 1_555
C41_5 H35_5 1_555 1_555
C43_5 H50_5 1_555 1_555
C29_5 N2_5 1_555 1_555
N2_5 C1_5 1_555 1_555
C37_5 N2_5 1_555 1_555
C39_5 C1_5 1_555 1_555
C50_5 C29_5 1_555 1_555
C39_5 C50_5 1_555 1_555
C29_5 H15_5 1_555 1_555
C29_5 H16_5 1_555 1_555
C39_5 H33_5 1_555 1_555
C39_5 H34_5 1_555 1_555
C42_5 H39_5 1_555 1_555
C42_5 H40_5 1_555 1_555
C50_5 H41_5 1_555 1_555
C50_5 H42_5 1_555 1_555
C37_5 H43_5 1_555 1_555
C37_5 H44_5 1_555 1_555
C37_5 H45_5 1_555 1_555
Zn6 O4_6 1_555 1_555
Zn9_4 O2_6 1_555 1_555
O2_6 C27_6 1_555 1_555
O4_6 C21_6 1_555 1_555
O5_6 C38_6 1_555 1_555
O25_2 C33_6 1_555 1_555
O8_4 C28_6 1_555 1_555
O10_6 Zn9_4 1_555 1_555
O11_4 C28_6 1_555 1_555
O12_6 Zn9_4 1_555 1_555
C1_6 O12_6 1_555 1_555
O30 C24_6 1_555 1_555
O31 C24_6 1_555 1_555
O16_6 Zn9_4 1_555 1_555
C3_6 H2_6 1_555 1_555
N1_6 C27_6 1_555 1_555
C4_6 H3_6 1_555 1_555
C5_6 H4_6 1_555 1_555
C7_6 C8_6 1_555 1_555
C8_6 H5_6 1_555 1_555
C10_6 C8_6 1_555 1_555
C11_6 C4_6 1_555 1_555
C12_6 C11_6 1_555 1_555
H7_6 C12_6 1_555 1_555
C14_6 C10_6 1_555 1_555
H9_6 C14_6 1_555 1_555
C15_6 C3_6 1_555 1_555
C16_6 C15_6 1_555 1_555
H10_6 C16_6 1_555 1_555
C17_6 C5_6 1_555 1_555
C18_6 C7_6 1_555 1_555
H11_6 C18_6 1_555 1_555
C20_6 C4_6 1_555 1_555
C21_6 O10_6 1_555 1_555
C23_6 O9_6 1_555 1_555
C24_6 C31_6 1_555 1_555
C27_6 C48_6 1_555 1_555
C28_6 C30_6 1_555 1_555
C29_6 N2_6 1_555 1_555
O32_2 C33_6 1_555 1_555
C30_6 C16_6 1_555 1_555
C31_6 C14_6 1_555 1_555
C32_6 C30_6 1_555 1_555
H12_6 C32_6 1_555 1_555
C33_6 C10_6 1_555 1_555
C34_6 C3_6 1_555 1_555
C36_6 O16_6 1_555 1_555
N2_6 C1_6 1_555 1_555
N3_6 C36_6 1_555 1_555
C37_6 N2_6 1_555 1_555
C38_6 C11_6 1_555 1_555
C39_6 C1_6 1_555 1_555
C41_6 N3_6 1_555 1_555
C42_6 N1_6 1_555 1_555
C43_6 N3_6 1_555 1_555
C46_6 N1_6 1_555 1_555
C48_6 C49_6 1_555 1_555
C49_6 C46_6 1_555 1_555
C50_6 C29_6 1_555 1_555
Zn7 O8_4 1_555 1_555
Zn9 O11_4 1_555 1_555
O27_4 Zn6 1_555 1_555
O28_4 Zn6 1_555 1_555
Zn9_4 O28_4 1_555 1_555
O11_4 Zn7 1_555 1_555
C5_6 C20_6 1_555 1_555
C7_6 C15_6 1_555 1_555
C12_6 C17_6 1_555 1_555
O18_6 C23_6 1_555 1_555
C18_6 C31_6 1_555 1_555
C20_6 C21_6 1_555 1_555
C23_6 C34_6 1_555 1_555
C32_6 C34_6 1_555 1_555
C39_6 C50_6 1_555 1_555
C29_6 H15_6 1_555 1_555
C29_6 H16_6 1_555 1_555
C46_6 H17_6 1_555 1_555
C46_6 H18_6 1_555 1_555
C36_6 H19_6 1_555 1_555
C48_6 H20_6 1_555 1_555
C48_6 H21_6 1_555 1_555
C49_6 H28_6 1_555 1_555
C39_6 H33_6 1_555 1_555
C39_6 H34_6 1_555 1_555
C41_6 H35_6 1_555 1_555
C41_6 H36_6 1_555 1_555
C41_6 H37_6 1_555 1_555
C42_6 H38_6 1_555 1_555
C42_6 H39_6 1_555 1_555
C42_6 H40_6 1_555 1_555
C50_6 H41_6 1_555 1_555
C50_6 H42_6 1_555 1_555
C37_6 H43_6 1_555 1_555
C37_6 H44_6 1_555 1_555
C37_6 H45_6 1_555 1_555
C43_6 H48_6 1_555 1_555
C43_6 H49_6 1_555 1_555
C43_6 H50_6 1_555 1_555
Zn12 O17_6 1_555 1_555
O19_6 Zn12 1_555 1_555
O21_6 Zn12 1_555 1_555
O22_6 Zn12 1_555 1_555
O19_6 H13_6 1_555 1_555
O19_6 H14_6 1_555 1_555
O22_6 H46_6 1_555 1_555
O22_6 H47_6 1_555 1_555
O23_4 C25_6 1_555 1_555
O24_2 C26_6 1_555 1_555
O26_4 C25_6 1_555 1_555
O29_2 C26_6 1_555 1_555
C2_6 H1_6 1_555 1_555
C6_6 C2_6 1_555 1_555
C9_6 H6_6 1_555 1_555
C13_6 C6_6 1_555 1_555
H8_6 C13_6 1_555 1_555
C19_6 C9_6 1_555 1_555
C22_6 C2_6 1_555 1_555
C25_6 C6_6 1_555 1_555
C26_6 C22_6 1_555 1_555
C9_6 C22_6 1_555 1_555
C13_6 C19_6 1_555 1_555
Zn7 O4_7 1_555 1_555
Zn9 O2_7 1_555 1_555
Zn10_2 O5_7 1_555 1_555
Zn12_2 O17_7 1_555 1_555
O2_7 C27_7 1_555 1_555
O4_7 C21_7 1_555 1_555
O5_7 C38_7 1_555 1_555
O25_3 C33_7 1_555 1_555
O27_4 C28_7 1_555 1_555
O9_7 Zn10_2 1_555 1_555
O10_7 Zn9 1_555 1_555
O28_4 C28_7 1_555 1_555
O12_7 Zn9 1_555 1_555
C1_7 O12_7 1_555 1_555
O30_4 C24_7 1_555 1_555
O31_4 C24_7 1_555 1_555
O16_7 Zn9 1_555 1_555
C3_7 H2_7 1_555 1_555
N1_7 C27_7 1_555 1_555
O17_7 C38_7 1_555 1_555
C4_7 H3_7 1_555 1_555
C5_7 H4_7 1_555 1_555
C7_7 C8_7 1_555 1_555
C8_7 H5_7 1_555 1_555
C10_7 C8_7 1_555 1_555
C11_7 C4_7 1_555 1_555
C12_7 C11_7 1_555 1_555
H7_7 C12_7 1_555 1_555
C14_7 C10_7 1_555 1_555
H9_7 C14_7 1_555 1_555
O18_7 Zn10_2 1_555 1_555
C15_7 C3_7 1_555 1_555
C16_7 C15_7 1_555 1_555
H10_7 C16_7 1_555 1_555
C17_7 C5_7 1_555 1_555
C18_7 C7_7 1_555 1_555
H11_7 C18_7 1_555 1_555
C20_7 C4_7 1_555 1_555
C21_7 O10_7 1_555 1_555
C23_7 O9_7 1_555 1_555
C24_7 C31_7 1_555 1_555
O19_7 Zn12_2 1_555 1_555
C27_7 C48_7 1_555 1_555
C28_7 C30_7 1_555 1_555
C29_7 N2_7 1_555 1_555
O32_3 C33_7 1_555 1_555
C30_7 C16_7 1_555 1_555
C31_7 C14_7 1_555 1_555
C32_7 C30_7 1_555 1_555
H12_7 C32_7 1_555 1_555
C33_7 C10_7 1_555 1_555
C34_7 C3_7 1_555 1_555
C36_7 O16_7 1_555 1_555
N2_7 C1_7 1_555 1_555
N3_7 C36_7 1_555 1_555
C37_7 N2_7 1_555 1_555
C38_7 C11_7 1_555 1_555
O21_7 Zn12_2 1_555 1_555
C39_7 C1_7 1_555 1_555
C41_7 N3_7 1_555 1_555
C42_7 N1_7 1_555 1_555
C43_7 N3_7 1_555 1_555
C46_7 N1_7 1_555 1_555
C48_7 C49_7 1_555 1_555
C49_7 C46_7 1_555 1_555
C50_7 C29_7 1_555 1_555
O22_7 Zn12_2 1_555 1_555
C5_7 C20_7 1_555 1_555
C7_7 C15_7 1_555 1_555
C12_7 C17_7 1_555 1_555
O18_7 C23_7 1_555 1_555
C18_7 C31_7 1_555 1_555
C20_7 C21_7 1_555 1_555
C23_7 C34_7 1_555 1_555
C32_7 C34_7 1_555 1_555
C39_7 C50_7 1_555 1_555
O19_7 H13_7 1_555 1_555
O19_7 H14_7 1_555 1_555
C29_7 H15_7 1_555 1_555
C29_7 H16_7 1_555 1_555
C46_7 H17_7 1_555 1_555
C46_7 H18_7 1_555 1_555
C36_7 H19_7 1_555 1_555
C48_7 H20_7 1_555 1_555
C48_7 H21_7 1_555 1_555
C49_7 H28_7 1_555 1_555
C49_7 H29_7 1_555 1_555
C39_7 H33_7 1_555 1_555
C39_7 H34_7 1_555 1_555
C41_7 H35_7 1_555 1_555
C41_7 H36_7 1_555 1_555
C41_7 H37_7 1_555 1_555
C42_7 H38_7 1_555 1_555
C42_7 H39_7 1_555 1_555
C42_7 H40_7 1_555 1_555
C50_7 H41_7 1_555 1_555
C50_7 H42_7 1_555 1_555
C37_7 H43_7 1_555 1_555
C37_7 H44_7 1_555 1_555
C37_7 H45_7 1_555 1_555
O22_7 H46_7 1_555 1_555
O22_7 H47_7 1_555 1_555
C43_7 H48_7 1_555 1_555
C43_7 H49_7 1_555 1_555
C43_7 H50_7 1_555 1_555
O23 C25_7 1_555 1_555
O24_3 C26_7 1_555 1_555
O26 C25_7 1_555 1_555
O29_3 C26_7 1_555 1_555
C2_7 H1_7 1_555 1_555
C6_7 C2_7 1_555 1_555
C9_7 H6_7 1_555 1_555
C13_7 C6_7 1_555 1_555
H8_7 C13_7 1_555 1_555
C19_7 C9_7 1_555 1_555
C22_7 C2_7 1_555 1_555
C25_7 C6_7 1_555 1_555
C26_7 C22_7 1_555 1_555
C35_5 N4_5 1_555 1_555
N4_5 C45_5 1_555 1_555
C40_5 C35_5 1_555 1_555
C44_5 C40_5 1_555 1_555
C47_5 N4_5 1_555 1_555
C9_7 C22_7 1_555 1_555
C13_7 C19_7 1_555 1_555
C44_5 C45_5 1_555 1_555
C35_5 H22_5 1_555 1_555
C35_5 H23_5 1_555 1_555
C44_5 H24_5 1_555 1_555
C40_5 H26_5 1_555 1_555
C40_5 H27_5 1_555 1_555
C47_5 H30_5 1_555 1_555
C47_5 H31_5 1_555 1_555
C47_5 H32_5 1_555 1_555
Zn13_2 O17_8 1_555 1_555
O19_8 Zn13_2 1_555 1_555
C35_6 N4_6 1_555 1_555
N4_6 C45_6 1_555 1_555
O21_8 Zn13_2 1_555 1_555
C40_6 C35_6 1_555 1_555
C44_6 C40_6 1_555 1_555
C45_6 O21_8 1_555 1_555
C47_6 N4_6 1_555 1_555
C44_6 C45_6 1_555 1_555
O19_8 H13_8 1_555 1_555
O19_8 H14_8 1_555 1_555
C35_6 H22_6 1_555 1_555
C35_6 H23_6 1_555 1_555
C44_6 H24_6 1_555 1_555
C44_6 H25_8 1_555 1_555
C40_6 H26_6 1_555 1_555
C40_6 H27_6 1_555 1_555
C47_6 H30_6 1_555 1_555
Zn7_2 O4_8 1_555 1_555
Zn9_2 O2_8 1_555 1_555
O23_2 C25_8 1_555 1_555
O2_8 C27_8 1_555 1_555
O24_4 C26_8 1_555 1_555
O4_8 C21_8 1_555 1_555
O5_8 C38_8 1_555 1_555
O26_2 C25_8 1_555 1_555
O10_8 Zn9_2 1_555 1_555
O12_8 Zn9_2 1_555 1_555
O29_4 C26_8 1_555 1_555
O16_8 Zn9_2 1_555 1_555
C2_8 H1_8 1_555 1_555
N1_8 C27_8 1_555 1_555
C4_8 H3_8 1_555 1_555
C5_8 H4_8 1_555 1_555
C6_8 C2_8 1_555 1_555
C9_8 H6_8 1_555 1_555
C11_8 C4_8 1_555 1_555
C12_8 C11_8 1_555 1_555
H7_8 C12_8 1_555 1_555
C13_8 C6_8 1_555 1_555
H8_8 C13_8 1_555 1_555
C17_8 C5_8 1_555 1_555
C19_8 C9_8 1_555 1_555
C20_8 C4_8 1_555 1_555
C21_8 O10_8 1_555 1_555
C22_8 C2_8 1_555 1_555
C25_8 C6_8 1_555 1_555
C26_8 C22_8 1_555 1_555
C27_8 C48_8 1_555 1_555
C36_8 O16_8 1_555 1_555
N3_8 C36_8 1_555 1_555
C38_8 C11_8 1_555 1_555
C41_8 N3_8 1_555 1_555
C43_8 N3_8 1_555 1_555
C46_8 N1_8 1_555 1_555
C48_8 C49_8 1_555 1_555
C49_8 C46_8 1_555 1_555
C5_8 C20_8 1_555 1_555
C9_8 C22_8 1_555 1_555
C12_8 C17_8 1_555 1_555
C13_8 C19_8 1_555 1_555
C17_8 C19_8 1_555 1_555
C20_8 C21_8 1_555 1_555
C46_8 H17_8 1_555 1_555
C46_8 H18_8 1_555 1_555
C36_8 H19_8 1_555 1_555
C48_8 H20_8 1_555 1_555
C48_8 H21_8 1_555 1_555
C49_8 H28_8 1_555 1_555
C41_8 H35_8 1_555 1_555
C43_8 H50_8 1_555 1_555
C29_8 N2_8 1_555 1_555
N2_8 C1_8 1_555 1_555
C37_8 N2_8 1_555 1_555
C39_8 C1_8 1_555 1_555
C50_8 C29_8 1_555 1_555
C39_8 C50_8 1_555 1_555
C29_8 H15_8 1_555 1_555
C29_8 H16_8 1_555 1_555
C39_8 H33_8 1_555 1_555
C39_8 H34_8 1_555 1_555
C42_8 H39_8 1_555 1_555
C42_8 H40_8 1_555 1_555
C50_8 H41_8 1_555 1_555
C50_8 H42_8 1_555 1_555
C37_8 H43_8 1_555 1_555
C37_8 H44_8 1_555 1_555
C37_8 H45_8 1_555 1_555
O22_8 H46_8 1_555 1_555
O27_3 C28_8 1_555 1_555
O28_3 C28_8 1_555 1_555
C3_8 H2_8 1_555 1_555
C15_8 C3_8 1_555 1_555
C16_8 C15_8 1_555 1_555
H10_8 C16_8 1_555 1_555
C23_8 O9_8 1_555 1_555
C28_8 C30_8 1_555 1_555
C30_8 C16_8 1_555 1_555
C32_8 C30_8 1_555 1_555
H12_8 C32_8 1_555 1_555
C34_8 C3_8 1_555 1_555
O18_8 C23_8 1_555 1_555
C23_8 C34_8 1_555 1_555
C32_8 C34_8 1_555 1_555
O25_4 C33_8 1_555 1_555
O30_3 C24_8 1_555 1_555
O31_3 C24_8 1_555 1_555
C7_8 C8_8 1_555 1_555
C8_8 H5_8 1_555 1_555
C10_8 C8_8 1_555 1_555
C14_8 C10_8 1_555 1_555
H9_8 C14_8 1_555 1_555
C18_8 C7_8 1_555 1_555
H11_8 C18_8 1_555 1_555
C24_8 C31_8 1_555 1_555
O32_4 C33_8 1_555 1_555
C31_8 C14_8 1_555 1_555
C33_8 C10_8 1_555 1_555
C18_8 C31_8 1_555 1_555
C35_7 N4_7 1_555 1_555
N4_7 C45_7 1_555 1_555
C40_7 C35_7 1_555 1_555
C44_7 C40_7 1_555 1_555
C47_7 N4_7 1_555 1_555
C44_7 C45_7 1_555 1_555
C35_7 H22_7 1_555 1_555
C35_7 H23_7 1_555 1_555
C44_7 H24_7 1_555 1_555
C40_7 H26_7 1_555 1_555
C40_7 H27_7 1_555 1_555
C47_7 H30_7 1_555 1_555
C47_7 H31_7 1_555 1_555
C47_7 H32_7 1_555 1_555
C35_8 N4_8 1_555 1_555
N4_8 C45_8 1_555 1_555
C40_8 C35_8 1_555 1_555
C44_8 C40_8 1_555 1_555
C47_8 N4_8 1_555 1_555
C44_8 C45_8 1_555 1_555
C35_8 H22_8 1_555 1_555
C35_8 H23_8 1_555 1_555
C44_8 H24_8 1_555 1_555
C40_8 H26_8 1_555 1_555
C40_8 H27_8 1_555 1_555
C47_8 H30_8 1_555 1_555
C47_8 H31_8 1_555 1_555
C47_8 H32_8 1_555 1_555

#END
