
###############################################################################
#
# This file contains modified crystal structure data generated from the
# MOF subset of the Cambridge Structural Database (CSD) v543 
# hosted by the Cambridge Crystallographic Data Centre (CCDC).
#
# This work is licensed under the Creative Commons
# Attribution-NonCommercial-ShareAlike 4.0 International License.
# To view a copy of this license, visit
# http://creativecommons.org/licenses/by-nc-sa/4.0/
# or send a letter to
# Creative Commons, PO Box 1866, Mountain View, CA 94042, USA.
#
# CIF created using the CSD Python API on 29 September 2022
# The structure has been converted into the P1 space group
# The structure has a 3D framework
# The original CSD entry SITTUM is in the tetragonal crystal system
# The framework has been calculated to contain at least 10.0% void space
# The void calculation uses a probe of radius 1.32A, grid spacing 0.4
#
###############################################################################

data_SITTUM
_chemical_formula_moiety         '(C304 H384 N32 O108 Zn32)n'
_symmetry_cell_setting           triclinic
_symmetry_space_group_name_H-M   'P 1'
_symmetry_Int_Tables_number      1
_space_group_name_Hall           'P 1'
loop_
_symmetry_equiv_pos_site_id
_symmetry_equiv_pos_as_xyz
1 x,y,z
_cell_length_a                   27.150(7)
_cell_length_b                   27.150(7)
_cell_length_c                   13.122(3)
_cell_angle_alpha                90
_cell_angle_beta                 90
_cell_angle_gamma                90
_cell_volume                     9672.52
loop_
_atom_site_label
_atom_site_type_symbol
_atom_site_fract_x
_atom_site_fract_y
_atom_site_fract_z
Zn1 Zn 0.02485(3) 0.13802(3) 0.57299(7)
Zn2 Zn 0.08424(3) 0.11332(3) 0.38479(7)
C3 C 0.1756(2) 0.0059(3) 0.5845(6)
C4 C 0.1527(2) 0.0439(2) 0.5304(6)
C5 C 0.1186(2) 0.0742(2) 0.5820(6)
C6 C 0.1125(2) 0.0688(2) 0.6866(6)
C7 C 0.1356(2) 0.0297(3) 0.7396(6)
H5 H 0.1302 0.0255 0.8091
C8 C 0.0849(2) 0.1063(3) 0.7490(6)
H6 H 0.0880 0.0976 0.8204
H7 H 0.1005 0.1381 0.7397
C9 C 0.0073(2) 0.0627(2) 0.7425(6)
H8 H 0.0100 0.0550 0.8145
H9 H 0.0252 0.0376 0.7052
C12 C 0.1683(3) 0.0542(3) 0.4231(6)
H14 H 0.1830 0.0867 0.4208
H15 H 0.1937 0.0306 0.4045
C13 C 0.0096(2) 0.1513(3) 0.7875(6)
H17 H 0.0354 0.1745 0.8056
C15 C 0.1496(3) 0.0684(3) 0.2485(6)
H18 H 0.1274 0.0595 0.1937
H19 H 0.1805 0.0514 0.2371
C16 C 0.1584(4) 0.1227(4) 0.2455(7)
N1 N 0.03129(18) 0.11108(19) 0.7237(5)
N2 N 0.1286(2) 0.0519(2) 0.3456(5)
O1 O 0.09373(16) 0.10983(16) 0.5316(4)
O4 O 0.1918(3) 0.1388(3) 0.1918(7)
O5 O 0.1296(2) 0.1501(2) 0.3010(5)
O6 O 0.0189(2) 0.1036(2) 0.3309(5)
H36 H 0.0405 0.0151 0.2997
O16 O 0.07330(17) 0.21682(16) 0.6116(4)
O18 O 0.04710(17) 0.18941(17) 0.4641(4)
C1 C 0.1906(3) 0.9552(3) 0.7418(7)
H1 H 0.1913 0.9624 0.8134
H2 H 0.2237 0.9507 0.7175
H3 H 0.1721 0.9256 0.7303
C2 C 0.1671(2) 0.9969(2) 0.6860(7)
H4 H 0.1977 0.9857 0.5501
C29 C 0.0465(3) 0.9396(3) 0.2879(7)
H34 H 0.0502 0.9285 0.3577
H35 H 0.0656 0.9179 0.2444
C30 C 0.0659(3) 0.9922(3) 0.2783(8)
H37 H 0.0736 0.9990 0.2075
H40 H 0.0032 0.8627 0.1499
C33 C 0.0309(2) 0.8216(2) 0.2657(6)
C36 C 0.1100(3) 0.9997(3) 0.3403(7)
H44 H 0.1031 0.9886 0.4090
H45 H 0.1361 0.9791 0.3134
O9 O 0.03318(16) 0.82330(17) 0.3616(4)
O10 O 0.06059(17) 0.79710(17) 0.2141(4)
C37 C 0.0190(3) 0.9039(3) 0.6129(8)
C38 C 0.0644(3) 0.9192(5) 0.6694(9)
H46 H 0.0717 0.8953 0.7212
H47 H 0.0915 0.9213 0.6227
H48 H 0.0590 0.9507 0.7004
O14 O 0.0195(2) 0.8998(2) 0.5207(5)
Zn5 Zn 0.11198(3) 0.77485(3) 0.32299(7)
Zn7 Zn 0.13668(3) 0.83424(3) 0.13479(7)
C10 C 0.9535(3) 0.0604(3) 0.7121(7)
H10 H 0.9498 0.0715 0.6423
H11 H 0.9344 0.0821 0.7556
C11 C 0.9341(3) 0.0078(3) 0.7217(8)
H13 H 0.9264 0.0010 0.7925
H16 H 0.9968 0.1373 0.8501
C14 C 0.9691(2) 0.1784(2) 0.7343(6)
C17 C 0.9810(3) 0.0961(3) 0.3871(8)
C18 C 0.9356(3) 0.0808(5) 0.3306(9)
H20 H 0.9283 0.1047 0.2788
H21 H 0.9085 0.0787 0.3773
H22 H 0.9410 0.0493 0.2996
C19 C 0.8900(3) 0.0003(3) 0.6597(7)
H23 H 0.8969 0.0114 0.5910
H24 H 0.8639 0.0209 0.6866
O2 O 0.96682(16) 0.17670(17) 0.6384(4)
O3 O 0.93941(17) 0.20290(17) 0.7859(4)
O7 O 0.9805(2) 0.1002(2) 0.4793(5)
C20 C 0.8094(3) 0.0448(3) 0.2582(7)
H25 H 0.8087 0.0376 0.1866
H26 H 0.7763 0.0493 0.2825
H27 H 0.8279 0.0744 0.2697
C21 C 0.8329(2) 0.0031(2) 0.3140(7)
H28 H 0.8023 0.0143 0.4499
Zn6 Zn 0.88802(3) 0.22515(3) 0.67701(7)
Zn8 Zn 0.86332(3) 0.16576(3) 0.86521(7)
H12 H 0.9595 0.9849 0.7003
C22 C 0.8244(2) 0.9941(3) 0.4155(6)
C23 C 0.8473(2) 0.9561(2) 0.4696(6)
C24 C 0.8814(2) 0.9258(2) 0.4180(6)
C25 C 0.8875(2) 0.9312(2) 0.3134(6)
C26 C 0.8644(2) 0.9703(3) 0.2604(6)
H29 H 0.8698 0.9745 0.1909
C27 C 0.9151(2) 0.8937(3) 0.2510(6)
H30 H 0.9120 0.9024 0.1796
H31 H 0.8995 0.8619 0.2603
C28 C 0.9927(2) 0.9373(2) 0.2575(6)
H32 H 0.9900 0.9450 0.1855
H33 H 0.9748 0.9624 0.2948
C31 C 0.8317(3) 0.9458(3) 0.5769(6)
H38 H 0.8170 0.9133 0.5792
H39 H 0.8063 0.9694 0.5955
C32 C 0.9904(2) 0.8487(3) 0.2125(6)
H41 H 0.9646 0.8255 0.1944
C34 C 0.8504(3) 0.9316(3) 0.7515(6)
H42 H 0.8726 0.9405 0.8063
H43 H 0.8195 0.9486 0.7629
C35 C 0.8416(4) 0.8773(4) 0.7545(7)
N3 N 0.96871(18) 0.88892(19) 0.2763(5)
N4 N 0.8714(2) 0.9481(2) 0.6544(5)
O8 O 0.90627(16) 0.89017(16) 0.4684(4)
O11 O 0.8082(3) 0.8612(3) 0.8082(7)
O12 O 0.8704(2) 0.8499(2) 0.6990(5)
Zn3 Zn 0.97515(3) 0.86198(3) 0.42701(7)
Zn4 Zn 0.91576(3) 0.88668(3) 0.61521(7)
O13 O 0.9811(2) 0.8964(2) 0.6691(5)
O15 O 0.92670(17) 0.78318(16) 0.3884(4)
O17 O 0.95290(17) 0.81059(17) 0.5359(4)
C10_2 C 0.0465(3) 0.4396(3) 0.7121(7)
H10_2 H 0.0502 0.4285 0.6423
H11_2 H 0.0656 0.4179 0.7556
C11_2 C 0.0659(3) 0.4922(3) 0.7217(8)
H12_2 H 0.0405 0.5151 0.7003
H13_2 H 0.0736 0.4990 0.7925
H16_2 H 0.0032 0.3627 0.8501
C14_2 C 0.0309(2) 0.3216(2) 0.7343(6)
C17_2 C 0.0190(3) 0.4039(3) 0.3871(8)
C18_2 C 0.0644(3) 0.4192(5) 0.3306(9)
H20_2 H 0.0717 0.3953 0.2788
H21_2 H 0.0915 0.4213 0.3773
H22_2 H 0.0590 0.4507 0.2996
C19_2 C 0.1100(3) 0.4997(3) 0.6597(7)
H23_2 H 0.1031 0.4886 0.5910
H24_2 H 0.1361 0.4791 0.6866
O2_2 O 0.03318(16) 0.32330(17) 0.6384(4)
O3_2 O 0.06059(17) 0.29710(17) 0.7859(4)
O7_2 O 0.0195(2) 0.3998(2) 0.4793(5)
C20_2 C 0.1906(3) 0.4552(3) 0.2582(7)
H25_2 H 0.1913 0.4624 0.1866
H26_2 H 0.2237 0.4507 0.2825
H27_2 H 0.1721 0.4256 0.2697
C21_2 C 0.1671(2) 0.4969(2) 0.3140(7)
C22_2 C 0.1756(2) 0.5059(3) 0.4155(6)
H28_2 H 0.1977 0.4857 0.4499
C23_2 C 0.1527(2) 0.5439(2) 0.4696(6)
C24_2 C 0.1186(2) 0.5742(2) 0.4180(6)
C25_2 C 0.1125(2) 0.5688(2) 0.3134(6)
C26_2 C 0.1356(2) 0.5297(3) 0.2604(6)
H29_2 H 0.1302 0.5255 0.1909
C27_2 C 0.0849(2) 0.6063(3) 0.2510(6)
H30_2 H 0.0880 0.5976 0.1796
H31_2 H 0.1005 0.6381 0.2603
C28_2 C 0.0073(2) 0.5627(2) 0.2575(6)
H32_2 H 0.0100 0.5550 0.1855
H33_2 H 0.0252 0.5376 0.2948
C31_2 C 0.1683(3) 0.5542(3) 0.5769(6)
H38_2 H 0.1830 0.5867 0.5792
H39_2 H 0.1937 0.5306 0.5955
C32_2 C 0.0096(2) 0.6513(3) 0.2125(6)
H41_2 H 0.0354 0.6745 0.1944
C34_2 C 0.1496(3) 0.5684(3) 0.7515(6)
H42_2 H 0.1274 0.5595 0.8063
H43_2 H 0.1805 0.5514 0.7629
C35_2 C 0.1584(4) 0.6227(4) 0.7545(7)
N3_2 N 0.03129(18) 0.61108(19) 0.2763(5)
N4_2 N 0.1286(2) 0.5519(2) 0.6544(5)
O8_2 O 0.09373(16) 0.60983(16) 0.4684(4)
O11_2 O 0.1918(3) 0.6388(3) 0.8082(7)
O12_2 O 0.1296(2) 0.6501(2) 0.6990(5)
Zn3_2 Zn 0.02485(3) 0.63802(3) 0.42701(7)
Zn4_2 Zn 0.08424(3) 0.61332(3) 0.61521(7)
O13_2 O 0.0189(2) 0.6036(2) 0.6691(5)
Zn6_2 Zn 0.11198(3) 0.27485(3) 0.67701(7)
Zn8_2 Zn 0.13668(3) 0.33424(3) 0.86521(7)
O15_2 O 0.07330(17) 0.71682(16) 0.3884(4)
O17_2 O 0.04710(17) 0.68941(17) 0.5359(4)
Zn1_2 Zn 0.97515(3) 0.36198(3) 0.57299(7)
Zn2_2 Zn 0.91576(3) 0.38668(3) 0.38479(7)
C1_2 C 0.8094(3) 0.5448(3) 0.7418(7)
H1_2 H 0.8087 0.5376 0.8134
H2_2 H 0.7763 0.5493 0.7175
H3_2 H 0.8279 0.5744 0.7303
C2_2 C 0.8329(2) 0.5031(2) 0.6860(7)
C3_2 C 0.8244(2) 0.4941(3) 0.5845(6)
H4_2 H 0.8023 0.5143 0.5501
C4_2 C 0.8473(2) 0.4561(2) 0.5304(6)
C5_2 C 0.8814(2) 0.4258(2) 0.5820(6)
C6_2 C 0.8875(2) 0.4312(2) 0.6866(6)
C7_2 C 0.8644(2) 0.4703(3) 0.7396(6)
H5_2 H 0.8698 0.4745 0.8091
C8_2 C 0.9151(2) 0.3937(3) 0.7490(6)
H6_2 H 0.9120 0.4024 0.8204
H7_2 H 0.8995 0.3619 0.7397
C9_2 C 0.9927(2) 0.4373(2) 0.7425(6)
H8_2 H 0.9900 0.4450 0.8145
H9_2 H 0.9748 0.4624 0.7052
C12_2 C 0.8317(3) 0.4458(3) 0.4231(6)
H14_2 H 0.8170 0.4133 0.4208
H15_2 H 0.8063 0.4694 0.4045
C13_2 C 0.9904(2) 0.3487(3) 0.7875(6)
H17_2 H 0.9646 0.3255 0.8056
C15_2 C 0.8504(3) 0.4316(3) 0.2485(6)
H18_2 H 0.8726 0.4405 0.1937
H19_2 H 0.8195 0.4486 0.2371
C16_2 C 0.8416(4) 0.3773(4) 0.2455(7)
N1_2 N 0.96871(18) 0.38892(19) 0.7237(5)
N2_2 N 0.8714(2) 0.4481(2) 0.3456(5)
O1_2 O 0.90627(16) 0.39017(16) 0.5316(4)
O4_2 O 0.8082(3) 0.3612(3) 0.1918(7)
O5_2 O 0.8704(2) 0.3499(2) 0.3010(5)
O6_2 O 0.9811(2) 0.3964(2) 0.3309(5)
C29_2 C 0.9535(3) 0.5604(3) 0.2879(7)
H34_2 H 0.9498 0.5715 0.3577
H35_2 H 0.9344 0.5821 0.2444
C30_2 C 0.9341(3) 0.5078(3) 0.2783(8)
H36_2 H 0.9595 0.4849 0.2997
H37_2 H 0.9264 0.5010 0.2075
H40_2 H 0.9968 0.6373 0.1499
C33_2 C 0.9691(2) 0.6784(2) 0.2657(6)
C36_2 C 0.8900(3) 0.5003(3) 0.3403(7)
H44_2 H 0.8969 0.5114 0.4090
H45_2 H 0.8639 0.5209 0.3134
O9_2 O 0.96682(16) 0.67670(17) 0.3616(4)
O10_2 O 0.93941(17) 0.70290(17) 0.2141(4)
C37_2 C 0.9810(3) 0.5961(3) 0.6129(8)
C38_2 C 0.9356(3) 0.5808(5) 0.6694(9)
H46_2 H 0.9283 0.6047 0.7212
H47_2 H 0.9085 0.5787 0.6227
H48_2 H 0.9410 0.5493 0.7004
O14_2 O 0.9805(2) 0.6002(2) 0.5207(5)
Zn5_2 Zn 0.88802(3) 0.72515(3) 0.32299(7)
Zn7_2 Zn 0.86332(3) 0.66576(3) 0.13479(7)
O16_2 O 0.92670(17) 0.28318(16) 0.6116(4)
O18_2 O 0.95290(17) 0.31059(17) 0.4641(4)
Zn1_3 Zn 0.61198(3) 0.27485(3) 0.82299(7)
Zn2_3 Zn 0.63668(3) 0.33424(3) 0.63479(7)
C1_3 C 0.7948(3) 0.4406(3) 0.9918(7)
H2_3 H 0.7993 0.4737 0.9675
H3_3 H 0.8244 0.4221 0.9803
C2_3 C 0.7531(2) 0.4171(2) 0.9360(7)
C3_3 C 0.7441(3) 0.4256(2) 0.8345(6)
H4_3 H 0.7643 0.4477 0.8001
C4_3 C 0.7061(2) 0.4027(2) 0.7804(6)
C5_3 C 0.6758(2) 0.3686(2) 0.8320(6)
C6_3 C 0.6812(2) 0.3625(2) 0.9366(6)
C7_3 C 0.7203(3) 0.3856(2) 0.9896(6)
C8_3 C 0.6437(3) 0.3349(2) 0.9990(6)
H7_3 H 0.6119 0.3505 0.9897
C9_3 C 0.6873(2) 0.2573(2) 0.9925(6)
H9_3 H 0.7124 0.2752 0.9552
C10_3 C 0.6896(3) 0.2035(3) 0.9621(7)
H10_3 H 0.6785 0.1998 0.8923
C11_3 C 0.7422(3) 0.1841(3) 0.9717(8)
H12_3 H 0.7651 0.2095 0.9503
C12_3 C 0.6958(3) 0.4183(3) 0.6731(6)
H14_3 H 0.6633 0.4330 0.6708
H15_3 H 0.7194 0.4437 0.6545
C14_3 C 0.5716(2) 0.2191(2) 0.9843(6)
C15_3 C 0.6816(3) 0.3996(3) 0.4985(6)
H18_3 H 0.6905 0.3774 0.4437
H19_3 H 0.6986 0.4305 0.4871
C16_3 C 0.6273(4) 0.4084(4) 0.4955(7)
C17_3 C 0.6539(3) 0.2310(3) 0.6371(8)
C18_3 C 0.6692(5) 0.1856(3) 0.5806(9)
H20_3 H 0.6453 0.1783 0.5288
H21_3 H 0.6713 0.1585 0.6273
H22_3 H 0.7007 0.1910 0.5496
C19_3 C 0.7497(3) 0.1400(3) 0.9097(7)
H23_3 H 0.7386 0.1469 0.8410
H24_3 H 0.7291 0.1139 0.9366
N1_3 N 0.63892(19) 0.28129(18) 0.9737(5)
N2_3 N 0.6981(2) 0.3786(2) 0.5956(5)
O1_3 O 0.64017(16) 0.34373(16) 0.7816(4)
O2_3 O 0.57330(17) 0.21682(16) 0.8884(4)
O4_3 O 0.6112(3) 0.4418(3) 0.4418(7)
O5_3 O 0.5999(2) 0.3796(2) 0.5510(5)
O6_3 O 0.6464(2) 0.2689(2) 0.5809(5)
O7_3 O 0.6498(2) 0.2305(2) 0.7293(5)
C20_3 C 0.7052(3) 0.0594(3) 0.5082(7)
H25_3 H 0.7124 0.0587 0.4366
H26_3 H 0.7007 0.0263 0.5325
H27_3 H 0.6756 0.0779 0.5197
C21_3 C 0.7469(2) 0.0829(2) 0.5640(7)
C22_3 C 0.7559(3) 0.0744(2) 0.6655(6)
H28_3 H 0.7357 0.0523 0.6999
C23_3 C 0.7939(2) 0.0973(2) 0.7196(6)
C24_3 C 0.8242(2) 0.1314(2) 0.6680(6)
C25_3 C 0.8188(2) 0.1375(2) 0.5634(6)
C26_3 C 0.7797(3) 0.1144(2) 0.5104(6)
H29_3 H 0.7755 0.1198 0.4409
C27_3 C 0.8563(3) 0.1651(2) 0.5010(6)
H30_3 H 0.8476 0.1620 0.4296
H31_3 H 0.8881 0.1495 0.5103
C28_3 C 0.8127(2) 0.2427(2) 0.5075(6)
H32_3 H 0.8050 0.2400 0.4355
H33_3 H 0.7876 0.2248 0.5448
C29_3 C 0.8104(3) 0.2965(3) 0.5379(7)
H34_3 H 0.8215 0.3002 0.6077
H35_3 H 0.8321 0.3156 0.4944
C30_3 C 0.7578(3) 0.3159(3) 0.5283(8)
H36_3 H 0.7349 0.2905 0.5497
H37_3 H 0.7510 0.3236 0.4575
C31_3 C 0.8042(3) 0.0817(3) 0.8269(6)
H38_3 H 0.8367 0.0670 0.8292
H39_3 H 0.7806 0.0563 0.8455
C32_3 C 0.9013(3) 0.2404(2) 0.4625(6)
H40_3 H 0.8873 0.2532 0.3999
H41_3 H 0.9245 0.2146 0.4444
C33_3 C 0.9284(2) 0.2809(2) 0.5157(6)
C36_3 C 0.7503(3) 0.3600(3) 0.5903(7)
H44_3 H 0.7614 0.3531 0.6590
H45_3 H 0.7709 0.3861 0.5634
N3_3 N 0.86108(19) 0.21871(18) 0.5263(5)
N4_3 N 0.8019(2) 0.1214(2) 0.9044(5)
O8_3 O 0.85983(16) 0.15627(16) 0.7184(4)
O12_3 O 0.9001(2) 0.1204(2) 0.9490(5)
C37_3 C 0.8461(3) 0.2690(3) 0.8629(8)
C38_3 C 0.8308(5) 0.3144(3) 0.9194(9)
H46_3 H 0.8547 0.3217 0.9712
H47_3 H 0.8287 0.3415 0.8727
H48_3 H 0.7993 0.3090 0.9504
O13_3 O 0.8536(2) 0.2311(2) 0.9191(5)
O14_3 O 0.8502(2) 0.2695(2) 0.7707(5)
Zn6_3 Zn 0.52485(3) 0.13802(3) 0.92701(7)
O16_3 O 0.53318(16) 0.32330(17) 0.8616(4)
O18_3 O 0.56059(17) 0.29710(17) 0.7141(4)
H1_3 H 0.2124 0.0587 0.0634
H5_3 H 0.2755 0.1198 0.0591
H6_3 H 0.3476 0.1620 0.0704
H8_3 H 0.3050 0.2400 0.0645
H11_3 H 0.3321 0.3156 0.0056
H13_3 H 0.2510 0.3236 0.0425
C13_3 C 0.4013(3) 0.2404(2) 0.0375(6)
H16_3 H 0.3873 0.2532 0.1001
H17_3 H 0.4245 0.2146 0.0556
O3_3 O 0.45290(17) 0.31059(17) 0.0359(4)
C34_3 C 0.1816(3) 0.3996(3) 0.0015(6)
H42_3 H 0.1905 0.3774 0.0563
H43_3 H 0.1986 0.4305 0.0129
C35_3 C 0.1273(4) 0.4084(4) 0.0045(7)
O11_3 O 0.1112(3) 0.4418(3) 0.0582(7)
Zn8_3 Zn 0.41576(3) 0.38668(3) 0.11521(7)
Zn1_4 Zn 0.38802(3) 0.22515(3) 0.82299(7)
Zn2_4 Zn 0.36332(3) 0.16576(3) 0.63479(7)
C1_4 C 0.2052(3) 0.0594(3) 0.9918(7)
H2_4 H 0.2007 0.0263 0.9675
H3_4 H 0.1756 0.0779 0.9803
C2_4 C 0.2469(2) 0.0829(2) 0.9360(7)
C3_4 C 0.2559(3) 0.0744(2) 0.8345(6)
H4_4 H 0.2357 0.0523 0.8001
C4_4 C 0.2939(2) 0.0973(2) 0.7804(6)
C5_4 C 0.3242(2) 0.1314(2) 0.8320(6)
C6_4 C 0.3188(2) 0.1375(2) 0.9366(6)
C7_4 C 0.2797(3) 0.1144(2) 0.9896(6)
C8_4 C 0.3563(3) 0.1651(2) 0.9990(6)
H7_4 H 0.3881 0.1495 0.9897
C9_4 C 0.3127(2) 0.2427(2) 0.9925(6)
H9_4 H 0.2876 0.2248 0.9552
C10_4 C 0.3104(3) 0.2965(3) 0.9621(7)
H10_4 H 0.3215 0.3002 0.8923
C11_4 C 0.2578(3) 0.3159(3) 0.9717(8)
H12_4 H 0.2349 0.2905 0.9503
C12_4 C 0.3042(3) 0.0817(3) 0.6731(6)
H14_4 H 0.3367 0.0670 0.6708
H15_4 H 0.2806 0.0563 0.6545
C14_4 C 0.4284(2) 0.2809(2) 0.9843(6)
C15_4 C 0.3184(3) 0.1004(3) 0.4985(6)
H18_4 H 0.3095 0.1226 0.4437
H19_4 H 0.3014 0.0695 0.4871
C16_4 C 0.3727(4) 0.0916(4) 0.4955(7)
C17_4 C 0.3461(3) 0.2690(3) 0.6371(8)
C18_4 C 0.3308(5) 0.3144(3) 0.5806(9)
H20_4 H 0.3547 0.3217 0.5288
H21_4 H 0.3287 0.3415 0.6273
H22_4 H 0.2993 0.3090 0.5496
C19_4 C 0.2503(3) 0.3600(3) 0.9097(7)
H23_4 H 0.2614 0.3531 0.8410
H24_4 H 0.2709 0.3861 0.9366
N1_4 N 0.36108(19) 0.21871(18) 0.9737(5)
N2_4 N 0.3019(2) 0.1214(2) 0.5956(5)
O1_4 O 0.35983(16) 0.15627(16) 0.7816(4)
O2_4 O 0.42670(17) 0.28318(16) 0.8884(4)
O4_4 O 0.3888(3) 0.0582(3) 0.4418(7)
O5_4 O 0.4001(2) 0.1204(2) 0.5510(5)
O6_4 O 0.3536(2) 0.2311(2) 0.5809(5)
O7_4 O 0.3502(2) 0.2695(2) 0.7293(5)
C20_4 C 0.2948(3) 0.4406(3) 0.5082(7)
H25_4 H 0.2876 0.4413 0.4366
H26_4 H 0.2993 0.4737 0.5325
H27_4 H 0.3244 0.4221 0.5197
C21_4 C 0.2531(2) 0.4171(2) 0.5640(7)
C22_4 C 0.2441(3) 0.4256(2) 0.6655(6)
H28_4 H 0.2643 0.4477 0.6999
C23_4 C 0.2061(2) 0.4027(2) 0.7196(6)
C24_4 C 0.1758(2) 0.3686(2) 0.6680(6)
C25_4 C 0.1812(2) 0.3625(2) 0.5634(6)
C26_4 C 0.2203(3) 0.3856(2) 0.5104(6)
H29_4 H 0.2245 0.3802 0.4409
C27_4 C 0.1437(3) 0.3349(2) 0.5010(6)
H30_4 H 0.1524 0.3380 0.4296
H31_4 H 0.1119 0.3505 0.5103
C28_4 C 0.1873(2) 0.2573(2) 0.5075(6)
H32_4 H 0.1950 0.2600 0.4355
H33_4 H 0.2124 0.2752 0.5448
C29_4 C 0.1896(3) 0.2035(3) 0.5379(7)
H34_4 H 0.1785 0.1998 0.6077
H35_4 H 0.1679 0.1844 0.4944
C30_4 C 0.2422(3) 0.1841(3) 0.5283(8)
H36_4 H 0.2651 0.2095 0.5497
H37_4 H 0.2490 0.1764 0.4575
C31_4 C 0.1958(3) 0.4183(3) 0.8269(6)
H38_4 H 0.1633 0.4330 0.8292
H39_4 H 0.2194 0.4437 0.8455
C32_4 C 0.0987(3) 0.2596(2) 0.4625(6)
H40_4 H 0.1127 0.2468 0.3999
H41_4 H 0.0755 0.2854 0.4444
C33_4 C 0.0716(2) 0.2191(2) 0.5157(6)
C36_4 C 0.2497(3) 0.1400(3) 0.5903(7)
H44_4 H 0.2386 0.1469 0.6590
H45_4 H 0.2291 0.1139 0.5634
N3_4 N 0.13892(19) 0.28129(18) 0.5263(5)
N4_4 N 0.1981(2) 0.3786(2) 0.9044(5)
O8_4 O 0.14017(16) 0.34373(16) 0.7184(4)
O12_4 O 0.0999(2) 0.3796(2) 0.9490(5)
C37_4 C 0.1539(3) 0.2310(3) 0.8629(8)
C38_4 C 0.1692(5) 0.1856(3) 0.9194(9)
H46_4 H 0.1453 0.1783 0.9712
H47_4 H 0.1713 0.1585 0.8727
H48_4 H 0.2007 0.1910 0.9504
O13_4 O 0.1464(2) 0.2689(2) 0.9191(5)
O14_4 O 0.1498(2) 0.2305(2) 0.7707(5)
Zn6_4 Zn 0.47515(3) 0.36198(3) 0.92701(7)
O16_4 O 0.46682(16) 0.17670(17) 0.8616(4)
O18_4 O 0.43941(17) 0.20290(17) 0.7141(4)
Zn1_5 Zn 0.52485(3) 0.63802(3) 0.07299(7)
C1_5 C 0.6906(3) 0.4552(3) 0.2418(7)
H1_4 H 0.6913 0.4624 0.3134
H2_5 H 0.7237 0.4507 0.2175
H3_5 H 0.6721 0.4256 0.2303
C2_5 C 0.6671(2) 0.4969(2) 0.1860(7)
C3_5 C 0.6756(2) 0.5059(3) 0.0845(6)
H4_5 H 0.6977 0.4857 0.0501
C4_5 C 0.6527(2) 0.5439(2) 0.0304(6)
C5_5 C 0.6186(2) 0.5742(2) 0.0820(6)
C6_5 C 0.6125(2) 0.5688(2) 0.1866(6)
C7_5 C 0.6356(2) 0.5297(3) 0.2396(6)
H5_4 H 0.6302 0.5255 0.3091
C8_5 C 0.5849(2) 0.6063(3) 0.2490(6)
H6_4 H 0.5880 0.5976 0.3204
H7_5 H 0.6005 0.6381 0.2397
C9_5 C 0.5073(2) 0.5627(2) 0.2425(6)
H8_4 H 0.5100 0.5550 0.3145
H9_5 H 0.5252 0.5376 0.2052
C10_5 C 0.4535(3) 0.5604(3) 0.2121(7)
H10_5 H 0.4498 0.5715 0.1423
H11_4 H 0.4344 0.5821 0.2556
C11_5 C 0.4341(3) 0.5078(3) 0.2217(8)
H12_5 H 0.4595 0.4849 0.2003
H13_4 H 0.4264 0.5010 0.2925
C13_4 C 0.5096(2) 0.6513(3) 0.2875(6)
H16_4 H 0.4968 0.6373 0.3501
H17_4 H 0.5354 0.6745 0.3056
C14_5 C 0.4691(2) 0.6784(2) 0.2343(6)
C19_5 C 0.3900(3) 0.5003(3) 0.1597(7)
H23_5 H 0.3969 0.5114 0.0910
H24_5 H 0.3639 0.5209 0.1866
N1_5 N 0.53129(18) 0.61108(19) 0.2237(5)
O1_5 O 0.59373(16) 0.60983(16) 0.0316(4)
O2_5 O 0.46682(16) 0.67670(17) 0.1384(4)
O3_4 O 0.43941(17) 0.70290(17) 0.2859(4)
C31_5 C 0.3317(3) 0.4458(3) 0.0769(6)
H38_5 H 0.3170 0.4133 0.0792
H39_5 H 0.3063 0.4694 0.0955
C34_4 C 0.3504(3) 0.4316(3) 0.2515(6)
H42_4 H 0.3726 0.4405 0.3063
H43_4 H 0.3195 0.4486 0.2629
C35_4 C 0.3416(4) 0.3773(4) 0.2545(7)
N4_5 N 0.3714(2) 0.4481(2) 0.1544(5)
O11_4 O 0.3082(3) 0.3612(3) 0.3082(7)
O12_5 O 0.3704(2) 0.3499(2) 0.1990(5)
C37_5 C 0.5190(3) 0.4039(3) 0.1129(8)
C38_5 C 0.5644(3) 0.4192(5) 0.1694(9)
H46_5 H 0.5717 0.3953 0.2212
H47_5 H 0.5915 0.4213 0.1227
H48_5 H 0.5590 0.4507 0.2004
O13_5 O 0.4811(2) 0.3964(2) 0.1691(5)
O14_5 O 0.5195(2) 0.3998(2) 0.0207(5)
Zn6_5 Zn 0.38802(3) 0.72515(3) 0.17701(7)
Zn8_4 Zn 0.36332(3) 0.66576(3) 0.36521(7)
O16_5 O 0.57330(17) 0.71682(16) 0.1116(4)
Zn2_5 Zn 0.58424(3) 0.61332(3) 0.88479(7)
C12_5 C 0.6683(3) 0.5542(3) 0.9231(6)
H14_5 H 0.6830 0.5867 0.9208
H15_5 H 0.6937 0.5306 0.9045
C15_5 C 0.6496(3) 0.5684(3) 0.7485(6)
H18_5 H 0.6274 0.5595 0.6937
H19_5 H 0.6805 0.5514 0.7371
C16_5 C 0.6584(4) 0.6227(4) 0.7455(7)
C17_5 C 0.4810(3) 0.5961(3) 0.8871(8)
C18_5 C 0.4356(3) 0.5808(5) 0.8306(9)
H20_5 H 0.4283 0.6047 0.7788
H21_5 H 0.4085 0.5787 0.8773
H22_5 H 0.4410 0.5493 0.7996
N2_5 N 0.6286(2) 0.5519(2) 0.8456(5)
O4_5 O 0.6918(3) 0.6388(3) 0.6918(7)
O5_5 O 0.6296(2) 0.6501(2) 0.8010(5)
O6_5 O 0.5189(2) 0.6036(2) 0.8309(5)
O7_5 O 0.4805(2) 0.6002(2) 0.9793(5)
C20_5 C 0.3094(3) 0.5448(3) 0.7582(7)
H25_5 H 0.3087 0.5376 0.6866
H26_5 H 0.2763 0.5493 0.7825
H27_5 H 0.3279 0.5744 0.7697
C21_5 C 0.3329(2) 0.5031(2) 0.8140(7)
C22_5 C 0.3244(2) 0.4941(3) 0.9155(6)
H28_5 H 0.3023 0.5143 0.9499
C23_5 C 0.3473(2) 0.4561(2) 0.9696(6)
C24_5 C 0.3814(2) 0.4258(2) 0.9180(6)
C25_5 C 0.3875(2) 0.4312(2) 0.8134(6)
C26_5 C 0.3644(2) 0.4703(3) 0.7604(6)
H29_5 H 0.3698 0.4745 0.6909
C27_5 C 0.4151(2) 0.3937(3) 0.7510(6)
H30_5 H 0.4120 0.4024 0.6796
H31_5 H 0.3995 0.3619 0.7603
C28_5 C 0.4927(2) 0.4373(2) 0.7575(6)
H32_5 H 0.4900 0.4450 0.6855
H33_5 H 0.4748 0.4624 0.7948
C29_5 C 0.5465(3) 0.4396(3) 0.7879(7)
H34_5 H 0.5502 0.4285 0.8577
H35_5 H 0.5656 0.4179 0.7444
C30_5 C 0.5659(3) 0.4922(3) 0.7783(8)
H36_5 H 0.5405 0.5151 0.7997
H37_5 H 0.5736 0.4990 0.7075
C32_5 C 0.4904(2) 0.3487(3) 0.7125(6)
H40_5 H 0.5032 0.3627 0.6499
H41_5 H 0.4646 0.3255 0.6944
C33_5 C 0.5309(2) 0.3216(2) 0.7657(6)
C36_5 C 0.6100(3) 0.4997(3) 0.8403(7)
H44_5 H 0.6031 0.4886 0.9090
H45_5 H 0.6361 0.4791 0.8134
N3_5 N 0.46871(18) 0.38892(19) 0.7763(5)
O8_5 O 0.40627(16) 0.39017(16) 0.9684(4)
O18_5 O 0.54710(17) 0.68941(17) 0.9641(4)
C22_6 C 0.6756(2) 0.0059(3) 0.9155(6)
C23_6 C 0.6527(2) 0.0439(2) 0.9696(6)
C24_6 C 0.6186(2) 0.0742(2) 0.9180(6)
C25_6 C 0.6125(2) 0.0688(2) 0.8134(6)
C26_6 C 0.6356(2) 0.0297(3) 0.7604(6)
H29_6 H 0.6302 0.0255 0.6909
C27_6 C 0.5849(2) 0.1063(3) 0.7510(6)
H30_6 H 0.5880 0.0976 0.6796
H31_6 H 0.6005 0.1381 0.7603
C28_6 C 0.5073(2) 0.0627(2) 0.7575(6)
H32_6 H 0.5100 0.0550 0.6855
H33_6 H 0.5252 0.0376 0.7948
C29_6 C 0.4535(3) 0.0604(3) 0.7879(7)
H34_6 H 0.4498 0.0715 0.8577
H35_6 H 0.4344 0.0821 0.7444
C30_6 C 0.4341(3) 0.0078(3) 0.7783(8)
H37_6 H 0.4264 0.0010 0.7075
C32_6 C 0.5096(2) 0.1513(3) 0.7125(6)
H40_6 H 0.4968 0.1373 0.6499
H41_6 H 0.5354 0.1745 0.6944
C33_6 C 0.4691(2) 0.1784(2) 0.7657(6)
C36_6 C 0.3900(3) 0.0003(3) 0.8403(7)
H44_6 H 0.3969 0.0114 0.9090
H45_6 H 0.3639 0.0209 0.8134
N3_6 N 0.53129(18) 0.11108(19) 0.7763(5)
O8_6 O 0.59373(16) 0.10983(16) 0.9684(4)
Zn1_6 Zn 0.47515(3) 0.86198(3) 0.07299(7)
C3_6 C 0.3244(2) 0.9941(3) 0.0845(6)
C4_6 C 0.3473(2) 0.9561(2) 0.0304(6)
C5_6 C 0.3814(2) 0.9258(2) 0.0820(6)
C6_6 C 0.3875(2) 0.9312(2) 0.1866(6)
C7_6 C 0.3644(2) 0.9703(3) 0.2396(6)
H5_5 H 0.3698 0.9745 0.3091
C8_6 C 0.4151(2) 0.8937(3) 0.2490(6)
H6_5 H 0.4120 0.9024 0.3204
H7_6 H 0.3995 0.8619 0.2397
C9_6 C 0.4927(2) 0.9373(2) 0.2425(6)
H8_5 H 0.4900 0.9450 0.3145
H9_6 H 0.4748 0.9624 0.2052
C10_6 C 0.5465(3) 0.9396(3) 0.2121(7)
H10_6 H 0.5502 0.9285 0.1423
H11_5 H 0.5656 0.9179 0.2556
C11_6 C 0.5659(3) 0.9922(3) 0.2217(8)
H13_5 H 0.5736 0.9990 0.2925
C13_5 C 0.4904(2) 0.8487(3) 0.2875(6)
H16_5 H 0.5032 0.8627 0.3501
H17_5 H 0.4646 0.8255 0.3056
C14_6 C 0.5309(2) 0.8216(2) 0.2343(6)
C19_6 C 0.6100(3) 0.9997(3) 0.1597(7)
H23_6 H 0.6031 0.9886 0.0910
H24_6 H 0.6361 0.9791 0.1866
N1_6 N 0.46871(18) 0.88892(19) 0.2237(5)
O1_6 O 0.40627(16) 0.89017(16) 0.0316(4)
O2_6 O 0.53318(16) 0.82330(17) 0.1384(4)
O3_5 O 0.56059(17) 0.79710(17) 0.2859(4)
Zn6_6 Zn 0.61198(3) 0.77485(3) 0.17701(7)
Zn8_5 Zn 0.63668(3) 0.83424(3) 0.36521(7)
O16_6 O 0.42670(17) 0.78318(16) 0.1116(4)
C1_6 C 0.2948(3) 0.9406(3) 0.4918(7)
H1_5 H 0.2876 0.9413 0.5634
H2_6 H 0.2993 0.9737 0.4675
H3_6 H 0.3244 0.9221 0.4803
C2_6 C 0.2531(2) 0.9171(2) 0.4360(7)
C3_7 C 0.2441(3) 0.9256(2) 0.3345(6)
H4_6 H 0.2643 0.9477 0.3001
C4_7 C 0.2061(2) 0.9027(2) 0.2804(6)
C5_7 C 0.1758(2) 0.8686(2) 0.3320(6)
C6_7 C 0.1812(2) 0.8625(2) 0.4366(6)
C7_7 C 0.2203(3) 0.8856(2) 0.4896(6)
H5_6 H 0.2245 0.8802 0.5591
C8_7 C 0.1437(3) 0.8349(2) 0.4990(6)
H6_6 H 0.1524 0.8380 0.5704
H7_7 H 0.1119 0.8505 0.4897
C9_7 C 0.1873(2) 0.7573(2) 0.4925(6)
H8_6 H 0.1950 0.7600 0.5645
H9_7 H 0.2124 0.7752 0.4552
C10_7 C 0.1896(3) 0.7035(3) 0.4621(7)
H10_7 H 0.1785 0.6998 0.3923
H11_6 H 0.1679 0.6844 0.5056
C11_7 C 0.2422(3) 0.6841(3) 0.4717(8)
H12_6 H 0.2651 0.7095 0.4503
H13_6 H 0.2490 0.6764 0.5425
C12_6 C 0.1958(3) 0.9183(3) 0.1731(6)
H14_6 H 0.1633 0.9330 0.1708
H15_6 H 0.2194 0.9437 0.1545
C13_6 C 0.0987(3) 0.7596(2) 0.5375(6)
H16_6 H 0.1127 0.7468 0.6001
H17_6 H 0.0755 0.7854 0.5556
C14_7 C 0.0716(2) 0.7191(2) 0.4843(6)
C17_6 C 0.1539(3) 0.7310(3) 0.1371(8)
C18_6 C 0.1692(5) 0.6856(3) 0.0806(9)
H20_6 H 0.1453 0.6783 0.0288
H21_6 H 0.1713 0.6585 0.1273
H22_6 H 0.2007 0.6910 0.0496
C19_7 C 0.2497(3) 0.6400(3) 0.4097(7)
H23_7 H 0.2386 0.6469 0.3410
H24_7 H 0.2291 0.6139 0.4366
N1_7 N 0.13892(19) 0.78129(18) 0.4737(5)
N2_6 N 0.1981(2) 0.8786(2) 0.0956(5)
O1_7 O 0.14017(16) 0.84373(16) 0.2816(4)
O5_6 O 0.0999(2) 0.8796(2) 0.0510(5)
O6_6 O 0.1464(2) 0.7689(2) 0.0809(5)
O7_6 O 0.1498(2) 0.7305(2) 0.2293(5)
C20_6 C 0.2052(3) 0.5594(3) 0.0082(7)
H26_6 H 0.2007 0.5263 0.0325
H27_6 H 0.1756 0.5779 0.0197
C21_6 C 0.2469(2) 0.5829(2) 0.0640(7)
C22_7 C 0.2559(3) 0.5744(2) 0.1655(6)
H28_6 H 0.2357 0.5523 0.1999
C23_7 C 0.2939(2) 0.5973(2) 0.2196(6)
C24_7 C 0.3242(2) 0.6314(2) 0.1680(6)
C25_7 C 0.3188(2) 0.6375(2) 0.0634(6)
C26_7 C 0.2797(3) 0.6144(2) 0.0104(6)
C27_7 C 0.3563(3) 0.6651(2) 0.0010(6)
H31_7 H 0.3881 0.6495 0.0103
C28_7 C 0.3127(2) 0.7427(2) 0.0075(6)
H33_7 H 0.2876 0.7248 0.0448
C29_7 C 0.3104(3) 0.7965(3) 0.0379(7)
H34_7 H 0.3215 0.8002 0.1077
C30_7 C 0.2578(3) 0.8159(3) 0.0283(8)
H36_6 H 0.2349 0.7905 0.0497
C31_6 C 0.3042(3) 0.5817(3) 0.3269(6)
H38_6 H 0.3367 0.5670 0.3292
H39_6 H 0.2806 0.5563 0.3455
C33_7 C 0.4284(2) 0.7809(2) 0.0157(6)
C34_5 C 0.3184(3) 0.6004(3) 0.5015(6)
H42_5 H 0.3095 0.6226 0.5563
H43_5 H 0.3014 0.5695 0.5129
C35_5 C 0.3727(4) 0.5916(4) 0.5045(7)
C36_7 C 0.2503(3) 0.8600(3) 0.0903(7)
H44_7 H 0.2614 0.8531 0.1590
H45_7 H 0.2709 0.8861 0.0634
N3_7 N 0.36108(19) 0.71871(18) 0.0263(5)
N4_6 N 0.3019(2) 0.6214(2) 0.4044(5)
O8_7 O 0.35983(16) 0.65627(16) 0.2184(4)
O11_5 O 0.3888(3) 0.5582(3) 0.5582(7)
O12_6 O 0.4001(2) 0.6204(2) 0.4490(5)
C37_6 C 0.3461(3) 0.7690(3) 0.3629(8)
C38_6 C 0.3308(5) 0.8144(3) 0.4194(9)
H46_6 H 0.3547 0.8217 0.4712
H47_6 H 0.3287 0.8415 0.3727
H48_6 H 0.2993 0.8090 0.4504
O13_6 O 0.3536(2) 0.7311(2) 0.4191(5)
O14_6 O 0.3502(2) 0.7695(2) 0.2707(5)
C1_7 C 0.7052(3) 0.5594(3) 0.4918(7)
H1_6 H 0.7124 0.5587 0.5634
H2_7 H 0.7007 0.5263 0.4675
H3_7 H 0.6756 0.5779 0.4803
C2_7 C 0.7469(2) 0.5829(2) 0.4360(7)
C3_8 C 0.7559(3) 0.5744(2) 0.3345(6)
H4_7 H 0.7357 0.5523 0.3001
C4_8 C 0.7939(2) 0.5973(2) 0.2804(6)
C5_8 C 0.8242(2) 0.6314(2) 0.3320(6)
C6_8 C 0.8188(2) 0.6375(2) 0.4366(6)
C7_8 C 0.7797(3) 0.6144(2) 0.4896(6)
H5_7 H 0.7755 0.6198 0.5591
C8_8 C 0.8563(3) 0.6651(2) 0.4990(6)
H6_7 H 0.8476 0.6620 0.5704
H7_8 H 0.8881 0.6495 0.4897
C9_8 C 0.8127(2) 0.7427(2) 0.4925(6)
H8_7 H 0.8050 0.7400 0.5645
H9_8 H 0.7876 0.7248 0.4552
C10_8 C 0.8104(3) 0.7965(3) 0.4621(7)
H10_8 H 0.8215 0.8002 0.3923
H11_7 H 0.8321 0.8156 0.5056
C11_8 C 0.7578(3) 0.8159(3) 0.4717(8)
H12_7 H 0.7349 0.7905 0.4503
H13_7 H 0.7510 0.8236 0.5425
C12_7 C 0.8042(3) 0.5817(3) 0.1731(6)
H14_7 H 0.8367 0.5670 0.1708
H15_7 H 0.7806 0.5563 0.1545
C13_7 C 0.9013(3) 0.7404(2) 0.5375(6)
H16_7 H 0.8873 0.7532 0.6001
H17_7 H 0.9245 0.7146 0.5556
C14_8 C 0.9284(2) 0.7809(2) 0.4843(6)
C17_7 C 0.8461(3) 0.7690(3) 0.1371(8)
C18_7 C 0.8308(5) 0.8144(3) 0.0806(9)
H20_7 H 0.8547 0.8217 0.0288
H21_7 H 0.8287 0.8415 0.1273
H22_7 H 0.7993 0.8090 0.0496
C19_8 C 0.7503(3) 0.8600(3) 0.4097(7)
H23_8 H 0.7614 0.8531 0.3410
H24_8 H 0.7709 0.8861 0.4366
N1_8 N 0.86108(19) 0.71871(18) 0.4737(5)
N2_7 N 0.8019(2) 0.6214(2) 0.0956(5)
O1_8 O 0.85983(16) 0.65627(16) 0.2816(4)
O5_7 O 0.9001(2) 0.6204(2) 0.0510(5)
O6_7 O 0.8536(2) 0.7311(2) 0.0809(5)
O7_7 O 0.8502(2) 0.7695(2) 0.2293(5)
C20_7 C 0.7948(3) 0.9406(3) 0.0082(7)
H26_7 H 0.7993 0.9737 0.0325
H27_7 H 0.8244 0.9221 0.0197
C21_7 C 0.7531(2) 0.9171(2) 0.0640(7)
C22_8 C 0.7441(3) 0.9256(2) 0.1655(6)
H28_7 H 0.7643 0.9477 0.1999
C23_8 C 0.7061(2) 0.9027(2) 0.2196(6)
C24_8 C 0.6758(2) 0.8686(2) 0.1680(6)
C25_8 C 0.6812(2) 0.8625(2) 0.0634(6)
C26_8 C 0.7203(3) 0.8856(2) 0.0104(6)
C27_8 C 0.6437(3) 0.8349(2) 0.0010(6)
H31_8 H 0.6119 0.8505 0.0103
C28_8 C 0.6873(2) 0.7573(2) 0.0075(6)
H33_8 H 0.7124 0.7752 0.0448
C29_8 C 0.6896(3) 0.7035(3) 0.0379(7)
H34_8 H 0.6785 0.6998 0.1077
C30_8 C 0.7422(3) 0.6841(3) 0.0283(8)
H36_7 H 0.7651 0.7095 0.0497
C31_7 C 0.6958(3) 0.9183(3) 0.3269(6)
H38_7 H 0.6633 0.9330 0.3292
H39_7 H 0.7194 0.9437 0.3455
C33_8 C 0.5716(2) 0.7191(2) 0.0157(6)
C34_6 C 0.6816(3) 0.8996(3) 0.5015(6)
H42_6 H 0.6905 0.8774 0.5563
H43_6 H 0.6986 0.9305 0.5129
C35_6 C 0.6273(4) 0.9084(4) 0.5045(7)
C36_8 C 0.7497(3) 0.6400(3) 0.0903(7)
H44_8 H 0.7386 0.6469 0.1590
H45_8 H 0.7291 0.6139 0.0634
N3_8 N 0.63892(19) 0.78129(18) 0.0263(5)
N4_7 N 0.6981(2) 0.8786(2) 0.4044(5)
O8_8 O 0.64017(16) 0.84373(16) 0.2184(4)
O11_6 O 0.6112(3) 0.9418(3) 0.5582(7)
O12_7 O 0.5999(2) 0.8796(2) 0.4490(5)
C37_7 C 0.6539(3) 0.7310(3) 0.3629(8)
C38_7 C 0.6692(5) 0.6856(3) 0.4194(9)
H46_7 H 0.6453 0.6783 0.4712
H47_7 H 0.6713 0.6585 0.3727
H48_7 H 0.7007 0.6910 0.4504
O13_7 O 0.6464(2) 0.7689(2) 0.4191(5)
O14_7 O 0.6498(2) 0.7305(2) 0.2707(5)
C15_6 C 0.8184(3) 0.6004(3) 0.9985(6)
H18_6 H 0.8095 0.6226 0.9437
H19_6 H 0.8014 0.5695 0.9871
C16_6 C 0.8727(4) 0.5916(4) 0.9955(7)
O4_6 O 0.8888(3) 0.5582(3) 0.9418(7)
H25_6 H 0.7876 0.9413 0.9366
H29_7 H 0.7245 0.8802 0.9409
H30_7 H 0.6524 0.8380 0.9296
H32_7 H 0.6950 0.7600 0.9355
H35_7 H 0.6679 0.6844 0.9944
H37_7 H 0.7490 0.6764 0.9575
C32_7 C 0.5987(3) 0.7596(2) 0.9625(6)
H40_7 H 0.6127 0.7468 0.8999
H41_7 H 0.5755 0.7854 0.9444
H1_7 H 0.7876 0.4413 0.0634
H5_8 H 0.7245 0.3802 0.0591
H6_8 H 0.6524 0.3380 0.0704
H8_8 H 0.6950 0.2600 0.0645
H11_8 H 0.6679 0.1844 0.0056
H13_8 H 0.7490 0.1764 0.0425
C13_8 C 0.5987(3) 0.2596(2) 0.0375(6)
H16_8 H 0.6127 0.2468 0.1001
H17_8 H 0.5755 0.2854 0.0556
O3_6 O 0.54710(17) 0.18941(17) 0.0359(4)
C34_7 C 0.8184(3) 0.1004(3) 0.0015(6)
H42_7 H 0.8095 0.1226 0.0563
H43_7 H 0.8014 0.0695 0.0129
C35_7 C 0.8727(4) 0.0916(4) 0.0045(7)
O11_7 O 0.8888(3) 0.0582(3) 0.0582(7)
Zn8_6 Zn 0.58424(3) 0.11332(3) 0.11521(7)
C1_8 C 0.3094(3) 0.0448(3) 0.2418(7)
H1_8 H 0.3087 0.0376 0.3134
H2_8 H 0.2763 0.0493 0.2175
H3_8 H 0.3279 0.0744 0.2303
C2_8 C 0.3329(2) 0.0031(2) 0.1860(7)
H4_8 H 0.3023 0.0143 0.0501
H12_8 H 0.5405 0.0151 0.2003
C31_8 C 0.6683(3) 0.0542(3) 0.0769(6)
H38_8 H 0.6830 0.0867 0.0792
H39_8 H 0.6937 0.0306 0.0955
C34_8 C 0.6496(3) 0.0684(3) 0.2515(6)
H42_8 H 0.6274 0.0595 0.3063
H43_8 H 0.6805 0.0514 0.2629
C35_8 C 0.6584(4) 0.1227(4) 0.2545(7)
N4_8 N 0.6286(2) 0.0519(2) 0.1544(5)
O11_8 O 0.6918(3) 0.1388(3) 0.3082(7)
O12_8 O 0.6296(2) 0.1501(2) 0.1990(5)
C37_8 C 0.4810(3) 0.0961(3) 0.1129(8)
C38_8 C 0.4356(3) 0.0808(5) 0.1694(9)
H46_8 H 0.4283 0.1047 0.2212
H47_8 H 0.4085 0.0787 0.1227
H48_8 H 0.4410 0.0493 0.2004
O13_8 O 0.5189(2) 0.1036(2) 0.1691(5)
O14_8 O 0.4805(2) 0.1002(2) 0.0207(5)
Zn2_6 Zn 0.41576(3) 0.88668(3) 0.88479(7)
C12_8 C 0.3317(3) 0.9458(3) 0.9231(6)
H14_8 H 0.3170 0.9133 0.9208
H15_8 H 0.3063 0.9694 0.9045
C15_7 C 0.3504(3) 0.9316(3) 0.7485(6)
H18_7 H 0.3726 0.9405 0.6937
H19_7 H 0.3195 0.9486 0.7371
C16_7 C 0.3416(4) 0.8773(4) 0.7455(7)
C17_8 C 0.5190(3) 0.9039(3) 0.8871(8)
C18_8 C 0.5644(3) 0.9192(5) 0.8306(9)
H20_8 H 0.5717 0.8953 0.7788
H21_8 H 0.5915 0.9213 0.8773
H22_8 H 0.5590 0.9507 0.7996
N2_8 N 0.3714(2) 0.9481(2) 0.8456(5)
O4_7 O 0.3082(3) 0.8612(3) 0.6918(7)
O5_8 O 0.3704(2) 0.8499(2) 0.8010(5)
O6_8 O 0.4811(2) 0.8964(2) 0.8309(5)
O7_8 O 0.5195(2) 0.8998(2) 0.9793(5)
C20_8 C 0.6906(3) 0.9552(3) 0.7582(7)
H25_7 H 0.6913 0.9624 0.6866
H26_8 H 0.7237 0.9507 0.7825
H27_8 H 0.6721 0.9256 0.7697
C21_8 C 0.6671(2) 0.9969(2) 0.8140(7)
H28_8 H 0.6977 0.9857 0.9499
H36_8 H 0.4595 0.9849 0.7997
O18_6 O 0.45290(17) 0.81059(17) 0.9641(4)
C15_8 C 0.1816(3) 0.8996(3) 0.9985(6)
H18_8 H 0.1905 0.8774 0.9437
H19_8 H 0.1986 0.9305 0.9871
C16_8 C 0.1273(4) 0.9084(4) 0.9955(7)
O4_8 O 0.1112(3) 0.9418(3) 0.9418(7)
H25_8 H 0.2124 0.5587 0.9366
H29_8 H 0.2755 0.6198 0.9409
H30_8 H 0.3476 0.6620 0.9296
H32_8 H 0.3050 0.7400 0.9355
H35_8 H 0.3321 0.8156 0.9944
H37_8 H 0.2510 0.8236 0.9575
C32_8 C 0.4013(3) 0.7404(2) 0.9625(6)
H40_8 H 0.3873 0.7532 0.8999
H41_8 H 0.4245 0.7146 0.9444
loop_
_geom_bond_atom_site_label_1
_geom_bond_atom_site_label_2
_geom_bond_site_symmetry_1
_geom_bond_site_symmetry_2
Zn1 N1 1_555 1_555
Zn2 N2 1_555 1_555
C4 C3 1_555 1_555
C5 C4 1_555 1_555
C6 C5 1_555 1_555
H5 C7 1_555 1_555
C8 C6 1_555 1_555
H6 C8 1_555 1_555
H7 C8 1_555 1_555
C9 H8 1_555 1_555
H9 C9 1_555 1_555
C12 C4 1_555 1_555
H14 C12 1_555 1_555
H15 C12 1_555 1_555
H17 C13 1_555 1_555
C15 H18 1_555 1_555
H19 C15 1_555 1_555
C16 C15 1_555 1_555
N1 C8 1_555 1_555
N2 C12 1_555 1_555
O1 Zn1 1_555 1_555
O4 C16 1_555 1_555
O5 Zn2 1_555 1_555
O6 Zn2 1_555 1_555
O16 Zn1 1_555 1_555
O18 Zn1 1_555 1_555
Zn2 O1 1_555 1_555
Zn2 O18 1_555 1_555
C5 O1 1_555 1_555
C6 C7 1_555 1_555
C9 N1 1_555 1_555
C13 N1 1_555 1_555
C15 N2 1_555 1_555
C16 O5 1_555 1_555
C1 H1 1_555 1_555
H2 C1 1_555 1_555
H3 C1 1_555 1_555
C2 C1 1_555 1_555
H34 C29 1_555 1_555
H35 C29 1_555 1_555
C30 C29 1_555 1_555
H37 C30 1_555 1_555
H44 C36 1_555 1_555
H45 C36 1_555 1_555
O9 C33 1_555 1_555
O10 C33 1_555 1_555
C37 C38 1_555 1_555
C38 H46 1_555 1_555
H47 C38 1_555 1_555
H48 C38 1_555 1_555
Zn5 O9 1_555 1_555
Zn7 O10 1_555 1_555
C30 C36 1_555 1_555
O10 Zn5 1_555 1_555
C37 O14 1_555 1_555
H10 C10 1_555 1_555
H11 C10 1_555 1_555
C11 C10 1_555 1_555
H13 C11 1_555 1_555
C17 C18 1_555 1_555
C18 H20 1_555 1_555
H21 C18 1_555 1_555
H22 C18 1_555 1_555
C19 C11 1_555 1_555
H23 C19 1_555 1_555
H24 C19 1_555 1_555
O3 C14 1_555 1_555
C20 H25 1_555 1_555
H26 C20 1_555 1_555
H27 C20 1_555 1_555
C21 C20 1_555 1_555
Zn6 O2 1_555 1_555
Zn8 O3 1_555 1_555
C14 O2 1_555 1_555
C17 O7 1_555 1_555
O3 Zn6 1_555 1_555
C23 C22 1_555 1_555
C24 C23 1_555 1_555
C25 C24 1_555 1_555
H29 C26 1_555 1_555
C27 C25 1_555 1_555
H30 C27 1_555 1_555
H31 C27 1_555 1_555
C28 H32 1_555 1_555
H33 C28 1_555 1_555
C31 C23 1_555 1_555
H38 C31 1_555 1_555
H39 C31 1_555 1_555
H41 C32 1_555 1_555
C34 H42 1_555 1_555
H43 C34 1_555 1_555
C35 C34 1_555 1_555
N3 C27 1_555 1_555
O8 C24 1_555 1_555
O11 C35 1_555 1_555
O12 C35 1_555 1_555
Zn3 N3 1_555 1_555
Zn4 N4 1_555 1_555
O13 Zn4 1_555 1_555
O15 Zn3 1_555 1_555
O17 Zn3 1_555 1_555
C25 C26 1_555 1_555
C28 N3 1_555 1_555
C31 N4 1_555 1_555
C32 N3 1_555 1_555
C34 N4 1_555 1_555
O8 Zn3 1_555 1_555
O8 Zn4 1_555 1_555
O12 Zn4 1_555 1_555
Zn4 O17 1_555 1_555
H10_2 C10_2 1_555 1_555
H11_2 C10_2 1_555 1_555
C11_2 C10_2 1_555 1_555
H12_2 C11_2 1_555 1_555
H13_2 C11_2 1_555 1_555
C17_2 C18_2 1_555 1_555
C18_2 H20_2 1_555 1_555
H21_2 C18_2 1_555 1_555
H22_2 C18_2 1_555 1_555
C19_2 C11_2 1_555 1_555
H23_2 C19_2 1_555 1_555
H24_2 C19_2 1_555 1_555
O3_2 C14_2 1_555 1_555
C20_2 H25_2 1_555 1_555
H26_2 C20_2 1_555 1_555
H27_2 C20_2 1_555 1_555
C21_2 C20_2 1_555 1_555
C22_2 C21_2 1_555 1_555
H28_2 C22_2 1_555 1_555
C23_2 C22_2 1_555 1_555
C24_2 C23_2 1_555 1_555
C25_2 C24_2 1_555 1_555
C26_2 C21_2 1_555 1_555
H29_2 C26_2 1_555 1_555
C27_2 C25_2 1_555 1_555
H30_2 C27_2 1_555 1_555
H31_2 C27_2 1_555 1_555
C28_2 H32_2 1_555 1_555
H33_2 C28_2 1_555 1_555
C31_2 C23_2 1_555 1_555
H38_2 C31_2 1_555 1_555
H39_2 C31_2 1_555 1_555
H41_2 C32_2 1_555 1_555
C34_2 H42_2 1_555 1_555
H43_2 C34_2 1_555 1_555
C35_2 C34_2 1_555 1_555
N3_2 C27_2 1_555 1_555
N4_2 C19_2 1_555 1_555
O8_2 C24_2 1_555 1_555
O11_2 C35_2 1_555 1_555
O12_2 C35_2 1_555 1_555
Zn3_2 N3_2 1_555 1_555
Zn4_2 N4_2 1_555 1_555
O13_2 Zn4_2 1_555 1_555
Zn6_2 O2_2 1_555 1_555
Zn8_2 O3_2 1_555 1_555
O15_2 Zn3_2 1_555 1_555
O17_2 Zn3_2 1_555 1_555
C14_2 O2_2 1_555 1_555
C17_2 O7_2 1_555 1_555
O3_2 Zn6_2 1_555 1_555
C25_2 C26_2 1_555 1_555
C28_2 N3_2 1_555 1_555
C31_2 N4_2 1_555 1_555
C32_2 N3_2 1_555 1_555
C34_2 N4_2 1_555 1_555
O8_2 Zn3_2 1_555 1_555
O8_2 Zn4_2 1_555 1_555
O12_2 Zn4_2 1_555 1_555
Zn4_2 O17_2 1_555 1_555
Zn1_2 N1_2 1_555 1_555
Zn2_2 N2_2 1_555 1_555
C1_2 H1_2 1_555 1_555
H2_2 C1_2 1_555 1_555
H3_2 C1_2 1_555 1_555
C2_2 C1_2 1_555 1_555
C3_2 C2_2 1_555 1_555
H4_2 C3_2 1_555 1_555
C4_2 C3_2 1_555 1_555
C5_2 C4_2 1_555 1_555
C6_2 C5_2 1_555 1_555
C7_2 C2_2 1_555 1_555
H5_2 C7_2 1_555 1_555
C8_2 C6_2 1_555 1_555
H6_2 C8_2 1_555 1_555
H7_2 C8_2 1_555 1_555
C9_2 H8_2 1_555 1_555
H9_2 C9_2 1_555 1_555
C12_2 C4_2 1_555 1_555
H14_2 C12_2 1_555 1_555
H15_2 C12_2 1_555 1_555
H17_2 C13_2 1_555 1_555
C15_2 H18_2 1_555 1_555
H19_2 C15_2 1_555 1_555
C16_2 C15_2 1_555 1_555
N1_2 C8_2 1_555 1_555
N2_2 C12_2 1_555 1_555
O1_2 Zn1_2 1_555 1_555
O4_2 C16_2 1_555 1_555
O5_2 Zn2_2 1_555 1_555
O6_2 Zn2_2 1_555 1_555
H34_2 C29_2 1_555 1_555
H35_2 C29_2 1_555 1_555
C30_2 C29_2 1_555 1_555
H36_2 C30_2 1_555 1_555
H37_2 C30_2 1_555 1_555
C36_2 N2_2 1_555 1_555
H44_2 C36_2 1_555 1_555
H45_2 C36_2 1_555 1_555
O9_2 C33_2 1_555 1_555
O10_2 C33_2 1_555 1_555
C37_2 C38_2 1_555 1_555
C38_2 H46_2 1_555 1_555
H47_2 C38_2 1_555 1_555
H48_2 C38_2 1_555 1_555
Zn5_2 O9_2 1_555 1_555
Zn7_2 O10_2 1_555 1_555
O16_2 Zn1_2 1_555 1_555
O18_2 Zn1_2 1_555 1_555
Zn2_2 O1_2 1_555 1_555
Zn2_2 O18_2 1_555 1_555
C5_2 O1_2 1_555 1_555
C6_2 C7_2 1_555 1_555
C9_2 N1_2 1_555 1_555
C13_2 N1_2 1_555 1_555
C15_2 N2_2 1_555 1_555
C16_2 O5_2 1_555 1_555
C30_2 C36_2 1_555 1_555
O10_2 Zn5_2 1_555 1_555
C37_2 O14_2 1_555 1_555
Zn1_3 N1_3 1_555 1_555
Zn2_3 N2_3 1_555 1_555
H2_3 C1_3 1_555 1_555
H3_3 C1_3 1_555 1_555
C2_3 C1_3 1_555 1_555
C3_3 C2_3 1_555 1_555
H4_3 C3_3 1_555 1_555
C4_3 C3_3 1_555 1_555
C5_3 C4_3 1_555 1_555
C6_3 C5_3 1_555 1_555
C7_3 C2_3 1_555 1_555
C8_3 C6_3 1_555 1_555
H7_3 C8_3 1_555 1_555
H9_3 C9_3 1_555 1_555
C10_3 C9_3 1_555 1_555
H10_3 C10_3 1_555 1_555
C11_3 C10_3 1_555 1_555
H12_3 C11_3 1_555 1_555
C12_3 C4_3 1_555 1_555
H14_3 C12_3 1_555 1_555
H15_3 C12_3 1_555 1_555
C15_3 H18_3 1_555 1_555
H19_3 C15_3 1_555 1_555
C16_3 C15_3 1_555 1_555
C17_3 C18_3 1_555 1_555
C18_3 H20_3 1_555 1_555
H21_3 C18_3 1_555 1_555
H22_3 C18_3 1_555 1_555
C19_3 C11_3 1_555 1_555
H23_3 C19_3 1_555 1_555
H24_3 C19_3 1_555 1_555
N1_3 C8_3 1_555 1_555
N2_3 C12_3 1_555 1_555
O1_3 Zn1_3 1_555 1_555
O2_3 Zn1_3 1_555 1_555
O4_3 C16_3 1_555 1_555
O5_3 Zn2_3 1_555 1_555
O6_3 Zn2_3 1_555 1_555
O7_3 Zn1_3 1_555 1_555
C20_3 H25_3 1_555 1_555
H26_3 C20_3 1_555 1_555
H27_3 C20_3 1_555 1_555
C21_3 C20_3 1_555 1_555
C22_3 C21_3 1_555 1_555
H28_3 C22_3 1_555 1_555
C23_3 C22_3 1_555 1_555
C24_3 C23_3 1_555 1_555
C25_3 C24_3 1_555 1_555
C26_3 C21_3 1_555 1_555
H29_3 C26_3 1_555 1_555
C27_3 C25_3 1_555 1_555
H30_3 C27_3 1_555 1_555
H31_3 C27_3 1_555 1_555
C28_3 H32_3 1_555 1_555
H33_3 C28_3 1_555 1_555
C29_3 C28_3 1_555 1_555
H34_3 C29_3 1_555 1_555
H35_3 C29_3 1_555 1_555
C30_3 C29_3 1_555 1_555
H36_3 C30_3 1_555 1_555
H37_3 C30_3 1_555 1_555
C31_3 C23_3 1_555 1_555
H38_3 C31_3 1_555 1_555
H39_3 C31_3 1_555 1_555
C32_3 H40_3 1_555 1_555
H41_3 C32_3 1_555 1_555
C33_3 C32_3 1_555 1_555
C36_3 N2_3 1_555 1_555
H44_3 C36_3 1_555 1_555
H45_3 C36_3 1_555 1_555
N3_3 C27_3 1_555 1_555
N4_3 C19_3 1_555 1_555
O8_3 C24_3 1_555 1_555
O16_2 C33_3 1_555 1_555
O18_2 C33_3 1_555 1_555
Zn6 N3_3 1_555 1_555
Zn8 N4_3 1_555 1_555
C37_3 C38_3 1_555 1_555
C38_3 H46_3 1_555 1_555
H47_3 C38_3 1_555 1_555
H48_3 C38_3 1_555 1_555
O13_3 Zn8 1_555 1_555
O14_3 Zn6 1_555 1_555
Zn6_3 O2_3 1_555 1_555
O16_3 Zn1_3 1_555 1_555
O18_3 Zn1_3 1_555 1_555
Zn2_3 O1_3 1_555 1_555
Zn2_3 O18_3 1_555 1_555
C5_3 O1_3 1_555 1_555
C6_3 C7_3 1_555 1_555
C9_3 N1_3 1_555 1_555
C14_3 O2_3 1_555 1_555
C15_3 N2_3 1_555 1_555
C16_3 O5_3 1_555 1_555
C17_3 O6_3 1_555 1_555
C17_3 O7_3 1_555 1_555
C25_3 C26_3 1_555 1_555
C28_3 N3_3 1_555 1_555
C30_3 C36_3 1_555 1_555
C31_3 N4_3 1_555 1_555
C32_3 N3_3 1_555 1_555
O8_3 Zn6 1_555 1_555
O8_3 Zn8 1_555 1_555
O16_2 Zn6 1_555 1_555
O12_3 Zn8 1_555 1_555
C37_3 O13_3 1_555 1_555
C37_3 O14_3 1_555 1_555
C13_3 H16_3 1_555 1_555
H17_3 C13_3 1_555 1_555
C34_3 H42_3 1_555 1_555
H43_3 C34_3 1_555 1_555
C35_3 C34_3 1_555 1_555
O11_3 C35_3 1_555 1_555
Zn8_3 O3_3 1_555 1_555
Zn1_4 N1_4 1_555 1_555
Zn2_4 N2_4 1_555 1_555
H2_4 C1_4 1_555 1_555
H3_4 C1_4 1_555 1_555
C2_4 C1_4 1_555 1_555
C3_4 C2_4 1_555 1_555
H4_4 C3_4 1_555 1_555
C4_4 C3_4 1_555 1_555
C5_4 C4_4 1_555 1_555
C6_4 C5_4 1_555 1_555
C7_4 C2_4 1_555 1_555
C8_4 C6_4 1_555 1_555
H7_4 C8_4 1_555 1_555
H9_4 C9_4 1_555 1_555
C10_4 C9_4 1_555 1_555
H10_4 C10_4 1_555 1_555
C11_4 C10_4 1_555 1_555
H12_4 C11_4 1_555 1_555
C12_4 C4_4 1_555 1_555
H14_4 C12_4 1_555 1_555
H15_4 C12_4 1_555 1_555
C15_4 H18_4 1_555 1_555
H19_4 C15_4 1_555 1_555
C16_4 C15_4 1_555 1_555
C17_4 C18_4 1_555 1_555
C18_4 H20_4 1_555 1_555
H21_4 C18_4 1_555 1_555
H22_4 C18_4 1_555 1_555
C19_4 C11_4 1_555 1_555
H23_4 C19_4 1_555 1_555
H24_4 C19_4 1_555 1_555
N1_4 C8_4 1_555 1_555
N2_4 C12_4 1_555 1_555
O1_4 Zn1_4 1_555 1_555
O2_4 Zn1_4 1_555 1_555
O4_4 C16_4 1_555 1_555
O5_4 Zn2_4 1_555 1_555
O6_4 Zn2_4 1_555 1_555
O7_4 Zn1_4 1_555 1_555
C20_4 H25_4 1_555 1_555
H26_4 C20_4 1_555 1_555
H27_4 C20_4 1_555 1_555
C21_4 C20_4 1_555 1_555
C22_4 C21_4 1_555 1_555
H28_4 C22_4 1_555 1_555
C23_4 C22_4 1_555 1_555
C24_4 C23_4 1_555 1_555
C25_4 C24_4 1_555 1_555
C26_4 C21_4 1_555 1_555
H29_4 C26_4 1_555 1_555
C27_4 C25_4 1_555 1_555
H30_4 C27_4 1_555 1_555
H31_4 C27_4 1_555 1_555
C28_4 H32_4 1_555 1_555
H33_4 C28_4 1_555 1_555
C29_4 C28_4 1_555 1_555
H34_4 C29_4 1_555 1_555
H35_4 C29_4 1_555 1_555
C30_4 C29_4 1_555 1_555
H36_4 C30_4 1_555 1_555
H37_4 C30_4 1_555 1_555
C31_4 C23_4 1_555 1_555
H38_4 C31_4 1_555 1_555
H39_4 C31_4 1_555 1_555
C32_4 H40_4 1_555 1_555
H41_4 C32_4 1_555 1_555
C33_4 C32_4 1_555 1_555
C36_4 N2_4 1_555 1_555
H44_4 C36_4 1_555 1_555
H45_4 C36_4 1_555 1_555
N3_4 C27_4 1_555 1_555
N4_4 C19_4 1_555 1_555
O8_4 C24_4 1_555 1_555
O16 C33_4 1_555 1_555
O18 C33_4 1_555 1_555
Zn6_2 N3_4 1_555 1_555
Zn8_2 N4_4 1_555 1_555
C37_4 C38_4 1_555 1_555
C38_4 H46_4 1_555 1_555
H47_4 C38_4 1_555 1_555
H48_4 C38_4 1_555 1_555
O13_4 Zn8_2 1_555 1_555
O14_4 Zn6_2 1_555 1_555
Zn6_4 O2_4 1_555 1_555
O16_4 Zn1_4 1_555 1_555
O18_4 Zn1_4 1_555 1_555
Zn2_4 O1_4 1_555 1_555
Zn2_4 O18_4 1_555 1_555
C5_4 O1_4 1_555 1_555
C6_4 C7_4 1_555 1_555
C9_4 N1_4 1_555 1_555
C14_4 O2_4 1_555 1_555
C15_4 N2_4 1_555 1_555
C16_4 O5_4 1_555 1_555
C17_4 O6_4 1_555 1_555
C17_4 O7_4 1_555 1_555
C25_4 C26_4 1_555 1_555
C28_4 N3_4 1_555 1_555
C30_4 C36_4 1_555 1_555
C31_4 N4_4 1_555 1_555
C32_4 N3_4 1_555 1_555
O8_4 Zn6_2 1_555 1_555
O8_4 Zn8_2 1_555 1_555
O16 Zn6_2 1_555 1_555
O12_4 Zn8_2 1_555 1_555
C37_4 O13_4 1_555 1_555
C37_4 O14_4 1_555 1_555
Zn1_5 N1_5 1_555 1_555
C1_5 H1_4 1_555 1_555
H2_5 C1_5 1_555 1_555
H3_5 C1_5 1_555 1_555
C2_5 C1_5 1_555 1_555
C3_5 C2_5 1_555 1_555
H4_5 C3_5 1_555 1_555
C4_5 C3_5 1_555 1_555
C5_5 C4_5 1_555 1_555
C6_5 C5_5 1_555 1_555
C7_5 C2_5 1_555 1_555
H5_4 C7_5 1_555 1_555
C8_5 C6_5 1_555 1_555
H6_4 C8_5 1_555 1_555
H7_5 C8_5 1_555 1_555
C9_5 H8_4 1_555 1_555
H9_5 C9_5 1_555 1_555
C10_5 C9_5 1_555 1_555
H10_5 C10_5 1_555 1_555
H11_4 C10_5 1_555 1_555
C11_5 C10_5 1_555 1_555
H12_5 C11_5 1_555 1_555
H13_4 C11_5 1_555 1_555
C13_4 H16_4 1_555 1_555
H17_4 C13_4 1_555 1_555
C14_5 C13_4 1_555 1_555
C19_5 C11_5 1_555 1_555
H23_5 C19_5 1_555 1_555
H24_5 C19_5 1_555 1_555
N1_5 C8_5 1_555 1_555
O1_5 Zn1_5 1_555 1_555
O2_5 Zn1_5 1_555 1_555
O3_4 C14_5 1_555 1_555
H38_5 C31_5 1_555 1_555
H39_5 C31_5 1_555 1_555
C34_4 H42_4 1_555 1_555
H43_4 C34_4 1_555 1_555
C35_4 C34_4 1_555 1_555
N4_5 C19_5 1_555 1_555
O11_4 C35_4 1_555 1_555
O12_5 C35_4 1_555 1_555
Zn8_3 N4_5 1_555 1_555
C37_5 C38_5 1_555 1_555
C38_5 H46_5 1_555 1_555
H47_5 C38_5 1_555 1_555
H48_5 C38_5 1_555 1_555
O13_5 Zn8_3 1_555 1_555
Zn6_5 O2_5 1_555 1_555
Zn8_4 O3_4 1_555 1_555
O16_5 Zn1_5 1_555 1_555
C5_5 O1_5 1_555 1_555
C6_5 C7_5 1_555 1_555
C9_5 N1_5 1_555 1_555
C13_4 N1_5 1_555 1_555
C14_5 O2_5 1_555 1_555
O3_4 Zn6_5 1_555 1_555
C31_5 N4_5 1_555 1_555
C34_4 N4_5 1_555 1_555
O12_5 Zn8_3 1_555 1_555
C37_5 O13_5 1_555 1_555
C37_5 O14_5 1_555 1_555
Zn2_5 N2_5 1_555 1_555
H14_5 C12_5 1_555 1_555
H15_5 C12_5 1_555 1_555
C15_5 H18_5 1_555 1_555
H19_5 C15_5 1_555 1_555
C16_5 C15_5 1_555 1_555
C17_5 C18_5 1_555 1_555
C18_5 H20_5 1_555 1_555
H21_5 C18_5 1_555 1_555
H22_5 C18_5 1_555 1_555
N2_5 C12_5 1_555 1_555
O4_5 C16_5 1_555 1_555
O5_5 Zn2_5 1_555 1_555
O6_5 Zn2_5 1_555 1_555
C20_5 H25_5 1_555 1_555
H26_5 C20_5 1_555 1_555
H27_5 C20_5 1_555 1_555
C21_5 C20_5 1_555 1_555
C22_5 C21_5 1_555 1_555
H28_5 C22_5 1_555 1_555
C23_5 C22_5 1_555 1_555
C24_5 C23_5 1_555 1_555
C25_5 C24_5 1_555 1_555
C26_5 C21_5 1_555 1_555
H29_5 C26_5 1_555 1_555
C27_5 C25_5 1_555 1_555
H30_5 C27_5 1_555 1_555
H31_5 C27_5 1_555 1_555
C28_5 H32_5 1_555 1_555
H33_5 C28_5 1_555 1_555
C29_5 C28_5 1_555 1_555
H34_5 C29_5 1_555 1_555
H35_5 C29_5 1_555 1_555
C30_5 C29_5 1_555 1_555
H36_5 C30_5 1_555 1_555
H37_5 C30_5 1_555 1_555
C32_5 H40_5 1_555 1_555
H41_5 C32_5 1_555 1_555
C33_5 C32_5 1_555 1_555
C36_5 N2_5 1_555 1_555
H44_5 C36_5 1_555 1_555
H45_5 C36_5 1_555 1_555
N3_5 C27_5 1_555 1_555
O8_5 C24_5 1_555 1_555
O16_3 C33_5 1_555 1_555
O18_3 C33_5 1_555 1_555
Zn6_4 N3_5 1_555 1_555
Zn2_5 O18_5 1_555 1_555
C15_5 N2_5 1_555 1_555
C16_5 O5_5 1_555 1_555
C17_5 O6_5 1_555 1_555
C17_5 O7_5 1_555 1_555
C25_5 C26_5 1_555 1_555
C28_5 N3_5 1_555 1_555
C30_5 C36_5 1_555 1_555
C32_5 N3_5 1_555 1_555
O8_5 Zn6_4 1_555 1_555
O16_3 Zn6_4 1_555 1_555
C23_6 C22_6 1_555 1_555
C24_6 C23_6 1_555 1_555
C25_6 C24_6 1_555 1_555
H29_6 C26_6 1_555 1_555
C27_6 C25_6 1_555 1_555
H30_6 C27_6 1_555 1_555
H31_6 C27_6 1_555 1_555
C28_6 H32_6 1_555 1_555
H33_6 C28_6 1_555 1_555
C29_6 C28_6 1_555 1_555
H34_6 C29_6 1_555 1_555
H35_6 C29_6 1_555 1_555
C30_6 C29_6 1_555 1_555
H37_6 C30_6 1_555 1_555
C32_6 H40_6 1_555 1_555
H41_6 C32_6 1_555 1_555
C33_6 C32_6 1_555 1_555
H44_6 C36_6 1_555 1_555
H45_6 C36_6 1_555 1_555
N3_6 C27_6 1_555 1_555
O8_6 C24_6 1_555 1_555
O16_4 C33_6 1_555 1_555
O18_4 C33_6 1_555 1_555
Zn6_3 N3_6 1_555 1_555
C25_6 C26_6 1_555 1_555
C28_6 N3_6 1_555 1_555
C30_6 C36_6 1_555 1_555
C32_6 N3_6 1_555 1_555
O8_6 Zn6_3 1_555 1_555
O16_4 Zn6_3 1_555 1_555
Zn1_6 N1_6 1_555 1_555
C4_6 C3_6 1_555 1_555
C5_6 C4_6 1_555 1_555
C6_6 C5_6 1_555 1_555
H5_5 C7_6 1_555 1_555
C8_6 C6_6 1_555 1_555
H6_5 C8_6 1_555 1_555
H7_6 C8_6 1_555 1_555
C9_6 H8_5 1_555 1_555
H9_6 C9_6 1_555 1_555
C10_6 C9_6 1_555 1_555
H10_6 C10_6 1_555 1_555
H11_5 C10_6 1_555 1_555
C11_6 C10_6 1_555 1_555
H13_5 C11_6 1_555 1_555
C13_5 H16_5 1_555 1_555
H17_5 C13_5 1_555 1_555
C14_6 C13_5 1_555 1_555
C19_6 C11_6 1_555 1_555
H23_6 C19_6 1_555 1_555
H24_6 C19_6 1_555 1_555
N1_6 C8_6 1_555 1_555
O1_6 Zn1_6 1_555 1_555
O2_6 Zn1_6 1_555 1_555
O3_5 C14_6 1_555 1_555
Zn6_6 O2_6 1_555 1_555
Zn8_5 O3_5 1_555 1_555
O16_6 Zn1_6 1_555 1_555
C5_6 O1_6 1_555 1_555
C6_6 C7_6 1_555 1_555
C9_6 N1_6 1_555 1_555
C13_5 N1_6 1_555 1_555
C14_6 O2_6 1_555 1_555
O3_5 Zn6_6 1_555 1_555
Zn5 N1_7 1_555 1_555
Zn7 N2_6 1_555 1_555
C1_6 H1_5 1_555 1_555
H2_6 C1_6 1_555 1_555
H3_6 C1_6 1_555 1_555
C2_6 C1_6 1_555 1_555
C3_7 C2_6 1_555 1_555
H4_6 C3_7 1_555 1_555
C4_7 C3_7 1_555 1_555
C5_7 C4_7 1_555 1_555
C6_7 C5_7 1_555 1_555
C7_7 C2_6 1_555 1_555
H5_6 C7_7 1_555 1_555
C8_7 C6_7 1_555 1_555
H6_6 C8_7 1_555 1_555
H7_7 C8_7 1_555 1_555
C9_7 H8_6 1_555 1_555
H9_7 C9_7 1_555 1_555
C10_7 C9_7 1_555 1_555
H10_7 C10_7 1_555 1_555
H11_6 C10_7 1_555 1_555
C11_7 C10_7 1_555 1_555
H12_6 C11_7 1_555 1_555
H13_6 C11_7 1_555 1_555
C12_6 C4_7 1_555 1_555
H14_6 C12_6 1_555 1_555
H15_6 C12_6 1_555 1_555
C13_6 H16_6 1_555 1_555
H17_6 C13_6 1_555 1_555
C14_7 C13_6 1_555 1_555
C17_6 C18_6 1_555 1_555
C18_6 H20_6 1_555 1_555
H21_6 C18_6 1_555 1_555
H22_6 C18_6 1_555 1_555
C19_7 C11_7 1_555 1_555
H23_7 C19_7 1_555 1_555
H24_7 C19_7 1_555 1_555
N1_7 C8_7 1_555 1_555
N2_6 C12_6 1_555 1_555
O1_7 Zn5 1_555 1_555
O15_2 Zn5 1_555 1_555
O17_2 C14_7 1_555 1_555
O5_6 Zn7 1_555 1_555
O6_6 Zn7 1_555 1_555
O7_6 Zn5 1_555 1_555
H26_6 C20_6 1_555 1_555
H27_6 C20_6 1_555 1_555
C21_6 C20_6 1_555 1_555
C22_7 C21_6 1_555 1_555
H28_6 C22_7 1_555 1_555
C23_7 C22_7 1_555 1_555
C24_7 C23_7 1_555 1_555
C25_7 C24_7 1_555 1_555
C26_7 C21_6 1_555 1_555
C27_7 C25_7 1_555 1_555
H31_7 C27_7 1_555 1_555
H33_7 C28_7 1_555 1_555
C29_7 C28_7 1_555 1_555
H34_7 C29_7 1_555 1_555
C30_7 C29_7 1_555 1_555
H36_6 C30_7 1_555 1_555
C31_6 C23_7 1_555 1_555
H38_6 C31_6 1_555 1_555
H39_6 C31_6 1_555 1_555
C34_5 H42_5 1_555 1_555
H43_5 C34_5 1_555 1_555
C35_5 C34_5 1_555 1_555
C36_7 N2_6 1_555 1_555
H44_7 C36_7 1_555 1_555
H45_7 C36_7 1_555 1_555
N3_7 C27_7 1_555 1_555
N4_6 C19_7 1_555 1_555
O8_7 C24_7 1_555 1_555
O16_6 C33_7 1_555 1_555
O11_5 C35_5 1_555 1_555
O12_6 C35_5 1_555 1_555
Zn6_5 N3_7 1_555 1_555
Zn8_4 N4_6 1_555 1_555
C37_6 C38_6 1_555 1_555
C38_6 H46_6 1_555 1_555
H47_6 C38_6 1_555 1_555
H48_6 C38_6 1_555 1_555
O13_6 Zn8_4 1_555 1_555
O14_6 Zn6_5 1_555 1_555
Zn7 O1_7 1_555 1_555
C5_7 O1_7 1_555 1_555
C6_7 C7_7 1_555 1_555
C9_7 N1_7 1_555 1_555
C13_6 N1_7 1_555 1_555
C14_7 O15_2 1_555 1_555
C17_6 O6_6 1_555 1_555
C17_6 O7_6 1_555 1_555
C25_7 C26_7 1_555 1_555
C28_7 N3_7 1_555 1_555
C30_7 C36_7 1_555 1_555
C31_6 N4_6 1_555 1_555
C34_5 N4_6 1_555 1_555
O8_7 Zn6_5 1_555 1_555
O8_7 Zn8_4 1_555 1_555
O16_6 Zn6_5 1_555 1_555
O12_6 Zn8_4 1_555 1_555
C37_6 O13_6 1_555 1_555
C37_6 O14_6 1_555 1_555
Zn5_2 N1_8 1_555 1_555
Zn7_2 N2_7 1_555 1_555
C1_7 H1_6 1_555 1_555
H2_7 C1_7 1_555 1_555
H3_7 C1_7 1_555 1_555
C2_7 C1_7 1_555 1_555
C3_8 C2_7 1_555 1_555
H4_7 C3_8 1_555 1_555
C4_8 C3_8 1_555 1_555
C5_8 C4_8 1_555 1_555
C6_8 C5_8 1_555 1_555
C7_8 C2_7 1_555 1_555
H5_7 C7_8 1_555 1_555
C8_8 C6_8 1_555 1_555
H6_7 C8_8 1_555 1_555
H7_8 C8_8 1_555 1_555
C9_8 H8_7 1_555 1_555
H9_8 C9_8 1_555 1_555
C10_8 C9_8 1_555 1_555
H10_8 C10_8 1_555 1_555
H11_7 C10_8 1_555 1_555
C11_8 C10_8 1_555 1_555
H12_7 C11_8 1_555 1_555
H13_7 C11_8 1_555 1_555
C12_7 C4_8 1_555 1_555
H14_7 C12_7 1_555 1_555
H15_7 C12_7 1_555 1_555
C13_7 H16_7 1_555 1_555
H17_7 C13_7 1_555 1_555
C14_8 C13_7 1_555 1_555
C17_7 C18_7 1_555 1_555
C18_7 H20_7 1_555 1_555
H21_7 C18_7 1_555 1_555
H22_7 C18_7 1_555 1_555
C19_8 C11_8 1_555 1_555
H23_8 C19_8 1_555 1_555
H24_8 C19_8 1_555 1_555
N1_8 C8_8 1_555 1_555
N2_7 C12_7 1_555 1_555
O1_8 Zn5_2 1_555 1_555
O15 Zn5_2 1_555 1_555
O17 C14_8 1_555 1_555
O5_7 Zn7_2 1_555 1_555
O6_7 Zn7_2 1_555 1_555
O7_7 Zn5_2 1_555 1_555
H26_7 C20_7 1_555 1_555
H27_7 C20_7 1_555 1_555
C21_7 C20_7 1_555 1_555
C22_8 C21_7 1_555 1_555
H28_7 C22_8 1_555 1_555
C23_8 C22_8 1_555 1_555
C24_8 C23_8 1_555 1_555
C25_8 C24_8 1_555 1_555
C26_8 C21_7 1_555 1_555
C27_8 C25_8 1_555 1_555
H31_8 C27_8 1_555 1_555
H33_8 C28_8 1_555 1_555
C29_8 C28_8 1_555 1_555
H34_8 C29_8 1_555 1_555
C30_8 C29_8 1_555 1_555
H36_7 C30_8 1_555 1_555
C31_7 C23_8 1_555 1_555
H38_7 C31_7 1_555 1_555
H39_7 C31_7 1_555 1_555
C34_6 H42_6 1_555 1_555
H43_6 C34_6 1_555 1_555
C35_6 C34_6 1_555 1_555
C36_8 N2_7 1_555 1_555
H44_8 C36_8 1_555 1_555
H45_8 C36_8 1_555 1_555
N3_8 C27_8 1_555 1_555
N4_7 C19_8 1_555 1_555
O8_8 C24_8 1_555 1_555
O16_5 C33_8 1_555 1_555
O11_6 C35_6 1_555 1_555
O12_7 C35_6 1_555 1_555
Zn6_6 N3_8 1_555 1_555
Zn8_5 N4_7 1_555 1_555
C37_7 C38_7 1_555 1_555
C38_7 H46_7 1_555 1_555
H47_7 C38_7 1_555 1_555
H48_7 C38_7 1_555 1_555
O13_7 Zn8_5 1_555 1_555
O14_7 Zn6_6 1_555 1_555
Zn7_2 O1_8 1_555 1_555
C5_8 O1_8 1_555 1_555
C6_8 C7_8 1_555 1_555
C9_8 N1_8 1_555 1_555
C13_7 N1_8 1_555 1_555
C14_8 O15 1_555 1_555
C17_7 O6_7 1_555 1_555
C17_7 O7_7 1_555 1_555
C25_8 C26_8 1_555 1_555
C28_8 N3_8 1_555 1_555
C30_8 C36_8 1_555 1_555
C31_7 N4_7 1_555 1_555
C34_6 N4_7 1_555 1_555
O8_8 Zn6_6 1_555 1_555
O8_8 Zn8_5 1_555 1_555
O16_5 Zn6_6 1_555 1_555
O12_7 Zn8_5 1_555 1_555
C37_7 O13_7 1_555 1_555
C37_7 O14_7 1_555 1_555
C15_6 H18_6 1_555 1_555
H19_6 C15_6 1_555 1_555
C16_6 C15_6 1_555 1_555
O4_6 C16_6 1_555 1_555
C32_7 H40_7 1_555 1_555
H41_7 C32_7 1_555 1_555
C13_8 H16_8 1_555 1_555
H17_8 C13_8 1_555 1_555
C34_7 H42_7 1_555 1_555
H43_7 C34_7 1_555 1_555
C35_7 C34_7 1_555 1_555
O11_7 C35_7 1_555 1_555
Zn8_6 O3_6 1_555 1_555
C1_8 H1_8 1_555 1_555
H2_8 C1_8 1_555 1_555
H3_8 C1_8 1_555 1_555
C2_8 C1_8 1_555 1_555
H38_8 C31_8 1_555 1_555
H39_8 C31_8 1_555 1_555
C34_8 H42_8 1_555 1_555
H43_8 C34_8 1_555 1_555
C35_8 C34_8 1_555 1_555
O11_8 C35_8 1_555 1_555
O12_8 C35_8 1_555 1_555
Zn8_6 N4_8 1_555 1_555
C37_8 C38_8 1_555 1_555
C38_8 H46_8 1_555 1_555
H47_8 C38_8 1_555 1_555
H48_8 C38_8 1_555 1_555
O13_8 Zn8_6 1_555 1_555
C31_8 N4_8 1_555 1_555
C34_8 N4_8 1_555 1_555
O12_8 Zn8_6 1_555 1_555
C37_8 O13_8 1_555 1_555
C37_8 O14_8 1_555 1_555
Zn2_6 N2_8 1_555 1_555
H14_8 C12_8 1_555 1_555
H15_8 C12_8 1_555 1_555
C15_7 H18_7 1_555 1_555
H19_7 C15_7 1_555 1_555
C16_7 C15_7 1_555 1_555
C17_8 C18_8 1_555 1_555
C18_8 H20_8 1_555 1_555
H21_8 C18_8 1_555 1_555
H22_8 C18_8 1_555 1_555
N2_8 C12_8 1_555 1_555
O4_7 C16_7 1_555 1_555
O5_8 Zn2_6 1_555 1_555
O6_8 Zn2_6 1_555 1_555
C20_8 H25_7 1_555 1_555
H26_8 C20_8 1_555 1_555
H27_8 C20_8 1_555 1_555
C21_8 C20_8 1_555 1_555
Zn2_6 O18_6 1_555 1_555
C15_7 N2_8 1_555 1_555
C16_7 O5_8 1_555 1_555
C17_8 O6_8 1_555 1_555
C17_8 O7_8 1_555 1_555
C15_8 H18_8 1_555 1_555
H19_8 C15_8 1_555 1_555
C16_8 C15_8 1_555 1_555
O4_8 C16_8 1_555 1_555
C32_8 H40_8 1_555 1_555
H41_8 C32_8 1_555 1_555

#END
