
###############################################################################
#
# This file contains modified crystal structure data generated from the
# MOF subset of the Cambridge Structural Database (CSD) v543 
# hosted by the Cambridge Crystallographic Data Centre (CCDC).
#
# This work is licensed under the Creative Commons
# Attribution-NonCommercial-ShareAlike 4.0 International License.
# To view a copy of this license, visit
# http://creativecommons.org/licenses/by-nc-sa/4.0/
# or send a letter to
# Creative Commons, PO Box 1866, Mountain View, CA 94042, USA.
#
# CIF created using the CSD Python API on 29 September 2022
# The structure has been converted into the P1 space group
# The structure has a 3D framework
# The original CSD entry SIVGUB is in the monoclinic crystal system
# The framework has been calculated to contain at least 10.0% void space
# The void calculation uses a probe of radius 1.32A, grid spacing 0.4
#
###############################################################################

data_SIVGUB
_chemical_formula_moiety         '(C100 H60 O48 Zn8)n'
_symmetry_cell_setting           triclinic
_symmetry_space_group_name_H-M   'P 1'
_symmetry_Int_Tables_number      1
_space_group_name_Hall           'P 1'
loop_
_symmetry_equiv_pos_site_id
_symmetry_equiv_pos_as_xyz
1 x,y,z
_cell_length_a                   17.493(4)
_cell_length_b                   15.092(3)
_cell_length_c                   23.745(5)
_cell_angle_alpha                90
_cell_angle_beta                 97.06(3)
_cell_angle_gamma                90
_cell_volume                     6221.25
loop_
_atom_site_label
_atom_site_type_symbol
_atom_site_fract_x
_atom_site_fract_y
_atom_site_fract_z
O18 O 0.2497(2) 0.0419(3) 0.4188(2)
Zn1 Zn 0.16625(3) 0.86669(4) 0.48219(3)
Zn2 Zn 0.31019(3) 0.93353(3) 0.41030(3)
O1 O 0.1917(2) 0.7697(2) 0.4370(2)
O2 O 0.3005(2) 0.8052(2) 0.40310(18)
O3 O 0.2432(2) 0.5994(3) 0.04255(19)
O5 O 0.5992(3) 0.4589(5) 0.1985(3)
O6 O 0.5862(2) 0.4698(2) 0.10404(17)
O11 O 0.3315(2) 0.5485(3) 0.24357(18)
O12 O 0.1817(3) 0.3566(2) 0.4019(2)
O13 O 0.2584(4) 0.9338(4) 0.3224(2)
H1 H 0.3048 0.9406 0.3160
H2 H 0.2548 0.9833 0.3051
C1 C 0.2482(3) 0.7514(3) 0.4122(2)
C2 C 0.2541(3) 0.6576(3) 0.3925(2)
C3 C 0.3099(3) 0.6342(3) 0.3581(2)
H3 H 0.3441 0.6767 0.3478
C4 C 0.3145(3) 0.5484(3) 0.3394(2)
C5 C 0.2634(4) 0.4850(3) 0.3556(3)
H4 H 0.2660 0.4269 0.3428
C6 C 0.2091(4) 0.5083(3) 0.3906(3)
C7 C 0.2052(3) 0.5938(3) 0.4093(2)
H5 H 0.1693 0.6089 0.4335
C8 C 0.3694(3) 0.5253(4) 0.2968(3)
H6 H 0.4171 0.5583 0.3048
H7 H 0.3811 0.4625 0.2982
C9 C 0.3134(4) 0.5780(4) 0.0405(3)
C10 C 0.5620(4) 0.4752(4) 0.1515(3)
C11 C 0.3608(4) 0.5563(3) 0.0953(3)
C12 C 0.4367(3) 0.5270(3) 0.0983(2)
H8 H 0.4594 0.5222 0.0650
C13 C 0.4782(3) 0.5052(3) 0.1482(3)
C14 C 0.4456(4) 0.5116(4) 0.1996(3)
H9 H 0.4743 0.4970 0.2340
C15 C 0.3710(4) 0.5397(4) 0.1979(3)
C16 C 0.3262(4) 0.5614(4) 0.1460(3)
H10 H 0.2751 0.5787 0.1453
C17 C 0.1508(4) 0.4412(3) 0.4084(4)
H11 H 0.1427 0.4509 0.4476
H12 H 0.1018 0.4473 0.3847
C18 C 0.1834(3) 0.0412(3) 0.4294(3)
C20 C 0.1405(3) 0.1288(3) 0.4299(3)
C21 C 0.0694(3) 0.1332(3) 0.4486(3)
H13 H 0.0448 0.0816 0.4580
C22 C 0.0347(3) 0.2134(3) 0.4533(3)
C23 C 0.0697(3) 0.2907(3) 0.4371(3)
H14 H 0.0450 0.3450 0.4390
C24 C 0.1410(3) 0.2865(4) 0.4183(3)
C25 C 0.1753(3) 0.2055(3) 0.4137(3)
H15 H 0.2225 0.2020 0.3996
Zn7 Zn 0.68981(3) 0.43353(3) 0.08970(3)
O14 O 0.2432(2) 0.9006(3) 0.54255(19)
O15 O 0.3448(3) 0.9285(3) 0.49717(19)
O16 O 0.4138(2) 0.9698(2) 0.39596(17)
O17 O 0.0702(2) 0.8559(2) 0.5127(2)
O19 O 0.1448(2) 0.9736(2) 0.4370(2)
O4 O 0.3448(3) 0.5715(3) 0.99717(19)
Zn5 Zn 0.16625(3) 0.63331(4) 0.98219(3)
Zn8 Zn 0.31019(3) 0.56647(3) 0.91030(3)
O7 O 0.9227(3) 0.2890(3) 0.4743(3)
O8 O 0.9298(2) 0.1441(2) 0.4873(2)
C19 C 0.9548(4) 0.2198(4) 0.4722(3)
Zn4 Zn 0.83375(3) 0.13331(4) 0.51781(3)
O7_2 O 0.0773(3) 0.7890(3) 0.0257(3)
O8_2 O 0.0702(2) 0.6441(2) 0.0127(2)
C19_2 C 0.0452(4) 0.7198(4) 0.0278(3)
Zn1_2 Zn 0.83375(3) 0.36669(4) 0.01781(3)
O1_2 O 0.8083(2) 0.2697(2) 0.0630(2)
O2_2 O 0.6995(2) 0.3052(2) 0.09690(18)
O3_2 O 0.7568(2) 0.0994(3) 0.45745(19)
O4_2 O 0.6552(3) 0.0715(3) 0.50283(19)
O11_2 O 0.6685(2) 0.0485(3) 0.25643(18)
O13_2 O 0.7416(4) 0.4338(4) 0.1776(2)
H1_2 H 0.6952 0.4406 0.1840
H2_2 H 0.7452 0.4833 0.1949
C1_2 C 0.7518(3) 0.2514(3) 0.0878(2)
C2_2 C 0.7459(3) 0.1576(3) 0.1075(2)
C3_2 C 0.6901(3) 0.1342(3) 0.1419(2)
H3_2 H 0.6559 0.1767 0.1522
C4_2 C 0.6855(3) 0.0484(3) 0.1606(2)
C6_2 C 0.7909(4) 0.0083(3) 0.1094(3)
C7_2 C 0.7948(3) 0.0938(3) 0.0907(2)
H5_2 H 0.8307 0.1089 0.0665
C8_2 C 0.6306(3) 0.0253(4) 0.2032(3)
H6_2 H 0.5829 0.0583 0.1952
C9_2 C 0.6866(4) 0.0780(4) 0.4595(3)
C11_2 C 0.6392(4) 0.0563(3) 0.4047(3)
C12_2 C 0.5633(3) 0.0270(3) 0.4017(2)
H8_2 H 0.5406 0.0222 0.4350
C13_2 C 0.5218(3) 0.0052(3) 0.3518(3)
C14_2 C 0.5544(4) 0.0116(4) 0.3004(3)
C15_2 C 0.6290(4) 0.0397(4) 0.3021(3)
C16_2 C 0.6738(4) 0.0614(4) 0.3540(3)
H10_2 H 0.7249 0.0787 0.3547
Zn8_2 Zn 0.68981(3) 0.06647(3) 0.58970(3)
O15_2 O 0.6552(3) 0.4285(3) 0.00283(19)
O18_2 O 0.7503(2) 0.5419(3) 0.0812(2)
O19_2 O 0.8552(2) 0.4736(2) 0.0630(2)
O14_2 O 0.7568(2) 0.4006(3) 0.95745(19)
O17_2 O 0.9298(2) 0.3559(2) 0.9873(2)
O5_2 O 0.4008(3) 0.9589(5) 0.3015(3)
O12_2 O 0.8183(3) 0.8566(2) 0.0981(2)
C5_2 C 0.7366(4) 0.9850(3) 0.1444(3)
H4_2 H 0.7340 0.9269 0.1572
H7_2 H 0.6189 0.9625 0.2018
C10_2 C 0.4380(4) 0.9752(4) 0.3485(3)
H9_2 H 0.5257 0.9970 0.2660
C17_2 C 0.8492(4) 0.9412(3) 0.0916(4)
H11_2 H 0.8573 0.9509 0.0524
H12_2 H 0.8982 0.9473 0.1153
C18_2 C 0.8166(3) 0.5412(3) 0.0706(3)
C20_2 C 0.8595(3) 0.6288(3) 0.0701(3)
C21_2 C 0.9306(3) 0.6332(3) 0.0514(3)
H13_2 H 0.9552 0.5816 0.0420
C22_2 C 0.9653(3) 0.7134(3) 0.0467(3)
C23_2 C 0.9303(3) 0.7907(3) 0.0629(3)
H14_2 H 0.9550 0.8450 0.0610
C24_2 C 0.8590(3) 0.7865(4) 0.0817(3)
C25_2 C 0.8247(3) 0.7055(3) 0.0863(3)
H15_2 H 0.7775 0.7020 0.1004
O7_3 O 0.0773(3) 0.7110(3) 0.5257(3)
C19_3 C 0.0452(4) 0.7802(4) 0.5278(3)
O10 O 0.8552(2) 0.0264(2) 0.5630(2)
O1_3 O 0.8083(2) 0.2303(2) 0.5630(2)
O2_3 O 0.6995(2) 0.1948(2) 0.59690(18)
O5_3 O 0.4008(3) 0.5411(5) 0.8015(3)
O6_2 O 0.4138(2) 0.5302(2) 0.89596(17)
O9 O 0.7503(2) 0.9581(3) 0.5812(2)
O11_3 O 0.6685(2) 0.4515(3) 0.75643(18)
O12_3 O 0.8183(3) 0.6434(2) 0.5981(2)
O13_3 O 0.7416(4) 0.0662(4) 0.6776(2)
H1_3 H 0.6952 0.0594 0.6840
H2_3 H 0.7452 0.0167 0.6949
C1_3 C 0.7518(3) 0.2486(3) 0.5878(2)
C2_3 C 0.7459(3) 0.3424(3) 0.6075(2)
C3_3 C 0.6901(3) 0.3658(3) 0.6419(2)
H3_3 H 0.6559 0.3233 0.6522
C4_3 C 0.6855(3) 0.4516(3) 0.6606(2)
C5_3 C 0.7366(4) 0.5150(3) 0.6444(3)
H4_3 H 0.7340 0.5731 0.6572
C6_3 C 0.7909(4) 0.4917(3) 0.6094(3)
C7_3 C 0.7948(3) 0.4062(3) 0.5907(2)
H5_3 H 0.8307 0.3911 0.5665
C8_3 C 0.6306(3) 0.4747(4) 0.7032(3)
H6_3 H 0.5829 0.4417 0.6952
H7_3 H 0.6189 0.5375 0.7018
C9_3 C 0.6866(4) 0.4220(4) 0.9595(3)
C10_3 C 0.4380(4) 0.5248(4) 0.8485(3)
C11_3 C 0.6392(4) 0.4437(3) 0.9047(3)
C12_3 C 0.5633(3) 0.4730(3) 0.9017(2)
H8_3 H 0.5406 0.4778 0.9350
C13_3 C 0.5218(3) 0.4948(3) 0.8518(3)
C14_3 C 0.5544(4) 0.4884(4) 0.8004(3)
H9_3 H 0.5257 0.5030 0.7660
C15_3 C 0.6290(4) 0.4603(4) 0.8021(3)
C16_3 C 0.6738(4) 0.4386(4) 0.8540(3)
H10_3 H 0.7249 0.4213 0.8547
C17_3 C 0.8492(4) 0.5588(3) 0.5916(4)
H11_3 H 0.8573 0.5491 0.5524
H12_3 H 0.8982 0.5527 0.6153
C18_3 C 0.8166(3) 0.9588(3) 0.5706(3)
C20_3 C 0.8595(3) 0.8712(3) 0.5701(3)
C21_3 C 0.9306(3) 0.8668(3) 0.5514(3)
H13_3 H 0.9552 0.9184 0.5420
C22_3 C 0.9653(3) 0.7866(3) 0.5467(3)
C23_3 C 0.9303(3) 0.7093(3) 0.5629(3)
H14_3 H 0.9550 0.6550 0.5610
C24_3 C 0.8590(3) 0.7135(4) 0.5817(3)
C25_3 C 0.8247(3) 0.7945(3) 0.5863(3)
H15_3 H 0.7775 0.7980 0.6004
O16_2 O 0.5862(2) 0.0302(2) 0.60404(17)
O5_4 O 0.5992(3) 0.0411(5) 0.6985(3)
O9_2 O 0.2497(2) 0.4581(3) 0.9188(2)
O10_2 O 0.1448(2) 0.5264(2) 0.9370(2)
O12_4 O 0.1817(3) 0.1434(2) 0.9019(2)
C5_4 C 0.2634(4) 0.0150(3) 0.8556(3)
H4_4 H 0.2660 0.0731 0.8428
H7_4 H 0.3811 0.0375 0.7982
C10_4 C 0.5620(4) 0.0248(4) 0.6515(3)
H9_4 H 0.4743 0.0030 0.7340
C17_4 C 0.1508(4) 0.0588(3) 0.9084(4)
H11_4 H 0.1427 0.0491 0.9476
H12_4 H 0.1018 0.0527 0.8847
C18_4 C 0.1834(3) 0.4588(3) 0.9294(3)
C20_4 C 0.1405(3) 0.3712(3) 0.9299(3)
C21_4 C 0.0694(3) 0.3668(3) 0.9486(3)
H13_4 H 0.0448 0.4184 0.9580
C22_4 C 0.0347(3) 0.2866(3) 0.9533(3)
C23_4 C 0.0697(3) 0.2093(3) 0.9371(3)
H14_4 H 0.0450 0.1550 0.9390
C24_4 C 0.1410(3) 0.2135(4) 0.9183(3)
C25_4 C 0.1753(3) 0.2945(3) 0.9137(3)
H15_4 H 0.2225 0.2980 0.8996
O1_4 O 0.1917(2) 0.7303(2) 0.9370(2)
O2_4 O 0.3005(2) 0.6948(2) 0.90310(18)
O11_4 O 0.3315(2) 0.9515(3) 0.74357(18)
O13_4 O 0.2584(4) 0.5662(4) 0.8224(2)
H1_4 H 0.3048 0.5594 0.8160
H2_4 H 0.2548 0.5167 0.8051
C1_4 C 0.2482(3) 0.7486(3) 0.9122(2)
C2_4 C 0.2541(3) 0.8424(3) 0.8925(2)
C3_4 C 0.3099(3) 0.8658(3) 0.8581(2)
H3_4 H 0.3441 0.8233 0.8478
C4_4 C 0.3145(3) 0.9516(3) 0.8394(2)
C6_4 C 0.2091(4) 0.9917(3) 0.8906(3)
C7_4 C 0.2052(3) 0.9062(3) 0.9093(2)
H5_4 H 0.1693 0.8911 0.9335
C8_4 C 0.3694(3) 0.9747(4) 0.7968(3)
H6_4 H 0.4171 0.9417 0.8048
C9_4 C 0.3134(4) 0.9220(4) 0.5405(3)
C11_4 C 0.3608(4) 0.9437(3) 0.5953(3)
C12_4 C 0.4367(3) 0.9730(3) 0.5983(2)
H8_4 H 0.4594 0.9778 0.5650
C13_4 C 0.4782(3) 0.9948(3) 0.6482(3)
C14_4 C 0.4456(4) 0.9884(4) 0.6996(3)
C15_4 C 0.3710(4) 0.9603(4) 0.6979(3)
C16_4 C 0.3262(4) 0.9386(4) 0.6460(3)
H10_4 H 0.2751 0.9213 0.6453
O7_4 O 0.9227(3) 0.2110(3) 0.9743(3)
C19_4 C 0.9548(4) 0.2802(4) 0.9722(3)
loop_
_geom_bond_atom_site_label_1
_geom_bond_atom_site_label_2
_geom_bond_site_symmetry_1
_geom_bond_site_symmetry_2
Zn1 O1 1_555 1_555
Zn2 O2 1_555 1_555
O1 C1 1_555 1_555
O2 C1 1_555 1_555
O3 C9 1_555 1_555
O5 C10 1_555 1_555
O6 C10 1_555 1_555
O18 C18 1_555 1_555
O11 C8 1_555 1_555
O12 C17 1_555 1_555
O13 Zn2 1_555 1_555
H1 O13 1_555 1_555
H2 O13 1_555 1_555
C1 C2 1_555 1_555
C2 C3 1_555 1_555
C3 H3 1_555 1_555
C4 C3 1_555 1_555
C5 C4 1_555 1_555
H4 C5 1_555 1_555
C6 C5 1_555 1_555
C7 C2 1_555 1_555
H5 C7 1_555 1_555
C8 C4 1_555 1_555
H6 C8 1_555 1_555
H7 C8 1_555 1_555
C9 C11 1_555 1_555
C10 C13 1_555 1_555
C11 C12 1_555 1_555
C12 H8 1_555 1_555
C13 C12 1_555 1_555
C14 C13 1_555 1_555
H9 C14 1_555 1_555
C15 O11 1_555 1_555
C16 C11 1_555 1_555
H10 C16 1_555 1_555
C17 C6 1_555 1_555
H11 C17 1_555 1_555
H12 C17 1_555 1_555
C18 C20 1_555 1_555
C20 C21 1_555 1_555
C21 H13 1_555 1_555
C22 C21 1_555 1_555
C23 C22 1_555 1_555
H14 C23 1_555 1_555
C24 O12 1_555 1_555
C25 C20 1_555 1_555
H15 C25 1_555 1_555
Zn7 O6 1_555 1_555
O14 Zn1 1_555 1_555
O15 Zn2 1_555 1_555
O16 Zn2 1_555 1_555
O17 Zn1 1_555 1_555
O19 Zn1 1_555 1_555
C6 C7 1_555 1_555
C14 C15 1_555 1_555
C15 C16 1_555 1_555
C23 C24 1_555 1_555
C24 C25 1_555 1_555
Zn8 O4 1_555 1_555
O7 C19 1_555 1_555
O8 C19 1_555 1_555
Zn4 O8 1_555 1_555
O7_2 C19_2 1_555 1_555
O8_2 C19_2 1_555 1_555
Zn1_2 O1_2 1_555 1_555
Zn7 O2_2 1_555 1_555
O1_2 C1_2 1_555 1_555
O2_2 C1_2 1_555 1_555
O3_2 C9_2 1_555 1_555
O4_2 C9_2 1_555 1_555
O11_2 C8_2 1_555 1_555
O13_2 Zn7 1_555 1_555
H1_2 O13_2 1_555 1_555
H2_2 O13_2 1_555 1_555
C1_2 C2_2 1_555 1_555
C2_2 C3_2 1_555 1_555
C3_2 H3_2 1_555 1_555
C4_2 C3_2 1_555 1_555
C7_2 C2_2 1_555 1_555
H5_2 C7_2 1_555 1_555
C8_2 C4_2 1_555 1_555
H6_2 C8_2 1_555 1_555
C9_2 C11_2 1_555 1_555
C11_2 C12_2 1_555 1_555
C12_2 H8_2 1_555 1_555
C13_2 C12_2 1_555 1_555
C14_2 C13_2 1_555 1_555
C15_2 O11_2 1_555 1_555
C16_2 C11_2 1_555 1_555
H10_2 C16_2 1_555 1_555
Zn4 O3_2 1_555 1_555
Zn8_2 O4_2 1_555 1_555
O15_2 Zn7 1_555 1_555
O18_2 Zn7 1_555 1_555
O19_2 Zn1_2 1_555 1_555
C6_2 C7_2 1_555 1_555
C14_2 C15_2 1_555 1_555
C15_2 C16_2 1_555 1_555
O5_2 C10_2 1_555 1_555
O16 C10_2 1_555 1_555
O18_2 C18_2 1_555 1_555
O19_2 C18_2 1_555 1_555
O12_2 C17_2 1_555 1_555
H4_2 C5_2 1_555 1_555
H11_2 C17_2 1_555 1_555
H12_2 C17_2 1_555 1_555
C18_2 C20_2 1_555 1_555
C20_2 C21_2 1_555 1_555
C21_2 H13_2 1_555 1_555
C22_2 C21_2 1_555 1_555
C23_2 C22_2 1_555 1_555
H14_2 C23_2 1_555 1_555
C24_2 O12_2 1_555 1_555
C25_2 C20_2 1_555 1_555
H15_2 C25_2 1_555 1_555
C23_2 C24_2 1_555 1_555
C24_2 C25_2 1_555 1_555
O7_3 C19_3 1_555 1_555
O17 C19_3 1_555 1_555
Zn4 O10 1_555 1_555
Zn4 O1_3 1_555 1_555
Zn8_2 O2_3 1_555 1_555
O1_3 C1_3 1_555 1_555
O2_3 C1_3 1_555 1_555
O14_2 C9_3 1_555 1_555
O5_3 C10_3 1_555 1_555
O6_2 C10_3 1_555 1_555
O9 C18_3 1_555 1_555
O11_3 C8_3 1_555 1_555
O12_3 C17_3 1_555 1_555
O13_3 Zn8_2 1_555 1_555
H1_3 O13_3 1_555 1_555
H2_3 O13_3 1_555 1_555
C1_3 C2_3 1_555 1_555
C2_3 C3_3 1_555 1_555
C3_3 H3_3 1_555 1_555
C4_3 C3_3 1_555 1_555
C5_3 C4_3 1_555 1_555
H4_3 C5_3 1_555 1_555
C6_3 C5_3 1_555 1_555
C7_3 C2_3 1_555 1_555
H5_3 C7_3 1_555 1_555
C8_3 C4_3 1_555 1_555
H6_3 C8_3 1_555 1_555
H7_3 C8_3 1_555 1_555
C9_3 C11_3 1_555 1_555
C10_3 C13_3 1_555 1_555
C11_3 C12_3 1_555 1_555
C12_3 H8_3 1_555 1_555
C13_3 C12_3 1_555 1_555
C14_3 C13_3 1_555 1_555
H9_3 C14_3 1_555 1_555
C15_3 O11_3 1_555 1_555
C16_3 C11_3 1_555 1_555
H10_3 C16_3 1_555 1_555
C17_3 C6_3 1_555 1_555
H11_3 C17_3 1_555 1_555
H12_3 C17_3 1_555 1_555
C18_3 C20_3 1_555 1_555
C20_3 C21_3 1_555 1_555
C21_3 H13_3 1_555 1_555
C22_3 C21_3 1_555 1_555
C23_3 C22_3 1_555 1_555
H14_3 C23_3 1_555 1_555
C24_3 O12_3 1_555 1_555
C25_3 C20_3 1_555 1_555
H15_3 C25_3 1_555 1_555
Zn8 O6_2 1_555 1_555
O16_2 Zn8_2 1_555 1_555
C6_3 C7_3 1_555 1_555
C14_3 C15_3 1_555 1_555
C15_3 C16_3 1_555 1_555
C23_3 C24_3 1_555 1_555
C24_3 C25_3 1_555 1_555
O5_4 C10_4 1_555 1_555
O16_2 C10_4 1_555 1_555
O9_2 C18_4 1_555 1_555
O10_2 C18_4 1_555 1_555
O12_4 C17_4 1_555 1_555
H4_4 C5_4 1_555 1_555
H11_4 C17_4 1_555 1_555
H12_4 C17_4 1_555 1_555
C18_4 C20_4 1_555 1_555
C20_4 C21_4 1_555 1_555
C21_4 H13_4 1_555 1_555
C22_4 C21_4 1_555 1_555
C23_4 C22_4 1_555 1_555
H14_4 C23_4 1_555 1_555
C24_4 O12_4 1_555 1_555
C25_4 C20_4 1_555 1_555
H15_4 C25_4 1_555 1_555
Zn5 O10_2 1_555 1_555
Zn8 O9_2 1_555 1_555
C23_4 C24_4 1_555 1_555
C24_4 C25_4 1_555 1_555
Zn5 O1_4 1_555 1_555
Zn8 O2_4 1_555 1_555
O1_4 C1_4 1_555 1_555
O2_4 C1_4 1_555 1_555
O14 C9_4 1_555 1_555
O15 C9_4 1_555 1_555
O11_4 C8_4 1_555 1_555
O13_4 Zn8 1_555 1_555
H1_4 O13_4 1_555 1_555
H2_4 O13_4 1_555 1_555
C1_4 C2_4 1_555 1_555
C2_4 C3_4 1_555 1_555
C3_4 H3_4 1_555 1_555
C4_4 C3_4 1_555 1_555
C7_4 C2_4 1_555 1_555
H5_4 C7_4 1_555 1_555
C8_4 C4_4 1_555 1_555
H6_4 C8_4 1_555 1_555
C9_4 C11_4 1_555 1_555
C11_4 C12_4 1_555 1_555
C12_4 H8_4 1_555 1_555
C13_4 C12_4 1_555 1_555
C14_4 C13_4 1_555 1_555
C15_4 O11_4 1_555 1_555
C16_4 C11_4 1_555 1_555
H10_4 C16_4 1_555 1_555
C6_4 C7_4 1_555 1_555
C14_4 C15_4 1_555 1_555
C15_4 C16_4 1_555 1_555
O7_4 C19_4 1_555 1_555
O17_2 C19_4 1_555 1_555

#END
