
###############################################################################
#
# This file contains modified crystal structure data generated from the
# MOF subset of the Cambridge Structural Database (CSD) v543 
# hosted by the Cambridge Crystallographic Data Centre (CCDC).
#
# This work is licensed under the Creative Commons
# Attribution-NonCommercial-ShareAlike 4.0 International License.
# To view a copy of this license, visit
# http://creativecommons.org/licenses/by-nc-sa/4.0/
# or send a letter to
# Creative Commons, PO Box 1866, Mountain View, CA 94042, USA.
#
# CIF created using the CSD Python API on 29 September 2022
# The structure has been converted into the P1 space group
# The structure has a 3D framework
# The original CSD entry SIVGAI is in the orthorhombic crystal system
# The original CSD entry SIVGAI is in a Sohncke space group
# The framework has been calculated to contain at least 10.0% void space
# The void calculation uses a probe of radius 1.32A, grid spacing 0.4
# H atom positions have been added when not included in the experimental data
#
###############################################################################

data_SIVGAI
_chemical_formula_moiety         '(C136 H144 Cu24 N56 O56)n'
_symmetry_cell_setting           triclinic
_symmetry_space_group_name_H-M   'P 1'
_symmetry_Int_Tables_number      1
_space_group_name_Hall           'P 1'
loop_
_symmetry_equiv_pos_site_id
_symmetry_equiv_pos_as_xyz
1 x,y,z
_cell_length_a                   12.6109(4)
_cell_length_b                   18.0624(5)
_cell_length_c                   23.4208(7)
_cell_angle_alpha                90
_cell_angle_beta                 90
_cell_angle_gamma                90
_cell_volume                     5334.86
loop_
_atom_site_label
_atom_site_type_symbol
_atom_site_fract_x
_atom_site_fract_y
_atom_site_fract_z
N14 N 0.1127(7) 0.4350(5) 0.3814(4)
H24 H 0.1603 0.4691 0.3737
H25 H 0.1298 0.3878 0.3792
H27 H 0.0331 0.5650 0.3884
C32 C 0.0085(8) 0.4559(6) 0.3973(4)
Cu8 Cu 0.23725(9) 0.44699(6) 0.46136(5)
Cu1 Cu 0.73725(9) 0.05301(6) 0.53864(5)
Cu2 Cu 0.60076(9) 0.04818(7) 0.41362(5)
Cu3 Cu 0.71895(10) 0.20597(7) 0.45616(5)
O1 O 0.6537(5) 0.1092(4) 0.4790(3)
O5 O 0.5148(5) 0.0204(4) 0.0501(3)
O6 O 0.6714(5) 0.0021(4) 0.0930(3)
O7 O 0.7840(6) 0.2997(4) 0.4342(3)
O8 O 0.6797(6) 0.3799(4) 0.4809(4)
O9 O 0.7792(6) 0.6552(4) 0.4492(3)
O10 O 0.9262(6) 0.6750(4) 0.4008(4)
N3 N 0.7961(7) 0.2073(5) 0.5279(4)
N4 N 0.8046(7) 0.1466(4) 0.5615(4)
C4 C 0.8405(8) 0.2642(6) 0.5561(5)
H4 H 0.8446 0.3137 0.5426
C5 C 0.8801(8) 0.2389(6) 0.6092(5)
H5 H 0.9166 0.2662 0.6377
C6 C 0.8532(9) 0.1656(6) 0.6094(5)
H6 H 0.8675 0.1325 0.6399
N5 N 0.5980(6) 0.1361(5) 0.3656(3)
N6 N 0.6508(7) 0.1999(5) 0.3830(4)
C7 C 0.5611(9) 0.1488(6) 0.3134(4)
H7 H 0.5206 0.1143 0.2919
C8 C 0.5894(9) 0.2193(6) 0.2943(4)
H8 H 0.5732 0.2421 0.2588
C9 C 0.6467(9) 0.2475(6) 0.3395(5)
H9 H 0.6792 0.2950 0.3396
N9 N 0.5757(7) 0.1665(5) 0.0305(4)
N10 N 0.6335(7) 0.2270(5) 0.0145(4)
C13 C 0.5376(9) 0.1812(6) 0.0837(5)
H13 H 0.4940 0.1486 0.1053
C14 C 0.5707(11) 0.2490(7) 0.1018(5)
H14 H 0.5563 0.2722 0.1374
C15 C 0.6300(9) 0.2763(6) 0.0567(5)
H15 H 0.6633 0.3235 0.0559
C26 C 0.5719(8) 0.0058(5) 0.0931(4)
C27 C 0.7577(8) 0.3640(5) 0.4508(5)
C28 C 0.8353(8) 0.4231(6) 0.4328(4)
C29 C 0.8097(8) 0.4991(6) 0.4393(4)
H26 H 0.7438 0.5138 0.4553
C30 C 0.8834(8) 0.5512(6) 0.4216(4)
C31 C 0.9833(8) 0.5288(6) 0.4005(4)
C33 C 0.9337(8) 0.4029(5) 0.4122(4)
H28 H 0.9505 0.3519 0.4083
C34 C 0.8625(8) 0.6327(5) 0.4247(4)
O11 O 0.4275(6) 0.0552(5) 0.4455(4)
H29 H 0.3879 0.0317 0.4231
O12 O 0.5629(6) 0.2616(4) 0.5098(3)
Cu10 Cu 0.80400(10) 0.76714(7) 0.43863(5)
N15 N 0.6127(7) 0.0650(5) 0.6186(4)
H32 H 0.404935 0.107841 0.446847
H35 H 0.564973 0.245207 0.550254
H36 H 0.567153 0.316454 0.508145
Cu4 Cu 0.71167(10) 0.07874(7) 0.85861(5)
Cu5 Cu 0.57460(9) 0.07673(7) 0.98457(5)
Cu6 Cu 0.69600(10) 0.23286(7) 0.93863(5)
O2 O 0.6315(5) 0.1349(4) 0.9181(3)
N11 N 0.7681(7) 0.2334(5) 0.8656(4)
N12 N 0.7717(7) 0.1716(5) 0.8325(4)
C16 C 0.8048(9) 0.2901(6) 0.8349(5)
H16 H 0.8105 0.3397 0.8480
C17 C 0.8334(10) 0.2652(7) 0.7808(5)
H17 H 0.8630 0.2934 0.7505
C18 C 0.8092(9) 0.1907(6) 0.7810(5)
H18 H 0.8179 0.1580 0.7496
O13 O 0.5674(8) 0.0818(6) 0.7886(4)
O14 O 0.3722(7) 0.1024(5) 0.9639(4)
O15 O 0.8022(6) 0.0257(4) 0.8001(3)
O17 O 0.7208(6) 0.3448(4) 0.9492(3)
O18 O 0.5738(6) 0.3250(4) 0.9008(4)
H30 H 0.549798 0.134028 0.779359
H31 H 0.589987 0.055723 0.753312
H33 H 0.353523 0.0829738 0.925533
H34 H 0.328197 0.0773436 0.993274
O3 O 0.5483(6) 0.9865(4) 0.3503(3)
O4 O 0.6978(6) 0.9743(4) 0.3001(3)
N1 N 0.6256(6) 0.9599(4) 0.4589(3)
N2 N 0.6811(6) 0.9606(4) 0.5089(3)
C1 C 0.5894(8) 0.8901(5) 0.4510(4)
H1 H 0.5472 0.8740 0.4198
C2 C 0.6234(8) 0.8465(5) 0.4952(5)
H2 H 0.6113 0.7950 0.5002
C3 C 0.6790(8) 0.8931(5) 0.5307(4)
H3 H 0.7111 0.8789 0.5658
N13 N 0.2523(8) 0.9530(5) 0.2085(5)
H19 H 0.2155 0.9486 0.1767
H20 H 0.2213 0.9462 0.2417
C19 C 0.5976(8) 0.9784(5) 0.3039(4)
C20 C 0.5336(8) 0.9768(6) 0.2510(4)
C21 C 0.5804(8) 0.9900(5) 0.1983(4)
H21 H 0.6550 0.9969 0.1958
C22 C 0.5191(8) 0.9933(6) 0.1492(4)
C23 C 0.4097(8) 0.9817(8) 0.1533(4)
H22 H 0.3676 0.9810 0.1197
C24 C 0.3622(9) 0.9711(9) 0.2060(5)
C25 C 0.4251(9) 0.9693(7) 0.2548(4)
H23 H 0.3930 0.9628 0.2912
Cu7 Cu 0.76275(9) 0.94699(6) 0.03864(5)
Cu9 Cu 0.78833(10) 0.92126(7) 0.35861(5)
O16 O 0.8286(5) 0.9979(4) 0.5930(3)
N2_2 N 0.8189(6) 0.0394(4) 0.0089(3)
H2_2 H 0.8887 0.2050 0.0002
C3_2 C 0.8210(8) 0.1069(5) 0.0307(4)
H3_2 H 0.7889 0.1211 0.0658
O3_2 O 0.9517(6) 0.0135(4) 0.8503(3)
N1_2 N 0.8744(6) 0.0401(4) 0.9589(3)
C1_2 C 0.9106(8) 0.1099(5) 0.9510(4)
H1_2 H 0.9528 0.1260 0.9198
C2_2 C 0.8766(8) 0.1535(5) 0.9952(5)
N7 N 0.8456(7) 0.0123(5) 0.3897(3)
N8 N 0.9051(7) 0.0117(5) 0.4390(3)
C10 C 0.8479(8) 0.0806(6) 0.3685(4)
H10 H 0.8137 0.0956 0.3342
C11 C 0.9076(8) 0.1269(6) 0.4034(5)
H11 H 0.9218 0.1782 0.3987
C12 C 0.9417(7) 0.0801(6) 0.4469(4)
H12 H 0.9851 0.0950 0.4780
C19_2 C 0.9024(8) 0.0216(5) 0.8039(4)
C20_2 C 0.9664(8) 0.0232(6) 0.7510(4)
C21_2 C 0.9196(8) 0.0100(5) 0.6983(4)
H21_2 H 0.8450 0.0031 0.6958
C22_2 C 0.9809(8) 0.0067(6) 0.6492(4)
N3_2 N 0.7039(7) 0.7927(5) 0.0279(4)
N4_2 N 0.6954(7) 0.8534(4) 0.0615(4)
C4_2 C 0.6595(8) 0.7358(6) 0.0561(5)
H4_2 H 0.6554 0.6863 0.0426
C5_2 C 0.6199(8) 0.7611(6) 0.1092(5)
H5_2 H 0.5834 0.7338 0.1377
C6_2 C 0.6468(9) 0.8344(6) 0.1094(5)
H6_2 H 0.6325 0.8675 0.1399
O12_2 O 0.9371(6) 0.7384(4) 0.0098(3)
N15_2 N 0.8873(7) 0.9350(5) 0.1186(4)
H35_2 H 0.935027 0.754793 0.0502542
H36_2 H 0.932847 0.683546 0.00814512
Cu2_2 Cu 0.89924(9) 0.95182(7) 0.91362(5)
Cu3_2 Cu 0.78105(10) 0.79403(7) 0.95616(5)
Cu5_2 Cu 0.92540(9) 0.92327(7) 0.48457(5)
O1_2 O 0.8463(5) 0.8908(4) 0.9790(3)
O2_2 O 0.8685(5) 0.8651(4) 0.4181(3)
O5_2 O 0.9852(5) 0.9796(4) 0.5501(3)
O7_2 O 0.7160(6) 0.7003(4) 0.9342(3)
O8_2 O 0.8203(6) 0.6201(4) 0.9809(4)
N5_2 N 0.9020(6) 0.8639(5) 0.8656(3)
N6_2 N 0.8492(7) 0.8001(5) 0.8830(4)
C7_2 C 0.9389(9) 0.8512(6) 0.8134(4)
H7_2 H 0.9794 0.8857 0.7919
C8_2 C 0.9106(9) 0.7807(6) 0.7943(4)
H8_2 H 0.9268 0.7579 0.7588
C9_2 C 0.8533(9) 0.7525(6) 0.8395(5)
H9_2 H 0.8208 0.7050 0.8396
N9_2 N 0.9243(7) 0.8335(5) 0.5305(4)
N10_2 N 0.8665(7) 0.7730(5) 0.5145(4)
C13_2 C 0.9624(9) 0.8188(6) 0.5837(5)
C14_2 C 0.9293(11) 0.7510(7) 0.6018(5)
H14_2 H 0.9437 0.7278 0.6374
C15_2 C 0.8700(9) 0.7237(6) 0.5567(5)
H15_2 H 0.8367 0.6765 0.5559
N11_2 N 0.7319(7) 0.7666(5) 0.3656(4)
N12_2 N 0.7283(7) 0.8284(5) 0.3325(4)
C16_2 C 0.6952(9) 0.7099(6) 0.3349(5)
H16_2 H 0.6895 0.6603 0.3480
C17_2 C 0.6666(10) 0.7348(7) 0.2808(5)
H17_2 H 0.6370 0.7066 0.2505
C18_2 C 0.6908(9) 0.8093(6) 0.2810(5)
H18_2 H 0.6821 0.8420 0.2496
C26_2 C 0.9281(8) 0.9942(5) 0.5931(4)
N14_2 N 0.3873(7) 0.5650(5) 0.8814(4)
H24_2 H 0.3397 0.5309 0.8737
H25_2 H 0.3702 0.6122 0.8792
C27_2 C 0.7423(8) 0.6360(5) 0.9508(5)
C28_2 C 0.6647(8) 0.5769(6) 0.9328(4)
C29_2 C 0.6903(8) 0.5009(6) 0.9393(4)
H26_2 H 0.7562 0.4862 0.9553
C30_2 C 0.6166(8) 0.4488(6) 0.9216(4)
C31_2 C 0.5167(8) 0.4712(6) 0.9005(4)
H27_2 H 0.4669 0.4350 0.8884
C32_2 C 0.4915(8) 0.5441(6) 0.8973(4)
C33_2 C 0.5663(8) 0.5971(5) 0.9122(4)
H28_2 H 0.5495 0.6481 0.9083
C34_2 C 0.6375(8) 0.3673(5) 0.9247(4)
O13_2 O 0.9326(8) 0.9182(6) 0.2886(4)
Cu8_2 Cu 0.26275(9) 0.55301(6) 0.96136(5)
H30_2 H 0.950202 0.865972 0.279359
H31_2 H 0.910013 0.944277 0.253312
O9_2 O 0.2208(6) 0.1552(4) 0.0508(3)
O10_2 O 0.0738(6) 0.1750(4) 0.0992(4)
H26_3 H 0.2562 0.0138 0.0447
C30_3 C 0.1166(8) 0.0512(6) 0.0784(4)
C31_3 C 0.0167(8) 0.0288(6) 0.0995(4)
C34_3 C 0.1375(8) 0.1327(5) 0.0753(4)
Cu10_2 Cu 0.19600(10) 0.26714(7) 0.06137(5)
Cu2_3 Cu 0.39924(9) 0.54818(7) 0.08638(5)
Cu3_3 Cu 0.28105(10) 0.70597(7) 0.04384(5)
Cu4_2 Cu 0.28833(10) 0.57874(7) 0.64139(5)
Cu5_3 Cu 0.42540(9) 0.57673(7) 0.51543(5)
Cu6_2 Cu 0.30400(10) 0.73286(7) 0.56137(5)
O1_3 O 0.3463(5) 0.6092(4) 0.0210(3)
O2_3 O 0.3685(5) 0.6349(4) 0.5819(3)
O3_3 O 0.4517(6) 0.4865(4) 0.1497(3)
O4_2 O 0.3022(6) 0.4743(4) 0.1999(3)
O5_3 O 0.4852(5) 0.5204(4) 0.4499(3)
O6_2 O 0.3286(5) 0.5021(4) 0.4070(3)
O7_3 O 0.2160(6) 0.7997(4) 0.0658(3)
O8_3 O 0.3203(6) 0.8799(4) 0.0191(4)
N1_3 N 0.3744(6) 0.4599(4) 0.0411(3)
C1_3 C 0.4106(8) 0.3901(5) 0.0490(4)
H1_3 H 0.4528 0.3740 0.0802
C2_3 C 0.3766(8) 0.3465(5) 0.0048(5)
N5_3 N 0.4020(6) 0.6361(5) 0.1344(3)
N6_3 N 0.3492(7) 0.6999(5) 0.1170(4)
C7_3 C 0.4389(9) 0.6488(6) 0.1866(4)
H7_3 H 0.4794 0.6143 0.2081
C8_3 C 0.4106(9) 0.7193(6) 0.2057(4)
H8_3 H 0.4268 0.7421 0.2412
C9_3 C 0.3533(9) 0.7475(6) 0.1605(5)
H9_3 H 0.3208 0.7950 0.1604
N7_2 N 0.3456(7) 0.4877(5) 0.6103(3)
N8_2 N 0.4051(7) 0.4883(5) 0.5610(3)
C10_2 C 0.3479(8) 0.4194(6) 0.6315(4)
H10_2 H 0.3137 0.4044 0.6658
C11_2 C 0.4076(8) 0.3731(6) 0.5966(5)
H11_2 H 0.4218 0.3218 0.6013
C12_2 C 0.4417(7) 0.4199(6) 0.5531(4)
H12_2 H 0.4851 0.4050 0.5220
N9_3 N 0.4243(7) 0.6665(5) 0.4695(4)
N10_3 N 0.3665(7) 0.7270(5) 0.4855(4)
C13_3 C 0.4624(9) 0.6812(6) 0.4163(5)
H13_2 H 0.5060 0.6486 0.3947
C14_3 C 0.4293(11) 0.7490(7) 0.3982(5)
H14_3 H 0.4437 0.7722 0.3626
C15_3 C 0.3700(9) 0.7763(6) 0.4433(5)
H15_3 H 0.3367 0.8235 0.4441
N11_3 N 0.2319(7) 0.7334(5) 0.6344(4)
N12_3 N 0.2283(7) 0.6716(5) 0.6675(4)
C16_3 C 0.1952(9) 0.7901(6) 0.6651(5)
H16_3 H 0.1895 0.8397 0.6520
C17_3 C 0.1666(10) 0.7652(7) 0.7192(5)
H17_3 H 0.1370 0.7934 0.7495
C18_3 C 0.1908(9) 0.6907(6) 0.7190(5)
H18_3 H 0.1821 0.6580 0.7504
N13_2 N 0.7477(8) 0.4530(5) 0.2915(5)
H19_2 H 0.7845 0.4486 0.3233
H20_2 H 0.7787 0.4462 0.2583
C19_3 C 0.4024(8) 0.4784(5) 0.1961(4)
C20_3 C 0.4664(8) 0.4768(6) 0.2490(4)
C21_3 C 0.4196(8) 0.4900(5) 0.3017(4)
H21_3 H 0.3450 0.4969 0.3042
C22_3 C 0.4809(8) 0.4933(6) 0.3508(4)
C23_2 C 0.5903(8) 0.4817(8) 0.3467(4)
H22_2 H 0.6324 0.4810 0.3803
C24_2 C 0.6378(9) 0.4711(9) 0.2940(5)
C25_2 C 0.5749(9) 0.4693(7) 0.2452(4)
H23_2 H 0.6070 0.4628 0.2088
C26_3 C 0.4281(8) 0.5058(5) 0.4069(4)
C27_3 C 0.2423(8) 0.8640(5) 0.0492(5)
C28_3 C 0.1647(8) 0.9231(6) 0.0672(4)
C29_3 C 0.1903(8) 0.9991(6) 0.0607(4)
C33_3 C 0.0663(8) 0.9029(5) 0.0878(4)
H28_3 H 0.0495 0.8519 0.0917
O11_2 O 0.5725(6) 0.5552(5) 0.0545(4)
H29_2 H 0.6121 0.5317 0.0769
O13_3 O 0.4326(8) 0.5818(6) 0.7114(4)
O14_2 O 0.6278(7) 0.6024(5) 0.5361(4)
Cu9_2 Cu 0.21167(10) 0.42126(7) 0.14139(5)
O15_2 O 0.1978(6) 0.5257(4) 0.6999(3)
O17_2 O 0.2792(6) 0.8448(4) 0.5508(3)
O18_2 O 0.4262(6) 0.8250(4) 0.5992(4)
H30_3 H 0.450202 0.634028 0.720641
H31_3 H 0.410013 0.555723 0.746688
H32_2 H 0.595065 0.607841 0.0531526
H33_2 H 0.646477 0.582974 0.574467
H34_2 H 0.671803 0.577344 0.506726
N2_3 N 0.3189(6) 0.4606(4) 0.9911(3)
H2_3 H 0.3887 0.2950 0.9998
C3_3 C 0.3210(8) 0.3931(5) 0.9693(4)
H3_3 H 0.2889 0.3789 0.9342
N3_3 N 0.2039(7) 0.7073(5) 0.9721(4)
N4_3 N 0.1954(7) 0.6466(4) 0.9385(4)
C4_3 C 0.1595(8) 0.7642(6) 0.9439(5)
H4_3 H 0.1554 0.8137 0.9574
C5_3 C 0.1199(8) 0.7389(6) 0.8908(5)
H5_3 H 0.0834 0.7662 0.8623
C6_3 C 0.1468(9) 0.6656(6) 0.8906(5)
H6_3 H 0.1325 0.6325 0.8601
O12_3 O 0.4371(6) 0.7616(4) 0.9902(3)
O16_2 O 0.1714(5) 0.4979(4) 0.9070(3)
H35_3 H 0.435027 0.745207 0.949746
H36_3 H 0.432847 0.816454 0.991855
H24_3 H 0.8397 0.9691 0.1263
H25_3 H 0.8702 0.8878 0.1208
C32_3 C 0.9915(8) 0.9559(6) 0.1027(4)
Cu5_4 Cu 0.07460(9) 0.42327(7) 0.01543(5)
O2_4 O 0.1315(5) 0.3651(4) 0.0819(3)
N7_3 N 0.1544(7) 0.5123(5) 0.1103(3)
N8_3 N 0.0949(7) 0.5117(5) 0.0610(3)
C10_3 C 0.1521(8) 0.5806(6) 0.1315(4)
H10_3 H 0.1863 0.5956 0.1658
C11_3 C 0.0924(8) 0.6269(6) 0.0966(5)
H11_3 H 0.0782 0.6782 0.1013
C12_3 C 0.0583(7) 0.5801(6) 0.0531(4)
H12_3 H 0.0149 0.5950 0.0220
N11_4 N 0.2681(7) 0.2666(5) 0.1344(4)
N12_4 N 0.2717(7) 0.3284(5) 0.1675(4)
C16_4 C 0.3048(9) 0.2099(6) 0.1651(5)
H16_4 H 0.3105 0.1603 0.1520
C17_4 C 0.3334(10) 0.2348(7) 0.2192(5)
H17_4 H 0.3630 0.2066 0.2495
C18_4 C 0.3092(9) 0.3093(6) 0.2190(5)
H18_4 H 0.3179 0.3420 0.2504
O13_4 O 0.0674(8) 0.4182(6) 0.2114(4)
H30_4 H 0.0497977 0.365972 0.220641
H31_4 H 0.0899868 0.444277 0.246688
Cu2_4 Cu 0.10076(9) 0.45182(7) 0.58638(5)
Cu3_4 Cu 0.21895(10) 0.29403(7) 0.54384(5)
O1_4 O 0.1537(5) 0.3908(4) 0.5210(3)
O3_4 O 0.0483(6) 0.5135(4) 0.6497(3)
O5_4 O 0.0148(5) 0.4796(4) 0.9499(3)
O7_4 O 0.2840(6) 0.2003(4) 0.5658(3)
O8_4 O 0.1797(6) 0.1201(4) 0.5191(4)
N1_4 N 0.1256(6) 0.5401(4) 0.5411(3)
N2_4 N 0.1811(6) 0.5394(4) 0.4911(3)
C1_4 C 0.0894(8) 0.6099(5) 0.5490(4)
H1_4 H 0.0472 0.6260 0.5802
C2_4 C 0.1234(8) 0.6535(5) 0.5048(5)
H2_4 H 0.1113 0.7050 0.4998
C3_4 C 0.1790(8) 0.6069(5) 0.4693(4)
H3_4 H 0.2111 0.6211 0.4342
N3_4 N 0.2961(7) 0.2927(5) 0.4721(4)
N4_4 N 0.3046(7) 0.3534(4) 0.4385(4)
C4_4 C 0.3405(8) 0.2358(6) 0.4439(5)
H4_4 H 0.3446 0.1863 0.4574
C5_4 C 0.3801(8) 0.2611(6) 0.3908(5)
H5_4 H 0.4166 0.2338 0.3623
C6_4 C 0.3532(9) 0.3344(6) 0.3906(5)
H6_4 H 0.3675 0.3675 0.3601
N5_4 N 0.0980(6) 0.3639(5) 0.6344(3)
N6_4 N 0.1508(7) 0.3001(5) 0.6170(4)
C7_4 C 0.0611(9) 0.3512(6) 0.6866(4)
H7_4 H 0.0206 0.3857 0.7081
C8_4 C 0.0894(9) 0.2807(6) 0.7057(4)
H8_4 H 0.0732 0.2579 0.7412
C9_4 C 0.1467(9) 0.2525(6) 0.6605(5)
H9_4 H 0.1792 0.2050 0.6604
N9_4 N 0.0757(7) 0.3335(5) 0.9695(4)
N10_4 N 0.1335(7) 0.2730(5) 0.9855(4)
C13_4 C 0.0376(9) 0.3188(6) 0.9163(5)
C14_4 C 0.0707(11) 0.2510(7) 0.8982(5)
H14_4 H 0.0563 0.2278 0.8626
C15_4 C 0.1300(9) 0.2237(6) 0.9433(5)
H15_4 H 0.1633 0.1765 0.9441
C19_4 C 0.0976(8) 0.5216(5) 0.6961(4)
C20_4 C 0.0336(8) 0.5232(6) 0.7490(4)
C21_4 C 0.0804(8) 0.5100(5) 0.8017(4)
H21_4 H 0.1550 0.5031 0.8042
C22_4 C 0.0191(8) 0.5067(6) 0.8508(4)
C26_4 C 0.0719(8) 0.4942(5) 0.9069(4)
H24_4 H 0.6603 0.0309 0.6263
H25_4 H 0.6298 0.1122 0.6208
C27_4 C 0.2577(8) 0.1360(5) 0.5492(5)
C28_4 C 0.3353(8) 0.0769(6) 0.5672(4)
C29_4 C 0.3097(8) 0.0009(6) 0.5607(4)
C32_4 C 0.5085(8) 0.0441(6) 0.6027(4)
C33_4 C 0.4337(8) 0.0971(5) 0.5878(4)
H28_4 H 0.4505 0.1481 0.5917
O12_4 O 0.0629(6) 0.2384(4) 0.4902(3)
H35_4 H 0.0649733 0.254793 0.449746
H36_4 H 0.0671526 0.183546 0.491855
H26_4 H 0.2438 0.9862 0.5447
C30_4 C 0.3834(8) 0.9488(6) 0.5784(4)
C31_4 C 0.4833(8) 0.9712(6) 0.5995(4)
H27_3 H 0.5331 0.9350 0.6116
C34_4 C 0.3625(8) 0.8673(5) 0.5753(4)
N7_4 N 0.6544(7) 0.9877(5) 0.8897(3)
N8_4 N 0.5949(7) 0.9883(5) 0.9390(3)
C10_4 C 0.6521(8) 0.9194(6) 0.8685(4)
H10_4 H 0.6863 0.9044 0.8342
C11_4 C 0.5924(8) 0.8731(6) 0.9034(5)
H11_4 H 0.5782 0.8218 0.8987
C12_4 C 0.5583(7) 0.9199(6) 0.9469(4)
H12_4 H 0.5149 0.9050 0.9780
N13_3 N 0.2477(8) 0.0470(5) 0.7085(5)
H19_3 H 0.2845 0.0514 0.6767
H20_3 H 0.2787 0.0538 0.7417
C23_3 C 0.0903(8) 0.0183(8) 0.6533(4)
H22_3 H 0.1324 0.0190 0.6197
C24_3 C 0.1378(9) 0.0289(9) 0.7060(5)
C25_3 C 0.0749(9) 0.0307(7) 0.7548(4)
H23_3 H 0.1070 0.0372 0.7912
H13_3 H 0.0060 0.8514 0.6053
O11_3 O 0.0725(6) 0.9448(5) 0.9455(4)
H29_3 H 0.1121 0.9683 0.9231
O14_3 O 0.1278(7) 0.8976(5) 0.4639(4)
H32_3 H 0.0950647 0.892159 0.946847
H33_3 H 0.146477 0.917026 0.425533
H34_3 H 0.171803 0.922656 0.493274
H27_4 H 0.9669 0.0650 0.1116
O14_4 O 0.8722(7) 0.3976(5) 0.0361(4)
H33_4 H 0.853523 0.417026 0.0744669
H34_4 H 0.828197 0.422656 0.00672617
H13_4 H 0.9940 0.3514 0.8947
N13_4 N 0.7523(8) 0.5470(5) 0.7915(5)
H19_4 H 0.7155 0.5514 0.8233
H20_4 H 0.7213 0.5538 0.7583
C23_4 C 0.9097(8) 0.5183(8) 0.8467(4)
H22_4 H 0.8676 0.5190 0.8803
C24_4 C 0.8622(9) 0.5289(9) 0.7940(5)
C25_4 C 0.9251(9) 0.5307(7) 0.7452(4)
H23_4 H 0.8930 0.5372 0.7088
O11_4 O 0.9275(6) 0.4448(5) 0.5545(4)
H29_4 H 0.8879 0.4683 0.5769
H32_4 H 0.904935 0.392159 0.553153
loop_
_geom_bond_atom_site_label_1
_geom_bond_atom_site_label_2
_geom_bond_site_symmetry_1
_geom_bond_site_symmetry_2
N14 H24 1_555 1_555
H25 N14 1_555 1_555
C32 N14 1_555 1_555
Cu8 N14 1_555 1_555
Cu1 O1 1_555 1_555
Cu2 O1 1_555 1_555
Cu3 O1 1_555 1_555
O6 C26 1_555 1_555
O7 Cu3 1_555 1_555
O8 C27 1_555 1_555
O9 C34 1_555 1_555
O10 C34 1_555 1_555
N3 Cu3 1_555 1_555
N4 Cu1 1_555 1_555
C4 N3 1_555 1_555
H4 C4 1_555 1_555
C5 C4 1_555 1_555
H5 C5 1_555 1_555
C6 N4 1_555 1_555
H6 C6 1_555 1_555
N5 Cu2 1_555 1_555
N6 Cu3 1_555 1_555
C7 N5 1_555 1_555
H7 C7 1_555 1_555
C8 C7 1_555 1_555
H8 C8 1_555 1_555
C9 N6 1_555 1_555
H9 C9 1_555 1_555
C13 N9 1_555 1_555
H13 C13 1_555 1_555
C14 C13 1_555 1_555
H14 C14 1_555 1_555
C15 N10 1_555 1_555
H15 C15 1_555 1_555
C26 O5 1_555 1_555
C27 O7 1_555 1_555
C28 C27 1_555 1_555
C29 C28 1_555 1_555
H26 C29 1_555 1_555
C30 C29 1_555 1_555
C31 C30 1_555 1_555
C33 C28 1_555 1_555
H28 C33 1_555 1_555
C34 C30 1_555 1_555
O11 Cu2 1_555 1_555
H29 O11 1_555 1_555
O12 Cu3 1_555 1_555
Cu10 O9 1_555 1_555
N15 Cu1 1_555 1_555
O10 Cu10 1_555 1_555
N3 N4 1_555 1_555
C5 C6 1_555 1_555
N5 N6 1_555 1_555
C8 C9 1_555 1_555
N9 N10 1_555 1_555
C14 C15 1_555 1_555
O11 H32 1_555 1_555
O12 H35 1_555 1_555
O12 H36 1_555 1_555
Cu4 O2 1_555 1_555
Cu5 O2 1_555 1_555
Cu6 O2 1_555 1_555
N11 Cu6 1_555 1_555
N12 Cu4 1_555 1_555
C16 N11 1_555 1_555
H16 C16 1_555 1_555
C17 C16 1_555 1_555
H17 C17 1_555 1_555
C18 N12 1_555 1_555
H18 C18 1_555 1_555
O13 Cu4 1_555 1_555
O14 Cu5 1_555 1_555
O15 Cu4 1_555 1_555
O17 Cu6 1_555 1_555
O18 Cu6 1_555 1_555
N11 N12 1_555 1_555
C17 C18 1_555 1_555
O13 H30 1_555 1_555
O13 H31 1_555 1_555
O14 H33 1_555 1_555
O14 H34 1_555 1_555
O4 C19 1_555 1_555
C1 N1 1_555 1_555
H1 C1 1_555 1_555
C2 C1 1_555 1_555
H2 C2 1_555 1_555
C3 N2 1_555 1_555
H3 C3 1_555 1_555
N13 H19 1_555 1_555
H20 N13 1_555 1_555
C19 O3 1_555 1_555
C20 C19 1_555 1_555
C21 C20 1_555 1_555
H21 C21 1_555 1_555
C22 C21 1_555 1_555
C23 C22 1_555 1_555
H22 C23 1_555 1_555
C24 N13 1_555 1_555
C25 C20 1_555 1_555
H23 C25 1_555 1_555
Cu9 O4 1_555 1_555
N1 N2 1_555 1_555
C2 C3 1_555 1_555
C23 C24 1_555 1_555
C24 C25 1_555 1_555
C3_2 N2_2 1_555 1_555
H3_2 C3_2 1_555 1_555
O15 C19_2 1_555 1_555
C1_2 N1_2 1_555 1_555
H1_2 C1_2 1_555 1_555
C2_2 C1_2 1_555 1_555
C10 N7 1_555 1_555
H10 C10 1_555 1_555
C11 C10 1_555 1_555
H11 C11 1_555 1_555
C12 N8 1_555 1_555
H12 C12 1_555 1_555
C19_2 O3_2 1_555 1_555
C20_2 C19_2 1_555 1_555
C21_2 C20_2 1_555 1_555
H21_2 C21_2 1_555 1_555
C22_2 C21_2 1_555 1_555
N7 N8 1_555 1_555
C11 C12 1_555 1_555
N4_2 Cu7 1_555 1_555
C4_2 N3_2 1_555 1_555
H4_2 C4_2 1_555 1_555
C5_2 C4_2 1_555 1_555
H5_2 C5_2 1_555 1_555
C6_2 N4_2 1_555 1_555
H6_2 C6_2 1_555 1_555
N15_2 Cu7 1_555 1_555
N3_2 N4_2 1_555 1_555
C5_2 C6_2 1_555 1_555
O12_2 H35_2 1_555 1_555
O12_2 H36_2 1_555 1_555
Cu2_2 O1_2 1_555 1_555
Cu3_2 O1_2 1_555 1_555
Cu9 O2_2 1_555 1_555
Cu5_2 O2_2 1_555 1_555
Cu10 O2_2 1_555 1_555
O5_2 Cu5_2 1_555 1_555
O16 C26_2 1_555 1_555
O7_2 Cu3_2 1_555 1_555
O8_2 C27_2 1_555 1_555
O17 C34_2 1_555 1_555
O18 C34_2 1_555 1_555
N5_2 Cu2_2 1_555 1_555
N6_2 Cu3_2 1_555 1_555
C7_2 N5_2 1_555 1_555
H7_2 C7_2 1_555 1_555
C8_2 C7_2 1_555 1_555
H8_2 C8_2 1_555 1_555
C9_2 N6_2 1_555 1_555
H9_2 C9_2 1_555 1_555
N9_2 Cu5_2 1_555 1_555
N10_2 Cu10 1_555 1_555
C13_2 N9_2 1_555 1_555
C14_2 C13_2 1_555 1_555
H14_2 C14_2 1_555 1_555
C15_2 N10_2 1_555 1_555
H15_2 C15_2 1_555 1_555
N11_2 Cu10 1_555 1_555
N12_2 Cu9 1_555 1_555
C16_2 N11_2 1_555 1_555
H16_2 C16_2 1_555 1_555
C17_2 C16_2 1_555 1_555
H17_2 C17_2 1_555 1_555
C18_2 N12_2 1_555 1_555
H18_2 C18_2 1_555 1_555
C26_2 O5_2 1_555 1_555
N14_2 H24_2 1_555 1_555
H25_2 N14_2 1_555 1_555
C27_2 O7_2 1_555 1_555
C28_2 C27_2 1_555 1_555
C29_2 C28_2 1_555 1_555
H26_2 C29_2 1_555 1_555
C30_2 C29_2 1_555 1_555
C31_2 C30_2 1_555 1_555
H27_2 C31_2 1_555 1_555
C32_2 N14_2 1_555 1_555
C33_2 C28_2 1_555 1_555
H28_2 C33_2 1_555 1_555
C34_2 C30_2 1_555 1_555
O13_2 Cu9 1_555 1_555
Cu8_2 N14_2 1_555 1_555
N5_2 N6_2 1_555 1_555
C8_2 C9_2 1_555 1_555
N9_2 N10_2 1_555 1_555
C14_2 C15_2 1_555 1_555
N11_2 N12_2 1_555 1_555
C17_2 C18_2 1_555 1_555
C31_2 C32_2 1_555 1_555
C32_2 C33_2 1_555 1_555
O13_2 H30_2 1_555 1_555
O13_2 H31_2 1_555 1_555
O9_2 C34_3 1_555 1_555
O10_2 C34_3 1_555 1_555
C31_3 C30_3 1_555 1_555
C34_3 C30_3 1_555 1_555
Cu10_2 O9_2 1_555 1_555
O10_2 Cu10_2 1_555 1_555
Cu2_3 O1_3 1_555 1_555
Cu3_3 O1_3 1_555 1_555
Cu4_2 O2_3 1_555 1_555
Cu5_3 O2_3 1_555 1_555
Cu6_2 O2_3 1_555 1_555
O3_3 Cu2_3 1_555 1_555
O4_2 C19_3 1_555 1_555
O5_3 Cu5_3 1_555 1_555
O6_2 C26_3 1_555 1_555
O7_3 Cu3_3 1_555 1_555
O8_3 C27_3 1_555 1_555
N1_3 Cu2_3 1_555 1_555
C1_3 N1_3 1_555 1_555
H1_3 C1_3 1_555 1_555
C2_3 C1_3 1_555 1_555
N5_3 Cu2_3 1_555 1_555
N6_3 Cu3_3 1_555 1_555
C7_3 N5_3 1_555 1_555
H7_3 C7_3 1_555 1_555
C8_3 C7_3 1_555 1_555
H8_3 C8_3 1_555 1_555
C9_3 N6_3 1_555 1_555
H9_3 C9_3 1_555 1_555
N7_2 Cu4_2 1_555 1_555
N8_2 Cu5_3 1_555 1_555
C10_2 N7_2 1_555 1_555
H10_2 C10_2 1_555 1_555
C11_2 C10_2 1_555 1_555
H11_2 C11_2 1_555 1_555
C12_2 N8_2 1_555 1_555
H12_2 C12_2 1_555 1_555
N9_3 Cu5_3 1_555 1_555
N10_3 Cu6_2 1_555 1_555
C13_3 N9_3 1_555 1_555
H13_2 C13_3 1_555 1_555
C14_3 C13_3 1_555 1_555
H14_3 C14_3 1_555 1_555
C15_3 N10_3 1_555 1_555
H15_3 C15_3 1_555 1_555
N11_3 Cu6_2 1_555 1_555
N12_3 Cu4_2 1_555 1_555
C16_3 N11_3 1_555 1_555
H16_3 C16_3 1_555 1_555
C17_3 C16_3 1_555 1_555
H17_3 C17_3 1_555 1_555
C18_3 N12_3 1_555 1_555
H18_3 C18_3 1_555 1_555
N13_2 H19_2 1_555 1_555
H20_2 N13_2 1_555 1_555
C19_3 O3_3 1_555 1_555
C20_3 C19_3 1_555 1_555
C21_3 C20_3 1_555 1_555
H21_3 C21_3 1_555 1_555
C22_3 C21_3 1_555 1_555
C23_2 C22_3 1_555 1_555
H22_2 C23_2 1_555 1_555
C24_2 N13_2 1_555 1_555
C25_2 C20_3 1_555 1_555
H23_2 C25_2 1_555 1_555
C26_3 O5_3 1_555 1_555
C27_3 O7_3 1_555 1_555
C28_3 C27_3 1_555 1_555
C29_3 C28_3 1_555 1_555
C33_3 C28_3 1_555 1_555
H28_3 C33_3 1_555 1_555
O11_2 Cu2_3 1_555 1_555
H29_2 O11_2 1_555 1_555
O13_3 Cu4_2 1_555 1_555
O14_2 Cu5_3 1_555 1_555
Cu8 O6_2 1_555 1_555
Cu9_2 O4_2 1_555 1_555
O15_2 Cu4_2 1_555 1_555
O17_2 Cu6_2 1_555 1_555
O18_2 Cu6_2 1_555 1_555
N5_3 N6_3 1_555 1_555
C8_3 C9_3 1_555 1_555
N7_2 N8_2 1_555 1_555
C11_2 C12_2 1_555 1_555
N9_3 N10_3 1_555 1_555
C14_3 C15_3 1_555 1_555
N11_3 N12_3 1_555 1_555
C17_3 C18_3 1_555 1_555
C22_3 C26_3 1_555 1_555
C23_2 C24_2 1_555 1_555
C24_2 C25_2 1_555 1_555
O13_3 H30_3 1_555 1_555
O13_3 H31_3 1_555 1_555
O11_2 H32_2 1_555 1_555
O14_2 H33_2 1_555 1_555
O14_2 H34_2 1_555 1_555
N2_3 Cu8_2 1_555 1_555
C3_3 N2_3 1_555 1_555
H3_3 C3_3 1_555 1_555
N4_3 Cu8_2 1_555 1_555
C4_3 N3_3 1_555 1_555
H4_3 C4_3 1_555 1_555
C5_3 C4_3 1_555 1_555
H5_3 C5_3 1_555 1_555
C6_3 N4_3 1_555 1_555
H6_3 C6_3 1_555 1_555
O16_2 Cu8_2 1_555 1_555
N3_3 N4_3 1_555 1_555
C5_3 C6_3 1_555 1_555
O12_3 H35_3 1_555 1_555
O12_3 H36_3 1_555 1_555
N15_2 H24_3 1_555 1_555
H25_3 N15_2 1_555 1_555
C32_3 N15_2 1_555 1_555
Cu9_2 O2_4 1_555 1_555
Cu5_4 O2_4 1_555 1_555
Cu10_2 O2_4 1_555 1_555
N7_3 Cu9_2 1_555 1_555
N8_3 Cu5_4 1_555 1_555
C10_3 N7_3 1_555 1_555
H10_3 C10_3 1_555 1_555
C11_3 C10_3 1_555 1_555
H11_3 C11_3 1_555 1_555
C12_3 N8_3 1_555 1_555
H12_3 C12_3 1_555 1_555
N11_4 Cu10_2 1_555 1_555
N12_4 Cu9_2 1_555 1_555
C16_4 N11_4 1_555 1_555
H16_4 C16_4 1_555 1_555
C17_4 C16_4 1_555 1_555
H17_4 C17_4 1_555 1_555
C18_4 N12_4 1_555 1_555
H18_4 C18_4 1_555 1_555
O13_4 Cu9_2 1_555 1_555
N7_3 N8_3 1_555 1_555
C11_3 C12_3 1_555 1_555
N11_4 N12_4 1_555 1_555
C17_4 C18_4 1_555 1_555
O13_4 H30_4 1_555 1_555
O13_4 H31_4 1_555 1_555
Cu8 O1_4 1_555 1_555
Cu2_4 O1_4 1_555 1_555
Cu3_4 O1_4 1_555 1_555
O3_4 Cu2_4 1_555 1_555
O15_2 C19_4 1_555 1_555
O16_2 C26_4 1_555 1_555
O7_4 Cu3_4 1_555 1_555
O8_4 C27_4 1_555 1_555
N1_4 Cu2_4 1_555 1_555
N2_4 Cu8 1_555 1_555
C1_4 N1_4 1_555 1_555
H1_4 C1_4 1_555 1_555
C2_4 C1_4 1_555 1_555
H2_4 C2_4 1_555 1_555
C3_4 N2_4 1_555 1_555
H3_4 C3_4 1_555 1_555
N3_4 Cu3_4 1_555 1_555
N4_4 Cu8 1_555 1_555
C4_4 N3_4 1_555 1_555
H4_4 C4_4 1_555 1_555
C5_4 C4_4 1_555 1_555
H5_4 C5_4 1_555 1_555
C6_4 N4_4 1_555 1_555
H6_4 C6_4 1_555 1_555
N5_4 Cu2_4 1_555 1_555
N6_4 Cu3_4 1_555 1_555
C7_4 N5_4 1_555 1_555
H7_4 C7_4 1_555 1_555
C8_4 C7_4 1_555 1_555
H8_4 C8_4 1_555 1_555
C9_4 N6_4 1_555 1_555
H9_4 C9_4 1_555 1_555
C13_4 N9_4 1_555 1_555
C14_4 C13_4 1_555 1_555
H14_4 C14_4 1_555 1_555
C15_4 N10_4 1_555 1_555
H15_4 C15_4 1_555 1_555
C19_4 O3_4 1_555 1_555
C20_4 C19_4 1_555 1_555
C21_4 C20_4 1_555 1_555
H21_4 C21_4 1_555 1_555
C22_4 C21_4 1_555 1_555
C26_4 O5_4 1_555 1_555
N15 H24_4 1_555 1_555
H25_4 N15 1_555 1_555
C27_4 O7_4 1_555 1_555
C28_4 C27_4 1_555 1_555
C29_4 C28_4 1_555 1_555
C32_4 N15 1_555 1_555
C33_4 C28_4 1_555 1_555
H28_4 C33_4 1_555 1_555
O12_4 Cu3_4 1_555 1_555
N1_4 N2_4 1_555 1_555
C2_4 C3_4 1_555 1_555
N3_4 N4_4 1_555 1_555
C5_4 C6_4 1_555 1_555
N5_4 N6_4 1_555 1_555
C8_4 C9_4 1_555 1_555
N9_4 N10_4 1_555 1_555
C14_4 C15_4 1_555 1_555
C22_4 C26_4 1_555 1_555
C32_4 C33_4 1_555 1_555
O12_4 H35_4 1_555 1_555
O12_4 H36_4 1_555 1_555
O17_2 C34_4 1_555 1_555
O18_2 C34_4 1_555 1_555
C31_4 C30_4 1_555 1_555
H27_3 C31_4 1_555 1_555
C34_4 C30_4 1_555 1_555
C10_4 N7_4 1_555 1_555
H10_4 C10_4 1_555 1_555
C11_4 C10_4 1_555 1_555
H11_4 C11_4 1_555 1_555
C12_4 N8_4 1_555 1_555
H12_4 C12_4 1_555 1_555
N7_4 N8_4 1_555 1_555
C11_4 C12_4 1_555 1_555
N13_3 H19_3 1_555 1_555
H20_3 N13_3 1_555 1_555
H22_3 C23_3 1_555 1_555
C24_3 N13_3 1_555 1_555
H23_3 C25_3 1_555 1_555
C23_3 C24_3 1_555 1_555
C24_3 C25_3 1_555 1_555
H29_3 O11_3 1_555 1_555
O11_3 H32_3 1_555 1_555
O14_3 H33_3 1_555 1_555
O14_3 H34_3 1_555 1_555
O14_4 H33_4 1_555 1_555
O14_4 H34_4 1_555 1_555
N13_4 H19_4 1_555 1_555
H20_4 N13_4 1_555 1_555
H22_4 C23_4 1_555 1_555
C24_4 N13_4 1_555 1_555
H23_4 C25_4 1_555 1_555
H29_4 O11_4 1_555 1_555
C23_4 C24_4 1_555 1_555
C24_4 C25_4 1_555 1_555
O11_4 H32_4 1_555 1_555

#END
