
###############################################################################
#
# This file contains modified crystal structure data generated from the
# MOF subset of the Cambridge Structural Database (CSD) v543 
# hosted by the Cambridge Crystallographic Data Centre (CCDC).
#
# This work is licensed under the Creative Commons
# Attribution-NonCommercial-ShareAlike 4.0 International License.
# To view a copy of this license, visit
# http://creativecommons.org/licenses/by-nc-sa/4.0/
# or send a letter to
# Creative Commons, PO Box 1866, Mountain View, CA 94042, USA.
#
# CIF created using the CSD Python API on 29 September 2022
# The structure has been converted into the P1 space group
# The structure has a 3D framework
# The original CSD entry SIVGAH is in the orthorhombic crystal system
# The framework has been calculated to contain at least 10.0% void space
# The void calculation uses a probe of radius 1.32A, grid spacing 0.4
# H atom positions have been added when not included in the experimental data
#
###############################################################################

data_SIVGAH
_chemical_formula_moiety         '(C42 H72 N64 Zn8)n'
_symmetry_cell_setting           triclinic
_symmetry_space_group_name_H-M   'P 1'
_symmetry_Int_Tables_number      1
_space_group_name_Hall           'P 1'
loop_
_symmetry_equiv_pos_site_id
_symmetry_equiv_pos_as_xyz
1 x,y,z
_cell_length_a                   15.1635(4)
_cell_length_b                   17.9739(4)
_cell_length_c                   10.0176(3)
_cell_angle_alpha                90
_cell_angle_beta                 90
_cell_angle_gamma                90
_cell_volume                     2730.27
loop_
_atom_site_label
_atom_site_type_symbol
_atom_site_fract_x
_atom_site_fract_y
_atom_site_fract_z
C2 C 0.0959(3) 0.3137(3) 0.1318(6)
H1 H 0.0999 0.3526 0.0664
H2 H 0.1502 0.2862 0.1334
H3 H 0.0854 0.3351 0.2182
C3 C 0.0221(2) 0.2630(2) 0.0968(4)
N12 N 0.0070(3) 0.53547(19) 0.0068(4)
N13 N 0.0003(2) 0.79583(17) 0.1678(3)
N16 N 0.0686(3) 0.82838(19) 0.1025(5)
Zn5 Zn 0.04841(2) 0.162869(17) 0.33780(6)
C4 C 0.0000 0.5000 0.6579(9)
C5 C 0.0000 0.5000 0.8047(5)
N11 N 0.0118(2) 0.55919(17) 0.8785(3)
Zn2 Zn 0.04841(2) 0.662869(17) 0.83780(6)
N14 N 0.0295(2) 0.73126(17) 0.9922(4)
N15 N 0.0863(2) 0.79089(19) 0.9971(4)
N17 N 0.1788(2) 0.65487(16) 0.8045(3)
N19 N 0.0003(2) 0.29583(17) 0.6678(3)
H11 H 0.0112302 0.556332 0.621664
H12 H 0.0522113 0.463629 0.621664
N3 N 0.9997(2) 0.20417(17) 0.1678(3)
N7 N 0.9314(3) 0.17162(19) 0.1025(5)
N8 N 0.9930(3) 0.46453(19) 0.0068(4)
C6 C 0.7500 0.3381(5) 0.0282(8)
C7 C 0.9041(3) 0.6863(3) 0.1318(6)
H4 H 0.9001 0.6474 0.0664
H5 H 0.8498 0.7138 0.1334
H6 H 0.9146 0.6649 0.2182
C8 C 0.9779(2) 0.7370(2) 0.0968(4)
Zn4 Zn 0.95159(2) 0.837131(17) 0.33780(6)
H7 H 0.782981 0.386935 0.0687932
H8 H 0.682298 0.33626 0.0643176
H9 H 0.784722 0.288126 0.0600664
Zn1 Zn 0.95159(2) 0.337131(17) 0.83780(6)
N1 N 0.8212(2) 0.34513(16) 0.8045(3)
C1 C 0.7500 0.3421(3) 0.8824(6)
N2 N 0.9882(2) 0.44081(17) 0.8785(3)
N4 N 0.9705(2) 0.26874(17) 0.9922(4)
N5 N 0.7929(2) 0.3513(2) 0.6759(4)
N6 N 0.9137(2) 0.20911(19) 0.9971(4)
C4_2 C 1.0000 0.5000 0.6579(9)
C5_2 C 1.0000 0.5000 0.8047(5)
N9 N 0.6788(2) 0.34513(16) 0.8045(3)
N10 N 0.7071(2) 0.3513(2) 0.6759(4)
Zn3 Zn 0.54841(2) 0.337131(17) 0.83780(6)
N18 N 0.9997(2) 0.70417(17) 0.6678(3)
H10 H 0.936559 0.480039 0.621664
C6_2 C 0.2500 0.6619(5) 0.0282(8)
H7_2 H 0.217019 0.613065 0.0687932
H8_2 H 0.317702 0.66374 0.0643176
H9_2 H 0.215278 0.711874 0.0600664
C1_2 C 0.2500 0.6579(3) 0.8824(6)
N5_2 N 0.2071(2) 0.6487(2) 0.6759(4)
N9_2 N 0.3212(2) 0.65487(16) 0.8045(3)
N10_2 N 0.2929(2) 0.6487(2) 0.6759(4)
Zn3_2 Zn 0.45159(2) 0.662869(17) 0.83780(6)
H10_2 H 0.0634414 0.519961 0.621664
H11_2 H 0.98877 0.443668 0.621664
H12_2 H 0.947789 0.536371 0.621664
N3_2 N 0.4997(2) 0.79583(17) 0.1678(3)
C2_2 C 0.5959(3) 0.6863(3) 0.1318(6)
H1_2 H 0.5999 0.6474 0.0664
H2_2 H 0.6502 0.7138 0.1334
H3_2 H 0.5854 0.6649 0.2182
C3_2 C 0.5221(2) 0.7370(2) 0.0968(4)
N7_2 N 0.4314(3) 0.82838(19) 0.1025(5)
N8_2 N 0.4930(3) 0.53547(19) 0.0068(4)
N12_2 N 0.5070(3) 0.46453(19) 0.0068(4)
N13_2 N 0.5003(2) 0.20417(17) 0.1678(3)
C7_2 C 0.4041(3) 0.3137(3) 0.1318(6)
H4_2 H 0.4001 0.3526 0.0664
H5_2 H 0.3498 0.2862 0.1334
H6_2 H 0.4146 0.3351 0.2182
C8_2 C 0.4779(2) 0.2630(2) 0.0968(4)
N16_2 N 0.5686(3) 0.17162(19) 0.1025(5)
Zn4_2 Zn 0.45159(2) 0.162869(17) 0.33780(6)
Zn5_2 Zn 0.54841(2) 0.837131(17) 0.33780(6)
H7_3 H 0.282981 0.613065 0.0687932
H8_3 H 0.182298 0.66374 0.0643176
H9_3 H 0.284722 0.711874 0.0600664
N2_2 N 0.4882(2) 0.55919(17) 0.8785(3)
N4_2 N 0.4705(2) 0.73126(17) 0.9922(4)
N6_2 N 0.4137(2) 0.79089(19) 0.9971(4)
C4_3 C 0.5000 0.5000 0.6579(9)
C5_3 C 0.5000 0.5000 0.8047(5)
N11_2 N 0.5118(2) 0.44081(17) 0.8785(3)
N14_2 N 0.5295(2) 0.26874(17) 0.9922(4)
N15_2 N 0.5863(2) 0.20911(19) 0.9971(4)
N18_2 N 0.4997(2) 0.29583(17) 0.6678(3)
N19_2 N 0.5003(2) 0.70417(17) 0.6678(3)
H10_3 H 0.436559 0.519961 0.621664
H11_3 H 0.51123 0.443668 0.621664
H12_3 H 0.552211 0.536371 0.621664
H7_4 H 0.717019 0.386935 0.0687932
H8_4 H 0.817702 0.33626 0.0643176
H9_4 H 0.715278 0.288126 0.0600664
H10_4 H 0.563441 0.480039 0.621664
H11_4 H 0.48877 0.556332 0.621664
H12_4 H 0.447789 0.463629 0.621664
C4_4 C 0.0000 -0.0000 0.1579(9)
C5_4 C 0.0000 0.0000 0.3047(5)
N11_3 N 0.0118(2) 0.05919(17) 0.3785(3)
N12_3 N 0.0070(3) 0.03547(19) 0.5068(4)
N14_3 N 0.0295(2) 0.23126(17) 0.4922(4)
N15_3 N 0.0863(2) 0.29089(19) 0.4971(4)
N16_3 N 0.0686(3) 0.32838(19) 0.6025(5)
N17_2 N 0.1788(2) 0.15487(16) 0.3045(3)
H11_5 H 0.0112302 0.0563316 0.121664
C2_3 C 0.0959(3) 0.8137(3) 0.6318(6)
H1_3 H 0.0999 0.8526 0.5664
H2_3 H 0.1502 0.7862 0.6334
H3_3 H 0.0854 0.8351 0.7182
C3_3 C 0.0221(2) 0.7630(2) 0.5968(4)
C4_5 C 0.0000 1.0000 0.1579(9)
C5_5 C 0.0000 1.0000 0.3047(5)
H12_5 H 0.0522113 0.963629 0.121664
C4_6 C 1.0000 -0.0000 0.1579(9)
C5_6 C 1.0000 0.0000 0.3047(5)
C7_3 C 0.9041(3) 0.1863(3) 0.6318(6)
H4_3 H 0.9001 0.1474 0.5664
H5_3 H 0.8498 0.2138 0.6334
H6_3 H 0.9146 0.1649 0.7182
C8_3 C 0.9779(2) 0.2370(2) 0.5968(4)
N1_2 N 0.8212(2) 0.84513(16) 0.3045(3)
C1_3 C 0.7500 0.8421(3) 0.3824(6)
N2_3 N 0.9882(2) 0.94081(17) 0.3785(3)
N4_3 N 0.9705(2) 0.76874(17) 0.4922(4)
N5_3 N 0.7929(2) 0.8513(2) 0.1759(4)
N6_3 N 0.9137(2) 0.70911(19) 0.4971(4)
N7_3 N 0.9314(3) 0.67162(19) 0.6025(5)
N8_3 N 0.9930(3) 0.96453(19) 0.5068(4)
C4_7 C 1.0000 1.0000 0.1579(9)
C5_7 C 1.0000 1.0000 0.3047(5)
C6_3 C 0.7500 0.8381(5) 0.5282(8)
N9_3 N 0.6788(2) 0.84513(16) 0.3045(3)
N10_3 N 0.7071(2) 0.8513(2) 0.1759(4)
H7_5 H 0.782981 0.886935 0.568793
H8_5 H 0.682298 0.83626 0.564318
H9_5 H 0.784722 0.788126 0.560066
H10_5 H 0.936559 0.980039 0.121664
C1_4 C 0.2500 0.1579(3) 0.3824(6)
N5_4 N 0.2071(2) 0.1487(2) 0.1759(4)
C6_4 C 0.2500 0.1619(5) 0.5282(8)
N9_4 N 0.3212(2) 0.15487(16) 0.3045(3)
N10_4 N 0.2929(2) 0.1487(2) 0.1759(4)
H7_6 H 0.217019 0.113065 0.568793
H8_6 H 0.317702 0.16374 0.564318
H9_6 H 0.215278 0.211874 0.560066
H10_6 H 0.0634414 0.0199609 0.121664
H12_6 H 0.947789 0.0363707 0.121664
H11_6 H 0.98877 0.943668 0.121664
N2_4 N 0.4882(2) 0.05919(17) 0.3785(3)
N4_4 N 0.4705(2) 0.23126(17) 0.4922(4)
C2_4 C 0.5959(3) 0.1863(3) 0.6318(6)
H1_4 H 0.5999 0.1474 0.5664
H2_4 H 0.6502 0.2138 0.6334
H3_4 H 0.5854 0.1649 0.7182
C3_4 C 0.5221(2) 0.2370(2) 0.5968(4)
N6_4 N 0.4137(2) 0.29089(19) 0.4971(4)
N7_4 N 0.4314(3) 0.32838(19) 0.6025(5)
N8_4 N 0.4930(3) 0.03547(19) 0.5068(4)
C4_8 C 0.5000 -0.0000 0.1579(9)
C5_8 C 0.5000 0.0000 0.3047(5)
H7_7 H 0.282981 0.113065 0.568793
H8_7 H 0.182298 0.16374 0.564318
H9_7 H 0.284722 0.211874 0.560066
H10_7 H 0.436559 0.0199609 0.121664
H12_7 H 0.552211 0.0363707 0.121664
C4_9 C 0.5000 1.0000 0.1579(9)
C5_9 C 0.5000 1.0000 0.3047(5)
N11_4 N 0.5118(2) 0.94081(17) 0.3785(3)
N12_4 N 0.5070(3) 0.96453(19) 0.5068(4)
N14_4 N 0.5295(2) 0.76874(17) 0.4922(4)
C7_4 C 0.4041(3) 0.8137(3) 0.6318(6)
H4_4 H 0.4001 0.8526 0.5664
H5_4 H 0.3498 0.7862 0.6334
H6_4 H 0.4146 0.8351 0.7182
C8_4 C 0.4779(2) 0.7630(2) 0.5968(4)
N15_4 N 0.5863(2) 0.70911(19) 0.4971(4)
N16_4 N 0.5686(3) 0.67162(19) 0.6025(5)
H11_7 H 0.51123 0.943668 0.121664
H11_8 H 0.48877 0.0563316 0.121664
H7_8 H 0.717019 0.886935 0.568793
H8_8 H 0.817702 0.83626 0.564318
H9_8 H 0.715278 0.788126 0.560066
H10_8 H 0.563441 0.980039 0.121664
H12_8 H 0.447789 0.963629 0.121664
loop_
_geom_bond_atom_site_label_1
_geom_bond_atom_site_label_2
_geom_bond_site_symmetry_1
_geom_bond_site_symmetry_2
C2 H1 1_555 1_555
H2 C2 1_555 1_555
H3 C2 1_555 1_555
N16 N13 1_555 1_555
C2 C3 1_555 1_555
C4 C5 1_555 1_555
N11 C5 1_555 1_555
Zn2 N11 1_555 1_555
N14 Zn2 1_555 1_555
N15 N14 1_555 1_555
N17 Zn2 1_555 1_555
C4 H11 1_555 1_555
C4 H12 1_555 1_555
N7 N3 1_555 1_555
C7 H4 1_555 1_555
H5 C7 1_555 1_555
H6 C7 1_555 1_555
C7 C8 1_555 1_555
C6 H7 1_555 1_555
C6 H8 1_555 1_555
C6 H9 1_555 1_555
Zn1 N1 1_555 1_555
N1 C1 1_555 1_555
N2 Zn1 1_555 1_555
N4 Zn1 1_555 1_555
N5 N1 1_555 1_555
N6 N4 1_555 1_555
C4_2 C5_2 1_555 1_555
C5_2 N2 1_555 1_555
N9 C1 1_555 1_555
N10 N5 1_555 1_555
Zn3 N9 1_555 1_555
N9 N10 1_555 1_555
C4_2 H10 1_555 1_555
C6_2 H7_2 1_555 1_555
C6_2 H8_2 1_555 1_555
C6_2 H9_2 1_555 1_555
N17 C1_2 1_555 1_555
N5_2 N17 1_555 1_555
N9_2 C1_2 1_555 1_555
N10_2 N5_2 1_555 1_555
Zn3_2 N9_2 1_555 1_555
N9_2 N10_2 1_555 1_555
C4 H10_2 1_555 1_555
C4_2 H11_2 1_555 1_555
C4_2 H12_2 1_555 1_555
N3_2 C3_2 1_555 1_555
C2_2 H1_2 1_555 1_555
H2_2 C2_2 1_555 1_555
H3_2 C2_2 1_555 1_555
N7_2 N3_2 1_555 1_555
N12_2 N8_2 1_555 1_555
N13_2 C8_2 1_555 1_555
C7_2 H4_2 1_555 1_555
H5_2 C7_2 1_555 1_555
H6_2 C7_2 1_555 1_555
N16_2 N13_2 1_555 1_555
Zn4_2 N13_2 1_555 1_555
Zn5_2 N3_2 1_555 1_555
C2_2 C3_2 1_555 1_555
C7_2 C8_2 1_555 1_555
C6_2 H7_3 1_555 1_555
C6_2 H8_3 1_555 1_555
C6_2 H9_3 1_555 1_555
N2_2 Zn3_2 1_555 1_555
N4_2 Zn3_2 1_555 1_555
N6_2 N4_2 1_555 1_555
C4_3 C5_3 1_555 1_555
C5_3 N2_2 1_555 1_555
N11_2 C5_3 1_555 1_555
Zn3 N11_2 1_555 1_555
N14_2 Zn3 1_555 1_555
N15_2 N14_2 1_555 1_555
N18_2 Zn3 1_555 1_555
N19_2 Zn3_2 1_555 1_555
C4_3 H10_3 1_555 1_555
C4_3 H11_3 1_555 1_555
C4_3 H12_3 1_555 1_555
C6 H7_4 1_555 1_555
C6 H8_4 1_555 1_555
C6 H9_4 1_555 1_555
C4_3 H10_4 1_555 1_555
C4_3 H11_4 1_555 1_555
C4_3 H12_4 1_555 1_555
C4_4 C5_4 1_555 1_555
N11_3 C5_4 1_555 1_555
Zn5 N11_3 1_555 1_555
N14_3 Zn5 1_555 1_555
N15_3 N14_3 1_555 1_555
N16_3 N19 1_555 1_555
N17_2 Zn5 1_555 1_555
N11_3 N12_3 1_555 1_555
N15_3 N16_3 1_555 1_555
C4_4 H11_5 1_555 1_555
C2_3 H1_3 1_555 1_555
H2_3 C2_3 1_555 1_555
H3_3 C2_3 1_555 1_555
C4_5 C5_5 1_555 1_555
C2_3 C3_3 1_555 1_555
C4_5 H12_5 1_555 1_555
C4_6 C5_6 1_555 1_555
C7_3 H4_3 1_555 1_555
H5_3 C7_3 1_555 1_555
H6_3 C7_3 1_555 1_555
C7_3 C8_3 1_555 1_555
Zn4 N1_2 1_555 1_555
N1_2 C1_3 1_555 1_555
C1_3 C6_3 1_555 1_555
N2_3 Zn4 1_555 1_555
N4_3 Zn4 1_555 1_555
N5_3 N1_2 1_555 1_555
N6_3 N4_3 1_555 1_555
N7_3 N18 1_555 1_555
N8_3 N2_3 1_555 1_555
C4_7 C5_7 1_555 1_555
C5_7 N2_3 1_555 1_555
N9_3 C1_3 1_555 1_555
N10_3 N5_3 1_555 1_555
Zn5_2 N9_3 1_555 1_555
N6_3 N7_3 1_555 1_555
N9_3 N10_3 1_555 1_555
C6_3 H7_5 1_555 1_555
C6_3 H8_5 1_555 1_555
C6_3 H9_5 1_555 1_555
C4_7 H10_5 1_555 1_555
N17_2 C1_4 1_555 1_555
C1_4 C6_4 1_555 1_555
N5_4 N17_2 1_555 1_555
N9_4 C1_4 1_555 1_555
N10_4 N5_4 1_555 1_555
Zn4_2 N9_4 1_555 1_555
N9_4 N10_4 1_555 1_555
C6_4 H7_6 1_555 1_555
C6_4 H8_6 1_555 1_555
C6_4 H9_6 1_555 1_555
C4_4 H10_6 1_555 1_555
C4_6 H12_6 1_555 1_555
C4_7 H11_6 1_555 1_555
N2_4 Zn4_2 1_555 1_555
N18_2 C3_4 1_555 1_555
N4_4 Zn4_2 1_555 1_555
C2_4 H1_4 1_555 1_555
H2_4 C2_4 1_555 1_555
H3_4 C2_4 1_555 1_555
C3_4 N4_4 1_555 1_555
N6_4 N4_4 1_555 1_555
N7_4 N18_2 1_555 1_555
N8_4 N2_4 1_555 1_555
C4_8 C5_8 1_555 1_555
C5_8 N2_4 1_555 1_555
C2_4 C3_4 1_555 1_555
N6_4 N7_4 1_555 1_555
C6_4 H7_7 1_555 1_555
C6_4 H8_7 1_555 1_555
C6_4 H9_7 1_555 1_555
C4_8 H10_7 1_555 1_555
C4_8 H12_7 1_555 1_555
C4_9 C5_9 1_555 1_555
N11_4 C5_9 1_555 1_555
Zn5_2 N11_4 1_555 1_555
N19_2 C8_4 1_555 1_555
N14_4 Zn5_2 1_555 1_555
C7_4 H4_4 1_555 1_555
H5_4 C7_4 1_555 1_555
H6_4 C7_4 1_555 1_555
C8_4 N14_4 1_555 1_555
N15_4 N14_4 1_555 1_555
N16_4 N19_2 1_555 1_555
N11_4 N12_4 1_555 1_555
C7_4 C8_4 1_555 1_555
N15_4 N16_4 1_555 1_555
C4_9 H11_7 1_555 1_555
C4_8 H11_8 1_555 1_555
C6_3 H7_8 1_555 1_555
C6_3 H8_8 1_555 1_555
C6_3 H9_8 1_555 1_555
C4_9 H10_8 1_555 1_555
C4_9 H12_8 1_555 1_555

#END
