
###############################################################################
#
# This file contains modified crystal structure data generated from the
# MOF subset of the Cambridge Structural Database (CSD) v543 
# hosted by the Cambridge Crystallographic Data Centre (CCDC).
#
# This work is licensed under the Creative Commons
# Attribution-NonCommercial-ShareAlike 4.0 International License.
# To view a copy of this license, visit
# http://creativecommons.org/licenses/by-nc-sa/4.0/
# or send a letter to
# Creative Commons, PO Box 1866, Mountain View, CA 94042, USA.
#
# CIF created using the CSD Python API on 29 September 2022
# The structure has been converted into the P1 space group
# The structure has a 3D framework
# The original CSD entry SIVGOV is in the monoclinic crystal system
# The framework has been calculated to contain at least 10.0% void space
# The void calculation uses a probe of radius 1.32A, grid spacing 0.4
#
###############################################################################

data_SIVGOV
_chemical_formula_moiety         '(C16 H24 N32 Zn4)n'
_symmetry_cell_setting           triclinic
_symmetry_space_group_name_H-M   'P 1'
_symmetry_Int_Tables_number      1
_space_group_name_Hall           'P 1'
loop_
_symmetry_equiv_pos_site_id
_symmetry_equiv_pos_as_xyz
1 x,y,z
_cell_length_a                   12.989(2)
_cell_length_b                   13.8218(9)
_cell_length_c                   9.2766(12)
_cell_angle_alpha                90
_cell_angle_beta                 124.43(2)
_cell_angle_gamma                90
_cell_volume                     1373.68
loop_
_atom_site_label
_atom_site_type_symbol
_atom_site_fract_x
_atom_site_fract_y
_atom_site_fract_z
C2 C 0.6815(6) 0.0128(6) 0.5915(11)
N7 N 0.7350(6) 0.0395(5) 0.7567(9)
C4 C 0.5823(8) 0.0696(7) 0.4334(11)
H4 H 0.5594 0.0357 0.3289
H5 H 0.6144 0.1323 0.4341
H6 H 0.5103 0.0769 0.4368
Zn2 Zn 0.72046(7) 0.15022(5) 0.88318(8)
Zn1 Zn 0.72046(7) 0.84978(5) 0.38318(8)
N1 N 0.3674(6) 0.7336(5) 0.0439(10)
N2 N 0.5456(6) 0.8006(5) 0.2324(9)
N3 N 0.8154(6) 0.9665(5) 0.8535(9)
N4 N 0.7256(6) 0.9282(5) 0.5802(8)
N5 N 0.8116(6) 0.9023(5) 0.7488(9)
N6 N 0.3498(6) 0.8323(5) 0.0469(11)
C1 C 0.4851(7) 0.7167(5) 0.1572(11)
C3 C 0.5462(8) 0.6198(6) 0.1993(13)
H1 H 0.4849 0.5714 0.1282
H2 H 0.5834 0.6054 0.3205
H3 H 0.6096 0.6202 0.1763
N8 N 0.4563(6) 0.8713(5) 0.1612(10)
N9 N 0.8674(6) 0.7664(5) 0.5439(10)
N10 N 0.7350(6) 0.9605(5) 0.2567(9)
Zn3 Zn 0.22046(7) 0.65022(5) 0.88318(8)
N1_2 N 0.3674(6) 0.2664(5) 0.5439(10)
N2_2 N 0.5456(6) 0.1994(5) 0.7324(9)
N6_2 N 0.3498(6) 0.1677(5) 0.5469(11)
C1_2 C 0.4851(7) 0.2833(5) 0.6572(11)
C3_2 C 0.5462(8) 0.3802(6) 0.6993(13)
H1_2 H 0.4849 0.4286 0.6282
H2_2 H 0.5834 0.3946 0.8205
H3_2 H 0.6096 0.3798 0.6763
N8_2 N 0.4563(6) 0.1287(5) 0.6612(10)
Zn3_2 Zn 0.22046(7) 0.34978(5) 0.38318(8)
C2_2 C 0.6815(6) 0.9872(6) 0.0915(11)
N2_3 N 0.0456(6) 0.3006(5) 0.2324(9)
N3_2 N 0.3154(6) 0.4665(5) 0.8535(9)
N4_2 N 0.2256(6) 0.4282(5) 0.5802(8)
N5_2 N 0.3116(6) 0.4023(5) 0.7488(9)
C2_3 C 0.1815(6) 0.5128(6) 0.5915(11)
N7_2 N 0.2350(6) 0.5395(5) 0.7567(9)
C3_3 C 0.0462(8) 0.1198(6) 0.1993(13)
H2_3 H 0.0834 0.1054 0.3205
H3_3 H 0.1096 0.1202 0.1763
C4_2 C 0.0823(8) 0.5696(7) 0.4334(11)
H4_2 H 0.0594 0.5357 0.3289
H5_2 H 0.1144 0.6323 0.4341
H6_2 H 0.0103 0.5769 0.4368
N10_2 N 0.2350(6) 0.4605(5) 0.2567(9)
N3_3 N 0.3154(6) 0.5335(5) 0.3535(9)
N4_3 N 0.2256(6) 0.5718(5) 0.0802(8)
N5_3 N 0.3116(6) 0.5977(5) 0.2488(9)
C2_4 C 0.1815(6) 0.4872(6) 0.0915(11)
N2_4 N 0.0456(6) 0.6994(5) 0.7324(9)
C3_4 C 0.0462(8) 0.8802(6) 0.6993(13)
H2_4 H 0.0834 0.8946 0.8205
H3_4 H 0.1096 0.8798 0.6763
C4_3 C 0.0823(8) 0.4304(7) 0.9334(11)
H4_3 H 0.0594 0.4643 0.8289
H5_3 H 0.1144 0.3677 0.9341
H6_3 H 0.0103 0.4231 0.9368
N6_3 N 0.8498(6) 0.6677(5) 0.5469(11)
C1_3 C 0.9851(7) 0.7833(5) 0.6572(11)
H1_3 H 0.9849 0.9286 0.6282
N8_3 N 0.9563(6) 0.6287(5) 0.6612(10)
N3_4 N 0.8154(6) 0.0335(5) 0.3535(9)
N4_4 N 0.7256(6) 0.0718(5) 0.0802(8)
N5_4 N 0.8116(6) 0.0977(5) 0.2488(9)
N9_2 N 0.8674(6) 0.2336(5) 0.0439(10)
N6_4 N 0.8498(6) 0.3323(5) 0.0469(11)
C1_4 C 0.9851(7) 0.2167(5) 0.1572(11)
H1_4 H 0.9849 0.0714 0.1282
N8_4 N 0.9563(6) 0.3713(5) 0.1612(10)
C4_4 C 0.5823(8) 0.9304(7) 0.9334(11)
H4_4 H 0.5594 0.9643 0.8289
H5_4 H 0.6144 0.8677 0.9341
H6_4 H 0.5103 0.9231 0.9368
loop_
_geom_bond_atom_site_label_1
_geom_bond_atom_site_label_2
_geom_bond_site_symmetry_1
_geom_bond_site_symmetry_2
C4 C2 1_555 1_555
H4 C4 1_555 1_555
H5 C4 1_555 1_555
H6 C4 1_555 1_555
Zn2 N7 1_555 1_555
C2 N7 1_555 1_555
Zn1 N2 1_555 1_555
N1 N6 1_555 1_555
N2 C1 1_555 1_555
N3 N5 1_555 1_555
N4 Zn1 1_555 1_555
N5 N4 1_555 1_555
N6 N8 1_555 1_555
C1 N1 1_555 1_555
C3 C1 1_555 1_555
H1 C3 1_555 1_555
H2 C3 1_555 1_555
H3 C3 1_555 1_555
N8 N2 1_555 1_555
N9 Zn1 1_555 1_555
N10 Zn1 1_555 1_555
Zn2 N2_2 1_555 1_555
N1_2 N6_2 1_555 1_555
N2_2 C1_2 1_555 1_555
N6_2 N8_2 1_555 1_555
C1_2 N1_2 1_555 1_555
C3_2 C1_2 1_555 1_555
H1_2 C3_2 1_555 1_555
H2_2 C3_2 1_555 1_555
H3_2 C3_2 1_555 1_555
N8_2 N2_2 1_555 1_555
Zn3_2 N1_2 1_555 1_555
C2_2 N10 1_555 1_555
Zn3_2 N2_3 1_555 1_555
N3_2 N5_2 1_555 1_555
N4_2 Zn3_2 1_555 1_555
N5_2 N4_2 1_555 1_555
C2_3 N4_2 1_555 1_555
N7_2 N3_2 1_555 1_555
H2_3 C3_3 1_555 1_555
H3_3 C3_3 1_555 1_555
C4_2 C2_3 1_555 1_555
H4_2 C4_2 1_555 1_555
H5_2 C4_2 1_555 1_555
H6_2 C4_2 1_555 1_555
Zn3 N7_2 1_555 1_555
N10_2 Zn3_2 1_555 1_555
C2_3 N7_2 1_555 1_555
N3_3 N5_3 1_555 1_555
N5_3 N4_3 1_555 1_555
C2_4 N4_3 1_555 1_555
N10_2 N3_3 1_555 1_555
C2_4 N10_2 1_555 1_555
Zn3 N2_4 1_555 1_555
H2_4 C3_4 1_555 1_555
H3_4 C3_4 1_555 1_555
H4_3 C4_3 1_555 1_555
H5_3 C4_3 1_555 1_555
H6_3 C4_3 1_555 1_555
N9 N6_3 1_555 1_555
N6_3 N8_3 1_555 1_555
C1_3 N9 1_555 1_555
N3_4 N5_4 1_555 1_555
N5_4 N4_4 1_555 1_555
N9_2 N6_4 1_555 1_555
N6_4 N8_4 1_555 1_555
C1_4 N9_2 1_555 1_555
H4_4 C4_4 1_555 1_555
H5_4 C4_4 1_555 1_555
H6_4 C4_4 1_555 1_555

#END
