
###############################################################################
#
# This file contains modified crystal structure data generated from the
# MOF subset of the Cambridge Structural Database (CSD) v543 
# hosted by the Cambridge Crystallographic Data Centre (CCDC).
#
# This work is licensed under the Creative Commons
# Attribution-NonCommercial-ShareAlike 4.0 International License.
# To view a copy of this license, visit
# http://creativecommons.org/licenses/by-nc-sa/4.0/
# or send a letter to
# Creative Commons, PO Box 1866, Mountain View, CA 94042, USA.
#
# CIF created using the CSD Python API on 29 September 2022
# The structure has been converted into the P1 space group
# The structure has a 3D framework
# The original CSD entry SIWGUB is in the triclinic crystal system
# The framework has been calculated to contain at least 10.0% void space
# The void calculation uses a probe of radius 1.32A, grid spacing 0.4
#
###############################################################################

data_SIWGUB
_chemical_formula_moiety         '(C16 H20 Cu2 O8)n'
_symmetry_cell_setting           triclinic
_symmetry_space_group_name_H-M   'P 1'
_symmetry_Int_Tables_number      1
_space_group_name_Hall           'P 1'
loop_
_symmetry_equiv_pos_site_id
_symmetry_equiv_pos_as_xyz
1 x,y,z
_cell_length_a                   5.140(2)
_cell_length_b                   9.856(5)
_cell_length_c                   10.673(5)
_cell_angle_alpha                77.310(9)
_cell_angle_beta                 80.697(6)
_cell_angle_gamma                85.024(9)
_cell_volume                     519.81
loop_
_atom_site_label
_atom_site_type_symbol
_atom_site_fract_x
_atom_site_fract_y
_atom_site_fract_z
_atom_site_U_iso_or_equiv
_atom_site_thermal_displace_type
Cu5 Cu 0.2075(1) 0.07026(7) 0.48320(6) 0.0187 Uani
O6 O 0.2365(7) 0.0620(4) 0.3025(4) 0.0327 Uani
C9 C 0.103(1) 0.0047(7) 0.1189(6) 0.0384 Uani
C12 C 0.073(1) 0.0020(6) 0.2625(5) 0.0311 Uani
H11 H 0.2660 0.0345 0.0814 0.0313 Uiso
O1 O 0.1177(8) 0.0625(4) 0.6668(4) 0.0349 Uani
O3 O 0.6220(7) 0.1200(3) 0.4795(3) 0.0256 Uani
O4 O 0.9774(7) 0.2383(4) 0.4538(4) 0.0330 Uani
C5 C 0.562(1) 0.3647(5) 0.4651(6) 0.0299 Uani
C6 C 0.698(1) 0.4930(6) 0.3845(6) 0.0333 Uani
C7 C 0.478(1) 0.3756(6) 0.6044(6) 0.0371 Uani
C8 C 0.7297(10) 0.2331(5) 0.4621(5) 0.0190 Uani
H2 H 0.1183 0.1253 0.8788 0.0313 Uiso
H6 H 0.4312 0.3463 0.4313 0.0313 Uiso
H7 H 0.8343 0.4936 0.4276 0.0313 Uiso
H8 H 0.7781 0.4859 0.2855 0.0313 Uiso
H9 H 0.6714 0.3912 0.6329 0.0313 Uiso
H10 H 0.3794 0.3002 0.6566 0.0313 Uiso
Cu8 Cu 0.7925(1) 0.92974(7) 0.51680(6) 0.0187 Uani
O9 O 0.3780(7) 0.8800(3) 0.5205(3) 0.0256 Uani
O13 O 0.0226(7) 0.7617(4) 0.5462(4) 0.0330 Uani
C13 C 0.438(1) 0.6353(5) 0.5349(6) 0.0299 Uani
C14 C 0.302(1) 0.5070(6) 0.6155(6) 0.0333 Uani
C15 C 0.522(1) 0.6244(6) 0.3956(6) 0.0371 Uani
C16 C 0.2703(10) 0.7669(5) 0.5379(5) 0.0190 Uani
H16 H 0.5688 0.6537 0.5687 0.0313 Uiso
H17 H 0.1657 0.5064 0.5724 0.0313 Uiso
H18 H 0.2219 0.5141 0.7145 0.0313 Uiso
H19 H 0.3286 0.6088 0.3671 0.0313 Uiso
H20 H 0.6206 0.6998 0.3434 0.0313 Uiso
C10 C 0.066(2) 0.8710(9) 0.0876(7) 0.0816 Uani
H13 H 0.1454 0.8012 0.1542 0.0313 Uiso
C3 C 0.078(2) 0.8813(9) 0.9404(7) 0.0788 Uani
H4 H 0.2636 0.9015 0.9005 0.0958 Uiso
H5 H 0.0492 0.7936 0.9235 0.0958 Uiso
C11 C 0.922(2) 0.1187(9) 0.0596(7) 0.0788 Uani
H14 H 0.7364 0.0985 0.0995 0.0958 Uiso
H15 H 0.9508 0.2064 0.0765 0.0958 Uiso
C2 C 0.934(2) 0.1290(9) 0.9124(7) 0.0816 Uani
H3 H 0.8546 0.1988 0.8458 0.0313 Uiso
O5 O 0.8823(8) 0.9375(4) 0.3332(4) 0.0349 Uani
O8 O 0.7635(7) 0.9380(4) 0.6975(4) 0.0327 Uani
H12 H 0.8817 0.8747 0.1212 0.0313 Uiso
C1 C 0.897(1) 0.9953(7) 0.8811(6) 0.0384 Uani
C4 C 0.927(1) 0.9980(6) 0.7375(5) 0.0311 Uani
H1 H 0.7340 0.9655 0.9186 0.0313 Uiso
loop_
_atom_site_aniso_label
_atom_site_aniso_U_11
_atom_site_aniso_U_22
_atom_site_aniso_U_33
_atom_site_aniso_U_23
_atom_site_aniso_U_13
_atom_site_aniso_U_12
Cu5 0.0113 0.0238 0.0238 -0.0093 -0.0049 -0.0007
O6 0.021 0.054 0.026 -0.011 -0.005 -0.008
C9 0.022 0.074 0.022 -0.015 -0.002 -0.008
C12 0.023 0.047 0.025 -0.013 -0.006 0.008
O1 0.027 0.054 0.03 -0.022 -0.003 -0.005
O3 0.031 0.016 0.032 -0.004 -0.008 -0.009
O4 0.022 0.021 0.058 -0.009 -0.01 -0.003
C5 0.019 0.023 0.054 -0.018 -0.012 0.002
C6 0.023 0.031 0.043 -0.008 0.002 0.002
C7 0.042 0.024 0.041 -0.004 0.001 0.002
C8 0.013 0.019 0.027 -0.011 0.002 -0.005
Cu8 0.0113 0.0238 0.0238 -0.0093 -0.0049 -0.0007
O9 0.031 0.016 0.032 -0.004 -0.008 -0.009
O13 0.022 0.021 0.058 -0.009 -0.01 -0.003
C13 0.019 0.023 0.054 -0.018 -0.012 0.002
C14 0.023 0.031 0.043 -0.008 0.002 0.002
C15 0.042 0.024 0.041 -0.004 0.001 0.002
C16 0.013 0.019 0.027 -0.011 0.002 -0.005
C10 0.155 0.061 0.032 -0.019 -0.03 0.031
C3 0.147 0.06 0.033 -0.023 -0.019 0.02
C11 0.147 0.06 0.033 -0.023 -0.019 0.02
C2 0.155 0.061 0.032 -0.019 -0.03 0.031
O5 0.027 0.054 0.03 -0.022 -0.003 -0.005
O8 0.021 0.054 0.026 -0.011 -0.005 -0.008
C1 0.022 0.074 0.022 -0.015 -0.002 -0.008
C4 0.023 0.047 0.025 -0.013 -0.006 0.008
loop_
_geom_bond_atom_site_label_1
_geom_bond_atom_site_label_2
_geom_bond_site_symmetry_1
_geom_bond_site_symmetry_2
Cu5 O6 1_555 1_555
O6 C12 1_555 1_555
C12 C9 1_555 1_555
H11 C9 1_555 1_555
Cu5 O1 1_555 1_555
O3 Cu5 1_555 1_555
O4 C8 1_555 1_555
C5 C6 1_555 1_555
C6 H7 1_555 1_555
C7 C5 1_555 1_555
C8 O3 1_555 1_555
H6 C5 1_555 1_555
H8 C6 1_555 1_555
H9 C7 1_555 1_555
H10 C7 1_555 1_555
Cu8 O9 1_555 1_555
O9 C16 1_555 1_555
O13 C16 1_555 1_555
C13 C14 1_555 1_555
C14 C7 1_555 1_555
C15 C6 1_555 1_555
C16 C13 1_555 1_555
H16 C13 1_555 1_555
H17 C14 1_555 1_555
H18 C14 1_555 1_555
H19 C15 1_555 1_555
H20 C15 1_555 1_555
C5 C8 1_555 1_555
C13 C15 1_555 1_555
H13 C10 1_555 1_555
H4 C3 1_555 1_555
H5 C3 1_555 1_555
H14 C11 1_555 1_555
H15 C11 1_555 1_555
H3 C2 1_555 1_555
Cu8 O5 1_555 1_555
O8 Cu8 1_555 1_555
O8 C4 1_555 1_555
C4 C1 1_555 1_555
H1 C1 1_555 1_555

#END
