
###############################################################################
#
# This file contains modified crystal structure data generated from the
# MOF subset of the Cambridge Structural Database (CSD) v543 
# hosted by the Cambridge Crystallographic Data Centre (CCDC).
#
# This work is licensed under the Creative Commons
# Attribution-NonCommercial-ShareAlike 4.0 International License.
# To view a copy of this license, visit
# http://creativecommons.org/licenses/by-nc-sa/4.0/
# or send a letter to
# Creative Commons, PO Box 1866, Mountain View, CA 94042, USA.
#
# CIF created using the CSD Python API on 29 September 2022
# The structure has been converted into the P1 space group
# The structure has a 3D framework
# The original CSD entry SIWPUL08 is in the orthorhombic crystal system
# The framework has been calculated to contain at least 10.0% void space
# The void calculation uses a probe of radius 1.32A, grid spacing 0.4
# The framework is charged, counterions have been retained in the structure
#
###############################################################################

data_SIWPUL08
_chemical_formula_moiety         '(C12 H12 Mn11 O24 11-)n'
_symmetry_cell_setting           triclinic
_symmetry_space_group_name_H-M   'P 1'
_symmetry_Int_Tables_number      1
_space_group_name_Hall           'P 1'
loop_
_symmetry_equiv_pos_site_id
_symmetry_equiv_pos_as_xyz
1 x,y,z
_cell_length_a                   8.8677(5)
_cell_length_b                   11.8618(6)
_cell_length_c                   7.9003(4)
_cell_angle_alpha                90
_cell_angle_beta                 90
_cell_angle_gamma                90
_cell_volume                     831.008
loop_
_atom_site_label
_atom_site_type_symbol
_atom_site_fract_x
_atom_site_fract_y
_atom_site_fract_z
Mn3 Mn 0.0000 0.0000 0.0000
Mn3_2 Mn -0.0000 0.0000 1.0000
Mn3_3 Mn 0.0000 1.0000 0.0000
Mn3_4 Mn -0.0000 1.0000 1.0000
Mn1 Mn 0.5000 0.0000 0.5000
O1 O 0.4629(3) 0.15726(16) 0.3623(2)
O2 O 0.4025(2) 0.06887(16) 0.7316(2)
O3 O 0.2174(2) 0.06857(17) 0.9184(2)
C1 C 0.4690(5) 0.2500 0.4330(5)
H1 H 0.4791 0.2500 0.5502
C2 C 0.2812(4) 0.0349(3) 0.7890(4)
O4 O 0.4629(3) 0.34274(16) 0.3623(2)
H3 H 0.7671 0.0219 0.2715
Mn3_5 Mn 1.0000 0.0000 0.0000
Mn4 Mn 0.5000 0.5000 0.5000
O9 O 0.7174(2) 0.06857(17) 0.5816(2)
Mn3_6 Mn 1.0000 0.0000 1.0000
Mn1_2 Mn 0.5000 1.0000 0.5000
H2 H 0.2329 0.9781 0.7285
O5 O 0.5975(2) 0.93113(16) 0.2684(2)
O6 O 0.7826(2) 0.93143(17) 0.0816(2)
C3 C 0.7188(4) 0.9651(3) 0.2110(4)
Mn3_7 Mn 1.0000 1.0000 0.0000
O7 O 0.5371(3) 0.84274(16) 0.6377(2)
O8 O 0.2826(2) 0.93143(17) 0.4184(2)
Mn3_8 Mn 1.0000 1.0000 1.0000
H2_2 H 0.2671 0.0219 0.2285
O2_2 O 0.0975(2) 0.93113(16) 0.2316(2)
H1_2 H 0.0209 0.7500 0.0502
C2_2 C 0.2188(4) 0.9651(3) 0.2890(4)
Mn4_2 Mn 0.0000 0.5000 0.0000
O1_2 O 0.0371(3) 0.84274(16) 0.8623(2)
C1_2 C 0.0310(5) 0.7500 0.9330(5)
O4_2 O 0.0371(3) 0.65726(16) 0.8623(2)
Mn4_3 Mn 0.0000 0.5000 1.0000
O7_2 O 0.9629(3) 0.15726(16) 0.1377(2)
O5_2 O 0.9025(2) 0.06887(16) 0.7684(2)
C3_2 C 0.7812(4) 0.0349(3) 0.7110(4)
Mn4_4 Mn 1.0000 0.5000 0.0000
H3_2 H 0.7329 0.9781 0.7715
Mn4_5 Mn 1.0000 0.5000 1.0000
O1_3 O 0.5371(3) 0.65726(16) 0.6377(2)
O2_3 O 0.5975(2) 0.56887(16) 0.2684(2)
O3_2 O 0.7826(2) 0.56857(17) 0.0816(2)
C1_3 C 0.5310(5) 0.7500 0.5670(5)
H1_3 H 0.5209 0.7500 0.4498
C2_3 C 0.7188(4) 0.5349(3) 0.2110(4)
H2_3 H 0.7671 0.4781 0.2715
O5_3 O 0.4025(2) 0.43113(16) 0.7316(2)
O6_2 O 0.2174(2) 0.43143(17) 0.9184(2)
C3_3 C 0.2812(4) 0.4651(3) 0.7890(4)
H3_3 H 0.2329 0.5219 0.7285
O8_2 O 0.7174(2) 0.43143(17) 0.5816(2)
O9_2 O 0.2826(2) 0.56857(17) 0.4184(2)
O5_4 O 0.0975(2) 0.56887(16) 0.2316(2)
C3_4 C 0.2188(4) 0.5349(3) 0.2890(4)
H3_4 H 0.2671 0.4781 0.2285
O1_4 O 0.9629(3) 0.34274(16) 0.1377(2)
C1_4 C 0.9690(5) 0.2500 0.0670(5)
O2_4 O 0.9025(2) 0.43113(16) 0.7684(2)
H1_4 H 0.9791 0.2500 0.9498
C2_4 C 0.7812(4) 0.4651(3) 0.7110(4)
H2_4 H 0.7329 0.5219 0.7715
loop_
_geom_bond_atom_site_label_1
_geom_bond_atom_site_label_2
_geom_bond_site_symmetry_1
_geom_bond_site_symmetry_2
Mn1 O1 1_555 1_555
O1 C1 1_555 1_555
O2 Mn1 1_555 1_555
O3 C2 1_555 1_555
C1 H1 1_555 1_555
C2 O2 1_555 1_555
O4 C1 1_555 1_555
Mn3_2 O3 1_555 1_555
Mn4 O4 1_555 1_555
O9 Mn1 1_555 1_555
O5 Mn1_2 1_555 1_555
O6 C3 1_555 1_555
C3 O5 1_555 1_555
Mn3_7 O6 1_555 1_555
O7 Mn1_2 1_555 1_555
O8 Mn1_2 1_555 1_555
O2_2 Mn3_3 1_555 1_555
O8 C2_2 1_555 1_555
C2_2 O2_2 1_555 1_555
Mn3_4 O1_2 1_555 1_555
O1_2 C1_2 1_555 1_555
O4_2 C1_2 1_555 1_555
Mn4_3 O4_2 1_555 1_555
O7_2 Mn3_5 1_555 1_555
O5_2 Mn3_6 1_555 1_555
O9 C3_2 1_555 1_555
C3_2 O5_2 1_555 1_555
Mn4 O1_3 1_555 1_555
O1_3 C1_3 1_555 1_555
O2_3 Mn4 1_555 1_555
O3_2 C2_3 1_555 1_555
C1_3 H1_3 1_555 1_555
C2_3 O2_3 1_555 1_555
H2_3 C2_3 1_555 1_555
O7 C1_3 1_555 1_555
O5_3 Mn4 1_555 1_555
O6_2 C3_3 1_555 1_555
C3_3 O5_3 1_555 1_555
H3_3 C3_3 1_555 1_555
Mn4_4 O3_2 1_555 1_555
Mn4_3 O6_2 1_555 1_555
O8_2 Mn4 1_555 1_555
O9_2 Mn4 1_555 1_555
O5_4 Mn4_2 1_555 1_555
O9_2 C3_4 1_555 1_555
C3_4 O5_4 1_555 1_555
H3_4 C3_4 1_555 1_555
Mn4_4 O1_4 1_555 1_555
O1_4 C1_4 1_555 1_555
O7_2 C1_4 1_555 1_555
O2_4 Mn4_5 1_555 1_555
O8_2 C2_4 1_555 1_555
C2_4 O2_4 1_555 1_555
H2_4 C2_4 1_555 1_555

#END
