
###############################################################################
#
# This file contains modified crystal structure data generated from the
# MOF subset of the Cambridge Structural Database (CSD) v543 
# hosted by the Cambridge Crystallographic Data Centre (CCDC).
#
# This work is licensed under the Creative Commons
# Attribution-NonCommercial-ShareAlike 4.0 International License.
# To view a copy of this license, visit
# http://creativecommons.org/licenses/by-nc-sa/4.0/
# or send a letter to
# Creative Commons, PO Box 1866, Mountain View, CA 94042, USA.
#
# CIF created using the CSD Python API on 29 September 2022
# The structure has been converted into the P1 space group
# The structure has a 3D framework
# The original CSD entry SIWPUL10 is in the hexagonal crystal system
# The original CSD entry SIWPUL10 is in a Sohncke space group
# The framework has been calculated to contain at least 10.0% void space
# The void calculation uses a probe of radius 1.32A, grid spacing 0.4
# The framework is charged, counterions have been retained in the structure
#
###############################################################################

data_SIWPUL10
_chemical_formula_moiety         '(C6 H6 Mn2 O12 4-)n'
_symmetry_cell_setting           triclinic
_symmetry_space_group_name_H-M   'P 1'
_symmetry_Int_Tables_number      1
_space_group_name_Hall           'P 1'
loop_
_symmetry_equiv_pos_site_id
_symmetry_equiv_pos_as_xyz
1 x,y,z
_cell_length_a                   7.988(3)
_cell_length_b                   7.988(3)
_cell_length_c                   7.807(3)
_cell_angle_alpha                90
_cell_angle_beta                 90
_cell_angle_gamma                120
_cell_volume                     431.411
loop_
_atom_site_label
_atom_site_type_symbol
_atom_site_fract_x
_atom_site_fract_y
_atom_site_fract_z
O6 O 0.1172(4) 0.4303(3) 0.3819(3)
C3 C 0.0004(6) 0.4401(4) 0.4778(6)
H3 H 0.0007 0.5567 0.4779
Mn4 Mn 0.3334 0.6667 0.22800(19)
Mn1 Mn 0.6667 0.3333 0.72800(19)
O1 O 0.6870(3) 0.5695(3) 0.5740(3)
O2 O 0.5697(3) 0.6869(3) 0.3819(3)
C1 C 0.5599(4) 0.5603(4) 0.4778(6)
H1 H 0.4433 0.4440 0.4779
O3 O 0.4305(3) 0.1175(4) 0.5740(3)
O5 O 0.8825(4) 0.3130(3) 0.5740(3)
O7 O 0.8828(4) 0.5697(3) 0.8819(3)
O8 O 0.4303(3) 0.3131(3) 0.8819(3)
O9 O 0.6869(3) 0.1172(4) 0.8819(3)
O4 O 0.3131(3) 0.8828(4) 0.3819(3)
C2 C 0.4397(4) 0.9996(6) 0.4778(6)
H2 H 0.5560 0.9993 0.4779
C3_2 C 0.5603(7) 0.0004(6) 0.9778(6)
H3_2 H 0.4440 0.0007 0.9779
O1_2 O 0.1175(4) 0.6870(3) 0.0740(3)
O3_2 O 0.3130(5) 0.4305(3) 0.0740(3)
O5_2 O 0.5695(5) 0.8825(4) 0.0740(3)
C2_2 C 0.4401(7) 0.4397(4) 0.9778(6)
H2_2 H 0.5567 0.5560 0.9779
C1_2 C 0.9996(6) 0.5599(4) 0.9778(6)
H1_2 H 0.9993 0.4433 0.9779
loop_
_geom_bond_atom_site_label_1
_geom_bond_atom_site_label_2
_geom_bond_site_symmetry_1
_geom_bond_site_symmetry_2
O6 C3 1_555 1_555
H3 C3 1_555 1_555
Mn4 O6 1_555 1_555
Mn1 O1 1_555 1_555
O1 C1 1_555 1_555
O2 C1 1_555 1_555
C1 H1 1_555 1_555
O3 Mn1 1_555 1_555
O5 Mn1 1_555 1_555
Mn4 O2 1_555 1_555
O7 Mn1 1_555 1_555
O8 Mn1 1_555 1_555
O9 Mn1 1_555 1_555
O4 C2 1_555 1_555
H2 C2 1_555 1_555
Mn4 O4 1_555 1_555
O9 C3_2 1_555 1_555
H3_2 C3_2 1_555 1_555
Mn4 O1_2 1_555 1_555
O3_2 Mn4 1_555 1_555
O5_2 Mn4 1_555 1_555
O8 C2_2 1_555 1_555
H2_2 C2_2 1_555 1_555
O7 C1_2 1_555 1_555
C1_2 H1_2 1_555 1_555

#END
