
###############################################################################
#
# This file contains modified crystal structure data generated from the
# MOF subset of the Cambridge Structural Database (CSD) v543 
# hosted by the Cambridge Crystallographic Data Centre (CCDC).
#
# This work is licensed under the Creative Commons
# Attribution-NonCommercial-ShareAlike 4.0 International License.
# To view a copy of this license, visit
# http://creativecommons.org/licenses/by-nc-sa/4.0/
# or send a letter to
# Creative Commons, PO Box 1866, Mountain View, CA 94042, USA.
#
# CIF created using the CSD Python API on 29 September 2022
# The structure has been converted into the P1 space group
# The structure has a 3D framework
# The original CSD entry SIWPUL09 is in the orthorhombic crystal system
# The framework has been calculated to contain at least 10.0% void space
# The void calculation uses a probe of radius 1.32A, grid spacing 0.4
# The framework is charged, counterions have been retained in the structure
#
###############################################################################

data_SIWPUL09
_chemical_formula_moiety         '(C12 H12 Mn11 O24 11-)n'
_symmetry_cell_setting           triclinic
_symmetry_space_group_name_H-M   'P 1'
_symmetry_Int_Tables_number      1
_space_group_name_Hall           'P 1'
loop_
_symmetry_equiv_pos_site_id
_symmetry_equiv_pos_as_xyz
1 x,y,z
_cell_length_a                   8.8538(5)
_cell_length_b                   11.8792(7)
_cell_length_c                   7.9183(4)
_cell_angle_alpha                90
_cell_angle_beta                 90
_cell_angle_gamma                90
_cell_volume                     832.816
loop_
_atom_site_label
_atom_site_type_symbol
_atom_site_fract_x
_atom_site_fract_y
_atom_site_fract_z
Mn3 Mn 0.0000 0.0000 0.0000
Mn3_2 Mn -0.0000 0.0000 1.0000
Mn3_3 Mn 0.0000 1.0000 0.0000
Mn3_4 Mn 0.0000 1.0000 1.0000
Mn1 Mn 0.5000 0.0000 0.5000
O1 O 0.46313(18) 0.15740(11) 0.36350(17)
O2 O 0.40226(16) 0.06844(11) 0.73120(16)
O3 O 0.21803(16) 0.06796(11) 0.91808(17)
C1 C 0.4699(3) 0.2500 0.4337(4)
H1 H 0.4812 0.2500 0.5504
C2 C 0.2818(3) 0.0342(2) 0.7890(3)
O4 O 0.46313(18) 0.34260(11) 0.36350(17)
H3 H 0.7662 0.0230 0.2706
Mn3_5 Mn 1.0000 0.0000 0.0000
Mn4 Mn 0.5000 0.5000 0.5000
O9 O 0.71803(16) 0.06796(11) 0.58192(17)
Mn3_6 Mn 1.0000 0.0000 1.0000
Mn1_2 Mn 0.5000 1.0000 0.5000
H2 H 0.2338 0.9770 0.7294
O5 O 0.59774(16) 0.93156(11) 0.26880(16)
O6 O 0.78197(16) 0.93204(11) 0.08192(17)
C3 C 0.7182(3) 0.9658(2) 0.2110(3)
Mn3_7 Mn 1.0000 1.0000 0.0000
O7 O 0.53687(18) 0.84260(11) 0.63650(17)
O8 O 0.28197(16) 0.93204(11) 0.41808(17)
Mn3_8 Mn 1.0000 1.0000 1.0000
H2_2 H 0.2662 0.0230 0.2294
O2_2 O 0.09774(16) 0.93156(11) 0.23120(16)
H1_2 H 0.0188 0.7500 0.0504
C2_2 C 0.2182(3) 0.9658(2) 0.2890(3)
Mn4_2 Mn 0.0000 0.5000 0.0000
O1_2 O 0.03687(18) 0.84260(11) 0.86350(17)
C1_2 C 0.0301(3) 0.7500 0.9337(4)
O4_2 O 0.03687(18) 0.65740(11) 0.86350(17)
Mn4_3 Mn 0.0000 0.5000 1.0000
O7_2 O 0.96313(18) 0.15740(11) 0.13650(17)
O5_2 O 0.90226(16) 0.06844(11) 0.76880(16)
C3_2 C 0.7818(3) 0.0342(2) 0.7110(3)
Mn4_4 Mn 1.0000 0.5000 0.0000
H3_2 H 0.7338 0.9770 0.7706
Mn4_5 Mn 1.0000 0.5000 1.0000
O1_3 O 0.53687(18) 0.65740(11) 0.63650(17)
O2_3 O 0.59774(16) 0.56844(11) 0.26880(16)
O3_2 O 0.78197(16) 0.56796(11) 0.08192(17)
C1_3 C 0.5301(3) 0.7500 0.5663(4)
H1_3 H 0.5188 0.7500 0.4496
C2_3 C 0.7182(3) 0.5342(2) 0.2110(3)
H2_3 H 0.7662 0.4770 0.2706
O5_3 O 0.40226(16) 0.43156(11) 0.73120(16)
O6_2 O 0.21803(16) 0.43204(11) 0.91808(17)
C3_3 C 0.2818(3) 0.4658(2) 0.7890(3)
H3_3 H 0.2338 0.5230 0.7294
O8_2 O 0.71803(16) 0.43204(11) 0.58192(17)
O9_2 O 0.28197(16) 0.56796(11) 0.41808(17)
O5_4 O 0.09774(16) 0.56844(11) 0.23120(16)
C3_4 C 0.2182(3) 0.5342(2) 0.2890(3)
H3_4 H 0.2662 0.4770 0.2294
O1_4 O 0.96313(18) 0.34260(11) 0.13650(17)
C1_4 C 0.9699(3) 0.2500 0.0663(4)
O2_4 O 0.90226(16) 0.43156(11) 0.76880(16)
H1_4 H 0.9812 0.2500 0.9496
C2_4 C 0.7818(3) 0.4658(2) 0.7110(3)
H2_4 H 0.7338 0.5230 0.7706
loop_
_geom_bond_atom_site_label_1
_geom_bond_atom_site_label_2
_geom_bond_site_symmetry_1
_geom_bond_site_symmetry_2
Mn1 O1 1_555 1_555
O1 C1 1_555 1_555
O2 Mn1 1_555 1_555
O3 C2 1_555 1_555
C1 H1 1_555 1_555
C2 O2 1_555 1_555
O4 C1 1_555 1_555
Mn3_2 O3 1_555 1_555
Mn4 O4 1_555 1_555
O9 Mn1 1_555 1_555
O5 Mn1_2 1_555 1_555
O6 C3 1_555 1_555
C3 O5 1_555 1_555
Mn3_7 O6 1_555 1_555
O7 Mn1_2 1_555 1_555
O8 Mn1_2 1_555 1_555
O2_2 Mn3_3 1_555 1_555
O8 C2_2 1_555 1_555
C2_2 O2_2 1_555 1_555
Mn3_4 O1_2 1_555 1_555
O1_2 C1_2 1_555 1_555
O4_2 C1_2 1_555 1_555
Mn4_3 O4_2 1_555 1_555
O7_2 Mn3_5 1_555 1_555
O5_2 Mn3_6 1_555 1_555
O9 C3_2 1_555 1_555
C3_2 O5_2 1_555 1_555
Mn4 O1_3 1_555 1_555
O1_3 C1_3 1_555 1_555
O2_3 Mn4 1_555 1_555
O3_2 C2_3 1_555 1_555
C1_3 H1_3 1_555 1_555
C2_3 O2_3 1_555 1_555
H2_3 C2_3 1_555 1_555
O7 C1_3 1_555 1_555
O5_3 Mn4 1_555 1_555
O6_2 C3_3 1_555 1_555
C3_3 O5_3 1_555 1_555
H3_3 C3_3 1_555 1_555
Mn4_4 O3_2 1_555 1_555
Mn4_3 O6_2 1_555 1_555
O8_2 Mn4 1_555 1_555
O9_2 Mn4 1_555 1_555
O5_4 Mn4_2 1_555 1_555
O9_2 C3_4 1_555 1_555
C3_4 O5_4 1_555 1_555
H3_4 C3_4 1_555 1_555
Mn4_4 O1_4 1_555 1_555
O1_4 C1_4 1_555 1_555
O7_2 C1_4 1_555 1_555
O2_4 Mn4_5 1_555 1_555
O8_2 C2_4 1_555 1_555
C2_4 O2_4 1_555 1_555
H2_4 C2_4 1_555 1_555

#END
