
###############################################################################
#
# This file contains modified crystal structure data generated from the
# MOF subset of the Cambridge Structural Database (CSD) v543 
# hosted by the Cambridge Crystallographic Data Centre (CCDC).
#
# This work is licensed under the Creative Commons
# Attribution-NonCommercial-ShareAlike 4.0 International License.
# To view a copy of this license, visit
# http://creativecommons.org/licenses/by-nc-sa/4.0/
# or send a letter to
# Creative Commons, PO Box 1866, Mountain View, CA 94042, USA.
#
# CIF created using the CSD Python API on 29 September 2022
# The structure has been converted into the P1 space group
# The structure has a 3D framework
# The original CSD entry SIWZOP03 is in the hexagonal crystal system
# The original CSD entry SIWZOP03 is in a Sohncke space group
# The framework has been calculated to contain at least 10.0% void space
# The void calculation uses a probe of radius 1.32A, grid spacing 0.4
# The framework is charged, counterions have been retained in the structure
#
###############################################################################

data_SIWZOP03
_chemical_formula_moiety         '(C10 H6 Mg2 O12 2-)n'
_symmetry_cell_setting           triclinic
_symmetry_space_group_name_H-M   'P 1'
_symmetry_Int_Tables_number      1
_space_group_name_Hall           'P 1'
loop_
_symmetry_equiv_pos_site_id
_symmetry_equiv_pos_as_xyz
1 x,y,z
_cell_length_a                   7.8798(3)
_cell_length_b                   7.8798(3)
_cell_length_c                   7.5682(4)
_cell_angle_alpha                90
_cell_angle_beta                 90
_cell_angle_gamma                120
_cell_volume                     406.962
loop_
_atom_site_label
_atom_site_type_symbol
_atom_site_fract_x
_atom_site_fract_y
_atom_site_fract_z
O4 O 0.67967(17) 0.12078(23) 0.88454(14)
C2 C 0.5518(2) 0.0000(3) 0.9822(4)
H2 H 0.4340 0.0004 0.9826
Mg4 Mg 0.6666 0.3333 0.73208(19)
Mg1 Mg 0.3333 0.6667 0.23208(19)
O1 O 0.32024(17) 0.44120(16) 0.07915(17)
O3 O 0.55880(16) 0.87904(23) 0.07915(17)
O5 O 0.12096(23) 0.67976(17) 0.07915(17)
O7 O 0.12078(23) 0.44111(16) 0.38454(14)
O8 O 0.55889(16) 0.67967(17) 0.38454(14)
O9 O 0.32033(17) 0.87922(23) 0.38454(14)
O2 O 0.44111(16) 0.32033(17) 0.88454(14)
C1 C 0.4482(2) 0.4482(2) 0.9822(4)
H1 H 0.5664 0.5660 0.9826
C2_2 C 0.5518(2) 1.0000(3) 0.9822(4)
C3 C -0.0000(3) 0.5518(2) 0.9822(4)
O6 O 0.87922(23) 0.55889(16) 0.88454(14)
C3_2 C 1.0000(3) 0.5518(2) 0.9822(4)
H3 H 0.9996 0.4336 0.9826
C1_2 C -0.0000(3) 0.4482(2) 0.4822(4)
H1_2 H 0.0004 0.5664 0.4826
O1_2 O 0.87904(23) 0.32024(17) 0.57915(17)
C1_3 C 1.0000(3) 0.4482(2) 0.4822(4)
O3_2 O 0.67976(28) 0.55880(16) 0.57915(17)
C2_3 C 0.5518(4) 0.5518(2) 0.4822(4)
H2_2 H 0.4336 0.4340 0.4826
O5_2 O 0.44120(29) 0.12096(23) 0.57915(17)
C3_3 C 0.4482(4) -0.0000(3) 0.4822(4)
C3_4 C 0.4482(4) 1.0000(3) 0.4822(4)
H3_2 H 0.5660 0.9996 0.4826
loop_
_geom_bond_atom_site_label_1
_geom_bond_atom_site_label_2
_geom_bond_site_symmetry_1
_geom_bond_site_symmetry_2
O4 C2 1_555 1_555
H2 C2 1_555 1_555
Mg4 O4 1_555 1_555
Mg1 O1 1_555 1_555
O3 Mg1 1_555 1_555
O5 Mg1 1_555 1_555
O7 Mg1 1_555 1_555
O8 Mg1 1_555 1_555
O9 Mg1 1_555 1_555
O2 C1 1_555 1_555
C1 H1 1_555 1_555
Mg4 O2 1_555 1_555
O6 C3_2 1_555 1_555
H3 C3_2 1_555 1_555
Mg4 O6 1_555 1_555
O7 C1_2 1_555 1_555
C1_2 H1_2 1_555 1_555
Mg4 O1_2 1_555 1_555
O1_2 C1_3 1_555 1_555
O3_2 Mg4 1_555 1_555
O8 C2_3 1_555 1_555
C2_3 O3_2 1_555 1_555
H2_2 C2_3 1_555 1_555
O5_2 Mg4 1_555 1_555
C3_3 O5_2 1_555 1_555
O9 C3_4 1_555 1_555
H3_2 C3_4 1_555 1_555

#END
