
###############################################################################
#
# This file contains modified crystal structure data generated from the
# MOF subset of the Cambridge Structural Database (CSD) v543 
# hosted by the Cambridge Crystallographic Data Centre (CCDC).
#
# This work is licensed under the Creative Commons
# Attribution-NonCommercial-ShareAlike 4.0 International License.
# To view a copy of this license, visit
# http://creativecommons.org/licenses/by-nc-sa/4.0/
# or send a letter to
# Creative Commons, PO Box 1866, Mountain View, CA 94042, USA.
#
# CIF created using the CSD Python API on 29 September 2022
# The structure has been converted into the P1 space group
# The structure has a 3D framework
# The original CSD entry SIXFIQ01 is in the monoclinic crystal system
# The framework has been calculated to contain at least 10.0% void space
# The void calculation uses a probe of radius 1.32A, grid spacing 0.4
#
###############################################################################

data_SIXFIQ01
_chemical_formula_moiety         '(C96 H56 Cu2 N8 O16)n'
_symmetry_cell_setting           triclinic
_symmetry_space_group_name_H-M   'P 1'
_symmetry_Int_Tables_number      1
_space_group_name_Hall           'P 1'
loop_
_symmetry_equiv_pos_site_id
_symmetry_equiv_pos_as_xyz
1 x,y,z
_cell_length_a                   13.8641(6)
_cell_length_b                   18.1349(9)
_cell_length_c                   26.5914(12)
_cell_angle_alpha                90
_cell_angle_beta                 117.3390(10)
_cell_angle_gamma                90
_cell_volume                     5938.96
loop_
_atom_site_label
_atom_site_type_symbol
_atom_site_fract_x
_atom_site_fract_y
_atom_site_fract_z
O1 O 0.03164(10) 0.41655(8) 0.44926(5)
O2 O 0.14917(10) 0.51053(7) 0.48375(5)
O3 O 0.03008(10) 0.10176(7) 0.05262(5)
O4 O 0.14827(10) 0.00799(8) 0.08586(5)
N1 N 0.83431(12) 0.34519(9) 0.44581(6)
N2 N 0.31830(12) 0.27509(9) 0.31480(6)
C1 C 0.11616(15) 0.45093(12) 0.45683(7)
C2 C 0.18314(16) 0.41770(11) 0.43144(8)
C3 C 0.28156(17) 0.44659(13) 0.44132(9)
H1 H 0.3065 0.4891 0.4631
C4 C 0.34455(18) 0.41406(13) 0.41965(10)
H2 H 0.4121 0.4339 0.4281
C5 C 0.30846(16) 0.35239(12) 0.38566(8)
C6 C 0.20712(18) 0.32411(15) 0.37478(10)
H3 H 0.1802 0.2830 0.3515
C7 C 0.14676(17) 0.35562(14) 0.39769(10)
H4 H 0.0802 0.3350 0.3905
C8 C 0.11485(15) 0.07128(11) 0.08916(7)
C9 C 0.18278(15) 0.11532(11) 0.14233(7)
C10 C 0.28366(16) 0.08976(12) 0.18060(8)
H5 H 0.3097 0.0456 0.1738
C11 C 0.34643(16) 0.12999(12) 0.22929(8)
H6 H 0.4150 0.1129 0.2546
C12 C 0.30848(15) 0.19457(12) 0.24049(8)
C13 C 0.20634(17) 0.21965(13) 0.20218(9)
H7 H 0.1790 0.2629 0.2095
C14 C 0.14495(17) 0.18028(13) 0.15292(9)
H8 H 0.0775 0.1981 0.1269
C15 C 0.37518(16) 0.23753(11) 0.29366(8)
C16 C 0.48744(16) 0.23833(11) 0.31823(8)
H9 H 0.5238 0.2114 0.3024
C17 C 0.54522(15) 0.27980(11) 0.36690(8)
C18 C 0.48758(15) 0.31834(11) 0.38858(8)
H10 H 0.5242 0.3466 0.4211
C19 C 0.37506(16) 0.31530(11) 0.36229(8)
C20 C 0.72641(15) 0.34244(11) 0.42036(7)
H11 H 0.6888 0.3853 0.4195
C21 C 0.66626(15) 0.27973(11) 0.39508(8)
C22 C 0.72405(17) 0.21671(12) 0.39704(10)
H12 H 0.6876 0.1735 0.3801
C23 C 0.83610(18) 0.21825(13) 0.42427(12)
H13 H 0.8762 0.1761 0.4267
C24 C 0.88693(16) 0.28349(12) 0.44770(10)
H14 H 0.9624 0.2844 0.4659
Cu1 Cu 0.069147(17) 0.556040(12) 0.520087(8)
O7 O 0.14827(10) 0.49201(8) 0.58586(5)
N3 N 0.16569(12) 0.65481(9) 0.55419(6)
Cu4 Cu 0.930853(17) 0.443960(12) 0.479913(8)
Cu5 Cu 0.069147(17) 0.943960(12) 0.020087(8)
O5 O 0.96836(10) 0.58345(8) 0.55074(5)
O6 O 0.96992(10) 0.60176(7) 0.44738(5)
Cu2 Cu 0.930853(17) 0.056040(12) 0.979913(8)
O5_2 O 0.03164(10) 0.08345(8) 0.94926(5)
N3_2 N 0.83431(12) 0.15481(9) 0.94581(6)
O1_2 O 0.96836(10) 0.91655(8) 0.05074(5)
O4_2 O 0.85173(10) 0.50799(8) 0.41414(5)
N1_2 N 0.16569(12) 0.84519(9) 0.05419(6)
N2_2 N 0.68170(12) 0.77509(9) 0.18520(6)
C1_2 C 0.88384(15) 0.95093(12) 0.04317(7)
C2_2 C 0.81686(16) 0.91770(11) 0.06856(8)
C3_2 C 0.71844(17) 0.94659(13) 0.05868(9)
H1_2 H 0.6935 0.9891 0.0369
C4_2 C 0.65545(18) 0.91406(13) 0.08035(10)
H2_2 H 0.5879 0.9339 0.0719
C5_2 C 0.69154(16) 0.85239(12) 0.11434(8)
C6_2 C 0.79288(18) 0.82411(15) 0.12522(10)
H3_2 H 0.8198 0.7830 0.1485
C7_2 C 0.85324(17) 0.85562(14) 0.10231(10)
H4_2 H 0.9198 0.8350 0.1095
C8_2 C 0.88515(15) 0.57128(11) 0.41084(7)
C9_2 C 0.81722(15) 0.61532(11) 0.35767(7)
C10_2 C 0.71634(16) 0.58976(12) 0.31940(8)
H5_2 H 0.6903 0.5456 0.3262
C11_2 C 0.65357(16) 0.62999(12) 0.27071(8)
H6_2 H 0.5850 0.6129 0.2454
C12_2 C 0.69152(15) 0.69457(12) 0.25951(8)
C13_2 C 0.79366(17) 0.71965(13) 0.29782(9)
H7_2 H 0.8210 0.7629 0.2905
C14_2 C 0.85505(17) 0.68028(13) 0.34708(9)
H8_2 H 0.9225 0.6981 0.3731
C15_2 C 0.62482(16) 0.73753(11) 0.20634(8)
C16_2 C 0.51256(16) 0.73833(11) 0.18177(8)
H9_2 H 0.4762 0.7114 0.1976
C17_2 C 0.45478(15) 0.77980(11) 0.13310(8)
C18_2 C 0.51242(15) 0.81834(11) 0.11142(8)
H10_2 H 0.4758 0.8466 0.0789
C19_2 C 0.62494(16) 0.81530(11) 0.13771(8)
C20_2 C 0.27359(15) 0.84244(11) 0.07964(7)
H11_2 H 0.3112 0.8853 0.0805
C21_2 C 0.33374(15) 0.77973(11) 0.10492(8)
C22_2 C 0.27595(17) 0.71671(12) 0.10296(10)
H12_2 H 0.3124 0.6735 0.1199
C23_2 C 0.16390(18) 0.71825(13) 0.07573(12)
H13_2 H 0.1238 0.6761 0.0733
C24_2 C 0.11307(16) 0.78349(12) 0.05230(10)
H14_2 H 0.0376 0.7844 0.0341
O7_2 O 0.85173(10) 0.99201(8) 0.91414(5)
O6_2 O 0.03008(10) 0.39824(7) 0.55262(5)
O2_2 O 0.85083(10) 0.48947(7) 0.51625(5)
O3_2 O 0.96992(10) 0.89824(7) 0.94738(5)
N2_3 N 0.68170(12) 0.72491(9) 0.68520(6)
C1_3 C 0.88384(15) 0.54907(12) 0.54317(7)
C2_3 C 0.81686(16) 0.58230(11) 0.56856(8)
C3_3 C 0.71844(17) 0.55341(13) 0.55868(9)
H1_3 H 0.6935 0.5109 0.5369
C4_3 C 0.65545(18) 0.58594(13) 0.58035(10)
H2_3 H 0.5879 0.5661 0.5719
C5_3 C 0.69154(16) 0.64761(12) 0.61434(8)
C6_3 C 0.79288(18) 0.67589(15) 0.62522(10)
H3_3 H 0.8198 0.7170 0.6485
C7_3 C 0.85324(17) 0.64438(14) 0.60231(10)
H4_3 H 0.9198 0.6650 0.6095
C8_3 C 0.88515(15) 0.92872(11) 0.91084(7)
C9_3 C 0.81722(15) 0.88468(11) 0.85767(7)
C10_3 C 0.71634(16) 0.91024(12) 0.81940(8)
H5_3 H 0.6903 0.9544 0.8262
C11_3 C 0.65357(16) 0.87001(12) 0.77071(8)
H6_3 H 0.5850 0.8871 0.7454
C12_3 C 0.69152(15) 0.80543(12) 0.75951(8)
C13_3 C 0.79366(17) 0.78035(13) 0.79782(9)
H7_3 H 0.8210 0.7371 0.7905
C14_3 C 0.85505(17) 0.81972(13) 0.84708(9)
H8_3 H 0.9225 0.8019 0.8731
C15_3 C 0.62482(16) 0.76247(11) 0.70634(8)
C16_3 C 0.51256(16) 0.76167(11) 0.68177(8)
H9_3 H 0.4762 0.7886 0.6976
C17_3 C 0.45478(15) 0.72020(11) 0.63310(8)
C18_3 C 0.51242(15) 0.68166(11) 0.61142(8)
H10_3 H 0.4758 0.6534 0.5789
C19_3 C 0.62494(16) 0.68470(11) 0.63771(8)
C20_3 C 0.27359(15) 0.65756(11) 0.57964(7)
H11_3 H 0.3112 0.6147 0.5805
C21_3 C 0.33374(15) 0.72027(11) 0.60492(8)
C22_3 C 0.27595(17) 0.78329(12) 0.60296(10)
H12_3 H 0.3124 0.8265 0.6199
C23_3 C 0.16390(18) 0.78175(13) 0.57573(12)
H13_3 H 0.1238 0.8239 0.5733
C24_3 C 0.11307(16) 0.71651(12) 0.55230(10)
H14_3 H 0.0376 0.7156 0.5341
N2_4 N 0.31830(12) 0.22491(9) 0.81480(6)
C1_4 C 0.11616(15) 0.04907(12) 0.95683(7)
C2_4 C 0.18314(16) 0.08230(11) 0.93144(8)
C3_4 C 0.28156(17) 0.05341(13) 0.94132(9)
H1_4 H 0.3065 0.0109 0.9631
C4_4 C 0.34455(18) 0.08594(13) 0.91965(10)
H2_4 H 0.4121 0.0661 0.9281
C5_4 C 0.30846(16) 0.14761(12) 0.88566(8)
C6_4 C 0.20712(18) 0.17589(15) 0.87478(10)
H3_4 H 0.1802 0.2170 0.8515
C7_4 C 0.14676(17) 0.14438(14) 0.89769(10)
H4_4 H 0.0802 0.1650 0.8905
C8_4 C 0.11485(15) 0.42872(11) 0.58916(7)
C9_4 C 0.18278(15) 0.38468(11) 0.64233(7)
C10_4 C 0.28366(16) 0.41024(12) 0.68060(8)
H5_4 H 0.3097 0.4544 0.6738
C11_4 C 0.34643(16) 0.37001(12) 0.72929(8)
H6_4 H 0.4150 0.3871 0.7546
C12_4 C 0.30848(15) 0.30543(12) 0.74049(8)
C13_4 C 0.20634(17) 0.28035(13) 0.70218(9)
H7_4 H 0.1790 0.2371 0.7095
C14_4 C 0.14495(17) 0.31972(13) 0.65292(9)
H8_4 H 0.0775 0.3019 0.6269
C15_4 C 0.37518(16) 0.26247(11) 0.79366(8)
C16_4 C 0.48744(16) 0.26167(11) 0.81823(8)
H9_4 H 0.5238 0.2886 0.8024
C17_4 C 0.54522(15) 0.22020(11) 0.86690(8)
C18_4 C 0.48758(15) 0.18166(11) 0.88858(8)
H10_4 H 0.5242 0.1534 0.9211
C19_4 C 0.37506(16) 0.18470(11) 0.86229(8)
C20_4 C 0.72641(15) 0.15756(11) 0.92036(7)
H11_4 H 0.6888 0.1147 0.9195
C21_4 C 0.66626(15) 0.22027(11) 0.89508(8)
C22_4 C 0.72405(17) 0.28329(12) 0.89704(10)
H12_4 H 0.6876 0.3265 0.8801
C23_4 C 0.83610(18) 0.28175(13) 0.92427(12)
H13_4 H 0.8762 0.3239 0.9267
C24_4 C 0.88693(16) 0.21651(12) 0.94770(10)
H14_4 H 0.9624 0.2156 0.9659
O2_3 O 0.85083(10) 0.01053(7) 0.01625(5)
O2_4 O 0.14917(10) 0.98947(7) 0.98375(5)
loop_
_geom_bond_atom_site_label_1
_geom_bond_atom_site_label_2
_geom_bond_site_symmetry_1
_geom_bond_site_symmetry_2
O1 C1 1_555 1_555
O2 C1 1_555 1_555
O3 C8 1_555 1_555
O4 C8 1_555 1_555
N1 C20 1_555 1_555
N2 C15 1_555 1_555
C1 C2 1_555 1_555
C2 C3 1_555 1_555
C3 H1 1_555 1_555
C4 C3 1_555 1_555
H2 C4 1_555 1_555
C5 C4 1_555 1_555
C6 C5 1_555 1_555
H3 C6 1_555 1_555
C7 C2 1_555 1_555
H4 C7 1_555 1_555
C8 C9 1_555 1_555
C9 C10 1_555 1_555
C10 H5 1_555 1_555
C11 C10 1_555 1_555
H6 C11 1_555 1_555
C12 C11 1_555 1_555
C13 C12 1_555 1_555
H7 C13 1_555 1_555
C14 C9 1_555 1_555
H8 C14 1_555 1_555
C15 C12 1_555 1_555
C16 C15 1_555 1_555
H9 C16 1_555 1_555
C17 C16 1_555 1_555
C18 C17 1_555 1_555
H10 C18 1_555 1_555
C19 N2 1_555 1_555
C20 H11 1_555 1_555
C21 C17 1_555 1_555
C22 C21 1_555 1_555
H12 C22 1_555 1_555
C23 C22 1_555 1_555
H13 C23 1_555 1_555
C24 N1 1_555 1_555
H14 C24 1_555 1_555
Cu1 O2 1_555 1_555
O7 Cu1 1_555 1_555
N3 Cu1 1_555 1_555
Cu4 N1 1_555 1_555
C5 C19 1_555 1_555
C6 C7 1_555 1_555
C13 C14 1_555 1_555
C18 C19 1_555 1_555
C20 C21 1_555 1_555
C23 C24 1_555 1_555
N3_2 Cu2 1_555 1_555
O1_2 C1_2 1_555 1_555
O6 C8_2 1_555 1_555
O4_2 C8_2 1_555 1_555
N1_2 C20_2 1_555 1_555
N2_2 C15_2 1_555 1_555
C1_2 C2_2 1_555 1_555
C2_2 C3_2 1_555 1_555
C3_2 H1_2 1_555 1_555
C4_2 C3_2 1_555 1_555
H2_2 C4_2 1_555 1_555
C5_2 C4_2 1_555 1_555
C6_2 C5_2 1_555 1_555
H3_2 C6_2 1_555 1_555
C7_2 C2_2 1_555 1_555
H4_2 C7_2 1_555 1_555
C8_2 C9_2 1_555 1_555
C9_2 C10_2 1_555 1_555
C10_2 H5_2 1_555 1_555
C11_2 C10_2 1_555 1_555
H6_2 C11_2 1_555 1_555
C12_2 C11_2 1_555 1_555
C13_2 C12_2 1_555 1_555
H7_2 C13_2 1_555 1_555
C14_2 C9_2 1_555 1_555
H8_2 C14_2 1_555 1_555
C15_2 C12_2 1_555 1_555
C16_2 C15_2 1_555 1_555
H9_2 C16_2 1_555 1_555
C17_2 C16_2 1_555 1_555
C18_2 C17_2 1_555 1_555
H10_2 C18_2 1_555 1_555
C19_2 N2_2 1_555 1_555
C20_2 H11_2 1_555 1_555
C21_2 C17_2 1_555 1_555
C22_2 C21_2 1_555 1_555
H12_2 C22_2 1_555 1_555
C23_2 C22_2 1_555 1_555
H13_2 C23_2 1_555 1_555
C24_2 N1_2 1_555 1_555
H14_2 C24_2 1_555 1_555
Cu5 N1_2 1_555 1_555
Cu4 O4_2 1_555 1_555
C5_2 C19_2 1_555 1_555
C6_2 C7_2 1_555 1_555
C13_2 C14_2 1_555 1_555
C18_2 C19_2 1_555 1_555
C20_2 C21_2 1_555 1_555
C23_2 C24_2 1_555 1_555
O5 C1_3 1_555 1_555
O2_2 C1_3 1_555 1_555
O3_2 C8_3 1_555 1_555
O7_2 C8_3 1_555 1_555
N3 C20_3 1_555 1_555
N2_3 C15_3 1_555 1_555
C1_3 C2_3 1_555 1_555
C2_3 C3_3 1_555 1_555
C3_3 H1_3 1_555 1_555
C4_3 C3_3 1_555 1_555
H2_3 C4_3 1_555 1_555
C5_3 C4_3 1_555 1_555
C6_3 C5_3 1_555 1_555
H3_3 C6_3 1_555 1_555
C7_3 C2_3 1_555 1_555
H4_3 C7_3 1_555 1_555
C8_3 C9_3 1_555 1_555
C9_3 C10_3 1_555 1_555
C10_3 H5_3 1_555 1_555
C11_3 C10_3 1_555 1_555
H6_3 C11_3 1_555 1_555
C12_3 C11_3 1_555 1_555
C13_3 C12_3 1_555 1_555
H7_3 C13_3 1_555 1_555
C14_3 C9_3 1_555 1_555
H8_3 C14_3 1_555 1_555
C15_3 C12_3 1_555 1_555
C16_3 C15_3 1_555 1_555
H9_3 C16_3 1_555 1_555
C17_3 C16_3 1_555 1_555
C18_3 C17_3 1_555 1_555
H10_3 C18_3 1_555 1_555
C19_3 N2_3 1_555 1_555
C20_3 H11_3 1_555 1_555
C21_3 C17_3 1_555 1_555
C22_3 C21_3 1_555 1_555
H12_3 C22_3 1_555 1_555
C23_3 C22_3 1_555 1_555
H13_3 C23_3 1_555 1_555
C24_3 N3 1_555 1_555
H14_3 C24_3 1_555 1_555
Cu4 O2_2 1_555 1_555
C5_3 C19_3 1_555 1_555
C6_3 C7_3 1_555 1_555
C13_3 C14_3 1_555 1_555
C18_3 C19_3 1_555 1_555
C20_3 C21_3 1_555 1_555
C23_3 C24_3 1_555 1_555
O5_2 C1_4 1_555 1_555
O6_2 C8_4 1_555 1_555
O7 C8_4 1_555 1_555
N3_2 C20_4 1_555 1_555
N2_4 C15_4 1_555 1_555
C1_4 C2_4 1_555 1_555
C2_4 C3_4 1_555 1_555
C3_4 H1_4 1_555 1_555
C4_4 C3_4 1_555 1_555
H2_4 C4_4 1_555 1_555
C5_4 C4_4 1_555 1_555
C6_4 C5_4 1_555 1_555
H3_4 C6_4 1_555 1_555
C7_4 C2_4 1_555 1_555
H4_4 C7_4 1_555 1_555
C8_4 C9_4 1_555 1_555
C9_4 C10_4 1_555 1_555
C10_4 H5_4 1_555 1_555
C11_4 C10_4 1_555 1_555
H6_4 C11_4 1_555 1_555
C12_4 C11_4 1_555 1_555
C13_4 C12_4 1_555 1_555
H7_4 C13_4 1_555 1_555
C14_4 C9_4 1_555 1_555
H8_4 C14_4 1_555 1_555
C15_4 C12_4 1_555 1_555
C16_4 C15_4 1_555 1_555
H9_4 C16_4 1_555 1_555
C17_4 C16_4 1_555 1_555
C18_4 C17_4 1_555 1_555
H10_4 C18_4 1_555 1_555
C19_4 N2_4 1_555 1_555
C20_4 H11_4 1_555 1_555
C21_4 C17_4 1_555 1_555
C22_4 C21_4 1_555 1_555
H12_4 C22_4 1_555 1_555
C23_4 C22_4 1_555 1_555
H13_4 C23_4 1_555 1_555
C24_4 N3_2 1_555 1_555
H14_4 C24_4 1_555 1_555
C5_4 C19_4 1_555 1_555
C6_4 C7_4 1_555 1_555
C13_4 C14_4 1_555 1_555
C18_4 C19_4 1_555 1_555
C20_4 C21_4 1_555 1_555
C23_4 C24_4 1_555 1_555

#END
