
###############################################################################
#
# This file contains modified crystal structure data generated from the
# MOF subset of the Cambridge Structural Database (CSD) v543 
# hosted by the Cambridge Crystallographic Data Centre (CCDC).
#
# This work is licensed under the Creative Commons
# Attribution-NonCommercial-ShareAlike 4.0 International License.
# To view a copy of this license, visit
# http://creativecommons.org/licenses/by-nc-sa/4.0/
# or send a letter to
# Creative Commons, PO Box 1866, Mountain View, CA 94042, USA.
#
# CIF created using the CSD Python API on 29 September 2022
# The structure has been converted into the P1 space group
# The structure has a 3D framework
# The original CSD entry SIXFIQ is in the monoclinic crystal system
# The framework has been calculated to contain at least 10.0% void space
# The void calculation uses a probe of radius 1.32A, grid spacing 0.4
#
###############################################################################

data_SIXFIQ
_chemical_formula_moiety         '(C96 H56 Cu2 N8 O14)n'
_symmetry_cell_setting           triclinic
_symmetry_space_group_name_H-M   'P 1'
_symmetry_Int_Tables_number      1
_space_group_name_Hall           'P 1'
loop_
_symmetry_equiv_pos_site_id
_symmetry_equiv_pos_as_xyz
1 x,y,z
_cell_length_a                   13.8932(6)
_cell_length_b                   14.9017(8)
_cell_length_c                   28.2244(15)
_cell_angle_alpha                90
_cell_angle_beta                 117.982(6)
_cell_angle_gamma                90
_cell_volume                     5160.24
loop_
_atom_site_label
_atom_site_type_symbol
_atom_site_fract_x
_atom_site_fract_y
_atom_site_fract_z
O1 O 0.04819(14) 0.38973(15) 0.46338(8)
O2 O 0.14945(14) 0.51379(16) 0.48622(7)
O3 O 0.04080(14) 0.11157(15) 0.06045(7)
N1 N 0.84867(15) 0.30278(16) 0.46055(8)
N2 N 0.32874(16) 0.24336(19) 0.32851(9)
C1 C 0.12622(19) 0.4360(2) 0.46692(10)
C2 C 0.1950(2) 0.3952(2) 0.44451(10)
C3 C 0.2962(2) 0.4329(2) 0.45611(11)
H1 H 0.3231 0.4835 0.4791
C4 C 0.3555(2) 0.3960(2) 0.43398(12)
H2 H 0.4238 0.4221 0.4420
C5 C 0.3208(2) 0.3233(2) 0.40085(11)
C6 C 0.2207(2) 0.2858(3) 0.38956(14)
H3 H 0.1941 0.2354 0.3663
C7 C 0.1595(2) 0.3216(3) 0.41208(14)
H4 H 0.0921 0.2946 0.4049
C8 C 0.1188(2) 0.0632(2) 0.09230(10)
C9 C 0.1882(2) 0.0999(2) 0.14774(10)
C10 C 0.2805(2) 0.0562(2) 0.18320(11)
H5 H 0.3011 0.0022 0.1724
C11 C 0.3448(2) 0.0890(2) 0.23455(11)
H6 H 0.4095 0.0581 0.2581
C12 C 0.3161(2) 0.1647(2) 0.25146(10)
C13 C 0.2221(3) 0.2085(3) 0.21651(14)
H7 H 0.1998 0.2605 0.2282
C14 C 0.1598(3) 0.1780(3) 0.16455(13)
H8 H 0.0973 0.2108 0.1404
C15 C 0.3835(2) 0.2017(2) 0.30653(10)
C16 C 0.4957(2) 0.1944(2) 0.33286(11)
H9 H 0.5319 0.1621 0.3168
C17 C 0.5559(2) 0.2340(2) 0.38278(10)
C18 C 0.50024(19) 0.2791(2) 0.40516(10)
H10 H 0.5387 0.3079 0.4390
C19 C 0.3858(2) 0.2817(2) 0.37716(10)
C20 C 0.73924(19) 0.3036(2) 0.43479(9)
H11 H 0.7030 0.3586 0.4328
C21 C 0.6769(2) 0.2288(2) 0.41117(11)
C22 C 0.7304(3) 0.1501(3) 0.41342(15)
H12 H 0.6903 0.0976 0.3965
C23 C 0.8441(3) 0.1480(3) 0.44065(19)
H13 H 0.8827 0.0939 0.4437
C24 C 0.8981(2) 0.2260(2) 0.46283(14)
H14 H 0.9755 0.2250 0.4809
Cu1 Cu 0.05970(2) 0.57382(3) 0.513383(13)
O7 O 0.14248(14) 0.51234(15) 0.58237(7)
N3 N 0.15133(15) 0.69722(16) 0.53945(8)
Cu4 Cu 0.94030(2) 0.42618(3) 0.486617(13)
O4 O 0.14248(14) 0.98766(15) 0.08237(7)
Cu5 Cu 0.05970(2) 0.92618(3) 0.013383(13)
O5 O 0.95181(14) 0.61027(15) 0.53662(8)
O6 O 0.95920(14) 0.61157(15) 0.43955(7)
Cu2 Cu 0.94030(2) 0.07382(3) 0.986617(13)
O5_2 O 0.04819(14) 0.11027(15) 0.96338(8)
O7_2 O 0.85752(14) 0.01234(15) 0.91763(7)
N3_2 N 0.84867(15) 0.19722(16) 0.96055(8)
O1_2 O 0.95181(14) 0.88973(15) 0.03662(8)
O4_2 O 0.85752(14) 0.48766(15) 0.41763(7)
N1_2 N 0.15133(15) 0.80278(16) 0.03945(8)
N2_2 N 0.67126(16) 0.74336(19) 0.17149(9)
C1_2 C 0.87378(19) 0.9360(2) 0.03308(10)
C2_2 C 0.8050(2) 0.8952(2) 0.05549(10)
C3_2 C 0.7038(2) 0.9329(2) 0.04389(11)
H1_2 H 0.6769 0.9835 0.0209
C4_2 C 0.6445(2) 0.8960(2) 0.06602(12)
H2_2 H 0.5762 0.9221 0.0580
C5_2 C 0.6792(2) 0.8233(2) 0.09915(11)
C6_2 C 0.7793(2) 0.7858(3) 0.11044(14)
H3_2 H 0.8059 0.7354 0.1337
C7_2 C 0.8405(2) 0.8216(3) 0.08792(14)
H4_2 H 0.9079 0.7946 0.0951
C8_2 C 0.8812(2) 0.5632(2) 0.40770(10)
C9_2 C 0.8118(2) 0.5999(2) 0.35226(10)
C10_2 C 0.7195(2) 0.5562(2) 0.31680(11)
H5_2 H 0.6989 0.5022 0.3276
C11_2 C 0.6552(2) 0.5890(2) 0.26545(11)
H6_2 H 0.5905 0.5581 0.2419
C12_2 C 0.6839(2) 0.6647(2) 0.24854(10)
C13_2 C 0.7779(3) 0.7085(3) 0.28349(14)
H7_2 H 0.8002 0.7605 0.2718
C14_2 C 0.8402(3) 0.6780(3) 0.33545(13)
H8_2 H 0.9027 0.7108 0.3596
C15_2 C 0.6165(2) 0.7017(2) 0.19347(10)
C16_2 C 0.5043(2) 0.6944(2) 0.16714(11)
H9_2 H 0.4681 0.6621 0.1832
C17_2 C 0.4441(2) 0.7340(2) 0.11722(10)
C18_2 C 0.49976(19) 0.7791(2) 0.09484(10)
H10_2 H 0.4613 0.8079 0.0610
C19_2 C 0.6142(2) 0.7817(2) 0.12284(10)
C20_2 C 0.26076(19) 0.8036(2) 0.06521(9)
H11_2 H 0.2970 0.8586 0.0672
C21_2 C 0.3231(2) 0.7288(2) 0.08883(11)
C22_2 C 0.2696(3) 0.6501(3) 0.08658(15)
H12_2 H 0.3097 0.5976 0.1035
C23_2 C 0.1559(3) 0.6480(3) 0.05935(19)
H13_2 H 0.1173 0.5939 0.0563
C24_2 C 0.1019(2) 0.7260(2) 0.03717(14)
H14_2 H 0.0245 0.7250 0.0191
O6_2 O 0.04080(14) 0.38843(15) 0.56045(7)
O2_2 O 0.85055(14) 0.48621(16) 0.51378(7)
O3_2 O 0.95920(14) 0.88843(15) 0.93955(7)
N2_3 N 0.67126(16) 0.75664(19) 0.67149(9)
C1_3 C 0.87378(19) 0.5640(2) 0.53308(10)
C2_3 C 0.8050(2) 0.6048(2) 0.55549(10)
C3_3 C 0.7038(2) 0.5671(2) 0.54389(11)
H1_3 H 0.6769 0.5165 0.5209
C4_3 C 0.6445(2) 0.6040(2) 0.56602(12)
H2_3 H 0.5762 0.5779 0.5580
C5_3 C 0.6792(2) 0.6767(2) 0.59915(11)
C6_3 C 0.7793(2) 0.7142(3) 0.61044(14)
H3_3 H 0.8059 0.7646 0.6337
C7_3 C 0.8405(2) 0.6784(3) 0.58792(14)
H4_3 H 0.9079 0.7054 0.5951
C8_3 C 0.8812(2) 0.9368(2) 0.90770(10)
C9_3 C 0.8118(2) 0.9001(2) 0.85226(10)
C10_3 C 0.7195(2) 0.9438(2) 0.81680(11)
H5_3 H 0.6989 0.9978 0.8276
C11_3 C 0.6552(2) 0.9110(2) 0.76545(11)
H6_3 H 0.5905 0.9419 0.7419
C12_3 C 0.6839(2) 0.8353(2) 0.74854(10)
C13_3 C 0.7779(3) 0.7915(3) 0.78349(14)
H7_3 H 0.8002 0.7395 0.7718
C14_3 C 0.8402(3) 0.8220(3) 0.83545(13)
H8_3 H 0.9027 0.7892 0.8596
C15_3 C 0.6165(2) 0.7983(2) 0.69347(10)
C16_3 C 0.5043(2) 0.8056(2) 0.66714(11)
H9_3 H 0.4681 0.8379 0.6832
C17_3 C 0.4441(2) 0.7660(2) 0.61722(10)
C18_3 C 0.49976(19) 0.7209(2) 0.59484(10)
H10_3 H 0.4613 0.6921 0.5610
C19_3 C 0.6142(2) 0.7183(2) 0.62284(10)
C20_3 C 0.26076(19) 0.6964(2) 0.56521(9)
H11_3 H 0.2970 0.6414 0.5672
C21_3 C 0.3231(2) 0.7712(2) 0.58883(11)
C22_3 C 0.2696(3) 0.8499(3) 0.58658(15)
H12_3 H 0.3097 0.9024 0.6035
C23_3 C 0.1559(3) 0.8520(3) 0.55935(19)
H13_3 H 0.1173 0.9061 0.5563
C24_3 C 0.1019(2) 0.7740(2) 0.53717(14)
H14_3 H 0.0245 0.7750 0.5191
N2_4 N 0.32874(16) 0.25664(19) 0.82851(9)
C1_4 C 0.12622(19) 0.0640(2) 0.96692(10)
C2_4 C 0.1950(2) 0.1048(2) 0.94451(10)
C3_4 C 0.2962(2) 0.0671(2) 0.95611(11)
H1_4 H 0.3231 0.0165 0.9791
C4_4 C 0.3555(2) 0.1040(2) 0.93398(12)
H2_4 H 0.4238 0.0779 0.9420
C5_4 C 0.3208(2) 0.1767(2) 0.90085(11)
C6_4 C 0.2207(2) 0.2142(3) 0.88956(14)
H3_4 H 0.1941 0.2646 0.8663
C7_4 C 0.1595(2) 0.1784(3) 0.91208(14)
H4_4 H 0.0921 0.2054 0.9049
C8_4 C 0.1188(2) 0.4368(2) 0.59230(10)
C9_4 C 0.1882(2) 0.4001(2) 0.64774(10)
C10_4 C 0.2805(2) 0.4438(2) 0.68320(11)
H5_4 H 0.3011 0.4978 0.6724
C11_4 C 0.3448(2) 0.4110(2) 0.73455(11)
H6_4 H 0.4095 0.4419 0.7581
C12_4 C 0.3161(2) 0.3353(2) 0.75146(10)
C13_4 C 0.2221(3) 0.2915(3) 0.71651(14)
H7_4 H 0.1998 0.2395 0.7282
C14_4 C 0.1598(3) 0.3220(3) 0.66455(13)
H8_4 H 0.0973 0.2892 0.6404
C15_4 C 0.3835(2) 0.2983(2) 0.80653(10)
C16_4 C 0.4957(2) 0.3056(2) 0.83286(11)
H9_4 H 0.5319 0.3379 0.8168
C17_4 C 0.5559(2) 0.2660(2) 0.88278(10)
C18_4 C 0.50024(19) 0.2209(2) 0.90516(10)
H10_4 H 0.5387 0.1921 0.9390
C19_4 C 0.3858(2) 0.2183(2) 0.87716(10)
C20_4 C 0.73924(19) 0.1964(2) 0.93479(9)
H11_4 H 0.7030 0.1414 0.9328
C21_4 C 0.6769(2) 0.2712(2) 0.91117(11)
C22_4 C 0.7304(3) 0.3499(3) 0.91342(15)
H12_4 H 0.6903 0.4024 0.8965
C23_4 C 0.8441(3) 0.3520(3) 0.94065(19)
H13_4 H 0.8827 0.4061 0.9437
C24_4 C 0.8981(2) 0.2740(2) 0.96283(14)
H14_4 H 0.9755 0.2750 0.9809
O2_3 O 0.85055(14) 0.01379(16) 0.01378(7)
O2_4 O 0.14945(14) 0.98621(16) 0.98622(7)
loop_
_geom_bond_atom_site_label_1
_geom_bond_atom_site_label_2
_geom_bond_site_symmetry_1
_geom_bond_site_symmetry_2
O1 C1 1_555 1_555
O2 C1 1_555 1_555
O3 C8 1_555 1_555
N1 C20 1_555 1_555
N2 C15 1_555 1_555
C1 C2 1_555 1_555
C2 C3 1_555 1_555
C3 H1 1_555 1_555
C4 C3 1_555 1_555
H2 C4 1_555 1_555
C5 C4 1_555 1_555
C6 C5 1_555 1_555
H3 C6 1_555 1_555
C7 C2 1_555 1_555
H4 C7 1_555 1_555
C8 C9 1_555 1_555
C9 C10 1_555 1_555
C10 H5 1_555 1_555
C11 C10 1_555 1_555
H6 C11 1_555 1_555
C12 C11 1_555 1_555
C13 C12 1_555 1_555
H7 C13 1_555 1_555
C14 C9 1_555 1_555
H8 C14 1_555 1_555
C15 C12 1_555 1_555
C16 C15 1_555 1_555
H9 C16 1_555 1_555
C17 C16 1_555 1_555
C18 C17 1_555 1_555
H10 C18 1_555 1_555
C19 N2 1_555 1_555
C20 H11 1_555 1_555
C21 C17 1_555 1_555
C22 C21 1_555 1_555
H12 C22 1_555 1_555
C23 C22 1_555 1_555
H13 C23 1_555 1_555
C24 N1 1_555 1_555
H14 C24 1_555 1_555
Cu1 O2 1_555 1_555
O7 Cu1 1_555 1_555
N3 Cu1 1_555 1_555
Cu4 N1 1_555 1_555
C5 C19 1_555 1_555
C6 C7 1_555 1_555
C13 C14 1_555 1_555
C18 C19 1_555 1_555
C20 C21 1_555 1_555
C23 C24 1_555 1_555
Cu5 O4 1_555 1_555
O7_2 Cu2 1_555 1_555
N3_2 Cu2 1_555 1_555
O1_2 C1_2 1_555 1_555
O6 C8_2 1_555 1_555
O4_2 C8_2 1_555 1_555
N1_2 C20_2 1_555 1_555
N2_2 C15_2 1_555 1_555
C1_2 C2_2 1_555 1_555
C2_2 C3_2 1_555 1_555
C3_2 H1_2 1_555 1_555
C4_2 C3_2 1_555 1_555
H2_2 C4_2 1_555 1_555
C5_2 C4_2 1_555 1_555
C6_2 C5_2 1_555 1_555
H3_2 C6_2 1_555 1_555
C7_2 C2_2 1_555 1_555
H4_2 C7_2 1_555 1_555
C8_2 C9_2 1_555 1_555
C9_2 C10_2 1_555 1_555
C10_2 H5_2 1_555 1_555
C11_2 C10_2 1_555 1_555
H6_2 C11_2 1_555 1_555
C12_2 C11_2 1_555 1_555
C13_2 C12_2 1_555 1_555
H7_2 C13_2 1_555 1_555
C14_2 C9_2 1_555 1_555
H8_2 C14_2 1_555 1_555
C15_2 C12_2 1_555 1_555
C16_2 C15_2 1_555 1_555
H9_2 C16_2 1_555 1_555
C17_2 C16_2 1_555 1_555
C18_2 C17_2 1_555 1_555
H10_2 C18_2 1_555 1_555
C19_2 N2_2 1_555 1_555
C20_2 H11_2 1_555 1_555
C21_2 C17_2 1_555 1_555
C22_2 C21_2 1_555 1_555
H12_2 C22_2 1_555 1_555
C23_2 C22_2 1_555 1_555
H13_2 C23_2 1_555 1_555
C24_2 N1_2 1_555 1_555
H14_2 C24_2 1_555 1_555
Cu5 N1_2 1_555 1_555
Cu4 O4_2 1_555 1_555
C5_2 C19_2 1_555 1_555
C6_2 C7_2 1_555 1_555
C13_2 C14_2 1_555 1_555
C18_2 C19_2 1_555 1_555
C20_2 C21_2 1_555 1_555
C23_2 C24_2 1_555 1_555
O5 C1_3 1_555 1_555
O2_2 C1_3 1_555 1_555
O3_2 C8_3 1_555 1_555
N3 C20_3 1_555 1_555
N2_3 C15_3 1_555 1_555
C1_3 C2_3 1_555 1_555
C2_3 C3_3 1_555 1_555
C3_3 H1_3 1_555 1_555
C4_3 C3_3 1_555 1_555
H2_3 C4_3 1_555 1_555
C5_3 C4_3 1_555 1_555
C6_3 C5_3 1_555 1_555
H3_3 C6_3 1_555 1_555
C7_3 C2_3 1_555 1_555
H4_3 C7_3 1_555 1_555
C8_3 C9_3 1_555 1_555
C9_3 C10_3 1_555 1_555
C10_3 H5_3 1_555 1_555
C11_3 C10_3 1_555 1_555
H6_3 C11_3 1_555 1_555
C12_3 C11_3 1_555 1_555
C13_3 C12_3 1_555 1_555
H7_3 C13_3 1_555 1_555
C14_3 C9_3 1_555 1_555
H8_3 C14_3 1_555 1_555
C15_3 C12_3 1_555 1_555
C16_3 C15_3 1_555 1_555
H9_3 C16_3 1_555 1_555
C17_3 C16_3 1_555 1_555
C18_3 C17_3 1_555 1_555
H10_3 C18_3 1_555 1_555
C19_3 N2_3 1_555 1_555
C20_3 H11_3 1_555 1_555
C21_3 C17_3 1_555 1_555
C22_3 C21_3 1_555 1_555
H12_3 C22_3 1_555 1_555
C23_3 C22_3 1_555 1_555
H13_3 C23_3 1_555 1_555
C24_3 N3 1_555 1_555
H14_3 C24_3 1_555 1_555
Cu4 O2_2 1_555 1_555
C5_3 C19_3 1_555 1_555
C6_3 C7_3 1_555 1_555
C13_3 C14_3 1_555 1_555
C18_3 C19_3 1_555 1_555
C20_3 C21_3 1_555 1_555
C23_3 C24_3 1_555 1_555
O5_2 C1_4 1_555 1_555
O6_2 C8_4 1_555 1_555
O7 C8_4 1_555 1_555
N3_2 C20_4 1_555 1_555
N2_4 C15_4 1_555 1_555
C1_4 C2_4 1_555 1_555
C2_4 C3_4 1_555 1_555
C3_4 H1_4 1_555 1_555
C4_4 C3_4 1_555 1_555
H2_4 C4_4 1_555 1_555
C5_4 C4_4 1_555 1_555
C6_4 C5_4 1_555 1_555
H3_4 C6_4 1_555 1_555
C7_4 C2_4 1_555 1_555
H4_4 C7_4 1_555 1_555
C8_4 C9_4 1_555 1_555
C9_4 C10_4 1_555 1_555
C10_4 H5_4 1_555 1_555
C11_4 C10_4 1_555 1_555
H6_4 C11_4 1_555 1_555
C12_4 C11_4 1_555 1_555
C13_4 C12_4 1_555 1_555
H7_4 C13_4 1_555 1_555
C14_4 C9_4 1_555 1_555
H8_4 C14_4 1_555 1_555
C15_4 C12_4 1_555 1_555
C16_4 C15_4 1_555 1_555
H9_4 C16_4 1_555 1_555
C17_4 C16_4 1_555 1_555
C18_4 C17_4 1_555 1_555
H10_4 C18_4 1_555 1_555
C19_4 N2_4 1_555 1_555
C20_4 H11_4 1_555 1_555
C21_4 C17_4 1_555 1_555
C22_4 C21_4 1_555 1_555
H12_4 C22_4 1_555 1_555
C23_4 C22_4 1_555 1_555
H13_4 C23_4 1_555 1_555
C24_4 N3_2 1_555 1_555
H14_4 C24_4 1_555 1_555
C5_4 C19_4 1_555 1_555
C6_4 C7_4 1_555 1_555
C13_4 C14_4 1_555 1_555
C18_4 C19_4 1_555 1_555
C20_4 C21_4 1_555 1_555
C23_4 C24_4 1_555 1_555

#END
