
###############################################################################
#
# This file contains modified crystal structure data generated from the
# MOF subset of the Cambridge Structural Database (CSD) v543 
# hosted by the Cambridge Crystallographic Data Centre (CCDC).
#
# This work is licensed under the Creative Commons
# Attribution-NonCommercial-ShareAlike 4.0 International License.
# To view a copy of this license, visit
# http://creativecommons.org/licenses/by-nc-sa/4.0/
# or send a letter to
# Creative Commons, PO Box 1866, Mountain View, CA 94042, USA.
#
# CIF created using the CSD Python API on 29 September 2022
# The structure has been converted into the P1 space group
# The structure has a 3D framework
# The original CSD entry SIXNEV is in the orthorhombic crystal system
# The framework has been calculated to contain at least 10.0% void space
# The void calculation uses a probe of radius 1.32A, grid spacing 0.4
# H atom positions have been added when not included in the experimental data
# Generated hydrogen atom positions removed from atoms on special positions
#
###############################################################################

data_SIXNEV
_chemical_formula_moiety         '(C360 H320 Cu36 F24 O132)n'
_symmetry_cell_setting           triclinic
_symmetry_space_group_name_H-M   'P 1'
_symmetry_Int_Tables_number      1
_space_group_name_Hall           'P 1'
loop_
_symmetry_equiv_pos_site_id
_symmetry_equiv_pos_as_xyz
1 x,y,z
_cell_length_a                   33.8863(5)
_cell_length_b                   33.8863(5)
_cell_length_c                   21.0840(13)
_cell_angle_alpha                90
_cell_angle_beta                 90
_cell_angle_gamma                90
_cell_volume                     24210.4
loop_
_atom_site_label
_atom_site_type_symbol
_atom_site_fract_x
_atom_site_fract_y
_atom_site_fract_z
Cu1 Cu 0.03891(3) 0.0000 0.0000
Cu2 Cu 0.0000 0.46101(2) 0.0000
Cu3 Cu 0.25580(2) 0.24643(2) 0.18953(3)
F1 F -0.0000 0.18798(11) 0.2374(3)
O1 O 0.0000 0.39735(13) 0.0000
O2 O 0.22926(10) 0.29632(11) 0.18619(19)
O3 O 0.21821(9) 0.30408(7) 0.28882(18)
F2 F 0.18671(11) 0.5000 0.2379(3)
O4 O 0.04067(7) 0.46691(6) 0.06276(16)
O5 O 0.10147(14) 0.0000 0.0000
O6 O 0.20501(9) 0.22005(11) 0.1875(2)
O7 O 0.03353(7) 0.04175(7) 0.06440(15)
O8 O 0.19476(8) 0.22480(9) 0.2907(2)
C1 C 0.0000 0.08926(15) 0.1236(4)
C2 C 0.05387(14) 0.5000 0.0821(3)
C3 C -0.0000 0.05418(14) 0.0834(3)
C4 C 0.03552(9) 0.10557(11) 0.1420(2)
H1 H 0.0591 0.0947 0.1278
C5 C 0.14580(10) 0.19530(12) 0.2221(3)
C6 C 0.0000 0.15548(17) 0.1990(3)
C7 C 0.07407(10) 0.15834(12) 0.1980(2)
C8 C 0.18586(11) 0.21563(12) 0.2290(3)
C9 C 0.03606(11) 0.13931(12) 0.1829(2)
C10 C 0.13778(13) 0.18222(16) 0.1601(3)
H2 H 0.1559 0.1858 0.1275
C11 C 0.19484(11) 0.35408(11) 0.2220(2)
C12 C 0.10550(12) 0.46412(8) 0.1450(2)
H3 H 0.0943 0.4404 0.1319
C13 C 0.17008(15) 0.41608(11) 0.2588(3)
H4 H 0.1663 0.4339 0.2918
C14 C 0.13876(12) 0.46358(10) 0.1836(2)
C15 C 0.15861(12) 0.42589(10) 0.1963(3)
C16 C 0.21709(13) 0.31513(11) 0.2333(3)
C17 C 0.08320(12) 0.17205(16) 0.2555(3)
H5 H 0.0647 0.1702 0.2880
C18 C 0.08859(15) 0.5000 0.1257(3)
C19 C 0.12043(12) 0.18936(15) 0.2680(4)
H6 H 0.1269 0.1966 0.3093
C20 C 0.15430(17) 0.5000 0.2036(3)
C21 C 0.18742(15) 0.37874(11) 0.2707(3)
H7 H 0.1937 0.3713 0.3119
C22 C 0.10047(12) 0.16317(17) 0.1490(3)
H8 H 0.0942 0.1541 0.1087
C23 C 0.18515(14) 0.36391(12) 0.1589(3)
H9 H 0.1911 0.3474 0.1251
C24 C 0.16596(14) 0.40023(11) 0.1504(2)
H10 H 0.1578 0.4068 0.1096
O9 O 0.2689(2) 0.23963(19) 0.0897(3)
O13 O 0.22926(10) 0.70368(11) 0.18619(19)
O14 O 0.21821(9) 0.69592(7) 0.28882(18)
O15 O 0.04067(7) 0.53309(6) 0.06276(16)
C34 C 0.19484(11) 0.64592(11) 0.2220(2)
C35 C 0.10550(12) 0.53588(8) 0.1450(2)
H16 H 0.0943 0.5596 0.1319
C36 C 0.17008(15) 0.58392(11) 0.2588(3)
H17 H 0.1663 0.5661 0.2918
C37 C 0.13876(12) 0.53642(10) 0.1836(2)
C38 C 0.15861(12) 0.57411(10) 0.1963(3)
C39 C 0.21709(13) 0.68487(11) 0.2333(3)
C40 C 0.18742(15) 0.62126(11) 0.2707(3)
H18 H 0.1937 0.6287 0.3119
C41 C 0.18515(14) 0.63609(12) 0.1589(3)
H19 H 0.1911 0.6526 0.1251
C42 C 0.16596(14) 0.59977(11) 0.1504(2)
H20 H 0.1578 0.5932 0.1096
Cu6 Cu 0.24420(2) 0.25357(2) 0.31047(3)
O30 O 0.2311(2) 0.26037(19) 0.4103(3)
Cu8 Cu 0.0000 0.53899(2) 0.0000
Cu12 Cu 0.24420(2) 0.74643(2) 0.31047(3)
Cu16 Cu 0.25580(2) 0.75357(2) 0.18953(3)
O32 O 0.27074(10) 0.20368(11) 0.31381(19)
O33 O 0.28179(9) 0.19592(7) 0.21118(18)
O39 O 0.29499(9) 0.27995(11) 0.3125(2)
O42 O 0.30524(8) 0.27520(9) 0.2093(2)
Cu1_2 Cu 0.03891(3) 0.0000 1.0000
Cu2_2 Cu 0.0000 0.46101(2) 1.0000
O1_2 O -0.0000 0.39735(13) 1.0000
O5_2 O 0.10147(14) 0.0000 1.0000
Cu8_2 Cu -0.0000 0.53899(2) 1.0000
O36 O 0.04067(7) 0.46691(6) 0.93724(16)
O41 O 0.03353(7) 0.04175(7) 0.93560(15)
Cu1_3 Cu 0.03891(3) 1.0000 0.0000
O5_3 O 0.10147(14) 1.0000 0.0000
F3 F 0.0000 0.81202(11) 0.2374(3)
C43 C -0.0000 0.91074(15) 0.1236(4)
C44 C -0.0000 0.94582(14) 0.0834(3)
C47 C -0.0000 0.84452(17) 0.1990(3)
O20 O 0.20501(9) 0.77995(11) 0.1875(2)
O21 O 0.03353(7) 0.95825(7) 0.06440(15)
O22 O 0.19476(8) 0.77520(9) 0.2907(2)
C55 C 0.03552(9) 0.89443(11) 0.1420(2)
H26 H 0.0591 0.9053 0.1278
C56 C 0.14580(10) 0.80470(12) 0.2221(3)
C57 C 0.07407(10) 0.84166(12) 0.1980(2)
C58 C 0.18586(11) 0.78437(12) 0.2290(3)
C59 C 0.03606(11) 0.86069(12) 0.1829(2)
C60 C 0.13778(13) 0.81778(16) 0.1601(3)
H27 H 0.1559 0.8142 0.1275
C61 C 0.08320(12) 0.82795(16) 0.2555(3)
H28 H 0.0647 0.8298 0.2880
C62 C 0.12043(12) 0.81064(15) 0.2680(4)
H29 H 0.1269 0.8034 0.3093
C63 C 0.10047(12) 0.83683(17) 0.1490(3)
H30 H 0.0942 0.8459 0.1087
H43 H 0.111238 0.993399 0.0431177
Cu1_4 Cu 0.03891(3) 1.0000 1.0000
O5_4 O 0.10147(14) 1.0000 1.0000
O40 O 0.03353(7) 0.95825(7) 0.93560(15)
H44 H 0.111238 0.980067 0.969253
Cu2_3 Cu 1.0000 0.46101(2) 0.0000
F1_2 F 1.0000 0.18798(11) 0.2374(3)
O1_3 O 1.0000 0.39735(13) 0.0000
C1_2 C 1.0000 0.08926(15) 0.1236(4)
C3_2 C 1.0000 0.05418(14) 0.0834(3)
C6_2 C 1.0000 0.15548(17) 0.1990(3)
O10 O 0.79499(9) 0.22005(11) 0.1875(2)
O11 O 0.96647(7) 0.04175(7) 0.06440(15)
O12 O 0.80524(8) 0.22480(9) 0.2907(2)
C25 C 0.96448(9) 0.10557(11) 0.1420(2)
H11 H 0.9409 0.0947 0.1278
C26 C 0.85420(10) 0.19530(12) 0.2221(3)
C27 C 0.92593(10) 0.15834(12) 0.1980(2)
C28 C 0.81414(11) 0.21563(12) 0.2290(3)
C29 C 0.96394(11) 0.13931(12) 0.1829(2)
C30 C 0.86222(13) 0.18222(16) 0.1601(3)
H12 H 0.8441 0.1858 0.1275
C31 C 0.91680(12) 0.17205(16) 0.2555(3)
H13 H 0.9353 0.1702 0.2880
C32 C 0.87957(12) 0.18936(15) 0.2680(4)
H14 H 0.8731 0.1966 0.3093
C33 C 0.89953(12) 0.16317(17) 0.1490(3)
H15 H 0.9058 0.1541 0.1087
Cu7 Cu 0.96109(3) 0.0000 0.0000
Cu8_3 Cu 1.0000 0.53899(2) 0.0000
Cu10 Cu 0.75580(2) 0.25357(2) 0.31047(3)
Cu14 Cu 0.74420(2) 0.24643(2) 0.18953(3)
O37 O 0.95933(7) 0.46691(6) 0.06276(16)
H41 H 0.993393 0.387582 0.0431155
Cu2_4 Cu 1.0000 0.46101(2) 1.0000
O1_4 O 1.0000 0.39735(13) 1.0000
Cu5 Cu 0.74420(2) 0.24643(2) 0.81047(3)
O23 O 0.77074(10) 0.29632(11) 0.81381(19)
O24 O 0.78179(9) 0.30408(7) 0.71118(18)
F4 F 0.81329(11) 0.5000 0.7621(3)
O25 O 0.95933(7) 0.46691(6) 0.93724(16)
C64 C 0.94613(14) 0.5000 0.9179(3)
C65 C 0.80516(11) 0.35408(11) 0.7780(2)
C66 C 0.89450(12) 0.46412(8) 0.8550(2)
H31 H 0.9057 0.4404 0.8681
C67 C 0.82992(15) 0.41608(11) 0.7412(3)
H32 H 0.8337 0.4339 0.7082
C68 C 0.86124(12) 0.46358(10) 0.8164(2)
C69 C 0.84139(12) 0.42589(10) 0.8037(3)
C70 C 0.78291(13) 0.31513(11) 0.7667(3)
C71 C 0.91141(15) 0.5000 0.8743(3)
C72 C 0.84570(17) 0.5000 0.7964(3)
C73 C 0.81258(15) 0.37874(11) 0.7293(3)
H33 H 0.8063 0.3713 0.6881
C74 C 0.81485(14) 0.36391(12) 0.8411(3)
H34 H 0.8089 0.3474 0.8749
C75 C 0.83404(14) 0.40023(11) 0.8496(2)
H35 H 0.8422 0.4068 0.8904
O26 O 0.7311(2) 0.23963(19) 0.9103(3)
O27 O 0.77074(10) 0.70368(11) 0.81381(19)
O28 O 0.78179(9) 0.69592(7) 0.71118(18)
O29 O 0.95933(7) 0.53309(6) 0.93724(16)
C76 C 0.80516(11) 0.64592(11) 0.7780(2)
C77 C 0.89450(12) 0.53588(8) 0.8550(2)
H36 H 0.9057 0.5596 0.8681
C78 C 0.82992(15) 0.58392(11) 0.7412(3)
H37 H 0.8337 0.5661 0.7082
C79 C 0.86124(12) 0.53642(10) 0.8164(2)
C80 C 0.84139(12) 0.57411(10) 0.8037(3)
C81 C 0.78291(13) 0.68487(11) 0.7667(3)
C82 C 0.81258(15) 0.62126(11) 0.7293(3)
H38 H 0.8063 0.6287 0.6881
C83 C 0.81485(14) 0.63609(12) 0.8411(3)
H39 H 0.8089 0.6526 0.8749
C84 C 0.83404(14) 0.59977(11) 0.8496(2)
H40 H 0.8422 0.5932 0.8904
Cu7_2 Cu 0.96109(3) 0.0000 1.0000
Cu8_4 Cu 1.0000 0.53899(2) 1.0000
Cu9 Cu 0.75580(2) 0.74643(2) 0.68953(3)
Cu13 Cu 0.74420(2) 0.75357(2) 0.81047(3)
Cu18 Cu 0.75580(2) 0.25357(2) 0.68953(3)
O35 O 0.71821(9) 0.19592(7) 0.78882(18)
O38 O 0.79499(9) 0.22005(11) 0.8125(2)
O44 O 0.69476(8) 0.27520(9) 0.7907(2)
H42 H 0.980071 0.387582 0.969247
Cu4 Cu 0.74420(2) 0.75357(2) 0.18953(3)
F3_2 F 1.0000 0.81202(11) 0.2374(3)
O16 O 0.79499(9) 0.77995(11) 0.1875(2)
O17 O 0.96647(7) 0.95825(7) 0.06440(15)
O18 O 0.80524(8) 0.77520(9) 0.2907(2)
C43_2 C 1.0000 0.91074(15) 0.1236(4)
C44_2 C 1.0000 0.94582(14) 0.0834(3)
C45 C 0.96448(9) 0.89443(11) 0.1420(2)
H21 H 0.9409 0.9053 0.1278
C46 C 0.85420(10) 0.80470(12) 0.2221(3)
C47_2 C 1.0000 0.84452(17) 0.1990(3)
C48 C 0.92593(10) 0.84166(12) 0.1980(2)
C49 C 0.81414(11) 0.78437(12) 0.2290(3)
C50 C 0.96394(11) 0.86069(12) 0.1829(2)
C51 C 0.86222(13) 0.81778(16) 0.1601(3)
H22 H 0.8441 0.8142 0.1275
C52 C 0.91680(12) 0.82795(16) 0.2555(3)
H23 H 0.9353 0.8298 0.2880
C53 C 0.87957(12) 0.81064(15) 0.2680(4)
H24 H 0.8731 0.8034 0.3093
C54 C 0.89953(12) 0.83683(17) 0.1490(3)
H25 H 0.9058 0.8459 0.1087
O19 O 0.7311(2) 0.76037(19) 0.0897(3)
Cu7_3 Cu 0.96109(3) 1.0000 0.0000
Cu17 Cu 0.75580(2) 0.74643(2) 0.31047(3)
O31 O 0.77074(10) 0.70368(11) 0.18619(19)
O34 O 0.71821(9) 0.80408(7) 0.21118(18)
O43 O 0.69476(8) 0.72480(9) 0.2093(2)
Cu7_4 Cu 0.96109(3) 1.0000 1.0000
O1_5 O -0.0000 0.60265(13) 0.0000
H41_2 H 0.00660669 0.612418 0.0431155
O1_6 O 0.0000 0.60265(13) 1.0000
Cu5_2 Cu 0.25580(2) 0.75357(2) 0.81047(3)
O23_2 O 0.22926(10) 0.70368(11) 0.81381(19)
O24_2 O 0.21821(9) 0.69592(7) 0.71118(18)
F4_2 F 0.18671(11) 0.5000 0.7621(3)
O25_2 O 0.04067(7) 0.53309(6) 0.93724(16)
C64_2 C 0.05387(14) 0.5000 0.9179(3)
C65_2 C 0.19484(11) 0.64592(11) 0.7780(2)
C66_2 C 0.10550(12) 0.53588(8) 0.8550(2)
H31_2 H 0.0943 0.5596 0.8681
C67_2 C 0.17008(15) 0.58392(11) 0.7412(3)
H32_2 H 0.1663 0.5661 0.7082
C68_2 C 0.13876(12) 0.53642(10) 0.8164(2)
C69_2 C 0.15861(12) 0.57411(10) 0.8037(3)
C70_2 C 0.21709(13) 0.68487(11) 0.7667(3)
C71_2 C 0.08859(15) 0.5000 0.8743(3)
C72_2 C 0.15430(17) 0.5000 0.7964(3)
C73_2 C 0.18742(15) 0.62126(11) 0.7293(3)
H33_2 H 0.1937 0.6287 0.6881
C74_2 C 0.18515(14) 0.63609(12) 0.8411(3)
H34_2 H 0.1911 0.6526 0.8749
C75_2 C 0.16596(14) 0.59977(11) 0.8496(2)
H35_2 H 0.1578 0.5932 0.8904
O26_2 O 0.2689(2) 0.76037(19) 0.9103(3)
O27_2 O 0.22926(10) 0.29632(11) 0.81381(19)
O28_2 O 0.21821(9) 0.30408(7) 0.71118(18)
C76_2 C 0.19484(11) 0.35408(11) 0.7780(2)
C77_2 C 0.10550(12) 0.46412(8) 0.8550(2)
H36_2 H 0.0943 0.4404 0.8681
C78_2 C 0.17008(15) 0.41608(11) 0.7412(3)
H37_2 H 0.1663 0.4339 0.7082
C79_2 C 0.13876(12) 0.46358(10) 0.8164(2)
C80_2 C 0.15861(12) 0.42589(10) 0.8037(3)
C81_2 C 0.21709(13) 0.31513(11) 0.7667(3)
C82_2 C 0.18742(15) 0.37874(11) 0.7293(3)
H38_2 H 0.1937 0.3713 0.6881
C83_2 C 0.18515(14) 0.36391(12) 0.8411(3)
H39_2 H 0.1911 0.3474 0.8749
C84_2 C 0.16596(14) 0.40023(11) 0.8496(2)
H40_2 H 0.1578 0.4068 0.8904
Cu9_2 Cu 0.24420(2) 0.25357(2) 0.68953(3)
Cu13_2 Cu 0.25580(2) 0.24643(2) 0.81047(3)
Cu18_2 Cu 0.24420(2) 0.74643(2) 0.68953(3)
O35_2 O 0.28179(9) 0.80408(7) 0.78882(18)
O38_2 O 0.20501(9) 0.77995(11) 0.8125(2)
O44_2 O 0.30524(8) 0.72480(9) 0.7907(2)
H42_2 H 0.019929 0.612418 0.969247
O5_5 O 0.89853(14) 0.0000 0.0000
H43_2 H 0.888762 0.00660116 0.0431177
O5_6 O 0.89853(14) 0.0000 1.0000
O40_2 O 0.96647(7) 0.04175(7) 0.93560(15)
H44_2 H 0.888762 0.0199329 0.969253
O1_7 O 1.0000 0.60265(13) 0.0000
O3_2 O 0.78179(9) 0.69592(7) 0.28882(18)
F2_2 F 0.81329(11) 0.5000 0.2379(3)
O4_2 O 0.95933(7) 0.53309(6) 0.06276(16)
O5_7 O 0.89853(14) 1.0000 0.0000
C2_2 C 0.94613(14) 0.5000 0.0821(3)
C11_2 C 0.80516(11) 0.64592(11) 0.2220(2)
C12_2 C 0.89450(12) 0.53588(8) 0.1450(2)
H3_2 H 0.9057 0.5596 0.1319
C13_2 C 0.82992(15) 0.58392(11) 0.2588(3)
H4_2 H 0.8337 0.5661 0.2918
C14_2 C 0.86124(12) 0.53642(10) 0.1836(2)
C15_2 C 0.84139(12) 0.57411(10) 0.1963(3)
C16_2 C 0.78291(13) 0.68487(11) 0.2333(3)
C18_2 C 0.91141(15) 0.5000 0.1257(3)
C20_2 C 0.84570(17) 0.5000 0.2036(3)
C21_2 C 0.81258(15) 0.62126(11) 0.2707(3)
H7_2 H 0.8063 0.6287 0.3119
C23_2 C 0.81485(14) 0.63609(12) 0.1589(3)
H9_2 H 0.8089 0.6526 0.1251
C24_2 C 0.83404(14) 0.59977(11) 0.1504(2)
H10_2 H 0.8422 0.5932 0.1096
O13_2 O 0.77074(10) 0.29632(11) 0.18619(19)
O14_2 O 0.78179(9) 0.30408(7) 0.28882(18)
C34_2 C 0.80516(11) 0.35408(11) 0.2220(2)
C35_2 C 0.89450(12) 0.46412(8) 0.1450(2)
H16_2 H 0.9057 0.4404 0.1319
C36_2 C 0.82992(15) 0.41608(11) 0.2588(3)
H17_2 H 0.8337 0.4339 0.2918
C37_2 C 0.86124(12) 0.46358(10) 0.1836(2)
C38_2 C 0.84139(12) 0.42589(10) 0.1963(3)
C39_2 C 0.78291(13) 0.31513(11) 0.2333(3)
C40_2 C 0.81258(15) 0.37874(11) 0.2707(3)
H18_2 H 0.8063 0.3713 0.3119
C41_2 C 0.81485(14) 0.36391(12) 0.1589(3)
H19_2 H 0.8089 0.3474 0.1251
C42_2 C 0.83404(14) 0.40023(11) 0.1504(2)
H20_2 H 0.8422 0.4068 0.1096
O30_2 O 0.7689(2) 0.73963(19) 0.4103(3)
O32_2 O 0.72926(10) 0.79632(11) 0.31381(19)
O39_2 O 0.70501(9) 0.72005(11) 0.3125(2)
O1_8 O 1.0000 0.60265(13) 1.0000
O5_8 O 0.89853(14) 1.0000 1.0000
O41_2 O 0.96647(7) 0.95825(7) 0.93560(15)
H44_3 H 0.111238 0.0199329 0.0307469
F3_3 F -0.0000 0.18798(11) 0.7626(3)
C43_3 C 0.0000 0.08926(15) 0.8764(4)
C44_3 C 0.0000 0.05418(14) 0.9166(3)
C47_3 C 0.0000 0.15548(17) 0.8010(3)
O20_2 O 0.20501(9) 0.22005(11) 0.8125(2)
O22_2 O 0.19476(8) 0.22480(9) 0.7093(2)
C55_2 C 0.03552(9) 0.10557(11) 0.8580(2)
H26_2 H 0.0591 0.0947 0.8722
C56_2 C 0.14580(10) 0.19530(12) 0.7779(3)
C57_2 C 0.07407(10) 0.15834(12) 0.8020(2)
C58_2 C 0.18586(11) 0.21563(12) 0.7710(3)
C59_2 C 0.03606(11) 0.13931(12) 0.8171(2)
C60_2 C 0.13778(13) 0.18222(16) 0.8399(3)
H27_2 H 0.1559 0.1858 0.8725
C61_2 C 0.08320(12) 0.17205(16) 0.7445(3)
H28_2 H 0.0647 0.1702 0.7120
C62_2 C 0.12043(12) 0.18936(15) 0.7320(4)
H29_2 H 0.1269 0.1966 0.6907
C63_2 C 0.10047(12) 0.16317(17) 0.8510(3)
H30_2 H 0.0942 0.1541 0.8913
H43_3 H 0.111238 0.00660116 0.956882
F1_3 F -0.0000 0.81202(11) 0.7626(3)
O8_2 O 0.19476(8) 0.77520(9) 0.7093(2)
C1_3 C 0.0000 0.91074(15) 0.8764(4)
C3_3 C 0.0000 0.94582(14) 0.9166(3)
C4_2 C 0.03552(9) 0.89443(11) 0.8580(2)
H1_2 H 0.0591 0.9053 0.8722
C5_2 C 0.14580(10) 0.80470(12) 0.7779(3)
C6_3 C 0.0000 0.84452(17) 0.8010(3)
C7_2 C 0.07407(10) 0.84166(12) 0.8020(2)
C8_2 C 0.18586(11) 0.78437(12) 0.7710(3)
C9_2 C 0.03606(11) 0.86069(12) 0.8171(2)
C10_2 C 0.13778(13) 0.81778(16) 0.8399(3)
H2_2 H 0.1559 0.8142 0.8725
C17_2 C 0.08320(12) 0.82795(16) 0.7445(3)
H5_2 H 0.0647 0.8298 0.7120
C19_2 C 0.12043(12) 0.81064(15) 0.7320(4)
H6_2 H 0.1269 0.8034 0.6907
C22_2 C 0.10047(12) 0.83683(17) 0.8510(3)
H8_2 H 0.0942 0.8459 0.8913
O30_3 O 0.2311(2) 0.73963(19) 0.5897(3)
O32_3 O 0.27074(10) 0.79632(11) 0.68619(19)
O39_3 O 0.29499(9) 0.72005(11) 0.6875(2)
F3_4 F 1.0000 0.18798(11) 0.7626(3)
O18_2 O 0.80524(8) 0.22480(9) 0.7093(2)
C43_4 C 1.0000 0.08926(15) 0.8764(4)
C44_4 C 1.0000 0.05418(14) 0.9166(3)
C45_2 C 0.96448(9) 0.10557(11) 0.8580(2)
H21_2 H 0.9409 0.0947 0.8722
C46_2 C 0.85420(10) 0.19530(12) 0.7779(3)
C47_4 C 1.0000 0.15548(17) 0.8010(3)
C48_2 C 0.92593(10) 0.15834(12) 0.8020(2)
C49_2 C 0.81414(11) 0.21563(12) 0.7710(3)
C50_2 C 0.96394(11) 0.13931(12) 0.8171(2)
C51_2 C 0.86222(13) 0.18222(16) 0.8399(3)
H22_2 H 0.8441 0.1858 0.8725
C52_2 C 0.91680(12) 0.17205(16) 0.7445(3)
H23_2 H 0.9353 0.1702 0.7120
C53_2 C 0.87957(12) 0.18936(15) 0.7320(4)
H24_2 H 0.8731 0.1966 0.6907
C54_2 C 0.89953(12) 0.16317(17) 0.8510(3)
H25_2 H 0.9058 0.1541 0.8913
H42_3 H 0.980071 0.612418 0.0307535
F1_4 F 1.0000 0.81202(11) 0.7626(3)
C1_4 C 1.0000 0.91074(15) 0.8764(4)
C3_4 C 1.0000 0.94582(14) 0.9166(3)
C6_4 C 1.0000 0.84452(17) 0.8010(3)
O10_2 O 0.79499(9) 0.77995(11) 0.8125(2)
O12_2 O 0.80524(8) 0.77520(9) 0.7093(2)
C25_2 C 0.96448(9) 0.89443(11) 0.8580(2)
H11_2 H 0.9409 0.9053 0.8722
C26_2 C 0.85420(10) 0.80470(12) 0.7779(3)
C27_2 C 0.92593(10) 0.84166(12) 0.8020(2)
C28_2 C 0.81414(11) 0.78437(12) 0.7710(3)
C29_2 C 0.96394(11) 0.86069(12) 0.8171(2)
C30_2 C 0.86222(13) 0.81778(16) 0.8399(3)
H12_2 H 0.8441 0.8142 0.8725
C31_2 C 0.91680(12) 0.82795(16) 0.7445(3)
H13_2 H 0.9353 0.8298 0.7120
C32_2 C 0.87957(12) 0.81064(15) 0.7320(4)
H14_2 H 0.8731 0.8034 0.6907
C33_2 C 0.89953(12) 0.83683(17) 0.8510(3)
H15_2 H 0.9058 0.8459 0.8913
H41_3 H 0.993393 0.612418 0.956884
H42_4 H 0.019929 0.387582 0.0307535
H41_4 H 0.00660669 0.387582 0.956884
O30_4 O 0.7689(2) 0.26037(19) 0.5897(3)
O32_4 O 0.72926(10) 0.20368(11) 0.68619(19)
O39_4 O 0.70501(9) 0.27995(11) 0.6875(2)
H44_4 H 0.888762 0.980067 0.0307469
H43_4 H 0.888762 0.993399 0.956882
F2_3 F 0.68671(11) 0.0000 0.7379(3)
C2_3 C 0.55387(14) -0.0000 0.5821(3)
C18_3 C 0.58859(15) -0.0000 0.6257(3)
C20_3 C 0.65430(17) -0.0000 0.7036(3)
O15_2 O 0.54067(7) 0.03309(6) 0.56276(16)
C34_3 C 0.69484(11) 0.14592(11) 0.7220(2)
C35_3 C 0.60550(12) 0.03588(8) 0.6450(2)
H16_3 H 0.5943 0.0596 0.6319
C36_3 C 0.67008(15) 0.08392(11) 0.7588(3)
H17_3 H 0.6663 0.0661 0.7918
C37_3 C 0.63876(12) 0.03642(10) 0.6836(2)
C38_3 C 0.65861(12) 0.07411(10) 0.6963(3)
C39_3 C 0.71709(13) 0.18487(11) 0.7333(3)
C40_3 C 0.68742(15) 0.12126(11) 0.7707(3)
H18_3 H 0.6937 0.1287 0.8119
C41_3 C 0.68515(14) 0.13609(12) 0.6589(3)
H19_3 H 0.6911 0.1526 0.6251
C42_3 C 0.66596(14) 0.09977(11) 0.6504(2)
H20_3 H 0.6578 0.0932 0.6096
F4_3 F 0.31329(11) -0.0000 0.2621(3)
C64_3 C 0.44613(14) 0.0000 0.4179(3)
C71_3 C 0.41141(15) -0.0000 0.3743(3)
C72_3 C 0.34570(17) -0.0000 0.2964(3)
O29_2 O 0.45933(7) 0.03309(6) 0.43724(16)
C76_3 C 0.30516(11) 0.14592(11) 0.2780(2)
C77_3 C 0.39450(12) 0.03588(8) 0.3550(2)
H36_3 H 0.4057 0.0596 0.3681
C78_3 C 0.32992(15) 0.08392(11) 0.2412(3)
H37_3 H 0.3337 0.0661 0.2082
C79_3 C 0.36124(12) 0.03642(10) 0.3164(2)
C80_3 C 0.34139(12) 0.07411(10) 0.3037(3)
C81_3 C 0.28291(13) 0.18487(11) 0.2667(3)
C82_3 C 0.31258(15) 0.12126(11) 0.2293(3)
H38_3 H 0.3063 0.1287 0.1881
C83_3 C 0.31485(14) 0.13609(12) 0.3411(3)
H39_3 H 0.3089 0.1526 0.3749
C84_3 C 0.33404(14) 0.09977(11) 0.3496(2)
H40_3 H 0.3422 0.0932 0.3904
Cu8_5 Cu 0.5000 0.03899(2) 0.5000
Cu1_5 Cu 0.53891(3) 0.5000 0.5000
Cu2_5 Cu 0.5000 0.96101(2) 0.5000
F1_5 F 0.5000 0.68798(11) 0.7374(3)
O1_9 O 0.5000 0.89735(13) 0.5000
O2_2 O 0.72926(10) 0.79632(11) 0.68619(19)
O3_3 O 0.71821(9) 0.80408(7) 0.78882(18)
F2_4 F 0.68671(11) 1.0000 0.7379(3)
O4_3 O 0.54067(7) 0.96691(6) 0.56276(16)
O5_9 O 0.60147(14) 0.5000 0.5000
O6_2 O 0.70501(9) 0.72005(11) 0.6875(2)
O7_2 O 0.53353(7) 0.54175(7) 0.56440(15)
O8_3 O 0.69476(8) 0.72480(9) 0.7907(2)
C1_5 C 0.5000 0.58926(15) 0.6236(4)
C2_4 C 0.55387(14) 1.0000 0.5821(3)
C3_5 C 0.5000 0.55418(14) 0.5834(3)
C4_3 C 0.53552(9) 0.60557(11) 0.6420(2)
H1_3 H 0.5591 0.5947 0.6278
C5_3 C 0.64580(10) 0.69530(12) 0.7221(3)
C6_5 C 0.5000 0.65548(17) 0.6990(3)
C7_3 C 0.57407(10) 0.65834(12) 0.6980(2)
C8_3 C 0.68586(11) 0.71563(12) 0.7290(3)
C9_3 C 0.53606(11) 0.63931(12) 0.6829(2)
C10_3 C 0.63778(13) 0.68222(16) 0.6601(3)
H2_3 H 0.6559 0.6858 0.6275
C11_3 C 0.69484(11) 0.85408(11) 0.7220(2)
C12_3 C 0.60550(12) 0.96412(8) 0.6450(2)
H3_3 H 0.5943 0.9404 0.6319
C13_3 C 0.67008(15) 0.91608(11) 0.7588(3)
H4_3 H 0.6663 0.9339 0.7918
C14_3 C 0.63876(12) 0.96358(10) 0.6836(2)
C15_3 C 0.65861(12) 0.92589(10) 0.6963(3)
C16_3 C 0.71709(13) 0.81513(11) 0.7333(3)
C17_3 C 0.58320(12) 0.67205(16) 0.7555(3)
H5_3 H 0.5647 0.6702 0.7880
C18_4 C 0.58859(15) 1.0000 0.6257(3)
C19_3 C 0.62043(12) 0.68936(15) 0.7680(4)
H6_3 H 0.6269 0.6966 0.8093
C20_4 C 0.65430(17) 1.0000 0.7036(3)
C21_3 C 0.68742(15) 0.87874(11) 0.7707(3)
H7_3 H 0.6937 0.8713 0.8119
C22_3 C 0.60047(12) 0.66317(17) 0.6490(3)
H8_3 H 0.5942 0.6541 0.6087
C23_3 C 0.68515(14) 0.86391(12) 0.6589(3)
H9_3 H 0.6911 0.8474 0.6251
C24_3 C 0.66596(14) 0.90023(11) 0.6504(2)
H10_3 H 0.6578 0.9068 0.6096
O9_2 O 0.7689(2) 0.73963(19) 0.5897(3)
O11_2 O 0.46647(7) 0.54175(7) 0.56440(15)
C25_3 C 0.46448(9) 0.60557(11) 0.6420(2)
H11_3 H 0.4409 0.5947 0.6278
C26_3 C 0.35420(10) 0.69530(12) 0.7221(3)
C27_3 C 0.42593(10) 0.65834(12) 0.6980(2)
C28_3 C 0.31414(11) 0.71563(12) 0.7290(3)
C29_3 C 0.46394(11) 0.63931(12) 0.6829(2)
C30_3 C 0.36222(13) 0.68222(16) 0.6601(3)
H12_3 H 0.3441 0.6858 0.6275
C31_3 C 0.41680(12) 0.67205(16) 0.7555(3)
H13_3 H 0.4353 0.6702 0.7880
C32_3 C 0.37957(12) 0.68936(15) 0.7680(4)
H14_3 H 0.3731 0.6966 0.8093
C33_3 C 0.39953(12) 0.66317(17) 0.6490(3)
H15_3 H 0.4058 0.6541 0.6087
F3_5 F 0.5000 0.31202(11) 0.7374(3)
O16_2 O 0.29499(9) 0.27995(11) 0.6875(2)
O17_2 O 0.46647(7) 0.45825(7) 0.56440(15)
O18_3 O 0.30524(8) 0.27520(9) 0.7907(2)
C43_5 C 0.5000 0.41074(15) 0.6236(4)
C44_5 C 0.5000 0.44582(14) 0.5834(3)
C45_3 C 0.46448(9) 0.39443(11) 0.6420(2)
H21_3 H 0.4409 0.4053 0.6278
C46_3 C 0.35420(10) 0.30470(12) 0.7221(3)
C47_5 C 0.5000 0.34452(17) 0.6990(3)
C48_3 C 0.42593(10) 0.34166(12) 0.6980(2)
C49_3 C 0.31414(11) 0.28437(12) 0.7290(3)
C50_3 C 0.46394(11) 0.36069(12) 0.6829(2)
C51_3 C 0.36222(13) 0.31778(16) 0.6601(3)
H22_3 H 0.3441 0.3142 0.6275
C52_3 C 0.41680(12) 0.32795(16) 0.7555(3)
H23_3 H 0.4353 0.3298 0.7880
C53_3 C 0.37957(12) 0.31064(15) 0.7680(4)
H24_3 H 0.3731 0.3034 0.8093
C54_3 C 0.39953(12) 0.33683(17) 0.6490(3)
H25_3 H 0.4058 0.3459 0.6087
O19_2 O 0.2311(2) 0.26037(19) 0.5897(3)
O21_2 O 0.53353(7) 0.45825(7) 0.56440(15)
C55_3 C 0.53552(9) 0.39443(11) 0.6420(2)
H26_3 H 0.5591 0.4053 0.6278
C56_3 C 0.64580(10) 0.30470(12) 0.7221(3)
C57_3 C 0.57407(10) 0.34166(12) 0.6980(2)
C58_3 C 0.68586(11) 0.28437(12) 0.7290(3)
C59_3 C 0.53606(11) 0.36069(12) 0.6829(2)
C60_3 C 0.63778(13) 0.31778(16) 0.6601(3)
H27_3 H 0.6559 0.3142 0.6275
C61_3 C 0.58320(12) 0.32795(16) 0.7555(3)
H28_3 H 0.5647 0.3298 0.7880
C62_3 C 0.62043(12) 0.31064(15) 0.7680(4)
H29_3 H 0.6269 0.3034 0.8093
C63_3 C 0.60047(12) 0.33683(17) 0.6490(3)
H30_3 H 0.5942 0.3459 0.6087
O23_3 O 0.27074(10) 0.79632(11) 0.31381(19)
O24_3 O 0.28179(9) 0.80408(7) 0.21118(18)
F4_4 F 0.31329(11) 1.0000 0.2621(3)
O25_3 O 0.45933(7) 0.96691(6) 0.43724(16)
C64_4 C 0.44613(14) 1.0000 0.4179(3)
C65_3 C 0.30516(11) 0.85408(11) 0.2780(2)
C66_3 C 0.39450(12) 0.96412(8) 0.3550(2)
H31_3 H 0.4057 0.9404 0.3681
C67_3 C 0.32992(15) 0.91608(11) 0.2412(3)
H32_3 H 0.3337 0.9339 0.2082
C68_3 C 0.36124(12) 0.96358(10) 0.3164(2)
C69_3 C 0.34139(12) 0.92589(10) 0.3037(3)
C70_3 C 0.28291(13) 0.81513(11) 0.2667(3)
C71_4 C 0.41141(15) 1.0000 0.3743(3)
C72_4 C 0.34570(17) 1.0000 0.2964(3)
C73_3 C 0.31258(15) 0.87874(11) 0.2293(3)
H33_3 H 0.3063 0.8713 0.1881
C74_3 C 0.31485(14) 0.86391(12) 0.3411(3)
H34_3 H 0.3089 0.8474 0.3749
C75_3 C 0.33404(14) 0.90023(11) 0.3496(2)
H35_3 H 0.3422 0.9068 0.3904
O26_3 O 0.2311(2) 0.73963(19) 0.4103(3)
O30_5 O 0.7311(2) 0.76037(19) 0.9103(3)
Cu7_5 Cu 0.46109(3) 0.5000 0.5000
O31_2 O 0.27074(10) 0.20368(11) 0.68619(19)
O36_2 O 0.54067(7) 0.96691(6) 0.43724(16)
O37_2 O 0.45933(7) 0.96691(6) 0.56276(16)
O38_3 O 0.29499(9) 0.72005(11) 0.3125(2)
O40_3 O 0.53353(7) 0.45825(7) 0.43560(15)
O41_3 O 0.53353(7) 0.54175(7) 0.43560(15)
O1_10 O 0.5000 0.10265(13) 0.5000
O3_4 O 0.28179(9) 0.19592(7) 0.78882(18)
F2_5 F 0.31329(11) 0.0000 0.7379(3)
O4_4 O 0.45933(7) 0.03309(6) 0.56276(16)
O5_10 O 0.39853(14) 0.5000 0.5000
C2_5 C 0.44613(14) -0.0000 0.5821(3)
C11_4 C 0.30516(11) 0.14592(11) 0.7220(2)
C12_4 C 0.39450(12) 0.03588(8) 0.6450(2)
H3_4 H 0.4057 0.0596 0.6319
C13_4 C 0.32992(15) 0.08392(11) 0.7588(3)
H4_4 H 0.3337 0.0661 0.7918
C14_4 C 0.36124(12) 0.03642(10) 0.6836(2)
C15_4 C 0.34139(12) 0.07411(10) 0.6963(3)
C16_4 C 0.28291(13) 0.18487(11) 0.7333(3)
C18_5 C 0.41141(15) -0.0000 0.6257(3)
C20_5 C 0.34570(17) -0.0000 0.7036(3)
C21_4 C 0.31258(15) 0.12126(11) 0.7707(3)
H7_4 H 0.3063 0.1287 0.8119
C23_4 C 0.31485(14) 0.13609(12) 0.6589(3)
H9_4 H 0.3089 0.1526 0.6251
C24_4 C 0.33404(14) 0.09977(11) 0.6504(2)
H10_4 H 0.3422 0.0932 0.6096
O23_4 O 0.72926(10) 0.20368(11) 0.31381(19)
O24_4 O 0.71821(9) 0.19592(7) 0.21118(18)
F4_5 F 0.68671(11) -0.0000 0.2621(3)
O25_4 O 0.54067(7) 0.03309(6) 0.43724(16)
C64_5 C 0.55387(14) 0.0000 0.4179(3)
C65_4 C 0.69484(11) 0.14592(11) 0.2780(2)
C66_4 C 0.60550(12) 0.03588(8) 0.3550(2)
H31_4 H 0.5943 0.0596 0.3681
C67_4 C 0.67008(15) 0.08392(11) 0.2412(3)
H32_4 H 0.6663 0.0661 0.2082
C68_4 C 0.63876(12) 0.03642(10) 0.3164(2)
C69_4 C 0.65861(12) 0.07411(10) 0.3037(3)
C70_4 C 0.71709(13) 0.18487(11) 0.2667(3)
C71_5 C 0.58859(15) -0.0000 0.3743(3)
C72_5 C 0.65430(17) -0.0000 0.2964(3)
C73_4 C 0.68742(15) 0.12126(11) 0.2293(3)
H33_4 H 0.6937 0.1287 0.1881
C74_4 C 0.68515(14) 0.13609(12) 0.3411(3)
H34_4 H 0.6911 0.1526 0.3749
C75_4 C 0.66596(14) 0.09977(11) 0.3496(2)
H35_4 H 0.6578 0.0932 0.3904
O26_4 O 0.7689(2) 0.26037(19) 0.4103(3)
O30_6 O 0.2689(2) 0.23963(19) 0.9103(3)
O38_4 O 0.70501(9) 0.27995(11) 0.3125(2)
O40_4 O 0.46647(7) 0.54175(7) 0.43560(15)
O41_4 O 0.46647(7) 0.45825(7) 0.43560(15)
F2_6 F 0.31329(11) 1.0000 0.7379(3)
C2_6 C 0.44613(14) 1.0000 0.5821(3)
C18_6 C 0.41141(15) 1.0000 0.6257(3)
C20_6 C 0.34570(17) 1.0000 0.7036(3)
C34_4 C 0.30516(11) 0.85408(11) 0.7220(2)
C35_4 C 0.39450(12) 0.96412(8) 0.6450(2)
H16_4 H 0.4057 0.9404 0.6319
C36_4 C 0.32992(15) 0.91608(11) 0.7588(3)
H17_4 H 0.3337 0.9339 0.7918
C37_4 C 0.36124(12) 0.96358(10) 0.6836(2)
C38_4 C 0.34139(12) 0.92589(10) 0.6963(3)
C39_4 C 0.28291(13) 0.81513(11) 0.7333(3)
C40_4 C 0.31258(15) 0.87874(11) 0.7707(3)
H18_4 H 0.3063 0.8713 0.8119
C41_4 C 0.31485(14) 0.86391(12) 0.6589(3)
H19_4 H 0.3089 0.8474 0.6251
C42_4 C 0.33404(14) 0.90023(11) 0.6504(2)
H20_4 H 0.3422 0.9068 0.6096
F4_6 F 0.68671(11) 1.0000 0.2621(3)
C64_6 C 0.55387(14) 1.0000 0.4179(3)
C71_6 C 0.58859(15) 1.0000 0.3743(3)
C72_6 C 0.65430(17) 1.0000 0.2964(3)
C76_4 C 0.69484(11) 0.85408(11) 0.2780(2)
C77_4 C 0.60550(12) 0.96412(8) 0.3550(2)
H36_4 H 0.5943 0.9404 0.3681
C78_4 C 0.67008(15) 0.91608(11) 0.2412(3)
H37_4 H 0.6663 0.9339 0.2082
C79_4 C 0.63876(12) 0.96358(10) 0.3164(2)
C80_4 C 0.65861(12) 0.92589(10) 0.3037(3)
C81_4 C 0.71709(13) 0.81513(11) 0.2667(3)
C82_4 C 0.68742(15) 0.87874(11) 0.2293(3)
H38_4 H 0.6937 0.8713 0.1881
C83_4 C 0.68515(14) 0.86391(12) 0.3411(3)
H39_4 H 0.6911 0.8474 0.3749
C84_4 C 0.66596(14) 0.90023(11) 0.3496(2)
H40_4 H 0.6578 0.9068 0.3904
F1_6 F 0.5000 0.31202(11) 0.2626(3)
O8_4 O 0.69476(8) 0.27520(9) 0.2093(2)
C1_6 C 0.5000 0.41074(15) 0.3764(4)
C3_6 C 0.5000 0.44582(14) 0.4166(3)
C4_4 C 0.53552(9) 0.39443(11) 0.3580(2)
H1_4 H 0.5591 0.4053 0.3722
C5_4 C 0.64580(10) 0.30470(12) 0.2779(3)
C6_6 C 0.5000 0.34452(17) 0.3010(3)
C7_4 C 0.57407(10) 0.34166(12) 0.3020(2)
C8_4 C 0.68586(11) 0.28437(12) 0.2710(3)
C9_4 C 0.53606(11) 0.36069(12) 0.3171(2)
C10_4 C 0.63778(13) 0.31778(16) 0.3399(3)
H2_4 H 0.6559 0.3142 0.3725
C17_4 C 0.58320(12) 0.32795(16) 0.2445(3)
H5_4 H 0.5647 0.3298 0.2120
C19_4 C 0.62043(12) 0.31064(15) 0.2320(4)
H6_4 H 0.6269 0.3034 0.1907
C22_4 C 0.60047(12) 0.33683(17) 0.3510(3)
H8_4 H 0.5942 0.3459 0.3913
C25_4 C 0.46448(9) 0.39443(11) 0.3580(2)
H11_4 H 0.4409 0.4053 0.3722
C26_4 C 0.35420(10) 0.30470(12) 0.2779(3)
C27_4 C 0.42593(10) 0.34166(12) 0.3020(2)
C28_4 C 0.31414(11) 0.28437(12) 0.2710(3)
C29_4 C 0.46394(11) 0.36069(12) 0.3171(2)
C30_4 C 0.36222(13) 0.31778(16) 0.3399(3)
H12_4 H 0.3441 0.3142 0.3725
C31_4 C 0.41680(12) 0.32795(16) 0.2445(3)
H13_4 H 0.4353 0.3298 0.2120
C32_4 C 0.37957(12) 0.31064(15) 0.2320(4)
H14_4 H 0.3731 0.3034 0.1907
C33_4 C 0.39953(12) 0.33683(17) 0.3510(3)
H15_4 H 0.4058 0.3459 0.3913
F3_6 F 0.5000 0.68798(11) 0.2626(3)
O18_4 O 0.30524(8) 0.72480(9) 0.2093(2)
C43_6 C 0.5000 0.58926(15) 0.3764(4)
C44_6 C 0.5000 0.55418(14) 0.4166(3)
C45_4 C 0.46448(9) 0.60557(11) 0.3580(2)
H21_4 H 0.4409 0.5947 0.3722
C46_4 C 0.35420(10) 0.69530(12) 0.2779(3)
C47_6 C 0.5000 0.65548(17) 0.3010(3)
C48_4 C 0.42593(10) 0.65834(12) 0.3020(2)
C49_4 C 0.31414(11) 0.71563(12) 0.2710(3)
C50_4 C 0.46394(11) 0.63931(12) 0.3171(2)
C51_4 C 0.36222(13) 0.68222(16) 0.3399(3)
H22_4 H 0.3441 0.6858 0.3725
C52_4 C 0.41680(12) 0.67205(16) 0.2445(3)
H23_4 H 0.4353 0.6702 0.2120
C53_4 C 0.37957(12) 0.68936(15) 0.2320(4)
H24_4 H 0.3731 0.6966 0.1907
C54_4 C 0.39953(12) 0.66317(17) 0.3510(3)
H25_4 H 0.4058 0.6541 0.3913
C55_4 C 0.53552(9) 0.60557(11) 0.3580(2)
H26_4 H 0.5591 0.5947 0.3722
C56_4 C 0.64580(10) 0.69530(12) 0.2779(3)
C57_4 C 0.57407(10) 0.65834(12) 0.3020(2)
C58_4 C 0.68586(11) 0.71563(12) 0.2710(3)
C59_4 C 0.53606(11) 0.63931(12) 0.3171(2)
C60_4 C 0.63778(13) 0.68222(16) 0.3399(3)
H27_4 H 0.6559 0.6858 0.3725
C61_4 C 0.58320(12) 0.67205(16) 0.2445(3)
H28_4 H 0.5647 0.6702 0.2120
C62_4 C 0.62043(12) 0.68936(15) 0.2320(4)
H29_4 H 0.6269 0.6966 0.1907
C63_4 C 0.60047(12) 0.66317(17) 0.3510(3)
H30_4 H 0.5942 0.6541 0.3913
O30_7 O 0.7311(2) 0.23963(19) 0.0897(3)
O30_8 O 0.2689(2) 0.76037(19) 0.0897(3)
H42_5 H 0.019929 0.612418 0.0307535
H41_5 H 0.00660669 0.612418 0.956884
H44_5 H 0.888762 0.0199329 0.0307469
H43_5 H 0.888762 0.00660116 0.956882
H44_6 H 0.111238 0.980067 0.0307469
H43_6 H 0.111238 0.993399 0.956882
H42_6 H 0.980071 0.387582 0.0307535
H41_6 H 0.993393 0.387582 0.956884
H41_7 H 0.00660669 0.387582 0.0431155
H42_7 H 0.019929 0.387582 0.969247
H43_7 H 0.888762 0.993399 0.0431177
H44_7 H 0.888762 0.980067 0.969253
H43_8 H 0.111238 0.00660116 0.0431177
H44_8 H 0.111238 0.0199329 0.969253
H41_8 H 0.993393 0.612418 0.0431155
H42_8 H 0.980071 0.612418 0.969247
loop_
_geom_bond_atom_site_label_1
_geom_bond_atom_site_label_2
_geom_bond_site_symmetry_1
_geom_bond_site_symmetry_2
Cu1 O5 1_555 1_555
Cu2 O1 1_555 1_555
Cu3 O2 1_555 1_555
F1 C6 1_555 1_555
O2 C16 1_555 1_555
O3 C16 1_555 1_555
F2 C20 1_555 1_555
O4 Cu2 1_555 1_555
O6 Cu3 1_555 1_555
O7 Cu1 1_555 1_555
O8 C8 1_555 1_555
C1 C3 1_555 1_555
C2 O4 1_555 1_555
C3 O7 1_555 1_555
C4 C1 1_555 1_555
H1 C4 1_555 1_555
C5 C8 1_555 1_555
C6 C9 1_555 1_555
C7 C9 1_555 1_555
C8 O6 1_555 1_555
C9 C4 1_555 1_555
C10 C5 1_555 1_555
H2 C10 1_555 1_555
C11 C16 1_555 1_555
C12 H3 1_555 1_555
C13 H4 1_555 1_555
C14 C12 1_555 1_555
C15 C13 1_555 1_555
C17 C7 1_555 1_555
H5 C17 1_555 1_555
C18 C2 1_555 1_555
C19 C5 1_555 1_555
H6 C19 1_555 1_555
C20 C14 1_555 1_555
C21 C11 1_555 1_555
H7 C21 1_555 1_555
C22 C7 1_555 1_555
H8 C22 1_555 1_555
C23 C11 1_555 1_555
H9 C23 1_555 1_555
C24 C15 1_555 1_555
H10 C24 1_555 1_555
O9 Cu3 1_555 1_555
O13 C39 1_555 1_555
O14 C39 1_555 1_555
O15 C2 1_555 1_555
C34 C39 1_555 1_555
C35 C18 1_555 1_555
H16 C35 1_555 1_555
C36 H17 1_555 1_555
C37 C20 1_555 1_555
C38 C36 1_555 1_555
C40 C34 1_555 1_555
H18 C40 1_555 1_555
C41 C34 1_555 1_555
H19 C41 1_555 1_555
C42 C38 1_555 1_555
H20 C42 1_555 1_555
Cu6 O3 1_555 1_555
O30 Cu6 1_555 1_555
Cu8 O15 1_555 1_555
Cu12 O14 1_555 1_555
Cu16 O13 1_555 1_555
O32 Cu6 1_555 1_555
O33 Cu3 1_555 1_555
O39 Cu6 1_555 1_555
O42 Cu3 1_555 1_555
O8 Cu6 1_555 1_555
C10 C22 1_555 1_555
C12 C18 1_555 1_555
C13 C21 1_555 1_555
C14 C15 1_555 1_555
C17 C19 1_555 1_555
C23 C24 1_555 1_555
C35 C37 1_555 1_555
C36 C40 1_555 1_555
C37 C38 1_555 1_555
C41 C42 1_555 1_555
Cu1_2 O5_2 1_555 1_555
Cu2_2 O1_2 1_555 1_555
O36 Cu2_2 1_555 1_555
O41 Cu1_2 1_555 1_555
Cu1_3 O5_3 1_555 1_555
F3 C47 1_555 1_555
C43 C44 1_555 1_555
C44 O21 1_555 1_555
O20 C58 1_555 1_555
O21 Cu1_3 1_555 1_555
O22 C58 1_555 1_555
C55 C43 1_555 1_555
H26 C55 1_555 1_555
C56 C58 1_555 1_555
C57 C59 1_555 1_555
C59 C47 1_555 1_555
C60 C56 1_555 1_555
H27 C60 1_555 1_555
C61 C57 1_555 1_555
H28 C61 1_555 1_555
C62 C56 1_555 1_555
H29 C62 1_555 1_555
C63 C57 1_555 1_555
H30 C63 1_555 1_555
Cu12 O22 1_555 1_555
Cu16 O20 1_555 1_555
C55 C59 1_555 1_555
C60 C63 1_555 1_555
C61 C62 1_555 1_555
O5_3 H43 1_555 1_555
Cu1_4 O5_4 1_555 1_555
O40 Cu1_4 1_555 1_555
O5_4 H44 1_555 1_555
Cu2_3 O1_3 1_555 1_555
F1_2 C6_2 1_555 1_555
C1_2 C3_2 1_555 1_555
O10 C28 1_555 1_555
O11 C3_2 1_555 1_555
O12 C28 1_555 1_555
C25 C1_2 1_555 1_555
H11 C25 1_555 1_555
C26 C28 1_555 1_555
C27 C29 1_555 1_555
C29 C6_2 1_555 1_555
C30 C26 1_555 1_555
H12 C30 1_555 1_555
C31 C27 1_555 1_555
H13 C31 1_555 1_555
C32 C26 1_555 1_555
H14 C32 1_555 1_555
C33 C27 1_555 1_555
H15 C33 1_555 1_555
Cu7 O11 1_555 1_555
Cu10 O12 1_555 1_555
Cu14 O10 1_555 1_555
O37 Cu2_3 1_555 1_555
C25 C29 1_555 1_555
C30 C33 1_555 1_555
C31 C32 1_555 1_555
O1_3 H41 1_555 1_555
Cu2_4 O1_4 1_555 1_555
Cu5 O23 1_555 1_555
O23 C70 1_555 1_555
O24 C70 1_555 1_555
F4 C72 1_555 1_555
O25 Cu2_4 1_555 1_555
C64 O25 1_555 1_555
C65 C70 1_555 1_555
C66 H31 1_555 1_555
C67 H32 1_555 1_555
C68 C66 1_555 1_555
C69 C67 1_555 1_555
C71 C64 1_555 1_555
C72 C68 1_555 1_555
C73 C65 1_555 1_555
H33 C73 1_555 1_555
C74 C65 1_555 1_555
H34 C74 1_555 1_555
C75 C69 1_555 1_555
H35 C75 1_555 1_555
O26 Cu5 1_555 1_555
O27 C81 1_555 1_555
O28 C81 1_555 1_555
O29 C64 1_555 1_555
C76 C81 1_555 1_555
C77 C71 1_555 1_555
H36 C77 1_555 1_555
C78 H37 1_555 1_555
C79 C72 1_555 1_555
C80 C78 1_555 1_555
C82 C76 1_555 1_555
H38 C82 1_555 1_555
C83 C76 1_555 1_555
H39 C83 1_555 1_555
C84 C80 1_555 1_555
H40 C84 1_555 1_555
Cu9 O28 1_555 1_555
Cu13 O27 1_555 1_555
Cu18 O24 1_555 1_555
O35 Cu5 1_555 1_555
O38 Cu5 1_555 1_555
O44 Cu5 1_555 1_555
C66 C71 1_555 1_555
C67 C73 1_555 1_555
C68 C69 1_555 1_555
C74 C75 1_555 1_555
O29 Cu8_4 1_555 1_555
C77 C79 1_555 1_555
C78 C82 1_555 1_555
C79 C80 1_555 1_555
C83 C84 1_555 1_555
O1_4 H42 1_555 1_555
Cu4 O16 1_555 1_555
F3_2 C47_2 1_555 1_555
O16 C49 1_555 1_555
O17 C44_2 1_555 1_555
O18 C49 1_555 1_555
C43_2 C44_2 1_555 1_555
C45 C43_2 1_555 1_555
H21 C45 1_555 1_555
C46 C49 1_555 1_555
C47_2 C50 1_555 1_555
C48 C50 1_555 1_555
C50 C45 1_555 1_555
C51 C46 1_555 1_555
H22 C51 1_555 1_555
C52 C48 1_555 1_555
H23 C52 1_555 1_555
C53 C46 1_555 1_555
H24 C53 1_555 1_555
C54 C48 1_555 1_555
H25 C54 1_555 1_555
O19 Cu4 1_555 1_555
Cu17 O18 1_555 1_555
O31 Cu4 1_555 1_555
O34 Cu4 1_555 1_555
O43 Cu4 1_555 1_555
O17 Cu7_3 1_555 1_555
C51 C54 1_555 1_555
C52 C53 1_555 1_555
Cu8 O1_5 1_555 1_555
O1_5 H41_2 1_555 1_555
Cu8_2 O1_6 1_555 1_555
Cu5_2 O23_2 1_555 1_555
O23_2 C70_2 1_555 1_555
O24_2 C70_2 1_555 1_555
F4_2 C72_2 1_555 1_555
O25_2 Cu8_2 1_555 1_555
C64_2 O25_2 1_555 1_555
C65_2 C70_2 1_555 1_555
C66_2 H31_2 1_555 1_555
C67_2 H32_2 1_555 1_555
C68_2 C66_2 1_555 1_555
C69_2 C67_2 1_555 1_555
C71_2 C64_2 1_555 1_555
C72_2 C68_2 1_555 1_555
C73_2 C65_2 1_555 1_555
H33_2 C73_2 1_555 1_555
C74_2 C65_2 1_555 1_555
H34_2 C74_2 1_555 1_555
C75_2 C69_2 1_555 1_555
H35_2 C75_2 1_555 1_555
O26_2 Cu5_2 1_555 1_555
O27_2 C81_2 1_555 1_555
O28_2 C81_2 1_555 1_555
O36 C64_2 1_555 1_555
C76_2 C81_2 1_555 1_555
C77_2 C71_2 1_555 1_555
H36_2 C77_2 1_555 1_555
C78_2 H37_2 1_555 1_555
C79_2 C72_2 1_555 1_555
C80_2 C78_2 1_555 1_555
C82_2 C76_2 1_555 1_555
H38_2 C82_2 1_555 1_555
C83_2 C76_2 1_555 1_555
H39_2 C83_2 1_555 1_555
C84_2 C80_2 1_555 1_555
H40_2 C84_2 1_555 1_555
Cu9_2 O28_2 1_555 1_555
Cu13_2 O27_2 1_555 1_555
Cu18_2 O24_2 1_555 1_555
O35_2 Cu5_2 1_555 1_555
O38_2 Cu5_2 1_555 1_555
O44_2 Cu5_2 1_555 1_555
C66_2 C71_2 1_555 1_555
C67_2 C73_2 1_555 1_555
C68_2 C69_2 1_555 1_555
C74_2 C75_2 1_555 1_555
C77_2 C79_2 1_555 1_555
C78_2 C82_2 1_555 1_555
C79_2 C80_2 1_555 1_555
C83_2 C84_2 1_555 1_555
O1_6 H42_2 1_555 1_555
Cu7 O5_5 1_555 1_555
O5_5 H43_2 1_555 1_555
Cu7_2 O5_6 1_555 1_555
O40_2 Cu7_2 1_555 1_555
O5_6 H44_2 1_555 1_555
Cu7_3 O5_7 1_555 1_555
Cu8_3 O1_7 1_555 1_555
O31 C16_2 1_555 1_555
O3_2 C16_2 1_555 1_555
F2_2 C20_2 1_555 1_555
O4_2 Cu8_3 1_555 1_555
C2_2 O4_2 1_555 1_555
C11_2 C16_2 1_555 1_555
C12_2 H3_2 1_555 1_555
C13_2 H4_2 1_555 1_555
C14_2 C12_2 1_555 1_555
C15_2 C13_2 1_555 1_555
C18_2 C2_2 1_555 1_555
C20_2 C14_2 1_555 1_555
C21_2 C11_2 1_555 1_555
H7_2 C21_2 1_555 1_555
C23_2 C11_2 1_555 1_555
H9_2 C23_2 1_555 1_555
C24_2 C15_2 1_555 1_555
H10_2 C24_2 1_555 1_555
O13_2 C39_2 1_555 1_555
O14_2 C39_2 1_555 1_555
O37 C2_2 1_555 1_555
C34_2 C39_2 1_555 1_555
C35_2 C18_2 1_555 1_555
H16_2 C35_2 1_555 1_555
C36_2 H17_2 1_555 1_555
C37_2 C20_2 1_555 1_555
C38_2 C36_2 1_555 1_555
C40_2 C34_2 1_555 1_555
H18_2 C40_2 1_555 1_555
C41_2 C34_2 1_555 1_555
H19_2 C41_2 1_555 1_555
C42_2 C38_2 1_555 1_555
H20_2 C42_2 1_555 1_555
Cu17 O3_2 1_555 1_555
O30_2 Cu17 1_555 1_555
Cu10 O14_2 1_555 1_555
Cu14 O13_2 1_555 1_555
O32_2 Cu17 1_555 1_555
O39_2 Cu17 1_555 1_555
C12_2 C18_2 1_555 1_555
C13_2 C21_2 1_555 1_555
C14_2 C15_2 1_555 1_555
C23_2 C24_2 1_555 1_555
C35_2 C37_2 1_555 1_555
C36_2 C40_2 1_555 1_555
C37_2 C38_2 1_555 1_555
C41_2 C42_2 1_555 1_555
Cu7_4 O5_8 1_555 1_555
Cu8_4 O1_8 1_555 1_555
O41_2 Cu7_4 1_555 1_555
O5 H44_3 1_555 1_555
F3_3 C47_3 1_555 1_555
C43_3 C44_3 1_555 1_555
C44_3 O41 1_555 1_555
O20_2 C58_2 1_555 1_555
O22_2 C58_2 1_555 1_555
C55_2 C43_3 1_555 1_555
H26_2 C55_2 1_555 1_555
C56_2 C58_2 1_555 1_555
C57_2 C59_2 1_555 1_555
C59_2 C47_3 1_555 1_555
C60_2 C56_2 1_555 1_555
H27_2 C60_2 1_555 1_555
C61_2 C57_2 1_555 1_555
H28_2 C61_2 1_555 1_555
C62_2 C56_2 1_555 1_555
H29_2 C62_2 1_555 1_555
C63_2 C57_2 1_555 1_555
H30_2 C63_2 1_555 1_555
Cu9_2 O22_2 1_555 1_555
Cu13_2 O20_2 1_555 1_555
C55_2 C59_2 1_555 1_555
C60_2 C63_2 1_555 1_555
C61_2 C62_2 1_555 1_555
O5_2 H43_3 1_555 1_555
F1_3 C6_3 1_555 1_555
O8_2 C8_2 1_555 1_555
C1_3 C3_3 1_555 1_555
C3_3 O40 1_555 1_555
C4_2 C1_3 1_555 1_555
H1_2 C4_2 1_555 1_555
C5_2 C8_2 1_555 1_555
C6_3 C9_2 1_555 1_555
C7_2 C9_2 1_555 1_555
C8_2 O38_2 1_555 1_555
C9_2 C4_2 1_555 1_555
C10_2 C5_2 1_555 1_555
H2_2 C10_2 1_555 1_555
C17_2 C7_2 1_555 1_555
H5_2 C17_2 1_555 1_555
C19_2 C5_2 1_555 1_555
H6_2 C19_2 1_555 1_555
C22_2 C7_2 1_555 1_555
H8_2 C22_2 1_555 1_555
O30_3 Cu18_2 1_555 1_555
O32_3 Cu18_2 1_555 1_555
O39_3 Cu18_2 1_555 1_555
O8_2 Cu18_2 1_555 1_555
C10_2 C22_2 1_555 1_555
C17_2 C19_2 1_555 1_555
F3_4 C47_4 1_555 1_555
O38 C49_2 1_555 1_555
O40_2 C44_4 1_555 1_555
O18_2 C49_2 1_555 1_555
C43_4 C44_4 1_555 1_555
C45_2 C43_4 1_555 1_555
H21_2 C45_2 1_555 1_555
C46_2 C49_2 1_555 1_555
C47_4 C50_2 1_555 1_555
C48_2 C50_2 1_555 1_555
C50_2 C45_2 1_555 1_555
C51_2 C46_2 1_555 1_555
H22_2 C51_2 1_555 1_555
C52_2 C48_2 1_555 1_555
H23_2 C52_2 1_555 1_555
C53_2 C46_2 1_555 1_555
H24_2 C53_2 1_555 1_555
C54_2 C48_2 1_555 1_555
H25_2 C54_2 1_555 1_555
Cu18 O18_2 1_555 1_555
C51_2 C54_2 1_555 1_555
C52_2 C53_2 1_555 1_555
O1_7 H42_3 1_555 1_555
F1_4 C6_4 1_555 1_555
C1_4 C3_4 1_555 1_555
O10_2 C28_2 1_555 1_555
O41_2 C3_4 1_555 1_555
O12_2 C28_2 1_555 1_555
C25_2 C1_4 1_555 1_555
H11_2 C25_2 1_555 1_555
C26_2 C28_2 1_555 1_555
C27_2 C29_2 1_555 1_555
C29_2 C6_4 1_555 1_555
C30_2 C26_2 1_555 1_555
H12_2 C30_2 1_555 1_555
C31_2 C27_2 1_555 1_555
H13_2 C31_2 1_555 1_555
C32_2 C26_2 1_555 1_555
H14_2 C32_2 1_555 1_555
C33_2 C27_2 1_555 1_555
H15_2 C33_2 1_555 1_555
Cu9 O12_2 1_555 1_555
Cu13 O10_2 1_555 1_555
C25_2 C29_2 1_555 1_555
C30_2 C33_2 1_555 1_555
C31_2 C32_2 1_555 1_555
O1_8 H41_3 1_555 1_555
O1 H42_4 1_555 1_555
O1_2 H41_4 1_555 1_555
O30_4 Cu18 1_555 1_555
O32_4 Cu18 1_555 1_555
O39_4 Cu18 1_555 1_555
O5_7 H44_4 1_555 1_555
O5_8 H43_4 1_555 1_555
F2_3 C20_3 1_555 1_555
C18_3 C2_3 1_555 1_555
O32_4 C39_3 1_555 1_555
O35 C39_3 1_555 1_555
O15_2 C2_3 1_555 1_555
C34_3 C39_3 1_555 1_555
C35_3 C18_3 1_555 1_555
H16_3 C35_3 1_555 1_555
C36_3 H17_3 1_555 1_555
C37_3 C20_3 1_555 1_555
C38_3 C36_3 1_555 1_555
C40_3 C34_3 1_555 1_555
H18_3 C40_3 1_555 1_555
C41_3 C34_3 1_555 1_555
H19_3 C41_3 1_555 1_555
C42_3 C38_3 1_555 1_555
H20_3 C42_3 1_555 1_555
F4_3 C72_3 1_555 1_555
C71_3 C64_3 1_555 1_555
O32 C81_3 1_555 1_555
O33 C81_3 1_555 1_555
O29_2 C64_3 1_555 1_555
C76_3 C81_3 1_555 1_555
C77_3 C71_3 1_555 1_555
H36_3 C77_3 1_555 1_555
C78_3 H37_3 1_555 1_555
C79_3 C72_3 1_555 1_555
C80_3 C78_3 1_555 1_555
C82_3 C76_3 1_555 1_555
H38_3 C82_3 1_555 1_555
C83_3 C76_3 1_555 1_555
H39_3 C83_3 1_555 1_555
C84_3 C80_3 1_555 1_555
H40_3 C84_3 1_555 1_555
Cu8_5 O15_2 1_555 1_555
C35_3 C37_3 1_555 1_555
C36_3 C40_3 1_555 1_555
C37_3 C38_3 1_555 1_555
C41_3 C42_3 1_555 1_555
O29_2 Cu8_5 1_555 1_555
C77_3 C79_3 1_555 1_555
C78_3 C82_3 1_555 1_555
C79_3 C80_3 1_555 1_555
C83_3 C84_3 1_555 1_555
Cu1_5 O5_9 1_555 1_555
Cu2_5 O1_9 1_555 1_555
Cu9 O2_2 1_555 1_555
F1_5 C6_5 1_555 1_555
O2_2 C16_3 1_555 1_555
O3_3 C16_3 1_555 1_555
F2_4 C20_4 1_555 1_555
O4_3 Cu2_5 1_555 1_555
O6_2 Cu9 1_555 1_555
O7_2 Cu1_5 1_555 1_555
O8_3 C8_3 1_555 1_555
C1_5 C3_5 1_555 1_555
C2_4 O4_3 1_555 1_555
C3_5 O7_2 1_555 1_555
C4_3 C1_5 1_555 1_555
H1_3 C4_3 1_555 1_555
C5_3 C8_3 1_555 1_555
C6_5 C9_3 1_555 1_555
C7_3 C9_3 1_555 1_555
C8_3 O6_2 1_555 1_555
C9_3 C4_3 1_555 1_555
C10_3 C5_3 1_555 1_555
H2_3 C10_3 1_555 1_555
C11_3 C16_3 1_555 1_555
C12_3 H3_3 1_555 1_555
C13_3 H4_3 1_555 1_555
C14_3 C12_3 1_555 1_555
C15_3 C13_3 1_555 1_555
C17_3 C7_3 1_555 1_555
H5_3 C17_3 1_555 1_555
C18_4 C2_4 1_555 1_555
C19_3 C5_3 1_555 1_555
H6_3 C19_3 1_555 1_555
C20_4 C14_3 1_555 1_555
C21_3 C11_3 1_555 1_555
H7_3 C21_3 1_555 1_555
C22_3 C7_3 1_555 1_555
H8_3 C22_3 1_555 1_555
C23_3 C11_3 1_555 1_555
H9_3 C23_3 1_555 1_555
C24_3 C15_3 1_555 1_555
H10_3 C24_3 1_555 1_555
O9_2 Cu9 1_555 1_555
O39_3 C28_3 1_555 1_555
O11_2 C3_5 1_555 1_555
O44_2 C28_3 1_555 1_555
C25_3 C1_5 1_555 1_555
H11_3 C25_3 1_555 1_555
C26_3 C28_3 1_555 1_555
C27_3 C29_3 1_555 1_555
C29_3 C6_5 1_555 1_555
C30_3 C26_3 1_555 1_555
H12_3 C30_3 1_555 1_555
C31_3 C27_3 1_555 1_555
H13_3 C31_3 1_555 1_555
C32_3 C26_3 1_555 1_555
H14_3 C32_3 1_555 1_555
C33_3 C27_3 1_555 1_555
H15_3 C33_3 1_555 1_555
Cu9_2 O16_2 1_555 1_555
F3_5 C47_5 1_555 1_555
O16_2 C49_3 1_555 1_555
O17_2 C44_5 1_555 1_555
O18_3 C49_3 1_555 1_555
C43_5 C44_5 1_555 1_555
C44_5 O21_2 1_555 1_555
C45_3 C43_5 1_555 1_555
H21_3 C45_3 1_555 1_555
C46_3 C49_3 1_555 1_555
C47_5 C50_3 1_555 1_555
C48_3 C50_3 1_555 1_555
C50_3 C45_3 1_555 1_555
C51_3 C46_3 1_555 1_555
H22_3 C51_3 1_555 1_555
C52_3 C48_3 1_555 1_555
H23_3 C52_3 1_555 1_555
C53_3 C46_3 1_555 1_555
H24_3 C53_3 1_555 1_555
C54_3 C48_3 1_555 1_555
H25_3 C54_3 1_555 1_555
O19_2 Cu9_2 1_555 1_555
O39_4 C58_3 1_555 1_555
O21_2 Cu1_5 1_555 1_555
O44 C58_3 1_555 1_555
C55_3 C43_5 1_555 1_555
H26_3 C55_3 1_555 1_555
C56_3 C58_3 1_555 1_555
C57_3 C59_3 1_555 1_555
C59_3 C47_5 1_555 1_555
C60_3 C56_3 1_555 1_555
H27_3 C60_3 1_555 1_555
C61_3 C57_3 1_555 1_555
H28_3 C61_3 1_555 1_555
C62_3 C56_3 1_555 1_555
H29_3 C62_3 1_555 1_555
C63_3 C57_3 1_555 1_555
H30_3 C63_3 1_555 1_555
Cu12 O23_3 1_555 1_555
O23_3 C70_3 1_555 1_555
O24_3 C70_3 1_555 1_555
F4_4 C72_4 1_555 1_555
O25_3 Cu2_5 1_555 1_555
C64_4 O25_3 1_555 1_555
C65_3 C70_3 1_555 1_555
C66_3 H31_3 1_555 1_555
C67_3 H32_3 1_555 1_555
C68_3 C66_3 1_555 1_555
C69_3 C67_3 1_555 1_555
C71_4 C64_4 1_555 1_555
C72_4 C68_3 1_555 1_555
C73_3 C65_3 1_555 1_555
H33_3 C73_3 1_555 1_555
C74_3 C65_3 1_555 1_555
H34_3 C74_3 1_555 1_555
C75_3 C69_3 1_555 1_555
H35_3 C75_3 1_555 1_555
O26_3 Cu12 1_555 1_555
Cu13 O3_3 1_555 1_555
O30_5 Cu13 1_555 1_555
Cu7_5 O11_2 1_555 1_555
Cu13_2 O18_3 1_555 1_555
Cu16 O24_3 1_555 1_555
O31_2 Cu9_2 1_555 1_555
O36_2 Cu2_5 1_555 1_555
O37_2 Cu2_5 1_555 1_555
O38_3 Cu12 1_555 1_555
O40_3 Cu1_5 1_555 1_555
O41_3 Cu1_5 1_555 1_555
O8_3 Cu13 1_555 1_555
C10_3 C22_3 1_555 1_555
C12_3 C18_4 1_555 1_555
C13_3 C21_3 1_555 1_555
C14_3 C15_3 1_555 1_555
C17_3 C19_3 1_555 1_555
C23_3 C24_3 1_555 1_555
C25_3 C29_3 1_555 1_555
C30_3 C33_3 1_555 1_555
C31_3 C32_3 1_555 1_555
O17_2 Cu7_5 1_555 1_555
C51_3 C54_3 1_555 1_555
C52_3 C53_3 1_555 1_555
C55_3 C59_3 1_555 1_555
C60_3 C63_3 1_555 1_555
C61_3 C62_3 1_555 1_555
C66_3 C71_4 1_555 1_555
C67_3 C73_3 1_555 1_555
C68_3 C69_3 1_555 1_555
C74_3 C75_3 1_555 1_555
Cu7_5 O5_10 1_555 1_555
Cu8_5 O1_10 1_555 1_555
O31_2 C16_4 1_555 1_555
O3_4 C16_4 1_555 1_555
F2_5 C20_5 1_555 1_555
O4_4 Cu8_5 1_555 1_555
C2_5 O4_4 1_555 1_555
C11_4 C16_4 1_555 1_555
C12_4 H3_4 1_555 1_555
C13_4 H4_4 1_555 1_555
C14_4 C12_4 1_555 1_555
C15_4 C13_4 1_555 1_555
C18_5 C2_5 1_555 1_555
C20_5 C14_4 1_555 1_555
C21_4 C11_4 1_555 1_555
H7_4 C21_4 1_555 1_555
C23_4 C11_4 1_555 1_555
H9_4 C23_4 1_555 1_555
C24_4 C15_4 1_555 1_555
H10_4 C24_4 1_555 1_555
Cu10 O23_4 1_555 1_555
O23_4 C70_4 1_555 1_555
O24_4 C70_4 1_555 1_555
F4_5 C72_5 1_555 1_555
O25_4 Cu8_5 1_555 1_555
C64_5 O25_4 1_555 1_555
C65_4 C70_4 1_555 1_555
C66_4 H31_4 1_555 1_555
C67_4 H32_4 1_555 1_555
C68_4 C66_4 1_555 1_555
C69_4 C67_4 1_555 1_555
C71_5 C64_5 1_555 1_555
C72_5 C68_4 1_555 1_555
C73_4 C65_4 1_555 1_555
H33_4 C73_4 1_555 1_555
C74_4 C65_4 1_555 1_555
H34_4 C74_4 1_555 1_555
C75_4 C69_4 1_555 1_555
H35_4 C75_4 1_555 1_555
O26_4 Cu10 1_555 1_555
Cu13_2 O3_4 1_555 1_555
O30_6 Cu13_2 1_555 1_555
Cu14 O24_4 1_555 1_555
O38_4 Cu10 1_555 1_555
O40_4 Cu7_5 1_555 1_555
O41_4 Cu7_5 1_555 1_555
C12_4 C18_5 1_555 1_555
C13_4 C21_4 1_555 1_555
C14_4 C15_4 1_555 1_555
C23_4 C24_4 1_555 1_555
C66_4 C71_5 1_555 1_555
C67_4 C73_4 1_555 1_555
C68_4 C69_4 1_555 1_555
C74_4 C75_4 1_555 1_555
F2_6 C20_6 1_555 1_555
C18_6 C2_6 1_555 1_555
O32_3 C39_4 1_555 1_555
O35_2 C39_4 1_555 1_555
O37_2 C2_6 1_555 1_555
C34_4 C39_4 1_555 1_555
C35_4 C18_6 1_555 1_555
H16_4 C35_4 1_555 1_555
C36_4 H17_4 1_555 1_555
C37_4 C20_6 1_555 1_555
C38_4 C36_4 1_555 1_555
C40_4 C34_4 1_555 1_555
H18_4 C40_4 1_555 1_555
C41_4 C34_4 1_555 1_555
H19_4 C41_4 1_555 1_555
C42_4 C38_4 1_555 1_555
H20_4 C42_4 1_555 1_555
F4_6 C72_6 1_555 1_555
C71_6 C64_6 1_555 1_555
O32_2 C81_4 1_555 1_555
O34 C81_4 1_555 1_555
O36_2 C64_6 1_555 1_555
C76_4 C81_4 1_555 1_555
C77_4 C71_6 1_555 1_555
H36_4 C77_4 1_555 1_555
C78_4 H37_4 1_555 1_555
C79_4 C72_6 1_555 1_555
C80_4 C78_4 1_555 1_555
C82_4 C76_4 1_555 1_555
H38_4 C82_4 1_555 1_555
C83_4 C76_4 1_555 1_555
H39_4 C83_4 1_555 1_555
C84_4 C80_4 1_555 1_555
H40_4 C84_4 1_555 1_555
C35_4 C37_4 1_555 1_555
C36_4 C40_4 1_555 1_555
C37_4 C38_4 1_555 1_555
C41_4 C42_4 1_555 1_555
C77_4 C79_4 1_555 1_555
C78_4 C82_4 1_555 1_555
C79_4 C80_4 1_555 1_555
C83_4 C84_4 1_555 1_555
F1_6 C6_6 1_555 1_555
O8_4 C8_4 1_555 1_555
C1_6 C3_6 1_555 1_555
C3_6 O40_3 1_555 1_555
C4_4 C1_6 1_555 1_555
H1_4 C4_4 1_555 1_555
C5_4 C8_4 1_555 1_555
C6_6 C9_4 1_555 1_555
C7_4 C9_4 1_555 1_555
C8_4 O38_4 1_555 1_555
C9_4 C4_4 1_555 1_555
C10_4 C5_4 1_555 1_555
H2_4 C10_4 1_555 1_555
C17_4 C7_4 1_555 1_555
H5_4 C17_4 1_555 1_555
C19_4 C5_4 1_555 1_555
H6_4 C19_4 1_555 1_555
C22_4 C7_4 1_555 1_555
H8_4 C22_4 1_555 1_555
O39 C28_4 1_555 1_555
O41_4 C3_6 1_555 1_555
O42 C28_4 1_555 1_555
C25_4 C1_6 1_555 1_555
H11_4 C25_4 1_555 1_555
C26_4 C28_4 1_555 1_555
C27_4 C29_4 1_555 1_555
C29_4 C6_6 1_555 1_555
C30_4 C26_4 1_555 1_555
H12_4 C30_4 1_555 1_555
C31_4 C27_4 1_555 1_555
H13_4 C31_4 1_555 1_555
C32_4 C26_4 1_555 1_555
H14_4 C32_4 1_555 1_555
C33_4 C27_4 1_555 1_555
H15_4 C33_4 1_555 1_555
F3_6 C47_6 1_555 1_555
O38_3 C49_4 1_555 1_555
O40_4 C44_6 1_555 1_555
O18_4 C49_4 1_555 1_555
C43_6 C44_6 1_555 1_555
C44_6 O41_3 1_555 1_555
C45_4 C43_6 1_555 1_555
H21_4 C45_4 1_555 1_555
C46_4 C49_4 1_555 1_555
C47_6 C50_4 1_555 1_555
C48_4 C50_4 1_555 1_555
C50_4 C45_4 1_555 1_555
C51_4 C46_4 1_555 1_555
H22_4 C51_4 1_555 1_555
C52_4 C48_4 1_555 1_555
H23_4 C52_4 1_555 1_555
C53_4 C46_4 1_555 1_555
H24_4 C53_4 1_555 1_555
C54_4 C48_4 1_555 1_555
H25_4 C54_4 1_555 1_555
O39_2 C58_4 1_555 1_555
O43 C58_4 1_555 1_555
C55_4 C43_6 1_555 1_555
H26_4 C55_4 1_555 1_555
C56_4 C58_4 1_555 1_555
C57_4 C59_4 1_555 1_555
C59_4 C47_6 1_555 1_555
C60_4 C56_4 1_555 1_555
H27_4 C60_4 1_555 1_555
C61_4 C57_4 1_555 1_555
H28_4 C61_4 1_555 1_555
C62_4 C56_4 1_555 1_555
H29_4 C62_4 1_555 1_555
C63_4 C57_4 1_555 1_555
H30_4 C63_4 1_555 1_555
O30_7 Cu14 1_555 1_555
Cu16 O18_4 1_555 1_555
O8_4 Cu14 1_555 1_555
C10_4 C22_4 1_555 1_555
C17_4 C19_4 1_555 1_555
C25_4 C29_4 1_555 1_555
C30_4 C33_4 1_555 1_555
C31_4 C32_4 1_555 1_555
C51_4 C54_4 1_555 1_555
C52_4 C53_4 1_555 1_555
C55_4 C59_4 1_555 1_555
C60_4 C63_4 1_555 1_555
C61_4 C62_4 1_555 1_555
O30_8 Cu16 1_555 1_555
O1_5 H42_5 1_555 1_555
O1_6 H41_5 1_555 1_555
O5_5 H44_5 1_555 1_555
O5_6 H43_5 1_555 1_555
O5_3 H44_6 1_555 1_555
O5_4 H43_6 1_555 1_555
O1_3 H42_6 1_555 1_555
O1_4 H41_6 1_555 1_555
O1 H41_7 1_555 1_555
O1_2 H42_7 1_555 1_555
O5_7 H43_7 1_555 1_555
O5_8 H44_7 1_555 1_555
O5 H43_8 1_555 1_555
O5_2 H44_8 1_555 1_555
O1_7 H41_8 1_555 1_555
O1_8 H42_8 1_555 1_555

#END
