
###############################################################################
#
# This file contains modified crystal structure data generated from the
# MOF subset of the Cambridge Structural Database (CSD) v543 
# hosted by the Cambridge Crystallographic Data Centre (CCDC).
#
# This work is licensed under the Creative Commons
# Attribution-NonCommercial-ShareAlike 4.0 International License.
# To view a copy of this license, visit
# http://creativecommons.org/licenses/by-nc-sa/4.0/
# or send a letter to
# Creative Commons, PO Box 1866, Mountain View, CA 94042, USA.
#
# CIF created using the CSD Python API on 29 September 2022
# The structure has been converted into the P1 space group
# The structure has a 3D framework
# The original CSD entry SIXNIZ is in the orthorhombic crystal system
# The framework has been calculated to contain at least 10.0% void space
# The void calculation uses a probe of radius 1.32A, grid spacing 0.4
#
###############################################################################

data_SIXNIZ
_chemical_formula_moiety         '(C360 H216 Cl24 Cu34 O130)n'
_symmetry_cell_setting           triclinic
_symmetry_space_group_name_H-M   'P 1'
_symmetry_Int_Tables_number      1
_space_group_name_Hall           'P 1'
loop_
_symmetry_equiv_pos_site_id
_symmetry_equiv_pos_as_xyz
1 x,y,z
_cell_length_a                   34.0057(4)
_cell_length_b                   34.0057(4)
_cell_length_c                   20.4029(7)
_cell_angle_alpha                90
_cell_angle_beta                 90
_cell_angle_gamma                90
_cell_volume                     23593.7
loop_
_atom_site_label
_atom_site_type_symbol
_atom_site_fract_x
_atom_site_fract_y
_atom_site_fract_z
Cu1 Cu 0.5000 0.03850(3) 0.5000
Cu2 Cu 0.24572(2) 0.24557(2) 0.18702(3)
Cu3 Cu 0.53912(2) 0.5000 0.0000
Cl1 Cl 0.29999(5) -0.0000 0.24977(11)
Cl2 Cl 0.5000 0.30002(5) 0.24895(11)
O1 O 0.5000 0.10218(17) 0.5000
O2 O 0.45801(10) 0.03323(8) 0.43360(17)
O3 O 0.28230(11) 0.20468(11) 0.3094(2)
O4 O 0.27531(11) 0.19651(10) 0.2010(2)
C1 C 0.28541(13) 0.18692(14) 0.2603(4)
O5 O 0.60197(14) 0.5000 0.0000
O6 O 0.53271(6) 0.45954(7) 0.06684(14)
O7 O 0.29511(9) 0.27457(10) 0.18503(17)
O8 O 0.30340(8) 0.28168(9) 0.29304(16)
C2 C 0.41050(17) 0.0000 0.3692(3)
C3 C 0.39453(12) 0.03532(10) 0.3523(3)
H1 H 0.4056 0.0587 0.3669
C4 C 0.5000 0.41152(14) 0.1305(3)
C5 C 0.44596(17) 0.0000 0.4151(4)
C6 C 0.46435(9) 0.39521(11) 0.1504(2)
H2 H 0.4408 0.4072 0.1386
C7 C 0.30552(14) 0.14802(13) 0.2760(3)
C8 C 0.34194(15) 0.07456(12) 0.2949(3)
C9 C 0.42479(10) 0.34177(12) 0.2023(2)
C10 C 0.3443(2) -0.0000 0.2934(4)
C11 C 0.35962(14) 0.03555(11) 0.3109(2)
C12 C 0.5000 0.34431(15) 0.2058(3)
C13 C 0.5000 0.44695(13) 0.0839(3)
C14 C 0.46375(10) 0.36021(11) 0.1887(2)
C15 C 0.31433(19) 0.13538(14) 0.3406(3)
H3 H 0.3087 0.1516 0.3762
O9 O 0.23972(17) 0.2396(2) 0.0846(2)
H4 H 0.2157 0.2318 0.0622
H5 H 0.2594 0.2446 0.0505
C16 C 0.33172(18) 0.09802(13) 0.3508(3)
H6 H 0.3364 0.0888 0.3930
C17 C 0.33431(16) 0.08776(13) 0.2352(3)
H7 H 0.3414 0.0734 0.1983
C18 C 0.31421(10) 0.28577(12) 0.2339(2)
C19 C 0.31535(18) 0.12380(17) 0.2296(6)
H8 H 0.3089 0.1316 0.1873
C20 C 0.41211(12) 0.33399(15) 0.2633(2)
H9 H 0.4282 0.3407 0.2984
C21 C 0.35239(9) 0.30631(10) 0.2224(2)
C22 C 0.36477(12) 0.31428(15) 0.1607(2)
H10 H 0.3486 0.3080 0.1254
C23 C 0.37594(12) 0.31638(14) 0.2762(2)
H11 H 0.3678 0.3115 0.3189
C24 C 0.40107(12) 0.33165(14) 0.1491(2)
H12 H 0.4095 0.3365 0.1065
H13 H 0.5000 0.108(2) 0.4597(10)
H14 H 0.6131(13) 0.4775(7) 0.0000
O13 O 0.46729(6) 0.45954(7) 0.06684(14)
O14 O 0.70489(9) 0.27457(10) 0.18503(17)
O15 O 0.69660(8) 0.28168(9) 0.29304(16)
C34 C 0.53565(9) 0.39521(11) 0.1504(2)
H20 H 0.5592 0.4072 0.1386
C35 C 0.57521(10) 0.34177(12) 0.2023(2)
C36 C 0.53625(10) 0.36021(11) 0.1887(2)
C37 C 0.68579(10) 0.28577(12) 0.2339(2)
C38 C 0.58789(12) 0.33399(15) 0.2633(2)
H21 H 0.5718 0.3407 0.2984
C39 C 0.64761(9) 0.30631(10) 0.2224(2)
C40 C 0.63523(12) 0.31428(15) 0.1607(2)
H22 H 0.6514 0.3080 0.1254
C41 C 0.62406(12) 0.31638(14) 0.2762(2)
H23 H 0.6322 0.3115 0.3189
C42 C 0.59893(12) 0.33165(14) 0.1491(2)
H24 H 0.5905 0.3365 0.1065
H25 H 0.5000 0.108(2) 0.5403(10)
H26 H 0.6131(13) 0.5225(7) 0.0000
Cl3 Cl 0.70001(5) -0.0000 0.24977(11)
C44 C 0.58950(17) 0.0000 0.3692(3)
C47 C 0.55404(17) 0.0000 0.4151(4)
C52 C 0.6557(2) -0.0000 0.2934(4)
O23 O 0.54199(10) 0.03323(8) 0.43360(17)
O24 O 0.71770(11) 0.20468(11) 0.3094(2)
O25 O 0.72469(11) 0.19651(10) 0.2010(2)
C67 C 0.71459(13) 0.18692(14) 0.2603(4)
C68 C 0.60547(12) 0.03532(10) 0.3523(3)
H39 H 0.5944 0.0587 0.3669
C69 C 0.69448(14) 0.14802(13) 0.2760(3)
C70 C 0.65806(15) 0.07456(12) 0.2949(3)
C71 C 0.64038(14) 0.03555(11) 0.3109(2)
C72 C 0.68567(19) 0.13538(14) 0.3406(3)
H40 H 0.6913 0.1516 0.3762
C73 C 0.66828(18) 0.09802(13) 0.3508(3)
H41 H 0.6636 0.0888 0.3930
C74 C 0.66569(16) 0.08776(13) 0.2352(3)
H42 H 0.6586 0.0734 0.1983
C75 C 0.68465(18) 0.12380(17) 0.2296(6)
H43 H 0.6911 0.1316 0.1873
Cu5 Cu 0.25428(2) 0.25443(2) 0.31298(3)
O29 O 0.26028(17) 0.2604(2) 0.4154(2)
H49 H 0.2843 0.2682 0.4378
H50 H 0.2406 0.2554 0.4495
Cu8 Cu 0.74572(2) 0.25443(2) 0.31298(3)
Cu9 Cu 0.75428(2) 0.24557(2) 0.18702(3)
Cu14 Cu 0.46088(2) 0.5000 0.0000
O31 O 0.54199(10) 0.03323(8) 0.56640(17)
O32 O 0.45801(10) 0.03323(8) 0.56640(17)
O33 O 0.21770(11) 0.29532(11) 0.1906(2)
O36 O 0.22469(11) 0.30349(10) 0.2990(2)
O39 O 0.53271(6) 0.54046(7) 0.06684(14)
O41 O 0.20489(9) 0.22543(10) 0.31497(17)
O42 O 0.19660(8) 0.21832(9) 0.20696(16)
Cu3_2 Cu 0.53912(2) 0.5000 1.0000
O5_2 O 0.60197(14) 0.5000 1.0000
H14_2 H 0.6131(13) 0.4775(7) 1.0000
H26_2 H 0.6131(13) 0.5225(7) 1.0000
Cu14_2 Cu 0.46088(2) 0.5000 1.0000
O37 O 0.53271(6) 0.54046(7) 0.93316(14)
O38 O 0.53271(6) 0.45954(7) 0.93316(14)
Cl1_2 Cl 0.29999(5) 1.0000 0.24977(11)
C2_2 C 0.41050(17) 1.0000 0.3692(3)
C5_2 C 0.44596(17) 1.0000 0.4151(4)
C10_2 C 0.3443(2) 1.0000 0.2934(4)
O10 O 0.45801(10) 0.96677(8) 0.43360(17)
O11 O 0.28230(11) 0.79532(11) 0.3094(2)
O12 O 0.27531(11) 0.80349(10) 0.2010(2)
C25 C 0.28541(13) 0.81308(14) 0.2603(4)
C26 C 0.39453(12) 0.96468(10) 0.3523(3)
H15 H 0.4056 0.9413 0.3669
C27 C 0.30552(14) 0.85198(13) 0.2760(3)
C28 C 0.34194(15) 0.92544(12) 0.2949(3)
C29 C 0.35962(14) 0.96445(11) 0.3109(2)
C30 C 0.31433(19) 0.86462(14) 0.3406(3)
H16 H 0.3087 0.8484 0.3762
C31 C 0.33172(18) 0.90198(13) 0.3508(3)
H17 H 0.3364 0.9112 0.3930
C32 C 0.33431(16) 0.91224(13) 0.2352(3)
H18 H 0.3414 0.9266 0.1983
C33 C 0.31535(18) 0.87620(17) 0.2296(6)
H19 H 0.3089 0.8684 0.1873
Cu4 Cu 0.75428(2) 0.75443(2) 0.18702(3)
Cl3_2 Cl 0.70001(5) 1.0000 0.24977(11)
Cl4 Cl 0.5000 0.69998(5) 0.24895(11)
O16 O 0.54199(10) 0.96677(8) 0.43360(17)
O17 O 0.71770(11) 0.79532(11) 0.3094(2)
O18 O 0.72469(11) 0.80349(10) 0.2010(2)
C43 C 0.71459(13) 0.81308(14) 0.2603(4)
O19 O 0.46729(6) 0.54046(7) 0.06684(14)
O20 O 0.70489(9) 0.72543(10) 0.18503(17)
O21 O 0.69660(8) 0.71832(9) 0.29304(16)
C44_2 C 0.58950(17) 1.0000 0.3692(3)
C45 C 0.60547(12) 0.96468(10) 0.3523(3)
H27 H 0.5944 0.9413 0.3669
C46 C 0.5000 0.58848(14) 0.1305(3)
C47_2 C 0.55404(17) 1.0000 0.4151(4)
C48 C 0.53565(9) 0.60479(11) 0.1504(2)
H28 H 0.5592 0.5928 0.1386
C49 C 0.69448(14) 0.85198(13) 0.2760(3)
C50 C 0.65806(15) 0.92544(12) 0.2949(3)
C51 C 0.57521(10) 0.65823(12) 0.2023(2)
C52_2 C 0.6557(2) 1.0000 0.2934(4)
C53 C 0.64038(14) 0.96445(11) 0.3109(2)
C54 C 0.5000 0.65569(15) 0.2058(3)
C55 C 0.5000 0.55305(13) 0.0839(3)
C56 C 0.53625(10) 0.63979(11) 0.1887(2)
C57 C 0.68567(19) 0.86462(14) 0.3406(3)
H29 H 0.6913 0.8484 0.3762
O22 O 0.76028(17) 0.7604(2) 0.0846(2)
H30 H 0.7843 0.7682 0.0622
H31 H 0.7406 0.7554 0.0505
C58 C 0.66828(18) 0.90198(13) 0.3508(3)
H32 H 0.6636 0.9112 0.3930
C59 C 0.66569(16) 0.91224(13) 0.2352(3)
H33 H 0.6586 0.9266 0.1983
C60 C 0.68579(10) 0.71423(12) 0.2339(2)
C61 C 0.68465(18) 0.87620(17) 0.2296(6)
H34 H 0.6911 0.8684 0.1873
C62 C 0.58789(12) 0.66601(15) 0.2633(2)
H35 H 0.5718 0.6593 0.2984
C63 C 0.64761(9) 0.69369(10) 0.2224(2)
C64 C 0.63523(12) 0.68572(15) 0.1607(2)
H36 H 0.6514 0.6920 0.1254
C65 C 0.62406(12) 0.68362(14) 0.2762(2)
H37 H 0.6322 0.6885 0.3189
C66 C 0.59893(12) 0.66835(14) 0.1491(2)
H38 H 0.5905 0.6635 0.1065
O27 O 0.29511(9) 0.72543(10) 0.18503(17)
O28 O 0.30340(8) 0.71832(9) 0.29304(16)
C76 C 0.46435(9) 0.60479(11) 0.1504(2)
H44 H 0.4408 0.5928 0.1386
C77 C 0.42479(10) 0.65823(12) 0.2023(2)
C78 C 0.46375(10) 0.63979(11) 0.1887(2)
C79 C 0.31421(10) 0.71423(12) 0.2339(2)
C80 C 0.41211(12) 0.66601(15) 0.2633(2)
H45 H 0.4282 0.6593 0.2984
C81 C 0.35239(9) 0.69369(10) 0.2224(2)
C82 C 0.36477(12) 0.68572(15) 0.1607(2)
H46 H 0.3486 0.6920 0.1254
C83 C 0.37594(12) 0.68362(14) 0.2762(2)
H47 H 0.3678 0.6885 0.3189
C84 C 0.40107(12) 0.66835(14) 0.1491(2)
H48 H 0.4095 0.6635 0.1065
Cu6 Cu 0.25428(2) 0.74557(2) 0.31298(3)
O30 O 0.26028(17) 0.7396(2) 0.4154(2)
H51 H 0.2843 0.7318 0.4378
H52 H 0.2406 0.7446 0.4495
Cu7 Cu 0.5000 0.96150(3) 0.5000
Cu10 Cu 0.24572(2) 0.75443(2) 0.18702(3)
Cu11 Cu 0.74572(2) 0.74557(2) 0.31298(3)
O34 O 0.78230(11) 0.70468(11) 0.1906(2)
O35 O 0.22469(11) 0.69651(10) 0.2990(2)
O40 O 0.20489(9) 0.77457(10) 0.31497(17)
O43 O 0.80340(8) 0.78168(9) 0.20696(16)
O30_2 O 0.73972(17) 0.2604(2) 0.4154(2)
H51_2 H 0.7157 0.2682 0.4378
H52_2 H 0.7594 0.2554 0.4495
O35_2 O 0.77531(11) 0.30349(10) 0.2990(2)
O40_2 O 0.79511(9) 0.22543(10) 0.31497(17)
O1_2 O 0.5000 0.89782(17) 0.5000
O5_3 O 0.39803(14) 0.5000 0.0000
H13_2 H 0.5000 0.892(2) 0.4597(10)
H14_3 H 0.3869(13) 0.5225(7) 0.0000
H25_2 H 0.5000 0.892(2) 0.5403(10)
H26_3 H 0.3869(13) 0.4775(7) 0.0000
O29_2 O 0.73972(17) 0.7396(2) 0.4154(2)
H49_2 H 0.7157 0.7318 0.4378
H50_2 H 0.7594 0.7446 0.4495
O31_2 O 0.45801(10) 0.96677(8) 0.56640(17)
O32_2 O 0.54199(10) 0.96677(8) 0.56640(17)
O36_2 O 0.77531(11) 0.69651(10) 0.2990(2)
O41_2 O 0.79511(9) 0.77457(10) 0.31497(17)
O5_4 O 0.39803(14) 0.5000 1.0000
H14_4 H 0.3869(13) 0.5225(7) 1.0000
H26_4 H 0.3869(13) 0.4775(7) 1.0000
O37_2 O 0.46729(6) 0.45954(7) 0.93316(14)
O38_2 O 0.46729(6) 0.54046(7) 0.93316(14)
Cl1_3 Cl 0.29999(5) 0.0000 0.75023(11)
C2_3 C 0.41050(17) -0.0000 0.6308(3)
C5_3 C 0.44596(17) 0.0000 0.5849(4)
C10_3 C 0.3443(2) 0.0000 0.7066(4)
O11_2 O 0.28230(11) 0.20468(11) 0.6906(2)
O12_2 O 0.27531(11) 0.19651(10) 0.7990(2)
C25_2 C 0.28541(13) 0.18692(14) 0.7397(4)
C26_2 C 0.39453(12) 0.03532(10) 0.6477(3)
H15_2 H 0.4056 0.0587 0.6331
C27_2 C 0.30552(14) 0.14802(13) 0.7240(3)
C28_2 C 0.34194(15) 0.07456(12) 0.7051(3)
C29_2 C 0.35962(14) 0.03555(11) 0.6891(2)
C30_2 C 0.31433(19) 0.13538(14) 0.6594(3)
H16_2 H 0.3087 0.1516 0.6238
C31_2 C 0.33172(18) 0.09802(13) 0.6492(3)
H17_2 H 0.3364 0.0888 0.6070
C32_2 C 0.33431(16) 0.08776(13) 0.7648(3)
H18_2 H 0.3414 0.0734 0.8017
C33_2 C 0.31535(18) 0.12380(17) 0.7704(6)
H19_2 H 0.3089 0.1316 0.8127
Cu4_2 Cu 0.75428(2) 0.24557(2) 0.81298(3)
Cl3_3 Cl 0.70001(5) 0.0000 0.75023(11)
Cl4_2 Cl 0.5000 0.30002(5) 0.75105(11)
O17_2 O 0.71770(11) 0.20468(11) 0.6906(2)
O18_2 O 0.72469(11) 0.19651(10) 0.7990(2)
C43_2 C 0.71459(13) 0.18692(14) 0.7397(4)
O20_2 O 0.70489(9) 0.27457(10) 0.81497(17)
O21_2 O 0.69660(8) 0.28168(9) 0.70696(16)
C44_3 C 0.58950(17) -0.0000 0.6308(3)
C45_2 C 0.60547(12) 0.03532(10) 0.6477(3)
H27_2 H 0.5944 0.0587 0.6331
C46_2 C 0.5000 0.41152(14) 0.8695(3)
C47_3 C 0.55404(17) 0.0000 0.5849(4)
C48_2 C 0.53565(9) 0.39521(11) 0.8496(2)
H28_2 H 0.5592 0.4072 0.8614
C49_2 C 0.69448(14) 0.14802(13) 0.7240(3)
C50_2 C 0.65806(15) 0.07456(12) 0.7051(3)
C51_2 C 0.57521(10) 0.34177(12) 0.7977(2)
C52_3 C 0.6557(2) 0.0000 0.7066(4)
C53_2 C 0.64038(14) 0.03555(11) 0.6891(2)
C54_2 C 0.5000 0.34431(15) 0.7942(3)
C55_2 C 0.5000 0.44695(13) 0.9161(3)
C56_2 C 0.53625(10) 0.36021(11) 0.8113(2)
C57_2 C 0.68567(19) 0.13538(14) 0.6594(3)
H29_2 H 0.6913 0.1516 0.6238
O22_2 O 0.76028(17) 0.2396(2) 0.9154(2)
H30_2 H 0.7843 0.2318 0.9378
H31_2 H 0.7406 0.2446 0.9495
C58_2 C 0.66828(18) 0.09802(13) 0.6492(3)
H32_2 H 0.6636 0.0888 0.6070
C59_2 C 0.66569(16) 0.08776(13) 0.7648(3)
H33_2 H 0.6586 0.0734 0.8017
C60_2 C 0.68579(10) 0.28577(12) 0.7661(2)
C61_2 C 0.68465(18) 0.12380(17) 0.7704(6)
H34_2 H 0.6911 0.1316 0.8127
C62_2 C 0.58789(12) 0.33399(15) 0.7367(2)
H35_2 H 0.5718 0.3407 0.7016
C63_2 C 0.64761(9) 0.30631(10) 0.7776(2)
C64_2 C 0.63523(12) 0.31428(15) 0.8393(2)
H36_2 H 0.6514 0.3080 0.8746
C65_2 C 0.62406(12) 0.31638(14) 0.7238(2)
H37_2 H 0.6322 0.3115 0.6811
C66_2 C 0.59893(12) 0.33165(14) 0.8509(2)
H38_2 H 0.5905 0.3365 0.8935
O27_2 O 0.29511(9) 0.27457(10) 0.81497(17)
O28_2 O 0.30340(8) 0.28168(9) 0.70696(16)
C76_2 C 0.46435(9) 0.39521(11) 0.8496(2)
H44_2 H 0.4408 0.4072 0.8614
C77_2 C 0.42479(10) 0.34177(12) 0.7977(2)
C78_2 C 0.46375(10) 0.36021(11) 0.8113(2)
C79_2 C 0.31421(10) 0.28577(12) 0.7661(2)
C80_2 C 0.41211(12) 0.33399(15) 0.7367(2)
H45_2 H 0.4282 0.3407 0.7016
C81_2 C 0.35239(9) 0.30631(10) 0.7776(2)
C82_2 C 0.36477(12) 0.31428(15) 0.8393(2)
H46_2 H 0.3486 0.3080 0.8746
C83_2 C 0.37594(12) 0.31638(14) 0.7238(2)
H47_2 H 0.3678 0.3115 0.6811
C84_2 C 0.40107(12) 0.33165(14) 0.8509(2)
H48_2 H 0.4095 0.3365 0.8935
Cu6_2 Cu 0.25428(2) 0.25443(2) 0.68702(3)
O30_3 O 0.26028(17) 0.2604(2) 0.5846(2)
H51_3 H 0.2843 0.2682 0.5622
H52_3 H 0.2406 0.2554 0.5505
Cu10_2 Cu 0.24572(2) 0.24557(2) 0.81298(3)
Cu11_2 Cu 0.74572(2) 0.25443(2) 0.68702(3)
O34_2 O 0.78230(11) 0.29532(11) 0.8094(2)
O35_3 O 0.22469(11) 0.30349(10) 0.7010(2)
O40_3 O 0.20489(9) 0.22543(10) 0.68503(17)
O43_2 O 0.80340(8) 0.21832(9) 0.79304(16)
Cu2_2 Cu 0.24572(2) 0.75443(2) 0.81298(3)
Cl1_4 Cl 0.29999(5) 1.0000 0.75023(11)
Cl2_2 Cl 0.5000 0.69998(5) 0.75105(11)
O3_2 O 0.28230(11) 0.79532(11) 0.6906(2)
O4_2 O 0.27531(11) 0.80349(10) 0.7990(2)
C1_2 C 0.28541(13) 0.81308(14) 0.7397(4)
O7_2 O 0.29511(9) 0.72543(10) 0.81497(17)
O8_2 O 0.30340(8) 0.71832(9) 0.70696(16)
C2_4 C 0.41050(17) 1.0000 0.6308(3)
C3_2 C 0.39453(12) 0.96468(10) 0.6477(3)
H1_2 H 0.4056 0.9413 0.6331
C4_2 C 0.5000 0.58848(14) 0.8695(3)
C5_4 C 0.44596(17) 1.0000 0.5849(4)
C6_2 C 0.46435(9) 0.60479(11) 0.8496(2)
H2_2 H 0.4408 0.5928 0.8614
C7_2 C 0.30552(14) 0.85198(13) 0.7240(3)
C8_2 C 0.34194(15) 0.92544(12) 0.7051(3)
C9_2 C 0.42479(10) 0.65823(12) 0.7977(2)
C10_4 C 0.3443(2) 1.0000 0.7066(4)
C11_2 C 0.35962(14) 0.96445(11) 0.6891(2)
C12_2 C 0.5000 0.65569(15) 0.7942(3)
C13_2 C 0.5000 0.55305(13) 0.9161(3)
C14_2 C 0.46375(10) 0.63979(11) 0.8113(2)
C15_2 C 0.31433(19) 0.86462(14) 0.6594(3)
H3_2 H 0.3087 0.8484 0.6238
O9_2 O 0.23972(17) 0.7604(2) 0.9154(2)
H4_2 H 0.2157 0.7682 0.9378
H5_2 H 0.2594 0.7554 0.9495
C16_2 C 0.33172(18) 0.90198(13) 0.6492(3)
H6_2 H 0.3364 0.9112 0.6070
C17_2 C 0.33431(16) 0.91224(13) 0.7648(3)
H7_2 H 0.3414 0.9266 0.8017
C18_2 C 0.31421(10) 0.71423(12) 0.7661(2)
C19_2 C 0.31535(18) 0.87620(17) 0.7704(6)
H8_2 H 0.3089 0.8684 0.8127
C20_2 C 0.41211(12) 0.66601(15) 0.7367(2)
H9_2 H 0.4282 0.6593 0.7016
C21_2 C 0.35239(9) 0.69369(10) 0.7776(2)
C22_2 C 0.36477(12) 0.68572(15) 0.8393(2)
H10_2 H 0.3486 0.6920 0.8746
C23_2 C 0.37594(12) 0.68362(14) 0.7238(2)
H11_2 H 0.3678 0.6885 0.6811
C24_2 C 0.40107(12) 0.66835(14) 0.8509(2)
H12_2 H 0.4095 0.6635 0.8935
O14_2 O 0.70489(9) 0.72543(10) 0.81497(17)
O15_2 O 0.69660(8) 0.71832(9) 0.70696(16)
C34_2 C 0.53565(9) 0.60479(11) 0.8496(2)
H20_2 H 0.5592 0.5928 0.8614
C35_2 C 0.57521(10) 0.65823(12) 0.7977(2)
C36_2 C 0.53625(10) 0.63979(11) 0.8113(2)
C37_2 C 0.68579(10) 0.71423(12) 0.7661(2)
C38_2 C 0.58789(12) 0.66601(15) 0.7367(2)
H21_2 H 0.5718 0.6593 0.7016
C39_2 C 0.64761(9) 0.69369(10) 0.7776(2)
C40_2 C 0.63523(12) 0.68572(15) 0.8393(2)
H22_2 H 0.6514 0.6920 0.8746
C41_2 C 0.62406(12) 0.68362(14) 0.7238(2)
H23_2 H 0.6322 0.6885 0.6811
C42_2 C 0.59893(12) 0.66835(14) 0.8509(2)
H24_2 H 0.5905 0.6635 0.8935
Cl3_4 Cl 0.70001(5) 1.0000 0.75023(11)
C44_4 C 0.58950(17) 1.0000 0.6308(3)
C47_4 C 0.55404(17) 1.0000 0.5849(4)
C52_4 C 0.6557(2) 1.0000 0.7066(4)
O24_2 O 0.71770(11) 0.79532(11) 0.6906(2)
O25_2 O 0.72469(11) 0.80349(10) 0.7990(2)
C67_2 C 0.71459(13) 0.81308(14) 0.7397(4)
C68_2 C 0.60547(12) 0.96468(10) 0.6477(3)
H39_2 H 0.5944 0.9413 0.6331
C69_2 C 0.69448(14) 0.85198(13) 0.7240(3)
C70_2 C 0.65806(15) 0.92544(12) 0.7051(3)
C71_2 C 0.64038(14) 0.96445(11) 0.6891(2)
C72_2 C 0.68567(19) 0.86462(14) 0.6594(3)
H40_2 H 0.6913 0.8484 0.6238
C73_2 C 0.66828(18) 0.90198(13) 0.6492(3)
H41_2 H 0.6636 0.9112 0.6070
C74_2 C 0.66569(16) 0.91224(13) 0.7648(3)
H42_2 H 0.6586 0.9266 0.8017
C75_2 C 0.68465(18) 0.87620(17) 0.7704(6)
H43_2 H 0.6911 0.8684 0.8127
Cu5_2 Cu 0.25428(2) 0.74557(2) 0.68702(3)
O29_3 O 0.26028(17) 0.7396(2) 0.5846(2)
H49_3 H 0.2843 0.7318 0.5622
H50_3 H 0.2406 0.7446 0.5505
Cu8_2 Cu 0.74572(2) 0.74557(2) 0.68702(3)
Cu9_2 Cu 0.75428(2) 0.75443(2) 0.81298(3)
O33_2 O 0.21770(11) 0.70468(11) 0.8094(2)
O36_3 O 0.22469(11) 0.69651(10) 0.7010(2)
O41_3 O 0.20489(9) 0.77457(10) 0.68503(17)
O42_2 O 0.19660(8) 0.78168(9) 0.79304(16)
O29_4 O 0.73972(17) 0.2604(2) 0.5846(2)
H49_4 H 0.7157 0.2682 0.5622
H50_4 H 0.7594 0.2554 0.5505
O36_4 O 0.77531(11) 0.30349(10) 0.7010(2)
O41_4 O 0.79511(9) 0.22543(10) 0.68503(17)
O30_4 O 0.73972(17) 0.7396(2) 0.5846(2)
H51_4 H 0.7157 0.7318 0.5622
H52_4 H 0.7594 0.7446 0.5505
O35_4 O 0.77531(11) 0.69651(10) 0.7010(2)
O40_4 O 0.79511(9) 0.77457(10) 0.68503(17)
Cu3_3 Cu 0.03912(2) 0.0000 0.5000
O5_5 O 0.10197(14) 0.0000 0.5000
H26_5 H 0.1131(13) 0.0225(7) 0.5000
O37_3 O 0.03271(6) 0.04046(7) 0.43316(14)
O39_2 O 0.03271(6) 0.04046(7) 0.56684(14)
Cu1_2 Cu -0.0000 0.53850(3) -0.0000
O1_3 O 0.0000 0.60218(17) -0.0000
H25_3 H -0.0000 0.608(2) 0.0403(10)
Cu7_2 Cu 0.0000 0.46150(3) -0.0000
O31_3 O 0.04199(10) 0.53323(8) 0.06640(17)
Cu1_3 Cu 0.0000 0.53850(3) 1.0000
Cu3_4 Cu 0.03912(2) 1.0000 0.5000
Cl2_3 Cl 0.0000 0.80002(5) 0.74895(11)
O1_4 O 0.0000 0.60218(17) 1.0000
O5_6 O 0.10197(14) 1.0000 0.5000
O6_2 O 0.03271(6) 0.95954(7) 0.56684(14)
C4_3 C 0.0000 0.91152(14) 0.6305(3)
C12_3 C 0.0000 0.84431(15) 0.7058(3)
C13_3 C -0.0000 0.94695(13) 0.5839(3)
H13_3 H 0.0000 0.608(2) 0.9597(10)
H14_5 H 0.1131(13) 0.9775(7) 0.5000
C34_3 C 0.03565(9) 0.89521(11) 0.6504(2)
H20_3 H 0.0592 0.9072 0.6386
C35_3 C 0.07521(10) 0.84177(12) 0.7023(2)
C36_3 C 0.03625(10) 0.86021(11) 0.6887(2)
C37_3 C 0.18579(10) 0.78577(12) 0.7339(2)
C38_3 C 0.08789(12) 0.83399(15) 0.7633(2)
H21_3 H 0.0718 0.8407 0.7984
C39_3 C 0.14761(9) 0.80631(10) 0.7224(2)
C40_3 C 0.13523(12) 0.81428(15) 0.6607(2)
H22_3 H 0.1514 0.8080 0.6254
C41_3 C 0.12406(12) 0.81638(14) 0.7762(2)
H23_3 H 0.1322 0.8115 0.8189
C42_3 C 0.09893(12) 0.83165(14) 0.6491(2)
H24_3 H 0.0905 0.8365 0.6065
Cl3_5 Cl 0.20001(5) 0.5000 0.74977(11)
Cl4_3 Cl 0.0000 0.19998(5) 0.74895(11)
O16_2 O 0.04199(10) 0.46677(8) 0.93360(17)
O17_3 O 0.21770(11) 0.29532(11) 0.8094(2)
C43_3 C 0.21459(13) 0.31308(14) 0.7603(4)
O21_3 O 0.19660(8) 0.21832(9) 0.79304(16)
C44_5 C 0.08950(17) 0.5000 0.8692(3)
C45_3 C 0.10547(12) 0.46468(10) 0.8523(3)
H27_3 H 0.0944 0.4413 0.8669
C46_3 C 0.0000 0.08848(14) 0.6305(3)
C47_5 C 0.05404(17) 0.5000 0.9151(4)
C48_3 C 0.03565(9) 0.10479(11) 0.6504(2)
H28_3 H 0.0592 0.0928 0.6386
C49_3 C 0.19448(14) 0.35198(13) 0.7760(3)
C50_3 C 0.15806(15) 0.42544(12) 0.7949(3)
C51_3 C 0.07521(10) 0.15823(12) 0.7023(2)
C52_5 C 0.1557(2) 0.5000 0.7934(4)
C53_3 C 0.14038(14) 0.46445(11) 0.8109(2)
C54_3 C 0.0000 0.15569(15) 0.7058(3)
C55_3 C -0.0000 0.05305(13) 0.5839(3)
C56_3 C 0.03625(10) 0.13979(11) 0.6887(2)
C57_3 C 0.18567(19) 0.36462(14) 0.8406(3)
H29_3 H 0.1913 0.3484 0.8762
C58_3 C 0.16828(18) 0.40198(13) 0.8508(3)
H32_3 H 0.1636 0.4112 0.8930
C59_3 C 0.16569(16) 0.41224(13) 0.7352(3)
H33_3 H 0.1586 0.4266 0.6983
C60_3 C 0.18579(10) 0.21423(12) 0.7339(2)
C61_3 C 0.18465(18) 0.37620(17) 0.7296(6)
H34_3 H 0.1911 0.3684 0.6873
C62_3 C 0.08789(12) 0.16601(15) 0.7633(2)
H35_3 H 0.0718 0.1593 0.7984
C63_3 C 0.14761(9) 0.19369(10) 0.7224(2)
C64_3 C 0.13523(12) 0.18572(15) 0.6607(2)
H36_3 H 0.1514 0.1920 0.6254
C65_3 C 0.12406(12) 0.18362(14) 0.7762(2)
H37_3 H 0.1322 0.1885 0.8189
C66_3 C 0.09893(12) 0.16835(14) 0.6491(2)
H38_3 H 0.0905 0.1635 0.6065
O23_2 O 0.04199(10) 0.53323(8) 0.93360(17)
C67_3 C 0.21459(13) 0.68692(14) 0.7603(4)
C68_3 C 0.10547(12) 0.53532(10) 0.8523(3)
H39_3 H 0.0944 0.5587 0.8669
C69_3 C 0.19448(14) 0.64802(13) 0.7760(3)
C70_3 C 0.15806(15) 0.57456(12) 0.7949(3)
C71_3 C 0.14038(14) 0.53555(11) 0.8109(2)
C72_3 C 0.18567(19) 0.63538(14) 0.8406(3)
H40_3 H 0.1913 0.6516 0.8762
C73_3 C 0.16828(18) 0.59802(13) 0.8508(3)
H41_3 H 0.1636 0.5888 0.8930
C74_3 C 0.16569(16) 0.58776(13) 0.7352(3)
H42_3 H 0.1586 0.5734 0.6983
C75_3 C 0.18465(18) 0.62380(17) 0.7296(6)
H43_3 H 0.1911 0.6316 0.6873
Cu7_3 Cu 0.0000 0.46150(3) 1.0000
O38_3 O 0.03271(6) 0.95954(7) 0.43316(14)
Cu14_3 Cu 0.96088(2) 0.0000 0.5000
Cu1_4 Cu 1.0000 0.53850(3) -0.0000
O1_5 O 1.0000 0.60218(17) -0.0000
H25_4 H 1.0000 0.608(2) 0.0403(10)
Cu7_4 Cu 1.0000 0.46150(3) -0.0000
O32_3 O 0.95801(10) 0.53323(8) 0.06640(17)
Cu1_5 Cu 1.0000 0.53850(3) 1.0000
Cl1_5 Cl 0.79999(5) 0.5000 0.74977(11)
Cl2_4 Cl 1.0000 0.80002(5) 0.74895(11)
O1_6 O 1.0000 0.60218(17) 1.0000
O2_2 O 0.95801(10) 0.53323(8) 0.93360(17)
O3_3 O 0.78230(11) 0.70468(11) 0.8094(2)
C1_3 C 0.78541(13) 0.68692(14) 0.7603(4)
O8_3 O 0.80340(8) 0.78168(9) 0.79304(16)
C2_5 C 0.91050(17) 0.5000 0.8692(3)
C3_3 C 0.89453(12) 0.53532(10) 0.8523(3)
H1_3 H 0.9056 0.5587 0.8669
C4_4 C 1.0000 0.91152(14) 0.6305(3)
C5_5 C 0.94596(17) 0.5000 0.9151(4)
C6_3 C 0.96435(9) 0.89521(11) 0.6504(2)
H2_3 H 0.9408 0.9072 0.6386
C7_3 C 0.80552(14) 0.64802(13) 0.7760(3)
C8_3 C 0.84194(15) 0.57456(12) 0.7949(3)
C9_3 C 0.92479(10) 0.84177(12) 0.7023(2)
C10_5 C 0.8443(2) 0.5000 0.7934(4)
C11_3 C 0.85962(14) 0.53555(11) 0.8109(2)
C12_4 C 1.0000 0.84431(15) 0.7058(3)
C13_4 C 1.0000 0.94695(13) 0.5839(3)
C14_3 C 0.96375(10) 0.86021(11) 0.6887(2)
C15_3 C 0.81433(19) 0.63538(14) 0.8406(3)
H3_3 H 0.8087 0.6516 0.8762
C16_3 C 0.83172(18) 0.59802(13) 0.8508(3)
H6_3 H 0.8364 0.5888 0.8930
C17_3 C 0.83431(16) 0.58776(13) 0.7352(3)
H7_3 H 0.8414 0.5734 0.6983
C18_3 C 0.81421(10) 0.78577(12) 0.7339(2)
C19_3 C 0.81535(18) 0.62380(17) 0.7296(6)
H8_3 H 0.8089 0.6316 0.6873
C20_3 C 0.91211(12) 0.83399(15) 0.7633(2)
H9_3 H 0.9282 0.8407 0.7984
C21_3 C 0.85239(9) 0.80631(10) 0.7224(2)
C22_3 C 0.86477(12) 0.81428(15) 0.6607(2)
H10_3 H 0.8486 0.8080 0.6254
C23_3 C 0.87594(12) 0.81638(14) 0.7762(2)
H11_3 H 0.8678 0.8115 0.8189
C24_3 C 0.90107(12) 0.83165(14) 0.6491(2)
H12_3 H 0.9095 0.8365 0.6065
H13_4 H 1.0000 0.608(2) 0.9597(10)
O10_2 O 0.95801(10) 0.46677(8) 0.93360(17)
C25_3 C 0.78541(13) 0.31308(14) 0.7603(4)
C26_3 C 0.89453(12) 0.46468(10) 0.8523(3)
H15_3 H 0.9056 0.4413 0.8669
C27_3 C 0.80552(14) 0.35198(13) 0.7760(3)
C28_3 C 0.84194(15) 0.42544(12) 0.7949(3)
C29_3 C 0.85962(14) 0.46445(11) 0.8109(2)
C30_3 C 0.81433(19) 0.36462(14) 0.8406(3)
H16_3 H 0.8087 0.3484 0.8762
C31_3 C 0.83172(18) 0.40198(13) 0.8508(3)
H17_3 H 0.8364 0.4112 0.8930
C32_3 C 0.83431(16) 0.41224(13) 0.7352(3)
H18_3 H 0.8414 0.4266 0.6983
C33_3 C 0.81535(18) 0.37620(17) 0.7296(6)
H19_3 H 0.8089 0.3684 0.6873
O13_2 O 0.96729(6) 0.95954(7) 0.56684(14)
Cl4_4 Cl 1.0000 0.19998(5) 0.74895(11)
O19_2 O 0.96729(6) 0.04046(7) 0.56684(14)
C46_4 C 1.0000 0.08848(14) 0.6305(3)
C54_4 C 1.0000 0.15569(15) 0.7058(3)
C55_4 C 1.0000 0.05305(13) 0.5839(3)
C76_3 C 0.96435(9) 0.10479(11) 0.6504(2)
H44_3 H 0.9408 0.0928 0.6386
C77_3 C 0.92479(10) 0.15823(12) 0.7023(2)
C78_3 C 0.96375(10) 0.13979(11) 0.6887(2)
C79_3 C 0.81421(10) 0.21423(12) 0.7339(2)
C80_3 C 0.91211(12) 0.16601(15) 0.7633(2)
H45_3 H 0.9282 0.1593 0.7984
C81_3 C 0.85239(9) 0.19369(10) 0.7224(2)
C82_3 C 0.86477(12) 0.18572(15) 0.6607(2)
H46_3 H 0.8486 0.1920 0.6254
C83_3 C 0.87594(12) 0.18362(14) 0.7762(2)
H47_3 H 0.8678 0.1885 0.8189
C84_3 C 0.90107(12) 0.16835(14) 0.6491(2)
H48_3 H 0.9095 0.1635 0.6065
O29_5 O 0.76028(17) 0.7604(2) 0.9154(2)
H49_5 H 0.7843 0.7682 0.9378
H50_5 H 0.7406 0.7554 0.9495
Cu7_5 Cu 1.0000 0.46150(3) 1.0000
Cu14_4 Cu 0.96088(2) 1.0000 0.5000
O1_7 O 0.0000 0.39782(17) -0.0000
H25_5 H 0.0000 0.392(2) 0.0403(10)
O32_4 O 0.04199(10) 0.46677(8) 0.06640(17)
O1_8 O 0.0000 0.39782(17) 1.0000
H13_5 H -0.0000 0.392(2) 0.9597(10)
O29_6 O 0.23972(17) 0.2396(2) 0.9154(2)
H49_6 H 0.2157 0.2318 0.9378
H50_6 H 0.2594 0.2446 0.9495
O1_9 O 1.0000 0.39782(17) -0.0000
H25_6 H 1.0000 0.392(2) 0.0403(10)
O31_4 O 0.95801(10) 0.46677(8) 0.06640(17)
O1_10 O 1.0000 0.39782(17) 1.0000
O5_7 O 0.89803(14) 0.0000 0.5000
H13_6 H 1.0000 0.392(2) 0.9597(10)
H14_6 H 0.8869(13) 0.0225(7) 0.5000
O38_4 O 0.96729(6) 0.04046(7) 0.43316(14)
O5_8 O 0.89803(14) 1.0000 0.5000
H26_6 H 0.8869(13) 0.9775(7) 0.5000
O37_4 O 0.96729(6) 0.95954(7) 0.43316(14)
Cl2_5 Cl 0.0000 0.19998(5) 0.25105(11)
C4_5 C 0.0000 0.08848(14) 0.3695(3)
C12_5 C 0.0000 0.15569(15) 0.2942(3)
C13_5 C -0.0000 0.05305(13) 0.4161(3)
C34_4 C 0.03565(9) 0.10479(11) 0.3496(2)
H20_4 H 0.0592 0.0928 0.3614
C35_4 C 0.07521(10) 0.15823(12) 0.2977(2)
C36_4 C 0.03625(10) 0.13979(11) 0.3113(2)
C37_4 C 0.18579(10) 0.21423(12) 0.2661(2)
C38_4 C 0.08789(12) 0.16601(15) 0.2367(2)
H21_4 H 0.0718 0.1593 0.2016
C39_4 C 0.14761(9) 0.19369(10) 0.2776(2)
C40_4 C 0.13523(12) 0.18572(15) 0.3393(2)
H22_4 H 0.1514 0.1920 0.3746
C41_4 C 0.12406(12) 0.18362(14) 0.2238(2)
H23_4 H 0.1322 0.1885 0.1811
C42_4 C 0.09893(12) 0.16835(14) 0.3509(2)
H24_4 H 0.0905 0.1635 0.3935
Cl3_6 Cl 0.20001(5) 0.5000 0.25023(11)
Cl4_5 Cl 0.0000 0.80002(5) 0.25105(11)
O17_4 O 0.21770(11) 0.70468(11) 0.1906(2)
C43_4 C 0.21459(13) 0.68692(14) 0.2397(4)
O21_4 O 0.19660(8) 0.78168(9) 0.20696(16)
C44_6 C 0.08950(17) 0.5000 0.1308(3)
C45_4 C 0.10547(12) 0.53532(10) 0.1477(3)
H27_4 H 0.0944 0.5587 0.1331
C46_5 C -0.0000 0.91152(14) 0.3695(3)
C47_6 C 0.05404(17) 0.5000 0.0849(4)
C48_4 C 0.03565(9) 0.89521(11) 0.3496(2)
H28_4 H 0.0592 0.9072 0.3614
C49_4 C 0.19448(14) 0.64802(13) 0.2240(3)
C50_4 C 0.15806(15) 0.57456(12) 0.2051(3)
C51_4 C 0.07521(10) 0.84177(12) 0.2977(2)
C52_6 C 0.1557(2) 0.5000 0.2066(4)
C53_4 C 0.14038(14) 0.53555(11) 0.1891(2)
C54_5 C 0.0000 0.84431(15) 0.2942(3)
C55_5 C -0.0000 0.94695(13) 0.4161(3)
C56_4 C 0.03625(10) 0.86021(11) 0.3113(2)
C57_4 C 0.18567(19) 0.63538(14) 0.1594(3)
H29_4 H 0.1913 0.6516 0.1238
C58_4 C 0.16828(18) 0.59802(13) 0.1492(3)
H32_4 H 0.1636 0.5888 0.1070
C59_4 C 0.16569(16) 0.58776(13) 0.2648(3)
H33_4 H 0.1586 0.5734 0.3017
C60_4 C 0.18579(10) 0.78577(12) 0.2661(2)
C61_4 C 0.18465(18) 0.62380(17) 0.2704(6)
H34_4 H 0.1911 0.6316 0.3127
C62_4 C 0.08789(12) 0.83399(15) 0.2367(2)
H35_4 H 0.0718 0.8407 0.2016
C63_4 C 0.14761(9) 0.80631(10) 0.2776(2)
C64_4 C 0.13523(12) 0.81428(15) 0.3393(2)
H36_4 H 0.1514 0.8080 0.3746
C65_4 C 0.12406(12) 0.81638(14) 0.2238(2)
H37_4 H 0.1322 0.8115 0.1811
C66_4 C 0.09893(12) 0.83165(14) 0.3509(2)
H38_4 H 0.0905 0.8365 0.3935
C67_4 C 0.21459(13) 0.31308(14) 0.2397(4)
C68_4 C 0.10547(12) 0.46468(10) 0.1477(3)
H39_4 H 0.0944 0.4413 0.1331
C69_4 C 0.19448(14) 0.35198(13) 0.2240(3)
C70_4 C 0.15806(15) 0.42544(12) 0.2051(3)
C71_4 C 0.14038(14) 0.46445(11) 0.1891(2)
C72_4 C 0.18567(19) 0.36462(14) 0.1594(3)
H40_4 H 0.1913 0.3484 0.1238
C73_4 C 0.16828(18) 0.40198(13) 0.1492(3)
H41_4 H 0.1636 0.4112 0.1070
C74_4 C 0.16569(16) 0.41224(13) 0.2648(3)
H42_4 H 0.1586 0.4266 0.3017
C75_4 C 0.18465(18) 0.37620(17) 0.2704(6)
H43_4 H 0.1911 0.3684 0.3127
Cl1_6 Cl 0.79999(5) 0.5000 0.25023(11)
Cl2_6 Cl 1.0000 0.19998(5) 0.25105(11)
O3_4 O 0.78230(11) 0.29532(11) 0.1906(2)
C1_4 C 0.78541(13) 0.31308(14) 0.2397(4)
O8_4 O 0.80340(8) 0.21832(9) 0.20696(16)
C2_6 C 0.91050(17) 0.5000 0.1308(3)
C3_4 C 0.89453(12) 0.46468(10) 0.1477(3)
H1_4 H 0.9056 0.4413 0.1331
C4_6 C 1.0000 0.08848(14) 0.3695(3)
C5_6 C 0.94596(17) 0.5000 0.0849(4)
C6_4 C 0.96435(9) 0.10479(11) 0.3496(2)
H2_4 H 0.9408 0.0928 0.3614
C7_4 C 0.80552(14) 0.35198(13) 0.2240(3)
C8_4 C 0.84194(15) 0.42544(12) 0.2051(3)
C9_4 C 0.92479(10) 0.15823(12) 0.2977(2)
C10_6 C 0.8443(2) 0.5000 0.2066(4)
C11_4 C 0.85962(14) 0.46445(11) 0.1891(2)
C12_6 C 1.0000 0.15569(15) 0.2942(3)
C13_6 C 1.0000 0.05305(13) 0.4161(3)
C14_4 C 0.96375(10) 0.13979(11) 0.3113(2)
C15_4 C 0.81433(19) 0.36462(14) 0.1594(3)
H3_4 H 0.8087 0.3484 0.1238
C16_4 C 0.83172(18) 0.40198(13) 0.1492(3)
H6_4 H 0.8364 0.4112 0.1070
C17_4 C 0.83431(16) 0.41224(13) 0.2648(3)
H7_4 H 0.8414 0.4266 0.3017
C18_4 C 0.81421(10) 0.21423(12) 0.2661(2)
C19_4 C 0.81535(18) 0.37620(17) 0.2704(6)
H8_4 H 0.8089 0.3684 0.3127
C20_4 C 0.91211(12) 0.16601(15) 0.2367(2)
H9_4 H 0.9282 0.1593 0.2016
C21_4 C 0.85239(9) 0.19369(10) 0.2776(2)
C22_4 C 0.86477(12) 0.18572(15) 0.3393(2)
H10_4 H 0.8486 0.1920 0.3746
C23_4 C 0.87594(12) 0.18362(14) 0.2238(2)
H11_4 H 0.8678 0.1885 0.1811
C24_4 C 0.90107(12) 0.16835(14) 0.3509(2)
H12_4 H 0.9095 0.1635 0.3935
C25_4 C 0.78541(13) 0.68692(14) 0.2397(4)
C26_4 C 0.89453(12) 0.53532(10) 0.1477(3)
H15_4 H 0.9056 0.5587 0.1331
C27_4 C 0.80552(14) 0.64802(13) 0.2240(3)
C28_4 C 0.84194(15) 0.57456(12) 0.2051(3)
C29_4 C 0.85962(14) 0.53555(11) 0.1891(2)
C30_4 C 0.81433(19) 0.63538(14) 0.1594(3)
H16_4 H 0.8087 0.6516 0.1238
C31_4 C 0.83172(18) 0.59802(13) 0.1492(3)
H17_4 H 0.8364 0.5888 0.1070
C32_4 C 0.83431(16) 0.58776(13) 0.2648(3)
H18_4 H 0.8414 0.5734 0.3017
C33_4 C 0.81535(18) 0.62380(17) 0.2704(6)
H19_4 H 0.8089 0.6316 0.3127
Cl4_6 Cl 1.0000 0.80002(5) 0.25105(11)
C46_6 C 1.0000 0.91152(14) 0.3695(3)
C54_6 C 1.0000 0.84431(15) 0.2942(3)
C55_6 C 1.0000 0.94695(13) 0.4161(3)
C76_4 C 0.96435(9) 0.89521(11) 0.3496(2)
H44_4 H 0.9408 0.9072 0.3614
C77_4 C 0.92479(10) 0.84177(12) 0.2977(2)
C78_4 C 0.96375(10) 0.86021(11) 0.3113(2)
C79_4 C 0.81421(10) 0.78577(12) 0.2661(2)
C80_4 C 0.91211(12) 0.83399(15) 0.2367(2)
H45_4 H 0.9282 0.8407 0.2016
C81_4 C 0.85239(9) 0.80631(10) 0.2776(2)
C82_4 C 0.86477(12) 0.81428(15) 0.3393(2)
H46_4 H 0.8486 0.8080 0.3746
C83_4 C 0.87594(12) 0.81638(14) 0.2238(2)
H47_4 H 0.8678 0.8115 0.1811
C84_4 C 0.90107(12) 0.83165(14) 0.3509(2)
H48_4 H 0.9095 0.8365 0.3935
O29_7 O 0.76028(17) 0.2396(2) 0.0846(2)
H49_7 H 0.7843 0.2318 0.0622
H50_7 H 0.7406 0.2446 0.0505
O29_8 O 0.23972(17) 0.7604(2) 0.0846(2)
H49_8 H 0.2157 0.7682 0.0622
H50_8 H 0.2594 0.7554 0.0505
loop_
_geom_bond_atom_site_label_1
_geom_bond_atom_site_label_2
_geom_bond_site_symmetry_1
_geom_bond_site_symmetry_2
Cu1 O1 1_555 1_555
Cu2 O4 1_555 1_555
Cu3 O5 1_555 1_555
Cl1 C10 1_555 1_555
Cl2 C12 1_555 1_555
O1 H13 1_555 1_555
O2 Cu1 1_555 1_555
O3 C1 1_555 1_555
O4 C1 1_555 1_555
C1 C7 1_555 1_555
O5 H14 1_555 1_555
O6 Cu3 1_555 1_555
O7 Cu2 1_555 1_555
O8 C18 1_555 1_555
C2 C3 1_555 1_555
C3 H1 1_555 1_555
C4 C6 1_555 1_555
C5 O2 1_555 1_555
C6 H2 1_555 1_555
C7 C15 1_555 1_555
C8 C11 1_555 1_555
C9 C14 1_555 1_555
C10 C11 1_555 1_555
C11 C3 1_555 1_555
C12 C14 1_555 1_555
C13 O6 1_555 1_555
C14 C6 1_555 1_555
C15 H3 1_555 1_555
O9 Cu2 1_555 1_555
H4 O9 1_555 1_555
H5 O9 1_555 1_555
C16 C8 1_555 1_555
H6 C16 1_555 1_555
C17 C8 1_555 1_555
H7 C17 1_555 1_555
C18 O7 1_555 1_555
C19 C7 1_555 1_555
H8 C19 1_555 1_555
C20 C9 1_555 1_555
H9 C20 1_555 1_555
C21 C18 1_555 1_555
C22 C21 1_555 1_555
H10 C22 1_555 1_555
C23 C20 1_555 1_555
H11 C23 1_555 1_555
C24 C9 1_555 1_555
H12 C24 1_555 1_555
O13 C13 1_555 1_555
O14 C37 1_555 1_555
O15 C37 1_555 1_555
C34 C4 1_555 1_555
H20 C34 1_555 1_555
C35 C36 1_555 1_555
C36 C12 1_555 1_555
C37 C39 1_555 1_555
C38 C35 1_555 1_555
H21 C38 1_555 1_555
C39 C40 1_555 1_555
C40 H22 1_555 1_555
C41 C38 1_555 1_555
H23 C41 1_555 1_555
C42 C35 1_555 1_555
H24 C42 1_555 1_555
H25 O1 1_555 1_555
H26 O5 1_555 1_555
Cl3 C52 1_555 1_555
C47 C44 1_555 1_555
O23 Cu1 1_555 1_555
O24 C67 1_555 1_555
O25 C67 1_555 1_555
C67 C69 1_555 1_555
C68 C44 1_555 1_555
H39 C68 1_555 1_555
C69 C72 1_555 1_555
C70 C71 1_555 1_555
C71 C52 1_555 1_555
C72 H40 1_555 1_555
C73 C70 1_555 1_555
H41 C73 1_555 1_555
C74 C70 1_555 1_555
H42 C74 1_555 1_555
C75 C69 1_555 1_555
H43 C75 1_555 1_555
Cu5 O3 1_555 1_555
O29 Cu5 1_555 1_555
H49 O29 1_555 1_555
H50 O29 1_555 1_555
Cu8 O15 1_555 1_555
Cu9 O14 1_555 1_555
Cu14 O13 1_555 1_555
O31 Cu1 1_555 1_555
O32 Cu1 1_555 1_555
O33 Cu2 1_555 1_555
O36 Cu5 1_555 1_555
O39 Cu3 1_555 1_555
O41 Cu5 1_555 1_555
O42 Cu2 1_555 1_555
O8 Cu5 1_555 1_555
C2 C5 1_555 1_555
C4 C13 1_555 1_555
C15 C16 1_555 1_555
C17 C19 1_555 1_555
C21 C23 1_555 1_555
C22 C24 1_555 1_555
C34 C36 1_555 1_555
C39 C41 1_555 1_555
C40 C42 1_555 1_555
C47 O23 1_555 1_555
O24 Cu8 1_555 1_555
O25 Cu9 1_555 1_555
C68 C71 1_555 1_555
C72 C73 1_555 1_555
C74 C75 1_555 1_555
Cu3_2 O5_2 1_555 1_555
O5_2 H14_2 1_555 1_555
H26_2 O5_2 1_555 1_555
O37 Cu3_2 1_555 1_555
O38 Cu3_2 1_555 1_555
Cl1_2 C10_2 1_555 1_555
O10 C5_2 1_555 1_555
O11 C25 1_555 1_555
O12 C25 1_555 1_555
C25 C27 1_555 1_555
C26 C2_2 1_555 1_555
H15 C26 1_555 1_555
C27 C30 1_555 1_555
C28 C29 1_555 1_555
C29 C10_2 1_555 1_555
C30 H16 1_555 1_555
C31 C28 1_555 1_555
H17 C31 1_555 1_555
C32 C28 1_555 1_555
H18 C32 1_555 1_555
C33 C27 1_555 1_555
H19 C33 1_555 1_555
Cu4 O18 1_555 1_555
Cl3_2 C52_2 1_555 1_555
Cl4 C54 1_555 1_555
O16 C47_2 1_555 1_555
O17 C43 1_555 1_555
O18 C43 1_555 1_555
C43 C49 1_555 1_555
O19 C55 1_555 1_555
O20 Cu4 1_555 1_555
O21 C60 1_555 1_555
C44_2 C45 1_555 1_555
C45 H27 1_555 1_555
C46 C48 1_555 1_555
C47_2 C44_2 1_555 1_555
C48 H28 1_555 1_555
C49 C57 1_555 1_555
C50 C53 1_555 1_555
C51 C56 1_555 1_555
C52_2 C53 1_555 1_555
C53 C45 1_555 1_555
C54 C56 1_555 1_555
C55 C46 1_555 1_555
C56 C48 1_555 1_555
C57 H29 1_555 1_555
O22 Cu4 1_555 1_555
H30 O22 1_555 1_555
H31 O22 1_555 1_555
C58 C50 1_555 1_555
H32 C58 1_555 1_555
C59 C50 1_555 1_555
H33 C59 1_555 1_555
C60 O20 1_555 1_555
C61 C49 1_555 1_555
H34 C61 1_555 1_555
C62 C51 1_555 1_555
H35 C62 1_555 1_555
C63 C60 1_555 1_555
C64 C63 1_555 1_555
H36 C64 1_555 1_555
C65 C62 1_555 1_555
H37 C65 1_555 1_555
C66 C51 1_555 1_555
H38 C66 1_555 1_555
O39 C55 1_555 1_555
O27 C79 1_555 1_555
O28 C79 1_555 1_555
C76 C46 1_555 1_555
H44 C76 1_555 1_555
C77 C78 1_555 1_555
C78 C54 1_555 1_555
C79 C81 1_555 1_555
C80 C77 1_555 1_555
H45 C80 1_555 1_555
C81 C82 1_555 1_555
C82 H46 1_555 1_555
C83 C80 1_555 1_555
H47 C83 1_555 1_555
C84 C77 1_555 1_555
H48 C84 1_555 1_555
Cu6 O11 1_555 1_555
O30 Cu6 1_555 1_555
H51 O30 1_555 1_555
H52 O30 1_555 1_555
Cu7 O10 1_555 1_555
Cu10 O12 1_555 1_555
Cu11 O17 1_555 1_555
Cu14 O19 1_555 1_555
O34 Cu4 1_555 1_555
O35 Cu6 1_555 1_555
O40 Cu6 1_555 1_555
O43 Cu4 1_555 1_555
C2_2 C5_2 1_555 1_555
C26 C29 1_555 1_555
C30 C31 1_555 1_555
C32 C33 1_555 1_555
O16 Cu7 1_555 1_555
O21 Cu11 1_555 1_555
C57 C58 1_555 1_555
C59 C61 1_555 1_555
C63 C65 1_555 1_555
C64 C66 1_555 1_555
O27 Cu10 1_555 1_555
O28 Cu6 1_555 1_555
C76 C78 1_555 1_555
C81 C83 1_555 1_555
C82 C84 1_555 1_555
O30_2 Cu8 1_555 1_555
H51_2 O30_2 1_555 1_555
H52_2 O30_2 1_555 1_555
O35_2 Cu8 1_555 1_555
O40_2 Cu8 1_555 1_555
Cu7 O1_2 1_555 1_555
Cu14 O5_3 1_555 1_555
O1_2 H13_2 1_555 1_555
O5_3 H14_3 1_555 1_555
H25_2 O1_2 1_555 1_555
H26_3 O5_3 1_555 1_555
O29_2 Cu11 1_555 1_555
H49_2 O29_2 1_555 1_555
H50_2 O29_2 1_555 1_555
O31_2 Cu7 1_555 1_555
O32_2 Cu7 1_555 1_555
O36_2 Cu11 1_555 1_555
O41_2 Cu11 1_555 1_555
Cu14_2 O5_4 1_555 1_555
O5_4 H14_4 1_555 1_555
H26_4 O5_4 1_555 1_555
O37_2 Cu14_2 1_555 1_555
O38_2 Cu14_2 1_555 1_555
Cl1_3 C10_3 1_555 1_555
O32 C5_3 1_555 1_555
O11_2 C25_2 1_555 1_555
O12_2 C25_2 1_555 1_555
C25_2 C27_2 1_555 1_555
C26_2 C2_3 1_555 1_555
H15_2 C26_2 1_555 1_555
C27_2 C30_2 1_555 1_555
C28_2 C29_2 1_555 1_555
C29_2 C10_3 1_555 1_555
C30_2 H16_2 1_555 1_555
C31_2 C28_2 1_555 1_555
H17_2 C31_2 1_555 1_555
C32_2 C28_2 1_555 1_555
H18_2 C32_2 1_555 1_555
C33_2 C27_2 1_555 1_555
H19_2 C33_2 1_555 1_555
Cu4_2 O18_2 1_555 1_555
Cl3_3 C52_3 1_555 1_555
Cl4_2 C54_2 1_555 1_555
O31 C47_3 1_555 1_555
O17_2 C43_2 1_555 1_555
O18_2 C43_2 1_555 1_555
C43_2 C49_2 1_555 1_555
O37_2 C55_2 1_555 1_555
O20_2 Cu4_2 1_555 1_555
O21_2 C60_2 1_555 1_555
C44_3 C45_2 1_555 1_555
C45_2 H27_2 1_555 1_555
C46_2 C48_2 1_555 1_555
C47_3 C44_3 1_555 1_555
C48_2 H28_2 1_555 1_555
C49_2 C57_2 1_555 1_555
C50_2 C53_2 1_555 1_555
C51_2 C56_2 1_555 1_555
C52_3 C53_2 1_555 1_555
C53_2 C45_2 1_555 1_555
C54_2 C56_2 1_555 1_555
C55_2 C46_2 1_555 1_555
C56_2 C48_2 1_555 1_555
C57_2 H29_2 1_555 1_555
O22_2 Cu4_2 1_555 1_555
H30_2 O22_2 1_555 1_555
H31_2 O22_2 1_555 1_555
C58_2 C50_2 1_555 1_555
H32_2 C58_2 1_555 1_555
C59_2 C50_2 1_555 1_555
H33_2 C59_2 1_555 1_555
C60_2 O20_2 1_555 1_555
C61_2 C49_2 1_555 1_555
H34_2 C61_2 1_555 1_555
C62_2 C51_2 1_555 1_555
H35_2 C62_2 1_555 1_555
C63_2 C60_2 1_555 1_555
C64_2 C63_2 1_555 1_555
H36_2 C64_2 1_555 1_555
C65_2 C62_2 1_555 1_555
H37_2 C65_2 1_555 1_555
C66_2 C51_2 1_555 1_555
H38_2 C66_2 1_555 1_555
O38 C55_2 1_555 1_555
O27_2 C79_2 1_555 1_555
O28_2 C79_2 1_555 1_555
C76_2 C46_2 1_555 1_555
H44_2 C76_2 1_555 1_555
C77_2 C78_2 1_555 1_555
C78_2 C54_2 1_555 1_555
C79_2 C81_2 1_555 1_555
C80_2 C77_2 1_555 1_555
H45_2 C80_2 1_555 1_555
C81_2 C82_2 1_555 1_555
C82_2 H46_2 1_555 1_555
C83_2 C80_2 1_555 1_555
H47_2 C83_2 1_555 1_555
C84_2 C77_2 1_555 1_555
H48_2 C84_2 1_555 1_555
Cu6_2 O11_2 1_555 1_555
O30_3 Cu6_2 1_555 1_555
H51_3 O30_3 1_555 1_555
H52_3 O30_3 1_555 1_555
Cu10_2 O12_2 1_555 1_555
Cu11_2 O17_2 1_555 1_555
O34_2 Cu4_2 1_555 1_555
O35_3 Cu6_2 1_555 1_555
O40_3 Cu6_2 1_555 1_555
O43_2 Cu4_2 1_555 1_555
C2_3 C5_3 1_555 1_555
C26_2 C29_2 1_555 1_555
C30_2 C31_2 1_555 1_555
C32_2 C33_2 1_555 1_555
O21_2 Cu11_2 1_555 1_555
C57_2 C58_2 1_555 1_555
C59_2 C61_2 1_555 1_555
C63_2 C65_2 1_555 1_555
C64_2 C66_2 1_555 1_555
O27_2 Cu10_2 1_555 1_555
O28_2 Cu6_2 1_555 1_555
C76_2 C78_2 1_555 1_555
C81_2 C83_2 1_555 1_555
C82_2 C84_2 1_555 1_555
Cu2_2 O4_2 1_555 1_555
Cl1_4 C10_4 1_555 1_555
Cl2_2 C12_2 1_555 1_555
O3_2 C1_2 1_555 1_555
O4_2 C1_2 1_555 1_555
C1_2 C7_2 1_555 1_555
O7_2 Cu2_2 1_555 1_555
O8_2 C18_2 1_555 1_555
C2_4 C3_2 1_555 1_555
C3_2 H1_2 1_555 1_555
C4_2 C6_2 1_555 1_555
C5_4 O31_2 1_555 1_555
C6_2 H2_2 1_555 1_555
C7_2 C15_2 1_555 1_555
C8_2 C11_2 1_555 1_555
C9_2 C14_2 1_555 1_555
C10_4 C11_2 1_555 1_555
C11_2 C3_2 1_555 1_555
C12_2 C14_2 1_555 1_555
C13_2 O37 1_555 1_555
C14_2 C6_2 1_555 1_555
C15_2 H3_2 1_555 1_555
O9_2 Cu2_2 1_555 1_555
H4_2 O9_2 1_555 1_555
H5_2 O9_2 1_555 1_555
C16_2 C8_2 1_555 1_555
H6_2 C16_2 1_555 1_555
C17_2 C8_2 1_555 1_555
H7_2 C17_2 1_555 1_555
C18_2 O7_2 1_555 1_555
C19_2 C7_2 1_555 1_555
H8_2 C19_2 1_555 1_555
C20_2 C9_2 1_555 1_555
H9_2 C20_2 1_555 1_555
C21_2 C18_2 1_555 1_555
C22_2 C21_2 1_555 1_555
H10_2 C22_2 1_555 1_555
C23_2 C20_2 1_555 1_555
H11_2 C23_2 1_555 1_555
C24_2 C9_2 1_555 1_555
H12_2 C24_2 1_555 1_555
O38_2 C13_2 1_555 1_555
O14_2 C37_2 1_555 1_555
O15_2 C37_2 1_555 1_555
C34_2 C4_2 1_555 1_555
H20_2 C34_2 1_555 1_555
C35_2 C36_2 1_555 1_555
C36_2 C12_2 1_555 1_555
C37_2 C39_2 1_555 1_555
C38_2 C35_2 1_555 1_555
H21_2 C38_2 1_555 1_555
C39_2 C40_2 1_555 1_555
C40_2 H22_2 1_555 1_555
C41_2 C38_2 1_555 1_555
H23_2 C41_2 1_555 1_555
C42_2 C35_2 1_555 1_555
H24_2 C42_2 1_555 1_555
Cl3_4 C52_4 1_555 1_555
C47_4 C44_4 1_555 1_555
O24_2 C67_2 1_555 1_555
O25_2 C67_2 1_555 1_555
C67_2 C69_2 1_555 1_555
C68_2 C44_4 1_555 1_555
H39_2 C68_2 1_555 1_555
C69_2 C72_2 1_555 1_555
C70_2 C71_2 1_555 1_555
C71_2 C52_4 1_555 1_555
C72_2 H40_2 1_555 1_555
C73_2 C70_2 1_555 1_555
H41_2 C73_2 1_555 1_555
C74_2 C70_2 1_555 1_555
H42_2 C74_2 1_555 1_555
C75_2 C69_2 1_555 1_555
H43_2 C75_2 1_555 1_555
Cu5_2 O3_2 1_555 1_555
O29_3 Cu5_2 1_555 1_555
H49_3 O29_3 1_555 1_555
H50_3 O29_3 1_555 1_555
Cu8_2 O15_2 1_555 1_555
Cu9_2 O14_2 1_555 1_555
O33_2 Cu2_2 1_555 1_555
O36_3 Cu5_2 1_555 1_555
O41_3 Cu5_2 1_555 1_555
O42_2 Cu2_2 1_555 1_555
O8_2 Cu5_2 1_555 1_555
C2_4 C5_4 1_555 1_555
C4_2 C13_2 1_555 1_555
C15_2 C16_2 1_555 1_555
C17_2 C19_2 1_555 1_555
C21_2 C23_2 1_555 1_555
C22_2 C24_2 1_555 1_555
C34_2 C36_2 1_555 1_555
C39_2 C41_2 1_555 1_555
C40_2 C42_2 1_555 1_555
C47_4 O32_2 1_555 1_555
O24_2 Cu8_2 1_555 1_555
O25_2 Cu9_2 1_555 1_555
C68_2 C71_2 1_555 1_555
C72_2 C73_2 1_555 1_555
C74_2 C75_2 1_555 1_555
O29_4 Cu11_2 1_555 1_555
H49_4 O29_4 1_555 1_555
H50_4 O29_4 1_555 1_555
O36_4 Cu11_2 1_555 1_555
O41_4 Cu11_2 1_555 1_555
O30_4 Cu8_2 1_555 1_555
H51_4 O30_4 1_555 1_555
H52_4 O30_4 1_555 1_555
O35_4 Cu8_2 1_555 1_555
O40_4 Cu8_2 1_555 1_555
Cu3_3 O5_5 1_555 1_555
H26_5 O5_5 1_555 1_555
O37_3 Cu3_3 1_555 1_555
O39_2 Cu3_3 1_555 1_555
Cu1_2 O1_3 1_555 1_555
H25_3 O1_3 1_555 1_555
O31_3 Cu1_2 1_555 1_555
Cu1_3 O1_4 1_555 1_555
Cu3_4 O5_6 1_555 1_555
Cl2_3 C12_3 1_555 1_555
O1_4 H13_3 1_555 1_555
O5_6 H14_5 1_555 1_555
O6_2 Cu3_4 1_555 1_555
C13_3 O6_2 1_555 1_555
O41_3 C37_3 1_555 1_555
O42_2 C37_3 1_555 1_555
C34_3 C4_3 1_555 1_555
H20_3 C34_3 1_555 1_555
C35_3 C36_3 1_555 1_555
C36_3 C12_3 1_555 1_555
C37_3 C39_3 1_555 1_555
C38_3 C35_3 1_555 1_555
H21_3 C38_3 1_555 1_555
C39_3 C40_3 1_555 1_555
C40_3 H22_3 1_555 1_555
C41_3 C38_3 1_555 1_555
H23_3 C41_3 1_555 1_555
C42_3 C35_3 1_555 1_555
H24_3 C42_3 1_555 1_555
Cl3_5 C52_5 1_555 1_555
Cl4_3 C54_3 1_555 1_555
O16_2 C47_5 1_555 1_555
O17_3 C43_3 1_555 1_555
O35_3 C43_3 1_555 1_555
C43_3 C49_3 1_555 1_555
O21_3 C60_3 1_555 1_555
C44_5 C45_3 1_555 1_555
C45_3 H27_3 1_555 1_555
C46_3 C48_3 1_555 1_555
C47_5 C44_5 1_555 1_555
C48_3 H28_3 1_555 1_555
C49_3 C57_3 1_555 1_555
C50_3 C53_3 1_555 1_555
C51_3 C56_3 1_555 1_555
C52_5 C53_3 1_555 1_555
C53_3 C45_3 1_555 1_555
C54_3 C56_3 1_555 1_555
C55_3 C46_3 1_555 1_555
C56_3 C48_3 1_555 1_555
C57_3 H29_3 1_555 1_555
C58_3 C50_3 1_555 1_555
H32_3 C58_3 1_555 1_555
C59_3 C50_3 1_555 1_555
H33_3 C59_3 1_555 1_555
C60_3 O40_3 1_555 1_555
C61_3 C49_3 1_555 1_555
H34_3 C61_3 1_555 1_555
C62_3 C51_3 1_555 1_555
H35_3 C62_3 1_555 1_555
C63_3 C60_3 1_555 1_555
C64_3 C63_3 1_555 1_555
H36_3 C64_3 1_555 1_555
C65_3 C62_3 1_555 1_555
H37_3 C65_3 1_555 1_555
C66_3 C51_3 1_555 1_555
H38_3 C66_3 1_555 1_555
O23_2 Cu1_3 1_555 1_555
O33_2 C67_3 1_555 1_555
O36_3 C67_3 1_555 1_555
C67_3 C69_3 1_555 1_555
C68_3 C44_5 1_555 1_555
H39_3 C68_3 1_555 1_555
C69_3 C72_3 1_555 1_555
C70_3 C71_3 1_555 1_555
C71_3 C52_5 1_555 1_555
C72_3 H40_3 1_555 1_555
C73_3 C70_3 1_555 1_555
H41_3 C73_3 1_555 1_555
C74_3 C70_3 1_555 1_555
H42_3 C74_3 1_555 1_555
C75_3 C69_3 1_555 1_555
H43_3 C75_3 1_555 1_555
O39_2 C55_3 1_555 1_555
Cu10_2 O17_3 1_555 1_555
O38_3 Cu3_4 1_555 1_555
C4_3 C13_3 1_555 1_555
C34_3 C36_3 1_555 1_555
C39_3 C41_3 1_555 1_555
C40_3 C42_3 1_555 1_555
O16_2 Cu7_3 1_555 1_555
O21_3 Cu10_2 1_555 1_555
C47_5 O23_2 1_555 1_555
C57_3 C58_3 1_555 1_555
C59_3 C61_3 1_555 1_555
C63_3 C65_3 1_555 1_555
C64_3 C66_3 1_555 1_555
C68_3 C71_3 1_555 1_555
C72_3 C73_3 1_555 1_555
C74_3 C75_3 1_555 1_555
Cu1_4 O1_5 1_555 1_555
H25_4 O1_5 1_555 1_555
O32_3 Cu1_4 1_555 1_555
Cu1_5 O1_6 1_555 1_555
Cl1_5 C10_5 1_555 1_555
Cl2_4 C12_4 1_555 1_555
O1_6 H13_4 1_555 1_555
O2_2 Cu1_5 1_555 1_555
O3_3 C1_3 1_555 1_555
O35_4 C1_3 1_555 1_555
C1_3 C7_3 1_555 1_555
O8_3 C18_3 1_555 1_555
C2_5 C3_3 1_555 1_555
C3_3 H1_3 1_555 1_555
C4_4 C6_3 1_555 1_555
C5_5 O2_2 1_555 1_555
C6_3 H2_3 1_555 1_555
C7_3 C15_3 1_555 1_555
C8_3 C11_3 1_555 1_555
C9_3 C14_3 1_555 1_555
C10_5 C11_3 1_555 1_555
C11_3 C3_3 1_555 1_555
C12_4 C14_3 1_555 1_555
C14_3 C6_3 1_555 1_555
C15_3 H3_3 1_555 1_555
C16_3 C8_3 1_555 1_555
H6_3 C16_3 1_555 1_555
C17_3 C8_3 1_555 1_555
H7_3 C17_3 1_555 1_555
C18_3 O40_4 1_555 1_555
C19_3 C7_3 1_555 1_555
H8_3 C19_3 1_555 1_555
C20_3 C9_3 1_555 1_555
H9_3 C20_3 1_555 1_555
C21_3 C18_3 1_555 1_555
C22_3 C21_3 1_555 1_555
H10_3 C22_3 1_555 1_555
C23_3 C20_3 1_555 1_555
H11_3 C23_3 1_555 1_555
C24_3 C9_3 1_555 1_555
H12_3 C24_3 1_555 1_555
O10_2 C5_5 1_555 1_555
O34_2 C25_3 1_555 1_555
O36_4 C25_3 1_555 1_555
C25_3 C27_3 1_555 1_555
C26_3 C2_5 1_555 1_555
H15_3 C26_3 1_555 1_555
C27_3 C30_3 1_555 1_555
C28_3 C29_3 1_555 1_555
C29_3 C10_5 1_555 1_555
C30_3 H16_3 1_555 1_555
C31_3 C28_3 1_555 1_555
H17_3 C31_3 1_555 1_555
C32_3 C28_3 1_555 1_555
H18_3 C32_3 1_555 1_555
C33_3 C27_3 1_555 1_555
H19_3 C33_3 1_555 1_555
O13_2 C13_4 1_555 1_555
Cl4_4 C54_4 1_555 1_555
O19_2 C55_4 1_555 1_555
C55_4 C46_4 1_555 1_555
O41_4 C79_3 1_555 1_555
O43_2 C79_3 1_555 1_555
C76_3 C46_4 1_555 1_555
H44_3 C76_3 1_555 1_555
C77_3 C78_3 1_555 1_555
C78_3 C54_4 1_555 1_555
C79_3 C81_3 1_555 1_555
C80_3 C77_3 1_555 1_555
H45_3 C80_3 1_555 1_555
C81_3 C82_3 1_555 1_555
C82_3 H46_3 1_555 1_555
C83_3 C80_3 1_555 1_555
H47_3 C83_3 1_555 1_555
C84_3 C77_3 1_555 1_555
H48_3 C84_3 1_555 1_555
Cu9_2 O3_3 1_555 1_555
O29_5 Cu9_2 1_555 1_555
H49_5 O29_5 1_555 1_555
H50_5 O29_5 1_555 1_555
Cu7_5 O10_2 1_555 1_555
Cu14_3 O19_2 1_555 1_555
Cu14_4 O13_2 1_555 1_555
O8_3 Cu9_2 1_555 1_555
C2_5 C5_5 1_555 1_555
C4_4 C13_4 1_555 1_555
C15_3 C16_3 1_555 1_555
C17_3 C19_3 1_555 1_555
C21_3 C23_3 1_555 1_555
C22_3 C24_3 1_555 1_555
C26_3 C29_3 1_555 1_555
C30_3 C31_3 1_555 1_555
C32_3 C33_3 1_555 1_555
C76_3 C78_3 1_555 1_555
C81_3 C83_3 1_555 1_555
C82_3 C84_3 1_555 1_555
Cu7_2 O1_7 1_555 1_555
H25_5 O1_7 1_555 1_555
O32_4 Cu7_2 1_555 1_555
Cu7_3 O1_8 1_555 1_555
O1_8 H13_5 1_555 1_555
O29_6 Cu10_2 1_555 1_555
H49_6 O29_6 1_555 1_555
H50_6 O29_6 1_555 1_555
Cu7_4 O1_9 1_555 1_555
H25_6 O1_9 1_555 1_555
O31_4 Cu7_4 1_555 1_555
Cu7_5 O1_10 1_555 1_555
Cu14_3 O5_7 1_555 1_555
O1_10 H13_6 1_555 1_555
O5_7 H14_6 1_555 1_555
O38_4 Cu14_3 1_555 1_555
Cu14_4 O5_8 1_555 1_555
H26_6 O5_8 1_555 1_555
O37_4 Cu14_4 1_555 1_555
Cl2_5 C12_5 1_555 1_555
C13_5 O37_3 1_555 1_555
O41 C37_4 1_555 1_555
O42 C37_4 1_555 1_555
C34_4 C4_5 1_555 1_555
H20_4 C34_4 1_555 1_555
C35_4 C36_4 1_555 1_555
C36_4 C12_5 1_555 1_555
C37_4 C39_4 1_555 1_555
C38_4 C35_4 1_555 1_555
H21_4 C38_4 1_555 1_555
C39_4 C40_4 1_555 1_555
C40_4 H22_4 1_555 1_555
C41_4 C38_4 1_555 1_555
H23_4 C41_4 1_555 1_555
C42_4 C35_4 1_555 1_555
H24_4 C42_4 1_555 1_555
Cl3_6 C52_6 1_555 1_555
Cl4_5 C54_5 1_555 1_555
O31_3 C47_6 1_555 1_555
O17_4 C43_4 1_555 1_555
O35 C43_4 1_555 1_555
C43_4 C49_4 1_555 1_555
O21_4 C60_4 1_555 1_555
C44_6 C45_4 1_555 1_555
C45_4 H27_4 1_555 1_555
C46_5 C48_4 1_555 1_555
C47_6 C44_6 1_555 1_555
C48_4 H28_4 1_555 1_555
C49_4 C57_4 1_555 1_555
C50_4 C53_4 1_555 1_555
C51_4 C56_4 1_555 1_555
C52_6 C53_4 1_555 1_555
C53_4 C45_4 1_555 1_555
C54_5 C56_4 1_555 1_555
C55_5 C46_5 1_555 1_555
C56_4 C48_4 1_555 1_555
C57_4 H29_4 1_555 1_555
C58_4 C50_4 1_555 1_555
H32_4 C58_4 1_555 1_555
C59_4 C50_4 1_555 1_555
H33_4 C59_4 1_555 1_555
C60_4 O40 1_555 1_555
C61_4 C49_4 1_555 1_555
H34_4 C61_4 1_555 1_555
C62_4 C51_4 1_555 1_555
H35_4 C62_4 1_555 1_555
C63_4 C60_4 1_555 1_555
C64_4 C63_4 1_555 1_555
H36_4 C64_4 1_555 1_555
C65_4 C62_4 1_555 1_555
H37_4 C65_4 1_555 1_555
C66_4 C51_4 1_555 1_555
H38_4 C66_4 1_555 1_555
O33 C67_4 1_555 1_555
O36 C67_4 1_555 1_555
C67_4 C69_4 1_555 1_555
C68_4 C44_6 1_555 1_555
H39_4 C68_4 1_555 1_555
C69_4 C72_4 1_555 1_555
C70_4 C71_4 1_555 1_555
C71_4 C52_6 1_555 1_555
C72_4 H40_4 1_555 1_555
C73_4 C70_4 1_555 1_555
H41_4 C73_4 1_555 1_555
C74_4 C70_4 1_555 1_555
H42_4 C74_4 1_555 1_555
C75_4 C69_4 1_555 1_555
H43_4 C75_4 1_555 1_555
O38_3 C55_5 1_555 1_555
Cu10 O17_4 1_555 1_555
C4_5 C13_5 1_555 1_555
C34_4 C36_4 1_555 1_555
C39_4 C41_4 1_555 1_555
C40_4 C42_4 1_555 1_555
O21_4 Cu10 1_555 1_555
C47_6 O32_4 1_555 1_555
C57_4 C58_4 1_555 1_555
C59_4 C61_4 1_555 1_555
C63_4 C65_4 1_555 1_555
C64_4 C66_4 1_555 1_555
C68_4 C71_4 1_555 1_555
C72_4 C73_4 1_555 1_555
C74_4 C75_4 1_555 1_555
Cl1_6 C10_6 1_555 1_555
Cl2_6 C12_6 1_555 1_555
O3_4 C1_4 1_555 1_555
O35_2 C1_4 1_555 1_555
C1_4 C7_4 1_555 1_555
O8_4 C18_4 1_555 1_555
C2_6 C3_4 1_555 1_555
C3_4 H1_4 1_555 1_555
C4_6 C6_4 1_555 1_555
C5_6 O31_4 1_555 1_555
C6_4 H2_4 1_555 1_555
C7_4 C15_4 1_555 1_555
C8_4 C11_4 1_555 1_555
C9_4 C14_4 1_555 1_555
C10_6 C11_4 1_555 1_555
C11_4 C3_4 1_555 1_555
C12_6 C14_4 1_555 1_555
C14_4 C6_4 1_555 1_555
C15_4 H3_4 1_555 1_555
C16_4 C8_4 1_555 1_555
H6_4 C16_4 1_555 1_555
C17_4 C8_4 1_555 1_555
H7_4 C17_4 1_555 1_555
C18_4 O40_2 1_555 1_555
C19_4 C7_4 1_555 1_555
H8_4 C19_4 1_555 1_555
C20_4 C9_4 1_555 1_555
H9_4 C20_4 1_555 1_555
C21_4 C18_4 1_555 1_555
C22_4 C21_4 1_555 1_555
H10_4 C22_4 1_555 1_555
C23_4 C20_4 1_555 1_555
H11_4 C23_4 1_555 1_555
C24_4 C9_4 1_555 1_555
H12_4 C24_4 1_555 1_555
O32_3 C5_6 1_555 1_555
O34 C25_4 1_555 1_555
O36_2 C25_4 1_555 1_555
C25_4 C27_4 1_555 1_555
C26_4 C2_6 1_555 1_555
H15_4 C26_4 1_555 1_555
C27_4 C30_4 1_555 1_555
C28_4 C29_4 1_555 1_555
C29_4 C10_6 1_555 1_555
C30_4 H16_4 1_555 1_555
C31_4 C28_4 1_555 1_555
H17_4 C31_4 1_555 1_555
C32_4 C28_4 1_555 1_555
H18_4 C32_4 1_555 1_555
C33_4 C27_4 1_555 1_555
H19_4 C33_4 1_555 1_555
O38_4 C13_6 1_555 1_555
Cl4_6 C54_6 1_555 1_555
O37_4 C55_6 1_555 1_555
C55_6 C46_6 1_555 1_555
O41_2 C79_4 1_555 1_555
O43 C79_4 1_555 1_555
C76_4 C46_6 1_555 1_555
H44_4 C76_4 1_555 1_555
C77_4 C78_4 1_555 1_555
C78_4 C54_6 1_555 1_555
C79_4 C81_4 1_555 1_555
C80_4 C77_4 1_555 1_555
H45_4 C80_4 1_555 1_555
C81_4 C82_4 1_555 1_555
C82_4 H46_4 1_555 1_555
C83_4 C80_4 1_555 1_555
H47_4 C83_4 1_555 1_555
C84_4 C77_4 1_555 1_555
H48_4 C84_4 1_555 1_555
Cu9 O3_4 1_555 1_555
O29_7 Cu9 1_555 1_555
H49_7 O29_7 1_555 1_555
H50_7 O29_7 1_555 1_555
O8_4 Cu9 1_555 1_555
C2_6 C5_6 1_555 1_555
C4_6 C13_6 1_555 1_555
C15_4 C16_4 1_555 1_555
C17_4 C19_4 1_555 1_555
C21_4 C23_4 1_555 1_555
C22_4 C24_4 1_555 1_555
C26_4 C29_4 1_555 1_555
C30_4 C31_4 1_555 1_555
C32_4 C33_4 1_555 1_555
C76_4 C78_4 1_555 1_555
C81_4 C83_4 1_555 1_555
C82_4 C84_4 1_555 1_555
O29_8 Cu10 1_555 1_555
H49_8 O29_8 1_555 1_555
H50_8 O29_8 1_555 1_555

#END
