
###############################################################################
#
# This file contains modified crystal structure data generated from the
# MOF subset of the Cambridge Structural Database (CSD) v543 
# hosted by the Cambridge Crystallographic Data Centre (CCDC).
#
# This work is licensed under the Creative Commons
# Attribution-NonCommercial-ShareAlike 4.0 International License.
# To view a copy of this license, visit
# http://creativecommons.org/licenses/by-nc-sa/4.0/
# or send a letter to
# Creative Commons, PO Box 1866, Mountain View, CA 94042, USA.
#
# CIF created using the CSD Python API on 29 September 2022
# The structure has been converted into the P1 space group
# The structure has a 3D framework
# The original CSD entry SOBTUY is in the monoclinic crystal system
# The framework has been calculated to contain at least 10.0% void space
# The void calculation uses a probe of radius 1.32A, grid spacing 0.4
# H atom positions have been added when not included in the experimental data
# Generated hydrogen atom positions removed from atoms on special positions
#
###############################################################################

data_SOBTUY
_chemical_formula_moiety         '(C160 H160 Cd12 N48 O64 Pd15)n'
_symmetry_cell_setting           triclinic
_symmetry_space_group_name_H-M   'P 1'
_symmetry_Int_Tables_number      1
_space_group_name_Hall           'P 1'
loop_
_symmetry_equiv_pos_site_id
_symmetry_equiv_pos_as_xyz
1 x,y,z
_cell_length_a                   16.520(9)
_cell_length_b                   34.60(1)
_cell_length_c                   9.361(8)
_cell_angle_alpha                90
_cell_angle_beta                 112.40(6)
_cell_angle_gamma                90
_cell_volume                     4946.94
loop_
_atom_site_label
_atom_site_type_symbol
_atom_site_fract_x
_atom_site_fract_y
_atom_site_fract_z
O2 O 0.385(4) 0.144(2) 0.096(7)
O3 O 0.427(3) 0.102(2) 0.003(6)
Pd1 Pd 1.000 -0.0000 0.500
N7 N 0.972(2) 0.055(1) 0.445(4)
C23 C 0.895(3) 0.071(1) 0.321(6)
C24 C 0.828(4) 0.047(2) 0.223(7)
C25 C 0.827(3) 0.010(1) 0.229(5)
C29 C 0.744(3) 0.069(2) 0.131(6)
C30 C 0.700(4) 0.096(2) 0.167(6)
C31 C 0.625(3) 0.118(2) 0.068(6)
C34 C 0.904(3) 0.112(1) 0.308(5)
C35 C 0.980(3) 0.124(1) 0.431(6)
H1 H 0.859597 0.130562 0.218326
H2 H 0.58844 0.139041 0.106078
H12 H 0.723031 0.103036 0.28947
Cd1 Cd 0.500 0.1484(2) 0.750
O1 O 0.452(4) 0.158(2) 0.916(7)
O4 O 0.595(3) 0.199(1) 0.850(6)
N5 N 0.423(4) 0.143(2) 0.999(8)
Pd1_2 Pd 0.000 0.0000 0.000
N7_2 N 0.028(2) 0.055(1) 0.055(4)
C23_2 C 0.105(3) 0.071(1) 0.179(6)
C24_2 C 0.172(4) 0.047(2) 0.277(7)
C25_2 C 0.173(3) 0.010(1) 0.271(5)
C29_2 C 0.256(3) 0.069(2) 0.369(6)
C30_2 C 0.300(4) 0.096(2) 0.333(6)
C31_2 C 0.375(3) 0.118(2) 0.432(6)
N11 N 0.393(3) 0.107(1) 0.592(5)
O13 O 0.548(4) 0.158(2) 0.584(7)
N12 N 0.577(4) 0.143(2) 0.501(8)
O14 O 0.615(4) 0.144(2) 0.404(7)
O15 O 0.573(3) 0.102(2) 0.497(6)
O16 O 0.405(3) 0.199(1) 0.650(6)
N13 N 0.607(3) 0.107(1) 0.908(5)
C32 C 0.351(4) 0.079(2) 0.623(6)
C33 C 0.276(3) 0.059(2) 0.542(6)
C34_2 C 0.096(3) 0.112(1) 0.192(5)
C35_2 C 0.020(3) 0.124(1) 0.069(6)
H1_2 H 0.140403 0.130562 0.281674
H2_2 H 0.41156 0.139041 0.393922
H7 H 0.238613 0.0403006 0.587817
H12_2 H 0.276969 0.103036 0.21053
H15 H 0.382581 0.0688436 0.741548
C32_2 C 0.649(4) 0.079(2) 0.877(6)
C33_2 C 0.724(3) 0.059(2) 0.958(6)
H7_2 H 0.761387 0.0403006 0.912183
H15_2 H 0.617419 0.0688436 0.758452
Pd1_3 Pd 0.000 -0.0000 1.000
Cd2 Cd 0.250 0.75 0.500
C7 C 0.094(4) 0.916(2) 0.151(7)
C16 C 0.137(4) 0.876(2) 0.204(7)
C17 C 0.184(4) 0.851(2) 0.169(6)
C18 C 0.221(4) 0.816(2) 0.235(7)
C19 C 0.158(5) 0.831(3) 0.415(9)
C20 C 0.131(5) 0.868(2) 0.337(10)
O5 O 0.174(3) 0.767(2) 0.689(6)
O6 O 0.199(5) 0.794(2) 0.885(10)
O7 O 0.310(6) 0.789(3) 0.800(10)
O8 O 0.102(3) 0.729(1) 0.397(6)
N4 N 0.205(3) 0.806(1) 0.370(6)
N6 N 0.237(5) 0.790(2) 0.776(10)
Pd1_4 Pd 0.000 1.0000 0.000
N8 N 0.113(3) 0.984(1) 0.170(5)
C26 C 0.139(3) 0.948(2) 0.215(6)
O9 O 0.326(3) 0.733(2) 0.311(6)
N9 N 0.263(5) 0.710(2) 0.224(10)
O10 O 0.301(5) 0.706(2) 0.115(10)
O11 O 0.190(6) 0.711(3) 0.200(10)
O12 O 0.398(3) 0.771(1) 0.603(6)
N10 N 0.295(3) 0.694(1) 0.630(6)
C27 C 0.222(4) 0.949(2) 0.352(7)
C28 C 0.245(4) 0.983(2) 0.378(7)
H3 H 0.256683 0.924072 0.41824
H10 H 0.307214 0.992633 0.464131
H25 H 0.197528 0.858768 0.0675443
H26 H 0.258762 0.797853 0.18802
H27 H 0.139503 0.823648 0.511575
H28 H 0.104779 0.88993 0.39101
N1 N 0.387(3) 0.516(1) 0.830(5)
N2 N 0.472(2) 0.445(1) 0.945(4)
C1 C 0.327(3) 0.490(1) 0.729(5)
C2 C 0.328(4) 0.453(2) 0.723(7)
C3 C 0.395(3) 0.429(1) 0.821(6)
C4 C 0.404(3) 0.388(1) 0.808(5)
C5 C 0.480(3) 0.376(1) 0.931(6)
C6 C 0.521(3) 0.413(2) 0.994(7)
C8 C 0.361(3) 0.552(2) 0.785(6)
C9 C 0.278(4) 0.551(2) 0.648(7)
C10 C 0.255(4) 0.517(2) 0.622(7)
C11 C 0.244(3) 0.431(2) 0.631(6)
C12 C 0.200(4) 0.404(2) 0.667(6)
C13 C 0.125(3) 0.382(2) 0.568(6)
C14 C 0.149(4) 0.421(2) 0.377(6)
C15 C 0.224(3) 0.441(2) 0.458(6)
N3 N 0.107(3) 0.393(1) 0.408(5)
Pd1_5 Pd 0.500 0.5000 1.000
C21 C 0.406(4) 0.584(2) 0.849(7)
Cd3 Cd 0.000 0.3516(2) 0.250
C36 C 0.363(4) 0.624(2) 0.796(7)
C37 C 0.316(4) 0.649(2) 0.831(6)
C38 C 0.369(5) 0.632(2) 0.663(10)
C39 C 0.279(4) 0.684(2) 0.765(7)
C40 C 0.342(5) 0.669(3) 0.585(9)
H8 H 0.302472 0.641232 0.932456
H9 H 0.360497 0.676352 0.488425
H11 H 0.241238 0.702147 0.81198
H16 H 0.395221 0.61007 0.60899
H17 H 0.359597 0.369438 0.718326
H18 H 0.502514 0.346808 0.969415
H19 H 0.243317 0.575928 0.58176
H20 H 0.192786 0.507367 0.535869
H21 H 0.223031 0.396964 0.78947
H22 H 0.0884404 0.360959 0.606078
H23 H 0.117419 0.431156 0.258452
H24 H 0.261387 0.459699 0.412183
O1_2 O 0.048(4) 0.342(2) 0.084(7)
N5_2 N 0.077(4) 0.357(2) 0.001(8)
O16_2 O 0.095(3) 0.301(1) 0.350(6)
C6_2 C 0.021(3) 0.913(2) 0.994(7)
Pd1_6 Pd 0.000 1.0000 1.000
H18_2 H 0.00251364 0.846808 0.969415
Pd1_7 Pd 1.000 0.0000 0.000
C22 C 0.979(3) 0.087(2) 0.006(7)
H6 H 0.997486 0.153192 0.0305848
N1_2 N 0.887(3) 0.016(1) 0.830(5)
C8_2 C 0.861(3) 0.052(2) 0.785(6)
C9_2 C 0.778(4) 0.051(2) 0.648(7)
C10_2 C 0.755(4) 0.017(2) 0.622(7)
Pd1_8 Pd 1.000 -0.0000 1.000
C21_2 C 0.906(4) 0.084(2) 0.849(7)
C36_2 C 0.863(4) 0.124(2) 0.796(7)
C37_2 C 0.816(4) 0.149(2) 0.831(6)
C38_2 C 0.869(5) 0.132(2) 0.663(10)
C39_2 C 0.779(4) 0.184(2) 0.765(7)
C40_2 C 0.842(5) 0.169(3) 0.585(9)
N14 N 0.795(3) 0.194(1) 0.630(6)
Cd4 Cd 0.750 0.25 0.500
H8_2 H 0.802472 0.141232 0.932456
H9_2 H 0.860497 0.176352 0.488425
H11_2 H 0.741238 0.202147 0.81198
H16_2 H 0.895221 0.11007 0.60899
H19_2 H 0.743317 0.0759278 0.58176
H20_2 H 0.692786 0.00736733 0.535869
Cd1_2 Cd 1.000 0.6484(2) 0.750
C7_2 C 0.594(4) 0.416(2) 0.151(7)
C16_2 C 0.637(4) 0.376(2) 0.204(7)
C17_2 C 0.684(4) 0.351(2) 0.169(6)
C18_2 C 0.721(4) 0.316(2) 0.235(7)
C19_2 C 0.658(5) 0.331(3) 0.415(9)
C20_2 C 0.631(5) 0.368(2) 0.337(10)
O1_3 O 0.952(4) 0.658(2) 0.916(7)
O5_2 O 0.674(3) 0.267(2) 0.689(6)
O6_2 O 0.699(5) 0.294(2) 0.885(10)
O7_2 O 0.810(6) 0.289(3) 0.800(10)
O8_2 O 0.602(3) 0.229(1) 0.397(6)
N4_2 N 0.705(3) 0.306(1) 0.370(6)
N5_3 N 0.923(4) 0.643(2) 0.999(8)
N6_2 N 0.737(5) 0.290(2) 0.776(10)
Pd1_9 Pd 0.500 0.5000 0.000
C22_2 C 0.479(3) 0.587(2) 0.006(7)
N7_3 N 0.528(2) 0.555(1) 0.055(4)
C23_3 C 0.605(3) 0.571(1) 0.179(6)
C24_3 C 0.672(4) 0.547(2) 0.277(7)
C25_3 C 0.673(3) 0.510(1) 0.271(5)
N8_2 N 0.613(3) 0.484(1) 0.170(5)
C26_2 C 0.639(3) 0.448(2) 0.215(6)
O9_2 O 0.826(3) 0.233(2) 0.311(6)
N9_2 N 0.763(5) 0.210(2) 0.224(10)
O10_2 O 0.801(5) 0.206(2) 0.115(10)
O11_2 O 0.690(6) 0.211(3) 0.200(10)
O12_2 O 0.898(3) 0.271(1) 0.603(6)
C27_2 C 0.722(4) 0.449(2) 0.352(7)
C28_2 C 0.745(4) 0.483(2) 0.378(7)
C29_3 C 0.756(3) 0.569(2) 0.369(6)
C30_3 C 0.800(4) 0.596(2) 0.333(6)
C31_3 C 0.875(3) 0.618(2) 0.432(6)
N11_2 N 0.893(3) 0.607(1) 0.592(5)
O16_3 O 0.905(3) 0.699(1) 0.650(6)
C32_3 C 0.851(4) 0.579(2) 0.623(6)
C33_3 C 0.776(3) 0.559(2) 0.542(6)
C34_3 C 0.596(3) 0.612(1) 0.192(5)
C35_3 C 0.520(3) 0.624(1) 0.069(6)
H1_3 H 0.640403 0.630562 0.281674
H2_3 H 0.91156 0.639041 0.393922
H3_2 H 0.756683 0.424072 0.41824
H6_2 H 0.497486 0.653192 0.0305848
H7_3 H 0.738613 0.540301 0.587817
H10_2 H 0.807214 0.492633 0.464131
H12_3 H 0.776969 0.603036 0.21053
H15_3 H 0.882581 0.568844 0.741548
H25_2 H 0.697528 0.358768 0.0675443
H26_2 H 0.758762 0.297853 0.18802
H27_2 H 0.639503 0.323648 0.511575
H28_2 H 0.604779 0.38993 0.39101
Pd1_10 Pd 1.000 1.0000 0.000
N2_2 N 0.972(2) 0.945(1) 0.945(4)
C1_2 C 0.827(3) 0.990(1) 0.729(5)
C2_2 C 0.828(4) 0.953(2) 0.723(7)
C3_2 C 0.895(3) 0.929(1) 0.821(6)
C4_2 C 0.904(3) 0.888(1) 0.808(5)
C5_2 C 0.980(3) 0.876(1) 0.931(6)
C11_2 C 0.744(3) 0.931(2) 0.631(6)
C12_2 C 0.700(4) 0.904(2) 0.667(6)
C13_2 C 0.625(3) 0.882(2) 0.568(6)
C14_2 C 0.649(4) 0.921(2) 0.377(6)
C15_2 C 0.724(3) 0.941(2) 0.458(6)
N3_2 N 0.607(3) 0.893(1) 0.408(5)
Pd1_11 Pd 1.000 1.0000 1.000
Cd3_2 Cd 0.500 0.8516(2) 0.250
H17_2 H 0.859597 0.869438 0.718326
H21_2 H 0.723031 0.896964 0.78947
H22_2 H 0.58844 0.860959 0.606078
H23_2 H 0.617419 0.931156 0.258452
H24_2 H 0.761387 0.959699 0.412183
C14_3 C 0.351(4) 0.921(2) 0.123(6)
C15_3 C 0.276(3) 0.941(2) 0.042(6)
N3_3 N 0.393(3) 0.893(1) 0.092(5)
H23_3 H 0.382581 0.931156 0.241548
H24_3 H 0.238613 0.959699 0.0878169
O1_4 O 0.548(4) 0.842(2) 0.084(7)
O4_2 O 0.405(3) 0.801(1) 0.150(6)
N5_4 N 0.577(4) 0.857(2) 0.001(8)
O13_2 O 0.452(4) 0.842(2) 0.416(7)
N12_2 N 0.423(4) 0.857(2) 0.499(8)
O14_2 O 0.385(4) 0.856(2) 0.596(7)
O15_2 O 0.427(3) 0.898(2) 0.503(6)
O16_4 O 0.595(3) 0.801(1) 0.350(6)
Cd1_3 Cd 0.000 0.6484(2) 0.750
O4_3 O 0.095(3) 0.699(1) 0.850(6)
O13_3 O 0.048(4) 0.658(2) 0.584(7)
N12_3 N 0.077(4) 0.643(2) 0.501(8)
O14_3 O 0.115(4) 0.644(2) 0.404(7)
O15_3 O 0.073(3) 0.602(2) 0.497(6)
N13_2 N 0.107(3) 0.607(1) 0.908(5)
N1_3 N 0.113(3) 0.016(1) 0.670(5)
C8_3 C 0.139(3) 0.052(2) 0.715(6)
C9_3 C 0.222(4) 0.051(2) 0.852(7)
C10_3 C 0.245(4) 0.017(2) 0.878(7)
Pd1_12 Pd 0.000 -0.0000 0.500
C21_3 C 0.094(4) 0.084(2) 0.651(7)
C22_3 C 0.021(3) 0.087(2) 0.494(7)
C36_3 C 0.137(4) 0.124(2) 0.704(7)
C37_3 C 0.184(4) 0.149(2) 0.669(6)
C38_3 C 0.131(5) 0.132(2) 0.837(10)
C39_3 C 0.221(4) 0.184(2) 0.735(7)
C40_3 C 0.158(5) 0.169(3) 0.915(9)
N14_2 N 0.205(3) 0.194(1) 0.870(6)
Cd4_2 Cd 0.250 0.25 1.000
H6_3 H 0.00251364 0.153192 0.469415
H8_3 H 0.197528 0.141232 0.567544
H11_3 H 0.258762 0.202147 0.68802
H16_3 H 0.104779 0.11007 0.89101
H19_3 H 0.256683 0.0759278 0.91824
H20_3 H 0.307214 0.00736733 0.964131
O5_3 O 0.326(3) 0.267(2) 0.811(6)
O6_3 O 0.301(5) 0.294(2) 0.615(10)
O7_3 O 0.190(6) 0.289(3) 0.700(10)
N6_3 N 0.263(5) 0.290(2) 0.724(10)
O12_3 O 0.102(3) 0.271(1) 0.897(6)
C32_4 C 0.149(4) 0.579(2) 0.877(6)
C33_4 C 0.224(3) 0.559(2) 0.958(6)
H7_4 H 0.261387 0.540301 0.912183
H15_4 H 0.117419 0.568844 0.758452
H27_3 H 0.360497 0.323648 0.988425
O2_2 O 0.885(4) 0.644(2) 0.096(7)
O3_2 O 0.927(3) 0.602(2) 0.003(6)
Cd3_3 Cd 1.000 0.3516(2) 0.250
Cd2_2 Cd 0.750 0.75 0.000
C6_3 C 0.979(3) 0.913(2) 0.506(7)
C7_3 C 0.906(4) 0.916(2) 0.349(7)
C16_3 C 0.863(4) 0.876(2) 0.296(7)
C17_3 C 0.816(4) 0.851(2) 0.331(6)
C18_3 C 0.779(4) 0.816(2) 0.265(7)
C19_3 C 0.842(5) 0.831(3) 0.085(9)
C20_3 C 0.869(5) 0.868(2) 0.163(10)
O8_3 O 0.898(3) 0.729(1) 0.103(6)
N4_3 N 0.795(3) 0.806(1) 0.130(6)
Pd1_13 Pd 1.000 1.0000 0.500
N8_3 N 0.887(3) 0.984(1) 0.330(5)
C26_3 C 0.861(3) 0.948(2) 0.285(6)
O9_3 O 0.674(3) 0.733(2) 0.189(6)
N9_3 N 0.737(5) 0.710(2) 0.276(10)
O10_3 O 0.699(5) 0.706(2) 0.385(10)
O11_3 O 0.810(6) 0.711(3) 0.300(10)
C27_3 C 0.778(4) 0.949(2) 0.148(7)
C28_3 C 0.755(4) 0.983(2) 0.122(7)
H3_3 H 0.743317 0.924072 0.0817596
H10_3 H 0.692786 0.992633 0.0358691
H18_3 H 0.997486 0.846808 0.530585
H25_3 H 0.802472 0.858768 0.432456
H26_3 H 0.741238 0.797853 0.31198
H28_3 H 0.895221 0.88993 0.10899
C14_4 C 0.851(4) 0.421(2) 0.123(6)
C15_4 C 0.776(3) 0.441(2) 0.042(6)
N3_4 N 0.893(3) 0.393(1) 0.092(5)
H9_3 H 0.639503 0.676352 0.0115748
H23_4 H 0.882581 0.431156 0.241548
H24_4 H 0.738613 0.459699 0.0878169
O4_4 O 0.905(3) 0.301(1) 0.150(6)
O13_4 O 0.952(4) 0.342(2) 0.416(7)
N12_4 N 0.923(4) 0.357(2) 0.499(8)
O14_4 O 0.885(4) 0.356(2) 0.596(7)
O15_4 O 0.927(3) 0.398(2) 0.503(6)
Cd4_3 Cd 0.250 0.25 -0.000
H9_4 H 0.139503 0.176352 0.0115748
Cd2_3 Cd 0.750 0.75 1.000
O5_4 O 0.826(3) 0.767(2) 0.811(6)
O6_4 O 0.801(5) 0.794(2) 0.615(10)
O7_4 O 0.690(6) 0.789(3) 0.700(10)
N6_4 N 0.763(5) 0.790(2) 0.724(10)
O12_4 O 0.602(3) 0.771(1) 0.897(6)
N10_2 N 0.705(3) 0.694(1) 0.870(6)
H27_4 H 0.860497 0.823648 0.988425
N1_4 N 0.613(3) 0.516(1) 0.670(5)
N2_3 N 0.528(2) 0.445(1) 0.555(4)
C1_3 C 0.673(3) 0.490(1) 0.771(5)
C2_3 C 0.672(4) 0.453(2) 0.777(7)
C3_3 C 0.605(3) 0.429(1) 0.679(6)
C4_3 C 0.596(3) 0.388(1) 0.692(5)
C5_3 C 0.520(3) 0.376(1) 0.569(6)
C6_4 C 0.479(3) 0.413(2) 0.506(7)
C7_4 C 0.406(4) 0.416(2) 0.349(7)
C8_4 C 0.639(3) 0.552(2) 0.715(6)
C9_4 C 0.722(4) 0.551(2) 0.852(7)
C10_4 C 0.745(4) 0.517(2) 0.878(7)
C11_3 C 0.756(3) 0.431(2) 0.869(6)
C12_3 C 0.800(4) 0.404(2) 0.833(6)
C13_3 C 0.875(3) 0.382(2) 0.932(6)
C16_4 C 0.363(4) 0.376(2) 0.296(7)
C17_4 C 0.316(4) 0.351(2) 0.331(6)
C18_4 C 0.279(4) 0.316(2) 0.265(7)
C19_4 C 0.342(5) 0.331(3) 0.085(9)
C20_4 C 0.369(5) 0.368(2) 0.163(10)
O8_4 O 0.398(3) 0.229(1) 0.103(6)
N4_4 N 0.295(3) 0.306(1) 0.130(6)
Pd1_14 Pd 0.500 0.5000 0.500
C21_4 C 0.594(4) 0.584(2) 0.651(7)
C22_4 C 0.521(3) 0.587(2) 0.494(7)
N7_4 N 0.472(2) 0.555(1) 0.445(4)
C23_4 C 0.395(3) 0.571(1) 0.321(6)
C24_4 C 0.328(4) 0.547(2) 0.223(7)
C25_4 C 0.327(3) 0.510(1) 0.229(5)
N8_4 N 0.387(3) 0.484(1) 0.330(5)
C26_4 C 0.361(3) 0.448(2) 0.285(6)
O9_4 O 0.174(3) 0.233(2) 0.189(6)
N9_4 N 0.237(5) 0.210(2) 0.276(10)
O10_4 O 0.199(5) 0.206(2) 0.385(10)
O11_4 O 0.310(6) 0.211(3) 0.300(10)
C27_4 C 0.278(4) 0.449(2) 0.148(7)
C28_4 C 0.255(4) 0.483(2) 0.122(7)
C29_4 C 0.244(3) 0.569(2) 0.131(6)
C30_4 C 0.200(4) 0.596(2) 0.167(6)
C31_4 C 0.125(3) 0.618(2) 0.068(6)
C34_4 C 0.404(3) 0.612(1) 0.308(5)
C35_4 C 0.480(3) 0.624(1) 0.431(6)
C36_4 C 0.637(4) 0.624(2) 0.704(7)
C37_4 C 0.684(4) 0.649(2) 0.669(6)
C38_4 C 0.631(5) 0.632(2) 0.837(10)
C39_4 C 0.721(4) 0.684(2) 0.735(7)
C40_4 C 0.658(5) 0.669(3) 0.915(9)
H1_4 H 0.359597 0.630562 0.218326
H2_4 H 0.0884404 0.639041 0.106078
H3_4 H 0.243317 0.424072 0.0817596
H6_4 H 0.502514 0.653192 0.469415
H8_4 H 0.697528 0.641232 0.567544
H10_4 H 0.192786 0.492633 0.0358691
H11_4 H 0.758762 0.702147 0.68802
H12_4 H 0.223031 0.603036 0.28947
H16_4 H 0.604779 0.61007 0.89101
H17_3 H 0.640403 0.369438 0.781674
H18_4 H 0.497486 0.346808 0.530585
H19_4 H 0.756683 0.575928 0.91824
H20_4 H 0.807214 0.507367 0.964131
H21_3 H 0.776969 0.396964 0.71053
H22_3 H 0.91156 0.360959 0.893922
H25_4 H 0.302472 0.358768 0.432456
H26_4 H 0.241238 0.297853 0.31198
H28_4 H 0.395221 0.38993 0.10899
N2_4 N 0.028(2) 0.945(1) 0.555(4)
C1_4 C 0.173(3) 0.990(1) 0.771(5)
C2_4 C 0.172(4) 0.953(2) 0.777(7)
C3_4 C 0.105(3) 0.929(1) 0.679(6)
C4_4 C 0.096(3) 0.888(1) 0.692(5)
C5_4 C 0.020(3) 0.876(1) 0.569(6)
C11_4 C 0.256(3) 0.931(2) 0.869(6)
C12_4 C 0.300(4) 0.904(2) 0.833(6)
C13_4 C 0.375(3) 0.882(2) 0.932(6)
Pd1_15 Pd 0.000 1.0000 0.500
H17_4 H 0.140403 0.869438 0.781674
H21_4 H 0.276969 0.896964 0.71053
H22_4 H 0.41156 0.860959 0.893922
O2_3 O 0.615(4) 0.856(2) 0.904(7)
O3_3 O 0.573(3) 0.898(2) 0.997(6)
O2_4 O 0.115(4) 0.356(2) 0.904(7)
O3_4 O 0.073(3) 0.398(2) 0.997(6)
loop_
_geom_bond_atom_site_label_1
_geom_bond_atom_site_label_2
_geom_bond_site_symmetry_1
_geom_bond_site_symmetry_2
N7 Pd1 1_555 1_555
C23 N7 1_555 1_555
C24 C23 1_555 1_555
C25 C24 1_555 1_555
C29 C24 1_555 1_555
C30 C29 1_555 1_555
C31 C30 1_555 1_555
C34 C23 1_555 1_555
C34 C35 1_555 1_555
C34 H1 1_555 1_555
C31 H2 1_555 1_555
C30 H12 1_555 1_555
Cd1 O1 1_555 1_555
O1 N5 1_555 1_555
O4 Cd1 1_555 1_555
N7_2 Pd1_2 1_555 1_555
C23_2 N7_2 1_555 1_555
C24_2 C23_2 1_555 1_555
C25_2 C24_2 1_555 1_555
C29_2 C24_2 1_555 1_555
C30_2 C29_2 1_555 1_555
C31_2 C30_2 1_555 1_555
N11 Cd1 1_555 1_555
O13 Cd1 1_555 1_555
N12 O13 1_555 1_555
O14 N12 1_555 1_555
O15 N12 1_555 1_555
O16 Cd1 1_555 1_555
N13 Cd1 1_555 1_555
C32 N11 1_555 1_555
C33 C29_2 1_555 1_555
C34_2 C23_2 1_555 1_555
C31_2 N11 1_555 1_555
C32 C33 1_555 1_555
C34_2 C35_2 1_555 1_555
C34_2 H1_2 1_555 1_555
C31_2 H2_2 1_555 1_555
C33 H7 1_555 1_555
C30_2 H12_2 1_555 1_555
C32 H15 1_555 1_555
C32_2 N13 1_555 1_555
C32_2 C33_2 1_555 1_555
C33_2 H7_2 1_555 1_555
C32_2 H15_2 1_555 1_555
Cd2 O5 1_555 1_555
C16 C7 1_555 1_555
C17 C16 1_555 1_555
C18 C17 1_555 1_555
C19 C20 1_555 1_555
C20 C16 1_555 1_555
O5 N6 1_555 1_555
O6 N6 1_555 1_555
O7 N6 1_555 1_555
O8 Cd2 1_555 1_555
N4 Cd2 1_555 1_555
N8 Pd1_4 1_555 1_555
C26 C7 1_555 1_555
O9 Cd2 1_555 1_555
N9 O9 1_555 1_555
O10 N9 1_555 1_555
O11 N9 1_555 1_555
O12 Cd2 1_555 1_555
N10 Cd2 1_555 1_555
C27 C26 1_555 1_555
C18 N4 1_555 1_555
C19 N4 1_555 1_555
N8 C26 1_555 1_555
C27 C28 1_555 1_555
C27 H3 1_555 1_555
C28 H10 1_555 1_555
C17 H25 1_555 1_555
C18 H26 1_555 1_555
C19 H27 1_555 1_555
C20 H28 1_555 1_555
N1 C1 1_555 1_555
N2 C3 1_555 1_555
C1 C2 1_555 1_555
C2 C3 1_555 1_555
C3 C4 1_555 1_555
C4 C5 1_555 1_555
C5 C6 1_555 1_555
C6 N2 1_555 1_555
C8 N1 1_555 1_555
C9 C8 1_555 1_555
C10 C1 1_555 1_555
C11 C2 1_555 1_555
C12 C11 1_555 1_555
C13 C12 1_555 1_555
C14 C15 1_555 1_555
C15 C11 1_555 1_555
N3 C13 1_555 1_555
Pd1_5 N1 1_555 1_555
C21 C8 1_555 1_555
Cd3 N3 1_555 1_555
C36 C21 1_555 1_555
C37 C36 1_555 1_555
C38 C36 1_555 1_555
C39 C37 1_555 1_555
C40 C38 1_555 1_555
N10 C39 1_555 1_555
N2 Pd1_5 1_555 1_555
C9 C10 1_555 1_555
C14 N3 1_555 1_555
C40 N10 1_555 1_555
C37 H8 1_555 1_555
C40 H9 1_555 1_555
C39 H11 1_555 1_555
C38 H16 1_555 1_555
C4 H17 1_555 1_555
C5 H18 1_555 1_555
C9 H19 1_555 1_555
C10 H20 1_555 1_555
C12 H21 1_555 1_555
C13 H22 1_555 1_555
C14 H23 1_555 1_555
C15 H24 1_555 1_555
Cd3 O1_2 1_555 1_555
O1_2 N5_2 1_555 1_555
O16_2 Cd3 1_555 1_555
C8_2 N1_2 1_555 1_555
C9_2 C8_2 1_555 1_555
Pd1_8 N1_2 1_555 1_555
C21_2 C8_2 1_555 1_555
C36_2 C21_2 1_555 1_555
C37_2 C36_2 1_555 1_555
C38_2 C36_2 1_555 1_555
C39_2 C37_2 1_555 1_555
C40_2 C38_2 1_555 1_555
N14 C39_2 1_555 1_555
Cd4 N14 1_555 1_555
C9_2 C10_2 1_555 1_555
C40_2 N14 1_555 1_555
C37_2 H8_2 1_555 1_555
C40_2 H9_2 1_555 1_555
C39_2 H11_2 1_555 1_555
C38_2 H16_2 1_555 1_555
C9_2 H19_2 1_555 1_555
C10_2 H20_2 1_555 1_555
Cd1_2 O1_3 1_555 1_555
Cd4 O5_2 1_555 1_555
C16_2 C7_2 1_555 1_555
C17_2 C16_2 1_555 1_555
C18_2 C17_2 1_555 1_555
C19_2 C20_2 1_555 1_555
C20_2 C16_2 1_555 1_555
O1_3 N5_3 1_555 1_555
O5_2 N6_2 1_555 1_555
O6_2 N6_2 1_555 1_555
O7_2 N6_2 1_555 1_555
O8_2 Cd4 1_555 1_555
N4_2 Cd4 1_555 1_555
N7_3 Pd1_9 1_555 1_555
C23_3 N7_3 1_555 1_555
C24_3 C23_3 1_555 1_555
C25_3 C24_3 1_555 1_555
N8_2 Pd1_9 1_555 1_555
C26_2 C7_2 1_555 1_555
O9_2 Cd4 1_555 1_555
N9_2 O9_2 1_555 1_555
O10_2 N9_2 1_555 1_555
O11_2 N9_2 1_555 1_555
O12_2 Cd4 1_555 1_555
C27_2 C26_2 1_555 1_555
C28_2 C25_3 1_555 1_555
C29_3 C24_3 1_555 1_555
C30_3 C29_3 1_555 1_555
C31_3 C30_3 1_555 1_555
N11_2 Cd1_2 1_555 1_555
O16_3 Cd1_2 1_555 1_555
C32_3 N11_2 1_555 1_555
C33_3 C29_3 1_555 1_555
C34_3 C23_3 1_555 1_555
C35_3 C22_2 1_555 1_555
C18_2 N4_2 1_555 1_555
C19_2 N4_2 1_555 1_555
C22_2 N7_3 1_555 1_555
C25_3 N8_2 1_555 1_555
N8_2 C26_2 1_555 1_555
C27_2 C28_2 1_555 1_555
C31_3 N11_2 1_555 1_555
C32_3 C33_3 1_555 1_555
C34_3 C35_3 1_555 1_555
C34_3 H1_3 1_555 1_555
C31_3 H2_3 1_555 1_555
C27_2 H3_2 1_555 1_555
C35_3 H6_2 1_555 1_555
C33_3 H7_3 1_555 1_555
C28_2 H10_2 1_555 1_555
C30_3 H12_3 1_555 1_555
C32_3 H15_3 1_555 1_555
C17_2 H25_2 1_555 1_555
C18_2 H26_2 1_555 1_555
C19_2 H27_2 1_555 1_555
C20_2 H28_2 1_555 1_555
N2_2 C3_2 1_555 1_555
C1_2 C2_2 1_555 1_555
C2_2 C3_2 1_555 1_555
C3_2 C4_2 1_555 1_555
C4_2 C5_2 1_555 1_555
C11_2 C2_2 1_555 1_555
C12_2 C11_2 1_555 1_555
C13_2 C12_2 1_555 1_555
C14_2 C15_2 1_555 1_555
C15_2 C11_2 1_555 1_555
N3_2 C13_2 1_555 1_555
Cd3_2 N3_2 1_555 1_555
N2_2 Pd1_11 1_555 1_555
C14_2 N3_2 1_555 1_555
C4_2 H17_2 1_555 1_555
C12_2 H21_2 1_555 1_555
C13_2 H22_2 1_555 1_555
C14_2 H23_2 1_555 1_555
C15_2 H24_2 1_555 1_555
C14_3 C15_3 1_555 1_555
Cd3_2 N3_3 1_555 1_555
C14_3 N3_3 1_555 1_555
C14_3 H23_3 1_555 1_555
C15_3 H24_3 1_555 1_555
Cd3_2 O1_4 1_555 1_555
O1_4 N5_4 1_555 1_555
O4_2 Cd3_2 1_555 1_555
O13_2 Cd3_2 1_555 1_555
N12_2 O13_2 1_555 1_555
O14_2 N12_2 1_555 1_555
O15_2 N12_2 1_555 1_555
O16_4 Cd3_2 1_555 1_555
O4_3 Cd1_3 1_555 1_555
O13_3 Cd1_3 1_555 1_555
N12_3 O13_3 1_555 1_555
O14_3 N12_3 1_555 1_555
O15_3 N12_3 1_555 1_555
N13_2 Cd1_3 1_555 1_555
C8_3 N1_3 1_555 1_555
C9_3 C8_3 1_555 1_555
Pd1_12 N1_3 1_555 1_555
C21_3 C8_3 1_555 1_555
C22_3 C21_3 1_555 1_555
C36_3 C21_3 1_555 1_555
C37_3 C36_3 1_555 1_555
C38_3 C36_3 1_555 1_555
C39_3 C37_3 1_555 1_555
C40_3 C38_3 1_555 1_555
N14_2 C39_3 1_555 1_555
Cd4_2 N14_2 1_555 1_555
C9_3 C10_3 1_555 1_555
C40_3 N14_2 1_555 1_555
C37_3 H8_3 1_555 1_555
C39_3 H11_3 1_555 1_555
C38_3 H16_3 1_555 1_555
C9_3 H19_3 1_555 1_555
C10_3 H20_3 1_555 1_555
Cd4_2 O5_3 1_555 1_555
O5_3 N6_3 1_555 1_555
O6_3 N6_3 1_555 1_555
O7_3 N6_3 1_555 1_555
O12_3 Cd4_2 1_555 1_555
C32_4 N13_2 1_555 1_555
C32_4 C33_4 1_555 1_555
C33_4 H7_4 1_555 1_555
C32_4 H15_4 1_555 1_555
C7_3 C6_3 1_555 1_555
C16_3 C7_3 1_555 1_555
C17_3 C16_3 1_555 1_555
C18_3 C17_3 1_555 1_555
C19_3 C20_3 1_555 1_555
C20_3 C16_3 1_555 1_555
O8_3 Cd2_2 1_555 1_555
N4_3 Cd2_2 1_555 1_555
N8_3 Pd1_13 1_555 1_555
C26_3 C7_3 1_555 1_555
O9_3 Cd2_2 1_555 1_555
N9_3 O9_3 1_555 1_555
O10_3 N9_3 1_555 1_555
O11_3 N9_3 1_555 1_555
C27_3 C26_3 1_555 1_555
C18_3 N4_3 1_555 1_555
C19_3 N4_3 1_555 1_555
N8_3 C26_3 1_555 1_555
C27_3 C28_3 1_555 1_555
C27_3 H3_3 1_555 1_555
C28_3 H10_3 1_555 1_555
C17_3 H25_3 1_555 1_555
C18_3 H26_3 1_555 1_555
C20_3 H28_3 1_555 1_555
C14_4 C15_4 1_555 1_555
Cd3_3 N3_4 1_555 1_555
C14_4 N3_4 1_555 1_555
C14_4 H23_4 1_555 1_555
C15_4 H24_4 1_555 1_555
O4_4 Cd3_3 1_555 1_555
O13_4 Cd3_3 1_555 1_555
N12_4 O13_4 1_555 1_555
O14_4 N12_4 1_555 1_555
O15_4 N12_4 1_555 1_555
Cd2_3 O5_4 1_555 1_555
O5_4 N6_4 1_555 1_555
O6_4 N6_4 1_555 1_555
O7_4 N6_4 1_555 1_555
O12_4 Cd2_3 1_555 1_555
N10_2 Cd2_3 1_555 1_555
N1_4 C1_3 1_555 1_555
N2_3 C3_3 1_555 1_555
C1_3 C2_3 1_555 1_555
C2_3 C3_3 1_555 1_555
C3_3 C4_3 1_555 1_555
C4_3 C5_3 1_555 1_555
C5_3 C6_4 1_555 1_555
C6_4 N2_3 1_555 1_555
C7_4 C6_4 1_555 1_555
C8_4 N1_4 1_555 1_555
C9_4 C8_4 1_555 1_555
C10_4 C1_3 1_555 1_555
C11_3 C2_3 1_555 1_555
C12_3 C11_3 1_555 1_555
C13_3 C12_3 1_555 1_555
C16_4 C7_4 1_555 1_555
C17_4 C16_4 1_555 1_555
C18_4 C17_4 1_555 1_555
C19_4 C20_4 1_555 1_555
C20_4 C16_4 1_555 1_555
O8_4 Cd4_3 1_555 1_555
N4_4 Cd4_3 1_555 1_555
Pd1_14 N1_4 1_555 1_555
C21_4 C8_4 1_555 1_555
C22_4 C21_4 1_555 1_555
N7_4 Pd1_14 1_555 1_555
C23_4 N7_4 1_555 1_555
C24_4 C23_4 1_555 1_555
C25_4 C24_4 1_555 1_555
N8_4 Pd1_14 1_555 1_555
C26_4 C7_4 1_555 1_555
O9_4 Cd4_3 1_555 1_555
N9_4 O9_4 1_555 1_555
O10_4 N9_4 1_555 1_555
O11_4 N9_4 1_555 1_555
C27_4 C26_4 1_555 1_555
C28_4 C25_4 1_555 1_555
C29_4 C24_4 1_555 1_555
C30_4 C29_4 1_555 1_555
C31_4 C30_4 1_555 1_555
C34_4 C23_4 1_555 1_555
C35_4 C22_4 1_555 1_555
C36_4 C21_4 1_555 1_555
C37_4 C36_4 1_555 1_555
C38_4 C36_4 1_555 1_555
C39_4 C37_4 1_555 1_555
C40_4 C38_4 1_555 1_555
N10_2 C39_4 1_555 1_555
N2_3 Pd1_14 1_555 1_555
C9_4 C10_4 1_555 1_555
C18_4 N4_4 1_555 1_555
C19_4 N4_4 1_555 1_555
C22_4 N7_4 1_555 1_555
C25_4 N8_4 1_555 1_555
N8_4 C26_4 1_555 1_555
C27_4 C28_4 1_555 1_555
C34_4 C35_4 1_555 1_555
C40_4 N10_2 1_555 1_555
C34_4 H1_4 1_555 1_555
C31_4 H2_4 1_555 1_555
C27_4 H3_4 1_555 1_555
C35_4 H6_4 1_555 1_555
C37_4 H8_4 1_555 1_555
C28_4 H10_4 1_555 1_555
C39_4 H11_4 1_555 1_555
C30_4 H12_4 1_555 1_555
C38_4 H16_4 1_555 1_555
C4_3 H17_3 1_555 1_555
C5_3 H18_4 1_555 1_555
C9_4 H19_4 1_555 1_555
C10_4 H20_4 1_555 1_555
C12_3 H21_3 1_555 1_555
C13_3 H22_3 1_555 1_555
C17_4 H25_4 1_555 1_555
C18_4 H26_4 1_555 1_555
C20_4 H28_4 1_555 1_555
N2_4 C3_4 1_555 1_555
C1_4 C2_4 1_555 1_555
C2_4 C3_4 1_555 1_555
C3_4 C4_4 1_555 1_555
C4_4 C5_4 1_555 1_555
C11_4 C2_4 1_555 1_555
C12_4 C11_4 1_555 1_555
C13_4 C12_4 1_555 1_555
N2_4 Pd1_15 1_555 1_555
C4_4 H17_4 1_555 1_555
C12_4 H21_4 1_555 1_555
C13_4 H22_4 1_555 1_555

#END
