
###############################################################################
#
# This file contains modified crystal structure data generated from the
# MOF subset of the Cambridge Structural Database (CSD) v543 
# hosted by the Cambridge Crystallographic Data Centre (CCDC).
#
# This work is licensed under the Creative Commons
# Attribution-NonCommercial-ShareAlike 4.0 International License.
# To view a copy of this license, visit
# http://creativecommons.org/licenses/by-nc-sa/4.0/
# or send a letter to
# Creative Commons, PO Box 1866, Mountain View, CA 94042, USA.
#
# CIF created using the CSD Python API on 29 September 2022
# The structure has been converted into the P1 space group
# The structure has a 3D framework
# The original CSD entry SOBYUE is in the rhombohedral crystal system
# The original CSD entry SOBYUE is in a Sohncke space group
# The framework has been calculated to contain at least 10.0% void space
# The void calculation uses a probe of radius 1.32A, grid spacing 0.4
#
###############################################################################

data_SOBYUE
_chemical_formula_moiety         '(C567 H576 B22 Br30 Cd21 N45)n'
_symmetry_cell_setting           triclinic
_symmetry_space_group_name_H-M   'P 1'
_symmetry_Int_Tables_number      1
_space_group_name_Hall           'P 1'
loop_
_symmetry_equiv_pos_site_id
_symmetry_equiv_pos_as_xyz
1 x,y,z
_cell_length_a                   18.169(3)
_cell_length_b                   18.169(3)
_cell_length_c                   47.599(10)
_cell_angle_alpha                90
_cell_angle_beta                 90
_cell_angle_gamma                120
_cell_volume                     13607.9
loop_
_atom_site_label
_atom_site_type_symbol
_atom_site_fract_x
_atom_site_fract_y
_atom_site_fract_z
Cd6 Cd 0.06500(3) 0.3333 0.8333
Br7 Br 0.11152(6) 0.46240(7) 0.869118(19)
N11 N 0.0522(4) 0.4186(4) 0.80041(11)
N15 N 0.1892(4) 0.3333 0.8333
H36 H 0.0427 0.2309 0.8925
Cd3 Cd 0.3333 0.06500(3) 0.1667
H33 H 0.2309 0.0427 0.1075
B2 B 0.6667 0.3333 0.8333
C27 C 0.6667 0.0082(4) 0.8333
C28 C 0.6667 0.0908(5) 0.8333
C29 C 0.7039(3) 0.1470(4) 0.81111(12)
C30 C 0.7085(4) 0.2262(3) 0.81154(12)
C31 C 0.6667 0.2456(5) 0.8333
C32 C 0.7500(4) 0.2849(4) 0.78747(13)
H27 H 0.7742 0.2610 0.7750
H28 H 0.7941 0.3387 0.7943
H29 H 0.7086 0.2928 0.7775
C33 C 0.7385(4) 0.1245(4) 0.78550(13)
H30 H 0.7322 0.0692 0.7880
H31 H 0.7976 0.1657 0.7832
H32 H 0.7077 0.1243 0.7691
C148 C 0.2631(6) 0.4057(5) 0.83472(15)
C149 C 0.1907(4) 0.2610(5) 0.83195(15)
H156 H 0.1393 0.2101 0.8309
H157 H 0.2626 0.4566 0.8358
C150 C 0.7419(4) 0.0062(6) 0.83198(15)
C152 C 0.9938(6) 0.7358(4) 0.83198(15)
C153 C 0.3395(6) 0.4086(4) 0.83469(15)
C154 C 0.2642(4) 0.2581(4) 0.83198(15)
H158 H 0.7938 0.0565 0.8311
H159 H 0.9435 0.7374 0.8311
H161 H 0.2626 0.2062 0.8311
H162 H 0.3898 0.4605 0.8356
C155 C 0.9918(4) 0.6585(4) 0.8333
C156 C 0.3415(4) 0.3333 0.8333
C157 C 0.9092(5) 0.5759(5) 0.8333
C158 C 0.4241(5) 0.3333 0.8333
C159 C 0.6294(3) 0.1098(5) 0.85556(12)
C160 C 0.8530(4) 0.5569(5) 0.81111(12)
C161 C 0.8902(5) 0.5197(4) 0.85556(12)
C162 C 0.4431(5) 0.2961(3) 0.81111(12)
C163 C 0.4803(4) 0.3706(3) 0.85556(12)
C164 C 0.6248(4) 0.1844(5) 0.85513(12)
C165 C 0.7738(3) 0.4823(5) 0.81154(12)
C166 C 0.8156(5) 0.4405(3) 0.85513(12)
C167 C 0.5177(5) 0.2915(4) 0.81154(12)
C168 C 0.5595(3) 0.3752(4) 0.85513(12)
C169 C 0.7544(5) 0.4211(5) 0.8333
C170 C 0.5789(5) 0.3333 0.8333
C171 C 0.5833(4) 0.2016(6) 0.87920(13)
C172 C 0.7984(6) 0.3818(4) 0.87920(13)
C173 C 0.7151(4) 0.4651(6) 0.78747(13)
C174 C 0.6182(4) 0.4167(4) 0.87920(13)
C175 C 0.5349(6) 0.2500(4) 0.78747(13)
H163 H 0.5591 0.1535 0.8917
H164 H 0.8465 0.4057 0.8917
H165 H 0.7390 0.5132 0.7750
H166 H 0.5943 0.4409 0.8917
H167 H 0.4868 0.2258 0.7750
H168 H 0.5392 0.2113 0.8724
H169 H 0.7887 0.3280 0.8724
H170 H 0.6613 0.4554 0.7943
H171 H 0.6720 0.4608 0.8724
H172 H 0.5446 0.2059 0.7943
H173 H 0.6247 0.2509 0.8892
H174 H 0.7491 0.3739 0.8892
H175 H 0.7072 0.4158 0.7775
H176 H 0.6261 0.3753 0.8892
H177 H 0.5842 0.2914 0.7775
C176 C 0.5948(4) 0.0527(6) 0.88117(13)
C177 C 0.9473(6) 0.5422(4) 0.88117(13)
C178 C 0.8755(4) 0.6140(6) 0.78550(13)
C179 C 0.4578(4) 0.4052(4) 0.88117(13)
C180 C 0.3860(6) 0.2615(4) 0.78550(13)
H178 H 0.6011 0.0037 0.8787
H179 H 0.9963 0.5975 0.8787
H180 H 0.9308 0.6630 0.7880
H181 H 0.4025 0.3989 0.8787
H182 H 0.3370 0.2678 0.7880
H183 H 0.5357 0.0348 0.8835
H184 H 0.9652 0.5010 0.8835
H185 H 0.8343 0.6319 0.7832
H186 H 0.4990 0.4643 0.8835
H187 H 0.3681 0.2024 0.7832
H188 H 0.6256 0.0833 0.8976
H189 H 0.9167 0.5424 0.8976
H190 H 0.8757 0.5834 0.7691
H191 H 0.4576 0.3744 0.8976
H192 H 0.4166 0.2923 0.7691
Br5 Br 0.46240(11) 0.11152(6) 0.130882(19)
N10 N 0.4186(7) 0.0522(4) 0.19959(11)
N14 N 0.3333(6) 0.1892(4) 0.1667
B2_2 B 0.3333 0.6667 0.1667
C27_2 C 0.0082(4) 0.6667 0.1667
C28_2 C 0.0908(5) 0.6667 0.1667
C29_2 C 0.1470(4) 0.7039(3) 0.18889(12)
C30_2 C 0.2262(3) 0.7085(4) 0.18846(12)
C31_2 C 0.2456(5) 0.6667 0.1667
C32_2 C 0.2849(4) 0.7500(4) 0.21253(13)
H27_2 H 0.2610 0.7742 0.2250
H28_2 H 0.3387 0.7941 0.2057
H29_2 H 0.2928 0.7086 0.2225
C33_2 C 0.1245(4) 0.7385(4) 0.21450(13)
H30_2 H 0.0692 0.7322 0.2120
H31_2 H 0.1657 0.7976 0.2168
H32_2 H 0.1243 0.7077 0.2309
C148_2 C 0.4057(5) 0.2631(6) 0.16528(15)
C149_2 C 0.2610(5) 0.1907(4) 0.16805(15)
H156_2 H 0.2101 0.1393 0.1691
H157_2 H 0.4566 0.2626 0.1642
C150_2 C 0.0062(6) 0.7419(4) 0.16802(15)
C152_2 C 0.7358(4) 0.9938(6) 0.16802(15)
C153_2 C 0.4086(4) 0.3395(6) 0.16531(15)
C154_2 C 0.2581(4) 0.2642(4) 0.16802(15)
H158_2 H 0.0565 0.7938 0.1689
H159_2 H 0.7374 0.9435 0.1689
H161_2 H 0.2062 0.2626 0.1689
H162_2 H 0.4605 0.3898 0.1644
C155_2 C 0.6585(4) 0.9918(4) 0.1667
C156_2 C 0.3333 0.3415(4) 0.1667
C157_2 C 0.5759(5) 0.9092(5) 0.1667
C158_2 C 0.3333 0.4241(5) 0.1667
C159_2 C 0.1098(5) 0.6294(3) 0.14444(12)
C160_2 C 0.5569(5) 0.8530(4) 0.18889(12)
C161_2 C 0.5197(4) 0.8902(5) 0.14444(12)
C162_2 C 0.2961(3) 0.4431(5) 0.18889(12)
C163_2 C 0.3706(3) 0.4803(4) 0.14444(12)
C164_2 C 0.1844(5) 0.6248(4) 0.14487(12)
C165_2 C 0.4823(5) 0.7738(3) 0.18846(12)
C166_2 C 0.4405(3) 0.8156(5) 0.14487(12)
C167_2 C 0.2915(4) 0.5177(5) 0.18846(12)
C168_2 C 0.3752(4) 0.5595(3) 0.14487(12)
C169_2 C 0.4211(5) 0.7544(5) 0.1667
C170_2 C 0.3333 0.5789(5) 0.1667
C171_2 C 0.2016(6) 0.5833(4) 0.12080(13)
C172_2 C 0.3818(4) 0.7984(6) 0.12080(13)
C173_2 C 0.4651(6) 0.7151(4) 0.21253(13)
C174_2 C 0.4167(4) 0.6182(4) 0.12080(13)
C175_2 C 0.2500(4) 0.5349(6) 0.21253(13)
H163_2 H 0.1535 0.5591 0.1083
H164_2 H 0.4057 0.8465 0.1083
H165_2 H 0.5132 0.7390 0.2250
H166_2 H 0.4409 0.5943 0.1083
H167_2 H 0.2258 0.4868 0.2250
H168_2 H 0.2113 0.5392 0.1276
H169_2 H 0.3280 0.7887 0.1276
H170_2 H 0.4554 0.6613 0.2057
H171_2 H 0.4608 0.6720 0.1276
H172_2 H 0.2059 0.5446 0.2057
H173_2 H 0.2509 0.6247 0.1108
H174_2 H 0.3739 0.7491 0.1108
H175_2 H 0.4158 0.7072 0.2225
H176_2 H 0.3753 0.6261 0.1108
H177_2 H 0.2914 0.5842 0.2225
C176_2 C 0.0527(6) 0.5948(4) 0.11883(13)
C177_2 C 0.5422(4) 0.9473(6) 0.11883(13)
C178_2 C 0.6140(6) 0.8755(4) 0.21450(13)
C179_2 C 0.4052(4) 0.4578(4) 0.11883(13)
C180_2 C 0.2615(4) 0.3860(6) 0.21450(13)
H178_2 H 0.0037 0.6011 0.1213
H179_2 H 0.5975 0.9963 0.1213
H180_2 H 0.6630 0.9308 0.2120
H181_2 H 0.3989 0.4025 0.1213
H182_2 H 0.2678 0.3370 0.2120
H183_2 H 0.0348 0.5357 0.1165
H184_2 H 0.5010 0.9652 0.1165
H185_2 H 0.6319 0.8343 0.2168
H186_2 H 0.4643 0.4990 0.1165
H187_2 H 0.2024 0.3681 0.2168
H188_2 H 0.0833 0.6256 0.1024
H189_2 H 0.5424 0.9167 0.1024
H190_2 H 0.5834 0.8757 0.2309
H191_2 H 0.3744 0.4576 0.1024
H192_2 H 0.2923 0.4166 0.2309
Cd7 Cd 0.39837(3) 1.0000 0.5000
C1 C 0.4463(6) 0.1003(5) 0.22366(15)
H1 H 0.4358 0.1451 0.2258
C2 C 0.4877(6) 0.0855(5) 0.24395(16)
H2 H 0.5077 0.1213 0.2594
C3 C 0.5012(4) 0.0167(4) 0.24208(13)
C7 C 0.6290(4) 0.0489(4) 0.27003(13)
C8 C 0.6670(4) 0.0296(4) 0.29209(14)
C14 C 0.7622(5) 0.0887(5) 0.29664(18)
H11 H 0.7809 0.0686 0.3122
H12 H 0.7731 0.1451 0.3005
H13 H 0.7926 0.0896 0.2800
C15 C 0.6820(5) 0.1254(4) 0.25129(16)
H14 H 0.6460 0.1297 0.2374
H15 H 0.7254 0.1187 0.2421
H16 H 0.7079 0.1761 0.2625
Cd3_2 Cd 1.0000 0.39833(3) 0.5000
N4 N 0.9148(4) 0.3003(6) 0.46707(11)
C34 C 0.8871(6) 0.3207(8) 0.44300(15)
H33_2 H 0.8976 0.3760 0.4408
C39 C 0.8457(6) 0.2645(8) 0.42271(16)
H38 H 0.8257 0.2803 0.4072
C44 C 0.8322(4) 0.1822(6) 0.42458(13)
C49 C 0.8591(4) 0.1624(6) 0.44897(13)
H43 H 0.8496 0.1076 0.4516
C54 C 0.9003(5) 0.2232(7) 0.46959(14)
H48 H 0.9181 0.2081 0.4858
C59 C 0.7895(4) 0.1192(6) 0.40156(13)
C64 C 0.7044(4) 0.0866(6) 0.39663(13)
C69 C 0.6664(4) 0.0293(6) 0.37457(14)
C74 C 0.7109(4) 0.0001(6) 0.35802(13)
C79 C 0.7979(4) 0.0314(6) 0.36465(13)
C84 C 0.8371(4) 0.0916(6) 0.38628(12)
C89 C 0.9319(4) 0.1310(6) 0.39041(14)
H53 H 0.9497 0.1703 0.4058
H58 H 0.9609 0.1606 0.3736
H63 H 0.9452 0.0872 0.3944
C94 C 0.8499(5) 0.0048(7) 0.34763(17)
H78 H 0.8950 0.0535 0.3384
H88 H 0.5603 0.0387 0.3661
C104 C 0.6514(5) 0.1101(6) 0.41537(16)
H98 H 0.6874 0.1504 0.4292
H103 H 0.6080 0.0600 0.4245
H108 H 0.6255 0.1349 0.4041
Br5_2 Br 0.31579(9) 0.87094(11) 0.464216(19)
N10_2 N 0.3003(6) 0.9148(7) 0.53293(11)
N14_2 N 0.5226(4) 1.0000(6) 0.5000
Br4 Br 0.87094(11) 0.31579(9) 0.535784(19)
N14_3 N 1.0000(6) 0.5225(4) 0.5000
B2_3 B 1.0000 1.0000 0.5000
C25 C 0.5241(4) 0.9276(5) 0.49861(15)
H25 H 0.4727 0.8767 0.4975
C26 C 0.5976(4) 0.9247(4) 0.49864(15)
H26 H 0.5960 0.8728 0.4977
C27_3 C 0.6749(4) 1.0000 0.5000
C28_3 C 0.7575(5) 1.0000 0.5000
C31_3 C 0.9123(5) 1.0000 0.5000
C149_3 C 0.9276(5) 0.5241(4) 0.50139(15)
H156_3 H 0.8767 0.4727 0.5025
C154_3 C 0.9247(4) 0.5976(4) 0.50136(15)
H161_3 H 0.8728 0.5960 0.5023
C156_3 C 1.0000 0.6748(4) 0.5000
C158_3 C 1.0000 0.7574(5) 0.5000
C159_3 C 0.7764(5) 0.9628(3) 0.47778(12)
C162_3 C 0.9628(3) 0.7764(5) 0.52222(12)
C164_3 C 0.8510(5) 0.9582(4) 0.47821(12)
C167_3 C 0.9582(4) 0.8510(5) 0.52179(12)
C170_3 C 1.0000 0.9122(5) 0.5000
C171_3 C 0.8682(6) 0.9167(4) 0.45414(13)
C175_3 C 0.9167(4) 0.8682(6) 0.54586(13)
H163_3 H 0.8201 0.8925 0.4417
H167_3 H 0.8925 0.8201 0.5583
H168_3 H 0.8779 0.8726 0.4610
H172_3 H 0.8726 0.8779 0.5390
H173_3 H 0.9175 0.9581 0.4442
H177_3 H 0.9581 0.9175 0.5558
C176_3 C 0.7193(6) 0.9282(4) 0.45217(13)
C180_3 C 0.9282(4) 0.7193(6) 0.54783(13)
H178_3 H 0.6703 0.9345 0.4547
H182_3 H 0.9345 0.6703 0.5453
H183_3 H 0.7014 0.8691 0.4499
H187_3 H 0.8691 0.7014 0.5501
H188_3 H 0.7499 0.9590 0.4358
H192_3 H 0.9590 0.7499 0.5642
C37 C 0.3207(8) 0.8871(6) 0.55700(15)
C38 C 0.1003(5) 0.4463(6) 0.77634(15)
H36_2 H 0.3760 0.8976 0.5592
H37 H 0.1451 0.4358 0.7742
C42 C 0.2645(8) 0.8457(6) 0.57729(16)
C43 C 0.0855(5) 0.4877(6) 0.75605(16)
H41 H 0.2803 0.8257 0.5928
H42 H 0.1213 0.5077 0.7406
C47 C 0.1822(6) 0.8322(4) 0.57542(13)
C48 C 0.0167(4) 0.5012(4) 0.75792(13)
C52 C 0.1624(6) 0.8591(4) 0.55103(13)
H46 H 0.1076 0.8496 0.5484
C57 C 0.2232(7) 0.9003(5) 0.53041(14)
H51 H 0.2081 0.9181 0.5142
C62 C 0.1192(6) 0.7895(4) 0.59844(13)
C67 C 0.0866(6) 0.7044(4) 0.60337(13)
C68 C 0.0489(4) 0.6290(4) 0.72997(13)
C72 C 0.0293(6) 0.6664(4) 0.62543(14)
C73 C 0.0296(4) 0.6670(4) 0.70791(14)
C77 C 0.0001(6) 0.7109(4) 0.64198(13)
C82 C 0.0314(6) 0.7979(4) 0.63535(13)
C87 C 0.0916(6) 0.8371(4) 0.61372(12)
C92 C 0.1310(6) 0.9319(4) 0.60959(14)
H56 H 0.1703 0.9497 0.5942
H61 H 0.1606 0.9609 0.6264
H66 H 0.0872 0.9452 0.6056
C97 C 0.0048(7) 0.8499(5) 0.65237(17)
H81 H 0.0535 0.8950 0.6616
C103 C 0.0887(5) 0.7622(5) 0.70336(18)
H87 H 0.0686 0.7809 0.6878
H91 H 0.0387 0.5603 0.6339
H92 H 0.1451 0.7731 0.6995
H97 H 0.0896 0.7926 0.7200
C107 C 0.1101(6) 0.6514(5) 0.58463(16)
C108 C 0.1254(4) 0.6820(5) 0.74871(16)
H101 H 0.1504 0.6874 0.5708
H102 H 0.1297 0.6460 0.7626
H106 H 0.0600 0.6080 0.5755
H107 H 0.1187 0.7254 0.7579
H111 H 0.1349 0.6255 0.5959
H112 H 0.1761 0.7079 0.7375
Cd8 Cd 0.26830(3) 0.93500(3) 0.8333
N12 N 0.1441(4) 0.8108(4) 0.8333
C146 C 0.1426(4) 0.7369(6) 0.83472(15)
C147 C 0.0702(6) 0.8093(4) 0.83195(15)
H154 H 0.0707 0.8607 0.8309
H155 H 0.1940 0.7374 0.8358
C151 C 0.0691(4) 0.6605(6) 0.83469(15)
H160 H 0.0707 0.6102 0.8356
H34 H 0.1882 0.9573 0.8925
Cd5 Cd 0.93500(3) 0.26830(3) 0.1667
Br5_3 Br 0.88848(6) 0.35087(9) 0.130882(19)
N10_3 N 0.9478(4) 0.3663(6) 0.19959(11)
N14_4 N 0.8108(4) 0.1441(4) 0.1667
H35 H 0.9573 0.1882 0.1075
Br3 Br 0.35087(9) 0.88848(11) 0.869118(19)
N9 N 0.3663(6) 0.9478(7) 0.80041(11)
C146_2 C 0.7369(6) 0.1426(4) 0.16528(15)
C147_2 C 0.8093(4) 0.0702(6) 0.16805(15)
H154_2 H 0.8607 0.0707 0.1691
H155_2 H 0.7374 0.1940 0.1642
C151_2 C 0.6605(6) 0.0691(4) 0.16531(15)
H160_2 H 0.6102 0.0707 0.1644
Cd5_2 Cd 0.60167(3) 0.60163(3) 0.5000
Br4_2 Br 0.68421(9) 0.55514(6) 0.535784(19)
Br5_4 Br 0.55514(6) 0.68421(9) 0.464216(19)
N6 N 0.6997(6) 0.6144(4) 0.46707(11)
N10_4 N 0.6144(4) 0.6997(6) 0.53293(11)
N14_5 N 0.4775(4) 0.4774(4) 0.5000
C35 C 0.8997(5) 0.3459(8) 0.22366(15)
C36 C 0.6793(8) 0.5663(5) 0.44300(15)
H34_2 H 0.8549 0.2906 0.2258
H35_2 H 0.6240 0.5215 0.4408
C40 C 0.9145(5) 0.4021(8) 0.24395(16)
C41 C 0.7355(8) 0.5811(5) 0.42271(16)
H39 H 0.8787 0.3863 0.2594
H40 H 0.7197 0.5453 0.4072
C45 C 0.9833(4) 0.4844(6) 0.24208(13)
C46 C 0.8178(6) 0.6499(4) 0.42458(13)
C51 C 0.8376(6) 0.6966(4) 0.44897(13)
H45 H 0.8924 0.7419 0.4516
C56 C 0.7768(7) 0.6770(5) 0.46959(14)
H50 H 0.7919 0.7099 0.4858
C61 C 0.8808(6) 0.6702(4) 0.40156(13)
C65 C 0.9511(4) 0.5800(6) 0.27003(13)
C66 C 0.9134(6) 0.6177(4) 0.39663(13)
C70 C 0.9704(4) 0.6373(6) 0.29209(14)
C71 C 0.9707(6) 0.6370(4) 0.37457(14)
C76 C 0.9999(6) 0.7107(4) 0.35802(13)
C81 C 0.9686(6) 0.7664(4) 0.36465(13)
C86 C 0.9084(6) 0.7454(4) 0.38628(12)
C91 C 0.8690(6) 0.8008(5) 0.39041(14)
H55 H 0.8297 0.7793 0.4058
H60 H 0.8394 0.8002 0.3736
H65 H 0.9128 0.8579 0.3944
C96 C 0.9952(7) 0.8450(5) 0.34763(17)
H80 H 0.9465 0.8414 0.3384
C100 C 0.9113(5) 0.6734(7) 0.29664(18)
H84 H 0.9314 0.7122 0.3122
H89 H 0.8549 0.6279 0.3005
H90 H 0.9613 0.5215 0.3661
H94 H 0.9104 0.7029 0.2800
C105 C 0.8746(4) 0.5565(6) 0.25129(16)
C106 C 0.8899(6) 0.5412(4) 0.41537(16)
H99 H 0.8703 0.5162 0.2374
H100 H 0.8496 0.5369 0.4292
H104 H 0.8813 0.6066 0.2421
H105 H 0.9400 0.5479 0.4245
H109 H 0.8239 0.5317 0.2625
H110 H 0.8651 0.4905 0.4041
B2_4 B -0.0000 0.0000 0.5000
H28_3 H 0.0054 0.1274 0.5390
C146_3 C 0.4036(6) 0.4759(4) 0.49861(15)
C147_3 C 0.4759(4) 0.4036(6) 0.50139(15)
H154_3 H 0.5273 0.4041 0.5025
H155_3 H 0.4041 0.5273 0.4975
C151_3 C 0.3272(6) 0.4024(4) 0.49864(15)
C152_3 C 0.4024(4) 0.3272(6) 0.50136(15)
H159_3 H 0.4040 0.2769 0.5023
H160_3 H 0.2769 0.4040 0.4977
C155_3 C 0.3252(4) 0.3251(4) 0.5000
C157_3 C 0.2426(5) 0.2425(5) 0.5000
C160_3 C 0.2236(5) 0.1863(4) 0.52222(12)
C161_3 C 0.1863(4) 0.2236(5) 0.47778(12)
C165_3 C 0.1490(5) 0.1071(3) 0.52179(12)
C166_3 C 0.1071(3) 0.1490(5) 0.47821(12)
C169_3 C 0.0878(5) 0.0877(5) 0.5000
C172_3 C 0.0484(4) 0.1318(6) 0.45414(13)
C173_3 C 0.1318(6) 0.0484(4) 0.54586(13)
H164_3 H 0.0723 0.1799 0.4417
H165_3 H 0.1799 0.0723 0.5583
H171_3 H 0.1274 0.0054 0.4610
H174_3 H 0.0405 0.0825 0.4442
H175_3 H 0.0825 0.0405 0.5558
C177_3 C 0.2088(4) 0.2807(6) 0.45217(13)
C178_3 C 0.2807(6) 0.2088(4) 0.54783(13)
H179_3 H 0.2641 0.3297 0.4547
H180_3 H 0.3297 0.2641 0.5453
H184_3 H 0.1676 0.2986 0.4499
H185_3 H 0.2986 0.1676 0.5501
H189_3 H 0.2090 0.2501 0.4358
H190_3 H 0.2501 0.2090 0.5642
C35_2 C 0.5663(5) 0.6793(8) 0.55700(15)
C36_2 C 0.3459(8) 0.8997(5) 0.77634(15)
H34_3 H 0.5215 0.6240 0.5592
H35_3 H 0.2906 0.8549 0.7742
C40_2 C 0.5811(5) 0.7355(8) 0.57729(16)
C41_2 C 0.4021(8) 0.9145(5) 0.75605(16)
H39_2 H 0.5453 0.7197 0.5928
H40_2 H 0.3863 0.8787 0.7406
C45_2 C 0.6499(4) 0.8178(6) 0.57542(13)
C46_2 C 0.4844(6) 0.9833(4) 0.75792(13)
C50 C 0.6966(4) 0.8376(6) 0.55103(13)
H44 H 0.7419 0.8924 0.5484
C55 C 0.6770(5) 0.7768(7) 0.53041(14)
H49 H 0.7099 0.7919 0.5142
C60 C 0.6702(4) 0.8808(6) 0.59844(13)
C65_2 C 0.6177(4) 0.9134(6) 0.60337(13)
C66_2 C 0.5800(6) 0.9511(4) 0.72997(13)
C70_2 C 0.6370(4) 0.9707(6) 0.62543(14)
C71_2 C 0.6373(6) 0.9704(4) 0.70791(14)
C75 C 0.7107(4) 0.9999(6) 0.64198(13)
C80 C 0.7664(4) 0.9686(6) 0.63535(13)
C85 C 0.7454(4) 0.9084(6) 0.61372(12)
C90 C 0.8008(5) 0.8690(6) 0.60959(14)
H54 H 0.7793 0.8297 0.5942
H59 H 0.8002 0.8394 0.6264
H64 H 0.8579 0.9128 0.6056
C95 C 0.8450(5) 0.9952(7) 0.65237(17)
H79 H 0.8414 0.9465 0.6616
C101 C 0.6734(7) 0.9113(5) 0.70336(18)
H85 H 0.7122 0.9314 0.6878
H89_2 H 0.5215 0.9613 0.6339
H90_2 H 0.6279 0.8549 0.6995
H95 H 0.7029 0.9104 0.7200
C105_2 C 0.5412(4) 0.8899(6) 0.58463(16)
C106_2 C 0.5565(6) 0.8746(4) 0.74871(16)
H99_2 H 0.5369 0.8496 0.5708
H100_2 H 0.5162 0.8703 0.7626
H104_2 H 0.5479 0.9400 0.5755
H105_2 H 0.6066 0.8813 0.7579
H109_2 H 0.4905 0.8651 0.5959
H110_2 H 0.5317 0.8239 0.7375
Cd2 Cd 0.0000 0.0000 0.0000
Br2 Br 0.0000 -0.0000 0.05635(2)
B1 B 0.0000 0.6009(6) 0.0000
N3 N 0.0000 0.1255(4) 0.0000
C16 C 0.0638(5) 0.1942(5) 0.01171(16)
H17 H 0.1085 0.1907 0.0199
C17 C 0.0648(5) 0.2694(4) 0.01188(16)
H18 H 0.1103 0.3165 0.0202
C18 C 0.0000 0.2782(5) 0.0000
C19 C 0.0000 0.3601(5) 0.0000
C22 C 0.0000 0.5139(5) 0.0000
B4 B 0.6009(6) 0.0000 0.0000
N4_2 N 0.2481(4) 0.9670(6) 0.13374(11)
N17 N 0.1255(4) 0.0000 0.0000
C34_2 C 0.2204(6) 0.9874(8) 0.10967(15)
C39_2 C 0.1790(6) 0.9312(8) 0.08938(16)
H38_2 H 0.1590 0.9470 0.0739
C44_2 C 0.1655(4) 0.8489(6) 0.09125(13)
C49_2 C 0.1924(4) 0.8291(6) 0.11564(13)
H43_2 H 0.1829 0.7743 0.1183
C54_2 C 0.2336(5) 0.8899(7) 0.13626(14)
H48_2 H 0.2514 0.8748 0.1525
C59_2 C 0.1228(4) 0.7859(6) 0.06823(13)
C64_2 C 0.0377(4) 0.7533(6) 0.06330(13)
C73_2 C 0.6963(4) 0.0003(4) 0.04124(14)
C74_2 C 0.0442(4) 0.6668(6) 0.02469(13)
C79_2 C 0.1312(4) 0.6981(6) 0.03132(13)
C84_2 C 0.1704(4) 0.7583(6) 0.05295(12)
C89_2 C 0.2652(4) 0.7977(6) 0.05708(14)
H53_2 H 0.2830 0.8370 0.0725
H58_2 H 0.2942 0.8273 0.0403
H63_2 H 0.2785 0.7539 0.0611
C94_2 C 0.1832(5) 0.6715(7) 0.01430(17)
H68 H 0.1477 0.6307 0.0004
H73 H 0.2068 0.6463 0.0264
H78_2 H 0.2283 0.7202 0.0051
C103_2 C 0.7554(5) 0.0955(5) 0.03669(18)
H87_2 H 0.7353 0.1142 0.0211
H92_2 H 0.8118 0.1064 0.0328
H97_2 H 0.7563 0.1259 0.0533
C108_2 C 0.7921(4) 0.0153(5) 0.08204(16)
H98_2 H 0.0207 0.8171 0.0959
H107_2 H 0.7854 0.0587 0.0912
H112_2 H 0.8428 0.0412 0.0708
C120 C 0.2782(5) 0.0000 0.0000
C122 C 0.3601(5) 0.0000 0.0000
C126 C 0.4114(6) 0.0293(4) 0.02387(13)
C131 C 0.4889(6) 0.0288(4) 0.02371(13)
C134 C 0.5139(5) 0.0000 0.0000
C138 C 0.5450(7) 0.0644(5) 0.04940(14)
H126 H 0.5162 0.0789 0.0633
H131 H 0.5971 0.1143 0.0443
H136 H 0.5572 0.0226 0.0569
C143 C 0.3876(8) 0.0642(6) 0.04880(14)
H141 H 0.4304 0.0808 0.0631
H146 H 0.3338 0.0214 0.0561
H151 H 0.3837 0.1128 0.0431
Br4_3 Br 0.20427(11) 0.98246(9) 0.202451(19)
Cd2_2 Cd 0.6667 0.3333 0.3333
Br2_2 Br 0.6667 0.3333 0.38968(2)
B1_2 B 0.6667 0.9342(6) 0.3333
N3_2 N 0.6667 0.4588(4) 0.3333
C4 C 0.4743(4) 0.9700(4) 0.21769(13)
H3 H 0.4838 0.9247 0.2150
C5 C 0.4331(5) 0.9896(5) 0.19707(14)
H4 H 0.4153 0.9567 0.1808
C6 C 0.5439(4) 0.9964(4) 0.26510(13)
C9 C 0.6225(4) 0.9559(4) 0.30864(13)
C10 C 0.5355(4) 0.9002(4) 0.30201(13)
C11 C 0.4963(4) 0.9212(4) 0.28038(12)
C12 C 0.4015(4) 0.8658(5) 0.27625(14)
H5 H 0.3837 0.8873 0.2608
H6 H 0.3725 0.8664 0.2930
H7 H 0.3882 0.8087 0.2722
C13 C 0.4835(5) 0.8216(5) 0.31903(17)
H8 H 0.5190 0.8163 0.3329
H9 H 0.4599 0.7728 0.3069
H10 H 0.4384 0.8252 0.3282
C16_2 C 0.7305(5) 0.5275(5) 0.34504(16)
H17_2 H 0.7752 0.5240 0.3532
C17_2 C 0.7315(5) 0.6027(4) 0.34521(16)
H18_2 H 0.7770 0.6498 0.3535
C18_2 C 0.6667 0.6115(5) 0.3333
C19_2 C 0.6667 0.6934(5) 0.3333
C20 C 0.6374(4) 0.7154(4) 0.35720(13)
C21 C 0.6379(4) 0.7934(4) 0.35704(13)
C22_2 C 0.6667 0.8472(5) 0.3333
C23 C 0.6023(5) 0.8139(5) 0.38273(14)
H19 H 0.5878 0.7706 0.3966
H20 H 0.5524 0.8161 0.3776
H21 H 0.6441 0.8679 0.3902
C24 C 0.6025(6) 0.6567(5) 0.38213(14)
H22 H 0.5859 0.6829 0.3964
H23 H 0.6453 0.6457 0.3894
H24 H 0.5539 0.6042 0.3764
Br8 Br 0.6667 0.3333 0.27698(2)
N16 N 0.5412(4) 0.2078(4) 0.3333
N17_2 N 0.7922(4) 0.3333 0.3333
H68_2 H 0.8144 0.9640 0.3337
H73_2 H 0.8735 0.9796 0.3597
C99 C 0.5712(5) 0.9932(7) 0.37002(18)
H83 H 0.5525 0.9544 0.3544
H93 H 0.5408 0.9637 0.3866
C109 C 0.6029(5) 0.4637(7) 0.32162(16)
C110 C 0.4725(5) 0.2029(7) 0.34504(16)
C111 C 0.5363(7) 0.1391(5) 0.32162(16)
C112 C 0.7971(7) 0.2695(5) 0.34504(16)
C113 C 0.8609(5) 0.3971(5) 0.32162(16)
H113 H 0.5582 0.4155 0.3134
H114 H 0.4760 0.2511 0.3532
H115 H 0.5845 0.1426 0.3134
H116 H 0.7489 0.2248 0.3532
H117 H 0.8574 0.4418 0.3134
C114 C 0.6019(5) 0.5379(6) 0.32145(16)
C115 C 0.3973(4) 0.1287(6) 0.34521(16)
C116 C 0.4621(6) 0.0639(4) 0.32145(16)
C117 C 0.8713(6) 0.2685(5) 0.34521(16)
C118 C 0.9361(4) 0.3981(5) 0.32145(16)
H118 H 0.5564 0.5395 0.3131
H119 H 0.3502 0.1271 0.3535
H120 H 0.4605 0.0168 0.3131
H121 H 0.8729 0.2230 0.3535
H122 H 0.9832 0.4436 0.3131
C119 C 0.3885(5) 0.0551(5) 0.3333
C120_2 C 0.9449(5) 0.3333 0.3333
C123 C 0.6960(4) 0.7447(6) 0.30946(13)
C128 C 0.6955(4) 0.8222(6) 0.30962(13)
C135 C 0.7311(5) 0.8783(7) 0.28393(14)
H123 H 0.7456 0.8495 0.2700
H128 H 0.7810 0.9304 0.2890
H133 H 0.6893 0.8905 0.2764
C140 C 0.7309(6) 0.7209(8) 0.28453(14)
C142 C 0.2791(8) 0.0099(5) 0.28453(14)
C144 C 0.9901(5) 0.2691(6) 0.28453(14)
H138 H 0.7475 0.7637 0.2702
H143 H 0.6881 0.6671 0.2772
H145 H 0.3329 0.0209 0.2772
H147 H 0.9791 0.3119 0.2772
H148 H 0.7795 0.7170 0.2902
H150 H 0.2830 0.0624 0.2902
H152 H 0.9376 0.2205 0.2902
Cd2_3 Cd 0.0000 -0.0000 1.0000
B1_3 B -0.0000 0.6009(6) 1.0000
N3_3 N -0.0000 0.1255(4) 1.0000
C8_2 C 0.0003(4) 0.6963(4) 0.95876(14)
C14_2 C 0.0955(5) 0.7554(5) 0.96331(18)
H11_2 H 0.1142 0.7353 0.9789
H12_2 H 0.1064 0.8118 0.9672
H13_2 H 0.1259 0.7563 0.9467
C15_2 C 0.0153(5) 0.7921(4) 0.91796(16)
H15_2 H 0.0587 0.7854 0.9088
H16_2 H 0.0412 0.8428 0.9292
C18_3 C 0.0000 0.2782(5) 1.0000
C19_3 C 0.0000 0.3601(5) 1.0000
C22_3 C 0.0000 0.5139(5) 1.0000
Br6 Br 0.98246(9) 0.20427(7) 0.797549(19)
Br8_2 Br -0.0000 -0.0000 0.94365(2)
B4_2 B 0.6009(6) -0.0000 1.0000
N7 N 0.9670(6) 0.2481(4) 0.86626(11)
N17_3 N 0.1255(4) -0.0000 1.0000
C37_2 C 0.9874(8) 0.2204(6) 0.89033(15)
C42_2 C 0.9312(8) 0.1790(6) 0.91062(16)
H41_2 H 0.9470 0.1590 0.9261
C47_2 C 0.8489(6) 0.1655(4) 0.90875(13)
C52_2 C 0.8291(6) 0.1924(4) 0.88436(13)
H46_2 H 0.7743 0.1829 0.8817
C57_2 C 0.8899(7) 0.2336(5) 0.86374(14)
H51_2 H 0.8748 0.2514 0.8475
C62_2 C 0.7859(6) 0.1228(4) 0.93177(13)
C67_2 C 0.7533(6) 0.0377(4) 0.93670(13)
C77_2 C 0.6668(6) 0.0442(4) 0.97531(13)
C82_2 C 0.6981(6) 0.1312(4) 0.96868(13)
C87_2 C 0.7583(6) 0.1704(4) 0.94705(12)
C92_2 C 0.7977(6) 0.2652(4) 0.94292(14)
H56_2 H 0.8370 0.2830 0.9275
H61_2 H 0.8273 0.2942 0.9597
H66_2 H 0.7539 0.2785 0.9389
C97_2 C 0.6715(7) 0.1832(5) 0.98570(17)
H71 H 0.6307 0.1477 0.9996
H76 H 0.6463 0.2068 0.9736
H81_2 H 0.7202 0.2283 0.9949
H101_2 H 0.8171 0.0207 0.9041
C113_2 C 0.1942(5) 0.0638(5) 0.98829(16)
H117_2 H 0.1907 0.1085 0.9801
C118_2 C 0.2694(4) 0.0648(5) 0.98812(16)
H122_2 H 0.3165 0.1103 0.9798
C120_3 C 0.2782(5) -0.0000 1.0000
C122_2 C 0.3601(5) -0.0000 1.0000
C123_2 C 0.0293(4) 0.4114(6) 0.97613(13)
C128_2 C 0.0288(4) 0.4889(6) 0.97629(13)
C134_2 C 0.5139(5) -0.0000 1.0000
C135_2 C 0.0644(5) 0.5450(7) 0.95060(14)
H123_2 H 0.0789 0.5162 0.9367
H128_2 H 0.1143 0.5971 0.9557
H133_2 H 0.0226 0.5572 0.9431
C140_2 C 0.0642(6) 0.3876(8) 0.95120(14)
H138_2 H 0.0808 0.4304 0.9369
H143_2 H 0.0214 0.3338 0.9439
H148_2 H 0.1128 0.3837 0.9569
Cd2_4 Cd 0.3333 0.6667 0.6667
Br2_3 Br 0.3333 0.6667 0.72302(2)
N3_4 N 0.3333 0.7922(4) 0.6667
C16_3 C 0.3971(5) 0.8609(5) 0.67838(16)
H17_3 H 0.4418 0.8574 0.6866
C17_3 C 0.3981(5) 0.9361(4) 0.67855(16)
H18_3 H 0.4436 0.9832 0.6869
C18_4 C 0.3333 0.9449(5) 0.6667
C24_2 C 0.2691(6) 0.9901(5) 0.71547(14)
H23_2 H 0.3119 0.9791 0.7228
H24_2 H 0.2205 0.9376 0.7098
Br8_3 Br 0.3333 0.6667 0.61032(2)
B4_3 B 0.9342(6) 0.6667 0.6667
N16_2 N 0.2078(4) 0.5412(4) 0.6667
N17_4 N 0.4588(4) 0.6667 0.6667
C53 C 0.9700(4) 0.4743(4) 0.78231(13)
H47 H 0.9247 0.4838 0.7850
C58 C 0.9896(5) 0.4331(5) 0.80293(14)
H52 H 0.9567 0.4153 0.8192
C63 C 0.9964(4) 0.5439(4) 0.73490(13)
C78 C 0.9559(4) 0.6225(4) 0.69136(13)
C83 C 0.9002(4) 0.5355(4) 0.69799(13)
C88 C 0.9212(4) 0.4963(4) 0.71962(12)
C93 C 0.8658(5) 0.4015(4) 0.72375(14)
H57 H 0.8873 0.3837 0.7392
H62 H 0.8664 0.3725 0.7070
H67 H 0.8087 0.3882 0.7278
C98 C 0.8216(5) 0.4835(5) 0.68097(17)
H71_2 H 0.9640 0.8144 0.6663
H72 H 0.8163 0.5190 0.6671
H76_2 H 0.9796 0.8735 0.6403
H77 H 0.7728 0.4599 0.6931
H82 H 0.8252 0.4384 0.6718
C102 C 0.9932(7) 0.5712(5) 0.62998(18)
H86 H 0.9544 0.5525 0.6456
H96 H 0.9637 0.5408 0.6134
C109_2 C 0.2695(5) 0.7971(7) 0.65496(16)
C110_2 C 0.1391(5) 0.5363(7) 0.67838(16)
C111_2 C 0.2029(7) 0.4725(5) 0.65496(16)
C112_2 C 0.4637(7) 0.6029(5) 0.67838(16)
C113_3 C 0.5275(5) 0.7305(5) 0.65496(16)
H113_2 H 0.2248 0.7489 0.6468
H114_2 H 0.1426 0.5845 0.6866
H115_2 H 0.2511 0.4760 0.6468
H116_2 H 0.4155 0.5582 0.6866
H117_3 H 0.5240 0.7752 0.6468
C114_2 C 0.2685(5) 0.8713(6) 0.65479(16)
C115_2 C 0.0639(4) 0.4621(6) 0.67855(16)
C116_2 C 0.1287(6) 0.3973(4) 0.65479(16)
C117_2 C 0.5379(6) 0.6019(5) 0.67855(16)
C118_3 C 0.6027(4) 0.7315(5) 0.65479(16)
H118_2 H 0.2230 0.8729 0.6465
H119_2 H 0.0168 0.4605 0.6869
H120_2 H 0.1271 0.3502 0.6465
H121_2 H 0.5395 0.5564 0.6869
H122_3 H 0.6498 0.7770 0.6465
C119_2 C 0.0551(5) 0.3885(5) 0.6667
C120_4 C 0.6115(5) 0.6667 0.6667
C122_3 C 0.6934(5) 0.6667 0.6667
C126_2 C 0.7447(6) 0.6960(4) 0.69054(13)
C127 C 0.7154(4) 0.6374(4) 0.64280(13)
C131_2 C 0.8222(6) 0.6955(4) 0.69038(13)
C132 C 0.7934(4) 0.6379(4) 0.64296(13)
C134_3 C 0.8472(5) 0.6667 0.6667
C138_2 C 0.8783(7) 0.7311(5) 0.71607(14)
C139 C 0.8139(5) 0.6023(5) 0.61727(14)
H126_2 H 0.8495 0.7456 0.7300
H127 H 0.7706 0.5878 0.6034
H131_2 H 0.9304 0.7810 0.7110
H132 H 0.8161 0.5524 0.6224
H136_2 H 0.8905 0.6893 0.7236
H137 H 0.8679 0.6441 0.6098
C141 C 0.0099(5) 0.2791(8) 0.71547(14)
C143_2 C 0.7209(8) 0.7309(6) 0.71547(14)
C144_2 C 0.6567(5) 0.6025(6) 0.61787(14)
H141_2 H 0.7637 0.7475 0.7298
H142 H 0.6829 0.5859 0.6036
H144 H 0.0209 0.3329 0.7228
H146_2 H 0.6671 0.6881 0.7228
H147_2 H 0.6457 0.6453 0.6106
H149 H 0.0624 0.2830 0.7098
H151_2 H 0.7170 0.7795 0.7098
H152_2 H 0.6042 0.5539 0.6236
Cd2_5 Cd 0.0000 1.0000 0.0000
Br2_4 Br -0.0000 1.0000 0.05635(2)
Cd7_2 Cd 0.73170(3) 0.6667 0.1667
B4_4 B 0.6009(6) 1.0000 0.0000
N8 N 0.7189(4) 0.7519(4) 0.13374(11)
N17_5 N 0.1255(4) 1.0000 0.0000
C38_2 C 0.7670(5) 0.7796(6) 0.10967(15)
H37_2 H 0.8118 0.7691 0.1075
C43_2 C 0.7522(5) 0.8210(6) 0.08938(16)
H42_2 H 0.7880 0.8410 0.0739
C48_2 C 0.6834(4) 0.8345(4) 0.09125(13)
C53_2 C 0.6367(4) 0.8076(4) 0.11564(13)
H47_2 H 0.5914 0.8171 0.1183
C58_2 C 0.6563(5) 0.7664(5) 0.13626(14)
H52_2 H 0.6234 0.7486 0.1525
C63_2 C 0.6631(4) 0.8772(4) 0.06823(13)
C68_2 C 0.7156(4) 0.9623(4) 0.06330(13)
C78_2 C 0.6226(4) 0.9558(4) 0.02469(13)
C83_2 C 0.5669(4) 0.8688(4) 0.03132(13)
C88_2 C 0.5879(4) 0.8296(4) 0.05295(12)
C93_2 C 0.5325(5) 0.7348(4) 0.05708(14)
H57_2 H 0.5540 0.7170 0.0725
H62_2 H 0.5331 0.7058 0.0403
H67_2 H 0.4754 0.7215 0.0611
C98_2 C 0.4883(5) 0.8168(5) 0.01430(17)
H72_2 H 0.4830 0.8523 0.0004
H77_2 H 0.4395 0.7932 0.0264
H82_2 H 0.4919 0.7717 0.0051
H102_2 H 0.7964 0.9793 0.0959
C112_3 C 0.1304(7) 0.9362(5) 0.01171(16)
H116_3 H 0.0822 0.8915 0.0199
C117_3 C 0.2046(6) 0.9352(5) 0.01188(16)
H121_3 H 0.2062 0.8897 0.0202
C120_5 C 0.2782(5) 1.0000 0.0000
C122_4 C 0.3601(5) 1.0000 0.0000
C134_4 C 0.5139(5) 1.0000 0.0000
Br4_4 Br 0.77819(6) 0.79573(11) 0.202451(19)
Br5_5 Br 0.64913(9) 0.53760(11) 0.130882(19)
N10_5 N 0.6337(6) 0.5814(7) 0.19959(11)
N14_6 N 0.8559(4) 0.6667(6) 0.1667
C25_2 C 0.8574(4) 0.5943(5) 0.16528(15)
H25_2 H 0.8060 0.5434 0.1642
C26_2 C 0.9309(4) 0.5914(4) 0.16531(15)
H26_2 H 0.9293 0.5395 0.1644
C145 C 0.9298(6) 0.7390(5) 0.16805(15)
H153 H 0.9293 0.7899 0.1691
Cd7_3 Cd 0.39837(3) 0.0000 0.5000
B4_5 B 0.2676(6) 0.3333 0.3333
N8_2 N 0.3856(4) 0.0852(4) 0.46707(11)
C37_3 C 0.6541(8) 0.5537(6) 0.22366(15)
C38_3 C 0.4337(5) 0.1129(6) 0.44300(15)
H36_3 H 0.7094 0.5642 0.2258
H37_3 H 0.4785 0.1024 0.4408
C42_3 C 0.5979(8) 0.5123(6) 0.24395(16)
C43_3 C 0.4189(5) 0.1543(6) 0.42271(16)
H41_3 H 0.6137 0.4923 0.2594
H42_3 H 0.4547 0.1743 0.4072
C47_3 C 0.5156(6) 0.4988(4) 0.24208(13)
C48_3 C 0.3501(4) 0.1678(4) 0.42458(13)
C52_3 C 0.4958(6) 0.5257(4) 0.21769(13)
C53_3 C 0.3034(4) 0.1409(4) 0.44897(13)
H46_3 H 0.4410 0.5162 0.2150
H47_3 H 0.2581 0.1504 0.4516
C57_3 C 0.5566(7) 0.5669(5) 0.19707(14)
C58_3 C 0.3230(5) 0.0997(5) 0.46959(14)
H51_3 H 0.5415 0.5847 0.1808
H52_3 H 0.2901 0.0819 0.4858
C62_3 C 0.4526(6) 0.4561(4) 0.26510(13)
C63_3 C 0.3298(4) 0.2105(4) 0.40156(13)
C67_3 C 0.4200(6) 0.3710(4) 0.27003(13)
C68_3 C 0.3823(4) 0.2956(4) 0.39663(13)
C72_2 C 0.3627(6) 0.3330(4) 0.29209(14)
C73_3 C 0.3630(4) 0.3336(4) 0.37457(14)
C77_3 C 0.3335(6) 0.3775(4) 0.30864(13)
C78_3 C 0.2893(4) 0.2891(4) 0.35802(13)
C82_3 C 0.3648(6) 0.4645(4) 0.30201(13)
C83_3 C 0.2336(4) 0.2021(4) 0.36465(13)
C87_3 C 0.4250(6) 0.5037(4) 0.28038(12)
C88_3 C 0.2546(4) 0.1629(4) 0.38628(12)
C92_3 C 0.4644(6) 0.5985(4) 0.27625(14)
C93_3 C 0.1992(5) 0.0681(4) 0.39041(14)
H56_3 H 0.5037 0.6163 0.2608
H57_3 H 0.2207 0.0503 0.4058
H61_3 H 0.4940 0.6275 0.2930
H62_3 H 0.1998 0.0391 0.3736
H66_3 H 0.4206 0.6118 0.2722
H67_3 H 0.1421 0.0548 0.3944
C97_3 C 0.3382(7) 0.5165(5) 0.31903(17)
C98_3 C 0.1550(5) 0.1501(5) 0.34763(17)
H71_3 H 0.2974 0.4810 0.3329
H72_3 H 0.1497 0.1856 0.3337
H76_3 H 0.3130 0.5401 0.3069
H77_3 H 0.1062 0.1265 0.3597
H81_3 H 0.3869 0.5616 0.3282
H82_3 H 0.1586 0.1050 0.3384
C102_2 C 0.3266(7) 0.2378(5) 0.29664(18)
C103_3 C 0.4221(5) 0.4288(5) 0.37002(18)
H86_2 H 0.2878 0.2191 0.3122
H87_3 H 0.4020 0.4475 0.3544
H91_2 H 0.3721 0.2269 0.3005
H92_3 H 0.4785 0.4397 0.3661
H96_2 H 0.2971 0.2074 0.2800
H97_3 H 0.4230 0.4592 0.3866
C107_2 C 0.4435(6) 0.3180(5) 0.25129(16)
C108_3 C 0.4588(4) 0.3486(5) 0.41537(16)
H101_3 H 0.4838 0.3540 0.2374
H102_3 H 0.4631 0.3126 0.4292
H106_2 H 0.3934 0.2746 0.2421
H107_3 H 0.4521 0.3920 0.4245
H111_2 H 0.4683 0.2921 0.2625
H112_3 H 0.5095 0.3745 0.4041
C122_5 C 0.0268(5) 0.3333 0.3333
C126_3 C 0.0781(6) 0.3626(4) 0.35720(13)
C127_2 C 0.0488(4) 0.3040(4) 0.30946(13)
C131_3 C 0.1556(6) 0.3621(4) 0.35704(13)
C132_2 C 0.1268(4) 0.3045(4) 0.30962(13)
C134_5 C 0.1806(5) 0.3333 0.3333
C138_3 C 0.2117(7) 0.3977(5) 0.38273(14)
C139_2 C 0.1473(5) 0.2689(5) 0.28393(14)
H126_3 H 0.1829 0.4122 0.3966
H127_2 H 0.1040 0.2544 0.2700
H131_3 H 0.2638 0.4476 0.3776
H132_2 H 0.1495 0.2190 0.2890
H136_3 H 0.2239 0.3559 0.3902
H137_2 H 0.2013 0.3107 0.2764
C143_3 C 0.0543(8) 0.3975(6) 0.38213(14)
H141_3 H 0.0971 0.4141 0.3964
H142_2 H 0.0163 0.2525 0.2702
H146_3 H 0.0005 0.3547 0.3894
H151_3 H 0.0504 0.4461 0.3764
Br4_5 Br 0.44486(6) 0.12906(11) 0.535784(19)
N14_7 N 0.5226(4) 0.0000(6) 0.5000
B2_5 B 1.0000 0.0000 0.5000
C27_4 C 0.6749(4) 0.0000 0.5000
C28_4 C 0.7575(5) 0.0000 0.5000
C29_3 C 0.8137(4) 0.0372(3) 0.52222(12)
C30_3 C 0.8929(3) 0.0418(4) 0.52179(12)
C31_4 C 0.9123(5) 0.0000 0.5000
C32_3 C 0.9516(4) 0.0833(4) 0.54586(13)
H27_3 H 0.9277 0.1075 0.5583
H29_3 H 0.9595 0.0419 0.5558
C33_3 C 0.7912(4) 0.0718(4) 0.54783(13)
H30_3 H 0.7359 0.0655 0.5453
H31_3 H 0.8324 0.1309 0.5501
H32_3 H 0.7910 0.0410 0.5642
C145_2 C 0.5964(6) 0.0724(5) 0.50139(15)
H153_2 H 0.5959 0.1233 0.5025
C150_3 C 0.6728(6) 0.0753(4) 0.50136(15)
H158_3 H 0.7231 0.1272 0.5023
H169_3 H 0.9946 0.1221 0.4610
Cd2_6 Cd 0.0000 1.0000 1.0000
Br8_4 Br 0.0000 1.0000 0.94365(2)
B4_6 B 0.6009(6) 1.0000 1.0000
N17_6 N 0.1255(4) 1.0000 1.0000
C72_3 C 0.6960(6) 0.9997(4) 0.95876(14)
C102_3 C 0.6599(7) 0.9045(5) 0.96331(18)
H86_3 H 0.6211 0.8858 0.9789
H91_3 H 0.7054 0.8936 0.9672
H96_3 H 0.6304 0.8741 0.9467
C107_3 C 0.7768(6) 0.9847(5) 0.91796(16)
H106_3 H 0.7267 0.9413 0.9088
H111_3 H 0.8016 0.9588 0.9292
C120_6 C 0.2782(5) 1.0000 1.0000
C122_6 C 0.3601(5) 1.0000 1.0000
C127_3 C 0.3821(4) 0.9707(4) 0.97613(13)
C132_3 C 0.4601(4) 0.9712(4) 0.97629(13)
C134_6 C 0.5139(5) 1.0000 1.0000
C139_3 C 0.4806(5) 0.9356(5) 0.95060(14)
H127_3 H 0.4373 0.9211 0.9367
H132_3 H 0.4828 0.8857 0.9557
H137_3 H 0.5346 0.9774 0.9431
C144_3 C 0.3234(5) 0.9358(6) 0.95120(14)
H142_3 H 0.3496 0.9192 0.9369
H147_3 H 0.3124 0.9786 0.9439
H152_3 H 0.2709 0.8872 0.9569
Cd2_7 Cd 1.0000 0.0000 0.0000
Br2_5 Br 1.0000 -0.0000 0.05635(2)
B1_4 B 1.0000 0.6009(6) 0.0000
N3_5 N 1.0000 0.1255(4) 0.0000
C18_5 C 1.0000 0.2782(5) 0.0000
C19_4 C 1.0000 0.3601(5) 0.0000
C20_2 C 0.9707(4) 0.3821(4) 0.02387(13)
C21_2 C 0.9712(4) 0.4601(4) 0.02371(13)
C22_4 C 1.0000 0.5139(5) 0.0000
C23_2 C 0.9356(5) 0.4806(5) 0.04940(14)
H19_2 H 0.9211 0.4373 0.0633
H20_2 H 0.8857 0.4828 0.0443
H21_2 H 0.9774 0.5346 0.0569
C24_3 C 0.9358(6) 0.3234(5) 0.04880(14)
H22_2 H 0.9192 0.3496 0.0631
H23_3 H 0.9786 0.3124 0.0561
H24_3 H 0.8872 0.2709 0.0431
C69_2 C 0.9997(4) 0.6960(6) 0.04124(14)
C99_2 C 0.9045(5) 0.6599(7) 0.03669(18)
H83_2 H 0.8858 0.6211 0.0211
H88_2 H 0.8936 0.7054 0.0328
H93_2 H 0.8741 0.6304 0.0533
C104_2 C 0.9847(5) 0.7768(6) 0.08204(16)
H103_2 H 0.9413 0.7267 0.0912
H108_2 H 0.9588 0.8016 0.0708
Cd1 Cd 0.6667 0.73170(3) 0.8333
Cd2_8 Cd 1.0000 -0.0000 1.0000
Br1 Br 0.79573(7) 0.77819(6) 0.797549(19)
B1_5 B 1.0000 0.6009(6) 1.0000
N1 N 0.7519(4) 0.7189(4) 0.86626(11)
N2 N 0.6667 0.8559(4) 0.8333
N3_6 N 1.0000 0.1255(4) 1.0000
C1_2 C 0.7796(6) 0.7670(5) 0.89033(15)
H1_2 H 0.7691 0.8118 0.8925
C2_2 C 0.8210(6) 0.7522(5) 0.91062(16)
H2_2 H 0.8410 0.7880 0.9261
C3_2 C 0.8345(4) 0.6834(4) 0.90875(13)
C4_2 C 0.8076(4) 0.6367(4) 0.88436(13)
H3_2 H 0.8171 0.5914 0.8817
C5_2 C 0.7664(5) 0.6563(5) 0.86374(14)
H4_2 H 0.7486 0.6234 0.8475
C6_2 C 0.8772(4) 0.6631(4) 0.93177(13)
C7_2 C 0.9623(4) 0.7156(4) 0.93670(13)
C9_2 C 0.9558(4) 0.6226(4) 0.97531(13)
C10_2 C 0.8688(4) 0.5669(4) 0.96868(13)
C11_2 C 0.8296(4) 0.5879(4) 0.94705(12)
C12_2 C 0.7348(4) 0.5325(5) 0.94292(14)
H5_2 H 0.7170 0.5540 0.9275
H6_2 H 0.7058 0.5331 0.9597
H7_2 H 0.7215 0.4754 0.9389
C13_2 C 0.8168(5) 0.4883(5) 0.98570(17)
H8_2 H 0.8523 0.4830 0.9996
H9_2 H 0.7932 0.4395 0.9736
H10_2 H 0.7717 0.4919 0.9949
H14_2 H 0.9793 0.7964 0.9041
C18_6 C 1.0000 0.2782(5) 1.0000
C19_5 C 1.0000 0.3601(5) 1.0000
C22_5 C 1.0000 0.5139(5) 1.0000
C25_3 C 0.5943(5) 0.8574(4) 0.83472(15)
H25_3 H 0.5434 0.8060 0.8358
C26_3 C 0.5914(4) 0.9309(4) 0.83469(15)
H26_3 H 0.5395 0.9293 0.8356
Br3_2 Br 0.53760(7) 0.64913(9) 0.869118(19)
Br8_5 Br 1.0000 -0.0000 0.94365(2)
N9_2 N 0.5814(4) 0.6337(6) 0.80041(11)
C109_3 C 0.9362(5) 0.1304(7) 0.98829(16)
H113_3 H 0.8915 0.0822 0.9801
C114_3 C 0.9352(5) 0.2046(6) 0.98812(16)
H118_3 H 0.8897 0.2062 0.9798
C145_3 C 0.7390(5) 0.9298(6) 0.83195(15)
H153_3 H 0.7899 0.9293 0.8309
Cd3_3 Cd -0.0000 0.39833(3) 0.5000
Br5_6 Br 0.12906(11) 0.44486(6) 0.464216(19)
N10_6 N 0.0852(7) 0.3856(4) 0.53293(11)
N14_8 N -0.0000(6) 0.5225(4) 0.5000
B2_6 B -0.0000 1.0000 0.5000
C148_3 C 0.0724(5) 0.5964(6) 0.49861(15)
H157_3 H 0.1233 0.5959 0.4975
C153_3 C 0.0753(4) 0.6728(6) 0.49864(15)
H162_3 H 0.1272 0.7231 0.4977
C156_4 C -0.0000 0.6748(4) 0.5000
C158_4 C -0.0000 0.7574(5) 0.5000
C163_3 C 0.0372(3) 0.8137(4) 0.47778(12)
C168_3 C 0.0418(4) 0.8929(3) 0.47821(12)
C170_4 C -0.0000 0.9122(5) 0.5000
C174_3 C 0.0833(4) 0.9516(4) 0.45414(13)
H166_3 H 0.1075 0.9277 0.4417
H170_3 H 0.1221 0.9946 0.5390
H176_3 H 0.0419 0.9595 0.4442
C179_3 C 0.0718(4) 0.7912(4) 0.45217(13)
H181_3 H 0.0655 0.7359 0.4547
H186_3 H 0.1309 0.8324 0.4499
H191_3 H 0.0410 0.7910 0.4358
B1_6 B 0.3333 0.2676(6) 0.6667
C1_3 C 0.1129(6) 0.4337(5) 0.55700(15)
H1_3 H 0.1024 0.4785 0.5592
C2_3 C 0.1543(6) 0.4189(5) 0.57729(16)
H2_3 H 0.1743 0.4547 0.5928
C3_3 C 0.1678(4) 0.3501(4) 0.57542(13)
C4_3 C 0.1409(4) 0.3034(4) 0.55103(13)
H3_3 H 0.1504 0.2581 0.5484
C5_3 C 0.0997(5) 0.3230(5) 0.53041(14)
H4_3 H 0.0819 0.2901 0.5142
C6_3 C 0.2105(4) 0.3298(4) 0.59844(13)
C7_3 C 0.2956(4) 0.3823(4) 0.60337(13)
C8_3 C 0.3336(4) 0.3630(4) 0.62543(14)
C9_3 C 0.2891(4) 0.2893(4) 0.64198(13)
C10_3 C 0.2021(4) 0.2336(4) 0.63535(13)
C11_3 C 0.1629(4) 0.2546(4) 0.61372(12)
C12_3 C 0.0681(4) 0.1992(5) 0.60959(14)
H5_3 H 0.0503 0.2207 0.5942
H6_3 H 0.0391 0.1998 0.6264
H7_3 H 0.0548 0.1421 0.6056
C13_3 C 0.1501(5) 0.1550(5) 0.65237(17)
H8_3 H 0.1856 0.1497 0.6663
H9_3 H 0.1265 0.1062 0.6403
H10_3 H 0.1050 0.1586 0.6616
C14_3 C 0.4288(5) 0.4221(5) 0.62998(18)
H11_3 H 0.4475 0.4020 0.6456
H12_3 H 0.4397 0.4785 0.6339
H13_3 H 0.4592 0.4230 0.6134
C15_3 C 0.3486(5) 0.4588(4) 0.58463(16)
H14_3 H 0.3126 0.4631 0.5708
H15_3 H 0.3920 0.4521 0.5755
H16_3 H 0.3745 0.5095 0.5959
C19_6 C 0.3333 0.0268(5) 0.6667
C20_3 C 0.3040(4) 0.0488(4) 0.69054(13)
C21_3 C 0.3045(4) 0.1268(4) 0.69038(13)
C22_6 C 0.3333 0.1806(5) 0.6667
C23_3 C 0.2689(5) 0.1473(5) 0.71607(14)
H19_3 H 0.2544 0.1040 0.7300
H20_3 H 0.2190 0.1495 0.7110
H21_3 H 0.3107 0.2013 0.7236
H22_3 H 0.2525 0.0163 0.7298
C34_3 C 0.5537(6) 0.6541(8) 0.77634(15)
H33_3 H 0.5642 0.7094 0.7742
C39_3 C 0.5123(6) 0.5979(8) 0.75605(16)
H38_3 H 0.4923 0.6137 0.7406
C44_3 C 0.4988(4) 0.5156(6) 0.75792(13)
C49_3 C 0.5257(4) 0.4958(6) 0.78231(13)
H43_3 H 0.5162 0.4410 0.7850
C54_3 C 0.5669(5) 0.5566(7) 0.80293(14)
H48_3 H 0.5847 0.5415 0.8192
C59_3 C 0.4561(4) 0.4526(6) 0.73490(13)
C64_3 C 0.3710(4) 0.4200(6) 0.72997(13)
C69_3 C 0.3330(4) 0.3627(6) 0.70791(14)
C74_3 C 0.3775(4) 0.3335(6) 0.69136(13)
C79_3 C 0.4645(4) 0.3648(6) 0.69799(13)
C84_3 C 0.5037(4) 0.4250(6) 0.71962(12)
C89_3 C 0.5985(4) 0.4644(6) 0.72375(14)
H53_3 H 0.6163 0.5037 0.7392
H58_3 H 0.6275 0.4940 0.7070
H63_3 H 0.6118 0.4206 0.7278
C94_3 C 0.5165(5) 0.3382(7) 0.68097(17)
H68_3 H 0.4810 0.2974 0.6671
H73_3 H 0.5401 0.3130 0.6931
H78_3 H 0.5616 0.3869 0.6718
C99_3 C 0.2378(5) 0.3266(7) 0.70336(18)
H83_3 H 0.2191 0.2878 0.6878
H88_3 H 0.2269 0.3721 0.6995
H93_3 H 0.2074 0.2971 0.7200
C104_3 C 0.3180(5) 0.4435(6) 0.74871(16)
H98_3 H 0.3540 0.4838 0.7626
H103_3 H 0.2746 0.3934 0.7579
H108_3 H 0.2921 0.4683 0.7375
C123_3 C 0.3626(4) 0.0781(6) 0.64280(13)
C128_3 C 0.3621(4) 0.1556(6) 0.64296(13)
C135_3 C 0.3977(5) 0.2117(7) 0.61727(14)
H123_3 H 0.4122 0.1829 0.6034
H128_3 H 0.4476 0.2638 0.6224
H133_3 H 0.3559 0.2239 0.6098
C140_3 C 0.3975(6) 0.0543(8) 0.61787(14)
H138_3 H 0.4141 0.0971 0.6036
H143_3 H 0.3547 0.0005 0.6106
H148_3 H 0.4461 0.0504 0.6236
Cd2_9 Cd 1.0000 1.0000 0.0000
Br2_6 Br 1.0000 1.0000 0.05635(2)
Br4_6 Br 0.01754(9) 0.22181(6) 0.202451(19)
B3 B 0.3991(6) 0.3991(6) 0.0000
N6_2 N 0.0330(6) 0.2811(4) 0.13374(11)
N16_3 N 0.8745(4) 0.8745(4) 0.0000
C36_3 C 0.0126(8) 0.2330(5) 0.10967(15)
C41_3 C 0.0688(8) 0.2478(5) 0.08938(16)
H40_3 H 0.0530 0.2120 0.0739
C46_3 C 0.1511(6) 0.3166(4) 0.09125(13)
C51_2 C 0.1709(6) 0.3633(4) 0.11564(13)
H45_2 H 0.2257 0.4086 0.1183
C56_2 C 0.1101(7) 0.3437(5) 0.13626(14)
H50_2 H 0.1252 0.3766 0.1525
C61_2 C 0.2141(6) 0.3369(4) 0.06823(13)
C66_3 C 0.2467(6) 0.2844(4) 0.06330(13)
C71_3 C 0.3040(6) 0.3037(4) 0.04124(14)
C76_2 C 0.3332(6) 0.3774(4) 0.02469(13)
C81_2 C 0.3019(6) 0.4331(4) 0.03132(13)
C86_2 C 0.2417(6) 0.4121(4) 0.05295(12)
C91_2 C 0.2023(6) 0.4675(5) 0.05708(14)
H55_2 H 0.1630 0.4460 0.0725
H60_2 H 0.1727 0.4669 0.0403
H65_2 H 0.2461 0.5246 0.0611
C96_2 C 0.3285(7) 0.5117(5) 0.01430(17)
H70 H 0.3693 0.5170 0.0004
H75 H 0.3537 0.5605 0.0264
H80_2 H 0.2798 0.5081 0.0051
C101_2 C 0.3401(7) 0.2446(5) 0.03669(18)
H85_2 H 0.3789 0.2647 0.0211
H90_3 H 0.2946 0.1882 0.0328
H95_2 H 0.3696 0.2437 0.0533
C106_3 C 0.2232(6) 0.2079(4) 0.08204(16)
H100_3 H 0.1829 0.2036 0.0959
H105_3 H 0.2733 0.2146 0.0912
H110_3 H 0.1984 0.1572 0.0708
C110_3 C 0.8058(5) 0.8696(7) 0.01171(16)
H114_3 H 0.8093 0.9178 0.0199
C115_3 C 0.7306(4) 0.7954(6) 0.01188(16)
H119_3 H 0.6835 0.7938 0.0202
C119_3 C 0.7218(5) 0.7218(5) 0.0000
C121 C 0.6399(5) 0.6399(5) 0.0000
C124 C 0.6179(4) 0.5886(6) 0.02387(13)
C129 C 0.5399(4) 0.5111(6) 0.02371(13)
C133 C 0.4861(5) 0.4861(5) 0.0000
C136 C 0.5194(5) 0.4550(7) 0.04940(14)
H124 H 0.5627 0.4838 0.0633
H129 H 0.5172 0.4029 0.0443
H134 H 0.4654 0.4428 0.0569
C141_2 C 0.6766(5) 0.6124(8) 0.04880(14)
H139 H 0.6504 0.5696 0.0631
H144_2 H 0.6876 0.6662 0.0561
H149_2 H 0.7291 0.6163 0.0431
B3_2 B 0.0658(6) 0.7324(6) 0.3333
C50_2 C 0.0300(4) 0.5042(6) 0.21769(13)
H44_2 H 0.0753 0.5590 0.2150
C55_2 C 0.0104(5) 0.4434(7) 0.19707(14)
H49_2 H 0.0433 0.4585 0.1808
C60_2 C 0.0036(4) 0.5474(6) 0.26510(13)
C75_2 C 0.0441(4) 0.6665(6) 0.30864(13)
C80_2 C 0.0998(4) 0.6352(6) 0.30201(13)
C85_2 C 0.0788(4) 0.5750(6) 0.28038(12)
C90_2 C 0.1342(5) 0.5356(6) 0.27625(14)
H54_2 H 0.1127 0.4963 0.2608
H59_2 H 0.1336 0.5060 0.2930
H64_2 H 0.1913 0.5794 0.2722
C95_2 C 0.1784(5) 0.6618(7) 0.31903(17)
H69 H 0.1837 0.7026 0.3329
H70_2 H 0.0360 0.8503 0.3337
H74 H 0.2272 0.6870 0.3069
H75_2 H 0.0204 0.8938 0.3597
H79_2 H 0.1748 0.6131 0.3282
C101_3 C 0.0068(7) 0.5779(5) 0.37002(18)
H85_3 H 0.0456 0.5980 0.3544
H95_3 H 0.0363 0.5770 0.3866
C121_2 C 0.3066(5) 0.9732(5) 0.3333
C124_2 C 0.2846(4) 0.9219(6) 0.35720(13)
C125 C 0.2553(6) 0.9512(4) 0.30946(13)
C129_2 C 0.2066(4) 0.8444(6) 0.35704(13)
C130 C 0.1778(6) 0.8732(4) 0.30962(13)
C133_2 C 0.1528(5) 0.8194(5) 0.3333
C136_2 C 0.1861(5) 0.7883(7) 0.38273(14)
C137 C 0.1217(7) 0.8527(5) 0.28393(14)
H124_2 H 0.2294 0.8171 0.3966
H125 H 0.1505 0.8960 0.2700
H129_2 H 0.1839 0.7362 0.3776
H130 H 0.0696 0.8505 0.2890
H134_2 H 0.1321 0.7761 0.3902
H135 H 0.1095 0.7987 0.2764
C141_3 C 0.3433(5) 0.9457(8) 0.38213(14)
H139_2 H 0.3171 0.9029 0.3964
H140 H 0.2363 0.9837 0.2702
H144_3 H 0.3543 0.9995 0.3894
H149_3 H 0.3958 0.9496 0.3764
Cd2_10 Cd 1.0000 1.0000 1.0000
Br8_6 Br 1.0000 1.0000 0.94365(2)
B3_3 B 0.3991(6) 0.3991(6) 1.0000
N5 N 0.2811(4) 0.0330(6) 0.86626(11)
N16_4 N 0.8745(4) 0.8745(4) 1.0000
C35_3 C 0.2330(5) 0.0126(8) 0.89033(15)
C40_3 C 0.2478(5) 0.0688(8) 0.91062(16)
H39_3 H 0.2120 0.0530 0.9261
C45_3 C 0.3166(4) 0.1511(6) 0.90875(13)
C50_3 C 0.3633(4) 0.1709(6) 0.88436(13)
H44_3 H 0.4086 0.2257 0.8817
C55_3 C 0.3437(5) 0.1101(7) 0.86374(14)
H49_3 H 0.3766 0.1252 0.8475
C60_3 C 0.3369(4) 0.2141(6) 0.93177(13)
C65_3 C 0.2844(4) 0.2467(6) 0.93670(13)
C70_3 C 0.3037(4) 0.3040(6) 0.95876(14)
C75_3 C 0.3774(4) 0.3332(6) 0.97531(13)
C80_3 C 0.4331(4) 0.3019(6) 0.96868(13)
C85_3 C 0.4121(4) 0.2417(6) 0.94705(12)
C90_3 C 0.4675(5) 0.2023(6) 0.94292(14)
H54_3 H 0.4460 0.1630 0.9275
H59_3 H 0.4669 0.1727 0.9597
H64_3 H 0.5246 0.2461 0.9389
C95_3 C 0.5117(5) 0.3285(7) 0.98570(17)
H69_2 H 0.5170 0.3693 0.9996
H74_2 H 0.5605 0.3537 0.9736
H79_3 H 0.5081 0.2798 0.9949
C100_2 C 0.2446(5) 0.3401(7) 0.96331(18)
H84_2 H 0.2647 0.3789 0.9789
H89_3 H 0.1882 0.2946 0.9672
H94_2 H 0.2437 0.3696 0.9467
C105_3 C 0.2079(4) 0.2232(6) 0.91796(16)
H99_3 H 0.2036 0.1829 0.9041
H104_3 H 0.2146 0.2733 0.9088
H109_3 H 0.1572 0.1984 0.9292
C111_3 C 0.8696(7) 0.8058(5) 0.98829(16)
H115_3 H 0.9178 0.8093 0.9801
C116_3 C 0.7954(6) 0.7306(4) 0.98812(16)
H120_3 H 0.7938 0.6835 0.9798
C119_4 C 0.7218(5) 0.7218(5) 1.0000
C121_3 C 0.6399(5) 0.6399(5) 1.0000
C125_2 C 0.5886(6) 0.6179(4) 0.97613(13)
C130_2 C 0.5111(6) 0.5399(4) 0.97629(13)
C133_3 C 0.4861(5) 0.4861(5) 1.0000
C137_2 C 0.4550(7) 0.5194(5) 0.95060(14)
H125_2 H 0.4838 0.5627 0.9367
H130_2 H 0.4029 0.5172 0.9557
H135_2 H 0.4428 0.4654 0.9431
C142_2 C 0.6124(8) 0.6766(5) 0.95120(14)
H140_2 H 0.5696 0.6504 0.9369
H145_2 H 0.6662 0.6876 0.9439
H150_2 H 0.6163 0.7291 0.9569
Br1_2 Br 0.22181(6) 0.01754(9) 0.797549(19)
B3_4 B 0.7324(6) 0.0658(6) 0.6667
C51_3 C 0.5042(6) 0.0300(4) 0.78231(13)
H45_3 H 0.5590 0.0753 0.7850
C56_3 C 0.4434(7) 0.0104(5) 0.80293(14)
H50_3 H 0.4585 0.0433 0.8192
C61_3 C 0.5474(6) 0.0036(4) 0.73490(13)
C76_3 C 0.6665(6) 0.0441(4) 0.69136(13)
C81_3 C 0.6352(6) 0.0998(4) 0.69799(13)
C86_3 C 0.5750(6) 0.0788(4) 0.71962(12)
C91_3 C 0.5356(6) 0.1342(5) 0.72375(14)
H55_3 H 0.4963 0.1127 0.7392
H60_3 H 0.5060 0.1336 0.7070
H65_3 H 0.5794 0.1913 0.7278
C96_3 C 0.6618(7) 0.1784(5) 0.68097(17)
H69_3 H 0.8503 0.0360 0.6663
H70_3 H 0.7026 0.1837 0.6671
H74_3 H 0.8938 0.0204 0.6403
H75_3 H 0.6870 0.2272 0.6931
H80_3 H 0.6131 0.1748 0.6718
C100_3 C 0.5779(5) 0.0068(7) 0.62998(18)
H84_3 H 0.5980 0.0456 0.6456
H94_3 H 0.5770 0.0363 0.6134
C121_4 C 0.9732(5) 0.3066(5) 0.6667
C124_3 C 0.9512(4) 0.2553(6) 0.69054(13)
C125_3 C 0.9219(6) 0.2846(4) 0.64280(13)
C129_3 C 0.8732(4) 0.1778(6) 0.69038(13)
C130_3 C 0.8444(6) 0.2066(4) 0.64296(13)
C133_4 C 0.8194(5) 0.1528(5) 0.6667
C136_3 C 0.8527(5) 0.1217(7) 0.71607(14)
C137_3 C 0.7883(7) 0.1861(5) 0.61727(14)
H124_3 H 0.8960 0.1505 0.7300
H125_3 H 0.8171 0.2294 0.6034
H129_3 H 0.8505 0.0696 0.7110
H130_3 H 0.7362 0.1839 0.6224
H134_3 H 0.7987 0.1095 0.7236
H135_3 H 0.7761 0.1321 0.6098
C142_3 C 0.9457(8) 0.3433(5) 0.61787(14)
H139_3 H 0.9837 0.2363 0.7298
H140_3 H 0.9029 0.3171 0.6036
H145_3 H 0.9995 0.3543 0.6106
H150_3 H 0.9496 0.3958 0.6236
loop_
_geom_bond_atom_site_label_1
_geom_bond_atom_site_label_2
_geom_bond_site_symmetry_1
_geom_bond_site_symmetry_2
Br7 Cd6 1_555 1_555
N11 Cd6 1_555 1_555
N15 Cd6 1_555 1_555
B2 C31 1_555 1_555
C28 C27 1_555 1_555
C29 C28 1_555 1_555
C30 C29 1_555 1_555
C31 C30 1_555 1_555
C32 C30 1_555 1_555
H27 C32 1_555 1_555
H28 C32 1_555 1_555
H29 C32 1_555 1_555
C33 C29 1_555 1_555
H30 C33 1_555 1_555
H31 C33 1_555 1_555
H32 C33 1_555 1_555
N15 C148 1_555 1_555
C148 H157 1_555 1_555
C149 N15 1_555 1_555
H156 C149 1_555 1_555
C150 C27 1_555 1_555
C153 C148 1_555 1_555
C154 C149 1_555 1_555
H158 C150 1_555 1_555
H159 C152 1_555 1_555
H161 C154 1_555 1_555
H162 C153 1_555 1_555
C156 C153 1_555 1_555
C157 C155 1_555 1_555
C158 C156 1_555 1_555
C159 C28 1_555 1_555
C160 C157 1_555 1_555
C161 C157 1_555 1_555
C162 C158 1_555 1_555
C163 C158 1_555 1_555
C164 C31 1_555 1_555
C165 C160 1_555 1_555
C166 C161 1_555 1_555
C167 C162 1_555 1_555
C168 C163 1_555 1_555
C169 B2 1_555 1_555
C170 B2 1_555 1_555
C171 C164 1_555 1_555
C172 C166 1_555 1_555
C173 C165 1_555 1_555
C174 C168 1_555 1_555
C175 C167 1_555 1_555
H163 C171 1_555 1_555
H164 C172 1_555 1_555
H165 C173 1_555 1_555
H166 C174 1_555 1_555
H167 C175 1_555 1_555
H168 C171 1_555 1_555
H169 C172 1_555 1_555
H170 C173 1_555 1_555
H171 C174 1_555 1_555
H172 C175 1_555 1_555
H173 C171 1_555 1_555
H174 C172 1_555 1_555
H175 C173 1_555 1_555
H176 C174 1_555 1_555
H177 C175 1_555 1_555
C176 C159 1_555 1_555
C177 C161 1_555 1_555
C178 C160 1_555 1_555
C179 C163 1_555 1_555
C180 C162 1_555 1_555
H178 C176 1_555 1_555
H179 C177 1_555 1_555
H180 C178 1_555 1_555
H181 C179 1_555 1_555
H182 C180 1_555 1_555
H183 C176 1_555 1_555
H184 C177 1_555 1_555
H185 C178 1_555 1_555
H186 C179 1_555 1_555
H187 C180 1_555 1_555
H188 C176 1_555 1_555
H189 C177 1_555 1_555
H190 C178 1_555 1_555
H191 C179 1_555 1_555
H192 C180 1_555 1_555
C152 C155 1_555 1_555
C154 C156 1_555 1_555
C159 C164 1_555 1_555
C165 C169 1_555 1_555
C166 C169 1_555 1_555
C167 C170 1_555 1_555
C168 C170 1_555 1_555
Br5 Cd3 1_555 1_555
N10 Cd3 1_555 1_555
N14 Cd3 1_555 1_555
B2_2 C31_2 1_555 1_555
C28_2 C27_2 1_555 1_555
C29_2 C28_2 1_555 1_555
C30_2 C29_2 1_555 1_555
C31_2 C30_2 1_555 1_555
C32_2 C30_2 1_555 1_555
H27_2 C32_2 1_555 1_555
H28_2 C32_2 1_555 1_555
H29_2 C32_2 1_555 1_555
C33_2 C29_2 1_555 1_555
H30_2 C33_2 1_555 1_555
H31_2 C33_2 1_555 1_555
H32_2 C33_2 1_555 1_555
N14 C148_2 1_555 1_555
C148_2 H157_2 1_555 1_555
C149_2 N14 1_555 1_555
H156_2 C149_2 1_555 1_555
C150_2 C27_2 1_555 1_555
C153_2 C148_2 1_555 1_555
C154_2 C149_2 1_555 1_555
H158_2 C150_2 1_555 1_555
H159_2 C152_2 1_555 1_555
H161_2 C154_2 1_555 1_555
H162_2 C153_2 1_555 1_555
C156_2 C153_2 1_555 1_555
C157_2 C155_2 1_555 1_555
C158_2 C156_2 1_555 1_555
C159_2 C28_2 1_555 1_555
C160_2 C157_2 1_555 1_555
C161_2 C157_2 1_555 1_555
C162_2 C158_2 1_555 1_555
C163_2 C158_2 1_555 1_555
C164_2 C31_2 1_555 1_555
C165_2 C160_2 1_555 1_555
C166_2 C161_2 1_555 1_555
C167_2 C162_2 1_555 1_555
C168_2 C163_2 1_555 1_555
C169_2 B2_2 1_555 1_555
C170_2 B2_2 1_555 1_555
C171_2 C164_2 1_555 1_555
C172_2 C166_2 1_555 1_555
C173_2 C165_2 1_555 1_555
C174_2 C168_2 1_555 1_555
C175_2 C167_2 1_555 1_555
H163_2 C171_2 1_555 1_555
H164_2 C172_2 1_555 1_555
H165_2 C173_2 1_555 1_555
H166_2 C174_2 1_555 1_555
H167_2 C175_2 1_555 1_555
H168_2 C171_2 1_555 1_555
H169_2 C172_2 1_555 1_555
H170_2 C173_2 1_555 1_555
H171_2 C174_2 1_555 1_555
H172_2 C175_2 1_555 1_555
H173_2 C171_2 1_555 1_555
H174_2 C172_2 1_555 1_555
H175_2 C173_2 1_555 1_555
H176_2 C174_2 1_555 1_555
H177_2 C175_2 1_555 1_555
C176_2 C159_2 1_555 1_555
C177_2 C161_2 1_555 1_555
C178_2 C160_2 1_555 1_555
C179_2 C163_2 1_555 1_555
C180_2 C162_2 1_555 1_555
H178_2 C176_2 1_555 1_555
H179_2 C177_2 1_555 1_555
H180_2 C178_2 1_555 1_555
H181_2 C179_2 1_555 1_555
H182_2 C180_2 1_555 1_555
H183_2 C176_2 1_555 1_555
H184_2 C177_2 1_555 1_555
H185_2 C178_2 1_555 1_555
H186_2 C179_2 1_555 1_555
H187_2 C180_2 1_555 1_555
H188_2 C176_2 1_555 1_555
H189_2 C177_2 1_555 1_555
H190_2 C178_2 1_555 1_555
H191_2 C179_2 1_555 1_555
H192_2 C180_2 1_555 1_555
C152_2 C155_2 1_555 1_555
C154_2 C156_2 1_555 1_555
C159_2 C164_2 1_555 1_555
C165_2 C169_2 1_555 1_555
C166_2 C169_2 1_555 1_555
C167_2 C170_2 1_555 1_555
C168_2 C170_2 1_555 1_555
C1 N10 1_555 1_555
H1 C1 1_555 1_555
C2 C1 1_555 1_555
H2 C2 1_555 1_555
C3 C2 1_555 1_555
C8 C7 1_555 1_555
C14 C8 1_555 1_555
H11 C14 1_555 1_555
H12 C14 1_555 1_555
H13 C14 1_555 1_555
C15 C7 1_555 1_555
H14 C15 1_555 1_555
H15 C15 1_555 1_555
H16 C15 1_555 1_555
Cd3_2 N4 1_555 1_555
N4 C34 1_555 1_555
C34 H33_2 1_555 1_555
C39 C34 1_555 1_555
H38 C39 1_555 1_555
C44 C39 1_555 1_555
C49 C44 1_555 1_555
H43 C49 1_555 1_555
C54 N4 1_555 1_555
H48 C54 1_555 1_555
C59 C44 1_555 1_555
C64 C59 1_555 1_555
C69 C64 1_555 1_555
C79 C74 1_555 1_555
C84 C59 1_555 1_555
C89 C84 1_555 1_555
H53 C89 1_555 1_555
H58 C89 1_555 1_555
H63 C89 1_555 1_555
C94 C79 1_555 1_555
H78 C94 1_555 1_555
C104 C64 1_555 1_555
H98 C104 1_555 1_555
H103 C104 1_555 1_555
H108 C104 1_555 1_555
C49 C54 1_555 1_555
C69 C74 1_555 1_555
C79 C84 1_555 1_555
Br5_2 Cd7 1_555 1_555
N10_2 Cd7 1_555 1_555
N14_2 Cd7 1_555 1_555
Cd3_2 Br4 1_555 1_555
N14_3 Cd3_2 1_555 1_555
B2_3 C31_3 1_555 1_555
C25 N14_2 1_555 1_555
H25 C25 1_555 1_555
C26 C25 1_555 1_555
H26 C26 1_555 1_555
C27_3 C26 1_555 1_555
C28_3 C27_3 1_555 1_555
C149_3 N14_3 1_555 1_555
H156_3 C149_3 1_555 1_555
C154_3 C149_3 1_555 1_555
H161_3 C154_3 1_555 1_555
C158_3 C156_3 1_555 1_555
C159_3 C28_3 1_555 1_555
C162_3 C158_3 1_555 1_555
C164_3 C31_3 1_555 1_555
C167_3 C162_3 1_555 1_555
C170_3 B2_3 1_555 1_555
C171_3 C164_3 1_555 1_555
C175_3 C167_3 1_555 1_555
H163_3 C171_3 1_555 1_555
H167_3 C175_3 1_555 1_555
H168_3 C171_3 1_555 1_555
H172_3 C175_3 1_555 1_555
H173_3 C171_3 1_555 1_555
H177_3 C175_3 1_555 1_555
C176_3 C159_3 1_555 1_555
C180_3 C162_3 1_555 1_555
H178_3 C176_3 1_555 1_555
H182_3 C180_3 1_555 1_555
H183_3 C176_3 1_555 1_555
H187_3 C180_3 1_555 1_555
H188_3 C176_3 1_555 1_555
H192_3 C180_3 1_555 1_555
C154_3 C156_3 1_555 1_555
C159_3 C164_3 1_555 1_555
C167_3 C170_3 1_555 1_555
N11 C38 1_555 1_555
C37 N10_2 1_555 1_555
C38 H37 1_555 1_555
H36_2 C37 1_555 1_555
C42 C37 1_555 1_555
C43 C38 1_555 1_555
H41 C42 1_555 1_555
H42 C43 1_555 1_555
C47 C42 1_555 1_555
C48 C43 1_555 1_555
C52 C47 1_555 1_555
H46 C52 1_555 1_555
C57 N10_2 1_555 1_555
H51 C57 1_555 1_555
C62 C47 1_555 1_555
C67 C62 1_555 1_555
C72 C67 1_555 1_555
C73 C68 1_555 1_555
C77 C72 1_555 1_555
C82 C77 1_555 1_555
C87 C62 1_555 1_555
C92 C87 1_555 1_555
H56 C92 1_555 1_555
H61 C92 1_555 1_555
H66 C92 1_555 1_555
C97 C82 1_555 1_555
H81 C97 1_555 1_555
C103 C73 1_555 1_555
H87 C103 1_555 1_555
H92 C103 1_555 1_555
H97 C103 1_555 1_555
C107 C67 1_555 1_555
C108 C68 1_555 1_555
H101 C107 1_555 1_555
H102 C108 1_555 1_555
H106 C107 1_555 1_555
H107 C108 1_555 1_555
H111 C107 1_555 1_555
H112 C108 1_555 1_555
C52 C57 1_555 1_555
C82 C87 1_555 1_555
Cd8 N12 1_555 1_555
N12 C146 1_555 1_555
C146 H155 1_555 1_555
C147 N12 1_555 1_555
H154 C147 1_555 1_555
C151 C146 1_555 1_555
H160 C151 1_555 1_555
Br5_3 Cd5 1_555 1_555
N10_3 Cd5 1_555 1_555
N14_4 Cd5 1_555 1_555
Br3 Cd8 1_555 1_555
N9 Cd8 1_555 1_555
N14_4 C146_2 1_555 1_555
C146_2 H155_2 1_555 1_555
C147_2 N14_4 1_555 1_555
H154_2 C147_2 1_555 1_555
C151_2 C146_2 1_555 1_555
H160_2 C151_2 1_555 1_555
Cd5_2 Br4_2 1_555 1_555
Br5_4 Cd5_2 1_555 1_555
N10_3 C35 1_555 1_555
N6 Cd5_2 1_555 1_555
N10_4 Cd5_2 1_555 1_555
N14_5 Cd5_2 1_555 1_555
C35 H34_2 1_555 1_555
C36 N6 1_555 1_555
H35_2 C36 1_555 1_555
C40 C35 1_555 1_555
C41 C36 1_555 1_555
H39 C40 1_555 1_555
H40 C41 1_555 1_555
C45 C40 1_555 1_555
C46 C41 1_555 1_555
C51 C46 1_555 1_555
H45 C51 1_555 1_555
C56 N6 1_555 1_555
H50 C56 1_555 1_555
C61 C46 1_555 1_555
C66 C61 1_555 1_555
C70 C65 1_555 1_555
C71 C66 1_555 1_555
C81 C76 1_555 1_555
C86 C61 1_555 1_555
C91 C86 1_555 1_555
H55 C91 1_555 1_555
H60 C91 1_555 1_555
H65 C91 1_555 1_555
C96 C81 1_555 1_555
H80 C96 1_555 1_555
C100 C70 1_555 1_555
H84 C100 1_555 1_555
H89 C100 1_555 1_555
H94 C100 1_555 1_555
C105 C65 1_555 1_555
C106 C66 1_555 1_555
H99 C105 1_555 1_555
H100 C106 1_555 1_555
H104 C105 1_555 1_555
H105 C106 1_555 1_555
H109 C105 1_555 1_555
H110 C106 1_555 1_555
C51 C56 1_555 1_555
C71 C76 1_555 1_555
C81 C86 1_555 1_555
N14_5 C146_3 1_555 1_555
C146_3 H155_3 1_555 1_555
C147_3 N14_5 1_555 1_555
H154_3 C147_3 1_555 1_555
C151_3 C146_3 1_555 1_555
C152_3 C147_3 1_555 1_555
H159_3 C152_3 1_555 1_555
H160_3 C151_3 1_555 1_555
C155_3 C151_3 1_555 1_555
C157_3 C155_3 1_555 1_555
C160_3 C157_3 1_555 1_555
C161_3 C157_3 1_555 1_555
C165_3 C160_3 1_555 1_555
C166_3 C161_3 1_555 1_555
C169_3 B2_4 1_555 1_555
C172_3 C166_3 1_555 1_555
C173_3 C165_3 1_555 1_555
H164_3 C172_3 1_555 1_555
H165_3 C173_3 1_555 1_555
H174_3 C172_3 1_555 1_555
H175_3 C173_3 1_555 1_555
C177_3 C161_3 1_555 1_555
C178_3 C160_3 1_555 1_555
H179_3 C177_3 1_555 1_555
H180_3 C178_3 1_555 1_555
H184_3 C177_3 1_555 1_555
H185_3 C178_3 1_555 1_555
H189_3 C177_3 1_555 1_555
H190_3 C178_3 1_555 1_555
C152_3 C155_3 1_555 1_555
C165_3 C169_3 1_555 1_555
C166_3 C169_3 1_555 1_555
N10_4 C35_2 1_555 1_555
C35_2 H34_3 1_555 1_555
C36_2 N9 1_555 1_555
H35_3 C36_2 1_555 1_555
C40_2 C35_2 1_555 1_555
C41_2 C36_2 1_555 1_555
H39_2 C40_2 1_555 1_555
H40_2 C41_2 1_555 1_555
C45_2 C40_2 1_555 1_555
C46_2 C41_2 1_555 1_555
C50 C45_2 1_555 1_555
H44 C50 1_555 1_555
C55 N10_4 1_555 1_555
H49 C55 1_555 1_555
C60 C45_2 1_555 1_555
C65_2 C60 1_555 1_555
C70_2 C65_2 1_555 1_555
C71_2 C66_2 1_555 1_555
C75 C70_2 1_555 1_555
C80 C75 1_555 1_555
C85 C60 1_555 1_555
C90 C85 1_555 1_555
H54 C90 1_555 1_555
H59 C90 1_555 1_555
H64 C90 1_555 1_555
C95 C80 1_555 1_555
H79 C95 1_555 1_555
C101 C71_2 1_555 1_555
H85 C101 1_555 1_555
H90_2 C101 1_555 1_555
H95 C101 1_555 1_555
C105_2 C65_2 1_555 1_555
C106_2 C66_2 1_555 1_555
H99_2 C105_2 1_555 1_555
H100_2 C106_2 1_555 1_555
H104_2 C105_2 1_555 1_555
H105_2 C106_2 1_555 1_555
H109_2 C105_2 1_555 1_555
H110_2 C106_2 1_555 1_555
C50 C55 1_555 1_555
C80 C85 1_555 1_555
Cd2 Br2 1_555 1_555
N3 Cd2 1_555 1_555
C16 N3 1_555 1_555
H17 C16 1_555 1_555
C17 C16 1_555 1_555
H18 C17 1_555 1_555
C18 C17 1_555 1_555
C19 C18 1_555 1_555
C22 B1 1_555 1_555
N4_2 C34_2 1_555 1_555
N17 Cd2 1_555 1_555
C39_2 C34_2 1_555 1_555
H38_2 C39_2 1_555 1_555
C44_2 C39_2 1_555 1_555
C49_2 C44_2 1_555 1_555
H43_2 C49_2 1_555 1_555
C54_2 N4_2 1_555 1_555
H48_2 C54_2 1_555 1_555
C59_2 C44_2 1_555 1_555
C64_2 C59_2 1_555 1_555
C74_2 B1 1_555 1_555
C79_2 C74_2 1_555 1_555
C84_2 C59_2 1_555 1_555
C89_2 C84_2 1_555 1_555
H53_2 C89_2 1_555 1_555
H58_2 C89_2 1_555 1_555
H63_2 C89_2 1_555 1_555
C94_2 C79_2 1_555 1_555
H68 C94_2 1_555 1_555
H73 C94_2 1_555 1_555
H78_2 C94_2 1_555 1_555
C103_2 C73_2 1_555 1_555
H87_2 C103_2 1_555 1_555
H92_2 C103_2 1_555 1_555
H97_2 C103_2 1_555 1_555
H107_2 C108_2 1_555 1_555
H112_2 C108_2 1_555 1_555
C122 C120 1_555 1_555
C126 C122 1_555 1_555
C131 C126 1_555 1_555
C134 B4 1_555 1_555
C138 C131 1_555 1_555
H126 C138 1_555 1_555
H131 C138 1_555 1_555
H136 C138 1_555 1_555
C143 C126 1_555 1_555
H141 C143 1_555 1_555
H146 C143 1_555 1_555
H151 C143 1_555 1_555
C49_2 C54_2 1_555 1_555
C79_2 C84_2 1_555 1_555
C131 C134 1_555 1_555
Cd2_2 Br2_2 1_555 1_555
B1_2 C9 1_555 1_555
N3_2 Cd2_2 1_555 1_555
H3 C4 1_555 1_555
H4 C5 1_555 1_555
C10 C9 1_555 1_555
C11 C6 1_555 1_555
C12 C11 1_555 1_555
H5 C12 1_555 1_555
H6 C12 1_555 1_555
H7 C12 1_555 1_555
C13 C10 1_555 1_555
H8 C13 1_555 1_555
H9 C13 1_555 1_555
H10 C13 1_555 1_555
C16_2 N3_2 1_555 1_555
H17_2 C16_2 1_555 1_555
C17_2 C16_2 1_555 1_555
H18_2 C17_2 1_555 1_555
C18_2 C17_2 1_555 1_555
C19_2 C18_2 1_555 1_555
C20 C19_2 1_555 1_555
C21 C20 1_555 1_555
C22_2 B1_2 1_555 1_555
C23 C21 1_555 1_555
H19 C23 1_555 1_555
H20 C23 1_555 1_555
H21 C23 1_555 1_555
C24 C20 1_555 1_555
H22 C24 1_555 1_555
H23 C24 1_555 1_555
H24 C24 1_555 1_555
Br8 Cd2_2 1_555 1_555
N16 Cd2_2 1_555 1_555
N17_2 Cd2_2 1_555 1_555
H83 C99 1_555 1_555
H93 C99 1_555 1_555
C109 N3_2 1_555 1_555
C110 N16 1_555 1_555
C111 N16 1_555 1_555
C112 N17_2 1_555 1_555
C113 N17_2 1_555 1_555
H113 C109 1_555 1_555
H114 C110 1_555 1_555
H115 C111 1_555 1_555
H116 C112 1_555 1_555
H117 C113 1_555 1_555
C114 C18_2 1_555 1_555
C115 C110 1_555 1_555
C116 C111 1_555 1_555
C117 C112 1_555 1_555
C118 C113 1_555 1_555
H118 C114 1_555 1_555
H119 C115 1_555 1_555
H120 C116 1_555 1_555
H121 C117 1_555 1_555
H122 C118 1_555 1_555
C119 C115 1_555 1_555
C120_2 C117 1_555 1_555
C123 C19_2 1_555 1_555
C128 C22_2 1_555 1_555
C135 C128 1_555 1_555
H123 C135 1_555 1_555
H128 C135 1_555 1_555
H133 C135 1_555 1_555
C140 C123 1_555 1_555
H138 C140 1_555 1_555
H143 C140 1_555 1_555
H145 C142 1_555 1_555
H147 C144 1_555 1_555
H148 C140 1_555 1_555
H150 C142 1_555 1_555
H152 C144 1_555 1_555
C4 C5 1_555 1_555
C10 C11 1_555 1_555
C21 C22_2 1_555 1_555
C109 C114 1_555 1_555
C116 C119 1_555 1_555
C118 C120_2 1_555 1_555
C123 C128 1_555 1_555
N3_3 Cd2_3 1_555 1_555
C14_2 C8_2 1_555 1_555
H11_2 C14_2 1_555 1_555
H12_2 C14_2 1_555 1_555
H13_2 C14_2 1_555 1_555
H15_2 C15_2 1_555 1_555
H16_2 C15_2 1_555 1_555
C19_3 C18_3 1_555 1_555
C22_3 B1_3 1_555 1_555
Br8_2 Cd2_3 1_555 1_555
B4_2 C77_2 1_555 1_555
N17_3 Cd2_3 1_555 1_555
C37_2 N7 1_555 1_555
C42_2 C37_2 1_555 1_555
H41_2 C42_2 1_555 1_555
C47_2 C42_2 1_555 1_555
C52_2 C47_2 1_555 1_555
H46_2 C52_2 1_555 1_555
C57_2 N7 1_555 1_555
H51_2 C57_2 1_555 1_555
C62_2 C47_2 1_555 1_555
C67_2 C62_2 1_555 1_555
C82_2 C77_2 1_555 1_555
C87_2 C62_2 1_555 1_555
C92_2 C87_2 1_555 1_555
H56_2 C92_2 1_555 1_555
H61_2 C92_2 1_555 1_555
H66_2 C92_2 1_555 1_555
C97_2 C82_2 1_555 1_555
H71 C97_2 1_555 1_555
H76 C97_2 1_555 1_555
H81_2 C97_2 1_555 1_555
C113_2 N17_3 1_555 1_555
H117_2 C113_2 1_555 1_555
C118_2 C113_2 1_555 1_555
H122_2 C118_2 1_555 1_555
C122_2 C120_3 1_555 1_555
C123_2 C19_3 1_555 1_555
C128_2 C22_3 1_555 1_555
C134_2 B4_2 1_555 1_555
C135_2 C128_2 1_555 1_555
H123_2 C135_2 1_555 1_555
H128_2 C135_2 1_555 1_555
H133_2 C135_2 1_555 1_555
C140_2 C123_2 1_555 1_555
H138_2 C140_2 1_555 1_555
H143_2 C140_2 1_555 1_555
H148_2 C140_2 1_555 1_555
C52_2 C57_2 1_555 1_555
C82_2 C87_2 1_555 1_555
C118_2 C120_3 1_555 1_555
C123_2 C128_2 1_555 1_555
Cd2_4 Br2_3 1_555 1_555
N3_4 Cd2_4 1_555 1_555
C16_3 N3_4 1_555 1_555
H17_3 C16_3 1_555 1_555
C17_3 C16_3 1_555 1_555
H18_3 C17_3 1_555 1_555
C18_4 C17_3 1_555 1_555
H23_2 C24_2 1_555 1_555
H24_2 C24_2 1_555 1_555
Br8_3 Cd2_4 1_555 1_555
N16_2 Cd2_4 1_555 1_555
N17_4 Cd2_4 1_555 1_555
H47 C53 1_555 1_555
H52 C58 1_555 1_555
C78 B4_3 1_555 1_555
C83 C78 1_555 1_555
C88 C63 1_555 1_555
C93 C88 1_555 1_555
H57 C93 1_555 1_555
H62 C93 1_555 1_555
H67 C93 1_555 1_555
C98 C83 1_555 1_555
H72 C98 1_555 1_555
H77 C98 1_555 1_555
H82 C98 1_555 1_555
H86 C102 1_555 1_555
H96 C102 1_555 1_555
C109_2 N3_4 1_555 1_555
C110_2 N16_2 1_555 1_555
C111_2 N16_2 1_555 1_555
C112_2 N17_4 1_555 1_555
C113_3 N17_4 1_555 1_555
H113_2 C109_2 1_555 1_555
H114_2 C110_2 1_555 1_555
H115_2 C111_2 1_555 1_555
H116_2 C112_2 1_555 1_555
H117_3 C113_3 1_555 1_555
C114_2 C18_4 1_555 1_555
C115_2 C110_2 1_555 1_555
C116_2 C111_2 1_555 1_555
C117_2 C112_2 1_555 1_555
C118_3 C113_3 1_555 1_555
H118_2 C114_2 1_555 1_555
H119_2 C115_2 1_555 1_555
H120_2 C116_2 1_555 1_555
H121_2 C117_2 1_555 1_555
H122_3 C118_3 1_555 1_555
C119_2 C115_2 1_555 1_555
C120_4 C117_2 1_555 1_555
C122_3 C120_4 1_555 1_555
C126_2 C122_3 1_555 1_555
C127 C122_3 1_555 1_555
C131_2 C126_2 1_555 1_555
C132 C127 1_555 1_555
C134_3 B4_3 1_555 1_555
C138_2 C131_2 1_555 1_555
C139 C132 1_555 1_555
H126_2 C138_2 1_555 1_555
H127 C139 1_555 1_555
H131_2 C138_2 1_555 1_555
H132 C139 1_555 1_555
H136_2 C138_2 1_555 1_555
H137 C139 1_555 1_555
C143_2 C126_2 1_555 1_555
C144_2 C127 1_555 1_555
H141_2 C143_2 1_555 1_555
H142 C144_2 1_555 1_555
H144 C141 1_555 1_555
H146_2 C143_2 1_555 1_555
H147_2 C144_2 1_555 1_555
H149 C141 1_555 1_555
H151_2 C143_2 1_555 1_555
H152_2 C144_2 1_555 1_555
C53 C58 1_555 1_555
C83 C88 1_555 1_555
C109_2 C114_2 1_555 1_555
C116_2 C119_2 1_555 1_555
C118_3 C120_4 1_555 1_555
C131_2 C134_3 1_555 1_555
C132 C134_3 1_555 1_555
Cd2_5 Br2_4 1_555 1_555
Cd7_2 N8 1_555 1_555
N8 C38_2 1_555 1_555
N17_5 Cd2_5 1_555 1_555
C38_2 H37_2 1_555 1_555
C43_2 C38_2 1_555 1_555
H42_2 C43_2 1_555 1_555
C48_2 C43_2 1_555 1_555
C53_2 C48_2 1_555 1_555
H47_2 C53_2 1_555 1_555
C58_2 N8 1_555 1_555
H52_2 C58_2 1_555 1_555
C63_2 C48_2 1_555 1_555
C68_2 C63_2 1_555 1_555
C78_2 B4_4 1_555 1_555
C83_2 C78_2 1_555 1_555
C88_2 C63_2 1_555 1_555
C93_2 C88_2 1_555 1_555
H57_2 C93_2 1_555 1_555
H62_2 C93_2 1_555 1_555
H67_2 C93_2 1_555 1_555
C98_2 C83_2 1_555 1_555
H72_2 C98_2 1_555 1_555
H77_2 C98_2 1_555 1_555
H82_2 C98_2 1_555 1_555
C112_3 N17_5 1_555 1_555
H116_3 C112_3 1_555 1_555
C117_3 C112_3 1_555 1_555
H121_3 C117_3 1_555 1_555
C120_5 C117_3 1_555 1_555
C122_4 C120_5 1_555 1_555
C134_4 B4_4 1_555 1_555
C53_2 C58_2 1_555 1_555
C83_2 C88_2 1_555 1_555
Cd7_2 Br4_4 1_555 1_555
Br5_5 Cd7_2 1_555 1_555
N10_5 Cd7_2 1_555 1_555
N14_6 Cd7_2 1_555 1_555
C25_2 N14_6 1_555 1_555
H25_2 C25_2 1_555 1_555
C26_2 C25_2 1_555 1_555
H26_2 C26_2 1_555 1_555
C145 N14_6 1_555 1_555
H153 C145 1_555 1_555
Cd7_3 N8_2 1_555 1_555
B4_5 C77_3 1_555 1_555
N8_2 C38_3 1_555 1_555
C37_3 N10_5 1_555 1_555
C38_3 H37_3 1_555 1_555
H36_3 C37_3 1_555 1_555
C42_3 C37_3 1_555 1_555
C43_3 C38_3 1_555 1_555
H41_3 C42_3 1_555 1_555
H42_3 C43_3 1_555 1_555
C47_3 C42_3 1_555 1_555
C48_3 C43_3 1_555 1_555
C52_3 C47_3 1_555 1_555
C53_3 C48_3 1_555 1_555
H46_3 C52_3 1_555 1_555
H47_3 C53_3 1_555 1_555
C57_3 N10_5 1_555 1_555
C58_3 N8_2 1_555 1_555
H51_3 C57_3 1_555 1_555
H52_3 C58_3 1_555 1_555
C62_3 C47_3 1_555 1_555
C63_3 C48_3 1_555 1_555
C67_3 C62_3 1_555 1_555
C68_3 C63_3 1_555 1_555
C72_2 C67_3 1_555 1_555
C73_3 C68_3 1_555 1_555
C77_3 C72_2 1_555 1_555
C78_3 B4_5 1_555 1_555
C82_3 C77_3 1_555 1_555
C83_3 C78_3 1_555 1_555
C87_3 C62_3 1_555 1_555
C88_3 C63_3 1_555 1_555
C92_3 C87_3 1_555 1_555
C93_3 C88_3 1_555 1_555
H56_3 C92_3 1_555 1_555
H57_3 C93_3 1_555 1_555
H61_3 C92_3 1_555 1_555
H62_3 C93_3 1_555 1_555
H66_3 C92_3 1_555 1_555
H67_3 C93_3 1_555 1_555
C97_3 C82_3 1_555 1_555
C98_3 C83_3 1_555 1_555
H71_3 C97_3 1_555 1_555
H72_3 C98_3 1_555 1_555
H76_3 C97_3 1_555 1_555
H77_3 C98_3 1_555 1_555
H81_3 C97_3 1_555 1_555
H82_3 C98_3 1_555 1_555
C102_2 C72_2 1_555 1_555
C103_3 C73_3 1_555 1_555
H86_2 C102_2 1_555 1_555
H87_3 C103_3 1_555 1_555
H91_2 C102_2 1_555 1_555
H92_3 C103_3 1_555 1_555
H96_2 C102_2 1_555 1_555
H97_3 C103_3 1_555 1_555
C107_2 C67_3 1_555 1_555
C108_3 C68_3 1_555 1_555
H101_3 C107_2 1_555 1_555
H102_3 C108_3 1_555 1_555
H106_2 C107_2 1_555 1_555
H107_3 C108_3 1_555 1_555
H111_2 C107_2 1_555 1_555
H112_3 C108_3 1_555 1_555
C126_3 C122_5 1_555 1_555
C127_2 C122_5 1_555 1_555
C131_3 C126_3 1_555 1_555
C132_2 C127_2 1_555 1_555
C134_5 B4_5 1_555 1_555
C138_3 C131_3 1_555 1_555
C139_2 C132_2 1_555 1_555
H126_3 C138_3 1_555 1_555
H127_2 C139_2 1_555 1_555
H131_3 C138_3 1_555 1_555
H132_2 C139_2 1_555 1_555
H136_3 C138_3 1_555 1_555
H137_2 C139_2 1_555 1_555
C143_3 C126_3 1_555 1_555
H141_3 C143_3 1_555 1_555
H146_3 C143_3 1_555 1_555
H151_3 C143_3 1_555 1_555
C52_3 C57_3 1_555 1_555
C53_3 C58_3 1_555 1_555
C73_3 C78_3 1_555 1_555
C82_3 C87_3 1_555 1_555
C83_3 C88_3 1_555 1_555
C131_3 C134_5 1_555 1_555
C132_2 C134_5 1_555 1_555
Cd7_3 Br4_5 1_555 1_555
N14_7 Cd7_3 1_555 1_555
B2_5 C31_4 1_555 1_555
C28_4 C27_4 1_555 1_555
C29_3 C28_4 1_555 1_555
C30_3 C29_3 1_555 1_555
C31_4 C30_3 1_555 1_555
C32_3 C30_3 1_555 1_555
H27_3 C32_3 1_555 1_555
H29_3 C32_3 1_555 1_555
C33_3 C29_3 1_555 1_555
H30_3 C33_3 1_555 1_555
H31_3 C33_3 1_555 1_555
H32_3 C33_3 1_555 1_555
C145_2 N14_7 1_555 1_555
H153_2 C145_2 1_555 1_555
C150_3 C27_4 1_555 1_555
H158_3 C150_3 1_555 1_555
C145_2 C150_3 1_555 1_555
Br8_4 Cd2_6 1_555 1_555
N17_6 Cd2_6 1_555 1_555
C102_3 C72_3 1_555 1_555
H86_3 C102_3 1_555 1_555
H91_3 C102_3 1_555 1_555
H96_3 C102_3 1_555 1_555
H106_3 C107_3 1_555 1_555
H111_3 C107_3 1_555 1_555
C122_6 C120_6 1_555 1_555
C127_3 C122_6 1_555 1_555
C132_3 C127_3 1_555 1_555
C134_6 B4_6 1_555 1_555
C139_3 C132_3 1_555 1_555
H127_3 C139_3 1_555 1_555
H132_3 C139_3 1_555 1_555
H137_3 C139_3 1_555 1_555
C144_3 C127_3 1_555 1_555
H142_3 C144_3 1_555 1_555
H147_3 C144_3 1_555 1_555
H152_3 C144_3 1_555 1_555
C132_3 C134_6 1_555 1_555
Cd2_7 Br2_5 1_555 1_555
N3_5 Cd2_7 1_555 1_555
C19_4 C18_5 1_555 1_555
C20_2 C19_4 1_555 1_555
C21_2 C20_2 1_555 1_555
C22_4 B1_4 1_555 1_555
C23_2 C21_2 1_555 1_555
H19_2 C23_2 1_555 1_555
H20_2 C23_2 1_555 1_555
H21_2 C23_2 1_555 1_555
C24_3 C20_2 1_555 1_555
H22_2 C24_3 1_555 1_555
H23_3 C24_3 1_555 1_555
H24_3 C24_3 1_555 1_555
C99_2 C69_2 1_555 1_555
H83_2 C99_2 1_555 1_555
H88_2 C99_2 1_555 1_555
H93_2 C99_2 1_555 1_555
H103_2 C104_2 1_555 1_555
H108_2 C104_2 1_555 1_555
C21_2 C22_4 1_555 1_555
Cd1 Br1 1_555 1_555
B1_5 C9_2 1_555 1_555
N1 Cd1 1_555 1_555
N2 Cd1 1_555 1_555
N3_6 Cd2_8 1_555 1_555
C1_2 N1 1_555 1_555
H1_2 C1_2 1_555 1_555
C2_2 C1_2 1_555 1_555
H2_2 C2_2 1_555 1_555
C3_2 C2_2 1_555 1_555
C4_2 C3_2 1_555 1_555
H3_2 C4_2 1_555 1_555
C5_2 N1 1_555 1_555
H4_2 C5_2 1_555 1_555
C6_2 C3_2 1_555 1_555
C7_2 C6_2 1_555 1_555
C10_2 C9_2 1_555 1_555
C11_2 C6_2 1_555 1_555
C12_2 C11_2 1_555 1_555
H5_2 C12_2 1_555 1_555
H6_2 C12_2 1_555 1_555
H7_2 C12_2 1_555 1_555
C13_2 C10_2 1_555 1_555
H8_2 C13_2 1_555 1_555
H9_2 C13_2 1_555 1_555
H10_2 C13_2 1_555 1_555
C19_5 C18_6 1_555 1_555
C22_5 B1_5 1_555 1_555
C25_3 N2 1_555 1_555
H25_3 C25_3 1_555 1_555
C26_3 C25_3 1_555 1_555
H26_3 C26_3 1_555 1_555
Br3_2 Cd1 1_555 1_555
Br8_5 Cd2_8 1_555 1_555
N9_2 Cd1 1_555 1_555
C109_3 N3_6 1_555 1_555
H113_3 C109_3 1_555 1_555
C114_3 C18_6 1_555 1_555
H118_3 C114_3 1_555 1_555
C145_3 N2 1_555 1_555
H153_3 C145_3 1_555 1_555
C4_2 C5_2 1_555 1_555
C10_2 C11_2 1_555 1_555
C109_3 C114_3 1_555 1_555
Br5_6 Cd3_3 1_555 1_555
N10_6 Cd3_3 1_555 1_555
N14_8 Cd3_3 1_555 1_555
N14_8 C148_3 1_555 1_555
C148_3 H157_3 1_555 1_555
C153_3 C148_3 1_555 1_555
H162_3 C153_3 1_555 1_555
C156_4 C153_3 1_555 1_555
C158_4 C156_4 1_555 1_555
C163_3 C158_4 1_555 1_555
C168_3 C163_3 1_555 1_555
C170_4 B2_6 1_555 1_555
C174_3 C168_3 1_555 1_555
H166_3 C174_3 1_555 1_555
H176_3 C174_3 1_555 1_555
C179_3 C163_3 1_555 1_555
H181_3 C179_3 1_555 1_555
H186_3 C179_3 1_555 1_555
H191_3 C179_3 1_555 1_555
C168_3 C170_4 1_555 1_555
B1_6 C9_3 1_555 1_555
C1_3 N10_6 1_555 1_555
H1_3 C1_3 1_555 1_555
C2_3 C1_3 1_555 1_555
H2_3 C2_3 1_555 1_555
C3_3 C2_3 1_555 1_555
C4_3 C3_3 1_555 1_555
H3_3 C4_3 1_555 1_555
C5_3 N10_6 1_555 1_555
H4_3 C5_3 1_555 1_555
C6_3 C3_3 1_555 1_555
C7_3 C6_3 1_555 1_555
C8_3 C7_3 1_555 1_555
C9_3 C8_3 1_555 1_555
C10_3 C9_3 1_555 1_555
C11_3 C6_3 1_555 1_555
C12_3 C11_3 1_555 1_555
H5_3 C12_3 1_555 1_555
H6_3 C12_3 1_555 1_555
H7_3 C12_3 1_555 1_555
C13_3 C10_3 1_555 1_555
H8_3 C13_3 1_555 1_555
H9_3 C13_3 1_555 1_555
H10_3 C13_3 1_555 1_555
C14_3 C8_3 1_555 1_555
H11_3 C14_3 1_555 1_555
H12_3 C14_3 1_555 1_555
H13_3 C14_3 1_555 1_555
C15_3 C7_3 1_555 1_555
H14_3 C15_3 1_555 1_555
H15_3 C15_3 1_555 1_555
H16_3 C15_3 1_555 1_555
C20_3 C19_6 1_555 1_555
C21_3 C20_3 1_555 1_555
C22_6 B1_6 1_555 1_555
C23_3 C21_3 1_555 1_555
H19_3 C23_3 1_555 1_555
H20_3 C23_3 1_555 1_555
H21_3 C23_3 1_555 1_555
N9_2 C34_3 1_555 1_555
C34_3 H33_3 1_555 1_555
C39_3 C34_3 1_555 1_555
H38_3 C39_3 1_555 1_555
C44_3 C39_3 1_555 1_555
C49_3 C44_3 1_555 1_555
H43_3 C49_3 1_555 1_555
C54_3 N9_2 1_555 1_555
H48_3 C54_3 1_555 1_555
C59_3 C44_3 1_555 1_555
C64_3 C59_3 1_555 1_555
C69_3 C64_3 1_555 1_555
C74_3 B1_6 1_555 1_555
C79_3 C74_3 1_555 1_555
C84_3 C59_3 1_555 1_555
C89_3 C84_3 1_555 1_555
H53_3 C89_3 1_555 1_555
H58_3 C89_3 1_555 1_555
H63_3 C89_3 1_555 1_555
C94_3 C79_3 1_555 1_555
H68_3 C94_3 1_555 1_555
H73_3 C94_3 1_555 1_555
H78_3 C94_3 1_555 1_555
C99_3 C69_3 1_555 1_555
H83_3 C99_3 1_555 1_555
H88_3 C99_3 1_555 1_555
H93_3 C99_3 1_555 1_555
C104_3 C64_3 1_555 1_555
H98_3 C104_3 1_555 1_555
H103_3 C104_3 1_555 1_555
H108_3 C104_3 1_555 1_555
C123_3 C19_6 1_555 1_555
C128_3 C22_6 1_555 1_555
C135_3 C128_3 1_555 1_555
H123_3 C135_3 1_555 1_555
H128_3 C135_3 1_555 1_555
H133_3 C135_3 1_555 1_555
C140_3 C123_3 1_555 1_555
H138_3 C140_3 1_555 1_555
H143_3 C140_3 1_555 1_555
H148_3 C140_3 1_555 1_555
C4_3 C5_3 1_555 1_555
C10_3 C11_3 1_555 1_555
C21_3 C22_6 1_555 1_555
C49_3 C54_3 1_555 1_555
C69_3 C74_3 1_555 1_555
C79_3 C84_3 1_555 1_555
C123_3 C128_3 1_555 1_555
Cd2_9 Br2_6 1_555 1_555
N16_3 Cd2_9 1_555 1_555
C36_3 N6_2 1_555 1_555
C41_3 C36_3 1_555 1_555
H40_3 C41_3 1_555 1_555
C46_3 C41_3 1_555 1_555
C51_2 C46_3 1_555 1_555
H45_2 C51_2 1_555 1_555
C56_2 N6_2 1_555 1_555
H50_2 C56_2 1_555 1_555
C61_2 C46_3 1_555 1_555
C66_3 C61_2 1_555 1_555
C71_3 C66_3 1_555 1_555
C76_2 B3 1_555 1_555
C81_2 C76_2 1_555 1_555
C86_2 C61_2 1_555 1_555
C91_2 C86_2 1_555 1_555
H55_2 C91_2 1_555 1_555
H60_2 C91_2 1_555 1_555
H65_2 C91_2 1_555 1_555
C96_2 C81_2 1_555 1_555
H70 C96_2 1_555 1_555
H75 C96_2 1_555 1_555
H80_2 C96_2 1_555 1_555
C101_2 C71_3 1_555 1_555
H85_2 C101_2 1_555 1_555
H90_3 C101_2 1_555 1_555
H95_2 C101_2 1_555 1_555
C106_3 C66_3 1_555 1_555
H100_3 C106_3 1_555 1_555
H105_3 C106_3 1_555 1_555
H110_3 C106_3 1_555 1_555
C110_3 N16_3 1_555 1_555
H114_3 C110_3 1_555 1_555
C115_3 C110_3 1_555 1_555
H119_3 C115_3 1_555 1_555
C119_3 C115_3 1_555 1_555
C121 C119_3 1_555 1_555
C124 C121 1_555 1_555
C129 C124 1_555 1_555
C133 B3 1_555 1_555
C136 C129 1_555 1_555
H124 C136 1_555 1_555
H129 C136 1_555 1_555
H134 C136 1_555 1_555
C141_2 C124 1_555 1_555
H139 C141_2 1_555 1_555
H144_2 C141_2 1_555 1_555
H149_2 C141_2 1_555 1_555
C51_2 C56_2 1_555 1_555
C71_3 C76_2 1_555 1_555
C81_2 C86_2 1_555 1_555
C129 C133 1_555 1_555
B3_2 C75_2 1_555 1_555
H44_2 C50_2 1_555 1_555
H49_2 C55_2 1_555 1_555
C80_2 C75_2 1_555 1_555
C85_2 C60_2 1_555 1_555
C90_2 C85_2 1_555 1_555
H54_2 C90_2 1_555 1_555
H59_2 C90_2 1_555 1_555
H64_2 C90_2 1_555 1_555
C95_2 C80_2 1_555 1_555
H69 C95_2 1_555 1_555
H74 C95_2 1_555 1_555
H79_2 C95_2 1_555 1_555
H85_3 C101_3 1_555 1_555
H95_3 C101_3 1_555 1_555
C124_2 C121_2 1_555 1_555
C125 C121_2 1_555 1_555
C129_2 C124_2 1_555 1_555
C130 C125 1_555 1_555
C133_2 B3_2 1_555 1_555
C136_2 C129_2 1_555 1_555
C137 C130 1_555 1_555
H124_2 C136_2 1_555 1_555
H125 C137 1_555 1_555
H129_2 C136_2 1_555 1_555
H130 C137 1_555 1_555
H134_2 C136_2 1_555 1_555
H135 C137 1_555 1_555
C141_3 C124_2 1_555 1_555
H139_2 C141_3 1_555 1_555
H144_3 C141_3 1_555 1_555
H149_3 C141_3 1_555 1_555
C50_2 C55_2 1_555 1_555
C80_2 C85_2 1_555 1_555
C129_2 C133_2 1_555 1_555
C130 C133_2 1_555 1_555
Br8_6 Cd2_10 1_555 1_555
B3_3 C75_3 1_555 1_555
N5 C35_3 1_555 1_555
N16_4 Cd2_10 1_555 1_555
C40_3 C35_3 1_555 1_555
H39_3 C40_3 1_555 1_555
C45_3 C40_3 1_555 1_555
C50_3 C45_3 1_555 1_555
H44_3 C50_3 1_555 1_555
C55_3 N5 1_555 1_555
H49_3 C55_3 1_555 1_555
C60_3 C45_3 1_555 1_555
C65_3 C60_3 1_555 1_555
C70_3 C65_3 1_555 1_555
C75_3 C70_3 1_555 1_555
C80_3 C75_3 1_555 1_555
C85_3 C60_3 1_555 1_555
C90_3 C85_3 1_555 1_555
H54_3 C90_3 1_555 1_555
H59_3 C90_3 1_555 1_555
H64_3 C90_3 1_555 1_555
C95_3 C80_3 1_555 1_555
H69_2 C95_3 1_555 1_555
H74_2 C95_3 1_555 1_555
H79_3 C95_3 1_555 1_555
C100_2 C70_3 1_555 1_555
H84_2 C100_2 1_555 1_555
H89_3 C100_2 1_555 1_555
H94_2 C100_2 1_555 1_555
C105_3 C65_3 1_555 1_555
H99_3 C105_3 1_555 1_555
H104_3 C105_3 1_555 1_555
H109_3 C105_3 1_555 1_555
C111_3 N16_4 1_555 1_555
H115_3 C111_3 1_555 1_555
C116_3 C111_3 1_555 1_555
H120_3 C116_3 1_555 1_555
C121_3 C119_4 1_555 1_555
C125_2 C121_3 1_555 1_555
C130_2 C125_2 1_555 1_555
C133_3 B3_3 1_555 1_555
C137_2 C130_2 1_555 1_555
H125_2 C137_2 1_555 1_555
H130_2 C137_2 1_555 1_555
H135_2 C137_2 1_555 1_555
C142_2 C125_2 1_555 1_555
H140_2 C142_2 1_555 1_555
H145_2 C142_2 1_555 1_555
H150_2 C142_2 1_555 1_555
C50_3 C55_3 1_555 1_555
C80_3 C85_3 1_555 1_555
C116_3 C119_4 1_555 1_555
C130_2 C133_3 1_555 1_555
H45_3 C51_3 1_555 1_555
H50_3 C56_3 1_555 1_555
C76_3 B3_4 1_555 1_555
C81_3 C76_3 1_555 1_555
C86_3 C61_3 1_555 1_555
C91_3 C86_3 1_555 1_555
H55_3 C91_3 1_555 1_555
H60_3 C91_3 1_555 1_555
H65_3 C91_3 1_555 1_555
C96_3 C81_3 1_555 1_555
H70_3 C96_3 1_555 1_555
H75_3 C96_3 1_555 1_555
H80_3 C96_3 1_555 1_555
H84_3 C100_3 1_555 1_555
H94_3 C100_3 1_555 1_555
C124_3 C121_4 1_555 1_555
C125_3 C121_4 1_555 1_555
C129_3 C124_3 1_555 1_555
C130_3 C125_3 1_555 1_555
C133_4 B3_4 1_555 1_555
C136_3 C129_3 1_555 1_555
C137_3 C130_3 1_555 1_555
H124_3 C136_3 1_555 1_555
H125_3 C137_3 1_555 1_555
H129_3 C136_3 1_555 1_555
H130_3 C137_3 1_555 1_555
H134_3 C136_3 1_555 1_555
H135_3 C137_3 1_555 1_555
C142_3 C125_3 1_555 1_555
H140_3 C142_3 1_555 1_555
H145_3 C142_3 1_555 1_555
H150_3 C142_3 1_555 1_555
C51_3 C56_3 1_555 1_555
C81_3 C86_3 1_555 1_555
C129_3 C133_4 1_555 1_555
C130_3 C133_4 1_555 1_555

#END
