
###############################################################################
#
# This file contains modified crystal structure data generated from the
# MOF subset of the Cambridge Structural Database (CSD) v543 
# hosted by the Cambridge Crystallographic Data Centre (CCDC).
#
# This work is licensed under the Creative Commons
# Attribution-NonCommercial-ShareAlike 4.0 International License.
# To view a copy of this license, visit
# http://creativecommons.org/licenses/by-nc-sa/4.0/
# or send a letter to
# Creative Commons, PO Box 1866, Mountain View, CA 94042, USA.
#
# CIF created using the CSD Python API on 29 September 2022
# The structure has been converted into the P1 space group
# The structure has a 3D framework
# The original CSD entry SOBZAL is in the rhombohedral crystal system
# The original CSD entry SOBZAL is in a Sohncke space group
# The framework has been calculated to contain at least 10.0% void space
# The void calculation uses a probe of radius 1.32A, grid spacing 0.4
#
###############################################################################

data_SOBZAL
_chemical_formula_moiety         '(C567 H576 B22 Cd21 I30 N45)n'
_symmetry_cell_setting           triclinic
_symmetry_space_group_name_H-M   'P 1'
_symmetry_Int_Tables_number      1
_space_group_name_Hall           'P 1'
loop_
_symmetry_equiv_pos_site_id
_symmetry_equiv_pos_as_xyz
1 x,y,z
_cell_length_a                   18.343(3)
_cell_length_b                   18.343(3)
_cell_length_c                   48.214(10)
_cell_angle_alpha                90
_cell_angle_beta                 90
_cell_angle_gamma                120
_cell_volume                     14049
loop_
_atom_site_label
_atom_site_type_symbol
_atom_site_fract_x
_atom_site_fract_y
_atom_site_fract_z
Cd5 Cd 0.06609(3) 0.73279(3) 0.8333
I5 I 0.11844(4) 0.64920(6) 0.870727(12)
N10 N 0.0515(3) 0.6331(5) 0.79923(10)
N14 N 0.1924(4) 0.8591(4) 0.8333
H35 H 0.0401 0.8113 0.8923
Cd4 Cd 0.73279(3) 0.06609(3) 0.1667
H34 H 0.8113 0.0401 0.1077
N12 N 0.8591(4) 0.1924(4) 0.1667
C146 C 0.8602(4) 0.2656(6) 0.16575(16)
C147 C 0.9323(6) 0.1935(4) 0.16758(16)
H154 H 0.9317 0.1426 0.1686
H155 H 0.8093 0.2650 0.1647
C151 C 0.9333(4) 0.3414(6) 0.16627(15)
H160 H 0.9317 0.3913 0.1664
I3 I 0.64920(6) 0.11844(7) 0.129273(12)
N9 N 0.6331(5) 0.0515(6) 0.20077(10)
C146_2 C 0.2656(6) 0.8602(4) 0.83425(16)
C147_2 C 0.1935(4) 0.9323(6) 0.83242(16)
H154_2 H 0.1426 0.9317 0.8314
H155_2 H 0.2650 0.8093 0.8353
C151_2 C 0.3414(6) 0.9333(4) 0.83373(15)
H160_2 H 0.3913 0.9317 0.8336
Cd4_2 Cd 0.39946(3) 0.39942(3) 0.5000
N5 N 0.3849(3) 0.2997(5) 0.46589(10)
C35 C 0.4321(5) 0.3193(7) 0.44275(13)
C36 C 0.6527(7) 0.0987(5) 0.22391(13)
H34_2 H 0.4780 0.3734 0.4410
H35_2 H 0.7068 0.1446 0.2256
C40 C 0.4154(5) 0.2628(7) 0.42164(15)
C41 C 0.5962(7) 0.0820(5) 0.24502(15)
H39 H 0.4492 0.2788 0.4059
H40 H 0.6122 0.1158 0.2607
C45 C 0.3473(4) 0.1813(6) 0.42399(11)
C46 C 0.5147(6) 0.0139(4) 0.24267(11)
C50 C 0.3020(4) 0.1617(6) 0.44834(12)
H44 H 0.2566 0.1077 0.4510
C55 C 0.3236(5) 0.2217(7) 0.46875(13)
H49 H 0.2934 0.2063 0.4852
C60 C 0.3266(4) 0.1172(6) 0.40132(12)
C65 C 0.3795(4) 0.0843(6) 0.39641(12)
C66 C 0.4177(6) 0.0461(4) 0.27025(12)
C70 C 0.3619(4) 0.0284(6) 0.37474(12)
C71 C 0.3618(6) 0.0285(4) 0.29192(12)
C75 C 0.2891(3) 0.0011(5) 0.35795(12)
C80 C 0.2329(4) 0.0311(6) 0.36385(12)
C85 C 0.2539(4) 0.0916(6) 0.38551(11)
C90 C 0.1971(4) 0.1285(6) 0.39023(15)
H54 H 0.2183 0.1673 0.4054
H59 H 0.1412 0.0841 0.3944
H64 H 0.1960 0.1575 0.3738
C95 C 0.1556(4) 0.0046(6) 0.34781(15)
H74 H 0.1584 0.0528 0.3388
C101 C 0.3264(6) 0.0873(4) 0.29646(16)
H85 H 0.2880 0.0675 0.3118
H90 H 0.2972 0.0883 0.2800
H94 H 0.4765 0.0384 0.3663
H95 H 0.3718 0.1431 0.3003
C105 C 0.4523(5) 0.1064(7) 0.41529(16)
C106 C 0.4398(7) 0.1189(5) 0.25137(16)
H99 H 0.4558 0.1463 0.4289
H100 H 0.4797 0.1224 0.2377
H104 H 0.5034 0.1308 0.4046
H105 H 0.4642 0.1700 0.2620
H109 H 0.4446 0.0566 0.4244
H110 H 0.3900 0.1112 0.2422
B2 B 1.0000 1.0000 0.5000
H29 H 0.8725 0.9945 0.5380
N12_2 N 0.5258(4) 0.5257(4) 0.5000
C146_3 C 0.5269(4) 0.5989(6) 0.49908(16)
C147_3 C 0.5989(6) 0.5269(4) 0.50092(16)
H154_3 H 0.5983 0.4760 0.5020
H155_3 H 0.4760 0.5983 0.4980
C151_3 C 0.6000(4) 0.6747(6) 0.49960(15)
C152 C 0.6747(6) 0.6000(4) 0.50040(15)
H159 H 0.7246 0.5984 0.5003
H160_3 H 0.5984 0.7246 0.4997
C155 C 0.6767(5) 0.6766(5) 0.5000
C157 C 0.7581(4) 0.7580(4) 0.5000
C160 C 0.8150(3) 0.7777(4) 0.52219(11)
C161 C 0.7777(4) 0.8150(3) 0.47781(11)
C165 C 0.8929(3) 0.8521(4) 0.52155(12)
C166 C 0.8521(4) 0.8929(3) 0.47845(12)
C169 C 0.9121(4) 0.9120(4) 0.5000
C172 C 0.8690(6) 0.9528(4) 0.45485(13)
C173 C 0.9528(4) 0.8690(6) 0.54515(13)
H164 H 0.8215 0.9294 0.4425
H165 H 0.9294 0.8215 0.5575
H169 H 0.9182 0.9617 0.4450
H170 H 0.9617 0.9182 0.5550
H176 H 0.9945 0.8725 0.4620
C177 C 0.7217(6) 0.7906(4) 0.45312(13)
C178 C 0.7906(4) 0.7217(6) 0.54688(13)
H179 H 0.6736 0.7357 0.4560
H180 H 0.7357 0.6736 0.5440
H184 H 0.7519 0.7896 0.4370
H185 H 0.7896 0.7519 0.5630
H189 H 0.7032 0.8307 0.4504
H190 H 0.8307 0.7032 0.5496
I1 I 0.45178(4) 0.31586(6) 0.537393(12)
I3_2 I 0.31586(6) 0.45178(7) 0.462607(12)
N9_2 N 0.2997(5) 0.3849(6) 0.53411(10)
C35_2 C 0.0987(5) 0.6527(7) 0.77609(13)
C36_2 C 0.3193(7) 0.4321(5) 0.55725(13)
H34_3 H 0.1446 0.7068 0.7744
H35_3 H 0.3734 0.4780 0.5590
C40_2 C 0.0820(5) 0.5962(7) 0.75498(15)
C41_2 C 0.2628(7) 0.4154(5) 0.57836(15)
H39_2 H 0.1158 0.6122 0.7393
H40_2 H 0.2788 0.4492 0.5941
C45_2 C 0.0139(4) 0.5147(6) 0.75733(11)
C46_2 C 0.1813(6) 0.3473(4) 0.57601(11)
C51 C 0.1617(6) 0.3020(4) 0.55166(12)
H45 H 0.1077 0.2566 0.5490
C56 C 0.2217(7) 0.3236(5) 0.53125(13)
H50 H 0.2063 0.2934 0.5148
C61 C 0.1172(6) 0.3266(4) 0.59868(12)
C65_2 C 0.0461(4) 0.4177(6) 0.72975(12)
C66_2 C 0.0843(6) 0.3795(4) 0.60359(12)
C70_2 C 0.0285(4) 0.3618(6) 0.70808(12)
C71_2 C 0.0284(6) 0.3619(4) 0.62526(12)
C76 C 0.0011(5) 0.2891(3) 0.64205(12)
C81 C 0.0311(6) 0.2329(4) 0.63615(12)
C86 C 0.0916(6) 0.2539(4) 0.61449(11)
C91 C 0.1285(6) 0.1971(4) 0.60977(15)
H55 H 0.1673 0.2183 0.5946
H60 H 0.0841 0.1412 0.6056
H65 H 0.1575 0.1960 0.6262
C96 C 0.0046(6) 0.1556(4) 0.65219(15)
H75 H 0.0528 0.1584 0.6612
C100 C 0.0873(4) 0.3264(6) 0.70354(16)
H84 H 0.0675 0.2880 0.6882
H89 H 0.0883 0.2972 0.7200
H94_2 H 0.1431 0.3718 0.6997
H95_2 H 0.0384 0.4765 0.6337
C105_2 C 0.1189(5) 0.4398(7) 0.74863(16)
C106_2 C 0.1064(7) 0.4523(5) 0.58471(16)
H99_2 H 0.1224 0.4797 0.7623
H100_2 H 0.1463 0.4558 0.5711
H104_2 H 0.1700 0.4642 0.7380
H105_2 H 0.1308 0.5034 0.5954
H109_2 H 0.1112 0.3900 0.7578
H110_2 H 0.0566 0.4446 0.5756
Cd2 Cd 0.0000 -0.0000 0.0000
I8 I 0.0000 -0.0000 0.058915(16)
B3 B 0.6015(5) 0.6015(5) 0.0000
N5_2 N 0.7182(3) 0.9664(5) 0.13256(10)
N16 N 0.1277(3) 0.1277(3) 0.0000
C35_3 C 0.7654(5) 0.9860(7) 0.10942(13)
C40_3 C 0.7487(5) 0.9295(7) 0.08831(15)
H39_3 H 0.7825 0.9455 0.0726
C45_3 C 0.6806(4) 0.8480(6) 0.09066(11)
C50_2 C 0.6353(4) 0.8284(6) 0.11501(12)
H44_2 H 0.5899 0.7744 0.1177
C55_2 C 0.6569(5) 0.8884(7) 0.13542(13)
H49_2 H 0.6267 0.8730 0.1519
C60_2 C 0.6599(4) 0.7839(6) 0.06799(12)
C65_3 C 0.7128(4) 0.7510(6) 0.06308(12)
C70_3 C 0.6952(4) 0.6951(6) 0.04141(12)
C75_2 C 0.6224(3) 0.6678(5) 0.02462(12)
C80_2 C 0.5662(4) 0.6978(6) 0.03052(12)
C85_2 C 0.5872(4) 0.7583(6) 0.05218(11)
C90_2 C 0.5304(4) 0.7952(6) 0.05690(15)
H54_2 H 0.5516 0.8340 0.0721
H59_2 H 0.4745 0.7508 0.0611
H64_2 H 0.5293 0.8242 0.0405
C95_2 C 0.4889(4) 0.6713(6) 0.01448(15)
H69 H 0.4833 0.6311 0.0007
H74_2 H 0.4917 0.7195 0.0055
H79 H 0.4412 0.6462 0.0267
C100_2 C 0.7540(4) 0.6597(6) 0.03687(16)
H84_2 H 0.7342 0.6213 0.0215
H89_2 H 0.7550 0.6305 0.0533
H94_3 H 0.8098 0.7051 0.0330
C105_3 C 0.7856(5) 0.7731(7) 0.08196(16)
H99_3 H 0.7891 0.8130 0.0956
H104_3 H 0.8367 0.7975 0.0713
H109_3 H 0.7779 0.7233 0.0911
C111 C 0.1325(6) 0.1962(4) 0.01086(15)
H115 H 0.0848 0.1927 0.0189
C116 C 0.2065(6) 0.2729(4) 0.01055(15)
H120 H 0.2073 0.3206 0.0175
C119 C 0.2790(4) 0.2790(4) 0.0000
C121 C 0.3611(4) 0.3611(4) 0.0000
C125 C 0.4125(6) 0.3848(4) 0.02346(11)
C130 C 0.4878(6) 0.4616(4) 0.02393(12)
C133 C 0.5140(4) 0.5140(4) 0.0000
C137 C 0.5409(8) 0.4842(5) 0.04984(13)
H125 H 0.5122 0.4413 0.0636
H130 H 0.5503 0.5372 0.0569
H135 H 0.5940 0.4885 0.0455
C142 C 0.3867(7) 0.3272(4) 0.04854(14)
H140 H 0.4286 0.3527 0.0628
H145 H 0.3813 0.2742 0.0433
H150 H 0.3336 0.3181 0.0554
I1_2 I 0.78511(4) 0.98253(6) 0.204060(12)
B3_2 B 0.2682(5) 0.9348(5) 0.3333
C51_2 C 0.4951(6) 0.9686(4) 0.21832(12)
H45_2 H 0.4411 0.9232 0.2156
C56_2 C 0.5551(7) 0.9902(5) 0.19791(13)
H50_2 H 0.5397 0.9600 0.1814
C61_2 C 0.4506(6) 0.9932(4) 0.26534(12)
C76_2 C 0.3345(5) 0.9557(3) 0.30871(12)
C81_2 C 0.3645(6) 0.8995(4) 0.30281(12)
C86_2 C 0.4250(6) 0.9205(4) 0.28115(11)
C91_2 C 0.4619(6) 0.8637(4) 0.27643(15)
H55_2 H 0.5007 0.8849 0.2612
H60_2 H 0.4175 0.8078 0.2722
H65_2 H 0.4909 0.8626 0.2928
C96_2 C 0.3380(6) 0.8222(4) 0.31885(15)
H69_2 H 0.1500 0.9644 0.3340
H70 H 0.2978 0.8166 0.3326
H75_2 H 0.3862 0.8250 0.3278
H79_2 H 0.1079 0.9795 0.3600
H80 H 0.3129 0.7745 0.3066
C100_3 C 0.4207(4) 0.9930(6) 0.37020(16)
H84_3 H 0.4009 0.9546 0.3548
H89_3 H 0.4217 0.9638 0.3866
C121_2 C 0.0278(4) 0.6944(4) 0.3333
C124 C 0.0515(4) 0.7458(6) 0.30987(11)
C125_2 C 0.0792(6) 0.7181(4) 0.35679(11)
C129 C 0.1283(4) 0.8211(6) 0.30940(12)
C130_2 C 0.1545(6) 0.7949(4) 0.35726(12)
C133_2 C 0.1807(4) 0.8473(4) 0.3333
C136 C 0.1509(5) 0.8742(8) 0.28349(13)
C137_2 C 0.2076(8) 0.8175(5) 0.38317(13)
H124 H 0.1080 0.8455 0.2697
H125_2 H 0.1789 0.7746 0.3969
H129 H 0.2039 0.8836 0.2764
H130_2 H 0.2170 0.8705 0.3902
H134 H 0.1552 0.9273 0.2878
H135_2 H 0.2607 0.8218 0.3788
C142_2 C 0.0534(7) 0.6605(4) 0.38187(14)
H139 H 0.0194 0.7619 0.2705
H140_2 H 0.0953 0.6860 0.3961
H145_2 H 0.0480 0.6075 0.3766
H150_2 H 0.0003 0.6514 0.3887
Cd2_2 Cd 0.0000 -0.0000 1.0000
I2 I 0.0000 -0.0000 0.941085(16)
I4 I 0.98253(6) 0.78511(4) 0.795940(12)
B3_3 B 0.6015(5) 0.6015(5) 1.0000
N6 N 0.9664(5) 0.7182(3) 0.86744(10)
N16_2 N 0.1277(3) 0.1277(3) 1.0000
C36_3 C 0.9860(7) 0.7654(5) 0.89058(13)
C41_3 C 0.9295(7) 0.7487(5) 0.91169(15)
H40_3 H 0.9455 0.7825 0.9274
C46_3 C 0.8480(6) 0.6806(4) 0.90934(11)
C51_3 C 0.8284(6) 0.6353(4) 0.88499(12)
H45_3 H 0.7744 0.5899 0.8823
C56_3 C 0.8884(7) 0.6569(5) 0.86458(13)
H50_3 H 0.8730 0.6267 0.8481
C61_3 C 0.7839(6) 0.6599(4) 0.93201(12)
C66_3 C 0.7510(6) 0.7128(4) 0.93692(12)
C71_3 C 0.6951(6) 0.6952(4) 0.95859(12)
C76_3 C 0.6678(5) 0.6224(3) 0.97538(12)
C81_3 C 0.6978(6) 0.5662(4) 0.96948(12)
C86_3 C 0.7583(6) 0.5872(4) 0.94782(11)
C91_3 C 0.7952(6) 0.5304(4) 0.94310(15)
H55_3 H 0.8340 0.5516 0.9279
H60_3 H 0.7508 0.4745 0.9389
H65_3 H 0.8242 0.5293 0.9595
C96_3 C 0.6713(6) 0.4889(4) 0.98552(15)
H70_2 H 0.6311 0.4833 0.9993
H75_3 H 0.7195 0.4917 0.9945
H80_2 H 0.6462 0.4412 0.9733
C101_2 C 0.6597(6) 0.7540(4) 0.96313(16)
H85_2 H 0.6213 0.7342 0.9785
H90_2 H 0.6305 0.7550 0.9467
H95_3 H 0.7051 0.8098 0.9670
C106_3 C 0.7731(7) 0.7856(5) 0.91804(16)
H100_3 H 0.8130 0.7891 0.9044
H105_3 H 0.7975 0.8367 0.9287
H110_3 H 0.7233 0.7779 0.9089
C110 C 0.1962(4) 0.1325(6) 0.98914(15)
H114 H 0.1927 0.0848 0.9811
C115 C 0.2729(4) 0.2065(6) 0.98945(15)
H119 H 0.3206 0.2073 0.9825
C119_2 C 0.2790(4) 0.2790(4) 1.0000
C121_3 C 0.3611(4) 0.3611(4) 1.0000
C124_2 C 0.3848(4) 0.4125(6) 0.97654(11)
C129_2 C 0.4616(4) 0.4878(6) 0.97607(12)
C133_3 C 0.5140(4) 0.5140(4) 1.0000
C136_2 C 0.4842(5) 0.5409(8) 0.95016(13)
H124_2 H 0.4413 0.5122 0.9364
H129_2 H 0.5372 0.5503 0.9431
H134_2 H 0.4885 0.5940 0.9545
C141 C 0.3272(4) 0.3867(7) 0.95146(14)
H139_2 H 0.3527 0.4286 0.9372
H144 H 0.2742 0.3813 0.9567
H149 H 0.3181 0.3336 0.9446
B3_4 B 0.9348(5) 0.2682(5) 0.6667
C50_3 C 0.9686(4) 0.4951(6) 0.78168(12)
H44_3 H 0.9232 0.4411 0.7844
C55_3 C 0.9902(5) 0.5551(7) 0.80209(13)
H49_3 H 0.9600 0.5397 0.8186
C60_3 C 0.9932(4) 0.4506(6) 0.73466(12)
C75_3 C 0.9557(3) 0.3345(5) 0.69129(12)
C80_3 C 0.8995(4) 0.3645(6) 0.69719(12)
C85_3 C 0.9205(4) 0.4250(6) 0.71885(11)
C90_3 C 0.8637(4) 0.4619(6) 0.72357(15)
H54_3 H 0.8849 0.5007 0.7388
H59_3 H 0.8078 0.4175 0.7278
H64_3 H 0.8626 0.4909 0.7072
C95_3 C 0.8222(4) 0.3380(6) 0.68115(15)
H69_3 H 0.8166 0.2978 0.6674
H70_3 H 0.9644 0.1500 0.6660
H74_3 H 0.8250 0.3862 0.6722
H79_3 H 0.7745 0.3129 0.6934
H80_3 H 0.9795 0.1079 0.6400
C101_3 C 0.9930(6) 0.4207(4) 0.62980(16)
H85_3 H 0.9546 0.4009 0.6452
H90_3 H 0.9638 0.4217 0.6134
C121_4 C 0.6944(4) 0.0278(4) 0.6667
C124_3 C 0.7181(4) 0.0792(6) 0.64321(11)
C125_3 C 0.7458(6) 0.0515(4) 0.69013(11)
C129_3 C 0.7949(4) 0.1545(6) 0.64274(12)
C130_3 C 0.8211(6) 0.1283(4) 0.69060(12)
C133_4 C 0.8473(4) 0.1807(4) 0.6667
C136_3 C 0.8175(5) 0.2076(8) 0.61683(13)
C137_3 C 0.8742(8) 0.1509(5) 0.71651(13)
H124_3 H 0.7746 0.1789 0.6031
H125_3 H 0.8455 0.1080 0.7303
H129_3 H 0.8705 0.2170 0.6098
H130_3 H 0.8836 0.2039 0.7236
H134_3 H 0.8218 0.2607 0.6212
H135_3 H 0.9273 0.1552 0.7122
C141_2 C 0.6605(4) 0.0534(7) 0.61813(14)
H139_3 H 0.6860 0.0953 0.6039
H140_3 H 0.7619 0.0194 0.7295
H144_2 H 0.6075 0.0480 0.6234
H149_2 H 0.6514 0.0003 0.6113
Cd1 Cd 0.3333 0.26721(3) 0.1667
Cd2_3 Cd 0.0000 1.0000 0.0000
I1_3 I 0.19742(4) 0.21489(4) 0.204060(12)
B1 B -0.0000 0.3985(5) 0.0000
N1 N 0.2482(4) 0.2818(3) 0.13256(10)
N2 N 0.3333 0.1409(4) 0.1667
N3 N 0.0000 0.8723(3) 0.0000
C1 C 0.2206(5) 0.2346(5) 0.10942(13)
H1 H 0.2288 0.1887 0.1077
C2 C 0.1808(5) 0.2513(5) 0.08831(15)
H2 H 0.1630 0.2175 0.0726
C3 C 0.1674(4) 0.3194(4) 0.09066(11)
C4 C 0.1931(4) 0.3647(4) 0.11501(12)
H3 H 0.1845 0.4101 0.1177
C5 C 0.2315(5) 0.3431(5) 0.13542(13)
H4 H 0.2463 0.3733 0.1519
C6 C 0.1240(4) 0.3401(4) 0.06799(12)
C7 C 0.0382(4) 0.2872(4) 0.06308(12)
C9 C 0.0454(4) 0.3776(3) 0.02462(12)
C10 C 0.1316(4) 0.4338(4) 0.03052(12)
C11 C 0.1711(4) 0.4128(4) 0.05218(11)
C12 C 0.2648(4) 0.4696(4) 0.05690(15)
H5 H 0.2824 0.4484 0.0721
H6 H 0.2763 0.5255 0.0611
H7 H 0.2949 0.4707 0.0405
C13 C 0.1824(4) 0.5111(4) 0.01448(15)
H8 H 0.1478 0.5167 0.0007
H9 H 0.2278 0.5083 0.0055
H10 H 0.2050 0.5588 0.0267
H14 H 0.0239 0.2109 0.0956
C18 C 0.0000 0.7210(4) 0.0000
C19 C 0.0000 0.6389(4) 0.0000
C22 C 0.0000 0.4860(4) 0.0000
C25 C 0.4054(5) 0.1398(4) 0.16575(16)
H25 H 0.4557 0.1907 0.1647
C26 C 0.4081(4) 0.0667(4) 0.16627(15)
H26 H 0.4596 0.0683 0.1664
I3_3 I 0.46925(4) 0.35080(6) 0.129273(12)
I8_2 I 0.0000 1.0000 0.058915(16)
N9_3 N 0.4185(4) 0.3669(5) 0.20077(10)
C109 C 0.0637(4) 0.8675(6) 0.01086(15)
H113 H 0.1079 0.9152 0.0189
C114 C 0.0664(4) 0.7935(6) 0.01055(15)
H118 H 0.1133 0.7927 0.0175
C145 C 0.2613(5) 0.0677(6) 0.16758(16)
H153 H 0.2110 0.0683 0.1686
Cd1_2 Cd 1.0000 0.60054(3) 0.5000
I1_4 I 0.86409(4) 0.54822(4) 0.537393(12)
B1_2 B 0.6667 0.7318(5) 0.3333
B2_2 B 1.0000 0.0000 0.5000
N1_2 N 0.9149(4) 0.6151(3) 0.46589(10)
N2_2 N 1.0000 0.4742(4) 0.5000
C1_2 C 0.8873(5) 0.5679(5) 0.44275(13)
H1_2 H 0.8955 0.5220 0.4410
C2_2 C 0.8475(5) 0.5846(5) 0.42164(15)
H2_2 H 0.8297 0.5508 0.4059
C3_2 C 0.8341(4) 0.6527(4) 0.42399(11)
C4_2 C 0.8598(4) 0.6980(4) 0.44834(12)
H3_2 H 0.8512 0.7434 0.4510
C5_2 C 0.8982(5) 0.6764(5) 0.46875(13)
H4_2 H 0.9130 0.7066 0.4852
C6_2 C 0.7907(4) 0.6734(4) 0.40132(12)
C7_2 C 0.7049(4) 0.6205(4) 0.39641(12)
C8 C 0.6666(4) 0.6381(4) 0.37474(12)
C9_2 C 0.7121(4) 0.7109(3) 0.35795(12)
C10_2 C 0.7983(4) 0.7671(4) 0.36385(12)
C11_2 C 0.8378(4) 0.7461(4) 0.38551(11)
C12_2 C 0.9315(4) 0.8029(4) 0.39023(15)
H5_2 H 0.9491 0.7817 0.4054
H6_2 H 0.9430 0.8588 0.3944
H7_2 H 0.9616 0.8040 0.3738
C13_2 C 0.8491(4) 0.8444(4) 0.34781(15)
H8_2 H 0.8145 0.8500 0.3340
H9_2 H 0.8945 0.8416 0.3388
H10_2 H 0.8717 0.8921 0.3600
C14 C 0.5724(4) 0.5793(4) 0.37020(16)
H11 H 0.5538 0.5991 0.3548
H12 H 0.5422 0.5783 0.3866
H13 H 0.5620 0.5235 0.3663
C15 C 0.6542(5) 0.5477(5) 0.41529(16)
H14_2 H 0.6906 0.5442 0.4289
H15 H 0.6275 0.4966 0.4046
H16 H 0.6121 0.5554 0.4244
C19_2 C 0.6667 0.9722(4) 0.3333
C20 C 0.6944(4) 0.9485(4) 0.30987(11)
C21 C 0.6929(4) 0.8717(4) 0.30940(12)
C22_2 C 0.6667 0.8193(4) 0.3333
C23 C 0.7234(6) 0.8491(5) 0.28349(13)
H19 H 0.7376 0.8920 0.2697
H20 H 0.6798 0.7961 0.2764
H21 H 0.7722 0.8448 0.2878
H22 H 0.7426 0.9806 0.2705
C27 C 1.0000 0.3233(5) 0.5000
C28 C 1.0000 0.2419(4) 0.5000
C29 C 0.9628(3) 0.1850(3) 0.52219(11)
C30 C 0.9593(3) 0.1071(3) 0.52155(12)
C31 C 1.0000 0.0879(4) 0.5000
C32 C 0.9163(4) 0.0472(4) 0.54515(13)
H27 H 0.8922 0.0706 0.5575
H28 H 0.9566 0.0383 0.5550
C33 C 0.9312(4) 0.2094(4) 0.54688(13)
H30 H 0.9380 0.2643 0.5440
H31 H 0.9624 0.2104 0.5630
H32 H 0.8726 0.1693 0.5496
C34 C 0.4461(5) 0.3473(7) 0.22391(13)
H33 H 0.4379 0.2932 0.2256
C39 C 0.4859(5) 0.4038(7) 0.24502(15)
H38 H 0.5037 0.3878 0.2607
C44 C 0.4993(4) 0.4853(6) 0.24267(11)
C49 C 0.4736(4) 0.5049(6) 0.21832(12)
H43 H 0.4822 0.5589 0.2156
C54 C 0.4352(5) 0.4449(7) 0.19791(13)
H48 H 0.4204 0.4603 0.1814
C59 C 0.5427(4) 0.5494(6) 0.26534(12)
C64 C 0.6285(4) 0.5823(6) 0.27025(12)
C69 C 0.6668(4) 0.6382(6) 0.29192(12)
C74 C 0.6213(4) 0.6655(5) 0.30871(12)
C79 C 0.5351(4) 0.6355(6) 0.30281(12)
C84 C 0.4956(4) 0.5750(6) 0.28115(11)
C89 C 0.4019(4) 0.5381(6) 0.27643(15)
H53 H 0.3843 0.4993 0.2612
H58 H 0.3904 0.5825 0.2722
H63 H 0.3718 0.5091 0.2928
C94 C 0.4843(4) 0.6620(6) 0.31885(15)
H68 H 0.5189 0.7022 0.3326
H73 H 0.4389 0.6138 0.3278
H78 H 0.4617 0.6871 0.3066
C99 C 0.7610(4) 0.6736(6) 0.29646(16)
H83 H 0.7796 0.7120 0.3118
H88 H 0.7912 0.7028 0.2800
H93 H 0.7714 0.6282 0.3003
C104 C 0.6792(5) 0.5602(7) 0.25137(16)
H98 H 0.6428 0.5203 0.2377
H103 H 0.7059 0.5358 0.2620
H108 H 0.7213 0.6100 0.2422
C123 C 0.6390(4) 0.9208(6) 0.35679(11)
C128 C 0.6405(4) 0.8455(6) 0.35726(12)
C135 C 0.6100(6) 0.7924(8) 0.38317(13)
H123 H 0.5958 0.8211 0.3969
H128 H 0.6536 0.7830 0.3902
H133 H 0.5612 0.7393 0.3788
C140 C 0.6072(6) 0.9466(7) 0.38187(14)
H138 H 0.5908 0.9047 0.3961
H143 H 0.5596 0.9520 0.3766
H148 H 0.6512 0.9997 0.3887
C145_2 C 0.9279(5) 0.4011(6) 0.50092(16)
H153_2 H 0.8776 0.4017 0.5020
C150 C 0.9252(4) 0.3253(6) 0.50040(15)
H158 H 0.8737 0.2754 0.5003
H174 H 0.8779 0.0055 0.4620
Cd2_4 Cd 0.0000 1.0000 1.0000
I2_2 I 0.0000 1.0000 0.941085(16)
B1_3 B -0.0000 0.3985(5) 1.0000
N3_2 N 0.0000 0.8723(3) 1.0000
C18_2 C 0.0000 0.7210(4) 1.0000
C19_3 C 0.0000 0.6389(4) 1.0000
C20_2 C 0.0277(4) 0.6152(4) 0.97654(11)
C21_2 C 0.0262(4) 0.5384(4) 0.97607(12)
C22_3 C 0.0000 0.4860(4) 1.0000
C23_2 C 0.0567(6) 0.5158(5) 0.95016(13)
H19_2 H 0.0709 0.5587 0.9364
H20_2 H 0.0131 0.4628 0.9431
H21_2 H 0.1055 0.5115 0.9545
C24 C 0.0595(6) 0.6728(4) 0.95146(14)
H22_2 H 0.0759 0.6473 0.9372
H23 H 0.1071 0.7258 0.9567
H24 H 0.0155 0.6819 0.9446
C69_2 C 0.0001(4) 0.3049(6) 0.95859(12)
C99_2 C 0.0943(4) 0.3403(6) 0.96313(16)
H83_2 H 0.1129 0.3787 0.9785
H88_2 H 0.1245 0.3695 0.9467
H93_2 H 0.1047 0.2949 0.9670
C104_2 C 0.0125(5) 0.2269(7) 0.91804(16)
H103_2 H 0.0392 0.2025 0.9287
H108_2 H 0.0546 0.2767 0.9089
B2_3 B 0.3333 0.6667 0.1667
C27_2 C 0.3333 0.9900(5) 0.1667
C28_2 C 0.3333 0.9086(4) 0.1667
C29_2 C 0.2961(3) 0.8517(3) 0.18886(11)
C30_2 C 0.2926(3) 0.7738(3) 0.18822(12)
C31_2 C 0.3333 0.7546(4) 0.1667
C32_2 C 0.2496(4) 0.7139(4) 0.21182(13)
H27_2 H 0.2255 0.7373 0.2242
H28_2 H 0.2899 0.7050 0.2217
H29_2 H 0.2058 0.6612 0.2047
C33_2 C 0.2645(4) 0.8761(4) 0.21355(13)
H30_2 H 0.2713 0.9310 0.2107
H31_2 H 0.2957 0.8771 0.2297
H32_2 H 0.2059 0.8360 0.2163
Cd9 Cd 0.93391(3) 0.6667 0.1667
N13 N 0.8076(4) 0.6667 0.1667
C148 C 0.7344(6) 0.5946(5) 0.16575(16)
C149 C 0.8065(4) 0.7387(5) 0.16758(16)
H156 H 0.8574 0.7890 0.1686
H157 H 0.7350 0.5443 0.1647
C150_2 C 0.2586(4) 0.9919(6) 0.16706(15)
C152_2 C 0.0081(6) 0.2666(4) 0.16706(15)
C153 C 0.6586(6) 0.5919(4) 0.16627(15)
C154 C 0.7334(4) 0.7414(4) 0.16706(15)
H158_2 H 0.2071 0.9420 0.1669
H159_2 H 0.0580 0.2650 0.1669
H161 H 0.7350 0.7929 0.1669
H162 H 0.6087 0.5404 0.1664
C155_2 C 0.0100(5) 0.3433(5) 0.1667
C156 C 0.6567(5) 0.6667 0.1667
C157_2 C 0.0914(4) 0.4247(4) 0.1667
C158 C 0.5753(4) 0.6667 0.1667
C159 C 0.3706(3) 0.8889(4) 0.14447(11)
C160_2 C 0.1483(3) 0.4444(4) 0.18886(11)
C161_2 C 0.1111(4) 0.4816(3) 0.14447(11)
C162 C 0.5556(4) 0.7039(3) 0.18886(11)
C163 C 0.5184(3) 0.6294(3) 0.14447(11)
C164 C 0.3741(3) 0.8145(4) 0.14511(12)
C165_2 C 0.2262(3) 0.5188(4) 0.18822(12)
C166_2 C 0.1855(4) 0.5595(3) 0.14511(12)
C167 C 0.4812(4) 0.7074(3) 0.18822(12)
C168 C 0.4405(3) 0.6259(3) 0.14511(12)
C169_2 C 0.2454(4) 0.5787(4) 0.1667
C170 C 0.4213(4) 0.6667 0.1667
C171 C 0.4171(4) 0.7976(6) 0.12151(13)
C172_2 C 0.2024(6) 0.6194(4) 0.12151(13)
C173_2 C 0.2861(4) 0.5357(6) 0.21182(13)
C174 C 0.3806(4) 0.5829(4) 0.12151(13)
C175 C 0.4643(6) 0.7504(4) 0.21182(13)
H163 H 0.4412 0.8451 0.1091
H164_2 H 0.1549 0.5960 0.1091
H165_2 H 0.2627 0.4882 0.2242
H166 H 0.4040 0.5588 0.1091
H167 H 0.5118 0.7745 0.2242
H168 H 0.3768 0.7484 0.1116
H169_2 H 0.2516 0.6283 0.1116
H170_2 H 0.2950 0.5849 0.2217
H171 H 0.3717 0.6232 0.1116
H172 H 0.4151 0.7101 0.2217
H173 H 0.4609 0.7887 0.1286
H174_2 H 0.2113 0.6721 0.1286
H175 H 0.3388 0.5446 0.2047
H176_2 H 0.3279 0.5391 0.1286
H177 H 0.4554 0.7942 0.2047
C176 C 0.4022(4) 0.9449(6) 0.11978(13)
C177_2 C 0.0551(6) 0.4572(4) 0.11978(13)
C178_2 C 0.1239(4) 0.3884(6) 0.21355(13)
C179 C 0.5428(4) 0.5978(4) 0.11978(13)
C180 C 0.6116(6) 0.7355(4) 0.21355(13)
H178 H 0.3954 0.9930 0.1226
H179_2 H 0.0070 0.4023 0.1226
H180_2 H 0.0690 0.3403 0.2107
H181 H 0.5977 0.6046 0.1226
H182 H 0.6597 0.7287 0.2107
H183 H 0.3710 0.9147 0.1036
H184_2 H 0.0853 0.4562 0.1036
H185_2 H 0.1229 0.4186 0.2297
H186 H 0.5438 0.6290 0.1036
H187 H 0.5814 0.7043 0.2297
H188 H 0.4608 0.9634 0.1170
H189_2 H 0.0366 0.4973 0.1170
H190_2 H 0.1640 0.3699 0.2163
H191 H 0.5027 0.5392 0.1170
H192 H 0.6301 0.7941 0.2163
Cd3 Cd 0.6667 0.93391(3) 0.8333
H33_2 H 0.7712 0.9599 0.8923
I7 I 0.88156(4) 0.53075(4) 0.129273(12)
N11 N 0.9485(3) 0.5815(4) 0.20077(10)
H36 H 0.9599 0.7712 0.1077
I5_2 I 0.53075(7) 0.88156(4) 0.870727(12)
N10_2 N 0.5815(6) 0.9485(3) 0.79923(10)
N14_2 N 0.6667(6) 0.8076(4) 0.8333
B2_4 B 0.6667 0.3333 0.8333
C27_3 C 0.9900(5) 0.3333 0.8333
C28_3 C 0.9086(4) 0.3333 0.8333
C29_3 C 0.8517(3) 0.2961(3) 0.81114(11)
C30_3 C 0.7738(3) 0.2926(3) 0.81178(12)
C31_3 C 0.7546(4) 0.3333 0.8333
C32_3 C 0.7139(4) 0.2496(4) 0.78818(13)
H27_3 H 0.7373 0.2255 0.7758
H28_3 H 0.7050 0.2899 0.7783
H29_3 H 0.6612 0.2058 0.7953
C33_3 C 0.8761(4) 0.2645(4) 0.78645(13)
H30_3 H 0.9310 0.2713 0.7893
H31_3 H 0.8771 0.2957 0.7703
H32_3 H 0.8360 0.2059 0.7837
C148_2 C 0.5946(5) 0.7344(6) 0.83425(16)
C149_2 C 0.7387(5) 0.8065(4) 0.83242(16)
H156_2 H 0.7890 0.8574 0.8314
H157_2 H 0.5443 0.7350 0.8353
C150_3 C 0.9919(6) 0.2586(4) 0.83294(15)
C152_3 C 0.2666(4) 0.0081(6) 0.83294(15)
C153_2 C 0.5919(4) 0.6586(6) 0.83373(15)
C154_2 C 0.7414(4) 0.7334(4) 0.83294(15)
H158_3 H 0.9420 0.2071 0.8331
H159_3 H 0.2650 0.0580 0.8331
H161_2 H 0.7929 0.7350 0.8331
H162_2 H 0.5404 0.6087 0.8336
C155_3 C 0.3433(5) 0.0100(5) 0.8333
C156_2 C 0.6667 0.6567(5) 0.8333
C157_3 C 0.4247(4) 0.0914(4) 0.8333
C158_2 C 0.6667 0.5753(4) 0.8333
C159_2 C 0.8889(4) 0.3706(3) 0.85553(11)
C160_3 C 0.4444(4) 0.1483(3) 0.81114(11)
C161_3 C 0.4816(3) 0.1111(4) 0.85553(11)
C162_2 C 0.7039(3) 0.5556(4) 0.81114(11)
C163_2 C 0.6294(3) 0.5184(3) 0.85553(11)
C164_2 C 0.8145(4) 0.3741(3) 0.85489(12)
C165_3 C 0.5188(4) 0.2262(3) 0.81178(12)
C166_3 C 0.5595(3) 0.1855(4) 0.85489(12)
C167_2 C 0.7074(3) 0.4812(4) 0.81178(12)
C168_2 C 0.6259(3) 0.4405(3) 0.85489(12)
C169_3 C 0.5787(4) 0.2454(4) 0.8333
C170_2 C 0.6667 0.4213(4) 0.8333
C171_2 C 0.7976(6) 0.4171(4) 0.87849(13)
C172_3 C 0.6194(4) 0.2024(6) 0.87849(13)
C173_3 C 0.5357(6) 0.2861(4) 0.78818(13)
C174_2 C 0.5829(4) 0.3806(4) 0.87849(13)
C175_2 C 0.7504(4) 0.4643(6) 0.78818(13)
H163_2 H 0.8451 0.4412 0.8909
H164_3 H 0.5960 0.1549 0.8909
H165_3 H 0.4882 0.2627 0.7758
H166_2 H 0.5588 0.4040 0.8909
H167_2 H 0.7745 0.5118 0.7758
H168_2 H 0.7484 0.3768 0.8884
H169_3 H 0.6283 0.2516 0.8884
H170_3 H 0.5849 0.2950 0.7783
H171_2 H 0.6232 0.3717 0.8884
H172_2 H 0.7101 0.4151 0.7783
H173_2 H 0.7887 0.4609 0.8714
H174_3 H 0.6721 0.2113 0.8714
H175_2 H 0.5446 0.3388 0.7953
H176_3 H 0.5391 0.3279 0.8714
H177_2 H 0.7942 0.4554 0.7953
C176_2 C 0.9449(6) 0.4022(4) 0.88022(13)
C177_3 C 0.4572(4) 0.0551(6) 0.88022(13)
C178_3 C 0.3884(6) 0.1239(4) 0.78645(13)
C179_2 C 0.5978(4) 0.5428(4) 0.88022(13)
C180_2 C 0.7355(4) 0.6116(6) 0.78645(13)
H178_2 H 0.9930 0.3954 0.8774
H179_3 H 0.4023 0.0070 0.8774
H180_3 H 0.3403 0.0690 0.7893
H181_2 H 0.6046 0.5977 0.8774
H182_2 H 0.7287 0.6597 0.7893
H183_2 H 0.9147 0.3710 0.8964
H184_3 H 0.4562 0.0853 0.8964
H185_3 H 0.4186 0.1229 0.7703
H186_2 H 0.6290 0.5438 0.8964
H187_2 H 0.7043 0.5814 0.7703
H188_2 H 0.9634 0.4608 0.8830
H189_3 H 0.4973 0.0366 0.8830
H190_3 H 0.3699 0.1640 0.7837
H191_2 H 0.5392 0.5027 0.8830
H192_2 H 0.7941 0.6301 0.7837
Cd1_3 Cd -0.0000 0.60054(3) 0.5000
B2_5 B -0.0000 0.0000 0.5000
N2_3 N -0.0000 0.4742(4) 0.5000
C25_2 C 0.0721(5) 0.4731(4) 0.49908(16)
H25_2 H 0.1224 0.5240 0.4980
C26_2 C 0.0748(4) 0.4000(4) 0.49960(15)
H26_2 H 0.1263 0.4016 0.4997
C27_4 C -0.0000 0.3233(5) 0.5000
C28_4 C -0.0000 0.2419(4) 0.5000
C31_4 C -0.0000 0.0879(4) 0.5000
Cd9_2 Cd 0.60058(3) 0.0000 0.5000
I3_4 I 0.13591(4) 0.68414(6) 0.462607(12)
N9_4 N 0.0851(4) 0.7003(5) 0.53411(10)
N13_2 N 0.4743(4) 0.0000 0.5000
C149_3 C 0.4731(4) 0.0721(5) 0.50092(16)
H156_3 H 0.5240 0.1224 0.5020
C154_3 C 0.4000(4) 0.0748(4) 0.50040(15)
H161_3 H 0.4016 0.1263 0.5003
C156_3 C 0.3234(5) 0.0000 0.5000
C158_3 C 0.2420(4) 0.0000 0.5000
C159_3 C 0.0372(3) 0.2223(4) 0.47781(11)
C162_3 C 0.2223(4) 0.0372(3) 0.52219(11)
C164_3 C 0.0407(3) 0.1479(4) 0.47845(12)
C167_3 C 0.1479(4) 0.0407(3) 0.52155(12)
C170_3 C 0.0880(4) 0.0000 0.5000
C171_3 C 0.0837(4) 0.1310(6) 0.45485(13)
C175_3 C 0.1310(6) 0.0837(4) 0.54515(13)
H163_3 H 0.1078 0.1785 0.4425
H167_3 H 0.1785 0.1078 0.5575
H168_3 H 0.0434 0.0818 0.4450
H172_3 H 0.0818 0.0434 0.5550
H173_3 H 0.1275 0.1221 0.4620
H177_3 H 0.1221 0.1275 0.5380
C176_3 C 0.0688(4) 0.2783(6) 0.45312(13)
C180_3 C 0.2783(6) 0.0688(4) 0.54688(13)
H178_3 H 0.0620 0.3264 0.4560
H182_3 H 0.3264 0.0620 0.5440
H183_3 H 0.0376 0.2481 0.4370
H187_3 H 0.2481 0.0376 0.5630
H188_3 H 0.1274 0.2968 0.4504
H192_3 H 0.2968 0.1274 0.5496
I6 I 0.68414(6) 0.13591(4) 0.537393(12)
N7 N 0.7003(5) 0.0851(4) 0.46589(10)
C37 C 0.6807(7) 0.1127(5) 0.44275(13)
C38 C 0.9013(5) 0.5539(5) 0.22391(13)
H36_2 H 0.6266 0.1045 0.4410
H37 H 0.8554 0.5621 0.2256
C42 C 0.7372(7) 0.1525(5) 0.42164(15)
C43 C 0.9180(5) 0.5141(5) 0.24502(15)
H41 H 0.7212 0.1703 0.4059
H42 H 0.8842 0.4963 0.2607
C47 C 0.8187(6) 0.1659(4) 0.42399(11)
C48 C 0.9861(4) 0.5007(4) 0.24267(11)
C52 C 0.8383(6) 0.1402(4) 0.44834(12)
H46 H 0.8923 0.1488 0.4510
C57 C 0.7783(7) 0.1018(5) 0.46875(13)
H51 H 0.7937 0.0870 0.4852
C62 C 0.8828(6) 0.2093(4) 0.40132(12)
C67 C 0.9157(6) 0.2951(4) 0.39641(12)
C68 C 0.9539(4) 0.3715(4) 0.27025(12)
C72 C 0.9716(6) 0.3334(4) 0.37474(12)
C73 C 0.9715(4) 0.3332(4) 0.29192(12)
C77 C 0.9989(5) 0.2879(4) 0.35795(12)
C82 C 0.9689(6) 0.2017(4) 0.36385(12)
C87 C 0.9084(6) 0.1622(4) 0.38551(11)
C92 C 0.8715(6) 0.0685(4) 0.39023(15)
H56 H 0.8327 0.0509 0.4054
H61 H 0.9159 0.0570 0.3944
H66 H 0.8425 0.0384 0.3738
C97 C 0.9954(6) 0.1509(4) 0.34781(15)
H76 H 0.9472 0.1055 0.3388
C103 C 0.9127(4) 0.2390(4) 0.29646(16)
H87 H 0.9325 0.2204 0.3118
H92 H 0.9117 0.2088 0.2800
H96 H 0.9616 0.4380 0.3663
H97 H 0.8569 0.2286 0.3003
C107 C 0.8936(7) 0.3458(5) 0.41529(16)
C108 C 0.8811(5) 0.3208(5) 0.25137(16)
H101 H 0.8537 0.3094 0.4289
H102 H 0.8776 0.3572 0.2377
H106 H 0.8692 0.3725 0.4046
H107 H 0.8300 0.2941 0.2620
H111 H 0.9434 0.3879 0.4244
H112 H 0.8888 0.2787 0.2422
C1_3 C 0.5539(5) 0.9013(5) 0.77609(13)
H1_3 H 0.5621 0.8554 0.7744
C2_3 C 0.5141(5) 0.9180(5) 0.75498(15)
H2_3 H 0.4963 0.8842 0.7393
C3_3 C 0.5007(4) 0.9861(4) 0.75733(11)
C7_3 C 0.3715(4) 0.9539(4) 0.72975(12)
C8_2 C 0.3332(4) 0.9715(4) 0.70808(12)
C14_2 C 0.2390(4) 0.9127(4) 0.70354(16)
H11_2 H 0.2204 0.9325 0.6882
H12_2 H 0.2088 0.9117 0.7200
H13_2 H 0.2286 0.8569 0.6997
C15_2 C 0.3208(5) 0.8811(5) 0.74863(16)
H14_3 H 0.3572 0.8776 0.7623
H15_2 H 0.2941 0.8300 0.7380
H16_2 H 0.2787 0.8888 0.7578
C34_2 C 0.1127(5) 0.6807(7) 0.55725(13)
H33_3 H 0.1045 0.6266 0.5590
C39_2 C 0.1525(5) 0.7372(7) 0.57836(15)
H38_2 H 0.1703 0.7212 0.5941
C44_2 C 0.1659(4) 0.8187(6) 0.57601(11)
C49_2 C 0.1402(4) 0.8383(6) 0.55166(12)
H43_2 H 0.1488 0.8923 0.5490
C54_2 C 0.1018(5) 0.7783(7) 0.53125(13)
H48_2 H 0.0870 0.7937 0.5148
C59_2 C 0.2093(4) 0.8828(6) 0.59868(12)
C64_2 C 0.2951(4) 0.9157(6) 0.60359(12)
C69_3 C 0.3334(4) 0.9716(6) 0.62526(12)
C74_2 C 0.2879(4) 0.9989(5) 0.64205(12)
C79_2 C 0.2017(4) 0.9689(6) 0.63615(12)
C84_2 C 0.1622(4) 0.9084(6) 0.61449(11)
C89_2 C 0.0685(4) 0.8715(6) 0.60977(15)
H53_2 H 0.0509 0.8327 0.5946
H58_2 H 0.0570 0.9159 0.6056
H63_2 H 0.0384 0.8425 0.6262
C94_2 C 0.1509(4) 0.9954(6) 0.65219(15)
H73_2 H 0.1055 0.9472 0.6612
H93_3 H 0.4380 0.9616 0.6337
C104_3 C 0.3458(5) 0.8936(7) 0.58471(16)
H98_2 H 0.3094 0.8537 0.5711
H103_3 H 0.3725 0.8692 0.5954
H108_3 H 0.3879 0.9434 0.5756
Cd2_5 Cd 1.0000 -0.0000 0.0000
I8_3 I 1.0000 -0.0000 0.058915(16)
B4 B 0.3985(5) -0.0000 0.0000
N17 N 0.8723(3) -0.0000 0.0000
C72_2 C 0.3049(6) 0.0001(4) 0.04141(12)
C102 C 0.3403(6) 0.0943(4) 0.03687(16)
H86 H 0.3787 0.1129 0.0215
H91 H 0.3695 0.1245 0.0533
H96_2 H 0.2949 0.1047 0.0330
C107_2 C 0.2269(7) 0.0125(5) 0.08196(16)
H106_2 H 0.2025 0.0392 0.0713
H111_2 H 0.2767 0.0546 0.0911
C120 C 0.7210(4) -0.0000 0.0000
C122 C 0.6389(4) -0.0000 0.0000
C127 C 0.6152(4) 0.0277(4) 0.02346(11)
C132 C 0.5384(4) 0.0262(4) 0.02393(12)
C134 C 0.4860(4) -0.0000 0.0000
C139 C 0.5158(5) 0.0567(6) 0.04984(13)
H127 H 0.5587 0.0709 0.0636
H132 H 0.4628 0.0131 0.0569
H137 H 0.5115 0.1055 0.0455
C144 C 0.6728(4) 0.0595(6) 0.04854(14)
H142 H 0.6473 0.0759 0.0628
H147 H 0.7258 0.1071 0.0433
H152 H 0.6819 0.0155 0.0554
Cd2_6 Cd 1.0000 -0.0000 1.0000
I2_3 I 1.0000 -0.0000 0.941085(16)
Cd7 Cd 0.26721(3) 0.3333 0.8333
B4_2 B 0.3985(5) -0.0000 1.0000
N8 N 0.2818(3) 0.2482(4) 0.86744(10)
N17_2 N 0.8723(3) -0.0000 1.0000
C38_2 C 0.2346(5) 0.2206(5) 0.89058(13)
H37_2 H 0.1887 0.2288 0.8923
C43_2 C 0.2513(5) 0.1808(5) 0.91169(15)
H42_2 H 0.2175 0.1630 0.9274
C48_2 C 0.3194(4) 0.1674(4) 0.90934(11)
C53 C 0.3647(4) 0.1931(4) 0.88499(12)
H47 H 0.4101 0.1845 0.8823
C58 C 0.3431(5) 0.2315(5) 0.86458(13)
H52 H 0.3733 0.2463 0.8481
C63 C 0.3401(4) 0.1240(4) 0.93201(12)
C68_2 C 0.2872(4) 0.0382(4) 0.93692(12)
C78 C 0.3776(3) 0.0454(4) 0.97538(12)
C83 C 0.4338(4) 0.1316(4) 0.96948(12)
C88 C 0.4128(4) 0.1711(4) 0.94782(11)
C93 C 0.4696(4) 0.2648(4) 0.94310(15)
H57 H 0.4484 0.2824 0.9279
H62 H 0.5255 0.2763 0.9389
H67 H 0.4707 0.2949 0.9595
C98 C 0.5111(4) 0.1824(4) 0.98552(15)
H72 H 0.5167 0.1478 0.9993
H77 H 0.5083 0.2278 0.9945
H82 H 0.5588 0.2050 0.9733
H102_2 H 0.2109 0.0239 0.9044
C112 C 0.8675(6) 0.0637(4) 0.98914(15)
H116 H 0.9152 0.1079 0.9811
C117 C 0.7935(6) 0.0664(4) 0.98945(15)
H121 H 0.7927 0.1133 0.9825
C120_2 C 0.7210(4) -0.0000 1.0000
C122_2 C 0.6389(4) -0.0000 1.0000
C134_2 C 0.4860(4) -0.0000 1.0000
I4_2 I 0.21489(4) 0.19742(7) 0.795940(12)
I5_3 I 0.35080(6) 0.46925(7) 0.870727(12)
N10_3 N 0.3669(5) 0.4185(6) 0.79923(10)
N14_3 N 0.1409(4) 0.3333(6) 0.8333
C25_3 C 0.1398(4) 0.4054(5) 0.83425(16)
H25_3 H 0.1907 0.4557 0.8353
C26_3 C 0.0667(4) 0.4081(4) 0.83373(15)
H26_3 H 0.0683 0.4596 0.8336
C145_3 C 0.0677(6) 0.2613(5) 0.83242(16)
H153_3 H 0.0683 0.2110 0.8314
B2_6 B -0.0000 1.0000 0.5000
Cd9_3 Cd 0.60058(3) 1.0000 0.5000
N13_3 N 0.4743(4) 1.0000 0.5000
C148_3 C 0.4011(6) 0.9279(5) 0.49908(16)
H157_3 H 0.4017 0.8776 0.4980
C153_3 C 0.3253(6) 0.9252(4) 0.49960(15)
H162_3 H 0.2754 0.8737 0.4997
C156_4 C 0.3234(5) 1.0000 0.5000
C158_4 C 0.2420(4) 1.0000 0.5000
C163_3 C 0.1850(3) 0.9628(3) 0.47781(11)
C168_3 C 0.1071(3) 0.9593(3) 0.47845(12)
C170_4 C 0.0880(4) 1.0000 0.5000
C174_3 C 0.0472(4) 0.9163(4) 0.45485(13)
H166_3 H 0.0706 0.8922 0.4425
H171_3 H 0.0383 0.9566 0.4450
H175_3 H 0.0055 0.8779 0.5380
C179_3 C 0.2094(4) 0.9312(4) 0.45312(13)
H181_3 H 0.2643 0.9380 0.4560
H186_3 H 0.2104 0.9624 0.4370
H191_3 H 0.1693 0.8726 0.4504
I7_2 I 0.54822(4) 0.86409(4) 0.462607(12)
N11_2 N 0.6151(3) 0.9149(4) 0.53411(10)
B4_3 B 0.7318(5) 0.6667 0.6667
C37_2 C 0.3473(7) 0.4461(5) 0.77609(13)
C38_3 C 0.5679(5) 0.8873(5) 0.55725(13)
H36_3 H 0.2932 0.4379 0.7744
H37_3 H 0.5220 0.8955 0.5590
C42_2 C 0.4038(7) 0.4859(5) 0.75498(15)
C43_3 C 0.5846(5) 0.8475(5) 0.57836(15)
H41_2 H 0.3878 0.5037 0.7393
H42_3 H 0.5508 0.8297 0.5941
C47_2 C 0.4853(6) 0.4993(4) 0.75733(11)
C48_3 C 0.6527(4) 0.8341(4) 0.57601(11)
C52_2 C 0.5049(6) 0.4736(4) 0.78168(12)
C53_2 C 0.6980(4) 0.8598(4) 0.55166(12)
H46_2 H 0.5589 0.4822 0.7844
H47_2 H 0.7434 0.8512 0.5490
C57_2 C 0.4449(7) 0.4352(5) 0.80209(13)
C58_2 C 0.6764(5) 0.8982(5) 0.53125(13)
H51_2 H 0.4603 0.4204 0.8186
H52_2 H 0.7066 0.9130 0.5148
C62_2 C 0.5494(6) 0.5427(4) 0.73466(12)
C63_2 C 0.6734(4) 0.7907(4) 0.59868(12)
C67_2 C 0.5823(6) 0.6285(4) 0.72975(12)
C68_3 C 0.6205(4) 0.7049(4) 0.60359(12)
C72_3 C 0.6382(6) 0.6668(4) 0.70808(12)
C73_2 C 0.6381(4) 0.6666(4) 0.62526(12)
C77_2 C 0.6655(5) 0.6213(4) 0.69129(12)
C78_2 C 0.7109(3) 0.7121(4) 0.64205(12)
C82_2 C 0.6355(6) 0.5351(4) 0.69719(12)
C83_2 C 0.7671(4) 0.7983(4) 0.63615(12)
C87_2 C 0.5750(6) 0.4956(4) 0.71885(11)
C88_2 C 0.7461(4) 0.8378(4) 0.61449(11)
C92_2 C 0.5381(6) 0.4019(4) 0.72357(15)
C93_2 C 0.8029(4) 0.9315(4) 0.60977(15)
H56_2 H 0.4993 0.3843 0.7388
H57_2 H 0.7817 0.9491 0.5946
H61_2 H 0.5825 0.3904 0.7278
H62_2 H 0.8588 0.9430 0.6056
H66_2 H 0.5091 0.3718 0.7072
H67_2 H 0.8040 0.9616 0.6262
C97_2 C 0.6620(6) 0.4843(4) 0.68115(15)
C98_2 C 0.8444(4) 0.8491(4) 0.65219(15)
H71 H 0.7022 0.5189 0.6674
H72_2 H 0.8500 0.8145 0.6660
H76_2 H 0.6138 0.4389 0.6722
H77_2 H 0.8416 0.8945 0.6612
H81 H 0.6871 0.4617 0.6934
H82_2 H 0.8921 0.8717 0.6400
C102_2 C 0.6736(6) 0.7610(4) 0.70354(16)
C103_2 C 0.5793(4) 0.5724(4) 0.62980(16)
H86_2 H 0.7120 0.7796 0.6882
H87_2 H 0.5991 0.5538 0.6452
H91_2 H 0.7028 0.7912 0.7200
H92_2 H 0.5783 0.5422 0.6134
H96_3 H 0.6282 0.7714 0.6997
H97_2 H 0.5235 0.5620 0.6337
C107_3 C 0.5602(7) 0.6792(5) 0.74863(16)
C108_2 C 0.5477(5) 0.6542(5) 0.58471(16)
H101_2 H 0.5203 0.6428 0.7623
H102_3 H 0.5442 0.6906 0.5711
H106_3 H 0.5358 0.7059 0.7380
H107_2 H 0.4966 0.6275 0.5954
H111_3 H 0.6100 0.7213 0.7578
H112_2 H 0.5554 0.6121 0.5756
C122_3 C 0.9722(4) 0.6667 0.6667
C126 C 0.9208(6) 0.6390(4) 0.64321(11)
C127_2 C 0.9485(4) 0.6944(4) 0.69013(11)
C131 C 0.8455(6) 0.6405(4) 0.64274(12)
C132_2 C 0.8717(4) 0.6929(4) 0.69060(12)
C134_3 C 0.8193(4) 0.6667 0.6667
C138 C 0.7924(8) 0.6100(6) 0.61683(13)
C139_2 C 0.8491(5) 0.7234(6) 0.71651(13)
H126 H 0.8211 0.5958 0.6031
H127_2 H 0.8920 0.7376 0.7303
H131 H 0.7830 0.6536 0.6098
H132_2 H 0.7961 0.6798 0.7236
H136 H 0.7393 0.5612 0.6212
H137_2 H 0.8448 0.7722 0.7122
C143 C 0.9466(7) 0.6072(6) 0.61813(14)
H141 H 0.9047 0.5908 0.6039
H142_2 H 0.9806 0.7426 0.7295
H146 H 0.9520 0.5596 0.6234
H151 H 0.9997 0.6512 0.6113
Cd2_7 Cd 1.0000 1.0000 0.0000
B1_4 B 1.0000 0.3985(5) 0.0000
N3_3 N 1.0000 0.8723(3) 0.0000
C8_3 C 0.9999(4) 0.3048(4) 0.04141(12)
C14_3 C 0.9057(4) 0.2460(4) 0.03687(16)
H11_3 H 0.8871 0.2658 0.0215
H12_3 H 0.8755 0.2450 0.0533
H13_3 H 0.8953 0.1902 0.0330
C15_3 C 0.9875(5) 0.2144(5) 0.08196(16)
H15_3 H 0.9608 0.1633 0.0713
H16_3 H 0.9454 0.2221 0.0911
C18_3 C 1.0000 0.7210(4) 0.0000
C19_4 C 1.0000 0.6389(4) 0.0000
C22_4 C 1.0000 0.4860(4) 0.0000
I6_2 I 0.01747(6) 0.80258(4) 0.204060(12)
I8_4 I 1.0000 1.0000 0.058915(16)
B4_4 B 0.3985(5) 1.0000 0.0000
N7_2 N 0.0336(5) 0.7518(4) 0.13256(10)
N17_3 N 0.8723(3) 1.0000 0.0000
C37_3 C 0.0140(7) 0.7794(5) 0.10942(13)
C42_3 C 0.0705(7) 0.8192(5) 0.08831(15)
H41_3 H 0.0545 0.8370 0.0726
C47_3 C 0.1520(6) 0.8326(4) 0.09066(11)
C52_3 C 0.1716(6) 0.8069(4) 0.11501(12)
H46_3 H 0.2256 0.8155 0.1177
C57_3 C 0.1116(7) 0.7685(5) 0.13542(13)
H51_3 H 0.1270 0.7537 0.1519
C62_3 C 0.2161(6) 0.8760(4) 0.06799(12)
C67_3 C 0.2490(6) 0.9618(4) 0.06308(12)
C77_3 C 0.3322(5) 0.9546(4) 0.02462(12)
C82_3 C 0.3022(6) 0.8684(4) 0.03052(12)
C87_3 C 0.2417(6) 0.8289(4) 0.05218(11)
C92_3 C 0.2048(6) 0.7352(4) 0.05690(15)
H56_3 H 0.1660 0.7176 0.0721
H61_3 H 0.2492 0.7237 0.0611
H66_3 H 0.1758 0.7051 0.0405
C97_3 C 0.3287(6) 0.8176(4) 0.01448(15)
H71_2 H 0.3689 0.8522 0.0007
H76_3 H 0.2805 0.7722 0.0055
H81_2 H 0.3538 0.7950 0.0267
H101_3 H 0.1870 0.9761 0.0956
C113 C 0.8038(4) 0.9363(4) 0.01086(15)
H117 H 0.8073 0.8921 0.0189
C118 C 0.7271(4) 0.9336(4) 0.01055(15)
H122 H 0.6794 0.8867 0.0175
C120_3 C 0.7210(4) 1.0000 0.0000
C122_4 C 0.6389(4) 1.0000 0.0000
C123_2 C 0.9723(4) 0.5875(6) 0.02346(11)
C128_2 C 0.9738(4) 0.5122(6) 0.02393(12)
C134_4 C 0.4860(4) 1.0000 0.0000
C135_2 C 0.9433(6) 0.4591(8) 0.04984(13)
H123_2 H 0.9291 0.4878 0.0636
H128_2 H 0.9869 0.4497 0.0569
H133_2 H 0.8945 0.4060 0.0455
C140_2 C 0.9405(6) 0.6133(7) 0.04854(14)
H138_2 H 0.9241 0.5714 0.0628
H143_2 H 0.8929 0.6187 0.0433
H148_2 H 0.9845 0.6664 0.0554
Cd2_8 Cd 0.6667 0.3333 0.3333
I2_4 I 0.6667 0.3333 0.274418(16)
N3_4 N 0.6667 0.2056(3) 0.3333
C16 C 0.6030(4) 0.1371(4) 0.32247(15)
H17 H 0.5588 0.1406 0.3144
C17 C 0.6003(4) 0.0604(4) 0.32278(15)
H18 H 0.5534 0.0127 0.3158
C18_4 C 0.6667 0.0543(4) 0.3333
C24_2 C 0.7262(6) 0.0061(4) 0.28479(14)
H23_2 H 0.7738 0.0591 0.2900
H24_2 H 0.6822 0.0152 0.2779
I8_5 I 0.6667 0.3333 0.392248(16)
B4_5 B 0.0652(5) 0.3333 0.3333
N16_3 N 0.7944(3) 0.4610(3) 0.3333
N17_4 N 0.5390(3) 0.3333 0.3333
C53_3 C 0.0314(4) 0.5264(4) 0.21832(12)
H47_3 H 0.0768 0.5178 0.2156
C58_3 C 0.0098(5) 0.5648(5) 0.19791(13)
H52_3 H 0.0400 0.5796 0.1814
C63_3 C 0.0068(4) 0.4573(4) 0.26534(12)
C78_3 C 0.0443(3) 0.3787(4) 0.30871(12)
C83_3 C 0.1005(4) 0.4649(4) 0.30281(12)
C88_3 C 0.0795(4) 0.5044(4) 0.28115(11)
C93_3 C 0.1363(4) 0.5981(4) 0.27643(15)
H57_3 H 0.1151 0.6157 0.2612
H62_3 H 0.1922 0.6096 0.2722
H67_3 H 0.1374 0.6282 0.2928
C98_3 C 0.1778(4) 0.5157(4) 0.31885(15)
H71_3 H 0.0356 0.1855 0.3340
H72_3 H 0.1834 0.4811 0.3326
H77_3 H 0.1750 0.5611 0.3278
H81_3 H 0.0205 0.1283 0.3600
H82_3 H 0.2255 0.5383 0.3066
C102_3 C 0.0070(6) 0.4276(4) 0.37020(16)
H86_3 H 0.0454 0.4462 0.3548
H91_3 H 0.0362 0.4578 0.3866
C109_2 C 0.7304(4) 0.2008(6) 0.34419(15)
C110_2 C 0.8629(4) 0.4658(6) 0.32247(15)
C111_2 C 0.7992(6) 0.5295(4) 0.34419(15)
C112_2 C 0.5342(6) 0.3970(4) 0.32247(15)
C113_2 C 0.4705(4) 0.2696(4) 0.34419(15)
H113_2 H 0.7746 0.2485 0.3522
H114_2 H 0.8594 0.4181 0.3144
H115_2 H 0.7515 0.5260 0.3522
H116_2 H 0.5819 0.4412 0.3144
H117_2 H 0.4740 0.2254 0.3522
C114_2 C 0.7331(4) 0.1268(6) 0.34388(15)
C115_2 C 0.9396(4) 0.5398(6) 0.32278(15)
C116_2 C 0.8732(6) 0.6062(4) 0.34388(15)
C117_2 C 0.4602(6) 0.3997(4) 0.32278(15)
C118_2 C 0.3938(4) 0.2669(4) 0.34388(15)
H118_2 H 0.7800 0.1260 0.3508
H119_2 H 0.9873 0.5406 0.3158
H120_2 H 0.8740 0.6539 0.3508
H121_2 H 0.4594 0.4466 0.3158
H122_2 H 0.3461 0.2200 0.3508
C119_3 C 0.9457(4) 0.6123(4) 0.3333
C120_4 C 0.3877(4) 0.3333 0.3333
C122_5 C 0.3056(4) 0.3333 0.3333
C126_2 C 0.2542(6) 0.3056(4) 0.30987(11)
C127_3 C 0.2819(4) 0.3610(4) 0.35679(11)
C131_2 C 0.1789(6) 0.3071(4) 0.30940(12)
C132_3 C 0.2051(4) 0.3595(4) 0.35726(12)
C134_5 C 0.1527(4) 0.3333 0.3333
C138_2 C 0.1258(8) 0.2766(6) 0.28349(13)
C139_3 C 0.1825(5) 0.3900(6) 0.38317(13)
H126_2 H 0.1545 0.2624 0.2697
H127_3 H 0.2254 0.4042 0.3969
H131_2 H 0.1164 0.3202 0.2764
H132_3 H 0.1295 0.3464 0.3902
H136_2 H 0.0727 0.2278 0.2878
H137_3 H 0.1782 0.4388 0.3788
C141_3 C 0.9939(4) 0.7200(7) 0.28479(14)
C143_2 C 0.2800(7) 0.2738(6) 0.28479(14)
C144_2 C 0.3395(4) 0.3928(6) 0.38187(14)
H141_2 H 0.2381 0.2574 0.2705
H142_3 H 0.3140 0.4092 0.3961
H144_3 H 0.9409 0.7146 0.2900
H146_2 H 0.2854 0.2262 0.2900
H147_2 H 0.3925 0.4404 0.3766
H149_3 H 0.9848 0.6669 0.2779
H151_2 H 0.3331 0.3178 0.2779
H152_2 H 0.3486 0.3488 0.3887
Cd2_9 Cd 1.0000 1.0000 1.0000
I2_5 I 1.0000 1.0000 0.941085(16)
B1_5 B 1.0000 0.3985(5) 1.0000
N3_5 N 1.0000 0.8723(3) 1.0000
C16_2 C 0.9363(4) 0.8038(4) 0.98914(15)
H17_2 H 0.8921 0.8073 0.9811
C17_2 C 0.9336(4) 0.7271(4) 0.98945(15)
H18_2 H 0.8867 0.6794 0.9825
C18_5 C 1.0000 0.7210(4) 1.0000
C19_5 C 1.0000 0.6389(4) 1.0000
C22_5 C 1.0000 0.4860(4) 1.0000
B4_6 B 0.3985(5) 1.0000 1.0000
N4 N 0.7518(4) 0.0336(5) 0.86744(10)
N17_5 N 0.8723(3) 1.0000 1.0000
C34_3 C 0.7794(5) 0.0140(7) 0.89058(13)
C39_3 C 0.8192(5) 0.0705(7) 0.91169(15)
H38_3 H 0.8370 0.0545 0.9274
C44_3 C 0.8326(4) 0.1520(6) 0.90934(11)
C49_3 C 0.8069(4) 0.1716(6) 0.88499(12)
H43_3 H 0.8155 0.2256 0.8823
C54_3 C 0.7685(5) 0.1116(7) 0.86458(13)
H48_3 H 0.7537 0.1270 0.8481
C59_3 C 0.8760(4) 0.2161(6) 0.93201(12)
C64_3 C 0.9618(4) 0.2490(6) 0.93692(12)
C73_3 C 0.3048(4) 0.9999(4) 0.95859(12)
C74_3 C 0.9546(4) 0.3322(5) 0.97538(12)
C79_3 C 0.8684(4) 0.3022(6) 0.96948(12)
C84_3 C 0.8289(4) 0.2417(6) 0.94782(11)
C89_3 C 0.7352(4) 0.2048(6) 0.94310(15)
H53_3 H 0.7176 0.1660 0.9279
H58_3 H 0.7237 0.2492 0.9389
H63_3 H 0.7051 0.1758 0.9595
C94_3 C 0.8176(4) 0.3287(6) 0.98552(15)
H68_2 H 0.8522 0.3689 0.9993
H73_3 H 0.7722 0.2805 0.9945
H78_2 H 0.7950 0.3538 0.9733
C103_3 C 0.2460(4) 0.9057(4) 0.96313(16)
H87_3 H 0.2658 0.8871 0.9785
H92_3 H 0.2450 0.8755 0.9467
H97_3 H 0.1902 0.8953 0.9670
C108_3 C 0.2144(5) 0.9875(5) 0.91804(16)
H98_3 H 0.9761 0.1870 0.9044
H107_3 H 0.1633 0.9608 0.9287
H112_3 H 0.2221 0.9454 0.9089
C120_5 C 0.7210(4) 1.0000 1.0000
C122_6 C 0.6389(4) 1.0000 1.0000
C126_3 C 0.5875(6) 0.9723(4) 0.97654(11)
C131_3 C 0.5122(6) 0.9738(4) 0.97607(12)
C134_6 C 0.4860(4) 1.0000 1.0000
C138_3 C 0.4591(8) 0.9433(6) 0.95016(13)
H126_3 H 0.4878 0.9291 0.9364
H131_3 H 0.4497 0.9869 0.9431
H136_3 H 0.4060 0.8945 0.9545
C143_3 C 0.6133(7) 0.9405(6) 0.95146(14)
H141_3 H 0.5714 0.9241 0.9372
H146_3 H 0.6187 0.8929 0.9567
H151_3 H 0.6664 0.9845 0.9446
I4_3 I 0.80258(7) 0.01747(6) 0.795940(12)
Cd2_10 Cd 0.3333 0.6667 0.6667
I2_6 I 0.3333 0.6667 0.607752(16)
B1_6 B 0.3333 0.0652(5) 0.6667
N3_6 N 0.3333 0.5390(3) 0.6667
C4_3 C 0.5264(4) 0.0314(4) 0.78168(12)
H3_3 H 0.5178 0.0768 0.7844
C5_3 C 0.5648(5) 0.0098(5) 0.80209(13)
H4_3 H 0.5796 0.0400 0.8186
C6_3 C 0.4573(4) 0.0068(4) 0.73466(12)
C9_3 C 0.3787(4) 0.0443(3) 0.69129(12)
C10_3 C 0.4649(4) 0.1005(4) 0.69719(12)
C11_3 C 0.5044(4) 0.0795(4) 0.71885(11)
C12_3 C 0.5981(4) 0.1363(4) 0.72357(15)
H5_3 H 0.6157 0.1151 0.7388
H6_3 H 0.6096 0.1922 0.7278
H7_3 H 0.6282 0.1374 0.7072
C13_3 C 0.5157(4) 0.1778(4) 0.68115(15)
H8_3 H 0.4811 0.1834 0.6674
H9_3 H 0.5611 0.1750 0.6722
H10_3 H 0.5383 0.2255 0.6934
C16_3 C 0.2696(4) 0.4705(4) 0.65581(15)
H17_3 H 0.2254 0.4740 0.6478
C17_3 C 0.2669(4) 0.3938(4) 0.65612(15)
H18_3 H 0.2200 0.3461 0.6492
C18_6 C 0.3333 0.3877(4) 0.6667
C19_6 C 0.3333 0.3056(4) 0.6667
C20_3 C 0.3610(4) 0.2819(4) 0.64321(11)
C21_3 C 0.3595(4) 0.2051(4) 0.64274(12)
C22_6 C 0.3333 0.1527(4) 0.6667
C23_3 C 0.3900(6) 0.1825(5) 0.61683(13)
H19_3 H 0.4042 0.2254 0.6031
H20_3 H 0.3464 0.1295 0.6098
H21_3 H 0.4388 0.1782 0.6212
C24_3 C 0.3928(6) 0.3395(4) 0.61813(14)
H22_3 H 0.4092 0.3140 0.6039
H23_3 H 0.4404 0.3925 0.6234
H24_3 H 0.3488 0.3486 0.6113
I8_6 I 0.3333 0.6667 0.725582(16)
N16_4 N 0.4610(3) 0.7944(3) 0.6667
N17_6 N 0.2056(3) 0.6667 0.6667
H68_3 H 0.1855 0.0356 0.6660
H78_3 H 0.1283 0.0205 0.6400
C99_3 C 0.4276(4) 0.0070(6) 0.62980(16)
H83_3 H 0.4462 0.0454 0.6452
H88_3 H 0.4578 0.0362 0.6134
C109_3 C 0.3970(4) 0.5342(6) 0.67753(15)
C110_3 C 0.5295(4) 0.7992(6) 0.65581(15)
C111_3 C 0.4658(6) 0.8629(4) 0.67753(15)
C112_3 C 0.2008(6) 0.7304(4) 0.65581(15)
C113_3 C 0.1371(4) 0.6030(4) 0.67753(15)
H113_3 H 0.4412 0.5819 0.6856
H114_3 H 0.5260 0.7515 0.6478
H115_3 H 0.4181 0.8594 0.6856
H116_3 H 0.2485 0.7746 0.6478
H117_3 H 0.1406 0.5588 0.6856
C114_3 C 0.3997(4) 0.4602(6) 0.67722(15)
C115_3 C 0.6062(4) 0.8732(6) 0.65612(15)
C116_3 C 0.5398(6) 0.9396(4) 0.67722(15)
C117_3 C 0.1268(6) 0.7331(4) 0.65612(15)
C118_3 C 0.0604(4) 0.6003(4) 0.67722(15)
H118_3 H 0.4466 0.4594 0.6842
H119_3 H 0.6539 0.8740 0.6492
H120_3 H 0.5406 0.9873 0.6842
H121_3 H 0.1260 0.7800 0.6492
H122_3 H 0.0127 0.5534 0.6842
C119_4 C 0.6123(4) 0.9457(4) 0.6667
C120_6 C 0.0543(4) 0.6667 0.6667
C123_3 C 0.3056(4) 0.2542(6) 0.69013(11)
C128_3 C 0.3071(4) 0.1789(6) 0.69060(12)
C135_3 C 0.2766(6) 0.1258(8) 0.71651(13)
H123_3 H 0.2624 0.1545 0.7303
H128_3 H 0.3202 0.1164 0.7236
H133_3 H 0.2278 0.0727 0.7122
C140_3 C 0.2738(6) 0.2800(7) 0.71521(14)
C142_3 C 0.7200(7) 0.9939(4) 0.71521(14)
C144_3 C 0.0061(4) 0.7262(6) 0.71521(14)
H138_3 H 0.2574 0.2381 0.7295
H143_3 H 0.2262 0.2854 0.7100
H145_3 H 0.7146 0.9409 0.7100
H147_3 H 0.0591 0.7738 0.7100
H148_3 H 0.3178 0.3331 0.7221
H150_3 H 0.6669 0.9848 0.7221
H152_3 H 0.0152 0.6822 0.7221
loop_
_geom_bond_atom_site_label_1
_geom_bond_atom_site_label_2
_geom_bond_site_symmetry_1
_geom_bond_site_symmetry_2
I5 Cd5 1_555 1_555
N10 Cd5 1_555 1_555
N14 Cd5 1_555 1_555
Cd4 N12 1_555 1_555
N12 C146 1_555 1_555
C146 H155 1_555 1_555
C147 N12 1_555 1_555
H154 C147 1_555 1_555
C151 C146 1_555 1_555
H160 C151 1_555 1_555
I3 Cd4 1_555 1_555
N9 Cd4 1_555 1_555
N14 C146_2 1_555 1_555
C146_2 H155_2 1_555 1_555
C147_2 N14 1_555 1_555
H154_2 C147_2 1_555 1_555
C151_2 C146_2 1_555 1_555
H160_2 C151_2 1_555 1_555
Cd4_2 N5 1_555 1_555
N5 C35 1_555 1_555
C35 H34_2 1_555 1_555
C36 N9 1_555 1_555
H35_2 C36 1_555 1_555
C40 C35 1_555 1_555
C41 C36 1_555 1_555
H39 C40 1_555 1_555
H40 C41 1_555 1_555
C45 C40 1_555 1_555
C46 C41 1_555 1_555
C50 C45 1_555 1_555
H44 C50 1_555 1_555
C55 N5 1_555 1_555
H49 C55 1_555 1_555
C60 C45 1_555 1_555
C65 C60 1_555 1_555
C70 C65 1_555 1_555
C71 C66 1_555 1_555
C75 C70 1_555 1_555
C80 C75 1_555 1_555
C85 C60 1_555 1_555
C90 C85 1_555 1_555
H54 C90 1_555 1_555
H59 C90 1_555 1_555
H64 C90 1_555 1_555
C95 C80 1_555 1_555
H74 C95 1_555 1_555
C101 C71 1_555 1_555
H85 C101 1_555 1_555
H90 C101 1_555 1_555
H95 C101 1_555 1_555
C105 C65 1_555 1_555
C106 C66 1_555 1_555
H99 C105 1_555 1_555
H100 C106 1_555 1_555
H104 C105 1_555 1_555
H105 C106 1_555 1_555
H109 C105 1_555 1_555
H110 C106 1_555 1_555
C50 C55 1_555 1_555
C80 C85 1_555 1_555
Cd4_2 N12_2 1_555 1_555
N12_2 C146_3 1_555 1_555
C146_3 H155_3 1_555 1_555
C147_3 N12_2 1_555 1_555
H154_3 C147_3 1_555 1_555
C151_3 C146_3 1_555 1_555
C152 C147_3 1_555 1_555
H159 C152 1_555 1_555
H160_3 C151_3 1_555 1_555
C155 C151_3 1_555 1_555
C157 C155 1_555 1_555
C160 C157 1_555 1_555
C161 C157 1_555 1_555
C165 C160 1_555 1_555
C166 C161 1_555 1_555
C169 B2 1_555 1_555
C172 C166 1_555 1_555
C173 C165 1_555 1_555
H164 C172 1_555 1_555
H165 C173 1_555 1_555
H169 C172 1_555 1_555
H170 C173 1_555 1_555
C177 C161 1_555 1_555
C178 C160 1_555 1_555
H179 C177 1_555 1_555
H180 C178 1_555 1_555
H184 C177 1_555 1_555
H185 C178 1_555 1_555
H189 C177 1_555 1_555
H190 C178 1_555 1_555
C152 C155 1_555 1_555
C165 C169 1_555 1_555
C166 C169 1_555 1_555
Cd4_2 I1 1_555 1_555
I3_2 Cd4_2 1_555 1_555
N9_2 Cd4_2 1_555 1_555
N10 C35_2 1_555 1_555
C35_2 H34_3 1_555 1_555
C36_2 N9_2 1_555 1_555
H35_3 C36_2 1_555 1_555
C40_2 C35_2 1_555 1_555
C41_2 C36_2 1_555 1_555
H39_2 C40_2 1_555 1_555
H40_2 C41_2 1_555 1_555
C45_2 C40_2 1_555 1_555
C46_2 C41_2 1_555 1_555
C51 C46_2 1_555 1_555
H45 C51 1_555 1_555
C56 N9_2 1_555 1_555
H50 C56 1_555 1_555
C61 C46_2 1_555 1_555
C66_2 C61 1_555 1_555
C70_2 C65_2 1_555 1_555
C71_2 C66_2 1_555 1_555
C81 C76 1_555 1_555
C86 C61 1_555 1_555
C91 C86 1_555 1_555
H55 C91 1_555 1_555
H60 C91 1_555 1_555
H65 C91 1_555 1_555
C96 C81 1_555 1_555
H75 C96 1_555 1_555
C100 C70_2 1_555 1_555
H84 C100 1_555 1_555
H89 C100 1_555 1_555
H94_2 C100 1_555 1_555
C105_2 C65_2 1_555 1_555
C106_2 C66_2 1_555 1_555
H99_2 C105_2 1_555 1_555
H100_2 C106_2 1_555 1_555
H104_2 C105_2 1_555 1_555
H105_2 C106_2 1_555 1_555
H109_2 C105_2 1_555 1_555
H110_2 C106_2 1_555 1_555
C51 C56 1_555 1_555
C71_2 C76 1_555 1_555
C81 C86 1_555 1_555
I8 Cd2 1_555 1_555
B3 C75_2 1_555 1_555
N5_2 C35_3 1_555 1_555
N16 Cd2 1_555 1_555
C40_3 C35_3 1_555 1_555
H39_3 C40_3 1_555 1_555
C45_3 C40_3 1_555 1_555
C50_2 C45_3 1_555 1_555
H44_2 C50_2 1_555 1_555
C55_2 N5_2 1_555 1_555
H49_2 C55_2 1_555 1_555
C60_2 C45_3 1_555 1_555
C65_3 C60_2 1_555 1_555
C70_3 C65_3 1_555 1_555
C75_2 C70_3 1_555 1_555
C80_2 C75_2 1_555 1_555
C85_2 C60_2 1_555 1_555
C90_2 C85_2 1_555 1_555
H54_2 C90_2 1_555 1_555
H59_2 C90_2 1_555 1_555
H64_2 C90_2 1_555 1_555
C95_2 C80_2 1_555 1_555
H69 C95_2 1_555 1_555
H74_2 C95_2 1_555 1_555
H79 C95_2 1_555 1_555
C100_2 C70_3 1_555 1_555
H84_2 C100_2 1_555 1_555
H89_2 C100_2 1_555 1_555
H94_3 C100_2 1_555 1_555
C105_3 C65_3 1_555 1_555
H99_3 C105_3 1_555 1_555
H104_3 C105_3 1_555 1_555
H109_3 C105_3 1_555 1_555
C111 N16 1_555 1_555
H115 C111 1_555 1_555
C116 C111 1_555 1_555
H120 C116 1_555 1_555
C121 C119 1_555 1_555
C125 C121 1_555 1_555
C130 C125 1_555 1_555
C133 B3 1_555 1_555
C137 C130 1_555 1_555
H125 C137 1_555 1_555
H130 C137 1_555 1_555
H135 C137 1_555 1_555
C142 C125 1_555 1_555
H140 C142 1_555 1_555
H145 C142 1_555 1_555
H150 C142 1_555 1_555
C50_2 C55_2 1_555 1_555
C80_2 C85_2 1_555 1_555
C116 C119 1_555 1_555
C130 C133 1_555 1_555
H45_2 C51_2 1_555 1_555
H50_2 C56_2 1_555 1_555
C76_2 B3_2 1_555 1_555
C81_2 C76_2 1_555 1_555
C86_2 C61_2 1_555 1_555
C91_2 C86_2 1_555 1_555
H55_2 C91_2 1_555 1_555
H60_2 C91_2 1_555 1_555
H65_2 C91_2 1_555 1_555
C96_2 C81_2 1_555 1_555
H70 C96_2 1_555 1_555
H75_2 C96_2 1_555 1_555
H80 C96_2 1_555 1_555
H84_3 C100_3 1_555 1_555
H89_3 C100_3 1_555 1_555
C124 C121_2 1_555 1_555
C125_2 C121_2 1_555 1_555
C129 C124 1_555 1_555
C130_2 C125_2 1_555 1_555
C133_2 B3_2 1_555 1_555
C136 C129 1_555 1_555
C137_2 C130_2 1_555 1_555
H124 C136 1_555 1_555
H125_2 C137_2 1_555 1_555
H129 C136 1_555 1_555
H130_2 C137_2 1_555 1_555
H134 C136 1_555 1_555
H135_2 C137_2 1_555 1_555
C142_2 C125_2 1_555 1_555
H140_2 C142_2 1_555 1_555
H145_2 C142_2 1_555 1_555
H150_2 C142_2 1_555 1_555
C51_2 C56_2 1_555 1_555
C81_2 C86_2 1_555 1_555
C129 C133_2 1_555 1_555
C130_2 C133_2 1_555 1_555
Cd2_2 I2 1_555 1_555
N16_2 Cd2_2 1_555 1_555
C36_3 N6 1_555 1_555
C41_3 C36_3 1_555 1_555
H40_3 C41_3 1_555 1_555
C46_3 C41_3 1_555 1_555
C51_3 C46_3 1_555 1_555
H45_3 C51_3 1_555 1_555
C56_3 N6 1_555 1_555
H50_3 C56_3 1_555 1_555
C61_3 C46_3 1_555 1_555
C66_3 C61_3 1_555 1_555
C71_3 C66_3 1_555 1_555
C76_3 B3_3 1_555 1_555
C81_3 C76_3 1_555 1_555
C86_3 C61_3 1_555 1_555
C91_3 C86_3 1_555 1_555
H55_3 C91_3 1_555 1_555
H60_3 C91_3 1_555 1_555
H65_3 C91_3 1_555 1_555
C96_3 C81_3 1_555 1_555
H70_2 C96_3 1_555 1_555
H75_3 C96_3 1_555 1_555
H80_2 C96_3 1_555 1_555
C101_2 C71_3 1_555 1_555
H85_2 C101_2 1_555 1_555
H90_2 C101_2 1_555 1_555
H95_3 C101_2 1_555 1_555
C106_3 C66_3 1_555 1_555
H100_3 C106_3 1_555 1_555
H105_3 C106_3 1_555 1_555
H110_3 C106_3 1_555 1_555
C110 N16_2 1_555 1_555
H114 C110 1_555 1_555
C115 C110 1_555 1_555
H119 C115 1_555 1_555
C119_2 C115 1_555 1_555
C121_3 C119_2 1_555 1_555
C124_2 C121_3 1_555 1_555
C129_2 C124_2 1_555 1_555
C133_3 B3_3 1_555 1_555
C136_2 C129_2 1_555 1_555
H124_2 C136_2 1_555 1_555
H129_2 C136_2 1_555 1_555
H134_2 C136_2 1_555 1_555
C141 C124_2 1_555 1_555
H139_2 C141 1_555 1_555
H144 C141 1_555 1_555
H149 C141 1_555 1_555
C51_3 C56_3 1_555 1_555
C71_3 C76_3 1_555 1_555
C81_3 C86_3 1_555 1_555
C129_2 C133_3 1_555 1_555
B3_4 C75_3 1_555 1_555
H44_3 C50_3 1_555 1_555
H49_3 C55_3 1_555 1_555
C80_3 C75_3 1_555 1_555
C85_3 C60_3 1_555 1_555
C90_3 C85_3 1_555 1_555
H54_3 C90_3 1_555 1_555
H59_3 C90_3 1_555 1_555
H64_3 C90_3 1_555 1_555
C95_3 C80_3 1_555 1_555
H69_3 C95_3 1_555 1_555
H74_3 C95_3 1_555 1_555
H79_3 C95_3 1_555 1_555
H85_3 C101_3 1_555 1_555
H90_3 C101_3 1_555 1_555
C124_3 C121_4 1_555 1_555
C125_3 C121_4 1_555 1_555
C129_3 C124_3 1_555 1_555
C130_3 C125_3 1_555 1_555
C133_4 B3_4 1_555 1_555
C136_3 C129_3 1_555 1_555
C137_3 C130_3 1_555 1_555
H124_3 C136_3 1_555 1_555
H125_3 C137_3 1_555 1_555
H129_3 C136_3 1_555 1_555
H130_3 C137_3 1_555 1_555
H134_3 C136_3 1_555 1_555
H135_3 C137_3 1_555 1_555
C141_2 C124_3 1_555 1_555
H139_3 C141_2 1_555 1_555
H144_2 C141_2 1_555 1_555
H149_2 C141_2 1_555 1_555
C50_3 C55_3 1_555 1_555
C80_3 C85_3 1_555 1_555
C129_3 C133_4 1_555 1_555
C130_3 C133_4 1_555 1_555
Cd1 I1_3 1_555 1_555
B1 C9 1_555 1_555
N1 Cd1 1_555 1_555
N2 Cd1 1_555 1_555
N3 Cd2_3 1_555 1_555
C1 N1 1_555 1_555
H1 C1 1_555 1_555
C2 C1 1_555 1_555
H2 C2 1_555 1_555
C3 C2 1_555 1_555
C4 C3 1_555 1_555
H3 C4 1_555 1_555
C5 N1 1_555 1_555
H4 C5 1_555 1_555
C6 C3 1_555 1_555
C7 C6 1_555 1_555
C10 C9 1_555 1_555
C11 C6 1_555 1_555
C12 C11 1_555 1_555
H5 C12 1_555 1_555
H6 C12 1_555 1_555
H7 C12 1_555 1_555
C13 C10 1_555 1_555
H8 C13 1_555 1_555
H9 C13 1_555 1_555
H10 C13 1_555 1_555
C19 C18 1_555 1_555
C22 B1 1_555 1_555
C25 N2 1_555 1_555
H25 C25 1_555 1_555
C26 C25 1_555 1_555
H26 C26 1_555 1_555
I3_3 Cd1 1_555 1_555
I8_2 Cd2_3 1_555 1_555
N9_3 Cd1 1_555 1_555
C109 N3 1_555 1_555
H113 C109 1_555 1_555
C114 C18 1_555 1_555
H118 C114 1_555 1_555
C145 N2 1_555 1_555
H153 C145 1_555 1_555
C4 C5 1_555 1_555
C10 C11 1_555 1_555
C109 C114 1_555 1_555
Cd1_2 I1_4 1_555 1_555
B1_2 C9_2 1_555 1_555
B2_2 C31 1_555 1_555
N1_2 Cd1_2 1_555 1_555
N2_2 Cd1_2 1_555 1_555
C1_2 N1_2 1_555 1_555
H1_2 C1_2 1_555 1_555
C2_2 C1_2 1_555 1_555
H2_2 C2_2 1_555 1_555
C3_2 C2_2 1_555 1_555
C4_2 C3_2 1_555 1_555
H3_2 C4_2 1_555 1_555
C5_2 N1_2 1_555 1_555
H4_2 C5_2 1_555 1_555
C6_2 C3_2 1_555 1_555
C7_2 C6_2 1_555 1_555
C8 C7_2 1_555 1_555
C9_2 C8 1_555 1_555
C10_2 C9_2 1_555 1_555
C11_2 C6_2 1_555 1_555
C12_2 C11_2 1_555 1_555
H5_2 C12_2 1_555 1_555
H6_2 C12_2 1_555 1_555
H7_2 C12_2 1_555 1_555
C13_2 C10_2 1_555 1_555
H8_2 C13_2 1_555 1_555
H9_2 C13_2 1_555 1_555
H10_2 C13_2 1_555 1_555
C14 C8 1_555 1_555
H11 C14 1_555 1_555
H12 C14 1_555 1_555
H13 C14 1_555 1_555
C15 C7_2 1_555 1_555
H14_2 C15 1_555 1_555
H15 C15 1_555 1_555
H16 C15 1_555 1_555
C20 C19_2 1_555 1_555
C21 C20 1_555 1_555
C22_2 B1_2 1_555 1_555
C23 C21 1_555 1_555
H19 C23 1_555 1_555
H20 C23 1_555 1_555
H21 C23 1_555 1_555
C28 C27 1_555 1_555
C29 C28 1_555 1_555
C30 C29 1_555 1_555
C31 C30 1_555 1_555
C32 C30 1_555 1_555
H27 C32 1_555 1_555
H28 C32 1_555 1_555
C33 C29 1_555 1_555
H30 C33 1_555 1_555
H31 C33 1_555 1_555
H32 C33 1_555 1_555
N9_3 C34 1_555 1_555
C34 H33 1_555 1_555
C39 C34 1_555 1_555
H38 C39 1_555 1_555
C44 C39 1_555 1_555
C49 C44 1_555 1_555
H43 C49 1_555 1_555
C54 N9_3 1_555 1_555
H48 C54 1_555 1_555
C59 C44 1_555 1_555
C64 C59 1_555 1_555
C69 C64 1_555 1_555
C74 B1_2 1_555 1_555
C79 C74 1_555 1_555
C84 C59 1_555 1_555
C89 C84 1_555 1_555
H53 C89 1_555 1_555
H58 C89 1_555 1_555
H63 C89 1_555 1_555
C94 C79 1_555 1_555
H68 C94 1_555 1_555
H73 C94 1_555 1_555
H78 C94 1_555 1_555
C99 C69 1_555 1_555
H83 C99 1_555 1_555
H88 C99 1_555 1_555
H93 C99 1_555 1_555
C104 C64 1_555 1_555
H98 C104 1_555 1_555
H103 C104 1_555 1_555
H108 C104 1_555 1_555
C123 C19_2 1_555 1_555
C128 C22_2 1_555 1_555
C135 C128 1_555 1_555
H123 C135 1_555 1_555
H128 C135 1_555 1_555
H133 C135 1_555 1_555
C140 C123 1_555 1_555
H138 C140 1_555 1_555
H143 C140 1_555 1_555
H148 C140 1_555 1_555
C145_2 N2_2 1_555 1_555
H153_2 C145_2 1_555 1_555
C150 C27 1_555 1_555
H158 C150 1_555 1_555
C4_2 C5_2 1_555 1_555
C10_2 C11_2 1_555 1_555
C21 C22_2 1_555 1_555
C49 C54 1_555 1_555
C69 C74 1_555 1_555
C79 C84 1_555 1_555
C123 C128 1_555 1_555
C145_2 C150 1_555 1_555
Cd2_4 I2_2 1_555 1_555
N3_2 Cd2_4 1_555 1_555
C19_3 C18_2 1_555 1_555
C20_2 C19_3 1_555 1_555
C21_2 C20_2 1_555 1_555
C22_3 B1_3 1_555 1_555
C23_2 C21_2 1_555 1_555
H19_2 C23_2 1_555 1_555
H20_2 C23_2 1_555 1_555
H21_2 C23_2 1_555 1_555
C24 C20_2 1_555 1_555
H22_2 C24 1_555 1_555
H23 C24 1_555 1_555
H24 C24 1_555 1_555
C99_2 C69_2 1_555 1_555
H83_2 C99_2 1_555 1_555
H88_2 C99_2 1_555 1_555
H93_2 C99_2 1_555 1_555
H103_2 C104_2 1_555 1_555
H108_2 C104_2 1_555 1_555
C21_2 C22_3 1_555 1_555
B2_3 C31_2 1_555 1_555
C28_2 C27_2 1_555 1_555
C29_2 C28_2 1_555 1_555
C30_2 C29_2 1_555 1_555
C31_2 C30_2 1_555 1_555
C32_2 C30_2 1_555 1_555
H27_2 C32_2 1_555 1_555
H28_2 C32_2 1_555 1_555
H29_2 C32_2 1_555 1_555
C33_2 C29_2 1_555 1_555
H30_2 C33_2 1_555 1_555
H31_2 C33_2 1_555 1_555
H32_2 C33_2 1_555 1_555
Cd9 N13 1_555 1_555
N13 C148 1_555 1_555
C148 H157 1_555 1_555
C149 N13 1_555 1_555
H156 C149 1_555 1_555
C150_2 C27_2 1_555 1_555
C153 C148 1_555 1_555
C154 C149 1_555 1_555
H158_2 C150_2 1_555 1_555
H159_2 C152_2 1_555 1_555
H161 C154 1_555 1_555
H162 C153 1_555 1_555
C156 C153 1_555 1_555
C157_2 C155_2 1_555 1_555
C158 C156 1_555 1_555
C159 C28_2 1_555 1_555
C160_2 C157_2 1_555 1_555
C161_2 C157_2 1_555 1_555
C162 C158 1_555 1_555
C163 C158 1_555 1_555
C164 C31_2 1_555 1_555
C165_2 C160_2 1_555 1_555
C166_2 C161_2 1_555 1_555
C167 C162 1_555 1_555
C168 C163 1_555 1_555
C169_2 B2_3 1_555 1_555
C170 B2_3 1_555 1_555
C171 C164 1_555 1_555
C172_2 C166_2 1_555 1_555
C173_2 C165_2 1_555 1_555
C174 C168 1_555 1_555
C175 C167 1_555 1_555
H163 C171 1_555 1_555
H164_2 C172_2 1_555 1_555
H165_2 C173_2 1_555 1_555
H166 C174 1_555 1_555
H167 C175 1_555 1_555
H168 C171 1_555 1_555
H169_2 C172_2 1_555 1_555
H170_2 C173_2 1_555 1_555
H171 C174 1_555 1_555
H172 C175 1_555 1_555
H173 C171 1_555 1_555
H174_2 C172_2 1_555 1_555
H175 C173_2 1_555 1_555
H176_2 C174 1_555 1_555
H177 C175 1_555 1_555
C176 C159 1_555 1_555
C177_2 C161_2 1_555 1_555
C178_2 C160_2 1_555 1_555
C179 C163 1_555 1_555
C180 C162 1_555 1_555
H178 C176 1_555 1_555
H179_2 C177_2 1_555 1_555
H180_2 C178_2 1_555 1_555
H181 C179 1_555 1_555
H182 C180 1_555 1_555
H183 C176 1_555 1_555
H184_2 C177_2 1_555 1_555
H185_2 C178_2 1_555 1_555
H186 C179 1_555 1_555
H187 C180 1_555 1_555
H188 C176 1_555 1_555
H189_2 C177_2 1_555 1_555
H190_2 C178_2 1_555 1_555
H191 C179 1_555 1_555
H192 C180 1_555 1_555
C152_2 C155_2 1_555 1_555
C154 C156 1_555 1_555
C159 C164 1_555 1_555
C165_2 C169_2 1_555 1_555
C166_2 C169_2 1_555 1_555
C167 C170 1_555 1_555
C168 C170 1_555 1_555
I7 Cd9 1_555 1_555
N11 Cd9 1_555 1_555
I5_2 Cd3 1_555 1_555
N10_2 Cd3 1_555 1_555
N14_2 Cd3 1_555 1_555
B2_4 C31_3 1_555 1_555
C28_3 C27_3 1_555 1_555
C29_3 C28_3 1_555 1_555
C30_3 C29_3 1_555 1_555
C31_3 C30_3 1_555 1_555
C32_3 C30_3 1_555 1_555
H27_3 C32_3 1_555 1_555
H28_3 C32_3 1_555 1_555
H29_3 C32_3 1_555 1_555
C33_3 C29_3 1_555 1_555
H30_3 C33_3 1_555 1_555
H31_3 C33_3 1_555 1_555
H32_3 C33_3 1_555 1_555
N14_2 C148_2 1_555 1_555
C148_2 H157_2 1_555 1_555
C149_2 N14_2 1_555 1_555
H156_2 C149_2 1_555 1_555
C150_3 C27_3 1_555 1_555
C153_2 C148_2 1_555 1_555
C154_2 C149_2 1_555 1_555
H158_3 C150_3 1_555 1_555
H159_3 C152_3 1_555 1_555
H161_2 C154_2 1_555 1_555
H162_2 C153_2 1_555 1_555
C156_2 C153_2 1_555 1_555
C157_3 C155_3 1_555 1_555
C158_2 C156_2 1_555 1_555
C159_2 C28_3 1_555 1_555
C160_3 C157_3 1_555 1_555
C161_3 C157_3 1_555 1_555
C162_2 C158_2 1_555 1_555
C163_2 C158_2 1_555 1_555
C164_2 C31_3 1_555 1_555
C165_3 C160_3 1_555 1_555
C166_3 C161_3 1_555 1_555
C167_2 C162_2 1_555 1_555
C168_2 C163_2 1_555 1_555
C169_3 B2_4 1_555 1_555
C170_2 B2_4 1_555 1_555
C171_2 C164_2 1_555 1_555
C172_3 C166_3 1_555 1_555
C173_3 C165_3 1_555 1_555
C174_2 C168_2 1_555 1_555
C175_2 C167_2 1_555 1_555
H163_2 C171_2 1_555 1_555
H164_3 C172_3 1_555 1_555
H165_3 C173_3 1_555 1_555
H166_2 C174_2 1_555 1_555
H167_2 C175_2 1_555 1_555
H168_2 C171_2 1_555 1_555
H169_3 C172_3 1_555 1_555
H170_3 C173_3 1_555 1_555
H171_2 C174_2 1_555 1_555
H172_2 C175_2 1_555 1_555
H173_2 C171_2 1_555 1_555
H174_3 C172_3 1_555 1_555
H175_2 C173_3 1_555 1_555
H176_3 C174_2 1_555 1_555
H177_2 C175_2 1_555 1_555
C176_2 C159_2 1_555 1_555
C177_3 C161_3 1_555 1_555
C178_3 C160_3 1_555 1_555
C179_2 C163_2 1_555 1_555
C180_2 C162_2 1_555 1_555
H178_2 C176_2 1_555 1_555
H179_3 C177_3 1_555 1_555
H180_3 C178_3 1_555 1_555
H181_2 C179_2 1_555 1_555
H182_2 C180_2 1_555 1_555
H183_2 C176_2 1_555 1_555
H184_3 C177_3 1_555 1_555
H185_3 C178_3 1_555 1_555
H186_2 C179_2 1_555 1_555
H187_2 C180_2 1_555 1_555
H188_2 C176_2 1_555 1_555
H189_3 C177_3 1_555 1_555
H190_3 C178_3 1_555 1_555
H191_2 C179_2 1_555 1_555
H192_2 C180_2 1_555 1_555
C152_3 C155_3 1_555 1_555
C154_2 C156_2 1_555 1_555
C159_2 C164_2 1_555 1_555
C165_3 C169_3 1_555 1_555
C166_3 C169_3 1_555 1_555
C167_2 C170_2 1_555 1_555
C168_2 C170_2 1_555 1_555
B2_5 C31_4 1_555 1_555
N2_3 Cd1_3 1_555 1_555
C25_2 N2_3 1_555 1_555
H25_2 C25_2 1_555 1_555
C26_2 C25_2 1_555 1_555
H26_2 C26_2 1_555 1_555
C27_4 C26_2 1_555 1_555
C28_4 C27_4 1_555 1_555
Cd9_2 N13_2 1_555 1_555
I3_4 Cd1_3 1_555 1_555
N9_4 Cd1_3 1_555 1_555
C149_3 N13_2 1_555 1_555
H156_3 C149_3 1_555 1_555
C154_3 C149_3 1_555 1_555
H161_3 C154_3 1_555 1_555
C158_3 C156_3 1_555 1_555
C159_3 C28_4 1_555 1_555
C162_3 C158_3 1_555 1_555
C164_3 C31_4 1_555 1_555
C167_3 C162_3 1_555 1_555
C170_3 B2_5 1_555 1_555
C171_3 C164_3 1_555 1_555
C175_3 C167_3 1_555 1_555
H163_3 C171_3 1_555 1_555
H167_3 C175_3 1_555 1_555
H168_3 C171_3 1_555 1_555
H172_3 C175_3 1_555 1_555
H173_3 C171_3 1_555 1_555
H177_3 C175_3 1_555 1_555
C176_3 C159_3 1_555 1_555
C180_3 C162_3 1_555 1_555
H178_3 C176_3 1_555 1_555
H182_3 C180_3 1_555 1_555
H183_3 C176_3 1_555 1_555
H187_3 C180_3 1_555 1_555
H188_3 C176_3 1_555 1_555
H192_3 C180_3 1_555 1_555
C154_3 C156_3 1_555 1_555
C159_3 C164_3 1_555 1_555
C167_3 C170_3 1_555 1_555
Cd9_2 I6 1_555 1_555
N7 Cd9_2 1_555 1_555
N11 C38 1_555 1_555
C37 N7 1_555 1_555
C38 H37 1_555 1_555
H36_2 C37 1_555 1_555
C42 C37 1_555 1_555
C43 C38 1_555 1_555
H41 C42 1_555 1_555
H42 C43 1_555 1_555
C47 C42 1_555 1_555
C48 C43 1_555 1_555
C52 C47 1_555 1_555
H46 C52 1_555 1_555
C57 N7 1_555 1_555
H51 C57 1_555 1_555
C62 C47 1_555 1_555
C67 C62 1_555 1_555
C72 C67 1_555 1_555
C73 C68 1_555 1_555
C77 C72 1_555 1_555
C82 C77 1_555 1_555
C87 C62 1_555 1_555
C92 C87 1_555 1_555
H56 C92 1_555 1_555
H61 C92 1_555 1_555
H66 C92 1_555 1_555
C97 C82 1_555 1_555
H76 C97 1_555 1_555
C103 C73 1_555 1_555
H87 C103 1_555 1_555
H92 C103 1_555 1_555
H97 C103 1_555 1_555
C107 C67 1_555 1_555
C108 C68 1_555 1_555
H101 C107 1_555 1_555
H102 C108 1_555 1_555
H106 C107 1_555 1_555
H107 C108 1_555 1_555
H111 C107 1_555 1_555
H112 C108 1_555 1_555
C52 C57 1_555 1_555
C82 C87 1_555 1_555
C1_3 N10_2 1_555 1_555
H1_3 C1_3 1_555 1_555
C2_3 C1_3 1_555 1_555
H2_3 C2_3 1_555 1_555
C3_3 C2_3 1_555 1_555
C8_2 C7_3 1_555 1_555
C14_2 C8_2 1_555 1_555
H11_2 C14_2 1_555 1_555
H12_2 C14_2 1_555 1_555
H13_2 C14_2 1_555 1_555
C15_2 C7_3 1_555 1_555
H14_3 C15_2 1_555 1_555
H15_2 C15_2 1_555 1_555
H16_2 C15_2 1_555 1_555
N9_4 C34_2 1_555 1_555
C34_2 H33_3 1_555 1_555
C39_2 C34_2 1_555 1_555
H38_2 C39_2 1_555 1_555
C44_2 C39_2 1_555 1_555
C49_2 C44_2 1_555 1_555
H43_2 C49_2 1_555 1_555
C54_2 N9_4 1_555 1_555
H48_2 C54_2 1_555 1_555
C59_2 C44_2 1_555 1_555
C64_2 C59_2 1_555 1_555
C69_3 C64_2 1_555 1_555
C79_2 C74_2 1_555 1_555
C84_2 C59_2 1_555 1_555
C89_2 C84_2 1_555 1_555
H53_2 C89_2 1_555 1_555
H58_2 C89_2 1_555 1_555
H63_2 C89_2 1_555 1_555
C94_2 C79_2 1_555 1_555
H73_2 C94_2 1_555 1_555
C104_3 C64_2 1_555 1_555
H98_2 C104_3 1_555 1_555
H103_3 C104_3 1_555 1_555
H108_3 C104_3 1_555 1_555
C49_2 C54_2 1_555 1_555
C69_3 C74_2 1_555 1_555
C79_2 C84_2 1_555 1_555
I8_3 Cd2_5 1_555 1_555
N17 Cd2_5 1_555 1_555
C102 C72_2 1_555 1_555
H86 C102 1_555 1_555
H91 C102 1_555 1_555
H96_2 C102 1_555 1_555
H106_2 C107_2 1_555 1_555
H111_2 C107_2 1_555 1_555
C122 C120 1_555 1_555
C127 C122 1_555 1_555
C132 C127 1_555 1_555
C134 B4 1_555 1_555
C139 C132 1_555 1_555
H127 C139 1_555 1_555
H132 C139 1_555 1_555
H137 C139 1_555 1_555
C144 C127 1_555 1_555
H142 C144 1_555 1_555
H147 C144 1_555 1_555
H152 C144 1_555 1_555
C132 C134 1_555 1_555
Cd2_6 I2_3 1_555 1_555
Cd7 N8 1_555 1_555
N8 C38_2 1_555 1_555
N17_2 Cd2_6 1_555 1_555
C38_2 H37_2 1_555 1_555
C43_2 C38_2 1_555 1_555
H42_2 C43_2 1_555 1_555
C48_2 C43_2 1_555 1_555
C53 C48_2 1_555 1_555
H47 C53 1_555 1_555
C58 N8 1_555 1_555
H52 C58 1_555 1_555
C63 C48_2 1_555 1_555
C68_2 C63 1_555 1_555
C78 B4_2 1_555 1_555
C83 C78 1_555 1_555
C88 C63 1_555 1_555
C93 C88 1_555 1_555
H57 C93 1_555 1_555
H62 C93 1_555 1_555
H67 C93 1_555 1_555
C98 C83 1_555 1_555
H72 C98 1_555 1_555
H77 C98 1_555 1_555
H82 C98 1_555 1_555
C112 N17_2 1_555 1_555
H116 C112 1_555 1_555
C117 C112 1_555 1_555
H121 C117 1_555 1_555
C120_2 C117 1_555 1_555
C122_2 C120_2 1_555 1_555
C134_2 B4_2 1_555 1_555
C53 C58 1_555 1_555
C83 C88 1_555 1_555
Cd7 I4_2 1_555 1_555
I5_3 Cd7 1_555 1_555
N10_3 Cd7 1_555 1_555
N14_3 Cd7 1_555 1_555
C25_3 N14_3 1_555 1_555
H25_3 C25_3 1_555 1_555
C26_3 C25_3 1_555 1_555
H26_3 C26_3 1_555 1_555
C145_3 N14_3 1_555 1_555
H153_3 C145_3 1_555 1_555
Cd9_3 N13_3 1_555 1_555
N13_3 C148_3 1_555 1_555
C148_3 H157_3 1_555 1_555
C153_3 C148_3 1_555 1_555
H162_3 C153_3 1_555 1_555
C156_4 C153_3 1_555 1_555
C158_4 C156_4 1_555 1_555
C163_3 C158_4 1_555 1_555
C168_3 C163_3 1_555 1_555
C170_4 B2_6 1_555 1_555
C174_3 C168_3 1_555 1_555
H166_3 C174_3 1_555 1_555
H171_3 C174_3 1_555 1_555
C179_3 C163_3 1_555 1_555
H181_3 C179_3 1_555 1_555
H186_3 C179_3 1_555 1_555
H191_3 C179_3 1_555 1_555
C168_3 C170_4 1_555 1_555
I7_2 Cd9_3 1_555 1_555
N11_2 Cd9_3 1_555 1_555
B4_3 C77_2 1_555 1_555
N11_2 C38_3 1_555 1_555
C37_2 N10_3 1_555 1_555
C38_3 H37_3 1_555 1_555
H36_3 C37_2 1_555 1_555
C42_2 C37_2 1_555 1_555
C43_3 C38_3 1_555 1_555
H41_2 C42_2 1_555 1_555
H42_3 C43_3 1_555 1_555
C47_2 C42_2 1_555 1_555
C48_3 C43_3 1_555 1_555
C52_2 C47_2 1_555 1_555
C53_2 C48_3 1_555 1_555
H46_2 C52_2 1_555 1_555
H47_2 C53_2 1_555 1_555
C57_2 N10_3 1_555 1_555
C58_2 N11_2 1_555 1_555
H51_2 C57_2 1_555 1_555
H52_2 C58_2 1_555 1_555
C62_2 C47_2 1_555 1_555
C63_2 C48_3 1_555 1_555
C67_2 C62_2 1_555 1_555
C68_3 C63_2 1_555 1_555
C72_3 C67_2 1_555 1_555
C73_2 C68_3 1_555 1_555
C77_2 C72_3 1_555 1_555
C78_2 B4_3 1_555 1_555
C82_2 C77_2 1_555 1_555
C83_2 C78_2 1_555 1_555
C87_2 C62_2 1_555 1_555
C88_2 C63_2 1_555 1_555
C92_2 C87_2 1_555 1_555
C93_2 C88_2 1_555 1_555
H56_2 C92_2 1_555 1_555
H57_2 C93_2 1_555 1_555
H61_2 C92_2 1_555 1_555
H62_2 C93_2 1_555 1_555
H66_2 C92_2 1_555 1_555
H67_2 C93_2 1_555 1_555
C97_2 C82_2 1_555 1_555
C98_2 C83_2 1_555 1_555
H71 C97_2 1_555 1_555
H72_2 C98_2 1_555 1_555
H76_2 C97_2 1_555 1_555
H77_2 C98_2 1_555 1_555
H81 C97_2 1_555 1_555
H82_2 C98_2 1_555 1_555
C102_2 C72_3 1_555 1_555
C103_2 C73_2 1_555 1_555
H86_2 C102_2 1_555 1_555
H87_2 C103_2 1_555 1_555
H91_2 C102_2 1_555 1_555
H92_2 C103_2 1_555 1_555
H96_3 C102_2 1_555 1_555
H97_2 C103_2 1_555 1_555
C107_3 C67_2 1_555 1_555
C108_2 C68_3 1_555 1_555
H101_2 C107_3 1_555 1_555
H102_3 C108_2 1_555 1_555
H106_3 C107_3 1_555 1_555
H107_2 C108_2 1_555 1_555
H111_3 C107_3 1_555 1_555
H112_2 C108_2 1_555 1_555
C126 C122_3 1_555 1_555
C127_2 C122_3 1_555 1_555
C131 C126 1_555 1_555
C132_2 C127_2 1_555 1_555
C134_3 B4_3 1_555 1_555
C138 C131 1_555 1_555
C139_2 C132_2 1_555 1_555
H126 C138 1_555 1_555
H127_2 C139_2 1_555 1_555
H131 C138 1_555 1_555
H132_2 C139_2 1_555 1_555
H136 C138 1_555 1_555
H137_2 C139_2 1_555 1_555
C143 C126 1_555 1_555
H141 C143 1_555 1_555
H146 C143 1_555 1_555
H151 C143 1_555 1_555
C52_2 C57_2 1_555 1_555
C53_2 C58_2 1_555 1_555
C73_2 C78_2 1_555 1_555
C82_2 C87_2 1_555 1_555
C83_2 C88_2 1_555 1_555
C131 C134_3 1_555 1_555
C132_2 C134_3 1_555 1_555
N3_3 Cd2_7 1_555 1_555
C14_3 C8_3 1_555 1_555
H11_3 C14_3 1_555 1_555
H12_3 C14_3 1_555 1_555
H13_3 C14_3 1_555 1_555
H15_3 C15_3 1_555 1_555
H16_3 C15_3 1_555 1_555
C19_4 C18_3 1_555 1_555
C22_4 B1_4 1_555 1_555
I8_4 Cd2_7 1_555 1_555
B4_4 C77_3 1_555 1_555
N17_3 Cd2_7 1_555 1_555
C37_3 N7_2 1_555 1_555
C42_3 C37_3 1_555 1_555
H41_3 C42_3 1_555 1_555
C47_3 C42_3 1_555 1_555
C52_3 C47_3 1_555 1_555
H46_3 C52_3 1_555 1_555
C57_3 N7_2 1_555 1_555
H51_3 C57_3 1_555 1_555
C62_3 C47_3 1_555 1_555
C67_3 C62_3 1_555 1_555
C82_3 C77_3 1_555 1_555
C87_3 C62_3 1_555 1_555
C92_3 C87_3 1_555 1_555
H56_3 C92_3 1_555 1_555
H61_3 C92_3 1_555 1_555
H66_3 C92_3 1_555 1_555
C97_3 C82_3 1_555 1_555
H71_2 C97_3 1_555 1_555
H76_3 C97_3 1_555 1_555
H81_2 C97_3 1_555 1_555
C113 N17_3 1_555 1_555
H117 C113 1_555 1_555
C118 C113 1_555 1_555
H122 C118 1_555 1_555
C122_4 C120_3 1_555 1_555
C123_2 C19_4 1_555 1_555
C128_2 C22_4 1_555 1_555
C134_4 B4_4 1_555 1_555
C135_2 C128_2 1_555 1_555
H123_2 C135_2 1_555 1_555
H128_2 C135_2 1_555 1_555
H133_2 C135_2 1_555 1_555
C140_2 C123_2 1_555 1_555
H138_2 C140_2 1_555 1_555
H143_2 C140_2 1_555 1_555
H148_2 C140_2 1_555 1_555
C52_3 C57_3 1_555 1_555
C82_3 C87_3 1_555 1_555
C118 C120_3 1_555 1_555
C123_2 C128_2 1_555 1_555
Cd2_8 I2_4 1_555 1_555
N3_4 Cd2_8 1_555 1_555
C16 N3_4 1_555 1_555
H17 C16 1_555 1_555
C17 C16 1_555 1_555
H18 C17 1_555 1_555
C18_4 C17 1_555 1_555
H23_2 C24_2 1_555 1_555
H24_2 C24_2 1_555 1_555
I8_5 Cd2_8 1_555 1_555
N16_3 Cd2_8 1_555 1_555
N17_4 Cd2_8 1_555 1_555
H47_3 C53_3 1_555 1_555
H52_3 C58_3 1_555 1_555
C78_3 B4_5 1_555 1_555
C83_3 C78_3 1_555 1_555
C88_3 C63_3 1_555 1_555
C93_3 C88_3 1_555 1_555
H57_3 C93_3 1_555 1_555
H62_3 C93_3 1_555 1_555
H67_3 C93_3 1_555 1_555
C98_3 C83_3 1_555 1_555
H72_3 C98_3 1_555 1_555
H77_3 C98_3 1_555 1_555
H82_3 C98_3 1_555 1_555
H86_3 C102_3 1_555 1_555
H91_3 C102_3 1_555 1_555
C109_2 N3_4 1_555 1_555
C110_2 N16_3 1_555 1_555
C111_2 N16_3 1_555 1_555
C112_2 N17_4 1_555 1_555
C113_2 N17_4 1_555 1_555
H113_2 C109_2 1_555 1_555
H114_2 C110_2 1_555 1_555
H115_2 C111_2 1_555 1_555
H116_2 C112_2 1_555 1_555
H117_2 C113_2 1_555 1_555
C114_2 C18_4 1_555 1_555
C115_2 C110_2 1_555 1_555
C116_2 C111_2 1_555 1_555
C117_2 C112_2 1_555 1_555
C118_2 C113_2 1_555 1_555
H118_2 C114_2 1_555 1_555
H119_2 C115_2 1_555 1_555
H120_2 C116_2 1_555 1_555
H121_2 C117_2 1_555 1_555
H122_2 C118_2 1_555 1_555
C119_3 C115_2 1_555 1_555
C120_4 C117_2 1_555 1_555
C122_5 C120_4 1_555 1_555
C126_2 C122_5 1_555 1_555
C127_3 C122_5 1_555 1_555
C131_2 C126_2 1_555 1_555
C132_3 C127_3 1_555 1_555
C134_5 B4_5 1_555 1_555
C138_2 C131_2 1_555 1_555
C139_3 C132_3 1_555 1_555
H126_2 C138_2 1_555 1_555
H127_3 C139_3 1_555 1_555
H131_2 C138_2 1_555 1_555
H132_3 C139_3 1_555 1_555
H136_2 C138_2 1_555 1_555
H137_3 C139_3 1_555 1_555
C143_2 C126_2 1_555 1_555
C144_2 C127_3 1_555 1_555
H141_2 C143_2 1_555 1_555
H142_3 C144_2 1_555 1_555
H144_3 C141_3 1_555 1_555
H146_2 C143_2 1_555 1_555
H147_2 C144_2 1_555 1_555
H149_3 C141_3 1_555 1_555
H151_2 C143_2 1_555 1_555
H152_2 C144_2 1_555 1_555
C53_3 C58_3 1_555 1_555
C83_3 C88_3 1_555 1_555
C109_2 C114_2 1_555 1_555
C116_2 C119_3 1_555 1_555
C118_2 C120_4 1_555 1_555
C131_2 C134_5 1_555 1_555
C132_3 C134_5 1_555 1_555
Cd2_9 I2_5 1_555 1_555
N3_5 Cd2_9 1_555 1_555
C16_2 N3_5 1_555 1_555
H17_2 C16_2 1_555 1_555
C17_2 C16_2 1_555 1_555
H18_2 C17_2 1_555 1_555
C18_5 C17_2 1_555 1_555
C19_5 C18_5 1_555 1_555
C22_5 B1_5 1_555 1_555
N4 C34_3 1_555 1_555
N17_5 Cd2_9 1_555 1_555
C39_3 C34_3 1_555 1_555
H38_3 C39_3 1_555 1_555
C44_3 C39_3 1_555 1_555
C49_3 C44_3 1_555 1_555
H43_3 C49_3 1_555 1_555
C54_3 N4 1_555 1_555
H48_3 C54_3 1_555 1_555
C59_3 C44_3 1_555 1_555
C64_3 C59_3 1_555 1_555
C74_3 B1_5 1_555 1_555
C79_3 C74_3 1_555 1_555
C84_3 C59_3 1_555 1_555
C89_3 C84_3 1_555 1_555
H53_3 C89_3 1_555 1_555
H58_3 C89_3 1_555 1_555
H63_3 C89_3 1_555 1_555
C94_3 C79_3 1_555 1_555
H68_2 C94_3 1_555 1_555
H73_3 C94_3 1_555 1_555
H78_2 C94_3 1_555 1_555
C103_3 C73_3 1_555 1_555
H87_3 C103_3 1_555 1_555
H92_3 C103_3 1_555 1_555
H97_3 C103_3 1_555 1_555
H107_3 C108_3 1_555 1_555
H112_3 C108_3 1_555 1_555
C122_6 C120_5 1_555 1_555
C126_3 C122_6 1_555 1_555
C131_3 C126_3 1_555 1_555
C134_6 B4_6 1_555 1_555
C138_3 C131_3 1_555 1_555
H126_3 C138_3 1_555 1_555
H131_3 C138_3 1_555 1_555
H136_3 C138_3 1_555 1_555
C143_3 C126_3 1_555 1_555
H141_3 C143_3 1_555 1_555
H146_3 C143_3 1_555 1_555
H151_3 C143_3 1_555 1_555
C49_3 C54_3 1_555 1_555
C79_3 C84_3 1_555 1_555
C131_3 C134_6 1_555 1_555
Cd2_10 I2_6 1_555 1_555
B1_6 C9_3 1_555 1_555
N3_6 Cd2_10 1_555 1_555
H3_3 C4_3 1_555 1_555
H4_3 C5_3 1_555 1_555
C10_3 C9_3 1_555 1_555
C11_3 C6_3 1_555 1_555
C12_3 C11_3 1_555 1_555
H5_3 C12_3 1_555 1_555
H6_3 C12_3 1_555 1_555
H7_3 C12_3 1_555 1_555
C13_3 C10_3 1_555 1_555
H8_3 C13_3 1_555 1_555
H9_3 C13_3 1_555 1_555
H10_3 C13_3 1_555 1_555
C16_3 N3_6 1_555 1_555
H17_3 C16_3 1_555 1_555
C17_3 C16_3 1_555 1_555
H18_3 C17_3 1_555 1_555
C18_6 C17_3 1_555 1_555
C19_6 C18_6 1_555 1_555
C20_3 C19_6 1_555 1_555
C21_3 C20_3 1_555 1_555
C22_6 B1_6 1_555 1_555
C23_3 C21_3 1_555 1_555
H19_3 C23_3 1_555 1_555
H20_3 C23_3 1_555 1_555
H21_3 C23_3 1_555 1_555
C24_3 C20_3 1_555 1_555
H22_3 C24_3 1_555 1_555
H23_3 C24_3 1_555 1_555
H24_3 C24_3 1_555 1_555
I8_6 Cd2_10 1_555 1_555
N16_4 Cd2_10 1_555 1_555
N17_6 Cd2_10 1_555 1_555
H83_3 C99_3 1_555 1_555
H88_3 C99_3 1_555 1_555
C109_3 N3_6 1_555 1_555
C110_3 N16_4 1_555 1_555
C111_3 N16_4 1_555 1_555
C112_3 N17_6 1_555 1_555
C113_3 N17_6 1_555 1_555
H113_3 C109_3 1_555 1_555
H114_3 C110_3 1_555 1_555
H115_3 C111_3 1_555 1_555
H116_3 C112_3 1_555 1_555
H117_3 C113_3 1_555 1_555
C114_3 C18_6 1_555 1_555
C115_3 C110_3 1_555 1_555
C116_3 C111_3 1_555 1_555
C117_3 C112_3 1_555 1_555
C118_3 C113_3 1_555 1_555
H118_3 C114_3 1_555 1_555
H119_3 C115_3 1_555 1_555
H120_3 C116_3 1_555 1_555
H121_3 C117_3 1_555 1_555
H122_3 C118_3 1_555 1_555
C119_4 C115_3 1_555 1_555
C120_6 C117_3 1_555 1_555
C123_3 C19_6 1_555 1_555
C128_3 C22_6 1_555 1_555
C135_3 C128_3 1_555 1_555
H123_3 C135_3 1_555 1_555
H128_3 C135_3 1_555 1_555
H133_3 C135_3 1_555 1_555
C140_3 C123_3 1_555 1_555
H138_3 C140_3 1_555 1_555
H143_3 C140_3 1_555 1_555
H145_3 C142_3 1_555 1_555
H147_3 C144_3 1_555 1_555
H148_3 C140_3 1_555 1_555
H150_3 C142_3 1_555 1_555
H152_3 C144_3 1_555 1_555
C4_3 C5_3 1_555 1_555
C10_3 C11_3 1_555 1_555
C21_3 C22_6 1_555 1_555
C109_3 C114_3 1_555 1_555
C116_3 C119_4 1_555 1_555
C118_3 C120_6 1_555 1_555
C123_3 C128_3 1_555 1_555

#END
