
###############################################################################
#
# This file contains modified crystal structure data generated from the
# MOF subset of the Cambridge Structural Database (CSD) v543 
# hosted by the Cambridge Crystallographic Data Centre (CCDC).
#
# This work is licensed under the Creative Commons
# Attribution-NonCommercial-ShareAlike 4.0 International License.
# To view a copy of this license, visit
# http://creativecommons.org/licenses/by-nc-sa/4.0/
# or send a letter to
# Creative Commons, PO Box 1866, Mountain View, CA 94042, USA.
#
# CIF created using the CSD Python API on 29 September 2022
# The structure has been converted into the P1 space group
# The structure has a 3D framework
# The original CSD entry SOBZEP is in the rhombohedral crystal system
# The original CSD entry SOBZEP is in a Sohncke space group
# The framework has been calculated to contain at least 10.0% void space
# The void calculation uses a probe of radius 1.32A, grid spacing 0.4
#
###############################################################################

data_SOBZEP
_chemical_formula_moiety         '(C567 H576 B22 Cl30 Cu21 N45)n'
_symmetry_cell_setting           triclinic
_symmetry_space_group_name_H-M   'P 1'
_symmetry_Int_Tables_number      1
_space_group_name_Hall           'P 1'
loop_
_symmetry_equiv_pos_site_id
_symmetry_equiv_pos_as_xyz
1 x,y,z
_cell_length_a                   17.830(3)
_cell_length_b                   17.830(3)
_cell_length_c                   47.73(1)
_cell_angle_alpha                90
_cell_angle_beta                 90
_cell_angle_gamma                120
_cell_volume                     13140.9
loop_
_atom_site_label
_atom_site_type_symbol
_atom_site_fract_x
_atom_site_fract_y
_atom_site_fract_z
Cu5 Cu 0.05423(4) 0.72093(4) 0.8333
Cl4 Cl 0.10314(14) 0.65465(10) 0.86338(3)
N10 N 0.0501(2) 0.6400(4) 0.80215(7)
N14 N 0.1770(3) 0.8437(3) 0.8333
H35 H 0.0547 0.8020 0.8913
Cu4 Cu 0.72093(4) 0.05423(4) 0.1667
H34 H 0.8020 0.0547 0.1087
N12 N 0.8437(3) 0.1770(3) 0.1667
C146 C 0.9188(3) 0.1792(4) 0.16708(11)
C147 C 0.8459(4) 0.2521(3) 0.16625(11)
H154 H 0.7934 0.2515 0.1658
H155 H 0.9182 0.1267 0.1675
C151 C 0.9985(3) 0.2548(4) 0.16687(10)
C152 C 0.9215(4) 0.3318(3) 0.16646(10)
H159 H 0.9193 0.3828 0.1664
H170 H 0.9873 0.4412 0.1260
Cl1 Cl 0.65465(10) 0.10314(14) 0.13662(3)
N9 N 0.6400(4) 0.0501(5) 0.19785(7)
C146_2 C 0.1792(4) 0.9188(3) 0.83292(11)
C147_2 C 0.2521(3) 0.8459(4) 0.83375(11)
H154_2 H 0.2515 0.7934 0.8342
H155_2 H 0.1267 0.9182 0.8325
C151_2 C 0.2548(4) 0.9985(3) 0.83313(10)
C152_2 C 0.3318(3) 0.9215(4) 0.83354(10)
H159_2 H 0.3828 0.9193 0.8336
H170_2 H 0.4412 0.9873 0.8740
Cu4_2 Cu 0.38760(4) 0.38756(4) 0.5000
N5 N 0.3835(2) 0.3066(4) 0.46881(7)
C35 C 0.4274(3) 0.3301(5) 0.44451(10)
C36 C 0.6635(5) 0.0940(3) 0.22215(10)
H34_2 H 0.4687 0.3880 0.4420
H35_2 H 0.7214 0.1353 0.2246
C40 C 0.4151(3) 0.2749(5) 0.42363(10)
C41 C 0.6083(5) 0.0817(3) 0.24303(10)
H39 H 0.4498 0.2945 0.4077
H40 H 0.6279 0.1164 0.2589
C45 C 0.3506(3) 0.1881(4) 0.42551(9)
C46 C 0.5215(4) 0.0172(3) 0.24115(9)
C50 C 0.3065(3) 0.1640(4) 0.45042(9)
H44 H 0.2644 0.1065 0.4533
C55 C 0.3239(3) 0.2237(4) 0.47107(10)
H49 H 0.2921 0.2051 0.4876
C60 C 0.3299(3) 0.1239(4) 0.40239(9)
C65 C 0.2546(3) 0.0960(4) 0.38644(8)
C70 C 0.2346(2) 0.0362(4) 0.36485(8)
C75 C 0.2924(2) 0.0054(4) 0.35811(9)
C80 C 0.3683(3) 0.0354(4) 0.37449(10)
C81 C 0.3688(4) 0.0349(3) 0.29217(10)
C85 C 0.3857(2) 0.0926(4) 0.39685(9)
C86 C 0.4260(4) 0.0523(2) 0.26981(9)
C90 C 0.1966(3) 0.1350(4) 0.39122(10)
H54 H 0.2186 0.1749 0.4066
H59 H 0.1388 0.0896 0.3953
H64 H 0.1959 0.1651 0.3746
C95 C 0.1546(3) 0.0099(4) 0.34731(11)
H69 H 0.1234 0.0364 0.3546
H79 H 0.1714 0.0284 0.3283
C100 C 0.4297(3) 0.0016(4) 0.37004(12)
C101 C 0.3350(4) 0.0963(3) 0.29662(12)
H84 H 0.4768 0.0288 0.3830
H85 H 0.3622 0.1434 0.2836
H89 H 0.4518 0.0143 0.3512
H90 H 0.3477 0.1184 0.3154
H95 H 0.2735 0.0661 0.2937
C105 C 0.4645(3) 0.1183(4) 0.41538(11)
C106 C 0.4517(4) 0.1311(3) 0.25128(11)
H99 H 0.4674 0.1578 0.4295
H100 H 0.4912 0.1340 0.2371
H104 H 0.5160 0.1456 0.4041
H105 H 0.4790 0.1826 0.2625
H109 H 0.4596 0.0675 0.4241
H110 H 0.4009 0.1262 0.2425
B2 B 1.0000 1.0000 0.5000
N12_2 N 0.5104(3) 0.5103(3) 0.5000
C146_3 C 0.5855(3) 0.5125(4) 0.50041(11)
C147_3 C 0.5125(4) 0.5855(3) 0.49959(11)
H154_3 H 0.4600 0.5849 0.4992
H155_3 H 0.5849 0.4600 0.5008
C151_3 C 0.6652(3) 0.5881(4) 0.50020(10)
C152_3 C 0.5881(4) 0.6652(3) 0.49980(10)
H159_3 H 0.5859 0.7162 0.4998
H160 H 0.7162 0.5859 0.5002
C155 C 0.6675(3) 0.6674(3) 0.5000
C157 C 0.7520(3) 0.7519(3) 0.5000
C160 C 0.7702(2) 0.8103(3) 0.47803(8)
C161 C 0.8103(3) 0.7702(2) 0.52197(8)
C165 C 0.8479(2) 0.8900(3) 0.47869(8)
C166 C 0.8900(3) 0.8479(2) 0.52131(8)
C170 C 0.7870(4) 0.7103(3) 0.54692(9)
C171 C 0.7103(3) 0.7870(4) 0.45308(9)
H164 H 0.8346 0.7331 0.5598
H165 H 0.7331 0.8346 0.4402
H169 H 0.7745 0.6540 0.5407
H170_3 H 0.6540 0.7745 0.4593
H174 H 0.7369 0.7057 0.5561
H175 H 0.7057 0.7369 0.4439
C175 C 0.9515(4) 0.8660(3) 0.54578(10)
C176 C 0.8660(3) 0.9515(4) 0.45422(10)
H179 H 0.9275 0.8169 0.5582
H180 H 0.8169 0.9275 0.4418
H184 H 0.9594 0.9161 0.5558
H185 H 0.9161 0.9594 0.4442
H188 H 0.8698 0.9937 0.5389
H192 H 0.9937 0.8698 0.4611
C179 C 0.9101(3) 0.9100(3) 0.5000
Cl1_2 Cl 0.32132(10) 0.43647(14) 0.46995(3)
Cl3 Cl 0.43647(14) 0.32132(17) 0.53005(3)
N9_2 N 0.3066(4) 0.3835(5) 0.53119(7)
C35_2 C 0.0940(3) 0.6635(5) 0.77785(10)
C36_2 C 0.3301(5) 0.4274(3) 0.55549(10)
H34_3 H 0.1353 0.7214 0.7754
H35_3 H 0.3880 0.4687 0.5580
C40_2 C 0.0817(3) 0.6083(5) 0.75697(10)
C41_2 C 0.2749(5) 0.4151(3) 0.57637(10)
H39_2 H 0.1164 0.6279 0.7411
H40_2 H 0.2945 0.4498 0.5923
C45_2 C 0.0172(3) 0.5215(4) 0.75885(9)
C46_2 C 0.1881(4) 0.3506(3) 0.57449(9)
C51 C 0.1640(4) 0.3065(3) 0.54958(9)
H45 H 0.1065 0.2644 0.5467
C56 C 0.2237(4) 0.3239(3) 0.52893(10)
H50 H 0.2051 0.2921 0.5124
C61 C 0.1239(4) 0.3299(3) 0.59761(9)
C66 C 0.0960(4) 0.2546(3) 0.61356(8)
C71 C 0.0362(4) 0.2346(2) 0.63515(8)
C76 C 0.0054(4) 0.2924(2) 0.64189(9)
C80_2 C 0.0349(3) 0.3688(4) 0.70783(10)
C81_2 C 0.0354(4) 0.3683(3) 0.62551(10)
C85_2 C 0.0523(2) 0.4260(4) 0.73019(9)
C86_2 C 0.0926(4) 0.3857(2) 0.60315(9)
C91 C 0.1350(4) 0.1966(3) 0.60878(10)
H55 H 0.1749 0.2186 0.5934
H60 H 0.0896 0.1388 0.6047
H65 H 0.1651 0.1959 0.6254
C96 C 0.0099(4) 0.1546(3) 0.65269(11)
H70 H 0.0364 0.1234 0.6454
H80 H 0.0284 0.1714 0.6717
C100_2 C 0.0963(3) 0.3350(4) 0.70338(12)
C101_2 C 0.0016(4) 0.4297(3) 0.62996(12)
H84_2 H 0.1434 0.3622 0.7164
H85_2 H 0.0288 0.4768 0.6170
H89_2 H 0.1184 0.3477 0.6846
H90_2 H 0.0143 0.4518 0.6488
H94 H 0.0661 0.2735 0.7063
C105_2 C 0.1311(3) 0.4517(4) 0.74872(11)
C106_2 C 0.1183(4) 0.4645(3) 0.58462(11)
H99_2 H 0.1340 0.4912 0.7629
H100_2 H 0.1578 0.4674 0.5705
H104_2 H 0.1826 0.4790 0.7375
H105_2 H 0.1456 0.5160 0.5959
H109_2 H 0.1262 0.4009 0.7575
H110_2 H 0.0675 0.4596 0.5759
Cu2 Cu 0.0000 0.0000 0.0000
Cl2 Cl 0.0000 0.0000 0.04791(5)
B3 B 0.6045(4) 0.6045(4) 0.0000
N5_2 N 0.7168(2) 0.9733(4) 0.13548(7)
N16 N 0.1180(3) 0.1180(3) 0.0000
C35_3 C 0.7607(3) 0.9968(5) 0.11118(10)
C40_3 C 0.7484(3) 0.9416(5) 0.09030(10)
H39_3 H 0.7831 0.9612 0.0744
C45_3 C 0.6839(3) 0.8548(4) 0.09218(9)
C50_2 C 0.6398(3) 0.8307(4) 0.11709(9)
H44_2 H 0.5977 0.7732 0.1200
C55_2 C 0.6572(3) 0.8904(4) 0.13774(10)
H49_2 H 0.6254 0.8718 0.1543
C60_2 C 0.6632(3) 0.7906(4) 0.06906(9)
C65_2 C 0.5879(3) 0.7627(4) 0.05311(8)
C70_2 C 0.5679(2) 0.7029(4) 0.03152(8)
C75_2 C 0.6257(2) 0.6721(4) 0.02478(9)
C80_3 C 0.7016(3) 0.7021(4) 0.04116(10)
C85_3 C 0.7190(2) 0.7593(4) 0.06352(9)
C90_2 C 0.5299(3) 0.8017(4) 0.05789(10)
H54_2 H 0.5519 0.8416 0.0733
H59_2 H 0.4721 0.7563 0.0620
H64_2 H 0.5292 0.8318 0.0413
C95_2 C 0.4879(3) 0.6766(4) 0.01398(11)
H69_2 H 0.4567 0.7031 0.0213
H74 H 0.4516 0.6148 0.0145
H80_2 H 0.6951 0.5047 0.0050
C100_3 C 0.7630(3) 0.6683(4) 0.03671(12)
H84_3 H 0.8101 0.6955 0.0497
H89_3 H 0.7851 0.6810 0.0179
H94_2 H 0.7328 0.6068 0.0396
C105_3 C 0.7978(3) 0.7850(4) 0.08205(11)
H99_3 H 0.8007 0.8245 0.0962
H104_3 H 0.8493 0.8123 0.0708
H109_3 H 0.7929 0.7342 0.0908
C109 C 0.5150(3) 0.5150(3) 0.0000
C112 C 0.4903(3) 0.4600(4) 0.02347(8)
C117 C 0.4119(3) 0.3808(4) 0.02328(9)
C122 C 0.5471(3) 0.4813(5) 0.04908(10)
H114 H 0.5186 0.4364 0.0628
H119 H 0.5577 0.5355 0.0568
H124 H 0.6012 0.4857 0.0439
C127 C 0.3897(3) 0.3203(5) 0.04801(11)
H129 H 0.3348 0.2691 0.0448
H134 H 0.3866 0.3487 0.0647
H139 H 0.4336 0.3045 0.0502
C131 C 0.3586(3) 0.3586(3) 0.0000
C133 C 0.2740(3) 0.2740(3) 0.0000
C136 C 0.2010(3) 0.2651(4) 0.01282(11)
H144 H 0.2029 0.3126 0.0216
C141 C 0.1251(3) 0.1870(4) 0.01287(11)
H149 H 0.0772 0.1824 0.0222
Cl3_2 Cl 0.76981(14) 0.98798(17) 0.19671(3)
B3_2 B 0.2712(4) 0.9378(4) 0.3333
C51_2 C 0.4974(4) 0.9731(3) 0.21624(9)
H45_2 H 0.4399 0.9310 0.2133
C56_2 C 0.5571(4) 0.9905(3) 0.19559(10)
H50_2 H 0.5385 0.9587 0.1790
C61_2 C 0.4573(4) 0.9965(3) 0.26427(9)
C66_2 C 0.4294(4) 0.9212(3) 0.28022(8)
C71_2 C 0.3696(4) 0.9012(2) 0.30181(8)
C76_2 C 0.3388(4) 0.9590(2) 0.30855(9)
C91_2 C 0.4684(4) 0.8632(3) 0.27544(10)
H55_2 H 0.5083 0.8852 0.2600
H60_2 H 0.4230 0.8054 0.2713
H65_2 H 0.4985 0.8625 0.2920
C96_2 C 0.3433(4) 0.8212(3) 0.31935(11)
H70_2 H 0.3698 0.7900 0.3120
H74_2 H 0.1183 0.9481 0.3478
H75 H 0.2815 0.7849 0.3188
H80_3 H 0.3618 0.8380 0.3383
H94_3 H 0.3995 0.9401 0.3729
C109_2 C 0.1817(3) 0.8483(3) 0.3333
C112_2 C 0.1570(3) 0.7933(4) 0.35680(8)
C113 C 0.1267(4) 0.8236(3) 0.30986(8)
C117_2 C 0.0786(3) 0.7141(4) 0.35661(9)
C118 C 0.0475(4) 0.7452(3) 0.31005(9)
C122_2 C 0.2138(3) 0.8146(5) 0.38241(10)
C123 C 0.1480(5) 0.8804(3) 0.28425(10)
H114_2 H 0.1853 0.7697 0.3961
H115 H 0.1031 0.8519 0.2705
H119_2 H 0.2244 0.8688 0.3901
H120 H 0.2022 0.8910 0.2765
H124_2 H 0.2679 0.8190 0.3772
H125 H 0.1524 0.9345 0.2894
C127_2 C 0.0564(3) 0.6536(5) 0.38134(11)
H129_2 H 0.0015 0.6024 0.3781
H134_2 H 0.0533 0.6820 0.3980
H135 H 0.0154 0.7199 0.2686
H139_2 H 0.1003 0.6378 0.3835
C131_2 C 0.0253(3) 0.6919(3) 0.3333
Cu2_2 Cu 0.0000 0.0000 1.0000
Cl5 Cl 0.98798(10) 0.76981(14) 0.80329(3)
Cl8 Cl 0.0000 0.0000 0.95209(5)
B3_3 B 0.6045(4) 0.6045(4) 1.0000
N6 N 0.9733(4) 0.7168(2) 0.86452(7)
N16_2 N 0.1180(3) 0.1180(3) 1.0000
C36_3 C 0.9968(5) 0.7607(3) 0.88882(10)
C41_3 C 0.9416(5) 0.7484(3) 0.90970(10)
H40_3 H 0.9612 0.7831 0.9256
C46_3 C 0.8548(4) 0.6839(3) 0.90782(9)
C51_3 C 0.8307(4) 0.6398(3) 0.88291(9)
H45_3 H 0.7732 0.5977 0.8800
C56_3 C 0.8904(4) 0.6572(3) 0.86226(10)
H50_3 H 0.8718 0.6254 0.8457
C61_3 C 0.7906(4) 0.6632(3) 0.93094(9)
C66_3 C 0.7627(4) 0.5879(3) 0.94689(8)
C71_3 C 0.7029(4) 0.5679(2) 0.96848(8)
C76_3 C 0.6721(4) 0.6257(2) 0.97522(9)
C81_3 C 0.7021(4) 0.7016(3) 0.95884(10)
C86_3 C 0.7593(4) 0.7190(2) 0.93648(9)
C91_3 C 0.8017(4) 0.5299(3) 0.94211(10)
H55_3 H 0.8416 0.5519 0.9267
H60_3 H 0.7563 0.4721 0.9380
H65_3 H 0.8318 0.5292 0.9587
C96_3 C 0.6766(4) 0.4879(3) 0.98602(11)
H70_3 H 0.7031 0.4567 0.9787
H75_2 H 0.6148 0.4516 0.9855
H79_2 H 0.5047 0.6951 0.9950
C101_3 C 0.6683(4) 0.7630(3) 0.96329(12)
H85_3 H 0.6955 0.8101 0.9503
H90_3 H 0.6810 0.7851 0.9821
H95_2 H 0.6068 0.7328 0.9604
C106_3 C 0.7850(4) 0.7978(3) 0.91795(11)
H100_3 H 0.8245 0.8007 0.9038
H105_3 H 0.8123 0.8493 0.9292
H110_3 H 0.7342 0.7929 0.9092
C109_3 C 0.5150(3) 0.5150(3) 1.0000
C113_2 C 0.4600(4) 0.4903(3) 0.97653(8)
C118_2 C 0.3808(4) 0.4119(3) 0.97672(9)
C123_2 C 0.4813(5) 0.5471(3) 0.95092(10)
H115_2 H 0.4364 0.5186 0.9372
H120_2 H 0.5355 0.5577 0.9432
H125_2 H 0.4857 0.6012 0.9561
C128 C 0.3203(5) 0.3897(3) 0.95199(11)
H130 H 0.2691 0.3348 0.9552
H135_2 H 0.3487 0.3866 0.9353
H140 H 0.3045 0.4336 0.9498
C131_3 C 0.3586(3) 0.3586(3) 1.0000
C133_2 C 0.2740(3) 0.2740(3) 1.0000
C137 C 0.2651(4) 0.2010(3) 0.98718(11)
H145 H 0.3126 0.2029 0.9784
C142 C 0.1870(4) 0.1251(3) 0.98713(11)
H150 H 0.1824 0.0772 0.9778
B3_4 B 0.9378(4) 0.2712(4) 0.6667
C50_3 C 0.9731(3) 0.4974(4) 0.78376(9)
H44_3 H 0.9310 0.4399 0.7867
C55_3 C 0.9905(3) 0.5571(4) 0.80441(10)
H49_3 H 0.9587 0.5385 0.8210
C60_3 C 0.9965(3) 0.4573(4) 0.73573(9)
C65_3 C 0.9212(3) 0.4294(4) 0.71978(8)
C70_3 C 0.9012(2) 0.3696(4) 0.69819(8)
C75_3 C 0.9590(2) 0.3388(4) 0.69145(9)
C90_3 C 0.8632(3) 0.4684(4) 0.72456(10)
H54_3 H 0.8852 0.5083 0.7400
H59_3 H 0.8054 0.4230 0.7287
H64_3 H 0.8625 0.4985 0.7080
C95_3 C 0.8212(3) 0.3433(4) 0.68065(11)
H69_3 H 0.7900 0.3698 0.6880
H74_3 H 0.7849 0.2815 0.6812
H75_3 H 0.9481 0.1183 0.6522
H79_3 H 0.8380 0.3618 0.6617
H95_3 H 0.9401 0.3995 0.6271
C109_4 C 0.8483(3) 0.1817(3) 0.6667
C112_3 C 0.8236(3) 0.1267(4) 0.69014(8)
C113_3 C 0.7933(4) 0.1570(3) 0.64320(8)
C117_3 C 0.7452(3) 0.0475(4) 0.68995(9)
C118_3 C 0.7141(4) 0.0786(3) 0.64339(9)
C122_3 C 0.8804(3) 0.1480(5) 0.71575(10)
C123_3 C 0.8146(5) 0.2138(3) 0.61759(10)
H114_3 H 0.8519 0.1031 0.7295
H115_3 H 0.7697 0.1853 0.6039
H119_3 H 0.8910 0.2022 0.7235
H120_3 H 0.8688 0.2244 0.6099
H124_3 H 0.9345 0.1524 0.7106
H125_3 H 0.8190 0.2679 0.6228
C128_2 C 0.6536(5) 0.0564(3) 0.61866(11)
H130_2 H 0.6024 0.0015 0.6219
H134_3 H 0.7199 0.0154 0.7314
H135_3 H 0.6820 0.0533 0.6020
H140_2 H 0.6378 0.1003 0.6165
C131_4 C 0.6919(3) 0.0253(3) 0.6667
Cu1 Cu 0.3333 0.27907(4) 0.1667
Cu2_3 Cu 0.0000 1.0000 0.0000
Cl1_3 Cl 0.44849(10) 0.34535(10) 0.13662(3)
Cl2_2 Cl 0.0000 1.0000 0.04791(5)
B1 B 0.0000 0.3955(4) 0.0000
N1 N 0.2565(3) 0.2832(2) 0.13548(7)
N2 N 0.3333 0.1563(3) 0.1667
N3 N 0.0000 0.8820(3) 0.0000
C1 C 0.2361(4) 0.2393(3) 0.11118(10)
H1 H 0.2527 0.1980 0.1087
C2 C 0.1932(4) 0.2516(3) 0.09030(10)
H2 H 0.1781 0.2169 0.0744
C3 C 0.1709(3) 0.3161(3) 0.09218(9)
C4 C 0.1909(3) 0.3602(3) 0.11709(9)
H3 H 0.1755 0.4023 0.1200
C5 C 0.2332(3) 0.3428(3) 0.13774(10)
H4 H 0.2464 0.3746 0.1543
C6 C 0.1274(3) 0.3368(3) 0.06906(9)
C7 C 0.1748(3) 0.4121(3) 0.05311(8)
C8 C 0.1350(3) 0.4321(2) 0.03152(8)
C9 C 0.0464(3) 0.3743(2) 0.02478(9)
C10 C 0.0005(3) 0.2984(3) 0.04116(10)
C11 C 0.0403(3) 0.2810(2) 0.06352(9)
C12 C 0.2718(3) 0.4701(3) 0.05789(10)
H5 H 0.2897 0.4481 0.0733
H6 H 0.2842 0.5279 0.0620
H7 H 0.3026 0.4708 0.0413
C13 C 0.1887(3) 0.5121(3) 0.01398(11)
H8 H 0.2464 0.5433 0.0213
H9 H 0.1632 0.5484 0.0145
H14 H 0.0238 0.1993 0.0962
C16 C 0.0000 0.4850(3) 0.0000
C21 C 0.0000 0.6414(3) 0.0000
C22 C 0.0000 0.7260(3) 0.0000
C23 C 0.0641(3) 0.7990(3) 0.01282(11)
H23 H 0.1097 0.7971 0.0216
C24 C 0.0619(3) 0.8749(3) 0.01287(11)
H24 H 0.1052 0.9228 0.0222
C25 C 0.2604(3) 0.0812(3) 0.16708(11)
H25 H 0.2085 0.0818 0.1675
C26 C 0.2563(3) 0.0015(3) 0.16687(10)
H28 H 0.4539 0.0127 0.1260
Cl3_3 Cl 0.21818(10) 0.23019(14) 0.19671(3)
N9_3 N 0.4102(3) 0.3600(4) 0.19785(7)
C145 C 0.4063(3) 0.1541(4) 0.16625(11)
H153 H 0.4582 0.2066 0.1658
C150 C 0.4104(3) 0.0785(4) 0.16646(10)
H158 H 0.4636 0.0807 0.1664
Cu1_2 Cu 1.0000 0.61240(4) 0.5000
B1_2 B 0.6667 0.7288(4) 0.3333
B2_2 B 1.0000 0.0000 0.5000
N1_2 N 0.9232(3) 0.6165(2) 0.46881(7)
N2_2 N 1.0000 0.4896(3) 0.5000
C1_2 C 0.9028(4) 0.5726(3) 0.44451(10)
H1_2 H 0.9194 0.5313 0.4420
C2_2 C 0.8599(4) 0.5849(3) 0.42363(10)
H2_2 H 0.8448 0.5502 0.4077
C3_2 C 0.8376(3) 0.6494(3) 0.42551(9)
C4_2 C 0.8576(3) 0.6935(3) 0.45042(9)
H3_2 H 0.8422 0.7356 0.4533
C5_2 C 0.8999(3) 0.6761(3) 0.47107(10)
H4_2 H 0.9131 0.7079 0.4876
C6_2 C 0.7941(3) 0.6701(3) 0.40239(9)
C7_2 C 0.8415(3) 0.7454(3) 0.38644(8)
C8_2 C 0.8017(3) 0.7654(2) 0.36485(8)
C9_2 C 0.7131(3) 0.7076(2) 0.35811(9)
C10_2 C 0.6672(3) 0.6317(3) 0.37449(10)
C11_2 C 0.7070(3) 0.6143(2) 0.39685(9)
C12_2 C 0.9385(3) 0.8034(3) 0.39122(10)
H5_2 H 0.9564 0.7814 0.4066
H6_2 H 0.9509 0.8612 0.3953
H7_2 H 0.9693 0.8041 0.3746
C13_2 C 0.8554(3) 0.8454(3) 0.34731(11)
H8_2 H 0.9131 0.8766 0.3546
H9_2 H 0.8299 0.8817 0.3478
H10 H 0.8571 0.8286 0.3283
C14 C 0.5720(3) 0.5703(3) 0.37004(12)
H11 H 0.5521 0.5232 0.3830
H12 H 0.5626 0.5482 0.3512
H13 H 0.5407 0.6005 0.3729
C15 C 0.6539(3) 0.5355(3) 0.41538(11)
H14_2 H 0.6905 0.5326 0.4295
H15 H 0.6297 0.4840 0.4041
H16 H 0.6080 0.5404 0.4241
C16_2 C 0.6667 0.8183(3) 0.3333
C17 C 0.6364(3) 0.8430(3) 0.35680(8)
C18 C 0.6356(3) 0.9214(3) 0.35661(9)
C19 C 0.6009(4) 0.7862(3) 0.38241(10)
H17 H 0.5845 0.8147 0.3961
H18 H 0.6445 0.7756 0.3901
H19 H 0.5512 0.7321 0.3772
C20 C 0.5973(4) 0.9436(3) 0.38134(11)
H20 H 0.6010 0.9985 0.3781
H21 H 0.6288 0.9467 0.3980
H22 H 0.5376 0.8997 0.3835
C21_2 C 0.6667 0.9747(3) 0.3333
C25_2 C 0.9271(3) 0.4145(3) 0.50041(11)
H25_2 H 0.8752 0.4151 0.5008
C26_2 C 0.9230(3) 0.3348(3) 0.50020(10)
H26 H 0.8698 0.2838 0.5002
C27 C 1.0000 0.3325(3) 0.5000
C28 C 1.0000 0.2480(3) 0.5000
C33 C 1.0000 0.0899(3) 0.5000
Cl3_4 Cl 0.88484(10) 0.56353(14) 0.53005(3)
C34 C 0.4306(4) 0.3365(5) 0.22215(10)
H33 H 0.4140 0.2786 0.2246
C39 C 0.4735(4) 0.3917(5) 0.24303(10)
H38 H 0.4886 0.3721 0.2589
C44 C 0.4958(3) 0.4785(4) 0.24115(9)
C49 C 0.4758(3) 0.5026(4) 0.21624(9)
H43 H 0.4912 0.5601 0.2133
C54 C 0.4335(3) 0.4429(4) 0.19559(10)
H48 H 0.4203 0.4615 0.1790
C59 C 0.5393(3) 0.5427(4) 0.26427(9)
C64 C 0.4919(3) 0.5706(4) 0.28022(8)
C69 C 0.5317(3) 0.6304(4) 0.30181(8)
C74 C 0.6203(3) 0.6612(4) 0.30855(9)
C79 C 0.6662(3) 0.6312(4) 0.29217(10)
C84 C 0.6264(3) 0.5740(4) 0.26981(9)
C89 C 0.3949(3) 0.5316(4) 0.27544(10)
H53 H 0.3770 0.4917 0.2600
H58 H 0.3825 0.5770 0.2713
H63 H 0.3641 0.5015 0.2920
C94 C 0.4780(3) 0.6567(4) 0.31935(11)
H68 H 0.4203 0.6302 0.3120
H73 H 0.5035 0.7185 0.3188
H78 H 0.4763 0.6382 0.3383
C99 C 0.7614(3) 0.6650(4) 0.29662(12)
H83 H 0.7813 0.6378 0.2836
H88 H 0.7708 0.6523 0.3154
H93 H 0.7927 0.7265 0.2937
C104 C 0.6795(3) 0.5483(4) 0.25128(11)
H98 H 0.6429 0.5088 0.2371
H103 H 0.7037 0.5210 0.2625
H108 H 0.7254 0.5991 0.2425
C111 C 0.6970(3) 0.8733(4) 0.30986(8)
C116 C 0.6978(3) 0.9525(4) 0.31005(9)
C121 C 0.7325(4) 0.8520(5) 0.28425(10)
H113 H 0.7489 0.8969 0.2705
H118 H 0.6889 0.7978 0.2765
H123 H 0.7822 0.8476 0.2894
H133 H 0.7046 0.9846 0.2686
C159 C 0.9598(2) 0.1897(3) 0.52197(8)
C164 C 0.9578(2) 0.1100(3) 0.52131(8)
C169 C 0.9232(3) 0.2130(4) 0.54692(9)
H163 H 0.8984 0.1654 0.5598
H168 H 0.8794 0.2255 0.5407
H173 H 0.9687 0.2631 0.5561
C174 C 0.9144(3) 0.0485(4) 0.54578(10)
H178 H 0.8893 0.0725 0.5582
H183 H 0.9566 0.0406 0.5558
H190 H 0.8762 0.0063 0.4611
Cu2_4 Cu 0.0000 1.0000 1.0000
B1_3 B 0.0000 0.3955(4) 1.0000
N3_2 N 0.0000 0.8820(3) 1.0000
H10_2 H 0.1904 0.4953 0.9950
C16_3 C 0.0000 0.4850(3) 1.0000
C21_3 C 0.0000 0.6414(3) 1.0000
C22_2 C 0.0000 0.7260(3) 1.0000
Cl8_2 Cl 0.0000 1.0000 0.95209(5)
C99_2 C 0.0947(3) 0.3317(4) 0.96329(12)
H83_2 H 0.1146 0.3045 0.9503
H88_2 H 0.1041 0.3190 0.9821
H93_2 H 0.1260 0.3932 0.9604
C104_2 C 0.0128(3) 0.2150(4) 0.91795(11)
H103_2 H 0.0370 0.1877 0.9292
H108_2 H 0.0587 0.2658 0.9092
C111_2 C 0.0303(3) 0.5400(4) 0.97653(8)
C116_2 C 0.0311(3) 0.6192(4) 0.97672(9)
C121_2 C 0.0658(4) 0.5187(5) 0.95092(10)
H113_2 H 0.0822 0.5636 0.9372
H118_2 H 0.0222 0.4645 0.9432
H123_2 H 0.1155 0.5143 0.9561
C126 C 0.0694(4) 0.6797(5) 0.95199(11)
H128 H 0.0657 0.7309 0.9552
H133_2 H 0.0379 0.6513 0.9353
H138 H 0.1291 0.6955 0.9498
B2_3 B 0.3333 0.6667 0.1667
H26_2 H 0.2031 0.9505 0.1669
C27_2 C 0.3333 0.9992(3) 0.1667
C28_2 C 0.3333 0.9147(3) 0.1667
C29 C 0.3735(2) 0.8965(2) 0.14470(8)
C30 C 0.3755(2) 0.8188(2) 0.14536(8)
C31 C 0.4101(3) 0.9564(3) 0.11975(9)
H27 H 0.4349 0.9336 0.1069
H29 H 0.3646 0.9610 0.1106
C32 C 0.4189(3) 0.8007(3) 0.12089(10)
H30 H 0.4440 0.8498 0.1085
H31 H 0.3767 0.7506 0.1109
H32 H 0.4635 0.7905 0.1278
C33_2 C 0.3333 0.7566(3) 0.1667
Cu9 Cu 0.94577(4) 0.6667 0.1667
N13 N 0.8230(3) 0.6667 0.1667
C148 C 0.8208(4) 0.7396(3) 0.16708(11)
C149 C 0.7479(3) 0.5937(3) 0.16625(11)
H156 H 0.7485 0.5418 0.1658
H157 H 0.8733 0.7915 0.1675
C153 C 0.7452(4) 0.7437(3) 0.16687(10)
C154 C 0.6682(3) 0.5896(3) 0.16646(10)
H160_2 H 0.0495 0.2526 0.1669
H161 H 0.6172 0.5364 0.1664
H162 H 0.7474 0.7969 0.1669
C155_2 C 0.0008(3) 0.3341(3) 0.1667
C156 C 0.6659(3) 0.6667 0.1667
C157_2 C 0.0853(3) 0.4186(3) 0.1667
C158 C 0.5814(3) 0.6667 0.1667
C159_2 C 0.2932(2) 0.8563(3) 0.18863(8)
C160_2 C 0.1035(2) 0.4770(3) 0.14470(8)
C161_2 C 0.1437(3) 0.4368(2) 0.18863(8)
C162 C 0.5230(3) 0.6265(2) 0.14470(8)
C163 C 0.5632(2) 0.7068(2) 0.18863(8)
C164_2 C 0.2912(2) 0.7766(3) 0.18797(8)
C165_2 C 0.1812(2) 0.5567(3) 0.14536(8)
C166_2 C 0.2234(3) 0.5145(2) 0.18797(8)
C167 C 0.4433(3) 0.6245(2) 0.14536(8)
C168 C 0.4855(2) 0.7088(2) 0.18797(8)
C169_2 C 0.2566(3) 0.8796(4) 0.21358(9)
C170_2 C 0.1204(4) 0.3769(3) 0.21358(9)
C171_2 C 0.0436(3) 0.4537(4) 0.11975(9)
C172 C 0.6231(3) 0.7434(3) 0.21358(9)
C173 C 0.5463(4) 0.5899(3) 0.11975(9)
H163_2 H 0.2318 0.8320 0.2264
H164_2 H 0.1680 0.3997 0.2264
H165_2 H 0.0664 0.5013 0.1069
H166 H 0.6003 0.7682 0.2264
H167 H 0.4987 0.5651 0.1069
H168_2 H 0.2128 0.8921 0.2073
H169_2 H 0.1079 0.3206 0.2073
H171 H 0.6794 0.7872 0.2073
H172 H 0.5588 0.5461 0.1260
H173_2 H 0.3021 0.9297 0.2227
H174_2 H 0.0703 0.3723 0.2227
H175_2 H 0.0390 0.4036 0.1106
H176 H 0.6277 0.6979 0.2227
H177 H 0.5964 0.6354 0.1106
C174_2 C 0.2478(3) 0.7151(4) 0.21244(10)
C175_2 C 0.2849(4) 0.5326(3) 0.21244(10)
C176_2 C 0.1993(3) 0.6182(4) 0.12089(10)
C177 C 0.4674(3) 0.7522(3) 0.21244(10)
C178 C 0.3818(4) 0.5811(3) 0.12089(10)
H178_2 H 0.2227 0.7391 0.2248
H179_2 H 0.2609 0.4835 0.2248
H180_2 H 0.1502 0.5942 0.1085
H181 H 0.5165 0.7773 0.2248
H182 H 0.4058 0.5560 0.1085
H183_2 H 0.2900 0.7072 0.2224
H184_2 H 0.2928 0.5827 0.2224
H185_2 H 0.2494 0.6261 0.1109
H186 H 0.4173 0.7100 0.2224
H187 H 0.3739 0.6233 0.1109
H188_2 H 0.2032 0.6603 0.2055
H189 H 0.3397 0.5428 0.2055
H190_2 H 0.2095 0.6730 0.1278
H191 H 0.4572 0.7968 0.2055
H192_2 H 0.3270 0.5365 0.1278
C179_2 C 0.2434(3) 0.5767(3) 0.1667
C180 C 0.4233(3) 0.6667 0.1667
Cu3 Cu 0.6667 0.94577(4) 0.8333
H33_2 H 0.7473 0.9453 0.8913
Cl6 Cl 0.89686(14) 0.55151(10) 0.13662(3)
N11 N 0.9499(2) 0.5898(3) 0.19785(7)
H36 H 0.9453 0.7473 0.1087
Cl4_2 Cl 0.55151(17) 0.89686(14) 0.86338(3)
N10_2 N 0.5898(4) 0.9499(2) 0.80215(7)
N14_2 N 0.6667(4) 0.8230(3) 0.8333
B2_4 B 0.6667 0.3333 0.8333
H26_3 H 0.9505 0.2031 0.8331
C27_3 C 0.9992(3) 0.3333 0.8333
C28_3 C 0.9147(3) 0.3333 0.8333
C29_2 C 0.8965(2) 0.3735(2) 0.85530(8)
C30_2 C 0.8188(2) 0.3755(2) 0.85464(8)
C31_2 C 0.9564(3) 0.4101(3) 0.88025(9)
H27_2 H 0.9336 0.4349 0.8931
H29_2 H 0.9610 0.3646 0.8894
C32_2 C 0.8007(3) 0.4189(3) 0.87911(10)
H30_2 H 0.8498 0.4440 0.8915
H31_2 H 0.7506 0.3767 0.8891
H32_2 H 0.7905 0.4635 0.8722
C33_3 C 0.7566(3) 0.3333 0.8333
C148_2 C 0.7396(3) 0.8208(4) 0.83292(11)
C149_2 C 0.5937(3) 0.7479(3) 0.83375(11)
H156_2 H 0.5418 0.7485 0.8342
H157_2 H 0.7915 0.8733 0.8325
C153_2 C 0.7437(3) 0.7452(4) 0.83313(10)
C154_2 C 0.5896(3) 0.6682(3) 0.83354(10)
H160_3 H 0.2526 0.0495 0.8331
H161_2 H 0.5364 0.6172 0.8336
H162_2 H 0.7969 0.7474 0.8331
C155_3 C 0.3341(3) 0.0008(3) 0.8333
C156_2 C 0.6667 0.6659(3) 0.8333
C157_3 C 0.4186(3) 0.0853(3) 0.8333
C158_2 C 0.6667 0.5814(3) 0.8333
C159_3 C 0.8563(3) 0.2932(2) 0.81137(8)
C160_3 C 0.4770(3) 0.1035(2) 0.85530(8)
C161_3 C 0.4368(2) 0.1437(3) 0.81137(8)
C162_2 C 0.6265(2) 0.5230(3) 0.85530(8)
C163_2 C 0.7068(2) 0.5632(2) 0.81137(8)
C164_3 C 0.7766(3) 0.2912(2) 0.81203(8)
C165_3 C 0.5567(3) 0.1812(2) 0.85464(8)
C166_3 C 0.5145(2) 0.2234(3) 0.81203(8)
C167_2 C 0.6245(2) 0.4433(3) 0.85464(8)
C168_2 C 0.7088(2) 0.4855(2) 0.81203(8)
C169_3 C 0.8796(4) 0.2566(3) 0.78642(9)
C170_3 C 0.3769(3) 0.1204(4) 0.78642(9)
C171_3 C 0.4537(4) 0.0436(3) 0.88025(9)
C172_2 C 0.7434(3) 0.6231(3) 0.78642(9)
C173_2 C 0.5899(3) 0.5463(4) 0.88025(9)
H163_3 H 0.8320 0.2318 0.7736
H164_3 H 0.3997 0.1680 0.7736
H165_3 H 0.5013 0.0664 0.8931
H166_2 H 0.7682 0.6003 0.7736
H167_2 H 0.5651 0.4987 0.8931
H168_3 H 0.8921 0.2128 0.7927
H169_3 H 0.3206 0.1079 0.7927
H171_2 H 0.7872 0.6794 0.7927
H172_2 H 0.5461 0.5588 0.8740
H173_3 H 0.9297 0.3021 0.7773
H174_3 H 0.3723 0.0703 0.7773
H175_3 H 0.4036 0.0390 0.8894
H176_2 H 0.6979 0.6277 0.7773
H177_2 H 0.6354 0.5964 0.8894
C174_3 C 0.7151(4) 0.2478(3) 0.78756(10)
C175_3 C 0.5326(3) 0.2849(4) 0.78756(10)
C176_3 C 0.6182(4) 0.1993(3) 0.87911(10)
C177_2 C 0.7522(3) 0.4674(3) 0.78756(10)
C178_2 C 0.5811(3) 0.3818(4) 0.87911(10)
H178_3 H 0.7391 0.2227 0.7752
H179_3 H 0.4835 0.2609 0.7752
H180_3 H 0.5942 0.1502 0.8915
H181_2 H 0.7773 0.5165 0.7752
H182_2 H 0.5560 0.4058 0.8915
H183_3 H 0.7072 0.2900 0.7776
H184_3 H 0.5827 0.2928 0.7776
H185_3 H 0.6261 0.2494 0.8891
H186_2 H 0.7100 0.4173 0.7776
H187_2 H 0.6233 0.3739 0.8891
H188_3 H 0.6603 0.2032 0.7945
H189_2 H 0.5428 0.3397 0.7945
H190_3 H 0.6730 0.2095 0.8722
H191_2 H 0.7968 0.4572 0.7945
H192_3 H 0.5365 0.3270 0.8722
C179_3 C 0.5767(3) 0.2434(3) 0.8333
C180_2 C 0.6667 0.4233(3) 0.8333
Cu1_3 Cu -0.0000 0.61240(4) 0.5000
Cl1_4 Cl 0.11516(10) 0.67868(10) 0.46995(3)
B2_5 B -0.0000 0.0000 0.5000
N2_3 N -0.0000 0.4896(3) 0.5000
C27_4 C -0.0000 0.3325(3) 0.5000
C28_4 C -0.0000 0.2480(3) 0.5000
C29_3 C 0.0402(2) 0.2298(2) 0.47803(8)
C30_3 C 0.0422(2) 0.1521(2) 0.47869(8)
C31_3 C 0.0768(3) 0.2897(3) 0.45308(9)
H27_3 H 0.1016 0.2669 0.4402
H28_2 H 0.1206 0.3460 0.4593
H29_3 H 0.0313 0.2943 0.4439
C32_3 C 0.0856(3) 0.1340(3) 0.45422(10)
H30_3 H 0.1107 0.1831 0.4418
H31_3 H 0.0434 0.0839 0.4442
H32_3 H 0.1302 0.1238 0.4611
C33_4 C -0.0000 0.0899(3) 0.5000
Cu9_2 Cu 0.61244(4) 0.0000 0.5000
N9_4 N 0.0768(3) 0.6934(4) 0.53119(7)
N13_2 N 0.4897(3) 0.0000 0.5000
C145_2 C 0.0729(3) 0.4875(4) 0.49959(11)
C148_3 C 0.4875(4) 0.0729(3) 0.50041(11)
H153_2 H 0.1248 0.5400 0.4992
H157_3 H 0.5400 0.1248 0.5008
C150_2 C 0.0770(3) 0.4119(4) 0.49980(10)
C153_3 C 0.4119(4) 0.0770(3) 0.50020(10)
H158_2 H 0.1302 0.4141 0.4998
H162_3 H 0.4141 0.1302 0.5002
C156_3 C 0.3326(3) 0.0000 0.5000
C158_3 C 0.2481(3) 0.0000 0.5000
C163_3 C 0.2298(2) 0.0402(2) 0.52197(8)
C168_3 C 0.1521(2) 0.0422(2) 0.52131(8)
C172_3 C 0.2897(3) 0.0768(3) 0.54692(9)
H166_3 H 0.2669 0.1016 0.5598
H171_3 H 0.3460 0.1206 0.5407
H176_3 H 0.2943 0.0313 0.5561
C177_3 C 0.1340(3) 0.0856(3) 0.54578(10)
H181_3 H 0.1831 0.1107 0.5582
H186_3 H 0.0839 0.0434 0.5558
H191_3 H 0.1238 0.1302 0.5389
C180_3 C 0.0900(3) 0.0000 0.5000
Cl7 Cl 0.67868(10) 0.11516(10) 0.53005(3)
N7 N 0.6934(4) 0.0768(3) 0.46881(7)
C37 C 0.6699(5) 0.0972(4) 0.44451(10)
C38 C 0.9060(3) 0.5694(4) 0.22215(10)
H36_2 H 0.6120 0.0806 0.4420
H37 H 0.8647 0.5860 0.2246
C42 C 0.7251(5) 0.1401(4) 0.42363(10)
C43 C 0.9183(3) 0.5265(4) 0.24303(10)
H41 H 0.7055 0.1552 0.4077
H42 H 0.8836 0.5114 0.2589
C47 C 0.8119(4) 0.1624(3) 0.42551(9)
C48 C 0.9828(3) 0.5042(3) 0.24115(9)
C52 C 0.8360(4) 0.1424(3) 0.45042(9)
H46 H 0.8935 0.1578 0.4533
C57 C 0.7763(4) 0.1001(3) 0.47107(10)
H51 H 0.7949 0.0869 0.4876
C62 C 0.8761(4) 0.2059(3) 0.40239(9)
C67 C 0.9040(4) 0.1585(3) 0.38644(8)
C72 C 0.9638(4) 0.1983(3) 0.36485(8)
C77 C 0.9946(4) 0.2869(3) 0.35811(9)
C82 C 0.9646(4) 0.3328(3) 0.37449(10)
C83 C 0.9651(3) 0.3338(3) 0.29217(10)
C87 C 0.9074(4) 0.2930(3) 0.39685(9)
C88 C 0.9477(2) 0.3736(3) 0.26981(9)
C92 C 0.8650(4) 0.0615(3) 0.39122(10)
H56 H 0.8251 0.0436 0.4066
H61 H 0.9104 0.0491 0.3953
H66 H 0.8349 0.0307 0.3746
C97 C 0.9901(4) 0.1446(3) 0.34731(11)
H71 H 0.9636 0.0869 0.3546
H81 H 0.9716 0.1429 0.3283
C102 C 0.9984(4) 0.4280(3) 0.37004(12)
C103 C 0.9037(3) 0.2386(3) 0.29662(12)
H86 H 0.9712 0.4479 0.3830
H87 H 0.8566 0.2187 0.2836
H91 H 0.9857 0.4374 0.3512
H92 H 0.8816 0.2292 0.3154
H97 H 0.9339 0.2073 0.2937
C107 C 0.8817(4) 0.3461(3) 0.41538(11)
C108 C 0.8689(3) 0.3205(3) 0.25128(11)
H101 H 0.8422 0.3095 0.4295
H102 H 0.8660 0.3571 0.2371
H106 H 0.8544 0.3703 0.4041
H107 H 0.8174 0.2963 0.2625
H111 H 0.9325 0.3920 0.4241
H112 H 0.8738 0.2746 0.2425
C1_3 C 0.5694(4) 0.9060(3) 0.77785(10)
H1_3 H 0.5860 0.8647 0.7754
C2_3 C 0.5265(4) 0.9183(3) 0.75697(10)
H2_3 H 0.5114 0.8836 0.7411
C3_3 C 0.5042(3) 0.9828(3) 0.75885(9)
C10_3 C 0.3338(3) 0.9651(3) 0.70783(10)
C11_3 C 0.3736(3) 0.9477(2) 0.73019(9)
C14_2 C 0.2386(3) 0.9037(3) 0.70338(12)
H11_2 H 0.2187 0.8566 0.7164
H12_2 H 0.2292 0.8816 0.6846
H13_2 H 0.2073 0.9339 0.7063
C15_2 C 0.3205(3) 0.8689(3) 0.74872(11)
H14_3 H 0.3571 0.8660 0.7629
H15_2 H 0.2963 0.8174 0.7375
H16_2 H 0.2746 0.8738 0.7575
C34_2 C 0.0972(4) 0.6699(5) 0.55549(10)
H33_3 H 0.0806 0.6120 0.5580
C39_2 C 0.1401(4) 0.7251(5) 0.57637(10)
H38_2 H 0.1552 0.7055 0.5923
C44_2 C 0.1624(3) 0.8119(4) 0.57449(9)
C49_2 C 0.1424(3) 0.8360(4) 0.54958(9)
H43_2 H 0.1578 0.8935 0.5467
C54_2 C 0.1001(3) 0.7763(4) 0.52893(10)
H48_2 H 0.0869 0.7949 0.5124
C59_2 C 0.2059(3) 0.8761(4) 0.59761(9)
C64_2 C 0.1585(3) 0.9040(4) 0.61356(8)
C69_2 C 0.1983(3) 0.9638(4) 0.63515(8)
C74_2 C 0.2869(3) 0.9946(4) 0.64189(9)
C79_2 C 0.3328(3) 0.9646(4) 0.62551(10)
C84_2 C 0.2930(3) 0.9074(4) 0.60315(9)
C89_2 C 0.0615(3) 0.8650(4) 0.60878(10)
H53_2 H 0.0436 0.8251 0.5934
H58_2 H 0.0491 0.9104 0.6047
H63_2 H 0.0307 0.8349 0.6254
C94_2 C 0.1446(3) 0.9901(4) 0.65269(11)
H68_2 H 0.0869 0.9636 0.6454
H78_2 H 0.1429 0.9716 0.6717
C99_3 C 0.4280(3) 0.9984(4) 0.62996(12)
H83_3 H 0.4479 0.9712 0.6170
H88_3 H 0.4374 0.9857 0.6488
C104_3 C 0.3461(3) 0.8817(4) 0.58462(11)
H98_2 H 0.3095 0.8422 0.5705
H103_3 H 0.3703 0.8544 0.5959
H108_3 H 0.3920 0.9325 0.5759
Cu2_5 Cu 1.0000 0.0000 0.0000
Cl2_3 Cl 1.0000 0.0000 0.04791(5)
B4 B 0.3955(4) 0.0000 0.0000
N17 N 0.8820(3) 0.0000 0.0000
H82 H 0.4953 0.1904 0.0050
C102_2 C 0.3317(4) 0.0947(3) 0.03671(12)
H86_2 H 0.3045 0.1146 0.0497
H91_2 H 0.3190 0.1041 0.0179
H96 H 0.3932 0.1260 0.0396
C107_2 C 0.2150(4) 0.0128(3) 0.08205(11)
H106_2 H 0.1877 0.0370 0.0708
H111_2 H 0.2658 0.0587 0.0908
C110 C 0.4850(3) 0.0000 0.0000
C114 C 0.5400(4) 0.0303(3) 0.02347(8)
C119 C 0.6192(4) 0.0311(3) 0.02328(9)
C124 C 0.5187(5) 0.0658(4) 0.04908(10)
H116 H 0.5636 0.0822 0.0628
H121 H 0.4645 0.0222 0.0568
H126 H 0.5143 0.1155 0.0439
C129 C 0.6797(5) 0.0694(4) 0.04801(11)
H131 H 0.7309 0.0657 0.0448
H136 H 0.6513 0.0379 0.0647
H141 H 0.6955 0.1291 0.0502
C132 C 0.6414(3) 0.0000 0.0000
C134 C 0.7260(3) 0.0000 0.0000
Cu2_6 Cu 1.0000 0.0000 1.0000
Cu7 Cu 0.27907(4) 0.3333 0.8333
Cl8_3 Cl 1.0000 0.0000 0.95209(5)
B4_2 B 0.3955(4) 0.0000 1.0000
N8 N 0.2832(2) 0.2565(3) 0.86452(7)
N17_2 N 0.8820(3) 0.0000 1.0000
C38_2 C 0.2393(3) 0.2361(4) 0.88882(10)
H37_2 H 0.1980 0.2527 0.8913
C43_2 C 0.2516(3) 0.1932(4) 0.90970(10)
H42_2 H 0.2169 0.1781 0.9256
C48_2 C 0.3161(3) 0.1709(3) 0.90782(9)
C53 C 0.3602(3) 0.1909(3) 0.88291(9)
H47 H 0.4023 0.1755 0.8800
C58 C 0.3428(3) 0.2332(3) 0.86226(10)
H52 H 0.3746 0.2464 0.8457
C63 C 0.3368(3) 0.1274(3) 0.93094(9)
C68 C 0.4121(3) 0.1748(3) 0.94689(8)
C73 C 0.4321(2) 0.1350(3) 0.96848(8)
C78 C 0.3743(2) 0.0464(3) 0.97522(9)
C83_2 C 0.2984(3) 0.0005(3) 0.95884(10)
C88_2 C 0.2810(2) 0.0403(3) 0.93648(9)
C93 C 0.4701(3) 0.2718(3) 0.94211(10)
H57 H 0.4481 0.2897 0.9267
H62 H 0.5279 0.2842 0.9380
H67 H 0.4708 0.3026 0.9587
C98 C 0.5121(3) 0.1887(3) 0.98602(11)
H72 H 0.5433 0.2464 0.9787
H77 H 0.5484 0.1632 0.9855
H102_2 H 0.1993 0.0238 0.9038
C110_2 C 0.4850(3) 0.0000 1.0000
C132_2 C 0.6414(3) 0.0000 1.0000
C134_2 C 0.7260(3) 0.0000 1.0000
C139 C 0.7990(3) 0.0641(3) 0.98718(11)
H147 H 0.7971 0.1097 0.9784
C144 C 0.8749(3) 0.0619(3) 0.98713(11)
H152 H 0.9228 0.1052 0.9778
Cl4_3 Cl 0.34535(10) 0.44849(17) 0.86338(3)
Cl5_2 Cl 0.23019(14) 0.21818(17) 0.80329(3)
N10_3 N 0.3600(4) 0.4102(4) 0.80215(7)
N14_3 N 0.1563(3) 0.3333(4) 0.8333
C25_3 C 0.0812(3) 0.2604(3) 0.83292(11)
H25_3 H 0.0818 0.2085 0.8325
C26_3 C 0.0015(3) 0.2563(3) 0.83313(10)
H28_3 H 0.0127 0.4539 0.8740
C145_3 C 0.1541(4) 0.4063(3) 0.83375(11)
H153_3 H 0.2066 0.4582 0.8342
C150_3 C 0.0785(4) 0.4104(3) 0.83354(10)
H158_3 H 0.0807 0.4636 0.8336
B2_6 B -0.0000 1.0000 0.5000
Cu9_3 Cu 0.61244(4) 1.0000 0.5000
N13_3 N 0.4897(3) 1.0000 0.5000
C149_3 C 0.4145(3) 0.9271(3) 0.49959(11)
H156_3 H 0.4151 0.8752 0.4992
C154_3 C 0.3348(3) 0.9230(3) 0.49980(10)
H161_3 H 0.2838 0.8698 0.4998
C156_4 C 0.3326(3) 1.0000 0.5000
C158_4 C 0.2481(3) 1.0000 0.5000
C162_3 C 0.1897(3) 0.9598(2) 0.47803(8)
C167_3 C 0.1100(3) 0.9578(2) 0.47869(8)
C173_3 C 0.2130(4) 0.9232(3) 0.45308(9)
H167_3 H 0.1654 0.8984 0.4402
H172_3 H 0.2255 0.8794 0.4593
H177_3 H 0.2631 0.9687 0.4439
C178_3 C 0.0485(4) 0.9144(3) 0.45422(10)
H182_3 H 0.0725 0.8893 0.4418
H187_3 H 0.0406 0.9566 0.4442
H189_3 H 0.0063 0.8762 0.5389
C180_4 C 0.0900(3) 1.0000 0.5000
Cl6_2 Cl 0.56353(14) 0.88484(10) 0.46995(3)
N11_2 N 0.6165(2) 0.9232(3) 0.53119(7)
B4_3 B 0.7288(4) 0.6667 0.6667
C37_2 C 0.3365(5) 0.4306(4) 0.77785(10)
C38_3 C 0.5726(3) 0.9028(4) 0.55549(10)
H36_3 H 0.2786 0.4140 0.7754
H37_3 H 0.5313 0.9194 0.5580
C42_2 C 0.3917(5) 0.4735(4) 0.75697(10)
C43_3 C 0.5849(3) 0.8599(4) 0.57637(10)
H41_2 H 0.3721 0.4886 0.7411
H42_3 H 0.5502 0.8448 0.5923
C47_2 C 0.4785(4) 0.4958(3) 0.75885(9)
C48_3 C 0.6494(3) 0.8376(3) 0.57449(9)
C52_2 C 0.5026(4) 0.4758(3) 0.78376(9)
C53_2 C 0.6935(3) 0.8576(3) 0.54958(9)
H46_2 H 0.5601 0.4912 0.7867
H47_2 H 0.7356 0.8422 0.5467
C57_2 C 0.4429(4) 0.4335(3) 0.80441(10)
C58_2 C 0.6761(3) 0.8999(3) 0.52893(10)
H51_2 H 0.4615 0.4203 0.8210
H52_2 H 0.7079 0.9131 0.5124
C62_2 C 0.5427(4) 0.5393(3) 0.73573(9)
C63_2 C 0.6701(3) 0.7941(3) 0.59761(9)
C67_2 C 0.5706(4) 0.4919(3) 0.71978(8)
C68_2 C 0.7454(3) 0.8415(3) 0.61356(8)
C72_2 C 0.6304(4) 0.5317(3) 0.69819(8)
C73_2 C 0.7654(2) 0.8017(3) 0.63515(8)
C77_2 C 0.6612(4) 0.6203(3) 0.69145(9)
C78_2 C 0.7076(2) 0.7131(3) 0.64189(9)
C82_2 C 0.6312(4) 0.6662(3) 0.70783(10)
C83_3 C 0.6317(3) 0.6672(3) 0.62551(10)
C87_2 C 0.5740(4) 0.6264(3) 0.73019(9)
C88_3 C 0.6143(2) 0.7070(3) 0.60315(9)
C92_2 C 0.5316(4) 0.3949(3) 0.72456(10)
C93_2 C 0.8034(3) 0.9385(3) 0.60878(10)
H56_2 H 0.4917 0.3770 0.7400
H57_2 H 0.7814 0.9564 0.5934
H61_2 H 0.5770 0.3825 0.7287
H62_2 H 0.8612 0.9509 0.6047
H66_2 H 0.5015 0.3641 0.7080
H67_2 H 0.8041 0.9693 0.6254
C97_2 C 0.6567(4) 0.4780(3) 0.68065(11)
C98_2 C 0.8454(3) 0.8554(3) 0.65269(11)
H71_2 H 0.6302 0.4203 0.6880
H72_2 H 0.8766 0.9131 0.6454
H76 H 0.7185 0.5035 0.6812
H77_2 H 0.8817 0.8299 0.6522
H81_2 H 0.6382 0.4763 0.6617
H82_2 H 0.8286 0.8571 0.6717
C102_3 C 0.6650(4) 0.7614(3) 0.70338(12)
C103_2 C 0.5703(3) 0.5720(3) 0.62996(12)
H86_3 H 0.6378 0.7813 0.7164
H87_2 H 0.5232 0.5521 0.6170
H91_3 H 0.6523 0.7708 0.6846
H92_2 H 0.5482 0.5626 0.6488
H96_2 H 0.7265 0.7927 0.7063
H97_2 H 0.6005 0.5407 0.6271
C107_3 C 0.5483(4) 0.6795(3) 0.74872(11)
C108_2 C 0.5355(3) 0.6539(3) 0.58462(11)
H101_2 H 0.5088 0.6429 0.7629
H102_3 H 0.5326 0.6905 0.5705
H106_3 H 0.5210 0.7037 0.7375
H107_2 H 0.4840 0.6297 0.5959
H111_3 H 0.5991 0.7254 0.7575
H112_2 H 0.5404 0.6080 0.5759
C110_3 C 0.8183(3) 0.6667 0.6667
C114_2 C 0.8733(4) 0.6970(3) 0.69014(8)
C115 C 0.8430(3) 0.6364(3) 0.64320(8)
C119_2 C 0.9525(4) 0.6978(3) 0.68995(9)
C120 C 0.9214(3) 0.6356(3) 0.64339(9)
C124_2 C 0.8520(5) 0.7325(4) 0.71575(10)
C125 C 0.7862(3) 0.6009(4) 0.61759(10)
H116_2 H 0.8969 0.7489 0.7295
H117 H 0.8147 0.5845 0.6039
H121_2 H 0.7978 0.6889 0.7235
H122 H 0.7756 0.6445 0.6099
H126_2 H 0.8476 0.7822 0.7106
H127 H 0.7321 0.5512 0.6228
C130 C 0.9436(3) 0.5973(4) 0.61866(11)
H132 H 0.9985 0.6010 0.6219
H136_2 H 0.9846 0.7046 0.7314
H137 H 0.9467 0.6288 0.6020
H142 H 0.8997 0.5376 0.6165
C132_3 C 0.9747(3) 0.6667 0.6667
Cu2_7 Cu 1.0000 1.0000 0.0000
Cl2_4 Cl 1.0000 1.0000 0.04791(5)
B1_4 B 1.0000 0.3955(4) 0.0000
N3_3 N 1.0000 0.8820(3) 0.0000
C14_3 C 0.9053(3) 0.2370(3) 0.03671(12)
H11_3 H 0.8854 0.1899 0.0497
H12_3 H 0.8959 0.2149 0.0179
H13_3 H 0.8740 0.2672 0.0396
C15_3 C 0.9872(3) 0.2022(3) 0.08205(11)
H15_3 H 0.9630 0.1507 0.0708
H16_3 H 0.9413 0.2071 0.0908
C16_4 C 1.0000 0.4850(3) 0.0000
C17_2 C 0.9697(3) 0.5097(3) 0.02347(8)
C18_2 C 0.9689(3) 0.5881(3) 0.02328(9)
C19_2 C 0.9342(4) 0.4529(3) 0.04908(10)
H17_2 H 0.9178 0.4814 0.0628
H18_2 H 0.9778 0.4423 0.0568
H19_2 H 0.8845 0.3988 0.0439
C20_2 C 0.9306(4) 0.6103(3) 0.04801(11)
H20_2 H 0.9343 0.6652 0.0448
H21_2 H 0.9621 0.6134 0.0647
H22_2 H 0.8709 0.5664 0.0502
C21_4 C 1.0000 0.6414(3) 0.0000
C22_3 C 1.0000 0.7260(3) 0.0000
Cl7_2 Cl 0.01202(10) 0.78182(10) 0.19671(3)
B4_4 B 0.3955(4) 1.0000 0.0000
N7_2 N 0.0267(4) 0.7435(3) 0.13548(7)
N17_3 N 0.8820(3) 1.0000 0.0000
C37_3 C 0.0032(5) 0.7639(4) 0.11118(10)
C42_3 C 0.0584(5) 0.8068(4) 0.09030(10)
H41_3 H 0.0388 0.8219 0.0744
C47_3 C 0.1452(4) 0.8291(3) 0.09218(9)
C52_3 C 0.1693(4) 0.8091(3) 0.11709(9)
H46_3 H 0.2268 0.8245 0.1200
C57_3 C 0.1096(4) 0.7668(3) 0.13774(10)
H51_3 H 0.1282 0.7536 0.1543
C62_3 C 0.2094(4) 0.8726(3) 0.06906(9)
C67_3 C 0.2373(4) 0.8252(3) 0.05311(8)
C72_3 C 0.2971(4) 0.8650(3) 0.03152(8)
C77_3 C 0.3279(4) 0.9536(3) 0.02478(9)
C82_3 C 0.2979(4) 0.9995(3) 0.04116(10)
C87_3 C 0.2407(4) 0.9597(3) 0.06352(9)
C92_3 C 0.1983(4) 0.7282(3) 0.05789(10)
H56_3 H 0.1584 0.7103 0.0733
H61_3 H 0.2437 0.7158 0.0620
H66_3 H 0.1682 0.6974 0.0413
C97_3 C 0.3234(4) 0.8113(3) 0.01398(11)
H71_3 H 0.2969 0.7536 0.0213
H76_2 H 0.3852 0.8368 0.0145
H78_3 H 0.8096 0.3049 0.0050
H101_3 H 0.1755 0.9762 0.0962
C110_4 C 0.4850(3) 1.0000 0.0000
C132_4 C 0.6414(3) 1.0000 0.0000
C134_3 C 0.7260(3) 1.0000 0.0000
C138 C 0.7349(4) 0.9359(3) 0.01282(11)
H146 H 0.6874 0.8903 0.0216
C143 C 0.8130(4) 0.9381(3) 0.01287(11)
H151 H 0.8176 0.8948 0.0222
Cu2_8 Cu 0.6667 0.3333 0.3333
Cl2_5 Cl 0.6667 0.3333 0.38124(5)
N3_4 N 0.6667 0.2153(3) 0.3333
C22_4 C 0.6667 0.0593(3) 0.3333
C23_2 C 0.7308(3) 0.1323(3) 0.34615(11)
H23_2 H 0.7764 0.1304 0.3549
C24_2 C 0.7286(3) 0.2082(3) 0.34620(11)
H24_2 H 0.7719 0.2561 0.3555
Cl8_4 Cl 0.6667 0.3333 0.28542(5)
B4_5 B 0.0622(4) 0.3333 0.3333
N16_3 N 0.7847(3) 0.4513(3) 0.3333
N17_4 N 0.5487(3) 0.3333 0.3333
C53_3 C 0.0269(3) 0.5242(3) 0.21624(9)
H47_3 H 0.0690 0.5088 0.2133
C58_3 C 0.0095(3) 0.5665(3) 0.19559(10)
H52_3 H 0.0413 0.5797 0.1790
C63_3 C 0.0035(3) 0.4607(3) 0.26427(9)
C68_3 C 0.0788(3) 0.5081(3) 0.28022(8)
C73_3 C 0.0988(2) 0.4683(3) 0.30181(8)
C78_3 C 0.0410(2) 0.3797(3) 0.30855(9)
C93_3 C 0.1368(3) 0.6051(3) 0.27544(10)
H57_3 H 0.1148 0.6230 0.2600
H62_3 H 0.1946 0.6175 0.2713
H67_3 H 0.1375 0.6359 0.2920
C98_3 C 0.1788(3) 0.5220(3) 0.31935(11)
H72_3 H 0.2100 0.5797 0.3120
H76_3 H 0.0519 0.1701 0.3478
H77_3 H 0.2151 0.4965 0.3188
H82_3 H 0.1620 0.5237 0.3383
H96_3 H 0.0599 0.4593 0.3729
C110_5 C 0.1517(3) 0.3333 0.3333
C114_3 C 0.2067(4) 0.3636(3) 0.35680(8)
C115_2 C 0.1764(3) 0.3030(3) 0.30986(8)
C119_3 C 0.2859(4) 0.3644(3) 0.35661(9)
C120_2 C 0.2548(3) 0.3022(3) 0.31005(9)
C124_3 C 0.1854(5) 0.3991(4) 0.38241(10)
C125_2 C 0.1196(3) 0.2675(4) 0.28425(10)
H116_3 H 0.2303 0.4155 0.3961
H117_2 H 0.1481 0.2511 0.2705
H121_3 H 0.1312 0.3555 0.3901
H122_2 H 0.1090 0.3111 0.2765
H126_3 H 0.1810 0.4488 0.3772
H127_2 H 0.0655 0.2178 0.2894
C126_2 C 0.7361(4) 0.0130(5) 0.28532(11)
C128_3 C 0.9870(5) 0.7230(3) 0.28532(11)
C129_2 C 0.3464(5) 0.4027(4) 0.38134(11)
C130_2 C 0.2770(3) 0.2639(4) 0.28532(11)
H128_2 H 0.7324 0.0642 0.2885
H130_3 H 0.9358 0.6681 0.2885
H131_2 H 0.3976 0.3990 0.3781
H132_2 H 0.3319 0.2676 0.2885
H136_3 H 0.3180 0.3712 0.3980
H137_2 H 0.2801 0.2954 0.2686
H138_2 H 0.7958 0.0288 0.2831
H140_3 H 0.9712 0.7669 0.2831
H141_2 H 0.3622 0.4624 0.3835
H142_2 H 0.2331 0.2042 0.2831
C132_5 C 0.3081(3) 0.3333 0.3333
C133_3 C 0.9407(3) 0.6073(3) 0.3333
C134_4 C 0.3927(3) 0.3333 0.3333
C135 C 0.6026(3) 0.0682(4) 0.32051(11)
C136_2 C 0.8677(3) 0.5984(4) 0.34615(11)
C137_2 C 0.9318(4) 0.5343(3) 0.32051(11)
C138_2 C 0.4016(4) 0.2692(3) 0.34615(11)
C139_2 C 0.4657(3) 0.3974(3) 0.32051(11)
H143 H 0.5570 0.0207 0.3117
H144_2 H 0.8696 0.6459 0.3549
H145_2 H 0.9793 0.5362 0.3117
H146_2 H 0.3541 0.2236 0.3549
H147_2 H 0.4638 0.4430 0.3117
C140 C 0.6048(3) 0.1463(4) 0.32046(11)
C141_2 C 0.7918(3) 0.5203(4) 0.34620(11)
C142_2 C 0.8537(4) 0.4584(3) 0.32046(11)
C143_2 C 0.4797(4) 0.2714(3) 0.34620(11)
C144_2 C 0.5416(3) 0.3952(3) 0.32046(11)
H148 H 0.5615 0.1509 0.3111
H149_2 H 0.7439 0.5157 0.3555
H150_2 H 0.8491 0.4105 0.3111
H151_2 H 0.4843 0.2281 0.3555
H152_2 H 0.5895 0.4385 0.3111
Cu2_9 Cu 1.0000 1.0000 1.0000
B1_5 B 1.0000 0.3955(4) 1.0000
N3_5 N 1.0000 0.8820(3) 1.0000
C16_5 C 1.0000 0.4850(3) 1.0000
C21_5 C 1.0000 0.6414(3) 1.0000
C22_5 C 1.0000 0.7260(3) 1.0000
Cl8_5 Cl 1.0000 1.0000 0.95209(5)
B4_6 B 0.3955(4) 1.0000 1.0000
N4 N 0.7435(3) 0.0267(4) 0.86452(7)
N17_5 N 0.8820(3) 1.0000 1.0000
C34_3 C 0.7639(4) 0.0032(5) 0.88882(10)
C39_3 C 0.8068(4) 0.0584(5) 0.90970(10)
H38_3 H 0.8219 0.0388 0.9256
C44_3 C 0.8291(3) 0.1452(4) 0.90782(9)
C49_3 C 0.8091(3) 0.1693(4) 0.88291(9)
H43_3 H 0.8245 0.2268 0.8800
C54_3 C 0.7668(3) 0.1096(4) 0.86226(10)
H48_3 H 0.7536 0.1282 0.8457
C59_3 C 0.8726(3) 0.2094(4) 0.93094(9)
C64_3 C 0.8252(3) 0.2373(4) 0.94689(8)
C69_3 C 0.8650(3) 0.2971(4) 0.96848(8)
C74_3 C 0.9536(3) 0.3279(4) 0.97522(9)
C79_3 C 0.9995(3) 0.2979(4) 0.95884(10)
C84_3 C 0.9597(3) 0.2407(4) 0.93648(9)
C89_3 C 0.7282(3) 0.1983(4) 0.94211(10)
H53_3 H 0.7103 0.1584 0.9267
H58_3 H 0.7158 0.2437 0.9380
H63_3 H 0.6974 0.1682 0.9587
C94_3 C 0.8113(3) 0.3234(4) 0.98602(11)
H68_3 H 0.7536 0.2969 0.9787
H73_2 H 0.8368 0.3852 0.9855
H81_3 H 0.3049 0.8096 0.9950
C103_3 C 0.2370(3) 0.9053(3) 0.96329(12)
H87_3 H 0.1899 0.8854 0.9503
H92_3 H 0.2149 0.8959 0.9821
H97_3 H 0.2672 0.8740 0.9604
C108_3 C 0.2022(3) 0.9872(3) 0.91795(11)
H98_3 H 0.9762 0.1755 0.9038
H107_3 H 0.1507 0.9630 0.9292
H112_3 H 0.2071 0.9413 0.9092
C110_6 C 0.4850(3) 1.0000 1.0000
C115_3 C 0.5097(3) 0.9697(3) 0.97653(8)
C120_3 C 0.5881(3) 0.9689(3) 0.97672(9)
C125_3 C 0.4529(3) 0.9342(4) 0.95092(10)
H117_3 H 0.4814 0.9178 0.9372
H122_3 H 0.4423 0.9778 0.9432
H127_3 H 0.3988 0.8845 0.9561
C130_3 C 0.6103(3) 0.9306(4) 0.95199(11)
H132_3 H 0.6652 0.9343 0.9552
H137_3 H 0.6134 0.9621 0.9353
H142_3 H 0.5664 0.8709 0.9498
C132_6 C 0.6414(3) 1.0000 1.0000
C134_5 C 0.7260(3) 1.0000 1.0000
C135_2 C 0.9359(3) 0.7349(4) 0.98718(11)
H143_2 H 0.8903 0.6874 0.9784
C140_2 C 0.9381(3) 0.8130(4) 0.98713(11)
H148_2 H 0.8948 0.8176 0.9778
Cl5_3 Cl 0.78182(17) 0.01202(10) 0.80329(3)
Cu2_10 Cu 0.3333 0.6667 0.6667
Cl2_6 Cl 0.3333 0.6667 0.71458(5)
B1_6 B 0.3333 0.0622(4) 0.6667
N3_6 N 0.3333 0.5487(3) 0.6667
C4_3 C 0.5242(3) 0.0269(3) 0.78376(9)
H3_3 H 0.5088 0.0690 0.7867
C5_3 C 0.5665(3) 0.0095(3) 0.80441(10)
H4_3 H 0.5797 0.0413 0.8210
C6_3 C 0.4607(3) 0.0035(3) 0.73573(9)
C7_3 C 0.5081(3) 0.0788(3) 0.71978(8)
C8_3 C 0.4683(3) 0.0988(2) 0.69819(8)
C9_3 C 0.3797(3) 0.0410(2) 0.69145(9)
C12_3 C 0.6051(3) 0.1368(3) 0.72456(10)
H5_3 H 0.6230 0.1148 0.7400
H6_3 H 0.6175 0.1946 0.7287
H7_3 H 0.6359 0.1375 0.7080
C13_3 C 0.5220(3) 0.1788(3) 0.68065(11)
H8_3 H 0.5797 0.2100 0.6880
H9_3 H 0.4965 0.2151 0.6812
H10_3 H 0.5237 0.1620 0.6617
C16_6 C 0.3333 0.1517(3) 0.6667
C17_3 C 0.3030(3) 0.1764(3) 0.69014(8)
C18_3 C 0.3022(3) 0.2548(3) 0.68995(9)
C19_3 C 0.2675(4) 0.1196(3) 0.71575(10)
H17_3 H 0.2511 0.1481 0.7295
H18_3 H 0.3111 0.1090 0.7235
H19_3 H 0.2178 0.0655 0.7106
C20_3 C 0.2639(4) 0.2770(3) 0.71468(11)
H20_3 H 0.2676 0.3319 0.7115
H21_3 H 0.2954 0.2801 0.7314
H22_3 H 0.2042 0.2331 0.7169
C21_6 C 0.3333 0.3081(3) 0.6667
C22_6 C 0.3333 0.3927(3) 0.6667
C23_3 C 0.3974(3) 0.4657(3) 0.67949(11)
H23_3 H 0.4430 0.4638 0.6883
C24_3 C 0.3952(3) 0.5416(3) 0.67954(11)
H24_3 H 0.4385 0.5895 0.6889
Cl8_6 Cl 0.3333 0.6667 0.61876(5)
N16_4 N 0.4513(3) 0.7847(3) 0.6667
N17_6 N 0.2153(3) 0.6667 0.6667
H73_3 H 0.1701 0.0519 0.6522
H93_3 H 0.4593 0.0599 0.6271
C111_3 C 0.3636(3) 0.2067(4) 0.64320(8)
C116_3 C 0.3644(3) 0.2859(4) 0.64339(9)
C121_3 C 0.3991(4) 0.1854(5) 0.61759(10)
H113_3 H 0.4155 0.2303 0.6039
H118_3 H 0.3555 0.1312 0.6099
H123_3 H 0.4488 0.1810 0.6228
C126_3 C 0.4027(4) 0.3464(5) 0.61866(11)
C127_3 C 0.7230(3) 0.9870(5) 0.71468(11)
C129_3 C 0.0130(5) 0.7361(4) 0.71468(11)
H128_3 H 0.3990 0.3976 0.6219
H129_3 H 0.6681 0.9358 0.7115
H131_3 H 0.0642 0.7324 0.7115
H133_3 H 0.3712 0.3180 0.6020
H138_3 H 0.4624 0.3622 0.6165
H139_3 H 0.7669 0.9712 0.7169
H141_3 H 0.0288 0.7958 0.7169
C133_4 C 0.6073(3) 0.9407(3) 0.6667
C134_6 C 0.0593(3) 0.6667 0.6667
C135_3 C 0.2692(3) 0.4016(4) 0.65385(11)
C136_3 C 0.5343(3) 0.9318(4) 0.67949(11)
C137_3 C 0.5984(4) 0.8677(3) 0.65385(11)
C138_3 C 0.0682(4) 0.6026(3) 0.67949(11)
C139_3 C 0.1323(3) 0.7308(3) 0.65385(11)
H143_3 H 0.2236 0.3541 0.6451
H144_3 H 0.5362 0.9793 0.6883
H145_3 H 0.6459 0.8696 0.6451
H146_3 H 0.0207 0.5570 0.6883
H147_3 H 0.1304 0.7764 0.6451
C140_3 C 0.2714(3) 0.4797(4) 0.65380(11)
C141_3 C 0.4584(3) 0.8537(4) 0.67954(11)
C142_3 C 0.5203(4) 0.7918(3) 0.65380(11)
C143_3 C 0.1463(4) 0.6048(3) 0.67954(11)
C144_3 C 0.2082(3) 0.7286(3) 0.65380(11)
H148_3 H 0.2281 0.4843 0.6445
H149_3 H 0.4105 0.8491 0.6889
H150_3 H 0.5157 0.7439 0.6445
H151_3 H 0.1509 0.5615 0.6889
H152_3 H 0.2561 0.7719 0.6445
loop_
_geom_bond_atom_site_label_1
_geom_bond_atom_site_label_2
_geom_bond_site_symmetry_1
_geom_bond_site_symmetry_2
Cu5 Cl4 1_555 1_555
N10 Cu5 1_555 1_555
N14 Cu5 1_555 1_555
Cu4 N12 1_555 1_555
N12 C146 1_555 1_555
C146 H155 1_555 1_555
C147 N12 1_555 1_555
H154 C147 1_555 1_555
C151 C146 1_555 1_555
C152 C147 1_555 1_555
H159 C152 1_555 1_555
Cu4 Cl1 1_555 1_555
N9 Cu4 1_555 1_555
N14 C146_2 1_555 1_555
C146_2 H155_2 1_555 1_555
C147_2 N14 1_555 1_555
H154_2 C147_2 1_555 1_555
C151_2 C146_2 1_555 1_555
C152_2 C147_2 1_555 1_555
H159_2 C152_2 1_555 1_555
Cu4_2 N5 1_555 1_555
N5 C35 1_555 1_555
C35 H34_2 1_555 1_555
C36 N9 1_555 1_555
H35_2 C36 1_555 1_555
C40 C35 1_555 1_555
C41 C36 1_555 1_555
H39 C40 1_555 1_555
H40 C41 1_555 1_555
C45 C40 1_555 1_555
C46 C41 1_555 1_555
C50 C45 1_555 1_555
H44 C50 1_555 1_555
C55 N5 1_555 1_555
H49 C55 1_555 1_555
C60 C45 1_555 1_555
C65 C60 1_555 1_555
C70 C65 1_555 1_555
C75 C70 1_555 1_555
C80 C75 1_555 1_555
C85 C60 1_555 1_555
C90 C65 1_555 1_555
H54 C90 1_555 1_555
H59 C90 1_555 1_555
H64 C90 1_555 1_555
C95 C70 1_555 1_555
H69 C95 1_555 1_555
H79 C95 1_555 1_555
C100 C80 1_555 1_555
C101 C81 1_555 1_555
H84 C100 1_555 1_555
H85 C101 1_555 1_555
H89 C100 1_555 1_555
H90 C101 1_555 1_555
H95 C101 1_555 1_555
C105 C85 1_555 1_555
C106 C86 1_555 1_555
H99 C105 1_555 1_555
H100 C106 1_555 1_555
H104 C105 1_555 1_555
H105 C106 1_555 1_555
H109 C105 1_555 1_555
H110 C106 1_555 1_555
C50 C55 1_555 1_555
C80 C85 1_555 1_555
C81 C86 1_555 1_555
Cu4_2 N12_2 1_555 1_555
N12_2 C146_3 1_555 1_555
C146_3 H155_3 1_555 1_555
C147_3 N12_2 1_555 1_555
H154_3 C147_3 1_555 1_555
C151_3 C146_3 1_555 1_555
C152_3 C147_3 1_555 1_555
H159_3 C152_3 1_555 1_555
H160 C151_3 1_555 1_555
C155 C151_3 1_555 1_555
C157 C155 1_555 1_555
C160 C157 1_555 1_555
C161 C157 1_555 1_555
C165 C160 1_555 1_555
C166 C161 1_555 1_555
C170 C161 1_555 1_555
C171 C160 1_555 1_555
H164 C170 1_555 1_555
H165 C171 1_555 1_555
H169 C170 1_555 1_555
H170_3 C171 1_555 1_555
H174 C170 1_555 1_555
H175 C171 1_555 1_555
C175 C166 1_555 1_555
C176 C165 1_555 1_555
H179 C175 1_555 1_555
H180 C176 1_555 1_555
H184 C175 1_555 1_555
H185 C176 1_555 1_555
C179 B2 1_555 1_555
C152_3 C155 1_555 1_555
C165 C179 1_555 1_555
C166 C179 1_555 1_555
Cu4_2 Cl1_2 1_555 1_555
Cl3 Cu4_2 1_555 1_555
N9_2 Cu4_2 1_555 1_555
N10 C35_2 1_555 1_555
C35_2 H34_3 1_555 1_555
C36_2 N9_2 1_555 1_555
H35_3 C36_2 1_555 1_555
C40_2 C35_2 1_555 1_555
C41_2 C36_2 1_555 1_555
H39_2 C40_2 1_555 1_555
H40_2 C41_2 1_555 1_555
C45_2 C40_2 1_555 1_555
C46_2 C41_2 1_555 1_555
C51 C46_2 1_555 1_555
H45 C51 1_555 1_555
C56 N9_2 1_555 1_555
H50 C56 1_555 1_555
C61 C46_2 1_555 1_555
C66 C61 1_555 1_555
C71 C66 1_555 1_555
C81_2 C76 1_555 1_555
C86_2 C61 1_555 1_555
C91 C66 1_555 1_555
H55 C91 1_555 1_555
H60 C91 1_555 1_555
H65 C91 1_555 1_555
C96 C71 1_555 1_555
H70 C96 1_555 1_555
H80 C96 1_555 1_555
C100_2 C80_2 1_555 1_555
C101_2 C81_2 1_555 1_555
H84_2 C100_2 1_555 1_555
H85_2 C101_2 1_555 1_555
H89_2 C100_2 1_555 1_555
H90_2 C101_2 1_555 1_555
H94 C100_2 1_555 1_555
C105_2 C85_2 1_555 1_555
C106_2 C86_2 1_555 1_555
H99_2 C105_2 1_555 1_555
H100_2 C106_2 1_555 1_555
H104_2 C105_2 1_555 1_555
H105_2 C106_2 1_555 1_555
H109_2 C105_2 1_555 1_555
H110_2 C106_2 1_555 1_555
C51 C56 1_555 1_555
C71 C76 1_555 1_555
C80_2 C85_2 1_555 1_555
C81_2 C86_2 1_555 1_555
Cu2 Cl2 1_555 1_555
B3 C75_2 1_555 1_555
N5_2 C35_3 1_555 1_555
N16 Cu2 1_555 1_555
C40_3 C35_3 1_555 1_555
H39_3 C40_3 1_555 1_555
C45_3 C40_3 1_555 1_555
C50_2 C45_3 1_555 1_555
H44_2 C50_2 1_555 1_555
C55_2 N5_2 1_555 1_555
H49_2 C55_2 1_555 1_555
C60_2 C45_3 1_555 1_555
C65_2 C60_2 1_555 1_555
C70_2 C65_2 1_555 1_555
C75_2 C70_2 1_555 1_555
C80_3 C75_2 1_555 1_555
C85_3 C60_2 1_555 1_555
C90_2 C65_2 1_555 1_555
H54_2 C90_2 1_555 1_555
H59_2 C90_2 1_555 1_555
H64_2 C90_2 1_555 1_555
C95_2 C70_2 1_555 1_555
H69_2 C95_2 1_555 1_555
H74 C95_2 1_555 1_555
C100_3 C80_3 1_555 1_555
H84_3 C100_3 1_555 1_555
H89_3 C100_3 1_555 1_555
H94_2 C100_3 1_555 1_555
C105_3 C85_3 1_555 1_555
H99_3 C105_3 1_555 1_555
H104_3 C105_3 1_555 1_555
H109_3 C105_3 1_555 1_555
C109 B3 1_555 1_555
C112 C109 1_555 1_555
C117 C112 1_555 1_555
C122 C112 1_555 1_555
H114 C122 1_555 1_555
H119 C122 1_555 1_555
H124 C122 1_555 1_555
C127 C117 1_555 1_555
H129 C127 1_555 1_555
H134 C127 1_555 1_555
H139 C127 1_555 1_555
C131 C117 1_555 1_555
C133 C131 1_555 1_555
C136 C133 1_555 1_555
H144 C136 1_555 1_555
C141 N16 1_555 1_555
H149 C141 1_555 1_555
C50_2 C55_2 1_555 1_555
C80_3 C85_3 1_555 1_555
C136 C141 1_555 1_555
H45_2 C51_2 1_555 1_555
H50_2 C56_2 1_555 1_555
C66_2 C61_2 1_555 1_555
C71_2 C66_2 1_555 1_555
C76_2 B3_2 1_555 1_555
C91_2 C66_2 1_555 1_555
H55_2 C91_2 1_555 1_555
H60_2 C91_2 1_555 1_555
H65_2 C91_2 1_555 1_555
C96_2 C71_2 1_555 1_555
H70_2 C96_2 1_555 1_555
H75 C96_2 1_555 1_555
H80_3 C96_2 1_555 1_555
C109_2 B3_2 1_555 1_555
C112_2 C109_2 1_555 1_555
C113 C109_2 1_555 1_555
C117_2 C112_2 1_555 1_555
C118 C113 1_555 1_555
C122_2 C112_2 1_555 1_555
C123 C113 1_555 1_555
H114_2 C122_2 1_555 1_555
H115 C123 1_555 1_555
H119_2 C122_2 1_555 1_555
H120 C123 1_555 1_555
H124_2 C122_2 1_555 1_555
H125 C123 1_555 1_555
C127_2 C117_2 1_555 1_555
H129_2 C127_2 1_555 1_555
H134_2 C127_2 1_555 1_555
H139_2 C127_2 1_555 1_555
C131_2 C117_2 1_555 1_555
C51_2 C56_2 1_555 1_555
C71_2 C76_2 1_555 1_555
C118 C131_2 1_555 1_555
Cl8 Cu2_2 1_555 1_555
N16_2 Cu2_2 1_555 1_555
C36_3 N6 1_555 1_555
C41_3 C36_3 1_555 1_555
H40_3 C41_3 1_555 1_555
C46_3 C41_3 1_555 1_555
C51_3 C46_3 1_555 1_555
H45_3 C51_3 1_555 1_555
C56_3 N6 1_555 1_555
H50_3 C56_3 1_555 1_555
C61_3 C46_3 1_555 1_555
C66_3 C61_3 1_555 1_555
C71_3 C66_3 1_555 1_555
C76_3 B3_3 1_555 1_555
C81_3 C76_3 1_555 1_555
C86_3 C61_3 1_555 1_555
C91_3 C66_3 1_555 1_555
H55_3 C91_3 1_555 1_555
H60_3 C91_3 1_555 1_555
H65_3 C91_3 1_555 1_555
C96_3 C71_3 1_555 1_555
H70_3 C96_3 1_555 1_555
H75_2 C96_3 1_555 1_555
C101_3 C81_3 1_555 1_555
H85_3 C101_3 1_555 1_555
H90_3 C101_3 1_555 1_555
H95_2 C101_3 1_555 1_555
C106_3 C86_3 1_555 1_555
H100_3 C106_3 1_555 1_555
H105_3 C106_3 1_555 1_555
H110_3 C106_3 1_555 1_555
C109_3 B3_3 1_555 1_555
C113_2 C109_3 1_555 1_555
C118_2 C113_2 1_555 1_555
C123_2 C113_2 1_555 1_555
H115_2 C123_2 1_555 1_555
H120_2 C123_2 1_555 1_555
H125_2 C123_2 1_555 1_555
C128 C118_2 1_555 1_555
H130 C128 1_555 1_555
H135_2 C128 1_555 1_555
H140 C128 1_555 1_555
C133_2 C131_3 1_555 1_555
C137 C133_2 1_555 1_555
H145 C137 1_555 1_555
C142 N16_2 1_555 1_555
H150 C142 1_555 1_555
C51_3 C56_3 1_555 1_555
C71_3 C76_3 1_555 1_555
C81_3 C86_3 1_555 1_555
C118_2 C131_3 1_555 1_555
C137 C142 1_555 1_555
B3_4 C75_3 1_555 1_555
H44_3 C50_3 1_555 1_555
H49_3 C55_3 1_555 1_555
C65_3 C60_3 1_555 1_555
C70_3 C65_3 1_555 1_555
C75_3 C70_3 1_555 1_555
C90_3 C65_3 1_555 1_555
H54_3 C90_3 1_555 1_555
H59_3 C90_3 1_555 1_555
H64_3 C90_3 1_555 1_555
C95_3 C70_3 1_555 1_555
H69_3 C95_3 1_555 1_555
H74_3 C95_3 1_555 1_555
H79_3 C95_3 1_555 1_555
C109_4 B3_4 1_555 1_555
C112_3 C109_4 1_555 1_555
C113_3 C109_4 1_555 1_555
C117_3 C112_3 1_555 1_555
C118_3 C113_3 1_555 1_555
C122_3 C112_3 1_555 1_555
C123_3 C113_3 1_555 1_555
H114_3 C122_3 1_555 1_555
H115_3 C123_3 1_555 1_555
H119_3 C122_3 1_555 1_555
H120_3 C123_3 1_555 1_555
H124_3 C122_3 1_555 1_555
H125_3 C123_3 1_555 1_555
C128_2 C118_3 1_555 1_555
H130_2 C128_2 1_555 1_555
H135_3 C128_2 1_555 1_555
H140_2 C128_2 1_555 1_555
C131_4 C117_3 1_555 1_555
C50_3 C55_3 1_555 1_555
C118_3 C131_4 1_555 1_555
Cu1 Cl1_3 1_555 1_555
Cu2_3 Cl2_2 1_555 1_555
B1 C9 1_555 1_555
N1 Cu1 1_555 1_555
N2 Cu1 1_555 1_555
N3 Cu2_3 1_555 1_555
C1 N1 1_555 1_555
H1 C1 1_555 1_555
C2 C1 1_555 1_555
H2 C2 1_555 1_555
C3 C2 1_555 1_555
C4 C3 1_555 1_555
H3 C4 1_555 1_555
C5 N1 1_555 1_555
H4 C5 1_555 1_555
C6 C3 1_555 1_555
C7 C6 1_555 1_555
C8 C7 1_555 1_555
C9 C8 1_555 1_555
C10 C9 1_555 1_555
C11 C6 1_555 1_555
C12 C7 1_555 1_555
H5 C12 1_555 1_555
H6 C12 1_555 1_555
H7 C12 1_555 1_555
C13 C8 1_555 1_555
H8 C13 1_555 1_555
H9 C13 1_555 1_555
C16 B1 1_555 1_555
C22 C21 1_555 1_555
C23 C22 1_555 1_555
H23 C23 1_555 1_555
C24 N3 1_555 1_555
H24 C24 1_555 1_555
C25 N2 1_555 1_555
H25 C25 1_555 1_555
C26 C25 1_555 1_555
Cl3_3 Cu1 1_555 1_555
N9_3 Cu1 1_555 1_555
C145 N2 1_555 1_555
H153 C145 1_555 1_555
H158 C150 1_555 1_555
C4 C5 1_555 1_555
C10 C11 1_555 1_555
C23 C24 1_555 1_555
C145 C150 1_555 1_555
B1_2 C9_2 1_555 1_555
B2_2 C33 1_555 1_555
N1_2 Cu1_2 1_555 1_555
N2_2 Cu1_2 1_555 1_555
C1_2 N1_2 1_555 1_555
H1_2 C1_2 1_555 1_555
C2_2 C1_2 1_555 1_555
H2_2 C2_2 1_555 1_555
C3_2 C2_2 1_555 1_555
C4_2 C3_2 1_555 1_555
H3_2 C4_2 1_555 1_555
C5_2 N1_2 1_555 1_555
H4_2 C5_2 1_555 1_555
C6_2 C3_2 1_555 1_555
C7_2 C6_2 1_555 1_555
C8_2 C7_2 1_555 1_555
C9_2 C8_2 1_555 1_555
C10_2 C9_2 1_555 1_555
C11_2 C6_2 1_555 1_555
C12_2 C7_2 1_555 1_555
H5_2 C12_2 1_555 1_555
H6_2 C12_2 1_555 1_555
H7_2 C12_2 1_555 1_555
C13_2 C8_2 1_555 1_555
H8_2 C13_2 1_555 1_555
H9_2 C13_2 1_555 1_555
H10 C13_2 1_555 1_555
C14 C10_2 1_555 1_555
H11 C14 1_555 1_555
H12 C14 1_555 1_555
H13 C14 1_555 1_555
C15 C11_2 1_555 1_555
H14_2 C15 1_555 1_555
H15 C15 1_555 1_555
H16 C15 1_555 1_555
C16_2 B1_2 1_555 1_555
C17 C16_2 1_555 1_555
C18 C17 1_555 1_555
C19 C17 1_555 1_555
H17 C19 1_555 1_555
H18 C19 1_555 1_555
H19 C19 1_555 1_555
C20 C18 1_555 1_555
H20 C20 1_555 1_555
H21 C20 1_555 1_555
H22 C20 1_555 1_555
C21_2 C18 1_555 1_555
C25_2 N2_2 1_555 1_555
H25_2 C25_2 1_555 1_555
C26_2 C25_2 1_555 1_555
H26 C26_2 1_555 1_555
C27 C26_2 1_555 1_555
C28 C27 1_555 1_555
Cl3_4 Cu1_2 1_555 1_555
N9_3 C34 1_555 1_555
C34 H33 1_555 1_555
C39 C34 1_555 1_555
H38 C39 1_555 1_555
C44 C39 1_555 1_555
C49 C44 1_555 1_555
H43 C49 1_555 1_555
C54 N9_3 1_555 1_555
H48 C54 1_555 1_555
C59 C44 1_555 1_555
C64 C59 1_555 1_555
C69 C64 1_555 1_555
C74 B1_2 1_555 1_555
C79 C74 1_555 1_555
C84 C59 1_555 1_555
C89 C64 1_555 1_555
H53 C89 1_555 1_555
H58 C89 1_555 1_555
H63 C89 1_555 1_555
C94 C69 1_555 1_555
H68 C94 1_555 1_555
H73 C94 1_555 1_555
H78 C94 1_555 1_555
C99 C79 1_555 1_555
H83 C99 1_555 1_555
H88 C99 1_555 1_555
H93 C99 1_555 1_555
C104 C84 1_555 1_555
H98 C104 1_555 1_555
H103 C104 1_555 1_555
H108 C104 1_555 1_555
C111 C16_2 1_555 1_555
C116 C21_2 1_555 1_555
C121 C111 1_555 1_555
H113 C121 1_555 1_555
H118 C121 1_555 1_555
H123 C121 1_555 1_555
C159 C28 1_555 1_555
C164 C33 1_555 1_555
C169 C159 1_555 1_555
H163 C169 1_555 1_555
H168 C169 1_555 1_555
H173 C169 1_555 1_555
C174 C164 1_555 1_555
H178 C174 1_555 1_555
H183 C174 1_555 1_555
C4_2 C5_2 1_555 1_555
C10_2 C11_2 1_555 1_555
C49 C54 1_555 1_555
C69 C74 1_555 1_555
C79 C84 1_555 1_555
C111 C116 1_555 1_555
C159 C164 1_555 1_555
N3_2 Cu2_4 1_555 1_555
C16_3 B1_3 1_555 1_555
C22_2 C21_3 1_555 1_555
Cl8_2 Cu2_4 1_555 1_555
H83_2 C99_2 1_555 1_555
H88_2 C99_2 1_555 1_555
H93_2 C99_2 1_555 1_555
H103_2 C104_2 1_555 1_555
H108_2 C104_2 1_555 1_555
C111_2 C16_3 1_555 1_555
C116_2 C21_3 1_555 1_555
C121_2 C111_2 1_555 1_555
H113_2 C121_2 1_555 1_555
H118_2 C121_2 1_555 1_555
H123_2 C121_2 1_555 1_555
C126 C116_2 1_555 1_555
H128 C126 1_555 1_555
H133_2 C126 1_555 1_555
H138 C126 1_555 1_555
C111_2 C116_2 1_555 1_555
B2_3 C33_2 1_555 1_555
C28_2 C27_2 1_555 1_555
C29 C28_2 1_555 1_555
C30 C29 1_555 1_555
C31 C29 1_555 1_555
H27 C31 1_555 1_555
H29 C31 1_555 1_555
C32 C30 1_555 1_555
H30 C32 1_555 1_555
H31 C32 1_555 1_555
H32 C32 1_555 1_555
C33_2 C30 1_555 1_555
Cu9 N13 1_555 1_555
N13 C148 1_555 1_555
C148 H157 1_555 1_555
C149 N13 1_555 1_555
H156 C149 1_555 1_555
C153 C148 1_555 1_555
C154 C149 1_555 1_555
H161 C154 1_555 1_555
H162 C153 1_555 1_555
C156 C153 1_555 1_555
C157_2 C155_2 1_555 1_555
C158 C156 1_555 1_555
C159_2 C28_2 1_555 1_555
C160_2 C157_2 1_555 1_555
C161_2 C157_2 1_555 1_555
C162 C158 1_555 1_555
C163 C158 1_555 1_555
C164_2 C33_2 1_555 1_555
C165_2 C160_2 1_555 1_555
C166_2 C161_2 1_555 1_555
C167 C162 1_555 1_555
C168 C163 1_555 1_555
C169_2 C159_2 1_555 1_555
C170_2 C161_2 1_555 1_555
C171_2 C160_2 1_555 1_555
C172 C163 1_555 1_555
C173 C162 1_555 1_555
H163_2 C169_2 1_555 1_555
H164_2 C170_2 1_555 1_555
H165_2 C171_2 1_555 1_555
H166 C172 1_555 1_555
H167 C173 1_555 1_555
H168_2 C169_2 1_555 1_555
H169_2 C170_2 1_555 1_555
H171 C172 1_555 1_555
H172 C173 1_555 1_555
H173_2 C169_2 1_555 1_555
H174_2 C170_2 1_555 1_555
H175_2 C171_2 1_555 1_555
H176 C172 1_555 1_555
H177 C173 1_555 1_555
C174_2 C164_2 1_555 1_555
C175_2 C166_2 1_555 1_555
C176_2 C165_2 1_555 1_555
C177 C168 1_555 1_555
C178 C167 1_555 1_555
H178_2 C174_2 1_555 1_555
H179_2 C175_2 1_555 1_555
H180_2 C176_2 1_555 1_555
H181 C177 1_555 1_555
H182 C178 1_555 1_555
H183_2 C174_2 1_555 1_555
H184_2 C175_2 1_555 1_555
H185_2 C176_2 1_555 1_555
H186 C177 1_555 1_555
H187 C178 1_555 1_555
H188_2 C174_2 1_555 1_555
H189 C175_2 1_555 1_555
H190_2 C176_2 1_555 1_555
H191 C177 1_555 1_555
H192_2 C178 1_555 1_555
C179_2 B2_3 1_555 1_555
C180 B2_3 1_555 1_555
C154 C156 1_555 1_555
C159_2 C164_2 1_555 1_555
C165_2 C179_2 1_555 1_555
C166_2 C179_2 1_555 1_555
C167 C180 1_555 1_555
C168 C180 1_555 1_555
Cu9 Cl6 1_555 1_555
N11 Cu9 1_555 1_555
Cu3 Cl4_2 1_555 1_555
N10_2 Cu3 1_555 1_555
N14_2 Cu3 1_555 1_555
B2_4 C33_3 1_555 1_555
C28_3 C27_3 1_555 1_555
C29_2 C28_3 1_555 1_555
C30_2 C29_2 1_555 1_555
C31_2 C29_2 1_555 1_555
H27_2 C31_2 1_555 1_555
H29_2 C31_2 1_555 1_555
C32_2 C30_2 1_555 1_555
H30_2 C32_2 1_555 1_555
H31_2 C32_2 1_555 1_555
H32_2 C32_2 1_555 1_555
C33_3 C30_2 1_555 1_555
N14_2 C148_2 1_555 1_555
C148_2 H157_2 1_555 1_555
C149_2 N14_2 1_555 1_555
H156_2 C149_2 1_555 1_555
C153_2 C148_2 1_555 1_555
C154_2 C149_2 1_555 1_555
H161_2 C154_2 1_555 1_555
H162_2 C153_2 1_555 1_555
C156_2 C153_2 1_555 1_555
C157_3 C155_3 1_555 1_555
C158_2 C156_2 1_555 1_555
C159_3 C28_3 1_555 1_555
C160_3 C157_3 1_555 1_555
C161_3 C157_3 1_555 1_555
C162_2 C158_2 1_555 1_555
C163_2 C158_2 1_555 1_555
C164_3 C33_3 1_555 1_555
C165_3 C160_3 1_555 1_555
C166_3 C161_3 1_555 1_555
C167_2 C162_2 1_555 1_555
C168_2 C163_2 1_555 1_555
C169_3 C159_3 1_555 1_555
C170_3 C161_3 1_555 1_555
C171_3 C160_3 1_555 1_555
C172_2 C163_2 1_555 1_555
C173_2 C162_2 1_555 1_555
H163_3 C169_3 1_555 1_555
H164_3 C170_3 1_555 1_555
H165_3 C171_3 1_555 1_555
H166_2 C172_2 1_555 1_555
H167_2 C173_2 1_555 1_555
H168_3 C169_3 1_555 1_555
H169_3 C170_3 1_555 1_555
H171_2 C172_2 1_555 1_555
H172_2 C173_2 1_555 1_555
H173_3 C169_3 1_555 1_555
H174_3 C170_3 1_555 1_555
H175_3 C171_3 1_555 1_555
H176_2 C172_2 1_555 1_555
H177_2 C173_2 1_555 1_555
C174_3 C164_3 1_555 1_555
C175_3 C166_3 1_555 1_555
C176_3 C165_3 1_555 1_555
C177_2 C168_2 1_555 1_555
C178_2 C167_2 1_555 1_555
H178_3 C174_3 1_555 1_555
H179_3 C175_3 1_555 1_555
H180_3 C176_3 1_555 1_555
H181_2 C177_2 1_555 1_555
H182_2 C178_2 1_555 1_555
H183_3 C174_3 1_555 1_555
H184_3 C175_3 1_555 1_555
H185_3 C176_3 1_555 1_555
H186_2 C177_2 1_555 1_555
H187_2 C178_2 1_555 1_555
H188_3 C174_3 1_555 1_555
H189_2 C175_3 1_555 1_555
H190_3 C176_3 1_555 1_555
H191_2 C177_2 1_555 1_555
H192_3 C178_2 1_555 1_555
C179_3 B2_4 1_555 1_555
C180_2 B2_4 1_555 1_555
C154_2 C156_2 1_555 1_555
C159_3 C164_3 1_555 1_555
C165_3 C179_3 1_555 1_555
C166_3 C179_3 1_555 1_555
C167_2 C180_2 1_555 1_555
C168_2 C180_2 1_555 1_555
Cu1_3 Cl1_4 1_555 1_555
B2_5 C33_4 1_555 1_555
N2_3 Cu1_3 1_555 1_555
C28_4 C27_4 1_555 1_555
C29_3 C28_4 1_555 1_555
C30_3 C29_3 1_555 1_555
C31_3 C29_3 1_555 1_555
H27_3 C31_3 1_555 1_555
H28_2 C31_3 1_555 1_555
H29_3 C31_3 1_555 1_555
C32_3 C30_3 1_555 1_555
H30_3 C32_3 1_555 1_555
H31_3 C32_3 1_555 1_555
H32_3 C32_3 1_555 1_555
C33_4 C30_3 1_555 1_555
Cu9_2 N13_2 1_555 1_555
N9_4 Cu1_3 1_555 1_555
N13_2 C148_3 1_555 1_555
C145_2 N2_3 1_555 1_555
C148_3 H157_3 1_555 1_555
H153_2 C145_2 1_555 1_555
C150_2 C27_4 1_555 1_555
C153_3 C148_3 1_555 1_555
H158_2 C150_2 1_555 1_555
H162_3 C153_3 1_555 1_555
C156_3 C153_3 1_555 1_555
C158_3 C156_3 1_555 1_555
C163_3 C158_3 1_555 1_555
C168_3 C163_3 1_555 1_555
C172_3 C163_3 1_555 1_555
H166_3 C172_3 1_555 1_555
H171_3 C172_3 1_555 1_555
H176_3 C172_3 1_555 1_555
C177_3 C168_3 1_555 1_555
H181_3 C177_3 1_555 1_555
H186_3 C177_3 1_555 1_555
H191_3 C177_3 1_555 1_555
C180_3 B2_5 1_555 1_555
C145_2 C150_2 1_555 1_555
C168_3 C180_3 1_555 1_555
Cl7 Cu9_2 1_555 1_555
N7 Cu9_2 1_555 1_555
N11 C38 1_555 1_555
C37 N7 1_555 1_555
C38 H37 1_555 1_555
H36_2 C37 1_555 1_555
C42 C37 1_555 1_555
C43 C38 1_555 1_555
H41 C42 1_555 1_555
H42 C43 1_555 1_555
C47 C42 1_555 1_555
C48 C43 1_555 1_555
C52 C47 1_555 1_555
H46 C52 1_555 1_555
C57 N7 1_555 1_555
H51 C57 1_555 1_555
C62 C47 1_555 1_555
C67 C62 1_555 1_555
C72 C67 1_555 1_555
C77 C72 1_555 1_555
C82 C77 1_555 1_555
C87 C62 1_555 1_555
C92 C67 1_555 1_555
H56 C92 1_555 1_555
H61 C92 1_555 1_555
H66 C92 1_555 1_555
C97 C72 1_555 1_555
H71 C97 1_555 1_555
H81 C97 1_555 1_555
C102 C82 1_555 1_555
C103 C83 1_555 1_555
H86 C102 1_555 1_555
H87 C103 1_555 1_555
H91 C102 1_555 1_555
H92 C103 1_555 1_555
H97 C103 1_555 1_555
C107 C87 1_555 1_555
C108 C88 1_555 1_555
H101 C107 1_555 1_555
H102 C108 1_555 1_555
H106 C107 1_555 1_555
H107 C108 1_555 1_555
H111 C107 1_555 1_555
H112 C108 1_555 1_555
C52 C57 1_555 1_555
C82 C87 1_555 1_555
C83 C88 1_555 1_555
C1_3 N10_2 1_555 1_555
H1_3 C1_3 1_555 1_555
C2_3 C1_3 1_555 1_555
H2_3 C2_3 1_555 1_555
C3_3 C2_3 1_555 1_555
C14_2 C10_3 1_555 1_555
H11_2 C14_2 1_555 1_555
H12_2 C14_2 1_555 1_555
H13_2 C14_2 1_555 1_555
C15_2 C11_3 1_555 1_555
H14_3 C15_2 1_555 1_555
H15_2 C15_2 1_555 1_555
H16_2 C15_2 1_555 1_555
N9_4 C34_2 1_555 1_555
C34_2 H33_3 1_555 1_555
C39_2 C34_2 1_555 1_555
H38_2 C39_2 1_555 1_555
C44_2 C39_2 1_555 1_555
C49_2 C44_2 1_555 1_555
H43_2 C49_2 1_555 1_555
C54_2 N9_4 1_555 1_555
H48_2 C54_2 1_555 1_555
C59_2 C44_2 1_555 1_555
C64_2 C59_2 1_555 1_555
C69_2 C64_2 1_555 1_555
C79_2 C74_2 1_555 1_555
C84_2 C59_2 1_555 1_555
C89_2 C64_2 1_555 1_555
H53_2 C89_2 1_555 1_555
H58_2 C89_2 1_555 1_555
H63_2 C89_2 1_555 1_555
C94_2 C69_2 1_555 1_555
H68_2 C94_2 1_555 1_555
H78_2 C94_2 1_555 1_555
C99_3 C79_2 1_555 1_555
H83_3 C99_3 1_555 1_555
H88_3 C99_3 1_555 1_555
C104_3 C84_2 1_555 1_555
H98_2 C104_3 1_555 1_555
H103_3 C104_3 1_555 1_555
H108_3 C104_3 1_555 1_555
C10_3 C11_3 1_555 1_555
C49_2 C54_2 1_555 1_555
C69_2 C74_2 1_555 1_555
C79_2 C84_2 1_555 1_555
Cu2_5 Cl2_3 1_555 1_555
N17 Cu2_5 1_555 1_555
H86_2 C102_2 1_555 1_555
H91_2 C102_2 1_555 1_555
H96 C102_2 1_555 1_555
H106_2 C107_2 1_555 1_555
H111_2 C107_2 1_555 1_555
C110 B4 1_555 1_555
C114 C110 1_555 1_555
C119 C114 1_555 1_555
C124 C114 1_555 1_555
H116 C124 1_555 1_555
H121 C124 1_555 1_555
H126 C124 1_555 1_555
C129 C119 1_555 1_555
H131 C129 1_555 1_555
H136 C129 1_555 1_555
H141 C129 1_555 1_555
C132 C119 1_555 1_555
C134 C132 1_555 1_555
Cu7 N8 1_555 1_555
Cl8_3 Cu2_6 1_555 1_555
N8 C38_2 1_555 1_555
N17_2 Cu2_6 1_555 1_555
C38_2 H37_2 1_555 1_555
C43_2 C38_2 1_555 1_555
H42_2 C43_2 1_555 1_555
C48_2 C43_2 1_555 1_555
C53 C48_2 1_555 1_555
H47 C53 1_555 1_555
C58 N8 1_555 1_555
H52 C58 1_555 1_555
C63 C48_2 1_555 1_555
C68 C63 1_555 1_555
C73 C68 1_555 1_555
C78 B4_2 1_555 1_555
C83_2 C78 1_555 1_555
C88_2 C63 1_555 1_555
C93 C68 1_555 1_555
H57 C93 1_555 1_555
H62 C93 1_555 1_555
H67 C93 1_555 1_555
C98 C73 1_555 1_555
H72 C98 1_555 1_555
H77 C98 1_555 1_555
C110_2 B4_2 1_555 1_555
C134_2 C132_2 1_555 1_555
C139 C134_2 1_555 1_555
H147 C139 1_555 1_555
C144 N17_2 1_555 1_555
H152 C144 1_555 1_555
C53 C58 1_555 1_555
C73 C78 1_555 1_555
C83_2 C88_2 1_555 1_555
C139 C144 1_555 1_555
Cu7 Cl4_3 1_555 1_555
Cl5_2 Cu7 1_555 1_555
N10_3 Cu7 1_555 1_555
N14_3 Cu7 1_555 1_555
C25_3 N14_3 1_555 1_555
H25_3 C25_3 1_555 1_555
C26_3 C25_3 1_555 1_555
C145_3 N14_3 1_555 1_555
H153_3 C145_3 1_555 1_555
H158_3 C150_3 1_555 1_555
C145_3 C150_3 1_555 1_555
Cu9_3 N13_3 1_555 1_555
C149_3 N13_3 1_555 1_555
H156_3 C149_3 1_555 1_555
C154_3 C149_3 1_555 1_555
H161_3 C154_3 1_555 1_555
C158_4 C156_4 1_555 1_555
C162_3 C158_4 1_555 1_555
C167_3 C162_3 1_555 1_555
C173_3 C162_3 1_555 1_555
H167_3 C173_3 1_555 1_555
H172_3 C173_3 1_555 1_555
H177_3 C173_3 1_555 1_555
C178_3 C167_3 1_555 1_555
H182_3 C178_3 1_555 1_555
H187_3 C178_3 1_555 1_555
C180_4 B2_6 1_555 1_555
C154_3 C156_4 1_555 1_555
C167_3 C180_4 1_555 1_555
Cu9_3 Cl6_2 1_555 1_555
N11_2 Cu9_3 1_555 1_555
B4_3 C77_2 1_555 1_555
N11_2 C38_3 1_555 1_555
C37_2 N10_3 1_555 1_555
C38_3 H37_3 1_555 1_555
H36_3 C37_2 1_555 1_555
C42_2 C37_2 1_555 1_555
C43_3 C38_3 1_555 1_555
H41_2 C42_2 1_555 1_555
H42_3 C43_3 1_555 1_555
C47_2 C42_2 1_555 1_555
C48_3 C43_3 1_555 1_555
C52_2 C47_2 1_555 1_555
C53_2 C48_3 1_555 1_555
H46_2 C52_2 1_555 1_555
H47_2 C53_2 1_555 1_555
C57_2 N10_3 1_555 1_555
C58_2 N11_2 1_555 1_555
H51_2 C57_2 1_555 1_555
H52_2 C58_2 1_555 1_555
C62_2 C47_2 1_555 1_555
C63_2 C48_3 1_555 1_555
C67_2 C62_2 1_555 1_555
C68_2 C63_2 1_555 1_555
C72_2 C67_2 1_555 1_555
C73_2 C68_2 1_555 1_555
C77_2 C72_2 1_555 1_555
C78_2 B4_3 1_555 1_555
C82_2 C77_2 1_555 1_555
C83_3 C78_2 1_555 1_555
C87_2 C62_2 1_555 1_555
C88_3 C63_2 1_555 1_555
C92_2 C67_2 1_555 1_555
C93_2 C68_2 1_555 1_555
H56_2 C92_2 1_555 1_555
H57_2 C93_2 1_555 1_555
H61_2 C92_2 1_555 1_555
H62_2 C93_2 1_555 1_555
H66_2 C92_2 1_555 1_555
H67_2 C93_2 1_555 1_555
C97_2 C72_2 1_555 1_555
C98_2 C73_2 1_555 1_555
H71_2 C97_2 1_555 1_555
H72_2 C98_2 1_555 1_555
H76 C97_2 1_555 1_555
H77_2 C98_2 1_555 1_555
H81_2 C97_2 1_555 1_555
H82_2 C98_2 1_555 1_555
C102_3 C82_2 1_555 1_555
C103_2 C83_3 1_555 1_555
H86_3 C102_3 1_555 1_555
H87_2 C103_2 1_555 1_555
H91_3 C102_3 1_555 1_555
H92_2 C103_2 1_555 1_555
H96_2 C102_3 1_555 1_555
H97_2 C103_2 1_555 1_555
C107_3 C87_2 1_555 1_555
C108_2 C88_3 1_555 1_555
H101_2 C107_3 1_555 1_555
H102_3 C108_2 1_555 1_555
H106_3 C107_3 1_555 1_555
H107_2 C108_2 1_555 1_555
H111_3 C107_3 1_555 1_555
H112_2 C108_2 1_555 1_555
C110_3 B4_3 1_555 1_555
C114_2 C110_3 1_555 1_555
C115 C110_3 1_555 1_555
C119_2 C114_2 1_555 1_555
C120 C115 1_555 1_555
C124_2 C114_2 1_555 1_555
C125 C115 1_555 1_555
H116_2 C124_2 1_555 1_555
H117 C125 1_555 1_555
H121_2 C124_2 1_555 1_555
H122 C125 1_555 1_555
H126_2 C124_2 1_555 1_555
H127 C125 1_555 1_555
C130 C120 1_555 1_555
H132 C130 1_555 1_555
H137 C130 1_555 1_555
H142 C130 1_555 1_555
C132_3 C119_2 1_555 1_555
C52_2 C57_2 1_555 1_555
C53_2 C58_2 1_555 1_555
C73_2 C78_2 1_555 1_555
C82_2 C87_2 1_555 1_555
C83_3 C88_3 1_555 1_555
C120 C132_3 1_555 1_555
Cu2_7 Cl2_4 1_555 1_555
N3_3 Cu2_7 1_555 1_555
H11_3 C14_3 1_555 1_555
H12_3 C14_3 1_555 1_555
H13_3 C14_3 1_555 1_555
H15_3 C15_3 1_555 1_555
H16_3 C15_3 1_555 1_555
C16_4 B1_4 1_555 1_555
C17_2 C16_4 1_555 1_555
C18_2 C17_2 1_555 1_555
C19_2 C17_2 1_555 1_555
H17_2 C19_2 1_555 1_555
H18_2 C19_2 1_555 1_555
H19_2 C19_2 1_555 1_555
C20_2 C18_2 1_555 1_555
H20_2 C20_2 1_555 1_555
H21_2 C20_2 1_555 1_555
H22_2 C20_2 1_555 1_555
C21_4 C18_2 1_555 1_555
C22_3 C21_4 1_555 1_555
B4_4 C77_3 1_555 1_555
N17_3 Cu2_7 1_555 1_555
C37_3 N7_2 1_555 1_555
C42_3 C37_3 1_555 1_555
H41_3 C42_3 1_555 1_555
C47_3 C42_3 1_555 1_555
C52_3 C47_3 1_555 1_555
H46_3 C52_3 1_555 1_555
C57_3 N7_2 1_555 1_555
H51_3 C57_3 1_555 1_555
C62_3 C47_3 1_555 1_555
C67_3 C62_3 1_555 1_555
C72_3 C67_3 1_555 1_555
C77_3 C72_3 1_555 1_555
C82_3 C77_3 1_555 1_555
C87_3 C62_3 1_555 1_555
C92_3 C67_3 1_555 1_555
H56_3 C92_3 1_555 1_555
H61_3 C92_3 1_555 1_555
H66_3 C92_3 1_555 1_555
C97_3 C72_3 1_555 1_555
H71_3 C97_3 1_555 1_555
H76_2 C97_3 1_555 1_555
C110_4 B4_4 1_555 1_555
C134_3 C132_4 1_555 1_555
C138 C134_3 1_555 1_555
H146 C138 1_555 1_555
C143 N17_3 1_555 1_555
H151 C143 1_555 1_555
C52_3 C57_3 1_555 1_555
C82_3 C87_3 1_555 1_555
C138 C143 1_555 1_555
Cu2_8 Cl2_5 1_555 1_555
N3_4 Cu2_8 1_555 1_555
C23_2 C22_4 1_555 1_555
H23_2 C23_2 1_555 1_555
C24_2 N3_4 1_555 1_555
H24_2 C24_2 1_555 1_555
Cl8_4 Cu2_8 1_555 1_555
N16_3 Cu2_8 1_555 1_555
N17_4 Cu2_8 1_555 1_555
H47_3 C53_3 1_555 1_555
H52_3 C58_3 1_555 1_555
C68_3 C63_3 1_555 1_555
C73_3 C68_3 1_555 1_555
C78_3 B4_5 1_555 1_555
C93_3 C68_3 1_555 1_555
H57_3 C93_3 1_555 1_555
H62_3 C93_3 1_555 1_555
H67_3 C93_3 1_555 1_555
C98_3 C73_3 1_555 1_555
H72_3 C98_3 1_555 1_555
H77_3 C98_3 1_555 1_555
H82_3 C98_3 1_555 1_555
C110_5 B4_5 1_555 1_555
C114_3 C110_5 1_555 1_555
C115_2 C110_5 1_555 1_555
C119_3 C114_3 1_555 1_555
C120_2 C115_2 1_555 1_555
C124_3 C114_3 1_555 1_555
C125_2 C115_2 1_555 1_555
H116_3 C124_3 1_555 1_555
H117_2 C125_2 1_555 1_555
H121_3 C124_3 1_555 1_555
H122_2 C125_2 1_555 1_555
H126_3 C124_3 1_555 1_555
H127_2 C125_2 1_555 1_555
C129_2 C119_3 1_555 1_555
C130_2 C120_2 1_555 1_555
H128_2 C126_2 1_555 1_555
H130_3 C128_3 1_555 1_555
H131_2 C129_2 1_555 1_555
H132_2 C130_2 1_555 1_555
H136_3 C129_2 1_555 1_555
H137_2 C130_2 1_555 1_555
H138_2 C126_2 1_555 1_555
H140_3 C128_3 1_555 1_555
H141_2 C129_2 1_555 1_555
H142_2 C130_2 1_555 1_555
C132_5 C119_3 1_555 1_555
C134_4 C132_5 1_555 1_555
C135 C22_4 1_555 1_555
C136_2 C133_3 1_555 1_555
C137_2 C133_3 1_555 1_555
C138_2 C134_4 1_555 1_555
C139_2 C134_4 1_555 1_555
H143 C135 1_555 1_555
H144_2 C136_2 1_555 1_555
H145_2 C137_2 1_555 1_555
H146_2 C138_2 1_555 1_555
H147_2 C139_2 1_555 1_555
C140 N3_4 1_555 1_555
C141_2 N16_3 1_555 1_555
C142_2 N16_3 1_555 1_555
C143_2 N17_4 1_555 1_555
C144_2 N17_4 1_555 1_555
H148 C140 1_555 1_555
H149_2 C141_2 1_555 1_555
H150_2 C142_2 1_555 1_555
H151_2 C143_2 1_555 1_555
H152_2 C144_2 1_555 1_555
C23_2 C24_2 1_555 1_555
C53_3 C58_3 1_555 1_555
C73_3 C78_3 1_555 1_555
C120_2 C132_5 1_555 1_555
C135 C140 1_555 1_555
C136_2 C141_2 1_555 1_555
C137_2 C142_2 1_555 1_555
C138_2 C143_2 1_555 1_555
C139_2 C144_2 1_555 1_555
N3_5 Cu2_9 1_555 1_555
C16_5 B1_5 1_555 1_555
C22_5 C21_5 1_555 1_555
Cl8_5 Cu2_9 1_555 1_555
N4 C34_3 1_555 1_555
N17_5 Cu2_9 1_555 1_555
C39_3 C34_3 1_555 1_555
H38_3 C39_3 1_555 1_555
C44_3 C39_3 1_555 1_555
C49_3 C44_3 1_555 1_555
H43_3 C49_3 1_555 1_555
C54_3 N4 1_555 1_555
H48_3 C54_3 1_555 1_555
C59_3 C44_3 1_555 1_555
C64_3 C59_3 1_555 1_555
C69_3 C64_3 1_555 1_555
C74_3 B1_5 1_555 1_555
C79_3 C74_3 1_555 1_555
C84_3 C59_3 1_555 1_555
C89_3 C64_3 1_555 1_555
H53_3 C89_3 1_555 1_555
H58_3 C89_3 1_555 1_555
H63_3 C89_3 1_555 1_555
C94_3 C69_3 1_555 1_555
H68_3 C94_3 1_555 1_555
H73_2 C94_3 1_555 1_555
H87_3 C103_3 1_555 1_555
H92_3 C103_3 1_555 1_555
H97_3 C103_3 1_555 1_555
H107_3 C108_3 1_555 1_555
H112_3 C108_3 1_555 1_555
C110_6 B4_6 1_555 1_555
C115_3 C110_6 1_555 1_555
C120_3 C115_3 1_555 1_555
C125_3 C115_3 1_555 1_555
H117_3 C125_3 1_555 1_555
H122_3 C125_3 1_555 1_555
H127_3 C125_3 1_555 1_555
C130_3 C120_3 1_555 1_555
H132_3 C130_3 1_555 1_555
H137_3 C130_3 1_555 1_555
H142_3 C130_3 1_555 1_555
C134_5 C132_6 1_555 1_555
C135_2 C22_5 1_555 1_555
H143_2 C135_2 1_555 1_555
C140_2 N3_5 1_555 1_555
H148_2 C140_2 1_555 1_555
C49_3 C54_3 1_555 1_555
C69_3 C74_3 1_555 1_555
C79_3 C84_3 1_555 1_555
C120_3 C132_6 1_555 1_555
C135_2 C140_2 1_555 1_555
Cu2_10 Cl2_6 1_555 1_555
B1_6 C9_3 1_555 1_555
N3_6 Cu2_10 1_555 1_555
H3_3 C4_3 1_555 1_555
H4_3 C5_3 1_555 1_555
C7_3 C6_3 1_555 1_555
C8_3 C7_3 1_555 1_555
C9_3 C8_3 1_555 1_555
C12_3 C7_3 1_555 1_555
H5_3 C12_3 1_555 1_555
H6_3 C12_3 1_555 1_555
H7_3 C12_3 1_555 1_555
C13_3 C8_3 1_555 1_555
H8_3 C13_3 1_555 1_555
H9_3 C13_3 1_555 1_555
H10_3 C13_3 1_555 1_555
C16_6 B1_6 1_555 1_555
C17_3 C16_6 1_555 1_555
C18_3 C17_3 1_555 1_555
C19_3 C17_3 1_555 1_555
H17_3 C19_3 1_555 1_555
H18_3 C19_3 1_555 1_555
H19_3 C19_3 1_555 1_555
C20_3 C18_3 1_555 1_555
H20_3 C20_3 1_555 1_555
H21_3 C20_3 1_555 1_555
H22_3 C20_3 1_555 1_555
C21_6 C18_3 1_555 1_555
C22_6 C21_6 1_555 1_555
C23_3 C22_6 1_555 1_555
H23_3 C23_3 1_555 1_555
C24_3 N3_6 1_555 1_555
H24_3 C24_3 1_555 1_555
Cl8_6 Cu2_10 1_555 1_555
N16_4 Cu2_10 1_555 1_555
N17_6 Cu2_10 1_555 1_555
C111_3 C16_6 1_555 1_555
C116_3 C21_6 1_555 1_555
C121_3 C111_3 1_555 1_555
H113_3 C121_3 1_555 1_555
H118_3 C121_3 1_555 1_555
H123_3 C121_3 1_555 1_555
C126_3 C116_3 1_555 1_555
H128_3 C126_3 1_555 1_555
H129_3 C127_3 1_555 1_555
H131_3 C129_3 1_555 1_555
H133_3 C126_3 1_555 1_555
H138_3 C126_3 1_555 1_555
H139_3 C127_3 1_555 1_555
H141_3 C129_3 1_555 1_555
C135_3 C22_6 1_555 1_555
C136_3 C133_4 1_555 1_555
C137_3 C133_4 1_555 1_555
C138_3 C134_6 1_555 1_555
C139_3 C134_6 1_555 1_555
H143_3 C135_3 1_555 1_555
H144_3 C136_3 1_555 1_555
H145_3 C137_3 1_555 1_555
H146_3 C138_3 1_555 1_555
H147_3 C139_3 1_555 1_555
C140_3 N3_6 1_555 1_555
C141_3 N16_4 1_555 1_555
C142_3 N16_4 1_555 1_555
C143_3 N17_6 1_555 1_555
C144_3 N17_6 1_555 1_555
H148_3 C140_3 1_555 1_555
H149_3 C141_3 1_555 1_555
H150_3 C142_3 1_555 1_555
H151_3 C143_3 1_555 1_555
H152_3 C144_3 1_555 1_555
C4_3 C5_3 1_555 1_555
C23_3 C24_3 1_555 1_555
C111_3 C116_3 1_555 1_555
C135_3 C140_3 1_555 1_555
C136_3 C141_3 1_555 1_555
C137_3 C142_3 1_555 1_555
C138_3 C143_3 1_555 1_555
C139_3 C144_3 1_555 1_555

#END
