
###############################################################################
#
# This file contains modified crystal structure data generated from the
# MOF subset of the Cambridge Structural Database (CSD) v543 
# hosted by the Cambridge Crystallographic Data Centre (CCDC).
#
# This work is licensed under the Creative Commons
# Attribution-NonCommercial-ShareAlike 4.0 International License.
# To view a copy of this license, visit
# http://creativecommons.org/licenses/by-nc-sa/4.0/
# or send a letter to
# Creative Commons, PO Box 1866, Mountain View, CA 94042, USA.
#
# CIF created using the CSD Python API on 29 September 2022
# The structure has been converted into the P1 space group
# The structure has a 3D framework
# The original CSD entry SOBZIT is in the rhombohedral crystal system
# The original CSD entry SOBZIT is in a Sohncke space group
# The framework has been calculated to contain at least 10.0% void space
# The void calculation uses a probe of radius 1.32A, grid spacing 0.4
#
###############################################################################

data_SOBZIT
_chemical_formula_moiety         '(C567 H576 B22 Cl30 Co21 N45)n'
_symmetry_cell_setting           triclinic
_symmetry_space_group_name_H-M   'P 1'
_symmetry_Int_Tables_number      1
_space_group_name_Hall           'P 1'
loop_
_symmetry_equiv_pos_site_id
_symmetry_equiv_pos_as_xyz
1 x,y,z
_cell_length_a                   17.674(3)
_cell_length_b                   17.674(3)
_cell_length_c                   48.066(10)
_cell_angle_alpha                90
_cell_angle_beta                 90
_cell_angle_gamma                120
_cell_volume                     13002.8
loop_
_atom_site_label
_atom_site_type_symbol
_atom_site_fract_x
_atom_site_fract_y
_atom_site_fract_z
Co5 Co 0.05722(5) 0.72392(5) 0.8333
Cl4 Cl 0.10101(17) 0.64707(11) 0.86464(4)
N10 N 0.0525(3) 0.6406(4) 0.80264(10)
N14 N 0.1731(3) 0.8398(3) 0.8333
H35 H 0.0535 0.8144 0.8896
Co4 Co 0.72392(5) 0.05722(5) 0.1667
H34 H 0.8144 0.0535 0.1104
N12 N 0.8398(3) 0.1731(3) 0.1667
C146 C 0.9169(3) 0.1756(5) 0.16590(12)
C147 C 0.8423(5) 0.2502(3) 0.16743(12)
H154 H 0.7897 0.2503 0.1676
H155 H 0.9170 0.1230 0.1657
C151 C 0.9957(3) 0.2523(4) 0.16539(12)
C152 C 0.9190(4) 0.3290(3) 0.16794(12)
H159 H 0.9174 0.3807 0.1691
C155 C 0.9982(4) 0.3315(4) 0.1667
H165 H 0.9917 0.3942 0.1224
Cl1 Cl 0.64707(11) 0.10101(17) 0.13536(4)
N9 N 0.6406(4) 0.0525(5) 0.19736(10)
C146_2 C 0.1756(5) 0.9169(3) 0.83410(12)
C147_2 C 0.2502(3) 0.8423(5) 0.83257(12)
H154_2 H 0.2503 0.7897 0.8324
H155_2 H 0.1230 0.9170 0.8343
C151_2 C 0.2523(4) 0.9957(3) 0.83461(12)
C152_2 C 0.3290(3) 0.9190(4) 0.83206(12)
H159_2 H 0.3807 0.9174 0.8309
C155_2 C 0.3315(4) 0.9982(4) 0.8333
H165_2 H 0.3942 0.9917 0.8776
Co4_2 Co 0.39059(5) 0.39055(5) 0.5000
N5 N 0.3859(3) 0.3072(4) 0.46930(10)
C35 C 0.4351(5) 0.3298(8) 0.44548(14)
C36 C 0.6632(8) 0.1017(5) 0.22118(14)
H34_2 H 0.4811 0.3868 0.4437
H35_2 H 0.7202 0.1477 0.2229
C40 C 0.4202(4) 0.2739(6) 0.42451(14)
C41 C 0.6073(6) 0.0868(4) 0.24215(14)
H39 H 0.4557 0.2931 0.4088
H40 H 0.6265 0.1223 0.2578
C45 C 0.3519(3) 0.1871(4) 0.42595(12)
C46 C 0.5205(4) 0.0185(3) 0.24071(12)
C50 C 0.3043(4) 0.1641(6) 0.44980(11)
H44 H 0.2584 0.1070 0.4518
C55 C 0.3224(4) 0.2234(6) 0.47110(13)
H49 H 0.2893 0.2045 0.4873
C60 C 0.3324(3) 0.1245(4) 0.40306(11)
C65 C 0.2550(3) 0.0965(4) 0.38695(10)
C70 C 0.2355(3) 0.0376(4) 0.36492(11)
C75 C 0.2948(3) 0.0070(4) 0.35806(11)
C80 C 0.3700(3) 0.0364(4) 0.37440(12)
C81 C 0.3698(4) 0.0366(3) 0.29226(12)
C85 C 0.3884(3) 0.0925(5) 0.39708(11)
C86 C 0.4259(5) 0.0550(3) 0.26958(11)
C90 C 0.1963(4) 0.1352(6) 0.39189(12)
H54 H 0.1473 0.1086 0.3794
H59 H 0.2287 0.1971 0.3885
H64 H 0.1758 0.1245 0.4107
C95 C 0.1552(4) 0.0120(6) 0.34808(13)
H69 H 0.1240 0.0385 0.3558
H79 H 0.1715 0.0314 0.3292
C100 C 0.4344(4) 0.0032(6) 0.36946(13)
C101 C 0.3366(6) 0.1010(4) 0.29720(13)
H84 H 0.4814 0.0300 0.3826
H85 H 0.3634 0.1480 0.2840
H89 H 0.4574 0.0180 0.3509
H90 H 0.3514 0.1240 0.3157
H95 H 0.2743 0.0712 0.2949
C105 C 0.4662(4) 0.1164(6) 0.41549(12)
C106 C 0.4498(6) 0.1328(4) 0.25117(12)
H99 H 0.4977 0.0891 0.4086
H100 H 0.4225 0.1643 0.2580
H104 H 0.4466 0.0966 0.4341
H105 H 0.4300 0.1132 0.2325
H109 H 0.5038 0.1786 0.4155
H110 H 0.5120 0.1704 0.2511
B2 B 1.0000 1.0000 0.5000
N12_2 N 0.5065(3) 0.5064(3) 0.5000
C146_3 C 0.5836(3) 0.5089(5) 0.49923(12)
C147_3 C 0.5089(5) 0.5836(3) 0.50077(12)
H154_3 H 0.4563 0.5837 0.5010
H155_3 H 0.5837 0.4563 0.4990
C151_3 C 0.6624(3) 0.5856(4) 0.49872(12)
C152_3 C 0.5856(4) 0.6624(3) 0.50128(12)
H159_3 H 0.5840 0.7141 0.5025
H160 H 0.7141 0.5840 0.4975
C155_3 C 0.6649(4) 0.6648(4) 0.5000
C157 C 0.7493(4) 0.7492(4) 0.5000
C160 C 0.7684(3) 0.8080(4) 0.47789(10)
C161 C 0.8080(4) 0.7684(3) 0.52211(10)
C165 C 0.8474(3) 0.8892(4) 0.47868(10)
C166 C 0.8892(4) 0.8474(3) 0.52132(10)
C170 C 0.7842(4) 0.7087(3) 0.54704(11)
C171 C 0.7087(3) 0.7842(4) 0.45296(11)
H164 H 0.7275 0.6584 0.5443
H165_3 H 0.6584 0.7275 0.4557
H169 H 0.7834 0.7394 0.5634
H170 H 0.7394 0.7834 0.4366
H174 H 0.8267 0.6904 0.5493
H175 H 0.6904 0.8267 0.4507
C175 C 0.9490(4) 0.8641(3) 0.54571(12)
C176 C 0.8641(3) 0.9490(4) 0.45429(12)
H179 H 0.9237 0.8144 0.5579
H180 H 0.8144 0.9237 0.4421
H184 H 0.9571 0.9147 0.5557
H185 H 0.9147 0.9571 0.4443
H188 H 0.8693 0.9954 0.5392
H192 H 0.9954 0.8693 0.4608
C179 C 0.9098(4) 0.9097(4) 0.5000
Cl1_2 Cl 0.31374(11) 0.43434(17) 0.46869(4)
Cl3 Cl 0.43434(17) 0.31374(21) 0.53131(4)
N9_2 N 0.3072(4) 0.3859(5) 0.53070(10)
C35_2 C 0.1017(5) 0.6632(8) 0.77882(14)
C36_2 C 0.3298(8) 0.4351(5) 0.55452(14)
H34_3 H 0.1477 0.7202 0.7771
H35_3 H 0.3868 0.4811 0.5563
C40_2 C 0.0868(4) 0.6073(6) 0.75785(14)
C41_2 C 0.2739(6) 0.4202(4) 0.57549(14)
H39_2 H 0.1223 0.6265 0.7422
H40_2 H 0.2931 0.4557 0.5912
C45_2 C 0.0185(3) 0.5205(4) 0.75929(12)
C46_2 C 0.1871(4) 0.3519(3) 0.57405(12)
C51 C 0.1641(6) 0.3043(4) 0.55020(11)
H45 H 0.1070 0.2584 0.5482
C56 C 0.2234(6) 0.3224(4) 0.52890(13)
H50 H 0.2045 0.2893 0.5127
C61 C 0.1245(4) 0.3324(3) 0.59694(11)
C66 C 0.0965(4) 0.2550(3) 0.61305(10)
C71 C 0.0376(4) 0.2355(3) 0.63508(11)
C76 C 0.0070(4) 0.2948(3) 0.64194(11)
C80_2 C 0.0366(3) 0.3698(4) 0.70774(12)
C81_2 C 0.0364(4) 0.3700(3) 0.62560(12)
C85_2 C 0.0550(3) 0.4259(5) 0.73042(11)
C86_2 C 0.0925(5) 0.3884(3) 0.60292(11)
C91 C 0.1352(6) 0.1963(4) 0.60811(12)
H55 H 0.1086 0.1473 0.6206
H60 H 0.1971 0.2287 0.6115
H65 H 0.1245 0.1758 0.5893
C96 C 0.0120(6) 0.1552(4) 0.65192(13)
H70 H 0.0385 0.1240 0.6442
H80 H 0.0314 0.1715 0.6708
C100_2 C 0.1010(4) 0.3366(6) 0.70280(13)
C101_2 C 0.0032(6) 0.4344(4) 0.63054(13)
H84_2 H 0.1480 0.3634 0.7160
H85_2 H 0.0300 0.4814 0.6174
H89_2 H 0.1240 0.3514 0.6843
H90_2 H 0.0180 0.4574 0.6491
H94 H 0.0712 0.2743 0.7051
C105_2 C 0.1328(4) 0.4498(6) 0.74883(12)
C106_2 C 0.1164(6) 0.4662(4) 0.58451(12)
H99_2 H 0.1643 0.4225 0.7420
H100_2 H 0.0891 0.4977 0.5914
H104_2 H 0.1132 0.4300 0.7675
H105_2 H 0.0966 0.4466 0.5659
H109_2 H 0.1704 0.5120 0.7489
H110_2 H 0.1786 0.5038 0.5845
Co2 Co -0.0000 0.0000 0.0000
Cl2 Cl -0.0000 0.0000 0.05133(5)
B3 B 0.6063(5) 0.6063(5) 0.0000
N5_2 N 0.7192(3) 0.9739(4) 0.13597(10)
N16 N 0.1148(3) 0.1148(3) 0.0000
C35_3 C 0.7684(5) 0.9965(8) 0.11215(14)
C40_3 C 0.7535(4) 0.9406(6) 0.09118(14)
H39_3 H 0.7890 0.9598 0.0755
C45_3 C 0.6852(3) 0.8538(4) 0.09262(12)
C50_2 C 0.6376(4) 0.8308(6) 0.11647(11)
H44_2 H 0.5917 0.7737 0.1185
C55_2 C 0.6557(4) 0.8901(6) 0.13777(13)
H49_2 H 0.6226 0.8712 0.1540
C60_2 C 0.6657(3) 0.7912(4) 0.06973(11)
C65_2 C 0.5883(3) 0.7632(4) 0.05362(10)
C70_2 C 0.5688(3) 0.7043(4) 0.03159(11)
C75_2 C 0.6281(3) 0.6737(4) 0.02473(11)
C80_3 C 0.7033(3) 0.7031(4) 0.04107(12)
C85_3 C 0.7217(3) 0.7592(5) 0.06375(11)
C90_2 C 0.5296(4) 0.8019(6) 0.05856(12)
H54_2 H 0.4806 0.7753 0.0461
H59_2 H 0.5620 0.8638 0.0552
H64_2 H 0.5091 0.7912 0.0774
C95_2 C 0.4885(4) 0.6787(6) 0.01475(13)
H69_2 H 0.4573 0.7052 0.0225
H74 H 0.4519 0.6163 0.0150
H80_2 H 0.6981 0.5048 0.0041
C100_3 C 0.7677(4) 0.6699(6) 0.03613(13)
H84_3 H 0.8147 0.6967 0.0493
H89_3 H 0.7907 0.6847 0.0176
H94_2 H 0.7379 0.6076 0.0384
C105_3 C 0.7995(4) 0.7831(6) 0.08216(12)
H99_3 H 0.8310 0.7558 0.0753
H104_3 H 0.7799 0.7633 0.1008
H109_3 H 0.8371 0.8453 0.0822
C109 C 0.5170(4) 0.5170(4) 0.0000
C112 C 0.4906(3) 0.4614(4) 0.02334(11)
C117 C 0.4109(3) 0.3813(4) 0.02356(11)
C122 C 0.5475(4) 0.4822(6) 0.04857(12)
H114 H 0.5999 0.5373 0.0460
H119 H 0.5623 0.4373 0.0513
H124 H 0.5167 0.4852 0.0646
C127 C 0.3861(4) 0.3226(6) 0.04887(13)
H129 H 0.3299 0.2717 0.0459
H134 H 0.3837 0.3537 0.0649
H139 H 0.4290 0.3052 0.0518
C131 C 0.3579(4) 0.3579(4) 0.0000
C133 C 0.2725(4) 0.2725(4) 0.0000
C136 C 0.2006(4) 0.2633(6) 0.01402(13)
H144 H 0.2039 0.3106 0.0236
C141 C 0.1232(3) 0.1841(4) 0.01403(12)
H149 H 0.0758 0.1788 0.0240
Cl3_2 Cl 0.76768(17) 0.98040(21) 0.19797(4)
B3_2 B 0.2730(5) 0.9396(5) 0.3333
C51_2 C 0.4975(6) 0.9709(4) 0.21686(11)
H45_2 H 0.4404 0.9250 0.2148
C56_2 C 0.5568(6) 0.9890(4) 0.19556(13)
H50_2 H 0.5379 0.9559 0.1793
C61_2 C 0.4579(4) 0.9990(3) 0.26360(11)
C66_2 C 0.4299(4) 0.9216(3) 0.27971(10)
C71_2 C 0.3710(4) 0.9021(3) 0.30174(11)
C76_2 C 0.3404(4) 0.9614(3) 0.30860(11)
C91_2 C 0.4686(6) 0.8629(4) 0.27477(12)
H55_2 H 0.4420 0.8139 0.2872
H60_2 H 0.5305 0.8953 0.2781
H65_2 H 0.4579 0.8424 0.2559
C96_2 C 0.3454(6) 0.8218(4) 0.31858(13)
H70_2 H 0.3719 0.7906 0.3108
H74_2 H 0.1186 0.9496 0.3483
H75 H 0.2830 0.7852 0.3183
H80_3 H 0.3648 0.8381 0.3374
H94_3 H 0.4046 0.9409 0.3717
C109_2 C 0.1837(4) 0.8503(4) 0.3333
C112_2 C 0.1573(3) 0.7947(4) 0.35667(11)
C113 C 0.1281(4) 0.8239(3) 0.30999(11)
C117_2 C 0.0776(3) 0.7146(4) 0.35689(11)
C118 C 0.0480(4) 0.7442(3) 0.30977(11)
C122_2 C 0.2142(4) 0.8155(6) 0.38190(12)
C123 C 0.1489(6) 0.8808(4) 0.28476(12)
H114_2 H 0.2666 0.8706 0.3793
H115 H 0.2040 0.9332 0.2873
H119_2 H 0.2290 0.7706 0.3846
H120 H 0.1040 0.8956 0.2820
H124_2 H 0.1834 0.8185 0.3979
H125 H 0.1519 0.8500 0.2687
C127_2 C 0.0528(4) 0.6559(6) 0.38220(13)
H134_2 H 0.0504 0.6870 0.3982
H135 H 0.0204 0.7170 0.2684
H139_2 H 0.0957 0.6385 0.3851
C131_2 C 0.0246(4) 0.6912(4) 0.3333
Co2_2 Co -0.0000 0.0000 1.0000
Cl5 Cl 0.98040(11) 0.76768(17) 0.80203(4)
Cl8 Cl -0.0000 0.0000 0.94867(5)
B3_3 B 0.6063(5) 0.6063(5) 1.0000
N6 N 0.9739(4) 0.7192(3) 0.86403(10)
N16_2 N 0.1148(3) 0.1148(3) 1.0000
C36_3 C 0.9965(8) 0.7684(5) 0.88785(14)
C41_3 C 0.9406(6) 0.7535(4) 0.90882(14)
H40_3 H 0.9598 0.7890 0.9245
C46_3 C 0.8538(4) 0.6852(3) 0.90738(12)
C51_3 C 0.8308(6) 0.6376(4) 0.88353(11)
H45_3 H 0.7737 0.5917 0.8815
C56_3 C 0.8901(6) 0.6557(4) 0.86223(13)
H50_3 H 0.8712 0.6226 0.8460
C61_3 C 0.7912(4) 0.6657(3) 0.93027(11)
C66_3 C 0.7632(4) 0.5883(3) 0.94638(10)
C71_3 C 0.7043(4) 0.5688(3) 0.96841(11)
C76_3 C 0.6737(4) 0.6281(3) 0.97527(11)
C81_3 C 0.7031(4) 0.7033(3) 0.95893(12)
C86_3 C 0.7592(5) 0.7217(3) 0.93625(11)
C91_3 C 0.8019(6) 0.5296(4) 0.94144(12)
H55_3 H 0.7753 0.4806 0.9539
H60_3 H 0.8638 0.5620 0.9448
H65_3 H 0.7912 0.5091 0.9226
C96_3 C 0.6787(6) 0.4885(4) 0.98525(13)
H70_3 H 0.7052 0.4573 0.9775
H75_2 H 0.6163 0.4519 0.9850
H79_2 H 0.5048 0.6981 0.9959
C101_3 C 0.6699(6) 0.7677(4) 0.96387(13)
H85_3 H 0.6967 0.8147 0.9507
H90_3 H 0.6847 0.7907 0.9824
H95_2 H 0.6076 0.7379 0.9616
C106_3 C 0.7831(6) 0.7995(4) 0.91784(12)
H100_3 H 0.7558 0.8310 0.9247
H105_3 H 0.7633 0.7799 0.8992
H110_3 H 0.8453 0.8371 0.9178
C109_3 C 0.5170(4) 0.5170(4) 1.0000
C113_2 C 0.4614(4) 0.4906(3) 0.97666(11)
C118_2 C 0.3813(4) 0.4109(3) 0.97644(11)
C123_2 C 0.4822(6) 0.5475(4) 0.95143(12)
H115_2 H 0.5373 0.5999 0.9540
H120_2 H 0.4373 0.5623 0.9487
H125_2 H 0.4852 0.5167 0.9354
C128 C 0.3226(6) 0.3861(4) 0.95113(13)
H130 H 0.2717 0.3299 0.9541
H135_2 H 0.3537 0.3837 0.9351
H140 H 0.3052 0.4290 0.9482
C131_3 C 0.3579(4) 0.3579(4) 1.0000
C133_2 C 0.2725(4) 0.2725(4) 1.0000
C137 C 0.2633(6) 0.2006(4) 0.98598(13)
H145 H 0.3106 0.2039 0.9764
C142 C 0.1841(4) 0.1232(3) 0.98597(12)
H150 H 0.1788 0.0758 0.9760
B3_4 B 0.9396(5) 0.2730(5) 0.6667
C50_3 C 0.9709(4) 0.4975(6) 0.78314(11)
H44_3 H 0.9250 0.4404 0.7852
C55_3 C 0.9890(4) 0.5568(6) 0.80444(13)
H49_3 H 0.9559 0.5379 0.8207
C60_3 C 0.9990(3) 0.4579(4) 0.73640(11)
C65_3 C 0.9216(3) 0.4299(4) 0.72029(10)
C70_3 C 0.9021(3) 0.3710(4) 0.69826(11)
C75_3 C 0.9614(3) 0.3404(4) 0.69140(11)
C90_3 C 0.8629(4) 0.4686(6) 0.72523(12)
H54_3 H 0.8139 0.4420 0.7128
H59_3 H 0.8953 0.5305 0.7219
H64_3 H 0.8424 0.4579 0.7441
C95_3 C 0.8218(4) 0.3454(6) 0.68142(13)
H69_3 H 0.7906 0.3719 0.6892
H74_3 H 0.7852 0.2830 0.6817
H75_3 H 0.9496 0.1186 0.6517
H79_3 H 0.8381 0.3648 0.6626
H95_3 H 0.9409 0.4046 0.6283
C109_4 C 0.8503(4) 0.1837(4) 0.6667
C112_3 C 0.8239(3) 0.1281(4) 0.69001(11)
C113_3 C 0.7947(4) 0.1573(3) 0.64333(11)
C117_3 C 0.7442(3) 0.0480(4) 0.69023(11)
C118_3 C 0.7146(4) 0.0776(3) 0.64311(11)
C122_3 C 0.8808(4) 0.1489(6) 0.71524(12)
C123_3 C 0.8155(6) 0.2142(4) 0.61810(12)
H114_3 H 0.9332 0.2040 0.7127
H115_3 H 0.8706 0.2666 0.6207
H119_3 H 0.8956 0.1040 0.7180
H120_3 H 0.7706 0.2290 0.6154
H124_3 H 0.8500 0.1519 0.7313
H125_3 H 0.8185 0.1834 0.6021
C128_2 C 0.6559(6) 0.0528(4) 0.61780(13)
H134_3 H 0.7170 0.0204 0.7316
H135_3 H 0.6870 0.0504 0.6018
H140_2 H 0.6385 0.0957 0.6149
C131_4 C 0.6912(4) 0.0246(4) 0.6667
Co1 Co 0.3333 0.27608(5) 0.1667
Co2_3 Co -0.0000 1.0000 0.0000
Cl1_3 Cl 0.45394(13) 0.35293(11) 0.13536(4)
Cl2_2 Cl -0.0000 1.0000 0.05133(5)
B1 B 0.0000 0.3937(5) 0.0000
N1 N 0.2547(3) 0.2808(3) 0.13597(10)
N2 N 0.3333 0.1602(3) 0.1667
N3 N 0.0000 0.8852(3) 0.0000
C1 C 0.2281(6) 0.2316(5) 0.11215(14)
H1 H 0.2391 0.1856 0.1104
C2 C 0.1871(5) 0.2465(4) 0.09118(14)
H2 H 0.1708 0.2110 0.0755
C3 C 0.1686(3) 0.3148(3) 0.09262(12)
C4 C 0.1932(4) 0.3624(4) 0.11647(11)
H3 H 0.1820 0.4083 0.1185
C5 C 0.2344(4) 0.3443(4) 0.13777(13)
H4 H 0.2486 0.3774 0.1540
C6 C 0.1255(3) 0.3343(3) 0.06973(11)
C7 C 0.1749(3) 0.4117(3) 0.05362(10)
C8 C 0.1355(3) 0.4312(3) 0.03159(11)
C9 C 0.0456(3) 0.3719(3) 0.02473(11)
C11 C 0.0375(4) 0.2783(3) 0.06375(11)
C12 C 0.2723(4) 0.4704(4) 0.05856(12)
H5 H 0.2947 0.5194 0.0461
H6 H 0.3018 0.4380 0.0552
H7 H 0.2821 0.4909 0.0774
C13 C 0.1902(4) 0.5115(4) 0.01475(13)
H8 H 0.2479 0.5427 0.0225
H9 H 0.1644 0.5481 0.0150
H16 H 0.0082 0.1629 0.0822
C16 C 0.0000 0.4830(4) 0.0000
C21 C 0.0000 0.6421(4) 0.0000
C22 C 0.0000 0.7275(4) 0.0000
C23 C 0.0627(4) 0.7994(4) 0.01402(13)
H23 H 0.1067 0.7961 0.0236
C24 C 0.0609(3) 0.8768(3) 0.01403(12)
H24 H 0.1030 0.9242 0.0240
C25 C 0.2587(4) 0.0831(3) 0.16590(12)
H25 H 0.2060 0.0830 0.1657
C26 C 0.2566(3) 0.0043(3) 0.16539(12)
C27 C 0.3333 0.0018(4) 0.1667
H27 H 0.4025 0.0083 0.1224
Cl3_3 Cl 0.21273(13) 0.23232(17) 0.19797(4)
N9_3 N 0.4120(3) 0.3594(4) 0.19736(10)
C145 C 0.4080(4) 0.1577(5) 0.16743(12)
H153 H 0.4607 0.2103 0.1676
C150 C 0.4101(3) 0.0810(4) 0.16794(12)
H158 H 0.4634 0.0826 0.1691
Co1_2 Co 1.0000 0.60941(5) 0.5000
B1_2 B 0.6667 0.7270(5) 0.3333
B2_2 B 1.0000 0.0000 0.5000
N1_2 N 0.9214(3) 0.6141(3) 0.46930(10)
N2_2 N 1.0000 0.4935(3) 0.5000
C1_2 C 0.8948(6) 0.5649(5) 0.44548(14)
H1_2 H 0.9058 0.5189 0.4437
C2_2 C 0.8538(5) 0.5798(4) 0.42451(14)
H2_2 H 0.8375 0.5443 0.4088
C3_2 C 0.8353(3) 0.6481(3) 0.42595(12)
C4_2 C 0.8599(4) 0.6957(4) 0.44980(11)
H3_2 H 0.8487 0.7416 0.4518
C5_2 C 0.9011(4) 0.6776(4) 0.47110(13)
H4_2 H 0.9153 0.7107 0.4873
C6_2 C 0.7922(3) 0.6676(3) 0.40306(11)
C7_2 C 0.8416(3) 0.7450(3) 0.38695(10)
C8_2 C 0.8022(3) 0.7645(3) 0.36492(11)
C9_2 C 0.7123(3) 0.7052(3) 0.35806(11)
C10 C 0.6665(3) 0.6300(3) 0.37440(12)
C11_2 C 0.7042(4) 0.6116(3) 0.39708(11)
C12_2 C 0.9390(4) 0.8037(4) 0.39189(12)
H5_2 H 0.9614 0.8527 0.3794
H6_2 H 0.9685 0.7713 0.3885
H7_2 H 0.9488 0.8242 0.4107
C13_2 C 0.8569(4) 0.8448(4) 0.34808(13)
H8_2 H 0.9146 0.8760 0.3558
H9_2 H 0.8311 0.8814 0.3483
H10 H 0.8600 0.8285 0.3292
C14 C 0.5689(4) 0.5656(4) 0.36946(13)
H11 H 0.5487 0.5186 0.3826
H12 H 0.5607 0.5426 0.3509
H13 H 0.5364 0.5954 0.3717
C15 C 0.6503(4) 0.5338(4) 0.41549(12)
H14 H 0.5915 0.5023 0.4086
H15 H 0.6501 0.5534 0.4341
H16_2 H 0.6749 0.4962 0.4155
C16_2 C 0.6667 0.8163(4) 0.3333
C17 C 0.6375(3) 0.8427(3) 0.35667(11)
C18 C 0.6371(3) 0.9224(3) 0.35689(11)
C19 C 0.6014(4) 0.7858(4) 0.38190(12)
H17 H 0.6041 0.7334 0.3793
H18 H 0.5417 0.7710 0.3846
H19 H 0.6352 0.8166 0.3979
C20 C 0.6032(4) 0.9472(4) 0.38220(13)
H21 H 0.6367 0.9496 0.3982
H22 H 0.5429 0.9043 0.3851
C21_2 C 0.6667 0.9754(4) 0.3333
C25_2 C 0.9254(4) 0.4164(3) 0.49923(12)
H25_2 H 0.8727 0.4163 0.4990
C26_2 C 0.9233(3) 0.3376(3) 0.49872(12)
H26 H 0.8700 0.2859 0.4975
C27_2 C 1.0000 0.3351(4) 0.5000
C28 C 1.0000 0.2507(4) 0.5000
C33 C 1.0000 0.0902(4) 0.5000
Cl3_4 Cl 0.87939(13) 0.56566(17) 0.53131(4)
C34 C 0.4386(6) 0.3368(8) 0.22118(14)
H33 H 0.4276 0.2798 0.2229
C39 C 0.4796(5) 0.3927(6) 0.24215(14)
H38 H 0.4959 0.3735 0.2578
C44 C 0.4981(3) 0.4795(4) 0.24071(12)
C49 C 0.4735(4) 0.5025(6) 0.21686(11)
H43 H 0.4847 0.5596 0.2148
C54 C 0.4323(4) 0.4432(6) 0.19556(13)
H48 H 0.4181 0.4621 0.1793
C59 C 0.5412(3) 0.5421(4) 0.26360(11)
C64 C 0.4918(3) 0.5701(4) 0.27971(10)
C69 C 0.5312(3) 0.6290(4) 0.30174(11)
C74 C 0.6211(3) 0.6596(4) 0.30860(11)
C79 C 0.6669(3) 0.6302(4) 0.29226(12)
C84 C 0.6292(4) 0.5741(5) 0.26958(11)
C89 C 0.3944(4) 0.5314(6) 0.27477(12)
H53 H 0.3720 0.5580 0.2872
H58 H 0.3649 0.4695 0.2781
H63 H 0.3846 0.5421 0.2559
C94 C 0.4765(4) 0.6546(6) 0.31858(13)
H68 H 0.4188 0.6281 0.3108
H73 H 0.5023 0.7170 0.3183
H78 H 0.4734 0.6352 0.3374
C99 C 0.7645(4) 0.6634(6) 0.29720(13)
H83 H 0.7847 0.6366 0.2840
H88 H 0.7727 0.6486 0.3157
H93 H 0.7970 0.7257 0.2949
C104 C 0.6831(4) 0.5502(6) 0.25117(12)
H98 H 0.7419 0.5775 0.2580
H103 H 0.6833 0.5700 0.2325
H108 H 0.6585 0.4880 0.2511
C111 C 0.6959(3) 0.8719(4) 0.30999(11)
C116 C 0.6963(3) 0.9520(4) 0.30977(11)
C121 C 0.7320(4) 0.8511(6) 0.28476(12)
H113 H 0.7293 0.7960 0.2873
H118 H 0.7917 0.8960 0.2820
H123 H 0.6982 0.8481 0.2687
H133 H 0.6967 0.9796 0.2684
C159 C 0.9603(3) 0.1920(4) 0.52211(10)
C164 C 0.9581(3) 0.1108(4) 0.52132(10)
C169 C 0.9244(3) 0.2158(4) 0.54704(11)
H163 H 0.9308 0.2725 0.5443
H168 H 0.9559 0.2166 0.5634
H173 H 0.8636 0.1733 0.5493
C174 C 0.9150(3) 0.0510(4) 0.54571(12)
H178 H 0.8906 0.0763 0.5579
H183 H 0.9575 0.0429 0.5557
H190 H 0.8740 0.0046 0.4608
Co2_4 Co -0.0000 1.0000 1.0000
B1_3 B 0.0000 0.3937(5) 1.0000
N3_2 N 0.0000 0.8852(3) 1.0000
H10_2 H 0.1933 0.4952 0.9959
C16_3 C 0.0000 0.4830(4) 1.0000
C21_3 C -0.0000 0.6421(4) 1.0000
C22_2 C 0.0000 0.7275(4) 1.0000
Cl8_2 Cl 0.0000 1.0000 0.94867(5)
C79_2 C 0.0002(3) 0.2969(4) 0.95893(12)
C99_2 C 0.0978(4) 0.3301(6) 0.96387(13)
H83_2 H 0.1180 0.3033 0.9507
H88_2 H 0.1060 0.3153 0.9824
H93_2 H 0.1303 0.3924 0.9616
C104_2 C 0.0164(4) 0.2169(6) 0.91784(12)
H98_2 H 0.0752 0.2442 0.9247
H103_2 H 0.0166 0.2367 0.8992
C111_2 C 0.0292(3) 0.5386(4) 0.97666(11)
C116_2 C 0.0296(3) 0.6187(4) 0.97644(11)
C121_2 C 0.0653(4) 0.5178(6) 0.95143(12)
H113_2 H 0.0626 0.4627 0.9540
H118_2 H 0.1250 0.5627 0.9487
H123_2 H 0.0315 0.5148 0.9354
C126 C 0.0635(4) 0.6774(6) 0.95113(13)
H128 H 0.0582 0.7283 0.9541
H133_2 H 0.0300 0.6463 0.9351
H138 H 0.1238 0.6948 0.9482
B2_3 B 0.3333 0.6667 0.1667
H26_2 H 0.2033 0.9526 0.1642
C28_2 C 0.3333 0.9174(4) 0.1667
C29 C 0.3730(3) 0.8983(3) 0.14456(10)
C30 C 0.3752(3) 0.8193(3) 0.14535(10)
C31 C 0.4089(3) 0.9580(3) 0.11963(11)
H28 H 0.3774 0.9273 0.1033
H29 H 0.4697 0.9763 0.1174
C32 C 0.4183(3) 0.8026(3) 0.12096(12)
H30 H 0.4427 0.8523 0.1088
H31 H 0.3758 0.7520 0.1110
H32 H 0.4640 0.7927 0.1275
C33_2 C 0.3333 0.7569(4) 0.1667
Co9 Co 0.94278(5) 0.6667 0.1667
N13 N 0.8269(3) 0.6667 0.1667
C148 C 0.8244(5) 0.7413(4) 0.16590(12)
C149 C 0.7498(3) 0.5920(4) 0.16743(12)
H156 H 0.7497 0.5393 0.1676
H157 H 0.8770 0.7940 0.1657
C153 C 0.7477(4) 0.7434(3) 0.16539(12)
C154 C 0.6710(3) 0.5899(3) 0.16794(12)
H160_2 H 0.0474 0.2507 0.1642
H161 H 0.6193 0.5366 0.1691
H162 H 0.7493 0.7967 0.1642
C156 C 0.6685(4) 0.6667 0.1667
C157_2 C 0.0826(4) 0.4159(4) 0.1667
C158 C 0.5841(4) 0.6667 0.1667
C159_2 C 0.2937(3) 0.8586(4) 0.18877(10)
C160_2 C 0.1017(3) 0.4747(4) 0.14456(10)
C161_2 C 0.1414(4) 0.4350(3) 0.18877(10)
C162 C 0.5253(4) 0.6270(3) 0.14456(10)
C163 C 0.5650(3) 0.7063(3) 0.18877(10)
C164_2 C 0.2915(3) 0.7774(4) 0.18798(10)
C165_2 C 0.1807(3) 0.5559(4) 0.14535(10)
C166_2 C 0.2226(4) 0.5140(3) 0.18798(10)
C167 C 0.4441(4) 0.6248(3) 0.14535(10)
C168 C 0.4860(3) 0.7085(3) 0.18798(10)
C169_2 C 0.2578(3) 0.8824(4) 0.21370(11)
C170_2 C 0.1176(4) 0.3753(3) 0.21370(11)
C171_2 C 0.0420(3) 0.4509(4) 0.11963(11)
C172 C 0.6247(3) 0.7422(3) 0.21370(11)
C173 C 0.5491(4) 0.5911(3) 0.11963(11)
H163_2 H 0.2642 0.9391 0.2109
H164_2 H 0.0609 0.3250 0.2109
H166 H 0.6750 0.7358 0.2109
H167 H 0.6058 0.5975 0.1224
H168_2 H 0.2893 0.8832 0.2300
H169_2 H 0.1168 0.4060 0.2300
H170_2 H 0.0727 0.4501 0.1033
H171 H 0.5940 0.7107 0.2300
H172 H 0.5499 0.6226 0.1033
H173_2 H 0.1970 0.8399 0.2159
H174_2 H 0.1601 0.3570 0.2159
H175_2 H 0.0237 0.4934 0.1174
H176 H 0.6430 0.8030 0.2159
H177 H 0.5066 0.5303 0.1174
C174_2 C 0.2484(3) 0.7176(4) 0.21237(12)
C175_2 C 0.2824(4) 0.5307(3) 0.21237(12)
C176_2 C 0.1974(3) 0.6157(4) 0.12096(12)
C177 C 0.4693(3) 0.7516(3) 0.21237(12)
C178 C 0.3843(4) 0.5817(3) 0.12096(12)
H178_2 H 0.2240 0.7429 0.2245
H179_2 H 0.2571 0.4810 0.2245
H180_2 H 0.1477 0.5904 0.1088
H181 H 0.5190 0.7760 0.2245
H182 H 0.4096 0.5573 0.1088
H183_2 H 0.2909 0.7095 0.2223
H184_2 H 0.2905 0.5813 0.2223
H185_2 H 0.2480 0.6238 0.1110
H186 H 0.4187 0.7091 0.2223
H187 H 0.3762 0.6242 0.1110
H188_2 H 0.2027 0.6620 0.2058
H189 H 0.3380 0.5406 0.2058
H190_2 H 0.2073 0.6713 0.1275
H191 H 0.4594 0.7973 0.2058
H192_2 H 0.3287 0.5360 0.1275
C179_2 C 0.2431(4) 0.5764(4) 0.1667
C180 C 0.4236(4) 0.6667 0.1667
Co3 Co 0.6667 0.94278(5) 0.8333
H33_2 H 0.7609 0.9465 0.8896
Cl6 Cl 0.89899(17) 0.54606(13) 0.13536(4)
N11 N 0.9475(3) 0.5880(3) 0.19736(10)
H36 H 0.9465 0.7609 0.1104
Cl4_2 Cl 0.54606(20) 0.89899(17) 0.86464(4)
N10_2 N 0.5880(5) 0.9475(3) 0.80264(10)
N14_2 N 0.6667(4) 0.8269(3) 0.8333
B2_4 B 0.6667 0.3333 0.8333
H26_3 H 0.9526 0.2033 0.8358
C28_3 C 0.9174(4) 0.3333 0.8333
C29_2 C 0.8983(3) 0.3730(3) 0.85544(10)
C30_2 C 0.8193(3) 0.3752(3) 0.85465(10)
C31_2 C 0.9580(3) 0.4089(3) 0.88037(11)
H28_2 H 0.9273 0.3774 0.8967
H29_2 H 0.9763 0.4697 0.8826
C32_2 C 0.8026(3) 0.4183(3) 0.87904(12)
H30_2 H 0.8523 0.4427 0.8912
H31_2 H 0.7520 0.3758 0.8890
H32_2 H 0.7927 0.4640 0.8725
C33_3 C 0.7569(4) 0.3333 0.8333
C148_2 C 0.7413(4) 0.8244(5) 0.83410(12)
C149_2 C 0.5920(4) 0.7498(3) 0.83257(12)
H156_2 H 0.5393 0.7497 0.8324
H157_2 H 0.7940 0.8770 0.8343
C153_2 C 0.7434(3) 0.7477(4) 0.83461(12)
C154_2 C 0.5899(3) 0.6710(3) 0.83206(12)
H160_3 H 0.2507 0.0474 0.8358
H161_2 H 0.5366 0.6193 0.8309
H162_2 H 0.7967 0.7493 0.8358
C156_2 C 0.6667 0.6685(4) 0.8333
C157_3 C 0.4159(4) 0.0826(4) 0.8333
C158_2 C 0.6667 0.5841(4) 0.8333
C159_3 C 0.8586(4) 0.2937(3) 0.81123(10)
C160_3 C 0.4747(4) 0.1017(3) 0.85544(10)
C161_3 C 0.4350(3) 0.1414(4) 0.81123(10)
C162_2 C 0.6270(3) 0.5253(4) 0.85544(10)
C163_2 C 0.7063(3) 0.5650(3) 0.81123(10)
C164_3 C 0.7774(4) 0.2915(3) 0.81202(10)
C165_3 C 0.5559(4) 0.1807(3) 0.85465(10)
C166_3 C 0.5140(3) 0.2226(4) 0.81202(10)
C167_2 C 0.6248(3) 0.4441(4) 0.85465(10)
C168_2 C 0.7085(3) 0.4860(3) 0.81202(10)
C169_3 C 0.8824(4) 0.2578(3) 0.78630(11)
C170_3 C 0.3753(3) 0.1176(4) 0.78630(11)
C171_3 C 0.4509(4) 0.0420(3) 0.88037(11)
C172_2 C 0.7422(3) 0.6247(3) 0.78630(11)
C173_2 C 0.5911(3) 0.5491(4) 0.88037(11)
H163_3 H 0.9391 0.2642 0.7891
H164_3 H 0.3250 0.0609 0.7891
H166_2 H 0.7358 0.6750 0.7891
H167_2 H 0.5975 0.6058 0.8776
H168_3 H 0.8832 0.2893 0.7700
H169_3 H 0.4060 0.1168 0.7700
H170_3 H 0.4501 0.0727 0.8967
H171_2 H 0.7107 0.5940 0.7700
H172_2 H 0.6226 0.5499 0.8967
H173_3 H 0.8399 0.1970 0.7841
H174_3 H 0.3570 0.1601 0.7841
H175_3 H 0.4934 0.0237 0.8826
H176_2 H 0.8030 0.6430 0.7841
H177_2 H 0.5303 0.5066 0.8826
C174_3 C 0.7176(4) 0.2484(3) 0.78763(12)
C175_3 C 0.5307(3) 0.2824(4) 0.78763(12)
C176_3 C 0.6157(4) 0.1974(3) 0.87904(12)
C177_2 C 0.7516(3) 0.4693(3) 0.78763(12)
C178_2 C 0.5817(3) 0.3843(4) 0.87904(12)
H178_3 H 0.7429 0.2240 0.7755
H179_3 H 0.4810 0.2571 0.7755
H180_3 H 0.5904 0.1477 0.8912
H181_2 H 0.7760 0.5190 0.7755
H182_2 H 0.5573 0.4096 0.8912
H183_3 H 0.7095 0.2909 0.7777
H184_3 H 0.5813 0.2905 0.7777
H185_3 H 0.6238 0.2480 0.8890
H186_2 H 0.7091 0.4187 0.7777
H187_2 H 0.6242 0.3762 0.8890
H188_3 H 0.6620 0.2027 0.7942
H189_2 H 0.5406 0.3380 0.7942
H190_3 H 0.6713 0.2073 0.8725
H191_2 H 0.7973 0.4594 0.7942
H192_3 H 0.5360 0.3287 0.8725
C179_3 C 0.5764(4) 0.2431(4) 0.8333
C180_2 C 0.6667 0.4236(4) 0.8333
Co1_3 Co -0.0000 0.60941(5) 0.5000
Cl1_4 Cl 0.12061(13) 0.68626(11) 0.46869(4)
B2_5 B -0.0000 0.0000 0.5000
N2_3 N -0.0000 0.4935(3) 0.5000
C27_3 C -0.0000 0.3351(4) 0.5000
C28_4 C -0.0000 0.2507(4) 0.5000
C29_3 C 0.0397(3) 0.2316(3) 0.47789(10)
C30_3 C 0.0419(3) 0.1526(3) 0.47868(10)
C31_3 C 0.0756(3) 0.2913(3) 0.45296(11)
H27_2 H 0.0692 0.3416 0.4557
H28_3 H 0.0441 0.2606 0.4366
H29_3 H 0.1364 0.3096 0.4507
C32_3 C 0.0850(3) 0.1359(3) 0.45429(12)
H30_3 H 0.1094 0.1856 0.4421
H31_3 H 0.0425 0.0853 0.4443
H32_3 H 0.1307 0.1260 0.4608
C33_4 C -0.0000 0.0902(4) 0.5000
Co9_2 Co 0.60945(5) 0.0000 0.5000
N9_4 N 0.0786(3) 0.6928(4) 0.53070(10)
N13_2 N 0.4936(3) 0.0000 0.5000
C145_2 C 0.0746(4) 0.4911(5) 0.50077(12)
C148_3 C 0.4911(5) 0.0746(4) 0.49923(12)
H153_2 H 0.1273 0.5437 0.5010
H157_3 H 0.5437 0.1273 0.4990
C150_2 C 0.0767(3) 0.4144(4) 0.50128(12)
C153_3 C 0.4144(4) 0.0767(3) 0.49872(12)
H158_2 H 0.1300 0.4160 0.5025
H162_3 H 0.4160 0.1300 0.4975
C156_3 C 0.3352(4) 0.0000 0.5000
C158_3 C 0.2508(4) 0.0000 0.5000
C163_3 C 0.2316(3) 0.0397(3) 0.52211(10)
C168_3 C 0.1526(3) 0.0419(3) 0.52132(10)
C172_3 C 0.2913(3) 0.0756(3) 0.54704(11)
H166_3 H 0.3416 0.0692 0.5443
H171_3 H 0.2606 0.0441 0.5634
H176_3 H 0.3096 0.1364 0.5493
C177_3 C 0.1359(3) 0.0850(3) 0.54571(12)
H181_3 H 0.1856 0.1094 0.5579
H186_3 H 0.0853 0.0425 0.5557
H191_3 H 0.1260 0.1307 0.5392
C180_3 C 0.0903(4) 0.0000 0.5000
Cl7 Cl 0.68626(11) 0.12061(13) 0.53131(4)
N7 N 0.6928(4) 0.0786(3) 0.46930(10)
C37 C 0.6702(8) 0.1052(6) 0.44548(14)
C38 C 0.8983(5) 0.5614(6) 0.22118(14)
H36_2 H 0.6132 0.0942 0.4437
H37 H 0.8523 0.5724 0.2229
C42 C 0.7261(6) 0.1462(5) 0.42451(14)
C43 C 0.9132(4) 0.5204(5) 0.24215(14)
H41 H 0.7069 0.1625 0.4088
H42 H 0.8777 0.5041 0.2578
C47 C 0.8129(4) 0.1647(3) 0.42595(12)
C48 C 0.9815(3) 0.5019(3) 0.24071(12)
C52 C 0.8359(6) 0.1401(4) 0.44980(11)
H46 H 0.8930 0.1513 0.4518
C57 C 0.7766(6) 0.0989(4) 0.47110(13)
H51 H 0.7955 0.0847 0.4873
C62 C 0.8755(4) 0.2078(3) 0.40306(11)
C67 C 0.9035(4) 0.1584(3) 0.38695(10)
C72 C 0.9624(4) 0.1978(3) 0.36492(11)
C77 C 0.9930(4) 0.2877(3) 0.35806(11)
C82 C 0.9636(4) 0.3335(3) 0.37440(12)
C83 C 0.9634(3) 0.3331(3) 0.29226(12)
C87 C 0.9075(5) 0.2958(4) 0.39708(11)
C88 C 0.9450(3) 0.3708(4) 0.26958(11)
C92 C 0.8648(6) 0.0610(4) 0.39189(12)
H56 H 0.8914 0.0386 0.3794
H61 H 0.8029 0.0315 0.3885
H66 H 0.8755 0.0512 0.4107
C97 C 0.9880(6) 0.1431(4) 0.34808(13)
H71 H 0.9615 0.0854 0.3558
H81 H 0.9686 0.1400 0.3292
C102 C 0.9968(6) 0.4311(4) 0.36946(13)
C103 C 0.8990(4) 0.2355(4) 0.29720(13)
H86 H 0.9700 0.4513 0.3826
H87 H 0.8520 0.2153 0.2840
H91 H 0.9820 0.4393 0.3509
H92 H 0.8760 0.2273 0.3157
H97 H 0.9288 0.2030 0.2949
C107 C 0.8836(6) 0.3497(4) 0.41549(12)
C108 C 0.8672(4) 0.3169(4) 0.25117(12)
H101 H 0.9109 0.4085 0.4086
H102 H 0.8357 0.2581 0.2580
H106 H 0.9034 0.3499 0.4341
H107 H 0.8868 0.3167 0.2325
H111 H 0.8214 0.3251 0.4155
H112 H 0.8296 0.3415 0.2511
C1_3 C 0.5614(6) 0.8983(5) 0.77882(14)
H1_3 H 0.5724 0.8523 0.7771
C2_3 C 0.5204(5) 0.9132(4) 0.75785(14)
H2_3 H 0.5041 0.8777 0.7422
C3_3 C 0.5019(3) 0.9815(3) 0.75929(12)
C10_2 C 0.3331(3) 0.9634(3) 0.70774(12)
C11_3 C 0.3708(4) 0.9450(3) 0.73042(11)
C14_2 C 0.2355(4) 0.8990(4) 0.70280(13)
H11_2 H 0.2153 0.8520 0.7160
H12_2 H 0.2273 0.8760 0.6843
H13_2 H 0.2030 0.9288 0.7051
C15_2 C 0.3169(4) 0.8672(4) 0.74883(12)
H14_2 H 0.2581 0.8357 0.7420
H15_2 H 0.3167 0.8868 0.7675
H16_3 H 0.3415 0.8296 0.7489
C34_2 C 0.1052(6) 0.6702(8) 0.55452(14)
H33_3 H 0.0942 0.6132 0.5563
C39_2 C 0.1462(5) 0.7261(6) 0.57549(14)
H38_2 H 0.1625 0.7069 0.5912
C44_2 C 0.1647(3) 0.8129(4) 0.57405(12)
C49_2 C 0.1401(4) 0.8359(6) 0.55020(11)
H43_2 H 0.1513 0.8930 0.5482
C54_2 C 0.0989(4) 0.7766(6) 0.52890(13)
H48_2 H 0.0847 0.7955 0.5127
C59_2 C 0.2078(3) 0.8755(4) 0.59694(11)
C64_2 C 0.1584(3) 0.9035(4) 0.61305(10)
C69_2 C 0.1978(3) 0.9624(4) 0.63508(11)
C74_2 C 0.2877(3) 0.9930(4) 0.64194(11)
C79_3 C 0.3335(3) 0.9636(4) 0.62560(12)
C84_2 C 0.2958(4) 0.9075(5) 0.60292(11)
C89_2 C 0.0610(4) 0.8648(6) 0.60811(12)
H53_2 H 0.0386 0.8914 0.6206
H58_2 H 0.0315 0.8029 0.6115
H63_2 H 0.0512 0.8755 0.5893
C94_2 C 0.1431(4) 0.9880(6) 0.65192(13)
H68_2 H 0.0854 0.9615 0.6442
H78_2 H 0.1400 0.9686 0.6708
C99_3 C 0.4311(4) 0.9968(6) 0.63054(13)
H83_3 H 0.4513 0.9700 0.6174
H88_3 H 0.4393 0.9820 0.6491
C104_3 C 0.3497(4) 0.8836(6) 0.58451(12)
H98_3 H 0.4085 0.9109 0.5914
H103_3 H 0.3499 0.9034 0.5659
H108_2 H 0.3251 0.8214 0.5845
Co2_5 Co 1.0000 0.0000 0.0000
Cl2_3 Cl 1.0000 0.0000 0.05133(5)
B4 B 0.3937(5) 0.0000 0.0000
N17 N 0.8852(3) 0.0000 0.0000
C82_2 C 0.2969(4) 0.0002(3) 0.04107(12)
H82 H 0.4952 0.1933 0.0041
C102_2 C 0.3301(6) 0.0978(4) 0.03613(13)
H86_2 H 0.3033 0.1180 0.0493
H91_2 H 0.3153 0.1060 0.0176
H96 H 0.3924 0.1303 0.0384
C107_2 C 0.2169(6) 0.0164(4) 0.08216(12)
H101_2 H 0.2442 0.0752 0.0753
H106_2 H 0.2367 0.0166 0.1008
C110 C 0.4830(4) 0.0000 0.0000
C114 C 0.5386(4) 0.0292(3) 0.02334(11)
C119 C 0.6187(4) 0.0296(3) 0.02356(11)
C124 C 0.5178(6) 0.0653(4) 0.04857(12)
H116 H 0.4627 0.0626 0.0460
H121 H 0.5627 0.1250 0.0513
H126 H 0.5148 0.0315 0.0646
C129 C 0.6774(6) 0.0635(4) 0.04887(13)
H131 H 0.7283 0.0582 0.0459
H136 H 0.6463 0.0300 0.0649
H141 H 0.6948 0.1238 0.0518
C132 C 0.6421(4) 0.0000 0.0000
C134 C 0.7275(4) 0.0000 0.0000
Co2_6 Co 1.0000 0.0000 1.0000
Co7 Co 0.27608(5) 0.3333 0.8333
Cl8_3 Cl 1.0000 0.0000 0.94867(5)
B4_2 B 0.3937(5) 0.0000 1.0000
N8 N 0.2808(3) 0.2547(3) 0.86403(10)
N17_2 N 0.8852(3) 0.0000 1.0000
C38_2 C 0.2316(5) 0.2281(6) 0.88785(14)
H37_2 H 0.1856 0.2391 0.8896
C43_2 C 0.2465(4) 0.1871(5) 0.90882(14)
H42_2 H 0.2110 0.1708 0.9245
C48_2 C 0.3148(3) 0.1686(3) 0.90738(12)
C53 C 0.3624(4) 0.1932(4) 0.88353(11)
H47 H 0.4083 0.1820 0.8815
C58 C 0.3443(4) 0.2344(4) 0.86223(13)
H52 H 0.3774 0.2486 0.8460
C63 C 0.3343(3) 0.1255(3) 0.93027(11)
C68 C 0.4117(3) 0.1749(3) 0.94638(10)
C73 C 0.4312(3) 0.1355(3) 0.96841(11)
C78 C 0.3719(3) 0.0456(3) 0.97527(11)
C88_2 C 0.2783(3) 0.0375(4) 0.93625(11)
C93 C 0.4704(4) 0.2723(4) 0.94144(12)
H57 H 0.5194 0.2947 0.9539
H62 H 0.4380 0.3018 0.9448
H67 H 0.4909 0.2821 0.9226
C98 C 0.5115(4) 0.1902(4) 0.98525(13)
H72 H 0.5427 0.2479 0.9775
H77 H 0.5481 0.1644 0.9850
H112_2 H 0.1629 0.0082 0.9178
C110_2 C 0.4830(4) 0.0000 1.0000
C132_2 C 0.6421(4) 0.0000 1.0000
C134_2 C 0.7275(4) 0.0000 1.0000
C139 C 0.7994(4) 0.0627(4) 0.98598(13)
H147 H 0.7961 0.1067 0.9764
C144 C 0.8768(3) 0.0609(3) 0.98597(12)
H152 H 0.9242 0.1030 0.9760
Cl4_3 Cl 0.35293(11) 0.45394(20) 0.86464(4)
Cl5_2 Cl 0.23232(17) 0.21273(20) 0.80203(4)
N10_3 N 0.3594(4) 0.4120(5) 0.80264(10)
N14_3 N 0.1602(3) 0.3333(4) 0.8333
C25_3 C 0.0831(3) 0.2587(4) 0.83410(12)
H25_3 H 0.0830 0.2060 0.8343
C26_3 C 0.0043(3) 0.2566(3) 0.83461(12)
C27_4 C 0.0018(4) 0.3333 0.8333
H27_3 H 0.0083 0.4025 0.8776
C145_3 C 0.1577(5) 0.4080(4) 0.83257(12)
H153_3 H 0.2103 0.4607 0.8324
C150_3 C 0.0810(4) 0.4101(3) 0.83206(12)
H158_3 H 0.0826 0.4634 0.8309
B2_6 B -0.0000 1.0000 0.5000
Co9_3 Co 0.60945(5) 1.0000 0.5000
N13_3 N 0.4936(3) 1.0000 0.5000
C149_3 C 0.4164(3) 0.9254(4) 0.50077(12)
H156_3 H 0.4163 0.8727 0.5010
C154_3 C 0.3376(3) 0.9233(3) 0.50128(12)
H161_3 H 0.2859 0.8700 0.5025
C156_4 C 0.3352(4) 1.0000 0.5000
C158_4 C 0.2508(4) 1.0000 0.5000
C162_3 C 0.1920(4) 0.9603(3) 0.47789(10)
C167_3 C 0.1108(4) 0.9581(3) 0.47868(10)
C173_3 C 0.2158(4) 0.9244(3) 0.45296(11)
H167_3 H 0.2725 0.9308 0.4557
H172_3 H 0.2166 0.9559 0.4366
H177_3 H 0.1733 0.8636 0.4507
C178_3 C 0.0510(4) 0.9150(3) 0.45429(12)
H182_3 H 0.0763 0.8906 0.4421
H187_3 H 0.0429 0.9575 0.4443
H189_3 H 0.0046 0.8740 0.5392
C180_4 C 0.0903(4) 1.0000 0.5000
Cl6_2 Cl 0.56566(17) 0.87939(13) 0.46869(4)
N11_2 N 0.6141(3) 0.9214(3) 0.53070(10)
B4_3 B 0.7270(5) 0.6667 0.6667
C37_2 C 0.3368(8) 0.4386(6) 0.77882(14)
C38_3 C 0.5649(5) 0.8948(6) 0.55452(14)
H36_3 H 0.2798 0.4276 0.7771
H37_3 H 0.5189 0.9058 0.5563
C42_2 C 0.3927(6) 0.4796(5) 0.75785(14)
C43_3 C 0.5798(4) 0.8538(5) 0.57549(14)
H41_2 H 0.3735 0.4959 0.7422
H42_3 H 0.5443 0.8375 0.5912
C47_2 C 0.4795(4) 0.4981(3) 0.75929(12)
C48_3 C 0.6481(3) 0.8353(3) 0.57405(12)
C52_2 C 0.5025(6) 0.4735(4) 0.78314(11)
C53_2 C 0.6957(4) 0.8599(4) 0.55020(11)
H46_2 H 0.5596 0.4847 0.7852
H47_2 H 0.7416 0.8487 0.5482
C57_2 C 0.4432(6) 0.4323(4) 0.80444(13)
C58_2 C 0.6776(4) 0.9011(4) 0.52890(13)
H51_2 H 0.4621 0.4181 0.8207
H52_2 H 0.7107 0.9153 0.5127
C62_2 C 0.5421(4) 0.5412(3) 0.73640(11)
C63_2 C 0.6676(3) 0.7922(3) 0.59694(11)
C67_2 C 0.5701(4) 0.4918(3) 0.72029(10)
C68_2 C 0.7450(3) 0.8416(3) 0.61305(10)
C72_2 C 0.6290(4) 0.5312(3) 0.69826(11)
C73_2 C 0.7645(3) 0.8022(3) 0.63508(11)
C77_2 C 0.6596(4) 0.6211(3) 0.69140(11)
C78_2 C 0.7052(3) 0.7123(3) 0.64194(11)
C82_3 C 0.6302(4) 0.6669(3) 0.70774(12)
C83_2 C 0.6300(3) 0.6665(3) 0.62560(12)
C87_2 C 0.5741(5) 0.6292(4) 0.73042(11)
C88_3 C 0.6116(3) 0.7042(4) 0.60292(11)
C92_2 C 0.5314(6) 0.3944(4) 0.72523(12)
C93_2 C 0.8037(4) 0.9390(4) 0.60811(12)
H56_2 H 0.5580 0.3720 0.7128
H57_2 H 0.8527 0.9614 0.6206
H61_2 H 0.4695 0.3649 0.7219
H62_2 H 0.7713 0.9685 0.6115
H66_2 H 0.5421 0.3846 0.7441
H67_2 H 0.8242 0.9488 0.5893
C97_2 C 0.6546(6) 0.4765(4) 0.68142(13)
C98_2 C 0.8448(4) 0.8569(4) 0.65192(13)
H71_2 H 0.6281 0.4188 0.6892
H72_2 H 0.8760 0.9146 0.6442
H76 H 0.7170 0.5023 0.6817
H77_2 H 0.8814 0.8311 0.6517
H81_2 H 0.6352 0.4734 0.6626
H82_2 H 0.8285 0.8600 0.6708
C102_3 C 0.6634(6) 0.7645(4) 0.70280(13)
C103_2 C 0.5656(4) 0.5689(4) 0.63054(13)
H86_3 H 0.6366 0.7847 0.7160
H87_2 H 0.5186 0.5487 0.6174
H91_3 H 0.6486 0.7727 0.6843
H92_2 H 0.5426 0.5607 0.6491
H96_2 H 0.7257 0.7970 0.7051
H97_2 H 0.5954 0.5364 0.6283
C107_3 C 0.5502(6) 0.6831(4) 0.74883(12)
C108_2 C 0.5338(4) 0.6503(4) 0.58451(12)
H101_3 H 0.5775 0.7419 0.7420
H102_2 H 0.5023 0.5915 0.5914
H106_3 H 0.5700 0.6833 0.7675
H107_2 H 0.5534 0.6501 0.5659
H111_2 H 0.4880 0.6585 0.7489
H112_3 H 0.4962 0.6749 0.5845
C110_3 C 0.8163(4) 0.6667 0.6667
C114_2 C 0.8719(4) 0.6959(3) 0.69001(11)
C115 C 0.8427(3) 0.6375(3) 0.64333(11)
C119_2 C 0.9520(4) 0.6963(3) 0.69023(11)
C120 C 0.9224(3) 0.6371(3) 0.64311(11)
C124_2 C 0.8511(6) 0.7320(4) 0.71524(12)
C125 C 0.7858(4) 0.6014(4) 0.61810(12)
H116_2 H 0.7960 0.7293 0.7127
H117 H 0.7334 0.6041 0.6207
H121_2 H 0.8960 0.7917 0.7180
H122 H 0.7710 0.5417 0.6154
H126_2 H 0.8481 0.6982 0.7313
H127 H 0.8166 0.6352 0.6021
C130 C 0.9472(4) 0.6032(4) 0.61780(13)
H136_2 H 0.9796 0.6967 0.7316
H137 H 0.9496 0.6367 0.6018
H142 H 0.9043 0.5429 0.6149
C132_3 C 0.9754(4) 0.6667 0.6667
Co2_7 Co 1.0000 1.0000 0.0000
Cl2_4 Cl 1.0000 1.0000 0.05133(5)
B1_4 B 1.0000 0.3937(5) 0.0000
N3_3 N 1.0000 0.8852(3) 0.0000
C10_3 C 0.9998(3) 0.2967(3) 0.04107(12)
C14_3 C 0.9022(4) 0.2323(4) 0.03613(13)
H11_3 H 0.8820 0.1853 0.0493
H12_3 H 0.8940 0.2093 0.0176
H13_3 H 0.8697 0.2621 0.0384
C15_3 C 0.9836(4) 0.2005(4) 0.08216(12)
H14_3 H 0.9248 0.1690 0.0753
H15_3 H 0.9834 0.2201 0.1008
C16_4 C 1.0000 0.4830(4) 0.0000
C17_2 C 0.9708(3) 0.5094(3) 0.02334(11)
C18_2 C 0.9704(3) 0.5891(3) 0.02356(11)
C19_2 C 0.9347(4) 0.4525(4) 0.04857(12)
H17_2 H 0.9374 0.4001 0.0460
H18_2 H 0.8750 0.4377 0.0513
H19_2 H 0.9685 0.4833 0.0646
C20_2 C 0.9365(4) 0.6139(4) 0.04887(13)
H20 H 0.9418 0.6701 0.0459
H21_2 H 0.9700 0.6163 0.0649
H22_2 H 0.8762 0.5710 0.0518
C21_4 C 1.0000 0.6421(4) 0.0000
C22_3 C 1.0000 0.7275(4) 0.0000
Cl7_2 Cl 0.01960(11) 0.78727(13) 0.19797(4)
B4_4 B 0.3937(5) 1.0000 0.0000
N7_2 N 0.0261(4) 0.7453(3) 0.13597(10)
N17_3 N 0.8852(3) 1.0000 0.0000
C37_3 C 0.0035(8) 0.7719(6) 0.11215(14)
C42_3 C 0.0594(6) 0.8129(5) 0.09118(14)
H41_3 H 0.0402 0.8292 0.0755
C47_3 C 0.1462(4) 0.8314(3) 0.09262(12)
C52_3 C 0.1692(6) 0.8068(4) 0.11647(11)
H46_3 H 0.2263 0.8180 0.1185
C57_3 C 0.1099(6) 0.7656(4) 0.13777(13)
H51_3 H 0.1288 0.7514 0.1540
C62_3 C 0.2088(4) 0.8745(3) 0.06973(11)
C67_3 C 0.2368(4) 0.8251(3) 0.05362(10)
C72_3 C 0.2957(4) 0.8645(3) 0.03159(11)
C77_3 C 0.3263(4) 0.9544(3) 0.02473(11)
C87_3 C 0.2408(5) 0.9625(4) 0.06375(11)
C92_3 C 0.1981(6) 0.7277(4) 0.05856(12)
H56_3 H 0.2247 0.7053 0.0461
H61_3 H 0.1362 0.6982 0.0552
H66_3 H 0.2088 0.7179 0.0774
C97_3 C 0.3213(6) 0.8098(4) 0.01475(13)
H71_3 H 0.2948 0.7521 0.0225
H76_2 H 0.3837 0.8356 0.0150
H78_3 H 0.8067 0.3019 0.0041
H111_3 H 0.1547 0.9918 0.0822
C110_4 C 0.4830(4) 1.0000 0.0000
C132_4 C 0.6421(4) 1.0000 0.0000
C134_3 C 0.7275(4) 1.0000 0.0000
C138 C 0.7367(6) 0.9373(4) 0.01402(13)
H146 H 0.6894 0.8933 0.0236
C143 C 0.8159(4) 0.9391(3) 0.01403(12)
H151 H 0.8212 0.8970 0.0240
Co2_8 Co 0.6667 0.3333 0.3333
Cl2_5 Cl 0.6667 0.3333 0.38466(5)
N3_4 N 0.6667 0.2185(3) 0.3333
H20_2 H 0.6085 0.0034 0.3792
C22_4 C 0.6667 0.0608(4) 0.3333
C23_2 C 0.7294(4) 0.1327(4) 0.34735(13)
H23_2 H 0.7734 0.1294 0.3569
C24_2 C 0.7276(3) 0.2101(3) 0.34736(12)
H24_2 H 0.7697 0.2575 0.3573
Cl8_4 Cl 0.6667 0.3333 0.28200(5)
B4_5 B 0.0604(5) 0.3333 0.3333
N16_3 N 0.7815(3) 0.4481(3) 0.3333
N17_4 N 0.5519(3) 0.3333 0.3333
C53_3 C 0.0291(4) 0.5265(4) 0.21686(11)
H47_3 H 0.0750 0.5153 0.2148
C58_3 C 0.0110(4) 0.5677(4) 0.19556(13)
H52_3 H 0.0441 0.5819 0.1793
C63_3 C 0.0010(3) 0.4588(3) 0.26360(11)
C68_3 C 0.0784(3) 0.5082(3) 0.27971(10)
C73_3 C 0.0979(3) 0.4688(3) 0.30174(11)
C78_3 C 0.0386(3) 0.3789(3) 0.30860(11)
C93_3 C 0.1371(4) 0.6056(4) 0.27477(12)
H57_3 H 0.1861 0.6280 0.2872
H62_3 H 0.1047 0.6351 0.2781
H67_3 H 0.1576 0.6154 0.2559
C98_3 C 0.1782(4) 0.5235(4) 0.31858(13)
H72_3 H 0.2094 0.5812 0.3108
H76_3 H 0.0504 0.1689 0.3483
H77_3 H 0.2148 0.4977 0.3183
H82_3 H 0.1619 0.5266 0.3374
H96_3 H 0.0591 0.4636 0.3717
C110_5 C 0.1497(4) 0.3333 0.3333
C114_3 C 0.2053(4) 0.3625(3) 0.35667(11)
C115_2 C 0.1761(3) 0.3041(3) 0.30999(11)
C119_3 C 0.2854(4) 0.3629(3) 0.35689(11)
C120_2 C 0.2558(3) 0.3037(3) 0.30977(11)
C124_3 C 0.1845(6) 0.3986(4) 0.38190(12)
C125_2 C 0.1192(4) 0.2680(4) 0.28476(12)
H116_3 H 0.1294 0.3959 0.3793
H117_2 H 0.0668 0.2707 0.2873
H121_3 H 0.2294 0.4583 0.3846
H122_2 H 0.1044 0.2083 0.2820
H126_3 H 0.1815 0.3648 0.3979
H127_2 H 0.1500 0.3018 0.2687
C126_2 C 0.7302(4) 0.0107(6) 0.28446(13)
C128_3 C 0.9893(6) 0.7194(4) 0.28446(13)
C129_2 C 0.3441(6) 0.3968(4) 0.38220(13)
C130_2 C 0.2806(4) 0.2698(4) 0.28446(13)
H128_2 H 0.7249 0.0616 0.2874
H129_2 H 0.9966 0.6050 0.3792
H130_2 H 0.9384 0.6632 0.2874
H131_2 H 0.3950 0.3915 0.3792
H132 H 0.3368 0.2751 0.2874
H136_3 H 0.3130 0.3633 0.3982
H137_2 H 0.2830 0.3033 0.2684
H138_2 H 0.7905 0.0281 0.2815
H140_3 H 0.9719 0.7623 0.2815
H141_2 H 0.3615 0.4571 0.3851
H142_2 H 0.2377 0.2095 0.2815
C132_5 C 0.3088(4) 0.3333 0.3333
C133_3 C 0.9392(4) 0.6058(4) 0.3333
C134_4 C 0.3942(4) 0.3333 0.3333
C135 C 0.6040(4) 0.0700(6) 0.31931(13)
C136_2 C 0.8673(4) 0.5966(6) 0.34735(13)
C137_2 C 0.9300(6) 0.5339(4) 0.31931(13)
C138_2 C 0.4034(6) 0.2706(4) 0.34735(13)
C139_2 C 0.4661(4) 0.3960(4) 0.31931(13)
H143 H 0.5600 0.0227 0.3097
H144_2 H 0.8706 0.6439 0.3569
H145_2 H 0.9773 0.5372 0.3097
H146_2 H 0.3561 0.2266 0.3569
H147_2 H 0.4628 0.4400 0.3097
C140 C 0.6058(3) 0.1492(4) 0.31930(12)
C141_2 C 0.7899(3) 0.5174(4) 0.34736(12)
C142_2 C 0.8508(4) 0.4565(3) 0.31930(12)
C143_2 C 0.4826(4) 0.2724(3) 0.34736(12)
C144_2 C 0.5435(3) 0.3942(3) 0.31930(12)
H148 H 0.5637 0.1545 0.3093
H149_2 H 0.7425 0.5121 0.3573
H150_2 H 0.8455 0.4091 0.3093
H151_2 H 0.4879 0.2303 0.3573
H152_2 H 0.5909 0.4363 0.3093
Co2_9 Co 1.0000 1.0000 1.0000
B1_5 B 1.0000 0.3937(5) 1.0000
N3_5 N 1.0000 0.8852(3) 1.0000
C16_5 C 1.0000 0.4830(4) 1.0000
C21_5 C 1.0000 0.6421(4) 1.0000
C22_5 C 1.0000 0.7275(4) 1.0000
Cl8_5 Cl 1.0000 1.0000 0.94867(5)
B4_6 B 0.3937(5) 1.0000 1.0000
N4 N 0.7453(3) 0.0261(4) 0.86403(10)
N17_5 N 0.8852(3) 1.0000 1.0000
C34_3 C 0.7719(6) 0.0035(8) 0.88785(14)
C39_3 C 0.8129(5) 0.0594(6) 0.90882(14)
H38_3 H 0.8292 0.0402 0.9245
C44_3 C 0.8314(3) 0.1462(4) 0.90738(12)
C49_3 C 0.8068(4) 0.1692(6) 0.88353(11)
H43_3 H 0.8180 0.2263 0.8815
C54_3 C 0.7656(4) 0.1099(6) 0.86223(13)
H48_3 H 0.7514 0.1288 0.8460
C59_3 C 0.8745(3) 0.2088(4) 0.93027(11)
C64_3 C 0.8251(3) 0.2368(4) 0.94638(10)
C69_3 C 0.8645(3) 0.2957(4) 0.96841(11)
C74_3 C 0.9544(3) 0.3263(4) 0.97527(11)
C83_3 C 0.2967(3) 0.9998(3) 0.95893(12)
C84_3 C 0.9625(4) 0.2408(5) 0.93625(11)
C89_3 C 0.7277(4) 0.1981(6) 0.94144(12)
H53_3 H 0.7053 0.2247 0.9539
H58_3 H 0.6982 0.1362 0.9448
H63_3 H 0.7179 0.2088 0.9226
C94_3 C 0.8098(4) 0.3213(6) 0.98525(13)
H68_3 H 0.7521 0.2948 0.9775
H73_2 H 0.8356 0.3837 0.9850
H81_3 H 0.3019 0.8067 0.9959
C103_3 C 0.2323(4) 0.9022(4) 0.96387(13)
H87_3 H 0.1853 0.8820 0.9507
H92_3 H 0.2093 0.8940 0.9824
H97_3 H 0.2621 0.8697 0.9616
C108_3 C 0.2005(4) 0.9836(4) 0.91784(12)
H102_3 H 0.1690 0.9248 0.9247
H107_3 H 0.2201 0.9834 0.8992
H108_3 H 0.9918 0.1547 0.9178
C110_6 C 0.4830(4) 1.0000 1.0000
C115_3 C 0.5094(3) 0.9708(3) 0.97666(11)
C120_3 C 0.5891(3) 0.9704(3) 0.97644(11)
C125_3 C 0.4525(4) 0.9347(4) 0.95143(12)
H117_3 H 0.4001 0.9374 0.9540
H122_3 H 0.4377 0.8750 0.9487
H127_3 H 0.4833 0.9685 0.9354
C130_3 C 0.6139(4) 0.9365(4) 0.95113(13)
H132_2 H 0.6701 0.9418 0.9541
H137_3 H 0.6163 0.9700 0.9351
H142_3 H 0.5710 0.8762 0.9482
C132_6 C 0.6421(4) 1.0000 1.0000
C134_5 C 0.7275(4) 1.0000 1.0000
C135_2 C 0.9373(4) 0.7367(6) 0.98598(13)
H143_2 H 0.8933 0.6894 0.9764
C140_2 C 0.9391(3) 0.8159(4) 0.98597(12)
H148_2 H 0.8970 0.8212 0.9760
Cl5_3 Cl 0.78727(20) 0.01960(11) 0.80203(4)
Co2_10 Co 0.3333 0.6667 0.6667
Cl2_6 Cl 0.3333 0.6667 0.71800(5)
B1_6 B 0.3333 0.0604(5) 0.6667
N3_6 N 0.3333 0.5519(3) 0.6667
C4_3 C 0.5265(4) 0.0291(4) 0.78314(11)
H3_3 H 0.5153 0.0750 0.7852
C5_3 C 0.5677(4) 0.0110(4) 0.80444(13)
H4_3 H 0.5819 0.0441 0.8207
C6_3 C 0.4588(3) 0.0010(3) 0.73640(11)
C7_3 C 0.5082(3) 0.0784(3) 0.72029(10)
C8_3 C 0.4688(3) 0.0979(3) 0.69826(11)
C9_3 C 0.3789(3) 0.0386(3) 0.69140(11)
C12_3 C 0.6056(4) 0.1371(4) 0.72523(12)
H5_3 H 0.6280 0.1861 0.7128
H6_3 H 0.6351 0.1047 0.7219
H7_3 H 0.6154 0.1576 0.7441
C13_3 C 0.5235(4) 0.1782(4) 0.68142(13)
H8_3 H 0.5812 0.2094 0.6892
H9_3 H 0.4977 0.2148 0.6817
H10_3 H 0.5266 0.1619 0.6626
C16_6 C 0.3333 0.1497(4) 0.6667
C17_3 C 0.3041(3) 0.1761(3) 0.69001(11)
C18_3 C 0.3037(3) 0.2558(3) 0.69023(11)
C19_3 C 0.2680(4) 0.1192(4) 0.71524(12)
H17_3 H 0.2707 0.0668 0.7127
H18_3 H 0.2083 0.1044 0.7180
H19_3 H 0.3018 0.1500 0.7313
C20_3 C 0.2698(4) 0.2806(4) 0.71554(13)
H20_3 H 0.2751 0.3368 0.7126
H21_3 H 0.3033 0.2830 0.7316
H22_3 H 0.2095 0.2377 0.7185
C21_6 C 0.3333 0.3088(4) 0.6667
C22_6 C 0.3333 0.3942(4) 0.6667
C23_3 C 0.3960(4) 0.4661(4) 0.68069(13)
H23_3 H 0.4400 0.4628 0.6903
C24_3 C 0.3942(3) 0.5435(3) 0.68070(12)
H24_3 H 0.4363 0.5909 0.6907
Cl8_6 Cl 0.3333 0.6667 0.61534(5)
N16_4 N 0.4481(3) 0.7815(3) 0.6667
N17_6 N 0.2185(3) 0.6667 0.6667
H73_3 H 0.1689 0.0504 0.6517
H93_3 H 0.4636 0.0591 0.6283
C111_3 C 0.3625(3) 0.2053(4) 0.64333(11)
C116_3 C 0.3629(3) 0.2854(4) 0.64311(11)
C121_3 C 0.3986(4) 0.1845(6) 0.61810(12)
H113_3 H 0.3959 0.1294 0.6207
H118_3 H 0.4583 0.2294 0.6154
H123_3 H 0.3648 0.1815 0.6021
C126_3 C 0.3968(4) 0.3441(6) 0.61780(13)
C127_3 C 0.7194(4) 0.9893(6) 0.71554(13)
C129_3 C 0.0107(6) 0.7302(4) 0.71554(13)
H128_3 H 0.3915 0.3950 0.6208
H129_3 H 0.6632 0.9384 0.7126
H130_3 H 0.6050 0.9966 0.6208
H131_3 H 0.0616 0.7249 0.7126
H132_3 H 0.0034 0.6085 0.6208
H133_3 H 0.3633 0.3130 0.6018
H138_3 H 0.4571 0.3615 0.6149
H139_3 H 0.7623 0.9719 0.7185
H141_3 H 0.0281 0.7905 0.7185
C133_4 C 0.6058(4) 0.9392(4) 0.6667
C134_6 C 0.0608(4) 0.6667 0.6667
C135_3 C 0.2706(4) 0.4034(6) 0.65265(13)
C136_3 C 0.5339(4) 0.9300(6) 0.68069(13)
C137_3 C 0.5966(6) 0.8673(4) 0.65265(13)
C138_3 C 0.0700(6) 0.6040(4) 0.68069(13)
C139_3 C 0.1327(4) 0.7294(4) 0.65265(13)
H143_3 H 0.2266 0.3561 0.6431
H144_3 H 0.5372 0.9773 0.6903
H145_3 H 0.6439 0.8706 0.6431
H146_3 H 0.0227 0.5600 0.6903
H147_3 H 0.1294 0.7734 0.6431
C140_3 C 0.2724(3) 0.4826(4) 0.65264(12)
C141_3 C 0.4565(3) 0.8508(4) 0.68070(12)
C142_3 C 0.5174(4) 0.7899(3) 0.65264(12)
C143_3 C 0.1492(4) 0.6058(3) 0.68070(12)
C144_3 C 0.2101(3) 0.7276(3) 0.65264(12)
H148_3 H 0.2303 0.4879 0.6427
H149_3 H 0.4091 0.8455 0.6907
H150_3 H 0.5121 0.7425 0.6427
H151_3 H 0.1545 0.5637 0.6907
H152_3 H 0.2575 0.7697 0.6427
loop_
_geom_bond_atom_site_label_1
_geom_bond_atom_site_label_2
_geom_bond_site_symmetry_1
_geom_bond_site_symmetry_2
Co5 Cl4 1_555 1_555
N10 Co5 1_555 1_555
N14 Co5 1_555 1_555
Co4 N12 1_555 1_555
N12 C146 1_555 1_555
C146 H155 1_555 1_555
C147 N12 1_555 1_555
H154 C147 1_555 1_555
C151 C146 1_555 1_555
C152 C147 1_555 1_555
H159 C152 1_555 1_555
C155 C151 1_555 1_555
C152 C155 1_555 1_555
Co4 Cl1 1_555 1_555
N9 Co4 1_555 1_555
N14 C146_2 1_555 1_555
C146_2 H155_2 1_555 1_555
C147_2 N14 1_555 1_555
H154_2 C147_2 1_555 1_555
C151_2 C146_2 1_555 1_555
C152_2 C147_2 1_555 1_555
H159_2 C152_2 1_555 1_555
C155_2 C151_2 1_555 1_555
C152_2 C155_2 1_555 1_555
Co4_2 N5 1_555 1_555
N5 C35 1_555 1_555
C35 H34_2 1_555 1_555
C36 N9 1_555 1_555
H35_2 C36 1_555 1_555
C40 C35 1_555 1_555
C41 C36 1_555 1_555
H39 C40 1_555 1_555
H40 C41 1_555 1_555
C45 C40 1_555 1_555
C46 C41 1_555 1_555
C50 C45 1_555 1_555
H44 C50 1_555 1_555
C55 N5 1_555 1_555
H49 C55 1_555 1_555
C60 C45 1_555 1_555
C65 C60 1_555 1_555
C70 C65 1_555 1_555
C75 C70 1_555 1_555
C80 C75 1_555 1_555
C85 C60 1_555 1_555
C90 C65 1_555 1_555
H54 C90 1_555 1_555
H59 C90 1_555 1_555
H64 C90 1_555 1_555
C95 C70 1_555 1_555
H69 C95 1_555 1_555
H79 C95 1_555 1_555
C100 C80 1_555 1_555
C101 C81 1_555 1_555
H84 C100 1_555 1_555
H85 C101 1_555 1_555
H89 C100 1_555 1_555
H90 C101 1_555 1_555
H95 C101 1_555 1_555
C105 C85 1_555 1_555
C106 C86 1_555 1_555
H99 C105 1_555 1_555
H100 C106 1_555 1_555
H104 C105 1_555 1_555
H105 C106 1_555 1_555
H109 C105 1_555 1_555
H110 C106 1_555 1_555
C50 C55 1_555 1_555
C80 C85 1_555 1_555
C81 C86 1_555 1_555
Co4_2 N12_2 1_555 1_555
N12_2 C146_3 1_555 1_555
C146_3 H155_3 1_555 1_555
C147_3 N12_2 1_555 1_555
H154_3 C147_3 1_555 1_555
C151_3 C146_3 1_555 1_555
C152_3 C147_3 1_555 1_555
H159_3 C152_3 1_555 1_555
H160 C151_3 1_555 1_555
C155_3 C151_3 1_555 1_555
C157 C155_3 1_555 1_555
C160 C157 1_555 1_555
C161 C157 1_555 1_555
C165 C160 1_555 1_555
C166 C161 1_555 1_555
C170 C161 1_555 1_555
C171 C160 1_555 1_555
H164 C170 1_555 1_555
H165_3 C171 1_555 1_555
H169 C170 1_555 1_555
H170 C171 1_555 1_555
H174 C170 1_555 1_555
H175 C171 1_555 1_555
C175 C166 1_555 1_555
C176 C165 1_555 1_555
H179 C175 1_555 1_555
H180 C176 1_555 1_555
H184 C175 1_555 1_555
H185 C176 1_555 1_555
C179 B2 1_555 1_555
C152_3 C155_3 1_555 1_555
C165 C179 1_555 1_555
C166 C179 1_555 1_555
Co4_2 Cl1_2 1_555 1_555
Cl3 Co4_2 1_555 1_555
N9_2 Co4_2 1_555 1_555
N10 C35_2 1_555 1_555
C35_2 H34_3 1_555 1_555
C36_2 N9_2 1_555 1_555
H35_3 C36_2 1_555 1_555
C40_2 C35_2 1_555 1_555
C41_2 C36_2 1_555 1_555
H39_2 C40_2 1_555 1_555
H40_2 C41_2 1_555 1_555
C45_2 C40_2 1_555 1_555
C46_2 C41_2 1_555 1_555
C51 C46_2 1_555 1_555
H45 C51 1_555 1_555
C56 N9_2 1_555 1_555
H50 C56 1_555 1_555
C61 C46_2 1_555 1_555
C66 C61 1_555 1_555
C71 C66 1_555 1_555
C81_2 C76 1_555 1_555
C86_2 C61 1_555 1_555
C91 C66 1_555 1_555
H55 C91 1_555 1_555
H60 C91 1_555 1_555
H65 C91 1_555 1_555
C96 C71 1_555 1_555
H70 C96 1_555 1_555
H80 C96 1_555 1_555
C100_2 C80_2 1_555 1_555
C101_2 C81_2 1_555 1_555
H84_2 C100_2 1_555 1_555
H85_2 C101_2 1_555 1_555
H89_2 C100_2 1_555 1_555
H90_2 C101_2 1_555 1_555
H94 C100_2 1_555 1_555
C105_2 C85_2 1_555 1_555
C106_2 C86_2 1_555 1_555
H99_2 C105_2 1_555 1_555
H100_2 C106_2 1_555 1_555
H104_2 C105_2 1_555 1_555
H105_2 C106_2 1_555 1_555
H109_2 C105_2 1_555 1_555
H110_2 C106_2 1_555 1_555
C51 C56 1_555 1_555
C71 C76 1_555 1_555
C80_2 C85_2 1_555 1_555
C81_2 C86_2 1_555 1_555
Co2 Cl2 1_555 1_555
B3 C75_2 1_555 1_555
N5_2 C35_3 1_555 1_555
N16 Co2 1_555 1_555
C40_3 C35_3 1_555 1_555
H39_3 C40_3 1_555 1_555
C45_3 C40_3 1_555 1_555
C50_2 C45_3 1_555 1_555
H44_2 C50_2 1_555 1_555
C55_2 N5_2 1_555 1_555
H49_2 C55_2 1_555 1_555
C60_2 C45_3 1_555 1_555
C65_2 C60_2 1_555 1_555
C70_2 C65_2 1_555 1_555
C75_2 C70_2 1_555 1_555
C80_3 C75_2 1_555 1_555
C85_3 C60_2 1_555 1_555
C90_2 C65_2 1_555 1_555
H54_2 C90_2 1_555 1_555
H59_2 C90_2 1_555 1_555
H64_2 C90_2 1_555 1_555
C95_2 C70_2 1_555 1_555
H69_2 C95_2 1_555 1_555
H74 C95_2 1_555 1_555
C100_3 C80_3 1_555 1_555
H84_3 C100_3 1_555 1_555
H89_3 C100_3 1_555 1_555
H94_2 C100_3 1_555 1_555
C105_3 C85_3 1_555 1_555
H99_3 C105_3 1_555 1_555
H104_3 C105_3 1_555 1_555
H109_3 C105_3 1_555 1_555
C109 B3 1_555 1_555
C112 C109 1_555 1_555
C117 C112 1_555 1_555
C122 C112 1_555 1_555
H114 C122 1_555 1_555
H119 C122 1_555 1_555
H124 C122 1_555 1_555
C127 C117 1_555 1_555
H129 C127 1_555 1_555
H134 C127 1_555 1_555
H139 C127 1_555 1_555
C131 C117 1_555 1_555
C133 C131 1_555 1_555
C136 C133 1_555 1_555
H144 C136 1_555 1_555
C141 N16 1_555 1_555
H149 C141 1_555 1_555
C50_2 C55_2 1_555 1_555
C80_3 C85_3 1_555 1_555
C136 C141 1_555 1_555
H45_2 C51_2 1_555 1_555
H50_2 C56_2 1_555 1_555
C66_2 C61_2 1_555 1_555
C71_2 C66_2 1_555 1_555
C76_2 B3_2 1_555 1_555
C91_2 C66_2 1_555 1_555
H55_2 C91_2 1_555 1_555
H60_2 C91_2 1_555 1_555
H65_2 C91_2 1_555 1_555
C96_2 C71_2 1_555 1_555
H70_2 C96_2 1_555 1_555
H75 C96_2 1_555 1_555
H80_3 C96_2 1_555 1_555
C109_2 B3_2 1_555 1_555
C112_2 C109_2 1_555 1_555
C113 C109_2 1_555 1_555
C117_2 C112_2 1_555 1_555
C118 C113 1_555 1_555
C122_2 C112_2 1_555 1_555
C123 C113 1_555 1_555
H114_2 C122_2 1_555 1_555
H115 C123 1_555 1_555
H119_2 C122_2 1_555 1_555
H120 C123 1_555 1_555
H124_2 C122_2 1_555 1_555
H125 C123 1_555 1_555
C127_2 C117_2 1_555 1_555
H134_2 C127_2 1_555 1_555
H139_2 C127_2 1_555 1_555
C131_2 C117_2 1_555 1_555
C51_2 C56_2 1_555 1_555
C71_2 C76_2 1_555 1_555
C118 C131_2 1_555 1_555
Cl8 Co2_2 1_555 1_555
N16_2 Co2_2 1_555 1_555
C36_3 N6 1_555 1_555
C41_3 C36_3 1_555 1_555
H40_3 C41_3 1_555 1_555
C46_3 C41_3 1_555 1_555
C51_3 C46_3 1_555 1_555
H45_3 C51_3 1_555 1_555
C56_3 N6 1_555 1_555
H50_3 C56_3 1_555 1_555
C61_3 C46_3 1_555 1_555
C66_3 C61_3 1_555 1_555
C71_3 C66_3 1_555 1_555
C76_3 B3_3 1_555 1_555
C81_3 C76_3 1_555 1_555
C86_3 C61_3 1_555 1_555
C91_3 C66_3 1_555 1_555
H55_3 C91_3 1_555 1_555
H60_3 C91_3 1_555 1_555
H65_3 C91_3 1_555 1_555
C96_3 C71_3 1_555 1_555
H70_3 C96_3 1_555 1_555
H75_2 C96_3 1_555 1_555
C101_3 C81_3 1_555 1_555
H85_3 C101_3 1_555 1_555
H90_3 C101_3 1_555 1_555
H95_2 C101_3 1_555 1_555
C106_3 C86_3 1_555 1_555
H100_3 C106_3 1_555 1_555
H105_3 C106_3 1_555 1_555
H110_3 C106_3 1_555 1_555
C109_3 B3_3 1_555 1_555
C113_2 C109_3 1_555 1_555
C118_2 C113_2 1_555 1_555
C123_2 C113_2 1_555 1_555
H115_2 C123_2 1_555 1_555
H120_2 C123_2 1_555 1_555
H125_2 C123_2 1_555 1_555
C128 C118_2 1_555 1_555
H130 C128 1_555 1_555
H135_2 C128 1_555 1_555
H140 C128 1_555 1_555
C133_2 C131_3 1_555 1_555
C137 C133_2 1_555 1_555
H145 C137 1_555 1_555
C142 N16_2 1_555 1_555
H150 C142 1_555 1_555
C51_3 C56_3 1_555 1_555
C71_3 C76_3 1_555 1_555
C81_3 C86_3 1_555 1_555
C118_2 C131_3 1_555 1_555
C137 C142 1_555 1_555
B3_4 C75_3 1_555 1_555
H44_3 C50_3 1_555 1_555
H49_3 C55_3 1_555 1_555
C65_3 C60_3 1_555 1_555
C70_3 C65_3 1_555 1_555
C75_3 C70_3 1_555 1_555
C90_3 C65_3 1_555 1_555
H54_3 C90_3 1_555 1_555
H59_3 C90_3 1_555 1_555
H64_3 C90_3 1_555 1_555
C95_3 C70_3 1_555 1_555
H69_3 C95_3 1_555 1_555
H74_3 C95_3 1_555 1_555
H79_3 C95_3 1_555 1_555
C109_4 B3_4 1_555 1_555
C112_3 C109_4 1_555 1_555
C113_3 C109_4 1_555 1_555
C117_3 C112_3 1_555 1_555
C118_3 C113_3 1_555 1_555
C122_3 C112_3 1_555 1_555
C123_3 C113_3 1_555 1_555
H114_3 C122_3 1_555 1_555
H115_3 C123_3 1_555 1_555
H119_3 C122_3 1_555 1_555
H120_3 C123_3 1_555 1_555
H124_3 C122_3 1_555 1_555
H125_3 C123_3 1_555 1_555
C128_2 C118_3 1_555 1_555
H135_3 C128_2 1_555 1_555
H140_2 C128_2 1_555 1_555
C131_4 C117_3 1_555 1_555
C50_3 C55_3 1_555 1_555
C118_3 C131_4 1_555 1_555
Co1 Cl1_3 1_555 1_555
Co2_3 Cl2_2 1_555 1_555
B1 C9 1_555 1_555
N1 Co1 1_555 1_555
N2 Co1 1_555 1_555
N3 Co2_3 1_555 1_555
C1 N1 1_555 1_555
H1 C1 1_555 1_555
C2 C1 1_555 1_555
H2 C2 1_555 1_555
C3 C2 1_555 1_555
C4 C3 1_555 1_555
H3 C4 1_555 1_555
C5 N1 1_555 1_555
H4 C5 1_555 1_555
C6 C3 1_555 1_555
C7 C6 1_555 1_555
C8 C7 1_555 1_555
C9 C8 1_555 1_555
C11 C6 1_555 1_555
C12 C7 1_555 1_555
H5 C12 1_555 1_555
H6 C12 1_555 1_555
H7 C12 1_555 1_555
C13 C8 1_555 1_555
H8 C13 1_555 1_555
H9 C13 1_555 1_555
C16 B1 1_555 1_555
C22 C21 1_555 1_555
C23 C22 1_555 1_555
H23 C23 1_555 1_555
C24 N3 1_555 1_555
H24 C24 1_555 1_555
C25 N2 1_555 1_555
H25 C25 1_555 1_555
C26 C25 1_555 1_555
C27 C26 1_555 1_555
Cl3_3 Co1 1_555 1_555
N9_3 Co1 1_555 1_555
C145 N2 1_555 1_555
H153 C145 1_555 1_555
C150 C27 1_555 1_555
H158 C150 1_555 1_555
C4 C5 1_555 1_555
C23 C24 1_555 1_555
C145 C150 1_555 1_555
B1_2 C9_2 1_555 1_555
B2_2 C33 1_555 1_555
N1_2 Co1_2 1_555 1_555
N2_2 Co1_2 1_555 1_555
C1_2 N1_2 1_555 1_555
H1_2 C1_2 1_555 1_555
C2_2 C1_2 1_555 1_555
H2_2 C2_2 1_555 1_555
C3_2 C2_2 1_555 1_555
C4_2 C3_2 1_555 1_555
H3_2 C4_2 1_555 1_555
C5_2 N1_2 1_555 1_555
H4_2 C5_2 1_555 1_555
C6_2 C3_2 1_555 1_555
C7_2 C6_2 1_555 1_555
C8_2 C7_2 1_555 1_555
C9_2 C8_2 1_555 1_555
C10 C9_2 1_555 1_555
C11_2 C6_2 1_555 1_555
C12_2 C7_2 1_555 1_555
H5_2 C12_2 1_555 1_555
H6_2 C12_2 1_555 1_555
H7_2 C12_2 1_555 1_555
C13_2 C8_2 1_555 1_555
H8_2 C13_2 1_555 1_555
H9_2 C13_2 1_555 1_555
H10 C13_2 1_555 1_555
C14 C10 1_555 1_555
H11 C14 1_555 1_555
H12 C14 1_555 1_555
H13 C14 1_555 1_555
C15 C11_2 1_555 1_555
H14 C15 1_555 1_555
H15 C15 1_555 1_555
H16_2 C15 1_555 1_555
C16_2 B1_2 1_555 1_555
C17 C16_2 1_555 1_555
C18 C17 1_555 1_555
C19 C17 1_555 1_555
H17 C19 1_555 1_555
H18 C19 1_555 1_555
H19 C19 1_555 1_555
C20 C18 1_555 1_555
H21 C20 1_555 1_555
H22 C20 1_555 1_555
C21_2 C18 1_555 1_555
C25_2 N2_2 1_555 1_555
H25_2 C25_2 1_555 1_555
C26_2 C25_2 1_555 1_555
H26 C26_2 1_555 1_555
C27_2 C26_2 1_555 1_555
C28 C27_2 1_555 1_555
Cl3_4 Co1_2 1_555 1_555
N9_3 C34 1_555 1_555
C34 H33 1_555 1_555
C39 C34 1_555 1_555
H38 C39 1_555 1_555
C44 C39 1_555 1_555
C49 C44 1_555 1_555
H43 C49 1_555 1_555
C54 N9_3 1_555 1_555
H48 C54 1_555 1_555
C59 C44 1_555 1_555
C64 C59 1_555 1_555
C69 C64 1_555 1_555
C74 B1_2 1_555 1_555
C79 C74 1_555 1_555
C84 C59 1_555 1_555
C89 C64 1_555 1_555
H53 C89 1_555 1_555
H58 C89 1_555 1_555
H63 C89 1_555 1_555
C94 C69 1_555 1_555
H68 C94 1_555 1_555
H73 C94 1_555 1_555
H78 C94 1_555 1_555
C99 C79 1_555 1_555
H83 C99 1_555 1_555
H88 C99 1_555 1_555
H93 C99 1_555 1_555
C104 C84 1_555 1_555
H98 C104 1_555 1_555
H103 C104 1_555 1_555
H108 C104 1_555 1_555
C111 C16_2 1_555 1_555
C116 C21_2 1_555 1_555
C121 C111 1_555 1_555
H113 C121 1_555 1_555
H118 C121 1_555 1_555
H123 C121 1_555 1_555
C159 C28 1_555 1_555
C164 C33 1_555 1_555
C169 C159 1_555 1_555
H163 C169 1_555 1_555
H168 C169 1_555 1_555
H173 C169 1_555 1_555
C174 C164 1_555 1_555
H178 C174 1_555 1_555
H183 C174 1_555 1_555
C4_2 C5_2 1_555 1_555
C10 C11_2 1_555 1_555
C49 C54 1_555 1_555
C69 C74 1_555 1_555
C79 C84 1_555 1_555
C111 C116 1_555 1_555
C159 C164 1_555 1_555
N3_2 Co2_4 1_555 1_555
C16_3 B1_3 1_555 1_555
C22_2 C21_3 1_555 1_555
Cl8_2 Co2_4 1_555 1_555
C99_2 C79_2 1_555 1_555
H83_2 C99_2 1_555 1_555
H88_2 C99_2 1_555 1_555
H93_2 C99_2 1_555 1_555
H98_2 C104_2 1_555 1_555
H103_2 C104_2 1_555 1_555
C111_2 C16_3 1_555 1_555
C116_2 C21_3 1_555 1_555
C121_2 C111_2 1_555 1_555
H113_2 C121_2 1_555 1_555
H118_2 C121_2 1_555 1_555
H123_2 C121_2 1_555 1_555
C126 C116_2 1_555 1_555
H128 C126 1_555 1_555
H133_2 C126 1_555 1_555
H138 C126 1_555 1_555
C111_2 C116_2 1_555 1_555
B2_3 C33_2 1_555 1_555
C29 C28_2 1_555 1_555
C30 C29 1_555 1_555
C31 C29 1_555 1_555
H28 C31 1_555 1_555
H29 C31 1_555 1_555
C32 C30 1_555 1_555
H30 C32 1_555 1_555
H31 C32 1_555 1_555
H32 C32 1_555 1_555
C33_2 C30 1_555 1_555
Co9 N13 1_555 1_555
N13 C148 1_555 1_555
C148 H157 1_555 1_555
C149 N13 1_555 1_555
H156 C149 1_555 1_555
C153 C148 1_555 1_555
C154 C149 1_555 1_555
H161 C154 1_555 1_555
H162 C153 1_555 1_555
C156 C153 1_555 1_555
C158 C156 1_555 1_555
C159_2 C28_2 1_555 1_555
C160_2 C157_2 1_555 1_555
C161_2 C157_2 1_555 1_555
C162 C158 1_555 1_555
C163 C158 1_555 1_555
C164_2 C33_2 1_555 1_555
C165_2 C160_2 1_555 1_555
C166_2 C161_2 1_555 1_555
C167 C162 1_555 1_555
C168 C163 1_555 1_555
C169_2 C159_2 1_555 1_555
C170_2 C161_2 1_555 1_555
C171_2 C160_2 1_555 1_555
C172 C163 1_555 1_555
C173 C162 1_555 1_555
H163_2 C169_2 1_555 1_555
H164_2 C170_2 1_555 1_555
H166 C172 1_555 1_555
H167 C173 1_555 1_555
H168_2 C169_2 1_555 1_555
H169_2 C170_2 1_555 1_555
H170_2 C171_2 1_555 1_555
H171 C172 1_555 1_555
H172 C173 1_555 1_555
H173_2 C169_2 1_555 1_555
H174_2 C170_2 1_555 1_555
H175_2 C171_2 1_555 1_555
H176 C172 1_555 1_555
H177 C173 1_555 1_555
C174_2 C164_2 1_555 1_555
C175_2 C166_2 1_555 1_555
C176_2 C165_2 1_555 1_555
C177 C168 1_555 1_555
C178 C167 1_555 1_555
H178_2 C174_2 1_555 1_555
H179_2 C175_2 1_555 1_555
H180_2 C176_2 1_555 1_555
H181 C177 1_555 1_555
H182 C178 1_555 1_555
H183_2 C174_2 1_555 1_555
H184_2 C175_2 1_555 1_555
H185_2 C176_2 1_555 1_555
H186 C177 1_555 1_555
H187 C178 1_555 1_555
H188_2 C174_2 1_555 1_555
H189 C175_2 1_555 1_555
H190_2 C176_2 1_555 1_555
H191 C177 1_555 1_555
H192_2 C178 1_555 1_555
C179_2 B2_3 1_555 1_555
C180 B2_3 1_555 1_555
C154 C156 1_555 1_555
C159_2 C164_2 1_555 1_555
C165_2 C179_2 1_555 1_555
C166_2 C179_2 1_555 1_555
C167 C180 1_555 1_555
C168 C180 1_555 1_555
Co9 Cl6 1_555 1_555
N11 Co9 1_555 1_555
Co3 Cl4_2 1_555 1_555
N10_2 Co3 1_555 1_555
N14_2 Co3 1_555 1_555
B2_4 C33_3 1_555 1_555
C29_2 C28_3 1_555 1_555
C30_2 C29_2 1_555 1_555
C31_2 C29_2 1_555 1_555
H28_2 C31_2 1_555 1_555
H29_2 C31_2 1_555 1_555
C32_2 C30_2 1_555 1_555
H30_2 C32_2 1_555 1_555
H31_2 C32_2 1_555 1_555
H32_2 C32_2 1_555 1_555
C33_3 C30_2 1_555 1_555
N14_2 C148_2 1_555 1_555
C148_2 H157_2 1_555 1_555
C149_2 N14_2 1_555 1_555
H156_2 C149_2 1_555 1_555
C153_2 C148_2 1_555 1_555
C154_2 C149_2 1_555 1_555
H161_2 C154_2 1_555 1_555
H162_2 C153_2 1_555 1_555
C156_2 C153_2 1_555 1_555
C158_2 C156_2 1_555 1_555
C159_3 C28_3 1_555 1_555
C160_3 C157_3 1_555 1_555
C161_3 C157_3 1_555 1_555
C162_2 C158_2 1_555 1_555
C163_2 C158_2 1_555 1_555
C164_3 C33_3 1_555 1_555
C165_3 C160_3 1_555 1_555
C166_3 C161_3 1_555 1_555
C167_2 C162_2 1_555 1_555
C168_2 C163_2 1_555 1_555
C169_3 C159_3 1_555 1_555
C170_3 C161_3 1_555 1_555
C171_3 C160_3 1_555 1_555
C172_2 C163_2 1_555 1_555
C173_2 C162_2 1_555 1_555
H163_3 C169_3 1_555 1_555
H164_3 C170_3 1_555 1_555
H166_2 C172_2 1_555 1_555
H167_2 C173_2 1_555 1_555
H168_3 C169_3 1_555 1_555
H169_3 C170_3 1_555 1_555
H170_3 C171_3 1_555 1_555
H171_2 C172_2 1_555 1_555
H172_2 C173_2 1_555 1_555
H173_3 C169_3 1_555 1_555
H174_3 C170_3 1_555 1_555
H175_3 C171_3 1_555 1_555
H176_2 C172_2 1_555 1_555
H177_2 C173_2 1_555 1_555
C174_3 C164_3 1_555 1_555
C175_3 C166_3 1_555 1_555
C176_3 C165_3 1_555 1_555
C177_2 C168_2 1_555 1_555
C178_2 C167_2 1_555 1_555
H178_3 C174_3 1_555 1_555
H179_3 C175_3 1_555 1_555
H180_3 C176_3 1_555 1_555
H181_2 C177_2 1_555 1_555
H182_2 C178_2 1_555 1_555
H183_3 C174_3 1_555 1_555
H184_3 C175_3 1_555 1_555
H185_3 C176_3 1_555 1_555
H186_2 C177_2 1_555 1_555
H187_2 C178_2 1_555 1_555
H188_3 C174_3 1_555 1_555
H189_2 C175_3 1_555 1_555
H190_3 C176_3 1_555 1_555
H191_2 C177_2 1_555 1_555
H192_3 C178_2 1_555 1_555
C179_3 B2_4 1_555 1_555
C180_2 B2_4 1_555 1_555
C154_2 C156_2 1_555 1_555
C159_3 C164_3 1_555 1_555
C165_3 C179_3 1_555 1_555
C166_3 C179_3 1_555 1_555
C167_2 C180_2 1_555 1_555
C168_2 C180_2 1_555 1_555
Co1_3 Cl1_4 1_555 1_555
B2_5 C33_4 1_555 1_555
N2_3 Co1_3 1_555 1_555
C28_4 C27_3 1_555 1_555
C29_3 C28_4 1_555 1_555
C30_3 C29_3 1_555 1_555
C31_3 C29_3 1_555 1_555
H27_2 C31_3 1_555 1_555
H28_3 C31_3 1_555 1_555
H29_3 C31_3 1_555 1_555
C32_3 C30_3 1_555 1_555
H30_3 C32_3 1_555 1_555
H31_3 C32_3 1_555 1_555
H32_3 C32_3 1_555 1_555
C33_4 C30_3 1_555 1_555
Co9_2 N13_2 1_555 1_555
N9_4 Co1_3 1_555 1_555
N13_2 C148_3 1_555 1_555
C145_2 N2_3 1_555 1_555
C148_3 H157_3 1_555 1_555
H153_2 C145_2 1_555 1_555
C150_2 C27_3 1_555 1_555
C153_3 C148_3 1_555 1_555
H158_2 C150_2 1_555 1_555
H162_3 C153_3 1_555 1_555
C156_3 C153_3 1_555 1_555
C158_3 C156_3 1_555 1_555
C163_3 C158_3 1_555 1_555
C168_3 C163_3 1_555 1_555
C172_3 C163_3 1_555 1_555
H166_3 C172_3 1_555 1_555
H171_3 C172_3 1_555 1_555
H176_3 C172_3 1_555 1_555
C177_3 C168_3 1_555 1_555
H181_3 C177_3 1_555 1_555
H186_3 C177_3 1_555 1_555
H191_3 C177_3 1_555 1_555
C180_3 B2_5 1_555 1_555
C145_2 C150_2 1_555 1_555
C168_3 C180_3 1_555 1_555
Cl7 Co9_2 1_555 1_555
N7 Co9_2 1_555 1_555
N11 C38 1_555 1_555
C37 N7 1_555 1_555
C38 H37 1_555 1_555
H36_2 C37 1_555 1_555
C42 C37 1_555 1_555
C43 C38 1_555 1_555
H41 C42 1_555 1_555
H42 C43 1_555 1_555
C47 C42 1_555 1_555
C48 C43 1_555 1_555
C52 C47 1_555 1_555
H46 C52 1_555 1_555
C57 N7 1_555 1_555
H51 C57 1_555 1_555
C62 C47 1_555 1_555
C67 C62 1_555 1_555
C72 C67 1_555 1_555
C77 C72 1_555 1_555
C82 C77 1_555 1_555
C87 C62 1_555 1_555
C92 C67 1_555 1_555
H56 C92 1_555 1_555
H61 C92 1_555 1_555
H66 C92 1_555 1_555
C97 C72 1_555 1_555
H71 C97 1_555 1_555
H81 C97 1_555 1_555
C102 C82 1_555 1_555
C103 C83 1_555 1_555
H86 C102 1_555 1_555
H87 C103 1_555 1_555
H91 C102 1_555 1_555
H92 C103 1_555 1_555
H97 C103 1_555 1_555
C107 C87 1_555 1_555
C108 C88 1_555 1_555
H101 C107 1_555 1_555
H102 C108 1_555 1_555
H106 C107 1_555 1_555
H107 C108 1_555 1_555
H111 C107 1_555 1_555
H112 C108 1_555 1_555
C52 C57 1_555 1_555
C82 C87 1_555 1_555
C83 C88 1_555 1_555
C1_3 N10_2 1_555 1_555
H1_3 C1_3 1_555 1_555
C2_3 C1_3 1_555 1_555
H2_3 C2_3 1_555 1_555
C3_3 C2_3 1_555 1_555
C14_2 C10_2 1_555 1_555
H11_2 C14_2 1_555 1_555
H12_2 C14_2 1_555 1_555
H13_2 C14_2 1_555 1_555
C15_2 C11_3 1_555 1_555
H14_2 C15_2 1_555 1_555
H15_2 C15_2 1_555 1_555
H16_3 C15_2 1_555 1_555
N9_4 C34_2 1_555 1_555
C34_2 H33_3 1_555 1_555
C39_2 C34_2 1_555 1_555
H38_2 C39_2 1_555 1_555
C44_2 C39_2 1_555 1_555
C49_2 C44_2 1_555 1_555
H43_2 C49_2 1_555 1_555
C54_2 N9_4 1_555 1_555
H48_2 C54_2 1_555 1_555
C59_2 C44_2 1_555 1_555
C64_2 C59_2 1_555 1_555
C69_2 C64_2 1_555 1_555
C79_3 C74_2 1_555 1_555
C84_2 C59_2 1_555 1_555
C89_2 C64_2 1_555 1_555
H53_2 C89_2 1_555 1_555
H58_2 C89_2 1_555 1_555
H63_2 C89_2 1_555 1_555
C94_2 C69_2 1_555 1_555
H68_2 C94_2 1_555 1_555
H78_2 C94_2 1_555 1_555
C99_3 C79_3 1_555 1_555
H83_3 C99_3 1_555 1_555
H88_3 C99_3 1_555 1_555
C104_3 C84_2 1_555 1_555
H98_3 C104_3 1_555 1_555
H103_3 C104_3 1_555 1_555
H108_2 C104_3 1_555 1_555
C10_2 C11_3 1_555 1_555
C49_2 C54_2 1_555 1_555
C69_2 C74_2 1_555 1_555
C79_3 C84_2 1_555 1_555
Co2_5 Cl2_3 1_555 1_555
N17 Co2_5 1_555 1_555
C102_2 C82_2 1_555 1_555
H86_2 C102_2 1_555 1_555
H91_2 C102_2 1_555 1_555
H96 C102_2 1_555 1_555
H101_2 C107_2 1_555 1_555
H106_2 C107_2 1_555 1_555
C110 B4 1_555 1_555
C114 C110 1_555 1_555
C119 C114 1_555 1_555
C124 C114 1_555 1_555
H116 C124 1_555 1_555
H121 C124 1_555 1_555
H126 C124 1_555 1_555
C129 C119 1_555 1_555
H131 C129 1_555 1_555
H136 C129 1_555 1_555
H141 C129 1_555 1_555
C132 C119 1_555 1_555
C134 C132 1_555 1_555
Co7 N8 1_555 1_555
Cl8_3 Co2_6 1_555 1_555
N8 C38_2 1_555 1_555
N17_2 Co2_6 1_555 1_555
C38_2 H37_2 1_555 1_555
C43_2 C38_2 1_555 1_555
H42_2 C43_2 1_555 1_555
C48_2 C43_2 1_555 1_555
C53 C48_2 1_555 1_555
H47 C53 1_555 1_555
C58 N8 1_555 1_555
H52 C58 1_555 1_555
C63 C48_2 1_555 1_555
C68 C63 1_555 1_555
C73 C68 1_555 1_555
C78 B4_2 1_555 1_555
C88_2 C63 1_555 1_555
C93 C68 1_555 1_555
H57 C93 1_555 1_555
H62 C93 1_555 1_555
H67 C93 1_555 1_555
C98 C73 1_555 1_555
H72 C98 1_555 1_555
H77 C98 1_555 1_555
C110_2 B4_2 1_555 1_555
C134_2 C132_2 1_555 1_555
C139 C134_2 1_555 1_555
H147 C139 1_555 1_555
C144 N17_2 1_555 1_555
H152 C144 1_555 1_555
C53 C58 1_555 1_555
C73 C78 1_555 1_555
C139 C144 1_555 1_555
Co7 Cl4_3 1_555 1_555
Cl5_2 Co7 1_555 1_555
N10_3 Co7 1_555 1_555
N14_3 Co7 1_555 1_555
C25_3 N14_3 1_555 1_555
H25_3 C25_3 1_555 1_555
C26_3 C25_3 1_555 1_555
C27_4 C26_3 1_555 1_555
C145_3 N14_3 1_555 1_555
H153_3 C145_3 1_555 1_555
C150_3 C27_4 1_555 1_555
H158_3 C150_3 1_555 1_555
C145_3 C150_3 1_555 1_555
Co9_3 N13_3 1_555 1_555
C149_3 N13_3 1_555 1_555
H156_3 C149_3 1_555 1_555
C154_3 C149_3 1_555 1_555
H161_3 C154_3 1_555 1_555
C158_4 C156_4 1_555 1_555
C162_3 C158_4 1_555 1_555
C167_3 C162_3 1_555 1_555
C173_3 C162_3 1_555 1_555
H167_3 C173_3 1_555 1_555
H172_3 C173_3 1_555 1_555
H177_3 C173_3 1_555 1_555
C178_3 C167_3 1_555 1_555
H182_3 C178_3 1_555 1_555
H187_3 C178_3 1_555 1_555
C180_4 B2_6 1_555 1_555
C154_3 C156_4 1_555 1_555
C167_3 C180_4 1_555 1_555
Co9_3 Cl6_2 1_555 1_555
N11_2 Co9_3 1_555 1_555
B4_3 C77_2 1_555 1_555
N11_2 C38_3 1_555 1_555
C37_2 N10_3 1_555 1_555
C38_3 H37_3 1_555 1_555
H36_3 C37_2 1_555 1_555
C42_2 C37_2 1_555 1_555
C43_3 C38_3 1_555 1_555
H41_2 C42_2 1_555 1_555
H42_3 C43_3 1_555 1_555
C47_2 C42_2 1_555 1_555
C48_3 C43_3 1_555 1_555
C52_2 C47_2 1_555 1_555
C53_2 C48_3 1_555 1_555
H46_2 C52_2 1_555 1_555
H47_2 C53_2 1_555 1_555
C57_2 N10_3 1_555 1_555
C58_2 N11_2 1_555 1_555
H51_2 C57_2 1_555 1_555
H52_2 C58_2 1_555 1_555
C62_2 C47_2 1_555 1_555
C63_2 C48_3 1_555 1_555
C67_2 C62_2 1_555 1_555
C68_2 C63_2 1_555 1_555
C72_2 C67_2 1_555 1_555
C73_2 C68_2 1_555 1_555
C77_2 C72_2 1_555 1_555
C78_2 B4_3 1_555 1_555
C82_3 C77_2 1_555 1_555
C83_2 C78_2 1_555 1_555
C87_2 C62_2 1_555 1_555
C88_3 C63_2 1_555 1_555
C92_2 C67_2 1_555 1_555
C93_2 C68_2 1_555 1_555
H56_2 C92_2 1_555 1_555
H57_2 C93_2 1_555 1_555
H61_2 C92_2 1_555 1_555
H62_2 C93_2 1_555 1_555
H66_2 C92_2 1_555 1_555
H67_2 C93_2 1_555 1_555
C97_2 C72_2 1_555 1_555
C98_2 C73_2 1_555 1_555
H71_2 C97_2 1_555 1_555
H72_2 C98_2 1_555 1_555
H76 C97_2 1_555 1_555
H77_2 C98_2 1_555 1_555
H81_2 C97_2 1_555 1_555
H82_2 C98_2 1_555 1_555
C102_3 C82_3 1_555 1_555
C103_2 C83_2 1_555 1_555
H86_3 C102_3 1_555 1_555
H87_2 C103_2 1_555 1_555
H91_3 C102_3 1_555 1_555
H92_2 C103_2 1_555 1_555
H96_2 C102_3 1_555 1_555
H97_2 C103_2 1_555 1_555
C107_3 C87_2 1_555 1_555
C108_2 C88_3 1_555 1_555
H101_3 C107_3 1_555 1_555
H102_2 C108_2 1_555 1_555
H106_3 C107_3 1_555 1_555
H107_2 C108_2 1_555 1_555
H111_2 C107_3 1_555 1_555
H112_3 C108_2 1_555 1_555
C110_3 B4_3 1_555 1_555
C114_2 C110_3 1_555 1_555
C115 C110_3 1_555 1_555
C119_2 C114_2 1_555 1_555
C120 C115 1_555 1_555
C124_2 C114_2 1_555 1_555
C125 C115 1_555 1_555
H116_2 C124_2 1_555 1_555
H117 C125 1_555 1_555
H121_2 C124_2 1_555 1_555
H122 C125 1_555 1_555
H126_2 C124_2 1_555 1_555
H127 C125 1_555 1_555
C130 C120 1_555 1_555
H137 C130 1_555 1_555
H142 C130 1_555 1_555
C132_3 C119_2 1_555 1_555
C52_2 C57_2 1_555 1_555
C53_2 C58_2 1_555 1_555
C73_2 C78_2 1_555 1_555
C82_3 C87_2 1_555 1_555
C83_2 C88_3 1_555 1_555
C120 C132_3 1_555 1_555
Co2_7 Cl2_4 1_555 1_555
N3_3 Co2_7 1_555 1_555
C14_3 C10_3 1_555 1_555
H11_3 C14_3 1_555 1_555
H12_3 C14_3 1_555 1_555
H13_3 C14_3 1_555 1_555
H14_3 C15_3 1_555 1_555
H15_3 C15_3 1_555 1_555
C16_4 B1_4 1_555 1_555
C17_2 C16_4 1_555 1_555
C18_2 C17_2 1_555 1_555
C19_2 C17_2 1_555 1_555
H17_2 C19_2 1_555 1_555
H18_2 C19_2 1_555 1_555
H19_2 C19_2 1_555 1_555
C20_2 C18_2 1_555 1_555
H20 C20_2 1_555 1_555
H21_2 C20_2 1_555 1_555
H22_2 C20_2 1_555 1_555
C21_4 C18_2 1_555 1_555
C22_3 C21_4 1_555 1_555
B4_4 C77_3 1_555 1_555
N17_3 Co2_7 1_555 1_555
C37_3 N7_2 1_555 1_555
C42_3 C37_3 1_555 1_555
H41_3 C42_3 1_555 1_555
C47_3 C42_3 1_555 1_555
C52_3 C47_3 1_555 1_555
H46_3 C52_3 1_555 1_555
C57_3 N7_2 1_555 1_555
H51_3 C57_3 1_555 1_555
C62_3 C47_3 1_555 1_555
C67_3 C62_3 1_555 1_555
C72_3 C67_3 1_555 1_555
C77_3 C72_3 1_555 1_555
C87_3 C62_3 1_555 1_555
C92_3 C67_3 1_555 1_555
H56_3 C92_3 1_555 1_555
H61_3 C92_3 1_555 1_555
H66_3 C92_3 1_555 1_555
C97_3 C72_3 1_555 1_555
H71_3 C97_3 1_555 1_555
H76_2 C97_3 1_555 1_555
C110_4 B4_4 1_555 1_555
C134_3 C132_4 1_555 1_555
C138 C134_3 1_555 1_555
H146 C138 1_555 1_555
C143 N17_3 1_555 1_555
H151 C143 1_555 1_555
C52_3 C57_3 1_555 1_555
C138 C143 1_555 1_555
Co2_8 Cl2_5 1_555 1_555
N3_4 Co2_8 1_555 1_555
C23_2 C22_4 1_555 1_555
H23_2 C23_2 1_555 1_555
C24_2 N3_4 1_555 1_555
H24_2 C24_2 1_555 1_555
Cl8_4 Co2_8 1_555 1_555
N16_3 Co2_8 1_555 1_555
N17_4 Co2_8 1_555 1_555
H47_3 C53_3 1_555 1_555
H52_3 C58_3 1_555 1_555
C68_3 C63_3 1_555 1_555
C73_3 C68_3 1_555 1_555
C78_3 B4_5 1_555 1_555
C93_3 C68_3 1_555 1_555
H57_3 C93_3 1_555 1_555
H62_3 C93_3 1_555 1_555
H67_3 C93_3 1_555 1_555
C98_3 C73_3 1_555 1_555
H72_3 C98_3 1_555 1_555
H77_3 C98_3 1_555 1_555
H82_3 C98_3 1_555 1_555
C110_5 B4_5 1_555 1_555
C114_3 C110_5 1_555 1_555
C115_2 C110_5 1_555 1_555
C119_3 C114_3 1_555 1_555
C120_2 C115_2 1_555 1_555
C124_3 C114_3 1_555 1_555
C125_2 C115_2 1_555 1_555
H116_3 C124_3 1_555 1_555
H117_2 C125_2 1_555 1_555
H121_3 C124_3 1_555 1_555
H122_2 C125_2 1_555 1_555
H126_3 C124_3 1_555 1_555
H127_2 C125_2 1_555 1_555
C129_2 C119_3 1_555 1_555
C130_2 C120_2 1_555 1_555
H128_2 C126_2 1_555 1_555
H130_2 C128_3 1_555 1_555
H131_2 C129_2 1_555 1_555
H132 C130_2 1_555 1_555
H136_3 C129_2 1_555 1_555
H137_2 C130_2 1_555 1_555
H138_2 C126_2 1_555 1_555
H140_3 C128_3 1_555 1_555
H141_2 C129_2 1_555 1_555
H142_2 C130_2 1_555 1_555
C132_5 C119_3 1_555 1_555
C134_4 C132_5 1_555 1_555
C135 C22_4 1_555 1_555
C136_2 C133_3 1_555 1_555
C137_2 C133_3 1_555 1_555
C138_2 C134_4 1_555 1_555
C139_2 C134_4 1_555 1_555
H143 C135 1_555 1_555
H144_2 C136_2 1_555 1_555
H145_2 C137_2 1_555 1_555
H146_2 C138_2 1_555 1_555
H147_2 C139_2 1_555 1_555
C140 N3_4 1_555 1_555
C141_2 N16_3 1_555 1_555
C142_2 N16_3 1_555 1_555
C143_2 N17_4 1_555 1_555
C144_2 N17_4 1_555 1_555
H148 C140 1_555 1_555
H149_2 C141_2 1_555 1_555
H150_2 C142_2 1_555 1_555
H151_2 C143_2 1_555 1_555
H152_2 C144_2 1_555 1_555
C23_2 C24_2 1_555 1_555
C53_3 C58_3 1_555 1_555
C73_3 C78_3 1_555 1_555
C120_2 C132_5 1_555 1_555
C135 C140 1_555 1_555
C136_2 C141_2 1_555 1_555
C137_2 C142_2 1_555 1_555
C138_2 C143_2 1_555 1_555
C139_2 C144_2 1_555 1_555
N3_5 Co2_9 1_555 1_555
C16_5 B1_5 1_555 1_555
C22_5 C21_5 1_555 1_555
Cl8_5 Co2_9 1_555 1_555
N4 C34_3 1_555 1_555
N17_5 Co2_9 1_555 1_555
C39_3 C34_3 1_555 1_555
H38_3 C39_3 1_555 1_555
C44_3 C39_3 1_555 1_555
C49_3 C44_3 1_555 1_555
H43_3 C49_3 1_555 1_555
C54_3 N4 1_555 1_555
H48_3 C54_3 1_555 1_555
C59_3 C44_3 1_555 1_555
C64_3 C59_3 1_555 1_555
C69_3 C64_3 1_555 1_555
C74_3 B1_5 1_555 1_555
C84_3 C59_3 1_555 1_555
C89_3 C64_3 1_555 1_555
H53_3 C89_3 1_555 1_555
H58_3 C89_3 1_555 1_555
H63_3 C89_3 1_555 1_555
C94_3 C69_3 1_555 1_555
H68_3 C94_3 1_555 1_555
H73_2 C94_3 1_555 1_555
C103_3 C83_3 1_555 1_555
H87_3 C103_3 1_555 1_555
H92_3 C103_3 1_555 1_555
H97_3 C103_3 1_555 1_555
H102_3 C108_3 1_555 1_555
H107_3 C108_3 1_555 1_555
C110_6 B4_6 1_555 1_555
C115_3 C110_6 1_555 1_555
C120_3 C115_3 1_555 1_555
C125_3 C115_3 1_555 1_555
H117_3 C125_3 1_555 1_555
H122_3 C125_3 1_555 1_555
H127_3 C125_3 1_555 1_555
C130_3 C120_3 1_555 1_555
H132_2 C130_3 1_555 1_555
H137_3 C130_3 1_555 1_555
H142_3 C130_3 1_555 1_555
C134_5 C132_6 1_555 1_555
C135_2 C22_5 1_555 1_555
H143_2 C135_2 1_555 1_555
C140_2 N3_5 1_555 1_555
H148_2 C140_2 1_555 1_555
C49_3 C54_3 1_555 1_555
C69_3 C74_3 1_555 1_555
C120_3 C132_6 1_555 1_555
C135_2 C140_2 1_555 1_555
Co2_10 Cl2_6 1_555 1_555
B1_6 C9_3 1_555 1_555
N3_6 Co2_10 1_555 1_555
H3_3 C4_3 1_555 1_555
H4_3 C5_3 1_555 1_555
C7_3 C6_3 1_555 1_555
C8_3 C7_3 1_555 1_555
C9_3 C8_3 1_555 1_555
C12_3 C7_3 1_555 1_555
H5_3 C12_3 1_555 1_555
H6_3 C12_3 1_555 1_555
H7_3 C12_3 1_555 1_555
C13_3 C8_3 1_555 1_555
H8_3 C13_3 1_555 1_555
H9_3 C13_3 1_555 1_555
H10_3 C13_3 1_555 1_555
C16_6 B1_6 1_555 1_555
C17_3 C16_6 1_555 1_555
C18_3 C17_3 1_555 1_555
C19_3 C17_3 1_555 1_555
H17_3 C19_3 1_555 1_555
H18_3 C19_3 1_555 1_555
H19_3 C19_3 1_555 1_555
C20_3 C18_3 1_555 1_555
H20_3 C20_3 1_555 1_555
H21_3 C20_3 1_555 1_555
H22_3 C20_3 1_555 1_555
C21_6 C18_3 1_555 1_555
C22_6 C21_6 1_555 1_555
C23_3 C22_6 1_555 1_555
H23_3 C23_3 1_555 1_555
C24_3 N3_6 1_555 1_555
H24_3 C24_3 1_555 1_555
Cl8_6 Co2_10 1_555 1_555
N16_4 Co2_10 1_555 1_555
N17_6 Co2_10 1_555 1_555
C111_3 C16_6 1_555 1_555
C116_3 C21_6 1_555 1_555
C121_3 C111_3 1_555 1_555
H113_3 C121_3 1_555 1_555
H118_3 C121_3 1_555 1_555
H123_3 C121_3 1_555 1_555
C126_3 C116_3 1_555 1_555
H128_3 C126_3 1_555 1_555
H129_3 C127_3 1_555 1_555
H131_3 C129_3 1_555 1_555
H133_3 C126_3 1_555 1_555
H138_3 C126_3 1_555 1_555
H139_3 C127_3 1_555 1_555
H141_3 C129_3 1_555 1_555
C135_3 C22_6 1_555 1_555
C136_3 C133_4 1_555 1_555
C137_3 C133_4 1_555 1_555
C138_3 C134_6 1_555 1_555
C139_3 C134_6 1_555 1_555
H143_3 C135_3 1_555 1_555
H144_3 C136_3 1_555 1_555
H145_3 C137_3 1_555 1_555
H146_3 C138_3 1_555 1_555
H147_3 C139_3 1_555 1_555
C140_3 N3_6 1_555 1_555
C141_3 N16_4 1_555 1_555
C142_3 N16_4 1_555 1_555
C143_3 N17_6 1_555 1_555
C144_3 N17_6 1_555 1_555
H148_3 C140_3 1_555 1_555
H149_3 C141_3 1_555 1_555
H150_3 C142_3 1_555 1_555
H151_3 C143_3 1_555 1_555
H152_3 C144_3 1_555 1_555
C4_3 C5_3 1_555 1_555
C23_3 C24_3 1_555 1_555
C111_3 C116_3 1_555 1_555
C135_3 C140_3 1_555 1_555
C136_3 C141_3 1_555 1_555
C137_3 C142_3 1_555 1_555
C138_3 C143_3 1_555 1_555
C139_3 C144_3 1_555 1_555

#END
