
###############################################################################
#
# This file contains modified crystal structure data generated from the
# MOF subset of the Cambridge Structural Database (CSD) v543 
# hosted by the Cambridge Crystallographic Data Centre (CCDC).
#
# This work is licensed under the Creative Commons
# Attribution-NonCommercial-ShareAlike 4.0 International License.
# To view a copy of this license, visit
# http://creativecommons.org/licenses/by-nc-sa/4.0/
# or send a letter to
# Creative Commons, PO Box 1866, Mountain View, CA 94042, USA.
#
# CIF created using the CSD Python API on 29 September 2022
# The structure has been converted into the P1 space group
# The structure has a 3D framework
# The original CSD entry SOBZEQ is in the monoclinic crystal system
# The framework has been calculated to contain at least 10.0% void space
# The void calculation uses a probe of radius 1.32A, grid spacing 0.4
#
###############################################################################

data_SOBZEQ
_chemical_formula_moiety         '(C96 H104 Ca4 Cd2 N8 O42)n'
_symmetry_cell_setting           triclinic
_symmetry_space_group_name_H-M   'P 1'
_symmetry_Int_Tables_number      1
_space_group_name_Hall           'P 1'
loop_
_symmetry_equiv_pos_site_id
_symmetry_equiv_pos_as_xyz
1 x,y,z
_cell_length_a                   14.2767(4)
_cell_length_b                   13.9129(3)
_cell_length_c                   18.6230(5)
_cell_angle_alpha                90
_cell_angle_beta                 94.191(2)
_cell_angle_gamma                90
_cell_volume                     3689.2
loop_
_atom_site_label
_atom_site_type_symbol
_atom_site_fract_x
_atom_site_fract_y
_atom_site_fract_z
C19 C 0.4123(5) 0.6107(7) 0.0138(5)
H11 H 0.3957 0.5498 0.0335
H12 H 0.4445 0.6489 0.0508
C20 C 0.2544(6) 0.6832(8) 0.0531(3)
H13 H 0.2020 0.7199 0.0328
H14 H 0.2870 0.7192 0.0912
H15 H 0.2322 0.6239 0.0720
H26 H 0.0491 0.7672 0.0225
Cd1 Cd 0.502580(14) 0.543005(14) 0.226420(11)
Ca1 Ca 0.08458(4) 0.79805(4) 0.87205(3)
C1 C 0.3017(2) 0.7040(2) 0.33047(16)
C2 C 0.2376(2) 0.7683(2) 0.29802(16)
H1 H 0.2365 0.7803 0.2488
C3 C 0.1751(2) 0.8143(2) 0.34000(16)
C4 C 0.1732(2) 0.7908(2) 0.41222(17)
H2 H 0.1290 0.8200 0.4393
C5 C 0.2354(2) 0.7248(2) 0.44532(16)
C6 C 0.3014(2) 0.6836(2) 0.40320(16)
H3 H 0.3459 0.6415 0.4243
C7 C 0.2329(2) 0.7010(2) 0.52343(16)
C8 C 0.2828(2) 0.6226(2) 0.55409(16)
H4 H 0.3151 0.5820 0.5248
C9 C 0.2849(2) 0.6046(2) 0.62735(16)
C10 C 0.2349(2) 0.6627(2) 0.67125(16)
H5 H 0.2362 0.6508 0.7204
C11 C 0.1829(2) 0.7388(2) 0.64152(16)
C12 C 0.1833(2) 0.7569(2) 0.56848(16)
H6 H 0.1488 0.8086 0.5491
C13 C 0.3728(2) 0.6562(2) 0.28704(16)
C14 C 0.1115(2) 0.8927(2) 0.30919(17)
C15 C 0.3463(2) 0.5244(2) 0.65947(17)
C16 C 0.1271(2) 0.8025(2) 0.68741(16)
C17 C 0.2933(5) 0.6916(4) 0.9382(5)
C18 C 0.3640(4) 0.6703(7) 0.8769(4)
H7 H 0.4186 0.6377 0.8978
H8 H 0.3823 0.7298 0.8560
H9 H 0.3332 0.6305 0.8402
H10 H 0.4526 0.6006 0.9754
H19 H 0.0025 0.6577 0.7316
O1 O 0.44785(14) 0.62474(14) 0.32118(11)
O2 O 0.02729(19) 0.8077(2) 0.98743(13)
O3 O 0.35836(17) 0.64669(17) 0.22084(12)
O4 O 0.11098(17) 0.91236(17) 0.24362(12)
O5 O 0.06242(17) 0.93607(16) 0.35190(13)
O6 O 0.07936(17) 0.86689(16) 0.65469(12)
O7 O 0.13009(17) 0.78934(16) 0.75380(12)
O8 O 0.37391(17) 0.53466(16) 0.72435(12)
O9 O 0.36592(19) 0.45658(15) 0.62011(13)
O10 O 0.2191(2) 0.7321(2) 0.92178(16)
O11 O 0.0061(2) 0.65677(18) 0.84864(17)
N1 N 0.3302(4) 0.6589(4) 0.9869(4)
Cd3 Cd 0.497420(14) 0.456995(14) 0.773580(11)
Cd4 Cd 0.002580(14) 0.956995(14) 0.726420(11)
Ca2 Ca 0.41542(4) 0.29805(4) 0.62795(3)
Ca3 Ca 0.58458(4) 0.70195(4) 0.37205(3)
O13 O 0.38902(17) 0.41236(17) 0.25638(12)
O14 O 0.43758(17) 0.43607(16) 0.14810(13)
O15 O 0.57936(17) 0.63311(16) 0.15469(12)
O16 O 0.62609(17) 0.46534(16) 0.27565(12)
O17 O 0.13408(19) 0.95658(15) 0.87989(13)
Cd2 Cd 0.997420(14) 0.043005(14) 0.273580(11)
C21 C 0.9477(3) 0.5947(3) 0.8357(4)
C22 C 0.9011(4) 0.5462(3) 0.9027(4)
H16 H 0.9275 0.5742 0.9467
H17 H 0.9133 0.4783 0.9030
H18 H 0.8345 0.5570 0.8984
C23 C 0.9564(5) 0.6113(4) 0.7143(3)
H20 H 0.9069 0.6432 0.6859
H21 H 0.9854 0.5645 0.6852
C24 C 0.8445(4) 0.4879(4) 0.7640(4)
H22 H 0.8273 0.4630 0.8093
H23 H 0.8687 0.4368 0.7362
H24 H 0.7902 0.5153 0.7383
H25 H 0.9837 0.8520 0.9965
N2 N 0.9168(3) 0.5623(3) 0.7769(4)
O12 O 0.94785(14) 0.87526(14) 0.82118(11)
C1_2 C 0.1983(2) 0.2040(2) 0.16953(16)
C2_2 C 0.2624(2) 0.2683(2) 0.20198(16)
H1_2 H 0.2635 0.2803 0.2512
C3_2 C 0.3249(2) 0.3143(2) 0.16000(16)
C4_2 C 0.3268(2) 0.2908(2) 0.08778(17)
H2_2 H 0.3710 0.3200 0.0607
C5_2 C 0.2646(2) 0.2248(2) 0.05468(16)
C6_2 C 0.1986(2) 0.1836(2) 0.09680(16)
H3_2 H 0.1541 0.1415 0.0757
C13_2 C 0.1272(2) 0.1562(2) 0.21296(16)
C14_2 C 0.3885(2) 0.3927(2) 0.19081(17)
O1_2 O 0.05215(14) 0.12474(14) 0.17882(11)
O3_2 O 0.14164(17) 0.14669(17) 0.27916(12)
C7_2 C 0.2671(2) 0.2010(2) 0.97657(16)
C8_2 C 0.2172(2) 0.1226(2) 0.94591(16)
H4_2 H 0.1849 0.0820 0.9752
C9_2 C 0.2151(2) 0.1046(2) 0.87265(16)
C10_2 C 0.2651(2) 0.1627(2) 0.82875(16)
H5_2 H 0.2638 0.1508 0.7796
C11_2 C 0.3171(2) 0.2388(2) 0.85848(16)
C12_2 C 0.3167(2) 0.2569(2) 0.93152(16)
H6_2 H 0.3512 0.3086 0.9509
C15_2 C 0.1537(2) 0.0244(2) 0.84053(17)
C16_2 C 0.3729(2) 0.3025(2) 0.81259(16)
C17_2 C 0.2067(5) 0.1916(4) 0.5618(5)
C18_2 C 0.1360(4) 0.1703(7) 0.6231(4)
H7_2 H 0.0814 0.1377 0.6022
H8_2 H 0.1177 0.2298 0.6440
H9_2 H 0.1668 0.1305 0.6598
C19_2 C 0.0877(5) 0.1107(7) 0.4862(5)
H10_2 H 0.0474 0.1006 0.5246
H11_2 H 0.1043 0.0498 0.4665
H12_2 H 0.0555 0.1489 0.4492
C20_2 C 0.2456(6) 0.1832(8) 0.4469(3)
H13_2 H 0.2980 0.2199 0.4672
H14_2 H 0.2130 0.2192 0.4088
H15_2 H 0.2678 0.1239 0.4280
C21_2 C 0.5523(3) 0.0947(3) 0.6643(4)
C22_2 C 0.5989(4) 0.0462(3) 0.5973(4)
H16_2 H 0.5725 0.0742 0.5533
H18_2 H 0.6655 0.0570 0.6016
C23_2 C 0.5436(5) 0.1113(4) 0.7857(3)
H19_2 H 0.4975 0.1577 0.7684
H20_2 H 0.5931 0.1432 0.8141
H21_2 H 0.5146 0.0645 0.8148
H24_2 H 0.7098 0.0153 0.7617
O2_2 O 0.47271(19) 0.3077(2) 0.51257(13)
H25_2 H 0.5163 0.3520 0.5035
H26_2 H 0.4509 0.2672 0.4775
O6_2 O 0.42064(17) 0.36689(16) 0.84531(12)
O7_2 O 0.36991(17) 0.28934(16) 0.74620(12)
O8_2 O 0.12609(17) 0.03466(16) 0.77565(12)
O10_2 O 0.2809(2) 0.2321(2) 0.57822(16)
O11_2 O 0.4939(2) 0.15677(18) 0.65136(17)
N1_2 N 0.1698(4) 0.1589(4) 0.5131(4)
N2_2 N 0.5832(3) 0.0623(3) 0.7231(4)
O12_2 O 0.55215(14) 0.37526(14) 0.67882(11)
H17_2 H 0.5867 0.9783 0.5970
C24_2 C 0.6555(4) 0.9879(4) 0.7360(4)
H22_2 H 0.6727 0.9630 0.6907
H23_2 H 0.6313 0.9368 0.7638
Ca3_2 Ca 0.91542(4) 0.20195(4) 0.12795(3)
O15_2 O 0.92064(17) 0.13311(16) 0.34531(12)
O16_2 O 0.87391(17) 0.96534(16) 0.22435(12)
C21_3 C 0.0523(3) 0.4053(3) 0.1643(4)
C22_3 C 0.0989(4) 0.4538(3) 0.0973(4)
H16_3 H 0.0725 0.4258 0.0533
H17_3 H 0.0867 0.5217 0.0970
H18_3 H 0.1655 0.4430 0.1016
C23_3 C 0.0436(5) 0.3887(4) 0.2857(3)
H20_3 H 0.0931 0.3568 0.3141
H21_3 H 0.0146 0.4355 0.3148
C24_3 C 0.1555(4) 0.5121(4) 0.2360(4)
H22_3 H 0.1727 0.5370 0.1907
H23_3 H 0.1313 0.5632 0.2638
H24_3 H 0.2098 0.4847 0.2617
H25_3 H 0.0163 0.1480 0.0035
N2_3 N 0.0832(3) 0.4377(3) 0.2231(4)
C1_3 C 0.6983(2) 0.2960(2) 0.66953(16)
C2_3 C 0.7624(2) 0.2317(2) 0.70198(16)
H1_3 H 0.7635 0.2197 0.7512
C3_3 C 0.8249(2) 0.1857(2) 0.66000(16)
C4_3 C 0.8268(2) 0.2092(2) 0.58778(17)
H2_3 H 0.8710 0.1800 0.5607
C5_3 C 0.7646(2) 0.2752(2) 0.55468(16)
C6_3 C 0.6986(2) 0.3164(2) 0.59680(16)
H3_3 H 0.6541 0.3585 0.5757
C7_3 C 0.7671(2) 0.2990(2) 0.47657(16)
C8_3 C 0.7172(2) 0.3774(2) 0.44591(16)
H4_3 H 0.6849 0.4180 0.4752
C9_3 C 0.7151(2) 0.3954(2) 0.37265(16)
C10_3 C 0.7651(2) 0.3373(2) 0.32875(16)
H5_3 H 0.7638 0.3492 0.2796
C11_3 C 0.8171(2) 0.2612(2) 0.35848(16)
C12_3 C 0.8167(2) 0.2431(2) 0.43152(16)
H6_3 H 0.8512 0.1914 0.4509
C13_3 C 0.6272(2) 0.3438(2) 0.71296(16)
C14_3 C 0.8885(2) 0.1073(2) 0.69081(17)
C15_3 C 0.6537(2) 0.4756(2) 0.34053(17)
C16_3 C 0.8729(2) 0.1975(2) 0.31259(16)
C17_3 C 0.7067(5) 0.3084(4) 0.0618(5)
C18_3 C 0.6360(4) 0.3297(7) 0.1231(4)
H7_3 H 0.5814 0.3623 0.1022
H8_3 H 0.6177 0.2702 0.1440
H9_3 H 0.6668 0.3695 0.1598
H10_3 H 0.5474 0.3994 0.0246
H19_3 H 0.9975 0.3423 0.2684
O2_3 O 0.97271(19) 0.1923(2) 0.01257(13)
O3_3 O 0.64164(17) 0.35331(17) 0.77916(12)
O4_2 O 0.88902(17) 0.08764(17) 0.75638(12)
O5_2 O 0.93758(17) 0.06393(16) 0.64810(13)
O7_3 O 0.86991(17) 0.21066(16) 0.24620(12)
O9_2 O 0.63408(19) 0.54342(15) 0.37989(13)
O10_3 O 0.7809(2) 0.2679(2) 0.07822(16)
O11_3 O 0.9939(2) 0.34323(18) 0.15136(17)
N1_3 N 0.6698(4) 0.3411(4) 0.0131(4)
O13_2 O 0.61098(17) 0.58764(17) 0.74362(12)
O14_2 O 0.56242(17) 0.56393(16) 0.85190(13)
O17_2 O 0.86592(19) 0.04342(15) 0.12011(13)
H17_4 H 0.4133 0.0217 0.4030
C24_4 C 0.3445(4) 0.0121(4) 0.2640(4)
H22_4 H 0.3273 0.0370 0.3093
H23_4 H 0.3687 0.0632 0.2362
C7_4 C 0.7329(2) 0.7990(2) 0.02343(16)
C8_4 C 0.7828(2) 0.8774(2) 0.05409(16)
H4_4 H 0.8151 0.9180 0.0248
C9_4 C 0.7849(2) 0.8954(2) 0.12735(16)
C10_4 C 0.7349(2) 0.8373(2) 0.17125(16)
H5_4 H 0.7362 0.8492 0.2204
C11_4 C 0.6829(2) 0.7612(2) 0.14152(16)
C12_4 C 0.6833(2) 0.7431(2) 0.06848(16)
H6_4 H 0.6488 0.6914 0.0491
C15_4 C 0.8463(2) 0.9756(2) 0.15947(17)
C16_4 C 0.6271(2) 0.6975(2) 0.18741(16)
C17_4 C 0.7933(5) 0.8084(4) 0.4382(5)
C18_4 C 0.8640(4) 0.8297(7) 0.3769(4)
H7_4 H 0.9186 0.8623 0.3978
H8_4 H 0.8823 0.7702 0.3560
H9_4 H 0.8332 0.8695 0.3402
C19_3 C 0.9123(5) 0.8893(7) 0.5138(5)
H10_4 H 0.9526 0.8994 0.4754
H11_3 H 0.8957 0.9502 0.5335
H12_3 H 0.9445 0.8511 0.5508
C20_3 C 0.7544(6) 0.8168(8) 0.5531(3)
H13_3 H 0.7020 0.7801 0.5328
H14_3 H 0.7870 0.7808 0.5912
H15_3 H 0.7322 0.8761 0.5720
C21_4 C 0.4477(3) 0.9053(3) 0.3357(4)
C22_4 C 0.4011(4) 0.9538(3) 0.4027(4)
H16_4 H 0.4275 0.9258 0.4467
H18_4 H 0.3345 0.9430 0.3984
C23_4 C 0.4564(5) 0.8887(4) 0.2143(3)
H19_4 H 0.5025 0.8423 0.2316
H20_4 H 0.4069 0.8568 0.1859
H21_4 H 0.4854 0.9355 0.1852
H24_4 H 0.2902 0.9847 0.2383
O2_4 O 0.52729(19) 0.6923(2) 0.48743(13)
H25_4 H 0.4837 0.6480 0.4965
H26_3 H 0.5491 0.7328 0.5225
O7_4 O 0.63009(17) 0.71066(16) 0.25380(12)
O10_4 O 0.7191(2) 0.7679(2) 0.42178(16)
O11_4 O 0.5061(2) 0.84323(18) 0.34864(17)
N1_4 N 0.8302(4) 0.8411(4) 0.4869(4)
N2_4 N 0.4168(3) 0.9377(3) 0.2769(4)
C1_4 C 0.8017(2) 0.7960(2) 0.83047(16)
C2_4 C 0.7376(2) 0.7317(2) 0.79802(16)
H1_4 H 0.7365 0.7197 0.7488
C3_4 C 0.6751(2) 0.6857(2) 0.84000(16)
C4_4 C 0.6732(2) 0.7092(2) 0.91222(17)
H2_4 H 0.6290 0.6800 0.9393
C5_4 C 0.7354(2) 0.7752(2) 0.94532(16)
C6_4 C 0.8014(2) 0.8164(2) 0.90320(16)
H3_4 H 0.8459 0.8585 0.9243
C13_4 C 0.8728(2) 0.8438(2) 0.78704(16)
C14_4 C 0.6115(2) 0.6073(2) 0.80919(17)
O3_4 O 0.85836(17) 0.85331(17) 0.72084(12)
C19_4 C 0.5877(5) 0.3893(7) 0.9862(5)
H11_4 H 0.6043 0.4502 0.9665
H12_4 H 0.5555 0.3511 0.9492
C20_4 C 0.7456(6) 0.3168(8) 0.9469(3)
H13_4 H 0.7980 0.2801 0.9672
H14_4 H 0.7130 0.2808 0.9088
H15_4 H 0.7678 0.3761 0.9280
H26_4 H 0.9509 0.2328 0.9775
loop_
_geom_bond_atom_site_label_1
_geom_bond_atom_site_label_2
_geom_bond_site_symmetry_1
_geom_bond_site_symmetry_2
H11 C19 1_555 1_555
H12 C19 1_555 1_555
C20 H13 1_555 1_555
H14 C20 1_555 1_555
H15 C20 1_555 1_555
Cd1 O1 1_555 1_555
Ca1 O2 1_555 1_555
C1 C2 1_555 1_555
C2 H1 1_555 1_555
C3 C2 1_555 1_555
C4 C3 1_555 1_555
H2 C4 1_555 1_555
C5 C4 1_555 1_555
C6 C1 1_555 1_555
H3 C6 1_555 1_555
C7 C5 1_555 1_555
C8 C7 1_555 1_555
H4 C8 1_555 1_555
C9 C8 1_555 1_555
C10 C9 1_555 1_555
H5 C10 1_555 1_555
C11 C10 1_555 1_555
C12 C7 1_555 1_555
H6 C12 1_555 1_555
C13 C1 1_555 1_555
C14 C3 1_555 1_555
C15 C9 1_555 1_555
C16 C11 1_555 1_555
C17 C18 1_555 1_555
C18 H7 1_555 1_555
H8 C18 1_555 1_555
H9 C18 1_555 1_555
O1 C13 1_555 1_555
O3 Cd1 1_555 1_555
O4 C14 1_555 1_555
O5 C14 1_555 1_555
O6 C16 1_555 1_555
O7 Ca1 1_555 1_555
O8 C15 1_555 1_555
O9 C15 1_555 1_555
O10 Ca1 1_555 1_555
O11 Ca1 1_555 1_555
N1 C17 1_555 1_555
Cd3 O8 1_555 1_555
Cd4 O6 1_555 1_555
Ca2 O9 1_555 1_555
Ca3 O1 1_555 1_555
O13 Cd1 1_555 1_555
O14 Cd1 1_555 1_555
O15 Cd1 1_555 1_555
O16 Cd1 1_555 1_555
O17 Ca1 1_555 1_555
C5 C6 1_555 1_555
C11 C12 1_555 1_555
C13 O3 1_555 1_555
C16 O7 1_555 1_555
C17 O10 1_555 1_555
C21 C22 1_555 1_555
C22 H16 1_555 1_555
H17 C22 1_555 1_555
H18 C22 1_555 1_555
H20 C23 1_555 1_555
H21 C23 1_555 1_555
C24 H22 1_555 1_555
H23 C24 1_555 1_555
H24 C24 1_555 1_555
N2 C21 1_555 1_555
C23 N2 1_555 1_555
C24 N2 1_555 1_555
C1_2 C2_2 1_555 1_555
C2_2 H1_2 1_555 1_555
C3_2 C2_2 1_555 1_555
C4_2 C3_2 1_555 1_555
H2_2 C4_2 1_555 1_555
C5_2 C4_2 1_555 1_555
C6_2 C1_2 1_555 1_555
H3_2 C6_2 1_555 1_555
C13_2 C1_2 1_555 1_555
C14_2 C3_2 1_555 1_555
O1_2 C13_2 1_555 1_555
O13 C14_2 1_555 1_555
O14 C14_2 1_555 1_555
C5_2 C6_2 1_555 1_555
C13_2 O3_2 1_555 1_555
Ca2 O2_2 1_555 1_555
C8_2 C7_2 1_555 1_555
H4_2 C8_2 1_555 1_555
C9_2 C8_2 1_555 1_555
C10_2 C9_2 1_555 1_555
H5_2 C10_2 1_555 1_555
C11_2 C10_2 1_555 1_555
C12_2 C7_2 1_555 1_555
H6_2 C12_2 1_555 1_555
C15_2 C9_2 1_555 1_555
C16_2 C11_2 1_555 1_555
C17_2 C18_2 1_555 1_555
C18_2 H7_2 1_555 1_555
H8_2 C18_2 1_555 1_555
H9_2 C18_2 1_555 1_555
C19_2 H10_2 1_555 1_555
H11_2 C19_2 1_555 1_555
H12_2 C19_2 1_555 1_555
C20_2 H13_2 1_555 1_555
H14_2 C20_2 1_555 1_555
H15_2 C20_2 1_555 1_555
C21_2 C22_2 1_555 1_555
C22_2 H16_2 1_555 1_555
H18_2 C22_2 1_555 1_555
C23_2 H19_2 1_555 1_555
H20_2 C23_2 1_555 1_555
H21_2 C23_2 1_555 1_555
O2_2 H25_2 1_555 1_555
H26_2 O2_2 1_555 1_555
O6_2 C16_2 1_555 1_555
O7_2 Ca2 1_555 1_555
O8_2 C15_2 1_555 1_555
O10_2 Ca2 1_555 1_555
O11_2 Ca2 1_555 1_555
N1_2 C17_2 1_555 1_555
N2_2 C21_2 1_555 1_555
Cd3 O6_2 1_555 1_555
O12_2 Ca2 1_555 1_555
C11_2 C12_2 1_555 1_555
C16_2 O7_2 1_555 1_555
C17_2 O10_2 1_555 1_555
C19_2 N1_2 1_555 1_555
C20_2 N1_2 1_555 1_555
C21_2 O11_2 1_555 1_555
C23_2 N2_2 1_555 1_555
Cd3 O12_2 1_555 1_555
C24_2 H22_2 1_555 1_555
H23_2 C24_2 1_555 1_555
O15_2 Cd2 1_555 1_555
C21_3 C22_3 1_555 1_555
C22_3 H16_3 1_555 1_555
H17_3 C22_3 1_555 1_555
H18_3 C22_3 1_555 1_555
H20_3 C23_3 1_555 1_555
H21_3 C23_3 1_555 1_555
C24_3 H22_3 1_555 1_555
H23_3 C24_3 1_555 1_555
H24_3 C24_3 1_555 1_555
N2_3 C21_3 1_555 1_555
C23_3 N2_3 1_555 1_555
C24_3 N2_3 1_555 1_555
Ca3_2 O2_3 1_555 1_555
C1_3 C2_3 1_555 1_555
C2_3 H1_3 1_555 1_555
C3_3 C2_3 1_555 1_555
C4_3 C3_3 1_555 1_555
H2_3 C4_3 1_555 1_555
C5_3 C4_3 1_555 1_555
C6_3 C1_3 1_555 1_555
H3_3 C6_3 1_555 1_555
C7_3 C5_3 1_555 1_555
C8_3 C7_3 1_555 1_555
H4_3 C8_3 1_555 1_555
C9_3 C8_3 1_555 1_555
C10_3 C9_3 1_555 1_555
H5_3 C10_3 1_555 1_555
C11_3 C10_3 1_555 1_555
C12_3 C7_3 1_555 1_555
H6_3 C12_3 1_555 1_555
C13_3 C1_3 1_555 1_555
C14_3 C3_3 1_555 1_555
C15_3 C9_3 1_555 1_555
C16_3 C11_3 1_555 1_555
C17_3 C18_3 1_555 1_555
C18_3 H7_3 1_555 1_555
H8_3 C18_3 1_555 1_555
H9_3 C18_3 1_555 1_555
O12_2 C13_3 1_555 1_555
O3_3 Cd3 1_555 1_555
O4_2 C14_3 1_555 1_555
O5_2 C14_3 1_555 1_555
O15_2 C16_3 1_555 1_555
O7_3 Ca3_2 1_555 1_555
O16 C15_3 1_555 1_555
O9_2 C15_3 1_555 1_555
O10_3 Ca3_2 1_555 1_555
O11_3 Ca3_2 1_555 1_555
N1_3 C17_3 1_555 1_555
Ca3 O9_2 1_555 1_555
O13_2 Cd3 1_555 1_555
O14_2 Cd3 1_555 1_555
O17_2 Ca3_2 1_555 1_555
C5_3 C6_3 1_555 1_555
C11_3 C12_3 1_555 1_555
C13_3 O3_3 1_555 1_555
C16_3 O7_3 1_555 1_555
C17_3 O10_3 1_555 1_555
C24_4 H22_4 1_555 1_555
H23_4 C24_4 1_555 1_555
Ca3 O2_4 1_555 1_555
C8_4 C7_4 1_555 1_555
H4_4 C8_4 1_555 1_555
C9_4 C8_4 1_555 1_555
C10_4 C9_4 1_555 1_555
H5_4 C10_4 1_555 1_555
C11_4 C10_4 1_555 1_555
C12_4 C7_4 1_555 1_555
H6_4 C12_4 1_555 1_555
C15_4 C9_4 1_555 1_555
C16_4 C11_4 1_555 1_555
C17_4 C18_4 1_555 1_555
C18_4 H7_4 1_555 1_555
H8_4 C18_4 1_555 1_555
H9_4 C18_4 1_555 1_555
C19_3 H10_4 1_555 1_555
H11_3 C19_3 1_555 1_555
H12_3 C19_3 1_555 1_555
C20_3 H13_3 1_555 1_555
H14_3 C20_3 1_555 1_555
H15_3 C20_3 1_555 1_555
C21_4 C22_4 1_555 1_555
C22_4 H16_4 1_555 1_555
H18_4 C22_4 1_555 1_555
C23_4 H19_4 1_555 1_555
H20_4 C23_4 1_555 1_555
H21_4 C23_4 1_555 1_555
O2_4 H25_4 1_555 1_555
H26_3 O2_4 1_555 1_555
O15 C16_4 1_555 1_555
O7_4 Ca3 1_555 1_555
O16_2 C15_4 1_555 1_555
O10_4 Ca3 1_555 1_555
O11_4 Ca3 1_555 1_555
N1_4 C17_4 1_555 1_555
N2_4 C21_4 1_555 1_555
C11_4 C12_4 1_555 1_555
C16_4 O7_4 1_555 1_555
C17_4 O10_4 1_555 1_555
C19_3 N1_4 1_555 1_555
C20_3 N1_4 1_555 1_555
C21_4 O11_4 1_555 1_555
C23_4 N2_4 1_555 1_555
C1_4 C2_4 1_555 1_555
C2_4 H1_4 1_555 1_555
C3_4 C2_4 1_555 1_555
C4_4 C3_4 1_555 1_555
H2_4 C4_4 1_555 1_555
C5_4 C4_4 1_555 1_555
C6_4 C1_4 1_555 1_555
H3_4 C6_4 1_555 1_555
C13_4 C1_4 1_555 1_555
C14_4 C3_4 1_555 1_555
O12 C13_4 1_555 1_555
O13_2 C14_4 1_555 1_555
O14_2 C14_4 1_555 1_555
C5_4 C6_4 1_555 1_555
C13_4 O3_4 1_555 1_555
H11_4 C19_4 1_555 1_555
H12_4 C19_4 1_555 1_555
C20_4 H13_4 1_555 1_555
H14_4 C20_4 1_555 1_555
H15_4 C20_4 1_555 1_555

#END
