
###############################################################################
#
# This file contains modified crystal structure data generated from the
# MOF subset of the Cambridge Structural Database (CSD) v543 
# hosted by the Cambridge Crystallographic Data Centre (CCDC).
#
# This work is licensed under the Creative Commons
# Attribution-NonCommercial-ShareAlike 4.0 International License.
# To view a copy of this license, visit
# http://creativecommons.org/licenses/by-nc-sa/4.0/
# or send a letter to
# Creative Commons, PO Box 1866, Mountain View, CA 94042, USA.
#
# CIF created using the CSD Python API on 29 September 2022
# The structure has been converted into the P1 space group
# The structure has a 3D framework
# The original CSD entry SOCKOM is in the monoclinic crystal system
# The original CSD entry SOCKOM is in a Sohncke space group
# The framework has been calculated to contain at least 10.0% void space
# The void calculation uses a probe of radius 1.32A, grid spacing 0.4
# H atom positions have been added when not included in the experimental data
#
###############################################################################

data_SOCKOM
_chemical_formula_moiety         '(C74 H60 Cd9 N10 O24)n'
_symmetry_cell_setting           triclinic
_symmetry_space_group_name_H-M   'P 1'
_symmetry_Int_Tables_number      1
_space_group_name_Hall           'P 1'
loop_
_symmetry_equiv_pos_site_id
_symmetry_equiv_pos_as_xyz
1 x,y,z
_cell_length_a                   16.6363(13)
_cell_length_b                   11.7664(9)
_cell_length_c                   11.7332(9)
_cell_angle_alpha                90
_cell_angle_beta                 96.0520(10)
_cell_angle_gamma                90
_cell_volume                     2283.97
loop_
_atom_site_label
_atom_site_type_symbol
_atom_site_fract_x
_atom_site_fract_y
_atom_site_fract_z
N1 N 0.0000 0.5864(5) 0.5000
C2 C 0.0000 0.3504(6) 0.5000
C4 C 0.2122(3) 0.0827(4) 0.2492(5)
H2 H 0.2305 0.1527 0.2783
C6 C 0.1478(3) 0.0758(4) 0.1685(4)
H3 H 0.1245 0.1430 0.1391
C11 C 0.0397(3) 0.1607(4) 0.4195(4)
H6 H 0.0670 0.1971 0.3647
C12 C 0.0364(3) 0.0426(3) 0.4256(4)
H7 H 0.0622 0.0018 0.3722
C17 C 0.0000 0.2229(5) 0.5000
C18 C 0.0098(4) 0.4122(5) 0.5994(6)
H10 H 0.0146 0.3753 0.6699
C19 C 0.0124(6) 0.5263(6) 0.5948(6)
H11 H 0.0238 0.5655 0.6635
Cd6 Cd 0.0000 0.78608(3) 0.5000
O13 O 0.06385(19) 0.1263(3) 0.9068(3)
O1 O 0.43615(19) 0.6263(3) 0.0932(3)
O2 O 0.4184(2) 0.4585(3) 0.1657(3)
C1 C 0.4049(3) 0.5632(4) 0.1604(4)
Cd1 Cd -0.0000 0.97825(3) 0.0000
N2 N 0.1164(2) 0.9785(3) 0.1294(3)
C3 C 0.1522(3) 0.8821(4) 0.1684(4)
H1 H 0.1299 0.8134 0.1417
C5 C 0.2203(3) 0.8794(4) 0.2462(4)
C7 C 0.2502(3) 0.9828(5) 0.2873(4)
H4 H 0.2957 0.9853 0.3405
C8 C 0.3486(3) 0.6156(4) 0.2400(4)
C9 C 0.2588(3) 0.7694(4) 0.2825(4)
C10 C 0.3139(3) 0.7206(4) 0.2135(4)
H5 H 0.3271 0.7595 0.1491
N3 N 0.0000 0.9842(9) 0.5000
O3 O 0.0763(2) 0.7781(3) 0.6815(3)
O4 O -0.0000 0.7795(10) 0.0000
C13 C 0.2409(3) 0.7124(4) 0.3797(4)
C14 C 0.2776(3) 0.6083(4) 0.4070(4)
H8 H 0.2679 0.5717 0.4745
C15 C 0.1813(3) 0.7562(4) 0.4565(4)
C16 C 0.3285(3) 0.5582(4) 0.3346(4)
H9 H 0.3489 0.4857 0.3505
O5 O 0.11326(18) 0.7849(3) 0.4102(3)
O6 O 0.2026(3) 0.7576(5) 0.5612(3)
Cd4 Cd 0.5000 0.47825(3) 0.0000
H25 H 0.0461679 0.816734 0.739096
H26 H 0.0857846 0.697479 0.704062
Cd1_2 Cd 0.0000 0.97825(3) 1.0000
O4_2 O 0.0000 0.7795(10) 1.0000
O15 O 0.0816(2) 0.9585(3) 0.8343(3)
Cd4_2 Cd 0.5000 0.47825(3) 1.0000
N1_2 N 1.0000 0.5864(5) 0.5000
C2_2 C 1.0000 0.3504(6) 0.5000
C17_2 C 1.0000 0.2229(5) 0.5000
C20 C 0.9603(3) 0.1607(4) 0.5805(4)
H12 H 0.9330 0.1971 0.6353
C21 C 0.9636(3) 0.0426(3) 0.5744(4)
H13 H 0.9378 0.0018 0.6278
C22 C 0.9902(4) 0.4122(5) 0.4006(6)
H14 H 0.9854 0.3753 0.3301
C23 C 0.9876(6) 0.5263(6) 0.4052(6)
H15 H 0.9762 0.5655 0.3365
O12 O 0.93615(19) 0.1263(3) 0.0932(3)
Cd6_2 Cd 1.0000 0.78608(3) 0.5000
C26 C 0.7878(3) 0.0827(4) 0.7508(5)
H17 H 0.7695 0.1527 0.7217
C28 C 0.8522(3) 0.0758(4) 0.8315(4)
H18 H 0.8755 0.1430 0.8609
Cd1_3 Cd 1.0000 0.97825(3) 0.0000
N3_2 N 1.0000 0.9842(9) 0.5000
O4_3 O 1.0000 0.7795(10) 0.0000
O11 O 0.9237(2) 0.7781(3) 0.3185(3)
O14 O 0.9184(2) 0.9585(3) 0.1657(3)
O16 O 0.88674(18) 0.7849(3) 0.5898(3)
H23 H 0.995747 0.751369 0.07893
H27 H 0.953832 0.816734 0.260904
H28 H 0.914215 0.697479 0.295938
Cd1_4 Cd 1.0000 0.97825(3) 1.0000
O4_4 O 1.0000 0.7795(10) 1.0000
O7 O 0.56385(19) 0.6263(3) 0.9068(3)
O8 O 0.5816(2) 0.4585(3) 0.8343(3)
C24 C 0.5951(3) 0.5632(4) 0.8396(4)
N4 N 0.8836(2) 0.9785(3) 0.8706(3)
C25 C 0.8478(3) 0.8821(4) 0.8316(4)
H16 H 0.8701 0.8134 0.8583
C27 C 0.7797(3) 0.8794(4) 0.7538(4)
C29 C 0.7498(3) 0.9828(5) 0.7127(4)
H19 H 0.7043 0.9853 0.6595
C30 C 0.6514(3) 0.6156(4) 0.7600(4)
C31 C 0.7412(3) 0.7694(4) 0.7175(4)
C32 C 0.6861(3) 0.7206(4) 0.7865(4)
H20 H 0.6729 0.7595 0.8509
C33 C 0.7591(3) 0.7124(4) 0.6203(4)
C34 C 0.7224(3) 0.6083(4) 0.5930(4)
H21 H 0.7321 0.5717 0.5255
C35 C 0.8187(3) 0.7562(4) 0.5435(4)
C36 C 0.6715(3) 0.5582(4) 0.6654(4)
H22 H 0.6511 0.4857 0.6495
O10 O 0.7974(3) 0.7576(5) 0.4388(3)
H24 H 0.953256 0.751369 0.948036
H24_2 H 0.0467436 0.751369 0.0519641
H23_2 H 0.00425324 0.751369 0.92107
N1_3 N 0.5000 0.0864(5) 0.5000
C19_2 C 0.5124(6) 0.0263(6) 0.5948(6)
H11_2 H 0.5238 0.0655 0.6635
C23_2 C 0.4876(6) 0.0263(6) 0.4052(6)
H15_2 H 0.4762 0.0655 0.3365
Cd6_3 Cd 0.5000 0.28608(3) 0.5000
C1_2 C 0.9049(3) 0.0632(4) 0.1604(4)
C2_3 C 0.5000 0.8504(6) 0.5000
N2_2 N 0.6164(2) 0.4785(3) 0.1294(3)
C3_2 C 0.6522(3) 0.3821(4) 0.1684(4)
H1_2 H 0.6299 0.3134 0.1417
C4_2 C 0.7122(3) 0.5827(4) 0.2492(5)
H2_2 H 0.7305 0.6527 0.2783
C5_2 C 0.7203(3) 0.3794(4) 0.2462(4)
C6_2 C 0.6478(3) 0.5758(4) 0.1685(4)
H3_2 H 0.6245 0.6430 0.1391
C7_2 C 0.7502(3) 0.4828(5) 0.2873(4)
H4_2 H 0.7957 0.4853 0.3405
C8_2 C 0.8486(3) 0.1156(4) 0.2400(4)
C9_2 C 0.7588(3) 0.2694(4) 0.2825(4)
C10_2 C 0.8139(3) 0.2206(4) 0.2135(4)
H5_2 H 0.8271 0.2595 0.1491
N3_3 N 0.5000 0.4842(9) 0.5000
O3_2 O 0.5763(2) 0.2781(3) 0.6815(3)
C11_2 C 0.5397(3) 0.6607(4) 0.4195(4)
H6_2 H 0.5670 0.6971 0.3647
C12_2 C 0.5364(3) 0.5426(3) 0.4256(4)
H7_2 H 0.5622 0.5018 0.3722
O4_5 O 0.5000 0.2795(10) 0.0000
C13_2 C 0.7409(3) 0.2124(4) 0.3797(4)
C14_2 C 0.7776(3) 0.1083(4) 0.4070(4)
H8_2 H 0.7679 0.0717 0.4745
C15_2 C 0.6813(3) 0.2562(4) 0.4565(4)
C16_2 C 0.8285(3) 0.0582(4) 0.3346(4)
C17_3 C 0.5000 0.7229(5) 0.5000
C18_2 C 0.5098(4) 0.9122(5) 0.5994(6)
H10_2 H 0.5146 0.8753 0.6699
O5_2 O 0.61326(18) 0.2849(3) 0.4102(3)
O6_2 O 0.7026(3) 0.2576(5) 0.5612(3)
C20_2 C 0.4603(3) 0.6607(4) 0.5805(4)
H12_2 H 0.4330 0.6971 0.6353
C21_2 C 0.4636(3) 0.5426(3) 0.5744(4)
H13_2 H 0.4378 0.5018 0.6278
C22_2 C 0.4902(4) 0.9122(5) 0.4006(6)
H14_2 H 0.4854 0.8753 0.3301
O11_2 O 0.4237(2) 0.2781(3) 0.3185(3)
O16_2 O 0.38674(18) 0.2849(3) 0.5898(3)
H23_3 H 0.495747 0.251369 0.07893
H25_2 H 0.546168 0.316734 0.739096
H26_2 H 0.585785 0.197479 0.704062
H27_2 H 0.453832 0.316734 0.260904
H28_2 H 0.414215 0.197479 0.295938
O4_6 O 0.5000 0.2795(10) 1.0000
C24_2 C 0.0951(3) 0.0632(4) 0.8396(4)
N4_2 N 0.3836(2) 0.4785(3) 0.8706(3)
C25_2 C 0.3478(3) 0.3821(4) 0.8316(4)
H16_2 H 0.3701 0.3134 0.8583
C26_2 C 0.2878(3) 0.5827(4) 0.7508(5)
H17_2 H 0.2695 0.6527 0.7217
C27_2 C 0.2797(3) 0.3794(4) 0.7538(4)
C28_2 C 0.3522(3) 0.5758(4) 0.8315(4)
H18_2 H 0.3755 0.6430 0.8609
C29_2 C 0.2498(3) 0.4828(5) 0.7127(4)
H19_2 H 0.2043 0.4853 0.6595
C30_2 C 0.1514(3) 0.1156(4) 0.7600(4)
C31_2 C 0.2412(3) 0.2694(4) 0.7175(4)
C32_2 C 0.1861(3) 0.2206(4) 0.7865(4)
H20_2 H 0.1729 0.2595 0.8509
C33_2 C 0.2591(3) 0.2124(4) 0.6203(4)
C34_2 C 0.2224(3) 0.1083(4) 0.5930(4)
H21_2 H 0.2321 0.0717 0.5255
C35_2 C 0.3187(3) 0.2562(4) 0.5435(4)
C36_2 C 0.1715(3) 0.0582(4) 0.6654(4)
O10_2 O 0.2974(3) 0.2576(5) 0.4388(3)
H24_3 H 0.453256 0.251369 0.948036
H9_2 H 0.8489 0.9857 0.3505
H22_2 H 0.1511 0.9857 0.6495
H24_4 H 0.546744 0.251369 0.0519641
H23_4 H 0.504253 0.251369 0.92107
loop_
_geom_bond_atom_site_label_1
_geom_bond_atom_site_label_2
_geom_bond_site_symmetry_1
_geom_bond_site_symmetry_2
N1 C19 1_555 1_555
C2 C17 1_555 1_555
C4 H2 1_555 1_555
H3 C6 1_555 1_555
C11 H6 1_555 1_555
C12 C11 1_555 1_555
H7 C12 1_555 1_555
C17 C11 1_555 1_555
C18 C2 1_555 1_555
H10 C18 1_555 1_555
C19 C18 1_555 1_555
H11 C19 1_555 1_555
Cd6 N1 1_555 1_555
C4 C6 1_555 1_555
O1 C1 1_555 1_555
O2 C1 1_555 1_555
C1 C8 1_555 1_555
Cd1 N2 1_555 1_555
Cd6 N3 1_555 1_555
N2 C3 1_555 1_555
C3 H1 1_555 1_555
C5 C3 1_555 1_555
H4 C7 1_555 1_555
C8 C10 1_555 1_555
C9 C5 1_555 1_555
C10 C9 1_555 1_555
H5 C10 1_555 1_555
O3 Cd6 1_555 1_555
O4 Cd1 1_555 1_555
C13 C9 1_555 1_555
C14 C13 1_555 1_555
H8 C14 1_555 1_555
C15 C13 1_555 1_555
C16 C8 1_555 1_555
H9 C16 1_555 1_555
O5 Cd6 1_555 1_555
O6 C15 1_555 1_555
Cd4 O1 1_555 1_555
O2 Cd4 1_555 1_555
C5 C7 1_555 1_555
C14 C16 1_555 1_555
C15 O5 1_555 1_555
O3 H25 1_555 1_555
O3 H26 1_555 1_555
O4_2 Cd1_2 1_555 1_555
O15 Cd1_2 1_555 1_555
C2_2 C17_2 1_555 1_555
C20 C17_2 1_555 1_555
H12 C20 1_555 1_555
H13 C21 1_555 1_555
C22 C2_2 1_555 1_555
H14 C22 1_555 1_555
C23 N1_2 1_555 1_555
H15 C23 1_555 1_555
Cd6_2 N1_2 1_555 1_555
C20 C21 1_555 1_555
C22 C23 1_555 1_555
C26 H17 1_555 1_555
H18 C28 1_555 1_555
C26 C28 1_555 1_555
Cd6_2 N3_2 1_555 1_555
O4_3 Cd1_3 1_555 1_555
O11 Cd6_2 1_555 1_555
O14 Cd1_3 1_555 1_555
O16 Cd6_2 1_555 1_555
O4_3 H23 1_555 1_555
O11 H27 1_555 1_555
O11 H28 1_555 1_555
O4_4 Cd1_4 1_555 1_555
O7 C24 1_555 1_555
O8 C24 1_555 1_555
C24 C30 1_555 1_555
N4 Cd1_4 1_555 1_555
C25 N4 1_555 1_555
H16 C25 1_555 1_555
C27 C25 1_555 1_555
H19 C29 1_555 1_555
C30 C32 1_555 1_555
C31 C27 1_555 1_555
C32 C31 1_555 1_555
H20 C32 1_555 1_555
C33 C31 1_555 1_555
C34 C33 1_555 1_555
H21 C34 1_555 1_555
C35 C33 1_555 1_555
C36 C30 1_555 1_555
H22 C36 1_555 1_555
O16 C35 1_555 1_555
O10 C35 1_555 1_555
Cd4_2 O7 1_555 1_555
O8 Cd4_2 1_555 1_555
C27 C29 1_555 1_555
C34 C36 1_555 1_555
O4_4 H24 1_555 1_555
O4 H24_2 1_555 1_555
O4_2 H23_2 1_555 1_555
N1_3 C19_2 1_555 1_555
H11_2 C19_2 1_555 1_555
C23_2 N1_3 1_555 1_555
H15_2 C23_2 1_555 1_555
Cd6_3 N1_3 1_555 1_555
O12 C1_2 1_555 1_555
C1_2 C8_2 1_555 1_555
Cd4 N2_2 1_555 1_555
C2_3 C17_3 1_555 1_555
Cd6_3 N3_3 1_555 1_555
N2_2 C3_2 1_555 1_555
C3_2 H1_2 1_555 1_555
C4_2 H2_2 1_555 1_555
C5_2 C3_2 1_555 1_555
C6_2 N2_2 1_555 1_555
H3_2 C6_2 1_555 1_555
C7_2 C4_2 1_555 1_555
H4_2 C7_2 1_555 1_555
C8_2 C10_2 1_555 1_555
C9_2 C5_2 1_555 1_555
C10_2 C9_2 1_555 1_555
H5_2 C10_2 1_555 1_555
N3_3 C12_2 1_555 1_555
O3_2 Cd6_3 1_555 1_555
C11_2 H6_2 1_555 1_555
C12_2 C11_2 1_555 1_555
H7_2 C12_2 1_555 1_555
O4_5 Cd4 1_555 1_555
C13_2 C9_2 1_555 1_555
C14_2 C13_2 1_555 1_555
H8_2 C14_2 1_555 1_555
C15_2 C13_2 1_555 1_555
C16_2 C8_2 1_555 1_555
C17_3 C11_2 1_555 1_555
C18_2 C2_3 1_555 1_555
H10_2 C18_2 1_555 1_555
O5_2 Cd6_3 1_555 1_555
O6_2 C15_2 1_555 1_555
C20_2 C17_3 1_555 1_555
H12_2 C20_2 1_555 1_555
C21_2 N3_3 1_555 1_555
H13_2 C21_2 1_555 1_555
C22_2 C2_3 1_555 1_555
H14_2 C22_2 1_555 1_555
O11_2 Cd6_3 1_555 1_555
O16_2 Cd6_3 1_555 1_555
C4_2 C6_2 1_555 1_555
C5_2 C7_2 1_555 1_555
C14_2 C16_2 1_555 1_555
C15_2 O5_2 1_555 1_555
C20_2 C21_2 1_555 1_555
O4_5 H23_3 1_555 1_555
O3_2 H25_2 1_555 1_555
O3_2 H26_2 1_555 1_555
O11_2 H27_2 1_555 1_555
O11_2 H28_2 1_555 1_555
O4_6 Cd4_2 1_555 1_555
O13 C24_2 1_555 1_555
C24_2 C30_2 1_555 1_555
N4_2 Cd4_2 1_555 1_555
C25_2 N4_2 1_555 1_555
H16_2 C25_2 1_555 1_555
C26_2 H17_2 1_555 1_555
C27_2 C25_2 1_555 1_555
C28_2 N4_2 1_555 1_555
H18_2 C28_2 1_555 1_555
C29_2 C26_2 1_555 1_555
H19_2 C29_2 1_555 1_555
C30_2 C32_2 1_555 1_555
C31_2 C27_2 1_555 1_555
C32_2 C31_2 1_555 1_555
H20_2 C32_2 1_555 1_555
C33_2 C31_2 1_555 1_555
C34_2 C33_2 1_555 1_555
H21_2 C34_2 1_555 1_555
C35_2 C33_2 1_555 1_555
C36_2 C30_2 1_555 1_555
O16_2 C35_2 1_555 1_555
O10_2 C35_2 1_555 1_555
C26_2 C28_2 1_555 1_555
C27_2 C29_2 1_555 1_555
C34_2 C36_2 1_555 1_555
O4_6 H24_3 1_555 1_555
O4_5 H24_4 1_555 1_555
O4_6 H23_4 1_555 1_555

#END
