
###############################################################################
#
# This file contains modified crystal structure data generated from the
# MOF subset of the Cambridge Structural Database (CSD) v543 
# hosted by the Cambridge Crystallographic Data Centre (CCDC).
#
# This work is licensed under the Creative Commons
# Attribution-NonCommercial-ShareAlike 4.0 International License.
# To view a copy of this license, visit
# http://creativecommons.org/licenses/by-nc-sa/4.0/
# or send a letter to
# Creative Commons, PO Box 1866, Mountain View, CA 94042, USA.
#
# CIF created using the CSD Python API on 29 September 2022
# The structure has been converted into the P1 space group
# The structure has a 3D framework
# The original CSD entry SOCKEC is in the monoclinic crystal system
# The framework has been calculated to contain at least 10.0% void space
# The void calculation uses a probe of radius 1.32A, grid spacing 0.4
# H atom positions have been added when not included in the experimental data
# Generated hydrogen atom positions removed from atoms on special positions
#
###############################################################################

data_SOCKEC
_chemical_formula_moiety         '(C104 H88 Cd8 N8 O46)n'
_symmetry_cell_setting           triclinic
_symmetry_space_group_name_H-M   'P 1'
_symmetry_Int_Tables_number      1
_space_group_name_Hall           'P 1'
loop_
_symmetry_equiv_pos_site_id
_symmetry_equiv_pos_as_xyz
1 x,y,z
_cell_length_a                   14.4791(9)
_cell_length_b                   12.5483(9)
_cell_length_c                   15.9612(11)
_cell_angle_alpha                90
_cell_angle_beta                 93.1400(10)
_cell_angle_gamma                90
_cell_volume                     2895.61
loop_
_atom_site_label
_atom_site_type_symbol
_atom_site_fract_x
_atom_site_fract_y
_atom_site_fract_z
Cd1 Cd 0.021790(14) 0.327482(16) 0.361548(13)
O1 O 0.09467(13) 0.37886(17) 0.23255(12)
O2 O 0.19784(15) 0.50149(18) 0.27237(14)
N1 N 0.33873(17) 0.7419(2) 0.10758(15)
C1 C 0.2548(2) 0.7877(3) 0.1046(2)
H1 H 0.2510 0.8617 0.1048
C2 C 0.1740(2) 0.7291(3) 0.1014(2)
H2 H 0.1168 0.7631 0.0994
C3 C 0.1794(2) 0.6194(3) 0.1012(2)
H3 H 0.1257 0.5786 0.0991
C4 C 0.2651(2) 0.5703(2) 0.10421(17)
C5 C 0.3425(2) 0.6365(2) 0.10640(18)
H4 H 0.4005 0.6046 0.1071
C6 C 0.27913(19) 0.4529(2) 0.10543(18)
C7 C 0.3395(2) 0.4067(2) 0.05109(18)
H5 H 0.3695 0.4503 0.0141
C8 C 0.3565(2) 0.2975(2) 0.05024(18)
C9 C 0.3116(2) 0.2335(3) 0.1059(2)
H6 H 0.3225 0.1604 0.1068
C10 C 0.2510(2) 0.2772(3) 0.15999(19)
H7 H 0.2212 0.2330 0.1967
C11 C 0.23365(19) 0.3858(2) 0.16072(17)
C12 C 0.17119(19) 0.4277(2) 0.22589(17)
O5 O 0.0000 0.1844(2) 0.2500
O6 O 0.0641(3) 0.4960(2) 0.3927(2)
Cd4 Cd 0.478210(14) 0.827482(16) 0.138452(13)
O12 O 0.05262(16) 0.18896(18) 0.06840(14)
O14 O 0.05898(19) 0.34530(19) 0.00872(16)
N4 N 0.16127(17) 0.2419(2) 0.39242(15)
O3 O 0.44738(16) 0.31104(18) 0.93160(14)
O4 O 0.44102(19) 0.15470(19) 0.99128(16)
C13 C 0.4191(2) 0.2511(3) 0.98780(18)
Cd6 Cd 0.521790(14) 0.172518(16) 0.861548(13)
O5_2 O 1.0000 0.1844(2) 0.2500
Cd2 Cd 0.978210(14) 0.327482(16) 0.138452(13)
O7 O 0.90533(13) 0.37886(17) 0.26745(12)
O8 O 0.80216(15) 0.50149(18) 0.22763(14)
O9 O 0.55262(16) 0.31104(18) 0.56840(14)
O10 O 0.55898(19) 0.15470(19) 0.50872(16)
N2 N 0.66127(17) 0.7419(2) 0.39242(15)
C14 C 0.7452(2) 0.7877(3) 0.3954(2)
H8 H 0.7490 0.8617 0.3952
C15 C 0.8260(2) 0.7291(3) 0.3986(2)
H9 H 0.8832 0.7631 0.4006
C16 C 0.8206(2) 0.6194(3) 0.3988(2)
H10 H 0.8743 0.5786 0.4009
C17 C 0.7349(2) 0.5703(2) 0.39579(17)
C18 C 0.6575(2) 0.6365(2) 0.39360(18)
H11 H 0.5995 0.6046 0.3929
C19 C 0.72087(19) 0.4529(2) 0.39457(18)
C20 C 0.6605(2) 0.4067(2) 0.44891(18)
H12 H 0.6305 0.4503 0.4859
C21 C 0.6435(2) 0.2975(2) 0.44976(18)
C22 C 0.6884(2) 0.2335(3) 0.3941(2)
H13 H 0.6775 0.1604 0.3932
C23 C 0.7490(2) 0.2772(3) 0.34001(19)
H14 H 0.7788 0.2330 0.3033
C24 C 0.76635(19) 0.3858(2) 0.33928(17)
C25 C 0.82881(19) 0.4277(2) 0.27411(17)
C26 C 0.5809(2) 0.2511(3) 0.51220(18)
O11 O 0.9359(3) 0.4960(2) 0.1073(2)
Cd3 Cd 0.521790(14) 0.827482(16) 0.361548(13)
Cd5 Cd 0.478210(14) 0.172518(16) 0.638452(13)
O13 O 0.94738(16) 0.18896(18) 0.43160(14)
O15 O 0.94102(19) 0.34530(19) 0.49128(16)
N3 N 0.83873(17) 0.2419(2) 0.10758(15)
Cd6_2 Cd 0.021790(14) 0.672518(16) 0.861548(13)
O2_2 O 0.69784(15) 0.00149(18) 0.27237(14)
C1_2 C 0.7548(2) 0.2877(3) 0.1046(2)
H1_2 H 0.7510 0.3617 0.1048
C2_2 C 0.6740(2) 0.2291(3) 0.1014(2)
H2_2 H 0.6168 0.2631 0.0994
C3_2 C 0.6794(2) 0.1194(3) 0.1012(2)
H3_2 H 0.6257 0.0786 0.0991
C4_2 C 0.7651(2) 0.0703(2) 0.10421(17)
C5_2 C 0.8425(2) 0.1365(2) 0.10640(18)
H4_2 H 0.9005 0.1046 0.1071
O8_2 O 0.30216(15) 0.00149(18) 0.22763(14)
C14_2 C 0.2452(2) 0.2877(3) 0.3954(2)
H8_2 H 0.2490 0.3617 0.3952
C15_2 C 0.3260(2) 0.2291(3) 0.3986(2)
H9_2 H 0.3832 0.2631 0.4006
C16_2 C 0.3206(2) 0.1194(3) 0.3988(2)
H10_2 H 0.3743 0.0786 0.4009
C17_2 C 0.2349(2) 0.0703(2) 0.39579(17)
C18_2 C 0.1575(2) 0.1365(2) 0.39360(18)
H11_2 H 0.0995 0.1046 0.3929
H15 H 0.53339 0.0454105 0.351327
H16 H 0.545326 0.0141072 0.449894
H17 H 0.488788 0.0345348 0.0842794
O1_2 O 0.59467(13) 0.87886(17) 0.23255(12)
C6_2 C 0.77913(19) 0.9529(2) 0.10543(18)
C7_2 C 0.8395(2) 0.9067(2) 0.05109(18)
H5_2 H 0.8695 0.9503 0.0141
C8_2 C 0.8565(2) 0.7975(2) 0.05024(18)
C9_2 C 0.8116(2) 0.7335(3) 0.1059(2)
H6_2 H 0.8225 0.6604 0.1068
C10_2 C 0.7510(2) 0.7772(3) 0.15999(19)
H7_2 H 0.7212 0.7330 0.1967
C11_2 C 0.73365(19) 0.8858(2) 0.16072(17)
C12_2 C 0.67119(19) 0.9277(2) 0.22589(17)
O5_3 O 0.5000 0.6844(2) 0.2500
O6_2 O 0.5641(3) 0.9960(2) 0.3927(2)
O7_2 O 0.40533(13) 0.87886(17) 0.26745(12)
O9_2 O 0.05262(16) 0.81104(18) 0.56840(14)
O10_2 O 0.05898(19) 0.65470(19) 0.50872(16)
C19_2 C 0.22087(19) 0.9529(2) 0.39457(18)
C20_2 C 0.1605(2) 0.9067(2) 0.44891(18)
H12_2 H 0.1305 0.9503 0.4859
C21_2 C 0.1435(2) 0.7975(2) 0.44976(18)
C22_2 C 0.1884(2) 0.7335(3) 0.3941(2)
H13_2 H 0.1775 0.6604 0.3932
C23_2 C 0.2490(2) 0.7772(3) 0.34001(19)
H14_2 H 0.2788 0.7330 0.3033
C24_2 C 0.26635(19) 0.8858(2) 0.33928(17)
C25_2 C 0.32881(19) 0.9277(2) 0.27411(17)
C26_2 C 0.0809(2) 0.7511(3) 0.51220(18)
O11_2 O 0.4359(3) 0.9960(2) 0.1073(2)
O12_2 O 0.55262(16) 0.68896(18) 0.06840(14)
O13_2 O 0.44738(16) 0.68896(18) 0.43160(14)
O14_2 O 0.55898(19) 0.84530(19) 0.00872(16)
O15_2 O 0.44102(19) 0.84530(19) 0.49128(16)
H18 H 0.383037 0.995366 0.0649551
O3_2 O 0.94738(16) 0.81104(18) 0.93160(14)
O4_2 O 0.94102(19) 0.65470(19) 0.99128(16)
C13_2 C 0.9191(2) 0.7511(3) 0.98780(18)
Cd5_2 Cd 0.978210(14) 0.672518(16) 0.638452(13)
H15_2 H 0.46661 0.0454105 0.148673
H16_2 H 0.454674 0.0141072 0.0501064
H17_2 H 0.511212 0.0345348 0.415721
H18_2 H 0.616963 0.995366 0.435045
O5_4 O 0.0000 0.8156(2) 0.7500
O7_3 O 0.09467(13) 0.62114(17) 0.73255(12)
O8_3 O 0.19784(15) 0.49851(18) 0.77237(14)
N2_2 N 0.33873(17) 0.2581(2) 0.60758(15)
C14_3 C 0.2548(2) 0.2123(3) 0.6046(2)
H8_3 H 0.2510 0.1383 0.6048
C15_3 C 0.1740(2) 0.2709(3) 0.6014(2)
H9_3 H 0.1168 0.2369 0.5994
C16_3 C 0.1794(2) 0.3806(3) 0.6012(2)
H10_3 H 0.1257 0.4214 0.5991
C17_3 C 0.2651(2) 0.4297(2) 0.60421(17)
C18_3 C 0.3425(2) 0.3635(2) 0.60640(18)
H11_3 H 0.4005 0.3954 0.6071
C19_3 C 0.27913(19) 0.5471(2) 0.60543(18)
C20_3 C 0.3395(2) 0.5933(2) 0.55109(18)
H12_3 H 0.3695 0.5497 0.5141
C21_3 C 0.3565(2) 0.7025(2) 0.55024(18)
C22_3 C 0.3116(2) 0.7665(3) 0.6059(2)
H13_3 H 0.3225 0.8396 0.6068
C23_3 C 0.2510(2) 0.7228(3) 0.65999(19)
H14_3 H 0.2212 0.7670 0.6967
C24_3 C 0.23365(19) 0.6142(2) 0.66072(17)
C25_3 C 0.17119(19) 0.5723(2) 0.72589(17)
C26_3 C 0.4191(2) 0.7489(3) 0.48780(18)
O11_3 O 0.0641(3) 0.5040(2) 0.8927(2)
N3_2 N 0.16127(17) 0.7581(2) 0.89242(15)
C13_3 C 0.5809(2) 0.7489(3) 0.01220(18)
O1_3 O 0.90533(13) 0.62114(17) 0.76745(12)
O2_3 O 0.80216(15) 0.49851(18) 0.72763(14)
N1_2 N 0.66127(17) 0.2581(2) 0.89242(15)
C1_3 C 0.7452(2) 0.2123(3) 0.8954(2)
H1_3 H 0.7490 0.1383 0.8952
C2_3 C 0.8260(2) 0.2709(3) 0.8986(2)
H2_3 H 0.8832 0.2369 0.9006
C3_3 C 0.8206(2) 0.3806(3) 0.8988(2)
H3_3 H 0.8743 0.4214 0.9009
C4_3 C 0.7349(2) 0.4297(2) 0.89579(17)
C5_3 C 0.6575(2) 0.3635(2) 0.89360(18)
H4_3 H 0.5995 0.3954 0.8929
C6_3 C 0.72087(19) 0.5471(2) 0.89457(18)
C7_3 C 0.6605(2) 0.5933(2) 0.94891(18)
H5_3 H 0.6305 0.5497 0.9859
C8_3 C 0.6435(2) 0.7025(2) 0.94976(18)
C9_3 C 0.6884(2) 0.7665(3) 0.8941(2)
H6_3 H 0.6775 0.8396 0.8932
C10_3 C 0.7490(2) 0.7228(3) 0.84001(19)
H7_3 H 0.7788 0.7670 0.8033
C11_3 C 0.76635(19) 0.6142(2) 0.83928(17)
C12_3 C 0.82881(19) 0.5723(2) 0.77411(17)
O5_5 O 1.0000 0.8156(2) 0.7500
O6_3 O 0.9359(3) 0.5040(2) 0.6073(2)
N4_2 N 0.83873(17) 0.7581(2) 0.60758(15)
C13_4 C 0.0809(2) 0.2489(3) 0.01220(18)
O1_4 O 0.40533(13) 0.12114(17) 0.76745(12)
C6_4 C 0.22087(19) 0.0471(2) 0.89457(18)
C7_4 C 0.1605(2) 0.0933(2) 0.94891(18)
H5_4 H 0.1305 0.0497 0.9859
C8_4 C 0.1435(2) 0.2025(2) 0.94976(18)
C9_4 C 0.1884(2) 0.2665(3) 0.8941(2)
H6_4 H 0.1775 0.3396 0.8932
C10_4 C 0.2490(2) 0.2228(3) 0.84001(19)
H7_4 H 0.2788 0.2670 0.8033
C11_4 C 0.26635(19) 0.1142(2) 0.83928(17)
C12_4 C 0.32881(19) 0.0723(2) 0.77411(17)
O5_6 O 0.5000 0.3156(2) 0.7500
O6_4 O 0.4359(3) 0.0040(2) 0.6073(2)
O7_4 O 0.59467(13) 0.12114(17) 0.73255(12)
C19_4 C 0.77913(19) 0.0471(2) 0.60543(18)
C20_4 C 0.8395(2) 0.0933(2) 0.55109(18)
H12_4 H 0.8695 0.0497 0.5141
C21_4 C 0.8565(2) 0.2025(2) 0.55024(18)
C22_4 C 0.8116(2) 0.2665(3) 0.6059(2)
H13_4 H 0.8225 0.3396 0.6068
C23_4 C 0.7510(2) 0.2228(3) 0.65999(19)
H14_4 H 0.7212 0.2670 0.6967
C24_4 C 0.73365(19) 0.1142(2) 0.66072(17)
C25_4 C 0.67119(19) 0.0723(2) 0.72589(17)
C26_4 C 0.9191(2) 0.2489(3) 0.48780(18)
O11_4 O 0.5641(3) 0.0040(2) 0.8927(2)
H18_3 H 0.616963 0.00463357 0.935045
O2_4 O 0.30216(15) 0.99851(18) 0.72763(14)
C1_4 C 0.2452(2) 0.7123(3) 0.8954(2)
H1_4 H 0.2490 0.6383 0.8952
C2_4 C 0.3260(2) 0.7709(3) 0.8986(2)
H2_4 H 0.3832 0.7369 0.9006
C3_4 C 0.3206(2) 0.8806(3) 0.8988(2)
H3_4 H 0.3743 0.9214 0.9009
C4_4 C 0.2349(2) 0.9297(2) 0.89579(17)
C5_4 C 0.1575(2) 0.8635(2) 0.89360(18)
H4_4 H 0.0995 0.8954 0.8929
O8_4 O 0.69784(15) 0.99851(18) 0.77237(14)
C14_4 C 0.7548(2) 0.7123(3) 0.6046(2)
H8_4 H 0.7510 0.6383 0.6048
C15_4 C 0.6740(2) 0.7709(3) 0.6014(2)
H9_4 H 0.6168 0.7369 0.5994
C16_4 C 0.6794(2) 0.8806(3) 0.6012(2)
H10_4 H 0.6257 0.9214 0.5991
C17_4 C 0.7651(2) 0.9297(2) 0.60421(17)
C18_4 C 0.8425(2) 0.8635(2) 0.60640(18)
H11_4 H 0.9005 0.8954 0.6071
H15_3 H 0.46661 0.95459 0.648673
H16_3 H 0.454674 0.985893 0.550106
H17_3 H 0.511212 0.965465 0.915721
H18_4 H 0.383037 0.00463357 0.564955
H15_4 H 0.53339 0.95459 0.851327
H16_4 H 0.545326 0.985893 0.949894
H17_4 H 0.488788 0.965465 0.584279
loop_
_geom_bond_atom_site_label_1
_geom_bond_atom_site_label_2
_geom_bond_site_symmetry_1
_geom_bond_site_symmetry_2
Cd1 O1 1_555 1_555
O1 C12 1_555 1_555
O2 C12 1_555 1_555
N1 C1 1_555 1_555
C1 H1 1_555 1_555
C2 C1 1_555 1_555
H2 C2 1_555 1_555
C3 C2 1_555 1_555
H3 C3 1_555 1_555
C4 C3 1_555 1_555
C5 N1 1_555 1_555
H4 C5 1_555 1_555
C6 C4 1_555 1_555
C7 C6 1_555 1_555
H5 C7 1_555 1_555
C8 C7 1_555 1_555
C9 C8 1_555 1_555
H6 C9 1_555 1_555
C10 C9 1_555 1_555
H7 C10 1_555 1_555
C11 C6 1_555 1_555
C12 C11 1_555 1_555
O5 Cd1 1_555 1_555
O6 Cd1 1_555 1_555
Cd4 N1 1_555 1_555
N4 Cd1 1_555 1_555
C4 C5 1_555 1_555
C10 C11 1_555 1_555
O3 C13 1_555 1_555
O4 C13 1_555 1_555
Cd6 O3 1_555 1_555
O4 Cd6 1_555 1_555
O8 C25 1_555 1_555
O9 C26 1_555 1_555
O10 C26 1_555 1_555
N2 C14 1_555 1_555
C14 H8 1_555 1_555
C15 C14 1_555 1_555
H9 C15 1_555 1_555
C16 C15 1_555 1_555
H10 C16 1_555 1_555
C17 C16 1_555 1_555
C18 N2 1_555 1_555
H11 C18 1_555 1_555
C19 C17 1_555 1_555
C20 C19 1_555 1_555
H12 C20 1_555 1_555
C21 C20 1_555 1_555
C22 C21 1_555 1_555
H13 C22 1_555 1_555
C23 C22 1_555 1_555
H14 C23 1_555 1_555
C24 C19 1_555 1_555
C25 O7 1_555 1_555
C26 C21 1_555 1_555
O11 Cd2 1_555 1_555
Cd3 N2 1_555 1_555
Cd5 O9 1_555 1_555
N3 Cd2 1_555 1_555
O5_2 Cd2 1_555 1_555
Cd2 O7 1_555 1_555
O10 Cd5 1_555 1_555
C17 C18 1_555 1_555
C23 C24 1_555 1_555
C24 C25 1_555 1_555
N3 C1_2 1_555 1_555
C1_2 H1_2 1_555 1_555
C2_2 C1_2 1_555 1_555
H2_2 C2_2 1_555 1_555
C3_2 C2_2 1_555 1_555
H3_2 C3_2 1_555 1_555
C4_2 C3_2 1_555 1_555
C5_2 N3 1_555 1_555
H4_2 C5_2 1_555 1_555
N4 C14_2 1_555 1_555
C14_2 H8_2 1_555 1_555
C15_2 C14_2 1_555 1_555
H9_2 C15_2 1_555 1_555
C16_2 C15_2 1_555 1_555
H10_2 C16_2 1_555 1_555
C17_2 C16_2 1_555 1_555
C18_2 N4 1_555 1_555
H11_2 C18_2 1_555 1_555
C4_2 C5_2 1_555 1_555
C17_2 C18_2 1_555 1_555
Cd3 O1_2 1_555 1_555
O1_2 C12_2 1_555 1_555
C7_2 C6_2 1_555 1_555
H5_2 C7_2 1_555 1_555
C8_2 C7_2 1_555 1_555
C9_2 C8_2 1_555 1_555
H6_2 C9_2 1_555 1_555
C10_2 C9_2 1_555 1_555
H7_2 C10_2 1_555 1_555
C11_2 C6_2 1_555 1_555
C12_2 C11_2 1_555 1_555
O5_3 Cd3 1_555 1_555
O6_2 Cd3 1_555 1_555
Cd4 O1_2 1_555 1_555
O7_2 Cd3 1_555 1_555
O9_2 C26_2 1_555 1_555
O10_2 C26_2 1_555 1_555
C20_2 C19_2 1_555 1_555
H12_2 C20_2 1_555 1_555
C21_2 C20_2 1_555 1_555
C22_2 C21_2 1_555 1_555
H13_2 C22_2 1_555 1_555
C23_2 C22_2 1_555 1_555
H14_2 C23_2 1_555 1_555
C24_2 C19_2 1_555 1_555
C25_2 O7_2 1_555 1_555
C26_2 C21_2 1_555 1_555
O11_2 Cd4 1_555 1_555
O12_2 Cd4 1_555 1_555
O13_2 Cd3 1_555 1_555
O14_2 Cd4 1_555 1_555
O15_2 Cd3 1_555 1_555
C10_2 C11_2 1_555 1_555
O5_3 Cd4 1_555 1_555
Cd4 O7_2 1_555 1_555
C23_2 C24_2 1_555 1_555
C24_2 C25_2 1_555 1_555
O11_2 H18 1_555 1_555
O3_2 C13_2 1_555 1_555
O4_2 C13_2 1_555 1_555
O6_2 H18_2 1_555 1_555
O8_3 C25_3 1_555 1_555
O13_2 C26_3 1_555 1_555
O15_2 C26_3 1_555 1_555
N2_2 C14_3 1_555 1_555
C14_3 H8_3 1_555 1_555
C15_3 C14_3 1_555 1_555
H9_3 C15_3 1_555 1_555
C16_3 C15_3 1_555 1_555
H10_3 C16_3 1_555 1_555
C17_3 C16_3 1_555 1_555
C18_3 N2_2 1_555 1_555
H11_3 C18_3 1_555 1_555
C19_3 C17_3 1_555 1_555
C20_3 C19_3 1_555 1_555
H12_3 C20_3 1_555 1_555
C21_3 C20_3 1_555 1_555
C22_3 C21_3 1_555 1_555
H13_3 C22_3 1_555 1_555
C23_3 C22_3 1_555 1_555
H14_3 C23_3 1_555 1_555
C24_3 C19_3 1_555 1_555
C25_3 O7_3 1_555 1_555
C26_3 C21_3 1_555 1_555
O11_3 Cd6_2 1_555 1_555
Cd5 N2_2 1_555 1_555
N3_2 Cd6_2 1_555 1_555
O5_4 Cd6_2 1_555 1_555
Cd6_2 O7_3 1_555 1_555
C17_3 C18_3 1_555 1_555
C23_3 C24_3 1_555 1_555
C24_3 C25_3 1_555 1_555
O12_2 C13_3 1_555 1_555
O14_2 C13_3 1_555 1_555
Cd5_2 O1_3 1_555 1_555
O1_3 C12_3 1_555 1_555
O2_3 C12_3 1_555 1_555
N1_2 C1_3 1_555 1_555
C1_3 H1_3 1_555 1_555
C2_3 C1_3 1_555 1_555
H2_3 C2_3 1_555 1_555
C3_3 C2_3 1_555 1_555
H3_3 C3_3 1_555 1_555
C4_3 C3_3 1_555 1_555
C5_3 N1_2 1_555 1_555
H4_3 C5_3 1_555 1_555
C6_3 C4_3 1_555 1_555
C7_3 C6_3 1_555 1_555
H5_3 C7_3 1_555 1_555
C8_3 C7_3 1_555 1_555
C9_3 C8_3 1_555 1_555
H6_3 C9_3 1_555 1_555
C10_3 C9_3 1_555 1_555
H7_3 C10_3 1_555 1_555
C11_3 C6_3 1_555 1_555
C12_3 C11_3 1_555 1_555
O5_5 Cd5_2 1_555 1_555
O6_3 Cd5_2 1_555 1_555
Cd6 N1_2 1_555 1_555
N4_2 Cd5_2 1_555 1_555
C4_3 C5_3 1_555 1_555
C10_3 C11_3 1_555 1_555
O12 C13_4 1_555 1_555
O14 C13_4 1_555 1_555
Cd5 O1_4 1_555 1_555
O1_4 C12_4 1_555 1_555
C7_4 C6_4 1_555 1_555
H5_4 C7_4 1_555 1_555
C8_4 C7_4 1_555 1_555
C9_4 C8_4 1_555 1_555
H6_4 C9_4 1_555 1_555
C10_4 C9_4 1_555 1_555
H7_4 C10_4 1_555 1_555
C11_4 C6_4 1_555 1_555
C12_4 C11_4 1_555 1_555
O5_6 Cd5 1_555 1_555
O6_4 Cd5 1_555 1_555
Cd6 O1_4 1_555 1_555
O7_4 Cd5 1_555 1_555
O13 C26_4 1_555 1_555
O15 C26_4 1_555 1_555
C20_4 C19_4 1_555 1_555
H12_4 C20_4 1_555 1_555
C21_4 C20_4 1_555 1_555
C22_4 C21_4 1_555 1_555
H13_4 C22_4 1_555 1_555
C23_4 C22_4 1_555 1_555
H14_4 C23_4 1_555 1_555
C24_4 C19_4 1_555 1_555
C25_4 O7_4 1_555 1_555
C26_4 C21_4 1_555 1_555
O11_4 Cd6 1_555 1_555
C10_4 C11_4 1_555 1_555
O5_6 Cd6 1_555 1_555
Cd6 O7_4 1_555 1_555
C23_4 C24_4 1_555 1_555
C24_4 C25_4 1_555 1_555
O11_4 H18_3 1_555 1_555
N3_2 C1_4 1_555 1_555
C1_4 H1_4 1_555 1_555
C2_4 C1_4 1_555 1_555
H2_4 C2_4 1_555 1_555
C3_4 C2_4 1_555 1_555
H3_4 C3_4 1_555 1_555
C4_4 C3_4 1_555 1_555
C5_4 N3_2 1_555 1_555
H4_4 C5_4 1_555 1_555
N4_2 C14_4 1_555 1_555
C14_4 H8_4 1_555 1_555
C15_4 C14_4 1_555 1_555
H9_4 C15_4 1_555 1_555
C16_4 C15_4 1_555 1_555
H10_4 C16_4 1_555 1_555
C17_4 C16_4 1_555 1_555
C18_4 N4_2 1_555 1_555
H11_4 C18_4 1_555 1_555
C4_4 C5_4 1_555 1_555
C17_4 C18_4 1_555 1_555
O6_4 H18_4 1_555 1_555

#END
