
###############################################################################
#
# This file contains modified crystal structure data generated from the
# MOF subset of the Cambridge Structural Database (CSD) v543 
# hosted by the Cambridge Crystallographic Data Centre (CCDC).
#
# This work is licensed under the Creative Commons
# Attribution-NonCommercial-ShareAlike 4.0 International License.
# To view a copy of this license, visit
# http://creativecommons.org/licenses/by-nc-sa/4.0/
# or send a letter to
# Creative Commons, PO Box 1866, Mountain View, CA 94042, USA.
#
# CIF created using the CSD Python API on 29 September 2022
# The structure has been converted into the P1 space group
# The structure has a 3D framework
# The original CSD entry SOCKUS is in the triclinic crystal system
# The framework has been calculated to contain at least 10.0% void space
# The void calculation uses a probe of radius 1.32A, grid spacing 0.4
#
###############################################################################

data_SOCKUS
_chemical_formula_moiety         '(C72 H44 Cd4 N8 O16)n'
_symmetry_cell_setting           triclinic
_symmetry_space_group_name_H-M   'P 1'
_symmetry_Int_Tables_number      1
_space_group_name_Hall           'P 1'
loop_
_symmetry_equiv_pos_site_id
_symmetry_equiv_pos_as_xyz
1 x,y,z
_cell_length_a                   8.7982(16)
_cell_length_b                   11.695(2)
_cell_length_c                   18.886(3)
_cell_angle_alpha                103.833(3)
_cell_angle_beta                 93.527(3)
_cell_angle_gamma                105.995(3)
_cell_volume                     1796.89
loop_
_atom_site_label
_atom_site_type_symbol
_atom_site_fract_x
_atom_site_fract_y
_atom_site_fract_z
Cd6 Cd 0.22444(6) 0.26277(5) 0.05086(3)
C1 C 0.4470(10) 0.1208(8) 0.7319(4)
H1 H 0.5442 0.1501 0.7156
C2 C 0.4299(11) 0.1579(10) 0.8049(5)
H2 H 0.5170 0.2145 0.8369
C4 C 0.3284(9) 0.0022(7) 0.6016(4)
C5 C 0.3201(9) 0.0410(6) 0.6841(4)
C6 C 0.1578(10) 0.0321(8) 0.7831(4)
C9 C 0.2937(10) 0.1167(8) 0.8327(4)
O6 O 0.4531(6) 0.0507(6) 0.5782(3)
C33 C 0.2776(13) 0.1629(11) 0.9119(5)
O7 O 0.2592(16) 0.2634(12) 0.9324(5)
O8 O 0.2728(18) 0.1020(10) 0.9536(5)
Cd4 Cd 0.71248(6) 0.10110(4) 0.55446(3)
N5 N 0.2772(8) 0.0893(6) 0.4316(4)
Cd1 Cd 0.28752(6) 0.89890(4) 0.44554(3)
C7 C 0.1744(9) 0.9982(7) 0.7095(4)
H4 H 0.0868 0.9458 0.6760
H6 H 0.0537 0.8758 0.8633
C12 C 0.0047(10) 0.9907(8) 0.8086(4)
N1 N 0.3168(8) 0.7102(6) 0.4543(4)
C13 C 0.3848(17) 0.5310(9) 0.4011(7)
H8 H 0.4384 0.4934 0.3662
C14 C 0.2291(15) 0.5295(9) 0.4956(6)
H9 H 0.1740 0.4911 0.5282
C15 C 0.2999(11) 0.4637(7) 0.4417(5)
C16 C 0.2418(13) 0.6506(9) 0.4997(7)
H10 H 0.1955 0.6929 0.5360
C17 C 0.2898(11) 0.3299(7) 0.4360(5)
C18 C 0.3736(12) 0.1529(9) 0.3924(6)
H11 H 0.4403 0.1156 0.3654
H13 H 0.0294 0.6104 0.2037
O1 O 0.1820(6) 0.7829(6) 0.3185(3)
O2 O 0.0176(7) 0.8037(6) 0.4000(3)
C25 C 0.0458(9) 0.7604(7) 0.3369(4)
C32 C 0.3780(13) 0.2688(9) 0.3906(6)
H19 H 0.4390 0.3070 0.3594
O5 O 0.2086(7) 0.9236(5) 0.5606(3)
C34 C 0.3959(16) 0.6523(10) 0.4089(7)
H20 H 0.4614 0.6954 0.3811
C35 C 0.1952(11) 0.2632(8) 0.4758(6)
H21 H 0.1312 0.2992 0.5055
C36 C 0.1926(11) 0.1463(8) 0.4730(6)
H22 H 0.1281 0.1046 0.5017
O9 O 0.5469(6) 0.9493(6) 0.4218(3)
C8 C 0.7165(11) 0.9115(11) 0.8582(6)
H5 H 0.6201 0.8853 0.8759
C10 C 0.9727(9) 0.9082(8) 0.8521(5)
C11 C 0.7249(12) 0.9882(13) 0.8127(7)
C19 C 0.6238(10) 0.5900(8) 0.2446(5)
H12 H 0.5208 0.5856 0.2550
C20 C 0.8013(9) 0.5218(7) 0.1640(4)
C21 C 0.9030(8) 0.6764(7) 0.2810(4)
C22 C 0.9258(9) 0.6032(8) 0.2142(4)
C23 C 0.8360(9) 0.4473(8) 0.0951(4)
C24 C 0.7515(11) 0.6695(8) 0.2965(5)
H14 H 0.7341 0.7167 0.3407
O3 O 0.4973(7) 0.3190(7) 0.0962(4)
O4 O 0.3755(8) 0.4598(7) 0.1270(4)
C26 C 0.9496(10) 0.3888(8) 0.0997(4)
H15 H 0.9967 0.3938 0.1463
C27 C 0.7584(10) 0.4332(9) 0.0245(5)
H16 H 0.6769 0.4682 0.0189
C28 C 0.6429(9) 0.5169(8) 0.1777(5)
C29 C 0.4934(10) 0.4239(8) 0.1274(6)
N3 N 0.8366(8) 0.8714(8) 0.8791(4)
N4 N 0.9986(8) 0.3225(7) 0.0392(4)
Cd7 Cd 0.77556(6) 0.73723(5) 0.94914(3)
N6 N 0.1634(8) 0.1286(8) 0.1209(4)
C30 C 0.9255(11) 0.3144(9) 0.9732(5)
H17 H 0.9568 0.2714 0.9315
C31 C 0.8060(10) 0.3667(9) 0.9642(5)
H18 H 0.7572 0.3571 0.9171
N7 N 0.0014(8) 0.6775(7) 0.9608(4)
C30_2 C 0.0745(11) 0.6856(9) 0.0268(5)
H17_2 H 0.0432 0.7286 0.0685
C31_2 C 0.1940(10) 0.6333(9) 0.0358(5)
H18_2 H 0.2428 0.6429 0.0829
O10 O 0.7408(16) 0.7366(12) 0.0676(5)
O11 O 0.7272(18) 0.8980(10) 0.0464(5)
C8_2 C 0.2835(11) 0.0885(11) 0.1418(6)
H5_2 H 0.3799 0.1147 0.1241
C10_2 C 0.0273(9) 0.0918(8) 0.1479(5)
C11_2 C 0.2751(12) 0.0118(13) 0.1873(7)
C19_2 C 0.3762(10) 0.4100(8) 0.7554(5)
H12_2 H 0.4792 0.4144 0.7450
C20_2 C 0.1987(9) 0.4782(7) 0.8360(4)
C21_2 C 0.0970(8) 0.3236(7) 0.7190(4)
C22_2 C 0.0742(9) 0.3968(8) 0.7858(4)
C23_2 C 0.1640(9) 0.5527(8) 0.9049(4)
C24_2 C 0.2485(11) 0.3305(8) 0.7035(5)
H14_2 H 0.2659 0.2833 0.6593
O3_2 O 0.5027(7) 0.6810(7) 0.9038(4)
O4_2 O 0.6245(8) 0.5402(7) 0.8730(4)
C26_2 C 0.0504(10) 0.6112(8) 0.9003(4)
H15_2 H 0.0033 0.6062 0.8537
C27_2 C 0.2416(10) 0.5668(9) 0.9755(5)
H16_2 H 0.3231 0.5318 0.9811
C28_2 C 0.3571(9) 0.4831(8) 0.8223(5)
C29_2 C 0.5066(10) 0.5761(8) 0.8726(6)
C7_2 C 0.8256(9) 0.0018(7) 0.2905(4)
H4_2 H 0.9132 0.0542 0.3240
H6_2 H 0.9463 0.1242 0.1367
C12_2 C 0.9953(10) 0.0093(8) 0.1914(4)
N1_2 N 0.6832(8) 0.2898(6) 0.5457(4)
C13_2 C 0.6152(17) 0.4690(9) 0.5989(7)
H8_2 H 0.5616 0.5066 0.6338
C14_2 C 0.7709(15) 0.4705(9) 0.5044(6)
H9_2 H 0.8260 0.5089 0.4718
C15_2 C 0.7001(11) 0.5363(7) 0.5583(5)
C16_2 C 0.7582(13) 0.3494(9) 0.5003(7)
H10_2 H 0.8045 0.3071 0.4640
N2 N 0.7228(8) 0.9107(6) 0.5684(4)
C17_2 C 0.7102(11) 0.6701(7) 0.5640(5)
C18_2 C 0.6264(12) 0.8471(9) 0.6076(6)
H11_2 H 0.5597 0.8844 0.6346
H13_2 H 0.9706 0.3896 0.7963
O1_2 O 0.8180(6) 0.2171(6) 0.6815(3)
O2_2 O 0.9824(7) 0.1963(6) 0.6000(3)
C25_2 C 0.9542(9) 0.2396(7) 0.6631(4)
C32_2 C 0.6220(13) 0.7312(9) 0.6094(6)
H19_2 H 0.5610 0.6930 0.6406
O5_2 O 0.7914(7) 0.0764(5) 0.4394(3)
C34_2 C 0.6041(16) 0.3477(10) 0.5911(7)
H20_2 H 0.5386 0.3046 0.6189
C35_2 C 0.8048(11) 0.7368(8) 0.5242(6)
H21_2 H 0.8688 0.7008 0.4945
C36_2 C 0.8074(11) 0.8537(8) 0.5270(6)
H22_2 H 0.8719 0.8954 0.4983
C1_2 C 0.5530(10) 0.8792(8) 0.2681(4)
H1_2 H 0.4558 0.8499 0.2844
C2_2 C 0.5701(11) 0.8421(10) 0.1951(5)
H2_2 H 0.4830 0.7855 0.1631
C4_2 C 0.6716(9) 0.9978(7) 0.3984(4)
C5_2 C 0.6799(9) 0.9590(6) 0.3159(4)
C6_2 C 0.8422(10) 0.9679(8) 0.2169(4)
C9_2 C 0.7063(10) 0.8833(8) 0.1673(4)
C33_2 C 0.7224(13) 0.8371(11) 0.0881(5)
C3 C 0.8720(11) 0.0308(11) 0.7884(6)
H3 H 0.8838 0.0853 0.7590
H7 H 0.6367 0.0110 0.7987
C3_2 C 0.1280(11) 0.9692(11) 0.2116(6)
H3_2 H 0.1162 0.9147 0.2410
H7_2 H 0.3633 0.9890 0.2013
loop_
_geom_bond_atom_site_label_1
_geom_bond_atom_site_label_2
_geom_bond_site_symmetry_1
_geom_bond_site_symmetry_2
C1 H1 1_555 1_555
C2 C1 1_555 1_555
H2 C2 1_555 1_555
C4 C5 1_555 1_555
C5 C1 1_555 1_555
C9 C2 1_555 1_555
C33 C9 1_555 1_555
O7 C33 1_555 1_555
O8 C33 1_555 1_555
Cd4 O6 1_555 1_555
C4 O6 1_555 1_555
C6 C9 1_555 1_555
Cd1 N1 1_555 1_555
H4 C7 1_555 1_555
N1 C16 1_555 1_555
C13 H8 1_555 1_555
C14 H9 1_555 1_555
C15 C13 1_555 1_555
C16 C14 1_555 1_555
H10 C16 1_555 1_555
N5 C18 1_555 1_555
C17 C15 1_555 1_555
C18 H11 1_555 1_555
O1 Cd1 1_555 1_555
O2 Cd1 1_555 1_555
C32 C17 1_555 1_555
H19 C32 1_555 1_555
O5 Cd1 1_555 1_555
C34 N1 1_555 1_555
H20 C34 1_555 1_555
C35 C17 1_555 1_555
H21 C35 1_555 1_555
C36 N5 1_555 1_555
H22 C36 1_555 1_555
O9 Cd1 1_555 1_555
C13 C34 1_555 1_555
C14 C15 1_555 1_555
C18 C32 1_555 1_555
O1 C25 1_555 1_555
O2 C25 1_555 1_555
C35 C36 1_555 1_555
Cd6 O3 1_555 1_555
C8 H5 1_555 1_555
C19 H12 1_555 1_555
C20 C22 1_555 1_555
C21 C22 1_555 1_555
C23 C20 1_555 1_555
C24 C19 1_555 1_555
H14 C24 1_555 1_555
O3 C29 1_555 1_555
O4 Cd6 1_555 1_555
C26 C23 1_555 1_555
H15 C26 1_555 1_555
C27 C23 1_555 1_555
H16 C27 1_555 1_555
C28 C19 1_555 1_555
C29 O4 1_555 1_555
N3 C8 1_555 1_555
N4 C26 1_555 1_555
Cd7 N3 1_555 1_555
N6 Cd6 1_555 1_555
C8 C11 1_555 1_555
C10 N3 1_555 1_555
C20 C28 1_555 1_555
C21 C24 1_555 1_555
C28 C29 1_555 1_555
C30 H17 1_555 1_555
H18 C31 1_555 1_555
C30 C31 1_555 1_555
C30_2 H17_2 1_555 1_555
H18_2 C31_2 1_555 1_555
C30_2 C31_2 1_555 1_555
Cd7 O3_2 1_555 1_555
C8_2 H5_2 1_555 1_555
C19_2 H12_2 1_555 1_555
C20_2 C22_2 1_555 1_555
C21_2 C22_2 1_555 1_555
C23_2 C20_2 1_555 1_555
C24_2 C19_2 1_555 1_555
H14_2 C24_2 1_555 1_555
O3_2 C29_2 1_555 1_555
O4_2 Cd7 1_555 1_555
C26_2 C23_2 1_555 1_555
H15_2 C26_2 1_555 1_555
C27_2 C23_2 1_555 1_555
H16_2 C27_2 1_555 1_555
C28_2 C19_2 1_555 1_555
C29_2 O4_2 1_555 1_555
N6 C8_2 1_555 1_555
N7 C26_2 1_555 1_555
C8_2 C11_2 1_555 1_555
C10_2 N6 1_555 1_555
C20_2 C28_2 1_555 1_555
C21_2 C24_2 1_555 1_555
C28_2 C29_2 1_555 1_555
Cd4 N1_2 1_555 1_555
H4_2 C7_2 1_555 1_555
N1_2 C16_2 1_555 1_555
C13_2 H8_2 1_555 1_555
C14_2 H9_2 1_555 1_555
C15_2 C13_2 1_555 1_555
C16_2 C14_2 1_555 1_555
H10_2 C16_2 1_555 1_555
N2 C18_2 1_555 1_555
C17_2 C15_2 1_555 1_555
C18_2 H11_2 1_555 1_555
O1_2 Cd4 1_555 1_555
O2_2 Cd4 1_555 1_555
C32_2 C17_2 1_555 1_555
H19_2 C32_2 1_555 1_555
O5_2 Cd4 1_555 1_555
C34_2 N1_2 1_555 1_555
H20_2 C34_2 1_555 1_555
C35_2 C17_2 1_555 1_555
H21_2 C35_2 1_555 1_555
C36_2 N2 1_555 1_555
H22_2 C36_2 1_555 1_555
C13_2 C34_2 1_555 1_555
C14_2 C15_2 1_555 1_555
C18_2 C32_2 1_555 1_555
O1_2 C25_2 1_555 1_555
O2_2 C25_2 1_555 1_555
C35_2 C36_2 1_555 1_555
C1_2 H1_2 1_555 1_555
C2_2 C1_2 1_555 1_555
H2_2 C2_2 1_555 1_555
C4_2 C5_2 1_555 1_555
C5_2 C1_2 1_555 1_555
C9_2 C2_2 1_555 1_555
C33_2 C9_2 1_555 1_555
O10 C33_2 1_555 1_555
O11 C33_2 1_555 1_555
C4_2 O9 1_555 1_555
C6_2 C9_2 1_555 1_555
C3 H3 1_555 1_555
C3_2 H3_2 1_555 1_555

#END
