
###############################################################################
#
# This file contains modified crystal structure data generated from the
# MOF subset of the Cambridge Structural Database (CSD) v543 
# hosted by the Cambridge Crystallographic Data Centre (CCDC).
#
# This work is licensed under the Creative Commons
# Attribution-NonCommercial-ShareAlike 4.0 International License.
# To view a copy of this license, visit
# http://creativecommons.org/licenses/by-nc-sa/4.0/
# or send a letter to
# Creative Commons, PO Box 1866, Mountain View, CA 94042, USA.
#
# CIF created using the CSD Python API on 29 September 2022
# The structure has been converted into the P1 space group
# The structure has a 3D framework
# The original CSD entry SOCNOP is in the monoclinic crystal system
# The framework has been calculated to contain at least 10.0% void space
# The void calculation uses a probe of radius 1.32A, grid spacing 0.4
#
###############################################################################

data_SOCNOP
_chemical_formula_moiety         '(C96 H88 N16 O32 Zn8)n'
_symmetry_cell_setting           triclinic
_symmetry_space_group_name_H-M   'P 1'
_symmetry_Int_Tables_number      1
_space_group_name_Hall           'P 1'
loop_
_symmetry_equiv_pos_site_id
_symmetry_equiv_pos_as_xyz
1 x,y,z
_cell_length_a                   17.370(5)
_cell_length_b                   12.694(4)
_cell_length_c                   12.332(4)
_cell_angle_alpha                90
_cell_angle_beta                 92.587(6)
_cell_angle_gamma                90
_cell_volume                     2716.37
loop_
_atom_site_label
_atom_site_type_symbol
_atom_site_fract_x
_atom_site_fract_y
_atom_site_fract_z
C13 C 0.5390(2) 0.1028(3) 0.0795(3)
H12 H 0.5686 0.0436 0.0659
C14 C 0.47002(19) 0.1012(3) 0.1219(3)
H13 H 0.4428 0.0419 0.1424
C15 C 0.5027(2) 0.2652(2) 0.0895(3)
C16 C 0.4989(2) 0.3805(3) 0.0793(4)
H14 H 0.5451 0.4060 0.0485
H15 H 0.4552 0.3996 0.0329
H16 H 0.4937 0.4113 0.1497
C17 C 0.3731(2) 0.2391(3) 0.1682(3)
H17 H 0.3574 0.1917 0.2248
H18 H 0.3797 0.3086 0.2001
C18 C 0.3098(2) 0.2438(2) 0.0794(3)
C19 C 0.2353(2) 0.2595(3) 0.1078(3)
H19 H 0.2248 0.2661 0.1808
C20 C 0.1752(2) 0.2659(3) 0.0300(3)
H20 H 0.1250 0.2767 0.0510
N3 N 0.55998(14) 0.2044(2) 0.05900(19)
N4 N 0.44687(14) 0.2037(2) 0.1295(2)
Zn7 Zn 0.663540(19) 0.24384(2) 0.00726(3)
C6 C 0.02998(19) 0.3988(3) 0.8781(3)
H4 H 0.0572 0.4581 0.8576
C8 C 0.0011(2) 0.1195(3) 0.9207(4)
H6 H 0.0448 0.1004 0.9671
H7 H 0.0063 0.0887 0.8503
C9 C 0.1269(2) 0.2609(3) 0.8318(3)
H8 H 0.1426 0.3083 0.7752
H9 H 0.1203 0.1914 0.7999
C10 C 0.1902(2) 0.2562(2) 0.9206(3)
C11 C 0.2647(2) 0.2405(3) 0.8922(3)
H10 H 0.2752 0.2339 0.8192
C12 C 0.3248(2) 0.2341(3) 0.9700(3)
H11 H 0.3750 0.2233 0.9490
N2 N 0.05313(14) 0.2963(2) 0.8705(2)
C1 C 0.79159(19) 0.1140(2) 0.1499(2)
C2 C 0.79872(19) 0.0318(2) 0.2372(2)
H1 H 0.8475 0.0151 0.2666
H2 H 0.6902 0.0005 0.2440
O1 O 0.85377(14) 0.14902(18) 0.11523(19)
O2 O 0.72591(14) 0.14295(18) 0.11791(18)
O9 O 0.69235(14) 0.36447(17) 0.11029(18)
O11 O 0.82130(14) 0.37021(19) 0.10619(19)
Zn1 Zn 0.836460(19) 0.25616(2) 0.99274(3)
C5 C 0.9610(2) 0.3972(3) 0.9205(3)
H3 H 0.9314 0.4564 0.9341
C7 C 0.9973(2) 0.2348(2) 0.9105(3)
H5 H 0.9549 0.0940 0.9515
N1 N 0.94002(14) 0.2956(2) 0.94100(19)
C21 C 0.70841(19) 0.3860(2) 0.8501(2)
C22 C 0.70128(19) 0.4682(2) 0.7628(2)
H21 H 0.6525 0.4849 0.7334
C23 C 0.76142(19) 0.5175(2) 0.7262(3)
H22 H 0.8098 0.4995 0.7560
C24 C 0.75758(18) 0.6003(2) 0.6402(2)
O5 O 0.64623(14) 0.35098(18) 0.88477(19)
O6 O 0.77409(14) 0.35705(18) 0.88209(18)
O7 O 0.69235(14) 0.63553(17) 0.61029(18)
O8 O 0.82130(14) 0.62979(19) 0.60619(19)
Zn4 Zn 0.663540(19) 0.75616(2) 0.50726(3)
Zn6 Zn 0.836460(19) 0.74384(2) 0.49274(3)
O10 O 0.80765(14) 0.13553(17) 0.88971(18)
O12 O 0.67870(14) 0.12979(19) 0.89381(19)
C3 C 0.73858(19) 0.9825(2) 0.2738(3)
C4 C 0.74242(18) 0.8997(2) 0.3598(2)
O3 O 0.80765(14) 0.86447(17) 0.38971(18)
O4 O 0.67870(14) 0.87021(19) 0.39381(19)
C23_2 C 0.73858(19) 0.0175(2) 0.7738(3)
C24_2 C 0.74242(18) 0.1003(2) 0.8598(2)
C1_2 C 0.70841(19) 0.6140(2) 0.3501(2)
C2_2 C 0.70128(19) 0.5318(2) 0.2628(2)
H1_2 H 0.6525 0.5151 0.2334
C3_2 C 0.76142(19) 0.4825(2) 0.2262(3)
H2_2 H 0.8098 0.5005 0.2560
C4_2 C 0.75758(18) 0.3997(2) 0.1402(2)
C5_2 C 0.5390(2) 0.8972(3) 0.5795(3)
H3_2 H 0.5686 0.9564 0.5659
C6_2 C 0.47002(19) 0.8988(3) 0.6219(3)
H4_2 H 0.4428 0.9581 0.6424
C7_2 C 0.5027(2) 0.7348(2) 0.5895(3)
C8_2 C 0.4989(2) 0.6195(3) 0.5793(4)
H5_2 H 0.5451 0.5940 0.5485
H6_2 H 0.4552 0.6004 0.5329
H7_2 H 0.4937 0.5887 0.6497
C9_2 C 0.3731(2) 0.7609(3) 0.6682(3)
H8_2 H 0.3574 0.8083 0.7248
H9_2 H 0.3797 0.6914 0.7001
C10_2 C 0.3098(2) 0.7562(2) 0.5794(3)
C11_2 C 0.2353(2) 0.7405(3) 0.6078(3)
H10_2 H 0.2248 0.7339 0.6808
C12_2 C 0.1752(2) 0.7341(3) 0.5300(3)
H11_2 H 0.1250 0.7233 0.5510
N1_2 N 0.55998(14) 0.7956(2) 0.55900(19)
N2_2 N 0.44687(14) 0.7963(2) 0.6295(2)
O1_2 O 0.64623(14) 0.64902(18) 0.38477(19)
O2_2 O 0.77409(14) 0.64295(18) 0.38209(18)
C14_2 C 0.02998(19) 0.6012(3) 0.3781(3)
H13_2 H 0.0572 0.5419 0.3576
C16_2 C 0.0011(2) 0.8805(3) 0.4207(4)
H15_2 H 0.0448 0.8996 0.4671
H16_2 H 0.0063 0.9113 0.3503
C17_2 C 0.1269(2) 0.7391(3) 0.3318(3)
H17_2 H 0.1426 0.6917 0.2752
H18_2 H 0.1203 0.8086 0.2999
C18_2 C 0.1902(2) 0.7438(2) 0.4206(3)
C19_2 C 0.2647(2) 0.7595(3) 0.3922(3)
H19_2 H 0.2752 0.7661 0.3192
C20_2 C 0.3248(2) 0.7659(3) 0.4700(3)
H20_2 H 0.3750 0.7767 0.4490
N4_2 N 0.05313(14) 0.7037(2) 0.3705(2)
C21_2 C 0.79159(19) 0.8860(2) 0.6499(2)
C22_2 C 0.79872(19) 0.9682(2) 0.7372(2)
H21_2 H 0.8475 0.9849 0.7666
H22_2 H 0.6902 0.9995 0.7440
O5_2 O 0.85377(14) 0.85098(18) 0.61523(19)
O6_2 O 0.72591(14) 0.85705(18) 0.61791(18)
N5 N 0.94002(14) 0.7044(2) 0.44100(19)
C13_2 C 0.9610(2) 0.6028(3) 0.4205(3)
H12_2 H 0.9314 0.5436 0.4341
C15_2 C 0.9973(2) 0.7652(2) 0.4105(3)
H14_2 H 0.9549 0.9060 0.4515
Zn6_2 Zn 0.163540(19) 0.74384(2) 0.00726(3)
Zn1_2 Zn 0.163540(19) 0.25616(2) 0.50726(3)
C1_3 C 0.20841(19) 0.1140(2) 0.3501(2)
C2_3 C 0.20128(19) 0.0318(2) 0.2628(2)
H1_3 H 0.1525 0.0151 0.2334
H2_3 H 0.3098 0.0005 0.2560
C5_3 C 0.0390(2) 0.3972(3) 0.5795(3)
H3_3 H 0.0686 0.4564 0.5659
C7_3 C 0.0027(2) 0.2348(2) 0.5895(3)
H5_3 H 0.0451 0.0940 0.5485
N1_3 N 0.05998(14) 0.2956(2) 0.55900(19)
O1_3 O 0.14623(14) 0.14902(18) 0.38477(19)
O2_3 O 0.27409(14) 0.14295(18) 0.38209(18)
Zn2 Zn 0.336460(19) 0.24384(2) 0.49274(3)
C21_3 C 0.29159(19) 0.3860(2) 0.6499(2)
C22_3 C 0.29872(19) 0.4682(2) 0.7372(2)
H21_3 H 0.3475 0.4849 0.7666
C23_3 C 0.23858(19) 0.5175(2) 0.7738(3)
H22_3 H 0.1902 0.4995 0.7440
C24_3 C 0.24242(18) 0.6003(2) 0.8598(2)
O5_3 O 0.35377(14) 0.35098(18) 0.61523(19)
O6_3 O 0.22591(14) 0.35705(18) 0.61791(18)
O7_2 O 0.30765(14) 0.63553(17) 0.88971(18)
O8_2 O 0.17870(14) 0.62979(19) 0.89381(19)
Zn4_2 Zn 0.336460(19) 0.75616(2) 0.99274(3)
N5_2 N 0.44002(14) 0.2044(2) 0.44100(19)
O9_2 O 0.30765(14) 0.36447(17) 0.38971(18)
O10_2 O 0.19235(14) 0.13553(17) 0.61029(18)
O11_2 O 0.17870(14) 0.37021(19) 0.39381(19)
O12_2 O 0.32130(14) 0.12979(19) 0.60619(19)
C3_3 C 0.26142(19) 0.9825(2) 0.2262(3)
C4_3 C 0.25758(18) 0.8997(2) 0.1402(2)
O3_2 O 0.19235(14) 0.86447(17) 0.11029(18)
O4_2 O 0.32130(14) 0.87021(19) 0.10619(19)
C6_3 C 0.97002(19) 0.3988(3) 0.6219(3)
H4_3 H 0.9428 0.4581 0.6424
C8_3 C 0.9989(2) 0.1195(3) 0.5793(4)
H6_3 H 0.9552 0.1004 0.5329
H7_3 H 0.9937 0.0887 0.6497
C9_3 C 0.8731(2) 0.2609(3) 0.6682(3)
H8_3 H 0.8574 0.3083 0.7248
H9_3 H 0.8797 0.1914 0.7001
C10_3 C 0.8098(2) 0.2562(2) 0.5794(3)
C11_3 C 0.7353(2) 0.2405(3) 0.6078(3)
H10_3 H 0.7248 0.2339 0.6808
C12_3 C 0.6752(2) 0.2341(3) 0.5300(3)
H11_3 H 0.6250 0.2233 0.5510
N2_3 N 0.94687(14) 0.2963(2) 0.6295(2)
C13_3 C 0.4610(2) 0.1028(3) 0.4205(3)
H12_3 H 0.4314 0.0436 0.4341
C14_3 C 0.52998(19) 0.1012(3) 0.3781(3)
H13_3 H 0.5572 0.0419 0.3576
C15_3 C 0.4973(2) 0.2652(2) 0.4105(3)
C16_3 C 0.5011(2) 0.3805(3) 0.4207(4)
H14_3 H 0.4549 0.4060 0.4515
H15_3 H 0.5448 0.3996 0.4671
H16_3 H 0.5063 0.4113 0.3503
C17_3 C 0.6269(2) 0.2391(3) 0.3318(3)
H17_3 H 0.6426 0.1917 0.2752
H18_3 H 0.6203 0.3086 0.2999
C18_3 C 0.6902(2) 0.2438(2) 0.4206(3)
C19_3 C 0.7647(2) 0.2595(3) 0.3922(3)
H19_3 H 0.7752 0.2661 0.3192
C20_3 C 0.8248(2) 0.2659(3) 0.4700(3)
H20_3 H 0.8750 0.2767 0.4490
N4_3 N 0.55313(14) 0.2037(2) 0.3705(2)
C13_4 C 0.0390(2) 0.6028(3) 0.0795(3)
H12_4 H 0.0686 0.5436 0.0659
C15_4 C 0.0027(2) 0.7652(2) 0.0895(3)
H14_4 H 0.0451 0.9060 0.0485
N3_2 N 0.05998(14) 0.7044(2) 0.05900(19)
C23_4 C 0.26142(19) 0.0175(2) 0.7262(3)
C24_4 C 0.25758(18) 0.1003(2) 0.6402(2)
C1_4 C 0.29159(19) 0.6140(2) 0.1499(2)
C2_4 C 0.29872(19) 0.5318(2) 0.2372(2)
H1_4 H 0.3475 0.5151 0.2666
C3_4 C 0.23858(19) 0.4825(2) 0.2738(3)
H2_4 H 0.1902 0.5005 0.2440
C4_4 C 0.24242(18) 0.3997(2) 0.3598(2)
O1_4 O 0.35377(14) 0.64902(18) 0.11523(19)
O2_4 O 0.22591(14) 0.64295(18) 0.11791(18)
C14_4 C 0.97002(19) 0.6012(3) 0.1219(3)
H13_4 H 0.9428 0.5419 0.1424
C16_4 C 0.9989(2) 0.8805(3) 0.0793(4)
H15_4 H 0.9552 0.8996 0.0329
H16_4 H 0.9937 0.9113 0.1497
C17_4 C 0.8731(2) 0.7391(3) 0.1682(3)
H17_4 H 0.8574 0.6917 0.2248
H18_4 H 0.8797 0.8086 0.2001
C18_4 C 0.8098(2) 0.7438(2) 0.0794(3)
C19_4 C 0.7353(2) 0.7595(3) 0.1078(3)
H19_4 H 0.7248 0.7661 0.1808
C20_4 C 0.6752(2) 0.7659(3) 0.0300(3)
H20_4 H 0.6250 0.7767 0.0510
N4_4 N 0.94687(14) 0.7037(2) 0.1295(2)
C5_4 C 0.4610(2) 0.8972(3) 0.9205(3)
H3_4 H 0.4314 0.9564 0.9341
C6_4 C 0.52998(19) 0.8988(3) 0.8781(3)
H4_4 H 0.5572 0.9581 0.8576
C7_4 C 0.4973(2) 0.7348(2) 0.9105(3)
C8_4 C 0.5011(2) 0.6195(3) 0.9207(4)
H5_4 H 0.4549 0.5940 0.9515
H6_4 H 0.5448 0.6004 0.9671
H7_4 H 0.5063 0.5887 0.8503
C9_4 C 0.6269(2) 0.7609(3) 0.8318(3)
H8_4 H 0.6426 0.8083 0.7752
H9_4 H 0.6203 0.6914 0.7999
C10_4 C 0.6902(2) 0.7562(2) 0.9206(3)
C11_4 C 0.7647(2) 0.7405(3) 0.8922(3)
H10_4 H 0.7752 0.7339 0.8192
C12_4 C 0.8248(2) 0.7341(3) 0.9700(3)
H11_4 H 0.8750 0.7233 0.9490
N1_4 N 0.44002(14) 0.7956(2) 0.94100(19)
N2_4 N 0.55313(14) 0.7963(2) 0.8705(2)
C21_4 C 0.20841(19) 0.8860(2) 0.8501(2)
C22_4 C 0.20128(19) 0.9682(2) 0.7628(2)
H21_4 H 0.1525 0.9849 0.7334
H22_4 H 0.3098 0.9995 0.7560
O5_4 O 0.14623(14) 0.85098(18) 0.88477(19)
O6_4 O 0.27409(14) 0.85705(18) 0.88209(18)
loop_
_geom_bond_atom_site_label_1
_geom_bond_atom_site_label_2
_geom_bond_site_symmetry_1
_geom_bond_site_symmetry_2
C13 H12 1_555 1_555
C14 C13 1_555 1_555
H13 C14 1_555 1_555
C15 C16 1_555 1_555
C16 H14 1_555 1_555
H15 C16 1_555 1_555
H16 C16 1_555 1_555
C17 H17 1_555 1_555
H18 C17 1_555 1_555
C19 C18 1_555 1_555
H19 C19 1_555 1_555
H20 C20 1_555 1_555
N3 C13 1_555 1_555
N4 C14 1_555 1_555
Zn7 N3 1_555 1_555
C15 N3 1_555 1_555
C15 N4 1_555 1_555
C17 C18 1_555 1_555
C17 N4 1_555 1_555
C19 C20 1_555 1_555
H4 C6 1_555 1_555
H6 C8 1_555 1_555
H7 C8 1_555 1_555
C9 H8 1_555 1_555
H9 C9 1_555 1_555
C10 C9 1_555 1_555
C11 C10 1_555 1_555
H10 C11 1_555 1_555
C12 C11 1_555 1_555
H11 C12 1_555 1_555
N2 C6 1_555 1_555
C9 N2 1_555 1_555
C1 C2 1_555 1_555
C2 H1 1_555 1_555
O2 C1 1_555 1_555
Zn7 O2 1_555 1_555
O9 Zn7 1_555 1_555
C1 O1 1_555 1_555
Zn1 N1 1_555 1_555
C5 H3 1_555 1_555
N1 C5 1_555 1_555
C21 C22 1_555 1_555
C22 H21 1_555 1_555
C23 C22 1_555 1_555
H22 C23 1_555 1_555
C24 C23 1_555 1_555
O6 Zn1 1_555 1_555
O7 C24 1_555 1_555
O8 C24 1_555 1_555
Zn4 O7 1_555 1_555
Zn6 O8 1_555 1_555
O10 Zn1 1_555 1_555
C7 N1 1_555 1_555
C21 O5 1_555 1_555
C21 O6 1_555 1_555
C4 C3 1_555 1_555
O3 C4 1_555 1_555
O4 C4 1_555 1_555
Zn4 O4 1_555 1_555
Zn6 O3 1_555 1_555
C24_2 C23_2 1_555 1_555
O10 C24_2 1_555 1_555
O12 C24_2 1_555 1_555
Zn4 N1_2 1_555 1_555
C1_2 C2_2 1_555 1_555
C2_2 H1_2 1_555 1_555
C3_2 C2_2 1_555 1_555
H2_2 C3_2 1_555 1_555
C4_2 C3_2 1_555 1_555
C5_2 H3_2 1_555 1_555
C6_2 C5_2 1_555 1_555
H4_2 C6_2 1_555 1_555
C7_2 C8_2 1_555 1_555
C8_2 H5_2 1_555 1_555
H6_2 C8_2 1_555 1_555
H7_2 C8_2 1_555 1_555
C9_2 H8_2 1_555 1_555
H9_2 C9_2 1_555 1_555
C10_2 C9_2 1_555 1_555
C11_2 C10_2 1_555 1_555
H10_2 C11_2 1_555 1_555
C12_2 C11_2 1_555 1_555
H11_2 C12_2 1_555 1_555
N1_2 C5_2 1_555 1_555
N2_2 C6_2 1_555 1_555
O1_2 Zn4 1_555 1_555
O2_2 C1_2 1_555 1_555
O9 C4_2 1_555 1_555
O11 C4_2 1_555 1_555
H13_2 C14_2 1_555 1_555
H15_2 C16_2 1_555 1_555
H16_2 C16_2 1_555 1_555
C17_2 H17_2 1_555 1_555
H18_2 C17_2 1_555 1_555
C18_2 C12_2 1_555 1_555
C19_2 C18_2 1_555 1_555
H19_2 C19_2 1_555 1_555
C20_2 C10_2 1_555 1_555
H20_2 C20_2 1_555 1_555
N4_2 C14_2 1_555 1_555
Zn6 O2_2 1_555 1_555
C21_2 C22_2 1_555 1_555
C22_2 H21_2 1_555 1_555
O5_2 Zn6 1_555 1_555
O6_2 Zn4 1_555 1_555
N5 Zn6 1_555 1_555
C1_2 O1_2 1_555 1_555
C7_2 N1_2 1_555 1_555
C7_2 N2_2 1_555 1_555
C9_2 N2_2 1_555 1_555
C17_2 C18_2 1_555 1_555
C17_2 N4_2 1_555 1_555
C19_2 C20_2 1_555 1_555
C21_2 O5_2 1_555 1_555
C21_2 O6_2 1_555 1_555
C13_2 H12_2 1_555 1_555
N5 C13_2 1_555 1_555
C15_2 N5 1_555 1_555
Zn1_2 N1_3 1_555 1_555
C1_3 C2_3 1_555 1_555
C2_3 H1_3 1_555 1_555
C5_3 H3_3 1_555 1_555
N1_3 C5_3 1_555 1_555
O1_3 Zn1_2 1_555 1_555
O2_3 C1_3 1_555 1_555
Zn2 O2_3 1_555 1_555
C21_3 C22_3 1_555 1_555
C22_3 H21_3 1_555 1_555
C23_3 C22_3 1_555 1_555
H22_3 C23_3 1_555 1_555
C24_3 C23_3 1_555 1_555
O5_3 Zn2 1_555 1_555
O6_3 Zn1_2 1_555 1_555
O7_2 C24_3 1_555 1_555
O8_2 C24_3 1_555 1_555
Zn4_2 O7_2 1_555 1_555
N5_2 Zn2 1_555 1_555
O9_2 Zn2 1_555 1_555
O10_2 Zn1_2 1_555 1_555
O11_2 Zn1_2 1_555 1_555
O12_2 Zn2 1_555 1_555
C1_3 O1_3 1_555 1_555
C7_3 N1_3 1_555 1_555
C21_3 O5_3 1_555 1_555
C21_3 O6_3 1_555 1_555
C4_3 C3_3 1_555 1_555
O3_2 C4_3 1_555 1_555
O4_2 C4_3 1_555 1_555
Zn6_2 O3_2 1_555 1_555
H4_3 C6_3 1_555 1_555
H6_3 C8_3 1_555 1_555
H7_3 C8_3 1_555 1_555
C9_3 H8_3 1_555 1_555
H9_3 C9_3 1_555 1_555
C10_3 C9_3 1_555 1_555
C11_3 C10_3 1_555 1_555
H10_3 C11_3 1_555 1_555
C12_3 C11_3 1_555 1_555
H11_3 C12_3 1_555 1_555
N2_3 C6_3 1_555 1_555
C13_3 H12_3 1_555 1_555
C14_3 C13_3 1_555 1_555
H13_3 C14_3 1_555 1_555
C15_3 C16_3 1_555 1_555
C16_3 H14_3 1_555 1_555
H15_3 C16_3 1_555 1_555
H16_3 C16_3 1_555 1_555
C17_3 H17_3 1_555 1_555
H18_3 C17_3 1_555 1_555
C18_3 C12_3 1_555 1_555
C19_3 C18_3 1_555 1_555
H19_3 C19_3 1_555 1_555
C20_3 C10_3 1_555 1_555
H20_3 C20_3 1_555 1_555
N5_2 C13_3 1_555 1_555
N4_3 C14_3 1_555 1_555
C9_3 N2_3 1_555 1_555
C15_3 N5_2 1_555 1_555
C15_3 N4_3 1_555 1_555
C17_3 C18_3 1_555 1_555
C17_3 N4_3 1_555 1_555
C19_3 C20_3 1_555 1_555
C13_4 H12_4 1_555 1_555
N3_2 C13_4 1_555 1_555
Zn6_2 N3_2 1_555 1_555
C15_4 N3_2 1_555 1_555
C24_4 C23_4 1_555 1_555
O10_2 C24_4 1_555 1_555
O12_2 C24_4 1_555 1_555
C1_4 C2_4 1_555 1_555
C2_4 H1_4 1_555 1_555
C3_4 C2_4 1_555 1_555
H2_4 C3_4 1_555 1_555
C4_4 C3_4 1_555 1_555
O2_4 C1_4 1_555 1_555
O9_2 C4_4 1_555 1_555
O11_2 C4_4 1_555 1_555
H13_4 C14_4 1_555 1_555
H15_4 C16_4 1_555 1_555
H16_4 C16_4 1_555 1_555
C17_4 H17_4 1_555 1_555
H18_4 C17_4 1_555 1_555
C19_4 C18_4 1_555 1_555
H19_4 C19_4 1_555 1_555
H20_4 C20_4 1_555 1_555
N4_4 C14_4 1_555 1_555
Zn6_2 O2_4 1_555 1_555
C1_4 O1_4 1_555 1_555
C17_4 C18_4 1_555 1_555
C17_4 N4_4 1_555 1_555
C19_4 C20_4 1_555 1_555
Zn4_2 N1_4 1_555 1_555
C5_4 H3_4 1_555 1_555
C6_4 C5_4 1_555 1_555
H4_4 C6_4 1_555 1_555
C7_4 C8_4 1_555 1_555
C8_4 H5_4 1_555 1_555
H6_4 C8_4 1_555 1_555
H7_4 C8_4 1_555 1_555
C9_4 H8_4 1_555 1_555
H9_4 C9_4 1_555 1_555
C10_4 C9_4 1_555 1_555
C11_4 C10_4 1_555 1_555
H10_4 C11_4 1_555 1_555
C12_4 C11_4 1_555 1_555
H11_4 C12_4 1_555 1_555
N1_4 C5_4 1_555 1_555
N2_4 C6_4 1_555 1_555
C21_4 C22_4 1_555 1_555
C22_4 H21_4 1_555 1_555
O6_4 Zn4_2 1_555 1_555
C7_4 N1_4 1_555 1_555
C7_4 N2_4 1_555 1_555
C9_4 N2_4 1_555 1_555
C21_4 O5_4 1_555 1_555
C21_4 O6_4 1_555 1_555

#END
