
###############################################################################
#
# This file contains modified crystal structure data generated from the
# MOF subset of the Cambridge Structural Database (CSD) v543 
# hosted by the Cambridge Crystallographic Data Centre (CCDC).
#
# This work is licensed under the Creative Commons
# Attribution-NonCommercial-ShareAlike 4.0 International License.
# To view a copy of this license, visit
# http://creativecommons.org/licenses/by-nc-sa/4.0/
# or send a letter to
# Creative Commons, PO Box 1866, Mountain View, CA 94042, USA.
#
# CIF created using the CSD Python API on 29 September 2022
# The structure has been converted into the P1 space group
# The structure has a 3D framework
# The original CSD entry SOCPOQ is in the cubic crystal system
# The framework has been calculated to contain at least 10.0% void space
# The void calculation uses a probe of radius 1.32A, grid spacing 0.4
# The framework is charged, counterions have been retained in the structure
#
###############################################################################

data_SOCPOQ
_chemical_formula_moiety         '(C384 H288 Cd11 Cl36 N96 O144 2-)n'
_symmetry_cell_setting           triclinic
_symmetry_space_group_name_H-M   'P 1'
_symmetry_Int_Tables_number      1
_space_group_name_Hall           'P 1'
loop_
_symmetry_equiv_pos_site_id
_symmetry_equiv_pos_as_xyz
1 x,y,z
_cell_length_a                   24.7634(3)
_cell_length_b                   24.7634(3)
_cell_length_c                   24.7634(3)
_cell_angle_alpha                90
_cell_angle_beta                 90
_cell_angle_gamma                90
_cell_volume                     15185.6
loop_
_atom_site_label
_atom_site_type_symbol
_atom_site_fract_x
_atom_site_fract_y
_atom_site_fract_z
Cd1 Cd 0.5000 0.5000 0.0000
C1 C 0.4618(2) 0.37173(19) 0.00488(18)
H2 H 0.4644 0.3767 0.0432
H3 H 0.4326 0.2954 0.0156
Cd3 Cd 0.0000 0.0000 0.0000
Cd4 Cd 0.0000 0.5000 0.5000
Cd5 Cd 0.5000 0.0000 0.5000
O4 O 0.48691(15) 0.4000(2) 0.28544(17)
O5 O 0.28544(17) 0.48691(15) 0.4000(2)
O6 O 0.4000(2) 0.28544(17) 0.48691(15)
N5 N 0.47163(14) 0.47601(14) 0.08865(14)
N6 N 0.08865(14) 0.47163(14) 0.47601(14)
N7 N 0.47601(14) 0.08865(14) 0.47163(14)
N9 N 0.52399(14) 0.58865(14) 0.02837(14)
N11 N 0.58865(14) 0.47163(14) 0.02399(14)
N14 N 0.41164(17) 0.41869(18) 0.23619(17)
N15 N 0.23619(17) 0.41164(17) 0.41869(18)
N16 N 0.41869(18) 0.23619(17) 0.41164(17)
H9 H 0.3762 0.4170 0.2374
H10 H 0.2374 0.3762 0.4170
H11 H 0.4170 0.2374 0.3762
C11 C 0.50488(18) 0.4618(2) 0.12827(19)
C12 C 0.12827(19) 0.50488(18) 0.4618(2)
C13 C 0.4618(2) 0.12827(19) 0.50488(18)
H14 H 0.5432 0.4644 0.1233
H15 H 0.1233 0.5432 0.4644
H16 H 0.4644 0.1233 0.5432
C16 C 0.48908(19) 0.4427(2) 0.1781(2)
C17 C 0.1781(2) 0.48908(19) 0.4427(2)
C18 C 0.4427(2) 0.1781(2) 0.48908(19)
H19 H 0.5156 0.4326 0.2046
H20 H 0.2046 0.5156 0.4326
H21 H 0.4326 0.2046 0.5156
C21 C 0.43381(18) 0.43816(19) 0.18825(18)
C22 C 0.18825(18) 0.43381(18) 0.43816(19)
C23 C 0.43816(19) 0.18825(18) 0.43381(18)
C26 C 0.39841(18) 0.4529(2) 0.14740(19)
C27 C 0.14740(19) 0.39841(18) 0.4529(2)
C28 C 0.4529(2) 0.14740(19) 0.39841(18)
H24 H 0.3602 0.4498 0.1531
H25 H 0.1531 0.3602 0.4498
H26 H 0.4498 0.1531 0.3602
C31 C 0.41861(19) 0.4718(2) 0.09931(19)
C32 C 0.09931(19) 0.41861(19) 0.4718(2)
C33 C 0.4718(2) 0.09931(19) 0.41861(19)
H29 H 0.3928 0.4820 0.0722
H30 H 0.0722 0.3928 0.4820
H31 H 0.4820 0.0722 0.3928
C36 C 0.43781(19) 0.4021(2) 0.28103(19)
C37 C 0.28103(19) 0.43781(19) 0.4021(2)
C38 C 0.4021(2) 0.28103(19) 0.43781(19)
C41 C 0.40175(18) 0.38563(18) 0.32681(17)
C42 C 0.32681(17) 0.40175(18) 0.38563(18)
C43 C 0.38563(18) 0.32681(17) 0.40175(18)
C46 C 0.35719(18) 0.41605(18) 0.34098(19)
C47 C 0.34098(19) 0.35719(18) 0.41605(18)
C48 C 0.41605(18) 0.34098(19) 0.35719(18)
H34 H 0.3471 0.4468 0.3196
H35 H 0.4468 0.3196 0.3471
H36 H 0.3196 0.3471 0.4468
Cd1_2 Cd 0.5000 0.5000 1.0000
O1 O 0.4000(2) 0.21456(17) 0.98691(15)
N1 N 0.47601(14) 0.41135(14) 0.97163(14)
N2 N 0.41869(18) 0.26381(17) 0.91164(17)
H1 H 0.4170 0.2626 0.8762
C2 C 0.4427(2) 0.3219(2) 0.98908(19)
C3 C 0.43816(19) 0.31175(18) 0.93381(18)
C4 C 0.4529(2) 0.35260(19) 0.89841(18)
H4 H 0.4498 0.3469 0.8602
C5 C 0.4718(2) 0.40069(19) 0.91861(19)
H5 H 0.4820 0.4278 0.8928
C6 C 0.4021(2) 0.21897(19) 0.93781(19)
C7 C 0.38563(18) 0.17319(17) 0.90175(18)
C8 C 0.41605(18) 0.15902(19) 0.85719(18)
H6 H 0.4468 0.1804 0.8471
Cd3_2 Cd 0.0000 0.0000 1.0000
O2 O 0.48691(15) 0.1000(2) 0.78544(17)
O3 O 0.28544(17) 0.01309(15) 0.9000(2)
N3 N 0.47163(14) 0.02399(14) 0.58865(14)
N4 N 0.08865(14) 0.02837(14) 0.97601(14)
N8 N 0.41135(14) 0.52837(14) 0.97601(14)
N10 N 0.52837(14) 0.52399(14) 0.91135(14)
N12 N 0.41164(17) 0.08131(18) 0.73619(17)
N13 N 0.23619(17) 0.08836(17) 0.91869(18)
H7 H 0.3762 0.0830 0.7374
H8 H 0.2374 0.1238 0.9170
C9 C 0.50488(18) 0.0382(2) 0.62827(19)
H12 H 0.5432 0.0356 0.6233
C14 C 0.48908(19) 0.0573(2) 0.6781(2)
C15 C 0.1781(2) 0.01092(19) 0.9427(2)
H17 H 0.5156 0.0674 0.7046
C19 C 0.43381(18) 0.06184(19) 0.68825(18)
C20 C 0.18825(18) 0.06619(18) 0.93816(19)
C24 C 0.39841(18) 0.0471(2) 0.64740(19)
C25 C 0.14740(19) 0.10159(18) 0.9529(2)
H22 H 0.3602 0.0502 0.6531
H23 H 0.1531 0.1398 0.9498
C29 C 0.41861(19) 0.0282(2) 0.59931(19)
C30 C 0.09931(19) 0.08139(19) 0.9718(2)
H27 H 0.3928 0.0180 0.5722
H28 H 0.0722 0.1072 0.9820
C34 C 0.43781(19) 0.0979(2) 0.78103(19)
C35 C 0.28103(19) 0.06219(19) 0.9021(2)
C39 C 0.40175(18) 0.11437(18) 0.82681(17)
C40 C 0.32681(17) 0.09825(18) 0.88563(18)
C44 C 0.35719(18) 0.08395(18) 0.84098(19)
C45 C 0.34098(19) 0.14281(18) 0.91605(18)
H32 H 0.3196 0.1529 0.9468
H33 H 0.3471 0.0532 0.8196
Cd3_3 Cd 0.0000 1.0000 0.0000
Cd5_2 Cd 0.5000 1.0000 0.5000
Cd3_4 Cd 0.0000 1.0000 1.0000
C10 C 0.12827(19) 0.99512(18) 0.9618(2)
H13 H 0.1233 0.9568 0.9644
H18 H 0.2046 0.9844 0.9326
Cd3_5 Cd 1.0000 0.0000 0.0000
Cd4_2 Cd 1.0000 0.5000 0.5000
Cd3_6 Cd 1.0000 0.0000 1.0000
Cd3_7 Cd 1.0000 1.0000 0.0000
Cd3_8 Cd 1.0000 1.0000 1.0000
C1_2 C 0.00488(18) 0.4618(2) 0.37173(19)
H2_2 H 0.0432 0.4644 0.3767
H3_2 H 0.0156 0.4326 0.2954
N9_2 N 0.02837(14) 0.52399(14) 0.58865(14)
N11_2 N 0.02399(14) 0.58865(14) 0.47163(14)
O1_2 O 0.98691(15) 0.4000(2) 0.21456(17)
N1_2 N 0.97163(14) 0.47601(14) 0.41135(14)
N2_2 N 0.91164(17) 0.41869(18) 0.26381(17)
H1_2 H 0.8762 0.4170 0.2626
C2_2 C 0.98908(19) 0.4427(2) 0.3219(2)
C3_2 C 0.93381(18) 0.43816(19) 0.31175(18)
C4_2 C 0.89841(18) 0.4529(2) 0.35260(19)
H4_2 H 0.8602 0.4498 0.3469
C5_2 C 0.91861(19) 0.4718(2) 0.40069(19)
H5_2 H 0.8928 0.4820 0.4278
C6_2 C 0.93781(19) 0.4021(2) 0.21897(19)
C7_2 C 0.90175(18) 0.38563(18) 0.17319(17)
C8_2 C 0.85719(18) 0.41605(18) 0.15902(19)
H6_2 H 0.8471 0.4468 0.1804
O2_2 O 0.78544(17) 0.48691(15) 0.1000(2)
O3_2 O 0.9000(2) 0.28544(17) 0.01309(15)
N4_2 N 0.97601(14) 0.08865(14) 0.02837(14)
N8_2 N 0.97601(14) 0.41135(14) 0.52837(14)
N10_2 N 0.91135(14) 0.52837(14) 0.52399(14)
N12_2 N 0.73619(17) 0.41164(17) 0.08131(18)
N13_2 N 0.91869(18) 0.23619(17) 0.08836(17)
H7_2 H 0.7374 0.3762 0.0830
H8_2 H 0.9170 0.2374 0.1238
C9_2 C 0.62827(19) 0.50488(18) 0.0382(2)
H12_2 H 0.6233 0.5432 0.0356
C14_2 C 0.6781(2) 0.48908(19) 0.0573(2)
C15_2 C 0.9427(2) 0.1781(2) 0.01092(19)
H17_2 H 0.7046 0.5156 0.0674
C19_2 C 0.68825(18) 0.43381(18) 0.06184(19)
C20_2 C 0.93816(19) 0.18825(18) 0.06619(18)
C24_2 C 0.64740(19) 0.39841(18) 0.0471(2)
C25_2 C 0.9529(2) 0.14740(19) 0.10159(18)
H22_2 H 0.6531 0.3602 0.0502
H23_2 H 0.9498 0.1531 0.1398
C29_2 C 0.59931(19) 0.41861(19) 0.0282(2)
C30_2 C 0.9718(2) 0.09931(19) 0.08139(19)
H27_2 H 0.5722 0.3928 0.0180
H28_2 H 0.9820 0.0722 0.1072
C34_2 C 0.78103(19) 0.43781(19) 0.0979(2)
C35_2 C 0.9021(2) 0.28103(19) 0.06219(19)
C39_2 C 0.82681(17) 0.40175(18) 0.11437(18)
C40_2 C 0.88563(18) 0.32681(17) 0.09825(18)
C44_2 C 0.84098(19) 0.35719(18) 0.08395(18)
C45_2 C 0.91605(18) 0.34098(19) 0.14281(18)
H32_2 H 0.9468 0.3196 0.1529
H33_2 H 0.8196 0.3471 0.0532
C10_2 C 0.9618(2) 0.12827(19) 0.99512(18)
H13_2 H 0.9644 0.1233 0.9568
H18_2 H 0.9326 0.2046 0.9844
C1_3 C 0.37173(19) 0.00488(18) 0.4618(2)
H2_3 H 0.3767 0.0432 0.4644
H3_3 H 0.2954 0.0156 0.4326
N9_3 N 0.58865(14) 0.02837(14) 0.52399(14)
O1_3 O 0.21456(17) 0.98691(15) 0.4000(2)
N1_3 N 0.41135(14) 0.97163(14) 0.47601(14)
N2_3 N 0.26381(17) 0.91164(17) 0.41869(18)
H1_3 H 0.2626 0.8762 0.4170
C2_3 C 0.3219(2) 0.98908(19) 0.4427(2)
C3_3 C 0.31175(18) 0.93381(18) 0.43816(19)
C4_3 C 0.35260(19) 0.89841(18) 0.4529(2)
H4_3 H 0.3469 0.8602 0.4498
C5_3 C 0.40069(19) 0.91861(19) 0.4718(2)
H5_3 H 0.4278 0.8928 0.4820
C6_3 C 0.21897(19) 0.93781(19) 0.4021(2)
C7_3 C 0.17319(17) 0.90175(18) 0.38563(18)
C8_3 C 0.15902(19) 0.85719(18) 0.41605(18)
H6_3 H 0.1804 0.8471 0.4468
O2_3 O 0.1000(2) 0.78544(17) 0.48691(15)
O3_3 O 0.01309(15) 0.9000(2) 0.28544(17)
N4_3 N 0.02837(14) 0.97601(14) 0.08865(14)
N8_3 N 0.52837(14) 0.97601(14) 0.41135(14)
N10_3 N 0.52399(14) 0.91135(14) 0.52837(14)
N12_3 N 0.08131(18) 0.73619(17) 0.41164(17)
N13_3 N 0.08836(17) 0.91869(18) 0.23619(17)
H7_3 H 0.0830 0.7374 0.3762
H8_3 H 0.1238 0.9170 0.2374
C9_3 C 0.0382(2) 0.62827(19) 0.50488(18)
H12_3 H 0.0356 0.6233 0.5432
C14_3 C 0.0573(2) 0.6781(2) 0.48908(19)
C15_3 C 0.01092(19) 0.9427(2) 0.1781(2)
H17_3 H 0.0674 0.7046 0.5156
C19_3 C 0.06184(19) 0.68825(18) 0.43381(18)
C20_3 C 0.06619(18) 0.93816(19) 0.18825(18)
C24_3 C 0.0471(2) 0.64740(19) 0.39841(18)
C25_3 C 0.10159(18) 0.9529(2) 0.14740(19)
H22_3 H 0.0502 0.6531 0.3602
H23_3 H 0.1398 0.9498 0.1531
C29_3 C 0.0282(2) 0.59931(19) 0.41861(19)
C30_3 C 0.08139(19) 0.9718(2) 0.09931(19)
H27_3 H 0.0180 0.5722 0.3928
H28_3 H 0.1072 0.9820 0.0722
C34_3 C 0.0979(2) 0.78103(19) 0.43781(19)
C35_3 C 0.06219(19) 0.9021(2) 0.28103(19)
C39_3 C 0.11437(18) 0.82681(17) 0.40175(18)
C40_3 C 0.09825(18) 0.88563(18) 0.32681(17)
C44_3 C 0.08395(18) 0.84098(19) 0.35719(18)
C45_3 C 0.14281(18) 0.91605(18) 0.34098(19)
H32_3 H 0.1529 0.9468 0.3196
H33_3 H 0.0532 0.8196 0.3471
C10_3 C 0.99512(18) 0.9618(2) 0.12827(19)
H13_3 H 0.9568 0.9644 0.1233
H18_3 H 0.9844 0.9326 0.2046
C13_2 C 0.0382(2) 0.87173(19) 0.00488(18)
H16_2 H 0.0356 0.8767 0.0432
H21_2 H 0.0674 0.7954 0.0156
O4_2 O 0.01309(15) 0.6000(2) 0.78544(17)
O5_2 O 0.21456(17) 0.51309(15) 0.9000(2)
O6_2 O 0.1000(2) 0.71456(17) 0.98691(15)
N7_2 N 0.02399(14) 0.91135(14) 0.97163(14)
N14_2 N 0.08836(17) 0.58131(18) 0.73619(17)
N15_2 N 0.26381(17) 0.58836(17) 0.91869(18)
N16_2 N 0.08131(18) 0.76381(17) 0.91164(17)
H9_2 H 0.1238 0.5830 0.7374
H10_2 H 0.2626 0.6238 0.9170
H11_2 H 0.0830 0.7626 0.8762
C12_2 C 0.37173(19) 0.49512(18) 0.9618(2)
H15_2 H 0.3767 0.4568 0.9644
C16_2 C 0.01092(19) 0.5573(2) 0.6781(2)
C17_2 C 0.3219(2) 0.51092(19) 0.9427(2)
C18_2 C 0.0573(2) 0.8219(2) 0.98908(19)
H20_2 H 0.2954 0.4844 0.9326
C21_2 C 0.06619(18) 0.56184(19) 0.68825(18)
C22_2 C 0.31175(18) 0.56619(18) 0.93816(19)
C23_2 C 0.06184(19) 0.81175(18) 0.93381(18)
C26_2 C 0.10159(18) 0.5471(2) 0.64740(19)
C27_2 C 0.35260(19) 0.60159(18) 0.9529(2)
C28_2 C 0.0471(2) 0.85260(19) 0.89841(18)
H24_2 H 0.1398 0.5502 0.6531
H25_2 H 0.3469 0.6398 0.9498
H26_2 H 0.0502 0.8469 0.8602
C31_2 C 0.08139(19) 0.5282(2) 0.59931(19)
C32_2 C 0.40069(19) 0.58139(19) 0.9718(2)
C33_2 C 0.0282(2) 0.90069(19) 0.91861(19)
H29_2 H 0.1072 0.5180 0.5722
H30_2 H 0.4278 0.6072 0.9820
H31_2 H 0.0180 0.9278 0.8928
C36_2 C 0.06219(19) 0.5979(2) 0.78103(19)
C37_2 C 0.21897(19) 0.56219(19) 0.9021(2)
C38_2 C 0.0979(2) 0.71897(19) 0.93781(19)
C41_2 C 0.09825(18) 0.61437(18) 0.82681(17)
C42_2 C 0.17319(17) 0.59825(18) 0.88563(18)
C43_2 C 0.11437(18) 0.67319(17) 0.90175(18)
C46_2 C 0.14281(18) 0.58395(18) 0.84098(19)
C47_2 C 0.15902(19) 0.64281(18) 0.91605(18)
C48_2 C 0.08395(18) 0.65902(19) 0.85719(18)
H34_2 H 0.1529 0.5532 0.8196
H35_2 H 0.0532 0.6804 0.8471
H36_2 H 0.1804 0.6529 0.9468
C11_2 C 0.99512(18) 0.5382(2) 0.62827(19)
H14_2 H 0.9568 0.5356 0.6233
H19_2 H 0.9844 0.5674 0.7046
C12_3 C 0.87173(19) 0.00488(18) 0.0382(2)
H15_3 H 0.8767 0.0432 0.0356
H20_3 H 0.7954 0.0156 0.0674
O1_4 O 0.6000(2) 0.71456(17) 0.51309(15)
N2_4 N 0.58131(18) 0.76381(17) 0.58836(17)
H1_4 H 0.5830 0.7626 0.6238
C1_4 C 0.5382(2) 0.87173(19) 0.49512(18)
H2_4 H 0.5356 0.8767 0.4568
C2_4 C 0.5573(2) 0.8219(2) 0.51092(19)
H3_4 H 0.5674 0.7954 0.4844
C3_4 C 0.56184(19) 0.81175(18) 0.56619(18)
C4_4 C 0.5471(2) 0.85260(19) 0.60159(18)
H4_4 H 0.5502 0.8469 0.6398
C5_4 C 0.5282(2) 0.90069(19) 0.58139(19)
H5_4 H 0.5180 0.9278 0.6072
C6_4 C 0.5979(2) 0.71897(19) 0.56219(19)
C7_4 C 0.61437(18) 0.67319(17) 0.59825(18)
C8_4 C 0.58395(18) 0.65902(19) 0.64281(18)
H6_4 H 0.5532 0.6804 0.6529
O2_4 O 0.51309(15) 0.6000(2) 0.71456(17)
O3_4 O 0.71456(17) 0.51309(15) 0.6000(2)
O4_3 O 0.51309(15) 0.9000(2) 0.21456(17)
O5_3 O 0.71456(17) 0.98691(15) 0.1000(2)
O6_3 O 0.6000(2) 0.78544(17) 0.01309(15)
N6_2 N 0.91135(14) 0.97163(14) 0.02399(14)
N12_4 N 0.58836(17) 0.58131(18) 0.76381(17)
N13_4 N 0.76381(17) 0.58836(17) 0.58131(18)
N14_3 N 0.58836(17) 0.91869(18) 0.26381(17)
N15_3 N 0.76381(17) 0.91164(17) 0.08131(18)
N16_3 N 0.58131(18) 0.73619(17) 0.08836(17)
H7_4 H 0.6238 0.5830 0.7626
H8_4 H 0.7626 0.6238 0.5830
H9_3 H 0.6238 0.9170 0.2626
H10_3 H 0.7626 0.8762 0.0830
H11_3 H 0.5830 0.7374 0.1238
C9_4 C 0.49512(18) 0.5382(2) 0.87173(19)
C10_4 C 0.87173(19) 0.49512(18) 0.5382(2)
C11_3 C 0.49512(18) 0.9618(2) 0.37173(19)
H12_4 H 0.4568 0.5356 0.8767
H13_4 H 0.8767 0.4568 0.5356
H14_3 H 0.4568 0.9644 0.3767
C14_4 C 0.51092(19) 0.5573(2) 0.8219(2)
C15_4 C 0.8219(2) 0.51092(19) 0.5573(2)
C16_3 C 0.51092(19) 0.9427(2) 0.3219(2)
C17_3 C 0.8219(2) 0.98908(19) 0.0573(2)
C18_3 C 0.5573(2) 0.6781(2) 0.01092(19)
H17_4 H 0.4844 0.5674 0.7954
H18_4 H 0.7954 0.4844 0.5674
H19_3 H 0.4844 0.9326 0.2954
C19_4 C 0.56619(18) 0.56184(19) 0.81175(18)
C20_4 C 0.81175(18) 0.56619(18) 0.56184(19)
C21_3 C 0.56619(18) 0.93816(19) 0.31175(18)
C22_3 C 0.81175(18) 0.93381(18) 0.06184(19)
C23_3 C 0.56184(19) 0.68825(18) 0.06619(18)
C24_4 C 0.60159(18) 0.5471(2) 0.85260(19)
C25_4 C 0.85260(19) 0.60159(18) 0.5471(2)
C26_3 C 0.60159(18) 0.9529(2) 0.35260(19)
C27_3 C 0.85260(19) 0.89841(18) 0.0471(2)
C28_3 C 0.5471(2) 0.64740(19) 0.10159(18)
H22_4 H 0.6398 0.5502 0.8469
H23_4 H 0.8469 0.6398 0.5502
H24_3 H 0.6398 0.9498 0.3469
H25_3 H 0.8469 0.8602 0.0502
H26_3 H 0.5502 0.6531 0.1398
C29_4 C 0.58139(19) 0.5282(2) 0.90069(19)
C30_4 C 0.90069(19) 0.58139(19) 0.5282(2)
C31_3 C 0.58139(19) 0.9718(2) 0.40069(19)
C32_3 C 0.90069(19) 0.91861(19) 0.0282(2)
C33_3 C 0.5282(2) 0.59931(19) 0.08139(19)
H27_4 H 0.6072 0.5180 0.9278
H28_4 H 0.9278 0.6072 0.5180
H29_3 H 0.6072 0.9820 0.4278
H30_3 H 0.9278 0.8928 0.0180
H31_3 H 0.5180 0.5722 0.1072
C34_4 C 0.56219(19) 0.5979(2) 0.71897(19)
C35_4 C 0.71897(19) 0.56219(19) 0.5979(2)
C36_3 C 0.56219(19) 0.9021(2) 0.21897(19)
C37_3 C 0.71897(19) 0.93781(19) 0.0979(2)
C38_3 C 0.5979(2) 0.78103(19) 0.06219(19)
C39_4 C 0.59825(18) 0.61437(18) 0.67319(17)
C40_4 C 0.67319(17) 0.59825(18) 0.61437(18)
C41_3 C 0.59825(18) 0.88563(18) 0.17319(17)
C42_3 C 0.67319(17) 0.90175(18) 0.11437(18)
C43_3 C 0.61437(18) 0.82681(17) 0.09825(18)
C44_4 C 0.64281(18) 0.58395(18) 0.65902(19)
C45_4 C 0.65902(19) 0.64281(18) 0.58395(18)
C46_3 C 0.64281(18) 0.91605(18) 0.15902(19)
C47_3 C 0.65902(19) 0.85719(18) 0.08395(18)
C48_3 C 0.58395(18) 0.84098(19) 0.14281(18)
H32_4 H 0.6804 0.6529 0.5532
H33_4 H 0.6529 0.5532 0.6804
H34_3 H 0.6529 0.9468 0.1804
H35_3 H 0.5532 0.8196 0.1529
H36_3 H 0.6804 0.8471 0.0532
C13_3 C 0.5382(2) 0.62827(19) 0.99512(18)
H16_3 H 0.5356 0.6233 0.9568
H21_3 H 0.5674 0.7046 0.9844
C11_4 C 0.00488(18) 0.0382(2) 0.87173(19)
H14_4 H 0.0432 0.0356 0.8767
H19_4 H 0.0156 0.0674 0.7954
O4_4 O 0.98691(15) 0.1000(2) 0.71456(17)
O5_4 O 0.78544(17) 0.01309(15) 0.6000(2)
O6_4 O 0.9000(2) 0.21456(17) 0.51309(15)
N5_2 N 0.97163(14) 0.02399(14) 0.91135(14)
N14_4 N 0.91164(17) 0.08131(18) 0.76381(17)
N15_4 N 0.73619(17) 0.08836(17) 0.58131(18)
N16_4 N 0.91869(18) 0.26381(17) 0.58836(17)
H9_4 H 0.8762 0.0830 0.7626
H10_4 H 0.7374 0.1238 0.5830
H11_4 H 0.9170 0.2626 0.6238
C13_4 C 0.9618(2) 0.37173(19) 0.49512(18)
H16_4 H 0.9644 0.3767 0.4568
C16_4 C 0.98908(19) 0.0573(2) 0.8219(2)
C17_4 C 0.6781(2) 0.01092(19) 0.5573(2)
C18_4 C 0.9427(2) 0.3219(2) 0.51092(19)
H21_4 H 0.9326 0.2954 0.4844
C21_4 C 0.93381(18) 0.06184(19) 0.81175(18)
C22_4 C 0.68825(18) 0.06619(18) 0.56184(19)
C23_4 C 0.93816(19) 0.31175(18) 0.56619(18)
C26_4 C 0.89841(18) 0.0471(2) 0.85260(19)
C27_4 C 0.64740(19) 0.10159(18) 0.5471(2)
C28_4 C 0.9529(2) 0.35260(19) 0.60159(18)
H24_4 H 0.8602 0.0502 0.8469
H25_4 H 0.6531 0.1398 0.5502
H26_4 H 0.9498 0.3469 0.6398
C31_4 C 0.91861(19) 0.0282(2) 0.90069(19)
C32_4 C 0.59931(19) 0.08139(19) 0.5282(2)
C33_4 C 0.9718(2) 0.40069(19) 0.58139(19)
H29_4 H 0.8928 0.0180 0.9278
H30_4 H 0.5722 0.1072 0.5180
H31_4 H 0.9820 0.4278 0.6072
C36_4 C 0.93781(19) 0.0979(2) 0.71897(19)
C37_4 C 0.78103(19) 0.06219(19) 0.5979(2)
C38_4 C 0.9021(2) 0.21897(19) 0.56219(19)
C41_4 C 0.90175(18) 0.11437(18) 0.67319(17)
C42_4 C 0.82681(17) 0.09825(18) 0.61437(18)
C43_4 C 0.88563(18) 0.17319(17) 0.59825(18)
C46_4 C 0.85719(18) 0.08395(18) 0.65902(19)
C47_4 C 0.84098(19) 0.14281(18) 0.58395(18)
C48_4 C 0.91605(18) 0.15902(19) 0.64281(18)
H34_4 H 0.8471 0.0532 0.6804
H35_4 H 0.9468 0.1804 0.6529
H36_4 H 0.8196 0.1529 0.5532
C12_4 C 0.62827(19) 0.99512(18) 0.5382(2)
H15_4 H 0.6233 0.9568 0.5356
H20_4 H 0.7046 0.9844 0.5674
Cd1_3 Cd -0.0000 0.0000 0.5000
N9_4 N 0.02399(14) 0.08865(14) 0.52837(14)
N10_4 N 0.02837(14) 0.02399(14) 0.41135(14)
Cd5_3 Cd -0.0000 0.5000 0.0000
Cd1_4 Cd -0.0000 1.0000 0.5000
Cd5_4 Cd -0.0000 0.5000 1.0000
N11_3 N 0.08865(14) 0.97163(14) 0.52399(14)
C9_5 C 0.00488(18) 0.5382(2) 0.12827(19)
C11_5 C 0.00488(18) 0.9618(2) 0.62827(19)
H12_5 H 0.0432 0.5356 0.1233
H14_5 H 0.0432 0.9644 0.6233
H17_5 H 0.0156 0.5674 0.2046
H19_5 H 0.0156 0.9326 0.7046
Cd4_3 Cd 0.5000 -0.0000 0.0000
Cd1_5 Cd 1.0000 0.0000 0.5000
Cd4_4 Cd 0.5000 -0.0000 1.0000
N8_4 N 0.91135(14) 0.02837(14) 0.47601(14)
C12_5 C 0.62827(19) 0.00488(18) 0.9618(2)
H15_5 H 0.6233 0.0432 0.9644
H20_5 H 0.7046 0.0156 0.9326
Cd4_5 Cd 0.5000 1.0000 0.0000
Cd5_5 Cd 1.0000 0.5000 0.0000
C13_5 C 0.9618(2) 0.62827(19) 0.00488(18)
H16_5 H 0.9644 0.6233 0.0432
H21_5 H 0.9326 0.7046 0.0156
Cd1_6 Cd 1.0000 1.0000 0.5000
O1_5 O 0.9000(2) 0.71456(17) 0.48691(15)
N1_4 N 0.97601(14) 0.91135(14) 0.47163(14)
N2_5 N 0.91869(18) 0.76381(17) 0.41164(17)
H1_5 H 0.9170 0.7626 0.3762
C1_5 C 0.9618(2) 0.87173(19) 0.50488(18)
H2_5 H 0.9644 0.8767 0.5432
C2_5 C 0.9427(2) 0.8219(2) 0.48908(19)
H3_5 H 0.9326 0.7954 0.5156
C3_5 C 0.93816(19) 0.81175(18) 0.43381(18)
C4_5 C 0.9529(2) 0.85260(19) 0.39841(18)
H4_5 H 0.9498 0.8469 0.3602
C5_5 C 0.9718(2) 0.90069(19) 0.41861(19)
H5_5 H 0.9820 0.9278 0.3928
C6_5 C 0.9021(2) 0.71897(19) 0.43781(19)
C7_5 C 0.88563(18) 0.67319(17) 0.40175(18)
C8_5 C 0.91605(18) 0.65902(19) 0.35719(18)
H6_5 H 0.9468 0.6804 0.3471
Cd3_9 Cd 0.5000 0.5000 0.5000
Cd4_6 Cd 0.5000 1.0000 1.0000
Cd5_6 Cd 1.0000 0.5000 1.0000
O2_5 O 0.98691(15) 0.6000(2) 0.28544(17)
O3_5 O 0.78544(17) 0.51309(15) 0.4000(2)
O4_5 O 0.98691(15) 0.9000(2) 0.78544(17)
O5_5 O 0.78544(17) 0.98691(15) 0.9000(2)
O6_5 O 0.9000(2) 0.78544(17) 0.98691(15)
N3_2 N 0.97163(14) 0.52399(14) 0.08865(14)
N4_4 N 0.58865(14) 0.52837(14) 0.47601(14)
N5_3 N 0.97163(14) 0.97601(14) 0.58865(14)
N6_3 N 0.58865(14) 0.97163(14) 0.97601(14)
N7_3 N 0.97601(14) 0.58865(14) 0.97163(14)
N12_5 N 0.91164(17) 0.58131(18) 0.23619(17)
N13_5 N 0.73619(17) 0.58836(17) 0.41869(18)
N14_5 N 0.91164(17) 0.91869(18) 0.73619(17)
N15_5 N 0.73619(17) 0.91164(17) 0.91869(18)
N16_5 N 0.91869(18) 0.73619(17) 0.91164(17)
H7_5 H 0.8762 0.5830 0.2374
H8_5 H 0.7374 0.6238 0.4170
H9_5 H 0.8762 0.9170 0.7374
H10_5 H 0.7374 0.8762 0.9170
H11_5 H 0.9170 0.7374 0.8762
C10_5 C 0.62827(19) 0.49512(18) 0.4618(2)
H13_5 H 0.6233 0.4568 0.4644
C14_5 C 0.98908(19) 0.5573(2) 0.1781(2)
C15_5 C 0.6781(2) 0.51092(19) 0.4427(2)
C16_5 C 0.98908(19) 0.9427(2) 0.6781(2)
C17_5 C 0.6781(2) 0.98908(19) 0.9427(2)
C18_5 C 0.9427(2) 0.6781(2) 0.98908(19)
H18_5 H 0.7046 0.4844 0.4326
C19_5 C 0.93381(18) 0.56184(19) 0.18825(18)
C20_5 C 0.68825(18) 0.56619(18) 0.43816(19)
C21_5 C 0.93381(18) 0.93816(19) 0.68825(18)
C22_5 C 0.68825(18) 0.93381(18) 0.93816(19)
C23_5 C 0.93816(19) 0.68825(18) 0.93381(18)
C24_5 C 0.89841(18) 0.5471(2) 0.14740(19)
C25_5 C 0.64740(19) 0.60159(18) 0.4529(2)
C26_5 C 0.89841(18) 0.9529(2) 0.64740(19)
C27_5 C 0.64740(19) 0.89841(18) 0.9529(2)
C28_5 C 0.9529(2) 0.64740(19) 0.89841(18)
H22_5 H 0.8602 0.5502 0.1531
H23_5 H 0.6531 0.6398 0.4498
H24_5 H 0.8602 0.9498 0.6531
H25_5 H 0.6531 0.8602 0.9498
H26_5 H 0.9498 0.6531 0.8602
C29_5 C 0.91861(19) 0.5282(2) 0.09931(19)
C30_5 C 0.59931(19) 0.58139(19) 0.4718(2)
C31_5 C 0.91861(19) 0.9718(2) 0.59931(19)
C32_5 C 0.59931(19) 0.91861(19) 0.9718(2)
C33_5 C 0.9718(2) 0.59931(19) 0.91861(19)
H27_5 H 0.8928 0.5180 0.0722
H28_5 H 0.5722 0.6072 0.4820
H29_5 H 0.8928 0.9820 0.5722
H30_5 H 0.5722 0.8928 0.9820
H31_5 H 0.9820 0.5722 0.8928
C34_5 C 0.93781(19) 0.5979(2) 0.28103(19)
C35_5 C 0.78103(19) 0.56219(19) 0.4021(2)
C36_5 C 0.93781(19) 0.9021(2) 0.78103(19)
C37_5 C 0.78103(19) 0.93781(19) 0.9021(2)
C38_5 C 0.9021(2) 0.78103(19) 0.93781(19)
C39_5 C 0.90175(18) 0.61437(18) 0.32681(17)
C40_5 C 0.82681(17) 0.59825(18) 0.38563(18)
C41_5 C 0.90175(18) 0.88563(18) 0.82681(17)
C42_5 C 0.82681(17) 0.90175(18) 0.88563(18)
C43_5 C 0.88563(18) 0.82681(17) 0.90175(18)
C44_5 C 0.85719(18) 0.58395(18) 0.34098(19)
C45_5 C 0.84098(19) 0.64281(18) 0.41605(18)
C46_5 C 0.85719(18) 0.91605(18) 0.84098(19)
C47_5 C 0.84098(19) 0.85719(18) 0.91605(18)
C48_5 C 0.91605(18) 0.84098(19) 0.85719(18)
H32_5 H 0.8196 0.6529 0.4468
H33_5 H 0.8471 0.5532 0.3196
H34_5 H 0.8471 0.9468 0.8196
H35_5 H 0.9468 0.8196 0.8471
H36_5 H 0.8196 0.8471 0.9468
N9_5 N 0.52837(14) 0.02399(14) 0.08865(14)
N10_5 N 0.41135(14) 0.02837(14) 0.02399(14)
N11_4 N 0.52399(14) 0.08865(14) 0.97163(14)
C9_6 C 0.12827(19) 0.00488(18) 0.5382(2)
H12_6 H 0.1233 0.0432 0.5356
H17_6 H 0.2046 0.0156 0.5674
N8_5 N 0.47601(14) 0.91135(14) 0.02837(14)
O1_6 O 0.48691(15) 0.9000(2) 0.71456(17)
N1_5 N 0.47163(14) 0.97601(14) 0.91135(14)
N2_6 N 0.41164(17) 0.91869(18) 0.76381(17)
H1_6 H 0.3762 0.9170 0.7626
C1_6 C 0.50488(18) 0.9618(2) 0.87173(19)
H2_6 H 0.5432 0.9644 0.8767
C2_6 C 0.48908(19) 0.9427(2) 0.8219(2)
H3_6 H 0.5156 0.9326 0.7954
C3_6 C 0.43381(18) 0.93816(19) 0.81175(18)
C4_6 C 0.39841(18) 0.9529(2) 0.85260(19)
H4_6 H 0.3602 0.9498 0.8469
C5_6 C 0.41861(19) 0.9718(2) 0.90069(19)
H5_6 H 0.3928 0.9820 0.9278
C6_6 C 0.43781(19) 0.9021(2) 0.71897(19)
C7_6 C 0.40175(18) 0.88563(18) 0.67319(17)
C8_6 C 0.35719(18) 0.91605(18) 0.65902(19)
H6_6 H 0.3471 0.9468 0.6804
O2_6 O 0.28544(17) 0.98691(15) 0.6000(2)
O3_6 O 0.4000(2) 0.78544(17) 0.51309(15)
N4_5 N 0.47601(14) 0.58865(14) 0.52837(14)
N12_6 N 0.23619(17) 0.91164(17) 0.58131(18)
N13_6 N 0.41869(18) 0.73619(17) 0.58836(17)
H7_6 H 0.2374 0.8762 0.5830
H8_6 H 0.4170 0.7374 0.6238
C10_6 C 0.4618(2) 0.62827(19) 0.49512(18)
H13_6 H 0.4644 0.6233 0.4568
C14_6 C 0.1781(2) 0.98908(19) 0.5573(2)
C15_6 C 0.4427(2) 0.6781(2) 0.51092(19)
H18_6 H 0.4326 0.7046 0.4844
C19_6 C 0.18825(18) 0.93381(18) 0.56184(19)
C20_6 C 0.43816(19) 0.68825(18) 0.56619(18)
C24_6 C 0.14740(19) 0.89841(18) 0.5471(2)
C25_6 C 0.4529(2) 0.64740(19) 0.60159(18)
H22_6 H 0.1531 0.8602 0.5502
H23_6 H 0.4498 0.6531 0.6398
C29_6 C 0.09931(19) 0.91861(19) 0.5282(2)
C30_6 C 0.4718(2) 0.59931(19) 0.58139(19)
H27_6 H 0.0722 0.8928 0.5180
H28_6 H 0.4820 0.5722 0.6072
C34_6 C 0.28103(19) 0.93781(19) 0.5979(2)
C35_6 C 0.4021(2) 0.78103(19) 0.56219(19)
C39_6 C 0.32681(17) 0.90175(18) 0.61437(18)
C40_6 C 0.38563(18) 0.82681(17) 0.59825(18)
C44_6 C 0.34098(19) 0.85719(18) 0.58395(18)
C45_6 C 0.41605(18) 0.84098(19) 0.64281(18)
H32_6 H 0.4468 0.8196 0.6529
H33_6 H 0.3196 0.8471 0.5532
N9_6 N 0.08865(14) 0.52837(14) 0.02399(14)
N10_6 N 0.02399(14) 0.41135(14) 0.02837(14)
N8_6 N 0.02837(14) 0.47601(14) 0.91135(14)
C9_7 C 0.5382(2) 0.12827(19) 0.00488(18)
H12_7 H 0.5356 0.1233 0.0432
H17_7 H 0.5674 0.2046 0.0156
O1_7 O 0.71456(17) 0.48691(15) 0.9000(2)
N1_6 N 0.91135(14) 0.47163(14) 0.97601(14)
N2_7 N 0.76381(17) 0.41164(17) 0.91869(18)
H1_7 H 0.7626 0.3762 0.9170
C1_7 C 0.87173(19) 0.50488(18) 0.9618(2)
H2_7 H 0.8767 0.5432 0.9644
C2_7 C 0.8219(2) 0.48908(19) 0.9427(2)
H3_7 H 0.7954 0.5156 0.9326
C3_7 C 0.81175(18) 0.43381(18) 0.93816(19)
C4_7 C 0.85260(19) 0.39841(18) 0.9529(2)
H4_7 H 0.8469 0.3602 0.9498
C5_7 C 0.90069(19) 0.41861(19) 0.9718(2)
H5_7 H 0.9278 0.3928 0.9820
C6_7 C 0.71897(19) 0.43781(19) 0.9021(2)
C7_7 C 0.67319(17) 0.40175(18) 0.88563(18)
C8_7 C 0.65902(19) 0.35719(18) 0.91605(18)
H6_7 H 0.6804 0.3471 0.9468
O2_7 O 0.6000(2) 0.28544(17) 0.98691(15)
O3_7 O 0.51309(15) 0.4000(2) 0.78544(17)
N4_6 N 0.52837(14) 0.47601(14) 0.58865(14)
N12_7 N 0.58131(18) 0.23619(17) 0.91164(17)
N13_7 N 0.58836(17) 0.41869(18) 0.73619(17)
H7_7 H 0.5830 0.2374 0.8762
H8_7 H 0.6238 0.4170 0.7374
C10_7 C 0.49512(18) 0.4618(2) 0.62827(19)
H13_7 H 0.4568 0.4644 0.6233
C14_7 C 0.5573(2) 0.1781(2) 0.98908(19)
C15_7 C 0.51092(19) 0.4427(2) 0.6781(2)
H18_7 H 0.4844 0.4326 0.7046
C19_7 C 0.56184(19) 0.18825(18) 0.93381(18)
C20_7 C 0.56619(18) 0.43816(19) 0.68825(18)
C24_7 C 0.5471(2) 0.14740(19) 0.89841(18)
C25_7 C 0.60159(18) 0.4529(2) 0.64740(19)
H22_7 H 0.5502 0.1531 0.8602
H23_7 H 0.6398 0.4498 0.6531
C29_7 C 0.5282(2) 0.09931(19) 0.91861(19)
C30_7 C 0.58139(19) 0.4718(2) 0.59931(19)
H27_7 H 0.5180 0.0722 0.8928
H28_7 H 0.6072 0.4820 0.5722
C34_7 C 0.5979(2) 0.28103(19) 0.93781(19)
C35_7 C 0.56219(19) 0.4021(2) 0.78103(19)
C39_7 C 0.61437(18) 0.32681(17) 0.90175(18)
C40_7 C 0.59825(18) 0.38563(18) 0.82681(17)
C44_7 C 0.58395(18) 0.34098(19) 0.85719(18)
C45_7 C 0.64281(18) 0.41605(18) 0.84098(19)
H32_7 H 0.6529 0.4468 0.8196
H33_7 H 0.5532 0.3196 0.8471
O4_6 O 0.51309(15) 0.1000(2) 0.28544(17)
O5_6 O 0.71456(17) 0.01309(15) 0.4000(2)
O6_6 O 0.6000(2) 0.21456(17) 0.48691(15)
N7_4 N 0.52399(14) 0.41135(14) 0.47163(14)
N14_6 N 0.58836(17) 0.08131(18) 0.23619(17)
N15_6 N 0.76381(17) 0.08836(17) 0.41869(18)
N16_6 N 0.58131(18) 0.26381(17) 0.41164(17)
H9_6 H 0.6238 0.0830 0.2374
H10_6 H 0.7626 0.1238 0.4170
H11_6 H 0.5830 0.2626 0.3762
C11_6 C 0.49512(18) 0.0382(2) 0.12827(19)
C13_6 C 0.5382(2) 0.37173(19) 0.50488(18)
H14_6 H 0.4568 0.0356 0.1233
H16_6 H 0.5356 0.3767 0.5432
C16_6 C 0.51092(19) 0.0573(2) 0.1781(2)
C17_6 C 0.8219(2) 0.01092(19) 0.4427(2)
C18_6 C 0.5573(2) 0.3219(2) 0.48908(19)
H19_6 H 0.4844 0.0674 0.2046
H21_6 H 0.5674 0.2954 0.5156
C21_6 C 0.56619(18) 0.06184(19) 0.18825(18)
C22_6 C 0.81175(18) 0.06619(18) 0.43816(19)
C23_6 C 0.56184(19) 0.31175(18) 0.43381(18)
C26_6 C 0.60159(18) 0.0471(2) 0.14740(19)
C27_6 C 0.85260(19) 0.10159(18) 0.4529(2)
C28_6 C 0.5471(2) 0.35260(19) 0.39841(18)
H24_6 H 0.6398 0.0502 0.1531
H25_6 H 0.8469 0.1398 0.4498
H26_6 H 0.5502 0.3469 0.3602
C31_6 C 0.58139(19) 0.0282(2) 0.09931(19)
C32_6 C 0.90069(19) 0.08139(19) 0.4718(2)
C33_6 C 0.5282(2) 0.40069(19) 0.41861(19)
H29_6 H 0.6072 0.0180 0.0722
H30_6 H 0.9278 0.1072 0.4820
H31_6 H 0.5180 0.4278 0.3928
C36_6 C 0.56219(19) 0.0979(2) 0.28103(19)
C37_6 C 0.71897(19) 0.06219(19) 0.4021(2)
C38_6 C 0.5979(2) 0.21897(19) 0.43781(19)
C41_6 C 0.59825(18) 0.11437(18) 0.32681(17)
C42_6 C 0.67319(17) 0.09825(18) 0.38563(18)
C43_6 C 0.61437(18) 0.17319(17) 0.40175(18)
C46_6 C 0.64281(18) 0.08395(18) 0.34098(19)
C47_6 C 0.65902(19) 0.14281(18) 0.41605(18)
C48_6 C 0.58395(18) 0.15902(19) 0.35719(18)
H34_6 H 0.6529 0.0532 0.3196
H35_6 H 0.5532 0.1804 0.3471
H36_6 H 0.6804 0.1529 0.4468
C12_6 C 0.87173(19) 0.99512(18) 0.4618(2)
H15_6 H 0.8767 0.9568 0.4644
H20_6 H 0.7954 0.9844 0.4326
O1_8 O 0.1000(2) 0.21456(17) 0.01309(15)
N2_8 N 0.08131(18) 0.26381(17) 0.08836(17)
H1_8 H 0.0830 0.2626 0.1238
C2_8 C 0.0573(2) 0.3219(2) 0.01092(19)
C3_8 C 0.06184(19) 0.31175(18) 0.06619(18)
C4_8 C 0.0471(2) 0.35260(19) 0.10159(18)
H4_8 H 0.0502 0.3469 0.1398
C5_8 C 0.0282(2) 0.40069(19) 0.08139(19)
H5_8 H 0.0180 0.4278 0.1072
C6_8 C 0.0979(2) 0.21897(19) 0.06219(19)
C7_8 C 0.11437(18) 0.17319(17) 0.09825(18)
C8_8 C 0.08395(18) 0.15902(19) 0.14281(18)
H6_8 H 0.0532 0.1804 0.1529
O2_8 O 0.01309(15) 0.1000(2) 0.21456(17)
O3_8 O 0.21456(17) 0.01309(15) 0.1000(2)
N12_8 N 0.08836(17) 0.08131(18) 0.26381(17)
N13_8 N 0.26381(17) 0.08836(17) 0.08131(18)
H7_8 H 0.1238 0.0830 0.2626
H8_8 H 0.2626 0.1238 0.0830
C14_8 C 0.01092(19) 0.0573(2) 0.3219(2)
C15_8 C 0.3219(2) 0.01092(19) 0.0573(2)
C19_8 C 0.06619(18) 0.06184(19) 0.31175(18)
C20_8 C 0.31175(18) 0.06619(18) 0.06184(19)
C24_8 C 0.10159(18) 0.0471(2) 0.35260(19)
C25_8 C 0.35260(19) 0.10159(18) 0.0471(2)
H22_8 H 0.1398 0.0502 0.3469
H23_8 H 0.3469 0.1398 0.0502
C29_8 C 0.08139(19) 0.0282(2) 0.40069(19)
C30_8 C 0.40069(19) 0.08139(19) 0.0282(2)
H27_8 H 0.1072 0.0180 0.4278
H28_8 H 0.4278 0.1072 0.0180
C34_8 C 0.06219(19) 0.0979(2) 0.21897(19)
C35_8 C 0.21897(19) 0.06219(19) 0.0979(2)
C39_8 C 0.09825(18) 0.11437(18) 0.17319(17)
C40_8 C 0.17319(17) 0.09825(18) 0.11437(18)
C44_8 C 0.14281(18) 0.08395(18) 0.15902(19)
C45_8 C 0.15902(19) 0.14281(18) 0.08395(18)
H32_8 H 0.1804 0.1529 0.0532
H33_8 H 0.1529 0.0532 0.1804
C1_8 C 0.0382(2) 0.37173(19) 0.99512(18)
H2_8 H 0.0356 0.3767 0.9568
H3_8 H 0.0674 0.2954 0.9844
O4_7 O 0.01309(15) 0.4000(2) 0.71456(17)
O5_7 O 0.21456(17) 0.48691(15) 0.6000(2)
O6_7 O 0.1000(2) 0.28544(17) 0.51309(15)
N6_4 N 0.41135(14) 0.47163(14) 0.52399(14)
N14_7 N 0.08836(17) 0.41869(18) 0.76381(17)
N15_7 N 0.26381(17) 0.41164(17) 0.58131(18)
N16_7 N 0.08131(18) 0.23619(17) 0.58836(17)
H9_7 H 0.1238 0.4170 0.7626
H10_7 H 0.2626 0.3762 0.5830
H11_7 H 0.0830 0.2374 0.6238
C12_7 C 0.37173(19) 0.50488(18) 0.5382(2)
C13_7 C 0.0382(2) 0.12827(19) 0.49512(18)
H15_7 H 0.3767 0.5432 0.5356
H16_7 H 0.0356 0.1233 0.4568
C16_7 C 0.01092(19) 0.4427(2) 0.8219(2)
C17_7 C 0.3219(2) 0.48908(19) 0.5573(2)
C18_7 C 0.0573(2) 0.1781(2) 0.51092(19)
H20_7 H 0.2954 0.5156 0.5674
H21_7 H 0.0674 0.2046 0.4844
C21_7 C 0.06619(18) 0.43816(19) 0.81175(18)
C22_7 C 0.31175(18) 0.43381(18) 0.56184(19)
C23_7 C 0.06184(19) 0.18825(18) 0.56619(18)
C26_7 C 0.10159(18) 0.4529(2) 0.85260(19)
C27_7 C 0.35260(19) 0.39841(18) 0.5471(2)
C28_7 C 0.0471(2) 0.14740(19) 0.60159(18)
H24_7 H 0.1398 0.4498 0.8469
H25_7 H 0.3469 0.3602 0.5502
H26_7 H 0.0502 0.1531 0.6398
C31_7 C 0.08139(19) 0.4718(2) 0.90069(19)
C32_7 C 0.40069(19) 0.41861(19) 0.5282(2)
C33_7 C 0.0282(2) 0.09931(19) 0.58139(19)
H29_7 H 0.1072 0.4820 0.9278
H30_7 H 0.4278 0.3928 0.5180
H31_7 H 0.0180 0.0722 0.6072
C36_7 C 0.06219(19) 0.4021(2) 0.71897(19)
C37_7 C 0.21897(19) 0.43781(19) 0.5979(2)
C38_7 C 0.0979(2) 0.28103(19) 0.56219(19)
C41_7 C 0.09825(18) 0.38563(18) 0.67319(17)
C42_7 C 0.17319(17) 0.40175(18) 0.61437(18)
C43_7 C 0.11437(18) 0.32681(17) 0.59825(18)
C46_7 C 0.14281(18) 0.41605(18) 0.65902(19)
C47_7 C 0.15902(19) 0.35719(18) 0.58395(18)
C48_7 C 0.08395(18) 0.34098(19) 0.64281(18)
H34_7 H 0.1529 0.4468 0.6804
H35_7 H 0.0532 0.3196 0.6529
H36_7 H 0.1804 0.3471 0.5532
C10_8 C 0.37173(19) 0.99512(18) 0.0382(2)
H13_8 H 0.3767 0.9568 0.0356
H18_8 H 0.2954 0.9844 0.0674
C9_8 C 0.99512(18) 0.0382(2) 0.37173(19)
H12_8 H 0.9568 0.0356 0.3767
H17_8 H 0.9844 0.0674 0.2954
C11_7 C 0.99512(18) 0.4618(2) 0.87173(19)
H14_7 H 0.9568 0.4644 0.8767
H19_7 H 0.9844 0.4326 0.7954
O4_8 O 0.48691(15) 0.6000(2) 0.21456(17)
O5_8 O 0.28544(17) 0.51309(15) 0.1000(2)
O6_8 O 0.4000(2) 0.71456(17) 0.01309(15)
N5_4 N 0.47163(14) 0.52399(14) 0.41135(14)
N14_8 N 0.41164(17) 0.58131(18) 0.26381(17)
N15_8 N 0.23619(17) 0.58836(17) 0.08131(18)
N16_8 N 0.41869(18) 0.76381(17) 0.08836(17)
H9_8 H 0.3762 0.5830 0.2626
H10_8 H 0.2374 0.6238 0.0830
H11_8 H 0.4170 0.7626 0.1238
C11_8 C 0.50488(18) 0.5382(2) 0.37173(19)
C12_8 C 0.12827(19) 0.49512(18) 0.0382(2)
H14_8 H 0.5432 0.5356 0.3767
H15_8 H 0.1233 0.4568 0.0356
C16_8 C 0.48908(19) 0.5573(2) 0.3219(2)
C17_8 C 0.1781(2) 0.51092(19) 0.0573(2)
C18_8 C 0.4427(2) 0.8219(2) 0.01092(19)
H19_8 H 0.5156 0.5674 0.2954
H20_8 H 0.2046 0.4844 0.0674
C21_8 C 0.43381(18) 0.56184(19) 0.31175(18)
C22_8 C 0.18825(18) 0.56619(18) 0.06184(19)
C23_8 C 0.43816(19) 0.81175(18) 0.06619(18)
C26_8 C 0.39841(18) 0.5471(2) 0.35260(19)
C27_8 C 0.14740(19) 0.60159(18) 0.0471(2)
C28_8 C 0.4529(2) 0.85260(19) 0.10159(18)
H24_8 H 0.3602 0.5502 0.3469
H25_8 H 0.1531 0.6398 0.0502
H26_8 H 0.4498 0.8469 0.1398
C31_8 C 0.41861(19) 0.5282(2) 0.40069(19)
C32_8 C 0.09931(19) 0.58139(19) 0.0282(2)
C33_8 C 0.4718(2) 0.90069(19) 0.08139(19)
H29_8 H 0.3928 0.5180 0.4278
H30_8 H 0.0722 0.6072 0.0180
H31_8 H 0.4820 0.9278 0.1072
C36_8 C 0.43781(19) 0.5979(2) 0.21897(19)
C37_8 C 0.28103(19) 0.56219(19) 0.0979(2)
C38_8 C 0.4021(2) 0.71897(19) 0.06219(19)
C41_8 C 0.40175(18) 0.61437(18) 0.17319(17)
C42_8 C 0.32681(17) 0.59825(18) 0.11437(18)
C43_8 C 0.38563(18) 0.67319(17) 0.09825(18)
C46_8 C 0.35719(18) 0.58395(18) 0.15902(19)
C47_8 C 0.34098(19) 0.64281(18) 0.08395(18)
C48_8 C 0.41605(18) 0.65902(19) 0.14281(18)
H34_8 H 0.3471 0.5532 0.1804
H35_8 H 0.4468 0.6804 0.1529
H36_8 H 0.3196 0.6529 0.0532
C13_8 C 0.4618(2) 0.87173(19) 0.99512(18)
H16_8 H 0.4644 0.8767 0.9568
H21_8 H 0.4326 0.7954 0.9844
Cl1 Cl 0.5000 0.2500 0.25096(16)
O7 O 0.5426(6) 0.2152(6) 0.2353(7)
O8 O 0.4528(7) 0.2200(10) 0.2370(10)
O9 O 0.4574(6) 0.2848(6) 0.2353(7)
O10 O 0.5472(7) 0.2800(10) 0.2370(10)
Cl1_2 Cl 0.25096(16) 0.5000 0.2500
O7_2 O 0.2353(7) 0.5426(6) 0.2152(6)
O8_2 O 0.2370(10) 0.4528(7) 0.2200(10)
O9_2 O 0.2353(7) 0.4574(6) 0.2848(6)
O10_2 O 0.2370(10) 0.5472(7) 0.2800(10)
Cl1_3 Cl 0.2500 0.25096(16) 0.5000
O7_3 O 0.2152(6) 0.2353(7) 0.5426(6)
O8_3 O 0.2200(10) 0.2370(10) 0.4528(7)
O9_3 O 0.2848(6) 0.2353(7) 0.4574(6)
O10_3 O 0.2800(10) 0.2370(10) 0.5472(7)
Cl1_4 Cl 0.0000 0.7500 0.75096(16)
O7_4 O 0.0426(6) 0.7152(6) 0.7353(7)
O10_4 O 0.0472(7) 0.7800(10) 0.7370(10)
Cl1_5 Cl 1.0000 0.7500 0.75096(16)
O8_4 O 0.9528(7) 0.7200(10) 0.7370(10)
O9_4 O 0.9574(6) 0.7848(6) 0.7353(7)
Cl1_6 Cl 0.75096(16) 0.0000 0.7500
O7_5 O 0.7353(7) 0.0426(6) 0.7152(6)
O10_5 O 0.7370(10) 0.0472(7) 0.7800(10)
Cl1_7 Cl 0.75096(16) 1.0000 0.7500
O8_5 O 0.7370(10) 0.9528(7) 0.7200(10)
O9_5 O 0.7353(7) 0.9574(6) 0.7848(6)
Cl1_8 Cl 0.7500 0.75096(16) 0.0000
O7_6 O 0.7152(6) 0.7353(7) 0.0426(6)
O10_6 O 0.7800(10) 0.7370(10) 0.0472(7)
Cl1_9 Cl 0.7500 0.75096(16) 1.0000
O8_6 O 0.7200(10) 0.7370(10) 0.9528(7)
O9_6 O 0.7848(6) 0.7353(7) 0.9574(6)
Cl1_10 Cl 0.5000 0.7500 0.24904(16)
O7_7 O 0.4574(6) 0.7152(6) 0.2647(7)
O8_7 O 0.5472(7) 0.7200(10) 0.2630(10)
O9_7 O 0.5426(6) 0.7848(6) 0.2647(7)
O10_7 O 0.4528(7) 0.7800(10) 0.2630(10)
Cl1_11 Cl 0.0000 0.2500 0.74904(16)
O7_8 O 0.0426(6) 0.2848(6) 0.7647(7)
O10_8 O 0.0472(7) 0.2200(10) 0.7630(10)
Cl1_12 Cl 1.0000 0.2500 0.74904(16)
O8_8 O 0.9528(7) 0.2800(10) 0.7630(10)
O9_8 O 0.9574(6) 0.2152(6) 0.7647(7)
Cl1_13 Cl 0.24904(16) 0.5000 0.7500
O7_9 O 0.2647(7) 0.4574(6) 0.7152(6)
O8_9 O 0.2630(10) 0.5472(7) 0.7200(10)
O9_9 O 0.2647(7) 0.5426(6) 0.7848(6)
O10_9 O 0.2630(10) 0.4528(7) 0.7800(10)
Cl1_14 Cl 0.74904(16) 0.0000 0.2500
O7_10 O 0.7647(7) 0.0426(6) 0.2848(6)
O10_10 O 0.7630(10) 0.0472(7) 0.2200(10)
Cl1_15 Cl 0.74904(16) 1.0000 0.2500
O8_10 O 0.7630(10) 0.9528(7) 0.2800(10)
O9_10 O 0.7647(7) 0.9574(6) 0.2152(6)
Cl1_16 Cl 0.7500 0.24904(16) 0.5000
O7_11 O 0.7152(6) 0.2647(7) 0.4574(6)
O8_11 O 0.7200(10) 0.2630(10) 0.5472(7)
O9_11 O 0.7848(6) 0.2647(7) 0.5426(6)
O10_11 O 0.7800(10) 0.2630(10) 0.4528(7)
Cl1_17 Cl 0.2500 0.74904(16) 0.0000
O7_12 O 0.2848(6) 0.7647(7) 0.0426(6)
O10_12 O 0.2200(10) 0.7630(10) 0.0472(7)
Cl1_18 Cl 0.2500 0.74904(16) 1.0000
O8_12 O 0.2800(10) 0.7630(10) 0.9528(7)
O9_12 O 0.2152(6) 0.7647(7) 0.9574(6)
Cl1_19 Cl 0.5000 0.7500 0.74904(16)
O7_13 O 0.4574(6) 0.7848(6) 0.7647(7)
O8_13 O 0.5472(7) 0.7800(10) 0.7630(10)
O9_13 O 0.5426(6) 0.7152(6) 0.7647(7)
O10_13 O 0.4528(7) 0.7200(10) 0.7630(10)
Cl1_20 Cl 0.74904(16) 0.5000 0.7500
O7_14 O 0.7647(7) 0.4574(6) 0.7848(6)
O8_14 O 0.7630(10) 0.5472(7) 0.7800(10)
O9_14 O 0.7647(7) 0.5426(6) 0.7152(6)
O10_14 O 0.7630(10) 0.4528(7) 0.7200(10)
Cl1_21 Cl 0.7500 0.74904(16) 0.5000
O7_15 O 0.7848(6) 0.7647(7) 0.4574(6)
O8_15 O 0.7800(10) 0.7630(10) 0.5472(7)
O9_15 O 0.7152(6) 0.7647(7) 0.5426(6)
O10_15 O 0.7200(10) 0.7630(10) 0.4528(7)
Cl1_22 Cl 0.0000 0.2500 0.24904(16)
O8_16 O 0.0472(7) 0.2800(10) 0.2630(10)
O9_16 O 0.0426(6) 0.2152(6) 0.2647(7)
Cl1_23 Cl 1.0000 0.2500 0.24904(16)
O7_16 O 0.9574(6) 0.2848(6) 0.2647(7)
O10_16 O 0.9528(7) 0.2200(10) 0.2630(10)
Cl1_24 Cl 0.24904(16) 0.0000 0.2500
O8_17 O 0.2630(10) 0.0472(7) 0.2800(10)
O9_17 O 0.2647(7) 0.0426(6) 0.2152(6)
Cl1_25 Cl 0.24904(16) 1.0000 0.2500
O7_17 O 0.2647(7) 0.9574(6) 0.2848(6)
O10_17 O 0.2630(10) 0.9528(7) 0.2200(10)
Cl1_26 Cl 0.2500 0.24904(16) 0.0000
O8_18 O 0.2800(10) 0.2630(10) 0.0472(7)
O9_18 O 0.2152(6) 0.2647(7) 0.0426(6)
Cl1_27 Cl 0.2500 0.24904(16) 1.0000
O7_18 O 0.2848(6) 0.2647(7) 0.9574(6)
O10_18 O 0.2200(10) 0.2630(10) 0.9528(7)
Cl1_28 Cl 0.5000 0.2500 0.75096(16)
O7_19 O 0.5426(6) 0.2848(6) 0.7353(7)
O8_19 O 0.4528(7) 0.2800(10) 0.7370(10)
O9_19 O 0.4574(6) 0.2152(6) 0.7353(7)
O10_19 O 0.5472(7) 0.2200(10) 0.7370(10)
Cl1_29 Cl 0.0000 0.7500 0.25096(16)
O8_20 O 0.0472(7) 0.7200(10) 0.2370(10)
O9_20 O 0.0426(6) 0.7848(6) 0.2353(7)
Cl1_30 Cl 1.0000 0.7500 0.25096(16)
O7_20 O 0.9574(6) 0.7152(6) 0.2353(7)
O10_20 O 0.9528(7) 0.7800(10) 0.2370(10)
Cl1_31 Cl 0.75096(16) 0.5000 0.2500
O7_21 O 0.7353(7) 0.5426(6) 0.2848(6)
O8_21 O 0.7370(10) 0.4528(7) 0.2800(10)
O9_21 O 0.7353(7) 0.4574(6) 0.2152(6)
O10_21 O 0.7370(10) 0.5472(7) 0.2200(10)
Cl1_32 Cl 0.25096(16) 0.0000 0.7500
O8_22 O 0.2370(10) 0.0472(7) 0.7200(10)
O9_22 O 0.2353(7) 0.0426(6) 0.7848(6)
Cl1_33 Cl 0.25096(16) 1.0000 0.7500
O7_22 O 0.2353(7) 0.9574(6) 0.7152(6)
O10_22 O 0.2370(10) 0.9528(7) 0.7800(10)
Cl1_34 Cl 0.2500 0.75096(16) 0.5000
O7_23 O 0.2848(6) 0.7353(7) 0.5426(6)
O8_23 O 0.2800(10) 0.7370(10) 0.4528(7)
O9_23 O 0.2152(6) 0.7353(7) 0.4574(6)
O10_23 O 0.2200(10) 0.7370(10) 0.5472(7)
Cl1_35 Cl 0.7500 0.25096(16) 0.0000
O8_24 O 0.7200(10) 0.2370(10) 0.0472(7)
O9_24 O 0.7848(6) 0.2353(7) 0.0426(6)
Cl1_36 Cl 0.7500 0.25096(16) 1.0000
O7_24 O 0.7152(6) 0.2353(7) 0.9574(6)
O10_24 O 0.7800(10) 0.2370(10) 0.9528(7)
loop_
_geom_bond_atom_site_label_1
_geom_bond_atom_site_label_2
_geom_bond_site_symmetry_1
_geom_bond_site_symmetry_2
C1 H2 1_555 1_555
Cd4 N6 1_555 1_555
Cd5 N7 1_555 1_555
O4 C36 1_555 1_555
O5 C37 1_555 1_555
O6 C38 1_555 1_555
N5 Cd1 1_555 1_555
N6 C12 1_555 1_555
N7 C13 1_555 1_555
N9 Cd1 1_555 1_555
N11 Cd1 1_555 1_555
N14 H9 1_555 1_555
N15 H10 1_555 1_555
N16 H11 1_555 1_555
C11 N5 1_555 1_555
C12 H15 1_555 1_555
C13 H16 1_555 1_555
H14 C11 1_555 1_555
C16 C11 1_555 1_555
C17 C12 1_555 1_555
C18 C13 1_555 1_555
H19 C16 1_555 1_555
H20 C17 1_555 1_555
H21 C18 1_555 1_555
C21 N14 1_555 1_555
C22 N15 1_555 1_555
C23 N16 1_555 1_555
C26 C21 1_555 1_555
C27 C22 1_555 1_555
C28 C23 1_555 1_555
H24 C26 1_555 1_555
H25 C27 1_555 1_555
H26 C28 1_555 1_555
C31 N5 1_555 1_555
C32 N6 1_555 1_555
C33 N7 1_555 1_555
H29 C31 1_555 1_555
H30 C32 1_555 1_555
H31 C33 1_555 1_555
C36 N14 1_555 1_555
C37 N15 1_555 1_555
C38 N16 1_555 1_555
C41 C36 1_555 1_555
C42 C37 1_555 1_555
C43 C38 1_555 1_555
C46 C41 1_555 1_555
C47 C42 1_555 1_555
C48 C41 1_555 1_555
H34 C46 1_555 1_555
H35 C48 1_555 1_555
H36 C47 1_555 1_555
C16 C21 1_555 1_555
C17 C22 1_555 1_555
C18 C23 1_555 1_555
C26 C31 1_555 1_555
C27 C32 1_555 1_555
C28 C33 1_555 1_555
C42 C46 1_555 1_555
C43 C47 1_555 1_555
C43 C48 1_555 1_555
Cd1_2 N1 1_555 1_555
O1 C6 1_555 1_555
N2 H1 1_555 1_555
C3 N2 1_555 1_555
C4 C3 1_555 1_555
H4 C4 1_555 1_555
C5 N1 1_555 1_555
H5 C5 1_555 1_555
C6 N2 1_555 1_555
C7 C6 1_555 1_555
C8 C7 1_555 1_555
H6 C8 1_555 1_555
Cd5 N3 1_555 1_555
Cd3_2 N4 1_555 1_555
O2 C34 1_555 1_555
O3 C35 1_555 1_555
N3 C9 1_555 1_555
N8 Cd1_2 1_555 1_555
N10 Cd1_2 1_555 1_555
N12 H7 1_555 1_555
N13 H8 1_555 1_555
C9 H12 1_555 1_555
C14 C9 1_555 1_555
H17 C14 1_555 1_555
C19 N12 1_555 1_555
C20 N13 1_555 1_555
C24 C19 1_555 1_555
C25 C20 1_555 1_555
H22 C24 1_555 1_555
H23 C25 1_555 1_555
C29 N3 1_555 1_555
C30 N4 1_555 1_555
H27 C29 1_555 1_555
H28 C30 1_555 1_555
C34 N12 1_555 1_555
C35 N13 1_555 1_555
C39 C8 1_555 1_555
C40 C35 1_555 1_555
C44 C39 1_555 1_555
C45 C7 1_555 1_555
H32 C45 1_555 1_555
H33 C44 1_555 1_555
C2 C3 1_555 1_555
C4 C5 1_555 1_555
C14 C19 1_555 1_555
C15 C20 1_555 1_555
C24 C29 1_555 1_555
C25 C30 1_555 1_555
C34 C39 1_555 1_555
C40 C44 1_555 1_555
C40 C45 1_555 1_555
C10 H13 1_555 1_555
C1_2 H2_2 1_555 1_555
N9_2 Cd4 1_555 1_555
N11_2 Cd4 1_555 1_555
Cd4_2 N1_2 1_555 1_555
O1_2 C6_2 1_555 1_555
N2_2 H1_2 1_555 1_555
C3_2 N2_2 1_555 1_555
C4_2 C3_2 1_555 1_555
H4_2 C4_2 1_555 1_555
C5_2 N1_2 1_555 1_555
H5_2 C5_2 1_555 1_555
C6_2 N2_2 1_555 1_555
C7_2 C6_2 1_555 1_555
C8_2 C7_2 1_555 1_555
H6_2 C8_2 1_555 1_555
Cd3_5 N4_2 1_555 1_555
O2_2 C34_2 1_555 1_555
O3_2 C35_2 1_555 1_555
N11 C9_2 1_555 1_555
N8_2 Cd4_2 1_555 1_555
N10_2 Cd4_2 1_555 1_555
N12_2 H7_2 1_555 1_555
N13_2 H8_2 1_555 1_555
C9_2 H12_2 1_555 1_555
C14_2 C9_2 1_555 1_555
H17_2 C14_2 1_555 1_555
C19_2 N12_2 1_555 1_555
C20_2 N13_2 1_555 1_555
C24_2 C19_2 1_555 1_555
C25_2 C20_2 1_555 1_555
H22_2 C24_2 1_555 1_555
H23_2 C25_2 1_555 1_555
C29_2 N11 1_555 1_555
C30_2 N4_2 1_555 1_555
H27_2 C29_2 1_555 1_555
H28_2 C30_2 1_555 1_555
C34_2 N12_2 1_555 1_555
C35_2 N13_2 1_555 1_555
C39_2 C8_2 1_555 1_555
C40_2 C35_2 1_555 1_555
C44_2 C39_2 1_555 1_555
C45_2 C7_2 1_555 1_555
H32_2 C45_2 1_555 1_555
H33_2 C44_2 1_555 1_555
C2_2 C3_2 1_555 1_555
C4_2 C5_2 1_555 1_555
C14_2 C19_2 1_555 1_555
C15_2 C20_2 1_555 1_555
C24_2 C29_2 1_555 1_555
C25_2 C30_2 1_555 1_555
C34_2 C39_2 1_555 1_555
C40_2 C44_2 1_555 1_555
C40_2 C45_2 1_555 1_555
C10_2 H13_2 1_555 1_555
C1_3 H2_3 1_555 1_555
N9_3 Cd5 1_555 1_555
Cd5_2 N1_3 1_555 1_555
O1_3 C6_3 1_555 1_555
N2_3 H1_3 1_555 1_555
C3_3 N2_3 1_555 1_555
C4_3 C3_3 1_555 1_555
H4_3 C4_3 1_555 1_555
C5_3 N1_3 1_555 1_555
H5_3 C5_3 1_555 1_555
C6_3 N2_3 1_555 1_555
C7_3 C6_3 1_555 1_555
C8_3 C7_3 1_555 1_555
H6_3 C8_3 1_555 1_555
Cd3_3 N4_3 1_555 1_555
O2_3 C34_3 1_555 1_555
O3_3 C35_3 1_555 1_555
N11_2 C9_3 1_555 1_555
N8_3 Cd5_2 1_555 1_555
N10_3 Cd5_2 1_555 1_555
N12_3 H7_3 1_555 1_555
N13_3 H8_3 1_555 1_555
C9_3 H12_3 1_555 1_555
C14_3 C9_3 1_555 1_555
H17_3 C14_3 1_555 1_555
C19_3 N12_3 1_555 1_555
C20_3 N13_3 1_555 1_555
C24_3 C19_3 1_555 1_555
C25_3 C20_3 1_555 1_555
H22_3 C24_3 1_555 1_555
H23_3 C25_3 1_555 1_555
C29_3 N11_2 1_555 1_555
C30_3 N4_3 1_555 1_555
H27_3 C29_3 1_555 1_555
H28_3 C30_3 1_555 1_555
C34_3 N12_3 1_555 1_555
C35_3 N13_3 1_555 1_555
C39_3 C8_3 1_555 1_555
C40_3 C35_3 1_555 1_555
C44_3 C39_3 1_555 1_555
C45_3 C7_3 1_555 1_555
H32_3 C45_3 1_555 1_555
H33_3 C44_3 1_555 1_555
C2_3 C3_3 1_555 1_555
C4_3 C5_3 1_555 1_555
C14_3 C19_3 1_555 1_555
C15_3 C20_3 1_555 1_555
C24_3 C29_3 1_555 1_555
C25_3 C30_3 1_555 1_555
C34_3 C39_3 1_555 1_555
C40_3 C44_3 1_555 1_555
C40_3 C45_3 1_555 1_555
C10_3 H13_3 1_555 1_555
C13_2 H16_2 1_555 1_555
Cd3_4 N7_2 1_555 1_555
O4_2 C36_2 1_555 1_555
O5_2 C37_2 1_555 1_555
O6_2 C38_2 1_555 1_555
N8 C12_2 1_555 1_555
N14_2 H9_2 1_555 1_555
N15_2 H10_2 1_555 1_555
N16_2 H11_2 1_555 1_555
C12_2 H15_2 1_555 1_555
C17_2 C12_2 1_555 1_555
H20_2 C17_2 1_555 1_555
C21_2 N14_2 1_555 1_555
C22_2 N15_2 1_555 1_555
C23_2 N16_2 1_555 1_555
C26_2 C21_2 1_555 1_555
C27_2 C22_2 1_555 1_555
C28_2 C23_2 1_555 1_555
H24_2 C26_2 1_555 1_555
H25_2 C27_2 1_555 1_555
H26_2 C28_2 1_555 1_555
C31_2 N9_2 1_555 1_555
C32_2 N8 1_555 1_555
C33_2 N7_2 1_555 1_555
H29_2 C31_2 1_555 1_555
H30_2 C32_2 1_555 1_555
H31_2 C33_2 1_555 1_555
C36_2 N14_2 1_555 1_555
C37_2 N15_2 1_555 1_555
C38_2 N16_2 1_555 1_555
C41_2 C36_2 1_555 1_555
C42_2 C37_2 1_555 1_555
C43_2 C38_2 1_555 1_555
C46_2 C41_2 1_555 1_555
C47_2 C42_2 1_555 1_555
C48_2 C41_2 1_555 1_555
H34_2 C46_2 1_555 1_555
H35_2 C48_2 1_555 1_555
H36_2 C47_2 1_555 1_555
C16_2 C21_2 1_555 1_555
C17_2 C22_2 1_555 1_555
C18_2 C23_2 1_555 1_555
C26_2 C31_2 1_555 1_555
C27_2 C32_2 1_555 1_555
C28_2 C33_2 1_555 1_555
C42_2 C46_2 1_555 1_555
C43_2 C47_2 1_555 1_555
C43_2 C48_2 1_555 1_555
H14_2 C11_2 1_555 1_555
C12_3 H15_3 1_555 1_555
O1_4 C6_4 1_555 1_555
N10_3 C1_4 1_555 1_555
N2_4 H1_4 1_555 1_555
C1_4 H2_4 1_555 1_555
C2_4 C1_4 1_555 1_555
H3_4 C2_4 1_555 1_555
C3_4 N2_4 1_555 1_555
C4_4 C3_4 1_555 1_555
H4_4 C4_4 1_555 1_555
C5_4 N10_3 1_555 1_555
H5_4 C5_4 1_555 1_555
C6_4 N2_4 1_555 1_555
C7_4 C6_4 1_555 1_555
C8_4 C7_4 1_555 1_555
H6_4 C8_4 1_555 1_555
Cd3_7 N6_2 1_555 1_555
O2_4 C34_4 1_555 1_555
O3_4 C35_4 1_555 1_555
O4_3 C36_3 1_555 1_555
O5_3 C37_3 1_555 1_555
O6_3 C38_3 1_555 1_555
N10 C9_4 1_555 1_555
N10_2 C10_4 1_555 1_555
N12_4 H7_4 1_555 1_555
N13_4 H8_4 1_555 1_555
N14_3 H9_3 1_555 1_555
N15_3 H10_3 1_555 1_555
N16_3 H11_3 1_555 1_555
C9_4 H12_4 1_555 1_555
C10_4 H13_4 1_555 1_555
C11_3 N8_3 1_555 1_555
H14_3 C11_3 1_555 1_555
C14_4 C9_4 1_555 1_555
C15_4 C10_4 1_555 1_555
C16_3 C11_3 1_555 1_555
H17_4 C14_4 1_555 1_555
H18_4 C15_4 1_555 1_555
H19_3 C16_3 1_555 1_555
C19_4 N12_4 1_555 1_555
C20_4 N13_4 1_555 1_555
C21_3 N14_3 1_555 1_555
C22_3 N15_3 1_555 1_555
C23_3 N16_3 1_555 1_555
C24_4 C19_4 1_555 1_555
C25_4 C20_4 1_555 1_555
C26_3 C21_3 1_555 1_555
C27_3 C22_3 1_555 1_555
C28_3 C23_3 1_555 1_555
H22_4 C24_4 1_555 1_555
H23_4 C25_4 1_555 1_555
H24_3 C26_3 1_555 1_555
H25_3 C27_3 1_555 1_555
H26_3 C28_3 1_555 1_555
C29_4 N10 1_555 1_555
C30_4 N10_2 1_555 1_555
C31_3 N8_3 1_555 1_555
C32_3 N6_2 1_555 1_555
C33_3 N9 1_555 1_555
H27_4 C29_4 1_555 1_555
H28_4 C30_4 1_555 1_555
H29_3 C31_3 1_555 1_555
H30_3 C32_3 1_555 1_555
H31_3 C33_3 1_555 1_555
C34_4 N12_4 1_555 1_555
C35_4 N13_4 1_555 1_555
C36_3 N14_3 1_555 1_555
C37_3 N15_3 1_555 1_555
C38_3 N16_3 1_555 1_555
C39_4 C8_4 1_555 1_555
C40_4 C35_4 1_555 1_555
C41_3 C36_3 1_555 1_555
C42_3 C37_3 1_555 1_555
C43_3 C38_3 1_555 1_555
C44_4 C39_4 1_555 1_555
C45_4 C7_4 1_555 1_555
C46_3 C41_3 1_555 1_555
C47_3 C42_3 1_555 1_555
C48_3 C41_3 1_555 1_555
H32_4 C45_4 1_555 1_555
H33_4 C44_4 1_555 1_555
H34_3 C46_3 1_555 1_555
H35_3 C48_3 1_555 1_555
H36_3 C47_3 1_555 1_555
C2_4 C3_4 1_555 1_555
C4_4 C5_4 1_555 1_555
C14_4 C19_4 1_555 1_555
C15_4 C20_4 1_555 1_555
C16_3 C21_3 1_555 1_555
C17_3 C22_3 1_555 1_555
C18_3 C23_3 1_555 1_555
C24_4 C29_4 1_555 1_555
C25_4 C30_4 1_555 1_555
C26_3 C31_3 1_555 1_555
C27_3 C32_3 1_555 1_555
C28_3 C33_3 1_555 1_555
C34_4 C39_4 1_555 1_555
C40_4 C44_4 1_555 1_555
C40_4 C45_4 1_555 1_555
C42_3 C46_3 1_555 1_555
C43_3 C47_3 1_555 1_555
C43_3 C48_3 1_555 1_555
C13_3 H16_3 1_555 1_555
H14_4 C11_4 1_555 1_555
O4_4 C36_4 1_555 1_555
O5_4 C37_4 1_555 1_555
O6_4 C38_4 1_555 1_555
N5_2 Cd3_6 1_555 1_555
N8_2 C13_4 1_555 1_555
N14_4 H9_4 1_555 1_555
N15_4 H10_4 1_555 1_555
N16_4 H11_4 1_555 1_555
C13_4 H16_4 1_555 1_555
C18_4 C13_4 1_555 1_555
H21_4 C18_4 1_555 1_555
C21_4 N14_4 1_555 1_555
C22_4 N15_4 1_555 1_555
C23_4 N16_4 1_555 1_555
C26_4 C21_4 1_555 1_555
C27_4 C22_4 1_555 1_555
C28_4 C23_4 1_555 1_555
H24_4 C26_4 1_555 1_555
H25_4 C27_4 1_555 1_555
H26_4 C28_4 1_555 1_555
C31_4 N5_2 1_555 1_555
C32_4 N9_3 1_555 1_555
C33_4 N8_2 1_555 1_555
H29_4 C31_4 1_555 1_555
H30_4 C32_4 1_555 1_555
H31_4 C33_4 1_555 1_555
C36_4 N14_4 1_555 1_555
C37_4 N15_4 1_555 1_555
C38_4 N16_4 1_555 1_555
C41_4 C36_4 1_555 1_555
C42_4 C37_4 1_555 1_555
C43_4 C38_4 1_555 1_555
C46_4 C41_4 1_555 1_555
C47_4 C42_4 1_555 1_555
C48_4 C41_4 1_555 1_555
H34_4 C46_4 1_555 1_555
H35_4 C48_4 1_555 1_555
H36_4 C47_4 1_555 1_555
C16_4 C21_4 1_555 1_555
C17_4 C22_4 1_555 1_555
C18_4 C23_4 1_555 1_555
C26_4 C31_4 1_555 1_555
C27_4 C32_4 1_555 1_555
C28_4 C33_4 1_555 1_555
C42_4 C46_4 1_555 1_555
C43_4 C47_4 1_555 1_555
C43_4 C48_4 1_555 1_555
C12_4 H15_4 1_555 1_555
N9_4 Cd1_3 1_555 1_555
N10_4 Cd1_3 1_555 1_555
N11_3 Cd1_4 1_555 1_555
C9_5 H12_5 1_555 1_555
H14_5 C11_5 1_555 1_555
N8_4 Cd1_5 1_555 1_555
C12_5 H15_5 1_555 1_555
C13_5 H16_5 1_555 1_555
Cd1_6 N1_4 1_555 1_555
O1_5 C6_5 1_555 1_555
N1_4 C1_5 1_555 1_555
N2_5 H1_5 1_555 1_555
C1_5 H2_5 1_555 1_555
C2_5 C1_5 1_555 1_555
H3_5 C2_5 1_555 1_555
C3_5 N2_5 1_555 1_555
C4_5 C3_5 1_555 1_555
H4_5 C4_5 1_555 1_555
C5_5 N1_4 1_555 1_555
H5_5 C5_5 1_555 1_555
C6_5 N2_5 1_555 1_555
C7_5 C6_5 1_555 1_555
C8_5 C7_5 1_555 1_555
H6_5 C8_5 1_555 1_555
Cd5_5 N3_2 1_555 1_555
Cd3_9 N4_4 1_555 1_555
Cd4_6 N6_3 1_555 1_555
Cd5_6 N7_3 1_555 1_555
O2_5 C34_5 1_555 1_555
O3_5 C35_5 1_555 1_555
O4_5 C36_5 1_555 1_555
O5_5 C37_5 1_555 1_555
O6_5 C38_5 1_555 1_555
N4_4 C10_5 1_555 1_555
N5_3 Cd1_6 1_555 1_555
N12_5 H7_5 1_555 1_555
N13_5 H8_5 1_555 1_555
N14_5 H9_5 1_555 1_555
N15_5 H10_5 1_555 1_555
N16_5 H11_5 1_555 1_555
C10_5 H13_5 1_555 1_555
C15_5 C10_5 1_555 1_555
H18_5 C15_5 1_555 1_555
C19_5 N12_5 1_555 1_555
C20_5 N13_5 1_555 1_555
C21_5 N14_5 1_555 1_555
C22_5 N15_5 1_555 1_555
C23_5 N16_5 1_555 1_555
C24_5 C19_5 1_555 1_555
C25_5 C20_5 1_555 1_555
C26_5 C21_5 1_555 1_555
C27_5 C22_5 1_555 1_555
C28_5 C23_5 1_555 1_555
H22_5 C24_5 1_555 1_555
H23_5 C25_5 1_555 1_555
H24_5 C26_5 1_555 1_555
H25_5 C27_5 1_555 1_555
H26_5 C28_5 1_555 1_555
C29_5 N3_2 1_555 1_555
C30_5 N4_4 1_555 1_555
C31_5 N5_3 1_555 1_555
C32_5 N6_3 1_555 1_555
C33_5 N7_3 1_555 1_555
H27_5 C29_5 1_555 1_555
H28_5 C30_5 1_555 1_555
H29_5 C31_5 1_555 1_555
H30_5 C32_5 1_555 1_555
H31_5 C33_5 1_555 1_555
C34_5 N12_5 1_555 1_555
C35_5 N13_5 1_555 1_555
C36_5 N14_5 1_555 1_555
C37_5 N15_5 1_555 1_555
C38_5 N16_5 1_555 1_555
C39_5 C8_5 1_555 1_555
C40_5 C35_5 1_555 1_555
C41_5 C36_5 1_555 1_555
C42_5 C37_5 1_555 1_555
C43_5 C38_5 1_555 1_555
C44_5 C39_5 1_555 1_555
C45_5 C7_5 1_555 1_555
C46_5 C41_5 1_555 1_555
C47_5 C42_5 1_555 1_555
C48_5 C41_5 1_555 1_555
H32_5 C45_5 1_555 1_555
H33_5 C44_5 1_555 1_555
H34_5 C46_5 1_555 1_555
H35_5 C48_5 1_555 1_555
H36_5 C47_5 1_555 1_555
C2_5 C3_5 1_555 1_555
C4_5 C5_5 1_555 1_555
C14_5 C19_5 1_555 1_555
C15_5 C20_5 1_555 1_555
C16_5 C21_5 1_555 1_555
C17_5 C22_5 1_555 1_555
C18_5 C23_5 1_555 1_555
C24_5 C29_5 1_555 1_555
C25_5 C30_5 1_555 1_555
C26_5 C31_5 1_555 1_555
C27_5 C32_5 1_555 1_555
C28_5 C33_5 1_555 1_555
C34_5 C39_5 1_555 1_555
C40_5 C44_5 1_555 1_555
C40_5 C45_5 1_555 1_555
C42_5 C46_5 1_555 1_555
C43_5 C47_5 1_555 1_555
C43_5 C48_5 1_555 1_555
N9_5 Cd4_3 1_555 1_555
N10_5 Cd4_3 1_555 1_555
N11_4 Cd4_4 1_555 1_555
C9_6 H12_6 1_555 1_555
N8_5 Cd4_5 1_555 1_555
Cd4_6 N1_5 1_555 1_555
O1_6 C6_6 1_555 1_555
N1_5 C1_6 1_555 1_555
N2_6 H1_6 1_555 1_555
C1_6 H2_6 1_555 1_555
C2_6 C1_6 1_555 1_555
H3_6 C2_6 1_555 1_555
C3_6 N2_6 1_555 1_555
C4_6 C3_6 1_555 1_555
H4_6 C4_6 1_555 1_555
C5_6 N1_5 1_555 1_555
H5_6 C5_6 1_555 1_555
C6_6 N2_6 1_555 1_555
C7_6 C6_6 1_555 1_555
C8_6 C7_6 1_555 1_555
H6_6 C8_6 1_555 1_555
Cd3_9 N4_5 1_555 1_555
O2_6 C34_6 1_555 1_555
O3_6 C35_6 1_555 1_555
N4_5 C10_6 1_555 1_555
N12_6 H7_6 1_555 1_555
N13_6 H8_6 1_555 1_555
C10_6 H13_6 1_555 1_555
C15_6 C10_6 1_555 1_555
H18_6 C15_6 1_555 1_555
C19_6 N12_6 1_555 1_555
C20_6 N13_6 1_555 1_555
C24_6 C19_6 1_555 1_555
C25_6 C20_6 1_555 1_555
H22_6 C24_6 1_555 1_555
H23_6 C25_6 1_555 1_555
C29_6 N11_3 1_555 1_555
C30_6 N4_5 1_555 1_555
H27_6 C29_6 1_555 1_555
H28_6 C30_6 1_555 1_555
C34_6 N12_6 1_555 1_555
C35_6 N13_6 1_555 1_555
C39_6 C8_6 1_555 1_555
C40_6 C35_6 1_555 1_555
C44_6 C39_6 1_555 1_555
C45_6 C7_6 1_555 1_555
H32_6 C45_6 1_555 1_555
H33_6 C44_6 1_555 1_555
C2_6 C3_6 1_555 1_555
C4_6 C5_6 1_555 1_555
C14_6 C19_6 1_555 1_555
C15_6 C20_6 1_555 1_555
C24_6 C29_6 1_555 1_555
C25_6 C30_6 1_555 1_555
C34_6 C39_6 1_555 1_555
C40_6 C44_6 1_555 1_555
C40_6 C45_6 1_555 1_555
N9_6 Cd5_3 1_555 1_555
N10_6 Cd5_3 1_555 1_555
N8_6 Cd5_4 1_555 1_555
C9_7 H12_7 1_555 1_555
Cd5_6 N1_6 1_555 1_555
O1_7 C6_7 1_555 1_555
N1_6 C1_7 1_555 1_555
N2_7 H1_7 1_555 1_555
C1_7 H2_7 1_555 1_555
C2_7 C1_7 1_555 1_555
H3_7 C2_7 1_555 1_555
C3_7 N2_7 1_555 1_555
C4_7 C3_7 1_555 1_555
H4_7 C4_7 1_555 1_555
C5_7 N1_6 1_555 1_555
H5_7 C5_7 1_555 1_555
C6_7 N2_7 1_555 1_555
C7_7 C6_7 1_555 1_555
C8_7 C7_7 1_555 1_555
H6_7 C8_7 1_555 1_555
Cd3_9 N4_6 1_555 1_555
O2_7 C34_7 1_555 1_555
O3_7 C35_7 1_555 1_555
N4_6 C10_7 1_555 1_555
N12_7 H7_7 1_555 1_555
N13_7 H8_7 1_555 1_555
C10_7 H13_7 1_555 1_555
C15_7 C10_7 1_555 1_555
H18_7 C15_7 1_555 1_555
C19_7 N12_7 1_555 1_555
C20_7 N13_7 1_555 1_555
C24_7 C19_7 1_555 1_555
C25_7 C20_7 1_555 1_555
H22_7 C24_7 1_555 1_555
H23_7 C25_7 1_555 1_555
C29_7 N11_4 1_555 1_555
C30_7 N4_6 1_555 1_555
H27_7 C29_7 1_555 1_555
H28_7 C30_7 1_555 1_555
C34_7 N12_7 1_555 1_555
C35_7 N13_7 1_555 1_555
C39_7 C8_7 1_555 1_555
C40_7 C35_7 1_555 1_555
C44_7 C39_7 1_555 1_555
C45_7 C7_7 1_555 1_555
H32_7 C45_7 1_555 1_555
H33_7 C44_7 1_555 1_555
C2_7 C3_7 1_555 1_555
C4_7 C5_7 1_555 1_555
C14_7 C19_7 1_555 1_555
C15_7 C20_7 1_555 1_555
C24_7 C29_7 1_555 1_555
C25_7 C30_7 1_555 1_555
C34_7 C39_7 1_555 1_555
C40_7 C44_7 1_555 1_555
C40_7 C45_7 1_555 1_555
Cd3_9 N7_4 1_555 1_555
O4_6 C36_6 1_555 1_555
O5_6 C37_6 1_555 1_555
O6_6 C38_6 1_555 1_555
N7_4 C13_6 1_555 1_555
N14_6 H9_6 1_555 1_555
N15_6 H10_6 1_555 1_555
N16_6 H11_6 1_555 1_555
C11_6 N9_5 1_555 1_555
C13_6 H16_6 1_555 1_555
H14_6 C11_6 1_555 1_555
C16_6 C11_6 1_555 1_555
C18_6 C13_6 1_555 1_555
H19_6 C16_6 1_555 1_555
H21_6 C18_6 1_555 1_555
C21_6 N14_6 1_555 1_555
C22_6 N15_6 1_555 1_555
C23_6 N16_6 1_555 1_555
C26_6 C21_6 1_555 1_555
C27_6 C22_6 1_555 1_555
C28_6 C23_6 1_555 1_555
H24_6 C26_6 1_555 1_555
H25_6 C27_6 1_555 1_555
H26_6 C28_6 1_555 1_555
C31_6 N9_5 1_555 1_555
C32_6 N8_4 1_555 1_555
C33_6 N7_4 1_555 1_555
H29_6 C31_6 1_555 1_555
H30_6 C32_6 1_555 1_555
H31_6 C33_6 1_555 1_555
C36_6 N14_6 1_555 1_555
C37_6 N15_6 1_555 1_555
C38_6 N16_6 1_555 1_555
C41_6 C36_6 1_555 1_555
C42_6 C37_6 1_555 1_555
C43_6 C38_6 1_555 1_555
C46_6 C41_6 1_555 1_555
C47_6 C42_6 1_555 1_555
C48_6 C41_6 1_555 1_555
H34_6 C46_6 1_555 1_555
H35_6 C48_6 1_555 1_555
H36_6 C47_6 1_555 1_555
C16_6 C21_6 1_555 1_555
C17_6 C22_6 1_555 1_555
C18_6 C23_6 1_555 1_555
C26_6 C31_6 1_555 1_555
C27_6 C32_6 1_555 1_555
C28_6 C33_6 1_555 1_555
C42_6 C46_6 1_555 1_555
C43_6 C47_6 1_555 1_555
C43_6 C48_6 1_555 1_555
C12_6 H15_6 1_555 1_555
O1_8 C6_8 1_555 1_555
N2_8 H1_8 1_555 1_555
C3_8 N2_8 1_555 1_555
C4_8 C3_8 1_555 1_555
H4_8 C4_8 1_555 1_555
C5_8 N10_6 1_555 1_555
H5_8 C5_8 1_555 1_555
C6_8 N2_8 1_555 1_555
C7_8 C6_8 1_555 1_555
C8_8 C7_8 1_555 1_555
H6_8 C8_8 1_555 1_555
O2_8 C34_8 1_555 1_555
O3_8 C35_8 1_555 1_555
N12_8 H7_8 1_555 1_555
N13_8 H8_8 1_555 1_555
C19_8 N12_8 1_555 1_555
C20_8 N13_8 1_555 1_555
C24_8 C19_8 1_555 1_555
C25_8 C20_8 1_555 1_555
H22_8 C24_8 1_555 1_555
H23_8 C25_8 1_555 1_555
C29_8 N10_4 1_555 1_555
C30_8 N10_5 1_555 1_555
H27_8 C29_8 1_555 1_555
H28_8 C30_8 1_555 1_555
C34_8 N12_8 1_555 1_555
C35_8 N13_8 1_555 1_555
C39_8 C8_8 1_555 1_555
C40_8 C35_8 1_555 1_555
C44_8 C39_8 1_555 1_555
C45_8 C7_8 1_555 1_555
H32_8 C45_8 1_555 1_555
H33_8 C44_8 1_555 1_555
C2_8 C3_8 1_555 1_555
C4_8 C5_8 1_555 1_555
C14_8 C19_8 1_555 1_555
C15_8 C20_8 1_555 1_555
C24_8 C29_8 1_555 1_555
C25_8 C30_8 1_555 1_555
C34_8 C39_8 1_555 1_555
C40_8 C44_8 1_555 1_555
C40_8 C45_8 1_555 1_555
C1_8 H2_8 1_555 1_555
Cd3_9 N6_4 1_555 1_555
O4_7 C36_7 1_555 1_555
O5_7 C37_7 1_555 1_555
O6_7 C38_7 1_555 1_555
N6_4 C12_7 1_555 1_555
N9_4 C13_7 1_555 1_555
N14_7 H9_7 1_555 1_555
N15_7 H10_7 1_555 1_555
N16_7 H11_7 1_555 1_555
C12_7 H15_7 1_555 1_555
C13_7 H16_7 1_555 1_555
C17_7 C12_7 1_555 1_555
C18_7 C13_7 1_555 1_555
H20_7 C17_7 1_555 1_555
H21_7 C18_7 1_555 1_555
C21_7 N14_7 1_555 1_555
C22_7 N15_7 1_555 1_555
C23_7 N16_7 1_555 1_555
C26_7 C21_7 1_555 1_555
C27_7 C22_7 1_555 1_555
C28_7 C23_7 1_555 1_555
H24_7 C26_7 1_555 1_555
H25_7 C27_7 1_555 1_555
H26_7 C28_7 1_555 1_555
C31_7 N8_6 1_555 1_555
C32_7 N6_4 1_555 1_555
C33_7 N9_4 1_555 1_555
H29_7 C31_7 1_555 1_555
H30_7 C32_7 1_555 1_555
H31_7 C33_7 1_555 1_555
C36_7 N14_7 1_555 1_555
C37_7 N15_7 1_555 1_555
C38_7 N16_7 1_555 1_555
C41_7 C36_7 1_555 1_555
C42_7 C37_7 1_555 1_555
C43_7 C38_7 1_555 1_555
C46_7 C41_7 1_555 1_555
C47_7 C42_7 1_555 1_555
C48_7 C41_7 1_555 1_555
H34_7 C46_7 1_555 1_555
H35_7 C48_7 1_555 1_555
H36_7 C47_7 1_555 1_555
C16_7 C21_7 1_555 1_555
C17_7 C22_7 1_555 1_555
C18_7 C23_7 1_555 1_555
C26_7 C31_7 1_555 1_555
C27_7 C32_7 1_555 1_555
C28_7 C33_7 1_555 1_555
C42_7 C46_7 1_555 1_555
C43_7 C47_7 1_555 1_555
C43_7 C48_7 1_555 1_555
C10_8 H13_8 1_555 1_555
C9_8 H12_8 1_555 1_555
H14_7 C11_7 1_555 1_555
O4_8 C36_8 1_555 1_555
O5_8 C37_8 1_555 1_555
O6_8 C38_8 1_555 1_555
N5_4 Cd3_9 1_555 1_555
N9_6 C12_8 1_555 1_555
N14_8 H9_8 1_555 1_555
N15_8 H10_8 1_555 1_555
N16_8 H11_8 1_555 1_555
C11_8 N5_4 1_555 1_555
C12_8 H15_8 1_555 1_555
H14_8 C11_8 1_555 1_555
C16_8 C11_8 1_555 1_555
C17_8 C12_8 1_555 1_555
H19_8 C16_8 1_555 1_555
H20_8 C17_8 1_555 1_555
C21_8 N14_8 1_555 1_555
C22_8 N15_8 1_555 1_555
C23_8 N16_8 1_555 1_555
C26_8 C21_8 1_555 1_555
C27_8 C22_8 1_555 1_555
C28_8 C23_8 1_555 1_555
H24_8 C26_8 1_555 1_555
H25_8 C27_8 1_555 1_555
H26_8 C28_8 1_555 1_555
C31_8 N5_4 1_555 1_555
C32_8 N9_6 1_555 1_555
C33_8 N8_5 1_555 1_555
H29_8 C31_8 1_555 1_555
H30_8 C32_8 1_555 1_555
H31_8 C33_8 1_555 1_555
C36_8 N14_8 1_555 1_555
C37_8 N15_8 1_555 1_555
C38_8 N16_8 1_555 1_555
C41_8 C36_8 1_555 1_555
C42_8 C37_8 1_555 1_555
C43_8 C38_8 1_555 1_555
C46_8 C41_8 1_555 1_555
C47_8 C42_8 1_555 1_555
C48_8 C41_8 1_555 1_555
H34_8 C46_8 1_555 1_555
H35_8 C48_8 1_555 1_555
H36_8 C47_8 1_555 1_555
C16_8 C21_8 1_555 1_555
C17_8 C22_8 1_555 1_555
C18_8 C23_8 1_555 1_555
C26_8 C31_8 1_555 1_555
C27_8 C32_8 1_555 1_555
C28_8 C33_8 1_555 1_555
C42_8 C46_8 1_555 1_555
C43_8 C47_8 1_555 1_555
C43_8 C48_8 1_555 1_555
C13_8 H16_8 1_555 1_555
Cl1 O7 1_555 1_555
O8 Cl1 1_555 1_555
O9 Cl1 1_555 1_555
O10 Cl1 1_555 1_555
Cl1_2 O7_2 1_555 1_555
O8_2 Cl1_2 1_555 1_555
O9_2 Cl1_2 1_555 1_555
O10_2 Cl1_2 1_555 1_555
Cl1_3 O7_3 1_555 1_555
O8_3 Cl1_3 1_555 1_555
O9_3 Cl1_3 1_555 1_555
O10_3 Cl1_3 1_555 1_555
Cl1_4 O7_4 1_555 1_555
O10_4 Cl1_4 1_555 1_555
O8_4 Cl1_5 1_555 1_555
O9_4 Cl1_5 1_555 1_555
Cl1_6 O7_5 1_555 1_555
O10_5 Cl1_6 1_555 1_555
O8_5 Cl1_7 1_555 1_555
O9_5 Cl1_7 1_555 1_555
Cl1_8 O7_6 1_555 1_555
O10_6 Cl1_8 1_555 1_555
O8_6 Cl1_9 1_555 1_555
O9_6 Cl1_9 1_555 1_555
Cl1_10 O7_7 1_555 1_555
O8_7 Cl1_10 1_555 1_555
O9_7 Cl1_10 1_555 1_555
O10_7 Cl1_10 1_555 1_555
Cl1_11 O7_8 1_555 1_555
O10_8 Cl1_11 1_555 1_555
O8_8 Cl1_12 1_555 1_555
O9_8 Cl1_12 1_555 1_555
Cl1_13 O7_9 1_555 1_555
O8_9 Cl1_13 1_555 1_555
O9_9 Cl1_13 1_555 1_555
O10_9 Cl1_13 1_555 1_555
Cl1_14 O7_10 1_555 1_555
O10_10 Cl1_14 1_555 1_555
O8_10 Cl1_15 1_555 1_555
O9_10 Cl1_15 1_555 1_555
Cl1_16 O7_11 1_555 1_555
O8_11 Cl1_16 1_555 1_555
O9_11 Cl1_16 1_555 1_555
O10_11 Cl1_16 1_555 1_555
Cl1_17 O7_12 1_555 1_555
O10_12 Cl1_17 1_555 1_555
O8_12 Cl1_18 1_555 1_555
O9_12 Cl1_18 1_555 1_555
Cl1_19 O7_13 1_555 1_555
O8_13 Cl1_19 1_555 1_555
O9_13 Cl1_19 1_555 1_555
O10_13 Cl1_19 1_555 1_555
Cl1_20 O7_14 1_555 1_555
O8_14 Cl1_20 1_555 1_555
O9_14 Cl1_20 1_555 1_555
O10_14 Cl1_20 1_555 1_555
Cl1_21 O7_15 1_555 1_555
O8_15 Cl1_21 1_555 1_555
O9_15 Cl1_21 1_555 1_555
O10_15 Cl1_21 1_555 1_555
O8_16 Cl1_22 1_555 1_555
O9_16 Cl1_22 1_555 1_555
Cl1_23 O7_16 1_555 1_555
O10_16 Cl1_23 1_555 1_555
O8_17 Cl1_24 1_555 1_555
O9_17 Cl1_24 1_555 1_555
Cl1_25 O7_17 1_555 1_555
O10_17 Cl1_25 1_555 1_555
O8_18 Cl1_26 1_555 1_555
O9_18 Cl1_26 1_555 1_555
Cl1_27 O7_18 1_555 1_555
O10_18 Cl1_27 1_555 1_555
Cl1_28 O7_19 1_555 1_555
O8_19 Cl1_28 1_555 1_555
O9_19 Cl1_28 1_555 1_555
O10_19 Cl1_28 1_555 1_555
O8_20 Cl1_29 1_555 1_555
O9_20 Cl1_29 1_555 1_555
Cl1_30 O7_20 1_555 1_555
O10_20 Cl1_30 1_555 1_555
Cl1_31 O7_21 1_555 1_555
O8_21 Cl1_31 1_555 1_555
O9_21 Cl1_31 1_555 1_555
O10_21 Cl1_31 1_555 1_555
O8_22 Cl1_32 1_555 1_555
O9_22 Cl1_32 1_555 1_555
Cl1_33 O7_22 1_555 1_555
O10_22 Cl1_33 1_555 1_555
Cl1_34 O7_23 1_555 1_555
O8_23 Cl1_34 1_555 1_555
O9_23 Cl1_34 1_555 1_555
O10_23 Cl1_34 1_555 1_555
O8_24 Cl1_35 1_555 1_555
O9_24 Cl1_35 1_555 1_555
Cl1_36 O7_24 1_555 1_555
O10_24 Cl1_36 1_555 1_555

#END
