
###############################################################################
#
# This file contains modified crystal structure data generated from the
# MOF subset of the Cambridge Structural Database (CSD) v543 
# hosted by the Cambridge Crystallographic Data Centre (CCDC).
#
# This work is licensed under the Creative Commons
# Attribution-NonCommercial-ShareAlike 4.0 International License.
# To view a copy of this license, visit
# http://creativecommons.org/licenses/by-nc-sa/4.0/
# or send a letter to
# Creative Commons, PO Box 1866, Mountain View, CA 94042, USA.
#
# CIF created using the CSD Python API on 29 September 2022
# The structure has been converted into the P1 space group
# The structure has a 3D framework
# The original CSD entry SOCPEI is in the monoclinic crystal system
# The framework has been calculated to contain at least 10.0% void space
# The void calculation uses a probe of radius 1.32A, grid spacing 0.4
# The framework is charged, counterions have been retained in the structure
#
###############################################################################

data_SOCPEI
_chemical_formula_moiety         '(C384 H344 N48 Ni8 O92 P32 Zn8 4-)n'
_symmetry_cell_setting           triclinic
_symmetry_space_group_name_H-M   'P 1'
_symmetry_Int_Tables_number      1
_space_group_name_Hall           'P 1'
loop_
_symmetry_equiv_pos_site_id
_symmetry_equiv_pos_as_xyz
1 x,y,z
_cell_length_a                   31.250(3)
_cell_length_b                   24.893(2)
_cell_length_c                   18.6983(15)
_cell_angle_alpha                90
_cell_angle_beta                 118.081(4)
_cell_angle_gamma                90
_cell_volume                     12833.3
loop_
_atom_site_label
_atom_site_type_symbol
_atom_site_fract_x
_atom_site_fract_y
_atom_site_fract_z
N1 N 0.3188(3) 0.7850(3) 0.4034(4)
H1 H 0.3195 0.7641 0.4439
H2 H 0.2898 0.7791 0.3587
C1 C 0.3202(4) 0.8434(4) 0.4280(6)
H3 H 0.2956 0.8494 0.4458
H4 H 0.3134 0.8666 0.3816
H5 H 0.3524 0.8518 0.4726
C2 C 0.3567(4) 0.7665(4) 0.3858(7)
H6 H 0.3878 0.7822 0.4249
H7 H 0.3493 0.7776 0.3309
H8 H 0.3588 0.7273 0.3898
N1_2 N 0.6812(3) 0.7850(3) 0.0966(4)
H1_2 H 0.6805 0.7641 0.0561
H2_2 H 0.7102 0.7791 0.1413
C1_2 C 0.6798(4) 0.8434(4) 0.0720(6)
H3_2 H 0.7044 0.8494 0.0542
H4_2 H 0.6866 0.8666 0.1184
H5_2 H 0.6476 0.8518 0.0274
C2_2 C 0.6433(4) 0.7665(4) 0.1142(7)
H6_2 H 0.6122 0.7822 0.0751
H7_2 H 0.6507 0.7776 0.1691
H8_2 H 0.6412 0.7273 0.1102
N1_3 N 0.8188(3) 0.2850(3) 0.4034(4)
H1_3 H 0.8195 0.2641 0.4439
H2_3 H 0.7898 0.2791 0.3587
C1_3 C 0.8202(4) 0.3434(4) 0.4280(6)
H3_3 H 0.7956 0.3494 0.4458
H4_3 H 0.8134 0.3666 0.3816
H5_3 H 0.8524 0.3518 0.4726
C2_3 C 0.8567(4) 0.2665(4) 0.3858(7)
H6_3 H 0.8878 0.2822 0.4249
H7_3 H 0.8493 0.2776 0.3309
H8_3 H 0.8588 0.2273 0.3898
N1_4 N 0.1812(3) 0.2850(3) 0.0966(4)
H1_4 H 0.1805 0.2641 0.0561
H2_4 H 0.2102 0.2791 0.1413
C1_4 C 0.1798(4) 0.3434(4) 0.0720(6)
H3_4 H 0.2044 0.3494 0.0542
H4_4 H 0.1866 0.3666 0.1184
H5_4 H 0.1476 0.3518 0.0274
C2_4 C 0.1433(4) 0.2665(4) 0.1142(7)
H6_4 H 0.1122 0.2822 0.0751
H7_4 H 0.1507 0.2776 0.1691
H8_4 H 0.1412 0.2273 0.1102
N1_5 N 0.6812(3) 0.2150(3) 0.5966(4)
H1_5 H 0.6805 0.2359 0.5561
H2_5 H 0.7102 0.2209 0.6413
C1_5 C 0.6798(4) 0.1566(4) 0.5720(6)
H3_5 H 0.7044 0.1506 0.5542
H4_5 H 0.6866 0.1334 0.6184
H5_5 H 0.6476 0.1482 0.5274
C2_5 C 0.6433(4) 0.2335(4) 0.6142(7)
H6_5 H 0.6122 0.2178 0.5751
H7_5 H 0.6507 0.2224 0.6691
H8_5 H 0.6412 0.2727 0.6102
N1_6 N 0.3188(3) 0.2150(3) 0.9034(4)
H1_6 H 0.3195 0.2359 0.9439
H2_6 H 0.2898 0.2209 0.8587
C1_6 C 0.3202(4) 0.1566(4) 0.9280(6)
H3_6 H 0.2956 0.1506 0.9458
H4_6 H 0.3134 0.1334 0.8816
H5_6 H 0.3524 0.1482 0.9726
C2_6 C 0.3567(4) 0.2335(4) 0.8858(7)
H6_6 H 0.3878 0.2178 0.9249
H7_6 H 0.3493 0.2224 0.8309
H8_6 H 0.3588 0.2727 0.8898
N1_7 N 0.1812(3) 0.7150(3) 0.5966(4)
H1_7 H 0.1805 0.7359 0.5561
H2_7 H 0.2102 0.7209 0.6413
C1_7 C 0.1798(4) 0.6566(4) 0.5720(6)
H3_7 H 0.2044 0.6506 0.5542
H4_7 H 0.1866 0.6334 0.6184
H5_7 H 0.1476 0.6482 0.5274
C2_7 C 0.1433(4) 0.7335(4) 0.6142(7)
H6_7 H 0.1122 0.7178 0.5751
H7_7 H 0.1507 0.7224 0.6691
H8_7 H 0.1412 0.7727 0.6102
N1_8 N 0.8188(3) 0.7150(3) 0.9034(4)
H1_8 H 0.8195 0.7359 0.9439
H2_8 H 0.7898 0.7209 0.8587
C1_8 C 0.8202(4) 0.6566(4) 0.9280(6)
H3_8 H 0.7956 0.6506 0.9458
H4_8 H 0.8134 0.6334 0.8816
H5_8 H 0.8524 0.6482 0.9726
C2_8 C 0.8567(4) 0.7335(4) 0.8858(7)
H6_8 H 0.8878 0.7178 0.9249
H7_8 H 0.8493 0.7224 0.8309
H8_8 H 0.8588 0.7727 0.8898
N2 N 0.4960(10) 0.9070(10) 0.6574(12)
H9 H 0.5266 0.8988 0.6959
H10 H 0.4754 0.8987 0.6775
C3 C 0.4930(13) 0.9668(9) 0.6399(19)
H11 H 0.4598 0.9728 0.6209
H12 H 0.5139 0.9698 0.6379
H13 H 0.5020 0.9757 0.7101
C4 C 0.4837(4) 0.8747(5) 0.5851(7)
H14 H 0.4856 0.8365 0.5990
H15 H 0.5066 0.8826 0.5644
H16 H 0.4507 0.8834 0.5435
N2_2 N 0.5040(10) 0.9070(10) 0.8426(12)
H9_2 H 0.4734 0.8988 0.8041
H10_2 H 0.5246 0.8987 0.8225
C3_2 C 0.5070(13) 0.9668(9) 0.8601(19)
H11_2 H 0.5402 0.9728 0.8791
H12_2 H 0.4861 0.9698 0.8621
H13_2 H 0.4980 0.9757 0.7899
C4_2 C 0.5163(4) 0.8747(5) 0.9149(7)
H14_2 H 0.5144 0.8365 0.9010
H15_2 H 0.4934 0.8826 0.9356
H16_2 H 0.5493 0.8834 0.9565
H9_3 H 0.0266 0.3988 0.6959
H12_3 H 0.0139 0.4698 0.6379
H13_3 H 0.0020 0.4757 0.7101
H15_3 H 0.0066 0.3826 0.5644
N2_3 N 0.9960(10) 0.4070(10) 0.6574(12)
H10_3 H 0.9754 0.3987 0.6775
C3_3 C 0.9930(13) 0.4668(9) 0.6399(19)
H11_3 H 0.9598 0.4728 0.6209
C4_3 C 0.9837(4) 0.3747(5) 0.5851(7)
H14_3 H 0.9856 0.3365 0.5990
H16_3 H 0.9507 0.3834 0.5435
N2_4 N 0.0040(10) 0.4070(10) 0.8426(12)
H10_4 H 0.0246 0.3987 0.8225
C3_4 C 0.0070(13) 0.4668(9) 0.8601(19)
H11_4 H 0.0402 0.4728 0.8791
C4_4 C 0.0163(4) 0.3747(5) 0.9149(7)
H14_4 H 0.0144 0.3365 0.9010
H16_4 H 0.0493 0.3834 0.9565
H9_4 H 0.9734 0.3988 0.8041
H12_4 H 0.9861 0.4698 0.8621
H13_4 H 0.9980 0.4757 0.7899
H15_4 H 0.9934 0.3826 0.9356
N2_5 N 0.5040(10) 0.0930(10) 0.3426(12)
H9_5 H 0.4734 0.1012 0.3041
H10_5 H 0.5246 0.1013 0.3225
C3_5 C 0.5070(13) 0.0332(9) 0.3601(19)
H11_5 H 0.5402 0.0272 0.3791
H12_5 H 0.4861 0.0302 0.3621
H13_5 H 0.4980 0.0243 0.2899
C4_5 C 0.5163(4) 0.1253(5) 0.4149(7)
H14_5 H 0.5144 0.1635 0.4010
H15_5 H 0.4934 0.1174 0.4356
H16_5 H 0.5493 0.1166 0.4565
N2_6 N 0.4960(10) 0.0930(10) 0.1574(12)
H9_6 H 0.5266 0.1012 0.1959
H10_6 H 0.4754 0.1013 0.1775
C3_6 C 0.4930(13) 0.0332(9) 0.1399(19)
H11_6 H 0.4598 0.0272 0.1209
H12_6 H 0.5139 0.0302 0.1379
H13_6 H 0.5020 0.0243 0.2101
C4_6 C 0.4837(4) 0.1253(5) 0.0851(7)
H14_6 H 0.4856 0.1635 0.0990
H15_6 H 0.5066 0.1174 0.0644
H16_6 H 0.4507 0.1166 0.0435
N2_7 N 0.0040(10) 0.5930(10) 0.3426(12)
H10_7 H 0.0246 0.6013 0.3225
C3_7 C 0.0070(13) 0.5332(9) 0.3601(19)
H11_7 H 0.0402 0.5272 0.3791
C4_7 C 0.0163(4) 0.6253(5) 0.4149(7)
H14_7 H 0.0144 0.6635 0.4010
H16_7 H 0.0493 0.6166 0.4565
H9_7 H 0.9734 0.6012 0.3041
H12_7 H 0.9861 0.5302 0.3621
H13_7 H 0.9980 0.5243 0.2899
H15_7 H 0.9934 0.6174 0.4356
H9_8 H 0.0266 0.6012 0.1959
H12_8 H 0.0139 0.5302 0.1379
H13_8 H 0.0020 0.5243 0.2101
H15_8 H 0.0066 0.6174 0.0644
N2_8 N 0.9960(10) 0.5930(10) 0.1574(12)
H10_8 H 0.9754 0.6013 0.1775
C3_8 C 0.9930(13) 0.5332(9) 0.1399(19)
H11_8 H 0.9598 0.5272 0.1209
C4_8 C 0.9837(4) 0.6253(5) 0.0851(7)
H14_8 H 0.9856 0.6635 0.0990
H16_8 H 0.9507 0.6166 0.0435
Zn1 Zn 0.77950(3) 0.30213(3) 0.61653(4)
O1 O 0.74786(14) 0.30757(17) 0.6843(2)
O2 O 0.73847(14) 0.32923(16) 0.5082(2)
O3 O 0.78785(14) 0.22492(16) 0.6194(2)
O4 O 0.83662(14) 0.34665(16) 0.6548(2)
P1 P 0.74000(6) 0.34778(7) 0.73711(10)
O5 O 0.72374(15) 0.31998(17) 0.7931(2)
O6 O 0.78499(14) 0.38278(17) 0.7856(2)
C5 C 0.6929(2) 0.3917(2) 0.6713(4)
H17 H 0.8027 0.3761 0.8330
C6 C 0.6606(2) 0.4146(3) 0.6942(4)
C7 C 0.6864(3) 0.4049(3) 0.5952(4)
C8 C 0.6255(2) 0.4498(3) 0.6430(4)
H18 H 0.6627 0.4060 0.7453
H19 H 0.7072 0.3889 0.5770
C9 C 0.6510(3) 0.4403(3) 0.5440(4)
C10 C 0.6205(2) 0.4642(2) 0.5687(3)
H20 H 0.6039 0.4648 0.6601
H21 H 0.6479 0.4480 0.4920
C11 C 0.5822(2) 0.5019(2) 0.5139(3)
C12 C 0.5417(2) 0.4816(2) 0.4495(3)
C13 C 0.5872(2) 0.5555(2) 0.5335(3)
N3 N 0.50686(15) 0.51214(19) 0.3882(3)
C14 C 0.5289(2) 0.4260(2) 0.4380(4)
N4 N 0.55322(16) 0.59453(19) 0.4904(3)
C15 C 0.6237(2) 0.5775(2) 0.6082(3)
Ni1 Ni 0.49952(3) 0.58887(3) 0.38283(4)
C16 C 0.4740(2) 0.4750(2) 0.3370(3)
C17 C 0.4868(2) 0.4217(3) 0.3705(4)
H22 H 0.5470 0.3973 0.4724
C18 C 0.5668(2) 0.6384(2) 0.5405(3)
H23 H 0.6520 0.5595 0.6468
C19 C 0.6109(2) 0.6281(3) 0.6140(3)
N5 N 0.48747(17) 0.66483(19) 0.3821(3)
N6 N 0.44920(16) 0.5843(2) 0.2717(3)
C20 C 0.4361(2) 0.4864(2) 0.2604(3)
H24 H 0.4688 0.3898 0.3486
C21 C 0.5420(2) 0.6863(2) 0.5245(3)
H25 H 0.6277 0.6523 0.6578
C22 C 0.4570(2) 0.6968(3) 0.3169(3)
C23 C 0.5044(2) 0.6995(3) 0.4480(3)
C24 C 0.4290(2) 0.6261(3) 0.2180(3)
C25 C 0.42818(19) 0.5381(2) 0.2283(3)
C26 C 0.4040(2) 0.4420(2) 0.2108(3)
C27 C 0.5570(2) 0.7266(2) 0.5920(3)
C28 C 0.4320(2) 0.6794(3) 0.2377(3)
C29 C 0.4544(2) 0.7493(3) 0.3435(4)
C30 C 0.4825(2) 0.7512(3) 0.4240(4)
C31 C 0.3974(2) 0.6049(3) 0.1383(3)
C32 C 0.3964(2) 0.5513(3) 0.1464(3)
C33 C 0.3547(2) 0.4422(3) 0.1881(3)
C34 C 0.4214(2) 0.3984(3) 0.1868(4)
C35 C 0.5962(2) 0.7602(3) 0.6141(4)
C36 C 0.5331(2) 0.7279(3) 0.6385(4)
C37 C 0.4035(2) 0.7194(3) 0.1733(3)
H26 H 0.4359 0.7782 0.3101
H27 H 0.4870 0.7812 0.4584
H28 H 0.3806 0.6250 0.0896
H29 H 0.3777 0.5266 0.1045
H30 H 0.3413 0.4717 0.2030
C38 C 0.3250(2) 0.4003(3) 0.1444(3)
C39 C 0.3921(2) 0.3573(3) 0.1431(4)
H31 H 0.4549 0.3970 0.2014
H32 H 0.6126 0.7606 0.5824
C40 C 0.6122(2) 0.7931(3) 0.6803(4)
C41 C 0.5495(2) 0.7600(3) 0.7059(4)
H33 H 0.5051 0.7064 0.6234
C42 C 0.4256(2) 0.7518(3) 0.1428(4)
C43 C 0.3550(3) 0.7250(4) 0.1466(5)
H34 H 0.2916 0.4012 0.1307
C44 C 0.3426(2) 0.3574(3) 0.1204(3)
H35 H 0.4055 0.3280 0.1277
H36 H 0.6392 0.8160 0.6937
C45 C 0.5894(2) 0.7930(3) 0.7272(3)
H37 H 0.5334 0.7596 0.7382
H38 H 0.4594 0.7482 0.1615
C46 C 0.3997(3) 0.7905(3) 0.0847(4)
C47 C 0.3293(3) 0.7632(4) 0.0893(5)
H39 H 0.3389 0.7026 0.1677
P2 P 0.30424(6) 0.30319(7) 0.06371(10)
P3 P 0.61018(6) 0.83486(8) 0.81573(10)
H40 H 0.4159 0.8125 0.0635
C48 C 0.3511(2) 0.7969(3) 0.0579(4)
H41 H 0.2954 0.7664 0.0707
O7 O 0.33356(15) 0.26599(17) 0.0386(2)
O8 O 0.57927(16) 0.88398(19) 0.7955(3)
O9 O 0.60212(15) 0.80150(19) 0.8785(2)
H42 H 0.6147 0.7803 0.9164
O12 O 0.3245(2) 0.8997(2) 0.0413(3)
O14 O 0.28785(14) 0.27508(16) 0.1194(2)
O15 O 0.66338(14) 0.84665(16) 0.8452(2)
Zn3 Zn 0.27950(3) 0.19787(3) 0.11653(4)
Zn4 Zn 0.72050(3) 0.80213(3) 0.88347(4)
P4 P 0.31809(8) 0.85072(9) 0.98958(12)
O10 O 0.34015(16) 0.8580(2) 0.9319(3)
O11 O 0.26500(16) 0.8340(2) 0.9440(3)
H43 H 0.2494 0.8458 0.8985
O13 O 0.26153(14) 0.32923(16) 0.9918(2)
Zn2 Zn 0.22050(3) 0.30213(3) 0.88347(4)
H21_2 H 0.3521 0.4480 0.0080
C12_2 C 0.4583(2) 0.4816(2) 0.0505(3)
N3_2 N 0.49314(15) 0.51214(19) 0.1118(3)
C14_2 C 0.4711(2) 0.4260(2) 0.0620(4)
N4_2 N 0.44678(16) 0.59453(19) 0.0096(3)
Ni1_2 Ni 0.50048(3) 0.58887(3) 0.11717(4)
C16_2 C 0.5260(2) 0.4750(2) 0.1630(3)
C17_2 C 0.5132(2) 0.4217(3) 0.1295(4)
H22_2 H 0.4530 0.3973 0.0276
N5_2 N 0.51253(17) 0.66483(19) 0.1179(3)
N6_2 N 0.55080(16) 0.5843(2) 0.2283(3)
C20_2 C 0.5639(2) 0.4864(2) 0.2396(3)
H24_2 H 0.5312 0.3898 0.1514
C22_2 C 0.5430(2) 0.6968(3) 0.1831(3)
C23_2 C 0.4956(2) 0.6995(3) 0.0520(3)
C24_2 C 0.5710(2) 0.6261(3) 0.2820(3)
C25_2 C 0.57182(19) 0.5381(2) 0.2717(3)
C26_2 C 0.5960(2) 0.4420(2) 0.2892(3)
C28_2 C 0.5680(2) 0.6794(3) 0.2623(3)
C29_2 C 0.5456(2) 0.7493(3) 0.1565(4)
C30_2 C 0.5175(2) 0.7512(3) 0.0760(4)
C31_2 C 0.6026(2) 0.6049(3) 0.3617(3)
C32_2 C 0.6036(2) 0.5513(3) 0.3536(3)
C33_2 C 0.6453(2) 0.4422(3) 0.3119(3)
C34_2 C 0.5786(2) 0.3984(3) 0.3132(4)
C37_2 C 0.5965(2) 0.7194(3) 0.3267(3)
H26_2 H 0.5641 0.7782 0.1899
H27_2 H 0.5130 0.7812 0.0416
H28_2 H 0.6194 0.6250 0.4104
H29_2 H 0.6223 0.5266 0.3955
H30_2 H 0.6587 0.4717 0.2970
C38_2 C 0.6750(2) 0.4003(3) 0.3556(3)
C39_2 C 0.6079(2) 0.3573(3) 0.3569(4)
H31_2 H 0.5451 0.3970 0.2986
C42_2 C 0.5744(2) 0.7518(3) 0.3572(4)
C43_2 C 0.6450(3) 0.7250(4) 0.3534(5)
H34_2 H 0.7084 0.4012 0.3693
C44_2 C 0.6574(2) 0.3574(3) 0.3796(3)
H35_2 H 0.5945 0.3280 0.3723
H38_2 H 0.5406 0.7482 0.3385
C46_2 C 0.6003(3) 0.7905(3) 0.4153(4)
C47_2 C 0.6707(3) 0.7632(4) 0.4107(5)
H39_2 H 0.6611 0.7026 0.3323
P2_2 P 0.69576(6) 0.30319(7) 0.43629(10)
H40_2 H 0.5841 0.8125 0.4365
C48_2 C 0.6489(2) 0.7969(3) 0.4421(4)
H41_2 H 0.7046 0.7664 0.4293
O7_2 O 0.66644(15) 0.26599(17) 0.4614(2)
P4_2 P 0.68191(8) 0.85072(9) 0.51042(12)
O10_2 O 0.65985(16) 0.8580(2) 0.5681(3)
O11_2 O 0.73500(16) 0.8340(2) 0.5560(3)
O12_2 O 0.6755(2) 0.8997(2) 0.4587(3)
H43_2 H 0.7506 0.8458 0.6015
O14_2 O 0.71215(14) 0.27508(16) 0.3806(2)
Zn3_2 Zn 0.72050(3) 0.19787(3) 0.38347(4)
O1_2 O 0.25214(14) 0.30757(17) 0.8157(2)
O3_2 O 0.21215(14) 0.22492(16) 0.8806(2)
O4_2 O 0.16338(14) 0.34665(16) 0.8452(2)
P1_2 P 0.26000(6) 0.34778(7) 0.76289(10)
O5_2 O 0.27626(15) 0.31998(17) 0.7069(2)
O6_2 O 0.21501(14) 0.38278(17) 0.7144(2)
C5_2 C 0.3071(2) 0.3917(2) 0.8287(4)
H17_2 H 0.1973 0.3761 0.6670
C6_2 C 0.3394(2) 0.4146(3) 0.8058(4)
C7_2 C 0.3136(3) 0.4049(3) 0.9048(4)
C8_2 C 0.3745(2) 0.4498(3) 0.8570(4)
H18_2 H 0.3373 0.4060 0.7547
H19_2 H 0.2928 0.3889 0.9230
C9_2 C 0.3490(3) 0.4403(3) 0.9560(4)
C10_2 C 0.3795(2) 0.4642(2) 0.9313(3)
H20_2 H 0.3961 0.4648 0.8399
C11_2 C 0.4178(2) 0.5019(2) 0.9861(3)
C13_2 C 0.4128(2) 0.5555(2) 0.9665(3)
C15_2 C 0.3763(2) 0.5775(2) 0.8918(3)
C18_2 C 0.4332(2) 0.6384(2) 0.9595(3)
H23_2 H 0.3480 0.5595 0.8532
C19_2 C 0.3891(2) 0.6281(3) 0.8860(3)
C21_2 C 0.4580(2) 0.6863(2) 0.9755(3)
H25_2 H 0.3723 0.6523 0.8422
C27_2 C 0.4430(2) 0.7266(2) 0.9080(3)
C35_2 C 0.4038(2) 0.7602(3) 0.8859(4)
C36_2 C 0.4669(2) 0.7279(3) 0.8615(4)
H32_2 H 0.3874 0.7606 0.9176
C40_2 C 0.3878(2) 0.7931(3) 0.8197(4)
C41_2 C 0.4505(2) 0.7600(3) 0.7941(4)
H33_2 H 0.4949 0.7064 0.8766
H36_2 H 0.3608 0.8160 0.8063
C45_2 C 0.4106(2) 0.7930(3) 0.7728(3)
H37_2 H 0.4666 0.7596 0.7618
P3_2 P 0.38982(6) 0.83486(8) 0.68427(10)
O8_2 O 0.42073(16) 0.88398(19) 0.7045(3)
O9_2 O 0.39788(15) 0.80150(19) 0.6215(2)
H42_2 H 0.3853 0.7803 0.5836
O15_2 O 0.33662(14) 0.84665(16) 0.6548(2)
Zn4_2 Zn 0.27950(3) 0.80213(3) 0.61653(4)
C11_3 C 0.0822(2) 0.0019(2) 0.5139(3)
C13_3 C 0.0872(2) 0.0555(2) 0.5335(3)
N3_3 N 0.00686(15) 0.01214(19) 0.3882(3)
N4_3 N 0.05322(16) 0.09453(19) 0.4904(3)
C15_3 C 0.1237(2) 0.0775(2) 0.6082(3)
C18_3 C 0.0668(2) 0.1384(2) 0.5405(3)
H23_3 H 0.1520 0.0595 0.6468
C19_3 C 0.1109(2) 0.1281(3) 0.6140(3)
C21_3 C 0.0420(2) 0.1863(2) 0.5245(3)
H25_3 H 0.1277 0.1523 0.6578
C23_3 C 0.0044(2) 0.1995(3) 0.4480(3)
C27_3 C 0.0570(2) 0.2266(2) 0.5920(3)
C35_3 C 0.0962(2) 0.2602(3) 0.6141(4)
C36_3 C 0.0331(2) 0.2279(3) 0.6385(4)
H32_3 H 0.1126 0.2606 0.5824
C40_3 C 0.1122(2) 0.2931(3) 0.6803(4)
C41_3 C 0.0495(2) 0.2600(3) 0.7059(4)
H33_3 H 0.0051 0.2064 0.6234
H36_3 H 0.1392 0.3160 0.6937
C45_3 C 0.0894(2) 0.2930(3) 0.7272(3)
H37_3 H 0.0334 0.2596 0.7382
P3_3 P 0.11018(6) 0.33486(8) 0.81573(10)
O8_3 O 0.07927(16) 0.38398(19) 0.7955(3)
O9_3 O 0.10212(15) 0.30150(19) 0.8785(2)
H42_3 H 0.1147 0.2803 0.9164
O1_3 O 0.24786(14) 0.80757(17) 0.6843(2)
O2_2 O 0.23847(14) 0.82923(16) 0.5082(2)
O3_3 O 0.28785(14) 0.72492(16) 0.6194(2)
P1_3 P 0.24000(6) 0.84778(7) 0.73711(10)
O5_3 O 0.22374(15) 0.81998(17) 0.7931(2)
O6_3 O 0.28499(14) 0.88278(17) 0.7856(2)
C5_3 C 0.1929(2) 0.8917(2) 0.6713(4)
H17_3 H 0.3027 0.8761 0.8330
C6_3 C 0.1606(2) 0.9146(3) 0.6942(4)
C7_3 C 0.1864(3) 0.9049(3) 0.5952(4)
C8_3 C 0.1255(2) 0.9498(3) 0.6430(4)
H18_3 H 0.1627 0.9060 0.7453
H19_3 H 0.2072 0.8889 0.5770
C9_3 C 0.1510(3) 0.9403(3) 0.5440(4)
C10_3 C 0.1205(2) 0.9642(2) 0.5687(3)
H20_3 H 0.1039 0.9648 0.6601
H21_3 H 0.1479 0.9480 0.4920
C12_3 C 0.0417(2) 0.9816(2) 0.4495(3)
C14_3 C 0.0289(2) 0.9260(2) 0.4380(4)
H22_3 H 0.0470 0.8973 0.4724
C16_3 C 0.9740(2) 0.9750(2) 0.3370(3)
C17_3 C 0.9868(2) 0.9217(3) 0.3705(4)
C20_3 C 0.9361(2) 0.9864(2) 0.2604(3)
H24_3 H 0.9688 0.8898 0.3486
C26_3 C 0.9040(2) 0.9420(2) 0.2108(3)
C33_3 C 0.8547(2) 0.9422(3) 0.1881(3)
C34_3 C 0.9214(2) 0.8984(3) 0.1868(4)
H30_3 H 0.8413 0.9717 0.2030
C38_3 C 0.8250(2) 0.9003(3) 0.1444(3)
C39_3 C 0.8921(2) 0.8573(3) 0.1431(4)
H31_3 H 0.9549 0.8970 0.2014
H34_3 H 0.7916 0.9012 0.1307
C44_3 C 0.8426(2) 0.8574(3) 0.1204(3)
H35_3 H 0.9055 0.8280 0.1277
P2_3 P 0.80424(6) 0.80319(7) 0.06371(10)
O7_3 O 0.83356(15) 0.76599(17) 0.0386(2)
O14_3 O 0.78785(14) 0.77508(16) 0.1194(2)
Zn3_3 Zn 0.77950(3) 0.69787(3) 0.11653(4)
O13_2 O 0.76153(14) 0.82923(16) 0.9918(2)
C16_4 C 0.0260(2) 0.9750(2) 0.1630(3)
C17_4 C 0.0132(2) 0.9217(3) 0.1295(4)
C20_4 C 0.0639(2) 0.9864(2) 0.2396(3)
H24_4 H 0.0312 0.8898 0.1514
C26_4 C 0.0960(2) 0.9420(2) 0.2892(3)
C33_4 C 0.1453(2) 0.9422(3) 0.3119(3)
C34_4 C 0.0786(2) 0.8984(3) 0.3132(4)
H30_4 H 0.1587 0.9717 0.2970
C38_4 C 0.1750(2) 0.9003(3) 0.3556(3)
C39_4 C 0.1079(2) 0.8573(3) 0.3569(4)
H31_4 H 0.0451 0.8970 0.2986
H34_4 H 0.2084 0.9012 0.3693
C44_4 C 0.1574(2) 0.8574(3) 0.3796(3)
H35_4 H 0.0945 0.8280 0.3723
P2_4 P 0.19576(6) 0.80319(7) 0.43629(10)
O7_4 O 0.16644(15) 0.76599(17) 0.4614(2)
O14_4 O 0.21215(14) 0.77508(16) 0.3806(2)
Zn3_4 Zn 0.22050(3) 0.69787(3) 0.38347(4)
C11_4 C 0.9178(2) 0.0019(2) 0.9861(3)
C13_4 C 0.9128(2) 0.0555(2) 0.9665(3)
C15_4 C 0.8763(2) 0.0775(2) 0.8918(3)
C18_4 C 0.9332(2) 0.1384(2) 0.9595(3)
H23_4 H 0.8480 0.0595 0.8532
C19_4 C 0.8891(2) 0.1281(3) 0.8860(3)
C21_4 C 0.9580(2) 0.1863(2) 0.9755(3)
H25_4 H 0.8723 0.1523 0.8422
C27_4 C 0.9430(2) 0.2266(2) 0.9080(3)
C35_4 C 0.9038(2) 0.2602(3) 0.8859(4)
C36_4 C 0.9669(2) 0.2279(3) 0.8615(4)
H32_4 H 0.8874 0.2606 0.9176
C40_4 C 0.8878(2) 0.2931(3) 0.8197(4)
C41_4 C 0.9505(2) 0.2600(3) 0.7941(4)
H33_4 H 0.9949 0.2064 0.8766
H36_4 H 0.8608 0.3160 0.8063
C45_4 C 0.9106(2) 0.2930(3) 0.7728(3)
H37_4 H 0.9666 0.2596 0.7618
P3_4 P 0.88982(6) 0.33486(8) 0.68427(10)
O8_4 O 0.92073(16) 0.38398(19) 0.7045(3)
O9_4 O 0.89788(15) 0.30150(19) 0.6215(2)
H42_4 H 0.8853 0.2803 0.5836
O1_4 O 0.75214(14) 0.80757(17) 0.8157(2)
O3_4 O 0.71215(14) 0.72492(16) 0.8806(2)
P1_4 P 0.76000(6) 0.84778(7) 0.76289(10)
O5_4 O 0.77626(15) 0.81998(17) 0.7069(2)
O6_4 O 0.71501(14) 0.88278(17) 0.7144(2)
C5_4 C 0.8071(2) 0.8917(2) 0.8287(4)
H17_4 H 0.6973 0.8761 0.6670
C6_4 C 0.8394(2) 0.9146(3) 0.8058(4)
C7_4 C 0.8136(3) 0.9049(3) 0.9048(4)
C8_4 C 0.8745(2) 0.9498(3) 0.8570(4)
H18_4 H 0.8373 0.9060 0.7547
H19_4 H 0.7928 0.8889 0.9230
C9_4 C 0.8490(3) 0.9403(3) 0.9560(4)
C10_4 C 0.8795(2) 0.9642(2) 0.9313(3)
H20_4 H 0.8961 0.9648 0.8399
P4_3 P 0.68191(8) 0.14928(9) 0.01042(12)
O10_3 O 0.65985(16) 0.1420(2) 0.0681(3)
O11_3 O 0.73500(16) 0.1660(2) 0.0560(3)
H43_3 H 0.7506 0.1542 0.1015
O13_3 O 0.73847(14) 0.67077(16) 0.0082(2)
O1_5 O 0.25214(14) 0.69243(17) 0.3157(2)
O2_3 O 0.26153(14) 0.67077(16) 0.4918(2)
O4_3 O 0.16338(14) 0.65335(16) 0.3452(2)
P1_5 P 0.26000(6) 0.65222(7) 0.26289(10)
O5_5 O 0.27626(15) 0.68002(17) 0.2069(2)
O6_5 O 0.21501(14) 0.61722(17) 0.2144(2)
C5_5 C 0.3071(2) 0.6083(2) 0.3287(4)
H17_5 H 0.1973 0.6239 0.1670
C6_5 C 0.3394(2) 0.5854(3) 0.3058(4)
C7_5 C 0.3136(3) 0.5951(3) 0.4048(4)
C8_5 C 0.3745(2) 0.5502(3) 0.3570(4)
H18_5 H 0.3373 0.5940 0.2547
H19_5 H 0.2928 0.6111 0.4230
C9_5 C 0.3490(3) 0.5597(3) 0.4560(4)
C10_5 C 0.3795(2) 0.5358(2) 0.4313(3)
H20_5 H 0.3961 0.5352 0.3399
H21_4 H 0.3521 0.5520 0.5080
C11_5 C 0.4178(2) 0.4981(2) 0.4861(3)
C12_4 C 0.4583(2) 0.5184(2) 0.5505(3)
C13_5 C 0.4128(2) 0.4445(2) 0.4665(3)
N3_4 N 0.49314(15) 0.48786(19) 0.6118(3)
C14_4 C 0.4711(2) 0.5740(2) 0.5620(4)
N4_4 N 0.44678(16) 0.40547(19) 0.5096(3)
C15_5 C 0.3763(2) 0.4225(2) 0.3918(3)
Ni1_3 Ni 0.50048(3) 0.41113(3) 0.61717(4)
C16_5 C 0.5260(2) 0.5250(2) 0.6630(3)
C17_5 C 0.5132(2) 0.5783(3) 0.6295(4)
H22_4 H 0.4530 0.6027 0.5276
C18_5 C 0.4332(2) 0.3616(2) 0.4595(3)
H23_5 H 0.3480 0.4405 0.3532
C19_5 C 0.3891(2) 0.3719(3) 0.3860(3)
N5_3 N 0.51253(17) 0.33517(19) 0.6179(3)
N6_3 N 0.55080(16) 0.4157(2) 0.7283(3)
C20_5 C 0.5639(2) 0.5136(2) 0.7396(3)
H24_5 H 0.5312 0.6102 0.6514
C21_5 C 0.4580(2) 0.3137(2) 0.4755(3)
H25_5 H 0.3723 0.3477 0.3422
C22_3 C 0.5430(2) 0.3032(3) 0.6831(3)
C23_4 C 0.4956(2) 0.3005(3) 0.5520(3)
C24_3 C 0.5710(2) 0.3739(3) 0.7820(3)
C25_3 C 0.57182(19) 0.4619(2) 0.7717(3)
C26_5 C 0.5960(2) 0.5580(2) 0.7892(3)
C27_5 C 0.4430(2) 0.2734(2) 0.4080(3)
C28_3 C 0.5680(2) 0.3206(3) 0.7623(3)
C29_3 C 0.5456(2) 0.2507(3) 0.6565(4)
C30_3 C 0.5175(2) 0.2488(3) 0.5760(4)
C31_3 C 0.6026(2) 0.3951(3) 0.8617(3)
C32_3 C 0.6036(2) 0.4487(3) 0.8536(3)
C33_5 C 0.6453(2) 0.5578(3) 0.8119(3)
C34_5 C 0.5786(2) 0.6016(3) 0.8132(4)
C35_5 C 0.4038(2) 0.2398(3) 0.3859(4)
C36_5 C 0.4669(2) 0.2721(3) 0.3615(4)
C37_3 C 0.5965(2) 0.2806(3) 0.8267(3)
H26_3 H 0.5641 0.2218 0.6899
H27_3 H 0.5130 0.2188 0.5416
H28_3 H 0.6194 0.3750 0.9104
H29_3 H 0.6223 0.4734 0.8955
H30_5 H 0.6587 0.5283 0.7970
C38_5 C 0.6750(2) 0.5997(3) 0.8556(3)
C39_5 C 0.6079(2) 0.6427(3) 0.8569(4)
H31_5 H 0.5451 0.6030 0.7986
H32_5 H 0.3874 0.2394 0.4176
C40_5 C 0.3878(2) 0.2069(3) 0.3197(4)
C41_5 C 0.4505(2) 0.2400(3) 0.2941(4)
H33_5 H 0.4949 0.2936 0.3766
C42_3 C 0.5744(2) 0.2482(3) 0.8572(4)
C43_3 C 0.6450(3) 0.2750(4) 0.8534(5)
H34_5 H 0.7084 0.5988 0.8693
C44_5 C 0.6574(2) 0.6426(3) 0.8796(3)
H35_5 H 0.5945 0.6720 0.8723
H36_5 H 0.3608 0.1840 0.3063
C45_5 C 0.4106(2) 0.2070(3) 0.2728(3)
H37_5 H 0.4666 0.2404 0.2618
H38_3 H 0.5406 0.2518 0.8385
C46_3 C 0.6003(3) 0.2095(3) 0.9153(4)
C47_3 C 0.6707(3) 0.2368(4) 0.9107(5)
H39_3 H 0.6611 0.2974 0.8323
P2_5 P 0.69576(6) 0.69681(7) 0.93629(10)
P3_5 P 0.38982(6) 0.16514(8) 0.18427(10)
H40_3 H 0.5841 0.1875 0.9365
C48_3 C 0.6489(2) 0.2031(3) 0.9421(4)
H41_3 H 0.7046 0.2336 0.9293
O7_5 O 0.66644(15) 0.73401(17) 0.9614(2)
O8_5 O 0.42073(16) 0.11602(19) 0.2045(3)
O9_5 O 0.39788(15) 0.19850(19) 0.1215(2)
H42_5 H 0.3853 0.2197 0.0836
O12_3 O 0.6755(2) 0.1003(2) 0.9587(3)
O15_3 O 0.33662(14) 0.15335(16) 0.1548(2)
O1_6 O 0.74786(14) 0.69243(17) 0.1843(2)
O4_4 O 0.83662(14) 0.65335(16) 0.1548(2)
P1_6 P 0.74000(6) 0.65222(7) 0.23711(10)
O5_6 O 0.72374(15) 0.68002(17) 0.2931(2)
O6_6 O 0.78499(14) 0.61722(17) 0.2856(2)
C5_6 C 0.6929(2) 0.6083(2) 0.1713(4)
H17_6 H 0.8027 0.6239 0.3330
C6_6 C 0.6606(2) 0.5854(3) 0.1942(4)
C7_6 C 0.6864(3) 0.5951(3) 0.0952(4)
C8_6 C 0.6255(2) 0.5502(3) 0.1430(4)
H18_6 H 0.6627 0.5940 0.2453
H19_6 H 0.7072 0.6111 0.0770
C9_6 C 0.6510(3) 0.5597(3) 0.0440(4)
C10_6 C 0.6205(2) 0.5358(2) 0.0687(3)
H20_6 H 0.6039 0.5352 0.1601
C11_6 C 0.5822(2) 0.4981(2) 0.0139(3)
C13_6 C 0.5872(2) 0.4445(2) 0.0335(3)
C15_6 C 0.6237(2) 0.4225(2) 0.1082(3)
C18_6 C 0.5668(2) 0.3616(2) 0.0405(3)
H23_6 H 0.6520 0.4405 0.1468
C19_6 C 0.6109(2) 0.3719(3) 0.1140(3)
C21_6 C 0.5420(2) 0.3137(2) 0.0245(3)
H25_6 H 0.6277 0.3477 0.1578
C27_6 C 0.5570(2) 0.2734(2) 0.0920(3)
C35_6 C 0.5962(2) 0.2398(3) 0.1141(4)
C36_6 C 0.5331(2) 0.2721(3) 0.1385(4)
H32_6 H 0.6126 0.2394 0.0824
C40_6 C 0.6122(2) 0.2069(3) 0.1803(4)
C41_6 C 0.5495(2) 0.2400(3) 0.2059(4)
H33_6 H 0.5051 0.2936 0.1234
H36_6 H 0.6392 0.1840 0.1937
C45_6 C 0.5894(2) 0.2070(3) 0.2272(3)
H37_6 H 0.5334 0.2404 0.2382
P3_6 P 0.61018(6) 0.16514(8) 0.31573(10)
O8_6 O 0.57927(16) 0.11602(19) 0.2955(3)
O9_6 O 0.60212(15) 0.19850(19) 0.3785(2)
H42_6 H 0.6147 0.2197 0.4164
O15_4 O 0.66338(14) 0.15335(16) 0.3452(2)
H21_5 H 0.6479 0.5520 0.9920
C12_5 C 0.5417(2) 0.5184(2) 0.9495(3)
N3_5 N 0.50686(15) 0.48786(19) 0.8882(3)
C14_5 C 0.5289(2) 0.5740(2) 0.9380(4)
N4_5 N 0.55322(16) 0.40547(19) 0.9904(3)
Ni1_4 Ni 0.49952(3) 0.41113(3) 0.88283(4)
C16_6 C 0.4740(2) 0.5250(2) 0.8370(3)
C17_6 C 0.4868(2) 0.5783(3) 0.8705(4)
H22_5 H 0.5470 0.6027 0.9724
N5_4 N 0.48747(17) 0.33517(19) 0.8821(3)
N6_4 N 0.44920(16) 0.4157(2) 0.7717(3)
C20_6 C 0.4361(2) 0.5136(2) 0.7604(3)
H24_6 H 0.4688 0.6102 0.8486
C22_4 C 0.4570(2) 0.3032(3) 0.8169(3)
C23_5 C 0.5044(2) 0.3005(3) 0.9480(3)
C24_4 C 0.4290(2) 0.3739(3) 0.7180(3)
C25_4 C 0.42818(19) 0.4619(2) 0.7283(3)
C26_6 C 0.4040(2) 0.5580(2) 0.7108(3)
C28_4 C 0.4320(2) 0.3206(3) 0.7377(3)
C29_4 C 0.4544(2) 0.2507(3) 0.8435(4)
C30_4 C 0.4825(2) 0.2488(3) 0.9240(4)
C31_4 C 0.3974(2) 0.3951(3) 0.6383(3)
C32_4 C 0.3964(2) 0.4487(3) 0.6464(3)
C33_6 C 0.3547(2) 0.5578(3) 0.6881(3)
C34_6 C 0.4214(2) 0.6016(3) 0.6868(4)
C37_4 C 0.4035(2) 0.2806(3) 0.6733(3)
H26_4 H 0.4359 0.2218 0.8101
H27_4 H 0.4870 0.2188 0.9584
H28_4 H 0.3806 0.3750 0.5896
H29_4 H 0.3777 0.4734 0.6045
H30_6 H 0.3413 0.5283 0.7030
C38_6 C 0.3250(2) 0.5997(3) 0.6444(3)
C39_6 C 0.3921(2) 0.6427(3) 0.6431(4)
H31_6 H 0.4549 0.6030 0.7014
C42_4 C 0.4256(2) 0.2482(3) 0.6428(4)
C43_4 C 0.3550(3) 0.2750(4) 0.6466(5)
H34_6 H 0.2916 0.5988 0.6307
C44_6 C 0.3426(2) 0.6426(3) 0.6204(3)
H35_6 H 0.4055 0.6720 0.6277
H38_4 H 0.4594 0.2518 0.6615
C46_4 C 0.3997(3) 0.2095(3) 0.5847(4)
C47_4 C 0.3293(3) 0.2368(4) 0.5893(5)
H39_4 H 0.3389 0.2974 0.6677
P2_6 P 0.30424(6) 0.69681(7) 0.56371(10)
H40_4 H 0.4159 0.1875 0.5635
C48_4 C 0.3511(2) 0.2031(3) 0.5579(4)
H41_4 H 0.2954 0.2336 0.5707
O7_6 O 0.33356(15) 0.73401(17) 0.5386(2)
P4_4 P 0.31809(8) 0.14928(9) 0.48958(12)
O10_4 O 0.34015(16) 0.1420(2) 0.4319(3)
O11_4 O 0.26500(16) 0.1660(2) 0.4440(3)
O12_4 O 0.3245(2) 0.1003(2) 0.5413(3)
H43_4 H 0.2494 0.1542 0.3985
O13_4 O 0.23847(14) 0.17077(16) 0.0082(2)
C16_7 C 0.0260(2) 0.0250(2) 0.6630(3)
C17_7 C 0.0132(2) 0.0783(3) 0.6295(4)
C20_7 C 0.0639(2) 0.0136(2) 0.7396(3)
H24_7 H 0.0312 0.1102 0.6514
C26_7 C 0.0960(2) 0.0580(2) 0.7892(3)
C33_7 C 0.1453(2) 0.0578(3) 0.8119(3)
C34_7 C 0.0786(2) 0.1016(3) 0.8132(4)
H30_7 H 0.1587 0.0283 0.7970
C38_7 C 0.1750(2) 0.0997(3) 0.8556(3)
C39_7 C 0.1079(2) 0.1427(3) 0.8569(4)
H31_7 H 0.0451 0.1030 0.7986
H34_7 H 0.2084 0.0988 0.8693
C44_7 C 0.1574(2) 0.1426(3) 0.8796(3)
H35_7 H 0.0945 0.1720 0.8723
P2_7 P 0.19576(6) 0.19681(7) 0.93629(10)
O7_7 O 0.16644(15) 0.23401(17) 0.9614(2)
O1_7 O 0.75214(14) 0.19243(17) 0.3157(2)
O2_4 O 0.76153(14) 0.17077(16) 0.4918(2)
P1_7 P 0.76000(6) 0.15222(7) 0.26289(10)
O5_7 O 0.77626(15) 0.18002(17) 0.2069(2)
O6_7 O 0.71501(14) 0.11722(17) 0.2144(2)
C5_7 C 0.8071(2) 0.1083(2) 0.3287(4)
H17_7 H 0.6973 0.1239 0.1670
C6_7 C 0.8394(2) 0.0854(3) 0.3058(4)
C7_7 C 0.8136(3) 0.0951(3) 0.4048(4)
C8_7 C 0.8745(2) 0.0502(3) 0.3570(4)
H18_7 H 0.8373 0.0940 0.2547
H19_7 H 0.7928 0.1111 0.4230
C9_7 C 0.8490(3) 0.0597(3) 0.4560(4)
C10_7 C 0.8795(2) 0.0358(2) 0.4313(3)
H20_7 H 0.8961 0.0352 0.3399
H21_6 H 0.8521 0.0520 0.5080
C12_6 C 0.9583(2) 0.0184(2) 0.5505(3)
C14_6 C 0.9711(2) 0.0740(2) 0.5620(4)
H22_6 H 0.9530 0.1027 0.5276
C11_7 C 0.9178(2) 0.9981(2) 0.4861(3)
C13_7 C 0.9128(2) 0.9445(2) 0.4665(3)
N3_6 N 0.99314(15) 0.98786(19) 0.6118(3)
N4_6 N 0.94678(16) 0.90547(19) 0.5096(3)
C15_7 C 0.8763(2) 0.9225(2) 0.3918(3)
C18_7 C 0.9332(2) 0.8616(2) 0.4595(3)
H23_7 H 0.8480 0.9405 0.3532
C19_7 C 0.8891(2) 0.8719(3) 0.3860(3)
C21_7 C 0.9580(2) 0.8137(2) 0.4755(3)
H25_7 H 0.8723 0.8477 0.3422
C23_6 C 0.9956(2) 0.8005(3) 0.5520(3)
C27_7 C 0.9430(2) 0.7734(2) 0.4080(3)
C35_7 C 0.9038(2) 0.7398(3) 0.3859(4)
C36_7 C 0.9669(2) 0.7721(3) 0.3615(4)
H32_7 H 0.8874 0.7394 0.4176
C40_7 C 0.8878(2) 0.7069(3) 0.3197(4)
C41_7 C 0.9505(2) 0.7400(3) 0.2941(4)
H33_7 H 0.9949 0.7936 0.3766
H36_7 H 0.8608 0.6840 0.3063
C45_7 C 0.9106(2) 0.7070(3) 0.2728(3)
H37_7 H 0.9666 0.7404 0.2618
P3_7 P 0.88982(6) 0.66514(8) 0.18427(10)
O8_7 O 0.92073(16) 0.61602(19) 0.2045(3)
O9_7 O 0.89788(15) 0.69850(19) 0.1215(2)
H42_7 H 0.8853 0.7197 0.0836
O1_8 O 0.24786(14) 0.19243(17) 0.1843(2)
P1_8 P 0.24000(6) 0.15222(7) 0.23711(10)
O5_8 O 0.22374(15) 0.18002(17) 0.2931(2)
O6_8 O 0.28499(14) 0.11722(17) 0.2856(2)
C5_8 C 0.1929(2) 0.1083(2) 0.1713(4)
H17_8 H 0.3027 0.1239 0.3330
C6_8 C 0.1606(2) 0.0854(3) 0.1942(4)
C7_8 C 0.1864(3) 0.0951(3) 0.0952(4)
C8_8 C 0.1255(2) 0.0502(3) 0.1430(4)
H18_8 H 0.1627 0.0940 0.2453
H19_8 H 0.2072 0.1111 0.0770
C9_8 C 0.1510(3) 0.0597(3) 0.0440(4)
C10_8 C 0.1205(2) 0.0358(2) 0.0687(3)
H20_8 H 0.1039 0.0352 0.1601
C11_8 C 0.0822(2) 0.9981(2) 0.0139(3)
C13_8 C 0.0872(2) 0.9445(2) 0.0335(3)
C15_8 C 0.1237(2) 0.9225(2) 0.1082(3)
C18_8 C 0.0668(2) 0.8616(2) 0.0405(3)
H23_8 H 0.1520 0.9405 0.1468
C19_8 C 0.1109(2) 0.8719(3) 0.1140(3)
C21_8 C 0.0420(2) 0.8137(2) 0.0245(3)
H25_8 H 0.1277 0.8477 0.1578
C27_8 C 0.0570(2) 0.7734(2) 0.0920(3)
C35_8 C 0.0962(2) 0.7398(3) 0.1141(4)
C36_8 C 0.0331(2) 0.7721(3) 0.1385(4)
H32_8 H 0.1126 0.7394 0.0824
C40_8 C 0.1122(2) 0.7069(3) 0.1803(4)
C41_8 C 0.0495(2) 0.7400(3) 0.2059(4)
H33_8 H 0.0051 0.7936 0.1234
H36_8 H 0.1392 0.6840 0.1937
C45_8 C 0.0894(2) 0.7070(3) 0.2272(3)
H37_8 H 0.0334 0.7404 0.2382
P3_8 P 0.11018(6) 0.66514(8) 0.31573(10)
O8_8 O 0.07927(16) 0.61602(19) 0.2955(3)
O9_8 O 0.10212(15) 0.69850(19) 0.3785(2)
H42_8 H 0.1147 0.7197 0.4164
C16_8 C 0.9740(2) 0.0250(2) 0.8370(3)
C17_8 C 0.9868(2) 0.0783(3) 0.8705(4)
C20_8 C 0.9361(2) 0.0136(2) 0.7604(3)
H24_8 H 0.9688 0.1102 0.8486
C26_8 C 0.9040(2) 0.0580(2) 0.7108(3)
C33_8 C 0.8547(2) 0.0578(3) 0.6881(3)
C34_8 C 0.9214(2) 0.1016(3) 0.6868(4)
H30_8 H 0.8413 0.0283 0.7030
C38_8 C 0.8250(2) 0.0997(3) 0.6444(3)
C39_8 C 0.8921(2) 0.1427(3) 0.6431(4)
H31_8 H 0.9549 0.1030 0.7014
H34_8 H 0.7916 0.0988 0.6307
C44_8 C 0.8426(2) 0.1426(3) 0.6204(3)
H35_8 H 0.9055 0.1720 0.6277
P2_8 P 0.80424(6) 0.19681(7) 0.56371(10)
O7_8 O 0.83356(15) 0.23401(17) 0.5386(2)
Ni1_5 Ni 0.99952(3) 0.08887(3) 0.38283(4)
N5_5 N 0.98747(17) 0.16483(19) 0.3821(3)
N6_5 N 0.94920(16) 0.0843(2) 0.2717(3)
C22_5 C 0.9570(2) 0.1968(3) 0.3169(3)
C24_5 C 0.9290(2) 0.1261(3) 0.2180(3)
C25_5 C 0.92818(19) 0.0381(2) 0.2283(3)
C28_5 C 0.9320(2) 0.1794(3) 0.2377(3)
C29_5 C 0.9544(2) 0.2493(3) 0.3435(4)
C30_5 C 0.9825(2) 0.2512(3) 0.4240(4)
C31_5 C 0.8974(2) 0.1049(3) 0.1383(3)
C32_5 C 0.8964(2) 0.0513(3) 0.1464(3)
C37_5 C 0.9035(2) 0.2194(3) 0.1733(3)
H26_5 H 0.9359 0.2782 0.3101
H27_5 H 0.9870 0.2812 0.4584
H28_5 H 0.8806 0.1250 0.0896
H29_5 H 0.8777 0.0266 0.1045
C42_5 C 0.9256(2) 0.2518(3) 0.1428(4)
C43_5 C 0.8550(3) 0.2250(4) 0.1466(5)
H38_5 H 0.9594 0.2482 0.1615
C46_5 C 0.8997(3) 0.2905(3) 0.0847(4)
C47_5 C 0.8293(3) 0.2632(4) 0.0893(5)
H39_5 H 0.8389 0.2026 0.1677
H40_5 H 0.9159 0.3125 0.0635
C48_5 C 0.8511(2) 0.2969(3) 0.0579(4)
H41_5 H 0.7954 0.2664 0.0707
O12_5 O 0.8245(2) 0.3997(2) 0.0413(3)
P4_5 P 0.81809(8) 0.35072(9) 0.98958(12)
O10_5 O 0.84015(16) 0.3580(2) 0.9319(3)
O11_5 O 0.76500(16) 0.3340(2) 0.9440(3)
H43_5 H 0.7494 0.3458 0.8985
Ni1_6 Ni 0.00048(3) 0.08887(3) 0.11717(4)
N5_6 N 0.01253(17) 0.16483(19) 0.1179(3)
N6_6 N 0.05080(16) 0.0843(2) 0.2283(3)
C22_6 C 0.0430(2) 0.1968(3) 0.1831(3)
C24_6 C 0.0710(2) 0.1261(3) 0.2820(3)
C25_6 C 0.07182(19) 0.0381(2) 0.2717(3)
C28_6 C 0.0680(2) 0.1794(3) 0.2623(3)
C29_6 C 0.0456(2) 0.2493(3) 0.1565(4)
C30_6 C 0.0175(2) 0.2512(3) 0.0760(4)
C31_6 C 0.1026(2) 0.1049(3) 0.3617(3)
C32_6 C 0.1036(2) 0.0513(3) 0.3536(3)
C37_6 C 0.0965(2) 0.2194(3) 0.3267(3)
H26_6 H 0.0641 0.2782 0.1899
H27_6 H 0.0130 0.2812 0.0416
H28_6 H 0.1194 0.1250 0.4104
H29_6 H 0.1223 0.0266 0.3955
C42_6 C 0.0744(2) 0.2518(3) 0.3572(4)
C43_6 C 0.1450(3) 0.2250(4) 0.3534(5)
H38_6 H 0.0406 0.2482 0.3385
C46_6 C 0.1003(3) 0.2905(3) 0.4153(4)
C47_6 C 0.1707(3) 0.2632(4) 0.4107(5)
H39_6 H 0.1611 0.2026 0.3323
H40_6 H 0.0841 0.3125 0.4365
C48_6 C 0.1489(2) 0.2969(3) 0.4421(4)
H41_6 H 0.2046 0.2664 0.4293
P4_6 P 0.18191(8) 0.35072(9) 0.51042(12)
O10_6 O 0.15985(16) 0.3580(2) 0.5681(3)
O11_6 O 0.23500(16) 0.3340(2) 0.5560(3)
O12_6 O 0.1755(2) 0.3997(2) 0.4587(3)
H43_6 H 0.2506 0.3458 0.6015
N3_7 N 0.99314(15) 0.01214(19) 0.1118(3)
N4_7 N 0.94678(16) 0.09453(19) 0.0096(3)
C23_7 C 0.9956(2) 0.1995(3) 0.0520(3)
H21_7 H 0.8521 0.9480 0.0080
C12_7 C 0.9583(2) 0.9816(2) 0.0505(3)
C14_7 C 0.9711(2) 0.9260(2) 0.0620(4)
H22_7 H 0.9530 0.8973 0.0276
P4_7 P 0.18191(8) 0.64928(9) 0.01042(12)
O10_7 O 0.15985(16) 0.6420(2) 0.0681(3)
O11_7 O 0.23500(16) 0.6660(2) 0.0560(3)
H43_7 H 0.2506 0.6542 0.1015
Ni1_7 Ni 0.00048(3) 0.91113(3) 0.61717(4)
N5_7 N 0.01253(17) 0.83517(19) 0.6179(3)
N6_7 N 0.05080(16) 0.9157(2) 0.7283(3)
C22_7 C 0.0430(2) 0.8032(3) 0.6831(3)
C24_7 C 0.0710(2) 0.8739(3) 0.7820(3)
C25_7 C 0.07182(19) 0.9619(2) 0.7717(3)
C28_7 C 0.0680(2) 0.8206(3) 0.7623(3)
C29_7 C 0.0456(2) 0.7507(3) 0.6565(4)
C30_7 C 0.0175(2) 0.7488(3) 0.5760(4)
C31_7 C 0.1026(2) 0.8951(3) 0.8617(3)
C32_7 C 0.1036(2) 0.9487(3) 0.8536(3)
C37_7 C 0.0965(2) 0.7806(3) 0.8267(3)
H26_7 H 0.0641 0.7218 0.6899
H27_7 H 0.0130 0.7188 0.5416
H28_7 H 0.1194 0.8750 0.9104
H29_7 H 0.1223 0.9734 0.8955
C42_7 C 0.0744(2) 0.7482(3) 0.8572(4)
C43_7 C 0.1450(3) 0.7750(4) 0.8534(5)
H38_7 H 0.0406 0.7518 0.8385
C46_7 C 0.1003(3) 0.7095(3) 0.9153(4)
C47_7 C 0.1707(3) 0.7368(4) 0.9107(5)
H39_7 H 0.1611 0.7974 0.8323
H40_7 H 0.0841 0.6875 0.9365
C48_7 C 0.1489(2) 0.7031(3) 0.9421(4)
H41_7 H 0.2046 0.7336 0.9293
O12_7 O 0.1755(2) 0.6003(2) 0.9587(3)
H21_8 H 0.1479 0.0520 0.9920
C12_8 C 0.0417(2) 0.0184(2) 0.9495(3)
C14_8 C 0.0289(2) 0.0740(2) 0.9380(4)
H22_8 H 0.0470 0.1027 0.9724
N3_8 N 0.00686(15) 0.98786(19) 0.8882(3)
N4_8 N 0.05322(16) 0.90547(19) 0.9904(3)
C23_8 C 0.0044(2) 0.8005(3) 0.9480(3)
Ni1_8 Ni 0.99952(3) 0.91113(3) 0.88283(4)
N5_8 N 0.98747(17) 0.83517(19) 0.8821(3)
N6_8 N 0.94920(16) 0.9157(2) 0.7717(3)
C22_8 C 0.9570(2) 0.8032(3) 0.8169(3)
C24_8 C 0.9290(2) 0.8739(3) 0.7180(3)
C25_8 C 0.92818(19) 0.9619(2) 0.7283(3)
C28_8 C 0.9320(2) 0.8206(3) 0.7377(3)
C29_8 C 0.9544(2) 0.7507(3) 0.8435(4)
C30_8 C 0.9825(2) 0.7488(3) 0.9240(4)
C31_8 C 0.8974(2) 0.8951(3) 0.6383(3)
C32_8 C 0.8964(2) 0.9487(3) 0.6464(3)
C37_8 C 0.9035(2) 0.7806(3) 0.6733(3)
H26_8 H 0.9359 0.7218 0.8101
H27_8 H 0.9870 0.7188 0.9584
H28_8 H 0.8806 0.8750 0.5896
H29_8 H 0.8777 0.9734 0.6045
C42_8 C 0.9256(2) 0.7482(3) 0.6428(4)
C43_8 C 0.8550(3) 0.7750(4) 0.6466(5)
H38_8 H 0.9594 0.7518 0.6615
C46_8 C 0.8997(3) 0.7095(3) 0.5847(4)
C47_8 C 0.8293(3) 0.7368(4) 0.5893(5)
H39_8 H 0.8389 0.7974 0.6677
H40_8 H 0.9159 0.6875 0.5635
C48_8 C 0.8511(2) 0.7031(3) 0.5579(4)
H41_8 H 0.7954 0.7336 0.5707
P4_8 P 0.81809(8) 0.64928(9) 0.48958(12)
O10_8 O 0.84015(16) 0.6420(2) 0.4319(3)
O11_8 O 0.76500(16) 0.6660(2) 0.4440(3)
O12_8 O 0.8245(2) 0.6003(2) 0.5413(3)
H43_8 H 0.7494 0.6542 0.3985
loop_
_geom_bond_atom_site_label_1
_geom_bond_atom_site_label_2
_geom_bond_site_symmetry_1
_geom_bond_site_symmetry_2
N1 H1 1_555 1_555
H2 N1 1_555 1_555
C1 N1 1_555 1_555
H3 C1 1_555 1_555
H4 C1 1_555 1_555
H5 C1 1_555 1_555
C2 N1 1_555 1_555
H6 C2 1_555 1_555
H7 C2 1_555 1_555
H8 C2 1_555 1_555
N1_2 H1_2 1_555 1_555
H2_2 N1_2 1_555 1_555
C1_2 N1_2 1_555 1_555
H3_2 C1_2 1_555 1_555
H4_2 C1_2 1_555 1_555
H5_2 C1_2 1_555 1_555
C2_2 N1_2 1_555 1_555
H6_2 C2_2 1_555 1_555
H7_2 C2_2 1_555 1_555
H8_2 C2_2 1_555 1_555
N1_3 H1_3 1_555 1_555
H2_3 N1_3 1_555 1_555
C1_3 N1_3 1_555 1_555
H3_3 C1_3 1_555 1_555
H4_3 C1_3 1_555 1_555
H5_3 C1_3 1_555 1_555
C2_3 N1_3 1_555 1_555
H6_3 C2_3 1_555 1_555
H7_3 C2_3 1_555 1_555
H8_3 C2_3 1_555 1_555
N1_4 H1_4 1_555 1_555
H2_4 N1_4 1_555 1_555
C1_4 N1_4 1_555 1_555
H3_4 C1_4 1_555 1_555
H4_4 C1_4 1_555 1_555
H5_4 C1_4 1_555 1_555
C2_4 N1_4 1_555 1_555
H6_4 C2_4 1_555 1_555
H7_4 C2_4 1_555 1_555
H8_4 C2_4 1_555 1_555
N1_5 H1_5 1_555 1_555
H2_5 N1_5 1_555 1_555
C1_5 N1_5 1_555 1_555
H3_5 C1_5 1_555 1_555
H4_5 C1_5 1_555 1_555
H5_5 C1_5 1_555 1_555
C2_5 N1_5 1_555 1_555
H6_5 C2_5 1_555 1_555
H7_5 C2_5 1_555 1_555
H8_5 C2_5 1_555 1_555
N1_6 H1_6 1_555 1_555
H2_6 N1_6 1_555 1_555
C1_6 N1_6 1_555 1_555
H3_6 C1_6 1_555 1_555
H4_6 C1_6 1_555 1_555
H5_6 C1_6 1_555 1_555
C2_6 N1_6 1_555 1_555
H6_6 C2_6 1_555 1_555
H7_6 C2_6 1_555 1_555
H8_6 C2_6 1_555 1_555
N1_7 H1_7 1_555 1_555
H2_7 N1_7 1_555 1_555
C1_7 N1_7 1_555 1_555
H3_7 C1_7 1_555 1_555
H4_7 C1_7 1_555 1_555
H5_7 C1_7 1_555 1_555
C2_7 N1_7 1_555 1_555
H6_7 C2_7 1_555 1_555
H7_7 C2_7 1_555 1_555
H8_7 C2_7 1_555 1_555
N1_8 H1_8 1_555 1_555
H2_8 N1_8 1_555 1_555
C1_8 N1_8 1_555 1_555
H3_8 C1_8 1_555 1_555
H4_8 C1_8 1_555 1_555
H5_8 C1_8 1_555 1_555
C2_8 N1_8 1_555 1_555
H6_8 C2_8 1_555 1_555
H7_8 C2_8 1_555 1_555
H8_8 C2_8 1_555 1_555
N2 H9 1_555 1_555
H10 N2 1_555 1_555
C3 N2 1_555 1_555
H11 C3 1_555 1_555
H12 C3 1_555 1_555
H13 C3 1_555 1_555
C4 N2 1_555 1_555
H14 C4 1_555 1_555
H15 C4 1_555 1_555
H16 C4 1_555 1_555
N2_2 H9_2 1_555 1_555
H10_2 N2_2 1_555 1_555
C3_2 N2_2 1_555 1_555
H11_2 C3_2 1_555 1_555
H12_2 C3_2 1_555 1_555
H13_2 C3_2 1_555 1_555
C4_2 N2_2 1_555 1_555
H14_2 C4_2 1_555 1_555
H15_2 C4_2 1_555 1_555
H16_2 C4_2 1_555 1_555
H10_3 N2_3 1_555 1_555
C3_3 N2_3 1_555 1_555
H11_3 C3_3 1_555 1_555
C4_3 N2_3 1_555 1_555
H14_3 C4_3 1_555 1_555
H16_3 C4_3 1_555 1_555
H10_4 N2_4 1_555 1_555
C3_4 N2_4 1_555 1_555
H11_4 C3_4 1_555 1_555
C4_4 N2_4 1_555 1_555
H14_4 C4_4 1_555 1_555
H16_4 C4_4 1_555 1_555
N2_5 H9_5 1_555 1_555
H10_5 N2_5 1_555 1_555
C3_5 N2_5 1_555 1_555
H11_5 C3_5 1_555 1_555
H12_5 C3_5 1_555 1_555
H13_5 C3_5 1_555 1_555
C4_5 N2_5 1_555 1_555
H14_5 C4_5 1_555 1_555
H15_5 C4_5 1_555 1_555
H16_5 C4_5 1_555 1_555
N2_6 H9_6 1_555 1_555
H10_6 N2_6 1_555 1_555
C3_6 N2_6 1_555 1_555
H11_6 C3_6 1_555 1_555
H12_6 C3_6 1_555 1_555
H13_6 C3_6 1_555 1_555
C4_6 N2_6 1_555 1_555
H14_6 C4_6 1_555 1_555
H15_6 C4_6 1_555 1_555
H16_6 C4_6 1_555 1_555
H10_7 N2_7 1_555 1_555
C3_7 N2_7 1_555 1_555
H11_7 C3_7 1_555 1_555
C4_7 N2_7 1_555 1_555
H14_7 C4_7 1_555 1_555
H16_7 C4_7 1_555 1_555
H10_8 N2_8 1_555 1_555
C3_8 N2_8 1_555 1_555
H11_8 C3_8 1_555 1_555
C4_8 N2_8 1_555 1_555
H14_8 C4_8 1_555 1_555
H16_8 C4_8 1_555 1_555
Zn1 O1 1_555 1_555
O1 P1 1_555 1_555
O2 Zn1 1_555 1_555
O3 Zn1 1_555 1_555
O4 Zn1 1_555 1_555
P1 O5 1_555 1_555
O6 P1 1_555 1_555
C5 P1 1_555 1_555
H17 O6 1_555 1_555
C6 C5 1_555 1_555
C7 C5 1_555 1_555
C8 C6 1_555 1_555
H18 C6 1_555 1_555
H19 C7 1_555 1_555
C9 C7 1_555 1_555
C10 C8 1_555 1_555
H20 C8 1_555 1_555
H21 C9 1_555 1_555
C11 C10 1_555 1_555
C12 C11 1_555 1_555
C13 C11 1_555 1_555
N3 C12 1_555 1_555
C14 C12 1_555 1_555
N4 C13 1_555 1_555
C15 C13 1_555 1_555
Ni1 N3 1_555 1_555
C16 N3 1_555 1_555
C17 C14 1_555 1_555
H22 C14 1_555 1_555
C18 N4 1_555 1_555
H23 C15 1_555 1_555
C19 C15 1_555 1_555
N5 Ni1 1_555 1_555
N6 Ni1 1_555 1_555
C20 C16 1_555 1_555
H24 C17 1_555 1_555
C21 C18 1_555 1_555
H25 C19 1_555 1_555
C22 N5 1_555 1_555
C23 N5 1_555 1_555
C24 N6 1_555 1_555
C25 N6 1_555 1_555
C26 C20 1_555 1_555
C27 C21 1_555 1_555
C28 C22 1_555 1_555
C29 C22 1_555 1_555
C30 C23 1_555 1_555
C31 C24 1_555 1_555
C32 C25 1_555 1_555
C33 C26 1_555 1_555
C34 C26 1_555 1_555
C35 C27 1_555 1_555
C36 C27 1_555 1_555
C37 C28 1_555 1_555
H26 C29 1_555 1_555
H27 C30 1_555 1_555
H28 C31 1_555 1_555
H29 C32 1_555 1_555
H30 C33 1_555 1_555
C38 C33 1_555 1_555
C39 C34 1_555 1_555
H31 C34 1_555 1_555
H32 C35 1_555 1_555
C40 C35 1_555 1_555
C41 C36 1_555 1_555
H33 C36 1_555 1_555
C42 C37 1_555 1_555
C43 C37 1_555 1_555
H34 C38 1_555 1_555
C44 C38 1_555 1_555
H35 C39 1_555 1_555
H36 C40 1_555 1_555
C45 C40 1_555 1_555
H37 C41 1_555 1_555
H38 C42 1_555 1_555
C46 C42 1_555 1_555
C47 C43 1_555 1_555
H39 C43 1_555 1_555
P2 C44 1_555 1_555
P3 C45 1_555 1_555
H40 C46 1_555 1_555
C48 C46 1_555 1_555
H41 C47 1_555 1_555
O7 P2 1_555 1_555
O8 P3 1_555 1_555
O9 P3 1_555 1_555
H42 O9 1_555 1_555
O14 P2 1_555 1_555
O15 P3 1_555 1_555
Zn3 O14 1_555 1_555
Zn4 O15 1_555 1_555
C9 C10 1_555 1_555
N4 Ni1 1_555 1_555
C16 C17 1_555 1_555
C18 C19 1_555 1_555
C20 C25 1_555 1_555
C21 C23 1_555 1_555
C24 C28 1_555 1_555
C29 C30 1_555 1_555
C31 C32 1_555 1_555
C39 C44 1_555 1_555
C41 C45 1_555 1_555
C47 C48 1_555 1_555
O10 P4 1_555 1_555
O11 P4 1_555 1_555
H43 O11 1_555 1_555
Zn2 O13 1_555 1_555
N3_2 C12_2 1_555 1_555
C14_2 C12_2 1_555 1_555
Ni1_2 N3_2 1_555 1_555
C16_2 N3_2 1_555 1_555
C17_2 C14_2 1_555 1_555
H22_2 C14_2 1_555 1_555
N5_2 Ni1_2 1_555 1_555
N6_2 Ni1_2 1_555 1_555
C20_2 C16_2 1_555 1_555
H24_2 C17_2 1_555 1_555
C22_2 N5_2 1_555 1_555
C23_2 N5_2 1_555 1_555
C24_2 N6_2 1_555 1_555
C25_2 N6_2 1_555 1_555
C26_2 C20_2 1_555 1_555
C28_2 C22_2 1_555 1_555
C29_2 C22_2 1_555 1_555
C30_2 C23_2 1_555 1_555
C31_2 C24_2 1_555 1_555
C32_2 C25_2 1_555 1_555
C33_2 C26_2 1_555 1_555
C34_2 C26_2 1_555 1_555
C37_2 C28_2 1_555 1_555
H26_2 C29_2 1_555 1_555
H27_2 C30_2 1_555 1_555
H28_2 C31_2 1_555 1_555
H29_2 C32_2 1_555 1_555
H30_2 C33_2 1_555 1_555
C38_2 C33_2 1_555 1_555
C39_2 C34_2 1_555 1_555
H31_2 C34_2 1_555 1_555
C42_2 C37_2 1_555 1_555
C43_2 C37_2 1_555 1_555
H34_2 C38_2 1_555 1_555
C44_2 C38_2 1_555 1_555
H35_2 C39_2 1_555 1_555
H38_2 C42_2 1_555 1_555
C46_2 C42_2 1_555 1_555
C47_2 C43_2 1_555 1_555
H39_2 C43_2 1_555 1_555
P2_2 C44_2 1_555 1_555
H40_2 C46_2 1_555 1_555
C48_2 C46_2 1_555 1_555
H41_2 C47_2 1_555 1_555
O7_2 P2_2 1_555 1_555
P4_2 C48_2 1_555 1_555
O10_2 P4_2 1_555 1_555
O11_2 P4_2 1_555 1_555
O12_2 P4_2 1_555 1_555
H43_2 O11_2 1_555 1_555
O2 P2_2 1_555 1_555
O14_2 P2_2 1_555 1_555
Zn3_2 O14_2 1_555 1_555
N4_2 Ni1_2 1_555 1_555
C16_2 C17_2 1_555 1_555
C20_2 C25_2 1_555 1_555
C24_2 C28_2 1_555 1_555
C29_2 C30_2 1_555 1_555
C31_2 C32_2 1_555 1_555
C39_2 C44_2 1_555 1_555
C47_2 C48_2 1_555 1_555
Zn2 O1_2 1_555 1_555
O1_2 P1_2 1_555 1_555
O3_2 Zn2 1_555 1_555
O4_2 Zn2 1_555 1_555
P1_2 O5_2 1_555 1_555
O6_2 P1_2 1_555 1_555
C5_2 P1_2 1_555 1_555
H17_2 O6_2 1_555 1_555
C6_2 C5_2 1_555 1_555
C7_2 C5_2 1_555 1_555
C8_2 C6_2 1_555 1_555
H18_2 C6_2 1_555 1_555
H19_2 C7_2 1_555 1_555
C9_2 C7_2 1_555 1_555
C10_2 C8_2 1_555 1_555
H20_2 C8_2 1_555 1_555
C11_2 C10_2 1_555 1_555
C13_2 C11_2 1_555 1_555
C15_2 C13_2 1_555 1_555
H23_2 C15_2 1_555 1_555
C19_2 C15_2 1_555 1_555
C21_2 C18_2 1_555 1_555
H25_2 C19_2 1_555 1_555
C27_2 C21_2 1_555 1_555
C35_2 C27_2 1_555 1_555
C36_2 C27_2 1_555 1_555
H32_2 C35_2 1_555 1_555
C40_2 C35_2 1_555 1_555
C41_2 C36_2 1_555 1_555
H33_2 C36_2 1_555 1_555
H36_2 C40_2 1_555 1_555
C45_2 C40_2 1_555 1_555
H37_2 C41_2 1_555 1_555
P3_2 C45_2 1_555 1_555
O8_2 P3_2 1_555 1_555
O9_2 P3_2 1_555 1_555
H42_2 O9_2 1_555 1_555
O15_2 P3_2 1_555 1_555
Zn4_2 O15_2 1_555 1_555
C9_2 C10_2 1_555 1_555
C18_2 C19_2 1_555 1_555
C41_2 C45_2 1_555 1_555
C13_3 C11_3 1_555 1_555
N4_3 C13_3 1_555 1_555
C15_3 C13_3 1_555 1_555
C18_3 N4_3 1_555 1_555
H23_3 C15_3 1_555 1_555
C19_3 C15_3 1_555 1_555
C21_3 C18_3 1_555 1_555
H25_3 C19_3 1_555 1_555
C27_3 C21_3 1_555 1_555
C35_3 C27_3 1_555 1_555
C36_3 C27_3 1_555 1_555
H32_3 C35_3 1_555 1_555
C40_3 C35_3 1_555 1_555
C41_3 C36_3 1_555 1_555
H33_3 C36_3 1_555 1_555
H36_3 C40_3 1_555 1_555
C45_3 C40_3 1_555 1_555
H37_3 C41_3 1_555 1_555
P3_3 C45_3 1_555 1_555
O8_3 P3_3 1_555 1_555
O9_3 P3_3 1_555 1_555
H42_3 O9_3 1_555 1_555
O4_2 P3_3 1_555 1_555
C18_3 C19_3 1_555 1_555
C21_3 C23_3 1_555 1_555
C41_3 C45_3 1_555 1_555
Zn4_2 O1_3 1_555 1_555
O1_3 P1_3 1_555 1_555
O2_2 Zn4_2 1_555 1_555
O3_3 Zn4_2 1_555 1_555
P1_3 O5_3 1_555 1_555
O6_3 P1_3 1_555 1_555
C5_3 P1_3 1_555 1_555
H17_3 O6_3 1_555 1_555
C6_3 C5_3 1_555 1_555
C7_3 C5_3 1_555 1_555
C8_3 C6_3 1_555 1_555
H18_3 C6_3 1_555 1_555
H19_3 C7_3 1_555 1_555
C9_3 C7_3 1_555 1_555
C10_3 C8_3 1_555 1_555
H20_3 C8_3 1_555 1_555
H21_3 C9_3 1_555 1_555
C14_3 C12_3 1_555 1_555
H22_3 C14_3 1_555 1_555
C9_3 C10_3 1_555 1_555
C20_3 C16_3 1_555 1_555
H24_3 C17_3 1_555 1_555
C26_3 C20_3 1_555 1_555
C33_3 C26_3 1_555 1_555
C34_3 C26_3 1_555 1_555
H30_3 C33_3 1_555 1_555
C38_3 C33_3 1_555 1_555
C39_3 C34_3 1_555 1_555
H31_3 C34_3 1_555 1_555
H34_3 C38_3 1_555 1_555
C44_3 C38_3 1_555 1_555
H35_3 C39_3 1_555 1_555
P2_3 C44_3 1_555 1_555
O7_3 P2_3 1_555 1_555
O14_3 P2_3 1_555 1_555
Zn3_3 O14_3 1_555 1_555
C16_3 C17_3 1_555 1_555
C39_3 C44_3 1_555 1_555
Zn4 O13_2 1_555 1_555
C20_4 C16_4 1_555 1_555
H24_4 C17_4 1_555 1_555
C26_4 C20_4 1_555 1_555
C33_4 C26_4 1_555 1_555
C34_4 C26_4 1_555 1_555
H30_4 C33_4 1_555 1_555
C38_4 C33_4 1_555 1_555
C39_4 C34_4 1_555 1_555
H31_4 C34_4 1_555 1_555
H34_4 C38_4 1_555 1_555
C44_4 C38_4 1_555 1_555
H35_4 C39_4 1_555 1_555
P2_4 C44_4 1_555 1_555
O7_4 P2_4 1_555 1_555
O2_2 P2_4 1_555 1_555
O14_4 P2_4 1_555 1_555
Zn3_4 O14_4 1_555 1_555
C16_4 C17_4 1_555 1_555
C39_4 C44_4 1_555 1_555
C13_4 C11_4 1_555 1_555
C15_4 C13_4 1_555 1_555
H23_4 C15_4 1_555 1_555
C19_4 C15_4 1_555 1_555
C21_4 C18_4 1_555 1_555
H25_4 C19_4 1_555 1_555
C27_4 C21_4 1_555 1_555
C35_4 C27_4 1_555 1_555
C36_4 C27_4 1_555 1_555
H32_4 C35_4 1_555 1_555
C40_4 C35_4 1_555 1_555
C41_4 C36_4 1_555 1_555
H33_4 C36_4 1_555 1_555
H36_4 C40_4 1_555 1_555
C45_4 C40_4 1_555 1_555
H37_4 C41_4 1_555 1_555
P3_4 C45_4 1_555 1_555
O8_4 P3_4 1_555 1_555
O9_4 P3_4 1_555 1_555
H42_4 O9_4 1_555 1_555
O4 P3_4 1_555 1_555
C18_4 C19_4 1_555 1_555
C41_4 C45_4 1_555 1_555
Zn4 O1_4 1_555 1_555
O1_4 P1_4 1_555 1_555
O3_4 Zn4 1_555 1_555
P1_4 O5_4 1_555 1_555
O6_4 P1_4 1_555 1_555
C5_4 P1_4 1_555 1_555
H17_4 O6_4 1_555 1_555
C6_4 C5_4 1_555 1_555
C7_4 C5_4 1_555 1_555
C8_4 C6_4 1_555 1_555
H18_4 C6_4 1_555 1_555
H19_4 C7_4 1_555 1_555
C9_4 C7_4 1_555 1_555
C10_4 C8_4 1_555 1_555
H20_4 C8_4 1_555 1_555
C9_4 C10_4 1_555 1_555
O10_3 P4_3 1_555 1_555
O11_3 P4_3 1_555 1_555
H43_3 O11_3 1_555 1_555
Zn3_3 O13_3 1_555 1_555
Zn3_4 O1_5 1_555 1_555
O1_5 P1_5 1_555 1_555
O2_3 Zn3_4 1_555 1_555
O4_3 Zn3_4 1_555 1_555
P1_5 O5_5 1_555 1_555
O6_5 P1_5 1_555 1_555
C5_5 P1_5 1_555 1_555
H17_5 O6_5 1_555 1_555
C6_5 C5_5 1_555 1_555
C7_5 C5_5 1_555 1_555
C8_5 C6_5 1_555 1_555
H18_5 C6_5 1_555 1_555
H19_5 C7_5 1_555 1_555
C9_5 C7_5 1_555 1_555
C10_5 C8_5 1_555 1_555
H20_5 C8_5 1_555 1_555
H21_4 C9_5 1_555 1_555
C11_5 C10_5 1_555 1_555
C12_4 C11_5 1_555 1_555
C13_5 C11_5 1_555 1_555
N3_4 C12_4 1_555 1_555
C14_4 C12_4 1_555 1_555
N4_4 C13_5 1_555 1_555
C15_5 C13_5 1_555 1_555
Ni1_3 N3_4 1_555 1_555
C16_5 N3_4 1_555 1_555
C17_5 C14_4 1_555 1_555
H22_4 C14_4 1_555 1_555
C18_5 N4_4 1_555 1_555
H23_5 C15_5 1_555 1_555
C19_5 C15_5 1_555 1_555
N5_3 Ni1_3 1_555 1_555
N6_3 Ni1_3 1_555 1_555
C20_5 C16_5 1_555 1_555
H24_5 C17_5 1_555 1_555
C21_5 C18_5 1_555 1_555
H25_5 C19_5 1_555 1_555
C22_3 N5_3 1_555 1_555
C23_4 N5_3 1_555 1_555
C24_3 N6_3 1_555 1_555
C25_3 N6_3 1_555 1_555
C26_5 C20_5 1_555 1_555
C27_5 C21_5 1_555 1_555
C28_3 C22_3 1_555 1_555
C29_3 C22_3 1_555 1_555
C30_3 C23_4 1_555 1_555
C31_3 C24_3 1_555 1_555
C32_3 C25_3 1_555 1_555
C33_5 C26_5 1_555 1_555
C34_5 C26_5 1_555 1_555
C35_5 C27_5 1_555 1_555
C36_5 C27_5 1_555 1_555
C37_3 C28_3 1_555 1_555
H26_3 C29_3 1_555 1_555
H27_3 C30_3 1_555 1_555
H28_3 C31_3 1_555 1_555
H29_3 C32_3 1_555 1_555
H30_5 C33_5 1_555 1_555
C38_5 C33_5 1_555 1_555
C39_5 C34_5 1_555 1_555
H31_5 C34_5 1_555 1_555
H32_5 C35_5 1_555 1_555
C40_5 C35_5 1_555 1_555
C41_5 C36_5 1_555 1_555
H33_5 C36_5 1_555 1_555
C42_3 C37_3 1_555 1_555
C43_3 C37_3 1_555 1_555
H34_5 C38_5 1_555 1_555
C44_5 C38_5 1_555 1_555
H35_5 C39_5 1_555 1_555
H36_5 C40_5 1_555 1_555
C45_5 C40_5 1_555 1_555
H37_5 C41_5 1_555 1_555
H38_3 C42_3 1_555 1_555
C46_3 C42_3 1_555 1_555
C47_3 C43_3 1_555 1_555
H39_3 C43_3 1_555 1_555
P2_5 C44_5 1_555 1_555
P3_5 C45_5 1_555 1_555
H40_3 C46_3 1_555 1_555
C48_3 C46_3 1_555 1_555
H41_3 C47_3 1_555 1_555
O7_5 P2_5 1_555 1_555
O8_5 P3_5 1_555 1_555
O9_5 P3_5 1_555 1_555
H42_5 O9_5 1_555 1_555
O3_4 P2_5 1_555 1_555
O15_3 P3_5 1_555 1_555
Zn3 O15_3 1_555 1_555
C9_5 C10_5 1_555 1_555
N4_4 Ni1_3 1_555 1_555
C16_5 C17_5 1_555 1_555
C18_5 C19_5 1_555 1_555
C20_5 C25_3 1_555 1_555
C21_5 C23_4 1_555 1_555
C24_3 C28_3 1_555 1_555
C29_3 C30_3 1_555 1_555
C31_3 C32_3 1_555 1_555
C39_5 C44_5 1_555 1_555
C41_5 C45_5 1_555 1_555
C47_3 C48_3 1_555 1_555
Zn3_3 O1_6 1_555 1_555
O1_6 P1_6 1_555 1_555
O4_4 Zn3_3 1_555 1_555
P1_6 O5_6 1_555 1_555
O6_6 P1_6 1_555 1_555
C5_6 P1_6 1_555 1_555
H17_6 O6_6 1_555 1_555
C6_6 C5_6 1_555 1_555
C7_6 C5_6 1_555 1_555
C8_6 C6_6 1_555 1_555
H18_6 C6_6 1_555 1_555
H19_6 C7_6 1_555 1_555
C9_6 C7_6 1_555 1_555
C10_6 C8_6 1_555 1_555
H20_6 C8_6 1_555 1_555
C11_6 C10_6 1_555 1_555
C13_6 C11_6 1_555 1_555
C15_6 C13_6 1_555 1_555
H23_6 C15_6 1_555 1_555
C19_6 C15_6 1_555 1_555
C21_6 C18_6 1_555 1_555
H25_6 C19_6 1_555 1_555
C27_6 C21_6 1_555 1_555
C35_6 C27_6 1_555 1_555
C36_6 C27_6 1_555 1_555
H32_6 C35_6 1_555 1_555
C40_6 C35_6 1_555 1_555
C41_6 C36_6 1_555 1_555
H33_6 C36_6 1_555 1_555
H36_6 C40_6 1_555 1_555
C45_6 C40_6 1_555 1_555
H37_6 C41_6 1_555 1_555
P3_6 C45_6 1_555 1_555
O8_6 P3_6 1_555 1_555
O9_6 P3_6 1_555 1_555
H42_6 O9_6 1_555 1_555
O15_4 P3_6 1_555 1_555
Zn3_2 O15_4 1_555 1_555
C9_6 C10_6 1_555 1_555
C18_6 C19_6 1_555 1_555
C41_6 C45_6 1_555 1_555
N3_5 C12_5 1_555 1_555
C14_5 C12_5 1_555 1_555
Ni1_4 N3_5 1_555 1_555
C16_6 N3_5 1_555 1_555
C17_6 C14_5 1_555 1_555
H22_5 C14_5 1_555 1_555
N5_4 Ni1_4 1_555 1_555
N6_4 Ni1_4 1_555 1_555
C20_6 C16_6 1_555 1_555
H24_6 C17_6 1_555 1_555
C22_4 N5_4 1_555 1_555
C23_5 N5_4 1_555 1_555
C24_4 N6_4 1_555 1_555
C25_4 N6_4 1_555 1_555
C26_6 C20_6 1_555 1_555
C28_4 C22_4 1_555 1_555
C29_4 C22_4 1_555 1_555
C30_4 C23_5 1_555 1_555
C31_4 C24_4 1_555 1_555
C32_4 C25_4 1_555 1_555
C33_6 C26_6 1_555 1_555
C34_6 C26_6 1_555 1_555
C37_4 C28_4 1_555 1_555
H26_4 C29_4 1_555 1_555
H27_4 C30_4 1_555 1_555
H28_4 C31_4 1_555 1_555
H29_4 C32_4 1_555 1_555
H30_6 C33_6 1_555 1_555
C38_6 C33_6 1_555 1_555
C39_6 C34_6 1_555 1_555
H31_6 C34_6 1_555 1_555
C42_4 C37_4 1_555 1_555
C43_4 C37_4 1_555 1_555
H34_6 C38_6 1_555 1_555
C44_6 C38_6 1_555 1_555
H35_6 C39_6 1_555 1_555
H38_4 C42_4 1_555 1_555
C46_4 C42_4 1_555 1_555
C47_4 C43_4 1_555 1_555
H39_4 C43_4 1_555 1_555
P2_6 C44_6 1_555 1_555
H40_4 C46_4 1_555 1_555
C48_4 C46_4 1_555 1_555
H41_4 C47_4 1_555 1_555
O7_6 P2_6 1_555 1_555
P4_4 C48_4 1_555 1_555
O10_4 P4_4 1_555 1_555
O11_4 P4_4 1_555 1_555
O12_4 P4_4 1_555 1_555
H43_4 O11_4 1_555 1_555
O2_3 P2_6 1_555 1_555
O3_3 P2_6 1_555 1_555
N4_5 Ni1_4 1_555 1_555
C16_6 C17_6 1_555 1_555
C20_6 C25_4 1_555 1_555
C24_4 C28_4 1_555 1_555
C29_4 C30_4 1_555 1_555
C31_4 C32_4 1_555 1_555
C39_6 C44_6 1_555 1_555
C47_4 C48_4 1_555 1_555
Zn3 O13_4 1_555 1_555
C20_7 C16_7 1_555 1_555
H24_7 C17_7 1_555 1_555
C26_7 C20_7 1_555 1_555
C33_7 C26_7 1_555 1_555
C34_7 C26_7 1_555 1_555
H30_7 C33_7 1_555 1_555
C38_7 C33_7 1_555 1_555
C39_7 C34_7 1_555 1_555
H31_7 C34_7 1_555 1_555
H34_7 C38_7 1_555 1_555
C44_7 C38_7 1_555 1_555
H35_7 C39_7 1_555 1_555
P2_7 C44_7 1_555 1_555
O7_7 P2_7 1_555 1_555
O3_2 P2_7 1_555 1_555
C16_7 C17_7 1_555 1_555
C39_7 C44_7 1_555 1_555
Zn3_2 O1_7 1_555 1_555
O1_7 P1_7 1_555 1_555
O2_4 Zn3_2 1_555 1_555
P1_7 O5_7 1_555 1_555
O6_7 P1_7 1_555 1_555
C5_7 P1_7 1_555 1_555
H17_7 O6_7 1_555 1_555
C6_7 C5_7 1_555 1_555
C7_7 C5_7 1_555 1_555
C8_7 C6_7 1_555 1_555
H18_7 C6_7 1_555 1_555
H19_7 C7_7 1_555 1_555
C9_7 C7_7 1_555 1_555
C10_7 C8_7 1_555 1_555
H20_7 C8_7 1_555 1_555
H21_6 C9_7 1_555 1_555
C14_6 C12_6 1_555 1_555
H22_6 C14_6 1_555 1_555
C9_7 C10_7 1_555 1_555
C13_7 C11_7 1_555 1_555
N4_6 C13_7 1_555 1_555
C15_7 C13_7 1_555 1_555
C18_7 N4_6 1_555 1_555
H23_7 C15_7 1_555 1_555
C19_7 C15_7 1_555 1_555
C21_7 C18_7 1_555 1_555
H25_7 C19_7 1_555 1_555
C27_7 C21_7 1_555 1_555
C35_7 C27_7 1_555 1_555
C36_7 C27_7 1_555 1_555
H32_7 C35_7 1_555 1_555
C40_7 C35_7 1_555 1_555
C41_7 C36_7 1_555 1_555
H33_7 C36_7 1_555 1_555
H36_7 C40_7 1_555 1_555
C45_7 C40_7 1_555 1_555
H37_7 C41_7 1_555 1_555
P3_7 C45_7 1_555 1_555
O8_7 P3_7 1_555 1_555
O9_7 P3_7 1_555 1_555
H42_7 O9_7 1_555 1_555
O4_4 P3_7 1_555 1_555
C18_7 C19_7 1_555 1_555
C21_7 C23_6 1_555 1_555
C41_7 C45_7 1_555 1_555
Zn3 O1_8 1_555 1_555
O1_8 P1_8 1_555 1_555
P1_8 O5_8 1_555 1_555
O6_8 P1_8 1_555 1_555
C5_8 P1_8 1_555 1_555
H17_8 O6_8 1_555 1_555
C6_8 C5_8 1_555 1_555
C7_8 C5_8 1_555 1_555
C8_8 C6_8 1_555 1_555
H18_8 C6_8 1_555 1_555
H19_8 C7_8 1_555 1_555
C9_8 C7_8 1_555 1_555
C10_8 C8_8 1_555 1_555
H20_8 C8_8 1_555 1_555
C9_8 C10_8 1_555 1_555
C13_8 C11_8 1_555 1_555
C15_8 C13_8 1_555 1_555
H23_8 C15_8 1_555 1_555
C19_8 C15_8 1_555 1_555
C21_8 C18_8 1_555 1_555
H25_8 C19_8 1_555 1_555
C27_8 C21_8 1_555 1_555
C35_8 C27_8 1_555 1_555
C36_8 C27_8 1_555 1_555
H32_8 C35_8 1_555 1_555
C40_8 C35_8 1_555 1_555
C41_8 C36_8 1_555 1_555
H33_8 C36_8 1_555 1_555
H36_8 C40_8 1_555 1_555
C45_8 C40_8 1_555 1_555
H37_8 C41_8 1_555 1_555
P3_8 C45_8 1_555 1_555
O8_8 P3_8 1_555 1_555
O9_8 P3_8 1_555 1_555
H42_8 O9_8 1_555 1_555
O4_3 P3_8 1_555 1_555
C18_8 C19_8 1_555 1_555
C41_8 C45_8 1_555 1_555
C20_8 C16_8 1_555 1_555
H24_8 C17_8 1_555 1_555
C26_8 C20_8 1_555 1_555
C33_8 C26_8 1_555 1_555
C34_8 C26_8 1_555 1_555
H30_8 C33_8 1_555 1_555
C38_8 C33_8 1_555 1_555
C39_8 C34_8 1_555 1_555
H31_8 C34_8 1_555 1_555
H34_8 C38_8 1_555 1_555
C44_8 C38_8 1_555 1_555
H35_8 C39_8 1_555 1_555
P2_8 C44_8 1_555 1_555
O7_8 P2_8 1_555 1_555
O2_4 P2_8 1_555 1_555
O3 P2_8 1_555 1_555
C16_8 C17_8 1_555 1_555
C39_8 C44_8 1_555 1_555
N5_5 Ni1_5 1_555 1_555
N6_5 Ni1_5 1_555 1_555
C22_5 N5_5 1_555 1_555
C24_5 N6_5 1_555 1_555
C25_5 N6_5 1_555 1_555
C28_5 C22_5 1_555 1_555
C29_5 C22_5 1_555 1_555
C31_5 C24_5 1_555 1_555
C32_5 C25_5 1_555 1_555
C37_5 C28_5 1_555 1_555
H26_5 C29_5 1_555 1_555
H27_5 C30_5 1_555 1_555
H28_5 C31_5 1_555 1_555
H29_5 C32_5 1_555 1_555
C42_5 C37_5 1_555 1_555
C43_5 C37_5 1_555 1_555
H38_5 C42_5 1_555 1_555
C46_5 C42_5 1_555 1_555
C47_5 C43_5 1_555 1_555
H39_5 C43_5 1_555 1_555
H40_5 C46_5 1_555 1_555
C48_5 C46_5 1_555 1_555
H41_5 C47_5 1_555 1_555
C24_5 C28_5 1_555 1_555
C29_5 C30_5 1_555 1_555
C31_5 C32_5 1_555 1_555
C47_5 C48_5 1_555 1_555
O10_5 P4_5 1_555 1_555
O11_5 P4_5 1_555 1_555
H43_5 O11_5 1_555 1_555
N5_6 Ni1_6 1_555 1_555
N6_6 Ni1_6 1_555 1_555
C22_6 N5_6 1_555 1_555
C24_6 N6_6 1_555 1_555
C25_6 N6_6 1_555 1_555
C28_6 C22_6 1_555 1_555
C29_6 C22_6 1_555 1_555
C31_6 C24_6 1_555 1_555
C32_6 C25_6 1_555 1_555
C37_6 C28_6 1_555 1_555
H26_6 C29_6 1_555 1_555
H27_6 C30_6 1_555 1_555
H28_6 C31_6 1_555 1_555
H29_6 C32_6 1_555 1_555
C42_6 C37_6 1_555 1_555
C43_6 C37_6 1_555 1_555
H38_6 C42_6 1_555 1_555
C46_6 C42_6 1_555 1_555
C47_6 C43_6 1_555 1_555
H39_6 C43_6 1_555 1_555
H40_6 C46_6 1_555 1_555
C48_6 C46_6 1_555 1_555
H41_6 C47_6 1_555 1_555
P4_6 C48_6 1_555 1_555
O10_6 P4_6 1_555 1_555
O11_6 P4_6 1_555 1_555
O12_6 P4_6 1_555 1_555
H43_6 O11_6 1_555 1_555
C24_6 C28_6 1_555 1_555
C29_6 C30_6 1_555 1_555
C31_6 C32_6 1_555 1_555
C47_6 C48_6 1_555 1_555
C14_7 C12_7 1_555 1_555
H22_7 C14_7 1_555 1_555
O10_7 P4_7 1_555 1_555
O11_7 P4_7 1_555 1_555
H43_7 O11_7 1_555 1_555
N5_7 Ni1_7 1_555 1_555
N6_7 Ni1_7 1_555 1_555
C22_7 N5_7 1_555 1_555
C24_7 N6_7 1_555 1_555
C25_7 N6_7 1_555 1_555
C28_7 C22_7 1_555 1_555
C29_7 C22_7 1_555 1_555
C31_7 C24_7 1_555 1_555
C32_7 C25_7 1_555 1_555
C37_7 C28_7 1_555 1_555
H26_7 C29_7 1_555 1_555
H27_7 C30_7 1_555 1_555
H28_7 C31_7 1_555 1_555
H29_7 C32_7 1_555 1_555
C42_7 C37_7 1_555 1_555
C43_7 C37_7 1_555 1_555
H38_7 C42_7 1_555 1_555
C46_7 C42_7 1_555 1_555
C47_7 C43_7 1_555 1_555
H39_7 C43_7 1_555 1_555
H40_7 C46_7 1_555 1_555
C48_7 C46_7 1_555 1_555
H41_7 C47_7 1_555 1_555
C24_7 C28_7 1_555 1_555
C29_7 C30_7 1_555 1_555
C31_7 C32_7 1_555 1_555
C47_7 C48_7 1_555 1_555
C14_8 C12_8 1_555 1_555
H22_8 C14_8 1_555 1_555
N5_8 Ni1_8 1_555 1_555
N6_8 Ni1_8 1_555 1_555
C22_8 N5_8 1_555 1_555
C24_8 N6_8 1_555 1_555
C25_8 N6_8 1_555 1_555
C28_8 C22_8 1_555 1_555
C29_8 C22_8 1_555 1_555
C31_8 C24_8 1_555 1_555
C32_8 C25_8 1_555 1_555
C37_8 C28_8 1_555 1_555
H26_8 C29_8 1_555 1_555
H27_8 C30_8 1_555 1_555
H28_8 C31_8 1_555 1_555
H29_8 C32_8 1_555 1_555
C42_8 C37_8 1_555 1_555
C43_8 C37_8 1_555 1_555
H38_8 C42_8 1_555 1_555
C46_8 C42_8 1_555 1_555
C47_8 C43_8 1_555 1_555
H39_8 C43_8 1_555 1_555
H40_8 C46_8 1_555 1_555
C48_8 C46_8 1_555 1_555
H41_8 C47_8 1_555 1_555
P4_8 C48_8 1_555 1_555
O10_8 P4_8 1_555 1_555
O11_8 P4_8 1_555 1_555
O12_8 P4_8 1_555 1_555
H43_8 O11_8 1_555 1_555
C24_8 C28_8 1_555 1_555
C29_8 C30_8 1_555 1_555
C31_8 C32_8 1_555 1_555
C47_8 C48_8 1_555 1_555

#END
