
###############################################################################
#
# This file contains modified crystal structure data generated from the
# MOF subset of the Cambridge Structural Database (CSD) v543 
# hosted by the Cambridge Crystallographic Data Centre (CCDC).
#
# This work is licensed under the Creative Commons
# Attribution-NonCommercial-ShareAlike 4.0 International License.
# To view a copy of this license, visit
# http://creativecommons.org/licenses/by-nc-sa/4.0/
# or send a letter to
# Creative Commons, PO Box 1866, Mountain View, CA 94042, USA.
#
# CIF created using the CSD Python API on 29 September 2022
# The structure has been converted into the P1 space group
# The structure has a 3D framework
# The original CSD entry SOCVUC01 is in the monoclinic crystal system
# The framework has been calculated to contain at least 10.0% void space
# The void calculation uses a probe of radius 1.32A, grid spacing 0.4
#
###############################################################################

data_SOCVUC01
_chemical_formula_moiety         '(C208 H144 Cd8 N16 O48 S8)n'
_symmetry_cell_setting           triclinic
_symmetry_space_group_name_H-M   'P 1'
_symmetry_Int_Tables_number      1
_space_group_name_Hall           'P 1'
loop_
_symmetry_equiv_pos_site_id
_symmetry_equiv_pos_as_xyz
1 x,y,z
_cell_length_a                   16.3065(9)
_cell_length_b                   22.0638(13)
_cell_length_c                   16.4970(8)
_cell_angle_alpha                90
_cell_angle_beta                 114.505(4)
_cell_angle_gamma                90
_cell_volume                     5400.72
loop_
_atom_site_label
_atom_site_type_symbol
_atom_site_fract_x
_atom_site_fract_y
_atom_site_fract_z
S1 S 0.0124(3) 0.9385(2) 0.7068(3)
O3 O 0.0725(7) 0.7933(4) 0.3810(6)
O5 O 0.0967(8) 0.9213(6) 0.7796(7)
C32 C 0.0033(11) 0.8217(6) 0.3693(9)
C33 C 0.0045(9) 0.8535(5) 0.4534(9)
C34 C 0.0676(11) 0.8347(8) 0.5381(10)
H25 H 0.1086 0.8043 0.5422
C35 C 0.0696(12) 0.8607(9) 0.6152(10)
H26 H 0.1108 0.8476 0.6708
C36 C 0.0101(11) 0.9060(8) 0.6082(9)
Cd3 Cd 0.06097(7) 0.73757(4) 0.26480(6)
C18 C 0.6153(13) 0.0008(8) 0.0240(11)
C19 C 0.6320(13) 0.0580(7) 0.0092(12)
N4 N 0.6832(9) 0.2025(6) 0.1925(8)
C20 C 0.6889(12) 0.1453(6) 0.2189(10)
H17 H 0.7016 0.1374 0.2783
C21 C 0.6769(13) 0.0981(7) 0.1630(10)
H18 H 0.6847 0.0587 0.1849
C22 C 0.6535(12) 0.1081(8) 0.0746(10)
C23 C 0.6469(15) 0.1692(8) 0.0475(12)
C24 C 0.6632(14) 0.2141(7) 0.1083(11)
H20 H 0.6602 0.2542 0.0899
Cd5 Cd 0.70047(7) 0.28129(4) 0.29395(6)
Cd1 Cd 0.56097(7) 0.76243(4) 0.76480(6)
O1 O 0.7243(7) 0.7721(5) 0.8111(7)
O2 O 0.6262(7) 0.8226(4) 0.6936(6)
O4 O 0.9326(7) 0.8235(5) 0.3005(6)
O6 O 0.9871(10) 0.9993(5) 0.6871(9)
N1 N 0.5564(8) 0.6831(4) 0.6719(7)
C1 C 0.5627(12) 0.6956(7) 0.5934(9)
H1 H 0.5551 0.7352 0.5723
C2 C 0.5799(15) 0.6509(9) 0.5457(11)
H2 H 0.5874 0.6617 0.4947
C3 C 0.5868(12) 0.5913(8) 0.5687(10)
C4 C 0.5737(10) 0.5782(6) 0.6449(9)
H3 H 0.5753 0.5382 0.6634
C5 C 0.5577(11) 0.6258(6) 0.6946(10)
H4 H 0.5479 0.6162 0.7447
C6 C 0.6093(14) 0.5464(7) 0.5172(11)
H5 H 0.6008 0.5572 0.4597
C7 C 0.6408(13) 0.4914(7) 0.5445(11)
H6 H 0.6530 0.4816 0.6032
N2 N 0.6931(8) 0.3552(5) 0.3907(7)
C8 C 0.6704(12) 0.4122(6) 0.3604(9)
H7 H 0.6641 0.4208 0.3029
C9 C 0.6561(11) 0.4575(7) 0.4076(9)
H8 H 0.6450 0.4966 0.3848
C10 C 0.6584(10) 0.4449(6) 0.4910(9)
C11 C 0.6823(12) 0.3876(7) 0.5230(10)
H9 H 0.6891 0.3785 0.5805
C12 C 0.6966(11) 0.3432(6) 0.4725(9)
H10 H 0.7090 0.3039 0.4949
N3 N 0.5655(9) 0.8461(5) 0.8530(7)
C13 C 0.5715(10) 0.8402(7) 0.9357(9)
H11 H 0.5661 0.8020 0.9568
C14 C 0.5856(11) 0.8904(8) 0.9906(10)
C15 C 0.5951(13) 0.9473(8) 0.9639(9)
C16 C 0.5904(12) 0.9538(7) 0.8787(10)
H13 H 0.5973 0.9914 0.8569
C17 C 0.5750(12) 0.9021(7) 0.8272(10)
H14 H 0.5710 0.9066 0.7696
C25 C 0.7075(9) 0.8130(7) 0.7505(9)
C26 C 0.7816(8) 0.8398(5) 0.7402(7)
C27 C 0.8668(8) 0.8139(6) 0.7898(10)
H21 H 0.8765 0.7816 0.8290
C28 C 0.9381(10) 0.8433(7) 0.7725(10)
H22 H 0.9949 0.8257 0.7942
C29 C 0.9232(9) 0.8976(6) 0.7242(10)
C30 C 0.8381(10) 0.9245(6) 0.6827(11)
H23 H 0.8296 0.9609 0.6518
C31 C 0.7656(10) 0.8933(6) 0.6904(11)
H24 H 0.7073 0.9084 0.6623
C37 C 0.9496(14) 0.9258(6) 0.5269(14)
H27 H 0.9109 0.9576 0.5234
C38 C 0.9453(13) 0.8977(7) 0.4467(11)
H28 H 0.9024 0.9098 0.3913
Cd2 Cd 0.79953(7) 0.78129(4) 0.20605(6)
S2 S 0.3746(3) 0.95725(18) 0.3145(3)
O7 O 0.6380(8) 0.7906(5) 0.1756(7)
O8 O 0.7389(8) 0.8500(5) 0.2729(8)
O9 O 0.4178(7) 0.7914(5) 0.6714(6)
O10 O 0.2701(7) 0.7854(4) 0.5919(6)
O12 O 0.2911(8) 0.9543(5) 0.2385(7)
C39 C 0.6611(12) 0.8313(7) 0.2319(10)
C40 C 0.5880(10) 0.8647(7) 0.2524(10)
C41 C 0.6117(12) 0.9164(7) 0.3032(10)
H29 H 0.6693 0.9328 0.3236
C42 C 0.5432(11) 0.9430(7) 0.3224(11)
H30 H 0.5566 0.9772 0.3586
C43 C 0.4582(10) 0.9203(7) 0.2895(10)
C44 C 0.4358(11) 0.8692(8) 0.2388(10)
H31 H 0.3774 0.8541 0.2176
C45 C 0.4996(11) 0.8397(7) 0.2187(10)
H32 H 0.4854 0.8047 0.1843
C46 C 0.3472(10) 0.8045(6) 0.6034(8)
C47 C 0.3526(9) 0.8429(5) 0.5317(8)
C48 C 0.4330(10) 0.8744(6) 0.5482(9)
H33 H 0.4818 0.8711 0.6033
C49 C 0.4391(10) 0.9104(7) 0.4821(9)
H34 H 0.4910 0.9326 0.4925
C50 C 0.3658(10) 0.9125(6) 0.4002(9)
C51 C 0.2882(11) 0.8801(7) 0.3829(10)
H35 H 0.2410 0.8812 0.3264
C52 C 0.2806(11) 0.8452(7) 0.4507(9)
H36 H 0.2279 0.8241 0.4406
O13 O 0.5725(7) 0.7067(4) 0.8810(6)
N5 N 0.8069(8) 0.8552(5) 0.1093(7)
N6 N 0.8168(9) 0.7025(6) 0.3075(8)
Cd6 Cd 0.29953(7) 0.71871(4) 0.70605(6)
O14 O 0.9178(7) 0.7086(5) 0.1714(6)
O15 O 0.7701(7) 0.7146(4) 0.0919(6)
O9_2 O 0.0822(7) 0.2914(5) 0.8286(6)
O10_2 O 0.2299(7) 0.2854(4) 0.9081(6)
C46_2 C 0.1528(10) 0.3045(6) 0.8966(8)
C47_2 C 0.1474(9) 0.3429(5) 0.9683(8)
C48_2 C 0.0670(10) 0.3744(6) 0.9518(9)
H33_2 H 0.0182 0.3711 0.8967
Cd6_2 Cd 0.20047(7) 0.21871(4) 0.79395(6)
O3_2 O 0.4275(7) 0.2933(4) 0.1190(6)
O4_2 O 0.5674(7) 0.3235(5) 0.1995(6)
H2_2 H 0.9126 0.1617 0.0053
H5_2 H 0.8992 0.0572 0.0403
C32_2 C 0.4967(11) 0.3217(6) 0.1307(9)
C33_2 C 0.4955(9) 0.3535(5) 0.0466(9)
C38_2 C 0.5547(13) 0.3977(7) 0.0533(11)
H28_2 H 0.5976 0.4098 0.1087
O7_2 O 0.8620(8) 0.2906(5) 0.3244(7)
O8_2 O 0.7611(8) 0.3500(5) 0.2271(8)
C39_2 C 0.8389(12) 0.3313(7) 0.2681(10)
C40_2 C 0.9120(10) 0.3647(7) 0.2476(10)
C41_2 C 0.8883(12) 0.4164(7) 0.1968(10)
H29_2 H 0.8307 0.4328 0.1764
C42_2 C 0.9568(11) 0.4430(7) 0.1776(11)
H30_2 H 0.9434 0.4772 0.1414
Cd3_2 Cd 0.43903(7) 0.23757(4) 0.23520(6)
O14_2 O 0.5822(7) 0.2086(5) 0.3286(6)
O15_2 O 0.7299(7) 0.2146(4) 0.4081(6)
Cd1_2 Cd 0.93903(7) 0.26243(4) 0.73520(6)
S1_2 S 0.4876(3) 0.4385(2) 0.7932(3)
O1_2 O 0.7757(7) 0.2721(5) 0.6889(7)
O2_2 O 0.8738(7) 0.3226(4) 0.8064(6)
O5_2 O 0.4033(8) 0.4213(6) 0.7204(7)
O6_2 O 0.5129(10) 0.4993(5) 0.8129(9)
N1_2 N 0.9436(8) 0.1831(4) 0.8281(7)
C1_2 C 0.9373(12) 0.1956(7) 0.9066(9)
H1_2 H 0.9449 0.2352 0.9277
C2_2 C 0.9201(15) 0.1509(9) 0.9543(11)
C3_2 C 0.9132(12) 0.0913(8) 0.9313(10)
C4_2 C 0.9263(10) 0.0782(6) 0.8551(9)
H3_2 H 0.9247 0.0382 0.8366
C5_2 C 0.9423(11) 0.1258(6) 0.8054(10)
H4_2 H 0.9521 0.1162 0.7553
C6_2 C 0.8907(14) 0.0464(7) 0.9828(11)
N3_2 N 0.9345(9) 0.3461(5) 0.6470(7)
C13_2 C 0.9285(10) 0.3402(7) 0.5643(9)
H11_2 H 0.9339 0.3020 0.5432
C14_2 C 0.9144(11) 0.3904(8) 0.5094(10)
H12 H 0.9113 0.3850 0.4523
C15_2 C 0.9049(13) 0.4473(8) 0.5361(9)
C16_2 C 0.9096(12) 0.4538(7) 0.6213(10)
H13_2 H 0.9027 0.4914 0.6431
C17_2 C 0.9250(12) 0.4021(7) 0.6728(10)
H14_2 H 0.9290 0.4066 0.7304
C18_2 C 0.8847(13) 0.5008(8) 0.4760(11)
H15 H 0.8834 0.4933 0.4200
C19_2 C 0.8680(13) 0.5580(7) 0.4908(12)
H16 H 0.8701 0.5672 0.5466
C20_2 C 0.8111(12) 0.6453(6) 0.2811(10)
H17_2 H 0.7984 0.6374 0.2217
C21_2 C 0.8231(13) 0.5981(7) 0.3370(10)
H18_2 H 0.8153 0.5587 0.3151
C22_2 C 0.8465(12) 0.6081(8) 0.4254(10)
C23_2 C 0.8531(15) 0.6692(8) 0.4525(12)
H19 H 0.8685 0.6787 0.5120
C24_2 C 0.8368(14) 0.7141(7) 0.3917(11)
H20_2 H 0.8398 0.7542 0.4101
C25_2 C 0.7925(9) 0.3130(7) 0.7495(9)
C26_2 C 0.7184(8) 0.3398(5) 0.7598(7)
C27_2 C 0.6332(8) 0.3139(6) 0.7102(10)
H21_2 H 0.6235 0.2816 0.6710
C28_2 C 0.5619(10) 0.3433(7) 0.7275(10)
H22_2 H 0.5051 0.3257 0.7058
C29_2 C 0.5768(9) 0.3976(6) 0.7758(10)
C30_2 C 0.6619(10) 0.4245(6) 0.8173(11)
H23_2 H 0.6704 0.4609 0.8482
C31_2 C 0.7344(10) 0.3933(6) 0.8096(11)
H24_2 H 0.7927 0.4084 0.8377
C34_2 C 0.4324(11) 0.3347(8) 0.9619(10)
H25_2 H 0.3914 0.3043 0.9578
C35_2 C 0.4304(12) 0.3607(9) 0.8848(10)
H26_2 H 0.3892 0.3476 0.8292
C36_2 C 0.4899(11) 0.4060(8) 0.8918(9)
C37_2 C 0.5504(14) 0.4258(6) 0.9731(14)
H27_2 H 0.5891 0.4576 0.9766
O13_2 O 0.9275(7) 0.2067(4) 0.6190(6)
C8_2 C 0.8296(12) 0.9122(6) 0.1396(9)
H7_2 H 0.8359 0.9208 0.1971
C9_2 C 0.8439(11) 0.9575(7) 0.0924(9)
H8_2 H 0.8550 0.9966 0.1152
C10_2 C 0.8416(10) 0.9449(6) 0.0090(9)
C12_2 C 0.8034(11) 0.8432(6) 0.0275(9)
H10_2 H 0.7910 0.8039 0.0051
O1_3 O 0.2757(7) 0.2279(5) 0.1889(7)
O2_3 O 0.3738(7) 0.1774(4) 0.3064(6)
O4_3 O 0.0674(7) 0.1765(5) 0.6995(6)
O6_3 O 0.0129(10) 0.0007(5) 0.3129(9)
N1_3 N 0.4436(8) 0.3169(4) 0.3281(7)
C1_3 C 0.4373(12) 0.3044(7) 0.4066(9)
H1_3 H 0.4449 0.2648 0.4277
C2_3 C 0.4201(15) 0.3491(9) 0.4543(11)
H2_3 H 0.4126 0.3383 0.5053
C3_3 C 0.4132(12) 0.4087(8) 0.4313(10)
C4_3 C 0.4263(10) 0.4218(6) 0.3551(9)
H3_3 H 0.4247 0.4618 0.3366
C5_3 C 0.4423(11) 0.3742(6) 0.3054(10)
H4_3 H 0.4521 0.3838 0.2553
C6_3 C 0.3907(14) 0.4536(7) 0.4828(11)
H5_3 H 0.3992 0.4428 0.5403
C7_2 C 0.3592(13) 0.5086(7) 0.4555(11)
H6_2 H 0.3470 0.5184 0.3968
N2_2 N 0.3069(8) 0.6448(5) 0.6093(7)
C8_3 C 0.3296(12) 0.5878(6) 0.6396(9)
H7_3 H 0.3359 0.5792 0.6971
C9_3 C 0.3439(11) 0.5425(7) 0.5924(9)
H8_3 H 0.3550 0.5034 0.6152
C10_3 C 0.3416(10) 0.5551(6) 0.5090(9)
C11_2 C 0.3177(12) 0.6124(7) 0.4770(10)
H9_2 H 0.3109 0.6215 0.4195
C12_3 C 0.3034(11) 0.6568(6) 0.5275(9)
H10_3 H 0.2910 0.6961 0.5051
N3_3 N 0.4345(9) 0.1539(5) 0.1470(7)
C13_3 C 0.4285(10) 0.1598(7) 0.0643(9)
H11_3 H 0.4339 0.1980 0.0432
C14_3 C 0.4144(11) 0.1096(8) 0.0094(10)
C15_3 C 0.4049(13) 0.0527(8) 0.0361(9)
C16_3 C 0.4096(12) 0.0462(7) 0.1213(10)
H13_3 H 0.4027 0.0086 0.1431
C17_3 C 0.4250(12) 0.0979(7) 0.1728(10)
H14_3 H 0.4290 0.0934 0.2304
C25_3 C 0.2925(9) 0.1870(7) 0.2495(9)
C26_3 C 0.2184(8) 0.1602(5) 0.2598(7)
C27_3 C 0.1332(8) 0.1861(6) 0.2102(10)
H21_3 H 0.1235 0.2184 0.1710
C28_3 C 0.0619(10) 0.1567(7) 0.2275(10)
H22_3 H 0.0051 0.1743 0.2058
C29_3 C 0.0768(9) 0.1024(6) 0.2758(10)
C30_3 C 0.1619(10) 0.0755(6) 0.3173(11)
H23_3 H 0.1704 0.0391 0.3482
C31_3 C 0.2344(10) 0.1067(6) 0.3096(11)
H24_3 H 0.2927 0.0916 0.3377
C37_3 C 0.0504(14) 0.0742(6) 0.4731(14)
H27_3 H 0.0891 0.0424 0.4766
C38_3 C 0.0547(13) 0.1023(7) 0.5533(11)
H28_3 H 0.0976 0.0902 0.6087
S2_2 S 0.6254(3) 0.04275(18) 0.6855(3)
O7_3 O 0.3620(8) 0.2094(5) 0.8244(7)
O8_3 O 0.2611(8) 0.1500(5) 0.7271(8)
O12_2 O 0.7089(8) 0.0457(5) 0.7615(7)
C39_3 C 0.3389(12) 0.1687(7) 0.7681(10)
C40_3 C 0.4120(10) 0.1353(7) 0.7476(10)
C41_3 C 0.3883(12) 0.0836(7) 0.6968(10)
H29_3 H 0.3307 0.0672 0.6764
C42_3 C 0.4568(11) 0.0570(7) 0.6776(11)
H30_3 H 0.4434 0.0228 0.6414
C43_2 C 0.5418(10) 0.0797(7) 0.7105(10)
C44_2 C 0.5642(11) 0.1308(8) 0.7612(10)
H31_2 H 0.6226 0.1459 0.7824
C45_2 C 0.5004(11) 0.1603(7) 0.7813(10)
H32_2 H 0.5146 0.1953 0.8157
C46_3 C 0.6528(10) 0.1955(6) 0.3966(8)
C47_3 C 0.6474(9) 0.1571(5) 0.4683(8)
C48_3 C 0.5670(10) 0.1256(6) 0.4518(9)
H33_3 H 0.5182 0.1289 0.3967
C49_2 C 0.5609(10) 0.0896(7) 0.5179(9)
H34_2 H 0.5090 0.0674 0.5075
C50_2 C 0.6342(10) 0.0875(6) 0.5998(9)
C51_2 C 0.7118(11) 0.1199(7) 0.6171(10)
H35_2 H 0.7590 0.1188 0.6736
C52_2 C 0.7194(11) 0.1548(7) 0.5493(9)
H36_2 H 0.7721 0.1759 0.5594
N5_2 N 0.1931(8) 0.1448(5) 0.8907(7)
N6_2 N 0.1832(9) 0.2975(6) 0.6925(8)
C18_3 C 0.3847(13) 0.9992(8) 0.9760(11)
C19_3 C 0.3680(13) 0.9420(7) 0.9908(12)
N4_2 N 0.3168(9) 0.7975(6) 0.8075(8)
C20_3 C 0.3111(12) 0.8547(6) 0.7811(10)
H17_3 H 0.2984 0.8626 0.7217
C21_3 C 0.3231(13) 0.9019(7) 0.8370(10)
H18_3 H 0.3153 0.9413 0.8151
C22_3 C 0.3465(12) 0.8919(8) 0.9254(10)
C23_3 C 0.3531(15) 0.8308(8) 0.9525(12)
C24_3 C 0.3368(14) 0.7859(7) 0.8917(11)
H20_3 H 0.3398 0.7458 0.9101
S1_3 S 0.9876(3) 0.0615(2) 0.2932(3)
O5_3 O 0.9033(8) 0.0787(6) 0.2204(7)
C32_3 C 0.9967(11) 0.1783(6) 0.6307(9)
C33_3 C 0.9955(9) 0.1465(5) 0.5466(9)
C34_3 C 0.9324(11) 0.1653(8) 0.4619(10)
H25_3 H 0.8914 0.1957 0.4578
C35_3 C 0.9304(12) 0.1393(9) 0.3848(10)
H26_3 H 0.8892 0.1524 0.3292
C36_3 C 0.9899(11) 0.0940(8) 0.3918(9)
C8_4 C 0.1704(12) 0.0878(6) 0.8604(9)
H7_4 H 0.1641 0.0792 0.8029
C9_4 C 0.1561(11) 0.0425(7) 0.9076(9)
H8_4 H 0.1450 0.0034 0.8848
C10_4 C 0.1584(10) 0.0551(6) 0.9910(9)
C12_4 C 0.1966(11) 0.1568(6) 0.9725(9)
H10_4 H 0.2090 0.1961 0.9949
S1_4 S 0.5124(3) 0.5615(2) 0.2068(3)
O1_4 O 0.2243(7) 0.7279(5) 0.3111(7)
O2_4 O 0.1262(7) 0.6774(4) 0.1936(6)
O5_4 O 0.5967(8) 0.5787(6) 0.2796(7)
O6_4 O 0.4871(10) 0.5007(5) 0.1871(9)
N1_4 N 0.0564(8) 0.8169(4) 0.1719(7)
C1_4 C 0.0627(12) 0.8044(7) 0.0934(9)
H1_4 H 0.0551 0.7648 0.0723
C2_4 C 0.0799(15) 0.8491(9) 0.0457(11)
C3_4 C 0.0868(12) 0.9087(8) 0.0687(10)
C4_4 C 0.0737(10) 0.9218(6) 0.1449(9)
H3_4 H 0.0753 0.9618 0.1634
C5_4 C 0.0577(11) 0.8742(6) 0.1946(10)
H4_4 H 0.0479 0.8838 0.2447
C6_4 C 0.1093(14) 0.9536(7) 0.0172(11)
N3_4 N 0.0655(9) 0.6539(5) 0.3530(7)
C13_4 C 0.0715(10) 0.6598(7) 0.4357(9)
H11_4 H 0.0661 0.6980 0.4568
C14_4 C 0.0856(11) 0.6096(8) 0.4906(10)
H12_2 H 0.0887 0.6150 0.5477
C15_4 C 0.0951(13) 0.5527(8) 0.4639(9)
C16_4 C 0.0904(12) 0.5462(7) 0.3787(10)
H13_4 H 0.0973 0.5086 0.3569
C17_4 C 0.0750(12) 0.5979(7) 0.3272(10)
H14_4 H 0.0710 0.5934 0.2696
C18_4 C 0.1153(13) 0.4992(8) 0.5240(11)
H15_2 H 0.1166 0.5067 0.5800
C19_4 C 0.1320(13) 0.4420(7) 0.5092(12)
H16_2 H 0.1299 0.4328 0.4534
C20_4 C 0.1889(12) 0.3547(6) 0.7189(10)
H17_4 H 0.2016 0.3626 0.7783
C21_4 C 0.1769(13) 0.4019(7) 0.6630(10)
H18_4 H 0.1847 0.4413 0.6849
C22_4 C 0.1535(12) 0.3919(8) 0.5746(10)
C23_4 C 0.1469(15) 0.3308(8) 0.5475(12)
H19_2 H 0.1315 0.3213 0.4880
C24_4 C 0.1632(14) 0.2859(7) 0.6083(11)
H20_4 H 0.1602 0.2458 0.5899
C25_4 C 0.2075(9) 0.6870(7) 0.2505(9)
C26_4 C 0.2816(8) 0.6602(5) 0.2402(7)
C27_4 C 0.3668(8) 0.6861(6) 0.2898(10)
H21_4 H 0.3765 0.7184 0.3290
C28_4 C 0.4381(10) 0.6567(7) 0.2725(10)
H22_4 H 0.4949 0.6743 0.2942
C29_4 C 0.4232(9) 0.6024(6) 0.2242(10)
C30_4 C 0.3381(10) 0.5755(6) 0.1827(11)
H23_4 H 0.3296 0.5391 0.1518
C31_4 C 0.2656(10) 0.6067(6) 0.1904(11)
H24_4 H 0.2073 0.5916 0.1623
C34_4 C 0.5676(11) 0.6653(8) 0.0381(10)
H25_4 H 0.6086 0.6957 0.0422
C35_4 C 0.5696(12) 0.6393(9) 0.1152(10)
H26_4 H 0.6108 0.6524 0.1708
C36_4 C 0.5101(11) 0.5940(8) 0.1082(9)
C37_4 C 0.4496(14) 0.5742(6) 0.0269(14)
H27_4 H 0.4109 0.5424 0.0234
O4_4 O 0.4326(7) 0.6765(5) 0.8005(6)
H2_4 H 0.0874 0.8383 0.9947
H5_4 H 0.1008 0.9428 0.9597
C32_4 C 0.5033(11) 0.6783(6) 0.8693(9)
C33_4 C 0.5045(9) 0.6465(5) 0.9534(9)
C38_4 C 0.4453(13) 0.6023(7) 0.9467(11)
H28_4 H 0.4024 0.5902 0.8913
O7_4 O 0.1380(8) 0.7094(5) 0.6756(7)
O8_4 O 0.2389(8) 0.6500(5) 0.7729(8)
C39_4 C 0.1611(12) 0.6687(7) 0.7319(10)
C40_4 C 0.0880(10) 0.6353(7) 0.7524(10)
C41_4 C 0.1117(12) 0.5836(7) 0.8032(10)
H29_4 H 0.1693 0.5672 0.8236
C42_4 C 0.0432(11) 0.5570(7) 0.8224(11)
H30_4 H 0.0566 0.5228 0.8586
C46_4 C 0.8472(10) 0.6955(6) 0.1034(8)
C47_4 C 0.8526(9) 0.6571(5) 0.0317(8)
C48_4 C 0.9330(10) 0.6256(6) 0.0482(9)
H33_4 H 0.9818 0.6289 0.1033
H16_3 H 0.6299 0.0672 0.9534
H19_3 H 0.6315 0.1787 0.9880
O11 O 0.4106(8) 0.0159(5) 0.3517(8)
H12_3 H 0.5887 0.8850 0.0477
H15_3 H 0.6166 0.9933 0.0800
S2_3 S 0.1254(3) 0.45725(18) 0.1855(3)
O11_2 O 0.0894(8) 0.5159(5) 0.1483(8)
O12_3 O 0.2089(8) 0.4543(5) 0.2615(7)
C43_3 C 0.0418(10) 0.4203(7) 0.2105(10)
C44_3 C 0.0642(11) 0.3692(8) 0.2612(10)
H31_3 H 0.1226 0.3541 0.2824
C45_3 C 0.0004(11) 0.3397(7) 0.2813(10)
H32_3 H 0.0146 0.3047 0.3157
C49_3 C 0.0609(10) 0.4104(7) 0.0179(9)
H34_3 H 0.0090 0.4326 0.0075
C50_3 C 0.1342(10) 0.4125(6) 0.0998(9)
C51_3 C 0.2118(11) 0.3801(7) 0.1171(10)
H35_3 H 0.2590 0.3812 0.1736
C52_3 C 0.2194(11) 0.3452(7) 0.0493(9)
H36_3 H 0.2721 0.3241 0.0594
C7_3 C 0.8592(13) 0.9914(7) 0.9555(11)
H6_3 H 0.8470 0.9816 0.8968
C11_3 C 0.8177(12) 0.8876(7) 0.9770(10)
H9_3 H 0.8109 0.8785 0.9195
H12_4 H 0.4113 0.1150 0.9523
H15_4 H 0.3834 0.0067 0.9200
H16_4 H 0.3701 0.9328 0.0466
H19_4 H 0.3685 0.8213 0.0120
O11_3 O 0.5894(8) 0.9841(5) 0.6483(8)
C7_4 C 0.1408(13) 0.0086(7) 0.0445(11)
H6_4 H 0.1530 0.0184 0.1032
C11_4 C 0.1823(12) 0.1124(7) 0.0230(10)
H9_4 H 0.1891 0.1215 0.0805
S2_4 S 0.8746(3) 0.54275(18) 0.8145(3)
O11_4 O 0.9106(8) 0.4841(5) 0.8517(8)
O12_4 O 0.7911(8) 0.5457(5) 0.7385(7)
C43_4 C 0.9582(10) 0.5797(7) 0.7895(10)
C44_4 C 0.9358(11) 0.6308(8) 0.7388(10)
H31_4 H 0.8774 0.6459 0.7176
C45_4 C 0.9996(11) 0.6603(7) 0.7187(10)
H32_4 H 0.9854 0.6953 0.6843
C49_4 C 0.9391(10) 0.5896(7) 0.9821(9)
H34_4 H 0.9910 0.5674 0.9925
C50_4 C 0.8658(10) 0.5875(6) 0.9002(9)
C51_4 C 0.7882(11) 0.6199(7) 0.8829(10)
H35_4 H 0.7410 0.6188 0.8264
C52_4 C 0.7806(11) 0.6548(7) 0.9507(9)
H36_4 H 0.7279 0.6759 0.9406
loop_
_geom_bond_atom_site_label_1
_geom_bond_atom_site_label_2
_geom_bond_site_symmetry_1
_geom_bond_site_symmetry_2
S1 O5 1_555 1_555
O3 C32 1_555 1_555
C32 C33 1_555 1_555
C33 C34 1_555 1_555
C34 H25 1_555 1_555
C35 C34 1_555 1_555
H26 C35 1_555 1_555
C36 S1 1_555 1_555
Cd3 O3 1_555 1_555
C35 C36 1_555 1_555
C19 C18 1_555 1_555
N4 C20 1_555 1_555
C20 H17 1_555 1_555
C21 C20 1_555 1_555
H18 C21 1_555 1_555
C22 C19 1_555 1_555
C23 C22 1_555 1_555
C24 N4 1_555 1_555
H20 C24 1_555 1_555
Cd5 N4 1_555 1_555
C21 C22 1_555 1_555
C23 C24 1_555 1_555
Cd1 O1 1_555 1_555
O1 C25 1_555 1_555
O2 Cd1 1_555 1_555
N1 Cd1 1_555 1_555
C1 N1 1_555 1_555
H1 C1 1_555 1_555
C2 C1 1_555 1_555
H2 C2 1_555 1_555
C3 C2 1_555 1_555
C4 C3 1_555 1_555
H3 C4 1_555 1_555
C5 N1 1_555 1_555
H4 C5 1_555 1_555
C6 C3 1_555 1_555
H5 C6 1_555 1_555
C7 C6 1_555 1_555
H6 C7 1_555 1_555
N2 C8 1_555 1_555
C8 H7 1_555 1_555
C9 C8 1_555 1_555
H8 C9 1_555 1_555
C10 C7 1_555 1_555
C11 C10 1_555 1_555
H9 C11 1_555 1_555
C12 N2 1_555 1_555
H10 C12 1_555 1_555
N3 Cd1 1_555 1_555
C13 N3 1_555 1_555
H11 C13 1_555 1_555
C14 C13 1_555 1_555
C15 C14 1_555 1_555
C16 C15 1_555 1_555
H13 C16 1_555 1_555
C17 N3 1_555 1_555
H14 C17 1_555 1_555
C25 O2 1_555 1_555
C26 C25 1_555 1_555
C27 C26 1_555 1_555
H21 C27 1_555 1_555
C28 C27 1_555 1_555
H22 C28 1_555 1_555
C30 C29 1_555 1_555
H23 C30 1_555 1_555
C31 C26 1_555 1_555
H24 C31 1_555 1_555
H27 C37 1_555 1_555
H28 C38 1_555 1_555
Cd2 O4 1_555 1_555
O7 Cd2 1_555 1_555
O8 Cd2 1_555 1_555
O9 Cd1 1_555 1_555
O10 C46 1_555 1_555
O12 S2 1_555 1_555
C39 O7 1_555 1_555
C40 C39 1_555 1_555
C41 C40 1_555 1_555
H29 C41 1_555 1_555
C42 C41 1_555 1_555
H30 C42 1_555 1_555
C43 S2 1_555 1_555
C44 C43 1_555 1_555
H31 C44 1_555 1_555
C45 C40 1_555 1_555
H32 C45 1_555 1_555
C46 O9 1_555 1_555
C47 C46 1_555 1_555
C48 C47 1_555 1_555
H33 C48 1_555 1_555
C49 C48 1_555 1_555
H34 C49 1_555 1_555
C50 S2 1_555 1_555
C51 C50 1_555 1_555
H35 C51 1_555 1_555
C52 C47 1_555 1_555
H36 C52 1_555 1_555
O13 Cd1 1_555 1_555
N5 Cd2 1_555 1_555
N6 Cd2 1_555 1_555
Cd5 N2 1_555 1_555
Cd6 O9 1_555 1_555
O14 Cd2 1_555 1_555
O15 Cd2 1_555 1_555
C4 C5 1_555 1_555
C9 C10 1_555 1_555
C11 C12 1_555 1_555
C16 C17 1_555 1_555
C28 C29 1_555 1_555
C30 C31 1_555 1_555
C37 C38 1_555 1_555
O8 C39 1_555 1_555
O10 Cd6 1_555 1_555
C42 C43 1_555 1_555
C44 C45 1_555 1_555
C49 C50 1_555 1_555
C51 C52 1_555 1_555
O10_2 C46_2 1_555 1_555
C46_2 O9_2 1_555 1_555
C47_2 C46_2 1_555 1_555
C48_2 C47_2 1_555 1_555
H33_2 C48_2 1_555 1_555
Cd6_2 O9_2 1_555 1_555
O10_2 Cd6_2 1_555 1_555
O3_2 C32_2 1_555 1_555
O4_2 C32_2 1_555 1_555
C32_2 C33_2 1_555 1_555
C38_2 C33_2 1_555 1_555
H28_2 C38_2 1_555 1_555
Cd5 O4_2 1_555 1_555
O7_2 Cd5 1_555 1_555
O8_2 Cd5 1_555 1_555
C39_2 O7_2 1_555 1_555
C40_2 C39_2 1_555 1_555
C41_2 C40_2 1_555 1_555
H29_2 C41_2 1_555 1_555
C42_2 C41_2 1_555 1_555
H30_2 C42_2 1_555 1_555
Cd3_2 O3_2 1_555 1_555
O14_2 Cd5 1_555 1_555
O15_2 Cd5 1_555 1_555
O8_2 C39_2 1_555 1_555
Cd3_2 O14_2 1_555 1_555
Cd1_2 O1_2 1_555 1_555
S1_2 O5_2 1_555 1_555
O1_2 C25_2 1_555 1_555
O2_2 Cd1_2 1_555 1_555
O6_2 S1_2 1_555 1_555
N1_2 Cd1_2 1_555 1_555
C1_2 N1_2 1_555 1_555
H1_2 C1_2 1_555 1_555
C2_2 C1_2 1_555 1_555
C3_2 C2_2 1_555 1_555
C4_2 C3_2 1_555 1_555
H3_2 C4_2 1_555 1_555
C5_2 N1_2 1_555 1_555
H4_2 C5_2 1_555 1_555
C6_2 C3_2 1_555 1_555
N3_2 Cd1_2 1_555 1_555
C13_2 N3_2 1_555 1_555
H11_2 C13_2 1_555 1_555
C14_2 C13_2 1_555 1_555
H12 C14_2 1_555 1_555
C15_2 C14_2 1_555 1_555
C16_2 C15_2 1_555 1_555
H13_2 C16_2 1_555 1_555
C17_2 N3_2 1_555 1_555
H14_2 C17_2 1_555 1_555
C18_2 C15_2 1_555 1_555
H15 C18_2 1_555 1_555
C19_2 C18_2 1_555 1_555
H16 C19_2 1_555 1_555
N6 C20_2 1_555 1_555
C20_2 H17_2 1_555 1_555
C21_2 C20_2 1_555 1_555
H18_2 C21_2 1_555 1_555
C22_2 C19_2 1_555 1_555
C23_2 C22_2 1_555 1_555
H19 C23_2 1_555 1_555
C24_2 N6 1_555 1_555
H20_2 C24_2 1_555 1_555
C25_2 O2_2 1_555 1_555
C26_2 C25_2 1_555 1_555
C27_2 C26_2 1_555 1_555
H21_2 C27_2 1_555 1_555
C28_2 C27_2 1_555 1_555
H22_2 C28_2 1_555 1_555
C29_2 S1_2 1_555 1_555
C30_2 C29_2 1_555 1_555
H23_2 C30_2 1_555 1_555
C31_2 C26_2 1_555 1_555
H24_2 C31_2 1_555 1_555
C34_2 H25_2 1_555 1_555
C35_2 C34_2 1_555 1_555
H26_2 C35_2 1_555 1_555
C36_2 S1_2 1_555 1_555
C37_2 C36_2 1_555 1_555
H27_2 C37_2 1_555 1_555
O13_2 Cd1_2 1_555 1_555
C4_2 C5_2 1_555 1_555
C16_2 C17_2 1_555 1_555
C21_2 C22_2 1_555 1_555
C23_2 C24_2 1_555 1_555
C28_2 C29_2 1_555 1_555
C30_2 C31_2 1_555 1_555
C35_2 C36_2 1_555 1_555
N5 C8_2 1_555 1_555
C8_2 H7_2 1_555 1_555
C9_2 C8_2 1_555 1_555
H8_2 C9_2 1_555 1_555
C12_2 N5 1_555 1_555
H10_2 C12_2 1_555 1_555
C9_2 C10_2 1_555 1_555
Cd3_2 O1_3 1_555 1_555
O1_3 C25_3 1_555 1_555
O2_3 Cd3_2 1_555 1_555
N1_3 Cd3_2 1_555 1_555
C1_3 N1_3 1_555 1_555
H1_3 C1_3 1_555 1_555
C2_3 C1_3 1_555 1_555
H2_3 C2_3 1_555 1_555
C3_3 C2_3 1_555 1_555
C4_3 C3_3 1_555 1_555
H3_3 C4_3 1_555 1_555
C5_3 N1_3 1_555 1_555
H4_3 C5_3 1_555 1_555
C6_3 C3_3 1_555 1_555
H5_3 C6_3 1_555 1_555
C7_2 C6_3 1_555 1_555
H6_2 C7_2 1_555 1_555
N2_2 C8_3 1_555 1_555
C8_3 H7_3 1_555 1_555
C9_3 C8_3 1_555 1_555
H8_3 C9_3 1_555 1_555
C10_3 C7_2 1_555 1_555
C11_2 C10_3 1_555 1_555
H9_2 C11_2 1_555 1_555
C12_3 N2_2 1_555 1_555
H10_3 C12_3 1_555 1_555
N3_3 Cd3_2 1_555 1_555
C13_3 N3_3 1_555 1_555
H11_3 C13_3 1_555 1_555
C14_3 C13_3 1_555 1_555
C15_3 C14_3 1_555 1_555
C16_3 C15_3 1_555 1_555
H13_3 C16_3 1_555 1_555
C17_3 N3_3 1_555 1_555
H14_3 C17_3 1_555 1_555
C25_3 O2_3 1_555 1_555
C26_3 C25_3 1_555 1_555
C27_3 C26_3 1_555 1_555
H21_3 C27_3 1_555 1_555
C28_3 C27_3 1_555 1_555
H22_3 C28_3 1_555 1_555
C30_3 C29_3 1_555 1_555
H23_3 C30_3 1_555 1_555
C31_3 C26_3 1_555 1_555
H24_3 C31_3 1_555 1_555
H27_3 C37_3 1_555 1_555
H28_3 C38_3 1_555 1_555
Cd6_2 O4_3 1_555 1_555
O7_3 Cd6_2 1_555 1_555
O8_3 Cd6_2 1_555 1_555
O15_2 C46_3 1_555 1_555
O12_2 S2_2 1_555 1_555
C39_3 O7_3 1_555 1_555
C40_3 C39_3 1_555 1_555
C41_3 C40_3 1_555 1_555
H29_3 C41_3 1_555 1_555
C42_3 C41_3 1_555 1_555
H30_3 C42_3 1_555 1_555
C43_2 S2_2 1_555 1_555
C44_2 C43_2 1_555 1_555
H31_2 C44_2 1_555 1_555
C45_2 C40_3 1_555 1_555
H32_2 C45_2 1_555 1_555
C46_3 O14_2 1_555 1_555
C47_3 C46_3 1_555 1_555
C48_3 C47_3 1_555 1_555
H33_3 C48_3 1_555 1_555
C49_2 C48_3 1_555 1_555
H34_2 C49_2 1_555 1_555
C50_2 S2_2 1_555 1_555
C51_2 C50_2 1_555 1_555
H35_2 C51_2 1_555 1_555
C52_2 C47_3 1_555 1_555
H36_2 C52_2 1_555 1_555
N5_2 Cd6_2 1_555 1_555
N6_2 Cd6_2 1_555 1_555
Cd6 N2_2 1_555 1_555
C4_3 C5_3 1_555 1_555
C9_3 C10_3 1_555 1_555
C11_2 C12_3 1_555 1_555
C16_3 C17_3 1_555 1_555
C28_3 C29_3 1_555 1_555
C30_3 C31_3 1_555 1_555
C37_3 C38_3 1_555 1_555
O8_3 C39_3 1_555 1_555
C42_3 C43_2 1_555 1_555
C44_2 C45_2 1_555 1_555
C49_2 C50_2 1_555 1_555
C51_2 C52_2 1_555 1_555
C19_3 C18_3 1_555 1_555
N4_2 C20_3 1_555 1_555
C20_3 H17_3 1_555 1_555
C21_3 C20_3 1_555 1_555
H18_3 C21_3 1_555 1_555
C22_3 C19_3 1_555 1_555
C23_3 C22_3 1_555 1_555
C24_3 N4_2 1_555 1_555
H20_3 C24_3 1_555 1_555
Cd6 N4_2 1_555 1_555
C21_3 C22_3 1_555 1_555
C23_3 C24_3 1_555 1_555
S1_3 O5_3 1_555 1_555
O13_2 C32_3 1_555 1_555
C32_3 C33_3 1_555 1_555
C33_3 C34_3 1_555 1_555
C34_3 H25_3 1_555 1_555
C35_3 C34_3 1_555 1_555
H26_3 C35_3 1_555 1_555
C36_3 S1_3 1_555 1_555
C35_3 C36_3 1_555 1_555
N5_2 C8_4 1_555 1_555
C8_4 H7_4 1_555 1_555
C9_4 C8_4 1_555 1_555
H8_4 C9_4 1_555 1_555
C12_4 N5_2 1_555 1_555
H10_4 C12_4 1_555 1_555
C9_4 C10_4 1_555 1_555
Cd3 O1_4 1_555 1_555
S1_4 O5_4 1_555 1_555
O1_4 C25_4 1_555 1_555
O2_4 Cd3 1_555 1_555
O6_4 S1_4 1_555 1_555
N1_4 Cd3 1_555 1_555
C1_4 N1_4 1_555 1_555
H1_4 C1_4 1_555 1_555
C2_4 C1_4 1_555 1_555
C3_4 C2_4 1_555 1_555
C4_4 C3_4 1_555 1_555
H3_4 C4_4 1_555 1_555
C5_4 N1_4 1_555 1_555
H4_4 C5_4 1_555 1_555
C6_4 C3_4 1_555 1_555
N3_4 Cd3 1_555 1_555
C13_4 N3_4 1_555 1_555
H11_4 C13_4 1_555 1_555
C14_4 C13_4 1_555 1_555
H12_2 C14_4 1_555 1_555
C15_4 C14_4 1_555 1_555
C16_4 C15_4 1_555 1_555
H13_4 C16_4 1_555 1_555
C17_4 N3_4 1_555 1_555
H14_4 C17_4 1_555 1_555
C18_4 C15_4 1_555 1_555
H15_2 C18_4 1_555 1_555
C19_4 C18_4 1_555 1_555
H16_2 C19_4 1_555 1_555
N6_2 C20_4 1_555 1_555
C20_4 H17_4 1_555 1_555
C21_4 C20_4 1_555 1_555
H18_4 C21_4 1_555 1_555
C22_4 C19_4 1_555 1_555
C23_4 C22_4 1_555 1_555
H19_2 C23_4 1_555 1_555
C24_4 N6_2 1_555 1_555
H20_4 C24_4 1_555 1_555
C25_4 O2_4 1_555 1_555
C26_4 C25_4 1_555 1_555
C27_4 C26_4 1_555 1_555
H21_4 C27_4 1_555 1_555
C28_4 C27_4 1_555 1_555
H22_4 C28_4 1_555 1_555
C29_4 S1_4 1_555 1_555
C30_4 C29_4 1_555 1_555
H23_4 C30_4 1_555 1_555
C31_4 C26_4 1_555 1_555
H24_4 C31_4 1_555 1_555
C34_4 H25_4 1_555 1_555
C35_4 C34_4 1_555 1_555
H26_4 C35_4 1_555 1_555
C36_4 S1_4 1_555 1_555
C37_4 C36_4 1_555 1_555
H27_4 C37_4 1_555 1_555
C4_4 C5_4 1_555 1_555
C16_4 C17_4 1_555 1_555
C21_4 C22_4 1_555 1_555
C23_4 C24_4 1_555 1_555
C28_4 C29_4 1_555 1_555
C30_4 C31_4 1_555 1_555
C35_4 C36_4 1_555 1_555
O13 C32_4 1_555 1_555
O4_4 C32_4 1_555 1_555
C32_4 C33_4 1_555 1_555
C38_4 C33_4 1_555 1_555
H28_4 C38_4 1_555 1_555
Cd6 O4_4 1_555 1_555
O7_4 Cd6 1_555 1_555
O8_4 Cd6 1_555 1_555
C39_4 O7_4 1_555 1_555
C40_4 C39_4 1_555 1_555
C41_4 C40_4 1_555 1_555
H29_4 C41_4 1_555 1_555
C42_4 C41_4 1_555 1_555
H30_4 C42_4 1_555 1_555
O8_4 C39_4 1_555 1_555
O15 C46_4 1_555 1_555
C46_4 O14 1_555 1_555
C47_4 C46_4 1_555 1_555
C48_4 C47_4 1_555 1_555
H33_4 C48_4 1_555 1_555
S2_3 O11_2 1_555 1_555
O12_3 S2_3 1_555 1_555
C43_3 S2_3 1_555 1_555
C44_3 C43_3 1_555 1_555
H31_3 C44_3 1_555 1_555
H32_3 C45_3 1_555 1_555
H34_3 C49_3 1_555 1_555
C50_3 S2_3 1_555 1_555
C51_3 C50_3 1_555 1_555
H35_3 C51_3 1_555 1_555
H36_3 C52_3 1_555 1_555
C44_3 C45_3 1_555 1_555
C49_3 C50_3 1_555 1_555
C51_3 C52_3 1_555 1_555
H6_3 C7_3 1_555 1_555
H9_3 C11_3 1_555 1_555
H6_4 C7_4 1_555 1_555
H9_4 C11_4 1_555 1_555
S2_4 O11_4 1_555 1_555
O12_4 S2_4 1_555 1_555
C43_4 S2_4 1_555 1_555
C44_4 C43_4 1_555 1_555
H31_4 C44_4 1_555 1_555
H32_4 C45_4 1_555 1_555
H34_4 C49_4 1_555 1_555
C50_4 S2_4 1_555 1_555
C51_4 C50_4 1_555 1_555
H35_4 C51_4 1_555 1_555
H36_4 C52_4 1_555 1_555
C44_4 C45_4 1_555 1_555
C49_4 C50_4 1_555 1_555
C51_4 C52_4 1_555 1_555

#END
