
###############################################################################
#
# This file contains modified crystal structure data generated from the
# MOF subset of the Cambridge Structural Database (CSD) v543 
# hosted by the Cambridge Crystallographic Data Centre (CCDC).
#
# This work is licensed under the Creative Commons
# Attribution-NonCommercial-ShareAlike 4.0 International License.
# To view a copy of this license, visit
# http://creativecommons.org/licenses/by-nc-sa/4.0/
# or send a letter to
# Creative Commons, PO Box 1866, Mountain View, CA 94042, USA.
#
# CIF created using the CSD Python API on 29 September 2022
# The structure has been converted into the P1 space group
# The structure has a 3D framework
# The original CSD entry SOCVUC is in the monoclinic crystal system
# The framework has been calculated to contain at least 10.0% void space
# The void calculation uses a probe of radius 1.32A, grid spacing 0.4
#
###############################################################################

data_SOCVUC
_chemical_formula_moiety         '(C208 H144 Cd8 N16 O48 S8)n'
_symmetry_cell_setting           triclinic
_symmetry_space_group_name_H-M   'P 1'
_symmetry_Int_Tables_number      1
_space_group_name_Hall           'P 1'
loop_
_symmetry_equiv_pos_site_id
_symmetry_equiv_pos_as_xyz
1 x,y,z
_cell_length_a                   16.478(5)
_cell_length_b                   22.004(7)
_cell_length_c                   16.494(6)
_cell_angle_alpha                90
_cell_angle_beta                 114.412(3)
_cell_angle_gamma                90
_cell_volume                     5445.76
loop_
_atom_site_label
_atom_site_type_symbol
_atom_site_fract_x
_atom_site_fract_y
_atom_site_fract_z
N3 N 0.6102(3) 0.1496(2) 0.8096(4)
C41 C 0.5276(4) 0.1593(3) 0.8005(5)
H27 H 0.5033 0.1979 0.7835
C42 C 0.4760(5) 0.1153(3) 0.8147(6)
H28 H 0.4184 0.1246 0.8078
C43 C 0.5094(4) 0.0568(3) 0.8396(5)
C44 C 0.5952(4) 0.0470(3) 0.8471(5)
H29 H 0.6208 0.0086 0.8620
C45 C 0.6421(4) 0.0936(3) 0.8326(6)
H30 H 0.7000 0.0858 0.8392
C46 C 0.4560(5) 0.0108(3) 0.8594(6)
H31 H 0.3976 0.0211 0.8484
Cd5 Cd 0.70581(3) 0.22332(2) 0.80133(3)
Cd1 Cd 0.23681(3) 0.74042(2) 0.94229(3)
O1 O 0.1179(3) 0.7983(2) 0.9220(4)
N1 N 0.1470(4) 0.6569(2) 0.9366(4)
C1 C 0.1272(4) 0.8203(3) 0.9941(5)
C2 C 0.0470(4) 0.8525(3) 0.9965(5)
N4 N 0.3299(4) 0.8202(2) 0.9467(4)
O9 O 0.8245(4) 0.7134(3) 0.8585(4)
O10 O 0.7274(4) 0.6546(3) 0.7579(5)
C23 C 0.6792(6) 0.5591(4) 0.9512(6)
H13 H 0.6451 0.5239 0.9368
C24 C 0.6970(6) 0.5888(4) 0.8870(6)
H14 H 0.6734 0.5738 0.8291
C25 C 0.7491(5) 0.6402(4) 0.9069(5)
C26 C 0.7824(5) 0.6619(4) 0.9921(6)
C28 C 0.7692(5) 0.6724(4) 0.8358(6)
C29 C 0.0644(5) 0.6612(3) 0.9284(6)
H17 H 0.0428 0.6996 0.9321
C30 C 0.0072(5) 0.6121(3) 0.9147(6)
C31 C 0.0367(5) 0.5543(3) 0.9051(6)
C32 C 0.1229(5) 0.5499(3) 0.9134(7)
H19 H 0.1459 0.5122 0.9080
C33 C 0.1754(5) 0.6008(3) 0.9294(6)
H20 H 0.2338 0.5962 0.9358
H22 H 0.0441 0.4382 0.8691
H25 H 0.0100 0.3287 0.8625
C47 C 0.4827(5) 0.9571(4) 0.8908(6)
H32 H 0.5408 0.9468 0.9008
C48 C 0.4306(5) 0.9104(3) 0.9126(6)
C49 C 0.4605(6) 0.8517(4) 0.9287(8)
H33 H 0.5154 0.8414 0.9291
C50 C 0.4089(5) 0.8080(4) 0.9445(8)
H34 H 0.4296 0.7682 0.9541
C51 C 0.3514(5) 0.9233(3) 0.9185(6)
H35 H 0.3303 0.9630 0.9110
C52 C 0.3036(5) 0.8776(3) 0.9354(5)
H36 H 0.2503 0.8875 0.9391
Cd6 Cd 0.79419(3) 0.72332(2) 0.69867(3)
O13 O 0.3073(3) 0.6801(2) 0.8758(4)
O14 O 0.1927(4) 0.7293(3) 0.7794(4)
S1 S 0.8019(2) 0.94120(14) 0.0016(2)
O3 O 0.8073(3) 0.8199(2) 0.3758(4)
O4 O 0.6927(4) 0.7707(3) 0.2794(4)
C4 C 0.9800(8) 0.9223(4) 0.0622(8)
H2 H 0.9863 0.9512 0.1055
C8 C 0.7871(7) 0.9027(5) 0.0884(7)
C9 C 0.8250(7) 0.9247(4) 0.1728(8)
H5 H 0.8573 0.9608 0.1847
C10 C 0.8151(7) 0.8926(4) 0.2424(6)
H6 H 0.8417 0.9072 0.3005
C11 C 0.7660(5) 0.8399(4) 0.2240(5)
C12 C 0.7270(6) 0.8192(5) 0.1375(6)
H7 H 0.6924 0.7841 0.1251
C13 C 0.7376(7) 0.8491(6) 0.0680(7)
H8 H 0.7126 0.8339 0.0102
C14 C 0.7543(5) 0.8075(3) 0.2978(5)
Cd3 Cd 0.73681(3) 0.75958(2) 0.44229(3)
N2 N 0.8059(4) 0.3009(3) 0.8165(4)
O5 O 0.7264(5) 0.9277(4) 0.9174(5)
C5 C 0.8983(6) 0.9078(4) 0.9991(6)
C6 C 0.8888(6) 0.8661(5) 0.9354(6)
H3 H 0.8323 0.8553 0.8940
C7 C 0.9640(5) 0.8395(4) 0.9322(6)
H4 H 0.9580 0.8128 0.8863
H18 H 0.9502 0.6177 0.9120
C34 C 0.9743(5) 0.5037(3) 0.8851(6)
H21 H 0.9186 0.5123 0.8839
C35 C 0.9886(5) 0.4470(4) 0.8685(7)
C36 C 0.9253(5) 0.3968(3) 0.8491(6)
C37 C 0.8368(5) 0.4072(4) 0.8284(6)
H23 H 0.8155 0.4467 0.8250
C38 C 0.7792(5) 0.3582(4) 0.8127(7)
H24 H 0.7194 0.3657 0.7988
C39 C 0.9510(6) 0.3378(4) 0.8506(8)
C40 C 0.8895(6) 0.2911(4) 0.8343(8)
H26 H 0.9088 0.2512 0.8362
N2_2 N 0.6941(4) 0.8009(3) 0.6835(4)
C35_2 C 0.5114(5) 0.9470(4) 0.6315(7)
H22_2 H 0.4559 0.9382 0.6309
C36_2 C 0.5747(5) 0.8968(3) 0.6509(6)
C37_2 C 0.6632(5) 0.9072(4) 0.6716(6)
H23_2 H 0.6845 0.9467 0.6750
C38_2 C 0.7208(5) 0.8582(4) 0.6873(7)
H24_2 H 0.7806 0.8657 0.7012
C39_2 C 0.5490(6) 0.8378(4) 0.6494(8)
H25_2 H 0.4900 0.8287 0.6375
C40_2 C 0.6105(6) 0.7911(4) 0.6657(8)
H26_2 H 0.5912 0.7512 0.6638
S2 S 0.81172(13) 0.04386(9) 0.38163(13)
N3_2 N 0.8898(3) 0.6496(2) 0.6904(4)
O9_2 O 0.6755(4) 0.2134(3) 0.6415(4)
O10_2 O 0.7726(4) 0.1546(3) 0.7421(5)
O12 O 0.7340(3) 0.0471(3) 0.2993(4)
C17 C 0.9467(4) 0.1543(4) 0.2882(5)
H9 H 0.9359 0.1756 0.2360
C18 C 0.8795(5) 0.1199(4) 0.2956(5)
H10 H 0.8231 0.1187 0.2490
C19 C 0.8969(4) 0.0878(3) 0.3724(5)
C20 C 0.9792(5) 0.0902(3) 0.4432(5)
H11 H 0.9900 0.0684 0.4949
C22 C 0.7881(5) 0.0817(3) 0.4633(5)
C23_2 C 0.8208(6) 0.0591(4) 0.5488(6)
H13_2 H 0.8549 0.0239 0.5632
C24_2 C 0.8030(6) 0.0888(4) 0.6130(6)
H14_2 H 0.8266 0.0738 0.6709
C25_2 C 0.7509(5) 0.1402(4) 0.5931(5)
C26_2 C 0.7176(5) 0.1619(4) 0.5079(6)
H15 H 0.6820 0.1964 0.4938
C27 C 0.7358(5) 0.1332(4) 0.4413(6)
H16 H 0.7132 0.1486 0.3836
C28_2 C 0.7308(5) 0.1724(4) 0.6642(6)
C41_2 C 0.9724(4) 0.6593(3) 0.6995(5)
H27_2 H 0.9967 0.6979 0.7165
C43_2 C 0.9906(4) 0.5568(3) 0.6604(5)
C44_2 C 0.9048(4) 0.5470(3) 0.6529(5)
H29_2 H 0.8792 0.5086 0.6380
C45_2 C 0.8579(4) 0.5936(3) 0.6674(6)
H30_2 H 0.8000 0.5858 0.6608
H32_2 H 0.9592 0.4468 0.5992
H33_2 H 0.9846 0.3414 0.5709
S2_2 S 0.31172(13) 0.45614(9) 0.88163(13)
O2 O 0.8037(3) 0.1839(3) 0.9372(4)
C3 C 0.9446(6) 0.1074(4) 0.9394(7)
H1 H 0.8884 0.0990 0.8953
O7 O 0.5914(3) 0.2907(2) 0.7731(3)
O8 O 0.6675(3) 0.2903(2) 0.9173(3)
O11 O 0.3485(4) 0.5144(2) 0.9177(4)
O12_2 O 0.2340(3) 0.4529(3) 0.7993(4)
C15 C 0.6007(4) 0.3054(3) 0.8487(5)
C16 C 0.5294(4) 0.3433(3) 0.8582(5)
C17_2 C 0.4467(4) 0.3457(4) 0.7882(5)
H9_2 H 0.4359 0.3244 0.7360
C18_2 C 0.3795(5) 0.3801(4) 0.7956(5)
H10_2 H 0.3231 0.3813 0.7490
C19_2 C 0.3969(4) 0.4122(3) 0.8724(5)
C20_2 C 0.4792(5) 0.4098(3) 0.9432(5)
H11_2 H 0.4900 0.4316 0.9949
C21 C 0.5445(5) 0.3753(3) 0.9363(5)
H12 H 0.5999 0.3729 0.9842
C22_2 C 0.2881(5) 0.4183(3) 0.9633(5)
H15_2 H 0.1820 0.3036 0.9938
C27_2 C 0.2358(5) 0.3668(4) 0.9413(6)
H16_2 H 0.2132 0.3514 0.8836
S1_2 S 0.3019(2) 0.55880(14) 0.5016(2)
O1_2 O 0.6179(3) 0.7017(2) 0.4220(4)
N1_2 N 0.6470(4) 0.8431(2) 0.4366(4)
C1_2 C 0.6272(4) 0.6797(3) 0.4941(5)
O2_2 O 0.6963(3) 0.6839(3) 0.5628(4)
C2_2 C 0.5470(4) 0.6475(3) 0.4965(5)
C3_2 C 0.5554(6) 0.6074(4) 0.5606(7)
H1_2 H 0.6116 0.5990 0.6047
N4_2 N 0.8299(4) 0.6798(2) 0.4467(4)
C4_2 C 0.4800(8) 0.5777(4) 0.5622(8)
H2_2 H 0.4863 0.5488 0.6055
O5_2 O 0.2264(5) 0.5723(4) 0.4174(5)
C5_2 C 0.3983(6) 0.5922(4) 0.4991(6)
O6 O 0.3231(6) 0.4978(3) 0.5288(7)
C6_2 C 0.3888(6) 0.6339(5) 0.4354(6)
H3_2 H 0.3323 0.6447 0.3940
O7_2 O 0.9086(3) 0.7907(2) 0.7269(3)
C7_2 C 0.4640(5) 0.6605(4) 0.4322(6)
H4_2 H 0.4580 0.6872 0.3863
O8_2 O 0.8325(3) 0.7903(2) 0.5827(3)
C8_2 C 0.2871(7) 0.5973(5) 0.5884(7)
C9_2 C 0.3250(7) 0.5753(4) 0.6728(8)
H5_2 H 0.3573 0.5392 0.6847
C10_2 C 0.3151(7) 0.6074(4) 0.7424(6)
H6_2 H 0.3417 0.5928 0.8005
C11_2 C 0.2660(5) 0.6601(4) 0.7240(5)
C12_2 C 0.2270(6) 0.6808(5) 0.6375(6)
H7_2 H 0.1924 0.7159 0.6251
C13_2 C 0.2376(7) 0.6509(6) 0.5680(7)
H8_2 H 0.2126 0.6661 0.5102
C14_2 C 0.2543(5) 0.6925(3) 0.7978(5)
C15_2 C 0.8993(4) 0.8054(3) 0.6513(5)
C16_2 C 0.9706(4) 0.8433(3) 0.6418(5)
C21_2 C 0.9555(5) 0.8753(3) 0.5637(5)
H12_2 H 0.9001 0.8729 0.5158
C29_2 C 0.5644(5) 0.8388(3) 0.4284(6)
H17_2 H 0.5428 0.8004 0.4321
C30_2 C 0.5072(5) 0.8879(3) 0.4147(6)
H18_2 H 0.4502 0.8823 0.4120
C31_2 C 0.5367(5) 0.9457(3) 0.4051(6)
C32_2 C 0.6229(5) 0.9501(3) 0.4134(7)
H19_2 H 0.6459 0.9878 0.4080
C33_2 C 0.6754(5) 0.8992(3) 0.4294(6)
H20_2 H 0.7338 0.9038 0.4358
C34_2 C 0.4743(5) 0.9963(3) 0.3851(6)
H21_2 H 0.4186 0.9877 0.3839
C42_2 C 0.9760(5) 0.3847(3) 0.3147(6)
H28_2 H 0.9184 0.3754 0.3078
C46_2 C 0.9560(5) 0.4892(3) 0.3594(6)
H31_2 H 0.8976 0.4789 0.3484
C47_2 C 0.9827(5) 0.5429(4) 0.3908(6)
C48_2 C 0.9306(5) 0.5896(3) 0.4126(6)
C49_2 C 0.9605(6) 0.6483(4) 0.4287(8)
C50_2 C 0.9089(5) 0.6920(4) 0.4445(8)
H34_2 H 0.9296 0.7318 0.4541
C51_2 C 0.8514(5) 0.5767(3) 0.4185(6)
H35_2 H 0.8303 0.5370 0.4110
C52_2 C 0.8036(5) 0.6224(3) 0.4354(5)
H36_2 H 0.7503 0.6125 0.4391
Cd2 Cd 0.29419(3) 0.77668(2) 0.19867(3)
S2_3 S 0.68828(13) 0.54386(9) 0.11837(13)
O2_3 O 0.1963(3) 0.8161(3) 0.0628(4)
C3_3 C 0.0554(6) 0.8926(4) 0.0606(7)
H1_3 H 0.1116 0.9010 0.1047
O7_3 O 0.4086(3) 0.7093(2) 0.2269(3)
O8_3 O 0.3325(3) 0.7097(2) 0.0827(3)
O11_2 O 0.6515(4) 0.4856(2) 0.0823(4)
O12_3 O 0.7660(3) 0.5471(3) 0.2007(4)
C15_3 C 0.3993(4) 0.6946(3) 0.1513(5)
C16_3 C 0.4706(4) 0.6567(3) 0.1418(5)
C17_3 C 0.5533(4) 0.6543(4) 0.2118(5)
H9_3 H 0.5641 0.6756 0.2640
C18_3 C 0.6205(5) 0.6199(4) 0.2044(5)
H10_3 H 0.6769 0.6187 0.2510
C19_3 C 0.6031(4) 0.5878(3) 0.1276(5)
C20_3 C 0.5208(5) 0.5902(3) 0.0568(5)
H11_3 H 0.5100 0.5684 0.0051
C21_3 C 0.4555(5) 0.6247(3) 0.0637(5)
H12_3 H 0.4001 0.6271 0.0158
C22_3 C 0.7119(5) 0.5817(3) 0.0367(5)
H15_3 H 0.8180 0.6964 0.0062
C27_3 C 0.7642(5) 0.6332(4) 0.0587(6)
H16_3 H 0.7868 0.6486 0.1164
N5 N 0.1941(4) 0.6991(3) 0.1835(4)
N6 N 0.3898(3) 0.8504(2) 0.1904(4)
O15 O 0.3245(4) 0.7866(3) 0.3585(4)
O16 O 0.2274(4) 0.8454(3) 0.2579(5)
Cd1_2 Cd 0.26319(3) 0.24042(2) 0.55771(3)
S1_3 S 0.6981(2) 0.44120(14) 0.4984(2)
O1_3 O 0.3821(3) 0.2983(2) 0.5780(4)
N1_3 N 0.3530(4) 0.1569(2) 0.5634(4)
C1_3 C 0.3728(4) 0.3203(3) 0.5059(5)
Cd2_2 Cd 0.20581(3) 0.27668(2) 0.30133(3)
O2_4 O 0.3037(3) 0.3161(3) 0.4372(4)
C2_3 C 0.4530(4) 0.3525(3) 0.5035(5)
O3_2 O 0.6927(3) 0.3199(2) 0.1242(4)
C3_4 C 0.4446(6) 0.3926(4) 0.4394(7)
H1_4 H 0.3884 0.4010 0.3953
O4_2 O 0.8073(4) 0.2707(3) 0.2206(4)
N4_3 N 0.1701(4) 0.3202(2) 0.5533(4)
C4_3 C 0.5200(8) 0.4223(4) 0.4378(8)
H2_3 H 0.5137 0.4512 0.3945
O5_3 O 0.7736(5) 0.4277(4) 0.5826(5)
C5_3 C 0.6017(6) 0.4078(4) 0.5009(6)
O6_2 O 0.6769(6) 0.5022(3) 0.4712(7)
C6_3 C 0.6112(6) 0.3661(5) 0.5646(6)
H3_3 H 0.6677 0.3553 0.6060
O7_4 O 0.0914(3) 0.2093(2) 0.2731(3)
C7_3 C 0.5360(5) 0.3395(4) 0.5678(6)
H4_3 H 0.5420 0.3128 0.6137
O8_4 O 0.1675(3) 0.2097(2) 0.4173(3)
C8_3 C 0.7129(7) 0.4027(5) 0.4116(7)
C9_3 C 0.6750(7) 0.4247(4) 0.3272(8)
H5_3 H 0.6427 0.4608 0.3153
C10_3 C 0.6849(7) 0.3926(4) 0.2576(6)
H6_3 H 0.6583 0.4072 0.1995
C11_3 C 0.7340(5) 0.3399(4) 0.2760(5)
C12_3 C 0.7730(6) 0.3192(5) 0.3625(6)
H7_3 H 0.8076 0.2841 0.3749
C13_3 C 0.7624(7) 0.3491(6) 0.4320(7)
H8_3 H 0.7874 0.3339 0.4898
C14_3 C 0.7457(5) 0.3075(3) 0.2022(5)
C15_4 C 0.1007(4) 0.1946(3) 0.3487(5)
C16_4 C 0.0294(4) 0.1567(3) 0.3582(5)
C21_4 C 0.0445(5) 0.1247(3) 0.4363(5)
H12_4 H 0.0999 0.1271 0.4842
C29_3 C 0.4356(5) 0.1612(3) 0.5716(6)
H17_3 H 0.4572 0.1996 0.5679
C30_3 C 0.4928(5) 0.1121(3) 0.5853(6)
H18_3 H 0.5498 0.1177 0.5880
C31_3 C 0.4633(5) 0.0543(3) 0.5949(6)
C32_3 C 0.3771(5) 0.0499(3) 0.5866(7)
H19_3 H 0.3541 0.0122 0.5920
C33_3 C 0.3246(5) 0.1008(3) 0.5706(6)
H20_3 H 0.2662 0.0962 0.5642
C34_3 C 0.5257(5) 0.0037(3) 0.6149(6)
H21_3 H 0.5814 0.0123 0.6161
C42_3 C 0.0240(5) 0.6153(3) 0.6853(6)
H28_3 H 0.0816 0.6246 0.6922
C46_3 C 0.0440(5) 0.5108(3) 0.6406(6)
H31_3 H 0.1024 0.5211 0.6516
C47_3 C 0.0173(5) 0.4571(4) 0.6092(6)
C48_3 C 0.0694(5) 0.4104(3) 0.5874(6)
C49_3 C 0.0395(6) 0.3517(4) 0.5713(8)
C50_3 C 0.0911(5) 0.3080(4) 0.5555(8)
H34_3 H 0.0704 0.2682 0.5459
C51_3 C 0.1486(5) 0.4233(3) 0.5815(6)
H35_3 H 0.1697 0.4630 0.5890
C52_3 C 0.1964(5) 0.3776(3) 0.5646(5)
H36_3 H 0.2497 0.3875 0.5609
Cd3_2 Cd 0.76319(3) 0.25958(2) 0.05771(3)
N5_2 N 0.3059(4) 0.1991(3) 0.3165(4)
O13_2 O 0.1927(3) 0.1801(2) 0.6242(4)
N6_2 N 0.1102(3) 0.3504(2) 0.3096(4)
O14_2 O 0.3073(4) 0.2293(3) 0.7206(4)
O15_2 O 0.1755(4) 0.2866(3) 0.1415(4)
O16_2 O 0.2726(4) 0.3454(3) 0.2421(5)
O5_4 O 0.2736(5) 0.0723(4) 0.0826(5)
C5_4 C 0.1017(6) 0.0922(4) 0.0009(6)
C6_4 C 0.1112(6) 0.1339(5) 0.0646(6)
H3_4 H 0.1677 0.1447 0.1060
C7_4 C 0.0360(5) 0.1605(4) 0.0678(6)
H4_4 H 0.0420 0.1872 0.1137
H18_4 H 0.0498 0.3823 0.0880
C34_4 C 0.0257(5) 0.4963(3) 0.1149(6)
H21_4 H 0.0814 0.4877 0.1161
C35_3 C 0.0114(5) 0.5530(4) 0.1315(7)
C36_3 C 0.0747(5) 0.6032(3) 0.1509(6)
C37_3 C 0.1632(5) 0.5928(4) 0.1716(6)
H23_3 H 0.1845 0.5533 0.1750
C38_3 C 0.2208(5) 0.6418(4) 0.1873(7)
H24_3 H 0.2806 0.6343 0.2012
C39_3 C 0.0490(6) 0.6622(4) 0.1494(8)
C40_3 C 0.1105(6) 0.7089(4) 0.1657(8)
H26_3 H 0.0912 0.7488 0.1638
S1_4 S 0.1981(2) 0.05880(14) 0.9984(2)
C4_4 C 0.0200(8) 0.0777(4) 0.9378(8)
H2_4 H 0.0137 0.0488 0.8945
C8_4 C 0.2129(7) 0.0973(5) 0.9116(7)
C9_4 C 0.1750(7) 0.0753(4) 0.8272(8)
H5_4 H 0.1427 0.0392 0.8153
C10_4 C 0.1849(7) 0.1074(4) 0.7576(6)
H6_4 H 0.1583 0.0928 0.6995
C11_4 C 0.2340(5) 0.1601(4) 0.7760(5)
C12_4 C 0.2730(6) 0.1808(5) 0.8625(6)
H7_4 H 0.3076 0.2159 0.8749
C13_4 C 0.2624(7) 0.1509(6) 0.9320(7)
H8_4 H 0.2874 0.1661 0.9898
C14_4 C 0.2457(5) 0.1925(3) 0.7022(5)
O1_4 O 0.8821(3) 0.2017(2) 0.0780(4)
N1_4 N 0.8530(4) 0.3431(2) 0.0634(4)
C1_4 C 0.8728(4) 0.1797(3) 0.0059(5)
C2_4 C 0.9530(4) 0.1475(3) 0.0035(5)
N4_4 N 0.6701(4) 0.1798(2) 0.0533(4)
C23_3 C 0.3208(6) 0.4409(4) 0.0488(6)
H13_3 H 0.3549 0.4761 0.0632
C24_3 C 0.3030(6) 0.4112(4) 0.1130(6)
H14_3 H 0.3266 0.4262 0.1709
C25_3 C 0.2509(5) 0.3598(4) 0.0931(5)
C26_3 C 0.2176(5) 0.3381(4) 0.0079(6)
C28_3 C 0.2308(5) 0.3276(4) 0.1642(6)
C29_4 C 0.9356(5) 0.3388(3) 0.0716(6)
H17_4 H 0.9572 0.3004 0.0679
C30_4 C 0.9928(5) 0.3879(3) 0.0853(6)
C31_4 C 0.9633(5) 0.4457(3) 0.0949(6)
C32_4 C 0.8771(5) 0.4501(3) 0.0866(7)
H19_4 H 0.8541 0.4878 0.0920
C33_4 C 0.8246(5) 0.3992(3) 0.0706(6)
H20_4 H 0.7662 0.4038 0.0642
H22_3 H 0.9559 0.5618 0.1309
H25_3 H 0.9900 0.6713 0.1375
C47_4 C 0.5173(5) 0.0429(4) 0.1092(6)
H32_3 H 0.4592 0.0532 0.0992
C48_4 C 0.5694(5) 0.0896(3) 0.0874(6)
C49_4 C 0.5395(6) 0.1483(4) 0.0713(8)
H33_3 H 0.4846 0.1586 0.0709
C50_4 C 0.5911(5) 0.1920(4) 0.0555(8)
H34_4 H 0.5704 0.2318 0.0459
C51_4 C 0.6486(5) 0.0767(3) 0.0815(6)
H35_4 H 0.6697 0.0370 0.0890
C52_4 C 0.6964(5) 0.1224(3) 0.0646(5)
H36_4 H 0.7497 0.1125 0.0609
C41_3 C 0.4724(4) 0.8407(3) 0.1995(5)
H27_3 H 0.4967 0.8021 0.2165
C42_4 C 0.5240(5) 0.8847(3) 0.1853(6)
H28_4 H 0.5816 0.8754 0.1922
C43_3 C 0.4906(4) 0.9432(3) 0.1604(5)
C44_3 C 0.4048(4) 0.9530(3) 0.1529(5)
H29_3 H 0.3792 0.9914 0.1380
C45_3 C 0.3579(4) 0.9064(3) 0.1674(6)
H30_3 H 0.3000 0.9142 0.1608
C46_4 C 0.5440(5) 0.9892(3) 0.1406(6)
H31_4 H 0.6024 0.9789 0.1516
S2_4 S 0.18828(13) 0.95614(9) 0.61837(13)
O12_4 O 0.2660(3) 0.9529(3) 0.7007(4)
C17_4 C 0.0533(4) 0.8457(4) 0.7118(5)
H9_4 H 0.0641 0.8244 0.7640
C18_4 C 0.1205(5) 0.8801(4) 0.7044(5)
H10_4 H 0.1769 0.8813 0.7510
C19_4 C 0.1031(4) 0.9122(3) 0.6276(5)
C20_4 C 0.0208(5) 0.9098(3) 0.5568(5)
H11_4 H 0.0100 0.9316 0.5051
C22_4 C 0.2119(5) 0.9183(3) 0.5367(5)
C23_4 C 0.1792(6) 0.9409(4) 0.4512(6)
H13_4 H 0.1451 0.9761 0.4368
C24_4 C 0.1970(6) 0.9112(4) 0.3870(6)
H14_4 H 0.1734 0.9262 0.3291
C25_4 C 0.2491(5) 0.8598(4) 0.4069(5)
C26_4 C 0.2824(5) 0.8381(4) 0.4921(6)
H15_4 H 0.3180 0.8036 0.5062
C27_4 C 0.2642(5) 0.8668(4) 0.5587(6)
H16_4 H 0.2868 0.8514 0.6164
C28_4 C 0.2692(5) 0.8276(4) 0.3358(6)
C41_4 C 0.0276(4) 0.3407(3) 0.3005(5)
H27_4 H 0.0033 0.3021 0.2835
C43_4 C 0.0094(4) 0.4432(3) 0.3396(5)
C44_4 C 0.0952(4) 0.4530(3) 0.3471(5)
H29_4 H 0.1208 0.4914 0.3620
C45_4 C 0.1421(4) 0.4064(3) 0.3326(6)
H30_4 H 0.2000 0.4142 0.3392
H32_4 H 0.0408 0.5532 0.4008
H33_4 H 0.0154 0.6586 0.4291
C35_4 C 0.4886(5) 0.0530(4) 0.3685(7)
H22_4 H 0.5441 0.0618 0.3691
C36_4 C 0.4253(5) 0.1032(3) 0.3491(6)
C37_4 C 0.3368(5) 0.0928(4) 0.3284(6)
H23_4 H 0.3155 0.0533 0.3250
C38_4 C 0.2792(5) 0.1418(4) 0.3127(7)
H24_4 H 0.2194 0.1343 0.2988
C39_4 C 0.4510(6) 0.1622(4) 0.3506(8)
H25_4 H 0.5100 0.1713 0.3625
C40_4 C 0.3895(6) 0.2089(4) 0.3343(8)
H26_4 H 0.4088 0.2488 0.3362
O6_3 O 0.8231(6) 0.0022(3) 0.0288(7)
O11_3 O 0.8485(4) 0.9856(2) 0.4177(4)
O6_4 O 0.1769(6) 0.9978(3) 0.9712(7)
O11_4 O 0.1515(4) 0.0144(2) 0.5823(4)
loop_
_geom_bond_atom_site_label_1
_geom_bond_atom_site_label_2
_geom_bond_site_symmetry_1
_geom_bond_site_symmetry_2
N3 C41 1_555 1_555
C41 H27 1_555 1_555
C42 C41 1_555 1_555
H28 C42 1_555 1_555
C43 C42 1_555 1_555
C44 C43 1_555 1_555
H29 C44 1_555 1_555
C45 N3 1_555 1_555
H30 C45 1_555 1_555
C46 C43 1_555 1_555
H31 C46 1_555 1_555
Cd5 N3 1_555 1_555
C44 C45 1_555 1_555
Cd1 O1 1_555 1_555
O1 C1 1_555 1_555
N1 Cd1 1_555 1_555
C2 C1 1_555 1_555
N4 Cd1 1_555 1_555
O9 C28 1_555 1_555
O10 C28 1_555 1_555
H13 C23 1_555 1_555
C24 C23 1_555 1_555
H14 C24 1_555 1_555
C25 C24 1_555 1_555
C26 C25 1_555 1_555
C28 C25 1_555 1_555
C29 N1 1_555 1_555
H17 C29 1_555 1_555
C30 C29 1_555 1_555
C31 C30 1_555 1_555
C32 C31 1_555 1_555
H19 C32 1_555 1_555
C33 N1 1_555 1_555
H20 C33 1_555 1_555
H32 C47 1_555 1_555
C48 C47 1_555 1_555
C49 C48 1_555 1_555
H33 C49 1_555 1_555
C50 N4 1_555 1_555
H34 C50 1_555 1_555
C51 C48 1_555 1_555
H35 C51 1_555 1_555
C52 N4 1_555 1_555
H36 C52 1_555 1_555
Cd6 O9 1_555 1_555
O13 Cd1 1_555 1_555
O14 Cd1 1_555 1_555
O10 Cd6 1_555 1_555
C32 C33 1_555 1_555
C49 C50 1_555 1_555
C51 C52 1_555 1_555
O3 C14 1_555 1_555
O4 C14 1_555 1_555
H2 C4 1_555 1_555
C8 S1 1_555 1_555
C9 C8 1_555 1_555
H5 C9 1_555 1_555
C10 C9 1_555 1_555
H6 C10 1_555 1_555
C11 C10 1_555 1_555
C12 C11 1_555 1_555
H7 C12 1_555 1_555
C13 C8 1_555 1_555
H8 C13 1_555 1_555
C14 C11 1_555 1_555
Cd3 O3 1_555 1_555
O4 Cd3 1_555 1_555
C12 C13 1_555 1_555
N2 C38 1_555 1_555
C6 C5 1_555 1_555
H3 C6 1_555 1_555
H4 C7 1_555 1_555
H21 C34 1_555 1_555
C35 C34 1_555 1_555
C36 C35 1_555 1_555
C37 C36 1_555 1_555
H23 C37 1_555 1_555
C38 C37 1_555 1_555
H24 C38 1_555 1_555
C39 C36 1_555 1_555
C40 N2 1_555 1_555
H26 C40 1_555 1_555
Cd5 N2 1_555 1_555
C6 C7 1_555 1_555
C39 C40 1_555 1_555
N2_2 C38_2 1_555 1_555
H22_2 C35_2 1_555 1_555
C36_2 C35_2 1_555 1_555
C37_2 C36_2 1_555 1_555
H23_2 C37_2 1_555 1_555
C38_2 C37_2 1_555 1_555
H24_2 C38_2 1_555 1_555
C39_2 C36_2 1_555 1_555
H25_2 C39_2 1_555 1_555
C40_2 N2_2 1_555 1_555
H26_2 C40_2 1_555 1_555
Cd6 N2_2 1_555 1_555
C39_2 C40_2 1_555 1_555
N3_2 C41_2 1_555 1_555
O9_2 C28_2 1_555 1_555
O10_2 C28_2 1_555 1_555
O12 S2 1_555 1_555
H9 C17 1_555 1_555
C18 C17 1_555 1_555
H10 C18 1_555 1_555
C19 S2 1_555 1_555
C20 C19 1_555 1_555
H11 C20 1_555 1_555
C22 S2 1_555 1_555
C23_2 C22 1_555 1_555
H13_2 C23_2 1_555 1_555
C24_2 C23_2 1_555 1_555
H14_2 C24_2 1_555 1_555
C25_2 C24_2 1_555 1_555
C26_2 C25_2 1_555 1_555
H15 C26_2 1_555 1_555
C27 C22 1_555 1_555
H16 C27 1_555 1_555
C28_2 C25_2 1_555 1_555
C41_2 H27_2 1_555 1_555
C44_2 C43_2 1_555 1_555
H29_2 C44_2 1_555 1_555
C45_2 N3_2 1_555 1_555
H30_2 C45_2 1_555 1_555
Cd6 N3_2 1_555 1_555
Cd5 O9_2 1_555 1_555
O10_2 Cd5 1_555 1_555
C18 C19 1_555 1_555
C26_2 C27 1_555 1_555
C44_2 C45_2 1_555 1_555
Cd5 O2 1_555 1_555
S2_2 O11 1_555 1_555
H1 C3 1_555 1_555
O7 Cd5 1_555 1_555
O12_2 S2_2 1_555 1_555
C15 O7 1_555 1_555
C16 C15 1_555 1_555
C17_2 C16 1_555 1_555
H9_2 C17_2 1_555 1_555
C18_2 C17_2 1_555 1_555
H10_2 C18_2 1_555 1_555
C19_2 S2_2 1_555 1_555
C20_2 C19_2 1_555 1_555
H11_2 C20_2 1_555 1_555
C21 C16 1_555 1_555
H12 C21 1_555 1_555
C22_2 S2_2 1_555 1_555
C27_2 C22_2 1_555 1_555
H16_2 C27_2 1_555 1_555
O8 C15 1_555 1_555
C18_2 C19_2 1_555 1_555
C20_2 C21 1_555 1_555
Cd3 O1_2 1_555 1_555
S1_2 O5_2 1_555 1_555
O1_2 C1_2 1_555 1_555
N1_2 Cd3 1_555 1_555
C1_2 O2_2 1_555 1_555
Cd6 O2_2 1_555 1_555
C2_2 C1_2 1_555 1_555
O13 C14_2 1_555 1_555
C3_2 C2_2 1_555 1_555
H1_2 C3_2 1_555 1_555
O14 C14_2 1_555 1_555
N4_2 Cd3 1_555 1_555
C4_2 C3_2 1_555 1_555
H2_2 C4_2 1_555 1_555
C5_2 S1_2 1_555 1_555
O6 S1_2 1_555 1_555
C6_2 C5_2 1_555 1_555
H3_2 C6_2 1_555 1_555
O7_2 Cd6 1_555 1_555
C7_2 C2_2 1_555 1_555
H4_2 C7_2 1_555 1_555
O8_2 Cd3 1_555 1_555
C8_2 S1_2 1_555 1_555
C9_2 C8_2 1_555 1_555
H5_2 C9_2 1_555 1_555
C10_2 C9_2 1_555 1_555
H6_2 C10_2 1_555 1_555
C11_2 C10_2 1_555 1_555
C12_2 C11_2 1_555 1_555
H7_2 C12_2 1_555 1_555
C13_2 C8_2 1_555 1_555
H8_2 C13_2 1_555 1_555
C14_2 C11_2 1_555 1_555
C15_2 O7_2 1_555 1_555
C16_2 C15_2 1_555 1_555
C21_2 C16_2 1_555 1_555
H12_2 C21_2 1_555 1_555
C29_2 N1_2 1_555 1_555
H17_2 C29_2 1_555 1_555
C30_2 C29_2 1_555 1_555
H18_2 C30_2 1_555 1_555
C31_2 C30_2 1_555 1_555
C32_2 C31_2 1_555 1_555
H19_2 C32_2 1_555 1_555
C33_2 N1_2 1_555 1_555
H20_2 C33_2 1_555 1_555
C34_2 C31_2 1_555 1_555
H21_2 C34_2 1_555 1_555
H28_2 C42_2 1_555 1_555
H31_2 C46_2 1_555 1_555
C47_2 C46_2 1_555 1_555
C48_2 C47_2 1_555 1_555
C49_2 C48_2 1_555 1_555
C50_2 N4_2 1_555 1_555
H34_2 C50_2 1_555 1_555
C51_2 C48_2 1_555 1_555
H35_2 C51_2 1_555 1_555
C52_2 N4_2 1_555 1_555
H36_2 C52_2 1_555 1_555
C4_2 C5_2 1_555 1_555
C6_2 C7_2 1_555 1_555
O8_2 C15_2 1_555 1_555
C12_2 C13_2 1_555 1_555
C32_2 C33_2 1_555 1_555
C49_2 C50_2 1_555 1_555
C51_2 C52_2 1_555 1_555
Cd2 O2_3 1_555 1_555
S2_3 O11_2 1_555 1_555
H1_3 C3_3 1_555 1_555
O7_3 Cd2 1_555 1_555
O12_3 S2_3 1_555 1_555
C15_3 O7_3 1_555 1_555
C16_3 C15_3 1_555 1_555
C17_3 C16_3 1_555 1_555
H9_3 C17_3 1_555 1_555
C18_3 C17_3 1_555 1_555
H10_3 C18_3 1_555 1_555
C19_3 S2_3 1_555 1_555
C20_3 C19_3 1_555 1_555
H11_3 C20_3 1_555 1_555
C21_3 C16_3 1_555 1_555
H12_3 C21_3 1_555 1_555
C22_3 S2_3 1_555 1_555
C27_3 C22_3 1_555 1_555
H16_3 C27_3 1_555 1_555
N5 Cd2 1_555 1_555
N6 Cd2 1_555 1_555
O15 Cd2 1_555 1_555
O16 Cd2 1_555 1_555
O8_3 C15_3 1_555 1_555
C18_3 C19_3 1_555 1_555
C20_3 C21_3 1_555 1_555
Cd1_2 O1_3 1_555 1_555
S1_3 O5_3 1_555 1_555
O1_3 C1_3 1_555 1_555
N1_3 Cd1_2 1_555 1_555
C1_3 O2_4 1_555 1_555
Cd2_2 O2_4 1_555 1_555
C2_3 C1_3 1_555 1_555
O3_2 C14_3 1_555 1_555
C3_4 C2_3 1_555 1_555
H1_4 C3_4 1_555 1_555
O4_2 C14_3 1_555 1_555
N4_3 Cd1_2 1_555 1_555
C4_3 C3_4 1_555 1_555
H2_3 C4_3 1_555 1_555
C5_3 S1_3 1_555 1_555
O6_2 S1_3 1_555 1_555
C6_3 C5_3 1_555 1_555
H3_3 C6_3 1_555 1_555
O7_4 Cd2_2 1_555 1_555
C7_3 C2_3 1_555 1_555
H4_3 C7_3 1_555 1_555
O8_4 Cd1_2 1_555 1_555
C8_3 S1_3 1_555 1_555
C9_3 C8_3 1_555 1_555
H5_3 C9_3 1_555 1_555
C10_3 C9_3 1_555 1_555
H6_3 C10_3 1_555 1_555
C11_3 C10_3 1_555 1_555
C12_3 C11_3 1_555 1_555
H7_3 C12_3 1_555 1_555
C13_3 C8_3 1_555 1_555
H8_3 C13_3 1_555 1_555
C14_3 C11_3 1_555 1_555
C15_4 O7_4 1_555 1_555
C16_4 C15_4 1_555 1_555
C21_4 C16_4 1_555 1_555
H12_4 C21_4 1_555 1_555
C29_3 N1_3 1_555 1_555
H17_3 C29_3 1_555 1_555
C30_3 C29_3 1_555 1_555
H18_3 C30_3 1_555 1_555
C31_3 C30_3 1_555 1_555
C32_3 C31_3 1_555 1_555
H19_3 C32_3 1_555 1_555
C33_3 N1_3 1_555 1_555
H20_3 C33_3 1_555 1_555
C34_3 C31_3 1_555 1_555
H21_3 C34_3 1_555 1_555
H28_3 C42_3 1_555 1_555
H31_3 C46_3 1_555 1_555
C47_3 C46_3 1_555 1_555
C48_3 C47_3 1_555 1_555
C49_3 C48_3 1_555 1_555
C50_3 N4_3 1_555 1_555
H34_3 C50_3 1_555 1_555
C51_3 C48_3 1_555 1_555
H35_3 C51_3 1_555 1_555
C52_3 N4_3 1_555 1_555
H36_3 C52_3 1_555 1_555
Cd3_2 O3_2 1_555 1_555
N5_2 Cd2_2 1_555 1_555
O13_2 Cd1_2 1_555 1_555
N6_2 Cd2_2 1_555 1_555
O14_2 Cd1_2 1_555 1_555
O15_2 Cd2_2 1_555 1_555
O16_2 Cd2_2 1_555 1_555
O4_2 Cd3_2 1_555 1_555
C4_3 C5_3 1_555 1_555
C6_3 C7_3 1_555 1_555
O8_4 C15_4 1_555 1_555
C12_3 C13_3 1_555 1_555
C32_3 C33_3 1_555 1_555
C49_3 C50_3 1_555 1_555
C51_3 C52_3 1_555 1_555
N5 C38_3 1_555 1_555
C6_4 C5_4 1_555 1_555
H3_4 C6_4 1_555 1_555
H4_4 C7_4 1_555 1_555
H21_4 C34_4 1_555 1_555
C35_3 C34_4 1_555 1_555
C36_3 C35_3 1_555 1_555
C37_3 C36_3 1_555 1_555
H23_3 C37_3 1_555 1_555
C38_3 C37_3 1_555 1_555
H24_3 C38_3 1_555 1_555
C39_3 C36_3 1_555 1_555
C40_3 N5 1_555 1_555
H26_3 C40_3 1_555 1_555
C6_4 C7_4 1_555 1_555
C39_3 C40_3 1_555 1_555
O13_2 C14_4 1_555 1_555
O14_2 C14_4 1_555 1_555
H2_4 C4_4 1_555 1_555
C8_4 S1_4 1_555 1_555
C9_4 C8_4 1_555 1_555
H5_4 C9_4 1_555 1_555
C10_4 C9_4 1_555 1_555
H6_4 C10_4 1_555 1_555
C11_4 C10_4 1_555 1_555
C12_4 C11_4 1_555 1_555
H7_4 C12_4 1_555 1_555
C13_4 C8_4 1_555 1_555
H8_4 C13_4 1_555 1_555
C14_4 C11_4 1_555 1_555
C12_4 C13_4 1_555 1_555
Cd3_2 O1_4 1_555 1_555
O1_4 C1_4 1_555 1_555
N1_4 Cd3_2 1_555 1_555
C2_4 C1_4 1_555 1_555
N4_4 Cd3_2 1_555 1_555
O15_2 C28_3 1_555 1_555
O16_2 C28_3 1_555 1_555
H13_3 C23_3 1_555 1_555
C24_3 C23_3 1_555 1_555
H14_3 C24_3 1_555 1_555
C25_3 C24_3 1_555 1_555
C26_3 C25_3 1_555 1_555
C28_3 C25_3 1_555 1_555
C29_4 N1_4 1_555 1_555
H17_4 C29_4 1_555 1_555
C30_4 C29_4 1_555 1_555
C31_4 C30_4 1_555 1_555
C32_4 C31_4 1_555 1_555
H19_4 C32_4 1_555 1_555
C33_4 N1_4 1_555 1_555
H20_4 C33_4 1_555 1_555
H32_3 C47_4 1_555 1_555
C48_4 C47_4 1_555 1_555
C49_4 C48_4 1_555 1_555
H33_3 C49_4 1_555 1_555
C50_4 N4_4 1_555 1_555
H34_4 C50_4 1_555 1_555
C51_4 C48_4 1_555 1_555
H35_4 C51_4 1_555 1_555
C52_4 N4_4 1_555 1_555
H36_4 C52_4 1_555 1_555
C32_4 C33_4 1_555 1_555
C49_4 C50_4 1_555 1_555
C51_4 C52_4 1_555 1_555
N6 C41_3 1_555 1_555
C41_3 H27_3 1_555 1_555
C42_4 C41_3 1_555 1_555
H28_4 C42_4 1_555 1_555
C43_3 C42_4 1_555 1_555
C44_3 C43_3 1_555 1_555
H29_3 C44_3 1_555 1_555
C45_3 N6 1_555 1_555
H30_3 C45_3 1_555 1_555
C46_4 C43_3 1_555 1_555
H31_4 C46_4 1_555 1_555
C44_3 C45_3 1_555 1_555
N6_2 C41_4 1_555 1_555
O15 C28_4 1_555 1_555
O16 C28_4 1_555 1_555
O12_4 S2_4 1_555 1_555
H9_4 C17_4 1_555 1_555
C18_4 C17_4 1_555 1_555
H10_4 C18_4 1_555 1_555
C19_4 S2_4 1_555 1_555
C20_4 C19_4 1_555 1_555
H11_4 C20_4 1_555 1_555
C22_4 S2_4 1_555 1_555
C23_4 C22_4 1_555 1_555
H13_4 C23_4 1_555 1_555
C24_4 C23_4 1_555 1_555
H14_4 C24_4 1_555 1_555
C25_4 C24_4 1_555 1_555
C26_4 C25_4 1_555 1_555
H15_4 C26_4 1_555 1_555
C27_4 C22_4 1_555 1_555
H16_4 C27_4 1_555 1_555
C28_4 C25_4 1_555 1_555
C41_4 H27_4 1_555 1_555
C44_4 C43_4 1_555 1_555
H29_4 C44_4 1_555 1_555
C45_4 N6_2 1_555 1_555
H30_4 C45_4 1_555 1_555
C18_4 C19_4 1_555 1_555
C26_4 C27_4 1_555 1_555
C44_4 C45_4 1_555 1_555
N5_2 C38_4 1_555 1_555
H22_4 C35_4 1_555 1_555
C36_4 C35_4 1_555 1_555
C37_4 C36_4 1_555 1_555
H23_4 C37_4 1_555 1_555
C38_4 C37_4 1_555 1_555
H24_4 C38_4 1_555 1_555
C39_4 C36_4 1_555 1_555
H25_4 C39_4 1_555 1_555
C40_4 N5_2 1_555 1_555
H26_4 C40_4 1_555 1_555
C39_4 C40_4 1_555 1_555

#END
