
###############################################################################
#
# This file contains modified crystal structure data generated from the
# MOF subset of the Cambridge Structural Database (CSD) v543 
# hosted by the Cambridge Crystallographic Data Centre (CCDC).
#
# This work is licensed under the Creative Commons
# Attribution-NonCommercial-ShareAlike 4.0 International License.
# To view a copy of this license, visit
# http://creativecommons.org/licenses/by-nc-sa/4.0/
# or send a letter to
# Creative Commons, PO Box 1866, Mountain View, CA 94042, USA.
#
# CIF created using the CSD Python API on 29 September 2022
# The structure has been converted into the P1 space group
# The structure has a 3D framework
# The original CSD entry SODNIJ is in the monoclinic crystal system
# The framework has been calculated to contain at least 10.0% void space
# The void calculation uses a probe of radius 1.32A, grid spacing 0.4
#
###############################################################################

data_SODNIJ
_chemical_formula_moiety         '(C64 H48 Cd4 N8 O16)n'
_symmetry_cell_setting           triclinic
_symmetry_space_group_name_H-M   'P 1'
_symmetry_Int_Tables_number      1
_space_group_name_Hall           'P 1'
loop_
_symmetry_equiv_pos_site_id
_symmetry_equiv_pos_as_xyz
1 x,y,z
_cell_length_a                   9.1050(10)
_cell_length_b                   12.9480(10)
_cell_length_c                   13.991(2)
_cell_angle_alpha                90
_cell_angle_beta                 91.510(10)
_cell_angle_gamma                90
_cell_volume                     1648.85
loop_
_atom_site_label
_atom_site_type_symbol
_atom_site_fract_x
_atom_site_fract_y
_atom_site_fract_z
O3 O 0.0726(7) 0.3109(5) 0.0017(5)
C8 C 0.0596(9) 0.1412(8) 0.2916(5)
H5 H 0.1453 0.1388 0.3292
C9 C 0.0663(9) 0.1356(7) 0.1928(5)
H6 H 0.1578 0.1303 0.1651
C11 C 0.0149(10) 0.1386(8) 0.5022(5)
H8 H 0.1083 0.1275 0.4790
C12 C 0.0006(9) 0.1377(7) 0.6055(5)
C15 C 0.1137(9) 0.1170(6) 0.7623(5)
H11 H 0.1985 0.1039 0.7988
C16 C 0.1218(9) 0.1180(6) 0.6636(5)
H12 H 0.2115 0.1049 0.6357
Cd6 Cd 0.03095(6) 0.85449(4) 0.02980(3)
O11 O 0.1538(7) 0.6927(5) 0.0546(5)
C19 C 0.0435(9) 0.6454(7) 0.0257(6)
C20 C 0.0525(9) 0.5300(6) 0.0185(6)
H14 H 0.1379 0.4982 0.0417
O7 O 0.2015(6) 0.0853(5) 0.9787(4)
N1 N 0.9448(7) 0.1377(6) 0.1352(4)
C5 C 0.8146(9) 0.1452(7) 0.1756(5)
H3 H 0.7300 0.1459 0.1369
C6 C 0.8016(9) 0.1520(7) 0.2746(6)
H4 H 0.7089 0.1576 0.3005
C7 C 0.9232(9) 0.1505(7) 0.3343(5)
C10 C 0.9077(9) 0.1537(7) 0.4382(5)
H7 H 0.8147 0.1675 0.4610
C13 C 0.8695(9) 0.1578(7) 0.6514(5)
H9 H 0.7842 0.1731 0.6161
C14 C 0.8680(9) 0.1546(7) 0.7509(6)
H10 H 0.7795 0.1670 0.7805
N2 N 0.9878(7) 0.1344(5) 0.8068(4)
Cd4 Cd 0.96905(6) 0.14551(4) 0.97020(3)
C17 C 0.2886(8) 0.0163(7) 0.0067(5)
O1 O 0.7486(6) 0.0675(5) 0.9551(4)
O4 O 0.8462(7) 0.3073(5) 0.9454(5)
C3 C 0.9565(9) 0.3546(7) 0.9743(6)
C4 C 0.9475(9) 0.4700(6) 0.9815(6)
H2 H 0.8621 0.5018 0.9583
O9 O 0.9274(7) 0.6891(5) 0.9983(5)
C18 C 0.4482(8) 0.0344(6) 0.9937(5)
H13 H 0.4766 0.1003 0.9752
O2 O 0.7985(6) 0.9147(5) 0.0213(4)
C2 C 0.5518(8) 0.9656(6) 0.0063(5)
H1 H 0.5234 0.8997 0.0248
O5 O 0.2514(6) 0.9325(5) 0.0449(4)
N6 N 0.0122(7) 0.8656(5) 0.1932(4)
C1 C 0.7114(8) 0.9837(7) 0.9933(5)
N4 N 0.0552(7) 0.8623(6) 0.8648(4)
C21 C 0.1854(9) 0.8548(7) 0.8244(5)
H15 H 0.2700 0.8541 0.8631
C22 C 0.1984(9) 0.8480(7) 0.7254(6)
H16 H 0.2911 0.8424 0.6995
C23 C 0.0768(9) 0.8495(7) 0.6657(5)
C26 C 0.0923(9) 0.8463(7) 0.5618(5)
H19 H 0.1853 0.8325 0.5390
C29 C 0.1305(9) 0.8422(7) 0.3486(5)
H21 H 0.2158 0.8269 0.3839
C30 C 0.1320(9) 0.8454(7) 0.2491(6)
H22 H 0.2205 0.8330 0.2195
C24 C 0.9404(9) 0.8588(8) 0.7084(5)
H17 H 0.8547 0.8612 0.6708
C25 C 0.9337(9) 0.8644(7) 0.8072(5)
H18 H 0.8422 0.8697 0.8349
C27 C 0.9851(10) 0.8614(8) 0.4978(5)
H20 H 0.8917 0.8725 0.5210
C28 C 0.9994(9) 0.8623(7) 0.3945(5)
C31 C 0.8863(9) 0.8830(6) 0.2377(5)
H23 H 0.8015 0.8961 0.2012
C32 C 0.8782(9) 0.8820(6) 0.3364(5)
H24 H 0.7885 0.8951 0.3643
Cd2 Cd 0.46905(6) 0.35449(4) 0.47020(3)
Cd5 Cd 0.53095(6) 0.64551(4) 0.52980(3)
O5_2 O 0.2486(6) 0.4325(5) 0.4551(4)
O6 O 0.2985(6) 0.5853(5) 0.5213(4)
O8 O 0.7015(6) 0.4147(5) 0.4787(4)
O10 O 0.5726(7) 0.1891(5) 0.5017(5)
O12 O 0.3462(7) 0.1927(5) 0.4454(5)
C17_2 C 0.2114(8) 0.5163(7) 0.4933(5)
C18_2 C 0.0518(8) 0.5344(6) 0.5063(5)
H13_2 H 0.0234 0.6003 0.5248
N4_2 N 0.4448(7) 0.3623(6) 0.6352(4)
N6_2 N 0.4878(7) 0.3656(5) 0.3068(4)
H2_2 H 0.6379 0.0018 0.5417
C19_2 C 0.4565(9) 0.1454(7) 0.4743(6)
C20_2 C 0.4475(9) 0.0300(6) 0.4815(6)
N3 N 0.5552(7) 0.6377(6) 0.3648(4)
C21_2 C 0.6854(9) 0.6452(7) 0.3244(5)
H15_2 H 0.7700 0.6459 0.3631
C22_2 C 0.6984(9) 0.6520(7) 0.2254(6)
H16_2 H 0.7911 0.6576 0.1995
C23_2 C 0.5768(9) 0.6505(7) 0.1657(5)
C24_2 C 0.4404(9) 0.6412(8) 0.2084(5)
H17_2 H 0.3547 0.6388 0.1708
C25_2 C 0.4337(9) 0.6356(7) 0.3072(5)
H18_2 H 0.3422 0.6303 0.3349
C26_2 C 0.5923(9) 0.6537(7) 0.0618(5)
H19_2 H 0.6853 0.6675 0.0390
H20_2 H 0.3917 0.6275 0.0210
O1_2 O 0.7514(6) 0.5675(5) 0.5449(4)
O3_2 O 0.4274(7) 0.8109(5) 0.4983(5)
O4_2 O 0.6538(7) 0.8073(5) 0.5546(5)
C1_2 C 0.7886(8) 0.4837(7) 0.5067(5)
C2_2 C 0.9482(8) 0.4656(6) 0.4937(5)
H1_2 H 0.9766 0.3997 0.4752
C3_2 C 0.5435(9) 0.8546(7) 0.5257(6)
C4_2 C 0.5525(9) 0.9700(6) 0.5185(6)
H14_2 H 0.3621 0.9982 0.4583
C27_2 C 0.4851(10) 0.6386(8) 0.9978(5)
C28_2 C 0.4994(9) 0.6377(7) 0.8945(5)
C29_2 C 0.6305(9) 0.6578(7) 0.8486(5)
H21_2 H 0.7158 0.6731 0.8839
C30_2 C 0.6320(9) 0.6546(7) 0.7491(6)
H22_2 H 0.7205 0.6670 0.7195
N5 N 0.5122(7) 0.6344(5) 0.6932(4)
C31_2 C 0.3863(9) 0.6170(6) 0.7377(5)
H23_2 H 0.3015 0.6039 0.7012
C32_2 C 0.3782(9) 0.6180(6) 0.8364(5)
H24_2 H 0.2885 0.6049 0.8643
C11_2 C 0.5149(10) 0.3614(8) 0.0022(5)
C12_2 C 0.5006(9) 0.3623(7) 0.1055(5)
C13_2 C 0.3695(9) 0.3422(7) 0.1514(5)
H9_2 H 0.2842 0.3269 0.1161
C14_2 C 0.3680(9) 0.3454(7) 0.2509(6)
H10_2 H 0.2795 0.3330 0.2805
C15_2 C 0.6137(9) 0.3830(6) 0.2623(5)
H11_2 H 0.6985 0.3961 0.2988
C16_2 C 0.6218(9) 0.3820(6) 0.1636(5)
H12_2 H 0.7115 0.3951 0.1357
C5_2 C 0.3146(9) 0.3548(7) 0.6756(5)
H3_2 H 0.2300 0.3541 0.6369
C6_2 C 0.3016(9) 0.3480(7) 0.7746(6)
H4_2 H 0.2089 0.3424 0.8005
C7_2 C 0.4232(9) 0.3495(7) 0.8343(5)
C8_2 C 0.5596(9) 0.3588(8) 0.7916(5)
H5_2 H 0.6453 0.3612 0.8292
C9_2 C 0.5663(9) 0.3644(7) 0.6928(5)
H6_2 H 0.6578 0.3697 0.6651
C10_2 C 0.4077(9) 0.3463(7) 0.9382(5)
H7_2 H 0.3147 0.3325 0.9610
H8_2 H 0.6083 0.3725 0.9790
loop_
_geom_bond_atom_site_label_1
_geom_bond_atom_site_label_2
_geom_bond_site_symmetry_1
_geom_bond_site_symmetry_2
H5 C8 1_555 1_555
H6 C9 1_555 1_555
H8 C11 1_555 1_555
C12 C11 1_555 1_555
H11 C15 1_555 1_555
C16 C12 1_555 1_555
H12 C16 1_555 1_555
O11 Cd6 1_555 1_555
C19 O11 1_555 1_555
H14 C20 1_555 1_555
C8 C9 1_555 1_555
C15 C16 1_555 1_555
C19 C20 1_555 1_555
C5 N1 1_555 1_555
H3 C5 1_555 1_555
C6 C5 1_555 1_555
H4 C6 1_555 1_555
C7 C6 1_555 1_555
C10 C7 1_555 1_555
H7 C10 1_555 1_555
H9 C13 1_555 1_555
C14 C13 1_555 1_555
H10 C14 1_555 1_555
N2 C14 1_555 1_555
Cd4 N2 1_555 1_555
Cd4 O1 1_555 1_555
O4 Cd4 1_555 1_555
C4 C3 1_555 1_555
H2 C4 1_555 1_555
H13 C18 1_555 1_555
O4 C3 1_555 1_555
C2 H1 1_555 1_555
Cd6 O5 1_555 1_555
N6 Cd6 1_555 1_555
N4 C21 1_555 1_555
C21 H15 1_555 1_555
C22 C21 1_555 1_555
H16 C22 1_555 1_555
C23 C22 1_555 1_555
C26 C23 1_555 1_555
H19 C26 1_555 1_555
H21 C29 1_555 1_555
C30 C29 1_555 1_555
H22 C30 1_555 1_555
C30 N6 1_555 1_555
H17 C24 1_555 1_555
H18 C25 1_555 1_555
H20 C27 1_555 1_555
C28 C27 1_555 1_555
H23 C31 1_555 1_555
C32 C28 1_555 1_555
H24 C32 1_555 1_555
C24 C25 1_555 1_555
C31 C32 1_555 1_555
Cd2 O5_2 1_555 1_555
Cd5 O6 1_555 1_555
O5_2 C17_2 1_555 1_555
O6 C17_2 1_555 1_555
O8 Cd2 1_555 1_555
O10 Cd2 1_555 1_555
O12 Cd2 1_555 1_555
C17_2 C18_2 1_555 1_555
H13_2 C18_2 1_555 1_555
N4_2 Cd2 1_555 1_555
N6_2 Cd2 1_555 1_555
O10 C19_2 1_555 1_555
C19_2 O12 1_555 1_555
C19_2 C20_2 1_555 1_555
Cd5 N3 1_555 1_555
N3 C21_2 1_555 1_555
C21_2 H15_2 1_555 1_555
C22_2 C21_2 1_555 1_555
H16_2 C22_2 1_555 1_555
C23_2 C22_2 1_555 1_555
C24_2 C23_2 1_555 1_555
H17_2 C24_2 1_555 1_555
C25_2 N3 1_555 1_555
H18_2 C25_2 1_555 1_555
C26_2 C23_2 1_555 1_555
H19_2 C26_2 1_555 1_555
C24_2 C25_2 1_555 1_555
Cd5 O1_2 1_555 1_555
O1_2 C1_2 1_555 1_555
O8 C1_2 1_555 1_555
O3_2 Cd5 1_555 1_555
O4_2 Cd5 1_555 1_555
C1_2 C2_2 1_555 1_555
C2_2 H1_2 1_555 1_555
C3_2 O3_2 1_555 1_555
C4_2 C3_2 1_555 1_555
C28_2 C27_2 1_555 1_555
C29_2 C28_2 1_555 1_555
H21_2 C29_2 1_555 1_555
C30_2 C29_2 1_555 1_555
H22_2 C30_2 1_555 1_555
N5 Cd5 1_555 1_555
C31_2 N5 1_555 1_555
H23_2 C31_2 1_555 1_555
C32_2 C28_2 1_555 1_555
H24_2 C32_2 1_555 1_555
O4_2 C3_2 1_555 1_555
C30_2 N5 1_555 1_555
C31_2 C32_2 1_555 1_555
C12_2 C11_2 1_555 1_555
C13_2 C12_2 1_555 1_555
H9_2 C13_2 1_555 1_555
C14_2 C13_2 1_555 1_555
H10_2 C14_2 1_555 1_555
N6_2 C14_2 1_555 1_555
C15_2 N6_2 1_555 1_555
H11_2 C15_2 1_555 1_555
C16_2 C12_2 1_555 1_555
H12_2 C16_2 1_555 1_555
C15_2 C16_2 1_555 1_555
C5_2 N4_2 1_555 1_555
H3_2 C5_2 1_555 1_555
C6_2 C5_2 1_555 1_555
H4_2 C6_2 1_555 1_555
C7_2 C6_2 1_555 1_555
C8_2 C7_2 1_555 1_555
H5_2 C8_2 1_555 1_555
C9_2 N4_2 1_555 1_555
H6_2 C9_2 1_555 1_555
C10_2 C7_2 1_555 1_555
H7_2 C10_2 1_555 1_555
C8_2 C9_2 1_555 1_555

#END
