
###############################################################################
#
# This file contains modified crystal structure data generated from the
# MOF subset of the Cambridge Structural Database (CSD) v543 
# hosted by the Cambridge Crystallographic Data Centre (CCDC).
#
# This work is licensed under the Creative Commons
# Attribution-NonCommercial-ShareAlike 4.0 International License.
# To view a copy of this license, visit
# http://creativecommons.org/licenses/by-nc-sa/4.0/
# or send a letter to
# Creative Commons, PO Box 1866, Mountain View, CA 94042, USA.
#
# CIF created using the CSD Python API on 29 September 2022
# The structure has been converted into the P1 space group
# The structure has a 3D framework
# The original CSD entry SODRUB is in the cubic crystal system
# The framework has been calculated to contain at least 10.0% void space
# The void calculation uses a probe of radius 1.32A, grid spacing 0.4
# The framework is charged, counterions have been retained in the structure
# H atom positions have been added when not included in the experimental data
# Generated hydrogen atom positions removed from atoms on special positions
#
###############################################################################

data_SODRUB
_chemical_formula_moiety         '(C288 H384 O117 Tb24 9-)n'
_symmetry_cell_setting           triclinic
_symmetry_space_group_name_H-M   'P 1'
_symmetry_Int_Tables_number      1
_space_group_name_Hall           'P 1'
loop_
_symmetry_equiv_pos_site_id
_symmetry_equiv_pos_as_xyz
1 x,y,z
_cell_length_a                   24.5688(2)
_cell_length_b                   24.5688(2)
_cell_length_c                   24.5688(2)
_cell_angle_alpha                90
_cell_angle_beta                 90
_cell_angle_gamma                90
_cell_volume                     14830.4
loop_
_atom_site_label
_atom_site_type_symbol
_atom_site_fract_x
_atom_site_fract_y
_atom_site_fract_z
Tb1 Tb 0.50555(2) 0.387393(18) 0.00560(2)
C1 C 0.3719(11) 0.3560(7) 0.0011(9)
C12 C 0.3545(18) 0.2586(19) 0.0053(14)
H6 H 0.3921 0.2528 0.0124
O1 O 0.4482(2) 0.4482(2) 0.0518(2)
O5 O 0.4225(4) 0.3408(4) 0.0044(5)
O7 O 0.525(3) 0.2790(13) 0.0148(14)
C13 C 0.1281(11) 0.1440(7) 0.0011(9)
C18 C 0.1455(18) 0.2414(19) 0.0053(14)
H9 H 0.1079 0.2472 0.0124
O8 O 0.0775(4) 0.1592(4) 0.0044(5)
O12 O 0.0518(2) 0.0518(2) 0.0518(2)
Tb8 Tb 0.49440(2) 0.50555(2) 0.112607(18)
Tb20 Tb 0.612607(18) 0.50560(2) 0.00555(2)
O49 O 0.5515(2) 0.4530(2) 0.05686(19)
O54 O 0.5945(4) 0.3510(4) 0.0094(4)
O60 O 0.5038(5) 0.3512(4) 0.0947(5)
C2 C 0.3322(7) 0.3126(8) 0.9995(9)
C3 C 0.2801(9) 0.3200(7) 0.9970(10)
H1 H 0.2674 0.3564 0.9934
C4 C 0.2400(6) 0.2777(6) 0.9994(12)
C5 C 0.5078(7) 0.3126(8) 0.8312(8)
C6 C 0.5081(7) 0.3580(8) 0.8714(10)
C7 C 0.5137(15) 0.2510(19) 0.8536(19)
H2 H 0.5165 0.2448 0.8917
C8 C 0.5097(9) 0.3229(7) 0.7784(7)
H3 H 0.5112 0.3595 0.7658
C9 C 0.5093(8) 0.2762(7) 0.7376(7)
C10 C 0.515(2) 0.204(2) 0.815(2)
H4 H 0.5188 0.1663 0.8252
C11 C 0.1832(9) 0.2863(8) 0.9998(17)
H5 H 0.1694 0.3223 0.9964
O2 O 0.55686(19) 0.4485(2) 0.9530(2)
O3 O 0.5095(4) 0.3412(4) 0.9225(4)
O4 O 0.5094(4) 0.4055(4) 0.8510(4)
O6 O 0.3512(4) 0.4053(5) 0.9962(5)
C14 C 0.1678(7) 0.1874(8) 0.9995(9)
C15 C 0.2199(9) 0.1800(7) 0.9970(10)
H7 H 0.2326 0.1436 0.9934
C16 C 0.2600(6) 0.2223(6) 0.9994(12)
C17 C 0.3168(9) 0.2137(8) 0.9998(17)
H8 H 0.3306 0.1777 0.9964
O9 O 0.1488(4) 0.0947(5) 0.9962(5)
C19 C 0.5078(7) 0.1874(8) 0.6688(8)
C20 C 0.5081(7) 0.1420(8) 0.6286(10)
C21 C 0.5137(15) 0.2490(19) 0.6464(19)
H10 H 0.5165 0.2552 0.6083
C22 C 0.5097(9) 0.1771(7) 0.7216(7)
H11 H 0.5112 0.1405 0.7342
C23 C 0.5093(8) 0.2238(7) 0.7624(7)
C24 C 0.515(2) 0.296(2) 0.685(2)
H12 H 0.5188 0.3337 0.6748
O10 O 0.5095(4) 0.1588(4) 0.5775(4)
O11 O 0.5094(4) 0.0945(4) 0.6490(4)
C37 C 0.1281(11) 0.3560(7) 0.4989(9)
C38 C 0.1678(7) 0.3126(8) 0.5005(9)
C39 C 0.2199(9) 0.3200(7) 0.5030(10)
H19 H 0.2326 0.3564 0.5066
C40 C 0.2600(6) 0.2777(6) 0.5006(12)
C41 C 0.3168(9) 0.2863(8) 0.5002(17)
H20 H 0.3306 0.3223 0.5036
C42 C 0.1455(18) 0.2586(19) 0.4947(14)
H21 H 0.1079 0.2528 0.4876
O20 O 0.0775(4) 0.3408(4) 0.4956(5)
O21 O 0.1488(4) 0.4053(5) 0.5038(5)
C43 C 0.3719(11) 0.1440(7) 0.4989(9)
C44 C 0.3322(7) 0.1874(8) 0.5005(9)
C45 C 0.2801(9) 0.1800(7) 0.5030(10)
H22 H 0.2674 0.1436 0.5066
C46 C 0.2400(6) 0.2223(6) 0.5006(12)
C47 C 0.1832(9) 0.2137(8) 0.5002(17)
H23 H 0.1694 0.1777 0.5036
C48 C 0.3545(18) 0.2414(19) 0.4947(14)
H24 H 0.3921 0.2472 0.4876
O22 O 0.4225(4) 0.1592(4) 0.4956(5)
O23 O 0.3512(4) 0.0947(5) 0.5038(5)
Tb4 Tb 0.50555(2) 0.112607(18) 0.49440(2)
O25 O 0.55686(19) 0.0515(2) 0.5470(2)
O26 O 0.525(3) 0.2210(13) 0.4852(14)
C50 C 0.0005(9) 0.6678(7) 0.6874(8)
C51 C 0.0030(10) 0.7199(9) 0.6800(7)
H25 H 0.0066 0.7326 0.6436
C52 C 0.0006(12) 0.7600(6) 0.7223(6)
C53 C 0.1688(8) 0.4922(7) 0.6874(8)
C54 C 0.1286(10) 0.4919(7) 0.6420(8)
C55 C 0.1464(19) 0.4863(15) 0.7490(19)
H26 H 0.1083 0.4835 0.7552
C56 C 0.2216(7) 0.4903(9) 0.6771(7)
H27 H 0.2342 0.4888 0.6405
C57 C 0.2624(7) 0.4907(8) 0.7238(7)
C58 C 0.185(2) 0.485(2) 0.796(2)
H28 H 0.1748 0.4812 0.8337
C59 C 0.0002(17) 0.8168(9) 0.7137(8)
H29 H 0.0036 0.8306 0.6777
O27 O 0.0470(2) 0.44314(19) 0.5515(2)
O28 O 0.0775(4) 0.4905(4) 0.6588(4)
O29 O 0.1490(4) 0.4906(4) 0.5945(4)
O31 O 0.0038(5) 0.6488(4) 0.5947(5)
C62 C 0.0005(9) 0.8322(7) 0.8126(8)
C63 C 0.0030(10) 0.7801(9) 0.8200(7)
H31 H 0.0066 0.7674 0.8564
C64 C 0.0006(12) 0.7400(6) 0.7777(6)
C65 C 0.0002(17) 0.6832(9) 0.7863(8)
H32 H 0.0036 0.6694 0.8223
O33 O 0.0038(5) 0.8512(4) 0.9053(5)
C67 C 0.3312(8) 0.4922(7) 0.8126(8)
C68 C 0.3714(10) 0.4919(7) 0.8580(8)
C69 C 0.3536(19) 0.4863(15) 0.7510(19)
H34 H 0.3917 0.4835 0.7448
C70 C 0.2784(7) 0.4903(9) 0.8229(7)
H35 H 0.2658 0.4888 0.8595
C71 C 0.2376(7) 0.4907(8) 0.7762(7)
C72 C 0.315(2) 0.485(2) 0.704(2)
H36 H 0.3252 0.4812 0.6663
O34 O 0.4225(4) 0.4905(4) 0.8412(4)
O35 O 0.3510(4) 0.4906(4) 0.9055(4)
O37 O 0.0470(2) 0.05686(19) 0.9485(2)
Tb9 Tb 0.387393(18) 0.00560(2) 0.50555(2)
Tb10 Tb 0.112607(18) 0.00560(2) 0.99445(2)
Tb11 Tb 0.387393(18) 0.49440(2) 0.99445(2)
Tb12 Tb 0.112607(18) 0.49440(2) 0.50555(2)
Tb13 Tb 0.00555(2) 0.887393(18) 0.99440(2)
Tb14 Tb 0.00555(2) 0.612607(18) 0.50560(2)
Tb16 Tb 0.50560(2) 0.00555(2) 0.612607(18)
Tb17 Tb 0.50560(2) 0.49445(2) 0.887393(18)
O39 O 0.0518(2) 0.4482(2) 0.4482(2)
O40 O 0.4482(2) 0.0518(2) 0.4482(2)
O44 O 0.0515(2) 0.5470(2) 0.55686(19)
O45 O 0.4530(2) 0.05686(19) 0.5515(2)
O46 O 0.4530(2) 0.44314(19) 0.9485(2)
O47 O 0.5515(2) 0.0470(2) 0.44314(19)
O51 O 0.0775(4) 0.0095(4) 0.8412(4)
O52 O 0.5945(4) 0.1490(4) 0.4906(4)
O59 O 0.5038(5) 0.1488(4) 0.4053(5)
H38 H 0.55259 0.267893 0.987433
H45 H 0.0170814 0.45359 0.733599
H48 H 0.0106822 0.00100051 0.758795
Tb7 Tb 0.00560(2) 0.99445(2) 0.112607(18)
Tb18 Tb 0.612607(18) 0.99440(2) 0.49445(2)
O43 O 0.0515(2) 0.9530(2) 0.94314(19)
Tb15 Tb 0.99440(2) 0.00555(2) 0.887393(18)
Tb2 Tb 0.99445(2) 0.112607(18) 0.00560(2)
O18 O 0.975(3) 0.2210(13) 0.0148(14)
O48 O 0.9485(2) 0.0470(2) 0.05686(19)
O53 O 0.9055(4) 0.1490(4) 0.0094(4)
O58 O 0.9962(5) 0.1488(4) 0.0947(5)
C25 C 0.9922(7) 0.1874(8) 0.8312(8)
C26 C 0.9919(7) 0.1420(8) 0.8714(10)
C27 C 0.9863(15) 0.2490(19) 0.8536(19)
H13 H 0.9835 0.2552 0.8917
C28 C 0.9903(9) 0.1771(7) 0.7784(7)
H14 H 0.9888 0.1405 0.7658
C29 C 0.9907(8) 0.2238(7) 0.7376(7)
C30 C 0.985(2) 0.296(2) 0.815(2)
H15 H 0.9812 0.3337 0.8252
O13 O 0.94314(19) 0.0515(2) 0.9530(2)
O14 O 0.9905(4) 0.1588(4) 0.9225(4)
O15 O 0.9906(4) 0.0945(4) 0.8510(4)
C31 C 0.9922(7) 0.3126(8) 0.6688(8)
C32 C 0.9919(7) 0.3580(8) 0.6286(10)
C33 C 0.9863(15) 0.2510(19) 0.6464(19)
H16 H 0.9835 0.2448 0.6083
C34 C 0.9903(9) 0.3229(7) 0.7216(7)
H17 H 0.9888 0.3595 0.7342
C35 C 0.9907(8) 0.2762(7) 0.7624(7)
C36 C 0.985(2) 0.204(2) 0.685(2)
H18 H 0.9812 0.1663 0.6748
O16 O 0.9905(4) 0.3412(4) 0.5775(4)
O17 O 0.9906(4) 0.4055(4) 0.6490(4)
Tb3 Tb 0.99445(2) 0.387393(18) 0.49440(2)
O19 O 0.94314(19) 0.4485(2) 0.5470(2)
O24 O 0.975(3) 0.2790(13) 0.4852(14)
Tb5 Tb 0.99440(2) 0.49445(2) 0.612607(18)
C49 C 0.9989(9) 0.6281(11) 0.6440(7)
C60 C 0.9947(14) 0.6455(18) 0.7414(19)
H30 H 0.9876 0.6079 0.7472
O30 O 0.9956(5) 0.5775(4) 0.6592(4)
C61 C 0.9989(9) 0.8719(11) 0.8560(7)
C66 C 0.9947(14) 0.8545(18) 0.7586(19)
H33 H 0.9876 0.8921 0.7528
O32 O 0.9956(5) 0.9225(4) 0.8408(4)
O36 O 0.9852(14) 0.475(3) 0.7210(13)
O38 O 0.9852(14) 0.025(3) 0.7790(13)
Tb21 Tb 0.887393(18) 0.50560(2) 0.49445(2)
O42 O 0.9482(2) 0.5518(2) 0.5518(2)
O50 O 0.9485(2) 0.4530(2) 0.44314(19)
O55 O 0.9055(4) 0.3510(4) 0.4906(4)
O57 O 0.9962(5) 0.3512(4) 0.4053(5)
O61 O 0.9053(5) 0.0038(5) 0.8512(4)
O62 O 0.9053(5) 0.4962(5) 0.6488(4)
H39 H 0.989501 0.240099 0.982265
Tb19 Tb 0.887393(18) 0.99440(2) 0.00555(2)
O41 O 0.9482(2) 0.9482(2) 0.9482(2)
H37 H 0.00928612 0.241429 0.00842273
C53_2 C 0.3312(8) 0.0078(7) 0.6874(8)
C54_2 C 0.3714(10) 0.0081(7) 0.6420(8)
C55_2 C 0.3536(19) 0.0137(15) 0.7490(19)
H26_2 H 0.3917 0.0165 0.7552
C56_2 C 0.2784(7) 0.0097(9) 0.6771(7)
H27_2 H 0.2658 0.0112 0.6405
C57_2 C 0.2376(7) 0.0093(8) 0.7238(7)
C58_2 C 0.315(2) 0.015(2) 0.796(2)
H28_2 H 0.3252 0.0188 0.8337
O28_2 O 0.4225(4) 0.0095(4) 0.6588(4)
O29_2 O 0.3510(4) 0.0094(4) 0.5945(4)
C67_2 C 0.1688(8) 0.0078(7) 0.8126(8)
C68_2 C 0.1286(10) 0.0081(7) 0.8580(8)
C69_2 C 0.1464(19) 0.0137(15) 0.7510(19)
H34_2 H 0.1083 0.0165 0.7448
C70_2 C 0.2216(7) 0.0097(9) 0.8229(7)
H35_2 H 0.2342 0.0112 0.8595
C71_2 C 0.2624(7) 0.0093(8) 0.7762(7)
C72_2 C 0.185(2) 0.015(2) 0.704(2)
H36_2 H 0.1748 0.0188 0.6663
O35_2 O 0.1490(4) 0.0094(4) 0.9055(4)
O36_2 O 0.5148(14) 0.025(3) 0.7210(13)
O38_2 O 0.5148(14) 0.475(3) 0.7790(13)
O41_2 O 0.5518(2) 0.5518(2) 0.9482(2)
O43_2 O 0.4485(2) 0.5470(2) 0.94314(19)
O56 O 0.5044(5) 0.5775(4) 0.8408(4)
O61_2 O 0.5947(5) 0.4962(5) 0.8512(4)
O62_2 O 0.5947(5) 0.0038(5) 0.6488(4)
H39_2 H 0.510499 0.259901 0.982265
C49_2 C 0.5011(9) 0.8719(11) 0.6440(7)
C50_2 C 0.4995(9) 0.8322(7) 0.6874(8)
C51_2 C 0.4970(10) 0.7801(9) 0.6800(7)
H25_2 H 0.4934 0.7674 0.6436
C52_2 C 0.4994(12) 0.7400(6) 0.7223(6)
C59_2 C 0.4998(17) 0.6832(9) 0.7137(8)
H29_2 H 0.4964 0.6694 0.6777
C60_2 C 0.5053(14) 0.8545(18) 0.7414(19)
H30_2 H 0.5124 0.8921 0.7472
O30_2 O 0.5044(5) 0.9225(4) 0.6592(4)
O31_2 O 0.4962(5) 0.8512(4) 0.5947(5)
C61_2 C 0.5011(9) 0.6281(11) 0.8560(7)
C62_2 C 0.4995(9) 0.6678(7) 0.8126(8)
C63_2 C 0.4970(10) 0.7199(9) 0.8200(7)
H31_2 H 0.4934 0.7326 0.8564
C64_2 C 0.4994(12) 0.7600(6) 0.7777(6)
C65_2 C 0.4998(17) 0.8168(9) 0.7863(8)
H32_2 H 0.4964 0.8306 0.8223
C66_2 C 0.5053(14) 0.6455(18) 0.7586(19)
H33_2 H 0.5124 0.6079 0.7528
O33_2 O 0.4962(5) 0.6488(4) 0.9053(5)
Tb13_2 Tb 0.49445(2) 0.612607(18) 0.99440(2)
Tb14_2 Tb 0.49445(2) 0.887393(18) 0.50560(2)
O42_2 O 0.5518(2) 0.9482(2) 0.5518(2)
O44_2 O 0.4485(2) 0.9530(2) 0.55686(19)
H46 H 0.516157 0.989862 0.740925
H38_2 H 0.94741 0.232107 0.987433
Tb8_2 Tb 0.00560(2) 0.50555(2) 0.387393(18)
H37_2 H 0.00928612 0.258571 0.491577
H41 H 0.559194 0.269749 0.995339
Tb7_2 Tb 0.49440(2) 0.99445(2) 0.387393(18)
H43 H 0.940806 0.230251 0.995339
H45_2 H 0.0170814 0.0464096 0.766401
H48_2 H 0.0106822 0.498999 0.741205
H46_2 H 0.983843 0.989862 0.759075
C1_2 C 0.0011(9) 0.3719(11) 0.3560(7)
C12_2 C 0.0053(14) 0.3545(18) 0.2586(19)
H6_2 H 0.0124 0.3921 0.2528
O5_2 O 0.0044(5) 0.4225(4) 0.3408(4)
O7_2 O 0.0148(14) 0.525(3) 0.2790(13)
C13_2 C 0.0011(9) 0.1281(11) 0.1440(7)
C18_2 C 0.0053(14) 0.1455(18) 0.2414(19)
H9_2 H 0.0124 0.1079 0.2472
O8_2 O 0.0044(5) 0.0775(4) 0.1592(4)
O49_2 O 0.05686(19) 0.5515(2) 0.4530(2)
O54_2 O 0.0094(4) 0.5945(4) 0.3510(4)
O60_2 O 0.0947(5) 0.5038(5) 0.3512(4)
O18_2 O 0.0148(14) 0.975(3) 0.2210(13)
O48_2 O 0.05686(19) 0.9485(2) 0.0470(2)
O53_2 O 0.0094(4) 0.9055(4) 0.1490(4)
O58_2 O 0.0947(5) 0.9962(5) 0.1488(4)
C2_2 C 0.9995(9) 0.3322(7) 0.3126(8)
C3_2 C 0.9970(10) 0.2801(9) 0.3200(7)
H1_2 H 0.9934 0.2674 0.3564
C4_2 C 0.9994(12) 0.2400(6) 0.2777(6)
C5_2 C 0.8312(8) 0.5078(7) 0.3126(8)
C6_2 C 0.8714(10) 0.5081(7) 0.3580(8)
C7_2 C 0.8536(19) 0.5137(15) 0.2510(19)
H2_2 H 0.8917 0.5165 0.2448
C8_2 C 0.7784(7) 0.5097(9) 0.3229(7)
H3_2 H 0.7658 0.5112 0.3595
C9_2 C 0.7376(7) 0.5093(8) 0.2762(7)
C10_2 C 0.815(2) 0.515(2) 0.204(2)
H4_2 H 0.8252 0.5188 0.1663
C11_2 C 0.9998(17) 0.1832(9) 0.2863(8)
H5_2 H 0.9964 0.1694 0.3223
O2_2 O 0.9530(2) 0.55686(19) 0.4485(2)
O3_2 O 0.9225(4) 0.5095(4) 0.3412(4)
O4_2 O 0.8510(4) 0.5094(4) 0.4055(4)
C14_2 C 0.9995(9) 0.1678(7) 0.1874(8)
C15_2 C 0.9970(10) 0.2199(9) 0.1800(7)
H7_2 H 0.9934 0.2326 0.1436
C16_2 C 0.9994(12) 0.2600(6) 0.2223(6)
C17_2 C 0.9998(17) 0.3168(9) 0.2137(8)
H8_2 H 0.9964 0.3306 0.1777
C19_2 C 0.6688(8) 0.5078(7) 0.1874(8)
C20_2 C 0.6286(10) 0.5081(7) 0.1420(8)
C21_2 C 0.6464(19) 0.5137(15) 0.2490(19)
H10_2 H 0.6083 0.5165 0.2552
C22_2 C 0.7216(7) 0.5097(9) 0.1771(7)
H11_2 H 0.7342 0.5112 0.1405
C23_2 C 0.7624(7) 0.5093(8) 0.2238(7)
C24_2 C 0.685(2) 0.515(2) 0.296(2)
H12_2 H 0.6748 0.5188 0.3337
O10_2 O 0.5775(4) 0.5095(4) 0.1588(4)
O11_2 O 0.6490(4) 0.5094(4) 0.0945(4)
C37_2 C 0.4989(9) 0.1281(11) 0.3560(7)
C38_2 C 0.5005(9) 0.1678(7) 0.3126(8)
C39_2 C 0.5030(10) 0.2199(9) 0.3200(7)
H19_2 H 0.5066 0.2326 0.3564
C40_2 C 0.5006(12) 0.2600(6) 0.2777(6)
C41_2 C 0.5002(17) 0.3168(9) 0.2863(8)
H20_2 H 0.5036 0.3306 0.3223
C42_2 C 0.4947(14) 0.1455(18) 0.2586(19)
H21_2 H 0.4876 0.1079 0.2528
O20_2 O 0.4956(5) 0.0775(4) 0.3408(4)
C43_2 C 0.4989(9) 0.3719(11) 0.1440(7)
C44_2 C 0.5005(9) 0.3322(7) 0.1874(8)
C45_2 C 0.5030(10) 0.2801(9) 0.1800(7)
H22_2 H 0.5066 0.2674 0.1436
C46_2 C 0.5006(12) 0.2400(6) 0.2223(6)
C47_2 C 0.5002(17) 0.1832(9) 0.2137(8)
H23_2 H 0.5036 0.1694 0.1777
C48_2 C 0.4947(14) 0.3545(18) 0.2414(19)
H24_2 H 0.4876 0.3921 0.2472
O22_2 O 0.4956(5) 0.4225(4) 0.1592(4)
O25_2 O 0.5470(2) 0.55686(19) 0.0515(2)
O26_2 O 0.4852(14) 0.525(3) 0.2210(13)
C50_3 C 0.6874(8) 0.0005(9) 0.6678(7)
C51_3 C 0.6800(7) 0.0030(10) 0.7199(9)
H25_3 H 0.6436 0.0066 0.7326
C52_3 C 0.7223(6) 0.0006(12) 0.7600(6)
C53_3 C 0.6874(8) 0.1688(8) 0.4922(7)
C54_3 C 0.6420(8) 0.1286(10) 0.4919(7)
C55_3 C 0.7490(19) 0.1464(19) 0.4863(15)
H26_3 H 0.7552 0.1083 0.4835
C56_3 C 0.6771(7) 0.2216(7) 0.4903(9)
H27_3 H 0.6405 0.2342 0.4888
C57_3 C 0.7238(7) 0.2624(7) 0.4907(8)
C58_3 C 0.796(2) 0.185(2) 0.485(2)
H28_3 H 0.8337 0.1748 0.4812
C59_3 C 0.7137(8) 0.0002(17) 0.8168(9)
H29_3 H 0.6777 0.0036 0.8306
O28_3 O 0.6588(4) 0.0775(4) 0.4905(4)
C62_3 C 0.8126(8) 0.0005(9) 0.8322(7)
C63_3 C 0.8200(7) 0.0030(10) 0.7801(9)
H31_3 H 0.8564 0.0066 0.7674
C64_3 C 0.7777(6) 0.0006(12) 0.7400(6)
C65_3 C 0.7863(8) 0.0002(17) 0.6832(9)
H32_3 H 0.8223 0.0036 0.6694
C67_3 C 0.8126(8) 0.3312(8) 0.4922(7)
C68_3 C 0.8580(8) 0.3714(10) 0.4919(7)
C69_3 C 0.7510(19) 0.3536(19) 0.4863(15)
H34_3 H 0.7448 0.3917 0.4835
C70_3 C 0.8229(7) 0.2784(7) 0.4903(9)
H35_3 H 0.8595 0.2658 0.4888
C71_3 C 0.7762(7) 0.2376(7) 0.4907(8)
C72_3 C 0.704(2) 0.315(2) 0.485(2)
H36_3 H 0.6663 0.3252 0.4812
O34_2 O 0.8412(4) 0.4225(4) 0.4905(4)
O47_2 O 0.44314(19) 0.5515(2) 0.0470(2)
O51_2 O 0.8412(4) 0.0775(4) 0.0095(4)
O52_2 O 0.4906(4) 0.5945(4) 0.1490(4)
O59_2 O 0.4053(5) 0.5038(5) 0.1488(4)
H38_3 H 0.987433 0.55259 0.267893
H45_3 H 0.733599 0.0170814 0.45359
H48_3 H 0.758795 0.0106822 0.00100051
C25_2 C 0.8312(8) 0.9922(7) 0.1874(8)
C26_2 C 0.8714(10) 0.9919(7) 0.1420(8)
C27_2 C 0.8536(19) 0.9863(15) 0.2490(19)
H13_2 H 0.8917 0.9835 0.2552
C28_2 C 0.7784(7) 0.9903(9) 0.1771(7)
H14_2 H 0.7658 0.9888 0.1405
C29_2 C 0.7376(7) 0.9907(8) 0.2238(7)
C30_2 C 0.815(2) 0.985(2) 0.296(2)
H15_2 H 0.8252 0.9812 0.3337
O13_2 O 0.9530(2) 0.94314(19) 0.0515(2)
O14_2 O 0.9225(4) 0.9905(4) 0.1588(4)
O15_2 O 0.8510(4) 0.9906(4) 0.0945(4)
C31_2 C 0.6688(8) 0.9922(7) 0.3126(8)
C32_2 C 0.6286(10) 0.9919(7) 0.3580(8)
C33_2 C 0.6464(19) 0.9863(15) 0.2510(19)
H16_2 H 0.6083 0.9835 0.2448
C34_2 C 0.7216(7) 0.9903(9) 0.3229(7)
H17_2 H 0.7342 0.9888 0.3595
C35_2 C 0.7624(7) 0.9907(8) 0.2762(7)
C36_2 C 0.685(2) 0.985(2) 0.204(2)
H18_2 H 0.6748 0.9812 0.1663
O16_2 O 0.5775(4) 0.9905(4) 0.3412(4)
O17_2 O 0.6490(4) 0.9906(4) 0.4055(4)
O19_2 O 0.5470(2) 0.94314(19) 0.4485(2)
O24_2 O 0.4852(14) 0.975(3) 0.2790(13)
C49_3 C 0.6440(7) 0.9989(9) 0.6281(11)
C60_3 C 0.7414(19) 0.9947(14) 0.6455(18)
H30_3 H 0.7472 0.9876 0.6079
O30_3 O 0.6592(4) 0.9956(5) 0.5775(4)
C61_3 C 0.8560(7) 0.9989(9) 0.8719(11)
C66_3 C 0.7586(19) 0.9947(14) 0.8545(18)
H33_3 H 0.7528 0.9876 0.8921
O32_2 O 0.8408(4) 0.9956(5) 0.9225(4)
O36_3 O 0.7210(13) 0.9852(14) 0.475(3)
O38_3 O 0.7790(13) 0.9852(14) 0.025(3)
O50_2 O 0.44314(19) 0.9485(2) 0.4530(2)
O55_2 O 0.4906(4) 0.9055(4) 0.3510(4)
O57_2 O 0.4053(5) 0.9962(5) 0.3512(4)
O61_3 O 0.8512(4) 0.9053(5) 0.0038(5)
O62_3 O 0.6488(4) 0.9053(5) 0.4962(5)
H39_3 H 0.982265 0.989501 0.240099
H37_3 H 0.00842273 0.00928612 0.241429
C53_4 C 0.6874(8) 0.3312(8) 0.0078(7)
C54_4 C 0.6420(8) 0.3714(10) 0.0081(7)
C55_4 C 0.7490(19) 0.3536(19) 0.0137(15)
H26_4 H 0.7552 0.3917 0.0165
C56_4 C 0.6771(7) 0.2784(7) 0.0097(9)
H27_4 H 0.6405 0.2658 0.0112
C57_4 C 0.7238(7) 0.2376(7) 0.0093(8)
C58_4 C 0.796(2) 0.315(2) 0.015(2)
H28_4 H 0.8337 0.3252 0.0188
O28_4 O 0.6588(4) 0.4225(4) 0.0095(4)
C67_4 C 0.8126(8) 0.1688(8) 0.0078(7)
C68_4 C 0.8580(8) 0.1286(10) 0.0081(7)
C69_4 C 0.7510(19) 0.1464(19) 0.0137(15)
H34_4 H 0.7448 0.1083 0.0165
C70_4 C 0.8229(7) 0.2216(7) 0.0097(9)
H35_4 H 0.8595 0.2342 0.0112
C71_4 C 0.7762(7) 0.2624(7) 0.0093(8)
C72_4 C 0.704(2) 0.185(2) 0.015(2)
H36_4 H 0.6663 0.1748 0.0188
O36_4 O 0.7210(13) 0.5148(14) 0.025(3)
O38_4 O 0.7790(13) 0.5148(14) 0.475(3)
O56_2 O 0.8408(4) 0.5044(5) 0.5775(4)
O61_4 O 0.8512(4) 0.5947(5) 0.4962(5)
O62_4 O 0.6488(4) 0.5947(5) 0.0038(5)
H39_4 H 0.982265 0.510499 0.259901
C49_4 C 0.6440(7) 0.5011(9) 0.8719(11)
C50_4 C 0.6874(8) 0.4995(9) 0.8322(7)
C51_4 C 0.6800(7) 0.4970(10) 0.7801(9)
H25_4 H 0.6436 0.4934 0.7674
C52_4 C 0.7223(6) 0.4994(12) 0.7400(6)
C59_4 C 0.7137(8) 0.4998(17) 0.6832(9)
H29_4 H 0.6777 0.4964 0.6694
C60_4 C 0.7414(19) 0.5053(14) 0.8545(18)
H30_4 H 0.7472 0.5124 0.8921
O30_4 O 0.6592(4) 0.5044(5) 0.9225(4)
C61_4 C 0.8560(7) 0.5011(9) 0.6281(11)
C62_4 C 0.8126(8) 0.4995(9) 0.6678(7)
C63_4 C 0.8200(7) 0.4970(10) 0.7199(9)
H31_4 H 0.8564 0.4934 0.7326
C64_4 C 0.7777(6) 0.4994(12) 0.7600(6)
C65_4 C 0.7863(8) 0.4998(17) 0.8168(9)
H32_4 H 0.8223 0.4964 0.8306
C66_4 C 0.7586(19) 0.5053(14) 0.6455(18)
H33_4 H 0.7528 0.5124 0.6079
H46_3 H 0.740925 0.516157 0.989862
H38_4 H 0.987433 0.94741 0.232107
H37_4 H 0.491577 0.00928612 0.258571
H41_2 H 0.995339 0.559194 0.269749
H43_2 H 0.995339 0.940806 0.230251
H45_4 H 0.766401 0.0170814 0.0464096
H48_4 H 0.741205 0.0106822 0.498999
H46_4 H 0.759075 0.983843 0.989862
C1_3 C 0.3560(7) 0.0011(9) 0.3719(11)
C12_3 C 0.2586(19) 0.0053(14) 0.3545(18)
H6_3 H 0.2528 0.0124 0.3921
O5_3 O 0.3408(4) 0.0044(5) 0.4225(4)
O7_3 O 0.2790(13) 0.0148(14) 0.525(3)
C13_3 C 0.1440(7) 0.0011(9) 0.1281(11)
C18_3 C 0.2414(19) 0.0053(14) 0.1455(18)
H9_3 H 0.2472 0.0124 0.1079
O8_3 O 0.1592(4) 0.0044(5) 0.0775(4)
O18_3 O 0.2210(13) 0.0148(14) 0.975(3)
C2_3 C 0.3126(8) 0.9995(9) 0.3322(7)
C3_3 C 0.3200(7) 0.9970(10) 0.2801(9)
H1_3 H 0.3564 0.9934 0.2674
C4_3 C 0.2777(6) 0.9994(12) 0.2400(6)
C5_3 C 0.3126(8) 0.8312(8) 0.5078(7)
C6_3 C 0.3580(8) 0.8714(10) 0.5081(7)
C7_3 C 0.2510(19) 0.8536(19) 0.5137(15)
H2_3 H 0.2448 0.8917 0.5165
C8_3 C 0.3229(7) 0.7784(7) 0.5097(9)
H3_3 H 0.3595 0.7658 0.5112
C9_3 C 0.2762(7) 0.7376(7) 0.5093(8)
C10_3 C 0.204(2) 0.815(2) 0.515(2)
H4_3 H 0.1663 0.8252 0.5188
C11_3 C 0.2863(8) 0.9998(17) 0.1832(9)
H5_3 H 0.3223 0.9964 0.1694
O3_3 O 0.3412(4) 0.9225(4) 0.5095(4)
O4_3 O 0.4055(4) 0.8510(4) 0.5094(4)
C14_3 C 0.1874(8) 0.9995(9) 0.1678(7)
C15_3 C 0.1800(7) 0.9970(10) 0.2199(9)
H7_3 H 0.1436 0.9934 0.2326
C16_3 C 0.2223(6) 0.9994(12) 0.2600(6)
C17_3 C 0.2137(8) 0.9998(17) 0.3168(9)
H8_3 H 0.1777 0.9964 0.3306
C19_3 C 0.1874(8) 0.6688(8) 0.5078(7)
C20_3 C 0.1420(8) 0.6286(10) 0.5081(7)
C21_3 C 0.2490(19) 0.6464(19) 0.5137(15)
H10_3 H 0.2552 0.6083 0.5165
C22_3 C 0.1771(7) 0.7216(7) 0.5097(9)
H11_3 H 0.1405 0.7342 0.5112
C23_3 C 0.2238(7) 0.7624(7) 0.5093(8)
C24_3 C 0.296(2) 0.685(2) 0.515(2)
H12_3 H 0.3337 0.6748 0.5188
O10_3 O 0.1588(4) 0.5775(4) 0.5095(4)
O11_3 O 0.0945(4) 0.6490(4) 0.5094(4)
C37_3 C 0.3560(7) 0.4989(9) 0.1281(11)
C38_3 C 0.3126(8) 0.5005(9) 0.1678(7)
C39_3 C 0.3200(7) 0.5030(10) 0.2199(9)
H19_3 H 0.3564 0.5066 0.2326
C40_3 C 0.2777(6) 0.5006(12) 0.2600(6)
C41_3 C 0.2863(8) 0.5002(17) 0.3168(9)
H20_3 H 0.3223 0.5036 0.3306
C42_3 C 0.2586(19) 0.4947(14) 0.1455(18)
H21_3 H 0.2528 0.4876 0.1079
O20_3 O 0.3408(4) 0.4956(5) 0.0775(4)
C43_3 C 0.1440(7) 0.4989(9) 0.3719(11)
C44_3 C 0.1874(8) 0.5005(9) 0.3322(7)
C45_3 C 0.1800(7) 0.5030(10) 0.2801(9)
H22_3 H 0.1436 0.5066 0.2674
C46_3 C 0.2223(6) 0.5006(12) 0.2400(6)
C47_3 C 0.2137(8) 0.5002(17) 0.1832(9)
H23_3 H 0.1777 0.5036 0.1694
C48_3 C 0.2414(19) 0.4947(14) 0.3545(18)
H24_3 H 0.2472 0.4876 0.3921
O22_3 O 0.1592(4) 0.4956(5) 0.4225(4)
O26_3 O 0.2210(13) 0.4852(14) 0.525(3)
C50_5 C 0.6678(7) 0.6874(8) 0.0005(9)
C51_5 C 0.7199(9) 0.6800(7) 0.0030(10)
H25_5 H 0.7326 0.6436 0.0066
C52_5 C 0.7600(6) 0.7223(6) 0.0006(12)
C53_5 C 0.4922(7) 0.6874(8) 0.1688(8)
C54_5 C 0.4919(7) 0.6420(8) 0.1286(10)
C55_5 C 0.4863(15) 0.7490(19) 0.1464(19)
H26_5 H 0.4835 0.7552 0.1083
C56_5 C 0.4903(9) 0.6771(7) 0.2216(7)
H27_5 H 0.4888 0.6405 0.2342
C57_5 C 0.4907(8) 0.7238(7) 0.2624(7)
C58_5 C 0.485(2) 0.796(2) 0.185(2)
H28_5 H 0.4812 0.8337 0.1748
C59_5 C 0.8168(9) 0.7137(8) 0.0002(17)
H29_5 H 0.8306 0.6777 0.0036
O28_5 O 0.4905(4) 0.6588(4) 0.0775(4)
C62_5 C 0.8322(7) 0.8126(8) 0.0005(9)
C63_5 C 0.7801(9) 0.8200(7) 0.0030(10)
H31_5 H 0.7674 0.8564 0.0066
C64_5 C 0.7400(6) 0.7777(6) 0.0006(12)
C65_5 C 0.6832(9) 0.7863(8) 0.0002(17)
H32_5 H 0.6694 0.8223 0.0036
C67_5 C 0.4922(7) 0.8126(8) 0.3312(8)
C68_5 C 0.4919(7) 0.8580(8) 0.3714(10)
C69_5 C 0.4863(15) 0.7510(19) 0.3536(19)
H34_5 H 0.4835 0.7448 0.3917
C70_5 C 0.4903(9) 0.8229(7) 0.2784(7)
H35_5 H 0.4888 0.8595 0.2658
C71_5 C 0.4907(8) 0.7762(7) 0.2376(7)
C72_5 C 0.485(2) 0.704(2) 0.315(2)
H36_5 H 0.4812 0.6663 0.3252
O34_3 O 0.4905(4) 0.8412(4) 0.4225(4)
O51_3 O 0.0095(4) 0.8412(4) 0.0775(4)
H38_5 H 0.267893 0.987433 0.55259
H45_5 H 0.45359 0.733599 0.0170814
H48_5 H 0.00100051 0.758795 0.0106822
C25_3 C 0.1874(8) 0.8312(8) 0.9922(7)
C26_3 C 0.1420(8) 0.8714(10) 0.9919(7)
C27_3 C 0.2490(19) 0.8536(19) 0.9863(15)
H13_3 H 0.2552 0.8917 0.9835
C28_3 C 0.1771(7) 0.7784(7) 0.9903(9)
H14_3 H 0.1405 0.7658 0.9888
C29_3 C 0.2238(7) 0.7376(7) 0.9907(8)
C30_3 C 0.296(2) 0.815(2) 0.985(2)
H15_3 H 0.3337 0.8252 0.9812
O14_3 O 0.1588(4) 0.9225(4) 0.9905(4)
O15_3 O 0.0945(4) 0.8510(4) 0.9906(4)
C31_3 C 0.3126(8) 0.6688(8) 0.9922(7)
C32_3 C 0.3580(8) 0.6286(10) 0.9919(7)
C33_3 C 0.2510(19) 0.6464(19) 0.9863(15)
H16_3 H 0.2448 0.6083 0.9835
C34_3 C 0.3229(7) 0.7216(7) 0.9903(9)
H17_3 H 0.3595 0.7342 0.9888
C35_3 C 0.2762(7) 0.7624(7) 0.9907(8)
C36_3 C 0.204(2) 0.685(2) 0.985(2)
H18_3 H 0.1663 0.6748 0.9812
O16_3 O 0.3412(4) 0.5775(4) 0.9905(4)
O17_3 O 0.4055(4) 0.6490(4) 0.9906(4)
O24_3 O 0.2790(13) 0.4852(14) 0.975(3)
C49_5 C 0.6281(11) 0.6440(7) 0.9989(9)
C60_5 C 0.6455(18) 0.7414(19) 0.9947(14)
H30_5 H 0.6079 0.7472 0.9876
O30_5 O 0.5775(4) 0.6592(4) 0.9956(5)
C61_5 C 0.8719(11) 0.8560(7) 0.9989(9)
C66_5 C 0.8545(18) 0.7586(19) 0.9947(14)
H33_5 H 0.8921 0.7528 0.9876
O32_3 O 0.9225(4) 0.8408(4) 0.9956(5)
O36_5 O 0.475(3) 0.7210(13) 0.9852(14)
O38_5 O 0.025(3) 0.7790(13) 0.9852(14)
H39_5 H 0.240099 0.982265 0.989501
H37_5 H 0.241429 0.00842273 0.00928612
C53_6 C 0.0078(7) 0.6874(8) 0.3312(8)
C54_6 C 0.0081(7) 0.6420(8) 0.3714(10)
C55_6 C 0.0137(15) 0.7490(19) 0.3536(19)
H26_6 H 0.0165 0.7552 0.3917
C56_6 C 0.0097(9) 0.6771(7) 0.2784(7)
H27_6 H 0.0112 0.6405 0.2658
C57_6 C 0.0093(8) 0.7238(7) 0.2376(7)
C58_6 C 0.015(2) 0.796(2) 0.315(2)
H28_6 H 0.0188 0.8337 0.3252
O28_6 O 0.0095(4) 0.6588(4) 0.4225(4)
C67_6 C 0.0078(7) 0.8126(8) 0.1688(8)
C68_6 C 0.0081(7) 0.8580(8) 0.1286(10)
C69_6 C 0.0137(15) 0.7510(19) 0.1464(19)
H34_6 H 0.0165 0.7448 0.1083
C70_6 C 0.0097(9) 0.8229(7) 0.2216(7)
H35_6 H 0.0112 0.8595 0.2342
C71_6 C 0.0093(8) 0.7762(7) 0.2624(7)
C72_6 C 0.015(2) 0.704(2) 0.185(2)
H36_6 H 0.0188 0.6663 0.1748
O36_6 O 0.025(3) 0.7210(13) 0.5148(14)
O38_6 O 0.475(3) 0.7790(13) 0.5148(14)
O56_3 O 0.5775(4) 0.8408(4) 0.5044(5)
H39_6 H 0.259901 0.982265 0.510499
H38_6 H 0.232107 0.987433 0.94741
C49_6 C 0.8719(11) 0.6440(7) 0.5011(9)
C50_6 C 0.8322(7) 0.6874(8) 0.4995(9)
C51_6 C 0.7801(9) 0.6800(7) 0.4970(10)
H25_6 H 0.7674 0.6436 0.4934
C52_6 C 0.7400(6) 0.7223(6) 0.4994(12)
C59_6 C 0.6832(9) 0.7137(8) 0.4998(17)
H29_6 H 0.6694 0.6777 0.4964
C60_6 C 0.8545(18) 0.7414(19) 0.5053(14)
H30_6 H 0.8921 0.7472 0.5124
O30_6 O 0.9225(4) 0.6592(4) 0.5044(5)
C61_6 C 0.6281(11) 0.8560(7) 0.5011(9)
C62_6 C 0.6678(7) 0.8126(8) 0.4995(9)
C63_6 C 0.7199(9) 0.8200(7) 0.4970(10)
H31_6 H 0.7326 0.8564 0.4934
C64_6 C 0.7600(6) 0.7777(6) 0.4994(12)
C65_6 C 0.8168(9) 0.7863(8) 0.4998(17)
H32_6 H 0.8306 0.8223 0.4964
C66_6 C 0.6455(18) 0.7586(19) 0.5053(14)
H33_6 H 0.6079 0.7528 0.5124
H46_5 H 0.989862 0.740925 0.516157
H37_6 H 0.258571 0.491577 0.00928612
H41_3 H 0.269749 0.995339 0.559194
H43_3 H 0.230251 0.995339 0.940806
H45_6 H 0.0464096 0.766401 0.0170814
H48_6 H 0.498999 0.741205 0.0106822
H46_6 H 0.989862 0.759075 0.983843
H39_7 H 0.0104992 0.759901 0.0177347
H38_7 H 0.44741 0.732107 0.0125672
H45_7 H 0.982919 0.54641 0.266401
H48_7 H 0.989318 0.998999 0.241205
H38_8 H 0.0525899 0.767893 0.0125672
H46_7 H 0.483843 0.0101381 0.259075
H39_8 H 0.489501 0.740099 0.0177347
H37_7 H 0.990714 0.758571 0.991577
H43_4 H 0.0591941 0.769749 0.00466081
H37_8 H 0.990714 0.741429 0.508423
H41_4 H 0.440806 0.730251 0.00466081
H46_8 H 0.0161572 0.0101381 0.240925
H45_8 H 0.982919 0.95359 0.233599
H48_8 H 0.989318 0.501001 0.258795
H39_9 H 0.0177347 0.0104992 0.759901
H38_9 H 0.0125672 0.44741 0.732107
H45_9 H 0.266401 0.982919 0.54641
H48_9 H 0.241205 0.989318 0.998999
H38_10 H 0.0125672 0.0525899 0.767893
H46_9 H 0.259075 0.483843 0.0101381
H39_10 H 0.0177347 0.489501 0.740099
H37_9 H 0.991577 0.990714 0.758571
H43_5 H 0.00466081 0.0591941 0.769749
H37_10 H 0.508423 0.990714 0.741429
H41_5 H 0.00466081 0.440806 0.730251
H46_10 H 0.240925 0.0161572 0.0101381
H45_10 H 0.233599 0.982919 0.95359
H48_10 H 0.258795 0.989318 0.501001
H39_11 H 0.759901 0.0177347 0.0104992
H38_11 H 0.732107 0.0125672 0.44741
H45_11 H 0.54641 0.266401 0.982919
H48_11 H 0.998999 0.241205 0.989318
H46_11 H 0.0101381 0.259075 0.483843
H38_12 H 0.767893 0.0125672 0.0525899
H39_12 H 0.740099 0.0177347 0.489501
H37_11 H 0.758571 0.991577 0.990714
H43_6 H 0.769749 0.00466081 0.0591941
H37_12 H 0.741429 0.508423 0.990714
H41_6 H 0.730251 0.00466081 0.440806
H46_12 H 0.0101381 0.240925 0.0161572
H45_12 H 0.95359 0.233599 0.982919
H48_12 H 0.501001 0.258795 0.989318
loop_
_geom_bond_atom_site_label_1
_geom_bond_atom_site_label_2
_geom_bond_site_symmetry_1
_geom_bond_site_symmetry_2
Tb1 O1 1_555 1_555
H6 C12 1_555 1_555
O1 Tb8 1_555 1_555
O5 Tb1 1_555 1_555
O7 Tb1 1_555 1_555
H9 C18 1_555 1_555
O8 C13 1_555 1_555
Tb8 O49 1_555 1_555
O49 Tb1 1_555 1_555
O54 Tb1 1_555 1_555
O60 Tb1 1_555 1_555
C1 O5 1_555 1_555
Tb20 O49 1_555 1_555
C2 C3 1_555 1_555
C3 H1 1_555 1_555
C4 C3 1_555 1_555
C5 C6 1_555 1_555
C6 O3 1_555 1_555
C7 C5 1_555 1_555
H2 C7 1_555 1_555
C8 C5 1_555 1_555
H3 C8 1_555 1_555
C9 C8 1_555 1_555
C10 C7 1_555 1_555
H4 C10 1_555 1_555
C11 C4 1_555 1_555
H5 C11 1_555 1_555
O4 C6 1_555 1_555
C14 C15 1_555 1_555
C15 H7 1_555 1_555
C16 C4 1_555 1_555
H8 C17 1_555 1_555
C19 C20 1_555 1_555
C20 O10 1_555 1_555
C21 C19 1_555 1_555
H10 C21 1_555 1_555
C22 C19 1_555 1_555
H11 C22 1_555 1_555
C23 C9 1_555 1_555
C24 C9 1_555 1_555
H12 C24 1_555 1_555
O10 Tb4 1_555 1_555
O11 C20 1_555 1_555
C37 C38 1_555 1_555
C38 C39 1_555 1_555
C39 H19 1_555 1_555
C40 C39 1_555 1_555
C41 C40 1_555 1_555
H20 C41 1_555 1_555
C42 C38 1_555 1_555
H21 C42 1_555 1_555
O21 C37 1_555 1_555
C43 C44 1_555 1_555
C44 C45 1_555 1_555
C45 H22 1_555 1_555
C46 C40 1_555 1_555
C47 C42 1_555 1_555
H23 C47 1_555 1_555
C48 C41 1_555 1_555
H24 C48 1_555 1_555
O22 C43 1_555 1_555
O23 C43 1_555 1_555
Tb4 O22 1_555 1_555
O25 Tb4 1_555 1_555
O26 Tb4 1_555 1_555
C50 C51 1_555 1_555
C51 H25 1_555 1_555
C52 C51 1_555 1_555
C53 C54 1_555 1_555
C54 O28 1_555 1_555
C55 C53 1_555 1_555
H26 C55 1_555 1_555
C56 C53 1_555 1_555
H27 C56 1_555 1_555
C57 C56 1_555 1_555
C58 C55 1_555 1_555
H28 C58 1_555 1_555
C59 C52 1_555 1_555
H29 C59 1_555 1_555
O29 C54 1_555 1_555
C62 C63 1_555 1_555
C63 H31 1_555 1_555
C64 C52 1_555 1_555
H32 C65 1_555 1_555
C67 C68 1_555 1_555
C68 O34 1_555 1_555
C69 C67 1_555 1_555
H34 C69 1_555 1_555
C70 C67 1_555 1_555
H35 C70 1_555 1_555
C71 C57 1_555 1_555
C72 C57 1_555 1_555
H36 C72 1_555 1_555
O34 Tb17 1_555 1_555
O35 C68 1_555 1_555
Tb9 O23 1_555 1_555
Tb10 O9 1_555 1_555
Tb12 O21 1_555 1_555
Tb13 O33 1_555 1_555
Tb14 O31 1_555 1_555
Tb16 O11 1_555 1_555
Tb17 O2 1_555 1_555
O40 Tb4 1_555 1_555
O45 Tb4 1_555 1_555
O47 Tb4 1_555 1_555
O52 Tb4 1_555 1_555
O59 Tb4 1_555 1_555
C10 C23 1_555 1_555
O4 Tb17 1_555 1_555
O6 Tb11 1_555 1_555
C15 C16 1_555 1_555
C16 C17 1_555 1_555
C21 C24 1_555 1_555
C22 C23 1_555 1_555
C37 O20 1_555 1_555
C44 C48 1_555 1_555
C45 C46 1_555 1_555
C46 C47 1_555 1_555
O25 Tb16 1_555 1_555
C58 C71 1_555 1_555
O27 Tb12 1_555 1_555
O29 Tb12 1_555 1_555
C63 C64 1_555 1_555
C64 C65 1_555 1_555
C69 C72 1_555 1_555
C70 C71 1_555 1_555
O35 Tb11 1_555 1_555
O37 Tb10 1_555 1_555
Tb9 O40 1_555 1_555
Tb9 O45 1_555 1_555
Tb11 O46 1_555 1_555
Tb12 O39 1_555 1_555
Tb12 O44 1_555 1_555
Tb14 O44 1_555 1_555
Tb16 O45 1_555 1_555
Tb17 O46 1_555 1_555
O18 Tb2 1_555 1_555
O48 Tb2 1_555 1_555
O53 Tb2 1_555 1_555
O58 Tb2 1_555 1_555
C25 C26 1_555 1_555
C26 O14 1_555 1_555
C27 C25 1_555 1_555
H13 C27 1_555 1_555
C28 C25 1_555 1_555
H14 C28 1_555 1_555
C29 C28 1_555 1_555
C30 C27 1_555 1_555
H15 C30 1_555 1_555
O15 C26 1_555 1_555
C31 C32 1_555 1_555
C32 O16 1_555 1_555
C33 C31 1_555 1_555
H16 C33 1_555 1_555
C34 C31 1_555 1_555
H17 C34 1_555 1_555
C35 C29 1_555 1_555
C36 C29 1_555 1_555
H18 C36 1_555 1_555
O16 Tb3 1_555 1_555
O17 C32 1_555 1_555
Tb3 O19 1_555 1_555
O19 Tb5 1_555 1_555
O24 Tb3 1_555 1_555
Tb5 O17 1_555 1_555
H30 C60 1_555 1_555
O30 Tb5 1_555 1_555
H33 C66 1_555 1_555
O32 C61 1_555 1_555
O36 Tb5 1_555 1_555
Tb15 O13 1_555 1_555
O38 Tb15 1_555 1_555
Tb21 O19 1_555 1_555
O42 Tb5 1_555 1_555
O50 Tb3 1_555 1_555
O55 Tb3 1_555 1_555
O57 Tb3 1_555 1_555
O61 Tb15 1_555 1_555
O62 Tb5 1_555 1_555
C30 C35 1_555 1_555
O15 Tb15 1_555 1_555
C33 C36 1_555 1_555
C34 C35 1_555 1_555
C49 O30 1_555 1_555
Tb21 O42 1_555 1_555
Tb21 O50 1_555 1_555
C53_2 C54_2 1_555 1_555
C54_2 O28_2 1_555 1_555
C55_2 C53_2 1_555 1_555
H26_2 C55_2 1_555 1_555
C56_2 C53_2 1_555 1_555
H27_2 C56_2 1_555 1_555
C57_2 C56_2 1_555 1_555
C58_2 C55_2 1_555 1_555
H28_2 C58_2 1_555 1_555
O28_2 Tb16 1_555 1_555
O29_2 C54_2 1_555 1_555
C67_2 C68_2 1_555 1_555
C68_2 O51 1_555 1_555
C69_2 C67_2 1_555 1_555
H34_2 C69_2 1_555 1_555
C70_2 C67_2 1_555 1_555
H35_2 C70_2 1_555 1_555
C71_2 C57_2 1_555 1_555
C72_2 C57_2 1_555 1_555
H36_2 C72_2 1_555 1_555
O35_2 C68_2 1_555 1_555
O36_2 Tb16 1_555 1_555
O38_2 Tb17 1_555 1_555
O41_2 Tb17 1_555 1_555
O43_2 Tb17 1_555 1_555
O56 Tb17 1_555 1_555
O61_2 Tb17 1_555 1_555
O62_2 Tb16 1_555 1_555
C58_2 C71_2 1_555 1_555
O29_2 Tb9 1_555 1_555
C69_2 C72_2 1_555 1_555
C70_2 C71_2 1_555 1_555
O35_2 Tb10 1_555 1_555
Tb11 O43_2 1_555 1_555
C49_2 C50_2 1_555 1_555
C50_2 C51_2 1_555 1_555
C51_2 H25_2 1_555 1_555
C52_2 C51_2 1_555 1_555
C59_2 C52_2 1_555 1_555
H29_2 C59_2 1_555 1_555
C60_2 C50_2 1_555 1_555
H30_2 C60_2 1_555 1_555
O31_2 C49_2 1_555 1_555
C61_2 C62_2 1_555 1_555
C62_2 C63_2 1_555 1_555
C63_2 H31_2 1_555 1_555
C64_2 C52_2 1_555 1_555
C65_2 C60_2 1_555 1_555
H32_2 C65_2 1_555 1_555
C66_2 C59_2 1_555 1_555
H33_2 C66_2 1_555 1_555
O56 C61_2 1_555 1_555
O33_2 C61_2 1_555 1_555
Tb13_2 O33_2 1_555 1_555
Tb14_2 O31_2 1_555 1_555
C49_2 O30_2 1_555 1_555
C62_2 C66_2 1_555 1_555
C63_2 C64_2 1_555 1_555
C64_2 C65_2 1_555 1_555
Tb14_2 O42_2 1_555 1_555
Tb14_2 O44_2 1_555 1_555
Tb18 O42_2 1_555 1_555
O39 Tb8_2 1_555 1_555
Tb13_2 O41_2 1_555 1_555
Tb13_2 O43_2 1_555 1_555
Tb13 O43 1_555 1_555
H6_2 C12_2 1_555 1_555
O5_2 Tb8_2 1_555 1_555
O7_2 Tb8_2 1_555 1_555
H9_2 C18_2 1_555 1_555
O8_2 C13_2 1_555 1_555
Tb12 O49_2 1_555 1_555
O49_2 Tb8_2 1_555 1_555
O54_2 Tb8_2 1_555 1_555
O60_2 Tb8_2 1_555 1_555
C1_2 O5_2 1_555 1_555
Tb14 O49_2 1_555 1_555
O18_2 Tb7 1_555 1_555
O48_2 Tb7 1_555 1_555
O53_2 Tb7 1_555 1_555
O58_2 Tb7 1_555 1_555
C2_2 C3_2 1_555 1_555
C3_2 H1_2 1_555 1_555
C4_2 C3_2 1_555 1_555
C5_2 C6_2 1_555 1_555
C6_2 O3_2 1_555 1_555
C7_2 C5_2 1_555 1_555
H2_2 C7_2 1_555 1_555
C8_2 C5_2 1_555 1_555
H3_2 C8_2 1_555 1_555
C9_2 C8_2 1_555 1_555
C10_2 C7_2 1_555 1_555
H4_2 C10_2 1_555 1_555
C11_2 C4_2 1_555 1_555
H5_2 C11_2 1_555 1_555
O4_2 C6_2 1_555 1_555
C14_2 C15_2 1_555 1_555
C15_2 H7_2 1_555 1_555
C16_2 C4_2 1_555 1_555
H8_2 C17_2 1_555 1_555
C19_2 C20_2 1_555 1_555
C20_2 O10_2 1_555 1_555
C21_2 C19_2 1_555 1_555
H10_2 C21_2 1_555 1_555
C22_2 C19_2 1_555 1_555
H11_2 C22_2 1_555 1_555
C23_2 C9_2 1_555 1_555
C24_2 C9_2 1_555 1_555
H12_2 C24_2 1_555 1_555
O10_2 Tb8 1_555 1_555
O11_2 C20_2 1_555 1_555
C37_2 C38_2 1_555 1_555
C38_2 C39_2 1_555 1_555
C39_2 H19_2 1_555 1_555
C40_2 C39_2 1_555 1_555
C41_2 C40_2 1_555 1_555
H20_2 C41_2 1_555 1_555
C42_2 C38_2 1_555 1_555
H21_2 C42_2 1_555 1_555
O59 C37_2 1_555 1_555
C43_2 C44_2 1_555 1_555
C44_2 C45_2 1_555 1_555
C45_2 H22_2 1_555 1_555
C46_2 C40_2 1_555 1_555
C47_2 C42_2 1_555 1_555
H23_2 C47_2 1_555 1_555
C48_2 C41_2 1_555 1_555
H24_2 C48_2 1_555 1_555
O22_2 C43_2 1_555 1_555
O60 C43_2 1_555 1_555
Tb8 O22_2 1_555 1_555
O25_2 Tb8 1_555 1_555
O26_2 Tb8 1_555 1_555
C50_3 C51_3 1_555 1_555
C51_3 H25_3 1_555 1_555
C52_3 C51_3 1_555 1_555
C53_3 C54_3 1_555 1_555
C54_3 O28_3 1_555 1_555
C55_3 C53_3 1_555 1_555
H26_3 C55_3 1_555 1_555
C56_3 C53_3 1_555 1_555
H27_3 C56_3 1_555 1_555
C57_3 C56_3 1_555 1_555
C58_3 C55_3 1_555 1_555
H28_3 C58_3 1_555 1_555
C59_3 C52_3 1_555 1_555
H29_3 C59_3 1_555 1_555
O52 C54_3 1_555 1_555
C62_3 C63_3 1_555 1_555
C63_3 H31_3 1_555 1_555
C64_3 C52_3 1_555 1_555
H32_3 C65_3 1_555 1_555
C67_3 C68_3 1_555 1_555
C68_3 O34_2 1_555 1_555
C69_3 C67_3 1_555 1_555
H34_3 C69_3 1_555 1_555
C70_3 C67_3 1_555 1_555
H35_3 C70_3 1_555 1_555
C71_3 C57_3 1_555 1_555
C72_3 C57_3 1_555 1_555
H36_3 C72_3 1_555 1_555
O34_2 Tb21 1_555 1_555
O55 C68_3 1_555 1_555
Tb20 O11_2 1_555 1_555
Tb21 O2_2 1_555 1_555
O47_2 Tb8 1_555 1_555
O52_2 Tb8 1_555 1_555
O59_2 Tb8 1_555 1_555
C10_2 C23_2 1_555 1_555
O4_2 Tb21 1_555 1_555
C15_2 C16_2 1_555 1_555
C16_2 C17_2 1_555 1_555
C21_2 C24_2 1_555 1_555
C22_2 C23_2 1_555 1_555
C37_2 O20_2 1_555 1_555
C44_2 C48_2 1_555 1_555
C45_2 C46_2 1_555 1_555
C46_2 C47_2 1_555 1_555
O25_2 Tb20 1_555 1_555
C58_3 C71_3 1_555 1_555
C63_3 C64_3 1_555 1_555
C64_3 C65_3 1_555 1_555
C69_3 C72_3 1_555 1_555
C70_3 C71_3 1_555 1_555
C25_2 C26_2 1_555 1_555
C26_2 O14_2 1_555 1_555
C27_2 C25_2 1_555 1_555
H13_2 C27_2 1_555 1_555
C28_2 C25_2 1_555 1_555
H14_2 C28_2 1_555 1_555
C29_2 C28_2 1_555 1_555
C30_2 C27_2 1_555 1_555
H15_2 C30_2 1_555 1_555
O15_2 C26_2 1_555 1_555
C31_2 C32_2 1_555 1_555
C32_2 O16_2 1_555 1_555
C33_2 C31_2 1_555 1_555
H16_2 C33_2 1_555 1_555
C34_2 C31_2 1_555 1_555
H17_2 C34_2 1_555 1_555
C35_2 C29_2 1_555 1_555
C36_2 C29_2 1_555 1_555
H18_2 C36_2 1_555 1_555
O16_2 Tb7_2 1_555 1_555
O17_2 C32_2 1_555 1_555
Tb7_2 O19_2 1_555 1_555
O19_2 Tb18 1_555 1_555
O24_2 Tb7_2 1_555 1_555
Tb18 O17_2 1_555 1_555
H30_3 C60_3 1_555 1_555
O30_3 Tb18 1_555 1_555
H33_3 C66_3 1_555 1_555
O32_2 C61_3 1_555 1_555
O36_3 Tb18 1_555 1_555
Tb19 O13_2 1_555 1_555
O38_3 Tb19 1_555 1_555
Tb14_2 O19_2 1_555 1_555
O50_2 Tb7_2 1_555 1_555
O55_2 Tb7_2 1_555 1_555
O57_2 Tb7_2 1_555 1_555
O61_3 Tb19 1_555 1_555
O62_3 Tb18 1_555 1_555
C30_2 C35_2 1_555 1_555
O15_2 Tb19 1_555 1_555
C33_2 C36_2 1_555 1_555
C34_2 C35_2 1_555 1_555
C49_3 O30_3 1_555 1_555
Tb14_2 O50_2 1_555 1_555
C53_4 C54_4 1_555 1_555
C54_4 O28_4 1_555 1_555
C55_4 C53_4 1_555 1_555
H26_4 C55_4 1_555 1_555
C56_4 C53_4 1_555 1_555
H27_4 C56_4 1_555 1_555
C57_4 C56_4 1_555 1_555
C58_4 C55_4 1_555 1_555
H28_4 C58_4 1_555 1_555
O28_4 Tb20 1_555 1_555
O54 C54_4 1_555 1_555
C67_4 C68_4 1_555 1_555
C68_4 O51_2 1_555 1_555
C69_4 C67_4 1_555 1_555
H34_4 C69_4 1_555 1_555
C70_4 C67_4 1_555 1_555
H35_4 C70_4 1_555 1_555
C71_4 C57_4 1_555 1_555
C72_4 C57_4 1_555 1_555
H36_4 C72_4 1_555 1_555
O53 C68_4 1_555 1_555
O36_4 Tb20 1_555 1_555
O38_4 Tb21 1_555 1_555
O56_2 Tb21 1_555 1_555
O61_4 Tb21 1_555 1_555
O62_4 Tb20 1_555 1_555
C58_4 C71_4 1_555 1_555
C69_4 C72_4 1_555 1_555
C70_4 C71_4 1_555 1_555
C49_4 C50_4 1_555 1_555
C50_4 C51_4 1_555 1_555
C51_4 H25_4 1_555 1_555
C52_4 C51_4 1_555 1_555
C59_4 C52_4 1_555 1_555
H29_4 C59_4 1_555 1_555
C60_4 C50_4 1_555 1_555
H30_4 C60_4 1_555 1_555
O61_2 C49_4 1_555 1_555
C61_4 C62_4 1_555 1_555
C62_4 C63_4 1_555 1_555
C63_4 H31_4 1_555 1_555
C64_4 C52_4 1_555 1_555
C65_4 C60_4 1_555 1_555
H32_4 C65_4 1_555 1_555
C66_4 C59_4 1_555 1_555
H33_4 C66_4 1_555 1_555
O56_2 C61_4 1_555 1_555
O62 C61_4 1_555 1_555
C49_4 O30_4 1_555 1_555
C62_4 C66_4 1_555 1_555
C63_4 C64_4 1_555 1_555
C64_4 C65_4 1_555 1_555
H6_3 C12_3 1_555 1_555
O5_3 Tb9 1_555 1_555
O7_3 Tb9 1_555 1_555
H9_3 C18_3 1_555 1_555
O8_3 C13_3 1_555 1_555
C1_3 O5_3 1_555 1_555
O18_3 Tb10 1_555 1_555
C2_3 C3_3 1_555 1_555
C3_3 H1_3 1_555 1_555
C4_3 C3_3 1_555 1_555
C5_3 C6_3 1_555 1_555
C6_3 O3_3 1_555 1_555
C7_3 C5_3 1_555 1_555
H2_3 C7_3 1_555 1_555
C8_3 C5_3 1_555 1_555
H3_3 C8_3 1_555 1_555
C9_3 C8_3 1_555 1_555
C10_3 C7_3 1_555 1_555
H4_3 C10_3 1_555 1_555
C11_3 C4_3 1_555 1_555
H5_3 C11_3 1_555 1_555
O4_3 C6_3 1_555 1_555
C14_3 C15_3 1_555 1_555
C15_3 H7_3 1_555 1_555
C16_3 C4_3 1_555 1_555
H8_3 C17_3 1_555 1_555
C19_3 C20_3 1_555 1_555
C20_3 O10_3 1_555 1_555
C21_3 C19_3 1_555 1_555
H10_3 C21_3 1_555 1_555
C22_3 C19_3 1_555 1_555
H11_3 C22_3 1_555 1_555
C23_3 C9_3 1_555 1_555
C24_3 C9_3 1_555 1_555
H12_3 C24_3 1_555 1_555
O10_3 Tb12 1_555 1_555
O11_3 C20_3 1_555 1_555
C37_3 C38_3 1_555 1_555
C38_3 C39_3 1_555 1_555
C39_3 H19_3 1_555 1_555
C40_3 C39_3 1_555 1_555
C41_3 C40_3 1_555 1_555
H20_3 C41_3 1_555 1_555
C42_3 C38_3 1_555 1_555
H21_3 C42_3 1_555 1_555
O59_2 C37_3 1_555 1_555
C43_3 C44_3 1_555 1_555
C44_3 C45_3 1_555 1_555
C45_3 H22_3 1_555 1_555
C46_3 C40_3 1_555 1_555
C47_3 C42_3 1_555 1_555
H23_3 C47_3 1_555 1_555
C48_3 C41_3 1_555 1_555
H24_3 C48_3 1_555 1_555
O22_3 C43_3 1_555 1_555
O60_2 C43_3 1_555 1_555
Tb12 O22_3 1_555 1_555
O26_3 Tb12 1_555 1_555
C50_5 C51_5 1_555 1_555
C51_5 H25_5 1_555 1_555
C52_5 C51_5 1_555 1_555
C53_5 C54_5 1_555 1_555
C54_5 O28_5 1_555 1_555
C55_5 C53_5 1_555 1_555
H26_5 C55_5 1_555 1_555
C56_5 C53_5 1_555 1_555
H27_5 C56_5 1_555 1_555
C57_5 C56_5 1_555 1_555
C58_5 C55_5 1_555 1_555
H28_5 C58_5 1_555 1_555
C59_5 C52_5 1_555 1_555
H29_5 C59_5 1_555 1_555
O52_2 C54_5 1_555 1_555
C62_5 C63_5 1_555 1_555
C63_5 H31_5 1_555 1_555
C64_5 C52_5 1_555 1_555
H32_5 C65_5 1_555 1_555
C67_5 C68_5 1_555 1_555
C68_5 O34_3 1_555 1_555
C69_5 C67_5 1_555 1_555
H34_5 C69_5 1_555 1_555
C70_5 C67_5 1_555 1_555
H35_5 C70_5 1_555 1_555
C71_5 C57_5 1_555 1_555
C72_5 C57_5 1_555 1_555
H36_5 C72_5 1_555 1_555
O34_3 Tb14_2 1_555 1_555
O55_2 C68_5 1_555 1_555
Tb14 O11_3 1_555 1_555
C10_3 C23_3 1_555 1_555
O4_3 Tb14_2 1_555 1_555
C15_3 C16_3 1_555 1_555
C16_3 C17_3 1_555 1_555
C21_3 C24_3 1_555 1_555
C22_3 C23_3 1_555 1_555
C37_3 O20_3 1_555 1_555
C44_3 C48_3 1_555 1_555
C45_3 C46_3 1_555 1_555
C46_3 C47_3 1_555 1_555
C58_5 C71_5 1_555 1_555
C63_5 C64_5 1_555 1_555
C64_5 C65_5 1_555 1_555
C69_5 C72_5 1_555 1_555
C70_5 C71_5 1_555 1_555
C25_3 C26_3 1_555 1_555
C26_3 O14_3 1_555 1_555
C27_3 C25_3 1_555 1_555
H13_3 C27_3 1_555 1_555
C28_3 C25_3 1_555 1_555
H14_3 C28_3 1_555 1_555
C29_3 C28_3 1_555 1_555
C30_3 C27_3 1_555 1_555
H15_3 C30_3 1_555 1_555
O15_3 C26_3 1_555 1_555
C31_3 C32_3 1_555 1_555
C32_3 O16_3 1_555 1_555
C33_3 C31_3 1_555 1_555
H16_3 C33_3 1_555 1_555
C34_3 C31_3 1_555 1_555
H17_3 C34_3 1_555 1_555
C35_3 C29_3 1_555 1_555
C36_3 C29_3 1_555 1_555
H18_3 C36_3 1_555 1_555
O16_3 Tb11 1_555 1_555
O17_3 C32_3 1_555 1_555
O24_3 Tb11 1_555 1_555
Tb13_2 O17_3 1_555 1_555
H30_5 C60_5 1_555 1_555
O30_5 Tb13_2 1_555 1_555
H33_5 C66_5 1_555 1_555
O32_3 C61_5 1_555 1_555
O36_5 Tb13_2 1_555 1_555
O38_5 Tb13 1_555 1_555
C30_3 C35_3 1_555 1_555
O15_3 Tb13 1_555 1_555
C33_3 C36_3 1_555 1_555
C34_3 C35_3 1_555 1_555
C49_5 O30_5 1_555 1_555
C53_6 C54_6 1_555 1_555
C54_6 O28_6 1_555 1_555
C55_6 C53_6 1_555 1_555
H26_6 C55_6 1_555 1_555
C56_6 C53_6 1_555 1_555
H27_6 C56_6 1_555 1_555
C57_6 C56_6 1_555 1_555
C58_6 C55_6 1_555 1_555
H28_6 C58_6 1_555 1_555
O28_6 Tb14 1_555 1_555
O54_2 C54_6 1_555 1_555
C67_6 C68_6 1_555 1_555
C68_6 O51_3 1_555 1_555
C69_6 C67_6 1_555 1_555
H34_6 C69_6 1_555 1_555
C70_6 C67_6 1_555 1_555
H35_6 C70_6 1_555 1_555
C71_6 C57_6 1_555 1_555
C72_6 C57_6 1_555 1_555
H36_6 C72_6 1_555 1_555
O53_2 C68_6 1_555 1_555
O36_6 Tb14 1_555 1_555
O38_6 Tb14_2 1_555 1_555
O56_3 Tb14_2 1_555 1_555
C58_6 C71_6 1_555 1_555
C69_6 C72_6 1_555 1_555
C70_6 C71_6 1_555 1_555
C49_6 C50_6 1_555 1_555
C50_6 C51_6 1_555 1_555
C51_6 H25_6 1_555 1_555
C52_6 C51_6 1_555 1_555
C59_6 C52_6 1_555 1_555
H29_6 C59_6 1_555 1_555
C60_6 C50_6 1_555 1_555
H30_6 C60_6 1_555 1_555
O61_4 C49_6 1_555 1_555
C61_6 C62_6 1_555 1_555
C62_6 C63_6 1_555 1_555
C63_6 H31_6 1_555 1_555
C64_6 C52_6 1_555 1_555
C65_6 C60_6 1_555 1_555
H32_6 C65_6 1_555 1_555
C66_6 C59_6 1_555 1_555
H33_6 C66_6 1_555 1_555
O56_3 C61_6 1_555 1_555
O62_3 C61_6 1_555 1_555
C49_6 O30_6 1_555 1_555
C62_6 C66_6 1_555 1_555
C63_6 C64_6 1_555 1_555
C64_6 C65_6 1_555 1_555

#END
