
###############################################################################
#
# This file contains modified crystal structure data generated from the
# MOF subset of the Cambridge Structural Database (CSD) v543 
# hosted by the Cambridge Crystallographic Data Centre (CCDC).
#
# This work is licensed under the Creative Commons
# Attribution-NonCommercial-ShareAlike 4.0 International License.
# To view a copy of this license, visit
# http://creativecommons.org/licenses/by-nc-sa/4.0/
# or send a letter to
# Creative Commons, PO Box 1866, Mountain View, CA 94042, USA.
#
# CIF created using the CSD Python API on 29 September 2022
# The structure has been converted into the P1 space group
# The structure has a 3D framework
# The original CSD entry SODXUG is in the orthorhombic crystal system
# The framework has been calculated to contain at least 10.0% void space
# The void calculation uses a probe of radius 1.32A, grid spacing 0.4
#
###############################################################################

data_SODXUG
_chemical_formula_moiety         '(C264 H213 Co25 N24 O75)n'
_symmetry_cell_setting           triclinic
_symmetry_space_group_name_H-M   'P 1'
_symmetry_Int_Tables_number      1
_space_group_name_Hall           'P 1'
loop_
_symmetry_equiv_pos_site_id
_symmetry_equiv_pos_as_xyz
1 x,y,z
_cell_length_a                   16.2445(11)
_cell_length_b                   16.4805(11)
_cell_length_c                   25.7372(17)
_cell_angle_alpha                90
_cell_angle_beta                 90
_cell_angle_gamma                90
_cell_volume                     6890.3
loop_
_atom_site_label
_atom_site_type_symbol
_atom_site_fract_x
_atom_site_fract_y
_atom_site_fract_z
Co8 Co 0.0000 0.5000 0.5000
Co1 Co 0.5000 0.0000 0.5000
Co2 Co 0.36130(3) 0.05795(3) 0.42446(2)
Co3 Co 0.57669(3) 0.01469(3) 0.39101(2)
N1 N 0.2459(2) 0.1199(2) 0.42444(13)
N2 N 0.0374(3) 0.0126(3) 0.4884(2)
N3 N 0.8144(3) 0.0342(3) 0.32686(17)
O5 O 0.59975(15) 0.07044(15) 0.47095(10)
O6 O 0.69309(16) 0.03899(17) 0.53169(11)
O7 O 0.87346(18) 0.40525(18) 0.42048(11)
O8 O 0.91319(16) 0.39506(15) 0.50341(10)
O9 O 0.69542(19) 0.04664(19) 0.37074(13)
H8 H 0.2808 0.0053 0.3420
C13 C 0.6658(2) 0.0842(2) 0.49620(14)
C14 C 0.7151(2) 0.1605(2) 0.48460(15)
C15 C 0.7956(2) 0.1620(2) 0.50031(16)
H10 H 0.8183 0.1157 0.5152
C16 C 0.8449(3) 0.2315(2) 0.49448(17)
H11 H 0.8986 0.2310 0.5068
C17 C 0.8151(2) 0.3002(2) 0.47090(15)
C18 C 0.7314(2) 0.3013(2) 0.45287(15)
C19 C 0.6955(3) 0.3715(2) 0.43001(17)
H12 H 0.7281 0.4171 0.4247
C20 C 0.6158(3) 0.3737(3) 0.4158(2)
H13 H 0.5945 0.4201 0.4002
C21 C 0.5653(3) 0.3068(3) 0.42426(19)
H14 H 0.5100 0.3091 0.4148
C22 C 0.5960(3) 0.2381(2) 0.44624(17)
H15 H 0.5611 0.1941 0.4517
C23 C 0.6799(2) 0.2320(2) 0.46096(15)
C24 C 0.8709(2) 0.3727(2) 0.46431(15)
C25 C 0.1787(3) 0.0856(3) 0.44319(18)
H16 H 0.1837 0.0346 0.4584
C26 C 0.1006(3) 0.1209(3) 0.44168(19)
C27 C 0.0930(3) 0.1962(3) 0.4182(2)
H17 H 0.0420 0.2216 0.4161
C28 C 0.1618(3) 0.2326(3) 0.3984(2)
H18 H 0.1581 0.2830 0.3824
C29 C 0.2369(3) 0.1938(3) 0.40240(19)
H19 H 0.2833 0.2198 0.3893
C30 C 0.0305(3) 0.0805(3) 0.4660(2)
C31 C 0.7362(3) 0.0172(3) 0.3354(2)
C32 C 0.8583(3) 0.0897(3) 0.3595(2)
H22 H 0.8451 0.1444 0.3497
H23 H 0.9164 0.0810 0.3557
H24 H 0.8428 0.0810 0.3951
H26 H 0.8785 0.0371 0.2613
Co8_2 Co 1.0000 0.5000 0.5000
Co11 Co 0.86130(3) 0.44205(3) 0.57554(2)
Co18 Co 0.92331(3) 0.51469(3) 0.39101(2)
O23 O 0.53363(17) 0.11166(18) 0.35208(11)
O25 O 0.40889(17) 0.14995(18) 0.37859(12)
O32 O 0.41319(16) 0.10494(15) 0.49659(10)
O35 O 0.53212(15) 0.01013(15) 0.57439(9)
Co1_2 Co 0.5000 1.0000 0.5000
O1 O 0.55553(18) 0.94292(17) 0.32407(11)
C1 C 0.5052(3) 0.8844(3) 0.32220(16)
O2 O 0.4451(2) 0.8741(2) 0.35140(14)
C2 C 0.5176(3) 0.8220(2) 0.27967(16)
C3 C 0.4511(3) 0.8017(3) 0.25019(19)
H1 H 0.4000 0.8245 0.2577
O3 O 0.46637(17) 0.61166(18) 0.14792(11)
C4 C 0.4585(3) 0.7470(3) 0.20871(17)
H2 H 0.4123 0.7350 0.1888
O4 O 0.59111(17) 0.64995(18) 0.12141(12)
C5 C 0.5321(2) 0.7109(2) 0.19674(15)
C6 C 0.6028(2) 0.7278(2) 0.22813(16)
C7 C 0.6790(3) 0.6884(3) 0.22129(19)
H3 H 0.6853 0.6514 0.1943
C8 C 0.7438(3) 0.7039(4) 0.2537(2)
H4 H 0.7936 0.6773 0.2486
C9 C 0.7358(3) 0.7597(4) 0.2947(2)
H5 H 0.7804 0.7697 0.3164
O10 O 0.46788(15) 0.98987(15) 0.42561(9)
H6 H 0.4537 0.9331 0.4186
C10 C 0.6639(3) 0.7990(3) 0.30287(18)
H7 H 0.6594 0.8357 0.3302
O11 O 0.3274(2) 0.9961(2) 0.35568(13)
H9 H 0.3602 0.9622 0.3417
C11 C 0.5947(3) 0.7847(2) 0.26995(16)
C12 C 0.5315(2) 0.6520(2) 0.15156(15)
H21 H 0.7104 0.9806 0.3132
C33 C 0.8572(4) 0.9961(3) 0.2841(2)
H25 H 0.9018 0.9639 0.2973
H27 H 0.8197 0.9619 0.2653
H32 H 0.0208 0.8945 0.5350
Co10 Co 0.63870(3) 0.55795(3) 0.07554(2)
Co12 Co 0.63870(3) 0.94205(3) 0.57554(2)
Co15 Co 0.42331(3) 0.51469(3) 0.10899(2)
O27 O 0.40025(15) 0.92956(15) 0.52905(10)
O29 O 0.30691(16) 0.96101(17) 0.46831(11)
O31 O 0.62654(18) 0.90525(18) 0.42048(11)
O34 O 0.58681(16) 0.89506(15) 0.50341(10)
H20 H 0.9792 0.1055 0.4650
O12 O 0.44447(18) 0.05708(17) 0.67593(11)
C40 C 0.4948(3) 0.1156(3) 0.67780(16)
O13 O 0.5549(2) 0.1259(2) 0.64860(14)
C41 C 0.4824(3) 0.1780(2) 0.72033(16)
C42 C 0.5489(3) 0.1983(3) 0.74981(19)
H33 H 0.6000 0.1755 0.7423
O14 O 0.53363(17) 0.38834(18) 0.85208(11)
C43 C 0.5415(3) 0.2530(3) 0.79129(17)
H34 H 0.5877 0.2650 0.8112
O15 O 0.40889(17) 0.35005(18) 0.87859(12)
C44 C 0.4679(2) 0.2891(2) 0.80326(15)
C45 C 0.3972(2) 0.2722(2) 0.77187(16)
C46 C 0.3210(3) 0.3116(3) 0.77871(19)
H35 H 0.3147 0.3486 0.8057
C47 C 0.2562(3) 0.2961(4) 0.7463(2)
H36 H 0.2064 0.3227 0.7514
C48 C 0.2642(3) 0.2403(4) 0.7053(2)
H37 H 0.2196 0.2303 0.6836
H38 H 0.5463 0.0669 0.5814
C49 C 0.3361(3) 0.2010(3) 0.69713(18)
H39 H 0.3406 0.1643 0.6698
O22 O 0.6726(2) 0.0039(2) 0.64432(13)
H41 H 0.6398 0.0378 0.6583
C50 C 0.4053(3) 0.2153(2) 0.73005(16)
C51 C 0.4685(2) 0.3480(2) 0.84844(15)
H48 H 0.2896 0.0194 0.6868
C66 C 0.1428(4) 0.0039(3) 0.7159(2)
H52 H 0.0982 0.0361 0.7027
H54 H 0.1803 0.0381 0.7347
Co13 Co 0.36130(3) 0.44205(3) 0.92446(2)
Co17 Co 0.57669(3) 0.48531(3) 0.89101(2)
O30 O 0.37346(18) 0.09475(18) 0.57952(11)
N4 N 0.7541(2) 0.8801(2) 0.57556(13)
N5 N 0.9626(3) 0.9874(3) 0.5116(2)
C34 C 0.8213(3) 0.9144(3) 0.55681(18)
H28 H 0.8163 0.9654 0.5416
C35 C 0.8994(3) 0.8791(3) 0.55832(19)
C36 C 0.9070(3) 0.8038(3) 0.5818(2)
H29 H 0.9580 0.7784 0.5839
C37 C 0.8382(3) 0.7674(3) 0.6016(2)
H30 H 0.8419 0.7170 0.6176
C38 C 0.7631(3) 0.8062(3) 0.59760(19)
H31 H 0.7167 0.7802 0.6107
C39 C 0.9695(3) 0.9195(3) 0.5340(2)
Co5 Co 0.42331(3) 0.98531(3) 0.60899(2)
N6 N 0.1856(3) 0.9658(3) 0.67314(17)
O18 O 0.12654(18) 0.59475(18) 0.57952(11)
O19 O 0.08681(16) 0.60494(15) 0.49659(10)
O20 O 0.30458(19) 0.95336(19) 0.62926(13)
H40 H 0.7192 0.9947 0.6580
C52 C 0.3342(2) 0.9158(2) 0.50380(14)
C53 C 0.2849(2) 0.8395(2) 0.51540(15)
C54 C 0.2044(2) 0.8380(2) 0.49969(16)
H42 H 0.1817 0.8843 0.4848
C55 C 0.1551(3) 0.7685(2) 0.50552(17)
H43 H 0.1014 0.7690 0.4932
C56 C 0.1849(2) 0.6998(2) 0.52910(15)
C57 C 0.2686(2) 0.6987(2) 0.54713(15)
C58 C 0.3045(3) 0.6285(2) 0.56999(17)
H44 H 0.2719 0.5829 0.5753
C59 C 0.3842(3) 0.6263(3) 0.5842(2)
H45 H 0.4055 0.5799 0.5998
C60 C 0.4347(3) 0.6932(3) 0.57574(19)
H46 H 0.4900 0.6909 0.5852
C61 C 0.4040(3) 0.7619(2) 0.55376(17)
H47 H 0.4389 0.8059 0.5483
C62 C 0.3201(2) 0.7680(2) 0.53904(15)
C63 C 0.1291(2) 0.6273(2) 0.53569(15)
C64 C 0.2638(3) 0.9828(3) 0.6646(2)
C65 C 0.1417(3) 0.9103(3) 0.6405(2)
H49 H 0.1549 0.8556 0.6503
H50 H 0.0836 0.9190 0.6443
H51 H 0.1572 0.9190 0.6049
H53 H 0.1215 0.9629 0.7387
Co14 Co 0.13870(3) 0.55795(3) 0.42446(2)
Co16 Co 0.07669(3) 0.48531(3) 0.60899(2)
O24 O 0.46637(17) 0.88834(18) 0.64792(11)
O26 O 0.59111(17) 0.85005(18) 0.62141(12)
Co5_2 Co 0.07669(3) 0.01469(3) 0.10899(2)
N6_2 N 0.3144(3) 0.0342(3) 0.17314(17)
O16 O 0.09975(15) 0.07044(15) 0.02905(10)
O18_2 O 0.37346(18) 0.40525(18) 0.07952(11)
O20_2 O 0.19542(19) 0.04664(19) 0.12926(13)
C52_2 C 0.1658(2) 0.0842(2) 0.00380(14)
C53_2 C 0.2151(2) 0.1605(2) 0.01540(15)
C55_2 C 0.3449(3) 0.2315(2) 0.00552(17)
C56_2 C 0.3151(2) 0.3002(2) 0.02910(15)
C57_2 C 0.2314(2) 0.3013(2) 0.04713(15)
C58_2 C 0.1955(3) 0.3715(2) 0.06999(17)
H44_2 H 0.2281 0.4171 0.0753
C59_2 C 0.1158(3) 0.3737(3) 0.0842(2)
H45_2 H 0.0945 0.4201 0.0998
C60_2 C 0.0653(3) 0.3068(3) 0.07574(19)
H46_2 H 0.0100 0.3091 0.0852
C61_2 C 0.0960(3) 0.2381(2) 0.05376(17)
H47_2 H 0.0611 0.1941 0.0483
C62_2 C 0.1799(2) 0.2320(2) 0.03904(15)
C63_2 C 0.3709(2) 0.3727(2) 0.03569(15)
C64_2 C 0.2362(3) 0.0172(3) 0.1646(2)
C65_2 C 0.3583(3) 0.0897(3) 0.1405(2)
H49_2 H 0.3451 0.1444 0.1503
H50_2 H 0.4164 0.0810 0.1443
H51_2 H 0.3428 0.0810 0.1049
H53_2 H 0.3785 0.0371 0.2387
Co6 Co 0.0000 -0.0000 0.0000
Co7 Co 0.5000 0.5000 0.0000
O24_2 O 0.03363(17) 0.11166(18) 0.14792(11)
O17 O 0.19309(16) 0.03899(17) 0.96831(11)
O19_2 O 0.41319(16) 0.39506(15) 0.99659(10)
C54_2 C 0.2956(2) 0.1620(2) 0.99969(16)
H42_2 H 0.3183 0.1157 0.9848
H43_2 H 0.3986 0.2310 0.9932
Co6_2 Co 0.0000 0.0000 1.0000
Co7_2 Co 0.5000 0.5000 1.0000
O12_2 O 0.05553(18) 0.94292(17) 0.17593(11)
C40_2 C 0.0052(3) 0.8844(3) 0.17780(16)
C41_2 C 0.0176(3) 0.8220(2) 0.22033(16)
O15_2 O 0.09111(17) 0.64995(18) 0.37859(12)
C44_2 C 0.0321(2) 0.7109(2) 0.30326(15)
C45_2 C 0.1028(2) 0.7278(2) 0.27187(16)
C46_2 C 0.1790(3) 0.6884(3) 0.27871(19)
H35_2 H 0.1853 0.6514 0.3057
C47_2 C 0.2438(3) 0.7039(4) 0.2463(2)
H36_2 H 0.2936 0.6773 0.2514
C48_2 C 0.2358(3) 0.7597(4) 0.2053(2)
H37_2 H 0.2804 0.7697 0.1836
C49_2 C 0.1639(3) 0.7990(3) 0.19713(18)
H39_2 H 0.1594 0.8357 0.1698
C50_2 C 0.0947(3) 0.7847(2) 0.23005(16)
C51_2 C 0.0315(2) 0.6520(2) 0.34844(15)
H48_2 H 0.2104 0.9806 0.1868
C66_2 C 0.3572(4) 0.9961(3) 0.2159(2)
H52_2 H 0.4018 0.9639 0.2027
H54_2 H 0.3197 0.9619 0.2347
Co6_3 Co 0.0000 1.0000 0.0000
O30_2 O 0.12654(18) 0.90525(18) 0.07952(11)
Co6_4 Co 0.0000 1.0000 1.0000
Co9 Co 0.13870(3) 0.94205(3) 0.92446(2)
N4_2 N 0.7459(2) 0.1199(2) 0.07556(13)
N5_2 N 0.5374(3) 0.0126(3) 0.0116(2)
C34_2 C 0.6787(3) 0.0856(3) 0.05681(18)
H28_2 H 0.6837 0.0346 0.0416
C35_2 C 0.6006(3) 0.1209(3) 0.05832(19)
C36_2 C 0.5930(3) 0.1962(3) 0.0818(2)
H29_2 H 0.5420 0.2216 0.0839
C37_2 C 0.6618(3) 0.2326(3) 0.1016(2)
H30_2 H 0.6581 0.2830 0.1176
C38_2 C 0.7369(3) 0.1938(3) 0.09760(19)
H31_2 H 0.7833 0.2198 0.1107
C39_2 C 0.5305(3) 0.0805(3) 0.0340(2)
H32_2 H 0.4792 0.1055 0.0350
Co4 Co 0.86130(3) 0.05795(3) 0.07554(2)
H40_2 H 0.7808 0.0053 0.1580
Co6_5 Co 1.0000 -0.0000 0.0000
O26_2 O 0.90889(17) 0.14995(18) 0.12141(12)
O33 O 0.91319(16) 0.10494(15) 0.00341(10)
O2_2 O 0.0549(2) 0.1259(2) 0.85140(14)
C3_2 C 0.0489(3) 0.1983(3) 0.75019(19)
H1_2 H 0.1000 0.1755 0.7577
O3_2 O 0.03363(17) 0.38834(18) 0.64792(11)
C4_2 C 0.0415(3) 0.2530(3) 0.70871(17)
H2_2 H 0.0877 0.2650 0.6888
O10_2 O 0.03212(15) 0.01013(15) 0.92561(9)
H6_2 H 0.0463 0.0669 0.9186
O11_2 O 0.1726(2) 0.0039(2) 0.85568(13)
H9_2 H 0.1398 0.0378 0.8417
Co6_6 Co 1.0000 0.0000 1.0000
O13_2 O 0.9451(2) 0.8741(2) 0.14860(14)
C42_2 C 0.9511(3) 0.8017(3) 0.24981(19)
H33_2 H 0.9000 0.8245 0.2423
O14_2 O 0.96637(17) 0.61166(18) 0.35208(11)
C43_2 C 0.9585(3) 0.7470(3) 0.29129(17)
H34_2 H 0.9123 0.7350 0.3112
O21 O 0.96788(15) 0.98987(15) 0.07439(9)
H38_2 H 0.9537 0.9331 0.0814
O22_2 O 0.8274(2) 0.9961(2) 0.14432(13)
H41_2 H 0.8602 0.9622 0.1583
Co6_7 Co 1.0000 1.0000 0.0000
O28 O 0.80691(16) 0.96101(17) 0.03169(11)
N1_2 N 0.2541(2) 0.8801(2) 0.92444(13)
N2_2 N 0.4626(3) 0.9874(3) 0.9884(2)
H8_2 H 0.2192 0.9947 0.8420
C25_2 C 0.3213(3) 0.9144(3) 0.94319(18)
H16_2 H 0.3163 0.9654 0.9584
C26_2 C 0.3994(3) 0.8791(3) 0.94168(19)
C27_2 C 0.4070(3) 0.8038(3) 0.9182(2)
H17_2 H 0.4580 0.7784 0.9161
C28_2 C 0.3382(3) 0.7674(3) 0.8984(2)
H18_2 H 0.3419 0.7170 0.8824
C29_2 C 0.2631(3) 0.8062(3) 0.90240(19)
H19_2 H 0.2167 0.7802 0.8893
C30_2 C 0.4695(3) 0.9195(3) 0.9660(2)
H20_2 H 0.5208 0.8945 0.9650
Co6_8 Co 1.0000 1.0000 1.0000
O25_2 O 0.09111(17) 0.85005(18) 0.87859(12)
O32_2 O 0.08681(16) 0.89506(15) 0.99659(10)
O1_2 O 0.94447(18) 0.05708(17) 0.82407(11)
C1_2 C 0.9948(3) 0.1156(3) 0.82220(16)
C2_2 C 0.9824(3) 0.1780(2) 0.77967(16)
O4_2 O 0.90889(17) 0.35005(18) 0.62141(12)
C5_2 C 0.9679(2) 0.2891(2) 0.69674(15)
C6_2 C 0.8972(2) 0.2722(2) 0.72813(16)
C7_2 C 0.8210(3) 0.3116(3) 0.72129(19)
H3_2 H 0.8147 0.3486 0.6943
C8_2 C 0.7562(3) 0.2961(4) 0.7537(2)
H4_2 H 0.7064 0.3227 0.7486
C9_2 C 0.7642(3) 0.2403(4) 0.7947(2)
H5_2 H 0.7196 0.2303 0.8164
C10_2 C 0.8361(3) 0.2010(3) 0.80287(18)
H7_2 H 0.8406 0.1643 0.8302
C11_2 C 0.9053(3) 0.2153(2) 0.76995(16)
C12_2 C 0.9685(2) 0.3480(2) 0.65156(15)
H21_2 H 0.7896 0.0194 0.8132
C33_2 C 0.6428(4) 0.0039(3) 0.7841(2)
H25_2 H 0.5982 0.0361 0.7973
H27_2 H 0.6803 0.0381 0.7653
O31_2 O 0.87346(18) 0.09475(18) 0.92048(11)
O8_2 O 0.58681(16) 0.60494(15) 0.00341(10)
C15_2 C 0.7044(2) 0.8380(2) 0.00031(16)
H10_2 H 0.6817 0.8843 0.0152
H11_2 H 0.6014 0.7690 0.0068
Co3_2 Co 0.92331(3) 0.98531(3) 0.89101(2)
N3_2 N 0.6856(3) 0.9658(3) 0.82686(17)
O5_2 O 0.90025(15) 0.92956(15) 0.97095(10)
O7_2 O 0.62654(18) 0.59475(18) 0.92048(11)
O9_2 O 0.80458(19) 0.95336(19) 0.87074(13)
C13_2 C 0.8342(2) 0.9158(2) 0.99620(14)
C14_2 C 0.7849(2) 0.8395(2) 0.98460(15)
C16_2 C 0.6551(3) 0.7685(2) 0.99448(17)
C17_2 C 0.6849(2) 0.6998(2) 0.97090(15)
C18_2 C 0.7686(2) 0.6987(2) 0.95287(15)
C19_2 C 0.8045(3) 0.6285(2) 0.93001(17)
H12_2 H 0.7719 0.5829 0.9247
C20_2 C 0.8842(3) 0.6263(3) 0.9158(2)
H13_2 H 0.9055 0.5799 0.9002
C21_2 C 0.9347(3) 0.6932(3) 0.92426(19)
H14_2 H 0.9900 0.6909 0.9148
C22_2 C 0.9040(3) 0.7619(2) 0.94624(17)
H15_2 H 0.9389 0.8059 0.9517
C23_2 C 0.8201(2) 0.7680(2) 0.96096(15)
C24_2 C 0.6291(2) 0.6273(2) 0.96431(15)
C31_2 C 0.7638(3) 0.9828(3) 0.8354(2)
C32_2 C 0.6417(3) 0.9103(3) 0.8595(2)
H22_2 H 0.6549 0.8556 0.8497
H23_2 H 0.5836 0.9190 0.8557
H24_2 H 0.6572 0.9190 0.8951
H26_2 H 0.6215 0.9629 0.7613
O23_2 O 0.96637(17) 0.88834(18) 0.85208(11)
H20_3 H 0.0208 0.6055 0.0350
O17_2 O 0.69309(16) 0.46101(17) 0.03169(11)
C54_3 C 0.7956(2) 0.3380(2) 0.00031(16)
H42_3 H 0.8183 0.3843 0.0152
H43_3 H 0.8986 0.2690 0.0068
N4_3 N 0.2459(2) 0.3801(2) 0.92444(13)
N5_3 N 0.0374(3) 0.4874(3) 0.9884(2)
C34_3 C 0.1787(3) 0.4144(3) 0.94319(18)
H28_3 H 0.1837 0.4654 0.9584
C35_3 C 0.1006(3) 0.3791(3) 0.94168(19)
C36_3 C 0.0930(3) 0.3038(3) 0.9182(2)
H29_3 H 0.0420 0.2784 0.9161
C37_3 C 0.1618(3) 0.2674(3) 0.8984(2)
H30_3 H 0.1581 0.2170 0.8824
C38_3 C 0.2369(3) 0.3062(3) 0.90240(19)
H31_3 H 0.2833 0.2802 0.8893
C39_3 C 0.0305(3) 0.4195(3) 0.9660(2)
N6_3 N 0.8144(3) 0.4658(3) 0.82686(17)
O12_3 O 0.55553(18) 0.55708(17) 0.82407(11)
C40_3 C 0.5052(3) 0.6156(3) 0.82220(16)
O13_3 O 0.4451(2) 0.6259(2) 0.85140(14)
C41_3 C 0.5176(3) 0.6780(2) 0.77967(16)
C42_3 C 0.4511(3) 0.6983(3) 0.75019(19)
H33_3 H 0.4000 0.6755 0.7577
C43_3 C 0.4585(3) 0.7530(3) 0.70871(17)
H34_3 H 0.4123 0.7650 0.6888
C44_3 C 0.5321(2) 0.7891(2) 0.69674(15)
O16_2 O 0.59975(15) 0.42956(15) 0.97095(10)
C45_3 C 0.6028(2) 0.7722(2) 0.72813(16)
C46_3 C 0.6790(3) 0.8116(3) 0.72129(19)
H35_3 H 0.6853 0.8486 0.6943
C47_3 C 0.7438(3) 0.7961(4) 0.7537(2)
H36_3 H 0.7936 0.8227 0.7486
C48_3 C 0.7358(3) 0.7403(4) 0.7947(2)
H37_3 H 0.7804 0.7303 0.8164
O20_3 O 0.69542(19) 0.45336(19) 0.87074(13)
O21_2 O 0.46788(15) 0.51013(15) 0.92561(9)
H38_3 H 0.4537 0.5669 0.9186
C49_3 C 0.6639(3) 0.7010(3) 0.80287(18)
H39_3 H 0.6594 0.6643 0.8302
O22_3 O 0.3274(2) 0.5039(2) 0.85568(13)
H40_3 H 0.2808 0.4947 0.8420
H41_3 H 0.3602 0.5378 0.8417
C50_3 C 0.5947(3) 0.7153(2) 0.76995(16)
C51_3 C 0.5315(2) 0.8480(2) 0.65156(15)
C52_3 C 0.6658(2) 0.4158(2) 0.99620(14)
C53_3 C 0.7151(2) 0.3395(2) 0.98460(15)
C55_3 C 0.8449(3) 0.2685(2) 0.99448(17)
C56_3 C 0.8151(2) 0.1998(2) 0.97090(15)
C57_3 C 0.7314(2) 0.1987(2) 0.95287(15)
C58_3 C 0.6955(3) 0.1285(2) 0.93001(17)
H44_3 H 0.7281 0.0829 0.9247
C59_3 C 0.6158(3) 0.1263(3) 0.9158(2)
H45_3 H 0.5945 0.0799 0.9002
C60_3 C 0.5653(3) 0.1932(3) 0.92426(19)
H46_3 H 0.5100 0.1909 0.9148
C61_3 C 0.5960(3) 0.2619(2) 0.94624(17)
H47_3 H 0.5611 0.3059 0.9517
C62_3 C 0.6799(2) 0.2680(2) 0.96096(15)
C63_3 C 0.8709(2) 0.1273(2) 0.96431(15)
C64_3 C 0.7362(3) 0.4828(3) 0.8354(2)
H48_3 H 0.7104 0.5194 0.8132
C65_3 C 0.8583(3) 0.4103(3) 0.8595(2)
H49_3 H 0.8451 0.3556 0.8497
H50_3 H 0.9164 0.4190 0.8557
H51_3 H 0.8428 0.4190 0.8951
C66_3 C 0.8572(4) 0.5039(3) 0.7841(2)
H52_3 H 0.9018 0.5361 0.7973
H53_3 H 0.8785 0.4629 0.7613
H54_3 H 0.8197 0.5381 0.7653
O28_2 O 0.30691(16) 0.53899(17) 0.96831(11)
N1_3 N 0.7541(2) 0.6199(2) 0.07556(13)
N2_3 N 0.9626(3) 0.5126(3) 0.0116(2)
N3_3 N 0.1856(3) 0.5342(3) 0.17314(17)
O1_3 O 0.44447(18) 0.44292(17) 0.17593(11)
C1_3 C 0.4948(3) 0.3844(3) 0.17780(16)
O2_3 O 0.5549(2) 0.3741(2) 0.14860(14)
C2_3 C 0.4824(3) 0.3220(2) 0.22033(16)
C3_3 C 0.5489(3) 0.3017(3) 0.24981(19)
H1_3 H 0.6000 0.3245 0.2423
C4_3 C 0.5415(3) 0.2470(3) 0.29129(17)
H2_3 H 0.5877 0.2350 0.3112
C5_3 C 0.4679(2) 0.2109(2) 0.30326(15)
O5_3 O 0.40025(15) 0.57044(15) 0.02905(10)
C6_3 C 0.3972(2) 0.2278(2) 0.27187(16)
C7_3 C 0.3210(3) 0.1884(3) 0.27871(19)
H3_3 H 0.3147 0.1514 0.3057
C8_3 C 0.2562(3) 0.2039(4) 0.2463(2)
H4_3 H 0.2064 0.1773 0.2514
C9_3 C 0.2642(3) 0.2597(4) 0.2053(2)
H5_3 H 0.2196 0.2697 0.1836
O9_3 O 0.30458(19) 0.54664(19) 0.12926(13)
O10_3 O 0.53212(15) 0.48987(15) 0.07439(9)
H6_3 H 0.5463 0.4331 0.0814
C10_3 C 0.3361(3) 0.2990(3) 0.19713(18)
H7_3 H 0.3406 0.3357 0.1698
O11_3 O 0.6726(2) 0.4961(2) 0.14432(13)
H8_3 H 0.7192 0.5053 0.1580
H9_3 H 0.6398 0.4622 0.1583
C11_3 C 0.4053(3) 0.2847(2) 0.23005(16)
C12_3 C 0.4685(2) 0.1520(2) 0.34844(15)
C13_3 C 0.3342(2) 0.5842(2) 0.00380(14)
C14_3 C 0.2849(2) 0.6605(2) 0.01540(15)
C16_3 C 0.1551(3) 0.7315(2) 0.00552(17)
C17_3 C 0.1849(2) 0.8002(2) 0.02910(15)
C18_3 C 0.2686(2) 0.8013(2) 0.04713(15)
C19_3 C 0.3045(3) 0.8715(2) 0.06999(17)
H12_3 H 0.2719 0.9171 0.0753
C20_3 C 0.3842(3) 0.8737(3) 0.0842(2)
H13_3 H 0.4055 0.9201 0.0998
C21_3 C 0.4347(3) 0.8068(3) 0.07574(19)
H14_3 H 0.4900 0.8091 0.0852
C22_3 C 0.4040(3) 0.7381(2) 0.05376(17)
H15_3 H 0.4389 0.6941 0.0483
C23_3 C 0.3201(2) 0.7320(2) 0.03904(15)
C24_3 C 0.1291(2) 0.8727(2) 0.03569(15)
C25_3 C 0.8213(3) 0.5856(3) 0.05681(18)
H16_3 H 0.8163 0.5346 0.0416
C26_3 C 0.8994(3) 0.6209(3) 0.05832(19)
C27_3 C 0.9070(3) 0.6962(3) 0.0818(2)
H17_3 H 0.9580 0.7216 0.0839
C28_3 C 0.8382(3) 0.7326(3) 0.1016(2)
H18_3 H 0.8419 0.7830 0.1176
C29_3 C 0.7631(3) 0.6938(3) 0.09760(19)
H19_3 H 0.7167 0.7198 0.1107
C30_3 C 0.9695(3) 0.5805(3) 0.0340(2)
C31_3 C 0.2638(3) 0.5172(3) 0.1646(2)
H21_3 H 0.2896 0.4806 0.1868
C32_3 C 0.1417(3) 0.5897(3) 0.1405(2)
H22_3 H 0.1549 0.6444 0.1503
H23_3 H 0.0836 0.5810 0.1443
H24_3 H 0.1572 0.5810 0.1049
C33_3 C 0.1428(4) 0.4961(3) 0.2159(2)
H25_3 H 0.0982 0.4639 0.2027
H26_3 H 0.1215 0.5371 0.2387
H27_3 H 0.1803 0.4619 0.2347
C15_3 C 0.2044(2) 0.6620(2) 0.99969(16)
H10_3 H 0.1817 0.6157 0.9848
H11_3 H 0.1014 0.7310 0.9932
H32_3 H 0.9792 0.3945 0.9650
N3_4 N 0.3144(3) 0.4658(3) 0.67314(17)
O1_4 O 0.05553(18) 0.55708(17) 0.67593(11)
C1_4 C 0.0052(3) 0.6156(3) 0.67780(16)
C2_4 C 0.0176(3) 0.6780(2) 0.72033(16)
C5_4 C 0.0321(2) 0.7891(2) 0.80326(15)
O5_4 O 0.09975(15) 0.42956(15) 0.52905(10)
C6_4 C 0.1028(2) 0.7722(2) 0.77187(16)
O6_2 O 0.19309(16) 0.46101(17) 0.46831(11)
C7_4 C 0.1790(3) 0.8116(3) 0.77871(19)
H3_4 H 0.1853 0.8486 0.8057
C8_4 C 0.2438(3) 0.7961(4) 0.7463(2)
H4_4 H 0.2936 0.8227 0.7514
C9_4 C 0.2358(3) 0.7403(4) 0.7053(2)
H5_4 H 0.2804 0.7303 0.6836
O9_4 O 0.19542(19) 0.45336(19) 0.62926(13)
C10_4 C 0.1639(3) 0.7010(3) 0.69713(18)
H7_4 H 0.1594 0.6643 0.6698
C11_4 C 0.0947(3) 0.7153(2) 0.73005(16)
C12_4 C 0.0315(2) 0.8480(2) 0.84844(15)
C13_4 C 0.1658(2) 0.4158(2) 0.50380(14)
C14_4 C 0.2151(2) 0.3395(2) 0.51540(15)
C15_4 C 0.2956(2) 0.3380(2) 0.49969(16)
H10_4 H 0.3183 0.3843 0.4848
C16_4 C 0.3449(3) 0.2685(2) 0.50552(17)
H11_4 H 0.3986 0.2690 0.4932
C17_4 C 0.3151(2) 0.1998(2) 0.52910(15)
C18_4 C 0.2314(2) 0.1987(2) 0.54713(15)
C19_4 C 0.1955(3) 0.1285(2) 0.56999(17)
H12_4 H 0.2281 0.0829 0.5753
C20_4 C 0.1158(3) 0.1263(3) 0.5842(2)
H13_4 H 0.0945 0.0799 0.5998
C21_4 C 0.0653(3) 0.1932(3) 0.57574(19)
H14_4 H 0.0100 0.1909 0.5852
C22_4 C 0.0960(3) 0.2619(2) 0.55376(17)
H15_4 H 0.0611 0.3059 0.5483
C23_4 C 0.1799(2) 0.2680(2) 0.53904(15)
C24_4 C 0.3709(2) 0.1273(2) 0.53569(15)
C31_4 C 0.2362(3) 0.4828(3) 0.6646(2)
H21_4 H 0.2104 0.5194 0.6868
C32_4 C 0.3583(3) 0.4103(3) 0.6405(2)
H22_4 H 0.3451 0.3556 0.6503
H23_4 H 0.4164 0.4190 0.6443
H24_4 H 0.3428 0.4190 0.6049
C33_4 C 0.3572(4) 0.5039(3) 0.7159(2)
H25_4 H 0.4018 0.5361 0.7027
H26_4 H 0.3785 0.4629 0.7387
H27_4 H 0.3197 0.5381 0.7347
O35_2 O 0.03212(15) 0.48987(15) 0.42561(9)
N1_4 N 0.7459(2) 0.3801(2) 0.57556(13)
N2_4 N 0.5374(3) 0.4874(3) 0.5116(2)
O2_4 O 0.9451(2) 0.6259(2) 0.64860(14)
C3_4 C 0.9511(3) 0.6983(3) 0.74981(19)
H1_4 H 0.9000 0.6755 0.7423
C4_4 C 0.9585(3) 0.7530(3) 0.79129(17)
H2_4 H 0.9123 0.7650 0.8112
O10_4 O 0.96788(15) 0.51013(15) 0.57439(9)
H6_4 H 0.9537 0.5669 0.5814
O11_4 O 0.8274(2) 0.5039(2) 0.64432(13)
H8_4 H 0.7808 0.4947 0.6580
H9_4 H 0.8602 0.5378 0.6583
C25_4 C 0.6787(3) 0.4144(3) 0.55681(18)
H16_4 H 0.6837 0.4654 0.5416
C26_4 C 0.6006(3) 0.3791(3) 0.55832(19)
C27_4 C 0.5930(3) 0.3038(3) 0.5818(2)
H17_4 H 0.5420 0.2784 0.5839
C28_4 C 0.6618(3) 0.2674(3) 0.6016(2)
H18_4 H 0.6581 0.2170 0.6176
C29_4 C 0.7369(3) 0.3062(3) 0.59760(19)
H19_4 H 0.7833 0.2802 0.6107
C30_4 C 0.5305(3) 0.4195(3) 0.5340(2)
H20_4 H 0.4792 0.3945 0.5350
N4_4 N 0.2541(2) 0.6199(2) 0.42444(13)
N5_4 N 0.4626(3) 0.5126(3) 0.4884(2)
C34_4 C 0.3213(3) 0.5856(3) 0.44319(18)
H28_4 H 0.3163 0.5346 0.4584
C35_4 C 0.3994(3) 0.6209(3) 0.44168(19)
C36_4 C 0.4070(3) 0.6962(3) 0.4182(2)
H29_4 H 0.4580 0.7216 0.4161
C37_4 C 0.3382(3) 0.7326(3) 0.3984(2)
H30_4 H 0.3419 0.7830 0.3824
C38_4 C 0.2631(3) 0.6938(3) 0.40240(19)
H31_4 H 0.2167 0.7198 0.3893
C39_4 C 0.4695(3) 0.5805(3) 0.4660(2)
H32_4 H 0.5208 0.6055 0.4650
O13_4 O 0.0549(2) 0.3741(2) 0.35140(14)
C42_4 C 0.0489(3) 0.3017(3) 0.25019(19)
H33_4 H 0.1000 0.3245 0.2577
C43_4 C 0.0415(3) 0.2470(3) 0.20871(17)
H34_4 H 0.0877 0.2350 0.1888
H38_4 H 0.0463 0.4331 0.4186
O22_4 O 0.1726(2) 0.4961(2) 0.35568(13)
H40_4 H 0.2192 0.5053 0.3420
H41_4 H 0.1398 0.4622 0.3417
O27_2 O 0.90025(15) 0.57044(15) 0.47095(10)
O29_2 O 0.80691(16) 0.53899(17) 0.53169(11)
N6_4 N 0.6856(3) 0.5342(3) 0.32686(17)
O12_4 O 0.94447(18) 0.44292(17) 0.32407(11)
C40_4 C 0.9948(3) 0.3844(3) 0.32220(16)
C41_4 C 0.9824(3) 0.3220(2) 0.27967(16)
C44_4 C 0.9679(2) 0.2109(2) 0.19674(15)
C45_4 C 0.8972(2) 0.2278(2) 0.22813(16)
C46_4 C 0.8210(3) 0.1884(3) 0.22129(19)
H35_4 H 0.8147 0.1514 0.1943
C47_4 C 0.7562(3) 0.2039(4) 0.2537(2)
H36_4 H 0.7064 0.1773 0.2486
C48_4 C 0.7642(3) 0.2597(4) 0.2947(2)
H37_4 H 0.7196 0.2697 0.3164
O20_4 O 0.80458(19) 0.54664(19) 0.37074(13)
C49_4 C 0.8361(3) 0.2990(3) 0.30287(18)
H39_4 H 0.8406 0.3357 0.3302
C50_4 C 0.9053(3) 0.2847(2) 0.26995(16)
C51_4 C 0.9685(2) 0.1520(2) 0.15156(15)
C52_4 C 0.8342(2) 0.5842(2) 0.49620(14)
C53_4 C 0.7849(2) 0.6605(2) 0.48460(15)
C54_4 C 0.7044(2) 0.6620(2) 0.50031(16)
H42_4 H 0.6817 0.6157 0.5152
C55_4 C 0.6551(3) 0.7315(2) 0.49448(17)
H43_4 H 0.6014 0.7310 0.5068
C56_4 C 0.6849(2) 0.8002(2) 0.47090(15)
C57_4 C 0.7686(2) 0.8013(2) 0.45287(15)
C58_4 C 0.8045(3) 0.8715(2) 0.43001(17)
H44_4 H 0.7719 0.9171 0.4247
C59_4 C 0.8842(3) 0.8737(3) 0.4158(2)
H45_4 H 0.9055 0.9201 0.4002
C60_4 C 0.9347(3) 0.8068(3) 0.42426(19)
H46_4 H 0.9900 0.8091 0.4148
C61_4 C 0.9040(3) 0.7381(2) 0.44624(17)
H47_4 H 0.9389 0.6941 0.4517
C62_4 C 0.8201(2) 0.7320(2) 0.46096(15)
C63_4 C 0.6291(2) 0.8727(2) 0.46431(15)
C64_4 C 0.7638(3) 0.5172(3) 0.3354(2)
H48_4 H 0.7896 0.4806 0.3132
C65_4 C 0.6417(3) 0.5897(3) 0.3595(2)
H49_4 H 0.6549 0.6444 0.3497
H50_4 H 0.5836 0.5810 0.3557
H51_4 H 0.6572 0.5810 0.3951
C66_4 C 0.6428(4) 0.4961(3) 0.2841(2)
H52_4 H 0.5982 0.4639 0.2973
H53_4 H 0.6215 0.5371 0.2613
H54_4 H 0.6803 0.4619 0.2653
loop_
_geom_bond_atom_site_label_1
_geom_bond_atom_site_label_2
_geom_bond_site_symmetry_1
_geom_bond_site_symmetry_2
Co1 O5 1_555 1_555
Co2 N1 1_555 1_555
N1 C25 1_555 1_555
N2 C30 1_555 1_555
N3 C31 1_555 1_555
O5 Co3 1_555 1_555
O6 C13 1_555 1_555
O7 C24 1_555 1_555
O8 C24 1_555 1_555
O9 Co3 1_555 1_555
C13 O5 1_555 1_555
C14 C13 1_555 1_555
C15 C14 1_555 1_555
H10 C15 1_555 1_555
C16 C15 1_555 1_555
H11 C16 1_555 1_555
C17 C16 1_555 1_555
C18 C17 1_555 1_555
C19 C18 1_555 1_555
H12 C19 1_555 1_555
C20 C19 1_555 1_555
H13 C20 1_555 1_555
C21 C20 1_555 1_555
H14 C21 1_555 1_555
C22 C21 1_555 1_555
H15 C22 1_555 1_555
C23 C14 1_555 1_555
C24 C17 1_555 1_555
C25 H16 1_555 1_555
C26 C25 1_555 1_555
C27 C26 1_555 1_555
H17 C27 1_555 1_555
C28 C27 1_555 1_555
H18 C28 1_555 1_555
C29 N1 1_555 1_555
H19 C29 1_555 1_555
C30 C26 1_555 1_555
C31 O9 1_555 1_555
C32 N3 1_555 1_555
H22 C32 1_555 1_555
H23 C32 1_555 1_555
H24 C32 1_555 1_555
Co8_2 O8 1_555 1_555
Co11 O8 1_555 1_555
Co18 O7 1_555 1_555
O23 Co3 1_555 1_555
O25 Co2 1_555 1_555
O32 Co1 1_555 1_555
O35 Co1 1_555 1_555
Co2 O32 1_555 1_555
C18 C23 1_555 1_555
C22 C23 1_555 1_555
C28 C29 1_555 1_555
O1 C1 1_555 1_555
C1 O2 1_555 1_555
C2 C1 1_555 1_555
C3 C2 1_555 1_555
H1 C3 1_555 1_555
O3 C12 1_555 1_555
C4 C3 1_555 1_555
H2 C4 1_555 1_555
O4 C12 1_555 1_555
C5 C4 1_555 1_555
C6 C5 1_555 1_555
C7 C6 1_555 1_555
H3 C7 1_555 1_555
C8 C7 1_555 1_555
H4 C8 1_555 1_555
C9 C8 1_555 1_555
H5 C9 1_555 1_555
O10 Co1_2 1_555 1_555
H6 O10 1_555 1_555
C10 C9 1_555 1_555
H7 C10 1_555 1_555
H9 O11 1_555 1_555
C11 C2 1_555 1_555
C12 C5 1_555 1_555
H25 C33 1_555 1_555
H27 C33 1_555 1_555
Co10 O4 1_555 1_555
Co15 O3 1_555 1_555
O27 Co1_2 1_555 1_555
O34 Co1_2 1_555 1_555
C6 C11 1_555 1_555
C10 C11 1_555 1_555
Co12 O34 1_555 1_555
O12 C40 1_555 1_555
C40 O13 1_555 1_555
C41 C40 1_555 1_555
C42 C41 1_555 1_555
H33 C42 1_555 1_555
O14 C51 1_555 1_555
C43 C42 1_555 1_555
H34 C43 1_555 1_555
O15 C51 1_555 1_555
C44 C43 1_555 1_555
C45 C44 1_555 1_555
C46 C45 1_555 1_555
H35 C46 1_555 1_555
C47 C46 1_555 1_555
H36 C47 1_555 1_555
C48 C47 1_555 1_555
H37 C48 1_555 1_555
H38 O35 1_555 1_555
C49 C48 1_555 1_555
H39 C49 1_555 1_555
H41 O22 1_555 1_555
C50 C41 1_555 1_555
C51 C44 1_555 1_555
H52 C66 1_555 1_555
H54 C66 1_555 1_555
Co13 O15 1_555 1_555
Co17 O14 1_555 1_555
C45 C50 1_555 1_555
C49 C50 1_555 1_555
N4 C34 1_555 1_555
C34 H28 1_555 1_555
C35 C34 1_555 1_555
C36 C35 1_555 1_555
H29 C36 1_555 1_555
C37 C36 1_555 1_555
H30 C37 1_555 1_555
C38 N4 1_555 1_555
H31 C38 1_555 1_555
C39 N5 1_555 1_555
Co12 N4 1_555 1_555
N6 C64 1_555 1_555
O27 Co5 1_555 1_555
O29 C52 1_555 1_555
O18 C63 1_555 1_555
O19 C63 1_555 1_555
O20 Co5 1_555 1_555
C52 O27 1_555 1_555
C53 C52 1_555 1_555
C54 C53 1_555 1_555
H42 C54 1_555 1_555
C55 C54 1_555 1_555
H43 C55 1_555 1_555
C56 C55 1_555 1_555
C57 C56 1_555 1_555
C58 C57 1_555 1_555
H44 C58 1_555 1_555
C59 C58 1_555 1_555
H45 C59 1_555 1_555
C60 C59 1_555 1_555
H46 C60 1_555 1_555
C61 C60 1_555 1_555
H47 C61 1_555 1_555
C62 C53 1_555 1_555
C63 C56 1_555 1_555
C64 O20 1_555 1_555
C65 N6 1_555 1_555
H49 C65 1_555 1_555
H50 C65 1_555 1_555
H51 C65 1_555 1_555
Co8 O19 1_555 1_555
Co14 O19 1_555 1_555
Co16 O18 1_555 1_555
O24 Co5 1_555 1_555
O26 Co12 1_555 1_555
C35 C39 1_555 1_555
C37 C38 1_555 1_555
C57 C62 1_555 1_555
C61 C62 1_555 1_555
N6_2 C64_2 1_555 1_555
O16 Co5_2 1_555 1_555
O18_2 C63_2 1_555 1_555
O20_2 Co5_2 1_555 1_555
C52_2 O16 1_555 1_555
C53_2 C52_2 1_555 1_555
C56_2 C55_2 1_555 1_555
C57_2 C56_2 1_555 1_555
C58_2 C57_2 1_555 1_555
H44_2 C58_2 1_555 1_555
C59_2 C58_2 1_555 1_555
H45_2 C59_2 1_555 1_555
C60_2 C59_2 1_555 1_555
H46_2 C60_2 1_555 1_555
C61_2 C60_2 1_555 1_555
H47_2 C61_2 1_555 1_555
C62_2 C53_2 1_555 1_555
C63_2 C56_2 1_555 1_555
C64_2 O20_2 1_555 1_555
C65_2 N6_2 1_555 1_555
H49_2 C65_2 1_555 1_555
H50_2 C65_2 1_555 1_555
H51_2 C65_2 1_555 1_555
Co6 O16 1_555 1_555
Co15 O18_2 1_555 1_555
O24_2 Co5_2 1_555 1_555
C57_2 C62_2 1_555 1_555
C61_2 C62_2 1_555 1_555
H42_2 C54_2 1_555 1_555
Co7_2 O19_2 1_555 1_555
Co13 O19_2 1_555 1_555
O12_2 C40_2 1_555 1_555
C41_2 C40_2 1_555 1_555
O15_2 C51_2 1_555 1_555
C45_2 C44_2 1_555 1_555
C46_2 C45_2 1_555 1_555
H35_2 C46_2 1_555 1_555
C47_2 C46_2 1_555 1_555
H36_2 C47_2 1_555 1_555
C48_2 C47_2 1_555 1_555
H37_2 C48_2 1_555 1_555
C49_2 C48_2 1_555 1_555
H39_2 C49_2 1_555 1_555
C50_2 C41_2 1_555 1_555
C51_2 C44_2 1_555 1_555
H52_2 C66_2 1_555 1_555
H54_2 C66_2 1_555 1_555
Co14 O15_2 1_555 1_555
C45_2 C50_2 1_555 1_555
C49_2 C50_2 1_555 1_555
N4_2 C34_2 1_555 1_555
C34_2 H28_2 1_555 1_555
C35_2 C34_2 1_555 1_555
C36_2 C35_2 1_555 1_555
H29_2 C36_2 1_555 1_555
C37_2 C36_2 1_555 1_555
H30_2 C37_2 1_555 1_555
C38_2 N4_2 1_555 1_555
H31_2 C38_2 1_555 1_555
C39_2 N5_2 1_555 1_555
H32_2 C39_2 1_555 1_555
Co4 N4_2 1_555 1_555
O26_2 Co4 1_555 1_555
O33 Co4 1_555 1_555
C35_2 C39_2 1_555 1_555
C37_2 C38_2 1_555 1_555
Co6_5 O33 1_555 1_555
H1_2 C3_2 1_555 1_555
C4_2 C3_2 1_555 1_555
H2_2 C4_2 1_555 1_555
O10_2 Co6_2 1_555 1_555
H6_2 O10_2 1_555 1_555
H9_2 O11_2 1_555 1_555
Co16 O3_2 1_555 1_555
H33_2 C42_2 1_555 1_555
C43_2 C42_2 1_555 1_555
H34_2 C43_2 1_555 1_555
H38_2 O21 1_555 1_555
H41_2 O22_2 1_555 1_555
Co18 O14_2 1_555 1_555
O21 Co6_7 1_555 1_555
Co9 N1_2 1_555 1_555
N1_2 C25_2 1_555 1_555
N2_2 C30_2 1_555 1_555
C25_2 H16_2 1_555 1_555
C26_2 C25_2 1_555 1_555
C27_2 C26_2 1_555 1_555
H17_2 C27_2 1_555 1_555
C28_2 C27_2 1_555 1_555
H18_2 C28_2 1_555 1_555
C29_2 N1_2 1_555 1_555
H19_2 C29_2 1_555 1_555
C30_2 C26_2 1_555 1_555
H20_2 C30_2 1_555 1_555
O25_2 Co9 1_555 1_555
O32_2 Co6_4 1_555 1_555
Co9 O32_2 1_555 1_555
C28_2 C29_2 1_555 1_555
O1_2 C1_2 1_555 1_555
C2_2 C1_2 1_555 1_555
O4_2 C12_2 1_555 1_555
C6_2 C5_2 1_555 1_555
C7_2 C6_2 1_555 1_555
H3_2 C7_2 1_555 1_555
C8_2 C7_2 1_555 1_555
H4_2 C8_2 1_555 1_555
C9_2 C8_2 1_555 1_555
H5_2 C9_2 1_555 1_555
C10_2 C9_2 1_555 1_555
H7_2 C10_2 1_555 1_555
C11_2 C2_2 1_555 1_555
C12_2 C5_2 1_555 1_555
H25_2 C33_2 1_555 1_555
H27_2 C33_2 1_555 1_555
Co11 O4_2 1_555 1_555
C6_2 C11_2 1_555 1_555
C10_2 C11_2 1_555 1_555
H10_2 C15_2 1_555 1_555
Co7 O8_2 1_555 1_555
Co10 O8_2 1_555 1_555
Co6_8 O5_2 1_555 1_555
N3_2 C31_2 1_555 1_555
O5_2 Co3_2 1_555 1_555
O7_2 C24_2 1_555 1_555
O9_2 Co3_2 1_555 1_555
C13_2 O5_2 1_555 1_555
C14_2 C13_2 1_555 1_555
C17_2 C16_2 1_555 1_555
C18_2 C17_2 1_555 1_555
C19_2 C18_2 1_555 1_555
H12_2 C19_2 1_555 1_555
C20_2 C19_2 1_555 1_555
H13_2 C20_2 1_555 1_555
C21_2 C20_2 1_555 1_555
H14_2 C21_2 1_555 1_555
C22_2 C21_2 1_555 1_555
H15_2 C22_2 1_555 1_555
C23_2 C14_2 1_555 1_555
C24_2 C17_2 1_555 1_555
C31_2 O9_2 1_555 1_555
C32_2 N3_2 1_555 1_555
H22_2 C32_2 1_555 1_555
H23_2 C32_2 1_555 1_555
H24_2 C32_2 1_555 1_555
Co17 O7_2 1_555 1_555
O23_2 Co3_2 1_555 1_555
C18_2 C23_2 1_555 1_555
C22_2 C23_2 1_555 1_555
H42_3 C54_3 1_555 1_555
Co10 O17_2 1_555 1_555
N4_3 C34_3 1_555 1_555
C34_3 H28_3 1_555 1_555
C35_3 C34_3 1_555 1_555
C36_3 C35_3 1_555 1_555
H29_3 C36_3 1_555 1_555
C37_3 C36_3 1_555 1_555
H30_3 C37_3 1_555 1_555
C38_3 N4_3 1_555 1_555
H31_3 C38_3 1_555 1_555
C39_3 N5_3 1_555 1_555
Co13 N4_3 1_555 1_555
Co17 O12_3 1_555 1_555
N6_3 C64_3 1_555 1_555
O12_3 C40_3 1_555 1_555
C40_3 O13_3 1_555 1_555
C41_3 C40_3 1_555 1_555
C42_3 C41_3 1_555 1_555
H33_3 C42_3 1_555 1_555
O24 C51_3 1_555 1_555
C43_3 C42_3 1_555 1_555
H34_3 C43_3 1_555 1_555
O26 C51_3 1_555 1_555
C44_3 C43_3 1_555 1_555
O16_2 Co17 1_555 1_555
C45_3 C44_3 1_555 1_555
C46_3 C45_3 1_555 1_555
H35_3 C46_3 1_555 1_555
O31_2 C63_3 1_555 1_555
C47_3 C46_3 1_555 1_555
H36_3 C47_3 1_555 1_555
C48_3 C47_3 1_555 1_555
H37_3 C48_3 1_555 1_555
O20_3 Co17 1_555 1_555
O21_2 Co13 1_555 1_555
H38_3 O21_2 1_555 1_555
C49_3 C48_3 1_555 1_555
H39_3 C49_3 1_555 1_555
O22_3 Co13 1_555 1_555
H40_3 O22_3 1_555 1_555
H41_3 O22_3 1_555 1_555
C50_3 C41_3 1_555 1_555
C51_3 C44_3 1_555 1_555
C52_3 O16_2 1_555 1_555
C53_3 C52_3 1_555 1_555
C56_3 C55_3 1_555 1_555
C57_3 C56_3 1_555 1_555
C58_3 C57_3 1_555 1_555
H44_3 C58_3 1_555 1_555
C59_3 C58_3 1_555 1_555
H45_3 C59_3 1_555 1_555
C60_3 C59_3 1_555 1_555
H46_3 C60_3 1_555 1_555
C61_3 C60_3 1_555 1_555
H47_3 C61_3 1_555 1_555
C62_3 C53_3 1_555 1_555
C63_3 C56_3 1_555 1_555
C64_3 O20_3 1_555 1_555
H48_3 C64_3 1_555 1_555
C65_3 N6_3 1_555 1_555
H49_3 C65_3 1_555 1_555
H50_3 C65_3 1_555 1_555
H51_3 C65_3 1_555 1_555
C66_3 N6_3 1_555 1_555
H52_3 C66_3 1_555 1_555
H53_3 C66_3 1_555 1_555
H54_3 C66_3 1_555 1_555
Co7_2 O16_2 1_555 1_555
O28_2 Co13 1_555 1_555
C35_3 C39_3 1_555 1_555
C37_3 C38_3 1_555 1_555
Co17 O21_2 1_555 1_555
C45_3 C50_3 1_555 1_555
O21_2 Co7_2 1_555 1_555
C49_3 C50_3 1_555 1_555
C57_3 C62_3 1_555 1_555
C61_3 C62_3 1_555 1_555
Co7 O5_3 1_555 1_555
Co10 N1_3 1_555 1_555
Co15 O1_3 1_555 1_555
N1_3 C25_3 1_555 1_555
N2_3 C30_3 1_555 1_555
N3_3 C31_3 1_555 1_555
O1_3 C1_3 1_555 1_555
C1_3 O2_3 1_555 1_555
C2_3 C1_3 1_555 1_555
C3_3 C2_3 1_555 1_555
H1_3 C3_3 1_555 1_555
O23 C12_3 1_555 1_555
C4_3 C3_3 1_555 1_555
H2_3 C4_3 1_555 1_555
O25 C12_3 1_555 1_555
C5_3 C4_3 1_555 1_555
O5_3 Co15 1_555 1_555
C6_3 C5_3 1_555 1_555
C7_3 C6_3 1_555 1_555
H3_3 C7_3 1_555 1_555
O30_2 C24_3 1_555 1_555
C8_3 C7_3 1_555 1_555
H4_3 C8_3 1_555 1_555
C9_3 C8_3 1_555 1_555
H5_3 C9_3 1_555 1_555
O9_3 Co15 1_555 1_555
O10_3 Co7 1_555 1_555
H6_3 O10_3 1_555 1_555
C10_3 C9_3 1_555 1_555
H7_3 C10_3 1_555 1_555
O11_3 Co10 1_555 1_555
H8_3 O11_3 1_555 1_555
H9_3 O11_3 1_555 1_555
C11_3 C2_3 1_555 1_555
C12_3 C5_3 1_555 1_555
C13_3 O5_3 1_555 1_555
C14_3 C13_3 1_555 1_555
C17_3 C16_3 1_555 1_555
C18_3 C17_3 1_555 1_555
C19_3 C18_3 1_555 1_555
H12_3 C19_3 1_555 1_555
C20_3 C19_3 1_555 1_555
H13_3 C20_3 1_555 1_555
C21_3 C20_3 1_555 1_555
H14_3 C21_3 1_555 1_555
C22_3 C21_3 1_555 1_555
H15_3 C22_3 1_555 1_555
C23_3 C14_3 1_555 1_555
C24_3 C17_3 1_555 1_555
C25_3 H16_3 1_555 1_555
C26_3 C25_3 1_555 1_555
C27_3 C26_3 1_555 1_555
H17_3 C27_3 1_555 1_555
C28_3 C27_3 1_555 1_555
H18_3 C28_3 1_555 1_555
C29_3 N1_3 1_555 1_555
H19_3 C29_3 1_555 1_555
C30_3 C26_3 1_555 1_555
C31_3 O9_3 1_555 1_555
H21_3 C31_3 1_555 1_555
C32_3 N3_3 1_555 1_555
H22_3 C32_3 1_555 1_555
H23_3 C32_3 1_555 1_555
H24_3 C32_3 1_555 1_555
C33_3 N3_3 1_555 1_555
H25_3 C33_3 1_555 1_555
H26_3 C33_3 1_555 1_555
H27_3 C33_3 1_555 1_555
Co10 O10_3 1_555 1_555
Co15 O10_3 1_555 1_555
C6_3 C11_3 1_555 1_555
C10_3 C11_3 1_555 1_555
C18_3 C23_3 1_555 1_555
C22_3 C23_3 1_555 1_555
C28_3 C29_3 1_555 1_555
H10_3 C15_3 1_555 1_555
Co8 O5_4 1_555 1_555
Co16 O1_4 1_555 1_555
N3_4 C31_4 1_555 1_555
O1_4 C1_4 1_555 1_555
C2_4 C1_4 1_555 1_555
O25_2 C12_4 1_555 1_555
O5_4 Co16 1_555 1_555
C6_4 C5_4 1_555 1_555
O6_2 C13_4 1_555 1_555
C7_4 C6_4 1_555 1_555
H3_4 C7_4 1_555 1_555
O30 C24_4 1_555 1_555
C8_4 C7_4 1_555 1_555
H4_4 C8_4 1_555 1_555
O32 C24_4 1_555 1_555
C9_4 C8_4 1_555 1_555
H5_4 C9_4 1_555 1_555
O9_4 Co16 1_555 1_555
C10_4 C9_4 1_555 1_555
H7_4 C10_4 1_555 1_555
C11_4 C2_4 1_555 1_555
C12_4 C5_4 1_555 1_555
C13_4 O5_4 1_555 1_555
C14_4 C13_4 1_555 1_555
C15_4 C14_4 1_555 1_555
H10_4 C15_4 1_555 1_555
C16_4 C15_4 1_555 1_555
H11_4 C16_4 1_555 1_555
C17_4 C16_4 1_555 1_555
C18_4 C17_4 1_555 1_555
C19_4 C18_4 1_555 1_555
H12_4 C19_4 1_555 1_555
C20_4 C19_4 1_555 1_555
H13_4 C20_4 1_555 1_555
C21_4 C20_4 1_555 1_555
H14_4 C21_4 1_555 1_555
C22_4 C21_4 1_555 1_555
H15_4 C22_4 1_555 1_555
C23_4 C14_4 1_555 1_555
C24_4 C17_4 1_555 1_555
C31_4 O9_4 1_555 1_555
H21_4 C31_4 1_555 1_555
C32_4 N3_4 1_555 1_555
H22_4 C32_4 1_555 1_555
H23_4 C32_4 1_555 1_555
H24_4 C32_4 1_555 1_555
C33_4 N3_4 1_555 1_555
H25_4 C33_4 1_555 1_555
H26_4 C33_4 1_555 1_555
H27_4 C33_4 1_555 1_555
Co14 O6_2 1_555 1_555
O35_2 Co8 1_555 1_555
C6_4 C11_4 1_555 1_555
C10_4 C11_4 1_555 1_555
C18_4 C23_4 1_555 1_555
C22_4 C23_4 1_555 1_555
Co14 O35_2 1_555 1_555
Co11 N1_4 1_555 1_555
N1_4 C25_4 1_555 1_555
N2_4 C30_4 1_555 1_555
H1_4 C3_4 1_555 1_555
C4_4 C3_4 1_555 1_555
H2_4 C4_4 1_555 1_555
O10_4 Co8_2 1_555 1_555
H6_4 O10_4 1_555 1_555
O11_4 Co11 1_555 1_555
H8_4 O11_4 1_555 1_555
H9_4 O11_4 1_555 1_555
C25_4 H16_4 1_555 1_555
C26_4 C25_4 1_555 1_555
C27_4 C26_4 1_555 1_555
H17_4 C27_4 1_555 1_555
C28_4 C27_4 1_555 1_555
H18_4 C28_4 1_555 1_555
C29_4 N1_4 1_555 1_555
H19_4 C29_4 1_555 1_555
C30_4 C26_4 1_555 1_555
H20_4 C30_4 1_555 1_555
N4_4 C34_4 1_555 1_555
N5_4 N2_4 1_555 1_555
C34_4 H28_4 1_555 1_555
C35_4 C34_4 1_555 1_555
C36_4 C35_4 1_555 1_555
H29_4 C36_4 1_555 1_555
C37_4 C36_4 1_555 1_555
H30_4 C37_4 1_555 1_555
C38_4 N4_4 1_555 1_555
H31_4 C38_4 1_555 1_555
C39_4 N5_4 1_555 1_555
H32_4 C39_4 1_555 1_555
Co14 N4_4 1_555 1_555
H33_4 C42_4 1_555 1_555
C43_4 C42_4 1_555 1_555
H34_4 C43_4 1_555 1_555
H38_4 O35_2 1_555 1_555
O22_4 Co14 1_555 1_555
H40_4 O22_4 1_555 1_555
H41_4 O22_4 1_555 1_555
O27_2 Co8_2 1_555 1_555
O29_2 Co11 1_555 1_555
Co11 O10_4 1_555 1_555
C28_4 C29_4 1_555 1_555
C35_4 C39_4 1_555 1_555
C37_4 C38_4 1_555 1_555
Co18 O12_4 1_555 1_555
N6_4 C64_4 1_555 1_555
O12_4 C40_4 1_555 1_555
C41_4 C40_4 1_555 1_555
O26_2 C51_4 1_555 1_555
O27_2 Co18 1_555 1_555
C45_4 C44_4 1_555 1_555
O29_2 C52_4 1_555 1_555
C46_4 C45_4 1_555 1_555
H35_4 C46_4 1_555 1_555
O31 C63_4 1_555 1_555
C47_4 C46_4 1_555 1_555
H36_4 C47_4 1_555 1_555
O34 C63_4 1_555 1_555
C48_4 C47_4 1_555 1_555
H37_4 C48_4 1_555 1_555
O20_4 Co18 1_555 1_555
C49_4 C48_4 1_555 1_555
H39_4 C49_4 1_555 1_555
C50_4 C41_4 1_555 1_555
C51_4 C44_4 1_555 1_555
C52_4 O27_2 1_555 1_555
C53_4 C52_4 1_555 1_555
C54_4 C53_4 1_555 1_555
H42_4 C54_4 1_555 1_555
C55_4 C54_4 1_555 1_555
H43_4 C55_4 1_555 1_555
C56_4 C55_4 1_555 1_555
C57_4 C56_4 1_555 1_555
C58_4 C57_4 1_555 1_555
H44_4 C58_4 1_555 1_555
C59_4 C58_4 1_555 1_555
H45_4 C59_4 1_555 1_555
C60_4 C59_4 1_555 1_555
H46_4 C60_4 1_555 1_555
C61_4 C60_4 1_555 1_555
H47_4 C61_4 1_555 1_555
C62_4 C53_4 1_555 1_555
C63_4 C56_4 1_555 1_555
C64_4 O20_4 1_555 1_555
H48_4 C64_4 1_555 1_555
C65_4 N6_4 1_555 1_555
H49_4 C65_4 1_555 1_555
H50_4 C65_4 1_555 1_555
H51_4 C65_4 1_555 1_555
C66_4 N6_4 1_555 1_555
H52_4 C66_4 1_555 1_555
H53_4 C66_4 1_555 1_555
H54_4 C66_4 1_555 1_555
C45_4 C50_4 1_555 1_555
C49_4 C50_4 1_555 1_555
C57_4 C62_4 1_555 1_555
C61_4 C62_4 1_555 1_555

#END
