
###############################################################################
#
# This file contains modified crystal structure data generated from the
# MOF subset of the Cambridge Structural Database (CSD) v543 
# hosted by the Cambridge Crystallographic Data Centre (CCDC).
#
# This work is licensed under the Creative Commons
# Attribution-NonCommercial-ShareAlike 4.0 International License.
# To view a copy of this license, visit
# http://creativecommons.org/licenses/by-nc-sa/4.0/
# or send a letter to
# Creative Commons, PO Box 1866, Mountain View, CA 94042, USA.
#
# CIF created using the CSD Python API on 29 September 2022
# The structure has been converted into the P1 space group
# The structure has a 3D framework
# The original CSD entry SOFJOO is in the monoclinic crystal system
# The framework has been calculated to contain at least 10.0% void space
# The void calculation uses a probe of radius 1.32A, grid spacing 0.4
# H atom positions have been added when not included in the experimental data
# Generated hydrogen atom positions removed from atoms on special positions
#
###############################################################################

data_SOFJOO
_chemical_formula_moiety         '(C60 H52 Cd12 N24 O20 S4)n'
_symmetry_cell_setting           triclinic
_symmetry_space_group_name_H-M   'P 1'
_symmetry_Int_Tables_number      1
_space_group_name_Hall           'P 1'
loop_
_symmetry_equiv_pos_site_id
_symmetry_equiv_pos_as_xyz
1 x,y,z
_cell_length_a                   10.2571(2)
_cell_length_b                   15.8316(4)
_cell_length_c                   13.0610(3)
_cell_angle_alpha                90
_cell_angle_beta                 96.072(2)
_cell_angle_gamma                90
_cell_volume                     2109.03
loop_
_atom_site_label
_atom_site_type_symbol
_atom_site_fract_x
_atom_site_fract_y
_atom_site_fract_z
Cd2 Cd 0.0000 0.5000 0.5000
S1 S 0.39674(8) 0.27634(6) 0.39497(7)
O1 O 0.6800(2) 0.22438(16) 0.4212(2)
O2 O 0.1145(3) 0.27467(17) 0.3849(3)
N5 N 0.0662(3) 0.06490(19) 0.6573(2)
H1 H 0.0649 0.0487 0.7200
O3 O 0.7547(2) 0.34370(16) 0.36436(19)
C2 C 0.6629(3) 0.2990(2) 0.3937(3)
C3 C 0.1516(3) 0.3488(2) 0.3873(2)
O4 O 0.0783(2) 0.41148(16) 0.38371(19)
C4 C 0.1887(4) 0.0706(2) 0.4148(3)
H2 H 0.1659 0.0982 0.3526
C5 C 0.5317(3) 0.3391(2) 0.3929(3)
C7 C 0.2941(4) 0.0182(2) 0.4281(3)
H3 H 0.3450 0.0109 0.3739
C8 C 0.2957(3) 0.3620(2) 0.3895(3)
C9 C 0.1538(3) 0.0391(2) 0.5903(3)
N6 N 0.0083(3) 0.13092(18) 0.5098(2)
C10 C 0.1166(3) 0.0811(2) 0.4983(3)
C12 C 0.3619(3) 0.4353(3) 0.3867(3)
H5 H 0.3226 0.4884 0.3843
O5 O 0.1828(3) 0.4967(2) 0.6099(3)
C15 C 0.4989(3) 0.4218(3) 0.3881(3)
H9 H 0.5596 0.4652 0.3860
Cd3 Cd 0.08864(2) 0.766945(16) 0.593400(18)
C16 C 0.1014(3) 0.7407(2) 0.3455(2)
N7 N 0.0817(3) 0.69737(18) 0.4294(2)
N8 N 0.0833(3) 0.61083(18) 0.2995(2)
N9 N 0.0716(3) 0.61557(18) 0.3984(2)
N10 N 0.1018(3) 0.68957(18) 0.2641(2)
C21 C 0.0172(3) 0.8795(2) 0.3940(3)
C28 C 0.1210(4) 0.8339(2) 0.3453(3)
H15 H 0.2057 0.8472 0.3820
H16 H 0.1214 0.8532 0.2749
Cd4 Cd 0.91136(2) 0.233055(16) 0.406600(18)
Cd5 Cd 0.08864(2) 0.733055(16) 0.093400(18)
O12 O 0.3200(2) 0.77562(16) 0.5788(2)
N13 N 0.1018(3) 0.81043(18) 0.7641(2)
O14 O 0.2453(2) 0.65630(16) 0.63564(19)
Cd2_2 Cd 1.0000 0.5000 0.5000
C1 C 0.8986(3) 0.2593(2) 0.6545(2)
N1 N 0.9183(3) 0.30263(18) 0.5706(2)
N2 N 0.9167(3) 0.38917(18) 0.7005(2)
N3 N 0.9284(3) 0.38443(18) 0.6016(2)
N4 N 0.8982(3) 0.31043(18) 0.7359(2)
C6 C 0.9828(3) 0.1205(2) 0.6060(3)
C13 C 0.8790(4) 0.1661(2) 0.6547(3)
H6 H 0.7943 0.1528 0.6180
H7 H 0.8786 0.1468 0.7251
S2 S 0.60326(8) 0.72366(6) 0.60503(7)
O7 O 0.8855(3) 0.72533(17) 0.6151(3)
N11 N 0.9338(3) 0.93510(19) 0.3427(2)
H10 H 0.9351 0.9513 0.2800
C17 C 0.3371(3) 0.7010(2) 0.6063(3)
C18 C 0.8484(3) 0.6512(2) 0.6127(2)
O9 O 0.9217(2) 0.58852(16) 0.61629(19)
C19 C 0.8113(4) 0.9294(2) 0.5852(3)
H11 H 0.8341 0.9018 0.6474
C20 C 0.4683(3) 0.6609(2) 0.6071(3)
C22 C 0.7059(4) 0.9818(2) 0.5719(3)
H12 H 0.6550 0.9891 0.6261
C23 C 0.7043(3) 0.6380(2) 0.6105(3)
C24 C 0.8462(3) 0.9609(2) 0.4097(3)
N12 N 0.9917(3) 0.86908(18) 0.4902(2)
C25 C 0.8834(3) 0.9189(2) 0.5017(3)
C27 C 0.6381(3) 0.5647(3) 0.6133(3)
H14 H 0.6774 0.5116 0.6157
O10 O 0.8172(3) 0.5033(2) 0.3901(3)
C30 C 0.5011(3) 0.5782(3) 0.6119(3)
H18 H 0.4404 0.5348 0.6140
Cd7 Cd 0.91136(2) 0.266945(16) 0.906600(18)
N14 N 0.8982(3) 0.18957(18) 0.2359(2)
Cd2_3 Cd 0.0000 -0.0000 1.0000
S2_2 S 0.39674(8) 0.22366(6) 0.89497(7)
O6 O 0.6800(2) 0.27562(16) 0.9212(2)
O7_2 O 0.1145(3) 0.22533(17) 0.8849(3)
O8 O 0.7547(2) 0.15630(16) 0.86436(19)
C17_2 C 0.6629(3) 0.2010(2) 0.8937(3)
C18_2 C 0.1516(3) 0.1512(2) 0.8873(2)
O9_2 O 0.0783(2) 0.08852(16) 0.88371(19)
C19_2 C 0.1887(4) 0.4294(2) 0.9148(3)
H11_2 H 0.1659 0.4018 0.8526
C20_2 C 0.5317(3) 0.1609(2) 0.8929(3)
C22_2 C 0.2941(4) 0.4818(2) 0.9281(3)
H12_2 H 0.3450 0.4891 0.8739
C23_2 C 0.2957(3) 0.1380(2) 0.8895(3)
C25_2 C 0.1166(3) 0.4189(2) 0.9983(3)
C27_2 C 0.3619(3) 0.0647(3) 0.8867(3)
H14_2 H 0.3226 0.0116 0.8843
C30_2 C 0.4989(3) 0.0782(3) 0.8881(3)
H18_2 H 0.5596 0.0348 0.8860
Cd2_4 Cd 0.0000 1.0000 -0.0000
O11 O 0.3200(2) 0.72438(16) 0.0788(2)
O13 O 0.2453(2) 0.84370(16) 0.13564(19)
Cd2_5 Cd 0.0000 1.0000 1.0000
C1_2 C 0.1014(3) 0.7593(2) 0.8455(2)
N1_2 N 0.0817(3) 0.80263(18) 0.9294(2)
N2_2 N 0.0833(3) 0.88917(18) 0.7995(2)
N3_2 N 0.0716(3) 0.88443(18) 0.8984(2)
C6_2 C 0.0172(3) 0.6205(2) 0.8940(3)
C13_2 C 0.1210(4) 0.6661(2) 0.8453(3)
H6_2 H 0.2057 0.6528 0.8820
H7_2 H 0.1214 0.6468 0.7749
Cd2_6 Cd 1.0000 -0.0000 -0.0000
C16_2 C 0.8986(3) 0.2407(2) 0.1545(2)
N7_2 N 0.9183(3) 0.19737(18) 0.0706(2)
N8_2 N 0.9167(3) 0.11083(18) 0.2005(2)
N9_2 N 0.9284(3) 0.11557(18) 0.1016(2)
C21_2 C 0.9828(3) 0.3795(2) 0.1060(3)
C28_2 C 0.8790(4) 0.3339(2) 0.1547(3)
H15_2 H 0.7943 0.3472 0.1180
H16_2 H 0.8786 0.3532 0.2251
Cd2_7 Cd 1.0000 -0.0000 1.0000
H20 H 0.75567 0.0409805 0.909291
Cd2_8 Cd 1.0000 1.0000 -0.0000
S1_2 S 0.60326(8) 0.77634(6) 0.10503(7)
O2_2 O 0.8855(3) 0.77467(17) 0.1151(3)
C2_2 C 0.3371(3) 0.7990(2) 0.1063(3)
C3_2 C 0.8484(3) 0.8488(2) 0.1127(2)
O4_2 O 0.9217(2) 0.91148(16) 0.11629(19)
C4_2 C 0.8113(4) 0.5706(2) 0.0852(3)
H2_2 H 0.8341 0.5982 0.1474
C5_2 C 0.4683(3) 0.8391(2) 0.1071(3)
C7_2 C 0.7059(4) 0.5182(2) 0.0719(3)
H3_2 H 0.6550 0.5109 0.1261
C8_2 C 0.7043(3) 0.8620(2) 0.1105(3)
C10_2 C 0.8834(3) 0.5811(2) 0.0017(3)
C12_2 C 0.6381(3) 0.9353(3) 0.1133(3)
H5_2 H 0.6774 0.9884 0.1157
C15_2 C 0.5011(3) 0.9218(3) 0.1119(3)
H9_2 H 0.4404 0.9652 0.1140
H20_2 H 0.24433 0.95902 0.0907094
C11 C 0.2593(4) 0.9838(2) 0.6020(3)
H4 H 0.2815 0.9542 0.6629
C14 C 0.3283(4) 0.9755(3) 0.5189(4)
H8 H 0.4008 0.9399 0.5236
C26 C 0.7407(4) 0.0162(2) 0.3980(3)
H13 H 0.7185 0.0458 0.3371
C29 C 0.6717(4) 0.0245(3) 0.4811(4)
H17 H 0.5992 0.0601 0.4764
Cd2_9 Cd 0.0000 -0.0000 -0.0000
N11_2 N 0.0662(3) 0.43510(19) 0.1573(2)
H10_2 H 0.0649 0.4513 0.2200
C24_2 C 0.1538(3) 0.4609(2) 0.0903(3)
N12_2 N 0.0083(3) 0.36908(18) 0.0098(2)
C26_2 C 0.2593(4) 0.5162(2) 0.1020(3)
H13_2 H 0.2815 0.5458 0.1629
O10_2 O 0.1828(3) 0.0033(2) 0.1099(3)
C29_2 C 0.3283(4) 0.5245(3) 0.0189(4)
H17_2 H 0.4008 0.5601 0.0236
Cd2_10 Cd 1.0000 1.0000 1.0000
N5_2 N 0.9338(3) 0.56490(19) 0.8427(2)
H1_2 H 0.9351 0.5487 0.7800
C9_2 C 0.8462(3) 0.5391(2) 0.9097(3)
N6_2 N 0.9917(3) 0.63092(18) 0.9902(2)
C11_2 C 0.7407(4) 0.4838(2) 0.8980(3)
H4_2 H 0.7185 0.4542 0.8371
O5_2 O 0.8172(3) 0.9967(2) 0.8901(3)
C14_2 C 0.6717(4) 0.4755(3) 0.9811(4)
H8_2 H 0.5992 0.4399 0.9764
loop_
_geom_bond_atom_site_label_1
_geom_bond_atom_site_label_2
_geom_bond_site_symmetry_1
_geom_bond_site_symmetry_2
S1 C5 1_555 1_555
O1 C2 1_555 1_555
N5 H1 1_555 1_555
O3 C2 1_555 1_555
C2 C5 1_555 1_555
C3 O2 1_555 1_555
O4 Cd2 1_555 1_555
C4 H2 1_555 1_555
C5 C15 1_555 1_555
C7 C4 1_555 1_555
H3 C7 1_555 1_555
C8 S1 1_555 1_555
C9 N5 1_555 1_555
C10 C4 1_555 1_555
C12 C8 1_555 1_555
H5 C12 1_555 1_555
O5 Cd2 1_555 1_555
C15 C12 1_555 1_555
H9 C15 1_555 1_555
Cd3 N7 1_555 1_555
C16 N7 1_555 1_555
N7 N9 1_555 1_555
N8 N9 1_555 1_555
N9 Cd2 1_555 1_555
N10 C16 1_555 1_555
C28 C16 1_555 1_555
H15 C28 1_555 1_555
H16 C28 1_555 1_555
Cd4 O1 1_555 1_555
Cd5 N10 1_555 1_555
O12 Cd3 1_555 1_555
N13 Cd3 1_555 1_555
O14 Cd3 1_555 1_555
O3 Cd4 1_555 1_555
C3 O4 1_555 1_555
C3 C8 1_555 1_555
C9 C10 1_555 1_555
N6 C10 1_555 1_555
N8 N10 1_555 1_555
C21 C28 1_555 1_555
Cd4 N1 1_555 1_555
Cd2_2 N3 1_555 1_555
C1 N1 1_555 1_555
N1 N3 1_555 1_555
N2 N3 1_555 1_555
N4 C1 1_555 1_555
C13 C1 1_555 1_555
H6 C13 1_555 1_555
H7 C13 1_555 1_555
S2 C20 1_555 1_555
O12 C17 1_555 1_555
N11 H10 1_555 1_555
O14 C17 1_555 1_555
C17 C20 1_555 1_555
C18 O7 1_555 1_555
O9 Cd2_2 1_555 1_555
C19 H11 1_555 1_555
C20 C30 1_555 1_555
C22 C19 1_555 1_555
H12 C22 1_555 1_555
C23 S2 1_555 1_555
C24 N11 1_555 1_555
C25 C19 1_555 1_555
C27 C23 1_555 1_555
H14 C27 1_555 1_555
O10 Cd2_2 1_555 1_555
C30 C27 1_555 1_555
H18 C30 1_555 1_555
Cd7 N4 1_555 1_555
N14 Cd4 1_555 1_555
N2 N4 1_555 1_555
C6 C13 1_555 1_555
C18 O9 1_555 1_555
C18 C23 1_555 1_555
C24 C25 1_555 1_555
N12 C25 1_555 1_555
S2_2 C20_2 1_555 1_555
O6 C17_2 1_555 1_555
O8 C17_2 1_555 1_555
C17_2 C20_2 1_555 1_555
C18_2 O7_2 1_555 1_555
O9_2 Cd2_3 1_555 1_555
C19_2 H11_2 1_555 1_555
C20_2 C30_2 1_555 1_555
C22_2 C19_2 1_555 1_555
H12_2 C22_2 1_555 1_555
C23_2 S2_2 1_555 1_555
C25_2 C19_2 1_555 1_555
C27_2 C23_2 1_555 1_555
H14_2 C27_2 1_555 1_555
C30_2 C27_2 1_555 1_555
H18_2 C30_2 1_555 1_555
Cd7 O6 1_555 1_555
O8 Cd7 1_555 1_555
C18_2 O9_2 1_555 1_555
C18_2 C23_2 1_555 1_555
O11 Cd5 1_555 1_555
O13 Cd5 1_555 1_555
Cd2_5 N3_2 1_555 1_555
C1_2 N1_2 1_555 1_555
N1_2 N3_2 1_555 1_555
N2_2 N3_2 1_555 1_555
N13 C1_2 1_555 1_555
C13_2 C1_2 1_555 1_555
H6_2 C13_2 1_555 1_555
H7_2 C13_2 1_555 1_555
N2_2 N13 1_555 1_555
C6_2 C13_2 1_555 1_555
C16_2 N7_2 1_555 1_555
N7_2 N9_2 1_555 1_555
N8_2 N9_2 1_555 1_555
N9_2 Cd2_6 1_555 1_555
N14 C16_2 1_555 1_555
C28_2 C16_2 1_555 1_555
H15_2 C28_2 1_555 1_555
H16_2 C28_2 1_555 1_555
N8_2 N14 1_555 1_555
C21_2 C28_2 1_555 1_555
S1_2 C5_2 1_555 1_555
O11 C2_2 1_555 1_555
O13 C2_2 1_555 1_555
C2_2 C5_2 1_555 1_555
C3_2 O2_2 1_555 1_555
O4_2 Cd2_8 1_555 1_555
C4_2 H2_2 1_555 1_555
C5_2 C15_2 1_555 1_555
C7_2 C4_2 1_555 1_555
H3_2 C7_2 1_555 1_555
C8_2 S1_2 1_555 1_555
C10_2 C4_2 1_555 1_555
C12_2 C8_2 1_555 1_555
H5_2 C12_2 1_555 1_555
C15_2 C12_2 1_555 1_555
H9_2 C15_2 1_555 1_555
C3_2 O4_2 1_555 1_555
C3_2 C8_2 1_555 1_555
H4 C11 1_555 1_555
H8 C14 1_555 1_555
C11 C14 1_555 1_555
H13 C26 1_555 1_555
H17 C29 1_555 1_555
C26 C29 1_555 1_555
N11_2 H10_2 1_555 1_555
C24_2 N11_2 1_555 1_555
C26_2 C24_2 1_555 1_555
H13_2 C26_2 1_555 1_555
O10_2 Cd2_9 1_555 1_555
H17_2 C29_2 1_555 1_555
C26_2 C29_2 1_555 1_555
N5_2 H1_2 1_555 1_555
C9_2 N5_2 1_555 1_555
C11_2 C9_2 1_555 1_555
H4_2 C11_2 1_555 1_555
O5_2 Cd2_10 1_555 1_555
H8_2 C14_2 1_555 1_555
C11_2 C14_2 1_555 1_555

#END
