
###############################################################################
#
# This file contains modified crystal structure data generated from the
# MOF subset of the Cambridge Structural Database (CSD) v543 
# hosted by the Cambridge Crystallographic Data Centre (CCDC).
#
# This work is licensed under the Creative Commons
# Attribution-NonCommercial-ShareAlike 4.0 International License.
# To view a copy of this license, visit
# http://creativecommons.org/licenses/by-nc-sa/4.0/
# or send a letter to
# Creative Commons, PO Box 1866, Mountain View, CA 94042, USA.
#
# CIF created using the CSD Python API on 29 September 2022
# The structure has been converted into the P1 space group
# The structure has a 3D framework
# The original CSD entry SOFKIK is in the orthorhombic crystal system
# The framework has been calculated to contain at least 10.0% void space
# The void calculation uses a probe of radius 1.32A, grid spacing 0.4
#
###############################################################################

data_SOFKIK
_chemical_formula_moiety         '(C184 H112 Cd8 N32 O32 S16)n'
_symmetry_cell_setting           triclinic
_symmetry_space_group_name_H-M   'P 1'
_symmetry_Int_Tables_number      1
_space_group_name_Hall           'P 1'
loop_
_symmetry_equiv_pos_site_id
_symmetry_equiv_pos_as_xyz
1 x,y,z
_cell_length_a                   20.0651(2)
_cell_length_b                   17.5192(2)
_cell_length_c                   16.0176(2)
_cell_angle_alpha                90
_cell_angle_beta                 90
_cell_angle_gamma                90
_cell_volume                     5630.58
loop_
_atom_site_label
_atom_site_type_symbol
_atom_site_fract_x
_atom_site_fract_y
_atom_site_fract_z
Cd7 Cd 0.19198(2) 0.30109(3) 0.08078(3)
O7 O 0.1642(5) 0.3035(4) 0.9426(4)
O8 O 0.2077(4) 0.3573(4) 0.8256(6)
C13 C 0.0399(6) 0.2998(6) 0.8594(7)
H7 H 0.0393 0.2931 0.9170
C14 C 0.0972(5) 0.3128(5) 0.8212(6)
C15 C 0.0969(4) 0.3077(5) 0.7366(6)
H8 H 0.1373 0.3084 0.7081
C16 C 0.0385(4) 0.3016(5) 0.6914(6)
H9 H 0.0410 0.3007 0.6334
C17 C 0.1614(5) 0.3261(5) 0.8678(6)
Cd5 Cd 0.30708(2) 0.36179(3) 0.88859(3)
N3 N 0.6885(4) 0.2274(4) 0.3841(7)
N4 N 0.7959(4) 0.1694(4) 0.5655(5)
C28 C 0.6838(4) 0.0697(4) 0.3837(7)
C29 C 0.7272(6) 0.1079(5) 0.3298(6)
H17 H 0.7554 0.0817 0.2938
C30 C 0.7261(6) 0.1889(5) 0.3330(7)
H18 H 0.7536 0.2158 0.2966
C31 C 0.6488(5) 0.1884(5) 0.4318(7)
H19 H 0.6210 0.2160 0.4671
C32 C 0.6438(5) 0.1095(4) 0.4352(6)
H20 H 0.6143 0.0853 0.4713
C42 C 0.7965(5) 0.0103(5) 0.5641(6)
C43 C 0.7485(5) 0.0492(4) 0.6061(6)
H25 H 0.7152 0.0236 0.6352
C44 C 0.7506(5) 0.1291(4) 0.6043(6)
H26 H 0.7173 0.1554 0.6327
C45 C 0.8436(5) 0.1310(5) 0.5207(7)
H27 H 0.8761 0.1583 0.4919
C46 C 0.8438(5) 0.0518(5) 0.5181(7)
H28 H 0.8753 0.0262 0.4860
Cd3 Cd 0.69292(2) 0.36179(3) 0.38859(3)
Cd6 Cd 0.80802(2) 0.30109(3) 0.58078(3)
S1 S 0.75626(12) 0.78846(11) 0.32242(15)
S2 S 0.62953(13) 0.93365(12) 0.44477(17)
S3 S 0.72916(12) 0.72726(11) 0.62463(16)
S4 S 0.85740(13) 0.87500(11) 0.50740(17)
O1 O 0.6627(4) 0.3603(4) 0.5222(5)
O2 O 0.7046(3) 0.2980(3) 0.6320(4)
O3 O 0.8619(3) 0.3070(4) 0.7101(5)
O4 O 0.9202(3) 0.2838(6) 0.6024(6)
O5 O 0.3591(3) 0.3628(4) 0.7499(5)
O6 O 0.4228(3) 0.3743(5) 0.8632(5)
N1 N 0.7056(3) 0.4925(4) 0.3930(6)
N2 N 0.8059(3) 0.4346(4) 0.5791(6)
N5 N 0.6559(4) 0.7747(4) 0.4253(5)
N6 N 0.7300(4) 0.9443(4) 0.3414(5)
N7 N 0.8343(4) 0.7185(4) 0.5298(5)
N8 N 0.7517(4) 0.8864(4) 0.6026(5)
C1 C 0.6584(4) 0.3321(5) 0.5929(6)
C2 C 0.5947(4) 0.3408(5) 0.6402(5)
C3 C 0.5421(5) 0.3791(7) 0.6054(7)
H1 H 0.5458 0.3979 0.5513
C4 C 0.4831(5) 0.3904(7) 0.6496(7)
C5 C 0.4759(4) 0.3598(5) 0.7297(6)
C6 C 0.5324(5) 0.3188(7) 0.7643(7)
H2 H 0.5290 0.2979 0.8175
C7 C 0.5910(5) 0.3100(7) 0.7206(7)
H3 H 0.6270 0.2843 0.7439
C8 C 0.4160(5) 0.3682(6) 0.7827(7)
C9 C 0.4290(8) 0.4318(10) 0.6153(10)
H4 H 0.4036 0.3991 0.5793
H5 H 0.4457 0.4744 0.5838
H6 H 0.4010 0.4501 0.6596
C10 C 0.9153(5) 0.2972(5) 0.6769(7)
C11 C 0.9795(4) 0.2968(5) 0.7270(6)
C12 C 0.9780(5) 0.2958(6) 0.8131(7)
C18 C 0.9247(9) 0.2722(11) 0.8696(12)
H10 H 0.8889 0.2504 0.8378
H11 H 0.9087 0.3157 0.8999
H12 H 0.9415 0.2349 0.9081
C19 C 0.7516(4) 0.5311(5) 0.3489(6)
H13 H 0.7845 0.5040 0.3208
C20 C 0.7512(4) 0.6095(5) 0.3443(6)
H14 H 0.7828 0.6342 0.3114
C21 C 0.7043(4) 0.6527(4) 0.3881(8)
C22 C 0.6566(5) 0.6143(5) 0.4319(6)
H15 H 0.6228 0.6405 0.4594
C23 C 0.6597(5) 0.5349(5) 0.4344(6)
H16 H 0.6282 0.5093 0.4665
C24 C 0.7008(4) 0.7360(4) 0.3850(7)
C25 C 0.7170(5) 0.8708(5) 0.3545(6)
C26 C 0.6663(5) 0.8508(5) 0.4087(6)
C27 C 0.6854(4) 0.9856(4) 0.3847(7)
C33 C 0.7626(4) 0.4724(4) 0.6267(5)
H21 H 0.7355 0.4444 0.6624
C34 C 0.7559(4) 0.5496(5) 0.6259(5)
H22 H 0.7235 0.5730 0.6587
C35 C 0.7964(4) 0.5923(5) 0.5772(7)
C36 C 0.8412(4) 0.5547(4) 0.5244(5)
H23 H 0.8681 0.5823 0.4880
C37 C 0.8451(4) 0.4747(4) 0.5270(5)
H24 H 0.8751 0.4493 0.4925
C38 C 0.7923(4) 0.6768(4) 0.5727(6)
C39 C 0.7666(4) 0.8098(4) 0.5905(6)
C40 C 0.8214(5) 0.7932(5) 0.5410(6)
C41 C 0.7951(5) 0.9268(5) 0.5648(6)
O9 O 0.6409(3) 0.3628(4) 0.2499(5)
O10 O 0.5772(3) 0.3743(5) 0.3632(5)
O11 O 0.8358(5) 0.3035(4) 0.4426(4)
O12 O 0.7923(4) 0.3573(4) 0.3256(6)
N4_2 N 0.2041(4) 0.1694(4) 0.0655(5)
C42_2 C 0.2035(5) 0.0103(5) 0.0641(6)
C43_2 C 0.2515(5) 0.0492(4) 0.1061(6)
H25_2 H 0.2848 0.0236 0.1352
C44_2 C 0.2494(5) 0.1291(4) 0.1043(6)
H26_2 H 0.2827 0.1554 0.1327
C45_2 C 0.1564(5) 0.1310(5) 0.0207(7)
C46_2 C 0.1562(5) 0.0518(5) 0.0181(7)
N3_2 N 0.3115(4) 0.2274(4) 0.8841(7)
C28_2 C 0.3162(4) 0.0697(4) 0.8837(7)
C29_2 C 0.2728(6) 0.1079(5) 0.8298(6)
H17_2 H 0.2446 0.0817 0.7938
C30_2 C 0.2739(6) 0.1889(5) 0.8330(7)
H18_2 H 0.2464 0.2158 0.7966
C31_2 C 0.3512(5) 0.1884(5) 0.9318(7)
H19_2 H 0.3790 0.2160 0.9671
C32_2 C 0.3562(5) 0.1095(4) 0.9352(6)
H20_2 H 0.3857 0.0853 0.9713
H27_2 H 0.1239 0.1583 0.9919
H28_2 H 0.1247 0.0262 0.9860
S3_2 S 0.27084(12) 0.72726(11) 0.12463(16)
S4_2 S 0.14260(13) 0.87500(11) 0.00740(17)
O1_2 O 0.3373(4) 0.3603(4) 0.0222(5)
O2_2 O 0.2954(3) 0.2980(3) 0.1320(4)
O3_2 O 0.1381(3) 0.3070(4) 0.2101(5)
O4_2 O 0.0798(3) 0.2838(6) 0.1024(6)
N2_2 N 0.1941(3) 0.4346(4) 0.0791(6)
N7_2 N 0.1657(4) 0.7185(4) 0.0298(5)
N8_2 N 0.2483(4) 0.8864(4) 0.1026(5)
C1_2 C 0.3416(4) 0.3321(5) 0.0929(6)
C2_2 C 0.4053(4) 0.3408(5) 0.1402(5)
C3_2 C 0.4579(5) 0.3791(7) 0.1054(7)
H1_2 H 0.4542 0.3979 0.0513
C4_2 C 0.5169(5) 0.3904(7) 0.1496(7)
C5_2 C 0.5241(4) 0.3598(5) 0.2297(6)
C6_2 C 0.4676(5) 0.3188(7) 0.2643(7)
H2_2 H 0.4710 0.2979 0.3175
C7_2 C 0.4090(5) 0.3100(7) 0.2206(7)
H3_2 H 0.3730 0.2843 0.2439
C8_2 C 0.5840(5) 0.3682(6) 0.2827(7)
C9_2 C 0.5710(8) 0.4318(10) 0.1153(10)
H4_2 H 0.5964 0.3991 0.0793
H5_2 H 0.5543 0.4744 0.0838
H6_2 H 0.5990 0.4501 0.1596
C10_2 C 0.0847(5) 0.2972(5) 0.1769(7)
C11_2 C 0.0205(4) 0.2968(5) 0.2270(6)
C12_2 C 0.0220(5) 0.2958(6) 0.3131(7)
C18_2 C 0.0753(9) 0.2722(11) 0.3696(12)
H10_2 H 0.1111 0.2504 0.3378
H11_2 H 0.0913 0.3157 0.3999
H12_2 H 0.0585 0.2349 0.4081
C33_2 C 0.2374(4) 0.4724(4) 0.1267(5)
H21_2 H 0.2645 0.4444 0.1624
C34_2 C 0.2441(4) 0.5496(5) 0.1259(5)
H22_2 H 0.2765 0.5730 0.1587
C35_2 C 0.2036(4) 0.5923(5) 0.0772(7)
C36_2 C 0.1588(4) 0.5547(4) 0.0244(5)
C37_2 C 0.1549(4) 0.4747(4) 0.0270(5)
C38_2 C 0.2077(4) 0.6768(4) 0.0727(6)
C39_2 C 0.2334(4) 0.8098(4) 0.0905(6)
C40_2 C 0.1786(5) 0.7932(5) 0.0410(6)
C41_2 C 0.2049(5) 0.9268(5) 0.0648(6)
S1_2 S 0.24374(12) 0.78846(11) 0.82242(15)
S2_2 S 0.37047(13) 0.93365(12) 0.94477(17)
N1_2 N 0.2944(3) 0.4925(4) 0.8930(6)
N5_2 N 0.3441(4) 0.7747(4) 0.9253(5)
N6_2 N 0.2700(4) 0.9443(4) 0.8414(5)
C19_2 C 0.2484(4) 0.5311(5) 0.8489(6)
H13_2 H 0.2155 0.5040 0.8208
C20_2 C 0.2488(4) 0.6095(5) 0.8443(6)
H14_2 H 0.2172 0.6342 0.8114
C21_2 C 0.2957(4) 0.6527(4) 0.8881(8)
C22_2 C 0.3434(5) 0.6143(5) 0.9319(6)
H15_2 H 0.3772 0.6405 0.9594
C23_2 C 0.3403(5) 0.5349(5) 0.9344(6)
H16_2 H 0.3718 0.5093 0.9665
C24_2 C 0.2992(4) 0.7360(4) 0.8850(7)
C25_2 C 0.2830(5) 0.8708(5) 0.8545(6)
C26_2 C 0.3337(5) 0.8508(5) 0.9087(6)
C27_2 C 0.3146(4) 0.9856(4) 0.8847(7)
H23_2 H 0.1319 0.5823 0.9880
H24_2 H 0.1249 0.4493 0.9925
C13_2 C 0.9601(6) 0.2998(6) 0.3594(7)
H7_2 H 0.9607 0.2931 0.4170
C14_2 C 0.9028(5) 0.3128(5) 0.3212(6)
C15_2 C 0.9031(4) 0.3077(5) 0.2366(6)
H8_2 H 0.8627 0.3084 0.2081
C16_2 C 0.9615(4) 0.3016(5) 0.1914(6)
H9_2 H 0.9590 0.3007 0.1334
C17_2 C 0.8386(5) 0.3261(5) 0.3678(6)
Cd1 Cd 0.30708(2) 0.63821(3) 0.38859(3)
Cd2 Cd 0.19198(2) 0.69891(3) 0.58078(3)
S1_3 S 0.24374(12) 0.21154(11) 0.32242(15)
S2_3 S 0.37047(13) 0.06635(12) 0.44477(17)
S3_3 S 0.27084(12) 0.27274(11) 0.62463(16)
S4_3 S 0.14260(13) 0.12500(11) 0.50740(17)
O1_3 O 0.3373(4) 0.6397(4) 0.5222(5)
O2_3 O 0.2954(3) 0.7020(3) 0.6320(4)
O3_3 O 0.1381(3) 0.6930(4) 0.7101(5)
O4_3 O 0.0798(3) 0.7162(6) 0.6024(6)
O5_2 O 0.6409(3) 0.6372(4) 0.7499(5)
O6_2 O 0.5772(3) 0.6257(5) 0.8632(5)
N1_3 N 0.2944(3) 0.5075(4) 0.3930(6)
N2_3 N 0.1941(3) 0.5654(4) 0.5791(6)
N5_3 N 0.3441(4) 0.2253(4) 0.4253(5)
N6_3 N 0.2700(4) 0.0557(4) 0.3414(5)
N7_3 N 0.1657(4) 0.2815(4) 0.5298(5)
N8_3 N 0.2483(4) 0.1136(4) 0.6026(5)
C1_3 C 0.3416(4) 0.6679(5) 0.5929(6)
C2_3 C 0.4053(4) 0.6592(5) 0.6402(5)
C3_3 C 0.4579(5) 0.6209(7) 0.6054(7)
H1_3 H 0.4542 0.6021 0.5513
C4_3 C 0.5169(5) 0.6096(7) 0.6496(7)
C5_3 C 0.5241(4) 0.6402(5) 0.7297(6)
C6_3 C 0.4676(5) 0.6812(7) 0.7643(7)
H2_3 H 0.4710 0.7021 0.8175
C7_3 C 0.4090(5) 0.6900(7) 0.7206(7)
H3_3 H 0.3730 0.7157 0.7439
C8_3 C 0.5840(5) 0.6318(6) 0.7827(7)
C9_3 C 0.5710(8) 0.5682(10) 0.6153(10)
H4_3 H 0.5964 0.6009 0.5793
H5_3 H 0.5543 0.5256 0.5838
H6_3 H 0.5990 0.5499 0.6596
C10_3 C 0.0847(5) 0.7028(5) 0.6769(7)
C11_3 C 0.0205(4) 0.7032(5) 0.7270(6)
C12_3 C 0.0220(5) 0.7042(6) 0.8131(7)
C18_3 C 0.0753(9) 0.7278(11) 0.8696(12)
H10_3 H 0.1111 0.7496 0.8378
H11_3 H 0.0913 0.6843 0.8999
H12_3 H 0.0585 0.7651 0.9081
C19_3 C 0.2484(4) 0.4689(5) 0.3489(6)
H13_3 H 0.2155 0.4960 0.3208
C20_3 C 0.2488(4) 0.3905(5) 0.3443(6)
H14_3 H 0.2172 0.3658 0.3114
C21_3 C 0.2957(4) 0.3473(4) 0.3881(8)
C22_3 C 0.3434(5) 0.3857(5) 0.4319(6)
H15_3 H 0.3772 0.3595 0.4594
C23_3 C 0.3403(5) 0.4651(5) 0.4344(6)
H16_3 H 0.3718 0.4907 0.4665
C24_3 C 0.2992(4) 0.2640(4) 0.3850(7)
C25_3 C 0.2830(5) 0.1292(5) 0.3545(6)
C26_3 C 0.3337(5) 0.1492(5) 0.4087(6)
C27_3 C 0.3146(4) 0.0144(4) 0.3847(7)
C33_3 C 0.2374(4) 0.5276(4) 0.6267(5)
H21_3 H 0.2645 0.5556 0.6624
C34_3 C 0.2441(4) 0.4504(5) 0.6259(5)
H22_3 H 0.2765 0.4270 0.6587
C35_3 C 0.2036(4) 0.4077(5) 0.5772(7)
C36_3 C 0.1588(4) 0.4453(4) 0.5244(5)
H23_3 H 0.1319 0.4177 0.4880
C37_3 C 0.1549(4) 0.5253(4) 0.5270(5)
H24_3 H 0.1249 0.5507 0.4925
C38_3 C 0.2077(4) 0.3232(4) 0.5727(6)
C39_3 C 0.2334(4) 0.1902(4) 0.5905(6)
C40_3 C 0.1786(5) 0.2068(5) 0.5410(6)
C41_3 C 0.2049(5) 0.0732(5) 0.5648(6)
Cd4 Cd 0.69292(2) 0.63821(3) 0.88859(3)
O9_2 O 0.3591(3) 0.6372(4) 0.2499(5)
O10_2 O 0.4228(3) 0.6257(5) 0.3632(5)
O11_2 O 0.1642(5) 0.6965(4) 0.4426(4)
O12_2 O 0.2077(4) 0.6427(4) 0.3256(6)
N9 N 0.3115(4) 0.7726(4) 0.3841(7)
N10 N 0.2041(4) 0.8306(4) 0.5655(5)
C28_3 C 0.3162(4) 0.9303(4) 0.3837(7)
C29_3 C 0.2728(6) 0.8921(5) 0.3298(6)
H17_3 H 0.2446 0.9183 0.2938
C30_3 C 0.2739(6) 0.8111(5) 0.3330(7)
H18_3 H 0.2464 0.7842 0.2966
C31_3 C 0.3512(5) 0.8116(5) 0.4318(7)
H19_3 H 0.3790 0.7840 0.4671
C32_3 C 0.3562(5) 0.8905(4) 0.4352(6)
H20_3 H 0.3857 0.9147 0.4713
C42_3 C 0.2035(5) 0.9897(5) 0.5641(6)
C43_3 C 0.2515(5) 0.9508(4) 0.6061(6)
H25_3 H 0.2848 0.9764 0.6352
C44_3 C 0.2494(5) 0.8709(4) 0.6043(6)
H26_3 H 0.2827 0.8446 0.6327
C45_3 C 0.1564(5) 0.8690(5) 0.5207(7)
H27_3 H 0.1239 0.8417 0.4919
C46_3 C 0.1562(5) 0.9482(5) 0.5181(7)
H28_3 H 0.1247 0.9738 0.4860
Cd7_2 Cd 0.80802(2) 0.69891(3) 0.08078(3)
O7_2 O 0.8358(5) 0.6965(4) 0.9426(4)
O8_2 O 0.7923(4) 0.6427(4) 0.8256(6)
C13_3 C 0.9601(6) 0.7002(6) 0.8594(7)
H7_3 H 0.9607 0.7069 0.9170
C14_3 C 0.9028(5) 0.6872(5) 0.8212(6)
C15_3 C 0.9031(4) 0.6923(5) 0.7366(6)
H8_3 H 0.8627 0.6916 0.7081
C16_3 C 0.9615(4) 0.6984(5) 0.6914(6)
H9_3 H 0.9590 0.6993 0.6334
C17_3 C 0.8386(5) 0.6739(5) 0.8678(6)
C13_4 C 0.0399(6) 0.7002(6) 0.3594(7)
H7_4 H 0.0393 0.7069 0.4170
C14_4 C 0.0972(5) 0.6872(5) 0.3212(6)
C15_4 C 0.0969(4) 0.6923(5) 0.2366(6)
H8_4 H 0.1373 0.6916 0.2081
C16_4 C 0.0385(4) 0.6984(5) 0.1914(6)
H9_4 H 0.0410 0.6993 0.1334
C17_4 C 0.1614(5) 0.6739(5) 0.3678(6)
S3_4 S 0.72916(12) 0.27274(11) 0.12463(16)
S4_4 S 0.85740(13) 0.12500(11) 0.00740(17)
O1_4 O 0.6627(4) 0.6397(4) 0.0222(5)
O2_4 O 0.7046(3) 0.7020(3) 0.1320(4)
O3_4 O 0.8619(3) 0.6930(4) 0.2101(5)
O4_4 O 0.9202(3) 0.7162(6) 0.1024(6)
N2_4 N 0.8059(3) 0.5654(4) 0.0791(6)
N7_4 N 0.8343(4) 0.2815(4) 0.0298(5)
N8_4 N 0.7517(4) 0.1136(4) 0.1026(5)
C1_4 C 0.6584(4) 0.6679(5) 0.0929(6)
C2_4 C 0.5947(4) 0.6592(5) 0.1402(5)
C3_4 C 0.5421(5) 0.6209(7) 0.1054(7)
H1_4 H 0.5458 0.6021 0.0513
C4_4 C 0.4831(5) 0.6096(7) 0.1496(7)
C5_4 C 0.4759(4) 0.6402(5) 0.2297(6)
C6_4 C 0.5324(5) 0.6812(7) 0.2643(7)
H2_4 H 0.5290 0.7021 0.3175
C7_4 C 0.5910(5) 0.6900(7) 0.2206(7)
H3_4 H 0.6270 0.7157 0.2439
C8_4 C 0.4160(5) 0.6318(6) 0.2827(7)
C9_4 C 0.4290(8) 0.5682(10) 0.1153(10)
H4_4 H 0.4036 0.6009 0.0793
H5_4 H 0.4457 0.5256 0.0838
H6_4 H 0.4010 0.5499 0.1596
C10_4 C 0.9153(5) 0.7028(5) 0.1769(7)
C11_4 C 0.9795(4) 0.7032(5) 0.2270(6)
C12_4 C 0.9780(5) 0.7042(6) 0.3131(7)
C18_4 C 0.9247(9) 0.7278(11) 0.3696(12)
H10_4 H 0.8889 0.7496 0.3378
H11_4 H 0.9087 0.6843 0.3999
H12_4 H 0.9415 0.7651 0.4081
C33_4 C 0.7626(4) 0.5276(4) 0.1267(5)
H21_4 H 0.7355 0.5556 0.1624
C34_4 C 0.7559(4) 0.4504(5) 0.1259(5)
H22_4 H 0.7235 0.4270 0.1587
C35_4 C 0.7964(4) 0.4077(5) 0.0772(7)
C36_4 C 0.8412(4) 0.4453(4) 0.0244(5)
C37_4 C 0.8451(4) 0.5253(4) 0.0270(5)
C38_4 C 0.7923(4) 0.3232(4) 0.0727(6)
C39_4 C 0.7666(4) 0.1902(4) 0.0905(6)
C40_4 C 0.8214(5) 0.2068(5) 0.0410(6)
C41_4 C 0.7951(5) 0.0732(5) 0.0648(6)
N10_2 N 0.7959(4) 0.8306(4) 0.0655(5)
S1_4 S 0.75626(12) 0.21154(11) 0.82242(15)
S2_4 S 0.62953(13) 0.06635(12) 0.94477(17)
N1_4 N 0.7056(3) 0.5075(4) 0.8930(6)
N5_4 N 0.6559(4) 0.2253(4) 0.9253(5)
N6_4 N 0.7300(4) 0.0557(4) 0.8414(5)
C19_4 C 0.7516(4) 0.4689(5) 0.8489(6)
H13_4 H 0.7845 0.4960 0.8208
C20_4 C 0.7512(4) 0.3905(5) 0.8443(6)
H14_4 H 0.7828 0.3658 0.8114
C21_4 C 0.7043(4) 0.3473(4) 0.8881(8)
C22_4 C 0.6566(5) 0.3857(5) 0.9319(6)
H15_4 H 0.6228 0.3595 0.9594
C23_4 C 0.6597(5) 0.4651(5) 0.9344(6)
H16_4 H 0.6282 0.4907 0.9665
C24_4 C 0.7008(4) 0.2640(4) 0.8850(7)
C25_4 C 0.7170(5) 0.1292(5) 0.8545(6)
C26_4 C 0.6663(5) 0.1492(5) 0.9087(6)
C27_4 C 0.6854(4) 0.0144(4) 0.8847(7)
H23_4 H 0.8681 0.4177 0.9880
H24_4 H 0.8751 0.5507 0.9925
N9_2 N 0.6885(4) 0.7726(4) 0.8841(7)
C42_4 C 0.7965(5) 0.9897(5) 0.0641(6)
C43_4 C 0.7485(5) 0.9508(4) 0.1061(6)
H25_4 H 0.7152 0.9764 0.1352
C44_4 C 0.7506(5) 0.8709(4) 0.1043(6)
H26_4 H 0.7173 0.8446 0.1327
C45_4 C 0.8436(5) 0.8690(5) 0.0207(7)
C46_4 C 0.8438(5) 0.9482(5) 0.0181(7)
C28_4 C 0.6838(4) 0.9303(4) 0.8837(7)
C29_4 C 0.7272(6) 0.8921(5) 0.8298(6)
H17_4 H 0.7554 0.9183 0.7938
C30_4 C 0.7261(6) 0.8111(5) 0.8330(7)
H18_4 H 0.7536 0.7842 0.7966
C31_4 C 0.6488(5) 0.8116(5) 0.9318(7)
H19_4 H 0.6210 0.7840 0.9671
C32_4 C 0.6438(5) 0.8905(4) 0.9352(6)
H20_4 H 0.6143 0.9147 0.9713
H27_4 H 0.8761 0.8417 0.9919
H28_4 H 0.8753 0.9738 0.9860
loop_
_geom_bond_atom_site_label_1
_geom_bond_atom_site_label_2
_geom_bond_site_symmetry_1
_geom_bond_site_symmetry_2
O7 C17 1_555 1_555
O8 C17 1_555 1_555
H7 C13 1_555 1_555
C14 C13 1_555 1_555
C15 C14 1_555 1_555
H8 C15 1_555 1_555
H9 C16 1_555 1_555
C17 C14 1_555 1_555
Cd5 O8 1_555 1_555
C15 C16 1_555 1_555
N3 C30 1_555 1_555
N4 C44 1_555 1_555
C29 C28 1_555 1_555
H17 C29 1_555 1_555
C30 C29 1_555 1_555
H18 C30 1_555 1_555
C31 N3 1_555 1_555
H19 C31 1_555 1_555
C32 C28 1_555 1_555
H20 C32 1_555 1_555
C43 C42 1_555 1_555
H25 C43 1_555 1_555
C44 C43 1_555 1_555
H26 C44 1_555 1_555
C45 N4 1_555 1_555
H27 C45 1_555 1_555
C46 C42 1_555 1_555
H28 C46 1_555 1_555
Cd3 N3 1_555 1_555
Cd6 N4 1_555 1_555
C31 C32 1_555 1_555
C45 C46 1_555 1_555
Cd3 O1 1_555 1_555
Cd6 O2 1_555 1_555
S1 C24 1_555 1_555
S2 C26 1_555 1_555
S3 C38 1_555 1_555
S4 C40 1_555 1_555
O1 C1 1_555 1_555
O2 C1 1_555 1_555
O3 Cd6 1_555 1_555
O4 Cd6 1_555 1_555
O5 C8 1_555 1_555
O6 C8 1_555 1_555
N1 Cd3 1_555 1_555
N2 Cd6 1_555 1_555
N5 C24 1_555 1_555
N6 C25 1_555 1_555
N7 C38 1_555 1_555
N8 C39 1_555 1_555
C1 C2 1_555 1_555
C2 C3 1_555 1_555
C3 H1 1_555 1_555
C4 C3 1_555 1_555
C5 C4 1_555 1_555
C6 C5 1_555 1_555
H2 C6 1_555 1_555
C7 C2 1_555 1_555
H3 C7 1_555 1_555
C8 C5 1_555 1_555
C9 C4 1_555 1_555
H4 C9 1_555 1_555
H5 C9 1_555 1_555
H6 C9 1_555 1_555
C10 O3 1_555 1_555
C11 C10 1_555 1_555
C12 C11 1_555 1_555
C18 C12 1_555 1_555
H10 C18 1_555 1_555
H11 C18 1_555 1_555
H12 C18 1_555 1_555
C19 N1 1_555 1_555
H13 C19 1_555 1_555
C20 C19 1_555 1_555
H14 C20 1_555 1_555
C21 C20 1_555 1_555
C22 C21 1_555 1_555
H15 C22 1_555 1_555
C23 N1 1_555 1_555
H16 C23 1_555 1_555
C24 C21 1_555 1_555
C25 S1 1_555 1_555
C26 N5 1_555 1_555
C27 S2 1_555 1_555
C33 N2 1_555 1_555
H21 C33 1_555 1_555
C34 C33 1_555 1_555
H22 C34 1_555 1_555
C35 C34 1_555 1_555
C36 C35 1_555 1_555
H23 C36 1_555 1_555
C37 N2 1_555 1_555
H24 C37 1_555 1_555
C38 C35 1_555 1_555
C39 S3 1_555 1_555
C40 N7 1_555 1_555
C41 S4 1_555 1_555
Cd5 O5 1_555 1_555
O9 Cd3 1_555 1_555
O10 Cd3 1_555 1_555
O11 Cd6 1_555 1_555
O12 Cd3 1_555 1_555
O4 C10 1_555 1_555
O6 Cd5 1_555 1_555
N6 C27 1_555 1_555
N8 C41 1_555 1_555
C6 C7 1_555 1_555
C22 C23 1_555 1_555
C25 C26 1_555 1_555
C36 C37 1_555 1_555
C39 C40 1_555 1_555
N4_2 C44_2 1_555 1_555
C43_2 C42_2 1_555 1_555
H25_2 C43_2 1_555 1_555
C44_2 C43_2 1_555 1_555
H26_2 C44_2 1_555 1_555
C45_2 N4_2 1_555 1_555
C46_2 C42_2 1_555 1_555
Cd7 N4_2 1_555 1_555
C45_2 C46_2 1_555 1_555
N3_2 C30_2 1_555 1_555
C29_2 C28_2 1_555 1_555
H17_2 C29_2 1_555 1_555
C30_2 C29_2 1_555 1_555
H18_2 C30_2 1_555 1_555
C31_2 N3_2 1_555 1_555
H19_2 C31_2 1_555 1_555
C32_2 C28_2 1_555 1_555
H20_2 C32_2 1_555 1_555
Cd5 N3_2 1_555 1_555
C31_2 C32_2 1_555 1_555
Cd7 O2_2 1_555 1_555
S3_2 C38_2 1_555 1_555
S4_2 C40_2 1_555 1_555
O1_2 C1_2 1_555 1_555
O2_2 C1_2 1_555 1_555
O3_2 Cd7 1_555 1_555
O4_2 Cd7 1_555 1_555
O9 C8_2 1_555 1_555
O10 C8_2 1_555 1_555
N2_2 Cd7 1_555 1_555
N7_2 C38_2 1_555 1_555
N8_2 C39_2 1_555 1_555
C1_2 C2_2 1_555 1_555
C2_2 C3_2 1_555 1_555
C3_2 H1_2 1_555 1_555
C4_2 C3_2 1_555 1_555
C5_2 C4_2 1_555 1_555
C6_2 C5_2 1_555 1_555
H2_2 C6_2 1_555 1_555
C7_2 C2_2 1_555 1_555
H3_2 C7_2 1_555 1_555
C8_2 C5_2 1_555 1_555
C9_2 C4_2 1_555 1_555
H4_2 C9_2 1_555 1_555
H5_2 C9_2 1_555 1_555
H6_2 C9_2 1_555 1_555
C10_2 O3_2 1_555 1_555
C11_2 C10_2 1_555 1_555
C12_2 C11_2 1_555 1_555
C18_2 C12_2 1_555 1_555
H10_2 C18_2 1_555 1_555
H11_2 C18_2 1_555 1_555
H12_2 C18_2 1_555 1_555
C33_2 N2_2 1_555 1_555
H21_2 C33_2 1_555 1_555
C34_2 C33_2 1_555 1_555
H22_2 C34_2 1_555 1_555
C35_2 C34_2 1_555 1_555
C36_2 C35_2 1_555 1_555
C37_2 N2_2 1_555 1_555
C38_2 C35_2 1_555 1_555
C39_2 S3_2 1_555 1_555
C40_2 N7_2 1_555 1_555
C41_2 S4_2 1_555 1_555
O4_2 C10_2 1_555 1_555
N8_2 C41_2 1_555 1_555
C6_2 C7_2 1_555 1_555
C36_2 C37_2 1_555 1_555
C39_2 C40_2 1_555 1_555
S1_2 C24_2 1_555 1_555
S2_2 C26_2 1_555 1_555
N1_2 Cd5 1_555 1_555
N5_2 C24_2 1_555 1_555
N6_2 C25_2 1_555 1_555
C19_2 N1_2 1_555 1_555
H13_2 C19_2 1_555 1_555
C20_2 C19_2 1_555 1_555
H14_2 C20_2 1_555 1_555
C21_2 C20_2 1_555 1_555
C22_2 C21_2 1_555 1_555
H15_2 C22_2 1_555 1_555
C23_2 N1_2 1_555 1_555
H16_2 C23_2 1_555 1_555
C24_2 C21_2 1_555 1_555
C25_2 S1_2 1_555 1_555
C26_2 N5_2 1_555 1_555
C27_2 S2_2 1_555 1_555
N6_2 C27_2 1_555 1_555
C22_2 C23_2 1_555 1_555
C25_2 C26_2 1_555 1_555
O11 C17_2 1_555 1_555
O12 C17_2 1_555 1_555
H7_2 C13_2 1_555 1_555
C14_2 C13_2 1_555 1_555
C15_2 C14_2 1_555 1_555
H8_2 C15_2 1_555 1_555
H9_2 C16_2 1_555 1_555
C17_2 C14_2 1_555 1_555
C15_2 C16_2 1_555 1_555
Cd1 O1_3 1_555 1_555
Cd2 O2_3 1_555 1_555
S1_3 C24_3 1_555 1_555
S2_3 C26_3 1_555 1_555
S3_3 C38_3 1_555 1_555
S4_3 C40_3 1_555 1_555
O1_3 C1_3 1_555 1_555
O2_3 C1_3 1_555 1_555
O3_3 Cd2 1_555 1_555
O4_3 Cd2 1_555 1_555
O5_2 C8_3 1_555 1_555
O6_2 C8_3 1_555 1_555
N1_3 Cd1 1_555 1_555
N2_3 Cd2 1_555 1_555
N5_3 C24_3 1_555 1_555
N6_3 C25_3 1_555 1_555
N7_3 C38_3 1_555 1_555
N8_3 C39_3 1_555 1_555
C1_3 C2_3 1_555 1_555
C2_3 C3_3 1_555 1_555
C3_3 H1_3 1_555 1_555
C4_3 C3_3 1_555 1_555
C5_3 C4_3 1_555 1_555
C6_3 C5_3 1_555 1_555
H2_3 C6_3 1_555 1_555
C7_3 C2_3 1_555 1_555
H3_3 C7_3 1_555 1_555
C8_3 C5_3 1_555 1_555
C9_3 C4_3 1_555 1_555
H4_3 C9_3 1_555 1_555
H5_3 C9_3 1_555 1_555
H6_3 C9_3 1_555 1_555
C10_3 O3_3 1_555 1_555
C11_3 C10_3 1_555 1_555
C12_3 C11_3 1_555 1_555
C18_3 C12_3 1_555 1_555
H10_3 C18_3 1_555 1_555
H11_3 C18_3 1_555 1_555
H12_3 C18_3 1_555 1_555
C19_3 N1_3 1_555 1_555
H13_3 C19_3 1_555 1_555
C20_3 C19_3 1_555 1_555
H14_3 C20_3 1_555 1_555
C21_3 C20_3 1_555 1_555
C22_3 C21_3 1_555 1_555
H15_3 C22_3 1_555 1_555
C23_3 N1_3 1_555 1_555
H16_3 C23_3 1_555 1_555
C24_3 C21_3 1_555 1_555
C25_3 S1_3 1_555 1_555
C26_3 N5_3 1_555 1_555
C27_3 S2_3 1_555 1_555
C33_3 N2_3 1_555 1_555
H21_3 C33_3 1_555 1_555
C34_3 C33_3 1_555 1_555
H22_3 C34_3 1_555 1_555
C35_3 C34_3 1_555 1_555
C36_3 C35_3 1_555 1_555
H23_3 C36_3 1_555 1_555
C37_3 N2_3 1_555 1_555
H24_3 C37_3 1_555 1_555
C38_3 C35_3 1_555 1_555
C39_3 S3_3 1_555 1_555
C40_3 N7_3 1_555 1_555
C41_3 S4_3 1_555 1_555
Cd4 O5_2 1_555 1_555
O9_2 Cd1 1_555 1_555
O10_2 Cd1 1_555 1_555
O11_2 Cd2 1_555 1_555
O12_2 Cd1 1_555 1_555
N9 Cd1 1_555 1_555
N10 Cd2 1_555 1_555
O4_3 C10_3 1_555 1_555
O6_2 Cd4 1_555 1_555
N6_3 C27_3 1_555 1_555
N8_3 C41_3 1_555 1_555
C6_3 C7_3 1_555 1_555
C22_3 C23_3 1_555 1_555
C25_3 C26_3 1_555 1_555
C36_3 C37_3 1_555 1_555
C39_3 C40_3 1_555 1_555
N9 C30_3 1_555 1_555
N10 C44_3 1_555 1_555
C29_3 C28_3 1_555 1_555
H17_3 C29_3 1_555 1_555
C30_3 C29_3 1_555 1_555
H18_3 C30_3 1_555 1_555
C31_3 N9 1_555 1_555
H19_3 C31_3 1_555 1_555
C32_3 C28_3 1_555 1_555
H20_3 C32_3 1_555 1_555
C43_3 C42_3 1_555 1_555
H25_3 C43_3 1_555 1_555
C44_3 C43_3 1_555 1_555
H26_3 C44_3 1_555 1_555
C45_3 N10 1_555 1_555
H27_3 C45_3 1_555 1_555
C46_3 C42_3 1_555 1_555
H28_3 C46_3 1_555 1_555
C31_3 C32_3 1_555 1_555
C45_3 C46_3 1_555 1_555
O7_2 C17_3 1_555 1_555
O8_2 C17_3 1_555 1_555
H7_3 C13_3 1_555 1_555
C14_3 C13_3 1_555 1_555
C15_3 C14_3 1_555 1_555
H8_3 C15_3 1_555 1_555
H9_3 C16_3 1_555 1_555
C17_3 C14_3 1_555 1_555
Cd4 O8_2 1_555 1_555
C15_3 C16_3 1_555 1_555
O11_2 C17_4 1_555 1_555
O12_2 C17_4 1_555 1_555
H7_4 C13_4 1_555 1_555
C14_4 C13_4 1_555 1_555
C15_4 C14_4 1_555 1_555
H8_4 C15_4 1_555 1_555
H9_4 C16_4 1_555 1_555
C17_4 C14_4 1_555 1_555
C15_4 C16_4 1_555 1_555
Cd7_2 O2_4 1_555 1_555
S3_4 C38_4 1_555 1_555
S4_4 C40_4 1_555 1_555
O1_4 C1_4 1_555 1_555
O2_4 C1_4 1_555 1_555
O3_4 Cd7_2 1_555 1_555
O4_4 Cd7_2 1_555 1_555
O9_2 C8_4 1_555 1_555
O10_2 C8_4 1_555 1_555
N2_4 Cd7_2 1_555 1_555
N7_4 C38_4 1_555 1_555
N8_4 C39_4 1_555 1_555
C1_4 C2_4 1_555 1_555
C2_4 C3_4 1_555 1_555
C3_4 H1_4 1_555 1_555
C4_4 C3_4 1_555 1_555
C5_4 C4_4 1_555 1_555
C6_4 C5_4 1_555 1_555
H2_4 C6_4 1_555 1_555
C7_4 C2_4 1_555 1_555
H3_4 C7_4 1_555 1_555
C8_4 C5_4 1_555 1_555
C9_4 C4_4 1_555 1_555
H4_4 C9_4 1_555 1_555
H5_4 C9_4 1_555 1_555
H6_4 C9_4 1_555 1_555
C10_4 O3_4 1_555 1_555
C11_4 C10_4 1_555 1_555
C12_4 C11_4 1_555 1_555
C18_4 C12_4 1_555 1_555
H10_4 C18_4 1_555 1_555
H11_4 C18_4 1_555 1_555
H12_4 C18_4 1_555 1_555
C33_4 N2_4 1_555 1_555
H21_4 C33_4 1_555 1_555
C34_4 C33_4 1_555 1_555
H22_4 C34_4 1_555 1_555
C35_4 C34_4 1_555 1_555
C36_4 C35_4 1_555 1_555
C37_4 N2_4 1_555 1_555
C38_4 C35_4 1_555 1_555
C39_4 S3_4 1_555 1_555
C40_4 N7_4 1_555 1_555
C41_4 S4_4 1_555 1_555
N10_2 Cd7_2 1_555 1_555
O4_4 C10_4 1_555 1_555
N8_4 C41_4 1_555 1_555
C6_4 C7_4 1_555 1_555
C36_4 C37_4 1_555 1_555
C39_4 C40_4 1_555 1_555
S1_4 C24_4 1_555 1_555
S2_4 C26_4 1_555 1_555
N1_4 Cd4 1_555 1_555
N5_4 C24_4 1_555 1_555
N6_4 C25_4 1_555 1_555
C19_4 N1_4 1_555 1_555
H13_4 C19_4 1_555 1_555
C20_4 C19_4 1_555 1_555
H14_4 C20_4 1_555 1_555
C21_4 C20_4 1_555 1_555
C22_4 C21_4 1_555 1_555
H15_4 C22_4 1_555 1_555
C23_4 N1_4 1_555 1_555
H16_4 C23_4 1_555 1_555
C24_4 C21_4 1_555 1_555
C25_4 S1_4 1_555 1_555
C26_4 N5_4 1_555 1_555
C27_4 S2_4 1_555 1_555
N9_2 Cd4 1_555 1_555
N6_4 C27_4 1_555 1_555
C22_4 C23_4 1_555 1_555
C25_4 C26_4 1_555 1_555
N10_2 C44_4 1_555 1_555
C43_4 C42_4 1_555 1_555
H25_4 C43_4 1_555 1_555
C44_4 C43_4 1_555 1_555
H26_4 C44_4 1_555 1_555
C45_4 N10_2 1_555 1_555
C46_4 C42_4 1_555 1_555
C45_4 C46_4 1_555 1_555
N9_2 C30_4 1_555 1_555
C29_4 C28_4 1_555 1_555
H17_4 C29_4 1_555 1_555
C30_4 C29_4 1_555 1_555
H18_4 C30_4 1_555 1_555
C31_4 N9_2 1_555 1_555
H19_4 C31_4 1_555 1_555
C32_4 C28_4 1_555 1_555
H20_4 C32_4 1_555 1_555
C31_4 C32_4 1_555 1_555

#END
