
###############################################################################
#
# This file contains modified crystal structure data generated from the
# MOF subset of the Cambridge Structural Database (CSD) v543 
# hosted by the Cambridge Crystallographic Data Centre (CCDC).
#
# This work is licensed under the Creative Commons
# Attribution-NonCommercial-ShareAlike 4.0 International License.
# To view a copy of this license, visit
# http://creativecommons.org/licenses/by-nc-sa/4.0/
# or send a letter to
# Creative Commons, PO Box 1866, Mountain View, CA 94042, USA.
#
# CIF created using the CSD Python API on 29 September 2022
# The structure has been converted into the P1 space group
# The structure has a 3D framework
# The original CSD entry SOGWIV is in the monoclinic crystal system
# The framework has been calculated to contain at least 10.0% void space
# The void calculation uses a probe of radius 1.32A, grid spacing 0.4
# The framework is charged, counterions have been retained in the structure
# Generated hydrogen atom positions removed from atoms on special positions
#
###############################################################################

data_SOGWIV
_chemical_formula_moiety         '(C16 H32 Cd4 O41 2-)n'
_symmetry_cell_setting           triclinic
_symmetry_space_group_name_H-M   'P 1'
_symmetry_Int_Tables_number      1
_space_group_name_Hall           'P 1'
loop_
_symmetry_equiv_pos_site_id
_symmetry_equiv_pos_as_xyz
1 x,y,z
_cell_length_a                   9.6172(5)
_cell_length_b                   11.7826(6)
_cell_length_c                   12.2734(6)
_cell_angle_alpha                90
_cell_angle_beta                 99.2950(10)
_cell_angle_gamma                90
_cell_volume                     1372.51
loop_
_atom_site_label
_atom_site_type_symbol
_atom_site_fract_x
_atom_site_fract_y
_atom_site_fract_z
C8 C 0.0632(7) 0.0007(5) 0.0471(5)
O16 O 0.0355(5) 0.0159(4) 0.1428(4)
O20 O 0.5813(5) 0.1188(4) 0.0673(4)
Cd5 Cd 0.78663(3) 0.01752(3) 0.17059(2)
C1 C 0.2003(6) 0.2515(5) 0.7824(5)
C2 C 0.2996(6) 0.2087(5) 0.7047(5)
O1 O 0.3131(5) 0.1035(4) 0.6966(4)
O2 O 0.3611(5) 0.2828(4) 0.6564(4)
O3 O 0.1943(5) 0.3562(4) 0.7969(4)
O4 O 0.1319(5) 0.1790(4) 0.8262(3)
H2 H 0.0070 0.0350 0.6261
C7 C 0.4942(6) 0.0656(5) 0.9988(5)
O22 O 0.3998(5) 0.1077(4) 0.9312(4)
Cd3 Cd 0.28663(3) 0.48248(3) 0.67059(2)
C3 C 0.5058(6) 0.9344(5) 0.0012(5)
O8 O 0.6002(5) 0.8923(4) 0.0688(4)
O18 O 0.1828(5) 0.9870(4) 0.0231(4)
O7 O 0.4187(5) 0.8812(4) 0.9327(4)
O9 O 0.0433(5) 0.9749(4) 0.6520(4)
H1 H 0.0540 0.9320 0.6004
Cd1 Cd 0.21337(3) 0.98248(3) 0.82941(2)
C5 C 0.2997(6) 0.7515(5) 0.7176(5)
C6 C 0.2004(6) 0.7087(5) 0.7953(5)
O10 O 0.1869(5) 0.6035(4) 0.8034(4)
O11 O 0.1389(5) 0.7828(4) 0.8436(4)
O13 O 0.3057(5) 0.8562(4) 0.7031(4)
O15 O 0.3681(5) 0.6790(4) 0.6738(3)
O17 O 0.5355(5) 0.4841(4) 0.6428(4)
O19 O 0.3172(5) 0.4870(4) 0.4769(4)
O21 O 0.0813(5) 0.3812(4) 0.5673(4)
O23 O 0.1002(5) 0.6077(4) 0.5688(4)
O24 O 0.4567(5) 0.4749(4) 0.8480(4)
H3 H 0.4460 0.4320 0.8996
H4 H 0.4930 0.5350 0.8739
O6 O 0.8172(5) 0.0130(4) 0.9769(4)
C4 C 0.9368(7) 0.9993(5) 0.9529(5)
O5 O 0.9645(5) 0.9841(4) 0.8572(4)
C4_2 C 0.5632(7) 0.4993(5) 0.5471(5)
O6_2 O 0.6828(5) 0.5130(4) 0.5231(4)
C7_2 C 0.0058(6) 0.5656(5) 0.5012(5)
C8_2 C 0.4368(7) 0.5007(5) 0.4529(5)
O16_2 O 0.4645(5) 0.5159(4) 0.3572(4)
Cd4 Cd 0.71337(3) 0.51752(3) 0.32941(2)
C3_2 C 0.9942(6) 0.4344(5) 0.4988(5)
O8_2 O 0.8998(5) 0.3923(4) 0.4312(4)
O20_2 O 0.9187(5) 0.6188(4) 0.4327(4)
O9_2 O 0.9567(5) 0.0251(4) 0.3480(4)
H1_2 H 0.9460 0.0680 0.3996
C5_2 C 0.7003(6) 0.2485(5) 0.2824(5)
C6_2 C 0.7996(6) 0.2913(5) 0.2047(5)
O10_2 O 0.8131(5) 0.3965(4) 0.1966(4)
O11_2 O 0.8611(5) 0.2172(4) 0.1564(4)
O12 O 0.6389(5) 0.7172(4) 0.3436(4)
O13_2 O 0.6943(5) 0.1438(4) 0.2969(4)
O14 O 0.8057(5) 0.6438(4) 0.2031(4)
O15_2 O 0.6319(5) 0.3210(4) 0.3262(3)
O24_2 O 0.5433(5) 0.5251(4) 0.1520(4)
H3_2 H 0.5540 0.5680 0.1004
H4_2 H 0.5070 0.4650 0.1261
C1_2 C 0.7997(6) 0.7485(5) 0.2176(5)
C2_2 C 0.7004(6) 0.7913(5) 0.2953(5)
O1_2 O 0.6869(5) 0.8965(4) 0.3034(4)
O4_2 O 0.8681(5) 0.8210(4) 0.1738(3)
H2_2 H 0.9930 0.9650 0.3739
H6 H 0.8958 0.7634 0.0179
O25 O 0.9135(8) 0.7191(5) 0.9692(5)
H5 H 0.9944 0.6947 0.9941
H7 H 0.9266 0.7639 0.9195
O25_2 O 0.5865(8) 0.2191(5) 0.5308(5)
O25_3 O 0.0865(8) 0.2809(5) 0.0308(5)
H5_2 H 0.0056 0.3053 0.0059
H7_2 H 0.0734 0.2361 0.0805
H6_2 H 0.1042 0.2366 0.9821
O25_4 O 0.4135(8) 0.7809(5) 0.4692(5)
O26 O 0.3299(9) 0.0036(5) 0.4914(5)
H8 H 0.3541 0.0354 0.5512
H9 H 0.3857 0.0245 0.4509
H10 H 0.3551 0.9381 0.5103
O26_2 O 0.1701(9) 0.5036(5) 0.0086(5)
H9_2 H 0.1143 0.5245 0.0491
H8_2 H 0.1459 0.5354 0.9488
H10_2 H 0.1449 0.4381 0.9897
H10_3 H 0.6449 0.0619 0.4897
O26_3 O 0.6701(9) 0.9964(5) 0.5086(5)
H8_3 H 0.6459 0.9646 0.4488
H9_3 H 0.6143 0.9755 0.5491
H8_4 H 0.8541 0.4646 0.0512
H10_4 H 0.8551 0.5619 0.0103
O26_4 O 0.8299(9) 0.4964(5) 0.9914(5)
H9_4 H 0.8857 0.4755 0.9509
loop_
_geom_bond_atom_site_label_1
_geom_bond_atom_site_label_2
_geom_bond_site_symmetry_1
_geom_bond_site_symmetry_2
O16 C8 1_555 1_555
O20 Cd5 1_555 1_555
C1 C2 1_555 1_555
C2 O1 1_555 1_555
O2 C2 1_555 1_555
O3 C1 1_555 1_555
O4 C1 1_555 1_555
Cd3 O2 1_555 1_555
O3 Cd3 1_555 1_555
C7 O22 1_555 1_555
O8 C3 1_555 1_555
O7 Cd1 1_555 1_555
O9 H1 1_555 1_555
C5 C6 1_555 1_555
C6 O10 1_555 1_555
O10 Cd3 1_555 1_555
O11 Cd1 1_555 1_555
O13 Cd1 1_555 1_555
O15 C5 1_555 1_555
O17 Cd3 1_555 1_555
O19 Cd3 1_555 1_555
O21 Cd3 1_555 1_555
O23 Cd3 1_555 1_555
O24 H3 1_555 1_555
H4 O24 1_555 1_555
Cd3 O15 1_555 1_555
O9 Cd1 1_555 1_555
C5 O13 1_555 1_555
C6 O11 1_555 1_555
O24 Cd3 1_555 1_555
C4 O5 1_555 1_555
C4_2 O17 1_555 1_555
O6_2 C4_2 1_555 1_555
C8_2 C4_2 1_555 1_555
O16_2 C8_2 1_555 1_555
Cd4 O6_2 1_555 1_555
C7_2 O23 1_555 1_555
C8_2 O19 1_555 1_555
O16_2 Cd4 1_555 1_555
O8_2 C3_2 1_555 1_555
Cd4 O8_2 1_555 1_555
O20_2 Cd4 1_555 1_555
O9_2 H1_2 1_555 1_555
C5_2 C6_2 1_555 1_555
C6_2 O10_2 1_555 1_555
O10_2 Cd4 1_555 1_555
O11_2 Cd5 1_555 1_555
O12 Cd4 1_555 1_555
O13_2 Cd5 1_555 1_555
O14 Cd4 1_555 1_555
O15_2 C5_2 1_555 1_555
O24_2 H3_2 1_555 1_555
H4_2 O24_2 1_555 1_555
Cd4 O15_2 1_555 1_555
O9_2 Cd5 1_555 1_555
C5_2 O13_2 1_555 1_555
C6_2 O11_2 1_555 1_555
O24_2 Cd4 1_555 1_555
C1_2 C2_2 1_555 1_555
C2_2 O1_2 1_555 1_555
O12 C2_2 1_555 1_555
O14 C1_2 1_555 1_555
O4_2 C1_2 1_555 1_555
O25 H5 1_555 1_555
H7 O25 1_555 1_555
O25_3 H5_2 1_555 1_555
H7_2 O25_3 1_555 1_555
O26 H8 1_555 1_555
H9 O26 1_555 1_555
H9_2 O26_2 1_555 1_555
O26_3 H8_3 1_555 1_555
H9_3 O26_3 1_555 1_555
H9_4 O26_4 1_555 1_555

#END
