
###############################################################################
#
# This file contains modified crystal structure data generated from the
# MOF subset of the Cambridge Structural Database (CSD) v543 
# hosted by the Cambridge Crystallographic Data Centre (CCDC).
#
# This work is licensed under the Creative Commons
# Attribution-NonCommercial-ShareAlike 4.0 International License.
# To view a copy of this license, visit
# http://creativecommons.org/licenses/by-nc-sa/4.0/
# or send a letter to
# Creative Commons, PO Box 1866, Mountain View, CA 94042, USA.
#
# CIF created using the CSD Python API on 29 September 2022
# The structure has been converted into the P1 space group
# The structure has a 3D framework
# The original CSD entry SOHGUS is in the monoclinic crystal system
# The framework has been calculated to contain at least 10.0% void space
# The void calculation uses a probe of radius 1.32A, grid spacing 0.4
#
###############################################################################

data_SOHGUS
_chemical_formula_moiety         '(C96 H64 Co8 N32)n'
_symmetry_cell_setting           triclinic
_symmetry_space_group_name_H-M   'P 1'
_symmetry_Int_Tables_number      1
_space_group_name_Hall           'P 1'
loop_
_symmetry_equiv_pos_site_id
_symmetry_equiv_pos_as_xyz
1 x,y,z
_cell_length_a                   13.327(3)
_cell_length_b                   14.151(3)
_cell_length_c                   26.532(6)
_cell_angle_alpha                90
_cell_angle_beta                 101.512(7)
_cell_angle_gamma                90
_cell_volume                     4903.02
loop_
_atom_site_label
_atom_site_type_symbol
_atom_site_fract_x
_atom_site_fract_y
_atom_site_fract_z
N5 N 0.0054(7) 0.3168(6) 0.6799(4)
N7 N 0.0075(7) 0.2961(6) 0.2982(4)
N8 N 0.0302(7) 0.2043(6) 0.3040(4)
C13 C 0.0159(8) 0.3512(8) 0.6316(5)
H9 H 0.0248 0.4157 0.6237
C14 C 0.0113(9) 0.2764(8) 0.5970(5)
C16 C 0.0186(9) 0.2773(9) 0.5411(5)
C17 C 0.0512(10) 0.1968(9) 0.5212(6)
H11 H 0.0713 0.1437 0.5427
C18 C 0.0553(10) 0.1924(9) 0.4681(5)
H12 H 0.0757 0.1354 0.4541
C19 C 0.0304(9) 0.2680(9) 0.4375(5)
C22 C 0.0064(11) 0.3346(9) 0.3437(6)
C23 C 0.0290(9) 0.2614(8) 0.3816(5)
C24 C 0.0474(10) 0.1837(8) 0.3538(5)
H16 H 0.0693 0.1239 0.3681
Co6 Co 0.01055(12) 0.38648(11) 0.74393(6)
Co7 Co 0.01055(12) 0.11352(11) 0.24393(6)
N9 N 0.1008(8) 0.0540(7) 0.7294(4)
N12 N 0.0075(7) 0.2039(6) 0.7982(4)
N10 N 0.1116(7) 0.9637(7) 0.7518(4)
Co1 Co 0.98294(12) 0.13325(11) 0.73093(6)
N1 N 0.8567(8) 0.0556(7) 0.7286(4)
N6 N 0.9899(8) 0.2237(7) 0.6759(4)
C1 C 0.7572(8) 0.0827(8) 0.7195(5)
H1 H 0.7302 0.1407 0.7045
C2 C 0.7007(8) 0.0080(8) 0.7365(5)
C4 C 0.1921(9) 0.0773(8) 0.7212(5)
H3 H 0.2062 0.1348 0.7055
C5 C 0.2680(9) 0.0061(8) 0.7388(5)
C7 C 0.3755(9) 0.0065(8) 0.7353(5)
C8 C 0.4212(10) 0.0820(9) 0.7145(6)
H5 H 0.3814 0.1353 0.7010
C9 C 0.5244(9) 0.0789(9) 0.7135(5)
H6 H 0.5531 0.1291 0.6972
C10 C 0.5872(9) 0.0068(8) 0.7347(5)
C15 C 0.9928(9) 0.1996(9) 0.6246(5)
H10 H 0.9830 0.1374 0.6110
C20 C 0.9999(10) 0.3523(9) 0.4589(5)
H13 H 0.9844 0.4067 0.4379
C21 C 0.9922(10) 0.3562(9) 0.5109(6)
H14 H 0.9693 0.4121 0.5249
H15 H 0.9930 0.3990 0.3501
Co4 Co 0.98294(12) 0.36675(11) 0.23093(6)
Co2 Co 0.98945(12) 0.88648(11) 0.75607(6)
N2 N 0.8663(7) 0.9686(6) 0.7489(4)
C3 C 0.7724(9) 0.9405(7) 0.7536(5)
H2 H 0.7578 0.8811 0.7672
C6 C 0.2087(9) 0.9366(7) 0.7565(5)
H4 H 0.2345 0.8774 0.7702
C11 C 0.5430(8) 0.9326(8) 0.7573(5)
H7 H 0.5850 0.8826 0.7735
C12 C 0.4396(10) 0.9309(9) 0.7564(6)
H8 H 0.4107 0.8779 0.7703
N11 N 0.9946(7) 0.8168(6) 0.8201(4)
N13 N 0.9698(7) 0.7957(6) 0.6960(4)
Co3 Co 0.01706(12) 0.63325(11) 0.76907(6)
C20_2 C 0.0001(10) 0.8523(9) 0.0411(5)
H13_2 H 0.0156 0.9067 0.0621
H15_2 H 0.0070 0.8990 0.1499
Co4_2 Co 0.01706(12) 0.86675(11) 0.26907(6)
N1_2 N 0.1433(8) 0.5556(7) 0.7714(4)
N2_2 N 0.1337(7) 0.4686(6) 0.7511(4)
N3 N 0.8992(8) 0.5540(7) 0.7706(4)
N4 N 0.8884(7) 0.4637(7) 0.7482(4)
N6_2 N 0.0101(8) 0.7237(7) 0.8241(4)
C1_2 C 0.2428(8) 0.5827(8) 0.7805(5)
H1_2 H 0.2698 0.6407 0.7955
C2_2 C 0.2993(8) 0.5080(8) 0.7635(5)
C3_2 C 0.2276(9) 0.4405(7) 0.7464(5)
H2_2 H 0.2422 0.3811 0.7328
C4_2 C 0.8079(9) 0.5773(8) 0.7788(5)
H3_2 H 0.7938 0.6348 0.7945
C5_2 C 0.7320(9) 0.5061(8) 0.7612(5)
C6_2 C 0.7913(9) 0.4366(7) 0.7435(5)
H4_2 H 0.7655 0.3774 0.7298
C7_2 C 0.6245(9) 0.5065(8) 0.7647(5)
C8_2 C 0.5788(10) 0.5820(9) 0.7855(6)
H5_2 H 0.6186 0.6353 0.7990
C9_2 C 0.4756(9) 0.5789(9) 0.7865(5)
H6_2 H 0.4469 0.6291 0.8028
C10_2 C 0.4128(9) 0.5068(8) 0.7653(5)
C11_2 C 0.4570(8) 0.4326(8) 0.7427(5)
H7_2 H 0.4150 0.3826 0.7265
C12_2 C 0.5604(10) 0.4309(9) 0.7436(6)
H8_2 H 0.5893 0.3779 0.7297
C15_2 C 0.0072(9) 0.6996(9) 0.8754(5)
H10_2 H 0.0170 0.6374 0.8890
C21_2 C 0.0078(10) 0.8562(9) 0.9891(6)
H14_2 H 0.0307 0.9121 0.9751
N13_2 N 0.0302(7) 0.2957(6) 0.8040(4)
N7_2 N 0.9925(7) 0.7961(6) 0.2018(4)
N8_2 N 0.9698(7) 0.7043(6) 0.1960(4)
C18_2 C 0.9447(10) 0.6924(9) 0.0319(5)
H12_2 H 0.9243 0.6354 0.0459
C19_2 C 0.9696(9) 0.7680(9) 0.0625(5)
C22_2 C 0.9936(11) 0.8346(9) 0.1563(6)
C23_2 C 0.9710(9) 0.7614(8) 0.1184(5)
C24_2 C 0.9526(10) 0.6837(8) 0.1462(5)
H16_2 H 0.9307 0.6239 0.1319
Co7_2 Co 0.98945(12) 0.61352(11) 0.25607(6)
C13_2 C 0.9841(8) 0.8512(8) 0.8684(5)
H9_2 H 0.9752 0.9157 0.8763
C14_2 C 0.9887(9) 0.7764(8) 0.9030(5)
C16_2 C 0.9814(9) 0.7773(9) 0.9589(5)
C17_2 C 0.9488(10) 0.6968(9) 0.9788(6)
H11_2 H 0.9287 0.6437 0.9573
N12_2 N 0.9925(7) 0.7039(6) 0.7018(4)
N2_3 N 0.1337(7) 0.0314(6) 0.2511(4)
N4_2 N 0.8884(7) 0.0363(7) 0.2482(4)
C3_3 C 0.2276(9) 0.0595(7) 0.2464(5)
H2_3 H 0.2422 0.1189 0.2328
C6_3 C 0.7913(9) 0.0634(7) 0.2435(5)
H4_3 H 0.7655 0.1226 0.2298
C11_3 C 0.4570(8) 0.0674(8) 0.2427(5)
H7_3 H 0.4150 0.1174 0.2265
C12_3 C 0.5604(10) 0.0691(9) 0.2436(6)
H8_3 H 0.5893 0.1221 0.2297
N11_2 N 0.0054(7) 0.1832(6) 0.1799(4)
N1_3 N 0.1433(8) 0.9444(7) 0.2714(4)
N3_2 N 0.8992(8) 0.9460(7) 0.2706(4)
N6_3 N 0.0101(8) 0.7763(7) 0.3241(4)
C1_3 C 0.2428(8) 0.9173(8) 0.2805(5)
H1_3 H 0.2698 0.8593 0.2955
C2_3 C 0.2993(8) 0.9920(8) 0.2635(5)
C4_3 C 0.8079(9) 0.9227(8) 0.2788(5)
H3_3 H 0.7938 0.8652 0.2945
C5_3 C 0.7320(9) 0.9939(8) 0.2612(5)
C7_3 C 0.6245(9) 0.9935(8) 0.2647(5)
C8_3 C 0.5788(10) 0.9180(9) 0.2855(6)
H5_3 H 0.6186 0.8647 0.2990
C9_3 C 0.4756(9) 0.9211(9) 0.2865(5)
H6_3 H 0.4469 0.8709 0.3028
C10_3 C 0.4128(9) 0.9932(8) 0.2653(5)
C15_3 C 0.0072(9) 0.8004(9) 0.3754(5)
H10_3 H 0.0170 0.8626 0.3890
C20_3 C 0.0001(10) 0.6477(9) 0.5411(5)
H13_3 H 0.0156 0.5933 0.5621
C21_3 C 0.0078(10) 0.6438(9) 0.4891(6)
H14_3 H 0.0307 0.5879 0.4751
H15_3 H 0.0070 0.6010 0.6499
N5_2 N 0.9946(7) 0.6832(6) 0.3201(4)
C13_3 C 0.9841(8) 0.6488(8) 0.3684(5)
H9_3 H 0.9752 0.5843 0.3763
C14_3 C 0.9887(9) 0.7236(8) 0.4030(5)
C16_3 C 0.9814(9) 0.7227(9) 0.4589(5)
C17_3 C 0.9488(10) 0.8032(9) 0.4788(6)
H11_3 H 0.9287 0.8563 0.4573
C18_3 C 0.9447(10) 0.8076(9) 0.5319(5)
H12_3 H 0.9243 0.8646 0.5459
C19_3 C 0.9696(9) 0.7320(9) 0.5625(5)
C22_3 C 0.9936(11) 0.6654(9) 0.6563(6)
C23_3 C 0.9710(9) 0.7386(8) 0.6184(5)
C24_3 C 0.9526(10) 0.8163(8) 0.6462(5)
H16_3 H 0.9307 0.8761 0.6319
C13_4 C 0.0159(8) 0.1488(8) 0.1316(5)
H9_4 H 0.0248 0.0843 0.1237
C14_4 C 0.0113(9) 0.2236(8) 0.0970(5)
C16_4 C 0.0186(9) 0.2227(9) 0.0411(5)
C17_4 C 0.0512(10) 0.3032(9) 0.0212(6)
H11_4 H 0.0713 0.3563 0.0427
N9_2 N 0.1008(8) 0.4460(7) 0.2294(4)
N10_2 N 0.1116(7) 0.5363(7) 0.2518(4)
C18_4 C 0.0553(10) 0.3076(9) 0.9681(5)
H12_4 H 0.0757 0.3646 0.9541
C19_4 C 0.0304(9) 0.2320(9) 0.9375(5)
C22_4 C 0.0064(11) 0.1654(9) 0.8437(6)
C23_4 C 0.0290(9) 0.2386(8) 0.8816(5)
C24_4 C 0.0474(10) 0.3163(8) 0.8538(5)
H16_4 H 0.0693 0.3761 0.8681
N1_4 N 0.8567(8) 0.4444(7) 0.2286(4)
N2_4 N 0.8663(7) 0.5314(6) 0.2489(4)
N6_4 N 0.9899(8) 0.2763(7) 0.1759(4)
C1_4 C 0.7572(8) 0.4173(8) 0.2195(5)
H1_4 H 0.7302 0.3593 0.2045
C2_4 C 0.7007(8) 0.4920(8) 0.2365(5)
C3_4 C 0.7724(9) 0.5595(7) 0.2536(5)
H2_4 H 0.7578 0.6189 0.2672
C4_4 C 0.1921(9) 0.4227(8) 0.2212(5)
H3_4 H 0.2062 0.3652 0.2055
C5_4 C 0.2680(9) 0.4939(8) 0.2388(5)
C6_4 C 0.2087(9) 0.5634(7) 0.2565(5)
H4_4 H 0.2345 0.6226 0.2702
C7_4 C 0.3755(9) 0.4935(8) 0.2353(5)
C8_4 C 0.4212(10) 0.4180(9) 0.2145(6)
H5_4 H 0.3814 0.3647 0.2010
C9_4 C 0.5244(9) 0.4211(9) 0.2135(5)
H6_4 H 0.5531 0.3709 0.1972
C10_4 C 0.5872(9) 0.4932(8) 0.2347(5)
C11_4 C 0.5430(8) 0.5674(8) 0.2573(5)
H7_4 H 0.5850 0.6174 0.2735
C12_4 C 0.4396(10) 0.5691(9) 0.2564(6)
H8_4 H 0.4107 0.6221 0.2703
C15_4 C 0.9928(9) 0.3004(9) 0.1246(5)
H10_4 H 0.9830 0.3626 0.1110
C21_4 C 0.9922(10) 0.1438(9) 0.0109(6)
H14_4 H 0.9693 0.0879 0.0249
C20_4 C 0.9999(10) 0.1477(9) 0.9589(5)
H13_4 H 0.9844 0.0933 0.9379
H15_4 H 0.9930 0.1010 0.8501
loop_
_geom_bond_atom_site_label_1
_geom_bond_atom_site_label_2
_geom_bond_site_symmetry_1
_geom_bond_site_symmetry_2
N7 N8 1_555 1_555
N8 C24 1_555 1_555
C13 N5 1_555 1_555
H9 C13 1_555 1_555
C14 C13 1_555 1_555
C16 C14 1_555 1_555
C17 C16 1_555 1_555
H11 C17 1_555 1_555
C18 C17 1_555 1_555
H12 C18 1_555 1_555
C19 C18 1_555 1_555
C22 N7 1_555 1_555
C23 C19 1_555 1_555
C24 C23 1_555 1_555
H16 C24 1_555 1_555
Co6 N5 1_555 1_555
Co7 N8 1_555 1_555
C22 C23 1_555 1_555
Co1 N1 1_555 1_555
N6 Co1 1_555 1_555
C1 N1 1_555 1_555
H1 C1 1_555 1_555
C2 C1 1_555 1_555
C4 N9 1_555 1_555
H3 C4 1_555 1_555
C5 C4 1_555 1_555
C7 C5 1_555 1_555
C8 C7 1_555 1_555
H5 C8 1_555 1_555
C9 C8 1_555 1_555
H6 C9 1_555 1_555
C10 C2 1_555 1_555
C15 N6 1_555 1_555
H10 C15 1_555 1_555
H13 C20 1_555 1_555
H14 C21 1_555 1_555
C9 C10 1_555 1_555
C20 C21 1_555 1_555
Co2 N2 1_555 1_555
N2 C3 1_555 1_555
N10 C6 1_555 1_555
H2 C3 1_555 1_555
H4 C6 1_555 1_555
H7 C11 1_555 1_555
H8 C12 1_555 1_555
N11 Co2 1_555 1_555
N13 Co2 1_555 1_555
C11 C12 1_555 1_555
H13_2 C20_2 1_555 1_555
Co3 N1_2 1_555 1_555
Co6 N2_2 1_555 1_555
N1_2 N2_2 1_555 1_555
N2_2 C3_2 1_555 1_555
N3 N4 1_555 1_555
N4 C6_2 1_555 1_555
N6_2 Co3 1_555 1_555
C1_2 N1_2 1_555 1_555
H1_2 C1_2 1_555 1_555
C2_2 C1_2 1_555 1_555
C3_2 C2_2 1_555 1_555
H2_2 C3_2 1_555 1_555
C4_2 N3 1_555 1_555
H3_2 C4_2 1_555 1_555
C5_2 C4_2 1_555 1_555
C6_2 C5_2 1_555 1_555
H4_2 C6_2 1_555 1_555
C7_2 C5_2 1_555 1_555
C8_2 C7_2 1_555 1_555
H5_2 C8_2 1_555 1_555
C9_2 C8_2 1_555 1_555
H6_2 C9_2 1_555 1_555
C10_2 C2_2 1_555 1_555
C11_2 C10_2 1_555 1_555
H7_2 C11_2 1_555 1_555
C12_2 C7_2 1_555 1_555
H8_2 C12_2 1_555 1_555
C15_2 N6_2 1_555 1_555
H10_2 C15_2 1_555 1_555
H14_2 C21_2 1_555 1_555
N13_2 Co6 1_555 1_555
C9_2 C10_2 1_555 1_555
C11_2 C12_2 1_555 1_555
N7_2 N8_2 1_555 1_555
N8_2 C24_2 1_555 1_555
H12_2 C18_2 1_555 1_555
C19_2 C18_2 1_555 1_555
C22_2 N7_2 1_555 1_555
C23_2 C19_2 1_555 1_555
C24_2 C23_2 1_555 1_555
H16_2 C24_2 1_555 1_555
Co7_2 N8_2 1_555 1_555
C22_2 C23_2 1_555 1_555
C13_2 N11 1_555 1_555
H9_2 C13_2 1_555 1_555
C14_2 C13_2 1_555 1_555
C16_2 C14_2 1_555 1_555
C17_2 C16_2 1_555 1_555
H11_2 C17_2 1_555 1_555
Co7 N2_3 1_555 1_555
N2_3 C3_3 1_555 1_555
N4_2 C6_3 1_555 1_555
H2_3 C3_3 1_555 1_555
H4_3 C6_3 1_555 1_555
H7_3 C11_3 1_555 1_555
H8_3 C12_3 1_555 1_555
N11_2 Co7 1_555 1_555
C11_3 C12_3 1_555 1_555
Co4_2 N1_3 1_555 1_555
N6_3 Co4_2 1_555 1_555
C1_3 N1_3 1_555 1_555
H1_3 C1_3 1_555 1_555
C2_3 C1_3 1_555 1_555
C4_3 N3_2 1_555 1_555
H3_3 C4_3 1_555 1_555
C5_3 C4_3 1_555 1_555
C7_3 C5_3 1_555 1_555
C8_3 C7_3 1_555 1_555
H5_3 C8_3 1_555 1_555
C9_3 C8_3 1_555 1_555
H6_3 C9_3 1_555 1_555
C10_3 C2_3 1_555 1_555
C15_3 N6_3 1_555 1_555
H10_3 C15_3 1_555 1_555
H13_3 C20_3 1_555 1_555
H14_3 C21_3 1_555 1_555
C9_3 C10_3 1_555 1_555
C20_3 C21_3 1_555 1_555
N12_2 N13 1_555 1_555
N13 C24_3 1_555 1_555
C13_3 N5_2 1_555 1_555
H9_3 C13_3 1_555 1_555
C14_3 C13_3 1_555 1_555
C16_3 C14_3 1_555 1_555
C17_3 C16_3 1_555 1_555
H11_3 C17_3 1_555 1_555
C18_3 C17_3 1_555 1_555
H12_3 C18_3 1_555 1_555
C19_3 C18_3 1_555 1_555
C22_3 N12_2 1_555 1_555
C23_3 C19_3 1_555 1_555
C24_3 C23_3 1_555 1_555
H16_3 C24_3 1_555 1_555
Co7_2 N5_2 1_555 1_555
C22_3 C23_3 1_555 1_555
C13_4 N11_2 1_555 1_555
H9_4 C13_4 1_555 1_555
C14_4 C13_4 1_555 1_555
C16_4 C14_4 1_555 1_555
C17_4 C16_4 1_555 1_555
H11_4 C17_4 1_555 1_555
N9_2 N10_2 1_555 1_555
N12 N13_2 1_555 1_555
N13_2 C24_4 1_555 1_555
H12_4 C18_4 1_555 1_555
C19_4 C18_4 1_555 1_555
C22_4 N12 1_555 1_555
C23_4 C19_4 1_555 1_555
C24_4 C23_4 1_555 1_555
H16_4 C24_4 1_555 1_555
C22_4 C23_4 1_555 1_555
Co4 N1_4 1_555 1_555
Co7_2 N2_4 1_555 1_555
N1_4 N2_4 1_555 1_555
N2_4 C3_4 1_555 1_555
N10_2 C6_4 1_555 1_555
N6_4 Co4 1_555 1_555
C1_4 N1_4 1_555 1_555
H1_4 C1_4 1_555 1_555
C2_4 C1_4 1_555 1_555
C3_4 C2_4 1_555 1_555
H2_4 C3_4 1_555 1_555
C4_4 N9_2 1_555 1_555
H3_4 C4_4 1_555 1_555
C5_4 C4_4 1_555 1_555
C6_4 C5_4 1_555 1_555
H4_4 C6_4 1_555 1_555
C7_4 C5_4 1_555 1_555
C8_4 C7_4 1_555 1_555
H5_4 C8_4 1_555 1_555
C9_4 C8_4 1_555 1_555
H6_4 C9_4 1_555 1_555
C10_4 C2_4 1_555 1_555
C11_4 C10_4 1_555 1_555
H7_4 C11_4 1_555 1_555
C12_4 C7_4 1_555 1_555
H8_4 C12_4 1_555 1_555
C15_4 N6_4 1_555 1_555
H10_4 C15_4 1_555 1_555
H14_4 C21_4 1_555 1_555
C9_4 C10_4 1_555 1_555
C11_4 C12_4 1_555 1_555
H13_4 C20_4 1_555 1_555

#END
