
###############################################################################
#
# This file contains modified crystal structure data generated from the
# MOF subset of the Cambridge Structural Database (CSD) v543 
# hosted by the Cambridge Crystallographic Data Centre (CCDC).
#
# This work is licensed under the Creative Commons
# Attribution-NonCommercial-ShareAlike 4.0 International License.
# To view a copy of this license, visit
# http://creativecommons.org/licenses/by-nc-sa/4.0/
# or send a letter to
# Creative Commons, PO Box 1866, Mountain View, CA 94042, USA.
#
# CIF created using the CSD Python API on 29 September 2022
# The structure has been converted into the P1 space group
# The structure has a 3D framework
# The original CSD entry SOHMUY is in the orthorhombic crystal system
# The original CSD entry SOHMUY is in a Sohncke space group
# The framework has been calculated to contain at least 10.0% void space
# The void calculation uses a probe of radius 1.32A, grid spacing 0.4
#
###############################################################################

data_SOHMUY
_chemical_formula_moiety         '(C288 H192 I48 N96 Zn24)n'
_symmetry_cell_setting           triclinic
_symmetry_space_group_name_H-M   'P 1'
_symmetry_Int_Tables_number      1
_space_group_name_Hall           'P 1'
loop_
_symmetry_equiv_pos_site_id
_symmetry_equiv_pos_as_xyz
1 x,y,z
_cell_length_a                   13.82960(10)
_cell_length_b                   28.1807(3)
_cell_length_c                   44.3094(5)
_cell_angle_alpha                90
_cell_angle_beta                 90
_cell_angle_gamma                90
_cell_volume                     17268.6
loop_
_atom_site_label
_atom_site_type_symbol
_atom_site_fract_x
_atom_site_fract_y
_atom_site_fract_z
I1 I 0.43361(9) 0.05921(4) 0.08554(2)
C27 C 0.3185(10) 0.0066(5) 0.0169(3)
H19 H 0.3220 0.0352 0.0272
C28 C 0.2750(10) 0.0048(5) 0.9873(3)
H20 H 0.2473 0.0319 0.9791
C31 C 0.1847(12) 0.1349(5) 0.8867(3)
H21 H 0.1989 0.1620 0.8978
C32 C 0.1976(11) 0.0906(5) 0.9000(3)
H22 H 0.2119 0.0886 0.9204
C33 C 0.1450(11) 0.0987(6) 0.8415(3)
H23 H 0.1292 0.1009 0.8212
C34 C 0.1601(11) 0.0544(6) 0.8539(3)
H24 H 0.1504 0.0274 0.8422
C35 C 0.1894(11) 0.0500(5) 0.8832(3)
C36 C 0.2013(10) 0.0031(5) 0.8983(3)
N9 N 0.1523(9) 0.1398(5) 0.8580(3)
N11 N 0.2269(8) 0.0044(4) 0.9273(3)
Zn5 Zn 0.11119(13) 0.20467(6) 0.84207(4)
C19 C 0.1520(11) 0.8369(5) 0.8343(3)
H13 H 0.1368 0.8380 0.8138
C20 C 0.1647(11) 0.8780(5) 0.8501(3)
H14 H 0.1585 0.9067 0.8399
C21 C 0.1853(12) 0.7943(6) 0.8777(4)
H15 H 0.1922 0.7652 0.8873
C22 C 0.2005(12) 0.8350(6) 0.8945(3)
H16 H 0.2196 0.8332 0.9146
C23 C 0.1862(11) 0.8791(5) 0.8803(3)
C24 C 0.2028(9) 0.9232(5) 0.8973(3)
C26 C 0.3072(14) 0.9214(6) 0.9856(3)
H18 H 0.2977 0.8918 0.9768
C29 C 0.2744(10) 0.9628(5) 0.9713(3)
C30 C 0.2411(10) 0.9626(5) 0.9398(3)
N7 N 0.1617(9) 0.7942(4) 0.8487(3)
N10 N 0.2289(8) 0.9192(4) 0.9259(2)
N12 N 0.1890(8) 0.9642(5) 0.8825(2)
Zn4 Zn 0.12695(12) 0.73135(7) 0.82707(4)
Zn2 Zn 0.62695(12) 0.76865(7) 0.17293(4)
I3 I 0.56092(9) 0.74971(4) 0.22542(3)
I4 I 0.53421(9) 0.81814(5) 0.13503(4)
C13 C 0.8037(11) 0.8217(6) 0.1558(4)
H9 H 0.7709 0.8268 0.1378
C14 C 0.9030(10) 0.8354(5) 0.1593(3)
H10 H 0.9363 0.8484 0.1431
C15 C 0.8043(11) 0.7956(6) 0.2071(3)
H11 H 0.7704 0.7819 0.2230
C16 C 0.8977(13) 0.8096(6) 0.2122(4)
H12 H 0.9266 0.8066 0.2311
C17 C 0.9492(10) 0.8293(5) 0.1864(3)
N3 N 0.7583(9) 0.8006(4) 0.1802(3)
N13 N 0.6617(9) 0.7058(4) 0.1513(3)
Zn1 Zn 0.07046(13) 0.02756(6) 0.56893(3)
Zn2_2 Zn 0.87305(12) 0.23135(7) 0.67293(4)
I3_2 I 0.93908(9) 0.25029(4) 0.72542(3)
I4_2 I 0.96579(9) 0.18186(5) 0.63503(4)
I6 I 0.19979(9) 0.26725(4) 0.87253(2)
C1 C 0.2642(11) 0.2085(6) 0.7957(3)
H1 H 0.2982 0.2228 0.8113
C2 C 0.3141(11) 0.1964(6) 0.7702(3)
H2 H 0.3808 0.2004 0.7690
C3 C 0.1177(11) 0.1835(5) 0.7756(3)
H3 H 0.0514 0.1791 0.7776
C4 C 0.1629(10) 0.1719(6) 0.7478(3)
H4 H 0.1272 0.1606 0.7315
C5 C 0.2608(10) 0.1778(5) 0.7458(3)
C6 C 0.3106(11) 0.1630(5) 0.7184(3)
C7 C 0.1077(11) 0.0732(6) 0.6272(3)
H5 H 0.0424 0.0664 0.6297
C8 C 0.1574(10) 0.0940(5) 0.6501(3)
H6 H 0.1255 0.1023 0.6678
C9 C 0.2483(11) 0.0712(6) 0.5979(3)
H7 H 0.2795 0.0622 0.5802
C10 C 0.2999(10) 0.0931(5) 0.6207(3)
H8 H 0.3645 0.1011 0.6179
C11 C 0.2548(10) 0.1028(5) 0.6472(3)
C12 C 0.3105(10) 0.1262(5) 0.6728(3)
C13_2 C 0.6963(11) 0.1783(6) 0.6558(4)
H9_2 H 0.7291 0.1732 0.6378
C14_2 C 0.5970(10) 0.1646(5) 0.6593(3)
H10_2 H 0.5637 0.1516 0.6431
C15_2 C 0.6957(11) 0.2044(6) 0.7071(3)
H11_2 H 0.7296 0.2181 0.7230
C16_2 C 0.6023(13) 0.1904(6) 0.7122(4)
H12_2 H 0.5734 0.1934 0.7311
C17_2 C 0.5508(10) 0.1707(5) 0.6864(3)
C18 C 0.4460(10) 0.1591(5) 0.6912(3)
C19_2 C 0.3480(11) 0.1631(5) 0.3343(3)
H13_2 H 0.3632 0.1620 0.3138
C20_2 C 0.3353(11) 0.1220(5) 0.3501(3)
H14_2 H 0.3415 0.0933 0.3399
C21_2 C 0.3147(12) 0.2057(6) 0.3777(4)
H15_2 H 0.3078 0.2348 0.3873
C22_2 C 0.2995(12) 0.1650(6) 0.3945(3)
H16_2 H 0.2804 0.1668 0.4146
C23_2 C 0.3138(11) 0.1209(5) 0.3803(3)
C24_2 C 0.2972(9) 0.0768(5) 0.3973(3)
C25 C 0.1456(13) 0.0743(6) 0.5133(4)
H17 H 0.1127 0.1003 0.5210
C26_2 C 0.1928(14) 0.0786(6) 0.4856(3)
H18_2 H 0.2023 0.1082 0.4768
C29_2 C 0.2256(10) 0.0372(5) 0.4713(3)
C30_2 C 0.2589(10) 0.0374(5) 0.4398(3)
N1 N 0.1691(9) 0.2011(4) 0.7996(2)
N2 N 0.1509(8) 0.0626(4) 0.6013(2)
N3_2 N 0.7417(9) 0.1994(4) 0.6802(3)
N4 N 0.2573(8) 0.1399(4) 0.6973(3)
N5 N 0.4044(9) 0.1329(4) 0.6687(3)
N6 N 0.4039(9) 0.1740(4) 0.7160(2)
N7_2 N 0.3383(9) 0.2058(4) 0.3487(3)
N8 N 0.1465(9) 0.0325(5) 0.5293(3)
N10_2 N 0.2711(8) 0.0808(4) 0.4259(2)
N12_2 N 0.3110(8) 0.0358(5) 0.3825(2)
Zn4_2 Zn 0.37305(12) 0.26865(7) 0.32707(4)
N13_2 N 0.8383(9) 0.2942(4) 0.6513(3)
I3_3 I 0.43908(9) 0.24971(4) 0.27458(3)
I4_3 I 0.46579(9) 0.31814(5) 0.36497(4)
C13_3 C 0.1963(11) 0.3217(6) 0.3442(4)
H9_3 H 0.2291 0.3268 0.3622
C14_3 C 0.0970(10) 0.3354(5) 0.3407(3)
H10_3 H 0.0637 0.3484 0.3569
C15_3 C 0.1957(11) 0.2956(6) 0.2929(3)
H11_3 H 0.2296 0.2819 0.2770
C16_3 C 0.1023(13) 0.3096(6) 0.2878(4)
H12_3 H 0.0734 0.3066 0.2689
C17_3 C 0.0508(10) 0.3293(5) 0.3136(3)
N3_3 N 0.2417(9) 0.3006(4) 0.3198(3)
Zn1_2 Zn 0.57046(13) 0.47244(6) 0.43107(3)
Zn3 Zn 0.61119(13) 0.29533(6) 0.15793(4)
I1_2 I 0.56639(9) 0.55921(4) 0.41446(2)
I2 I 0.41093(7) 0.42780(4) 0.43703(2)
I5 I 0.42716(8) 0.29806(4) 0.16158(3)
I6_2 I 0.69979(9) 0.23275(4) 0.12747(2)
C1_2 C 0.7642(11) 0.2915(6) 0.2043(3)
H1_2 H 0.7982 0.2772 0.1887
C2_2 C 0.8141(11) 0.3036(6) 0.2298(3)
H2_2 H 0.8808 0.2996 0.2310
C3_2 C 0.6177(11) 0.3165(5) 0.2244(3)
H3_2 H 0.5514 0.3209 0.2224
C4_2 C 0.6629(10) 0.3281(6) 0.2522(3)
H4_2 H 0.6272 0.3394 0.2685
C5_2 C 0.7608(10) 0.3222(5) 0.2542(3)
C6_2 C 0.8106(11) 0.3370(5) 0.2816(3)
C7_2 C 0.6077(11) 0.4268(6) 0.3728(3)
H5_2 H 0.5424 0.4336 0.3703
C8_2 C 0.6574(10) 0.4060(5) 0.3499(3)
H6_2 H 0.6255 0.3977 0.3322
C9_2 C 0.7483(11) 0.4288(6) 0.4021(3)
H7_2 H 0.7795 0.4378 0.4198
C10_2 C 0.7999(10) 0.4069(5) 0.3793(3)
H8_2 H 0.8645 0.3989 0.3821
C11_2 C 0.7548(10) 0.3972(5) 0.3528(3)
C12_2 C 0.8105(10) 0.3738(5) 0.3272(3)
C18_2 C 0.9460(10) 0.3409(5) 0.3088(3)
C19_3 C 0.8480(11) 0.3369(5) 0.6657(3)
H13_3 H 0.8632 0.3380 0.6862
C20_3 C 0.8353(11) 0.3780(5) 0.6499(3)
H14_3 H 0.8415 0.4067 0.6601
C21_3 C 0.8147(12) 0.2943(6) 0.6223(4)
H15_3 H 0.8078 0.2652 0.6127
C22_3 C 0.7995(12) 0.3350(6) 0.6055(3)
H16_3 H 0.7804 0.3332 0.5854
C23_3 C 0.8138(11) 0.3791(5) 0.6197(3)
C24_3 C 0.7972(9) 0.4232(5) 0.6027(3)
C25_2 C 0.6456(13) 0.4257(6) 0.4867(4)
H17_2 H 0.6127 0.3997 0.4790
C26_3 C 0.6928(14) 0.4214(6) 0.5144(3)
H18_3 H 0.7023 0.3918 0.5232
C27_2 C 0.6815(10) 0.5066(5) 0.4831(3)
H19_2 H 0.6780 0.5352 0.4728
C28_2 C 0.7250(10) 0.5048(5) 0.5127(3)
H20_2 H 0.7527 0.5319 0.5209
C29_3 C 0.7256(10) 0.4628(5) 0.5287(3)
C30_3 C 0.7589(10) 0.4626(5) 0.5602(3)
C31_2 C 0.8153(12) 0.6349(5) 0.6133(3)
H21_2 H 0.8011 0.6620 0.6022
C32_2 C 0.8024(11) 0.5906(5) 0.6000(3)
H22_2 H 0.7881 0.5886 0.5796
C33_2 C 0.8550(11) 0.5987(6) 0.6585(3)
H23_2 H 0.8708 0.6009 0.6788
C34_2 C 0.8399(11) 0.5544(6) 0.6461(3)
H24_2 H 0.8496 0.5274 0.6578
C35_2 C 0.8106(11) 0.5500(5) 0.6168(3)
C36_2 C 0.7987(10) 0.5031(5) 0.6017(3)
N1_2 N 0.6691(9) 0.2989(4) 0.2004(2)
N2_2 N 0.6509(8) 0.4374(4) 0.3987(2)
N4_2 N 0.7573(8) 0.3601(4) 0.3027(3)
N5_2 N 0.9044(9) 0.3671(4) 0.3313(3)
N6_2 N 0.9039(9) 0.3260(4) 0.2840(2)
N8_2 N 0.6465(9) 0.4675(5) 0.4707(3)
N9_2 N 0.8477(9) 0.6398(5) 0.6420(3)
N10_3 N 0.7711(8) 0.4192(4) 0.5741(2)
N11_2 N 0.7731(8) 0.5044(4) 0.5727(3)
N12_3 N 0.8110(8) 0.4642(5) 0.6175(2)
Zn5_2 Zn 0.88881(13) 0.70467(6) 0.65793(4)
N14 N 0.6523(9) 0.3602(5) 0.1420(3)
C19_4 C 0.6520(11) 0.6631(5) 0.1657(3)
H13_4 H 0.6368 0.6620 0.1862
C20_4 C 0.6647(11) 0.6220(5) 0.1499(3)
H14_4 H 0.6585 0.5933 0.1601
C21_4 C 0.6853(12) 0.7057(6) 0.1223(4)
H15_4 H 0.6922 0.7348 0.1127
C22_4 C 0.7005(12) 0.6650(6) 0.1055(3)
H16_4 H 0.7196 0.6668 0.0854
C23_4 C 0.6862(11) 0.6209(5) 0.1197(3)
C24_4 C 0.7028(9) 0.5768(5) 0.1027(3)
C26_4 C 0.8072(14) 0.5786(6) 0.0144(3)
H18_4 H 0.7977 0.6082 0.0232
C28_3 C 0.7750(10) 0.4952(5) 0.0127(3)
H20_3 H 0.7473 0.4681 0.0209
C29_4 C 0.7744(10) 0.5372(5) 0.0287(3)
C30_4 C 0.7411(10) 0.5374(5) 0.0602(3)
C31_3 C 0.6847(12) 0.3651(5) 0.1133(3)
H21_3 H 0.6989 0.3380 0.1022
C32_3 C 0.6976(11) 0.4094(5) 0.1000(3)
H22_3 H 0.7119 0.4114 0.0796
C33_3 C 0.6450(11) 0.4013(6) 0.1585(3)
H23_3 H 0.6292 0.3991 0.1788
C34_3 C 0.6601(11) 0.4456(6) 0.1461(3)
H24_3 H 0.6504 0.4726 0.1578
C35_3 C 0.6894(11) 0.4500(5) 0.1168(3)
C36_3 C 0.7013(10) 0.4969(5) 0.1017(3)
N10_4 N 0.7289(8) 0.5808(4) 0.0741(2)
N11_3 N 0.7269(8) 0.4956(4) 0.0727(3)
N12_4 N 0.6890(8) 0.5358(5) 0.1175(2)
Zn1_3 Zn 0.92954(13) 0.52756(6) 0.93107(3)
I1_3 I 0.93361(9) 0.44079(4) 0.91446(2)
I3_4 I 0.06092(9) 0.75029(4) 0.77458(3)
I4_4 I 0.03421(9) 0.68186(5) 0.86497(4)
I6_3 I 0.80021(9) 0.76725(4) 0.62747(2)
C1_3 C 0.7358(11) 0.7085(6) 0.7043(3)
H1_3 H 0.7018 0.7228 0.6887
C2_3 C 0.6859(11) 0.6964(6) 0.7298(3)
H2_3 H 0.6192 0.7004 0.7310
C3_3 C 0.8823(11) 0.6835(5) 0.7244(3)
H3_3 H 0.9486 0.6791 0.7224
C4_3 C 0.8371(10) 0.6719(6) 0.7522(3)
H4_3 H 0.8728 0.6606 0.7685
C5_3 C 0.7392(10) 0.6778(5) 0.7542(3)
C6_3 C 0.6894(11) 0.6630(5) 0.7816(3)
C7_3 C 0.8923(11) 0.5732(6) 0.8728(3)
H5_3 H 0.9576 0.5664 0.8703
C8_3 C 0.8426(10) 0.5940(5) 0.8499(3)
H6_3 H 0.8745 0.6023 0.8322
C9_3 C 0.7517(11) 0.5712(6) 0.9021(3)
H7_3 H 0.7205 0.5622 0.9198
C10_3 C 0.7001(10) 0.5931(5) 0.8793(3)
H8_3 H 0.6355 0.6011 0.8821
C11_3 C 0.7452(10) 0.6028(5) 0.8528(3)
C12_3 C 0.6895(10) 0.6262(5) 0.8272(3)
C13_4 C 0.3037(11) 0.6783(6) 0.8442(4)
H9_4 H 0.2709 0.6732 0.8622
C14_4 C 0.4030(10) 0.6646(5) 0.8407(3)
H10_4 H 0.4363 0.6516 0.8569
C15_4 C 0.3043(11) 0.7044(6) 0.7929(3)
H11_4 H 0.2704 0.7181 0.7770
C16_4 C 0.3977(13) 0.6904(6) 0.7878(4)
H12_4 H 0.4266 0.6934 0.7689
C17_4 C 0.4492(10) 0.6707(5) 0.8136(3)
C18_3 C 0.5540(10) 0.6591(5) 0.8088(3)
C25_3 C 0.8544(13) 0.5743(6) 0.9867(4)
H17_3 H 0.8873 0.6003 0.9790
C27_3 C 0.8185(10) 0.4934(5) 0.9831(3)
H19_3 H 0.8220 0.4648 0.9728
N1_3 N 0.8309(9) 0.7011(4) 0.7004(2)
N2_3 N 0.8491(8) 0.5626(4) 0.8987(2)
N3_4 N 0.2583(9) 0.6994(4) 0.8198(3)
N4_3 N 0.7427(8) 0.6399(4) 0.8027(3)
N5_3 N 0.5956(9) 0.6329(4) 0.8313(3)
N6_3 N 0.5961(9) 0.6740(4) 0.7840(2)
N8_3 N 0.8535(9) 0.5325(5) 0.9707(3)
Zn1_4 Zn 0.42954(13) 0.97244(6) 0.06893(3)
Zn3_2 Zn 0.38881(13) 0.79533(6) 0.34207(4)
I2_2 I 0.58907(7) 0.92780(4) 0.06297(2)
I5_2 I 0.57284(8) 0.79806(4) 0.33842(3)
I6_4 I 0.30021(9) 0.73275(4) 0.37253(2)
C1_4 C 0.2358(11) 0.7915(6) 0.2957(3)
H1_4 H 0.2018 0.7772 0.3113
C2_4 C 0.1859(11) 0.8036(6) 0.2702(3)
H2_4 H 0.1192 0.7996 0.2690
C3_4 C 0.3823(11) 0.8165(5) 0.2756(3)
H3_4 H 0.4486 0.8209 0.2776
C4_4 C 0.3371(10) 0.8281(6) 0.2478(3)
H4_4 H 0.3728 0.8394 0.2315
C5_4 C 0.2392(10) 0.8222(5) 0.2458(3)
C6_4 C 0.1894(11) 0.8370(5) 0.2184(3)
C7_4 C 0.3923(11) 0.9268(6) 0.1272(3)
H5_4 H 0.4576 0.9336 0.1297
C8_4 C 0.3426(10) 0.9060(5) 0.1501(3)
H6_4 H 0.3745 0.8977 0.1678
C9_4 C 0.2517(11) 0.9288(6) 0.0979(3)
H7_4 H 0.2205 0.9378 0.0802
C10_4 C 0.2001(10) 0.9069(5) 0.1207(3)
H8_4 H 0.1355 0.8989 0.1179
C11_4 C 0.2452(10) 0.8972(5) 0.1472(3)
C12_4 C 0.1895(10) 0.8738(5) 0.1728(3)
C18_4 C 0.0540(10) 0.8409(5) 0.1912(3)
C25_4 C 0.3544(13) 0.9257(6) 0.0133(4)
H17_4 H 0.3873 0.8997 0.0210
N1_4 N 0.3309(9) 0.7989(4) 0.2996(2)
N2_4 N 0.3491(8) 0.9374(4) 0.1013(2)
N4_4 N 0.2427(8) 0.8601(4) 0.1973(3)
N5_4 N 0.0956(9) 0.8671(4) 0.1687(3)
N6_4 N 0.0961(9) 0.8260(4) 0.2160(2)
N8_4 N 0.3535(9) 0.9675(5) 0.0293(3)
N14_2 N 0.3477(9) 0.8602(5) 0.3580(3)
I1_4 I 0.06639(9) 0.94079(4) 0.58554(2)
C27_4 C 0.1815(10) 0.9934(5) 0.5169(3)
H19_4 H 0.1780 0.9648 0.5272
C28_4 C 0.2250(10) 0.9952(5) 0.4873(3)
H20_4 H 0.2527 0.9681 0.4791
C31_4 C 0.3153(12) 0.8651(5) 0.3867(3)
H21_4 H 0.3011 0.8380 0.3978
C32_4 C 0.3024(11) 0.9094(5) 0.4000(3)
H22_4 H 0.2881 0.9114 0.4204
C33_4 C 0.3550(11) 0.9013(6) 0.3415(3)
H23_4 H 0.3708 0.8991 0.3212
C34_4 C 0.3399(11) 0.9456(6) 0.3539(3)
H24_4 H 0.3496 0.9726 0.3422
C35_4 C 0.3106(11) 0.9500(5) 0.3832(3)
C36_4 C 0.2987(10) 0.9969(5) 0.3983(3)
N11_4 N 0.2731(8) 0.9956(4) 0.4273(3)
I2_3 I 0.91093(7) 0.07220(4) 0.56297(2)
I5_3 I 0.92716(8) 0.20194(4) 0.83842(3)
I2_4 I 0.08907(7) 0.57220(4) 0.93703(2)
I5_4 I 0.07284(8) 0.70194(4) 0.66158(3)
Zn7 Zn 0.11259(13) 0.69710(6) 0.16726(4)
Zn8 Zn 0.13287(13) 0.22077(6) 0.15225(4)
I10 I 0.19641(9) 0.76189(4) 0.13738(2)
I11 I 0.04209(9) 0.22856(5) 0.20245(3)
I12 I 0.06059(10) 0.17747(4) 0.10680(3)
C37 C 0.1731(10) 0.6324(6) 0.1189(3)
H25 H 0.1726 0.6608 0.1082
C38 C 0.1939(11) 0.5923(5) 0.1042(3)
H26 H 0.2141 0.5940 0.0842
C39 C 0.1460(11) 0.5919(6) 0.1622(3)
H27 H 0.1290 0.5918 0.1825
C40 C 0.1629(10) 0.5480(5) 0.1478(3)
H28 H 0.1583 0.5198 0.1585
C41 C 0.1860(9) 0.5477(5) 0.1181(3)
C42 C 0.2029(10) 0.5031(5) 0.0999(3)
C43 C 0.1509(11) 0.3265(5) 0.1528(3)
H29 H 0.1287 0.3233 0.1725
C44 C 0.1646(10) 0.3731(5) 0.1404(3)
H30 H 0.1510 0.3998 0.1519
C45 C 0.1982(13) 0.2925(5) 0.1087(4)
H31 H 0.2080 0.2653 0.0972
C46 C 0.2151(12) 0.3362(6) 0.0953(4)
H32 H 0.2378 0.3375 0.0755
C47 C 0.1985(10) 0.3779(5) 0.1110(3)
C48 C 0.2038(11) 0.4251(5) 0.0973(3)
C50 C 0.3176(13) 0.4400(7) 0.0080(4)
H34 H 0.3159 0.4094 0.0158
C52 C 0.2753(11) 0.5187(6) 0.0119(3)
H36 H 0.2473 0.5443 0.0218
C53 C 0.2778(10) 0.4769(5) 0.0250(3)
C54 C 0.2430(9) 0.4694(5) 0.0569(3)
N15 N 0.1534(9) 0.6334(4) 0.1480(3)
N16 N 0.1695(10) 0.2874(4) 0.1364(3)
N18 N 0.1905(8) 0.4617(4) 0.1142(2)
N19 N 0.2317(9) 0.4267(4) 0.0681(2)
N20 N 0.2281(8) 0.5082(4) 0.0721(2)
N27 N 0.1681(9) 0.6934(4) 0.2107(3)
N28 N 0.2659(8) 0.1925(4) 0.1623(2)
Zn6 Zn 0.43883(12) 0.50279(6) 0.93028(3)
I7 I 0.43082(9) 0.59150(4) 0.91858(2)
I8 I 0.60118(8) 0.46212(5) 0.93788(2)
C49 C 0.3568(12) 0.4467(6) 0.9817(3)
H33 H 0.3844 0.4212 0.9715
C51 C 0.3134(10) 0.5247(5) 0.9838(3)
H35 H 0.3075 0.5544 0.9748
C55 C 0.2627(11) 0.4664(7) 0.9005(4)
H37 H 0.2336 0.4851 0.9153
C56 C 0.2046(12) 0.4429(6) 0.8800(3)
H38 H 0.1380 0.4476 0.8796
C57 C 0.4008(12) 0.4337(6) 0.8822(3)
H39 H 0.4669 0.4286 0.8840
C58 C 0.3491(10) 0.4094(6) 0.8604(3)
H40 H 0.3817 0.3913 0.8461
C59 C 0.2500(10) 0.4118(5) 0.8597(3)
C60 C 0.1931(11) 0.3836(5) 0.8358(3)
C61 C 0.3806(12) 0.3264(5) 0.7325(3)
H41 H 0.4460 0.3330 0.7300
C62 C 0.3354(10) 0.3375(6) 0.7594(3)
H42 H 0.3711 0.3505 0.7751
C63 C 0.2350(11) 0.2946(6) 0.7155(3)
H43 H 0.2022 0.2775 0.7008
C64 C 0.1849(11) 0.3077(6) 0.7424(3)
H44 H 0.1195 0.3014 0.7453
C65 C 0.2381(10) 0.3296(5) 0.7630(3)
C66 C 0.1880(12) 0.3468(5) 0.7918(3)
C72 C 0.0533(10) 0.3510(5) 0.8214(3)
N17 N 0.3580(9) 0.4911(5) 0.9687(3)
N21 N 0.3586(8) 0.4634(5) 0.8999(2)
N22 N 0.3319(9) 0.3066(4) 0.7107(3)
N24 N 0.2413(10) 0.3690(5) 0.8119(2)
N25 N 0.0971(8) 0.3351(4) 0.7948(2)
N26 N 0.1009(9) 0.3772(4) 0.8412(3)
Zn9 Zn 0.38741(13) 0.30290(6) 0.66726(4)
Zn6_2 Zn 0.06117(12) 0.49721(6) 0.43028(3)
Zn8_2 Zn 0.36713(13) 0.77923(6) 0.65225(4)
I7_2 I 0.06918(9) 0.40850(4) 0.41858(2)
I9 I 0.57285(8) 0.30682(4) 0.67121(3)
I10_2 I 0.30359(9) 0.23811(4) 0.63738(2)
I11_2 I 0.45791(9) 0.77144(5) 0.70245(3)
I12_2 I 0.43941(10) 0.82253(4) 0.60680(3)
C37_2 C 0.3269(10) 0.3676(6) 0.6189(3)
H25_2 H 0.3274 0.3392 0.6082
C38_2 C 0.3061(11) 0.4077(5) 0.6042(3)
H26_2 H 0.2859 0.4060 0.5842
C39_2 C 0.3540(11) 0.4081(6) 0.6622(3)
H27_2 H 0.3710 0.4082 0.6825
C40_2 C 0.3371(10) 0.4520(5) 0.6478(3)
H28_2 H 0.3417 0.4802 0.6585
C41_2 C 0.3140(9) 0.4523(5) 0.6181(3)
C42_2 C 0.2971(10) 0.4969(5) 0.5999(3)
C43_2 C 0.3491(11) 0.6735(5) 0.6528(3)
H29_2 H 0.3713 0.6767 0.6725
C44_2 C 0.3354(10) 0.6269(5) 0.6404(3)
H30_2 H 0.3490 0.6002 0.6519
C45_2 C 0.3018(13) 0.7075(5) 0.6087(4)
H31_2 H 0.2920 0.7347 0.5972
C46_2 C 0.2849(12) 0.6638(6) 0.5953(4)
H32_2 H 0.2622 0.6625 0.5755
C47_2 C 0.3015(10) 0.6221(5) 0.6110(3)
C48_2 C 0.2962(11) 0.5749(5) 0.5973(3)
C49_2 C 0.1432(12) 0.5533(6) 0.4817(3)
H33_2 H 0.1156 0.5788 0.4715
C50_2 C 0.1824(13) 0.5600(7) 0.5080(4)
H34_2 H 0.1841 0.5906 0.5158
C51_2 C 0.1866(10) 0.4753(5) 0.4838(3)
H35_2 H 0.1925 0.4456 0.4748
C52_2 C 0.2247(11) 0.4813(6) 0.5119(3)
H36_2 H 0.2527 0.4557 0.5218
C53_2 C 0.2222(10) 0.5231(5) 0.5250(3)
C54_2 C 0.2570(9) 0.5306(5) 0.5569(3)
C55_2 C 0.2373(11) 0.5336(7) 0.4005(4)
H37_2 H 0.2664 0.5149 0.4153
C56_2 C 0.2954(12) 0.5571(6) 0.3800(3)
H38_2 H 0.3620 0.5524 0.3796
C57_2 C 0.0992(12) 0.5663(6) 0.3822(3)
H39_2 H 0.0331 0.5714 0.3840
C58_2 C 0.1509(10) 0.5906(6) 0.3604(3)
H40_2 H 0.1183 0.6087 0.3461
C59_2 C 0.2500(10) 0.5882(5) 0.3597(3)
C60_2 C 0.3069(11) 0.6164(5) 0.3358(3)
C61_2 C 0.1194(12) 0.6736(5) 0.2325(3)
H41_2 H 0.0540 0.6670 0.2300
C62_2 C 0.1646(10) 0.6625(6) 0.2594(3)
H42_2 H 0.1289 0.6495 0.2751
C63_2 C 0.2650(11) 0.7054(6) 0.2155(3)
H43_2 H 0.2978 0.7225 0.2008
C64_2 C 0.3151(11) 0.6923(6) 0.2424(3)
H44_2 H 0.3805 0.6986 0.2453
C65_2 C 0.2619(10) 0.6704(5) 0.2630(3)
C66_2 C 0.3120(12) 0.6532(5) 0.2918(3)
C67 C 0.6987(11) 0.6914(6) 0.3105(3)
H45 H 0.7397 0.7006 0.2949
C68 C 0.6023(10) 0.6774(5) 0.3022(3)
H46 H 0.5796 0.6782 0.2824
C69 C 0.6745(11) 0.6781(5) 0.3602(3)
H47 H 0.6983 0.6787 0.3799
C70 C 0.5822(10) 0.6631(5) 0.3560(3)
H48 H 0.5449 0.6534 0.3723
C71 C 0.5444(9) 0.6622(4) 0.3272(3)
C72_2 C 0.4467(10) 0.6490(5) 0.3214(3)
N15_2 N 0.3466(9) 0.3666(4) 0.6480(3)
N16_2 N 0.3305(10) 0.7126(4) 0.6364(3)
N17_2 N 0.1420(9) 0.5089(5) 0.4687(3)
N18_2 N 0.3095(8) 0.5383(4) 0.6142(2)
N19_2 N 0.2683(9) 0.5733(4) 0.5681(2)
N20_2 N 0.2719(8) 0.4918(4) 0.5721(2)
N21_2 N 0.1414(8) 0.5366(5) 0.3999(2)
N23 N 0.7341(8) 0.6925(4) 0.3377(2)
N24_2 N 0.2587(10) 0.6310(5) 0.3119(2)
N25_2 N 0.4029(8) 0.6649(4) 0.2948(2)
N26_2 N 0.3991(9) 0.6228(4) 0.3412(3)
Zn10 Zn 0.86713(13) 0.72077(6) 0.34775(4)
N28_2 N 0.2341(8) 0.8075(4) 0.6623(2)
C67_2 C 0.1987(11) 0.8086(6) 0.6895(3)
H45_2 H 0.2397 0.7994 0.7051
C68_2 C 0.1023(10) 0.8226(5) 0.6978(3)
H46_2 H 0.0796 0.8218 0.7176
C69_2 C 0.1745(11) 0.8219(5) 0.6398(3)
H47_2 H 0.1983 0.8213 0.6201
C70_2 C 0.0822(10) 0.8369(5) 0.6440(3)
H48_2 H 0.0449 0.8466 0.6277
C71_2 C 0.0444(9) 0.8378(4) 0.6728(3)
Zn6_3 Zn 0.56117(12) 0.00279(6) 0.56972(3)
Zn7_2 Zn 0.88741(13) 0.19710(6) 0.33274(4)
I7_3 I 0.56918(9) 0.09150(4) 0.58142(2)
I10_3 I 0.80359(9) 0.26189(4) 0.36262(2)
C37_3 C 0.8269(10) 0.1324(6) 0.3811(3)
H25_3 H 0.8274 0.1608 0.3918
C38_3 C 0.8061(11) 0.0923(5) 0.3958(3)
H26_3 H 0.7859 0.0940 0.4158
C39_3 C 0.8540(11) 0.0919(6) 0.3378(3)
H27_3 H 0.8710 0.0918 0.3175
C40_3 C 0.8371(10) 0.0480(5) 0.3522(3)
H28_3 H 0.8417 0.0198 0.3415
C41_3 C 0.8140(9) 0.0477(5) 0.3819(3)
C42_3 C 0.7971(10) 0.0031(5) 0.4001(3)
C51_3 C 0.6866(10) 0.0247(5) 0.5162(3)
H35_3 H 0.6925 0.0544 0.5252
C52_3 C 0.7247(11) 0.0187(6) 0.4881(3)
H36_3 H 0.7527 0.0443 0.4782
N15_3 N 0.8466(9) 0.1334(4) 0.3520(3)
N20_3 N 0.7719(8) 0.0082(4) 0.4279(2)
N27_2 N 0.8319(9) 0.1934(4) 0.2893(3)
I8_2 I 0.39882(8) 0.96212(5) 0.56212(2)
I11_3 I 0.95791(9) 0.72856(5) 0.29755(3)
I12_3 I 0.93941(10) 0.67747(4) 0.39320(3)
C43_3 C 0.8491(11) 0.8265(5) 0.3472(3)
H29_3 H 0.8713 0.8233 0.3275
C44_3 C 0.8354(10) 0.8731(5) 0.3596(3)
H30_3 H 0.8490 0.8998 0.3481
C45_3 C 0.8018(13) 0.7925(5) 0.3913(4)
H31_3 H 0.7920 0.7653 0.4028
C46_3 C 0.7849(12) 0.8362(6) 0.4047(4)
H32_3 H 0.7622 0.8375 0.4245
C47_3 C 0.8015(10) 0.8779(5) 0.3890(3)
C48_3 C 0.7962(11) 0.9251(5) 0.4027(3)
C49_3 C 0.6432(12) 0.9467(6) 0.5183(3)
H33_3 H 0.6156 0.9212 0.5285
C50_3 C 0.6824(13) 0.9400(7) 0.4920(4)
H34_3 H 0.6841 0.9094 0.4842
C53_3 C 0.7222(10) 0.9769(5) 0.4750(3)
C54_3 C 0.7570(9) 0.9694(5) 0.4431(3)
C55_3 C 0.7373(11) 0.9664(7) 0.5995(4)
H37_3 H 0.7664 0.9851 0.5847
C56_3 C 0.7954(12) 0.9429(6) 0.6200(3)
H38_3 H 0.8620 0.9476 0.6204
C57_3 C 0.5992(12) 0.9337(6) 0.6178(3)
H39_3 H 0.5331 0.9286 0.6160
C58_3 C 0.6509(10) 0.9094(6) 0.6396(3)
H40_3 H 0.6183 0.8913 0.6539
C59_3 C 0.7500(10) 0.9118(5) 0.6403(3)
C60_3 C 0.8069(11) 0.8836(5) 0.6642(3)
C61_3 C 0.6194(12) 0.8264(5) 0.7675(3)
H41_3 H 0.5540 0.8330 0.7700
C62_3 C 0.6646(10) 0.8375(6) 0.7406(3)
H42_3 H 0.6289 0.8505 0.7249
C63_3 C 0.7650(11) 0.7946(6) 0.7845(3)
H43_3 H 0.7978 0.7775 0.7992
C64_3 C 0.8151(11) 0.8077(6) 0.7576(3)
H44_3 H 0.8805 0.8014 0.7547
C65_3 C 0.7619(10) 0.8296(5) 0.7370(3)
C66_3 C 0.8120(12) 0.8468(5) 0.7082(3)
C72_3 C 0.9467(10) 0.8510(5) 0.6786(3)
N16_3 N 0.8305(10) 0.7874(4) 0.3636(3)
N17_3 N 0.6420(9) 0.9911(5) 0.5313(3)
N18_3 N 0.8095(8) 0.9617(4) 0.3858(2)
N19_3 N 0.7683(9) 0.9267(4) 0.4319(2)
N21_3 N 0.6414(8) 0.9634(5) 0.6001(2)
N22_2 N 0.6681(9) 0.8066(4) 0.7893(3)
N24_3 N 0.7587(10) 0.8690(5) 0.6881(2)
N25_3 N 0.9029(8) 0.8351(4) 0.7052(2)
N26_3 N 0.8991(9) 0.8772(4) 0.6588(3)
Zn9_2 Zn 0.61259(13) 0.80290(6) 0.83274(4)
C49_4 C 0.8568(12) 0.0533(6) 0.0183(3)
H33_4 H 0.8844 0.0788 0.0285
C55_4 C 0.7627(11) 0.0336(7) 0.0995(4)
H37_4 H 0.7336 0.0149 0.0847
C56_4 C 0.7046(12) 0.0571(6) 0.1200(3)
H38_4 H 0.6380 0.0524 0.1204
C57_4 C 0.9008(12) 0.0663(6) 0.1178(3)
H39_4 H 0.9669 0.0714 0.1160
C58_4 C 0.8491(10) 0.0906(6) 0.1396(3)
H40_4 H 0.8817 0.1087 0.1539
C59_4 C 0.7500(10) 0.0882(5) 0.1403(3)
C60_4 C 0.6931(11) 0.1164(5) 0.1642(3)
C61_4 C 0.8806(12) 0.1736(5) 0.2675(3)
H41_4 H 0.9460 0.1670 0.2700
C62_4 C 0.8354(10) 0.1625(6) 0.2406(3)
H42_4 H 0.8711 0.1495 0.2249
C63_4 C 0.7350(11) 0.2054(6) 0.2845(3)
H43_4 H 0.7022 0.2225 0.2992
C64_4 C 0.6849(11) 0.1923(6) 0.2576(3)
H44_4 H 0.6195 0.1986 0.2547
C65_4 C 0.7381(10) 0.1704(5) 0.2370(3)
C66_4 C 0.6880(12) 0.1532(5) 0.2082(3)
C67_3 C 0.3013(11) 0.1914(6) 0.1895(3)
H45_3 H 0.2603 0.2006 0.2051
C68_3 C 0.3977(10) 0.1774(5) 0.1978(3)
H46_3 H 0.4204 0.1782 0.2176
C69_3 C 0.3255(11) 0.1781(5) 0.1398(3)
H47_3 H 0.3017 0.1787 0.1201
C70_3 C 0.4178(10) 0.1631(5) 0.1440(3)
H48_3 H 0.4551 0.1534 0.1277
C71_3 C 0.4556(9) 0.1622(4) 0.1728(3)
C72_4 C 0.5533(10) 0.1490(5) 0.1786(3)
N17_4 N 0.8580(9) 0.0089(5) 0.0313(3)
N21_4 N 0.8586(8) 0.0366(5) 0.1001(2)
N24_4 N 0.7413(10) 0.1310(5) 0.1881(2)
N25_4 N 0.5971(8) 0.1649(4) 0.2052(2)
N26_4 N 0.6009(9) 0.1228(4) 0.1588(3)
I9_2 I 0.42715(8) 0.80682(4) 0.82879(3)
I10_4 I 0.69641(9) 0.73811(4) 0.86262(2)
C37_4 C 0.6731(10) 0.8676(6) 0.8811(3)
H25_4 H 0.6726 0.8392 0.8918
C38_4 C 0.6939(11) 0.9077(5) 0.8958(3)
H26_4 H 0.7141 0.9060 0.9158
C39_4 C 0.6460(11) 0.9081(6) 0.8378(3)
H27_4 H 0.6290 0.9082 0.8175
C40_4 C 0.6629(10) 0.9520(5) 0.8522(3)
H28_4 H 0.6583 0.9802 0.8415
C41_4 C 0.6860(9) 0.9523(5) 0.8819(3)
C42_4 C 0.7029(10) 0.9969(5) 0.9001(3)
C52_4 C 0.7753(11) 0.9813(6) 0.9881(3)
H36_4 H 0.7473 0.9557 0.9782
N15_4 N 0.6534(9) 0.8666(4) 0.8520(3)
N20_4 N 0.7281(8) 0.9918(4) 0.9279(2)
I9_3 I 0.92715(8) 0.69318(4) 0.17121(3)
C67_4 C 0.8013(11) 0.3086(6) 0.8105(3)
H45_4 H 0.7603 0.2994 0.7949
C68_4 C 0.8977(10) 0.3226(5) 0.8022(3)
H46_4 H 0.9204 0.3218 0.7824
C69_4 C 0.8255(11) 0.3219(5) 0.8602(3)
H47_4 H 0.8017 0.3213 0.8799
C70_4 C 0.9178(10) 0.3369(5) 0.8560(3)
H48_4 H 0.9551 0.3466 0.8723
C71_4 C 0.9556(9) 0.3378(4) 0.8272(3)
N23_2 N 0.7659(8) 0.3075(4) 0.8377(2)
Zn10_2 Zn 0.63287(13) 0.27923(6) 0.84775(4)
I11_4 I 0.54209(9) 0.27144(5) 0.79755(3)
I12_4 I 0.56059(10) 0.32253(4) 0.89320(3)
C43_4 C 0.6509(11) 0.1735(5) 0.8472(3)
H29_4 H 0.6287 0.1767 0.8275
C44_4 C 0.6646(10) 0.1269(5) 0.8596(3)
H30_4 H 0.6510 0.1002 0.8481
C45_4 C 0.6982(13) 0.2075(5) 0.8913(4)
H31_4 H 0.7080 0.2347 0.9028
C46_4 C 0.7151(12) 0.1638(6) 0.9047(4)
H32_4 H 0.7378 0.1625 0.9245
C47_4 C 0.6985(10) 0.1221(5) 0.8890(3)
C48_4 C 0.7038(11) 0.0749(5) 0.9027(3)
C50_4 C 0.8176(13) 0.0600(7) 0.9920(4)
H34_4 H 0.8159 0.0906 0.9842
C53_4 C 0.7778(10) 0.0231(5) 0.9750(3)
C54_4 C 0.7430(9) 0.0306(5) 0.9431(3)
N16_4 N 0.6695(10) 0.2126(4) 0.8636(3)
N18_4 N 0.6905(8) 0.0383(4) 0.8858(2)
N19_4 N 0.7317(9) 0.0733(4) 0.9319(2)
I8_3 I 0.89882(8) 0.53788(5) 0.43788(2)
I9_4 I 0.07285(8) 0.19318(4) 0.32879(3)
I8_4 I 0.10118(8) 0.03788(5) 0.06212(2)
Zn6_4 Zn 0.93883(12) 0.99721(6) 0.06972(3)
I7_4 I 0.93082(9) 0.90850(4) 0.08142(2)
C51_4 C 0.8134(10) 0.9753(5) 0.0162(3)
H35_4 H 0.8075 0.9456 0.0252
loop_
_geom_bond_atom_site_label_1
_geom_bond_atom_site_label_2
_geom_bond_site_symmetry_1
_geom_bond_site_symmetry_2
C27 H19 1_555 1_555
H20 C28 1_555 1_555
C31 H21 1_555 1_555
C32 C31 1_555 1_555
H22 C32 1_555 1_555
C33 H23 1_555 1_555
C34 C33 1_555 1_555
H24 C34 1_555 1_555
C35 C32 1_555 1_555
C36 C35 1_555 1_555
N9 C31 1_555 1_555
Zn5 N9 1_555 1_555
C33 N9 1_555 1_555
C34 C35 1_555 1_555
C36 N11 1_555 1_555
C19 H13 1_555 1_555
C20 C19 1_555 1_555
H14 C20 1_555 1_555
C21 H15 1_555 1_555
C22 C21 1_555 1_555
H16 C22 1_555 1_555
C23 C20 1_555 1_555
C24 C23 1_555 1_555
H18 C26 1_555 1_555
C29 C26 1_555 1_555
C30 C29 1_555 1_555
N7 C19 1_555 1_555
N10 C24 1_555 1_555
N12 C24 1_555 1_555
Zn4 N7 1_555 1_555
C21 N7 1_555 1_555
C22 C23 1_555 1_555
C30 N10 1_555 1_555
Zn2 I3 1_555 1_555
I4 Zn2 1_555 1_555
C13 H9 1_555 1_555
C14 C13 1_555 1_555
H10 C14 1_555 1_555
C15 H11 1_555 1_555
C16 C15 1_555 1_555
H12 C16 1_555 1_555
C17 C14 1_555 1_555
N3 Zn2 1_555 1_555
N13 Zn2 1_555 1_555
C13 N3 1_555 1_555
C15 N3 1_555 1_555
C16 C17 1_555 1_555
Zn2_2 I3_2 1_555 1_555
I4_2 Zn2_2 1_555 1_555
I6 Zn5 1_555 1_555
C1 H1 1_555 1_555
C2 C1 1_555 1_555
H2 C2 1_555 1_555
C3 H3 1_555 1_555
C4 C3 1_555 1_555
H4 C4 1_555 1_555
C5 C2 1_555 1_555
C6 C5 1_555 1_555
C7 H5 1_555 1_555
C8 C7 1_555 1_555
H6 C8 1_555 1_555
C9 H7 1_555 1_555
C10 C9 1_555 1_555
H8 C10 1_555 1_555
C11 C8 1_555 1_555
C12 C11 1_555 1_555
C13_2 H9_2 1_555 1_555
C14_2 C13_2 1_555 1_555
H10_2 C14_2 1_555 1_555
C15_2 H11_2 1_555 1_555
C16_2 C15_2 1_555 1_555
H12_2 C16_2 1_555 1_555
C17_2 C14_2 1_555 1_555
C18 C17_2 1_555 1_555
C19_2 H13_2 1_555 1_555
C20_2 C19_2 1_555 1_555
H14_2 C20_2 1_555 1_555
C21_2 H15_2 1_555 1_555
C22_2 C21_2 1_555 1_555
H16_2 C22_2 1_555 1_555
C23_2 C20_2 1_555 1_555
C24_2 C23_2 1_555 1_555
C25 H17 1_555 1_555
C26_2 C25 1_555 1_555
H18_2 C26_2 1_555 1_555
C29_2 C26_2 1_555 1_555
C30_2 C29_2 1_555 1_555
N1 Zn5 1_555 1_555
N2 Zn1 1_555 1_555
N3_2 Zn2_2 1_555 1_555
N4 C6 1_555 1_555
N5 C12 1_555 1_555
N6 C6 1_555 1_555
N7_2 C19_2 1_555 1_555
N8 Zn1 1_555 1_555
N10_2 C24_2 1_555 1_555
N12_2 C24_2 1_555 1_555
Zn4_2 N7_2 1_555 1_555
N13_2 Zn2_2 1_555 1_555
C1 N1 1_555 1_555
C3 N1 1_555 1_555
C4 C5 1_555 1_555
C7 N2 1_555 1_555
C9 N2 1_555 1_555
C10 C11 1_555 1_555
C12 N4 1_555 1_555
C13_2 N3_2 1_555 1_555
C15_2 N3_2 1_555 1_555
C16_2 C17_2 1_555 1_555
C18 N5 1_555 1_555
C18 N6 1_555 1_555
C21_2 N7_2 1_555 1_555
C22_2 C23_2 1_555 1_555
C25 N8 1_555 1_555
C30_2 N10_2 1_555 1_555
Zn4_2 I3_3 1_555 1_555
I4_3 Zn4_2 1_555 1_555
C13_3 H9_3 1_555 1_555
C14_3 C13_3 1_555 1_555
H10_3 C14_3 1_555 1_555
C15_3 H11_3 1_555 1_555
C16_3 C15_3 1_555 1_555
H12_3 C16_3 1_555 1_555
C17_3 C14_3 1_555 1_555
N3_3 Zn4_2 1_555 1_555
C13_3 N3_3 1_555 1_555
C15_3 N3_3 1_555 1_555
C16_3 C17_3 1_555 1_555
Zn1_2 I1_2 1_555 1_555
Zn3 I5 1_555 1_555
I2 Zn1_2 1_555 1_555
I6_2 Zn3 1_555 1_555
C1_2 H1_2 1_555 1_555
C2_2 C1_2 1_555 1_555
H2_2 C2_2 1_555 1_555
C3_2 H3_2 1_555 1_555
C4_2 C3_2 1_555 1_555
H4_2 C4_2 1_555 1_555
C5_2 C2_2 1_555 1_555
C6_2 C5_2 1_555 1_555
C7_2 H5_2 1_555 1_555
C8_2 C7_2 1_555 1_555
H6_2 C8_2 1_555 1_555
C9_2 H7_2 1_555 1_555
C10_2 C9_2 1_555 1_555
H8_2 C10_2 1_555 1_555
C11_2 C8_2 1_555 1_555
C12_2 C11_2 1_555 1_555
C19_3 H13_3 1_555 1_555
C20_3 C19_3 1_555 1_555
H14_3 C20_3 1_555 1_555
C21_3 H15_3 1_555 1_555
C22_3 C21_3 1_555 1_555
H16_3 C22_3 1_555 1_555
C23_3 C20_3 1_555 1_555
C24_3 C23_3 1_555 1_555
C25_2 H17_2 1_555 1_555
C26_3 C25_2 1_555 1_555
H18_3 C26_3 1_555 1_555
C27_2 H19_2 1_555 1_555
C28_2 C27_2 1_555 1_555
H20_2 C28_2 1_555 1_555
C29_3 C26_3 1_555 1_555
C30_3 C29_3 1_555 1_555
C31_2 H21_2 1_555 1_555
C32_2 C31_2 1_555 1_555
H22_2 C32_2 1_555 1_555
C33_2 H23_2 1_555 1_555
C34_2 C33_2 1_555 1_555
H24_2 C34_2 1_555 1_555
C35_2 C32_2 1_555 1_555
C36_2 C35_2 1_555 1_555
N1_2 Zn3 1_555 1_555
N2_2 Zn1_2 1_555 1_555
N4_2 C6_2 1_555 1_555
N5_2 C12_2 1_555 1_555
N6_2 C6_2 1_555 1_555
N13_2 C19_3 1_555 1_555
N8_2 Zn1_2 1_555 1_555
N9_2 C31_2 1_555 1_555
N10_3 C24_3 1_555 1_555
N11_2 C30_3 1_555 1_555
N12_3 C24_3 1_555 1_555
Zn5_2 N9_2 1_555 1_555
N14 Zn3 1_555 1_555
C1_2 N1_2 1_555 1_555
C3_2 N1_2 1_555 1_555
C4_2 C5_2 1_555 1_555
C7_2 N2_2 1_555 1_555
C9_2 N2_2 1_555 1_555
C10_2 C11_2 1_555 1_555
C12_2 N4_2 1_555 1_555
C18_2 N5_2 1_555 1_555
C18_2 N6_2 1_555 1_555
C21_3 N13_2 1_555 1_555
C22_3 C23_3 1_555 1_555
C25_2 N8_2 1_555 1_555
C27_2 N8_2 1_555 1_555
C28_2 C29_3 1_555 1_555
C30_3 N10_3 1_555 1_555
C33_2 N9_2 1_555 1_555
C34_2 C35_2 1_555 1_555
C36_2 N11_2 1_555 1_555
C36_2 N12_3 1_555 1_555
C19_4 H13_4 1_555 1_555
C20_4 C19_4 1_555 1_555
H14_4 C20_4 1_555 1_555
C21_4 H15_4 1_555 1_555
C22_4 C21_4 1_555 1_555
H16_4 C22_4 1_555 1_555
C23_4 C20_4 1_555 1_555
C24_4 C23_4 1_555 1_555
H18_4 C26_4 1_555 1_555
H20_3 C28_3 1_555 1_555
C29_4 C26_4 1_555 1_555
C30_4 C29_4 1_555 1_555
C31_3 H21_3 1_555 1_555
C32_3 C31_3 1_555 1_555
H22_3 C32_3 1_555 1_555
C33_3 H23_3 1_555 1_555
C34_3 C33_3 1_555 1_555
H24_3 C34_3 1_555 1_555
C35_3 C32_3 1_555 1_555
C36_3 C35_3 1_555 1_555
N13 C19_4 1_555 1_555
N14 C31_3 1_555 1_555
N10_4 C24_4 1_555 1_555
N11_3 C30_4 1_555 1_555
N12_4 C24_4 1_555 1_555
C21_4 N13 1_555 1_555
C22_4 C23_4 1_555 1_555
C28_3 C29_4 1_555 1_555
C30_4 N10_4 1_555 1_555
C33_3 N14 1_555 1_555
C34_3 C35_3 1_555 1_555
C36_3 N11_3 1_555 1_555
C36_3 N12_4 1_555 1_555
Zn1_3 I1_3 1_555 1_555
Zn4 I3_4 1_555 1_555
I4_4 Zn4 1_555 1_555
I6_3 Zn5_2 1_555 1_555
C1_3 H1_3 1_555 1_555
C2_3 C1_3 1_555 1_555
H2_3 C2_3 1_555 1_555
C3_3 H3_3 1_555 1_555
C4_3 C3_3 1_555 1_555
H4_3 C4_3 1_555 1_555
C5_3 C2_3 1_555 1_555
C6_3 C5_3 1_555 1_555
C7_3 H5_3 1_555 1_555
C8_3 C7_3 1_555 1_555
H6_3 C8_3 1_555 1_555
C9_3 H7_3 1_555 1_555
C10_3 C9_3 1_555 1_555
H8_3 C10_3 1_555 1_555
C11_3 C8_3 1_555 1_555
C12_3 C11_3 1_555 1_555
C13_4 H9_4 1_555 1_555
C14_4 C13_4 1_555 1_555
H10_4 C14_4 1_555 1_555
C15_4 H11_4 1_555 1_555
C16_4 C15_4 1_555 1_555
H12_4 C16_4 1_555 1_555
C17_4 C14_4 1_555 1_555
C18_3 C17_4 1_555 1_555
C25_3 H17_3 1_555 1_555
C27_3 H19_3 1_555 1_555
N1_3 Zn5_2 1_555 1_555
N2_3 Zn1_3 1_555 1_555
N3_4 Zn4 1_555 1_555
N4_3 C6_3 1_555 1_555
N5_3 C12_3 1_555 1_555
N6_3 C6_3 1_555 1_555
N8_3 Zn1_3 1_555 1_555
C1_3 N1_3 1_555 1_555
C3_3 N1_3 1_555 1_555
C4_3 C5_3 1_555 1_555
C7_3 N2_3 1_555 1_555
C9_3 N2_3 1_555 1_555
C10_3 C11_3 1_555 1_555
C12_3 N4_3 1_555 1_555
C13_4 N3_4 1_555 1_555
C15_4 N3_4 1_555 1_555
C16_4 C17_4 1_555 1_555
C18_3 N5_3 1_555 1_555
C18_3 N6_3 1_555 1_555
C25_3 N8_3 1_555 1_555
C27_3 N8_3 1_555 1_555
Zn3_2 I5_2 1_555 1_555
I2_2 Zn1_4 1_555 1_555
I6_4 Zn3_2 1_555 1_555
C1_4 H1_4 1_555 1_555
C2_4 C1_4 1_555 1_555
H2_4 C2_4 1_555 1_555
C3_4 H3_4 1_555 1_555
C4_4 C3_4 1_555 1_555
H4_4 C4_4 1_555 1_555
C5_4 C2_4 1_555 1_555
C6_4 C5_4 1_555 1_555
C7_4 H5_4 1_555 1_555
C8_4 C7_4 1_555 1_555
H6_4 C8_4 1_555 1_555
C9_4 H7_4 1_555 1_555
C10_4 C9_4 1_555 1_555
H8_4 C10_4 1_555 1_555
C11_4 C8_4 1_555 1_555
C12_4 C11_4 1_555 1_555
C25_4 H17_4 1_555 1_555
N1_4 Zn3_2 1_555 1_555
N2_4 Zn1_4 1_555 1_555
N4_4 C6_4 1_555 1_555
N5_4 C12_4 1_555 1_555
N6_4 C6_4 1_555 1_555
N8_4 Zn1_4 1_555 1_555
N14_2 Zn3_2 1_555 1_555
C1_4 N1_4 1_555 1_555
C3_4 N1_4 1_555 1_555
C4_4 C5_4 1_555 1_555
C7_4 N2_4 1_555 1_555
C9_4 N2_4 1_555 1_555
C10_4 C11_4 1_555 1_555
C12_4 N4_4 1_555 1_555
C18_4 N5_4 1_555 1_555
C18_4 N6_4 1_555 1_555
C25_4 N8_4 1_555 1_555
C27_4 H19_4 1_555 1_555
C28_4 C27_4 1_555 1_555
H20_4 C28_4 1_555 1_555
C31_4 H21_4 1_555 1_555
C32_4 C31_4 1_555 1_555
H22_4 C32_4 1_555 1_555
C33_4 H23_4 1_555 1_555
C34_4 C33_4 1_555 1_555
H24_4 C34_4 1_555 1_555
C35_4 C32_4 1_555 1_555
C36_4 C35_4 1_555 1_555
N14_2 C31_4 1_555 1_555
C33_4 N14_2 1_555 1_555
C34_4 C35_4 1_555 1_555
C36_4 N11_4 1_555 1_555
Zn8 I11 1_555 1_555
I10 Zn7 1_555 1_555
I12 Zn8 1_555 1_555
C37 H25 1_555 1_555
C38 C37 1_555 1_555
H26 C38 1_555 1_555
C39 H27 1_555 1_555
C40 C39 1_555 1_555
H28 C40 1_555 1_555
C41 C38 1_555 1_555
C42 C41 1_555 1_555
C43 H29 1_555 1_555
C44 C43 1_555 1_555
H30 C44 1_555 1_555
C45 H31 1_555 1_555
C46 C45 1_555 1_555
H32 C46 1_555 1_555
C47 C44 1_555 1_555
C48 C47 1_555 1_555
H34 C50 1_555 1_555
H36 C52 1_555 1_555
C53 C50 1_555 1_555
C54 C53 1_555 1_555
N15 Zn7 1_555 1_555
N16 Zn8 1_555 1_555
N18 C42 1_555 1_555
N19 C48 1_555 1_555
N20 C42 1_555 1_555
N27 Zn7 1_555 1_555
N28 Zn8 1_555 1_555
C37 N15 1_555 1_555
C39 N15 1_555 1_555
C40 C41 1_555 1_555
C43 N16 1_555 1_555
C45 N16 1_555 1_555
C46 C47 1_555 1_555
C48 N18 1_555 1_555
C52 C53 1_555 1_555
C54 N19 1_555 1_555
C54 N20 1_555 1_555
Zn6 I7 1_555 1_555
I8 Zn6 1_555 1_555
C49 H33 1_555 1_555
C51 H35 1_555 1_555
C55 H37 1_555 1_555
C56 C55 1_555 1_555
H38 C56 1_555 1_555
C57 H39 1_555 1_555
C58 C57 1_555 1_555
H40 C58 1_555 1_555
C59 C56 1_555 1_555
C60 C59 1_555 1_555
C61 H41 1_555 1_555
C62 C61 1_555 1_555
H42 C62 1_555 1_555
C63 H43 1_555 1_555
C64 C63 1_555 1_555
H44 C64 1_555 1_555
C65 C62 1_555 1_555
C66 C65 1_555 1_555
N17 Zn6 1_555 1_555
N21 Zn6 1_555 1_555
N22 C61 1_555 1_555
N24 C60 1_555 1_555
N25 C66 1_555 1_555
N26 C60 1_555 1_555
Zn9 N22 1_555 1_555
C49 N17 1_555 1_555
C51 N17 1_555 1_555
C55 N21 1_555 1_555
C57 N21 1_555 1_555
C58 C59 1_555 1_555
C63 N22 1_555 1_555
C64 C65 1_555 1_555
C66 N24 1_555 1_555
C72 N25 1_555 1_555
C72 N26 1_555 1_555
Zn6_2 I7_2 1_555 1_555
Zn9 I9 1_555 1_555
Zn8_2 I11_2 1_555 1_555
I10_2 Zn9 1_555 1_555
I12_2 Zn8_2 1_555 1_555
C37_2 H25_2 1_555 1_555
C38_2 C37_2 1_555 1_555
H26_2 C38_2 1_555 1_555
C39_2 H27_2 1_555 1_555
C40_2 C39_2 1_555 1_555
H28_2 C40_2 1_555 1_555
C41_2 C38_2 1_555 1_555
C42_2 C41_2 1_555 1_555
C43_2 H29_2 1_555 1_555
C44_2 C43_2 1_555 1_555
H30_2 C44_2 1_555 1_555
C45_2 H31_2 1_555 1_555
C46_2 C45_2 1_555 1_555
H32_2 C46_2 1_555 1_555
C47_2 C44_2 1_555 1_555
C48_2 C47_2 1_555 1_555
C49_2 H33_2 1_555 1_555
C50_2 C49_2 1_555 1_555
H34_2 C50_2 1_555 1_555
C51_2 H35_2 1_555 1_555
C52_2 C51_2 1_555 1_555
H36_2 C52_2 1_555 1_555
C53_2 C50_2 1_555 1_555
C54_2 C53_2 1_555 1_555
C55_2 H37_2 1_555 1_555
C56_2 C55_2 1_555 1_555
H38_2 C56_2 1_555 1_555
C57_2 H39_2 1_555 1_555
C58_2 C57_2 1_555 1_555
H40_2 C58_2 1_555 1_555
C59_2 C56_2 1_555 1_555
C60_2 C59_2 1_555 1_555
C61_2 H41_2 1_555 1_555
C62_2 C61_2 1_555 1_555
H42_2 C62_2 1_555 1_555
C63_2 H43_2 1_555 1_555
C64_2 C63_2 1_555 1_555
H44_2 C64_2 1_555 1_555
C65_2 C62_2 1_555 1_555
C66_2 C65_2 1_555 1_555
C67 H45 1_555 1_555
C68 C67 1_555 1_555
H46 C68 1_555 1_555
C69 H47 1_555 1_555
C70 C69 1_555 1_555
H48 C70 1_555 1_555
C71 C68 1_555 1_555
C72_2 C71 1_555 1_555
N15_2 Zn9 1_555 1_555
N16_2 Zn8_2 1_555 1_555
N17_2 Zn6_2 1_555 1_555
N18_2 C42_2 1_555 1_555
N19_2 C48_2 1_555 1_555
N20_2 C42_2 1_555 1_555
N21_2 Zn6_2 1_555 1_555
N27 C61_2 1_555 1_555
N23 C67 1_555 1_555
N24_2 C60_2 1_555 1_555
N25_2 C66_2 1_555 1_555
N26_2 C60_2 1_555 1_555
Zn10 N23 1_555 1_555
N28_2 Zn8_2 1_555 1_555
C37_2 N15_2 1_555 1_555
C39_2 N15_2 1_555 1_555
C40_2 C41_2 1_555 1_555
C43_2 N16_2 1_555 1_555
C45_2 N16_2 1_555 1_555
C46_2 C47_2 1_555 1_555
C48_2 N18_2 1_555 1_555
C49_2 N17_2 1_555 1_555
C51_2 N17_2 1_555 1_555
C52_2 C53_2 1_555 1_555
C54_2 N19_2 1_555 1_555
C54_2 N20_2 1_555 1_555
C55_2 N21_2 1_555 1_555
C57_2 N21_2 1_555 1_555
C58_2 C59_2 1_555 1_555
C63_2 N27 1_555 1_555
C64_2 C65_2 1_555 1_555
C66_2 N24_2 1_555 1_555
C69 N23 1_555 1_555
C70 C71 1_555 1_555
C72_2 N25_2 1_555 1_555
C72_2 N26_2 1_555 1_555
C67_2 H45_2 1_555 1_555
C68_2 C67_2 1_555 1_555
H46_2 C68_2 1_555 1_555
C69_2 H47_2 1_555 1_555
C70_2 C69_2 1_555 1_555
H48_2 C70_2 1_555 1_555
C71_2 C68_2 1_555 1_555
N28_2 C67_2 1_555 1_555
C69_2 N28_2 1_555 1_555
C70_2 C71_2 1_555 1_555
Zn6_3 I7_3 1_555 1_555
I10_3 Zn7_2 1_555 1_555
C37_3 H25_3 1_555 1_555
C38_3 C37_3 1_555 1_555
H26_3 C38_3 1_555 1_555
C39_3 H27_3 1_555 1_555
C40_3 C39_3 1_555 1_555
H28_3 C40_3 1_555 1_555
C41_3 C38_3 1_555 1_555
C42_3 C41_3 1_555 1_555
C51_3 H35_3 1_555 1_555
C52_3 C51_3 1_555 1_555
H36_3 C52_3 1_555 1_555
N15_3 Zn7_2 1_555 1_555
N20_3 C42_3 1_555 1_555
N27_2 Zn7_2 1_555 1_555
C37_3 N15_3 1_555 1_555
C39_3 N15_3 1_555 1_555
C40_3 C41_3 1_555 1_555
Zn10 I11_3 1_555 1_555
I12_3 Zn10 1_555 1_555
C43_3 H29_3 1_555 1_555
C44_3 C43_3 1_555 1_555
H30_3 C44_3 1_555 1_555
C45_3 H31_3 1_555 1_555
C46_3 C45_3 1_555 1_555
H32_3 C46_3 1_555 1_555
C47_3 C44_3 1_555 1_555
C48_3 C47_3 1_555 1_555
C49_3 H33_3 1_555 1_555
C50_3 C49_3 1_555 1_555
H34_3 C50_3 1_555 1_555
C53_3 C50_3 1_555 1_555
C54_3 C53_3 1_555 1_555
C55_3 H37_3 1_555 1_555
C56_3 C55_3 1_555 1_555
H38_3 C56_3 1_555 1_555
C57_3 H39_3 1_555 1_555
C58_3 C57_3 1_555 1_555
H40_3 C58_3 1_555 1_555
C59_3 C56_3 1_555 1_555
C60_3 C59_3 1_555 1_555
C61_3 H41_3 1_555 1_555
C62_3 C61_3 1_555 1_555
H42_3 C62_3 1_555 1_555
C63_3 H43_3 1_555 1_555
C64_3 C63_3 1_555 1_555
H44_3 C64_3 1_555 1_555
C65_3 C62_3 1_555 1_555
C66_3 C65_3 1_555 1_555
N16_3 Zn10 1_555 1_555
N19_3 C48_3 1_555 1_555
N22_2 C61_3 1_555 1_555
N24_3 C60_3 1_555 1_555
N25_3 C66_3 1_555 1_555
N26_3 C60_3 1_555 1_555
Zn9_2 N22_2 1_555 1_555
C43_3 N16_3 1_555 1_555
C45_3 N16_3 1_555 1_555
C46_3 C47_3 1_555 1_555
C48_3 N18_3 1_555 1_555
C49_3 N17_3 1_555 1_555
C54_3 N19_3 1_555 1_555
C55_3 N21_3 1_555 1_555
C57_3 N21_3 1_555 1_555
C58_3 C59_3 1_555 1_555
C63_3 N22_2 1_555 1_555
C64_3 C65_3 1_555 1_555
C66_3 N24_3 1_555 1_555
C72_3 N25_3 1_555 1_555
C72_3 N26_3 1_555 1_555
C49_4 H33_4 1_555 1_555
C55_4 H37_4 1_555 1_555
C56_4 C55_4 1_555 1_555
H38_4 C56_4 1_555 1_555
C57_4 H39_4 1_555 1_555
C58_4 C57_4 1_555 1_555
H40_4 C58_4 1_555 1_555
C59_4 C56_4 1_555 1_555
C60_4 C59_4 1_555 1_555
C61_4 H41_4 1_555 1_555
C62_4 C61_4 1_555 1_555
H42_4 C62_4 1_555 1_555
C63_4 H43_4 1_555 1_555
C64_4 C63_4 1_555 1_555
H44_4 C64_4 1_555 1_555
C65_4 C62_4 1_555 1_555
C66_4 C65_4 1_555 1_555
C67_3 H45_3 1_555 1_555
C68_3 C67_3 1_555 1_555
H46_3 C68_3 1_555 1_555
C69_3 H47_3 1_555 1_555
C70_3 C69_3 1_555 1_555
H48_3 C70_3 1_555 1_555
C71_3 C68_3 1_555 1_555
C72_4 C71_3 1_555 1_555
N27_2 C61_4 1_555 1_555
N28 C67_3 1_555 1_555
N24_4 C60_4 1_555 1_555
N25_4 C66_4 1_555 1_555
N26_4 C60_4 1_555 1_555
C49_4 N17_4 1_555 1_555
C55_4 N21_4 1_555 1_555
C57_4 N21_4 1_555 1_555
C58_4 C59_4 1_555 1_555
C63_4 N27_2 1_555 1_555
C64_4 C65_4 1_555 1_555
C66_4 N24_4 1_555 1_555
C69_3 N28 1_555 1_555
C70_3 C71_3 1_555 1_555
C72_4 N25_4 1_555 1_555
C72_4 N26_4 1_555 1_555
Zn9_2 I9_2 1_555 1_555
I10_4 Zn9_2 1_555 1_555
C37_4 H25_4 1_555 1_555
C38_4 C37_4 1_555 1_555
H26_4 C38_4 1_555 1_555
C39_4 H27_4 1_555 1_555
C40_4 C39_4 1_555 1_555
H28_4 C40_4 1_555 1_555
C41_4 C38_4 1_555 1_555
C42_4 C41_4 1_555 1_555
H36_4 C52_4 1_555 1_555
N15_4 Zn9_2 1_555 1_555
N20_4 C42_4 1_555 1_555
C37_4 N15_4 1_555 1_555
C39_4 N15_4 1_555 1_555
C40_4 C41_4 1_555 1_555
C67_4 H45_4 1_555 1_555
C68_4 C67_4 1_555 1_555
H46_4 C68_4 1_555 1_555
C69_4 H47_4 1_555 1_555
C70_4 C69_4 1_555 1_555
H48_4 C70_4 1_555 1_555
C71_4 C68_4 1_555 1_555
N23_2 C67_4 1_555 1_555
Zn10_2 N23_2 1_555 1_555
C69_4 N23_2 1_555 1_555
C70_4 C71_4 1_555 1_555
Zn10_2 I11_4 1_555 1_555
I12_4 Zn10_2 1_555 1_555
C43_4 H29_4 1_555 1_555
C44_4 C43_4 1_555 1_555
H30_4 C44_4 1_555 1_555
C45_4 H31_4 1_555 1_555
C46_4 C45_4 1_555 1_555
H32_4 C46_4 1_555 1_555
C47_4 C44_4 1_555 1_555
C48_4 C47_4 1_555 1_555
H34_4 C50_4 1_555 1_555
C53_4 C50_4 1_555 1_555
C54_4 C53_4 1_555 1_555
N16_4 Zn10_2 1_555 1_555
N19_4 C48_4 1_555 1_555
C43_4 N16_4 1_555 1_555
C45_4 N16_4 1_555 1_555
C46_4 C47_4 1_555 1_555
C48_4 N18_4 1_555 1_555
C54_4 N19_4 1_555 1_555
Zn6_4 I7_4 1_555 1_555
C51_4 H35_4 1_555 1_555

#END
