
###############################################################################
#
# This file contains modified crystal structure data generated from the
# MOF subset of the Cambridge Structural Database (CSD) v543 
# hosted by the Cambridge Crystallographic Data Centre (CCDC).
#
# This work is licensed under the Creative Commons
# Attribution-NonCommercial-ShareAlike 4.0 International License.
# To view a copy of this license, visit
# http://creativecommons.org/licenses/by-nc-sa/4.0/
# or send a letter to
# Creative Commons, PO Box 1866, Mountain View, CA 94042, USA.
#
# CIF created using the CSD Python API on 29 September 2022
# The structure has been converted into the P1 space group
# The structure has a 3D framework
# The original CSD entry SOHMEI is in the orthorhombic crystal system
# The framework has been calculated to contain at least 10.0% void space
# The void calculation uses a probe of radius 1.32A, grid spacing 0.4
#
###############################################################################

data_SOHMEI
_chemical_formula_moiety         '(C288 H192 I48 N96 Zn24)n'
_symmetry_cell_setting           triclinic
_symmetry_space_group_name_H-M   'P 1'
_symmetry_Int_Tables_number      1
_space_group_name_Hall           'P 1'
loop_
_symmetry_equiv_pos_site_id
_symmetry_equiv_pos_as_xyz
1 x,y,z
_cell_length_a                   28.1745(4)
_cell_length_b                   13.8238(2)
_cell_length_c                   45.1995(8)
_cell_angle_alpha                90
_cell_angle_beta                 90
_cell_angle_gamma                90
_cell_volume                     17604.2
loop_
_atom_site_label
_atom_site_type_symbol
_atom_site_fract_x
_atom_site_fract_y
_atom_site_fract_z
N14 N 0.0537(3) 0.0040(6) 0.4204(2)
Zn2 Zn 0.76140(5) 0.16584(8) 0.18444(3)
I3 I 0.80493(3) 0.32694(5) 0.19090(2)
I4 I 0.67434(4) 0.16771(7) 0.16952(3)
C9 C 0.7768(3) 0.0208(6) 0.2817(2)
C10 C 0.7342(4) 0.0255(6) 0.2674(3)
H5 H 0.7066 0.0070 0.2772
C11 C 0.7315(4) 0.0582(7) 0.2380(2)
H6 H 0.7022 0.0572 0.2284
C12 C 0.8099(4) 0.0852(8) 0.2368(3)
H7 H 0.8366 0.1052 0.2264
C13 C 0.8152(4) 0.0533(8) 0.2645(3)
H8 H 0.8455 0.0526 0.2728
C19 C 0.5975(5) 0.0679(7) 0.5405(2)
C20 C 0.6345(4) 0.0709(7) 0.5854(2)
C21 C 0.6006(4) 0.2059(7) 0.5676(2)
C22 C 0.5819(4) 0.0153(7) 0.5138(2)
C23 C 0.5601(4) 0.0641(8) 0.4908(3)
H13 H 0.5531 0.1296 0.4924
C24 C 0.5489(4) 0.0136(9) 0.4650(3)
H14 H 0.5343 0.0463 0.4495
C27 C 0.6579(4) 0.0176(7) 0.6094(2)
C30 C 0.7035(5) 0.0118(7) 0.6536(3)
H19 H 0.7209 0.0444 0.6680
C31 C 0.6809(5) 0.0629(8) 0.6321(3)
H20 H 0.6811 0.1301 0.6328
C32 C 0.5869(4) 0.3081(7) 0.5710(2)
C33 C 0.5927(5) 0.3554(8) 0.5977(3)
H21 H 0.6069 0.3236 0.6135
C34 C 0.5776(5) 0.4492(9) 0.6009(3)
H22 H 0.5842 0.4814 0.6185
C35 C 0.5476(5) 0.4525(9) 0.5527(3)
H23 H 0.5324 0.4852 0.5374
C36 C 0.5649(5) 0.3556(9) 0.5483(3)
H24 H 0.5612 0.3254 0.5300
N5 N 0.7679(3) 0.0894(6) 0.22386(19)
N7 N 0.6208(3) 0.0198(6) 0.5612(2)
N8 N 0.6269(3) 0.1660(6) 0.5888(2)
N9 N 0.5864(4) 0.1628(6) 0.5422(2)
N12 N 0.5537(3) 0.4960(6) 0.5796(2)
Zn5 Zn 0.52205(5) 0.62742(9) 0.58663(3)
N13 N 0.7990(3) 0.0842(6) 0.1544(2)
Zn1 Zn 0.55258(5) 0.85534(11) 0.42112(3)
I1 I 0.56118(5) 0.67413(7) 0.42633(3)
I2 I 0.48776(4) 0.94638(11) 0.39343(3)
C1 C 0.7452(4) 0.9552(6) 0.3550(3)
C2 C 0.7817(4) 0.9921(6) 0.3119(2)
C3 C 0.8239(4) 0.9567(6) 0.3520(2)
C4 C 0.6995(3) 0.9389(6) 0.3720(2)
C5 C 0.7001(4) 0.9137(7) 0.4005(3)
H1 H 0.7285 0.9096 0.4110
C6 C 0.6555(4) 0.8933(8) 0.4145(2)
H2 H 0.6559 0.8742 0.4342
C7 C 0.6149(4) 0.9274(7) 0.3739(2)
H3 H 0.5857 0.9325 0.3644
C8 C 0.6564(4) 0.9498(7) 0.3578(2)
H4 H 0.6548 0.9713 0.3384
C14 C 0.8703(4) 0.9424(7) 0.3666(2)
C15 C 0.9121(4) 0.9476(8) 0.3506(3)
H9 H 0.9118 0.9630 0.3305
C16 C 0.9551(4) 0.9289(9) 0.3654(3)
H10 H 0.9829 0.9327 0.3544
C17 C 0.9159(5) 0.9008(8) 0.4095(3)
H11 H 0.9169 0.8824 0.4293
C18 C 0.8718(4) 0.9211(7) 0.3973(3)
H12 H 0.8444 0.9208 0.4088
C25 C 0.5773(5) 0.8706(8) 0.4846(3)
H15 H 0.5819 0.8041 0.4831
C26 C 0.5901(5) 0.9166(8) 0.5103(3)
H16 H 0.6042 0.8816 0.5256
C28 C 0.6587(5) 0.9186(8) 0.6106(3)
H17 H 0.6443 0.8838 0.5954
C29 C 0.6792(5) 0.8706(8) 0.6326(3)
H18 H 0.6783 0.8034 0.6326
N1 N 0.7400(3) 0.9787(5) 0.32642(18)
N2 N 0.8231(3) 0.9821(6) 0.3236(2)
N3 N 0.7848(3) 0.9409(5) 0.36918(18)
N4 N 0.6157(3) 0.8994(6) 0.4019(2)
N6 N 0.9587(3) 0.9060(6) 0.3942(2)
N10 N 0.5589(3) 0.9169(7) 0.4619(2)
N11 N 0.7010(3) 0.9158(6) 0.6544(2)
Zn4 Zn 0.73860(5) 0.83416(8) 0.68444(3)
C26_2 C 0.9099(5) 0.0834(8) 0.0103(3)
H16_2 H 0.8958 0.1184 0.0256
C28_2 C 0.8413(5) 0.0814(8) 0.1106(3)
H17_2 H 0.8557 0.1162 0.0954
C29_2 C 0.8208(5) 0.1294(8) 0.1326(3)
H18_2 H 0.8217 0.1966 0.1326
I3_2 I 0.69507(3) 0.67306(5) 0.69090(2)
I4_2 I 0.82566(4) 0.83229(7) 0.66952(3)
C9_2 C 0.7232(3) 0.9792(6) 0.7817(2)
C10_2 C 0.7658(4) 0.9745(6) 0.7674(3)
H5_2 H 0.7934 0.9930 0.7772
C11_2 C 0.7685(4) 0.9418(7) 0.7380(2)
H6_2 H 0.7978 0.9428 0.7284
C12_2 C 0.6901(4) 0.9148(8) 0.7368(3)
H7_2 H 0.6634 0.8948 0.7264
C13_2 C 0.6848(4) 0.9467(8) 0.7645(3)
H8_2 H 0.6545 0.9474 0.7728
C23_2 C 0.9399(4) 0.9359(8) 0.9908(3)
H13_2 H 0.9469 0.8704 0.9924
C24_2 C 0.9511(4) 0.9864(9) 0.9650(3)
H14_2 H 0.9657 0.9537 0.9495
N5_2 N 0.7321(3) 0.9106(6) 0.72386(19)
N14_2 N 0.4463(3) 0.9960(6) 0.9204(2)
Zn1_2 Zn 0.44742(5) 0.35534(11) 0.07888(3)
Zn2_2 Zn 0.23860(5) 0.66584(8) 0.31556(3)
I1_2 I 0.43882(5) 0.17413(7) 0.07367(3)
I2_2 I 0.51224(4) 0.44638(11) 0.10657(3)
I3_3 I 0.19507(3) 0.82694(5) 0.30910(2)
I4_3 I 0.32566(4) 0.66771(7) 0.33048(3)
C1_2 C 0.2548(4) 0.4552(6) 0.1450(3)
C2_2 C 0.2183(4) 0.4921(6) 0.1881(2)
C3_2 C 0.1761(4) 0.4567(6) 0.1480(2)
C4_2 C 0.3005(3) 0.4389(6) 0.1280(2)
C5_2 C 0.2999(4) 0.4137(7) 0.0995(3)
H1_2 H 0.2715 0.4096 0.0890
C6_2 C 0.3445(4) 0.3933(8) 0.0855(2)
H2_2 H 0.3441 0.3742 0.0658
C7_2 C 0.3851(4) 0.4274(7) 0.1261(2)
H3_2 H 0.4143 0.4325 0.1356
C8_2 C 0.3436(4) 0.4498(7) 0.1422(2)
H4_2 H 0.3452 0.4713 0.1616
C9_3 C 0.2232(3) 0.5208(6) 0.2183(2)
C10_3 C 0.2658(4) 0.5255(6) 0.2326(3)
H5_3 H 0.2934 0.5070 0.2228
C11_3 C 0.2685(4) 0.5582(7) 0.2620(2)
H6_3 H 0.2978 0.5572 0.2716
C12_3 C 0.1901(4) 0.5852(8) 0.2632(3)
H7_3 H 0.1634 0.6052 0.2736
C13_3 C 0.1848(4) 0.5533(8) 0.2355(3)
H8_3 H 0.1545 0.5526 0.2272
C14_2 C 0.1297(4) 0.4424(7) 0.1334(2)
C15_2 C 0.0879(4) 0.4476(8) 0.1494(3)
H9_2 H 0.0882 0.4630 0.1695
C16_2 C 0.0449(4) 0.4289(9) 0.1346(3)
H10_2 H 0.0171 0.4327 0.1456
C17_2 C 0.0841(5) 0.4008(8) 0.0905(3)
H11_2 H 0.0831 0.3824 0.0707
C18_2 C 0.1282(4) 0.4211(7) 0.1027(3)
H12_2 H 0.1556 0.4208 0.0912
C23_3 C 0.4399(4) 0.5641(8) 0.0092(3)
H13_3 H 0.4469 0.6296 0.0076
C24_3 C 0.4511(4) 0.5136(9) 0.0350(3)
H14_3 H 0.4657 0.5463 0.0505
C25_2 C 0.4227(5) 0.3706(8) 0.0154(3)
H15_2 H 0.4181 0.3041 0.0169
N1_2 N 0.2600(3) 0.4787(5) 0.17358(18)
N2_2 N 0.1769(3) 0.4821(6) 0.1764(2)
N3_2 N 0.2152(3) 0.4409(5) 0.13082(18)
N4_2 N 0.3843(3) 0.3994(6) 0.0981(2)
N5_3 N 0.2321(3) 0.5894(6) 0.27614(19)
N6_2 N 0.0413(3) 0.4060(6) 0.1058(2)
N10_2 N 0.4411(3) 0.4169(7) 0.0381(2)
N13_2 N 0.2010(3) 0.5842(6) 0.3456(2)
C19_2 C 0.4025(5) 0.5679(7) 0.9595(2)
C20_2 C 0.3655(4) 0.5709(7) 0.9146(2)
C21_2 C 0.3994(4) 0.7059(7) 0.9324(2)
C22_2 C 0.4181(4) 0.5153(7) 0.9862(2)
C26_3 C 0.4099(5) 0.4166(8) 0.9897(3)
H16_3 H 0.3958 0.3816 0.9744
C27_2 C 0.3421(4) 0.5176(7) 0.8906(2)
C28_3 C 0.3413(5) 0.4186(8) 0.8894(3)
H17_3 H 0.3557 0.3838 0.9046
C29_3 C 0.3208(5) 0.3706(8) 0.8674(3)
H18_3 H 0.3217 0.3034 0.8674
C30_2 C 0.2965(5) 0.5118(7) 0.8464(3)
H19_2 H 0.2791 0.5444 0.8320
C31_2 C 0.3191(5) 0.5629(8) 0.8679(3)
H20_2 H 0.3189 0.6301 0.8672
C32_2 C 0.4131(4) 0.8081(7) 0.9290(2)
C33_2 C 0.4073(5) 0.8554(8) 0.9023(3)
H21_2 H 0.3931 0.8236 0.8865
C34_2 C 0.4224(5) 0.9492(9) 0.8991(3)
H22_2 H 0.4158 0.9814 0.8815
C35_2 C 0.4524(5) 0.9525(9) 0.9473(3)
H23_2 H 0.4676 0.9852 0.9626
C36_2 C 0.4351(5) 0.8556(9) 0.9517(3)
H24_2 H 0.4388 0.8254 0.9700
N7_2 N 0.3792(3) 0.5198(6) 0.9388(2)
N8_2 N 0.3731(3) 0.6660(6) 0.9112(2)
N9_2 N 0.4136(4) 0.6628(6) 0.9578(2)
N11_2 N 0.2990(3) 0.4158(6) 0.8456(2)
Zn4_2 Zn 0.26140(5) 0.33416(8) 0.81556(3)
Zn1_3 Zn 0.05258(5) 0.64466(11) 0.57888(3)
I1_3 I 0.06118(5) 0.82587(7) 0.57367(3)
I3_4 I 0.30493(3) 0.17306(5) 0.80910(2)
I4_4 I 0.17434(4) 0.33229(7) 0.83048(3)
I5 I 0.50595(3) 0.70327(6) 0.53596(2)
I6 I 0.56958(4) 0.71186(7) 0.62642(3)
C1_3 C 0.2452(4) 0.5448(6) 0.6450(3)
C2_3 C 0.2817(4) 0.5079(6) 0.6881(2)
C3_3 C 0.3239(4) 0.5433(6) 0.6480(2)
C4_3 C 0.1995(3) 0.5611(6) 0.6280(2)
C5_3 C 0.2001(4) 0.5863(7) 0.5995(3)
H1_3 H 0.2285 0.5904 0.5890
C6_3 C 0.1555(4) 0.6067(8) 0.5855(2)
H2_3 H 0.1559 0.6258 0.5658
C7_3 C 0.1149(4) 0.5726(7) 0.6261(2)
H3_3 H 0.0857 0.5675 0.6356
C8_3 C 0.1564(4) 0.5502(7) 0.6422(2)
H4_3 H 0.1548 0.5287 0.6616
C9_4 C 0.2768(3) 0.4792(6) 0.7183(2)
C10_4 C 0.2342(4) 0.4745(6) 0.7326(3)
H5_4 H 0.2066 0.4930 0.7228
C11_4 C 0.2315(4) 0.4418(7) 0.7620(2)
H6_4 H 0.2022 0.4428 0.7716
C12_4 C 0.3099(4) 0.4148(8) 0.7632(3)
H7_4 H 0.3366 0.3948 0.7736
C13_4 C 0.3152(4) 0.4467(8) 0.7355(3)
H8_4 H 0.3455 0.4474 0.7272
C14_3 C 0.3703(4) 0.5576(7) 0.6334(2)
C15_3 C 0.4121(4) 0.5524(8) 0.6494(3)
H9_3 H 0.4118 0.5370 0.6695
C16_3 C 0.4551(4) 0.5711(9) 0.6346(3)
H10_3 H 0.4829 0.5673 0.6456
C17_3 C 0.4159(5) 0.5992(8) 0.5905(3)
H11_3 H 0.4169 0.6176 0.5707
C18_3 C 0.3718(4) 0.5789(7) 0.6027(3)
H12_3 H 0.3444 0.5792 0.5912
C19_3 C 0.0975(5) 0.4321(7) 0.4595(2)
C20_3 C 0.1345(4) 0.4291(7) 0.4146(2)
C21_3 C 0.1006(4) 0.2941(7) 0.4324(2)
C22_3 C 0.0819(4) 0.4847(7) 0.4862(2)
C23_4 C 0.0601(4) 0.4359(8) 0.5092(3)
H13_4 H 0.0531 0.3704 0.5076
C24_4 C 0.0489(4) 0.4864(9) 0.5350(3)
H14_4 H 0.0343 0.4537 0.5505
C25_3 C 0.0773(5) 0.6294(8) 0.5154(3)
H15_3 H 0.0819 0.6959 0.5169
C26_4 C 0.0901(5) 0.5834(8) 0.4897(3)
H16_4 H 0.1042 0.6184 0.4744
C27_3 C 0.1579(4) 0.4824(7) 0.3906(2)
C28_4 C 0.1587(5) 0.5814(8) 0.3894(3)
H17_4 H 0.1443 0.6162 0.4046
C29_4 C 0.1792(5) 0.6294(8) 0.3674(3)
H18_4 H 0.1783 0.6966 0.3674
C30_3 C 0.2035(5) 0.4882(7) 0.3464(3)
H19_3 H 0.2209 0.4556 0.3320
C31_3 C 0.1809(5) 0.4371(8) 0.3679(3)
H20_3 H 0.1811 0.3699 0.3672
C32_3 C 0.0869(4) 0.1919(7) 0.4290(2)
C33_3 C 0.0927(5) 0.1446(8) 0.4023(3)
H21_3 H 0.1069 0.1764 0.3865
C34_3 C 0.0776(5) 0.0508(9) 0.3991(3)
H22_3 H 0.0842 0.0186 0.3815
C35_3 C 0.0476(5) 0.0475(9) 0.4473(3)
H23_3 H 0.0324 0.0148 0.4626
C36_3 C 0.0649(5) 0.1444(9) 0.4517(3)
H24_3 H 0.0612 0.1746 0.4700
N1_3 N 0.2400(3) 0.5213(5) 0.67358(18)
N2_3 N 0.3231(3) 0.5179(6) 0.6764(2)
N3_3 N 0.2848(3) 0.5591(5) 0.63082(18)
N4_3 N 0.1157(3) 0.6006(6) 0.5981(2)
N5_4 N 0.2679(3) 0.4106(6) 0.77614(19)
N6_3 N 0.4587(3) 0.5940(6) 0.6058(2)
N7_3 N 0.1208(3) 0.4802(6) 0.4388(2)
N8_3 N 0.1269(3) 0.3340(6) 0.4112(2)
N9_3 N 0.0864(4) 0.3372(6) 0.4578(2)
N10_3 N 0.0589(3) 0.5831(7) 0.5381(2)
Zn3 Zn 0.02205(5) 0.87258(9) 0.41337(3)
I5_2 I 0.00595(3) 0.79673(6) 0.46404(2)
I6_2 I 0.06958(4) 0.78814(7) 0.37358(3)
I2_3 I 0.01224(4) 0.05362(11) 0.89343(3)
Zn1_4 Zn 0.94742(5) 0.14466(11) 0.92112(3)
Zn3_2 Zn 0.47795(5) 0.12742(9) 0.91337(3)
I1_4 I 0.93882(5) 0.32587(7) 0.92633(3)
I5_3 I 0.49405(3) 0.20327(6) 0.96404(2)
I6_3 I 0.43042(4) 0.21186(7) 0.87358(3)
C1_4 C 0.7548(4) 0.0448(6) 0.8550(3)
C2_4 C 0.7183(4) 0.0079(6) 0.8119(2)
C3_4 C 0.6761(4) 0.0433(6) 0.8520(2)
C4_4 C 0.8005(3) 0.0611(6) 0.8720(2)
C5_4 C 0.7999(4) 0.0863(7) 0.9005(3)
H1_4 H 0.7715 0.0904 0.9110
C6_4 C 0.8445(4) 0.1067(8) 0.9145(2)
H2_4 H 0.8441 0.1258 0.9342
C7_4 C 0.8851(4) 0.0726(7) 0.8739(2)
H3_4 H 0.9143 0.0675 0.8644
C8_4 C 0.8436(4) 0.0502(7) 0.8578(2)
H4_4 H 0.8452 0.0287 0.8384
C14_4 C 0.6297(4) 0.0576(7) 0.8666(2)
C15_4 C 0.5879(4) 0.0524(8) 0.8506(3)
H9_4 H 0.5882 0.0370 0.8305
C16_4 C 0.5449(4) 0.0711(9) 0.8654(3)
H10_4 H 0.5171 0.0673 0.8544
C17_4 C 0.5841(5) 0.0992(8) 0.9095(3)
H11_4 H 0.5831 0.1176 0.9293
C18_4 C 0.6282(4) 0.0789(7) 0.8973(3)
H12_4 H 0.6556 0.0792 0.9088
C25_4 C 0.9227(5) 0.1294(8) 0.9846(3)
H15_4 H 0.9181 0.1959 0.9831
N1_4 N 0.7600(3) 0.0213(5) 0.82642(18)
N2_4 N 0.6769(3) 0.0179(6) 0.8236(2)
N3_4 N 0.7152(3) 0.0591(5) 0.86918(18)
N4_4 N 0.8843(3) 0.1006(6) 0.9019(2)
N6_4 N 0.5413(3) 0.0940(6) 0.8942(2)
N10_4 N 0.9411(3) 0.0831(7) 0.9619(2)
C19_4 C 0.9025(5) 0.9321(7) 0.0405(2)
C20_4 C 0.8655(4) 0.9291(7) 0.0854(2)
C21_4 C 0.8994(4) 0.7941(7) 0.0676(2)
C22_4 C 0.9181(4) 0.9847(7) 0.0138(2)
C27_4 C 0.8421(4) 0.9824(7) 0.1094(2)
C30_4 C 0.7965(5) 0.9882(7) 0.1536(3)
H19_4 H 0.7791 0.9556 0.1680
C31_4 C 0.8191(5) 0.9371(8) 0.1321(3)
H20_4 H 0.8189 0.8699 0.1328
C32_4 C 0.9131(4) 0.6919(7) 0.0710(2)
C33_4 C 0.9073(5) 0.6446(8) 0.0977(3)
H21_4 H 0.8931 0.6764 0.1135
C34_4 C 0.9224(5) 0.5508(9) 0.1009(3)
H22_4 H 0.9158 0.5186 0.1185
C35_4 C 0.9524(5) 0.5475(9) 0.0527(3)
H23_4 H 0.9676 0.5148 0.0374
C36_4 C 0.9351(5) 0.6444(9) 0.0483(3)
H24_4 H 0.9388 0.6746 0.0300
N7_4 N 0.8792(3) 0.9802(6) 0.0612(2)
N8_4 N 0.8731(3) 0.8340(6) 0.0888(2)
N9_4 N 0.9136(4) 0.8372(6) 0.0422(2)
N12_2 N 0.9463(3) 0.5040(6) 0.0796(2)
Zn5_2 Zn 0.97795(5) 0.37258(9) 0.08663(3)
I5_4 I 0.99405(3) 0.29673(6) 0.03596(2)
I6_4 I 0.93042(4) 0.28814(7) 0.12642(3)
I2_4 I 0.98776(4) 0.55362(11) 0.60657(3)
Zn1_5 Zn 0.44742(5) 0.14466(11) 0.57888(3)
I1_5 I 0.43882(5) 0.32587(7) 0.57367(3)
I2_5 I 0.51224(4) 0.05362(11) 0.60657(3)
C1_5 C 0.2548(4) 0.0448(6) 0.6450(3)
C2_5 C 0.2183(4) 0.0079(6) 0.6881(2)
C3_5 C 0.1761(4) 0.0433(6) 0.6480(2)
C4_5 C 0.3005(3) 0.0611(6) 0.6280(2)
C5_5 C 0.2999(4) 0.0863(7) 0.5995(3)
H1_5 H 0.2715 0.0904 0.5890
C6_5 C 0.3445(4) 0.1067(8) 0.5855(2)
H2_5 H 0.3441 0.1258 0.5658
C7_5 C 0.3851(4) 0.0726(7) 0.6261(2)
H3_5 H 0.4143 0.0675 0.6356
C8_5 C 0.3436(4) 0.0502(7) 0.6422(2)
H4_5 H 0.3452 0.0287 0.6616
C14_5 C 0.1297(4) 0.0576(7) 0.6334(2)
C15_5 C 0.0879(4) 0.0524(8) 0.6494(3)
H9_5 H 0.0882 0.0370 0.6695
C16_5 C 0.0449(4) 0.0711(9) 0.6346(3)
H10_5 H 0.0171 0.0673 0.6456
C17_5 C 0.0841(5) 0.0992(8) 0.5905(3)
H11_5 H 0.0831 0.1176 0.5707
C18_5 C 0.1282(4) 0.0789(7) 0.6027(3)
H12_5 H 0.1556 0.0792 0.5912
C25_5 C 0.4227(5) 0.1294(8) 0.5154(3)
H15_5 H 0.4181 0.1959 0.5169
C26_5 C 0.4099(5) 0.0834(8) 0.4897(3)
H16_5 H 0.3958 0.1184 0.4744
C28_5 C 0.3413(5) 0.0814(8) 0.3894(3)
H17_5 H 0.3557 0.1162 0.4046
C29_5 C 0.3208(5) 0.1294(8) 0.3674(3)
H18_5 H 0.3217 0.1966 0.3674
N1_5 N 0.2600(3) 0.0213(5) 0.67358(18)
N2_5 N 0.1769(3) 0.0179(6) 0.6764(2)
N3_5 N 0.2152(3) 0.0591(5) 0.63082(18)
N4_5 N 0.3843(3) 0.1006(6) 0.5981(2)
N6_5 N 0.0413(3) 0.0940(6) 0.6058(2)
N10_5 N 0.4411(3) 0.0831(7) 0.5381(2)
N11_3 N 0.2990(3) 0.0842(6) 0.3456(2)
Zn4_3 Zn 0.26140(5) 0.16584(8) 0.31556(3)
Zn2_3 Zn 0.23860(5) 0.83416(8) 0.81556(3)
I3_5 I 0.19507(3) 0.67306(5) 0.80910(2)
I4_5 I 0.32566(4) 0.83229(7) 0.83048(3)
C9_5 C 0.2232(3) 0.9792(6) 0.7183(2)
C10_5 C 0.2658(4) 0.9745(6) 0.7326(3)
H5_5 H 0.2934 0.9930 0.7228
C11_5 C 0.2685(4) 0.9418(7) 0.7620(2)
H6_5 H 0.2978 0.9428 0.7716
C12_5 C 0.1901(4) 0.9148(8) 0.7632(3)
H7_5 H 0.1634 0.8948 0.7736
C13_5 C 0.1848(4) 0.9467(8) 0.7355(3)
H8_5 H 0.1545 0.9474 0.7272
C19_5 C 0.4025(5) 0.9321(7) 0.4595(2)
C20_5 C 0.3655(4) 0.9291(7) 0.4146(2)
C21_5 C 0.3994(4) 0.7941(7) 0.4324(2)
C22_5 C 0.4181(4) 0.9847(7) 0.4862(2)
C23_5 C 0.4399(4) 0.9359(8) 0.5092(3)
H13_5 H 0.4469 0.8704 0.5076
C24_5 C 0.4511(4) 0.9864(9) 0.5350(3)
H14_5 H 0.4657 0.9537 0.5505
C27_5 C 0.3421(4) 0.9824(7) 0.3906(2)
C30_5 C 0.2965(5) 0.9882(7) 0.3464(3)
H19_5 H 0.2791 0.9556 0.3320
C31_5 C 0.3191(5) 0.9371(8) 0.3679(3)
H20_5 H 0.3189 0.8699 0.3672
C32_5 C 0.4131(4) 0.6919(7) 0.4290(2)
C33_5 C 0.4073(5) 0.6446(8) 0.4023(3)
H21_5 H 0.3931 0.6764 0.3865
C34_5 C 0.4224(5) 0.5508(9) 0.3991(3)
H22_5 H 0.4158 0.5186 0.3815
C35_5 C 0.4524(5) 0.5475(9) 0.4473(3)
H23_5 H 0.4676 0.5148 0.4626
C36_5 C 0.4351(5) 0.6444(9) 0.4517(3)
H24_5 H 0.4388 0.6746 0.4700
N5_5 N 0.2321(3) 0.9106(6) 0.77614(19)
N7_5 N 0.3792(3) 0.9802(6) 0.4388(2)
N8_5 N 0.3731(3) 0.8340(6) 0.4112(2)
N9_5 N 0.4136(4) 0.8372(6) 0.4578(2)
N12_3 N 0.4463(3) 0.5040(6) 0.4204(2)
Zn5_3 Zn 0.47795(5) 0.37258(9) 0.41337(3)
N13_3 N 0.2010(3) 0.9158(6) 0.8456(2)
N14_3 N 0.9463(3) 0.9960(6) 0.5796(2)
I3_6 I 0.30493(3) 0.32694(5) 0.30910(2)
I4_6 I 0.17434(4) 0.16771(7) 0.33048(3)
C9_6 C 0.2768(3) 0.0208(6) 0.2183(2)
C10_6 C 0.2342(4) 0.0255(6) 0.2326(3)
H5_6 H 0.2066 0.0070 0.2228
C11_6 C 0.2315(4) 0.0582(7) 0.2620(2)
H6_6 H 0.2022 0.0572 0.2716
C12_6 C 0.3099(4) 0.0852(8) 0.2632(3)
H7_6 H 0.3366 0.1052 0.2736
C13_6 C 0.3152(4) 0.0533(8) 0.2355(3)
H8_6 H 0.3455 0.0526 0.2272
C23_6 C 0.0601(4) 0.0641(8) 0.0092(3)
H13_6 H 0.0531 0.1296 0.0076
C24_6 C 0.0489(4) 0.0136(9) 0.0350(3)
H14_6 H 0.0343 0.0463 0.0505
N5_6 N 0.2679(3) 0.0894(6) 0.27614(19)
N14_4 N 0.5537(3) 0.0040(6) 0.0796(2)
C26_6 C 0.0901(5) 0.9166(8) 0.9897(3)
H16_6 H 0.1042 0.8816 0.9744
C28_6 C 0.1587(5) 0.9186(8) 0.8894(3)
H17_6 H 0.1443 0.8838 0.9046
C29_6 C 0.1792(5) 0.8706(8) 0.8674(3)
H18_6 H 0.1783 0.8034 0.8674
C19_6 C 0.5975(5) 0.4321(7) 0.0405(2)
C20_6 C 0.6345(4) 0.4291(7) 0.0854(2)
C21_6 C 0.6006(4) 0.2941(7) 0.0676(2)
C22_6 C 0.5819(4) 0.4847(7) 0.0138(2)
C26_7 C 0.5901(5) 0.5834(8) 0.0103(3)
H16_7 H 0.6042 0.6184 0.0256
C27_6 C 0.6579(4) 0.4824(7) 0.1094(2)
C28_7 C 0.6587(5) 0.5814(8) 0.1106(3)
H17_7 H 0.6443 0.6162 0.0954
C29_7 C 0.6792(5) 0.6294(8) 0.1326(3)
H18_7 H 0.6783 0.6966 0.1326
C30_6 C 0.7035(5) 0.4882(7) 0.1536(3)
H19_6 H 0.7209 0.4556 0.1680
C31_6 C 0.6809(5) 0.4371(8) 0.1321(3)
H20_6 H 0.6811 0.3699 0.1328
C32_6 C 0.5869(4) 0.1919(7) 0.0710(2)
C33_6 C 0.5927(5) 0.1446(8) 0.0977(3)
H21_6 H 0.6069 0.1764 0.1135
C34_6 C 0.5776(5) 0.0508(9) 0.1009(3)
H22_6 H 0.5842 0.0186 0.1185
C35_6 C 0.5476(5) 0.0475(9) 0.0527(3)
H23_6 H 0.5324 0.0148 0.0374
C36_6 C 0.5649(5) 0.1444(9) 0.0483(3)
H24_6 H 0.5612 0.1746 0.0300
N7_6 N 0.6208(3) 0.4802(6) 0.0612(2)
N8_6 N 0.6269(3) 0.3340(6) 0.0888(2)
N9_6 N 0.5864(4) 0.3372(6) 0.0422(2)
N11_4 N 0.7010(3) 0.5842(6) 0.1544(2)
Zn4_4 Zn 0.73860(5) 0.66584(8) 0.18444(3)
Zn1_6 Zn 0.55258(5) 0.64466(11) 0.92112(3)
Zn2_4 Zn 0.76140(5) 0.33416(8) 0.68444(3)
I1_6 I 0.56118(5) 0.82587(7) 0.92633(3)
I2_6 I 0.48776(4) 0.55362(11) 0.89343(3)
I3_7 I 0.80493(3) 0.17306(5) 0.69090(2)
I4_7 I 0.67434(4) 0.33229(7) 0.66952(3)
C1_6 C 0.7452(4) 0.5448(6) 0.8550(3)
C2_6 C 0.7817(4) 0.5079(6) 0.8119(2)
C3_6 C 0.8239(4) 0.5433(6) 0.8520(2)
C4_6 C 0.6995(3) 0.5611(6) 0.8720(2)
C5_6 C 0.7001(4) 0.5863(7) 0.9005(3)
H1_6 H 0.7285 0.5904 0.9110
C6_6 C 0.6555(4) 0.6067(8) 0.9145(2)
H2_6 H 0.6559 0.6258 0.9342
C7_6 C 0.6149(4) 0.5726(7) 0.8739(2)
H3_6 H 0.5857 0.5675 0.8644
C8_6 C 0.6564(4) 0.5502(7) 0.8578(2)
H4_6 H 0.6548 0.5287 0.8384
C9_7 C 0.7768(3) 0.4792(6) 0.7817(2)
C10_7 C 0.7342(4) 0.4745(6) 0.7674(3)
H5_7 H 0.7066 0.4930 0.7772
C11_7 C 0.7315(4) 0.4418(7) 0.7380(2)
H6_7 H 0.7022 0.4428 0.7284
C12_7 C 0.8099(4) 0.4148(8) 0.7368(3)
H7_7 H 0.8366 0.3948 0.7264
C13_7 C 0.8152(4) 0.4467(8) 0.7645(3)
H8_7 H 0.8455 0.4474 0.7728
C14_6 C 0.8703(4) 0.5576(7) 0.8666(2)
C15_6 C 0.9121(4) 0.5524(8) 0.8506(3)
H9_6 H 0.9118 0.5370 0.8305
C16_6 C 0.9551(4) 0.5711(9) 0.8654(3)
H10_6 H 0.9829 0.5673 0.8544
C17_6 C 0.9159(5) 0.5992(8) 0.9095(3)
H11_6 H 0.9169 0.6176 0.9293
C18_6 C 0.8718(4) 0.5789(7) 0.8973(3)
H12_6 H 0.8444 0.5792 0.9088
C23_7 C 0.5601(4) 0.4359(8) 0.9908(3)
H13_7 H 0.5531 0.3704 0.9924
C24_7 C 0.5489(4) 0.4864(9) 0.9650(3)
H14_7 H 0.5343 0.4537 0.9495
C25_6 C 0.5773(5) 0.6294(8) 0.9846(3)
H15_6 H 0.5819 0.6959 0.9831
N1_6 N 0.7400(3) 0.5213(5) 0.82642(18)
N2_6 N 0.8231(3) 0.5179(6) 0.8236(2)
N3_6 N 0.7848(3) 0.5591(5) 0.86918(18)
N4_6 N 0.6157(3) 0.6006(6) 0.9019(2)
N5_7 N 0.7679(3) 0.4106(6) 0.72386(19)
N6_6 N 0.9587(3) 0.5940(6) 0.8942(2)
N10_6 N 0.5589(3) 0.5831(7) 0.9619(2)
N13_4 N 0.7990(3) 0.4158(6) 0.6544(2)
Zn1_7 Zn 0.94742(5) 0.35534(11) 0.42112(3)
I1_7 I 0.93882(5) 0.17413(7) 0.42633(3)
I3_8 I 0.69507(3) 0.82694(5) 0.19090(2)
I4_8 I 0.82566(4) 0.66771(7) 0.16952(3)
I5_5 I 0.49405(3) 0.29673(6) 0.46404(2)
I6_5 I 0.43042(4) 0.28814(7) 0.37358(3)
C1_7 C 0.7548(4) 0.4552(6) 0.3550(3)
C2_7 C 0.7183(4) 0.4921(6) 0.3119(2)
C3_7 C 0.6761(4) 0.4567(6) 0.3520(2)
C4_7 C 0.8005(3) 0.4389(6) 0.3720(2)
C5_7 C 0.7999(4) 0.4137(7) 0.4005(3)
H1_7 H 0.7715 0.4096 0.4110
C6_7 C 0.8445(4) 0.3933(8) 0.4145(2)
H2_7 H 0.8441 0.3742 0.4342
C7_7 C 0.8851(4) 0.4274(7) 0.3739(2)
H3_7 H 0.9143 0.4325 0.3644
C8_7 C 0.8436(4) 0.4498(7) 0.3578(2)
H4_7 H 0.8452 0.4713 0.3384
C9_8 C 0.7232(3) 0.5208(6) 0.2817(2)
C10_8 C 0.7658(4) 0.5255(6) 0.2674(3)
H5_8 H 0.7934 0.5070 0.2772
C11_8 C 0.7685(4) 0.5582(7) 0.2380(2)
H6_8 H 0.7978 0.5572 0.2284
C12_8 C 0.6901(4) 0.5852(8) 0.2368(3)
H7_8 H 0.6634 0.6052 0.2264
C13_8 C 0.6848(4) 0.5533(8) 0.2645(3)
H8_8 H 0.6545 0.5526 0.2728
C14_7 C 0.6297(4) 0.4424(7) 0.3666(2)
C15_7 C 0.5879(4) 0.4476(8) 0.3506(3)
H9_7 H 0.5882 0.4630 0.3305
C16_7 C 0.5449(4) 0.4289(9) 0.3654(3)
H10_7 H 0.5171 0.4327 0.3544
C17_7 C 0.5841(5) 0.4008(8) 0.4095(3)
H11_7 H 0.5831 0.3824 0.4293
C18_7 C 0.6282(4) 0.4211(7) 0.3973(3)
H12_7 H 0.6556 0.4208 0.4088
C19_7 C 0.9025(5) 0.5679(7) 0.5405(2)
C20_7 C 0.8655(4) 0.5709(7) 0.5854(2)
C21_7 C 0.8994(4) 0.7059(7) 0.5676(2)
C22_7 C 0.9181(4) 0.5153(7) 0.5138(2)
C23_8 C 0.9399(4) 0.5641(8) 0.4908(3)
H13_8 H 0.9469 0.6296 0.4924
C24_8 C 0.9511(4) 0.5136(9) 0.4650(3)
H14_8 H 0.9657 0.5463 0.4495
C25_7 C 0.9227(5) 0.3706(8) 0.4846(3)
H15_7 H 0.9181 0.3041 0.4831
C26_8 C 0.9099(5) 0.4166(8) 0.5103(3)
H16_8 H 0.8958 0.3816 0.5256
C27_7 C 0.8421(4) 0.5176(7) 0.6094(2)
C28_8 C 0.8413(5) 0.4186(8) 0.6106(3)
H17_8 H 0.8557 0.3838 0.5954
C29_8 C 0.8208(5) 0.3706(8) 0.6326(3)
H18_8 H 0.8217 0.3034 0.6326
C30_7 C 0.7965(5) 0.5118(7) 0.6536(3)
H19_7 H 0.7791 0.5444 0.6680
C31_7 C 0.8191(5) 0.5629(8) 0.6321(3)
H20_7 H 0.8189 0.6301 0.6328
C32_7 C 0.9131(4) 0.8081(7) 0.5710(2)
C33_7 C 0.9073(5) 0.8554(8) 0.5977(3)
H21_7 H 0.8931 0.8236 0.6135
C34_7 C 0.9224(5) 0.9492(9) 0.6009(3)
H22_7 H 0.9158 0.9814 0.6185
C35_7 C 0.9524(5) 0.9525(9) 0.5527(3)
H23_7 H 0.9676 0.9852 0.5374
C36_7 C 0.9351(5) 0.8556(9) 0.5483(3)
H24_7 H 0.9388 0.8254 0.5300
N1_7 N 0.7600(3) 0.4787(5) 0.32642(18)
N2_7 N 0.6769(3) 0.4821(6) 0.3236(2)
N3_7 N 0.7152(3) 0.4409(5) 0.36918(18)
N4_7 N 0.8843(3) 0.3994(6) 0.4019(2)
N5_8 N 0.7321(3) 0.5894(6) 0.22386(19)
N6_7 N 0.5413(3) 0.4060(6) 0.3942(2)
N7_7 N 0.8792(3) 0.5198(6) 0.5612(2)
N8_7 N 0.8731(3) 0.6660(6) 0.5888(2)
N9_7 N 0.9136(4) 0.6628(6) 0.5422(2)
N10_7 N 0.9411(3) 0.4169(7) 0.4619(2)
Zn3_3 Zn 0.97795(5) 0.12742(9) 0.58663(3)
I5_6 I 0.99405(3) 0.20327(6) 0.53596(2)
I6_6 I 0.93042(4) 0.21186(7) 0.62642(3)
C19_8 C 0.0975(5) 0.0679(7) 0.9595(2)
C20_8 C 0.1345(4) 0.0709(7) 0.9146(2)
C21_8 C 0.1006(4) 0.2059(7) 0.9324(2)
C22_8 C 0.0819(4) 0.0153(7) 0.9862(2)
C27_8 C 0.1579(4) 0.0176(7) 0.8906(2)
C30_8 C 0.2035(5) 0.0118(7) 0.8464(3)
H19_8 H 0.2209 0.0444 0.8320
C31_8 C 0.1809(5) 0.0629(8) 0.8679(3)
H20_8 H 0.1811 0.1301 0.8672
C32_8 C 0.0869(4) 0.3081(7) 0.9290(2)
C33_8 C 0.0927(5) 0.3554(8) 0.9023(3)
H21_8 H 0.1069 0.3236 0.8865
C34_8 C 0.0776(5) 0.4492(9) 0.8991(3)
H22_8 H 0.0842 0.4814 0.8815
C35_8 C 0.0476(5) 0.4525(9) 0.9473(3)
H23_8 H 0.0324 0.4852 0.9626
C36_8 C 0.0649(5) 0.3556(9) 0.9517(3)
H24_8 H 0.0612 0.3254 0.9700
N7_8 N 0.1208(3) 0.0198(6) 0.9388(2)
N8_8 N 0.1269(3) 0.1660(6) 0.9112(2)
N9_8 N 0.0864(4) 0.1628(6) 0.9578(2)
N12_4 N 0.0537(3) 0.4960(6) 0.9204(2)
Zn5_4 Zn 0.02205(5) 0.62742(9) 0.91337(3)
I5_7 I 0.00595(3) 0.70327(6) 0.96404(2)
I6_7 I 0.06958(4) 0.71186(7) 0.87358(3)
Zn1_8 Zn 0.05258(5) 0.85534(11) 0.07888(3)
Zn3_4 Zn 0.52205(5) 0.87258(9) 0.08663(3)
I1_8 I 0.06118(5) 0.67413(7) 0.07367(3)
I5_8 I 0.50595(3) 0.79673(6) 0.03596(2)
I6_8 I 0.56958(4) 0.78814(7) 0.12642(3)
C1_8 C 0.2452(4) 0.9552(6) 0.1450(3)
C2_8 C 0.2817(4) 0.9921(6) 0.1881(2)
C3_8 C 0.3239(4) 0.9567(6) 0.1480(2)
C4_8 C 0.1995(3) 0.9389(6) 0.1280(2)
C5_8 C 0.2001(4) 0.9137(7) 0.0995(3)
H1_8 H 0.2285 0.9096 0.0890
C6_8 C 0.1555(4) 0.8933(8) 0.0855(2)
H2_8 H 0.1559 0.8742 0.0658
C7_8 C 0.1149(4) 0.9274(7) 0.1261(2)
H3_8 H 0.0857 0.9325 0.1356
C8_8 C 0.1564(4) 0.9498(7) 0.1422(2)
H4_8 H 0.1548 0.9713 0.1616
C14_8 C 0.3703(4) 0.9424(7) 0.1334(2)
C15_8 C 0.4121(4) 0.9476(8) 0.1494(3)
H9_8 H 0.4118 0.9630 0.1695
C16_8 C 0.4551(4) 0.9289(9) 0.1346(3)
H10_8 H 0.4829 0.9327 0.1456
C17_8 C 0.4159(5) 0.9008(8) 0.0905(3)
H11_8 H 0.4169 0.8824 0.0707
C18_8 C 0.3718(4) 0.9211(7) 0.1027(3)
H12_8 H 0.3444 0.9208 0.0912
C25_8 C 0.0773(5) 0.8706(8) 0.0154(3)
H15_8 H 0.0819 0.8041 0.0169
N1_8 N 0.2400(3) 0.9787(5) 0.17358(18)
N2_8 N 0.3231(3) 0.9821(6) 0.1764(2)
N3_8 N 0.2848(3) 0.9409(5) 0.13082(18)
N4_8 N 0.1157(3) 0.8994(6) 0.0981(2)
N6_8 N 0.4587(3) 0.9060(6) 0.1058(2)
N10_8 N 0.0589(3) 0.9169(7) 0.0381(2)
I2_7 I 0.98776(4) 0.94638(11) 0.10657(3)
I2_8 I 0.01224(4) 0.44638(11) 0.39343(3)
loop_
_geom_bond_atom_site_label_1
_geom_bond_atom_site_label_2
_geom_bond_site_symmetry_1
_geom_bond_site_symmetry_2
Zn2 I3 1_555 1_555
I4 Zn2 1_555 1_555
C9 C10 1_555 1_555
C10 H5 1_555 1_555
C11 C10 1_555 1_555
H6 C11 1_555 1_555
C12 H7 1_555 1_555
C13 C9 1_555 1_555
H8 C13 1_555 1_555
C19 C22 1_555 1_555
C20 C27 1_555 1_555
C21 C32 1_555 1_555
C22 C23 1_555 1_555
C23 H13 1_555 1_555
C24 C23 1_555 1_555
H14 C24 1_555 1_555
C30 H19 1_555 1_555
C31 C27 1_555 1_555
H20 C31 1_555 1_555
C32 C33 1_555 1_555
C33 H21 1_555 1_555
C34 C33 1_555 1_555
H22 C34 1_555 1_555
C35 H23 1_555 1_555
C36 C32 1_555 1_555
H24 C36 1_555 1_555
N5 Zn2 1_555 1_555
N7 C19 1_555 1_555
N8 C20 1_555 1_555
N9 C19 1_555 1_555
N12 C34 1_555 1_555
Zn5 N12 1_555 1_555
N13 Zn2 1_555 1_555
C11 N5 1_555 1_555
C12 C13 1_555 1_555
C12 N5 1_555 1_555
C20 N7 1_555 1_555
C21 N8 1_555 1_555
C21 N9 1_555 1_555
C30 C31 1_555 1_555
C35 C36 1_555 1_555
C35 N12 1_555 1_555
Zn1 I1 1_555 1_555
I2 Zn1 1_555 1_555
C1 C4 1_555 1_555
C3 C14 1_555 1_555
C4 C5 1_555 1_555
C5 H1 1_555 1_555
C6 C5 1_555 1_555
H2 C6 1_555 1_555
C7 H3 1_555 1_555
C8 C4 1_555 1_555
H4 C8 1_555 1_555
C14 C15 1_555 1_555
C15 H9 1_555 1_555
C16 C15 1_555 1_555
H10 C16 1_555 1_555
C17 H11 1_555 1_555
C18 C14 1_555 1_555
H12 C18 1_555 1_555
C25 H15 1_555 1_555
H16 C26 1_555 1_555
C28 H17 1_555 1_555
C29 C28 1_555 1_555
H18 C29 1_555 1_555
N1 C1 1_555 1_555
N2 C2 1_555 1_555
N3 C1 1_555 1_555
N4 Zn1 1_555 1_555
N10 Zn1 1_555 1_555
N11 C29 1_555 1_555
Zn4 N11 1_555 1_555
C2 N1 1_555 1_555
C3 N2 1_555 1_555
C3 N3 1_555 1_555
C6 N4 1_555 1_555
C7 C8 1_555 1_555
C7 N4 1_555 1_555
C16 N6 1_555 1_555
C17 C18 1_555 1_555
C17 N6 1_555 1_555
C25 C26 1_555 1_555
C25 N10 1_555 1_555
H16_2 C26_2 1_555 1_555
C28_2 H17_2 1_555 1_555
C29_2 C28_2 1_555 1_555
H18_2 C29_2 1_555 1_555
N13 C29_2 1_555 1_555
Zn4 I3_2 1_555 1_555
I4_2 Zn4 1_555 1_555
C9_2 C10_2 1_555 1_555
C10_2 H5_2 1_555 1_555
C11_2 C10_2 1_555 1_555
H6_2 C11_2 1_555 1_555
C12_2 H7_2 1_555 1_555
C13_2 C9_2 1_555 1_555
H8_2 C13_2 1_555 1_555
C23_2 H13_2 1_555 1_555
C24_2 C23_2 1_555 1_555
H14_2 C24_2 1_555 1_555
N5_2 Zn4 1_555 1_555
C11_2 N5_2 1_555 1_555
C12_2 C13_2 1_555 1_555
C12_2 N5_2 1_555 1_555
Zn1_2 I1_2 1_555 1_555
Zn2_2 I3_3 1_555 1_555
I2_2 Zn1_2 1_555 1_555
I4_3 Zn2_2 1_555 1_555
C1_2 C4_2 1_555 1_555
C2_2 C9_3 1_555 1_555
C3_2 C14_2 1_555 1_555
C4_2 C5_2 1_555 1_555
C5_2 H1_2 1_555 1_555
C6_2 C5_2 1_555 1_555
H2_2 C6_2 1_555 1_555
C7_2 H3_2 1_555 1_555
C8_2 C4_2 1_555 1_555
H4_2 C8_2 1_555 1_555
C9_3 C10_3 1_555 1_555
C10_3 H5_3 1_555 1_555
C11_3 C10_3 1_555 1_555
H6_3 C11_3 1_555 1_555
C12_3 H7_3 1_555 1_555
C13_3 C9_3 1_555 1_555
H8_3 C13_3 1_555 1_555
C14_2 C15_2 1_555 1_555
C15_2 H9_2 1_555 1_555
C16_2 C15_2 1_555 1_555
H10_2 C16_2 1_555 1_555
C17_2 H11_2 1_555 1_555
C18_2 C14_2 1_555 1_555
H12_2 C18_2 1_555 1_555
C23_3 H13_3 1_555 1_555
C24_3 C23_3 1_555 1_555
H14_3 C24_3 1_555 1_555
C25_2 H15_2 1_555 1_555
N1_2 C1_2 1_555 1_555
N2_2 C2_2 1_555 1_555
N3_2 C1_2 1_555 1_555
N4_2 Zn1_2 1_555 1_555
N5_3 Zn2_2 1_555 1_555
N10_2 Zn1_2 1_555 1_555
N13_2 Zn2_2 1_555 1_555
C2_2 N1_2 1_555 1_555
C3_2 N2_2 1_555 1_555
C3_2 N3_2 1_555 1_555
C6_2 N4_2 1_555 1_555
C7_2 C8_2 1_555 1_555
C7_2 N4_2 1_555 1_555
C11_3 N5_3 1_555 1_555
C12_3 C13_3 1_555 1_555
C12_3 N5_3 1_555 1_555
C16_2 N6_2 1_555 1_555
C17_2 C18_2 1_555 1_555
C17_2 N6_2 1_555 1_555
C24_3 N10_2 1_555 1_555
C25_2 N10_2 1_555 1_555
C19_2 C22_2 1_555 1_555
C20_2 C27_2 1_555 1_555
C21_2 C32_2 1_555 1_555
C26_3 C22_2 1_555 1_555
H16_3 C26_3 1_555 1_555
C27_2 C28_3 1_555 1_555
C28_3 H17_3 1_555 1_555
C29_3 C28_3 1_555 1_555
H18_3 C29_3 1_555 1_555
C30_2 H19_2 1_555 1_555
C31_2 C27_2 1_555 1_555
H20_2 C31_2 1_555 1_555
C32_2 C33_2 1_555 1_555
C33_2 H21_2 1_555 1_555
C34_2 C33_2 1_555 1_555
H22_2 C34_2 1_555 1_555
C35_2 H23_2 1_555 1_555
C36_2 C32_2 1_555 1_555
H24_2 C36_2 1_555 1_555
N7_2 C19_2 1_555 1_555
N8_2 C20_2 1_555 1_555
N9_2 C19_2 1_555 1_555
N11_2 C29_3 1_555 1_555
N14_2 C34_2 1_555 1_555
Zn4_2 N11_2 1_555 1_555
C20_2 N7_2 1_555 1_555
C21_2 N8_2 1_555 1_555
C21_2 N9_2 1_555 1_555
C30_2 C31_2 1_555 1_555
C30_2 N11_2 1_555 1_555
C35_2 C36_2 1_555 1_555
C35_2 N14_2 1_555 1_555
Zn1_3 I1_3 1_555 1_555
Zn4_2 I3_4 1_555 1_555
Zn5 I5 1_555 1_555
I4_4 Zn4_2 1_555 1_555
I6 Zn5 1_555 1_555
C1_3 C4_3 1_555 1_555
C2_3 C9_4 1_555 1_555
C3_3 C14_3 1_555 1_555
C4_3 C5_3 1_555 1_555
C5_3 H1_3 1_555 1_555
C6_3 C5_3 1_555 1_555
H2_3 C6_3 1_555 1_555
C7_3 H3_3 1_555 1_555
C8_3 C4_3 1_555 1_555
H4_3 C8_3 1_555 1_555
C9_4 C10_4 1_555 1_555
C10_4 H5_4 1_555 1_555
C11_4 C10_4 1_555 1_555
H6_4 C11_4 1_555 1_555
C12_4 H7_4 1_555 1_555
C13_4 C9_4 1_555 1_555
H8_4 C13_4 1_555 1_555
C14_3 C15_3 1_555 1_555
C15_3 H9_3 1_555 1_555
C16_3 C15_3 1_555 1_555
H10_3 C16_3 1_555 1_555
C17_3 H11_3 1_555 1_555
C18_3 C14_3 1_555 1_555
H12_3 C18_3 1_555 1_555
C19_3 C22_3 1_555 1_555
C20_3 C27_3 1_555 1_555
C21_3 C32_3 1_555 1_555
C22_3 C23_4 1_555 1_555
C23_4 H13_4 1_555 1_555
C24_4 C23_4 1_555 1_555
H14_4 C24_4 1_555 1_555
C25_3 H15_3 1_555 1_555
C26_4 C22_3 1_555 1_555
H16_4 C26_4 1_555 1_555
C27_3 C28_4 1_555 1_555
C28_4 H17_4 1_555 1_555
C29_4 C28_4 1_555 1_555
H18_4 C29_4 1_555 1_555
C30_3 H19_3 1_555 1_555
C31_3 C27_3 1_555 1_555
H20_3 C31_3 1_555 1_555
C32_3 C33_3 1_555 1_555
C33_3 H21_3 1_555 1_555
C34_3 C33_3 1_555 1_555
H22_3 C34_3 1_555 1_555
C35_3 H23_3 1_555 1_555
C36_3 C32_3 1_555 1_555
H24_3 C36_3 1_555 1_555
N1_3 C1_3 1_555 1_555
N2_3 C2_3 1_555 1_555
N3_3 C1_3 1_555 1_555
N4_3 Zn1_3 1_555 1_555
N5_4 Zn4_2 1_555 1_555
N6_3 Zn5 1_555 1_555
N7_3 C19_3 1_555 1_555
N8_3 C20_3 1_555 1_555
N9_3 C19_3 1_555 1_555
N10_3 Zn1_3 1_555 1_555
N13_2 C29_4 1_555 1_555
N14 C34_3 1_555 1_555
C2_3 N1_3 1_555 1_555
C3_3 N2_3 1_555 1_555
C3_3 N3_3 1_555 1_555
C6_3 N4_3 1_555 1_555
C7_3 C8_3 1_555 1_555
C7_3 N4_3 1_555 1_555
C11_4 N5_4 1_555 1_555
C12_4 C13_4 1_555 1_555
C12_4 N5_4 1_555 1_555
C16_3 N6_3 1_555 1_555
C17_3 C18_3 1_555 1_555
C17_3 N6_3 1_555 1_555
C20_3 N7_3 1_555 1_555
C21_3 N8_3 1_555 1_555
C21_3 N9_3 1_555 1_555
C24_4 N10_3 1_555 1_555
C25_3 C26_4 1_555 1_555
C25_3 N10_3 1_555 1_555
C30_3 C31_3 1_555 1_555
C30_3 N13_2 1_555 1_555
C35_3 C36_3 1_555 1_555
C35_3 N14 1_555 1_555
Zn3 I5_2 1_555 1_555
I6_2 Zn3 1_555 1_555
Zn1_4 I1_4 1_555 1_555
Zn3_2 I5_3 1_555 1_555
I6_3 Zn3_2 1_555 1_555
C1_4 C4_4 1_555 1_555
C3_4 C14_4 1_555 1_555
C4_4 C5_4 1_555 1_555
C5_4 H1_4 1_555 1_555
C6_4 C5_4 1_555 1_555
H2_4 C6_4 1_555 1_555
C7_4 H3_4 1_555 1_555
C8_4 C4_4 1_555 1_555
H4_4 C8_4 1_555 1_555
C14_4 C15_4 1_555 1_555
C15_4 H9_4 1_555 1_555
C16_4 C15_4 1_555 1_555
H10_4 C16_4 1_555 1_555
C17_4 H11_4 1_555 1_555
C18_4 C14_4 1_555 1_555
H12_4 C18_4 1_555 1_555
C25_4 H15_4 1_555 1_555
N1_4 C1_4 1_555 1_555
N2_4 C2_4 1_555 1_555
N3_4 C1_4 1_555 1_555
N4_4 Zn1_4 1_555 1_555
N6_4 Zn3_2 1_555 1_555
N10_4 Zn1_4 1_555 1_555
C2_4 N1_4 1_555 1_555
C3_4 N2_4 1_555 1_555
C3_4 N3_4 1_555 1_555
C6_4 N4_4 1_555 1_555
C7_4 C8_4 1_555 1_555
C7_4 N4_4 1_555 1_555
C16_4 N6_4 1_555 1_555
C17_4 C18_4 1_555 1_555
C17_4 N6_4 1_555 1_555
C25_4 N10_4 1_555 1_555
C19_4 C22_4 1_555 1_555
C20_4 C27_4 1_555 1_555
C21_4 C32_4 1_555 1_555
C30_4 H19_4 1_555 1_555
C31_4 C27_4 1_555 1_555
H20_4 C31_4 1_555 1_555
C32_4 C33_4 1_555 1_555
C33_4 H21_4 1_555 1_555
C34_4 C33_4 1_555 1_555
H22_4 C34_4 1_555 1_555
C35_4 H23_4 1_555 1_555
C36_4 C32_4 1_555 1_555
H24_4 C36_4 1_555 1_555
N7_4 C19_4 1_555 1_555
N8_4 C20_4 1_555 1_555
N9_4 C19_4 1_555 1_555
N12_2 C34_4 1_555 1_555
Zn5_2 N12_2 1_555 1_555
C20_4 N7_4 1_555 1_555
C21_4 N8_4 1_555 1_555
C21_4 N9_4 1_555 1_555
C30_4 C31_4 1_555 1_555
C35_4 C36_4 1_555 1_555
C35_4 N12_2 1_555 1_555
Zn5_2 I5_4 1_555 1_555
I6_4 Zn5_2 1_555 1_555
Zn1_5 I1_5 1_555 1_555
I2_5 Zn1_5 1_555 1_555
C1_5 C4_5 1_555 1_555
C3_5 C14_5 1_555 1_555
C4_5 C5_5 1_555 1_555
C5_5 H1_5 1_555 1_555
C6_5 C5_5 1_555 1_555
H2_5 C6_5 1_555 1_555
C7_5 H3_5 1_555 1_555
C8_5 C4_5 1_555 1_555
H4_5 C8_5 1_555 1_555
C14_5 C15_5 1_555 1_555
C15_5 H9_5 1_555 1_555
C16_5 C15_5 1_555 1_555
H10_5 C16_5 1_555 1_555
C17_5 H11_5 1_555 1_555
C18_5 C14_5 1_555 1_555
H12_5 C18_5 1_555 1_555
C25_5 H15_5 1_555 1_555
H16_5 C26_5 1_555 1_555
C28_5 H17_5 1_555 1_555
C29_5 C28_5 1_555 1_555
H18_5 C29_5 1_555 1_555
N1_5 C1_5 1_555 1_555
N2_5 C2_5 1_555 1_555
N3_5 C1_5 1_555 1_555
N4_5 Zn1_5 1_555 1_555
N10_5 Zn1_5 1_555 1_555
N11_3 C29_5 1_555 1_555
Zn4_3 N11_3 1_555 1_555
C2_5 N1_5 1_555 1_555
C3_5 N2_5 1_555 1_555
C3_5 N3_5 1_555 1_555
C6_5 N4_5 1_555 1_555
C7_5 C8_5 1_555 1_555
C7_5 N4_5 1_555 1_555
C16_5 N6_5 1_555 1_555
C17_5 C18_5 1_555 1_555
C17_5 N6_5 1_555 1_555
C25_5 C26_5 1_555 1_555
C25_5 N10_5 1_555 1_555
Zn2_3 I3_5 1_555 1_555
I4_5 Zn2_3 1_555 1_555
C9_5 C10_5 1_555 1_555
C10_5 H5_5 1_555 1_555
C11_5 C10_5 1_555 1_555
H6_5 C11_5 1_555 1_555
C12_5 H7_5 1_555 1_555
C13_5 C9_5 1_555 1_555
H8_5 C13_5 1_555 1_555
C19_5 C22_5 1_555 1_555
C20_5 C27_5 1_555 1_555
C21_5 C32_5 1_555 1_555
C22_5 C23_5 1_555 1_555
C23_5 H13_5 1_555 1_555
C24_5 C23_5 1_555 1_555
H14_5 C24_5 1_555 1_555
C30_5 H19_5 1_555 1_555
C31_5 C27_5 1_555 1_555
H20_5 C31_5 1_555 1_555
C32_5 C33_5 1_555 1_555
C33_5 H21_5 1_555 1_555
C34_5 C33_5 1_555 1_555
H22_5 C34_5 1_555 1_555
C35_5 H23_5 1_555 1_555
C36_5 C32_5 1_555 1_555
H24_5 C36_5 1_555 1_555
N5_5 Zn2_3 1_555 1_555
N7_5 C19_5 1_555 1_555
N8_5 C20_5 1_555 1_555
N9_5 C19_5 1_555 1_555
N12_3 C34_5 1_555 1_555
Zn5_3 N12_3 1_555 1_555
N13_3 Zn2_3 1_555 1_555
C11_5 N5_5 1_555 1_555
C12_5 C13_5 1_555 1_555
C12_5 N5_5 1_555 1_555
C20_5 N7_5 1_555 1_555
C21_5 N8_5 1_555 1_555
C21_5 N9_5 1_555 1_555
C30_5 C31_5 1_555 1_555
C35_5 C36_5 1_555 1_555
C35_5 N12_3 1_555 1_555
Zn4_3 I3_6 1_555 1_555
I4_6 Zn4_3 1_555 1_555
C9_6 C10_6 1_555 1_555
C10_6 H5_6 1_555 1_555
C11_6 C10_6 1_555 1_555
H6_6 C11_6 1_555 1_555
C12_6 H7_6 1_555 1_555
C13_6 C9_6 1_555 1_555
H8_6 C13_6 1_555 1_555
C23_6 H13_6 1_555 1_555
C24_6 C23_6 1_555 1_555
H14_6 C24_6 1_555 1_555
N5_6 Zn4_3 1_555 1_555
C11_6 N5_6 1_555 1_555
C12_6 C13_6 1_555 1_555
C12_6 N5_6 1_555 1_555
H16_6 C26_6 1_555 1_555
C28_6 H17_6 1_555 1_555
C29_6 C28_6 1_555 1_555
H18_6 C29_6 1_555 1_555
N13_3 C29_6 1_555 1_555
C19_6 C22_6 1_555 1_555
C20_6 C27_6 1_555 1_555
C21_6 C32_6 1_555 1_555
C26_7 C22_6 1_555 1_555
H16_7 C26_7 1_555 1_555
C27_6 C28_7 1_555 1_555
C28_7 H17_7 1_555 1_555
C29_7 C28_7 1_555 1_555
H18_7 C29_7 1_555 1_555
C30_6 H19_6 1_555 1_555
C31_6 C27_6 1_555 1_555
H20_6 C31_6 1_555 1_555
C32_6 C33_6 1_555 1_555
C33_6 H21_6 1_555 1_555
C34_6 C33_6 1_555 1_555
H22_6 C34_6 1_555 1_555
C35_6 H23_6 1_555 1_555
C36_6 C32_6 1_555 1_555
H24_6 C36_6 1_555 1_555
N7_6 C19_6 1_555 1_555
N8_6 C20_6 1_555 1_555
N9_6 C19_6 1_555 1_555
N11_4 C29_7 1_555 1_555
N14_4 C34_6 1_555 1_555
Zn4_4 N11_4 1_555 1_555
C20_6 N7_6 1_555 1_555
C21_6 N8_6 1_555 1_555
C21_6 N9_6 1_555 1_555
C30_6 C31_6 1_555 1_555
C30_6 N11_4 1_555 1_555
C35_6 C36_6 1_555 1_555
C35_6 N14_4 1_555 1_555
Zn1_6 I1_6 1_555 1_555
Zn2_4 I3_7 1_555 1_555
I2_6 Zn1_6 1_555 1_555
I4_7 Zn2_4 1_555 1_555
C1_6 C4_6 1_555 1_555
C2_6 C9_7 1_555 1_555
C3_6 C14_6 1_555 1_555
C4_6 C5_6 1_555 1_555
C5_6 H1_6 1_555 1_555
C6_6 C5_6 1_555 1_555
H2_6 C6_6 1_555 1_555
C7_6 H3_6 1_555 1_555
C8_6 C4_6 1_555 1_555
H4_6 C8_6 1_555 1_555
C9_7 C10_7 1_555 1_555
C10_7 H5_7 1_555 1_555
C11_7 C10_7 1_555 1_555
H6_7 C11_7 1_555 1_555
C12_7 H7_7 1_555 1_555
C13_7 C9_7 1_555 1_555
H8_7 C13_7 1_555 1_555
C14_6 C15_6 1_555 1_555
C15_6 H9_6 1_555 1_555
C16_6 C15_6 1_555 1_555
H10_6 C16_6 1_555 1_555
C17_6 H11_6 1_555 1_555
C18_6 C14_6 1_555 1_555
H12_6 C18_6 1_555 1_555
C23_7 H13_7 1_555 1_555
C24_7 C23_7 1_555 1_555
H14_7 C24_7 1_555 1_555
C25_6 H15_6 1_555 1_555
N1_6 C1_6 1_555 1_555
N2_6 C2_6 1_555 1_555
N3_6 C1_6 1_555 1_555
N4_6 Zn1_6 1_555 1_555
N5_7 Zn2_4 1_555 1_555
N10_6 Zn1_6 1_555 1_555
N13_4 Zn2_4 1_555 1_555
C2_6 N1_6 1_555 1_555
C3_6 N2_6 1_555 1_555
C3_6 N3_6 1_555 1_555
C6_6 N4_6 1_555 1_555
C7_6 C8_6 1_555 1_555
C7_6 N4_6 1_555 1_555
C11_7 N5_7 1_555 1_555
C12_7 C13_7 1_555 1_555
C12_7 N5_7 1_555 1_555
C16_6 N6_6 1_555 1_555
C17_6 C18_6 1_555 1_555
C17_6 N6_6 1_555 1_555
C24_7 N10_6 1_555 1_555
C25_6 N10_6 1_555 1_555
Zn1_7 I1_7 1_555 1_555
Zn4_4 I3_8 1_555 1_555
Zn5_3 I5_5 1_555 1_555
I4_8 Zn4_4 1_555 1_555
I6_5 Zn5_3 1_555 1_555
C1_7 C4_7 1_555 1_555
C2_7 C9_8 1_555 1_555
C3_7 C14_7 1_555 1_555
C4_7 C5_7 1_555 1_555
C5_7 H1_7 1_555 1_555
C6_7 C5_7 1_555 1_555
H2_7 C6_7 1_555 1_555
C7_7 H3_7 1_555 1_555
C8_7 C4_7 1_555 1_555
H4_7 C8_7 1_555 1_555
C9_8 C10_8 1_555 1_555
C10_8 H5_8 1_555 1_555
C11_8 C10_8 1_555 1_555
H6_8 C11_8 1_555 1_555
C12_8 H7_8 1_555 1_555
C13_8 C9_8 1_555 1_555
H8_8 C13_8 1_555 1_555
C14_7 C15_7 1_555 1_555
C15_7 H9_7 1_555 1_555
C16_7 C15_7 1_555 1_555
H10_7 C16_7 1_555 1_555
C17_7 H11_7 1_555 1_555
C18_7 C14_7 1_555 1_555
H12_7 C18_7 1_555 1_555
C19_7 C22_7 1_555 1_555
C20_7 C27_7 1_555 1_555
C21_7 C32_7 1_555 1_555
C22_7 C23_8 1_555 1_555
C23_8 H13_8 1_555 1_555
C24_8 C23_8 1_555 1_555
H14_8 C24_8 1_555 1_555
C25_7 H15_7 1_555 1_555
C26_8 C22_7 1_555 1_555
H16_8 C26_8 1_555 1_555
C27_7 C28_8 1_555 1_555
C28_8 H17_8 1_555 1_555
C29_8 C28_8 1_555 1_555
H18_8 C29_8 1_555 1_555
C30_7 H19_7 1_555 1_555
C31_7 C27_7 1_555 1_555
H20_7 C31_7 1_555 1_555
C32_7 C33_7 1_555 1_555
C33_7 H21_7 1_555 1_555
C34_7 C33_7 1_555 1_555
H22_7 C34_7 1_555 1_555
C35_7 H23_7 1_555 1_555
C36_7 C32_7 1_555 1_555
H24_7 C36_7 1_555 1_555
N1_7 C1_7 1_555 1_555
N2_7 C2_7 1_555 1_555
N3_7 C1_7 1_555 1_555
N4_7 Zn1_7 1_555 1_555
N5_8 Zn4_4 1_555 1_555
N6_7 Zn5_3 1_555 1_555
N7_7 C19_7 1_555 1_555
N8_7 C20_7 1_555 1_555
N9_7 C19_7 1_555 1_555
N10_7 Zn1_7 1_555 1_555
N13_4 C29_8 1_555 1_555
N14_3 C34_7 1_555 1_555
C2_7 N1_7 1_555 1_555
C3_7 N2_7 1_555 1_555
C3_7 N3_7 1_555 1_555
C6_7 N4_7 1_555 1_555
C7_7 C8_7 1_555 1_555
C7_7 N4_7 1_555 1_555
C11_8 N5_8 1_555 1_555
C12_8 C13_8 1_555 1_555
C12_8 N5_8 1_555 1_555
C16_7 N6_7 1_555 1_555
C17_7 C18_7 1_555 1_555
C17_7 N6_7 1_555 1_555
C20_7 N7_7 1_555 1_555
C21_7 N8_7 1_555 1_555
C21_7 N9_7 1_555 1_555
C24_8 N10_7 1_555 1_555
C25_7 C26_8 1_555 1_555
C25_7 N10_7 1_555 1_555
C30_7 C31_7 1_555 1_555
C30_7 N13_4 1_555 1_555
C35_7 C36_7 1_555 1_555
C35_7 N14_3 1_555 1_555
Zn3_3 I5_6 1_555 1_555
I6_6 Zn3_3 1_555 1_555
C19_8 C22_8 1_555 1_555
C20_8 C27_8 1_555 1_555
C21_8 C32_8 1_555 1_555
C30_8 H19_8 1_555 1_555
C31_8 C27_8 1_555 1_555
H20_8 C31_8 1_555 1_555
C32_8 C33_8 1_555 1_555
C33_8 H21_8 1_555 1_555
C34_8 C33_8 1_555 1_555
H22_8 C34_8 1_555 1_555
C35_8 H23_8 1_555 1_555
C36_8 C32_8 1_555 1_555
H24_8 C36_8 1_555 1_555
N7_8 C19_8 1_555 1_555
N8_8 C20_8 1_555 1_555
N9_8 C19_8 1_555 1_555
N12_4 C34_8 1_555 1_555
Zn5_4 N12_4 1_555 1_555
C20_8 N7_8 1_555 1_555
C21_8 N8_8 1_555 1_555
C21_8 N9_8 1_555 1_555
C30_8 C31_8 1_555 1_555
C35_8 C36_8 1_555 1_555
C35_8 N12_4 1_555 1_555
Zn5_4 I5_7 1_555 1_555
I6_7 Zn5_4 1_555 1_555
Zn1_8 I1_8 1_555 1_555
Zn3_4 I5_8 1_555 1_555
I6_8 Zn3_4 1_555 1_555
C1_8 C4_8 1_555 1_555
C3_8 C14_8 1_555 1_555
C4_8 C5_8 1_555 1_555
C5_8 H1_8 1_555 1_555
C6_8 C5_8 1_555 1_555
H2_8 C6_8 1_555 1_555
C7_8 H3_8 1_555 1_555
C8_8 C4_8 1_555 1_555
H4_8 C8_8 1_555 1_555
C14_8 C15_8 1_555 1_555
C15_8 H9_8 1_555 1_555
C16_8 C15_8 1_555 1_555
H10_8 C16_8 1_555 1_555
C17_8 H11_8 1_555 1_555
C18_8 C14_8 1_555 1_555
H12_8 C18_8 1_555 1_555
C25_8 H15_8 1_555 1_555
N1_8 C1_8 1_555 1_555
N2_8 C2_8 1_555 1_555
N3_8 C1_8 1_555 1_555
N4_8 Zn1_8 1_555 1_555
N6_8 Zn3_4 1_555 1_555
N10_8 Zn1_8 1_555 1_555
C2_8 N1_8 1_555 1_555
C3_8 N2_8 1_555 1_555
C3_8 N3_8 1_555 1_555
C6_8 N4_8 1_555 1_555
C7_8 C8_8 1_555 1_555
C7_8 N4_8 1_555 1_555
C16_8 N6_8 1_555 1_555
C17_8 C18_8 1_555 1_555
C17_8 N6_8 1_555 1_555
C25_8 N10_8 1_555 1_555

#END
