
###############################################################################
#
# This file contains modified crystal structure data generated from the
# MOF subset of the Cambridge Structural Database (CSD) v543 
# hosted by the Cambridge Crystallographic Data Centre (CCDC).
#
# This work is licensed under the Creative Commons
# Attribution-NonCommercial-ShareAlike 4.0 International License.
# To view a copy of this license, visit
# http://creativecommons.org/licenses/by-nc-sa/4.0/
# or send a letter to
# Creative Commons, PO Box 1866, Mountain View, CA 94042, USA.
#
# CIF created using the CSD Python API on 29 September 2022
# The structure has been converted into the P1 space group
# The structure has a 3D framework
# The original CSD entry SOHMIM is in the orthorhombic crystal system
# The framework has been calculated to contain at least 10.0% void space
# The void calculation uses a probe of radius 1.32A, grid spacing 0.4
#
###############################################################################

data_SOHMIM
_chemical_formula_moiety         '(C288 H192 I48 N96 Zn24)n'
_symmetry_cell_setting           triclinic
_symmetry_space_group_name_H-M   'P 1'
_symmetry_Int_Tables_number      1
_space_group_name_Hall           'P 1'
loop_
_symmetry_equiv_pos_site_id
_symmetry_equiv_pos_as_xyz
1 x,y,z
_cell_length_a                   27.749(6)
_cell_length_b                   13.817(3)
_cell_length_c                   44.362(10)
_cell_angle_alpha                90
_cell_angle_beta                 90
_cell_angle_gamma                90
_cell_volume                     17008.7
loop_
_atom_site_label
_atom_site_type_symbol
_atom_site_fract_x
_atom_site_fract_y
_atom_site_fract_z
C19 C 0.0415(2) 0.5707(5) 0.36491(15)
H13 H 0.0120 0.5666 0.3541
C20 C 0.0837(2) 0.5561(5) 0.34939(15)
H14 H 0.0833 0.5419 0.3284
C21 C 0.0819(2) 0.5944(5) 0.40941(15)
H15 H 0.0813 0.6068 0.4305
C22 C 0.1258(2) 0.5812(5) 0.39536(15)
H16 H 0.1549 0.5850 0.4066
C23 C 0.1269(2) 0.5624(4) 0.36487(14)
C24 C 0.1738(2) 0.5500(4) 0.34938(14)
C25 C 0.3462(2) 0.6139(5) 0.40978(15)
H17 H 0.3470 0.6346 0.4302
C26 C 0.3018(2) 0.5976(5) 0.39657(14)
H18 H 0.2728 0.6062 0.4077
C27 C 0.3864(2) 0.5708(5) 0.36666(14)
H19 H 0.4160 0.5595 0.3564
C28 C 0.3442(2) 0.5547(4) 0.35170(15)
H20 H 0.3445 0.5344 0.3313
C29 C 0.3006(2) 0.5685(4) 0.36668(13)
C30 C 0.2544(2) 0.5537(4) 0.35055(13)
C31 C 0.2668(2) 0.4377(4) 0.23343(14)
H21 H 0.2969 0.4409 0.2232
C32 C 0.2636(2) 0.4770(4) 0.26197(14)
H22 H 0.2912 0.5047 0.2713
C33 C 0.1872(2) 0.3960(5) 0.23381(16)
H23 H 0.1604 0.3677 0.2239
C34 C 0.1807(3) 0.4351(5) 0.26192(16)
H24 H 0.1498 0.4345 0.2711
C35 C 0.2202(2) 0.4757(4) 0.27676(14)
C36 C 0.2164(2) 0.5114(4) 0.30782(14)
N7 N 0.0397(2) 0.5903(4) 0.39420(12)
N8 N 0.38761(19) 0.6020(4) 0.39545(12)
N9 N 0.2301(2) 0.3960(4) 0.21977(12)
N10 N 0.21357(18) 0.5665(3) 0.36545(11)
N11 N 0.25783(18) 0.5264(3) 0.32164(11)
N12 N 0.17267(19) 0.5220(3) 0.32039(11)
Zn4 Zn 0.45265(3) 0.64359(6) 0.413860(18)
Zn5 Zn 0.23951(3) 0.31829(5) 0.181060(16)
Zn3 Zn 0.73951(3) 0.18171(5) 0.818940(16)
I5 I 0.828710(18) 0.18278(4) 0.832530(11)
I6 I 0.695850(19) 0.34248(3) 0.812730(11)
C1 C 0.6979(3) 0.0047(5) 0.84778(15)
C3 C 0.6856(3) 0.1434(5) 0.87445(16)
H3 H 0.6888 0.2116 0.8762
C4 C 0.6627(3) 0.0942(5) 0.89730(16)
H4 H 0.6506 0.1279 0.9143
C8 C 0.5850(3) 0.0886(5) 0.99411(15)
H6 H 0.5983 0.1253 0.9780
N1 N 0.70341(19) 0.1007(4) 0.85011(12)
N14 N 0.7301(2) 0.1040(4) 0.78023(12)
Zn1 Zn 0.52457(3) 0.37777(5) 0.915156(19)
I1 I 0.505648(18) 0.30463(3) 0.966766(12)
I2 I 0.57402(2) 0.28939(4) 0.876086(15)
H1 H 0.7101 0.9728 0.8304
C2 C 0.6749(3) 0.9500(5) 0.86973(16)
H2 H 0.6711 0.8822 0.8672
C5 C 0.6577(2) 0.9953(4) 0.89508(14)
C6 C 0.6328(2) 0.9401(4) 0.91899(14)
C11 C 0.5780(2) 0.9899(4) 0.99123(14)
C12 C 0.5939(2) 0.9387(5) 0.96373(14)
C13 C 0.5546(2) 0.5518(5) 0.95058(15)
H9 H 0.5435 0.5145 0.9672
C14 C 0.5696(3) 0.6450(5) 0.95547(15)
H10 H 0.5684 0.6718 0.9752
C15 C 0.5723(2) 0.5648(5) 0.90016(15)
H11 H 0.5736 0.5364 0.8807
C16 C 0.5879(2) 0.6576(5) 0.90340(15)
H12 H 0.5995 0.6928 0.8865
C17 C 0.5866(2) 0.6999(4) 0.93168(15)
C18 C 0.5998(2) 0.8025(4) 0.93631(14)
C19_2 C 0.4585(2) 0.4293(5) 0.86491(15)
H13_2 H 0.4880 0.4334 0.8541
C20_2 C 0.4163(2) 0.4439(5) 0.84939(15)
H14_2 H 0.4167 0.4581 0.8284
C21_2 C 0.4181(2) 0.4056(5) 0.90941(15)
H15_2 H 0.4187 0.3932 0.9305
C22_2 C 0.3742(2) 0.4188(5) 0.89536(15)
H16_2 H 0.3451 0.4150 0.9066
C23_2 C 0.3731(2) 0.4376(4) 0.86487(14)
C24_2 C 0.3262(2) 0.4500(4) 0.84938(14)
C25_2 C 0.1538(2) 0.3861(5) 0.90978(15)
H17_2 H 0.1530 0.3654 0.9302
C26_2 C 0.1982(2) 0.4024(5) 0.89657(14)
H18_2 H 0.2272 0.3938 0.9077
C27_2 C 0.1136(2) 0.4292(5) 0.86666(14)
H19_2 H 0.0840 0.4405 0.8564
C28_2 C 0.1558(2) 0.4453(4) 0.85170(15)
H20_2 H 0.1555 0.4656 0.8313
C29_2 C 0.1994(2) 0.4315(4) 0.86668(13)
C30_2 C 0.2456(2) 0.4463(4) 0.85055(13)
C31_2 C 0.2332(2) 0.5623(4) 0.73343(14)
H21_2 H 0.2031 0.5591 0.7232
C32_2 C 0.2364(2) 0.5230(4) 0.76197(14)
H22_2 H 0.2088 0.4953 0.7713
C33_2 C 0.3128(2) 0.6040(5) 0.73381(16)
H23_2 H 0.3396 0.6323 0.7239
C34_2 C 0.3193(3) 0.5649(5) 0.76192(16)
H24_2 H 0.3502 0.5655 0.7711
C35_2 C 0.2798(2) 0.5243(4) 0.77676(14)
C36_2 C 0.2836(2) 0.4886(4) 0.80782(14)
N3 N 0.55519(18) 0.5114(4) 0.92286(12)
N4 N 0.61808(19) 0.9903(4) 0.94289(11)
N5 N 0.5833(2) 0.8455(4) 0.96118(12)
N6 N 0.62547(19) 0.8455(4) 0.91471(12)
N7_2 N 0.4603(2) 0.4097(4) 0.89420(12)
N8_2 N 0.11239(19) 0.3980(4) 0.89545(12)
N9_2 N 0.2699(2) 0.6040(4) 0.71977(12)
N10_2 N 0.28643(18) 0.4335(3) 0.86545(11)
N11_2 N 0.24217(18) 0.4736(3) 0.82164(11)
N12_2 N 0.32733(19) 0.4780(3) 0.82039(11)
Zn4_2 Zn 0.04735(3) 0.35641(6) 0.913860(18)
Zn5_2 Zn 0.26049(3) 0.68171(5) 0.681060(16)
I5_2 I 0.328710(18) 0.31722(4) 0.167470(11)
I6_2 I 0.195850(19) 0.15752(3) 0.187270(11)
C1_2 C 0.1979(3) 0.4953(5) 0.15222(15)
H1_2 H 0.2101 0.5272 0.1696
C2_2 C 0.1749(3) 0.5500(5) 0.13027(16)
H2_2 H 0.1711 0.6178 0.1328
C3_2 C 0.1856(3) 0.3566(5) 0.12555(16)
H3_2 H 0.1888 0.2884 0.1238
C4_2 C 0.1627(3) 0.4058(5) 0.10270(16)
H4_2 H 0.1506 0.3721 0.0857
C5_2 C 0.1577(2) 0.5047(4) 0.10492(14)
C6_2 C 0.1328(2) 0.5599(4) 0.08101(14)
C8_2 C 0.0850(3) 0.4114(5) 0.00589(15)
H6_2 H 0.0983 0.3747 0.0220
C11_2 C 0.0780(2) 0.5101(4) 0.00877(14)
C12_2 C 0.0939(2) 0.5613(5) 0.03627(14)
C13_2 C 0.0546(2) 0.9482(5) 0.04942(15)
H9_2 H 0.0435 0.9855 0.0328
C14_2 C 0.0696(3) 0.8550(5) 0.04453(15)
H10_2 H 0.0684 0.8282 0.0248
C15_2 C 0.0723(2) 0.9352(5) 0.09984(15)
H11_2 H 0.0736 0.9636 0.1193
C16_2 C 0.0879(2) 0.8424(5) 0.09660(15)
H12_2 H 0.0995 0.8072 0.1135
C17_2 C 0.0866(2) 0.8001(4) 0.06832(15)
C18_2 C 0.0998(2) 0.6975(4) 0.06369(14)
N1_2 N 0.20341(19) 0.3993(4) 0.14989(12)
N3_2 N 0.05519(18) 0.9886(4) 0.07714(12)
N4_2 N 0.11808(19) 0.5097(4) 0.05711(11)
N5_2 N 0.0833(2) 0.6545(4) 0.03882(12)
N6_2 N 0.12547(19) 0.6545(4) 0.08529(12)
I3 I 0.054060(19) 0.17307(3) 0.919870(13)
C7 C 0.0721(3) 0.3675(5) 0.97905(15)
H5 H 0.0770 0.2997 0.9770
C9 C 0.0441(2) 0.5120(5) 0.95969(15)
H7 H 0.0285 0.5466 0.9440
C10 C 0.0567(2) 0.5605(5) 0.98568(15)
H8 H 0.0507 0.6280 0.9876
N2 N 0.05321(18) 0.4166(4) 0.95595(12)
I3_2 I 0.445940(19) 0.82693(3) 0.419870(13)
I4 I 0.517480(17) 0.55959(4) 0.383550(12)
I5_3 I 0.171290(18) 0.68278(4) 0.667470(11)
I6_3 I 0.304150(19) 0.84248(3) 0.687270(11)
C1_3 C 0.3021(3) 0.5047(5) 0.65222(15)
H1_3 H 0.2899 0.4728 0.6696
C2_3 C 0.3251(3) 0.4500(5) 0.63027(16)
H2_3 H 0.3289 0.3822 0.6328
C3_3 C 0.3144(3) 0.6434(5) 0.62555(16)
H3_3 H 0.3112 0.7116 0.6238
C4_3 C 0.3373(3) 0.5942(5) 0.60270(16)
H4_3 H 0.3494 0.6279 0.5857
C5_3 C 0.3423(2) 0.4953(4) 0.60492(14)
C6_3 C 0.3672(2) 0.4401(4) 0.58101(14)
C7_2 C 0.4279(3) 0.6325(5) 0.47905(15)
H5_2 H 0.4230 0.7003 0.4770
C8_3 C 0.4150(3) 0.5886(5) 0.50589(15)
H6_3 H 0.4017 0.6253 0.5220
C9_2 C 0.4559(2) 0.4880(5) 0.45969(15)
H7_2 H 0.4715 0.4534 0.4440
C10_2 C 0.4433(2) 0.4395(5) 0.48568(15)
H8_2 H 0.4493 0.3720 0.4876
C11_3 C 0.4220(2) 0.4899(4) 0.50877(14)
C12_3 C 0.4061(2) 0.4387(5) 0.53627(14)
C13_3 C 0.4454(2) 0.0518(5) 0.54942(15)
H9_3 H 0.4565 0.0145 0.5328
C14_3 C 0.4304(3) 0.1450(5) 0.54453(15)
H10_3 H 0.4316 0.1718 0.5248
C15_3 C 0.4277(2) 0.0648(5) 0.59984(15)
H11_3 H 0.4264 0.0364 0.6193
C16_3 C 0.4121(2) 0.1576(5) 0.59660(15)
H12_3 H 0.4005 0.1928 0.6135
C17_3 C 0.4134(2) 0.1999(4) 0.56832(15)
C18_3 C 0.4002(2) 0.3025(4) 0.56369(14)
C31_3 C 0.7668(2) 0.0623(4) 0.76657(14)
H21_3 H 0.7969 0.0591 0.7768
C32_3 C 0.7636(2) 0.0230(4) 0.73803(14)
C33_3 C 0.6872(2) 0.1040(5) 0.76619(16)
H23_3 H 0.6604 0.1323 0.7761
C34_3 C 0.6807(3) 0.0649(5) 0.73808(16)
H24_3 H 0.6498 0.0655 0.7289
C35_3 C 0.7202(2) 0.0243(4) 0.72324(14)
N1_3 N 0.29659(19) 0.6007(4) 0.64989(12)
N2_2 N 0.44679(18) 0.5834(4) 0.45595(12)
N3_3 N 0.44481(18) 0.0114(4) 0.57714(12)
N4_3 N 0.38192(19) 0.4903(4) 0.55711(11)
N5_3 N 0.4167(2) 0.3455(4) 0.53882(12)
N6_3 N 0.37453(19) 0.3455(4) 0.58529(12)
I4_2 I 0.017480(17) 0.94041(4) 0.616450(12)
Zn1_2 Zn 0.97543(3) 0.62223(5) 0.415156(19)
I1_2 I 0.994352(18) 0.69537(3) 0.466766(12)
I2_2 I 0.92598(2) 0.71061(4) 0.376086(15)
H1_4 H 0.7899 0.0272 0.3304
C2_4 C 0.8251(3) 0.0500(5) 0.36973(16)
H2_4 H 0.8289 0.1178 0.3672
C5_4 C 0.8423(2) 0.0047(4) 0.39508(14)
C6_4 C 0.8672(2) 0.0599(4) 0.41899(14)
C9_3 C 0.9559(2) 0.0120(5) 0.54031(15)
H7_3 H 0.9715 0.0466 0.5560
C10_3 C 0.9433(2) 0.0605(5) 0.51432(15)
H8_3 H 0.9493 0.1280 0.5124
C11_4 C 0.9220(2) 0.0101(4) 0.49123(14)
C12_4 C 0.9061(2) 0.0613(5) 0.46373(14)
C13_4 C 0.9454(2) 0.4482(5) 0.45058(15)
H9_4 H 0.9565 0.4855 0.4672
C14_4 C 0.9304(3) 0.3550(5) 0.45547(15)
H10_4 H 0.9316 0.3282 0.4752
C15_4 C 0.9277(2) 0.4352(5) 0.40016(15)
H11_4 H 0.9264 0.4636 0.3807
C16_4 C 0.9121(2) 0.3424(5) 0.40340(15)
H12_4 H 0.9005 0.3072 0.3865
C17_4 C 0.9134(2) 0.3001(4) 0.43168(15)
C18_4 C 0.9002(2) 0.1975(4) 0.43631(14)
N3_4 N 0.94481(18) 0.4886(4) 0.42286(12)
N4_4 N 0.88192(19) 0.0097(4) 0.44289(11)
N5_4 N 0.9167(2) 0.1545(4) 0.46118(12)
N6_4 N 0.87453(19) 0.1545(4) 0.41471(12)
Zn2 Zn 0.95265(3) 0.85641(6) 0.586140(18)
Zn3_2 Zn 0.76049(3) 0.81829(5) 0.318940(16)
I3_3 I 0.945940(19) 0.67307(3) 0.580130(13)
I5_4 I 0.671290(18) 0.81722(4) 0.332530(11)
I6_4 I 0.804150(19) 0.65752(3) 0.312730(11)
C1_4 C 0.8021(3) 0.9953(5) 0.34778(15)
C3_4 C 0.8144(3) 0.8566(5) 0.37445(16)
H3_4 H 0.8112 0.7884 0.3762
C4_4 C 0.8373(3) 0.9058(5) 0.39730(16)
H4_4 H 0.8494 0.8721 0.4143
C7_3 C 0.9279(3) 0.8675(5) 0.52095(15)
H5_3 H 0.9230 0.7997 0.5230
C8_4 C 0.9150(3) 0.9114(5) 0.49411(15)
H6_4 H 0.9017 0.8747 0.4780
N1_4 N 0.79659(19) 0.8993(4) 0.35011(12)
N2_3 N 0.94679(18) 0.9166(4) 0.54405(12)
N13 N 0.88761(19) 0.8980(4) 0.60455(12)
N14_2 N 0.7699(2) 0.8960(4) 0.28023(12)
C31_4 C 0.7332(2) 0.9377(4) 0.26657(14)
H21_4 H 0.7031 0.9409 0.2768
C32_4 C 0.7364(2) 0.9770(4) 0.23803(14)
C33_4 C 0.8128(2) 0.8960(5) 0.26619(16)
H23_4 H 0.8396 0.8677 0.2761
C34_4 C 0.8193(3) 0.9351(5) 0.23808(16)
H24_4 H 0.8502 0.9345 0.2289
C35_4 C 0.7798(2) 0.9757(4) 0.22324(14)
Zn1_3 Zn 0.47543(3) 0.87777(5) 0.584844(19)
I1_3 I 0.494352(18) 0.80463(3) 0.533234(12)
I2_3 I 0.42598(2) 0.78939(4) 0.623914(15)
C19_3 C 0.5415(2) 0.9293(5) 0.63509(15)
H13_3 H 0.5120 0.9334 0.6459
C20_3 C 0.5837(2) 0.9439(5) 0.65061(15)
H14_3 H 0.5833 0.9581 0.6716
C21_3 C 0.5819(2) 0.9056(5) 0.59059(15)
H15_3 H 0.5813 0.8932 0.5695
C22_3 C 0.6258(2) 0.9188(5) 0.60464(15)
H16_3 H 0.6549 0.9150 0.5934
C23_3 C 0.6269(2) 0.9376(4) 0.63513(14)
C24_3 C 0.6738(2) 0.9500(4) 0.65062(14)
C25_3 C 0.8462(2) 0.8861(5) 0.59022(15)
H17_3 H 0.8470 0.8654 0.5698
C26_3 C 0.8018(2) 0.9024(5) 0.60343(14)
H18_3 H 0.7728 0.8938 0.5923
C27_3 C 0.8864(2) 0.9292(5) 0.63334(14)
H19_3 H 0.9160 0.9405 0.6436
C28_3 C 0.8442(2) 0.9453(4) 0.64830(15)
H20_3 H 0.8445 0.9656 0.6687
C29_3 C 0.8006(2) 0.9315(4) 0.63332(13)
C30_3 C 0.7544(2) 0.9463(4) 0.64945(13)
H22_3 H 0.7912 0.9953 0.7287
C36_3 C 0.7164(2) 0.9886(4) 0.69218(14)
N7_3 N 0.5397(2) 0.9097(4) 0.60580(12)
N10_3 N 0.71357(18) 0.9335(3) 0.63455(11)
N11_3 N 0.75783(18) 0.9736(3) 0.67836(11)
N12_3 N 0.67267(19) 0.9780(3) 0.67961(11)
Zn2_2 Zn 0.54735(3) 0.14359(6) 0.086140(18)
I3_4 I 0.554060(19) 0.32693(3) 0.080130(13)
I4_3 I 0.482520(17) 0.05959(4) 0.116450(12)
C7_4 C 0.5721(3) 0.1325(5) 0.02095(15)
H5_4 H 0.5770 0.2003 0.0230
N2_4 N 0.55321(18) 0.0834(4) 0.04405(12)
N13_2 N 0.61239(19) 0.1020(4) 0.10455(12)
C19_4 C 0.9585(2) 0.0707(5) 0.13509(15)
H13_4 H 0.9880 0.0666 0.1459
C20_4 C 0.9163(2) 0.0561(5) 0.15061(15)
H14_4 H 0.9167 0.0419 0.1716
C21_4 C 0.9181(2) 0.0944(5) 0.09059(15)
H15_4 H 0.9187 0.1068 0.0695
C22_4 C 0.8742(2) 0.0812(5) 0.10464(15)
H16_4 H 0.8451 0.0850 0.0934
C23_4 C 0.8731(2) 0.0624(4) 0.13513(14)
C24_4 C 0.8262(2) 0.0500(4) 0.15062(14)
C25_4 C 0.6538(2) 0.1139(5) 0.09022(15)
H17_4 H 0.6530 0.1346 0.0698
C26_4 C 0.6982(2) 0.0976(5) 0.10343(14)
H18_4 H 0.7272 0.1062 0.0923
C27_4 C 0.6136(2) 0.0708(5) 0.13334(14)
H19_4 H 0.5840 0.0595 0.1436
C28_4 C 0.6558(2) 0.0547(4) 0.14830(15)
H20_4 H 0.6555 0.0344 0.1687
C29_4 C 0.6994(2) 0.0685(4) 0.13332(13)
C30_4 C 0.7456(2) 0.0537(4) 0.14945(13)
H22_4 H 0.7088 0.0047 0.2287
C36_4 C 0.7836(2) 0.0114(4) 0.19218(14)
N7_4 N 0.9603(2) 0.0903(4) 0.10580(12)
N10_4 N 0.78643(18) 0.0665(3) 0.13455(11)
N11_4 N 0.74217(18) 0.0264(3) 0.17836(11)
N12_4 N 0.82733(19) 0.0220(3) 0.17961(11)
C9_4 C 0.5441(2) 0.9880(5) 0.04031(15)
H7_4 H 0.5285 0.9534 0.0560
C10_4 C 0.5567(2) 0.9395(5) 0.01432(15)
H8_4 H 0.5507 0.8720 0.0124
Zn1_4 Zn 0.02457(3) 0.12223(5) 0.084844(19)
I1_4 I 0.005648(18) 0.19537(3) 0.033234(12)
I2_4 I 0.07402(2) 0.21061(4) 0.123914(15)
I4_4 I 0.982520(17) 0.44041(4) 0.883550(12)
Zn2_3 Zn 0.04735(3) 0.14359(6) 0.413860(18)
Zn3_3 Zn 0.23951(3) 0.18171(5) 0.681060(16)
I3_5 I 0.054060(19) 0.32693(3) 0.419870(13)
I5_5 I 0.328710(18) 0.18278(4) 0.667470(11)
I6_5 I 0.195850(19) 0.34248(3) 0.687270(11)
C1_5 C 0.1979(3) 0.0047(5) 0.65222(15)
C3_5 C 0.1856(3) 0.1434(5) 0.62555(16)
H3_5 H 0.1888 0.2116 0.6238
C4_5 C 0.1627(3) 0.0942(5) 0.60270(16)
H4_5 H 0.1506 0.1279 0.5857
C7_5 C 0.0721(3) 0.1325(5) 0.47905(15)
H5_5 H 0.0770 0.2003 0.4770
C8_5 C 0.0850(3) 0.0886(5) 0.50589(15)
H6_5 H 0.0983 0.1253 0.5220
N1_5 N 0.20341(19) 0.1007(4) 0.64989(12)
N2_5 N 0.05321(18) 0.0834(4) 0.45595(12)
N13_3 N 0.11239(19) 0.1020(4) 0.39545(12)
N14_3 N 0.2301(2) 0.1040(4) 0.71977(12)
C31_5 C 0.2668(2) 0.0623(4) 0.73343(14)
H21_5 H 0.2969 0.0591 0.7232
C32_5 C 0.2636(2) 0.0230(4) 0.76197(14)
C33_5 C 0.1872(2) 0.1040(5) 0.73381(16)
H23_5 H 0.1604 0.1323 0.7239
C34_5 C 0.1807(3) 0.0649(5) 0.76192(16)
H24_5 H 0.1498 0.0655 0.7711
C35_5 C 0.2202(2) 0.0243(4) 0.77676(14)
Zn1_5 Zn 0.52457(3) 0.12223(5) 0.415156(19)
I1_5 I 0.505648(18) 0.19537(3) 0.466766(12)
I2_5 I 0.57402(2) 0.21061(4) 0.376086(15)
C19_5 C 0.4585(2) 0.0707(5) 0.36491(15)
H13_5 H 0.4880 0.0666 0.3541
C20_5 C 0.4163(2) 0.0561(5) 0.34939(15)
H14_5 H 0.4167 0.0419 0.3284
C21_5 C 0.4181(2) 0.0944(5) 0.40941(15)
H15_5 H 0.4187 0.1068 0.4305
C22_5 C 0.3742(2) 0.0812(5) 0.39536(15)
H16_5 H 0.3451 0.0850 0.4066
C23_5 C 0.3731(2) 0.0624(4) 0.36487(14)
C24_5 C 0.3262(2) 0.0500(4) 0.34938(14)
C25_5 C 0.1538(2) 0.1139(5) 0.40978(15)
H17_5 H 0.1530 0.1346 0.4302
C26_5 C 0.1982(2) 0.0976(5) 0.39657(14)
H18_5 H 0.2272 0.1062 0.4077
C27_5 C 0.1136(2) 0.0708(5) 0.36666(14)
H19_5 H 0.0840 0.0595 0.3564
C28_5 C 0.1558(2) 0.0547(4) 0.35170(15)
H20_5 H 0.1555 0.0344 0.3313
C29_5 C 0.1994(2) 0.0685(4) 0.36668(13)
C30_5 C 0.2456(2) 0.0537(4) 0.35055(13)
H22_5 H 0.2088 0.0047 0.2713
C36_5 C 0.2836(2) 0.0114(4) 0.30782(14)
N7_5 N 0.4603(2) 0.0903(4) 0.39420(12)
N10_5 N 0.28643(18) 0.0665(3) 0.36545(11)
N11_5 N 0.24217(18) 0.0264(3) 0.32164(11)
N12_5 N 0.32733(19) 0.0220(3) 0.32039(11)
Zn1_6 Zn 0.02457(3) 0.37777(5) 0.584844(19)
I1_6 I 0.005648(18) 0.30463(3) 0.533234(12)
I2_6 I 0.07402(2) 0.28939(4) 0.623914(15)
H1_5 H 0.2101 0.9728 0.6696
C2_5 C 0.1749(3) 0.9500(5) 0.63027(16)
H2_5 H 0.1711 0.8822 0.6328
C5_5 C 0.1577(2) 0.9953(4) 0.60492(14)
C6_5 C 0.1328(2) 0.9401(4) 0.58101(14)
C9_5 C 0.0441(2) 0.9880(5) 0.45969(15)
H7_5 H 0.0285 0.9534 0.4440
C10_5 C 0.0567(2) 0.9395(5) 0.48568(15)
H8_5 H 0.0507 0.8720 0.4876
C11_5 C 0.0780(2) 0.9899(4) 0.50877(14)
C12_5 C 0.0939(2) 0.9387(5) 0.53627(14)
C13_5 C 0.0546(2) 0.5518(5) 0.54942(15)
H9_5 H 0.0435 0.5145 0.5328
C14_5 C 0.0696(3) 0.6450(5) 0.54453(15)
H10_5 H 0.0684 0.6718 0.5248
C15_5 C 0.0723(2) 0.5648(5) 0.59984(15)
H11_5 H 0.0736 0.5364 0.6193
C16_5 C 0.0879(2) 0.6576(5) 0.59660(15)
H12_5 H 0.0995 0.6928 0.6135
C17_5 C 0.0866(2) 0.6999(4) 0.56832(15)
C18_5 C 0.0998(2) 0.8025(4) 0.56369(14)
N3_5 N 0.05519(18) 0.5114(4) 0.57714(12)
N4_5 N 0.11808(19) 0.9903(4) 0.55711(11)
N5_5 N 0.0833(2) 0.8455(4) 0.53882(12)
N6_5 N 0.12547(19) 0.8455(4) 0.58529(12)
I4_5 I 0.982520(17) 0.05959(4) 0.383550(12)
C19_6 C 0.9585(2) 0.4293(5) 0.63509(15)
H13_6 H 0.9880 0.4334 0.6459
C20_6 C 0.9163(2) 0.4439(5) 0.65061(15)
H14_6 H 0.9167 0.4581 0.6716
C21_6 C 0.9181(2) 0.4056(5) 0.59059(15)
H15_6 H 0.9187 0.3932 0.5695
C22_6 C 0.8742(2) 0.4188(5) 0.60464(15)
H16_6 H 0.8451 0.4150 0.5934
C23_6 C 0.8731(2) 0.4376(4) 0.63513(14)
C24_6 C 0.8262(2) 0.4500(4) 0.65062(14)
C25_6 C 0.6538(2) 0.3861(5) 0.59022(15)
H17_6 H 0.6530 0.3654 0.5698
C26_6 C 0.6982(2) 0.4024(5) 0.60343(14)
H18_6 H 0.7272 0.3938 0.5923
C27_6 C 0.6136(2) 0.4292(5) 0.63334(14)
H19_6 H 0.5840 0.4405 0.6436
C28_6 C 0.6558(2) 0.4453(4) 0.64830(15)
H20_6 H 0.6555 0.4656 0.6687
C29_6 C 0.6994(2) 0.4315(4) 0.63332(13)
C30_6 C 0.7456(2) 0.4463(4) 0.64945(13)
C31_6 C 0.7332(2) 0.5623(4) 0.76657(14)
H21_6 H 0.7031 0.5591 0.7768
C32_6 C 0.7364(2) 0.5230(4) 0.73803(14)
H22_6 H 0.7088 0.4953 0.7287
C33_6 C 0.8128(2) 0.6040(5) 0.76619(16)
H23_6 H 0.8396 0.6323 0.7761
C34_6 C 0.8193(3) 0.5649(5) 0.73808(16)
H24_6 H 0.8502 0.5655 0.7289
C35_6 C 0.7798(2) 0.5243(4) 0.72324(14)
C36_6 C 0.7836(2) 0.4886(4) 0.69218(14)
N7_6 N 0.9603(2) 0.4097(4) 0.60580(12)
N8_3 N 0.61239(19) 0.3980(4) 0.60455(12)
N9_3 N 0.7699(2) 0.6040(4) 0.78023(12)
N10_6 N 0.78643(18) 0.4335(3) 0.63455(11)
N11_6 N 0.74217(18) 0.4736(3) 0.67836(11)
N12_6 N 0.82733(19) 0.4780(3) 0.67961(11)
Zn4_3 Zn 0.54735(3) 0.35641(6) 0.586140(18)
Zn5_3 Zn 0.76049(3) 0.68171(5) 0.818940(16)
Zn1_7 Zn 0.47543(3) 0.62223(5) 0.084844(19)
I1_7 I 0.494352(18) 0.69537(3) 0.033234(12)
I2_7 I 0.42598(2) 0.71061(4) 0.123914(15)
H1_6 H 0.2899 0.0272 0.1696
C2_6 C 0.3251(3) 0.0500(5) 0.13027(16)
H2_6 H 0.3289 0.1178 0.1328
C5_6 C 0.3423(2) 0.0047(4) 0.10492(14)
C6_6 C 0.3672(2) 0.0599(4) 0.08101(14)
C11_6 C 0.4220(2) 0.0101(4) 0.00877(14)
C12_6 C 0.4061(2) 0.0613(5) 0.03627(14)
C13_6 C 0.4454(2) 0.4482(5) 0.04942(15)
H9_6 H 0.4565 0.4855 0.0328
C14_6 C 0.4304(3) 0.3550(5) 0.04453(15)
H10_6 H 0.4316 0.3282 0.0248
C15_6 C 0.4277(2) 0.4352(5) 0.09984(15)
H11_6 H 0.4264 0.4636 0.1193
C16_6 C 0.4121(2) 0.3424(5) 0.09660(15)
H12_6 H 0.4005 0.3072 0.1135
C17_6 C 0.4134(2) 0.3001(4) 0.06832(15)
C18_6 C 0.4002(2) 0.1975(4) 0.06369(14)
C19_7 C 0.5415(2) 0.5707(5) 0.13509(15)
H13_7 H 0.5120 0.5666 0.1459
C20_7 C 0.5837(2) 0.5561(5) 0.15061(15)
H14_7 H 0.5833 0.5419 0.1716
C21_7 C 0.5819(2) 0.5944(5) 0.09059(15)
H15_7 H 0.5813 0.6068 0.0695
C22_7 C 0.6258(2) 0.5812(5) 0.10464(15)
H16_7 H 0.6549 0.5850 0.0934
C23_7 C 0.6269(2) 0.5624(4) 0.13513(14)
C24_7 C 0.6738(2) 0.5500(4) 0.15062(14)
C25_7 C 0.8462(2) 0.6139(5) 0.09022(15)
H17_7 H 0.8470 0.6346 0.0698
C26_7 C 0.8018(2) 0.5976(5) 0.10343(14)
H18_7 H 0.7728 0.6062 0.0923
C27_7 C 0.8864(2) 0.5708(5) 0.13334(14)
H19_7 H 0.9160 0.5595 0.1436
C28_7 C 0.8442(2) 0.5547(4) 0.14830(15)
H20_7 H 0.8445 0.5344 0.1687
C29_7 C 0.8006(2) 0.5685(4) 0.13332(13)
C30_7 C 0.7544(2) 0.5537(4) 0.14945(13)
C31_7 C 0.7668(2) 0.4377(4) 0.26657(14)
H21_7 H 0.7969 0.4409 0.2768
C32_7 C 0.7636(2) 0.4770(4) 0.23803(14)
H22_7 H 0.7912 0.5047 0.2287
C33_7 C 0.6872(2) 0.3960(5) 0.26619(16)
H23_7 H 0.6604 0.3677 0.2761
C34_7 C 0.6807(3) 0.4351(5) 0.23808(16)
H24_7 H 0.6498 0.4345 0.2289
C35_7 C 0.7202(2) 0.4757(4) 0.22324(14)
C36_7 C 0.7164(2) 0.5114(4) 0.19218(14)
N3_6 N 0.44481(18) 0.4886(4) 0.07714(12)
N4_6 N 0.38192(19) 0.0097(4) 0.05711(11)
N5_6 N 0.4167(2) 0.1545(4) 0.03882(12)
N6_6 N 0.37453(19) 0.1545(4) 0.08529(12)
N7_7 N 0.5397(2) 0.5903(4) 0.10580(12)
N8_4 N 0.88761(19) 0.6020(4) 0.10455(12)
N9_4 N 0.7301(2) 0.3960(4) 0.28023(12)
N10_7 N 0.71357(18) 0.5665(3) 0.13455(11)
N11_7 N 0.75783(18) 0.5264(3) 0.17836(11)
N12_7 N 0.67267(19) 0.5220(3) 0.17961(11)
Zn4_4 Zn 0.95265(3) 0.64359(6) 0.086140(18)
Zn5_4 Zn 0.73951(3) 0.31829(5) 0.318940(16)
Zn3_4 Zn 0.26049(3) 0.81829(5) 0.181060(16)
I5_6 I 0.171290(18) 0.81722(4) 0.167470(11)
I6_6 I 0.304150(19) 0.65752(3) 0.187270(11)
C1_6 C 0.3021(3) 0.9953(5) 0.15222(15)
C3_6 C 0.3144(3) 0.8566(5) 0.12555(16)
H3_6 H 0.3112 0.7884 0.1238
C4_6 C 0.3373(3) 0.9058(5) 0.10270(16)
H4_6 H 0.3494 0.8721 0.0857
C8_6 C 0.4150(3) 0.9114(5) 0.00589(15)
H6_6 H 0.4017 0.8747 0.0220
N1_6 N 0.29659(19) 0.8993(4) 0.14989(12)
N14_4 N 0.2699(2) 0.8960(4) 0.21977(12)
I3_6 I 0.945940(19) 0.82693(3) 0.080130(13)
C7_6 C 0.9279(3) 0.6325(5) 0.02095(15)
H5_6 H 0.9230 0.7003 0.0230
C9_6 C 0.9559(2) 0.4880(5) 0.04031(15)
H7_6 H 0.9715 0.4534 0.0560
C10_6 C 0.9433(2) 0.4395(5) 0.01432(15)
H8_6 H 0.9493 0.3720 0.0124
N2_6 N 0.94679(18) 0.5834(4) 0.04405(12)
I5_7 I 0.671290(18) 0.68278(4) 0.832530(11)
I6_7 I 0.804150(19) 0.84248(3) 0.812730(11)
C1_7 C 0.8021(3) 0.5047(5) 0.84778(15)
H1_7 H 0.7899 0.4728 0.8304
C2_7 C 0.8251(3) 0.4500(5) 0.86973(16)
H2_7 H 0.8289 0.3822 0.8672
C3_7 C 0.8144(3) 0.6434(5) 0.87445(16)
H3_7 H 0.8112 0.7116 0.8762
C4_7 C 0.8373(3) 0.5942(5) 0.89730(16)
H4_7 H 0.8494 0.6279 0.9143
C5_7 C 0.8423(2) 0.4953(4) 0.89508(14)
C6_7 C 0.8672(2) 0.4401(4) 0.91899(14)
C8_7 C 0.9150(3) 0.5886(5) 0.99411(15)
H6_7 H 0.9017 0.6253 0.9780
C11_7 C 0.9220(2) 0.4899(4) 0.99123(14)
C12_7 C 0.9061(2) 0.4387(5) 0.96373(14)
C13_7 C 0.9454(2) 0.0518(5) 0.95058(15)
H9_7 H 0.9565 0.0145 0.9672
C14_7 C 0.9304(3) 0.1450(5) 0.95547(15)
H10_7 H 0.9316 0.1718 0.9752
C15_7 C 0.9277(2) 0.0648(5) 0.90016(15)
H11_7 H 0.9264 0.0364 0.8807
C16_7 C 0.9121(2) 0.1576(5) 0.90340(15)
H12_7 H 0.9005 0.1928 0.8865
C17_7 C 0.9134(2) 0.1999(4) 0.93168(15)
C18_7 C 0.9002(2) 0.3025(4) 0.93631(14)
N1_7 N 0.79659(19) 0.6007(4) 0.85011(12)
N3_7 N 0.94481(18) 0.0114(4) 0.92286(12)
N4_7 N 0.88192(19) 0.4903(4) 0.94289(11)
N5_7 N 0.9167(2) 0.3455(4) 0.96118(12)
N6_7 N 0.87453(19) 0.3455(4) 0.91471(12)
I3_7 I 0.554060(19) 0.17307(3) 0.580130(13)
I4_6 I 0.482520(17) 0.44041(4) 0.616450(12)
I5_8 I 0.828710(18) 0.31722(4) 0.332530(11)
I6_8 I 0.695850(19) 0.15752(3) 0.312730(11)
C1_8 C 0.6979(3) 0.4953(5) 0.34778(15)
H1_8 H 0.7101 0.5272 0.3304
C2_8 C 0.6749(3) 0.5500(5) 0.36973(16)
H2_8 H 0.6711 0.6178 0.3672
C3_8 C 0.6856(3) 0.3566(5) 0.37445(16)
H3_8 H 0.6888 0.2884 0.3762
C4_8 C 0.6627(3) 0.4058(5) 0.39730(16)
H4_8 H 0.6506 0.3721 0.4143
C5_8 C 0.6577(2) 0.5047(4) 0.39508(14)
C6_8 C 0.6328(2) 0.5599(4) 0.41899(14)
C7_7 C 0.5721(3) 0.3675(5) 0.52095(15)
H5_7 H 0.5770 0.2997 0.5230
C8_8 C 0.5850(3) 0.4114(5) 0.49411(15)
H6_8 H 0.5983 0.3747 0.4780
C9_7 C 0.5441(2) 0.5120(5) 0.54031(15)
H7_7 H 0.5285 0.5466 0.5560
C10_7 C 0.5567(2) 0.5605(5) 0.51432(15)
H8_7 H 0.5507 0.6280 0.5124
C11_8 C 0.5780(2) 0.5101(4) 0.49123(14)
C12_8 C 0.5939(2) 0.5613(5) 0.46373(14)
C13_8 C 0.5546(2) 0.9482(5) 0.45058(15)
H9_8 H 0.5435 0.9855 0.4672
C14_8 C 0.5696(3) 0.8550(5) 0.45547(15)
H10_8 H 0.5684 0.8282 0.4752
C15_8 C 0.5723(2) 0.9352(5) 0.40016(15)
H11_8 H 0.5736 0.9636 0.3807
C16_8 C 0.5879(2) 0.8424(5) 0.40340(15)
H12_8 H 0.5995 0.8072 0.3865
C17_8 C 0.5866(2) 0.8001(4) 0.43168(15)
C18_8 C 0.5998(2) 0.6975(4) 0.43631(14)
C31_8 C 0.2332(2) 0.9377(4) 0.23343(14)
H21_8 H 0.2031 0.9409 0.2232
C32_8 C 0.2364(2) 0.9770(4) 0.26197(14)
C33_8 C 0.3128(2) 0.8960(5) 0.23381(16)
H23_8 H 0.3396 0.8677 0.2239
C34_8 C 0.3193(3) 0.9351(5) 0.26192(16)
H24_8 H 0.3502 0.9345 0.2711
C35_8 C 0.2798(2) 0.9757(4) 0.27676(14)
N1_8 N 0.70341(19) 0.3993(4) 0.35011(12)
N2_7 N 0.55321(18) 0.4166(4) 0.54405(12)
N3_8 N 0.55519(18) 0.9886(4) 0.42286(12)
N4_8 N 0.61808(19) 0.5097(4) 0.44289(11)
N5_8 N 0.5833(2) 0.6545(4) 0.46118(12)
N6_8 N 0.62547(19) 0.6545(4) 0.41471(12)
C9_8 C 0.4559(2) 0.0120(5) 0.95969(15)
H7_8 H 0.4715 0.0466 0.9440
C10_8 C 0.4433(2) 0.0605(5) 0.98568(15)
H8_8 H 0.4493 0.1280 0.9876
Zn2_4 Zn 0.45265(3) 0.85641(6) 0.913860(18)
I3_8 I 0.445940(19) 0.67307(3) 0.919870(13)
I4_7 I 0.517480(17) 0.94041(4) 0.883550(12)
C7_8 C 0.4279(3) 0.8675(5) 0.97905(15)
H5_8 H 0.4230 0.7997 0.9770
N2_8 N 0.44679(18) 0.9166(4) 0.95595(12)
N13_4 N 0.38761(19) 0.8980(4) 0.89545(12)
C19_8 C 0.0415(2) 0.9293(5) 0.86491(15)
H13_8 H 0.0120 0.9334 0.8541
C20_8 C 0.0837(2) 0.9439(5) 0.84939(15)
H14_8 H 0.0833 0.9581 0.8284
C21_8 C 0.0819(2) 0.9056(5) 0.90941(15)
H15_8 H 0.0813 0.8932 0.9305
C22_8 C 0.1258(2) 0.9188(5) 0.89536(15)
H16_8 H 0.1549 0.9150 0.9066
C23_8 C 0.1269(2) 0.9376(4) 0.86487(14)
C24_8 C 0.1738(2) 0.9500(4) 0.84938(14)
C25_8 C 0.3462(2) 0.8861(5) 0.90978(15)
H17_8 H 0.3470 0.8654 0.9302
C26_8 C 0.3018(2) 0.9024(5) 0.89657(14)
H18_8 H 0.2728 0.8938 0.9077
C27_8 C 0.3864(2) 0.9292(5) 0.86666(14)
H19_8 H 0.4160 0.9405 0.8564
C28_8 C 0.3442(2) 0.9453(4) 0.85170(15)
H20_8 H 0.3445 0.9656 0.8313
C29_8 C 0.3006(2) 0.9315(4) 0.86668(13)
C30_8 C 0.2544(2) 0.9463(4) 0.85055(13)
H22_8 H 0.2912 0.9953 0.7713
C36_8 C 0.2164(2) 0.9886(4) 0.80782(14)
N7_8 N 0.0397(2) 0.9097(4) 0.89420(12)
N10_8 N 0.21357(18) 0.9335(3) 0.86545(11)
N11_8 N 0.25783(18) 0.9736(3) 0.82164(11)
N12_8 N 0.17267(19) 0.9780(3) 0.82039(11)
I4_8 I 0.017480(17) 0.55959(4) 0.116450(12)
Zn1_8 Zn 0.97543(3) 0.87777(5) 0.915156(19)
I1_8 I 0.994352(18) 0.80463(3) 0.966766(12)
I2_8 I 0.92598(2) 0.78939(4) 0.876086(15)
loop_
_geom_bond_atom_site_label_1
_geom_bond_atom_site_label_2
_geom_bond_site_symmetry_1
_geom_bond_site_symmetry_2
C19 H13 1_555 1_555
C20 C19 1_555 1_555
H14 C20 1_555 1_555
C21 H15 1_555 1_555
C22 C21 1_555 1_555
H16 C22 1_555 1_555
C23 C20 1_555 1_555
C24 C23 1_555 1_555
C25 H17 1_555 1_555
C26 C25 1_555 1_555
H18 C26 1_555 1_555
C27 H19 1_555 1_555
C28 C27 1_555 1_555
H20 C28 1_555 1_555
C29 C26 1_555 1_555
C30 C29 1_555 1_555
C31 H21 1_555 1_555
C32 C31 1_555 1_555
H22 C32 1_555 1_555
C33 H23 1_555 1_555
C34 C33 1_555 1_555
H24 C34 1_555 1_555
C35 C32 1_555 1_555
C36 C35 1_555 1_555
N8 C25 1_555 1_555
N9 C31 1_555 1_555
N10 C24 1_555 1_555
N11 C30 1_555 1_555
N12 C24 1_555 1_555
Zn4 N8 1_555 1_555
Zn5 N9 1_555 1_555
C19 N7 1_555 1_555
C21 N7 1_555 1_555
C22 C23 1_555 1_555
C27 N8 1_555 1_555
C28 C29 1_555 1_555
C30 N10 1_555 1_555
C33 N9 1_555 1_555
C34 C35 1_555 1_555
C36 N11 1_555 1_555
C36 N12 1_555 1_555
Zn3 I5 1_555 1_555
I6 Zn3 1_555 1_555
C3 H3 1_555 1_555
C4 C3 1_555 1_555
H4 C4 1_555 1_555
H6 C8 1_555 1_555
N1 Zn3 1_555 1_555
N14 Zn3 1_555 1_555
C1 N1 1_555 1_555
C3 N1 1_555 1_555
Zn1 I1 1_555 1_555
I2 Zn1 1_555 1_555
H2 C2 1_555 1_555
C5 C2 1_555 1_555
C6 C5 1_555 1_555
C12 C11 1_555 1_555
C13 H9 1_555 1_555
C14 C13 1_555 1_555
H10 C14 1_555 1_555
C15 H11 1_555 1_555
C16 C15 1_555 1_555
H12 C16 1_555 1_555
C17 C14 1_555 1_555
C18 C17 1_555 1_555
C19_2 H13_2 1_555 1_555
C20_2 C19_2 1_555 1_555
H14_2 C20_2 1_555 1_555
C21_2 H15_2 1_555 1_555
C22_2 C21_2 1_555 1_555
H16_2 C22_2 1_555 1_555
C23_2 C20_2 1_555 1_555
C24_2 C23_2 1_555 1_555
C25_2 H17_2 1_555 1_555
C26_2 C25_2 1_555 1_555
H18_2 C26_2 1_555 1_555
C27_2 H19_2 1_555 1_555
C28_2 C27_2 1_555 1_555
H20_2 C28_2 1_555 1_555
C29_2 C26_2 1_555 1_555
C30_2 C29_2 1_555 1_555
C31_2 H21_2 1_555 1_555
C32_2 C31_2 1_555 1_555
H22_2 C32_2 1_555 1_555
C33_2 H23_2 1_555 1_555
C34_2 C33_2 1_555 1_555
H24_2 C34_2 1_555 1_555
C35_2 C32_2 1_555 1_555
C36_2 C35_2 1_555 1_555
N3 Zn1 1_555 1_555
N4 C6 1_555 1_555
N5 C12 1_555 1_555
N6 C6 1_555 1_555
N7_2 Zn1 1_555 1_555
N8_2 C25_2 1_555 1_555
N9_2 C31_2 1_555 1_555
N10_2 C24_2 1_555 1_555
N11_2 C30_2 1_555 1_555
N12_2 C24_2 1_555 1_555
Zn4_2 N8_2 1_555 1_555
Zn5_2 N9_2 1_555 1_555
C12 N4 1_555 1_555
C13 N3 1_555 1_555
C15 N3 1_555 1_555
C16 C17 1_555 1_555
C18 N5 1_555 1_555
C18 N6 1_555 1_555
C19_2 N7_2 1_555 1_555
C21_2 N7_2 1_555 1_555
C22_2 C23_2 1_555 1_555
C27_2 N8_2 1_555 1_555
C28_2 C29_2 1_555 1_555
C30_2 N10_2 1_555 1_555
C33_2 N9_2 1_555 1_555
C34_2 C35_2 1_555 1_555
C36_2 N11_2 1_555 1_555
C36_2 N12_2 1_555 1_555
Zn5 I5_2 1_555 1_555
I6_2 Zn5 1_555 1_555
C1_2 H1_2 1_555 1_555
C2_2 C1_2 1_555 1_555
H2_2 C2_2 1_555 1_555
C3_2 H3_2 1_555 1_555
C4_2 C3_2 1_555 1_555
H4_2 C4_2 1_555 1_555
C5_2 C2_2 1_555 1_555
C6_2 C5_2 1_555 1_555
H6_2 C8_2 1_555 1_555
C11_2 C8_2 1_555 1_555
C12_2 C11_2 1_555 1_555
C13_2 H9_2 1_555 1_555
C14_2 C13_2 1_555 1_555
H10_2 C14_2 1_555 1_555
C15_2 H11_2 1_555 1_555
C16_2 C15_2 1_555 1_555
H12_2 C16_2 1_555 1_555
C17_2 C14_2 1_555 1_555
C18_2 C17_2 1_555 1_555
N1_2 Zn5 1_555 1_555
N4_2 C6_2 1_555 1_555
N5_2 C12_2 1_555 1_555
N6_2 C6_2 1_555 1_555
C1_2 N1_2 1_555 1_555
C3_2 N1_2 1_555 1_555
C4_2 C5_2 1_555 1_555
C12_2 N4_2 1_555 1_555
C13_2 N3_2 1_555 1_555
C15_2 N3_2 1_555 1_555
C16_2 C17_2 1_555 1_555
C18_2 N5_2 1_555 1_555
C18_2 N6_2 1_555 1_555
Zn4_2 I3 1_555 1_555
C7 H5 1_555 1_555
C9 H7 1_555 1_555
C10 C9 1_555 1_555
H8 C10 1_555 1_555
N2 Zn4_2 1_555 1_555
C7 N2 1_555 1_555
C9 N2 1_555 1_555
Zn4 I3_2 1_555 1_555
Zn5_2 I5_3 1_555 1_555
I4 Zn4 1_555 1_555
I6_3 Zn5_2 1_555 1_555
C1_3 H1_3 1_555 1_555
C2_3 C1_3 1_555 1_555
H2_3 C2_3 1_555 1_555
C3_3 H3_3 1_555 1_555
C4_3 C3_3 1_555 1_555
H4_3 C4_3 1_555 1_555
C5_3 C2_3 1_555 1_555
C6_3 C5_3 1_555 1_555
C7_2 H5_2 1_555 1_555
C8_3 C7_2 1_555 1_555
H6_3 C8_3 1_555 1_555
C9_2 H7_2 1_555 1_555
C10_2 C9_2 1_555 1_555
H8_2 C10_2 1_555 1_555
C11_3 C8_3 1_555 1_555
C12_3 C11_3 1_555 1_555
C13_3 H9_3 1_555 1_555
C14_3 C13_3 1_555 1_555
H10_3 C14_3 1_555 1_555
C15_3 H11_3 1_555 1_555
C16_3 C15_3 1_555 1_555
H12_3 C16_3 1_555 1_555
C17_3 C14_3 1_555 1_555
C18_3 C17_3 1_555 1_555
C31_3 H21_3 1_555 1_555
C32_3 C31_3 1_555 1_555
C33_3 H23_3 1_555 1_555
C34_3 C33_3 1_555 1_555
H24_3 C34_3 1_555 1_555
C35_3 C32_3 1_555 1_555
N1_3 Zn5_2 1_555 1_555
N2_2 Zn4 1_555 1_555
N4_3 C6_3 1_555 1_555
N5_3 C12_3 1_555 1_555
N6_3 C6_3 1_555 1_555
N14 C31_3 1_555 1_555
C1_3 N1_3 1_555 1_555
C3_3 N1_3 1_555 1_555
C4_3 C5_3 1_555 1_555
C7_2 N2_2 1_555 1_555
C9_2 N2_2 1_555 1_555
C10_2 C11_3 1_555 1_555
C12_3 N4_3 1_555 1_555
C13_3 N3_3 1_555 1_555
C15_3 N3_3 1_555 1_555
C16_3 C17_3 1_555 1_555
C18_3 N5_3 1_555 1_555
C18_3 N6_3 1_555 1_555
C33_3 N14 1_555 1_555
C34_3 C35_3 1_555 1_555
Zn1_2 I1_2 1_555 1_555
I2_2 Zn1_2 1_555 1_555
H2_4 C2_4 1_555 1_555
C5_4 C2_4 1_555 1_555
C6_4 C5_4 1_555 1_555
C9_3 H7_3 1_555 1_555
C10_3 C9_3 1_555 1_555
H8_3 C10_3 1_555 1_555
C12_4 C11_4 1_555 1_555
C13_4 H9_4 1_555 1_555
C14_4 C13_4 1_555 1_555
H10_4 C14_4 1_555 1_555
C15_4 H11_4 1_555 1_555
C16_4 C15_4 1_555 1_555
H12_4 C16_4 1_555 1_555
C17_4 C14_4 1_555 1_555
C18_4 C17_4 1_555 1_555
N3_4 Zn1_2 1_555 1_555
N4_4 C6_4 1_555 1_555
N5_4 C12_4 1_555 1_555
N6_4 C6_4 1_555 1_555
C10_3 C11_4 1_555 1_555
C12_4 N4_4 1_555 1_555
C13_4 N3_4 1_555 1_555
C15_4 N3_4 1_555 1_555
C16_4 C17_4 1_555 1_555
C18_4 N5_4 1_555 1_555
C18_4 N6_4 1_555 1_555
Zn2 I3_3 1_555 1_555
Zn3_2 I5_4 1_555 1_555
I6_4 Zn3_2 1_555 1_555
C3_4 H3_4 1_555 1_555
C4_4 C3_4 1_555 1_555
H4_4 C4_4 1_555 1_555
C7_3 H5_3 1_555 1_555
C8_4 C7_3 1_555 1_555
H6_4 C8_4 1_555 1_555
N1_4 Zn3_2 1_555 1_555
N2_3 Zn2 1_555 1_555
N13 Zn2 1_555 1_555
N14_2 Zn3_2 1_555 1_555
C1_4 N1_4 1_555 1_555
C3_4 N1_4 1_555 1_555
C7_3 N2_3 1_555 1_555
C31_4 H21_4 1_555 1_555
C32_4 C31_4 1_555 1_555
C33_4 H23_4 1_555 1_555
C34_4 C33_4 1_555 1_555
H24_4 C34_4 1_555 1_555
C35_4 C32_4 1_555 1_555
N14_2 C31_4 1_555 1_555
C33_4 N14_2 1_555 1_555
C34_4 C35_4 1_555 1_555
Zn1_3 I1_3 1_555 1_555
I2_3 Zn1_3 1_555 1_555
C19_3 H13_3 1_555 1_555
C20_3 C19_3 1_555 1_555
H14_3 C20_3 1_555 1_555
C21_3 H15_3 1_555 1_555
C22_3 C21_3 1_555 1_555
H16_3 C22_3 1_555 1_555
C23_3 C20_3 1_555 1_555
C24_3 C23_3 1_555 1_555
C25_3 H17_3 1_555 1_555
C26_3 C25_3 1_555 1_555
H18_3 C26_3 1_555 1_555
C27_3 H19_3 1_555 1_555
C28_3 C27_3 1_555 1_555
H20_3 C28_3 1_555 1_555
C29_3 C26_3 1_555 1_555
C30_3 C29_3 1_555 1_555
N7_3 Zn1_3 1_555 1_555
N13 C25_3 1_555 1_555
N10_3 C24_3 1_555 1_555
N11_3 C30_3 1_555 1_555
N12_3 C24_3 1_555 1_555
C19_3 N7_3 1_555 1_555
C21_3 N7_3 1_555 1_555
C22_3 C23_3 1_555 1_555
C27_3 N13 1_555 1_555
C28_3 C29_3 1_555 1_555
C30_3 N10_3 1_555 1_555
C36_3 N11_3 1_555 1_555
C36_3 N12_3 1_555 1_555
Zn2_2 I3_4 1_555 1_555
I4_3 Zn2_2 1_555 1_555
C7_4 H5_4 1_555 1_555
N2_4 Zn2_2 1_555 1_555
N13_2 Zn2_2 1_555 1_555
C7_4 N2_4 1_555 1_555
C19_4 H13_4 1_555 1_555
C20_4 C19_4 1_555 1_555
H14_4 C20_4 1_555 1_555
C21_4 H15_4 1_555 1_555
C22_4 C21_4 1_555 1_555
H16_4 C22_4 1_555 1_555
C23_4 C20_4 1_555 1_555
C24_4 C23_4 1_555 1_555
C25_4 H17_4 1_555 1_555
C26_4 C25_4 1_555 1_555
H18_4 C26_4 1_555 1_555
C27_4 H19_4 1_555 1_555
C28_4 C27_4 1_555 1_555
H20_4 C28_4 1_555 1_555
C29_4 C26_4 1_555 1_555
C30_4 C29_4 1_555 1_555
N13_2 C25_4 1_555 1_555
N10_4 C24_4 1_555 1_555
N11_4 C30_4 1_555 1_555
N12_4 C24_4 1_555 1_555
C19_4 N7_4 1_555 1_555
C21_4 N7_4 1_555 1_555
C22_4 C23_4 1_555 1_555
C27_4 N13_2 1_555 1_555
C28_4 C29_4 1_555 1_555
C30_4 N10_4 1_555 1_555
C36_4 N11_4 1_555 1_555
C36_4 N12_4 1_555 1_555
C9_4 H7_4 1_555 1_555
C10_4 C9_4 1_555 1_555
H8_4 C10_4 1_555 1_555
Zn1_4 I1_4 1_555 1_555
I2_4 Zn1_4 1_555 1_555
Zn2_3 I3_5 1_555 1_555
Zn3_3 I5_5 1_555 1_555
I6_5 Zn3_3 1_555 1_555
C3_5 H3_5 1_555 1_555
C4_5 C3_5 1_555 1_555
H4_5 C4_5 1_555 1_555
C7_5 H5_5 1_555 1_555
C8_5 C7_5 1_555 1_555
H6_5 C8_5 1_555 1_555
N1_5 Zn3_3 1_555 1_555
N2_5 Zn2_3 1_555 1_555
N13_3 Zn2_3 1_555 1_555
N14_3 Zn3_3 1_555 1_555
C1_5 N1_5 1_555 1_555
C3_5 N1_5 1_555 1_555
C7_5 N2_5 1_555 1_555
C31_5 H21_5 1_555 1_555
C32_5 C31_5 1_555 1_555
C33_5 H23_5 1_555 1_555
C34_5 C33_5 1_555 1_555
H24_5 C34_5 1_555 1_555
C35_5 C32_5 1_555 1_555
N14_3 C31_5 1_555 1_555
C33_5 N14_3 1_555 1_555
C34_5 C35_5 1_555 1_555
Zn1_5 I1_5 1_555 1_555
I2_5 Zn1_5 1_555 1_555
C19_5 H13_5 1_555 1_555
C20_5 C19_5 1_555 1_555
H14_5 C20_5 1_555 1_555
C21_5 H15_5 1_555 1_555
C22_5 C21_5 1_555 1_555
H16_5 C22_5 1_555 1_555
C23_5 C20_5 1_555 1_555
C24_5 C23_5 1_555 1_555
C25_5 H17_5 1_555 1_555
C26_5 C25_5 1_555 1_555
H18_5 C26_5 1_555 1_555
C27_5 H19_5 1_555 1_555
C28_5 C27_5 1_555 1_555
H20_5 C28_5 1_555 1_555
C29_5 C26_5 1_555 1_555
C30_5 C29_5 1_555 1_555
N7_5 Zn1_5 1_555 1_555
N13_3 C25_5 1_555 1_555
N10_5 C24_5 1_555 1_555
N11_5 C30_5 1_555 1_555
N12_5 C24_5 1_555 1_555
C19_5 N7_5 1_555 1_555
C21_5 N7_5 1_555 1_555
C22_5 C23_5 1_555 1_555
C27_5 N13_3 1_555 1_555
C28_5 C29_5 1_555 1_555
C30_5 N10_5 1_555 1_555
C36_5 N11_5 1_555 1_555
C36_5 N12_5 1_555 1_555
Zn1_6 I1_6 1_555 1_555
I2_6 Zn1_6 1_555 1_555
H2_5 C2_5 1_555 1_555
C5_5 C2_5 1_555 1_555
C6_5 C5_5 1_555 1_555
C9_5 H7_5 1_555 1_555
C10_5 C9_5 1_555 1_555
H8_5 C10_5 1_555 1_555
C12_5 C11_5 1_555 1_555
C13_5 H9_5 1_555 1_555
C14_5 C13_5 1_555 1_555
H10_5 C14_5 1_555 1_555
C15_5 H11_5 1_555 1_555
C16_5 C15_5 1_555 1_555
H12_5 C16_5 1_555 1_555
C17_5 C14_5 1_555 1_555
C18_5 C17_5 1_555 1_555
N3_5 Zn1_6 1_555 1_555
N4_5 C6_5 1_555 1_555
N5_5 C12_5 1_555 1_555
N6_5 C6_5 1_555 1_555
C10_5 C11_5 1_555 1_555
C12_5 N4_5 1_555 1_555
C13_5 N3_5 1_555 1_555
C15_5 N3_5 1_555 1_555
C16_5 C17_5 1_555 1_555
C18_5 N5_5 1_555 1_555
C18_5 N6_5 1_555 1_555
C19_6 H13_6 1_555 1_555
C20_6 C19_6 1_555 1_555
H14_6 C20_6 1_555 1_555
C21_6 H15_6 1_555 1_555
C22_6 C21_6 1_555 1_555
H16_6 C22_6 1_555 1_555
C23_6 C20_6 1_555 1_555
C24_6 C23_6 1_555 1_555
C25_6 H17_6 1_555 1_555
C26_6 C25_6 1_555 1_555
H18_6 C26_6 1_555 1_555
C27_6 H19_6 1_555 1_555
C28_6 C27_6 1_555 1_555
H20_6 C28_6 1_555 1_555
C29_6 C26_6 1_555 1_555
C30_6 C29_6 1_555 1_555
C31_6 H21_6 1_555 1_555
C32_6 C31_6 1_555 1_555
H22_6 C32_6 1_555 1_555
C33_6 H23_6 1_555 1_555
C34_6 C33_6 1_555 1_555
H24_6 C34_6 1_555 1_555
C35_6 C32_6 1_555 1_555
C36_6 C35_6 1_555 1_555
N8_3 C25_6 1_555 1_555
N9_3 C31_6 1_555 1_555
N10_6 C24_6 1_555 1_555
N11_6 C30_6 1_555 1_555
N12_6 C24_6 1_555 1_555
Zn4_3 N8_3 1_555 1_555
Zn5_3 N9_3 1_555 1_555
C19_6 N7_6 1_555 1_555
C21_6 N7_6 1_555 1_555
C22_6 C23_6 1_555 1_555
C27_6 N8_3 1_555 1_555
C28_6 C29_6 1_555 1_555
C30_6 N10_6 1_555 1_555
C33_6 N9_3 1_555 1_555
C34_6 C35_6 1_555 1_555
C36_6 N11_6 1_555 1_555
C36_6 N12_6 1_555 1_555
Zn1_7 I1_7 1_555 1_555
I2_7 Zn1_7 1_555 1_555
H2_6 C2_6 1_555 1_555
C5_6 C2_6 1_555 1_555
C6_6 C5_6 1_555 1_555
C12_6 C11_6 1_555 1_555
C13_6 H9_6 1_555 1_555
C14_6 C13_6 1_555 1_555
H10_6 C14_6 1_555 1_555
C15_6 H11_6 1_555 1_555
C16_6 C15_6 1_555 1_555
H12_6 C16_6 1_555 1_555
C17_6 C14_6 1_555 1_555
C18_6 C17_6 1_555 1_555
C19_7 H13_7 1_555 1_555
C20_7 C19_7 1_555 1_555
H14_7 C20_7 1_555 1_555
C21_7 H15_7 1_555 1_555
C22_7 C21_7 1_555 1_555
H16_7 C22_7 1_555 1_555
C23_7 C20_7 1_555 1_555
C24_7 C23_7 1_555 1_555
C25_7 H17_7 1_555 1_555
C26_7 C25_7 1_555 1_555
H18_7 C26_7 1_555 1_555
C27_7 H19_7 1_555 1_555
C28_7 C27_7 1_555 1_555
H20_7 C28_7 1_555 1_555
C29_7 C26_7 1_555 1_555
C30_7 C29_7 1_555 1_555
C31_7 H21_7 1_555 1_555
C32_7 C31_7 1_555 1_555
H22_7 C32_7 1_555 1_555
C33_7 H23_7 1_555 1_555
C34_7 C33_7 1_555 1_555
H24_7 C34_7 1_555 1_555
C35_7 C32_7 1_555 1_555
C36_7 C35_7 1_555 1_555
N3_6 Zn1_7 1_555 1_555
N4_6 C6_6 1_555 1_555
N5_6 C12_6 1_555 1_555
N6_6 C6_6 1_555 1_555
N7_7 Zn1_7 1_555 1_555
N8_4 C25_7 1_555 1_555
N9_4 C31_7 1_555 1_555
N10_7 C24_7 1_555 1_555
N11_7 C30_7 1_555 1_555
N12_7 C24_7 1_555 1_555
Zn4_4 N8_4 1_555 1_555
Zn5_4 N9_4 1_555 1_555
C12_6 N4_6 1_555 1_555
C13_6 N3_6 1_555 1_555
C15_6 N3_6 1_555 1_555
C16_6 C17_6 1_555 1_555
C18_6 N5_6 1_555 1_555
C18_6 N6_6 1_555 1_555
C19_7 N7_7 1_555 1_555
C21_7 N7_7 1_555 1_555
C22_7 C23_7 1_555 1_555
C27_7 N8_4 1_555 1_555
C28_7 C29_7 1_555 1_555
C30_7 N10_7 1_555 1_555
C33_7 N9_4 1_555 1_555
C34_7 C35_7 1_555 1_555
C36_7 N11_7 1_555 1_555
C36_7 N12_7 1_555 1_555
Zn3_4 I5_6 1_555 1_555
I6_6 Zn3_4 1_555 1_555
C3_6 H3_6 1_555 1_555
C4_6 C3_6 1_555 1_555
H4_6 C4_6 1_555 1_555
H6_6 C8_6 1_555 1_555
N1_6 Zn3_4 1_555 1_555
N14_4 Zn3_4 1_555 1_555
C1_6 N1_6 1_555 1_555
C3_6 N1_6 1_555 1_555
Zn4_4 I3_6 1_555 1_555
C7_6 H5_6 1_555 1_555
C9_6 H7_6 1_555 1_555
C10_6 C9_6 1_555 1_555
H8_6 C10_6 1_555 1_555
N2_6 Zn4_4 1_555 1_555
C7_6 N2_6 1_555 1_555
C9_6 N2_6 1_555 1_555
Zn5_3 I5_7 1_555 1_555
I6_7 Zn5_3 1_555 1_555
C1_7 H1_7 1_555 1_555
C2_7 C1_7 1_555 1_555
H2_7 C2_7 1_555 1_555
C3_7 H3_7 1_555 1_555
C4_7 C3_7 1_555 1_555
H4_7 C4_7 1_555 1_555
C5_7 C2_7 1_555 1_555
C6_7 C5_7 1_555 1_555
H6_7 C8_7 1_555 1_555
C11_7 C8_7 1_555 1_555
C12_7 C11_7 1_555 1_555
C13_7 H9_7 1_555 1_555
C14_7 C13_7 1_555 1_555
H10_7 C14_7 1_555 1_555
C15_7 H11_7 1_555 1_555
C16_7 C15_7 1_555 1_555
H12_7 C16_7 1_555 1_555
C17_7 C14_7 1_555 1_555
C18_7 C17_7 1_555 1_555
N1_7 Zn5_3 1_555 1_555
N4_7 C6_7 1_555 1_555
N5_7 C12_7 1_555 1_555
N6_7 C6_7 1_555 1_555
C1_7 N1_7 1_555 1_555
C3_7 N1_7 1_555 1_555
C4_7 C5_7 1_555 1_555
C12_7 N4_7 1_555 1_555
C13_7 N3_7 1_555 1_555
C15_7 N3_7 1_555 1_555
C16_7 C17_7 1_555 1_555
C18_7 N5_7 1_555 1_555
C18_7 N6_7 1_555 1_555
Zn4_3 I3_7 1_555 1_555
Zn5_4 I5_8 1_555 1_555
I4_6 Zn4_3 1_555 1_555
I6_8 Zn5_4 1_555 1_555
C1_8 H1_8 1_555 1_555
C2_8 C1_8 1_555 1_555
H2_8 C2_8 1_555 1_555
C3_8 H3_8 1_555 1_555
C4_8 C3_8 1_555 1_555
H4_8 C4_8 1_555 1_555
C5_8 C2_8 1_555 1_555
C6_8 C5_8 1_555 1_555
C7_7 H5_7 1_555 1_555
C8_8 C7_7 1_555 1_555
H6_8 C8_8 1_555 1_555
C9_7 H7_7 1_555 1_555
C10_7 C9_7 1_555 1_555
H8_7 C10_7 1_555 1_555
C11_8 C8_8 1_555 1_555
C12_8 C11_8 1_555 1_555
C13_8 H9_8 1_555 1_555
C14_8 C13_8 1_555 1_555
H10_8 C14_8 1_555 1_555
C15_8 H11_8 1_555 1_555
C16_8 C15_8 1_555 1_555
H12_8 C16_8 1_555 1_555
C17_8 C14_8 1_555 1_555
C18_8 C17_8 1_555 1_555
C31_8 H21_8 1_555 1_555
C32_8 C31_8 1_555 1_555
C33_8 H23_8 1_555 1_555
C34_8 C33_8 1_555 1_555
H24_8 C34_8 1_555 1_555
C35_8 C32_8 1_555 1_555
N1_8 Zn5_4 1_555 1_555
N2_7 Zn4_3 1_555 1_555
N4_8 C6_8 1_555 1_555
N5_8 C12_8 1_555 1_555
N6_8 C6_8 1_555 1_555
N14_4 C31_8 1_555 1_555
C1_8 N1_8 1_555 1_555
C3_8 N1_8 1_555 1_555
C4_8 C5_8 1_555 1_555
C7_7 N2_7 1_555 1_555
C9_7 N2_7 1_555 1_555
C10_7 C11_8 1_555 1_555
C12_8 N4_8 1_555 1_555
C13_8 N3_8 1_555 1_555
C15_8 N3_8 1_555 1_555
C16_8 C17_8 1_555 1_555
C18_8 N5_8 1_555 1_555
C18_8 N6_8 1_555 1_555
C33_8 N14_4 1_555 1_555
C34_8 C35_8 1_555 1_555
C9_8 H7_8 1_555 1_555
C10_8 C9_8 1_555 1_555
H8_8 C10_8 1_555 1_555
Zn2_4 I3_8 1_555 1_555
I4_7 Zn2_4 1_555 1_555
C7_8 H5_8 1_555 1_555
N2_8 Zn2_4 1_555 1_555
N13_4 Zn2_4 1_555 1_555
C7_8 N2_8 1_555 1_555
C19_8 H13_8 1_555 1_555
C20_8 C19_8 1_555 1_555
H14_8 C20_8 1_555 1_555
C21_8 H15_8 1_555 1_555
C22_8 C21_8 1_555 1_555
H16_8 C22_8 1_555 1_555
C23_8 C20_8 1_555 1_555
C24_8 C23_8 1_555 1_555
C25_8 H17_8 1_555 1_555
C26_8 C25_8 1_555 1_555
H18_8 C26_8 1_555 1_555
C27_8 H19_8 1_555 1_555
C28_8 C27_8 1_555 1_555
H20_8 C28_8 1_555 1_555
C29_8 C26_8 1_555 1_555
C30_8 C29_8 1_555 1_555
N13_4 C25_8 1_555 1_555
N10_8 C24_8 1_555 1_555
N11_8 C30_8 1_555 1_555
N12_8 C24_8 1_555 1_555
C19_8 N7_8 1_555 1_555
C21_8 N7_8 1_555 1_555
C22_8 C23_8 1_555 1_555
C27_8 N13_4 1_555 1_555
C28_8 C29_8 1_555 1_555
C30_8 N10_8 1_555 1_555
C36_8 N11_8 1_555 1_555
C36_8 N12_8 1_555 1_555
Zn1_8 I1_8 1_555 1_555
I2_8 Zn1_8 1_555 1_555

#END
