
###############################################################################
#
# This file contains modified crystal structure data generated from the
# MOF subset of the Cambridge Structural Database (CSD) v543 
# hosted by the Cambridge Crystallographic Data Centre (CCDC).
#
# This work is licensed under the Creative Commons
# Attribution-NonCommercial-ShareAlike 4.0 International License.
# To view a copy of this license, visit
# http://creativecommons.org/licenses/by-nc-sa/4.0/
# or send a letter to
# Creative Commons, PO Box 1866, Mountain View, CA 94042, USA.
#
# CIF created using the CSD Python API on 29 September 2022
# The structure has been converted into the P1 space group
# The structure has a 3D framework
# The original CSD entry SOHNAF is in the orthorhombic crystal system
# The framework has been calculated to contain at least 10.0% void space
# The void calculation uses a probe of radius 1.32A, grid spacing 0.4
#
###############################################################################

data_SOHNAF
_chemical_formula_moiety         '(C288 H192 I48 N96 Zn24)n'
_symmetry_cell_setting           triclinic
_symmetry_space_group_name_H-M   'P 1'
_symmetry_Int_Tables_number      1
_space_group_name_Hall           'P 1'
loop_
_symmetry_equiv_pos_site_id
_symmetry_equiv_pos_as_xyz
1 x,y,z
_cell_length_a                   28.857(3)
_cell_length_b                   13.7063(16)
_cell_length_c                   45.188(5)
_cell_angle_alpha                90
_cell_angle_beta                 90
_cell_angle_gamma                90
_cell_volume                     17872.9
loop_
_atom_site_label
_atom_site_type_symbol
_atom_site_fract_x
_atom_site_fract_y
_atom_site_fract_z
Zn1 Zn 0.02280(3) 0.14722(6) 0.91413(2)
I1 I 0.00838(2) 0.21800(5) 0.965703(16)
I2 I 0.06891(2) 0.23483(5) 0.87459(2)
H19 H 0.0887 0.0107 0.8835
N9 N 0.05333(19) 0.0129(4) 0.92067(13)
C19 C 0.0933(3) 0.3755(5) 0.00952(15)
H13 H 0.1035 0.3098 0.0110
C21 C 0.0545(3) 0.5051(5) 0.02897(15)
H15 H 0.0363 0.5321 0.0445
C22 C 0.0636(3) 0.5615(5) 0.00457(15)
H16 H 0.0522 0.6264 0.0034
N8 N 0.0701(2) 0.4137(4) 0.03193(12)
Zn4 Zn 0.06358(3) 0.34145(6) 0.071259(17)
C20 C 0.1034(3) 0.4261(5) 0.98429(15)
H14 H 0.1197 0.3954 0.9686
C23 C 0.0896(2) 0.5224(5) 0.98173(13)
C24 C 0.1016(2) 0.5805(5) 0.95515(14)
C25 C 0.0424(3) 0.9603(6) 0.9439(2)
H17 H 0.0226 0.9881 0.9584
C26 C 0.0584(3) 0.8667(6) 0.94837(19)
H18 H 0.0500 0.8313 0.9656
C27 C 0.0810(3) 0.9736(6) 0.90054(18)
C28 C 0.0989(3) 0.8805(5) 0.90341(17)
H20 H 0.1194 0.8553 0.8889
C29 C 0.0870(2) 0.8254(5) 0.92729(14)
C30 C 0.1016(2) 0.7222(4) 0.93017(14)
C31 C 0.1989(3) 0.5334(5) 0.84040(16)
H21 H 0.2141 0.5677 0.8249
C32 C 0.1775(3) 0.5872(5) 0.86264(17)
H22 H 0.1776 0.6565 0.8622
C33 C 0.1771(3) 0.3901(5) 0.86105(16)
H23 H 0.1757 0.3208 0.8603
C34 C 0.1557(3) 0.4370(5) 0.88458(16)
H24 H 0.1410 0.4008 0.8999
C35 C 0.1563(2) 0.5374(4) 0.88515(14)
C36 C 0.1340(2) 0.5891(5) 0.90989(14)
N7 N 0.1991(2) 0.4359(4) 0.83970(12)
N10 N 0.1230(2) 0.5339(4) 0.93342(12)
N11 N 0.0904(2) 0.6747(4) 0.95489(12)
N12 N 0.12467(19) 0.6839(4) 0.90722(12)
Zn5 Zn 0.23777(3) 0.35594(5) 0.810550(16)
Zn3 Zn 0.73777(3) 0.14406(5) 0.189450(16)
I5 I 0.69874(2) 0.30977(3) 0.194420(12)
I6 I 0.82164(2) 0.13760(5) 0.172840(14)
C7 C 0.6898(3) 0.0754(7) 0.24285(16)
H5 H 0.6643 0.1060 0.2333
C8 C 0.6836(3) 0.0372(6) 0.27091(16)
H6 H 0.6541 0.0399 0.2802
C9 C 0.7658(3) 0.0288(4) 0.24214(14)
H7 H 0.7946 0.0245 0.2320
C19_2 C 0.4067(3) 0.6245(5) 0.50952(15)
H13_2 H 0.3965 0.6902 0.5110
C20_2 C 0.3966(3) 0.5739(5) 0.48429(15)
H14_2 H 0.3803 0.6046 0.4686
C21_2 C 0.4455(3) 0.4949(5) 0.52897(15)
H15_2 H 0.4637 0.4679 0.5445
C22_2 C 0.4364(3) 0.4385(5) 0.50457(15)
H16_2 H 0.4478 0.3736 0.5034
C23_2 C 0.4104(2) 0.4776(5) 0.48173(13)
C24_2 C 0.3984(2) 0.4195(5) 0.45515(14)
C25_2 C 0.4576(3) 0.0397(6) 0.4439(2)
H17_2 H 0.4774 0.0119 0.4584
C26_2 C 0.4416(3) 0.1333(6) 0.44837(19)
H18_2 H 0.4500 0.1687 0.4656
C27_2 C 0.4190(3) 0.0264(6) 0.40054(18)
C28_2 C 0.4011(3) 0.1195(5) 0.40341(17)
H20_2 H 0.3806 0.1447 0.3889
C29_2 C 0.4130(2) 0.1746(5) 0.42729(14)
C30_2 C 0.3984(2) 0.2778(4) 0.43017(14)
C31_2 C 0.3011(3) 0.4666(5) 0.34040(16)
H21_2 H 0.2859 0.4323 0.3249
C32_2 C 0.3225(3) 0.4128(5) 0.36264(17)
H22_2 H 0.3224 0.3435 0.3622
C33_2 C 0.3229(3) 0.6099(5) 0.36105(16)
H23_2 H 0.3243 0.6792 0.3603
C34_2 C 0.3443(3) 0.5630(5) 0.38458(16)
H24_2 H 0.3590 0.5992 0.3999
C35_2 C 0.3437(2) 0.4626(4) 0.38515(14)
C36_2 C 0.3660(2) 0.4109(5) 0.40989(14)
N2 N 0.7301(2) 0.0709(4) 0.22873(11)
N7_2 N 0.3009(2) 0.5641(4) 0.33970(12)
N8_2 N 0.4299(2) 0.5863(4) 0.53193(12)
N10_2 N 0.3770(2) 0.4661(4) 0.43342(12)
N11_2 N 0.4096(2) 0.3253(4) 0.45489(12)
N12_2 N 0.37533(19) 0.3161(4) 0.40722(12)
Zn4_2 Zn 0.43642(3) 0.65855(6) 0.571259(17)
Zn5_2 Zn 0.26223(3) 0.64406(5) 0.310550(16)
N13 N 0.6991(2) 0.0641(4) 0.16030(12)
I3 I 0.42566(3) 0.84173(4) 0.560300(14)
I4 I 0.503150(18) 0.58954(5) 0.600369(12)
I5_2 I 0.19874(2) 0.19023(3) 0.805580(12)
I6_2 I 0.32164(2) 0.36240(5) 0.827160(14)
C1 C 0.0794(2) 0.6137(5) 0.58778(16)
H1 H 0.0768 0.6238 0.5670
C2 C 0.1230(3) 0.6002(5) 0.60004(15)
H2 H 0.1498 0.6006 0.5878
C3 C 0.0448(3) 0.5967(6) 0.63303(18)
H3 H 0.0175 0.5947 0.6447
C4 C 0.0870(3) 0.5824(6) 0.64677(17)
H4 H 0.0884 0.5702 0.6674
C5 C 0.1271(2) 0.5861(4) 0.63005(14)
C6 C 0.1733(2) 0.5735(4) 0.64394(14)
C7_2 C 0.1898(3) 0.4246(7) 0.75715(16)
H5_2 H 0.1643 0.3940 0.7667
C8_2 C 0.1836(3) 0.4628(6) 0.72909(16)
H6_2 H 0.1541 0.4601 0.7198
C9_2 C 0.2658(3) 0.4712(4) 0.75786(14)
H7_2 H 0.2946 0.4755 0.7680
C10 C 0.2624(2) 0.5090(4) 0.72957(13)
H8 H 0.2886 0.5378 0.7203
C11 C 0.2204(2) 0.5044(4) 0.71502(13)
C12 C 0.2165(2) 0.5383(4) 0.68387(13)
C13 C 0.3767(2) 0.5962(4) 0.62145(13)
H9 H 0.4058 0.5888 0.6310
C14 C 0.3370(2) 0.5811(4) 0.63762(14)
H10 H 0.3388 0.5648 0.6580
C15 C 0.3349(3) 0.6286(5) 0.57953(14)
H11 H 0.3342 0.6457 0.5592
C16 C 0.2935(3) 0.6132(5) 0.59374(14)
H12 H 0.2650 0.6182 0.5834
C17 C 0.2943(2) 0.5901(4) 0.62385(13)
C18 C 0.2508(2) 0.5761(4) 0.64074(13)
N1 N 0.0407(2) 0.6131(4) 0.60428(13)
N2_2 N 0.2301(2) 0.4291(4) 0.77127(11)
N3 N 0.3760(2) 0.6209(4) 0.59267(11)
N4 N 0.1741(2) 0.5485(4) 0.67263(11)
N5 N 0.25573(18) 0.5526(3) 0.66936(10)
N6 N 0.21070(19) 0.5865(3) 0.62705(11)
C20_3 C 0.6034(3) 0.0739(5) 0.01571(15)
H14_3 H 0.6197 0.1046 0.0314
C33_3 C 0.6771(3) 0.1099(5) 0.13895(16)
H23_3 H 0.6757 0.1792 0.1397
C34_3 C 0.6557(3) 0.0630(5) 0.11542(16)
H24_3 H 0.6410 0.0992 0.1001
Zn1_2 Zn 0.52280(3) 0.35278(6) 0.08587(2)
I1_2 I 0.50838(2) 0.28200(5) 0.034297(16)
I2_2 I 0.56891(2) 0.26517(5) 0.12541(2)
I3_2 I 0.07434(3) 0.15827(4) 0.060300(14)
I5_3 I 0.30126(2) 0.80977(3) 0.305580(12)
I6_3 I 0.17836(2) 0.63760(5) 0.327160(14)
C1_2 C 0.4206(2) 0.3863(5) 0.08778(16)
H1_2 H 0.4232 0.3762 0.0670
C2_2 C 0.3770(3) 0.3998(5) 0.10004(15)
H2_2 H 0.3502 0.3994 0.0878
C3_2 C 0.4552(3) 0.4033(6) 0.13303(18)
H3_2 H 0.4825 0.4053 0.1447
C4_2 C 0.4130(3) 0.4176(6) 0.14677(17)
H4_2 H 0.4116 0.4298 0.1674
C5_2 C 0.3729(2) 0.4139(4) 0.13005(14)
C6_2 C 0.3267(2) 0.4265(4) 0.14394(14)
C7_3 C 0.3102(3) 0.5754(7) 0.25715(16)
H5_3 H 0.3357 0.6060 0.2667
C8_3 C 0.3164(3) 0.5372(6) 0.22909(16)
H6_3 H 0.3459 0.5399 0.2198
C9_3 C 0.2342(3) 0.5288(4) 0.25786(14)
H7_3 H 0.2054 0.5245 0.2680
C10_2 C 0.2376(2) 0.4910(4) 0.22957(13)
H8_2 H 0.2114 0.4622 0.2203
C11_2 C 0.2796(2) 0.4956(4) 0.21502(13)
C12_2 C 0.2835(2) 0.4617(4) 0.18387(13)
C13_2 C 0.1233(2) 0.4038(4) 0.12145(13)
H9_2 H 0.0942 0.4112 0.1310
C14_2 C 0.1630(2) 0.4189(4) 0.13762(14)
H10_2 H 0.1612 0.4352 0.1580
C15_2 C 0.1651(3) 0.3714(5) 0.07953(14)
H11_2 H 0.1658 0.3543 0.0592
C16_2 C 0.2065(3) 0.3868(5) 0.09374(14)
H12_2 H 0.2350 0.3818 0.0834
C17_2 C 0.2057(2) 0.4099(4) 0.12385(13)
C18_2 C 0.2492(2) 0.4239(4) 0.14074(13)
C23_3 C 0.5896(2) 0.9776(5) 0.01827(13)
C24_3 C 0.6016(2) 0.9195(5) 0.04485(14)
C25_3 C 0.5424(3) 0.5397(6) 0.0561(2)
H17_3 H 0.5226 0.5119 0.0416
C26_3 C 0.5584(3) 0.6333(6) 0.05163(19)
H18_3 H 0.5500 0.6687 0.0344
C27_3 C 0.5810(3) 0.5264(6) 0.09946(18)
H19_2 H 0.5887 0.4893 0.1165
C28_3 C 0.5989(3) 0.6195(5) 0.09659(17)
H20_3 H 0.6194 0.6447 0.1111
C29_3 C 0.5870(2) 0.6746(5) 0.07271(14)
C30_3 C 0.6016(2) 0.7778(4) 0.06983(14)
C31_3 C 0.6989(3) 0.9666(5) 0.15960(16)
H21_3 H 0.7141 0.9323 0.1751
C32_3 C 0.6775(3) 0.9128(5) 0.13736(17)
H22_3 H 0.6776 0.8435 0.1378
C35_3 C 0.6563(2) 0.9626(4) 0.11485(14)
C36_3 C 0.6340(2) 0.9109(5) 0.09011(14)
N1_2 N 0.4593(2) 0.3869(4) 0.10428(13)
N2_3 N 0.2699(2) 0.5709(4) 0.27127(11)
N3_2 N 0.1240(2) 0.3791(4) 0.09267(11)
N4_2 N 0.3259(2) 0.4515(4) 0.17263(11)
N5_2 N 0.24427(18) 0.4474(3) 0.16936(10)
N6_2 N 0.28930(19) 0.4135(3) 0.12705(11)
N9_2 N 0.55333(19) 0.4871(4) 0.07933(13)
N10_3 N 0.6230(2) 0.9661(4) 0.06658(12)
N11_3 N 0.5904(2) 0.8253(4) 0.04511(12)
N12_3 N 0.62467(19) 0.8161(4) 0.09278(12)
Zn2 Zn 0.56358(3) 0.15855(6) 0.928741(17)
I3_3 I 0.57434(3) 0.34173(4) 0.939700(14)
I4_2 I 0.496850(18) 0.08954(5) 0.899631(12)
C1_3 C 0.9206(2) 0.1137(5) 0.91222(16)
H1_3 H 0.9232 0.1238 0.9330
C2_3 C 0.8770(3) 0.1002(5) 0.89996(15)
H2_3 H 0.8502 0.1006 0.9122
C3_3 C 0.9552(3) 0.0967(6) 0.86697(18)
H3_3 H 0.9825 0.0947 0.8553
C4_3 C 0.9130(3) 0.0824(6) 0.85323(17)
H4_3 H 0.9116 0.0702 0.8326
C5_3 C 0.8729(2) 0.0861(4) 0.86995(14)
C6_3 C 0.8267(2) 0.0735(4) 0.85606(14)
C10_3 C 0.7376(2) 0.0090(4) 0.77043(13)
H8_3 H 0.7114 0.0378 0.7797
C11_3 C 0.7796(2) 0.0044(4) 0.78498(13)
C12_3 C 0.7835(2) 0.0383(4) 0.81613(13)
C13_3 C 0.6233(2) 0.0962(4) 0.87855(13)
H9_3 H 0.5942 0.0888 0.8690
C14_3 C 0.6630(2) 0.0811(4) 0.86238(14)
H10_3 H 0.6612 0.0648 0.8420
C15_3 C 0.6651(3) 0.1286(5) 0.92047(14)
H11_3 H 0.6658 0.1457 0.9408
C16_3 C 0.7065(3) 0.1132(5) 0.90626(14)
H12_3 H 0.7350 0.1182 0.9166
C17_3 C 0.7057(2) 0.0901(4) 0.87615(13)
C18_3 C 0.7492(2) 0.0761(4) 0.85926(13)
N1_3 N 0.9593(2) 0.1131(4) 0.89572(13)
N3_3 N 0.6240(2) 0.1209(4) 0.90733(11)
N4_3 N 0.8259(2) 0.0485(4) 0.82737(11)
N5_3 N 0.74427(18) 0.0526(3) 0.83064(10)
N6_3 N 0.78930(19) 0.0865(3) 0.87295(11)
N14 N 0.5701(2) 0.0863(4) 0.96807(12)
C19_3 C 0.5933(3) 0.1245(5) 0.99048(15)
H13_3 H 0.6035 0.1902 0.9890
Zn3_2 Zn 0.76223(3) 0.85594(5) 0.689450(16)
I5_4 I 0.80126(2) 0.69023(3) 0.694420(12)
I6_4 I 0.67836(2) 0.86240(5) 0.672840(14)
C7_4 C 0.8102(3) 0.9246(7) 0.74285(16)
H5_4 H 0.8357 0.8940 0.7333
C8_4 C 0.8164(3) 0.9628(6) 0.77091(16)
H6_4 H 0.8459 0.9601 0.7802
C9_4 C 0.7342(3) 0.9712(4) 0.74214(14)
H7_4 H 0.7054 0.9755 0.7320
N2_4 N 0.7699(2) 0.9291(4) 0.72873(11)
N13_2 N 0.8009(2) 0.9359(4) 0.66030(12)
Zn1_3 Zn 0.47720(3) 0.85278(6) 0.41413(2)
Zn2_2 Zn 0.93642(3) 0.84145(6) 0.428741(17)
I1_3 I 0.49162(2) 0.78200(5) 0.465703(16)
I2_3 I 0.43109(2) 0.76517(5) 0.37459(2)
I3_4 I 0.92566(3) 0.65827(4) 0.439700(14)
C1_4 C 0.5794(2) 0.8863(5) 0.41222(16)
H1_4 H 0.5768 0.8762 0.4330
C2_4 C 0.6230(3) 0.8998(5) 0.39996(15)
H2_4 H 0.6498 0.8994 0.4122
C3_4 C 0.5448(3) 0.9033(6) 0.36697(18)
H3_4 H 0.5175 0.9053 0.3553
C4_4 C 0.5870(3) 0.9176(6) 0.35323(17)
H4_4 H 0.5884 0.9298 0.3326
C5_4 C 0.6271(2) 0.9139(4) 0.36995(14)
C6_4 C 0.6733(2) 0.9265(4) 0.35606(14)
C10_4 C 0.7624(2) 0.9910(4) 0.27043(13)
H8_4 H 0.7886 0.9622 0.2797
C11_4 C 0.7204(2) 0.9956(4) 0.28498(13)
C12_4 C 0.7165(2) 0.9617(4) 0.31613(13)
C13_4 C 0.8767(2) 0.9038(4) 0.37855(13)
H9_4 H 0.9058 0.9112 0.3690
C14_4 C 0.8370(2) 0.9189(4) 0.36238(14)
H10_4 H 0.8388 0.9352 0.3420
C15_4 C 0.8349(3) 0.8714(5) 0.42047(14)
H11_4 H 0.8342 0.8543 0.4408
C16_4 C 0.7935(3) 0.8868(5) 0.40626(14)
H12_4 H 0.7650 0.8818 0.4166
C17_4 C 0.7943(2) 0.9099(4) 0.37615(13)
C18_4 C 0.7508(2) 0.9239(4) 0.35926(13)
H19_3 H 0.4113 0.9893 0.3835
N1_4 N 0.5407(2) 0.8869(4) 0.39572(13)
N3_4 N 0.8760(2) 0.8791(4) 0.40733(11)
N4_4 N 0.6741(2) 0.9515(4) 0.32737(11)
N5_4 N 0.75573(18) 0.9474(3) 0.33064(10)
N6_4 N 0.71070(19) 0.9135(3) 0.37295(11)
N9_3 N 0.44667(19) 0.9871(4) 0.42067(13)
N14_2 N 0.9299(2) 0.9137(4) 0.46807(12)
C19_4 C 0.9067(3) 0.8755(5) 0.49048(15)
H13_4 H 0.8965 0.8098 0.4890
C20_4 C 0.8966(3) 0.9261(5) 0.51571(15)
H14_4 H 0.8803 0.8954 0.5314
C33_4 C 0.8229(3) 0.8901(5) 0.63895(16)
H23_4 H 0.8243 0.8208 0.6397
C34_4 C 0.8443(3) 0.9370(5) 0.61542(16)
H24_4 H 0.8590 0.9008 0.6001
I4_3 I 0.003150(18) 0.91046(5) 0.399631(12)
Zn1_4 Zn 0.97720(3) 0.64722(6) 0.58587(2)
I1_4 I 0.99162(2) 0.71800(5) 0.534297(16)
I2_4 I 0.93109(2) 0.73483(5) 0.62541(2)
C21_3 C 0.9455(3) 0.0051(5) 0.47103(15)
H15_3 H 0.9637 0.0321 0.4555
C22_3 C 0.9364(3) 0.0615(5) 0.49543(15)
H16_3 H 0.9478 0.1264 0.4966
C23_4 C 0.9104(2) 0.0224(5) 0.51827(13)
C24_4 C 0.8984(2) 0.0805(5) 0.54485(14)
C25_4 C 0.9576(3) 0.4603(6) 0.5561(2)
H17_4 H 0.9774 0.4881 0.5416
C26_4 C 0.9416(3) 0.3667(6) 0.55163(19)
H18_4 H 0.9500 0.3313 0.5344
C27_4 C 0.9190(3) 0.4736(6) 0.59946(18)
H19_4 H 0.9113 0.5107 0.6165
C28_4 C 0.9011(3) 0.3805(5) 0.59659(17)
H20_4 H 0.8806 0.3553 0.6111
C29_4 C 0.9130(2) 0.3254(5) 0.57271(14)
C30_4 C 0.8984(2) 0.2222(4) 0.56983(14)
C31_4 C 0.8011(3) 0.0334(5) 0.65960(16)
H21_4 H 0.7859 0.0677 0.6751
C32_4 C 0.8225(3) 0.0872(5) 0.63736(17)
H22_4 H 0.8224 0.1565 0.6378
C35_4 C 0.8437(2) 0.0374(4) 0.61485(14)
C36_4 C 0.8660(2) 0.0891(5) 0.59011(14)
N9_4 N 0.94667(19) 0.5129(4) 0.57933(13)
N10_4 N 0.8770(2) 0.0339(4) 0.56658(12)
N11_4 N 0.9096(2) 0.1747(4) 0.54511(12)
N12_4 N 0.87533(19) 0.1839(4) 0.59278(12)
C21_4 C 0.5545(3) 0.9949(5) 0.97103(15)
H15_4 H 0.5363 0.9679 0.9555
C22_4 C 0.5636(3) 0.9385(5) 0.99543(15)
H16_4 H 0.5522 0.8736 0.9966
I4_4 I 0.996850(18) 0.41046(5) 0.100369(12)
Zn3_3 Zn 0.23777(3) 0.14406(5) 0.310550(16)
I5_5 I 0.19874(2) 0.30977(3) 0.305580(12)
I6_5 I 0.32164(2) 0.13760(5) 0.327160(14)
C7_5 C 0.1898(3) 0.0754(7) 0.25715(16)
H5_5 H 0.1643 0.1060 0.2667
C8_5 C 0.1836(3) 0.0372(6) 0.22909(16)
H6_5 H 0.1541 0.0399 0.2198
C9_5 C 0.2658(3) 0.0288(4) 0.25786(14)
H7_5 H 0.2946 0.0245 0.2680
N2_5 N 0.2301(2) 0.0709(4) 0.27127(11)
N13_3 N 0.1991(2) 0.0641(4) 0.33970(12)
Zn1_5 Zn 0.52280(3) 0.14722(6) 0.58587(2)
Zn2_3 Zn 0.06358(3) 0.15855(6) 0.571259(17)
I1_5 I 0.50838(2) 0.21800(5) 0.534297(16)
I2_5 I 0.56891(2) 0.23483(5) 0.62541(2)
I3_5 I 0.07434(3) 0.34173(4) 0.560300(14)
C1_5 C 0.4206(2) 0.1137(5) 0.58778(16)
H1_5 H 0.4232 0.1238 0.5670
C2_5 C 0.3770(3) 0.1002(5) 0.60004(15)
H2_5 H 0.3502 0.1006 0.5878
C3_5 C 0.4552(3) 0.0967(6) 0.63303(18)
H3_5 H 0.4825 0.0947 0.6447
C4_5 C 0.4130(3) 0.0824(6) 0.64677(17)
H4_5 H 0.4116 0.0702 0.6674
C5_5 C 0.3729(2) 0.0861(4) 0.63005(14)
C6_5 C 0.3267(2) 0.0735(4) 0.64394(14)
C10_5 C 0.2376(2) 0.0090(4) 0.72957(13)
H8_5 H 0.2114 0.0378 0.7203
C11_5 C 0.2796(2) 0.0044(4) 0.71502(13)
C12_5 C 0.2835(2) 0.0383(4) 0.68387(13)
C13_5 C 0.1233(2) 0.0962(4) 0.62145(13)
H9_5 H 0.0942 0.0888 0.6310
C14_5 C 0.1630(2) 0.0811(4) 0.63762(14)
H10_5 H 0.1612 0.0648 0.6580
C15_5 C 0.1651(3) 0.1286(5) 0.57953(14)
H11_5 H 0.1658 0.1457 0.5592
C16_5 C 0.2065(3) 0.1132(5) 0.59374(14)
H12_5 H 0.2350 0.1182 0.5834
C17_5 C 0.2057(2) 0.0901(4) 0.62385(13)
C18_5 C 0.2492(2) 0.0761(4) 0.64074(13)
H19_5 H 0.5887 0.0107 0.6165
N1_5 N 0.4593(2) 0.1131(4) 0.60428(13)
N3_5 N 0.1240(2) 0.1209(4) 0.59267(11)
N4_5 N 0.3259(2) 0.0485(4) 0.67263(11)
N5_5 N 0.24427(18) 0.0526(3) 0.66936(10)
N6_5 N 0.28930(19) 0.0865(3) 0.62705(11)
N9_5 N 0.55333(19) 0.0129(4) 0.57933(13)
N14_3 N 0.0701(2) 0.0863(4) 0.53193(12)
C19_5 C 0.0933(3) 0.1245(5) 0.50952(15)
H13_5 H 0.1035 0.1902 0.5110
C20_5 C 0.1034(3) 0.0739(5) 0.48429(15)
H14_5 H 0.1197 0.1046 0.4686
C33_5 C 0.1771(3) 0.1099(5) 0.36105(16)
H23_5 H 0.1757 0.1792 0.3603
C34_5 C 0.1557(3) 0.0630(5) 0.38458(16)
H24_5 H 0.1410 0.0992 0.3999
Zn2_4 Zn 0.43642(3) 0.84145(6) 0.071259(17)
I3_6 I 0.42566(3) 0.65827(4) 0.060300(14)
I4_5 I 0.503150(18) 0.91046(5) 0.100369(12)
C1_6 C 0.0794(2) 0.8863(5) 0.08778(16)
H1_6 H 0.0768 0.8762 0.0670
C2_6 C 0.1230(3) 0.8998(5) 0.10004(15)
H2_6 H 0.1498 0.8994 0.0878
C3_6 C 0.0448(3) 0.9033(6) 0.13303(18)
H3_6 H 0.0175 0.9053 0.1447
C4_6 C 0.0870(3) 0.9176(6) 0.14677(17)
H4_6 H 0.0884 0.9298 0.1674
C5_6 C 0.1271(2) 0.9139(4) 0.13005(14)
C6_6 C 0.1733(2) 0.9265(4) 0.14394(14)
C10_6 C 0.2624(2) 0.9910(4) 0.22957(13)
H8_6 H 0.2886 0.9622 0.2203
C11_6 C 0.2204(2) 0.9956(4) 0.21502(13)
C12_6 C 0.2165(2) 0.9617(4) 0.18387(13)
C13_6 C 0.3767(2) 0.9038(4) 0.12145(13)
H9_6 H 0.4058 0.9112 0.1310
C14_6 C 0.3370(2) 0.9189(4) 0.13762(14)
H10_6 H 0.3388 0.9352 0.1580
C15_6 C 0.3349(3) 0.8714(5) 0.07953(14)
H11_6 H 0.3342 0.8543 0.0592
C16_6 C 0.2935(3) 0.8868(5) 0.09374(14)
H12_6 H 0.2650 0.8818 0.0834
C17_6 C 0.2943(2) 0.9099(4) 0.12385(13)
C18_6 C 0.2508(2) 0.9239(4) 0.14074(13)
N1_6 N 0.0407(2) 0.8869(4) 0.10428(13)
N3_6 N 0.3760(2) 0.8791(4) 0.09267(11)
N4_6 N 0.1741(2) 0.9515(4) 0.17263(11)
N5_6 N 0.25573(18) 0.9474(3) 0.16936(10)
N6_6 N 0.21070(19) 0.9135(3) 0.12705(11)
N14_4 N 0.4299(2) 0.9137(4) 0.03193(12)
C19_6 C 0.4067(3) 0.8755(5) 0.00952(15)
H13_6 H 0.3965 0.8098 0.0110
C20_6 C 0.8966(3) 0.5739(5) 0.01571(15)
H14_6 H 0.8803 0.6046 0.0314
C23_5 C 0.9104(2) 0.4776(5) 0.01827(13)
C24_5 C 0.8984(2) 0.4195(5) 0.04485(14)
C25_5 C 0.9576(3) 0.0397(6) 0.0561(2)
H17_5 H 0.9774 0.0119 0.0416
C26_5 C 0.9416(3) 0.1333(6) 0.05163(19)
H18_5 H 0.9500 0.1687 0.0344
C27_5 C 0.9190(3) 0.0264(6) 0.09946(18)
C28_5 C 0.9011(3) 0.1195(5) 0.09659(17)
H20_5 H 0.8806 0.1447 0.1111
C29_5 C 0.9130(2) 0.1746(5) 0.07271(14)
C30_5 C 0.8984(2) 0.2778(4) 0.06983(14)
C31_5 C 0.8011(3) 0.4666(5) 0.15960(16)
H21_5 H 0.7859 0.4323 0.1751
C32_5 C 0.8225(3) 0.4128(5) 0.13736(17)
H22_5 H 0.8224 0.3435 0.1378
C33_6 C 0.8229(3) 0.6099(5) 0.13895(16)
H23_6 H 0.8243 0.6792 0.1397
C34_6 C 0.8443(3) 0.5630(5) 0.11542(16)
H24_6 H 0.8590 0.5992 0.1001
C35_5 C 0.8437(2) 0.4626(4) 0.11485(14)
C36_5 C 0.8660(2) 0.4109(5) 0.09011(14)
N7_3 N 0.8009(2) 0.5641(4) 0.16030(12)
N10_5 N 0.8770(2) 0.4661(4) 0.06658(12)
N11_5 N 0.9096(2) 0.3253(4) 0.04511(12)
N12_5 N 0.87533(19) 0.3161(4) 0.09278(12)
Zn5_3 Zn 0.76223(3) 0.64406(5) 0.189450(16)
C19_7 C 0.9067(3) 0.6245(5) 0.99048(15)
H13_7 H 0.8965 0.6902 0.9890
C21_5 C 0.9455(3) 0.4949(5) 0.97103(15)
H15_5 H 0.9637 0.4679 0.9555
C22_5 C 0.9364(3) 0.4385(5) 0.99543(15)
H16_5 H 0.9478 0.3736 0.9966
N8_3 N 0.9299(2) 0.5863(4) 0.96807(12)
Zn4_3 Zn 0.93642(3) 0.65855(6) 0.928741(17)
Zn3_4 Zn 0.26223(3) 0.85594(5) 0.810550(16)
I5_6 I 0.30126(2) 0.69023(3) 0.805580(12)
I6_6 I 0.17836(2) 0.86240(5) 0.827160(14)
C7_6 C 0.3102(3) 0.9246(7) 0.75715(16)
H5_6 H 0.3357 0.8940 0.7667
C8_6 C 0.3164(3) 0.9628(6) 0.72909(16)
H6_6 H 0.3459 0.9601 0.7198
C9_6 C 0.2342(3) 0.9712(4) 0.75786(14)
H7_6 H 0.2054 0.9755 0.7680
C19_8 C 0.5933(3) 0.3755(5) 0.49048(15)
H13_8 H 0.6035 0.3098 0.4890
C20_7 C 0.6034(3) 0.4261(5) 0.51571(15)
H14_7 H 0.6197 0.3954 0.5314
C21_6 C 0.5545(3) 0.5051(5) 0.47103(15)
H15_6 H 0.5363 0.5321 0.4555
C22_6 C 0.5636(3) 0.5615(5) 0.49543(15)
H16_6 H 0.5522 0.6264 0.4966
C23_6 C 0.5896(2) 0.5224(5) 0.51827(13)
C24_6 C 0.6016(2) 0.5805(5) 0.54485(14)
C25_6 C 0.5424(3) 0.9603(6) 0.5561(2)
H17_6 H 0.5226 0.9881 0.5416
C26_6 C 0.5584(3) 0.8667(6) 0.55163(19)
H18_6 H 0.5500 0.8313 0.5344
C27_6 C 0.5810(3) 0.9736(6) 0.59946(18)
C28_6 C 0.5989(3) 0.8805(5) 0.59659(17)
H20_6 H 0.6194 0.8553 0.6111
C29_6 C 0.5870(2) 0.8254(5) 0.57271(14)
C30_6 C 0.6016(2) 0.7222(4) 0.56983(14)
C31_6 C 0.6989(3) 0.5334(5) 0.65960(16)
H21_6 H 0.7141 0.5677 0.6751
C32_6 C 0.6775(3) 0.5872(5) 0.63736(17)
H22_6 H 0.6776 0.6565 0.6378
C33_7 C 0.6771(3) 0.3901(5) 0.63895(16)
H23_7 H 0.6757 0.3208 0.6397
C34_7 C 0.6557(3) 0.4370(5) 0.61542(16)
H24_7 H 0.6410 0.4008 0.6001
C35_6 C 0.6563(2) 0.5374(4) 0.61485(14)
C36_6 C 0.6340(2) 0.5891(5) 0.59011(14)
N2_6 N 0.2699(2) 0.9291(4) 0.77127(11)
N7_4 N 0.6991(2) 0.4359(4) 0.66030(12)
N8_4 N 0.5701(2) 0.4137(4) 0.46807(12)
N10_6 N 0.6230(2) 0.5339(4) 0.56658(12)
N11_6 N 0.5904(2) 0.6747(4) 0.54511(12)
N12_6 N 0.62467(19) 0.6839(4) 0.59278(12)
Zn4_4 Zn 0.56358(3) 0.34145(6) 0.428741(17)
Zn5_4 Zn 0.73777(3) 0.35594(5) 0.689450(16)
N13_4 N 0.3009(2) 0.9359(4) 0.83970(12)
I3_7 I 0.57434(3) 0.15827(4) 0.439700(14)
I4_6 I 0.496850(18) 0.41046(5) 0.399631(12)
I5_7 I 0.80126(2) 0.80977(3) 0.194420(12)
I6_7 I 0.67836(2) 0.63760(5) 0.172840(14)
C1_7 C 0.9206(2) 0.3863(5) 0.41222(16)
H1_7 H 0.9232 0.3762 0.4330
C2_7 C 0.8770(3) 0.3998(5) 0.39996(15)
H2_7 H 0.8502 0.3994 0.4122
C3_7 C 0.9552(3) 0.4033(6) 0.36697(18)
H3_7 H 0.9825 0.4053 0.3553
C4_7 C 0.9130(3) 0.4176(6) 0.35323(17)
H4_7 H 0.9116 0.4298 0.3326
C5_7 C 0.8729(2) 0.4139(4) 0.36995(14)
C6_7 C 0.8267(2) 0.4265(4) 0.35606(14)
C7_7 C 0.8102(3) 0.5754(7) 0.24285(16)
H5_7 H 0.8357 0.6060 0.2333
C8_7 C 0.8164(3) 0.5372(6) 0.27091(16)
H6_7 H 0.8459 0.5399 0.2802
C9_7 C 0.7342(3) 0.5288(4) 0.24214(14)
H7_7 H 0.7054 0.5245 0.2320
C10_7 C 0.7376(2) 0.4910(4) 0.27043(13)
H8_7 H 0.7114 0.4622 0.2797
C11_7 C 0.7796(2) 0.4956(4) 0.28498(13)
C12_7 C 0.7835(2) 0.4617(4) 0.31613(13)
C13_7 C 0.6233(2) 0.4038(4) 0.37855(13)
H9_7 H 0.5942 0.4112 0.3690
C14_7 C 0.6630(2) 0.4189(4) 0.36238(14)
H10_7 H 0.6612 0.4352 0.3420
C15_7 C 0.6651(3) 0.3714(5) 0.42047(14)
H11_7 H 0.6658 0.3543 0.4408
C16_7 C 0.7065(3) 0.3868(5) 0.40626(14)
H12_7 H 0.7350 0.3818 0.4166
C17_7 C 0.7057(2) 0.4099(4) 0.37615(13)
C18_7 C 0.7492(2) 0.4239(4) 0.35926(13)
N1_7 N 0.9593(2) 0.3869(4) 0.39572(13)
N2_7 N 0.7699(2) 0.5709(4) 0.22873(11)
N3_7 N 0.6240(2) 0.3791(4) 0.40733(11)
N4_7 N 0.8259(2) 0.4515(4) 0.32737(11)
N5_7 N 0.74427(18) 0.4474(3) 0.33064(10)
N6_7 N 0.78930(19) 0.4135(3) 0.37295(11)
Zn1_6 Zn 0.47720(3) 0.64722(6) 0.91413(2)
I1_6 I 0.49162(2) 0.71800(5) 0.965703(16)
I2_6 I 0.43109(2) 0.73483(5) 0.87459(2)
I3_8 I 0.92566(3) 0.84173(4) 0.939700(14)
I5_8 I 0.69874(2) 0.19023(3) 0.694420(12)
I6_8 I 0.82164(2) 0.36240(5) 0.672840(14)
C1_8 C 0.5794(2) 0.6137(5) 0.91222(16)
H1_8 H 0.5768 0.6238 0.9330
C2_8 C 0.6230(3) 0.6002(5) 0.89996(15)
H2_8 H 0.6498 0.6006 0.9122
C3_8 C 0.5448(3) 0.5967(6) 0.86697(18)
H3_8 H 0.5175 0.5947 0.8553
C4_8 C 0.5870(3) 0.5824(6) 0.85323(17)
H4_8 H 0.5884 0.5702 0.8326
C5_8 C 0.6271(2) 0.5861(4) 0.86995(14)
C6_8 C 0.6733(2) 0.5735(4) 0.85606(14)
C7_8 C 0.6898(3) 0.4246(7) 0.74285(16)
H5_8 H 0.6643 0.3940 0.7333
C8_8 C 0.6836(3) 0.4628(6) 0.77091(16)
H6_8 H 0.6541 0.4601 0.7802
C9_8 C 0.7658(3) 0.4712(4) 0.74214(14)
H7_8 H 0.7946 0.4755 0.7320
C10_8 C 0.7624(2) 0.5090(4) 0.77043(13)
H8_8 H 0.7886 0.5378 0.7797
C11_8 C 0.7204(2) 0.5044(4) 0.78498(13)
C12_8 C 0.7165(2) 0.5383(4) 0.81613(13)
C13_8 C 0.8767(2) 0.5962(4) 0.87855(13)
H9_8 H 0.9058 0.5888 0.8690
C14_8 C 0.8370(2) 0.5811(4) 0.86238(14)
H10_8 H 0.8388 0.5648 0.8420
C15_8 C 0.8349(3) 0.6286(5) 0.92047(14)
H11_8 H 0.8342 0.6457 0.9408
C16_8 C 0.7935(3) 0.6132(5) 0.90626(14)
H12_8 H 0.7650 0.6182 0.9166
C17_8 C 0.7943(2) 0.5901(4) 0.87615(13)
C18_8 C 0.7508(2) 0.5761(4) 0.85926(13)
C23_7 C 0.4104(2) 0.0224(5) 0.98173(13)
C24_7 C 0.3984(2) 0.0805(5) 0.95515(14)
C25_7 C 0.4576(3) 0.4603(6) 0.9439(2)
H17_7 H 0.4774 0.4881 0.9584
C26_7 C 0.4416(3) 0.3667(6) 0.94837(19)
H18_7 H 0.4500 0.3313 0.9656
C27_7 C 0.4190(3) 0.4736(6) 0.90054(18)
H19_6 H 0.4113 0.5107 0.8835
C28_7 C 0.4011(3) 0.3805(5) 0.90341(17)
H20_7 H 0.3806 0.3553 0.8889
C29_7 C 0.4130(2) 0.3254(5) 0.92729(14)
C30_7 C 0.3984(2) 0.2222(4) 0.93017(14)
C31_7 C 0.3011(3) 0.0334(5) 0.84040(16)
H21_7 H 0.2859 0.0677 0.8249
C32_7 C 0.3225(3) 0.0872(5) 0.86264(17)
H22_7 H 0.3224 0.1565 0.8622
C35_7 C 0.3437(2) 0.0374(4) 0.88515(14)
C36_7 C 0.3660(2) 0.0891(5) 0.90989(14)
N1_8 N 0.5407(2) 0.6131(4) 0.89572(13)
N2_8 N 0.7301(2) 0.4291(4) 0.72873(11)
N3_8 N 0.8760(2) 0.6209(4) 0.90733(11)
N4_8 N 0.6741(2) 0.5485(4) 0.82737(11)
N5_8 N 0.75573(18) 0.5526(3) 0.83064(10)
N6_8 N 0.71070(19) 0.5865(3) 0.87295(11)
N9_6 N 0.44667(19) 0.5129(4) 0.92067(13)
N10_7 N 0.3770(2) 0.0339(4) 0.93342(12)
N11_7 N 0.4096(2) 0.1747(4) 0.95489(12)
N12_7 N 0.37533(19) 0.1839(4) 0.90722(12)
C20_8 C 0.3966(3) 0.9261(5) 0.98429(15)
H14_8 H 0.3803 0.8954 0.9686
C33_8 C 0.3229(3) 0.8901(5) 0.86105(16)
H23_8 H 0.3243 0.8208 0.8603
C34_8 C 0.3443(3) 0.9370(5) 0.88458(16)
H24_8 H 0.3590 0.9008 0.8999
Zn1_7 Zn 0.97720(3) 0.85278(6) 0.08587(2)
I1_7 I 0.99162(2) 0.78200(5) 0.034297(16)
I2_7 I 0.93109(2) 0.76517(5) 0.12541(2)
H19_7 H 0.9113 0.9893 0.1165
N9_7 N 0.94667(19) 0.9871(4) 0.07933(13)
I4_7 I 0.996850(18) 0.08954(5) 0.600369(12)
Zn1_8 Zn 0.02280(3) 0.35278(6) 0.41413(2)
I1_8 I 0.00838(2) 0.28200(5) 0.465703(16)
I2_8 I 0.06891(2) 0.26517(5) 0.37459(2)
C21_7 C 0.0545(3) 0.9949(5) 0.52897(15)
H15_7 H 0.0363 0.9679 0.5445
C22_7 C 0.0636(3) 0.9385(5) 0.50457(15)
H16_7 H 0.0522 0.8736 0.5034
C23_8 C 0.0896(2) 0.9776(5) 0.48173(13)
C24_8 C 0.1016(2) 0.9195(5) 0.45515(14)
C25_8 C 0.0424(3) 0.5397(6) 0.4439(2)
H17_8 H 0.0226 0.5119 0.4584
C26_8 C 0.0584(3) 0.6333(6) 0.44837(19)
H18_8 H 0.0500 0.6687 0.4656
C27_8 C 0.0810(3) 0.5264(6) 0.40054(18)
H19_8 H 0.0887 0.4893 0.3835
C28_8 C 0.0989(3) 0.6195(5) 0.40341(17)
H20_8 H 0.1194 0.6447 0.3889
C29_8 C 0.0870(2) 0.6746(5) 0.42729(14)
C30_8 C 0.1016(2) 0.7778(4) 0.43017(14)
C31_8 C 0.1989(3) 0.9666(5) 0.34040(16)
H21_8 H 0.2141 0.9323 0.3249
C32_8 C 0.1775(3) 0.9128(5) 0.36264(17)
H22_8 H 0.1776 0.8435 0.3622
C35_8 C 0.1563(2) 0.9626(4) 0.38515(14)
C36_8 C 0.1340(2) 0.9109(5) 0.40989(14)
N9_8 N 0.05333(19) 0.4871(4) 0.42067(13)
N10_8 N 0.1230(2) 0.9661(4) 0.43342(12)
N11_8 N 0.0904(2) 0.8253(4) 0.45489(12)
N12_8 N 0.12467(19) 0.8161(4) 0.40722(12)
I4_8 I 0.003150(18) 0.58954(5) 0.899631(12)
C21_8 C 0.4455(3) 0.0051(5) 0.02897(15)
H15_8 H 0.4637 0.0321 0.0445
C22_8 C 0.4364(3) 0.0615(5) 0.00457(15)
H16_8 H 0.4478 0.1264 0.0034
loop_
_geom_bond_atom_site_label_1
_geom_bond_atom_site_label_2
_geom_bond_site_symmetry_1
_geom_bond_site_symmetry_2
Zn1 I1 1_555 1_555
I2 Zn1 1_555 1_555
N9 Zn1 1_555 1_555
C19 H13 1_555 1_555
C21 H15 1_555 1_555
C22 C21 1_555 1_555
H16 C22 1_555 1_555
N8 C19 1_555 1_555
Zn4 N8 1_555 1_555
C21 N8 1_555 1_555
H14 C20 1_555 1_555
C23 C20 1_555 1_555
C24 C23 1_555 1_555
C25 H17 1_555 1_555
C26 C25 1_555 1_555
H18 C26 1_555 1_555
C28 C27 1_555 1_555
H20 C28 1_555 1_555
C29 C26 1_555 1_555
C30 C29 1_555 1_555
C31 H21 1_555 1_555
C32 C31 1_555 1_555
H22 C32 1_555 1_555
C33 H23 1_555 1_555
C34 C33 1_555 1_555
H24 C34 1_555 1_555
C35 C32 1_555 1_555
C36 C35 1_555 1_555
N7 C31 1_555 1_555
N10 C24 1_555 1_555
N11 C24 1_555 1_555
N12 C30 1_555 1_555
Zn5 N7 1_555 1_555
C28 C29 1_555 1_555
C30 N11 1_555 1_555
C33 N7 1_555 1_555
C34 C35 1_555 1_555
C36 N10 1_555 1_555
C36 N12 1_555 1_555
Zn3 I5 1_555 1_555
I6 Zn3 1_555 1_555
C7 H5 1_555 1_555
C8 C7 1_555 1_555
H6 C8 1_555 1_555
C9 H7 1_555 1_555
C19_2 H13_2 1_555 1_555
C20_2 C19_2 1_555 1_555
H14_2 C20_2 1_555 1_555
C21_2 H15_2 1_555 1_555
C22_2 C21_2 1_555 1_555
H16_2 C22_2 1_555 1_555
C23_2 C20_2 1_555 1_555
C24_2 C23_2 1_555 1_555
C25_2 H17_2 1_555 1_555
C26_2 C25_2 1_555 1_555
H18_2 C26_2 1_555 1_555
C28_2 C27_2 1_555 1_555
H20_2 C28_2 1_555 1_555
C29_2 C26_2 1_555 1_555
C30_2 C29_2 1_555 1_555
C31_2 H21_2 1_555 1_555
C32_2 C31_2 1_555 1_555
H22_2 C32_2 1_555 1_555
C33_2 H23_2 1_555 1_555
C34_2 C33_2 1_555 1_555
H24_2 C34_2 1_555 1_555
C35_2 C32_2 1_555 1_555
C36_2 C35_2 1_555 1_555
N2 Zn3 1_555 1_555
N7_2 C31_2 1_555 1_555
N8_2 C19_2 1_555 1_555
N10_2 C24_2 1_555 1_555
N11_2 C24_2 1_555 1_555
N12_2 C30_2 1_555 1_555
Zn4_2 N8_2 1_555 1_555
Zn5_2 N7_2 1_555 1_555
N13 Zn3 1_555 1_555
C7 N2 1_555 1_555
C9 N2 1_555 1_555
C21_2 N8_2 1_555 1_555
C22_2 C23_2 1_555 1_555
C28_2 C29_2 1_555 1_555
C30_2 N11_2 1_555 1_555
C33_2 N7_2 1_555 1_555
C34_2 C35_2 1_555 1_555
C36_2 N10_2 1_555 1_555
C36_2 N12_2 1_555 1_555
Zn4_2 I3 1_555 1_555
Zn5 I5_2 1_555 1_555
I4 Zn4_2 1_555 1_555
I6_2 Zn5 1_555 1_555
C1 H1 1_555 1_555
C2 C1 1_555 1_555
H2 C2 1_555 1_555
C3 H3 1_555 1_555
C4 C3 1_555 1_555
H4 C4 1_555 1_555
C5 C2 1_555 1_555
C6 C5 1_555 1_555
C7_2 H5_2 1_555 1_555
C8_2 C7_2 1_555 1_555
H6_2 C8_2 1_555 1_555
C9_2 H7_2 1_555 1_555
C10 C9_2 1_555 1_555
H8 C10 1_555 1_555
C11 C8_2 1_555 1_555
C12 C11 1_555 1_555
C13 H9 1_555 1_555
C14 C13 1_555 1_555
H10 C14 1_555 1_555
C15 H11 1_555 1_555
C16 C15 1_555 1_555
H12 C16 1_555 1_555
C17 C14 1_555 1_555
C18 C17 1_555 1_555
N2_2 Zn5 1_555 1_555
N3 Zn4_2 1_555 1_555
N4 C6 1_555 1_555
N5 C12 1_555 1_555
N6 C6 1_555 1_555
C1 N1 1_555 1_555
C3 N1 1_555 1_555
C4 C5 1_555 1_555
C7_2 N2_2 1_555 1_555
C9_2 N2_2 1_555 1_555
C10 C11 1_555 1_555
C12 N4 1_555 1_555
C13 N3 1_555 1_555
C15 N3 1_555 1_555
C16 C17 1_555 1_555
C18 N5 1_555 1_555
C18 N6 1_555 1_555
H14_3 C20_3 1_555 1_555
C33_3 H23_3 1_555 1_555
C34_3 C33_3 1_555 1_555
H24_3 C34_3 1_555 1_555
C33_3 N13 1_555 1_555
Zn1_2 I1_2 1_555 1_555
Zn4 I3_2 1_555 1_555
Zn5_2 I5_3 1_555 1_555
I2_2 Zn1_2 1_555 1_555
I6_3 Zn5_2 1_555 1_555
C1_2 H1_2 1_555 1_555
C2_2 C1_2 1_555 1_555
H2_2 C2_2 1_555 1_555
C3_2 H3_2 1_555 1_555
C4_2 C3_2 1_555 1_555
H4_2 C4_2 1_555 1_555
C5_2 C2_2 1_555 1_555
C6_2 C5_2 1_555 1_555
C7_3 H5_3 1_555 1_555
C8_3 C7_3 1_555 1_555
H6_3 C8_3 1_555 1_555
C9_3 H7_3 1_555 1_555
C10_2 C9_3 1_555 1_555
H8_2 C10_2 1_555 1_555
C11_2 C8_3 1_555 1_555
C12_2 C11_2 1_555 1_555
C13_2 H9_2 1_555 1_555
C14_2 C13_2 1_555 1_555
H10_2 C14_2 1_555 1_555
C15_2 H11_2 1_555 1_555
C16_2 C15_2 1_555 1_555
H12_2 C16_2 1_555 1_555
C17_2 C14_2 1_555 1_555
C18_2 C17_2 1_555 1_555
C24_3 C23_3 1_555 1_555
C25_3 H17_3 1_555 1_555
C26_3 C25_3 1_555 1_555
H18_3 C26_3 1_555 1_555
C27_3 H19_2 1_555 1_555
C28_3 C27_3 1_555 1_555
H20_3 C28_3 1_555 1_555
C29_3 C26_3 1_555 1_555
C30_3 C29_3 1_555 1_555
C31_3 H21_3 1_555 1_555
C32_3 C31_3 1_555 1_555
H22_3 C32_3 1_555 1_555
C35_3 C32_3 1_555 1_555
C36_3 C35_3 1_555 1_555
N1_2 Zn1_2 1_555 1_555
N2_3 Zn5_2 1_555 1_555
N3_2 Zn4 1_555 1_555
N4_2 C6_2 1_555 1_555
N5_2 C12_2 1_555 1_555
N6_2 C6_2 1_555 1_555
N9_2 Zn1_2 1_555 1_555
N10_3 C24_3 1_555 1_555
N11_3 C24_3 1_555 1_555
N12_3 C30_3 1_555 1_555
C1_2 N1_2 1_555 1_555
C3_2 N1_2 1_555 1_555
C4_2 C5_2 1_555 1_555
C7_3 N2_3 1_555 1_555
C9_3 N2_3 1_555 1_555
C10_2 C11_2 1_555 1_555
C12_2 N4_2 1_555 1_555
C13_2 N3_2 1_555 1_555
C15_2 N3_2 1_555 1_555
C16_2 C17_2 1_555 1_555
C18_2 N5_2 1_555 1_555
C18_2 N6_2 1_555 1_555
C25_3 N9_2 1_555 1_555
C27_3 N9_2 1_555 1_555
C28_3 C29_3 1_555 1_555
C30_3 N11_3 1_555 1_555
C36_3 N10_3 1_555 1_555
C36_3 N12_3 1_555 1_555
Zn2 I3_3 1_555 1_555
I4_2 Zn2 1_555 1_555
C1_3 H1_3 1_555 1_555
C2_3 C1_3 1_555 1_555
H2_3 C2_3 1_555 1_555
C3_3 H3_3 1_555 1_555
C4_3 C3_3 1_555 1_555
H4_3 C4_3 1_555 1_555
C5_3 C2_3 1_555 1_555
C6_3 C5_3 1_555 1_555
H8_3 C10_3 1_555 1_555
C12_3 C11_3 1_555 1_555
C13_3 H9_3 1_555 1_555
C14_3 C13_3 1_555 1_555
H10_3 C14_3 1_555 1_555
C15_3 H11_3 1_555 1_555
C16_3 C15_3 1_555 1_555
H12_3 C16_3 1_555 1_555
C17_3 C14_3 1_555 1_555
C18_3 C17_3 1_555 1_555
N3_3 Zn2 1_555 1_555
N4_3 C6_3 1_555 1_555
N5_3 C12_3 1_555 1_555
N6_3 C6_3 1_555 1_555
N14 Zn2 1_555 1_555
C1_3 N1_3 1_555 1_555
C3_3 N1_3 1_555 1_555
C4_3 C5_3 1_555 1_555
C10_3 C11_3 1_555 1_555
C12_3 N4_3 1_555 1_555
C13_3 N3_3 1_555 1_555
C15_3 N3_3 1_555 1_555
C16_3 C17_3 1_555 1_555
C18_3 N5_3 1_555 1_555
C18_3 N6_3 1_555 1_555
C19_3 H13_3 1_555 1_555
N14 C19_3 1_555 1_555
Zn3_2 I5_4 1_555 1_555
I6_4 Zn3_2 1_555 1_555
C7_4 H5_4 1_555 1_555
C8_4 C7_4 1_555 1_555
H6_4 C8_4 1_555 1_555
C9_4 H7_4 1_555 1_555
N2_4 Zn3_2 1_555 1_555
N13_2 Zn3_2 1_555 1_555
C7_4 N2_4 1_555 1_555
C9_4 N2_4 1_555 1_555
Zn1_3 I1_3 1_555 1_555
Zn2_2 I3_4 1_555 1_555
I2_3 Zn1_3 1_555 1_555
C1_4 H1_4 1_555 1_555
C2_4 C1_4 1_555 1_555
H2_4 C2_4 1_555 1_555
C3_4 H3_4 1_555 1_555
C4_4 C3_4 1_555 1_555
H4_4 C4_4 1_555 1_555
C5_4 C2_4 1_555 1_555
C6_4 C5_4 1_555 1_555
H8_4 C10_4 1_555 1_555
C12_4 C11_4 1_555 1_555
C13_4 H9_4 1_555 1_555
C14_4 C13_4 1_555 1_555
H10_4 C14_4 1_555 1_555
C15_4 H11_4 1_555 1_555
C16_4 C15_4 1_555 1_555
H12_4 C16_4 1_555 1_555
C17_4 C14_4 1_555 1_555
C18_4 C17_4 1_555 1_555
N1_4 Zn1_3 1_555 1_555
N3_4 Zn2_2 1_555 1_555
N4_4 C6_4 1_555 1_555
N5_4 C12_4 1_555 1_555
N6_4 C6_4 1_555 1_555
N9_3 Zn1_3 1_555 1_555
N14_2 Zn2_2 1_555 1_555
C1_4 N1_4 1_555 1_555
C3_4 N1_4 1_555 1_555
C4_4 C5_4 1_555 1_555
C10_4 C11_4 1_555 1_555
C12_4 N4_4 1_555 1_555
C13_4 N3_4 1_555 1_555
C15_4 N3_4 1_555 1_555
C16_4 C17_4 1_555 1_555
C18_4 N5_4 1_555 1_555
C18_4 N6_4 1_555 1_555
C19_4 H13_4 1_555 1_555
C20_4 C19_4 1_555 1_555
H14_4 C20_4 1_555 1_555
C33_4 H23_4 1_555 1_555
C34_4 C33_4 1_555 1_555
H24_4 C34_4 1_555 1_555
N14_2 C19_4 1_555 1_555
C33_4 N13_2 1_555 1_555
Zn1_4 I1_4 1_555 1_555
I2_4 Zn1_4 1_555 1_555
C21_3 H15_3 1_555 1_555
C22_3 C21_3 1_555 1_555
H16_3 C22_3 1_555 1_555
C24_4 C23_4 1_555 1_555
C25_4 H17_4 1_555 1_555
C26_4 C25_4 1_555 1_555
H18_4 C26_4 1_555 1_555
C27_4 H19_4 1_555 1_555
C28_4 C27_4 1_555 1_555
H20_4 C28_4 1_555 1_555
C29_4 C26_4 1_555 1_555
C30_4 C29_4 1_555 1_555
C31_4 H21_4 1_555 1_555
C32_4 C31_4 1_555 1_555
H22_4 C32_4 1_555 1_555
C35_4 C32_4 1_555 1_555
C36_4 C35_4 1_555 1_555
N9_4 Zn1_4 1_555 1_555
N10_4 C24_4 1_555 1_555
N11_4 C24_4 1_555 1_555
N12_4 C30_4 1_555 1_555
C22_3 C23_4 1_555 1_555
C25_4 N9_4 1_555 1_555
C27_4 N9_4 1_555 1_555
C28_4 C29_4 1_555 1_555
C30_4 N11_4 1_555 1_555
C36_4 N10_4 1_555 1_555
C36_4 N12_4 1_555 1_555
C21_4 H15_4 1_555 1_555
C22_4 C21_4 1_555 1_555
H16_4 C22_4 1_555 1_555
Zn3_3 I5_5 1_555 1_555
I6_5 Zn3_3 1_555 1_555
C7_5 H5_5 1_555 1_555
C8_5 C7_5 1_555 1_555
H6_5 C8_5 1_555 1_555
C9_5 H7_5 1_555 1_555
N2_5 Zn3_3 1_555 1_555
N13_3 Zn3_3 1_555 1_555
C7_5 N2_5 1_555 1_555
C9_5 N2_5 1_555 1_555
Zn1_5 I1_5 1_555 1_555
Zn2_3 I3_5 1_555 1_555
I2_5 Zn1_5 1_555 1_555
C1_5 H1_5 1_555 1_555
C2_5 C1_5 1_555 1_555
H2_5 C2_5 1_555 1_555
C3_5 H3_5 1_555 1_555
C4_5 C3_5 1_555 1_555
H4_5 C4_5 1_555 1_555
C5_5 C2_5 1_555 1_555
C6_5 C5_5 1_555 1_555
H8_5 C10_5 1_555 1_555
C12_5 C11_5 1_555 1_555
C13_5 H9_5 1_555 1_555
C14_5 C13_5 1_555 1_555
H10_5 C14_5 1_555 1_555
C15_5 H11_5 1_555 1_555
C16_5 C15_5 1_555 1_555
H12_5 C16_5 1_555 1_555
C17_5 C14_5 1_555 1_555
C18_5 C17_5 1_555 1_555
N1_5 Zn1_5 1_555 1_555
N3_5 Zn2_3 1_555 1_555
N4_5 C6_5 1_555 1_555
N5_5 C12_5 1_555 1_555
N6_5 C6_5 1_555 1_555
N9_5 Zn1_5 1_555 1_555
N14_3 Zn2_3 1_555 1_555
C1_5 N1_5 1_555 1_555
C3_5 N1_5 1_555 1_555
C4_5 C5_5 1_555 1_555
C10_5 C11_5 1_555 1_555
C12_5 N4_5 1_555 1_555
C13_5 N3_5 1_555 1_555
C15_5 N3_5 1_555 1_555
C16_5 C17_5 1_555 1_555
C18_5 N5_5 1_555 1_555
C18_5 N6_5 1_555 1_555
C19_5 H13_5 1_555 1_555
C20_5 C19_5 1_555 1_555
H14_5 C20_5 1_555 1_555
C33_5 H23_5 1_555 1_555
C34_5 C33_5 1_555 1_555
H24_5 C34_5 1_555 1_555
N14_3 C19_5 1_555 1_555
C33_5 N13_3 1_555 1_555
Zn2_4 I3_6 1_555 1_555
I4_5 Zn2_4 1_555 1_555
C1_6 H1_6 1_555 1_555
C2_6 C1_6 1_555 1_555
H2_6 C2_6 1_555 1_555
C3_6 H3_6 1_555 1_555
C4_6 C3_6 1_555 1_555
H4_6 C4_6 1_555 1_555
C5_6 C2_6 1_555 1_555
C6_6 C5_6 1_555 1_555
H8_6 C10_6 1_555 1_555
C12_6 C11_6 1_555 1_555
C13_6 H9_6 1_555 1_555
C14_6 C13_6 1_555 1_555
H10_6 C14_6 1_555 1_555
C15_6 H11_6 1_555 1_555
C16_6 C15_6 1_555 1_555
H12_6 C16_6 1_555 1_555
C17_6 C14_6 1_555 1_555
C18_6 C17_6 1_555 1_555
N3_6 Zn2_4 1_555 1_555
N4_6 C6_6 1_555 1_555
N5_6 C12_6 1_555 1_555
N6_6 C6_6 1_555 1_555
N14_4 Zn2_4 1_555 1_555
C1_6 N1_6 1_555 1_555
C3_6 N1_6 1_555 1_555
C4_6 C5_6 1_555 1_555
C10_6 C11_6 1_555 1_555
C12_6 N4_6 1_555 1_555
C13_6 N3_6 1_555 1_555
C15_6 N3_6 1_555 1_555
C16_6 C17_6 1_555 1_555
C18_6 N5_6 1_555 1_555
C18_6 N6_6 1_555 1_555
C19_6 H13_6 1_555 1_555
N14_4 C19_6 1_555 1_555
H14_6 C20_6 1_555 1_555
C23_5 C20_6 1_555 1_555
C24_5 C23_5 1_555 1_555
C25_5 H17_5 1_555 1_555
C26_5 C25_5 1_555 1_555
H18_5 C26_5 1_555 1_555
C28_5 C27_5 1_555 1_555
H20_5 C28_5 1_555 1_555
C29_5 C26_5 1_555 1_555
C30_5 C29_5 1_555 1_555
C31_5 H21_5 1_555 1_555
C32_5 C31_5 1_555 1_555
H22_5 C32_5 1_555 1_555
C33_6 H23_6 1_555 1_555
C34_6 C33_6 1_555 1_555
H24_6 C34_6 1_555 1_555
C35_5 C32_5 1_555 1_555
C36_5 C35_5 1_555 1_555
N7_3 C31_5 1_555 1_555
N10_5 C24_5 1_555 1_555
N11_5 C24_5 1_555 1_555
N12_5 C30_5 1_555 1_555
Zn5_3 N7_3 1_555 1_555
C28_5 C29_5 1_555 1_555
C30_5 N11_5 1_555 1_555
C33_6 N7_3 1_555 1_555
C34_6 C35_5 1_555 1_555
C36_5 N10_5 1_555 1_555
C36_5 N12_5 1_555 1_555
C19_7 H13_7 1_555 1_555
C21_5 H15_5 1_555 1_555
C22_5 C21_5 1_555 1_555
H16_5 C22_5 1_555 1_555
N8_3 C19_7 1_555 1_555
Zn4_3 N8_3 1_555 1_555
C21_5 N8_3 1_555 1_555
Zn3_4 I5_6 1_555 1_555
I6_6 Zn3_4 1_555 1_555
C7_6 H5_6 1_555 1_555
C8_6 C7_6 1_555 1_555
H6_6 C8_6 1_555 1_555
C9_6 H7_6 1_555 1_555
C19_8 H13_8 1_555 1_555
C20_7 C19_8 1_555 1_555
H14_7 C20_7 1_555 1_555
C21_6 H15_6 1_555 1_555
C22_6 C21_6 1_555 1_555
H16_6 C22_6 1_555 1_555
C23_6 C20_7 1_555 1_555
C24_6 C23_6 1_555 1_555
C25_6 H17_6 1_555 1_555
C26_6 C25_6 1_555 1_555
H18_6 C26_6 1_555 1_555
C28_6 C27_6 1_555 1_555
H20_6 C28_6 1_555 1_555
C29_6 C26_6 1_555 1_555
C30_6 C29_6 1_555 1_555
C31_6 H21_6 1_555 1_555
C32_6 C31_6 1_555 1_555
H22_6 C32_6 1_555 1_555
C33_7 H23_7 1_555 1_555
C34_7 C33_7 1_555 1_555
H24_7 C34_7 1_555 1_555
C35_6 C32_6 1_555 1_555
C36_6 C35_6 1_555 1_555
N2_6 Zn3_4 1_555 1_555
N7_4 C31_6 1_555 1_555
N8_4 C19_8 1_555 1_555
N10_6 C24_6 1_555 1_555
N11_6 C24_6 1_555 1_555
N12_6 C30_6 1_555 1_555
Zn4_4 N8_4 1_555 1_555
Zn5_4 N7_4 1_555 1_555
N13_4 Zn3_4 1_555 1_555
C7_6 N2_6 1_555 1_555
C9_6 N2_6 1_555 1_555
C21_6 N8_4 1_555 1_555
C22_6 C23_6 1_555 1_555
C28_6 C29_6 1_555 1_555
C30_6 N11_6 1_555 1_555
C33_7 N7_4 1_555 1_555
C34_7 C35_6 1_555 1_555
C36_6 N10_6 1_555 1_555
C36_6 N12_6 1_555 1_555
Zn4_4 I3_7 1_555 1_555
Zn5_3 I5_7 1_555 1_555
I4_6 Zn4_4 1_555 1_555
I6_7 Zn5_3 1_555 1_555
C1_7 H1_7 1_555 1_555
C2_7 C1_7 1_555 1_555
H2_7 C2_7 1_555 1_555
C3_7 H3_7 1_555 1_555
C4_7 C3_7 1_555 1_555
H4_7 C4_7 1_555 1_555
C5_7 C2_7 1_555 1_555
C6_7 C5_7 1_555 1_555
C7_7 H5_7 1_555 1_555
C8_7 C7_7 1_555 1_555
H6_7 C8_7 1_555 1_555
C9_7 H7_7 1_555 1_555
C10_7 C9_7 1_555 1_555
H8_7 C10_7 1_555 1_555
C11_7 C8_7 1_555 1_555
C12_7 C11_7 1_555 1_555
C13_7 H9_7 1_555 1_555
C14_7 C13_7 1_555 1_555
H10_7 C14_7 1_555 1_555
C15_7 H11_7 1_555 1_555
C16_7 C15_7 1_555 1_555
H12_7 C16_7 1_555 1_555
C17_7 C14_7 1_555 1_555
C18_7 C17_7 1_555 1_555
N2_7 Zn5_3 1_555 1_555
N3_7 Zn4_4 1_555 1_555
N4_7 C6_7 1_555 1_555
N5_7 C12_7 1_555 1_555
N6_7 C6_7 1_555 1_555
C1_7 N1_7 1_555 1_555
C3_7 N1_7 1_555 1_555
C4_7 C5_7 1_555 1_555
C7_7 N2_7 1_555 1_555
C9_7 N2_7 1_555 1_555
C10_7 C11_7 1_555 1_555
C12_7 N4_7 1_555 1_555
C13_7 N3_7 1_555 1_555
C15_7 N3_7 1_555 1_555
C16_7 C17_7 1_555 1_555
C18_7 N5_7 1_555 1_555
C18_7 N6_7 1_555 1_555
Zn1_6 I1_6 1_555 1_555
Zn4_3 I3_8 1_555 1_555
Zn5_4 I5_8 1_555 1_555
I2_6 Zn1_6 1_555 1_555
I6_8 Zn5_4 1_555 1_555
C1_8 H1_8 1_555 1_555
C2_8 C1_8 1_555 1_555
H2_8 C2_8 1_555 1_555
C3_8 H3_8 1_555 1_555
C4_8 C3_8 1_555 1_555
H4_8 C4_8 1_555 1_555
C5_8 C2_8 1_555 1_555
C6_8 C5_8 1_555 1_555
C7_8 H5_8 1_555 1_555
C8_8 C7_8 1_555 1_555
H6_8 C8_8 1_555 1_555
C9_8 H7_8 1_555 1_555
C10_8 C9_8 1_555 1_555
H8_8 C10_8 1_555 1_555
C11_8 C8_8 1_555 1_555
C12_8 C11_8 1_555 1_555
C13_8 H9_8 1_555 1_555
C14_8 C13_8 1_555 1_555
H10_8 C14_8 1_555 1_555
C15_8 H11_8 1_555 1_555
C16_8 C15_8 1_555 1_555
H12_8 C16_8 1_555 1_555
C17_8 C14_8 1_555 1_555
C18_8 C17_8 1_555 1_555
C24_7 C23_7 1_555 1_555
C25_7 H17_7 1_555 1_555
C26_7 C25_7 1_555 1_555
H18_7 C26_7 1_555 1_555
C27_7 H19_6 1_555 1_555
C28_7 C27_7 1_555 1_555
H20_7 C28_7 1_555 1_555
C29_7 C26_7 1_555 1_555
C30_7 C29_7 1_555 1_555
C31_7 H21_7 1_555 1_555
C32_7 C31_7 1_555 1_555
H22_7 C32_7 1_555 1_555
C35_7 C32_7 1_555 1_555
C36_7 C35_7 1_555 1_555
N1_8 Zn1_6 1_555 1_555
N2_8 Zn5_4 1_555 1_555
N3_8 Zn4_3 1_555 1_555
N4_8 C6_8 1_555 1_555
N5_8 C12_8 1_555 1_555
N6_8 C6_8 1_555 1_555
N9_6 Zn1_6 1_555 1_555
N10_7 C24_7 1_555 1_555
N11_7 C24_7 1_555 1_555
N12_7 C30_7 1_555 1_555
C1_8 N1_8 1_555 1_555
C3_8 N1_8 1_555 1_555
C4_8 C5_8 1_555 1_555
C7_8 N2_8 1_555 1_555
C9_8 N2_8 1_555 1_555
C10_8 C11_8 1_555 1_555
C12_8 N4_8 1_555 1_555
C13_8 N3_8 1_555 1_555
C15_8 N3_8 1_555 1_555
C16_8 C17_8 1_555 1_555
C18_8 N5_8 1_555 1_555
C18_8 N6_8 1_555 1_555
C25_7 N9_6 1_555 1_555
C27_7 N9_6 1_555 1_555
C28_7 C29_7 1_555 1_555
C30_7 N11_7 1_555 1_555
C36_7 N10_7 1_555 1_555
C36_7 N12_7 1_555 1_555
H14_8 C20_8 1_555 1_555
C33_8 H23_8 1_555 1_555
C34_8 C33_8 1_555 1_555
H24_8 C34_8 1_555 1_555
C33_8 N13_4 1_555 1_555
Zn1_7 I1_7 1_555 1_555
I2_7 Zn1_7 1_555 1_555
N9_7 Zn1_7 1_555 1_555
Zn1_8 I1_8 1_555 1_555
I2_8 Zn1_8 1_555 1_555
C21_7 H15_7 1_555 1_555
C22_7 C21_7 1_555 1_555
H16_7 C22_7 1_555 1_555
C24_8 C23_8 1_555 1_555
C25_8 H17_8 1_555 1_555
C26_8 C25_8 1_555 1_555
H18_8 C26_8 1_555 1_555
C27_8 H19_8 1_555 1_555
C28_8 C27_8 1_555 1_555
H20_8 C28_8 1_555 1_555
C29_8 C26_8 1_555 1_555
C30_8 C29_8 1_555 1_555
C31_8 H21_8 1_555 1_555
C32_8 C31_8 1_555 1_555
H22_8 C32_8 1_555 1_555
C35_8 C32_8 1_555 1_555
C36_8 C35_8 1_555 1_555
N9_8 Zn1_8 1_555 1_555
N10_8 C24_8 1_555 1_555
N11_8 C24_8 1_555 1_555
N12_8 C30_8 1_555 1_555
C22_7 C23_8 1_555 1_555
C25_8 N9_8 1_555 1_555
C27_8 N9_8 1_555 1_555
C28_8 C29_8 1_555 1_555
C30_8 N11_8 1_555 1_555
C36_8 N10_8 1_555 1_555
C36_8 N12_8 1_555 1_555
C21_8 H15_8 1_555 1_555
C22_8 C21_8 1_555 1_555
H16_8 C22_8 1_555 1_555

#END
