
###############################################################################
#
# This file contains modified crystal structure data generated from the
# MOF subset of the Cambridge Structural Database (CSD) v543 
# hosted by the Cambridge Crystallographic Data Centre (CCDC).
#
# This work is licensed under the Creative Commons
# Attribution-NonCommercial-ShareAlike 4.0 International License.
# To view a copy of this license, visit
# http://creativecommons.org/licenses/by-nc-sa/4.0/
# or send a letter to
# Creative Commons, PO Box 1866, Mountain View, CA 94042, USA.
#
# CIF created using the CSD Python API on 29 September 2022
# The structure has been converted into the P1 space group
# The structure has a 3D framework
# The original CSD entry SOHNEJ is in the orthorhombic crystal system
# The framework has been calculated to contain at least 10.0% void space
# The void calculation uses a probe of radius 1.32A, grid spacing 0.4
#
###############################################################################

data_SOHNEJ
_chemical_formula_moiety         '(C288 H192 I48 N92 Zn24)n'
_symmetry_cell_setting           triclinic
_symmetry_space_group_name_H-M   'P 1'
_symmetry_Int_Tables_number      1
_space_group_name_Hall           'P 1'
loop_
_symmetry_equiv_pos_site_id
_symmetry_equiv_pos_as_xyz
1 x,y,z
_cell_length_a                   13.6728(3)
_cell_length_b                   45.5987(7)
_cell_length_c                   28.4576(3)
_cell_angle_alpha                90
_cell_angle_beta                 90
_cell_angle_gamma                90
_cell_volume                     17742.2
loop_
_atom_site_label
_atom_site_type_symbol
_atom_site_fract_x
_atom_site_fract_y
_atom_site_fract_z
H22 H 0.0112 0.3825 0.5912
N12 N 0.0178(5) 0.42002(14) 0.5558(2)
Zn5 Zn 0.15282(7) 0.41263(2) 0.52618(3)
Zn1 Zn 0.16945(6) 0.431771(16) 0.06324(3)
I2 I 0.34940(4) 0.444673(12) 0.07667(2)
I5 I 0.22993(5) 0.462573(17) 0.51020(2)
I6 I 0.23855(5) 0.37204(2) 0.57173(3)
C1 C 0.0847(5) 0.35861(13) 0.2486(3)
C2 C 0.0472(5) 0.31516(13) 0.2824(3)
C3 C 0.0830(5) 0.35444(13) 0.3273(3)
C4 C 0.0985(5) 0.37598(12) 0.2046(2)
C5 C 0.1252(5) 0.40527(13) 0.2068(3)
H1 H 0.1329 0.4147 0.2363
C6 C 0.1402(5) 0.42032(14) 0.1660(3)
H2 H 0.1580 0.4404 0.1680
C7 C 0.1037(5) 0.38017(13) 0.1213(3)
H3 H 0.0956 0.3715 0.0911
C8 C 0.0866(5) 0.36330(13) 0.1605(3)
H4 H 0.0670 0.3434 0.1576
C9 C 0.0132(4) 0.28431(13) 0.2771(3)
C10 C 0.0181(5) 0.27043(13) 0.2345(3)
H5 H 0.0479 0.2799 0.2084
C14 C 0.0931(5) 0.36836(14) 0.3741(3)
C15 C 0.0927(6) 0.35144(17) 0.4150(3)
H9 H 0.0845 0.3308 0.4135
C16 C 0.1043(6) 0.36530(17) 0.4575(3)
H10 H 0.1029 0.3537 0.4852
C17 C 0.1173(5) 0.41037(16) 0.4223(3)
H11 H 0.1265 0.4310 0.4247
C18 C 0.1042(5) 0.39798(14) 0.3784(3)
H12 H 0.1029 0.4101 0.3512
C25 C 0.1256(6) 0.49121(14) 0.0985(3)
H15 H 0.1917 0.4900 0.1086
C26 C 0.0707(5) 0.51569(13) 0.1113(3)
H16 H 0.0979 0.5303 0.1312
C28 C 0.0605(5) 0.61556(15) 0.1619(3)
H17 H 0.0971 0.6000 0.1483
C29 C 0.1083(6) 0.63869(15) 0.1830(3)
H18 H 0.1778 0.6393 0.1825
N1 N 0.0618(4) 0.32991(10) 0.2422(2)
N2 N 0.0588(4) 0.32585(11) 0.3254(2)
N3 N 0.0956(4) 0.37167(11) 0.2893(2)
N4 N 0.1313(4) 0.40836(11) 0.1239(2)
N6 N 0.1174(4) 0.39392(13) 0.4620(2)
N10 N 0.0899(4) 0.46983(11) 0.0730(2)
N11 N 0.0596(4) 0.66007(11) 0.2041(2)
Zn4 Zn 0.13817(6) 0.689943(16) 0.24314(3)
I3 I 0.30099(4) 0.696728(12) 0.20119(2)
I4 I 0.13409(6) 0.675298(15) 0.32904(2)
C11 C 0.0208(5) 0.74233(13) 0.2702(3)
H6 H 0.0166 0.7326 0.2997
C12 C 0.0666(7) 0.74193(17) 0.1925(3)
H7 H 0.0954 0.7320 0.1666
C13 C 0.0284(6) 0.77001(17) 0.1856(3)
H8 H 0.0312 0.7790 0.1555
C23 C 0.0605(6) 0.99648(14) 0.4335(3)
H13 H 0.1253 0.9976 0.4455
C24 C 0.0009(6) 0.97261(15) 0.4443(3)
H14 H 0.0254 0.9578 0.4646
N5 N 0.0642(4) 0.72863(11) 0.2339(2)
Zn3 Zn 0.34718(7) 0.58737(2) 0.02618(3)
I5_2 I 0.27007(5) 0.537427(17) 0.01020(2)
I6_2 I 0.26145(5) 0.62796(2) 0.07173(3)
N14 N 0.4822(5) 0.57998(14) 0.0558(2)
Zn2 Zn 0.86183(6) 0.189943(16) 0.25686(3)
I3_2 I 0.69901(4) 0.196728(12) 0.29881(2)
I4_2 I 0.86591(6) 0.175298(15) 0.17096(2)
C11_2 C 0.9792(5) 0.24233(13) 0.2298(3)
H6_2 H 0.9834 0.2326 0.2003
C12_2 C 0.9334(7) 0.24193(17) 0.3075(3)
H7_2 H 0.9046 0.2320 0.3334
C13_2 C 0.9716(6) 0.27001(17) 0.3144(3)
H8_2 H 0.9688 0.2790 0.3445
C19 C 0.9174(5) 0.54454(14) 0.1075(3)
C20 C 0.9086(5) 0.58999(13) 0.1383(2)
C21 C 0.7746(5) 0.56946(13) 0.1066(2)
C22 C 0.9759(5) 0.51833(13) 0.0946(3)
C23_2 C 0.9395(6) 0.49648(14) 0.0665(3)
H13_2 H 0.8747 0.4976 0.0545
C24_2 C 0.9991(6) 0.47261(15) 0.0557(3)
H14_2 H 0.9746 0.4578 0.0354
C27 C 0.9593(5) 0.61491(13) 0.1604(3)
C30 C 0.9622(6) 0.66004(15) 0.2028(3)
H19 H 0.9277 0.6757 0.2171
C31 C 0.9089(6) 0.63760(15) 0.1809(3)
H20 H 0.8395 0.6381 0.1803
C32 C 0.6714(5) 0.57219(14) 0.0907(2)
C33 C 0.6166(6) 0.59703(16) 0.1011(3)
H21 H 0.6436 0.6119 0.1206
C34 C 0.5245(5) 0.60027(16) 0.0836(3)
H22_2 H 0.4888 0.6175 0.0912
C35 C 0.5342(6) 0.55613(18) 0.0467(3)
H23 H 0.5050 0.5414 0.0277
C36 C 0.6268(6) 0.55141(18) 0.0628(3)
H24 H 0.6605 0.5339 0.0548
N5_2 N 0.9358(4) 0.22863(11) 0.2661(2)
N7 N 0.9633(4) 0.56618(11) 0.1279(2)
N8 N 0.8128(4) 0.59246(11) 0.1286(2)
N9 N 0.8208(4) 0.54449(11) 0.0957(2)
N13 N 0.9404(4) 0.16007(11) 0.2959(2)
C26_2 C 0.9293(5) 0.01569(13) 0.3887(3)
H16_2 H 0.9021 0.0303 0.3688
C28_2 C 0.9395(5) 0.11556(15) 0.3381(3)
H17_2 H 0.9029 0.1000 0.3517
C29_2 C 0.8917(6) 0.13869(15) 0.3170(3)
H18_2 H 0.8222 0.1393 0.3175
Zn1_2 Zn 0.33055(6) 0.568229(16) 0.56324(3)
Zn2_2 Zn 0.63817(6) 0.810057(16) 0.75686(3)
I1 I 0.40234(5) 0.596605(11) 0.495380(19)
I2_2 I 0.15060(4) 0.555327(12) 0.57667(2)
I3_3 I 0.80099(4) 0.803272(12) 0.79881(2)
I4_3 I 0.63409(6) 0.824702(15) 0.67096(2)
C1_2 C 0.4153(5) 0.64139(13) 0.7486(3)
C2_2 C 0.4528(5) 0.68484(13) 0.7824(3)
C3_2 C 0.4170(5) 0.64556(13) 0.8273(3)
C4_2 C 0.4015(5) 0.62402(12) 0.7046(2)
C5_2 C 0.3748(5) 0.59473(13) 0.7068(3)
H1_2 H 0.3671 0.5853 0.7363
C6_2 C 0.3598(5) 0.57968(14) 0.6660(3)
H2_2 H 0.3420 0.5596 0.6680
C7_2 C 0.3963(5) 0.61983(13) 0.6213(3)
H3_2 H 0.4044 0.6285 0.5911
C8_2 C 0.4134(5) 0.63670(13) 0.6605(3)
H4_2 H 0.4330 0.6566 0.6576
C9_2 C 0.4868(4) 0.71569(13) 0.7771(3)
C10_2 C 0.4819(5) 0.72957(13) 0.7345(3)
H5_2 H 0.4521 0.7201 0.7084
C11_3 C 0.5208(5) 0.75767(13) 0.7298(3)
H6_3 H 0.5166 0.7674 0.7003
C12_3 C 0.5666(7) 0.75807(17) 0.8075(3)
H7_3 H 0.5954 0.7680 0.8334
C13_3 C 0.5284(6) 0.72999(17) 0.8144(3)
H8_3 H 0.5312 0.7210 0.8445
C14_2 C 0.4069(5) 0.63164(14) 0.8741(3)
C15_2 C 0.4073(6) 0.64856(17) 0.9150(3)
H9_2 H 0.4155 0.6692 0.9135
C16_2 C 0.3957(6) 0.63470(17) 0.9575(3)
H10_2 H 0.3971 0.6463 0.9852
C17_2 C 0.3827(5) 0.58963(16) 0.9223(3)
H11_2 H 0.3735 0.5690 0.9247
C18_2 C 0.3958(5) 0.60202(14) 0.8784(3)
H12_2 H 0.3971 0.5899 0.8512
C19_2 C 0.5826(5) 0.45546(14) 0.6075(3)
C20_2 C 0.5914(5) 0.41001(13) 0.6383(2)
C21_2 C 0.7254(5) 0.43054(13) 0.6066(2)
C22_2 C 0.5241(5) 0.48167(13) 0.5946(3)
C23_3 C 0.5605(6) 0.50352(14) 0.5665(3)
H13_3 H 0.6253 0.5024 0.5545
C24_3 C 0.5009(6) 0.52739(15) 0.5557(3)
H14_3 H 0.5254 0.5422 0.5354
C25_2 C 0.3744(6) 0.50879(14) 0.5985(3)
H15_2 H 0.3083 0.5100 0.6086
C26_3 C 0.4293(5) 0.48431(13) 0.6113(3)
H16_3 H 0.4021 0.4697 0.6312
C27_2 C 0.5407(5) 0.38509(13) 0.6604(3)
C28_3 C 0.4395(5) 0.38444(15) 0.6619(3)
H17_3 H 0.4029 0.4000 0.6483
C29_3 C 0.3917(6) 0.36131(15) 0.6830(3)
H18_3 H 0.3222 0.3607 0.6825
C30_2 C 0.5378(6) 0.33996(15) 0.7028(3)
H19_2 H 0.5723 0.3243 0.7171
C31_2 C 0.5911(6) 0.36240(15) 0.6809(3)
H20_2 H 0.6605 0.3619 0.6803
C32_2 C 0.8286(5) 0.42781(14) 0.5907(2)
C33_2 C 0.8834(6) 0.40297(16) 0.6011(3)
H21_2 H 0.8564 0.3881 0.6206
C34_2 C 0.9755(5) 0.39973(16) 0.5836(3)
C35_2 C 0.9658(6) 0.44387(18) 0.5467(3)
H23_2 H 0.9950 0.4586 0.5277
C36_2 C 0.8732(6) 0.44859(18) 0.5628(3)
H24_2 H 0.8395 0.4661 0.5548
N1_2 N 0.4382(4) 0.67009(10) 0.7422(2)
N2_2 N 0.4412(4) 0.67415(11) 0.8254(2)
N3_2 N 0.4044(4) 0.62833(11) 0.7893(2)
N4_2 N 0.3687(4) 0.59164(11) 0.6239(2)
N5_3 N 0.5642(4) 0.77137(11) 0.7661(2)
N6_2 N 0.3826(4) 0.60608(13) 0.9620(2)
N7_2 N 0.5367(4) 0.43382(11) 0.6279(2)
N8_2 N 0.6872(4) 0.40754(11) 0.6286(2)
N9_2 N 0.6792(4) 0.45551(11) 0.5957(2)
N10_2 N 0.4101(4) 0.53017(11) 0.5730(2)
N11_2 N 0.4404(4) 0.33993(11) 0.7041(2)
Zn4_2 Zn 0.36183(6) 0.310057(16) 0.74314(3)
N13_2 N 0.5596(4) 0.83993(11) 0.7959(2)
Zn1_3 Zn 0.66945(6) 0.068229(16) 0.93676(3)
Zn3_2 Zn 0.65282(7) 0.08737(2) 0.47382(3)
I2_3 I 0.84940(4) 0.055327(12) 0.92333(2)
I3_4 I 0.19901(4) 0.303272(12) 0.70119(2)
I4_4 I 0.36591(6) 0.324702(15) 0.82904(2)
I5_3 I 0.72993(5) 0.037427(17) 0.48980(2)
I6_3 I 0.73855(5) 0.12796(2) 0.42827(3)
C1_3 C 0.5847(5) 0.14139(13) 0.7514(3)
C2_3 C 0.5472(5) 0.18484(13) 0.7176(3)
C3_3 C 0.5830(5) 0.14556(13) 0.6727(3)
C4_3 C 0.5985(5) 0.12402(12) 0.7954(2)
C5_3 C 0.6252(5) 0.09473(13) 0.7932(3)
H1_3 H 0.6329 0.0853 0.7637
C6_3 C 0.6402(5) 0.07968(14) 0.8340(3)
H2_3 H 0.6580 0.0596 0.8320
C7_3 C 0.6037(5) 0.11983(13) 0.8787(3)
H3_3 H 0.5956 0.1285 0.9089
C8_3 C 0.5866(5) 0.13670(13) 0.8395(3)
H4_3 H 0.5670 0.1566 0.8424
C9_3 C 0.5132(4) 0.21569(13) 0.7229(3)
C10_3 C 0.5181(5) 0.22957(13) 0.7655(3)
H5_3 H 0.5479 0.2201 0.7916
C11_4 C 0.4792(5) 0.25767(13) 0.7702(3)
H6_4 H 0.4834 0.2674 0.7997
C12_4 C 0.4334(7) 0.25807(17) 0.6925(3)
H7_4 H 0.4046 0.2680 0.6666
C13_4 C 0.4716(6) 0.22999(17) 0.6856(3)
H8_4 H 0.4688 0.2210 0.6555
C14_3 C 0.5931(5) 0.13164(14) 0.6259(3)
C15_3 C 0.5927(6) 0.14856(17) 0.5850(3)
H9_3 H 0.5845 0.1692 0.5865
C16_3 C 0.6043(6) 0.13470(17) 0.5425(3)
H10_3 H 0.6029 0.1463 0.5148
C17_3 C 0.6173(5) 0.08963(16) 0.5777(3)
H11_3 H 0.6265 0.0690 0.5753
C18_3 C 0.6042(5) 0.10202(14) 0.6216(3)
H12_3 H 0.6029 0.0899 0.6488
C23_4 C 0.4395(6) 0.00352(14) 0.9335(3)
H13_4 H 0.3747 0.0024 0.9455
C24_4 C 0.4991(6) 0.02739(15) 0.9443(3)
H14_4 H 0.4746 0.0422 0.9646
C25_3 C 0.6256(6) 0.00879(14) 0.9015(3)
H15_3 H 0.6917 0.0100 0.8914
N1_3 N 0.5618(4) 0.17009(10) 0.7578(2)
N2_3 N 0.5588(4) 0.17415(11) 0.6746(2)
N3_3 N 0.5956(4) 0.12833(11) 0.7107(2)
N4_3 N 0.6313(4) 0.09164(11) 0.8761(2)
N5_4 N 0.4358(4) 0.27137(11) 0.7339(2)
N6_3 N 0.6174(4) 0.10608(13) 0.5380(2)
N10_3 N 0.5899(4) 0.03017(11) 0.9270(2)
N14_2 N 0.5178(5) 0.07998(14) 0.4442(2)
C19_3 C 0.4174(5) 0.95546(14) 0.8925(3)
C20_3 C 0.4086(5) 0.91001(13) 0.8617(2)
C21_3 C 0.2746(5) 0.93054(13) 0.8934(2)
C22_3 C 0.4759(5) 0.98167(13) 0.9054(3)
C26_4 C 0.5707(5) 0.98431(13) 0.8887(3)
H16_4 H 0.5979 0.9697 0.8688
C27_3 C 0.4593(5) 0.88509(13) 0.8396(3)
C28_4 C 0.5605(5) 0.88444(15) 0.8381(3)
H17_4 H 0.5971 0.9000 0.8517
C29_4 C 0.6083(6) 0.86131(15) 0.8170(3)
H18_4 H 0.6778 0.8607 0.8175
C30_3 C 0.4622(6) 0.83996(15) 0.7972(3)
H19_3 H 0.4277 0.8243 0.7829
C31_3 C 0.4089(6) 0.86240(15) 0.8191(3)
H20_3 H 0.3395 0.8619 0.8197
C32_3 C 0.1714(5) 0.92781(14) 0.9093(2)
C33_3 C 0.1166(6) 0.90297(16) 0.8989(3)
H21_3 H 0.1436 0.8881 0.8794
C34_3 C 0.0245(5) 0.89973(16) 0.9164(3)
C35_3 C 0.0342(6) 0.94387(18) 0.9533(3)
H23_3 H 0.0050 0.9586 0.9723
C36_3 C 0.1268(6) 0.94859(18) 0.9372(3)
H24_3 H 0.1605 0.9661 0.9452
N7_3 N 0.4633(4) 0.93382(11) 0.8721(2)
N8_3 N 0.3128(4) 0.90754(11) 0.8714(2)
N9_3 N 0.3208(4) 0.95551(11) 0.9043(2)
C19_4 C 0.0826(5) 0.04454(14) 0.3925(3)
C20_4 C 0.0914(5) 0.08999(13) 0.3617(2)
C21_4 C 0.2254(5) 0.06946(13) 0.3934(2)
C22_4 C 0.0241(5) 0.01833(13) 0.4054(3)
C27_4 C 0.0407(5) 0.11491(13) 0.3396(3)
C30_4 C 0.0378(6) 0.16004(15) 0.2972(3)
H19_4 H 0.0723 0.1757 0.2829
C31_4 C 0.0911(6) 0.13760(15) 0.3191(3)
H20_4 H 0.1605 0.1381 0.3197
C32_4 C 0.3286(5) 0.07219(14) 0.4093(2)
C33_4 C 0.3834(6) 0.09703(16) 0.3989(3)
H21_4 H 0.3564 0.1119 0.3794
C34_4 C 0.4755(5) 0.10027(16) 0.4164(3)
H22_3 H 0.5112 0.1175 0.4088
C35_4 C 0.4658(6) 0.05613(18) 0.4533(3)
H23_4 H 0.4950 0.0414 0.4723
C36_4 C 0.3732(6) 0.05141(18) 0.4372(3)
H24_4 H 0.3395 0.0339 0.4452
N7_4 N 0.0367(4) 0.06618(11) 0.3721(2)
N8_4 N 0.1872(4) 0.09246(11) 0.3714(2)
N9_4 N 0.1792(4) 0.04449(11) 0.4043(2)
I1_2 I 0.09766(5) 0.403395(11) 0.995380(19)
I1_3 I 0.59766(5) 0.096605(11) 0.004620(19)
H22_4 H 0.9888 0.8825 0.9088
N12_2 N 0.9822(5) 0.92002(14) 0.9442(2)
Zn5_2 Zn 0.84718(7) 0.91263(2) 0.97382(3)
I5_4 I 0.77007(5) 0.962573(17) 0.98980(2)
I6_4 I 0.76145(5) 0.87204(2) 0.92827(3)
Zn1_4 Zn 0.83055(6) 0.931771(16) 0.43676(3)
I1_4 I 0.90234(5) 0.903395(11) 0.504620(19)
I2_4 I 0.65060(4) 0.944673(12) 0.42333(2)
C1_4 C 0.9153(5) 0.85861(13) 0.2514(3)
C2_4 C 0.9528(5) 0.81516(13) 0.2176(3)
C3_4 C 0.9170(5) 0.85444(13) 0.1727(3)
C4_4 C 0.9015(5) 0.87598(12) 0.2954(2)
C5_4 C 0.8748(5) 0.90527(13) 0.2932(3)
H1_4 H 0.8671 0.9147 0.2637
C6_4 C 0.8598(5) 0.92032(14) 0.3340(3)
H2_4 H 0.8420 0.9404 0.3320
C7_4 C 0.8963(5) 0.88017(13) 0.3787(3)
H3_4 H 0.9044 0.8715 0.4089
C8_4 C 0.9134(5) 0.86330(13) 0.3395(3)
H4_4 H 0.9330 0.8434 0.3424
C9_4 C 0.9868(4) 0.78431(13) 0.2229(3)
C10_4 C 0.9819(5) 0.77043(13) 0.2655(3)
H5_4 H 0.9521 0.7799 0.2916
C14_4 C 0.9069(5) 0.86836(14) 0.1259(3)
C15_4 C 0.9073(6) 0.85144(17) 0.0850(3)
H9_4 H 0.9155 0.8308 0.0865
C16_4 C 0.8957(6) 0.86530(17) 0.0425(3)
H10_4 H 0.8971 0.8537 0.0148
C17_4 C 0.8827(5) 0.91037(16) 0.0777(3)
H11_4 H 0.8735 0.9310 0.0753
C18_4 C 0.8958(5) 0.89798(14) 0.1216(3)
H12_4 H 0.8971 0.9101 0.1488
C25_4 C 0.8744(6) 0.99121(14) 0.4015(3)
H15_4 H 0.8083 0.9900 0.3914
N1_4 N 0.9382(4) 0.82991(10) 0.2578(2)
N2_4 N 0.9412(4) 0.82585(11) 0.1746(2)
N3_4 N 0.9044(4) 0.87167(11) 0.2107(2)
N4_4 N 0.8687(4) 0.90836(11) 0.3761(2)
N6_4 N 0.8826(4) 0.89392(13) 0.0380(2)
N10_4 N 0.9101(4) 0.96983(11) 0.4270(2)
Zn1_5 Zn 0.66945(6) 0.431771(16) 0.43676(3)
Zn2_3 Zn 0.36183(6) 0.189943(16) 0.24314(3)
I1_5 I 0.59766(5) 0.403395(11) 0.504620(19)
I2_5 I 0.84940(4) 0.444673(12) 0.42333(2)
I3_5 I 0.19901(4) 0.196728(12) 0.20119(2)
I4_5 I 0.36591(6) 0.175298(15) 0.32904(2)
C1_5 C 0.5847(5) 0.35861(13) 0.2514(3)
C2_5 C 0.5472(5) 0.31516(13) 0.2176(3)
C3_5 C 0.5830(5) 0.35444(13) 0.1727(3)
C4_5 C 0.5985(5) 0.37598(12) 0.2954(2)
C5_5 C 0.6252(5) 0.40527(13) 0.2932(3)
H1_5 H 0.6329 0.4147 0.2637
C6_5 C 0.6402(5) 0.42032(14) 0.3340(3)
H2_5 H 0.6580 0.4404 0.3320
C7_5 C 0.6037(5) 0.38017(13) 0.3787(3)
H3_5 H 0.5956 0.3715 0.4089
C8_5 C 0.5866(5) 0.36330(13) 0.3395(3)
H4_5 H 0.5670 0.3434 0.3424
C9_5 C 0.5132(4) 0.28431(13) 0.2229(3)
C10_5 C 0.5181(5) 0.27043(13) 0.2655(3)
H5_5 H 0.5479 0.2799 0.2916
C11_5 C 0.4792(5) 0.24233(13) 0.2702(3)
H6_5 H 0.4834 0.2326 0.2997
C12_5 C 0.4334(7) 0.24193(17) 0.1925(3)
H7_5 H 0.4046 0.2320 0.1666
C13_5 C 0.4716(6) 0.27001(17) 0.1856(3)
H8_5 H 0.4688 0.2790 0.1555
C14_5 C 0.5931(5) 0.36836(14) 0.1259(3)
C15_5 C 0.5927(6) 0.35144(17) 0.0850(3)
H9_5 H 0.5845 0.3308 0.0865
C16_5 C 0.6043(6) 0.36530(17) 0.0425(3)
H10_5 H 0.6029 0.3537 0.0148
C17_5 C 0.6173(5) 0.41037(16) 0.0777(3)
H11_5 H 0.6265 0.4310 0.0753
C18_5 C 0.6042(5) 0.39798(14) 0.1216(3)
H12_5 H 0.6029 0.4101 0.1488
C19_5 C 0.4174(5) 0.54454(14) 0.3925(3)
C20_5 C 0.4086(5) 0.58999(13) 0.3617(2)
C21_5 C 0.2746(5) 0.56946(13) 0.3934(2)
C22_5 C 0.4759(5) 0.51833(13) 0.4054(3)
C23_5 C 0.4395(6) 0.49648(14) 0.4335(3)
H13_5 H 0.3747 0.4976 0.4455
C24_5 C 0.4991(6) 0.47261(15) 0.4443(3)
H14_5 H 0.4746 0.4578 0.4646
C25_5 C 0.6256(6) 0.49121(14) 0.4015(3)
H15_5 H 0.6917 0.4900 0.3914
C26_5 C 0.5707(5) 0.51569(13) 0.3887(3)
H16_5 H 0.5979 0.5303 0.3688
C27_5 C 0.4593(5) 0.61491(13) 0.3396(3)
C28_5 C 0.5605(5) 0.61556(15) 0.3381(3)
H17_5 H 0.5971 0.6000 0.3517
C29_5 C 0.6083(6) 0.63869(15) 0.3170(3)
H18_5 H 0.6778 0.6393 0.3175
C30_5 C 0.4622(6) 0.66004(15) 0.2972(3)
H19_5 H 0.4277 0.6757 0.2829
C31_5 C 0.4089(6) 0.63760(15) 0.3191(3)
H20_5 H 0.3395 0.6381 0.3197
C32_5 C 0.1714(5) 0.57219(14) 0.4093(2)
C33_5 C 0.1166(6) 0.59703(16) 0.3989(3)
H21_5 H 0.1436 0.6119 0.3794
C34_5 C 0.0245(5) 0.60027(16) 0.4164(3)
C35_5 C 0.0342(6) 0.55613(18) 0.4533(3)
H23_5 H 0.0050 0.5414 0.4723
C36_5 C 0.1268(6) 0.55141(18) 0.4372(3)
H24_5 H 0.1605 0.5339 0.4452
N1_5 N 0.5618(4) 0.32991(10) 0.2578(2)
N2_5 N 0.5588(4) 0.32585(11) 0.1746(2)
N3_5 N 0.5956(4) 0.37167(11) 0.2107(2)
N4_5 N 0.6313(4) 0.40836(11) 0.3761(2)
N5_5 N 0.4358(4) 0.22863(11) 0.2339(2)
N6_5 N 0.6174(4) 0.39392(13) 0.0380(2)
N7_5 N 0.4633(4) 0.56618(11) 0.3721(2)
N8_5 N 0.3128(4) 0.59246(11) 0.3714(2)
N9_5 N 0.3208(4) 0.54449(11) 0.4043(2)
N10_5 N 0.5899(4) 0.46983(11) 0.4270(2)
N11_3 N 0.5596(4) 0.66007(11) 0.2959(2)
Zn4_3 Zn 0.63817(6) 0.689943(16) 0.25686(3)
N13_3 N 0.4404(4) 0.16007(11) 0.2041(2)
C19_6 C 0.5826(5) 0.04454(14) 0.1075(3)
C20_6 C 0.5914(5) 0.08999(13) 0.1383(2)
C21_6 C 0.7254(5) 0.06946(13) 0.1066(2)
C22_6 C 0.5241(5) 0.01833(13) 0.0946(3)
C26_6 C 0.4293(5) 0.01569(13) 0.1113(3)
H16_6 H 0.4021 0.0303 0.1312
C27_6 C 0.5407(5) 0.11491(13) 0.1604(3)
C28_6 C 0.4395(5) 0.11556(15) 0.1619(3)
H17_6 H 0.4029 0.1000 0.1483
C29_6 C 0.3917(6) 0.13869(15) 0.1830(3)
H18_6 H 0.3222 0.1393 0.1825
C30_6 C 0.5378(6) 0.16004(15) 0.2028(3)
H19_6 H 0.5723 0.1757 0.2171
C31_6 C 0.5911(6) 0.13760(15) 0.1809(3)
H20_6 H 0.6605 0.1381 0.1803
C32_6 C 0.8286(5) 0.07219(14) 0.0907(2)
C33_6 C 0.8834(6) 0.09703(16) 0.1011(3)
H21_6 H 0.8564 0.1119 0.1206
C34_6 C 0.9755(5) 0.10027(16) 0.0836(3)
C35_6 C 0.9658(6) 0.05613(18) 0.0467(3)
H23_6 H 0.9950 0.0414 0.0277
C36_6 C 0.8732(6) 0.05141(18) 0.0628(3)
H24_6 H 0.8395 0.0339 0.0548
N7_6 N 0.5367(4) 0.06618(11) 0.1279(2)
N8_6 N 0.6872(4) 0.09246(11) 0.1286(2)
N9_6 N 0.6792(4) 0.04449(11) 0.0957(2)
Zn1_6 Zn 0.33055(6) 0.931771(16) 0.06324(3)
Zn3_3 Zn 0.34718(7) 0.91263(2) 0.52618(3)
I2_6 I 0.15060(4) 0.944673(12) 0.07667(2)
I3_6 I 0.80099(4) 0.696728(12) 0.29881(2)
I4_6 I 0.63409(6) 0.675298(15) 0.17096(2)
I5_5 I 0.27007(5) 0.962573(17) 0.51020(2)
I6_5 I 0.26145(5) 0.87204(2) 0.57173(3)
C1_6 C 0.4153(5) 0.85861(13) 0.2486(3)
C2_6 C 0.4528(5) 0.81516(13) 0.2824(3)
C3_6 C 0.4170(5) 0.85444(13) 0.3273(3)
C4_6 C 0.4015(5) 0.87598(12) 0.2046(2)
C5_6 C 0.3748(5) 0.90527(13) 0.2068(3)
H1_6 H 0.3671 0.9147 0.2363
C6_6 C 0.3598(5) 0.92032(14) 0.1660(3)
H2_6 H 0.3420 0.9404 0.1680
C7_6 C 0.3963(5) 0.88017(13) 0.1213(3)
H3_6 H 0.4044 0.8715 0.0911
C8_6 C 0.4134(5) 0.86330(13) 0.1605(3)
H4_6 H 0.4330 0.8434 0.1576
C9_6 C 0.4868(4) 0.78431(13) 0.2771(3)
C10_6 C 0.4819(5) 0.77043(13) 0.2345(3)
H5_6 H 0.4521 0.7799 0.2084
C11_6 C 0.5208(5) 0.74233(13) 0.2298(3)
H6_6 H 0.5166 0.7326 0.2003
C12_6 C 0.5666(7) 0.74193(17) 0.3075(3)
H7_6 H 0.5954 0.7320 0.3334
C13_6 C 0.5284(6) 0.77001(17) 0.3144(3)
H8_6 H 0.5312 0.7790 0.3445
C14_6 C 0.4069(5) 0.86836(14) 0.3741(3)
C15_6 C 0.4073(6) 0.85144(17) 0.4150(3)
H9_6 H 0.4155 0.8308 0.4135
C16_6 C 0.3957(6) 0.86530(17) 0.4575(3)
H10_6 H 0.3971 0.8537 0.4852
C17_6 C 0.3827(5) 0.91037(16) 0.4223(3)
H11_6 H 0.3735 0.9310 0.4247
C18_6 C 0.3958(5) 0.89798(14) 0.3784(3)
H12_6 H 0.3971 0.9101 0.3512
C23_6 C 0.5605(6) 0.99648(14) 0.0665(3)
H13_6 H 0.6253 0.9976 0.0545
C24_6 C 0.5009(6) 0.97261(15) 0.0557(3)
H14_6 H 0.5254 0.9578 0.0354
C25_6 C 0.3744(6) 0.99121(14) 0.0985(3)
H15_6 H 0.3083 0.9900 0.1086
N1_6 N 0.4382(4) 0.82991(10) 0.2422(2)
N2_6 N 0.4412(4) 0.82585(11) 0.3254(2)
N3_6 N 0.4044(4) 0.87167(11) 0.2893(2)
N4_6 N 0.3687(4) 0.90836(11) 0.1239(2)
N5_6 N 0.5642(4) 0.72863(11) 0.2661(2)
N6_6 N 0.3826(4) 0.89392(13) 0.4620(2)
N10_6 N 0.4101(4) 0.96983(11) 0.0730(2)
N14_3 N 0.4822(5) 0.92002(14) 0.5558(2)
C19_7 C 0.9174(5) 0.95546(14) 0.6075(3)
C20_7 C 0.9086(5) 0.91001(13) 0.6383(2)
C21_7 C 0.7746(5) 0.93054(13) 0.6066(2)
C22_7 C 0.9759(5) 0.98167(13) 0.5946(3)
C27_7 C 0.9593(5) 0.88509(13) 0.6604(3)
C30_7 C 0.9622(6) 0.83996(15) 0.7028(3)
H19_7 H 0.9277 0.8243 0.7171
C31_7 C 0.9089(6) 0.86240(15) 0.6809(3)
H20_7 H 0.8395 0.8619 0.6803
C32_7 C 0.6714(5) 0.92781(14) 0.5907(2)
C33_7 C 0.6166(6) 0.90297(16) 0.6011(3)
H21_7 H 0.6436 0.8881 0.6206
C34_7 C 0.5245(5) 0.89973(16) 0.5836(3)
H22_5 H 0.4888 0.8825 0.5912
C35_7 C 0.5342(6) 0.94387(18) 0.5467(3)
H23_7 H 0.5050 0.9586 0.5277
C36_7 C 0.6268(6) 0.94859(18) 0.5628(3)
H24_7 H 0.6605 0.9661 0.5548
N7_7 N 0.9633(4) 0.93382(11) 0.6279(2)
N8_7 N 0.8128(4) 0.90754(11) 0.6286(2)
N9_7 N 0.8208(4) 0.95551(11) 0.5957(2)
Zn3_4 Zn 0.65282(7) 0.41263(2) 0.97382(3)
I5_6 I 0.72993(5) 0.462573(17) 0.98980(2)
I6_6 I 0.73855(5) 0.37204(2) 0.92827(3)
N14_4 N 0.5178(5) 0.42002(14) 0.9442(2)
Zn2_4 Zn 0.13817(6) 0.810057(16) 0.74314(3)
I3_7 I 0.30099(4) 0.803272(12) 0.70119(2)
I4_7 I 0.13409(6) 0.824702(15) 0.82904(2)
C11_7 C 0.0208(5) 0.75767(13) 0.7702(3)
H6_7 H 0.0166 0.7674 0.7997
C12_7 C 0.0666(7) 0.75807(17) 0.6925(3)
H7_7 H 0.0954 0.7680 0.6666
C13_7 C 0.0284(6) 0.72999(17) 0.6856(3)
H8_7 H 0.0312 0.7210 0.6555
C19_8 C 0.0826(5) 0.45546(14) 0.8925(3)
C20_8 C 0.0914(5) 0.41001(13) 0.8617(2)
C21_8 C 0.2254(5) 0.43054(13) 0.8934(2)
C22_8 C 0.0241(5) 0.48167(13) 0.9054(3)
C23_7 C 0.0605(6) 0.50352(14) 0.9335(3)
H13_7 H 0.1253 0.5024 0.9455
C24_7 C 0.0009(6) 0.52739(15) 0.9443(3)
H14_7 H 0.0254 0.5422 0.9646
C27_8 C 0.0407(5) 0.38509(13) 0.8396(3)
C30_8 C 0.0378(6) 0.33996(15) 0.7972(3)
H19_8 H 0.0723 0.3243 0.7829
C31_8 C 0.0911(6) 0.36240(15) 0.8191(3)
H20_8 H 0.1605 0.3619 0.8197
C32_8 C 0.3286(5) 0.42781(14) 0.9093(2)
C33_8 C 0.3834(6) 0.40297(16) 0.8989(3)
H21_8 H 0.3564 0.3881 0.8794
C34_8 C 0.4755(5) 0.39973(16) 0.9164(3)
H22_6 H 0.5112 0.3825 0.9088
C35_8 C 0.4658(6) 0.44387(18) 0.9533(3)
H23_8 H 0.4950 0.4586 0.9723
C36_8 C 0.3732(6) 0.44859(18) 0.9372(3)
H24_8 H 0.3395 0.4661 0.9452
N5_7 N 0.0642(4) 0.77137(11) 0.7339(2)
N7_8 N 0.0367(4) 0.43382(11) 0.8721(2)
N8_8 N 0.1872(4) 0.40754(11) 0.8714(2)
N9_8 N 0.1792(4) 0.45551(11) 0.9043(2)
N13_4 N 0.0596(4) 0.83993(11) 0.7041(2)
C26_7 C 0.0707(5) 0.98431(13) 0.6113(3)
H16_7 H 0.0979 0.9697 0.6312
C28_7 C 0.0605(5) 0.88444(15) 0.6619(3)
H17_7 H 0.0971 0.9000 0.6483
C29_7 C 0.1083(6) 0.86131(15) 0.6830(3)
H18_7 H 0.1778 0.8607 0.6825
H22_7 H 0.9888 0.6175 0.4088
N12_3 N 0.9822(5) 0.57998(14) 0.4442(2)
Zn5_3 Zn 0.84718(7) 0.58737(2) 0.47382(3)
Zn1_7 Zn 0.83055(6) 0.568229(16) 0.93676(3)
I2_7 I 0.65060(4) 0.555327(12) 0.92333(2)
I5_7 I 0.77007(5) 0.537427(17) 0.48980(2)
I6_7 I 0.76145(5) 0.62796(2) 0.42827(3)
C1_7 C 0.9153(5) 0.64139(13) 0.7514(3)
C2_7 C 0.9528(5) 0.68484(13) 0.7176(3)
C3_7 C 0.9170(5) 0.64556(13) 0.6727(3)
C4_7 C 0.9015(5) 0.62402(12) 0.7954(2)
C5_7 C 0.8748(5) 0.59473(13) 0.7932(3)
H1_7 H 0.8671 0.5853 0.7637
C6_7 C 0.8598(5) 0.57968(14) 0.8340(3)
H2_7 H 0.8420 0.5596 0.8320
C7_7 C 0.8963(5) 0.61983(13) 0.8787(3)
H3_7 H 0.9044 0.6285 0.9089
C8_7 C 0.9134(5) 0.63670(13) 0.8395(3)
H4_7 H 0.9330 0.6566 0.8424
C9_7 C 0.9868(4) 0.71569(13) 0.7229(3)
C10_7 C 0.9819(5) 0.72957(13) 0.7655(3)
H5_7 H 0.9521 0.7201 0.7916
C14_7 C 0.9069(5) 0.63164(14) 0.6259(3)
C15_7 C 0.9073(6) 0.64856(17) 0.5850(3)
H9_7 H 0.9155 0.6692 0.5865
C16_7 C 0.8957(6) 0.63470(17) 0.5425(3)
H10_7 H 0.8971 0.6463 0.5148
C17_7 C 0.8827(5) 0.58963(16) 0.5777(3)
H11_7 H 0.8735 0.5690 0.5753
C18_7 C 0.8958(5) 0.60202(14) 0.6216(3)
H12_7 H 0.8971 0.5899 0.6488
C25_7 C 0.8744(6) 0.50879(14) 0.9015(3)
H15_7 H 0.8083 0.5100 0.8914
C26_8 C 0.9293(5) 0.48431(13) 0.8887(3)
H16_8 H 0.9021 0.4697 0.8688
C28_8 C 0.9395(5) 0.38444(15) 0.8381(3)
H17_8 H 0.9029 0.4000 0.8517
C29_8 C 0.8917(6) 0.36131(15) 0.8170(3)
H18_8 H 0.8222 0.3607 0.8175
N1_7 N 0.9382(4) 0.67009(10) 0.7578(2)
N2_7 N 0.9412(4) 0.67415(11) 0.6746(2)
N3_7 N 0.9044(4) 0.62833(11) 0.7107(2)
N4_7 N 0.8687(4) 0.59164(11) 0.8761(2)
N6_7 N 0.8826(4) 0.60608(13) 0.5380(2)
N10_7 N 0.9101(4) 0.53017(11) 0.9270(2)
N11_4 N 0.9404(4) 0.33993(11) 0.7959(2)
Zn4_4 Zn 0.86183(6) 0.310057(16) 0.75686(3)
I3_8 I 0.69901(4) 0.303272(12) 0.79881(2)
I4_8 I 0.86591(6) 0.324702(15) 0.67096(2)
C11_8 C 0.9792(5) 0.25767(13) 0.7298(3)
H6_8 H 0.9834 0.2674 0.7003
C12_8 C 0.9334(7) 0.25807(17) 0.8075(3)
H7_8 H 0.9046 0.2680 0.8334
C13_8 C 0.9716(6) 0.22999(17) 0.8144(3)
H8_8 H 0.9688 0.2210 0.8445
C23_8 C 0.9395(6) 0.00352(14) 0.5665(3)
H13_8 H 0.8747 0.0024 0.5545
C24_8 C 0.9991(6) 0.02739(15) 0.5557(3)
H14_8 H 0.9746 0.0422 0.5354
N5_8 N 0.9358(4) 0.27137(11) 0.7661(2)
I1_6 I 0.90234(5) 0.596605(11) 0.004620(19)
H22_8 H 0.0112 0.1175 0.0912
N12_4 N 0.0178(5) 0.07998(14) 0.0558(2)
Zn5_4 Zn 0.15282(7) 0.08737(2) 0.02618(3)
I5_8 I 0.22993(5) 0.037427(17) 0.01020(2)
I6_8 I 0.23855(5) 0.12796(2) 0.07173(3)
I1_7 I 0.40234(5) 0.903395(11) 0.995380(19)
Zn1_8 Zn 0.16945(6) 0.068229(16) 0.56324(3)
I1_8 I 0.09766(5) 0.096605(11) 0.495380(19)
I2_8 I 0.34940(4) 0.055327(12) 0.57667(2)
C1_8 C 0.0847(5) 0.14139(13) 0.7486(3)
C2_8 C 0.0472(5) 0.18484(13) 0.7824(3)
C3_8 C 0.0830(5) 0.14556(13) 0.8273(3)
C4_8 C 0.0985(5) 0.12402(12) 0.7046(2)
C5_8 C 0.1252(5) 0.09473(13) 0.7068(3)
H1_8 H 0.1329 0.0853 0.7363
C6_8 C 0.1402(5) 0.07968(14) 0.6660(3)
H2_8 H 0.1580 0.0596 0.6680
C7_8 C 0.1037(5) 0.11983(13) 0.6213(3)
H3_8 H 0.0956 0.1285 0.5911
C8_8 C 0.0866(5) 0.13670(13) 0.6605(3)
H4_8 H 0.0670 0.1566 0.6576
C9_8 C 0.0132(4) 0.21569(13) 0.7771(3)
C10_8 C 0.0181(5) 0.22957(13) 0.7345(3)
H5_8 H 0.0479 0.2201 0.7084
C14_8 C 0.0931(5) 0.13164(14) 0.8741(3)
C15_8 C 0.0927(6) 0.14856(17) 0.9150(3)
H9_8 H 0.0845 0.1692 0.9135
C16_8 C 0.1043(6) 0.13470(17) 0.9575(3)
H10_8 H 0.1029 0.1463 0.9852
C17_8 C 0.1173(5) 0.08963(16) 0.9223(3)
H11_8 H 0.1265 0.0690 0.9247
C18_8 C 0.1042(5) 0.10202(14) 0.8784(3)
H12_8 H 0.1029 0.0899 0.8512
C25_8 C 0.1256(6) 0.00879(14) 0.5985(3)
H15_8 H 0.1917 0.0100 0.6086
N1_8 N 0.0618(4) 0.17009(10) 0.7422(2)
N2_8 N 0.0588(4) 0.17415(11) 0.8254(2)
N3_8 N 0.0956(4) 0.12833(11) 0.7893(2)
N4_8 N 0.1313(4) 0.09164(11) 0.6239(2)
N6_8 N 0.1174(4) 0.10608(13) 0.9620(2)
N10_8 N 0.0899(4) 0.03017(11) 0.5730(2)
loop_
_geom_bond_atom_site_label_1
_geom_bond_atom_site_label_2
_geom_bond_site_symmetry_1
_geom_bond_site_symmetry_2
Zn5 N12 1_555 1_555
Zn5 I5 1_555 1_555
I2 Zn1 1_555 1_555
I6 Zn5 1_555 1_555
C1 C4 1_555 1_555
C2 C9 1_555 1_555
C3 C14 1_555 1_555
C4 C5 1_555 1_555
C5 H1 1_555 1_555
C6 C5 1_555 1_555
H2 C6 1_555 1_555
C7 H3 1_555 1_555
C8 C4 1_555 1_555
H4 C8 1_555 1_555
C9 C10 1_555 1_555
C10 H5 1_555 1_555
C14 C15 1_555 1_555
C15 H9 1_555 1_555
C16 C15 1_555 1_555
H10 C16 1_555 1_555
C17 H11 1_555 1_555
C18 C14 1_555 1_555
H12 C18 1_555 1_555
C25 H15 1_555 1_555
H16 C26 1_555 1_555
C28 H17 1_555 1_555
C29 C28 1_555 1_555
H18 C29 1_555 1_555
N1 C1 1_555 1_555
N2 C2 1_555 1_555
N3 C1 1_555 1_555
N4 Zn1 1_555 1_555
N6 Zn5 1_555 1_555
N10 Zn1 1_555 1_555
N11 C29 1_555 1_555
Zn4 N11 1_555 1_555
C2 N1 1_555 1_555
C3 N2 1_555 1_555
C3 N3 1_555 1_555
C6 N4 1_555 1_555
C7 C8 1_555 1_555
C7 N4 1_555 1_555
C16 N6 1_555 1_555
C17 C18 1_555 1_555
C17 N6 1_555 1_555
C25 C26 1_555 1_555
C25 N10 1_555 1_555
Zn4 I3 1_555 1_555
I4 Zn4 1_555 1_555
H6 C11 1_555 1_555
C12 H7 1_555 1_555
H8 C13 1_555 1_555
C23 H13 1_555 1_555
C24 C23 1_555 1_555
H14 C24 1_555 1_555
N5 Zn4 1_555 1_555
C11 N5 1_555 1_555
C12 C13 1_555 1_555
C12 N5 1_555 1_555
Zn3 I5_2 1_555 1_555
I6_2 Zn3 1_555 1_555
N14 Zn3 1_555 1_555
Zn2 I3_2 1_555 1_555
I4_2 Zn2 1_555 1_555
H6_2 C11_2 1_555 1_555
C12_2 H7_2 1_555 1_555
H8_2 C13_2 1_555 1_555
C19 C22 1_555 1_555
C20 C27 1_555 1_555
C21 C32 1_555 1_555
C22 C23_2 1_555 1_555
C23_2 H13_2 1_555 1_555
C24_2 C23_2 1_555 1_555
H14_2 C24_2 1_555 1_555
C30 H19 1_555 1_555
C31 C27 1_555 1_555
H20 C31 1_555 1_555
C32 C33 1_555 1_555
C33 H21 1_555 1_555
C34 C33 1_555 1_555
H22_2 C34 1_555 1_555
C35 H23 1_555 1_555
C36 C32 1_555 1_555
H24 C36 1_555 1_555
N5_2 Zn2 1_555 1_555
N7 C19 1_555 1_555
N8 C20 1_555 1_555
N9 C19 1_555 1_555
N14 C34 1_555 1_555
N13 Zn2 1_555 1_555
C11_2 N5_2 1_555 1_555
C12_2 C13_2 1_555 1_555
C12_2 N5_2 1_555 1_555
C20 N7 1_555 1_555
C21 N8 1_555 1_555
C21 N9 1_555 1_555
C30 C31 1_555 1_555
C35 C36 1_555 1_555
C35 N14 1_555 1_555
H16_2 C26_2 1_555 1_555
C28_2 H17_2 1_555 1_555
C29_2 C28_2 1_555 1_555
H18_2 C29_2 1_555 1_555
N13 C29_2 1_555 1_555
Zn1_2 I1 1_555 1_555
Zn2_2 I3_3 1_555 1_555
I2_2 Zn1_2 1_555 1_555
I4_3 Zn2_2 1_555 1_555
C1_2 C4_2 1_555 1_555
C2_2 C9_2 1_555 1_555
C3_2 C14_2 1_555 1_555
C4_2 C5_2 1_555 1_555
C5_2 H1_2 1_555 1_555
C6_2 C5_2 1_555 1_555
H2_2 C6_2 1_555 1_555
C7_2 H3_2 1_555 1_555
C8_2 C4_2 1_555 1_555
H4_2 C8_2 1_555 1_555
C9_2 C10_2 1_555 1_555
C10_2 H5_2 1_555 1_555
C11_3 C10_2 1_555 1_555
H6_3 C11_3 1_555 1_555
C12_3 H7_3 1_555 1_555
C13_3 C9_2 1_555 1_555
H8_3 C13_3 1_555 1_555
C14_2 C15_2 1_555 1_555
C15_2 H9_2 1_555 1_555
C16_2 C15_2 1_555 1_555
H10_2 C16_2 1_555 1_555
C17_2 H11_2 1_555 1_555
C18_2 C14_2 1_555 1_555
H12_2 C18_2 1_555 1_555
C19_2 C22_2 1_555 1_555
C20_2 C27_2 1_555 1_555
C21_2 C32_2 1_555 1_555
C22_2 C23_3 1_555 1_555
C23_3 H13_3 1_555 1_555
C24_3 C23_3 1_555 1_555
H14_3 C24_3 1_555 1_555
C25_2 H15_2 1_555 1_555
C26_3 C22_2 1_555 1_555
H16_3 C26_3 1_555 1_555
C27_2 C28_3 1_555 1_555
C28_3 H17_3 1_555 1_555
C29_3 C28_3 1_555 1_555
H18_3 C29_3 1_555 1_555
C30_2 H19_2 1_555 1_555
C31_2 C27_2 1_555 1_555
H20_2 C31_2 1_555 1_555
C32_2 C33_2 1_555 1_555
C33_2 H21_2 1_555 1_555
C34_2 C33_2 1_555 1_555
C35_2 H23_2 1_555 1_555
C36_2 C32_2 1_555 1_555
H24_2 C36_2 1_555 1_555
N1_2 C1_2 1_555 1_555
N2_2 C2_2 1_555 1_555
N3_2 C1_2 1_555 1_555
N4_2 Zn1_2 1_555 1_555
N5_3 Zn2_2 1_555 1_555
N7_2 C19_2 1_555 1_555
N8_2 C20_2 1_555 1_555
N9_2 C19_2 1_555 1_555
N10_2 Zn1_2 1_555 1_555
N11_2 C29_3 1_555 1_555
Zn4_2 N11_2 1_555 1_555
N13_2 Zn2_2 1_555 1_555
C2_2 N1_2 1_555 1_555
C3_2 N2_2 1_555 1_555
C3_2 N3_2 1_555 1_555
C6_2 N4_2 1_555 1_555
C7_2 C8_2 1_555 1_555
C7_2 N4_2 1_555 1_555
C11_3 N5_3 1_555 1_555
C12_3 C13_3 1_555 1_555
C12_3 N5_3 1_555 1_555
C16_2 N6_2 1_555 1_555
C17_2 C18_2 1_555 1_555
C17_2 N6_2 1_555 1_555
C20_2 N7_2 1_555 1_555
C21_2 N8_2 1_555 1_555
C21_2 N9_2 1_555 1_555
C24_3 N10_2 1_555 1_555
C25_2 C26_3 1_555 1_555
C25_2 N10_2 1_555 1_555
C30_2 C31_2 1_555 1_555
C30_2 N11_2 1_555 1_555
C35_2 C36_2 1_555 1_555
Zn4_2 I3_4 1_555 1_555
Zn3_2 I5_3 1_555 1_555
I2_3 Zn1_3 1_555 1_555
I4_4 Zn4_2 1_555 1_555
I6_3 Zn3_2 1_555 1_555
C1_3 C4_3 1_555 1_555
C2_3 C9_3 1_555 1_555
C3_3 C14_3 1_555 1_555
C4_3 C5_3 1_555 1_555
C5_3 H1_3 1_555 1_555
C6_3 C5_3 1_555 1_555
H2_3 C6_3 1_555 1_555
C7_3 H3_3 1_555 1_555
C8_3 C4_3 1_555 1_555
H4_3 C8_3 1_555 1_555
C9_3 C10_3 1_555 1_555
C10_3 H5_3 1_555 1_555
C11_4 C10_3 1_555 1_555
H6_4 C11_4 1_555 1_555
C12_4 H7_4 1_555 1_555
C13_4 C9_3 1_555 1_555
H8_4 C13_4 1_555 1_555
C14_3 C15_3 1_555 1_555
C15_3 H9_3 1_555 1_555
C16_3 C15_3 1_555 1_555
H10_3 C16_3 1_555 1_555
C17_3 H11_3 1_555 1_555
C18_3 C14_3 1_555 1_555
H12_3 C18_3 1_555 1_555
C23_4 H13_4 1_555 1_555
C24_4 C23_4 1_555 1_555
H14_4 C24_4 1_555 1_555
C25_3 H15_3 1_555 1_555
N1_3 C1_3 1_555 1_555
N2_3 C2_3 1_555 1_555
N3_3 C1_3 1_555 1_555
N4_3 Zn1_3 1_555 1_555
N5_4 Zn4_2 1_555 1_555
N6_3 Zn3_2 1_555 1_555
N10_3 Zn1_3 1_555 1_555
N14_2 Zn3_2 1_555 1_555
C2_3 N1_3 1_555 1_555
C3_3 N2_3 1_555 1_555
C3_3 N3_3 1_555 1_555
C6_3 N4_3 1_555 1_555
C7_3 C8_3 1_555 1_555
C7_3 N4_3 1_555 1_555
C11_4 N5_4 1_555 1_555
C12_4 C13_4 1_555 1_555
C12_4 N5_4 1_555 1_555
C16_3 N6_3 1_555 1_555
C17_3 C18_3 1_555 1_555
C17_3 N6_3 1_555 1_555
C24_4 N10_3 1_555 1_555
C25_3 N10_3 1_555 1_555
C19_3 C22_3 1_555 1_555
C20_3 C27_3 1_555 1_555
C21_3 C32_3 1_555 1_555
C26_4 C22_3 1_555 1_555
H16_4 C26_4 1_555 1_555
C27_3 C28_4 1_555 1_555
C28_4 H17_4 1_555 1_555
C29_4 C28_4 1_555 1_555
H18_4 C29_4 1_555 1_555
C30_3 H19_3 1_555 1_555
C31_3 C27_3 1_555 1_555
H20_3 C31_3 1_555 1_555
C32_3 C33_3 1_555 1_555
C33_3 H21_3 1_555 1_555
C34_3 C33_3 1_555 1_555
C35_3 H23_3 1_555 1_555
C36_3 C32_3 1_555 1_555
H24_3 C36_3 1_555 1_555
N7_3 C19_3 1_555 1_555
N8_3 C20_3 1_555 1_555
N9_3 C19_3 1_555 1_555
N13_2 C29_4 1_555 1_555
C20_3 N7_3 1_555 1_555
C21_3 N8_3 1_555 1_555
C21_3 N9_3 1_555 1_555
C30_3 C31_3 1_555 1_555
C30_3 N13_2 1_555 1_555
C35_3 C36_3 1_555 1_555
C19_4 C22_4 1_555 1_555
C20_4 C27_4 1_555 1_555
C21_4 C32_4 1_555 1_555
C30_4 H19_4 1_555 1_555
C31_4 C27_4 1_555 1_555
H20_4 C31_4 1_555 1_555
C32_4 C33_4 1_555 1_555
C33_4 H21_4 1_555 1_555
C34_4 C33_4 1_555 1_555
H22_3 C34_4 1_555 1_555
C35_4 H23_4 1_555 1_555
C36_4 C32_4 1_555 1_555
H24_4 C36_4 1_555 1_555
N7_4 C19_4 1_555 1_555
N8_4 C20_4 1_555 1_555
N9_4 C19_4 1_555 1_555
N14_2 C34_4 1_555 1_555
C20_4 N7_4 1_555 1_555
C21_4 N8_4 1_555 1_555
C21_4 N9_4 1_555 1_555
C30_4 C31_4 1_555 1_555
C35_4 C36_4 1_555 1_555
C35_4 N14_2 1_555 1_555
Zn5_2 N12_2 1_555 1_555
Zn5_2 I5_4 1_555 1_555
I6_4 Zn5_2 1_555 1_555
Zn1_4 I1_4 1_555 1_555
I2_4 Zn1_4 1_555 1_555
C1_4 C4_4 1_555 1_555
C2_4 C9_4 1_555 1_555
C3_4 C14_4 1_555 1_555
C4_4 C5_4 1_555 1_555
C5_4 H1_4 1_555 1_555
C6_4 C5_4 1_555 1_555
H2_4 C6_4 1_555 1_555
C7_4 H3_4 1_555 1_555
C8_4 C4_4 1_555 1_555
H4_4 C8_4 1_555 1_555
C9_4 C10_4 1_555 1_555
C10_4 H5_4 1_555 1_555
C14_4 C15_4 1_555 1_555
C15_4 H9_4 1_555 1_555
C16_4 C15_4 1_555 1_555
H10_4 C16_4 1_555 1_555
C17_4 H11_4 1_555 1_555
C18_4 C14_4 1_555 1_555
H12_4 C18_4 1_555 1_555
C25_4 H15_4 1_555 1_555
N1_4 C1_4 1_555 1_555
N2_4 C2_4 1_555 1_555
N3_4 C1_4 1_555 1_555
N4_4 Zn1_4 1_555 1_555
N10_4 Zn1_4 1_555 1_555
C2_4 N1_4 1_555 1_555
C3_4 N2_4 1_555 1_555
C3_4 N3_4 1_555 1_555
C6_4 N4_4 1_555 1_555
C7_4 C8_4 1_555 1_555
C7_4 N4_4 1_555 1_555
C16_4 N6_4 1_555 1_555
C17_4 C18_4 1_555 1_555
C17_4 N6_4 1_555 1_555
C25_4 N10_4 1_555 1_555
Zn1_5 I1_5 1_555 1_555
Zn2_3 I3_5 1_555 1_555
I2_5 Zn1_5 1_555 1_555
I4_5 Zn2_3 1_555 1_555
C1_5 C4_5 1_555 1_555
C2_5 C9_5 1_555 1_555
C3_5 C14_5 1_555 1_555
C4_5 C5_5 1_555 1_555
C5_5 H1_5 1_555 1_555
C6_5 C5_5 1_555 1_555
H2_5 C6_5 1_555 1_555
C7_5 H3_5 1_555 1_555
C8_5 C4_5 1_555 1_555
H4_5 C8_5 1_555 1_555
C9_5 C10_5 1_555 1_555
C10_5 H5_5 1_555 1_555
C11_5 C10_5 1_555 1_555
H6_5 C11_5 1_555 1_555
C12_5 H7_5 1_555 1_555
C13_5 C9_5 1_555 1_555
H8_5 C13_5 1_555 1_555
C14_5 C15_5 1_555 1_555
C15_5 H9_5 1_555 1_555
C16_5 C15_5 1_555 1_555
H10_5 C16_5 1_555 1_555
C17_5 H11_5 1_555 1_555
C18_5 C14_5 1_555 1_555
H12_5 C18_5 1_555 1_555
C19_5 C22_5 1_555 1_555
C20_5 C27_5 1_555 1_555
C21_5 C32_5 1_555 1_555
C22_5 C23_5 1_555 1_555
C23_5 H13_5 1_555 1_555
C24_5 C23_5 1_555 1_555
H14_5 C24_5 1_555 1_555
C25_5 H15_5 1_555 1_555
C26_5 C22_5 1_555 1_555
H16_5 C26_5 1_555 1_555
C27_5 C28_5 1_555 1_555
C28_5 H17_5 1_555 1_555
C29_5 C28_5 1_555 1_555
H18_5 C29_5 1_555 1_555
C30_5 H19_5 1_555 1_555
C31_5 C27_5 1_555 1_555
H20_5 C31_5 1_555 1_555
C32_5 C33_5 1_555 1_555
C33_5 H21_5 1_555 1_555
C34_5 C33_5 1_555 1_555
C35_5 H23_5 1_555 1_555
C36_5 C32_5 1_555 1_555
H24_5 C36_5 1_555 1_555
N1_5 C1_5 1_555 1_555
N2_5 C2_5 1_555 1_555
N3_5 C1_5 1_555 1_555
N4_5 Zn1_5 1_555 1_555
N5_5 Zn2_3 1_555 1_555
N7_5 C19_5 1_555 1_555
N8_5 C20_5 1_555 1_555
N9_5 C19_5 1_555 1_555
N10_5 Zn1_5 1_555 1_555
N11_3 C29_5 1_555 1_555
Zn4_3 N11_3 1_555 1_555
N13_3 Zn2_3 1_555 1_555
C2_5 N1_5 1_555 1_555
C3_5 N2_5 1_555 1_555
C3_5 N3_5 1_555 1_555
C6_5 N4_5 1_555 1_555
C7_5 C8_5 1_555 1_555
C7_5 N4_5 1_555 1_555
C11_5 N5_5 1_555 1_555
C12_5 C13_5 1_555 1_555
C12_5 N5_5 1_555 1_555
C16_5 N6_5 1_555 1_555
C17_5 C18_5 1_555 1_555
C17_5 N6_5 1_555 1_555
C20_5 N7_5 1_555 1_555
C21_5 N8_5 1_555 1_555
C21_5 N9_5 1_555 1_555
C24_5 N10_5 1_555 1_555
C25_5 C26_5 1_555 1_555
C25_5 N10_5 1_555 1_555
C30_5 C31_5 1_555 1_555
C30_5 N11_3 1_555 1_555
C35_5 C36_5 1_555 1_555
C19_6 C22_6 1_555 1_555
C20_6 C27_6 1_555 1_555
C21_6 C32_6 1_555 1_555
C26_6 C22_6 1_555 1_555
H16_6 C26_6 1_555 1_555
C27_6 C28_6 1_555 1_555
C28_6 H17_6 1_555 1_555
C29_6 C28_6 1_555 1_555
H18_6 C29_6 1_555 1_555
C30_6 H19_6 1_555 1_555
C31_6 C27_6 1_555 1_555
H20_6 C31_6 1_555 1_555
C32_6 C33_6 1_555 1_555
C33_6 H21_6 1_555 1_555
C34_6 C33_6 1_555 1_555
C35_6 H23_6 1_555 1_555
C36_6 C32_6 1_555 1_555
H24_6 C36_6 1_555 1_555
N7_6 C19_6 1_555 1_555
N8_6 C20_6 1_555 1_555
N9_6 C19_6 1_555 1_555
N13_3 C29_6 1_555 1_555
C20_6 N7_6 1_555 1_555
C21_6 N8_6 1_555 1_555
C21_6 N9_6 1_555 1_555
C30_6 C31_6 1_555 1_555
C30_6 N13_3 1_555 1_555
C35_6 C36_6 1_555 1_555
Zn4_3 I3_6 1_555 1_555
Zn3_3 I5_5 1_555 1_555
I2_6 Zn1_6 1_555 1_555
I4_6 Zn4_3 1_555 1_555
I6_5 Zn3_3 1_555 1_555
C1_6 C4_6 1_555 1_555
C2_6 C9_6 1_555 1_555
C3_6 C14_6 1_555 1_555
C4_6 C5_6 1_555 1_555
C5_6 H1_6 1_555 1_555
C6_6 C5_6 1_555 1_555
H2_6 C6_6 1_555 1_555
C7_6 H3_6 1_555 1_555
C8_6 C4_6 1_555 1_555
H4_6 C8_6 1_555 1_555
C9_6 C10_6 1_555 1_555
C10_6 H5_6 1_555 1_555
C11_6 C10_6 1_555 1_555
H6_6 C11_6 1_555 1_555
C12_6 H7_6 1_555 1_555
C13_6 C9_6 1_555 1_555
H8_6 C13_6 1_555 1_555
C14_6 C15_6 1_555 1_555
C15_6 H9_6 1_555 1_555
C16_6 C15_6 1_555 1_555
H10_6 C16_6 1_555 1_555
C17_6 H11_6 1_555 1_555
C18_6 C14_6 1_555 1_555
H12_6 C18_6 1_555 1_555
C23_6 H13_6 1_555 1_555
C24_6 C23_6 1_555 1_555
H14_6 C24_6 1_555 1_555
C25_6 H15_6 1_555 1_555
N1_6 C1_6 1_555 1_555
N2_6 C2_6 1_555 1_555
N3_6 C1_6 1_555 1_555
N4_6 Zn1_6 1_555 1_555
N5_6 Zn4_3 1_555 1_555
N6_6 Zn3_3 1_555 1_555
N10_6 Zn1_6 1_555 1_555
N14_3 Zn3_3 1_555 1_555
C2_6 N1_6 1_555 1_555
C3_6 N2_6 1_555 1_555
C3_6 N3_6 1_555 1_555
C6_6 N4_6 1_555 1_555
C7_6 C8_6 1_555 1_555
C7_6 N4_6 1_555 1_555
C11_6 N5_6 1_555 1_555
C12_6 C13_6 1_555 1_555
C12_6 N5_6 1_555 1_555
C16_6 N6_6 1_555 1_555
C17_6 C18_6 1_555 1_555
C17_6 N6_6 1_555 1_555
C24_6 N10_6 1_555 1_555
C25_6 N10_6 1_555 1_555
C19_7 C22_7 1_555 1_555
C20_7 C27_7 1_555 1_555
C21_7 C32_7 1_555 1_555
C30_7 H19_7 1_555 1_555
C31_7 C27_7 1_555 1_555
H20_7 C31_7 1_555 1_555
C32_7 C33_7 1_555 1_555
C33_7 H21_7 1_555 1_555
C34_7 C33_7 1_555 1_555
H22_5 C34_7 1_555 1_555
C35_7 H23_7 1_555 1_555
C36_7 C32_7 1_555 1_555
H24_7 C36_7 1_555 1_555
N7_7 C19_7 1_555 1_555
N8_7 C20_7 1_555 1_555
N9_7 C19_7 1_555 1_555
N14_3 C34_7 1_555 1_555
C20_7 N7_7 1_555 1_555
C21_7 N8_7 1_555 1_555
C21_7 N9_7 1_555 1_555
C30_7 C31_7 1_555 1_555
C35_7 C36_7 1_555 1_555
C35_7 N14_3 1_555 1_555
Zn3_4 I5_6 1_555 1_555
I6_6 Zn3_4 1_555 1_555
N14_4 Zn3_4 1_555 1_555
Zn2_4 I3_7 1_555 1_555
I4_7 Zn2_4 1_555 1_555
H6_7 C11_7 1_555 1_555
C12_7 H7_7 1_555 1_555
H8_7 C13_7 1_555 1_555
C19_8 C22_8 1_555 1_555
C20_8 C27_8 1_555 1_555
C21_8 C32_8 1_555 1_555
C22_8 C23_7 1_555 1_555
C23_7 H13_7 1_555 1_555
C24_7 C23_7 1_555 1_555
H14_7 C24_7 1_555 1_555
C30_8 H19_8 1_555 1_555
C31_8 C27_8 1_555 1_555
H20_8 C31_8 1_555 1_555
C32_8 C33_8 1_555 1_555
C33_8 H21_8 1_555 1_555
C34_8 C33_8 1_555 1_555
H22_6 C34_8 1_555 1_555
C35_8 H23_8 1_555 1_555
C36_8 C32_8 1_555 1_555
H24_8 C36_8 1_555 1_555
N5_7 Zn2_4 1_555 1_555
N7_8 C19_8 1_555 1_555
N8_8 C20_8 1_555 1_555
N9_8 C19_8 1_555 1_555
N14_4 C34_8 1_555 1_555
N13_4 Zn2_4 1_555 1_555
C11_7 N5_7 1_555 1_555
C12_7 C13_7 1_555 1_555
C12_7 N5_7 1_555 1_555
C20_8 N7_8 1_555 1_555
C21_8 N8_8 1_555 1_555
C21_8 N9_8 1_555 1_555
C30_8 C31_8 1_555 1_555
C35_8 C36_8 1_555 1_555
C35_8 N14_4 1_555 1_555
H16_7 C26_7 1_555 1_555
C28_7 H17_7 1_555 1_555
C29_7 C28_7 1_555 1_555
H18_7 C29_7 1_555 1_555
N13_4 C29_7 1_555 1_555
Zn5_3 N12_3 1_555 1_555
Zn5_3 I5_7 1_555 1_555
I2_7 Zn1_7 1_555 1_555
I6_7 Zn5_3 1_555 1_555
C1_7 C4_7 1_555 1_555
C2_7 C9_7 1_555 1_555
C3_7 C14_7 1_555 1_555
C4_7 C5_7 1_555 1_555
C5_7 H1_7 1_555 1_555
C6_7 C5_7 1_555 1_555
H2_7 C6_7 1_555 1_555
C7_7 H3_7 1_555 1_555
C8_7 C4_7 1_555 1_555
H4_7 C8_7 1_555 1_555
C9_7 C10_7 1_555 1_555
C10_7 H5_7 1_555 1_555
C14_7 C15_7 1_555 1_555
C15_7 H9_7 1_555 1_555
C16_7 C15_7 1_555 1_555
H10_7 C16_7 1_555 1_555
C17_7 H11_7 1_555 1_555
C18_7 C14_7 1_555 1_555
H12_7 C18_7 1_555 1_555
C25_7 H15_7 1_555 1_555
H16_8 C26_8 1_555 1_555
C28_8 H17_8 1_555 1_555
C29_8 C28_8 1_555 1_555
H18_8 C29_8 1_555 1_555
N1_7 C1_7 1_555 1_555
N2_7 C2_7 1_555 1_555
N3_7 C1_7 1_555 1_555
N4_7 Zn1_7 1_555 1_555
N6_7 Zn5_3 1_555 1_555
N10_7 Zn1_7 1_555 1_555
N11_4 C29_8 1_555 1_555
Zn4_4 N11_4 1_555 1_555
C2_7 N1_7 1_555 1_555
C3_7 N2_7 1_555 1_555
C3_7 N3_7 1_555 1_555
C6_7 N4_7 1_555 1_555
C7_7 C8_7 1_555 1_555
C7_7 N4_7 1_555 1_555
C16_7 N6_7 1_555 1_555
C17_7 C18_7 1_555 1_555
C17_7 N6_7 1_555 1_555
C25_7 C26_8 1_555 1_555
C25_7 N10_7 1_555 1_555
Zn4_4 I3_8 1_555 1_555
I4_8 Zn4_4 1_555 1_555
H6_8 C11_8 1_555 1_555
C12_8 H7_8 1_555 1_555
H8_8 C13_8 1_555 1_555
C23_8 H13_8 1_555 1_555
C24_8 C23_8 1_555 1_555
H14_8 C24_8 1_555 1_555
N5_8 Zn4_4 1_555 1_555
C11_8 N5_8 1_555 1_555
C12_8 C13_8 1_555 1_555
C12_8 N5_8 1_555 1_555
Zn5_4 N12_4 1_555 1_555
Zn5_4 I5_8 1_555 1_555
I6_8 Zn5_4 1_555 1_555
Zn1_8 I1_8 1_555 1_555
I2_8 Zn1_8 1_555 1_555
C1_8 C4_8 1_555 1_555
C2_8 C9_8 1_555 1_555
C3_8 C14_8 1_555 1_555
C4_8 C5_8 1_555 1_555
C5_8 H1_8 1_555 1_555
C6_8 C5_8 1_555 1_555
H2_8 C6_8 1_555 1_555
C7_8 H3_8 1_555 1_555
C8_8 C4_8 1_555 1_555
H4_8 C8_8 1_555 1_555
C9_8 C10_8 1_555 1_555
C10_8 H5_8 1_555 1_555
C14_8 C15_8 1_555 1_555
C15_8 H9_8 1_555 1_555
C16_8 C15_8 1_555 1_555
H10_8 C16_8 1_555 1_555
C17_8 H11_8 1_555 1_555
C18_8 C14_8 1_555 1_555
H12_8 C18_8 1_555 1_555
C25_8 H15_8 1_555 1_555
N1_8 C1_8 1_555 1_555
N2_8 C2_8 1_555 1_555
N3_8 C1_8 1_555 1_555
N4_8 Zn1_8 1_555 1_555
N10_8 Zn1_8 1_555 1_555
C2_8 N1_8 1_555 1_555
C3_8 N2_8 1_555 1_555
C3_8 N3_8 1_555 1_555
C6_8 N4_8 1_555 1_555
C7_8 C8_8 1_555 1_555
C7_8 N4_8 1_555 1_555
C16_8 N6_8 1_555 1_555
C17_8 C18_8 1_555 1_555
C17_8 N6_8 1_555 1_555
C25_8 N10_8 1_555 1_555

#END
