
###############################################################################
#
# This file contains modified crystal structure data generated from the
# MOF subset of the Cambridge Structural Database (CSD) v543 
# hosted by the Cambridge Crystallographic Data Centre (CCDC).
#
# This work is licensed under the Creative Commons
# Attribution-NonCommercial-ShareAlike 4.0 International License.
# To view a copy of this license, visit
# http://creativecommons.org/licenses/by-nc-sa/4.0/
# or send a letter to
# Creative Commons, PO Box 1866, Mountain View, CA 94042, USA.
#
# CIF created using the CSD Python API on 29 September 2022
# The structure has been converted into the P1 space group
# The structure has a 3D framework
# The original CSD entry SOJDEB is in the orthorhombic crystal system
# The framework has been calculated to contain at least 10.0% void space
# The void calculation uses a probe of radius 1.32A, grid spacing 0.4
# H atom positions have been added when not included in the experimental data
#
###############################################################################

data_SOJDEB
_chemical_formula_moiety         '(C64 H8 Cr8 N40)n'
_symmetry_cell_setting           triclinic
_symmetry_space_group_name_H-M   'P 1'
_symmetry_Int_Tables_number      1
_space_group_name_Hall           'P 1'
loop_
_symmetry_equiv_pos_site_id
_symmetry_equiv_pos_as_xyz
1 x,y,z
_cell_length_a                   11.4787(5)
_cell_length_b                   11.3966(3)
_cell_length_c                   16.8775(7)
_cell_angle_alpha                90
_cell_angle_beta                 90
_cell_angle_gamma                90
_cell_volume                     2207.88
loop_
_atom_site_label
_atom_site_type_symbol
_atom_site_fract_x
_atom_site_fract_y
_atom_site_fract_z
Cr1 Cr 0.5000 -0.0000 0.5000
N1 N 0.4385(3) 0.1546(3) 0.45150(19)
N2 N 0.1623(4) 0.4017(3) 0.4446(2)
N3 N 0.5722(4) 0.2516(3) 0.2495(2)
N4 N 0.4177(3) 0.4667(3) 0.10677(19)
N5 N 0.1496(4) 0.5562(4) 0.2736(2)
C1 C 0.3962(3) 0.2284(3) 0.4152(2)
C2 C 0.2414(4) 0.3658(4) 0.4097(2)
C3 C 0.4875(4) 0.2940(4) 0.2699(2)
C4 C 0.3821(4) 0.4519(4) 0.1689(2)
C5 C 0.2304(4) 0.5002(4) 0.2622(2)
C6 C 0.3402(4) 0.3178(3) 0.3719(2)
C7 C 0.3803(4) 0.3509(3) 0.2967(2)
C8 C 0.3328(4) 0.4333(3) 0.2453(2)
Cr2 Cr 0.0000 0.5000 0.5000
Cr3 Cr 0.5000 0.5000 0.0000
Cr5 Cr 0.0000 0.0000 0.0000
N9 N 0.6623(4) 0.0983(3) 0.5554(2)
N12 N 0.4177(3) 0.0333(3) 0.60677(19)
N14 N 0.3504(4) 0.0562(4) 0.2736(2)
C13 C 0.2696(4) 0.0002(4) 0.2622(2)
H1 H 0.112342 0.00184836 0.270374
H2 H 0.387658 0.501848 0.270374
Cr3_2 Cr 0.5000 0.5000 1.0000
Cr5_2 Cr 0.0000 0.0000 1.0000
Cr1_2 Cr 0.5000 1.0000 0.5000
Cr5_3 Cr 0.0000 1.0000 0.0000
N6 N 0.0615(3) 0.6546(3) 0.45150(19)
N7 N 0.5615(3) 0.8454(3) 0.54850(19)
N8 N 0.3377(4) 0.9017(3) 0.4446(2)
N11 N 0.0823(3) 0.9667(3) 0.10677(19)
N13 N 0.5823(3) 0.9667(3) 0.39323(19)
C9 C 0.1038(3) 0.7284(3) 0.4152(2)
C10 C 0.2586(4) 0.8658(4) 0.4097(2)
C11 C 0.0125(4) 0.7940(4) 0.2699(2)
C12 C 0.1179(4) 0.9519(4) 0.1689(2)
C14 C 0.1598(4) 0.8178(3) 0.3719(2)
C15 C 0.1197(4) 0.8509(3) 0.2967(2)
C16 C 0.1672(4) 0.9333(3) 0.2453(2)
Cr5_4 Cr 0.0000 1.0000 1.0000
Cr2_2 Cr 1.0000 0.5000 0.5000
Cr5_5 Cr 1.0000 0.0000 0.0000
Cr5_6 Cr 1.0000 0.0000 1.0000
Cr5_7 Cr 1.0000 1.0000 0.0000
N10 N 0.9278(4) 0.7516(3) 0.2495(2)
Cr5_8 Cr 1.0000 1.0000 1.0000
N6_2 N 0.4385(3) 0.3454(3) 0.95150(19)
N8_2 N 0.1623(4) 0.0983(3) 0.9446(2)
N10_2 N 0.5722(4) 0.2484(3) 0.7495(2)
C9_2 C 0.3962(3) 0.2716(3) 0.9152(2)
C10_2 C 0.2414(4) 0.1342(4) 0.9097(2)
C11_2 C 0.4875(4) 0.2060(4) 0.7699(2)
C12_2 C 0.3821(4) 0.0481(4) 0.6689(2)
C14_2 C 0.3402(4) 0.1822(3) 0.8719(2)
C15_2 C 0.3803(4) 0.1491(3) 0.7967(2)
C16_2 C 0.3328(4) 0.0667(3) 0.7453(2)
N1_2 N 0.0615(3) 0.8454(3) 0.95150(19)
N2_2 N 0.3377(4) 0.5983(3) 0.9446(2)
N4_2 N 0.0823(3) 0.5333(3) 0.60677(19)
N5_2 N 0.3504(4) 0.4438(4) 0.7736(2)
C1_2 C 0.1038(3) 0.7716(3) 0.9152(2)
C2_2 C 0.2586(4) 0.6342(4) 0.9097(2)
C3_2 C 0.0125(4) 0.7060(4) 0.7699(2)
C4_2 C 0.1179(4) 0.5481(4) 0.6689(2)
C5_2 C 0.2696(4) 0.4998(4) 0.7622(2)
C6_2 C 0.1598(4) 0.6822(3) 0.8719(2)
C7_2 C 0.1197(4) 0.6491(3) 0.7967(2)
C8_2 C 0.1672(4) 0.5667(3) 0.7453(2)
N14_2 N 0.1496(4) 0.9438(4) 0.7736(2)
C13_2 C 0.2304(4) 0.9998(4) 0.7622(2)
H1_2 H 0.387658 0.998152 0.770374
H2_2 H 0.112342 0.498152 0.770374
N7_2 N 0.9385(3) 0.1546(3) 0.04850(19)
N13_2 N 0.9177(3) 0.0333(3) 0.89323(19)
N9_2 N 0.8377(4) 0.9017(3) 0.0554(2)
N3_2 N 0.9278(4) 0.7484(3) 0.7495(2)
N3_3 N 0.0722(4) 0.2484(3) 0.7505(2)
N1_3 N 0.9385(3) 0.3454(3) 0.54850(19)
C1_3 C 0.8962(3) 0.2716(3) 0.5848(2)
C2_3 C 0.7414(4) 0.1342(4) 0.5903(2)
C3_3 C 0.9875(4) 0.2060(4) 0.7301(2)
C4_3 C 0.8821(4) 0.0481(4) 0.8311(2)
C6_3 C 0.8402(4) 0.1822(3) 0.6281(2)
C7_3 C 0.8803(4) 0.1491(3) 0.7033(2)
C8_3 C 0.8328(4) 0.0667(3) 0.7547(2)
N8_3 N 0.8377(4) 0.5983(3) 0.5554(2)
N10_3 N 0.4278(4) 0.7484(3) 0.7505(2)
N11_2 N 0.5823(3) 0.5333(3) 0.89323(19)
N12_2 N 0.9177(3) 0.4667(3) 0.39323(19)
N14_3 N 0.8504(4) 0.4438(4) 0.7264(2)
C9_3 C 0.6038(3) 0.7716(3) 0.5848(2)
C10_3 C 0.7586(4) 0.6342(4) 0.5903(2)
C11_3 C 0.5125(4) 0.7060(4) 0.7301(2)
C12_3 C 0.6179(4) 0.5481(4) 0.8311(2)
C13_3 C 0.7696(4) 0.4998(4) 0.7378(2)
C14_3 C 0.6598(4) 0.6822(3) 0.6281(2)
C15_3 C 0.6197(4) 0.6491(3) 0.7033(2)
C16_3 C 0.6672(4) 0.5667(3) 0.7547(2)
H1_3 H 0.612342 0.498152 0.729626
N5_3 N 0.6496(4) 0.9438(4) 0.7264(2)
C5_3 C 0.7304(4) 0.9998(4) 0.7378(2)
H2_3 H 0.887658 0.998152 0.729626
N10_4 N 0.0722(4) 0.2516(3) 0.2505(2)
N5_4 N 0.8504(4) 0.0562(4) 0.2264(2)
C5_4 C 0.7696(4) 0.0002(4) 0.2378(2)
H2_4 H 0.612342 0.00184836 0.229626
N1_4 N 0.5615(3) 0.6546(3) 0.04850(19)
N3_4 N 0.4278(4) 0.7516(3) 0.2505(2)
C1_4 C 0.6038(3) 0.7284(3) 0.0848(2)
C2_4 C 0.7586(4) 0.8658(4) 0.0903(2)
C3_4 C 0.5125(4) 0.7940(4) 0.2301(2)
C4_4 C 0.6179(4) 0.9519(4) 0.3311(2)
C6_4 C 0.6598(4) 0.8178(3) 0.1281(2)
C7_4 C 0.6197(4) 0.8509(3) 0.2033(2)
C8_4 C 0.6672(4) 0.9333(3) 0.2547(2)
N8_4 N 0.6623(4) 0.4017(3) 0.0554(2)
N14_4 N 0.6496(4) 0.5562(4) 0.2264(2)
C9_4 C 0.8962(3) 0.2284(3) 0.0848(2)
C10_4 C 0.7414(4) 0.3658(4) 0.0903(2)
C11_4 C 0.9875(4) 0.2940(4) 0.2301(2)
C12_4 C 0.8821(4) 0.4519(4) 0.3311(2)
C13_4 C 0.7304(4) 0.5002(4) 0.2378(2)
C14_4 C 0.8402(4) 0.3178(3) 0.1281(2)
C15_4 C 0.8803(4) 0.3509(3) 0.2033(2)
C16_4 C 0.8328(4) 0.4333(3) 0.2547(2)
H1_4 H 0.887658 0.501848 0.229626
loop_
_geom_bond_atom_site_label_1
_geom_bond_atom_site_label_2
_geom_bond_site_symmetry_1
_geom_bond_site_symmetry_2
Cr1 N1 1_555 1_555
N1 C1 1_555 1_555
N2 C2 1_555 1_555
N3 C3 1_555 1_555
N4 C4 1_555 1_555
N5 C5 1_555 1_555
C1 C6 1_555 1_555
C2 C6 1_555 1_555
C3 C7 1_555 1_555
C4 C8 1_555 1_555
C5 C8 1_555 1_555
C6 C7 1_555 1_555
C7 C8 1_555 1_555
Cr2 N2 1_555 1_555
Cr3 N4 1_555 1_555
N9 Cr1 1_555 1_555
N12 Cr1 1_555 1_555
N14 C13 1_555 1_555
C8 H2 1_555 1_555
Cr2 N6 1_555 1_555
Cr5_3 N11 1_555 1_555
N6 C9 1_555 1_555
N7 Cr1_2 1_555 1_555
N8 Cr1_2 1_555 1_555
N11 C12 1_555 1_555
N13 Cr1_2 1_555 1_555
C9 C14 1_555 1_555
C10 N8 1_555 1_555
C11 C15 1_555 1_555
C12 C16 1_555 1_555
C14 C10 1_555 1_555
C15 C14 1_555 1_555
C16 C15 1_555 1_555
Cr3_2 N6_2 1_555 1_555
N6_2 C9_2 1_555 1_555
N8_2 Cr5_2 1_555 1_555
N10_2 C11_2 1_555 1_555
N12 C12_2 1_555 1_555
C9_2 C14_2 1_555 1_555
C10_2 N8_2 1_555 1_555
C11_2 C15_2 1_555 1_555
C12_2 C16_2 1_555 1_555
C14_2 C10_2 1_555 1_555
C15_2 C14_2 1_555 1_555
C16_2 C15_2 1_555 1_555
Cr5_4 N1_2 1_555 1_555
N1_2 C1_2 1_555 1_555
N2_2 C2_2 1_555 1_555
N4_2 C4_2 1_555 1_555
N5_2 C5_2 1_555 1_555
C1_2 C6_2 1_555 1_555
C2_2 C6_2 1_555 1_555
C3_2 C7_2 1_555 1_555
C4_2 C8_2 1_555 1_555
C5_2 C8_2 1_555 1_555
C6_2 C7_2 1_555 1_555
C7_2 C8_2 1_555 1_555
Cr3_2 N2_2 1_555 1_555
Cr2 N4_2 1_555 1_555
N14_2 C13_2 1_555 1_555
C8_2 H2_2 1_555 1_555
N7_2 Cr5_5 1_555 1_555
N13_2 Cr5_6 1_555 1_555
N9_2 Cr5_7 1_555 1_555
Cr2_2 N1_3 1_555 1_555
N1_3 C1_3 1_555 1_555
N9 C2_3 1_555 1_555
N13_2 C4_3 1_555 1_555
C1_3 C6_3 1_555 1_555
C2_3 C6_3 1_555 1_555
C3_3 C7_3 1_555 1_555
C4_3 C8_3 1_555 1_555
C6_3 C7_3 1_555 1_555
C7_3 C8_3 1_555 1_555
Cr3_2 N11_2 1_555 1_555
N7 C9_3 1_555 1_555
N8_3 Cr2_2 1_555 1_555
N10_3 C11_3 1_555 1_555
N11_2 C12_3 1_555 1_555
N12_2 Cr2_2 1_555 1_555
N14_3 C13_3 1_555 1_555
C9_3 C14_3 1_555 1_555
C10_3 N8_3 1_555 1_555
C11_3 C15_3 1_555 1_555
C12_3 C16_3 1_555 1_555
C13_3 C16_3 1_555 1_555
C14_3 C10_3 1_555 1_555
C15_3 C14_3 1_555 1_555
C16_3 C15_3 1_555 1_555
C16_3 H1_3 1_555 1_555
N5_3 C5_3 1_555 1_555
N5_4 C5_4 1_555 1_555
Cr3 N1_4 1_555 1_555
N1_4 C1_4 1_555 1_555
N9_2 C2_4 1_555 1_555
N3_4 C3_4 1_555 1_555
N13 C4_4 1_555 1_555
C1_4 C6_4 1_555 1_555
C2_4 C6_4 1_555 1_555
C3_4 C7_4 1_555 1_555
C4_4 C8_4 1_555 1_555
C6_4 C7_4 1_555 1_555
C7_4 C8_4 1_555 1_555
N7_2 C9_4 1_555 1_555
N8_4 Cr3 1_555 1_555
N12_2 C12_4 1_555 1_555
N14_4 C13_4 1_555 1_555
C9_4 C14_4 1_555 1_555
C10_4 N8_4 1_555 1_555
C11_4 C15_4 1_555 1_555
C12_4 C16_4 1_555 1_555
C13_4 C16_4 1_555 1_555
C14_4 C10_4 1_555 1_555
C15_4 C14_4 1_555 1_555
C16_4 C15_4 1_555 1_555
C16_4 H1_4 1_555 1_555

#END
