
###############################################################################
#
# This file contains modified crystal structure data generated from the
# MOF subset of the Cambridge Structural Database (CSD) v543 
# hosted by the Cambridge Crystallographic Data Centre (CCDC).
#
# This work is licensed under the Creative Commons
# Attribution-NonCommercial-ShareAlike 4.0 International License.
# To view a copy of this license, visit
# http://creativecommons.org/licenses/by-nc-sa/4.0/
# or send a letter to
# Creative Commons, PO Box 1866, Mountain View, CA 94042, USA.
#
# CIF created using the CSD Python API on 29 September 2022
# The structure has been converted into the P1 space group
# The structure has a 3D framework
# The original CSD entry SOJKOT04 is in the hexagonal crystal system
# The original CSD entry SOJKOT04 is in a Sohncke space group
# The framework has been calculated to contain at least 10.0% void space
# The void calculation uses a probe of radius 1.32A, grid spacing 0.4
# The framework is charged, counterions have been retained in the structure
#
###############################################################################

data_SOJKOT04
_chemical_formula_moiety         '(C10 H10 Co2 O12 2-)n'
_symmetry_cell_setting           triclinic
_symmetry_space_group_name_H-M   'P 1'
_symmetry_Int_Tables_number      1
_space_group_name_Hall           'P 1'
loop_
_symmetry_equiv_pos_site_id
_symmetry_equiv_pos_as_xyz
1 x,y,z
_cell_length_a                   7.9157(3)
_cell_length_b                   7.9157(3)
_cell_length_c                   7.4836(3)
_cell_angle_alpha                90
_cell_angle_beta                 90
_cell_angle_gamma                120
_cell_volume                     406.088
loop_
_atom_site_label
_atom_site_type_symbol
_atom_site_fract_x
_atom_site_fract_y
_atom_site_fract_z
O4 O 0.6841(2) 0.1218(3) 0.61523(17)
C2 C 0.5528(3) -0.0001(4) 0.5185(4)
H2 H 0.4354 -0.0000 0.5181
Co4 Co 0.6666 0.3333 0.76906(16)
Co1 Co 0.3333 0.6667 0.26906(16)
O1 O 0.3159(2) 0.4376(2) 0.42257(17)
O2 O 0.4377(2) 0.3159(2) 0.61523(17)
C1 C 0.4471(2) 0.4472(3) 0.5185(4)
H1 H 0.5646 0.5646 0.5181
O3 O 0.5624(2) 0.8783(3) 0.42257(17)
C2_2 C 0.5528(3) 0.9999(4) 0.5185(4)
H2_2 H 0.4354 1.0000 0.5181
O5 O 0.1217(3) 0.6841(2) 0.42257(17)
C3 C 0.0001(4) 0.5529(2) 0.5185(4)
H3 H 0.0000 0.4354 0.5181
O7 O 0.1218(3) 0.4377(2) 0.11523(17)
O8 O 0.5623(2) 0.6841(2) 0.11523(17)
O9 O 0.3159(2) 0.8782(3) 0.11523(17)
O6 O 0.8782(3) 0.5623(2) 0.61523(17)
C3_2 C 1.0001(4) 0.5529(2) 0.5185(4)
H3_2 H 1.0000 0.4354 0.5181
C1_2 C -0.0001(4) 0.4471(2) 0.0185(4)
H1_2 H 0.0000 0.5646 0.0181
C1_3 C 0.9999(4) 0.4471(2) 0.0185(4)
H1_3 H 1.0000 0.5646 0.0181
C2_3 C 0.5529(5) 0.5528(3) 0.0185(4)
H2_3 H 0.4354 0.4354 0.0181
C3_3 C 0.4472(4) 0.0001(4) 0.0185(4)
H3_3 H 0.5646 0.0000 0.0181
O1_2 O 0.8783(3) 0.3159(2) 0.92257(17)
O3_2 O 0.6841(4) 0.5624(2) 0.92257(17)
O5_2 O 0.4376(4) 0.1217(3) 0.92257(17)
C3_4 C 0.4472(4) 1.0001(4) 0.0185(4)
H3_4 H 0.5646 1.0000 0.0181
loop_
_geom_bond_atom_site_label_1
_geom_bond_atom_site_label_2
_geom_bond_site_symmetry_1
_geom_bond_site_symmetry_2
O4 C2 1_555 1_555
H2 C2 1_555 1_555
Co4 O4 1_555 1_555
Co1 O1 1_555 1_555
O1 C1 1_555 1_555
O2 C1 1_555 1_555
C1 H1 1_555 1_555
O3 Co1 1_555 1_555
C2_2 O3 1_555 1_555
H2_2 C2_2 1_555 1_555
O5 Co1 1_555 1_555
C3 O5 1_555 1_555
H3 C3 1_555 1_555
Co4 O2 1_555 1_555
O7 Co1 1_555 1_555
O8 Co1 1_555 1_555
O9 Co1 1_555 1_555
O6 C3_2 1_555 1_555
H3_2 C3_2 1_555 1_555
Co4 O6 1_555 1_555
O7 C1_2 1_555 1_555
C1_2 H1_2 1_555 1_555
C1_3 H1_3 1_555 1_555
O8 C2_3 1_555 1_555
H2_3 C2_3 1_555 1_555
H3_3 C3_3 1_555 1_555
Co4 O1_2 1_555 1_555
O3_2 Co4 1_555 1_555
O5_2 Co4 1_555 1_555
O9 C3_4 1_555 1_555
H3_4 C3_4 1_555 1_555

#END
