
###############################################################################
#
# This file contains modified crystal structure data generated from the
# MOF subset of the Cambridge Structural Database (CSD) v543 
# hosted by the Cambridge Crystallographic Data Centre (CCDC).
#
# This work is licensed under the Creative Commons
# Attribution-NonCommercial-ShareAlike 4.0 International License.
# To view a copy of this license, visit
# http://creativecommons.org/licenses/by-nc-sa/4.0/
# or send a letter to
# Creative Commons, PO Box 1866, Mountain View, CA 94042, USA.
#
# CIF created using the CSD Python API on 29 September 2022
# The structure has been converted into the P1 space group
# The structure has a 3D framework
# The original CSD entry SOJSUH is in the monoclinic crystal system
# The framework has been calculated to contain at least 10.0% void space
# The void calculation uses a probe of radius 1.32A, grid spacing 0.4
# H atom positions have been added when not included in the experimental data
# Generated hydrogen atom positions removed from atoms on special positions
#
###############################################################################

data_SOJSUH
_chemical_formula_moiety         '(C302 H256 Gd8 N8 O88)n'
_symmetry_cell_setting           triclinic
_symmetry_space_group_name_H-M   'P 1'
_symmetry_Int_Tables_number      1
_space_group_name_Hall           'P 1'
loop_
_symmetry_equiv_pos_site_id
_symmetry_equiv_pos_as_xyz
1 x,y,z
_cell_length_a                   31.517(12)
_cell_length_b                   14.882(4)
_cell_length_c                   28.494(8)
_cell_angle_alpha                90
_cell_angle_beta                 120.19(2)
_cell_angle_gamma                90
_cell_volume                     11552
loop_
_atom_site_label
_atom_site_type_symbol
_atom_site_fract_x
_atom_site_fract_y
_atom_site_fract_z
Gd1 Gd 0.267515(8) 0.118113(15) 0.487805(9)
O1 O 0.07431(17) 0.3571(3) 0.3558(2)
H1 H 0.0890 0.4027 0.3560
H2 H 0.2343 0.0142 0.1093
O3 O 0.22859(14) 0.0704(3) 0.30124(16)
H3 H 0.2328 0.1196 0.3160
O6 O 0.25082(15) 0.0729(3) 0.40110(16)
O7 O 0.32533(15) 0.0485(3) 0.46461(16)
O9 O 0.20066(14) 0.2087(3) 0.43746(16)
O10 O 0.16113(13) 0.3353(3) 0.43457(16)
O11 O 0.20344(18) 0.0143(4) 0.4556(2)
C1 C 0.12767(19) 0.2395(4) 0.3577(2)
C2 C 0.1338(2) 0.1724(5) 0.3287(3)
H4 H 0.1621 0.1375 0.3460
C3 C 0.1000(2) 0.1543(5) 0.2751(3)
C4 C 0.0562(2) 0.2064(4) 0.2471(3)
C5 C 0.0474(2) 0.2720(4) 0.2755(2)
C6 C 0.08192(19) 0.2917(4) 0.3278(2)
C7 C -0.0000 0.3256(6) 0.2500
C8 C 0.0232(2) 0.1885(5) 0.1903(3)
C9 C 0.0347(3) 0.1294(6) 0.1640(4)
H7 H 0.0167 0.1267 0.1263
C16 C 0.24455(19) 0.0171(4) 0.2190(2)
H9 H 0.2571 0.0536 0.2004
H10 H 0.2171 0.0493 0.2174
C18 C 0.29512(18) 0.0479(4) 0.41353(19)
C19 C 0.2715(2) 0.0348(4) 0.3146(2)
C21 C 0.30677(17) 0.0285(3) 0.3728(2)
C22 C 0.28412(18) 0.0103(3) 0.27764(19)
C30 C 0.1075(3) 0.0908(7) 0.2428(5)
H17 H 0.1385 0.0647 0.2586
C31 C 0.0775(3) 0.0660(7) 0.1956(5)
H18 H 0.0811 0.0126 0.1810
C32 C 0.16539(18) 0.2607(4) 0.4131(2)
H24 H 0.0005 0.3643 0.2777
H25 H 0.0066 0.2189 0.3279
Gd7 Gd 0.232485(8) 0.381887(15) 0.512195(9)
O24 O 0.24117(13) 0.1323(2) 0.55091(14)
O26 O 0.29678(13) 0.2398(3) 0.45910(15)
O27 O 0.33887(13) 0.1647(3) 0.56543(16)
H44 H 0.193372 0.00555904 0.483181
O2 O 0.25307(14) 0.9743(3) 0.12819(15)
O4 O 0.24117(13) 0.8677(2) 0.05091(14)
O5 O 0.20322(13) 0.7398(3) 0.04090(15)
O8 O 0.29927(18) 0.9882(3) 0.5455(2)
C10 C 0.21110(17) 0.8291(3) 0.11012(19)
C11 C 0.1874(2) 0.7684(4) 0.1256(3)
H8 H 0.1763 0.7145 0.1068
C12 C 0.17958(17) 0.7860(3) 0.16919(18)
C13 C 0.19817(19) 0.8665(4) 0.1993(2)
C14 C 0.22802(17) 0.9132(3) 0.14105(19)
C15 C 0.22447(18) 0.9283(3) 0.18644(19)
C17 C 0.1874(2) 0.8815(4) 0.2405(2)
H11 H 0.1971 0.9348 0.2602
C20 C 0.3515(2) 0.9920(4) 0.3860(3)
H12 H 0.3730 0.9795 0.4225
C23 C 0.33103(19) 0.9762(3) 0.2933(2)
C24 C 0.36728(18) 0.9721(4) 0.3497(2)
C25 C 0.3456(3) 0.9540(5) 0.2551(3)
H13 H 0.3229 0.9592 0.2182
C26 C 0.3925(3) 0.9250(5) 0.2709(3)
H14 H 0.4006 0.9087 0.2449
C27 C 0.1620(2) 0.8161(4) 0.2522(3)
H15 H 0.1560 0.8269 0.2805
C28 C 0.4139(3) 0.9430(6) 0.3623(4)
H16 H 0.4372 0.9392 0.3990
C29 C 0.21977(15) 0.8087(3) 0.06505(18)
C33 C 0.1452(3) 0.7354(4) 0.2233(3)
H19 H 0.1281 0.6929 0.2313
C34 C 0.1552(3) 0.7239(5) 0.1841(3)
H20 H 0.1454 0.6703 0.1649
C35 C 0.4288(3) 0.9200(6) 0.3277(4)
H21 H 0.4609 0.9018 0.3396
C36 C 0.3052(8) 0.9100(15) 0.5259(10)
C37 C 0.2393(9) 0.9081(12) 0.5243(12)
C38 C 0.3043(15) 0.749(2) 0.5382(17)
N1 N 0.2761(8) 0.8464(9) 0.5280(9)
Gd4 Gd 0.232485(8) 0.618113(15) 0.012195(9)
H43 H 0.214568 0.956084 0.448492
H45 H 0.224237 0.945643 0.486446
H46 H 0.210023 0.870723 0.525223
H47 H 0.255829 0.954563 0.558435
H48 H 0.339116 0.751176 0.576311
H49 H 0.281372 0.696004 0.540077
H50 H 0.311048 0.735454 0.504953
H51 H 0.330189 0.899741 0.510453
Gd6 Gd 0.267515(8) 0.881887(15) 0.987805(9)
C7_2 C 1.0000 0.3256(6) 0.2500
H5 H 0.9995 0.3643 0.2223
H6 H 0.9934 0.2189 0.1721
O12 O 0.92569(17) 0.3571(3) 0.1442(2)
H22 H 0.9110 0.4027 0.1440
O13 O 0.79934(14) 0.2087(3) 0.06254(16)
O14 O 0.83887(13) 0.3353(3) 0.06543(16)
C39 C 0.87233(19) 0.2395(4) 0.1423(2)
C40 C 0.8662(2) 0.1724(5) 0.1713(3)
H23 H 0.8379 0.1375 0.1540
C41 C 0.9000(2) 0.1543(5) 0.2249(3)
C42 C 0.9438(2) 0.2064(4) 0.2529(3)
C43 C 0.9526(2) 0.2720(4) 0.2245(2)
C44 C 0.91808(19) 0.2917(4) 0.1722(2)
C45 C 0.9768(2) 0.1885(5) 0.3097(3)
C46 C 0.9653(3) 0.1294(6) 0.3360(4)
H26 H 0.9833 0.1267 0.3737
C47 C 0.8925(3) 0.0908(7) 0.2572(5)
H27 H 0.8615 0.0647 0.2414
C48 C 0.9225(3) 0.0660(7) 0.3044(5)
H28 H 0.9189 0.0126 0.3190
C49 C 0.83461(18) 0.2607(4) 0.0869(2)
Gd2 Gd 0.732485(8) 0.118113(15) 0.012195(9)
H29 H 0.7657 0.0142 0.3907
O16 O 0.77141(14) 0.0704(3) 0.19876(16)
H30 H 0.7672 0.1196 0.1840
O19 O 0.74918(15) 0.0729(3) 0.09890(16)
O20 O 0.67467(15) 0.0485(3) 0.03539(16)
O22 O 0.79656(18) 0.0143(4) 0.0444(2)
C56 C 0.75545(19) 0.0171(4) 0.2810(2)
H32 H 0.7429 0.0536 0.2996
H33 H 0.7829 0.0493 0.2826
C58 C 0.70488(18) 0.0479(4) 0.08647(19)
C59 C 0.7285(2) 0.0348(4) 0.1854(2)
C61 C 0.69323(17) 0.0285(3) 0.1272(2)
C62 C 0.71588(18) 0.0103(3) 0.22236(19)
O25 O 0.70322(13) 0.2398(3) 0.04090(15)
H52 H 0.814423 0.0139713 0.0847132
Gd8 Gd 0.767515(8) 0.381887(15) 0.987805(9)
O23 O 0.75883(13) 0.1323(2) 0.94909(14)
O28 O 0.66113(13) 0.1647(3) 0.93457(16)
O15 O 0.74693(14) 0.9743(3) 0.37181(15)
O17 O 0.75883(13) 0.8677(2) 0.44909(14)
O18 O 0.79678(13) 0.7398(3) 0.45910(15)
C50 C 0.78890(17) 0.8291(3) 0.38988(19)
C51 C 0.8126(2) 0.7684(4) 0.3744(3)
H31 H 0.8237 0.7145 0.3932
C52 C 0.82042(17) 0.7860(3) 0.33081(18)
C53 C 0.80183(19) 0.8665(4) 0.3007(2)
C54 C 0.77198(17) 0.9132(3) 0.35895(19)
C55 C 0.77553(18) 0.9283(3) 0.31356(19)
C57 C 0.8126(2) 0.8815(4) 0.2595(2)
H34 H 0.8029 0.9348 0.2398
C60 C 0.6485(2) 0.9920(4) 0.1140(3)
H35 H 0.6270 0.9795 0.0775
C63 C 0.66897(19) 0.9762(3) 0.2067(2)
C64 C 0.63272(18) 0.9721(4) 0.1503(2)
C65 C 0.6544(3) 0.9540(5) 0.2449(3)
H36 H 0.6771 0.9592 0.2818
C66 C 0.6075(3) 0.9250(5) 0.2291(3)
H37 H 0.5994 0.9087 0.2551
C67 C 0.8380(2) 0.8161(4) 0.2478(3)
H38 H 0.8440 0.8269 0.2195
C68 C 0.5861(3) 0.9430(6) 0.1377(4)
H39 H 0.5628 0.9392 0.1010
C69 C 0.78023(15) 0.8087(3) 0.43495(18)
C70 C 0.8548(3) 0.7354(4) 0.2767(3)
H40 H 0.8719 0.6929 0.2687
C71 C 0.8448(3) 0.7239(5) 0.3159(3)
H41 H 0.8546 0.6703 0.3351
C72 C 0.5712(3) 0.9200(6) 0.1723(4)
H42 H 0.5391 0.9018 0.1604
Gd3 Gd 0.767515(8) 0.618113(15) 0.487805(9)
Gd5 Gd 0.732485(8) 0.881887(15) 0.512195(9)
H53 H 0.783037 0.953499 0.0306407
H58 H 0.775763 0.945643 0.0135536
H52_2 H 0.185577 0.0139713 0.415287
H53_2 H 0.216963 0.953499 0.469359
H44_2 H 0.806628 0.00555904 0.0168188
H43_2 H 0.785432 0.956084 0.0515082
O1_2 O 0.57431(17) 0.8571(3) 0.3558(2)
H1_2 H 0.5890 0.9027 0.3560
O2_2 O 0.75307(14) 0.4743(3) 0.12819(15)
H2_2 H 0.7343 0.5142 0.1093
O3_2 O 0.72859(14) 0.5704(3) 0.30124(16)
H3_2 H 0.7328 0.6196 0.3160
O4_2 O 0.74117(13) 0.3677(2) 0.05091(14)
O6_2 O 0.75082(15) 0.5729(3) 0.40110(16)
O7_2 O 0.82533(15) 0.5485(3) 0.46461(16)
O8_2 O 0.79927(18) 0.4882(3) 0.5455(2)
O9_2 O 0.70066(14) 0.7087(3) 0.43746(16)
O10_2 O 0.66113(13) 0.8353(3) 0.43457(16)
O11_2 O 0.70344(18) 0.5143(4) 0.4556(2)
C1_2 C 0.62767(19) 0.7395(4) 0.3577(2)
C2_2 C 0.6338(2) 0.6724(5) 0.3287(3)
H4_2 H 0.6621 0.6375 0.3460
C3_2 C 0.6000(2) 0.6543(5) 0.2751(3)
C4_2 C 0.5562(2) 0.7064(4) 0.2471(3)
C5_2 C 0.5474(2) 0.7720(4) 0.2755(2)
C6_2 C 0.58192(19) 0.7917(4) 0.3278(2)
C7_3 C 0.5000 0.8256(6) 0.2500
H5_2 H 0.4995 0.8643 0.2223
C8_2 C 0.5232(2) 0.6885(5) 0.1903(3)
H6_2 H 0.4934 0.7189 0.1721
C9_2 C 0.5347(3) 0.6294(6) 0.1640(4)
H7_2 H 0.5167 0.6267 0.1263
C10_2 C 0.71110(17) 0.3291(3) 0.11012(19)
C11_2 C 0.6874(2) 0.2684(4) 0.1256(3)
H8_2 H 0.6763 0.2145 0.1068
C12_2 C 0.67958(17) 0.2860(3) 0.16919(18)
C13_2 C 0.69817(19) 0.3665(4) 0.1993(2)
C14_2 C 0.72802(17) 0.4132(3) 0.14105(19)
C15_2 C 0.72447(18) 0.4283(3) 0.18644(19)
C16_2 C 0.74455(19) 0.5171(4) 0.2190(2)
H9_2 H 0.7571 0.5536 0.2004
H10_2 H 0.7171 0.5493 0.2174
C17_2 C 0.6874(2) 0.3815(4) 0.2405(2)
H11_2 H 0.6971 0.4348 0.2602
C18_2 C 0.79512(18) 0.5479(4) 0.41353(19)
C19_2 C 0.7715(2) 0.5348(4) 0.3146(2)
C20_2 C 0.8515(2) 0.4920(4) 0.3860(3)
H12_2 H 0.8730 0.4795 0.4225
C21_2 C 0.80677(17) 0.5285(3) 0.3728(2)
C22_2 C 0.78412(18) 0.5103(3) 0.27764(19)
C23_2 C 0.83103(19) 0.4762(3) 0.2933(2)
C24_2 C 0.86728(18) 0.4721(4) 0.3497(2)
C25_2 C 0.8456(3) 0.4540(5) 0.2551(3)
H13_2 H 0.8229 0.4592 0.2182
C26_2 C 0.8925(3) 0.4250(5) 0.2709(3)
H14_2 H 0.9006 0.4087 0.2449
C27_2 C 0.6620(2) 0.3161(4) 0.2522(3)
H15_2 H 0.6560 0.3269 0.2805
C28_2 C 0.9139(3) 0.4430(6) 0.3623(4)
H16_2 H 0.9372 0.4392 0.3990
C29_2 C 0.71977(15) 0.3087(3) 0.06505(18)
C30_2 C 0.6075(3) 0.5908(7) 0.2428(5)
H17_2 H 0.6385 0.5647 0.2586
C31_2 C 0.5775(3) 0.5660(7) 0.1956(5)
H18_2 H 0.5811 0.5126 0.1810
C32_2 C 0.66539(18) 0.7607(4) 0.4131(2)
C33_2 C 0.6452(3) 0.2354(4) 0.2233(3)
H19_2 H 0.6281 0.1929 0.2313
C34_2 C 0.6552(3) 0.2239(5) 0.1841(3)
H20_2 H 0.6454 0.1703 0.1649
C35_2 C 0.9288(3) 0.4200(6) 0.3277(4)
H21_2 H 0.9609 0.4018 0.3396
C36_2 C 0.8052(8) 0.4100(15) 0.5259(10)
C37_2 C 0.7393(9) 0.4081(12) 0.5243(12)
C38_2 C 0.8043(15) 0.249(2) 0.5382(17)
N1_2 N 0.7761(8) 0.3464(9) 0.5280(9)
O12_2 O 0.42569(17) 0.8571(3) 0.1442(2)
H22_2 H 0.4110 0.9027 0.1440
O13_2 O 0.29934(14) 0.7087(3) 0.06254(16)
O14_2 O 0.33887(13) 0.8353(3) 0.06543(16)
C39_2 C 0.37233(19) 0.7395(4) 0.1423(2)
C40_2 C 0.3662(2) 0.6724(5) 0.1713(3)
H23_2 H 0.3379 0.6375 0.1540
C41_2 C 0.4000(2) 0.6543(5) 0.2249(3)
C42_2 C 0.4438(2) 0.7064(4) 0.2529(3)
C43_2 C 0.4526(2) 0.7720(4) 0.2245(2)
C44_2 C 0.41808(19) 0.7917(4) 0.1722(2)
H24_2 H 0.5005 0.8643 0.2777
C45_2 C 0.4768(2) 0.6885(5) 0.3097(3)
H25_2 H 0.5066 0.7189 0.3279
C46_2 C 0.4653(3) 0.6294(6) 0.3360(4)
H26_2 H 0.4833 0.6267 0.3737
C47_2 C 0.3925(3) 0.5908(7) 0.2572(5)
H27_2 H 0.3615 0.5647 0.2414
C48_2 C 0.4225(3) 0.5660(7) 0.3044(5)
H28_2 H 0.4189 0.5126 0.3190
C49_2 C 0.33461(18) 0.7607(4) 0.0869(2)
O15_2 O 0.24693(14) 0.4743(3) 0.37181(15)
H29_2 H 0.2657 0.5142 0.3907
O16_2 O 0.27141(14) 0.5704(3) 0.19876(16)
H30_2 H 0.2672 0.6196 0.1840
O17_2 O 0.25883(13) 0.3677(2) 0.44909(14)
O19_2 O 0.24918(15) 0.5729(3) 0.09890(16)
O20_2 O 0.17467(15) 0.5485(3) 0.03539(16)
O22_2 O 0.29656(18) 0.5143(4) 0.0444(2)
C50_2 C 0.28890(17) 0.3291(3) 0.38988(19)
C51_2 C 0.3126(2) 0.2684(4) 0.3744(3)
H31_2 H 0.3237 0.2145 0.3932
C52_2 C 0.32042(17) 0.2860(3) 0.33081(18)
C53_2 C 0.30183(19) 0.3665(4) 0.3007(2)
C54_2 C 0.27198(17) 0.4132(3) 0.35895(19)
C55_2 C 0.27553(18) 0.4283(3) 0.31356(19)
C56_2 C 0.25545(19) 0.5171(4) 0.2810(2)
H32_2 H 0.2429 0.5536 0.2996
H33_2 H 0.2829 0.5493 0.2826
C57_2 C 0.3126(2) 0.3815(4) 0.2595(2)
H34_2 H 0.3029 0.4348 0.2398
C58_2 C 0.20488(18) 0.5479(4) 0.08647(19)
C59_2 C 0.2285(2) 0.5348(4) 0.1854(2)
C60_2 C 0.1485(2) 0.4920(4) 0.1140(3)
H35_2 H 0.1270 0.4795 0.0775
C61_2 C 0.19323(17) 0.5285(3) 0.1272(2)
C62_2 C 0.21588(18) 0.5103(3) 0.22236(19)
C63_2 C 0.16897(19) 0.4762(3) 0.2067(2)
C64_2 C 0.13272(18) 0.4721(4) 0.1503(2)
C65_2 C 0.1544(3) 0.4540(5) 0.2449(3)
H36_2 H 0.1771 0.4592 0.2818
C66_2 C 0.1075(3) 0.4250(5) 0.2291(3)
H37_2 H 0.0994 0.4087 0.2551
C67_2 C 0.3380(2) 0.3161(4) 0.2478(3)
H38_2 H 0.3440 0.3269 0.2195
C68_2 C 0.0861(3) 0.4430(6) 0.1377(4)
H39_2 H 0.0628 0.4392 0.1010
C69_2 C 0.28023(15) 0.3087(3) 0.43495(18)
C70_2 C 0.3548(3) 0.2354(4) 0.2767(3)
H40_2 H 0.3719 0.1929 0.2687
C71_2 C 0.3448(3) 0.2239(5) 0.3159(3)
H41_2 H 0.3546 0.1703 0.3351
C72_2 C 0.0712(3) 0.4200(6) 0.1723(4)
H42_2 H 0.0391 0.4018 0.1604
O24_2 O 0.74117(13) 0.6323(2) 0.55091(14)
O27_2 O 0.83887(13) 0.6647(3) 0.56543(16)
H45_2 H 0.724237 0.445643 0.486446
H46_2 H 0.710023 0.370723 0.525223
H47_2 H 0.755829 0.454563 0.558435
H48_2 H 0.839116 0.251176 0.576311
H49_2 H 0.781372 0.196004 0.540077
H50_2 H 0.811048 0.235454 0.504953
H51_2 H 0.830189 0.399741 0.510453
H58_2 H 0.275763 0.445643 0.0135536
O21 O 0.20073(18) 0.4882(3) 0.9545(2)
C73 C 0.1948(8) 0.4100(15) 0.9741(10)
C74 C 0.2607(9) 0.4081(12) 0.9757(12)
C75 C 0.1957(15) 0.249(2) 0.9618(17)
N2 N 0.2239(8) 0.3464(9) 0.9720(9)
O23_2 O 0.25883(13) 0.6323(2) 0.94909(14)
O28_2 O 0.16113(13) 0.6647(3) 0.93457(16)
H54 H 0.169811 0.399741 0.989547
H55 H 0.160884 0.251176 0.923689
H56 H 0.218628 0.196004 0.959923
H57 H 0.188952 0.235454 0.995047
H59 H 0.289977 0.370723 0.974777
H60 H 0.244171 0.454563 0.941565
O15_3 O 0.25307(14) 0.0257(3) 0.62819(15)
O18_2 O 0.20322(13) 0.2602(3) 0.54090(15)
C50_3 C 0.21110(17) 0.1709(3) 0.61012(19)
C51_3 C 0.1874(2) 0.2316(4) 0.6256(3)
H31_3 H 0.1763 0.2855 0.6068
C52_3 C 0.17958(17) 0.2140(3) 0.66919(18)
C53_3 C 0.19817(19) 0.1335(4) 0.6993(2)
C54_3 C 0.22802(17) 0.0868(3) 0.64105(19)
C55_3 C 0.22447(18) 0.0717(3) 0.68644(19)
C57_3 C 0.1874(2) 0.1185(4) 0.7405(2)
H34_3 H 0.1971 0.0652 0.7602
C60_3 C 0.3515(2) 0.0080(4) 0.8860(3)
H35_3 H 0.3730 0.0205 0.9225
C63_3 C 0.33103(19) 0.0238(3) 0.7933(2)
C64_3 C 0.36728(18) 0.0279(4) 0.8497(2)
C65_3 C 0.3456(3) 0.0460(5) 0.7551(3)
H36_3 H 0.3229 0.0408 0.7182
C66_3 C 0.3925(3) 0.0750(5) 0.7709(3)
H37_3 H 0.4006 0.0913 0.7449
C67_3 C 0.1620(2) 0.1839(4) 0.7522(3)
H38_3 H 0.1560 0.1731 0.7805
C68_3 C 0.4139(3) 0.0570(6) 0.8623(4)
H39_3 H 0.4372 0.0608 0.8990
C69_3 C 0.21977(15) 0.1913(3) 0.56505(18)
C70_3 C 0.1452(3) 0.2646(4) 0.7233(3)
H40_3 H 0.1281 0.3071 0.7313
C71_3 C 0.1552(3) 0.2761(5) 0.6841(3)
H41_3 H 0.1454 0.3297 0.6649
C72_3 C 0.4288(3) 0.0800(6) 0.8277(4)
H42_3 H 0.4609 0.0982 0.8396
H53_3 H 0.216963 0.0465011 0.969359
H58_3 H 0.224237 0.0543574 0.986446
C7_4 C 0.0000 0.6744(6) 0.7500
H5_3 H 0.0005 0.6357 0.7777
H6_3 H 0.0066 0.7811 0.8279
O12_3 O 0.07431(17) 0.6429(3) 0.8558(2)
H22_3 H 0.0890 0.5973 0.8560
O13_3 O 0.20066(14) 0.7913(3) 0.93746(16)
C39_3 C 0.12767(19) 0.7605(4) 0.8577(2)
C40_3 C 0.1338(2) 0.8276(5) 0.8287(3)
H23_3 H 0.1621 0.8625 0.8460
C41_3 C 0.1000(2) 0.8457(5) 0.7751(3)
C42_3 C 0.0562(2) 0.7936(4) 0.7471(3)
C43_3 C 0.0474(2) 0.7280(4) 0.7755(2)
C44_3 C 0.08192(19) 0.7083(4) 0.8278(2)
C45_3 C 0.0232(2) 0.8115(5) 0.6903(3)
C46_3 C 0.0347(3) 0.8706(6) 0.6640(4)
H26_3 H 0.0167 0.8733 0.6263
C47_3 C 0.1075(3) 0.9092(7) 0.7428(5)
H27_3 H 0.1385 0.9353 0.7586
C48_3 C 0.0775(3) 0.9340(7) 0.6956(5)
H28_3 H 0.0811 0.9874 0.6810
C49_3 C 0.16539(18) 0.7393(4) 0.9131(2)
H29_3 H 0.2343 0.9858 0.6093
O16_3 O 0.22859(14) 0.9296(3) 0.80124(16)
H30_3 H 0.2328 0.8804 0.8160
O19_3 O 0.25082(15) 0.9271(3) 0.90110(16)
O20_3 O 0.32533(15) 0.9515(3) 0.96461(16)
O22_3 O 0.20344(18) 0.9857(4) 0.9556(2)
C56_3 C 0.24455(19) 0.9829(4) 0.7190(2)
H32_3 H 0.2571 0.9464 0.7004
H33_3 H 0.2171 0.9507 0.7174
C58_3 C 0.29512(18) 0.9521(4) 0.91353(19)
C59_3 C 0.2715(2) 0.9652(4) 0.8146(2)
C61_3 C 0.30677(17) 0.9715(3) 0.8728(2)
C62_3 C 0.28412(18) 0.9897(3) 0.77764(19)
O25_2 O 0.29678(13) 0.7602(3) 0.95910(15)
H52_3 H 0.185577 0.986029 0.915287
O2_3 O 0.74693(14) 0.0257(3) 0.87181(15)
O5_2 O 0.79678(13) 0.2602(3) 0.95910(15)
O8_3 O 0.70073(18) 0.0118(3) 0.4545(2)
C10_3 C 0.78890(17) 0.1709(3) 0.88988(19)
C11_3 C 0.8126(2) 0.2316(4) 0.8744(3)
H8_3 H 0.8237 0.2855 0.8932
C12_3 C 0.82042(17) 0.2140(3) 0.83081(18)
C13_3 C 0.80183(19) 0.1335(4) 0.8007(2)
C14_3 C 0.77198(17) 0.0868(3) 0.85895(19)
C15_3 C 0.77553(18) 0.0717(3) 0.81356(19)
C17_3 C 0.8126(2) 0.1185(4) 0.7595(2)
H11_3 H 0.8029 0.0652 0.7398
C20_3 C 0.6485(2) 0.0080(4) 0.6140(3)
H12_3 H 0.6270 0.0205 0.5775
C23_3 C 0.66897(19) 0.0238(3) 0.7067(2)
C24_3 C 0.63272(18) 0.0279(4) 0.6503(2)
C25_3 C 0.6544(3) 0.0460(5) 0.7449(3)
H13_3 H 0.6771 0.0408 0.7818
C26_3 C 0.6075(3) 0.0750(5) 0.7291(3)
H14_3 H 0.5994 0.0913 0.7551
C27_3 C 0.8380(2) 0.1839(4) 0.7478(3)
H15_3 H 0.8440 0.1731 0.7195
C28_3 C 0.5861(3) 0.0570(6) 0.6377(4)
H16_3 H 0.5628 0.0608 0.6010
C29_3 C 0.78023(15) 0.1913(3) 0.93495(18)
C33_3 C 0.8548(3) 0.2646(4) 0.7767(3)
H19_3 H 0.8719 0.3071 0.7687
C34_3 C 0.8448(3) 0.2761(5) 0.8159(3)
H20_3 H 0.8546 0.3297 0.8351
C35_3 C 0.5712(3) 0.0800(6) 0.6723(4)
H21_3 H 0.5391 0.0982 0.6604
C36_3 C 0.6948(8) 0.0900(15) 0.4741(10)
C37_3 C 0.7607(9) 0.0919(12) 0.4757(12)
C38_3 C 0.6957(15) 0.251(2) 0.4618(17)
N1_3 N 0.7239(8) 0.1536(9) 0.4720(9)
H43_3 H 0.785432 0.0439156 0.551508
H45_3 H 0.775763 0.0543574 0.513554
H46_3 H 0.789977 0.129277 0.474777
H47_3 H 0.744171 0.0454368 0.441565
H48_3 H 0.660884 0.248824 0.423689
H49_3 H 0.718628 0.303996 0.459923
H50_3 H 0.688952 0.264546 0.495047
H51_3 H 0.669811 0.100259 0.489547
O1_3 O 0.92569(17) 0.6429(3) 0.6442(2)
H1_3 H 0.9110 0.5973 0.6440
H2_3 H 0.7657 0.9858 0.8907
O3_3 O 0.77141(14) 0.9296(3) 0.69876(16)
H3_3 H 0.7672 0.8804 0.6840
O6_3 O 0.74918(15) 0.9271(3) 0.59890(16)
O7_3 O 0.67467(15) 0.9515(3) 0.53539(16)
O9_3 O 0.79934(14) 0.7913(3) 0.56254(16)
O11_3 O 0.79656(18) 0.9857(4) 0.5444(2)
C1_3 C 0.87233(19) 0.7605(4) 0.6423(2)
C2_3 C 0.8662(2) 0.8276(5) 0.6713(3)
H4_3 H 0.8379 0.8625 0.6540
C3_3 C 0.9000(2) 0.8457(5) 0.7249(3)
C4_3 C 0.9438(2) 0.7936(4) 0.7529(3)
C5_3 C 0.9526(2) 0.7280(4) 0.7245(2)
C6_3 C 0.91808(19) 0.7083(4) 0.6722(2)
C7_5 C 1.0000 0.6744(6) 0.7500
C8_3 C 0.9768(2) 0.8115(5) 0.8097(3)
C9_3 C 0.9653(3) 0.8706(6) 0.8360(4)
H7_3 H 0.9833 0.8733 0.8737
C16_3 C 0.75545(19) 0.9829(4) 0.7810(2)
H9_3 H 0.7429 0.9464 0.7996
H10_3 H 0.7829 0.9507 0.7826
C18_3 C 0.70488(18) 0.9521(4) 0.58647(19)
C19_3 C 0.7285(2) 0.9652(4) 0.6854(2)
C21_3 C 0.69323(17) 0.9715(3) 0.6272(2)
C22_3 C 0.71588(18) 0.9897(3) 0.72236(19)
C30_3 C 0.8925(3) 0.9092(7) 0.7572(5)
H17_3 H 0.8615 0.9353 0.7414
C31_3 C 0.9225(3) 0.9340(7) 0.8044(5)
H18_3 H 0.9189 0.9874 0.8190
C32_3 C 0.83461(18) 0.7393(4) 0.5869(2)
H24_3 H 0.9995 0.6357 0.7223
H25_3 H 0.9934 0.7811 0.6721
O26_2 O 0.70322(13) 0.7602(3) 0.54090(15)
H44_3 H 0.806628 0.994441 0.516819
H43_4 H 0.214568 0.0439156 0.948492
H44_4 H 0.193372 0.994441 0.983181
H53_4 H 0.783037 0.0465011 0.530641
H52_4 H 0.814423 0.986029 0.584713
O21_2 O 0.79927(18) 0.5118(3) 0.0455(2)
C73_2 C 0.8052(8) 0.5900(15) 0.0259(10)
C74_2 C 0.7393(9) 0.5919(12) 0.0243(12)
C75_2 C 0.8043(15) 0.751(2) 0.0382(17)
N2_2 N 0.7761(8) 0.6536(9) 0.0280(9)
H54_2 H 0.830189 0.600259 0.0104531
H55_2 H 0.839116 0.748824 0.0763107
H56_2 H 0.781372 0.803996 0.0400765
H57_2 H 0.811048 0.764546 0.00495323
H59_2 H 0.710023 0.629277 0.0252229
H60_2 H 0.755829 0.545437 0.0584345
O1_4 O 0.42569(17) 0.1429(3) 0.6442(2)
H1_4 H 0.4110 0.0973 0.6440
O2_4 O 0.24693(14) 0.5257(3) 0.87181(15)
H2_4 H 0.2657 0.4858 0.8907
O3_4 O 0.27141(14) 0.4296(3) 0.69876(16)
H3_4 H 0.2672 0.3804 0.6840
O6_4 O 0.24918(15) 0.4271(3) 0.59890(16)
O7_4 O 0.17467(15) 0.4515(3) 0.53539(16)
O8_4 O 0.20073(18) 0.5118(3) 0.4545(2)
O9_4 O 0.29934(14) 0.2913(3) 0.56254(16)
O11_4 O 0.29656(18) 0.4857(4) 0.5444(2)
C1_4 C 0.37233(19) 0.2605(4) 0.6423(2)
C2_4 C 0.3662(2) 0.3276(5) 0.6713(3)
H4_4 H 0.3379 0.3625 0.6540
C3_4 C 0.4000(2) 0.3457(5) 0.7249(3)
C4_4 C 0.4438(2) 0.2936(4) 0.7529(3)
C5_4 C 0.4526(2) 0.2280(4) 0.7245(2)
C6_4 C 0.41808(19) 0.2083(4) 0.6722(2)
C7_6 C 0.5000 0.1744(6) 0.7500
H5_4 H 0.5005 0.1357 0.7777
C8_4 C 0.4768(2) 0.3115(5) 0.8097(3)
H6_4 H 0.5066 0.2811 0.8279
C9_4 C 0.4653(3) 0.3706(6) 0.8360(4)
H7_4 H 0.4833 0.3733 0.8737
C10_4 C 0.28890(17) 0.6709(3) 0.88988(19)
C11_4 C 0.3126(2) 0.7316(4) 0.8744(3)
H8_4 H 0.3237 0.7855 0.8932
C12_4 C 0.32042(17) 0.7140(3) 0.83081(18)
C13_4 C 0.30183(19) 0.6335(4) 0.8007(2)
C14_4 C 0.27198(17) 0.5868(3) 0.85895(19)
C15_4 C 0.27553(18) 0.5717(3) 0.81356(19)
C16_4 C 0.25545(19) 0.4829(4) 0.7810(2)
H9_4 H 0.2429 0.4464 0.7996
H10_4 H 0.2829 0.4507 0.7826
C17_4 C 0.3126(2) 0.6185(4) 0.7595(2)
H11_4 H 0.3029 0.5652 0.7398
C18_4 C 0.20488(18) 0.4521(4) 0.58647(19)
C19_4 C 0.2285(2) 0.4652(4) 0.6854(2)
C20_4 C 0.1485(2) 0.5080(4) 0.6140(3)
H12_4 H 0.1270 0.5205 0.5775
C21_4 C 0.19323(17) 0.4715(3) 0.6272(2)
C22_4 C 0.21588(18) 0.4897(3) 0.72236(19)
C23_4 C 0.16897(19) 0.5238(3) 0.7067(2)
C24_4 C 0.13272(18) 0.5279(4) 0.6503(2)
C25_4 C 0.1544(3) 0.5460(5) 0.7449(3)
H13_4 H 0.1771 0.5408 0.7818
C26_4 C 0.1075(3) 0.5750(5) 0.7291(3)
H14_4 H 0.0994 0.5913 0.7551
C27_4 C 0.3380(2) 0.6839(4) 0.7478(3)
H15_4 H 0.3440 0.6731 0.7195
C28_4 C 0.0861(3) 0.5570(6) 0.6377(4)
H16_4 H 0.0628 0.5608 0.6010
C29_4 C 0.28023(15) 0.6913(3) 0.93495(18)
C30_4 C 0.3925(3) 0.4092(7) 0.7572(5)
H17_4 H 0.3615 0.4353 0.7414
C31_4 C 0.4225(3) 0.4340(7) 0.8044(5)
H18_4 H 0.4189 0.4874 0.8190
C32_4 C 0.33461(18) 0.2393(4) 0.5869(2)
C33_4 C 0.3548(3) 0.7646(4) 0.7767(3)
H19_4 H 0.3719 0.8071 0.7687
C34_4 C 0.3448(3) 0.7761(5) 0.8159(3)
H20_4 H 0.3546 0.8297 0.8351
C35_4 C 0.0712(3) 0.5800(6) 0.6723(4)
H21_4 H 0.0391 0.5982 0.6604
C36_4 C 0.1948(8) 0.5900(15) 0.4741(10)
C37_4 C 0.2607(9) 0.5919(12) 0.4757(12)
C38_4 C 0.1957(15) 0.751(2) 0.4618(17)
N1_4 N 0.2239(8) 0.6536(9) 0.4720(9)
O12_4 O 0.57431(17) 0.1429(3) 0.8558(2)
H22_4 H 0.5890 0.0973 0.8560
O13_4 O 0.70066(14) 0.2913(3) 0.93746(16)
C39_4 C 0.62767(19) 0.2605(4) 0.8577(2)
C40_4 C 0.6338(2) 0.3276(5) 0.8287(3)
H23_4 H 0.6621 0.3625 0.8460
C41_4 C 0.6000(2) 0.3457(5) 0.7751(3)
C42_4 C 0.5562(2) 0.2936(4) 0.7471(3)
C43_4 C 0.5474(2) 0.2280(4) 0.7755(2)
C44_4 C 0.58192(19) 0.2083(4) 0.8278(2)
H24_4 H 0.4995 0.1357 0.7223
C45_4 C 0.5232(2) 0.3115(5) 0.6903(3)
H25_4 H 0.4934 0.2811 0.6721
C46_4 C 0.5347(3) 0.3706(6) 0.6640(4)
H26_4 H 0.5167 0.3733 0.6263
C47_4 C 0.6075(3) 0.4092(7) 0.7428(5)
H27_4 H 0.6385 0.4353 0.7586
C48_4 C 0.5775(3) 0.4340(7) 0.6956(5)
H28_4 H 0.5811 0.4874 0.6810
C49_4 C 0.66539(18) 0.2393(4) 0.9131(2)
O15_4 O 0.75307(14) 0.5257(3) 0.62819(15)
H29_4 H 0.7343 0.4858 0.6093
O16_4 O 0.72859(14) 0.4296(3) 0.80124(16)
H30_4 H 0.7328 0.3804 0.8160
O19_4 O 0.75082(15) 0.4271(3) 0.90110(16)
O20_4 O 0.82533(15) 0.4515(3) 0.96461(16)
O22_4 O 0.70344(18) 0.4857(4) 0.9556(2)
C50_4 C 0.71110(17) 0.6709(3) 0.61012(19)
C51_4 C 0.6874(2) 0.7316(4) 0.6256(3)
H31_4 H 0.6763 0.7855 0.6068
C52_4 C 0.67958(17) 0.7140(3) 0.66919(18)
C53_4 C 0.69817(19) 0.6335(4) 0.6993(2)
C54_4 C 0.72802(17) 0.5868(3) 0.64105(19)
C55_4 C 0.72447(18) 0.5717(3) 0.68644(19)
C56_4 C 0.74455(19) 0.4829(4) 0.7190(2)
H32_4 H 0.7571 0.4464 0.7004
H33_4 H 0.7171 0.4507 0.7174
C57_4 C 0.6874(2) 0.6185(4) 0.7405(2)
H34_4 H 0.6971 0.5652 0.7602
C58_4 C 0.79512(18) 0.4521(4) 0.91353(19)
C59_4 C 0.7715(2) 0.4652(4) 0.8146(2)
C60_4 C 0.8515(2) 0.5080(4) 0.8860(3)
H35_4 H 0.8730 0.5205 0.9225
C61_4 C 0.80677(17) 0.4715(3) 0.8728(2)
C62_4 C 0.78412(18) 0.4897(3) 0.77764(19)
C63_4 C 0.83103(19) 0.5238(3) 0.7933(2)
C64_4 C 0.86728(18) 0.5279(4) 0.8497(2)
C65_4 C 0.8456(3) 0.5460(5) 0.7551(3)
H36_4 H 0.8229 0.5408 0.7182
C66_4 C 0.8925(3) 0.5750(5) 0.7709(3)
H37_4 H 0.9006 0.5913 0.7449
C67_4 C 0.6620(2) 0.6839(4) 0.7522(3)
H38_4 H 0.6560 0.6731 0.7805
C68_4 C 0.9139(3) 0.5570(6) 0.8623(4)
H39_4 H 0.9372 0.5608 0.8990
C69_4 C 0.71977(15) 0.6913(3) 0.56505(18)
C70_4 C 0.6452(3) 0.7646(4) 0.7233(3)
H40_4 H 0.6281 0.8071 0.7313
C71_4 C 0.6552(3) 0.7761(5) 0.6841(3)
H41_4 H 0.6454 0.8297 0.6649
C72_4 C 0.9288(3) 0.5800(6) 0.8277(4)
H42_4 H 0.9609 0.5982 0.8396
H45_4 H 0.275763 0.554357 0.513554
H46_4 H 0.289977 0.629277 0.474777
H47_4 H 0.244171 0.545437 0.441565
H48_4 H 0.160884 0.748824 0.423689
H49_4 H 0.218628 0.803996 0.459923
H50_4 H 0.188952 0.764546 0.495047
H51_4 H 0.169811 0.600259 0.489547
H58_4 H 0.724237 0.554357 0.986446
O21_3 O 0.70073(18) 0.9882(3) 0.9545(2)
C73_3 C 0.6948(8) 0.9100(15) 0.9741(10)
C74_3 C 0.7607(9) 0.9081(12) 0.9757(12)
C75_3 C 0.6957(15) 0.749(2) 0.9618(17)
N2_3 N 0.7239(8) 0.8464(9) 0.9720(9)
H54_3 H 0.669811 0.899741 0.989547
H55_3 H 0.660884 0.751176 0.923689
H56_3 H 0.718628 0.696004 0.959923
H57_3 H 0.688952 0.735454 0.995047
H59_3 H 0.789977 0.870723 0.974777
H60_3 H 0.744171 0.954563 0.941565
O21_4 O 0.29927(18) 0.0118(3) 0.0455(2)
C73_4 C 0.3052(8) 0.0900(15) 0.0259(10)
C74_4 C 0.2393(9) 0.0919(12) 0.0243(12)
C75_4 C 0.3043(15) 0.251(2) 0.0382(17)
N2_4 N 0.2761(8) 0.1536(9) 0.0280(9)
H54_4 H 0.330189 0.100259 0.0104531
H55_4 H 0.339116 0.248824 0.0763107
H56_4 H 0.281372 0.303996 0.0400765
H57_4 H 0.311048 0.264546 0.00495323
H59_4 H 0.210023 0.129277 0.0252229
H60_4 H 0.255829 0.0454368 0.0584345
loop_
_geom_bond_atom_site_label_1
_geom_bond_atom_site_label_2
_geom_bond_site_symmetry_1
_geom_bond_site_symmetry_2
Gd1 O6 1_555 1_555
O1 H1 1_555 1_555
O3 H3 1_555 1_555
O6 C18 1_555 1_555
O7 Gd1 1_555 1_555
O9 Gd1 1_555 1_555
O10 C32 1_555 1_555
O11 Gd1 1_555 1_555
C1 C2 1_555 1_555
C2 H4 1_555 1_555
C3 C2 1_555 1_555
C4 C3 1_555 1_555
C5 C4 1_555 1_555
C6 O1 1_555 1_555
C7 C5 1_555 1_555
C8 C4 1_555 1_555
C9 C8 1_555 1_555
H7 C9 1_555 1_555
H9 C16 1_555 1_555
H10 C16 1_555 1_555
C18 O7 1_555 1_555
C19 O3 1_555 1_555
C21 C18 1_555 1_555
C22 C16 1_555 1_555
C30 C3 1_555 1_555
H17 C30 1_555 1_555
C31 C9 1_555 1_555
H18 C31 1_555 1_555
C32 O9 1_555 1_555
H24 C7 1_555 1_555
Gd7 O10 1_555 1_555
O24 Gd1 1_555 1_555
O26 Gd1 1_555 1_555
O27 Gd1 1_555 1_555
C1 C6 1_555 1_555
C1 C32 1_555 1_555
C5 C6 1_555 1_555
C19 C21 1_555 1_555
C19 C22 1_555 1_555
C30 C31 1_555 1_555
O11 H44 1_555 1_555
O4 C29 1_555 1_555
O5 C29 1_555 1_555
C10 C11 1_555 1_555
C11 H8 1_555 1_555
C12 C11 1_555 1_555
C13 C12 1_555 1_555
C14 O2 1_555 1_555
C15 C13 1_555 1_555
C17 C13 1_555 1_555
H11 C17 1_555 1_555
C20 H12 1_555 1_555
C24 C20 1_555 1_555
C25 C23 1_555 1_555
H13 C25 1_555 1_555
C26 C25 1_555 1_555
H14 C26 1_555 1_555
C27 C17 1_555 1_555
H15 C27 1_555 1_555
C28 C24 1_555 1_555
H16 C28 1_555 1_555
C29 C10 1_555 1_555
C33 C27 1_555 1_555
H19 C33 1_555 1_555
C34 C12 1_555 1_555
H20 C34 1_555 1_555
C35 C26 1_555 1_555
H21 C35 1_555 1_555
C36 O8 1_555 1_555
C37 N1 1_555 1_555
C38 N1 1_555 1_555
N1 C36 1_555 1_555
Gd4 O5 1_555 1_555
C10 C14 1_555 1_555
C14 C15 1_555 1_555
C23 C24 1_555 1_555
C28 C35 1_555 1_555
C33 C34 1_555 1_555
C37 H45 1_555 1_555
C37 H46 1_555 1_555
C37 H47 1_555 1_555
C38 H48 1_555 1_555
C38 H49 1_555 1_555
C38 H50 1_555 1_555
C36 H51 1_555 1_555
H5 C7_2 1_555 1_555
O12 H22 1_555 1_555
O13 C49 1_555 1_555
O14 C49 1_555 1_555
C39 C40 1_555 1_555
C40 H23 1_555 1_555
C41 C40 1_555 1_555
C42 C41 1_555 1_555
C43 C7_2 1_555 1_555
C44 O12 1_555 1_555
C45 C42 1_555 1_555
C46 C45 1_555 1_555
H26 C46 1_555 1_555
C47 C41 1_555 1_555
H27 C47 1_555 1_555
C48 C46 1_555 1_555
H28 C48 1_555 1_555
C49 C39 1_555 1_555
Gd2 O13 1_555 1_555
O16 H30 1_555 1_555
O19 Gd2 1_555 1_555
O20 Gd2 1_555 1_555
O22 Gd2 1_555 1_555
H32 C56 1_555 1_555
H33 C56 1_555 1_555
C58 O19 1_555 1_555
C59 O16 1_555 1_555
C61 C58 1_555 1_555
C62 C56 1_555 1_555
O25 Gd2 1_555 1_555
C39 C44 1_555 1_555
C42 C43 1_555 1_555
C43 C44 1_555 1_555
C47 C48 1_555 1_555
O20 C58 1_555 1_555
C59 C61 1_555 1_555
C59 C62 1_555 1_555
O22 H52 1_555 1_555
O17 C69 1_555 1_555
O18 C69 1_555 1_555
C50 C51 1_555 1_555
C51 H31 1_555 1_555
C52 C51 1_555 1_555
C53 C52 1_555 1_555
C54 O15 1_555 1_555
C55 C53 1_555 1_555
C57 C53 1_555 1_555
H34 C57 1_555 1_555
C60 H35 1_555 1_555
C64 C60 1_555 1_555
C65 C63 1_555 1_555
H36 C65 1_555 1_555
C66 C65 1_555 1_555
H37 C66 1_555 1_555
C67 C57 1_555 1_555
H38 C67 1_555 1_555
C68 C64 1_555 1_555
H39 C68 1_555 1_555
C69 C50 1_555 1_555
C70 C67 1_555 1_555
H40 C70 1_555 1_555
C71 C52 1_555 1_555
H41 C71 1_555 1_555
C72 C66 1_555 1_555
H42 C72 1_555 1_555
Gd3 O18 1_555 1_555
Gd5 O17 1_555 1_555
C50 C54 1_555 1_555
C54 C55 1_555 1_555
C63 C64 1_555 1_555
C68 C72 1_555 1_555
C70 C71 1_555 1_555
O11 H52_2 1_555 1_555
O22 H44_2 1_555 1_555
Gd3 O6_2 1_555 1_555
O1_2 H1_2 1_555 1_555
O2_2 H2_2 1_555 1_555
O3_2 H3_2 1_555 1_555
O4_2 C29_2 1_555 1_555
O25 C29_2 1_555 1_555
O6_2 C18_2 1_555 1_555
O7_2 Gd3 1_555 1_555
O8_2 Gd3 1_555 1_555
O9_2 Gd3 1_555 1_555
O10_2 C32_2 1_555 1_555
O11_2 Gd3 1_555 1_555
C1_2 C2_2 1_555 1_555
C2_2 H4_2 1_555 1_555
C3_2 C2_2 1_555 1_555
C4_2 C3_2 1_555 1_555
C5_2 C4_2 1_555 1_555
C6_2 O1_2 1_555 1_555
C7_3 C5_2 1_555 1_555
H5_2 C7_3 1_555 1_555
C8_2 C4_2 1_555 1_555
H6_2 C8_2 1_555 1_555
C9_2 C8_2 1_555 1_555
H7_2 C9_2 1_555 1_555
C10_2 C11_2 1_555 1_555
C11_2 H8_2 1_555 1_555
C12_2 C11_2 1_555 1_555
C13_2 C12_2 1_555 1_555
C14_2 O2_2 1_555 1_555
C15_2 C13_2 1_555 1_555
C16_2 C15_2 1_555 1_555
H9_2 C16_2 1_555 1_555
H10_2 C16_2 1_555 1_555
C17_2 C13_2 1_555 1_555
H11_2 C17_2 1_555 1_555
C18_2 O7_2 1_555 1_555
C19_2 O3_2 1_555 1_555
C20_2 H12_2 1_555 1_555
C21_2 C18_2 1_555 1_555
C22_2 C16_2 1_555 1_555
C23_2 C22_2 1_555 1_555
C24_2 C20_2 1_555 1_555
C25_2 C23_2 1_555 1_555
H13_2 C25_2 1_555 1_555
C26_2 C25_2 1_555 1_555
H14_2 C26_2 1_555 1_555
C27_2 C17_2 1_555 1_555
H15_2 C27_2 1_555 1_555
C28_2 C24_2 1_555 1_555
H16_2 C28_2 1_555 1_555
C29_2 C10_2 1_555 1_555
C30_2 C3_2 1_555 1_555
H17_2 C30_2 1_555 1_555
C31_2 C9_2 1_555 1_555
H18_2 C31_2 1_555 1_555
C32_2 O9_2 1_555 1_555
C33_2 C27_2 1_555 1_555
H19_2 C33_2 1_555 1_555
C34_2 C12_2 1_555 1_555
H20_2 C34_2 1_555 1_555
C35_2 C26_2 1_555 1_555
H21_2 C35_2 1_555 1_555
C36_2 O8_2 1_555 1_555
C37_2 N1_2 1_555 1_555
C38_2 N1_2 1_555 1_555
N1_2 C36_2 1_555 1_555
O12_2 H22_2 1_555 1_555
O13_2 C49_2 1_555 1_555
O14_2 C49_2 1_555 1_555
C39_2 C40_2 1_555 1_555
C40_2 H23_2 1_555 1_555
C41_2 C40_2 1_555 1_555
C42_2 C41_2 1_555 1_555
C43_2 C7_3 1_555 1_555
C44_2 O12_2 1_555 1_555
H24_2 C7_3 1_555 1_555
C45_2 C42_2 1_555 1_555
H25_2 C45_2 1_555 1_555
C46_2 C45_2 1_555 1_555
H26_2 C46_2 1_555 1_555
C47_2 C41_2 1_555 1_555
H27_2 C47_2 1_555 1_555
C48_2 C46_2 1_555 1_555
H28_2 C48_2 1_555 1_555
C49_2 C39_2 1_555 1_555
Gd4 O13_2 1_555 1_555
O15_2 H29_2 1_555 1_555
O16_2 H30_2 1_555 1_555
O17_2 C69_2 1_555 1_555
O26 C69_2 1_555 1_555
O19_2 Gd4 1_555 1_555
O20_2 Gd4 1_555 1_555
O22_2 Gd4 1_555 1_555
C50_2 C51_2 1_555 1_555
C51_2 H31_2 1_555 1_555
C52_2 C51_2 1_555 1_555
C53_2 C52_2 1_555 1_555
C54_2 O15_2 1_555 1_555
C55_2 C53_2 1_555 1_555
C56_2 C55_2 1_555 1_555
H32_2 C56_2 1_555 1_555
H33_2 C56_2 1_555 1_555
C57_2 C53_2 1_555 1_555
H34_2 C57_2 1_555 1_555
C58_2 O19_2 1_555 1_555
C59_2 O16_2 1_555 1_555
C60_2 H35_2 1_555 1_555
C61_2 C58_2 1_555 1_555
C62_2 C56_2 1_555 1_555
C63_2 C62_2 1_555 1_555
C64_2 C60_2 1_555 1_555
C65_2 C63_2 1_555 1_555
H36_2 C65_2 1_555 1_555
C66_2 C65_2 1_555 1_555
H37_2 C66_2 1_555 1_555
C67_2 C57_2 1_555 1_555
H38_2 C67_2 1_555 1_555
C68_2 C64_2 1_555 1_555
H39_2 C68_2 1_555 1_555
C69_2 C50_2 1_555 1_555
C70_2 C67_2 1_555 1_555
H40_2 C70_2 1_555 1_555
C71_2 C52_2 1_555 1_555
H41_2 C71_2 1_555 1_555
C72_2 C66_2 1_555 1_555
H42_2 C72_2 1_555 1_555
Gd7 O17_2 1_555 1_555
Gd5 O10_2 1_555 1_555
O24_2 Gd3 1_555 1_555
O27_2 Gd3 1_555 1_555
C1_2 C6_2 1_555 1_555
C1_2 C32_2 1_555 1_555
C5_2 C6_2 1_555 1_555
C10_2 C14_2 1_555 1_555
C14_2 C15_2 1_555 1_555
C19_2 C21_2 1_555 1_555
C19_2 C22_2 1_555 1_555
C20_2 C21_2 1_555 1_555
C23_2 C24_2 1_555 1_555
C28_2 C35_2 1_555 1_555
C30_2 C31_2 1_555 1_555
C33_2 C34_2 1_555 1_555
C39_2 C44_2 1_555 1_555
C42_2 C43_2 1_555 1_555
C43_2 C44_2 1_555 1_555
C47_2 C48_2 1_555 1_555
O20_2 C58_2 1_555 1_555
C50_2 C54_2 1_555 1_555
C54_2 C55_2 1_555 1_555
C59_2 C61_2 1_555 1_555
C59_2 C62_2 1_555 1_555
C60_2 C61_2 1_555 1_555
C63_2 C64_2 1_555 1_555
C68_2 C72_2 1_555 1_555
C70_2 C71_2 1_555 1_555
C37_2 H45_2 1_555 1_555
C37_2 H46_2 1_555 1_555
C37_2 H47_2 1_555 1_555
C38_2 H48_2 1_555 1_555
C38_2 H49_2 1_555 1_555
C38_2 H50_2 1_555 1_555
C36_2 H51_2 1_555 1_555
C73 O21 1_555 1_555
C74 N2 1_555 1_555
C75 N2 1_555 1_555
N2 C73 1_555 1_555
C73 H54 1_555 1_555
C75 H55 1_555 1_555
C75 H56 1_555 1_555
C75 H57 1_555 1_555
C74 H59 1_555 1_555
C74 H60 1_555 1_555
O24 C69_3 1_555 1_555
O18_2 C69_3 1_555 1_555
C50_3 C51_3 1_555 1_555
C51_3 H31_3 1_555 1_555
C52_3 C51_3 1_555 1_555
C53_3 C52_3 1_555 1_555
C54_3 O15_3 1_555 1_555
C55_3 C53_3 1_555 1_555
C57_3 C53_3 1_555 1_555
H34_3 C57_3 1_555 1_555
C60_3 H35_3 1_555 1_555
C64_3 C60_3 1_555 1_555
C65_3 C63_3 1_555 1_555
H36_3 C65_3 1_555 1_555
C66_3 C65_3 1_555 1_555
H37_3 C66_3 1_555 1_555
C67_3 C57_3 1_555 1_555
H38_3 C67_3 1_555 1_555
C68_3 C64_3 1_555 1_555
H39_3 C68_3 1_555 1_555
C69_3 C50_3 1_555 1_555
C70_3 C67_3 1_555 1_555
H40_3 C70_3 1_555 1_555
C71_3 C52_3 1_555 1_555
H41_3 C71_3 1_555 1_555
C72_3 C66_3 1_555 1_555
H42_3 C72_3 1_555 1_555
Gd7 O18_2 1_555 1_555
C50_3 C54_3 1_555 1_555
C54_3 C55_3 1_555 1_555
C63_3 C64_3 1_555 1_555
C68_3 C72_3 1_555 1_555
C70_3 C71_3 1_555 1_555
H5_3 C7_4 1_555 1_555
O12_3 H22_3 1_555 1_555
O13_3 C49_3 1_555 1_555
O28_2 C49_3 1_555 1_555
C39_3 C40_3 1_555 1_555
C40_3 H23_3 1_555 1_555
C41_3 C40_3 1_555 1_555
C42_3 C41_3 1_555 1_555
C43_3 C7_4 1_555 1_555
C44_3 O12_3 1_555 1_555
C45_3 C42_3 1_555 1_555
C46_3 C45_3 1_555 1_555
H26_3 C46_3 1_555 1_555
C47_3 C41_3 1_555 1_555
H27_3 C47_3 1_555 1_555
C48_3 C46_3 1_555 1_555
H28_3 C48_3 1_555 1_555
C49_3 C39_3 1_555 1_555
Gd6 O13_3 1_555 1_555
O16_3 H30_3 1_555 1_555
O19_3 Gd6 1_555 1_555
O20_3 Gd6 1_555 1_555
O22_3 Gd6 1_555 1_555
H32_3 C56_3 1_555 1_555
H33_3 C56_3 1_555 1_555
C58_3 O19_3 1_555 1_555
C59_3 O16_3 1_555 1_555
C61_3 C58_3 1_555 1_555
C62_3 C56_3 1_555 1_555
O25_2 Gd6 1_555 1_555
C39_3 C44_3 1_555 1_555
C42_3 C43_3 1_555 1_555
C43_3 C44_3 1_555 1_555
C47_3 C48_3 1_555 1_555
O20_3 C58_3 1_555 1_555
C59_3 C61_3 1_555 1_555
C59_3 C62_3 1_555 1_555
O22_3 H52_3 1_555 1_555
O23 C29_3 1_555 1_555
O5_2 C29_3 1_555 1_555
C10_3 C11_3 1_555 1_555
C11_3 H8_3 1_555 1_555
C12_3 C11_3 1_555 1_555
C13_3 C12_3 1_555 1_555
C14_3 O2_3 1_555 1_555
C15_3 C13_3 1_555 1_555
C17_3 C13_3 1_555 1_555
H11_3 C17_3 1_555 1_555
C20_3 H12_3 1_555 1_555
C24_3 C20_3 1_555 1_555
C25_3 C23_3 1_555 1_555
H13_3 C25_3 1_555 1_555
C26_3 C25_3 1_555 1_555
H14_3 C26_3 1_555 1_555
C27_3 C17_3 1_555 1_555
H15_3 C27_3 1_555 1_555
C28_3 C24_3 1_555 1_555
H16_3 C28_3 1_555 1_555
C29_3 C10_3 1_555 1_555
C33_3 C27_3 1_555 1_555
H19_3 C33_3 1_555 1_555
C34_3 C12_3 1_555 1_555
H20_3 C34_3 1_555 1_555
C35_3 C26_3 1_555 1_555
H21_3 C35_3 1_555 1_555
C36_3 O8_3 1_555 1_555
C37_3 N1_3 1_555 1_555
C38_3 N1_3 1_555 1_555
N1_3 C36_3 1_555 1_555
Gd8 O5_2 1_555 1_555
C10_3 C14_3 1_555 1_555
C14_3 C15_3 1_555 1_555
C23_3 C24_3 1_555 1_555
C28_3 C35_3 1_555 1_555
C33_3 C34_3 1_555 1_555
C37_3 H45_3 1_555 1_555
C37_3 H46_3 1_555 1_555
C37_3 H47_3 1_555 1_555
C38_3 H48_3 1_555 1_555
C38_3 H49_3 1_555 1_555
C38_3 H50_3 1_555 1_555
C36_3 H51_3 1_555 1_555
Gd5 O6_3 1_555 1_555
O1_3 H1_3 1_555 1_555
O3_3 H3_3 1_555 1_555
O6_3 C18_3 1_555 1_555
O7_3 Gd5 1_555 1_555
O9_3 Gd5 1_555 1_555
O27_2 C32_3 1_555 1_555
O11_3 Gd5 1_555 1_555
C1_3 C2_3 1_555 1_555
C2_3 H4_3 1_555 1_555
C3_3 C2_3 1_555 1_555
C4_3 C3_3 1_555 1_555
C5_3 C4_3 1_555 1_555
C6_3 O1_3 1_555 1_555
C7_5 C5_3 1_555 1_555
C8_3 C4_3 1_555 1_555
C9_3 C8_3 1_555 1_555
H7_3 C9_3 1_555 1_555
H9_3 C16_3 1_555 1_555
H10_3 C16_3 1_555 1_555
C18_3 O7_3 1_555 1_555
C19_3 O3_3 1_555 1_555
C21_3 C18_3 1_555 1_555
C22_3 C16_3 1_555 1_555
C30_3 C3_3 1_555 1_555
H17_3 C30_3 1_555 1_555
C31_3 C9_3 1_555 1_555
H18_3 C31_3 1_555 1_555
C32_3 O9_3 1_555 1_555
H24_3 C7_5 1_555 1_555
O26_2 Gd5 1_555 1_555
C1_3 C6_3 1_555 1_555
C1_3 C32_3 1_555 1_555
C5_3 C6_3 1_555 1_555
C19_3 C21_3 1_555 1_555
C19_3 C22_3 1_555 1_555
C30_3 C31_3 1_555 1_555
O11_3 H44_3 1_555 1_555
O22_3 H44_4 1_555 1_555
O11_3 H52_4 1_555 1_555
C73_2 O21_2 1_555 1_555
C74_2 N2_2 1_555 1_555
C75_2 N2_2 1_555 1_555
N2_2 C73_2 1_555 1_555
C73_2 H54_2 1_555 1_555
C75_2 H55_2 1_555 1_555
C75_2 H56_2 1_555 1_555
C75_2 H57_2 1_555 1_555
C74_2 H59_2 1_555 1_555
C74_2 H60_2 1_555 1_555
Gd7 O6_4 1_555 1_555
O1_4 H1_4 1_555 1_555
O2_4 H2_4 1_555 1_555
O3_4 H3_4 1_555 1_555
O23_2 C29_4 1_555 1_555
O25_2 C29_4 1_555 1_555
O6_4 C18_4 1_555 1_555
O7_4 Gd7 1_555 1_555
O8_4 Gd7 1_555 1_555
O9_4 Gd7 1_555 1_555
O27 C32_4 1_555 1_555
O11_4 Gd7 1_555 1_555
C1_4 C2_4 1_555 1_555
C2_4 H4_4 1_555 1_555
C3_4 C2_4 1_555 1_555
C4_4 C3_4 1_555 1_555
C5_4 C4_4 1_555 1_555
C6_4 O1_4 1_555 1_555
C7_6 C5_4 1_555 1_555
H5_4 C7_6 1_555 1_555
C8_4 C4_4 1_555 1_555
H6_4 C8_4 1_555 1_555
C9_4 C8_4 1_555 1_555
H7_4 C9_4 1_555 1_555
C10_4 C11_4 1_555 1_555
C11_4 H8_4 1_555 1_555
C12_4 C11_4 1_555 1_555
C13_4 C12_4 1_555 1_555
C14_4 O2_4 1_555 1_555
C15_4 C13_4 1_555 1_555
C16_4 C15_4 1_555 1_555
H9_4 C16_4 1_555 1_555
H10_4 C16_4 1_555 1_555
C17_4 C13_4 1_555 1_555
H11_4 C17_4 1_555 1_555
C18_4 O7_4 1_555 1_555
C19_4 O3_4 1_555 1_555
C20_4 H12_4 1_555 1_555
C21_4 C18_4 1_555 1_555
C22_4 C16_4 1_555 1_555
C23_4 C22_4 1_555 1_555
C24_4 C20_4 1_555 1_555
C25_4 C23_4 1_555 1_555
H13_4 C25_4 1_555 1_555
C26_4 C25_4 1_555 1_555
H14_4 C26_4 1_555 1_555
C27_4 C17_4 1_555 1_555
H15_4 C27_4 1_555 1_555
C28_4 C24_4 1_555 1_555
H16_4 C28_4 1_555 1_555
C29_4 C10_4 1_555 1_555
C30_4 C3_4 1_555 1_555
H17_4 C30_4 1_555 1_555
C31_4 C9_4 1_555 1_555
H18_4 C31_4 1_555 1_555
C32_4 O9_4 1_555 1_555
C33_4 C27_4 1_555 1_555
H19_4 C33_4 1_555 1_555
C34_4 C12_4 1_555 1_555
H20_4 C34_4 1_555 1_555
C35_4 C26_4 1_555 1_555
H21_4 C35_4 1_555 1_555
C36_4 O8_4 1_555 1_555
C37_4 N1_4 1_555 1_555
C38_4 N1_4 1_555 1_555
N1_4 C36_4 1_555 1_555
O12_4 H22_4 1_555 1_555
O13_4 C49_4 1_555 1_555
O28 C49_4 1_555 1_555
C39_4 C40_4 1_555 1_555
C40_4 H23_4 1_555 1_555
C41_4 C40_4 1_555 1_555
C42_4 C41_4 1_555 1_555
C43_4 C7_6 1_555 1_555
C44_4 O12_4 1_555 1_555
H24_4 C7_6 1_555 1_555
C45_4 C42_4 1_555 1_555
H25_4 C45_4 1_555 1_555
C46_4 C45_4 1_555 1_555
H26_4 C46_4 1_555 1_555
C47_4 C41_4 1_555 1_555
H27_4 C47_4 1_555 1_555
C48_4 C46_4 1_555 1_555
H28_4 C48_4 1_555 1_555
C49_4 C39_4 1_555 1_555
Gd8 O13_4 1_555 1_555
O15_4 H29_4 1_555 1_555
O16_4 H30_4 1_555 1_555
O24_2 C69_4 1_555 1_555
O26_2 C69_4 1_555 1_555
O19_4 Gd8 1_555 1_555
O20_4 Gd8 1_555 1_555
O22_4 Gd8 1_555 1_555
C50_4 C51_4 1_555 1_555
C51_4 H31_4 1_555 1_555
C52_4 C51_4 1_555 1_555
C53_4 C52_4 1_555 1_555
C54_4 O15_4 1_555 1_555
C55_4 C53_4 1_555 1_555
C56_4 C55_4 1_555 1_555
H32_4 C56_4 1_555 1_555
H33_4 C56_4 1_555 1_555
C57_4 C53_4 1_555 1_555
H34_4 C57_4 1_555 1_555
C58_4 O19_4 1_555 1_555
C59_4 O16_4 1_555 1_555
C60_4 H35_4 1_555 1_555
C61_4 C58_4 1_555 1_555
C62_4 C56_4 1_555 1_555
C63_4 C62_4 1_555 1_555
C64_4 C60_4 1_555 1_555
C65_4 C63_4 1_555 1_555
H36_4 C65_4 1_555 1_555
C66_4 C65_4 1_555 1_555
H37_4 C66_4 1_555 1_555
C67_4 C57_4 1_555 1_555
H38_4 C67_4 1_555 1_555
C68_4 C64_4 1_555 1_555
H39_4 C68_4 1_555 1_555
C69_4 C50_4 1_555 1_555
C70_4 C67_4 1_555 1_555
H40_4 C70_4 1_555 1_555
C71_4 C52_4 1_555 1_555
H41_4 C71_4 1_555 1_555
C72_4 C66_4 1_555 1_555
H42_4 C72_4 1_555 1_555
C1_4 C6_4 1_555 1_555
C1_4 C32_4 1_555 1_555
C5_4 C6_4 1_555 1_555
C10_4 C14_4 1_555 1_555
C14_4 C15_4 1_555 1_555
C19_4 C21_4 1_555 1_555
C19_4 C22_4 1_555 1_555
C20_4 C21_4 1_555 1_555
C23_4 C24_4 1_555 1_555
C28_4 C35_4 1_555 1_555
C30_4 C31_4 1_555 1_555
C33_4 C34_4 1_555 1_555
C39_4 C44_4 1_555 1_555
C42_4 C43_4 1_555 1_555
C43_4 C44_4 1_555 1_555
C47_4 C48_4 1_555 1_555
O20_4 C58_4 1_555 1_555
C50_4 C54_4 1_555 1_555
C54_4 C55_4 1_555 1_555
C59_4 C61_4 1_555 1_555
C59_4 C62_4 1_555 1_555
C60_4 C61_4 1_555 1_555
C63_4 C64_4 1_555 1_555
C68_4 C72_4 1_555 1_555
C70_4 C71_4 1_555 1_555
C37_4 H45_4 1_555 1_555
C37_4 H46_4 1_555 1_555
C37_4 H47_4 1_555 1_555
C38_4 H48_4 1_555 1_555
C38_4 H49_4 1_555 1_555
C38_4 H50_4 1_555 1_555
C36_4 H51_4 1_555 1_555
C73_3 O21_3 1_555 1_555
C74_3 N2_3 1_555 1_555
C75_3 N2_3 1_555 1_555
N2_3 C73_3 1_555 1_555
C73_3 H54_3 1_555 1_555
C75_3 H55_3 1_555 1_555
C75_3 H56_3 1_555 1_555
C75_3 H57_3 1_555 1_555
C74_3 H59_3 1_555 1_555
C74_3 H60_3 1_555 1_555
C73_4 O21_4 1_555 1_555
C74_4 N2_4 1_555 1_555
C75_4 N2_4 1_555 1_555
N2_4 C73_4 1_555 1_555
C73_4 H54_4 1_555 1_555
C75_4 H55_4 1_555 1_555
C75_4 H56_4 1_555 1_555
C75_4 H57_4 1_555 1_555
C74_4 H59_4 1_555 1_555
C74_4 H60_4 1_555 1_555

#END
