
###############################################################################
#
# This file contains modified crystal structure data generated from the
# MOF subset of the Cambridge Structural Database (CSD) v543 
# hosted by the Cambridge Crystallographic Data Centre (CCDC).
#
# This work is licensed under the Creative Commons
# Attribution-NonCommercial-ShareAlike 4.0 International License.
# To view a copy of this license, visit
# http://creativecommons.org/licenses/by-nc-sa/4.0/
# or send a letter to
# Creative Commons, PO Box 1866, Mountain View, CA 94042, USA.
#
# CIF created using the CSD Python API on 29 September 2022
# The structure has been converted into the P1 space group
# The structure has a 3D framework
# The original CSD entry SOJTOC is in the monoclinic crystal system
# The framework has been calculated to contain at least 10.0% void space
# The void calculation uses a probe of radius 1.32A, grid spacing 0.4
# The framework is charged, counterions have been retained in the structure
# H atom positions have been added when not included in the experimental data
# Generated hydrogen atom positions removed from atoms on special positions
#
###############################################################################

data_SOJTOC
_chemical_formula_moiety         '(C120 H184 K8 O62 Zn8 2+)n'
_symmetry_cell_setting           triclinic
_symmetry_space_group_name_H-M   'P 1'
_symmetry_Int_Tables_number      1
_space_group_name_Hall           'P 1'
loop_
_symmetry_equiv_pos_site_id
_symmetry_equiv_pos_as_xyz
1 x,y,z
_cell_length_a                   15.437(5)
_cell_length_b                   15.985(5)
_cell_length_c                   16.475(6)
_cell_angle_alpha                90
_cell_angle_beta                 90.145(13)
_cell_angle_gamma                90
_cell_volume                     4065.37
loop_
_atom_site_label
_atom_site_type_symbol
_atom_site_fract_x
_atom_site_fract_y
_atom_site_fract_z
H4 H 0.4904 0.9249 0.0194
C6 C 0.4429(7) 0.8495(6) 0.1418(6)
H6 H 0.4998 0.8701 0.1298
H7 H 0.4447 0.8171 0.1909
H8 H 0.4040 0.8958 0.1487
C7 C 0.4118(5) 0.7956(5) 0.0733(5)
C8 C 0.3549(5) 0.7301(5) 0.0895(4)
C9 C 0.3293(5) 0.6751(4) 0.0255(4)
C11 C 0.2739(6) 0.6000(6) 0.0435(6)
H9 H 0.2801 0.5596 0.0008
H10 H 0.2144 0.6168 0.0473
H11 H 0.2919 0.5755 0.0941
C14 C 0.3790(5) 0.6529(5) 0.2227(4)
C15 C 0.3223(6) 0.7134(5) 0.1754(4)
H14 H 0.3196 0.7661 0.2047
H15 H 0.2640 0.6910 0.1724
O1 O 0.6224(4) 0.7918(3) 0.0020(3)
O5 O 0.4315(3) 0.6087(3) 0.1825(3)
O6 O 0.7975(4) 0.8757(3) 0.0091(3)
O7 O 0.7509(4) 0.7396(4) 0.1271(3)
O8 O 0.3697(4) 0.6489(4) 0.2972(3)
Zn2 Zn 0.7500 0.7500 0.0000
Zn4 Zn 0.5000 0.53132(7) 0.2500
C1 C 0.4555(7) 0.7662(7) 0.8486(5)
H1 H 0.4403 0.7186 0.8161
H2 H 0.5174 0.7704 0.8524
H3 H 0.4327 0.8160 0.8239
C2 C 0.4177(5) 0.7563(5) 0.9326(5)
C3 C 0.4419(5) 0.8104(5) 0.9961(5)
C4 C 0.5015(6) 0.8816(5) 0.9794(6)
H5 H 0.4866 0.9046 0.9267
C5 C 0.5977(6) 0.8631(6) 0.9800(6)
C10 C 0.3616(5) 0.6898(5) 0.9484(4)
C12 C 0.3382(6) 0.6319(5) 0.8786(5)
H12 H 0.2857 0.6017 0.8924
H13 H 0.3261 0.6654 0.8308
C13 C 0.4089(5) 0.5695(5) 0.8588(5)
O2 O 0.6461(4) 0.9215(4) 0.9602(5)
O3 O 0.4584(4) 0.5441(3) 0.9097(3)
O4 O 0.4088(4) 0.5466(3) 0.7837(3)
Zn1 Zn 0.5000 0.46868(7) 0.7500
Zn2_2 Zn 0.7500 0.7500 1.0000
C16 C 0.5445(7) 0.7662(7) 0.6514(5)
H16 H 0.5597 0.7186 0.6839
H17 H 0.4826 0.7704 0.6476
H18 H 0.5673 0.8160 0.6761
C17 C 0.5823(5) 0.7563(5) 0.5674(5)
C18 C 0.5581(5) 0.8104(5) 0.5039(5)
C19 C 0.4985(6) 0.8816(5) 0.5206(6)
H19 H 0.5096 0.9249 0.4806
H20 H 0.5134 0.9046 0.5733
C20 C 0.4023(6) 0.8631(6) 0.5200(6)
C21 C 0.5571(7) 0.8495(6) 0.3582(6)
H21 H 0.5002 0.8701 0.3702
H22 H 0.5553 0.8171 0.3091
H23 H 0.5960 0.8958 0.3513
C22 C 0.5882(5) 0.7956(5) 0.4267(5)
C23 C 0.6451(5) 0.7301(5) 0.4105(4)
C24 C 0.6707(5) 0.6751(4) 0.4745(4)
C25 C 0.6384(5) 0.6898(5) 0.5516(4)
C26 C 0.7261(6) 0.6000(6) 0.4565(6)
H24 H 0.7199 0.5596 0.4992
H25 H 0.7856 0.6168 0.4527
H26 H 0.7081 0.5755 0.4059
C27 C 0.6618(6) 0.6319(5) 0.6214(5)
H27 H 0.7143 0.6017 0.6076
H28 H 0.6739 0.6654 0.6692
C28 C 0.5911(5) 0.5695(5) 0.6412(5)
C29 C 0.6210(5) 0.6529(5) 0.2773(4)
C30 C 0.6777(6) 0.7134(5) 0.3246(4)
H29 H 0.6804 0.7661 0.2953
H30 H 0.7360 0.6910 0.3276
O9 O 0.3776(4) 0.7918(3) 0.4980(3)
O10 O 0.3539(4) 0.9215(4) 0.5398(5)
O11 O 0.5416(4) 0.5441(3) 0.5903(3)
O12 O 0.5912(4) 0.5466(3) 0.7163(3)
O13 O 0.5685(3) 0.6087(3) 0.3175(3)
O14 O 0.6303(4) 0.6489(4) 0.2028(3)
O15 O 0.7025(4) 0.6243(3) 0.9909(3)
O16 O 0.7491(4) 0.7604(4) 0.8729(3)
O17 O 0.8776(4) 0.7082(3) 0.9980(3)
O18 O 0.5685(3) 0.3913(3) 0.8175(3)
O19 O 0.4315(3) 0.3913(3) 0.6825(3)
Zn5 Zn 0.2500 0.7500 0.5000
O6_2 O 0.2025(4) 0.8757(3) 0.4909(3)
O7_2 O 0.2491(4) 0.7396(4) 0.3729(3)
O15_2 O 0.2975(4) 0.6243(3) 0.5091(3)
O16_2 O 0.2509(4) 0.7604(4) 0.6271(3)
O17_2 O 0.1224(4) 0.7082(3) 0.5020(3)
O1_2 O 0.1224(4) 0.2918(3) 0.0020(3)
O6_3 O 0.2975(4) 0.3757(3) 0.0091(3)
O7_3 O 0.2509(4) 0.2396(4) 0.1271(3)
Zn2_3 Zn 0.2500 0.2500 0.0000
Zn4_2 Zn -0.0000 0.03132(7) 0.2500
H2_2 H 0.0174 0.2704 0.8524
C4_2 C 0.0015(6) 0.3816(5) 0.9794(6)
C5_2 C 0.0977(6) 0.3631(6) 0.9800(6)
O2_2 O 0.1461(4) 0.4215(4) 0.9602(5)
Zn2_4 Zn 0.2500 0.2500 1.0000
C16_2 C 0.0445(7) 0.2662(7) 0.6514(5)
H16_2 H 0.0597 0.2186 0.6839
H18_2 H 0.0673 0.3160 0.6761
C17_2 C 0.0823(5) 0.2563(5) 0.5674(5)
C18_2 C 0.0581(5) 0.3104(5) 0.5039(5)
H19_2 H 0.0096 0.4249 0.4806
H20_2 H 0.0134 0.4046 0.5733
C21_2 C 0.0571(7) 0.3495(6) 0.3582(6)
H21_2 H 0.0002 0.3701 0.3702
H22_2 H 0.0553 0.3171 0.3091
H23_2 H 0.0960 0.3958 0.3513
C22_2 C 0.0882(5) 0.2956(5) 0.4267(5)
C23_2 C 0.1451(5) 0.2301(5) 0.4105(4)
C24_2 C 0.1707(5) 0.1751(4) 0.4745(4)
C25_2 C 0.1384(5) 0.1898(5) 0.5516(4)
C26_2 C 0.2261(6) 0.1000(6) 0.4565(6)
H24_2 H 0.2199 0.0596 0.4992
H25_2 H 0.2856 0.1168 0.4527
H26_2 H 0.2081 0.0755 0.4059
C27_2 C 0.1618(6) 0.1319(5) 0.6214(5)
H27_2 H 0.2143 0.1017 0.6076
H28_2 H 0.1739 0.1654 0.6692
C28_2 C 0.0911(5) 0.0695(5) 0.6412(5)
C29_2 C 0.1210(5) 0.1529(5) 0.2773(4)
C30_2 C 0.1777(6) 0.2134(5) 0.3246(4)
H29_2 H 0.1804 0.2661 0.2953
H30_2 H 0.2360 0.1910 0.3276
O11_2 O 0.0416(4) 0.0441(3) 0.5903(3)
O12_2 O 0.0912(4) 0.0466(3) 0.7163(3)
O13_2 O 0.0685(3) 0.1087(3) 0.3175(3)
O14_2 O 0.1303(4) 0.1489(4) 0.2028(3)
O15_3 O 0.2025(4) 0.1243(3) 0.9909(3)
O16_3 O 0.2491(4) 0.2604(4) 0.8729(3)
O17_3 O 0.3776(4) 0.2082(3) 0.9980(3)
Zn1_2 Zn 0.0000 0.96868(7) 0.7500
O18_2 O 0.0685(3) 0.8913(3) 0.8175(3)
H4_2 H 0.9904 0.4249 0.0194
C6_2 C 0.9429(7) 0.3495(6) 0.1418(6)
H6_2 H 0.9998 0.3701 0.1298
H7_2 H 0.9447 0.3171 0.1909
H8_2 H 0.9040 0.3958 0.1487
C7_2 C 0.9118(5) 0.2956(5) 0.0733(5)
C8_2 C 0.8549(5) 0.2301(5) 0.0895(4)
C9_2 C 0.8293(5) 0.1751(4) 0.0255(4)
C11_2 C 0.7739(6) 0.1000(6) 0.0435(6)
H9_2 H 0.7801 0.0596 0.0008
H10_2 H 0.7144 0.1168 0.0473
H11_2 H 0.7919 0.0755 0.0941
C14_2 C 0.8790(5) 0.1529(5) 0.2227(4)
C15_2 C 0.8223(6) 0.2134(5) 0.1754(4)
H14_2 H 0.8196 0.2661 0.2047
H15_2 H 0.7640 0.1910 0.1724
O5_2 O 0.9315(3) 0.1087(3) 0.1825(3)
O8_2 O 0.8697(4) 0.1489(4) 0.2972(3)
Zn4_3 Zn 1.0000 0.03132(7) 0.2500
C1_2 C 0.9555(7) 0.2662(7) 0.8486(5)
H1_2 H 0.9403 0.2186 0.8161
H3_2 H 0.9327 0.3160 0.8239
C2_2 C 0.9177(5) 0.2563(5) 0.9326(5)
C3_2 C 0.9419(5) 0.3104(5) 0.9961(5)
H5_2 H 0.9866 0.4046 0.9267
C10_2 C 0.8616(5) 0.1898(5) 0.9484(4)
C12_2 C 0.8382(6) 0.1319(5) 0.8786(5)
H12_2 H 0.7857 0.1017 0.8924
H13_2 H 0.8261 0.1654 0.8308
C13_2 C 0.9089(5) 0.0695(5) 0.8588(5)
O3_2 O 0.9584(4) 0.0441(3) 0.9097(3)
O4_2 O 0.9088(4) 0.0466(3) 0.7837(3)
H17_2 H 0.9826 0.2704 0.6476
C19_2 C 0.9985(6) 0.3816(5) 0.5206(6)
C20_2 C 0.9023(6) 0.3631(6) 0.5200(6)
O9_2 O 0.8776(4) 0.2918(3) 0.4980(3)
O10_2 O 0.8539(4) 0.4215(4) 0.5398(5)
Zn5_2 Zn 0.7500 0.2500 0.5000
Zn1_3 Zn 1.0000 0.96868(7) 0.7500
O19_2 O 0.9315(3) 0.8913(3) 0.6825(3)
O6_4 O 0.7025(4) 0.3757(3) 0.4909(3)
O7_4 O 0.7491(4) 0.2396(4) 0.3729(3)
O15_4 O 0.7975(4) 0.1243(3) 0.5091(3)
O16_4 O 0.7509(4) 0.2604(4) 0.6271(3)
O17_4 O 0.6224(4) 0.2082(3) 0.5020(3)
C1_3 C 0.5445(7) 0.2338(7) 0.1514(5)
H1_3 H 0.5597 0.2814 0.1839
H2_3 H 0.4826 0.2296 0.1476
H3_3 H 0.5673 0.1840 0.1761
C2_3 C 0.5823(5) 0.2437(5) 0.0674(5)
C3_3 C 0.5581(5) 0.1896(5) 0.0039(5)
C4_3 C 0.4985(6) 0.1184(5) 0.0206(6)
H5_3 H 0.5134 0.0954 0.0733
C5_3 C 0.4023(6) 0.1369(6) 0.0200(6)
C10_3 C 0.6384(5) 0.3102(5) 0.0516(4)
C12_3 C 0.6618(6) 0.3681(5) 0.1214(5)
H12_3 H 0.7143 0.3983 0.1076
H13_3 H 0.6739 0.3346 0.1692
C13_3 C 0.5911(5) 0.4305(5) 0.1412(5)
O2_3 O 0.3539(4) 0.0785(4) 0.0398(5)
O3_3 O 0.5416(4) 0.4559(3) 0.0903(3)
O4_3 O 0.5912(4) 0.4534(3) 0.2163(3)
C16_3 C 0.4555(7) 0.2338(7) 0.3486(5)
H16_3 H 0.4403 0.2814 0.3161
H17_3 H 0.5174 0.2296 0.3524
H18_3 H 0.4327 0.1840 0.3239
C17_3 C 0.4177(5) 0.2437(5) 0.4326(5)
C18_3 C 0.4419(5) 0.1896(5) 0.4961(5)
C19_3 C 0.5015(6) 0.1184(5) 0.4794(6)
H19_3 H 0.4904 0.0751 0.5194
H20_3 H 0.4866 0.0954 0.4267
C20_3 C 0.5977(6) 0.1369(6) 0.4800(6)
C21_3 C 0.4429(7) 0.1505(6) 0.6418(6)
H21_3 H 0.4998 0.1299 0.6298
H22_3 H 0.4447 0.1829 0.6909
H23_3 H 0.4040 0.1042 0.6487
C22_3 C 0.4118(5) 0.2044(5) 0.5733(5)
C23_3 C 0.3549(5) 0.2699(5) 0.5895(4)
C24_3 C 0.3293(5) 0.3249(4) 0.5255(4)
C25_3 C 0.3616(5) 0.3102(5) 0.4484(4)
C26_3 C 0.2739(6) 0.4000(6) 0.5435(6)
H24_3 H 0.2801 0.4404 0.5008
H25_3 H 0.2144 0.3832 0.5473
H26_3 H 0.2919 0.4245 0.5941
C27_3 C 0.3382(6) 0.3681(5) 0.3786(5)
H27_3 H 0.2857 0.3983 0.3924
H28_3 H 0.3261 0.3346 0.3308
C28_3 C 0.4089(5) 0.4305(5) 0.3588(5)
C29_3 C 0.3790(5) 0.3471(5) 0.7227(4)
C30_3 C 0.3223(6) 0.2866(5) 0.6754(4)
H29_3 H 0.3196 0.2339 0.7047
H30_3 H 0.2640 0.3090 0.6724
O10_3 O 0.6461(4) 0.0785(4) 0.4602(5)
O11_3 O 0.4584(4) 0.4559(3) 0.4097(3)
O12_3 O 0.4088(4) 0.4534(3) 0.2837(3)
O14_3 O 0.3697(4) 0.3511(4) 0.7972(3)
H4_3 H 0.5096 0.0751 0.9806
C6_3 C 0.5571(7) 0.1505(6) 0.8582(6)
H6_3 H 0.5002 0.1299 0.8702
H7_3 H 0.5553 0.1829 0.8091
H8_3 H 0.5960 0.1042 0.8513
C7_3 C 0.5882(5) 0.2044(5) 0.9267(5)
C8_3 C 0.6451(5) 0.2699(5) 0.9105(4)
C9_3 C 0.6707(5) 0.3249(4) 0.9745(4)
C11_3 C 0.7261(6) 0.4000(6) 0.9565(6)
H9_3 H 0.7199 0.4404 0.9992
H10_3 H 0.7856 0.3832 0.9527
H11_3 H 0.7081 0.4245 0.9059
C14_3 C 0.6210(5) 0.3471(5) 0.7773(4)
C15_3 C 0.6777(6) 0.2866(5) 0.8246(4)
H14_3 H 0.6804 0.2339 0.7953
H15_3 H 0.7360 0.3090 0.8276
O8_3 O 0.6303(4) 0.3511(4) 0.7028(3)
C1_4 C 0.0445(7) 0.7338(7) 0.1514(5)
H1_4 H 0.0597 0.7814 0.1839
H3_4 H 0.0673 0.6840 0.1761
C2_4 C 0.0823(5) 0.7437(5) 0.0674(5)
C3_4 C 0.0581(5) 0.6896(5) 0.0039(5)
H5_4 H 0.0134 0.5954 0.0733
C10_4 C 0.1384(5) 0.8102(5) 0.0516(4)
C12_4 C 0.1618(6) 0.8681(5) 0.1214(5)
H12_4 H 0.2143 0.8983 0.1076
H13_4 H 0.1739 0.8346 0.1692
C13_4 C 0.0911(5) 0.9305(5) 0.1412(5)
O3_4 O 0.0416(4) 0.9559(3) 0.0903(3)
O4_4 O 0.0912(4) 0.9534(3) 0.2163(3)
H17_4 H 0.0174 0.7296 0.3524
C19_4 C 0.0015(6) 0.6184(5) 0.4794(6)
C20_4 C 0.0977(6) 0.6369(6) 0.4800(6)
O10_4 O 0.1461(4) 0.5785(4) 0.4602(5)
H4_4 H 0.0096 0.5751 0.9806
C6_4 C 0.0571(7) 0.6505(6) 0.8582(6)
H6_4 H 0.0002 0.6299 0.8702
H7_4 H 0.0553 0.6829 0.8091
H8_4 H 0.0960 0.6042 0.8513
C7_4 C 0.0882(5) 0.7044(5) 0.9267(5)
C8_4 C 0.1451(5) 0.7699(5) 0.9105(4)
C9_4 C 0.1707(5) 0.8249(4) 0.9745(4)
C11_4 C 0.2261(6) 0.9000(6) 0.9565(6)
H9_4 H 0.2199 0.9404 0.9992
H10_4 H 0.2856 0.8832 0.9527
H11_4 H 0.2081 0.9245 0.9059
C14_4 C 0.1210(5) 0.8471(5) 0.7773(4)
C15_4 C 0.1777(6) 0.7866(5) 0.8246(4)
H14_4 H 0.1804 0.7339 0.7953
H15_4 H 0.2360 0.8090 0.8276
O8_4 O 0.1303(4) 0.8511(4) 0.7028(3)
H2_4 H 0.9826 0.7296 0.1476
C4_4 C 0.9985(6) 0.6184(5) 0.0206(6)
C5_4 C 0.9023(6) 0.6369(6) 0.0200(6)
O2_4 O 0.8539(4) 0.5785(4) 0.0398(5)
C16_4 C 0.9555(7) 0.7338(7) 0.3486(5)
H16_4 H 0.9403 0.7814 0.3161
H18_4 H 0.9327 0.6840 0.3239
C17_4 C 0.9177(5) 0.7437(5) 0.4326(5)
C18_4 C 0.9419(5) 0.6896(5) 0.4961(5)
H19_4 H 0.9904 0.5751 0.5194
H20_4 H 0.9866 0.5954 0.4267
C21_4 C 0.9429(7) 0.6505(6) 0.6418(6)
H21_4 H 0.9998 0.6299 0.6298
H22_4 H 0.9447 0.6829 0.6909
H23_4 H 0.9040 0.6042 0.6487
C22_4 C 0.9118(5) 0.7044(5) 0.5733(5)
C23_4 C 0.8549(5) 0.7699(5) 0.5895(4)
C24_4 C 0.8293(5) 0.8249(4) 0.5255(4)
C25_4 C 0.8616(5) 0.8102(5) 0.4484(4)
C26_4 C 0.7739(6) 0.9000(6) 0.5435(6)
H24_4 H 0.7801 0.9404 0.5008
H25_4 H 0.7144 0.8832 0.5473
H26_4 H 0.7919 0.9245 0.5941
C27_4 C 0.8382(6) 0.8681(5) 0.3786(5)
H27_4 H 0.7857 0.8983 0.3924
H28_4 H 0.8261 0.8346 0.3308
C28_4 C 0.9089(5) 0.9305(5) 0.3588(5)
C29_4 C 0.8790(5) 0.8471(5) 0.7227(4)
C30_4 C 0.8223(6) 0.7866(5) 0.6754(4)
H29_4 H 0.8196 0.7339 0.7047
H30_4 H 0.7640 0.8090 0.6724
O11_4 O 0.9584(4) 0.9559(3) 0.4097(3)
O12_4 O 0.9088(4) 0.9534(3) 0.2837(3)
O14_4 O 0.8697(4) 0.8511(4) 0.7972(3)
K1 K 0.53422(11) 0.62756(11) 0.04738(10)
K1_2 K 0.46578(11) 0.62756(11) 0.45262(10)
K1_3 K 0.03422(11) 0.12756(11) 0.04738(10)
K1_4 K 0.96578(11) 0.12756(11) 0.45262(10)
K1_5 K 0.46578(11) 0.37244(11) 0.95262(10)
K1_6 K 0.53422(11) 0.37244(11) 0.54738(10)
K1_7 K 0.96578(11) 0.87244(11) 0.95262(10)
K1_8 K 0.03422(11) 0.87244(11) 0.54738(10)
loop_
_geom_bond_atom_site_label_1
_geom_bond_atom_site_label_2
_geom_bond_site_symmetry_1
_geom_bond_site_symmetry_2
C6 H6 1_555 1_555
H7 C6 1_555 1_555
H8 C6 1_555 1_555
C8 C7 1_555 1_555
C9 C8 1_555 1_555
C11 C9 1_555 1_555
H9 C11 1_555 1_555
H10 C11 1_555 1_555
H11 C11 1_555 1_555
C14 C15 1_555 1_555
C15 C8 1_555 1_555
H14 C15 1_555 1_555
H15 C15 1_555 1_555
O5 C14 1_555 1_555
O6 Zn2 1_555 1_555
O7 Zn2 1_555 1_555
O8 C14 1_555 1_555
Zn2 O1 1_555 1_555
Zn4 O5 1_555 1_555
C6 C7 1_555 1_555
C1 H1 1_555 1_555
H2 C1 1_555 1_555
H3 C1 1_555 1_555
C2 C1 1_555 1_555
C3 C2 1_555 1_555
C4 C3 1_555 1_555
H5 C4 1_555 1_555
C5 C4 1_555 1_555
C10 C2 1_555 1_555
C12 C10 1_555 1_555
H12 C12 1_555 1_555
H13 C12 1_555 1_555
C13 C12 1_555 1_555
O2 C5 1_555 1_555
O3 C13 1_555 1_555
O4 C13 1_555 1_555
Zn1 O4 1_555 1_555
C16 H16 1_555 1_555
H17 C16 1_555 1_555
H18 C16 1_555 1_555
C17 C16 1_555 1_555
C18 C17 1_555 1_555
C19 C18 1_555 1_555
H19 C19 1_555 1_555
H20 C19 1_555 1_555
C20 C19 1_555 1_555
C21 H21 1_555 1_555
H22 C21 1_555 1_555
H23 C21 1_555 1_555
C22 C18 1_555 1_555
C23 C22 1_555 1_555
C24 C23 1_555 1_555
C25 C17 1_555 1_555
C26 C24 1_555 1_555
H24 C26 1_555 1_555
H25 C26 1_555 1_555
H26 C26 1_555 1_555
C27 C25 1_555 1_555
H27 C27 1_555 1_555
H28 C27 1_555 1_555
C28 C27 1_555 1_555
C29 C30 1_555 1_555
C30 C23 1_555 1_555
H29 C30 1_555 1_555
H30 C30 1_555 1_555
O9 C20 1_555 1_555
O10 C20 1_555 1_555
O11 C28 1_555 1_555
O12 Zn1 1_555 1_555
O13 C29 1_555 1_555
O14 C29 1_555 1_555
O15 Zn2_2 1_555 1_555
O16 Zn2_2 1_555 1_555
O17 Zn2_2 1_555 1_555
O18 Zn1 1_555 1_555
O19 Zn1 1_555 1_555
Zn4 O13 1_555 1_555
Zn5 O9 1_555 1_555
C21 C22 1_555 1_555
C24 C25 1_555 1_555
C28 O12 1_555 1_555
O6_2 Zn5 1_555 1_555
O7_2 Zn5 1_555 1_555
O15_2 Zn5 1_555 1_555
O16_2 Zn5 1_555 1_555
O17_2 Zn5 1_555 1_555
O6_3 Zn2_3 1_555 1_555
O7_3 Zn2_3 1_555 1_555
Zn2_3 O1_2 1_555 1_555
C5_2 C4_2 1_555 1_555
O2_2 C5_2 1_555 1_555
C16_2 H16_2 1_555 1_555
H18_2 C16_2 1_555 1_555
C17_2 C16_2 1_555 1_555
C18_2 C17_2 1_555 1_555
C21_2 H21_2 1_555 1_555
H22_2 C21_2 1_555 1_555
H23_2 C21_2 1_555 1_555
C22_2 C18_2 1_555 1_555
C23_2 C22_2 1_555 1_555
C24_2 C23_2 1_555 1_555
C25_2 C17_2 1_555 1_555
C26_2 C24_2 1_555 1_555
H24_2 C26_2 1_555 1_555
H25_2 C26_2 1_555 1_555
H26_2 C26_2 1_555 1_555
C27_2 C25_2 1_555 1_555
H27_2 C27_2 1_555 1_555
H28_2 C27_2 1_555 1_555
C28_2 C27_2 1_555 1_555
C29_2 C30_2 1_555 1_555
C30_2 C23_2 1_555 1_555
H29_2 C30_2 1_555 1_555
H30_2 C30_2 1_555 1_555
O11_2 C28_2 1_555 1_555
O13_2 C29_2 1_555 1_555
O14_2 C29_2 1_555 1_555
O15_3 Zn2_4 1_555 1_555
O16_3 Zn2_4 1_555 1_555
O17_3 Zn2_4 1_555 1_555
Zn4_2 O13_2 1_555 1_555
C21_2 C22_2 1_555 1_555
C24_2 C25_2 1_555 1_555
C28_2 O12_2 1_555 1_555
O18_2 Zn1_2 1_555 1_555
C6_2 H6_2 1_555 1_555
H7_2 C6_2 1_555 1_555
H8_2 C6_2 1_555 1_555
C8_2 C7_2 1_555 1_555
C9_2 C8_2 1_555 1_555
C11_2 C9_2 1_555 1_555
H9_2 C11_2 1_555 1_555
H10_2 C11_2 1_555 1_555
H11_2 C11_2 1_555 1_555
C14_2 C15_2 1_555 1_555
C15_2 C8_2 1_555 1_555
H14_2 C15_2 1_555 1_555
H15_2 C15_2 1_555 1_555
O5_2 C14_2 1_555 1_555
O8_2 C14_2 1_555 1_555
Zn4_3 O5_2 1_555 1_555
C6_2 C7_2 1_555 1_555
C1_2 H1_2 1_555 1_555
H3_2 C1_2 1_555 1_555
C2_2 C1_2 1_555 1_555
C3_2 C2_2 1_555 1_555
C10_2 C2_2 1_555 1_555
C12_2 C10_2 1_555 1_555
H12_2 C12_2 1_555 1_555
H13_2 C12_2 1_555 1_555
C13_2 C12_2 1_555 1_555
O3_2 C13_2 1_555 1_555
O4_2 C13_2 1_555 1_555
C20_2 C19_2 1_555 1_555
O9_2 C20_2 1_555 1_555
O10_2 C20_2 1_555 1_555
Zn5_2 O9_2 1_555 1_555
O19_2 Zn1_3 1_555 1_555
O6_4 Zn5_2 1_555 1_555
O7_4 Zn5_2 1_555 1_555
O15_4 Zn5_2 1_555 1_555
O16_4 Zn5_2 1_555 1_555
O17_4 Zn5_2 1_555 1_555
C1_3 H1_3 1_555 1_555
H2_3 C1_3 1_555 1_555
H3_3 C1_3 1_555 1_555
C2_3 C1_3 1_555 1_555
C3_3 C2_3 1_555 1_555
C4_3 C3_3 1_555 1_555
H5_3 C4_3 1_555 1_555
C5_3 C4_3 1_555 1_555
C10_3 C2_3 1_555 1_555
C12_3 C10_3 1_555 1_555
H12_3 C12_3 1_555 1_555
H13_3 C12_3 1_555 1_555
C13_3 C12_3 1_555 1_555
O2_3 C5_3 1_555 1_555
O3_3 C13_3 1_555 1_555
O4_3 C13_3 1_555 1_555
Zn4 O4_3 1_555 1_555
C16_3 H16_3 1_555 1_555
H17_3 C16_3 1_555 1_555
H18_3 C16_3 1_555 1_555
C17_3 C16_3 1_555 1_555
C18_3 C17_3 1_555 1_555
C19_3 C18_3 1_555 1_555
H19_3 C19_3 1_555 1_555
H20_3 C19_3 1_555 1_555
C20_3 C19_3 1_555 1_555
C21_3 H21_3 1_555 1_555
H22_3 C21_3 1_555 1_555
H23_3 C21_3 1_555 1_555
C22_3 C18_3 1_555 1_555
C23_3 C22_3 1_555 1_555
C24_3 C23_3 1_555 1_555
C25_3 C17_3 1_555 1_555
C26_3 C24_3 1_555 1_555
H24_3 C26_3 1_555 1_555
H25_3 C26_3 1_555 1_555
H26_3 C26_3 1_555 1_555
C27_3 C25_3 1_555 1_555
H27_3 C27_3 1_555 1_555
H28_3 C27_3 1_555 1_555
C28_3 C27_3 1_555 1_555
C29_3 C30_3 1_555 1_555
C30_3 C23_3 1_555 1_555
H29_3 C30_3 1_555 1_555
H30_3 C30_3 1_555 1_555
O17_4 C20_3 1_555 1_555
O10_3 C20_3 1_555 1_555
O11_3 C28_3 1_555 1_555
O12_3 Zn4 1_555 1_555
O19 C29_3 1_555 1_555
O14_3 C29_3 1_555 1_555
C21_3 C22_3 1_555 1_555
C24_3 C25_3 1_555 1_555
C28_3 O12_3 1_555 1_555
C6_3 H6_3 1_555 1_555
H7_3 C6_3 1_555 1_555
H8_3 C6_3 1_555 1_555
C8_3 C7_3 1_555 1_555
C9_3 C8_3 1_555 1_555
C11_3 C9_3 1_555 1_555
H9_3 C11_3 1_555 1_555
H10_3 C11_3 1_555 1_555
H11_3 C11_3 1_555 1_555
C14_3 C15_3 1_555 1_555
C15_3 C8_3 1_555 1_555
H14_3 C15_3 1_555 1_555
H15_3 C15_3 1_555 1_555
O18 C14_3 1_555 1_555
O8_3 C14_3 1_555 1_555
C6_3 C7_3 1_555 1_555
C1_4 H1_4 1_555 1_555
H3_4 C1_4 1_555 1_555
C2_4 C1_4 1_555 1_555
C3_4 C2_4 1_555 1_555
C10_4 C2_4 1_555 1_555
C12_4 C10_4 1_555 1_555
H12_4 C12_4 1_555 1_555
H13_4 C12_4 1_555 1_555
C13_4 C12_4 1_555 1_555
O3_4 C13_4 1_555 1_555
O4_4 C13_4 1_555 1_555
C20_4 C19_4 1_555 1_555
O17_2 C20_4 1_555 1_555
O10_4 C20_4 1_555 1_555
C6_4 H6_4 1_555 1_555
H7_4 C6_4 1_555 1_555
H8_4 C6_4 1_555 1_555
C8_4 C7_4 1_555 1_555
C9_4 C8_4 1_555 1_555
C11_4 C9_4 1_555 1_555
H9_4 C11_4 1_555 1_555
H10_4 C11_4 1_555 1_555
H11_4 C11_4 1_555 1_555
C14_4 C15_4 1_555 1_555
C15_4 C8_4 1_555 1_555
H14_4 C15_4 1_555 1_555
H15_4 C15_4 1_555 1_555
O18_2 C14_4 1_555 1_555
O8_4 C14_4 1_555 1_555
C6_4 C7_4 1_555 1_555
C5_4 C4_4 1_555 1_555
O2_4 C5_4 1_555 1_555
C16_4 H16_4 1_555 1_555
H18_4 C16_4 1_555 1_555
C17_4 C16_4 1_555 1_555
C18_4 C17_4 1_555 1_555
C21_4 H21_4 1_555 1_555
H22_4 C21_4 1_555 1_555
H23_4 C21_4 1_555 1_555
C22_4 C18_4 1_555 1_555
C23_4 C22_4 1_555 1_555
C24_4 C23_4 1_555 1_555
C25_4 C17_4 1_555 1_555
C26_4 C24_4 1_555 1_555
H24_4 C26_4 1_555 1_555
H25_4 C26_4 1_555 1_555
H26_4 C26_4 1_555 1_555
C27_4 C25_4 1_555 1_555
H27_4 C27_4 1_555 1_555
H28_4 C27_4 1_555 1_555
C28_4 C27_4 1_555 1_555
C29_4 C30_4 1_555 1_555
C30_4 C23_4 1_555 1_555
H29_4 C30_4 1_555 1_555
H30_4 C30_4 1_555 1_555
O11_4 C28_4 1_555 1_555
O19_2 C29_4 1_555 1_555
O14_4 C29_4 1_555 1_555
C21_4 C22_4 1_555 1_555
C24_4 C25_4 1_555 1_555
C28_4 O12_4 1_555 1_555

#END
