
###############################################################################
#
# This file contains modified crystal structure data generated from the
# MOF subset of the Cambridge Structural Database (CSD) v543 
# hosted by the Cambridge Crystallographic Data Centre (CCDC).
#
# This work is licensed under the Creative Commons
# Attribution-NonCommercial-ShareAlike 4.0 International License.
# To view a copy of this license, visit
# http://creativecommons.org/licenses/by-nc-sa/4.0/
# or send a letter to
# Creative Commons, PO Box 1866, Mountain View, CA 94042, USA.
#
# CIF created using the CSD Python API on 29 September 2022
# The structure has been converted into the P1 space group
# The structure has a 3D framework
# The original CSD entry SOKKAH is in the orthorhombic crystal system
# The framework has been calculated to contain at least 10.0% void space
# The void calculation uses a probe of radius 1.32A, grid spacing 0.4
#
###############################################################################

data_SOKKAH
_chemical_formula_moiety         '(C640 H576 Cu32 N160 O128)n'
_symmetry_cell_setting           triclinic
_symmetry_space_group_name_H-M   'P 1'
_symmetry_Int_Tables_number      1
_space_group_name_Hall           'P 1'
loop_
_symmetry_equiv_pos_site_id
_symmetry_equiv_pos_as_xyz
1 x,y,z
_cell_length_a                   15.0740(14)
_cell_length_b                   41.699(4)
_cell_length_c                   41.878(4)
_cell_angle_alpha                90
_cell_angle_beta                 90
_cell_angle_gamma                90
_cell_volume                     26323.3
loop_
_atom_site_label
_atom_site_type_symbol
_atom_site_fract_x
_atom_site_fract_y
_atom_site_fract_z
Cu1 Cu 0.25128(4) 0.50017(2) 0.46461(2)
N1 N 0.2101(2) 0.54644(7) 0.46802(7)
N2 N 0.2960(2) 0.50120(7) 0.51044(7)
N3 N 0.2980(2) 0.45480(7) 0.46032(7)
C1 C 0.3562(3) 0.50186(10) 0.57339(8)
C2 C 0.2277(3) 0.56731(10) 0.44486(10)
H1 H 0.2636 0.5607 0.4280
C3 C 0.3893(3) 0.50216(9) 0.60688(9)
C4 C 0.1618(3) 0.55678(10) 0.49279(10)
H2 H 0.1507 0.5426 0.5095
C5 C 0.3814(3) 0.44784(10) 0.46793(10)
H3 H 0.4190 0.4644 0.4741
C6 C 0.3439(3) 0.52564(10) 0.52145(9)
H4 H 0.3565 0.5427 0.5079
C7 C 0.3592(3) 0.39178(9) 0.45822(9)
C8 C 0.4148(3) 0.41669(10) 0.46708(11)
H5 H 0.4737 0.4127 0.4724
C9 C 0.1438(3) 0.60858(9) 0.46994(10)
C10 C 0.3724(3) 0.49023(12) 0.66202(10)
H6 H 0.3372 0.4822 0.6784
C11 C 0.5016(3) 0.51365(10) 0.64533(9)
H7 H 0.5576 0.5218 0.6499
C12 C 0.2727(3) 0.39949(10) 0.44997(11)
H8 H 0.2336 0.3835 0.4435
C13 C 0.2769(3) 0.47755(10) 0.53040(9)
H9 H 0.2425 0.4606 0.5230
C14 C 0.2448(3) 0.43073(10) 0.45128(10)
H10 H 0.1865 0.4354 0.4457
C15 C 0.3058(3) 0.47683(11) 0.56198(9)
H11 H 0.2912 0.4597 0.5752
C16 C 0.3759(3) 0.52653(10) 0.55261(9)
H12 H 0.4104 0.5437 0.5594
C17 C 0.1280(4) 0.58721(11) 0.49468(10)
H13 H 0.0949 0.5935 0.5123
C18 C 0.3398(3) 0.48988(12) 0.63157(10)
H14 H 0.2840 0.4813 0.6275
C19 C 0.4721(3) 0.51446(11) 0.61426(9)
H15 H 0.5075 0.5232 0.5983
C20 C 0.1954(3) 0.59801(11) 0.44460(11)
H16 H 0.2080 0.6116 0.4276
N4 N 0.4531(2) 0.50167(7) 0.66916(7)
O1 O 0.3950(3) 0.51902(9) 0.44179(10)
O2 O 0.1048(3) 0.48069(11) 0.48362(9)
H17 H 0.0875 0.4785 0.5028
H18 H 0.0667 0.4705 0.4727
N5 N 0.4483(7) 0.5395(3) 0.4466(2)
O3 O 0.4892(7) 0.5585(3) 0.4668(2)
O4 O 0.4726(12) 0.5566(4) 0.4215(4)
N6 N 0.0399(2) 0.70356(7) 0.46802(7)
C21 C 0.0223(3) 0.68269(10) 0.44486(10)
C22 C 0.0882(3) 0.69322(10) 0.49279(10)
H20 H 0.0993 0.7074 0.5095
C23 C 0.1062(3) 0.64142(9) 0.46994(10)
C24 C 0.1220(4) 0.66279(11) 0.49468(10)
H21 H 0.1551 0.6565 0.5123
C25 C 0.0546(3) 0.65199(11) 0.44460(11)
H22 H 0.0420 0.6384 0.4276
N7 N 0.4520(2) 0.29520(7) 0.46032(7)
C26 C 0.3686(3) 0.30216(10) 0.46793(10)
H23 H 0.3310 0.2856 0.4741
C27 C 0.3908(3) 0.35822(9) 0.45822(9)
C28 C 0.3352(3) 0.33331(10) 0.46708(11)
H24 H 0.2763 0.3373 0.4724
C29 C 0.4773(3) 0.35051(10) 0.44997(11)
H25 H 0.5164 0.3665 0.4435
C30 C 0.5052(3) 0.31927(10) 0.45128(10)
H26 H 0.5635 0.3146 0.4457
H30 H 0.0075 0.7894 0.5230
O6 O 0.1452(3) 0.76931(11) 0.48362(9)
H35 H 0.1625 0.7715 0.5028
H36 H 0.1833 0.7795 0.4727
Cu3 Cu 0.49872(4) 0.24983(2) 0.46461(2)
Cu5 Cu 0.50128(4) 0.49983(2) 0.71461(2)
N12 N 0.2031(2) 0.49833(7) 0.41916(7)
N13 N 0.0469(2) 0.75167(7) 0.41916(7)
H19 H 0.9864 0.6893 0.4280
Cu2 Cu 0.99872(4) 0.74983(2) 0.46461(2)
N8 N 0.9540(2) 0.74880(7) 0.51044(7)
C31 C 0.8938(3) 0.74814(10) 0.57339(8)
C32 C 0.8607(3) 0.74784(9) 0.60688(9)
C33 C 0.9061(3) 0.72436(10) 0.52145(9)
H27 H 0.8935 0.7073 0.5079
C34 C 0.8776(3) 0.75977(12) 0.66202(10)
H28 H 0.9128 0.7678 0.6784
C35 C 0.7484(3) 0.73635(10) 0.64533(9)
H29 H 0.6924 0.7282 0.6499
C36 C 0.9731(3) 0.77245(10) 0.53040(9)
C37 C 0.9442(3) 0.77317(11) 0.56198(9)
H31 H 0.9588 0.7903 0.5752
C38 C 0.8741(3) 0.72347(10) 0.55261(9)
H32 H 0.8396 0.7063 0.5594
C39 C 0.9102(3) 0.76012(12) 0.63157(10)
H33 H 0.9660 0.7687 0.6275
C40 C 0.7779(3) 0.73554(11) 0.61426(9)
H34 H 0.7425 0.7268 0.5983
N9 N 0.7969(2) 0.74833(7) 0.66916(7)
O5 O 0.8550(3) 0.73098(9) 0.44179(10)
N10 N 0.8017(7) 0.7105(3) 0.4466(2)
O7 O 0.7608(7) 0.6915(3) 0.4668(2)
O8 O 0.7774(12) 0.6934(4) 0.4215(4)
Cu4 Cu 0.74872(4) 0.75017(2) 0.71461(2)
N11 N 0.9520(2) 0.79520(7) 0.46032(7)
H8_2 H 0.0164 0.8665 0.4435
C14_2 C 0.0052(3) 0.81927(10) 0.45128(10)
H10_2 H 0.0635 0.8146 0.4457
Cu3_2 Cu 0.75128(4) 0.00017(2) 0.46461(2)
C5_2 C 0.8686(3) 0.80216(10) 0.46793(10)
H3_2 H 0.8310 0.7856 0.4741
C7_2 C 0.8908(3) 0.85822(9) 0.45822(9)
C8_2 C 0.8352(3) 0.83331(10) 0.46708(11)
H5_2 H 0.7763 0.8373 0.4724
C12_2 C 0.9773(3) 0.85051(10) 0.44997(11)
N7_2 N 0.7980(2) 0.95480(7) 0.46032(7)
C26_2 C 0.8814(3) 0.94784(10) 0.46793(10)
H23_2 H 0.9190 0.9644 0.4741
C27_2 C 0.8592(3) 0.89178(9) 0.45822(9)
C28_2 C 0.9148(3) 0.91669(10) 0.46708(11)
H24_2 H 0.9737 0.9127 0.4724
C29_2 C 0.7727(3) 0.89949(10) 0.44997(11)
H25_2 H 0.7336 0.8835 0.4435
C30_2 C 0.7448(3) 0.93073(10) 0.45128(10)
H26_2 H 0.6865 0.9354 0.4457
N2_2 N 0.2960(2) 0.00120(7) 0.01044(7)
C1_2 C 0.3562(3) 0.00186(10) 0.07339(8)
C3_2 C 0.3893(3) 0.00216(9) 0.10688(9)
H2_2 H 0.1507 0.0426 0.0095
C6_2 C 0.3439(3) 0.02564(10) 0.02145(9)
H4_2 H 0.3565 0.0427 0.0079
C11_2 C 0.5016(3) 0.01365(10) 0.14533(9)
H7_2 H 0.5576 0.0218 0.1499
C16_2 C 0.3759(3) 0.02653(10) 0.05261(9)
H12_2 H 0.4104 0.0437 0.0594
H13_2 H 0.0949 0.0935 0.0123
C19_2 C 0.4721(3) 0.01446(11) 0.11426(9)
H15_2 H 0.5075 0.0232 0.0983
N4_2 N 0.4531(2) 0.00167(7) 0.16916(7)
H20_2 H 0.0993 0.2074 0.0095
H21_2 H 0.1551 0.1565 0.0123
H30_2 H 0.0075 0.2894 0.0230
H35_2 H 0.1625 0.2715 0.0028
Cu1_2 Cu 0.25128(4) 0.00017(2) 0.96461(2)
N1_2 N 0.2101(2) 0.04644(7) 0.96802(7)
C2_2 C 0.2277(3) 0.06731(10) 0.94486(10)
H1_2 H 0.2636 0.0607 0.9280
C4_2 C 0.1618(3) 0.05678(10) 0.99279(10)
C9_2 C 0.1438(3) 0.10858(9) 0.96994(10)
C17_2 C 0.1280(4) 0.08721(11) 0.99468(10)
C20_2 C 0.1954(3) 0.09801(11) 0.94460(11)
H16_2 H 0.2080 0.1116 0.9276
O1_2 O 0.3950(3) 0.01902(9) 0.94179(10)
N5_2 N 0.4483(7) 0.0395(3) 0.9466(2)
O3_2 O 0.4892(7) 0.0585(3) 0.9668(2)
O4_2 O 0.4726(12) 0.0566(4) 0.9215(4)
N6_2 N 0.0399(2) 0.20356(7) 0.96802(7)
C21_2 C 0.0223(3) 0.18269(10) 0.94486(10)
C22_2 C 0.0882(3) 0.19322(10) 0.99279(10)
C23_2 C 0.1062(3) 0.14142(9) 0.96994(10)
C24_2 C 0.1220(4) 0.16279(11) 0.99468(10)
C25_2 C 0.0546(3) 0.15199(11) 0.94460(11)
H22_2 H 0.0420 0.1384 0.9276
O6_2 O 0.1452(3) 0.26931(11) 0.98362(9)
H36_2 H 0.1833 0.2795 0.9727
N13_2 N 0.0469(2) 0.25167(7) 0.91916(7)
C10_2 C 0.3724(3) 0.99023(12) 0.16202(10)
H6_2 H 0.3372 0.9822 0.1784
C13_2 C 0.2769(3) 0.97755(10) 0.03040(9)
H9_2 H 0.2425 0.9606 0.0230
C15_2 C 0.3058(3) 0.97683(11) 0.06198(9)
H11_2 H 0.2912 0.9597 0.0752
C18_2 C 0.3398(3) 0.98988(12) 0.13157(10)
H14_2 H 0.2840 0.9813 0.1275
H17_2 H 0.0875 0.9785 0.0028
Cu5_2 Cu 0.50128(4) 0.99983(2) 0.21461(2)
N3_2 N 0.2980(2) 0.95480(7) 0.96032(7)
C5_3 C 0.3814(3) 0.94784(10) 0.96793(10)
H3_3 H 0.4190 0.9644 0.9741
C7_3 C 0.3592(3) 0.89178(9) 0.95822(9)
C8_3 C 0.4148(3) 0.91669(10) 0.96708(11)
H5_3 H 0.4737 0.9127 0.9724
C12_3 C 0.2727(3) 0.89949(10) 0.94997(11)
H8_3 H 0.2336 0.8835 0.9435
C14_3 C 0.2448(3) 0.93073(10) 0.95128(10)
H10_3 H 0.1865 0.9354 0.9457
O2_2 O 0.1048(3) 0.98069(11) 0.98362(9)
H18_2 H 0.0667 0.9705 0.9727
N7_3 N 0.4520(2) 0.79520(7) 0.96032(7)
C26_3 C 0.3686(3) 0.80216(10) 0.96793(10)
H23_3 H 0.3310 0.7856 0.9741
C27_3 C 0.3908(3) 0.85822(9) 0.95822(9)
C28_3 C 0.3352(3) 0.83331(10) 0.96708(11)
H24_3 H 0.2763 0.8373 0.9724
C29_3 C 0.4773(3) 0.85051(10) 0.94997(11)
H25_3 H 0.5164 0.8665 0.9435
C30_3 C 0.5052(3) 0.81927(10) 0.95128(10)
H26_3 H 0.5635 0.8146 0.9457
Cu3_3 Cu 0.49872(4) 0.74983(2) 0.96461(2)
N12_2 N 0.2031(2) 0.99833(7) 0.91916(7)
N8_2 N 0.9540(2) 0.24880(7) 0.01044(7)
C31_2 C 0.8938(3) 0.24814(10) 0.07339(8)
C32_2 C 0.8607(3) 0.24784(9) 0.10688(9)
C33_2 C 0.9061(3) 0.22436(10) 0.02145(9)
H27_2 H 0.8935 0.2073 0.0079
C34_2 C 0.8776(3) 0.25977(12) 0.16202(10)
H28_2 H 0.9128 0.2678 0.1784
C35_2 C 0.7484(3) 0.23635(10) 0.14533(9)
H29_2 H 0.6924 0.2282 0.1499
C36_2 C 0.9731(3) 0.27245(10) 0.03040(9)
C37_2 C 0.9442(3) 0.27317(11) 0.06198(9)
H31_2 H 0.9588 0.2903 0.0752
C38_2 C 0.8741(3) 0.22347(10) 0.05261(9)
H32_2 H 0.8396 0.2063 0.0594
C39_2 C 0.9102(3) 0.26012(12) 0.13157(10)
H33_2 H 0.9660 0.2687 0.1275
C40_2 C 0.7779(3) 0.23554(11) 0.11426(9)
H34_2 H 0.7425 0.2268 0.0983
N9_2 N 0.7969(2) 0.24833(7) 0.16916(7)
Cu4_2 Cu 0.74872(4) 0.25017(2) 0.21461(2)
H19_2 H 0.9864 0.1893 0.9280
Cu2_2 Cu 0.99872(4) 0.24983(2) 0.96461(2)
O5_2 O 0.8550(3) 0.23098(9) 0.94179(10)
N10_2 N 0.8017(7) 0.2105(3) 0.9466(2)
O7_2 O 0.7608(7) 0.1915(3) 0.9668(2)
O8_2 O 0.7774(12) 0.1934(4) 0.9215(4)
N11_2 N 0.9520(2) 0.29520(7) 0.96032(7)
H8_4 H 0.0164 0.3665 0.9435
C14_4 C 0.0052(3) 0.31927(10) 0.95128(10)
H10_4 H 0.0635 0.3146 0.9457
C5_4 C 0.8686(3) 0.30216(10) 0.96793(10)
H3_4 H 0.8310 0.2856 0.9741
C7_4 C 0.8908(3) 0.35822(9) 0.95822(9)
C8_4 C 0.8352(3) 0.33331(10) 0.96708(11)
H5_4 H 0.7763 0.3373 0.9724
C12_4 C 0.9773(3) 0.35051(10) 0.94997(11)
N7_4 N 0.7980(2) 0.45480(7) 0.96032(7)
C26_4 C 0.8814(3) 0.44784(10) 0.96793(10)
H23_4 H 0.9190 0.4644 0.9741
C27_4 C 0.8592(3) 0.39178(9) 0.95822(9)
C28_4 C 0.9148(3) 0.41669(10) 0.96708(11)
H24_4 H 0.9737 0.4127 0.9724
C29_4 C 0.7727(3) 0.39949(10) 0.94997(11)
H25_4 H 0.7336 0.3835 0.9435
C30_4 C 0.7448(3) 0.43073(10) 0.95128(10)
H26_4 H 0.6865 0.4354 0.9457
Cu3_4 Cu 0.75128(4) 0.50017(2) 0.96461(2)
C11_3 C 0.0016(3) 0.51365(10) 0.14533(9)
H7_3 H 0.0576 0.5218 0.1499
H15_3 H 0.0075 0.5232 0.0983
Cu5_3 Cu 0.00128(4) 0.49983(2) 0.21461(2)
N2_3 N 0.7960(2) 0.50120(7) 0.01044(7)
C1_3 C 0.8562(3) 0.50186(10) 0.07339(8)
C3_3 C 0.8893(3) 0.50216(9) 0.10688(9)
H2_3 H 0.6507 0.5426 0.0095
C6_3 C 0.8439(3) 0.52564(10) 0.02145(9)
H4_3 H 0.8565 0.5427 0.0079
C10_3 C 0.8724(3) 0.49023(12) 0.16202(10)
H6_3 H 0.8372 0.4822 0.1784
C13_3 C 0.7769(3) 0.47755(10) 0.03040(9)
H9_3 H 0.7425 0.4606 0.0230
C15_3 C 0.8058(3) 0.47683(11) 0.06198(9)
H11_3 H 0.7912 0.4597 0.0752
C16_3 C 0.8759(3) 0.52653(10) 0.05261(9)
H12_3 H 0.9104 0.5437 0.0594
H13_3 H 0.5949 0.5935 0.0123
C18_3 C 0.8398(3) 0.48988(12) 0.13157(10)
H14_3 H 0.7840 0.4813 0.1275
C19_3 C 0.9721(3) 0.51446(11) 0.11426(9)
N4_3 N 0.9531(2) 0.50167(7) 0.16916(7)
H17_3 H 0.5875 0.4785 0.0028
H20_3 H 0.5993 0.7074 0.0095
H21_3 H 0.6551 0.6565 0.0123
N8_3 N 0.4540(2) 0.74880(7) 0.01044(7)
C31_3 C 0.3938(3) 0.74814(10) 0.07339(8)
C32_3 C 0.3607(3) 0.74784(9) 0.10688(9)
C33_3 C 0.4061(3) 0.72436(10) 0.02145(9)
H27_3 H 0.3935 0.7073 0.0079
C34_3 C 0.3776(3) 0.75977(12) 0.16202(10)
H28_3 H 0.4128 0.7678 0.1784
C35_3 C 0.2484(3) 0.73635(10) 0.14533(9)
H29_3 H 0.1924 0.7282 0.1499
C36_3 C 0.4731(3) 0.77245(10) 0.03040(9)
H30_3 H 0.5075 0.7894 0.0230
C37_3 C 0.4442(3) 0.77317(11) 0.06198(9)
H31_3 H 0.4588 0.7903 0.0752
C38_3 C 0.3741(3) 0.72347(10) 0.05261(9)
H32_3 H 0.3396 0.7063 0.0594
C39_3 C 0.4102(3) 0.76012(12) 0.13157(10)
H33_3 H 0.4660 0.7687 0.1275
C40_3 C 0.2779(3) 0.73554(11) 0.11426(9)
H34_3 H 0.2425 0.7268 0.0983
N9_3 N 0.2969(2) 0.74833(7) 0.16916(7)
H35_3 H 0.6625 0.7715 0.0028
Cu4_3 Cu 0.24872(4) 0.75017(2) 0.21461(2)
N1_3 N 0.7101(2) 0.54644(7) 0.96802(7)
C2_3 C 0.7277(3) 0.56731(10) 0.94486(10)
H1_3 H 0.7636 0.5607 0.9280
C4_3 C 0.6618(3) 0.55678(10) 0.99279(10)
C9_3 C 0.6438(3) 0.60858(9) 0.96994(10)
C17_3 C 0.6280(4) 0.58721(11) 0.99468(10)
C20_3 C 0.6954(3) 0.59801(11) 0.94460(11)
H16_3 H 0.7080 0.6116 0.9276
O1_3 O 0.8950(3) 0.51902(9) 0.94179(10)
O2_3 O 0.6048(3) 0.48069(11) 0.98362(9)
H18_3 H 0.5667 0.4705 0.9727
N5_3 N 0.9483(7) 0.5395(3) 0.9466(2)
O3_3 O 0.9892(7) 0.5585(3) 0.9668(2)
O4_3 O 0.9726(12) 0.5566(4) 0.9215(4)
N6_3 N 0.5399(2) 0.70356(7) 0.96802(7)
C21_3 C 0.5223(3) 0.68269(10) 0.94486(10)
H19_3 H 0.4864 0.6893 0.9280
C22_3 C 0.5882(3) 0.69322(10) 0.99279(10)
C23_3 C 0.6062(3) 0.64142(9) 0.96994(10)
C24_3 C 0.6220(4) 0.66279(11) 0.99468(10)
C25_3 C 0.5546(3) 0.65199(11) 0.94460(11)
H22_3 H 0.5420 0.6384 0.9276
O5_3 O 0.3550(3) 0.73098(9) 0.94179(10)
O6_3 O 0.6452(3) 0.76931(11) 0.98362(9)
H36_3 H 0.6833 0.7795 0.9727
N10_3 N 0.3017(7) 0.7105(3) 0.9466(2)
O7_3 O 0.2608(7) 0.6915(3) 0.9668(2)
O8_3 O 0.2774(12) 0.6934(4) 0.9215(4)
N12_3 N 0.7031(2) 0.49833(7) 0.91916(7)
N13_3 N 0.5469(2) 0.75167(7) 0.91916(7)
Cu5_4 Cu 0.00128(4) 0.99983(2) 0.71461(2)
N1_4 N 0.7101(2) 0.04644(7) 0.46802(7)
N2_4 N 0.7960(2) 0.00120(7) 0.51044(7)
C1_4 C 0.8562(3) 0.00186(10) 0.57339(8)
C2_4 C 0.7277(3) 0.06731(10) 0.44486(10)
H1_4 H 0.7636 0.0607 0.4280
C3_4 C 0.8893(3) 0.00216(9) 0.60688(9)
C4_4 C 0.6618(3) 0.05678(10) 0.49279(10)
H2_4 H 0.6507 0.0426 0.5095
C6_4 C 0.8439(3) 0.02564(10) 0.52145(9)
H4_4 H 0.8565 0.0427 0.5079
C9_4 C 0.6438(3) 0.10858(9) 0.46994(10)
C16_4 C 0.8759(3) 0.02653(10) 0.55261(9)
H12_4 H 0.9104 0.0437 0.5594
C17_4 C 0.6280(4) 0.08721(11) 0.49468(10)
H13_4 H 0.5949 0.0935 0.5123
C19_4 C 0.9721(3) 0.01446(11) 0.61426(9)
C20_4 C 0.6954(3) 0.09801(11) 0.44460(11)
H16_4 H 0.7080 0.1116 0.4276
N4_4 N 0.9531(2) 0.00167(7) 0.66916(7)
O1_4 O 0.8950(3) 0.01902(9) 0.44179(10)
N5_4 N 0.9483(7) 0.0395(3) 0.4466(2)
O3_4 O 0.9892(7) 0.0585(3) 0.4668(2)
O4_4 O 0.9726(12) 0.0566(4) 0.4215(4)
N6_4 N 0.5399(2) 0.20356(7) 0.46802(7)
C21_4 C 0.5223(3) 0.18269(10) 0.44486(10)
H19_4 H 0.4864 0.1893 0.4280
C22_4 C 0.5882(3) 0.19322(10) 0.49279(10)
H20_4 H 0.5993 0.2074 0.5095
C23_4 C 0.6062(3) 0.14142(9) 0.46994(10)
C24_4 C 0.6220(4) 0.16279(11) 0.49468(10)
H21_4 H 0.6551 0.1565 0.5123
C25_4 C 0.5546(3) 0.15199(11) 0.44460(11)
H22_4 H 0.5420 0.1384 0.4276
N8_4 N 0.4540(2) 0.24880(7) 0.51044(7)
C31_4 C 0.3938(3) 0.24814(10) 0.57339(8)
C32_4 C 0.3607(3) 0.24784(9) 0.60688(9)
C33_4 C 0.4061(3) 0.22436(10) 0.52145(9)
H27_4 H 0.3935 0.2073 0.5079
C34_4 C 0.3776(3) 0.25977(12) 0.66202(10)
H28_4 H 0.4128 0.2678 0.6784
C35_4 C 0.2484(3) 0.23635(10) 0.64533(9)
H29_4 H 0.1924 0.2282 0.6499
C36_4 C 0.4731(3) 0.27245(10) 0.53040(9)
H30_4 H 0.5075 0.2894 0.5230
C37_4 C 0.4442(3) 0.27317(11) 0.56198(9)
H31_4 H 0.4588 0.2903 0.5752
C38_4 C 0.3741(3) 0.22347(10) 0.55261(9)
H32_4 H 0.3396 0.2063 0.5594
C39_4 C 0.4102(3) 0.26012(12) 0.63157(10)
H33_4 H 0.4660 0.2687 0.6275
C40_4 C 0.2779(3) 0.23554(11) 0.61426(9)
H34_4 H 0.2425 0.2268 0.5983
N9_4 N 0.2969(2) 0.24833(7) 0.66916(7)
O5_4 O 0.3550(3) 0.23098(9) 0.44179(10)
O6_4 O 0.6452(3) 0.26931(11) 0.48362(9)
H35_4 H 0.6625 0.2715 0.5028
H36_4 H 0.6833 0.2795 0.4727
N10_4 N 0.3017(7) 0.2105(3) 0.4466(2)
O7_4 O 0.2608(7) 0.1915(3) 0.4668(2)
O8_4 O 0.2774(12) 0.1934(4) 0.4215(4)
Cu4_4 Cu 0.24872(4) 0.25017(2) 0.71461(2)
N13_4 N 0.5469(2) 0.25167(7) 0.41916(7)
C10_4 C 0.8724(3) 0.99023(12) 0.66202(10)
H6_4 H 0.8372 0.9822 0.6784
C13_4 C 0.7769(3) 0.97755(10) 0.53040(9)
H9_4 H 0.7425 0.9606 0.5230
C15_4 C 0.8058(3) 0.97683(11) 0.56198(9)
H11_4 H 0.7912 0.9597 0.5752
C18_4 C 0.8398(3) 0.98988(12) 0.63157(10)
H14_4 H 0.7840 0.9813 0.6275
O2_4 O 0.6048(3) 0.98069(11) 0.48362(9)
H17_4 H 0.5875 0.9785 0.5028
H18_4 H 0.5667 0.9705 0.4727
N12_4 N 0.7031(2) 0.99833(7) 0.41916(7)
H19_5 H 0.0136 0.4393 0.1780
N8_5 N 0.0460(2) 0.49880(7) 0.26044(7)
C31_5 C 0.1062(3) 0.49814(10) 0.32339(8)
C32_5 C 0.1393(3) 0.49784(9) 0.35688(9)
C33_5 C 0.0939(3) 0.47436(10) 0.27145(9)
H27_5 H 0.1065 0.4573 0.2579
C34_5 C 0.1224(3) 0.50977(12) 0.41202(10)
H28_5 H 0.0872 0.5178 0.4284
C35_5 C 0.2516(3) 0.48635(10) 0.39533(9)
H29_5 H 0.3076 0.4782 0.3999
C36_5 C 0.0269(3) 0.52245(10) 0.28040(9)
C37_5 C 0.0558(3) 0.52317(11) 0.31198(9)
H31_5 H 0.0412 0.5403 0.3252
C38_5 C 0.1259(3) 0.47347(10) 0.30261(9)
H32_5 H 0.1604 0.4563 0.3094
C39_5 C 0.0898(3) 0.51012(12) 0.38157(10)
H33_5 H 0.0340 0.5187 0.3775
C40_5 C 0.2221(3) 0.48554(11) 0.36426(9)
H34_5 H 0.2575 0.4768 0.3483
O5_5 O 0.1450(3) 0.48098(9) 0.19179(10)
N10_5 N 0.1983(7) 0.4605(3) 0.1966(2)
O7_5 O 0.2392(7) 0.4415(3) 0.2168(2)
O8_5 O 0.2226(12) 0.4434(4) 0.1715(4)
N11_3 N 0.0480(2) 0.54520(7) 0.21032(7)
N1_5 N 0.7899(2) 0.29644(7) 0.21802(7)
N2_5 N 0.7040(2) 0.25120(7) 0.26044(7)
N3_3 N 0.7020(2) 0.20480(7) 0.21032(7)
C1_5 C 0.6438(3) 0.25186(10) 0.32339(8)
C2_5 C 0.7723(3) 0.31731(10) 0.19486(10)
H1_5 H 0.7364 0.3107 0.1780
C3_5 C 0.6107(3) 0.25216(9) 0.35688(9)
C4_5 C 0.8382(3) 0.30678(10) 0.24279(10)
H2_5 H 0.8493 0.2926 0.2595
C5_5 C 0.6186(3) 0.19784(10) 0.21793(10)
H3_5 H 0.5810 0.2144 0.2241
C6_5 C 0.6561(3) 0.27564(10) 0.27145(9)
H4_5 H 0.6435 0.2927 0.2579
C7_5 C 0.6408(3) 0.14178(9) 0.20822(9)
C8_5 C 0.5852(3) 0.16669(10) 0.21708(11)
H5_5 H 0.5263 0.1627 0.2224
C9_5 C 0.8562(3) 0.35858(9) 0.21994(10)
C10_5 C 0.6276(3) 0.24023(12) 0.41202(10)
H6_5 H 0.6628 0.2322 0.4284
C11_4 C 0.4984(3) 0.26365(10) 0.39533(9)
H7_4 H 0.4424 0.2718 0.3999
C12_5 C 0.7273(3) 0.14949(10) 0.19997(11)
H8_5 H 0.7664 0.1335 0.1935
C13_5 C 0.7231(3) 0.22755(10) 0.28040(9)
H9_5 H 0.7575 0.2106 0.2730
C14_5 C 0.7552(3) 0.18073(10) 0.20128(10)
H10_5 H 0.8135 0.1854 0.1957
C15_5 C 0.6942(3) 0.22683(11) 0.31198(9)
H11_5 H 0.7088 0.2097 0.3252
C16_5 C 0.6241(3) 0.27653(10) 0.30261(9)
H12_5 H 0.5896 0.2937 0.3094
C17_5 C 0.8720(4) 0.33721(11) 0.24468(10)
H13_5 H 0.9051 0.3435 0.2623
C18_5 C 0.6602(3) 0.23988(12) 0.38157(10)
H14_5 H 0.7160 0.2313 0.3775
C19_5 C 0.5279(3) 0.26446(11) 0.36426(9)
H15_4 H 0.4925 0.2732 0.3483
C20_5 C 0.8046(3) 0.34801(11) 0.19460(11)
H16_5 H 0.7920 0.3616 0.1776
O1_5 O 0.6050(3) 0.26902(9) 0.19179(10)
O2_5 O 0.8952(3) 0.23069(11) 0.23362(9)
H17_5 H 0.9125 0.2285 0.2528
H18_5 H 0.9333 0.2205 0.2227
N5_5 N 0.5517(7) 0.2895(3) 0.1966(2)
O3_5 O 0.5108(7) 0.3085(3) 0.2168(2)
O4_5 O 0.5274(12) 0.3066(4) 0.1715(4)
N6_5 N 0.9601(2) 0.45356(7) 0.21802(7)
C21_5 C 0.9777(3) 0.43269(10) 0.19486(10)
C22_5 C 0.9118(3) 0.44322(10) 0.24279(10)
H20_5 H 0.9007 0.4574 0.2595
C23_5 C 0.8938(3) 0.39142(9) 0.21994(10)
C24_5 C 0.8780(4) 0.41279(11) 0.24468(10)
H21_5 H 0.8449 0.4065 0.2623
C25_5 C 0.9454(3) 0.40199(11) 0.19460(11)
H22_5 H 0.9580 0.3884 0.1776
N7_5 N 0.5480(2) 0.04520(7) 0.21032(7)
C26_5 C 0.6314(3) 0.05216(10) 0.21793(10)
H23_5 H 0.6690 0.0356 0.2241
C27_5 C 0.6092(3) 0.10822(9) 0.20822(9)
C28_5 C 0.6648(3) 0.08331(10) 0.21708(11)
H24_5 H 0.7237 0.0873 0.2224
C29_5 C 0.5227(3) 0.10051(10) 0.19997(11)
H25_5 H 0.4836 0.1165 0.1935
C30_5 C 0.4948(3) 0.06927(10) 0.20128(10)
H26_5 H 0.4365 0.0646 0.1957
H30_5 H 0.9925 0.5394 0.2730
O6_5 O 0.8548(3) 0.51931(11) 0.23362(9)
H35_5 H 0.8375 0.5215 0.2528
H36_5 H 0.8167 0.5295 0.2227
C5_6 C 0.1314(3) 0.55216(10) 0.21793(10)
H3_6 H 0.1690 0.5356 0.2241
C7_6 C 0.1092(3) 0.60822(9) 0.20822(9)
C8_6 C 0.1648(3) 0.58331(10) 0.21708(11)
H5_6 H 0.2237 0.5873 0.2224
C12_6 C 0.0227(3) 0.60051(10) 0.19997(11)
N7_6 N 0.2020(2) 0.70480(7) 0.21032(7)
C26_6 C 0.1186(3) 0.69784(10) 0.21793(10)
H23_6 H 0.0810 0.7144 0.2241
C27_6 C 0.1408(3) 0.64178(9) 0.20822(9)
C28_6 C 0.0852(3) 0.66669(10) 0.21708(11)
H24_6 H 0.0263 0.6627 0.2224
C29_6 C 0.2273(3) 0.64949(10) 0.19997(11)
H25_6 H 0.2664 0.6335 0.1935
C30_6 C 0.2552(3) 0.68073(10) 0.20128(10)
H26_6 H 0.3135 0.6854 0.1957
H8_6 H 0.9836 0.6165 0.1935
C14_6 C 0.9948(3) 0.56927(10) 0.20128(10)
H10_6 H 0.9365 0.5646 0.1957
C34_6 C 0.1224(3) 0.00977(12) 0.91202(10)
H28_6 H 0.0872 0.0178 0.9284
C36_6 C 0.0269(3) 0.02245(10) 0.78040(9)
C37_6 C 0.0558(3) 0.02317(11) 0.81198(9)
H31_6 H 0.0412 0.0403 0.8252
C39_6 C 0.0898(3) 0.01012(12) 0.88157(10)
H33_6 H 0.0340 0.0187 0.8775
N11_4 N 0.0480(2) 0.04520(7) 0.71032(7)
H19_6 H 0.0136 0.9393 0.6780
N8_6 N 0.0460(2) 0.99880(7) 0.76044(7)
C31_6 C 0.1062(3) 0.99814(10) 0.82339(8)
C32_6 C 0.1393(3) 0.99784(9) 0.85688(9)
C33_6 C 0.0939(3) 0.97436(10) 0.77145(9)
H27_6 H 0.1065 0.9573 0.7579
C35_6 C 0.2516(3) 0.98635(10) 0.89533(9)
H29_6 H 0.3076 0.9782 0.8999
C38_6 C 0.1259(3) 0.97347(10) 0.80261(9)
H32_6 H 0.1604 0.9563 0.8094
C40_6 C 0.2221(3) 0.98554(11) 0.86426(9)
H34_6 H 0.2575 0.9768 0.8483
O5_6 O 0.1450(3) 0.98098(9) 0.69179(10)
N10_6 N 0.1983(7) 0.9605(3) 0.6966(2)
O7_6 O 0.2392(7) 0.9415(3) 0.7168(2)
O8_6 O 0.2226(12) 0.9434(4) 0.6715(4)
H30_6 H 0.9925 0.0394 0.7730
O6_6 O 0.8548(3) 0.01931(11) 0.73362(9)
H35_6 H 0.8375 0.0215 0.7528
H36_6 H 0.8167 0.0295 0.7227
N1_6 N 0.7899(2) 0.79644(7) 0.71802(7)
N2_6 N 0.7040(2) 0.75120(7) 0.76044(7)
N3_4 N 0.7020(2) 0.70480(7) 0.71032(7)
C1_6 C 0.6438(3) 0.75186(10) 0.82339(8)
C2_6 C 0.7723(3) 0.81731(10) 0.69486(10)
H1_6 H 0.7364 0.8107 0.6780
C3_6 C 0.6107(3) 0.75216(9) 0.85688(9)
C4_6 C 0.8382(3) 0.80678(10) 0.74279(10)
H2_6 H 0.8493 0.7926 0.7595
C5_7 C 0.6186(3) 0.69784(10) 0.71793(10)
H3_7 H 0.5810 0.7144 0.7241
C6_6 C 0.6561(3) 0.77564(10) 0.77145(9)
H4_6 H 0.6435 0.7927 0.7579
C7_7 C 0.6408(3) 0.64178(9) 0.70822(9)
C8_7 C 0.5852(3) 0.66669(10) 0.71708(11)
H5_7 H 0.5263 0.6627 0.7224
C9_6 C 0.8562(3) 0.85858(9) 0.71994(10)
C10_6 C 0.6276(3) 0.74023(12) 0.91202(10)
H6_6 H 0.6628 0.7322 0.9284
C11_5 C 0.4984(3) 0.76365(10) 0.89533(9)
H7_5 H 0.4424 0.7718 0.8999
C12_7 C 0.7273(3) 0.64949(10) 0.69997(11)
H8_7 H 0.7664 0.6335 0.6935
C13_6 C 0.7231(3) 0.72755(10) 0.78040(9)
H9_6 H 0.7575 0.7106 0.7730
C14_7 C 0.7552(3) 0.68073(10) 0.70128(10)
H10_7 H 0.8135 0.6854 0.6957
C15_6 C 0.6942(3) 0.72683(11) 0.81198(9)
H11_6 H 0.7088 0.7097 0.8252
C16_6 C 0.6241(3) 0.77653(10) 0.80261(9)
H12_6 H 0.5896 0.7937 0.8094
C17_6 C 0.8720(4) 0.83721(11) 0.74468(10)
H13_6 H 0.9051 0.8435 0.7623
C18_6 C 0.6602(3) 0.73988(12) 0.88157(10)
H14_6 H 0.7160 0.7313 0.8775
C19_6 C 0.5279(3) 0.76446(11) 0.86426(9)
H15_5 H 0.4925 0.7732 0.8483
C20_6 C 0.8046(3) 0.84801(11) 0.69460(11)
H16_6 H 0.7920 0.8616 0.6776
O1_6 O 0.6050(3) 0.76902(9) 0.69179(10)
O2_6 O 0.8952(3) 0.73069(11) 0.73362(9)
H17_6 H 0.9125 0.7285 0.7528
H18_6 H 0.9333 0.7205 0.7227
N5_6 N 0.5517(7) 0.7895(3) 0.6966(2)
O3_6 O 0.5108(7) 0.8085(3) 0.7168(2)
O4_6 O 0.5274(12) 0.8066(4) 0.6715(4)
N6_6 N 0.9601(2) 0.95356(7) 0.71802(7)
C21_6 C 0.9777(3) 0.93269(10) 0.69486(10)
C22_6 C 0.9118(3) 0.94322(10) 0.74279(10)
H20_6 H 0.9007 0.9574 0.7595
C23_6 C 0.8938(3) 0.89142(9) 0.71994(10)
C24_6 C 0.8780(4) 0.91279(11) 0.74468(10)
H21_6 H 0.8449 0.9065 0.7623
C25_6 C 0.9454(3) 0.90199(11) 0.69460(11)
H22_6 H 0.9580 0.8884 0.6776
N7_7 N 0.5480(2) 0.54520(7) 0.71032(7)
C26_7 C 0.6314(3) 0.55216(10) 0.71793(10)
H23_7 H 0.6690 0.5356 0.7241
C27_7 C 0.6092(3) 0.60822(9) 0.70822(9)
C28_7 C 0.6648(3) 0.58331(10) 0.71708(11)
H24_7 H 0.7237 0.5873 0.7224
C29_7 C 0.5227(3) 0.60051(10) 0.69997(11)
H25_7 H 0.4836 0.6165 0.6935
C30_7 C 0.4948(3) 0.56927(10) 0.70128(10)
H26_7 H 0.4365 0.5646 0.6957
C5_8 C 0.1314(3) 0.05216(10) 0.71793(10)
H3_8 H 0.1690 0.0356 0.7241
C7_8 C 0.1092(3) 0.10822(9) 0.70822(9)
C8_8 C 0.1648(3) 0.08331(10) 0.71708(11)
H5_8 H 0.2237 0.0873 0.7224
C12_8 C 0.0227(3) 0.10051(10) 0.69997(11)
N7_8 N 0.2020(2) 0.20480(7) 0.71032(7)
C26_8 C 0.1186(3) 0.19784(10) 0.71793(10)
H23_8 H 0.0810 0.2144 0.7241
C27_8 C 0.1408(3) 0.14178(9) 0.70822(9)
C28_8 C 0.0852(3) 0.16669(10) 0.71708(11)
H24_8 H 0.0263 0.1627 0.7224
C29_8 C 0.2273(3) 0.14949(10) 0.69997(11)
H25_8 H 0.2664 0.1335 0.6935
C30_8 C 0.2552(3) 0.18073(10) 0.70128(10)
H26_8 H 0.3135 0.1854 0.6957
H8_8 H 0.9836 0.1165 0.6935
C14_8 C 0.9948(3) 0.06927(10) 0.70128(10)
H10_8 H 0.9365 0.0646 0.6957
N1_7 N 0.2899(2) 0.29644(7) 0.71802(7)
N2_7 N 0.2040(2) 0.25120(7) 0.76044(7)
C1_7 C 0.1438(3) 0.25186(10) 0.82339(8)
C2_7 C 0.2723(3) 0.31731(10) 0.69486(10)
H1_7 H 0.2364 0.3107 0.6780
C3_7 C 0.1107(3) 0.25216(9) 0.85688(9)
C4_7 C 0.3382(3) 0.30678(10) 0.74279(10)
H2_7 H 0.3493 0.2926 0.7595
C6_7 C 0.1561(3) 0.27564(10) 0.77145(9)
H4_7 H 0.1435 0.2927 0.7579
C9_7 C 0.3562(3) 0.35858(9) 0.71994(10)
C10_7 C 0.1276(3) 0.24023(12) 0.91202(10)
H6_7 H 0.1628 0.2322 0.9284
C13_7 C 0.2231(3) 0.22755(10) 0.78040(9)
H9_7 H 0.2575 0.2106 0.7730
C15_7 C 0.1942(3) 0.22683(11) 0.81198(9)
H11_7 H 0.2088 0.2097 0.8252
C16_7 C 0.1241(3) 0.27653(10) 0.80261(9)
H12_7 H 0.0896 0.2937 0.8094
C17_7 C 0.3720(4) 0.33721(11) 0.74468(10)
H13_7 H 0.4051 0.3435 0.7623
C18_7 C 0.1602(3) 0.23988(12) 0.88157(10)
H14_7 H 0.2160 0.2313 0.8775
C19_7 C 0.0279(3) 0.26446(11) 0.86426(9)
C20_7 C 0.3046(3) 0.34801(11) 0.69460(11)
H16_7 H 0.2920 0.3616 0.6776
O1_7 O 0.1050(3) 0.26902(9) 0.69179(10)
O2_7 O 0.3952(3) 0.23069(11) 0.73362(9)
H17_7 H 0.4125 0.2285 0.7528
H18_7 H 0.4333 0.2205 0.7227
N5_7 N 0.0517(7) 0.2895(3) 0.6966(2)
O3_7 O 0.0108(7) 0.3085(3) 0.7168(2)
O4_7 O 0.0274(12) 0.3066(4) 0.6715(4)
N6_7 N 0.4601(2) 0.45356(7) 0.71802(7)
C21_7 C 0.4777(3) 0.43269(10) 0.69486(10)
H19_7 H 0.5136 0.4393 0.6780
C22_7 C 0.4118(3) 0.44322(10) 0.74279(10)
H20_7 H 0.4007 0.4574 0.7595
C23_7 C 0.3938(3) 0.39142(9) 0.71994(10)
C24_7 C 0.3780(4) 0.41279(11) 0.74468(10)
H21_7 H 0.3449 0.4065 0.7623
C25_7 C 0.4454(3) 0.40199(11) 0.69460(11)
H22_7 H 0.4580 0.3884 0.6776
N8_7 N 0.5460(2) 0.49880(7) 0.76044(7)
C31_7 C 0.6062(3) 0.49814(10) 0.82339(8)
C32_7 C 0.6393(3) 0.49784(9) 0.85688(9)
C33_7 C 0.5939(3) 0.47436(10) 0.77145(9)
H27_7 H 0.6065 0.4573 0.7579
C34_7 C 0.6224(3) 0.50977(12) 0.91202(10)
H28_7 H 0.5872 0.5178 0.9284
C35_7 C 0.7516(3) 0.48635(10) 0.89533(9)
H29_7 H 0.8076 0.4782 0.8999
C36_7 C 0.5269(3) 0.52245(10) 0.78040(9)
H30_7 H 0.4925 0.5394 0.7730
C37_7 C 0.5558(3) 0.52317(11) 0.81198(9)
H31_7 H 0.5412 0.5403 0.8252
C38_7 C 0.6259(3) 0.47347(10) 0.80261(9)
H32_7 H 0.6604 0.4563 0.8094
C39_7 C 0.5898(3) 0.51012(12) 0.88157(10)
H33_7 H 0.5340 0.5187 0.8775
C40_7 C 0.7221(3) 0.48554(11) 0.86426(9)
H34_7 H 0.7575 0.4768 0.8483
O5_7 O 0.6450(3) 0.48098(9) 0.69179(10)
O6_7 O 0.3548(3) 0.51931(11) 0.73362(9)
H35_7 H 0.3375 0.5215 0.7528
H36_7 H 0.3167 0.5295 0.7227
N10_7 N 0.6983(7) 0.4605(3) 0.6966(2)
O7_7 O 0.7392(7) 0.4415(3) 0.7168(2)
O8_7 O 0.7226(12) 0.4434(4) 0.6715(4)
C11_6 C 0.9984(3) 0.26365(10) 0.89533(9)
H7_6 H 0.9424 0.2718 0.8999
H15_6 H 0.9925 0.2732 0.8483
C34_8 C 0.6224(3) 0.00977(12) 0.41202(10)
H28_8 H 0.5872 0.0178 0.4284
C36_8 C 0.5269(3) 0.02245(10) 0.28040(9)
H30_8 H 0.4925 0.0394 0.2730
C37_8 C 0.5558(3) 0.02317(11) 0.31198(9)
H31_8 H 0.5412 0.0403 0.3252
C39_8 C 0.5898(3) 0.01012(12) 0.38157(10)
H33_8 H 0.5340 0.0187 0.3775
O6_8 O 0.3548(3) 0.01931(11) 0.23362(9)
H35_8 H 0.3375 0.0215 0.2528
H36_8 H 0.3167 0.0295 0.2227
N1_8 N 0.2899(2) 0.79644(7) 0.21802(7)
N2_8 N 0.2040(2) 0.75120(7) 0.26044(7)
C1_8 C 0.1438(3) 0.75186(10) 0.32339(8)
C2_8 C 0.2723(3) 0.81731(10) 0.19486(10)
H1_8 H 0.2364 0.8107 0.1780
C3_8 C 0.1107(3) 0.75216(9) 0.35688(9)
C4_8 C 0.3382(3) 0.80678(10) 0.24279(10)
H2_8 H 0.3493 0.7926 0.2595
C6_8 C 0.1561(3) 0.77564(10) 0.27145(9)
H4_8 H 0.1435 0.7927 0.2579
C9_8 C 0.3562(3) 0.85858(9) 0.21994(10)
C10_8 C 0.1276(3) 0.74023(12) 0.41202(10)
H6_8 H 0.1628 0.7322 0.4284
C13_8 C 0.2231(3) 0.72755(10) 0.28040(9)
H9_8 H 0.2575 0.7106 0.2730
C15_8 C 0.1942(3) 0.72683(11) 0.31198(9)
H11_8 H 0.2088 0.7097 0.3252
C16_8 C 0.1241(3) 0.77653(10) 0.30261(9)
H12_8 H 0.0896 0.7937 0.3094
C17_8 C 0.3720(4) 0.83721(11) 0.24468(10)
H13_8 H 0.4051 0.8435 0.2623
C18_8 C 0.1602(3) 0.73988(12) 0.38157(10)
H14_8 H 0.2160 0.7313 0.3775
C19_8 C 0.0279(3) 0.76446(11) 0.36426(9)
C20_8 C 0.3046(3) 0.84801(11) 0.19460(11)
H16_8 H 0.2920 0.8616 0.1776
O1_8 O 0.1050(3) 0.76902(9) 0.19179(10)
O2_8 O 0.3952(3) 0.73069(11) 0.23362(9)
H17_8 H 0.4125 0.7285 0.2528
H18_8 H 0.4333 0.7205 0.2227
N5_8 N 0.0517(7) 0.7895(3) 0.1966(2)
O3_8 O 0.0108(7) 0.8085(3) 0.2168(2)
O4_8 O 0.0274(12) 0.8066(4) 0.1715(4)
N6_8 N 0.4601(2) 0.95356(7) 0.21802(7)
C21_8 C 0.4777(3) 0.93269(10) 0.19486(10)
H19_8 H 0.5136 0.9393 0.1780
C22_8 C 0.4118(3) 0.94322(10) 0.24279(10)
H20_8 H 0.4007 0.9574 0.2595
C23_8 C 0.3938(3) 0.89142(9) 0.21994(10)
C24_8 C 0.3780(4) 0.91279(11) 0.24468(10)
H21_8 H 0.3449 0.9065 0.2623
C25_8 C 0.4454(3) 0.90199(11) 0.19460(11)
H22_8 H 0.4580 0.8884 0.1776
N8_8 N 0.5460(2) 0.99880(7) 0.26044(7)
C31_8 C 0.6062(3) 0.99814(10) 0.32339(8)
C32_8 C 0.6393(3) 0.99784(9) 0.35688(9)
C33_8 C 0.5939(3) 0.97436(10) 0.27145(9)
H27_8 H 0.6065 0.9573 0.2579
C35_8 C 0.7516(3) 0.98635(10) 0.39533(9)
H29_8 H 0.8076 0.9782 0.3999
C38_8 C 0.6259(3) 0.97347(10) 0.30261(9)
H32_8 H 0.6604 0.9563 0.3094
C40_8 C 0.7221(3) 0.98554(11) 0.36426(9)
H34_8 H 0.7575 0.9768 0.3483
O5_8 O 0.6450(3) 0.98098(9) 0.19179(10)
N10_8 N 0.6983(7) 0.9605(3) 0.1966(2)
O7_8 O 0.7392(7) 0.9415(3) 0.2168(2)
O8_8 O 0.7226(12) 0.9434(4) 0.1715(4)
C11_7 C 0.9984(3) 0.76365(10) 0.39533(9)
H7_7 H 0.9424 0.7718 0.3999
H15_7 H 0.9925 0.7732 0.3483
Cu3_5 Cu 0.49872(4) 0.00017(2) 0.78539(2)
Cu1_3 Cu 0.25128(4) 0.74983(2) 0.78539(2)
N1_9 N 0.2101(2) 0.70356(7) 0.78198(7)
N2_9 N 0.2960(2) 0.74880(7) 0.73956(7)
N3_5 N 0.2980(2) 0.79520(7) 0.78968(7)
C1_9 C 0.3562(3) 0.74814(10) 0.67661(8)
C2_9 C 0.2277(3) 0.68269(10) 0.80514(10)
H1_9 H 0.2636 0.6893 0.8220
C3_9 C 0.3893(3) 0.74784(9) 0.64312(9)
C4_9 C 0.1618(3) 0.69322(10) 0.75721(10)
H2_9 H 0.1507 0.7074 0.7405
C5_9 C 0.3814(3) 0.80216(10) 0.78207(10)
H3_9 H 0.4190 0.7856 0.7759
C6_9 C 0.3439(3) 0.72436(10) 0.72855(9)
H4_9 H 0.3565 0.7073 0.7421
C7_9 C 0.3592(3) 0.85822(9) 0.79178(9)
C8_9 C 0.4148(3) 0.83331(10) 0.78292(11)
H5_9 H 0.4737 0.8373 0.7776
C9_9 C 0.1438(3) 0.64142(9) 0.78006(10)
C10_9 C 0.3724(3) 0.75977(12) 0.58798(10)
H6_9 H 0.3372 0.7678 0.5716
C11_8 C 0.5016(3) 0.73635(10) 0.60467(9)
H7_8 H 0.5576 0.7282 0.6001
C12_9 C 0.2727(3) 0.85051(10) 0.80003(11)
H8_9 H 0.2336 0.8665 0.8065
C13_9 C 0.2769(3) 0.77245(10) 0.71960(9)
H9_9 H 0.2425 0.7894 0.7270
C14_9 C 0.2448(3) 0.81927(10) 0.79872(10)
H10_9 H 0.1865 0.8146 0.8043
C15_9 C 0.3058(3) 0.77317(11) 0.68802(9)
H11_9 H 0.2912 0.7903 0.6748
C16_9 C 0.3759(3) 0.72347(10) 0.69739(9)
H12_9 H 0.4104 0.7063 0.6906
C17_9 C 0.1280(4) 0.66279(11) 0.75532(10)
H13_9 H 0.0949 0.6565 0.7377
C18_9 C 0.3398(3) 0.76012(12) 0.61843(10)
H14_9 H 0.2840 0.7687 0.6225
C19_9 C 0.4721(3) 0.73554(11) 0.63574(9)
H15_8 H 0.5075 0.7268 0.6517
C20_9 C 0.1954(3) 0.65199(11) 0.80540(11)
H16_9 H 0.2080 0.6384 0.8224
N4_5 N 0.4531(2) 0.74833(7) 0.58084(7)
O1_9 O 0.3950(3) 0.73098(9) 0.80821(10)
O2_9 O 0.1048(3) 0.76931(11) 0.76638(9)
H17_9 H 0.0875 0.7715 0.7472
H18_9 H 0.0667 0.7795 0.7773
N5_9 N 0.4483(7) 0.7105(3) 0.8034(2)
O3_9 O 0.4892(7) 0.6915(3) 0.7832(2)
O4_9 O 0.4726(12) 0.6934(4) 0.8285(4)
N6_9 N 0.0399(2) 0.54644(7) 0.78198(7)
C21_9 C 0.0223(3) 0.56731(10) 0.80514(10)
C22_9 C 0.0882(3) 0.55678(10) 0.75721(10)
H20_9 H 0.0993 0.5426 0.7405
C23_9 C 0.1062(3) 0.60858(9) 0.78006(10)
C24_9 C 0.1220(4) 0.58721(11) 0.75532(10)
H21_9 H 0.1551 0.5935 0.7377
C25_9 C 0.0546(3) 0.59801(11) 0.80540(11)
H22_9 H 0.0420 0.6116 0.8224
N7_9 N 0.4520(2) 0.95480(7) 0.78968(7)
C26_9 C 0.3686(3) 0.94784(10) 0.78207(10)
H23_9 H 0.3310 0.9644 0.7759
C27_9 C 0.3908(3) 0.89178(9) 0.79178(9)
C28_9 C 0.3352(3) 0.91669(10) 0.78292(11)
H24_9 H 0.2763 0.9127 0.7776
C29_9 C 0.4773(3) 0.89949(10) 0.80003(11)
H25_9 H 0.5164 0.8835 0.8065
C30_9 C 0.5052(3) 0.93073(10) 0.79872(10)
H26_9 H 0.5635 0.9354 0.8043
H30_9 H 0.0075 0.4606 0.7270
O6_9 O 0.1452(3) 0.48069(11) 0.76638(9)
H35_9 H 0.1625 0.4785 0.7472
H36_9 H 0.1833 0.4705 0.7773
Cu5_5 Cu 0.50128(4) 0.75017(2) 0.53539(2)
N12_5 N 0.2031(2) 0.75167(7) 0.83084(7)
N13_5 N 0.0469(2) 0.49833(7) 0.83084(7)
H19_9 H 0.9864 0.5607 0.8220
Cu2_3 Cu 0.99872(4) 0.50017(2) 0.78539(2)
N8_9 N 0.9540(2) 0.50120(7) 0.73956(7)
C31_9 C 0.8938(3) 0.50186(10) 0.67661(8)
C32_9 C 0.8607(3) 0.50216(9) 0.64312(9)
C33_9 C 0.9061(3) 0.52564(10) 0.72855(9)
H27_9 H 0.8935 0.5427 0.7421
C34_9 C 0.8776(3) 0.49023(12) 0.58798(10)
H28_9 H 0.9128 0.4822 0.5716
C35_9 C 0.7484(3) 0.51365(10) 0.60467(9)
H29_9 H 0.6924 0.5218 0.6001
C36_9 C 0.9731(3) 0.47755(10) 0.71960(9)
C37_9 C 0.9442(3) 0.47683(11) 0.68802(9)
H31_9 H 0.9588 0.4597 0.6748
C38_9 C 0.8741(3) 0.52653(10) 0.69739(9)
H32_9 H 0.8396 0.5437 0.6906
C39_9 C 0.9102(3) 0.48988(12) 0.61843(10)
H33_9 H 0.9660 0.4813 0.6225
C40_9 C 0.7779(3) 0.51446(11) 0.63574(9)
H34_9 H 0.7425 0.5232 0.6517
N9_5 N 0.7969(2) 0.50167(7) 0.58084(7)
O5_9 O 0.8550(3) 0.51902(9) 0.80821(10)
N10_9 N 0.8017(7) 0.5395(3) 0.8034(2)
O7_9 O 0.7608(7) 0.5585(3) 0.7832(2)
O8_9 O 0.7774(12) 0.5566(4) 0.8285(4)
Cu4_5 Cu 0.74872(4) 0.49983(2) 0.53539(2)
N11_5 N 0.9520(2) 0.45480(7) 0.78968(7)
H8_10 H 0.0164 0.3835 0.8065
C14_10 C 0.0052(3) 0.43073(10) 0.79872(10)
H10_10 H 0.0635 0.4354 0.8043
C5_10 C 0.8686(3) 0.44784(10) 0.78207(10)
H3_10 H 0.8310 0.4644 0.7759
C7_10 C 0.8908(3) 0.39178(9) 0.79178(9)
C8_10 C 0.8352(3) 0.41669(10) 0.78292(11)
H5_10 H 0.7763 0.4127 0.7776
C12_10 C 0.9773(3) 0.39949(10) 0.80003(11)
N7_10 N 0.7980(2) 0.29520(7) 0.78968(7)
C26_10 C 0.8814(3) 0.30216(10) 0.78207(10)
H23_10 H 0.9190 0.2856 0.7759
C27_10 C 0.8592(3) 0.35822(9) 0.79178(9)
C28_10 C 0.9148(3) 0.33331(10) 0.78292(11)
H24_10 H 0.9737 0.3373 0.7776
C29_10 C 0.7727(3) 0.35051(10) 0.80003(11)
H25_10 H 0.7336 0.3665 0.8065
C30_10 C 0.7448(3) 0.31927(10) 0.79872(10)
H26_10 H 0.6865 0.3146 0.8043
Cu3_6 Cu 0.75128(4) 0.24983(2) 0.78539(2)
Cu1_4 Cu 0.25128(4) 0.24983(2) 0.28539(2)
N1_10 N 0.2101(2) 0.20356(7) 0.28198(7)
N2_10 N 0.2960(2) 0.24880(7) 0.23956(7)
N3_6 N 0.2980(2) 0.29520(7) 0.28968(7)
C1_10 C 0.3562(3) 0.24814(10) 0.17661(8)
C2_10 C 0.2277(3) 0.18269(10) 0.30514(10)
H1_10 H 0.2636 0.1893 0.3220
C3_10 C 0.3893(3) 0.24784(9) 0.14312(9)
C4_10 C 0.1618(3) 0.19322(10) 0.25721(10)
H2_10 H 0.1507 0.2074 0.2405
C5_11 C 0.3814(3) 0.30216(10) 0.28207(10)
H3_11 H 0.4190 0.2856 0.2759
C6_10 C 0.3439(3) 0.22436(10) 0.22855(9)
H4_10 H 0.3565 0.2073 0.2421
C7_11 C 0.3592(3) 0.35822(9) 0.29178(9)
C8_11 C 0.4148(3) 0.33331(10) 0.28292(11)
H5_11 H 0.4737 0.3373 0.2776
C9_10 C 0.1438(3) 0.14142(9) 0.28006(10)
C10_10 C 0.3724(3) 0.25977(12) 0.08798(10)
H6_10 H 0.3372 0.2678 0.0716
C11_9 C 0.5016(3) 0.23635(10) 0.10467(9)
H7_9 H 0.5576 0.2282 0.1001
C12_11 C 0.2727(3) 0.35051(10) 0.30003(11)
H8_11 H 0.2336 0.3665 0.3065
C13_10 C 0.2769(3) 0.27245(10) 0.21960(9)
H9_10 H 0.2425 0.2894 0.2270
C14_11 C 0.2448(3) 0.31927(10) 0.29872(10)
H10_11 H 0.1865 0.3146 0.3043
C15_10 C 0.3058(3) 0.27317(11) 0.18802(9)
H11_10 H 0.2912 0.2903 0.1748
C16_10 C 0.3759(3) 0.22347(10) 0.19739(9)
H12_10 H 0.4104 0.2063 0.1906
C17_10 C 0.1280(4) 0.16279(11) 0.25532(10)
H13_10 H 0.0949 0.1565 0.2377
C18_10 C 0.3398(3) 0.26012(12) 0.11843(10)
H14_10 H 0.2840 0.2687 0.1225
C19_10 C 0.4721(3) 0.23554(11) 0.13574(9)
H15_9 H 0.5075 0.2268 0.1517
C20_10 C 0.1954(3) 0.15199(11) 0.30540(11)
H16_10 H 0.2080 0.1384 0.3224
N4_6 N 0.4531(2) 0.24833(7) 0.08084(7)
O1_10 O 0.3950(3) 0.23098(9) 0.30821(10)
O2_10 O 0.1048(3) 0.26931(11) 0.26638(9)
H17_10 H 0.0875 0.2715 0.2472
H18_10 H 0.0667 0.2795 0.2773
N5_10 N 0.4483(7) 0.2105(3) 0.3034(2)
O3_10 O 0.4892(7) 0.1915(3) 0.2832(2)
O4_10 O 0.4726(12) 0.1934(4) 0.3285(4)
N6_10 N 0.0399(2) 0.04644(7) 0.28198(7)
C21_10 C 0.0223(3) 0.06731(10) 0.30514(10)
C22_10 C 0.0882(3) 0.05678(10) 0.25721(10)
H20_10 H 0.0993 0.0426 0.2405
C23_10 C 0.1062(3) 0.10858(9) 0.28006(10)
C24_10 C 0.1220(4) 0.08721(11) 0.25532(10)
H21_10 H 0.1551 0.0935 0.2377
C25_10 C 0.0546(3) 0.09801(11) 0.30540(11)
H22_10 H 0.0420 0.1116 0.3224
N7_11 N 0.4520(2) 0.45480(7) 0.28968(7)
C26_11 C 0.3686(3) 0.44784(10) 0.28207(10)
H23_11 H 0.3310 0.4644 0.2759
C27_11 C 0.3908(3) 0.39178(9) 0.29178(9)
C28_11 C 0.3352(3) 0.41669(10) 0.28292(11)
H24_11 H 0.2763 0.4127 0.2776
C29_11 C 0.4773(3) 0.39949(10) 0.30003(11)
H25_11 H 0.5164 0.3835 0.3065
C30_11 C 0.5052(3) 0.43073(10) 0.29872(10)
H26_11 H 0.5635 0.4354 0.3043
Cu3_7 Cu 0.49872(4) 0.50017(2) 0.28539(2)
Cu5_6 Cu 0.50128(4) 0.25017(2) 0.03539(2)
N12_6 N 0.2031(2) 0.25167(7) 0.33084(7)
H30_10 H 0.0075 0.9606 0.2270
O6_10 O 0.1452(3) 0.98069(11) 0.26638(9)
H35_10 H 0.1625 0.9785 0.2472
H36_10 H 0.1833 0.9705 0.2773
N13_6 N 0.0469(2) 0.99833(7) 0.33084(7)
H19_10 H 0.9864 0.0607 0.3220
Cu2_4 Cu 0.99872(4) 0.00017(2) 0.28539(2)
N8_10 N 0.9540(2) 0.00120(7) 0.23956(7)
C31_10 C 0.8938(3) 0.00186(10) 0.17661(8)
C32_10 C 0.8607(3) 0.00216(9) 0.14312(9)
C33_10 C 0.9061(3) 0.02564(10) 0.22855(9)
H27_10 H 0.8935 0.0427 0.2421
C35_10 C 0.7484(3) 0.01365(10) 0.10467(9)
H29_10 H 0.6924 0.0218 0.1001
C38_10 C 0.8741(3) 0.02653(10) 0.19739(9)
H32_10 H 0.8396 0.0437 0.1906
C40_10 C 0.7779(3) 0.01446(11) 0.13574(9)
H34_10 H 0.7425 0.0232 0.1517
N9_6 N 0.7969(2) 0.00167(7) 0.08084(7)
O5_10 O 0.8550(3) 0.01902(9) 0.30821(10)
N10_10 N 0.8017(7) 0.0395(3) 0.3034(2)
O7_10 O 0.7608(7) 0.0585(3) 0.2832(2)
O8_10 O 0.7774(12) 0.0566(4) 0.3285(4)
C34_10 C 0.8776(3) 0.99023(12) 0.08798(10)
H28_10 H 0.9128 0.9822 0.0716
C36_10 C 0.9731(3) 0.97755(10) 0.21960(9)
C37_10 C 0.9442(3) 0.97683(11) 0.18802(9)
H31_10 H 0.9588 0.9597 0.1748
C39_10 C 0.9102(3) 0.98988(12) 0.11843(10)
H33_10 H 0.9660 0.9813 0.1225
Cu4_6 Cu 0.74872(4) 0.99983(2) 0.03539(2)
N11_6 N 0.9520(2) 0.95480(7) 0.28968(7)
H8_12 H 0.0164 0.8835 0.3065
C14_12 C 0.0052(3) 0.93073(10) 0.29872(10)
H10_12 H 0.0635 0.9354 0.3043
C5_12 C 0.8686(3) 0.94784(10) 0.28207(10)
H3_12 H 0.8310 0.9644 0.2759
C7_12 C 0.8908(3) 0.89178(9) 0.29178(9)
C8_12 C 0.8352(3) 0.91669(10) 0.28292(11)
H5_12 H 0.7763 0.9127 0.2776
C12_12 C 0.9773(3) 0.89949(10) 0.30003(11)
N7_12 N 0.7980(2) 0.79520(7) 0.28968(7)
C26_12 C 0.8814(3) 0.80216(10) 0.28207(10)
H23_12 H 0.9190 0.7856 0.2759
C27_12 C 0.8592(3) 0.85822(9) 0.29178(9)
C28_12 C 0.9148(3) 0.83331(10) 0.28292(11)
H24_12 H 0.9737 0.8373 0.2776
C29_12 C 0.7727(3) 0.85051(10) 0.30003(11)
H25_12 H 0.7336 0.8665 0.3065
C30_12 C 0.7448(3) 0.81927(10) 0.29872(10)
H26_12 H 0.6865 0.8146 0.3043
Cu3_8 Cu 0.75128(4) 0.74983(2) 0.28539(2)
C11_10 C 0.0016(3) 0.73635(10) 0.10467(9)
H7_10 H 0.0576 0.7282 0.1001
H15_10 H 0.0075 0.7268 0.1517
Cu5_7 Cu 0.00128(4) 0.75017(2) 0.03539(2)
N1_11 N 0.7101(2) 0.70356(7) 0.28198(7)
N2_11 N 0.7960(2) 0.74880(7) 0.23956(7)
C1_11 C 0.8562(3) 0.74814(10) 0.17661(8)
C2_11 C 0.7277(3) 0.68269(10) 0.30514(10)
H1_11 H 0.7636 0.6893 0.3220
C3_11 C 0.8893(3) 0.74784(9) 0.14312(9)
C4_11 C 0.6618(3) 0.69322(10) 0.25721(10)
H2_11 H 0.6507 0.7074 0.2405
C6_11 C 0.8439(3) 0.72436(10) 0.22855(9)
H4_11 H 0.8565 0.7073 0.2421
C9_11 C 0.6438(3) 0.64142(9) 0.28006(10)
C10_11 C 0.8724(3) 0.75977(12) 0.08798(10)
H6_11 H 0.8372 0.7678 0.0716
C13_11 C 0.7769(3) 0.77245(10) 0.21960(9)
H9_11 H 0.7425 0.7894 0.2270
C15_11 C 0.8058(3) 0.77317(11) 0.18802(9)
H11_11 H 0.7912 0.7903 0.1748
C16_11 C 0.8759(3) 0.72347(10) 0.19739(9)
H12_11 H 0.9104 0.7063 0.1906
C17_11 C 0.6280(4) 0.66279(11) 0.25532(10)
H13_11 H 0.5949 0.6565 0.2377
C18_11 C 0.8398(3) 0.76012(12) 0.11843(10)
H14_11 H 0.7840 0.7687 0.1225
C19_11 C 0.9721(3) 0.73554(11) 0.13574(9)
C20_11 C 0.6954(3) 0.65199(11) 0.30540(11)
H16_11 H 0.7080 0.6384 0.3224
N4_7 N 0.9531(2) 0.74833(7) 0.08084(7)
O1_11 O 0.8950(3) 0.73098(9) 0.30821(10)
O2_11 O 0.6048(3) 0.76931(11) 0.26638(9)
H17_11 H 0.5875 0.7715 0.2472
H18_11 H 0.5667 0.7795 0.2773
N5_11 N 0.9483(7) 0.7105(3) 0.3034(2)
O3_11 O 0.9892(7) 0.6915(3) 0.2832(2)
O4_11 O 0.9726(12) 0.6934(4) 0.3285(4)
N6_11 N 0.5399(2) 0.54644(7) 0.28198(7)
C21_11 C 0.5223(3) 0.56731(10) 0.30514(10)
H19_11 H 0.4864 0.5607 0.3220
C22_11 C 0.5882(3) 0.55678(10) 0.25721(10)
H20_11 H 0.5993 0.5426 0.2405
C23_11 C 0.6062(3) 0.60858(9) 0.28006(10)
C24_11 C 0.6220(4) 0.58721(11) 0.25532(10)
H21_11 H 0.6551 0.5935 0.2377
C25_11 C 0.5546(3) 0.59801(11) 0.30540(11)
H22_11 H 0.5420 0.6116 0.3224
N8_11 N 0.4540(2) 0.50120(7) 0.23956(7)
C31_11 C 0.3938(3) 0.50186(10) 0.17661(8)
C32_11 C 0.3607(3) 0.50216(9) 0.14312(9)
C33_11 C 0.4061(3) 0.52564(10) 0.22855(9)
H27_11 H 0.3935 0.5427 0.2421
C34_11 C 0.3776(3) 0.49023(12) 0.08798(10)
H28_11 H 0.4128 0.4822 0.0716
C35_11 C 0.2484(3) 0.51365(10) 0.10467(9)
H29_11 H 0.1924 0.5218 0.1001
C36_11 C 0.4731(3) 0.47755(10) 0.21960(9)
H30_11 H 0.5075 0.4606 0.2270
C37_11 C 0.4442(3) 0.47683(11) 0.18802(9)
H31_11 H 0.4588 0.4597 0.1748
C38_11 C 0.3741(3) 0.52653(10) 0.19739(9)
H32_11 H 0.3396 0.5437 0.1906
C39_11 C 0.4102(3) 0.48988(12) 0.11843(10)
H33_11 H 0.4660 0.4813 0.1225
C40_11 C 0.2779(3) 0.51446(11) 0.13574(9)
H34_11 H 0.2425 0.5232 0.1517
N9_7 N 0.2969(2) 0.50167(7) 0.08084(7)
O5_11 O 0.3550(3) 0.51902(9) 0.30821(10)
O6_11 O 0.6452(3) 0.48069(11) 0.26638(9)
H35_11 H 0.6625 0.4785 0.2472
H36_11 H 0.6833 0.4705 0.2773
N10_11 N 0.3017(7) 0.5395(3) 0.3034(2)
O7_11 O 0.2608(7) 0.5585(3) 0.2832(2)
O8_11 O 0.2774(12) 0.5566(4) 0.3285(4)
Cu4_7 Cu 0.24872(4) 0.49983(2) 0.03539(2)
N12_7 N 0.7031(2) 0.75167(7) 0.33084(7)
N13_7 N 0.5469(2) 0.49833(7) 0.33084(7)
C11_11 C 0.0016(3) 0.23635(10) 0.60467(9)
H7_11 H 0.0576 0.2282 0.6001
H15_11 H 0.0075 0.2268 0.6517
Cu5_8 Cu 0.00128(4) 0.25017(2) 0.53539(2)
N1_12 N 0.7101(2) 0.20356(7) 0.78198(7)
N2_12 N 0.7960(2) 0.24880(7) 0.73956(7)
C1_12 C 0.8562(3) 0.24814(10) 0.67661(8)
C2_12 C 0.7277(3) 0.18269(10) 0.80514(10)
H1_12 H 0.7636 0.1893 0.8220
C3_12 C 0.8893(3) 0.24784(9) 0.64312(9)
C4_12 C 0.6618(3) 0.19322(10) 0.75721(10)
H2_12 H 0.6507 0.2074 0.7405
C6_12 C 0.8439(3) 0.22436(10) 0.72855(9)
H4_12 H 0.8565 0.2073 0.7421
C9_12 C 0.6438(3) 0.14142(9) 0.78006(10)
C10_12 C 0.8724(3) 0.25977(12) 0.58798(10)
H6_12 H 0.8372 0.2678 0.5716
C13_12 C 0.7769(3) 0.27245(10) 0.71960(9)
H9_12 H 0.7425 0.2894 0.7270
C15_12 C 0.8058(3) 0.27317(11) 0.68802(9)
H11_12 H 0.7912 0.2903 0.6748
C16_12 C 0.8759(3) 0.22347(10) 0.69739(9)
H12_12 H 0.9104 0.2063 0.6906
C17_12 C 0.6280(4) 0.16279(11) 0.75532(10)
H13_12 H 0.5949 0.1565 0.7377
C18_12 C 0.8398(3) 0.26012(12) 0.61843(10)
H14_12 H 0.7840 0.2687 0.6225
C19_12 C 0.9721(3) 0.23554(11) 0.63574(9)
C20_12 C 0.6954(3) 0.15199(11) 0.80540(11)
H16_12 H 0.7080 0.1384 0.8224
N4_8 N 0.9531(2) 0.24833(7) 0.58084(7)
O1_12 O 0.8950(3) 0.23098(9) 0.80821(10)
O2_12 O 0.6048(3) 0.26931(11) 0.76638(9)
H17_12 H 0.5875 0.2715 0.7472
H18_12 H 0.5667 0.2795 0.7773
N5_12 N 0.9483(7) 0.2105(3) 0.8034(2)
O3_12 O 0.9892(7) 0.1915(3) 0.7832(2)
O4_12 O 0.9726(12) 0.1934(4) 0.8285(4)
N6_12 N 0.5399(2) 0.04644(7) 0.78198(7)
C21_12 C 0.5223(3) 0.06731(10) 0.80514(10)
H19_12 H 0.4864 0.0607 0.8220
C22_12 C 0.5882(3) 0.05678(10) 0.75721(10)
H20_12 H 0.5993 0.0426 0.7405
C23_12 C 0.6062(3) 0.10858(9) 0.78006(10)
C24_12 C 0.6220(4) 0.08721(11) 0.75532(10)
H21_12 H 0.6551 0.0935 0.7377
C25_12 C 0.5546(3) 0.09801(11) 0.80540(11)
H22_12 H 0.5420 0.1116 0.8224
N8_12 N 0.4540(2) 0.00120(7) 0.73956(7)
C31_12 C 0.3938(3) 0.00186(10) 0.67661(8)
C32_12 C 0.3607(3) 0.00216(9) 0.64312(9)
C33_12 C 0.4061(3) 0.02564(10) 0.72855(9)
H27_12 H 0.3935 0.0427 0.7421
C35_12 C 0.2484(3) 0.01365(10) 0.60467(9)
H29_12 H 0.1924 0.0218 0.6001
C38_12 C 0.3741(3) 0.02653(10) 0.69739(9)
H32_12 H 0.3396 0.0437 0.6906
C40_12 C 0.2779(3) 0.01446(11) 0.63574(9)
H34_12 H 0.2425 0.0232 0.6517
N9_8 N 0.2969(2) 0.00167(7) 0.58084(7)
O5_12 O 0.3550(3) 0.01902(9) 0.80821(10)
N10_12 N 0.3017(7) 0.0395(3) 0.8034(2)
O7_12 O 0.2608(7) 0.0585(3) 0.7832(2)
O8_12 O 0.2774(12) 0.0566(4) 0.8285(4)
N12_8 N 0.7031(2) 0.25167(7) 0.83084(7)
C34_12 C 0.3776(3) 0.99023(12) 0.58798(10)
H28_12 H 0.4128 0.9822 0.5716
C36_12 C 0.4731(3) 0.97755(10) 0.71960(9)
H30_12 H 0.5075 0.9606 0.7270
C37_12 C 0.4442(3) 0.97683(11) 0.68802(9)
H31_12 H 0.4588 0.9597 0.6748
C39_12 C 0.4102(3) 0.98988(12) 0.61843(10)
H33_12 H 0.4660 0.9813 0.6225
O6_12 O 0.6452(3) 0.98069(11) 0.76638(9)
H35_12 H 0.6625 0.9785 0.7472
H36_12 H 0.6833 0.9705 0.7773
Cu4_8 Cu 0.24872(4) 0.99983(2) 0.53539(2)
N13_8 N 0.5469(2) 0.99833(7) 0.83084(7)
H19_13 H 0.0136 0.3107 0.5720
N8_13 N 0.0460(2) 0.25120(7) 0.48956(7)
C31_13 C 0.1062(3) 0.25186(10) 0.42661(8)
C32_13 C 0.1393(3) 0.25216(9) 0.39312(9)
C33_13 C 0.0939(3) 0.27564(10) 0.47855(9)
H27_13 H 0.1065 0.2927 0.4921
C34_13 C 0.1224(3) 0.24023(12) 0.33798(10)
H28_13 H 0.0872 0.2322 0.3216
C35_13 C 0.2516(3) 0.26365(10) 0.35467(9)
H29_13 H 0.3076 0.2718 0.3501
C36_13 C 0.0269(3) 0.22755(10) 0.46960(9)
C37_13 C 0.0558(3) 0.22683(11) 0.43802(9)
H31_13 H 0.0412 0.2097 0.4248
C38_13 C 0.1259(3) 0.27653(10) 0.44739(9)
H32_13 H 0.1604 0.2937 0.4406
C39_13 C 0.0898(3) 0.23988(12) 0.36843(10)
H33_13 H 0.0340 0.2313 0.3725
C40_13 C 0.2221(3) 0.26446(11) 0.38574(9)
H34_13 H 0.2575 0.2732 0.4017
O5_13 O 0.1450(3) 0.26902(9) 0.55821(10)
N10_13 N 0.1983(7) 0.2895(3) 0.5534(2)
O7_13 O 0.2392(7) 0.3085(3) 0.5332(2)
O8_13 O 0.2226(12) 0.3066(4) 0.5785(4)
N11_7 N 0.0480(2) 0.20480(7) 0.53968(7)
N1_13 N 0.7899(2) 0.45356(7) 0.53198(7)
N2_13 N 0.7040(2) 0.49880(7) 0.48956(7)
N3_7 N 0.7020(2) 0.54520(7) 0.53968(7)
C1_13 C 0.6438(3) 0.49814(10) 0.42661(8)
C2_13 C 0.7723(3) 0.43269(10) 0.55514(10)
H1_13 H 0.7364 0.4393 0.5720
C3_13 C 0.6107(3) 0.49784(9) 0.39312(9)
C4_13 C 0.8382(3) 0.44322(10) 0.50721(10)
H2_13 H 0.8493 0.4574 0.4905
C5_13 C 0.6186(3) 0.55216(10) 0.53207(10)
H3_13 H 0.5810 0.5356 0.5259
C6_13 C 0.6561(3) 0.47436(10) 0.47855(9)
H4_13 H 0.6435 0.4573 0.4921
C7_13 C 0.6408(3) 0.60822(9) 0.54178(9)
C8_13 C 0.5852(3) 0.58331(10) 0.53292(11)
H5_13 H 0.5263 0.5873 0.5276
C9_13 C 0.8562(3) 0.39142(9) 0.53006(10)
C10_13 C 0.6276(3) 0.50977(12) 0.33798(10)
H6_13 H 0.6628 0.5178 0.3216
C11_12 C 0.4984(3) 0.48635(10) 0.35467(9)
H7_12 H 0.4424 0.4782 0.3501
C12_13 C 0.7273(3) 0.60051(10) 0.55003(11)
H8_13 H 0.7664 0.6165 0.5565
C13_13 C 0.7231(3) 0.52245(10) 0.46960(9)
H9_13 H 0.7575 0.5394 0.4770
C14_13 C 0.7552(3) 0.56927(10) 0.54872(10)
H10_13 H 0.8135 0.5646 0.5543
C15_13 C 0.6942(3) 0.52317(11) 0.43802(9)
H11_13 H 0.7088 0.5403 0.4248
C16_13 C 0.6241(3) 0.47347(10) 0.44739(9)
H12_13 H 0.5896 0.4563 0.4406
C17_13 C 0.8720(4) 0.41279(11) 0.50532(10)
H13_13 H 0.9051 0.4065 0.4877
C18_13 C 0.6602(3) 0.51012(12) 0.36843(10)
H14_13 H 0.7160 0.5187 0.3725
C19_13 C 0.5279(3) 0.48554(11) 0.38574(9)
H15_12 H 0.4925 0.4768 0.4017
C20_13 C 0.8046(3) 0.40199(11) 0.55540(11)
H16_13 H 0.7920 0.3884 0.5724
O1_13 O 0.6050(3) 0.48098(9) 0.55821(10)
O2_13 O 0.8952(3) 0.51931(11) 0.51638(9)
H17_13 H 0.9125 0.5215 0.4972
H18_13 H 0.9333 0.5295 0.5273
N5_13 N 0.5517(7) 0.4605(3) 0.5534(2)
O3_13 O 0.5108(7) 0.4415(3) 0.5332(2)
O4_13 O 0.5274(12) 0.4434(4) 0.5785(4)
N6_13 N 0.9601(2) 0.29644(7) 0.53198(7)
C21_13 C 0.9777(3) 0.31731(10) 0.55514(10)
C22_13 C 0.9118(3) 0.30678(10) 0.50721(10)
H20_13 H 0.9007 0.2926 0.4905
C23_13 C 0.8938(3) 0.35858(9) 0.53006(10)
C24_13 C 0.8780(4) 0.33721(11) 0.50532(10)
H21_13 H 0.8449 0.3435 0.4877
C25_13 C 0.9454(3) 0.34801(11) 0.55540(11)
H22_13 H 0.9580 0.3616 0.5724
N7_13 N 0.5480(2) 0.70480(7) 0.53968(7)
C26_13 C 0.6314(3) 0.69784(10) 0.53207(10)
H23_13 H 0.6690 0.7144 0.5259
C27_13 C 0.6092(3) 0.64178(9) 0.54178(9)
C28_13 C 0.6648(3) 0.66669(10) 0.53292(11)
H24_13 H 0.7237 0.6627 0.5276
C29_13 C 0.5227(3) 0.64949(10) 0.55003(11)
H25_13 H 0.4836 0.6335 0.5565
C30_13 C 0.4948(3) 0.68073(10) 0.54872(10)
H26_13 H 0.4365 0.6854 0.5543
H30_13 H 0.9925 0.2106 0.4770
O6_13 O 0.8548(3) 0.23069(11) 0.51638(9)
H35_13 H 0.8375 0.2285 0.4972
H36_13 H 0.8167 0.2205 0.5273
C5_14 C 0.1314(3) 0.19784(10) 0.53207(10)
H3_14 H 0.1690 0.2144 0.5259
C7_14 C 0.1092(3) 0.14178(9) 0.54178(9)
C8_14 C 0.1648(3) 0.16669(10) 0.53292(11)
H5_14 H 0.2237 0.1627 0.5276
C12_14 C 0.0227(3) 0.14949(10) 0.55003(11)
N7_14 N 0.2020(2) 0.04520(7) 0.53968(7)
C26_14 C 0.1186(3) 0.05216(10) 0.53207(10)
H23_14 H 0.0810 0.0356 0.5259
C27_14 C 0.1408(3) 0.10822(9) 0.54178(9)
C28_14 C 0.0852(3) 0.08331(10) 0.53292(11)
H24_14 H 0.0263 0.0873 0.5276
C29_14 C 0.2273(3) 0.10051(10) 0.55003(11)
H25_14 H 0.2664 0.1165 0.5565
C30_14 C 0.2552(3) 0.06927(10) 0.54872(10)
H26_14 H 0.3135 0.0646 0.5543
H8_14 H 0.9836 0.1335 0.5565
C14_14 C 0.9948(3) 0.18073(10) 0.54872(10)
H10_14 H 0.9365 0.1854 0.5543
H19_14 H 0.0136 0.8107 0.0720
O5_14 O 0.1450(3) 0.76902(9) 0.05821(10)
N10_14 N 0.1983(7) 0.7895(3) 0.0534(2)
O7_14 O 0.2392(7) 0.8085(3) 0.0332(2)
O8_14 O 0.2226(12) 0.8066(4) 0.0785(4)
N11_8 N 0.0480(2) 0.70480(7) 0.03968(7)
N8_14 N 0.0460(2) 0.75120(7) 0.98956(7)
C31_14 C 0.1062(3) 0.75186(10) 0.92661(8)
C32_14 C 0.1393(3) 0.75216(9) 0.89312(9)
C33_14 C 0.0939(3) 0.77564(10) 0.97855(9)
H27_14 H 0.1065 0.7927 0.9921
C34_14 C 0.1224(3) 0.74023(12) 0.83798(10)
H28_14 H 0.0872 0.7322 0.8216
C35_14 C 0.2516(3) 0.76365(10) 0.85467(9)
H29_14 H 0.3076 0.7718 0.8501
C36_14 C 0.0269(3) 0.72755(10) 0.96960(9)
C37_14 C 0.0558(3) 0.72683(11) 0.93802(9)
H31_14 H 0.0412 0.7097 0.9248
C38_14 C 0.1259(3) 0.77653(10) 0.94739(9)
H32_14 H 0.1604 0.7937 0.9406
C39_14 C 0.0898(3) 0.73988(12) 0.86843(10)
H33_14 H 0.0340 0.7313 0.8725
C40_14 C 0.2221(3) 0.76446(11) 0.88574(9)
H34_14 H 0.2575 0.7732 0.9017
N3_8 N 0.7020(2) 0.04520(7) 0.03968(7)
C5_15 C 0.6186(3) 0.05216(10) 0.03207(10)
H3_15 H 0.5810 0.0356 0.0259
C7_15 C 0.6408(3) 0.10822(9) 0.04178(9)
C8_15 C 0.5852(3) 0.08331(10) 0.03292(11)
H5_15 H 0.5263 0.0873 0.0276
C12_15 C 0.7273(3) 0.10051(10) 0.05003(11)
H8_15 H 0.7664 0.1165 0.0565
C14_15 C 0.7552(3) 0.06927(10) 0.04872(10)
H10_15 H 0.8135 0.0646 0.0543
O2_14 O 0.8952(3) 0.01931(11) 0.01638(9)
H18_14 H 0.9333 0.0295 0.0273
N7_15 N 0.5480(2) 0.20480(7) 0.03968(7)
C26_15 C 0.6314(3) 0.19784(10) 0.03207(10)
H23_15 H 0.6690 0.2144 0.0259
C27_15 C 0.6092(3) 0.14178(9) 0.04178(9)
C28_15 C 0.6648(3) 0.16669(10) 0.03292(11)
H24_15 H 0.7237 0.1627 0.0276
C29_15 C 0.5227(3) 0.14949(10) 0.05003(11)
H25_15 H 0.4836 0.1335 0.0565
C30_15 C 0.4948(3) 0.18073(10) 0.04872(10)
H26_15 H 0.4365 0.1854 0.0543
C10_14 C 0.6276(3) 0.00977(12) 0.83798(10)
H6_14 H 0.6628 0.0178 0.8216
C13_14 C 0.7231(3) 0.02245(10) 0.96960(9)
H9_14 H 0.7575 0.0394 0.9770
C15_14 C 0.6942(3) 0.02317(11) 0.93802(9)
H11_14 H 0.7088 0.0403 0.9248
C18_14 C 0.6602(3) 0.01012(12) 0.86843(10)
H14_14 H 0.7160 0.0187 0.8725
H17_14 H 0.9125 0.0215 0.9972
N1_14 N 0.7899(2) 0.95356(7) 0.03198(7)
C2_14 C 0.7723(3) 0.93269(10) 0.05514(10)
H1_14 H 0.7364 0.9393 0.0720
C4_14 C 0.8382(3) 0.94322(10) 0.00721(10)
C9_14 C 0.8562(3) 0.89142(9) 0.03006(10)
C17_14 C 0.8720(4) 0.91279(11) 0.00532(10)
C20_14 C 0.8046(3) 0.90199(11) 0.05540(11)
H16_14 H 0.7920 0.8884 0.0724
O1_14 O 0.6050(3) 0.98098(9) 0.05821(10)
N5_14 N 0.5517(7) 0.9605(3) 0.0534(2)
O3_14 O 0.5108(7) 0.9415(3) 0.0332(2)
O4_14 O 0.5274(12) 0.9434(4) 0.0785(4)
N6_14 N 0.9601(2) 0.79644(7) 0.03198(7)
C21_14 C 0.9777(3) 0.81731(10) 0.05514(10)
C22_14 C 0.9118(3) 0.80678(10) 0.00721(10)
C23_14 C 0.8938(3) 0.85858(9) 0.03006(10)
C24_14 C 0.8780(4) 0.83721(11) 0.00532(10)
C25_14 C 0.9454(3) 0.84801(11) 0.05540(11)
H22_14 H 0.9580 0.8616 0.0724
O6_14 O 0.8548(3) 0.73069(11) 0.01638(9)
H36_14 H 0.8167 0.7205 0.0273
N2_14 N 0.7040(2) 0.99880(7) 0.98956(7)
C1_14 C 0.6438(3) 0.99814(10) 0.92661(8)
C3_14 C 0.6107(3) 0.99784(9) 0.89312(9)
H2_14 H 0.8493 0.9574 0.9905
C6_14 C 0.6561(3) 0.97436(10) 0.97855(9)
H4_14 H 0.6435 0.9573 0.9921
C11_13 C 0.4984(3) 0.98635(10) 0.85467(9)
H7_13 H 0.4424 0.9782 0.8501
C16_14 C 0.6241(3) 0.97347(10) 0.94739(9)
H12_14 H 0.5896 0.9563 0.9406
H13_14 H 0.9051 0.9065 0.9877
C19_14 C 0.5279(3) 0.98554(11) 0.88574(9)
H15_13 H 0.4925 0.9768 0.9017
H20_14 H 0.9007 0.7926 0.9905
H21_14 H 0.8449 0.8435 0.9877
H30_14 H 0.9925 0.7106 0.9770
H35_14 H 0.8375 0.7285 0.9972
C5_16 C 0.1314(3) 0.69784(10) 0.03207(10)
H3_16 H 0.1690 0.7144 0.0259
C7_16 C 0.1092(3) 0.64178(9) 0.04178(9)
C8_16 C 0.1648(3) 0.66669(10) 0.03292(11)
H5_16 H 0.2237 0.6627 0.0276
C12_16 C 0.0227(3) 0.64949(10) 0.05003(11)
N7_16 N 0.2020(2) 0.54520(7) 0.03968(7)
C26_16 C 0.1186(3) 0.55216(10) 0.03207(10)
H23_16 H 0.0810 0.5356 0.0259
C27_16 C 0.1408(3) 0.60822(9) 0.04178(9)
C28_16 C 0.0852(3) 0.58331(10) 0.03292(11)
H24_16 H 0.0263 0.5873 0.0276
C29_16 C 0.2273(3) 0.60051(10) 0.05003(11)
H25_16 H 0.2664 0.6165 0.0565
C30_16 C 0.2552(3) 0.56927(10) 0.04872(10)
H26_16 H 0.3135 0.5646 0.0543
H8_16 H 0.9836 0.6335 0.0565
C14_16 C 0.9948(3) 0.68073(10) 0.04872(10)
H10_16 H 0.9365 0.6854 0.0543
N1_15 N 0.2899(2) 0.45356(7) 0.03198(7)
C2_15 C 0.2723(3) 0.43269(10) 0.05514(10)
H1_15 H 0.2364 0.4393 0.0720
C4_15 C 0.3382(3) 0.44322(10) 0.00721(10)
C9_15 C 0.3562(3) 0.39142(9) 0.03006(10)
C17_15 C 0.3720(4) 0.41279(11) 0.00532(10)
C20_15 C 0.3046(3) 0.40199(11) 0.05540(11)
H16_15 H 0.2920 0.3884 0.0724
O1_15 O 0.1050(3) 0.48098(9) 0.05821(10)
O2_15 O 0.3952(3) 0.51931(11) 0.01638(9)
H18_15 H 0.4333 0.5295 0.0273
N5_15 N 0.0517(7) 0.4605(3) 0.0534(2)
O3_15 O 0.0108(7) 0.4415(3) 0.0332(2)
O4_15 O 0.0274(12) 0.4434(4) 0.0785(4)
N6_15 N 0.4601(2) 0.29644(7) 0.03198(7)
C21_15 C 0.4777(3) 0.31731(10) 0.05514(10)
H19_15 H 0.5136 0.3107 0.0720
C22_15 C 0.4118(3) 0.30678(10) 0.00721(10)
C23_15 C 0.3938(3) 0.35858(9) 0.03006(10)
C24_15 C 0.3780(4) 0.33721(11) 0.00532(10)
C25_15 C 0.4454(3) 0.34801(11) 0.05540(11)
H22_15 H 0.4580 0.3616 0.0724
O5_15 O 0.6450(3) 0.26902(9) 0.05821(10)
O6_15 O 0.3548(3) 0.23069(11) 0.01638(9)
H36_15 H 0.3167 0.2205 0.0273
N10_15 N 0.6983(7) 0.2895(3) 0.0534(2)
O7_15 O 0.7392(7) 0.3085(3) 0.0332(2)
O8_15 O 0.7226(12) 0.3066(4) 0.0785(4)
N2_15 N 0.2040(2) 0.49880(7) 0.98956(7)
C1_15 C 0.1438(3) 0.49814(10) 0.92661(8)
C3_15 C 0.1107(3) 0.49784(9) 0.89312(9)
H2_15 H 0.3493 0.4574 0.9905
C6_15 C 0.1561(3) 0.47436(10) 0.97855(9)
H4_15 H 0.1435 0.4573 0.9921
C10_15 C 0.1276(3) 0.50977(12) 0.83798(10)
H6_15 H 0.1628 0.5178 0.8216
C13_15 C 0.2231(3) 0.52245(10) 0.96960(9)
H9_15 H 0.2575 0.5394 0.9770
C15_15 C 0.1942(3) 0.52317(11) 0.93802(9)
H11_15 H 0.2088 0.5403 0.9248
C16_15 C 0.1241(3) 0.47347(10) 0.94739(9)
H12_15 H 0.0896 0.4563 0.9406
H13_15 H 0.4051 0.4065 0.9877
C18_15 C 0.1602(3) 0.51012(12) 0.86843(10)
H14_15 H 0.2160 0.5187 0.8725
C19_15 C 0.0279(3) 0.48554(11) 0.88574(9)
H17_15 H 0.4125 0.5215 0.9972
H20_15 H 0.4007 0.2926 0.9905
H21_15 H 0.3449 0.3435 0.9877
N8_15 N 0.5460(2) 0.25120(7) 0.98956(7)
C31_15 C 0.6062(3) 0.25186(10) 0.92661(8)
C32_15 C 0.6393(3) 0.25216(9) 0.89312(9)
C33_15 C 0.5939(3) 0.27564(10) 0.97855(9)
H27_15 H 0.6065 0.2927 0.9921
C34_15 C 0.6224(3) 0.24023(12) 0.83798(10)
H28_15 H 0.5872 0.2322 0.8216
C35_15 C 0.7516(3) 0.26365(10) 0.85467(9)
H29_15 H 0.8076 0.2718 0.8501
C36_15 C 0.5269(3) 0.22755(10) 0.96960(9)
H30_15 H 0.4925 0.2106 0.9770
C37_15 C 0.5558(3) 0.22683(11) 0.93802(9)
H31_15 H 0.5412 0.2097 0.9248
C38_15 C 0.6259(3) 0.27653(10) 0.94739(9)
H32_15 H 0.6604 0.2937 0.9406
C39_15 C 0.5898(3) 0.23988(12) 0.86843(10)
H33_15 H 0.5340 0.2313 0.8725
C40_15 C 0.7221(3) 0.26446(11) 0.88574(9)
H34_15 H 0.7575 0.2732 0.9017
H35_15 H 0.3375 0.2285 0.9972
C11_14 C 0.9984(3) 0.48635(10) 0.85467(9)
H7_14 H 0.9424 0.4782 0.8501
H15_14 H 0.9925 0.4768 0.9017
C10_16 C 0.1276(3) 0.00977(12) 0.33798(10)
H6_16 H 0.1628 0.0178 0.3216
C13_16 C 0.2231(3) 0.02245(10) 0.46960(9)
H9_16 H 0.2575 0.0394 0.4770
C15_16 C 0.1942(3) 0.02317(11) 0.43802(9)
H11_16 H 0.2088 0.0403 0.4248
C18_16 C 0.1602(3) 0.01012(12) 0.36843(10)
H14_16 H 0.2160 0.0187 0.3725
O2_16 O 0.3952(3) 0.01931(11) 0.51638(9)
H17_16 H 0.4125 0.0215 0.4972
H18_16 H 0.4333 0.0295 0.5273
N1_16 N 0.2899(2) 0.95356(7) 0.53198(7)
N2_16 N 0.2040(2) 0.99880(7) 0.48956(7)
C1_16 C 0.1438(3) 0.99814(10) 0.42661(8)
C2_16 C 0.2723(3) 0.93269(10) 0.55514(10)
H1_16 H 0.2364 0.9393 0.5720
C3_16 C 0.1107(3) 0.99784(9) 0.39312(9)
C4_16 C 0.3382(3) 0.94322(10) 0.50721(10)
H2_16 H 0.3493 0.9574 0.4905
C6_16 C 0.1561(3) 0.97436(10) 0.47855(9)
H4_16 H 0.1435 0.9573 0.4921
C9_16 C 0.3562(3) 0.89142(9) 0.53006(10)
C16_16 C 0.1241(3) 0.97347(10) 0.44739(9)
H12_16 H 0.0896 0.9563 0.4406
C17_16 C 0.3720(4) 0.91279(11) 0.50532(10)
H13_16 H 0.4051 0.9065 0.4877
C19_16 C 0.0279(3) 0.98554(11) 0.38574(9)
C20_16 C 0.3046(3) 0.90199(11) 0.55540(11)
H16_16 H 0.2920 0.8884 0.5724
O1_16 O 0.1050(3) 0.98098(9) 0.55821(10)
N5_16 N 0.0517(7) 0.9605(3) 0.5534(2)
O3_16 O 0.0108(7) 0.9415(3) 0.5332(2)
O4_16 O 0.0274(12) 0.9434(4) 0.5785(4)
N6_16 N 0.4601(2) 0.79644(7) 0.53198(7)
C21_16 C 0.4777(3) 0.81731(10) 0.55514(10)
H19_16 H 0.5136 0.8107 0.5720
C22_16 C 0.4118(3) 0.80678(10) 0.50721(10)
H20_16 H 0.4007 0.7926 0.4905
C23_16 C 0.3938(3) 0.85858(9) 0.53006(10)
C24_16 C 0.3780(4) 0.83721(11) 0.50532(10)
H21_16 H 0.3449 0.8435 0.4877
C25_16 C 0.4454(3) 0.84801(11) 0.55540(11)
H22_16 H 0.4580 0.8616 0.5724
N8_16 N 0.5460(2) 0.75120(7) 0.48956(7)
C31_16 C 0.6062(3) 0.75186(10) 0.42661(8)
C32_16 C 0.6393(3) 0.75216(9) 0.39312(9)
C33_16 C 0.5939(3) 0.77564(10) 0.47855(9)
H27_16 H 0.6065 0.7927 0.4921
C34_16 C 0.6224(3) 0.74023(12) 0.33798(10)
H28_16 H 0.5872 0.7322 0.3216
C35_16 C 0.7516(3) 0.76365(10) 0.35467(9)
H29_16 H 0.8076 0.7718 0.3501
C36_16 C 0.5269(3) 0.72755(10) 0.46960(9)
H30_16 H 0.4925 0.7106 0.4770
C37_16 C 0.5558(3) 0.72683(11) 0.43802(9)
H31_16 H 0.5412 0.7097 0.4248
C38_16 C 0.6259(3) 0.77653(10) 0.44739(9)
H32_16 H 0.6604 0.7937 0.4406
C39_16 C 0.5898(3) 0.73988(12) 0.36843(10)
H33_16 H 0.5340 0.7313 0.3725
C40_16 C 0.7221(3) 0.76446(11) 0.38574(9)
H34_16 H 0.7575 0.7732 0.4017
O5_16 O 0.6450(3) 0.76902(9) 0.55821(10)
O6_16 O 0.3548(3) 0.73069(11) 0.51638(9)
H35_16 H 0.3375 0.7285 0.4972
H36_16 H 0.3167 0.7205 0.5273
N10_16 N 0.6983(7) 0.7895(3) 0.5534(2)
O7_16 O 0.7392(7) 0.8085(3) 0.5332(2)
O8_16 O 0.7226(12) 0.8066(4) 0.5785(4)
C11_15 C 0.0016(3) 0.01365(10) 0.64533(9)
H7_15 H 0.0576 0.0218 0.6499
H15_15 H 0.0075 0.0232 0.5983
C11_16 C 0.9984(3) 0.98635(10) 0.35467(9)
H7_16 H 0.9424 0.9782 0.3501
H15_16 H 0.9925 0.9768 0.4017
loop_
_geom_bond_atom_site_label_1
_geom_bond_atom_site_label_2
_geom_bond_site_symmetry_1
_geom_bond_site_symmetry_2
Cu1 N1 1_555 1_555
N1 C2 1_555 1_555
N2 Cu1 1_555 1_555
N3 Cu1 1_555 1_555
C1 C3 1_555 1_555
C2 H1 1_555 1_555
C3 C18 1_555 1_555
C4 N1 1_555 1_555
H2 C4 1_555 1_555
C5 N3 1_555 1_555
H3 C5 1_555 1_555
C6 N2 1_555 1_555
H4 C6 1_555 1_555
C7 C8 1_555 1_555
C8 C5 1_555 1_555
H5 C8 1_555 1_555
C9 C17 1_555 1_555
C10 H6 1_555 1_555
C11 H7 1_555 1_555
C12 C7 1_555 1_555
H8 C12 1_555 1_555
C13 N2 1_555 1_555
H9 C13 1_555 1_555
C14 N3 1_555 1_555
H10 C14 1_555 1_555
C15 C1 1_555 1_555
H11 C15 1_555 1_555
C16 C1 1_555 1_555
H12 C16 1_555 1_555
C17 C4 1_555 1_555
H13 C17 1_555 1_555
C18 C10 1_555 1_555
H14 C18 1_555 1_555
C19 C3 1_555 1_555
H15 C19 1_555 1_555
C20 C2 1_555 1_555
H16 C20 1_555 1_555
N4 C10 1_555 1_555
O1 Cu1 1_555 1_555
O2 Cu1 1_555 1_555
H17 O2 1_555 1_555
H18 O2 1_555 1_555
N5 O1 1_555 1_555
O3 N5 1_555 1_555
O4 N5 1_555 1_555
N6 C21 1_555 1_555
C22 N6 1_555 1_555
H20 C22 1_555 1_555
C23 C9 1_555 1_555
C24 C22 1_555 1_555
H21 C24 1_555 1_555
C25 C21 1_555 1_555
H22 C25 1_555 1_555
N7 C26 1_555 1_555
C26 H23 1_555 1_555
C27 C7 1_555 1_555
C28 C26 1_555 1_555
H24 C28 1_555 1_555
C29 C27 1_555 1_555
H25 C29 1_555 1_555
C30 N7 1_555 1_555
H26 C30 1_555 1_555
H35 O6 1_555 1_555
H36 O6 1_555 1_555
Cu3 N7 1_555 1_555
Cu5 N4 1_555 1_555
N12 Cu1 1_555 1_555
C6 C16 1_555 1_555
C9 C20 1_555 1_555
C11 C19 1_555 1_555
C11 N4 1_555 1_555
C12 C14 1_555 1_555
C13 C15 1_555 1_555
C23 C24 1_555 1_555
C23 C25 1_555 1_555
C27 C28 1_555 1_555
C29 C30 1_555 1_555
N8 Cu2 1_555 1_555
C31 C32 1_555 1_555
C32 C39 1_555 1_555
C33 N8 1_555 1_555
H27 C33 1_555 1_555
C34 H28 1_555 1_555
C35 H29 1_555 1_555
C36 N8 1_555 1_555
C37 C31 1_555 1_555
H31 C37 1_555 1_555
C38 C31 1_555 1_555
H32 C38 1_555 1_555
C39 C34 1_555 1_555
H33 C39 1_555 1_555
C40 C32 1_555 1_555
H34 C40 1_555 1_555
N9 C34 1_555 1_555
O5 Cu2 1_555 1_555
N10 O5 1_555 1_555
O7 N10 1_555 1_555
O8 N10 1_555 1_555
Cu4 N9 1_555 1_555
N11 Cu2 1_555 1_555
C33 C38 1_555 1_555
C35 C40 1_555 1_555
C35 N9 1_555 1_555
C36 C37 1_555 1_555
H10_2 C14_2 1_555 1_555
C5_2 N11 1_555 1_555
H3_2 C5_2 1_555 1_555
C7_2 C8_2 1_555 1_555
C8_2 C5_2 1_555 1_555
H5_2 C8_2 1_555 1_555
C12_2 C7_2 1_555 1_555
N7_2 C26_2 1_555 1_555
C26_2 H23_2 1_555 1_555
C27_2 C7_2 1_555 1_555
C28_2 C26_2 1_555 1_555
H24_2 C28_2 1_555 1_555
C29_2 C27_2 1_555 1_555
H25_2 C29_2 1_555 1_555
C30_2 N7_2 1_555 1_555
H26_2 C30_2 1_555 1_555
C27_2 C28_2 1_555 1_555
C29_2 C30_2 1_555 1_555
C1_2 C3_2 1_555 1_555
C6_2 N2_2 1_555 1_555
H4_2 C6_2 1_555 1_555
C11_2 H7_2 1_555 1_555
C16_2 C1_2 1_555 1_555
H12_2 C16_2 1_555 1_555
C19_2 C3_2 1_555 1_555
H15_2 C19_2 1_555 1_555
C6_2 C16_2 1_555 1_555
C11_2 C19_2 1_555 1_555
C11_2 N4_2 1_555 1_555
Cu1_2 N1_2 1_555 1_555
N1_2 C2_2 1_555 1_555
C2_2 H1_2 1_555 1_555
C4_2 N1_2 1_555 1_555
C9_2 C17_2 1_555 1_555
C17_2 C4_2 1_555 1_555
C20_2 C2_2 1_555 1_555
H16_2 C20_2 1_555 1_555
O1_2 Cu1_2 1_555 1_555
N5_2 O1_2 1_555 1_555
O3_2 N5_2 1_555 1_555
O4_2 N5_2 1_555 1_555
N6_2 C21_2 1_555 1_555
C22_2 N6_2 1_555 1_555
C23_2 C9_2 1_555 1_555
C24_2 C22_2 1_555 1_555
C25_2 C21_2 1_555 1_555
H22_2 C25_2 1_555 1_555
H36_2 O6_2 1_555 1_555
C9_2 C20_2 1_555 1_555
C23_2 C24_2 1_555 1_555
C23_2 C25_2 1_555 1_555
C10_2 H6_2 1_555 1_555
H9_2 C13_2 1_555 1_555
H11_2 C15_2 1_555 1_555
C18_2 C10_2 1_555 1_555
H14_2 C18_2 1_555 1_555
C13_2 C15_2 1_555 1_555
C5_3 N3_2 1_555 1_555
H3_3 C5_3 1_555 1_555
C7_3 C8_3 1_555 1_555
C8_3 C5_3 1_555 1_555
H5_3 C8_3 1_555 1_555
C12_3 C7_3 1_555 1_555
H8_3 C12_3 1_555 1_555
C14_3 N3_2 1_555 1_555
H10_3 C14_3 1_555 1_555
H18_2 O2_2 1_555 1_555
N7_3 C26_3 1_555 1_555
C26_3 H23_3 1_555 1_555
C27_3 C7_3 1_555 1_555
C28_3 C26_3 1_555 1_555
H24_3 C28_3 1_555 1_555
C29_3 C27_3 1_555 1_555
H25_3 C29_3 1_555 1_555
C30_3 N7_3 1_555 1_555
H26_3 C30_3 1_555 1_555
Cu3_3 N7_3 1_555 1_555
C12_3 C14_3 1_555 1_555
C27_3 C28_3 1_555 1_555
C29_3 C30_3 1_555 1_555
C31_2 C32_2 1_555 1_555
C32_2 C39_2 1_555 1_555
C33_2 N8_2 1_555 1_555
H27_2 C33_2 1_555 1_555
C34_2 H28_2 1_555 1_555
C35_2 H29_2 1_555 1_555
C36_2 N8_2 1_555 1_555
C37_2 C31_2 1_555 1_555
H31_2 C37_2 1_555 1_555
C38_2 C31_2 1_555 1_555
H32_2 C38_2 1_555 1_555
C39_2 C34_2 1_555 1_555
H33_2 C39_2 1_555 1_555
C40_2 C32_2 1_555 1_555
H34_2 C40_2 1_555 1_555
N9_2 C34_2 1_555 1_555
Cu4_2 N9_2 1_555 1_555
C33_2 C38_2 1_555 1_555
C35_2 C40_2 1_555 1_555
C35_2 N9_2 1_555 1_555
C36_2 C37_2 1_555 1_555
O5_2 Cu2_2 1_555 1_555
N10_2 O5_2 1_555 1_555
O7_2 N10_2 1_555 1_555
O8_2 N10_2 1_555 1_555
N11_2 Cu2_2 1_555 1_555
H10_4 C14_4 1_555 1_555
C5_4 N11_2 1_555 1_555
H3_4 C5_4 1_555 1_555
C7_4 C8_4 1_555 1_555
C8_4 C5_4 1_555 1_555
H5_4 C8_4 1_555 1_555
C12_4 C7_4 1_555 1_555
N7_4 C26_4 1_555 1_555
C26_4 H23_4 1_555 1_555
C27_4 C7_4 1_555 1_555
C28_4 C26_4 1_555 1_555
H24_4 C28_4 1_555 1_555
C29_4 C27_4 1_555 1_555
H25_4 C29_4 1_555 1_555
C30_4 N7_4 1_555 1_555
H26_4 C30_4 1_555 1_555
Cu3_4 N7_4 1_555 1_555
C27_4 C28_4 1_555 1_555
C29_4 C30_4 1_555 1_555
C11_3 H7_3 1_555 1_555
C1_3 C3_3 1_555 1_555
C3_3 C18_3 1_555 1_555
C6_3 N2_3 1_555 1_555
H4_3 C6_3 1_555 1_555
C10_3 H6_3 1_555 1_555
C13_3 N2_3 1_555 1_555
H9_3 C13_3 1_555 1_555
C15_3 C1_3 1_555 1_555
H11_3 C15_3 1_555 1_555
C16_3 C1_3 1_555 1_555
H12_3 C16_3 1_555 1_555
C18_3 C10_3 1_555 1_555
H14_3 C18_3 1_555 1_555
C19_3 C3_3 1_555 1_555
N4_3 C10_3 1_555 1_555
C31_3 C32_3 1_555 1_555
C32_3 C39_3 1_555 1_555
C33_3 N8_3 1_555 1_555
H27_3 C33_3 1_555 1_555
C34_3 H28_3 1_555 1_555
C35_3 H29_3 1_555 1_555
C36_3 N8_3 1_555 1_555
H30_3 C36_3 1_555 1_555
C37_3 C31_3 1_555 1_555
H31_3 C37_3 1_555 1_555
C38_3 C31_3 1_555 1_555
H32_3 C38_3 1_555 1_555
C39_3 C34_3 1_555 1_555
H33_3 C39_3 1_555 1_555
C40_3 C32_3 1_555 1_555
H34_3 C40_3 1_555 1_555
N9_3 C34_3 1_555 1_555
Cu4_3 N9_3 1_555 1_555
C6_3 C16_3 1_555 1_555
C13_3 C15_3 1_555 1_555
C33_3 C38_3 1_555 1_555
C35_3 C40_3 1_555 1_555
C35_3 N9_3 1_555 1_555
C36_3 C37_3 1_555 1_555
Cu3_4 N1_3 1_555 1_555
N1_3 C2_3 1_555 1_555
C2_3 H1_3 1_555 1_555
C4_3 N1_3 1_555 1_555
C9_3 C17_3 1_555 1_555
C17_3 C4_3 1_555 1_555
C20_3 C2_3 1_555 1_555
H16_3 C20_3 1_555 1_555
O1_3 Cu3_4 1_555 1_555
O2_3 Cu3_4 1_555 1_555
H18_3 O2_3 1_555 1_555
N5_3 O1_3 1_555 1_555
O3_3 N5_3 1_555 1_555
O4_3 N5_3 1_555 1_555
N6_3 C21_3 1_555 1_555
C21_3 H19_3 1_555 1_555
C22_3 N6_3 1_555 1_555
C23_3 C9_3 1_555 1_555
C24_3 C22_3 1_555 1_555
C25_3 C21_3 1_555 1_555
H22_3 C25_3 1_555 1_555
Cu3_3 N6_3 1_555 1_555
O5_3 Cu3_3 1_555 1_555
O6_3 Cu3_3 1_555 1_555
H36_3 O6_3 1_555 1_555
N10_3 O5_3 1_555 1_555
O7_3 N10_3 1_555 1_555
O8_3 N10_3 1_555 1_555
N12_3 Cu3_4 1_555 1_555
N13_3 Cu3_3 1_555 1_555
C9_3 C20_3 1_555 1_555
C23_3 C24_3 1_555 1_555
C23_3 C25_3 1_555 1_555
Cu3_2 N1_4 1_555 1_555
N1_4 C2_4 1_555 1_555
N2_4 Cu3_2 1_555 1_555
C1_4 C3_4 1_555 1_555
C2_4 H1_4 1_555 1_555
C4_4 N1_4 1_555 1_555
H2_4 C4_4 1_555 1_555
C6_4 N2_4 1_555 1_555
H4_4 C6_4 1_555 1_555
C9_4 C17_4 1_555 1_555
C16_4 C1_4 1_555 1_555
H12_4 C16_4 1_555 1_555
C17_4 C4_4 1_555 1_555
H13_4 C17_4 1_555 1_555
C19_4 C3_4 1_555 1_555
C20_4 C2_4 1_555 1_555
H16_4 C20_4 1_555 1_555
O1_4 Cu3_2 1_555 1_555
N5_4 O1_4 1_555 1_555
O3_4 N5_4 1_555 1_555
O4_4 N5_4 1_555 1_555
N6_4 C21_4 1_555 1_555
C21_4 H19_4 1_555 1_555
C22_4 N6_4 1_555 1_555
H20_4 C22_4 1_555 1_555
C23_4 C9_4 1_555 1_555
C24_4 C22_4 1_555 1_555
H21_4 C24_4 1_555 1_555
C25_4 C21_4 1_555 1_555
H22_4 C25_4 1_555 1_555
Cu3 N6_4 1_555 1_555
N8_4 Cu3 1_555 1_555
C31_4 C32_4 1_555 1_555
C32_4 C39_4 1_555 1_555
C33_4 N8_4 1_555 1_555
H27_4 C33_4 1_555 1_555
C34_4 H28_4 1_555 1_555
C35_4 H29_4 1_555 1_555
C36_4 N8_4 1_555 1_555
H30_4 C36_4 1_555 1_555
C37_4 C31_4 1_555 1_555
H31_4 C37_4 1_555 1_555
C38_4 C31_4 1_555 1_555
H32_4 C38_4 1_555 1_555
C39_4 C34_4 1_555 1_555
H33_4 C39_4 1_555 1_555
C40_4 C32_4 1_555 1_555
H34_4 C40_4 1_555 1_555
N9_4 C34_4 1_555 1_555
O5_4 Cu3 1_555 1_555
O6_4 Cu3 1_555 1_555
H35_4 O6_4 1_555 1_555
H36_4 O6_4 1_555 1_555
N10_4 O5_4 1_555 1_555
O7_4 N10_4 1_555 1_555
O8_4 N10_4 1_555 1_555
Cu4_4 N9_4 1_555 1_555
N13_4 Cu3 1_555 1_555
C6_4 C16_4 1_555 1_555
C9_4 C20_4 1_555 1_555
C23_4 C24_4 1_555 1_555
C23_4 C25_4 1_555 1_555
C33_4 C38_4 1_555 1_555
C35_4 C40_4 1_555 1_555
C35_4 N9_4 1_555 1_555
C36_4 C37_4 1_555 1_555
C10_4 H6_4 1_555 1_555
H9_4 C13_4 1_555 1_555
H11_4 C15_4 1_555 1_555
C18_4 C10_4 1_555 1_555
H14_4 C18_4 1_555 1_555
H17_4 O2_4 1_555 1_555
H18_4 O2_4 1_555 1_555
C13_4 C15_4 1_555 1_555
N8_5 Cu5_3 1_555 1_555
C31_5 C32_5 1_555 1_555
C32_5 C39_5 1_555 1_555
C33_5 N8_5 1_555 1_555
H27_5 C33_5 1_555 1_555
C34_5 H28_5 1_555 1_555
C35_5 H29_5 1_555 1_555
C36_5 N8_5 1_555 1_555
C37_5 C31_5 1_555 1_555
H31_5 C37_5 1_555 1_555
C38_5 C31_5 1_555 1_555
H32_5 C38_5 1_555 1_555
C39_5 C34_5 1_555 1_555
H33_5 C39_5 1_555 1_555
C40_5 C32_5 1_555 1_555
H34_5 C40_5 1_555 1_555
N12 C34_5 1_555 1_555
O5_5 Cu5_3 1_555 1_555
N10_5 O5_5 1_555 1_555
O7_5 N10_5 1_555 1_555
O8_5 N10_5 1_555 1_555
N11_3 Cu5_3 1_555 1_555
C33_5 C38_5 1_555 1_555
C35_5 C40_5 1_555 1_555
C35_5 N12 1_555 1_555
C36_5 C37_5 1_555 1_555
Cu4_2 N1_5 1_555 1_555
N1_5 C2_5 1_555 1_555
N2_5 Cu4_2 1_555 1_555
N3_3 Cu4_2 1_555 1_555
C1_5 C3_5 1_555 1_555
C2_5 H1_5 1_555 1_555
C3_5 C18_5 1_555 1_555
C4_5 N1_5 1_555 1_555
H2_5 C4_5 1_555 1_555
C5_5 N3_3 1_555 1_555
H3_5 C5_5 1_555 1_555
C6_5 N2_5 1_555 1_555
H4_5 C6_5 1_555 1_555
C7_5 C8_5 1_555 1_555
C8_5 C5_5 1_555 1_555
H5_5 C8_5 1_555 1_555
C9_5 C17_5 1_555 1_555
C10_5 H6_5 1_555 1_555
C11_4 H7_4 1_555 1_555
C12_5 C7_5 1_555 1_555
H8_5 C12_5 1_555 1_555
C13_5 N2_5 1_555 1_555
H9_5 C13_5 1_555 1_555
C14_5 N3_3 1_555 1_555
H10_5 C14_5 1_555 1_555
C15_5 C1_5 1_555 1_555
H11_5 C15_5 1_555 1_555
C16_5 C1_5 1_555 1_555
H12_5 C16_5 1_555 1_555
C17_5 C4_5 1_555 1_555
H13_5 C17_5 1_555 1_555
C18_5 C10_5 1_555 1_555
H14_5 C18_5 1_555 1_555
C19_5 C3_5 1_555 1_555
H15_4 C19_5 1_555 1_555
C20_5 C2_5 1_555 1_555
H16_5 C20_5 1_555 1_555
N13_4 C10_5 1_555 1_555
O1_5 Cu4_2 1_555 1_555
O2_5 Cu4_2 1_555 1_555
H17_5 O2_5 1_555 1_555
H18_5 O2_5 1_555 1_555
N5_5 O1_5 1_555 1_555
O3_5 N5_5 1_555 1_555
O4_5 N5_5 1_555 1_555
N6_5 C21_5 1_555 1_555
C22_5 N6_5 1_555 1_555
H20_5 C22_5 1_555 1_555
C23_5 C9_5 1_555 1_555
C24_5 C22_5 1_555 1_555
H21_5 C24_5 1_555 1_555
C25_5 C21_5 1_555 1_555
H22_5 C25_5 1_555 1_555
N7_5 C26_5 1_555 1_555
C26_5 H23_5 1_555 1_555
C27_5 C7_5 1_555 1_555
C28_5 C26_5 1_555 1_555
H24_5 C28_5 1_555 1_555
C29_5 C27_5 1_555 1_555
H25_5 C29_5 1_555 1_555
C30_5 N7_5 1_555 1_555
H26_5 C30_5 1_555 1_555
H35_5 O6_5 1_555 1_555
H36_5 O6_5 1_555 1_555
C6_5 C16_5 1_555 1_555
C9_5 C20_5 1_555 1_555
C11_4 C19_5 1_555 1_555
C11_4 N13_4 1_555 1_555
C12_5 C14_5 1_555 1_555
C13_5 C15_5 1_555 1_555
C23_5 C24_5 1_555 1_555
C23_5 C25_5 1_555 1_555
C27_5 C28_5 1_555 1_555
C29_5 C30_5 1_555 1_555
C5_6 N11_3 1_555 1_555
H3_6 C5_6 1_555 1_555
C7_6 C8_6 1_555 1_555
C8_6 C5_6 1_555 1_555
H5_6 C8_6 1_555 1_555
C12_6 C7_6 1_555 1_555
N7_6 C26_6 1_555 1_555
C26_6 H23_6 1_555 1_555
C27_6 C7_6 1_555 1_555
C28_6 C26_6 1_555 1_555
H24_6 C28_6 1_555 1_555
C29_6 C27_6 1_555 1_555
H25_6 C29_6 1_555 1_555
C30_6 N7_6 1_555 1_555
H26_6 C30_6 1_555 1_555
Cu4_3 N7_6 1_555 1_555
C27_6 C28_6 1_555 1_555
C29_6 C30_6 1_555 1_555
H10_6 C14_6 1_555 1_555
C34_6 H28_6 1_555 1_555
H31_6 C37_6 1_555 1_555
C39_6 C34_6 1_555 1_555
H33_6 C39_6 1_555 1_555
C36_6 C37_6 1_555 1_555
N8_6 Cu5_4 1_555 1_555
C31_6 C32_6 1_555 1_555
C33_6 N8_6 1_555 1_555
H27_6 C33_6 1_555 1_555
C35_6 H29_6 1_555 1_555
C38_6 C31_6 1_555 1_555
H32_6 C38_6 1_555 1_555
C40_6 C32_6 1_555 1_555
H34_6 C40_6 1_555 1_555
O5_6 Cu5_4 1_555 1_555
N10_6 O5_6 1_555 1_555
O7_6 N10_6 1_555 1_555
O8_6 N10_6 1_555 1_555
C33_6 C38_6 1_555 1_555
C35_6 C40_6 1_555 1_555
C35_6 N12_2 1_555 1_555
H35_6 O6_6 1_555 1_555
H36_6 O6_6 1_555 1_555
Cu4 N1_6 1_555 1_555
N1_6 C2_6 1_555 1_555
N2_6 Cu4 1_555 1_555
N3_4 Cu4 1_555 1_555
C1_6 C3_6 1_555 1_555
C2_6 H1_6 1_555 1_555
C3_6 C18_6 1_555 1_555
C4_6 N1_6 1_555 1_555
H2_6 C4_6 1_555 1_555
C5_7 N3_4 1_555 1_555
H3_7 C5_7 1_555 1_555
C6_6 N2_6 1_555 1_555
H4_6 C6_6 1_555 1_555
C7_7 C8_7 1_555 1_555
C8_7 C5_7 1_555 1_555
H5_7 C8_7 1_555 1_555
C9_6 C17_6 1_555 1_555
C10_6 H6_6 1_555 1_555
C11_5 H7_5 1_555 1_555
C12_7 C7_7 1_555 1_555
H8_7 C12_7 1_555 1_555
C13_6 N2_6 1_555 1_555
H9_6 C13_6 1_555 1_555
C14_7 N3_4 1_555 1_555
H10_7 C14_7 1_555 1_555
C15_6 C1_6 1_555 1_555
H11_6 C15_6 1_555 1_555
C16_6 C1_6 1_555 1_555
H12_6 C16_6 1_555 1_555
C17_6 C4_6 1_555 1_555
H13_6 C17_6 1_555 1_555
C18_6 C10_6 1_555 1_555
H14_6 C18_6 1_555 1_555
C19_6 C3_6 1_555 1_555
H15_5 C19_6 1_555 1_555
C20_6 C2_6 1_555 1_555
H16_6 C20_6 1_555 1_555
N13_3 C10_6 1_555 1_555
O1_6 Cu4 1_555 1_555
O2_6 Cu4 1_555 1_555
H17_6 O2_6 1_555 1_555
H18_6 O2_6 1_555 1_555
N5_6 O1_6 1_555 1_555
O3_6 N5_6 1_555 1_555
O4_6 N5_6 1_555 1_555
N6_6 C21_6 1_555 1_555
C22_6 N6_6 1_555 1_555
H20_6 C22_6 1_555 1_555
C23_6 C9_6 1_555 1_555
C24_6 C22_6 1_555 1_555
H21_6 C24_6 1_555 1_555
C25_6 C21_6 1_555 1_555
H22_6 C25_6 1_555 1_555
N7_7 C26_7 1_555 1_555
C26_7 H23_7 1_555 1_555
C27_7 C7_7 1_555 1_555
C28_7 C26_7 1_555 1_555
H24_7 C28_7 1_555 1_555
C29_7 C27_7 1_555 1_555
H25_7 C29_7 1_555 1_555
C30_7 N7_7 1_555 1_555
H26_7 C30_7 1_555 1_555
Cu5 N7_7 1_555 1_555
C6_6 C16_6 1_555 1_555
C9_6 C20_6 1_555 1_555
C11_5 C19_6 1_555 1_555
C11_5 N13_3 1_555 1_555
C12_7 C14_7 1_555 1_555
C13_6 C15_6 1_555 1_555
C23_6 C24_6 1_555 1_555
C23_6 C25_6 1_555 1_555
C27_7 C28_7 1_555 1_555
C29_7 C30_7 1_555 1_555
C5_8 N11_4 1_555 1_555
H3_8 C5_8 1_555 1_555
C7_8 C8_8 1_555 1_555
C8_8 C5_8 1_555 1_555
H5_8 C8_8 1_555 1_555
C12_8 C7_8 1_555 1_555
N7_8 C26_8 1_555 1_555
C26_8 H23_8 1_555 1_555
C27_8 C7_8 1_555 1_555
C28_8 C26_8 1_555 1_555
H24_8 C28_8 1_555 1_555
C29_8 C27_8 1_555 1_555
H25_8 C29_8 1_555 1_555
C30_8 N7_8 1_555 1_555
H26_8 C30_8 1_555 1_555
Cu4_4 N7_8 1_555 1_555
C27_8 C28_8 1_555 1_555
C29_8 C30_8 1_555 1_555
H10_8 C14_8 1_555 1_555
Cu4_4 N1_7 1_555 1_555
N1_7 C2_7 1_555 1_555
N2_7 Cu4_4 1_555 1_555
C1_7 C3_7 1_555 1_555
C2_7 H1_7 1_555 1_555
C3_7 C18_7 1_555 1_555
C4_7 N1_7 1_555 1_555
H2_7 C4_7 1_555 1_555
C6_7 N2_7 1_555 1_555
H4_7 C6_7 1_555 1_555
C9_7 C17_7 1_555 1_555
C10_7 H6_7 1_555 1_555
C13_7 N2_7 1_555 1_555
H9_7 C13_7 1_555 1_555
C15_7 C1_7 1_555 1_555
H11_7 C15_7 1_555 1_555
C16_7 C1_7 1_555 1_555
H12_7 C16_7 1_555 1_555
C17_7 C4_7 1_555 1_555
H13_7 C17_7 1_555 1_555
C18_7 C10_7 1_555 1_555
H14_7 C18_7 1_555 1_555
C19_7 C3_7 1_555 1_555
C20_7 C2_7 1_555 1_555
H16_7 C20_7 1_555 1_555
N13_2 C10_7 1_555 1_555
O1_7 Cu4_4 1_555 1_555
O2_7 Cu4_4 1_555 1_555
H17_7 O2_7 1_555 1_555
H18_7 O2_7 1_555 1_555
N5_7 O1_7 1_555 1_555
O3_7 N5_7 1_555 1_555
O4_7 N5_7 1_555 1_555
N6_7 C21_7 1_555 1_555
C21_7 H19_7 1_555 1_555
C22_7 N6_7 1_555 1_555
H20_7 C22_7 1_555 1_555
C23_7 C9_7 1_555 1_555
C24_7 C22_7 1_555 1_555
H21_7 C24_7 1_555 1_555
C25_7 C21_7 1_555 1_555
H22_7 C25_7 1_555 1_555
Cu5 N6_7 1_555 1_555
N8_7 Cu5 1_555 1_555
C31_7 C32_7 1_555 1_555
C32_7 C39_7 1_555 1_555
C33_7 N8_7 1_555 1_555
H27_7 C33_7 1_555 1_555
C34_7 H28_7 1_555 1_555
C35_7 H29_7 1_555 1_555
C36_7 N8_7 1_555 1_555
H30_7 C36_7 1_555 1_555
C37_7 C31_7 1_555 1_555
H31_7 C37_7 1_555 1_555
C38_7 C31_7 1_555 1_555
H32_7 C38_7 1_555 1_555
C39_7 C34_7 1_555 1_555
H33_7 C39_7 1_555 1_555
C40_7 C32_7 1_555 1_555
H34_7 C40_7 1_555 1_555
N12_3 C34_7 1_555 1_555
O5_7 Cu5 1_555 1_555
O6_7 Cu5 1_555 1_555
H35_7 O6_7 1_555 1_555
H36_7 O6_7 1_555 1_555
N10_7 O5_7 1_555 1_555
O7_7 N10_7 1_555 1_555
O8_7 N10_7 1_555 1_555
C6_7 C16_7 1_555 1_555
C9_7 C20_7 1_555 1_555
C13_7 C15_7 1_555 1_555
C23_7 C24_7 1_555 1_555
C23_7 C25_7 1_555 1_555
C33_7 C38_7 1_555 1_555
C35_7 C40_7 1_555 1_555
C35_7 N12_3 1_555 1_555
C36_7 C37_7 1_555 1_555
C11_6 H7_6 1_555 1_555
C34_8 H28_8 1_555 1_555
H30_8 C36_8 1_555 1_555
H31_8 C37_8 1_555 1_555
C39_8 C34_8 1_555 1_555
H33_8 C39_8 1_555 1_555
H35_8 O6_8 1_555 1_555
H36_8 O6_8 1_555 1_555
C36_8 C37_8 1_555 1_555
Cu4_3 N1_8 1_555 1_555
N1_8 C2_8 1_555 1_555
N2_8 Cu4_3 1_555 1_555
C1_8 C3_8 1_555 1_555
C2_8 H1_8 1_555 1_555
C3_8 C18_8 1_555 1_555
C4_8 N1_8 1_555 1_555
H2_8 C4_8 1_555 1_555
C6_8 N2_8 1_555 1_555
H4_8 C6_8 1_555 1_555
C9_8 C17_8 1_555 1_555
C10_8 H6_8 1_555 1_555
C13_8 N2_8 1_555 1_555
H9_8 C13_8 1_555 1_555
C15_8 C1_8 1_555 1_555
H11_8 C15_8 1_555 1_555
C16_8 C1_8 1_555 1_555
H12_8 C16_8 1_555 1_555
C17_8 C4_8 1_555 1_555
H13_8 C17_8 1_555 1_555
C18_8 C10_8 1_555 1_555
H14_8 C18_8 1_555 1_555
C19_8 C3_8 1_555 1_555
C20_8 C2_8 1_555 1_555
H16_8 C20_8 1_555 1_555
N13 C10_8 1_555 1_555
O1_8 Cu4_3 1_555 1_555
O2_8 Cu4_3 1_555 1_555
H17_8 O2_8 1_555 1_555
H18_8 O2_8 1_555 1_555
N5_8 O1_8 1_555 1_555
O3_8 N5_8 1_555 1_555
O4_8 N5_8 1_555 1_555
N6_8 C21_8 1_555 1_555
C21_8 H19_8 1_555 1_555
C22_8 N6_8 1_555 1_555
H20_8 C22_8 1_555 1_555
C23_8 C9_8 1_555 1_555
C24_8 C22_8 1_555 1_555
H21_8 C24_8 1_555 1_555
C25_8 C21_8 1_555 1_555
H22_8 C25_8 1_555 1_555
Cu5_2 N6_8 1_555 1_555
N8_8 Cu5_2 1_555 1_555
C31_8 C32_8 1_555 1_555
C33_8 N8_8 1_555 1_555
H27_8 C33_8 1_555 1_555
C35_8 H29_8 1_555 1_555
C38_8 C31_8 1_555 1_555
H32_8 C38_8 1_555 1_555
C40_8 C32_8 1_555 1_555
H34_8 C40_8 1_555 1_555
O5_8 Cu5_2 1_555 1_555
N10_8 O5_8 1_555 1_555
O7_8 N10_8 1_555 1_555
O8_8 N10_8 1_555 1_555
C6_8 C16_8 1_555 1_555
C9_8 C20_8 1_555 1_555
C13_8 C15_8 1_555 1_555
C23_8 C24_8 1_555 1_555
C23_8 C25_8 1_555 1_555
C33_8 C38_8 1_555 1_555
C35_8 C40_8 1_555 1_555
C35_8 N12_4 1_555 1_555
C11_7 H7_7 1_555 1_555
Cu1_3 N1_9 1_555 1_555
N1_9 C2_9 1_555 1_555
N2_9 Cu1_3 1_555 1_555
N3_5 Cu1_3 1_555 1_555
C1_9 C3_9 1_555 1_555
C2_9 H1_9 1_555 1_555
C3_9 C18_9 1_555 1_555
C4_9 N1_9 1_555 1_555
H2_9 C4_9 1_555 1_555
C5_9 N3_5 1_555 1_555
H3_9 C5_9 1_555 1_555
C6_9 N2_9 1_555 1_555
H4_9 C6_9 1_555 1_555
C7_9 C8_9 1_555 1_555
C8_9 C5_9 1_555 1_555
H5_9 C8_9 1_555 1_555
C9_9 C17_9 1_555 1_555
C10_9 H6_9 1_555 1_555
C11_8 H7_8 1_555 1_555
C12_9 C7_9 1_555 1_555
H8_9 C12_9 1_555 1_555
C13_9 N2_9 1_555 1_555
H9_9 C13_9 1_555 1_555
C14_9 N3_5 1_555 1_555
H10_9 C14_9 1_555 1_555
C15_9 C1_9 1_555 1_555
H11_9 C15_9 1_555 1_555
C16_9 C1_9 1_555 1_555
H12_9 C16_9 1_555 1_555
C17_9 C4_9 1_555 1_555
H13_9 C17_9 1_555 1_555
C18_9 C10_9 1_555 1_555
H14_9 C18_9 1_555 1_555
C19_9 C3_9 1_555 1_555
H15_8 C19_9 1_555 1_555
C20_9 C2_9 1_555 1_555
H16_9 C20_9 1_555 1_555
N4_5 C10_9 1_555 1_555
O1_9 Cu1_3 1_555 1_555
O2_9 Cu1_3 1_555 1_555
H17_9 O2_9 1_555 1_555
H18_9 O2_9 1_555 1_555
N5_9 O1_9 1_555 1_555
O3_9 N5_9 1_555 1_555
O4_9 N5_9 1_555 1_555
N6_9 C21_9 1_555 1_555
C22_9 N6_9 1_555 1_555
H20_9 C22_9 1_555 1_555
C23_9 C9_9 1_555 1_555
C24_9 C22_9 1_555 1_555
H21_9 C24_9 1_555 1_555
C25_9 C21_9 1_555 1_555
H22_9 C25_9 1_555 1_555
N7_9 C26_9 1_555 1_555
C26_9 H23_9 1_555 1_555
C27_9 C7_9 1_555 1_555
C28_9 C26_9 1_555 1_555
H24_9 C28_9 1_555 1_555
C29_9 C27_9 1_555 1_555
H25_9 C29_9 1_555 1_555
C30_9 N7_9 1_555 1_555
H26_9 C30_9 1_555 1_555
H35_9 O6_9 1_555 1_555
H36_9 O6_9 1_555 1_555
Cu5_5 N4_5 1_555 1_555
N12_5 Cu1_3 1_555 1_555
C6_9 C16_9 1_555 1_555
C9_9 C20_9 1_555 1_555
C11_8 C19_9 1_555 1_555
C11_8 N4_5 1_555 1_555
C12_9 C14_9 1_555 1_555
C13_9 C15_9 1_555 1_555
C23_9 C24_9 1_555 1_555
C23_9 C25_9 1_555 1_555
C27_9 C28_9 1_555 1_555
C29_9 C30_9 1_555 1_555
N8_9 Cu2_3 1_555 1_555
C31_9 C32_9 1_555 1_555
C32_9 C39_9 1_555 1_555
C33_9 N8_9 1_555 1_555
H27_9 C33_9 1_555 1_555
C34_9 H28_9 1_555 1_555
C35_9 H29_9 1_555 1_555
C36_9 N8_9 1_555 1_555
C37_9 C31_9 1_555 1_555
H31_9 C37_9 1_555 1_555
C38_9 C31_9 1_555 1_555
H32_9 C38_9 1_555 1_555
C39_9 C34_9 1_555 1_555
H33_9 C39_9 1_555 1_555
C40_9 C32_9 1_555 1_555
H34_9 C40_9 1_555 1_555
N9_5 C34_9 1_555 1_555
O5_9 Cu2_3 1_555 1_555
N10_9 O5_9 1_555 1_555
O7_9 N10_9 1_555 1_555
O8_9 N10_9 1_555 1_555
Cu4_5 N9_5 1_555 1_555
N11_5 Cu2_3 1_555 1_555
C33_9 C38_9 1_555 1_555
C35_9 C40_9 1_555 1_555
C35_9 N9_5 1_555 1_555
C36_9 C37_9 1_555 1_555
H10_10 C14_10 1_555 1_555
C5_10 N11_5 1_555 1_555
H3_10 C5_10 1_555 1_555
C7_10 C8_10 1_555 1_555
C8_10 C5_10 1_555 1_555
H5_10 C8_10 1_555 1_555
C12_10 C7_10 1_555 1_555
N7_10 C26_10 1_555 1_555
C26_10 H23_10 1_555 1_555
C27_10 C7_10 1_555 1_555
C28_10 C26_10 1_555 1_555
H24_10 C28_10 1_555 1_555
C29_10 C27_10 1_555 1_555
H25_10 C29_10 1_555 1_555
C30_10 N7_10 1_555 1_555
H26_10 C30_10 1_555 1_555
Cu3_6 N7_10 1_555 1_555
C27_10 C28_10 1_555 1_555
C29_10 C30_10 1_555 1_555
Cu1_4 N1_10 1_555 1_555
N1_10 C2_10 1_555 1_555
N2_10 Cu1_4 1_555 1_555
N3_6 Cu1_4 1_555 1_555
C1_10 C3_10 1_555 1_555
C2_10 H1_10 1_555 1_555
C3_10 C18_10 1_555 1_555
C4_10 N1_10 1_555 1_555
H2_10 C4_10 1_555 1_555
C5_11 N3_6 1_555 1_555
H3_11 C5_11 1_555 1_555
C6_10 N2_10 1_555 1_555
H4_10 C6_10 1_555 1_555
C7_11 C8_11 1_555 1_555
C8_11 C5_11 1_555 1_555
H5_11 C8_11 1_555 1_555
C9_10 C17_10 1_555 1_555
C10_10 H6_10 1_555 1_555
C11_9 H7_9 1_555 1_555
C12_11 C7_11 1_555 1_555
H8_11 C12_11 1_555 1_555
C13_10 N2_10 1_555 1_555
H9_10 C13_10 1_555 1_555
C14_11 N3_6 1_555 1_555
H10_11 C14_11 1_555 1_555
C15_10 C1_10 1_555 1_555
H11_10 C15_10 1_555 1_555
C16_10 C1_10 1_555 1_555
H12_10 C16_10 1_555 1_555
C17_10 C4_10 1_555 1_555
H13_10 C17_10 1_555 1_555
C18_10 C10_10 1_555 1_555
H14_10 C18_10 1_555 1_555
C19_10 C3_10 1_555 1_555
H15_9 C19_10 1_555 1_555
C20_10 C2_10 1_555 1_555
H16_10 C20_10 1_555 1_555
N4_6 C10_10 1_555 1_555
O1_10 Cu1_4 1_555 1_555
O2_10 Cu1_4 1_555 1_555
H17_10 O2_10 1_555 1_555
H18_10 O2_10 1_555 1_555
N5_10 O1_10 1_555 1_555
O3_10 N5_10 1_555 1_555
O4_10 N5_10 1_555 1_555
N6_10 C21_10 1_555 1_555
C22_10 N6_10 1_555 1_555
H20_10 C22_10 1_555 1_555
C23_10 C9_10 1_555 1_555
C24_10 C22_10 1_555 1_555
H21_10 C24_10 1_555 1_555
C25_10 C21_10 1_555 1_555
H22_10 C25_10 1_555 1_555
N7_11 C26_11 1_555 1_555
C26_11 H23_11 1_555 1_555
C27_11 C7_11 1_555 1_555
C28_11 C26_11 1_555 1_555
H24_11 C28_11 1_555 1_555
C29_11 C27_11 1_555 1_555
H25_11 C29_11 1_555 1_555
C30_11 N7_11 1_555 1_555
H26_11 C30_11 1_555 1_555
Cu3_7 N7_11 1_555 1_555
Cu5_6 N4_6 1_555 1_555
N12_6 Cu1_4 1_555 1_555
C6_10 C16_10 1_555 1_555
C9_10 C20_10 1_555 1_555
C11_9 C19_10 1_555 1_555
C11_9 N4_6 1_555 1_555
C12_11 C14_11 1_555 1_555
C13_10 C15_10 1_555 1_555
C23_10 C24_10 1_555 1_555
C23_10 C25_10 1_555 1_555
C27_11 C28_11 1_555 1_555
C29_11 C30_11 1_555 1_555
H35_10 O6_10 1_555 1_555
H36_10 O6_10 1_555 1_555
N8_10 Cu2_4 1_555 1_555
C31_10 C32_10 1_555 1_555
C33_10 N8_10 1_555 1_555
H27_10 C33_10 1_555 1_555
C35_10 H29_10 1_555 1_555
C38_10 C31_10 1_555 1_555
H32_10 C38_10 1_555 1_555
C40_10 C32_10 1_555 1_555
H34_10 C40_10 1_555 1_555
O5_10 Cu2_4 1_555 1_555
N10_10 O5_10 1_555 1_555
O7_10 N10_10 1_555 1_555
O8_10 N10_10 1_555 1_555
C33_10 C38_10 1_555 1_555
C35_10 C40_10 1_555 1_555
C35_10 N9_6 1_555 1_555
C34_10 H28_10 1_555 1_555
H31_10 C37_10 1_555 1_555
C39_10 C34_10 1_555 1_555
H33_10 C39_10 1_555 1_555
C36_10 C37_10 1_555 1_555
H10_12 C14_12 1_555 1_555
C5_12 N11_6 1_555 1_555
H3_12 C5_12 1_555 1_555
C7_12 C8_12 1_555 1_555
C8_12 C5_12 1_555 1_555
H5_12 C8_12 1_555 1_555
C12_12 C7_12 1_555 1_555
N7_12 C26_12 1_555 1_555
C26_12 H23_12 1_555 1_555
C27_12 C7_12 1_555 1_555
C28_12 C26_12 1_555 1_555
H24_12 C28_12 1_555 1_555
C29_12 C27_12 1_555 1_555
H25_12 C29_12 1_555 1_555
C30_12 N7_12 1_555 1_555
H26_12 C30_12 1_555 1_555
Cu3_8 N7_12 1_555 1_555
C27_12 C28_12 1_555 1_555
C29_12 C30_12 1_555 1_555
C11_10 H7_10 1_555 1_555
Cu3_8 N1_11 1_555 1_555
N1_11 C2_11 1_555 1_555
N2_11 Cu3_8 1_555 1_555
C1_11 C3_11 1_555 1_555
C2_11 H1_11 1_555 1_555
C3_11 C18_11 1_555 1_555
C4_11 N1_11 1_555 1_555
H2_11 C4_11 1_555 1_555
C6_11 N2_11 1_555 1_555
H4_11 C6_11 1_555 1_555
C9_11 C17_11 1_555 1_555
C10_11 H6_11 1_555 1_555
C13_11 N2_11 1_555 1_555
H9_11 C13_11 1_555 1_555
C15_11 C1_11 1_555 1_555
H11_11 C15_11 1_555 1_555
C16_11 C1_11 1_555 1_555
H12_11 C16_11 1_555 1_555
C17_11 C4_11 1_555 1_555
H13_11 C17_11 1_555 1_555
C18_11 C10_11 1_555 1_555
H14_11 C18_11 1_555 1_555
C19_11 C3_11 1_555 1_555
C20_11 C2_11 1_555 1_555
H16_11 C20_11 1_555 1_555
N4_7 C10_11 1_555 1_555
O1_11 Cu3_8 1_555 1_555
O2_11 Cu3_8 1_555 1_555
H17_11 O2_11 1_555 1_555
H18_11 O2_11 1_555 1_555
N5_11 O1_11 1_555 1_555
O3_11 N5_11 1_555 1_555
O4_11 N5_11 1_555 1_555
N6_11 C21_11 1_555 1_555
C21_11 H19_11 1_555 1_555
C22_11 N6_11 1_555 1_555
H20_11 C22_11 1_555 1_555
C23_11 C9_11 1_555 1_555
C24_11 C22_11 1_555 1_555
H21_11 C24_11 1_555 1_555
C25_11 C21_11 1_555 1_555
H22_11 C25_11 1_555 1_555
Cu3_7 N6_11 1_555 1_555
N8_11 Cu3_7 1_555 1_555
C31_11 C32_11 1_555 1_555
C32_11 C39_11 1_555 1_555
C33_11 N8_11 1_555 1_555
H27_11 C33_11 1_555 1_555
C34_11 H28_11 1_555 1_555
C35_11 H29_11 1_555 1_555
C36_11 N8_11 1_555 1_555
H30_11 C36_11 1_555 1_555
C37_11 C31_11 1_555 1_555
H31_11 C37_11 1_555 1_555
C38_11 C31_11 1_555 1_555
H32_11 C38_11 1_555 1_555
C39_11 C34_11 1_555 1_555
H33_11 C39_11 1_555 1_555
C40_11 C32_11 1_555 1_555
H34_11 C40_11 1_555 1_555
N9_7 C34_11 1_555 1_555
O5_11 Cu3_7 1_555 1_555
O6_11 Cu3_7 1_555 1_555
H35_11 O6_11 1_555 1_555
H36_11 O6_11 1_555 1_555
N10_11 O5_11 1_555 1_555
O7_11 N10_11 1_555 1_555
O8_11 N10_11 1_555 1_555
Cu4_7 N9_7 1_555 1_555
N12_7 Cu3_8 1_555 1_555
N13_7 Cu3_7 1_555 1_555
C6_11 C16_11 1_555 1_555
C9_11 C20_11 1_555 1_555
C13_11 C15_11 1_555 1_555
C23_11 C24_11 1_555 1_555
C23_11 C25_11 1_555 1_555
C33_11 C38_11 1_555 1_555
C35_11 C40_11 1_555 1_555
C35_11 N9_7 1_555 1_555
C36_11 C37_11 1_555 1_555
C11_11 H7_11 1_555 1_555
Cu3_6 N1_12 1_555 1_555
N1_12 C2_12 1_555 1_555
N2_12 Cu3_6 1_555 1_555
C1_12 C3_12 1_555 1_555
C2_12 H1_12 1_555 1_555
C3_12 C18_12 1_555 1_555
C4_12 N1_12 1_555 1_555
H2_12 C4_12 1_555 1_555
C6_12 N2_12 1_555 1_555
H4_12 C6_12 1_555 1_555
C9_12 C17_12 1_555 1_555
C10_12 H6_12 1_555 1_555
C13_12 N2_12 1_555 1_555
H9_12 C13_12 1_555 1_555
C15_12 C1_12 1_555 1_555
H11_12 C15_12 1_555 1_555
C16_12 C1_12 1_555 1_555
H12_12 C16_12 1_555 1_555
C17_12 C4_12 1_555 1_555
H13_12 C17_12 1_555 1_555
C18_12 C10_12 1_555 1_555
H14_12 C18_12 1_555 1_555
C19_12 C3_12 1_555 1_555
C20_12 C2_12 1_555 1_555
H16_12 C20_12 1_555 1_555
N4_8 C10_12 1_555 1_555
O1_12 Cu3_6 1_555 1_555
O2_12 Cu3_6 1_555 1_555
H17_12 O2_12 1_555 1_555
H18_12 O2_12 1_555 1_555
N5_12 O1_12 1_555 1_555
O3_12 N5_12 1_555 1_555
O4_12 N5_12 1_555 1_555
N6_12 C21_12 1_555 1_555
C21_12 H19_12 1_555 1_555
C22_12 N6_12 1_555 1_555
H20_12 C22_12 1_555 1_555
C23_12 C9_12 1_555 1_555
C24_12 C22_12 1_555 1_555
H21_12 C24_12 1_555 1_555
C25_12 C21_12 1_555 1_555
H22_12 C25_12 1_555 1_555
Cu3_5 N6_12 1_555 1_555
N8_12 Cu3_5 1_555 1_555
C31_12 C32_12 1_555 1_555
C33_12 N8_12 1_555 1_555
H27_12 C33_12 1_555 1_555
C35_12 H29_12 1_555 1_555
C38_12 C31_12 1_555 1_555
H32_12 C38_12 1_555 1_555
C40_12 C32_12 1_555 1_555
H34_12 C40_12 1_555 1_555
O5_12 Cu3_5 1_555 1_555
N10_12 O5_12 1_555 1_555
O7_12 N10_12 1_555 1_555
O8_12 N10_12 1_555 1_555
N12_8 Cu3_6 1_555 1_555
C6_12 C16_12 1_555 1_555
C9_12 C20_12 1_555 1_555
C13_12 C15_12 1_555 1_555
C23_12 C24_12 1_555 1_555
C23_12 C25_12 1_555 1_555
C33_12 C38_12 1_555 1_555
C35_12 C40_12 1_555 1_555
C35_12 N9_8 1_555 1_555
C34_12 H28_12 1_555 1_555
H30_12 C36_12 1_555 1_555
H31_12 C37_12 1_555 1_555
C39_12 C34_12 1_555 1_555
H33_12 C39_12 1_555 1_555
H35_12 O6_12 1_555 1_555
H36_12 O6_12 1_555 1_555
C36_12 C37_12 1_555 1_555
N8_13 Cu5_8 1_555 1_555
C31_13 C32_13 1_555 1_555
C32_13 C39_13 1_555 1_555
C33_13 N8_13 1_555 1_555
H27_13 C33_13 1_555 1_555
C34_13 H28_13 1_555 1_555
C35_13 H29_13 1_555 1_555
C36_13 N8_13 1_555 1_555
C37_13 C31_13 1_555 1_555
H31_13 C37_13 1_555 1_555
C38_13 C31_13 1_555 1_555
H32_13 C38_13 1_555 1_555
C39_13 C34_13 1_555 1_555
H33_13 C39_13 1_555 1_555
C40_13 C32_13 1_555 1_555
H34_13 C40_13 1_555 1_555
N12_6 C34_13 1_555 1_555
O5_13 Cu5_8 1_555 1_555
N10_13 O5_13 1_555 1_555
O7_13 N10_13 1_555 1_555
O8_13 N10_13 1_555 1_555
N11_7 Cu5_8 1_555 1_555
C33_13 C38_13 1_555 1_555
C35_13 C40_13 1_555 1_555
C35_13 N12_6 1_555 1_555
C36_13 C37_13 1_555 1_555
Cu4_5 N1_13 1_555 1_555
N1_13 C2_13 1_555 1_555
N2_13 Cu4_5 1_555 1_555
N3_7 Cu4_5 1_555 1_555
C1_13 C3_13 1_555 1_555
C2_13 H1_13 1_555 1_555
C3_13 C18_13 1_555 1_555
C4_13 N1_13 1_555 1_555
H2_13 C4_13 1_555 1_555
C5_13 N3_7 1_555 1_555
H3_13 C5_13 1_555 1_555
C6_13 N2_13 1_555 1_555
H4_13 C6_13 1_555 1_555
C7_13 C8_13 1_555 1_555
C8_13 C5_13 1_555 1_555
H5_13 C8_13 1_555 1_555
C9_13 C17_13 1_555 1_555
C10_13 H6_13 1_555 1_555
C11_12 H7_12 1_555 1_555
C12_13 C7_13 1_555 1_555
H8_13 C12_13 1_555 1_555
C13_13 N2_13 1_555 1_555
H9_13 C13_13 1_555 1_555
C14_13 N3_7 1_555 1_555
H10_13 C14_13 1_555 1_555
C15_13 C1_13 1_555 1_555
H11_13 C15_13 1_555 1_555
C16_13 C1_13 1_555 1_555
H12_13 C16_13 1_555 1_555
C17_13 C4_13 1_555 1_555
H13_13 C17_13 1_555 1_555
C18_13 C10_13 1_555 1_555
H14_13 C18_13 1_555 1_555
C19_13 C3_13 1_555 1_555
H15_12 C19_13 1_555 1_555
C20_13 C2_13 1_555 1_555
H16_13 C20_13 1_555 1_555
N13_7 C10_13 1_555 1_555
O1_13 Cu4_5 1_555 1_555
O2_13 Cu4_5 1_555 1_555
H17_13 O2_13 1_555 1_555
H18_13 O2_13 1_555 1_555
N5_13 O1_13 1_555 1_555
O3_13 N5_13 1_555 1_555
O4_13 N5_13 1_555 1_555
N6_13 C21_13 1_555 1_555
C22_13 N6_13 1_555 1_555
H20_13 C22_13 1_555 1_555
C23_13 C9_13 1_555 1_555
C24_13 C22_13 1_555 1_555
H21_13 C24_13 1_555 1_555
C25_13 C21_13 1_555 1_555
H22_13 C25_13 1_555 1_555
N7_13 C26_13 1_555 1_555
C26_13 H23_13 1_555 1_555
C27_13 C7_13 1_555 1_555
C28_13 C26_13 1_555 1_555
H24_13 C28_13 1_555 1_555
C29_13 C27_13 1_555 1_555
H25_13 C29_13 1_555 1_555
C30_13 N7_13 1_555 1_555
H26_13 C30_13 1_555 1_555
H35_13 O6_13 1_555 1_555
H36_13 O6_13 1_555 1_555
Cu5_5 N7_13 1_555 1_555
C6_13 C16_13 1_555 1_555
C9_13 C20_13 1_555 1_555
C11_12 C19_13 1_555 1_555
C11_12 N13_7 1_555 1_555
C12_13 C14_13 1_555 1_555
C13_13 C15_13 1_555 1_555
C23_13 C24_13 1_555 1_555
C23_13 C25_13 1_555 1_555
C27_13 C28_13 1_555 1_555
C29_13 C30_13 1_555 1_555
C5_14 N11_7 1_555 1_555
H3_14 C5_14 1_555 1_555
C7_14 C8_14 1_555 1_555
C8_14 C5_14 1_555 1_555
H5_14 C8_14 1_555 1_555
C12_14 C7_14 1_555 1_555
N7_14 C26_14 1_555 1_555
C26_14 H23_14 1_555 1_555
C27_14 C7_14 1_555 1_555
C28_14 C26_14 1_555 1_555
H24_14 C28_14 1_555 1_555
C29_14 C27_14 1_555 1_555
H25_14 C29_14 1_555 1_555
C30_14 N7_14 1_555 1_555
H26_14 C30_14 1_555 1_555
C27_14 C28_14 1_555 1_555
C29_14 C30_14 1_555 1_555
H10_14 C14_14 1_555 1_555
O5_14 Cu5_7 1_555 1_555
N10_14 O5_14 1_555 1_555
O7_14 N10_14 1_555 1_555
O8_14 N10_14 1_555 1_555
N11_8 Cu5_7 1_555 1_555
C31_14 C32_14 1_555 1_555
C32_14 C39_14 1_555 1_555
C33_14 N8_14 1_555 1_555
H27_14 C33_14 1_555 1_555
C34_14 H28_14 1_555 1_555
C35_14 H29_14 1_555 1_555
C36_14 N8_14 1_555 1_555
C37_14 C31_14 1_555 1_555
H31_14 C37_14 1_555 1_555
C38_14 C31_14 1_555 1_555
H32_14 C38_14 1_555 1_555
C39_14 C34_14 1_555 1_555
H33_14 C39_14 1_555 1_555
C40_14 C32_14 1_555 1_555
H34_14 C40_14 1_555 1_555
N12_5 C34_14 1_555 1_555
C33_14 C38_14 1_555 1_555
C35_14 C40_14 1_555 1_555
C35_14 N12_5 1_555 1_555
C36_14 C37_14 1_555 1_555
C5_15 N3_8 1_555 1_555
H3_15 C5_15 1_555 1_555
C7_15 C8_15 1_555 1_555
C8_15 C5_15 1_555 1_555
H5_15 C8_15 1_555 1_555
C12_15 C7_15 1_555 1_555
H8_15 C12_15 1_555 1_555
C14_15 N3_8 1_555 1_555
H10_15 C14_15 1_555 1_555
H18_14 O2_14 1_555 1_555
N7_15 C26_15 1_555 1_555
C26_15 H23_15 1_555 1_555
C27_15 C7_15 1_555 1_555
C28_15 C26_15 1_555 1_555
H24_15 C28_15 1_555 1_555
C29_15 C27_15 1_555 1_555
H25_15 C29_15 1_555 1_555
C30_15 N7_15 1_555 1_555
H26_15 C30_15 1_555 1_555
Cu5_6 N7_15 1_555 1_555
C12_15 C14_15 1_555 1_555
C27_15 C28_15 1_555 1_555
C29_15 C30_15 1_555 1_555
C10_14 H6_14 1_555 1_555
H9_14 C13_14 1_555 1_555
H11_14 C15_14 1_555 1_555
C18_14 C10_14 1_555 1_555
H14_14 C18_14 1_555 1_555
C13_14 C15_14 1_555 1_555
Cu4_6 N1_14 1_555 1_555
N1_14 C2_14 1_555 1_555
C2_14 H1_14 1_555 1_555
C4_14 N1_14 1_555 1_555
C9_14 C17_14 1_555 1_555
C17_14 C4_14 1_555 1_555
C20_14 C2_14 1_555 1_555
H16_14 C20_14 1_555 1_555
O1_14 Cu4_6 1_555 1_555
N5_14 O1_14 1_555 1_555
O3_14 N5_14 1_555 1_555
O4_14 N5_14 1_555 1_555
N6_14 C21_14 1_555 1_555
C22_14 N6_14 1_555 1_555
C23_14 C9_14 1_555 1_555
C24_14 C22_14 1_555 1_555
C25_14 C21_14 1_555 1_555
H22_14 C25_14 1_555 1_555
H36_14 O6_14 1_555 1_555
C9_14 C20_14 1_555 1_555
C23_14 C24_14 1_555 1_555
C23_14 C25_14 1_555 1_555
C1_14 C3_14 1_555 1_555
C6_14 N2_14 1_555 1_555
H4_14 C6_14 1_555 1_555
C11_13 H7_13 1_555 1_555
C16_14 C1_14 1_555 1_555
H12_14 C16_14 1_555 1_555
C19_14 C3_14 1_555 1_555
H15_13 C19_14 1_555 1_555
C6_14 C16_14 1_555 1_555
C11_13 C19_14 1_555 1_555
C11_13 N13_8 1_555 1_555
C5_16 N11_8 1_555 1_555
H3_16 C5_16 1_555 1_555
C7_16 C8_16 1_555 1_555
C8_16 C5_16 1_555 1_555
H5_16 C8_16 1_555 1_555
C12_16 C7_16 1_555 1_555
N7_16 C26_16 1_555 1_555
C26_16 H23_16 1_555 1_555
C27_16 C7_16 1_555 1_555
C28_16 C26_16 1_555 1_555
H24_16 C28_16 1_555 1_555
C29_16 C27_16 1_555 1_555
H25_16 C29_16 1_555 1_555
C30_16 N7_16 1_555 1_555
H26_16 C30_16 1_555 1_555
Cu4_7 N7_16 1_555 1_555
C27_16 C28_16 1_555 1_555
C29_16 C30_16 1_555 1_555
H10_16 C14_16 1_555 1_555
Cu4_7 N1_15 1_555 1_555
N1_15 C2_15 1_555 1_555
C2_15 H1_15 1_555 1_555
C4_15 N1_15 1_555 1_555
C9_15 C17_15 1_555 1_555
C17_15 C4_15 1_555 1_555
C20_15 C2_15 1_555 1_555
H16_15 C20_15 1_555 1_555
O1_15 Cu4_7 1_555 1_555
O2_15 Cu4_7 1_555 1_555
H18_15 O2_15 1_555 1_555
N5_15 O1_15 1_555 1_555
O3_15 N5_15 1_555 1_555
O4_15 N5_15 1_555 1_555
N6_15 C21_15 1_555 1_555
C21_15 H19_15 1_555 1_555
C22_15 N6_15 1_555 1_555
C23_15 C9_15 1_555 1_555
C24_15 C22_15 1_555 1_555
C25_15 C21_15 1_555 1_555
H22_15 C25_15 1_555 1_555
Cu5_6 N6_15 1_555 1_555
O5_15 Cu5_6 1_555 1_555
O6_15 Cu5_6 1_555 1_555
H36_15 O6_15 1_555 1_555
N10_15 O5_15 1_555 1_555
O7_15 N10_15 1_555 1_555
O8_15 N10_15 1_555 1_555
C9_15 C20_15 1_555 1_555
C23_15 C24_15 1_555 1_555
C23_15 C25_15 1_555 1_555
C1_15 C3_15 1_555 1_555
C3_15 C18_15 1_555 1_555
C6_15 N2_15 1_555 1_555
H4_15 C6_15 1_555 1_555
C10_15 H6_15 1_555 1_555
C13_15 N2_15 1_555 1_555
H9_15 C13_15 1_555 1_555
C15_15 C1_15 1_555 1_555
H11_15 C15_15 1_555 1_555
C16_15 C1_15 1_555 1_555
H12_15 C16_15 1_555 1_555
C18_15 C10_15 1_555 1_555
H14_15 C18_15 1_555 1_555
C19_15 C3_15 1_555 1_555
N13_5 C10_15 1_555 1_555
C31_15 C32_15 1_555 1_555
C32_15 C39_15 1_555 1_555
C33_15 N8_15 1_555 1_555
H27_15 C33_15 1_555 1_555
C34_15 H28_15 1_555 1_555
C35_15 H29_15 1_555 1_555
C36_15 N8_15 1_555 1_555
H30_15 C36_15 1_555 1_555
C37_15 C31_15 1_555 1_555
H31_15 C37_15 1_555 1_555
C38_15 C31_15 1_555 1_555
H32_15 C38_15 1_555 1_555
C39_15 C34_15 1_555 1_555
H33_15 C39_15 1_555 1_555
C40_15 C32_15 1_555 1_555
H34_15 C40_15 1_555 1_555
N12_8 C34_15 1_555 1_555
C6_15 C16_15 1_555 1_555
C13_15 C15_15 1_555 1_555
C33_15 C38_15 1_555 1_555
C35_15 C40_15 1_555 1_555
C35_15 N12_8 1_555 1_555
C36_15 C37_15 1_555 1_555
C11_14 H7_14 1_555 1_555
C10_16 H6_16 1_555 1_555
H9_16 C13_16 1_555 1_555
H11_16 C15_16 1_555 1_555
C18_16 C10_16 1_555 1_555
H14_16 C18_16 1_555 1_555
H17_16 O2_16 1_555 1_555
H18_16 O2_16 1_555 1_555
C13_16 C15_16 1_555 1_555
Cu4_8 N1_16 1_555 1_555
N1_16 C2_16 1_555 1_555
N2_16 Cu4_8 1_555 1_555
C1_16 C3_16 1_555 1_555
C2_16 H1_16 1_555 1_555
C4_16 N1_16 1_555 1_555
H2_16 C4_16 1_555 1_555
C6_16 N2_16 1_555 1_555
H4_16 C6_16 1_555 1_555
C9_16 C17_16 1_555 1_555
C16_16 C1_16 1_555 1_555
H12_16 C16_16 1_555 1_555
C17_16 C4_16 1_555 1_555
H13_16 C17_16 1_555 1_555
C19_16 C3_16 1_555 1_555
C20_16 C2_16 1_555 1_555
H16_16 C20_16 1_555 1_555
O1_16 Cu4_8 1_555 1_555
N5_16 O1_16 1_555 1_555
O3_16 N5_16 1_555 1_555
O4_16 N5_16 1_555 1_555
N6_16 C21_16 1_555 1_555
C21_16 H19_16 1_555 1_555
C22_16 N6_16 1_555 1_555
H20_16 C22_16 1_555 1_555
C23_16 C9_16 1_555 1_555
C24_16 C22_16 1_555 1_555
H21_16 C24_16 1_555 1_555
C25_16 C21_16 1_555 1_555
H22_16 C25_16 1_555 1_555
Cu5_5 N6_16 1_555 1_555
N8_16 Cu5_5 1_555 1_555
C31_16 C32_16 1_555 1_555
C32_16 C39_16 1_555 1_555
C33_16 N8_16 1_555 1_555
H27_16 C33_16 1_555 1_555
C34_16 H28_16 1_555 1_555
C35_16 H29_16 1_555 1_555
C36_16 N8_16 1_555 1_555
H30_16 C36_16 1_555 1_555
C37_16 C31_16 1_555 1_555
H31_16 C37_16 1_555 1_555
C38_16 C31_16 1_555 1_555
H32_16 C38_16 1_555 1_555
C39_16 C34_16 1_555 1_555
H33_16 C39_16 1_555 1_555
C40_16 C32_16 1_555 1_555
H34_16 C40_16 1_555 1_555
N12_7 C34_16 1_555 1_555
O5_16 Cu5_5 1_555 1_555
O6_16 Cu5_5 1_555 1_555
H35_16 O6_16 1_555 1_555
H36_16 O6_16 1_555 1_555
N10_16 O5_16 1_555 1_555
O7_16 N10_16 1_555 1_555
O8_16 N10_16 1_555 1_555
C6_16 C16_16 1_555 1_555
C9_16 C20_16 1_555 1_555
C23_16 C24_16 1_555 1_555
C23_16 C25_16 1_555 1_555
C33_16 C38_16 1_555 1_555
C35_16 C40_16 1_555 1_555
C35_16 N12_7 1_555 1_555
C36_16 C37_16 1_555 1_555
C11_15 H7_15 1_555 1_555
C11_16 H7_16 1_555 1_555

#END
