
###############################################################################
#
# This file contains modified crystal structure data generated from the
# MOF subset of the Cambridge Structural Database (CSD) v543 
# hosted by the Cambridge Crystallographic Data Centre (CCDC).
#
# This work is licensed under the Creative Commons
# Attribution-NonCommercial-ShareAlike 4.0 International License.
# To view a copy of this license, visit
# http://creativecommons.org/licenses/by-nc-sa/4.0/
# or send a letter to
# Creative Commons, PO Box 1866, Mountain View, CA 94042, USA.
#
# CIF created using the CSD Python API on 29 September 2022
# The structure has been converted into the P1 space group
# The structure has a 3D framework
# The original CSD entry SOKKOT is in the tetragonal crystal system
# The original CSD entry SOKKOT is in a Sohncke space group
# The framework has been calculated to contain at least 10.0% void space
# The void calculation uses a probe of radius 1.32A, grid spacing 0.4
# H atom positions have been added when not included in the experimental data
#
###############################################################################

data_SOKKOT
_chemical_formula_moiety         '(C64 H64 In3 N5 O30 S8 4+)n'
_symmetry_cell_setting           triclinic
_symmetry_space_group_name_H-M   'P 1'
_symmetry_Int_Tables_number      1
_space_group_name_Hall           'P 1'
loop_
_symmetry_equiv_pos_site_id
_symmetry_equiv_pos_as_xyz
1 x,y,z
_cell_length_a                   13.5065(2)
_cell_length_b                   13.5065(2)
_cell_length_c                   15.9076(4)
_cell_angle_alpha                90
_cell_angle_beta                 90
_cell_angle_gamma                90
_cell_volume                     2901.95
loop_
_atom_site_label
_atom_site_type_symbol
_atom_site_fract_x
_atom_site_fract_y
_atom_site_fract_z
N1 N 0.5000 0.165(2) 0.5000
C1 C 0.446(4) 0.216(3) 0.571(2)
C2 C 0.429(5) 0.328(3) 0.552(3)
C3 C 0.554(4) 0.216(3) 0.429(2)
C4 C 0.571(5) 0.328(3) 0.448(3)
H5 H 0.48971 0.209133 0.628229
H6 H 0.37449 0.180292 0.579989
H7 H 0.448454 0.121613 0.471738
H8 H 0.551546 0.121613 0.528262
H9 H 0.51029 0.209133 0.371771
H10 H 0.62551 0.180292 0.420011
H11 H 0.615045 0.335616 0.504975
H12 H 0.61 0.36213 0.395557
H13 H 0.499825 0.364457 0.456735
H14 H 0.384955 0.335616 0.495025
H15 H 0.39 0.36213 0.604443
H16 H 0.500175 0.364457 0.543265
N1_2 N 0.835(2) 0.5000 0.2500
C1_2 C 0.784(3) 0.446(4) 0.321(2)
C2_2 C 0.672(3) 0.429(5) 0.302(3)
C3_2 C 0.784(3) 0.554(4) 0.179(2)
C4_2 C 0.672(3) 0.571(5) 0.198(3)
H5_2 H 0.790867 0.48971 0.378229
H6_2 H 0.819708 0.37449 0.329989
H7_2 H 0.878387 0.448454 0.221738
H8_2 H 0.878387 0.551546 0.278262
H9_2 H 0.790867 0.51029 0.121771
H10_2 H 0.819708 0.62551 0.170011
H11_2 H 0.664384 0.615045 0.254975
H12_2 H 0.63787 0.61 0.145557
H13_2 H 0.635543 0.499825 0.206735
H14_2 H 0.664384 0.384955 0.245025
H15_2 H 0.63787 0.39 0.354443
H16_2 H 0.635543 0.500175 0.293265
N1_3 N 0.5000 0.835(2) 0.0000
C1_3 C 0.554(4) 0.784(3) 0.071(2)
C2_3 C 0.571(5) 0.672(3) 0.052(3)
H5_3 H 0.51029 0.790867 0.128229
H6_3 H 0.62551 0.819708 0.0799887
H8_3 H 0.448454 0.878387 0.028262
H11_3 H 0.384955 0.664384 0.00497461
H15_3 H 0.61 0.63787 0.104443
H16_3 H 0.499825 0.635543 0.0432653
N1_4 N 0.5000 0.835(2) 1.0000
C3_3 C 0.446(4) 0.784(3) 0.929(2)
C4_3 C 0.429(5) 0.672(3) 0.948(3)
H7_3 H 0.551546 0.878387 0.971738
H9_3 H 0.48971 0.790867 0.871771
H10_3 H 0.37449 0.819708 0.920011
H12_3 H 0.39 0.63787 0.895557
H13_3 H 0.500175 0.635543 0.956735
H14_3 H 0.615045 0.664384 0.995025
N1_5 N 0.165(2) 0.5000 0.7500
C1_4 C 0.216(3) 0.554(4) 0.821(2)
C2_4 C 0.328(3) 0.571(5) 0.802(3)
C3_4 C 0.216(3) 0.446(4) 0.679(2)
C4_4 C 0.328(3) 0.429(5) 0.698(3)
H5_4 H 0.209133 0.51029 0.878229
H6_4 H 0.180292 0.62551 0.829989
H7_4 H 0.121613 0.551546 0.721738
H8_4 H 0.121613 0.448454 0.778262
H9_4 H 0.209133 0.48971 0.621771
H10_4 H 0.180292 0.37449 0.670011
H11_4 H 0.335616 0.384955 0.754975
H12_4 H 0.36213 0.39 0.645557
H13_4 H 0.364457 0.500175 0.706735
H14_4 H 0.335616 0.615045 0.745025
H15_4 H 0.36213 0.61 0.854443
H16_4 H 0.364457 0.499825 0.793265
In3 In 0.58199(8) -0.0000 0.7500
In2 In 0.41801(8) 1.0000 0.2500
In1 In 1.0000 0.58199(8) 0.5000
O6 O 0.8789(6) 0.4561(6) 0.5164(5)
O8 O 0.9751(5) 0.5027(6) 0.6197(5)
O10 O 0.8939(7) 0.7004(7) 0.5429(5)
O12 O 0.8861(5) 0.6515(7) 0.4100(5)
In2_2 In 0.0000 0.41801(8) 0.0000
In2_3 In 0.0000 0.41801(8) 1.0000
O6_2 O 0.5439(6) 0.8789(6) 0.2664(5)
O8_2 O 0.4973(6) 0.9751(5) 0.3697(5)
O10_2 O 0.2996(7) 0.8939(7) 0.2929(5)
O12_2 O 0.3485(7) 0.8861(5) 0.1600(5)
O6_3 O 0.1211(6) 0.5439(6) 0.0164(5)
O8_3 O 0.0249(5) 0.4973(6) 0.1197(5)
O10_3 O 0.1061(7) 0.2996(7) 0.0429(5)
O12_3 O 0.1139(5) 0.3485(7) 0.9100(5)
O6_4 O 0.4561(6) 0.1211(6) 0.7664(5)
O8_4 O 0.5027(6) 0.0249(5) 0.8697(5)
O10_4 O 0.7004(7) 0.1061(7) 0.7929(5)
O12_4 O 0.6515(7) 0.1139(5) 0.6600(5)
S1 S 0.2211(2) 0.7133(3) 0.1098(2)
C5 C 0.2262(9) 0.7711(9) 0.2062(7)
C6 C 0.1349(9) 0.6339(8) 0.1440(7)
C7 C 0.0929(9) 0.5515(9) 0.0903(8)
C8 C 0.2911(10) 0.8526(10) 0.2202(9)
C9 C 0.1110(9) 0.6467(10) 0.2285(7)
H1 H 0.0690 0.6055 0.2589
C10 C 0.1595(11) 0.7314(10) 0.2619(8)
H2 H 0.1475 0.7570 0.3152
H3 H 0.3945 0.0690 0.0089
C16 C 0.2686(10) 0.1595(11) 0.0119(8)
H4 H 0.2430 0.1475 0.0652
S2 S 0.2867(3) 0.2211(2) 0.8598(2)
C11 C 0.2289(9) 0.2262(9) 0.9562(7)
C12 C 0.3661(8) 0.1349(9) 0.8940(7)
C13 C 0.4485(9) 0.0929(9) 0.8403(8)
C14 C 0.1474(10) 0.2911(10) 0.9702(9)
C15 C 0.3533(10) 0.1110(9) 0.9785(7)
S2_2 S 0.7789(2) 0.2867(3) 0.6098(2)
C11_2 C 0.7738(9) 0.2289(9) 0.7062(7)
C12_2 C 0.8651(9) 0.3661(8) 0.6440(7)
C13_2 C 0.9071(9) 0.4485(9) 0.5903(8)
C14_2 C 0.7089(10) 0.1474(10) 0.7202(9)
C15_2 C 0.8890(9) 0.3533(10) 0.7285(7)
H3_2 H 0.9310 0.3945 0.7589
C16_2 C 0.8405(11) 0.2686(10) 0.7619(8)
H4_2 H 0.8525 0.2430 0.8152
S2_3 S 0.7133(3) 0.7789(2) 0.3598(2)
C11_3 C 0.7711(9) 0.7738(9) 0.4562(7)
C12_3 C 0.6339(8) 0.8651(9) 0.3940(7)
C13_3 C 0.5515(9) 0.9071(9) 0.3403(8)
C14_3 C 0.8526(10) 0.7089(10) 0.4702(9)
C15_3 C 0.6467(10) 0.8890(9) 0.4785(7)
H3_3 H 0.6055 0.9310 0.5089
C16_3 C 0.7314(10) 0.8405(11) 0.5119(8)
H4_3 H 0.7570 0.8525 0.5652
In1_2 In -0.0000 0.58199(8) 0.5000
S1_2 S 0.2211(2) 0.2867(3) 0.3902(2)
O1 O 0.1211(6) 0.4561(6) 0.4836(5)
O2 O 0.0249(5) 0.5027(6) 0.3803(5)
O3 O 0.2996(7) 0.1061(7) 0.2071(5)
O4 O 0.3485(7) 0.1139(5) 0.3400(5)
C5_2 C 0.2262(9) 0.2289(9) 0.2938(7)
C6_2 C 0.1349(9) 0.3661(8) 0.3560(7)
C7_2 C 0.0929(9) 0.4485(9) 0.4097(8)
C8_2 C 0.2911(10) 0.1474(10) 0.2798(9)
C9_2 C 0.1110(9) 0.3533(10) 0.2715(7)
H1_2 H 0.0690 0.3945 0.2411
C10_2 C 0.1595(11) 0.2686(10) 0.2381(8)
H2_2 H 0.1475 0.2430 0.1848
In2_4 In 0.41801(8) 0.0000 0.2500
In3_2 In 0.58199(8) 1.0000 0.7500
S2_4 S 0.2867(3) 0.7789(2) 0.6402(2)
O5 O 0.4561(6) 0.8789(6) 0.7336(5)
O7 O 0.5027(6) 0.9751(5) 0.6303(5)
O9 O 0.1061(7) 0.7004(7) 0.4571(5)
O11 O 0.1139(5) 0.6515(7) 0.5900(5)
C11_4 C 0.2289(9) 0.7738(9) 0.5438(7)
C12_4 C 0.3661(8) 0.8651(9) 0.6060(7)
C13_4 C 0.4485(9) 0.9071(9) 0.6597(8)
C14_4 C 0.1474(10) 0.7089(10) 0.5298(9)
C15_4 C 0.3533(10) 0.8890(9) 0.5215(7)
H3_4 H 0.3945 0.9310 0.4911
C16_4 C 0.2686(10) 0.8405(11) 0.4881(8)
H4_4 H 0.2430 0.8525 0.4348
S1_3 S 0.7133(3) 0.2211(2) 0.1402(2)
O1_2 O 0.5439(6) 0.1211(6) 0.2336(5)
O2_2 O 0.4973(6) 0.0249(5) 0.1303(5)
O4_2 O 0.8861(5) 0.3485(7) 0.0900(5)
C5_3 C 0.7711(9) 0.2262(9) 0.0438(7)
C6_3 C 0.6339(8) 0.1349(9) 0.1060(7)
C7_3 C 0.5515(9) 0.0929(9) 0.1597(8)
C8_3 C 0.8526(10) 0.2911(10) 0.0298(9)
C9_3 C 0.6467(10) 0.1110(9) 0.0215(7)
In2_5 In 1.0000 0.41801(8) 0.0000
O3_2 O 0.8939(7) 0.2996(7) 0.9571(5)
H1_3 H 0.6055 0.0690 0.9911
C10_3 C 0.7314(10) 0.1595(11) 0.9881(8)
H2_3 H 0.7570 0.1475 0.9348
In2_6 In 1.0000 0.41801(8) 1.0000
S1_4 S 0.7789(2) 0.7133(3) 0.8902(2)
O1_3 O 0.8789(6) 0.5439(6) 0.9836(5)
O2_3 O 0.9751(5) 0.4973(6) 0.8803(5)
O3_3 O 0.7004(7) 0.8939(7) 0.7071(5)
O4_3 O 0.6515(7) 0.8861(5) 0.8400(5)
C5_4 C 0.7738(9) 0.7711(9) 0.7938(7)
C6_4 C 0.8651(9) 0.6339(8) 0.8560(7)
C7_4 C 0.9071(9) 0.5515(9) 0.9097(8)
C8_4 C 0.7089(10) 0.8526(10) 0.7798(9)
C9_4 C 0.8890(9) 0.6467(10) 0.7715(7)
H1_4 H 0.9310 0.6055 0.7411
C10_4 C 0.8405(11) 0.7314(10) 0.7381(8)
H2_4 H 0.8525 0.7570 0.6848
loop_
_geom_bond_atom_site_label_1
_geom_bond_atom_site_label_2
_geom_bond_site_symmetry_1
_geom_bond_site_symmetry_2
N1 C1 1_555 1_555
C1 C2 1_555 1_555
C3 N1 1_555 1_555
C4 C3 1_555 1_555
C1 H5 1_555 1_555
C1 H6 1_555 1_555
N1 H7 1_555 1_555
N1 H8 1_555 1_555
C3 H9 1_555 1_555
C3 H10 1_555 1_555
C4 H11 1_555 1_555
C4 H12 1_555 1_555
C4 H13 1_555 1_555
C2 H14 1_555 1_555
C2 H15 1_555 1_555
C2 H16 1_555 1_555
N1_2 C1_2 1_555 1_555
C1_2 C2_2 1_555 1_555
C3_2 N1_2 1_555 1_555
C4_2 C3_2 1_555 1_555
C1_2 H5_2 1_555 1_555
C1_2 H6_2 1_555 1_555
N1_2 H7_2 1_555 1_555
N1_2 H8_2 1_555 1_555
C3_2 H9_2 1_555 1_555
C3_2 H10_2 1_555 1_555
C4_2 H11_2 1_555 1_555
C4_2 H12_2 1_555 1_555
C4_2 H13_2 1_555 1_555
C2_2 H14_2 1_555 1_555
C2_2 H15_2 1_555 1_555
C2_2 H16_2 1_555 1_555
N1_3 C1_3 1_555 1_555
C1_3 C2_3 1_555 1_555
C1_3 H5_3 1_555 1_555
C1_3 H6_3 1_555 1_555
N1_3 H8_3 1_555 1_555
C2_3 H15_3 1_555 1_555
C2_3 H16_3 1_555 1_555
C3_3 N1_4 1_555 1_555
C4_3 C3_3 1_555 1_555
N1_4 H7_3 1_555 1_555
C3_3 H9_3 1_555 1_555
C3_3 H10_3 1_555 1_555
C4_3 H12_3 1_555 1_555
C4_3 H13_3 1_555 1_555
N1_5 C1_4 1_555 1_555
C1_4 C2_4 1_555 1_555
C3_4 N1_5 1_555 1_555
C4_4 C3_4 1_555 1_555
C1_4 H5_4 1_555 1_555
C1_4 H6_4 1_555 1_555
N1_5 H7_4 1_555 1_555
N1_5 H8_4 1_555 1_555
C3_4 H9_4 1_555 1_555
C3_4 H10_4 1_555 1_555
C4_4 H11_4 1_555 1_555
C4_4 H12_4 1_555 1_555
C4_4 H13_4 1_555 1_555
C2_4 H14_4 1_555 1_555
C2_4 H15_4 1_555 1_555
C2_4 H16_4 1_555 1_555
O6 In1 1_555 1_555
O8 In1 1_555 1_555
O10 In1 1_555 1_555
O12 In1 1_555 1_555
O6_2 In2 1_555 1_555
O8_2 In2 1_555 1_555
O10_2 In2 1_555 1_555
O12_2 In2 1_555 1_555
O6_3 In2_2 1_555 1_555
O8_3 In2_2 1_555 1_555
O10_3 In2_2 1_555 1_555
O12_3 In2_3 1_555 1_555
O6_4 In3 1_555 1_555
O8_4 In3 1_555 1_555
O10_4 In3 1_555 1_555
O12_4 In3 1_555 1_555
S1 C5 1_555 1_555
O6_3 C7 1_555 1_555
O10_2 C8 1_555 1_555
O12_2 C8 1_555 1_555
C5 C8 1_555 1_555
C6 S1 1_555 1_555
C7 O8_3 1_555 1_555
C9 C6 1_555 1_555
H1 C9 1_555 1_555
C10 C5 1_555 1_555
H2 C10 1_555 1_555
H4 C16 1_555 1_555
C6 C7 1_555 1_555
C9 C10 1_555 1_555
S2 C11 1_555 1_555
O6_4 C13 1_555 1_555
C11 C14 1_555 1_555
C12 S2 1_555 1_555
C13 O8_4 1_555 1_555
C15 C12 1_555 1_555
O12_3 C14 1_555 1_555
C12 C13 1_555 1_555
S2_2 C11_2 1_555 1_555
O6 C13_2 1_555 1_555
C11_2 C14_2 1_555 1_555
C12_2 S2_2 1_555 1_555
C13_2 O8 1_555 1_555
C14_2 O10_4 1_555 1_555
C15_2 C12_2 1_555 1_555
H3_2 C15_2 1_555 1_555
C16_2 C11_2 1_555 1_555
H4_2 C16_2 1_555 1_555
O12_4 C14_2 1_555 1_555
C12_2 C13_2 1_555 1_555
C15_2 C16_2 1_555 1_555
S2_3 C11_3 1_555 1_555
O6_2 C13_3 1_555 1_555
C11_3 C14_3 1_555 1_555
C12_3 S2_3 1_555 1_555
C13_3 O8_2 1_555 1_555
C14_3 O10 1_555 1_555
C15_3 C12_3 1_555 1_555
H3_3 C15_3 1_555 1_555
C16_3 C11_3 1_555 1_555
H4_3 C16_3 1_555 1_555
O12 C14_3 1_555 1_555
C12_3 C13_3 1_555 1_555
C15_3 C16_3 1_555 1_555
In1_2 O1 1_555 1_555
S1_2 C5_2 1_555 1_555
O1 C7_2 1_555 1_555
O2 In1_2 1_555 1_555
O3 C8_2 1_555 1_555
O4 C8_2 1_555 1_555
C5_2 C8_2 1_555 1_555
C6_2 S1_2 1_555 1_555
C7_2 O2 1_555 1_555
C9_2 C6_2 1_555 1_555
H1_2 C9_2 1_555 1_555
C10_2 C5_2 1_555 1_555
H2_2 C10_2 1_555 1_555
In2_4 O3 1_555 1_555
In3_2 O5 1_555 1_555
S2_4 C11_4 1_555 1_555
O5 C13_4 1_555 1_555
O7 In3_2 1_555 1_555
O9 In1_2 1_555 1_555
O11 In1_2 1_555 1_555
C11_4 C14_4 1_555 1_555
C12_4 S2_4 1_555 1_555
C13_4 O7 1_555 1_555
C14_4 O9 1_555 1_555
C15_4 C12_4 1_555 1_555
H3_4 C15_4 1_555 1_555
C16_4 C11_4 1_555 1_555
H4_4 C16_4 1_555 1_555
O4 In2_4 1_555 1_555
C6_2 C7_2 1_555 1_555
C9_2 C10_2 1_555 1_555
O11 C14_4 1_555 1_555
C12_4 C13_4 1_555 1_555
C15_4 C16_4 1_555 1_555
In2_4 O1_2 1_555 1_555
S1_3 C5_3 1_555 1_555
O1_2 C7_3 1_555 1_555
O2_2 In2_4 1_555 1_555
O4_2 C8_3 1_555 1_555
C5_3 C8_3 1_555 1_555
C6_3 S1_3 1_555 1_555
C7_3 O2_2 1_555 1_555
C9_3 C6_3 1_555 1_555
O4_2 In2_5 1_555 1_555
C6_3 C7_3 1_555 1_555
H2_3 C10_3 1_555 1_555
In2_6 O3_2 1_555 1_555
In2_6 O1_3 1_555 1_555
S1_4 C5_4 1_555 1_555
O1_3 C7_4 1_555 1_555
O2_3 In2_6 1_555 1_555
O3_3 C8_4 1_555 1_555
O4_3 C8_4 1_555 1_555
C5_4 C8_4 1_555 1_555
C6_4 S1_4 1_555 1_555
C7_4 O2_3 1_555 1_555
C9_4 C6_4 1_555 1_555
H1_4 C9_4 1_555 1_555
C10_4 C5_4 1_555 1_555
H2_4 C10_4 1_555 1_555
In3_2 O3_3 1_555 1_555
O4_3 In3_2 1_555 1_555
C6_4 C7_4 1_555 1_555
C9_4 C10_4 1_555 1_555

#END
