
###############################################################################
#
# This file contains modified crystal structure data generated from the
# MOF subset of the Cambridge Structural Database (CSD) v543 
# hosted by the Cambridge Crystallographic Data Centre (CCDC).
#
# This work is licensed under the Creative Commons
# Attribution-NonCommercial-ShareAlike 4.0 International License.
# To view a copy of this license, visit
# http://creativecommons.org/licenses/by-nc-sa/4.0/
# or send a letter to
# Creative Commons, PO Box 1866, Mountain View, CA 94042, USA.
#
# CIF created using the CSD Python API on 29 September 2022
# The structure has been converted into the P1 space group
# The structure has a 3D framework
# The original CSD entry SOKKUZ is in the tetragonal crystal system
# The original CSD entry SOKKUZ is in a Sohncke space group
# The framework has been calculated to contain at least 10.0% void space
# The void calculation uses a probe of radius 1.32A, grid spacing 0.4
# H atom positions have been added when not included in the experimental data
#
###############################################################################

data_SOKKUZ
_chemical_formula_moiety         '(C56 H48 In2 N5 O30 S8 3+)n'
_symmetry_cell_setting           triclinic
_symmetry_space_group_name_H-M   'P 1'
_symmetry_Int_Tables_number      1
_space_group_name_Hall           'P 1'
loop_
_symmetry_equiv_pos_site_id
_symmetry_equiv_pos_as_xyz
1 x,y,z
_cell_length_a                   13.565(5)
_cell_length_b                   13.565(5)
_cell_length_c                   15.503(13)
_cell_angle_alpha                90
_cell_angle_beta                 90
_cell_angle_gamma                90
_cell_volume                     2852.7
loop_
_atom_site_label
_atom_site_type_symbol
_atom_site_fract_x
_atom_site_fract_y
_atom_site_fract_z
In3 In 0.0000 0.42366(5) 0.5000
In1 In 0.42366(5) 1.0000 0.2500
O6 O 0.3071(4) 0.8937(4) 0.2100(3)
O8 O 0.3520(4) 0.8861(4) 0.3444(3)
O10 O 0.5022(4) 0.9737(3) 0.1272(3)
O12 O 0.5474(4) 0.8791(4) 0.2347(4)
In2 In 1.0000 0.57634(5) 0.0000
In2_2 In 1.0000 0.57634(5) 1.0000
In1_2 In 0.57634(5) 0.0000 0.7500
O6_2 O 0.6929(4) 0.1063(4) 0.7100(3)
O8_2 O 0.6480(4) 0.1139(4) 0.8444(3)
O10_2 O 0.4978(4) 0.0263(3) 0.6272(3)
O12_2 O 0.4526(4) 0.1209(4) 0.7347(4)
O6_3 O 0.1063(4) 0.3071(4) 0.4600(3)
O8_3 O 0.1139(4) 0.3520(4) 0.5944(3)
O10_3 O 0.0263(3) 0.5022(4) 0.3772(3)
O12_3 O 0.1209(4) 0.5474(4) 0.4847(4)
O8_4 O 0.8861(4) 0.6480(4) 0.0944(3)
O6_4 O 0.8937(4) 0.6929(4) 0.9600(3)
O10_4 O 0.9737(3) 0.4978(4) 0.8772(3)
O12_4 O 0.8791(4) 0.4526(4) 0.9847(4)
S1 S 0.77671(17) 0.28493(17) 0.89238(14)
C1 C 0.7696(6) 0.2255(5) 0.7956(5)
C2 C 0.8332(7) 0.2635(6) 0.7375(5)
H1 H 0.8419 0.2384 0.6822
C3 C 0.8853(6) 0.3462(7) 0.7705(5)
H2 H 0.9297 0.3834 0.7385
C4 C 0.8629(6) 0.3645(6) 0.8534(5)
C5 C 0.7016(6) 0.1439(6) 0.7833(5)
C6 C 0.9068(6) 0.4430(6) 0.9097(5)
S2 S 0.28493(17) 0.22329(17) 0.64238(14)
C7 C 0.2255(5) 0.2304(6) 0.5456(5)
C8 C 0.2635(6) 0.1668(7) 0.4875(5)
H3 H 0.2384 0.1581 0.4322
C9 C 0.3462(7) 0.1147(6) 0.5205(5)
H4 H 0.3834 0.0703 0.4885
C10 C 0.3645(6) 0.1371(6) 0.6034(5)
C11 C 0.1439(6) 0.2984(6) 0.5333(5)
C12 C 0.4430(6) 0.0932(6) 0.6597(5)
S1_2 S 0.22329(17) 0.71507(17) 0.39238(14)
C1_2 C 0.2304(6) 0.7745(5) 0.2956(5)
C2_2 C 0.1668(7) 0.7365(6) 0.2375(5)
H1_2 H 0.1581 0.7616 0.1822
C3_2 C 0.1147(6) 0.6538(7) 0.2705(5)
H2_2 H 0.0703 0.6166 0.2385
C4_2 C 0.1371(6) 0.6355(6) 0.3534(5)
C5_2 C 0.2984(6) 0.8561(6) 0.2833(5)
C6_2 C 0.0932(6) 0.5570(6) 0.4097(5)
S2_2 S 0.71507(17) 0.77671(17) 0.14238(14)
C7_2 C 0.7745(5) 0.7696(6) 0.0456(5)
C9_2 C 0.6538(7) 0.8853(6) 0.0205(5)
C10_2 C 0.6355(6) 0.8629(6) 0.1034(5)
C11_2 C 0.8561(6) 0.7016(6) 0.0333(5)
C12_2 C 0.5570(6) 0.9068(6) 0.1597(5)
C8_2 C 0.7365(6) 0.8332(7) 0.9875(5)
H3_2 H 0.7616 0.8419 0.9322
H4_2 H 0.6166 0.9297 0.9885
In1_3 In 0.42366(5) 0.0000 0.2500
S1_3 S 0.22329(17) 0.28493(17) 0.10762(14)
O1 O 0.3071(4) 0.1063(4) 0.2900(3)
O2 O 0.3520(4) 0.1139(4) 0.1556(3)
O3 O 0.0263(3) 0.4978(4) 0.1228(3)
O4 O 0.1209(4) 0.4526(4) 0.0153(4)
C1_3 C 0.2304(6) 0.2255(5) 0.2044(5)
C2_3 C 0.1668(7) 0.2635(6) 0.2625(5)
H1_3 H 0.1581 0.2384 0.3178
C3_3 C 0.1147(6) 0.3462(7) 0.2295(5)
H2_3 H 0.0703 0.3834 0.2615
C4_3 C 0.1371(6) 0.3645(6) 0.1466(5)
C5_3 C 0.2984(6) 0.1439(6) 0.2167(5)
C6_3 C 0.0932(6) 0.4430(6) 0.0903(5)
In2_3 In 0.0000 0.57634(5) 0.0000
In3_2 In 1.0000 0.42366(5) 0.5000
S2_3 S 0.71507(17) 0.22329(17) 0.35762(14)
O5 O 0.8937(4) 0.3071(4) 0.5400(3)
O7 O 0.8861(4) 0.3520(4) 0.4056(3)
O9 O 0.5022(4) 0.0263(3) 0.3728(3)
O11 O 0.5474(4) 0.1209(4) 0.2653(4)
C7_3 C 0.7745(5) 0.2304(6) 0.4544(5)
C8_3 C 0.7365(6) 0.1668(7) 0.5125(5)
H3_3 H 0.7616 0.1581 0.5678
C9_3 C 0.6538(7) 0.1147(6) 0.4795(5)
H4_3 H 0.6166 0.0703 0.5115
C10_3 C 0.6355(6) 0.1371(6) 0.3966(5)
C11_3 C 0.8561(6) 0.2984(6) 0.4667(5)
C12_3 C 0.5570(6) 0.0932(6) 0.3403(5)
In2_4 In 0.0000 0.57634(5) 1.0000
O5_2 O 0.1063(4) 0.6929(4) 0.0400(3)
C8_4 C 0.2635(6) 0.8332(7) 0.0125(5)
H3_4 H 0.2384 0.8419 0.0678
H4_4 H 0.3834 0.9297 0.0115
In1_4 In 0.57634(5) 1.0000 0.7500
S1_4 S 0.77671(17) 0.71507(17) 0.60762(14)
O1_2 O 0.6929(4) 0.8937(4) 0.7900(3)
O2_2 O 0.6480(4) 0.8861(4) 0.6556(3)
O3_2 O 0.9737(3) 0.5022(4) 0.6228(3)
O4_2 O 0.8791(4) 0.5474(4) 0.5153(4)
C1_4 C 0.7696(6) 0.7745(5) 0.7044(5)
C2_4 C 0.8332(7) 0.7365(6) 0.7625(5)
H1_4 H 0.8419 0.7616 0.8178
C3_4 C 0.8853(6) 0.6538(7) 0.7295(5)
H2_4 H 0.9297 0.6166 0.7615
C4_4 C 0.8629(6) 0.6355(6) 0.6466(5)
C5_4 C 0.7016(6) 0.8561(6) 0.7167(5)
C6_4 C 0.9068(6) 0.5570(6) 0.5903(5)
S2_4 S 0.28493(17) 0.77671(17) 0.85762(14)
O7_2 O 0.1139(4) 0.6480(4) 0.9056(3)
O9_2 O 0.4978(4) 0.9737(3) 0.8728(3)
O11_2 O 0.4526(4) 0.8791(4) 0.7653(4)
C7_4 C 0.2255(5) 0.7696(6) 0.9544(5)
C9_4 C 0.3462(7) 0.8853(6) 0.9795(5)
C10_4 C 0.3645(6) 0.8629(6) 0.8966(5)
C11_4 C 0.1439(6) 0.7016(6) 0.9667(5)
C12_4 C 0.4430(6) 0.9068(6) 0.8403(5)
C13 C 0.5587(16) 0.1947(17) 0.0604(15)
N1 N 0.5000 0.155(2) 0.0000
H5 H 0.514805 0.240102 0.10377
H6 H 0.594255 0.136112 0.0969846
H7 H 0.614675 0.240102 0.0294602
H8 H 0.453458 0.1118 0.03463
N1_2 N 0.5000 0.155(2) 1.0000
C14 C 0.4413(16) 0.1947(17) 0.9396(15)
H9 H 0.546542 0.1118 0.96537
H10 H 0.485195 0.240102 0.89623
H11 H 0.405745 0.136112 0.903015
H12 H 0.385325 0.240102 0.97054
C13_2 C 0.4413(16) 0.8053(17) 0.5604(15)
N1_3 N 0.5000 0.845(2) 0.5000
C14_2 C 0.5587(16) 0.8053(17) 0.4396(15)
H5_2 H 0.485195 0.759898 0.60377
H6_2 H 0.405745 0.863888 0.596985
H7_2 H 0.385325 0.759898 0.52946
H8_2 H 0.546542 0.8882 0.53463
H9_2 H 0.453458 0.8882 0.46537
H10_2 H 0.514805 0.759898 0.39623
H11_2 H 0.594255 0.863888 0.403015
H12_2 H 0.614675 0.759898 0.47054
C13_3 C 0.8053(17) 0.5587(16) 0.3104(15)
N1_4 N 0.845(2) 0.5000 0.2500
C14_3 C 0.8053(17) 0.4413(16) 0.1896(15)
H5_3 H 0.759898 0.514805 0.35377
H6_3 H 0.863888 0.594255 0.346985
H7_3 H 0.759898 0.614675 0.27946
H8_3 H 0.8882 0.453458 0.28463
H9_3 H 0.8882 0.546542 0.21537
H10_3 H 0.759898 0.485195 0.14623
H11_3 H 0.863888 0.405745 0.153015
H12_3 H 0.759898 0.385325 0.22054
C13_4 C 0.1947(17) 0.4413(16) 0.8104(15)
N1_5 N 0.155(2) 0.5000 0.7500
C14_4 C 0.1947(17) 0.5587(16) 0.6896(15)
H5_4 H 0.240102 0.485195 0.85377
H6_4 H 0.136112 0.405745 0.846985
H7_4 H 0.240102 0.385325 0.77946
H8_4 H 0.1118 0.546542 0.78463
H9_4 H 0.1118 0.453458 0.71537
H10_4 H 0.240102 0.514805 0.64623
H11_4 H 0.136112 0.594255 0.653015
H12_4 H 0.240102 0.614675 0.72054
loop_
_geom_bond_atom_site_label_1
_geom_bond_atom_site_label_2
_geom_bond_site_symmetry_1
_geom_bond_site_symmetry_2
O6 In1 1_555 1_555
O8 In1 1_555 1_555
O10 In1 1_555 1_555
O12 In1 1_555 1_555
O6_2 In1_2 1_555 1_555
O8_2 In1_2 1_555 1_555
O10_2 In1_2 1_555 1_555
O12_2 In1_2 1_555 1_555
O6_3 In3 1_555 1_555
O8_3 In3 1_555 1_555
O10_3 In3 1_555 1_555
O12_3 In3 1_555 1_555
O8_4 In2 1_555 1_555
O6_4 In2_2 1_555 1_555
O10_4 In2_2 1_555 1_555
O12_4 In2_2 1_555 1_555
S1 C1 1_555 1_555
O6_2 C5 1_555 1_555
O10_4 C6 1_555 1_555
O12_4 C6 1_555 1_555
C1 C2 1_555 1_555
C2 H1 1_555 1_555
C3 C2 1_555 1_555
H2 C3 1_555 1_555
C4 S1 1_555 1_555
C5 O8_2 1_555 1_555
C6 C4 1_555 1_555
S2 C7 1_555 1_555
O6_3 C11 1_555 1_555
C7 C8 1_555 1_555
C8 H3 1_555 1_555
C9 C8 1_555 1_555
H4 C9 1_555 1_555
C10 S2 1_555 1_555
C11 O8_3 1_555 1_555
C12 O10_2 1_555 1_555
C1 C5 1_555 1_555
C3 C4 1_555 1_555
O12_2 C12 1_555 1_555
C7 C11 1_555 1_555
C9 C10 1_555 1_555
C10 C12 1_555 1_555
S1_2 C1_2 1_555 1_555
O6 C5_2 1_555 1_555
O10_3 C6_2 1_555 1_555
O12_3 C6_2 1_555 1_555
C1_2 C2_2 1_555 1_555
C2_2 H1_2 1_555 1_555
C3_2 C2_2 1_555 1_555
H2_2 C3_2 1_555 1_555
C4_2 S1_2 1_555 1_555
C5_2 O8 1_555 1_555
C6_2 C4_2 1_555 1_555
S2_2 C7_2 1_555 1_555
C10_2 S2_2 1_555 1_555
C11_2 O8_4 1_555 1_555
C12_2 O10 1_555 1_555
C1_2 C5_2 1_555 1_555
C3_2 C4_2 1_555 1_555
O12 C12_2 1_555 1_555
C7_2 C11_2 1_555 1_555
C9_2 C10_2 1_555 1_555
C10_2 C12_2 1_555 1_555
C8_2 H3_2 1_555 1_555
In1_3 O1 1_555 1_555
S1_3 C1_3 1_555 1_555
O1 C5_3 1_555 1_555
O2 In1_3 1_555 1_555
O3 C6_3 1_555 1_555
O4 C6_3 1_555 1_555
C1_3 C2_3 1_555 1_555
C2_3 H1_3 1_555 1_555
C3_3 C2_3 1_555 1_555
H2_3 C3_3 1_555 1_555
C4_3 S1_3 1_555 1_555
C5_3 O2 1_555 1_555
C6_3 C4_3 1_555 1_555
In2_3 O3 1_555 1_555
In3_2 O5 1_555 1_555
S2_3 C7_3 1_555 1_555
O5 C11_3 1_555 1_555
O7 In3_2 1_555 1_555
O9 In1_3 1_555 1_555
O11 In1_3 1_555 1_555
C7_3 C8_3 1_555 1_555
C8_3 H3_3 1_555 1_555
C9_3 C8_3 1_555 1_555
H4_3 C9_3 1_555 1_555
C10_3 S2_3 1_555 1_555
C11_3 O7 1_555 1_555
C12_3 O9 1_555 1_555
O4 In2_3 1_555 1_555
C1_3 C5_3 1_555 1_555
C3_3 C4_3 1_555 1_555
O11 C12_3 1_555 1_555
C7_3 C11_3 1_555 1_555
C9_3 C10_3 1_555 1_555
C10_3 C12_3 1_555 1_555
In2_3 O5_2 1_555 1_555
C8_4 H3_4 1_555 1_555
In1_4 O1_2 1_555 1_555
S1_4 C1_4 1_555 1_555
O1_2 C5_4 1_555 1_555
O2_2 In1_4 1_555 1_555
O3_2 C6_4 1_555 1_555
O4_2 C6_4 1_555 1_555
C1_4 C2_4 1_555 1_555
C2_4 H1_4 1_555 1_555
C3_4 C2_4 1_555 1_555
H2_4 C3_4 1_555 1_555
C4_4 S1_4 1_555 1_555
C5_4 O2_2 1_555 1_555
C6_4 C4_4 1_555 1_555
In3_2 O3_2 1_555 1_555
S2_4 C7_4 1_555 1_555
O7_2 In2_4 1_555 1_555
O9_2 In1_4 1_555 1_555
O11_2 In1_4 1_555 1_555
C10_4 S2_4 1_555 1_555
C11_4 O7_2 1_555 1_555
C12_4 O9_2 1_555 1_555
O4_2 In3_2 1_555 1_555
C1_4 C5_4 1_555 1_555
C3_4 C4_4 1_555 1_555
O11_2 C12_4 1_555 1_555
C7_4 C11_4 1_555 1_555
C9_4 C10_4 1_555 1_555
C10_4 C12_4 1_555 1_555
C13 N1 1_555 1_555
C13 H5 1_555 1_555
C13 H6 1_555 1_555
C13 H7 1_555 1_555
N1 H8 1_555 1_555
N1_2 C14 1_555 1_555
N1_2 H9 1_555 1_555
C14 H10 1_555 1_555
C14 H11 1_555 1_555
C14 H12 1_555 1_555
C13_2 N1_3 1_555 1_555
N1_3 C14_2 1_555 1_555
C13_2 H5_2 1_555 1_555
C13_2 H6_2 1_555 1_555
C13_2 H7_2 1_555 1_555
N1_3 H8_2 1_555 1_555
N1_3 H9_2 1_555 1_555
C14_2 H10_2 1_555 1_555
C14_2 H11_2 1_555 1_555
C14_2 H12_2 1_555 1_555
C13_3 N1_4 1_555 1_555
N1_4 C14_3 1_555 1_555
C13_3 H5_3 1_555 1_555
C13_3 H6_3 1_555 1_555
C13_3 H7_3 1_555 1_555
N1_4 H8_3 1_555 1_555
N1_4 H9_3 1_555 1_555
C14_3 H10_3 1_555 1_555
C14_3 H11_3 1_555 1_555
C14_3 H12_3 1_555 1_555
C13_4 N1_5 1_555 1_555
N1_5 C14_4 1_555 1_555
C13_4 H5_4 1_555 1_555
C13_4 H6_4 1_555 1_555
C13_4 H7_4 1_555 1_555
N1_5 H8_4 1_555 1_555
N1_5 H9_4 1_555 1_555
C14_4 H10_4 1_555 1_555
C14_4 H11_4 1_555 1_555
C14_4 H12_4 1_555 1_555

#END
