
###############################################################################
#
# This file contains modified crystal structure data generated from the
# MOF subset of the Cambridge Structural Database (CSD) v543 
# hosted by the Cambridge Crystallographic Data Centre (CCDC).
#
# This work is licensed under the Creative Commons
# Attribution-NonCommercial-ShareAlike 4.0 International License.
# To view a copy of this license, visit
# http://creativecommons.org/licenses/by-nc-sa/4.0/
# or send a letter to
# Creative Commons, PO Box 1866, Mountain View, CA 94042, USA.
#
# CIF created using the CSD Python API on 29 September 2022
# The structure has been converted into the P1 space group
# The structure has a 3D framework
# The original CSD entry SOKWUM is in the monoclinic crystal system
# The framework has been calculated to contain at least 10.0% void space
# The void calculation uses a probe of radius 1.32A, grid spacing 0.4
#
###############################################################################

data_SOKWUM
_chemical_formula_moiety         '(C88 H120 N16 Ni11 O71 U8)n'
_symmetry_cell_setting           triclinic
_symmetry_space_group_name_H-M   'P 1'
_symmetry_Int_Tables_number      1
_space_group_name_Hall           'P 1'
loop_
_symmetry_equiv_pos_site_id
_symmetry_equiv_pos_as_xyz
1 x,y,z
_cell_length_a                   14.0316(4)
_cell_length_b                   15.2564(6)
_cell_length_c                   17.7817(6)
_cell_angle_alpha                90
_cell_angle_beta                 102.405(2)
_cell_angle_gamma                90
_cell_volume                     3717.69
loop_
_atom_site_label
_atom_site_type_symbol
_atom_site_fract_x
_atom_site_fract_y
_atom_site_fract_z
Ni1 Ni 0.0000 0.0000 0.0000
Ni1_2 Ni 0.0000 1.0000 0.0000
N9 N 0.0604(3) 0.9905(2) 0.11728(19)
Ni1_3 Ni 0.0000 1.0000 1.0000
O9 O 0.0704(3) 0.8083(2) 0.8707(2)
O10 O 0.0519(2) 0.8838(2) 0.97342(17)
C6 C 0.0328(3) 0.8683(3) 0.9033(3)
U5 U 0.130225(13) 0.666002(12) 0.886264(10)
Ni1_4 Ni 1.0000 0.0000 0.0000
O40 O 0.9481(2) 0.1162(2) 0.02658(17)
U1 U 0.869775(13) 0.166002(12) 0.613736(10)
Ni1_5 Ni 1.0000 0.0000 1.0000
Ni2 Ni 0.5000 0.0000 0.5000
O1 O 0.7651(2) 0.1997(2) 0.64785(18)
O2 O 0.9717(2) 0.1316(3) 0.5796(2)
O5 O 0.8917(2) 0.0551(2) 0.72164(17)
O6 O 0.9708(3) 0.1803(2) 0.7449(2)
O11 O 0.7875(2) 0.0410(2) 0.56269(17)
O12 O 0.6344(2) 0.0527(2) 0.49850(17)
O15 O 0.4601(3) 0.2194(2) 0.6111(2)
O16 O 0.4487(2) 0.1192(2) 0.52026(17)
O17 O 0.7928(2) 0.2196(2) 0.49018(18)
N1 N 0.9396(3) 0.0095(2) 0.88272(19)
N3 N 0.6863(3) 0.2697(3) 0.3837(2)
C1 C 0.9866(3) 0.0832(3) 0.8510(2)
H2 H 0.9818 0.1358 0.8826
C2 C 0.9466(3) 0.1066(3) 0.7674(3)
C3 C 0.8353(3) 0.0255(3) 0.8795(2)
H3 H 0.7963 0.0043 0.8297
H4 H 0.8238 0.0893 0.8830
H8 H 0.7023 0.0054 0.6717
C8 C 0.6959(3) 0.0298(3) 0.5558(2)
C11 C 0.5402(3) 0.0871(3) 0.6485(2)
H11 H 0.6033 0.1164 0.6690
H12 H 0.5065 0.0793 0.6916
C12 C 0.4785(3) 0.1449(3) 0.5877(3)
C13 C 0.7171(4) 0.2622(3) 0.4586(3)
C14 C 0.6517(4) 0.3137(4) 0.4988(3)
H13 H 0.6846 0.3677 0.5220
H14 H 0.6323 0.2783 0.5397
C15 C 0.5634(4) 0.3360(4) 0.4357(3)
H15 H 0.5416 0.3969 0.4414
H16 H 0.5087 0.2955 0.4370
C16 C 0.5991(4) 0.3254(3) 0.3607(3)
H17 H 0.5490 0.2964 0.3207
H18 H 0.6159 0.3828 0.3411
C17 C 0.7350(4) 0.2337(4) 0.3268(3)
H19 H 0.7533 0.2814 0.2957
H20 H 0.6909 0.1932 0.2933
H21 H 0.7937 0.2022 0.3527
U4 U 0.385203(12) 0.146221(11) 0.109288(9)
O21 O 0.4838(2) 0.0947(2) 0.07964(19)
O22 O 0.2846(3) 0.1938(2) 0.13921(18)
O25 O 0.2887(2) 0.0274(2) 0.06007(17)
O31 O 0.3895(2) 0.0447(2) 0.22102(17)
O32 O 0.4857(3) 0.1606(2) 0.23868(19)
N6 N 0.4411(3) 0.0011(2) 0.38245(19)
C26 C 0.1976(3) 0.0216(3) 0.0543(2)
C27 C 0.0425(3) 0.0770(3) 0.1508(2)
H35 H 0.0200 0.0671 0.1993
H36 H 0.1047 0.1099 0.1637
C29 C 0.3360(3) 0.0167(3) 0.3780(2)
H37 H 0.3238 0.0804 0.3807
C31 C 0.4883(3) 0.0733(3) 0.3488(2)
H39 H 0.4815 0.1274 0.3779
H40 H 0.5589 0.0602 0.3573
C32 C 0.4517(3) 0.0928(3) 0.2640(2)
H52 H 0.1474 0.2530 0.0202
H53 H 0.2126 0.3395 0.0194
U7 U 0.385203(12) 0.353779(11) 0.609288(9)
O38 O 0.9296(3) 0.3083(2) 0.6293(2)
O42 O 0.4601(3) 0.2806(2) 0.1111(2)
U2 U 0.614797(12) 0.853779(11) 0.890712(9)
Ni1_6 Ni 1.0000 1.0000 1.0000
Ni2_2 Ni 0.5000 1.0000 0.5000
O3 O 0.5162(2) 0.9053(2) 0.92036(19)
O4 O 0.7154(3) 0.8062(2) 0.86079(18)
O7 O 0.7113(2) 0.9726(2) 0.93993(17)
O13 O 0.6105(2) 0.9553(2) 0.77898(17)
O14 O 0.5143(3) 0.8394(2) 0.76132(19)
N2 N 0.5589(3) 0.9989(2) 0.61755(19)
C4 C 0.8024(3) 0.9784(3) 0.9457(2)
C5 C 0.9575(3) 0.9230(3) 0.8492(2)
H5 H 0.9800 0.9329 0.8007
H6 H 0.8953 0.8901 0.8363
C7 C 0.6640(3) 0.9833(3) 0.6220(2)
H7 H 0.6762 0.9196 0.6193
C9 C 0.5117(3) 0.9267(3) 0.6512(2)
H9 H 0.5185 0.8726 0.6221
H10 H 0.4411 0.9398 0.6427
C10 C 0.5483(3) 0.9072(3) 0.7360(2)
H22 H 0.8526 0.7470 0.9798
H23 H 0.7874 0.6605 0.9806
U3 U 0.130225(13) 0.833998(12) 0.386264(10)
O19 O 0.2349(2) 0.8003(2) 0.35215(18)
O20 O 0.0283(2) 0.8684(3) 0.4204(2)
O23 O 0.1083(2) 0.9449(2) 0.27836(17)
O24 O 0.0292(3) 0.8197(2) 0.2551(2)
O29 O 0.2125(2) 0.9590(2) 0.43731(17)
O30 O 0.3656(2) 0.9473(2) 0.50150(17)
O33 O 0.5399(3) 0.7806(2) 0.3889(2)
O34 O 0.5513(2) 0.8808(2) 0.47974(17)
O35 O 0.2072(2) 0.7804(2) 0.50982(18)
N7 N 0.3137(3) 0.7303(3) 0.6163(2)
C23 C 0.0134(3) 0.9168(3) 0.1490(2)
H32 H 0.0182 0.8642 0.1174
C24 C 0.0534(3) 0.8934(3) 0.2326(3)
C25 C 0.1647(3) 0.9745(3) 0.1205(2)
H33 H 0.2037 0.9957 0.1703
H34 H 0.1762 0.9107 0.1170
H38 H 0.2977 0.9946 0.3283
C30 C 0.3041(3) 0.9702(3) 0.4442(2)
C33 C 0.4598(3) 0.9129(3) 0.3515(2)
H41 H 0.3967 0.8836 0.3310
H42 H 0.4935 0.9207 0.3084
C34 C 0.5215(3) 0.8551(3) 0.4123(3)
C35 C 0.2829(4) 0.7378(3) 0.5414(3)
C36 C 0.3483(4) 0.6863(4) 0.5012(3)
H43 H 0.3154 0.6323 0.4780
H44 H 0.3677 0.7217 0.4603
C37 C 0.4366(4) 0.6640(4) 0.5643(3)
H45 H 0.4584 0.6031 0.5586
H46 H 0.4913 0.7045 0.5630
C38 C 0.4009(4) 0.6746(3) 0.6393(3)
H47 H 0.4510 0.7036 0.6793
H48 H 0.3841 0.6172 0.6589
C39 C 0.2650(4) 0.7663(4) 0.6732(3)
H49 H 0.2467 0.7186 0.7043
H50 H 0.3091 0.8068 0.7067
H51 H 0.2063 0.7978 0.6473
U8 U 0.614797(12) 0.646221(11) 0.390712(9)
O39 O 0.0704(3) 0.6917(2) 0.3707(2)
O41 O 0.5399(3) 0.7194(2) 0.8889(2)
O27 O 0.9296(3) 0.1917(2) 0.1293(2)
C28 C 0.9672(3) 0.1317(3) 0.0967(3)
U6 U 0.869775(13) 0.333998(12) 0.113736(10)
O28 O 0.0519(2) 0.6162(2) 0.47342(17)
H31 H 0.0568 0.4307 0.3572
C28_2 C 0.0328(3) 0.6317(3) 0.4033(3)
Ni3 Ni 0.0000 0.5000 0.5000
Ni2_3 Ni 0.5000 0.5000 0.0000
O12_2 O 0.3656(2) 0.5527(2) 0.00150(17)
O17_2 O 0.2072(2) 0.7196(2) 0.00982(18)
N3_2 N 0.3137(3) 0.7697(3) 0.1163(2)
C13_2 C 0.2829(4) 0.7622(3) 0.0414(3)
C14_2 C 0.3483(4) 0.8137(4) 0.0012(3)
C15_2 C 0.4366(4) 0.8360(4) 0.0643(3)
H15_2 H 0.4584 0.8969 0.0586
H16_2 H 0.4913 0.7955 0.0630
C16_2 C 0.4009(4) 0.8254(3) 0.1393(3)
H17_2 H 0.4510 0.7964 0.1793
H18_2 H 0.3841 0.8828 0.1589
C17_2 C 0.2650(4) 0.7337(4) 0.1732(3)
H19_2 H 0.2467 0.7814 0.2043
H20_2 H 0.3091 0.6932 0.2067
H21_2 H 0.2063 0.7022 0.1473
O19_2 O 0.7651(2) 0.3003(2) 0.14785(18)
O20_2 O 0.9717(2) 0.3684(3) 0.0796(2)
O21_2 O 0.5162(2) 0.5947(2) 0.42036(19)
O22_2 O 0.7154(3) 0.6938(2) 0.36079(18)
O23_2 O 0.8917(2) 0.4449(2) 0.22164(17)
O24_2 O 0.9708(3) 0.3197(2) 0.2449(2)
O25_2 O 0.7113(2) 0.5274(2) 0.43993(17)
O26 O 0.8653(2) 0.5510(2) 0.50020(17)
O29_2 O 0.7875(2) 0.4590(2) 0.06269(17)
O31_2 O 0.6105(2) 0.5447(2) 0.27898(17)
O32_2 O 0.5143(3) 0.6606(2) 0.26132(19)
O34_2 O 0.4487(2) 0.3808(2) 0.02026(17)
O36 O 0.6844(3) 0.6955(2) 0.51903(19)
N5 N 0.9396(3) 0.4905(2) 0.38272(19)
N6_2 N 0.5589(3) 0.5011(2) 0.11755(19)
N8 N 0.7806(4) 0.7556(3) 0.6255(3)
C23_2 C 0.9866(3) 0.4168(3) 0.3510(2)
H32_2 H 0.9818 0.3642 0.3826
C24_2 C 0.9466(3) 0.3934(3) 0.2674(3)
C25_2 C 0.8353(3) 0.4745(3) 0.3795(2)
H33_2 H 0.7963 0.4957 0.3297
H34_2 H 0.8238 0.4107 0.3830
C26_2 C 0.8024(3) 0.5216(3) 0.4457(2)
C27_2 C 0.9575(3) 0.5770(3) 0.3492(2)
H35_2 H 0.9800 0.5671 0.3007
H36_2 H 0.8953 0.6099 0.3363
C29_2 C 0.6640(3) 0.5167(3) 0.1220(2)
H37_2 H 0.6762 0.5804 0.1193
H38_2 H 0.7023 0.4946 0.1717
C30_2 C 0.6959(3) 0.4702(3) 0.0558(2)
C31_2 C 0.5117(3) 0.5733(3) 0.1512(2)
H39_2 H 0.5185 0.6274 0.1221
H40_2 H 0.4411 0.5602 0.1427
C32_2 C 0.5483(3) 0.5928(3) 0.2360(2)
C33_2 C 0.5402(3) 0.4129(3) 0.1485(2)
H41_2 H 0.6033 0.3836 0.1690
H42_2 H 0.5065 0.4207 0.1916
C34_2 C 0.4785(3) 0.3551(3) 0.0877(3)
H43_2 H 0.6846 0.1323 0.0220
H44_2 H 0.6323 0.2217 0.0397
C40 C 0.7565(4) 0.7423(3) 0.5513(3)
C41 C 0.8234(6) 0.7923(5) 0.5130(4)
H52_2 H 0.8526 0.7530 0.4798
H53_2 H 0.7874 0.8395 0.4806
C42 C 0.9019(6) 0.8308(5) 0.5758(5)
H54 H 0.9653 0.8013 0.5780
H55 H 0.9096 0.8944 0.5677
C43 C 0.8649(5) 0.8140(4) 0.6489(4)
H56 H 0.8452 0.8695 0.6700
H57 H 0.9160 0.7857 0.6885
C44 C 0.7303(6) 0.7186(6) 0.6799(4)
H58 H 0.6767 0.6817 0.6528
H59 H 0.7757 0.6831 0.7173
H60 H 0.7040 0.7659 0.7069
Ni3_2 Ni 1.0000 0.5000 0.5000
Ni2_4 Ni 0.5000 0.5000 1.0000
O1_2 O 0.2349(2) 0.6997(2) 0.85215(18)
O2_2 O 0.0283(2) 0.6316(3) 0.9204(2)
O3_2 O 0.4838(2) 0.4053(2) 0.57964(19)
O4_2 O 0.2846(3) 0.3062(2) 0.63921(18)
O5_2 O 0.1083(2) 0.5551(2) 0.77836(17)
O6_2 O 0.0292(3) 0.6803(2) 0.7551(2)
O7_2 O 0.2887(2) 0.4726(2) 0.56007(17)
O8 O 0.1347(2) 0.4490(2) 0.49980(17)
O11_2 O 0.2125(2) 0.5410(2) 0.93731(17)
O13_2 O 0.3895(2) 0.4553(2) 0.72102(17)
O14_2 O 0.4857(3) 0.3394(2) 0.73868(19)
O16_2 O 0.5513(2) 0.6192(2) 0.97974(17)
O18 O 0.3156(3) 0.3045(2) 0.48097(19)
N1_2 N 0.0604(3) 0.5095(2) 0.61728(19)
N2_2 N 0.4411(3) 0.4989(2) 0.88245(19)
N4 N 0.2194(4) 0.2444(3) 0.3745(3)
C1_2 C 0.0134(3) 0.5832(3) 0.6490(2)
H2_2 H 0.0182 0.6358 0.6174
C2_2 C 0.0534(3) 0.6066(3) 0.7326(3)
C3_2 C 0.1647(3) 0.5255(3) 0.6205(2)
H3_2 H 0.2037 0.5043 0.6703
H4_2 H 0.1762 0.5893 0.6170
C4_2 C 0.1976(3) 0.4784(3) 0.5543(2)
C5_2 C 0.0425(3) 0.4230(3) 0.6508(2)
H5_2 H 0.0200 0.4329 0.6993
H6_2 H 0.1047 0.3901 0.6637
C7_2 C 0.3360(3) 0.4833(3) 0.8780(2)
H7_2 H 0.3238 0.4196 0.8807
H8_2 H 0.2977 0.5054 0.8283
C8_2 C 0.3041(3) 0.5298(3) 0.9442(2)
C9_2 C 0.4883(3) 0.4267(3) 0.8488(2)
H9_2 H 0.4815 0.3726 0.8779
H10_2 H 0.5589 0.4398 0.8573
C10_2 C 0.4517(3) 0.4072(3) 0.7640(2)
C11_2 C 0.4598(3) 0.5871(3) 0.8515(2)
H11_2 H 0.3967 0.6164 0.8310
H12_2 H 0.4935 0.5793 0.8084
C12_2 C 0.5215(3) 0.6449(3) 0.9123(3)
H13_2 H 0.3154 0.8677 0.9780
H14_2 H 0.3677 0.7783 0.9603
C18 C 0.2435(4) 0.2577(3) 0.4487(3)
C19 C 0.1766(6) 0.2077(5) 0.4870(4)
H22_2 H 0.1474 0.2470 0.5202
H23_2 H 0.2126 0.1605 0.5194
C20 C 0.0981(6) 0.1692(5) 0.4242(5)
H24 H 0.0347 0.1987 0.4220
H25 H 0.0904 0.1056 0.4323
C21 C 0.1351(5) 0.1860(4) 0.3511(4)
H26 H 0.1548 0.1305 0.3300
H27 H 0.0840 0.2143 0.3115
C22 C 0.2697(6) 0.2814(6) 0.3201(4)
H28 H 0.3233 0.3183 0.3472
H29 H 0.2243 0.3169 0.2827
H30 H 0.2960 0.2341 0.2931
O30_2 O 0.6344(2) 0.4473(2) 0.99850(17)
O35_2 O 0.7928(2) 0.2804(2) 0.99018(18)
N7_2 N 0.6863(3) 0.2303(3) 0.8837(2)
C35_2 C 0.7171(4) 0.2378(3) 0.9586(3)
C36_2 C 0.6517(4) 0.1863(4) 0.9988(3)
C37_2 C 0.5634(4) 0.1640(4) 0.9357(3)
H45_2 H 0.5416 0.1031 0.9414
H46_2 H 0.5087 0.2045 0.9370
C38_2 C 0.5991(4) 0.1746(3) 0.8607(3)
H47_2 H 0.5490 0.2036 0.8207
H48_2 H 0.6159 0.1172 0.8411
C39_2 C 0.7350(4) 0.2663(4) 0.8268(3)
H49_2 H 0.7533 0.2186 0.7957
H50_2 H 0.6909 0.3068 0.7933
H51_2 H 0.7937 0.2978 0.8527
O10_2 O 0.9481(2) 0.3838(2) 0.52658(17)
H1 H 0.9432 0.5693 0.6428
C6_2 C 0.9672(3) 0.3683(3) 0.5967(3)
Ni1_7 Ni 0.0000 0.0000 1.0000
H1_2 H 0.0568 0.0693 0.8572
O37 O 0.1347(2) 0.0510(2) 0.99980(17)
O36_2 O 0.3156(3) 0.1955(2) 0.98097(19)
N8_2 N 0.2194(4) 0.2556(3) 0.8745(3)
C40_2 C 0.2435(4) 0.2423(3) 0.9487(3)
C41_2 C 0.1766(6) 0.2923(5) 0.9870(4)
C42_2 C 0.0981(6) 0.3308(5) 0.9242(5)
H54_2 H 0.0347 0.3013 0.9220
H55_2 H 0.0904 0.3944 0.9323
C43_2 C 0.1351(5) 0.3140(4) 0.8511(4)
H56_2 H 0.1548 0.3695 0.8300
H57_2 H 0.0840 0.2857 0.8115
C44_2 C 0.2697(6) 0.2186(6) 0.8201(4)
H58_2 H 0.3233 0.1817 0.8472
H59_2 H 0.2243 0.1831 0.7827
H60_2 H 0.2960 0.2659 0.7931
Ni1_8 Ni 1.0000 1.0000 0.0000
O8_2 O 0.8653(2) 0.9490(2) 0.00020(17)
O18_2 O 0.6844(3) 0.8045(2) 0.01903(19)
N4_2 N 0.7806(4) 0.7444(3) 0.1255(3)
C18_2 C 0.7565(4) 0.7577(3) 0.0513(3)
C19_2 C 0.8234(6) 0.7077(5) 0.0130(4)
C20_2 C 0.9019(6) 0.6692(5) 0.0758(5)
H24_2 H 0.9653 0.6987 0.0780
H25_2 H 0.9096 0.6056 0.0677
C21_2 C 0.8649(5) 0.6860(4) 0.1489(4)
H26_2 H 0.8452 0.6305 0.1700
H27_2 H 0.9160 0.7143 0.1885
C22_2 C 0.7303(6) 0.7814(6) 0.1799(4)
H28_2 H 0.6767 0.8183 0.1528
H29_2 H 0.7757 0.8169 0.2173
H30_2 H 0.7040 0.7341 0.2069
H31_2 H 0.9432 0.9307 0.1428
loop_
_geom_bond_atom_site_label_1
_geom_bond_atom_site_label_2
_geom_bond_site_symmetry_1
_geom_bond_site_symmetry_2
N9 Ni1_2 1_555 1_555
O9 C6 1_555 1_555
O10 Ni1_3 1_555 1_555
C6 O10 1_555 1_555
U5 O9 1_555 1_555
O40 Ni1_4 1_555 1_555
U1 O1 1_555 1_555
Ni2 O12 1_555 1_555
O2 U1 1_555 1_555
O5 U1 1_555 1_555
O6 U1 1_555 1_555
O11 U1 1_555 1_555
O12 C8 1_555 1_555
O15 C12 1_555 1_555
O16 Ni2 1_555 1_555
O17 U1 1_555 1_555
N1 Ni1_5 1_555 1_555
N3 C13 1_555 1_555
C1 N1 1_555 1_555
H2 C1 1_555 1_555
C2 O5 1_555 1_555
C3 N1 1_555 1_555
H3 C3 1_555 1_555
H4 C3 1_555 1_555
C8 O11 1_555 1_555
H11 C11 1_555 1_555
H12 C11 1_555 1_555
C12 O16 1_555 1_555
C13 O17 1_555 1_555
C14 C13 1_555 1_555
H13 C14 1_555 1_555
H14 C14 1_555 1_555
C15 C14 1_555 1_555
H15 C15 1_555 1_555
H16 C15 1_555 1_555
C16 N3 1_555 1_555
H17 C16 1_555 1_555
H18 C16 1_555 1_555
C17 N3 1_555 1_555
H19 C17 1_555 1_555
H20 C17 1_555 1_555
H21 C17 1_555 1_555
U4 O21 1_555 1_555
O22 U4 1_555 1_555
O25 U4 1_555 1_555
O31 U4 1_555 1_555
O32 U4 1_555 1_555
N6 Ni2 1_555 1_555
C26 O25 1_555 1_555
H35 C27 1_555 1_555
H36 C27 1_555 1_555
C29 N6 1_555 1_555
H37 C29 1_555 1_555
C31 N6 1_555 1_555
H39 C31 1_555 1_555
H40 C31 1_555 1_555
C32 O31 1_555 1_555
U7 O15 1_555 1_555
O38 U1 1_555 1_555
O42 U4 1_555 1_555
O6 C2 1_555 1_555
C1 C2 1_555 1_555
C11 C12 1_555 1_555
C15 C16 1_555 1_555
O32 C32 1_555 1_555
C31 C32 1_555 1_555
U2 O3 1_555 1_555
O4 U2 1_555 1_555
O7 U2 1_555 1_555
O13 U2 1_555 1_555
O14 U2 1_555 1_555
N2 Ni2_2 1_555 1_555
C4 O7 1_555 1_555
H5 C5 1_555 1_555
H6 C5 1_555 1_555
C7 N2 1_555 1_555
H7 C7 1_555 1_555
C9 N2 1_555 1_555
H9 C9 1_555 1_555
H10 C9 1_555 1_555
C10 O13 1_555 1_555
U3 O19 1_555 1_555
O20 U3 1_555 1_555
O23 U3 1_555 1_555
O24 U3 1_555 1_555
O29 U3 1_555 1_555
O30 Ni2_2 1_555 1_555
O33 C34 1_555 1_555
O34 Ni2_2 1_555 1_555
O35 U3 1_555 1_555
N9 C23 1_555 1_555
N7 C35 1_555 1_555
H32 C23 1_555 1_555
C24 O23 1_555 1_555
C25 N9 1_555 1_555
H33 C25 1_555 1_555
H34 C25 1_555 1_555
C30 O29 1_555 1_555
H41 C33 1_555 1_555
H42 C33 1_555 1_555
C34 O34 1_555 1_555
C35 O35 1_555 1_555
C36 C35 1_555 1_555
H43 C36 1_555 1_555
H44 C36 1_555 1_555
C37 C36 1_555 1_555
H45 C37 1_555 1_555
H46 C37 1_555 1_555
C38 N7 1_555 1_555
H47 C38 1_555 1_555
H48 C38 1_555 1_555
C39 N7 1_555 1_555
H49 C39 1_555 1_555
H50 C39 1_555 1_555
H51 C39 1_555 1_555
U8 O33 1_555 1_555
O39 U3 1_555 1_555
O41 U2 1_555 1_555
O14 C10 1_555 1_555
C9 C10 1_555 1_555
O24 C24 1_555 1_555
O30 C30 1_555 1_555
C23 C24 1_555 1_555
C33 C34 1_555 1_555
C37 C38 1_555 1_555
O27 C28 1_555 1_555
O40 C28 1_555 1_555
U6 O27 1_555 1_555
O39 C28_2 1_555 1_555
O28 C28_2 1_555 1_555
O28 Ni3 1_555 1_555
Ni2_3 O12_2 1_555 1_555
N3_2 C13_2 1_555 1_555
C13_2 O17_2 1_555 1_555
C14_2 C13_2 1_555 1_555
C15_2 C14_2 1_555 1_555
H15_2 C15_2 1_555 1_555
H16_2 C15_2 1_555 1_555
C16_2 N3_2 1_555 1_555
H17_2 C16_2 1_555 1_555
H18_2 C16_2 1_555 1_555
C17_2 N3_2 1_555 1_555
H19_2 C17_2 1_555 1_555
H20_2 C17_2 1_555 1_555
H21_2 C17_2 1_555 1_555
U6 O19_2 1_555 1_555
U8 O21_2 1_555 1_555
O20_2 U6 1_555 1_555
O22_2 U8 1_555 1_555
O23_2 U6 1_555 1_555
O24_2 U6 1_555 1_555
O25_2 U8 1_555 1_555
O26 C26_2 1_555 1_555
O29_2 U6 1_555 1_555
O31_2 U8 1_555 1_555
O32_2 U8 1_555 1_555
O42 C34_2 1_555 1_555
O34_2 Ni2_3 1_555 1_555
O36 U8 1_555 1_555
N5 C23_2 1_555 1_555
N6_2 Ni2_3 1_555 1_555
N8 C40 1_555 1_555
H32_2 C23_2 1_555 1_555
C24_2 O23_2 1_555 1_555
C25_2 N5 1_555 1_555
H33_2 C25_2 1_555 1_555
H34_2 C25_2 1_555 1_555
C26_2 O25_2 1_555 1_555
C27_2 N5 1_555 1_555
H35_2 C27_2 1_555 1_555
H36_2 C27_2 1_555 1_555
C29_2 N6_2 1_555 1_555
H37_2 C29_2 1_555 1_555
H38_2 C29_2 1_555 1_555
C30_2 O29_2 1_555 1_555
C31_2 N6_2 1_555 1_555
H39_2 C31_2 1_555 1_555
H40_2 C31_2 1_555 1_555
C32_2 O31_2 1_555 1_555
C33_2 N6_2 1_555 1_555
H41_2 C33_2 1_555 1_555
H42_2 C33_2 1_555 1_555
C34_2 O34_2 1_555 1_555
C40 O36 1_555 1_555
C41 C40 1_555 1_555
H52_2 C41 1_555 1_555
H53_2 C41 1_555 1_555
C42 C41 1_555 1_555
H54 C42 1_555 1_555
H55 C42 1_555 1_555
C43 N8 1_555 1_555
H56 C43 1_555 1_555
H57 C43 1_555 1_555
C44 N8 1_555 1_555
H58 C44 1_555 1_555
H59 C44 1_555 1_555
H60 C44 1_555 1_555
Ni3_2 O26 1_555 1_555
C15_2 C16_2 1_555 1_555
O24_2 C24_2 1_555 1_555
O32_2 C32_2 1_555 1_555
N5 Ni3_2 1_555 1_555
C23_2 C24_2 1_555 1_555
C25_2 C26_2 1_555 1_555
C29_2 C30_2 1_555 1_555
C31_2 C32_2 1_555 1_555
C33_2 C34_2 1_555 1_555
C42 C43 1_555 1_555
U5 O1_2 1_555 1_555
U7 O3_2 1_555 1_555
Ni3 O8 1_555 1_555
O2_2 U5 1_555 1_555
O4_2 U7 1_555 1_555
O5_2 U5 1_555 1_555
O6_2 U5 1_555 1_555
O7_2 U7 1_555 1_555
O8 C4_2 1_555 1_555
O11_2 U5 1_555 1_555
O13_2 U7 1_555 1_555
O14_2 U7 1_555 1_555
O41 C12_2 1_555 1_555
O16_2 Ni2_4 1_555 1_555
O18 U7 1_555 1_555
N1_2 Ni3 1_555 1_555
N2_2 Ni2_4 1_555 1_555
N4 C18 1_555 1_555
C1_2 N1_2 1_555 1_555
H2_2 C1_2 1_555 1_555
C2_2 O5_2 1_555 1_555
C3_2 N1_2 1_555 1_555
H3_2 C3_2 1_555 1_555
H4_2 C3_2 1_555 1_555
C4_2 O7_2 1_555 1_555
C5_2 N1_2 1_555 1_555
H5_2 C5_2 1_555 1_555
H6_2 C5_2 1_555 1_555
C7_2 N2_2 1_555 1_555
H7_2 C7_2 1_555 1_555
H8_2 C7_2 1_555 1_555
C8_2 O11_2 1_555 1_555
C9_2 N2_2 1_555 1_555
H9_2 C9_2 1_555 1_555
H10_2 C9_2 1_555 1_555
C10_2 O13_2 1_555 1_555
C11_2 N2_2 1_555 1_555
H11_2 C11_2 1_555 1_555
H12_2 C11_2 1_555 1_555
C12_2 O16_2 1_555 1_555
C18 O18 1_555 1_555
C19 C18 1_555 1_555
H22_2 C19 1_555 1_555
H23_2 C19 1_555 1_555
C20 C19 1_555 1_555
H24 C20 1_555 1_555
H25 C20 1_555 1_555
C21 N4 1_555 1_555
H26 C21 1_555 1_555
H27 C21 1_555 1_555
C22 N4 1_555 1_555
H28 C22 1_555 1_555
H29 C22 1_555 1_555
H30 C22 1_555 1_555
O30_2 Ni2_4 1_555 1_555
N7_2 C35_2 1_555 1_555
C35_2 O35_2 1_555 1_555
C36_2 C35_2 1_555 1_555
C37_2 C36_2 1_555 1_555
H45_2 C37_2 1_555 1_555
H46_2 C37_2 1_555 1_555
C38_2 N7_2 1_555 1_555
H47_2 C38_2 1_555 1_555
H48_2 C38_2 1_555 1_555
C39_2 N7_2 1_555 1_555
H49_2 C39_2 1_555 1_555
H50_2 C39_2 1_555 1_555
H51_2 C39_2 1_555 1_555
O6_2 C2_2 1_555 1_555
O14_2 C10_2 1_555 1_555
C1_2 C2_2 1_555 1_555
C3_2 C4_2 1_555 1_555
C7_2 C8_2 1_555 1_555
C9_2 C10_2 1_555 1_555
C11_2 C12_2 1_555 1_555
C20 C21 1_555 1_555
C37_2 C38_2 1_555 1_555
O38 C6_2 1_555 1_555
O10_2 Ni3_2 1_555 1_555
C6_2 O10_2 1_555 1_555
O37 Ni1_7 1_555 1_555
N8_2 C40_2 1_555 1_555
C40_2 O36_2 1_555 1_555
C41_2 C40_2 1_555 1_555
C42_2 C41_2 1_555 1_555
H54_2 C42_2 1_555 1_555
H55_2 C42_2 1_555 1_555
C43_2 N8_2 1_555 1_555
H56_2 C43_2 1_555 1_555
H57_2 C43_2 1_555 1_555
C44_2 N8_2 1_555 1_555
H58_2 C44_2 1_555 1_555
H59_2 C44_2 1_555 1_555
H60_2 C44_2 1_555 1_555
C42_2 C43_2 1_555 1_555
Ni1_8 O8_2 1_555 1_555
N4_2 C18_2 1_555 1_555
C18_2 O18_2 1_555 1_555
C19_2 C18_2 1_555 1_555
C20_2 C19_2 1_555 1_555
H24_2 C20_2 1_555 1_555
H25_2 C20_2 1_555 1_555
C21_2 N4_2 1_555 1_555
H26_2 C21_2 1_555 1_555
H27_2 C21_2 1_555 1_555
C22_2 N4_2 1_555 1_555
H28_2 C22_2 1_555 1_555
H29_2 C22_2 1_555 1_555
H30_2 C22_2 1_555 1_555
C20_2 C21_2 1_555 1_555

#END
