
###############################################################################
#
# This file contains modified crystal structure data generated from the
# MOF subset of the Cambridge Structural Database (CSD) v543 
# hosted by the Cambridge Crystallographic Data Centre (CCDC).
#
# This work is licensed under the Creative Commons
# Attribution-NonCommercial-ShareAlike 4.0 International License.
# To view a copy of this license, visit
# http://creativecommons.org/licenses/by-nc-sa/4.0/
# or send a letter to
# Creative Commons, PO Box 1866, Mountain View, CA 94042, USA.
#
# CIF created using the CSD Python API on 29 September 2022
# The structure has been converted into the P1 space group
# The structure has a 3D framework
# The original CSD entry SOLBOM is in the orthorhombic crystal system
# The original CSD entry SOLBOM is in a Sohncke space group
# The framework has been calculated to contain at least 10.0% void space
# The void calculation uses a probe of radius 1.32A, grid spacing 0.4
#
###############################################################################

data_SOLBOM
_chemical_formula_moiety         '(C320 H120 F120 O88 Pb18)n'
_symmetry_cell_setting           triclinic
_symmetry_space_group_name_H-M   'P 1'
_symmetry_Int_Tables_number      1
_space_group_name_Hall           'P 1'
loop_
_symmetry_equiv_pos_site_id
_symmetry_equiv_pos_as_xyz
1 x,y,z
_cell_length_a                   12.581(5)
_cell_length_b                   26.347(5)
_cell_length_c                   29.852(5)
_cell_angle_alpha                90
_cell_angle_beta                 90
_cell_angle_gamma                90
_cell_volume                     9895.09
loop_
_atom_site_label
_atom_site_type_symbol
_atom_site_fract_x
_atom_site_fract_y
_atom_site_fract_z
Pb2 Pb 0.09867(3) 0.068871(16) 0.392184(14)
Pb5 Pb 0.32974(3) 0.027774(15) 0.312948(13)
Pb6 Pb 0.53744(3) 0.034079(16) 0.414918(14)
F1 F 0.0226(9) 0.2425(4) 0.4030(3)
F3 F 0.0526(8) 0.2699(3) 0.4690(3)
F4 F 0.1516(7) 0.2622(4) 0.5642(4)
F5 F 0.0761(8) 0.1956(3) 0.5435(3)
F6 F 0.0734(9) 0.2148(4) 0.6118(3)
F16 F 0.0155(8) 0.0790(4) 0.6254(4)
O6 O 0.0979(7) 0.0552(3) 0.3114(3)
O21 O 0.2202(6) 0.0044(3) 0.3783(2)
H4 H 0.0132 0.3159 0.6124
C16 C 0.0665(11) 0.2335(5) 0.5708(5)
C17 C 0.0589(11) 0.0119(5) 0.2987(4)
C22 C 0.1167(11) 0.0216(6) 0.1770(4)
H8 H 0.1409 0.0462 0.1571
C23 C 0.1040(11) 0.0338(5) 0.2213(4)
H9 H 0.1219 0.0662 0.2312
Pb20 Pb 0.03744(3) 0.465921(16) 0.585082(14)
O23 O 0.7584(6) 0.0465(3) 0.4316(2)
O24 O 0.2616(6) 0.1093(3) 0.3623(3)
O25 O 0.4342(6) 0.0975(3) 0.3608(3)
O26 O 0.1930(6) 0.0629(3) 0.4659(3)
O27 O 0.3499(6) 0.0312(3) 0.4446(2)
O34 O 0.5421(7) 0.0255(3) 0.2841(2)
O36 O 0.6487(6) 0.0346(3) 0.3425(2)
Pb3 Pb 0.14177(4) 0.926246(16) 0.379054(15)
Pb4 Pb 0.56234(3) 0.936056(15) 0.319548(15)
F9 F 0.1326(15) 0.8576(4) 0.1677(4)
F13 F 0.1810(7) 0.9299(4) 0.6180(3)
F14 F 0.0359(8) 0.9100(4) 0.6510(3)
F15 F 0.0969(9) 0.9832(4) 0.6590(3)
F19 F 0.5202(18) 0.6940(5) 0.4054(10)
F20 F 0.3697(17) 0.6520(4) 0.4206(5)
F21 F 0.4879(14) 0.6742(6) 0.4765(9)
F22 F 0.359(3) 0.7266(16) 0.5961(13)
F23 F 0.4506(17) 0.7406(7) 0.5403(7)
F24 F 0.4838 0.6633 0.5681
F25 F 0.1451(13) 0.7080(4) 0.2954(5)
F26 F 0.137(2) 0.7617(6) 0.3435(11)
F27 F 0.2698(19) 0.7062(6) 0.3375(6)
F28 F 0.1265(15) 0.7425(5) 0.2118(6)
F29 F 0.2094(13) 0.7247(6) 0.1423(5)
F30 F 0.0942(9) 0.6755(4) 0.1749(4)
O5 O 0.0198(6) 0.9809(3) 0.3274(2)
O9 O 0.0129(6) 0.9852(3) 0.4277(3)
O10 O 0.1445(6) 0.9401(3) 0.4601(3)
O13 O 0.3338(7) 0.9092(3) 0.3948(3)
O14 O 0.4732(7) 0.8681(3) 0.3679(3)
O15 O 0.0499(8) 0.5472(3) 0.5483(3)
O16 O 0.1609(7) 0.5587(3) 0.6049(3)
O17 O 0.2362(7) 0.9356(3) 0.3022(3)
O18 O 0.3972(7) 0.9419(3) 0.2727(2)
O19 O 0.4579(7) 0.5255(3) 0.2159(2)
O20 O 0.3513(6) 0.5346(3) 0.1575(2)
O22 O 0.4461(6) 0.9862(2) 0.3633(2)
C18 C 0.0649(10) 0.9986(5) 0.2518(4)
C19 C 0.0421(10) 0.9504(5) 0.2375(4)
H7 H 0.0173 0.9264 0.2578
C20 C 0.0560(12) 0.9371(6) 0.1920(4)
C21 C 0.0940(10) 0.9726(5) 0.1611(4)
C24 C 0.036(2) 0.8835(8) 0.1764(5)
C25 C 0.1183(11) 0.9623(6) 0.1119(4)
C26 C 0.0544(10) 0.9843(6) 0.0781(4)
C27 C 0.0870(11) 0.9812(5) 0.0331(4)
H10 H 0.0469 0.9963 0.0105
C28 C 0.1793(9) 0.9554(4) 0.0228(3)
C29 C 0.2416(11) 0.9345(6) 0.0566(4)
H11 H 0.3048 0.9181 0.0495
C30 C 0.2096(11) 0.9383(6) 0.1003(4)
H12 H 0.2516 0.9240 0.1226
C33 C 0.0593(9) 0.9657(5) 0.4630(4)
C34 C 0.0079(11) 0.9718(5) 0.5082(4)
C35 C 0.0642(10) 0.9592(5) 0.5458(4)
H13 H 0.1333 0.9471 0.5428
C36 C 0.0215(10) 0.9639(6) 0.5879(4)
C40 C 0.0836(13) 0.9476(7) 0.6288(5)
C49 C 0.3932(10) 0.8713(4) 0.3923(4)
C50 C 0.3632(11) 0.8273(5) 0.4210(4)
C51 C 0.4142(11) 0.7801(4) 0.4155(5)
H19 H 0.4713 0.7775 0.3959
C52 C 0.3804(17) 0.7375(6) 0.4391(6)
C53 C 0.3042(14) 0.7421(6) 0.4722(5)
C54 C 0.2563(14) 0.7880(6) 0.4773(6)
H20 H 0.1996 0.7909 0.4971
C55 C 0.2903(15) 0.8319(5) 0.4531(5)
H21 H 0.2616 0.8635 0.4597
C56 C 0.432(3) 0.6896(13) 0.4343(11)
C57 C 0.2602(14) 0.6970(6) 0.4977(6)
C58 C 0.301(2) 0.6798(8) 0.5353(8)
C59 C 0.2495(17) 0.6411(7) 0.5594(7)
H22 H 0.2742 0.6329 0.5879
C60 C 0.1674(11) 0.6160(5) 0.5433(5)
C61 C 0.1272(13) 0.6316(6) 0.5047(5)
H23 H 0.0655 0.6166 0.4938
C62 C 0.1783(17) 0.6716(8) 0.4794(6)
H24 H 0.1546 0.6797 0.4508
C63 C 0.1205(11) 0.5706(5) 0.5667(5)
C64 C 0.4061 0.6995 0.5575
C65 C 0.3165(10) 0.9175(4) 0.2818(4)
C66 C 0.3129(10) 0.8622(4) 0.2704(5)
C67 C 0.2510(15) 0.8279(6) 0.2925(7)
H25 H 0.2042 0.8396 0.3143
C68 C 0.2552(15) 0.7766(6) 0.2837(7)
C69 C 0.3209(12) 0.7588(5) 0.2507(5)
C70 C 0.3808(13) 0.7927(6) 0.2286(5)
H26 H 0.4263 0.7811 0.2063
C71 C 0.3777(11) 0.8435(5) 0.2374(4)
H27 H 0.4198 0.8656 0.2208
C72 C 0.1911 0.7400 0.3183
C73 C 0.3268(11) 0.7037(5) 0.2365(5)
C74 C 0.2721(14) 0.6824(6) 0.2028(7)
C75 C 0.2933(11) 0.6324(5) 0.1875(5)
H28 H 0.2551 0.6191 0.1635
C76 C 0.3703(9) 0.6036(4) 0.2080(3)
C77 C 0.4213(11) 0.6242(4) 0.2441(4)
H29 H 0.4693 0.6042 0.2599
C78 C 0.4039(14) 0.6745(5) 0.2582(5)
H30 H 0.4431 0.6882 0.2817
C79 C 0.3937(9) 0.5515(4) 0.1937(3)
C80 C 0.1781(19) 0.7065(7) 0.1849(7)
Pb8 Pb 0.33500(4) 0.509595(15) 0.639863(14)
Pb9 Pb 0.16500(4) 0.490405(15) 0.139863(14)
Pb13 Pb 0.06234(3) 0.563944(15) 0.680452(15)
Pb14 Pb 0.43766(3) 0.436056(15) 0.180452(15)
Pb16 Pb 0.67026(3) 0.527774(15) 0.187052(13)
Pb21 Pb 0.46256(3) 0.534079(16) 0.085082(14)
O30 O 0.7696(6) 0.9484(3) 0.2858(2)
O31 O 0.5499(8) 0.9528(3) 0.4517(3)
O33 O 0.6609(7) 0.9413(3) 0.3951(3)
O7 O 0.3070(6) 0.9371(3) 0.9659(3)
O8 O 0.1501(6) 0.9688(3) 0.9446(2)
C31 C 0.2158(10) 0.9520(5) 0.9756(4)
Pb10 Pb 0.40133(3) 0.931129(16) 0.892184(14)
F2 F 0.9075(8) 0.2912(3) 0.4353(3)
F11 F 0.9666(11) 0.0596(5) 0.1019(4)
F12 F 0.8911(8) 0.0161(6) 0.0512(3)
F17 F 0.8670(10) 0.1031(4) 0.6037(3)
F18 F 0.9224(8) 0.1248(3) 0.6666(3)
O1 O 0.8768(6) 0.0760(3) 0.3831(2)
O3 O 0.7616(6) 0.3907(3) 0.6377(3)
O4 O 0.9342(6) 0.4025(3) 0.6392(3)
O12 O 0.7304(6) 0.0516(3) 0.7858(2)
C1 C 0.8234(10) 0.0798(4) 0.4199(4)
C2 C 0.8437(11) 0.1235(5) 0.4486(4)
C3 C 0.9043(10) 0.1667(5) 0.4334(4)
H1 H 0.9330 0.1664 0.4047
C4 C 0.9207(11) 0.2078(5) 0.4601(4)
C5 C 0.8798(10) 0.2082(5) 0.5044(4)
C6 C 0.8196(11) 0.1665(4) 0.5202(4)
H2 H 0.7907 0.1668 0.5488
C7 C 0.8047(11) 0.1253(5) 0.4922(4)
H3 H 0.7670 0.0975 0.5030
C8 C 0.9776(12) 0.2521(6) 0.4423(5)
C9 C 0.8853(10) 0.2546(4) 0.5351(4)
C10 C 0.9699(12) 0.2654(5) 0.5644(4)
C11 C 0.9580(10) 0.3075(4) 0.5930(4)
C12 C 0.8684(9) 0.3362(4) 0.5931(4)
C13 C 0.7839(11) 0.3249(5) 0.5639(5)
H5 H 0.7218 0.3441 0.5641
C14 C 0.7955(11) 0.2851(5) 0.5351(5)
H6 H 0.7414 0.2781 0.5148
C15 C 0.8536(10) 0.3792(4) 0.6256(3)
C32 C 0.9505(14) 0.0138(8) 0.0857(6)
H14 H 0.7969 0.0134 0.5570
H15 H 0.8667 0.0021 0.4873
C42 C 0.8620(10) 0.0410(5) 0.6587(4)
C43 C 0.8112(10) 0.0452(5) 0.6994(4)
H16 H 0.8114 0.0763 0.7140
C44 C 0.7600(9) 0.0046(4) 0.7194(4)
C47 C 0.7137(11) 0.0102(5) 0.7659(4)
C48 C 0.9169(13) 0.0866(6) 0.6389(5)
Pb7 Pb 0.66500(4) 0.009595(15) 0.860137(14)
Pb11 Pb 0.59867(3) 0.431129(16) 0.607816(14)
Pb12 Pb 0.93766(3) 0.063944(15) 0.819548(15)
Pb15 Pb 0.82974(3) 0.472226(15) 0.687052(13)
O28 O 0.8315(6) 0.0263(3) 0.2839(2)
Pb1 Pb 0.83500(4) 0.990405(15) 0.360137(14)
F7 F 0.9788(13) 0.8586(4) 0.2076(4)
F8 F 0.9774(11) 0.8822(4) 0.1387(4)
F10 F 0.8940(8) 0.9863(6) 0.1188(3)
O11 O 0.6685(6) 0.9737(3) 0.7839(2)
C37 C 0.9189(11) 0.9855(5) 0.5924(4)
C38 C 0.8643(12) 0.9993(6) 0.5541(4)
C39 C 0.9054(10) 0.9928(5) 0.5125(4)
C41 C 0.8653(10) 0.9931(5) 0.6378(4)
C45 C 0.7569(10) 0.9585(5) 0.6973(4)
H17 H 0.7190 0.9313 0.7092
C46 C 0.8110(10) 0.9535(5) 0.6574(4)
H18 H 0.8108 0.9222 0.6432
Pb18 Pb 0.96256(3) 0.965921(16) 0.914918(14)
F13_2 F 0.3190(7) 0.0701(4) 0.1180(3)
F14_2 F 0.4641(8) 0.0900(4) 0.1510(3)
F15_2 F 0.4031(9) 0.0168(4) 0.1590(3)
F22_2 F 0.141(3) 0.2734(16) 0.0961(13)
F23_2 F 0.0494(17) 0.2594(7) 0.0403(7)
F24_2 F 0.0162 0.3367 0.0681
O15_2 O 0.4501(8) 0.4528(3) 0.0483(3)
O16_2 O 0.3391(7) 0.4413(3) 0.1049(3)
C34_2 C 0.4921(11) 0.0282(5) 0.0082(4)
C35_2 C 0.4358(10) 0.0408(5) 0.0458(4)
H13_2 H 0.3667 0.0529 0.0428
C36_2 C 0.4785(10) 0.0361(6) 0.0879(4)
C37_2 C 0.5811(11) 0.0145(5) 0.0924(4)
C38_2 C 0.6357(12) 0.0007(6) 0.0541(4)
C39_2 C 0.5946(10) 0.0072(5) 0.0125(4)
C40_2 C 0.4164(13) 0.0524(7) 0.1288(5)
C41_2 C 0.6347(10) 0.0069(5) 0.1378(4)
C45_2 C 0.7431(10) 0.0415(5) 0.1973(4)
H17_2 H 0.7810 0.0687 0.2092
C46_2 C 0.6890(10) 0.0465(5) 0.1574(4)
H18_2 H 0.6892 0.0778 0.1432
C58_2 C 0.199(2) 0.3202(8) 0.0353(8)
C59_2 C 0.2505(17) 0.3589(7) 0.0594(7)
H22_2 H 0.2258 0.3671 0.0879
C60_2 C 0.3326(11) 0.3840(5) 0.0433(5)
C61_2 C 0.3728(13) 0.3684(6) 0.0047(5)
C63_2 C 0.3795(11) 0.4294(5) 0.0667(5)
C64_2 C 0.0939 0.3005 0.0575
Pb3_2 Pb 0.35823(4) 0.073754(16) 0.879054(15)
F7_2 F 0.5212(13) 0.1414(4) 0.7076(4)
F8_2 F 0.5226(11) 0.1178(4) 0.6387(4)
F9_2 F 0.3674(15) 0.1424(4) 0.6677(4)
F10_2 F 0.6060(8) 0.0137(6) 0.6188(3)
F20_2 F 0.1303(17) 0.3480(4) 0.9206(5)
F21_2 F 0.0121(14) 0.3258(6) 0.9765(9)
F25_2 F 0.3549(13) 0.2920(4) 0.7954(5)
F26_2 F 0.363(2) 0.2383(6) 0.8435(11)
F27_2 F 0.2302(19) 0.2938(6) 0.8375(6)
F28_2 F 0.3735(15) 0.2575(5) 0.7118(6)
F29_2 F 0.2906(13) 0.2753(6) 0.6423(5)
F30_2 F 0.4058(9) 0.3245(4) 0.6749(4)
O5_2 O 0.4802(6) 0.0191(3) 0.8274(2)
O9_2 O 0.4871(6) 0.0148(3) 0.9277(3)
O10_2 O 0.3555(6) 0.0599(3) 0.9601(3)
O13_2 O 0.1662(7) 0.0908(3) 0.8948(3)
O14_2 O 0.0268(7) 0.1319(3) 0.8679(3)
O17_2 O 0.2638(7) 0.0644(3) 0.8022(3)
O18_2 O 0.1028(7) 0.0581(3) 0.7727(2)
O19_2 O 0.0421(7) 0.4745(3) 0.7159(2)
O20_2 O 0.1487(6) 0.4654(3) 0.6575(2)
O22_2 O 0.0539(6) 0.0138(2) 0.8633(2)
C18_2 C 0.4351(10) 0.0014(5) 0.7518(4)
C19_2 C 0.4579(10) 0.0496(5) 0.7375(4)
H7_2 H 0.4827 0.0736 0.7578
C20_2 C 0.4440(12) 0.0629(6) 0.6920(4)
C21_2 C 0.4060(10) 0.0274(5) 0.6611(4)
C24_2 C 0.464(2) 0.1165(8) 0.6764(5)
C25_2 C 0.3817(11) 0.0377(6) 0.6119(4)
C26_2 C 0.4456(10) 0.0157(6) 0.5781(4)
C27_2 C 0.4130(11) 0.0188(5) 0.5331(4)
H10_2 H 0.4531 0.0037 0.5105
C28_2 C 0.3207(9) 0.0446(4) 0.5228(3)
C29_2 C 0.2584(11) 0.0655(6) 0.5566(4)
H11_2 H 0.1952 0.0819 0.5495
C30_2 C 0.2904(11) 0.0617(6) 0.6003(4)
H12_2 H 0.2484 0.0760 0.6226
C31_2 C 0.2842(10) 0.0480(5) 0.4756(4)
C33_2 C 0.4407(9) 0.0343(5) 0.9630(4)
C49_2 C 0.1068(10) 0.1287(4) 0.8923(4)
C50_2 C 0.1368(11) 0.1727(5) 0.9210(4)
C51_2 C 0.0858(11) 0.2199(4) 0.9155(5)
H19_2 H 0.0287 0.2225 0.8959
C52_2 C 0.1196(17) 0.2625(6) 0.9391(6)
C53_2 C 0.1958(14) 0.2579(6) 0.9722(5)
C54_2 C 0.2437(14) 0.2120(6) 0.9773(6)
H20_2 H 0.3004 0.2091 0.9971
C55_2 C 0.2097(15) 0.1681(5) 0.9531(5)
H21_2 H 0.2384 0.1365 0.9597
C56_2 C 0.068(3) 0.3104(13) 0.9343(11)
C57_2 C 0.2398(14) 0.3030(6) 0.9977(6)
H23_2 H 0.4345 0.3834 0.9938
C62_2 C 0.3217(17) 0.3284(8) 0.9794(6)
H24_2 H 0.3454 0.3203 0.9508
C65_2 C 0.1835(10) 0.0825(4) 0.7818(4)
C66_2 C 0.1871(10) 0.1378(4) 0.7704(5)
C67_2 C 0.2490(15) 0.1721(6) 0.7925(7)
H25_2 H 0.2958 0.1604 0.8143
C68_2 C 0.2448(15) 0.2234(6) 0.7837(7)
C69_2 C 0.1791(12) 0.2412(5) 0.7507(5)
C70_2 C 0.1192(13) 0.2073(6) 0.7286(5)
H26_2 H 0.0737 0.2189 0.7063
C71_2 C 0.1223(11) 0.1565(5) 0.7374(4)
H27_2 H 0.0802 0.1344 0.7208
C72_2 C 0.3089 0.2600 0.8183
C73_2 C 0.1732(11) 0.2963(5) 0.7365(5)
C74_2 C 0.2279(14) 0.3176(6) 0.7028(7)
C75_2 C 0.2067(11) 0.3676(5) 0.6875(5)
H28_2 H 0.2449 0.3809 0.6635
C76_2 C 0.1297(9) 0.3964(4) 0.7080(3)
C77_2 C 0.0787(11) 0.3758(4) 0.7441(4)
H29_2 H 0.0307 0.3958 0.7599
C78_2 C 0.0961(14) 0.3255(5) 0.7582(5)
H30_2 H 0.0569 0.3118 0.7817
C79_2 C 0.1063(9) 0.4485(4) 0.6937(3)
C80_2 C 0.3219(19) 0.2935(7) 0.6849(7)
O32 O 0.8391(7) 0.0587(3) 0.8951(3)
F4_2 F 0.3484(7) 0.7378(4) 0.0642(4)
F5_2 F 0.4239(8) 0.8044(3) 0.0435(3)
F6_2 F 0.4266(9) 0.7852(4) 0.1118(3)
F16_2 F 0.4845(8) 0.9210(4) 0.1254(4)
F17_2 F 0.6330(10) 0.8969(4) 0.1037(3)
F18_2 F 0.5776(8) 0.8752(3) 0.1666(3)
O3_2 O 0.7384(6) 0.6093(3) 0.1377(3)
O4_2 O 0.5658(6) 0.5975(3) 0.1392(3)
C5_2 C 0.6202(10) 0.7918(5) 0.0044(4)
C6_2 C 0.6804(11) 0.8335(4) 0.0202(4)
H2_2 H 0.7093 0.8332 0.0488
H3_2 H 0.7330 0.9025 0.0030
C9_2 C 0.6147(10) 0.7454(4) 0.0351(4)
C10_2 C 0.5301(12) 0.7346(5) 0.0644(4)
C11_2 C 0.5420(10) 0.6925(4) 0.0930(4)
H4_2 H 0.4868 0.6841 0.1124
C12_2 C 0.6316(9) 0.6638(4) 0.0931(4)
C13_2 C 0.7161(11) 0.6751(5) 0.0639(5)
H5_2 H 0.7782 0.6559 0.0641
C14_2 C 0.7045(11) 0.7149(5) 0.0351(5)
H6_2 H 0.7586 0.7219 0.0148
C15_2 C 0.6464(10) 0.6208(4) 0.1256(3)
C16_2 C 0.4335(11) 0.7665(5) 0.0708(5)
H14_2 H 0.7031 0.9866 0.0570
C42_2 C 0.6380(10) 0.9590(5) 0.1587(4)
C43_2 C 0.6888(10) 0.9548(5) 0.1994(4)
H16_2 H 0.6886 0.9237 0.2140
C44_2 C 0.7400(9) 0.9954(4) 0.2194(4)
C47_2 C 0.7863(11) 0.9898(5) 0.2659(4)
C48_2 C 0.5831(13) 0.9134(6) 0.1389(5)
Pb11_2 Pb 0.90133(3) 0.568871(16) 0.107816(14)
Pb5_2 Pb 0.17026(3) 0.972226(15) 0.812948(13)
F1_2 F 0.4774(9) 0.7575(4) 0.9030(3)
F2_2 F 0.5925(8) 0.7088(3) 0.9353(3)
F3_2 F 0.4474(8) 0.7301(3) 0.9690(3)
F11_2 F 0.5334(11) 0.9404(5) 0.6019(4)
F12_2 F 0.6089(8) 0.9839(6) 0.5512(3)
O1_2 O 0.6232(6) 0.9240(3) 0.8831(2)
O2 O 0.7416(6) 0.9535(3) 0.9316(2)
O6_2 O 0.4021(7) 0.9448(3) 0.8114(3)
O21_2 O 0.2798(6) 0.9956(3) 0.8783(2)
C1_2 C 0.6766(10) 0.9202(4) 0.9199(4)
C2_2 C 0.6563(11) 0.8765(5) 0.9486(4)
C3_2 C 0.5957(10) 0.8333(5) 0.9334(4)
H1_2 H 0.5670 0.8336 0.9047
C4_2 C 0.5793(11) 0.7922(5) 0.9601(4)
C7_2 C 0.6953(11) 0.8747(5) 0.9922(4)
C8_2 C 0.5224(12) 0.7479(6) 0.9423(5)
C17_2 C 0.4411(11) 0.9881(5) 0.7987(4)
C22_2 C 0.3833(11) 0.9784(6) 0.6770(4)
H8_2 H 0.3591 0.9538 0.6571
C23_2 C 0.3960(11) 0.9662(5) 0.7213(4)
H9_2 H 0.3781 0.9338 0.7312
C32_2 C 0.5495(14) 0.9862(8) 0.5857(6)
H15_2 H 0.6333 0.9979 0.9873
O24_2 O 0.2384(6) 0.8907(3) 0.8623(3)
O25_2 O 0.0658(6) 0.9025(3) 0.8608(3)
O35 O 0.8513(6) 0.9654(3) 0.8425(2)
F19_2 F 0.9798(18) 0.3060(5) 0.9054(10)
O31_2 O 0.9501(8) 0.0472(3) 0.9517(3)
O34_2 O 0.9579(7) 0.9745(3) 0.7841(2)
F19_3 F 0.0202(18) 0.8060(5) 0.5946(10)
O23_2 O 0.2584(6) 0.4535(3) 0.5684(2)
O30_2 O 0.2696(6) 0.5516(3) 0.7142(2)
O7_2 O 0.8070(6) 0.5629(3) 0.0341(3)
O8_2 O 0.6501(6) 0.5312(3) 0.0554(2)
C31_3 C 0.7158(10) 0.5480(5) 0.0244(4)
Pb3_3 Pb 0.64177(4) 0.573754(16) 0.620946(15)
F1_3 F 0.5226(9) 0.2575(4) 0.5970(3)
F2_3 F 0.4075(8) 0.2088(3) 0.5647(3)
F3_3 F 0.5526(8) 0.2301(3) 0.5310(3)
F4_3 F 0.6516(7) 0.2378(4) 0.4358(4)
F5_3 F 0.5761(8) 0.3044(3) 0.4565(3)
F6_3 F 0.5734(9) 0.2852(4) 0.3882(3)
F7_3 F 0.4788(13) 0.6414(4) 0.7924(4)
F8_3 F 0.4774(11) 0.6178(4) 0.8613(4)
F9_3 F 0.6326(15) 0.6424(4) 0.8323(4)
F10_3 F 0.3940(8) 0.5137(6) 0.8812(3)
F11_3 F 0.4666(11) 0.4404(5) 0.8981(4)
F12_3 F 0.3911(8) 0.4839(6) 0.9488(3)
F13_3 F 0.6810(7) 0.5701(4) 0.3820(3)
F14_3 F 0.5359(8) 0.5900(4) 0.3490(3)
F15_3 F 0.5969(9) 0.5168(4) 0.3410(3)
F16_3 F 0.5155(8) 0.4210(4) 0.3746(4)
F17_3 F 0.3670(10) 0.3969(4) 0.3963(3)
F18_3 F 0.4224(8) 0.3752(3) 0.3334(3)
F20_3 F 0.8697(17) 0.8480(4) 0.5794(5)
F21_3 F 0.9879(14) 0.8258(6) 0.5235(9)
F22_3 F 0.859(3) 0.7734(16) 0.4039(13)
F23_3 F 0.9506(17) 0.7594(7) 0.4597(7)
F24_3 F 0.9838 0.8367 0.4319
F25_3 F 0.6451(13) 0.7920(4) 0.7046(5)
F26_3 F 0.637(2) 0.7383(6) 0.6565(11)
F27_3 F 0.7698(19) 0.7938(6) 0.6625(6)
F28_3 F 0.6265(15) 0.7575(5) 0.7882(6)
F29_3 F 0.7094(13) 0.7753(6) 0.8577(5)
F30_3 F 0.5942(9) 0.8245(4) 0.8251(4)
O1_3 O 0.3768(6) 0.4240(3) 0.6169(2)
O5_3 O 0.5198(6) 0.5191(3) 0.6726(2)
O6_3 O 0.5979(7) 0.4448(3) 0.6886(3)
O9_3 O 0.5129(6) 0.5148(3) 0.5723(3)
O10_3 O 0.6445(6) 0.5599(3) 0.5399(3)
O11_2 O 0.1685(6) 0.5263(3) 0.2161(2)
O12_2 O 0.2304(6) 0.4484(3) 0.2142(2)
O13_3 O 0.8338(7) 0.5908(3) 0.6052(3)
O14_3 O 0.9732(7) 0.6319(3) 0.6321(3)
O17_3 O 0.7362(7) 0.5644(3) 0.6978(3)
O18_3 O 0.8972(7) 0.5581(3) 0.7273(2)
O21_3 O 0.7202(6) 0.4956(3) 0.6217(2)
O22_3 O 0.9461(6) 0.5138(2) 0.6367(2)
C1_3 C 0.3234(10) 0.4202(4) 0.5801(4)
C2_3 C 0.3437(11) 0.3765(5) 0.5514(4)
C3_3 C 0.4043(10) 0.3333(5) 0.5666(4)
H1_3 H 0.4330 0.3336 0.5953
C4_3 C 0.4207(11) 0.2922(5) 0.5399(4)
C5_3 C 0.3798(10) 0.2918(5) 0.4956(4)
C6_3 C 0.3196(11) 0.3335(4) 0.4798(4)
H2_3 H 0.2907 0.3332 0.4512
C7_3 C 0.3047(11) 0.3747(5) 0.5078(4)
H3_3 H 0.2670 0.4025 0.4970
C8_3 C 0.4776(12) 0.2479(6) 0.5577(5)
C9_3 C 0.3853(10) 0.2454(4) 0.4649(4)
C10_3 C 0.4699(12) 0.2346(5) 0.4356(4)
C11_3 C 0.4580(10) 0.1925(4) 0.4070(4)
H4_3 H 0.5132 0.1841 0.3876
C12_3 C 0.3684(9) 0.1638(4) 0.4069(4)
C13_3 C 0.2839(11) 0.1751(5) 0.4361(5)
H5_3 H 0.2218 0.1559 0.4359
C14_3 C 0.2955(11) 0.2149(5) 0.4649(5)
H6_3 H 0.2414 0.2219 0.4852
C15_3 C 0.3536(10) 0.1208(4) 0.3744(3)
C16_3 C 0.5665(11) 0.2665(5) 0.4292(5)
C17_3 C 0.5589(11) 0.4881(5) 0.7013(4)
C18_3 C 0.5649(10) 0.5014(5) 0.7482(4)
C19_3 C 0.5421(10) 0.5496(5) 0.7625(4)
H7_3 H 0.5173 0.5736 0.7422
C20_3 C 0.5560(12) 0.5629(6) 0.8080(4)
C21_3 C 0.5940(10) 0.5274(5) 0.8389(4)
C22_3 C 0.6167(11) 0.4784(6) 0.8230(4)
H8_3 H 0.6409 0.4538 0.8429
C23_3 C 0.6040(11) 0.4662(5) 0.7787(4)
H9_3 H 0.6219 0.4338 0.7688
C24_3 C 0.536(2) 0.6165(8) 0.8236(5)
C25_3 C 0.6183(11) 0.5377(6) 0.8881(4)
C26_3 C 0.5544(10) 0.5157(6) 0.9219(4)
C27_3 C 0.5870(11) 0.5188(5) 0.9669(4)
H10_3 H 0.5469 0.5037 0.9895
C28_3 C 0.6793(9) 0.5446(4) 0.9772(3)
C29_3 C 0.7416(11) 0.5655(6) 0.9434(4)
H11_3 H 0.8048 0.5819 0.9505
C30_3 C 0.7096(11) 0.5617(6) 0.8997(4)
H12_3 H 0.7516 0.5760 0.8774
C32_3 C 0.4505(14) 0.4862(8) 0.9143(6)
C33_3 C 0.5593(9) 0.5343(5) 0.5370(4)
C34_3 C 0.5079(11) 0.5282(5) 0.4918(4)
C35_3 C 0.5642(10) 0.5408(5) 0.4542(4)
H13_3 H 0.6333 0.5529 0.4572
C36_3 C 0.5215(10) 0.5361(6) 0.4121(4)
C37_3 C 0.4189(11) 0.5145(5) 0.4076(4)
C38_3 C 0.3643(12) 0.5007(6) 0.4459(4)
H14_3 H 0.2969 0.4866 0.4430
C39_3 C 0.4054(10) 0.5072(5) 0.4875(4)
H15_3 H 0.3667 0.4979 0.5127
C40_3 C 0.5836(13) 0.5524(7) 0.3712(5)
C41_3 C 0.3653(10) 0.5069(5) 0.3622(4)
C42_3 C 0.3620(10) 0.4590(5) 0.3413(4)
C43_3 C 0.3112(10) 0.4548(5) 0.3006(4)
H16_3 H 0.3114 0.4237 0.2860
C44_3 C 0.2600(9) 0.4954(4) 0.2806(4)
C45_3 C 0.2569(10) 0.5415(5) 0.3027(4)
H17_3 H 0.2190 0.5687 0.2908
C46_3 C 0.3110(10) 0.5465(5) 0.3426(4)
H18_3 H 0.3108 0.5778 0.3568
C47_3 C 0.2137(11) 0.4898(5) 0.2341(4)
C48_3 C 0.4169(13) 0.4134(6) 0.3611(5)
C49_3 C 0.8932(10) 0.6287(4) 0.6077(4)
C50_3 C 0.8632(11) 0.6727(5) 0.5790(4)
C51_3 C 0.9142(11) 0.7199(4) 0.5845(5)
H19_3 H 0.9713 0.7225 0.6041
C52_3 C 0.8804(17) 0.7625(6) 0.5609(6)
C53_3 C 0.8042(14) 0.7579(6) 0.5278(5)
C54_3 C 0.7563(14) 0.7120(6) 0.5227(6)
H20_3 H 0.6996 0.7091 0.5029
C55_3 C 0.7903(15) 0.6681(5) 0.5469(5)
H21_3 H 0.7616 0.6365 0.5403
C56_3 C 0.932(3) 0.8104(13) 0.5657(11)
C57_3 C 0.7602(14) 0.8030(6) 0.5023(6)
C58_3 C 0.801(2) 0.8202(8) 0.4647(8)
C59_3 C 0.7495(17) 0.8589(7) 0.4406(7)
H22_3 H 0.7742 0.8671 0.4121
C60_3 C 0.6674(11) 0.8840(5) 0.4567(5)
C61_3 C 0.6272(13) 0.8684(6) 0.4953(5)
H23_3 H 0.5655 0.8834 0.5062
C62_3 C 0.6783(17) 0.8284(8) 0.5206(6)
H24_3 H 0.6546 0.8203 0.5492
C63_3 C 0.6205(11) 0.9294(5) 0.4333(5)
C64_3 C 0.9061 0.8005 0.4425
C65_3 C 0.8165(10) 0.5825(4) 0.7182(4)
C66_3 C 0.8129(10) 0.6378(4) 0.7296(5)
C67_3 C 0.7510(15) 0.6721(6) 0.7075(7)
H25_3 H 0.7042 0.6604 0.6857
C68_3 C 0.7552(15) 0.7234(6) 0.7163(7)
C69_3 C 0.8209(12) 0.7412(5) 0.7493(5)
C70_3 C 0.8808(13) 0.7073(6) 0.7714(5)
H26_3 H 0.9263 0.7189 0.7937
C71_3 C 0.8777(11) 0.6565(5) 0.7626(4)
H27_3 H 0.9198 0.6344 0.7792
C72_3 C 0.6911 0.7600 0.6817
C73_3 C 0.8268(11) 0.7963(5) 0.7635(5)
C74_3 C 0.7721(14) 0.8176(6) 0.7972(7)
C75_3 C 0.7933(11) 0.8676(5) 0.8125(5)
H28_3 H 0.7551 0.8809 0.8365
C76_3 C 0.8703(9) 0.8964(4) 0.7920(3)
C77_3 C 0.9213(11) 0.8758(4) 0.7559(4)
H29_3 H 0.9693 0.8958 0.7401
C78_3 C 0.9039(14) 0.8255(5) 0.7418(5)
H30_3 H 0.9431 0.8118 0.7183
C79_3 C 0.8937(9) 0.9485(4) 0.8063(3)
C80_3 C 0.6781(19) 0.7935(7) 0.8151(7)
O26_2 O 0.6930(6) 0.4371(3) 0.5341(3)
O27_2 O 0.8499(6) 0.4688(3) 0.5554(2)
O28_2 O 0.3315(6) 0.4737(3) 0.7161(2)
F2_4 F 0.0925(8) 0.7912(3) 0.0647(3)
F7_4 F 0.0212(13) 0.3586(4) 0.2924(4)
F8_4 F 0.0226(11) 0.3822(4) 0.3613(4)
F10_4 F 0.1060(8) 0.4863(6) 0.3812(3)
F11_4 F 0.0334(11) 0.5596(5) 0.3981(4)
F12_4 F 0.1089(8) 0.5161(6) 0.4488(3)
O1_4 O 0.1232(6) 0.5760(3) 0.1169(2)
O2_2 O 0.2416(6) 0.5465(3) 0.0684(2)
C1_4 C 0.1766(10) 0.5798(4) 0.0801(4)
C2_4 C 0.1563(11) 0.6235(5) 0.0514(4)
C3_4 C 0.0957(10) 0.6667(5) 0.0666(4)
H1_4 H 0.0670 0.6664 0.0953
C4_4 C 0.0793(11) 0.7078(5) 0.0399(4)
C7_4 C 0.1953(11) 0.6253(5) 0.0078(4)
C8_4 C 0.0224(12) 0.7521(6) 0.0577(5)
C32_4 C 0.0495(14) 0.5138(8) 0.4143(6)
H15_4 H 0.1333 0.5021 0.0127
F17_4 F 0.1330(10) 0.6031(4) 0.8963(3)
F18_4 F 0.0776(8) 0.6248(3) 0.8334(3)
C5_4 C 0.1202(10) 0.7082(5) 0.9956(4)
C6_4 C 0.1804(11) 0.6665(4) 0.9798(4)
H2_4 H 0.2093 0.6668 0.9512
H3_4 H 0.2330 0.5975 0.9970
C9_4 C 0.1147(10) 0.7546(4) 0.9649(4)
C10_4 C 0.0301(12) 0.7654(5) 0.9356(4)
C11_4 C 0.0420(10) 0.8075(4) 0.9070(4)
C12_4 C 0.1316(9) 0.8362(4) 0.9069(4)
C13_4 C 0.2161(11) 0.8249(5) 0.9361(5)
H5_4 H 0.2782 0.8441 0.9359
C14_4 C 0.2045(11) 0.7851(5) 0.9649(5)
H6_4 H 0.2586 0.7781 0.9852
C15_4 C 0.1464(10) 0.8792(4) 0.8744(3)
C37_4 C 0.0811(11) 0.4855(5) 0.9076(4)
C38_4 C 0.1357(12) 0.4993(6) 0.9459(4)
H14_4 H 0.2031 0.5134 0.9430
C39_4 C 0.0946(10) 0.4928(5) 0.9875(4)
C41_4 C 0.1347(10) 0.4931(5) 0.8622(4)
C42_4 C 0.1380(10) 0.5410(5) 0.8413(4)
C43_4 C 0.1888(10) 0.5452(5) 0.8006(4)
H16_4 H 0.1886 0.5763 0.7860
C44_4 C 0.2400(9) 0.5046(4) 0.7806(4)
C45_4 C 0.2431(10) 0.4585(5) 0.8027(4)
H17_4 H 0.2810 0.4313 0.7908
C46_4 C 0.1890(10) 0.4535(5) 0.8426(4)
H18_4 H 0.1892 0.4222 0.8568
C47_4 C 0.2863(11) 0.5102(5) 0.7341(4)
C48_4 C 0.0831(13) 0.5866(6) 0.8611(5)
Pb3_4 Pb 0.85823(4) 0.426246(16) 0.120946(15)
F1_4 F 0.9774(9) 0.7425(4) 0.0970(3)
F3_4 F 0.9474(8) 0.7699(3) 0.0310(3)
F9_4 F 0.8674(15) 0.3576(4) 0.3323(4)
F19_4 F 0.4798(18) 0.1940(5) 0.0946(10)
F20_4 F 0.6303(17) 0.1520(4) 0.0794(5)
F21_4 F 0.5121(14) 0.1742(6) 0.0235(9)
F25_4 F 0.8549(13) 0.2080(4) 0.2046(5)
F26_4 F 0.863(2) 0.2617(6) 0.1565(11)
F27_4 F 0.7302(19) 0.2062(6) 0.1625(6)
F28_4 F 0.8735(15) 0.2425(5) 0.2882(6)
F29_4 F 0.7906(13) 0.2247(6) 0.3577(5)
F30_4 F 0.9058(9) 0.1755(4) 0.3251(4)
O5_4 O 0.9802(6) 0.4809(3) 0.1726(2)
O6_4 O 0.9021(7) 0.5552(3) 0.1886(3)
O9_4 O 0.9871(6) 0.4852(3) 0.0723(3)
O10_4 O 0.8555(6) 0.4401(3) 0.0399(3)
O13_4 O 0.6662(7) 0.4092(3) 0.1052(3)
O14_4 O 0.5268(7) 0.3681(3) 0.1321(3)
O17_4 O 0.7638(7) 0.4356(3) 0.1978(3)
O18_4 O 0.6028(7) 0.4419(3) 0.2273(2)
O21_4 O 0.7798(6) 0.5044(3) 0.1217(2)
O22_4 O 0.5539(6) 0.4862(2) 0.1367(2)
C17_4 C 0.9411(11) 0.5119(5) 0.2013(4)
C18_4 C 0.9351(10) 0.4986(5) 0.2482(4)
C19_4 C 0.9579(10) 0.4504(5) 0.2625(4)
H7_4 H 0.9827 0.4264 0.2422
C20_4 C 0.9440(12) 0.4371(6) 0.3080(4)
C21_4 C 0.9060(10) 0.4726(5) 0.3389(4)
C22_4 C 0.8833(11) 0.5216(6) 0.3230(4)
H8_4 H 0.8591 0.5462 0.3429
C23_4 C 0.8960(11) 0.5338(5) 0.2787(4)
H9_4 H 0.8781 0.5662 0.2688
C24_4 C 0.964(2) 0.3835(8) 0.3236(5)
C25_4 C 0.8817(11) 0.4623(6) 0.3881(4)
C26_4 C 0.9456(10) 0.4843(6) 0.4219(4)
C27_4 C 0.9130(11) 0.4812(5) 0.4669(4)
H10_4 H 0.9531 0.4963 0.4895
C28_4 C 0.8207(9) 0.4554(4) 0.4772(3)
C29_4 C 0.7584(11) 0.4345(6) 0.4434(4)
H11_4 H 0.6952 0.4181 0.4505
C30_4 C 0.7904(11) 0.4383(6) 0.3997(4)
H12_4 H 0.7484 0.4240 0.3774
C31_4 C 0.7842(10) 0.4520(5) 0.5244(4)
C33_4 C 0.9407(9) 0.4657(5) 0.0370(4)
C49_4 C 0.6068(10) 0.3713(4) 0.1077(4)
C50_4 C 0.6368(11) 0.3273(5) 0.0790(4)
C51_4 C 0.5858(11) 0.2801(4) 0.0845(5)
H19_4 H 0.5287 0.2775 0.1041
C52_4 C 0.6196(17) 0.2375(6) 0.0609(6)
C53_4 C 0.6958(14) 0.2421(6) 0.0278(5)
C54_4 C 0.7437(14) 0.2880(6) 0.0227(6)
H20_4 H 0.8004 0.2909 0.0029
C55_4 C 0.7097(15) 0.3319(5) 0.0469(5)
H21_4 H 0.7384 0.3635 0.0403
C56_4 C 0.568(3) 0.1896(13) 0.0657(11)
C57_4 C 0.7398(14) 0.1970(6) 0.0023(6)
H23_4 H 0.9345 0.1166 0.0062
C62_4 C 0.8217(17) 0.1716(8) 0.0206(6)
H24_4 H 0.8454 0.1797 0.0492
C65_4 C 0.6835(10) 0.4175(4) 0.2182(4)
C66_4 C 0.6871(10) 0.3622(4) 0.2296(5)
C67_4 C 0.7490(15) 0.3279(6) 0.2075(7)
H25_4 H 0.7958 0.3396 0.1857
C68_4 C 0.7448(15) 0.2766(6) 0.2163(7)
C69_4 C 0.6791(12) 0.2588(5) 0.2493(5)
C70_4 C 0.6192(13) 0.2927(6) 0.2714(5)
H26_4 H 0.5737 0.2811 0.2937
C71_4 C 0.6223(11) 0.3435(5) 0.2626(4)
H27_4 H 0.5802 0.3656 0.2792
C72_4 C 0.8089 0.2400 0.1817
C73_4 C 0.6732(11) 0.2037(5) 0.2635(5)
C74_4 C 0.7279(14) 0.1824(6) 0.2972(7)
C75_4 C 0.7067(11) 0.1324(5) 0.3125(5)
H28_4 H 0.7449 0.1191 0.3365
C76_4 C 0.6297(9) 0.1036(4) 0.2920(3)
C77_4 C 0.5787(11) 0.1242(4) 0.2559(4)
H29_4 H 0.5307 0.1042 0.2401
C78_4 C 0.5961(14) 0.1745(5) 0.2418(5)
H30_4 H 0.5569 0.1882 0.2183
C79_4 C 0.6063(9) 0.0515(4) 0.3063(3)
C80_4 C 0.8219(19) 0.2065(7) 0.3151(7)
F4_4 F 0.8484(7) 0.7622(4) 0.9358(4)
F5_4 F 0.9239(8) 0.6956(3) 0.9565(3)
F6_4 F 0.9266(9) 0.7148(4) 0.8882(3)
F13_4 F 0.8190(7) 0.4299(4) 0.8820(3)
F14_4 F 0.9641(8) 0.4100(4) 0.8490(3)
F15_4 F 0.9031(9) 0.4832(4) 0.8410(3)
F16_4 F 0.9845(8) 0.5790(4) 0.8746(4)
F22_4 F 0.641(3) 0.2266(16) 0.9039(13)
F23_4 F 0.5494(17) 0.2406(7) 0.9597(7)
F24_4 F 0.5162 0.1633 0.9319
H4_4 H 0.9868 0.8159 0.8876
C16_4 C 0.9335(11) 0.7335(5) 0.9292(5)
C34_4 C 0.9921(11) 0.4718(5) 0.9918(4)
C35_4 C 0.9358(10) 0.4592(5) 0.9542(4)
H13_4 H 0.8667 0.4471 0.9572
C36_4 C 0.9785(10) 0.4639(6) 0.9121(4)
C40_4 C 0.9164(13) 0.4476(7) 0.8712(5)
C58_4 C 0.699(2) 0.1798(8) 0.9647(8)
C59_4 C 0.7505(17) 0.1411(7) 0.9406(7)
H22_4 H 0.7258 0.1329 0.9121
C60_4 C 0.8326(11) 0.1160(5) 0.9567(5)
C61_4 C 0.8728(13) 0.1316(6) 0.9953(5)
C63_4 C 0.8795(11) 0.0706(5) 0.9333(5)
C64_4 C 0.5939 0.1995 0.9425
loop_
_geom_bond_atom_site_label_1
_geom_bond_atom_site_label_2
_geom_bond_site_symmetry_1
_geom_bond_site_symmetry_2
F4 C16 1_555 1_555
F5 C16 1_555 1_555
F6 C16 1_555 1_555
O6 Pb2 1_555 1_555
O21 Pb2 1_555 1_555
H8 C22 1_555 1_555
H9 C23 1_555 1_555
O23 Pb6 1_555 1_555
O24 Pb2 1_555 1_555
O25 Pb5 1_555 1_555
O26 Pb2 1_555 1_555
O27 Pb6 1_555 1_555
Pb5 O21 1_555 1_555
Pb5 O24 1_555 1_555
Pb5 O34 1_555 1_555
Pb6 O25 1_555 1_555
Pb6 O36 1_555 1_555
O6 C17 1_555 1_555
C22 C23 1_555 1_555
Pb3 O5 1_555 1_555
Pb4 O14 1_555 1_555
F9 C24 1_555 1_555
F13 C40 1_555 1_555
F14 C40 1_555 1_555
F15 C40 1_555 1_555
F19 C56 1_555 1_555
F20 C56 1_555 1_555
F21 C56 1_555 1_555
F22 C64 1_555 1_555
F23 C64 1_555 1_555
F24 C64 1_555 1_555
F25 C72 1_555 1_555
F26 C72 1_555 1_555
F27 C72 1_555 1_555
F28 C80 1_555 1_555
F29 C80 1_555 1_555
F30 C80 1_555 1_555
O10 Pb3 1_555 1_555
O13 Pb3 1_555 1_555
O14 C49 1_555 1_555
O15 C63 1_555 1_555
O16 C63 1_555 1_555
O17 Pb3 1_555 1_555
O18 Pb4 1_555 1_555
O19 C79 1_555 1_555
O20 C79 1_555 1_555
O22 Pb4 1_555 1_555
C19 C18 1_555 1_555
H7 C19 1_555 1_555
C20 C19 1_555 1_555
C21 C20 1_555 1_555
C24 C20 1_555 1_555
C25 C21 1_555 1_555
C26 C25 1_555 1_555
C27 C26 1_555 1_555
H10 C27 1_555 1_555
C28 C27 1_555 1_555
C29 C28 1_555 1_555
H11 C29 1_555 1_555
C30 C25 1_555 1_555
H12 C30 1_555 1_555
C33 O9 1_555 1_555
C34 C33 1_555 1_555
C35 C34 1_555 1_555
H13 C35 1_555 1_555
C36 C35 1_555 1_555
C40 C36 1_555 1_555
C49 O13 1_555 1_555
C50 C49 1_555 1_555
C51 C50 1_555 1_555
H19 C51 1_555 1_555
C52 C51 1_555 1_555
C53 C52 1_555 1_555
C54 C53 1_555 1_555
H20 C54 1_555 1_555
C55 C50 1_555 1_555
H21 C55 1_555 1_555
C56 C52 1_555 1_555
C57 C53 1_555 1_555
C58 C57 1_555 1_555
C59 C58 1_555 1_555
H22 C59 1_555 1_555
C60 C59 1_555 1_555
C61 C60 1_555 1_555
H23 C61 1_555 1_555
C62 C57 1_555 1_555
H24 C62 1_555 1_555
C63 C60 1_555 1_555
C64 C58 1_555 1_555
C65 O17 1_555 1_555
C66 C65 1_555 1_555
C67 C66 1_555 1_555
H25 C67 1_555 1_555
C68 C67 1_555 1_555
C69 C68 1_555 1_555
C70 C69 1_555 1_555
H26 C70 1_555 1_555
C71 C66 1_555 1_555
H27 C71 1_555 1_555
C72 C68 1_555 1_555
C73 C69 1_555 1_555
C74 C73 1_555 1_555
C75 C74 1_555 1_555
H28 C75 1_555 1_555
C76 C75 1_555 1_555
C77 C76 1_555 1_555
H29 C77 1_555 1_555
C78 C73 1_555 1_555
H30 C78 1_555 1_555
C79 C76 1_555 1_555
C80 C74 1_555 1_555
Pb8 O16 1_555 1_555
Pb9 O20 1_555 1_555
Pb13 O16 1_555 1_555
Pb14 O19 1_555 1_555
Pb16 O19 1_555 1_555
Pb20 O15 1_555 1_555
Pb21 O20 1_555 1_555
O30 Pb4 1_555 1_555
O33 Pb4 1_555 1_555
Pb3 O9 1_555 1_555
O10 C33 1_555 1_555
O18 C65 1_555 1_555
O20 Pb14 1_555 1_555
C29 C30 1_555 1_555
C54 C55 1_555 1_555
C61 C62 1_555 1_555
C70 C71 1_555 1_555
C77 C78 1_555 1_555
O7 C31 1_555 1_555
O8 C31 1_555 1_555
Pb10 O7 1_555 1_555
F2 C8 1_555 1_555
F11 C32 1_555 1_555
F12 C32 1_555 1_555
F17 C48 1_555 1_555
F18 C48 1_555 1_555
O1 C1 1_555 1_555
O3 C15 1_555 1_555
O4 C15 1_555 1_555
O12 C47 1_555 1_555
C1 O23 1_555 1_555
C2 C1 1_555 1_555
C3 C2 1_555 1_555
H1 C3 1_555 1_555
C4 C3 1_555 1_555
C5 C4 1_555 1_555
C6 C5 1_555 1_555
H2 C6 1_555 1_555
C7 C2 1_555 1_555
H3 C7 1_555 1_555
C8 C4 1_555 1_555
C9 C5 1_555 1_555
C10 C9 1_555 1_555
C11 C10 1_555 1_555
C12 C11 1_555 1_555
C13 C12 1_555 1_555
H5 C13 1_555 1_555
C14 C9 1_555 1_555
H6 C14 1_555 1_555
C15 C12 1_555 1_555
C43 C42 1_555 1_555
H16 C43 1_555 1_555
C44 C43 1_555 1_555
C47 C44 1_555 1_555
C48 C42 1_555 1_555
Pb11 O3 1_555 1_555
Pb12 O12 1_555 1_555
Pb15 O3 1_555 1_555
O4 Pb15 1_555 1_555
O12 Pb7 1_555 1_555
C6 C7 1_555 1_555
C13 C14 1_555 1_555
C38 C37 1_555 1_555
C41 C37 1_555 1_555
H17 C45 1_555 1_555
C46 C41 1_555 1_555
H18 C46 1_555 1_555
O30 Pb1 1_555 1_555
O33 Pb1 1_555 1_555
C38 C39 1_555 1_555
C45 C46 1_555 1_555
F13_2 C40_2 1_555 1_555
F14_2 C40_2 1_555 1_555
F15_2 C40_2 1_555 1_555
F22_2 C64_2 1_555 1_555
F23_2 C64_2 1_555 1_555
F24_2 C64_2 1_555 1_555
O15_2 C63_2 1_555 1_555
O16_2 C63_2 1_555 1_555
C35_2 C34_2 1_555 1_555
H13_2 C35_2 1_555 1_555
C36_2 C35_2 1_555 1_555
C37_2 C36_2 1_555 1_555
C38_2 C37_2 1_555 1_555
C39_2 C34_2 1_555 1_555
C40_2 C36_2 1_555 1_555
C41_2 C37_2 1_555 1_555
H17_2 C45_2 1_555 1_555
C46_2 C41_2 1_555 1_555
H18_2 C46_2 1_555 1_555
C59_2 C58_2 1_555 1_555
H22_2 C59_2 1_555 1_555
C60_2 C59_2 1_555 1_555
C61_2 C60_2 1_555 1_555
C63_2 C60_2 1_555 1_555
C64_2 C58_2 1_555 1_555
Pb9 O16_2 1_555 1_555
Pb14 O16_2 1_555 1_555
Pb21 O15_2 1_555 1_555
C38_2 C39_2 1_555 1_555
C45_2 C46_2 1_555 1_555
Pb3_2 O5_2 1_555 1_555
F7_2 C24_2 1_555 1_555
F8_2 C24_2 1_555 1_555
F9_2 C24_2 1_555 1_555
F20_2 C56_2 1_555 1_555
F21_2 C56_2 1_555 1_555
F25_2 C72_2 1_555 1_555
F26_2 C72_2 1_555 1_555
F27_2 C72_2 1_555 1_555
F28_2 C80_2 1_555 1_555
F29_2 C80_2 1_555 1_555
F30_2 C80_2 1_555 1_555
O5_2 Pb7 1_555 1_555
O26 C31_2 1_555 1_555
O27 C31_2 1_555 1_555
O10_2 Pb3_2 1_555 1_555
O13_2 Pb3_2 1_555 1_555
O14_2 C49_2 1_555 1_555
O17_2 Pb3_2 1_555 1_555
O19_2 C79_2 1_555 1_555
O20_2 C79_2 1_555 1_555
C19_2 C18_2 1_555 1_555
H7_2 C19_2 1_555 1_555
C20_2 C19_2 1_555 1_555
C21_2 C20_2 1_555 1_555
C24_2 C20_2 1_555 1_555
C25_2 C21_2 1_555 1_555
C26_2 C25_2 1_555 1_555
C27_2 C26_2 1_555 1_555
H10_2 C27_2 1_555 1_555
C28_2 C27_2 1_555 1_555
C29_2 C28_2 1_555 1_555
H11_2 C29_2 1_555 1_555
C30_2 C25_2 1_555 1_555
H12_2 C30_2 1_555 1_555
C31_2 C28_2 1_555 1_555
C33_2 O9_2 1_555 1_555
C49_2 O13_2 1_555 1_555
C50_2 C49_2 1_555 1_555
C51_2 C50_2 1_555 1_555
H19_2 C51_2 1_555 1_555
C52_2 C51_2 1_555 1_555
C53_2 C52_2 1_555 1_555
C54_2 C53_2 1_555 1_555
H20_2 C54_2 1_555 1_555
C55_2 C50_2 1_555 1_555
H21_2 C55_2 1_555 1_555
C56_2 C52_2 1_555 1_555
C57_2 C53_2 1_555 1_555
C62_2 C57_2 1_555 1_555
H24_2 C62_2 1_555 1_555
C65_2 O17_2 1_555 1_555
C66_2 C65_2 1_555 1_555
C67_2 C66_2 1_555 1_555
H25_2 C67_2 1_555 1_555
C68_2 C67_2 1_555 1_555
C69_2 C68_2 1_555 1_555
C70_2 C69_2 1_555 1_555
H26_2 C70_2 1_555 1_555
C71_2 C66_2 1_555 1_555
H27_2 C71_2 1_555 1_555
C72_2 C68_2 1_555 1_555
C73_2 C69_2 1_555 1_555
C74_2 C73_2 1_555 1_555
C75_2 C74_2 1_555 1_555
H28_2 C75_2 1_555 1_555
C76_2 C75_2 1_555 1_555
C77_2 C76_2 1_555 1_555
H29_2 C77_2 1_555 1_555
C78_2 C73_2 1_555 1_555
H30_2 C78_2 1_555 1_555
C79_2 C76_2 1_555 1_555
C80_2 C74_2 1_555 1_555
Pb8 O20_2 1_555 1_555
Pb13 O19_2 1_555 1_555
Pb20 O20_2 1_555 1_555
O32 Pb7 1_555 1_555
Pb3_2 O9_2 1_555 1_555
O10_2 C33_2 1_555 1_555
O18_2 C65_2 1_555 1_555
O20_2 Pb13 1_555 1_555
C29_2 C30_2 1_555 1_555
C54_2 C55_2 1_555 1_555
C70_2 C71_2 1_555 1_555
C77_2 C78_2 1_555 1_555
F4_2 C16_2 1_555 1_555
F5_2 C16_2 1_555 1_555
F6_2 C16_2 1_555 1_555
F16_2 C48_2 1_555 1_555
F17_2 C48_2 1_555 1_555
F18_2 C48_2 1_555 1_555
O3_2 C15_2 1_555 1_555
O4_2 C15_2 1_555 1_555
O30 C47_2 1_555 1_555
C6_2 C5_2 1_555 1_555
H2_2 C6_2 1_555 1_555
C9_2 C5_2 1_555 1_555
C10_2 C9_2 1_555 1_555
C11_2 C10_2 1_555 1_555
H4_2 C11_2 1_555 1_555
C12_2 C11_2 1_555 1_555
C13_2 C12_2 1_555 1_555
H5_2 C13_2 1_555 1_555
C14_2 C9_2 1_555 1_555
H6_2 C14_2 1_555 1_555
C15_2 C12_2 1_555 1_555
C16_2 C10_2 1_555 1_555
C43_2 C42_2 1_555 1_555
H16_2 C43_2 1_555 1_555
C44_2 C43_2 1_555 1_555
C47_2 C44_2 1_555 1_555
C48_2 C42_2 1_555 1_555
Pb11_2 O3_2 1_555 1_555
Pb16 O3_2 1_555 1_555
Pb21 O4_2 1_555 1_555
O4_2 Pb16 1_555 1_555
C13_2 C14_2 1_555 1_555
Pb10 O1_2 1_555 1_555
F1_2 C8_2 1_555 1_555
F2_2 C8_2 1_555 1_555
F3_2 C8_2 1_555 1_555
F11_2 C32_2 1_555 1_555
F12_2 C32_2 1_555 1_555
O1_2 C1_2 1_555 1_555
O6_2 Pb10 1_555 1_555
O21_2 Pb10 1_555 1_555
C1_2 O2 1_555 1_555
C2_2 C1_2 1_555 1_555
C3_2 C2_2 1_555 1_555
H1_2 C3_2 1_555 1_555
C4_2 C3_2 1_555 1_555
C7_2 C2_2 1_555 1_555
C8_2 C4_2 1_555 1_555
H8_2 C22_2 1_555 1_555
H9_2 C23_2 1_555 1_555
Pb18 O2 1_555 1_555
O24_2 Pb10 1_555 1_555
O25_2 Pb5_2 1_555 1_555
Pb5_2 O21_2 1_555 1_555
Pb5_2 O24_2 1_555 1_555
O6_2 C17_2 1_555 1_555
C22_2 C23_2 1_555 1_555
Pb18 O35 1_555 1_555
O32 Pb12 1_555 1_555
O23_2 Pb20 1_555 1_555
O30_2 Pb13 1_555 1_555
O7_2 C31_3 1_555 1_555
O8_2 C31_3 1_555 1_555
Pb11_2 O7_2 1_555 1_555
Pb21 O8_2 1_555 1_555
Pb8 O1_3 1_555 1_555
Pb11 O1_3 1_555 1_555
Pb3_3 O5_3 1_555 1_555
Pb15 O17_3 1_555 1_555
F1_3 C8_3 1_555 1_555
F2_3 C8_3 1_555 1_555
F3_3 C8_3 1_555 1_555
F4_3 C16_3 1_555 1_555
F5_3 C16_3 1_555 1_555
F6_3 C16_3 1_555 1_555
F7_3 C24_3 1_555 1_555
F8_3 C24_3 1_555 1_555
F9_3 C24_3 1_555 1_555
F10_3 C32_3 1_555 1_555
F11_3 C32_3 1_555 1_555
F12_3 C32_3 1_555 1_555
F13_3 C40_3 1_555 1_555
F14_3 C40_3 1_555 1_555
F15_3 C40_3 1_555 1_555
F16_3 C48_3 1_555 1_555
F17_3 C48_3 1_555 1_555
F18_3 C48_3 1_555 1_555
F20_3 C56_3 1_555 1_555
F21_3 C56_3 1_555 1_555
F22_3 C64_3 1_555 1_555
F23_3 C64_3 1_555 1_555
F24_3 C64_3 1_555 1_555
F25_3 C72_3 1_555 1_555
F26_3 C72_3 1_555 1_555
F27_3 C72_3 1_555 1_555
F28_3 C80_3 1_555 1_555
F29_3 C80_3 1_555 1_555
F30_3 C80_3 1_555 1_555
O1_3 C1_3 1_555 1_555
O23_2 Pb8 1_555 1_555
O24 C15_3 1_555 1_555
O25 C15_3 1_555 1_555
O5_3 Pb8 1_555 1_555
O6_3 Pb11 1_555 1_555
O9_3 Pb11 1_555 1_555
O10_3 Pb3_3 1_555 1_555
O11_2 C47_3 1_555 1_555
O12_2 C47_3 1_555 1_555
O13_3 Pb3_3 1_555 1_555
O14_3 C49_3 1_555 1_555
O31 C63_3 1_555 1_555
O33 C63_3 1_555 1_555
O17_3 Pb3_3 1_555 1_555
O34_2 C79_3 1_555 1_555
O35 C79_3 1_555 1_555
O21_3 Pb11 1_555 1_555
C1_3 O23_2 1_555 1_555
C2_3 C1_3 1_555 1_555
C3_3 C2_3 1_555 1_555
H1_3 C3_3 1_555 1_555
C4_3 C3_3 1_555 1_555
C5_3 C4_3 1_555 1_555
C6_3 C5_3 1_555 1_555
H2_3 C6_3 1_555 1_555
C7_3 C2_3 1_555 1_555
H3_3 C7_3 1_555 1_555
C8_3 C4_3 1_555 1_555
C9_3 C5_3 1_555 1_555
C10_3 C9_3 1_555 1_555
C11_3 C10_3 1_555 1_555
H4_3 C11_3 1_555 1_555
C12_3 C11_3 1_555 1_555
C13_3 C12_3 1_555 1_555
H5_3 C13_3 1_555 1_555
C14_3 C9_3 1_555 1_555
H6_3 C14_3 1_555 1_555
C15_3 C12_3 1_555 1_555
C16_3 C10_3 1_555 1_555
C17_3 O5_3 1_555 1_555
C18_3 C17_3 1_555 1_555
C19_3 C18_3 1_555 1_555
H7_3 C19_3 1_555 1_555
C20_3 C19_3 1_555 1_555
C21_3 C20_3 1_555 1_555
C22_3 C21_3 1_555 1_555
H8_3 C22_3 1_555 1_555
C23_3 C18_3 1_555 1_555
H9_3 C23_3 1_555 1_555
C24_3 C20_3 1_555 1_555
C25_3 C21_3 1_555 1_555
C26_3 C25_3 1_555 1_555
C27_3 C26_3 1_555 1_555
H10_3 C27_3 1_555 1_555
C28_3 C27_3 1_555 1_555
C29_3 C28_3 1_555 1_555
H11_3 C29_3 1_555 1_555
C30_3 C25_3 1_555 1_555
H12_3 C30_3 1_555 1_555
C32_3 C26_3 1_555 1_555
C33_3 O9_3 1_555 1_555
C34_3 C33_3 1_555 1_555
C35_3 C34_3 1_555 1_555
H13_3 C35_3 1_555 1_555
C36_3 C35_3 1_555 1_555
C37_3 C36_3 1_555 1_555
C38_3 C37_3 1_555 1_555
H14_3 C38_3 1_555 1_555
C39_3 C34_3 1_555 1_555
H15_3 C39_3 1_555 1_555
C40_3 C36_3 1_555 1_555
C41_3 C37_3 1_555 1_555
C42_3 C41_3 1_555 1_555
C43_3 C42_3 1_555 1_555
H16_3 C43_3 1_555 1_555
C44_3 C43_3 1_555 1_555
C45_3 C44_3 1_555 1_555
H17_3 C45_3 1_555 1_555
C46_3 C41_3 1_555 1_555
H18_3 C46_3 1_555 1_555
C47_3 C44_3 1_555 1_555
C48_3 C42_3 1_555 1_555
C49_3 O13_3 1_555 1_555
C50_3 C49_3 1_555 1_555
C51_3 C50_3 1_555 1_555
H19_3 C51_3 1_555 1_555
C52_3 C51_3 1_555 1_555
C53_3 C52_3 1_555 1_555
C54_3 C53_3 1_555 1_555
H20_3 C54_3 1_555 1_555
C55_3 C50_3 1_555 1_555
H21_3 C55_3 1_555 1_555
C56_3 C52_3 1_555 1_555
C57_3 C53_3 1_555 1_555
C58_3 C57_3 1_555 1_555
C59_3 C58_3 1_555 1_555
H22_3 C59_3 1_555 1_555
C60_3 C59_3 1_555 1_555
C61_3 C60_3 1_555 1_555
H23_3 C61_3 1_555 1_555
C62_3 C57_3 1_555 1_555
H24_3 C62_3 1_555 1_555
C63_3 C60_3 1_555 1_555
C64_3 C58_3 1_555 1_555
C65_3 O17_3 1_555 1_555
C66_3 C65_3 1_555 1_555
C67_3 C66_3 1_555 1_555
H25_3 C67_3 1_555 1_555
C68_3 C67_3 1_555 1_555
C69_3 C68_3 1_555 1_555
C70_3 C69_3 1_555 1_555
H26_3 C70_3 1_555 1_555
C71_3 C66_3 1_555 1_555
H27_3 C71_3 1_555 1_555
C72_3 C68_3 1_555 1_555
C73_3 C69_3 1_555 1_555
C74_3 C73_3 1_555 1_555
C75_3 C74_3 1_555 1_555
H28_3 C75_3 1_555 1_555
C76_3 C75_3 1_555 1_555
C77_3 C76_3 1_555 1_555
H29_3 C77_3 1_555 1_555
C78_3 C73_3 1_555 1_555
H30_3 C78_3 1_555 1_555
C79_3 C76_3 1_555 1_555
C80_3 C74_3 1_555 1_555
Pb9 O11_2 1_555 1_555
Pb14 O12_2 1_555 1_555
O26_2 Pb11 1_555 1_555
O28_2 Pb8 1_555 1_555
O30_2 Pb8 1_555 1_555
Pb3_3 O9_3 1_555 1_555
Pb3_3 O21_3 1_555 1_555
Pb15 O18_3 1_555 1_555
Pb15 O21_3 1_555 1_555
Pb15 O22_3 1_555 1_555
O6_3 C17_3 1_555 1_555
O10_3 C33_3 1_555 1_555
O12_2 Pb9 1_555 1_555
O18_3 C65_3 1_555 1_555
C6_3 C7_3 1_555 1_555
C13_3 C14_3 1_555 1_555
C22_3 C23_3 1_555 1_555
C29_3 C30_3 1_555 1_555
C38_3 C39_3 1_555 1_555
C45_3 C46_3 1_555 1_555
C54_3 C55_3 1_555 1_555
C61_3 C62_3 1_555 1_555
C70_3 C71_3 1_555 1_555
C77_3 C78_3 1_555 1_555
Pb9 O1_4 1_555 1_555
F2_4 C8_4 1_555 1_555
F10_4 C32_4 1_555 1_555
F11_4 C32_4 1_555 1_555
F12_4 C32_4 1_555 1_555
O1_4 C1_4 1_555 1_555
O2_2 Pb9 1_555 1_555
C1_4 O2_2 1_555 1_555
C2_4 C1_4 1_555 1_555
C3_4 C2_4 1_555 1_555
H1_4 C3_4 1_555 1_555
C4_4 C3_4 1_555 1_555
C7_4 C2_4 1_555 1_555
C8_4 C4_4 1_555 1_555
Pb21 O2_2 1_555 1_555
F17_4 C48_4 1_555 1_555
F18_4 C48_4 1_555 1_555
O24_2 C15_4 1_555 1_555
O25_2 C15_4 1_555 1_555
O28_2 C47_4 1_555 1_555
O30_2 C47_4 1_555 1_555
C6_4 C5_4 1_555 1_555
H2_4 C6_4 1_555 1_555
C9_4 C5_4 1_555 1_555
C10_4 C9_4 1_555 1_555
C11_4 C10_4 1_555 1_555
C12_4 C11_4 1_555 1_555
C13_4 C12_4 1_555 1_555
H5_4 C13_4 1_555 1_555
C14_4 C9_4 1_555 1_555
H6_4 C14_4 1_555 1_555
C15_4 C12_4 1_555 1_555
C38_4 C37_4 1_555 1_555
H14_4 C38_4 1_555 1_555
C41_4 C37_4 1_555 1_555
C42_4 C41_4 1_555 1_555
C43_4 C42_4 1_555 1_555
H16_4 C43_4 1_555 1_555
C44_4 C43_4 1_555 1_555
C45_4 C44_4 1_555 1_555
H17_4 C45_4 1_555 1_555
C46_4 C41_4 1_555 1_555
H18_4 C46_4 1_555 1_555
C47_4 C44_4 1_555 1_555
C48_4 C42_4 1_555 1_555
C13_4 C14_4 1_555 1_555
C38_4 C39_4 1_555 1_555
C45_4 C46_4 1_555 1_555
Pb3_4 O5_4 1_555 1_555
Pb14 O14_4 1_555 1_555
Pb16 O17_4 1_555 1_555
Pb21 O22_4 1_555 1_555
F9_4 C24_4 1_555 1_555
F19_4 C56_4 1_555 1_555
F20_4 C56_4 1_555 1_555
F21_4 C56_4 1_555 1_555
F25_4 C72_4 1_555 1_555
F26_4 C72_4 1_555 1_555
F27_4 C72_4 1_555 1_555
F28_4 C80_4 1_555 1_555
F29_4 C80_4 1_555 1_555
F30_4 C80_4 1_555 1_555
O6_4 Pb11_2 1_555 1_555
O26_2 C31_4 1_555 1_555
O27_2 C31_4 1_555 1_555
O9_4 Pb11_2 1_555 1_555
O10_4 Pb3_4 1_555 1_555
O13_4 Pb3_4 1_555 1_555
O14_4 C49_4 1_555 1_555
O17_4 Pb3_4 1_555 1_555
O18_4 Pb14 1_555 1_555
O34 C79_4 1_555 1_555
O36 C79_4 1_555 1_555
O21_4 Pb11_2 1_555 1_555
O22_4 Pb14 1_555 1_555
C17_4 O5_4 1_555 1_555
C18_4 C17_4 1_555 1_555
C19_4 C18_4 1_555 1_555
H7_4 C19_4 1_555 1_555
C20_4 C19_4 1_555 1_555
C21_4 C20_4 1_555 1_555
C22_4 C21_4 1_555 1_555
H8_4 C22_4 1_555 1_555
C23_4 C18_4 1_555 1_555
H9_4 C23_4 1_555 1_555
C24_4 C20_4 1_555 1_555
C25_4 C21_4 1_555 1_555
C26_4 C25_4 1_555 1_555
C27_4 C26_4 1_555 1_555
H10_4 C27_4 1_555 1_555
C28_4 C27_4 1_555 1_555
C29_4 C28_4 1_555 1_555
H11_4 C29_4 1_555 1_555
C30_4 C25_4 1_555 1_555
H12_4 C30_4 1_555 1_555
C31_4 C28_4 1_555 1_555
C33_4 O9_4 1_555 1_555
C49_4 O13_4 1_555 1_555
C50_4 C49_4 1_555 1_555
C51_4 C50_4 1_555 1_555
H19_4 C51_4 1_555 1_555
C52_4 C51_4 1_555 1_555
C53_4 C52_4 1_555 1_555
C54_4 C53_4 1_555 1_555
H20_4 C54_4 1_555 1_555
C55_4 C50_4 1_555 1_555
H21_4 C55_4 1_555 1_555
C56_4 C52_4 1_555 1_555
C57_4 C53_4 1_555 1_555
C62_4 C57_4 1_555 1_555
H24_4 C62_4 1_555 1_555
C65_4 O17_4 1_555 1_555
C66_4 C65_4 1_555 1_555
C67_4 C66_4 1_555 1_555
H25_4 C67_4 1_555 1_555
C68_4 C67_4 1_555 1_555
C69_4 C68_4 1_555 1_555
C70_4 C69_4 1_555 1_555
H26_4 C70_4 1_555 1_555
C71_4 C66_4 1_555 1_555
H27_4 C71_4 1_555 1_555
C72_4 C68_4 1_555 1_555
C73_4 C69_4 1_555 1_555
C74_4 C73_4 1_555 1_555
C75_4 C74_4 1_555 1_555
H28_4 C75_4 1_555 1_555
C76_4 C75_4 1_555 1_555
C77_4 C76_4 1_555 1_555
H29_4 C77_4 1_555 1_555
C78_4 C73_4 1_555 1_555
H30_4 C78_4 1_555 1_555
C79_4 C76_4 1_555 1_555
C80_4 C74_4 1_555 1_555
Pb3_4 O9_4 1_555 1_555
Pb3_4 O21_4 1_555 1_555
Pb16 O18_4 1_555 1_555
Pb16 O21_4 1_555 1_555
Pb16 O22_4 1_555 1_555
O6_4 C17_4 1_555 1_555
O10_4 C33_4 1_555 1_555
O18_4 C65_4 1_555 1_555
C22_4 C23_4 1_555 1_555
C29_4 C30_4 1_555 1_555
C54_4 C55_4 1_555 1_555
C70_4 C71_4 1_555 1_555
C77_4 C78_4 1_555 1_555
F4_4 C16_4 1_555 1_555
F5_4 C16_4 1_555 1_555
F6_4 C16_4 1_555 1_555
F13_4 C40_4 1_555 1_555
F14_4 C40_4 1_555 1_555
F15_4 C40_4 1_555 1_555
F22_4 C64_4 1_555 1_555
F23_4 C64_4 1_555 1_555
F24_4 C64_4 1_555 1_555
O31_2 C63_4 1_555 1_555
O32 C63_4 1_555 1_555
C35_4 C34_4 1_555 1_555
H13_4 C35_4 1_555 1_555
C36_4 C35_4 1_555 1_555
C40_4 C36_4 1_555 1_555
C59_4 C58_4 1_555 1_555
H22_4 C59_4 1_555 1_555
C60_4 C59_4 1_555 1_555
C61_4 C60_4 1_555 1_555
C63_4 C60_4 1_555 1_555
C64_4 C58_4 1_555 1_555

#END
