
###############################################################################
#
# This file contains modified crystal structure data generated from the
# MOF subset of the Cambridge Structural Database (CSD) v543 
# hosted by the Cambridge Crystallographic Data Centre (CCDC).
#
# This work is licensed under the Creative Commons
# Attribution-NonCommercial-ShareAlike 4.0 International License.
# To view a copy of this license, visit
# http://creativecommons.org/licenses/by-nc-sa/4.0/
# or send a letter to
# Creative Commons, PO Box 1866, Mountain View, CA 94042, USA.
#
# CIF created using the CSD Python API on 29 September 2022
# The structure has been converted into the P1 space group
# The structure has a 3D framework
# The original CSD entry SOLHOT is in the tetragonal crystal system
# The framework has been calculated to contain at least 10.0% void space
# The void calculation uses a probe of radius 1.32A, grid spacing 0.4
# H atom positions have been added when not included in the experimental data
#
###############################################################################

data_SOLHOT
_chemical_formula_moiety         '(C112 H144 O112 Zr34)n'
_symmetry_cell_setting           triclinic
_symmetry_space_group_name_H-M   'P 1'
_symmetry_Int_Tables_number      1
_space_group_name_Hall           'P 1'
loop_
_symmetry_equiv_pos_site_id
_symmetry_equiv_pos_as_xyz
1 x,y,z
_cell_length_a                   20.39214(80)
_cell_length_b                   20.39214(80)
_cell_length_c                   10.17787(50)
_cell_angle_alpha                90
_cell_angle_beta                 90
_cell_angle_gamma                90
_cell_volume                     4232.36
loop_
_atom_site_label
_atom_site_type_symbol
_atom_site_fract_x
_atom_site_fract_y
_atom_site_fract_z
_atom_site_U_iso_or_equiv
_atom_site_thermal_displace_type
Zr9 Zr 0.06735(17) 0.10142(15) 0.000 0.0181 Uiso
Zr11 Zr 0.39858(15) 0.43265(17) 0.000 0.0181 Uiso
Zr1 Zr -0.000 -0.000 0.750 0.0181 Uiso
Zr2 Zr 0.10142(15) 0.06735(17) 0.500 0.0181 Uiso
O2 O 0.15424(67) 0.10105(49) 0.66814(80) 0.0236 Uiso
O3 O 0.19611(44) 0.01571(53) 0.500 0.0236 Uiso
O4 O 0.09541(55) 0.17627(40) 0.500 0.0236 Uiso
C1 C 0.14839(44) 0.14839(44) 0.750 0.0176 Uiso
C3 C 0.20119(46) 0.20119(46) 0.750 0.0176 Uiso
C5 C 0.25388(45) 0.19856(57) 0.6656(11) 0.0176 Uiso
O8 O 0.01612(48) 0.07928(62) 0.62531(79) 0.0236 Uiso
O11 O 0.07928(62) 0.01612(48) 0.87469(79) 0.0236 Uiso
Zr9_2 Zr 0.06735(17) 0.10142(15) 1.000 0.0181 Uiso
O12 O 0.01612(48) 0.07928(62) 0.37469(79) 0.0236 Uiso
O14 O 0.15424(67) 0.10105(49) 0.33186(80) 0.0236 Uiso
O30 O 0.10105(49) 0.15424(67) 0.83186(80) 0.0236 Uiso
C6 C 0.04518(75) 0.21448(62) 0.500 0.0176 Uiso
C10 C 0.05838(90) 0.28699(62) 0.500 0.0176 Uiso
C14 C 0.19856(57) 0.25388(45) 0.8344(11) 0.0176 Uiso
C17 C 0.30144(57) 0.24612(45) 0.6656(11) 0.0176 Uiso
C18 C 0.24612(45) 0.30144(57) 0.8344(11) 0.0176 Uiso
C21 C 0.29881(46) 0.29881(46) 0.750 0.0176 Uiso
C23 C 0.35161(44) 0.35161(44) 0.750 0.0176 Uiso
O31 O 0.39895(49) 0.34576(67) 0.66814(80) 0.0236 Uiso
O32 O 0.34576(67) 0.39895(49) 0.83186(80) 0.0236 Uiso
Zr10 Zr 0.43265(17) 0.39858(15) 0.500 0.0181 Uiso
Zr11_2 Zr 0.39858(15) 0.43265(17) 1.000 0.0181 Uiso
H4 H 0.342288 0.242103 0.597151 . .
H5 H 0.242103 0.342288 0.902849 . .
H6 H 0.257897 0.157712 0.597151 . .
H13 H 0.0863355 0.299994 0.412637 . .
H14 H 0.0120335 0.313521 0.5 . .
H15 H 0.0863355 0.299994 0.587363 . .
H16 H 0.157712 0.257897 0.902849 . .
Zr8 Zr 0.10142(15) 0.93265(17) 0.000 0.0181 Uiso
Zr1_2 Zr -0.000 1.000 0.750 0.0181 Uiso
O1 O 0.07928(62) 0.98388(48) 0.62531(79) 0.0236 Uiso
C2 C 0.21448(62) 0.95482(75) 0.500 0.0176 Uiso
C4 C 0.28699(62) 0.94162(90) 0.500 0.0176 Uiso
O7 O 0.01612(48) 0.92072(62) 0.87469(79) 0.0236 Uiso
Zr3 Zr 0.06735(17) 0.89858(15) 0.500 0.0181 Uiso
Zr8_2 Zr 0.10142(15) 0.93265(17) 1.000 0.0181 Uiso
O13 O 0.07928(62) 0.98388(48) 0.37469(79) 0.0236 Uiso
O15 O 0.17627(40) 0.90459(55) 0.500 0.0236 Uiso
O16 O 0.01571(53) 0.80389(44) 0.500 0.0236 Uiso
O18 O 0.10105(49) 0.84576(67) 0.33186(80) 0.0236 Uiso
O19 O 0.10105(49) 0.84576(67) 0.66814(80) 0.0236 Uiso
H7 H 0.309012 0.963199 0.587363 . .
H8 H 0.295486 0.888897 0.5 . .
H9 H 0.309012 0.963199 0.412637 . .
Zr6 Zr 0.89858(15) 0.06735(17) 0.000 0.0181 Uiso
Zr1_3 Zr 1.000 -0.000 0.750 0.0181 Uiso
O5 O 0.92072(62) 0.01612(48) 0.62531(79) 0.0236 Uiso
O10 O 0.98388(48) 0.07928(62) 0.87469(79) 0.0236 Uiso
Zr5 Zr 0.93265(17) 0.10142(15) 0.500 0.0181 Uiso
Zr6_2 Zr 0.89858(15) 0.06735(17) 1.000 0.0181 Uiso
O23 O 0.92072(62) 0.01612(48) 0.37469(79) 0.0236 Uiso
O25 O 0.82373(40) 0.09541(55) 0.500 0.0236 Uiso
O26 O 0.98429(53) 0.19611(44) 0.500 0.0236 Uiso
O27 O 0.89895(49) 0.15424(67) 0.33186(80) 0.0236 Uiso
O28 O 0.89895(49) 0.15424(67) 0.66814(80) 0.0236 Uiso
C9 C 0.78552(62) 0.04518(75) 0.500 0.0176 Uiso
C13 C 0.71301(62) 0.05838(90) 0.500 0.0176 Uiso
H17 H 0.690988 0.0368008 0.587363 . .
H18 H 0.704514 0.111103 0.5 . .
H19 H 0.690988 0.0368008 0.412637 . .
Zr7 Zr 0.93265(17) 0.89858(15) 0.000 0.0181 Uiso
Zr13 Zr 0.60142(15) 0.56735(17) 0.000 0.0181 Uiso
Zr1_4 Zr 1.000 1.000 0.750 0.0181 Uiso
O6 O 0.92072(62) 0.98388(48) 0.87469(79) 0.0236 Uiso
O9 O 0.98388(48) 0.92072(62) 0.62531(79) 0.0236 Uiso
Zr4 Zr 0.89858(15) 0.93265(17) 0.500 0.0181 Uiso
Zr7_2 Zr 0.93265(17) 0.89858(15) 1.000 0.0181 Uiso
O17 O 0.98388(48) 0.92072(62) 0.37469(79) 0.0236 Uiso
O20 O 0.84576(67) 0.89895(49) 0.66814(80) 0.0236 Uiso
O21 O 0.80389(44) 0.98429(53) 0.500 0.0236 Uiso
O22 O 0.90459(55) 0.82373(40) 0.500 0.0236 Uiso
O24 O 0.84576(67) 0.89895(49) 0.33186(80) 0.0236 Uiso
O29 O 0.89895(49) 0.84576(67) 0.83186(80) 0.0236 Uiso
C7 C 0.95482(75) 0.78552(62) 0.500 0.0176 Uiso
C8 C 0.85161(44) 0.85161(44) 0.750 0.0176 Uiso
C11 C 0.94162(90) 0.71301(62) 0.500 0.0176 Uiso
C12 C 0.79881(46) 0.79881(46) 0.750 0.0176 Uiso
C15 C 0.74612(45) 0.80144(57) 0.6656(11) 0.0176 Uiso
C16 C 0.80144(57) 0.74612(45) 0.8344(11) 0.0176 Uiso
C19 C 0.69856(57) 0.75388(45) 0.6656(11) 0.0176 Uiso
C20 C 0.75388(45) 0.69856(57) 0.8344(11) 0.0176 Uiso
C22 C 0.70119(46) 0.70119(46) 0.750 0.0176 Uiso
C24 C 0.64839(44) 0.64839(44) 0.750 0.0176 Uiso
O33 O 0.60105(49) 0.65424(67) 0.66814(80) 0.0236 Uiso
O34 O 0.65424(67) 0.60105(49) 0.83186(80) 0.0236 Uiso
Zr12 Zr 0.56735(17) 0.60142(15) 0.500 0.0181 Uiso
Zr13_2 Zr 0.60142(15) 0.56735(17) 1.000 0.0181 Uiso
H1 H 0.657712 0.757897 0.597151 . .
H2 H 0.757897 0.657712 0.902849 . .
H3 H 0.842288 0.742103 0.902849 . .
H10 H 0.963199 0.690988 0.587363 . .
H11 H 0.888897 0.704514 0.5 . .
H12 H 0.963199 0.690988 0.412637 . .
H20 H 0.742103 0.842288 0.597151 . .
H10_2 H 0.0368008 0.309012 0.587363 . .
H11_2 H 0.111103 0.295486 0.5 . .
H12_2 H 0.0368008 0.309012 0.412637 . .
H13_2 H 0.913665 0.700006 0.412637 . .
H14_2 H 0.987967 0.686479 0.5 . .
H15_2 H 0.913665 0.700006 0.587363 . .
O23_2 O 0.07928(62) 0.01612(48) 0.12531(79) 0.0236 Uiso
O25_2 O 0.17627(40) 0.09541(55) -0.000 0.0236 Uiso
O26_2 O 0.01571(53) 0.19611(44) -0.000 0.0236 Uiso
O27_2 O 0.10105(49) 0.15424(67) 0.16814(80) 0.0236 Uiso
C9_2 C 0.21448(62) 0.04518(75) -0.000 0.0176 Uiso
C13_2 C 0.28699(62) 0.05838(90) -0.000 0.0176 Uiso
H18_2 H 0.295486 0.111103 -1.11022e-16 . .
H19_2 H 0.309012 0.0368008 0.0873626 . .
O25_3 O 0.17627(40) 0.09541(55) 1.000 0.0236 Uiso
O26_3 O 0.01571(53) 0.19611(44) 1.000 0.0236 Uiso
C9_3 C 0.21448(62) 0.04518(75) 1.000 0.0176 Uiso
C13_3 C 0.28699(62) 0.05838(90) 1.000 0.0176 Uiso
H17_2 H 0.309012 0.0368008 0.912637 . .
H18_3 H 0.295486 0.111103 1 . .
O17_2 O 0.01612(48) 0.92072(62) 0.12531(79) 0.0236 Uiso
O21_2 O 0.19611(44) 0.98429(53) -0.000 0.0236 Uiso
O22_2 O 0.09541(55) 0.82373(40) -0.000 0.0236 Uiso
O24_2 O 0.15424(67) 0.89895(49) 0.16814(80) 0.0236 Uiso
C7_2 C 0.04518(75) 0.78552(62) -0.000 0.0176 Uiso
C11_2 C 0.05838(90) 0.71301(62) -0.000 0.0176 Uiso
Zr12_2 Zr 0.43265(17) 0.60142(15) -0.000 0.0181 Uiso
H11_3 H 0.111103 0.704514 -1.11022e-16 . .
H12_3 H 0.0368008 0.690988 0.0873626 . .
O20_2 O 0.15424(67) 0.89895(49) 0.83186(80) 0.0236 Uiso
O21_3 O 0.19611(44) 0.98429(53) 1.000 0.0236 Uiso
O22_3 O 0.09541(55) 0.82373(40) 1.000 0.0236 Uiso
C7_3 C 0.04518(75) 0.78552(62) 1.000 0.0176 Uiso
C8_2 C 0.14839(44) 0.85161(44) 0.750 0.0176 Uiso
C11_3 C 0.05838(90) 0.71301(62) 1.000 0.0176 Uiso
C12_2 C 0.20119(46) 0.79881(46) 0.750 0.0176 Uiso
C15_2 C 0.25388(45) 0.80144(57) 0.8344(11) 0.0176 Uiso
C16_2 C 0.19856(57) 0.74612(45) 0.6656(11) 0.0176 Uiso
C19_2 C 0.30144(57) 0.75388(45) 0.8344(11) 0.0176 Uiso
C20_2 C 0.24612(45) 0.69856(57) 0.6656(11) 0.0176 Uiso
C22_2 C 0.29881(46) 0.70119(46) 0.750 0.0176 Uiso
C24_2 C 0.35161(44) 0.64839(44) 0.750 0.0176 Uiso
O33_2 O 0.39895(49) 0.65424(67) 0.83186(80) 0.0236 Uiso
O34_2 O 0.34576(67) 0.60105(49) 0.66814(80) 0.0236 Uiso
Zr12_3 Zr 0.43265(17) 0.60142(15) 1.000 0.0181 Uiso
Zr13_3 Zr 0.39858(15) 0.56735(17) 0.500 0.0181 Uiso
H1_2 H 0.342288 0.757897 0.902849 . .
H2_2 H 0.242103 0.657712 0.597151 . .
H3_2 H 0.157712 0.742103 0.597151 . .
H10_3 H 0.0368008 0.690988 0.912637 . .
H11_4 H 0.111103 0.704514 1 . .
H20_2 H 0.257897 0.842288 0.902849 . .
O3_2 O 0.80389(44) 0.01571(53) -0.000 0.0236 Uiso
O4_2 O 0.90459(55) 0.17627(40) -0.000 0.0236 Uiso
O12_2 O 0.98388(48) 0.07928(62) 0.12531(79) 0.0236 Uiso
O14_2 O 0.84576(67) 0.10105(49) 0.16814(80) 0.0236 Uiso
C6_2 C 0.95482(75) 0.21448(62) -0.000 0.0176 Uiso
C10_2 C 0.94162(90) 0.28699(62) -0.000 0.0176 Uiso
Zr10_2 Zr 0.56735(17) 0.39858(15) -0.000 0.0181 Uiso
H13_3 H 0.913665 0.299994 0.0873626 . .
H14_3 H 0.987967 0.313521 -1.11022e-16 . .
O2_2 O 0.84576(67) 0.10105(49) 0.83186(80) 0.0236 Uiso
O3_3 O 0.80389(44) 0.01571(53) 1.000 0.0236 Uiso
O4_3 O 0.90459(55) 0.17627(40) 1.000 0.0236 Uiso
C1_2 C 0.85161(44) 0.14839(44) 0.750 0.0176 Uiso
C3_2 C 0.79881(46) 0.20119(46) 0.750 0.0176 Uiso
C5_2 C 0.74612(45) 0.19856(57) 0.8344(11) 0.0176 Uiso
C6_3 C 0.95482(75) 0.21448(62) 1.000 0.0176 Uiso
C10_3 C 0.94162(90) 0.28699(62) 1.000 0.0176 Uiso
C14_2 C 0.80144(57) 0.25388(45) 0.6656(11) 0.0176 Uiso
C17_2 C 0.69856(57) 0.24612(45) 0.8344(11) 0.0176 Uiso
C18_2 C 0.75388(45) 0.30144(57) 0.6656(11) 0.0176 Uiso
C21_2 C 0.70119(46) 0.29881(46) 0.750 0.0176 Uiso
C23_2 C 0.64839(44) 0.35161(44) 0.750 0.0176 Uiso
O31_2 O 0.60105(49) 0.34576(67) 0.83186(80) 0.0236 Uiso
O32_2 O 0.65424(67) 0.39895(49) 0.66814(80) 0.0236 Uiso
Zr10_3 Zr 0.56735(17) 0.39858(15) 1.000 0.0181 Uiso
Zr11_3 Zr 0.60142(15) 0.43265(17) 0.500 0.0181 Uiso
H4_2 H 0.657712 0.242103 0.902849 . .
H5_2 H 0.757897 0.342288 0.597151 . .
H6_2 H 0.742103 0.157712 0.902849 . .
H14_4 H 0.987967 0.313521 1 . .
H15_3 H 0.913665 0.299994 0.912637 . .
H16_2 H 0.842288 0.257897 0.597151 . .
C2_2 C 0.78552(62) 0.95482(75) -0.000 0.0176 Uiso
C4_2 C 0.71301(62) 0.94162(90) -0.000 0.0176 Uiso
O13_2 O 0.92072(62) 0.98388(48) 0.12531(79) 0.0236 Uiso
O15_2 O 0.82373(40) 0.90459(55) -0.000 0.0236 Uiso
O16_2 O 0.98429(53) 0.80389(44) -0.000 0.0236 Uiso
O18_2 O 0.89895(49) 0.84576(67) 0.16814(80) 0.0236 Uiso
H8_2 H 0.704514 0.888897 -1.11022e-16 . .
H9_2 H 0.690988 0.963199 0.0873626 . .
C2_3 C 0.78552(62) 0.95482(75) 1.000 0.0176 Uiso
C4_3 C 0.71301(62) 0.94162(90) 1.000 0.0176 Uiso
O15_3 O 0.82373(40) 0.90459(55) 1.000 0.0236 Uiso
O16_3 O 0.98429(53) 0.80389(44) 1.000 0.0236 Uiso
H7_2 H 0.690988 0.963199 0.912637 . .
H8_3 H 0.704514 0.888897 1 . .
H18_4 H 0.888897 0.295486 -1.11022e-16 . .
H19_3 H 0.963199 0.309012 0.0873626 . .
H17_3 H 0.963199 0.309012 0.912637 . .
H18_5 H 0.888897 0.295486 1 . .
H13_4 H 0.700006 0.913665 0.0873626 . .
H14_5 H 0.686479 0.987967 -1.11022e-16 . .
H14_6 H 0.686479 0.987967 1 . .
H15_4 H 0.700006 0.913665 0.912637 . .
H13_5 H 0.700006 0.0863355 0.412637 . .
H14_7 H 0.686479 0.0120335 0.5 . .
H15_5 H 0.700006 0.0863355 0.587363 . .
H13_6 H 0.299994 0.913665 0.412637 . .
H14_8 H 0.313521 0.987967 0.5 . .
H15_6 H 0.299994 0.913665 0.587363 . .
H13_7 H 0.299994 0.0863355 0.0873626 . .
H14_9 H 0.313521 0.0120335 -1.11022e-16 . .
H14_10 H 0.313521 0.0120335 1 . .
H15_7 H 0.299994 0.0863355 0.912637 . .
H13_8 H 0.0863355 0.700006 0.0873626 . .
H14_11 H 0.0120335 0.686479 -1.11022e-16 . .
H14_12 H 0.0120335 0.686479 1 . .
H15_8 H 0.0863355 0.700006 0.912637 . .
Zr1_5 Zr 0.500 0.500 0.250 0.0181 Uiso
O1_2 O 0.42072(62) 0.51612(48) 0.12531(79) 0.0236 Uiso
O2_3 O 0.34576(67) 0.39895(49) 0.16814(80) 0.0236 Uiso
O3_4 O 0.30389(44) 0.48429(53) 0.000 0.0236 Uiso
O4_4 O 0.40459(55) 0.32373(40) 0.000 0.0236 Uiso
C1_3 C 0.35161(44) 0.35161(44) 0.250 0.0176 Uiso
C2_4 C 0.28552(62) 0.54518(75) 0.000 0.0176 Uiso
C3_3 C 0.29881(46) 0.29881(46) 0.250 0.0176 Uiso
C4_4 C 0.21301(62) 0.55838(90) 0.000 0.0176 Uiso
C5_3 C 0.24612(45) 0.30144(57) 0.1656(11) 0.0176 Uiso
O5_2 O 0.57928(62) 0.48388(48) 0.12531(79) 0.0236 Uiso
O6_2 O 0.57928(62) 0.51612(48) 0.37469(79) 0.0236 Uiso
O7_2 O 0.48388(48) 0.57928(62) 0.37469(79) 0.0236 Uiso
O8_2 O 0.48388(48) 0.42072(62) 0.12531(79) 0.0236 Uiso
O9_2 O 0.51612(48) 0.57928(62) 0.12531(79) 0.0236 Uiso
O10_2 O 0.51612(48) 0.42072(62) 0.37469(79) 0.0236 Uiso
O11_2 O 0.42072(62) 0.48388(48) 0.37469(79) 0.0236 Uiso
O15_4 O 0.32373(40) 0.59541(55) 0.000 0.0236 Uiso
O16_4 O 0.48429(53) 0.69611(44) 0.000 0.0236 Uiso
O19_2 O 0.39895(49) 0.65424(67) 0.16814(80) 0.0236 Uiso
O20_3 O 0.65424(67) 0.60105(49) 0.16814(80) 0.0236 Uiso
O21_4 O 0.69611(44) 0.51571(53) 0.000 0.0236 Uiso
O22_4 O 0.59541(55) 0.67627(40) 0.000 0.0236 Uiso
O25_4 O 0.67627(40) 0.40459(55) 0.000 0.0236 Uiso
O26_4 O 0.51571(53) 0.30389(44) 0.000 0.0236 Uiso
O28_2 O 0.60105(49) 0.34576(67) 0.16814(80) 0.0236 Uiso
O29_2 O 0.60105(49) 0.65424(67) 0.33186(80) 0.0236 Uiso
O30_2 O 0.39895(49) 0.34576(67) 0.33186(80) 0.0236 Uiso
C6_4 C 0.45482(75) 0.28552(62) 0.000 0.0176 Uiso
C7_4 C 0.54518(75) 0.71448(62) 0.000 0.0176 Uiso
C8_3 C 0.64839(44) 0.64839(44) 0.250 0.0176 Uiso
C9_4 C 0.71448(62) 0.45482(75) 0.000 0.0176 Uiso
C10_4 C 0.44162(90) 0.21301(62) 0.000 0.0176 Uiso
C11_4 C 0.55838(90) 0.78699(62) 0.000 0.0176 Uiso
C12_3 C 0.70119(46) 0.70119(46) 0.250 0.0176 Uiso
C13_4 C 0.78699(62) 0.44162(90) 0.000 0.0176 Uiso
C14_3 C 0.30144(57) 0.24612(45) 0.3344(11) 0.0176 Uiso
C15_3 C 0.75388(45) 0.69856(57) 0.1656(11) 0.0176 Uiso
C16_3 C 0.69856(57) 0.75388(45) 0.3344(11) 0.0176 Uiso
C17_3 C 0.19856(57) 0.25388(45) 0.1656(11) 0.0176 Uiso
C18_3 C 0.25388(45) 0.19856(57) 0.3344(11) 0.0176 Uiso
C19_3 C 0.80144(57) 0.74612(45) 0.1656(11) 0.0176 Uiso
C20_3 C 0.74612(45) 0.80144(57) 0.3344(11) 0.0176 Uiso
C21_3 C 0.20119(46) 0.20119(46) 0.250 0.0176 Uiso
C22_3 C 0.79881(46) 0.79881(46) 0.250 0.0176 Uiso
C23_3 C 0.14839(44) 0.14839(44) 0.250 0.0176 Uiso
C24_3 C 0.85161(44) 0.85161(44) 0.250 0.0176 Uiso
H1_3 H 0.842288 0.742103 0.0971505 . .
H2_3 H 0.742103 0.842288 0.402849 . .
H3_3 H 0.657712 0.757897 0.402849 . .
H4_3 H 0.157712 0.257897 0.0971505 . .
H5_3 H 0.257897 0.157712 0.402849 . .
H6_3 H 0.242103 0.342288 0.0971505 . .
H7_3 H 0.190988 0.536801 0.0873626 . .
H8_4 H 0.204514 0.611103 1.11022e-16 . .
H10_4 H 0.536801 0.809012 0.0873626 . .
H11_5 H 0.611103 0.795486 1.11022e-16 . .
H14_13 H 0.487967 0.186479 1.11022e-16 . .
H15_9 H 0.413665 0.200006 0.0873626 . .
H16_3 H 0.342288 0.242103 0.402849 . .
H17_4 H 0.809012 0.463199 0.0873626 . .
H18_6 H 0.795486 0.388897 1.11022e-16 . .
H20_3 H 0.757897 0.657712 0.0971505 . .
O3_5 O 0.30389(44) 0.48429(53) 1.000 0.0236 Uiso
O4_5 O 0.40459(55) 0.32373(40) 1.000 0.0236 Uiso
C2_5 C 0.28552(62) 0.54518(75) 1.000 0.0176 Uiso
C4_5 C 0.21301(62) 0.55838(90) 1.000 0.0176 Uiso
O12_3 O 0.48388(48) 0.42072(62) 0.87469(79) 0.0236 Uiso
O13_3 O 0.42072(62) 0.51612(48) 0.87469(79) 0.0236 Uiso
O15_5 O 0.32373(40) 0.59541(55) 1.000 0.0236 Uiso
O16_5 O 0.48429(53) 0.69611(44) 1.000 0.0236 Uiso
O17_3 O 0.51612(48) 0.57928(62) 0.87469(79) 0.0236 Uiso
O21_5 O 0.69611(44) 0.51571(53) 1.000 0.0236 Uiso
O22_5 O 0.59541(55) 0.67627(40) 1.000 0.0236 Uiso
O23_3 O 0.57928(62) 0.48388(48) 0.87469(79) 0.0236 Uiso
O25_5 O 0.67627(40) 0.40459(55) 1.000 0.0236 Uiso
O26_5 O 0.51571(53) 0.30389(44) 1.000 0.0236 Uiso
C6_5 C 0.45482(75) 0.28552(62) 1.000 0.0176 Uiso
C7_5 C 0.54518(75) 0.71448(62) 1.000 0.0176 Uiso
C9_5 C 0.71448(62) 0.45482(75) 1.000 0.0176 Uiso
C10_5 C 0.44162(90) 0.21301(62) 1.000 0.0176 Uiso
C11_5 C 0.55838(90) 0.78699(62) 1.000 0.0176 Uiso
C13_5 C 0.78699(62) 0.44162(90) 1.000 0.0176 Uiso
H8_5 H 0.204514 0.611103 1 . .
H9_3 H 0.190988 0.536801 0.912637 . .
H11_6 H 0.611103 0.795486 1 . .
H12_4 H 0.536801 0.809012 0.912637 . .
H13_9 H 0.413665 0.200006 0.912637 . .
H14_14 H 0.487967 0.186479 1 . .
H18_7 H 0.795486 0.388897 1 . .
H19_4 H 0.809012 0.463199 0.912637 . .
O2_4 O 0.34576(67) 0.60105(49) 0.33186(80) 0.0236 Uiso
O3_6 O 0.30389(44) 0.51571(53) 0.500 0.0236 Uiso
O4_6 O 0.40459(55) 0.67627(40) 0.500 0.0236 Uiso
C1_4 C 0.35161(44) 0.64839(44) 0.250 0.0176 Uiso
C2_6 C 0.28552(62) 0.45482(75) 0.500 0.0176 Uiso
C3_4 C 0.29881(46) 0.70119(46) 0.250 0.0176 Uiso
C4_6 C 0.21301(62) 0.44162(90) 0.500 0.0176 Uiso
C5_4 C 0.24612(45) 0.69856(57) 0.3344(11) 0.0176 Uiso
O12_4 O 0.48388(48) 0.57928(62) 0.62531(79) 0.0236 Uiso
O13_4 O 0.42072(62) 0.48388(48) 0.62531(79) 0.0236 Uiso
O15_6 O 0.32373(40) 0.40459(55) 0.500 0.0236 Uiso
O16_6 O 0.48429(53) 0.30389(44) 0.500 0.0236 Uiso
O17_4 O 0.51612(48) 0.42072(62) 0.62531(79) 0.0236 Uiso
O20_4 O 0.65424(67) 0.39895(49) 0.33186(80) 0.0236 Uiso
O21_6 O 0.69611(44) 0.48429(53) 0.500 0.0236 Uiso
O22_6 O 0.59541(55) 0.32373(40) 0.500 0.0236 Uiso
O23_4 O 0.57928(62) 0.51612(48) 0.62531(79) 0.0236 Uiso
O25_6 O 0.67627(40) 0.59541(55) 0.500 0.0236 Uiso
O26_6 O 0.51571(53) 0.69611(44) 0.500 0.0236 Uiso
C6_6 C 0.45482(75) 0.71448(62) 0.500 0.0176 Uiso
C7_6 C 0.54518(75) 0.28552(62) 0.500 0.0176 Uiso
C8_4 C 0.64839(44) 0.35161(44) 0.250 0.0176 Uiso
C9_6 C 0.71448(62) 0.54518(75) 0.500 0.0176 Uiso
C10_6 C 0.44162(90) 0.78699(62) 0.500 0.0176 Uiso
C11_6 C 0.55838(90) 0.21301(62) 0.500 0.0176 Uiso
C12_4 C 0.70119(46) 0.29881(46) 0.250 0.0176 Uiso
C13_6 C 0.78699(62) 0.55838(90) 0.500 0.0176 Uiso
C14_4 C 0.30144(57) 0.75388(45) 0.1656(11) 0.0176 Uiso
C15_4 C 0.75388(45) 0.30144(57) 0.3344(11) 0.0176 Uiso
C16_4 C 0.69856(57) 0.24612(45) 0.1656(11) 0.0176 Uiso
C17_4 C 0.19856(57) 0.74612(45) 0.3344(11) 0.0176 Uiso
C18_4 C 0.25388(45) 0.80144(57) 0.1656(11) 0.0176 Uiso
C19_4 C 0.80144(57) 0.25388(45) 0.3344(11) 0.0176 Uiso
C20_4 C 0.74612(45) 0.19856(57) 0.1656(11) 0.0176 Uiso
C21_4 C 0.20119(46) 0.79881(46) 0.250 0.0176 Uiso
C22_4 C 0.79881(46) 0.20119(46) 0.250 0.0176 Uiso
C23_4 C 0.14839(44) 0.85161(44) 0.250 0.0176 Uiso
C24_4 C 0.85161(44) 0.14839(44) 0.250 0.0176 Uiso
H1_4 H 0.842288 0.257897 0.402849 . .
H2_4 H 0.742103 0.157712 0.0971505 . .
H3_4 H 0.657712 0.242103 0.0971505 . .
H4_4 H 0.157712 0.742103 0.402849 . .
H5_4 H 0.257897 0.842288 0.0971505 . .
H6_4 H 0.242103 0.657712 0.402849 . .
H7_4 H 0.190988 0.463199 0.412637 . .
H8_6 H 0.204514 0.388897 0.5 . .
H9_4 H 0.190988 0.463199 0.587363 . .
H10_5 H 0.536801 0.190988 0.412637 . .
H11_7 H 0.611103 0.204514 0.5 . .
H12_5 H 0.536801 0.190988 0.587363 . .
H13_10 H 0.413665 0.799994 0.587363 . .
H14_15 H 0.487967 0.813521 0.5 . .
H15_10 H 0.413665 0.799994 0.412637 . .
H16_4 H 0.342288 0.757897 0.0971505 . .
H17_5 H 0.809012 0.536801 0.412637 . .
H18_8 H 0.795486 0.611103 0.5 . .
H19_5 H 0.809012 0.536801 0.587363 . .
H20_4 H 0.757897 0.342288 0.402849 . .
H13_11 H 0.200006 0.413665 0.587363 . .
H14_16 H 0.186479 0.487967 0.5 . .
H15_11 H 0.200006 0.413665 0.412637 . .
H17_6 H 0.463199 0.809012 0.412637 . .
H18_9 H 0.388897 0.795486 0.5 . .
H19_6 H 0.463199 0.809012 0.587363 . .
H14_17 H 0.186479 0.512033 1.11022e-16 . .
H15_12 H 0.200006 0.586335 0.0873626 . .
H17_7 H 0.463199 0.190988 0.0873626 . .
H18_10 H 0.388897 0.204514 1.11022e-16 . .
H13_12 H 0.200006 0.586335 0.912637 . .
H14_18 H 0.186479 0.512033 1 . .
H18_11 H 0.388897 0.204514 1 . .
H19_7 H 0.463199 0.190988 0.912637 . .
H14_19 H 0.813521 0.487967 1.11022e-16 . .
H15_13 H 0.799994 0.413665 0.0873626 . .
H13_13 H 0.799994 0.413665 0.912637 . .
H14_20 H 0.813521 0.487967 1 . .
H13_14 H 0.799994 0.586335 0.587363 . .
H14_21 H 0.813521 0.512033 0.5 . .
H15_14 H 0.799994 0.586335 0.412637 . .
H13_15 H 0.586335 0.200006 0.587363 . .
H14_22 H 0.512033 0.186479 0.5 . .
H15_15 H 0.586335 0.200006 0.412637 . .
H14_23 H 0.512033 0.813521 1.11022e-16 . .
H15_16 H 0.586335 0.799994 0.0873626 . .
H13_16 H 0.586335 0.799994 0.912637 . .
H14_24 H 0.512033 0.813521 1 . .
Zr1_6 Zr 0.000 0.000 0.250 0.0181 Uiso
Zr1_7 Zr 0.000 1.000 0.250 0.0181 Uiso
Zr1_8 Zr 1.000 0.000 0.250 0.0181 Uiso
Zr1_9 Zr 1.000 1.000 0.250 0.0181 Uiso
Zr1_10 Zr 0.500 0.500 0.750 0.0181 Uiso
loop_
_geom_bond_atom_site_label_1
_geom_bond_atom_site_label_2
_geom_bond_site_symmetry_1
_geom_bond_site_symmetry_2
Zr2 O2 1_555 1_555
O2 C1 1_555 1_555
O3 Zr2 1_555 1_555
O4 Zr2 1_555 1_555
C1 C3 1_555 1_555
C3 C5 1_555 1_555
C5 C17 1_555 1_555
O8 Zr1 1_555 1_555
O11 Zr1 1_555 1_555
O12 Zr2 1_555 1_555
O14 Zr2 1_555 1_555
O30 C1 1_555 1_555
C6 O4 1_555 1_555
C10 C6 1_555 1_555
C14 C3 1_555 1_555
C17 C21 1_555 1_555
C18 C14 1_555 1_555
C21 C18 1_555 1_555
C23 C21 1_555 1_555
O31 C23 1_555 1_555
O32 C23 1_555 1_555
Zr10 O31 1_555 1_555
Zr11_2 O32 1_555 1_555
Zr2 O8 1_555 1_555
O11 Zr9_2 1_555 1_555
Zr9_2 O30 1_555 1_555
C17 H4 1_555 1_555
C18 H5 1_555 1_555
C5 H6 1_555 1_555
C10 H13 1_555 1_555
C10 H14 1_555 1_555
C10 H15 1_555 1_555
C14 H16 1_555 1_555
Zr1_2 O1 1_555 1_555
C4 C2 1_555 1_555
O7 Zr1_2 1_555 1_555
Zr3 O1 1_555 1_555
Zr8_2 O7 1_555 1_555
O15 C2 1_555 1_555
O16 Zr3 1_555 1_555
O18 Zr3 1_555 1_555
O19 Zr3 1_555 1_555
Zr3 O13 1_555 1_555
Zr3 O15 1_555 1_555
C4 H7 1_555 1_555
C4 H8 1_555 1_555
C4 H9 1_555 1_555
O5 Zr1_3 1_555 1_555
O10 Zr1_3 1_555 1_555
Zr5 O5 1_555 1_555
O25 Zr5 1_555 1_555
O26 Zr5 1_555 1_555
O27 Zr5 1_555 1_555
O28 Zr5 1_555 1_555
C13 C9 1_555 1_555
O10 Zr6_2 1_555 1_555
Zr5 O23 1_555 1_555
O25 C9 1_555 1_555
C13 H17 1_555 1_555
C13 H18 1_555 1_555
C13 H19 1_555 1_555
O6 Zr1_4 1_555 1_555
O9 Zr1_4 1_555 1_555
Zr7_2 O6 1_555 1_555
O20 Zr4 1_555 1_555
O21 Zr4 1_555 1_555
O22 Zr4 1_555 1_555
O24 Zr4 1_555 1_555
O29 Zr7_2 1_555 1_555
C8 O20 1_555 1_555
C11 C7 1_555 1_555
C12 C8 1_555 1_555
C15 C12 1_555 1_555
C16 C12 1_555 1_555
C19 C15 1_555 1_555
C20 C16 1_555 1_555
C22 C19 1_555 1_555
C24 C22 1_555 1_555
O33 C24 1_555 1_555
O34 C24 1_555 1_555
Zr12 O33 1_555 1_555
Zr13_2 O34 1_555 1_555
O9 Zr4 1_555 1_555
Zr4 O17 1_555 1_555
O22 C7 1_555 1_555
O29 C8 1_555 1_555
C20 C22 1_555 1_555
C19 H1 1_555 1_555
C20 H2 1_555 1_555
C16 H3 1_555 1_555
C11 H10 1_555 1_555
C11 H11 1_555 1_555
C11 H12 1_555 1_555
C15 H20 1_555 1_555
C10 H10_2 1_555 1_555
C10 H11_2 1_555 1_555
C10 H12_2 1_555 1_555
C11 H13_2 1_555 1_555
C11 H14_2 1_555 1_555
C11 H15_2 1_555 1_555
O25_2 Zr9 1_555 1_555
O26_2 Zr9 1_555 1_555
O27_2 Zr9 1_555 1_555
C13_2 C9_2 1_555 1_555
Zr9 O23_2 1_555 1_555
O25_2 C9_2 1_555 1_555
C13_2 H18_2 1_555 1_555
C13_2 H19_2 1_555 1_555
O25_3 Zr9_2 1_555 1_555
O26_3 Zr9_2 1_555 1_555
C13_3 C9_3 1_555 1_555
O25_3 C9_3 1_555 1_555
C13_3 H17_2 1_555 1_555
C13_3 H18_3 1_555 1_555
O21_2 Zr8 1_555 1_555
O22_2 Zr8 1_555 1_555
O24_2 Zr8 1_555 1_555
C11_2 C7_2 1_555 1_555
Zr8 O17_2 1_555 1_555
O22_2 C7_2 1_555 1_555
C11_2 H11_3 1_555 1_555
C11_2 H12_3 1_555 1_555
O20_2 Zr8_2 1_555 1_555
O21_3 Zr8_2 1_555 1_555
O22_3 Zr8_2 1_555 1_555
C8_2 O20_2 1_555 1_555
C11_3 C7_3 1_555 1_555
C12_2 C8_2 1_555 1_555
C15_2 C12_2 1_555 1_555
C16_2 C12_2 1_555 1_555
C19_2 C15_2 1_555 1_555
C20_2 C16_2 1_555 1_555
C22_2 C19_2 1_555 1_555
C24_2 C22_2 1_555 1_555
O33_2 C24_2 1_555 1_555
O34_2 C24_2 1_555 1_555
Zr12_3 O33_2 1_555 1_555
Zr13_3 O34_2 1_555 1_555
O22_3 C7_3 1_555 1_555
O19 C8_2 1_555 1_555
C20_2 C22_2 1_555 1_555
C19_2 H1_2 1_555 1_555
C20_2 H2_2 1_555 1_555
C16_2 H3_2 1_555 1_555
C11_3 H10_3 1_555 1_555
C11_3 H11_4 1_555 1_555
C15_2 H20_2 1_555 1_555
O3_2 Zr6 1_555 1_555
O4_2 Zr6 1_555 1_555
O12_2 Zr6 1_555 1_555
O14_2 Zr6 1_555 1_555
C6_2 O4_2 1_555 1_555
C10_2 C6_2 1_555 1_555
C10_2 H13_3 1_555 1_555
C10_2 H14_3 1_555 1_555
Zr6_2 O2_2 1_555 1_555
O2_2 C1_2 1_555 1_555
O3_3 Zr6_2 1_555 1_555
O4_3 Zr6_2 1_555 1_555
C1_2 C3_2 1_555 1_555
C3_2 C5_2 1_555 1_555
C5_2 C17_2 1_555 1_555
O28 C1_2 1_555 1_555
C6_3 O4_3 1_555 1_555
C10_3 C6_3 1_555 1_555
C14_2 C3_2 1_555 1_555
C17_2 C21_2 1_555 1_555
C18_2 C14_2 1_555 1_555
C21_2 C18_2 1_555 1_555
C23_2 C21_2 1_555 1_555
O31_2 C23_2 1_555 1_555
O32_2 C23_2 1_555 1_555
Zr10_3 O31_2 1_555 1_555
Zr11_3 O32_2 1_555 1_555
C17_2 H4_2 1_555 1_555
C18_2 H5_2 1_555 1_555
C5_2 H6_2 1_555 1_555
C10_3 H14_4 1_555 1_555
C10_3 H15_3 1_555 1_555
C14_2 H16_2 1_555 1_555
C4_2 C2_2 1_555 1_555
O15_2 C2_2 1_555 1_555
O16_2 Zr7 1_555 1_555
O18_2 Zr7 1_555 1_555
Zr7 O13_2 1_555 1_555
Zr7 O15_2 1_555 1_555
C4_2 H8_2 1_555 1_555
C4_2 H9_2 1_555 1_555
C4_3 C2_3 1_555 1_555
O15_3 C2_3 1_555 1_555
O16_3 Zr7_2 1_555 1_555
Zr7_2 O15_3 1_555 1_555
C4_3 H7_2 1_555 1_555
C4_3 H8_3 1_555 1_555
C10_2 H18_4 1_555 1_555
C10_2 H19_3 1_555 1_555
C10_3 H17_3 1_555 1_555
C10_3 H18_5 1_555 1_555
C4_2 H13_4 1_555 1_555
C4_2 H14_5 1_555 1_555
C4_3 H14_6 1_555 1_555
C4_3 H15_4 1_555 1_555
C13 H13_5 1_555 1_555
C13 H14_7 1_555 1_555
C13 H15_5 1_555 1_555
C4 H13_6 1_555 1_555
C4 H14_8 1_555 1_555
C4 H15_6 1_555 1_555
C13_2 H13_7 1_555 1_555
C13_2 H14_9 1_555 1_555
C13_3 H14_10 1_555 1_555
C13_3 H15_7 1_555 1_555
C11_2 H13_8 1_555 1_555
C11_2 H14_11 1_555 1_555
C11_3 H14_12 1_555 1_555
C11_3 H15_8 1_555 1_555
Zr1_5 O1_2 1_555 1_555
O1_2 Zr11 1_555 1_555
Zr11 O2_3 1_555 1_555
O2_3 C1_3 1_555 1_555
O3_4 Zr11 1_555 1_555
O4_4 Zr11 1_555 1_555
C1_3 C3_3 1_555 1_555
C2_4 O3_4 1_555 1_555
C3_3 C5_3 1_555 1_555
C4_4 C2_4 1_555 1_555
C5_3 C17_3 1_555 1_555
O5_2 Zr1_5 1_555 1_555
O6_2 Zr1_5 1_555 1_555
O7_2 Zr1_5 1_555 1_555
O8_2 Zr1_5 1_555 1_555
O9_2 Zr1_5 1_555 1_555
O10_2 Zr1_5 1_555 1_555
O11_2 Zr1_5 1_555 1_555
Zr12_2 O1_2 1_555 1_555
Zr13 O5_2 1_555 1_555
Zr10_2 O5_2 1_555 1_555
Zr11_3 O6_2 1_555 1_555
Zr12 O6_2 1_555 1_555
Zr13_3 O7_2 1_555 1_555
Zr10 O10_2 1_555 1_555
O15_4 C2_4 1_555 1_555
O16_4 Zr12_2 1_555 1_555
O19_2 Zr12_2 1_555 1_555
O20_3 Zr13 1_555 1_555
O21_4 Zr13 1_555 1_555
O22_4 Zr13 1_555 1_555
O25_4 Zr10_2 1_555 1_555
O26_4 Zr10_2 1_555 1_555
O28_2 Zr10_2 1_555 1_555
O29_2 Zr12 1_555 1_555
O30_2 C1_3 1_555 1_555
C6_4 O4_4 1_555 1_555
C7_4 O16_4 1_555 1_555
C8_3 O20_3 1_555 1_555
C9_4 O21_4 1_555 1_555
C10_4 C6_4 1_555 1_555
C11_4 C7_4 1_555 1_555
C12_3 C8_3 1_555 1_555
C13_4 C9_4 1_555 1_555
C14_3 C3_3 1_555 1_555
C15_3 C12_3 1_555 1_555
C16_3 C12_3 1_555 1_555
C17_3 C21_3 1_555 1_555
C18_3 C14_3 1_555 1_555
C19_3 C15_3 1_555 1_555
C20_3 C16_3 1_555 1_555
C21_3 C18_3 1_555 1_555
C22_3 C19_3 1_555 1_555
C23_3 C21_3 1_555 1_555
C24_3 C22_3 1_555 1_555
O27_2 C23_3 1_555 1_555
O14 C23_3 1_555 1_555
O18_2 C24_3 1_555 1_555
O24 C24_3 1_555 1_555
Zr11 O8_2 1_555 1_555
O7_2 Zr12 1_555 1_555
O8_2 Zr10_2 1_555 1_555
O9_2 Zr12_2 1_555 1_555
O9_2 Zr13 1_555 1_555
O10_2 Zr11_3 1_555 1_555
O11_2 Zr13_3 1_555 1_555
O11_2 Zr10 1_555 1_555
Zr12_2 O15_4 1_555 1_555
Zr10 O30_2 1_555 1_555
O22_4 C7_4 1_555 1_555
O25_4 C9_4 1_555 1_555
O26_4 C6_4 1_555 1_555
O29_2 C8_3 1_555 1_555
C20_3 C22_3 1_555 1_555
C19_3 H1_3 1_555 1_555
C20_3 H2_3 1_555 1_555
C16_3 H3_3 1_555 1_555
C17_3 H4_3 1_555 1_555
C18_3 H5_3 1_555 1_555
C5_3 H6_3 1_555 1_555
C4_4 H7_3 1_555 1_555
C4_4 H8_4 1_555 1_555
C11_4 H10_4 1_555 1_555
C11_4 H11_5 1_555 1_555
C10_4 H14_13 1_555 1_555
C10_4 H15_9 1_555 1_555
C14_3 H16_3 1_555 1_555
C13_4 H17_4 1_555 1_555
C13_4 H18_6 1_555 1_555
C15_3 H20_3 1_555 1_555
O3_5 Zr11_2 1_555 1_555
O4_5 Zr11_2 1_555 1_555
C2_5 O3_5 1_555 1_555
C4_5 C2_5 1_555 1_555
O12_3 Zr11_2 1_555 1_555
O13_3 Zr11_2 1_555 1_555
O15_5 C2_5 1_555 1_555
O16_5 Zr12_3 1_555 1_555
O17_3 Zr12_3 1_555 1_555
O21_5 Zr13_2 1_555 1_555
O22_5 Zr13_2 1_555 1_555
O23_3 Zr13_2 1_555 1_555
O25_5 Zr10_3 1_555 1_555
O26_5 Zr10_3 1_555 1_555
C6_5 O4_5 1_555 1_555
C7_5 O16_5 1_555 1_555
C9_5 O21_5 1_555 1_555
C10_5 C6_5 1_555 1_555
C11_5 C7_5 1_555 1_555
C13_5 C9_5 1_555 1_555
Zr12_3 O13_3 1_555 1_555
Zr12_3 O15_5 1_555 1_555
Zr13_2 O17_3 1_555 1_555
Zr10_3 O12_3 1_555 1_555
Zr10_3 O23_3 1_555 1_555
O22_5 C7_5 1_555 1_555
O25_5 C9_5 1_555 1_555
O26_5 C6_5 1_555 1_555
C4_5 H8_5 1_555 1_555
C4_5 H9_3 1_555 1_555
C11_5 H11_6 1_555 1_555
C11_5 H12_4 1_555 1_555
C10_5 H13_9 1_555 1_555
C10_5 H14_14 1_555 1_555
C13_5 H18_7 1_555 1_555
C13_5 H19_4 1_555 1_555
Zr13_3 O2_4 1_555 1_555
O2_4 C1_4 1_555 1_555
O3_6 Zr13_3 1_555 1_555
O4_6 Zr13_3 1_555 1_555
C1_4 C3_4 1_555 1_555
C2_6 O3_6 1_555 1_555
C3_4 C5_4 1_555 1_555
C4_6 C2_6 1_555 1_555
C5_4 C17_4 1_555 1_555
O12_4 Zr13_3 1_555 1_555
O13_4 Zr13_3 1_555 1_555
O15_6 C2_6 1_555 1_555
O16_6 Zr10 1_555 1_555
O17_4 Zr10 1_555 1_555
O20_4 Zr11_3 1_555 1_555
O21_6 Zr11_3 1_555 1_555
O22_6 Zr11_3 1_555 1_555
O23_4 Zr11_3 1_555 1_555
O25_6 Zr12 1_555 1_555
O26_6 Zr12 1_555 1_555
O19_2 C1_4 1_555 1_555
C6_6 O4_6 1_555 1_555
C7_6 O16_6 1_555 1_555
C8_4 O20_4 1_555 1_555
C9_6 O21_6 1_555 1_555
C10_6 C6_6 1_555 1_555
C11_6 C7_6 1_555 1_555
C12_4 C8_4 1_555 1_555
C13_6 C9_6 1_555 1_555
C14_4 C3_4 1_555 1_555
C15_4 C12_4 1_555 1_555
C16_4 C12_4 1_555 1_555
C17_4 C21_4 1_555 1_555
C18_4 C14_4 1_555 1_555
C19_4 C15_4 1_555 1_555
C20_4 C16_4 1_555 1_555
C21_4 C18_4 1_555 1_555
C22_4 C19_4 1_555 1_555
C23_4 C21_4 1_555 1_555
C24_4 C22_4 1_555 1_555
O18 C23_4 1_555 1_555
O24_2 C23_4 1_555 1_555
O27 C24_4 1_555 1_555
O14_2 C24_4 1_555 1_555
Zr10 O13_4 1_555 1_555
Zr10 O15_6 1_555 1_555
Zr11_3 O17_4 1_555 1_555
Zr12 O12_4 1_555 1_555
Zr12 O23_4 1_555 1_555
O22_6 C7_6 1_555 1_555
O25_6 C9_6 1_555 1_555
O26_6 C6_6 1_555 1_555
O28_2 C8_4 1_555 1_555
C20_4 C22_4 1_555 1_555
C19_4 H1_4 1_555 1_555
C20_4 H2_4 1_555 1_555
C16_4 H3_4 1_555 1_555
C17_4 H4_4 1_555 1_555
C18_4 H5_4 1_555 1_555
C5_4 H6_4 1_555 1_555
C4_6 H7_4 1_555 1_555
C4_6 H8_6 1_555 1_555
C4_6 H9_4 1_555 1_555
C11_6 H10_5 1_555 1_555
C11_6 H11_7 1_555 1_555
C11_6 H12_5 1_555 1_555
C10_6 H13_10 1_555 1_555
C10_6 H14_15 1_555 1_555
C10_6 H15_10 1_555 1_555
C14_4 H16_4 1_555 1_555
C13_6 H17_5 1_555 1_555
C13_6 H18_8 1_555 1_555
C13_6 H19_5 1_555 1_555
C15_4 H20_4 1_555 1_555
C4_6 H13_11 1_555 1_555
C4_6 H14_16 1_555 1_555
C4_6 H15_11 1_555 1_555
C10_6 H17_6 1_555 1_555
C10_6 H18_9 1_555 1_555
C10_6 H19_6 1_555 1_555
C4_4 H14_17 1_555 1_555
C4_4 H15_12 1_555 1_555
C10_4 H17_7 1_555 1_555
C10_4 H18_10 1_555 1_555
C4_5 H13_12 1_555 1_555
C4_5 H14_18 1_555 1_555
C10_5 H18_11 1_555 1_555
C10_5 H19_7 1_555 1_555
C13_4 H14_19 1_555 1_555
C13_4 H15_13 1_555 1_555
C13_5 H13_13 1_555 1_555
C13_5 H14_20 1_555 1_555
C13_6 H13_14 1_555 1_555
C13_6 H14_21 1_555 1_555
C13_6 H15_14 1_555 1_555
C11_6 H13_15 1_555 1_555
C11_6 H14_22 1_555 1_555
C11_6 H15_15 1_555 1_555
C11_4 H14_23 1_555 1_555
C11_4 H15_16 1_555 1_555
C11_5 H13_16 1_555 1_555
C11_5 H14_24 1_555 1_555
O23_2 Zr1_6 1_555 1_555
O12 Zr1_6 1_555 1_555
O13 Zr1_7 1_555 1_555
O17_2 Zr1_7 1_555 1_555
Zr1_8 O23 1_555 1_555
O12_2 Zr1_8 1_555 1_555
O17 Zr1_9 1_555 1_555
O13_2 Zr1_9 1_555 1_555
Zr1_10 O23_3 1_555 1_555
O13_3 Zr1_10 1_555 1_555
O13_4 Zr1_10 1_555 1_555
O17_4 Zr1_10 1_555 1_555
O17_3 Zr1_10 1_555 1_555
O12_3 Zr1_10 1_555 1_555
O12_4 Zr1_10 1_555 1_555
O23_4 Zr1_10 1_555 1_555

#END
