
###############################################################################
#
# This file contains modified crystal structure data generated from the
# MOF subset of the Cambridge Structural Database (CSD) v543 
# hosted by the Cambridge Crystallographic Data Centre (CCDC).
#
# This work is licensed under the Creative Commons
# Attribution-NonCommercial-ShareAlike 4.0 International License.
# To view a copy of this license, visit
# http://creativecommons.org/licenses/by-nc-sa/4.0/
# or send a letter to
# Creative Commons, PO Box 1866, Mountain View, CA 94042, USA.
#
# CIF created using the CSD Python API on 29 September 2022
# The structure has been converted into the P1 space group
# The structure has a 3D framework
# The original CSD entry SOLHUZ is in the tetragonal crystal system
# The framework has been calculated to contain at least 10.0% void space
# The void calculation uses a probe of radius 1.32A, grid spacing 0.4
# H atom positions have been added when not included in the experimental data
#
###############################################################################

data_SOLHUZ
_chemical_formula_moiety         '(C160 H120 O112 Zr34)n'
_symmetry_cell_setting           triclinic
_symmetry_space_group_name_H-M   'P 1'
_symmetry_Int_Tables_number      1
_space_group_name_Hall           'P 1'
loop_
_symmetry_equiv_pos_site_id
_symmetry_equiv_pos_as_xyz
1 x,y,z
_cell_length_a                   26.5631(49)
_cell_length_b                   26.5631(49)
_cell_length_c                   10.1773(18)
_cell_angle_alpha                90
_cell_angle_beta                 90
_cell_angle_gamma                90
_cell_volume                     7181.09
loop_
_atom_site_label
_atom_site_type_symbol
_atom_site_fract_x
_atom_site_fract_y
_atom_site_fract_z
_atom_site_U_iso_or_equiv
_atom_site_thermal_displace_type
Zr8 Zr 0.05084(41) 0.07666(36) 0.000 0.0275 Uiso
Zr10 Zr 0.42334(36) 0.44916(41) 0.000 0.0275 Uiso
Zr1 Zr 0.000 0.000 0.750 0.0275 Uiso
Zr2 Zr 0.07666(36) 0.05084(41) 0.500 0.0275 Uiso
O2 O 0.1104(10) 0.07684(90) 0.6655(13) 0.0208 Uiso
O3 O 0.1446(12) 0.0164(12) 0.500 0.0208 Uiso
C1 C 0.11308(72) 0.11308(72) 0.750 0.0633 Uiso
C2 C 0.15455(75) 0.15455(75) 0.750 0.0633 Uiso
C3 C 0.20211(94) 0.14485(87) 0.6986(32) 0.0633 Uiso
C4 C 0.23820(94) 0.18153(94) 0.6990(54) 0.0633 Uiso
C5 C 0.22928(89) 0.22928(89) 0.750 0.0633 Uiso
O5 O 0.07684(90) 0.1104(10) 0.8345(13) 0.0208 Uiso
C8 C 0.14485(87) 0.20211(94) 0.8014(32) 0.0633 Uiso
C9 C 0.18153(94) 0.23820(94) 0.8010(54) 0.0633 Uiso
O6 O 0.3896(10) 0.42316(90) 0.8345(13) 0.0208 Uiso
C10 C 0.38692(72) 0.38692(72) 0.750 0.0633 Uiso
C11 C 0.34545(75) 0.34545(75) 0.750 0.0633 Uiso
C12 C 0.29789(94) 0.35515(87) 0.8014(32) 0.0633 Uiso
C13 C 0.26180(94) 0.31847(94) 0.8010(54) 0.0633 Uiso
C14 C 0.27072(89) 0.27072(89) 0.750 0.0633 Uiso
O7 O 0.42316(90) 0.3896(10) 0.6655(13) 0.0208 Uiso
C15 C 0.35515(87) 0.29789(94) 0.6986(32) 0.0633 Uiso
C16 C 0.31847(94) 0.26180(94) 0.6990(54) 0.0633 Uiso
O17 O 0.0130(13) 0.0571(11) 0.6246(16) 0.0208 Uiso
O19 O 0.06691(97) 0.12619(90) 0.500 0.0208 Uiso
C33 C 0.0294(18) 0.1554(11) 0.500 0.0633 Uiso
C34 C 0.0432(20) 0.2116(11) 0.500 0.0633 Uiso
O24 O 0.0571(11) 0.0130(13) 0.8754(16) 0.0208 Uiso
Zr8_2 Zr 0.05084(41) 0.07666(36) 1.000 0.0275 Uiso
Zr10_2 Zr 0.42334(36) 0.44916(41) 1.000 0.0275 Uiso
Zr11 Zr 0.44916(41) 0.42334(36) 0.500 0.0275 Uiso
O26 O 0.0130(13) 0.0571(11) 0.3754(16) 0.0208 Uiso
O34 O 0.1104(10) 0.07684(90) 0.3345(13) 0.0208 Uiso
H1 H 0.275127 0.173093 0.658067 . .
H2 H 0.210611 0.107899 0.657904 . .
H3 H 0.392101 0.289389 0.657904 . .
H4 H 0.107899 0.210611 0.842096 . .
H5 H 0.224873 0.326907 0.841933 . .
H6 H 0.326907 0.224873 0.658067 . .
H11 H 0.173093 0.275127 0.841933 . .
H18 H 0.289389 0.392101 0.842096 . .
H19 H 0.0276903 0.22948 0.587367 . .
H20 H 0.0839958 0.215654 0.5 . .
H21 H 0.0276903 0.22948 0.412633 . .
Zr9 Zr 0.07666(36) 0.94916(41) 0.000 0.0275 Uiso
Zr1_2 Zr 0.000 1.000 0.750 0.0275 Uiso
O1 O 0.0571(11) 0.9870(13) 0.6246(16) 0.0208 Uiso
O4 O 0.12619(90) 0.93309(97) 0.500 0.0208 Uiso
C6 C 0.1554(11) 0.9706(18) 0.500 0.0633 Uiso
C7 C 0.2116(11) 0.9568(20) 0.500 0.0633 Uiso
O16 O 0.0130(13) 0.9429(11) 0.8754(16) 0.0208 Uiso
Zr5 Zr 0.05084(41) 0.92334(36) 0.500 0.0275 Uiso
O21 O 0.0164(12) 0.8554(12) 0.500 0.0208 Uiso
Zr9_2 Zr 0.07666(36) 0.94916(41) 1.000 0.0275 Uiso
O28 O 0.0571(11) 0.9870(13) 0.3754(16) 0.0208 Uiso
O32 O 0.07684(90) 0.8896(10) 0.3345(13) 0.0208 Uiso
O33 O 0.07684(90) 0.8896(10) 0.6655(13) 0.0208 Uiso
H7 H 0.22948 0.97231 0.587367 . .
H8 H 0.215654 0.916004 0.5 . .
H9 H 0.22948 0.97231 0.412633 . .
Zr6 Zr 0.92334(36) 0.05084(41) 0.000 0.0275 Uiso
Zr1_3 Zr 1.000 0.000 0.750 0.0275 Uiso
O8 O 0.9429(11) 0.0130(13) 0.6246(16) 0.0208 Uiso
O11 O 0.87381(90) 0.06691(97) 0.500 0.0208 Uiso
C22 C 0.8446(11) 0.0294(18) 0.500 0.0633 Uiso
C23 C 0.7884(11) 0.0432(20) 0.500 0.0633 Uiso
Zr4 Zr 0.94916(41) 0.07666(36) 0.500 0.0275 Uiso
O18 O 0.9836(12) 0.1446(12) 0.500 0.0208 Uiso
O23 O 0.9870(13) 0.0571(11) 0.8754(16) 0.0208 Uiso
Zr6_2 Zr 0.92334(36) 0.05084(41) 1.000 0.0275 Uiso
O25 O 0.9429(11) 0.0130(13) 0.3754(16) 0.0208 Uiso
O30 O 0.92316(90) 0.1104(10) 0.3345(13) 0.0208 Uiso
O31 O 0.92316(90) 0.1104(10) 0.6655(13) 0.0208 Uiso
H13 H 0.77052 0.0276903 0.587367 . .
H14 H 0.784346 0.0839958 0.5 . .
H15 H 0.77052 0.0276903 0.412633 . .
Zr7 Zr 0.94916(41) 0.92334(36) 0.000 0.0275 Uiso
Zr13 Zr 0.57666(36) 0.55084(41) 0.000 0.0275 Uiso
Zr1_4 Zr 1.000 1.000 0.750 0.0275 Uiso
Zr3 Zr 0.92334(36) 0.94916(41) 0.500 0.0275 Uiso
O9 O 0.8896(10) 0.92316(90) 0.6655(13) 0.0208 Uiso
O10 O 0.8554(12) 0.9836(12) 0.500 0.0208 Uiso
C17 C 0.88692(72) 0.88692(72) 0.750 0.0633 Uiso
C18 C 0.84545(75) 0.84545(75) 0.750 0.0633 Uiso
C19 C 0.79789(94) 0.85515(87) 0.6986(32) 0.0633 Uiso
C20 C 0.76180(94) 0.81847(94) 0.6990(54) 0.0633 Uiso
C21 C 0.77072(89) 0.77072(89) 0.750 0.0633 Uiso
O12 O 0.92316(90) 0.8896(10) 0.8345(13) 0.0208 Uiso
C24 C 0.85515(87) 0.79789(94) 0.8014(32) 0.0633 Uiso
C25 C 0.81847(94) 0.76180(94) 0.8010(54) 0.0633 Uiso
O13 O 0.6104(10) 0.57684(90) 0.8345(13) 0.0208 Uiso
C26 C 0.61308(72) 0.61308(72) 0.750 0.0633 Uiso
C27 C 0.65455(75) 0.65455(75) 0.750 0.0633 Uiso
C28 C 0.70211(94) 0.64485(87) 0.8014(32) 0.0633 Uiso
C29 C 0.73820(94) 0.68153(94) 0.8010(54) 0.0633 Uiso
C30 C 0.72928(89) 0.72928(89) 0.750 0.0633 Uiso
O14 O 0.57684(90) 0.6104(10) 0.6655(13) 0.0208 Uiso
C31 C 0.64485(87) 0.70211(94) 0.6986(32) 0.0633 Uiso
C32 C 0.68153(94) 0.73820(94) 0.6990(54) 0.0633 Uiso
O15 O 0.9429(11) 0.9870(13) 0.8754(16) 0.0208 Uiso
O20 O 0.9870(13) 0.9429(11) 0.6246(16) 0.0208 Uiso
O22 O 0.93309(97) 0.87381(90) 0.500 0.0208 Uiso
C35 C 0.9706(18) 0.8446(11) 0.500 0.0633 Uiso
C36 C 0.9568(20) 0.7884(11) 0.500 0.0633 Uiso
Zr7_2 Zr 0.94916(41) 0.92334(36) 1.000 0.0275 Uiso
Zr12 Zr 0.55084(41) 0.57666(36) 0.500 0.0275 Uiso
Zr13_2 Zr 0.57666(36) 0.55084(41) 1.000 0.0275 Uiso
O27 O 0.9870(13) 0.9429(11) 0.3754(16) 0.0208 Uiso
O29 O 0.8896(10) 0.92316(90) 0.3345(13) 0.0208 Uiso
H10 H 0.724873 0.826907 0.658067 . .
H12 H 0.789389 0.892101 0.657904 . .
H16 H 0.892101 0.789389 0.842096 . .
H17 H 0.826907 0.724873 0.841933 . .
H22 H 0.97231 0.77052 0.587367 . .
H23 H 0.916004 0.784346 0.5 . .
H24 H 0.97231 0.77052 0.412633 . .
H25 H 0.607899 0.710611 0.657904 . .
H26 H 0.775127 0.673093 0.841933 . .
H27 H 0.673093 0.775127 0.658067 . .
H28 H 0.710611 0.607899 0.842096 . .
O11_2 O 0.12619(90) 0.06691(97) 0.000 0.0208 Uiso
C22_2 C 0.1554(11) 0.0294(18) 0.000 0.0633 Uiso
C23_2 C 0.2116(11) 0.0432(20) 0.000 0.0633 Uiso
O18_2 O 0.0164(12) 0.1446(12) 0.000 0.0208 Uiso
O25_2 O 0.0571(11) 0.0130(13) 0.1246(16) 0.0208 Uiso
O30_2 O 0.07684(90) 0.1104(10) 0.1655(13) 0.0208 Uiso
H14_2 H 0.215654 0.0839958 0 . .
H15_2 H 0.22948 0.0276903 0.0873675 . .
O11_3 O 0.12619(90) 0.06691(97) 1.000 0.0208 Uiso
C22_3 C 0.1554(11) 0.0294(18) 1.000 0.0633 Uiso
C23_3 C 0.2116(11) 0.0432(20) 1.000 0.0633 Uiso
O18_3 O 0.0164(12) 0.1446(12) 1.000 0.0208 Uiso
H13_2 H 0.22948 0.0276903 0.912633 . .
H14_3 H 0.215654 0.0839958 1 . .
O10_2 O 0.1446(12) 0.9836(12) 0.000 0.0208 Uiso
O22_2 O 0.06691(97) 0.87381(90) 0.000 0.0208 Uiso
C35_2 C 0.0294(18) 0.8446(11) 0.000 0.0633 Uiso
C36_2 C 0.0432(20) 0.7884(11) 0.000 0.0633 Uiso
Zr12_2 Zr 0.44916(41) 0.57666(36) 0.000 0.0275 Uiso
O27_2 O 0.0130(13) 0.9429(11) 0.1246(16) 0.0208 Uiso
O29_2 O 0.1104(10) 0.92316(90) 0.1655(13) 0.0208 Uiso
H23_2 H 0.0839958 0.784346 0 . .
H24_2 H 0.0276903 0.77052 0.0873675 . .
O9_2 O 0.1104(10) 0.92316(90) 0.8345(13) 0.0208 Uiso
O10_3 O 0.1446(12) 0.9836(12) 1.000 0.0208 Uiso
C17_2 C 0.11308(72) 0.88692(72) 0.750 0.0633 Uiso
C18_2 C 0.15455(75) 0.84545(75) 0.750 0.0633 Uiso
C19_2 C 0.20211(94) 0.85515(87) 0.8014(32) 0.0633 Uiso
C20_2 C 0.23820(94) 0.81847(94) 0.8010(54) 0.0633 Uiso
C21_2 C 0.22928(89) 0.77072(89) 0.750 0.0633 Uiso
C24_2 C 0.14485(87) 0.79789(94) 0.6986(32) 0.0633 Uiso
C25_2 C 0.18153(94) 0.76180(94) 0.6990(54) 0.0633 Uiso
O13_2 O 0.3896(10) 0.57684(90) 0.6655(13) 0.0208 Uiso
C26_2 C 0.38692(72) 0.61308(72) 0.750 0.0633 Uiso
C27_2 C 0.34545(75) 0.65455(75) 0.750 0.0633 Uiso
C28_2 C 0.29789(94) 0.64485(87) 0.6986(32) 0.0633 Uiso
C29_2 C 0.26180(94) 0.68153(94) 0.6990(54) 0.0633 Uiso
C30_2 C 0.27072(89) 0.72928(89) 0.750 0.0633 Uiso
O14_2 O 0.42316(90) 0.6104(10) 0.8345(13) 0.0208 Uiso
C31_2 C 0.35515(87) 0.70211(94) 0.8014(32) 0.0633 Uiso
C32_2 C 0.31847(94) 0.73820(94) 0.8010(54) 0.0633 Uiso
O22_3 O 0.06691(97) 0.87381(90) 1.000 0.0208 Uiso
C35_3 C 0.0294(18) 0.8446(11) 1.000 0.0633 Uiso
C36_3 C 0.0432(20) 0.7884(11) 1.000 0.0633 Uiso
Zr12_3 Zr 0.44916(41) 0.57666(36) 1.000 0.0275 Uiso
Zr13_3 Zr 0.42334(36) 0.55084(41) 0.500 0.0275 Uiso
H10_2 H 0.275127 0.826907 0.841933 . .
H12_2 H 0.210611 0.892101 0.842096 . .
H16_2 H 0.107899 0.789389 0.657904 . .
H17_2 H 0.173093 0.724873 0.658067 . .
H22_2 H 0.0276903 0.77052 0.912633 . .
H23_3 H 0.0839958 0.784346 1 . .
H25_2 H 0.392101 0.710611 0.842096 . .
H26_2 H 0.224873 0.673093 0.658067 . .
H27_2 H 0.326907 0.775127 0.841933 . .
H28_2 H 0.289389 0.607899 0.657904 . .
O3_2 O 0.8554(12) 0.0164(12) 0.000 0.0208 Uiso
O19_2 O 0.93309(97) 0.12619(90) 0.000 0.0208 Uiso
C33_2 C 0.9706(18) 0.1554(11) 0.000 0.0633 Uiso
C34_2 C 0.9568(20) 0.2116(11) 0.000 0.0633 Uiso
Zr11_2 Zr 0.55084(41) 0.42334(36) 0.000 0.0275 Uiso
O26_2 O 0.9870(13) 0.0571(11) 0.1246(16) 0.0208 Uiso
O34_2 O 0.8896(10) 0.07684(90) 0.1655(13) 0.0208 Uiso
H20_2 H 0.916004 0.215654 0 . .
H21_2 H 0.97231 0.22948 0.0873675 . .
O2_2 O 0.8896(10) 0.07684(90) 0.8345(13) 0.0208 Uiso
O3_3 O 0.8554(12) 0.0164(12) 1.000 0.0208 Uiso
C1_2 C 0.88692(72) 0.11308(72) 0.750 0.0633 Uiso
C2_2 C 0.84545(75) 0.15455(75) 0.750 0.0633 Uiso
C3_2 C 0.79789(94) 0.14485(87) 0.8014(32) 0.0633 Uiso
C4_2 C 0.76180(94) 0.18153(94) 0.8010(54) 0.0633 Uiso
C5_2 C 0.77072(89) 0.22928(89) 0.750 0.0633 Uiso
C8_2 C 0.85515(87) 0.20211(94) 0.6986(32) 0.0633 Uiso
C9_2 C 0.81847(94) 0.23820(94) 0.6990(54) 0.0633 Uiso
O6_2 O 0.6104(10) 0.42316(90) 0.6655(13) 0.0208 Uiso
C10_2 C 0.61308(72) 0.38692(72) 0.750 0.0633 Uiso
C11_2 C 0.65455(75) 0.34545(75) 0.750 0.0633 Uiso
C12_2 C 0.70211(94) 0.35515(87) 0.6986(32) 0.0633 Uiso
C13_2 C 0.73820(94) 0.31847(94) 0.6990(54) 0.0633 Uiso
C14_2 C 0.72928(89) 0.27072(89) 0.750 0.0633 Uiso
O7_2 O 0.57684(90) 0.3896(10) 0.8345(13) 0.0208 Uiso
C15_2 C 0.64485(87) 0.29789(94) 0.8014(32) 0.0633 Uiso
C16_2 C 0.68153(94) 0.26180(94) 0.8010(54) 0.0633 Uiso
O19_3 O 0.93309(97) 0.12619(90) 1.000 0.0208 Uiso
C33_3 C 0.9706(18) 0.1554(11) 1.000 0.0633 Uiso
C34_3 C 0.9568(20) 0.2116(11) 1.000 0.0633 Uiso
Zr10_3 Zr 0.57666(36) 0.44916(41) 0.500 0.0275 Uiso
Zr11_3 Zr 0.55084(41) 0.42334(36) 1.000 0.0275 Uiso
H1_2 H 0.724873 0.173093 0.841933 . .
H2_2 H 0.789389 0.107899 0.842096 . .
H3_2 H 0.607899 0.289389 0.842096 . .
H4_2 H 0.892101 0.210611 0.657904 . .
H5_2 H 0.775127 0.326907 0.658067 . .
H6_2 H 0.673093 0.224873 0.841933 . .
H11_2 H 0.826907 0.275127 0.658067 . .
H18_2 H 0.710611 0.392101 0.657904 . .
H19_2 H 0.97231 0.22948 0.912633 . .
H20_3 H 0.916004 0.215654 1 . .
O4_2 O 0.87381(90) 0.93309(97) 0.000 0.0208 Uiso
C6_2 C 0.8446(11) 0.9706(18) 0.000 0.0633 Uiso
C7_2 C 0.7884(11) 0.9568(20) 0.000 0.0633 Uiso
O21_2 O 0.9836(12) 0.8554(12) 0.000 0.0208 Uiso
O28_2 O 0.9429(11) 0.9870(13) 0.1246(16) 0.0208 Uiso
O32_2 O 0.92316(90) 0.8896(10) 0.1655(13) 0.0208 Uiso
H8_2 H 0.784346 0.916004 0 . .
H9_2 H 0.77052 0.97231 0.0873675 . .
O4_3 O 0.87381(90) 0.93309(97) 1.000 0.0208 Uiso
C6_3 C 0.8446(11) 0.9706(18) 1.000 0.0633 Uiso
C7_3 C 0.7884(11) 0.9568(20) 1.000 0.0633 Uiso
O21_3 O 0.9836(12) 0.8554(12) 1.000 0.0208 Uiso
H7_2 H 0.77052 0.97231 0.912633 . .
H8_3 H 0.784346 0.916004 1 . .
Zr1_5 Zr 0.500 0.500 0.250 0.0275 Uiso
O1_2 O 0.4429(11) 0.5130(13) 0.1246(16) 0.0208 Uiso
O2_3 O 0.3896(10) 0.42316(90) 0.1655(13) 0.0208 Uiso
O3_4 O 0.3554(12) 0.4836(12) 0.000 0.0208 Uiso
O4_4 O 0.37381(90) 0.56691(97) 0.000 0.0208 Uiso
C1_3 C 0.38692(72) 0.38692(72) 0.250 0.0633 Uiso
C2_3 C 0.34545(75) 0.34545(75) 0.250 0.0633 Uiso
C3_3 C 0.29789(94) 0.35515(87) 0.1986(32) 0.0633 Uiso
C4_3 C 0.26180(94) 0.31847(94) 0.1990(54) 0.0633 Uiso
C5_3 C 0.27072(89) 0.27072(89) 0.250 0.0633 Uiso
C6_4 C 0.3446(11) 0.5294(18) 0.000 0.0633 Uiso
C7_4 C 0.2884(11) 0.5432(20) 0.000 0.0633 Uiso
O5_2 O 0.42316(90) 0.3896(10) 0.3345(13) 0.0208 Uiso
C8_3 C 0.35515(87) 0.29789(94) 0.3014(32) 0.0633 Uiso
C9_3 C 0.31847(94) 0.26180(94) 0.3010(54) 0.0633 Uiso
C10_3 C 0.11308(72) 0.11308(72) 0.250 0.0633 Uiso
C11_3 C 0.15455(75) 0.15455(75) 0.250 0.0633 Uiso
C12_3 C 0.20211(94) 0.14485(87) 0.3014(32) 0.0633 Uiso
C13_3 C 0.23820(94) 0.18153(94) 0.3010(54) 0.0633 Uiso
C14_3 C 0.22928(89) 0.22928(89) 0.250 0.0633 Uiso
C15_3 C 0.14485(87) 0.20211(94) 0.1986(32) 0.0633 Uiso
C16_3 C 0.18153(94) 0.23820(94) 0.1990(54) 0.0633 Uiso
O8_2 O 0.5571(11) 0.4870(13) 0.1246(16) 0.0208 Uiso
O9_3 O 0.6104(10) 0.57684(90) 0.1655(13) 0.0208 Uiso
O10_4 O 0.6446(12) 0.5164(12) 0.000 0.0208 Uiso
O11_4 O 0.62619(90) 0.43309(97) 0.000 0.0208 Uiso
C17_3 C 0.61308(72) 0.61308(72) 0.250 0.0633 Uiso
C18_3 C 0.65455(75) 0.65455(75) 0.250 0.0633 Uiso
C19_3 C 0.70211(94) 0.64485(87) 0.1986(32) 0.0633 Uiso
C20_3 C 0.73820(94) 0.68153(94) 0.1990(54) 0.0633 Uiso
C21_3 C 0.72928(89) 0.72928(89) 0.250 0.0633 Uiso
C22_4 C 0.6554(11) 0.4706(18) 0.000 0.0633 Uiso
C23_4 C 0.7116(11) 0.4568(20) 0.000 0.0633 Uiso
O12_2 O 0.57684(90) 0.6104(10) 0.3345(13) 0.0208 Uiso
C24_3 C 0.64485(87) 0.70211(94) 0.3014(32) 0.0633 Uiso
C25_3 C 0.68153(94) 0.73820(94) 0.3010(54) 0.0633 Uiso
C26_3 C 0.88692(72) 0.88692(72) 0.250 0.0633 Uiso
C27_3 C 0.84545(75) 0.84545(75) 0.250 0.0633 Uiso
C28_3 C 0.79789(94) 0.85515(87) 0.3014(32) 0.0633 Uiso
C29_3 C 0.76180(94) 0.81847(94) 0.3010(54) 0.0633 Uiso
C30_3 C 0.77072(89) 0.77072(89) 0.250 0.0633 Uiso
C31_3 C 0.85515(87) 0.79789(94) 0.1986(32) 0.0633 Uiso
C32_3 C 0.81847(94) 0.76180(94) 0.1990(54) 0.0633 Uiso
O15_2 O 0.5571(11) 0.5130(13) 0.3754(16) 0.0208 Uiso
O16_2 O 0.4870(13) 0.5571(11) 0.3754(16) 0.0208 Uiso
O17_2 O 0.4870(13) 0.4429(11) 0.1246(16) 0.0208 Uiso
O18_4 O 0.5164(12) 0.3554(12) 0.000 0.0208 Uiso
O19_4 O 0.43309(97) 0.37381(90) 0.000 0.0208 Uiso
C33_4 C 0.4706(18) 0.3446(11) 0.000 0.0633 Uiso
C34_4 C 0.4568(20) 0.2884(11) 0.000 0.0633 Uiso
O20_2 O 0.5130(13) 0.5571(11) 0.1246(16) 0.0208 Uiso
O21_4 O 0.4836(12) 0.6446(12) 0.000 0.0208 Uiso
O22_4 O 0.56691(97) 0.62619(90) 0.000 0.0208 Uiso
C35_4 C 0.5294(18) 0.6554(11) 0.000 0.0633 Uiso
C36_4 C 0.5432(20) 0.7116(11) 0.000 0.0633 Uiso
O23_2 O 0.5130(13) 0.4429(11) 0.3754(16) 0.0208 Uiso
O24_2 O 0.4429(11) 0.4870(13) 0.3754(16) 0.0208 Uiso
O31_2 O 0.57684(90) 0.3896(10) 0.1655(13) 0.0208 Uiso
O33_2 O 0.42316(90) 0.6104(10) 0.1655(13) 0.0208 Uiso
H1_3 H 0.224873 0.326907 0.158067 . .
H2_3 H 0.289389 0.392101 0.157904 . .
H3_3 H 0.107899 0.210611 0.157904 . .
H4_3 H 0.392101 0.289389 0.342096 . .
H5_3 H 0.275127 0.173093 0.341933 . .
H6_3 H 0.173093 0.275127 0.158067 . .
H7_3 H 0.27052 0.52769 0.0873675 . .
H8_4 H 0.284346 0.583996 0 . .
H10_3 H 0.775127 0.673093 0.158067 . .
H11_3 H 0.326907 0.224873 0.341933 . .
H12_3 H 0.710611 0.607899 0.157904 . .
H13_3 H 0.72948 0.47231 0.0873675 . .
H14_4 H 0.715654 0.416004 0 . .
H16_3 H 0.607899 0.710611 0.342096 . .
H17_3 H 0.673093 0.775127 0.341933 . .
H18_3 H 0.210611 0.107899 0.342096 . .
H19_3 H 0.47231 0.27052 0.0873675 . .
H20_4 H 0.416004 0.284346 0 . .
H22_3 H 0.52769 0.72948 0.0873675 . .
H23_4 H 0.583996 0.715654 0 . .
H25_3 H 0.892101 0.789389 0.157904 . .
H26_3 H 0.724873 0.826907 0.341933 . .
H27_3 H 0.826907 0.724873 0.158067 . .
H28_3 H 0.789389 0.892101 0.342096 . .
O3_5 O 0.3554(12) 0.4836(12) 1.000 0.0208 Uiso
O4_5 O 0.37381(90) 0.56691(97) 1.000 0.0208 Uiso
C6_5 C 0.3446(11) 0.5294(18) 1.000 0.0633 Uiso
C7_5 C 0.2884(11) 0.5432(20) 1.000 0.0633 Uiso
O10_5 O 0.6446(12) 0.5164(12) 1.000 0.0208 Uiso
O11_5 O 0.62619(90) 0.43309(97) 1.000 0.0208 Uiso
C22_5 C 0.6554(11) 0.4706(18) 1.000 0.0633 Uiso
C23_5 C 0.7116(11) 0.4568(20) 1.000 0.0633 Uiso
O18_5 O 0.5164(12) 0.3554(12) 1.000 0.0208 Uiso
O19_5 O 0.43309(97) 0.37381(90) 1.000 0.0208 Uiso
C33_5 C 0.4706(18) 0.3446(11) 1.000 0.0633 Uiso
C34_5 C 0.4568(20) 0.2884(11) 1.000 0.0633 Uiso
O21_5 O 0.4836(12) 0.6446(12) 1.000 0.0208 Uiso
O22_5 O 0.56691(97) 0.62619(90) 1.000 0.0208 Uiso
C35_5 C 0.5294(18) 0.6554(11) 1.000 0.0633 Uiso
C36_5 C 0.5432(20) 0.7116(11) 1.000 0.0633 Uiso
O25_3 O 0.5571(11) 0.4870(13) 0.8754(16) 0.0208 Uiso
O26_3 O 0.4870(13) 0.4429(11) 0.8754(16) 0.0208 Uiso
O27_3 O 0.5130(13) 0.5571(11) 0.8754(16) 0.0208 Uiso
O28_3 O 0.4429(11) 0.5130(13) 0.8754(16) 0.0208 Uiso
H8_5 H 0.284346 0.583996 1 . .
H9_3 H 0.27052 0.52769 0.912633 . .
H14_5 H 0.715654 0.416004 1 . .
H15_3 H 0.72948 0.47231 0.912633 . .
H20_5 H 0.416004 0.284346 1 . .
H21_3 H 0.47231 0.27052 0.912633 . .
H23_5 H 0.583996 0.715654 1 . .
H24_3 H 0.52769 0.72948 0.912633 . .
O2_4 O 0.3896(10) 0.57684(90) 0.3345(13) 0.0208 Uiso
O3_6 O 0.3554(12) 0.5164(12) 0.500 0.0208 Uiso
O4_6 O 0.37381(90) 0.43309(97) 0.500 0.0208 Uiso
C1_4 C 0.38692(72) 0.61308(72) 0.250 0.0633 Uiso
C2_4 C 0.34545(75) 0.65455(75) 0.250 0.0633 Uiso
C3_4 C 0.29789(94) 0.64485(87) 0.3014(32) 0.0633 Uiso
C4_4 C 0.26180(94) 0.68153(94) 0.3010(54) 0.0633 Uiso
C5_4 C 0.27072(89) 0.72928(89) 0.250 0.0633 Uiso
C6_6 C 0.3446(11) 0.4706(18) 0.500 0.0633 Uiso
C7_6 C 0.2884(11) 0.4568(20) 0.500 0.0633 Uiso
C8_4 C 0.35515(87) 0.70211(94) 0.1986(32) 0.0633 Uiso
C9_4 C 0.31847(94) 0.73820(94) 0.1990(54) 0.0633 Uiso
C10_4 C 0.11308(72) 0.88692(72) 0.250 0.0633 Uiso
C11_4 C 0.15455(75) 0.84545(75) 0.250 0.0633 Uiso
C12_4 C 0.20211(94) 0.85515(87) 0.1986(32) 0.0633 Uiso
C13_4 C 0.23820(94) 0.81847(94) 0.1990(54) 0.0633 Uiso
C14_4 C 0.22928(89) 0.77072(89) 0.250 0.0633 Uiso
C15_4 C 0.14485(87) 0.79789(94) 0.3014(32) 0.0633 Uiso
C16_4 C 0.18153(94) 0.76180(94) 0.3010(54) 0.0633 Uiso
O9_4 O 0.6104(10) 0.42316(90) 0.3345(13) 0.0208 Uiso
O10_6 O 0.6446(12) 0.4836(12) 0.500 0.0208 Uiso
O11_6 O 0.62619(90) 0.56691(97) 0.500 0.0208 Uiso
C17_4 C 0.61308(72) 0.38692(72) 0.250 0.0633 Uiso
C18_4 C 0.65455(75) 0.34545(75) 0.250 0.0633 Uiso
C19_4 C 0.70211(94) 0.35515(87) 0.3014(32) 0.0633 Uiso
C20_4 C 0.73820(94) 0.31847(94) 0.3010(54) 0.0633 Uiso
C21_4 C 0.72928(89) 0.27072(89) 0.250 0.0633 Uiso
C22_6 C 0.6554(11) 0.5294(18) 0.500 0.0633 Uiso
C23_6 C 0.7116(11) 0.5432(20) 0.500 0.0633 Uiso
C24_4 C 0.64485(87) 0.29789(94) 0.1986(32) 0.0633 Uiso
C25_4 C 0.68153(94) 0.26180(94) 0.1990(54) 0.0633 Uiso
C26_4 C 0.88692(72) 0.11308(72) 0.250 0.0633 Uiso
C27_4 C 0.84545(75) 0.15455(75) 0.250 0.0633 Uiso
C28_4 C 0.79789(94) 0.14485(87) 0.1986(32) 0.0633 Uiso
C29_4 C 0.76180(94) 0.18153(94) 0.1990(54) 0.0633 Uiso
C30_4 C 0.77072(89) 0.22928(89) 0.250 0.0633 Uiso
C31_4 C 0.85515(87) 0.20211(94) 0.3014(32) 0.0633 Uiso
C32_4 C 0.81847(94) 0.23820(94) 0.3010(54) 0.0633 Uiso
O18_6 O 0.5164(12) 0.6446(12) 0.500 0.0208 Uiso
O19_6 O 0.43309(97) 0.62619(90) 0.500 0.0208 Uiso
C33_6 C 0.4706(18) 0.6554(11) 0.500 0.0633 Uiso
C34_6 C 0.4568(20) 0.7116(11) 0.500 0.0633 Uiso
O21_6 O 0.4836(12) 0.3554(12) 0.500 0.0208 Uiso
O22_6 O 0.56691(97) 0.37381(90) 0.500 0.0208 Uiso
C35_6 C 0.5294(18) 0.3446(11) 0.500 0.0633 Uiso
C36_6 C 0.5432(20) 0.2884(11) 0.500 0.0633 Uiso
O25_4 O 0.5571(11) 0.5130(13) 0.6246(16) 0.0208 Uiso
O26_4 O 0.4870(13) 0.5571(11) 0.6246(16) 0.0208 Uiso
O27_4 O 0.5130(13) 0.4429(11) 0.6246(16) 0.0208 Uiso
O28_4 O 0.4429(11) 0.4870(13) 0.6246(16) 0.0208 Uiso
H1_4 H 0.224873 0.673093 0.341933 . .
H2_4 H 0.289389 0.607899 0.342096 . .
H3_4 H 0.107899 0.789389 0.342096 . .
H4_4 H 0.392101 0.710611 0.157904 . .
H5_4 H 0.275127 0.826907 0.158067 . .
H6_4 H 0.173093 0.724873 0.341933 . .
H7_4 H 0.27052 0.47231 0.412633 . .
H8_6 H 0.284346 0.416004 0.5 . .
H9_4 H 0.27052 0.47231 0.587367 . .
H10_4 H 0.775127 0.326907 0.341933 . .
H11_4 H 0.326907 0.775127 0.158067 . .
H12_4 H 0.710611 0.392101 0.342096 . .
H13_4 H 0.72948 0.52769 0.412633 . .
H14_6 H 0.715654 0.583996 0.5 . .
H15_4 H 0.72948 0.52769 0.587367 . .
H16_4 H 0.607899 0.289389 0.157904 . .
H17_4 H 0.673093 0.224873 0.158067 . .
H18_4 H 0.210611 0.892101 0.157904 . .
H19_4 H 0.47231 0.72948 0.412633 . .
H20_6 H 0.416004 0.715654 0.5 . .
H21_4 H 0.47231 0.72948 0.587367 . .
H22_4 H 0.52769 0.27052 0.412633 . .
H23_6 H 0.583996 0.284346 0.5 . .
H24_4 H 0.52769 0.27052 0.587367 . .
H25_4 H 0.892101 0.210611 0.342096 . .
H26_4 H 0.724873 0.173093 0.158067 . .
H27_4 H 0.826907 0.275127 0.341933 . .
H28_4 H 0.789389 0.107899 0.157904 . .
Zr1_6 Zr 0.000 0.000 0.250 0.0275 Uiso
Zr1_7 Zr 0.000 1.000 0.250 0.0275 Uiso
Zr1_8 Zr 1.000 0.000 0.250 0.0275 Uiso
Zr1_9 Zr 1.000 1.000 0.250 0.0275 Uiso
Zr1_10 Zr 0.500 0.500 0.750 0.0275 Uiso
loop_
_geom_bond_atom_site_label_1
_geom_bond_atom_site_label_2
_geom_bond_site_symmetry_1
_geom_bond_site_symmetry_2
O2 Zr2 1_555 1_555
O3 Zr2 1_555 1_555
C1 O2 1_555 1_555
C2 C1 1_555 1_555
C3 C2 1_555 1_555
C4 C3 1_555 1_555
C5 C4 1_555 1_555
O5 C1 1_555 1_555
C8 C2 1_555 1_555
C9 C5 1_555 1_555
O6 C10 1_555 1_555
C10 C11 1_555 1_555
C11 C12 1_555 1_555
C12 C13 1_555 1_555
C13 C14 1_555 1_555
C14 C5 1_555 1_555
O7 C10 1_555 1_555
C15 C11 1_555 1_555
C16 C14 1_555 1_555
O17 Zr1 1_555 1_555
O19 Zr2 1_555 1_555
C34 C33 1_555 1_555
O24 Zr1 1_555 1_555
Zr8_2 O5 1_555 1_555
Zr10_2 O6 1_555 1_555
Zr11 O7 1_555 1_555
O26 Zr2 1_555 1_555
O34 Zr2 1_555 1_555
Zr2 O17 1_555 1_555
C8 C9 1_555 1_555
C15 C16 1_555 1_555
O19 C33 1_555 1_555
O24 Zr8_2 1_555 1_555
C4 H1 1_555 1_555
C3 H2 1_555 1_555
C15 H3 1_555 1_555
C8 H4 1_555 1_555
C13 H5 1_555 1_555
C16 H6 1_555 1_555
C9 H11 1_555 1_555
C12 H18 1_555 1_555
C34 H19 1_555 1_555
C34 H20 1_555 1_555
C34 H21 1_555 1_555
Zr1_2 O1 1_555 1_555
O1 Zr5 1_555 1_555
O4 C6 1_555 1_555
C7 C6 1_555 1_555
O16 Zr1_2 1_555 1_555
Zr5 O4 1_555 1_555
O21 Zr5 1_555 1_555
Zr9_2 O16 1_555 1_555
O32 Zr5 1_555 1_555
O33 Zr5 1_555 1_555
Zr5 O28 1_555 1_555
C7 H7 1_555 1_555
C7 H8 1_555 1_555
C7 H9 1_555 1_555
O8 Zr1_3 1_555 1_555
O11 C22 1_555 1_555
C23 C22 1_555 1_555
Zr4 O8 1_555 1_555
O18 Zr4 1_555 1_555
O23 Zr1_3 1_555 1_555
O30 Zr4 1_555 1_555
O31 Zr4 1_555 1_555
O11 Zr4 1_555 1_555
Zr4 O25 1_555 1_555
O23 Zr6_2 1_555 1_555
C23 H13 1_555 1_555
C23 H14 1_555 1_555
C23 H15 1_555 1_555
O9 Zr3 1_555 1_555
O10 Zr3 1_555 1_555
C17 O9 1_555 1_555
C18 C17 1_555 1_555
C19 C18 1_555 1_555
C20 C19 1_555 1_555
C21 C20 1_555 1_555
O12 C17 1_555 1_555
C24 C18 1_555 1_555
C25 C21 1_555 1_555
O13 C26 1_555 1_555
C26 C27 1_555 1_555
C27 C28 1_555 1_555
C28 C29 1_555 1_555
C29 C30 1_555 1_555
C30 C21 1_555 1_555
O14 C26 1_555 1_555
C31 C27 1_555 1_555
C32 C30 1_555 1_555
O15 Zr1_4 1_555 1_555
O20 Zr1_4 1_555 1_555
O22 Zr3 1_555 1_555
C36 C35 1_555 1_555
Zr7_2 O12 1_555 1_555
Zr12 O14 1_555 1_555
Zr13_2 O13 1_555 1_555
O27 Zr3 1_555 1_555
O29 Zr3 1_555 1_555
Zr3 O20 1_555 1_555
C24 C25 1_555 1_555
C31 C32 1_555 1_555
O15 Zr7_2 1_555 1_555
O22 C35 1_555 1_555
C20 H10 1_555 1_555
C19 H12 1_555 1_555
C24 H16 1_555 1_555
C25 H17 1_555 1_555
C36 H22 1_555 1_555
C36 H23 1_555 1_555
C36 H24 1_555 1_555
C31 H25 1_555 1_555
C29 H26 1_555 1_555
C32 H27 1_555 1_555
C28 H28 1_555 1_555
O11_2 C22_2 1_555 1_555
C23_2 C22_2 1_555 1_555
O18_2 Zr8 1_555 1_555
O30_2 Zr8 1_555 1_555
O11_2 Zr8 1_555 1_555
Zr8 O25_2 1_555 1_555
C23_2 H14_2 1_555 1_555
C23_2 H15_2 1_555 1_555
O11_3 C22_3 1_555 1_555
C23_3 C22_3 1_555 1_555
O18_3 Zr8_2 1_555 1_555
O11_3 Zr8_2 1_555 1_555
C23_3 H13_2 1_555 1_555
C23_3 H14_3 1_555 1_555
O10_2 Zr9 1_555 1_555
O22_2 Zr9 1_555 1_555
C36_2 C35_2 1_555 1_555
O27_2 Zr9 1_555 1_555
O29_2 Zr9 1_555 1_555
O22_2 C35_2 1_555 1_555
C36_2 H23_2 1_555 1_555
C36_2 H24_2 1_555 1_555
O9_2 Zr9_2 1_555 1_555
O10_3 Zr9_2 1_555 1_555
C17_2 O9_2 1_555 1_555
C18_2 C17_2 1_555 1_555
C19_2 C18_2 1_555 1_555
C20_2 C19_2 1_555 1_555
C21_2 C20_2 1_555 1_555
O33 C17_2 1_555 1_555
C24_2 C18_2 1_555 1_555
C25_2 C21_2 1_555 1_555
O13_2 C26_2 1_555 1_555
C26_2 C27_2 1_555 1_555
C27_2 C28_2 1_555 1_555
C28_2 C29_2 1_555 1_555
C29_2 C30_2 1_555 1_555
C30_2 C21_2 1_555 1_555
O14_2 C26_2 1_555 1_555
C31_2 C27_2 1_555 1_555
C32_2 C30_2 1_555 1_555
O22_3 Zr9_2 1_555 1_555
C36_3 C35_3 1_555 1_555
Zr12_3 O14_2 1_555 1_555
Zr13_3 O13_2 1_555 1_555
C24_2 C25_2 1_555 1_555
C31_2 C32_2 1_555 1_555
O22_3 C35_3 1_555 1_555
C20_2 H10_2 1_555 1_555
C19_2 H12_2 1_555 1_555
C24_2 H16_2 1_555 1_555
C25_2 H17_2 1_555 1_555
C36_3 H22_2 1_555 1_555
C36_3 H23_3 1_555 1_555
C31_2 H25_2 1_555 1_555
C29_2 H26_2 1_555 1_555
C32_2 H27_2 1_555 1_555
C28_2 H28_2 1_555 1_555
O3_2 Zr6 1_555 1_555
O19_2 Zr6 1_555 1_555
C34_2 C33_2 1_555 1_555
O26_2 Zr6 1_555 1_555
O34_2 Zr6 1_555 1_555
O19_2 C33_2 1_555 1_555
C34_2 H20_2 1_555 1_555
C34_2 H21_2 1_555 1_555
O2_2 Zr6_2 1_555 1_555
O3_3 Zr6_2 1_555 1_555
C1_2 O2_2 1_555 1_555
C2_2 C1_2 1_555 1_555
C3_2 C2_2 1_555 1_555
C4_2 C3_2 1_555 1_555
C5_2 C4_2 1_555 1_555
O31 C1_2 1_555 1_555
C8_2 C2_2 1_555 1_555
C9_2 C5_2 1_555 1_555
O6_2 C10_2 1_555 1_555
C10_2 C11_2 1_555 1_555
C11_2 C12_2 1_555 1_555
C12_2 C13_2 1_555 1_555
C13_2 C14_2 1_555 1_555
C14_2 C5_2 1_555 1_555
O7_2 C10_2 1_555 1_555
C15_2 C11_2 1_555 1_555
C16_2 C14_2 1_555 1_555
O19_3 Zr6_2 1_555 1_555
C34_3 C33_3 1_555 1_555
Zr10_3 O6_2 1_555 1_555
Zr11_3 O7_2 1_555 1_555
C8_2 C9_2 1_555 1_555
C15_2 C16_2 1_555 1_555
O19_3 C33_3 1_555 1_555
C4_2 H1_2 1_555 1_555
C3_2 H2_2 1_555 1_555
C15_2 H3_2 1_555 1_555
C8_2 H4_2 1_555 1_555
C13_2 H5_2 1_555 1_555
C16_2 H6_2 1_555 1_555
C9_2 H11_2 1_555 1_555
C12_2 H18_2 1_555 1_555
C34_3 H19_2 1_555 1_555
C34_3 H20_3 1_555 1_555
O4_2 C6_2 1_555 1_555
C7_2 C6_2 1_555 1_555
Zr7 O4_2 1_555 1_555
O21_2 Zr7 1_555 1_555
O32_2 Zr7 1_555 1_555
Zr7 O28_2 1_555 1_555
C7_2 H8_2 1_555 1_555
C7_2 H9_2 1_555 1_555
O4_3 C6_3 1_555 1_555
C7_3 C6_3 1_555 1_555
Zr7_2 O4_3 1_555 1_555
O21_3 Zr7_2 1_555 1_555
C7_3 H7_2 1_555 1_555
C7_3 H8_3 1_555 1_555
Zr1_5 O1_2 1_555 1_555
Zr10 O1_2 1_555 1_555
O1_2 Zr12_2 1_555 1_555
O2_3 Zr10 1_555 1_555
O3_4 Zr10 1_555 1_555
O4_4 C6_4 1_555 1_555
C1_3 O2_3 1_555 1_555
C2_3 C1_3 1_555 1_555
C3_3 C2_3 1_555 1_555
C4_3 C3_3 1_555 1_555
C5_3 C4_3 1_555 1_555
C6_4 O3_4 1_555 1_555
C7_4 C6_4 1_555 1_555
O5_2 C1_3 1_555 1_555
C8_3 C2_3 1_555 1_555
C9_3 C5_3 1_555 1_555
O34 C10_3 1_555 1_555
C10_3 C11_3 1_555 1_555
C11_3 C12_3 1_555 1_555
C12_3 C13_3 1_555 1_555
C13_3 C14_3 1_555 1_555
C14_3 C5_3 1_555 1_555
O30_2 C10_3 1_555 1_555
C15_3 C11_3 1_555 1_555
C16_3 C14_3 1_555 1_555
Zr13 O8_2 1_555 1_555
O8_2 Zr1_5 1_555 1_555
O9_3 Zr13 1_555 1_555
O10_4 Zr13 1_555 1_555
O11_4 C22_4 1_555 1_555
C17_3 O9_3 1_555 1_555
C18_3 C17_3 1_555 1_555
C19_3 C18_3 1_555 1_555
C20_3 C19_3 1_555 1_555
C21_3 C20_3 1_555 1_555
C22_4 O10_4 1_555 1_555
C23_4 C22_4 1_555 1_555
O12_2 C17_3 1_555 1_555
C24_3 C18_3 1_555 1_555
C25_3 C21_3 1_555 1_555
O29 C26_3 1_555 1_555
C26_3 C27_3 1_555 1_555
C27_3 C28_3 1_555 1_555
C28_3 C29_3 1_555 1_555
C29_3 C30_3 1_555 1_555
C30_3 C21_3 1_555 1_555
O32_2 C26_3 1_555 1_555
C31_3 C27_3 1_555 1_555
C32_3 C30_3 1_555 1_555
O15_2 Zr1_5 1_555 1_555
O16_2 Zr1_5 1_555 1_555
Zr11_2 O8_2 1_555 1_555
O17_2 Zr1_5 1_555 1_555
O18_4 Zr11_2 1_555 1_555
O19_4 Zr10 1_555 1_555
C33_4 O18_4 1_555 1_555
C34_4 C33_4 1_555 1_555
Zr12_2 O4_4 1_555 1_555
O20_2 Zr1_5 1_555 1_555
O21_4 Zr12_2 1_555 1_555
O22_4 Zr13 1_555 1_555
C35_4 O21_4 1_555 1_555
C36_4 C35_4 1_555 1_555
O23_2 Zr1_5 1_555 1_555
O24_2 Zr1_5 1_555 1_555
Zr10_3 O15_2 1_555 1_555
Zr12 O12_2 1_555 1_555
Zr11 O5_2 1_555 1_555
Zr13_3 O16_2 1_555 1_555
O31_2 Zr11_2 1_555 1_555
O33_2 Zr12_2 1_555 1_555
Zr10 O17_2 1_555 1_555
C8_3 C9_3 1_555 1_555
C15_3 C16_3 1_555 1_555
Zr13 O20_2 1_555 1_555
O11_4 Zr11_2 1_555 1_555
C24_3 C25_3 1_555 1_555
C31_3 C32_3 1_555 1_555
O15_2 Zr12 1_555 1_555
O16_2 Zr12 1_555 1_555
Zr11_2 O17_2 1_555 1_555
O19_4 C33_4 1_555 1_555
Zr12_2 O20_2 1_555 1_555
O22_4 C35_4 1_555 1_555
O23_2 Zr10_3 1_555 1_555
O23_2 Zr11 1_555 1_555
O24_2 Zr11 1_555 1_555
O24_2 Zr13_3 1_555 1_555
C4_3 H1_3 1_555 1_555
C3_3 H2_3 1_555 1_555
C15_3 H3_3 1_555 1_555
C8_3 H4_3 1_555 1_555
C13_3 H5_3 1_555 1_555
C16_3 H6_3 1_555 1_555
C7_4 H7_3 1_555 1_555
C7_4 H8_4 1_555 1_555
C20_3 H10_3 1_555 1_555
C9_3 H11_3 1_555 1_555
C19_3 H12_3 1_555 1_555
C23_4 H13_3 1_555 1_555
C23_4 H14_4 1_555 1_555
C24_3 H16_3 1_555 1_555
C25_3 H17_3 1_555 1_555
C12_3 H18_3 1_555 1_555
C34_4 H19_3 1_555 1_555
C34_4 H20_4 1_555 1_555
C36_4 H22_3 1_555 1_555
C36_4 H23_4 1_555 1_555
C31_3 H25_3 1_555 1_555
C29_3 H26_3 1_555 1_555
C32_3 H27_3 1_555 1_555
C28_3 H28_3 1_555 1_555
O3_5 Zr10_2 1_555 1_555
O4_5 C6_5 1_555 1_555
C6_5 O3_5 1_555 1_555
C7_5 C6_5 1_555 1_555
O10_5 Zr13_2 1_555 1_555
O11_5 C22_5 1_555 1_555
C22_5 O10_5 1_555 1_555
C23_5 C22_5 1_555 1_555
O18_5 Zr11_3 1_555 1_555
O19_5 Zr10_2 1_555 1_555
C33_5 O18_5 1_555 1_555
C34_5 C33_5 1_555 1_555
Zr12_3 O4_5 1_555 1_555
O21_5 Zr12_3 1_555 1_555
O22_5 Zr13_2 1_555 1_555
C35_5 O21_5 1_555 1_555
C36_5 C35_5 1_555 1_555
O25_3 Zr13_2 1_555 1_555
O26_3 Zr10_2 1_555 1_555
O27_3 Zr13_2 1_555 1_555
O28_3 Zr10_2 1_555 1_555
O11_5 Zr11_3 1_555 1_555
Zr11_3 O25_3 1_555 1_555
Zr11_3 O26_3 1_555 1_555
O19_5 C33_5 1_555 1_555
Zr12_3 O27_3 1_555 1_555
Zr12_3 O28_3 1_555 1_555
O22_5 C35_5 1_555 1_555
C7_5 H8_5 1_555 1_555
C7_5 H9_3 1_555 1_555
C23_5 H14_5 1_555 1_555
C23_5 H15_3 1_555 1_555
C34_5 H20_5 1_555 1_555
C34_5 H21_3 1_555 1_555
C36_5 H23_5 1_555 1_555
C36_5 H24_3 1_555 1_555
O2_4 Zr13_3 1_555 1_555
O3_6 Zr13_3 1_555 1_555
O4_6 C6_6 1_555 1_555
C1_4 O2_4 1_555 1_555
C2_4 C1_4 1_555 1_555
C3_4 C2_4 1_555 1_555
C4_4 C3_4 1_555 1_555
C5_4 C4_4 1_555 1_555
C6_6 O3_6 1_555 1_555
C7_6 C6_6 1_555 1_555
O33_2 C1_4 1_555 1_555
C8_4 C2_4 1_555 1_555
C9_4 C5_4 1_555 1_555
O29_2 C10_4 1_555 1_555
C10_4 C11_4 1_555 1_555
C11_4 C12_4 1_555 1_555
C12_4 C13_4 1_555 1_555
C13_4 C14_4 1_555 1_555
C14_4 C5_4 1_555 1_555
O32 C10_4 1_555 1_555
C15_4 C11_4 1_555 1_555
C16_4 C14_4 1_555 1_555
O9_4 Zr10_3 1_555 1_555
O10_6 Zr10_3 1_555 1_555
O11_6 C22_6 1_555 1_555
C17_4 O9_4 1_555 1_555
C18_4 C17_4 1_555 1_555
C19_4 C18_4 1_555 1_555
C20_4 C19_4 1_555 1_555
C21_4 C20_4 1_555 1_555
C22_6 O10_6 1_555 1_555
C23_6 C22_6 1_555 1_555
O31_2 C17_4 1_555 1_555
C24_4 C18_4 1_555 1_555
C25_4 C21_4 1_555 1_555
O34_2 C26_4 1_555 1_555
C26_4 C27_4 1_555 1_555
C27_4 C28_4 1_555 1_555
C28_4 C29_4 1_555 1_555
C29_4 C30_4 1_555 1_555
C30_4 C21_4 1_555 1_555
O30 C26_4 1_555 1_555
C31_4 C27_4 1_555 1_555
C32_4 C30_4 1_555 1_555
O18_6 Zr12 1_555 1_555
O19_6 Zr13_3 1_555 1_555
C33_6 O18_6 1_555 1_555
C34_6 C33_6 1_555 1_555
Zr11 O4_6 1_555 1_555
O21_6 Zr11 1_555 1_555
O22_6 Zr10_3 1_555 1_555
C35_6 O21_6 1_555 1_555
C36_6 C35_6 1_555 1_555
O25_4 Zr10_3 1_555 1_555
O26_4 Zr13_3 1_555 1_555
O27_4 Zr10_3 1_555 1_555
O28_4 Zr13_3 1_555 1_555
C8_4 C9_4 1_555 1_555
C15_4 C16_4 1_555 1_555
O11_6 Zr12 1_555 1_555
C24_4 C25_4 1_555 1_555
C31_4 C32_4 1_555 1_555
Zr12 O25_4 1_555 1_555
Zr12 O26_4 1_555 1_555
O19_6 C33_6 1_555 1_555
Zr11 O27_4 1_555 1_555
Zr11 O28_4 1_555 1_555
O22_6 C35_6 1_555 1_555
C4_4 H1_4 1_555 1_555
C3_4 H2_4 1_555 1_555
C15_4 H3_4 1_555 1_555
C8_4 H4_4 1_555 1_555
C13_4 H5_4 1_555 1_555
C16_4 H6_4 1_555 1_555
C7_6 H7_4 1_555 1_555
C7_6 H8_6 1_555 1_555
C7_6 H9_4 1_555 1_555
C20_4 H10_4 1_555 1_555
C9_4 H11_4 1_555 1_555
C19_4 H12_4 1_555 1_555
C23_6 H13_4 1_555 1_555
C23_6 H14_6 1_555 1_555
C23_6 H15_4 1_555 1_555
C24_4 H16_4 1_555 1_555
C25_4 H17_4 1_555 1_555
C12_4 H18_4 1_555 1_555
C34_6 H19_4 1_555 1_555
C34_6 H20_6 1_555 1_555
C34_6 H21_4 1_555 1_555
C36_6 H22_4 1_555 1_555
C36_6 H23_6 1_555 1_555
C36_6 H24_4 1_555 1_555
C31_4 H25_4 1_555 1_555
C29_4 H26_4 1_555 1_555
C32_4 H27_4 1_555 1_555
C28_4 H28_4 1_555 1_555
O25_2 Zr1_6 1_555 1_555
O26 Zr1_6 1_555 1_555
O28 Zr1_7 1_555 1_555
O27_2 Zr1_7 1_555 1_555
Zr1_8 O25 1_555 1_555
O26_2 Zr1_8 1_555 1_555
O27 Zr1_9 1_555 1_555
O28_2 Zr1_9 1_555 1_555
Zr1_10 O25_3 1_555 1_555
O28_3 Zr1_10 1_555 1_555
O28_4 Zr1_10 1_555 1_555
O27_4 Zr1_10 1_555 1_555
O27_3 Zr1_10 1_555 1_555
O26_3 Zr1_10 1_555 1_555
O26_4 Zr1_10 1_555 1_555
O25_4 Zr1_10 1_555 1_555

#END
