
###############################################################################
#
# This file contains modified crystal structure data generated from the
# MOF subset of the Cambridge Structural Database (CSD) v543 
# hosted by the Cambridge Crystallographic Data Centre (CCDC).
#
# This work is licensed under the Creative Commons
# Attribution-NonCommercial-ShareAlike 4.0 International License.
# To view a copy of this license, visit
# http://creativecommons.org/licenses/by-nc-sa/4.0/
# or send a letter to
# Creative Commons, PO Box 1866, Mountain View, CA 94042, USA.
#
# CIF created using the CSD Python API on 29 September 2022
# The structure has been converted into the P1 space group
# The structure has a 3D framework
# The original CSD entry SOMCON is in the orthorhombic crystal system
# The framework has been calculated to contain at least 10.0% void space
# The void calculation uses a probe of radius 1.32A, grid spacing 0.4
#
###############################################################################

data_SOMCON
_chemical_formula_moiety         '(C288 H192 I48 N96 Zn24)n'
_symmetry_cell_setting           triclinic
_symmetry_space_group_name_H-M   'P 1'
_symmetry_Int_Tables_number      1
_space_group_name_Hall           'P 1'
loop_
_symmetry_equiv_pos_site_id
_symmetry_equiv_pos_as_xyz
1 x,y,z
_cell_length_a                   27.9987(2)
_cell_length_b                   13.8164(3)
_cell_length_c                   44.1589(5)
_cell_angle_alpha                90
_cell_angle_beta                 90
_cell_angle_gamma                90
_cell_volume                     17082.5
loop_
_atom_site_label
_atom_site_type_symbol
_atom_site_fract_x
_atom_site_fract_y
_atom_site_fract_z
C13 C 0.4576(2) 0.0123(5) 0.04232(15)
H9 H 0.4724 0.0479 0.0581
C14 C 0.4457(2) 0.0595(5) 0.01566(15)
H10 H 0.4517 0.1268 0.0134
C25 C 0.2659(3) 0.0697(4) 0.26804(13)
H17 H 0.2957 0.0673 0.2783
C26 C 0.2625(2) 0.0302(4) 0.23907(14)
H18 H 0.2896 0.0023 0.2295
C27 C 0.1865(2) 0.1126(5) 0.26792(15)
H19 H 0.1602 0.1419 0.2779
C28 C 0.1791(3) 0.0730(5) 0.23909(15)
H20 H 0.1484 0.0735 0.2299
C29 C 0.2185(2) 0.0326(4) 0.22440(13)
N8 N 0.2285(2) 0.1111(4) 0.28192(12)
Zn4 Zn 0.23851(3) 0.18873(5) 0.321050(16)
Zn1 Zn 0.04794(3) 0.13888(5) 0.589348(17)
I1 I 0.053871(18) 0.32302(3) 0.585736(14)
I3 I 0.32736(2) 0.18645(4) 0.334020(13)
I4 I 0.19646(2) 0.35109(3) 0.315270(12)
C1 C 0.1835(2) 0.1510(4) 0.37633(15)
H1 H 0.1865 0.2192 0.3782
C2 C 0.1599(2) 0.1007(4) 0.39899(16)
H2 H 0.1475 0.1341 0.4161
C3 C 0.1968(3) 0.0120(5) 0.34955(15)
C5 C 0.1546(2) 0.0013(4) 0.39644(13)
C15 C 0.0690(3) 0.1336(4) 0.52317(15)
H11 H 0.0732 0.2015 0.5254
C16 C 0.0815(2) 0.0913(5) 0.49599(15)
H12 H 0.0942 0.1292 0.4800
C19 C 0.1545(2) 0.1019(5) 0.59071(14)
H13 H 0.1532 0.1205 0.5700
C20 C 0.1986(2) 0.0841(4) 0.60331(13)
H14 H 0.2269 0.0889 0.5915
C21 C 0.1153(2) 0.0659(5) 0.63517(14)
H15 H 0.0864 0.0575 0.6461
C22 C 0.1576(2) 0.0484(5) 0.64985(14)
H16 H 0.1579 0.0295 0.6705
C23 C 0.2005(2) 0.0588(4) 0.63369(13)
C24 C 0.2466(2) 0.0429(4) 0.64971(12)
C30 C 0.2851(2) 0.0026(4) 0.69257(12)
C31 C 0.4582(2) 0.0602(5) 0.63575(16)
H21 H 0.4874 0.0540 0.6465
C32 C 0.4160(2) 0.0431(5) 0.65097(15)
H22 H 0.4162 0.0240 0.6716
C33 C 0.4185(2) 0.0934(5) 0.59154(14)
H23 H 0.4193 0.1098 0.5707
C34 C 0.3748(2) 0.0790(4) 0.60514(14)
H24 H 0.3462 0.0862 0.5938
C35 C 0.3729(2) 0.0543(4) 0.63526(13)
C36 C 0.3263(2) 0.0407(4) 0.65082(13)
N1 N 0.2021(2) 0.1082(4) 0.35214(11)
N3 N 0.05135(18) 0.0830(4) 0.54649(12)
N7 N 0.11283(18) 0.0947(4) 0.60606(12)
N9 N 0.45977(18) 0.0852(4) 0.60658(12)
N10 N 0.24320(18) 0.0166(3) 0.67867(10)
N11 N 0.32765(18) 0.0134(4) 0.68010(11)
N12 N 0.28709(17) 0.0563(3) 0.63480(11)
Zn5 Zn 0.52451(3) 0.11851(5) 0.586590(19)
I5 I 0.57358(2) 0.20143(4) 0.626870(18)
I6 I 0.508220(19) 0.19517(3) 0.534720(13)
Zn3 Zn 0.47549(3) 0.61851(5) 0.913410(19)
I5_2 I 0.42642(2) 0.70143(4) 0.873130(18)
I6_2 I 0.491780(19) 0.69517(3) 0.965280(13)
H3 H 0.2901 0.0193 0.8323
C4 C 0.3271(3) 0.0442(5) 0.87114(15)
H4 H 0.3306 0.1120 0.8685
C6 C 0.3709(2) 0.0532(4) 0.92000(14)
C7 C 0.4276(2) 0.4313(5) 0.89944(16)
H5 H 0.4246 0.4600 0.8800
C8 C 0.4128(3) 0.3364(5) 0.90313(16)
H6 H 0.4002 0.3006 0.8866
C9 C 0.4500(2) 0.4437(4) 0.94948(16)
H7 H 0.4637 0.4803 0.9655
C10 C 0.4349(3) 0.3497(5) 0.95511(15)
H8 H 0.4369 0.3232 0.9749
C11 C 0.4168(2) 0.2953(4) 0.93143(15)
C12 C 0.4040(2) 0.1915(4) 0.93649(14)
C17 C 0.4251(2) 0.0076(4) 0.99255(13)
C18 C 0.4096(2) 0.0576(4) 0.96451(14)
N2 N 0.44591(18) 0.4843(4) 0.92180(13)
N4 N 0.37780(18) 0.1486(4) 0.91507(12)
N5 N 0.42040(18) 0.1510(4) 0.96144(12)
N6 N 0.38542(18) 0.0047(4) 0.94420(12)
N14 N 0.54023(18) 0.5852(4) 0.89342(12)
N14_2 N 0.95977(18) 0.4148(4) 0.39342(12)
Zn1_2 Zn 0.54794(3) 0.36112(5) 0.410652(17)
Zn2 Zn 0.73851(3) 0.31127(5) 0.678950(16)
I1_2 I 0.553871(18) 0.17698(3) 0.414264(14)
I2 I 0.483696(16) 0.44550(4) 0.380304(12)
I3_2 I 0.82736(2) 0.31355(4) 0.665980(13)
I4_2 I 0.69646(2) 0.14891(3) 0.684730(12)
C1_2 C 0.6835(2) 0.3490(4) 0.62367(15)
H1_2 H 0.6865 0.2808 0.6218
C2_2 C 0.6599(2) 0.3993(4) 0.60101(16)
H2_2 H 0.6475 0.3659 0.5839
C3_2 C 0.6968(3) 0.4880(5) 0.65045(15)
H3_2 H 0.7099 0.5193 0.6677
C4_2 C 0.6729(3) 0.5442(5) 0.62886(15)
H4_2 H 0.6694 0.6120 0.6315
C5_2 C 0.6546(2) 0.4987(4) 0.60356(13)
C6_2 C 0.6291(2) 0.5532(4) 0.58000(14)
C7_2 C 0.5724(2) 0.9313(5) 0.60056(16)
H5_2 H 0.5754 0.9600 0.6200
C8_2 C 0.5872(3) 0.8364(5) 0.59687(16)
H6_2 H 0.5998 0.8006 0.6134
C9_2 C 0.5500(2) 0.9437(4) 0.55052(16)
H7_2 H 0.5363 0.9803 0.5345
C10_2 C 0.5651(3) 0.8497(5) 0.54489(15)
H8_2 H 0.5631 0.8232 0.5251
C11_2 C 0.5832(2) 0.7953(4) 0.56857(15)
C12_2 C 0.5960(2) 0.6915(4) 0.56351(14)
C13_2 C 0.5424(2) 0.5123(5) 0.45768(15)
H9_2 H 0.5276 0.5479 0.4419
C14_2 C 0.5543(2) 0.5595(5) 0.48434(15)
H10_2 H 0.5483 0.6268 0.4866
C15_2 C 0.5690(3) 0.3664(4) 0.47683(15)
H11_2 H 0.5732 0.2985 0.4746
C16_2 C 0.5815(2) 0.4087(5) 0.50401(15)
H12_2 H 0.5942 0.3708 0.5200
C17_2 C 0.5749(2) 0.5076(4) 0.50745(13)
C18_2 C 0.5904(2) 0.5576(4) 0.53549(14)
C19_2 C 0.6545(2) 0.3981(5) 0.40929(14)
H13_2 H 0.6532 0.3795 0.4300
C20_2 C 0.6986(2) 0.4159(4) 0.39669(13)
H14_2 H 0.7269 0.4111 0.4085
C21_2 C 0.6153(2) 0.4341(5) 0.36483(14)
H15_2 H 0.5864 0.4425 0.3539
C22_2 C 0.6576(2) 0.4516(5) 0.35015(14)
H16_2 H 0.6579 0.4705 0.3295
C23_2 C 0.7005(2) 0.4412(4) 0.36631(13)
C24_2 C 0.7466(2) 0.4571(4) 0.35029(12)
C25_2 C 0.7341(3) 0.5697(4) 0.23196(13)
H17_2 H 0.7043 0.5673 0.2217
C26_2 C 0.7375(2) 0.5302(4) 0.26093(14)
H18_2 H 0.7104 0.5023 0.2705
C27_2 C 0.8135(2) 0.6126(5) 0.23208(15)
H19_2 H 0.8398 0.6419 0.2221
C28_2 C 0.8209(3) 0.5730(5) 0.26091(15)
H20_2 H 0.8516 0.5735 0.2701
C29_2 C 0.7815(2) 0.5326(4) 0.27560(13)
C30_2 C 0.7851(2) 0.4974(4) 0.30743(12)
C31_2 C 0.9582(2) 0.4398(5) 0.36425(16)
H21_2 H 0.9874 0.4460 0.3535
C32_2 C 0.9160(2) 0.4569(5) 0.34903(15)
H22_2 H 0.9162 0.4760 0.3284
C33_2 C 0.9185(2) 0.4066(5) 0.40846(14)
H23_2 H 0.9193 0.3902 0.4293
C34_2 C 0.8748(2) 0.4210(4) 0.39486(14)
H24_2 H 0.8462 0.4138 0.4062
C35_2 C 0.8729(2) 0.4457(4) 0.36474(13)
C36_2 C 0.8263(2) 0.4593(4) 0.34918(13)
N1_2 N 0.7021(2) 0.3918(4) 0.64786(11)
N2_2 N 0.55409(18) 0.9843(4) 0.57820(13)
N3_2 N 0.55135(18) 0.4170(4) 0.45351(12)
N4_2 N 0.62220(18) 0.6486(4) 0.58493(12)
N5_2 N 0.57960(18) 0.6510(4) 0.53856(12)
N6_2 N 0.61458(18) 0.5047(4) 0.55580(12)
N7_2 N 0.61283(18) 0.4053(4) 0.39394(12)
N8_2 N 0.7715(2) 0.6111(4) 0.21808(12)
N10_2 N 0.74320(18) 0.4834(3) 0.32133(10)
N11_2 N 0.82765(18) 0.4866(4) 0.31990(11)
N12_2 N 0.78709(17) 0.4437(3) 0.36520(11)
Zn4_2 Zn 0.76149(3) 0.68873(5) 0.178950(16)
N13 N 0.7285(2) 0.3889(4) 0.71808(12)
I3_3 I 0.67264(2) 0.68645(4) 0.165980(13)
I4_3 I 0.80354(2) 0.85109(3) 0.184730(12)
C1_3 C 0.8165(2) 0.6510(4) 0.12367(15)
H1_3 H 0.8135 0.7192 0.1218
C2_3 C 0.8401(2) 0.6007(4) 0.10101(16)
H2_3 H 0.8525 0.6341 0.0839
C3_3 C 0.8032(3) 0.5120(5) 0.15045(15)
H3_3 H 0.7901 0.4807 0.1677
C4_3 C 0.8271(3) 0.4558(5) 0.12886(15)
H4_3 H 0.8306 0.3880 0.1315
C5_3 C 0.8454(2) 0.5013(4) 0.10356(13)
C6_3 C 0.8709(2) 0.4468(4) 0.08000(14)
C7_3 C 0.9276(2) 0.0687(5) 0.10056(16)
H5_3 H 0.9246 0.0400 0.1200
C8_3 C 0.9128(3) 0.1636(5) 0.09687(16)
H6_3 H 0.9002 0.1994 0.1134
C9_3 C 0.9500(2) 0.0563(4) 0.05052(16)
H7_3 H 0.9637 0.0197 0.0345
C10_3 C 0.9349(3) 0.1503(5) 0.04489(15)
H8_3 H 0.9369 0.1768 0.0251
C11_3 C 0.9168(2) 0.2047(4) 0.06857(15)
C12_3 C 0.9040(2) 0.3085(4) 0.06351(14)
C16_3 C 0.9185(2) 0.5913(5) 0.00401(15)
H12_3 H 0.9058 0.6292 0.0200
C17_3 C 0.9251(2) 0.4924(4) 0.00745(13)
C18_3 C 0.9096(2) 0.4424(4) 0.03549(14)
N1_3 N 0.7979(2) 0.6082(4) 0.14786(11)
N2_3 N 0.94591(18) 0.0157(4) 0.07820(13)
N4_3 N 0.87780(18) 0.3514(4) 0.08493(12)
N5_3 N 0.92040(18) 0.3490(4) 0.03856(12)
N6_3 N 0.88542(18) 0.4953(4) 0.05580(12)
Zn1_3 Zn 0.95206(3) 0.63888(5) 0.910652(17)
I1_3 I 0.946129(18) 0.82302(3) 0.914264(14)
C13_3 C 0.9576(2) 0.4877(5) 0.95768(15)
H9_3 H 0.9724 0.4521 0.9419
C14_3 C 0.9457(2) 0.4405(5) 0.98434(15)
H10_3 H 0.9517 0.3732 0.9866
C15_3 C 0.9310(3) 0.6336(4) 0.97683(15)
H11_3 H 0.9268 0.7015 0.9746
C19_3 C 0.8455(2) 0.6019(5) 0.90929(14)
H13_3 H 0.8468 0.6205 0.9300
C20_3 C 0.8014(2) 0.5841(4) 0.89669(13)
H14_3 H 0.7731 0.5889 0.9085
C21_3 C 0.8847(2) 0.5659(5) 0.86483(14)
H15_3 H 0.9136 0.5575 0.8539
C22_3 C 0.8424(2) 0.5484(5) 0.85015(14)
H16_3 H 0.8421 0.5295 0.8295
C23_3 C 0.7995(2) 0.5588(4) 0.86631(13)
C24_3 C 0.7534(2) 0.5429(4) 0.85029(12)
C25_3 C 0.7659(3) 0.4303(4) 0.73196(13)
H17_3 H 0.7957 0.4327 0.7217
C26_3 C 0.7625(2) 0.4698(4) 0.76093(14)
H18_3 H 0.7896 0.4977 0.7705
C27_3 C 0.6865(2) 0.3874(5) 0.73208(15)
H19_3 H 0.6602 0.3581 0.7221
C28_3 C 0.6791(3) 0.4270(5) 0.76091(15)
H20_3 H 0.6484 0.4265 0.7701
C29_3 C 0.7185(2) 0.4674(4) 0.77560(13)
C30_3 C 0.7149(2) 0.5026(4) 0.80743(12)
C31_3 C 0.5418(2) 0.5602(5) 0.86425(16)
H21_3 H 0.5126 0.5540 0.8535
C32_3 C 0.5840(2) 0.5431(5) 0.84903(15)
H22_3 H 0.5838 0.5240 0.8284
C33_3 C 0.5815(2) 0.5934(5) 0.90846(14)
H23_3 H 0.5807 0.6098 0.9293
C34_3 C 0.6252(2) 0.5790(4) 0.89486(14)
H24_3 H 0.6538 0.5862 0.9062
C35_3 C 0.6271(2) 0.5543(4) 0.86474(13)
C36_3 C 0.6737(2) 0.5407(4) 0.84918(13)
N3_3 N 0.94865(18) 0.5830(4) 0.95351(12)
N7_3 N 0.88717(18) 0.5947(4) 0.89394(12)
N10_3 N 0.75680(18) 0.5166(3) 0.82133(10)
N11_3 N 0.67235(18) 0.5134(4) 0.81990(11)
N12_3 N 0.71291(17) 0.5563(3) 0.86520(11)
Zn1_4 Zn 0.45206(3) 0.86112(5) 0.089348(17)
I1_4 I 0.446129(18) 0.67698(3) 0.085736(14)
I2_2 I 0.516304(16) 0.94550(4) 0.119696(12)
C15_4 C 0.4310(3) 0.8664(4) 0.02317(15)
H11_4 H 0.4268 0.7985 0.0254
C19_4 C 0.3455(2) 0.8981(5) 0.09071(14)
H13_4 H 0.3468 0.8795 0.0700
C20_4 C 0.3014(2) 0.9159(4) 0.10331(13)
H14_4 H 0.2731 0.9111 0.0915
C21_4 C 0.3847(2) 0.9341(5) 0.13517(14)
H15_4 H 0.4136 0.9425 0.1461
C22_4 C 0.3424(2) 0.9516(5) 0.14985(14)
H16_4 H 0.3421 0.9705 0.1705
C23_4 C 0.2995(2) 0.9412(4) 0.13369(13)
C24_4 C 0.2534(2) 0.9571(4) 0.14971(12)
C30_4 C 0.2149(2) 0.9974(4) 0.19257(12)
C31_4 C 0.0418(2) 0.9398(5) 0.13575(16)
H21_4 H 0.0126 0.9460 0.1465
C32_4 C 0.0840(2) 0.9569(5) 0.15097(15)
H22_4 H 0.0838 0.9760 0.1716
C33_4 C 0.0815(2) 0.9066(5) 0.09154(14)
H23_4 H 0.0807 0.8902 0.0707
C34_4 C 0.1252(2) 0.9210(4) 0.10514(14)
H24_4 H 0.1538 0.9138 0.0938
C35_4 C 0.1271(2) 0.9457(4) 0.13526(13)
C36_4 C 0.1737(2) 0.9593(4) 0.15082(13)
N3_4 N 0.44865(18) 0.9170(4) 0.04649(12)
N7_4 N 0.38717(18) 0.9053(4) 0.10606(12)
N9_2 N 0.04023(18) 0.9148(4) 0.10658(12)
N10_4 N 0.25680(18) 0.9834(3) 0.17867(10)
N11_4 N 0.17235(18) 0.9866(4) 0.18010(11)
N12_4 N 0.21291(17) 0.9437(3) 0.13480(11)
Zn2_2 Zn 0.26149(3) 0.81127(5) 0.821050(16)
I3_4 I 0.17264(2) 0.81355(4) 0.834020(13)
I4_4 I 0.30354(2) 0.64891(3) 0.815270(12)
C1_4 C 0.3165(2) 0.8490(4) 0.87633(15)
H1_4 H 0.3135 0.7808 0.8782
C2_4 C 0.3401(2) 0.8993(4) 0.89899(16)
H2_4 H 0.3525 0.8659 0.9161
C3_4 C 0.3032(3) 0.9880(5) 0.84955(15)
C5_4 C 0.3454(2) 0.9987(4) 0.89644(13)
C16_4 C 0.4185(2) 0.9087(5) 0.99599(15)
H12_4 H 0.4058 0.8708 0.9800
N1_4 N 0.2979(2) 0.8918(4) 0.85214(11)
N13_2 N 0.2715(2) 0.8889(4) 0.78192(12)
Zn3_2 Zn 0.02451(3) 0.38149(5) 0.413410(19)
I5_3 I 0.07358(2) 0.29857(4) 0.373130(18)
I6_3 I 0.008220(19) 0.30483(3) 0.465280(13)
H3_4 H 0.2099 0.9807 0.3323
C4_4 C 0.1729(3) 0.9558(5) 0.37114(15)
H4_4 H 0.1694 0.8880 0.3685
C6_4 C 0.1291(2) 0.9468(4) 0.42000(14)
C7_4 C 0.0724(2) 0.5687(5) 0.39944(16)
H5_4 H 0.0754 0.5400 0.3800
C8_4 C 0.0872(3) 0.6636(5) 0.40313(16)
H6_4 H 0.0998 0.6994 0.3866
C9_4 C 0.0500(2) 0.5563(4) 0.44948(16)
H7_4 H 0.0363 0.5197 0.4655
C10_4 C 0.0651(3) 0.6503(5) 0.45511(15)
H8_4 H 0.0631 0.6768 0.4749
C11_4 C 0.0832(2) 0.7047(4) 0.43143(15)
C12_4 C 0.0960(2) 0.8085(4) 0.43649(14)
C13_4 C 0.0424(2) 0.9877(5) 0.54232(15)
H9_4 H 0.0276 0.9521 0.5581
C14_4 C 0.0543(2) 0.9405(5) 0.51566(15)
H10_4 H 0.0483 0.8732 0.5134
C17_4 C 0.0749(2) 0.9924(4) 0.49255(13)
C18_4 C 0.0904(2) 0.9424(4) 0.46451(14)
C25_4 C 0.2341(3) 0.9303(4) 0.76804(13)
H17_4 H 0.2043 0.9327 0.7783
C26_4 C 0.2375(2) 0.9698(4) 0.73907(14)
H18_4 H 0.2104 0.9977 0.7295
C27_4 C 0.3135(2) 0.8874(5) 0.76792(15)
H19_4 H 0.3398 0.8581 0.7779
C28_4 C 0.3209(3) 0.9270(5) 0.73909(15)
H20_4 H 0.3516 0.9265 0.7299
C29_4 C 0.2815(2) 0.9674(4) 0.72440(13)
N2_4 N 0.05409(18) 0.5157(4) 0.42180(13)
N4_4 N 0.12220(18) 0.8514(4) 0.41507(12)
N5_4 N 0.07960(18) 0.8490(4) 0.46144(12)
N6_4 N 0.11458(18) 0.9953(4) 0.44420(12)
Zn5_2 Zn 0.97549(3) 0.88149(5) 0.086590(19)
I5_4 I 0.92642(2) 0.79857(4) 0.126870(18)
I6_4 I 0.991780(19) 0.80483(3) 0.034720(13)
I2_3 I 0.983696(16) 0.05450(4) 0.619696(12)
I2_4 I 0.016304(16) 0.55450(4) 0.880304(12)
Zn5_3 Zn 0.02451(3) 0.11851(5) 0.913410(19)
I5_5 I 0.07358(2) 0.20143(4) 0.873130(18)
I6_5 I 0.008220(19) 0.19517(3) 0.965280(13)
Zn2_3 Zn 0.73851(3) 0.18873(5) 0.178950(16)
I3_5 I 0.82736(2) 0.18645(4) 0.165980(13)
I4_5 I 0.69646(2) 0.35109(3) 0.184730(12)
C1_5 C 0.6835(2) 0.1510(4) 0.12367(15)
H1_5 H 0.6865 0.2192 0.1218
C2_5 C 0.6599(2) 0.1007(4) 0.10101(16)
H2_5 H 0.6475 0.1341 0.0839
C3_5 C 0.6968(3) 0.0120(5) 0.15045(15)
C5_5 C 0.6546(2) 0.0013(4) 0.10356(13)
C16_5 C 0.5815(2) 0.0913(5) 0.00401(15)
H12_5 H 0.5942 0.1292 0.0200
N1_5 N 0.7021(2) 0.1082(4) 0.14786(11)
N13_3 N 0.7285(2) 0.1111(4) 0.21808(12)
Zn3_3 Zn 0.97549(3) 0.61851(5) 0.586590(19)
I5_6 I 0.92642(2) 0.70143(4) 0.626870(18)
I6_6 I 0.991780(19) 0.69517(3) 0.534720(13)
H3_5 H 0.7901 0.0193 0.6677
C4_5 C 0.8271(3) 0.0442(5) 0.62886(15)
H4_5 H 0.8306 0.1120 0.6315
C6_5 C 0.8709(2) 0.0532(4) 0.58000(14)
C7_5 C 0.9276(2) 0.4313(5) 0.60056(16)
H5_5 H 0.9246 0.4600 0.6200
C8_5 C 0.9128(3) 0.3364(5) 0.59687(16)
H6_5 H 0.9002 0.3006 0.6134
C9_5 C 0.9500(2) 0.4437(4) 0.55052(16)
H7_5 H 0.9637 0.4803 0.5345
C10_5 C 0.9349(3) 0.3497(5) 0.54489(15)
H8_5 H 0.9369 0.3232 0.5251
C11_5 C 0.9168(2) 0.2953(4) 0.56857(15)
C12_5 C 0.9040(2) 0.1915(4) 0.56351(14)
C13_5 C 0.9576(2) 0.0123(5) 0.45768(15)
H9_5 H 0.9724 0.0479 0.4419
C14_5 C 0.9457(2) 0.0595(5) 0.48434(15)
H10_5 H 0.9517 0.1268 0.4866
C17_5 C 0.9251(2) 0.0076(4) 0.50745(13)
C18_5 C 0.9096(2) 0.0576(4) 0.53549(14)
C25_5 C 0.7659(3) 0.0697(4) 0.23196(13)
H17_5 H 0.7957 0.0673 0.2217
C26_5 C 0.7625(2) 0.0302(4) 0.26093(14)
H18_5 H 0.7896 0.0023 0.2705
C27_5 C 0.6865(2) 0.1126(5) 0.23208(15)
H19_5 H 0.6602 0.1419 0.2221
C28_5 C 0.6791(3) 0.0730(5) 0.26091(15)
H20_5 H 0.6484 0.0735 0.2701
C29_5 C 0.7185(2) 0.0326(4) 0.27560(13)
N2_5 N 0.94591(18) 0.4843(4) 0.57820(13)
N4_5 N 0.87780(18) 0.1486(4) 0.58493(12)
N5_5 N 0.92040(18) 0.1510(4) 0.53856(12)
N6_5 N 0.88542(18) 0.0047(4) 0.55580(12)
Zn1_5 Zn 0.54794(3) 0.13888(5) 0.910652(17)
I1_5 I 0.553871(18) 0.32302(3) 0.914264(14)
I2_5 I 0.483696(16) 0.05450(4) 0.880304(12)
C15_5 C 0.5690(3) 0.1336(4) 0.97683(15)
H11_5 H 0.5732 0.2015 0.9746
C19_5 C 0.6545(2) 0.1019(5) 0.90929(14)
H13_5 H 0.6532 0.1205 0.9300
C20_5 C 0.6986(2) 0.0841(4) 0.89669(13)
H14_5 H 0.7269 0.0889 0.9085
C21_5 C 0.6153(2) 0.0659(5) 0.86483(14)
H15_5 H 0.5864 0.0575 0.8539
C22_5 C 0.6576(2) 0.0484(5) 0.85015(14)
H16_5 H 0.6579 0.0295 0.8295
C23_5 C 0.7005(2) 0.0588(4) 0.86631(13)
C24_5 C 0.7466(2) 0.0429(4) 0.85029(12)
C30_5 C 0.7851(2) 0.0026(4) 0.80743(12)
C31_5 C 0.9582(2) 0.0602(5) 0.86425(16)
H21_5 H 0.9874 0.0540 0.8535
C32_5 C 0.9160(2) 0.0431(5) 0.84903(15)
H22_5 H 0.9162 0.0240 0.8284
C33_5 C 0.9185(2) 0.0934(5) 0.90846(14)
H23_5 H 0.9193 0.1098 0.9293
C34_5 C 0.8748(2) 0.0790(4) 0.89486(14)
H24_5 H 0.8462 0.0862 0.9062
C35_5 C 0.8729(2) 0.0543(4) 0.86474(13)
C36_5 C 0.8263(2) 0.0407(4) 0.84918(13)
N3_5 N 0.55135(18) 0.0830(4) 0.95351(12)
N7_5 N 0.61283(18) 0.0947(4) 0.89394(12)
N9_3 N 0.95977(18) 0.0852(4) 0.89342(12)
N10_5 N 0.74320(18) 0.0166(3) 0.82133(10)
N11_5 N 0.82765(18) 0.0134(4) 0.81990(11)
N12_5 N 0.78709(17) 0.0563(3) 0.86520(11)
Zn3_4 Zn 0.52451(3) 0.38149(5) 0.086590(19)
I5_7 I 0.57358(2) 0.29857(4) 0.126870(18)
I6_7 I 0.508220(19) 0.30483(3) 0.034720(13)
H3_6 H 0.7099 0.9807 0.1677
C4_6 C 0.6729(3) 0.9558(5) 0.12886(15)
H4_6 H 0.6694 0.8880 0.1315
C6_6 C 0.6291(2) 0.9468(4) 0.08000(14)
C7_6 C 0.5724(2) 0.5687(5) 0.10056(16)
H5_6 H 0.5754 0.5400 0.1200
C8_6 C 0.5872(3) 0.6636(5) 0.09687(16)
H6_6 H 0.5998 0.6994 0.1134
C9_6 C 0.5500(2) 0.5563(4) 0.05052(16)
H7_6 H 0.5363 0.5197 0.0345
C10_6 C 0.5651(3) 0.6503(5) 0.04489(15)
H8_6 H 0.5631 0.6768 0.0251
C11_6 C 0.5832(2) 0.7047(4) 0.06857(15)
C12_6 C 0.5960(2) 0.8085(4) 0.06351(14)
C17_6 C 0.5749(2) 0.9924(4) 0.00745(13)
C18_6 C 0.5904(2) 0.9424(4) 0.03549(14)
N2_6 N 0.55409(18) 0.5157(4) 0.07820(13)
N4_6 N 0.62220(18) 0.8514(4) 0.08493(12)
N5_6 N 0.57960(18) 0.8490(4) 0.03856(12)
N6_6 N 0.61458(18) 0.9953(4) 0.05580(12)
N14_3 N 0.45977(18) 0.4148(4) 0.10658(12)
N14_4 N 0.04023(18) 0.5852(4) 0.60658(12)
Zn1_6 Zn 0.45206(3) 0.63888(5) 0.589348(17)
Zn2_4 Zn 0.26149(3) 0.68873(5) 0.321050(16)
I1_6 I 0.446129(18) 0.82302(3) 0.585736(14)
I2_6 I 0.516304(16) 0.55450(4) 0.619696(12)
I3_6 I 0.17264(2) 0.68645(4) 0.334020(13)
I4_6 I 0.30354(2) 0.85109(3) 0.315270(12)
C1_6 C 0.3165(2) 0.6510(4) 0.37633(15)
H1_6 H 0.3135 0.7192 0.3782
C2_6 C 0.3401(2) 0.6007(4) 0.39899(16)
H2_6 H 0.3525 0.6341 0.4161
C3_6 C 0.3032(3) 0.5120(5) 0.34955(15)
H3_7 H 0.2901 0.4807 0.3323
C4_7 C 0.3271(3) 0.4558(5) 0.37114(15)
H4_7 H 0.3306 0.3880 0.3685
C5_6 C 0.3454(2) 0.5013(4) 0.39644(13)
C6_7 C 0.3709(2) 0.4468(4) 0.42000(14)
C7_7 C 0.4276(2) 0.0687(5) 0.39944(16)
H5_7 H 0.4246 0.0400 0.3800
C8_7 C 0.4128(3) 0.1636(5) 0.40313(16)
H6_7 H 0.4002 0.1994 0.3866
C9_7 C 0.4500(2) 0.0563(4) 0.44948(16)
H7_7 H 0.4637 0.0197 0.4655
C10_7 C 0.4349(3) 0.1503(5) 0.45511(15)
H8_7 H 0.4369 0.1768 0.4749
C11_7 C 0.4168(2) 0.2047(4) 0.43143(15)
C12_7 C 0.4040(2) 0.3085(4) 0.43649(14)
C13_6 C 0.4576(2) 0.4877(5) 0.54232(15)
H9_6 H 0.4724 0.4521 0.5581
C14_6 C 0.4457(2) 0.4405(5) 0.51566(15)
H10_6 H 0.4517 0.3732 0.5134
C15_6 C 0.4310(3) 0.6336(4) 0.52317(15)
H11_6 H 0.4268 0.7015 0.5254
C16_6 C 0.4185(2) 0.5913(5) 0.49599(15)
H12_6 H 0.4058 0.6292 0.4800
C17_7 C 0.4251(2) 0.4924(4) 0.49255(13)
C18_7 C 0.4096(2) 0.4424(4) 0.46451(14)
C19_6 C 0.3455(2) 0.6019(5) 0.59071(14)
H13_6 H 0.3468 0.6205 0.5700
C20_6 C 0.3014(2) 0.5841(4) 0.60331(13)
H14_6 H 0.2731 0.5889 0.5915
C21_6 C 0.3847(2) 0.5659(5) 0.63517(14)
H15_6 H 0.4136 0.5575 0.6461
C22_6 C 0.3424(2) 0.5484(5) 0.64985(14)
H16_6 H 0.3421 0.5295 0.6705
C23_6 C 0.2995(2) 0.5588(4) 0.63369(13)
C24_6 C 0.2534(2) 0.5429(4) 0.64971(12)
C25_6 C 0.2659(3) 0.4303(4) 0.76804(13)
H17_6 H 0.2957 0.4327 0.7783
C26_6 C 0.2625(2) 0.4698(4) 0.73907(14)
H18_6 H 0.2896 0.4977 0.7295
C27_6 C 0.1865(2) 0.3874(5) 0.76792(15)
H19_6 H 0.1602 0.3581 0.7779
C28_6 C 0.1791(3) 0.4270(5) 0.73909(15)
H20_6 H 0.1484 0.4265 0.7299
C29_6 C 0.2185(2) 0.4674(4) 0.72440(13)
C30_6 C 0.2149(2) 0.5026(4) 0.69257(12)
C31_6 C 0.0418(2) 0.5602(5) 0.63575(16)
H21_6 H 0.0126 0.5540 0.6465
C32_6 C 0.0840(2) 0.5431(5) 0.65097(15)
H22_6 H 0.0838 0.5240 0.6716
C33_6 C 0.0815(2) 0.5934(5) 0.59154(14)
H23_6 H 0.0807 0.6098 0.5707
C34_6 C 0.1252(2) 0.5790(4) 0.60514(14)
H24_6 H 0.1538 0.5862 0.5938
C35_6 C 0.1271(2) 0.5543(4) 0.63526(13)
C36_6 C 0.1737(2) 0.5407(4) 0.65082(13)
N1_6 N 0.2979(2) 0.6082(4) 0.35214(11)
N2_7 N 0.44591(18) 0.0157(4) 0.42180(13)
N3_6 N 0.44865(18) 0.5830(4) 0.54649(12)
N4_7 N 0.37780(18) 0.3514(4) 0.41507(12)
N5_7 N 0.42040(18) 0.3490(4) 0.46144(12)
N6_7 N 0.38542(18) 0.4953(4) 0.44420(12)
N7_6 N 0.38717(18) 0.5947(4) 0.60606(12)
N8_3 N 0.2285(2) 0.3889(4) 0.78192(12)
N10_6 N 0.25680(18) 0.5166(3) 0.67867(10)
N11_6 N 0.17235(18) 0.5134(4) 0.68010(11)
N12_6 N 0.21291(17) 0.5563(3) 0.63480(11)
Zn4_3 Zn 0.23851(3) 0.31127(5) 0.821050(16)
N13_4 N 0.2715(2) 0.6111(4) 0.28192(12)
Zn1_7 Zn 0.04794(3) 0.36112(5) 0.089348(17)
I1_7 I 0.053871(18) 0.17698(3) 0.085736(14)
C13_7 C 0.0424(2) 0.5123(5) 0.04232(15)
H9_7 H 0.0276 0.5479 0.0581
C14_7 C 0.0543(2) 0.5595(5) 0.01566(15)
H10_7 H 0.0483 0.6268 0.0134
C15_7 C 0.0690(3) 0.3664(4) 0.02317(15)
H11_7 H 0.0732 0.2985 0.0254
C19_7 C 0.1545(2) 0.3981(5) 0.09071(14)
H13_7 H 0.1532 0.3795 0.0700
C20_7 C 0.1986(2) 0.4159(4) 0.10331(13)
H14_7 H 0.2269 0.4111 0.0915
C21_7 C 0.1153(2) 0.4341(5) 0.13517(14)
H15_7 H 0.0864 0.4425 0.1461
C22_7 C 0.1576(2) 0.4516(5) 0.14985(14)
H16_7 H 0.1579 0.4705 0.1705
C23_7 C 0.2005(2) 0.4412(4) 0.13369(13)
C24_7 C 0.2466(2) 0.4571(4) 0.14971(12)
C25_7 C 0.2341(3) 0.5697(4) 0.26804(13)
H17_7 H 0.2043 0.5673 0.2783
C26_7 C 0.2375(2) 0.5302(4) 0.23907(14)
H18_7 H 0.2104 0.5023 0.2295
C27_7 C 0.3135(2) 0.6126(5) 0.26792(15)
H19_7 H 0.3398 0.6419 0.2779
C28_7 C 0.3209(3) 0.5730(5) 0.23909(15)
H20_7 H 0.3516 0.5735 0.2299
C29_7 C 0.2815(2) 0.5326(4) 0.22440(13)
C30_7 C 0.2851(2) 0.4974(4) 0.19257(12)
C31_7 C 0.4582(2) 0.4398(5) 0.13575(16)
H21_7 H 0.4874 0.4460 0.1465
C32_7 C 0.4160(2) 0.4569(5) 0.15097(15)
H22_7 H 0.4162 0.4760 0.1716
C33_7 C 0.4185(2) 0.4066(5) 0.09154(14)
H23_7 H 0.4193 0.3902 0.0707
C34_7 C 0.3748(2) 0.4210(4) 0.10514(14)
H24_7 H 0.3462 0.4138 0.0938
C35_7 C 0.3729(2) 0.4457(4) 0.13526(13)
C36_7 C 0.3263(2) 0.4593(4) 0.15082(13)
N3_7 N 0.05135(18) 0.4170(4) 0.04649(12)
N7_7 N 0.11283(18) 0.4053(4) 0.10606(12)
N10_7 N 0.24320(18) 0.4834(3) 0.17867(10)
N11_7 N 0.32765(18) 0.4866(4) 0.18010(11)
N12_7 N 0.28709(17) 0.4437(3) 0.13480(11)
I3_7 I 0.32736(2) 0.31355(4) 0.834020(13)
I4_7 I 0.19646(2) 0.14891(3) 0.815270(12)
C1_7 C 0.1835(2) 0.3490(4) 0.87633(15)
H1_7 H 0.1865 0.2808 0.8782
C2_7 C 0.1599(2) 0.3993(4) 0.89899(16)
H2_7 H 0.1475 0.3659 0.9161
C3_7 C 0.1968(3) 0.4880(5) 0.84955(15)
H3_8 H 0.2099 0.5193 0.8323
C4_8 C 0.1729(3) 0.5442(5) 0.87114(15)
H4_8 H 0.1694 0.6120 0.8685
C5_7 C 0.1546(2) 0.4987(4) 0.89644(13)
C6_8 C 0.1291(2) 0.5532(4) 0.92000(14)
C7_8 C 0.0724(2) 0.9313(5) 0.89944(16)
H5_8 H 0.0754 0.9600 0.8800
C8_8 C 0.0872(3) 0.8364(5) 0.90313(16)
H6_8 H 0.0998 0.8006 0.8866
C9_8 C 0.0500(2) 0.9437(4) 0.94948(16)
H7_8 H 0.0363 0.9803 0.9655
C10_8 C 0.0651(3) 0.8497(5) 0.95511(15)
H8_8 H 0.0631 0.8232 0.9749
C11_8 C 0.0832(2) 0.7953(4) 0.93143(15)
C12_8 C 0.0960(2) 0.6915(4) 0.93649(14)
C16_7 C 0.0815(2) 0.4087(5) 0.99599(15)
H12_7 H 0.0942 0.3708 0.9800
C17_8 C 0.0749(2) 0.5076(4) 0.99255(13)
C18_8 C 0.0904(2) 0.5576(4) 0.96451(14)
N1_7 N 0.2021(2) 0.3918(4) 0.85214(11)
N2_8 N 0.05409(18) 0.9843(4) 0.92180(13)
N4_8 N 0.12220(18) 0.6486(4) 0.91507(12)
N5_8 N 0.07960(18) 0.6510(4) 0.96144(12)
N6_8 N 0.11458(18) 0.5047(4) 0.94420(12)
C13_8 C 0.5424(2) 0.9877(5) 0.95768(15)
H9_8 H 0.5276 0.9521 0.9419
C14_8 C 0.5543(2) 0.9405(5) 0.98434(15)
H10_8 H 0.5483 0.8732 0.9866
C25_8 C 0.7341(3) 0.9303(4) 0.73196(13)
H17_8 H 0.7043 0.9327 0.7217
C26_8 C 0.7375(2) 0.9698(4) 0.76093(14)
H18_8 H 0.7104 0.9977 0.7705
C27_8 C 0.8135(2) 0.8874(5) 0.73208(15)
H19_8 H 0.8398 0.8581 0.7221
C28_8 C 0.8209(3) 0.9270(5) 0.76091(15)
H20_8 H 0.8516 0.9265 0.7701
C29_8 C 0.7815(2) 0.9674(4) 0.77560(13)
N8_4 N 0.7715(2) 0.8889(4) 0.71808(12)
Zn4_4 Zn 0.76149(3) 0.81127(5) 0.678950(16)
Zn1_8 Zn 0.95206(3) 0.86112(5) 0.410652(17)
I1_8 I 0.946129(18) 0.67698(3) 0.414264(14)
I3_8 I 0.67264(2) 0.81355(4) 0.665980(13)
I4_8 I 0.80354(2) 0.64891(3) 0.684730(12)
C1_8 C 0.8165(2) 0.8490(4) 0.62367(15)
H1_8 H 0.8135 0.7808 0.6218
C2_8 C 0.8401(2) 0.8993(4) 0.60101(16)
H2_8 H 0.8525 0.8659 0.5839
C3_8 C 0.8032(3) 0.9880(5) 0.65045(15)
C5_8 C 0.8454(2) 0.9987(4) 0.60356(13)
C15_8 C 0.9310(3) 0.8664(4) 0.47683(15)
H11_8 H 0.9268 0.7985 0.4746
C16_8 C 0.9185(2) 0.9087(5) 0.50401(15)
H12_8 H 0.9058 0.8708 0.5200
C19_8 C 0.8455(2) 0.8981(5) 0.40929(14)
H13_8 H 0.8468 0.8795 0.4300
C20_8 C 0.8014(2) 0.9159(4) 0.39669(13)
H14_8 H 0.7731 0.9111 0.4085
C21_8 C 0.8847(2) 0.9341(5) 0.36483(14)
H15_8 H 0.9136 0.9425 0.3539
C22_8 C 0.8424(2) 0.9516(5) 0.35015(14)
H16_8 H 0.8421 0.9705 0.3295
C23_8 C 0.7995(2) 0.9412(4) 0.36631(13)
C24_8 C 0.7534(2) 0.9571(4) 0.35029(12)
C30_8 C 0.7149(2) 0.9974(4) 0.30743(12)
C31_8 C 0.5418(2) 0.9398(5) 0.36425(16)
H21_8 H 0.5126 0.9460 0.3535
C32_8 C 0.5840(2) 0.9569(5) 0.34903(15)
H22_8 H 0.5838 0.9760 0.3284
C33_8 C 0.5815(2) 0.9066(5) 0.40846(14)
H23_8 H 0.5807 0.8902 0.4293
C34_8 C 0.6252(2) 0.9210(4) 0.39486(14)
H24_8 H 0.6538 0.9138 0.4062
C35_8 C 0.6271(2) 0.9457(4) 0.36474(13)
C36_8 C 0.6737(2) 0.9593(4) 0.34918(13)
N1_8 N 0.7979(2) 0.8918(4) 0.64786(11)
N3_8 N 0.94865(18) 0.9170(4) 0.45351(12)
N7_8 N 0.88717(18) 0.9053(4) 0.39394(12)
N9_4 N 0.54023(18) 0.9148(4) 0.39342(12)
N10_8 N 0.75680(18) 0.9834(3) 0.32133(10)
N11_8 N 0.67235(18) 0.9866(4) 0.31990(11)
N12_8 N 0.71291(17) 0.9437(3) 0.36520(11)
Zn5_4 Zn 0.47549(3) 0.88149(5) 0.413410(19)
I5_8 I 0.42642(2) 0.79857(4) 0.373130(18)
I6_8 I 0.491780(19) 0.80483(3) 0.465280(13)
I2_7 I 0.016304(16) 0.94550(4) 0.380304(12)
I2_8 I 0.983696(16) 0.44550(4) 0.119696(12)
loop_
_geom_bond_atom_site_label_1
_geom_bond_atom_site_label_2
_geom_bond_site_symmetry_1
_geom_bond_site_symmetry_2
C13 H9 1_555 1_555
C14 C13 1_555 1_555
H10 C14 1_555 1_555
C25 H17 1_555 1_555
C26 C25 1_555 1_555
H18 C26 1_555 1_555
C27 H19 1_555 1_555
C28 C27 1_555 1_555
H20 C28 1_555 1_555
C29 C26 1_555 1_555
N8 C25 1_555 1_555
Zn4 N8 1_555 1_555
C27 N8 1_555 1_555
C28 C29 1_555 1_555
Zn1 I1 1_555 1_555
Zn4 I3 1_555 1_555
I4 Zn4 1_555 1_555
C1 H1 1_555 1_555
C2 C1 1_555 1_555
H2 C2 1_555 1_555
C5 C2 1_555 1_555
C15 H11 1_555 1_555
C16 C15 1_555 1_555
H12 C16 1_555 1_555
C19 H13 1_555 1_555
C20 C19 1_555 1_555
H14 C20 1_555 1_555
C21 H15 1_555 1_555
C22 C21 1_555 1_555
H16 C22 1_555 1_555
C23 C20 1_555 1_555
C24 C23 1_555 1_555
C31 H21 1_555 1_555
C32 C31 1_555 1_555
H22 C32 1_555 1_555
C33 H23 1_555 1_555
C34 C33 1_555 1_555
H24 C34 1_555 1_555
C35 C32 1_555 1_555
C36 C35 1_555 1_555
N1 Zn4 1_555 1_555
N3 Zn1 1_555 1_555
N7 Zn1 1_555 1_555
N9 C31 1_555 1_555
N10 C24 1_555 1_555
N11 C30 1_555 1_555
N12 C24 1_555 1_555
Zn5 N9 1_555 1_555
C1 N1 1_555 1_555
C3 N1 1_555 1_555
C15 N3 1_555 1_555
C19 N7 1_555 1_555
C21 N7 1_555 1_555
C22 C23 1_555 1_555
C30 N10 1_555 1_555
C33 N9 1_555 1_555
C34 C35 1_555 1_555
C36 N11 1_555 1_555
C36 N12 1_555 1_555
Zn5 I5 1_555 1_555
I6 Zn5 1_555 1_555
Zn3 I5_2 1_555 1_555
I6_2 Zn3 1_555 1_555
H4 C4 1_555 1_555
C7 H5 1_555 1_555
C8 C7 1_555 1_555
H6 C8 1_555 1_555
C9 H7 1_555 1_555
C10 C9 1_555 1_555
H8 C10 1_555 1_555
C11 C8 1_555 1_555
C12 C11 1_555 1_555
C18 C17 1_555 1_555
N2 Zn3 1_555 1_555
N4 C6 1_555 1_555
N5 C12 1_555 1_555
N6 C6 1_555 1_555
N14 Zn3 1_555 1_555
C7 N2 1_555 1_555
C9 N2 1_555 1_555
C10 C11 1_555 1_555
C12 N4 1_555 1_555
C18 N5 1_555 1_555
C18 N6 1_555 1_555
Zn1_2 I1_2 1_555 1_555
Zn2 I3_2 1_555 1_555
I2 Zn1_2 1_555 1_555
I4_2 Zn2 1_555 1_555
C1_2 H1_2 1_555 1_555
C2_2 C1_2 1_555 1_555
H2_2 C2_2 1_555 1_555
C3_2 H3_2 1_555 1_555
C4_2 C3_2 1_555 1_555
H4_2 C4_2 1_555 1_555
C5_2 C2_2 1_555 1_555
C6_2 C5_2 1_555 1_555
C7_2 H5_2 1_555 1_555
C8_2 C7_2 1_555 1_555
H6_2 C8_2 1_555 1_555
C9_2 H7_2 1_555 1_555
C10_2 C9_2 1_555 1_555
H8_2 C10_2 1_555 1_555
C11_2 C8_2 1_555 1_555
C12_2 C11_2 1_555 1_555
C13_2 H9_2 1_555 1_555
C14_2 C13_2 1_555 1_555
H10_2 C14_2 1_555 1_555
C15_2 H11_2 1_555 1_555
C16_2 C15_2 1_555 1_555
H12_2 C16_2 1_555 1_555
C17_2 C14_2 1_555 1_555
C18_2 C17_2 1_555 1_555
C19_2 H13_2 1_555 1_555
C20_2 C19_2 1_555 1_555
H14_2 C20_2 1_555 1_555
C21_2 H15_2 1_555 1_555
C22_2 C21_2 1_555 1_555
H16_2 C22_2 1_555 1_555
C23_2 C20_2 1_555 1_555
C24_2 C23_2 1_555 1_555
C25_2 H17_2 1_555 1_555
C26_2 C25_2 1_555 1_555
H18_2 C26_2 1_555 1_555
C27_2 H19_2 1_555 1_555
C28_2 C27_2 1_555 1_555
H20_2 C28_2 1_555 1_555
C29_2 C26_2 1_555 1_555
C30_2 C29_2 1_555 1_555
C31_2 H21_2 1_555 1_555
C32_2 C31_2 1_555 1_555
H22_2 C32_2 1_555 1_555
C33_2 H23_2 1_555 1_555
C34_2 C33_2 1_555 1_555
H24_2 C34_2 1_555 1_555
C35_2 C32_2 1_555 1_555
C36_2 C35_2 1_555 1_555
N1_2 Zn2 1_555 1_555
N3_2 Zn1_2 1_555 1_555
N4_2 C6_2 1_555 1_555
N5_2 C12_2 1_555 1_555
N6_2 C6_2 1_555 1_555
N7_2 Zn1_2 1_555 1_555
N8_2 C25_2 1_555 1_555
N14_2 C31_2 1_555 1_555
N10_2 C24_2 1_555 1_555
N11_2 C30_2 1_555 1_555
N12_2 C24_2 1_555 1_555
Zn4_2 N8_2 1_555 1_555
N13 Zn2 1_555 1_555
C1_2 N1_2 1_555 1_555
C3_2 N1_2 1_555 1_555
C4_2 C5_2 1_555 1_555
C7_2 N2_2 1_555 1_555
C9_2 N2_2 1_555 1_555
C10_2 C11_2 1_555 1_555
C12_2 N4_2 1_555 1_555
C13_2 N3_2 1_555 1_555
C15_2 N3_2 1_555 1_555
C16_2 C17_2 1_555 1_555
C18_2 N5_2 1_555 1_555
C18_2 N6_2 1_555 1_555
C19_2 N7_2 1_555 1_555
C21_2 N7_2 1_555 1_555
C22_2 C23_2 1_555 1_555
C27_2 N8_2 1_555 1_555
C28_2 C29_2 1_555 1_555
C30_2 N10_2 1_555 1_555
C33_2 N14_2 1_555 1_555
C34_2 C35_2 1_555 1_555
C36_2 N11_2 1_555 1_555
C36_2 N12_2 1_555 1_555
Zn4_2 I3_3 1_555 1_555
I4_3 Zn4_2 1_555 1_555
C1_3 H1_3 1_555 1_555
C2_3 C1_3 1_555 1_555
H2_3 C2_3 1_555 1_555
C3_3 H3_3 1_555 1_555
C4_3 C3_3 1_555 1_555
H4_3 C4_3 1_555 1_555
C5_3 C2_3 1_555 1_555
C6_3 C5_3 1_555 1_555
C7_3 H5_3 1_555 1_555
C8_3 C7_3 1_555 1_555
H6_3 C8_3 1_555 1_555
C9_3 H7_3 1_555 1_555
C10_3 C9_3 1_555 1_555
H8_3 C10_3 1_555 1_555
C11_3 C8_3 1_555 1_555
C12_3 C11_3 1_555 1_555
H12_3 C16_3 1_555 1_555
C18_3 C17_3 1_555 1_555
N1_3 Zn4_2 1_555 1_555
N4_3 C6_3 1_555 1_555
N5_3 C12_3 1_555 1_555
N6_3 C6_3 1_555 1_555
C1_3 N1_3 1_555 1_555
C3_3 N1_3 1_555 1_555
C4_3 C5_3 1_555 1_555
C7_3 N2_3 1_555 1_555
C9_3 N2_3 1_555 1_555
C10_3 C11_3 1_555 1_555
C12_3 N4_3 1_555 1_555
C16_3 C17_3 1_555 1_555
C18_3 N5_3 1_555 1_555
C18_3 N6_3 1_555 1_555
Zn1_3 I1_3 1_555 1_555
C13_3 H9_3 1_555 1_555
C14_3 C13_3 1_555 1_555
H10_3 C14_3 1_555 1_555
C15_3 H11_3 1_555 1_555
C19_3 H13_3 1_555 1_555
C20_3 C19_3 1_555 1_555
H14_3 C20_3 1_555 1_555
C21_3 H15_3 1_555 1_555
C22_3 C21_3 1_555 1_555
H16_3 C22_3 1_555 1_555
C23_3 C20_3 1_555 1_555
C24_3 C23_3 1_555 1_555
C25_3 H17_3 1_555 1_555
C26_3 C25_3 1_555 1_555
H18_3 C26_3 1_555 1_555
C27_3 H19_3 1_555 1_555
C28_3 C27_3 1_555 1_555
H20_3 C28_3 1_555 1_555
C29_3 C26_3 1_555 1_555
C30_3 C29_3 1_555 1_555
C31_3 H21_3 1_555 1_555
C32_3 C31_3 1_555 1_555
H22_3 C32_3 1_555 1_555
C33_3 H23_3 1_555 1_555
C34_3 C33_3 1_555 1_555
H24_3 C34_3 1_555 1_555
C35_3 C32_3 1_555 1_555
C36_3 C35_3 1_555 1_555
N3_3 Zn1_3 1_555 1_555
N7_3 Zn1_3 1_555 1_555
N13 C25_3 1_555 1_555
N14 C31_3 1_555 1_555
N10_3 C24_3 1_555 1_555
N11_3 C30_3 1_555 1_555
N12_3 C24_3 1_555 1_555
C13_3 N3_3 1_555 1_555
C15_3 N3_3 1_555 1_555
C19_3 N7_3 1_555 1_555
C21_3 N7_3 1_555 1_555
C22_3 C23_3 1_555 1_555
C27_3 N13 1_555 1_555
C28_3 C29_3 1_555 1_555
C30_3 N10_3 1_555 1_555
C33_3 N14 1_555 1_555
C34_3 C35_3 1_555 1_555
C36_3 N11_3 1_555 1_555
C36_3 N12_3 1_555 1_555
Zn1_4 I1_4 1_555 1_555
I2_2 Zn1_4 1_555 1_555
C15_4 H11_4 1_555 1_555
C19_4 H13_4 1_555 1_555
C20_4 C19_4 1_555 1_555
H14_4 C20_4 1_555 1_555
C21_4 H15_4 1_555 1_555
C22_4 C21_4 1_555 1_555
H16_4 C22_4 1_555 1_555
C23_4 C20_4 1_555 1_555
C24_4 C23_4 1_555 1_555
C31_4 H21_4 1_555 1_555
C32_4 C31_4 1_555 1_555
H22_4 C32_4 1_555 1_555
C33_4 H23_4 1_555 1_555
C34_4 C33_4 1_555 1_555
H24_4 C34_4 1_555 1_555
C35_4 C32_4 1_555 1_555
C36_4 C35_4 1_555 1_555
N3_4 Zn1_4 1_555 1_555
N7_4 Zn1_4 1_555 1_555
N9_2 C31_4 1_555 1_555
N10_4 C24_4 1_555 1_555
N11_4 C30_4 1_555 1_555
N12_4 C24_4 1_555 1_555
C15_4 N3_4 1_555 1_555
C19_4 N7_4 1_555 1_555
C21_4 N7_4 1_555 1_555
C22_4 C23_4 1_555 1_555
C30_4 N10_4 1_555 1_555
C33_4 N9_2 1_555 1_555
C34_4 C35_4 1_555 1_555
C36_4 N11_4 1_555 1_555
C36_4 N12_4 1_555 1_555
Zn2_2 I3_4 1_555 1_555
I4_4 Zn2_2 1_555 1_555
C1_4 H1_4 1_555 1_555
C2_4 C1_4 1_555 1_555
H2_4 C2_4 1_555 1_555
C5_4 C2_4 1_555 1_555
H12_4 C16_4 1_555 1_555
N1_4 Zn2_2 1_555 1_555
N13_2 Zn2_2 1_555 1_555
C1_4 N1_4 1_555 1_555
C3_4 N1_4 1_555 1_555
Zn3_2 I5_3 1_555 1_555
I6_3 Zn3_2 1_555 1_555
H4_4 C4_4 1_555 1_555
C7_4 H5_4 1_555 1_555
C8_4 C7_4 1_555 1_555
H6_4 C8_4 1_555 1_555
C9_4 H7_4 1_555 1_555
C10_4 C9_4 1_555 1_555
H8_4 C10_4 1_555 1_555
C11_4 C8_4 1_555 1_555
C12_4 C11_4 1_555 1_555
C13_4 H9_4 1_555 1_555
C14_4 C13_4 1_555 1_555
H10_4 C14_4 1_555 1_555
C17_4 C14_4 1_555 1_555
C18_4 C17_4 1_555 1_555
C25_4 H17_4 1_555 1_555
C26_4 C25_4 1_555 1_555
H18_4 C26_4 1_555 1_555
C27_4 H19_4 1_555 1_555
C28_4 C27_4 1_555 1_555
H20_4 C28_4 1_555 1_555
C29_4 C26_4 1_555 1_555
N2_4 Zn3_2 1_555 1_555
N4_4 C6_4 1_555 1_555
N5_4 C12_4 1_555 1_555
N6_4 C6_4 1_555 1_555
N13_2 C25_4 1_555 1_555
C7_4 N2_4 1_555 1_555
C9_4 N2_4 1_555 1_555
C10_4 C11_4 1_555 1_555
C12_4 N4_4 1_555 1_555
C18_4 N5_4 1_555 1_555
C18_4 N6_4 1_555 1_555
C27_4 N13_2 1_555 1_555
C28_4 C29_4 1_555 1_555
Zn5_2 I5_4 1_555 1_555
I6_4 Zn5_2 1_555 1_555
Zn5_3 I5_5 1_555 1_555
I6_5 Zn5_3 1_555 1_555
Zn2_3 I3_5 1_555 1_555
I4_5 Zn2_3 1_555 1_555
C1_5 H1_5 1_555 1_555
C2_5 C1_5 1_555 1_555
H2_5 C2_5 1_555 1_555
C5_5 C2_5 1_555 1_555
H12_5 C16_5 1_555 1_555
N1_5 Zn2_3 1_555 1_555
N13_3 Zn2_3 1_555 1_555
C1_5 N1_5 1_555 1_555
C3_5 N1_5 1_555 1_555
Zn3_3 I5_6 1_555 1_555
I6_6 Zn3_3 1_555 1_555
H4_5 C4_5 1_555 1_555
C7_5 H5_5 1_555 1_555
C8_5 C7_5 1_555 1_555
H6_5 C8_5 1_555 1_555
C9_5 H7_5 1_555 1_555
C10_5 C9_5 1_555 1_555
H8_5 C10_5 1_555 1_555
C11_5 C8_5 1_555 1_555
C12_5 C11_5 1_555 1_555
C13_5 H9_5 1_555 1_555
C14_5 C13_5 1_555 1_555
H10_5 C14_5 1_555 1_555
C17_5 C14_5 1_555 1_555
C18_5 C17_5 1_555 1_555
C25_5 H17_5 1_555 1_555
C26_5 C25_5 1_555 1_555
H18_5 C26_5 1_555 1_555
C27_5 H19_5 1_555 1_555
C28_5 C27_5 1_555 1_555
H20_5 C28_5 1_555 1_555
C29_5 C26_5 1_555 1_555
N2_5 Zn3_3 1_555 1_555
N4_5 C6_5 1_555 1_555
N5_5 C12_5 1_555 1_555
N6_5 C6_5 1_555 1_555
N13_3 C25_5 1_555 1_555
C7_5 N2_5 1_555 1_555
C9_5 N2_5 1_555 1_555
C10_5 C11_5 1_555 1_555
C12_5 N4_5 1_555 1_555
C18_5 N5_5 1_555 1_555
C18_5 N6_5 1_555 1_555
C27_5 N13_3 1_555 1_555
C28_5 C29_5 1_555 1_555
Zn1_5 I1_5 1_555 1_555
I2_5 Zn1_5 1_555 1_555
C15_5 H11_5 1_555 1_555
C19_5 H13_5 1_555 1_555
C20_5 C19_5 1_555 1_555
H14_5 C20_5 1_555 1_555
C21_5 H15_5 1_555 1_555
C22_5 C21_5 1_555 1_555
H16_5 C22_5 1_555 1_555
C23_5 C20_5 1_555 1_555
C24_5 C23_5 1_555 1_555
C31_5 H21_5 1_555 1_555
C32_5 C31_5 1_555 1_555
H22_5 C32_5 1_555 1_555
C33_5 H23_5 1_555 1_555
C34_5 C33_5 1_555 1_555
H24_5 C34_5 1_555 1_555
C35_5 C32_5 1_555 1_555
C36_5 C35_5 1_555 1_555
N3_5 Zn1_5 1_555 1_555
N7_5 Zn1_5 1_555 1_555
N9_3 C31_5 1_555 1_555
N10_5 C24_5 1_555 1_555
N11_5 C30_5 1_555 1_555
N12_5 C24_5 1_555 1_555
C15_5 N3_5 1_555 1_555
C19_5 N7_5 1_555 1_555
C21_5 N7_5 1_555 1_555
C22_5 C23_5 1_555 1_555
C30_5 N10_5 1_555 1_555
C33_5 N9_3 1_555 1_555
C34_5 C35_5 1_555 1_555
C36_5 N11_5 1_555 1_555
C36_5 N12_5 1_555 1_555
Zn3_4 I5_7 1_555 1_555
I6_7 Zn3_4 1_555 1_555
H4_6 C4_6 1_555 1_555
C7_6 H5_6 1_555 1_555
C8_6 C7_6 1_555 1_555
H6_6 C8_6 1_555 1_555
C9_6 H7_6 1_555 1_555
C10_6 C9_6 1_555 1_555
H8_6 C10_6 1_555 1_555
C11_6 C8_6 1_555 1_555
C12_6 C11_6 1_555 1_555
C18_6 C17_6 1_555 1_555
N2_6 Zn3_4 1_555 1_555
N4_6 C6_6 1_555 1_555
N5_6 C12_6 1_555 1_555
N6_6 C6_6 1_555 1_555
N14_3 Zn3_4 1_555 1_555
C7_6 N2_6 1_555 1_555
C9_6 N2_6 1_555 1_555
C10_6 C11_6 1_555 1_555
C12_6 N4_6 1_555 1_555
C18_6 N5_6 1_555 1_555
C18_6 N6_6 1_555 1_555
Zn1_6 I1_6 1_555 1_555
Zn2_4 I3_6 1_555 1_555
I2_6 Zn1_6 1_555 1_555
I4_6 Zn2_4 1_555 1_555
C1_6 H1_6 1_555 1_555
C2_6 C1_6 1_555 1_555
H2_6 C2_6 1_555 1_555
C3_6 H3_7 1_555 1_555
C4_7 C3_6 1_555 1_555
H4_7 C4_7 1_555 1_555
C5_6 C2_6 1_555 1_555
C6_7 C5_6 1_555 1_555
C7_7 H5_7 1_555 1_555
C8_7 C7_7 1_555 1_555
H6_7 C8_7 1_555 1_555
C9_7 H7_7 1_555 1_555
C10_7 C9_7 1_555 1_555
H8_7 C10_7 1_555 1_555
C11_7 C8_7 1_555 1_555
C12_7 C11_7 1_555 1_555
C13_6 H9_6 1_555 1_555
C14_6 C13_6 1_555 1_555
H10_6 C14_6 1_555 1_555
C15_6 H11_6 1_555 1_555
C16_6 C15_6 1_555 1_555
H12_6 C16_6 1_555 1_555
C17_7 C14_6 1_555 1_555
C18_7 C17_7 1_555 1_555
C19_6 H13_6 1_555 1_555
C20_6 C19_6 1_555 1_555
H14_6 C20_6 1_555 1_555
C21_6 H15_6 1_555 1_555
C22_6 C21_6 1_555 1_555
H16_6 C22_6 1_555 1_555
C23_6 C20_6 1_555 1_555
C24_6 C23_6 1_555 1_555
C25_6 H17_6 1_555 1_555
C26_6 C25_6 1_555 1_555
H18_6 C26_6 1_555 1_555
C27_6 H19_6 1_555 1_555
C28_6 C27_6 1_555 1_555
H20_6 C28_6 1_555 1_555
C29_6 C26_6 1_555 1_555
C30_6 C29_6 1_555 1_555
C31_6 H21_6 1_555 1_555
C32_6 C31_6 1_555 1_555
H22_6 C32_6 1_555 1_555
C33_6 H23_6 1_555 1_555
C34_6 C33_6 1_555 1_555
H24_6 C34_6 1_555 1_555
C35_6 C32_6 1_555 1_555
C36_6 C35_6 1_555 1_555
N1_6 Zn2_4 1_555 1_555
N3_6 Zn1_6 1_555 1_555
N4_7 C6_7 1_555 1_555
N5_7 C12_7 1_555 1_555
N6_7 C6_7 1_555 1_555
N7_6 Zn1_6 1_555 1_555
N8_3 C25_6 1_555 1_555
N14_4 C31_6 1_555 1_555
N10_6 C24_6 1_555 1_555
N11_6 C30_6 1_555 1_555
N12_6 C24_6 1_555 1_555
Zn4_3 N8_3 1_555 1_555
N13_4 Zn2_4 1_555 1_555
C1_6 N1_6 1_555 1_555
C3_6 N1_6 1_555 1_555
C4_7 C5_6 1_555 1_555
C7_7 N2_7 1_555 1_555
C9_7 N2_7 1_555 1_555
C10_7 C11_7 1_555 1_555
C12_7 N4_7 1_555 1_555
C13_6 N3_6 1_555 1_555
C15_6 N3_6 1_555 1_555
C16_6 C17_7 1_555 1_555
C18_7 N5_7 1_555 1_555
C18_7 N6_7 1_555 1_555
C19_6 N7_6 1_555 1_555
C21_6 N7_6 1_555 1_555
C22_6 C23_6 1_555 1_555
C27_6 N8_3 1_555 1_555
C28_6 C29_6 1_555 1_555
C30_6 N10_6 1_555 1_555
C33_6 N14_4 1_555 1_555
C34_6 C35_6 1_555 1_555
C36_6 N11_6 1_555 1_555
C36_6 N12_6 1_555 1_555
Zn1_7 I1_7 1_555 1_555
C13_7 H9_7 1_555 1_555
C14_7 C13_7 1_555 1_555
H10_7 C14_7 1_555 1_555
C15_7 H11_7 1_555 1_555
C19_7 H13_7 1_555 1_555
C20_7 C19_7 1_555 1_555
H14_7 C20_7 1_555 1_555
C21_7 H15_7 1_555 1_555
C22_7 C21_7 1_555 1_555
H16_7 C22_7 1_555 1_555
C23_7 C20_7 1_555 1_555
C24_7 C23_7 1_555 1_555
C25_7 H17_7 1_555 1_555
C26_7 C25_7 1_555 1_555
H18_7 C26_7 1_555 1_555
C27_7 H19_7 1_555 1_555
C28_7 C27_7 1_555 1_555
H20_7 C28_7 1_555 1_555
C29_7 C26_7 1_555 1_555
C30_7 C29_7 1_555 1_555
C31_7 H21_7 1_555 1_555
C32_7 C31_7 1_555 1_555
H22_7 C32_7 1_555 1_555
C33_7 H23_7 1_555 1_555
C34_7 C33_7 1_555 1_555
H24_7 C34_7 1_555 1_555
C35_7 C32_7 1_555 1_555
C36_7 C35_7 1_555 1_555
N3_7 Zn1_7 1_555 1_555
N7_7 Zn1_7 1_555 1_555
N13_4 C25_7 1_555 1_555
N14_3 C31_7 1_555 1_555
N10_7 C24_7 1_555 1_555
N11_7 C30_7 1_555 1_555
N12_7 C24_7 1_555 1_555
C13_7 N3_7 1_555 1_555
C15_7 N3_7 1_555 1_555
C19_7 N7_7 1_555 1_555
C21_7 N7_7 1_555 1_555
C22_7 C23_7 1_555 1_555
C27_7 N13_4 1_555 1_555
C28_7 C29_7 1_555 1_555
C30_7 N10_7 1_555 1_555
C33_7 N14_3 1_555 1_555
C34_7 C35_7 1_555 1_555
C36_7 N11_7 1_555 1_555
C36_7 N12_7 1_555 1_555
Zn4_3 I3_7 1_555 1_555
I4_7 Zn4_3 1_555 1_555
C1_7 H1_7 1_555 1_555
C2_7 C1_7 1_555 1_555
H2_7 C2_7 1_555 1_555
C3_7 H3_8 1_555 1_555
C4_8 C3_7 1_555 1_555
H4_8 C4_8 1_555 1_555
C5_7 C2_7 1_555 1_555
C6_8 C5_7 1_555 1_555
C7_8 H5_8 1_555 1_555
C8_8 C7_8 1_555 1_555
H6_8 C8_8 1_555 1_555
C9_8 H7_8 1_555 1_555
C10_8 C9_8 1_555 1_555
H8_8 C10_8 1_555 1_555
C11_8 C8_8 1_555 1_555
C12_8 C11_8 1_555 1_555
H12_7 C16_7 1_555 1_555
C18_8 C17_8 1_555 1_555
N1_7 Zn4_3 1_555 1_555
N4_8 C6_8 1_555 1_555
N5_8 C12_8 1_555 1_555
N6_8 C6_8 1_555 1_555
C1_7 N1_7 1_555 1_555
C3_7 N1_7 1_555 1_555
C4_8 C5_7 1_555 1_555
C7_8 N2_8 1_555 1_555
C9_8 N2_8 1_555 1_555
C10_8 C11_8 1_555 1_555
C12_8 N4_8 1_555 1_555
C16_7 C17_8 1_555 1_555
C18_8 N5_8 1_555 1_555
C18_8 N6_8 1_555 1_555
C13_8 H9_8 1_555 1_555
C14_8 C13_8 1_555 1_555
H10_8 C14_8 1_555 1_555
C25_8 H17_8 1_555 1_555
C26_8 C25_8 1_555 1_555
H18_8 C26_8 1_555 1_555
C27_8 H19_8 1_555 1_555
C28_8 C27_8 1_555 1_555
H20_8 C28_8 1_555 1_555
C29_8 C26_8 1_555 1_555
N8_4 C25_8 1_555 1_555
Zn4_4 N8_4 1_555 1_555
C27_8 N8_4 1_555 1_555
C28_8 C29_8 1_555 1_555
Zn1_8 I1_8 1_555 1_555
Zn4_4 I3_8 1_555 1_555
I4_8 Zn4_4 1_555 1_555
C1_8 H1_8 1_555 1_555
C2_8 C1_8 1_555 1_555
H2_8 C2_8 1_555 1_555
C5_8 C2_8 1_555 1_555
C15_8 H11_8 1_555 1_555
C16_8 C15_8 1_555 1_555
H12_8 C16_8 1_555 1_555
C19_8 H13_8 1_555 1_555
C20_8 C19_8 1_555 1_555
H14_8 C20_8 1_555 1_555
C21_8 H15_8 1_555 1_555
C22_8 C21_8 1_555 1_555
H16_8 C22_8 1_555 1_555
C23_8 C20_8 1_555 1_555
C24_8 C23_8 1_555 1_555
C31_8 H21_8 1_555 1_555
C32_8 C31_8 1_555 1_555
H22_8 C32_8 1_555 1_555
C33_8 H23_8 1_555 1_555
C34_8 C33_8 1_555 1_555
H24_8 C34_8 1_555 1_555
C35_8 C32_8 1_555 1_555
C36_8 C35_8 1_555 1_555
N1_8 Zn4_4 1_555 1_555
N3_8 Zn1_8 1_555 1_555
N7_8 Zn1_8 1_555 1_555
N9_4 C31_8 1_555 1_555
N10_8 C24_8 1_555 1_555
N11_8 C30_8 1_555 1_555
N12_8 C24_8 1_555 1_555
Zn5_4 N9_4 1_555 1_555
C1_8 N1_8 1_555 1_555
C3_8 N1_8 1_555 1_555
C15_8 N3_8 1_555 1_555
C19_8 N7_8 1_555 1_555
C21_8 N7_8 1_555 1_555
C22_8 C23_8 1_555 1_555
C30_8 N10_8 1_555 1_555
C33_8 N9_4 1_555 1_555
C34_8 C35_8 1_555 1_555
C36_8 N11_8 1_555 1_555
C36_8 N12_8 1_555 1_555
Zn5_4 I5_8 1_555 1_555
I6_8 Zn5_4 1_555 1_555

#END
