
###############################################################################
#
# This file contains modified crystal structure data generated from the
# MOF subset of the Cambridge Structural Database (CSD) v543 
# hosted by the Cambridge Crystallographic Data Centre (CCDC).
#
# This work is licensed under the Creative Commons
# Attribution-NonCommercial-ShareAlike 4.0 International License.
# To view a copy of this license, visit
# http://creativecommons.org/licenses/by-nc-sa/4.0/
# or send a letter to
# Creative Commons, PO Box 1866, Mountain View, CA 94042, USA.
#
# CIF created using the CSD Python API on 29 September 2022
# The structure has been converted into the P1 space group
# The structure has a 3D framework
# The original CSD entry SOMFIK is in the tetragonal crystal system
# The original CSD entry SOMFIK is in a Sohncke space group
# The framework has been calculated to contain at least 10.0% void space
# The void calculation uses a probe of radius 1.32A, grid spacing 0.4
# The framework is charged, counterions have been retained in the structure
#
###############################################################################

data_SOMFIK
_chemical_formula_moiety         '(C48 H16 In8 O30 S8 4-)n'
_symmetry_cell_setting           triclinic
_symmetry_space_group_name_H-M   'P 1'
_symmetry_Int_Tables_number      1
_space_group_name_Hall           'P 1'
loop_
_symmetry_equiv_pos_site_id
_symmetry_equiv_pos_as_xyz
1 x,y,z
_cell_length_a                   13.5100(1)
_cell_length_b                   13.5100(1)
_cell_length_c                   16.0684(3)
_cell_angle_alpha                90
_cell_angle_beta                 90
_cell_angle_gamma                90
_cell_volume                     2932.81
loop_
_atom_site_label
_atom_site_type_symbol
_atom_site_fract_x
_atom_site_fract_y
_atom_site_fract_z
In1 In 0.58169(6) 0.0000 0.2500
S1 S 0.2862(2) 0.2218(2) 0.13937(16)
O1 O 0.4555(6) 0.1239(6) 0.2330(4)
O2 O 0.5020(6) 0.0260(5) 0.1324(4)
O4 O 0.1146(5) 0.3472(5) 0.0883(4)
C1 C 0.3681(7) 0.1371(8) 0.1050(6)
C2 C 0.3540(8) 0.1149(9) 0.0229(6)
C4 C 0.2301(7) 0.2275(7) 0.0436(6)
C5 C 0.4475(8) 0.0937(8) 0.1605(7)
C6 C 0.1468(7) 0.2941(7) 0.0288(6)
In2 In -0.0000 0.41831(6) 0.0000
O8 O 0.6992(6) 0.1073(6) 0.2082(4)
O11 O 0.6528(5) 0.1146(5) 0.3383(4)
O3 O 0.1073(6) 0.3008(6) 0.9582(4)
H1 H 0.3948 0.0721 0.9933
C3 C 0.2722(8) 0.1625(9) 0.9875(6)
H2 H 0.2494 0.1519 0.9336
In2_2 In 0.0000 0.41831(6) 1.0000
In3 In 1.0000 0.58169(6) 0.5000
In3_2 In 0.41831(6) 1.0000 0.7500
S1_2 S 0.7782(2) 0.2862(2) 0.38937(16)
O1_2 O 0.8761(6) 0.4555(6) 0.4830(4)
O2_2 O 0.9740(5) 0.5020(6) 0.3824(4)
C1_2 C 0.8629(8) 0.3681(7) 0.3550(6)
C2_2 C 0.8851(9) 0.3540(8) 0.2729(6)
H1_2 H 0.9279 0.3948 0.2433
C3_2 C 0.8375(9) 0.2722(8) 0.2375(6)
H2_2 H 0.8481 0.2494 0.1836
C4_2 C 0.7725(7) 0.2301(7) 0.2936(6)
C5_2 C 0.9063(8) 0.4475(8) 0.4105(7)
C6_2 C 0.7059(7) 0.1468(7) 0.2788(6)
O8_2 O 0.8927(6) 0.6992(6) 0.4582(4)
O11_2 O 0.8854(5) 0.6528(5) 0.5883(4)
S1_3 S 0.7138(2) 0.7782(2) 0.63937(16)
O1_3 O 0.5445(6) 0.8761(6) 0.7330(4)
O2_3 O 0.4980(6) 0.9740(5) 0.6324(4)
C1_3 C 0.6319(7) 0.8629(8) 0.6050(6)
C2_3 C 0.6460(8) 0.8851(9) 0.5229(6)
H1_3 H 0.6052 0.9279 0.4933
C3_3 C 0.7278(8) 0.8375(9) 0.4875(6)
H2_3 H 0.7506 0.8481 0.4336
C4_3 C 0.7699(7) 0.7725(7) 0.5436(6)
C5_3 C 0.5525(8) 0.9063(8) 0.6605(7)
C6_3 C 0.8532(7) 0.7059(7) 0.5288(6)
O8_3 O 0.3008(6) 0.8927(6) 0.7082(4)
O11_3 O 0.3472(5) 0.8854(5) 0.8383(4)
S1_4 S 0.2218(2) 0.7138(2) 0.88937(16)
O1_4 O 0.1239(6) 0.5445(6) 0.9830(4)
O2_4 O 0.0260(5) 0.4980(6) 0.8824(4)
C1_4 C 0.1371(8) 0.6319(7) 0.8550(6)
C2_4 C 0.1149(9) 0.6460(8) 0.7729(6)
H1_4 H 0.0721 0.6052 0.7433
C3_4 C 0.1625(9) 0.7278(8) 0.7375(6)
H2_4 H 0.1519 0.7506 0.6836
C4_4 C 0.2275(7) 0.7699(7) 0.7936(6)
C5_4 C 0.0937(8) 0.5525(8) 0.9105(7)
C6_4 C 0.2941(7) 0.8532(7) 0.7788(6)
In1_2 In 0.58169(6) 1.0000 0.2500
In3_3 In 0.0000 0.58169(6) 0.5000
S2 S 0.2862(2) 0.7782(2) 0.36063(16)
O5 O 0.4555(6) 0.8761(6) 0.2670(4)
O6 O 0.5020(6) 0.9740(5) 0.3676(4)
O7 O 0.1073(6) 0.6992(6) 0.5418(4)
O9 O 0.6992(6) 0.8927(6) 0.2918(4)
O10 O 0.1146(5) 0.6528(5) 0.4117(4)
O12 O 0.6528(5) 0.8854(5) 0.1617(4)
C7 C 0.3681(7) 0.8629(8) 0.3950(6)
C8 C 0.3540(8) 0.8851(9) 0.4771(6)
H3 H 0.3948 0.9279 0.5067
C9 C 0.2722(8) 0.8375(9) 0.5125(6)
H4 H 0.2494 0.8481 0.5664
C10 C 0.2301(7) 0.7725(7) 0.4564(6)
C11 C 0.4475(8) 0.9063(8) 0.3395(7)
C12 C 0.1468(7) 0.7059(7) 0.4712(6)
In2_3 In 1.0000 0.41831(6) 0.0000
In2_4 In 1.0000 0.41831(6) 1.0000
In3_4 In 0.41831(6) -0.0000 0.7500
S2_2 S 0.2218(2) 0.2862(2) 0.61063(16)
O5_2 O 0.1239(6) 0.4555(6) 0.5170(4)
O6_2 O 0.0260(5) 0.5020(6) 0.6176(4)
O7_2 O 0.3008(6) 0.1073(6) 0.7918(4)
O10_2 O 0.3472(5) 0.1146(5) 0.6617(4)
C7_2 C 0.1371(8) 0.3681(7) 0.6450(6)
C8_2 C 0.1149(9) 0.3540(8) 0.7271(6)
H3_2 H 0.0721 0.3948 0.7567
C9_2 C 0.1625(9) 0.2722(8) 0.7625(6)
H4_2 H 0.1519 0.2494 0.8164
C10_2 C 0.2275(7) 0.2301(7) 0.7064(6)
C11_2 C 0.0937(8) 0.4475(8) 0.5895(7)
C12_2 C 0.2941(7) 0.1468(7) 0.7212(6)
O7_3 O 0.8927(6) 0.3008(6) 0.0418(4)
H3_3 H 0.6052 0.0721 0.0067
C9_3 C 0.7278(8) 0.1625(9) 0.0125(6)
H4_3 H 0.7506 0.1519 0.0664
S2_3 S 0.7138(2) 0.2218(2) 0.86063(16)
O5_3 O 0.5445(6) 0.1239(6) 0.7670(4)
O6_3 O 0.4980(6) 0.0260(5) 0.8676(4)
O10_3 O 0.8854(5) 0.3472(5) 0.9117(4)
C7_3 C 0.6319(7) 0.1371(8) 0.8950(6)
C8_3 C 0.6460(8) 0.1149(9) 0.9771(6)
C10_3 C 0.7699(7) 0.2275(7) 0.9564(6)
C11_3 C 0.5525(8) 0.0937(8) 0.8395(7)
C12_3 C 0.8532(7) 0.2941(7) 0.9712(6)
S2_4 S 0.7782(2) 0.7138(2) 0.11063(16)
O5_4 O 0.8761(6) 0.5445(6) 0.0170(4)
O6_4 O 0.9740(5) 0.4980(6) 0.1176(4)
C7_4 C 0.8629(8) 0.6319(7) 0.1450(6)
C8_4 C 0.8851(9) 0.6460(8) 0.2271(6)
H3_4 H 0.9279 0.6052 0.2567
C9_4 C 0.8375(9) 0.7278(8) 0.2625(6)
H4_4 H 0.8481 0.7506 0.3164
C10_4 C 0.7725(7) 0.7699(7) 0.2064(6)
C11_4 C 0.9063(8) 0.5525(8) 0.0895(7)
C12_4 C 0.7059(7) 0.8532(7) 0.2212(6)
loop_
_geom_bond_atom_site_label_1
_geom_bond_atom_site_label_2
_geom_bond_site_symmetry_1
_geom_bond_site_symmetry_2
In1 O1 1_555 1_555
S1 C1 1_555 1_555
O1 C5 1_555 1_555
O2 In1 1_555 1_555
O4 C6 1_555 1_555
C1 C2 1_555 1_555
C4 S1 1_555 1_555
C5 O2 1_555 1_555
C6 C4 1_555 1_555
O8 In1 1_555 1_555
O11 In1 1_555 1_555
O4 In2 1_555 1_555
C1 C5 1_555 1_555
H2 C3 1_555 1_555
In2_2 O3 1_555 1_555
In3 O1_2 1_555 1_555
S1_2 C1_2 1_555 1_555
O1_2 C5_2 1_555 1_555
O2_2 In3 1_555 1_555
O8 C6_2 1_555 1_555
O11 C6_2 1_555 1_555
C1_2 C2_2 1_555 1_555
C2_2 H1_2 1_555 1_555
C3_2 C2_2 1_555 1_555
H2_2 C3_2 1_555 1_555
C4_2 S1_2 1_555 1_555
C5_2 O2_2 1_555 1_555
C6_2 C4_2 1_555 1_555
O8_2 In3 1_555 1_555
O11_2 In3 1_555 1_555
C1_2 C5_2 1_555 1_555
C3_2 C4_2 1_555 1_555
In3_2 O1_3 1_555 1_555
S1_3 C1_3 1_555 1_555
O1_3 C5_3 1_555 1_555
O2_3 In3_2 1_555 1_555
O8_2 C6_3 1_555 1_555
O11_2 C6_3 1_555 1_555
C1_3 C2_3 1_555 1_555
C2_3 H1_3 1_555 1_555
C3_3 C2_3 1_555 1_555
H2_3 C3_3 1_555 1_555
C4_3 S1_3 1_555 1_555
C5_3 O2_3 1_555 1_555
C6_3 C4_3 1_555 1_555
O8_3 In3_2 1_555 1_555
O11_3 In3_2 1_555 1_555
C1_3 C5_3 1_555 1_555
C3_3 C4_3 1_555 1_555
In2_2 O1_4 1_555 1_555
S1_4 C1_4 1_555 1_555
O1_4 C5_4 1_555 1_555
O2_4 In2_2 1_555 1_555
O8_3 C6_4 1_555 1_555
O11_3 C6_4 1_555 1_555
C1_4 C2_4 1_555 1_555
C2_4 H1_4 1_555 1_555
C3_4 C2_4 1_555 1_555
H2_4 C3_4 1_555 1_555
C4_4 S1_4 1_555 1_555
C5_4 O2_4 1_555 1_555
C6_4 C4_4 1_555 1_555
C1_4 C5_4 1_555 1_555
C3_4 C4_4 1_555 1_555
In3_3 O7 1_555 1_555
S2 C7 1_555 1_555
O5 In1_2 1_555 1_555
O6 In1_2 1_555 1_555
O7 C12 1_555 1_555
O9 In1_2 1_555 1_555
O10 In3_3 1_555 1_555
O12 In1_2 1_555 1_555
C7 C8 1_555 1_555
C8 H3 1_555 1_555
C9 C8 1_555 1_555
H4 C9 1_555 1_555
C10 S2 1_555 1_555
C11 O5 1_555 1_555
C12 O10 1_555 1_555
O6 C11 1_555 1_555
C7 C11 1_555 1_555
C9 C10 1_555 1_555
C10 C12 1_555 1_555
In3_4 O7_2 1_555 1_555
S2_2 C7_2 1_555 1_555
O5_2 In3_3 1_555 1_555
O6_2 In3_3 1_555 1_555
O7_2 C12_2 1_555 1_555
O10_2 In3_4 1_555 1_555
C7_2 C8_2 1_555 1_555
C8_2 H3_2 1_555 1_555
C9_2 C8_2 1_555 1_555
H4_2 C9_2 1_555 1_555
C10_2 S2_2 1_555 1_555
C11_2 O5_2 1_555 1_555
C12_2 O10_2 1_555 1_555
O6_2 C11_2 1_555 1_555
C7_2 C11_2 1_555 1_555
C9_2 C10_2 1_555 1_555
C10_2 C12_2 1_555 1_555
In2_3 O7_3 1_555 1_555
H4_3 C9_3 1_555 1_555
S2_3 C7_3 1_555 1_555
O5_3 In3_4 1_555 1_555
O6_3 In3_4 1_555 1_555
O10_3 In2_4 1_555 1_555
C7_3 C8_3 1_555 1_555
C10_3 S2_3 1_555 1_555
C11_3 O5_3 1_555 1_555
C12_3 O10_3 1_555 1_555
O6_3 C11_3 1_555 1_555
C7_3 C11_3 1_555 1_555
C10_3 C12_3 1_555 1_555
S2_4 C7_4 1_555 1_555
O5_4 In2_3 1_555 1_555
O6_4 In2_3 1_555 1_555
O9 C12_4 1_555 1_555
C7_4 C8_4 1_555 1_555
C8_4 H3_4 1_555 1_555
C9_4 C8_4 1_555 1_555
H4_4 C9_4 1_555 1_555
C10_4 S2_4 1_555 1_555
C11_4 O5_4 1_555 1_555
C12_4 O12 1_555 1_555
O6_4 C11_4 1_555 1_555
C7_4 C11_4 1_555 1_555
C9_4 C10_4 1_555 1_555
C10_4 C12_4 1_555 1_555

#END
