
###############################################################################
#
# This file contains modified crystal structure data generated from the
# MOF subset of the Cambridge Structural Database (CSD) v543 
# hosted by the Cambridge Crystallographic Data Centre (CCDC).
#
# This work is licensed under the Creative Commons
# Attribution-NonCommercial-ShareAlike 4.0 International License.
# To view a copy of this license, visit
# http://creativecommons.org/licenses/by-nc-sa/4.0/
# or send a letter to
# Creative Commons, PO Box 1866, Mountain View, CA 94042, USA.
#
# CIF created using the CSD Python API on 29 September 2022
# The structure has been converted into the P1 space group
# The structure has a 3D framework
# The original CSD entry SOMFAC is in the tetragonal crystal system
# The original CSD entry SOMFAC is in a Sohncke space group
# The framework has been calculated to contain at least 10.0% void space
# The void calculation uses a probe of radius 1.32A, grid spacing 0.4
# H atom positions have been added when not included in the experimental data
#
###############################################################################

data_SOMFAC
_chemical_formula_moiety         '(C56 H48 In3 N10 O31 S8 8+)n'
_symmetry_cell_setting           triclinic
_symmetry_space_group_name_H-M   'P 1'
_symmetry_Int_Tables_number      1
_space_group_name_Hall           'P 1'
loop_
_symmetry_equiv_pos_site_id
_symmetry_equiv_pos_as_xyz
1 x,y,z
_cell_length_a                   13.559
_cell_length_b                   13.559
_cell_length_c                   15.6782(2)
_cell_angle_alpha                90
_cell_angle_beta                 90
_cell_angle_gamma                90
_cell_volume                     2882.38
loop_
_atom_site_label
_atom_site_type_symbol
_atom_site_fract_x
_atom_site_fract_y
_atom_site_fract_z
In1 In 0.5000 0.07701(4) 0.0000
O10 O 0.6156(3) 0.1480(4) 0.0925(3)
O11 O 0.3940(4) 0.1943(4) 0.0408(3)
H3 H 0.1125 0.4285 0.0101
C10 C 0.2331(6) 0.3340(6) 0.0126(4)
H4 H 0.2573 0.3426 0.0676
In1_2 In 0.5000 0.07701(4) 1.0000
S2 S 0.21496(14) 0.27708(15) 0.85828(11)
O5 O 0.0473(4) 0.3791(4) 0.7660(3)
O7 O 0.0021(4) 0.4733(3) 0.8719(3)
O9 O 0.3844(3) 0.1480(4) 0.9075(3)
O12 O 0.6060(4) 0.1943(4) 0.9592(3)
C7 C 0.1509(6) 0.3848(6) 0.9786(4)
C8 C 0.2724(5) 0.2701(5) 0.9538(4)
C9 C 0.1340(5) 0.3635(5) 0.8959(4)
C11 C 0.0571(5) 0.4069(5) 0.8412(4)
C12 C 0.3550(5) 0.2004(6) 0.9677(4)
In1_3 In 0.5000 0.92299(4) 0.5000
S2_2 S 0.78504(14) 0.72292(15) 0.35828(11)
O5_2 O 0.9527(4) 0.6209(4) 0.2660(3)
O7_2 O 0.9979(4) 0.5267(3) 0.3719(3)
O9_2 O 0.6156(3) 0.8520(4) 0.4075(3)
O10_2 O 0.3844(3) 0.8520(4) 0.5925(3)
O11_2 O 0.6060(4) 0.8057(4) 0.5408(3)
O12_2 O 0.3940(4) 0.8057(4) 0.4592(3)
C7_2 C 0.8491(6) 0.6152(6) 0.4786(4)
H3_2 H 0.8875 0.5715 0.5101
C8_2 C 0.7276(5) 0.7299(5) 0.4538(4)
C9_2 C 0.8660(5) 0.6365(5) 0.3959(4)
C10_2 C 0.7669(6) 0.6660(6) 0.5126(4)
H4_2 H 0.7427 0.6574 0.5676
C11_2 C 0.9429(5) 0.5931(5) 0.3412(4)
C12_2 C 0.6450(5) 0.7996(6) 0.4677(4)
O6 O 0.0473(4) 0.6209(4) 0.7340(3)
O8 O 0.0021(4) 0.5267(3) 0.6281(3)
O6_2 O 0.9527(4) 0.3791(4) 0.2340(3)
O8_2 O 0.9979(4) 0.4733(3) 0.1281(3)
S2_3 S 0.78504(14) 0.27708(15) 0.14172(11)
C7_3 C 0.8491(6) 0.3848(6) 0.0214(4)
C8_3 C 0.7276(5) 0.2701(5) 0.0462(4)
C9_3 C 0.8660(5) 0.3635(5) 0.1041(4)
C11_3 C 0.9429(5) 0.4069(5) 0.1588(4)
C12_3 C 0.6450(5) 0.2004(6) 0.0323(4)
H3_3 H 0.8875 0.4285 0.9899
C10_3 C 0.7669(6) 0.3340(6) 0.9874(4)
H4_3 H 0.7427 0.3426 0.9324
S2_4 S 0.21496(14) 0.72292(15) 0.64172(11)
C7_4 C 0.1509(6) 0.6152(6) 0.5214(4)
H3_4 H 0.1125 0.5715 0.4899
C8_4 C 0.2724(5) 0.7299(5) 0.5462(4)
C9_4 C 0.1340(5) 0.6365(5) 0.6041(4)
C10_4 C 0.2331(6) 0.6660(6) 0.4874(4)
H4_4 H 0.2573 0.6574 0.4324
C11_4 C 0.0571(5) 0.5931(5) 0.6588(4)
C12_4 C 0.3550(5) 0.7996(6) 0.5323(4)
S1 S 0.27708(15) 0.78504(14) 0.10828(11)
O1 O 0.3791(4) 0.9527(4) 0.0160(3)
O2 O 0.4733(3) 0.9979(4) 0.1219(3)
O3 O 0.1480(4) 0.6156(3) 0.1575(3)
O4 O 0.1943(4) 0.6060(4) 0.2908(3)
C1 C 0.3848(6) 0.8491(6) 0.2286(4)
H1 H 0.4285 0.8875 0.2601
C2 C 0.2701(5) 0.7276(5) 0.2038(4)
C3 C 0.3635(5) 0.8660(5) 0.1459(4)
C4 C 0.3340(6) 0.7669(6) 0.2626(4)
H2 H 0.3426 0.7427 0.3176
C5 C 0.4069(5) 0.9429(5) 0.0912(4)
C6 C 0.2004(6) 0.6450(5) 0.2177(4)
In2 In 0.07701(4) 0.5000 0.2500
O6_3 O 0.6209(4) 0.9527(4) 0.9840(3)
O8_3 O 0.5267(3) 0.9979(4) 0.8781(3)
In3 In 0.92299(4) 0.5000 0.7500
S1_2 S 0.72292(15) 0.21496(14) 0.60828(11)
O1_2 O 0.6209(4) 0.0473(4) 0.5160(3)
O2_2 O 0.5267(3) 0.0021(4) 0.6219(3)
O3_2 O 0.8520(4) 0.3844(3) 0.6575(3)
O4_2 O 0.8057(4) 0.3940(4) 0.7908(3)
C1_2 C 0.6152(6) 0.1509(6) 0.7286(4)
H1_2 H 0.5715 0.1125 0.7601
C2_2 C 0.7299(5) 0.2724(5) 0.7038(4)
C3_2 C 0.6365(5) 0.1340(5) 0.6459(4)
C4_2 C 0.6660(6) 0.2331(6) 0.7626(4)
H2_2 H 0.6574 0.2573 0.8176
C5_2 C 0.5931(5) 0.0571(5) 0.5912(4)
C6_2 C 0.7996(6) 0.3550(5) 0.7177(4)
O6_4 O 0.3791(4) 0.0473(4) 0.4840(3)
O8_4 O 0.4733(3) 0.0021(4) 0.3781(3)
O10_3 O 0.8520(4) 0.6156(3) 0.8425(3)
O12_3 O 0.8057(4) 0.6060(4) 0.7092(3)
O10_4 O 0.1480(4) 0.3844(3) 0.3425(3)
O12_4 O 0.1943(4) 0.3940(4) 0.2092(3)
S1_3 S 0.72292(15) 0.78504(14) 0.89172(11)
C1_3 C 0.6152(6) 0.8491(6) 0.7714(4)
H1_3 H 0.5715 0.8875 0.7399
C2_3 C 0.7299(5) 0.7276(5) 0.7962(4)
C3_3 C 0.6365(5) 0.8660(5) 0.8541(4)
C4_3 C 0.6660(6) 0.7669(6) 0.7374(4)
H2_3 H 0.6574 0.7427 0.6824
C5_3 C 0.5931(5) 0.9429(5) 0.9088(4)
C6_3 C 0.7996(6) 0.6450(5) 0.7823(4)
S1_4 S 0.27708(15) 0.21496(14) 0.39172(11)
C1_4 C 0.3848(6) 0.1509(6) 0.2714(4)
H1_4 H 0.4285 0.1125 0.2399
C2_4 C 0.2701(5) 0.2724(5) 0.2962(4)
C3_4 C 0.3635(5) 0.1340(5) 0.3541(4)
C4_4 C 0.3340(6) 0.2331(6) 0.2374(4)
H2_4 H 0.3426 0.2573 0.1824
C5_4 C 0.4069(5) 0.0571(5) 0.4088(4)
C6_4 C 0.2004(6) 0.3550(5) 0.2823(4)
C13 C 0.696(3) 0.049(2) 0.316(2)
N1 N 0.672(3) -0.0000 0.2500
H5 H 0.628781 0.0514323 0.22144
H10 H 0.73945 0.112932 0.297144
H11 H 0.629646 0.0734496 0.348932
H12 H 0.73945 0.00256802 0.358428
N1_2 N 0.672(3) 1.0000 0.2500
C14 C 0.696(3) 0.951(2) 0.184(2)
H6 H 0.628781 0.948568 0.27856
H7 H 0.73945 0.887068 0.202856
H8 H 0.629646 0.92655 0.151068
H9 H 0.73945 0.997432 0.141572
N1_3 N 0.328(3) 0.0000 0.7500
C14_2 C 0.304(3) 0.049(2) 0.684(2)
H6_2 H 0.371219 0.0514323 0.77856
H7_2 H 0.26055 0.112932 0.702856
H8_2 H 0.370354 0.0734496 0.651068
H9_2 H 0.26055 0.00256802 0.641572
C13_2 C 0.304(3) 0.951(2) 0.816(2)
N1_4 N 0.328(3) 1.0000 0.7500
H5_2 H 0.371219 0.948568 0.72144
H10_2 H 0.26055 0.887068 0.797144
H11_2 H 0.370354 0.92655 0.848932
H12_2 H 0.26055 0.997432 0.858428
N1_5 N 0.0000 0.672(3) 0.0000
H6_3 H 0.0514323 0.628781 0.0285595
N1_6 N 0.0000 0.672(3) 1.0000
C14_3 C 0.049(2) 0.696(3) 0.934(2)
H7_3 H 0.112932 0.73945 0.952856
H8_3 H 0.0734496 0.629646 0.901068
H9_3 H 0.00256802 0.73945 0.891572
C13_3 C 0.951(2) 0.696(3) 0.066(2)
N1_7 N 1.0000 0.672(3) 0.0000
H10_3 H 0.887068 0.73945 0.0471441
H11_3 H 0.92655 0.629646 0.0989321
H12_3 H 0.997432 0.73945 0.108428
N1_8 N 1.0000 0.672(3) 1.0000
H5_3 H 0.948568 0.628781 0.97144
C13_4 C 0.049(2) 0.304(3) 0.566(2)
N1_9 N 0.0000 0.328(3) 0.5000
H5_4 H 0.0514323 0.371219 0.47144
H10_4 H 0.112932 0.26055 0.547144
H11_4 H 0.0734496 0.370354 0.598932
H12_4 H 0.00256802 0.26055 0.608428
N1_10 N 1.0000 0.328(3) 0.5000
C14_4 C 0.951(2) 0.304(3) 0.434(2)
H6_4 H 0.948568 0.371219 0.52856
H7_4 H 0.887068 0.26055 0.452856
H8_4 H 0.92655 0.370354 0.401068
H9_4 H 0.997432 0.26055 0.391572
loop_
_geom_bond_atom_site_label_1
_geom_bond_atom_site_label_2
_geom_bond_site_symmetry_1
_geom_bond_site_symmetry_2
O10 In1 1_555 1_555
O11 In1 1_555 1_555
H4 C10 1_555 1_555
S2 C8 1_555 1_555
O5 C11 1_555 1_555
O9 In1_2 1_555 1_555
O12 In1_2 1_555 1_555
C9 S2 1_555 1_555
C11 O7 1_555 1_555
C12 O9 1_555 1_555
C7 C9 1_555 1_555
C8 C12 1_555 1_555
C9 C11 1_555 1_555
S2_2 C8_2 1_555 1_555
O5_2 C11_2 1_555 1_555
O9_2 In1_3 1_555 1_555
O10_2 In1_3 1_555 1_555
O11_2 In1_3 1_555 1_555
O12_2 In1_3 1_555 1_555
C7_2 H3_2 1_555 1_555
C8_2 C10_2 1_555 1_555
C9_2 S2_2 1_555 1_555
C10_2 C7_2 1_555 1_555
H4_2 C10_2 1_555 1_555
C11_2 O7_2 1_555 1_555
C12_2 O9_2 1_555 1_555
O11_2 C12_2 1_555 1_555
C7_2 C9_2 1_555 1_555
C8_2 C12_2 1_555 1_555
C9_2 C11_2 1_555 1_555
S2_3 C8_3 1_555 1_555
O6_2 C11_3 1_555 1_555
C9_3 S2_3 1_555 1_555
C11_3 O8_2 1_555 1_555
C12_3 O10 1_555 1_555
C7_3 C9_3 1_555 1_555
C8_3 C12_3 1_555 1_555
C9_3 C11_3 1_555 1_555
H4_3 C10_3 1_555 1_555
S2_4 C8_4 1_555 1_555
O6 C11_4 1_555 1_555
C7_4 H3_4 1_555 1_555
C8_4 C10_4 1_555 1_555
C9_4 S2_4 1_555 1_555
C10_4 C7_4 1_555 1_555
H4_4 C10_4 1_555 1_555
C11_4 O8 1_555 1_555
C12_4 O10_2 1_555 1_555
O12_2 C12_4 1_555 1_555
C7_4 C9_4 1_555 1_555
C8_4 C12_4 1_555 1_555
C9_4 C11_4 1_555 1_555
S1 C2 1_555 1_555
O1 C5 1_555 1_555
O3 C6 1_555 1_555
O4 C6 1_555 1_555
C1 H1 1_555 1_555
C2 C4 1_555 1_555
C3 S1 1_555 1_555
C4 C1 1_555 1_555
H2 C4 1_555 1_555
C5 O2 1_555 1_555
C6 C2 1_555 1_555
In2 O3 1_555 1_555
O4 In2 1_555 1_555
C1 C3 1_555 1_555
C3 C5 1_555 1_555
S1_2 C2_2 1_555 1_555
O1_2 C5_2 1_555 1_555
O3_2 C6_2 1_555 1_555
O4_2 C6_2 1_555 1_555
C1_2 H1_2 1_555 1_555
C2_2 C4_2 1_555 1_555
C3_2 S1_2 1_555 1_555
C4_2 C1_2 1_555 1_555
H2_2 C4_2 1_555 1_555
C5_2 O2_2 1_555 1_555
C6_2 C2_2 1_555 1_555
In3 O3_2 1_555 1_555
O4_2 In3 1_555 1_555
C1_2 C3_2 1_555 1_555
C3_2 C5_2 1_555 1_555
O10_3 In3 1_555 1_555
O12_3 In3 1_555 1_555
O10_4 In2 1_555 1_555
O12_4 In2 1_555 1_555
S1_3 C2_3 1_555 1_555
O6_3 C5_3 1_555 1_555
O10_3 C6_3 1_555 1_555
O12_3 C6_3 1_555 1_555
C1_3 H1_3 1_555 1_555
C2_3 C4_3 1_555 1_555
C3_3 S1_3 1_555 1_555
C4_3 C1_3 1_555 1_555
H2_3 C4_3 1_555 1_555
C5_3 O8_3 1_555 1_555
C6_3 C2_3 1_555 1_555
C1_3 C3_3 1_555 1_555
C3_3 C5_3 1_555 1_555
S1_4 C2_4 1_555 1_555
O6_4 C5_4 1_555 1_555
O10_4 C6_4 1_555 1_555
O12_4 C6_4 1_555 1_555
C1_4 H1_4 1_555 1_555
C2_4 C4_4 1_555 1_555
C3_4 S1_4 1_555 1_555
C4_4 C1_4 1_555 1_555
H2_4 C4_4 1_555 1_555
C5_4 O8_4 1_555 1_555
C6_4 C2_4 1_555 1_555
C1_4 C3_4 1_555 1_555
C3_4 C5_4 1_555 1_555
C13 N1 1_555 1_555
N1 H5 1_555 1_555
C13 H10 1_555 1_555
C13 H11 1_555 1_555
C13 H12 1_555 1_555
N1_2 C14 1_555 1_555
N1_2 H6 1_555 1_555
C14 H7 1_555 1_555
C14 H8 1_555 1_555
C14 H9 1_555 1_555
N1_3 C14_2 1_555 1_555
N1_3 H6_2 1_555 1_555
C14_2 H7_2 1_555 1_555
C14_2 H8_2 1_555 1_555
C14_2 H9_2 1_555 1_555
C13_2 N1_4 1_555 1_555
N1_4 H5_2 1_555 1_555
C13_2 H10_2 1_555 1_555
C13_2 H11_2 1_555 1_555
C13_2 H12_2 1_555 1_555
N1_5 H6_3 1_555 1_555
N1_6 C14_3 1_555 1_555
C14_3 H7_3 1_555 1_555
C14_3 H8_3 1_555 1_555
C14_3 H9_3 1_555 1_555
C13_3 N1_7 1_555 1_555
C13_3 H10_3 1_555 1_555
C13_3 H11_3 1_555 1_555
C13_3 H12_3 1_555 1_555
N1_8 H5_3 1_555 1_555
C13_4 N1_9 1_555 1_555
N1_9 H5_4 1_555 1_555
C13_4 H10_4 1_555 1_555
C13_4 H11_4 1_555 1_555
C13_4 H12_4 1_555 1_555
N1_10 C14_4 1_555 1_555
N1_10 H6_4 1_555 1_555
C14_4 H7_4 1_555 1_555
C14_4 H8_4 1_555 1_555
C14_4 H9_4 1_555 1_555

#END
