
###############################################################################
#
# This file contains modified crystal structure data generated from the
# MOF subset of the Cambridge Structural Database (CSD) v543 
# hosted by the Cambridge Crystallographic Data Centre (CCDC).
#
# This work is licensed under the Creative Commons
# Attribution-NonCommercial-ShareAlike 4.0 International License.
# To view a copy of this license, visit
# http://creativecommons.org/licenses/by-nc-sa/4.0/
# or send a letter to
# Creative Commons, PO Box 1866, Mountain View, CA 94042, USA.
#
# CIF created using the CSD Python API on 29 September 2022
# The structure has been converted into the P1 space group
# The structure has a 3D framework
# The original CSD entry SOMFEG is in the tetragonal crystal system
# The original CSD entry SOMFEG is in a Sohncke space group
# The framework has been calculated to contain at least 10.0% void space
# The void calculation uses a probe of radius 1.32A, grid spacing 0.4
# H atom positions have been added when not included in the experimental data
#
###############################################################################

data_SOMFEG
_chemical_formula_moiety         '(C56 H48 In2 N5 O30 S8 3+)n'
_symmetry_cell_setting           triclinic
_symmetry_space_group_name_H-M   'P 1'
_symmetry_Int_Tables_number      1
_space_group_name_Hall           'P 1'
loop_
_symmetry_equiv_pos_site_id
_symmetry_equiv_pos_as_xyz
1 x,y,z
_cell_length_a                   13.5770(4)
_cell_length_b                   13.5770(4)
_cell_length_c                   15.5394(9)
_cell_angle_alpha                90
_cell_angle_beta                 90
_cell_angle_gamma                90
_cell_volume                     2864.45
loop_
_atom_site_label
_atom_site_type_symbol
_atom_site_fract_x
_atom_site_fract_y
_atom_site_fract_z
In3 In -0.0000 0.42385(3) 0.5000
In1 In 0.42385(3) 1.0000 0.2500
O6 O 0.3067(3) 0.8948(3) 0.2097(3)
O8 O 0.3529(3) 0.8851(3) 0.3440(3)
O10 O 0.5030(3) 0.9738(2) 0.1267(2)
O12 O 0.5469(3) 0.8793(3) 0.2345(3)
In2 In 1.0000 0.57615(3) 0.0000
In2_2 In 1.0000 0.57615(3) 1.0000
In1_2 In 0.57615(3) -0.0000 0.7500
O6_2 O 0.6933(3) 0.1052(3) 0.7097(3)
O8_2 O 0.6471(3) 0.1149(3) 0.8440(3)
O10_2 O 0.4970(3) 0.0262(2) 0.6267(2)
O12_2 O 0.4531(3) 0.1207(3) 0.7345(3)
O6_3 O 0.1052(3) 0.3067(3) 0.4597(3)
O8_3 O 0.1149(3) 0.3529(3) 0.5940(3)
O10_3 O 0.0262(2) 0.5030(3) 0.3767(2)
O12_3 O 0.1207(3) 0.5469(3) 0.4845(3)
O8_4 O 0.8851(3) 0.6471(3) 0.0940(3)
O6_4 O 0.8948(3) 0.6933(3) 0.9597(3)
O10_4 O 0.9738(2) 0.4970(3) 0.8767(2)
O12_4 O 0.8793(3) 0.4531(3) 0.9845(3)
S1 S 0.77670(12) 0.28496(12) 0.89246(10)
C1 C 0.7700(4) 0.2249(4) 0.7964(4)
C2 C 0.8348(5) 0.2625(5) 0.7373(4)
H1 H 0.8446 0.2368 0.6825
C3 C 0.8850(5) 0.3457(5) 0.7707(4)
H2 H 0.9285 0.3836 0.7385
C4 C 0.8634(4) 0.3644(4) 0.8536(4)
C5 C 0.7002(5) 0.1432(4) 0.7833(4)
C6 C 0.9075(4) 0.4429(4) 0.9087(4)
S2 S 0.28496(12) 0.22330(12) 0.64246(10)
C7 C 0.2249(4) 0.2300(4) 0.5464(4)
C8 C 0.2625(5) 0.1652(5) 0.4873(4)
H3 H 0.2368 0.1554 0.4325
C9 C 0.3457(5) 0.1150(5) 0.5207(4)
H4 H 0.3836 0.0715 0.4885
C10 C 0.3644(4) 0.1366(4) 0.6036(4)
C11 C 0.1432(4) 0.2998(5) 0.5333(4)
C12 C 0.4429(4) 0.0925(4) 0.6587(4)
S1_2 S 0.22330(12) 0.71504(12) 0.39246(10)
C1_2 C 0.2300(4) 0.7751(4) 0.2964(4)
C2_2 C 0.1652(5) 0.7375(5) 0.2373(4)
H1_2 H 0.1554 0.7632 0.1825
C3_2 C 0.1150(5) 0.6543(5) 0.2707(4)
H2_2 H 0.0715 0.6164 0.2385
C4_2 C 0.1366(4) 0.6356(4) 0.3536(4)
C5_2 C 0.2998(5) 0.8568(4) 0.2833(4)
C6_2 C 0.0925(4) 0.5571(4) 0.4087(4)
S2_2 S 0.71504(12) 0.77670(12) 0.14246(10)
C7_2 C 0.7751(4) 0.7700(4) 0.0464(4)
C9_2 C 0.6543(5) 0.8850(5) 0.0207(4)
C10_2 C 0.6356(4) 0.8634(4) 0.1036(4)
C11_2 C 0.8568(4) 0.7002(5) 0.0333(4)
C12_2 C 0.5571(4) 0.9075(4) 0.1587(4)
C8_2 C 0.7375(5) 0.8348(5) 0.9873(4)
H3_2 H 0.7632 0.8446 0.9325
H4_2 H 0.6164 0.9285 0.9885
In1_3 In 0.42385(3) -0.0000 0.2500
S1_3 S 0.22330(12) 0.28496(12) 0.10754(10)
O1 O 0.3067(3) 0.1052(3) 0.2903(3)
O2 O 0.3529(3) 0.1149(3) 0.1560(3)
O3 O 0.0262(2) 0.4970(3) 0.1233(2)
O4 O 0.1207(3) 0.4531(3) 0.0155(3)
C1_3 C 0.2300(4) 0.2249(4) 0.2036(4)
C2_3 C 0.1652(5) 0.2625(5) 0.2627(4)
H1_3 H 0.1554 0.2368 0.3175
C3_3 C 0.1150(5) 0.3457(5) 0.2293(4)
H2_3 H 0.0715 0.3836 0.2615
C4_3 C 0.1366(4) 0.3644(4) 0.1464(4)
C5_3 C 0.2998(5) 0.1432(4) 0.2167(4)
C6_3 C 0.0925(4) 0.4429(4) 0.0913(4)
In2_3 In -0.0000 0.57615(3) 0.0000
In3_2 In 1.0000 0.42385(3) 0.5000
S2_3 S 0.71504(12) 0.22330(12) 0.35754(10)
O5 O 0.8948(3) 0.3067(3) 0.5403(3)
O7 O 0.8851(3) 0.3529(3) 0.4060(3)
O9 O 0.5030(3) 0.0262(2) 0.3733(2)
O11 O 0.5469(3) 0.1207(3) 0.2655(3)
C7_3 C 0.7751(4) 0.2300(4) 0.4536(4)
C8_3 C 0.7375(5) 0.1652(5) 0.5127(4)
H3_3 H 0.7632 0.1554 0.5675
C9_3 C 0.6543(5) 0.1150(5) 0.4793(4)
H4_3 H 0.6164 0.0715 0.5115
C10_3 C 0.6356(4) 0.1366(4) 0.3964(4)
C11_3 C 0.8568(4) 0.2998(5) 0.4667(4)
C12_3 C 0.5571(4) 0.0925(4) 0.3413(4)
In2_4 In -0.0000 0.57615(3) 1.0000
O5_2 O 0.1052(3) 0.6933(3) 0.0403(3)
C8_4 C 0.2625(5) 0.8348(5) 0.0127(4)
H3_4 H 0.2368 0.8446 0.0675
H4_4 H 0.3836 0.9285 0.0115
In1_4 In 0.57615(3) 1.0000 0.7500
S1_4 S 0.77670(12) 0.71504(12) 0.60754(10)
O1_2 O 0.6933(3) 0.8948(3) 0.7903(3)
O2_2 O 0.6471(3) 0.8851(3) 0.6560(3)
O3_2 O 0.9738(2) 0.5030(3) 0.6233(2)
O4_2 O 0.8793(3) 0.5469(3) 0.5155(3)
C1_4 C 0.7700(4) 0.7751(4) 0.7036(4)
C2_4 C 0.8348(5) 0.7375(5) 0.7627(4)
H1_4 H 0.8446 0.7632 0.8175
C3_4 C 0.8850(5) 0.6543(5) 0.7293(4)
H2_4 H 0.9285 0.6164 0.7615
C4_4 C 0.8634(4) 0.6356(4) 0.6464(4)
C5_4 C 0.7002(5) 0.8568(4) 0.7167(4)
C6_4 C 0.9075(4) 0.5571(4) 0.5913(4)
S2_4 S 0.28496(12) 0.77670(12) 0.85754(10)
O7_2 O 0.1149(3) 0.6471(3) 0.9060(3)
O9_2 O 0.4970(3) 0.9738(2) 0.8733(2)
O11_2 O 0.4531(3) 0.8793(3) 0.7655(3)
C7_4 C 0.2249(4) 0.7700(4) 0.9536(4)
C9_4 C 0.3457(5) 0.8850(5) 0.9793(4)
C10_4 C 0.3644(4) 0.8634(4) 0.8964(4)
C11_4 C 0.1432(4) 0.7002(5) 0.9667(4)
C12_4 C 0.4429(4) 0.9075(4) 0.8413(4)
C13 C 0.5540(15) 0.1959(17) 0.0570(14)
N1 N 0.5000 0.161(2) 0.0000
H5 H 0.452978 0.117838 0.0340061
H10 H 0.510126 0.241046 0.100427
H11 H 0.588134 0.136169 0.0930306
H12 H 0.611026 0.241046 0.0274559
N1_2 N 0.5000 0.161(2) 1.0000
C14 C 0.4460(15) 0.1959(17) 0.9430(14)
H6 H 0.547022 0.117838 0.965994
H7 H 0.489874 0.241046 0.899573
H8 H 0.411866 0.136169 0.906969
H9 H 0.388974 0.241046 0.972544
C13_2 C 0.4460(15) 0.8041(17) 0.5570(14)
N1_3 N 0.5000 0.839(2) 0.5000
C14_2 C 0.5540(15) 0.8041(17) 0.4430(14)
H5_2 H 0.547022 0.882162 0.534006
H6_2 H 0.452978 0.882162 0.465994
H7_2 H 0.510126 0.758954 0.399573
H8_2 H 0.588134 0.863831 0.406969
H9_2 H 0.611026 0.758954 0.472544
H10_2 H 0.489874 0.758954 0.600427
H11_2 H 0.411866 0.863831 0.593031
H12_2 H 0.388974 0.758954 0.527456
C13_3 C 0.8041(17) 0.5540(15) 0.3070(14)
N1_4 N 0.839(2) 0.5000 0.2500
C14_3 C 0.8041(17) 0.4460(15) 0.1930(14)
H5_3 H 0.882162 0.452978 0.284006
H6_3 H 0.882162 0.547022 0.215994
H7_3 H 0.758954 0.489874 0.149573
H8_3 H 0.863831 0.411866 0.156969
H9_3 H 0.758954 0.388974 0.222544
H10_3 H 0.758954 0.510126 0.350427
H11_3 H 0.863831 0.588134 0.343031
H12_3 H 0.758954 0.611026 0.277456
C13_4 C 0.1959(17) 0.4460(15) 0.8070(14)
N1_5 N 0.161(2) 0.5000 0.7500
C14_4 C 0.1959(17) 0.5540(15) 0.6930(14)
H5_4 H 0.117838 0.547022 0.784006
H6_4 H 0.117838 0.452978 0.715994
H7_4 H 0.241046 0.510126 0.649573
H8_4 H 0.136169 0.588134 0.656969
H9_4 H 0.241046 0.611026 0.722544
H10_4 H 0.241046 0.489874 0.850427
H11_4 H 0.136169 0.411866 0.843031
H12_4 H 0.241046 0.388974 0.777456
loop_
_geom_bond_atom_site_label_1
_geom_bond_atom_site_label_2
_geom_bond_site_symmetry_1
_geom_bond_site_symmetry_2
O6 In1 1_555 1_555
O8 In1 1_555 1_555
O10 In1 1_555 1_555
O12 In1 1_555 1_555
O6_2 In1_2 1_555 1_555
O8_2 In1_2 1_555 1_555
O10_2 In1_2 1_555 1_555
O12_2 In1_2 1_555 1_555
O6_3 In3 1_555 1_555
O8_3 In3 1_555 1_555
O10_3 In3 1_555 1_555
O12_3 In3 1_555 1_555
O8_4 In2 1_555 1_555
O6_4 In2_2 1_555 1_555
O10_4 In2_2 1_555 1_555
O12_4 In2_2 1_555 1_555
S1 C1 1_555 1_555
O6_2 C5 1_555 1_555
O10_4 C6 1_555 1_555
O12_4 C6 1_555 1_555
C1 C2 1_555 1_555
C2 H1 1_555 1_555
C3 C2 1_555 1_555
H2 C3 1_555 1_555
C4 S1 1_555 1_555
C5 O8_2 1_555 1_555
C6 C4 1_555 1_555
S2 C7 1_555 1_555
O6_3 C11 1_555 1_555
C7 C8 1_555 1_555
C8 H3 1_555 1_555
C9 C8 1_555 1_555
H4 C9 1_555 1_555
C10 S2 1_555 1_555
C11 O8_3 1_555 1_555
C12 O10_2 1_555 1_555
C1 C5 1_555 1_555
C3 C4 1_555 1_555
O12_2 C12 1_555 1_555
C7 C11 1_555 1_555
C9 C10 1_555 1_555
C10 C12 1_555 1_555
S1_2 C1_2 1_555 1_555
O6 C5_2 1_555 1_555
O10_3 C6_2 1_555 1_555
O12_3 C6_2 1_555 1_555
C1_2 C2_2 1_555 1_555
C2_2 H1_2 1_555 1_555
C3_2 C2_2 1_555 1_555
H2_2 C3_2 1_555 1_555
C4_2 S1_2 1_555 1_555
C5_2 O8 1_555 1_555
C6_2 C4_2 1_555 1_555
S2_2 C7_2 1_555 1_555
C10_2 S2_2 1_555 1_555
C11_2 O8_4 1_555 1_555
C12_2 O10 1_555 1_555
C1_2 C5_2 1_555 1_555
C3_2 C4_2 1_555 1_555
O12 C12_2 1_555 1_555
C7_2 C11_2 1_555 1_555
C9_2 C10_2 1_555 1_555
C10_2 C12_2 1_555 1_555
C8_2 H3_2 1_555 1_555
In1_3 O1 1_555 1_555
S1_3 C1_3 1_555 1_555
O1 C5_3 1_555 1_555
O2 In1_3 1_555 1_555
O3 C6_3 1_555 1_555
O4 C6_3 1_555 1_555
C1_3 C2_3 1_555 1_555
C2_3 H1_3 1_555 1_555
C3_3 C2_3 1_555 1_555
H2_3 C3_3 1_555 1_555
C4_3 S1_3 1_555 1_555
C5_3 O2 1_555 1_555
C6_3 C4_3 1_555 1_555
In2_3 O3 1_555 1_555
In3_2 O5 1_555 1_555
S2_3 C7_3 1_555 1_555
O5 C11_3 1_555 1_555
O7 In3_2 1_555 1_555
O9 In1_3 1_555 1_555
O11 In1_3 1_555 1_555
C7_3 C8_3 1_555 1_555
C8_3 H3_3 1_555 1_555
C9_3 C8_3 1_555 1_555
H4_3 C9_3 1_555 1_555
C10_3 S2_3 1_555 1_555
C11_3 O7 1_555 1_555
C12_3 O9 1_555 1_555
O4 In2_3 1_555 1_555
C1_3 C5_3 1_555 1_555
C3_3 C4_3 1_555 1_555
O11 C12_3 1_555 1_555
C7_3 C11_3 1_555 1_555
C9_3 C10_3 1_555 1_555
C10_3 C12_3 1_555 1_555
In2_3 O5_2 1_555 1_555
C8_4 H3_4 1_555 1_555
In1_4 O1_2 1_555 1_555
S1_4 C1_4 1_555 1_555
O1_2 C5_4 1_555 1_555
O2_2 In1_4 1_555 1_555
O3_2 C6_4 1_555 1_555
O4_2 C6_4 1_555 1_555
C1_4 C2_4 1_555 1_555
C2_4 H1_4 1_555 1_555
C3_4 C2_4 1_555 1_555
H2_4 C3_4 1_555 1_555
C4_4 S1_4 1_555 1_555
C5_4 O2_2 1_555 1_555
C6_4 C4_4 1_555 1_555
In3_2 O3_2 1_555 1_555
S2_4 C7_4 1_555 1_555
O7_2 In2_4 1_555 1_555
O9_2 In1_4 1_555 1_555
O11_2 In1_4 1_555 1_555
C10_4 S2_4 1_555 1_555
C11_4 O7_2 1_555 1_555
C12_4 O9_2 1_555 1_555
O4_2 In3_2 1_555 1_555
C1_4 C5_4 1_555 1_555
C3_4 C4_4 1_555 1_555
O11_2 C12_4 1_555 1_555
C7_4 C11_4 1_555 1_555
C9_4 C10_4 1_555 1_555
C10_4 C12_4 1_555 1_555
C13 N1 1_555 1_555
N1 H5 1_555 1_555
C13 H10 1_555 1_555
C13 H11 1_555 1_555
C13 H12 1_555 1_555
N1_2 C14 1_555 1_555
N1_2 H6 1_555 1_555
C14 H7 1_555 1_555
C14 H8 1_555 1_555
C14 H9 1_555 1_555
C13_2 N1_3 1_555 1_555
N1_3 C14_2 1_555 1_555
N1_3 H5_2 1_555 1_555
N1_3 H6_2 1_555 1_555
C14_2 H7_2 1_555 1_555
C14_2 H8_2 1_555 1_555
C14_2 H9_2 1_555 1_555
C13_2 H10_2 1_555 1_555
C13_2 H11_2 1_555 1_555
C13_2 H12_2 1_555 1_555
C13_3 N1_4 1_555 1_555
N1_4 C14_3 1_555 1_555
N1_4 H5_3 1_555 1_555
N1_4 H6_3 1_555 1_555
C14_3 H7_3 1_555 1_555
C14_3 H8_3 1_555 1_555
C14_3 H9_3 1_555 1_555
C13_3 H10_3 1_555 1_555
C13_3 H11_3 1_555 1_555
C13_3 H12_3 1_555 1_555
C13_4 N1_5 1_555 1_555
N1_5 C14_4 1_555 1_555
N1_5 H5_4 1_555 1_555
N1_5 H6_4 1_555 1_555
C14_4 H7_4 1_555 1_555
C14_4 H8_4 1_555 1_555
C14_4 H9_4 1_555 1_555
C13_4 H10_4 1_555 1_555
C13_4 H11_4 1_555 1_555
C13_4 H12_4 1_555 1_555

#END
