
###############################################################################
#
# This file contains modified crystal structure data generated from the
# MOF subset of the Cambridge Structural Database (CSD) v543 
# hosted by the Cambridge Crystallographic Data Centre (CCDC).
#
# This work is licensed under the Creative Commons
# Attribution-NonCommercial-ShareAlike 4.0 International License.
# To view a copy of this license, visit
# http://creativecommons.org/licenses/by-nc-sa/4.0/
# or send a letter to
# Creative Commons, PO Box 1866, Mountain View, CA 94042, USA.
#
# CIF created using the CSD Python API on 29 September 2022
# The structure has been converted into the P1 space group
# The structure has a 3D framework
# The original CSD entry SOMJOV is in the orthorhombic crystal system
# The framework has been calculated to contain at least 10.0% void space
# The void calculation uses a probe of radius 1.32A, grid spacing 0.4
#
###############################################################################

data_SOMJOV
_chemical_formula_moiety         '(C24 H19 Fe4 N16 O3)n'
_symmetry_cell_setting           triclinic
_symmetry_space_group_name_H-M   'P 1'
_symmetry_Int_Tables_number      1
_space_group_name_Hall           'P 1'
loop_
_symmetry_equiv_pos_site_id
_symmetry_equiv_pos_as_xyz
1 x,y,z
_cell_length_a                   14.8424(19)
_cell_length_b                   6.6238(9)
_cell_length_c                   11.7467(18)
_cell_angle_alpha                90
_cell_angle_beta                 90
_cell_angle_gamma                90
_cell_volume                     1154.85
loop_
_atom_site_label
_atom_site_type_symbol
_atom_site_fract_x
_atom_site_fract_y
_atom_site_fract_z
Fe4 Fe 0.0000 0.0000 0.0000
Fe4_2 Fe 0.0000 0.0000 1.0000
Fe4_3 Fe 0.0000 1.0000 0.0000
Fe5 Fe 0.0000 0.5000 0.0000
Fe4_4 Fe 0.0000 1.0000 1.0000
Fe5_2 Fe 0.0000 0.5000 1.0000
Fe4_5 Fe 1.0000 0.0000 0.0000
H4 H 0.6794 0.0519 0.6797
H5 H 0.8206 0.0519 0.8203
Fe3 Fe 0.5000 0.0000 0.5000
Fe4_6 Fe 1.0000 0.0000 1.0000
Fe4_7 Fe 1.0000 1.0000 0.0000
Fe5_3 Fe 1.0000 0.5000 0.0000
Fe1 Fe 0.5000 0.5000 0.5000
C1 C 0.6652(2) 0.5855(6) 0.6651(3)
H1 H 0.6794 0.4481 0.6797
C2 C 0.7118(4) 0.7500 0.7114(4)
N1 N 0.59844(19) 0.6469(4) 0.5982(2)
O1 O 0.5000 0.2500 0.5929(4)
H2 H 0.5000 0.2500 0.6738
C3 C 0.8348(2) 0.5855(6) 0.8349(3)
H3 H 0.8206 0.4481 0.8203
C4 C 0.7882(4) 0.7500 0.7886(4)
N2 N 0.90156(19) 0.6469(4) 0.9018(2)
C5 C 0.6652(2) 0.9145(6) 0.6651(3)
N3 N 0.59844(19) 0.8531(4) 0.5982(2)
C6 C 0.8348(2) 0.9145(6) 0.8349(3)
N4 N 0.90156(19) 0.8531(4) 0.9018(2)
Fe3_2 Fe 0.5000 1.0000 0.5000
Fe4_8 Fe 1.0000 1.0000 1.0000
Fe5_4 Fe 1.0000 0.5000 1.0000
N5 N 0.59844(19) 0.3531(4) 0.4018(2)
N6 N 0.40156(19) 0.3531(4) 0.4018(2)
N7 N 0.40156(19) 0.6469(4) 0.5982(2)
O2 O 0.5000 0.7500 0.4071(4)
C1_2 C 0.6652(2) 0.4145(6) 0.3349(3)
H1_2 H 0.6794 0.5519 0.3203
C2_2 C 0.7118(4) 0.2500 0.2886(4)
H2_2 H 0.5000 0.7500 0.3262
C3_2 C 0.8348(2) 0.4145(6) 0.1651(3)
H3_2 H 0.8206 0.5519 0.1797
C4_2 C 0.7882(4) 0.2500 0.2114(4)
N2_2 N 0.90156(19) 0.3531(4) 0.0982(2)
C5_2 C 0.6652(2) 0.0855(6) 0.3349(3)
N3_2 N 0.59844(19) 0.1469(4) 0.4018(2)
C6_2 C 0.8348(2) 0.0855(6) 0.1651(3)
N4_2 N 0.90156(19) 0.1469(4) 0.0982(2)
H4_2 H 0.6794 0.9481 0.3203
H5_2 H 0.8206 0.9481 0.1797
C1_3 C 0.3348(2) 0.0855(6) 0.3349(3)
C2_3 C 0.2882(4) 0.2500 0.2886(4)
N1_2 N 0.40156(19) 0.1469(4) 0.4018(2)
C3_3 C 0.1652(2) 0.0855(6) 0.1651(3)
C4_3 C 0.2118(4) 0.2500 0.2114(4)
N2_3 N 0.09844(19) 0.1469(4) 0.0982(2)
C5_3 C 0.3348(2) 0.4145(6) 0.3349(3)
H4_3 H 0.3206 0.5519 0.3203
C6_3 C 0.1652(2) 0.4145(6) 0.1651(3)
H5_3 H 0.1794 0.5519 0.1797
N4_3 N 0.09844(19) 0.3531(4) 0.0982(2)
H1_3 H 0.3206 0.9481 0.3203
H3_3 H 0.1794 0.9481 0.1797
N5_2 N 0.40156(19) 0.8531(4) 0.5982(2)
H1_4 H 0.3206 0.0519 0.6797
H3_4 H 0.1794 0.0519 0.8203
C1_4 C 0.3348(2) 0.9145(6) 0.6651(3)
C2_4 C 0.2882(4) 0.7500 0.7114(4)
C3_4 C 0.1652(2) 0.9145(6) 0.8349(3)
C4_4 C 0.2118(4) 0.7500 0.7886(4)
N2_4 N 0.09844(19) 0.8531(4) 0.9018(2)
C5_4 C 0.3348(2) 0.5855(6) 0.6651(3)
H4_4 H 0.3206 0.4481 0.6797
C6_4 C 0.1652(2) 0.5855(6) 0.8349(3)
H5_4 H 0.1794 0.4481 0.8203
N4_4 N 0.09844(19) 0.6469(4) 0.9018(2)
O2_2 O 0.0000 0.2500 0.9071(4)
O1_2 O -0.0000 0.7500 0.0929(4)
H2_3 H 0.0000 0.7500 0.1738
O2_3 O 1.0000 0.2500 0.9071(4)
O1_3 O 1.0000 0.7500 0.0929(4)
H2_4 H 1.0000 0.7500 0.1738
H2_5 H 0.0000 0.2500 0.8262
H2_6 H 1.0000 0.2500 0.8262
loop_
_geom_bond_atom_site_label_1
_geom_bond_atom_site_label_2
_geom_bond_site_symmetry_1
_geom_bond_site_symmetry_2
Fe1 N1 1_555 1_555
C1 H1 1_555 1_555
C2 C1 1_555 1_555
N1 C1 1_555 1_555
O1 Fe1 1_555 1_555
H2 O1 1_555 1_555
C3 H3 1_555 1_555
C4 C2 1_555 1_555
N2 C3 1_555 1_555
C5 C2 1_555 1_555
N3 N1 1_555 1_555
C6 C4 1_555 1_555
N4 N2 1_555 1_555
Fe3 O1 1_555 1_555
Fe3_2 N3 1_555 1_555
Fe4_8 N4 1_555 1_555
Fe5_4 N2 1_555 1_555
N5 Fe1 1_555 1_555
N6 Fe1 1_555 1_555
N7 Fe1 1_555 1_555
O2 Fe1 1_555 1_555
C3 C4 1_555 1_555
C5 N3 1_555 1_555
C6 N4 1_555 1_555
Fe3_2 O2 1_555 1_555
C1_2 H1_2 1_555 1_555
C2_2 C1_2 1_555 1_555
N5 C1_2 1_555 1_555
H2_2 O2 1_555 1_555
C3_2 H3_2 1_555 1_555
C4_2 C2_2 1_555 1_555
N2_2 C3_2 1_555 1_555
C5_2 C2_2 1_555 1_555
N3_2 N5 1_555 1_555
C6_2 C4_2 1_555 1_555
N4_2 N2_2 1_555 1_555
Fe3 N3_2 1_555 1_555
Fe4_5 N4_2 1_555 1_555
Fe5_3 N2_2 1_555 1_555
C3_2 C4_2 1_555 1_555
C5_2 N3_2 1_555 1_555
C6_2 N4_2 1_555 1_555
Fe3 N1_2 1_555 1_555
C2_3 C1_3 1_555 1_555
N1_2 C1_3 1_555 1_555
C4_3 C2_3 1_555 1_555
N2_3 C3_3 1_555 1_555
C5_3 C2_3 1_555 1_555
H4_3 C5_3 1_555 1_555
N6 N1_2 1_555 1_555
C6_3 C4_3 1_555 1_555
H5_3 C6_3 1_555 1_555
N4_3 N2_3 1_555 1_555
Fe5 N4_3 1_555 1_555
Fe4 N2_3 1_555 1_555
C3_3 C4_3 1_555 1_555
C5_3 N6 1_555 1_555
C6_3 N4_3 1_555 1_555
N5_2 Fe3_2 1_555 1_555
C2_4 C1_4 1_555 1_555
N5_2 C1_4 1_555 1_555
C4_4 C2_4 1_555 1_555
N2_4 C3_4 1_555 1_555
C5_4 C2_4 1_555 1_555
H4_4 C5_4 1_555 1_555
N7 N5_2 1_555 1_555
C6_4 C4_4 1_555 1_555
H5_4 C6_4 1_555 1_555
N4_4 N2_4 1_555 1_555
Fe5_2 N4_4 1_555 1_555
Fe4_4 N2_4 1_555 1_555
C3_4 C4_4 1_555 1_555
C5_4 N7 1_555 1_555
C6_4 N4_4 1_555 1_555
O2_2 Fe4_2 1_555 1_555
Fe5_2 O2_2 1_555 1_555
O1_2 Fe4_3 1_555 1_555
H2_3 O1_2 1_555 1_555
Fe5 O1_2 1_555 1_555
O2_3 Fe4_6 1_555 1_555
Fe5_4 O2_3 1_555 1_555
O1_3 Fe4_7 1_555 1_555
H2_4 O1_3 1_555 1_555
Fe5_3 O1_3 1_555 1_555
H2_5 O2_2 1_555 1_555
H2_6 O2_3 1_555 1_555

#END
