
###############################################################################
#
# This file contains modified crystal structure data generated from the
# MOF subset of the Cambridge Structural Database (CSD) v543 
# hosted by the Cambridge Crystallographic Data Centre (CCDC).
#
# This work is licensed under the Creative Commons
# Attribution-NonCommercial-ShareAlike 4.0 International License.
# To view a copy of this license, visit
# http://creativecommons.org/licenses/by-nc-sa/4.0/
# or send a letter to
# Creative Commons, PO Box 1866, Mountain View, CA 94042, USA.
#
# CIF created using the CSD Python API on 29 September 2022
# The structure has been converted into the P1 space group
# The structure has a 3D framework
# The original CSD entry SOMPOC is in the orthorhombic crystal system
# The framework has been calculated to contain at least 10.0% void space
# The void calculation uses a probe of radius 1.32A, grid spacing 0.4
# The framework is charged, counterions have been retained in the structure
#
###############################################################################

data_SOMPOC
_chemical_formula_moiety         '(C252 H204 N84 O12 Zn12 8+)n'
_symmetry_cell_setting           triclinic
_symmetry_space_group_name_H-M   'P 1'
_symmetry_Int_Tables_number      1
_space_group_name_Hall           'P 1'
loop_
_symmetry_equiv_pos_site_id
_symmetry_equiv_pos_as_xyz
1 x,y,z
_cell_length_a                   10.1725(2)
_cell_length_b                   40.2318(10)
_cell_length_c                   18.8859(5)
_cell_angle_alpha                90
_cell_angle_beta                 90
_cell_angle_gamma                90
_cell_volume                     7729.21
loop_
_atom_site_label
_atom_site_type_symbol
_atom_site_fract_x
_atom_site_fract_y
_atom_site_fract_z
Zn3 Zn 0.01560(6) 0.12146(2) 0.33276(4)
N13 N 0.0304(5) 0.07283(11) 0.3512(3)
N19 N 0.1907(4) 0.13623(11) 0.2977(2)
N20 N 0.3735(4) 0.13438(11) 0.2340(2)
C40 C 0.1154(9) 0.0237(2) 0.3794(7)
H32 H 0.172185 0.007289 0.395695
C41 C 0.1375(9) 0.05641(19) 0.3785(7)
H33 H 0.214235 0.066615 0.394108
C61 C 0.2643(6) 0.16356(18) 0.3132(4)
H49 H 0.240940 0.180508 0.344210
C62 C 0.3783(6) 0.16172(17) 0.2753(4)
H50 H 0.447543 0.176780 0.277519
C63 C 0.2584(5) 0.12023(13) 0.2483(3)
H51 H 0.228361 0.101098 0.225862
Zn5 Zn 0.51560(6) 0.12146(2) 0.16724(4)
Zn1 Zn 0.01560(6) 0.37854(2) 0.33276(4)
N2 N 0.0304(5) 0.42717(11) 0.3512(3)
N8 N 0.1907(4) 0.36377(11) 0.2977(2)
N9 N 0.3735(4) 0.36562(11) 0.2340(2)
H3 H 0.025369 0.537615 0.414731
C7 C 0.1154(9) 0.4763(2) 0.3794(7)
H5 H 0.172185 0.492711 0.395695
C8 C 0.1375(9) 0.44359(19) 0.3785(7)
H6 H 0.214235 0.433385 0.394108
C28 C 0.2643(6) 0.33644(18) 0.3132(4)
H22 H 0.240940 0.319492 0.344210
C29 C 0.3783(6) 0.33828(17) 0.2753(4)
H23 H 0.447543 0.323220 0.277519
C30 C 0.2584(5) 0.37977(13) 0.2483(3)
H24 H 0.228361 0.398902 0.225862
H30 H 0.025369 0.962385 0.414731
Zn6 Zn 0.51560(6) 0.37854(2) 0.16724(4)
N12 N 0.9927(5) 0.01920(12) 0.3518(3)
H31 H 0.809875 0.002486 0.260446
C42 C 0.9474(6) 0.04922(15) 0.3342(3)
H34 H 0.866616 0.052937 0.312487
N22 N 0.9807(5) 0.14183(12) 0.4285(3)
N23 N 0.8735(4) 0.13438(11) 0.2660(2)
Zn2 Zn 0.39278(8) 0.750000 0.66593(4)
N1 N 0.9927(5) 0.48080(12) 0.3518(3)
N3 N 0.7329(6) 0.60354(12) 0.3108(3)
N4 N 0.4903(4) 0.66835(11) 0.5406(3)
N5 N 0.4138(4) 0.70875(11) 0.6084(2)
N6 N 0.5821(5) 0.64648(13) 0.0395(3)
N10 N 0.2071(5) 0.750000 0.6951(3)
N11 N 0.0166(6) 0.750000 0.7539(3)
C1 C 0.7982(7) 0.57194(14) 0.3208(3)
C2 C 0.8961(7) 0.56890(15) 0.3705(4)
H1 H 0.919879 0.587281 0.397429
C3 C 0.7617(9) 0.54504(17) 0.2817(4)
H2 H 0.692242 0.546564 0.249889
C4 C 0.9593(7) 0.53933(15) 0.3809(4)
C5 C 0.8292(9) 0.51540(17) 0.2899(4)
H4 H 0.809875 0.497514 0.260446
C6 C 0.9247(7) 0.51214(14) 0.3410(3)
C9 C 0.9474(6) 0.45078(15) 0.3342(3)
H7 H 0.866616 0.447063 0.312487
C10 C 0.6817(6) 0.61943(14) 0.3726(3)
C11 C 0.6895(7) 0.65416(15) 0.3794(3)
H8 H 0.735725 0.666480 0.345976
C12 C 0.6202(7) 0.60147(15) 0.4264(3)
H9 H 0.617069 0.578399 0.423674
C13 C 0.6292(6) 0.67003(15) 0.4350(3)
H10 H 0.632902 0.693068 0.438550
C14 C 0.5635(7) 0.61748(15) 0.4838(3)
H11 H 0.526502 0.605145 0.520393
C15 C 0.5620(6) 0.65151(14) 0.4865(3)
C16 C 0.3848(6) 0.65563(16) 0.5780(4)
H12 H 0.351283 0.634158 0.575102
C17 C 0.3401(6) 0.68035(14) 0.6193(4)
H13 H 0.269897 0.678615 0.650696
C18 C 0.5023(5) 0.70034(14) 0.5610(3)
H14 H 0.565825 0.714779 0.543466
C19 C 0.6981(6) 0.61508(13) 0.2427(3)
C20 C 0.7718(7) 0.60694(18) 0.1830(3)
H15 H 0.847235 0.594106 0.188354
C21 C 0.5874(7) 0.63524(15) 0.2340(3)
H16 H 0.537167 0.641409 0.272988
C22 C 0.7366(7) 0.61724(16) 0.1169(4)
H17 H 0.786668 0.611304 0.077747
C23 C 0.5534(7) 0.64594(16) 0.1667(3)
H18 H 0.480522 0.659636 0.160940
C24 C 0.6248(6) 0.63672(15) 0.1089(3)
C25 C 0.5320(7) 0.67719(16) 0.0196(4)
H19 H 0.525402 0.696102 0.047706
C31 C 0.1059(8) 0.750000 0.6486(4)
H25 H 0.115139 0.750000 0.599626
C33 C 0.1492(7) 0.750000 0.7579(4)
H27 H 0.195223 0.750000 0.800425
N14 N 0.7329(6) 0.89646(12) 0.3108(3)
N15 N 0.4903(4) 0.83165(11) 0.5406(3)
N16 N 0.4138(4) 0.79125(11) 0.6084(2)
N17 N 0.5821(5) 0.85352(13) 0.0395(3)
C34 C 0.7982(7) 0.92806(14) 0.3208(3)
C35 C 0.8961(7) 0.93110(15) 0.3705(4)
H28 H 0.919879 0.912719 0.397429
C36 C 0.7617(9) 0.95496(17) 0.2817(4)
H29 H 0.692242 0.953436 0.249889
C37 C 0.9593(7) 0.96067(15) 0.3809(4)
C38 C 0.8292(9) 0.98460(17) 0.2899(4)
C39 C 0.9247(7) 0.98786(14) 0.3410(3)
C43 C 0.6817(6) 0.88057(14) 0.3726(3)
C44 C 0.6895(7) 0.84584(15) 0.3794(3)
H35 H 0.735725 0.833520 0.345976
C45 C 0.6202(7) 0.89853(15) 0.4264(3)
H36 H 0.617069 0.921601 0.423674
C46 C 0.6292(6) 0.82997(15) 0.4350(3)
H37 H 0.632902 0.806932 0.438550
C47 C 0.5635(7) 0.88252(15) 0.4838(3)
H38 H 0.526502 0.894855 0.520393
C48 C 0.5620(6) 0.84849(14) 0.4865(3)
C49 C 0.3848(6) 0.84437(16) 0.5780(4)
H39 H 0.351283 0.865842 0.575102
C50 C 0.3401(6) 0.81965(14) 0.6193(4)
H40 H 0.269897 0.821385 0.650696
C51 C 0.5023(5) 0.79966(14) 0.5610(3)
H41 H 0.565825 0.785221 0.543466
C52 C 0.6981(6) 0.88492(13) 0.2427(3)
C53 C 0.7718(7) 0.89306(18) 0.1830(3)
H42 H 0.847235 0.905894 0.188354
C54 C 0.5874(7) 0.86476(15) 0.2340(3)
H43 H 0.537167 0.858591 0.272988
C55 C 0.7366(7) 0.88276(16) 0.1169(4)
H44 H 0.786668 0.888696 0.077747
C56 C 0.5534(7) 0.85406(16) 0.1667(3)
H45 H 0.480522 0.840364 0.160940
C57 C 0.6248(6) 0.86328(15) 0.1089(3)
C58 C 0.5320(7) 0.82281(16) 0.0196(4)
H46 H 0.525402 0.803898 0.047706
N21 N 0.9807(5) 0.35817(12) 0.4285(3)
N24 N 0.8735(4) 0.36562(11) 0.2660(2)
N25 N 0.5166(6) 0.750000 0.7461(3)
N7 N 0.5193(5) 0.64183(12) 0.9285(3)
C26 C 0.4947(7) 0.67406(15) 0.9511(4)
H20 H 0.458418 0.690875 0.923577
C27 C 0.5707(6) 0.62664(15) 0.9826(3)
H21 H 0.596627 0.604474 0.982017
N18 N 0.5193(5) 0.85817(12) 0.9285(3)
C59 C 0.4947(7) 0.82594(15) 0.9511(4)
H47 H 0.458418 0.809125 0.923577
C60 C 0.5707(6) 0.87336(15) 0.9826(3)
H48 H 0.596627 0.895526 0.982017
Zn4 Zn 0.48440(6) 0.62146(2) 0.83276(4)
Zn7 Zn 0.48440(6) 0.87854(2) 0.83276(4)
C32 C 0.9889(7) 0.750000 0.6832(5)
H26 H 0.905795 0.750000 0.662708
Zn8 Zn 0.89278(8) 0.750000 0.83407(4)
Zn2_2 Zn 0.10722(8) 0.250000 0.16593(4)
N4_2 N 0.0097(4) 0.33165(11) 0.0406(3)
N5_2 N 0.0862(4) 0.29125(11) 0.1084(2)
N10_2 N 0.2929(5) 0.250000 0.1951(3)
N11_2 N 0.4834(6) 0.250000 0.2539(3)
C16_2 C 0.1152(6) 0.34437(16) 0.0780(4)
H12_2 H 0.148717 0.365842 0.075102
C17_2 C 0.1599(6) 0.31965(14) 0.1193(4)
H13_2 H 0.230103 0.321385 0.150696
C31_2 C 0.3941(8) 0.250000 0.1486(4)
H25_2 H 0.384861 0.250000 0.099626
C32_2 C 0.5111(7) 0.250000 0.1832(5)
H26_2 H 0.594205 0.250000 0.162708
C33_2 C 0.3508(7) 0.250000 0.2579(4)
H27_2 H 0.304777 0.250000 0.300425
N15_2 N 0.0097(4) 0.16835(11) 0.0406(3)
N16_2 N 0.0862(4) 0.20875(11) 0.1084(2)
C49_2 C 0.1152(6) 0.15563(16) 0.0780(4)
H39_2 H 0.148717 0.134158 0.075102
C50_2 C 0.1599(6) 0.18035(14) 0.1193(4)
H40_2 H 0.230103 0.178615 0.150696
Zn8_2 Zn 0.60722(8) 0.250000 0.33407(4)
H18_2 H 0.019478 0.340364 0.660940
C26_2 C 0.0053(7) 0.32594(15) 0.4511(4)
H20_2 H 0.041582 0.309125 0.423577
H45_2 H 0.019478 0.159636 0.660940
C59_2 C 0.0053(7) 0.17406(15) 0.4511(4)
H47_2 H 0.041582 0.190875 0.423577
H11_2 H 0.973498 0.394855 0.020393
C18_2 C 0.9977(5) 0.29966(14) 0.0610(3)
H14_2 H 0.934175 0.285221 0.043466
H38_2 H 0.973498 0.105145 0.020393
C51_2 C 0.9977(5) 0.20034(14) 0.0610(3)
H41_2 H 0.934175 0.214779 0.043466
N25_2 N 0.9834(6) 0.250000 0.2461(3)
N1_2 N 0.5073(5) 0.51920(12) 0.8518(3)
N2_2 N 0.4696(5) 0.57283(11) 0.8512(3)
N3_2 N 0.7671(6) 0.39646(12) 0.8108(3)
N6_2 N 0.9179(5) 0.35352(13) 0.5395(3)
N8_2 N 0.3093(4) 0.63623(11) 0.7977(2)
N9_2 N 0.1265(4) 0.63438(11) 0.7340(2)
C1_2 C 0.7018(7) 0.42806(14) 0.8208(3)
C2_2 C 0.6039(7) 0.43110(15) 0.8705(4)
H1_2 H 0.580121 0.412719 0.897429
C3_2 C 0.7383(9) 0.45496(17) 0.7817(4)
H2_2 H 0.807758 0.453436 0.749889
C4_2 C 0.5407(7) 0.46067(15) 0.8809(4)
H3_2 H 0.474631 0.462385 0.914731
C5_2 C 0.6708(9) 0.48460(17) 0.7899(4)
H4_2 H 0.690125 0.502486 0.760446
C6_2 C 0.5753(7) 0.48786(14) 0.8410(3)
C7_2 C 0.3846(9) 0.5237(2) 0.8794(7)
H5_2 H 0.327815 0.507289 0.895695
C8_2 C 0.3625(9) 0.55641(19) 0.8785(7)
H6_2 H 0.285765 0.566615 0.894108
C9_2 C 0.5526(6) 0.54922(15) 0.8342(3)
H7_2 H 0.633384 0.552937 0.812487
C10_2 C 0.8183(6) 0.38057(14) 0.8726(3)
C11_2 C 0.8105(7) 0.34584(15) 0.8794(3)
H8_2 H 0.764275 0.333520 0.845976
C12_2 C 0.8798(7) 0.39853(15) 0.9264(3)
H9_2 H 0.882931 0.421601 0.923674
C13_2 C 0.8708(6) 0.32997(15) 0.9350(3)
H10_2 H 0.867098 0.306932 0.938550
C14_2 C 0.9365(7) 0.38252(15) 0.9838(3)
C15_2 C 0.9380(6) 0.34849(14) 0.9865(3)
C19_2 C 0.8019(6) 0.38492(13) 0.7427(3)
C20_2 C 0.7282(7) 0.39306(18) 0.6830(3)
H15_2 H 0.652765 0.405894 0.688354
C21_2 C 0.9126(7) 0.36476(15) 0.7340(3)
H16_2 H 0.962833 0.358591 0.772988
C22_2 C 0.7634(7) 0.38276(16) 0.6169(4)
H17_2 H 0.713332 0.388696 0.577747
C23_2 C 0.9466(7) 0.35406(16) 0.6667(3)
C24_2 C 0.8752(6) 0.36328(15) 0.6089(3)
C25_2 C 0.9680(7) 0.32281(16) 0.5196(4)
H19_2 H 0.974598 0.303898 0.547706
C27_2 C 0.9293(6) 0.37336(15) 0.4826(3)
H21_2 H 0.903373 0.395526 0.482017
C28_2 C 0.2357(6) 0.66356(18) 0.8132(4)
H22_2 H 0.259060 0.680508 0.844210
C29_2 C 0.1217(6) 0.66172(17) 0.7753(4)
H23_2 H 0.052457 0.676780 0.777519
C30_2 C 0.2416(5) 0.62023(13) 0.7483(3)
H24_2 H 0.271639 0.601098 0.725862
N14_2 N 0.7671(6) 0.10354(12) 0.8108(3)
N17_2 N 0.9179(5) 0.14648(13) 0.5395(3)
C34_2 C 0.7018(7) 0.07194(14) 0.8208(3)
C35_2 C 0.6039(7) 0.06890(15) 0.8705(4)
H28_2 H 0.580121 0.087281 0.897429
C36_2 C 0.7383(9) 0.04504(17) 0.7817(4)
H29_2 H 0.807758 0.046564 0.749889
C37_2 C 0.5407(7) 0.03933(15) 0.8809(4)
H30_2 H 0.474631 0.037615 0.914731
C38_2 C 0.6708(9) 0.01540(17) 0.7899(4)
C39_2 C 0.5753(7) 0.01214(14) 0.8410(3)
C43_2 C 0.8183(6) 0.11943(14) 0.8726(3)
C44_2 C 0.8105(7) 0.15416(15) 0.8794(3)
H35_2 H 0.764275 0.166480 0.845976
C45_2 C 0.8798(7) 0.10147(15) 0.9264(3)
H36_2 H 0.882931 0.078399 0.923674
C46_2 C 0.8708(6) 0.17003(15) 0.9350(3)
H37_2 H 0.867098 0.193068 0.938550
C47_2 C 0.9365(7) 0.11748(15) 0.9838(3)
C48_2 C 0.9380(6) 0.15151(14) 0.9865(3)
C52_2 C 0.8019(6) 0.11508(13) 0.7427(3)
C53_2 C 0.7282(7) 0.10694(18) 0.6830(3)
H42_2 H 0.652765 0.094106 0.688354
C54_2 C 0.9126(7) 0.13524(15) 0.7340(3)
H43_2 H 0.962833 0.141409 0.772988
C55_2 C 0.7634(7) 0.11724(16) 0.6169(4)
H44_2 H 0.713332 0.111304 0.577747
C56_2 C 0.9466(7) 0.14594(16) 0.6667(3)
C57_2 C 0.8752(6) 0.13672(15) 0.6089(3)
C58_2 C 0.9680(7) 0.17719(16) 0.5196(4)
H46_2 H 0.974598 0.196102 0.547706
C60_2 C 0.9293(6) 0.12664(15) 0.4826(3)
H48_2 H 0.903373 0.104474 0.482017
N24_2 N 0.6265(4) 0.63438(11) 0.7660(2)
N12_2 N 0.5073(5) 0.98080(12) 0.8518(3)
N13_2 N 0.4696(5) 0.92717(11) 0.8512(3)
N19_2 N 0.3093(4) 0.86377(11) 0.7977(2)
N20_2 N 0.1265(4) 0.86562(11) 0.7340(2)
H31_2 H 0.690125 0.997514 0.760446
C40_2 C 0.3846(9) 0.9763(2) 0.8794(7)
H32_2 H 0.327815 0.992711 0.895695
C41_2 C 0.3625(9) 0.94359(19) 0.8785(7)
H33_2 H 0.285765 0.933385 0.894108
C42_2 C 0.5526(6) 0.95078(15) 0.8342(3)
H34_2 H 0.633384 0.947063 0.812487
C61_2 C 0.2357(6) 0.83644(18) 0.8132(4)
H49_2 H 0.259060 0.819492 0.844210
C62_2 C 0.1217(6) 0.83828(17) 0.7753(4)
H50_2 H 0.052457 0.823220 0.777519
C63_2 C 0.2416(5) 0.87977(13) 0.7483(3)
H51_2 H 0.271639 0.898902 0.725862
N23_2 N 0.6265(4) 0.86562(11) 0.7660(2)
Zn6_2 Zn 0.98440(6) 0.62146(2) 0.66724(4)
Zn5_2 Zn 0.98440(6) 0.87854(2) 0.66724(4)
C32_3 C 0.0111(7) 0.250000 0.3168(5)
H26_3 H 0.094205 0.250000 0.337292
N7_2 N 0.4807(5) 0.14183(12) 0.0715(3)
C26_3 C 0.5053(7) 0.17406(15) 0.0489(4)
H20_3 H 0.541582 0.190875 0.076423
C27_3 C 0.4293(6) 0.12664(15) 0.0174(3)
H21_3 H 0.403373 0.104474 0.017983
N18_2 N 0.4807(5) 0.35817(12) 0.0715(3)
C59_3 C 0.5053(7) 0.32594(15) 0.0489(4)
H47_3 H 0.541582 0.309125 0.076423
C60_3 C 0.4293(6) 0.37336(15) 0.0174(3)
H48_3 H 0.403373 0.395526 0.017983
N3_3 N 0.2671(6) 0.10354(12) 0.6892(3)
N4_3 N 0.5097(4) 0.16835(11) 0.4594(3)
N5_3 N 0.5862(4) 0.20875(11) 0.3916(2)
N6_3 N 0.4179(5) 0.14648(13) 0.9605(3)
N10_3 N 0.7929(5) 0.250000 0.3049(3)
C1_3 C 0.2018(7) 0.07194(14) 0.6792(3)
C2_3 C 0.1039(7) 0.06890(15) 0.6295(4)
H1_3 H 0.080121 0.087281 0.602571
C3_3 C 0.2383(9) 0.04504(17) 0.7183(4)
H2_3 H 0.307758 0.046564 0.750111
C4_3 C 0.0407(7) 0.03933(15) 0.6191(4)
C5_3 C 0.1708(9) 0.01540(17) 0.7101(4)
C6_3 C 0.0753(7) 0.01214(14) 0.6590(3)
C10_3 C 0.3183(6) 0.11943(14) 0.6274(3)
C11_3 C 0.3105(7) 0.15416(15) 0.6206(3)
H8_3 H 0.264275 0.166480 0.654024
C12_3 C 0.3798(7) 0.10147(15) 0.5736(3)
H9_3 H 0.382931 0.078399 0.576326
C13_3 C 0.3708(6) 0.17003(15) 0.5650(3)
H10_3 H 0.367098 0.193068 0.561450
C14_3 C 0.4365(7) 0.11748(15) 0.5162(3)
H11_3 H 0.473498 0.105145 0.479607
C15_3 C 0.4380(6) 0.15151(14) 0.5135(3)
C16_3 C 0.6152(6) 0.15563(16) 0.4220(4)
H12_3 H 0.648717 0.134158 0.424898
C17_3 C 0.6599(6) 0.18035(14) 0.3807(4)
H13_3 H 0.730103 0.178615 0.349304
C18_3 C 0.4977(5) 0.20034(14) 0.4390(3)
H14_3 H 0.434175 0.214779 0.456534
C19_3 C 0.3019(6) 0.11508(13) 0.7573(3)
C20_3 C 0.2282(7) 0.10694(18) 0.8170(3)
H15_3 H 0.152765 0.094106 0.811646
C21_3 C 0.4126(7) 0.13524(15) 0.7660(3)
H16_3 H 0.462833 0.141409 0.727012
C22_3 C 0.2634(7) 0.11724(16) 0.8831(4)
H17_3 H 0.213332 0.111304 0.922253
C23_3 C 0.4466(7) 0.14594(16) 0.8333(3)
H18_3 H 0.519478 0.159636 0.839060
C24_3 C 0.3752(6) 0.13672(15) 0.8911(3)
C25_3 C 0.4680(7) 0.17719(16) 0.9804(4)
H19_3 H 0.474598 0.196102 0.952294
C31_3 C 0.8941(8) 0.250000 0.3514(4)
H25_3 H 0.884861 0.250000 0.400374
C33_3 C 0.8508(7) 0.250000 0.2421(4)
H27_3 H 0.804777 0.250000 0.199575
N12_3 N 0.0073(5) 0.51920(12) 0.6482(3)
N14_3 N 0.2671(6) 0.39646(12) 0.6892(3)
N15_3 N 0.5097(4) 0.33165(11) 0.4594(3)
N16_3 N 0.5862(4) 0.29125(11) 0.3916(2)
N17_3 N 0.4179(5) 0.35352(13) 0.9605(3)
C34_3 C 0.2018(7) 0.42806(14) 0.6792(3)
C35_3 C 0.1039(7) 0.43110(15) 0.6295(4)
H28_3 H 0.080121 0.412719 0.602571
C36_3 C 0.2383(9) 0.45496(17) 0.7183(4)
H29_3 H 0.307758 0.453436 0.750111
C37_3 C 0.0407(7) 0.46067(15) 0.6191(4)
C38_3 C 0.1708(9) 0.48460(17) 0.7101(4)
H31_3 H 0.190125 0.502486 0.739554
C39_3 C 0.0753(7) 0.48786(14) 0.6590(3)
C42_3 C 0.0526(6) 0.54922(15) 0.6658(3)
H34_3 H 0.133384 0.552937 0.687513
C43_3 C 0.3183(6) 0.38057(14) 0.6274(3)
C44_3 C 0.3105(7) 0.34584(15) 0.6206(3)
H35_3 H 0.264275 0.333520 0.654024
C45_3 C 0.3798(7) 0.39853(15) 0.5736(3)
H36_3 H 0.382931 0.421601 0.576326
C46_3 C 0.3708(6) 0.32997(15) 0.5650(3)
H37_3 H 0.367098 0.306932 0.561450
C47_3 C 0.4365(7) 0.38252(15) 0.5162(3)
H38_3 H 0.473498 0.394855 0.479607
C48_3 C 0.4380(6) 0.34849(14) 0.5135(3)
C49_3 C 0.6152(6) 0.34437(16) 0.4220(4)
H39_3 H 0.648717 0.365842 0.424898
C50_3 C 0.6599(6) 0.31965(14) 0.3807(4)
H40_3 H 0.730103 0.321385 0.349304
C51_3 C 0.4977(5) 0.29966(14) 0.4390(3)
H41_3 H 0.434175 0.285221 0.456534
C52_3 C 0.3019(6) 0.38492(13) 0.7573(3)
C53_3 C 0.2282(7) 0.39306(18) 0.8170(3)
H42_3 H 0.152765 0.405894 0.811646
C54_3 C 0.4126(7) 0.36476(15) 0.7660(3)
H43_3 H 0.462833 0.358591 0.727012
C55_3 C 0.2634(7) 0.38276(16) 0.8831(4)
H44_3 H 0.213332 0.388696 0.922253
C56_3 C 0.4466(7) 0.35406(16) 0.8333(3)
H45_3 H 0.519478 0.340364 0.839060
C57_3 C 0.3752(6) 0.36328(15) 0.8911(3)
C58_3 C 0.4680(7) 0.32281(16) 0.9804(4)
H46_3 H 0.474598 0.303898 0.952294
N22_2 N 0.0193(5) 0.64183(12) 0.5715(3)
N1_3 N 0.0073(5) 0.98080(12) 0.6482(3)
H4_3 H 0.190125 0.997514 0.739554
C9_3 C 0.0526(6) 0.95078(15) 0.6658(3)
H7_3 H 0.133384 0.947063 0.687513
N21_2 N 0.0193(5) 0.85817(12) 0.5715(3)
H3_3 H 0.974631 0.037615 0.585269
N13_3 N 0.9696(5) 0.57283(11) 0.6488(3)
N19_3 N 0.8093(4) 0.63623(11) 0.7023(2)
H30_3 H 0.974631 0.462385 0.585269
C40_3 C 0.8846(9) 0.5237(2) 0.6206(7)
H32_3 H 0.827815 0.507289 0.604305
C41_3 C 0.8625(9) 0.55641(19) 0.6215(7)
H33_3 H 0.785765 0.566615 0.605892
C61_3 C 0.7357(6) 0.66356(18) 0.6868(4)
H49_3 H 0.759060 0.680508 0.655790
C62_3 C 0.6217(6) 0.66172(17) 0.7247(4)
H50_3 H 0.552457 0.676780 0.722481
C63_3 C 0.7416(5) 0.62023(13) 0.7517(3)
H51_3 H 0.771639 0.601098 0.774138
N2_3 N 0.9696(5) 0.92717(11) 0.6488(3)
N8_3 N 0.8093(4) 0.86377(11) 0.7023(2)
C7_3 C 0.8846(9) 0.9763(2) 0.6206(7)
H5_3 H 0.827815 0.992711 0.604305
C8_3 C 0.8625(9) 0.94359(19) 0.6215(7)
H6_3 H 0.785765 0.933385 0.605892
C28_3 C 0.7357(6) 0.83644(18) 0.6868(4)
H22_3 H 0.759060 0.819492 0.655790
C29_3 C 0.6217(6) 0.83828(17) 0.7247(4)
H23_3 H 0.552457 0.823220 0.722481
C30_3 C 0.7416(5) 0.87977(13) 0.7517(3)
H24_3 H 0.771639 0.898902 0.774138
N1_4 N 0.4927(5) 0.01920(12) 0.1482(3)
N2_4 N 0.5304(5) 0.07283(11) 0.1488(3)
N8_4 N 0.6907(4) 0.13623(11) 0.2023(2)
H4_4 H 0.309875 0.002486 0.239554
C7_4 C 0.6154(9) 0.0237(2) 0.1206(7)
H5_4 H 0.672185 0.007289 0.104305
C8_4 C 0.6375(9) 0.05641(19) 0.1215(7)
H6_4 H 0.714235 0.066615 0.105892
C9_4 C 0.4474(6) 0.04922(15) 0.1658(3)
H7_4 H 0.366616 0.052937 0.187513
C28_4 C 0.7643(6) 0.16356(18) 0.1868(4)
H22_4 H 0.740940 0.180508 0.155790
C29_4 C 0.8783(6) 0.16172(17) 0.2247(4)
H23_4 H 0.947543 0.176780 0.222481
C30_4 C 0.7584(5) 0.12023(13) 0.2517(3)
H24_4 H 0.728361 0.101098 0.274138
N3_4 N 0.2329(6) 0.89646(12) 0.1892(3)
N6_4 N 0.0821(5) 0.85352(13) 0.4605(3)
C1_4 C 0.2982(7) 0.92806(14) 0.1792(3)
C2_4 C 0.3961(7) 0.93110(15) 0.1295(4)
H1_4 H 0.419879 0.912719 0.102571
C3_4 C 0.2617(9) 0.95496(17) 0.2183(4)
H2_4 H 0.192242 0.953436 0.250111
C4_4 C 0.4593(7) 0.96067(15) 0.1191(4)
H3_4 H 0.525369 0.962385 0.085269
C5_4 C 0.3292(9) 0.98460(17) 0.2101(4)
C6_4 C 0.4247(7) 0.98786(14) 0.1590(3)
C10_4 C 0.1817(6) 0.88057(14) 0.1274(3)
C11_4 C 0.1895(7) 0.84584(15) 0.1206(3)
H8_4 H 0.235725 0.833520 0.154024
C12_4 C 0.1202(7) 0.89853(15) 0.0736(3)
H9_4 H 0.117069 0.921601 0.076326
C13_4 C 0.1292(6) 0.82997(15) 0.0650(3)
H10_4 H 0.132902 0.806932 0.061450
C14_4 C 0.0635(7) 0.88252(15) 0.0162(3)
C15_4 C 0.0620(6) 0.84849(14) 0.0135(3)
C19_4 C 0.1981(6) 0.88492(13) 0.2573(3)
C20_4 C 0.2718(7) 0.89306(18) 0.3170(3)
H15_4 H 0.347235 0.905894 0.311646
C21_4 C 0.0874(7) 0.86476(15) 0.2660(3)
H16_4 H 0.037167 0.858591 0.227012
C22_4 C 0.2366(7) 0.88276(16) 0.3831(4)
H17_4 H 0.286668 0.888696 0.422253
C23_4 C 0.0534(7) 0.85406(16) 0.3333(3)
C24_4 C 0.1248(6) 0.86328(15) 0.3911(3)
C25_4 C 0.0320(7) 0.82281(16) 0.4804(4)
H19_4 H 0.025402 0.803898 0.452294
C27_4 C 0.0707(6) 0.87336(15) 0.5174(3)
H21_4 H 0.096627 0.895526 0.517983
N12_4 N 0.4927(5) 0.48080(12) 0.1482(3)
N13_4 N 0.5304(5) 0.42717(11) 0.1488(3)
N14_4 N 0.2329(6) 0.60354(12) 0.1892(3)
N17_4 N 0.0821(5) 0.64648(13) 0.4605(3)
N19_4 N 0.6907(4) 0.36377(11) 0.2023(2)
C34_4 C 0.2982(7) 0.57194(14) 0.1792(3)
C35_4 C 0.3961(7) 0.56890(15) 0.1295(4)
H28_4 H 0.419879 0.587281 0.102571
C36_4 C 0.2617(9) 0.54504(17) 0.2183(4)
H29_4 H 0.192242 0.546564 0.250111
C37_4 C 0.4593(7) 0.53933(15) 0.1191(4)
H30_4 H 0.525369 0.537615 0.085269
C38_4 C 0.3292(9) 0.51540(17) 0.2101(4)
H31_4 H 0.309875 0.497514 0.239554
C39_4 C 0.4247(7) 0.51214(14) 0.1590(3)
C40_4 C 0.6154(9) 0.4763(2) 0.1206(7)
H32_4 H 0.672185 0.492711 0.104305
C41_4 C 0.6375(9) 0.44359(19) 0.1215(7)
H33_4 H 0.714235 0.433385 0.105892
C42_4 C 0.4474(6) 0.45078(15) 0.1658(3)
H34_4 H 0.366616 0.447063 0.187513
C43_4 C 0.1817(6) 0.61943(14) 0.1274(3)
C44_4 C 0.1895(7) 0.65416(15) 0.1206(3)
H35_4 H 0.235725 0.666480 0.154024
C45_4 C 0.1202(7) 0.60147(15) 0.0736(3)
H36_4 H 0.117069 0.578399 0.076326
C46_4 C 0.1292(6) 0.67003(15) 0.0650(3)
H37_4 H 0.132902 0.693068 0.061450
C47_4 C 0.0635(7) 0.61748(15) 0.0162(3)
C48_4 C 0.0620(6) 0.65151(14) 0.0135(3)
C52_4 C 0.1981(6) 0.61508(13) 0.2573(3)
C53_4 C 0.2718(7) 0.60694(18) 0.3170(3)
H42_4 H 0.347235 0.594106 0.311646
C54_4 C 0.0874(7) 0.63524(15) 0.2660(3)
H43_4 H 0.037167 0.641409 0.227012
C55_4 C 0.2366(7) 0.61724(16) 0.3831(4)
H44_4 H 0.286668 0.611304 0.422253
C56_4 C 0.0534(7) 0.64594(16) 0.3333(3)
C57_4 C 0.1248(6) 0.63672(15) 0.3911(3)
C58_4 C 0.0320(7) 0.67719(16) 0.4804(4)
H46_4 H 0.025402 0.696102 0.452294
C60_4 C 0.0707(6) 0.62664(15) 0.5174(3)
H48_4 H 0.096627 0.604474 0.517983
C61_4 C 0.7643(6) 0.33644(18) 0.1868(4)
H49_4 H 0.740940 0.319492 0.155790
C62_4 C 0.8783(6) 0.33828(17) 0.2247(4)
H50_4 H 0.947543 0.323220 0.222481
C63_4 C 0.7584(5) 0.37977(13) 0.2517(3)
H51_4 H 0.728361 0.398902 0.274138
H11_4 H 0.026502 0.894855 0.979607
C18_4 C 0.0023(5) 0.79966(14) 0.9390(3)
H14_4 H 0.065825 0.785221 0.956534
H38_4 H 0.026502 0.605145 0.979607
C51_4 C 0.0023(5) 0.70034(14) 0.9390(3)
H41_4 H 0.065825 0.714779 0.956534
H18_4 H 0.980522 0.840364 0.339060
C26_4 C 0.9947(7) 0.82594(15) 0.5489(4)
H20_4 H 0.958418 0.809125 0.576423
H45_4 H 0.980522 0.659636 0.339060
C59_4 C 0.9947(7) 0.67406(15) 0.5489(4)
H47_4 H 0.958418 0.690875 0.576423
N4_4 N 0.9903(4) 0.83165(11) 0.9594(3)
N5_4 N 0.9138(4) 0.79125(11) 0.8916(2)
N10_4 N 0.7071(5) 0.750000 0.8049(3)
C16_4 C 0.8848(6) 0.84437(16) 0.9220(4)
H12_4 H 0.851283 0.865842 0.924898
C17_4 C 0.8401(6) 0.81965(14) 0.8807(4)
H13_4 H 0.769897 0.821385 0.849304
C31_4 C 0.6059(8) 0.750000 0.8514(4)
H25_4 H 0.615139 0.750000 0.900374
C32_4 C 0.4889(7) 0.750000 0.8168(5)
H26_4 H 0.405795 0.750000 0.837292
C33_4 C 0.6492(7) 0.750000 0.7421(4)
H27_4 H 0.695223 0.750000 0.699575
N15_4 N 0.9903(4) 0.66835(11) 0.9594(3)
N16_4 N 0.9138(4) 0.70875(11) 0.8916(2)
C49_4 C 0.8848(6) 0.65563(16) 0.9220(4)
H39_4 H 0.851283 0.634158 0.924898
C50_4 C 0.8401(6) 0.68035(14) 0.8807(4)
H40_4 H 0.769897 0.678615 0.849304
O1 O 0.4183(7) 0.750000 0.0046(5)
O2 O 0.2151(9) 0.750000 0.0416(4)
O3 O 0.2553(9) 0.750000 0.9337(5)
N26 N 0.2993(9) 0.750000 0.9949(6)
O1_2 O 0.0817(7) 0.250000 0.5046(5)
O2_2 O 0.2849(9) 0.250000 0.5416(4)
O3_2 O 0.2447(9) 0.250000 0.4337(5)
N26_2 N 0.2007(9) 0.250000 0.4949(6)
O3_3 O 0.7447(9) 0.250000 0.0663(5)
N26_3 N 0.7007(9) 0.250000 0.0051(6)
O1_3 O 0.5817(7) 0.250000 0.9954(5)
O2_3 O 0.7849(9) 0.250000 0.9584(4)
O1_4 O 0.9183(7) 0.750000 0.4954(5)
O2_4 O 0.7151(9) 0.750000 0.4584(4)
O3_4 O 0.7553(9) 0.750000 0.5663(5)
N26_4 N 0.7993(9) 0.750000 0.5051(6)
loop_
_geom_bond_atom_site_label_1
_geom_bond_atom_site_label_2
_geom_bond_site_symmetry_1
_geom_bond_site_symmetry_2
Zn3 N13 1_555 1_555
N13 C41 1_555 1_555
N19 Zn3 1_555 1_555
N20 C62 1_555 1_555
H32 C40 1_555 1_555
C41 C40 1_555 1_555
H33 C41 1_555 1_555
C61 N19 1_555 1_555
H49 C61 1_555 1_555
C62 C61 1_555 1_555
H50 C62 1_555 1_555
C63 N19 1_555 1_555
H51 C63 1_555 1_555
Zn5 N20 1_555 1_555
N20 C63 1_555 1_555
Zn1 N2 1_555 1_555
N2 C8 1_555 1_555
N8 Zn1 1_555 1_555
N9 C29 1_555 1_555
H5 C7 1_555 1_555
C8 C7 1_555 1_555
H6 C8 1_555 1_555
C28 N8 1_555 1_555
H22 C28 1_555 1_555
C29 C28 1_555 1_555
H23 C29 1_555 1_555
C30 N8 1_555 1_555
H24 C30 1_555 1_555
Zn6 N9 1_555 1_555
N9 C30 1_555 1_555
C42 N12 1_555 1_555
H34 C42 1_555 1_555
Zn2 N5 1_555 1_555
N1 C6 1_555 1_555
N3 C1 1_555 1_555
N4 C15 1_555 1_555
N5 C17 1_555 1_555
N6 C24 1_555 1_555
N10 Zn2 1_555 1_555
C1 C2 1_555 1_555
C2 H1 1_555 1_555
C3 C1 1_555 1_555
H2 C3 1_555 1_555
C4 C2 1_555 1_555
C5 C3 1_555 1_555
H4 C5 1_555 1_555
C6 C4 1_555 1_555
C9 N1 1_555 1_555
H7 C9 1_555 1_555
C10 N3 1_555 1_555
C11 C10 1_555 1_555
H8 C11 1_555 1_555
C12 C10 1_555 1_555
H9 C12 1_555 1_555
C13 C11 1_555 1_555
H10 C13 1_555 1_555
C14 C12 1_555 1_555
H11 C14 1_555 1_555
C15 C13 1_555 1_555
C16 N4 1_555 1_555
H12 C16 1_555 1_555
C17 C16 1_555 1_555
H13 C17 1_555 1_555
C18 N4 1_555 1_555
H14 C18 1_555 1_555
C19 N3 1_555 1_555
C20 C19 1_555 1_555
H15 C20 1_555 1_555
C21 C19 1_555 1_555
H16 C21 1_555 1_555
C22 C20 1_555 1_555
H17 C22 1_555 1_555
C23 C21 1_555 1_555
H18 C23 1_555 1_555
C24 C22 1_555 1_555
C25 N6 1_555 1_555
H19 C25 1_555 1_555
C31 N10 1_555 1_555
H25 C31 1_555 1_555
C33 N10 1_555 1_555
H27 C33 1_555 1_555
N14 C34 1_555 1_555
N15 C48 1_555 1_555
N16 Zn2 1_555 1_555
N17 C57 1_555 1_555
C34 C35 1_555 1_555
C35 H28 1_555 1_555
C36 C34 1_555 1_555
H29 C36 1_555 1_555
C37 C35 1_555 1_555
C38 C36 1_555 1_555
C39 C37 1_555 1_555
C43 N14 1_555 1_555
C44 C43 1_555 1_555
H35 C44 1_555 1_555
C45 C43 1_555 1_555
H36 C45 1_555 1_555
C46 C44 1_555 1_555
H37 C46 1_555 1_555
C47 C45 1_555 1_555
H38 C47 1_555 1_555
C48 C46 1_555 1_555
C49 N15 1_555 1_555
H39 C49 1_555 1_555
C50 N16 1_555 1_555
H40 C50 1_555 1_555
C51 N15 1_555 1_555
H41 C51 1_555 1_555
C52 N14 1_555 1_555
C53 C52 1_555 1_555
H42 C53 1_555 1_555
C54 C52 1_555 1_555
H43 C54 1_555 1_555
C55 C53 1_555 1_555
H44 C55 1_555 1_555
C56 C54 1_555 1_555
H45 C56 1_555 1_555
C57 C55 1_555 1_555
C58 N17 1_555 1_555
H46 C58 1_555 1_555
N25 Zn2 1_555 1_555
N5 C18 1_555 1_555
N11 C33 1_555 1_555
C5 C6 1_555 1_555
C14 C15 1_555 1_555
C23 C24 1_555 1_555
N16 C51 1_555 1_555
C38 C39 1_555 1_555
C47 C48 1_555 1_555
C49 C50 1_555 1_555
C56 C57 1_555 1_555
N7 C26 1_555 1_555
H20 C26 1_555 1_555
H21 C27 1_555 1_555
N18 C59 1_555 1_555
H47 C59 1_555 1_555
H48 C60 1_555 1_555
Zn4 N7 1_555 1_555
Zn7 N18 1_555 1_555
N7 C27 1_555 1_555
N18 C60 1_555 1_555
H26 C32 1_555 1_555
Zn2_2 N5_2 1_555 1_555
N5_2 C17_2 1_555 1_555
N10_2 Zn2_2 1_555 1_555
N11_2 C32_2 1_555 1_555
C16_2 N4_2 1_555 1_555
H12_2 C16_2 1_555 1_555
C17_2 C16_2 1_555 1_555
H13_2 C17_2 1_555 1_555
C31_2 N10_2 1_555 1_555
H25_2 C31_2 1_555 1_555
C32_2 C31_2 1_555 1_555
H26_2 C32_2 1_555 1_555
C33_2 N10_2 1_555 1_555
H27_2 C33_2 1_555 1_555
N16_2 Zn2_2 1_555 1_555
C49_2 N15_2 1_555 1_555
H39_2 C49_2 1_555 1_555
C50_2 N16_2 1_555 1_555
H40_2 C50_2 1_555 1_555
Zn8_2 N11_2 1_555 1_555
N11_2 C33_2 1_555 1_555
C49_2 C50_2 1_555 1_555
H20_2 C26_2 1_555 1_555
H47_2 C59_2 1_555 1_555
H14_2 C18_2 1_555 1_555
H41_2 C51_2 1_555 1_555
Zn4 N2_2 1_555 1_555
N1_2 C6_2 1_555 1_555
N2_2 C8_2 1_555 1_555
N3_2 C1_2 1_555 1_555
N6_2 C24_2 1_555 1_555
N8_2 Zn4 1_555 1_555
N9_2 C29_2 1_555 1_555
C1_2 C2_2 1_555 1_555
C2_2 H1_2 1_555 1_555
C3_2 C1_2 1_555 1_555
H2_2 C3_2 1_555 1_555
C4_2 C2_2 1_555 1_555
H3_2 C4_2 1_555 1_555
C5_2 C3_2 1_555 1_555
H4_2 C5_2 1_555 1_555
C6_2 C4_2 1_555 1_555
C7_2 N1_2 1_555 1_555
H5_2 C7_2 1_555 1_555
C8_2 C7_2 1_555 1_555
H6_2 C8_2 1_555 1_555
C9_2 N1_2 1_555 1_555
H7_2 C9_2 1_555 1_555
C10_2 N3_2 1_555 1_555
C11_2 C10_2 1_555 1_555
H8_2 C11_2 1_555 1_555
C12_2 C10_2 1_555 1_555
H9_2 C12_2 1_555 1_555
C13_2 C11_2 1_555 1_555
H10_2 C13_2 1_555 1_555
C14_2 C12_2 1_555 1_555
C15_2 C13_2 1_555 1_555
C19_2 N3_2 1_555 1_555
C20_2 C19_2 1_555 1_555
H15_2 C20_2 1_555 1_555
C21_2 C19_2 1_555 1_555
H16_2 C21_2 1_555 1_555
C22_2 C20_2 1_555 1_555
H17_2 C22_2 1_555 1_555
C23_2 C21_2 1_555 1_555
C24_2 C22_2 1_555 1_555
C25_2 N6_2 1_555 1_555
H19_2 C25_2 1_555 1_555
C27_2 N6_2 1_555 1_555
H21_2 C27_2 1_555 1_555
C28_2 N8_2 1_555 1_555
H22_2 C28_2 1_555 1_555
C29_2 C28_2 1_555 1_555
H23_2 C29_2 1_555 1_555
C30_2 N8_2 1_555 1_555
H24_2 C30_2 1_555 1_555
N14_2 C34_2 1_555 1_555
N17_2 C57_2 1_555 1_555
C34_2 C35_2 1_555 1_555
C35_2 H28_2 1_555 1_555
C36_2 C34_2 1_555 1_555
H29_2 C36_2 1_555 1_555
C37_2 C35_2 1_555 1_555
H30_2 C37_2 1_555 1_555
C38_2 C36_2 1_555 1_555
C39_2 C37_2 1_555 1_555
C43_2 N14_2 1_555 1_555
C44_2 C43_2 1_555 1_555
H35_2 C44_2 1_555 1_555
C45_2 C43_2 1_555 1_555
H36_2 C45_2 1_555 1_555
C46_2 C44_2 1_555 1_555
H37_2 C46_2 1_555 1_555
C47_2 C45_2 1_555 1_555
C48_2 C46_2 1_555 1_555
C52_2 N14_2 1_555 1_555
C53_2 C52_2 1_555 1_555
H42_2 C53_2 1_555 1_555
C54_2 C52_2 1_555 1_555
H43_2 C54_2 1_555 1_555
C55_2 C53_2 1_555 1_555
H44_2 C55_2 1_555 1_555
C56_2 C54_2 1_555 1_555
C57_2 C55_2 1_555 1_555
C58_2 N17_2 1_555 1_555
H46_2 C58_2 1_555 1_555
C60_2 N17_2 1_555 1_555
H48_2 C60_2 1_555 1_555
N24_2 Zn4 1_555 1_555
N2_2 C9_2 1_555 1_555
N21 C27_2 1_555 1_555
N9_2 C30_2 1_555 1_555
C5_2 C6_2 1_555 1_555
C14_2 C15_2 1_555 1_555
C23_2 C24_2 1_555 1_555
N22 C60_2 1_555 1_555
C38_2 C39_2 1_555 1_555
C47_2 C48_2 1_555 1_555
C56_2 C57_2 1_555 1_555
Zn7 N13_2 1_555 1_555
N13_2 C41_2 1_555 1_555
N19_2 Zn7 1_555 1_555
N20_2 C62_2 1_555 1_555
C40_2 N12_2 1_555 1_555
H32_2 C40_2 1_555 1_555
C41_2 C40_2 1_555 1_555
H33_2 C41_2 1_555 1_555
C42_2 N12_2 1_555 1_555
H34_2 C42_2 1_555 1_555
C61_2 N19_2 1_555 1_555
H49_2 C61_2 1_555 1_555
C62_2 C61_2 1_555 1_555
H50_2 C62_2 1_555 1_555
C63_2 N19_2 1_555 1_555
H51_2 C63_2 1_555 1_555
N23_2 Zn7 1_555 1_555
N13_2 C42_2 1_555 1_555
N20_2 C63_2 1_555 1_555
H26_3 C32_3 1_555 1_555
N7_2 C26_3 1_555 1_555
H20_3 C26_3 1_555 1_555
H21_3 C27_3 1_555 1_555
N18_2 C59_3 1_555 1_555
H47_3 C59_3 1_555 1_555
H48_3 C60_3 1_555 1_555
Zn5 N7_2 1_555 1_555
Zn6 N18_2 1_555 1_555
N7_2 C27_3 1_555 1_555
N18_2 C60_3 1_555 1_555
Zn8_2 N5_3 1_555 1_555
N3_3 C1_3 1_555 1_555
N4_3 C15_3 1_555 1_555
N5_3 C17_3 1_555 1_555
N6_3 C24_3 1_555 1_555
N10_3 Zn8_2 1_555 1_555
C1_3 C2_3 1_555 1_555
C2_3 H1_3 1_555 1_555
C3_3 C1_3 1_555 1_555
H2_3 C3_3 1_555 1_555
C4_3 C2_3 1_555 1_555
C5_3 C3_3 1_555 1_555
C6_3 C4_3 1_555 1_555
C10_3 N3_3 1_555 1_555
C11_3 C10_3 1_555 1_555
H8_3 C11_3 1_555 1_555
C12_3 C10_3 1_555 1_555
H9_3 C12_3 1_555 1_555
C13_3 C11_3 1_555 1_555
H10_3 C13_3 1_555 1_555
C14_3 C12_3 1_555 1_555
H11_3 C14_3 1_555 1_555
C15_3 C13_3 1_555 1_555
C16_3 N4_3 1_555 1_555
H12_3 C16_3 1_555 1_555
C17_3 C16_3 1_555 1_555
H13_3 C17_3 1_555 1_555
C18_3 N4_3 1_555 1_555
H14_3 C18_3 1_555 1_555
C19_3 N3_3 1_555 1_555
C20_3 C19_3 1_555 1_555
H15_3 C20_3 1_555 1_555
C21_3 C19_3 1_555 1_555
H16_3 C21_3 1_555 1_555
C22_3 C20_3 1_555 1_555
H17_3 C22_3 1_555 1_555
C23_3 C21_3 1_555 1_555
H18_3 C23_3 1_555 1_555
C24_3 C22_3 1_555 1_555
C25_3 N6_3 1_555 1_555
H19_3 C25_3 1_555 1_555
C31_3 N10_3 1_555 1_555
H25_3 C31_3 1_555 1_555
C33_3 N10_3 1_555 1_555
H27_3 C33_3 1_555 1_555
N12_3 C39_3 1_555 1_555
N14_3 C34_3 1_555 1_555
N15_3 C48_3 1_555 1_555
N16_3 Zn8_2 1_555 1_555
N17_3 C57_3 1_555 1_555
C34_3 C35_3 1_555 1_555
C35_3 H28_3 1_555 1_555
C36_3 C34_3 1_555 1_555
H29_3 C36_3 1_555 1_555
C37_3 C35_3 1_555 1_555
C38_3 C36_3 1_555 1_555
H31_3 C38_3 1_555 1_555
C39_3 C37_3 1_555 1_555
C42_3 N12_3 1_555 1_555
H34_3 C42_3 1_555 1_555
C43_3 N14_3 1_555 1_555
C44_3 C43_3 1_555 1_555
H35_3 C44_3 1_555 1_555
C45_3 C43_3 1_555 1_555
H36_3 C45_3 1_555 1_555
C46_3 C44_3 1_555 1_555
H37_3 C46_3 1_555 1_555
C47_3 C45_3 1_555 1_555
H38_3 C47_3 1_555 1_555
C48_3 C46_3 1_555 1_555
C49_3 N15_3 1_555 1_555
H39_3 C49_3 1_555 1_555
C50_3 N16_3 1_555 1_555
H40_3 C50_3 1_555 1_555
C51_3 N15_3 1_555 1_555
H41_3 C51_3 1_555 1_555
C52_3 N14_3 1_555 1_555
C53_3 C52_3 1_555 1_555
H42_3 C53_3 1_555 1_555
C54_3 C52_3 1_555 1_555
H43_3 C54_3 1_555 1_555
C55_3 C53_3 1_555 1_555
H44_3 C55_3 1_555 1_555
C56_3 C54_3 1_555 1_555
H45_3 C56_3 1_555 1_555
C57_3 C55_3 1_555 1_555
C58_3 N17_3 1_555 1_555
H46_3 C58_3 1_555 1_555
N5_3 C18_3 1_555 1_555
N25_2 C33_3 1_555 1_555
C5_3 C6_3 1_555 1_555
C14_3 C15_3 1_555 1_555
C23_3 C24_3 1_555 1_555
N16_3 C51_3 1_555 1_555
C38_3 C39_3 1_555 1_555
C47_3 C48_3 1_555 1_555
C49_3 C50_3 1_555 1_555
C56_3 C57_3 1_555 1_555
C9_3 N1_3 1_555 1_555
H7_3 C9_3 1_555 1_555
Zn6_2 N13_3 1_555 1_555
N13_3 C41_3 1_555 1_555
N19_3 Zn6_2 1_555 1_555
N24_2 C62_3 1_555 1_555
H32_3 C40_3 1_555 1_555
C41_3 C40_3 1_555 1_555
H33_3 C41_3 1_555 1_555
C61_3 N19_3 1_555 1_555
H49_3 C61_3 1_555 1_555
C62_3 C61_3 1_555 1_555
H50_3 C62_3 1_555 1_555
C63_3 N19_3 1_555 1_555
H51_3 C63_3 1_555 1_555
N24_2 C63_3 1_555 1_555
Zn5_2 N2_3 1_555 1_555
N2_3 C8_3 1_555 1_555
N8_3 Zn5_2 1_555 1_555
N23_2 C29_3 1_555 1_555
H5_3 C7_3 1_555 1_555
C8_3 C7_3 1_555 1_555
H6_3 C8_3 1_555 1_555
C28_3 N8_3 1_555 1_555
H22_3 C28_3 1_555 1_555
C29_3 C28_3 1_555 1_555
H23_3 C29_3 1_555 1_555
C30_3 N8_3 1_555 1_555
H24_3 C30_3 1_555 1_555
N23_2 C30_3 1_555 1_555
Zn5 N2_4 1_555 1_555
N2_4 C8_4 1_555 1_555
N8_4 Zn5 1_555 1_555
N23 C29_4 1_555 1_555
C7_4 N1_4 1_555 1_555
H5_4 C7_4 1_555 1_555
C8_4 C7_4 1_555 1_555
H6_4 C8_4 1_555 1_555
C9_4 N1_4 1_555 1_555
H7_4 C9_4 1_555 1_555
C28_4 N8_4 1_555 1_555
H22_4 C28_4 1_555 1_555
C29_4 C28_4 1_555 1_555
H23_4 C29_4 1_555 1_555
C30_4 N8_4 1_555 1_555
H24_4 C30_4 1_555 1_555
N2_4 C9_4 1_555 1_555
N23 C30_4 1_555 1_555
N3_4 C1_4 1_555 1_555
N6_4 C24_4 1_555 1_555
C1_4 C2_4 1_555 1_555
C2_4 H1_4 1_555 1_555
C3_4 C1_4 1_555 1_555
H2_4 C3_4 1_555 1_555
C4_4 C2_4 1_555 1_555
H3_4 C4_4 1_555 1_555
C5_4 C3_4 1_555 1_555
C6_4 C4_4 1_555 1_555
C10_4 N3_4 1_555 1_555
C11_4 C10_4 1_555 1_555
H8_4 C11_4 1_555 1_555
C12_4 C10_4 1_555 1_555
H9_4 C12_4 1_555 1_555
C13_4 C11_4 1_555 1_555
H10_4 C13_4 1_555 1_555
C14_4 C12_4 1_555 1_555
C15_4 C13_4 1_555 1_555
C19_4 N3_4 1_555 1_555
C20_4 C19_4 1_555 1_555
H15_4 C20_4 1_555 1_555
C21_4 C19_4 1_555 1_555
H16_4 C21_4 1_555 1_555
C22_4 C20_4 1_555 1_555
H17_4 C22_4 1_555 1_555
C23_4 C21_4 1_555 1_555
C24_4 C22_4 1_555 1_555
C25_4 N6_4 1_555 1_555
H19_4 C25_4 1_555 1_555
C27_4 N6_4 1_555 1_555
H21_4 C27_4 1_555 1_555
Zn6 N13_4 1_555 1_555
N12_4 C39_4 1_555 1_555
N13_4 C41_4 1_555 1_555
N14_4 C34_4 1_555 1_555
N17_4 C57_4 1_555 1_555
N19_4 Zn6 1_555 1_555
N24 C62_4 1_555 1_555
C34_4 C35_4 1_555 1_555
C35_4 H28_4 1_555 1_555
C36_4 C34_4 1_555 1_555
H29_4 C36_4 1_555 1_555
C37_4 C35_4 1_555 1_555
H30_4 C37_4 1_555 1_555
C38_4 C36_4 1_555 1_555
H31_4 C38_4 1_555 1_555
C39_4 C37_4 1_555 1_555
C40_4 N12_4 1_555 1_555
H32_4 C40_4 1_555 1_555
C41_4 C40_4 1_555 1_555
H33_4 C41_4 1_555 1_555
C42_4 N12_4 1_555 1_555
H34_4 C42_4 1_555 1_555
C43_4 N14_4 1_555 1_555
C44_4 C43_4 1_555 1_555
H35_4 C44_4 1_555 1_555
C45_4 C43_4 1_555 1_555
H36_4 C45_4 1_555 1_555
C46_4 C44_4 1_555 1_555
H37_4 C46_4 1_555 1_555
C47_4 C45_4 1_555 1_555
C48_4 C46_4 1_555 1_555
C52_4 N14_4 1_555 1_555
C53_4 C52_4 1_555 1_555
H42_4 C53_4 1_555 1_555
C54_4 C52_4 1_555 1_555
H43_4 C54_4 1_555 1_555
C55_4 C53_4 1_555 1_555
H44_4 C55_4 1_555 1_555
C56_4 C54_4 1_555 1_555
C57_4 C55_4 1_555 1_555
C58_4 N17_4 1_555 1_555
H46_4 C58_4 1_555 1_555
C60_4 N17_4 1_555 1_555
H48_4 C60_4 1_555 1_555
C61_4 N19_4 1_555 1_555
H49_4 C61_4 1_555 1_555
C62_4 C61_4 1_555 1_555
H50_4 C62_4 1_555 1_555
C63_4 N19_4 1_555 1_555
H51_4 C63_4 1_555 1_555
N21_2 C27_4 1_555 1_555
C5_4 C6_4 1_555 1_555
C14_4 C15_4 1_555 1_555
C23_4 C24_4 1_555 1_555
N13_4 C42_4 1_555 1_555
N22_2 C60_4 1_555 1_555
N24 C63_4 1_555 1_555
C38_4 C39_4 1_555 1_555
C47_4 C48_4 1_555 1_555
C56_4 C57_4 1_555 1_555
H14_4 C18_4 1_555 1_555
H41_4 C51_4 1_555 1_555
H20_4 C26_4 1_555 1_555
H47_4 C59_4 1_555 1_555
Zn8 N5_4 1_555 1_555
N5_4 C17_4 1_555 1_555
N10_4 Zn8 1_555 1_555
N25 C32_4 1_555 1_555
C16_4 N4_4 1_555 1_555
H12_4 C16_4 1_555 1_555
C17_4 C16_4 1_555 1_555
H13_4 C17_4 1_555 1_555
C31_4 N10_4 1_555 1_555
H25_4 C31_4 1_555 1_555
C32_4 C31_4 1_555 1_555
H26_4 C32_4 1_555 1_555
C33_4 N10_4 1_555 1_555
H27_4 C33_4 1_555 1_555
N16_4 Zn8 1_555 1_555
C49_4 N15_4 1_555 1_555
H39_4 C49_4 1_555 1_555
C50_4 N16_4 1_555 1_555
H40_4 C50_4 1_555 1_555
N25 C33_4 1_555 1_555
C49_4 C50_4 1_555 1_555
O3 N26 1_555 1_555
O1_2 N26_2 1_555 1_555
O2_2 N26_2 1_555 1_555
O3_2 N26_2 1_555 1_555
O3_3 N26_3 1_555 1_555
O1_4 N26_4 1_555 1_555
O2_4 N26_4 1_555 1_555
O3_4 N26_4 1_555 1_555

#END
