
###############################################################################
#
# This file contains modified crystal structure data generated from the
# MOF subset of the Cambridge Structural Database (CSD) v543 
# hosted by the Cambridge Crystallographic Data Centre (CCDC).
#
# This work is licensed under the Creative Commons
# Attribution-NonCommercial-ShareAlike 4.0 International License.
# To view a copy of this license, visit
# http://creativecommons.org/licenses/by-nc-sa/4.0/
# or send a letter to
# Creative Commons, PO Box 1866, Mountain View, CA 94042, USA.
#
# CIF created using the CSD Python API on 29 September 2022
# The structure has been converted into the P1 space group
# The structure has a 3D framework
# The original CSD entry SOMSIY is in the orthorhombic crystal system
# The framework has been calculated to contain at least 10.0% void space
# The void calculation uses a probe of radius 1.32A, grid spacing 0.4
# H atom positions have been added when not included in the experimental data
#
###############################################################################

data_SOMSIY
_chemical_formula_moiety         '(C24 H16 Ga4 N16 O3)n'
_symmetry_cell_setting           triclinic
_symmetry_space_group_name_H-M   'P 1'
_symmetry_Int_Tables_number      1
_space_group_name_Hall           'P 1'
loop_
_symmetry_equiv_pos_site_id
_symmetry_equiv_pos_as_xyz
1 x,y,z
_cell_length_a                   14.8281(16)
_cell_length_b                   6.4872(5)
_cell_length_c                   11.3503(12)
_cell_angle_alpha                90
_cell_angle_beta                 90
_cell_angle_gamma                90
_cell_volume                     1091.82
loop_
_atom_site_label
_atom_site_type_symbol
_atom_site_fract_x
_atom_site_fract_y
_atom_site_fract_z
_atom_site_U_iso_or_equiv
_atom_site_thermal_displace_type
Ga4 Ga 0.000 0.000 0.000 0.0090 Uiso
Ga4_2 Ga 0.000 0.000 1.000 0.0090 Uiso
Ga4_3 Ga 0.000 1.000 0.000 0.0090 Uiso
Ga5 Ga 0.000 0.500 0.000 0.0090 Uiso
Ga4_4 Ga -0.000 1.000 1.000 0.0090 Uiso
Ga5_2 Ga 0.000 0.500 1.000 0.0090 Uiso
Ga4_5 Ga 1.000 0.000 0.000 0.0090 Uiso
Ga3 Ga 0.500 0.000 0.500 0.0090 Uiso
Ga4_6 Ga 1.000 0.000 1.000 0.0090 Uiso
H1 H 0.681265 0.073596 0.685491 . .
H3 H 0.818735 0.073596 0.814509 . .
Ga4_7 Ga 1.000 1.000 0.000 0.0090 Uiso
Ga5_3 Ga 1.000 0.500 0.000 0.0090 Uiso
Ga1 Ga 0.500 0.500 0.500 0.0090 Uiso
C1 C 0.6650(5) 0.5864(2) 0.6657(9) 0.0090 Uiso
C2 C 0.71171(10) 0.750 0.7112(2) 0.0090 Uiso
N1 N 0.5988(4) 0.6412(10) 0.5960(7) 0.0090 Uiso
O1 O 0.500 0.250 0.5872(2) 0.0090 Uiso
C3 C 0.6650(5) 0.9136(2) 0.6657(9) 0.0090 Uiso
N2 N 0.5988(4) 0.8588(10) 0.5960(7) 0.0090 Uiso
C4 C 0.8350(5) 0.5864(2) 0.8343(9) 0.0090 Uiso
C5 C 0.78829(10) 0.750 0.7888(2) 0.0090 Uiso
N3 N 0.9012(4) 0.6412(10) 0.9040(7) 0.0090 Uiso
C6 C 0.8350(5) 0.9136(2) 0.8343(9) 0.0090 Uiso
N4 N 0.9012(4) 0.8588(10) 0.9040(7) 0.0090 Uiso
Ga3_2 Ga 0.500 1.000 0.500 0.0090 Uiso
Ga4_8 Ga 1.000 1.000 1.000 0.0090 Uiso
Ga5_4 Ga 1.000 0.500 1.000 0.0090 Uiso
N5 N 0.5988(4) 0.3588(10) 0.4040(7) 0.0090 Uiso
N6 N 0.4012(4) 0.3588(10) 0.4040(7) 0.0090 Uiso
N7 N 0.4012(4) 0.6412(10) 0.5960(7) 0.0090 Uiso
O2 O 0.500 0.750 0.4128(2) 0.0090 Uiso
H2 H 0.681265 0.426404 0.685491 . .
H4 H 0.818735 0.426404 0.814509 . .
N5_2 N 0.4012(4) 0.1412(10) 0.4040(7) 0.0090 Uiso
N6_2 N 0.5988(4) 0.1412(10) 0.4040(7) 0.0090 Uiso
H2_2 H 0.318735 0.073596 0.685491 . .
H4_2 H 0.181265 0.073596 0.814509 . .
C1_2 C 0.3350(5) 0.9136(2) 0.6657(9) 0.0090 Uiso
C2_2 C 0.28829(10) 0.750 0.7112(2) 0.0090 Uiso
N1_2 N 0.4012(4) 0.8588(10) 0.5960(7) 0.0090 Uiso
C3_2 C 0.3350(5) 0.5864(2) 0.6657(9) 0.0090 Uiso
C4_2 C 0.1650(5) 0.9136(2) 0.8343(9) 0.0090 Uiso
C5_2 C 0.21171(10) 0.750 0.7888(2) 0.0090 Uiso
N3_2 N 0.0988(4) 0.8588(10) 0.9040(7) 0.0090 Uiso
C6_2 C 0.1650(5) 0.5864(2) 0.8343(9) 0.0090 Uiso
N4_2 N 0.0988(4) 0.6412(10) 0.9040(7) 0.0090 Uiso
H1_2 H 0.318735 0.426404 0.685491 . .
H3_2 H 0.181265 0.426404 0.814509 . .
C1_3 C 0.3350(5) 0.0864(2) 0.3343(9) 0.0090 Uiso
C2_3 C 0.28829(10) 0.250 0.2888(2) 0.0090 Uiso
C3_3 C 0.3350(5) 0.4136(2) 0.3343(9) 0.0090 Uiso
C4_3 C 0.1650(5) 0.0864(2) 0.1657(9) 0.0090 Uiso
C5_3 C 0.21171(10) 0.250 0.2112(2) 0.0090 Uiso
N3_3 N 0.0988(4) 0.1412(10) 0.0960(7) 0.0090 Uiso
C6_3 C 0.1650(5) 0.4136(2) 0.1657(9) 0.0090 Uiso
N4_3 N 0.0988(4) 0.3588(10) 0.0960(7) 0.0090 Uiso
H1_3 H 0.318735 0.573596 0.314509 . .
H3_3 H 0.181265 0.573596 0.185491 . .
H2_3 H 0.318735 0.926404 0.314509 . .
H4_3 H 0.181265 0.926404 0.185491 . .
C1_4 C 0.6650(5) 0.4136(2) 0.3343(9) 0.0090 Uiso
C2_4 C 0.71171(10) 0.250 0.2888(2) 0.0090 Uiso
C3_4 C 0.6650(5) 0.0864(2) 0.3343(9) 0.0090 Uiso
C4_4 C 0.8350(5) 0.4136(2) 0.1657(9) 0.0090 Uiso
C5_4 C 0.78829(10) 0.250 0.2112(2) 0.0090 Uiso
N3_4 N 0.9012(4) 0.3588(10) 0.0960(7) 0.0090 Uiso
C6_4 C 0.8350(5) 0.0864(2) 0.1657(9) 0.0090 Uiso
N4_4 N 0.9012(4) 0.1412(10) 0.0960(7) 0.0090 Uiso
H2_4 H 0.681265 0.573596 0.314509 . .
H4_4 H 0.818735 0.573596 0.185491 . .
H1_4 H 0.681265 0.926404 0.314509 . .
H3_4 H 0.818735 0.926404 0.185491 . .
O2_2 O 0.000 0.250 0.9128(2) 0.0090 Uiso
O1_2 O 0.000 0.750 0.0872(2) 0.0090 Uiso
O2_3 O 1.000 0.250 0.9128(2) 0.0090 Uiso
O1_3 O 1.000 0.750 0.0872(2) 0.0090 Uiso
loop_
_geom_bond_atom_site_label_1
_geom_bond_atom_site_label_2
_geom_bond_site_symmetry_1
_geom_bond_site_symmetry_2
Ga1 N1 1_555 1_555
C1 C2 1_555 1_555
C2 C3 1_555 1_555
N1 C1 1_555 1_555
O1 Ga1 1_555 1_555
C3 N2 1_555 1_555
N2 N1 1_555 1_555
C4 C5 1_555 1_555
C5 C2 1_555 1_555
N3 C4 1_555 1_555
C6 C5 1_555 1_555
N4 N3 1_555 1_555
Ga3 O1 1_555 1_555
Ga3_2 N2 1_555 1_555
Ga4_8 N4 1_555 1_555
Ga5_4 N3 1_555 1_555
N5 Ga1 1_555 1_555
N6 Ga1 1_555 1_555
N7 Ga1 1_555 1_555
O2 Ga1 1_555 1_555
C6 N4 1_555 1_555
Ga3_2 O2 1_555 1_555
C1 H2 1_555 1_555
C4 H4 1_555 1_555
N5_2 Ga3 1_555 1_555
N6_2 Ga3 1_555 1_555
Ga3_2 N1_2 1_555 1_555
C1_2 C2_2 1_555 1_555
C2_2 C3_2 1_555 1_555
N1_2 C1_2 1_555 1_555
C3_2 N7 1_555 1_555
N7 N1_2 1_555 1_555
C4_2 C5_2 1_555 1_555
C5_2 C2_2 1_555 1_555
N3_2 C4_2 1_555 1_555
C6_2 C5_2 1_555 1_555
N4_2 N3_2 1_555 1_555
Ga5_2 N4_2 1_555 1_555
Ga4_4 N3_2 1_555 1_555
C6_2 N4_2 1_555 1_555
C3_2 H1_2 1_555 1_555
C6_2 H3_2 1_555 1_555
C1_3 C2_3 1_555 1_555
C2_3 C3_3 1_555 1_555
N5_2 C1_3 1_555 1_555
C3_3 N6 1_555 1_555
N6 N5_2 1_555 1_555
C4_3 C5_3 1_555 1_555
C5_3 C2_3 1_555 1_555
N3_3 C4_3 1_555 1_555
C6_3 C5_3 1_555 1_555
N4_3 N3_3 1_555 1_555
Ga5 N4_3 1_555 1_555
Ga4 N3_3 1_555 1_555
C6_3 N4_3 1_555 1_555
C3_3 H1_3 1_555 1_555
C6_3 H3_3 1_555 1_555
C1_4 C2_4 1_555 1_555
C2_4 C3_4 1_555 1_555
N5 C1_4 1_555 1_555
C3_4 N6_2 1_555 1_555
N6_2 N5 1_555 1_555
C4_4 C5_4 1_555 1_555
C5_4 C2_4 1_555 1_555
N3_4 C4_4 1_555 1_555
C6_4 C5_4 1_555 1_555
N4_4 N3_4 1_555 1_555
Ga4_5 N4_4 1_555 1_555
Ga5_3 N3_4 1_555 1_555
C6_4 N4_4 1_555 1_555
C1_4 H2_4 1_555 1_555
C4_4 H4_4 1_555 1_555
O2_2 Ga4_2 1_555 1_555
Ga5_2 O2_2 1_555 1_555
O1_2 Ga4_3 1_555 1_555
Ga5 O1_2 1_555 1_555
O2_3 Ga4_6 1_555 1_555
Ga5_4 O2_3 1_555 1_555
O1_3 Ga4_7 1_555 1_555
Ga5_3 O1_3 1_555 1_555

#END
