
###############################################################################
#
# This file contains modified crystal structure data generated from the
# MOF subset of the Cambridge Structural Database (CSD) v543 
# hosted by the Cambridge Crystallographic Data Centre (CCDC).
#
# This work is licensed under the Creative Commons
# Attribution-NonCommercial-ShareAlike 4.0 International License.
# To view a copy of this license, visit
# http://creativecommons.org/licenses/by-nc-sa/4.0/
# or send a letter to
# Creative Commons, PO Box 1866, Mountain View, CA 94042, USA.
#
# CIF created using the CSD Python API on 29 September 2022
# The structure has been converted into the P1 space group
# The structure has a 3D framework
# The original CSD entry SOMVOI is in the triclinic crystal system
# The framework has been calculated to contain at least 10.0% void space
# The void calculation uses a probe of radius 1.32A, grid spacing 0.4
# The framework is charged, counterions have been retained in the structure
#
###############################################################################

data_SOMVOI
_chemical_formula_moiety         '(C216 H120 In6 O44 4-)n'
_symmetry_cell_setting           triclinic
_symmetry_space_group_name_H-M   'P 1'
_symmetry_Int_Tables_number      1
_space_group_name_Hall           'P 1'
loop_
_symmetry_equiv_pos_site_id
_symmetry_equiv_pos_as_xyz
1 x,y,z
_cell_length_a                   23.5316(11)
_cell_length_b                   25.9161(12)
_cell_length_c                   27.8566(13)
_cell_angle_alpha                62.3204(18)
_cell_angle_beta                 65.0687(19)
_cell_angle_gamma                89.840(2)
_cell_volume                     13242.3
loop_
_atom_site_label
_atom_site_type_symbol
_atom_site_fract_x
_atom_site_fract_y
_atom_site_fract_z
In3 In 0.09835(4) 0.10519(4) 0.04836(3)
O5 O 0.0043(4) 0.0433(3) 0.0970(3)
O6 O 0.0701(4) 0.0012(3) 0.1275(3)
O28 O 0.1913(4) 0.0875(4) 0.0056(3)
O29 O 0.0541(4) 0.1333(4) 0.1236(3)
O30 O 0.1489(4) 0.1209(3) 0.0932(3)
O33 O 0.0477(4) 0.1661(3) 0.0034(3)
O27 O 0.1274(4) 0.0768(3) 0.9705(4)
O34 O 0.1468(4) 0.2064(3) 0.9691(3)
O23 O 0.2658(3) 0.7692(3) 0.6347(3)
O24 O 0.2859(3) 0.7900(3) 0.5427(3)
C15 C 0.0153(6) 0.9994(5) 0.1323(5)
H9 H 0.0136 0.8931 0.2182
C57 C 0.0078(6) 0.2962(5) 0.4146(5)
H31 H 0.0039 0.3346 0.3889
C58 C 0.0460(6) 0.2675(5) 0.3886(5)
H32 H 0.0685 0.2858 0.3450
C59 C 0.0521(6) 0.2131(5) 0.4243(5)
C60 C 0.0241(6) 0.1899(5) 0.4854(5)
H33 H 0.0318 0.1535 0.5104
C62 C 0.1022(7) 0.1339(5) 0.1278(5)
C63 C 0.1094(6) 0.1413(5) 0.1735(5)
C64 C 0.0615(6) 0.1535(6) 0.2134(5)
H35 H 0.0242 0.1606 0.2084
C65 C 0.0649(6) 0.1558(5) 0.2594(5)
H36 H 0.0287 0.1612 0.2879
C66 C 0.1206(6) 0.1505(5) 0.2662(5)
C67 C 0.1712(6) 0.1451(6) 0.2221(5)
H37 H 0.2116 0.1453 0.2220
C68 C 0.1649(6) 0.1393(5) 0.1779(5)
H38 H 0.2006 0.1337 0.1493
C71 C 0.2848(6) 0.0187(5) 0.4105(5)
H39 H 0.3227 0.0131 0.3841
C72 C 0.2528(6) 0.0604(5) 0.3853(5)
H40 H 0.2691 0.0821 0.3419
C73 C 0.1996(6) 0.0708(5) 0.4207(5)
C74 C 0.1776(6) 0.0398(5) 0.4828(5)
H41 H 0.1406 0.0474 0.5080
C76 C 0.0924(6) 0.1781(5) 0.3948(5)
C77 C 0.0904(6) 0.1807(5) 0.3457(5)
H43 H 0.0648 0.2040 0.3295
C78 C 0.1251(6) 0.1497(5) 0.3194(5)
C79 C 0.1583(6) 0.1141(5) 0.3458(5)
H44 H 0.1803 0.0911 0.3287
C80 C 0.1620(6) 0.1092(5) 0.3949(5)
C81 C 0.1269(6) 0.1420(5) 0.4197(5)
H45 H 0.1269 0.1393 0.4549
C85 C 0.0086(5) 0.4752(4) 0.6175(4)
H47 H 0.0432 0.5100 0.5919
C89 C 0.0967(7) 0.2133(5) 0.9643(5)
C90 C 0.0877(6) 0.2665(5) 0.9212(5)
C91 C 0.1391(6) 0.3164(5) 0.8795(5)
H50 H 0.1780 0.3167 0.8823
C92 C 0.1332(5) 0.3667(4) 0.8330(5)
H51 H 0.1685 0.4009 0.8039
C93 C 0.0756(5) 0.3666(4) 0.8294(5)
C94 C 0.0241(5) 0.3165(4) 0.8740(5)
C95 C 0.0281(6) 0.2684(4) 0.9203(5)
C96 C 0.2559(5) 0.7560(4) 0.6007(5)
C97 C 0.2109(5) 0.6994(4) 0.6262(4)
C98 C 0.1804(5) 0.6595(4) 0.6902(4)
H54 H 0.1857 0.6707 0.7164
C99 C 0.1425(5) 0.6035(4) 0.7151(4)
H55 H 0.1240 0.5759 0.7581
C100 C 0.1311(4) 0.5873(4) 0.6792(4)
C101 C 0.1570(5) 0.6275(4) 0.6171(4)
H56 H 0.1475 0.6176 0.5921
C102 C 0.1976(5) 0.6834(4) 0.5908(4)
H57 H 0.2162 0.7106 0.5476
C103 C 0.0282(4) 0.4557(4) 0.7053(4)
C104 C 0.0345(4) 0.4079(4) 0.7534(4)
H58 H 0.0144 0.3679 0.7688
C105 C 0.0687(5) 0.4180(4) 0.7782(4)
C106 C 0.0993(5) 0.4770(4) 0.7546(4)
H59 H 0.1228 0.4843 0.7723
C107 C 0.0957(4) 0.5256(4) 0.7051(4)
C108 C 0.0603(4) 0.5141(4) 0.6811(4)
H60 H 0.0577 0.5464 0.6475
In6 In 0.34407(3) 0.85276(3) 0.55133(3)
O17 O 0.3414(3) 0.9281(3) 0.4680(3)
O18 O 0.2670(3) 0.9058(3) 0.5601(3)
C69 C 0.2931(5) 0.9372(4) 0.5019(5)
C70 C 0.2614(5) 0.9855(4) 0.4737(5)
C75 C 0.2072(6) 0.9966(5) 0.5119(5)
H42 H 0.1910 0.9762 0.5553
In1 In 0.84375(3) 0.35200(3) 0.55236(3)
O1 O 0.8398(3) 0.4324(3) 0.4756(3)
O2 O 0.7770(3) 0.4165(3) 0.5676(3)
O3 O 0.4135(3) 0.7842(3) 0.5722(3)
O4 O 0.4306(3) 0.8499(3) 0.4790(3)
O7 O 0.7549(3) 0.2772(3) 0.6351(3)
O8 O 0.7775(3) 0.2970(3) 0.5420(3)
O13 O 0.8993(3) 0.2767(3) 0.5620(3)
O14 O 0.9242(3) 0.3526(3) 0.4704(3)
O19 O 0.9205(3) 0.4166(3) 0.5421(3)
O20 O 0.8524(3) 0.3434(2) 0.6345(3)
C1 C 0.8002(5) 0.4498(4) 0.5104(5)
C2 C 0.7889(5) 0.5096(4) 0.4831(5)
C3 C 0.8209(5) 0.5482(4) 0.4195(5)
H1 H 0.8495 0.5353 0.3934
C4 C 0.8109(5) 0.6046(5) 0.3950(5)
H2 H 0.8344 0.6311 0.3517
C5 C 0.7680(6) 0.6247(5) 0.4306(5)
C6 C 0.7359(6) 0.5860(5) 0.4916(5)
H3 H 0.7061 0.5992 0.5167
C7 C 0.7438(6) 0.5244(5) 0.5224(5)
H4 H 0.7198 0.4974 0.5656
C8 C 0.4466(5) 0.8101(4) 0.5147(5)
C9 C 0.5078(5) 0.7938(4) 0.4864(5)
C10 C 0.5257(5) 0.7479(5) 0.5247(5)
H5 H 0.4989 0.7253 0.5681
C11 C 0.5857(6) 0.7366(5) 0.4961(5)
H6 H 0.6001 0.7065 0.5211
C12 C 0.6248(6) 0.7677(5) 0.4324(5)
C13 C 0.6042(5) 0.8118(5) 0.3962(5)
H7 H 0.6299 0.8329 0.3527
C14 C 0.5457(5) 0.8260(5) 0.4229(5)
H8 H 0.5322 0.8571 0.3978
C16 C 0.9622(5) 0.9456(5) 0.1796(5)
C17 C 0.9715(6) 0.8942(5) 0.2223(5)
C18 C 0.9206(6) 0.8452(5) 0.2701(5)
H10 H 0.9280 0.8111 0.2985
C19 C 0.8583(5) 0.8454(4) 0.2767(5)
C20 C 0.8501(5) 0.8959(4) 0.2342(5)
H11 H 0.8085 0.8969 0.2370
C21 C 0.9011(5) 0.9452(5) 0.1876(5)
H12 H 0.8932 0.9799 0.1604
C22 C 0.7605(6) 0.6869(5) 0.4042(5)
C23 C 0.7014(6) 0.6979(5) 0.4291(5)
H13 H 0.6663 0.6650 0.4633
C24 C 0.6903(6) 0.7567(5) 0.4060(5)
C25 C 0.7431(5) 0.8044(5) 0.3541(5)
H14 H 0.7372 0.8440 0.3369
C26 C 0.8033(5) 0.7941(4) 0.3280(5)
C27 C 0.8118(5) 0.7347(4) 0.3545(5)
H15 H 0.8535 0.7278 0.3379
C28 C 0.7426(5) 0.2690(4) 0.5986(5)
C29 C 0.6836(5) 0.2196(4) 0.6275(4)
C30 C 0.6685(5) 0.2061(4) 0.5917(4)
H16 H 0.6969 0.2251 0.5487
C31 C 0.6117(5) 0.1648(4) 0.6181(4)
H17 H 0.6009 0.1569 0.5925
C32 C 0.5708(4) 0.1351(4) 0.6801(4)
C33 C 0.5873(5) 0.1485(4) 0.7163(4)
H18 H 0.5584 0.1296 0.7591
C34 C 0.6453(5) 0.1890(4) 0.6914(4)
H19 H 0.6578 0.1953 0.7169
C38 C 0.4653(4) 0.0138(4) 0.6163(4)
H21 H 0.4983 0.0499 0.5908
C42 C 0.1815(6) 0.0787(4) 0.9679(5)
C43 C 0.2324(5) 0.0695(5) 0.9216(5)
C44 C 0.2237(5) 0.0615(5) 0.8795(5)
H24 H 0.1827 0.0601 0.8809
C45 C 0.2751(5) 0.0554(4) 0.8346(5)
H25 H 0.2680 0.0478 0.8071
C46 C 0.3371(5) 0.0602(4) 0.8296(4)
C47 C 0.3454(5) 0.0694(5) 0.8729(5)
H26 H 0.3866 0.0731 0.8710
C48 C 0.2910(5) 0.0730(5) 0.9191(5)
H27 H 0.2960 0.0781 0.9489
C49 C 0.5084(5) 0.0945(4) 0.7071(4)
C50 C 0.5017(5) 0.0595(4) 0.6829(4)
H28 H 0.5381 0.0593 0.6504
C51 C 0.4397(5) 0.0242(4) 0.7078(4)
C52 C 0.3880(5) 0.0241(4) 0.7549(4)
C53 C 0.3949(5) 0.0598(4) 0.7793(4)
C54 C 0.4547(5) 0.0929(4) 0.7556(4)
H30 H 0.4599 0.1157 0.7728
C55 C 0.9305(5) 0.3043(5) 0.5030(5)
C56 C 0.9751(6) 0.2715(5) 0.4761(5)
C61 C 0.9844(6) 0.2181(5) 0.5122(5)
H34 H 0.9635 0.2006 0.5557
C82 C 0.8990(5) 0.3883(4) 0.6002(5)
C83 C 0.9283(4) 0.4100(4) 0.6279(4)
C84 C 0.9784(4) 0.4605(4) 0.5917(4)
H46 H 0.9919 0.4850 0.5489
C86 C 0.9908(4) 0.4415(4) 0.6796(4)
C87 C 0.9382(5) 0.3920(4) 0.7155(4)
H48 H 0.9234 0.3686 0.7586
C88 C 0.9073(4) 0.3762(4) 0.6905(4)
H49 H 0.8718 0.3423 0.7160
H52 H 0.9849 0.3160 0.8719
H53 H 0.9912 0.2362 0.9519
O25 O 0.4127(3) 0.9240(3) 0.5425(3)
O26 O 0.3407(3) 0.8539(3) 0.6342(3)
C35 C 0.3865(4) 0.9010(4) 0.5993(5)
C36 C 0.4029(4) 0.9299(4) 0.6277(4)
C37 C 0.4516(4) 0.9838(4) 0.5910(4)
H20 H 0.4755 0.9996 0.5478
C39 C 0.4302(5) 0.9907(4) 0.6795(4)
C40 C 0.3844(5) 0.9369(4) 0.7155(4)
H22 H 0.3620 0.9196 0.7589
C41 C 0.3707(5) 0.9080(4) 0.6894(4)
H23 H 0.3379 0.8718 0.7151
H29 H 0.3468 0.9998 0.7718
O9 O 0.5873(3) 0.0760(3) 0.4575(3)
O10 O 0.6593(3) 0.1461(3) 0.3658(3)
C35_2 C 0.6135(4) 0.0990(4) 0.4007(5)
C36_2 C 0.5971(4) 0.0701(4) 0.3723(4)
C37_2 C 0.5484(4) 0.0162(4) 0.4090(4)
H20_2 H 0.5245 0.0004 0.4522
C39_2 C 0.5698(5) 0.0093(4) 0.3205(4)
C40_2 C 0.6156(5) 0.0631(4) 0.2845(4)
H22_2 H 0.6380 0.0804 0.2411
C41_2 C 0.6293(5) 0.0920(4) 0.3106(4)
H23_2 H 0.6621 0.1282 0.2849
H29_2 H 0.6532 0.0002 0.2282
In4 In 0.65593(3) 0.14724(3) 0.44867(3)
In1_2 In 0.15625(3) 0.64800(3) 0.44764(3)
O1_2 O 0.1602(3) 0.5676(3) 0.5244(3)
O2_2 O 0.2230(3) 0.5835(3) 0.4324(3)
O3_2 O 0.5865(3) 0.2158(3) 0.4278(3)
O4_2 O 0.5694(3) 0.1501(3) 0.5210(3)
O7_2 O 0.2451(3) 0.7228(3) 0.3649(3)
O8_2 O 0.2225(3) 0.7030(3) 0.4580(3)
O11 O 0.8726(4) 0.9232(3) 0.0295(4)
O13_2 O 0.1007(3) 0.7233(3) 0.4380(3)
O14_2 O 0.0758(3) 0.6474(3) 0.5296(3)
O19_2 O 0.0795(3) 0.5834(3) 0.4579(3)
O20_2 O 0.1476(3) 0.6566(2) 0.3655(3)
C1_2 C 0.1998(5) 0.5502(4) 0.4896(5)
C2_2 C 0.2111(5) 0.4904(4) 0.5169(5)
C3_2 C 0.1791(5) 0.4518(4) 0.5805(5)
H1_2 H 0.1505 0.4647 0.6066
C4_2 C 0.1891(5) 0.3954(5) 0.6050(5)
H2_2 H 0.1656 0.3689 0.6483
C5_2 C 0.2320(6) 0.3753(5) 0.5694(5)
C6_2 C 0.2641(6) 0.4140(5) 0.5084(5)
H3_2 H 0.2939 0.4008 0.4833
C7_2 C 0.2562(6) 0.4756(5) 0.4776(5)
H4_2 H 0.2802 0.5026 0.4344
C8_2 C 0.5534(5) 0.1899(4) 0.4853(5)
C9_2 C 0.4922(5) 0.2062(4) 0.5136(5)
C10_2 C 0.4743(5) 0.2521(5) 0.4753(5)
H5_2 H 0.5011 0.2747 0.4319
C11_2 C 0.4143(6) 0.2634(5) 0.5039(5)
H6_2 H 0.3999 0.2935 0.4789
C12_2 C 0.3752(6) 0.2323(5) 0.5676(5)
C13_2 C 0.3958(5) 0.1882(5) 0.6038(5)
H7_2 H 0.3701 0.1671 0.6473
C14_2 C 0.4543(5) 0.1740(5) 0.5771(5)
H8_2 H 0.4678 0.1429 0.6022
C16_2 C 0.0378(5) 0.0544(5) 0.8204(5)
C17_2 C 0.0285(6) 0.1058(5) 0.7777(5)
C18_2 C 0.0794(6) 0.1548(5) 0.7299(5)
H10_2 H 0.0720 0.1889 0.7015
C19_2 C 0.1417(5) 0.1546(4) 0.7233(5)
C20_2 C 0.1499(5) 0.1041(4) 0.7658(5)
H11_2 H 0.1915 0.1031 0.7630
C21_2 C 0.0989(5) 0.0548(5) 0.8124(5)
H12_2 H 0.1068 0.0201 0.8396
C22_2 C 0.2395(6) 0.3131(5) 0.5958(5)
C23_2 C 0.2986(6) 0.3021(5) 0.5709(5)
H13_2 H 0.3337 0.3350 0.5367
C24_2 C 0.3097(6) 0.2433(5) 0.5940(5)
C25_2 C 0.2569(5) 0.1956(5) 0.6459(5)
H14_2 H 0.2628 0.1560 0.6631
C26_2 C 0.1967(5) 0.2059(4) 0.6720(5)
C27_2 C 0.1882(5) 0.2653(4) 0.6455(5)
H15_2 H 0.1465 0.2722 0.6621
C28_2 C 0.2574(5) 0.7310(4) 0.4014(5)
C29_2 C 0.3164(5) 0.7804(4) 0.3725(4)
C30_2 C 0.3315(5) 0.7939(4) 0.4083(4)
H16_2 H 0.3031 0.7749 0.4513
C31_2 C 0.3883(5) 0.8352(4) 0.3819(4)
H17_2 H 0.3991 0.8431 0.4075
C32_2 C 0.4292(4) 0.8649(4) 0.3199(4)
C33_2 C 0.4127(5) 0.8515(4) 0.2837(4)
H18_2 H 0.4416 0.8704 0.2409
C34_2 C 0.3547(5) 0.8110(4) 0.3086(4)
H19_2 H 0.3422 0.8047 0.2831
C38_2 C 0.5347(4) 0.9862(4) 0.3837(4)
H21_2 H 0.5017 0.9501 0.4092
C42_2 C 0.8185(6) 0.9213(4) 0.0321(5)
C43_2 C 0.7676(5) 0.9305(5) 0.0784(5)
C44_2 C 0.7763(5) 0.9385(5) 0.1205(5)
H24_2 H 0.8173 0.9399 0.1191
C45_2 C 0.7249(5) 0.9446(4) 0.1654(5)
H25_2 H 0.7320 0.9522 0.1929
C46_2 C 0.6629(5) 0.9398(4) 0.1704(4)
C47_2 C 0.6546(5) 0.9306(5) 0.1271(5)
H26_2 H 0.6134 0.9269 0.1290
C48_2 C 0.7090(5) 0.9270(5) 0.0809(5)
H27_2 H 0.7040 0.9219 0.0511
C49_2 C 0.4916(5) 0.9055(4) 0.2929(4)
C50_2 C 0.4983(5) 0.9405(4) 0.3171(4)
H28_2 H 0.4619 0.9407 0.3496
C51_2 C 0.5603(5) 0.9758(4) 0.2922(4)
C52_2 C 0.6120(5) 0.9759(4) 0.2451(4)
C53_2 C 0.6051(5) 0.9402(4) 0.2207(4)
C54_2 C 0.5453(5) 0.9071(4) 0.2444(4)
H30_2 H 0.5401 0.8843 0.2272
C55_2 C 0.0695(5) 0.6957(5) 0.4970(5)
C56_2 C 0.0249(6) 0.7285(5) 0.5239(5)
C61_2 C 0.0156(6) 0.7819(5) 0.4878(5)
H34_2 H 0.0365 0.7994 0.4443
C82_2 C 0.1010(5) 0.6117(4) 0.3998(5)
C83_2 C 0.0717(4) 0.5900(4) 0.3721(4)
C84_2 C 0.0216(4) 0.5395(4) 0.4083(4)
H46_2 H 0.0081 0.5150 0.4511
C86_2 C 0.0092(4) 0.5585(4) 0.3204(4)
C87_2 C 0.0618(5) 0.6080(4) 0.2845(4)
H48_2 H 0.0766 0.6314 0.2414
C88_2 C 0.0927(4) 0.6238(4) 0.3095(4)
H49_2 H 0.1282 0.6577 0.2840
H52_2 H 0.0151 0.6840 0.1281
H53_2 H 0.0088 0.7638 0.0481
O31 O 0.6586(3) 0.0719(3) 0.5320(3)
O32 O 0.7330(3) 0.0942(3) 0.4399(3)
O35 O 0.7342(3) 0.2308(3) 0.3653(3)
O36 O 0.7141(3) 0.2100(3) 0.4573(3)
O12 O 0.8087(4) 0.9125(4) 0.9944(3)
In7 In 0.90165(4) 0.89481(4) 0.95164(3)
C69_2 C 0.7069(5) 0.0628(4) 0.4981(5)
C70_2 C 0.7386(5) 0.0145(4) 0.5263(5)
C75_2 C 0.7928(6) 0.0034(5) 0.4881(5)
H42_2 H 0.8090 0.0238 0.4447
O15 O 0.9459(4) 0.8667(4) 0.8764(3)
O16 O 0.8511(4) 0.8791(3) 0.9068(3)
O22 O 0.8532(4) 0.7936(3) 0.0309(3)
C15_2 C 0.9847(6) 0.0006(5) 0.8677(5)
H9_2 H 0.9864 0.1069 0.7818
C57_2 C 0.9922(6) 0.7038(5) 0.5854(5)
H31_2 H 0.9961 0.6654 0.6111
C58_2 C 0.9540(6) 0.7325(5) 0.6114(5)
H32_2 H 0.9315 0.7142 0.6550
C59_2 C 0.9479(6) 0.7869(5) 0.5757(5)
C60_2 C 0.9759(6) 0.8101(5) 0.5146(5)
H33_2 H 0.9682 0.8465 0.4896
C62_2 C 0.8978(7) 0.8661(5) 0.8722(5)
C63_2 C 0.8906(6) 0.8587(5) 0.8265(5)
C64_2 C 0.9385(6) 0.8465(6) 0.7866(5)
H35_2 H 0.9758 0.8394 0.7916
C65_2 C 0.9351(6) 0.8442(5) 0.7406(5)
H36_2 H 0.9713 0.8388 0.7121
C66_2 C 0.8794(6) 0.8495(5) 0.7338(5)
C67_2 C 0.8288(6) 0.8549(6) 0.7779(5)
H37_2 H 0.7884 0.8547 0.7780
C68_2 C 0.8351(6) 0.8607(5) 0.8221(5)
H38_2 H 0.7994 0.8663 0.8507
C71_2 C 0.7152(6) 0.9813(5) 0.5895(5)
H39_2 H 0.6773 0.9869 0.6159
C72_2 C 0.7472(6) 0.9396(5) 0.6147(5)
H40_2 H 0.7309 0.9179 0.6581
C73_2 C 0.8004(6) 0.9292(5) 0.5793(5)
C74_2 C 0.8224(6) 0.9602(5) 0.5172(5)
H41_2 H 0.8594 0.9526 0.4920
C76_2 C 0.9076(6) 0.8219(5) 0.6052(5)
C77_2 C 0.9096(6) 0.8193(5) 0.6543(5)
H43_2 H 0.9352 0.7960 0.6705
C78_2 C 0.8749(6) 0.8503(5) 0.6806(5)
C79_2 C 0.8417(6) 0.8859(5) 0.6542(5)
H44_2 H 0.8197 0.9089 0.6713
C80_2 C 0.8380(6) 0.8908(5) 0.6051(5)
C81_2 C 0.8731(6) 0.8580(5) 0.5803(5)
H45_2 H 0.8731 0.8607 0.5451
C85_2 C 0.9914(5) 0.5248(4) 0.3825(4)
H47_2 H 0.9568 0.4900 0.4081
C89_2 C 0.9033(7) 0.7867(5) 0.0357(5)
C90_2 C 0.9123(6) 0.7335(5) 0.0788(5)
C91_2 C 0.8609(6) 0.6836(5) 0.1205(5)
H50_2 H 0.8220 0.6833 0.1177
C92_2 C 0.8668(5) 0.6333(4) 0.1670(5)
H51_2 H 0.8315 0.5991 0.1961
C93_2 C 0.9244(5) 0.6334(4) 0.1706(5)
C94_2 C 0.9759(5) 0.6835(4) 0.1260(5)
C95_2 C 0.9719(6) 0.7316(4) 0.0797(5)
C96_2 C 0.7441(5) 0.2440(4) 0.3993(5)
C97_2 C 0.7891(5) 0.3006(4) 0.3738(4)
C98_2 C 0.8196(5) 0.3405(4) 0.3098(4)
H54_2 H 0.8143 0.3293 0.2836
C99_2 C 0.8575(5) 0.3965(4) 0.2849(4)
H55_2 H 0.8760 0.4241 0.2419
C100_2 C 0.8689(4) 0.4127(4) 0.3208(4)
C101_2 C 0.8430(5) 0.3725(4) 0.3829(4)
H56_2 H 0.8525 0.3824 0.4079
C102_2 C 0.8024(5) 0.3166(4) 0.4092(4)
H57_2 H 0.7838 0.2894 0.4524
C103_2 C 0.9718(4) 0.5443(4) 0.2947(4)
C104_2 C 0.9655(4) 0.5921(4) 0.2466(4)
H58_2 H 0.9856 0.6321 0.2312
C105_2 C 0.9313(5) 0.5820(4) 0.2218(4)
C106_2 C 0.9007(5) 0.5230(4) 0.2454(4)
H59_2 H 0.8772 0.5157 0.2277
C107_2 C 0.9043(4) 0.4744(4) 0.2949(4)
C108_2 C 0.9397(4) 0.4859(4) 0.3189(4)
H60_2 H 0.9423 0.4536 0.3525
O21 O 0.9523(4) 0.8339(3) 0.9966(3)
O5_2 O 0.9957(4) 0.9567(3) 0.9030(3)
O6_2 O 0.9299(4) 0.9988(3) 0.8725(3)
loop_
_geom_bond_atom_site_label_1
_geom_bond_atom_site_label_2
_geom_bond_site_symmetry_1
_geom_bond_site_symmetry_2
In3 O5 1_555 1_555
O6 In3 1_555 1_555
O28 In3 1_555 1_555
O29 In3 1_555 1_555
O30 In3 1_555 1_555
O33 In3 1_555 1_555
O29 C62 1_555 1_555
O30 C62 1_555 1_555
O34 C89 1_555 1_555
O23 C96 1_555 1_555
O24 C96 1_555 1_555
H31 C57 1_555 1_555
C58 C57 1_555 1_555
H32 C58 1_555 1_555
C59 C58 1_555 1_555
C60 C59 1_555 1_555
H33 C60 1_555 1_555
C62 C63 1_555 1_555
C63 C64 1_555 1_555
C64 H35 1_555 1_555
C65 C64 1_555 1_555
H36 C65 1_555 1_555
C66 C65 1_555 1_555
C67 C66 1_555 1_555
H37 C67 1_555 1_555
C68 C63 1_555 1_555
H38 C68 1_555 1_555
C71 H39 1_555 1_555
C72 C71 1_555 1_555
H40 C72 1_555 1_555
C73 C72 1_555 1_555
C74 C73 1_555 1_555
H41 C74 1_555 1_555
C76 C59 1_555 1_555
C77 C76 1_555 1_555
H43 C77 1_555 1_555
C78 C66 1_555 1_555
C79 C78 1_555 1_555
H44 C79 1_555 1_555
C80 C73 1_555 1_555
C81 C76 1_555 1_555
H45 C81 1_555 1_555
H47 C85 1_555 1_555
C89 C90 1_555 1_555
C90 C91 1_555 1_555
C91 H50 1_555 1_555
C92 C91 1_555 1_555
H51 C92 1_555 1_555
C93 C92 1_555 1_555
C94 C93 1_555 1_555
C95 C90 1_555 1_555
C96 C97 1_555 1_555
C97 C98 1_555 1_555
C98 H54 1_555 1_555
C99 C98 1_555 1_555
H55 C99 1_555 1_555
C100 C99 1_555 1_555
C101 C100 1_555 1_555
H56 C101 1_555 1_555
C102 C97 1_555 1_555
H57 C102 1_555 1_555
C104 C103 1_555 1_555
H58 C104 1_555 1_555
C105 C93 1_555 1_555
C106 C105 1_555 1_555
H59 C106 1_555 1_555
C107 C100 1_555 1_555
C108 C103 1_555 1_555
H60 C108 1_555 1_555
In6 O23 1_555 1_555
O24 In6 1_555 1_555
C67 C68 1_555 1_555
C77 C78 1_555 1_555
C79 C80 1_555 1_555
C80 C81 1_555 1_555
C94 C95 1_555 1_555
C101 C102 1_555 1_555
C104 C105 1_555 1_555
C106 C107 1_555 1_555
C107 C108 1_555 1_555
O17 C69 1_555 1_555
O18 C69 1_555 1_555
C69 C70 1_555 1_555
C75 C70 1_555 1_555
H42 C75 1_555 1_555
In6 O17 1_555 1_555
O18 In6 1_555 1_555
In1 O1 1_555 1_555
In6 O3 1_555 1_555
O1 C1 1_555 1_555
O2 In1 1_555 1_555
O3 C8 1_555 1_555
O4 In6 1_555 1_555
O7 In1 1_555 1_555
O8 In1 1_555 1_555
O27 C42 1_555 1_555
O13 In1 1_555 1_555
O14 In1 1_555 1_555
O19 In1 1_555 1_555
O20 In1 1_555 1_555
C1 O2 1_555 1_555
C2 C1 1_555 1_555
C3 C2 1_555 1_555
H1 C3 1_555 1_555
C4 C3 1_555 1_555
H2 C4 1_555 1_555
C5 C4 1_555 1_555
C6 C5 1_555 1_555
H3 C6 1_555 1_555
C7 C2 1_555 1_555
H4 C7 1_555 1_555
C8 O4 1_555 1_555
C9 C8 1_555 1_555
C10 C9 1_555 1_555
H5 C10 1_555 1_555
C11 C10 1_555 1_555
H6 C11 1_555 1_555
C12 C11 1_555 1_555
C13 C12 1_555 1_555
H7 C13 1_555 1_555
C14 C9 1_555 1_555
H8 C14 1_555 1_555
C17 C16 1_555 1_555
C18 C17 1_555 1_555
H10 C18 1_555 1_555
C19 C18 1_555 1_555
C20 C19 1_555 1_555
H11 C20 1_555 1_555
C21 C16 1_555 1_555
H12 C21 1_555 1_555
C22 C5 1_555 1_555
C23 C22 1_555 1_555
H13 C23 1_555 1_555
C24 C12 1_555 1_555
C25 C24 1_555 1_555
H14 C25 1_555 1_555
C26 C19 1_555 1_555
C27 C22 1_555 1_555
H15 C27 1_555 1_555
C28 O7 1_555 1_555
C29 C28 1_555 1_555
C30 C29 1_555 1_555
H16 C30 1_555 1_555
C31 C30 1_555 1_555
H17 C31 1_555 1_555
C32 C31 1_555 1_555
C33 C32 1_555 1_555
H18 C33 1_555 1_555
C34 C29 1_555 1_555
H19 C34 1_555 1_555
H21 C38 1_555 1_555
C42 C43 1_555 1_555
C43 C44 1_555 1_555
C44 H24 1_555 1_555
C45 C44 1_555 1_555
H25 C45 1_555 1_555
C46 C45 1_555 1_555
C47 C46 1_555 1_555
H26 C47 1_555 1_555
C48 C43 1_555 1_555
H27 C48 1_555 1_555
C49 C32 1_555 1_555
C50 C49 1_555 1_555
H28 C50 1_555 1_555
C52 C51 1_555 1_555
C53 C46 1_555 1_555
C54 C49 1_555 1_555
H30 C54 1_555 1_555
C55 O13 1_555 1_555
C56 C55 1_555 1_555
C61 C56 1_555 1_555
H34 C61 1_555 1_555
C82 O19 1_555 1_555
C83 C82 1_555 1_555
C84 C83 1_555 1_555
H46 C84 1_555 1_555
C87 C86 1_555 1_555
H48 C87 1_555 1_555
C88 C83 1_555 1_555
H49 C88 1_555 1_555
O25 In6 1_555 1_555
O26 In6 1_555 1_555
O8 C28 1_555 1_555
O14 C55 1_555 1_555
O20 C82 1_555 1_555
C6 C7 1_555 1_555
C13 C14 1_555 1_555
C20 C21 1_555 1_555
C23 C24 1_555 1_555
C25 C26 1_555 1_555
C26 C27 1_555 1_555
C33 C34 1_555 1_555
C47 C48 1_555 1_555
C50 C51 1_555 1_555
C52 C53 1_555 1_555
C53 C54 1_555 1_555
C87 C88 1_555 1_555
O25 C35 1_555 1_555
O26 C35 1_555 1_555
C35 C36 1_555 1_555
C36 C37 1_555 1_555
C37 H20 1_555 1_555
C40 C39 1_555 1_555
H22 C40 1_555 1_555
C41 C36 1_555 1_555
H23 C41 1_555 1_555
C40 C41 1_555 1_555
O9 C35_2 1_555 1_555
O10 C35_2 1_555 1_555
C35_2 C36_2 1_555 1_555
C36_2 C37_2 1_555 1_555
C37_2 H20_2 1_555 1_555
C40_2 C39_2 1_555 1_555
H22_2 C40_2 1_555 1_555
C41_2 C36_2 1_555 1_555
H23_2 C41_2 1_555 1_555
In4 O9 1_555 1_555
O10 In4 1_555 1_555
C40_2 C41_2 1_555 1_555
In1_2 O1_2 1_555 1_555
In4 O3_2 1_555 1_555
O1_2 C1_2 1_555 1_555
O2_2 In1_2 1_555 1_555
O3_2 C8_2 1_555 1_555
O4_2 In4 1_555 1_555
O7_2 In1_2 1_555 1_555
O8_2 In1_2 1_555 1_555
O11 C42_2 1_555 1_555
O13_2 In1_2 1_555 1_555
O14_2 In1_2 1_555 1_555
O19_2 In1_2 1_555 1_555
O20_2 In1_2 1_555 1_555
C1_2 O2_2 1_555 1_555
C2_2 C1_2 1_555 1_555
C3_2 C2_2 1_555 1_555
H1_2 C3_2 1_555 1_555
C4_2 C3_2 1_555 1_555
H2_2 C4_2 1_555 1_555
C5_2 C4_2 1_555 1_555
C6_2 C5_2 1_555 1_555
H3_2 C6_2 1_555 1_555
C7_2 C2_2 1_555 1_555
H4_2 C7_2 1_555 1_555
C8_2 O4_2 1_555 1_555
C9_2 C8_2 1_555 1_555
C10_2 C9_2 1_555 1_555
H5_2 C10_2 1_555 1_555
C11_2 C10_2 1_555 1_555
H6_2 C11_2 1_555 1_555
C12_2 C11_2 1_555 1_555
C13_2 C12_2 1_555 1_555
H7_2 C13_2 1_555 1_555
C14_2 C9_2 1_555 1_555
H8_2 C14_2 1_555 1_555
C17_2 C16_2 1_555 1_555
C18_2 C17_2 1_555 1_555
H10_2 C18_2 1_555 1_555
C19_2 C18_2 1_555 1_555
C20_2 C19_2 1_555 1_555
H11_2 C20_2 1_555 1_555
C21_2 C16_2 1_555 1_555
H12_2 C21_2 1_555 1_555
C22_2 C5_2 1_555 1_555
C23_2 C22_2 1_555 1_555
H13_2 C23_2 1_555 1_555
C24_2 C12_2 1_555 1_555
C25_2 C24_2 1_555 1_555
H14_2 C25_2 1_555 1_555
C26_2 C19_2 1_555 1_555
C27_2 C22_2 1_555 1_555
H15_2 C27_2 1_555 1_555
C28_2 O7_2 1_555 1_555
C29_2 C28_2 1_555 1_555
C30_2 C29_2 1_555 1_555
H16_2 C30_2 1_555 1_555
C31_2 C30_2 1_555 1_555
H17_2 C31_2 1_555 1_555
C32_2 C31_2 1_555 1_555
C33_2 C32_2 1_555 1_555
H18_2 C33_2 1_555 1_555
C34_2 C29_2 1_555 1_555
H19_2 C34_2 1_555 1_555
H21_2 C38_2 1_555 1_555
C42_2 C43_2 1_555 1_555
C43_2 C44_2 1_555 1_555
C44_2 H24_2 1_555 1_555
C45_2 C44_2 1_555 1_555
H25_2 C45_2 1_555 1_555
C46_2 C45_2 1_555 1_555
C47_2 C46_2 1_555 1_555
H26_2 C47_2 1_555 1_555
C48_2 C43_2 1_555 1_555
H27_2 C48_2 1_555 1_555
C49_2 C32_2 1_555 1_555
C50_2 C49_2 1_555 1_555
H28_2 C50_2 1_555 1_555
C52_2 C51_2 1_555 1_555
C53_2 C46_2 1_555 1_555
C54_2 C49_2 1_555 1_555
H30_2 C54_2 1_555 1_555
C55_2 O13_2 1_555 1_555
C56_2 C55_2 1_555 1_555
C61_2 C56_2 1_555 1_555
H34_2 C61_2 1_555 1_555
C82_2 O19_2 1_555 1_555
C83_2 C82_2 1_555 1_555
C84_2 C83_2 1_555 1_555
H46_2 C84_2 1_555 1_555
C87_2 C86_2 1_555 1_555
H48_2 C87_2 1_555 1_555
C88_2 C83_2 1_555 1_555
H49_2 C88_2 1_555 1_555
O31 In4 1_555 1_555
O32 In4 1_555 1_555
O35 In4 1_555 1_555
O36 In4 1_555 1_555
O8_2 C28_2 1_555 1_555
O14_2 C55_2 1_555 1_555
O20_2 C82_2 1_555 1_555
C6_2 C7_2 1_555 1_555
C13_2 C14_2 1_555 1_555
C20_2 C21_2 1_555 1_555
C23_2 C24_2 1_555 1_555
C25_2 C26_2 1_555 1_555
C26_2 C27_2 1_555 1_555
C33_2 C34_2 1_555 1_555
C47_2 C48_2 1_555 1_555
C50_2 C51_2 1_555 1_555
C52_2 C53_2 1_555 1_555
C53_2 C54_2 1_555 1_555
C87_2 C88_2 1_555 1_555
O12 In7 1_555 1_555
O31 C69_2 1_555 1_555
O32 C69_2 1_555 1_555
C69_2 C70_2 1_555 1_555
C75_2 C70_2 1_555 1_555
H42_2 C75_2 1_555 1_555
O15 C62_2 1_555 1_555
O16 C62_2 1_555 1_555
O22 C89_2 1_555 1_555
O35 C96_2 1_555 1_555
O36 C96_2 1_555 1_555
H31_2 C57_2 1_555 1_555
C58_2 C57_2 1_555 1_555
H32_2 C58_2 1_555 1_555
C59_2 C58_2 1_555 1_555
C60_2 C59_2 1_555 1_555
H33_2 C60_2 1_555 1_555
C62_2 C63_2 1_555 1_555
C63_2 C64_2 1_555 1_555
C64_2 H35_2 1_555 1_555
C65_2 C64_2 1_555 1_555
H36_2 C65_2 1_555 1_555
C66_2 C65_2 1_555 1_555
C67_2 C66_2 1_555 1_555
H37_2 C67_2 1_555 1_555
C68_2 C63_2 1_555 1_555
H38_2 C68_2 1_555 1_555
C71_2 H39_2 1_555 1_555
C72_2 C71_2 1_555 1_555
H40_2 C72_2 1_555 1_555
C73_2 C72_2 1_555 1_555
C74_2 C73_2 1_555 1_555
H41_2 C74_2 1_555 1_555
C76_2 C59_2 1_555 1_555
C77_2 C76_2 1_555 1_555
H43_2 C77_2 1_555 1_555
C78_2 C66_2 1_555 1_555
C79_2 C78_2 1_555 1_555
H44_2 C79_2 1_555 1_555
C80_2 C73_2 1_555 1_555
C81_2 C76_2 1_555 1_555
H45_2 C81_2 1_555 1_555
H47_2 C85_2 1_555 1_555
C89_2 C90_2 1_555 1_555
C90_2 C91_2 1_555 1_555
C91_2 H50_2 1_555 1_555
C92_2 C91_2 1_555 1_555
H51_2 C92_2 1_555 1_555
C93_2 C92_2 1_555 1_555
C94_2 C93_2 1_555 1_555
C95_2 C90_2 1_555 1_555
C96_2 C97_2 1_555 1_555
C97_2 C98_2 1_555 1_555
C98_2 H54_2 1_555 1_555
C99_2 C98_2 1_555 1_555
H55_2 C99_2 1_555 1_555
C100_2 C99_2 1_555 1_555
C101_2 C100_2 1_555 1_555
H56_2 C101_2 1_555 1_555
C102_2 C97_2 1_555 1_555
H57_2 C102_2 1_555 1_555
C104_2 C103_2 1_555 1_555
H58_2 C104_2 1_555 1_555
C105_2 C93_2 1_555 1_555
C106_2 C105_2 1_555 1_555
H59_2 C106_2 1_555 1_555
C107_2 C100_2 1_555 1_555
C108_2 C103_2 1_555 1_555
H60_2 C108_2 1_555 1_555
In7 O15 1_555 1_555
O16 In7 1_555 1_555
C67_2 C68_2 1_555 1_555
C77_2 C78_2 1_555 1_555
C79_2 C80_2 1_555 1_555
C80_2 C81_2 1_555 1_555
C94_2 C95_2 1_555 1_555
C101_2 C102_2 1_555 1_555
C104_2 C105_2 1_555 1_555
C106_2 C107_2 1_555 1_555
C107_2 C108_2 1_555 1_555
In7 O21 1_555 1_555
In7 O5_2 1_555 1_555
O6_2 In7 1_555 1_555

#END
