
###############################################################################
#
# This file contains modified crystal structure data generated from the
# MOF subset of the Cambridge Structural Database (CSD) v543 
# hosted by the Cambridge Crystallographic Data Centre (CCDC).
#
# This work is licensed under the Creative Commons
# Attribution-NonCommercial-ShareAlike 4.0 International License.
# To view a copy of this license, visit
# http://creativecommons.org/licenses/by-nc-sa/4.0/
# or send a letter to
# Creative Commons, PO Box 1866, Mountain View, CA 94042, USA.
#
# CIF created using the CSD Python API on 29 September 2022
# The structure has been converted into the P1 space group
# The structure has a 3D framework
# The original CSD entry SONSIZ is in the rhombohedral crystal system
# The framework has been calculated to contain at least 10.0% void space
# The void calculation uses a probe of radius 1.32A, grid spacing 0.4
#
###############################################################################

data_SONSIZ
_chemical_formula_moiety         '(Se147 Sn72)n'
_symmetry_cell_setting           triclinic
_symmetry_space_group_name_H-M   'P 1'
_symmetry_Int_Tables_number      1
_space_group_name_Hall           'P 1'
loop_
_symmetry_equiv_pos_site_id
_symmetry_equiv_pos_as_xyz
1 x,y,z
_cell_length_a                   26.902(4)
_cell_length_b                   26.902(4)
_cell_length_c                   30.673(6)
_cell_angle_alpha                90
_cell_angle_beta                 90
_cell_angle_gamma                120
_cell_volume                     19224.5
loop_
_atom_site_label
_atom_site_type_symbol
_atom_site_fract_x
_atom_site_fract_y
_atom_site_fract_z
Sn1 Sn 0.39061(5) 0.20938(5) 0.31701(4)
Sn2 Sn 0.50054(5) 0.19426(5) 0.25812(4)
Sn3 Sn 0.66641(5) 0.17713(5) 0.26199(3)
Sn4 Sn 0.52832(5) 0.08208(5) 0.20430(4)
Se1 Se 0.42873(11) 0.22989(11) 0.23296(9)
Se2 Se 0.44281(10) 0.15448(11) 0.32591(8)
Se3 Se 0.55645(7) 0.13802(7) 0.28612(6)
Se4 Se 0.48097(9) 0.14126(8) 0.18655(6)
Se5 Se 0.58228(7) 0.29770(7) 0.26310(7)
Se6 Se 0.63307(11) 0.12302(12) 0.19310(9)
Se7 Se 0.68266(7) 0.13649(8) 0.33169(5)
Se8 Se 0.50455(8) 0.04378(8) 0.12219(6)
Sn5 Sn 0.79062(5) 0.18123(7) 0.31701(4)
Sn7 Sn 0.51072(7) 0.33359(5) 0.26199(3)
Se10 Se 0.77011(11) 0.19884(16) 0.23296(9)
Se11 Se 0.70230(7) 0.28458(10) 0.26310(7)
Se12 Se 0.45383(11) 0.31734(7) 0.33169(5)
Se13 Se 0.28955(8) 0.16212(8) 0.28886(6)
Se14 Se 0.35191(7) 0.19313(8) 0.39964(6)
Se9 Se 0.47354(8) 0.98142(7) 0.23297(6)
Sn6 Sn 0.45729(5) 0.94272(5) 0.15034(4)
Se9_2 Se 0.01858(7) 0.49212(11) 0.23297(6)
Sn6_2 Sn 0.05728(5) 0.51456(7) 0.15034(4)
Sn2_2 Sn 0.80574(5) 0.30628(7) 0.25812(4)
Sn3_2 Sn 0.82287(5) 0.48928(7) 0.26199(3)
Sn4_2 Sn 0.91792(5) 0.44624(7) 0.20430(4)
Se2_2 Se 0.84552(11) 0.28833(15) 0.32591(8)
Se3_2 Se 0.86198(7) 0.41843(10) 0.28612(6)
Se4_2 Se 0.85874(8) 0.33971(12) 0.18655(6)
Se6_2 Se 0.87698(12) 0.51005(16) 0.19310(9)
Se7_2 Se 0.86351(8) 0.54617(11) 0.33169(5)
Se8_2 Se 0.95622(8) 0.46077(11) 0.12219(6)
Sn5_2 Sn 0.81877(7) 0.60939(9) 0.31701(4)
Se10_2 Se 0.80116(16) 0.57127(19) 0.23296(9)
Se11_2 Se 0.71542(10) 0.41772(12) 0.26310(7)
Se13_2 Se 0.83788(8) 0.12744(11) 0.28886(6)
Se14_2 Se 0.80687(8) 0.15879(11) 0.39964(6)
Sn2_3 Sn 0.69372(7) 0.49946(5) 0.25812(4)
Sn4_3 Sn 0.55376(7) 0.47168(5) 0.20430(4)
Se2_3 Se 0.71167(15) 0.55719(10) 0.32591(8)
Se3_3 Se 0.58157(10) 0.44355(7) 0.28612(6)
Se4_3 Se 0.66029(12) 0.51903(9) 0.18655(6)
Se6_3 Se 0.48995(16) 0.36693(11) 0.19310(9)
Se8_3 Se 0.53923(11) 0.49545(8) 0.12219(6)
Se9_3 Se 0.50788(11) 0.52646(8) 0.23297(6)
Sn6_3 Sn 0.48544(7) 0.54271(5) 0.15034(4)
Se13_3 Se 0.87256(11) 0.71045(8) 0.28886(6)
Se14_3 Se 0.84121(11) 0.64809(7) 0.39964(6)
Se9_4 Se 0.01858(7) 0.52646(8) 0.73297(6)
Sn6_4 Sn 0.05728(5) 0.54271(5) 0.65034(4)
Sn1_2 Sn 0.79062(5) 0.60939(5) 0.81701(4)
Sn2_4 Sn 0.80574(5) 0.49946(5) 0.75812(4)
Sn3_3 Sn 0.82287(5) 0.33359(5) 0.76199(3)
Sn4_4 Sn 0.91792(5) 0.47168(5) 0.70430(4)
Se1_2 Se 0.77011(11) 0.57127(11) 0.73296(9)
Se2_4 Se 0.84552(11) 0.55719(10) 0.82591(8)
Se3_4 Se 0.86198(7) 0.44355(7) 0.78612(6)
Se4_4 Se 0.85874(8) 0.51903(9) 0.68655(6)
Se5_2 Se 0.70230(7) 0.41772(7) 0.76310(7)
Se6_4 Se 0.87698(12) 0.36693(11) 0.69310(9)
Se7_3 Se 0.86351(8) 0.31734(7) 0.83169(5)
Se8_4 Se 0.95622(8) 0.49545(8) 0.62219(6)
Sn5_3 Sn 0.81877(7) 0.20938(5) 0.81701(4)
Sn7_2 Sn 0.66641(5) 0.48928(7) 0.76199(3)
Se10_3 Se 0.80116(16) 0.22989(11) 0.73296(9)
Se11_3 Se 0.71542(10) 0.29770(7) 0.76310(7)
Se12_2 Se 0.68266(7) 0.54617(11) 0.83169(5)
Se13_4 Se 0.83788(8) 0.71045(8) 0.78886(6)
Se14_4 Se 0.80687(8) 0.64809(7) 0.89964(6)
Sn2_5 Sn 0.69372(7) 0.19426(5) 0.75812(4)
Sn3_4 Sn 0.51072(7) 0.17713(5) 0.76199(3)
Sn4_5 Sn 0.55376(7) 0.08208(5) 0.70430(4)
Se2_5 Se 0.71167(15) 0.15448(11) 0.82591(8)
Se3_5 Se 0.58157(10) 0.13802(7) 0.78612(6)
Se4_5 Se 0.66029(12) 0.14126(8) 0.68655(6)
Se6_5 Se 0.48995(16) 0.12302(12) 0.69310(9)
Se7_4 Se 0.45383(11) 0.13649(8) 0.83169(5)
Se8_5 Se 0.53923(11) 0.04378(8) 0.62219(6)
Sn5_4 Sn 0.39061(9) 0.18123(7) 0.81701(4)
Se10_4 Se 0.42873(19) 0.19884(16) 0.73296(9)
Se11_4 Se 0.58228(12) 0.28458(10) 0.76310(7)
Se13_5 Se 0.87256(11) 0.16212(8) 0.78886(6)
Se14_5 Se 0.84121(11) 0.19313(8) 0.89964(6)
Se9_5 Se 0.50788(11) 0.98142(7) 0.73297(6)
Sn6_5 Sn 0.48544(7) 0.94272(5) 0.65034(4)
Sn2_6 Sn 0.50054(5) 0.30628(7) 0.75812(4)
Sn4_6 Sn 0.52832(5) 0.44624(7) 0.70430(4)
Se2_6 Se 0.44281(10) 0.28833(15) 0.82591(8)
Se3_6 Se 0.55645(7) 0.41843(10) 0.78612(6)
Se4_6 Se 0.48097(9) 0.33971(12) 0.68655(6)
Se6_6 Se 0.63307(11) 0.51005(16) 0.69310(9)
Se8_6 Se 0.50455(8) 0.46077(11) 0.62219(6)
Se9_6 Se 0.47354(8) 0.49212(11) 0.73297(6)
Sn6_6 Sn 0.45729(5) 0.51456(7) 0.65034(4)
Se13_6 Se 0.28955(8) 0.12744(11) 0.78886(6)
Se14_6 Se 0.35191(7) 0.15879(11) 0.89964(6)
Sn2_7 Sn 0.16721(5) 0.52759(5) 0.59145(4)
Sn3_5 Sn 0.33308(5) 0.51046(5) 0.59532(3)
Sn4_7 Sn 0.19499(5) 0.41541(5) 0.53763(4)
Se1_3 Se 0.09540(11) 0.56322(11) 0.56629(9)
Se2_7 Se 0.10948(10) 0.48781(11) 0.65924(8)
Se3_7 Se 0.22312(7) 0.47135(7) 0.61945(6)
Se4_7 Se 0.14764(9) 0.47459(8) 0.51988(6)
Se5_3 Se 0.24895(7) 0.63103(7) 0.59643(7)
Se6_7 Se 0.29974(11) 0.45635(12) 0.52643(9)
Se7_5 Se 0.34933(7) 0.46982(8) 0.66502(5)
Se8_7 Se 0.17122(8) 0.37711(8) 0.45552(6)
Se9_7 Se 0.14021(8) 0.31475(7) 0.56630(6)
Sn6_7 Sn 0.12395(5) 0.27606(5) 0.48368(4)
Sn7_3 Sn 0.17739(7) 0.66692(5) 0.59532(3)
Se10_5 Se 0.43678(11) 0.53217(16) 0.56629(9)
Se11_5 Se 0.36897(7) 0.61791(10) 0.59643(7)
Se12_3 Se 0.12050(11) 0.65067(7) 0.66502(5)
Sn2_8 Sn 0.47241(5) 0.63961(7) 0.59145(4)
Sn3_6 Sn 0.48954(5) 0.82261(7) 0.59532(3)
Sn4_8 Sn 0.58459(5) 0.77957(7) 0.53763(4)
Se2_8 Se 0.51219(11) 0.62166(15) 0.65924(8)
Se3_8 Se 0.52865(7) 0.75176(10) 0.61945(6)
Se4_8 Se 0.52541(8) 0.67304(12) 0.51988(6)
Se6_8 Se 0.54365(12) 0.84338(16) 0.52643(9)
Se7_6 Se 0.53018(8) 0.87950(11) 0.66502(5)
Se8_8 Se 0.62289(8) 0.79410(11) 0.45552(6)
Se9_8 Se 0.68525(7) 0.82545(11) 0.56630(6)
Sn6_8 Sn 0.72394(5) 0.84790(7) 0.48368(4)
Se10_6 Se 0.46783(16) 0.90460(19) 0.56629(9)
Se11_6 Se 0.38209(10) 0.75105(12) 0.59643(7)
Sn2_9 Sn 0.36039(7) 0.83279(5) 0.59145(4)
Sn4_9 Sn 0.22043(7) 0.80501(5) 0.53763(4)
Se2_9 Se 0.37834(15) 0.89052(10) 0.65924(8)
Se3_9 Se 0.24824(10) 0.77688(7) 0.61945(6)
Se4_9 Se 0.32696(12) 0.85236(9) 0.51988(6)
Se6_9 Se 0.15662(16) 0.70026(11) 0.52643(9)
Se8_9 Se 0.20590(11) 0.82878(8) 0.45552(6)
Se9_9 Se 0.17455(11) 0.85979(8) 0.56630(6)
Sn6_9 Sn 0.15210(7) 0.87605(5) 0.48368(4)
Sn2_10 Sn 0.47241(5) 0.83279(5) 0.09145(4)
Sn3_7 Sn 0.48954(5) 0.66692(5) 0.09532(3)
Sn4_10 Sn 0.58459(5) 0.80501(5) 0.03763(4)
Se1_4 Se 0.43678(11) 0.90460(11) 0.06629(9)
Se2_10 Se 0.51219(11) 0.89052(10) 0.15924(8)
Se3_10 Se 0.52865(7) 0.77688(7) 0.11945(6)
Se4_10 Se 0.52541(8) 0.85236(9) 0.01988(6)
Se5_4 Se 0.36897(7) 0.75105(7) 0.09643(7)
Se6_10 Se 0.54365(12) 0.70026(11) 0.02643(9)
Se7_7 Se 0.53018(8) 0.65067(7) 0.16502(5)
Se9_10 Se 0.68525(7) 0.85979(8) 0.06630(6)
Sn7_4 Sn 0.33308(5) 0.82261(7) 0.09532(3)
Se10_7 Se 0.46783(16) 0.56322(11) 0.06629(9)
Se11_7 Se 0.38209(10) 0.63103(7) 0.09643(7)
Se12_4 Se 0.34933(7) 0.87950(11) 0.16502(5)
Se8_10 Se 0.62289(8) 0.82878(8) 0.95552(6)
Sn6_10 Sn 0.72394(5) 0.87605(5) 0.98368(4)
Sn2_11 Sn 0.36039(7) 0.52759(5) 0.09145(4)
Sn3_8 Sn 0.17739(7) 0.51046(5) 0.09532(3)
Sn4_11 Sn 0.22043(7) 0.41541(5) 0.03763(4)
Se2_11 Se 0.37834(15) 0.48781(11) 0.15924(8)
Se3_11 Se 0.24824(10) 0.47135(7) 0.11945(6)
Se4_11 Se 0.32696(12) 0.47459(8) 0.01988(6)
Se6_11 Se 0.15662(16) 0.45635(12) 0.02643(9)
Se7_8 Se 0.12050(11) 0.46982(8) 0.16502(5)
Se9_11 Se 0.17455(11) 0.31475(7) 0.06630(6)
Se10_8 Se 0.09540(19) 0.53217(16) 0.06629(9)
Se11_8 Se 0.24895(12) 0.61791(10) 0.09643(7)
Se8_11 Se 0.20590(11) 0.37711(8) 0.95552(6)
Sn6_11 Sn 0.15210(7) 0.27606(5) 0.98368(4)
Sn2_12 Sn 0.16721(5) 0.63961(7) 0.09145(4)
Sn4_12 Sn 0.19499(5) 0.77957(7) 0.03763(4)
Se2_12 Se 0.10948(10) 0.62166(15) 0.15924(8)
Se3_12 Se 0.22312(7) 0.75176(10) 0.11945(6)
Se4_12 Se 0.14764(9) 0.67304(12) 0.01988(6)
Se6_12 Se 0.29974(11) 0.84338(16) 0.02643(9)
Se9_12 Se 0.14021(8) 0.82545(11) 0.06630(6)
Sn7_5 Sn 0.84405(7) 0.00026(5) 0.92866(3)
Sn2_13 Sn 0.83387(5) 0.86093(5) 0.92479(4)
Sn3_9 Sn 0.99974(5) 0.84380(5) 0.92866(3)
Sn4_13 Sn 0.86165(5) 0.74875(5) 0.87097(4)
Se1_5 Se 0.76206(11) 0.89656(11) 0.89963(9)
Se2_13 Se 0.77614(10) 0.82115(11) 0.99258(8)
Se3_13 Se 0.88978(7) 0.80469(7) 0.95279(6)
Se4_13 Se 0.81430(9) 0.80793(8) 0.85322(6)
Se5_5 Se 0.91561(7) 0.96437(7) 0.92977(7)
Se6_13 Se 0.96640(11) 0.78969(12) 0.85977(9)
Se12_5 Se 0.78716(11) 0.98401(7) 0.99836(5)
Sn3_10 Sn 0.15620(5) 0.15595(7) 0.92866(3)
Sn4_14 Sn 0.25125(5) 0.11291(7) 0.87097(4)
Se3_14 Se 0.19531(7) 0.08510(10) 0.95279(6)
Se4_14 Se 0.19207(8) 0.00638(12) 0.85322(6)
Se6_14 Se 0.21031(12) 0.17672(16) 0.85977(9)
Se7_9 Se 0.19684(8) 0.21284(11) 0.99836(5)
Se10_9 Se 0.13449(16) 0.23794(19) 0.89963(9)
Se11_9 Se 0.04875(10) 0.08439(12) 0.92977(7)
Sn2_14 Sn 0.02705(7) 0.16613(5) 0.92479(4)
Se2_14 Se 0.04500(15) 0.22386(10) 0.99258(8)
Sn4_15 Sn 0.88709(7) 0.13835(5) 0.87097(4)
Se3_15 Se 0.91490(10) 0.11022(7) 0.95279(6)
Se4_15 Se 0.99362(12) 0.18570(9) 0.85322(6)
Se6_15 Se 0.82328(16) 0.03360(11) 0.85977(9)
Sn2_15 Sn 0.13907(5) 0.16613(5) 0.42479(4)
Sn3_11 Sn 0.15620(5) 0.00026(5) 0.42866(3)
Sn4_16 Sn 0.25125(5) 0.13835(5) 0.37097(4)
Se1_6 Se 0.10344(11) 0.23794(11) 0.39963(9)
Se2_15 Se 0.17885(11) 0.22386(10) 0.49258(8)
Se3_16 Se 0.19531(7) 0.11022(7) 0.45279(6)
Se4_16 Se 0.19207(8) 0.18570(9) 0.35322(6)
Se5_6 Se 0.03563(7) 0.08439(7) 0.42977(7)
Se6_16 Se 0.21031(12) 0.03360(11) 0.35977(9)
Se12_6 Se 0.01599(7) 0.21284(11) 0.49836(5)
Se7_10 Se 0.19684(8) 0.98401(7) 0.49836(5)
Se10_10 Se 0.13449(16) 0.89656(11) 0.39963(9)
Se11_10 Se 0.04875(10) 0.96437(7) 0.42977(7)
Sn7_6 Sn 0.99974(5) 0.15595(7) 0.42866(3)
Sn2_16 Sn 0.02705(7) 0.86093(5) 0.42479(4)
Se2_16 Se 0.04500(15) 0.82115(11) 0.49258(8)
Sn3_12 Sn 0.84405(7) 0.84380(5) 0.42866(3)
Sn4_17 Sn 0.88709(7) 0.74875(5) 0.37097(4)
Se3_17 Se 0.91490(10) 0.80469(7) 0.45279(6)
Se4_17 Se 0.99362(12) 0.80793(8) 0.35322(6)
Se6_17 Se 0.82328(16) 0.78969(12) 0.35977(9)
Se7_11 Se 0.78716(11) 0.80316(8) 0.49836(5)
Se10_11 Se 0.76206(19) 0.86551(16) 0.39963(9)
Se11_11 Se 0.91561(12) 0.95125(10) 0.42977(7)
Sn4_18 Sn 0.86165(5) 0.11291(7) 0.37097(4)
Se3_18 Se 0.88978(7) 0.08510(10) 0.45279(6)
Se4_18 Se 0.81430(9) 0.00638(12) 0.35322(6)
Se6_18 Se 0.96640(11) 0.17672(16) 0.35977(9)
Sn2_17 Sn 0.83387(5) 0.97295(7) 0.42479(4)
Se2_17 Se 0.77614(10) 0.95500(15) 0.49258(8)
Se8_12 Se 0.17122(8) 0.79410(11) 0.95552(6)
Sn6_12 Sn 0.12395(5) 0.84790(7) 0.98368(4)
Se7_12 Se 0.01599(7) 0.80316(8) 0.99836(5)
Se10_12 Se 0.10344(11) 0.86551(16) 0.89963(9)
Se11_12 Se 0.03563(7) 0.95125(10) 0.92977(7)
Sn2_18 Sn 0.13907(5) 0.97295(7) 0.92479(4)
Se2_18 Se 0.17885(11) 0.95500(15) 0.99258(8)
loop_
_geom_bond_atom_site_label_1
_geom_bond_atom_site_label_2
_geom_bond_site_symmetry_1
_geom_bond_site_symmetry_2
Sn1 Se1 1_555 1_555
Sn2 Se1 1_555 1_555
Sn3 Se3 1_555 1_555
Sn4 Se3 1_555 1_555
Se1 Sn7 1_555 1_555
Se2 Sn1 1_555 1_555
Se3 Sn2 1_555 1_555
Se4 Sn2 1_555 1_555
Se5 Sn2 1_555 1_555
Se6 Sn3 1_555 1_555
Se7 Sn3 1_555 1_555
Se8 Sn4 1_555 1_555
Sn5 Se7 1_555 1_555
Sn7 Se5 1_555 1_555
Se10 Sn3 1_555 1_555
Se11 Sn3 1_555 1_555
Se12 Sn1 1_555 1_555
Se13 Sn1 1_555 1_555
Se14 Sn1 1_555 1_555
Sn2 Se2 1_555 1_555
Sn4 Se4 1_555 1_555
Sn4 Se6 1_555 1_555
Sn5 Se10 1_555 1_555
Sn7 Se12 1_555 1_555
Se9 Sn6 1_555 1_555
Se9_2 Sn6_2 1_555 1_555
Sn2_2 Se10 1_555 1_555
Sn3_2 Se3_2 1_555 1_555
Sn4_2 Se3_2 1_555 1_555
Se2_2 Sn5 1_555 1_555
Se3_2 Sn2_2 1_555 1_555
Se4_2 Sn2_2 1_555 1_555
Se11 Sn2_2 1_555 1_555
Se6_2 Sn3_2 1_555 1_555
Se7_2 Sn3_2 1_555 1_555
Se8_2 Sn4_2 1_555 1_555
Sn5_2 Se7_2 1_555 1_555
Se10_2 Sn3_2 1_555 1_555
Se11_2 Sn3_2 1_555 1_555
Se13_2 Sn5 1_555 1_555
Se14_2 Sn5 1_555 1_555
Sn2_2 Se2_2 1_555 1_555
Sn4_2 Se4_2 1_555 1_555
Sn4_2 Se6_2 1_555 1_555
Sn5_2 Se10_2 1_555 1_555
Sn2_3 Se10_2 1_555 1_555
Sn7 Se3_3 1_555 1_555
Sn4_3 Se3_3 1_555 1_555
Se2_3 Sn5_2 1_555 1_555
Se3_3 Sn2_3 1_555 1_555
Se4_3 Sn2_3 1_555 1_555
Se11_2 Sn2_3 1_555 1_555
Se6_3 Sn7 1_555 1_555
Se8_3 Sn4_3 1_555 1_555
Se9_3 Sn4_3 1_555 1_555
Sn6_3 Se8_3 1_555 1_555
Se13_3 Sn5_2 1_555 1_555
Se14_3 Sn5_2 1_555 1_555
Sn2_3 Se2_3 1_555 1_555
Sn4_3 Se4_3 1_555 1_555
Sn4_3 Se6_3 1_555 1_555
Se9_3 Sn6_3 1_555 1_555
Se9_4 Sn6_4 1_555 1_555
Sn1_2 Se1_2 1_555 1_555
Sn2_4 Se1_2 1_555 1_555
Sn3_3 Se3_4 1_555 1_555
Sn4_4 Se3_4 1_555 1_555
Se1_2 Sn7_2 1_555 1_555
Se2_4 Sn1_2 1_555 1_555
Se3_4 Sn2_4 1_555 1_555
Se4_4 Sn2_4 1_555 1_555
Se5_2 Sn2_4 1_555 1_555
Se6_4 Sn3_3 1_555 1_555
Se7_3 Sn3_3 1_555 1_555
Se8_4 Sn4_4 1_555 1_555
Sn5_3 Se7_3 1_555 1_555
Sn7_2 Se5_2 1_555 1_555
Se10_3 Sn3_3 1_555 1_555
Se11_3 Sn3_3 1_555 1_555
Se12_2 Sn1_2 1_555 1_555
Se13_4 Sn1_2 1_555 1_555
Se14_4 Sn1_2 1_555 1_555
Sn2_4 Se2_4 1_555 1_555
Sn4_4 Se4_4 1_555 1_555
Sn4_4 Se6_4 1_555 1_555
Sn5_3 Se10_3 1_555 1_555
Sn7_2 Se12_2 1_555 1_555
Sn2_5 Se10_3 1_555 1_555
Sn3_4 Se3_5 1_555 1_555
Sn4_5 Se3_5 1_555 1_555
Se2_5 Sn5_3 1_555 1_555
Se3_5 Sn2_5 1_555 1_555
Se4_5 Sn2_5 1_555 1_555
Se11_3 Sn2_5 1_555 1_555
Se6_5 Sn3_4 1_555 1_555
Se7_4 Sn3_4 1_555 1_555
Se8_5 Sn4_5 1_555 1_555
Sn5_4 Se7_4 1_555 1_555
Se10_4 Sn3_4 1_555 1_555
Se11_4 Sn3_4 1_555 1_555
Se13_5 Sn5_3 1_555 1_555
Se14_5 Sn5_3 1_555 1_555
Sn2_5 Se2_5 1_555 1_555
Sn4_5 Se4_5 1_555 1_555
Sn4_5 Se6_5 1_555 1_555
Sn5_4 Se10_4 1_555 1_555
Se9_5 Sn6_5 1_555 1_555
Sn2_6 Se10_4 1_555 1_555
Sn7_2 Se3_6 1_555 1_555
Sn4_6 Se3_6 1_555 1_555
Se2_6 Sn5_4 1_555 1_555
Se3_6 Sn2_6 1_555 1_555
Se4_6 Sn2_6 1_555 1_555
Se11_4 Sn2_6 1_555 1_555
Se6_6 Sn7_2 1_555 1_555
Se8_6 Sn4_6 1_555 1_555
Se9_6 Sn4_6 1_555 1_555
Sn6_6 Se8_6 1_555 1_555
Se13_6 Sn5_4 1_555 1_555
Se14_6 Sn5_4 1_555 1_555
Sn2_6 Se2_6 1_555 1_555
Sn4_6 Se4_6 1_555 1_555
Sn4_6 Se6_6 1_555 1_555
Se9_6 Sn6_6 1_555 1_555
Sn6_4 Se1_3 1_555 1_555
Sn2_7 Se1_3 1_555 1_555
Sn3_5 Se3_7 1_555 1_555
Sn4_7 Se3_7 1_555 1_555
Se1_3 Sn7_3 1_555 1_555
Se2_7 Sn6_4 1_555 1_555
Se3_7 Sn2_7 1_555 1_555
Se4_7 Sn2_7 1_555 1_555
Se5_3 Sn2_7 1_555 1_555
Se6_7 Sn3_5 1_555 1_555
Se7_5 Sn3_5 1_555 1_555
Se8_7 Sn4_7 1_555 1_555
Se9_7 Sn4_7 1_555 1_555
Sn6_6 Se7_5 1_555 1_555
Sn6_7 Se8_7 1_555 1_555
Sn7_3 Se5_3 1_555 1_555
Se10_5 Sn3_5 1_555 1_555
Se11_5 Sn3_5 1_555 1_555
Se12_3 Sn6_4 1_555 1_555
Sn2_7 Se2_7 1_555 1_555
Sn4_7 Se4_7 1_555 1_555
Sn4_7 Se6_7 1_555 1_555
Se9_7 Sn6_7 1_555 1_555
Sn6_6 Se10_5 1_555 1_555
Sn7_3 Se12_3 1_555 1_555
Sn2_8 Se10_5 1_555 1_555
Sn3_6 Se3_8 1_555 1_555
Sn4_8 Se3_8 1_555 1_555
Se2_8 Sn6_6 1_555 1_555
Se3_8 Sn2_8 1_555 1_555
Se4_8 Sn2_8 1_555 1_555
Se11_5 Sn2_8 1_555 1_555
Se6_8 Sn3_6 1_555 1_555
Se7_6 Sn3_6 1_555 1_555
Se8_8 Sn4_8 1_555 1_555
Se9_8 Sn4_8 1_555 1_555
Sn6_5 Se7_6 1_555 1_555
Sn6_8 Se8_8 1_555 1_555
Se10_6 Sn3_6 1_555 1_555
Se11_6 Sn3_6 1_555 1_555
Sn2_8 Se2_8 1_555 1_555
Sn4_8 Se4_8 1_555 1_555
Sn4_8 Se6_8 1_555 1_555
Se9_8 Sn6_8 1_555 1_555
Sn6_5 Se10_6 1_555 1_555
Sn2_9 Se10_6 1_555 1_555
Sn7_3 Se3_9 1_555 1_555
Sn4_9 Se3_9 1_555 1_555
Se2_9 Sn6_5 1_555 1_555
Se3_9 Sn2_9 1_555 1_555
Se4_9 Sn2_9 1_555 1_555
Se11_6 Sn2_9 1_555 1_555
Se6_9 Sn7_3 1_555 1_555
Se8_9 Sn4_9 1_555 1_555
Se9_9 Sn4_9 1_555 1_555
Sn6_9 Se8_9 1_555 1_555
Sn2_9 Se2_9 1_555 1_555
Sn4_9 Se4_9 1_555 1_555
Sn4_9 Se6_9 1_555 1_555
Se9_9 Sn6_9 1_555 1_555
Sn6 Se1_4 1_555 1_555
Sn2_10 Se1_4 1_555 1_555
Sn3_7 Se3_10 1_555 1_555
Sn4_10 Se3_10 1_555 1_555
Se1_4 Sn7_4 1_555 1_555
Se2_10 Sn6 1_555 1_555
Se3_10 Sn2_10 1_555 1_555
Se4_10 Sn2_10 1_555 1_555
Se5_4 Sn2_10 1_555 1_555
Se6_10 Sn3_7 1_555 1_555
Se7_7 Sn3_7 1_555 1_555
Se9_10 Sn4_10 1_555 1_555
Sn6_3 Se7_7 1_555 1_555
Sn7_4 Se5_4 1_555 1_555
Se10_7 Sn3_7 1_555 1_555
Se11_7 Sn3_7 1_555 1_555
Se12_4 Sn6 1_555 1_555
Sn2_10 Se2_10 1_555 1_555
Sn4_10 Se4_10 1_555 1_555
Sn4_10 Se6_10 1_555 1_555
Sn6_3 Se10_7 1_555 1_555
Sn7_4 Se12_4 1_555 1_555
Sn6_10 Se8_10 1_555 1_555
Sn2_11 Se10_7 1_555 1_555
Sn3_8 Se3_11 1_555 1_555
Sn4_11 Se3_11 1_555 1_555
Se2_11 Sn6_3 1_555 1_555
Se3_11 Sn2_11 1_555 1_555
Se4_11 Sn2_11 1_555 1_555
Se11_7 Sn2_11 1_555 1_555
Se6_11 Sn3_8 1_555 1_555
Se7_8 Sn3_8 1_555 1_555
Se9_11 Sn4_11 1_555 1_555
Sn6_2 Se7_8 1_555 1_555
Se10_8 Sn3_8 1_555 1_555
Se11_8 Sn3_8 1_555 1_555
Sn2_11 Se2_11 1_555 1_555
Sn4_11 Se4_11 1_555 1_555
Sn4_11 Se6_11 1_555 1_555
Sn6_2 Se10_8 1_555 1_555
Sn6_11 Se8_11 1_555 1_555
Sn2_12 Se10_8 1_555 1_555
Sn7_4 Se3_12 1_555 1_555
Sn4_12 Se3_12 1_555 1_555
Se2_12 Sn6_2 1_555 1_555
Se3_12 Sn2_12 1_555 1_555
Se4_12 Sn2_12 1_555 1_555
Se11_8 Sn2_12 1_555 1_555
Se6_12 Sn7_4 1_555 1_555
Se9_12 Sn4_12 1_555 1_555
Sn2_12 Se2_12 1_555 1_555
Sn4_12 Se4_12 1_555 1_555
Sn4_12 Se6_12 1_555 1_555
Sn6_10 Se1_5 1_555 1_555
Sn2_13 Se1_5 1_555 1_555
Sn3_9 Se3_13 1_555 1_555
Sn4_13 Se3_13 1_555 1_555
Se2_13 Sn6_10 1_555 1_555
Se3_13 Sn2_13 1_555 1_555
Se4_13 Sn2_13 1_555 1_555
Se5_5 Sn2_13 1_555 1_555
Se6_13 Sn3_9 1_555 1_555
Se13_4 Sn4_13 1_555 1_555
Se14_4 Sn4_13 1_555 1_555
Se12_5 Sn6_10 1_555 1_555
Sn2_13 Se2_13 1_555 1_555
Sn4_13 Se4_13 1_555 1_555
Sn4_13 Se6_13 1_555 1_555
Sn3_10 Se3_14 1_555 1_555
Sn4_14 Se3_14 1_555 1_555
Se6_14 Sn3_10 1_555 1_555
Se7_9 Sn3_10 1_555 1_555
Se13_6 Sn4_14 1_555 1_555
Se14_6 Sn4_14 1_555 1_555
Sn6_11 Se7_9 1_555 1_555
Se10_9 Sn3_10 1_555 1_555
Se11_9 Sn3_10 1_555 1_555
Sn4_14 Se4_14 1_555 1_555
Sn4_14 Se6_14 1_555 1_555
Sn6_11 Se10_9 1_555 1_555
Sn2_14 Se10_9 1_555 1_555
Se2_14 Sn6_11 1_555 1_555
Se11_9 Sn2_14 1_555 1_555
Sn2_14 Se2_14 1_555 1_555
Sn7_5 Se3_15 1_555 1_555
Sn4_15 Se3_15 1_555 1_555
Se6_15 Sn7_5 1_555 1_555
Se13_5 Sn4_15 1_555 1_555
Se14_5 Sn4_15 1_555 1_555
Sn4_15 Se4_15 1_555 1_555
Sn4_15 Se6_15 1_555 1_555
Sn6_7 Se1_6 1_555 1_555
Sn2_15 Se1_6 1_555 1_555
Sn3_11 Se3_16 1_555 1_555
Sn4_16 Se3_16 1_555 1_555
Se2_15 Sn6_7 1_555 1_555
Se3_16 Sn2_15 1_555 1_555
Se4_16 Sn2_15 1_555 1_555
Se5_6 Sn2_15 1_555 1_555
Se6_16 Sn3_11 1_555 1_555
Se13 Sn4_16 1_555 1_555
Se14 Sn4_16 1_555 1_555
Se12_6 Sn6_7 1_555 1_555
Sn2_15 Se2_15 1_555 1_555
Sn4_16 Se4_16 1_555 1_555
Sn4_16 Se6_16 1_555 1_555
Sn6_9 Se7_10 1_555 1_555
Sn6_9 Se10_10 1_555 1_555
Sn2_16 Se10_10 1_555 1_555
Se2_16 Sn6_9 1_555 1_555
Se11_10 Sn2_16 1_555 1_555
Sn2_16 Se2_16 1_555 1_555
Sn3_12 Se3_17 1_555 1_555
Sn4_17 Se3_17 1_555 1_555
Se6_17 Sn3_12 1_555 1_555
Se7_11 Sn3_12 1_555 1_555
Se13_3 Sn4_17 1_555 1_555
Se14_3 Sn4_17 1_555 1_555
Sn6_8 Se7_11 1_555 1_555
Se10_11 Sn3_12 1_555 1_555
Se11_11 Sn3_12 1_555 1_555
Sn4_17 Se4_17 1_555 1_555
Sn4_17 Se6_17 1_555 1_555
Sn6_8 Se10_11 1_555 1_555
Sn7_6 Se3_18 1_555 1_555
Sn4_18 Se3_18 1_555 1_555
Se6_18 Sn7_6 1_555 1_555
Se13_2 Sn4_18 1_555 1_555
Se14_2 Sn4_18 1_555 1_555
Sn4_18 Se4_18 1_555 1_555
Sn4_18 Se6_18 1_555 1_555
Sn2_17 Se10_11 1_555 1_555
Se2_17 Sn6_8 1_555 1_555
Se11_11 Sn2_17 1_555 1_555
Sn2_17 Se2_17 1_555 1_555
Sn6_12 Se8_12 1_555 1_555
Sn6_12 Se7_12 1_555 1_555
Sn6_12 Se10_12 1_555 1_555
Sn2_18 Se10_12 1_555 1_555
Se2_18 Sn6_12 1_555 1_555
Se11_12 Sn2_18 1_555 1_555
Sn2_18 Se2_18 1_555 1_555

#END
