
###############################################################################
#
# This file contains modified crystal structure data generated from the
# MOF subset of the Cambridge Structural Database (CSD) v543 
# hosted by the Cambridge Crystallographic Data Centre (CCDC).
#
# This work is licensed under the Creative Commons
# Attribution-NonCommercial-ShareAlike 4.0 International License.
# To view a copy of this license, visit
# http://creativecommons.org/licenses/by-nc-sa/4.0/
# or send a letter to
# Creative Commons, PO Box 1866, Mountain View, CA 94042, USA.
#
# CIF created using the CSD Python API on 29 September 2022
# The structure has been converted into the P1 space group
# The structure has a 3D framework
# The original CSD entry SOPLEQ is in the monoclinic crystal system
# The framework has been calculated to contain at least 10.0% void space
# The void calculation uses a probe of radius 1.32A, grid spacing 0.4
#
###############################################################################

data_SOPLEQ
_chemical_formula_moiety         '(C320 H208 N32 O80 Zn16)n'
_symmetry_cell_setting           triclinic
_symmetry_space_group_name_H-M   'P 1'
_symmetry_Int_Tables_number      1
_space_group_name_Hall           'P 1'
loop_
_symmetry_equiv_pos_site_id
_symmetry_equiv_pos_as_xyz
1 x,y,z
_cell_length_a                   19.7220(5)
_cell_length_b                   28.0588(6)
_cell_length_c                   28.0835(4)
_cell_angle_alpha                90
_cell_angle_beta                 94.423(2)
_cell_angle_gamma                90
_cell_volume                     15494.4
loop_
_atom_site_label
_atom_site_type_symbol
_atom_site_fract_x
_atom_site_fract_y
_atom_site_fract_z
Zn1 Zn 0.39004(3) 0.24642(2) 0.16131(2)
Zn2 Zn 0.39189(3) 0.24935(2) 0.05708(2)
Zn3 Zn 0.89337(3) 0.75258(2) 0.15309(2)
Zn4 Zn 0.88477(3) 0.74817(2) 0.04834(2)
O1 O 0.3068(2) 0.20520(15) 0.14656(13)
O2 O 0.3050(2) 0.21146(13) 0.06738(13)
O3 O 0.4475(2) 0.18796(14) 0.14934(14)
O4 O 0.4432(2) 0.18774(14) 0.06950(13)
O5 O 0.3313(2) 0.30476(13) 0.14299(13)
O6 O 0.3407(2) 0.31164(13) 0.06481(13)
O7 O 0.4707(2) 0.28936(16) 0.15687(14)
O8 O 0.4782(2) 0.28684(15) 0.07873(14)
O9 O 0.8380(3) 0.69299(15) 0.13720(14)
O10 O 0.8269(2) 0.68867(13) 0.05810(13)
O17 O 0.0366(5) 0.0466(3) 0.0498(3)
O19 O 0.1910(5) 0.5235(4) 0.1812(4)
O20 O 0.6932(3) 0.4791(2) 0.1859(2)
N1 N 0.3896(2) 0.24709(14) 0.23362(14)
N2 N 0.3923(2) 0.24925(15) 0.48484(14)
N3 N 0.8903(2) 0.75177(16) 0.22482(14)
N4 N 0.8868(2) 0.75200(15) 0.47586(14)
N5 N 0.0946(5) 0.0119(4) 0.1082(4)
H1 H 0.1282 0.0132 0.1307
N7 N 0.1912(4) 0.5090(3) 0.1008(3)
H3 H 0.1826 0.5202 0.0717
N8 N 0.6723(4) 0.4963(3) 0.1087(3)
H4 H 0.6516 0.4869 0.0815
C1 C 0.3318(3) 0.2476(2) 0.25572(19)
H5 H 0.2898 0.2470 0.2367
C2 C 0.3301(3) 0.2488(2) 0.30489(19)
H6 H 0.2880 0.2495 0.3192
C3 C 0.3908(3) 0.2491(2) 0.33269(17)
C4 C 0.4511(3) 0.2484(3) 0.3103(2)
H7 H 0.4938 0.2484 0.3286
C5 C 0.4481(3) 0.2476(2) 0.26110(19)
H8 H 0.4896 0.2473 0.2460
C6 C 0.3439(3) 0.2271(2) 0.45787(18)
H9 H 0.3090 0.2112 0.4732
C7 C 0.3418(3) 0.2259(2) 0.40910(18)
H10 H 0.3063 0.2095 0.3913
C8 C 0.3920(3) 0.2490(2) 0.38592(17)
C9 C 0.4423(3) 0.2727(3) 0.41364(19)
H11 H 0.4775 0.2891 0.3993
C10 C 0.4401(3) 0.2718(3) 0.4622(2)
H12 H 0.4746 0.2883 0.4810
C11 C 0.8636(4) 0.7878(3) 0.2481(2)
H13 H 0.8448 0.8139 0.2300
C12 C 0.8621(4) 0.7889(3) 0.2969(2)
H14 H 0.8427 0.8154 0.3119
C13 C 0.8891(3) 0.7510(2) 0.32412(17)
C14 C 0.9137(5) 0.7141(3) 0.3003(3)
H15 H 0.9323 0.6873 0.3173
C15 C 0.9120(5) 0.7150(3) 0.2506(2)
H16 H 0.9272 0.6877 0.2346
C16 C 0.8355(3) 0.7718(2) 0.44856(18)
H17 H 0.7983 0.7854 0.4633
C17 C 0.8359(3) 0.7726(2) 0.39904(18)
H18 H 0.7998 0.7875 0.3802
C18 C 0.8890(3) 0.7515(2) 0.37719(17)
C19 C 0.9396(3) 0.7296(3) 0.4062(2)
H19 H 0.9758 0.7136 0.3926
C20 C 0.9370(3) 0.7311(3) 0.4546(2)
H20 H 0.9728 0.7165 0.4740
C21 C 0.2844(3) 0.19444(19) 0.10526(19)
C22 C 0.2304(3) 0.1576(2) 0.1008(2)
C23 C 0.2130(4) 0.1330(2) 0.1411(2)
H21 H 0.2336 0.1414 0.1716
C24 C 0.1665(4) 0.0967(3) 0.1373(3)
H22 H 0.1559 0.0797 0.1650
C25 C 0.1341(4) 0.0844(3) 0.0921(3)
C26 C 0.1484(4) 0.1104(3) 0.0523(3)
H23 H 0.1257 0.1035 0.0221
C27 C 0.0865(6) 0.0448(4) 0.0844(4)
C29 C 0.1966(3) 0.1468(2) 0.0570(2)
H24 H 0.2064 0.1646 0.0296
C36 C 0.4576(3) 0.1689(2) 0.1096(2)
C37 C 0.4891(4) 0.1203(2) 0.1106(2)
C38 C 0.4966(4) 0.0962(3) 0.0686(3)
H29 H 0.4828 0.1110 0.0390
C39 C 0.5243(4) 0.0504(3) 0.0689(3)
H30 H 0.5272 0.0334 0.0398
C40 C 0.5472(5) 0.0302(3) 0.1116(4)
C41 C 0.5391(6) 0.0542(3) 0.1543(4)
H31 H 0.5536 0.0398 0.1839
C42 C 0.5103(6) 0.0985(3) 0.1532(3)
H32 H 0.5048 0.1146 0.1824
C51 C 0.3235(3) 0.32692(19) 0.10352(19)
C52 C 0.2894(3) 0.3748(2) 0.1036(2)
C53 C 0.2906(4) 0.4051(2) 0.0654(2)
H37 H 0.3132 0.3951 0.0384
C54 C 0.2603(4) 0.4493(2) 0.0646(3)
H38 H 0.2626 0.4696 0.0377
C55 C 0.2273(4) 0.4633(2) 0.1023(3)
C56 C 0.2254(4) 0.4343(3) 0.1425(3)
H39 H 0.2031 0.4447 0.1695
C57 C 0.2570(4) 0.3893(2) 0.1426(3)
H40 H 0.2558 0.3689 0.1696
C58 C 0.1711(7) 0.5341(4) 0.1312(5)
C59 C 0.1308(6) 0.5774(4) 0.1227(4)
C60 C 0.1015(6) 0.5874(4) 0.0785(5)
H41 H 0.1109 0.5683 0.0519
C61 C 0.0553(5) 0.6280(3) 0.0725(3)
H42 H 0.0336 0.6351 0.0420
C62 C 0.0435(4) 0.6556(2) 0.1109(3)
C63 C 0.0785(6) 0.6444(4) 0.1538(4)
H43 H 0.0736 0.6641 0.1808
C64 C 0.1202(6) 0.6052(5) 0.1583(5)
H44 H 0.1423 0.5982 0.1888
C66 C 0.4943(3) 0.3033(2) 0.1195(2)
C67 C 0.5429(3) 0.3448(2) 0.1237(2)
C68 C 0.5508(5) 0.3700(3) 0.1663(3)
H45 H 0.5274 0.3591 0.1926
C69 C 0.5892(6) 0.4085(4) 0.1722(4)
H46 H 0.5940 0.4243 0.2021
C70 C 0.6218(5) 0.4249(3) 0.1346(5)
C71 C 0.6155(4) 0.4018(3) 0.0904(4)
H47 H 0.6378 0.4137 0.0641
C72 C 0.5759(4) 0.3611(3) 0.0858(3)
H48 H 0.5715 0.3444 0.0563
C73 C 0.6681(7) 0.4710(4) 0.1450(4)
C74 C 0.7110(4) 0.5416(3) 0.1101(3)
C75 C 0.7315(4) 0.5675(3) 0.1514(3)
H49 H 0.7220 0.5558 0.1820
C76 C 0.7656(4) 0.6102(2) 0.1474(3)
H50 H 0.7794 0.6278 0.1753
C77 C 0.7797(3) 0.6276(2) 0.1033(2)
C78 C 0.7592(4) 0.6016(2) 0.0629(3)
H51 H 0.7695 0.6127 0.0324
C79 C 0.7231(4) 0.5587(3) 0.0671(3)
H52 H 0.7073 0.5417 0.0391
C80 C 0.8179(3) 0.67314(18) 0.0988(2)
Zn5 Zn 0.39189(3) 0.25065(2) 0.55708(2)
Zn12 Zn 0.88477(3) 0.75183(2) 0.54834(2)
O21 O 0.8084(2) 0.79150(15) 0.13624(14)
O22 O 0.8016(2) 0.78902(13) 0.05702(13)
O23 O 0.9472(3) 0.81189(16) 0.14193(15)
O24 O 0.9417(2) 0.80786(15) 0.06318(14)
O25 O 0.9768(3) 0.71247(18) 0.14552(15)
O26 O 0.9674(2) 0.70642(15) 0.06689(14)
N9 N 0.3923(2) 0.25075(15) 0.98484(14)
N10 N 0.8868(2) 0.74800(15) 0.97586(14)
O18 O 0.5293(4) 0.9494(3) 0.0471(3)
N6 N 0.5842(5) 0.9835(3) 0.1134(3)
H2 H 0.6105 0.9782 0.1396
C28 C 0.0520(6) 0.9645(3) 0.1049(5)
C30 C 0.0258(5) 0.9470(4) 0.0619(4)
H25 H 0.0269 0.9655 0.0336
C33 C 0.0156(6) 0.8966(3) 0.1428(4)
H27 H 0.0077 0.8806 0.1717
C34 C 0.0499(9) 0.9378(5) 0.1458(5)
H28 H 0.0720 0.9482 0.1753
C43 C 0.5831(6) 0.9520(3) 0.0840(4)
C44 C 0.6307(4) 0.9134(3) 0.0905(3)
C45 C 0.6430(4) 0.8881(3) 0.0491(3)
H33 H 0.6182 0.8954 0.0197
C46 C 0.6911(3) 0.8524(2) 0.0510(2)
H34 H 0.6998 0.8358 0.0227
C47 C 0.7270(3) 0.84049(19) 0.0937(2)
C48 C 0.7121(4) 0.8636(2) 0.1354(2)
H35 H 0.7347 0.8548 0.1652
C49 C 0.6640(4) 0.8996(3) 0.1329(3)
H36 H 0.6537 0.9152 0.1615
C50 C 0.7835(3) 0.80404(18) 0.09596(19)
C65 C 0.9922(3) 0.6947(2) 0.1074(2)
C31 C 0.9964(4) 0.8996(3) 0.0604(3)
H26 H 0.9810 0.8856 0.0308
C32 C 0.9912(3) 0.8760(2) 0.1009(3)
C35 C 0.9574(3) 0.8283(2) 0.1022(2)
Zn1_2 Zn 0.39004(3) 0.25358(2) 0.66131(2)
O1_2 O 0.3068(2) 0.29480(15) 0.64656(13)
O2_2 O 0.3050(2) 0.28854(13) 0.56738(13)
O3_2 O 0.4475(2) 0.31204(14) 0.64934(14)
O4_2 O 0.4432(2) 0.31226(14) 0.56950(13)
O5_2 O 0.3313(2) 0.19524(13) 0.64299(13)
O6_2 O 0.3407(2) 0.18836(13) 0.56481(13)
O7_2 O 0.4707(2) 0.21064(16) 0.65687(14)
O8_2 O 0.4782(2) 0.21316(15) 0.57873(14)
O11 O 0.8084(2) 0.70850(15) 0.63624(14)
O12 O 0.8016(2) 0.71098(13) 0.55702(13)
O17_2 O 0.0366(5) 0.4534(3) 0.5498(3)
O18_2 O 0.5293(4) 0.5506(3) 0.5471(3)
O20_2 O 0.6932(3) 0.0209(2) 0.6859(2)
N1_2 N 0.3896(2) 0.25291(14) 0.73362(14)
N5_2 N 0.0946(5) 0.4881(4) 0.6082(4)
H1_2 H 0.1282 0.4868 0.6307
N6_2 N 0.5842(5) 0.5165(3) 0.6134(3)
H2_2 H 0.6105 0.5218 0.6396
N8_2 N 0.6723(4) 0.0037(3) 0.6087(3)
H4_2 H 0.6516 0.0131 0.5815
C1_2 C 0.3318(3) 0.2524(2) 0.75572(19)
H5_2 H 0.2898 0.2530 0.7367
C2_2 C 0.3301(3) 0.2512(2) 0.80489(19)
H6_2 H 0.2880 0.2505 0.8192
C3_2 C 0.3908(3) 0.2509(2) 0.83269(17)
C4_2 C 0.4511(3) 0.2516(3) 0.8103(2)
H7_2 H 0.4938 0.2516 0.8286
C5_2 C 0.4481(3) 0.2524(2) 0.76110(19)
H8_2 H 0.4896 0.2527 0.7460
C6_2 C 0.3439(3) 0.2729(2) 0.95787(18)
H9_2 H 0.3090 0.2888 0.9732
C7_2 C 0.3418(3) 0.2741(2) 0.90910(18)
H10_2 H 0.3063 0.2905 0.8913
C8_2 C 0.3920(3) 0.2510(2) 0.88592(17)
C9_2 C 0.4423(3) 0.2273(3) 0.91364(19)
H11_2 H 0.4775 0.2109 0.8993
C10_2 C 0.4401(3) 0.2282(3) 0.9622(2)
H12_2 H 0.4746 0.2117 0.9810
C21_2 C 0.2844(3) 0.30556(19) 0.60526(19)
C22_2 C 0.2304(3) 0.3424(2) 0.6008(2)
C23_2 C 0.2130(4) 0.3670(2) 0.6411(2)
H21_2 H 0.2336 0.3586 0.6716
C24_2 C 0.1665(4) 0.4033(3) 0.6373(3)
H22_2 H 0.1559 0.4203 0.6650
C25_2 C 0.1341(4) 0.4156(3) 0.5921(3)
C26_2 C 0.1484(4) 0.3896(3) 0.5523(3)
H23_2 H 0.1257 0.3965 0.5221
C27_2 C 0.0865(6) 0.4552(4) 0.5844(4)
C28_2 C 0.0520(6) 0.5355(3) 0.6049(5)
C29_2 C 0.1966(3) 0.3532(2) 0.5570(2)
H24_2 H 0.2064 0.3354 0.5296
C30_2 C 0.0258(5) 0.5530(4) 0.5619(4)
H25_2 H 0.0269 0.5345 0.5336
C33_2 C 0.0156(6) 0.6034(3) 0.6428(4)
H27_2 H 0.0077 0.6194 0.6717
C34_2 C 0.0499(9) 0.5622(5) 0.6458(5)
H28_2 H 0.0720 0.5518 0.6753
C36_2 C 0.4576(3) 0.3311(2) 0.6096(2)
C37_2 C 0.4891(4) 0.3797(2) 0.6106(2)
C38_2 C 0.4966(4) 0.4038(3) 0.5686(3)
H29_2 H 0.4828 0.3890 0.5390
C39_2 C 0.5243(4) 0.4496(3) 0.5689(3)
H30_2 H 0.5272 0.4666 0.5398
C40_2 C 0.5472(5) 0.4698(3) 0.6116(4)
C41_2 C 0.5391(6) 0.4458(3) 0.6543(4)
H31_2 H 0.5536 0.4602 0.6839
C42_2 C 0.5103(6) 0.4015(3) 0.6532(3)
H32_2 H 0.5048 0.3854 0.6824
C43_2 C 0.5831(6) 0.5480(3) 0.5840(4)
C44_2 C 0.6307(4) 0.5866(3) 0.5905(3)
C45_2 C 0.6430(4) 0.6119(3) 0.5491(3)
H33_2 H 0.6182 0.6046 0.5197
C46_2 C 0.6911(3) 0.6476(2) 0.5510(2)
H34_2 H 0.6998 0.6642 0.5227
C47_2 C 0.7270(3) 0.65951(19) 0.5937(2)
C48_2 C 0.7121(4) 0.6364(2) 0.6354(2)
H35_2 H 0.7347 0.6452 0.6652
C49_2 C 0.6640(4) 0.6004(3) 0.6329(3)
H36_2 H 0.6537 0.5848 0.6615
C50_2 C 0.7835(3) 0.69596(18) 0.59596(19)
C51_2 C 0.3235(3) 0.17308(19) 0.60352(19)
C52_2 C 0.2894(3) 0.1252(2) 0.6036(2)
C53_2 C 0.2906(4) 0.0949(2) 0.5654(2)
H37_2 H 0.3132 0.1049 0.5384
C54_2 C 0.2603(4) 0.0507(2) 0.5646(3)
H38_2 H 0.2626 0.0304 0.5377
C55_2 C 0.2273(4) 0.0367(2) 0.6023(3)
C56_2 C 0.2254(4) 0.0657(3) 0.6425(3)
H39_2 H 0.2031 0.0553 0.6695
C57_2 C 0.2570(4) 0.1107(2) 0.6426(3)
H40_2 H 0.2558 0.1311 0.6696
C66_2 C 0.4943(3) 0.1967(2) 0.6195(2)
C67_2 C 0.5429(3) 0.1552(2) 0.6237(2)
C68_2 C 0.5508(5) 0.1300(3) 0.6663(3)
H45_2 H 0.5274 0.1409 0.6926
C69_2 C 0.5892(6) 0.0915(4) 0.6722(4)
H46_2 H 0.5940 0.0757 0.7021
C70_2 C 0.6218(5) 0.0751(3) 0.6346(5)
C71_2 C 0.6155(4) 0.0982(3) 0.5904(4)
H47_2 H 0.6378 0.0863 0.5641
C72_2 C 0.5759(4) 0.1389(3) 0.5858(3)
H48_2 H 0.5715 0.1556 0.5563
C73_2 C 0.6681(7) 0.0290(4) 0.6450(4)
Zn8 Zn 0.89337(3) 0.74742(2) 0.65309(2)
O9_2 O 0.8380(3) 0.80701(15) 0.63720(14)
O10_2 O 0.8269(2) 0.81133(13) 0.55810(13)
O19_2 O 0.1910(5) 0.9765(4) 0.6812(4)
N3_2 N 0.8903(2) 0.74823(16) 0.72482(14)
N7_2 N 0.1912(4) 0.9910(3) 0.6008(3)
H3_2 H 0.1826 0.9798 0.5717
C11_2 C 0.8636(4) 0.7122(3) 0.7481(2)
H13_2 H 0.8448 0.6861 0.7300
C12_2 C 0.8621(4) 0.7111(3) 0.7969(2)
H14_2 H 0.8427 0.6846 0.8119
C13_2 C 0.8891(3) 0.7490(2) 0.82412(17)
C14_2 C 0.9137(5) 0.7859(3) 0.8003(3)
H15_2 H 0.9323 0.8127 0.8173
C15_2 C 0.9120(5) 0.7850(3) 0.7506(2)
H16_2 H 0.9272 0.8123 0.7346
C16_2 C 0.8355(3) 0.7282(2) 0.94856(18)
H17_2 H 0.7983 0.7146 0.9633
C17_2 C 0.8359(3) 0.7274(2) 0.89904(18)
H18_2 H 0.7998 0.7125 0.8802
C18_2 C 0.8890(3) 0.7485(2) 0.87719(17)
C19_2 C 0.9396(3) 0.7704(3) 0.9062(2)
H19_2 H 0.9758 0.7864 0.8926
C20_2 C 0.9370(3) 0.7689(3) 0.9546(2)
H20_2 H 0.9728 0.7835 0.9740
C58_2 C 0.1711(7) 0.9659(4) 0.6312(5)
C59_2 C 0.1308(6) 0.9226(4) 0.6227(4)
C60_2 C 0.1015(6) 0.9126(4) 0.5785(5)
H41_2 H 0.1109 0.9317 0.5519
C61_2 C 0.0553(5) 0.8720(3) 0.5725(3)
H42_2 H 0.0336 0.8649 0.5420
C62_2 C 0.0435(4) 0.8444(2) 0.6109(3)
C63_2 C 0.0785(6) 0.8556(4) 0.6538(4)
H43_2 H 0.0736 0.8359 0.6808
C64_2 C 0.1202(6) 0.8948(5) 0.6583(5)
H44_2 H 0.1423 0.9018 0.6888
C74_2 C 0.7110(4) 0.9584(3) 0.6101(3)
C75_2 C 0.7315(4) 0.9325(3) 0.6514(3)
H49_2 H 0.7220 0.9442 0.6820
C76_2 C 0.7656(4) 0.8898(2) 0.6474(3)
H50_2 H 0.7794 0.8722 0.6753
C77_2 C 0.7797(3) 0.8724(2) 0.6033(2)
C78_2 C 0.7592(4) 0.8984(2) 0.5629(3)
H51_2 H 0.7695 0.8873 0.5324
C79_2 C 0.7231(4) 0.9413(3) 0.5671(3)
H52_2 H 0.7073 0.9583 0.5391
C80_2 C 0.8179(3) 0.82686(18) 0.5988(2)
O23_2 O 0.9472(3) 0.68811(16) 0.64193(15)
O24_2 O 0.9417(2) 0.69214(15) 0.56318(14)
O25_2 O 0.9768(3) 0.78753(18) 0.64552(15)
O26_2 O 0.9674(2) 0.79358(15) 0.56689(14)
C31_2 C 0.9964(4) 0.6004(3) 0.5604(3)
H26_2 H 0.9810 0.6144 0.5308
C32_2 C 0.9912(3) 0.6240(2) 0.6009(3)
C35_2 C 0.9574(3) 0.6717(2) 0.6022(2)
C65_2 C 0.9922(3) 0.8053(2) 0.6074(2)
O15 O 0.0232(3) 0.21247(18) 0.35448(15)
O16 O 0.0326(2) 0.20642(15) 0.43311(14)
C65_3 C 0.0078(3) 0.1947(2) 0.3926(2)
Zn7 Zn 0.10663(3) 0.25258(2) 0.34691(2)
Zn10 Zn 0.11523(3) 0.24817(2) 0.45166(2)
O13 O 0.0528(3) 0.31189(16) 0.35807(15)
O14 O 0.0583(2) 0.30786(15) 0.43682(14)
C31_3 C 0.0036(4) 0.3996(3) 0.4396(3)
H26_3 H 0.0190 0.3856 0.4692
C32_3 C 0.0088(3) 0.3760(2) 0.3991(3)
C35_3 C 0.0426(3) 0.3283(2) 0.3978(2)
O9_3 O 0.1620(3) 0.19299(15) 0.36280(14)
O10_3 O 0.1731(2) 0.18867(13) 0.44190(13)
O19_3 O 0.8090(5) 0.0235(4) 0.3188(4)
N3_3 N 0.1097(2) 0.25177(16) 0.27518(14)
N4_2 N 0.1132(2) 0.25200(15) 0.02414(14)
N7_3 N 0.8088(4) 0.0090(3) 0.3992(3)
H3_3 H 0.8174 0.0202 0.4283
C11_3 C 0.1364(4) 0.2878(3) 0.2519(2)
H13_3 H 0.1552 0.3139 0.2700
C12_3 C 0.1379(4) 0.2889(3) 0.2031(2)
H14_3 H 0.1573 0.3154 0.1881
C13_3 C 0.1109(3) 0.2510(2) 0.17588(17)
C14_3 C 0.0863(5) 0.2141(3) 0.1997(3)
H15_3 H 0.0677 0.1873 0.1827
C15_3 C 0.0880(5) 0.2150(3) 0.2494(2)
H16_3 H 0.0728 0.1877 0.2654
C16_3 C 0.1645(3) 0.2718(2) 0.05144(18)
H17_3 H 0.2017 0.2854 0.0367
C17_3 C 0.1641(3) 0.2726(2) 0.10096(18)
H18_3 H 0.2002 0.2875 0.1198
C18_3 C 0.1110(3) 0.2515(2) 0.12281(17)
C19_3 C 0.0604(3) 0.2296(3) 0.0938(2)
H19_3 H 0.0242 0.2136 0.1074
C20_3 C 0.0630(3) 0.2311(3) 0.0454(2)
H20_3 H 0.0272 0.2165 0.0260
C58_3 C 0.8289(7) 0.0341(4) 0.3688(5)
C59_3 C 0.8692(6) 0.0774(4) 0.3773(4)
C60_3 C 0.8985(6) 0.0874(4) 0.4215(5)
H41_3 H 0.8891 0.0683 0.4481
C61_3 C 0.9447(5) 0.1280(3) 0.4275(3)
H42_3 H 0.9664 0.1351 0.4580
C62_3 C 0.9565(4) 0.1556(2) 0.3891(3)
C63_3 C 0.9215(6) 0.1444(4) 0.3462(4)
H43_3 H 0.9264 0.1641 0.3192
C64_3 C 0.8798(6) 0.1052(5) 0.3417(5)
H44_3 H 0.8577 0.0982 0.3112
C74_3 C 0.2890(4) 0.0416(3) 0.3899(3)
C75_3 C 0.2685(4) 0.0675(3) 0.3486(3)
H49_3 H 0.2780 0.0558 0.3180
C76_3 C 0.2344(4) 0.1102(2) 0.3526(3)
H50_3 H 0.2206 0.1278 0.3247
C77_3 C 0.2203(3) 0.1276(2) 0.3967(2)
C78_3 C 0.2408(4) 0.1016(2) 0.4371(3)
H51_3 H 0.2305 0.1127 0.4676
C79_3 C 0.2769(4) 0.0587(3) 0.4329(3)
H52_3 H 0.2927 0.0417 0.4609
C80_3 C 0.1821(3) 0.17314(18) 0.4012(2)
O21_2 O 0.1916(2) 0.29150(15) 0.36376(14)
O22_2 O 0.1984(2) 0.28902(13) 0.44298(13)
N10_2 N 0.1132(2) 0.24800(15) 0.52414(14)
Zn12_2 Zn 0.11523(3) 0.25183(2) 0.95166(2)
Zn1_3 Zn 0.60996(3) 0.74642(2) 0.33869(2)
Zn2_2 Zn 0.60811(3) 0.74935(2) 0.44292(2)
O1_3 O 0.6932(2) 0.70520(15) 0.35344(13)
O2_3 O 0.6950(2) 0.71146(13) 0.43262(13)
O3_3 O 0.5525(2) 0.68796(14) 0.35066(14)
O4_3 O 0.5568(2) 0.68774(14) 0.43050(13)
O5_3 O 0.6687(2) 0.80476(13) 0.35701(13)
O6_3 O 0.6593(2) 0.81164(13) 0.43519(13)
O7_3 O 0.5293(2) 0.78936(16) 0.34313(14)
O8_3 O 0.5218(2) 0.78684(15) 0.42127(14)
O17_3 O 0.9634(5) 0.5466(3) 0.4502(3)
O18_3 O 0.4707(4) 0.4494(3) 0.4529(3)
O20_3 O 0.3068(3) 0.9791(2) 0.3141(2)
N1_3 N 0.6104(2) 0.74709(14) 0.26638(14)
N2_2 N 0.6077(2) 0.74925(15) 0.01516(14)
N5_3 N 0.9054(5) 0.5119(4) 0.3918(4)
H1_3 H 0.8718 0.5132 0.3693
N6_3 N 0.4158(5) 0.4835(3) 0.3866(3)
H2_3 H 0.3895 0.4782 0.3604
N8_3 N 0.3277(4) 0.9963(3) 0.3913(3)
H4_3 H 0.3484 0.9869 0.4185
C1_3 C 0.6682(3) 0.7476(2) 0.24428(19)
H5_3 H 0.7102 0.7470 0.2633
C2_3 C 0.6699(3) 0.7488(2) 0.19511(19)
H6_3 H 0.7120 0.7495 0.1808
C3_3 C 0.6092(3) 0.7491(2) 0.16731(17)
C4_3 C 0.5489(3) 0.7484(3) 0.1897(2)
H7_3 H 0.5062 0.7484 0.1714
C5_3 C 0.5519(3) 0.7476(2) 0.23890(19)
H8_3 H 0.5104 0.7473 0.2540
C6_3 C 0.6561(3) 0.7271(2) 0.04213(18)
H9_3 H 0.6910 0.7112 0.0268
C7_3 C 0.6582(3) 0.7259(2) 0.09090(18)
H10_3 H 0.6937 0.7095 0.1087
C8_3 C 0.6080(3) 0.7490(2) 0.11408(17)
C9_3 C 0.5577(3) 0.7727(3) 0.08636(19)
H11_3 H 0.5225 0.7891 0.1007
C10_3 C 0.5599(3) 0.7718(3) 0.0378(2)
H12_3 H 0.5254 0.7883 0.0190
C21_3 C 0.7156(3) 0.69444(19) 0.39474(19)
C22_3 C 0.7696(3) 0.6576(2) 0.3992(2)
C23_3 C 0.7870(4) 0.6330(2) 0.3589(2)
H21_3 H 0.7664 0.6414 0.3284
C24_3 C 0.8335(4) 0.5967(3) 0.3627(3)
H22_3 H 0.8441 0.5797 0.3350
C25_3 C 0.8659(4) 0.5844(3) 0.4079(3)
C26_3 C 0.8516(4) 0.6104(3) 0.4477(3)
H23_3 H 0.8743 0.6035 0.4779
C27_3 C 0.9135(6) 0.5448(4) 0.4156(4)
C28_3 C 0.9480(6) 0.4645(3) 0.3951(5)
C29_3 C 0.8034(3) 0.6468(2) 0.4430(2)
H24_3 H 0.7936 0.6646 0.4704
C30_3 C 0.9742(5) 0.4470(4) 0.4381(4)
H25_3 H 0.9731 0.4655 0.4664
C33_3 C 0.9844(6) 0.3966(3) 0.3572(4)
H27_3 H 0.9923 0.3806 0.3283
C34_3 C 0.9501(9) 0.4378(5) 0.3542(5)
H28_3 H 0.9280 0.4482 0.3247
C36_3 C 0.5424(3) 0.6689(2) 0.3904(2)
C37_3 C 0.5109(4) 0.6203(2) 0.3894(2)
C38_3 C 0.5034(4) 0.5962(3) 0.4314(3)
H29_3 H 0.5172 0.6110 0.4610
C39_3 C 0.4757(4) 0.5504(3) 0.4311(3)
H30_3 H 0.4728 0.5334 0.4602
C40_3 C 0.4528(5) 0.5302(3) 0.3884(4)
C41_3 C 0.4609(6) 0.5542(3) 0.3457(4)
H31_3 H 0.4464 0.5398 0.3161
C42_3 C 0.4897(6) 0.5985(3) 0.3468(3)
H32_3 H 0.4952 0.6146 0.3176
C43_3 C 0.4169(6) 0.4520(3) 0.4160(4)
C44_3 C 0.3693(4) 0.4134(3) 0.4095(3)
C45_3 C 0.3570(4) 0.3881(3) 0.4509(3)
H33_3 H 0.3818 0.3954 0.4803
C46_3 C 0.3089(3) 0.3524(2) 0.4490(2)
H34_3 H 0.3002 0.3358 0.4773
C47_3 C 0.2730(3) 0.34049(19) 0.4063(2)
C48_3 C 0.2879(4) 0.3636(2) 0.3646(2)
H35_3 H 0.2653 0.3548 0.3348
C49_3 C 0.3360(4) 0.3996(3) 0.3671(3)
H36_3 H 0.3463 0.4152 0.3385
C50_3 C 0.2165(3) 0.30404(18) 0.40404(19)
C51_3 C 0.6765(3) 0.82692(19) 0.39648(19)
C52_3 C 0.7106(3) 0.8748(2) 0.3964(2)
C53_3 C 0.7094(4) 0.9051(2) 0.4346(2)
H37_3 H 0.6868 0.8951 0.4616
C54_3 C 0.7397(4) 0.9493(2) 0.4354(3)
H38_3 H 0.7374 0.9696 0.4623
C55_3 C 0.7727(4) 0.9633(2) 0.3977(3)
C56_3 C 0.7746(4) 0.9343(3) 0.3575(3)
H39_3 H 0.7969 0.9447 0.3305
C57_3 C 0.7430(4) 0.8893(2) 0.3574(3)
H40_3 H 0.7442 0.8689 0.3304
C66_3 C 0.5057(3) 0.8033(2) 0.3805(2)
C67_3 C 0.4571(3) 0.8448(2) 0.3763(2)
C68_3 C 0.4492(5) 0.8700(3) 0.3337(3)
H45_3 H 0.4726 0.8591 0.3074
C69_3 C 0.4108(6) 0.9085(4) 0.3278(4)
H46_3 H 0.4060 0.9243 0.2979
C70_3 C 0.3782(5) 0.9249(3) 0.3654(5)
C71_3 C 0.3845(4) 0.9018(3) 0.4096(4)
H47_3 H 0.3622 0.9137 0.4359
C72_3 C 0.4241(4) 0.8611(3) 0.4142(3)
H48_3 H 0.4285 0.8444 0.4437
C73_3 C 0.3319(7) 0.9710(4) 0.3550(4)
N9_2 N 0.6077(2) 0.75075(15) 0.51516(14)
Zn5_2 Zn 0.60811(3) 0.75065(2) 0.94292(2)
O13_2 O 0.0528(3) 0.18811(16) 0.85807(15)
O14_2 O 0.0583(2) 0.19214(15) 0.93682(14)
C31_4 C 0.0036(4) 0.1004(3) 0.9396(3)
H26_4 H 0.0190 0.1144 0.9692
C32_4 C 0.0088(3) 0.1240(2) 0.8991(3)
C35_4 C 0.0426(3) 0.1717(2) 0.8978(2)
Zn6 Zn 0.10663(3) 0.24742(2) 0.84691(2)
O15_2 O 0.0232(3) 0.28753(18) 0.85448(15)
O16_2 O 0.0326(2) 0.29358(15) 0.93311(14)
C65_4 C 0.0078(3) 0.3053(2) 0.8926(2)
O11_2 O 0.1916(2) 0.20850(15) 0.86376(14)
O12_2 O 0.1984(2) 0.21098(13) 0.94298(13)
O18_4 O 0.4707(4) 0.0506(3) 0.9529(3)
N6_4 N 0.4158(5) 0.0165(3) 0.8866(3)
H2_4 H 0.3895 0.0218 0.8604
C28_4 C 0.9480(6) 0.0355(3) 0.8951(5)
C30_4 C 0.9742(5) 0.0530(4) 0.9381(4)
H25_4 H 0.9731 0.0345 0.9664
C33_4 C 0.9844(6) 0.1034(3) 0.8572(4)
H27_4 H 0.9923 0.1194 0.8283
C34_4 C 0.9501(9) 0.0622(5) 0.8542(5)
H28_4 H 0.9280 0.0518 0.8247
C43_4 C 0.4169(6) 0.0480(3) 0.9160(4)
C44_4 C 0.3693(4) 0.0866(3) 0.9095(3)
C45_4 C 0.3570(4) 0.1119(3) 0.9509(3)
H33_4 H 0.3818 0.1046 0.9803
C46_4 C 0.3089(3) 0.1476(2) 0.9490(2)
H34_4 H 0.3002 0.1642 0.9773
C47_4 C 0.2730(3) 0.15951(19) 0.9063(2)
C48_4 C 0.2879(4) 0.1364(2) 0.8646(2)
H35_4 H 0.2653 0.1452 0.8348
C49_4 C 0.3360(4) 0.1004(3) 0.8671(3)
H36_4 H 0.3463 0.0848 0.8385
C50_4 C 0.2165(3) 0.19596(18) 0.90404(19)
Zn1_4 Zn 0.60996(3) 0.75358(2) 0.83869(2)
O1_4 O 0.6932(2) 0.79480(15) 0.85344(13)
O2_4 O 0.6950(2) 0.78854(13) 0.93262(13)
O3_4 O 0.5525(2) 0.81204(14) 0.85066(14)
O4_4 O 0.5568(2) 0.81226(14) 0.93050(13)
O5_4 O 0.6687(2) 0.69524(13) 0.85701(13)
O6_4 O 0.6593(2) 0.68836(13) 0.93519(13)
O7_4 O 0.5293(2) 0.71064(16) 0.84313(14)
O8_4 O 0.5218(2) 0.71316(15) 0.92127(14)
O9_4 O 0.1620(3) 0.30701(15) 0.86280(14)
O10_4 O 0.1731(2) 0.31133(13) 0.94190(13)
O17_4 O 0.9634(5) 0.9534(3) 0.9502(3)
O19_4 O 0.8090(5) 0.4765(4) 0.8188(4)
O20_4 O 0.3068(3) 0.5209(2) 0.8141(2)
N1_4 N 0.6104(2) 0.75291(14) 0.76638(14)
N3_4 N 0.1097(2) 0.24823(16) 0.77518(14)
N5_4 N 0.9054(5) 0.9881(4) 0.8918(4)
H1_4 H 0.8718 0.9868 0.8693
N7_4 N 0.8088(4) 0.4910(3) 0.8992(3)
H3_4 H 0.8174 0.4798 0.9283
N8_4 N 0.3277(4) 0.5037(3) 0.8913(3)
H4_4 H 0.3484 0.5131 0.9185
C1_4 C 0.6682(3) 0.7524(2) 0.74428(19)
H5_4 H 0.7102 0.7530 0.7633
C2_4 C 0.6699(3) 0.7512(2) 0.69511(19)
H6_4 H 0.7120 0.7505 0.6808
C3_4 C 0.6092(3) 0.7509(2) 0.66731(17)
C4_4 C 0.5489(3) 0.7516(3) 0.6897(2)
H7_4 H 0.5062 0.7516 0.6714
C5_4 C 0.5519(3) 0.7524(2) 0.73890(19)
H8_4 H 0.5104 0.7527 0.7540
C6_4 C 0.6561(3) 0.7729(2) 0.54213(18)
H9_4 H 0.6910 0.7888 0.5268
C7_4 C 0.6582(3) 0.7741(2) 0.59090(18)
H10_4 H 0.6937 0.7905 0.6087
C8_4 C 0.6080(3) 0.7510(2) 0.61408(17)
C9_4 C 0.5577(3) 0.7273(3) 0.58636(19)
H11_4 H 0.5225 0.7109 0.6007
C10_4 C 0.5599(3) 0.7282(3) 0.5378(2)
H12_4 H 0.5254 0.7117 0.5190
C11_4 C 0.1364(4) 0.2122(3) 0.7519(2)
H13_4 H 0.1552 0.1861 0.7700
C12_4 C 0.1379(4) 0.2111(3) 0.7031(2)
H14_4 H 0.1573 0.1846 0.6881
C13_4 C 0.1109(3) 0.2490(2) 0.67588(17)
C14_4 C 0.0863(5) 0.2859(3) 0.6997(3)
H15_4 H 0.0677 0.3127 0.6827
C15_4 C 0.0880(5) 0.2850(3) 0.7494(2)
H16_4 H 0.0728 0.3123 0.7654
C16_4 C 0.1645(3) 0.2282(2) 0.55144(18)
H17_4 H 0.2017 0.2146 0.5367
C17_4 C 0.1641(3) 0.2274(2) 0.60096(18)
H18_4 H 0.2002 0.2125 0.6198
C18_4 C 0.1110(3) 0.2485(2) 0.62281(17)
C19_4 C 0.0604(3) 0.2704(3) 0.5938(2)
H19_4 H 0.0242 0.2864 0.6074
C20_4 C 0.0630(3) 0.2689(3) 0.5454(2)
H20_4 H 0.0272 0.2835 0.5260
C21_4 C 0.7156(3) 0.80556(19) 0.89474(19)
C22_4 C 0.7696(3) 0.8424(2) 0.8992(2)
C23_4 C 0.7870(4) 0.8670(2) 0.8589(2)
H21_4 H 0.7664 0.8586 0.8284
C24_4 C 0.8335(4) 0.9033(3) 0.8627(3)
H22_4 H 0.8441 0.9203 0.8350
C25_4 C 0.8659(4) 0.9156(3) 0.9079(3)
C26_4 C 0.8516(4) 0.8896(3) 0.9477(3)
H23_4 H 0.8743 0.8965 0.9779
C27_4 C 0.9135(6) 0.9552(4) 0.9156(4)
C29_4 C 0.8034(3) 0.8532(2) 0.9430(2)
H24_4 H 0.7936 0.8354 0.9704
C36_4 C 0.5424(3) 0.8311(2) 0.8904(2)
C37_4 C 0.5109(4) 0.8797(2) 0.8894(2)
C38_4 C 0.5034(4) 0.9038(3) 0.9314(3)
H29_4 H 0.5172 0.8890 0.9610
C39_4 C 0.4757(4) 0.9496(3) 0.9311(3)
H30_4 H 0.4728 0.9666 0.9602
C40_4 C 0.4528(5) 0.9698(3) 0.8884(4)
C41_4 C 0.4609(6) 0.9458(3) 0.8457(4)
H31_4 H 0.4464 0.9602 0.8161
C42_4 C 0.4897(6) 0.9015(3) 0.8468(3)
H32_4 H 0.4952 0.8854 0.8176
C51_4 C 0.6765(3) 0.67308(19) 0.89648(19)
C52_4 C 0.7106(3) 0.6252(2) 0.8964(2)
C53_4 C 0.7094(4) 0.5949(2) 0.9346(2)
H37_4 H 0.6868 0.6049 0.9616
C54_4 C 0.7397(4) 0.5507(2) 0.9354(3)
H38_4 H 0.7374 0.5304 0.9623
C55_4 C 0.7727(4) 0.5367(2) 0.8977(3)
C56_4 C 0.7746(4) 0.5657(3) 0.8575(3)
H39_4 H 0.7969 0.5553 0.8305
C57_4 C 0.7430(4) 0.6107(2) 0.8574(3)
H40_4 H 0.7442 0.6311 0.8304
C58_4 C 0.8289(7) 0.4659(4) 0.8688(5)
C59_4 C 0.8692(6) 0.4226(4) 0.8773(4)
C60_4 C 0.8985(6) 0.4126(4) 0.9215(5)
H41_4 H 0.8891 0.4317 0.9481
C61_4 C 0.9447(5) 0.3720(3) 0.9275(3)
H42_4 H 0.9664 0.3649 0.9580
C62_4 C 0.9565(4) 0.3444(2) 0.8891(3)
C63_4 C 0.9215(6) 0.3556(4) 0.8462(4)
H43_4 H 0.9264 0.3359 0.8192
C64_4 C 0.8798(6) 0.3948(5) 0.8417(5)
H44_4 H 0.8577 0.4018 0.8112
C66_4 C 0.5057(3) 0.6967(2) 0.8805(2)
C67_4 C 0.4571(3) 0.6552(2) 0.8763(2)
C68_4 C 0.4492(5) 0.6300(3) 0.8337(3)
H45_4 H 0.4726 0.6409 0.8074
C69_4 C 0.4108(6) 0.5915(4) 0.8278(4)
H46_4 H 0.4060 0.5757 0.7979
C70_4 C 0.3782(5) 0.5751(3) 0.8654(5)
C71_4 C 0.3845(4) 0.5982(3) 0.9096(4)
H47_4 H 0.3622 0.5863 0.9359
C72_4 C 0.4241(4) 0.6389(3) 0.9142(3)
H48_4 H 0.4285 0.6556 0.9437
C73_4 C 0.3319(7) 0.5290(4) 0.8550(4)
C74_4 C 0.2890(4) 0.4584(3) 0.8899(3)
C75_4 C 0.2685(4) 0.4325(3) 0.8486(3)
H49_4 H 0.2780 0.4442 0.8180
C76_4 C 0.2344(4) 0.3898(2) 0.8526(3)
H50_4 H 0.2206 0.3722 0.8247
C77_4 C 0.2203(3) 0.3724(2) 0.8967(2)
C78_4 C 0.2408(4) 0.3984(2) 0.9371(3)
H51_4 H 0.2305 0.3873 0.9676
C79_4 C 0.2769(4) 0.4413(3) 0.9329(3)
H52_4 H 0.2927 0.4583 0.9609
C80_4 C 0.1821(3) 0.32686(18) 0.9012(2)
loop_
_geom_bond_atom_site_label_1
_geom_bond_atom_site_label_2
_geom_bond_site_symmetry_1
_geom_bond_site_symmetry_2
Zn1 O1 1_555 1_555
Zn2 O2 1_555 1_555
Zn3 O9 1_555 1_555
Zn4 O10 1_555 1_555
O1 C21 1_555 1_555
O2 C21 1_555 1_555
O3 Zn1 1_555 1_555
O4 Zn2 1_555 1_555
O5 Zn1 1_555 1_555
O6 Zn2 1_555 1_555
O7 Zn1 1_555 1_555
O8 Zn2 1_555 1_555
O9 C80 1_555 1_555
O10 C80 1_555 1_555
O17 C27 1_555 1_555
O19 C58 1_555 1_555
O20 C73 1_555 1_555
N1 Zn1 1_555 1_555
N2 C6 1_555 1_555
N3 Zn3 1_555 1_555
N4 C16 1_555 1_555
N5 H1 1_555 1_555
N7 H3 1_555 1_555
N8 H4 1_555 1_555
C1 N1 1_555 1_555
H5 C1 1_555 1_555
C2 C1 1_555 1_555
H6 C2 1_555 1_555
C3 C2 1_555 1_555
C4 C3 1_555 1_555
H7 C4 1_555 1_555
C5 N1 1_555 1_555
H8 C5 1_555 1_555
C6 H9 1_555 1_555
C7 C6 1_555 1_555
H10 C7 1_555 1_555
C8 C3 1_555 1_555
C9 C8 1_555 1_555
H11 C9 1_555 1_555
C10 N2 1_555 1_555
H12 C10 1_555 1_555
C11 N3 1_555 1_555
H13 C11 1_555 1_555
C12 C11 1_555 1_555
H14 C12 1_555 1_555
C13 C12 1_555 1_555
C14 C13 1_555 1_555
H15 C14 1_555 1_555
C15 N3 1_555 1_555
H16 C15 1_555 1_555
C16 H17 1_555 1_555
C17 C16 1_555 1_555
H18 C17 1_555 1_555
C18 C13 1_555 1_555
C19 C18 1_555 1_555
H19 C19 1_555 1_555
C20 N4 1_555 1_555
H20 C20 1_555 1_555
C21 C22 1_555 1_555
C22 C23 1_555 1_555
C23 H21 1_555 1_555
C24 C23 1_555 1_555
H22 C24 1_555 1_555
C25 C24 1_555 1_555
C26 C25 1_555 1_555
H23 C26 1_555 1_555
C27 N5 1_555 1_555
C29 C22 1_555 1_555
H24 C29 1_555 1_555
C36 O3 1_555 1_555
C37 C36 1_555 1_555
C38 C37 1_555 1_555
H29 C38 1_555 1_555
C39 C38 1_555 1_555
H30 C39 1_555 1_555
C41 C40 1_555 1_555
H31 C41 1_555 1_555
C42 C37 1_555 1_555
H32 C42 1_555 1_555
C51 O5 1_555 1_555
C52 C51 1_555 1_555
C53 C52 1_555 1_555
H37 C53 1_555 1_555
C54 C53 1_555 1_555
H38 C54 1_555 1_555
C55 N7 1_555 1_555
C56 C55 1_555 1_555
H39 C56 1_555 1_555
C57 C52 1_555 1_555
H40 C57 1_555 1_555
C58 N7 1_555 1_555
C59 C58 1_555 1_555
C60 C59 1_555 1_555
H41 C60 1_555 1_555
C61 C60 1_555 1_555
H42 C61 1_555 1_555
C62 C61 1_555 1_555
C63 C62 1_555 1_555
H43 C63 1_555 1_555
C64 C59 1_555 1_555
H44 C64 1_555 1_555
C66 O7 1_555 1_555
C67 C66 1_555 1_555
C68 C67 1_555 1_555
H45 C68 1_555 1_555
C69 C68 1_555 1_555
H46 C69 1_555 1_555
C70 C69 1_555 1_555
C71 C70 1_555 1_555
H47 C71 1_555 1_555
C72 C67 1_555 1_555
H48 C72 1_555 1_555
C73 N8 1_555 1_555
C74 N8 1_555 1_555
C75 C74 1_555 1_555
H49 C75 1_555 1_555
C76 C75 1_555 1_555
H50 C76 1_555 1_555
C77 C76 1_555 1_555
C78 C77 1_555 1_555
H51 C78 1_555 1_555
C79 C74 1_555 1_555
H52 C79 1_555 1_555
C80 C77 1_555 1_555
Zn5 N2 1_555 1_555
Zn12 N4 1_555 1_555
O21 Zn3 1_555 1_555
O22 Zn4 1_555 1_555
O23 Zn3 1_555 1_555
O24 Zn4 1_555 1_555
O25 Zn3 1_555 1_555
O26 Zn4 1_555 1_555
O4 C36 1_555 1_555
O6 C51 1_555 1_555
O8 C66 1_555 1_555
C4 C5 1_555 1_555
C7 C8 1_555 1_555
C9 C10 1_555 1_555
C14 C15 1_555 1_555
C17 C18 1_555 1_555
C19 C20 1_555 1_555
C25 C27 1_555 1_555
C26 C29 1_555 1_555
C39 C40 1_555 1_555
C41 C42 1_555 1_555
C54 C55 1_555 1_555
C56 C57 1_555 1_555
C63 C64 1_555 1_555
C70 C73 1_555 1_555
C71 C72 1_555 1_555
C78 C79 1_555 1_555
O21 C50 1_555 1_555
O22 C50 1_555 1_555
O18 C43 1_555 1_555
N6 H2 1_555 1_555
C30 C28 1_555 1_555
H25 C30 1_555 1_555
H27 C33 1_555 1_555
C34 C28 1_555 1_555
H28 C34 1_555 1_555
C43 N6 1_555 1_555
C44 C43 1_555 1_555
C45 C44 1_555 1_555
H33 C45 1_555 1_555
C46 C45 1_555 1_555
H34 C46 1_555 1_555
C47 C46 1_555 1_555
C48 C47 1_555 1_555
H35 C48 1_555 1_555
C49 C44 1_555 1_555
H36 C49 1_555 1_555
C50 C47 1_555 1_555
C33 C34 1_555 1_555
C48 C49 1_555 1_555
O25 C65 1_555 1_555
O26 C65 1_555 1_555
O23 C35 1_555 1_555
O24 C35 1_555 1_555
H26 C31 1_555 1_555
C32 C31 1_555 1_555
C35 C32 1_555 1_555
Zn1_2 O1_2 1_555 1_555
Zn5 O2_2 1_555 1_555
O1_2 C21_2 1_555 1_555
O2_2 C21_2 1_555 1_555
O3_2 Zn1_2 1_555 1_555
O4_2 Zn5 1_555 1_555
O5_2 Zn1_2 1_555 1_555
O6_2 Zn5 1_555 1_555
O7_2 Zn1_2 1_555 1_555
O8_2 Zn5 1_555 1_555
O11 C50_2 1_555 1_555
O12 C50_2 1_555 1_555
O17_2 C27_2 1_555 1_555
O18_2 C43_2 1_555 1_555
O20_2 C73_2 1_555 1_555
N1_2 Zn1_2 1_555 1_555
N9 C6_2 1_555 1_555
N5_2 H1_2 1_555 1_555
N6_2 H2_2 1_555 1_555
N8_2 H4_2 1_555 1_555
C1_2 N1_2 1_555 1_555
H5_2 C1_2 1_555 1_555
C2_2 C1_2 1_555 1_555
H6_2 C2_2 1_555 1_555
C3_2 C2_2 1_555 1_555
C4_2 C3_2 1_555 1_555
H7_2 C4_2 1_555 1_555
C5_2 N1_2 1_555 1_555
H8_2 C5_2 1_555 1_555
C6_2 H9_2 1_555 1_555
C7_2 C6_2 1_555 1_555
H10_2 C7_2 1_555 1_555
C8_2 C3_2 1_555 1_555
C9_2 C8_2 1_555 1_555
H11_2 C9_2 1_555 1_555
C10_2 N9 1_555 1_555
H12_2 C10_2 1_555 1_555
C21_2 C22_2 1_555 1_555
C22_2 C23_2 1_555 1_555
C23_2 H21_2 1_555 1_555
C24_2 C23_2 1_555 1_555
H22_2 C24_2 1_555 1_555
C25_2 C24_2 1_555 1_555
C26_2 C25_2 1_555 1_555
H23_2 C26_2 1_555 1_555
C27_2 N5_2 1_555 1_555
C28_2 N5_2 1_555 1_555
C29_2 C22_2 1_555 1_555
H24_2 C29_2 1_555 1_555
C30_2 C28_2 1_555 1_555
H25_2 C30_2 1_555 1_555
H27_2 C33_2 1_555 1_555
C34_2 C28_2 1_555 1_555
H28_2 C34_2 1_555 1_555
C36_2 O3_2 1_555 1_555
C37_2 C36_2 1_555 1_555
C38_2 C37_2 1_555 1_555
H29_2 C38_2 1_555 1_555
C39_2 C38_2 1_555 1_555
H30_2 C39_2 1_555 1_555
C40_2 N6_2 1_555 1_555
C41_2 C40_2 1_555 1_555
H31_2 C41_2 1_555 1_555
C42_2 C37_2 1_555 1_555
H32_2 C42_2 1_555 1_555
C43_2 N6_2 1_555 1_555
C44_2 C43_2 1_555 1_555
C45_2 C44_2 1_555 1_555
H33_2 C45_2 1_555 1_555
C46_2 C45_2 1_555 1_555
H34_2 C46_2 1_555 1_555
C47_2 C46_2 1_555 1_555
C48_2 C47_2 1_555 1_555
H35_2 C48_2 1_555 1_555
C49_2 C44_2 1_555 1_555
H36_2 C49_2 1_555 1_555
C50_2 C47_2 1_555 1_555
C51_2 O5_2 1_555 1_555
C52_2 C51_2 1_555 1_555
C53_2 C52_2 1_555 1_555
H37_2 C53_2 1_555 1_555
C54_2 C53_2 1_555 1_555
H38_2 C54_2 1_555 1_555
C56_2 C55_2 1_555 1_555
H39_2 C56_2 1_555 1_555
C57_2 C52_2 1_555 1_555
H40_2 C57_2 1_555 1_555
C66_2 O7_2 1_555 1_555
C67_2 C66_2 1_555 1_555
C68_2 C67_2 1_555 1_555
H45_2 C68_2 1_555 1_555
C69_2 C68_2 1_555 1_555
H46_2 C69_2 1_555 1_555
C70_2 C69_2 1_555 1_555
C71_2 C70_2 1_555 1_555
H47_2 C71_2 1_555 1_555
C72_2 C67_2 1_555 1_555
H48_2 C72_2 1_555 1_555
C73_2 N8_2 1_555 1_555
Zn8 O11 1_555 1_555
Zn12 O12 1_555 1_555
O4_2 C36_2 1_555 1_555
O6_2 C51_2 1_555 1_555
O8_2 C66_2 1_555 1_555
C4_2 C5_2 1_555 1_555
C7_2 C8_2 1_555 1_555
C9_2 C10_2 1_555 1_555
C25_2 C27_2 1_555 1_555
C26_2 C29_2 1_555 1_555
C33_2 C34_2 1_555 1_555
C39_2 C40_2 1_555 1_555
C41_2 C42_2 1_555 1_555
C48_2 C49_2 1_555 1_555
C54_2 C55_2 1_555 1_555
C56_2 C57_2 1_555 1_555
C70_2 C73_2 1_555 1_555
C71_2 C72_2 1_555 1_555
Zn8 O9_2 1_555 1_555
Zn12 O10_2 1_555 1_555
O9_2 C80_2 1_555 1_555
O10_2 C80_2 1_555 1_555
O19_2 C58_2 1_555 1_555
N3_2 Zn8 1_555 1_555
N10 C16_2 1_555 1_555
N7_2 H3_2 1_555 1_555
C11_2 N3_2 1_555 1_555
H13_2 C11_2 1_555 1_555
C12_2 C11_2 1_555 1_555
H14_2 C12_2 1_555 1_555
C13_2 C12_2 1_555 1_555
C14_2 C13_2 1_555 1_555
H15_2 C14_2 1_555 1_555
C15_2 N3_2 1_555 1_555
H16_2 C15_2 1_555 1_555
C16_2 H17_2 1_555 1_555
C17_2 C16_2 1_555 1_555
H18_2 C17_2 1_555 1_555
C18_2 C13_2 1_555 1_555
C19_2 C18_2 1_555 1_555
H19_2 C19_2 1_555 1_555
C20_2 N10 1_555 1_555
H20_2 C20_2 1_555 1_555
C58_2 N7_2 1_555 1_555
C59_2 C58_2 1_555 1_555
C60_2 C59_2 1_555 1_555
H41_2 C60_2 1_555 1_555
C61_2 C60_2 1_555 1_555
H42_2 C61_2 1_555 1_555
C62_2 C61_2 1_555 1_555
C63_2 C62_2 1_555 1_555
H43_2 C63_2 1_555 1_555
C64_2 C59_2 1_555 1_555
H44_2 C64_2 1_555 1_555
C75_2 C74_2 1_555 1_555
H49_2 C75_2 1_555 1_555
C76_2 C75_2 1_555 1_555
H50_2 C76_2 1_555 1_555
C77_2 C76_2 1_555 1_555
C78_2 C77_2 1_555 1_555
H51_2 C78_2 1_555 1_555
C79_2 C74_2 1_555 1_555
H52_2 C79_2 1_555 1_555
C80_2 C77_2 1_555 1_555
O23_2 Zn8 1_555 1_555
O24_2 Zn12 1_555 1_555
O25_2 Zn8 1_555 1_555
O26_2 Zn12 1_555 1_555
C14_2 C15_2 1_555 1_555
C17_2 C18_2 1_555 1_555
C19_2 C20_2 1_555 1_555
C63_2 C64_2 1_555 1_555
C78_2 C79_2 1_555 1_555
O23_2 C35_2 1_555 1_555
O24_2 C35_2 1_555 1_555
H26_2 C31_2 1_555 1_555
C32_2 C31_2 1_555 1_555
C35_2 C32_2 1_555 1_555
O25_2 C65_2 1_555 1_555
O26_2 C65_2 1_555 1_555
O15 C65_3 1_555 1_555
O16 C65_3 1_555 1_555
Zn7 O15 1_555 1_555
Zn10 O16 1_555 1_555
O13 C35_3 1_555 1_555
O14 C35_3 1_555 1_555
H26_3 C31_3 1_555 1_555
C32_3 C31_3 1_555 1_555
C35_3 C32_3 1_555 1_555
Zn7 O13 1_555 1_555
Zn10 O14 1_555 1_555
Zn7 O9_3 1_555 1_555
Zn10 O10_3 1_555 1_555
O9_3 C80_3 1_555 1_555
O10_3 C80_3 1_555 1_555
O19_3 C58_3 1_555 1_555
N3_3 Zn7 1_555 1_555
N4_2 C16_3 1_555 1_555
N7_3 H3_3 1_555 1_555
C11_3 N3_3 1_555 1_555
H13_3 C11_3 1_555 1_555
C12_3 C11_3 1_555 1_555
H14_3 C12_3 1_555 1_555
C13_3 C12_3 1_555 1_555
C14_3 C13_3 1_555 1_555
H15_3 C14_3 1_555 1_555
C15_3 N3_3 1_555 1_555
H16_3 C15_3 1_555 1_555
C16_3 H17_3 1_555 1_555
C17_3 C16_3 1_555 1_555
H18_3 C17_3 1_555 1_555
C18_3 C13_3 1_555 1_555
C19_3 C18_3 1_555 1_555
H19_3 C19_3 1_555 1_555
C20_3 N4_2 1_555 1_555
H20_3 C20_3 1_555 1_555
C58_3 N7_3 1_555 1_555
C59_3 C58_3 1_555 1_555
C60_3 C59_3 1_555 1_555
H41_3 C60_3 1_555 1_555
C61_3 C60_3 1_555 1_555
H42_3 C61_3 1_555 1_555
C62_3 C61_3 1_555 1_555
C63_3 C62_3 1_555 1_555
H43_3 C63_3 1_555 1_555
C64_3 C59_3 1_555 1_555
H44_3 C64_3 1_555 1_555
C75_3 C74_3 1_555 1_555
H49_3 C75_3 1_555 1_555
C76_3 C75_3 1_555 1_555
H50_3 C76_3 1_555 1_555
C77_3 C76_3 1_555 1_555
C78_3 C77_3 1_555 1_555
H51_3 C78_3 1_555 1_555
C79_3 C74_3 1_555 1_555
H52_3 C79_3 1_555 1_555
C80_3 C77_3 1_555 1_555
O21_2 Zn7 1_555 1_555
O22_2 Zn10 1_555 1_555
N10_2 Zn10 1_555 1_555
C14_3 C15_3 1_555 1_555
C17_3 C18_3 1_555 1_555
C19_3 C20_3 1_555 1_555
C63_3 C64_3 1_555 1_555
C78_3 C79_3 1_555 1_555
Zn1_3 O1_3 1_555 1_555
Zn2_2 O2_3 1_555 1_555
O1_3 C21_3 1_555 1_555
O2_3 C21_3 1_555 1_555
O3_3 Zn1_3 1_555 1_555
O4_3 Zn2_2 1_555 1_555
O5_3 Zn1_3 1_555 1_555
O6_3 Zn2_2 1_555 1_555
O7_3 Zn1_3 1_555 1_555
O8_3 Zn2_2 1_555 1_555
O21_2 C50_3 1_555 1_555
O22_2 C50_3 1_555 1_555
O17_3 C27_3 1_555 1_555
O18_3 C43_3 1_555 1_555
O20_3 C73_3 1_555 1_555
N1_3 Zn1_3 1_555 1_555
N2_2 C6_3 1_555 1_555
N5_3 H1_3 1_555 1_555
N6_3 H2_3 1_555 1_555
N8_3 H4_3 1_555 1_555
C1_3 N1_3 1_555 1_555
H5_3 C1_3 1_555 1_555
C2_3 C1_3 1_555 1_555
H6_3 C2_3 1_555 1_555
C3_3 C2_3 1_555 1_555
C4_3 C3_3 1_555 1_555
H7_3 C4_3 1_555 1_555
C5_3 N1_3 1_555 1_555
H8_3 C5_3 1_555 1_555
C6_3 H9_3 1_555 1_555
C7_3 C6_3 1_555 1_555
H10_3 C7_3 1_555 1_555
C8_3 C3_3 1_555 1_555
C9_3 C8_3 1_555 1_555
H11_3 C9_3 1_555 1_555
C10_3 N2_2 1_555 1_555
H12_3 C10_3 1_555 1_555
C21_3 C22_3 1_555 1_555
C22_3 C23_3 1_555 1_555
C23_3 H21_3 1_555 1_555
C24_3 C23_3 1_555 1_555
H22_3 C24_3 1_555 1_555
C25_3 C24_3 1_555 1_555
C26_3 C25_3 1_555 1_555
H23_3 C26_3 1_555 1_555
C27_3 N5_3 1_555 1_555
C28_3 N5_3 1_555 1_555
C29_3 C22_3 1_555 1_555
H24_3 C29_3 1_555 1_555
C30_3 C28_3 1_555 1_555
H25_3 C30_3 1_555 1_555
H27_3 C33_3 1_555 1_555
C34_3 C28_3 1_555 1_555
H28_3 C34_3 1_555 1_555
C36_3 O3_3 1_555 1_555
C37_3 C36_3 1_555 1_555
C38_3 C37_3 1_555 1_555
H29_3 C38_3 1_555 1_555
C39_3 C38_3 1_555 1_555
H30_3 C39_3 1_555 1_555
C40_3 N6_3 1_555 1_555
C41_3 C40_3 1_555 1_555
H31_3 C41_3 1_555 1_555
C42_3 C37_3 1_555 1_555
H32_3 C42_3 1_555 1_555
C43_3 N6_3 1_555 1_555
C44_3 C43_3 1_555 1_555
C45_3 C44_3 1_555 1_555
H33_3 C45_3 1_555 1_555
C46_3 C45_3 1_555 1_555
H34_3 C46_3 1_555 1_555
C47_3 C46_3 1_555 1_555
C48_3 C47_3 1_555 1_555
H35_3 C48_3 1_555 1_555
C49_3 C44_3 1_555 1_555
H36_3 C49_3 1_555 1_555
C50_3 C47_3 1_555 1_555
C51_3 O5_3 1_555 1_555
C52_3 C51_3 1_555 1_555
C53_3 C52_3 1_555 1_555
H37_3 C53_3 1_555 1_555
C54_3 C53_3 1_555 1_555
H38_3 C54_3 1_555 1_555
C56_3 C55_3 1_555 1_555
H39_3 C56_3 1_555 1_555
C57_3 C52_3 1_555 1_555
H40_3 C57_3 1_555 1_555
C66_3 O7_3 1_555 1_555
C67_3 C66_3 1_555 1_555
C68_3 C67_3 1_555 1_555
H45_3 C68_3 1_555 1_555
C69_3 C68_3 1_555 1_555
H46_3 C69_3 1_555 1_555
C70_3 C69_3 1_555 1_555
C71_3 C70_3 1_555 1_555
H47_3 C71_3 1_555 1_555
C72_3 C67_3 1_555 1_555
H48_3 C72_3 1_555 1_555
C73_3 N8_3 1_555 1_555
N9_2 Zn2_2 1_555 1_555
O4_3 C36_3 1_555 1_555
O6_3 C51_3 1_555 1_555
O8_3 C66_3 1_555 1_555
C4_3 C5_3 1_555 1_555
C7_3 C8_3 1_555 1_555
C9_3 C10_3 1_555 1_555
C25_3 C27_3 1_555 1_555
C26_3 C29_3 1_555 1_555
C33_3 C34_3 1_555 1_555
C39_3 C40_3 1_555 1_555
C41_3 C42_3 1_555 1_555
C48_3 C49_3 1_555 1_555
C54_3 C55_3 1_555 1_555
C56_3 C57_3 1_555 1_555
C70_3 C73_3 1_555 1_555
C71_3 C72_3 1_555 1_555
O13_2 C35_4 1_555 1_555
O14_2 C35_4 1_555 1_555
H26_4 C31_4 1_555 1_555
C32_4 C31_4 1_555 1_555
C35_4 C32_4 1_555 1_555
Zn6 O13_2 1_555 1_555
Zn12_2 O14_2 1_555 1_555
O15_2 C65_4 1_555 1_555
O16_2 C65_4 1_555 1_555
Zn6 O15_2 1_555 1_555
Zn12_2 O16_2 1_555 1_555
O11_2 C50_4 1_555 1_555
O12_2 C50_4 1_555 1_555
O18_4 C43_4 1_555 1_555
N6_4 H2_4 1_555 1_555
C30_4 C28_4 1_555 1_555
H25_4 C30_4 1_555 1_555
H27_4 C33_4 1_555 1_555
C34_4 C28_4 1_555 1_555
H28_4 C34_4 1_555 1_555
C43_4 N6_4 1_555 1_555
C44_4 C43_4 1_555 1_555
C45_4 C44_4 1_555 1_555
H33_4 C45_4 1_555 1_555
C46_4 C45_4 1_555 1_555
H34_4 C46_4 1_555 1_555
C47_4 C46_4 1_555 1_555
C48_4 C47_4 1_555 1_555
H35_4 C48_4 1_555 1_555
C49_4 C44_4 1_555 1_555
H36_4 C49_4 1_555 1_555
C50_4 C47_4 1_555 1_555
Zn6 O11_2 1_555 1_555
Zn12_2 O12_2 1_555 1_555
C33_4 C34_4 1_555 1_555
C48_4 C49_4 1_555 1_555
Zn1_4 O1_4 1_555 1_555
Zn5_2 O2_4 1_555 1_555
Zn6 O9_4 1_555 1_555
Zn12_2 O10_4 1_555 1_555
O1_4 C21_4 1_555 1_555
O2_4 C21_4 1_555 1_555
O3_4 Zn1_4 1_555 1_555
O4_4 Zn5_2 1_555 1_555
O5_4 Zn1_4 1_555 1_555
O6_4 Zn5_2 1_555 1_555
O7_4 Zn1_4 1_555 1_555
O8_4 Zn5_2 1_555 1_555
O9_4 C80_4 1_555 1_555
O10_4 C80_4 1_555 1_555
O17_4 C27_4 1_555 1_555
O19_4 C58_4 1_555 1_555
O20_4 C73_4 1_555 1_555
N1_4 Zn1_4 1_555 1_555
N9_2 C6_4 1_555 1_555
N3_4 Zn6 1_555 1_555
N10_2 C16_4 1_555 1_555
N5_4 H1_4 1_555 1_555
N7_4 H3_4 1_555 1_555
N8_4 H4_4 1_555 1_555
C1_4 N1_4 1_555 1_555
H5_4 C1_4 1_555 1_555
C2_4 C1_4 1_555 1_555
H6_4 C2_4 1_555 1_555
C3_4 C2_4 1_555 1_555
C4_4 C3_4 1_555 1_555
H7_4 C4_4 1_555 1_555
C5_4 N1_4 1_555 1_555
H8_4 C5_4 1_555 1_555
C6_4 H9_4 1_555 1_555
C7_4 C6_4 1_555 1_555
H10_4 C7_4 1_555 1_555
C8_4 C3_4 1_555 1_555
C9_4 C8_4 1_555 1_555
H11_4 C9_4 1_555 1_555
C10_4 N9_2 1_555 1_555
H12_4 C10_4 1_555 1_555
C11_4 N3_4 1_555 1_555
H13_4 C11_4 1_555 1_555
C12_4 C11_4 1_555 1_555
H14_4 C12_4 1_555 1_555
C13_4 C12_4 1_555 1_555
C14_4 C13_4 1_555 1_555
H15_4 C14_4 1_555 1_555
C15_4 N3_4 1_555 1_555
H16_4 C15_4 1_555 1_555
C16_4 H17_4 1_555 1_555
C17_4 C16_4 1_555 1_555
H18_4 C17_4 1_555 1_555
C18_4 C13_4 1_555 1_555
C19_4 C18_4 1_555 1_555
H19_4 C19_4 1_555 1_555
C20_4 N10_2 1_555 1_555
H20_4 C20_4 1_555 1_555
C21_4 C22_4 1_555 1_555
C22_4 C23_4 1_555 1_555
C23_4 H21_4 1_555 1_555
C24_4 C23_4 1_555 1_555
H22_4 C24_4 1_555 1_555
C25_4 C24_4 1_555 1_555
C26_4 C25_4 1_555 1_555
H23_4 C26_4 1_555 1_555
C27_4 N5_4 1_555 1_555
C29_4 C22_4 1_555 1_555
H24_4 C29_4 1_555 1_555
C36_4 O3_4 1_555 1_555
C37_4 C36_4 1_555 1_555
C38_4 C37_4 1_555 1_555
H29_4 C38_4 1_555 1_555
C39_4 C38_4 1_555 1_555
H30_4 C39_4 1_555 1_555
C41_4 C40_4 1_555 1_555
H31_4 C41_4 1_555 1_555
C42_4 C37_4 1_555 1_555
H32_4 C42_4 1_555 1_555
C51_4 O5_4 1_555 1_555
C52_4 C51_4 1_555 1_555
C53_4 C52_4 1_555 1_555
H37_4 C53_4 1_555 1_555
C54_4 C53_4 1_555 1_555
H38_4 C54_4 1_555 1_555
C55_4 N7_4 1_555 1_555
C56_4 C55_4 1_555 1_555
H39_4 C56_4 1_555 1_555
C57_4 C52_4 1_555 1_555
H40_4 C57_4 1_555 1_555
C58_4 N7_4 1_555 1_555
C59_4 C58_4 1_555 1_555
C60_4 C59_4 1_555 1_555
H41_4 C60_4 1_555 1_555
C61_4 C60_4 1_555 1_555
H42_4 C61_4 1_555 1_555
C62_4 C61_4 1_555 1_555
C63_4 C62_4 1_555 1_555
H43_4 C63_4 1_555 1_555
C64_4 C59_4 1_555 1_555
H44_4 C64_4 1_555 1_555
C66_4 O7_4 1_555 1_555
C67_4 C66_4 1_555 1_555
C68_4 C67_4 1_555 1_555
H45_4 C68_4 1_555 1_555
C69_4 C68_4 1_555 1_555
H46_4 C69_4 1_555 1_555
C70_4 C69_4 1_555 1_555
C71_4 C70_4 1_555 1_555
H47_4 C71_4 1_555 1_555
C72_4 C67_4 1_555 1_555
H48_4 C72_4 1_555 1_555
C73_4 N8_4 1_555 1_555
C74_4 N8_4 1_555 1_555
C75_4 C74_4 1_555 1_555
H49_4 C75_4 1_555 1_555
C76_4 C75_4 1_555 1_555
H50_4 C76_4 1_555 1_555
C77_4 C76_4 1_555 1_555
C78_4 C77_4 1_555 1_555
H51_4 C78_4 1_555 1_555
C79_4 C74_4 1_555 1_555
H52_4 C79_4 1_555 1_555
C80_4 C77_4 1_555 1_555
O4_4 C36_4 1_555 1_555
O6_4 C51_4 1_555 1_555
O8_4 C66_4 1_555 1_555
C4_4 C5_4 1_555 1_555
C7_4 C8_4 1_555 1_555
C9_4 C10_4 1_555 1_555
C14_4 C15_4 1_555 1_555
C17_4 C18_4 1_555 1_555
C19_4 C20_4 1_555 1_555
C25_4 C27_4 1_555 1_555
C26_4 C29_4 1_555 1_555
C39_4 C40_4 1_555 1_555
C41_4 C42_4 1_555 1_555
C54_4 C55_4 1_555 1_555
C56_4 C57_4 1_555 1_555
C63_4 C64_4 1_555 1_555
C70_4 C73_4 1_555 1_555
C71_4 C72_4 1_555 1_555
C78_4 C79_4 1_555 1_555

#END
