
###############################################################################
#
# This file contains modified crystal structure data generated from the
# MOF subset of the Cambridge Structural Database (CSD) v543 
# hosted by the Cambridge Crystallographic Data Centre (CCDC).
#
# This work is licensed under the Creative Commons
# Attribution-NonCommercial-ShareAlike 4.0 International License.
# To view a copy of this license, visit
# http://creativecommons.org/licenses/by-nc-sa/4.0/
# or send a letter to
# Creative Commons, PO Box 1866, Mountain View, CA 94042, USA.
#
# CIF created using the CSD Python API on 29 September 2022
# The structure has been converted into the P1 space group
# The structure has a 3D framework
# The original CSD entry SOPQUK is in the monoclinic crystal system
# The framework has been calculated to contain at least 10.0% void space
# The void calculation uses a probe of radius 1.32A, grid spacing 0.4
# H atom positions have been added when not included in the experimental data
#
###############################################################################

data_SOPQUK
_chemical_formula_moiety         '(C104 H144 Cu16 F16 Mo48 N48 O174 P4)n'
_symmetry_cell_setting           triclinic
_symmetry_space_group_name_H-M   'P 1'
_symmetry_Int_Tables_number      1
_space_group_name_Hall           'P 1'
loop_
_symmetry_equiv_pos_site_id
_symmetry_equiv_pos_as_xyz
1 x,y,z
_cell_length_a                   12.9190(12)
_cell_length_b                   24.929(2)
_cell_length_c                   22.618(2)
_cell_angle_alpha                90
_cell_angle_beta                 95.488(2)
_cell_angle_gamma                90
_cell_volume                     7250.91
loop_
_atom_site_label
_atom_site_type_symbol
_atom_site_fract_x
_atom_site_fract_y
_atom_site_fract_z
Cu3 Cu 0.03107(7) 0.44295(4) 0.49431(4)
Mo7 Mo 0.04786(7) 0.15281(3) 0.75523(4)
Mo8 Mo 0.11452(6) 0.35167(3) 0.76442(3)
Mo9 Mo 0.10524(5) 0.26203(3) 0.65151(3)
O9 O 0.1042(6) 0.4452(3) 0.3944(4)
O12 O 0.2214(5) 0.3903(3) 0.7910(3)
O13 O 0.0653(4) 0.3963(2) 0.6987(2)
O14 O 0.1792(4) 0.3075(2) 0.7088(2)
O30 O 0.2032(4) 0.2445(3) 0.6091(3)
O31 O 0.0556(4) 0.3262(2) 0.6121(2)
O38 O 0.1108(4) 0.2066(2) 0.7105(3)
O40 O 0.1277(6) 0.0981(3) 0.7483(3)
N14 N 0.1587(5) 0.4055(3) 0.5266(3)
O49 O 0.0847(4) 0.5100(2) 0.5281(2)
O58 O 0.1121(5) 0.1845(2) 0.8268(3)
O59 O 0.0077(4) 0.3778(2) 0.8093(2)
O60 O 0.1236(4) 0.2912(2) 0.8185(2)
Cu8 Cu 0.33537(7) 0.26961(4) 0.56016(4)
Mo19 Mo 0.05523(6) 0.24449(3) 0.86634(3)
H29 H 0.0465333 0.449727 0.362482
H30 H 0.153458 0.475686 0.393333
Cu1 Cu 0.52866(8) 0.05785(4) 0.50690(5)
Cu2 Cu 0.81491(9) 0.23089(4) 0.46274(6)
Mo1 Mo 0.55523(6) 0.25551(3) 0.36634(3)
Mo2 Mo 0.38821(6) 0.13410(4) 0.35348(3)
Mo3 Mo 0.83766(7) 0.16552(4) 0.83583(4)
Mo4 Mo 0.17792(8) 0.21212(5) 0.32186(4)
Mo5 Mo 0.66345(6) 0.19166(4) 0.70000(4)
Mo6 Mo 0.22587(6) 0.11498(4) 0.22880(4)
Mo10 Mo 0.95376(6) 0.37533(3) 0.64188(3)
Mo11 Mo 0.87294(7) 0.17583(4) 0.61997(4)
Mo12 Mo 0.72530(6) 0.28967(3) 0.60303(3)
P1 P 0.88942(15) 0.27101(8) 0.73667(8)
F1 F 0.4778(5) 0.4222(4) 0.5490(4)
F2 F 0.6263(5) 0.4540(3) 0.3728(3)
C1 C 0.7179(6) 0.6170(3) 0.4062(4)
H1 H 0.6714 0.6159 0.3722
C2 C 0.8030(6) 0.6412(3) 0.4852(4)
H2 H 0.8267 0.6614 0.5184
C3 C 0.8079(6) 0.5305(3) 0.3901(3)
H3 H 0.7501 0.5232 0.3606
H4 H 0.8692 0.5366 0.3693
C4 C 0.9410(6) 0.3288(3) 0.4821(4)
H5 H 0.9859 0.3128 0.5116
C5 C 0.8168(7) 0.3396(3) 0.4153(4)
H6 H 0.7578 0.3336 0.3893
C6 C 0.8533(6) 0.4353(3) 0.3892(3)
H7 H 0.7972 0.4309 0.3580
H8 H 0.9156 0.4446 0.3708
C7 C 0.8261(5) 0.4816(3) 0.4305(3)
C8 C 0.7307(6) 0.4671(3) 0.4636(3)
C9 C 0.6374(7) 0.4530(4) 0.4328(4)
C10 C 0.5479(8) 0.4373(4) 0.4609(6)
H9 H 0.4855 0.4283 0.4392
C11 C 0.5591(9) 0.4365(5) 0.5204(6)
C12 C 0.6497(8) 0.4503(5) 0.5526(5)
H10 H 0.6530 0.4499 0.5939
C13 C 0.7364(7) 0.4649(4) 0.5254(4)
H11 H 0.7982 0.4733 0.5481
C17 C 0.7607(7) 0.1199(3) 0.4196(4)
H16 H 0.8049 0.1184 0.3895
C18 C 0.6845(7) 0.1452(3) 0.4922(4)
H17 H 0.6645 0.1655 0.5237
C19 C 0.6565(7) 0.0371(3) 0.3921(3)
H18 H 0.7059 0.0312 0.3631
H19 H 0.5894 0.0448 0.3707
N1 N 0.7855(5) 0.5789(2) 0.4230(3)
N2 N 0.8413(5) 0.5945(3) 0.4734(3)
N3 N 0.7263(5) 0.6575(3) 0.4452(3)
N4 N 0.9501(5) 0.3789(3) 0.4642(3)
N5 N 0.8699(5) 0.3855(2) 0.4203(3)
N6 N 0.8608(6) 0.3039(3) 0.4532(3)
N7 N 0.7598(5) 0.1594(3) 0.4599(3)
N8 N 0.6407(5) 0.0996(3) 0.4756(3)
N9 N 0.6894(5) 0.0830(3) 0.4287(3)
O1 O 0.4206(5) 0.0928(3) 0.4105(2)
O2 O 0.6346(5) 0.2560(3) 0.4306(3)
O4 O 0.4624(5) 0.1988(2) 0.3807(2)
O6 O 0.2660(5) 0.1678(3) 0.3767(3)
O8 O 0.3083(5) 0.0894(3) 0.3007(3)
O10 O 0.5077(4) 0.1222(2) 0.3093(2)
O11 O 0.6236(4) 0.2088(2) 0.3185(2)
O15 O 0.4494(5) 0.3066(3) 0.3878(3)
O16 O 0.0644(9) 0.2170(5) 0.3645(4)
O17 O 0.6420(7) 0.0537(4) 0.6025(4)
O18 O 0.7572(5) 0.2252(3) 0.8507(3)
O19 O 0.7906(6) 0.1183(3) 0.8787(3)
O20 O 0.1331(6) 0.2572(3) 0.2531(3)
O21 O 0.7519(5) 0.1580(3) 0.7618(3)
O22 O 0.5567(5) 0.1522(3) 0.6951(3)
O23 O 0.6295(5) 0.2399(3) 0.6330(3)
O24 O 0.7449(5) 0.1522(3) 0.6437(3)
O25 O 0.9435(5) 0.1243(3) 0.8000(3)
O26 O 0.6530(4) 0.3157(3) 0.5443(3)
O27 O 0.7910(5) 0.2312(2) 0.5686(3)
O28 O 0.8912(5) 0.1319(3) 0.5664(3)
O29 O 0.9897(4) 0.2237(2) 0.6131(3)
O32 O 0.9610(4) 0.4247(2) 0.5910(3)
O33 O 0.8540(4) 0.3991(3) 0.6894(2)
O34 O 0.8494(4) 0.3292(2) 0.6033(2)
O35 O 0.1585(6) 0.0572(3) 0.2078(3)
O36 O 0.6912(4) 0.3387(2) 0.6639(3)
O37 O 0.9766(4) 0.3007(2) 0.7087(2)
O39 O 0.9492(5) 0.1460(3) 0.6859(3)
O41 O 0.6121(5) 0.3155(2) 0.3268(3)
O42 O 0.9357(4) 0.2280(2) 0.7793(2)
O43 O 0.8179(4) 0.2438(2) 0.6860(2)
O44 O 0.8271(4) 0.3108(2) 0.7699(2)
O45 O 0.1358(5) 0.1477(3) 0.2765(3)
O46 O 0.9153(4) 0.4900(2) 0.4719(2)
N13 N 0.4576(6) 0.1178(3) 0.5433(3)
O48 O 0.4300(4) 0.0067(2) 0.5317(2)
Cu6 Cu 0.96893(7) 0.55705(4) 0.50569(4)
O51 O 0.4357(4) 0.2720(2) 0.2793(2)
O52 O 0.3271(4) 0.1892(2) 0.2699(2)
O53 O 0.9494(5) 0.1934(3) 0.8878(3)
O54 O 0.2572(5) 0.2748(3) 0.3507(3)
O55 O 0.6331(6) 0.2428(3) 0.7531(3)
O56 O 0.3540(4) 0.1009(3) 0.1894(2)
O57 O 0.1912(4) 0.1613(2) 0.1639(3)
Cu7 Cu 0.66463(7) 0.73039(4) 0.43984(4)
Mo13 Mo 0.61452(6) 0.14833(3) 0.26442(3)
Mo14 Mo 0.33766(7) 0.33448(4) 0.33583(4)
Mo15 Mo 0.67792(8) 0.28788(5) 0.82186(4)
Mo16 Mo 0.16345(6) 0.30834(4) 0.20000(4)
Mo17 Mo 0.72587(6) 0.38502(4) 0.72880(4)
Mo18 Mo 0.54786(7) 0.34719(3) 0.25523(4)
Mo20 Mo 0.88821(6) 0.36590(4) 0.85348(3)
H31 H 0.656568 0.0906453 0.617464
H32 H 0.606103 0.033173 0.632147
H33 H 0.71546 0.112867 0.866442
H34 H 0.828545 0.084125 0.874196
H35 H 0.590453 0.333256 0.557866
H36 H 0.694638 0.342618 0.524511
F4 F 0.8353(6) 0.9650(5) 0.3746(3)
C14 C 0.6434(7) 0.8442(4) 0.3976(4)
H12 H 0.6868 0.8396 0.3674
C15 C 0.5566(7) 0.8318(3) 0.4693(4)
H13 H 0.5272 0.8147 0.5002
C16 C 0.6076(7) 0.9429(3) 0.3816(4)
H14 H 0.6549 0.9408 0.3509
H15 H 0.5398 0.9535 0.3632
C20 C 0.6480(6) 0.9860(3) 0.4289(3)
C21 C 0.7479(7) 0.9698(4) 0.4629(4)
C22 C 0.8394(8) 0.9593(6) 0.4345(6)
C23 C 0.9316(10) 0.9427(8) 0.4656(8)
H20 H 0.9898 0.9348 0.4460
C24 C 0.9341(11) 0.9383(7) 0.5261(8)
C25 C 0.8508(11) 0.9453(6) 0.5546(7)
H21 H 0.8533 0.9388 0.5952
C26 C 0.7588(8) 0.9626(5) 0.5230(5)
H22 H 0.7018 0.9696 0.5441
N10 N 0.5424(6) 0.8822(3) 0.4567(3)
N11 N 0.5997(5) 0.8896(3) 0.4098(3)
N12 N 0.6184(5) 0.8063(3) 0.4330(3)
O3 O 0.7615(5) 0.7537(3) 0.5196(3)
O5 O 0.5472(5) 0.7113(3) 0.4947(3)
O7 O 0.5710(5) 0.7114(3) 0.3615(4)
O47 O 0.5700(4) 0.9933(2) 0.4683(2)
Cu5 Cu 0.47134(8) 0.94215(4) 0.49310(5)
O50 O 0.7968(4) 0.7555(3) 0.3909(3)
H23 H 0.716979 0.768299 0.549227
H24 H 0.799947 0.72188 0.536522
H25 H 0.478072 0.718495 0.47304
H26 H 0.55226 0.672773 0.505749
H27 H 0.593307 0.73304 0.32811
H28 H 0.578231 0.672661 0.35254
Mo2_2 Mo 0.11179(6) 0.63410(4) 0.14652(3)
Mo4_2 Mo 0.32208(8) 0.71212(5) 0.17814(4)
Mo6_2 Mo 0.27413(6) 0.61498(4) 0.27120(4)
H9_2 H 0.0145 0.9283 0.0608
O1_2 O 0.0794(5) 0.5928(3) 0.0895(2)
O4_2 O 0.0376(5) 0.6988(2) 0.1193(2)
O6_2 O 0.2340(5) 0.6678(3) 0.1233(3)
O8_2 O 0.1917(5) 0.5894(3) 0.1993(3)
O15_2 O 0.0506(5) 0.8066(3) 0.1122(3)
O16_2 O 0.4356(9) 0.7170(5) 0.1355(4)
O20_2 O 0.3669(6) 0.7572(3) 0.2469(3)
O35_2 O 0.3415(6) 0.5572(3) 0.2922(3)
O45_2 O 0.3642(5) 0.6477(3) 0.2235(3)
Cu5_2 Cu 0.02866(8) 0.44215(4) 0.00690(5)
O51_2 O 0.0643(4) 0.7720(2) 0.2207(2)
O52_2 O 0.1729(4) 0.6892(2) 0.2301(2)
O54_2 O 0.2428(5) 0.7748(3) 0.1493(3)
O56_2 O 0.1460(4) 0.6009(3) 0.3106(2)
O57_2 O 0.3088(4) 0.6613(2) 0.3361(3)
Mo14_2 Mo 0.16234(7) 0.83448(4) 0.16417(4)
Mo16_2 Mo 0.33655(6) 0.80834(4) 0.30000(4)
H25_2 H 0.0219276 0.218495 0.0269598
F1_2 F 0.0222(5) 0.9222(4) 0.9510(4)
N13_2 N 0.0424(6) 0.6178(3) 0.9567(3)
O48_2 O 0.0700(4) 0.5067(2) 0.9683(2)
C1_2 C 0.7821(6) 0.1170(3) 0.0938(4)
H1_2 H 0.8286 0.1159 0.1278
C2_2 C 0.6970(6) 0.1412(3) 0.0148(4)
C3_2 C 0.6921(6) 0.0305(3) 0.1099(3)
H3_2 H 0.7499 0.0232 0.1394
H4_2 H 0.6308 0.0366 0.1307
N1_2 N 0.7145(5) 0.0789(2) 0.0770(3)
N2_2 N 0.6587(5) 0.0945(3) 0.0266(3)
N3_2 N 0.7737(5) 0.1575(3) 0.0548(3)
Cu7_2 Cu 0.83537(7) 0.23039(4) 0.06016(4)
H2_2 H 0.6733 0.1614 0.9816
Cu6_2 Cu 0.53107(7) 0.05705(4) 0.99431(4)
O49_2 O 0.4153(4) 0.0100(2) 0.9719(2)
Cu2_2 Cu 0.68509(9) 0.73089(4) 0.03726(6)
Cu3_2 Cu 0.46893(7) 0.94295(4) 0.00569(4)
Mo1_2 Mo 0.94477(6) 0.75551(3) 0.13366(3)
F2_2 F 0.8737(5) 0.9540(3) 0.1272(3)
F4_2 F 0.6647(6) 0.4650(5) 0.1254(3)
C4_2 C 0.5590(6) 0.8288(3) 0.0179(4)
C5_2 C 0.6832(7) 0.8396(3) 0.0847(4)
H6_2 H 0.7422 0.8336 0.1107
C6_2 C 0.6467(6) 0.9353(3) 0.1108(3)
H7_2 H 0.7028 0.9309 0.1420
H8_2 H 0.5844 0.9446 0.1292
C7_2 C 0.6739(5) 0.9816(3) 0.0695(3)
C8_2 C 0.7693(6) 0.9671(3) 0.0364(3)
C9_2 C 0.8626(7) 0.9530(4) 0.0672(4)
C10_2 C 0.9521(8) 0.9373(4) 0.0391(6)
C14_2 C 0.8566(7) 0.3442(4) 0.1024(4)
H12_2 H 0.8132 0.3396 0.1326
C15_2 C 0.9434(7) 0.3318(3) 0.0307(4)
C16_2 C 0.8924(7) 0.4429(3) 0.1184(4)
H14_2 H 0.8451 0.4408 0.1491
H15_2 H 0.9602 0.4535 0.1368
C17_2 C 0.7393(7) 0.6199(3) 0.0804(4)
H16_2 H 0.6951 0.6184 0.1105
C18_2 C 0.8155(7) 0.6452(3) 0.0078(4)
C19_2 C 0.8435(7) 0.5371(3) 0.1079(3)
H18_2 H 0.7941 0.5312 0.1369
H19_2 H 0.9106 0.5448 0.1293
C20_2 C 0.8520(6) 0.4860(3) 0.0711(3)
C21_2 C 0.7521(7) 0.4698(4) 0.0371(4)
C22_2 C 0.6606(8) 0.4593(6) 0.0655(6)
C23_2 C 0.5684(10) 0.4427(8) 0.0344(8)
H20_2 H 0.5102 0.4348 0.0540
N4_2 N 0.5499(5) 0.8789(3) 0.0358(3)
N5_2 N 0.6301(5) 0.8855(2) 0.0797(3)
N6_2 N 0.6392(6) 0.8039(3) 0.0468(3)
N7_2 N 0.7402(5) 0.6594(3) 0.0401(3)
N8_2 N 0.8593(5) 0.5996(3) 0.0244(3)
N9_2 N 0.8106(5) 0.5830(3) 0.0713(3)
N10_2 N 0.9576(6) 0.3822(3) 0.0433(3)
N11_2 N 0.9003(5) 0.3896(3) 0.0902(3)
N12_2 N 0.8816(5) 0.3063(3) 0.0670(3)
O2_2 O 0.8654(5) 0.7560(3) 0.0694(3)
O5_2 O 0.9528(5) 0.2113(3) 0.0053(3)
O7_2 O 0.9290(5) 0.2114(3) 0.1385(4)
O9_2 O 0.3958(6) 0.9452(3) 0.1056(4)
O10_2 O 0.9923(4) 0.6222(2) 0.1907(2)
O11_2 O 0.8764(4) 0.7088(2) 0.1815(2)
O41_2 O 0.8879(5) 0.8155(2) 0.1732(3)
O46_2 O 0.5847(4) 0.9900(2) 0.0281(2)
O47_2 O 0.9300(4) 0.4933(2) 0.0317(2)
O50_2 O 0.7032(4) 0.2555(3) 0.1091(3)
Mo13_2 Mo 0.88548(6) 0.64833(3) 0.23558(3)
Mo18_2 Mo 0.95214(7) 0.84719(3) 0.24477(4)
H27_2 H 0.906693 0.23304 0.17189
H28_2 H 0.921769 0.172661 0.14746
H29_2 H 0.453467 0.949727 0.137518
H30_2 H 0.346542 0.975686 0.106667
Cu1_2 Cu 0.97134(8) 0.55785(4) 0.99310(5)
Mo3_2 Mo 0.66234(7) 0.66552(4) 0.66417(4)
Mo5_2 Mo 0.83655(6) 0.69166(4) 0.80000(4)
Mo7_2 Mo 0.45214(7) 0.65281(3) 0.74477(4)
Mo8_2 Mo 0.38548(6) 0.85167(3) 0.73558(3)
Mo9_2 Mo 0.39476(5) 0.76203(3) 0.84849(3)
Mo10_2 Mo 0.54624(6) 0.87533(3) 0.85812(3)
Mo11_2 Mo 0.62706(7) 0.67583(4) 0.88003(4)
Mo12_2 Mo 0.77470(6) 0.78967(3) 0.89697(3)
P1_2 P 0.61058(15) 0.77101(8) 0.76333(8)
F3 F 0.4759(7) 0.4218(6) 0.9449(6)
H5_2 H 0.5141 0.8128 0.9884
C11_2 C 0.9409(9) 0.9365(5) 0.9796(6)
C12_2 C 0.8503(8) 0.9503(5) 0.9474(5)
H10_2 H 0.8470 0.9499 0.9061
C13_2 C 0.7636(7) 0.9649(4) 0.9746(4)
H11_2 H 0.7018 0.9733 0.9519
H13_2 H 0.9728 0.3147 0.9998
H17_2 H 0.8355 0.6655 0.9763
C24_2 C 0.5659(11) 0.4383(7) 0.9739(8)
C25_2 C 0.6492(11) 0.4453(6) 0.9454(7)
H21_2 H 0.6467 0.4388 0.9048
C26_2 C 0.7412(8) 0.4626(5) 0.9770(5)
H22_2 H 0.7982 0.4696 0.9559
O3_2 O 0.7385(5) 0.2537(3) 0.9804(3)
O12_2 O 0.2786(5) 0.8903(3) 0.7090(3)
O13_2 O 0.4347(4) 0.8963(2) 0.8013(2)
O14_2 O 0.3208(4) 0.8075(2) 0.7912(2)
O17_2 O 0.8580(7) 0.5537(4) 0.8975(4)
O18_2 O 0.7428(5) 0.7252(3) 0.6493(3)
O19_2 O 0.7094(6) 0.6183(3) 0.6213(3)
O21_2 O 0.7481(5) 0.6580(3) 0.7382(3)
O22_2 O 0.9433(5) 0.6522(3) 0.8049(3)
O23_2 O 0.8705(5) 0.7399(3) 0.8670(3)
O24_2 O 0.7551(5) 0.6522(3) 0.8563(3)
O25_2 O 0.5565(5) 0.6243(3) 0.7000(3)
O26_2 O 0.8470(4) 0.8157(3) 0.9557(3)
O27_2 O 0.7090(5) 0.7312(2) 0.9314(3)
O28_2 O 0.6088(5) 0.6319(3) 0.9336(3)
O29_2 O 0.5103(4) 0.7237(2) 0.8869(3)
O30_2 O 0.2968(4) 0.7445(3) 0.8909(3)
O31_2 O 0.4444(4) 0.8262(2) 0.8879(2)
O32_2 O 0.5390(4) 0.9247(2) 0.9090(3)
O33_2 O 0.6460(4) 0.8991(3) 0.8106(2)
O34_2 O 0.6506(4) 0.8292(2) 0.8967(2)
O36_2 O 0.8088(4) 0.8387(2) 0.8361(3)
O37_2 O 0.5234(4) 0.8007(2) 0.7913(2)
O38_2 O 0.3892(4) 0.7066(2) 0.7895(3)
O39_2 O 0.5508(5) 0.6460(3) 0.8141(3)
O40_2 O 0.3723(6) 0.5981(3) 0.7517(3)
O42_2 O 0.5643(4) 0.7280(2) 0.7207(2)
O43_2 O 0.6821(4) 0.7438(2) 0.8140(2)
O44_2 O 0.6729(4) 0.8108(2) 0.7301(2)
N14_2 N 0.3413(5) 0.9055(3) 0.9734(3)
O53_2 O 0.5506(5) 0.6934(3) 0.6122(3)
O55_2 O 0.8669(6) 0.7428(3) 0.7469(3)
O58_2 O 0.3879(5) 0.6845(2) 0.6732(3)
O59_2 O 0.4923(4) 0.8778(2) 0.6907(2)
O60_2 O 0.3764(4) 0.7912(2) 0.6815(2)
Mo15_2 Mo 0.82208(8) 0.78788(5) 0.67814(4)
Cu8_2 Cu 0.16463(7) 0.76961(4) 0.93984(4)
Mo17_2 Mo 0.77413(6) 0.88502(4) 0.77120(4)
Mo19_2 Mo 0.44477(6) 0.74449(3) 0.63366(3)
Mo20_2 Mo 0.61179(6) 0.86590(4) 0.64652(3)
H23_2 H 0.783021 0.268299 0.950773
H24_2 H 0.700053 0.22188 0.963478
H26_2 H 0.94774 0.172773 0.994251
H31_2 H 0.843432 0.590645 0.882536
H32_2 H 0.893897 0.533173 0.867853
H33_2 H 0.78454 0.612867 0.633558
H34_2 H 0.671455 0.584125 0.625804
H35_2 H 0.909547 0.833256 0.942134
H36_2 H 0.805362 0.842618 0.975489
F4_3 F 0.1647(6) 0.0350(5) 0.6254(3)
C14_3 C 0.3566(7) 0.1558(4) 0.6024(4)
H12_3 H 0.3132 0.1604 0.6326
C15_3 C 0.4434(7) 0.1682(3) 0.5307(4)
H13_3 H 0.4728 0.1853 0.4998
C16_3 C 0.3924(7) 0.0571(3) 0.6184(4)
H14_3 H 0.3451 0.0592 0.6491
H15_3 H 0.4602 0.0465 0.6368
C20_3 C 0.3520(6) 0.0140(3) 0.5711(3)
C21_3 C 0.2521(7) 0.0302(4) 0.5371(4)
C22_3 C 0.1606(8) 0.0407(6) 0.5655(6)
C23_3 C 0.0684(10) 0.0573(8) 0.5344(8)
H20_3 H 0.0102 0.0652 0.5540
C24_3 C 0.0659(11) 0.0617(7) 0.4739(8)
C25_3 C 0.1492(11) 0.0547(6) 0.4454(7)
H21_3 H 0.1467 0.0612 0.4048
C26_3 C 0.2412(8) 0.0374(5) 0.4770(5)
H22_3 H 0.2982 0.0304 0.4559
N11_3 N 0.4003(5) 0.1104(3) 0.5902(3)
N12_3 N 0.3816(5) 0.1937(3) 0.5670(3)
O3_3 O 0.2385(5) 0.2463(3) 0.4804(3)
O5_3 O 0.4528(5) 0.2887(3) 0.5053(3)
O7_3 O 0.4290(5) 0.2886(3) 0.6385(4)
N15 N 0.2737(5) 0.3425(3) 0.5548(3)
H23_3 H 0.283021 0.231701 0.450773
H24_3 H 0.200053 0.27812 0.463478
H25_3 H 0.521928 0.281505 0.52696
H26_3 H 0.44774 0.327227 0.494251
H27_3 H 0.406693 0.26696 0.67189
H28_3 H 0.421769 0.327339 0.64746
Cu2_3 Cu 0.18509(9) 0.76911(4) 0.53726(6)
Mo10_3 Mo 0.04624(6) 0.62467(3) 0.35812(3)
Mo11_3 Mo 0.12706(7) 0.82417(4) 0.38003(4)
Mo12_3 Mo 0.27470(6) 0.71033(3) 0.39697(3)
P1_3 P 0.11058(15) 0.72899(8) 0.26333(8)
F1_3 F 0.5222(5) 0.5778(4) 0.4510(4)
F2_3 F 0.3737(5) 0.5460(3) 0.6272(3)
C1_3 C 0.2821(6) 0.3830(3) 0.5938(4)
H1_3 H 0.3286 0.3841 0.6278
C2_3 C 0.1970(6) 0.3588(3) 0.5148(4)
H2_3 H 0.1733 0.3386 0.4816
C3_3 C 0.1921(6) 0.4695(3) 0.6099(3)
H3_3 H 0.2499 0.4768 0.6394
H4_3 H 0.1308 0.4634 0.6307
C4_3 C 0.0590(6) 0.6712(3) 0.5179(4)
H5_3 H 0.0141 0.6872 0.4884
C5_3 C 0.1832(7) 0.6604(3) 0.5847(4)
H6_3 H 0.2422 0.6664 0.6107
C6_3 C 0.1467(6) 0.5647(3) 0.6108(3)
H7_3 H 0.2028 0.5691 0.6420
H8_3 H 0.0844 0.5554 0.6292
C7_3 C 0.1739(5) 0.5184(3) 0.5695(3)
C8_3 C 0.2693(6) 0.5329(3) 0.5364(3)
C9_3 C 0.3626(7) 0.5470(4) 0.5672(4)
C10_3 C 0.4521(8) 0.5627(4) 0.5391(6)
H9_3 H 0.5145 0.5717 0.5608
C11_3 C 0.4409(9) 0.5635(5) 0.4796(6)
C12_3 C 0.3503(8) 0.5497(5) 0.4474(5)
H10_3 H 0.3470 0.5501 0.4061
C13_3 C 0.2636(7) 0.5351(4) 0.4746(4)
H11_3 H 0.2018 0.5267 0.4519
C17_3 C 0.2393(7) 0.8801(3) 0.5804(4)
H16_3 H 0.1951 0.8816 0.6105
C18_3 C 0.3155(7) 0.8548(3) 0.5078(4)
H17_3 H 0.3355 0.8345 0.4763
C19_3 C 0.3435(7) 0.9629(3) 0.6079(3)
H18_3 H 0.2941 0.9688 0.6369
H19_3 H 0.4106 0.9552 0.6293
N1_3 N 0.2145(5) 0.4211(2) 0.5770(3)
N4_3 N 0.0499(5) 0.6211(3) 0.5358(3)
N5_3 N 0.1301(5) 0.6145(2) 0.5797(3)
N6_3 N 0.1392(6) 0.6961(3) 0.5468(3)
N7_3 N 0.2402(5) 0.8406(3) 0.5401(3)
N8_3 N 0.3593(5) 0.9004(3) 0.5244(3)
N9_3 N 0.3106(5) 0.9170(3) 0.5713(3)
O1_3 O 0.5794(5) 0.9072(3) 0.5895(2)
O2_3 O 0.3654(5) 0.7440(3) 0.5694(3)
O4_3 O 0.5376(5) 0.8012(2) 0.6193(2)
O6_3 O 0.7340(5) 0.8322(3) 0.6233(3)
O8_3 O 0.6917(5) 0.9106(3) 0.6993(3)
O16_3 O 0.9356(9) 0.7830(5) 0.6355(4)
O17_3 O 0.3580(7) 0.9463(4) 0.3975(4)
O19_3 O 0.2094(6) 0.8817(3) 0.1213(3)
O21_3 O 0.2481(5) 0.8420(3) 0.2382(3)
O22_3 O 0.4433(5) 0.8478(3) 0.3049(3)
O23_3 O 0.3705(5) 0.7601(3) 0.3670(3)
O24_3 O 0.2551(5) 0.8478(3) 0.3563(3)
O25_3 O 0.0565(5) 0.8757(3) 0.2000(3)
O26_3 O 0.3470(4) 0.6843(3) 0.4557(3)
O27_3 O 0.2090(5) 0.7688(2) 0.4314(3)
O28_3 O 0.1088(5) 0.8681(3) 0.4336(3)
O29_3 O 0.0103(4) 0.7763(2) 0.3869(3)
O32_3 O 0.0390(4) 0.5753(2) 0.4090(3)
O34_3 O 0.1506(4) 0.6708(2) 0.3967(2)
O35_3 O 0.8415(6) 0.9428(3) 0.7922(3)
O37_3 O 0.0234(4) 0.6993(2) 0.2913(2)
O39_3 O 0.0508(5) 0.8540(3) 0.3141(3)
O43_3 O 0.1821(4) 0.7562(2) 0.3140(2)
O45_3 O 0.8642(5) 0.8523(3) 0.7235(3)
H31_3 H 0.343432 0.909355 0.382536
H32_3 H 0.393897 0.966827 0.367853
H33_3 H 0.28454 0.887133 0.133558
H34_3 H 0.171455 0.915875 0.125804
H35_3 H 0.409547 0.666744 0.442134
H36_3 H 0.305362 0.657382 0.475489
Mo9_3 Mo 0.89476(5) 0.73797(3) 0.34849(3)
O9_3 O 0.8958(6) 0.5548(3) 0.6056(4)
O12_3 O 0.7786(5) 0.6097(3) 0.2090(3)
O13_3 O 0.9347(4) 0.6037(2) 0.3013(2)
O14_3 O 0.8208(4) 0.6925(2) 0.2912(2)
O31_3 O 0.9444(4) 0.6738(2) 0.3879(2)
O38_3 O 0.8892(4) 0.7934(2) 0.2895(3)
O40_3 O 0.8723(6) 0.9019(3) 0.2517(3)
H29_3 H 0.953467 0.550273 0.637518
H30_3 H 0.846542 0.524314 0.606667
Mo9_4 Mo 0.60524(5) 0.23797(3) 0.15151(3)
Mo10_4 Mo 0.45376(6) 0.12467(3) 0.14188(3)
Mo11_4 Mo 0.37294(7) 0.32417(4) 0.11997(4)
Mo12_4 Mo 0.22530(6) 0.21033(3) 0.10303(3)
P1_4 P 0.38942(15) 0.22899(8) 0.23667(8)
F3_2 F 0.5241(7) 0.5782(6) 0.0551(6)
H5_4 H 0.4859 0.1872 0.0116
C11_4 C 0.0591(9) 0.0635(5) 0.0204(6)
C12_4 C 0.1497(8) 0.0497(5) 0.0526(5)
H10_4 H 0.1530 0.0501 0.0939
C13_4 C 0.2364(7) 0.0351(4) 0.0254(4)
H11_4 H 0.2982 0.0267 0.0481
H13_4 H 0.0272 0.6853 0.0002
H17_4 H 0.1645 0.3345 0.0237
C24_4 C 0.4341(11) 0.5617(7) 0.0261(8)
C25_4 C 0.3508(11) 0.5547(6) 0.0546(7)
H21_4 H 0.3533 0.5612 0.0952
C26_4 C 0.2588(8) 0.5374(5) 0.0230(5)
H22_4 H 0.2018 0.5304 0.0441
O3_4 O 0.2615(5) 0.7463(3) 0.0196(3)
O12_4 O 0.7214(5) 0.1097(3) 0.2910(3)
O13_4 O 0.5653(4) 0.1037(2) 0.1987(2)
O14_4 O 0.6792(4) 0.1925(2) 0.2088(2)
O17_4 O 0.1420(7) 0.4463(4) 0.1025(4)
O19_4 O 0.2906(6) 0.3817(3) 0.3787(3)
O21_4 O 0.2519(5) 0.3420(3) 0.2618(3)
O22_4 O 0.0567(5) 0.3478(3) 0.1951(3)
O23_4 O 0.1295(5) 0.2601(3) 0.1330(3)
O24_4 O 0.2449(5) 0.3478(3) 0.1437(3)
O25_4 O 0.4435(5) 0.3757(3) 0.3000(3)
O26_4 O 0.1530(4) 0.1843(3) 0.0443(3)
O27_4 O 0.2910(5) 0.2688(2) 0.0686(3)
O28_4 O 0.3912(5) 0.3681(3) 0.0664(3)
O29_4 O 0.4897(4) 0.2763(2) 0.1131(3)
O31_4 O 0.5556(4) 0.1738(2) 0.1121(2)
O32_4 O 0.4610(4) 0.0753(2) 0.0910(3)
O34_4 O 0.3494(4) 0.1708(2) 0.1033(2)
O37_4 O 0.4766(4) 0.1993(2) 0.2087(2)
O38_4 O 0.6108(4) 0.2934(2) 0.2105(3)
O39_4 O 0.4492(5) 0.3540(3) 0.1859(3)
O40_4 O 0.6277(6) 0.4019(3) 0.2483(3)
O43_4 O 0.3179(4) 0.2562(2) 0.1860(2)
H23_4 H 0.216979 0.731701 0.0492274
H24_4 H 0.299947 0.77812 0.0365216
H26_4 H 0.0522601 0.827227 0.00574925
H31_4 H 0.156568 0.409355 0.117464
H32_4 H 0.106103 0.466827 0.132147
H33_4 H 0.21546 0.387133 0.366442
H34_4 H 0.328545 0.415875 0.374196
H35_4 H 0.090453 0.166744 0.0578659
H36_4 H 0.194638 0.157382 0.0245111
Cu2_4 Cu 0.31491(9) 0.26911(4) 0.96274(6)
F2_4 F 0.1263(5) 0.0460(3) 0.8728(3)
F4_4 F 0.3353(6) 0.5350(5) 0.8746(3)
C4_4 C 0.4410(6) 0.1712(3) 0.9821(4)
C5_4 C 0.3168(7) 0.1604(3) 0.9153(4)
H6_4 H 0.2578 0.1664 0.8893
C6_4 C 0.3533(6) 0.0647(3) 0.8892(3)
H7_4 H 0.2972 0.0691 0.8580
H8_4 H 0.4156 0.0554 0.8708
C7_4 C 0.3261(5) 0.0184(3) 0.9305(3)
C8_4 C 0.2307(6) 0.0329(3) 0.9636(3)
C9_4 C 0.1374(7) 0.0470(4) 0.9328(4)
C10_4 C 0.0479(8) 0.0627(4) 0.9609(6)
C14_4 C 0.1434(7) 0.6558(4) 0.8976(4)
H12_4 H 0.1868 0.6604 0.8674
C15_4 C 0.0566(7) 0.6682(3) 0.9693(4)
C16_4 C 0.1076(7) 0.5571(3) 0.8816(4)
H14_4 H 0.1549 0.5592 0.8509
H15_4 H 0.0398 0.5465 0.8632
C17_4 C 0.2607(7) 0.3801(3) 0.9196(4)
H16_4 H 0.3049 0.3816 0.8895
C18_4 C 0.1845(7) 0.3548(3) 0.9922(4)
C19_4 C 0.1565(7) 0.4629(3) 0.8921(3)
H18_4 H 0.2059 0.4688 0.8631
H19_4 H 0.0894 0.4552 0.8707
C20_4 C 0.1480(6) 0.5140(3) 0.9289(3)
C21_4 C 0.2479(7) 0.5302(4) 0.9629(4)
C22_4 C 0.3394(8) 0.5407(6) 0.9345(6)
C23_4 C 0.4316(10) 0.5573(8) 0.9656(8)
H20_4 H 0.4898 0.5652 0.9460
N4_4 N 0.4501(5) 0.1211(3) 0.9642(3)
N5_4 N 0.3699(5) 0.1145(2) 0.9203(3)
N6_4 N 0.3608(6) 0.1961(3) 0.9532(3)
N7_4 N 0.2598(5) 0.3406(3) 0.9599(3)
N8_4 N 0.1407(5) 0.4004(3) 0.9756(3)
N9_4 N 0.1894(5) 0.4170(3) 0.9287(3)
N11_4 N 0.0997(5) 0.6104(3) 0.9098(3)
N12_4 N 0.1184(5) 0.6937(3) 0.9330(3)
O2_4 O 0.1346(5) 0.2440(3) 0.9306(3)
O5_4 O 0.0472(5) 0.7887(3) 0.9947(3)
O7_4 O 0.0710(5) 0.7886(3) 0.8615(4)
O9_4 O 0.6042(6) 0.0548(3) 0.8944(4)
N15_2 N 0.2263(5) 0.8425(3) 0.9452(3)
H27_4 H 0.0933069 0.76696 0.82811
H28_4 H 0.0782313 0.827339 0.85254
H29_4 H 0.546533 0.0502726 0.862482
H30_4 H 0.653458 0.0243142 0.893333
H2_4 H 0.3267 0.8386 0.0184
C1_4 C 0.2179(6) 0.8830(3) 0.9062(4)
H1_4 H 0.1714 0.8841 0.8722
C2_4 C 0.3030(6) 0.8588(3) 0.9852(4)
C3_4 C 0.3079(6) 0.9695(3) 0.8901(3)
H3_4 H 0.2501 0.9768 0.8606
H4_4 H 0.3692 0.9634 0.8693
N1_4 N 0.2855(5) 0.9211(2) 0.9230(3)
F1_4 F 0.9778(5) 0.0778(4) 0.0490(4)
H9_4 H 0.9855 0.0717 0.9392
O1_4 O 0.9206(5) 0.4072(3) 0.9105(2)
O4_4 O 0.9624(5) 0.3012(2) 0.8807(2)
O6_4 O 0.7660(5) 0.3322(3) 0.8767(3)
O8_4 O 0.8083(5) 0.4106(3) 0.8007(3)
O16_4 O 0.5644(9) 0.2830(5) 0.8645(4)
O35_4 O 0.6585(6) 0.4428(3) 0.7078(3)
O45_4 O 0.6358(5) 0.3523(3) 0.7765(3)
H25_4 H 0.978072 0.781505 0.97304
F3_3 F 0.0241(7) 0.9218(6) 0.5551(6)
F3_4 F 0.9759(7) 0.0782(6) 0.4449(6)
loop_
_geom_bond_atom_site_label_1
_geom_bond_atom_site_label_2
_geom_bond_site_symmetry_1
_geom_bond_site_symmetry_2
Mo8 O12 1_555 1_555
Mo9 O14 1_555 1_555
O9 Cu3 1_555 1_555
O13 Mo8 1_555 1_555
O14 Mo8 1_555 1_555
O30 Mo9 1_555 1_555
O31 Mo9 1_555 1_555
O38 Mo7 1_555 1_555
O40 Mo7 1_555 1_555
N14 Cu3 1_555 1_555
O49 Cu3 1_555 1_555
O58 Mo7 1_555 1_555
O59 Mo8 1_555 1_555
O60 Mo8 1_555 1_555
Cu8 O30 1_555 1_555
Mo9 O38 1_555 1_555
O58 Mo19 1_555 1_555
O60 Mo19 1_555 1_555
O9 H29 1_555 1_555
O9 H30 1_555 1_555
Cu1 N8 1_555 1_555
Cu2 N6 1_555 1_555
Mo1 O2 1_555 1_555
Mo2 O1 1_555 1_555
Mo3 O18 1_555 1_555
Mo4 O6 1_555 1_555
Mo5 O21 1_555 1_555
Mo6 O8 1_555 1_555
Mo11 O24 1_555 1_555
Mo12 O23 1_555 1_555
P1 O37 1_555 1_555
F1 C11 1_555 1_555
F2 C9 1_555 1_555
C1 H1 1_555 1_555
C2 H2 1_555 1_555
C3 H3 1_555 1_555
H4 C3 1_555 1_555
C4 H5 1_555 1_555
C5 H6 1_555 1_555
C6 H7 1_555 1_555
H8 C6 1_555 1_555
C7 C3 1_555 1_555
C8 C7 1_555 1_555
C9 C8 1_555 1_555
C10 C9 1_555 1_555
H9 C10 1_555 1_555
C11 C10 1_555 1_555
C12 C11 1_555 1_555
H10 C12 1_555 1_555
C13 C8 1_555 1_555
H11 C13 1_555 1_555
C17 H16 1_555 1_555
C18 H17 1_555 1_555
C19 H18 1_555 1_555
H19 C19 1_555 1_555
N1 C1 1_555 1_555
N2 C2 1_555 1_555
N3 C1 1_555 1_555
N4 C4 1_555 1_555
N5 C5 1_555 1_555
N6 C4 1_555 1_555
N7 Cu2 1_555 1_555
N8 C18 1_555 1_555
N9 C17 1_555 1_555
O1 Cu1 1_555 1_555
O2 Cu2 1_555 1_555
O4 Mo1 1_555 1_555
O6 Mo2 1_555 1_555
O8 Mo2 1_555 1_555
O10 Mo2 1_555 1_555
O11 Mo1 1_555 1_555
O15 Mo1 1_555 1_555
O16 Mo4 1_555 1_555
O17 Cu1 1_555 1_555
O18 Mo15 1_555 1_555
O19 Mo3 1_555 1_555
O20 Mo4 1_555 1_555
O21 Mo3 1_555 1_555
O22 Mo5 1_555 1_555
O23 Mo5 1_555 1_555
O24 Mo5 1_555 1_555
O25 Mo3 1_555 1_555
O26 Mo12 1_555 1_555
O27 Cu2 1_555 1_555
O28 Mo11 1_555 1_555
O33 Mo10 1_555 1_555
O34 Mo10 1_555 1_555
O35 Mo6 1_555 1_555
O36 Mo12 1_555 1_555
O41 Mo1 1_555 1_555
O42 Mo3 1_555 1_555
O43 Mo5 1_555 1_555
O44 P1 1_555 1_555
O45 Mo4 1_555 1_555
N13 Cu1 1_555 1_555
O48 Cu1 1_555 1_555
O51 Mo1 1_555 1_555
O52 Mo2 1_555 1_555
O53 Mo3 1_555 1_555
O54 Mo4 1_555 1_555
O55 Mo5 1_555 1_555
O56 Mo6 1_555 1_555
O57 Mo6 1_555 1_555
Cu7 N3 1_555 1_555
Mo13 O10 1_555 1_555
Mo14 O15 1_555 1_555
Mo15 O44 1_555 1_555
Mo16 O20 1_555 1_555
Mo17 O33 1_555 1_555
Mo18 O41 1_555 1_555
Mo20 O44 1_555 1_555
Mo2 O4 1_555 1_555
Mo4 O52 1_555 1_555
Mo6 O45 1_555 1_555
Mo6 O52 1_555 1_555
Mo10 O32 1_555 1_555
Mo10 O37 1_555 1_555
Mo11 O29 1_555 1_555
Mo11 O27 1_555 1_555
Mo11 O39 1_555 1_555
Mo11 O43 1_555 1_555
Mo12 O27 1_555 1_555
Mo12 O34 1_555 1_555
Mo12 O43 1_555 1_555
P1 O42 1_555 1_555
P1 O43 1_555 1_555
C2 N3 1_555 1_555
C3 N1 1_555 1_555
C5 N6 1_555 1_555
C6 C7 1_555 1_555
C6 N5 1_555 1_555
C7 O46 1_555 1_555
C12 C13 1_555 1_555
C17 N7 1_555 1_555
C18 N7 1_555 1_555
C19 N9 1_555 1_555
N1 N2 1_555 1_555
N2 Cu6 1_555 1_555
N4 N5 1_555 1_555
N8 N9 1_555 1_555
O11 Mo13 1_555 1_555
O36 Mo17 1_555 1_555
O44 Mo17 1_555 1_555
O46 Cu6 1_555 1_555
O51 Mo14 1_555 1_555
O51 Mo18 1_555 1_555
O54 Mo14 1_555 1_555
O55 Mo15 1_555 1_555
O17 H31 1_555 1_555
O17 H32 1_555 1_555
O19 H33 1_555 1_555
O19 H34 1_555 1_555
O26 H35 1_555 1_555
O26 H36 1_555 1_555
Cu7 N12 1_555 1_555
F4 C22 1_555 1_555
C14 H12 1_555 1_555
C15 H13 1_555 1_555
C16 H14 1_555 1_555
H15 C16 1_555 1_555
C20 C16 1_555 1_555
C21 C20 1_555 1_555
C22 C21 1_555 1_555
C23 C22 1_555 1_555
H20 C23 1_555 1_555
C24 C23 1_555 1_555
C25 C24 1_555 1_555
H21 C25 1_555 1_555
C26 C21 1_555 1_555
H22 C26 1_555 1_555
N10 C15 1_555 1_555
N11 C14 1_555 1_555
N12 C14 1_555 1_555
O3 Cu7 1_555 1_555
O5 Cu7 1_555 1_555
O7 Cu7 1_555 1_555
O50 Cu7 1_555 1_555
C15 N12 1_555 1_555
C16 N11 1_555 1_555
C20 O47 1_555 1_555
C25 C26 1_555 1_555
N10 N11 1_555 1_555
N10 Cu5 1_555 1_555
O47 Cu5 1_555 1_555
O3 H23 1_555 1_555
O3 H24 1_555 1_555
O5 H25 1_555 1_555
O5 H26 1_555 1_555
O7 H27 1_555 1_555
O7 H28 1_555 1_555
Mo2_2 O1_2 1_555 1_555
Mo4_2 O6_2 1_555 1_555
Mo6_2 O8_2 1_555 1_555
O6_2 Mo2_2 1_555 1_555
O8_2 Mo2_2 1_555 1_555
O16_2 Mo4_2 1_555 1_555
O20_2 Mo4_2 1_555 1_555
O35_2 Mo6_2 1_555 1_555
O45_2 Mo4_2 1_555 1_555
O52_2 Mo2_2 1_555 1_555
O54_2 Mo4_2 1_555 1_555
O56_2 Mo6_2 1_555 1_555
O57_2 Mo6_2 1_555 1_555
Mo14_2 O15_2 1_555 1_555
Mo16_2 O20_2 1_555 1_555
Mo2_2 O4_2 1_555 1_555
Mo4_2 O52_2 1_555 1_555
Mo6_2 O45_2 1_555 1_555
Mo6_2 O52_2 1_555 1_555
O51_2 Mo14_2 1_555 1_555
O54_2 Mo14_2 1_555 1_555
C1_2 H1_2 1_555 1_555
C3_2 H3_2 1_555 1_555
H4_2 C3_2 1_555 1_555
N1_2 C1_2 1_555 1_555
N2_2 C2_2 1_555 1_555
N3_2 C1_2 1_555 1_555
Cu7_2 N3_2 1_555 1_555
C2_2 N3_2 1_555 1_555
C3_2 N1_2 1_555 1_555
N1_2 N2_2 1_555 1_555
Cu6_2 O49_2 1_555 1_555
Cu2_2 N6_2 1_555 1_555
Cu3_2 N4_2 1_555 1_555
Cu7_2 N12_2 1_555 1_555
Mo1_2 O2_2 1_555 1_555
F2_2 C9_2 1_555 1_555
F4_2 C22_2 1_555 1_555
C5_2 H6_2 1_555 1_555
C6_2 H7_2 1_555 1_555
H8_2 C6_2 1_555 1_555
C8_2 C7_2 1_555 1_555
C9_2 C8_2 1_555 1_555
C10_2 C9_2 1_555 1_555
C14_2 H12_2 1_555 1_555
C16_2 H14_2 1_555 1_555
H15_2 C16_2 1_555 1_555
C17_2 H16_2 1_555 1_555
C19_2 H18_2 1_555 1_555
H19_2 C19_2 1_555 1_555
C20_2 C16_2 1_555 1_555
C21_2 C20_2 1_555 1_555
C22_2 C21_2 1_555 1_555
C23_2 C22_2 1_555 1_555
H20_2 C23_2 1_555 1_555
N4_2 C4_2 1_555 1_555
N5_2 C5_2 1_555 1_555
N6_2 C4_2 1_555 1_555
N7_2 Cu2_2 1_555 1_555
N8_2 C18_2 1_555 1_555
N9_2 C17_2 1_555 1_555
N10_2 C15_2 1_555 1_555
N11_2 C14_2 1_555 1_555
N12_2 C14_2 1_555 1_555
O2_2 Cu2_2 1_555 1_555
O5_2 Cu7_2 1_555 1_555
O7_2 Cu7_2 1_555 1_555
O9_2 Cu3_2 1_555 1_555
O11_2 Mo1_2 1_555 1_555
O41_2 Mo1_2 1_555 1_555
O46_2 Cu3_2 1_555 1_555
O50_2 Cu7_2 1_555 1_555
Mo13_2 O10_2 1_555 1_555
Mo18_2 O41_2 1_555 1_555
C5_2 N6_2 1_555 1_555
C6_2 C7_2 1_555 1_555
C6_2 N5_2 1_555 1_555
C7_2 O46_2 1_555 1_555
C15_2 N12_2 1_555 1_555
C16_2 N11_2 1_555 1_555
C17_2 N7_2 1_555 1_555
C18_2 N7_2 1_555 1_555
C19_2 C20_2 1_555 1_555
C19_2 N9_2 1_555 1_555
C20_2 O47_2 1_555 1_555
N4_2 N5_2 1_555 1_555
N8_2 N9_2 1_555 1_555
N10_2 N11_2 1_555 1_555
O11_2 Mo13_2 1_555 1_555
O7_2 H27_2 1_555 1_555
O7_2 H28_2 1_555 1_555
O9_2 H29_2 1_555 1_555
O9_2 H30_2 1_555 1_555
Mo3_2 O18_2 1_555 1_555
Mo5_2 O21_2 1_555 1_555
Mo7_2 O25_2 1_555 1_555
Mo8_2 O12_2 1_555 1_555
Mo9_2 O14_2 1_555 1_555
Mo10_2 O13_2 1_555 1_555
Mo11_2 O24_2 1_555 1_555
Mo12_2 O23_2 1_555 1_555
P1_2 O37_2 1_555 1_555
F3 C24_2 1_555 1_555
C12_2 C11_2 1_555 1_555
H10_2 C12_2 1_555 1_555
H11_2 C13_2 1_555 1_555
C25_2 C24_2 1_555 1_555
H21_2 C25_2 1_555 1_555
H22_2 C26_2 1_555 1_555
O13_2 Mo8_2 1_555 1_555
O14_2 Mo8_2 1_555 1_555
O17_2 Cu1_2 1_555 1_555
O18_2 Mo15_2 1_555 1_555
O19_2 Mo3_2 1_555 1_555
O21_2 Mo3_2 1_555 1_555
O22_2 Mo5_2 1_555 1_555
O23_2 Mo5_2 1_555 1_555
O24_2 Mo5_2 1_555 1_555
O25_2 Mo3_2 1_555 1_555
O26_2 Mo12_2 1_555 1_555
O28_2 Mo11_2 1_555 1_555
O29_2 Mo9_2 1_555 1_555
O30_2 Mo9_2 1_555 1_555
O31_2 Mo9_2 1_555 1_555
O33_2 Mo10_2 1_555 1_555
O34_2 Mo10_2 1_555 1_555
O36_2 Mo12_2 1_555 1_555
O37_2 Mo8_2 1_555 1_555
O38_2 Mo7_2 1_555 1_555
O39_2 Mo7_2 1_555 1_555
O40_2 Mo7_2 1_555 1_555
O42_2 Mo3_2 1_555 1_555
O43_2 Mo5_2 1_555 1_555
O44_2 P1_2 1_555 1_555
O53_2 Mo3_2 1_555 1_555
O55_2 Mo5_2 1_555 1_555
O58_2 Mo7_2 1_555 1_555
O59_2 Mo8_2 1_555 1_555
O60_2 Mo8_2 1_555 1_555
Mo15_2 O44_2 1_555 1_555
Cu8_2 O30_2 1_555 1_555
Mo17_2 O33_2 1_555 1_555
Mo19_2 O42_2 1_555 1_555
Mo20_2 O44_2 1_555 1_555
Mo7_2 O42_2 1_555 1_555
Mo9_2 O37_2 1_555 1_555
Mo9_2 O38_2 1_555 1_555
Mo10_2 O31_2 1_555 1_555
Mo10_2 O32_2 1_555 1_555
Mo10_2 O37_2 1_555 1_555
Mo11_2 O29_2 1_555 1_555
Mo11_2 O27_2 1_555 1_555
Mo11_2 O39_2 1_555 1_555
Mo11_2 O43_2 1_555 1_555
Mo12_2 O27_2 1_555 1_555
Mo12_2 O34_2 1_555 1_555
Mo12_2 O43_2 1_555 1_555
P1_2 O42_2 1_555 1_555
P1_2 O43_2 1_555 1_555
C12_2 C13_2 1_555 1_555
C25_2 C26_2 1_555 1_555
O36_2 Mo17_2 1_555 1_555
O44_2 Mo17_2 1_555 1_555
O53_2 Mo19_2 1_555 1_555
O55_2 Mo15_2 1_555 1_555
O58_2 Mo19_2 1_555 1_555
O59_2 Mo20_2 1_555 1_555
O60_2 Mo19_2 1_555 1_555
O3_2 H23_2 1_555 1_555
O3_2 H24_2 1_555 1_555
O17_2 H31_2 1_555 1_555
O17_2 H32_2 1_555 1_555
O19_2 H33_2 1_555 1_555
O19_2 H34_2 1_555 1_555
O26_2 H35_2 1_555 1_555
O26_2 H36_2 1_555 1_555
Cu8 N12_3 1_555 1_555
F4_3 C22_3 1_555 1_555
C14_3 H12_3 1_555 1_555
C15_3 H13_3 1_555 1_555
C16_3 H14_3 1_555 1_555
H15_3 C16_3 1_555 1_555
C20_3 C16_3 1_555 1_555
C21_3 C20_3 1_555 1_555
C22_3 C21_3 1_555 1_555
C23_3 C22_3 1_555 1_555
H20_3 C23_3 1_555 1_555
C24_3 C23_3 1_555 1_555
C25_3 C24_3 1_555 1_555
H21_3 C25_3 1_555 1_555
C26_3 C21_3 1_555 1_555
H22_3 C26_3 1_555 1_555
N13 C15_3 1_555 1_555
N11_3 C14_3 1_555 1_555
N12_3 C14_3 1_555 1_555
O3_3 Cu8 1_555 1_555
O5_3 Cu8 1_555 1_555
O7_3 Cu8 1_555 1_555
N15 Cu8 1_555 1_555
C15_3 N12_3 1_555 1_555
C16_3 N11_3 1_555 1_555
C20_3 O48 1_555 1_555
C25_3 C26_3 1_555 1_555
N13 N11_3 1_555 1_555
O3_3 H23_3 1_555 1_555
O3_3 H24_3 1_555 1_555
O5_3 H25_3 1_555 1_555
O5_3 H26_3 1_555 1_555
O7_3 H27_3 1_555 1_555
O7_3 H28_3 1_555 1_555
Cu5 N8_3 1_555 1_555
Cu2_3 N6_3 1_555 1_555
Mo19_2 O2_3 1_555 1_555
Mo20_2 O1_3 1_555 1_555
Mo15_2 O6_3 1_555 1_555
Mo16_2 O21_3 1_555 1_555
Mo17_2 O8_3 1_555 1_555
Mo11_3 O24_3 1_555 1_555
Mo12_3 O23_3 1_555 1_555
P1_3 O37_3 1_555 1_555
F1_3 C11_3 1_555 1_555
F2_3 C9_3 1_555 1_555
C1_3 H1_3 1_555 1_555
C2_3 H2_3 1_555 1_555
C3_3 H3_3 1_555 1_555
H4_3 C3_3 1_555 1_555
C4_3 H5_3 1_555 1_555
C5_3 H6_3 1_555 1_555
C6_3 H7_3 1_555 1_555
H8_3 C6_3 1_555 1_555
C7_3 C3_3 1_555 1_555
C8_3 C7_3 1_555 1_555
C9_3 C8_3 1_555 1_555
C10_3 C9_3 1_555 1_555
H9_3 C10_3 1_555 1_555
C11_3 C10_3 1_555 1_555
C12_3 C11_3 1_555 1_555
H10_3 C12_3 1_555 1_555
C13_3 C8_3 1_555 1_555
H11_3 C13_3 1_555 1_555
C17_3 H16_3 1_555 1_555
C18_3 H17_3 1_555 1_555
C19_3 H18_3 1_555 1_555
H19_3 C19_3 1_555 1_555
N1_3 C1_3 1_555 1_555
N14 C2_3 1_555 1_555
N15 C1_3 1_555 1_555
N4_3 C4_3 1_555 1_555
N5_3 C5_3 1_555 1_555
N6_3 C4_3 1_555 1_555
N7_3 Cu2_3 1_555 1_555
N8_3 C18_3 1_555 1_555
N9_3 C17_3 1_555 1_555
O1_3 Cu5 1_555 1_555
O2_3 Cu2_3 1_555 1_555
O4_3 Mo19_2 1_555 1_555
O6_3 Mo20_2 1_555 1_555
O8_3 Mo20_2 1_555 1_555
O16_3 Mo15_2 1_555 1_555
O17_3 Cu5 1_555 1_555
O19_3 Mo14_2 1_555 1_555
O21_3 Mo14_2 1_555 1_555
O22_3 Mo16_2 1_555 1_555
O23_3 Mo16_2 1_555 1_555
O24_3 Mo16_2 1_555 1_555
O25_3 Mo14_2 1_555 1_555
O26_3 Mo12_3 1_555 1_555
O27_3 Cu2_3 1_555 1_555
O28_3 Mo11_3 1_555 1_555
O56_2 Mo10_3 1_555 1_555
O34_3 Mo10_3 1_555 1_555
O35_3 Mo17_2 1_555 1_555
O57_2 Mo12_3 1_555 1_555
O43_3 Mo16_2 1_555 1_555
O52_2 P1_3 1_555 1_555
O45_3 Mo15_2 1_555 1_555
Mo20_2 O4_3 1_555 1_555
Mo17_2 O45_3 1_555 1_555
Mo10_3 O32_3 1_555 1_555
Mo10_3 O37_3 1_555 1_555
Mo11_3 O29_3 1_555 1_555
Mo11_3 O27_3 1_555 1_555
Mo11_3 O39_3 1_555 1_555
Mo11_3 O43_3 1_555 1_555
Mo12_3 O27_3 1_555 1_555
Mo12_3 O34_3 1_555 1_555
Mo12_3 O43_3 1_555 1_555
P1_3 O51_2 1_555 1_555
P1_3 O43_3 1_555 1_555
C2_3 N15 1_555 1_555
C3_3 N1_3 1_555 1_555
C5_3 N6_3 1_555 1_555
C6_3 C7_3 1_555 1_555
C6_3 N5_3 1_555 1_555
C7_3 O49 1_555 1_555
C12_3 C13_3 1_555 1_555
C17_3 N7_3 1_555 1_555
C18_3 N7_3 1_555 1_555
C19_3 N9_3 1_555 1_555
N1_3 N14 1_555 1_555
N4_3 N5_3 1_555 1_555
N8_3 N9_3 1_555 1_555
O17_3 H31_3 1_555 1_555
O17_3 H32_3 1_555 1_555
O19_3 H33_3 1_555 1_555
O19_3 H34_3 1_555 1_555
O26_3 H35_3 1_555 1_555
O26_3 H36_3 1_555 1_555
Mo13_2 O12_3 1_555 1_555
Mo9_3 O14_3 1_555 1_555
O9_3 Cu6 1_555 1_555
O13_3 Mo13_2 1_555 1_555
O14_3 Mo13_2 1_555 1_555
O50 Mo9_3 1_555 1_555
O31_3 Mo9_3 1_555 1_555
O38_3 Mo18_2 1_555 1_555
O40_3 Mo18_2 1_555 1_555
Mo9_3 O38_3 1_555 1_555
O9_3 H29_3 1_555 1_555
O9_3 H30_3 1_555 1_555
Mo16 O21_4 1_555 1_555
Mo18 O25_4 1_555 1_555
Mo13 O12_4 1_555 1_555
Mo9_4 O14_4 1_555 1_555
Mo10_4 O13_4 1_555 1_555
Mo11_4 O24_4 1_555 1_555
Mo12_4 O23_4 1_555 1_555
P1_4 O37_4 1_555 1_555
F3_2 C24_4 1_555 1_555
C12_4 C11_4 1_555 1_555
H10_4 C12_4 1_555 1_555
H11_4 C13_4 1_555 1_555
C25_4 C24_4 1_555 1_555
H21_4 C25_4 1_555 1_555
H22_4 C26_4 1_555 1_555
O13_4 Mo13 1_555 1_555
O14_4 Mo13 1_555 1_555
O17_4 Cu5_2 1_555 1_555
O19_4 Mo14 1_555 1_555
O21_4 Mo14 1_555 1_555
O22_4 Mo16 1_555 1_555
O23_4 Mo16 1_555 1_555
O24_4 Mo16 1_555 1_555
O25_4 Mo14 1_555 1_555
O26_4 Mo12_4 1_555 1_555
O28_4 Mo11_4 1_555 1_555
O29_4 Mo9_4 1_555 1_555
O50_2 Mo9_4 1_555 1_555
O31_4 Mo9_4 1_555 1_555
O56 Mo10_4 1_555 1_555
O34_4 Mo10_4 1_555 1_555
O57 Mo12_4 1_555 1_555
O37_4 Mo13 1_555 1_555
O38_4 Mo18 1_555 1_555
O39_4 Mo18 1_555 1_555
O40_4 Mo18 1_555 1_555
O43_4 Mo16 1_555 1_555
O52 P1_4 1_555 1_555
Mo9_4 O37_4 1_555 1_555
Mo9_4 O38_4 1_555 1_555
Mo10_4 O31_4 1_555 1_555
Mo10_4 O32_4 1_555 1_555
Mo10_4 O37_4 1_555 1_555
Mo11_4 O29_4 1_555 1_555
Mo11_4 O27_4 1_555 1_555
Mo11_4 O39_4 1_555 1_555
Mo11_4 O43_4 1_555 1_555
Mo12_4 O27_4 1_555 1_555
Mo12_4 O34_4 1_555 1_555
Mo12_4 O43_4 1_555 1_555
P1_4 O51 1_555 1_555
P1_4 O43_4 1_555 1_555
C12_4 C13_4 1_555 1_555
C25_4 C26_4 1_555 1_555
O3_4 H23_4 1_555 1_555
O3_4 H24_4 1_555 1_555
O17_4 H31_4 1_555 1_555
O17_4 H32_4 1_555 1_555
O19_4 H33_4 1_555 1_555
O19_4 H34_4 1_555 1_555
O26_4 H35_4 1_555 1_555
O26_4 H36_4 1_555 1_555
Cu2_4 N6_4 1_555 1_555
Cu6_2 N4_4 1_555 1_555
Cu8_2 N12_4 1_555 1_555
Mo19 O2_4 1_555 1_555
F2_4 C9_4 1_555 1_555
F4_4 C22_4 1_555 1_555
C5_4 H6_4 1_555 1_555
C6_4 H7_4 1_555 1_555
H8_4 C6_4 1_555 1_555
C8_4 C7_4 1_555 1_555
C9_4 C8_4 1_555 1_555
C10_4 C9_4 1_555 1_555
C14_4 H12_4 1_555 1_555
C16_4 H14_4 1_555 1_555
H15_4 C16_4 1_555 1_555
C17_4 H16_4 1_555 1_555
C19_4 H18_4 1_555 1_555
H19_4 C19_4 1_555 1_555
C20_4 C16_4 1_555 1_555
C21_4 C20_4 1_555 1_555
C22_4 C21_4 1_555 1_555
C23_4 C22_4 1_555 1_555
H20_4 C23_4 1_555 1_555
N4_4 C4_4 1_555 1_555
N5_4 C5_4 1_555 1_555
N6_4 C4_4 1_555 1_555
N7_4 Cu2_4 1_555 1_555
N8_4 C18_4 1_555 1_555
N9_4 C17_4 1_555 1_555
N13_2 C15_4 1_555 1_555
N11_4 C14_4 1_555 1_555
N12_4 C14_4 1_555 1_555
O2_4 Cu2_4 1_555 1_555
O5_4 Cu8_2 1_555 1_555
O7_4 Cu8_2 1_555 1_555
O9_4 Cu6_2 1_555 1_555
N15_2 Cu8_2 1_555 1_555
C5_4 N6_4 1_555 1_555
C6_4 C7_4 1_555 1_555
C6_4 N5_4 1_555 1_555
C7_4 O49_2 1_555 1_555
C15_4 N12_4 1_555 1_555
C16_4 N11_4 1_555 1_555
C17_4 N7_4 1_555 1_555
C18_4 N7_4 1_555 1_555
C19_4 C20_4 1_555 1_555
C19_4 N9_4 1_555 1_555
C20_4 O48_2 1_555 1_555
N4_4 N5_4 1_555 1_555
N8_4 N9_4 1_555 1_555
N13_2 N11_4 1_555 1_555
O7_4 H27_4 1_555 1_555
O7_4 H28_4 1_555 1_555
O9_4 H29_4 1_555 1_555
O9_4 H30_4 1_555 1_555
C1_4 H1_4 1_555 1_555
C3_4 H3_4 1_555 1_555
H4_4 C3_4 1_555 1_555
N1_4 C1_4 1_555 1_555
N14_2 C2_4 1_555 1_555
N15_2 C1_4 1_555 1_555
C2_4 N15_2 1_555 1_555
C3_4 N1_4 1_555 1_555
N1_4 N14_2 1_555 1_555
Mo20 O1_4 1_555 1_555
Mo15 O6_4 1_555 1_555
Mo17 O8_4 1_555 1_555
O6_4 Mo20 1_555 1_555
O8_4 Mo20 1_555 1_555
O16_4 Mo15 1_555 1_555
O35_4 Mo17 1_555 1_555
O45_4 Mo15 1_555 1_555
Mo20 O4_4 1_555 1_555
Mo17 O45_4 1_555 1_555

#END
