
###############################################################################
#
# This file contains modified crystal structure data generated from the
# MOF subset of the Cambridge Structural Database (CSD) v543 
# hosted by the Cambridge Crystallographic Data Centre (CCDC).
#
# This work is licensed under the Creative Commons
# Attribution-NonCommercial-ShareAlike 4.0 International License.
# To view a copy of this license, visit
# http://creativecommons.org/licenses/by-nc-sa/4.0/
# or send a letter to
# Creative Commons, PO Box 1866, Mountain View, CA 94042, USA.
#
# CIF created using the CSD Python API on 29 September 2022
# The structure has been converted into the P1 space group
# The structure has a 3D framework
# The original CSD entry SOQHIR01 is in the orthorhombic crystal system
# The framework has been calculated to contain at least 10.0% void space
# The void calculation uses a probe of radius 1.32A, grid spacing 0.4
# H atom positions have been added when not included in the experimental data
#
###############################################################################

data_SOQHIR01
_chemical_formula_moiety         '(C128 H48 O58 Tb4)n'
_symmetry_cell_setting           triclinic
_symmetry_space_group_name_H-M   'P 1'
_symmetry_Int_Tables_number      1
_space_group_name_Hall           'P 1'
loop_
_symmetry_equiv_pos_site_id
_symmetry_equiv_pos_as_xyz
1 x,y,z
_cell_length_a                   17.1625(4)
_cell_length_b                   15.8356(4)
_cell_length_c                   15.6712(3)
_cell_angle_alpha                90
_cell_angle_beta                 90
_cell_angle_gamma                90
_cell_volume                     4259.09
loop_
_atom_site_label
_atom_site_type_symbol
_atom_site_fract_x
_atom_site_fract_y
_atom_site_fract_z
O3 O 0.4476(7) 0.1779(6) 0.1251(6)
C3 C 0.5218(6) 0.2654(6) 0.0360(6)
C5 C 0.4503(7) 0.2118(7) 0.0557(7)
C6 C 0.5245(6) 0.3496(6) 0.0543(6)
C8 C 0.5883(7) 0.3979(9) 0.0280(10)
C9 C 0.4632(5) 0.3902(6) 0.1106(5)
C10 C 0.3864(6) 0.3941(6) 0.0825(6)
C11 C 0.4825(5) 0.4198(6) 0.1901(6)
C12 C 0.3288(5) 0.4278(6) 0.1371(6)
C13 C 0.4238(6) 0.4501(5) 0.2455(6)
C14 C 0.3478(5) 0.4526(5) 0.2186(6)
C15 C 0.2457(5) 0.4336(6) 0.1059(6)
C16 C 0.4495(5) 0.4737(6) 0.3346(5)
O5 O 0.1914(4) 0.4460(4) 0.1583(4)
O6 O 0.2331(4) 0.4300(5) 0.0267(4)
O7 O 0.5173(3) 0.5004(5) 0.3443(4)
O8 O 0.3983(4) 0.4657(5) 0.3907(5)
Tb2 Tb 0.40386(3) 0.45391(4) 0.54294(3)
Tb3 Tb 0.40386(3) 0.04609(4) 0.04294(3)
Tb4 Tb 0.09614(3) 0.45391(4) 0.04294(3)
Tb5 Tb 0.59614(3) 0.54609(4) 0.45706(3)
H1 H 0.592244 0.464325 0.0454622
H2 H 0.543135 0.419961 0.210576
H3 H 0.302368 0.474279 0.261883
H6 H 0.370877 0.371429 0.019135
O1 O 0.6474(4) 0.0988(5) 0.9481(5)
O2 O 0.5296(4) 0.0861(4) 0.9982(4)
C1 C 0.5885(5) 0.1325(7) 0.9764(6)
C2 C 0.5840(6) 0.2255(6) 0.9908(6)
O4 O 0.4023(5) 0.2012(7) 0.9976(11)
C4 C 0.6435(8) 0.2749(8) 0.9626(9)
C7 C 0.6467(9) 0.3606(9) 0.9794(12)
H4 H 0.690143 0.246052 0.925589
H5 H 0.694588 0.398554 0.954751
O9 O 0.4704(4) 0.9139(4) 0.0018(4)
O11 O 0.5977(5) 0.7988(7) 0.0024(11)
O15 O 0.6017(4) 0.9657(5) 0.1093(5)
Tb1 Tb 0.59614(3) 0.95391(4) 0.95706(3)
O10 O 0.5524(7) 0.8221(6) 0.8749(6)
O12 O 0.6914(4) 0.9460(4) 0.8417(4)
O13 O 0.7331(4) 0.9300(5) 0.9733(4)
O14 O 0.5173(3) 0.9996(5) 0.8443(4)
O3_2 O 0.0524(7) 0.3221(6) 0.1251(6)
C5_2 C 0.0497(7) 0.2882(7) 0.0557(7)
C9_2 C 0.0368(5) 0.1098(6) 0.1106(5)
C10_2 C 0.1136(6) 0.1059(6) 0.0825(6)
C11_2 C 0.0175(5) 0.0802(6) 0.1901(6)
C12_2 C 0.1712(5) 0.0722(6) 0.1371(6)
C13_2 C 0.0762(6) 0.0499(5) 0.2455(6)
C14_2 C 0.1522(5) 0.0474(5) 0.2186(6)
C15_2 C 0.2543(5) 0.0664(6) 0.1059(6)
C16_2 C 0.0505(5) 0.0263(6) 0.3346(5)
O5_2 O 0.3086(4) 0.0540(4) 0.1583(4)
O6_2 O 0.2669(4) 0.0700(5) 0.0267(4)
O8_2 O 0.1017(4) 0.0343(5) 0.3907(5)
Tb2_2 Tb 0.09614(3) 0.04609(4) 0.54294(3)
O9_2 O 0.0296(4) 0.5861(4) 0.0018(4)
H3_2 H 0.197632 0.0257206 0.261883
H6_2 H 0.129123 0.128571 0.019135
O4_2 O 0.0977(5) 0.2988(7) 0.9976(11)
C3_2 C 0.9782(6) 0.2346(6) 0.0360(6)
C6_2 C 0.9755(6) 0.1504(6) 0.0543(6)
C8_2 C 0.9117(7) 0.1021(9) 0.0280(10)
O11_2 O 0.9023(5) 0.7012(7) 0.0024(11)
O15_2 O 0.8983(4) 0.5343(5) 0.1093(5)
H1_2 H 0.907756 0.035675 0.0454622
H2_2 H 0.956865 0.080039 0.210576
Tb1_2 Tb 0.90386(3) 0.54609(4) 0.95706(3)
O1_2 O 0.8526(4) 0.4012(5) 0.9481(5)
O2_2 O 0.9704(4) 0.4139(4) 0.9982(4)
C1_2 C 0.9115(5) 0.3675(7) 0.9764(6)
C2_2 C 0.9160(6) 0.2745(6) 0.9908(6)
C4_2 C 0.8565(8) 0.2251(8) 0.9626(9)
C7_2 C 0.8533(9) 0.1394(9) 0.9794(12)
O10_2 O 0.9476(7) 0.6779(6) 0.8749(6)
O12_2 O 0.8086(4) 0.5540(4) 0.8417(4)
O13_2 O 0.7669(4) 0.5700(5) 0.9733(4)
O14_2 O 0.9827(3) 0.5004(5) 0.8443(4)
H4_2 H 0.809857 0.253948 0.925589
H5_2 H 0.805412 0.101446 0.954751
O7_2 O 0.9827(3) 0.9996(5) 0.3443(4)
Tb5_2 Tb 0.90386(3) 0.95391(4) 0.45706(3)
O10_3 O 0.0524(7) 0.1779(6) 0.6251(6)
O11_3 O 0.0977(5) 0.2012(7) 0.4976(11)
O12_3 O 0.1914(4) 0.0540(4) 0.6583(4)
O13_3 O 0.2331(4) 0.0700(5) 0.5267(4)
O14_3 O 0.0173(3) 0.0004(5) 0.6557(4)
O1_3 O 0.1474(4) 0.9012(5) 0.5519(5)
O2_3 O 0.0296(4) 0.9139(4) 0.5018(4)
C1_3 C 0.0885(5) 0.8675(7) 0.5236(6)
C2_3 C 0.0840(6) 0.7745(6) 0.5092(6)
C3_3 C 0.0218(6) 0.7346(6) 0.4640(6)
C4_3 C 0.1435(8) 0.7251(8) 0.5374(9)
C6_3 C 0.0245(6) 0.6504(6) 0.4457(6)
C7_3 C 0.1467(9) 0.6394(9) 0.5206(12)
C8_3 C 0.0883(7) 0.6021(9) 0.4720(10)
O7_3 O 0.0173(3) 0.4996(5) 0.1557(4)
H1_3 H 0.0922442 0.535675 0.454538
H2_3 H 0.0431349 0.580039 0.289424
H4_3 H 0.190143 0.753948 0.574411
H5_3 H 0.194588 0.601446 0.545249
O9_3 O 0.9704(4) 0.0861(4) 0.4982(4)
O3_3 O 0.9476(7) 0.8221(6) 0.3749(6)
O4_3 O 0.9023(5) 0.7988(7) 0.5024(11)
C5_3 C 0.9503(7) 0.7882(7) 0.4443(7)
C9_3 C 0.9632(5) 0.6098(6) 0.3894(5)
C10_3 C 0.8864(6) 0.6059(6) 0.4175(6)
C11_3 C 0.9825(5) 0.5802(6) 0.3099(6)
C12_3 C 0.8288(5) 0.5722(6) 0.3629(6)
C13_3 C 0.9238(6) 0.5499(5) 0.2545(6)
C14_3 C 0.8478(5) 0.5474(5) 0.2814(6)
C15_3 C 0.7457(5) 0.5664(6) 0.3941(6)
C16_3 C 0.9495(5) 0.5263(6) 0.1654(5)
O5_3 O 0.6914(4) 0.5540(4) 0.3417(4)
O6_3 O 0.7331(4) 0.5700(5) 0.4733(4)
H3_3 H 0.802368 0.525721 0.238117
H6_3 H 0.870877 0.628571 0.480865
O7_4 O 0.4827(3) 0.0004(5) 0.1557(4)
O1_4 O 0.3526(4) 0.5988(5) 0.5519(5)
O2_4 O 0.4704(4) 0.5861(4) 0.5018(4)
C1_4 C 0.4115(5) 0.6325(7) 0.5236(6)
C2_4 C 0.4160(6) 0.7255(6) 0.5092(6)
O3_4 O 0.5524(7) 0.6779(6) 0.3749(6)
O4_4 O 0.5977(5) 0.7012(7) 0.5024(11)
C3_4 C 0.4782(6) 0.7654(6) 0.4640(6)
C4_4 C 0.3565(8) 0.7749(8) 0.5374(9)
C5_4 C 0.5497(7) 0.7118(7) 0.4443(7)
C6_4 C 0.4755(6) 0.8496(6) 0.4457(6)
C7_4 C 0.3533(9) 0.8606(9) 0.5206(12)
C8_4 C 0.4117(7) 0.8979(9) 0.4720(10)
C9_4 C 0.5368(5) 0.8902(6) 0.3894(5)
C10_4 C 0.6136(6) 0.8941(6) 0.4175(6)
C11_4 C 0.5175(5) 0.9198(6) 0.3099(6)
C12_4 C 0.6712(5) 0.9278(6) 0.3629(6)
C13_4 C 0.5762(6) 0.9501(5) 0.2545(6)
C14_4 C 0.6522(5) 0.9526(5) 0.2814(6)
C15_4 C 0.7543(5) 0.9336(6) 0.3941(6)
C16_4 C 0.5505(5) 0.9737(6) 0.1654(5)
O5_4 O 0.8086(4) 0.9460(4) 0.3417(4)
O6_4 O 0.7669(4) 0.9300(5) 0.4733(4)
O9_4 O 0.5296(4) 0.4139(4) 0.4982(4)
O10_4 O 0.4476(7) 0.3221(6) 0.6251(6)
O11_4 O 0.4023(5) 0.2988(7) 0.4976(11)
O12_4 O 0.3086(4) 0.4460(4) 0.6583(4)
O13_4 O 0.2669(4) 0.4300(5) 0.5267(4)
O14_4 O 0.4827(3) 0.4996(5) 0.6557(4)
H1_4 H 0.407756 0.964325 0.454538
H2_4 H 0.456865 0.919961 0.289424
H3_4 H 0.697632 0.974279 0.238117
H4_4 H 0.309857 0.746052 0.574411
H5_4 H 0.305412 0.898554 0.545249
H6_4 H 0.629123 0.871429 0.480865
O15_3 O 0.3983(4) 0.0343(5) 0.8907(5)
O1_5 O 0.3526(4) 0.9012(5) 0.0519(5)
C1_5 C 0.4115(5) 0.8675(7) 0.0236(6)
C2_5 C 0.4160(6) 0.7745(6) 0.0092(6)
C4_5 C 0.3565(8) 0.7251(8) 0.0374(9)
C7_5 C 0.3533(9) 0.6394(9) 0.0206(12)
H4_5 H 0.309857 0.753948 0.0744111
H5_5 H 0.305412 0.601446 0.0452487
C3_5 C 0.4782(6) 0.7346(6) 0.9640(6)
C5_5 C 0.5497(7) 0.7882(7) 0.9443(7)
C6_5 C 0.4755(6) 0.6504(6) 0.9457(6)
C8_5 C 0.4117(7) 0.6021(9) 0.9720(10)
C9_5 C 0.5368(5) 0.6098(6) 0.8894(5)
C10_5 C 0.6136(6) 0.6059(6) 0.9175(6)
C11_5 C 0.5175(5) 0.5802(6) 0.8099(6)
C12_5 C 0.6712(5) 0.5722(6) 0.8629(6)
C13_5 C 0.5762(6) 0.5499(5) 0.7545(6)
C14_5 C 0.6522(5) 0.5474(5) 0.7814(6)
C15_5 C 0.7543(5) 0.5664(6) 0.8941(6)
C16_5 C 0.5505(5) 0.5263(6) 0.6654(5)
O8_3 O 0.6017(4) 0.5343(5) 0.6093(5)
H1_5 H 0.407756 0.535675 0.954538
H2_5 H 0.456865 0.580039 0.789424
H3_5 H 0.697632 0.525721 0.738117
H6_5 H 0.629123 0.628571 0.980865
O1_6 O 0.1474(4) 0.5988(5) 0.0519(5)
C1_6 C 0.0885(5) 0.6325(7) 0.0236(6)
C2_6 C 0.0840(6) 0.7255(6) 0.0092(6)
C4_6 C 0.1435(8) 0.7749(8) 0.0374(9)
C7_6 C 0.1467(9) 0.8606(9) 0.0206(12)
H4_6 H 0.190143 0.746052 0.0744111
H5_6 H 0.194588 0.898554 0.0452487
C3_6 C 0.0218(6) 0.7654(6) 0.9640(6)
C6_6 C 0.0245(6) 0.8496(6) 0.9457(6)
C8_6 C 0.0883(7) 0.8979(9) 0.9720(10)
O15_4 O 0.1017(4) 0.4657(5) 0.8907(5)
H1_6 H 0.0922442 0.964325 0.954538
H2_6 H 0.0431349 0.919961 0.789424
C5_6 C 0.9503(7) 0.7118(7) 0.9443(7)
C9_6 C 0.9632(5) 0.8902(6) 0.8894(5)
C10_6 C 0.8864(6) 0.8941(6) 0.9175(6)
C11_6 C 0.9825(5) 0.9198(6) 0.8099(6)
C12_6 C 0.8288(5) 0.9278(6) 0.8629(6)
C13_6 C 0.9238(6) 0.9501(5) 0.7545(6)
C14_6 C 0.8478(5) 0.9526(5) 0.7814(6)
C15_6 C 0.7457(5) 0.9336(6) 0.8941(6)
C16_6 C 0.9495(5) 0.9737(6) 0.6654(5)
O8_4 O 0.8983(4) 0.9657(5) 0.6093(5)
H3_6 H 0.802368 0.974279 0.738117
H6_6 H 0.870877 0.871429 0.980865
C5_7 C 0.0497(7) 0.2118(7) 0.5557(7)
C9_7 C 0.0368(5) 0.3902(6) 0.6106(5)
C10_7 C 0.1136(6) 0.3941(6) 0.5825(6)
C11_7 C 0.0175(5) 0.4198(6) 0.6901(6)
C12_7 C 0.1712(5) 0.4278(6) 0.6371(6)
C13_7 C 0.0762(6) 0.4501(5) 0.7455(6)
C14_7 C 0.1522(5) 0.4526(5) 0.7186(6)
C15_7 C 0.2543(5) 0.4336(6) 0.6059(6)
C16_7 C 0.0505(5) 0.4737(6) 0.8346(5)
H3_7 H 0.197632 0.474279 0.761883
H6_7 H 0.129123 0.371429 0.519135
O1_7 O 0.8526(4) 0.0988(5) 0.4481(5)
C1_7 C 0.9115(5) 0.1325(7) 0.4764(6)
C2_7 C 0.9160(6) 0.2255(6) 0.4908(6)
C3_7 C 0.9782(6) 0.2654(6) 0.5360(6)
C4_7 C 0.8565(8) 0.2749(8) 0.4626(9)
C6_7 C 0.9755(6) 0.3496(6) 0.5543(6)
C7_7 C 0.8533(9) 0.3606(9) 0.4794(12)
C8_7 C 0.9117(7) 0.3979(9) 0.5280(10)
H1_7 H 0.907756 0.464325 0.545462
H2_7 H 0.956865 0.419961 0.710576
H4_7 H 0.809857 0.246052 0.425589
H5_7 H 0.805412 0.398554 0.454751
O1_8 O 0.6474(4) 0.4012(5) 0.4481(5)
C1_8 C 0.5885(5) 0.3675(7) 0.4764(6)
C2_8 C 0.5840(6) 0.2745(6) 0.4908(6)
C3_8 C 0.5218(6) 0.2346(6) 0.5360(6)
C4_8 C 0.6435(8) 0.2251(8) 0.4626(9)
C5_8 C 0.4503(7) 0.2882(7) 0.5557(7)
C6_8 C 0.5245(6) 0.1504(6) 0.5543(6)
C7_8 C 0.6467(9) 0.1394(9) 0.4794(12)
C8_8 C 0.5883(7) 0.1021(9) 0.5280(10)
C9_8 C 0.4632(5) 0.1098(6) 0.6106(5)
C10_8 C 0.3864(6) 0.1059(6) 0.5825(6)
C11_8 C 0.4825(5) 0.0802(6) 0.6901(6)
C12_8 C 0.3288(5) 0.0722(6) 0.6371(6)
C13_8 C 0.4238(6) 0.0499(5) 0.7455(6)
C14_8 C 0.3478(5) 0.0474(5) 0.7186(6)
C15_8 C 0.2457(5) 0.0664(6) 0.6059(6)
C16_8 C 0.4495(5) 0.0263(6) 0.8346(5)
H1_8 H 0.592244 0.035675 0.545462
H2_8 H 0.543135 0.080039 0.710576
H3_8 H 0.302368 0.0257206 0.761883
H4_8 H 0.690143 0.253948 0.425589
H5_8 H 0.694588 0.101446 0.454751
H6_8 H 0.370877 0.128571 0.519135
loop_
_geom_bond_atom_site_label_1
_geom_bond_atom_site_label_2
_geom_bond_site_symmetry_1
_geom_bond_site_symmetry_2
O3 C5 1_555 1_555
C5 C3 1_555 1_555
C6 C3 1_555 1_555
C8 C6 1_555 1_555
C9 C6 1_555 1_555
C10 C9 1_555 1_555
C11 C9 1_555 1_555
C12 C10 1_555 1_555
C13 C11 1_555 1_555
C14 C12 1_555 1_555
C15 C12 1_555 1_555
C16 C13 1_555 1_555
O5 C15 1_555 1_555
O6 C15 1_555 1_555
O7 C16 1_555 1_555
O8 C16 1_555 1_555
Tb2 O8 1_555 1_555
Tb4 O5 1_555 1_555
Tb5 O7 1_555 1_555
O3 Tb3 1_555 1_555
C13 C14 1_555 1_555
O6 Tb4 1_555 1_555
C8 H1 1_555 1_555
C11 H2 1_555 1_555
C14 H3 1_555 1_555
C10 H6 1_555 1_555
O1 C1 1_555 1_555
C1 O2 1_555 1_555
C2 C1 1_555 1_555
C4 C2 1_555 1_555
C7 C4 1_555 1_555
C4 H4 1_555 1_555
C7 H5 1_555 1_555
O10 Tb1 1_555 1_555
O12 Tb1 1_555 1_555
O13 Tb1 1_555 1_555
O14 Tb1 1_555 1_555
O3_2 C5_2 1_555 1_555
C10_2 C9_2 1_555 1_555
C11_2 C9_2 1_555 1_555
C12_2 C10_2 1_555 1_555
C13_2 C11_2 1_555 1_555
C14_2 C12_2 1_555 1_555
C15_2 C12_2 1_555 1_555
C16_2 C13_2 1_555 1_555
O5_2 C15_2 1_555 1_555
O6_2 C15_2 1_555 1_555
O8_2 C16_2 1_555 1_555
Tb2_2 O8_2 1_555 1_555
Tb3 O5_2 1_555 1_555
O3_2 Tb4 1_555 1_555
C13_2 C14_2 1_555 1_555
O6_2 Tb3 1_555 1_555
Tb4 O9_2 1_555 1_555
C14_2 H3_2 1_555 1_555
C10_2 H6_2 1_555 1_555
C6_2 C3_2 1_555 1_555
C8_2 C6_2 1_555 1_555
C8_2 H1_2 1_555 1_555
Tb1_2 O1_2 1_555 1_555
O1_2 C1_2 1_555 1_555
O2_2 Tb1_2 1_555 1_555
C1_2 O2_2 1_555 1_555
C2_2 C1_2 1_555 1_555
C4_2 C2_2 1_555 1_555
C7_2 C4_2 1_555 1_555
O10_2 Tb1_2 1_555 1_555
O12_2 Tb1_2 1_555 1_555
O13_2 Tb1_2 1_555 1_555
O14_2 Tb1_2 1_555 1_555
C4_2 H4_2 1_555 1_555
C7_2 H5_2 1_555 1_555
Tb5_2 O7_2 1_555 1_555
O10_3 Tb2_2 1_555 1_555
O11_3 Tb2_2 1_555 1_555
O12_3 Tb2_2 1_555 1_555
O13_3 Tb2_2 1_555 1_555
O14_3 Tb2_2 1_555 1_555
O1_3 C1_3 1_555 1_555
C1_3 O2_3 1_555 1_555
C2_3 C1_3 1_555 1_555
C3_3 C2_3 1_555 1_555
C4_3 C2_3 1_555 1_555
C6_3 C3_3 1_555 1_555
C7_3 C4_3 1_555 1_555
C8_3 C6_3 1_555 1_555
Tb4 O7_3 1_555 1_555
C7_3 C8_3 1_555 1_555
C8_3 H1_3 1_555 1_555
C4_3 H4_3 1_555 1_555
C7_3 H5_3 1_555 1_555
O3_3 C5_3 1_555 1_555
O4_3 C5_3 1_555 1_555
C10_3 C9_3 1_555 1_555
C11_3 C9_3 1_555 1_555
C12_3 C10_3 1_555 1_555
C13_3 C11_3 1_555 1_555
C14_3 C12_3 1_555 1_555
C15_3 C12_3 1_555 1_555
C16_3 C13_3 1_555 1_555
O5_3 C15_3 1_555 1_555
O6_3 C15_3 1_555 1_555
O15_2 C16_3 1_555 1_555
Tb5 O5_3 1_555 1_555
O3_3 Tb5_2 1_555 1_555
O4_3 Tb5_2 1_555 1_555
C13_3 C14_3 1_555 1_555
O6_3 Tb5 1_555 1_555
C14_3 H3_3 1_555 1_555
C10_3 H6_3 1_555 1_555
Tb3 O7_4 1_555 1_555
Tb2 O1_4 1_555 1_555
O1_4 C1_4 1_555 1_555
O2_4 Tb2 1_555 1_555
C1_4 O2_4 1_555 1_555
C2_4 C1_4 1_555 1_555
O3_4 C5_4 1_555 1_555
O4_4 C5_4 1_555 1_555
C3_4 C2_4 1_555 1_555
C4_4 C2_4 1_555 1_555
C5_4 C3_4 1_555 1_555
C6_4 C3_4 1_555 1_555
C7_4 C4_4 1_555 1_555
C8_4 C6_4 1_555 1_555
C9_4 C6_4 1_555 1_555
C10_4 C9_4 1_555 1_555
C11_4 C9_4 1_555 1_555
C12_4 C10_4 1_555 1_555
C13_4 C11_4 1_555 1_555
C14_4 C12_4 1_555 1_555
C15_4 C12_4 1_555 1_555
C16_4 C13_4 1_555 1_555
O5_4 C15_4 1_555 1_555
O6_4 C15_4 1_555 1_555
O15 C16_4 1_555 1_555
Tb5 O2_4 1_555 1_555
Tb5_2 O5_4 1_555 1_555
O9_4 Tb2 1_555 1_555
O10_4 Tb2 1_555 1_555
O11_4 Tb2 1_555 1_555
O12_4 Tb2 1_555 1_555
O13_4 Tb2 1_555 1_555
O14_4 Tb2 1_555 1_555
O3_4 Tb5 1_555 1_555
O4_4 Tb5 1_555 1_555
C7_4 C8_4 1_555 1_555
C13_4 C14_4 1_555 1_555
O6_4 Tb5_2 1_555 1_555
Tb5 O9_4 1_555 1_555
C8_4 H1_4 1_555 1_555
C11_4 H2_4 1_555 1_555
C14_4 H3_4 1_555 1_555
C4_4 H4_4 1_555 1_555
C7_4 H5_4 1_555 1_555
C10_4 H6_4 1_555 1_555
O1_5 C1_5 1_555 1_555
C1_5 O9 1_555 1_555
C2_5 C1_5 1_555 1_555
C4_5 C2_5 1_555 1_555
C7_5 C4_5 1_555 1_555
C4_5 H4_5 1_555 1_555
C7_5 H5_5 1_555 1_555
O10 C5_5 1_555 1_555
C5_5 C3_5 1_555 1_555
C6_5 C3_5 1_555 1_555
C8_5 C6_5 1_555 1_555
C9_5 C6_5 1_555 1_555
C10_5 C9_5 1_555 1_555
C11_5 C9_5 1_555 1_555
C12_5 C10_5 1_555 1_555
C13_5 C11_5 1_555 1_555
C14_5 C12_5 1_555 1_555
C15_5 C12_5 1_555 1_555
C16_5 C13_5 1_555 1_555
O12_2 C15_5 1_555 1_555
O13_2 C15_5 1_555 1_555
O14_4 C16_5 1_555 1_555
O8_3 C16_5 1_555 1_555
Tb5 O8_3 1_555 1_555
C13_5 C14_5 1_555 1_555
C8_5 H1_5 1_555 1_555
C11_5 H2_5 1_555 1_555
C14_5 H3_5 1_555 1_555
C10_5 H6_5 1_555 1_555
Tb4 O1_6 1_555 1_555
O1_6 C1_6 1_555 1_555
C1_6 O9_2 1_555 1_555
C2_6 C1_6 1_555 1_555
C4_6 C2_6 1_555 1_555
C7_6 C4_6 1_555 1_555
C4_6 H4_6 1_555 1_555
C7_6 H5_6 1_555 1_555
C6_6 C3_6 1_555 1_555
C8_6 C6_6 1_555 1_555
C8_6 H1_6 1_555 1_555
O10_2 C5_6 1_555 1_555
C10_6 C9_6 1_555 1_555
C11_6 C9_6 1_555 1_555
C12_6 C10_6 1_555 1_555
C13_6 C11_6 1_555 1_555
C14_6 C12_6 1_555 1_555
C15_6 C12_6 1_555 1_555
C16_6 C13_6 1_555 1_555
O12 C15_6 1_555 1_555
O13 C15_6 1_555 1_555
O8_4 C16_6 1_555 1_555
Tb5_2 O8_4 1_555 1_555
C13_6 C14_6 1_555 1_555
C14_6 H3_6 1_555 1_555
C10_6 H6_6 1_555 1_555
O10_3 C5_7 1_555 1_555
O11_3 C5_7 1_555 1_555
C10_7 C9_7 1_555 1_555
C11_7 C9_7 1_555 1_555
C12_7 C10_7 1_555 1_555
C13_7 C11_7 1_555 1_555
C14_7 C12_7 1_555 1_555
C15_7 C12_7 1_555 1_555
C16_7 C13_7 1_555 1_555
O12_4 C15_7 1_555 1_555
O13_4 C15_7 1_555 1_555
O15_4 C16_7 1_555 1_555
C13_7 C14_7 1_555 1_555
C14_7 H3_7 1_555 1_555
C10_7 H6_7 1_555 1_555
O1_7 C1_7 1_555 1_555
C1_7 O9_3 1_555 1_555
C2_7 C1_7 1_555 1_555
C3_7 C2_7 1_555 1_555
C4_7 C2_7 1_555 1_555
C6_7 C3_7 1_555 1_555
C7_7 C4_7 1_555 1_555
C8_7 C6_7 1_555 1_555
C7_7 C8_7 1_555 1_555
C8_7 H1_7 1_555 1_555
C4_7 H4_7 1_555 1_555
C7_7 H5_7 1_555 1_555
Tb5 O1_8 1_555 1_555
O1_8 C1_8 1_555 1_555
C1_8 O9_4 1_555 1_555
C2_8 C1_8 1_555 1_555
O10_4 C5_8 1_555 1_555
O11_4 C5_8 1_555 1_555
C3_8 C2_8 1_555 1_555
C4_8 C2_8 1_555 1_555
C5_8 C3_8 1_555 1_555
C6_8 C3_8 1_555 1_555
C7_8 C4_8 1_555 1_555
C8_8 C6_8 1_555 1_555
C9_8 C6_8 1_555 1_555
C10_8 C9_8 1_555 1_555
C11_8 C9_8 1_555 1_555
C12_8 C10_8 1_555 1_555
C13_8 C11_8 1_555 1_555
C14_8 C12_8 1_555 1_555
C15_8 C12_8 1_555 1_555
C16_8 C13_8 1_555 1_555
O12_3 C15_8 1_555 1_555
O13_3 C15_8 1_555 1_555
O15_3 C16_8 1_555 1_555
C7_8 C8_8 1_555 1_555
C13_8 C14_8 1_555 1_555
C8_8 H1_8 1_555 1_555
C11_8 H2_8 1_555 1_555
C14_8 H3_8 1_555 1_555
C4_8 H4_8 1_555 1_555
C7_8 H5_8 1_555 1_555
C10_8 H6_8 1_555 1_555

#END
