
###############################################################################
#
# This file contains modified crystal structure data generated from the
# MOF subset of the Cambridge Structural Database (CSD) v543 
# hosted by the Cambridge Crystallographic Data Centre (CCDC).
#
# This work is licensed under the Creative Commons
# Attribution-NonCommercial-ShareAlike 4.0 International License.
# To view a copy of this license, visit
# http://creativecommons.org/licenses/by-nc-sa/4.0/
# or send a letter to
# Creative Commons, PO Box 1866, Mountain View, CA 94042, USA.
#
# CIF created using the CSD Python API on 29 September 2022
# The structure has been converted into the P1 space group
# The structure has a 3D framework
# The original CSD entry SOQSAU01 is in the cubic crystal system
# The framework has been calculated to contain at least 10.0% void space
# The void calculation uses a probe of radius 1.32A, grid spacing 0.4
#
###############################################################################

data_SOQSAU01
_chemical_formula_moiety         '(C360 H144 O118 Zr18)n'
_symmetry_cell_setting           triclinic
_symmetry_space_group_name_H-M   'P 1'
_symmetry_Int_Tables_number      1
_space_group_name_Hall           'P 1'
loop_
_symmetry_equiv_pos_site_id
_symmetry_equiv_pos_as_xyz
1 x,y,z
_cell_length_a                   26.070(3)
_cell_length_b                   26.070(3)
_cell_length_c                   26.070(3)
_cell_angle_alpha                90
_cell_angle_beta                 90
_cell_angle_gamma                90
_cell_volume                     17718.3
loop_
_atom_site_label
_atom_site_type_symbol
_atom_site_fract_x
_atom_site_fract_y
_atom_site_fract_z
Zr1 Zr 0.40791(2) 0.01568(2) 0.51868(2)
O1 O 0.45586(10) 0.06235(12) 0.47131(8)
O2 O 0.35524(8) 0.03554(8) 0.45453(8)
O3 O 0.40569(8) 0.03656(8) 0.38204(8)
O6 O 0.04883(8) 0.01579(8) 0.14648(8)
O7 O 0.29844(16) 0.0103(4) 0.20590(18)
C1 C 0.36273(11) 0.03699(12) 0.40587(11)
C2 C 0.31512(13) 0.03907(18) 0.37339(14)
C3 C 0.26798(16) 0.0473(3) 0.39612(17)
H1 H 0.2659 0.0520 0.4314
C4 C 0.22344(18) 0.0486(4) 0.36632(19)
H2 H 0.1921 0.0571 0.3811
C5 C 0.22659(16) 0.0374(3) 0.31509(17)
C6 C 0.27421(15) 0.0288(2) 0.29249(15)
C7 C 0.31899(14) 0.0297(2) 0.32100(14)
H3 H 0.3507 0.0241 0.3056
C8 C 0.26683(16) 0.0178(3) 0.23655(17)
C9 C 0.09655(11) 0.00749(13) 0.14038(11)
C10 C 0.21013(15) 0.0197(2) 0.22858(15)
C11 C 0.18662(16) 0.0320(3) 0.27485(17)
C12 C 0.13451(19) 0.0381(4) 0.2778(2)
H4 H 0.1190 0.0496 0.3078
C13 C 0.12892(14) 0.01545(18) 0.18729(13)
C14 C 0.10499(17) 0.0264(3) 0.23394(17)
H5 H 0.0694 0.0260 0.2361
C15 C 0.18200(15) 0.01150(19) 0.18427(14)
H6 H 0.1981 0.0036 0.1534
Zr11 Zr 0.51868(2) 0.09209(2) 0.51568(2)
Zr13 Zr 0.48432(2) 0.01868(2) 0.40791(2)
O23 O 0.47131(8) 0.04414(10) 0.56235(12)
O27 O 0.38204(8) 0.09431(8) 0.53656(8)
O29 O 0.38052(8) 0.00735(9) 0.59960(8)
O32 O 0.04717(14) 0.04717(14) 0.04717(14)
O4 O 0.11948(8) 0.99265(9) 0.09960(8)
O5 O 0.45283(14) 0.95283(14) 0.54717(14)
O8 O 0.02869(8) 0.54414(10) 0.56235(12)
O9 O 0.04547(8) 0.64476(8) 0.53554(8)
O10 O 0.11796(8) 0.59431(8) 0.53656(8)
O11 O 0.40040(8) 0.88052(8) 0.49265(9)
O12 O 0.35352(8) 0.95117(8) 0.51579(8)
O13 O 0.29410(18) 0.70156(16) 0.5103(4)
C16 C 0.09413(11) 0.63727(11) 0.53699(12)
C17 C 0.12661(14) 0.68488(13) 0.53907(18)
C18 C 0.10388(17) 0.73202(16) 0.5473(3)
H7 H 0.0686 0.7341 0.5520
C19 C 0.13368(19) 0.77656(18) 0.5486(4)
H8 H 0.1189 0.8079 0.5571
C20 C 0.18491(17) 0.77341(16) 0.5374(3)
C21 C 0.20751(15) 0.72579(15) 0.5288(2)
C22 C 0.17900(14) 0.68101(14) 0.5297(2)
H9 H 0.1944 0.6493 0.5241
C23 C 0.26345(17) 0.73317(16) 0.5178(3)
C24 C 0.35962(11) 0.90345(11) 0.50749(13)
C25 C 0.27142(15) 0.78987(15) 0.5197(2)
C26 C 0.22515(17) 0.81338(16) 0.5320(3)
C27 C 0.2222(2) 0.86549(19) 0.5381(4)
H10 H 0.1922 0.8810 0.5496
C28 C 0.31271(13) 0.87108(14) 0.51545(18)
C29 C 0.26606(17) 0.89501(17) 0.5264(3)
H11 H 0.2639 0.9306 0.5260
C30 C 0.31573(14) 0.81800(15) 0.51150(19)
H12 H 0.3466 0.8019 0.5036
O17 O 0.00735(9) 0.59960(8) 0.38052(8)
Zr4 Zr 0.09209(2) 0.98432(2) 0.01868(2)
Zr5 Zr 0.48132(2) 0.90791(2) 0.48432(2)
Zr6 Zr 0.01568(2) 0.51868(2) 0.40791(2)
Zr7 Zr 0.51568(2) 0.98132(2) 0.59209(2)
Zr9 Zr 0.09209(2) 0.51568(2) 0.51868(2)
O21 O 0.04414(10) 0.56235(12) 0.47131(8)
O22 O 0.02869(8) 0.95586(10) 0.06235(12)
O25 O 0.43765(12) 0.97131(8) 0.45586(10)
Zr3 Zr 0.98432(2) 0.01868(2) 0.09209(2)
O20 O 0.95586(10) 0.06235(12) 0.02869(8)
O26 O 0.90569(8) 0.03656(8) 0.11796(8)
O31 O 0.99265(9) 0.09960(8) 0.11948(8)
Zr8 Zr 0.90791(2) 0.01568(2) 0.98132(2)
Zr2 Zr 0.98132(2) 0.59209(2) 0.51568(2)
O14 O 0.93765(12) 0.97131(8) 0.04414(10)
O15 O 0.96446(8) 0.95453(8) 0.14476(8)
O16 O 0.96344(8) 0.88204(8) 0.09431(8)
O18 O 0.98421(8) 0.64648(8) 0.45117(8)
O19 O 0.9897(4) 0.70590(18) 0.20156(16)
C31 C 0.96301(12) 0.90587(11) 0.13727(11)
C32 C 0.96093(18) 0.87339(14) 0.18488(13)
C33 C 0.9527(3) 0.89612(17) 0.23202(16)
H13 H 0.9480 0.9314 0.2341
C34 C 0.9514(4) 0.86632(19) 0.27656(18)
H14 H 0.9429 0.8811 0.3079
C35 C 0.9626(3) 0.81509(17) 0.27341(16)
C36 C 0.9712(2) 0.79249(15) 0.22579(15)
C37 C 0.9703(2) 0.82100(14) 0.18101(14)
H15 H 0.9759 0.8056 0.1493
C38 C 0.9822(3) 0.73655(17) 0.23317(16)
C39 C 0.99251(13) 0.64038(11) 0.40345(11)
C40 C 0.9803(2) 0.72858(15) 0.28987(15)
C41 C 0.9680(3) 0.77485(17) 0.31338(16)
C42 C 0.9619(4) 0.7778(2) 0.36549(19)
H16 H 0.9504 0.8078 0.3810
C43 C 0.98455(18) 0.68729(13) 0.37108(14)
C44 C 0.9736(3) 0.73394(17) 0.39501(17)
H17 H 0.9740 0.7361 0.4306
C45 C 0.98850(19) 0.68427(14) 0.31800(15)
H18 H 0.9964 0.6534 0.3019
Zr10 Zr 0.98132(2) 0.90791(2) 0.01568(2)
Zr12 Zr 0.98432(2) 0.48132(2) 0.59209(2)
O24 O 0.93765(12) 0.52869(8) 0.54414(10)
O28 O 0.96344(8) 0.61796(8) 0.59431(8)
O30 O 0.90040(8) 0.61948(8) 0.50735(9)
O33 O 0.95283(14) 0.54717(14) 0.45283(14)
Zr2_2 Zr 0.51868(2) 0.40791(2) 0.01568(2)
O8_2 O 0.47131(8) 0.45586(10) 0.06235(12)
O9_2 O 0.45453(8) 0.35524(8) 0.03554(8)
O10_2 O 0.38204(8) 0.40569(8) 0.03656(8)
O12_2 O 0.14648(8) 0.04883(8) 0.01579(8)
O13_2 O 0.20590(18) 0.29844(16) 0.0103(4)
C16_2 C 0.40587(11) 0.36273(11) 0.03699(12)
C17_2 C 0.37339(14) 0.31512(13) 0.03907(18)
C18_2 C 0.39612(17) 0.26798(16) 0.0473(3)
H7_2 H 0.4314 0.2659 0.0520
C19_2 C 0.36632(19) 0.22344(18) 0.0486(4)
H8_2 H 0.3811 0.1921 0.0571
C20_2 C 0.31509(17) 0.22659(16) 0.0374(3)
C21_2 C 0.29249(15) 0.27421(15) 0.0288(2)
C22_2 C 0.32100(14) 0.31899(14) 0.0297(2)
H9_2 H 0.3056 0.3507 0.0241
C23_2 C 0.23655(17) 0.26683(16) 0.0178(3)
C24_2 C 0.14038(11) 0.09655(11) 0.00749(13)
C25_2 C 0.22858(15) 0.21013(15) 0.0197(2)
C26_2 C 0.27485(17) 0.18662(16) 0.0320(3)
C27_2 C 0.2778(2) 0.13451(19) 0.0381(4)
H10_2 H 0.3078 0.1190 0.0496
C28_2 C 0.18729(13) 0.12892(14) 0.01545(18)
C29_2 C 0.23394(17) 0.10499(17) 0.0264(3)
H11_2 H 0.2361 0.0694 0.0260
C30_2 C 0.18427(14) 0.18200(15) 0.01150(19)
H12_2 H 0.1534 0.1981 0.0036
Zr9_2 Zr 0.40791(2) 0.48432(2) 0.01868(2)
Zr12_2 Zr 0.51568(2) 0.51868(2) 0.09209(2)
O24_2 O 0.56235(12) 0.47131(8) 0.04414(10)
O28_2 O 0.53656(8) 0.38204(8) 0.09431(8)
O30_2 O 0.59960(8) 0.38052(8) 0.00735(9)
O11_2 O 0.09960(8) 0.11948(8) 0.99265(9)
O14_2 O 0.56235(12) 0.02869(8) 0.54414(10)
O15_2 O 0.53554(8) 0.04547(8) 0.64476(8)
O16_2 O 0.53656(8) 0.11796(8) 0.59431(8)
O17_2 O 0.49265(9) 0.40040(8) 0.88052(8)
O18_2 O 0.51579(8) 0.35352(8) 0.95117(8)
O19_2 O 0.5103(4) 0.29410(18) 0.70156(16)
C31_2 C 0.53699(12) 0.09413(11) 0.63727(11)
C32_2 C 0.53907(18) 0.12661(14) 0.68488(13)
C33_2 C 0.5473(3) 0.10388(17) 0.73202(16)
H13_2 H 0.5520 0.0686 0.7341
C34_2 C 0.5486(4) 0.13368(19) 0.77656(18)
H14_2 H 0.5571 0.1189 0.8079
C35_2 C 0.5374(3) 0.18491(17) 0.77341(16)
C36_2 C 0.5288(2) 0.20751(15) 0.72579(15)
C37_2 C 0.5297(2) 0.17900(14) 0.68101(14)
H15_2 H 0.5241 0.1944 0.6493
C38_2 C 0.5178(3) 0.26345(17) 0.73317(16)
C39_2 C 0.50749(13) 0.35962(11) 0.90345(11)
C40_2 C 0.5197(2) 0.27142(15) 0.78987(15)
C41_2 C 0.5320(3) 0.22515(17) 0.81338(16)
C42_2 C 0.5381(4) 0.2222(2) 0.86549(19)
H16_2 H 0.5496 0.1922 0.8810
C43_2 C 0.51545(18) 0.31271(13) 0.87108(14)
C44_2 C 0.5264(3) 0.26606(17) 0.89501(17)
H17_2 H 0.5260 0.2639 0.9306
C45_2 C 0.51150(19) 0.31573(14) 0.81800(15)
H18_2 H 0.5036 0.3466 0.8019
Zr5_2 Zr 0.01868(2) 0.09209(2) 0.98432(2)
Zr6_2 Zr 0.48432(2) 0.48132(2) 0.90791(2)
O21_2 O 0.45586(10) 0.43765(12) 0.97131(8)
O25_2 O 0.06235(12) 0.02869(8) 0.95586(10)
O33_2 O 0.54717(14) 0.45283(14) 0.95283(14)
O27_2 O 0.11796(8) 0.90569(8) 0.03656(8)
O1_2 O 0.04414(10) 0.93765(12) 0.97131(8)
O2_2 O 0.14476(8) 0.96446(8) 0.95453(8)
O3_2 O 0.09431(8) 0.96344(8) 0.88204(8)
O6_2 O 0.45117(8) 0.98421(8) 0.64648(8)
O7_2 O 0.20156(16) 0.9897(4) 0.70590(18)
C1_2 C 0.13727(11) 0.96301(12) 0.90587(11)
C2_2 C 0.18488(13) 0.96093(18) 0.87339(14)
C3_2 C 0.23202(16) 0.9527(3) 0.89612(17)
H1_2 H 0.2341 0.9480 0.9314
C4_2 C 0.27656(18) 0.9514(4) 0.86632(19)
H2_2 H 0.3079 0.9429 0.8811
C5_2 C 0.27341(16) 0.9626(3) 0.81509(17)
C6_2 C 0.22579(15) 0.9712(2) 0.79249(15)
C7_2 C 0.18101(14) 0.9703(2) 0.82100(14)
H3_2 H 0.1493 0.9759 0.8056
C8_2 C 0.23317(16) 0.9822(3) 0.73655(17)
C9_2 C 0.40345(11) 0.99251(13) 0.64038(11)
C10_2 C 0.28987(15) 0.9803(2) 0.72858(15)
C11_2 C 0.31338(16) 0.9680(3) 0.77485(17)
C12_2 C 0.36549(19) 0.9619(4) 0.7778(2)
H4_2 H 0.3810 0.9504 0.8078
C13_2 C 0.37108(14) 0.98455(18) 0.68729(13)
C14_2 C 0.39501(17) 0.9736(3) 0.73394(17)
H5_2 H 0.4306 0.9740 0.7361
C15_2 C 0.31800(15) 0.98850(19) 0.68427(14)
H6_2 H 0.3019 0.9964 0.6534
Zr8_2 Zr 0.59209(2) 0.98432(2) 0.48132(2)
Zr13_2 Zr 0.01568(2) 0.98132(2) 0.90791(2)
O20_2 O 0.54414(10) 0.93765(12) 0.52869(8)
O26_2 O 0.59431(8) 0.96344(8) 0.61796(8)
O31_2 O 0.50735(9) 0.90040(8) 0.61948(8)
Zr11_2 Zr 0.01868(2) 0.40791(2) 0.48432(2)
Zr1_2 Zr 0.90791(2) 0.48432(2) 0.48132(2)
O1_3 O 0.95586(10) 0.43765(12) 0.52869(8)
O2_3 O 0.85524(8) 0.46446(8) 0.54547(8)
O3_3 O 0.90569(8) 0.46344(8) 0.61796(8)
O4_2 O 0.61948(8) 0.50735(9) 0.90040(8)
O6_3 O 0.54883(8) 0.48421(8) 0.85352(8)
O7_3 O 0.79844(16) 0.4897(4) 0.79410(18)
C1_3 C 0.86273(11) 0.46301(12) 0.59413(11)
C2_3 C 0.81512(13) 0.46093(18) 0.62661(14)
C3_3 C 0.76798(16) 0.4527(3) 0.60388(17)
H1_3 H 0.7659 0.4480 0.5686
C4_3 C 0.72344(18) 0.4514(4) 0.63368(19)
H2_3 H 0.6921 0.4429 0.6189
C5_3 C 0.72659(16) 0.4626(3) 0.68491(17)
C6_3 C 0.77421(15) 0.4712(2) 0.70751(15)
C7_3 C 0.81899(14) 0.4703(2) 0.67900(14)
H3_3 H 0.8507 0.4759 0.6944
C8_3 C 0.76683(16) 0.4822(3) 0.76345(17)
C9_3 C 0.59655(11) 0.49251(13) 0.85962(11)
C10_3 C 0.71013(15) 0.4803(2) 0.77142(15)
C11_3 C 0.68662(16) 0.4680(3) 0.72515(17)
C12_3 C 0.63451(19) 0.4619(4) 0.7222(2)
H4_3 H 0.6190 0.4504 0.6922
C13_3 C 0.62892(14) 0.48455(18) 0.81271(13)
C14_3 C 0.60499(17) 0.4736(3) 0.76606(17)
H5_3 H 0.5694 0.4740 0.7639
C15_3 C 0.68200(15) 0.48850(19) 0.81573(14)
H6_3 H 0.6981 0.4964 0.8466
O8_3 O 0.52869(8) 0.95586(10) 0.43765(12)
O9_3 O 0.54547(8) 0.85524(8) 0.46446(8)
O10_3 O 0.61796(8) 0.90569(8) 0.46344(8)
O12_3 O 0.85352(8) 0.54883(8) 0.48421(8)
O13_3 O 0.79410(18) 0.79844(16) 0.4897(4)
C16_3 C 0.59413(11) 0.86273(11) 0.46301(12)
C17_3 C 0.62661(14) 0.81512(13) 0.46093(18)
C18_3 C 0.60388(17) 0.76798(16) 0.4527(3)
H7_3 H 0.5686 0.7659 0.4480
C19_3 C 0.63368(19) 0.72344(18) 0.4514(4)
H8_3 H 0.6189 0.6921 0.4429
C20_3 C 0.68491(17) 0.72659(16) 0.4626(3)
C21_3 C 0.70751(15) 0.77421(15) 0.4712(2)
C22_3 C 0.67900(14) 0.81899(14) 0.4703(2)
H9_3 H 0.6944 0.8507 0.4759
C23_3 C 0.76345(17) 0.76683(16) 0.4822(3)
C24_3 C 0.85962(11) 0.59655(11) 0.49251(13)
C25_3 C 0.77142(15) 0.71013(15) 0.4803(2)
C26_3 C 0.72515(17) 0.68662(16) 0.4680(3)
C27_3 C 0.7222(2) 0.63451(19) 0.4619(4)
H10_3 H 0.6922 0.6190 0.4504
C28_3 C 0.81271(13) 0.62892(14) 0.48455(18)
C29_3 C 0.76606(17) 0.60499(17) 0.4736(3)
H11_3 H 0.7639 0.5694 0.4740
C30_3 C 0.81573(14) 0.68200(15) 0.48850(19)
H12_3 H 0.8466 0.6981 0.4964
O14_3 O 0.43765(12) 0.52869(8) 0.95586(10)
O15_3 O 0.46446(8) 0.54547(8) 0.85524(8)
O16_3 O 0.46344(8) 0.61796(8) 0.90569(8)
O18_3 O 0.48421(8) 0.85352(8) 0.54883(8)
O19_3 O 0.4897(4) 0.79410(18) 0.79844(16)
C31_3 C 0.46301(12) 0.59413(11) 0.86273(11)
C32_3 C 0.46093(18) 0.62661(14) 0.81512(13)
C33_3 C 0.4527(3) 0.60388(17) 0.76798(16)
H13_3 H 0.4480 0.5686 0.7659
C34_3 C 0.4514(4) 0.63368(19) 0.72344(18)
H14_3 H 0.4429 0.6189 0.6921
C35_3 C 0.4626(3) 0.68491(17) 0.72659(16)
C36_3 C 0.4712(2) 0.70751(15) 0.77421(15)
C37_3 C 0.4703(2) 0.67900(14) 0.81899(14)
H15_3 H 0.4759 0.6944 0.8507
C38_3 C 0.4822(3) 0.76345(17) 0.76683(16)
C39_3 C 0.49251(13) 0.85962(11) 0.59655(11)
C40_3 C 0.4803(2) 0.77142(15) 0.71013(15)
C41_3 C 0.4680(3) 0.72515(17) 0.68662(16)
C42_3 C 0.4619(4) 0.7222(2) 0.63451(19)
H16_3 H 0.4504 0.6922 0.6190
C43_3 C 0.48455(18) 0.81271(13) 0.62892(14)
C44_3 C 0.4736(3) 0.76606(17) 0.60499(17)
H17_3 H 0.4740 0.7639 0.5694
C45_3 C 0.48850(19) 0.81573(14) 0.68200(15)
H18_3 H 0.4964 0.8466 0.6981
Zr4_2 Zr 0.59209(2) 0.51568(2) 0.98132(2)
Zr10_2 Zr 0.48132(2) 0.59209(2) 0.98432(2)
O22_2 O 0.52869(8) 0.54414(10) 0.93765(12)
O23_2 O 0.97131(8) 0.45586(10) 0.43765(12)
O26_3 O 0.40569(8) 0.46344(8) 0.88204(8)
O27_3 O 0.88204(8) 0.40569(8) 0.46344(8)
O28_3 O 0.46344(8) 0.88204(8) 0.40569(8)
O29_2 O 0.88052(8) 0.49265(9) 0.40040(8)
O14_4 O 0.06235(12) 0.47131(8) 0.45586(10)
O15_4 O 0.03554(8) 0.45453(8) 0.35524(8)
O16_4 O 0.03656(8) 0.38204(8) 0.40569(8)
O18_4 O 0.01579(8) 0.14648(8) 0.04883(8)
O19_4 O 0.0103(4) 0.20590(18) 0.29844(16)
C31_4 C 0.03699(12) 0.40587(11) 0.36273(11)
C32_4 C 0.03907(18) 0.37339(14) 0.31512(13)
C33_4 C 0.0473(3) 0.39612(17) 0.26798(16)
H13_4 H 0.0520 0.4314 0.2659
C34_4 C 0.0486(4) 0.36632(19) 0.22344(18)
H14_4 H 0.0571 0.3811 0.1921
C35_4 C 0.0374(3) 0.31509(17) 0.22659(16)
C36_4 C 0.0288(2) 0.29249(15) 0.27421(15)
C37_4 C 0.0297(2) 0.32100(14) 0.31899(14)
H15_4 H 0.0241 0.3056 0.3507
C38_4 C 0.0178(3) 0.23655(17) 0.26683(16)
C39_4 C 0.00749(13) 0.14038(11) 0.09655(11)
C40_4 C 0.0197(2) 0.22858(15) 0.21013(15)
C41_4 C 0.0320(3) 0.27485(17) 0.18662(16)
C42_4 C 0.0381(4) 0.2778(2) 0.13451(19)
H16_4 H 0.0496 0.3078 0.1190
C43_4 C 0.01545(18) 0.18729(13) 0.12892(14)
C44_4 C 0.0264(3) 0.23394(17) 0.10499(17)
H17_4 H 0.0260 0.2361 0.0694
C45_4 C 0.01150(19) 0.18427(14) 0.18200(15)
H18_4 H 0.0036 0.1534 0.1981
O26_4 O 0.09431(8) 0.53656(8) 0.38204(8)
O28_4 O 0.03656(8) 0.11796(8) 0.90569(8)
O1_4 O 0.54414(10) 0.56235(12) 0.02869(8)
O2_4 O 0.64476(8) 0.53554(8) 0.04547(8)
O3_4 O 0.59431(8) 0.53656(8) 0.11796(8)
O6_4 O 0.95117(8) 0.51579(8) 0.35352(8)
O7_4 O 0.70156(16) 0.5103(4) 0.29410(18)
C1_4 C 0.63727(11) 0.53699(12) 0.09413(11)
C2_4 C 0.68488(13) 0.53907(18) 0.12661(14)
C3_4 C 0.73202(16) 0.5473(3) 0.10388(17)
H1_4 H 0.7341 0.5520 0.0686
C4_4 C 0.77656(18) 0.5486(4) 0.13368(19)
H2_4 H 0.8079 0.5571 0.1189
C5_4 C 0.77341(16) 0.5374(3) 0.18491(17)
C6_4 C 0.72579(15) 0.5288(2) 0.20751(15)
C7_4 C 0.68101(14) 0.5297(2) 0.17900(14)
H3_4 H 0.6493 0.5241 0.1944
C8_4 C 0.73317(16) 0.5178(3) 0.26345(17)
C9_4 C 0.90345(11) 0.50749(13) 0.35962(11)
C10_4 C 0.78987(15) 0.5197(2) 0.27142(15)
C11_4 C 0.81338(16) 0.5320(3) 0.22515(17)
C12_4 C 0.86549(19) 0.5381(4) 0.2222(2)
H4_4 H 0.8810 0.5496 0.1922
C13_4 C 0.87108(14) 0.51545(18) 0.31271(13)
C14_4 C 0.89501(17) 0.5264(3) 0.26606(17)
H5_4 H 0.9306 0.5260 0.2639
C15_4 C 0.81800(15) 0.51150(19) 0.31573(14)
H6_4 H 0.8019 0.5036 0.3466
O8_4 O 0.97131(8) 0.04414(10) 0.93765(12)
O9_4 O 0.95453(8) 0.14476(8) 0.96446(8)
O10_4 O 0.88204(8) 0.09431(8) 0.96344(8)
O12_4 O 0.64648(8) 0.45117(8) 0.98421(8)
O13_4 O 0.70590(18) 0.20156(16) 0.9897(4)
C16_4 C 0.90587(11) 0.13727(11) 0.96301(12)
C17_4 C 0.87339(14) 0.18488(13) 0.96093(18)
C18_4 C 0.89612(17) 0.23202(16) 0.9527(3)
H7_4 H 0.9314 0.2341 0.9480
C19_4 C 0.86632(19) 0.27656(18) 0.9514(4)
H8_4 H 0.8811 0.3079 0.9429
C20_4 C 0.81509(17) 0.27341(16) 0.9626(3)
C21_4 C 0.79249(15) 0.22579(15) 0.9712(2)
C22_4 C 0.82100(14) 0.18101(14) 0.9703(2)
H9_4 H 0.8056 0.1493 0.9759
C23_4 C 0.73655(17) 0.23317(16) 0.9822(3)
C24_4 C 0.64038(11) 0.40345(11) 0.99251(13)
C25_4 C 0.72858(15) 0.28987(15) 0.9803(2)
C26_4 C 0.77485(17) 0.31338(16) 0.9680(3)
C27_4 C 0.7778(2) 0.36549(19) 0.9619(4)
H10_4 H 0.8078 0.3810 0.9504
C28_4 C 0.68729(13) 0.37108(14) 0.98455(18)
C29_4 C 0.73394(17) 0.39501(17) 0.9736(3)
H11_4 H 0.7361 0.4306 0.9740
C30_4 C 0.68427(14) 0.31800(15) 0.98850(19)
H12_4 H 0.6534 0.3019 0.9964
O27_4 O 0.61796(8) 0.59431(8) 0.96344(8)
O15_5 O 0.03554(8) 0.04547(8) 0.85524(8)
O18_5 O 0.01579(8) 0.35352(8) 0.54883(8)
O19_5 O 0.0103(4) 0.29410(18) 0.79844(16)
C31_5 C 0.03699(12) 0.09413(11) 0.86273(11)
C32_5 C 0.03907(18) 0.12661(14) 0.81512(13)
C33_5 C 0.0473(3) 0.10388(17) 0.76798(16)
H13_5 H 0.0520 0.0686 0.7659
C34_5 C 0.0486(4) 0.13368(19) 0.72344(18)
H14_5 H 0.0571 0.1189 0.6921
C35_5 C 0.0374(3) 0.18491(17) 0.72659(16)
C36_5 C 0.0288(2) 0.20751(15) 0.77421(15)
C37_5 C 0.0297(2) 0.17900(14) 0.81899(14)
H15_5 H 0.0241 0.1944 0.8507
C38_5 C 0.0178(3) 0.26345(17) 0.76683(16)
C39_5 C 0.00749(13) 0.35962(11) 0.59655(11)
C40_5 C 0.0197(2) 0.27142(15) 0.71013(15)
C41_5 C 0.0320(3) 0.22515(17) 0.68662(16)
C42_5 C 0.0381(4) 0.2222(2) 0.63451(19)
H16_5 H 0.0496 0.1922 0.6190
C43_5 C 0.01545(18) 0.31271(13) 0.62892(14)
C44_5 C 0.0264(3) 0.26606(17) 0.60499(17)
H17_5 H 0.0260 0.2639 0.5694
C45_5 C 0.01150(19) 0.31573(14) 0.68200(15)
H18_5 H 0.0036 0.3466 0.6981
O30_3 O 0.09960(8) 0.38052(8) 0.49265(9)
O33_3 O 0.04717(14) 0.45283(14) 0.54717(14)
O31_3 O 0.00735(9) 0.90040(8) 0.88052(8)
O4_3 O 0.88052(8) 0.00735(9) 0.90040(8)
O5_2 O 0.54717(14) 0.04717(14) 0.45283(14)
O9_5 O 0.95453(8) 0.35524(8) 0.46446(8)
O11_3 O 0.59960(8) 0.11948(8) 0.50735(9)
O12_5 O 0.64648(8) 0.04883(8) 0.48421(8)
O13_5 O 0.70590(18) 0.29844(16) 0.4897(4)
C16_5 C 0.90587(11) 0.36273(11) 0.46301(12)
C17_5 C 0.87339(14) 0.31512(13) 0.46093(18)
C18_5 C 0.89612(17) 0.26798(16) 0.4527(3)
H7_5 H 0.9314 0.2659 0.4480
C19_5 C 0.86632(19) 0.22344(18) 0.4514(4)
H8_5 H 0.8811 0.1921 0.4429
C20_5 C 0.81509(17) 0.22659(16) 0.4626(3)
C21_5 C 0.79249(15) 0.27421(15) 0.4712(2)
C22_5 C 0.82100(14) 0.31899(14) 0.4703(2)
H9_5 H 0.8056 0.3507 0.4759
C23_5 C 0.73655(17) 0.26683(16) 0.4822(3)
C24_5 C 0.64038(11) 0.09655(11) 0.49251(13)
C25_5 C 0.72858(15) 0.21013(15) 0.4803(2)
C26_5 C 0.77485(17) 0.18662(16) 0.4680(3)
C27_5 C 0.7778(2) 0.13451(19) 0.4619(4)
H10_5 H 0.8078 0.1190 0.4504
C28_5 C 0.68729(13) 0.12892(14) 0.48455(18)
C29_5 C 0.73394(17) 0.10499(17) 0.4736(3)
H11_5 H 0.7361 0.0694 0.4740
C30_5 C 0.68427(14) 0.18200(15) 0.48850(19)
H12_5 H 0.6534 0.1981 0.4964
O17_3 O 0.99265(9) 0.40040(8) 0.61948(8)
O2_5 O 0.64476(8) 0.96446(8) 0.54547(8)
O6_5 O 0.95117(8) 0.98421(8) 0.85352(8)
O7_5 O 0.70156(16) 0.9897(4) 0.79410(18)
C1_5 C 0.63727(11) 0.96301(12) 0.59413(11)
C2_5 C 0.68488(13) 0.96093(18) 0.62661(14)
C3_5 C 0.73202(16) 0.9527(3) 0.60388(17)
H1_5 H 0.7341 0.9480 0.5686
C4_5 C 0.77656(18) 0.9514(4) 0.63368(19)
H2_5 H 0.8079 0.9429 0.6189
C5_5 C 0.77341(16) 0.9626(3) 0.68491(17)
C6_5 C 0.72579(15) 0.9712(2) 0.70751(15)
C7_5 C 0.68101(14) 0.9703(2) 0.67900(14)
H3_5 H 0.6493 0.9759 0.6944
C8_5 C 0.73317(16) 0.9822(3) 0.76345(17)
C9_5 C 0.90345(11) 0.99251(13) 0.85962(11)
C10_5 C 0.78987(15) 0.9803(2) 0.77142(15)
C11_5 C 0.81338(16) 0.9680(3) 0.72515(17)
C12_5 C 0.86549(19) 0.9619(4) 0.7222(2)
H4_5 H 0.8810 0.9504 0.6922
C13_5 C 0.87108(14) 0.98455(18) 0.81271(13)
C14_5 C 0.89501(17) 0.9736(3) 0.76606(17)
H5_5 H 0.9306 0.9740 0.7639
C15_5 C 0.81800(15) 0.98850(19) 0.81573(14)
H6_5 H 0.8019 0.9964 0.8466
O29_3 O 0.61948(8) 0.99265(9) 0.40040(8)
O32_2 O 0.95283(14) 0.95283(14) 0.95283(14)
O2_6 O 0.85524(8) 0.03554(8) 0.04547(8)
O6_6 O 0.54883(8) 0.01579(8) 0.35352(8)
O7_6 O 0.79844(16) 0.0103(4) 0.29410(18)
C1_6 C 0.86273(11) 0.03699(12) 0.09413(11)
C2_6 C 0.81512(13) 0.03907(18) 0.12661(14)
C3_6 C 0.76798(16) 0.0473(3) 0.10388(17)
H1_6 H 0.7659 0.0520 0.0686
C4_6 C 0.72344(18) 0.0486(4) 0.13368(19)
H2_6 H 0.6921 0.0571 0.1189
C5_6 C 0.72659(16) 0.0374(3) 0.18491(17)
C6_6 C 0.77421(15) 0.0288(2) 0.20751(15)
C7_6 C 0.81899(14) 0.0297(2) 0.17900(14)
H3_6 H 0.8507 0.0241 0.1944
C8_6 C 0.76683(16) 0.0178(3) 0.26345(17)
C9_6 C 0.59655(11) 0.00749(13) 0.35962(11)
C10_6 C 0.71013(15) 0.0197(2) 0.27142(15)
C11_6 C 0.68662(16) 0.0320(3) 0.22515(17)
C12_6 C 0.63451(19) 0.0381(4) 0.2222(2)
H4_6 H 0.6190 0.0496 0.1922
C13_6 C 0.62892(14) 0.01545(18) 0.31271(13)
C14_6 C 0.60499(17) 0.0264(3) 0.26606(17)
H5_6 H 0.5694 0.0260 0.2639
C15_6 C 0.68200(15) 0.01150(19) 0.31573(14)
H6_6 H 0.6981 0.0036 0.3466
O31_4 O 0.49265(9) 0.09960(8) 0.38052(8)
O11_4 O 0.90040(8) 0.88052(8) 0.00735(9)
O15_6 O 0.46446(8) 0.95453(8) 0.35524(8)
O17_4 O 0.50735(9) 0.59960(8) 0.11948(8)
O18_6 O 0.48421(8) 0.64648(8) 0.04883(8)
O19_6 O 0.4897(4) 0.70590(18) 0.29844(16)
C31_6 C 0.46301(12) 0.90587(11) 0.36273(11)
C32_6 C 0.46093(18) 0.87339(14) 0.31512(13)
C33_6 C 0.4527(3) 0.89612(17) 0.26798(16)
H13_6 H 0.4480 0.9314 0.2659
C34_6 C 0.4514(4) 0.86632(19) 0.22344(18)
H14_6 H 0.4429 0.8811 0.1921
C35_6 C 0.4626(3) 0.81509(17) 0.22659(16)
C36_6 C 0.4712(2) 0.79249(15) 0.27421(15)
C37_6 C 0.4703(2) 0.82100(14) 0.31899(14)
H15_6 H 0.4759 0.8056 0.3507
C38_6 C 0.4822(3) 0.73655(17) 0.26683(16)
C39_6 C 0.49251(13) 0.64038(11) 0.09655(11)
C40_6 C 0.4803(2) 0.72858(15) 0.21013(15)
C41_6 C 0.4680(3) 0.77485(17) 0.18662(16)
C42_6 C 0.4619(4) 0.7778(2) 0.13451(19)
H16_6 H 0.4504 0.8078 0.1190
C43_6 C 0.48455(18) 0.68729(13) 0.12892(14)
C44_6 C 0.4736(3) 0.73394(17) 0.10499(17)
H17_6 H 0.4740 0.7361 0.0694
C45_6 C 0.48850(19) 0.68427(14) 0.18200(15)
H18_6 H 0.4964 0.6534 0.1981
O33_4 O 0.45283(14) 0.54717(14) 0.04717(14)
O9_6 O 0.54547(8) 0.64476(8) 0.96446(8)
O12_6 O 0.85352(8) 0.95117(8) 0.98421(8)
O13_6 O 0.79410(18) 0.70156(16) 0.9897(4)
C16_6 C 0.59413(11) 0.63727(11) 0.96301(12)
C17_6 C 0.62661(14) 0.68488(13) 0.96093(18)
C18_6 C 0.60388(17) 0.73202(16) 0.9527(3)
H7_6 H 0.5686 0.7341 0.9480
C19_6 C 0.63368(19) 0.77656(18) 0.9514(4)
H8_6 H 0.6189 0.8079 0.9429
C20_6 C 0.68491(17) 0.77341(16) 0.9626(3)
C21_6 C 0.70751(15) 0.72579(15) 0.9712(2)
C22_6 C 0.67900(14) 0.68101(14) 0.9703(2)
H9_6 H 0.6944 0.6493 0.9759
C23_6 C 0.76345(17) 0.73317(16) 0.9822(3)
C24_6 C 0.85962(11) 0.90345(11) 0.99251(13)
C25_6 C 0.77142(15) 0.78987(15) 0.9803(2)
C26_6 C 0.72515(17) 0.81338(16) 0.9680(3)
C27_6 C 0.7222(2) 0.86549(19) 0.9619(4)
H10_6 H 0.6922 0.8810 0.9504
C28_6 C 0.81271(13) 0.87108(14) 0.98455(18)
C29_6 C 0.76606(17) 0.89501(17) 0.9736(3)
H11_6 H 0.7639 0.9306 0.9740
C30_6 C 0.81573(14) 0.81800(15) 0.98850(19)
H12_6 H 0.8466 0.8019 0.9964
O30_4 O 0.40040(8) 0.61948(8) 0.99265(9)
O2_7 O 0.14476(8) 0.53554(8) 0.45453(8)
O4_4 O 0.38052(8) 0.49265(9) 0.09960(8)
O6_7 O 0.45117(8) 0.51579(8) 0.14648(8)
O7_7 O 0.20156(16) 0.5103(4) 0.20590(18)
C1_7 C 0.13727(11) 0.53699(12) 0.40587(11)
C2_7 C 0.18488(13) 0.53907(18) 0.37339(14)
C3_7 C 0.23202(16) 0.5473(3) 0.39612(17)
H1_7 H 0.2341 0.5520 0.4314
C4_7 C 0.27656(18) 0.5486(4) 0.36632(19)
H2_7 H 0.3079 0.5571 0.3811
C5_7 C 0.27341(16) 0.5374(3) 0.31509(17)
C6_7 C 0.22579(15) 0.5288(2) 0.29249(15)
C7_7 C 0.18101(14) 0.5297(2) 0.32100(14)
H3_7 H 0.1493 0.5241 0.3056
C8_7 C 0.23317(16) 0.5178(3) 0.23655(17)
C9_7 C 0.40345(11) 0.50749(13) 0.14038(11)
C10_7 C 0.28987(15) 0.5197(2) 0.22858(15)
C11_7 C 0.31338(16) 0.5320(3) 0.27485(17)
C12_7 C 0.36549(19) 0.5381(4) 0.2778(2)
H4_7 H 0.3810 0.5496 0.3078
C13_7 C 0.37108(14) 0.51545(18) 0.18729(13)
C14_7 C 0.39501(17) 0.5264(3) 0.23394(17)
H5_7 H 0.4306 0.5260 0.2361
C15_7 C 0.31800(15) 0.51150(19) 0.18427(14)
H6_7 H 0.3019 0.5036 0.1534
O9_7 O 0.45453(8) 0.14476(8) 0.53554(8)
O12_7 O 0.14648(8) 0.45117(8) 0.51579(8)
O13_7 O 0.20590(18) 0.20156(16) 0.5103(4)
C16_7 C 0.40587(11) 0.13727(11) 0.53699(12)
C17_7 C 0.37339(14) 0.18488(13) 0.53907(18)
C18_7 C 0.39612(17) 0.23202(16) 0.5473(3)
H7_7 H 0.4314 0.2341 0.5520
C19_7 C 0.36632(19) 0.27656(18) 0.5486(4)
H8_7 H 0.3811 0.3079 0.5571
C20_7 C 0.31509(17) 0.27341(16) 0.5374(3)
C21_7 C 0.29249(15) 0.22579(15) 0.5288(2)
C22_7 C 0.32100(14) 0.18101(14) 0.5297(2)
H9_7 H 0.3056 0.1493 0.5241
C23_7 C 0.23655(17) 0.23317(16) 0.5178(3)
C24_7 C 0.14038(11) 0.40345(11) 0.50749(13)
C25_7 C 0.22858(15) 0.28987(15) 0.5197(2)
C26_7 C 0.27485(17) 0.31338(16) 0.5320(3)
C27_7 C 0.2778(2) 0.36549(19) 0.5381(4)
H10_7 H 0.3078 0.3810 0.5496
C28_7 C 0.18729(13) 0.37108(14) 0.51545(18)
C29_7 C 0.23394(17) 0.39501(17) 0.5264(3)
H11_7 H 0.2361 0.4306 0.5260
C30_7 C 0.18427(14) 0.31800(15) 0.51150(19)
H12_7 H 0.1534 0.3019 0.5036
O15_7 O 0.53554(8) 0.45453(8) 0.14476(8)
O18_7 O 0.51579(8) 0.14648(8) 0.45117(8)
O19_7 O 0.5103(4) 0.20590(18) 0.20156(16)
C31_7 C 0.53699(12) 0.40587(11) 0.13727(11)
C32_7 C 0.53907(18) 0.37339(14) 0.18488(13)
C33_7 C 0.5473(3) 0.39612(17) 0.23202(16)
H13_7 H 0.5520 0.4314 0.2341
C34_7 C 0.5486(4) 0.36632(19) 0.27656(18)
H14_7 H 0.5571 0.3811 0.3079
C35_7 C 0.5374(3) 0.31509(17) 0.27341(16)
C36_7 C 0.5288(2) 0.29249(15) 0.22579(15)
C37_7 C 0.5297(2) 0.32100(14) 0.18101(14)
H15_7 H 0.5241 0.3056 0.1493
C38_7 C 0.5178(3) 0.23655(17) 0.23317(16)
C39_7 C 0.50749(13) 0.14038(11) 0.40345(11)
C40_7 C 0.5197(2) 0.22858(15) 0.28987(15)
C41_7 C 0.5320(3) 0.27485(17) 0.31338(16)
C42_7 C 0.5381(4) 0.2778(2) 0.36549(19)
H16_7 H 0.5496 0.3078 0.3810
C43_7 C 0.51545(18) 0.18729(13) 0.37108(14)
C44_7 C 0.5264(3) 0.23394(17) 0.39501(17)
H17_7 H 0.5260 0.2361 0.4306
C45_7 C 0.51150(19) 0.18427(14) 0.31800(15)
H18_7 H 0.5036 0.1534 0.3019
O29_4 O 0.11948(8) 0.50735(9) 0.59960(8)
O9_8 O 0.04547(8) 0.85524(8) 0.03554(8)
O12_8 O 0.35352(8) 0.54883(8) 0.01579(8)
O13_8 O 0.29410(18) 0.79844(16) 0.0103(4)
C16_8 C 0.09413(11) 0.86273(11) 0.03699(12)
C17_8 C 0.12661(14) 0.81512(13) 0.03907(18)
C18_8 C 0.10388(17) 0.76798(16) 0.0473(3)
H7_8 H 0.0686 0.7659 0.0520
C19_8 C 0.13368(19) 0.72344(18) 0.0486(4)
H8_8 H 0.1189 0.6921 0.0571
C20_8 C 0.18491(17) 0.72659(16) 0.0374(3)
C21_8 C 0.20751(15) 0.77421(15) 0.0288(2)
C22_8 C 0.17900(14) 0.81899(14) 0.0297(2)
H9_8 H 0.1944 0.8507 0.0241
C23_8 C 0.26345(17) 0.76683(16) 0.0178(3)
C24_8 C 0.35962(11) 0.59655(11) 0.00749(13)
C25_8 C 0.27142(15) 0.71013(15) 0.0197(2)
C26_8 C 0.22515(17) 0.68662(16) 0.0320(3)
C27_8 C 0.2222(2) 0.63451(19) 0.0381(4)
H10_8 H 0.1922 0.6190 0.0496
C28_8 C 0.31271(13) 0.62892(14) 0.01545(18)
C29_8 C 0.26606(17) 0.60499(17) 0.0264(3)
H11_8 H 0.2639 0.5694 0.0260
C30_8 C 0.31573(14) 0.68200(15) 0.01150(19)
H12_8 H 0.3466 0.6981 0.0036
O2_8 O 0.35524(8) 0.46446(8) 0.95453(8)
O6_8 O 0.04883(8) 0.48421(8) 0.64648(8)
O7_8 O 0.29844(16) 0.4897(4) 0.70590(18)
C1_8 C 0.36273(11) 0.46301(12) 0.90587(11)
C2_8 C 0.31512(13) 0.46093(18) 0.87339(14)
C3_8 C 0.26798(16) 0.4527(3) 0.89612(17)
H1_8 H 0.2659 0.4480 0.9314
C4_8 C 0.22344(18) 0.4514(4) 0.86632(19)
H2_8 H 0.1921 0.4429 0.8811
C5_8 C 0.22659(16) 0.4626(3) 0.81509(17)
C6_8 C 0.27421(15) 0.4712(2) 0.79249(15)
C7_8 C 0.31899(14) 0.4703(2) 0.82100(14)
H3_8 H 0.3507 0.4759 0.8056
C8_8 C 0.26683(16) 0.4822(3) 0.73655(17)
C9_8 C 0.09655(11) 0.49251(13) 0.64038(11)
C10_8 C 0.21013(15) 0.4803(2) 0.72858(15)
C11_8 C 0.18662(16) 0.4680(3) 0.77485(17)
C12_8 C 0.13451(19) 0.4619(4) 0.7778(2)
H4_8 H 0.1190 0.4504 0.8078
C13_8 C 0.12892(14) 0.48455(18) 0.68729(13)
C14_8 C 0.10499(17) 0.4736(3) 0.73394(17)
H5_8 H 0.0694 0.4740 0.7361
C15_8 C 0.18200(15) 0.48850(19) 0.68427(14)
H6_8 H 0.1981 0.4964 0.6534
O15_8 O 0.96446(8) 0.54547(8) 0.64476(8)
O18_8 O 0.98421(8) 0.85352(8) 0.95117(8)
O19_8 O 0.9897(4) 0.79410(18) 0.70156(16)
C31_8 C 0.96301(12) 0.59413(11) 0.63727(11)
C32_8 C 0.96093(18) 0.62661(14) 0.68488(13)
C33_8 C 0.9527(3) 0.60388(17) 0.73202(16)
H13_8 H 0.9480 0.5686 0.7341
C34_8 C 0.9514(4) 0.63368(19) 0.77656(18)
H14_8 H 0.9429 0.6189 0.8079
C35_8 C 0.9626(3) 0.68491(17) 0.77341(16)
C36_8 C 0.9712(2) 0.70751(15) 0.72579(15)
C37_8 C 0.9703(2) 0.67900(14) 0.68101(14)
H15_8 H 0.9759 0.6944 0.6493
C38_8 C 0.9822(3) 0.76345(17) 0.73317(16)
C39_8 C 0.99251(13) 0.85962(11) 0.90345(11)
C40_8 C 0.9803(2) 0.77142(15) 0.78987(15)
C41_8 C 0.9680(3) 0.72515(17) 0.81338(16)
C42_8 C 0.9619(4) 0.7222(2) 0.86549(19)
H16_8 H 0.9504 0.6922 0.8810
C43_8 C 0.98455(18) 0.81271(13) 0.87108(14)
C44_8 C 0.9736(3) 0.76606(17) 0.89501(17)
H17_8 H 0.9740 0.7639 0.9306
C45_8 C 0.98850(19) 0.81573(14) 0.81800(15)
H18_8 H 0.9964 0.8466 0.8019
loop_
_geom_bond_atom_site_label_1
_geom_bond_atom_site_label_2
_geom_bond_site_symmetry_1
_geom_bond_site_symmetry_2
Zr1 O1 1_555 1_555
O1 Zr11 1_555 1_555
O2 Zr1 1_555 1_555
O3 C1 1_555 1_555
O6 C9 1_555 1_555
O7 C8 1_555 1_555
C1 O2 1_555 1_555
C2 C1 1_555 1_555
C3 C2 1_555 1_555
H1 C3 1_555 1_555
C4 C3 1_555 1_555
H2 C4 1_555 1_555
C5 C4 1_555 1_555
C6 C5 1_555 1_555
C7 C2 1_555 1_555
H3 C7 1_555 1_555
C8 C6 1_555 1_555
C9 C13 1_555 1_555
C10 C8 1_555 1_555
C11 C5 1_555 1_555
C12 C11 1_555 1_555
H4 C12 1_555 1_555
C13 C14 1_555 1_555
C14 C12 1_555 1_555
H5 C14 1_555 1_555
C15 C10 1_555 1_555
H6 C15 1_555 1_555
Zr11 O23 1_555 1_555
Zr13 O1 1_555 1_555
O23 Zr1 1_555 1_555
O27 Zr1 1_555 1_555
O29 Zr1 1_555 1_555
O3 Zr13 1_555 1_555
C6 C7 1_555 1_555
C10 C11 1_555 1_555
C13 C15 1_555 1_555
O8 Zr9 1_555 1_555
O10 C16 1_555 1_555
O11 C24 1_555 1_555
O13 C23 1_555 1_555
C16 O9 1_555 1_555
C17 C16 1_555 1_555
C18 C17 1_555 1_555
H7 C18 1_555 1_555
C19 C18 1_555 1_555
H8 C19 1_555 1_555
C20 C19 1_555 1_555
C21 C20 1_555 1_555
C22 C17 1_555 1_555
H9 C22 1_555 1_555
C23 C21 1_555 1_555
C24 O12 1_555 1_555
C25 C23 1_555 1_555
C26 C20 1_555 1_555
C27 C26 1_555 1_555
H10 C27 1_555 1_555
C28 C24 1_555 1_555
C29 C27 1_555 1_555
H11 C29 1_555 1_555
C30 C25 1_555 1_555
H12 C30 1_555 1_555
Zr4 O4 1_555 1_555
Zr5 O5 1_555 1_555
Zr6 O17 1_555 1_555
Zr7 O5 1_555 1_555
Zr9 O10 1_555 1_555
O11 Zr5 1_555 1_555
C21 C22 1_555 1_555
C25 C26 1_555 1_555
C28 C29 1_555 1_555
C28 C30 1_555 1_555
Zr4 O22 1_555 1_555
Zr5 O25 1_555 1_555
Zr6 O21 1_555 1_555
Zr9 O21 1_555 1_555
O20 Zr3 1_555 1_555
O26 Zr3 1_555 1_555
O31 Zr3 1_555 1_555
O16 C31 1_555 1_555
O18 Zr2 1_555 1_555
O19 C38 1_555 1_555
C31 O15 1_555 1_555
C32 C31 1_555 1_555
C33 C32 1_555 1_555
H13 C33 1_555 1_555
C34 C33 1_555 1_555
H14 C34 1_555 1_555
C35 C34 1_555 1_555
C36 C35 1_555 1_555
C37 C32 1_555 1_555
H15 C37 1_555 1_555
C38 C36 1_555 1_555
C39 O18 1_555 1_555
C40 C38 1_555 1_555
C41 C35 1_555 1_555
C42 C41 1_555 1_555
H16 C42 1_555 1_555
C43 C39 1_555 1_555
C44 C42 1_555 1_555
H17 C44 1_555 1_555
C45 C40 1_555 1_555
H18 C45 1_555 1_555
Zr10 O14 1_555 1_555
O24 Zr2 1_555 1_555
O28 Zr2 1_555 1_555
O30 Zr2 1_555 1_555
O33 Zr2 1_555 1_555
O16 Zr10 1_555 1_555
C36 C37 1_555 1_555
C40 C41 1_555 1_555
C43 C44 1_555 1_555
C43 C45 1_555 1_555
Zr12 O24 1_555 1_555
Zr2_2 O8_2 1_555 1_555
O8_2 Zr9_2 1_555 1_555
O9_2 Zr2_2 1_555 1_555
O10_2 C16_2 1_555 1_555
O13_2 C23_2 1_555 1_555
C16_2 O9_2 1_555 1_555
C17_2 C16_2 1_555 1_555
C18_2 C17_2 1_555 1_555
H7_2 C18_2 1_555 1_555
C19_2 C18_2 1_555 1_555
H8_2 C19_2 1_555 1_555
C20_2 C19_2 1_555 1_555
C21_2 C20_2 1_555 1_555
C22_2 C17_2 1_555 1_555
H9_2 C22_2 1_555 1_555
C23_2 C21_2 1_555 1_555
C24_2 O12_2 1_555 1_555
C25_2 C23_2 1_555 1_555
C26_2 C20_2 1_555 1_555
C27_2 C26_2 1_555 1_555
H10_2 C27_2 1_555 1_555
C28_2 C24_2 1_555 1_555
C29_2 C27_2 1_555 1_555
H11_2 C29_2 1_555 1_555
C30_2 C25_2 1_555 1_555
H12_2 C30_2 1_555 1_555
Zr9_2 O10_2 1_555 1_555
Zr12_2 O8_2 1_555 1_555
O24_2 Zr2_2 1_555 1_555
O28_2 Zr2_2 1_555 1_555
O30_2 Zr2_2 1_555 1_555
C21_2 C22_2 1_555 1_555
C25_2 C26_2 1_555 1_555
C28_2 C29_2 1_555 1_555
C28_2 C30_2 1_555 1_555
Zr12_2 O24_2 1_555 1_555
O16_2 C31_2 1_555 1_555
O17_2 C39_2 1_555 1_555
O19_2 C38_2 1_555 1_555
C31_2 O15_2 1_555 1_555
C32_2 C31_2 1_555 1_555
C33_2 C32_2 1_555 1_555
H13_2 C33_2 1_555 1_555
C34_2 C33_2 1_555 1_555
H14_2 C34_2 1_555 1_555
C35_2 C34_2 1_555 1_555
C36_2 C35_2 1_555 1_555
C37_2 C32_2 1_555 1_555
H15_2 C37_2 1_555 1_555
C38_2 C36_2 1_555 1_555
C39_2 O18_2 1_555 1_555
C40_2 C38_2 1_555 1_555
C41_2 C35_2 1_555 1_555
C42_2 C41_2 1_555 1_555
H16_2 C42_2 1_555 1_555
C43_2 C39_2 1_555 1_555
C44_2 C42_2 1_555 1_555
H17_2 C44_2 1_555 1_555
C45_2 C40_2 1_555 1_555
H18_2 C45_2 1_555 1_555
Zr6_2 O17_2 1_555 1_555
Zr11 O14_2 1_555 1_555
O11_2 Zr5_2 1_555 1_555
O16_2 Zr11 1_555 1_555
C36_2 C37_2 1_555 1_555
C40_2 C41_2 1_555 1_555
C43_2 C44_2 1_555 1_555
C43_2 C45_2 1_555 1_555
Zr5_2 O25_2 1_555 1_555
Zr6_2 O21_2 1_555 1_555
Zr6_2 O33_2 1_555 1_555
O27_2 Zr4 1_555 1_555
O3_2 C1_2 1_555 1_555
O6_2 C9_2 1_555 1_555
O7_2 C8_2 1_555 1_555
C1_2 O2_2 1_555 1_555
C2_2 C1_2 1_555 1_555
C3_2 C2_2 1_555 1_555
H1_2 C3_2 1_555 1_555
C4_2 C3_2 1_555 1_555
H2_2 C4_2 1_555 1_555
C5_2 C4_2 1_555 1_555
C6_2 C5_2 1_555 1_555
C7_2 C2_2 1_555 1_555
H3_2 C7_2 1_555 1_555
C8_2 C6_2 1_555 1_555
C9_2 C13_2 1_555 1_555
C10_2 C8_2 1_555 1_555
C11_2 C5_2 1_555 1_555
C12_2 C11_2 1_555 1_555
H4_2 C12_2 1_555 1_555
C13_2 C14_2 1_555 1_555
C14_2 C12_2 1_555 1_555
H5_2 C14_2 1_555 1_555
C15_2 C10_2 1_555 1_555
H6_2 C15_2 1_555 1_555
Zr7 O6_2 1_555 1_555
Zr13_2 O1_2 1_555 1_555
O20_2 Zr7 1_555 1_555
O26_2 Zr7 1_555 1_555
O31_2 Zr7 1_555 1_555
O3_2 Zr13_2 1_555 1_555
C6_2 C7_2 1_555 1_555
C10_2 C11_2 1_555 1_555
C13_2 C15_2 1_555 1_555
Zr8_2 O20_2 1_555 1_555
Zr1_2 O1_3 1_555 1_555
O2_3 Zr1_2 1_555 1_555
O3_3 C1_3 1_555 1_555
O4_2 C9_3 1_555 1_555
O33 Zr1_2 1_555 1_555
O6_3 C9_3 1_555 1_555
O7_3 C8_3 1_555 1_555
C1_3 O2_3 1_555 1_555
C2_3 C1_3 1_555 1_555
C3_3 C2_3 1_555 1_555
H1_3 C3_3 1_555 1_555
C4_3 C3_3 1_555 1_555
H2_3 C4_3 1_555 1_555
C5_3 C4_3 1_555 1_555
C6_3 C5_3 1_555 1_555
C7_3 C2_3 1_555 1_555
H3_3 C7_3 1_555 1_555
C8_3 C6_3 1_555 1_555
C9_3 C13_3 1_555 1_555
C10_3 C8_3 1_555 1_555
C11_3 C5_3 1_555 1_555
C12_3 C11_3 1_555 1_555
H4_3 C12_3 1_555 1_555
C13_3 C14_3 1_555 1_555
C14_3 C12_3 1_555 1_555
H5_3 C14_3 1_555 1_555
C15_3 C10_3 1_555 1_555
H6_3 C15_3 1_555 1_555
Zr5 O8_3 1_555 1_555
O8_3 Zr8_2 1_555 1_555
O9_3 Zr5 1_555 1_555
O10_3 C16_3 1_555 1_555
O30 C24_3 1_555 1_555
O12_3 Zr1_2 1_555 1_555
O13_3 C23_3 1_555 1_555
C16_3 O9_3 1_555 1_555
C17_3 C16_3 1_555 1_555
C18_3 C17_3 1_555 1_555
H7_3 C18_3 1_555 1_555
C19_3 C18_3 1_555 1_555
H8_3 C19_3 1_555 1_555
C20_3 C19_3 1_555 1_555
C21_3 C20_3 1_555 1_555
C22_3 C17_3 1_555 1_555
H9_3 C22_3 1_555 1_555
C23_3 C21_3 1_555 1_555
C24_3 O12_3 1_555 1_555
C25_3 C23_3 1_555 1_555
C26_3 C20_3 1_555 1_555
C27_3 C26_3 1_555 1_555
H10_3 C27_3 1_555 1_555
C28_3 C24_3 1_555 1_555
C29_3 C27_3 1_555 1_555
H11_3 C29_3 1_555 1_555
C30_3 C25_3 1_555 1_555
H12_3 C30_3 1_555 1_555
Zr6_2 O6_3 1_555 1_555
O14_3 Zr6_2 1_555 1_555
O15_3 Zr6_2 1_555 1_555
O16_3 C31_3 1_555 1_555
O31_2 C39_3 1_555 1_555
O18_3 Zr5 1_555 1_555
O19_3 C38_3 1_555 1_555
C31_3 O15_3 1_555 1_555
C32_3 C31_3 1_555 1_555
C33_3 C32_3 1_555 1_555
H13_3 C33_3 1_555 1_555
C34_3 C33_3 1_555 1_555
H14_3 C34_3 1_555 1_555
C35_3 C34_3 1_555 1_555
C36_3 C35_3 1_555 1_555
C37_3 C32_3 1_555 1_555
H15_3 C37_3 1_555 1_555
C38_3 C36_3 1_555 1_555
C39_3 O18_3 1_555 1_555
C40_3 C38_3 1_555 1_555
C41_3 C35_3 1_555 1_555
C42_3 C41_3 1_555 1_555
H16_3 C42_3 1_555 1_555
C43_3 C39_3 1_555 1_555
C44_3 C42_3 1_555 1_555
H17_3 C44_3 1_555 1_555
C45_3 C40_3 1_555 1_555
H18_3 C45_3 1_555 1_555
Zr4_2 O4_2 1_555 1_555
Zr8_2 O10_3 1_555 1_555
Zr10_2 O14_3 1_555 1_555
Zr12 O1_3 1_555 1_555
O20_2 Zr5 1_555 1_555
O22_2 Zr6_2 1_555 1_555
O23_2 Zr1_2 1_555 1_555
O24 Zr1_2 1_555 1_555
O26_3 Zr6_2 1_555 1_555
O27_3 Zr1_2 1_555 1_555
O28_3 Zr5 1_555 1_555
O29_2 Zr1_2 1_555 1_555
O3_3 Zr12 1_555 1_555
C6_3 C7_3 1_555 1_555
C10_3 C11_3 1_555 1_555
C13_3 C15_3 1_555 1_555
C21_3 C22_3 1_555 1_555
C25_3 C26_3 1_555 1_555
C28_3 C29_3 1_555 1_555
C28_3 C30_3 1_555 1_555
O16_3 Zr10_2 1_555 1_555
C36_3 C37_3 1_555 1_555
C40_3 C41_3 1_555 1_555
C43_3 C44_3 1_555 1_555
C43_3 C45_3 1_555 1_555
Zr4_2 O22_2 1_555 1_555
Zr4_2 O33_2 1_555 1_555
Zr10_2 O22_2 1_555 1_555
O14_4 Zr6 1_555 1_555
O15_4 Zr6 1_555 1_555
O16_4 C31_4 1_555 1_555
O19_4 C38_4 1_555 1_555
C31_4 O15_4 1_555 1_555
C32_4 C31_4 1_555 1_555
C33_4 C32_4 1_555 1_555
H13_4 C33_4 1_555 1_555
C34_4 C33_4 1_555 1_555
H14_4 C34_4 1_555 1_555
C35_4 C34_4 1_555 1_555
C36_4 C35_4 1_555 1_555
C37_4 C32_4 1_555 1_555
H15_4 C37_4 1_555 1_555
C38_4 C36_4 1_555 1_555
C39_4 O18_4 1_555 1_555
C40_4 C38_4 1_555 1_555
C41_4 C35_4 1_555 1_555
C42_4 C41_4 1_555 1_555
H16_4 C42_4 1_555 1_555
C43_4 C39_4 1_555 1_555
C44_4 C42_4 1_555 1_555
H17_4 C44_4 1_555 1_555
C45_4 C40_4 1_555 1_555
H18_4 C45_4 1_555 1_555
Zr9 O14_4 1_555 1_555
Zr11_2 O14_4 1_555 1_555
O26_4 Zr6 1_555 1_555
O16_4 Zr11_2 1_555 1_555
C36_4 C37_4 1_555 1_555
C40_4 C41_4 1_555 1_555
C43_4 C44_4 1_555 1_555
C43_4 C45_4 1_555 1_555
O28_4 Zr5_2 1_555 1_555
O3_4 C1_4 1_555 1_555
O29_2 C9_4 1_555 1_555
O6_4 C9_4 1_555 1_555
O7_4 C8_4 1_555 1_555
C1_4 O2_4 1_555 1_555
C2_4 C1_4 1_555 1_555
C3_4 C2_4 1_555 1_555
H1_4 C3_4 1_555 1_555
C4_4 C3_4 1_555 1_555
H2_4 C4_4 1_555 1_555
C5_4 C4_4 1_555 1_555
C6_4 C5_4 1_555 1_555
C7_4 C2_4 1_555 1_555
H3_4 C7_4 1_555 1_555
C8_4 C6_4 1_555 1_555
C9_4 C13_4 1_555 1_555
C10_4 C8_4 1_555 1_555
C11_4 C5_4 1_555 1_555
C12_4 C11_4 1_555 1_555
H4_4 C12_4 1_555 1_555
C13_4 C14_4 1_555 1_555
C14_4 C12_4 1_555 1_555
H5_4 C14_4 1_555 1_555
C15_4 C10_4 1_555 1_555
H6_4 C15_4 1_555 1_555
Zr12_2 O1_4 1_555 1_555
O3_4 Zr12_2 1_555 1_555
C6_4 C7_4 1_555 1_555
C10_4 C11_4 1_555 1_555
C13_4 C15_4 1_555 1_555
O8_4 Zr8 1_555 1_555
O10_4 C16_4 1_555 1_555
O12_4 Zr4_2 1_555 1_555
O13_4 C23_4 1_555 1_555
C16_4 O9_4 1_555 1_555
C17_4 C16_4 1_555 1_555
C18_4 C17_4 1_555 1_555
H7_4 C18_4 1_555 1_555
C19_4 C18_4 1_555 1_555
H8_4 C19_4 1_555 1_555
C20_4 C19_4 1_555 1_555
C21_4 C20_4 1_555 1_555
C22_4 C17_4 1_555 1_555
H9_4 C22_4 1_555 1_555
C23_4 C21_4 1_555 1_555
C24_4 O12_4 1_555 1_555
C25_4 C23_4 1_555 1_555
C26_4 C20_4 1_555 1_555
C27_4 C26_4 1_555 1_555
H10_4 C27_4 1_555 1_555
C28_4 C24_4 1_555 1_555
C29_4 C27_4 1_555 1_555
H11_4 C29_4 1_555 1_555
C30_4 C25_4 1_555 1_555
H12_4 C30_4 1_555 1_555
Zr8 O10_4 1_555 1_555
O27_4 Zr4_2 1_555 1_555
C21_4 C22_4 1_555 1_555
C25_4 C26_4 1_555 1_555
C28_4 C29_4 1_555 1_555
C28_4 C30_4 1_555 1_555
O28_4 C31_5 1_555 1_555
O18_5 Zr11_2 1_555 1_555
O19_5 C38_5 1_555 1_555
C31_5 O15_5 1_555 1_555
C32_5 C31_5 1_555 1_555
C33_5 C32_5 1_555 1_555
H13_5 C33_5 1_555 1_555
C34_5 C33_5 1_555 1_555
H14_5 C34_5 1_555 1_555
C35_5 C34_5 1_555 1_555
C36_5 C35_5 1_555 1_555
C37_5 C32_5 1_555 1_555
H15_5 C37_5 1_555 1_555
C38_5 C36_5 1_555 1_555
C39_5 O18_5 1_555 1_555
C40_5 C38_5 1_555 1_555
C41_5 C35_5 1_555 1_555
C42_5 C41_5 1_555 1_555
H16_5 C42_5 1_555 1_555
C43_5 C39_5 1_555 1_555
C44_5 C42_5 1_555 1_555
H17_5 C44_5 1_555 1_555
C45_5 C40_5 1_555 1_555
H18_5 C45_5 1_555 1_555
O30_3 Zr11_2 1_555 1_555
O33_3 Zr11_2 1_555 1_555
C36_5 C37_5 1_555 1_555
C40_5 C41_5 1_555 1_555
C43_5 C44_5 1_555 1_555
C43_5 C45_5 1_555 1_555
O31_3 Zr13_2 1_555 1_555
O27_3 C16_5 1_555 1_555
O11_3 C24_5 1_555 1_555
O13_5 C23_5 1_555 1_555
C16_5 O9_5 1_555 1_555
C17_5 C16_5 1_555 1_555
C18_5 C17_5 1_555 1_555
H7_5 C18_5 1_555 1_555
C19_5 C18_5 1_555 1_555
H8_5 C19_5 1_555 1_555
C20_5 C19_5 1_555 1_555
C21_5 C20_5 1_555 1_555
C22_5 C17_5 1_555 1_555
H9_5 C22_5 1_555 1_555
C23_5 C21_5 1_555 1_555
C24_5 O12_5 1_555 1_555
C25_5 C23_5 1_555 1_555
C26_5 C20_5 1_555 1_555
C27_5 C26_5 1_555 1_555
H10_5 C27_5 1_555 1_555
C28_5 C24_5 1_555 1_555
C29_5 C27_5 1_555 1_555
H11_5 C29_5 1_555 1_555
C30_5 C25_5 1_555 1_555
H12_5 C30_5 1_555 1_555
Zr8 O4_3 1_555 1_555
Zr11 O5_2 1_555 1_555
Zr12 O17_3 1_555 1_555
Zr13 O5_2 1_555 1_555
O11_3 Zr11 1_555 1_555
C21_5 C22_5 1_555 1_555
C25_5 C26_5 1_555 1_555
C28_5 C29_5 1_555 1_555
C28_5 C30_5 1_555 1_555
O2_5 Zr8_2 1_555 1_555
O26_2 C1_5 1_555 1_555
O6_5 C9_5 1_555 1_555
O7_5 C8_5 1_555 1_555
C1_5 O2_5 1_555 1_555
C2_5 C1_5 1_555 1_555
C3_5 C2_5 1_555 1_555
H1_5 C3_5 1_555 1_555
C4_5 C3_5 1_555 1_555
H2_5 C4_5 1_555 1_555
C5_5 C4_5 1_555 1_555
C6_5 C5_5 1_555 1_555
C7_5 C2_5 1_555 1_555
H3_5 C7_5 1_555 1_555
C8_5 C6_5 1_555 1_555
C9_5 C13_5 1_555 1_555
C10_5 C8_5 1_555 1_555
C11_5 C5_5 1_555 1_555
C12_5 C11_5 1_555 1_555
H4_5 C12_5 1_555 1_555
C13_5 C14_5 1_555 1_555
C14_5 C12_5 1_555 1_555
H5_5 C14_5 1_555 1_555
C15_5 C10_5 1_555 1_555
H6_5 C15_5 1_555 1_555
O29_3 Zr8_2 1_555 1_555
C6_5 C7_5 1_555 1_555
C10_5 C11_5 1_555 1_555
C13_5 C15_5 1_555 1_555
O26 C1_6 1_555 1_555
O6_6 C9_6 1_555 1_555
O7_6 C8_6 1_555 1_555
C1_6 O2_6 1_555 1_555
C2_6 C1_6 1_555 1_555
C3_6 C2_6 1_555 1_555
H1_6 C3_6 1_555 1_555
C4_6 C3_6 1_555 1_555
H2_6 C4_6 1_555 1_555
C5_6 C4_6 1_555 1_555
C6_6 C5_6 1_555 1_555
C7_6 C2_6 1_555 1_555
H3_6 C7_6 1_555 1_555
C8_6 C6_6 1_555 1_555
C9_6 C13_6 1_555 1_555
C10_6 C8_6 1_555 1_555
C11_6 C5_6 1_555 1_555
C12_6 C11_6 1_555 1_555
H4_6 C12_6 1_555 1_555
C13_6 C14_6 1_555 1_555
C14_6 C12_6 1_555 1_555
H5_6 C14_6 1_555 1_555
C15_6 C10_6 1_555 1_555
H6_6 C15_6 1_555 1_555
Zr13 O6_6 1_555 1_555
O31_4 Zr13 1_555 1_555
C6_6 C7_6 1_555 1_555
C10_6 C11_6 1_555 1_555
C13_6 C15_6 1_555 1_555
O28_3 C31_6 1_555 1_555
O17_4 C39_6 1_555 1_555
O19_6 C38_6 1_555 1_555
C31_6 O15_6 1_555 1_555
C32_6 C31_6 1_555 1_555
C33_6 C32_6 1_555 1_555
H13_6 C33_6 1_555 1_555
C34_6 C33_6 1_555 1_555
H14_6 C34_6 1_555 1_555
C35_6 C34_6 1_555 1_555
C36_6 C35_6 1_555 1_555
C37_6 C32_6 1_555 1_555
H15_6 C37_6 1_555 1_555
C38_6 C36_6 1_555 1_555
C39_6 O18_6 1_555 1_555
C40_6 C38_6 1_555 1_555
C41_6 C35_6 1_555 1_555
C42_6 C41_6 1_555 1_555
H16_6 C42_6 1_555 1_555
C43_6 C39_6 1_555 1_555
C44_6 C42_6 1_555 1_555
H17_6 C44_6 1_555 1_555
C45_6 C40_6 1_555 1_555
H18_6 C45_6 1_555 1_555
Zr12_2 O17_4 1_555 1_555
O11_4 Zr10 1_555 1_555
C36_6 C37_6 1_555 1_555
C40_6 C41_6 1_555 1_555
C43_6 C44_6 1_555 1_555
C43_6 C45_6 1_555 1_555
Zr12_2 O33_4 1_555 1_555
O9_6 Zr10_2 1_555 1_555
O27_4 C16_6 1_555 1_555
O13_6 C23_6 1_555 1_555
C16_6 O9_6 1_555 1_555
C17_6 C16_6 1_555 1_555
C18_6 C17_6 1_555 1_555
H7_6 C18_6 1_555 1_555
C19_6 C18_6 1_555 1_555
H8_6 C19_6 1_555 1_555
C20_6 C19_6 1_555 1_555
C21_6 C20_6 1_555 1_555
C22_6 C17_6 1_555 1_555
H9_6 C22_6 1_555 1_555
C23_6 C21_6 1_555 1_555
C24_6 O12_6 1_555 1_555
C25_6 C23_6 1_555 1_555
C26_6 C20_6 1_555 1_555
C27_6 C26_6 1_555 1_555
H10_6 C27_6 1_555 1_555
C28_6 C24_6 1_555 1_555
C29_6 C27_6 1_555 1_555
H11_6 C29_6 1_555 1_555
C30_6 C25_6 1_555 1_555
H12_6 C30_6 1_555 1_555
O30_4 Zr10_2 1_555 1_555
C21_6 C22_6 1_555 1_555
C25_6 C26_6 1_555 1_555
C28_6 C29_6 1_555 1_555
C28_6 C30_6 1_555 1_555
O2_7 Zr9 1_555 1_555
O26_4 C1_7 1_555 1_555
O4_4 C9_7 1_555 1_555
O33_3 Zr9 1_555 1_555
O6_7 C9_7 1_555 1_555
O7_7 C8_7 1_555 1_555
C1_7 O2_7 1_555 1_555
C2_7 C1_7 1_555 1_555
C3_7 C2_7 1_555 1_555
H1_7 C3_7 1_555 1_555
C4_7 C3_7 1_555 1_555
H2_7 C4_7 1_555 1_555
C5_7 C4_7 1_555 1_555
C6_7 C5_7 1_555 1_555
C7_7 C2_7 1_555 1_555
H3_7 C7_7 1_555 1_555
C8_7 C6_7 1_555 1_555
C9_7 C13_7 1_555 1_555
C10_7 C8_7 1_555 1_555
C11_7 C5_7 1_555 1_555
C12_7 C11_7 1_555 1_555
H4_7 C12_7 1_555 1_555
C13_7 C14_7 1_555 1_555
C14_7 C12_7 1_555 1_555
H5_7 C14_7 1_555 1_555
C15_7 C10_7 1_555 1_555
H6_7 C15_7 1_555 1_555
O9_7 Zr11 1_555 1_555
O27 C16_7 1_555 1_555
O30_3 C24_7 1_555 1_555
O12_7 Zr9 1_555 1_555
O13_7 C23_7 1_555 1_555
C16_7 O9_7 1_555 1_555
C17_7 C16_7 1_555 1_555
C18_7 C17_7 1_555 1_555
H7_7 C18_7 1_555 1_555
C19_7 C18_7 1_555 1_555
H8_7 C19_7 1_555 1_555
C20_7 C19_7 1_555 1_555
C21_7 C20_7 1_555 1_555
C22_7 C17_7 1_555 1_555
H9_7 C22_7 1_555 1_555
C23_7 C21_7 1_555 1_555
C24_7 O12_7 1_555 1_555
C25_7 C23_7 1_555 1_555
C26_7 C20_7 1_555 1_555
C27_7 C26_7 1_555 1_555
H10_7 C27_7 1_555 1_555
C28_7 C24_7 1_555 1_555
C29_7 C27_7 1_555 1_555
H11_7 C29_7 1_555 1_555
C30_7 C25_7 1_555 1_555
H12_7 C30_7 1_555 1_555
Zr12_2 O6_7 1_555 1_555
O15_7 Zr12_2 1_555 1_555
O28_2 C31_7 1_555 1_555
O31_4 C39_7 1_555 1_555
O18_7 Zr11 1_555 1_555
O19_7 C38_7 1_555 1_555
C31_7 O15_7 1_555 1_555
C32_7 C31_7 1_555 1_555
C33_7 C32_7 1_555 1_555
H13_7 C33_7 1_555 1_555
C34_7 C33_7 1_555 1_555
H14_7 C34_7 1_555 1_555
C35_7 C34_7 1_555 1_555
C36_7 C35_7 1_555 1_555
C37_7 C32_7 1_555 1_555
H15_7 C37_7 1_555 1_555
C38_7 C36_7 1_555 1_555
C39_7 O18_7 1_555 1_555
C40_7 C38_7 1_555 1_555
C41_7 C35_7 1_555 1_555
C42_7 C41_7 1_555 1_555
H16_7 C42_7 1_555 1_555
C43_7 C39_7 1_555 1_555
C44_7 C42_7 1_555 1_555
H17_7 C44_7 1_555 1_555
C45_7 C40_7 1_555 1_555
H18_7 C45_7 1_555 1_555
Zr9_2 O4_4 1_555 1_555
O29_4 Zr9 1_555 1_555
C6_7 C7_7 1_555 1_555
C10_7 C11_7 1_555 1_555
C13_7 C15_7 1_555 1_555
C21_7 C22_7 1_555 1_555
C25_7 C26_7 1_555 1_555
C28_7 C29_7 1_555 1_555
C28_7 C30_7 1_555 1_555
C36_7 C37_7 1_555 1_555
C40_7 C41_7 1_555 1_555
C43_7 C44_7 1_555 1_555
C43_7 C45_7 1_555 1_555
Zr9_2 O33_4 1_555 1_555
O27_2 C16_8 1_555 1_555
O12_8 Zr9_2 1_555 1_555
O13_8 C23_8 1_555 1_555
C16_8 O9_8 1_555 1_555
C17_8 C16_8 1_555 1_555
C18_8 C17_8 1_555 1_555
H7_8 C18_8 1_555 1_555
C19_8 C18_8 1_555 1_555
H8_8 C19_8 1_555 1_555
C20_8 C19_8 1_555 1_555
C21_8 C20_8 1_555 1_555
C22_8 C17_8 1_555 1_555
H9_8 C22_8 1_555 1_555
C23_8 C21_8 1_555 1_555
C24_8 O12_8 1_555 1_555
C25_8 C23_8 1_555 1_555
C26_8 C20_8 1_555 1_555
C27_8 C26_8 1_555 1_555
H10_8 C27_8 1_555 1_555
C28_8 C24_8 1_555 1_555
C29_8 C27_8 1_555 1_555
H11_8 C29_8 1_555 1_555
C30_8 C25_8 1_555 1_555
H12_8 C30_8 1_555 1_555
C21_8 C22_8 1_555 1_555
C25_8 C26_8 1_555 1_555
C28_8 C29_8 1_555 1_555
C28_8 C30_8 1_555 1_555
O26_3 C1_8 1_555 1_555
O29_4 C9_8 1_555 1_555
O6_8 C9_8 1_555 1_555
O7_8 C8_8 1_555 1_555
C1_8 O2_8 1_555 1_555
C2_8 C1_8 1_555 1_555
C3_8 C2_8 1_555 1_555
H1_8 C3_8 1_555 1_555
C4_8 C3_8 1_555 1_555
H2_8 C4_8 1_555 1_555
C5_8 C4_8 1_555 1_555
C6_8 C5_8 1_555 1_555
C7_8 C2_8 1_555 1_555
H3_8 C7_8 1_555 1_555
C8_8 C6_8 1_555 1_555
C9_8 C13_8 1_555 1_555
C10_8 C8_8 1_555 1_555
C11_8 C5_8 1_555 1_555
C12_8 C11_8 1_555 1_555
H4_8 C12_8 1_555 1_555
C13_8 C14_8 1_555 1_555
C14_8 C12_8 1_555 1_555
H5_8 C14_8 1_555 1_555
C15_8 C10_8 1_555 1_555
H6_8 C15_8 1_555 1_555
C6_8 C7_8 1_555 1_555
C10_8 C11_8 1_555 1_555
C13_8 C15_8 1_555 1_555
O15_8 Zr12 1_555 1_555
O28 C31_8 1_555 1_555
O19_8 C38_8 1_555 1_555
C31_8 O15_8 1_555 1_555
C32_8 C31_8 1_555 1_555
C33_8 C32_8 1_555 1_555
H13_8 C33_8 1_555 1_555
C34_8 C33_8 1_555 1_555
H14_8 C34_8 1_555 1_555
C35_8 C34_8 1_555 1_555
C36_8 C35_8 1_555 1_555
C37_8 C32_8 1_555 1_555
H15_8 C37_8 1_555 1_555
C38_8 C36_8 1_555 1_555
C39_8 O18_8 1_555 1_555
C40_8 C38_8 1_555 1_555
C41_8 C35_8 1_555 1_555
C42_8 C41_8 1_555 1_555
H16_8 C42_8 1_555 1_555
C43_8 C39_8 1_555 1_555
C44_8 C42_8 1_555 1_555
H17_8 C44_8 1_555 1_555
C45_8 C40_8 1_555 1_555
H18_8 C45_8 1_555 1_555
C36_8 C37_8 1_555 1_555
C40_8 C41_8 1_555 1_555
C43_8 C44_8 1_555 1_555
C43_8 C45_8 1_555 1_555

#END
