
###############################################################################
#
# This file contains modified crystal structure data generated from the
# MOF subset of the Cambridge Structural Database (CSD) v543 
# hosted by the Cambridge Crystallographic Data Centre (CCDC).
#
# This work is licensed under the Creative Commons
# Attribution-NonCommercial-ShareAlike 4.0 International License.
# To view a copy of this license, visit
# http://creativecommons.org/licenses/by-nc-sa/4.0/
# or send a letter to
# Creative Commons, PO Box 1866, Mountain View, CA 94042, USA.
#
# CIF created using the CSD Python API on 29 September 2022
# The structure has been converted into the P1 space group
# The structure has a 3D framework
# The original CSD entry SOQSAU is in the cubic crystal system
# The framework has been calculated to contain at least 10.0% void space
# The void calculation uses a probe of radius 1.32A, grid spacing 0.4
#
###############################################################################

data_SOQSAU
_chemical_formula_moiety         '(C360 H144 O122 Zr18)n'
_symmetry_cell_setting           triclinic
_symmetry_space_group_name_H-M   'P 1'
_symmetry_Int_Tables_number      1
_space_group_name_Hall           'P 1'
loop_
_symmetry_equiv_pos_site_id
_symmetry_equiv_pos_as_xyz
1 x,y,z
_cell_length_a                   26.0512(10)
_cell_length_b                   26.0512(10)
_cell_length_c                   26.0512(10)
_cell_angle_alpha                90
_cell_angle_beta                 90
_cell_angle_gamma                90
_cell_volume                     17680
loop_
_atom_site_label
_atom_site_type_symbol
_atom_site_fract_x
_atom_site_fract_y
_atom_site_fract_z
O8 O 0.04513(13) 0.03423(14) 0.85551(13)
O9 O 0.0294(2) 0.0621(2) 0.9554(2)
O10 O 0.11837(14) 0.03523(15) 0.90459(14)
O12 O 0.40166(14) 0.00779(14) 0.62027(15)
C16 C 0.0940(2) 0.0345(2) 0.8625(2)
C17 C 0.1254(2) 0.0332(3) 0.8144(2)
C18 C 0.1015(3) 0.0260(4) 0.7672(3)
C19 C 0.1783(2) 0.0345(4) 0.8178(3)
H7 H 0.0652 0.0232 0.7657
C20 C 0.1304(3) 0.0229(5) 0.7220(3)
C21 C 0.2063(3) 0.0280(4) 0.7719(3)
H8 H 0.1952 0.0395 0.8497
H9 H 0.1138 0.0215 0.6895
C22 C 0.1835(3) 0.0219(5) 0.7251(3)
C23 C 0.2638(3) 0.0268(4) 0.7657(3)
C24 C 0.2232(3) 0.0149(4) 0.6854(3)
O13 O 0.2958(2) 0.0310(5) 0.7970(2)
C25 C 0.2699(3) 0.0184(4) 0.7088(2)
C26 C 0.2191(3) 0.0073(5) 0.6331(3)
C27 C 0.3156(2) 0.0113(4) 0.6808(3)
H10 H 0.1865 0.0065 0.6168
C28 C 0.2640(2) 0.0009(4) 0.6052(3)
C29 C 0.3118(2) 0.0028(3) 0.6290(2)
H11 H 0.3481 0.0125 0.6973
Zr6 Zr 0.091842(16) 0.018287(16) 0.984683(16)
Zr8 Zr 0.481713(16) 0.015317(16) 0.591842(16)
O1 O 0.03423(14) 0.85551(13) 0.04513(13)
O2 O 0.0621(2) 0.9554(2) 0.0294(2)
O4 O 0.03523(15) 0.90459(14) 0.11837(14)
O6 O 0.00779(14) 0.62027(15) 0.40166(14)
C1 C 0.0345(2) 0.8625(2) 0.0940(2)
C2 C 0.0332(3) 0.8144(2) 0.1254(2)
C3 C 0.0260(4) 0.7672(3) 0.1015(3)
C4 C 0.0345(4) 0.8178(3) 0.1783(2)
H1 H 0.0232 0.7657 0.0652
C5 C 0.0229(5) 0.7220(3) 0.1304(3)
C6 C 0.0280(4) 0.7719(3) 0.2063(3)
H2 H 0.0395 0.8497 0.1952
H3 H 0.0215 0.6895 0.1138
C7 C 0.0219(5) 0.7251(3) 0.1835(3)
C8 C 0.0268(4) 0.7657(3) 0.2638(3)
C9 C 0.0149(4) 0.6854(3) 0.2232(3)
O7 O 0.0310(5) 0.7970(2) 0.2958(2)
C10 C 0.0184(4) 0.7088(2) 0.2699(3)
C11 C 0.0073(5) 0.6331(3) 0.2191(3)
C12 C 0.0113(4) 0.6808(3) 0.3156(2)
H4 H 0.0065 0.6168 0.1865
C13 C 0.0009(4) 0.6052(3) 0.2640(2)
C14 C 0.0028(3) 0.6290(2) 0.3118(2)
H5 H 0.0125 0.6973 0.3481
Zr5 Zr 0.018287(16) 0.984683(16) 0.091842(16)
Zr12 Zr 0.015317(16) 0.591842(16) 0.481713(16)
Zr1 Zr 0.015317(16) 0.908158(16) 0.981713(16)
O11 O 0.35372(13) 0.98592(15) 0.55048(15)
H12 H 0.2620 0.9951 0.5692
C30 C 0.3602(2) 0.9989(2) 0.59736(19)
Zr7 Zr 0.408158(16) 0.981713(16) 0.484683(16)
O22 O 0.0446(2) 0.9706(2) 0.9379(2)
O25 O 0.09541(14) 0.88163(14) 0.96477(15)
O31 O 0.00779(14) 0.87973(15) 0.90166(14)
O14 O 0.85551(13) 0.04513(13) 0.03423(14)
O15 O 0.9554(2) 0.0294(2) 0.0621(2)
O16 O 0.90459(14) 0.11837(14) 0.03523(15)
O18 O 0.62027(15) 0.40166(14) 0.00779(14)
C31 C 0.8625(2) 0.0940(2) 0.0345(2)
C32 C 0.8144(2) 0.1254(2) 0.0332(3)
C33 C 0.7672(3) 0.1015(3) 0.0260(4)
C34 C 0.8178(3) 0.1783(2) 0.0345(4)
H13 H 0.7657 0.0652 0.0232
C35 C 0.7220(3) 0.1304(3) 0.0229(5)
C36 C 0.7719(3) 0.2063(3) 0.0280(4)
H14 H 0.8497 0.1952 0.0395
H15 H 0.6895 0.1138 0.0215
C37 C 0.7251(3) 0.1835(3) 0.0219(5)
C38 C 0.7657(3) 0.2638(3) 0.0268(4)
C39 C 0.6854(3) 0.2232(3) 0.0149(4)
O19 O 0.7970(2) 0.2958(2) 0.0310(5)
C40 C 0.7088(2) 0.2699(3) 0.0184(4)
C41 C 0.6331(3) 0.2191(3) 0.0073(5)
C42 C 0.6808(3) 0.3156(2) 0.0113(4)
H16 H 0.6168 0.1865 0.0065
C43 C 0.6052(3) 0.2640(2) 0.0009(4)
C44 C 0.6290(2) 0.3118(2) 0.0028(3)
H17 H 0.6973 0.3481 0.0125
Zr4 Zr 0.984683(16) 0.091842(16) 0.018287(16)
Zr10 Zr 0.591842(16) 0.481713(16) 0.015317(16)
Zr2 Zr 0.981713(16) 0.015317(16) 0.908158(16)
O17 O 0.55048(15) 0.35372(13) 0.98592(15)
H18 H 0.5692 0.2620 0.9951
C45 C 0.59736(19) 0.3602(2) 0.9989(2)
Zr11 Zr 0.484683(16) 0.408158(16) 0.981713(16)
O20 O 0.9379(2) 0.0446(2) 0.9706(2)
O23 O 0.96477(15) 0.09541(14) 0.88163(14)
O29 O 0.90166(14) 0.00779(14) 0.87973(15)
O5 O 0.98592(15) 0.55048(15) 0.35372(13)
H6 H 0.9951 0.5692 0.2620
C15 C 0.9989(2) 0.59736(19) 0.3602(2)
Zr3 Zr 0.908158(16) 0.981713(16) 0.015317(16)
Zr9 Zr 0.981713(16) 0.484683(16) 0.408158(16)
O21 O 0.9706(2) 0.9379(2) 0.0446(2)
O24 O 0.88163(14) 0.96477(15) 0.09541(14)
O30 O 0.87973(15) 0.90166(14) 0.00779(14)
O3 O 0.95208(18) 0.95208(18) 0.95208(18)
O26 O 0.85372(13) 0.98592(15) 0.94952(15)
O27 O 0.94952(15) 0.85372(13) 0.98592(15)
O28 O 0.98592(15) 0.94952(15) 0.85372(13)
Zr1_2 Zr 0.591842(16) 0.018287(16) 0.515317(16)
O3_2 O 0.54792(18) 0.04792(18) 0.45208(18)
Zr2_2 Zr 0.484683(16) 0.091842(16) 0.481713(16)
O8_2 O 0.46577(14) 0.14449(13) 0.54513(13)
O9_2 O 0.4379(2) 0.0446(2) 0.5294(2)
O10_2 O 0.46477(15) 0.09541(14) 0.61837(14)
O11_2 O 0.51408(15) 0.44952(15) 0.85372(13)
O12_2 O 0.49221(14) 0.37973(15) 0.90166(14)
C16_2 C 0.4655(2) 0.1375(2) 0.5940(2)
C17_2 C 0.4668(3) 0.1856(2) 0.6254(2)
C18_2 C 0.4740(4) 0.2328(3) 0.6015(3)
C19_2 C 0.4655(4) 0.1822(3) 0.6783(2)
H7_2 H 0.4768 0.2343 0.5652
C20_2 C 0.4771(5) 0.2780(3) 0.6304(3)
C21_2 C 0.4720(4) 0.2281(3) 0.7063(3)
H8_2 H 0.4605 0.1503 0.6952
H9_2 H 0.4785 0.3105 0.6138
C22_2 C 0.4781(5) 0.2749(3) 0.6835(3)
C23_2 C 0.4732(4) 0.2343(3) 0.7638(3)
C24_2 C 0.4851(4) 0.3146(3) 0.7232(3)
O13_2 O 0.4690(5) 0.2030(2) 0.7958(2)
C25_2 C 0.4816(4) 0.2912(2) 0.7699(3)
C26_2 C 0.4927(5) 0.3669(3) 0.7191(3)
C27_2 C 0.4887(4) 0.3192(3) 0.8156(2)
H10_2 H 0.4935 0.3832 0.6865
C28_2 C 0.4991(4) 0.3948(3) 0.7640(2)
C29_2 C 0.4972(3) 0.3710(2) 0.8118(2)
H11_2 H 0.4875 0.3027 0.8481
H12_2 H 0.5049 0.4308 0.7620
C30_2 C 0.5011(2) 0.40264(19) 0.8602(2)
O17_2 O 0.14628(13) 0.01408(15) 0.05048(15)
H18_2 H 0.2380 0.0049 0.0692
C45_2 C 0.1398(2) 0.0011(2) 0.09736(19)
Zr7_2 Zr 0.518287(16) 0.515317(16) 0.908158(16)
O20_2 O 0.4554(2) 0.0294(2) 0.4379(2)
O22_2 O 0.5294(2) 0.0621(2) 0.5446(2)
O23_2 O 0.40459(14) 0.11837(14) 0.46477(15)
O25_2 O 0.61837(14) 0.03523(15) 0.59541(14)
O26_2 O 0.51408(15) 0.05048(15) 0.35372(13)
O27_2 O 0.64628(13) 0.01408(15) 0.44952(15)
O28_2 O 0.55048(15) 0.14628(13) 0.48592(15)
O29_2 O 0.49221(14) 0.12027(15) 0.40166(14)
O31_2 O 0.62027(15) 0.09834(14) 0.50779(14)
O1_2 O 0.64449(13) 0.95487(13) 0.53423(14)
O2_2 O 0.5446(2) 0.9706(2) 0.5621(2)
O4_2 O 0.59541(14) 0.88163(14) 0.53523(15)
O5_2 O 0.94952(15) 0.64628(13) 0.48592(15)
O6_2 O 0.87973(15) 0.59834(14) 0.50779(14)
C1_2 C 0.6375(2) 0.9060(2) 0.5345(2)
C2_2 C 0.6856(2) 0.8746(2) 0.5332(3)
C3_2 C 0.7328(3) 0.8985(3) 0.5260(4)
C4_2 C 0.6822(3) 0.8217(2) 0.5345(4)
H1_2 H 0.7343 0.9348 0.5232
C5_2 C 0.7780(3) 0.8696(3) 0.5229(5)
C6_2 C 0.7281(3) 0.7937(3) 0.5280(4)
H2_2 H 0.6503 0.8048 0.5395
H3_2 H 0.8105 0.8862 0.5215
C7_2 C 0.7749(3) 0.8165(3) 0.5219(5)
C8_2 C 0.7343(3) 0.7362(3) 0.5268(4)
C9_2 C 0.8146(3) 0.7768(3) 0.5149(4)
O7_2 O 0.7030(2) 0.7042(2) 0.5310(5)
C10_2 C 0.7912(2) 0.7301(3) 0.5184(4)
C11_2 C 0.8669(3) 0.7809(3) 0.5073(5)
C12_2 C 0.8192(3) 0.6844(2) 0.5113(4)
H4_2 H 0.8832 0.8135 0.5065
C13_2 C 0.8948(3) 0.7360(2) 0.5009(4)
C14_2 C 0.8710(2) 0.6882(2) 0.5028(3)
H5_2 H 0.8027 0.6519 0.5125
H6_2 H 0.9308 0.7380 0.4951
C15_2 C 0.90264(19) 0.6398(2) 0.4989(2)
Zr3_2 Zr 0.518287(16) 0.984683(16) 0.408158(16)
O14_2 O 0.45487(13) 0.96577(14) 0.35551(13)
O15_2 O 0.4706(2) 0.9379(2) 0.4554(2)
O16_2 O 0.38163(14) 0.96477(15) 0.40459(14)
O18_2 O 0.09834(14) 0.99221(14) 0.12027(15)
C31_2 C 0.4060(2) 0.9655(2) 0.3625(2)
C32_2 C 0.3746(2) 0.9668(3) 0.3144(2)
C33_2 C 0.3985(3) 0.9740(4) 0.2672(3)
C34_2 C 0.3217(2) 0.9655(4) 0.3178(3)
H13_2 H 0.4348 0.9768 0.2657
C35_2 C 0.3696(3) 0.9771(5) 0.2220(3)
C36_2 C 0.2937(3) 0.9720(4) 0.2719(3)
H14_2 H 0.3048 0.9605 0.3497
H15_2 H 0.3862 0.9785 0.1895
C37_2 C 0.3165(3) 0.9781(5) 0.2251(3)
C38_2 C 0.2362(3) 0.9732(4) 0.2657(3)
C39_2 C 0.2768(3) 0.9851(4) 0.1854(3)
O19_2 O 0.2042(2) 0.9690(5) 0.2970(2)
C40_2 C 0.2301(3) 0.9816(4) 0.2088(2)
C41_2 C 0.2809(3) 0.9927(5) 0.1331(3)
C42_2 C 0.1844(2) 0.9887(4) 0.1808(3)
H16_2 H 0.3135 0.9935 0.1168
C43_2 C 0.2360(2) 0.9991(4) 0.1052(3)
C44_2 C 0.1882(2) 0.9972(3) 0.1290(2)
H17_2 H 0.1519 0.9875 0.1973
Zr5_2 Zr 0.515317(16) 0.908158(16) 0.518287(16)
Zr12_2 Zr 0.908158(16) 0.518287(16) 0.515317(16)
O21_2 O 0.5621(2) 0.9554(2) 0.4706(2)
O24_2 O 0.53523(15) 0.90459(14) 0.38163(14)
O30_2 O 0.59834(14) 0.99221(14) 0.37973(15)
Zr1_3 Zr 0.481713(16) 0.484683(16) 0.091842(16)
O1_3 O 0.54513(13) 0.46577(14) 0.14449(13)
O2_3 O 0.5294(2) 0.4379(2) 0.0446(2)
O3_3 O 0.45208(18) 0.54792(18) 0.04792(18)
O4_3 O 0.61837(14) 0.46477(15) 0.09541(14)
O5_3 O 0.85372(13) 0.51408(15) 0.44952(15)
O6_3 O 0.90166(14) 0.49221(14) 0.37973(15)
C1_3 C 0.5940(2) 0.4655(2) 0.1375(2)
C2_3 C 0.6254(2) 0.4668(3) 0.1856(2)
C3_3 C 0.6015(3) 0.4740(4) 0.2328(3)
C4_3 C 0.6783(2) 0.4655(4) 0.1822(3)
H1_3 H 0.5652 0.4768 0.2343
C5_3 C 0.6304(3) 0.4771(5) 0.2780(3)
C6_3 C 0.7063(3) 0.4720(4) 0.2281(3)
H2_3 H 0.6952 0.4605 0.1503
H3_3 H 0.6138 0.4785 0.3105
C7_3 C 0.6835(3) 0.4781(5) 0.2749(3)
C8_3 C 0.7638(3) 0.4732(4) 0.2343(3)
C9_3 C 0.7232(3) 0.4851(4) 0.3146(3)
O7_3 O 0.7958(2) 0.4690(5) 0.2030(2)
C10_3 C 0.7699(3) 0.4816(4) 0.2912(2)
C11_3 C 0.7191(3) 0.4927(5) 0.3669(3)
C12_3 C 0.8156(2) 0.4887(4) 0.3192(3)
H4_3 H 0.6865 0.4935 0.3832
C13_3 C 0.7640(2) 0.4991(4) 0.3948(3)
C14_3 C 0.8118(2) 0.4972(3) 0.3710(2)
H5_3 H 0.8481 0.4875 0.3027
H6_3 H 0.7620 0.5049 0.4308
C15_3 C 0.8602(2) 0.5011(2) 0.40264(19)
O11_3 O 0.05048(15) 0.14628(13) 0.01408(15)
H12_3 H 0.0692 0.2380 0.0049
C30_3 C 0.09736(19) 0.1398(2) 0.0011(2)
Zr3_3 Zr 0.515317(16) 0.591842(16) 0.018287(16)
O21_3 O 0.5446(2) 0.5294(2) 0.0621(2)
O22_3 O 0.4379(2) 0.4554(2) 0.0294(2)
O24_3 O 0.59541(14) 0.61837(14) 0.03523(15)
O25_3 O 0.46477(15) 0.40459(14) 0.11837(14)
O26_3 O 0.44952(15) 0.64628(13) 0.01408(15)
O27_3 O 0.48592(15) 0.55048(15) 0.14628(13)
O28_3 O 0.35372(13) 0.51408(15) 0.05048(15)
O30_3 O 0.50779(14) 0.62027(15) 0.09834(14)
O31_3 O 0.40166(14) 0.49221(14) 0.12027(15)
Zr2_3 Zr 0.408158(16) 0.518287(16) 0.984683(16)
O8_3 O 0.35551(13) 0.45487(13) 0.96577(14)
O9_3 O 0.4554(2) 0.4706(2) 0.9379(2)
O10_3 O 0.40459(14) 0.38163(14) 0.96477(15)
O12_3 O 0.12027(15) 0.09834(14) 0.99221(14)
C16_3 C 0.3625(2) 0.4060(2) 0.9655(2)
C17_3 C 0.3144(2) 0.3746(2) 0.9668(3)
C18_3 C 0.2672(3) 0.3985(3) 0.9740(4)
C19_3 C 0.3178(3) 0.3217(2) 0.9655(4)
H7_3 H 0.2657 0.4348 0.9768
C20_3 C 0.2220(3) 0.3696(3) 0.9771(5)
C21_3 C 0.2719(3) 0.2937(3) 0.9720(4)
H8_3 H 0.3497 0.3048 0.9605
H9_3 H 0.1895 0.3862 0.9785
C22_3 C 0.2251(3) 0.3165(3) 0.9781(5)
C23_3 C 0.2657(3) 0.2362(3) 0.9732(4)
C24_3 C 0.1854(3) 0.2768(3) 0.9851(4)
O13_3 O 0.2970(2) 0.2042(2) 0.9690(5)
C25_3 C 0.2088(2) 0.2301(3) 0.9816(4)
C26_3 C 0.1331(3) 0.2809(3) 0.9927(5)
C27_3 C 0.1808(3) 0.1844(2) 0.9887(4)
H10_3 H 0.1168 0.3135 0.9935
C28_3 C 0.1052(3) 0.2360(2) 0.9991(4)
C29_3 C 0.1290(2) 0.1882(2) 0.9972(3)
H11_3 H 0.1973 0.1519 0.9875
O14_3 O 0.53423(14) 0.64449(13) 0.95487(13)
O15_3 O 0.5621(2) 0.5446(2) 0.9706(2)
O16_3 O 0.53523(15) 0.59541(14) 0.88163(14)
O17_3 O 0.48592(15) 0.94952(15) 0.64628(13)
O18_3 O 0.50779(14) 0.87973(15) 0.59834(14)
C31_3 C 0.5345(2) 0.6375(2) 0.9060(2)
C32_3 C 0.5332(3) 0.6856(2) 0.8746(2)
C33_3 C 0.5260(4) 0.7328(3) 0.8985(3)
C34_3 C 0.5345(4) 0.6822(3) 0.8217(2)
H13_3 H 0.5232 0.7343 0.9348
C35_3 C 0.5229(5) 0.7780(3) 0.8696(3)
C36_3 C 0.5280(4) 0.7281(3) 0.7937(3)
H14_3 H 0.5395 0.6503 0.8048
H15_3 H 0.5215 0.8105 0.8862
C37_3 C 0.5219(5) 0.7749(3) 0.8165(3)
C38_3 C 0.5268(4) 0.7343(3) 0.7362(3)
C39_3 C 0.5149(4) 0.8146(3) 0.7768(3)
O19_3 O 0.5310(5) 0.7030(2) 0.7042(2)
C40_3 C 0.5184(4) 0.7912(2) 0.7301(3)
C41_3 C 0.5073(5) 0.8669(3) 0.7809(3)
C42_3 C 0.5113(4) 0.8192(3) 0.6844(2)
H16_3 H 0.5065 0.8832 0.8135
C43_3 C 0.5009(4) 0.8948(3) 0.7360(2)
C44_3 C 0.5028(3) 0.8710(2) 0.6882(2)
H17_3 H 0.5125 0.8027 0.6519
H18_3 H 0.4951 0.9308 0.7380
C45_3 C 0.4989(2) 0.90264(19) 0.6398(2)
O20_3 O 0.4706(2) 0.5621(2) 0.9554(2)
O23_3 O 0.38163(14) 0.53523(15) 0.90459(14)
O29_3 O 0.37973(15) 0.59834(14) 0.99221(14)
Zr1_4 Zr 0.091842(16) 0.481713(16) 0.484683(16)
O1_4 O 0.14449(13) 0.54513(13) 0.46577(14)
O2_4 O 0.0446(2) 0.5294(2) 0.4379(2)
O3_4 O 0.04792(18) 0.45208(18) 0.54792(18)
O4_4 O 0.09541(14) 0.61837(14) 0.46477(15)
O5_4 O 0.44952(15) 0.85372(13) 0.51408(15)
O6_4 O 0.37973(15) 0.90166(14) 0.49221(14)
C1_4 C 0.1375(2) 0.5940(2) 0.4655(2)
C2_4 C 0.1856(2) 0.6254(2) 0.4668(3)
C3_4 C 0.2328(3) 0.6015(3) 0.4740(4)
C4_4 C 0.1822(3) 0.6783(2) 0.4655(4)
H1_4 H 0.2343 0.5652 0.4768
C5_4 C 0.2780(3) 0.6304(3) 0.4771(5)
C6_4 C 0.2281(3) 0.7063(3) 0.4720(4)
H2_4 H 0.1503 0.6952 0.4605
H3_4 H 0.3105 0.6138 0.4785
C7_4 C 0.2749(3) 0.6835(3) 0.4781(5)
C8_4 C 0.2343(3) 0.7638(3) 0.4732(4)
C9_4 C 0.3146(3) 0.7232(3) 0.4851(4)
O7_4 O 0.2030(2) 0.7958(2) 0.4690(5)
C10_4 C 0.2912(2) 0.7699(3) 0.4816(4)
C11_4 C 0.3669(3) 0.7191(3) 0.4927(5)
C12_4 C 0.3192(3) 0.8156(2) 0.4887(4)
H4_4 H 0.3832 0.6865 0.4935
C13_4 C 0.3948(3) 0.7640(2) 0.4991(4)
C14_4 C 0.3710(2) 0.8118(2) 0.4972(3)
H5_4 H 0.3027 0.8481 0.4875
H6_4 H 0.4308 0.7620 0.5049
C15_4 C 0.40264(19) 0.8602(2) 0.5011(2)
O11_4 O 0.01408(15) 0.05048(15) 0.14628(13)
H12_4 H 0.0049 0.0692 0.2380
C30_4 C 0.0011(2) 0.09736(19) 0.1398(2)
Zr3_4 Zr 0.018287(16) 0.515317(16) 0.591842(16)
O21_4 O 0.0621(2) 0.5446(2) 0.5294(2)
O22_4 O 0.0294(2) 0.4379(2) 0.4554(2)
O24_4 O 0.03523(15) 0.59541(14) 0.61837(14)
O25_4 O 0.11837(14) 0.46477(15) 0.40459(14)
O26_4 O 0.01408(15) 0.44952(15) 0.64628(13)
O27_4 O 0.14628(13) 0.48592(15) 0.55048(15)
O28_4 O 0.05048(15) 0.35372(13) 0.51408(15)
O30_4 O 0.09834(14) 0.50779(14) 0.62027(15)
O31_4 O 0.12027(15) 0.40166(14) 0.49221(14)
Zr2_4 Zr 0.984683(16) 0.408158(16) 0.518287(16)
O8_4 O 0.96577(14) 0.35551(13) 0.45487(13)
O9_4 O 0.9379(2) 0.4554(2) 0.4706(2)
O10_4 O 0.96477(15) 0.40459(14) 0.38163(14)
O12_4 O 0.99221(14) 0.12027(15) 0.09834(14)
C16_4 C 0.9655(2) 0.3625(2) 0.4060(2)
C17_4 C 0.9668(3) 0.3144(2) 0.3746(2)
C18_4 C 0.9740(4) 0.2672(3) 0.3985(3)
C19_4 C 0.9655(4) 0.3178(3) 0.3217(2)
H7_4 H 0.9768 0.2657 0.4348
C20_4 C 0.9771(5) 0.2220(3) 0.3696(3)
C21_4 C 0.9720(4) 0.2719(3) 0.2937(3)
H8_4 H 0.9605 0.3497 0.3048
H9_4 H 0.9785 0.1895 0.3862
C22_4 C 0.9781(5) 0.2251(3) 0.3165(3)
C23_4 C 0.9732(4) 0.2657(3) 0.2362(3)
C24_4 C 0.9851(4) 0.1854(3) 0.2768(3)
O13_4 O 0.9690(5) 0.2970(2) 0.2042(2)
C25_4 C 0.9816(4) 0.2088(2) 0.2301(3)
C26_4 C 0.9927(5) 0.1331(3) 0.2809(3)
C27_4 C 0.9887(4) 0.1808(3) 0.1844(2)
H10_4 H 0.9935 0.1168 0.3135
C28_4 C 0.9991(4) 0.1052(3) 0.2360(2)
C29_4 C 0.9972(3) 0.1290(2) 0.1882(2)
H11_4 H 0.9875 0.1973 0.1519
O14_4 O 0.95487(13) 0.53423(14) 0.64449(13)
O15_4 O 0.9706(2) 0.5621(2) 0.5446(2)
O16_4 O 0.88163(14) 0.53523(15) 0.59541(14)
O17_4 O 0.64628(13) 0.48592(15) 0.94952(15)
O18_4 O 0.59834(14) 0.50779(14) 0.87973(15)
C31_4 C 0.9060(2) 0.5345(2) 0.6375(2)
C32_4 C 0.8746(2) 0.5332(3) 0.6856(2)
C33_4 C 0.8985(3) 0.5260(4) 0.7328(3)
C34_4 C 0.8217(2) 0.5345(4) 0.6822(3)
H13_4 H 0.9348 0.5232 0.7343
C35_4 C 0.8696(3) 0.5229(5) 0.7780(3)
C36_4 C 0.7937(3) 0.5280(4) 0.7281(3)
H14_4 H 0.8048 0.5395 0.6503
H15_4 H 0.8862 0.5215 0.8105
C37_4 C 0.8165(3) 0.5219(5) 0.7749(3)
C38_4 C 0.7362(3) 0.5268(4) 0.7343(3)
C39_4 C 0.7768(3) 0.5149(4) 0.8146(3)
O19_4 O 0.7042(2) 0.5310(5) 0.7030(2)
C40_4 C 0.7301(3) 0.5184(4) 0.7912(2)
C41_4 C 0.7809(3) 0.5073(5) 0.8669(3)
C42_4 C 0.6844(2) 0.5113(4) 0.8192(3)
H16_4 H 0.8135 0.5065 0.8832
C43_4 C 0.7360(2) 0.5009(4) 0.8948(3)
C44_4 C 0.6882(2) 0.5028(3) 0.8710(2)
H17_4 H 0.6519 0.5125 0.8027
H18_4 H 0.7380 0.4951 0.9308
C45_4 C 0.6398(2) 0.4989(2) 0.90264(19)
O20_4 O 0.9554(2) 0.4706(2) 0.5621(2)
O23_4 O 0.90459(14) 0.38163(14) 0.53523(15)
O29_4 O 0.99221(14) 0.37973(15) 0.59834(14)
O3_5 O 0.04792(18) 0.04792(18) 0.04792(18)
H6_5 H 0.0049 0.4308 0.7380
C15_5 C 0.0011(2) 0.40264(19) 0.6398(2)
H18_5 H 0.4308 0.7380 0.0049
C45_5 C 0.40264(19) 0.6398(2) 0.0011(2)
O14_5 O 0.14449(13) 0.95487(13) 0.96577(14)
C31_5 C 0.1375(2) 0.9060(2) 0.9655(2)
C32_5 C 0.1856(2) 0.8746(2) 0.9668(3)
C33_5 C 0.2328(3) 0.8985(3) 0.9740(4)
C34_5 C 0.1822(3) 0.8217(2) 0.9655(4)
H13_5 H 0.2343 0.9348 0.9768
C35_5 C 0.2780(3) 0.8696(3) 0.9771(5)
C36_5 C 0.2281(3) 0.7937(3) 0.9720(4)
H14_5 H 0.1503 0.8048 0.9605
H15_5 H 0.3105 0.8862 0.9785
C37_5 C 0.2749(3) 0.8165(3) 0.9781(5)
C38_5 C 0.2343(3) 0.7362(3) 0.9732(4)
C39_5 C 0.3146(3) 0.7768(3) 0.9851(4)
O19_5 O 0.2030(2) 0.7042(2) 0.9690(5)
C40_5 C 0.2912(2) 0.7301(3) 0.9816(4)
C41_5 C 0.3669(3) 0.7809(3) 0.9927(5)
C42_5 C 0.3192(3) 0.6844(2) 0.9887(4)
H16_5 H 0.3832 0.8135 0.9935
C43_5 C 0.3948(3) 0.7360(2) 0.9991(4)
C44_5 C 0.3710(2) 0.6882(2) 0.9972(3)
H17_5 H 0.3027 0.6519 0.9875
H12_5 H 0.7380 0.0049 0.4308
C30_5 C 0.6398(2) 0.0011(2) 0.40264(19)
O1_5 O 0.96577(14) 0.14449(13) 0.95487(13)
C1_5 C 0.9655(2) 0.1375(2) 0.9060(2)
C2_5 C 0.9668(3) 0.1856(2) 0.8746(2)
C3_5 C 0.9740(4) 0.2328(3) 0.8985(3)
C4_5 C 0.9655(4) 0.1822(3) 0.8217(2)
H1_5 H 0.9768 0.2343 0.9348
C5_5 C 0.9771(5) 0.2780(3) 0.8696(3)
C6_5 C 0.9720(4) 0.2281(3) 0.7937(3)
H2_5 H 0.9605 0.1503 0.8048
H3_5 H 0.9785 0.3105 0.8862
C7_5 C 0.9781(5) 0.2749(3) 0.8165(3)
C8_5 C 0.9732(4) 0.2343(3) 0.7362(3)
C9_5 C 0.9851(4) 0.3146(3) 0.7768(3)
O7_5 O 0.9690(5) 0.2030(2) 0.7042(2)
C10_5 C 0.9816(4) 0.2912(2) 0.7301(3)
C11_5 C 0.9927(5) 0.3669(3) 0.7809(3)
C12_5 C 0.9887(4) 0.3192(3) 0.6844(2)
H4_5 H 0.9935 0.3832 0.8135
C13_5 C 0.9991(4) 0.3948(3) 0.7360(2)
C14_5 C 0.9972(3) 0.3710(2) 0.6882(2)
H5_5 H 0.9875 0.3027 0.6519
O8_5 O 0.95487(13) 0.96577(14) 0.14449(13)
C16_5 C 0.9060(2) 0.9655(2) 0.1375(2)
C17_5 C 0.8746(2) 0.9668(3) 0.1856(2)
C18_5 C 0.8985(3) 0.9740(4) 0.2328(3)
C19_5 C 0.8217(2) 0.9655(4) 0.1822(3)
H7_5 H 0.9348 0.9768 0.2343
C20_5 C 0.8696(3) 0.9771(5) 0.2780(3)
C21_5 C 0.7937(3) 0.9720(4) 0.2281(3)
H8_5 H 0.8048 0.9605 0.1503
H9_5 H 0.8862 0.9785 0.3105
C22_5 C 0.8165(3) 0.9781(5) 0.2749(3)
C23_5 C 0.7362(3) 0.9732(4) 0.2343(3)
C24_5 C 0.7768(3) 0.9851(4) 0.3146(3)
O13_5 O 0.7042(2) 0.9690(5) 0.2030(2)
C25_5 C 0.7301(3) 0.9816(4) 0.2912(2)
C26_5 C 0.7809(3) 0.9927(5) 0.3669(3)
C27_5 C 0.6844(2) 0.9887(4) 0.3192(3)
H10_5 H 0.8135 0.9935 0.3832
C28_5 C 0.7360(2) 0.9991(4) 0.3948(3)
C29_5 C 0.6882(2) 0.9972(3) 0.3710(2)
H11_5 H 0.6519 0.9875 0.3027
O1_6 O 0.35551(13) 0.04513(13) 0.46577(14)
C1_6 C 0.3625(2) 0.0940(2) 0.4655(2)
C2_6 C 0.3144(2) 0.1254(2) 0.4668(3)
C3_6 C 0.2672(3) 0.1015(3) 0.4740(4)
C4_6 C 0.3178(3) 0.1783(2) 0.4655(4)
H1_6 H 0.2657 0.0652 0.4768
C5_6 C 0.2220(3) 0.1304(3) 0.4771(5)
C6_6 C 0.2719(3) 0.2063(3) 0.4720(4)
H2_6 H 0.3497 0.1952 0.4605
H3_6 H 0.1895 0.1138 0.4785
C7_6 C 0.2251(3) 0.1835(3) 0.4781(5)
C8_6 C 0.2657(3) 0.2638(3) 0.4732(4)
C9_6 C 0.1854(3) 0.2232(3) 0.4851(4)
O7_6 O 0.2970(2) 0.2958(2) 0.4690(5)
C10_6 C 0.2088(2) 0.2699(3) 0.4816(4)
C11_6 C 0.1331(3) 0.2191(3) 0.4927(5)
C12_6 C 0.1808(3) 0.3156(2) 0.4887(4)
H4_6 H 0.1168 0.1865 0.4935
C13_6 C 0.1052(3) 0.2640(2) 0.4991(4)
C14_6 C 0.1290(2) 0.3118(2) 0.4972(3)
H5_6 H 0.1973 0.3481 0.4875
H6_6 H 0.0692 0.2620 0.5049
C15_6 C 0.09736(19) 0.3602(2) 0.5011(2)
O14_6 O 0.54513(13) 0.03423(14) 0.64449(13)
C31_6 C 0.5940(2) 0.0345(2) 0.6375(2)
C32_6 C 0.6254(2) 0.0332(3) 0.6856(2)
C33_6 C 0.6015(3) 0.0260(4) 0.7328(3)
C34_6 C 0.6783(2) 0.0345(4) 0.6822(3)
H13_6 H 0.5652 0.0232 0.7343
C35_6 C 0.6304(3) 0.0229(5) 0.7780(3)
C36_6 C 0.7063(3) 0.0280(4) 0.7281(3)
H14_6 H 0.6952 0.0395 0.6503
H15_6 H 0.6138 0.0215 0.8105
C37_6 C 0.6835(3) 0.0219(5) 0.7749(3)
C38_6 C 0.7638(3) 0.0268(4) 0.7343(3)
C39_6 C 0.7232(3) 0.0149(4) 0.8146(3)
O19_6 O 0.7958(2) 0.0310(5) 0.7030(2)
C40_6 C 0.7699(3) 0.0184(4) 0.7912(2)
C41_6 C 0.7191(3) 0.0073(5) 0.8669(3)
C42_6 C 0.8156(2) 0.0113(4) 0.8192(3)
H16_6 H 0.6865 0.0065 0.8832
C43_6 C 0.7640(2) 0.0009(4) 0.8948(3)
C44_6 C 0.8118(2) 0.0028(3) 0.8710(2)
H17_6 H 0.8481 0.0125 0.8027
O3_6 O 0.45208(18) 0.95208(18) 0.54792(18)
O8_6 O 0.53423(14) 0.85551(13) 0.45487(13)
C16_6 C 0.5345(2) 0.8625(2) 0.4060(2)
C17_6 C 0.5332(3) 0.8144(2) 0.3746(2)
C18_6 C 0.5260(4) 0.7672(3) 0.3985(3)
C19_6 C 0.5345(4) 0.8178(3) 0.3217(2)
H7_6 H 0.5232 0.7657 0.4348
C20_6 C 0.5229(5) 0.7220(3) 0.3696(3)
C21_6 C 0.5280(4) 0.7719(3) 0.2937(3)
H8_6 H 0.5395 0.8497 0.3048
H9_6 H 0.5215 0.6895 0.3862
C22_6 C 0.5219(5) 0.7251(3) 0.3165(3)
C23_6 C 0.5268(4) 0.7657(3) 0.2362(3)
C24_6 C 0.5149(4) 0.6854(3) 0.2768(3)
O13_6 O 0.5310(5) 0.7970(2) 0.2042(2)
C25_6 C 0.5184(4) 0.7088(2) 0.2301(3)
C26_6 C 0.5073(5) 0.6331(3) 0.2809(3)
C27_6 C 0.5113(4) 0.6808(3) 0.1844(2)
H10_6 H 0.5065 0.6168 0.3135
C28_6 C 0.5009(4) 0.6052(3) 0.2360(2)
C29_6 C 0.5028(3) 0.6290(2) 0.1882(2)
H11_6 H 0.5125 0.6973 0.1519
H12_6 H 0.4951 0.5692 0.2380
C30_6 C 0.4989(2) 0.59736(19) 0.1398(2)
H18_6 H 0.7620 0.9951 0.9308
C45_6 C 0.8602(2) 0.9989(2) 0.90264(19)
O8_7 O 0.64449(13) 0.54513(13) 0.03423(14)
C16_7 C 0.6375(2) 0.5940(2) 0.0345(2)
C17_7 C 0.6856(2) 0.6254(2) 0.0332(3)
C18_7 C 0.7328(3) 0.6015(3) 0.0260(4)
C19_7 C 0.6822(3) 0.6783(2) 0.0345(4)
H7_7 H 0.7343 0.5652 0.0232
C20_7 C 0.7780(3) 0.6304(3) 0.0229(5)
C21_7 C 0.7281(3) 0.7063(3) 0.0280(4)
H8_7 H 0.6503 0.6952 0.0395
H9_7 H 0.8105 0.6138 0.0215
C22_7 C 0.7749(3) 0.6835(3) 0.0219(5)
C23_7 C 0.7343(3) 0.7638(3) 0.0268(4)
C24_7 C 0.8146(3) 0.7232(3) 0.0149(4)
O13_7 O 0.7030(2) 0.7958(2) 0.0310(5)
C25_7 C 0.7912(2) 0.7699(3) 0.0184(4)
C26_7 C 0.8669(3) 0.7191(3) 0.0073(5)
C27_7 C 0.8192(3) 0.8156(2) 0.0113(4)
H10_7 H 0.8832 0.6865 0.0065
C28_7 C 0.8948(3) 0.7640(2) 0.0009(4)
C29_7 C 0.8710(2) 0.8118(2) 0.0028(3)
H11_7 H 0.8027 0.8481 0.0125
O14_7 O 0.46577(14) 0.35551(13) 0.04513(13)
C31_7 C 0.4655(2) 0.3625(2) 0.0940(2)
C32_7 C 0.4668(3) 0.3144(2) 0.1254(2)
C33_7 C 0.4740(4) 0.2672(3) 0.1015(3)
C34_7 C 0.4655(4) 0.3178(3) 0.1783(2)
H13_7 H 0.4768 0.2657 0.0652
C35_7 C 0.4771(5) 0.2220(3) 0.1304(3)
C36_7 C 0.4720(4) 0.2719(3) 0.2063(3)
H14_7 H 0.4605 0.3497 0.1952
H15_7 H 0.4785 0.1895 0.1138
C37_7 C 0.4781(5) 0.2251(3) 0.1835(3)
C38_7 C 0.4732(4) 0.2657(3) 0.2638(3)
C39_7 C 0.4851(4) 0.1854(3) 0.2232(3)
O19_7 O 0.4690(5) 0.2970(2) 0.2958(2)
C40_7 C 0.4816(4) 0.2088(2) 0.2699(3)
C41_7 C 0.4927(5) 0.1331(3) 0.2191(3)
C42_7 C 0.4887(4) 0.1808(3) 0.3156(2)
H16_7 H 0.4935 0.1168 0.1865
C43_7 C 0.4991(4) 0.1052(3) 0.2640(2)
C44_7 C 0.4972(3) 0.1290(2) 0.3118(2)
H17_7 H 0.4875 0.1973 0.3481
H18_7 H 0.5049 0.0692 0.2620
C45_7 C 0.5011(2) 0.09736(19) 0.3602(2)
O1_7 O 0.45487(13) 0.53423(14) 0.85551(13)
O3_7 O 0.54792(18) 0.45208(18) 0.95208(18)
C1_7 C 0.4060(2) 0.5345(2) 0.8625(2)
C2_7 C 0.3746(2) 0.5332(3) 0.8144(2)
C3_7 C 0.3985(3) 0.5260(4) 0.7672(3)
C4_7 C 0.3217(2) 0.5345(4) 0.8178(3)
H1_7 H 0.4348 0.5232 0.7657
C5_7 C 0.3696(3) 0.5229(5) 0.7220(3)
C6_7 C 0.2937(3) 0.5280(4) 0.7719(3)
H2_7 H 0.3048 0.5395 0.8497
H3_7 H 0.3862 0.5215 0.6895
C7_7 C 0.3165(3) 0.5219(5) 0.7251(3)
C8_7 C 0.2362(3) 0.5268(4) 0.7657(3)
C9_7 C 0.2768(3) 0.5149(4) 0.6854(3)
O7_7 O 0.2042(2) 0.5310(5) 0.7970(2)
C10_7 C 0.2301(3) 0.5184(4) 0.7088(2)
C11_7 C 0.2809(3) 0.5073(5) 0.6331(3)
C12_7 C 0.1844(2) 0.5113(4) 0.6808(3)
H4_7 H 0.3135 0.5065 0.6168
C13_7 C 0.2360(2) 0.5009(4) 0.6052(3)
C14_7 C 0.1882(2) 0.5028(3) 0.6290(2)
H5_7 H 0.1519 0.5125 0.6973
H6_7 H 0.2380 0.4951 0.5692
C15_7 C 0.1398(2) 0.4989(2) 0.59736(19)
H12_7 H 0.9308 0.7620 0.9951
C30_7 C 0.90264(19) 0.8602(2) 0.9989(2)
O8_8 O 0.03423(14) 0.64449(13) 0.54513(13)
C16_8 C 0.0345(2) 0.6375(2) 0.5940(2)
C17_8 C 0.0332(3) 0.6856(2) 0.6254(2)
C18_8 C 0.0260(4) 0.7328(3) 0.6015(3)
C19_8 C 0.0345(4) 0.6822(3) 0.6783(2)
H7_8 H 0.0232 0.7343 0.5652
C20_8 C 0.0229(5) 0.7780(3) 0.6304(3)
C21_8 C 0.0280(4) 0.7281(3) 0.7063(3)
H8_8 H 0.0395 0.6503 0.6952
H9_8 H 0.0215 0.8105 0.6138
C22_8 C 0.0219(5) 0.7749(3) 0.6835(3)
C23_8 C 0.0268(4) 0.7343(3) 0.7638(3)
C24_8 C 0.0149(4) 0.8146(3) 0.7232(3)
O13_8 O 0.0310(5) 0.7030(2) 0.7958(2)
C25_8 C 0.0184(4) 0.7912(2) 0.7699(3)
C26_8 C 0.0073(5) 0.8669(3) 0.7191(3)
C27_8 C 0.0113(4) 0.8192(3) 0.8156(2)
H10_8 H 0.0065 0.8832 0.6865
C28_8 C 0.0009(4) 0.8948(3) 0.7640(2)
C29_8 C 0.0028(3) 0.8710(2) 0.8118(2)
H11_8 H 0.0125 0.8027 0.8481
O14_8 O 0.04513(13) 0.46577(14) 0.35551(13)
C31_8 C 0.0940(2) 0.4655(2) 0.3625(2)
C32_8 C 0.1254(2) 0.4668(3) 0.3144(2)
C33_8 C 0.1015(3) 0.4740(4) 0.2672(3)
C34_8 C 0.1783(2) 0.4655(4) 0.3178(3)
H13_8 H 0.0652 0.4768 0.2657
C35_8 C 0.1304(3) 0.4771(5) 0.2220(3)
C36_8 C 0.2063(3) 0.4720(4) 0.2719(3)
H14_8 H 0.1952 0.4605 0.3497
H15_8 H 0.1138 0.4785 0.1895
C37_8 C 0.1835(3) 0.4781(5) 0.2251(3)
C38_8 C 0.2638(3) 0.4732(4) 0.2657(3)
C39_8 C 0.2232(3) 0.4851(4) 0.1854(3)
O19_8 O 0.2958(2) 0.4690(5) 0.2970(2)
C40_8 C 0.2699(3) 0.4816(4) 0.2088(2)
C41_8 C 0.2191(3) 0.4927(5) 0.1331(3)
C42_8 C 0.3156(2) 0.4887(4) 0.1808(3)
H16_8 H 0.1865 0.4935 0.1168
C43_8 C 0.2640(2) 0.4991(4) 0.1052(3)
C44_8 C 0.3118(2) 0.4972(3) 0.1290(2)
H17_8 H 0.3481 0.4875 0.1973
H18_8 H 0.2620 0.5049 0.0692
C45_8 C 0.3602(2) 0.5011(2) 0.09736(19)
O1_8 O 0.85551(13) 0.45487(13) 0.53423(14)
O3_8 O 0.95208(18) 0.54792(18) 0.45208(18)
C1_8 C 0.8625(2) 0.4060(2) 0.5345(2)
C2_8 C 0.8144(2) 0.3746(2) 0.5332(3)
C3_8 C 0.7672(3) 0.3985(3) 0.5260(4)
C4_8 C 0.8178(3) 0.3217(2) 0.5345(4)
H1_8 H 0.7657 0.4348 0.5232
C5_8 C 0.7220(3) 0.3696(3) 0.5229(5)
C6_8 C 0.7719(3) 0.2937(3) 0.5280(4)
H2_8 H 0.8497 0.3048 0.5395
H3_8 H 0.6895 0.3862 0.5215
C7_8 C 0.7251(3) 0.3165(3) 0.5219(5)
C8_8 C 0.7657(3) 0.2362(3) 0.5268(4)
C9_8 C 0.6854(3) 0.2768(3) 0.5149(4)
O7_8 O 0.7970(2) 0.2042(2) 0.5310(5)
C10_8 C 0.7088(2) 0.2301(3) 0.5184(4)
C11_8 C 0.6331(3) 0.2809(3) 0.5073(5)
C12_8 C 0.6808(3) 0.1844(2) 0.5113(4)
H4_8 H 0.6168 0.3135 0.5065
C13_8 C 0.6052(3) 0.2360(2) 0.5009(4)
C14_8 C 0.6290(2) 0.1882(2) 0.5028(3)
H5_8 H 0.6973 0.1519 0.5125
H6_8 H 0.5692 0.2380 0.4951
C15_8 C 0.59736(19) 0.1398(2) 0.4989(2)
H12_8 H 0.9951 0.9308 0.7620
C30_8 C 0.9989(2) 0.90264(19) 0.8602(2)
loop_
_geom_bond_atom_site_label_1
_geom_bond_atom_site_label_2
_geom_bond_site_symmetry_1
_geom_bond_site_symmetry_2
O10 C16 1_555 1_555
C16 O8 1_555 1_555
C17 C16 1_555 1_555
C18 C17 1_555 1_555
C19 C17 1_555 1_555
H7 C18 1_555 1_555
C20 C18 1_555 1_555
C21 C19 1_555 1_555
H8 C19 1_555 1_555
H9 C20 1_555 1_555
C22 C20 1_555 1_555
C23 C21 1_555 1_555
C24 C22 1_555 1_555
O13 C23 1_555 1_555
C25 C23 1_555 1_555
C26 C24 1_555 1_555
C27 C25 1_555 1_555
H10 C26 1_555 1_555
C28 C26 1_555 1_555
C29 C27 1_555 1_555
H11 C27 1_555 1_555
Zr8 O12 1_555 1_555
O9 Zr6 1_555 1_555
O10 Zr6 1_555 1_555
C21 C22 1_555 1_555
C24 C25 1_555 1_555
C28 C29 1_555 1_555
O1 C1 1_555 1_555
O4 C1 1_555 1_555
C1 C2 1_555 1_555
C2 C3 1_555 1_555
C3 H1 1_555 1_555
C4 C2 1_555 1_555
C5 C3 1_555 1_555
C6 C4 1_555 1_555
H2 C4 1_555 1_555
H3 C5 1_555 1_555
C7 C5 1_555 1_555
C8 C6 1_555 1_555
C9 C7 1_555 1_555
O7 C8 1_555 1_555
C10 C8 1_555 1_555
C11 C9 1_555 1_555
C12 C10 1_555 1_555
H4 C11 1_555 1_555
C13 C11 1_555 1_555
C14 C12 1_555 1_555
H5 C12 1_555 1_555
Zr5 O2 1_555 1_555
Zr12 O6 1_555 1_555
O4 Zr5 1_555 1_555
C6 C7 1_555 1_555
C9 C10 1_555 1_555
C13 C14 1_555 1_555
O11 C30 1_555 1_555
Zr7 O11 1_555 1_555
O22 Zr1 1_555 1_555
O25 Zr1 1_555 1_555
O31 Zr1 1_555 1_555
O16 C31 1_555 1_555
C31 O14 1_555 1_555
C32 C31 1_555 1_555
C33 C32 1_555 1_555
C34 C32 1_555 1_555
H13 C33 1_555 1_555
C35 C33 1_555 1_555
C36 C34 1_555 1_555
H14 C34 1_555 1_555
H15 C35 1_555 1_555
C37 C35 1_555 1_555
C38 C36 1_555 1_555
C39 C37 1_555 1_555
O19 C38 1_555 1_555
C40 C38 1_555 1_555
C41 C39 1_555 1_555
C42 C40 1_555 1_555
H16 C41 1_555 1_555
C43 C41 1_555 1_555
C44 C42 1_555 1_555
H17 C42 1_555 1_555
Zr10 O18 1_555 1_555
O15 Zr4 1_555 1_555
O16 Zr4 1_555 1_555
C36 C37 1_555 1_555
C39 C40 1_555 1_555
C43 C44 1_555 1_555
O17 C45 1_555 1_555
Zr11 O17 1_555 1_555
O20 Zr2 1_555 1_555
O23 Zr2 1_555 1_555
O29 Zr2 1_555 1_555
O5 C15 1_555 1_555
Zr9 O5 1_555 1_555
O24 Zr3 1_555 1_555
O30 Zr3 1_555 1_555
Zr3 O21 1_555 1_555
O3_2 Zr1_2 1_555 1_555
Zr2_2 O3_2 1_555 1_555
O8_2 Zr2_2 1_555 1_555
O9_2 Zr2_2 1_555 1_555
O10_2 C16_2 1_555 1_555
O11_2 C30_2 1_555 1_555
O12_2 C30_2 1_555 1_555
C16_2 O8_2 1_555 1_555
C17_2 C16_2 1_555 1_555
C18_2 C17_2 1_555 1_555
C19_2 C17_2 1_555 1_555
H7_2 C18_2 1_555 1_555
C20_2 C18_2 1_555 1_555
C21_2 C19_2 1_555 1_555
H8_2 C19_2 1_555 1_555
H9_2 C20_2 1_555 1_555
C22_2 C20_2 1_555 1_555
C23_2 C21_2 1_555 1_555
C24_2 C22_2 1_555 1_555
O13_2 C23_2 1_555 1_555
C25_2 C23_2 1_555 1_555
C26_2 C24_2 1_555 1_555
C27_2 C25_2 1_555 1_555
H10_2 C26_2 1_555 1_555
C28_2 C26_2 1_555 1_555
C29_2 C27_2 1_555 1_555
H11_2 C27_2 1_555 1_555
H12_2 C28_2 1_555 1_555
C30_2 C29_2 1_555 1_555
O17_2 C45_2 1_555 1_555
Zr7_2 O11_2 1_555 1_555
Zr11 O12_2 1_555 1_555
O20_2 Zr2_2 1_555 1_555
O22_2 Zr1_2 1_555 1_555
O23_2 Zr2_2 1_555 1_555
O25_2 Zr1_2 1_555 1_555
O27_2 Zr1_2 1_555 1_555
O28_2 Zr2_2 1_555 1_555
O29_2 Zr2_2 1_555 1_555
O31_2 Zr1_2 1_555 1_555
Zr2_2 O22_2 1_555 1_555
O9_2 Zr8 1_555 1_555
O10_2 Zr8 1_555 1_555
C21_2 C22_2 1_555 1_555
C24_2 C25_2 1_555 1_555
C28_2 C29_2 1_555 1_555
Zr8 O22_2 1_555 1_555
O1_2 C1_2 1_555 1_555
O4_2 C1_2 1_555 1_555
O5_2 C15_2 1_555 1_555
O6_2 C15_2 1_555 1_555
C1_2 C2_2 1_555 1_555
C2_2 C3_2 1_555 1_555
C3_2 H1_2 1_555 1_555
C4_2 C2_2 1_555 1_555
C5_2 C3_2 1_555 1_555
C6_2 C4_2 1_555 1_555
H2_2 C4_2 1_555 1_555
H3_2 C5_2 1_555 1_555
C7_2 C5_2 1_555 1_555
C8_2 C6_2 1_555 1_555
C9_2 C7_2 1_555 1_555
O7_2 C8_2 1_555 1_555
C10_2 C8_2 1_555 1_555
C11_2 C9_2 1_555 1_555
C12_2 C10_2 1_555 1_555
H4_2 C11_2 1_555 1_555
C13_2 C11_2 1_555 1_555
C14_2 C12_2 1_555 1_555
H5_2 C12_2 1_555 1_555
H6_2 C13_2 1_555 1_555
C15_2 C14_2 1_555 1_555
O14_2 Zr3_2 1_555 1_555
O15_2 Zr3_2 1_555 1_555
O16_2 C31_2 1_555 1_555
C31_2 O14_2 1_555 1_555
C32_2 C31_2 1_555 1_555
C33_2 C32_2 1_555 1_555
C34_2 C32_2 1_555 1_555
H13_2 C33_2 1_555 1_555
C35_2 C33_2 1_555 1_555
C36_2 C34_2 1_555 1_555
H14_2 C34_2 1_555 1_555
H15_2 C35_2 1_555 1_555
C37_2 C35_2 1_555 1_555
C38_2 C36_2 1_555 1_555
C39_2 C37_2 1_555 1_555
O19_2 C38_2 1_555 1_555
C40_2 C38_2 1_555 1_555
C41_2 C39_2 1_555 1_555
C42_2 C40_2 1_555 1_555
H16_2 C41_2 1_555 1_555
C43_2 C41_2 1_555 1_555
C44_2 C42_2 1_555 1_555
H17_2 C42_2 1_555 1_555
Zr5_2 O2_2 1_555 1_555
Zr5 O18_2 1_555 1_555
Zr12_2 O6_2 1_555 1_555
O24_2 Zr3_2 1_555 1_555
O30_2 Zr3_2 1_555 1_555
O4_2 Zr5_2 1_555 1_555
C6_2 C7_2 1_555 1_555
C9_2 C10_2 1_555 1_555
C13_2 C14_2 1_555 1_555
Zr3_2 O21_2 1_555 1_555
O15_2 Zr7 1_555 1_555
O15_2 Zr5_2 1_555 1_555
O16_2 Zr7 1_555 1_555
C36_2 C37_2 1_555 1_555
C39_2 C40_2 1_555 1_555
C43_2 C44_2 1_555 1_555
Zr5_2 O21_2 1_555 1_555
Zr1_3 O1_3 1_555 1_555
O1_3 C1_3 1_555 1_555
O2_3 Zr1_3 1_555 1_555
O3_3 Zr1_3 1_555 1_555
O4_3 C1_3 1_555 1_555
O5_3 C15_3 1_555 1_555
O6_3 C15_3 1_555 1_555
C1_3 C2_3 1_555 1_555
C2_3 C3_3 1_555 1_555
C3_3 H1_3 1_555 1_555
C4_3 C2_3 1_555 1_555
C5_3 C3_3 1_555 1_555
C6_3 C4_3 1_555 1_555
H2_3 C4_3 1_555 1_555
H3_3 C5_3 1_555 1_555
C7_3 C5_3 1_555 1_555
C8_3 C6_3 1_555 1_555
C9_3 C7_3 1_555 1_555
O7_3 C8_3 1_555 1_555
C10_3 C8_3 1_555 1_555
C11_3 C9_3 1_555 1_555
C12_3 C10_3 1_555 1_555
H4_3 C11_3 1_555 1_555
C13_3 C11_3 1_555 1_555
C14_3 C12_3 1_555 1_555
H5_3 C12_3 1_555 1_555
H6_3 C13_3 1_555 1_555
C15_3 C14_3 1_555 1_555
O11_3 C30_3 1_555 1_555
Zr3_3 O3_3 1_555 1_555
Zr10 O2_3 1_555 1_555
Zr12_2 O5_3 1_555 1_555
Zr9 O6_3 1_555 1_555
O21_3 Zr1_3 1_555 1_555
O22_3 Zr1_3 1_555 1_555
O24_3 Zr3_3 1_555 1_555
O25_3 Zr1_3 1_555 1_555
O26_3 Zr3_3 1_555 1_555
O27_3 Zr1_3 1_555 1_555
O30_3 Zr3_3 1_555 1_555
O31_3 Zr1_3 1_555 1_555
O4_3 Zr10 1_555 1_555
C6_3 C7_3 1_555 1_555
C9_3 C10_3 1_555 1_555
C13_3 C14_3 1_555 1_555
Zr3_3 O21_3 1_555 1_555
Zr10 O21_3 1_555 1_555
O8_3 Zr2_3 1_555 1_555
O9_3 Zr2_3 1_555 1_555
O10_3 C16_3 1_555 1_555
C16_3 O8_3 1_555 1_555
C17_3 C16_3 1_555 1_555
C18_3 C17_3 1_555 1_555
C19_3 C17_3 1_555 1_555
H7_3 C18_3 1_555 1_555
C20_3 C18_3 1_555 1_555
C21_3 C19_3 1_555 1_555
H8_3 C19_3 1_555 1_555
H9_3 C20_3 1_555 1_555
C22_3 C20_3 1_555 1_555
C23_3 C21_3 1_555 1_555
C24_3 C22_3 1_555 1_555
O13_3 C23_3 1_555 1_555
C25_3 C23_3 1_555 1_555
C26_3 C24_3 1_555 1_555
C27_3 C25_3 1_555 1_555
H10_3 C26_3 1_555 1_555
C28_3 C26_3 1_555 1_555
C29_3 C27_3 1_555 1_555
H11_3 C27_3 1_555 1_555
O16_3 C31_3 1_555 1_555
O17_3 C45_3 1_555 1_555
O18_3 C45_3 1_555 1_555
C31_3 O14_3 1_555 1_555
C32_3 C31_3 1_555 1_555
C33_3 C32_3 1_555 1_555
C34_3 C32_3 1_555 1_555
H13_3 C33_3 1_555 1_555
C35_3 C33_3 1_555 1_555
C36_3 C34_3 1_555 1_555
H14_3 C34_3 1_555 1_555
H15_3 C35_3 1_555 1_555
C37_3 C35_3 1_555 1_555
C38_3 C36_3 1_555 1_555
C39_3 C37_3 1_555 1_555
O19_3 C38_3 1_555 1_555
C40_3 C38_3 1_555 1_555
C41_3 C39_3 1_555 1_555
C42_3 C40_3 1_555 1_555
H16_3 C41_3 1_555 1_555
C43_3 C41_3 1_555 1_555
C44_3 C42_3 1_555 1_555
H17_3 C42_3 1_555 1_555
H18_3 C43_3 1_555 1_555
C45_3 C44_3 1_555 1_555
Zr7_2 O9_3 1_555 1_555
Zr6 O12_3 1_555 1_555
Zr5_2 O18_3 1_555 1_555
O20_3 Zr2_3 1_555 1_555
O23_3 Zr2_3 1_555 1_555
O29_3 Zr2_3 1_555 1_555
O9_3 Zr11 1_555 1_555
O10_3 Zr11 1_555 1_555
C21_3 C22_3 1_555 1_555
C24_3 C25_3 1_555 1_555
C28_3 C29_3 1_555 1_555
O15_3 Zr7_2 1_555 1_555
O16_3 Zr7_2 1_555 1_555
C36_3 C37_3 1_555 1_555
C39_3 C40_3 1_555 1_555
C43_3 C44_3 1_555 1_555
Zr7_2 O20_3 1_555 1_555
Zr1_4 O1_4 1_555 1_555
O1_4 C1_4 1_555 1_555
O2_4 Zr1_4 1_555 1_555
O3_4 Zr1_4 1_555 1_555
O4_4 C1_4 1_555 1_555
O5_4 C15_4 1_555 1_555
O6_4 C15_4 1_555 1_555
C1_4 C2_4 1_555 1_555
C2_4 C3_4 1_555 1_555
C3_4 H1_4 1_555 1_555
C4_4 C2_4 1_555 1_555
C5_4 C3_4 1_555 1_555
C6_4 C4_4 1_555 1_555
H2_4 C4_4 1_555 1_555
H3_4 C5_4 1_555 1_555
C7_4 C5_4 1_555 1_555
C8_4 C6_4 1_555 1_555
C9_4 C7_4 1_555 1_555
O7_4 C8_4 1_555 1_555
C10_4 C8_4 1_555 1_555
C11_4 C9_4 1_555 1_555
C12_4 C10_4 1_555 1_555
H4_4 C11_4 1_555 1_555
C13_4 C11_4 1_555 1_555
C14_4 C12_4 1_555 1_555
H5_4 C12_4 1_555 1_555
H6_4 C13_4 1_555 1_555
C15_4 C14_4 1_555 1_555
O11_4 C30_4 1_555 1_555
Zr3_4 O3_4 1_555 1_555
Zr12 O2_4 1_555 1_555
Zr5_2 O5_4 1_555 1_555
Zr7 O6_4 1_555 1_555
O21_4 Zr1_4 1_555 1_555
O22_4 Zr1_4 1_555 1_555
O24_4 Zr3_4 1_555 1_555
O25_4 Zr1_4 1_555 1_555
O26_4 Zr3_4 1_555 1_555
O27_4 Zr1_4 1_555 1_555
O30_4 Zr3_4 1_555 1_555
O31_4 Zr1_4 1_555 1_555
O4_4 Zr12 1_555 1_555
C6_4 C7_4 1_555 1_555
C9_4 C10_4 1_555 1_555
C13_4 C14_4 1_555 1_555
Zr3_4 O21_4 1_555 1_555
Zr12 O21_4 1_555 1_555
O8_4 Zr2_4 1_555 1_555
O9_4 Zr2_4 1_555 1_555
O10_4 C16_4 1_555 1_555
C16_4 O8_4 1_555 1_555
C17_4 C16_4 1_555 1_555
C18_4 C17_4 1_555 1_555
C19_4 C17_4 1_555 1_555
H7_4 C18_4 1_555 1_555
C20_4 C18_4 1_555 1_555
C21_4 C19_4 1_555 1_555
H8_4 C19_4 1_555 1_555
H9_4 C20_4 1_555 1_555
C22_4 C20_4 1_555 1_555
C23_4 C21_4 1_555 1_555
C24_4 C22_4 1_555 1_555
O13_4 C23_4 1_555 1_555
C25_4 C23_4 1_555 1_555
C26_4 C24_4 1_555 1_555
C27_4 C25_4 1_555 1_555
H10_4 C26_4 1_555 1_555
C28_4 C26_4 1_555 1_555
C29_4 C27_4 1_555 1_555
H11_4 C27_4 1_555 1_555
O16_4 C31_4 1_555 1_555
O17_4 C45_4 1_555 1_555
O18_4 C45_4 1_555 1_555
C31_4 O14_4 1_555 1_555
C32_4 C31_4 1_555 1_555
C33_4 C32_4 1_555 1_555
C34_4 C32_4 1_555 1_555
H13_4 C33_4 1_555 1_555
C35_4 C33_4 1_555 1_555
C36_4 C34_4 1_555 1_555
H14_4 C34_4 1_555 1_555
H15_4 C35_4 1_555 1_555
C37_4 C35_4 1_555 1_555
C38_4 C36_4 1_555 1_555
C39_4 C37_4 1_555 1_555
O19_4 C38_4 1_555 1_555
C40_4 C38_4 1_555 1_555
C41_4 C39_4 1_555 1_555
C42_4 C40_4 1_555 1_555
H16_4 C41_4 1_555 1_555
C43_4 C41_4 1_555 1_555
C44_4 C42_4 1_555 1_555
H17_4 C42_4 1_555 1_555
H18_4 C43_4 1_555 1_555
C45_4 C44_4 1_555 1_555
Zr12_2 O9_4 1_555 1_555
Zr4 O12_4 1_555 1_555
Zr7_2 O18_4 1_555 1_555
O20_4 Zr2_4 1_555 1_555
O23_4 Zr2_4 1_555 1_555
O29_4 Zr2_4 1_555 1_555
O9_4 Zr9 1_555 1_555
O10_4 Zr9 1_555 1_555
C21_4 C22_4 1_555 1_555
C24_4 C25_4 1_555 1_555
C28_4 C29_4 1_555 1_555
O15_4 Zr12_2 1_555 1_555
O16_4 Zr12_2 1_555 1_555
C36_4 C37_4 1_555 1_555
C39_4 C40_4 1_555 1_555
C43_4 C44_4 1_555 1_555
Zr12_2 O20_4 1_555 1_555
O26_4 C15_5 1_555 1_555
O26_3 C45_5 1_555 1_555
O25 C31_5 1_555 1_555
C31_5 O14_5 1_555 1_555
C32_5 C31_5 1_555 1_555
C33_5 C32_5 1_555 1_555
C34_5 C32_5 1_555 1_555
H13_5 C33_5 1_555 1_555
C35_5 C33_5 1_555 1_555
C36_5 C34_5 1_555 1_555
H14_5 C34_5 1_555 1_555
H15_5 C35_5 1_555 1_555
C37_5 C35_5 1_555 1_555
C38_5 C36_5 1_555 1_555
C39_5 C37_5 1_555 1_555
O19_5 C38_5 1_555 1_555
C40_5 C38_5 1_555 1_555
C41_5 C39_5 1_555 1_555
C42_5 C40_5 1_555 1_555
H16_5 C41_5 1_555 1_555
C43_5 C41_5 1_555 1_555
C44_5 C42_5 1_555 1_555
H17_5 C42_5 1_555 1_555
C36_5 C37_5 1_555 1_555
C39_5 C40_5 1_555 1_555
C43_5 C44_5 1_555 1_555
O27_2 C30_5 1_555 1_555
O1_5 C1_5 1_555 1_555
O23 C1_5 1_555 1_555
C1_5 C2_5 1_555 1_555
C2_5 C3_5 1_555 1_555
C3_5 H1_5 1_555 1_555
C4_5 C2_5 1_555 1_555
C5_5 C3_5 1_555 1_555
C6_5 C4_5 1_555 1_555
H2_5 C4_5 1_555 1_555
H3_5 C5_5 1_555 1_555
C7_5 C5_5 1_555 1_555
C8_5 C6_5 1_555 1_555
C9_5 C7_5 1_555 1_555
O7_5 C8_5 1_555 1_555
C10_5 C8_5 1_555 1_555
C11_5 C9_5 1_555 1_555
C12_5 C10_5 1_555 1_555
H4_5 C11_5 1_555 1_555
C13_5 C11_5 1_555 1_555
C14_5 C12_5 1_555 1_555
H5_5 C12_5 1_555 1_555
C6_5 C7_5 1_555 1_555
C9_5 C10_5 1_555 1_555
C13_5 C14_5 1_555 1_555
O24 C16_5 1_555 1_555
C16_5 O8_5 1_555 1_555
C17_5 C16_5 1_555 1_555
C18_5 C17_5 1_555 1_555
C19_5 C17_5 1_555 1_555
H7_5 C18_5 1_555 1_555
C20_5 C18_5 1_555 1_555
C21_5 C19_5 1_555 1_555
H8_5 C19_5 1_555 1_555
H9_5 C20_5 1_555 1_555
C22_5 C20_5 1_555 1_555
C23_5 C21_5 1_555 1_555
C24_5 C22_5 1_555 1_555
O13_5 C23_5 1_555 1_555
C25_5 C23_5 1_555 1_555
C26_5 C24_5 1_555 1_555
C27_5 C25_5 1_555 1_555
H10_5 C26_5 1_555 1_555
C28_5 C26_5 1_555 1_555
C29_5 C27_5 1_555 1_555
H11_5 C27_5 1_555 1_555
C21_5 C22_5 1_555 1_555
C24_5 C25_5 1_555 1_555
C28_5 C29_5 1_555 1_555
O1_6 C1_6 1_555 1_555
O23_2 C1_6 1_555 1_555
O28_4 C15_6 1_555 1_555
O31_4 C15_6 1_555 1_555
C1_6 C2_6 1_555 1_555
C2_6 C3_6 1_555 1_555
C3_6 H1_6 1_555 1_555
C4_6 C2_6 1_555 1_555
C5_6 C3_6 1_555 1_555
C6_6 C4_6 1_555 1_555
H2_6 C4_6 1_555 1_555
H3_6 C5_6 1_555 1_555
C7_6 C5_6 1_555 1_555
C8_6 C6_6 1_555 1_555
C9_6 C7_6 1_555 1_555
O7_6 C8_6 1_555 1_555
C10_6 C8_6 1_555 1_555
C11_6 C9_6 1_555 1_555
C12_6 C10_6 1_555 1_555
H4_6 C11_6 1_555 1_555
C13_6 C11_6 1_555 1_555
C14_6 C12_6 1_555 1_555
H5_6 C12_6 1_555 1_555
H6_6 C13_6 1_555 1_555
C15_6 C14_6 1_555 1_555
O14_6 Zr8 1_555 1_555
O25_2 C31_6 1_555 1_555
C31_6 O14_6 1_555 1_555
C32_6 C31_6 1_555 1_555
C33_6 C32_6 1_555 1_555
C34_6 C32_6 1_555 1_555
H13_6 C33_6 1_555 1_555
C35_6 C33_6 1_555 1_555
C36_6 C34_6 1_555 1_555
H14_6 C34_6 1_555 1_555
H15_6 C35_6 1_555 1_555
C37_6 C35_6 1_555 1_555
C38_6 C36_6 1_555 1_555
C39_6 C37_6 1_555 1_555
O19_6 C38_6 1_555 1_555
C40_6 C38_6 1_555 1_555
C41_6 C39_6 1_555 1_555
C42_6 C40_6 1_555 1_555
H16_6 C41_6 1_555 1_555
C43_6 C41_6 1_555 1_555
C44_6 C42_6 1_555 1_555
H17_6 C42_6 1_555 1_555
C6_6 C7_6 1_555 1_555
C9_6 C10_6 1_555 1_555
C13_6 C14_6 1_555 1_555
C36_6 C37_6 1_555 1_555
C39_6 C40_6 1_555 1_555
C43_6 C44_6 1_555 1_555
O3_6 Zr7 1_555 1_555
Zr5_2 O3_6 1_555 1_555
O8_6 Zr5_2 1_555 1_555
O24_2 C16_6 1_555 1_555
O27_3 C30_6 1_555 1_555
O30_3 C30_6 1_555 1_555
C16_6 O8_6 1_555 1_555
C17_6 C16_6 1_555 1_555
C18_6 C17_6 1_555 1_555
C19_6 C17_6 1_555 1_555
H7_6 C18_6 1_555 1_555
C20_6 C18_6 1_555 1_555
C21_6 C19_6 1_555 1_555
H8_6 C19_6 1_555 1_555
H9_6 C20_6 1_555 1_555
C22_6 C20_6 1_555 1_555
C23_6 C21_6 1_555 1_555
C24_6 C22_6 1_555 1_555
O13_6 C23_6 1_555 1_555
C25_6 C23_6 1_555 1_555
C26_6 C24_6 1_555 1_555
C27_6 C25_6 1_555 1_555
H10_6 C26_6 1_555 1_555
C28_6 C26_6 1_555 1_555
C29_6 C27_6 1_555 1_555
H11_6 C27_6 1_555 1_555
H12_6 C28_6 1_555 1_555
C30_6 C29_6 1_555 1_555
O26 C45_6 1_555 1_555
C21_6 C22_6 1_555 1_555
C24_6 C25_6 1_555 1_555
C28_6 C29_6 1_555 1_555
O8_7 Zr10 1_555 1_555
O24_3 C16_7 1_555 1_555
C16_7 O8_7 1_555 1_555
C17_7 C16_7 1_555 1_555
C18_7 C17_7 1_555 1_555
C19_7 C17_7 1_555 1_555
H7_7 C18_7 1_555 1_555
C20_7 C18_7 1_555 1_555
C21_7 C19_7 1_555 1_555
H8_7 C19_7 1_555 1_555
H9_7 C20_7 1_555 1_555
C22_7 C20_7 1_555 1_555
C23_7 C21_7 1_555 1_555
C24_7 C22_7 1_555 1_555
O13_7 C23_7 1_555 1_555
C25_7 C23_7 1_555 1_555
C26_7 C24_7 1_555 1_555
C27_7 C25_7 1_555 1_555
H10_7 C26_7 1_555 1_555
C28_7 C26_7 1_555 1_555
C29_7 C27_7 1_555 1_555
H11_7 C27_7 1_555 1_555
O25_3 C31_7 1_555 1_555
O26_2 C45_7 1_555 1_555
O29_2 C45_7 1_555 1_555
C31_7 O14_7 1_555 1_555
C32_7 C31_7 1_555 1_555
C33_7 C32_7 1_555 1_555
C34_7 C32_7 1_555 1_555
H13_7 C33_7 1_555 1_555
C35_7 C33_7 1_555 1_555
C36_7 C34_7 1_555 1_555
H14_7 C34_7 1_555 1_555
H15_7 C35_7 1_555 1_555
C37_7 C35_7 1_555 1_555
C38_7 C36_7 1_555 1_555
C39_7 C37_7 1_555 1_555
O19_7 C38_7 1_555 1_555
C40_7 C38_7 1_555 1_555
C41_7 C39_7 1_555 1_555
C42_7 C40_7 1_555 1_555
H16_7 C41_7 1_555 1_555
C43_7 C41_7 1_555 1_555
C44_7 C42_7 1_555 1_555
H17_7 C42_7 1_555 1_555
H18_7 C43_7 1_555 1_555
C45_7 C44_7 1_555 1_555
C21_7 C22_7 1_555 1_555
C24_7 C25_7 1_555 1_555
C28_7 C29_7 1_555 1_555
C36_7 C37_7 1_555 1_555
C39_7 C40_7 1_555 1_555
C43_7 C44_7 1_555 1_555
Zr7_2 O1_7 1_555 1_555
O1_7 C1_7 1_555 1_555
O3_7 Zr7_2 1_555 1_555
O23_3 C1_7 1_555 1_555
O27_4 C15_7 1_555 1_555
O30_4 C15_7 1_555 1_555
C1_7 C2_7 1_555 1_555
C2_7 C3_7 1_555 1_555
C3_7 H1_7 1_555 1_555
C4_7 C2_7 1_555 1_555
C5_7 C3_7 1_555 1_555
C6_7 C4_7 1_555 1_555
H2_7 C4_7 1_555 1_555
H3_7 C5_7 1_555 1_555
C7_7 C5_7 1_555 1_555
C8_7 C6_7 1_555 1_555
C9_7 C7_7 1_555 1_555
O7_7 C8_7 1_555 1_555
C10_7 C8_7 1_555 1_555
C11_7 C9_7 1_555 1_555
C12_7 C10_7 1_555 1_555
H4_7 C11_7 1_555 1_555
C13_7 C11_7 1_555 1_555
C14_7 C12_7 1_555 1_555
H5_7 C12_7 1_555 1_555
H6_7 C13_7 1_555 1_555
C15_7 C14_7 1_555 1_555
O27 C30_7 1_555 1_555
Zr11 O3_7 1_555 1_555
C6_7 C7_7 1_555 1_555
C9_7 C10_7 1_555 1_555
C13_7 C14_7 1_555 1_555
O8_8 Zr12 1_555 1_555
O24_4 C16_8 1_555 1_555
C16_8 O8_8 1_555 1_555
C17_8 C16_8 1_555 1_555
C18_8 C17_8 1_555 1_555
C19_8 C17_8 1_555 1_555
H7_8 C18_8 1_555 1_555
C20_8 C18_8 1_555 1_555
C21_8 C19_8 1_555 1_555
H8_8 C19_8 1_555 1_555
H9_8 C20_8 1_555 1_555
C22_8 C20_8 1_555 1_555
C23_8 C21_8 1_555 1_555
C24_8 C22_8 1_555 1_555
O13_8 C23_8 1_555 1_555
C25_8 C23_8 1_555 1_555
C26_8 C24_8 1_555 1_555
C27_8 C25_8 1_555 1_555
H10_8 C26_8 1_555 1_555
C28_8 C26_8 1_555 1_555
C29_8 C27_8 1_555 1_555
H11_8 C27_8 1_555 1_555
O25_4 C31_8 1_555 1_555
O28_3 C45_8 1_555 1_555
O31_3 C45_8 1_555 1_555
C31_8 O14_8 1_555 1_555
C32_8 C31_8 1_555 1_555
C33_8 C32_8 1_555 1_555
C34_8 C32_8 1_555 1_555
H13_8 C33_8 1_555 1_555
C35_8 C33_8 1_555 1_555
C36_8 C34_8 1_555 1_555
H14_8 C34_8 1_555 1_555
H15_8 C35_8 1_555 1_555
C37_8 C35_8 1_555 1_555
C38_8 C36_8 1_555 1_555
C39_8 C37_8 1_555 1_555
O19_8 C38_8 1_555 1_555
C40_8 C38_8 1_555 1_555
C41_8 C39_8 1_555 1_555
C42_8 C40_8 1_555 1_555
H16_8 C41_8 1_555 1_555
C43_8 C41_8 1_555 1_555
C44_8 C42_8 1_555 1_555
H17_8 C42_8 1_555 1_555
H18_8 C43_8 1_555 1_555
C45_8 C44_8 1_555 1_555
C21_8 C22_8 1_555 1_555
C24_8 C25_8 1_555 1_555
C28_8 C29_8 1_555 1_555
C36_8 C37_8 1_555 1_555
C39_8 C40_8 1_555 1_555
C43_8 C44_8 1_555 1_555
Zr12_2 O1_8 1_555 1_555
O1_8 C1_8 1_555 1_555
O3_8 Zr12_2 1_555 1_555
O23_4 C1_8 1_555 1_555
O28_2 C15_8 1_555 1_555
O31_2 C15_8 1_555 1_555
C1_8 C2_8 1_555 1_555
C2_8 C3_8 1_555 1_555
C3_8 H1_8 1_555 1_555
C4_8 C2_8 1_555 1_555
C5_8 C3_8 1_555 1_555
C6_8 C4_8 1_555 1_555
H2_8 C4_8 1_555 1_555
H3_8 C5_8 1_555 1_555
C7_8 C5_8 1_555 1_555
C8_8 C6_8 1_555 1_555
C9_8 C7_8 1_555 1_555
O7_8 C8_8 1_555 1_555
C10_8 C8_8 1_555 1_555
C11_8 C9_8 1_555 1_555
C12_8 C10_8 1_555 1_555
H4_8 C11_8 1_555 1_555
C13_8 C11_8 1_555 1_555
C14_8 C12_8 1_555 1_555
H5_8 C12_8 1_555 1_555
H6_8 C13_8 1_555 1_555
C15_8 C14_8 1_555 1_555
O28 C30_8 1_555 1_555
Zr9 O3_8 1_555 1_555
C6_8 C7_8 1_555 1_555
C9_8 C10_8 1_555 1_555
C13_8 C14_8 1_555 1_555

#END
