
###############################################################################
#
# This file contains modified crystal structure data generated from the
# MOF subset of the Cambridge Structural Database (CSD) v543 
# hosted by the Cambridge Crystallographic Data Centre (CCDC).
#
# This work is licensed under the Creative Commons
# Attribution-NonCommercial-ShareAlike 4.0 International License.
# To view a copy of this license, visit
# http://creativecommons.org/licenses/by-nc-sa/4.0/
# or send a letter to
# Creative Commons, PO Box 1866, Mountain View, CA 94042, USA.
#
# CIF created using the CSD Python API on 29 September 2022
# The structure has been converted into the P1 space group
# The structure has a 3D framework
# The original CSD entry SOQSEY is in the cubic crystal system
# The framework has been calculated to contain at least 10.0% void space
# The void calculation uses a probe of radius 1.32A, grid spacing 0.4
#
###############################################################################

data_SOQSEY
_chemical_formula_moiety         '(C336 H144 O164 S24 Zr24)n'
_symmetry_cell_setting           triclinic
_symmetry_space_group_name_H-M   'P 1'
_symmetry_Int_Tables_number      1
_space_group_name_Hall           'P 1'
loop_
_symmetry_equiv_pos_site_id
_symmetry_equiv_pos_as_xyz
1 x,y,z
_cell_length_a                   26.3478(1)
_cell_length_b                   26.3478(1)
_cell_length_c                   26.3478(1)
_cell_angle_alpha                90
_cell_angle_beta                 90
_cell_angle_gamma                90
_cell_volume                     18290.8
loop_
_atom_site_label
_atom_site_type_symbol
_atom_site_fract_x
_atom_site_fract_y
_atom_site_fract_z
Zr9 Zr 0.092306(10) 0.013414(10) 0.988360(10)
O23 O 0.05182(10) 0.02505(11) 0.85687(11)
O29 O 0.03332(13) 0.05786(16) 0.95549(13)
Zr8 Zr 0.013414(10) 0.988360(10) 0.092306(10)
O24 O 0.02505(11) 0.85687(11) 0.05182(10)
O31 O 0.05786(16) 0.95549(13) 0.03332(13)
Zr1 Zr 0.011640(10) 0.907694(10) 0.986586(10)
O9 O 0.02505(11) 0.64313(11) 0.55182(10)
O10 O 0.00807(12) 0.87698(11) 0.90877(11)
O11 O 0.02603(11) 0.58988(12) 0.62203(12)
O13 O 0.04451(13) 0.96668(13) 0.94214(16)
C15 C 0.02486(17) 0.63287(15) 0.59912(16)
C17 C 0.0125(3) 0.78433(17) 0.7833(2)
C18 C 0.0226(2) 0.67878(18) 0.63319(19)
C19 C 0.0081(3) 0.81238(19) 0.82642(19)
H7 H 0.0084 0.7973 0.8592
C20 C 0.0154(4) 0.7696(2) 0.6453(2)
H8 H 0.0130 0.8027 0.6310
C21 C 0.0184(3) 0.72731(19) 0.6129(2)
H9 H 0.0175 0.7319 0.5771
C22 C 0.0011(3) 0.8847(2) 0.7716(2)
C23 C 0.0106(3) 0.8031(2) 0.7346(2)
C24 C 0.0029(2) 0.86518(19) 0.81962(18)
C25 C 0.0224(2) 0.6722(2) 0.68544(19)
H11 H 0.0244 0.6393 0.7002
C26 C 0.0193(3) 0.7149(2) 0.7149(2)
C27 C 0.0158(3) 0.7641(2) 0.6958(2)
C28 C 0.0055(3) 0.8540(2) 0.7289(2)
H12 H 0.0050 0.8686 0.6959
S2 S 0.01861(12) 0.71664(6) 0.78192(6)
O15 O 0.0687(4) 0.7013(2) 0.8029(2)
Zr5 Zr 0.013414(10) 0.511640(10) 0.592306(10)
Zr12 Zr 0.011640(10) 0.592306(10) 0.486586(10)
O28 O 0.08988(12) 0.87797(12) 0.97397(11)
Zr7 Zr 0.988360(10) 0.092306(10) 0.013414(10)
O25 O 0.85687(11) 0.05182(10) 0.02505(11)
O30 O 0.95549(13) 0.03332(13) 0.05786(16)
Zr2 Zr 0.986586(10) 0.011640(10) 0.907694(10)
O16 O 0.55182(10) 0.02505(11) 0.64313(11)
O17 O 0.90877(11) 0.00807(12) 0.87698(11)
O18 O 0.62203(12) 0.02603(11) 0.58988(12)
O20 O 0.94214(16) 0.04451(13) 0.96668(13)
C29 C 0.59912(16) 0.02486(17) 0.63287(15)
C31 C 0.7833(2) 0.0125(3) 0.78433(17)
C32 C 0.63319(19) 0.0226(2) 0.67878(18)
C33 C 0.82642(19) 0.0081(3) 0.81238(19)
H13 H 0.8592 0.0084 0.7973
C34 C 0.6453(2) 0.0154(4) 0.7696(2)
H14 H 0.6310 0.0130 0.8027
C35 C 0.6129(2) 0.0184(3) 0.72731(19)
H15 H 0.5771 0.0175 0.7319
C36 C 0.7716(2) 0.0011(3) 0.8847(2)
C37 C 0.7346(2) 0.0106(3) 0.8031(2)
C38 C 0.81962(18) 0.0029(2) 0.86518(19)
C39 C 0.68544(19) 0.0224(2) 0.6722(2)
H17 H 0.7002 0.0244 0.6393
C40 C 0.7149(2) 0.0193(3) 0.7149(2)
C41 C 0.6958(2) 0.0158(3) 0.7641(2)
C42 C 0.7289(2) 0.0055(3) 0.8540(2)
H18 H 0.6959 0.0050 0.8686
S3 S 0.78192(6) 0.01861(12) 0.71664(6)
O22 O 0.8029(2) 0.0687(4) 0.7013(2)
Zr4 Zr 0.592306(10) 0.013414(10) 0.511640(10)
Zr10 Zr 0.486586(10) 0.011640(10) 0.592306(10)
O27 O 0.97397(11) 0.08988(12) 0.87797(12)
O2 O 0.64313(11) 0.55182(10) 0.02505(11)
O3 O 0.87698(11) 0.90877(11) 0.00807(12)
O4 O 0.58988(12) 0.62203(12) 0.02603(11)
O6 O 0.96668(13) 0.94214(16) 0.04451(13)
C1 C 0.63287(15) 0.59912(16) 0.02486(17)
C3 C 0.78433(17) 0.7833(2) 0.0125(3)
C4 C 0.67878(18) 0.63319(19) 0.0226(2)
C5 C 0.81238(19) 0.82642(19) 0.0081(3)
H1 H 0.7973 0.8592 0.0084
C6 C 0.7696(2) 0.6453(2) 0.0154(4)
H2 H 0.8027 0.6310 0.0130
C7 C 0.72731(19) 0.6129(2) 0.0184(3)
H3 H 0.7319 0.5771 0.0175
C8 C 0.8847(2) 0.7716(2) 0.0011(3)
C9 C 0.8031(2) 0.7346(2) 0.0106(3)
C10 C 0.86518(19) 0.81962(18) 0.0029(2)
C11 C 0.6722(2) 0.68544(19) 0.0224(2)
H5 H 0.6393 0.7002 0.0244
C12 C 0.7149(2) 0.7149(2) 0.0193(3)
C13 C 0.7641(2) 0.6958(2) 0.0158(3)
C14 C 0.8540(2) 0.7289(2) 0.0055(3)
H6 H 0.8686 0.6959 0.0050
S1 S 0.71664(6) 0.78192(6) 0.01861(12)
O8 O 0.7013(2) 0.8029(2) 0.0687(4)
Zr3 Zr 0.907694(10) 0.986586(10) 0.011640(10)
Zr6 Zr 0.511640(10) 0.592306(10) 0.013414(10)
Zr11 Zr 0.592306(10) 0.486586(10) 0.011640(10)
O26 O 0.87797(12) 0.97397(11) 0.08988(12)
O1 O 0.54588(18) 0.04588(18) 0.45412(18)
O5 O 0.64349(10) 0.01153(12) 0.44500(11)
C2 C 0.63430(15) 0.00071(18) 0.39848(16)
O7 O 0.6984(2) 0.0259(4) 0.19143(19)
H4 H 0.7328 0.0033 0.4202
Zr2_2 Zr 0.488360(10) 0.092306(10) 0.486586(10)
O9_2 O 0.85687(11) 0.44818(10) 0.52505(11)
O10_2 O 0.62302(11) 0.09123(11) 0.50807(12)
O11_2 O 0.91012(12) 0.37797(12) 0.52603(11)
O12 O 0.55500(11) 0.14349(10) 0.48847(12)
O13_2 O 0.53332(13) 0.05786(16) 0.54451(13)
C15_2 C 0.86713(15) 0.40088(16) 0.52486(17)
C16 C 0.60152(16) 0.13430(15) 0.49929(18)
C17_2 C 0.71567(17) 0.2167(2) 0.5125(3)
C18_2 C 0.82122(18) 0.36681(19) 0.5226(2)
O14 O 0.80857(19) 0.1984(2) 0.4741(4)
C19_2 C 0.68762(19) 0.17358(19) 0.5081(3)
H7_2 H 0.7027 0.1408 0.5084
C20_2 C 0.7304(2) 0.3547(2) 0.5154(4)
H8_2 H 0.6973 0.3690 0.5130
C21_2 C 0.77269(19) 0.3871(2) 0.5184(3)
H9_2 H 0.7681 0.4229 0.5175
C22_2 C 0.6153(2) 0.2284(2) 0.5011(3)
H10 H 0.5798 0.2328 0.4967
C23_2 C 0.6969(2) 0.2654(2) 0.5106(3)
C24_2 C 0.63482(19) 0.18038(18) 0.5029(2)
C25_2 C 0.8278(2) 0.31456(19) 0.5224(2)
H11_2 H 0.8607 0.2998 0.5244
C26_2 C 0.7851(2) 0.2851(2) 0.5193(3)
C27_2 C 0.7359(2) 0.3042(2) 0.5158(3)
C28_2 C 0.6460(2) 0.2711(2) 0.5055(3)
H12_2 H 0.6314 0.3041 0.5050
S2_2 S 0.78336(6) 0.21808(6) 0.51861(12)
O15_2 O 0.7987(2) 0.1971(2) 0.5687(4)
O16_2 O 0.47495(11) 0.35687(11) 0.05182(10)
O17_2 O 0.49193(12) 0.12302(11) 0.40877(11)
O18_2 O 0.47397(11) 0.41012(12) 0.12203(12)
O19 O 0.51153(12) 0.05500(11) 0.35651(10)
O20_2 O 0.45549(13) 0.03332(13) 0.44214(16)
C29_2 C 0.47514(17) 0.36713(15) 0.09912(16)
C30 C 0.50071(18) 0.10152(16) 0.36570(15)
C31_2 C 0.4875(3) 0.21567(17) 0.2833(2)
C32_2 C 0.4774(2) 0.32122(18) 0.13319(19)
O21 O 0.5259(4) 0.30857(19) 0.3016(2)
C33_2 C 0.4919(3) 0.18762(19) 0.32642(19)
H13_2 H 0.4916 0.2027 0.3592
C34_2 C 0.4846(4) 0.2304(2) 0.1453(2)
H14_2 H 0.4870 0.1973 0.1310
C35_2 C 0.4816(3) 0.27269(19) 0.1129(2)
H15_2 H 0.4825 0.2681 0.0771
C36_2 C 0.4989(3) 0.1153(2) 0.2716(2)
H16 H 0.5033 0.0798 0.2672
C37_2 C 0.4894(3) 0.1969(2) 0.2346(2)
C38_2 C 0.4971(2) 0.13482(19) 0.31962(18)
C39_2 C 0.4776(2) 0.3278(2) 0.18544(19)
H17_2 H 0.4756 0.3607 0.2002
C40_2 C 0.4807(3) 0.2851(2) 0.2149(2)
C41_2 C 0.4842(3) 0.2359(2) 0.1958(2)
C42_2 C 0.4945(3) 0.1460(2) 0.2289(2)
H18_2 H 0.4950 0.1314 0.1959
S3_2 S 0.48139(12) 0.28336(6) 0.28192(6)
O22_2 O 0.4313(4) 0.2987(2) 0.3029(2)
Zr4_2 Zr 0.486586(10) 0.488360(10) 0.092306(10)
Zr5_2 Zr 0.988360(10) 0.407694(10) 0.513414(10)
Zr12_2 Zr 0.907694(10) 0.513414(10) 0.511640(10)
O23_2 O 0.47495(11) 0.14313(11) 0.55182(10)
O27_2 O 0.41012(12) 0.12203(12) 0.47397(11)
O29_2 O 0.44214(16) 0.04451(13) 0.53332(13)
Zr10_2 Zr 0.488360(10) 0.407694(10) 0.986586(10)
O2_2 O 0.94818(10) 0.97495(11) 0.14313(11)
O3_2 O 0.59123(11) 0.99193(12) 0.37698(11)
O6_2 O 0.55786(16) 0.95549(13) 0.46668(13)
C1_2 C 0.90088(16) 0.97514(17) 0.13287(15)
C3_2 C 0.7167(2) 0.9875(3) 0.28433(17)
C4_2 C 0.86681(19) 0.9774(2) 0.17878(18)
C5_2 C 0.67358(19) 0.9919(3) 0.31238(19)
H1_2 H 0.6408 0.9916 0.2973
C6_2 C 0.8547(2) 0.9846(4) 0.2696(2)
H2_2 H 0.8690 0.9870 0.3027
C7_2 C 0.8871(2) 0.9816(3) 0.22731(19)
H3_2 H 0.9229 0.9825 0.2319
C8_2 C 0.7284(2) 0.9989(3) 0.3847(2)
C9_2 C 0.7654(2) 0.9894(3) 0.3031(2)
C10_2 C 0.68038(18) 0.9971(2) 0.36518(19)
C11_2 C 0.81456(19) 0.9776(2) 0.1722(2)
H5_2 H 0.7998 0.9756 0.1393
C12_2 C 0.7851(2) 0.9807(3) 0.2149(2)
C13_2 C 0.8042(2) 0.9842(3) 0.2641(2)
C14_2 C 0.7711(2) 0.9945(3) 0.3540(2)
H6_2 H 0.8041 0.9950 0.3686
S1_2 S 0.71808(6) 0.98139(12) 0.21664(6)
O8_2 O 0.6971(2) 0.9313(4) 0.2013(2)
Zr3_2 Zr 0.513414(10) 0.988360(10) 0.407694(10)
Zr7_2 Zr 0.407694(10) 0.986586(10) 0.488360(10)
Zr8_2 Zr 0.511640(10) 0.907694(10) 0.513414(10)
O24_2 O 0.64313(11) 0.94818(10) 0.52505(11)
O25_2 O 0.44818(10) 0.97495(11) 0.35687(11)
O26_2 O 0.52603(11) 0.91012(12) 0.37797(12)
O30_2 O 0.46668(13) 0.94214(16) 0.45549(13)
O31_2 O 0.54451(13) 0.96668(13) 0.55786(16)
O1_2 O 0.45412(18) 0.54588(18) 0.04588(18)
O2_3 O 0.52505(11) 0.85687(11) 0.44818(10)
O3_3 O 0.50807(12) 0.62302(11) 0.09123(11)
O5_2 O 0.48847(12) 0.55500(11) 0.14349(10)
O6_3 O 0.54451(13) 0.53332(13) 0.05786(16)
C1_3 C 0.52486(17) 0.86713(15) 0.40088(16)
C2_2 C 0.49929(18) 0.60152(16) 0.13430(15)
C3_3 C 0.5125(3) 0.71567(17) 0.2167(2)
C4_3 C 0.5226(2) 0.82122(18) 0.36681(19)
O7_2 O 0.4741(4) 0.80857(19) 0.1984(2)
C5_3 C 0.5081(3) 0.68762(19) 0.17358(19)
H1_3 H 0.5084 0.7027 0.1408
C6_3 C 0.5154(4) 0.7304(2) 0.3547(2)
H2_3 H 0.5130 0.6973 0.3690
C7_3 C 0.5184(3) 0.77269(19) 0.3871(2)
H3_3 H 0.5175 0.7681 0.4229
C8_3 C 0.5011(3) 0.6153(2) 0.2284(2)
H4_2 H 0.4967 0.5798 0.2328
C9_3 C 0.5106(3) 0.6969(2) 0.2654(2)
C10_3 C 0.5029(2) 0.63482(19) 0.18038(18)
C11_3 C 0.5224(2) 0.8278(2) 0.31456(19)
H5_3 H 0.5244 0.8607 0.2998
C12_3 C 0.5193(3) 0.7851(2) 0.2851(2)
C13_3 C 0.5158(3) 0.7359(2) 0.3042(2)
C14_3 C 0.5055(3) 0.6460(2) 0.2711(2)
H6_3 H 0.5050 0.6314 0.3041
S1_3 S 0.51861(12) 0.78336(6) 0.21808(6)
O8_3 O 0.5687(4) 0.7987(2) 0.1971(2)
O9_3 O 0.05182(10) 0.47495(11) 0.35687(11)
O10_3 O 0.40877(11) 0.49193(12) 0.12302(11)
O11_3 O 0.12203(12) 0.47397(11) 0.41012(12)
O12_2 O 0.35651(10) 0.51153(12) 0.05500(11)
O13_3 O 0.44214(16) 0.45549(13) 0.03332(13)
C15_3 C 0.09912(16) 0.47514(17) 0.36713(15)
C16_2 C 0.36570(15) 0.50071(18) 0.10152(16)
C17_3 C 0.2833(2) 0.4875(3) 0.21567(17)
C18_3 C 0.13319(19) 0.4774(2) 0.32122(18)
O14_2 O 0.3016(2) 0.5259(4) 0.30857(19)
C19_3 C 0.32642(19) 0.4919(3) 0.18762(19)
H7_3 H 0.3592 0.4916 0.2027
C20_3 C 0.1453(2) 0.4846(4) 0.2304(2)
H8_3 H 0.1310 0.4870 0.1973
C21_3 C 0.1129(2) 0.4816(3) 0.27269(19)
H9_3 H 0.0771 0.4825 0.2681
C22_3 C 0.2716(2) 0.4989(3) 0.1153(2)
H10_2 H 0.2672 0.5033 0.0798
C23_3 C 0.2346(2) 0.4894(3) 0.1969(2)
C24_3 C 0.31962(18) 0.4971(2) 0.13482(19)
C25_3 C 0.18544(19) 0.4776(2) 0.3278(2)
H11_3 H 0.2002 0.4756 0.3607
C26_3 C 0.2149(2) 0.4807(3) 0.2851(2)
C27_3 C 0.1958(2) 0.4842(3) 0.2359(2)
C28_3 C 0.2289(2) 0.4945(3) 0.1460(2)
H12_3 H 0.1959 0.4950 0.1314
S2_3 S 0.28192(6) 0.48139(12) 0.28336(6)
O15_3 O 0.3029(2) 0.4313(4) 0.2987(2)
O19_2 O 0.44500(11) 0.64349(10) 0.01153(12)
C30_2 C 0.39848(16) 0.63430(15) 0.00071(18)
O21_2 O 0.19143(19) 0.6984(2) 0.0259(4)
H16_2 H 0.4202 0.7328 0.0033
Zr5_3 Zr 0.092306(10) 0.486586(10) 0.488360(10)
O24_3 O 0.55182(10) 0.47495(11) 0.14313(11)
O31_3 O 0.53332(13) 0.44214(16) 0.04451(13)
Zr2_3 Zr 0.407694(10) 0.513414(10) 0.988360(10)
O16_3 O 0.14313(11) 0.94818(10) 0.97495(11)
O17_3 O 0.37698(11) 0.59123(11) 0.99193(12)
O20_3 O 0.46668(13) 0.55786(16) 0.95549(13)
C29_3 C 0.13287(15) 0.90088(16) 0.97514(17)
C31_3 C 0.28433(17) 0.7167(2) 0.9875(3)
C32_3 C 0.17878(18) 0.86681(19) 0.9774(2)
C33_3 C 0.31238(19) 0.67358(19) 0.9919(3)
H13_3 H 0.2973 0.6408 0.9916
C34_3 C 0.2696(2) 0.8547(2) 0.9846(4)
H14_3 H 0.3027 0.8690 0.9870
C35_3 C 0.22731(19) 0.8871(2) 0.9816(3)
H15_3 H 0.2319 0.9229 0.9825
C36_3 C 0.3847(2) 0.7284(2) 0.9989(3)
C37_3 C 0.3031(2) 0.7654(2) 0.9894(3)
C38_3 C 0.36518(19) 0.68038(18) 0.9971(2)
C39_3 C 0.1722(2) 0.81456(19) 0.9776(2)
H17_3 H 0.1393 0.7998 0.9756
C40_3 C 0.2149(2) 0.7851(2) 0.9807(3)
C41_3 C 0.2641(2) 0.8042(2) 0.9842(3)
C42_3 C 0.3540(2) 0.7711(2) 0.9945(3)
H18_3 H 0.3686 0.8041 0.9950
S3_3 S 0.21664(6) 0.71808(6) 0.98139(12)
O22_3 O 0.2013(2) 0.6971(2) 0.9313(4)
Zr7_3 Zr 0.513414(10) 0.511640(10) 0.907694(10)
O23_3 O 0.35687(11) 0.44818(10) 0.97495(11)
O25_3 O 0.52505(11) 0.64313(11) 0.94818(10)
O27_3 O 0.37797(12) 0.52603(11) 0.91012(12)
O29_3 O 0.45549(13) 0.46668(13) 0.94214(16)
O30_3 O 0.55786(16) 0.54451(13) 0.96668(13)
Zr12_3 Zr 0.986586(10) 0.488360(10) 0.407694(10)
O1_3 O 0.04588(18) 0.45412(18) 0.54588(18)
O2_4 O 0.44818(10) 0.52505(11) 0.85687(11)
O3_4 O 0.09123(11) 0.50807(12) 0.62302(11)
O5_3 O 0.14349(10) 0.48847(12) 0.55500(11)
O6_4 O 0.05786(16) 0.54451(13) 0.53332(13)
C1_4 C 0.40088(16) 0.52486(17) 0.86713(15)
C2_3 C 0.13430(15) 0.49929(18) 0.60152(16)
C3_4 C 0.2167(2) 0.5125(3) 0.71567(17)
C4_4 C 0.36681(19) 0.5226(2) 0.82122(18)
O7_3 O 0.1984(2) 0.4741(4) 0.80857(19)
C5_4 C 0.17358(19) 0.5081(3) 0.68762(19)
H1_4 H 0.1408 0.5084 0.7027
C6_4 C 0.3547(2) 0.5154(4) 0.7304(2)
H2_4 H 0.3690 0.5130 0.6973
C7_4 C 0.3871(2) 0.5184(3) 0.77269(19)
H3_4 H 0.4229 0.5175 0.7681
C8_4 C 0.2284(2) 0.5011(3) 0.6153(2)
H4_3 H 0.2328 0.4967 0.5798
C9_4 C 0.2654(2) 0.5106(3) 0.6969(2)
C10_4 C 0.18038(18) 0.5029(2) 0.63482(19)
C11_4 C 0.31456(19) 0.5224(2) 0.8278(2)
H5_4 H 0.2998 0.5244 0.8607
C12_4 C 0.2851(2) 0.5193(3) 0.7851(2)
C13_4 C 0.3042(2) 0.5158(3) 0.7359(2)
C14_4 C 0.2711(2) 0.5055(3) 0.6460(2)
H6_4 H 0.3041 0.5050 0.6314
S1_4 S 0.21808(6) 0.51861(12) 0.78336(6)
O8_4 O 0.1971(2) 0.5687(4) 0.7987(2)
O9_4 O 0.35687(11) 0.05182(10) 0.47495(11)
O10_4 O 0.12302(11) 0.40877(11) 0.49193(12)
O12_3 O 0.05500(11) 0.35651(10) 0.51153(12)
O13_4 O 0.03332(13) 0.44214(16) 0.45549(13)
C15_4 C 0.36713(15) 0.09912(16) 0.47514(17)
C16_3 C 0.10152(16) 0.36570(15) 0.50071(18)
C17_4 C 0.21567(17) 0.2833(2) 0.4875(3)
C18_4 C 0.32122(18) 0.13319(19) 0.4774(2)
O14_3 O 0.30857(19) 0.3016(2) 0.5259(4)
C19_4 C 0.18762(19) 0.32642(19) 0.4919(3)
H7_4 H 0.2027 0.3592 0.4916
C20_4 C 0.2304(2) 0.1453(2) 0.4846(4)
H8_4 H 0.1973 0.1310 0.4870
C21_4 C 0.27269(19) 0.1129(2) 0.4816(3)
H9_4 H 0.2681 0.0771 0.4825
C22_4 C 0.1153(2) 0.2716(2) 0.4989(3)
H10_3 H 0.0798 0.2672 0.5033
C23_4 C 0.1969(2) 0.2346(2) 0.4894(3)
C24_4 C 0.13482(19) 0.31962(18) 0.4971(2)
C25_4 C 0.3278(2) 0.18544(19) 0.4776(2)
H11_4 H 0.3607 0.2002 0.4756
C26_4 C 0.2851(2) 0.2149(2) 0.4807(3)
C27_4 C 0.2359(2) 0.1958(2) 0.4842(3)
C28_4 C 0.1460(2) 0.2289(2) 0.4945(3)
H12_4 H 0.1314 0.1959 0.4950
S2_4 S 0.28336(6) 0.28192(6) 0.48139(12)
O15_4 O 0.2987(2) 0.3029(2) 0.4313(4)
O19_3 O 0.01153(12) 0.44500(11) 0.64349(10)
C30_3 C 0.00071(18) 0.39848(16) 0.63430(15)
O21_3 O 0.0259(4) 0.19143(19) 0.6984(2)
H16_3 H 0.0033 0.4202 0.7328
O24_4 O 0.14313(11) 0.55182(10) 0.47495(11)
O31_4 O 0.04451(13) 0.53332(13) 0.44214(16)
O16_4 O 0.97495(11) 0.14313(11) 0.94818(10)
O17_4 O 0.99193(12) 0.37698(11) 0.59123(11)
O20_4 O 0.95549(13) 0.46668(13) 0.55786(16)
C29_4 C 0.97514(17) 0.13287(15) 0.90088(16)
C31_4 C 0.9875(3) 0.28433(17) 0.7167(2)
C32_4 C 0.9774(2) 0.17878(18) 0.86681(19)
C33_4 C 0.9919(3) 0.31238(19) 0.67358(19)
H13_4 H 0.9916 0.2973 0.6408
C34_4 C 0.9846(4) 0.2696(2) 0.8547(2)
H14_4 H 0.9870 0.3027 0.8690
C35_4 C 0.9816(3) 0.22731(19) 0.8871(2)
H15_4 H 0.9825 0.2319 0.9229
C36_4 C 0.9989(3) 0.3847(2) 0.7284(2)
C37_4 C 0.9894(3) 0.3031(2) 0.7654(2)
C38_4 C 0.9971(2) 0.36518(19) 0.68038(18)
C39_4 C 0.9776(2) 0.1722(2) 0.81456(19)
H17_4 H 0.9756 0.1393 0.7998
C40_4 C 0.9807(3) 0.2149(2) 0.7851(2)
C41_4 C 0.9842(3) 0.2641(2) 0.8042(2)
C42_4 C 0.9945(3) 0.3540(2) 0.7711(2)
H18_4 H 0.9950 0.3686 0.8041
S3_4 S 0.98139(12) 0.21664(6) 0.71808(6)
O22_4 O 0.9313(4) 0.2013(2) 0.6971(2)
O23_4 O 0.97495(11) 0.35687(11) 0.44818(10)
O25_4 O 0.94818(10) 0.52505(11) 0.64313(11)
O29_4 O 0.94214(16) 0.45549(13) 0.46668(13)
O30_4 O 0.96668(13) 0.55786(16) 0.54451(13)
O3_5 O 0.12302(11) 0.09123(11) 0.99193(12)
O4_2 O 0.41012(12) 0.37797(12) 0.97397(11)
C1_5 C 0.36713(15) 0.40088(16) 0.97514(17)
C3_5 C 0.21567(17) 0.2167(2) 0.9875(3)
C4_5 C 0.32122(18) 0.36681(19) 0.9774(2)
C5_5 C 0.18762(19) 0.17358(19) 0.9919(3)
H1_5 H 0.2027 0.1408 0.9916
C6_5 C 0.2304(2) 0.3547(2) 0.9846(4)
H2_5 H 0.1973 0.3690 0.9870
C7_5 C 0.27269(19) 0.3871(2) 0.9816(3)
H3_5 H 0.2681 0.4229 0.9825
C8_5 C 0.1153(2) 0.2284(2) 0.9989(3)
C9_5 C 0.1969(2) 0.2654(2) 0.9894(3)
C10_5 C 0.13482(19) 0.18038(18) 0.9971(2)
C11_5 C 0.3278(2) 0.31456(19) 0.9776(2)
H5_5 H 0.3607 0.2998 0.9756
C12_5 C 0.2851(2) 0.2851(2) 0.9807(3)
C13_5 C 0.2359(2) 0.3042(2) 0.9842(3)
C14_5 C 0.1460(2) 0.2711(2) 0.9945(3)
H6_5 H 0.1314 0.3041 0.9950
S1_5 S 0.28336(6) 0.21808(6) 0.98139(12)
O8_5 O 0.2987(2) 0.1971(2) 0.9313(4)
O26_3 O 0.12203(12) 0.02603(11) 0.91012(12)
O17_5 O 0.09123(11) 0.99193(12) 0.12302(11)
O18_3 O 0.37797(12) 0.97397(11) 0.41012(12)
C29_5 C 0.40088(16) 0.97514(17) 0.36713(15)
C31_5 C 0.2167(2) 0.9875(3) 0.21567(17)
C32_5 C 0.36681(19) 0.9774(2) 0.32122(18)
C33_5 C 0.17358(19) 0.9919(3) 0.18762(19)
H13_5 H 0.1408 0.9916 0.2027
C34_5 C 0.3547(2) 0.9846(4) 0.2304(2)
H14_5 H 0.3690 0.9870 0.1973
C35_5 C 0.3871(2) 0.9816(3) 0.27269(19)
H15_5 H 0.4229 0.9825 0.2681
C36_5 C 0.2284(2) 0.9989(3) 0.1153(2)
C37_5 C 0.2654(2) 0.9894(3) 0.1969(2)
C38_5 C 0.18038(18) 0.9971(2) 0.13482(19)
C39_5 C 0.31456(19) 0.9776(2) 0.3278(2)
H17_5 H 0.2998 0.9756 0.3607
C40_5 C 0.2851(2) 0.9807(3) 0.2851(2)
C41_5 C 0.3042(2) 0.9842(3) 0.2359(2)
C42_5 C 0.2711(2) 0.9945(3) 0.1460(2)
H18_5 H 0.3041 0.9950 0.1314
S3_5 S 0.21808(6) 0.98139(12) 0.28336(6)
O22_5 O 0.1971(2) 0.9313(4) 0.2987(2)
O27_4 O 0.02603(11) 0.91012(12) 0.12203(12)
O10_5 O 0.99193(12) 0.12302(11) 0.09123(11)
O11_4 O 0.97397(11) 0.41012(12) 0.37797(12)
C15_5 C 0.97514(17) 0.36713(15) 0.40088(16)
C17_5 C 0.9875(3) 0.21567(17) 0.2167(2)
C18_5 C 0.9774(2) 0.32122(18) 0.36681(19)
C19_5 C 0.9919(3) 0.18762(19) 0.17358(19)
H7_5 H 0.9916 0.2027 0.1408
C20_5 C 0.9846(4) 0.2304(2) 0.3547(2)
H8_5 H 0.9870 0.1973 0.3690
C21_5 C 0.9816(3) 0.27269(19) 0.3871(2)
H9_5 H 0.9825 0.2681 0.4229
C22_5 C 0.9989(3) 0.1153(2) 0.2284(2)
C23_5 C 0.9894(3) 0.1969(2) 0.2654(2)
C24_5 C 0.9971(2) 0.13482(19) 0.18038(18)
C25_5 C 0.9776(2) 0.3278(2) 0.31456(19)
H11_5 H 0.9756 0.3607 0.2998
C26_5 C 0.9807(3) 0.2851(2) 0.2851(2)
C27_5 C 0.9842(3) 0.2359(2) 0.3042(2)
C28_5 C 0.9945(3) 0.1460(2) 0.2711(2)
H12_5 H 0.9950 0.1314 0.3041
S2_5 S 0.98139(12) 0.28336(6) 0.21808(6)
O15_5 O 0.9313(4) 0.2987(2) 0.1971(2)
O28_2 O 0.91012(12) 0.12203(12) 0.02603(11)
O3_6 O 0.40877(11) 0.00807(12) 0.62302(11)
C1_6 C 0.09912(16) 0.02486(17) 0.86713(15)
C3_6 C 0.2833(2) 0.0125(3) 0.71567(17)
C4_6 C 0.13319(19) 0.0226(2) 0.82122(18)
C5_6 C 0.32642(19) 0.0081(3) 0.68762(19)
H1_6 H 0.3592 0.0084 0.7027
C6_6 C 0.1453(2) 0.0154(4) 0.7304(2)
H2_6 H 0.1310 0.0130 0.6973
C7_6 C 0.1129(2) 0.0184(3) 0.77269(19)
H3_6 H 0.0771 0.0175 0.7681
C8_6 C 0.2716(2) 0.0011(3) 0.6153(2)
C9_6 C 0.2346(2) 0.0106(3) 0.6969(2)
C10_6 C 0.31962(18) 0.0029(2) 0.63482(19)
C11_6 C 0.18544(19) 0.0224(2) 0.8278(2)
H5_6 H 0.2002 0.0244 0.8607
C12_6 C 0.2149(2) 0.0193(3) 0.7851(2)
C13_6 C 0.1958(2) 0.0158(3) 0.7359(2)
C14_6 C 0.2289(2) 0.0055(3) 0.6460(2)
H6_6 H 0.1959 0.0050 0.6314
S1_6 S 0.28192(6) 0.01861(12) 0.78336(6)
O8_6 O 0.3029(2) 0.0687(4) 0.7987(2)
O26_4 O 0.47397(11) 0.08988(12) 0.62203(12)
O1_4 O 0.45412(18) 0.95412(18) 0.54588(18)
O5_4 O 0.35651(10) 0.98847(12) 0.55500(11)
C2_4 C 0.36570(15) 0.99929(18) 0.60152(16)
O7_4 O 0.3016(2) 0.9741(4) 0.80857(19)
H4_4 H 0.2672 0.9967 0.5798
O10_6 O 0.37698(11) 0.90877(11) 0.49193(12)
O11_5 O 0.08988(12) 0.62203(12) 0.47397(11)
O12_4 O 0.44500(11) 0.85651(10) 0.51153(12)
C15_6 C 0.13287(15) 0.59912(16) 0.47514(17)
C16_4 C 0.39848(16) 0.86570(15) 0.50071(18)
C17_6 C 0.28433(17) 0.7833(2) 0.4875(3)
C18_6 C 0.17878(18) 0.63319(19) 0.4774(2)
O14_4 O 0.19143(19) 0.8016(2) 0.5259(4)
C19_6 C 0.31238(19) 0.82642(19) 0.4919(3)
H7_6 H 0.2973 0.8592 0.4916
C20_6 C 0.2696(2) 0.6453(2) 0.4846(4)
H8_6 H 0.3027 0.6310 0.4870
C21_6 C 0.22731(19) 0.6129(2) 0.4816(3)
H9_6 H 0.2319 0.5771 0.4825
C22_6 C 0.3847(2) 0.7716(2) 0.4989(3)
H10_4 H 0.4202 0.7672 0.5033
C23_6 C 0.3031(2) 0.7346(2) 0.4894(3)
C24_6 C 0.36518(19) 0.81962(18) 0.4971(2)
C25_6 C 0.1722(2) 0.68544(19) 0.4776(2)
H11_6 H 0.1393 0.7002 0.4756
C26_6 C 0.2149(2) 0.7149(2) 0.4807(3)
C27_6 C 0.2641(2) 0.6958(2) 0.4842(3)
C28_6 C 0.3540(2) 0.7289(2) 0.4945(3)
H12_6 H 0.3686 0.6959 0.4950
S2_6 S 0.21664(6) 0.78192(6) 0.48139(12)
O15_6 O 0.2013(2) 0.8029(2) 0.4313(4)
O17_6 O 0.50807(12) 0.87698(11) 0.59123(11)
O18_4 O 0.52603(11) 0.58988(12) 0.87797(12)
O19_4 O 0.48847(12) 0.94500(11) 0.64349(10)
C29_6 C 0.52486(17) 0.63287(15) 0.90088(16)
C30_4 C 0.49929(18) 0.89848(16) 0.63430(15)
C31_6 C 0.5125(3) 0.78433(17) 0.7167(2)
C32_6 C 0.5226(2) 0.67878(18) 0.86681(19)
O21_4 O 0.4741(4) 0.69143(19) 0.6984(2)
C33_6 C 0.5081(3) 0.81238(19) 0.67358(19)
H13_6 H 0.5084 0.7973 0.6408
C34_6 C 0.5154(4) 0.7696(2) 0.8547(2)
H14_6 H 0.5130 0.8027 0.8690
C35_6 C 0.5184(3) 0.72731(19) 0.8871(2)
H15_6 H 0.5175 0.7319 0.9229
C36_6 C 0.5011(3) 0.8847(2) 0.7284(2)
H16_4 H 0.4967 0.9202 0.7328
C37_6 C 0.5106(3) 0.8031(2) 0.7654(2)
C38_6 C 0.5029(2) 0.86518(19) 0.68038(18)
C39_6 C 0.5224(2) 0.6722(2) 0.81456(19)
H17_6 H 0.5244 0.6393 0.7998
C40_6 C 0.5193(3) 0.7149(2) 0.7851(2)
C41_6 C 0.5158(3) 0.7641(2) 0.8042(2)
C42_6 C 0.5055(3) 0.8540(2) 0.7711(2)
H18_6 H 0.5050 0.8686 0.8041
S3_6 S 0.51861(12) 0.71664(6) 0.71808(6)
O22_6 O 0.5687(4) 0.7013(2) 0.6971(2)
O27_5 O 0.58988(12) 0.87797(12) 0.52603(11)
O17_7 O 0.62302(11) 0.40877(11) 0.00807(12)
C29_7 C 0.86713(15) 0.09912(16) 0.02486(17)
C31_7 C 0.71567(17) 0.2833(2) 0.0125(3)
C32_7 C 0.82122(18) 0.13319(19) 0.0226(2)
C33_7 C 0.68762(19) 0.32642(19) 0.0081(3)
H13_7 H 0.7027 0.3592 0.0084
C34_7 C 0.7304(2) 0.1453(2) 0.0154(4)
H14_7 H 0.6973 0.1310 0.0130
C35_7 C 0.77269(19) 0.1129(2) 0.0184(3)
H15_7 H 0.7681 0.0771 0.0175
C36_7 C 0.6153(2) 0.2716(2) 0.0011(3)
C37_7 C 0.6969(2) 0.2346(2) 0.0106(3)
C38_7 C 0.63482(19) 0.31962(18) 0.0029(2)
C39_7 C 0.8278(2) 0.18544(19) 0.0224(2)
H17_7 H 0.8607 0.2002 0.0244
C40_7 C 0.7851(2) 0.2149(2) 0.0193(3)
C41_7 C 0.7359(2) 0.1958(2) 0.0158(3)
C42_7 C 0.6460(2) 0.2289(2) 0.0055(3)
H18_7 H 0.6314 0.1959 0.0050
S3_7 S 0.78336(6) 0.28192(6) 0.01861(12)
O22_7 O 0.7987(2) 0.3029(2) 0.0687(4)
O27_6 O 0.62203(12) 0.47397(11) 0.08988(12)
O1_5 O 0.54588(18) 0.45412(18) 0.95412(18)
O3_7 O 0.49193(12) 0.37698(11) 0.90877(11)
O5_5 O 0.51153(12) 0.44500(11) 0.85651(10)
C1_7 C 0.47514(17) 0.13287(15) 0.59912(16)
C2_5 C 0.50071(18) 0.39848(16) 0.86570(15)
C3_7 C 0.4875(3) 0.28433(17) 0.7833(2)
C4_7 C 0.4774(2) 0.17878(18) 0.63319(19)
O7_5 O 0.5259(4) 0.19143(19) 0.8016(2)
C5_7 C 0.4919(3) 0.31238(19) 0.82642(19)
H1_7 H 0.4916 0.2973 0.8592
C6_7 C 0.4846(4) 0.2696(2) 0.6453(2)
H2_7 H 0.4870 0.3027 0.6310
C7_7 C 0.4816(3) 0.22731(19) 0.6129(2)
H3_7 H 0.4825 0.2319 0.5771
C8_7 C 0.4989(3) 0.3847(2) 0.7716(2)
H4_5 H 0.5033 0.4202 0.7672
C9_7 C 0.4894(3) 0.3031(2) 0.7346(2)
C10_7 C 0.4971(2) 0.36518(19) 0.81962(18)
C11_7 C 0.4776(2) 0.1722(2) 0.68544(19)
H5_7 H 0.4756 0.1393 0.7002
C12_7 C 0.4807(3) 0.2149(2) 0.7149(2)
C13_7 C 0.4842(3) 0.2641(2) 0.6958(2)
C14_7 C 0.4945(3) 0.3540(2) 0.7289(2)
H6_7 H 0.4950 0.3686 0.6959
S1_7 S 0.48139(12) 0.21664(6) 0.78192(6)
O8_7 O 0.4313(4) 0.2013(2) 0.8029(2)
O10_7 O 0.59123(11) 0.50807(12) 0.87698(11)
O11_6 O 0.87797(12) 0.52603(11) 0.58988(12)
O12_5 O 0.64349(10) 0.48847(12) 0.94500(11)
C15_7 C 0.90088(16) 0.52486(17) 0.63287(15)
C16_5 C 0.63430(15) 0.49929(18) 0.89848(16)
C17_7 C 0.7167(2) 0.5125(3) 0.78433(17)
C18_7 C 0.86681(19) 0.5226(2) 0.67878(18)
O14_5 O 0.6984(2) 0.4741(4) 0.69143(19)
C19_7 C 0.67358(19) 0.5081(3) 0.81238(19)
H7_7 H 0.6408 0.5084 0.7973
C20_7 C 0.8547(2) 0.5154(4) 0.7696(2)
H8_7 H 0.8690 0.5130 0.8027
C21_7 C 0.8871(2) 0.5184(3) 0.72731(19)
H9_7 H 0.9229 0.5175 0.7319
C22_7 C 0.7284(2) 0.5011(3) 0.8847(2)
H10_5 H 0.7328 0.4967 0.9202
C23_7 C 0.7654(2) 0.5106(3) 0.8031(2)
C24_7 C 0.68038(18) 0.5029(2) 0.86518(19)
C25_7 C 0.81456(19) 0.5224(2) 0.6722(2)
H11_7 H 0.7998 0.5244 0.6393
C26_7 C 0.7851(2) 0.5193(3) 0.7149(2)
C27_7 C 0.8042(2) 0.5158(3) 0.7641(2)
C28_7 C 0.7711(2) 0.5055(3) 0.8540(2)
H12_7 H 0.8041 0.5050 0.8686
S2_7 S 0.71808(6) 0.51861(12) 0.71664(6)
O15_7 O 0.6971(2) 0.5687(4) 0.7013(2)
O19_5 O 0.55500(11) 0.35651(10) 0.98847(12)
C30_5 C 0.60152(16) 0.36570(15) 0.99929(18)
O21_5 O 0.80857(19) 0.3016(2) 0.9741(4)
H16_5 H 0.5798 0.2672 0.9967
O17_8 O 0.00807(12) 0.62302(11) 0.40877(11)
C29_8 C 0.02486(17) 0.86713(15) 0.09912(16)
C31_8 C 0.0125(3) 0.71567(17) 0.2833(2)
C32_8 C 0.0226(2) 0.82122(18) 0.13319(19)
C33_8 C 0.0081(3) 0.68762(19) 0.32642(19)
H13_8 H 0.0084 0.7027 0.3592
C34_8 C 0.0154(4) 0.7304(2) 0.1453(2)
H14_8 H 0.0130 0.6973 0.1310
C35_8 C 0.0184(3) 0.77269(19) 0.1129(2)
H15_8 H 0.0175 0.7681 0.0771
C36_8 C 0.0011(3) 0.6153(2) 0.2716(2)
C37_8 C 0.0106(3) 0.6969(2) 0.2346(2)
C38_8 C 0.0029(2) 0.63482(19) 0.31962(18)
C39_8 C 0.0224(2) 0.8278(2) 0.18544(19)
H17_8 H 0.0244 0.8607 0.2002
C40_8 C 0.0193(3) 0.7851(2) 0.2149(2)
C41_8 C 0.0158(3) 0.7359(2) 0.1958(2)
C42_8 C 0.0055(3) 0.6460(2) 0.2289(2)
H18_8 H 0.0050 0.6314 0.1959
S3_8 S 0.01861(12) 0.78336(6) 0.28192(6)
O22_8 O 0.0687(4) 0.7987(2) 0.3029(2)
O1_6 O 0.95412(18) 0.54588(18) 0.45412(18)
O3_8 O 0.90877(11) 0.49193(12) 0.37698(11)
O5_6 O 0.85651(10) 0.51153(12) 0.44500(11)
C1_8 C 0.59912(16) 0.47514(17) 0.13287(15)
C2_6 C 0.86570(15) 0.50071(18) 0.39848(16)
C3_8 C 0.7833(2) 0.4875(3) 0.28433(17)
C4_8 C 0.63319(19) 0.4774(2) 0.17878(18)
O7_6 O 0.8016(2) 0.5259(4) 0.19143(19)
C5_8 C 0.82642(19) 0.4919(3) 0.31238(19)
H1_8 H 0.8592 0.4916 0.2973
C6_8 C 0.6453(2) 0.4846(4) 0.2696(2)
H2_8 H 0.6310 0.4870 0.3027
C7_8 C 0.6129(2) 0.4816(3) 0.22731(19)
H3_8 H 0.5771 0.4825 0.2319
C8_8 C 0.7716(2) 0.4989(3) 0.3847(2)
H4_6 H 0.7672 0.5033 0.4202
C9_8 C 0.7346(2) 0.4894(3) 0.3031(2)
C10_8 C 0.81962(18) 0.4971(2) 0.36518(19)
C11_8 C 0.68544(19) 0.4776(2) 0.1722(2)
H5_8 H 0.7002 0.4756 0.1393
C12_8 C 0.7149(2) 0.4807(3) 0.2149(2)
C13_8 C 0.6958(2) 0.4842(3) 0.2641(2)
C14_8 C 0.7289(2) 0.4945(3) 0.3540(2)
H6_8 H 0.6959 0.4950 0.3686
S1_8 S 0.78192(6) 0.48139(12) 0.21664(6)
O8_8 O 0.8029(2) 0.4313(4) 0.2013(2)
O10_8 O 0.87698(11) 0.59123(11) 0.50807(12)
O12_6 O 0.94500(11) 0.64349(10) 0.48847(12)
C15_8 C 0.63287(15) 0.90088(16) 0.52486(17)
C16_6 C 0.89848(16) 0.63430(15) 0.49929(18)
C17_8 C 0.78433(17) 0.7167(2) 0.5125(3)
C18_8 C 0.67878(18) 0.86681(19) 0.5226(2)
O14_6 O 0.69143(19) 0.6984(2) 0.4741(4)
C19_8 C 0.81238(19) 0.67358(19) 0.5081(3)
H7_8 H 0.7973 0.6408 0.5084
C20_8 C 0.7696(2) 0.8547(2) 0.5154(4)
H8_8 H 0.8027 0.8690 0.5130
C21_8 C 0.72731(19) 0.8871(2) 0.5184(3)
H9_8 H 0.7319 0.9229 0.5175
C22_8 C 0.8847(2) 0.7284(2) 0.5011(3)
H10_6 H 0.9202 0.7328 0.4967
C23_8 C 0.8031(2) 0.7654(2) 0.5106(3)
C24_8 C 0.86518(19) 0.68038(18) 0.5029(2)
C25_8 C 0.6722(2) 0.81456(19) 0.5224(2)
H11_8 H 0.6393 0.7998 0.5244
C26_8 C 0.7149(2) 0.7851(2) 0.5193(3)
C27_8 C 0.7641(2) 0.8042(2) 0.5158(3)
C28_8 C 0.8540(2) 0.7711(2) 0.5055(3)
H12_8 H 0.8686 0.8041 0.5050
S2_8 S 0.71664(6) 0.71808(6) 0.51861(12)
O15_8 O 0.7013(2) 0.6971(2) 0.5687(4)
O19_6 O 0.98847(12) 0.55500(11) 0.35651(10)
C30_6 C 0.99929(18) 0.60152(16) 0.36570(15)
O21_6 O 0.9741(4) 0.80857(19) 0.3016(2)
H16_6 H 0.9967 0.5798 0.2672
O1_7 O 0.95412(18) 0.95412(18) 0.95412(18)
O5_7 O 0.94500(11) 0.85651(10) 0.98847(12)
C2_7 C 0.89848(16) 0.86570(15) 0.99929(18)
O7_7 O 0.69143(19) 0.8016(2) 0.9741(4)
H4_7 H 0.9202 0.7672 0.9967
O12_7 O 0.98847(12) 0.94500(11) 0.85651(10)
C16_7 C 0.99929(18) 0.89848(16) 0.86570(15)
O14_7 O 0.9741(4) 0.69143(19) 0.8016(2)
H10_7 H 0.9967 0.9202 0.7672
O19_7 O 0.85651(10) 0.98847(12) 0.94500(11)
C30_7 C 0.86570(15) 0.99929(18) 0.89848(16)
O21_7 O 0.8016(2) 0.9741(4) 0.69143(19)
H16_7 H 0.7672 0.9967 0.9202
O1_8 O 0.04588(18) 0.04588(18) 0.04588(18)
O5_8 O 0.05500(11) 0.14349(10) 0.01153(12)
C2_8 C 0.10152(16) 0.13430(15) 0.00071(18)
O7_8 O 0.30857(19) 0.1984(2) 0.0259(4)
H4_8 H 0.0798 0.2328 0.0033
O12_8 O 0.01153(12) 0.05500(11) 0.14349(10)
C16_8 C 0.00071(18) 0.10152(16) 0.13430(15)
O14_8 O 0.0259(4) 0.30857(19) 0.1984(2)
H10_8 H 0.0033 0.0798 0.2328
O19_8 O 0.14349(10) 0.01153(12) 0.05500(11)
C30_8 C 0.13430(15) 0.00071(18) 0.10152(16)
O21_8 O 0.1984(2) 0.0259(4) 0.30857(19)
H16_8 H 0.2328 0.0033 0.0798
loop_
_geom_bond_atom_site_label_1
_geom_bond_atom_site_label_2
_geom_bond_site_symmetry_1
_geom_bond_site_symmetry_2
Zr9 O29 1_555 1_555
Zr8 O31 1_555 1_555
O9 C15 1_555 1_555
O10 Zr1 1_555 1_555
O11 C15 1_555 1_555
O13 Zr1 1_555 1_555
C15 C18 1_555 1_555
C17 C19 1_555 1_555
C18 C21 1_555 1_555
C19 H7 1_555 1_555
C20 H8 1_555 1_555
C21 C20 1_555 1_555
H9 C21 1_555 1_555
C23 C17 1_555 1_555
C25 C18 1_555 1_555
H11 C25 1_555 1_555
C26 C25 1_555 1_555
C27 C20 1_555 1_555
C28 C22 1_555 1_555
H12 C28 1_555 1_555
S2 C17 1_555 1_555
O15 S2 1_555 1_555
Zr5 O11 1_555 1_555
Zr12 O9 1_555 1_555
O28 Zr1 1_555 1_555
C19 C24 1_555 1_555
C22 C24 1_555 1_555
C23 C27 1_555 1_555
C23 C28 1_555 1_555
C26 C27 1_555 1_555
C26 S2 1_555 1_555
Zr7 O30 1_555 1_555
O16 C29 1_555 1_555
O17 Zr2 1_555 1_555
O18 C29 1_555 1_555
O20 Zr2 1_555 1_555
C29 C32 1_555 1_555
C31 C33 1_555 1_555
C32 C35 1_555 1_555
C33 H13 1_555 1_555
C34 H14 1_555 1_555
C35 C34 1_555 1_555
H15 C35 1_555 1_555
C37 C31 1_555 1_555
C39 C32 1_555 1_555
H17 C39 1_555 1_555
C40 C39 1_555 1_555
C41 C34 1_555 1_555
C42 C36 1_555 1_555
H18 C42 1_555 1_555
S3 C31 1_555 1_555
O22 S3 1_555 1_555
Zr4 O18 1_555 1_555
Zr10 O16 1_555 1_555
O27 Zr2 1_555 1_555
C33 C38 1_555 1_555
C36 C38 1_555 1_555
C37 C41 1_555 1_555
C37 C42 1_555 1_555
C40 C41 1_555 1_555
C40 S3 1_555 1_555
O2 C1 1_555 1_555
O4 C1 1_555 1_555
C1 C4 1_555 1_555
C3 C5 1_555 1_555
C4 C7 1_555 1_555
C5 H1 1_555 1_555
C6 H2 1_555 1_555
C7 C6 1_555 1_555
H3 C7 1_555 1_555
C9 C3 1_555 1_555
C11 C4 1_555 1_555
H5 C11 1_555 1_555
C12 C11 1_555 1_555
C13 C6 1_555 1_555
C14 C8 1_555 1_555
H6 C14 1_555 1_555
S1 C3 1_555 1_555
O8 S1 1_555 1_555
Zr6 O4 1_555 1_555
Zr11 O2 1_555 1_555
O26 Zr3 1_555 1_555
O3 Zr3 1_555 1_555
O6 Zr3 1_555 1_555
C5 C10 1_555 1_555
C8 C10 1_555 1_555
C9 C13 1_555 1_555
C9 C14 1_555 1_555
C12 C13 1_555 1_555
C12 S1 1_555 1_555
Zr4 O1 1_555 1_555
O1 Zr2_2 1_555 1_555
O5 Zr4 1_555 1_555
C2 O5 1_555 1_555
Zr2_2 O12 1_555 1_555
O9_2 C15_2 1_555 1_555
O10_2 Zr4 1_555 1_555
O11_2 C15_2 1_555 1_555
O12 C16 1_555 1_555
O13_2 Zr4 1_555 1_555
C15_2 C18_2 1_555 1_555
C16 O10_2 1_555 1_555
C17_2 C19_2 1_555 1_555
C18_2 C21_2 1_555 1_555
O14 S2_2 1_555 1_555
C19_2 H7_2 1_555 1_555
C20_2 H8_2 1_555 1_555
C21_2 C20_2 1_555 1_555
H9_2 C21_2 1_555 1_555
C22_2 H10 1_555 1_555
C23_2 C17_2 1_555 1_555
C24_2 C16 1_555 1_555
C25_2 C18_2 1_555 1_555
H11_2 C25_2 1_555 1_555
C26_2 C25_2 1_555 1_555
C27_2 C20_2 1_555 1_555
C28_2 C22_2 1_555 1_555
H12_2 C28_2 1_555 1_555
S2_2 C17_2 1_555 1_555
O15_2 S2_2 1_555 1_555
O16_2 C29_2 1_555 1_555
O17_2 Zr2_2 1_555 1_555
O18_2 C29_2 1_555 1_555
O20_2 Zr2_2 1_555 1_555
C29_2 C32_2 1_555 1_555
C30 O17_2 1_555 1_555
C31_2 C33_2 1_555 1_555
C32_2 C35_2 1_555 1_555
O21 S3_2 1_555 1_555
C33_2 H13_2 1_555 1_555
C34_2 H14_2 1_555 1_555
C35_2 C34_2 1_555 1_555
H15_2 C35_2 1_555 1_555
C36_2 H16 1_555 1_555
C37_2 C31_2 1_555 1_555
C38_2 C30 1_555 1_555
C39_2 C32_2 1_555 1_555
H17_2 C39_2 1_555 1_555
C40_2 C39_2 1_555 1_555
C41_2 C34_2 1_555 1_555
C42_2 C36_2 1_555 1_555
H18_2 C42_2 1_555 1_555
S3_2 C31_2 1_555 1_555
O22_2 S3_2 1_555 1_555
Zr4_2 O18_2 1_555 1_555
Zr5_2 O11_2 1_555 1_555
Zr10 O13_2 1_555 1_555
Zr12_2 O9_2 1_555 1_555
O23_2 Zr2_2 1_555 1_555
O27_2 Zr2_2 1_555 1_555
O29_2 Zr2_2 1_555 1_555
Zr2_2 O13_2 1_555 1_555
C19_2 C24_2 1_555 1_555
C22_2 C24_2 1_555 1_555
C23_2 C27_2 1_555 1_555
C23_2 C28_2 1_555 1_555
C26_2 C27_2 1_555 1_555
C26_2 S2_2 1_555 1_555
O19 C30 1_555 1_555
C33_2 C38_2 1_555 1_555
C36_2 C38_2 1_555 1_555
C37_2 C41_2 1_555 1_555
C37_2 C42_2 1_555 1_555
C40_2 C41_2 1_555 1_555
C40_2 S3_2 1_555 1_555
Zr10 O29_2 1_555 1_555
O2_2 C1_2 1_555 1_555
O26 C1_2 1_555 1_555
C1_2 C4_2 1_555 1_555
C3_2 C5_2 1_555 1_555
C4_2 C7_2 1_555 1_555
C5_2 H1_2 1_555 1_555
C6_2 H2_2 1_555 1_555
C7_2 C6_2 1_555 1_555
H3_2 C7_2 1_555 1_555
C9_2 C3_2 1_555 1_555
C11_2 C4_2 1_555 1_555
H5_2 C11_2 1_555 1_555
C12_2 C11_2 1_555 1_555
C13_2 C6_2 1_555 1_555
C14_2 C8_2 1_555 1_555
H6_2 C14_2 1_555 1_555
S1_2 C3_2 1_555 1_555
O8_2 S1_2 1_555 1_555
Zr8_2 O6_2 1_555 1_555
O25_2 Zr3_2 1_555 1_555
O26_2 Zr3_2 1_555 1_555
O30_2 Zr3_2 1_555 1_555
O3_2 Zr3_2 1_555 1_555
O6_2 Zr3_2 1_555 1_555
C5_2 C10_2 1_555 1_555
C8_2 C10_2 1_555 1_555
C9_2 C13_2 1_555 1_555
C9_2 C14_2 1_555 1_555
C12_2 C13_2 1_555 1_555
C12_2 S1_2 1_555 1_555
Zr7_2 O30_2 1_555 1_555
Zr8_2 O30_2 1_555 1_555
Zr8_2 O31_2 1_555 1_555
Zr4_2 O1_2 1_555 1_555
O2_3 C1_3 1_555 1_555
O3_3 C2_2 1_555 1_555
O26_2 C1_3 1_555 1_555
O5_2 Zr4_2 1_555 1_555
O6_3 Zr4_2 1_555 1_555
C1_3 C4_3 1_555 1_555
C2_2 O5_2 1_555 1_555
C3_3 C5_3 1_555 1_555
C4_3 C7_3 1_555 1_555
O7_2 S1_3 1_555 1_555
C5_3 H1_3 1_555 1_555
C6_3 H2_3 1_555 1_555
C7_3 C6_3 1_555 1_555
H3_3 C7_3 1_555 1_555
C8_3 H4_2 1_555 1_555
C9_3 C3_3 1_555 1_555
C10_3 C2_2 1_555 1_555
C11_3 C4_3 1_555 1_555
H5_3 C11_3 1_555 1_555
C12_3 C11_3 1_555 1_555
C13_3 C6_3 1_555 1_555
C14_3 C8_3 1_555 1_555
H6_3 C14_3 1_555 1_555
S1_3 C3_3 1_555 1_555
O8_3 S1_3 1_555 1_555
O9_3 C15_3 1_555 1_555
O10_3 Zr4_2 1_555 1_555
O11_3 C15_3 1_555 1_555
O12_2 C16_2 1_555 1_555
O13_3 Zr4_2 1_555 1_555
C15_3 C18_3 1_555 1_555
C16_2 O10_3 1_555 1_555
C17_3 C19_3 1_555 1_555
C18_3 C21_3 1_555 1_555
O14_2 S2_3 1_555 1_555
C19_3 H7_3 1_555 1_555
C20_3 H8_3 1_555 1_555
C21_3 C20_3 1_555 1_555
H9_3 C21_3 1_555 1_555
C22_3 H10_2 1_555 1_555
C23_3 C17_3 1_555 1_555
C24_3 C16_2 1_555 1_555
C25_3 C18_3 1_555 1_555
H11_3 C25_3 1_555 1_555
C26_3 C25_3 1_555 1_555
C27_3 C20_3 1_555 1_555
C28_3 C22_3 1_555 1_555
H12_3 C28_3 1_555 1_555
S2_3 C17_3 1_555 1_555
O15_3 S2_3 1_555 1_555
Zr6 O1_2 1_555 1_555
O19_2 Zr6 1_555 1_555
Zr5_3 O11_3 1_555 1_555
Zr11 O6_3 1_555 1_555
Zr8_2 O2_3 1_555 1_555
O24_3 Zr4_2 1_555 1_555
O31_3 Zr4_2 1_555 1_555
O3_3 Zr6 1_555 1_555
O6_3 Zr6 1_555 1_555
C5_3 C10_3 1_555 1_555
C8_3 C10_3 1_555 1_555
C9_3 C13_3 1_555 1_555
C9_3 C14_3 1_555 1_555
C12_3 C13_3 1_555 1_555
C12_3 S1_3 1_555 1_555
C19_3 C24_3 1_555 1_555
C22_3 C24_3 1_555 1_555
C23_3 C27_3 1_555 1_555
C23_3 C28_3 1_555 1_555
C26_3 C27_3 1_555 1_555
C26_3 S2_3 1_555 1_555
O19_2 C30_2 1_555 1_555
Zr11 O31_3 1_555 1_555
O16_3 C29_3 1_555 1_555
O17_3 Zr2_3 1_555 1_555
O28 C29_3 1_555 1_555
O20_3 Zr2_3 1_555 1_555
C29_3 C32_3 1_555 1_555
C31_3 C33_3 1_555 1_555
C32_3 C35_3 1_555 1_555
C33_3 H13_3 1_555 1_555
C34_3 H14_3 1_555 1_555
C35_3 C34_3 1_555 1_555
H15_3 C35_3 1_555 1_555
C37_3 C31_3 1_555 1_555
C39_3 C32_3 1_555 1_555
H17_3 C39_3 1_555 1_555
C40_3 C39_3 1_555 1_555
C41_3 C34_3 1_555 1_555
C42_3 C36_3 1_555 1_555
H18_3 C42_3 1_555 1_555
S3_3 C31_3 1_555 1_555
O22_3 S3_3 1_555 1_555
Zr7_3 O20_3 1_555 1_555
O23_3 Zr2_3 1_555 1_555
O27_3 Zr2_3 1_555 1_555
O29_3 Zr2_3 1_555 1_555
C33_3 C38_3 1_555 1_555
C36_3 C38_3 1_555 1_555
C37_3 C41_3 1_555 1_555
C37_3 C42_3 1_555 1_555
C40_3 C41_3 1_555 1_555
C40_3 S3_3 1_555 1_555
Zr7_3 O29_3 1_555 1_555
Zr7_3 O30_3 1_555 1_555
Zr10_2 O29_3 1_555 1_555
Zr5_3 O1_3 1_555 1_555
O2_4 C1_4 1_555 1_555
O3_4 C2_3 1_555 1_555
O27_3 C1_4 1_555 1_555
O5_3 Zr5_3 1_555 1_555
O6_4 Zr5_3 1_555 1_555
C1_4 C4_4 1_555 1_555
C2_3 O5_3 1_555 1_555
C3_4 C5_4 1_555 1_555
C4_4 C7_4 1_555 1_555
O7_3 S1_4 1_555 1_555
C5_4 H1_4 1_555 1_555
C6_4 H2_4 1_555 1_555
C7_4 C6_4 1_555 1_555
H3_4 C7_4 1_555 1_555
C8_4 H4_3 1_555 1_555
C9_4 C3_4 1_555 1_555
C10_4 C2_3 1_555 1_555
C11_4 C4_4 1_555 1_555
H5_4 C11_4 1_555 1_555
C12_4 C11_4 1_555 1_555
C13_4 C6_4 1_555 1_555
C14_4 C8_4 1_555 1_555
H6_4 C14_4 1_555 1_555
S1_4 C3_4 1_555 1_555
O8_4 S1_4 1_555 1_555
O9_4 C15_4 1_555 1_555
O10_4 Zr5_3 1_555 1_555
O27_2 C15_4 1_555 1_555
O12_3 C16_3 1_555 1_555
O13_4 Zr5_3 1_555 1_555
C15_4 C18_4 1_555 1_555
C16_3 O10_4 1_555 1_555
C17_4 C19_4 1_555 1_555
C18_4 C21_4 1_555 1_555
O14_3 S2_4 1_555 1_555
C19_4 H7_4 1_555 1_555
C20_4 H8_4 1_555 1_555
C21_4 C20_4 1_555 1_555
H9_4 C21_4 1_555 1_555
C22_4 H10_3 1_555 1_555
C23_4 C17_4 1_555 1_555
C24_4 C16_3 1_555 1_555
C25_4 C18_4 1_555 1_555
H11_4 C25_4 1_555 1_555
C26_4 C25_4 1_555 1_555
C27_4 C20_4 1_555 1_555
C28_4 C22_4 1_555 1_555
H12_4 C28_4 1_555 1_555
S2_4 C17_4 1_555 1_555
O15_4 S2_4 1_555 1_555
Zr5 O1_3 1_555 1_555
O19_3 Zr5 1_555 1_555
Zr12 O6_4 1_555 1_555
Zr7_3 O2_4 1_555 1_555
O24_4 Zr5_3 1_555 1_555
O31_4 Zr5_3 1_555 1_555
O3_4 Zr5 1_555 1_555
O6_4 Zr5 1_555 1_555
C5_4 C10_4 1_555 1_555
C8_4 C10_4 1_555 1_555
C9_4 C13_4 1_555 1_555
C9_4 C14_4 1_555 1_555
C12_4 C13_4 1_555 1_555
C12_4 S1_4 1_555 1_555
C19_4 C24_4 1_555 1_555
C22_4 C24_4 1_555 1_555
C23_4 C27_4 1_555 1_555
C23_4 C28_4 1_555 1_555
C26_4 C27_4 1_555 1_555
C26_4 S2_4 1_555 1_555
O19_3 C30_3 1_555 1_555
Zr12 O31_4 1_555 1_555
O16_4 C29_4 1_555 1_555
O17_4 Zr5_2 1_555 1_555
O27 C29_4 1_555 1_555
O20_4 Zr5_2 1_555 1_555
C29_4 C32_4 1_555 1_555
C31_4 C33_4 1_555 1_555
C32_4 C35_4 1_555 1_555
C33_4 H13_4 1_555 1_555
C34_4 H14_4 1_555 1_555
C35_4 C34_4 1_555 1_555
H15_4 C35_4 1_555 1_555
C37_4 C31_4 1_555 1_555
C39_4 C32_4 1_555 1_555
H17_4 C39_4 1_555 1_555
C40_4 C39_4 1_555 1_555
C41_4 C34_4 1_555 1_555
C42_4 C36_4 1_555 1_555
H18_4 C42_4 1_555 1_555
S3_4 C31_4 1_555 1_555
O22_4 S3_4 1_555 1_555
Zr12_2 O20_4 1_555 1_555
O23_4 Zr5_2 1_555 1_555
O29_4 Zr5_2 1_555 1_555
C33_4 C38_4 1_555 1_555
C36_4 C38_4 1_555 1_555
C37_4 C41_4 1_555 1_555
C37_4 C42_4 1_555 1_555
C40_4 C41_4 1_555 1_555
C40_4 S3_4 1_555 1_555
Zr12_2 O29_4 1_555 1_555
Zr12_2 O30_4 1_555 1_555
Zr12_3 O29_4 1_555 1_555
O23_3 C1_5 1_555 1_555
O4_2 C1_5 1_555 1_555
C1_5 C4_5 1_555 1_555
C3_5 C5_5 1_555 1_555
C4_5 C7_5 1_555 1_555
C5_5 H1_5 1_555 1_555
C6_5 H2_5 1_555 1_555
C7_5 C6_5 1_555 1_555
H3_5 C7_5 1_555 1_555
C9_5 C3_5 1_555 1_555
C11_5 C4_5 1_555 1_555
H5_5 C11_5 1_555 1_555
C12_5 C11_5 1_555 1_555
C13_5 C6_5 1_555 1_555
C14_5 C8_5 1_555 1_555
H6_5 C14_5 1_555 1_555
S1_5 C3_5 1_555 1_555
O8_5 S1_5 1_555 1_555
Zr10_2 O4_2 1_555 1_555
O26_3 Zr9 1_555 1_555
O3_5 Zr9 1_555 1_555
C5_5 C10_5 1_555 1_555
C8_5 C10_5 1_555 1_555
C9_5 C13_5 1_555 1_555
C9_5 C14_5 1_555 1_555
C12_5 C13_5 1_555 1_555
C12_5 S1_5 1_555 1_555
O25_2 C29_5 1_555 1_555
O17_5 Zr8 1_555 1_555
O18_3 C29_5 1_555 1_555
C29_5 C32_5 1_555 1_555
C31_5 C33_5 1_555 1_555
C32_5 C35_5 1_555 1_555
C33_5 H13_5 1_555 1_555
C34_5 H14_5 1_555 1_555
C35_5 C34_5 1_555 1_555
H15_5 C35_5 1_555 1_555
C37_5 C31_5 1_555 1_555
C39_5 C32_5 1_555 1_555
H17_5 C39_5 1_555 1_555
C40_5 C39_5 1_555 1_555
C41_5 C34_5 1_555 1_555
C42_5 C36_5 1_555 1_555
H18_5 C42_5 1_555 1_555
S3_5 C31_5 1_555 1_555
O22_5 S3_5 1_555 1_555
Zr7_2 O18_3 1_555 1_555
O27_4 Zr8 1_555 1_555
C33_5 C38_5 1_555 1_555
C36_5 C38_5 1_555 1_555
C37_5 C41_5 1_555 1_555
C37_5 C42_5 1_555 1_555
C40_5 C41_5 1_555 1_555
C40_5 S3_5 1_555 1_555
O23_4 C15_5 1_555 1_555
O10_5 Zr7 1_555 1_555
O11_4 C15_5 1_555 1_555
C15_5 C18_5 1_555 1_555
C17_5 C19_5 1_555 1_555
C18_5 C21_5 1_555 1_555
C19_5 H7_5 1_555 1_555
C20_5 H8_5 1_555 1_555
C21_5 C20_5 1_555 1_555
H9_5 C21_5 1_555 1_555
C23_5 C17_5 1_555 1_555
C25_5 C18_5 1_555 1_555
H11_5 C25_5 1_555 1_555
C26_5 C25_5 1_555 1_555
C27_5 C20_5 1_555 1_555
C28_5 C22_5 1_555 1_555
H12_5 C28_5 1_555 1_555
S2_5 C17_5 1_555 1_555
O15_5 S2_5 1_555 1_555
Zr12_3 O11_4 1_555 1_555
O28_2 Zr7 1_555 1_555
C19_5 C24_5 1_555 1_555
C22_5 C24_5 1_555 1_555
C23_5 C27_5 1_555 1_555
C23_5 C28_5 1_555 1_555
C26_5 C27_5 1_555 1_555
C26_5 S2_5 1_555 1_555
O23 C1_6 1_555 1_555
O26_3 C1_6 1_555 1_555
C1_6 C4_6 1_555 1_555
C3_6 C5_6 1_555 1_555
C4_6 C7_6 1_555 1_555
C5_6 H1_6 1_555 1_555
C6_6 H2_6 1_555 1_555
C7_6 C6_6 1_555 1_555
H3_6 C7_6 1_555 1_555
C9_6 C3_6 1_555 1_555
C11_6 C4_6 1_555 1_555
H5_6 C11_6 1_555 1_555
C12_6 C11_6 1_555 1_555
C13_6 C6_6 1_555 1_555
C14_6 C8_6 1_555 1_555
H6_6 C14_6 1_555 1_555
S1_6 C3_6 1_555 1_555
O8_6 S1_6 1_555 1_555
O26_4 Zr10 1_555 1_555
O3_6 Zr10 1_555 1_555
C5_6 C10_6 1_555 1_555
C8_6 C10_6 1_555 1_555
C9_6 C13_6 1_555 1_555
C9_6 C14_6 1_555 1_555
C12_6 C13_6 1_555 1_555
C12_6 S1_6 1_555 1_555
Zr7_2 O1_4 1_555 1_555
O1_4 Zr8_2 1_555 1_555
O5_4 Zr7_2 1_555 1_555
C2_4 O5_4 1_555 1_555
Zr8_2 O12_4 1_555 1_555
O24_4 C15_6 1_555 1_555
O10_6 Zr7_2 1_555 1_555
O11_5 C15_6 1_555 1_555
O12_4 C16_4 1_555 1_555
C15_6 C18_6 1_555 1_555
C16_4 O10_6 1_555 1_555
C17_6 C19_6 1_555 1_555
C18_6 C21_6 1_555 1_555
O14_4 S2_6 1_555 1_555
C19_6 H7_6 1_555 1_555
C20_6 H8_6 1_555 1_555
C21_6 C20_6 1_555 1_555
H9_6 C21_6 1_555 1_555
C22_6 H10_4 1_555 1_555
C23_6 C17_6 1_555 1_555
C24_6 C16_4 1_555 1_555
C25_6 C18_6 1_555 1_555
H11_6 C25_6 1_555 1_555
C26_6 C25_6 1_555 1_555
C27_6 C20_6 1_555 1_555
C28_6 C22_6 1_555 1_555
H12_6 C28_6 1_555 1_555
S2_6 C17_6 1_555 1_555
O15_6 S2_6 1_555 1_555
O25_3 C29_6 1_555 1_555
O17_6 Zr8_2 1_555 1_555
O18_4 C29_6 1_555 1_555
C29_6 C32_6 1_555 1_555
C30_4 O17_6 1_555 1_555
C31_6 C33_6 1_555 1_555
C32_6 C35_6 1_555 1_555
O21_4 S3_6 1_555 1_555
C33_6 H13_6 1_555 1_555
C34_6 H14_6 1_555 1_555
C35_6 C34_6 1_555 1_555
H15_6 C35_6 1_555 1_555
C36_6 H16_4 1_555 1_555
C37_6 C31_6 1_555 1_555
C38_6 C30_4 1_555 1_555
C39_6 C32_6 1_555 1_555
H17_6 C39_6 1_555 1_555
C40_6 C39_6 1_555 1_555
C41_6 C34_6 1_555 1_555
C42_6 C36_6 1_555 1_555
H18_6 C42_6 1_555 1_555
S3_6 C31_6 1_555 1_555
O22_6 S3_6 1_555 1_555
Zr7_3 O18_4 1_555 1_555
Zr12 O11_5 1_555 1_555
O27_5 Zr8_2 1_555 1_555
C19_6 C24_6 1_555 1_555
C22_6 C24_6 1_555 1_555
C23_6 C27_6 1_555 1_555
C23_6 C28_6 1_555 1_555
C26_6 C27_6 1_555 1_555
C26_6 S2_6 1_555 1_555
O19_4 C30_4 1_555 1_555
C33_6 C38_6 1_555 1_555
C36_6 C38_6 1_555 1_555
C37_6 C41_6 1_555 1_555
C37_6 C42_6 1_555 1_555
C40_6 C41_6 1_555 1_555
C40_6 S3_6 1_555 1_555
O25 C29_7 1_555 1_555
O17_7 Zr11 1_555 1_555
O28_2 C29_7 1_555 1_555
C29_7 C32_7 1_555 1_555
C31_7 C33_7 1_555 1_555
C32_7 C35_7 1_555 1_555
C33_7 H13_7 1_555 1_555
C34_7 H14_7 1_555 1_555
C35_7 C34_7 1_555 1_555
H15_7 C35_7 1_555 1_555
C37_7 C31_7 1_555 1_555
C39_7 C32_7 1_555 1_555
H17_7 C39_7 1_555 1_555
C40_7 C39_7 1_555 1_555
C41_7 C34_7 1_555 1_555
C42_7 C36_7 1_555 1_555
H18_7 C42_7 1_555 1_555
S3_7 C31_7 1_555 1_555
O22_7 S3_7 1_555 1_555
O27_6 Zr11 1_555 1_555
C33_7 C38_7 1_555 1_555
C36_7 C38_7 1_555 1_555
C37_7 C41_7 1_555 1_555
C37_7 C42_7 1_555 1_555
C40_7 C41_7 1_555 1_555
C40_7 S3_7 1_555 1_555
Zr7_3 O1_5 1_555 1_555
O23_2 C1_7 1_555 1_555
O3_7 C2_5 1_555 1_555
O26_4 C1_7 1_555 1_555
O5_5 Zr7_3 1_555 1_555
C1_7 C4_7 1_555 1_555
C2_5 O5_5 1_555 1_555
C3_7 C5_7 1_555 1_555
C4_7 C7_7 1_555 1_555
O7_5 S1_7 1_555 1_555
C5_7 H1_7 1_555 1_555
C6_7 H2_7 1_555 1_555
C7_7 C6_7 1_555 1_555
H3_7 C7_7 1_555 1_555
C8_7 H4_5 1_555 1_555
C9_7 C3_7 1_555 1_555
C10_7 C2_5 1_555 1_555
C11_7 C4_7 1_555 1_555
H5_7 C11_7 1_555 1_555
C12_7 C11_7 1_555 1_555
C13_7 C6_7 1_555 1_555
C14_7 C8_7 1_555 1_555
H6_7 C14_7 1_555 1_555
S1_7 C3_7 1_555 1_555
O8_7 S1_7 1_555 1_555
O25_4 C15_7 1_555 1_555
O10_7 Zr7_3 1_555 1_555
O11_6 C15_7 1_555 1_555
O12_5 C16_5 1_555 1_555
C15_7 C18_7 1_555 1_555
C16_5 O10_7 1_555 1_555
C17_7 C19_7 1_555 1_555
C18_7 C21_7 1_555 1_555
O14_5 S2_7 1_555 1_555
C19_7 H7_7 1_555 1_555
C20_7 H8_7 1_555 1_555
C21_7 C20_7 1_555 1_555
H9_7 C21_7 1_555 1_555
C22_7 H10_5 1_555 1_555
C23_7 C17_7 1_555 1_555
C24_7 C16_5 1_555 1_555
C25_7 C18_7 1_555 1_555
H11_7 C25_7 1_555 1_555
C26_7 C25_7 1_555 1_555
C27_7 C20_7 1_555 1_555
C28_7 C22_7 1_555 1_555
H12_7 C28_7 1_555 1_555
S2_7 C17_7 1_555 1_555
O15_7 S2_7 1_555 1_555
Zr10_2 O1_5 1_555 1_555
O19_5 Zr10_2 1_555 1_555
Zr12_2 O11_6 1_555 1_555
O3_7 Zr10_2 1_555 1_555
C5_7 C10_7 1_555 1_555
C8_7 C10_7 1_555 1_555
C9_7 C13_7 1_555 1_555
C9_7 C14_7 1_555 1_555
C12_7 C13_7 1_555 1_555
C12_7 S1_7 1_555 1_555
C19_7 C24_7 1_555 1_555
C22_7 C24_7 1_555 1_555
C23_7 C27_7 1_555 1_555
C23_7 C28_7 1_555 1_555
C26_7 C27_7 1_555 1_555
C26_7 S2_7 1_555 1_555
O19_5 C30_5 1_555 1_555
O24 C29_8 1_555 1_555
O17_8 Zr12 1_555 1_555
O27_4 C29_8 1_555 1_555
C29_8 C32_8 1_555 1_555
C31_8 C33_8 1_555 1_555
C32_8 C35_8 1_555 1_555
C33_8 H13_8 1_555 1_555
C34_8 H14_8 1_555 1_555
C35_8 C34_8 1_555 1_555
H15_8 C35_8 1_555 1_555
C37_8 C31_8 1_555 1_555
C39_8 C32_8 1_555 1_555
H17_8 C39_8 1_555 1_555
C40_8 C39_8 1_555 1_555
C41_8 C34_8 1_555 1_555
C42_8 C36_8 1_555 1_555
H18_8 C42_8 1_555 1_555
S3_8 C31_8 1_555 1_555
O22_8 S3_8 1_555 1_555
C33_8 C38_8 1_555 1_555
C36_8 C38_8 1_555 1_555
C37_8 C41_8 1_555 1_555
C37_8 C42_8 1_555 1_555
C40_8 C41_8 1_555 1_555
C40_8 S3_8 1_555 1_555
Zr12_2 O1_6 1_555 1_555
O24_3 C1_8 1_555 1_555
O3_8 C2_6 1_555 1_555
O27_6 C1_8 1_555 1_555
O5_6 Zr12_2 1_555 1_555
C1_8 C4_8 1_555 1_555
C2_6 O5_6 1_555 1_555
C3_8 C5_8 1_555 1_555
C4_8 C7_8 1_555 1_555
O7_6 S1_8 1_555 1_555
C5_8 H1_8 1_555 1_555
C6_8 H2_8 1_555 1_555
C7_8 C6_8 1_555 1_555
H3_8 C7_8 1_555 1_555
C8_8 H4_6 1_555 1_555
C9_8 C3_8 1_555 1_555
C10_8 C2_6 1_555 1_555
C11_8 C4_8 1_555 1_555
H5_8 C11_8 1_555 1_555
C12_8 C11_8 1_555 1_555
C13_8 C6_8 1_555 1_555
C14_8 C8_8 1_555 1_555
H6_8 C14_8 1_555 1_555
S1_8 C3_8 1_555 1_555
O8_8 S1_8 1_555 1_555
O24_2 C15_8 1_555 1_555
O10_8 Zr12_2 1_555 1_555
O27_5 C15_8 1_555 1_555
O12_6 C16_6 1_555 1_555
C15_8 C18_8 1_555 1_555
C16_6 O10_8 1_555 1_555
C17_8 C19_8 1_555 1_555
C18_8 C21_8 1_555 1_555
O14_6 S2_8 1_555 1_555
C19_8 H7_8 1_555 1_555
C20_8 H8_8 1_555 1_555
C21_8 C20_8 1_555 1_555
H9_8 C21_8 1_555 1_555
C22_8 H10_6 1_555 1_555
C23_8 C17_8 1_555 1_555
C24_8 C16_6 1_555 1_555
C25_8 C18_8 1_555 1_555
H11_8 C25_8 1_555 1_555
C26_8 C25_8 1_555 1_555
C27_8 C20_8 1_555 1_555
C28_8 C22_8 1_555 1_555
H12_8 C28_8 1_555 1_555
S2_8 C17_8 1_555 1_555
O15_8 S2_8 1_555 1_555
Zr12_3 O1_6 1_555 1_555
O19_6 Zr12_3 1_555 1_555
O3_8 Zr12_3 1_555 1_555
C5_8 C10_8 1_555 1_555
C8_8 C10_8 1_555 1_555
C9_8 C13_8 1_555 1_555
C9_8 C14_8 1_555 1_555
C12_8 C13_8 1_555 1_555
C12_8 S1_8 1_555 1_555
C19_8 C24_8 1_555 1_555
C22_8 C24_8 1_555 1_555
C23_8 C27_8 1_555 1_555
C23_8 C28_8 1_555 1_555
C26_8 C27_8 1_555 1_555
C26_8 S2_8 1_555 1_555
O19_6 C30_6 1_555 1_555
C2_7 O5_7 1_555 1_555
O12_7 C16_7 1_555 1_555
O19_7 C30_7 1_555 1_555
C2_8 O5_8 1_555 1_555
O12_8 C16_8 1_555 1_555
O19_8 C30_8 1_555 1_555

#END
