
###############################################################################
#
# This file contains modified crystal structure data generated from the
# MOF subset of the Cambridge Structural Database (CSD) v543 
# hosted by the Cambridge Crystallographic Data Centre (CCDC).
#
# This work is licensed under the Creative Commons
# Attribution-NonCommercial-ShareAlike 4.0 International License.
# To view a copy of this license, visit
# http://creativecommons.org/licenses/by-nc-sa/4.0/
# or send a letter to
# Creative Commons, PO Box 1866, Mountain View, CA 94042, USA.
#
# CIF created using the CSD Python API on 29 September 2022
# The structure has been converted into the P1 space group
# The structure has a 3D framework
# The original CSD entry SOTTUR is in the triclinic crystal system
# The framework has been calculated to contain at least 10.0% void space
# The void calculation uses a probe of radius 1.32A, grid spacing 0.4
# The framework is charged, counterions have been retained in the structure
# H atom positions have been added when not included in the experimental data
# Generated hydrogen atom positions removed from atoms on special positions
#
###############################################################################

data_SOTTUR
_chemical_formula_moiety         '(C12 H40 N4 O16 P4 Sr2)n'
_symmetry_cell_setting           triclinic
_symmetry_space_group_name_H-M   'P 1'
_symmetry_Int_Tables_number      1
_space_group_name_Hall           'P 1'
loop_
_symmetry_equiv_pos_site_id
_symmetry_equiv_pos_as_xyz
1 x,y,z
_cell_length_a                   7.133(3)
_cell_length_b                   10.519(4)
_cell_length_c                   11.519(5)
_cell_angle_alpha                74.034(13)
_cell_angle_beta                 83.174(14)
_cell_angle_gamma                72.585(13)
_cell_volume                     792.236
loop_
_atom_site_label
_atom_site_type_symbol
_atom_site_fract_x
_atom_site_fract_y
_atom_site_fract_z
_atom_site_U_iso_or_equiv
_atom_site_thermal_displace_type
C4 C 0.2069(5) 0.4572(4) 0.0188(3) 0.0197 Uani
H9 H 0.2154 0.5171 0.0675 0.0240 Uiso
H10 H 0.3380 0.3986 0.0080 0.0240 Uiso
C11 C 0.0746(5) 0.3694(3) 0.0834(3) 0.0204 Uani
H25 H 0.1278 0.3145 0.1609 0.0240 Uiso
H26 H 0.0699 0.3072 0.0360 0.0240 Uiso
Sr1 Sr 0.22078(4) 0.59993(3) 0.45904(3) 0.0164 Uani
P2 P 0.17727(12) 0.74174(8) 0.68361(7) 0.0158 Uani
N2 N 0.1290(4) 0.5430(3) 0.8975(2) 0.0159 Uani
H2 H 0.1205 0.4847 0.8541 0.0190 Uiso
C6 C 0.2684(5) 0.6225(4) 0.8297(3) 0.0223 Uani
H13 H 0.3922 0.5579 0.8146 0.0270 Uiso
H14 H 0.2940 0.6752 0.8802 0.0270 Uiso
O4 O 0.0842(5) 0.8802(3) 0.7091(3) 0.0344 Uani
O5 O 0.0375(4) 0.6800(3) 0.6425(2) 0.0213 Uani
O6 O 0.3606(3) 0.7356(2) 0.5994(2) 0.0204 Uani
O7 O 0.2779(4) 0.4358(3) 0.3140(2) 0.0264 Uani
O8 O 0.1410(4) 0.8536(3) 0.3267(3) 0.0361 Uani
O11 O 0.1197(3) 0.3722(2) 0.5920(2) 0.0212 Uani
O14 O 0.5575(3) 0.6026(2) 0.3757(2) 0.0196 Uani
O15 O 0.4425(3) 0.3974(2) 0.6243(2) 0.0196 Uani
C2 C 0.3878(5) 0.0516(3) 0.3931(3) 0.0157 Uani
H5 H 0.2778 0.0559 0.3486 0.0190 Uiso
H6 H 0.4587 0.1138 0.3427 0.0190 Uiso
Sr6 Sr 0.77922(4) 0.40007(3) 0.54096(3) 0.0164 Uani
P3 P 0.28767(12) 0.32201(8) 0.67669(7) 0.0132 Uani
N3 N 0.4780(4) 0.0930(3) 0.5783(2) 0.0141 Uani
H15 H 0.5459 0.1513 0.5325 0.0170 Uiso
C7 C 0.3123(5) 0.0957(3) 0.5078(3) 0.0166 Uani
H17 H 0.2386 0.0347 0.5570 0.0200 Uiso
H18 H 0.2240 0.1882 0.4879 0.0200 Uiso
C9 C 0.4010(5) 0.1364(3) 0.6931(3) 0.0166 Uani
H21 H 0.3044 0.0882 0.7316 0.0200 Uiso
H22 H 0.5089 0.1062 0.7472 0.0200 Uiso
O9 O 0.2223(4) 0.3239(3) 0.8075(2) 0.0246 Uani
P4 P 0.82273(12) 0.25826(8) 0.31639(7) 0.0158 Uani
N4 N 0.8710(4) 0.4570(3) 0.1025(2) 0.0159 Uani
H16 H 0.8795 0.5153 0.1459 0.0190 Uiso
C12 C 0.7316(5) 0.3775(4) 0.1703(3) 0.0223 Uani
H27 H 0.6078 0.4421 0.1854 0.0270 Uiso
H28 H 0.7060 0.3248 0.1198 0.0270 Uiso
O18 O 0.9158(5) 0.1198(3) 0.2909(3) 0.0344 Uani
O19 O 0.9625(4) 0.3200(3) 0.3575(2) 0.0213 Uani
O21 O 0.6394(3) 0.2644(2) 0.4006(2) 0.0204 Uani
P1 P 0.71233(12) 0.67799(8) 0.32331(7) 0.0132 Uani
N1 N 0.5220(4) 0.9070(3) 0.4217(2) 0.0141 Uani
H1 H 0.4541 0.8487 0.4675 0.0170 Uiso
C1 C 0.6877(5) 0.9043(3) 0.4922(3) 0.0166 Uani
H3 H 0.7614 0.9653 0.4430 0.0200 Uiso
H4 H 0.7760 0.8118 0.5121 0.0200 Uiso
C3 C 0.5990(5) 0.8636(3) 0.3069(3) 0.0166 Uani
H7 H 0.6956 0.9118 0.2684 0.0200 Uiso
H8 H 0.4911 0.8938 0.2528 0.0200 Uiso
C5 C 0.9254(5) 0.6306(3) 0.9166(3) 0.0204 Uani
H11 H 0.8722 0.6855 0.8391 0.0240 Uiso
H12 H 0.9301 0.6928 0.9640 0.0240 Uiso
O1 O 0.7777(4) 0.6761(3) 0.1925(2) 0.0246 Uani
O2 O 0.8803(3) 0.6278(2) 0.4080(2) 0.0212 Uani
C8 C 0.6122(5) 0.9484(3) 0.6069(3) 0.0157 Uani
H19 H 0.7222 0.9441 0.6514 0.0190 Uiso
H20 H 0.5413 0.8862 0.6573 0.0190 Uiso
C10 C 0.7931(5) 0.5428(4) 0.9812(3) 0.0197 Uani
H23 H 0.7846 0.4829 0.9325 0.0240 Uiso
H24 H 0.6620 0.6014 0.9920 0.0240 Uiso
O23 O 0.7221(4) 0.5642(3) 0.6860(2) 0.0264 Uani
O24 O 0.8590(4) 0.1464(3) 0.6733(3) 0.0361 Uani
loop_
_atom_site_aniso_label
_atom_site_aniso_U_11
_atom_site_aniso_U_22
_atom_site_aniso_U_33
_atom_site_aniso_U_23
_atom_site_aniso_U_13
_atom_site_aniso_U_12
C4 0.0194 0.0236 0.0133 -0.0001 0.0003 -0.0063
C11 0.021 0.0192 0.016 -0.0024 0.0004 -0.0007
Sr1 0.01199 0.01635 0.02034 -0.00314 0.00015 -0.00476
P2 0.0173 0.0144 0.0152 -0.0024 0.002 -0.0058
N2 0.0159 0.0193 0.0114 -0.0021 0.0024 -0.0059
C6 0.0177 0.0297 0.0195 -0.0022 -0.0005 -0.0105
O4 0.042 0.0197 0.0392 -0.0114 0.0043 -0.004
O5 0.019 0.0268 0.0195 -0.0041 0.0003 -0.0106
O6 0.0182 0.0222 0.0198 -0.0009 0.0066 -0.0108
O7 0.0228 0.0306 0.0273 -0.008 0.0028 -0.0106
O8 0.0327 0.0216 0.0469 -0.0004 -0.0038 -0.0038
O11 0.0137 0.0206 0.03 -0.0085 -0.0053 -0.002
O14 0.0172 0.0165 0.0245 -0.0021 0.0007 -0.0071
O15 0.0172 0.0165 0.0245 -0.0021 0.0007 -0.0071
C2 0.0144 0.0132 0.0194 -0.0062 -0.0023 -0.0013
Sr6 0.01199 0.01635 0.02034 -0.00314 0.00015 -0.00476
P3 0.0126 0.0129 0.0148 -0.0052 0.002 -0.0038
N3 0.0143 0.0118 0.0167 -0.0044 0.0006 -0.0039
C7 0.0185 0.0118 0.0182 -0.0037 -0.0034 -0.0015
C9 0.0233 0.0126 0.0122 -0.0025 0.0015 -0.004
O9 0.0342 0.0221 0.0183 -0.0101 0.0061 -0.007
P4 0.0173 0.0144 0.0152 -0.0024 0.002 -0.0058
N4 0.0159 0.0193 0.0114 -0.0021 0.0024 -0.0059
C12 0.0177 0.0297 0.0195 -0.0022 -0.0005 -0.0105
O18 0.042 0.0197 0.0392 -0.0114 0.0043 -0.004
O19 0.019 0.0268 0.0195 -0.0041 0.0003 -0.0106
O21 0.0182 0.0222 0.0198 -0.0009 0.0066 -0.0108
P1 0.0126 0.0129 0.0148 -0.0052 0.002 -0.0038
N1 0.0143 0.0118 0.0167 -0.0044 0.0006 -0.0039
C1 0.0185 0.0118 0.0182 -0.0037 -0.0034 -0.0015
C3 0.0233 0.0126 0.0122 -0.0025 0.0015 -0.004
C5 0.021 0.0192 0.016 -0.0024 0.0004 -0.0007
O1 0.0342 0.0221 0.0183 -0.0101 0.0061 -0.007
O2 0.0137 0.0206 0.03 -0.0085 -0.0053 -0.002
C8 0.0144 0.0132 0.0194 -0.0062 -0.0023 -0.0013
C10 0.0194 0.0236 0.0133 -0.0001 0.0003 -0.0063
O23 0.0228 0.0306 0.0273 -0.008 0.0028 -0.0106
O24 0.0327 0.0216 0.0469 -0.0004 -0.0038 -0.0038
loop_
_geom_bond_atom_site_label_1
_geom_bond_atom_site_label_2
_geom_bond_site_symmetry_1
_geom_bond_site_symmetry_2
H9 C4 1_555 1_555
H10 C4 1_555 1_555
C11 C4 1_555 1_555
H25 C11 1_555 1_555
H26 C11 1_555 1_555
P2 C6 1_555 1_555
N2 H2 1_555 1_555
C6 N2 1_555 1_555
H13 C6 1_555 1_555
H14 C6 1_555 1_555
O4 P2 1_555 1_555
O5 Sr1 1_555 1_555
O6 Sr1 1_555 1_555
O7 Sr1 1_555 1_555
O8 Sr1 1_555 1_555
O11 Sr1 1_555 1_555
O14 Sr1 1_555 1_555
O15 Sr1 1_555 1_555
P2 O5 1_555 1_555
P2 O6 1_555 1_555
H5 C2 1_555 1_555
H6 C2 1_555 1_555
Sr6 O15 1_555 1_555
P3 C9 1_555 1_555
N3 H15 1_555 1_555
C7 C2 1_555 1_555
H17 C7 1_555 1_555
H18 C7 1_555 1_555
C9 N3 1_555 1_555
H21 C9 1_555 1_555
H22 C9 1_555 1_555
O9 P3 1_555 1_555
O11 P3 1_555 1_555
P3 O15 1_555 1_555
N3 C7 1_555 1_555
Sr6 O19 1_555 1_555
P4 C12 1_555 1_555
N4 H16 1_555 1_555
C12 N4 1_555 1_555
H27 C12 1_555 1_555
H28 C12 1_555 1_555
O18 P4 1_555 1_555
O19 P4 1_555 1_555
O21 Sr6 1_555 1_555
P4 O21 1_555 1_555
P1 C3 1_555 1_555
N1 H1 1_555 1_555
C1 N1 1_555 1_555
H3 C1 1_555 1_555
H4 C1 1_555 1_555
C3 N1 1_555 1_555
H7 C3 1_555 1_555
H8 C3 1_555 1_555
H11 C5 1_555 1_555
H12 C5 1_555 1_555
O1 P1 1_555 1_555
O2 P1 1_555 1_555
O14 P1 1_555 1_555
Sr6 O2 1_555 1_555
C8 C1 1_555 1_555
H19 C8 1_555 1_555
H20 C8 1_555 1_555
C10 C5 1_555 1_555
H23 C10 1_555 1_555
H24 C10 1_555 1_555
O14 Sr6 1_555 1_555
O23 Sr6 1_555 1_555
O24 Sr6 1_555 1_555

#END
