
###############################################################################
#
# This file contains modified crystal structure data generated from the
# MOF subset of the Cambridge Structural Database (CSD) v543 
# hosted by the Cambridge Crystallographic Data Centre (CCDC).
#
# This work is licensed under the Creative Commons
# Attribution-NonCommercial-ShareAlike 4.0 International License.
# To view a copy of this license, visit
# http://creativecommons.org/licenses/by-nc-sa/4.0/
# or send a letter to
# Creative Commons, PO Box 1866, Mountain View, CA 94042, USA.
#
# CIF created using the CSD Python API on 29 September 2022
# The structure has been converted into the P1 space group
# The structure has a 3D framework
# The original CSD entry SOTWOP is in the monoclinic crystal system
# The framework has been calculated to contain at least 10.0% void space
# The void calculation uses a probe of radius 1.32A, grid spacing 0.4
#
###############################################################################

data_SOTWOP
_chemical_formula_moiety         '(C120 H136 Eu8 N24 O72)n'
_symmetry_cell_setting           triclinic
_symmetry_space_group_name_H-M   'P 1'
_symmetry_Int_Tables_number      1
_space_group_name_Hall           'P 1'
loop_
_symmetry_equiv_pos_site_id
_symmetry_equiv_pos_as_xyz
1 x,y,z
_cell_length_a                   22.348(5)
_cell_length_b                   13.357(3)
_cell_length_c                   15.002(3)
_cell_angle_alpha                90
_cell_angle_beta                 97.35(3)
_cell_angle_gamma                90
_cell_volume                     4441.33
loop_
_atom_site_label
_atom_site_type_symbol
_atom_site_fract_x
_atom_site_fract_y
_atom_site_fract_z
Eu1 Eu 0.330597(12) 0.32038(2) 0.527188(17)
O1 O 0.2136(2) 0.3310(3) 0.4346(3)
O2 O 0.2866(2) 0.4322(4) 0.4086(3)
O3 O 0.2593(2) 0.6237(4) 0.1214(3)
O4 O 0.1761(2) 0.7175(4) 0.1032(3)
C1 C 0.0919(3) 0.5099(5) 0.2581(4)
C2 C 0.1287(3) 0.4519(5) 0.3199(4)
H1 H 0.1116 0.4088 0.3583
C3 C 0.1914(3) 0.4588(4) 0.3240(4)
C4 C 0.2164(3) 0.5203(5) 0.2635(4)
H2 H 0.2581 0.5228 0.2645
C5 C 0.1797(3) 0.5779(5) 0.2018(4)
C6 C 0.1174(3) 0.5750(5) 0.2006(4)
H3 H 0.0928 0.6163 0.1617
C7 C 0.0271(3) 0.5063(5) 0.2528(4)
C8 C 0.2336(3) 0.4039(5) 0.3936(4)
C9 C 0.2078(3) 0.6452(5) 0.1376(4)
O5 O 0.3615(4) 0.4861(7) 0.5761(6)
N1 N 0.3308(5) 0.6413(9) 0.6354(7)
C10 C 0.3238(7) 0.5547(11) 0.5865(9)
H4 H 0.2853 0.5445 0.5562
C11 C 0.2862(6) 0.7171(11) 0.6451(9)
H5 H 0.3019 0.7634 0.6912
H6 H 0.2504 0.6862 0.6614
H7 H 0.2767 0.7522 0.5893
C12 C 0.3911(6) 0.6398(11) 0.6794(9)
H8 H 0.3980 0.6976 0.7173
H9 H 0.4187 0.6404 0.6353
H10 H 0.3974 0.5803 0.7153
O6 O 0.3822(4) 0.3028(5) 0.6762(5)
N2 N 0.4105(5) 0.3357(6) 0.8247(6)
C13 C 0.3789(6) 0.3442(9) 0.7485(8)
H11 H 0.3475 0.3901 0.7472
C14 C 0.4509(5) 0.2497(8) 0.8327(7)
H12 H 0.4683 0.2421 0.8942
H13 H 0.4824 0.2599 0.7957
H14 H 0.4285 0.1905 0.8134
C15 C 0.3995(5) 0.3846(9) 0.9038(7)
H15 H 0.4273 0.3609 0.9533
H16 H 0.3590 0.3710 0.9151
H17 H 0.4046 0.4555 0.8970
N3 N 0.4482(3) 0.2769(6) 0.4699(5)
O7 O 0.4214(3) 0.3599(5) 0.4534(5)
O8 O 0.4264(3) 0.2205(5) 0.5232(4)
O9 O 0.4906(3) 0.2503(7) 0.4320(5)
Eu6 Eu 0.330597(12) 0.67962(2) 0.027188(17)
Eu7 Eu 0.169403(12) 0.17962(2) 0.472812(17)
O19 O 0.2864(2) 0.1690(3) 0.5654(3)
O22 O 0.2593(2) 0.3763(4) 0.6214(3)
O24 O 0.3239(2) 0.2175(4) 0.3968(3)
Eu4 Eu 0.169403(12) 0.82038(2) 0.972812(17)
O10 O 0.7864(2) 0.3310(3) 0.0654(3)
O11 O 0.7134(2) 0.4322(4) 0.0914(3)
O12 O 0.7407(2) 0.6237(4) 0.3786(3)
O13 O 0.8239(2) 0.7175(4) 0.3968(3)
C16 C 0.9081(3) 0.5099(5) 0.2419(4)
C17 C 0.8713(3) 0.4519(5) 0.1801(4)
H18 H 0.8884 0.4088 0.1417
C18 C 0.8086(3) 0.4588(4) 0.1760(4)
C19 C 0.7836(3) 0.5203(5) 0.2365(4)
H19 H 0.7419 0.5228 0.2355
C20 C 0.8203(3) 0.5779(5) 0.2982(4)
C21 C 0.8826(3) 0.5750(5) 0.2994(4)
H20 H 0.9072 0.6163 0.3383
C22 C 0.9729(3) 0.5063(5) 0.2472(4)
C23 C 0.7664(3) 0.4039(5) 0.1064(4)
C24 C 0.7922(3) 0.6452(5) 0.3624(4)
N6 N 0.5518(3) 0.2769(6) 0.0301(5)
O16 O 0.5786(3) 0.3599(5) 0.0466(5)
O18 O 0.5094(3) 0.2503(7) 0.0680(5)
Eu3 Eu 0.830597(12) 0.82038(2) 0.527188(17)
Eu5 Eu 0.669403(12) 0.67962(2) 0.472812(17)
Eu8 Eu 0.830597(12) 0.17962(2) 0.027188(17)
O23 O 0.6761(2) 0.2175(4) 0.1032(3)
Eu2 Eu 0.669403(12) 0.32038(2) 0.972812(17)
O14 O 0.6385(4) 0.4861(7) 0.9239(6)
N4 N 0.6692(5) 0.6413(9) 0.8646(7)
C25 C 0.6762(7) 0.5547(11) 0.9135(9)
H21 H 0.7147 0.5445 0.9438
C26 C 0.7138(6) 0.7171(11) 0.8549(9)
H22 H 0.6981 0.7634 0.8088
H23 H 0.7496 0.6862 0.8386
H24 H 0.7233 0.7522 0.9107
C27 C 0.6089(6) 0.6398(11) 0.8206(9)
H25 H 0.6020 0.6976 0.7827
H26 H 0.5813 0.6404 0.8647
H27 H 0.6026 0.5803 0.7847
O15 O 0.6178(4) 0.3028(5) 0.8238(5)
N5 N 0.5895(5) 0.3357(6) 0.6753(6)
C28 C 0.6211(6) 0.3442(9) 0.7515(8)
H28 H 0.6525 0.3901 0.7528
C29 C 0.5491(5) 0.2497(8) 0.6673(7)
H29 H 0.5317 0.2421 0.6058
H30 H 0.5176 0.2599 0.7043
H31 H 0.5715 0.1905 0.6866
C30 C 0.6005(5) 0.3846(9) 0.5962(7)
H32 H 0.5727 0.3609 0.5467
H33 H 0.6410 0.3710 0.5849
H34 H 0.5954 0.4555 0.6030
O17 O 0.5736(3) 0.2205(5) 0.9768(4)
O20 O 0.7136(2) 0.1690(3) 0.9346(3)
O21 O 0.7407(2) 0.3763(4) 0.8786(3)
O3_2 O 0.7593(2) 0.1237(4) 0.1214(3)
C1_2 C 0.5919(3) 0.0099(5) 0.2581(4)
C4_2 C 0.7164(3) 0.0203(5) 0.2635(4)
H2_2 H 0.7581 0.0228 0.2645
C5_2 C 0.6797(3) 0.0779(5) 0.2018(4)
C6_2 C 0.6174(3) 0.0750(5) 0.2006(4)
H3_2 H 0.5928 0.1163 0.1617
C7_2 C 0.5271(3) 0.0063(5) 0.2528(4)
C9_2 C 0.7078(3) 0.1452(5) 0.1376(4)
N1_2 N 0.8308(5) 0.1413(9) 0.6354(7)
C10_2 C 0.8238(7) 0.0547(11) 0.5865(9)
H4_2 H 0.7853 0.0445 0.5562
C11_2 C 0.7862(6) 0.2171(11) 0.6451(9)
H5_2 H 0.8019 0.2634 0.6912
H6_2 H 0.7504 0.1862 0.6614
H7_2 H 0.7767 0.2522 0.5893
C12_2 C 0.8911(6) 0.1398(11) 0.6794(9)
H8_2 H 0.8980 0.1976 0.7173
H9_2 H 0.9187 0.1404 0.6353
H10_2 H 0.8974 0.0803 0.7153
O12_2 O 0.2407(2) 0.1237(4) 0.3786(3)
C16_2 C 0.4081(3) 0.0099(5) 0.2419(4)
C19_2 C 0.2836(3) 0.0203(5) 0.2365(4)
H19_2 H 0.2419 0.0228 0.2355
C20_2 C 0.3203(3) 0.0779(5) 0.2982(4)
C21_2 C 0.3826(3) 0.0750(5) 0.2994(4)
H20_2 H 0.4072 0.1163 0.3383
C22_2 C 0.4729(3) 0.0063(5) 0.2472(4)
C24_2 C 0.2922(3) 0.1452(5) 0.3624(4)
N4_2 N 0.1692(5) 0.1413(9) 0.8646(7)
C25_2 C 0.1762(7) 0.0547(11) 0.9135(9)
H21_2 H 0.2147 0.0445 0.9438
C26_2 C 0.2138(6) 0.2171(11) 0.8549(9)
H22_2 H 0.1981 0.2634 0.8088
H23_2 H 0.2496 0.1862 0.8386
H24_2 H 0.2233 0.2522 0.9107
C27_2 C 0.1089(6) 0.1398(11) 0.8206(9)
H25_2 H 0.1020 0.1976 0.7827
H26_2 H 0.0813 0.1404 0.8647
H27_2 H 0.1026 0.0803 0.7847
O1_2 O 0.7136(2) 0.8310(3) 0.4346(3)
O2_2 O 0.7866(2) 0.9322(4) 0.4086(3)
C2_2 C 0.6287(3) 0.9519(5) 0.3199(4)
H1_2 H 0.6116 0.9088 0.3583
C3_2 C 0.6914(3) 0.9588(4) 0.3240(4)
C8_2 C 0.7336(3) 0.9039(5) 0.3936(4)
O5_2 O 0.8615(4) 0.9861(7) 0.5761(6)
O6_2 O 0.8822(4) 0.8028(5) 0.6762(5)
N2_2 N 0.9105(5) 0.8357(6) 0.8247(6)
C13_2 C 0.8789(6) 0.8442(9) 0.7485(8)
H11_2 H 0.8475 0.8901 0.7472
C14_2 C 0.9509(5) 0.7497(8) 0.8327(7)
H12_2 H 0.9683 0.7421 0.8942
H13_2 H 0.9824 0.7599 0.7957
H14_2 H 0.9285 0.6905 0.8134
C15_2 C 0.8995(5) 0.8846(9) 0.9038(7)
H15_2 H 0.9273 0.8609 0.9533
H16_2 H 0.8590 0.8710 0.9151
H17_2 H 0.9046 0.9555 0.8970
N3_2 N 0.9482(3) 0.7769(6) 0.4699(5)
O7_2 O 0.9214(3) 0.8599(5) 0.4534(5)
O8_2 O 0.9264(3) 0.7205(5) 0.5232(4)
O9_2 O 0.9906(3) 0.7503(7) 0.4320(5)
O10_2 O 0.2864(2) 0.8310(3) 0.0654(3)
O11_2 O 0.2134(2) 0.9322(4) 0.0914(3)
C17_2 C 0.3713(3) 0.9519(5) 0.1801(4)
H18_2 H 0.3884 0.9088 0.1417
C18_2 C 0.3086(3) 0.9588(4) 0.1760(4)
C23_2 C 0.2664(3) 0.9039(5) 0.1064(4)
N6_2 N 0.0518(3) 0.7769(6) 0.0301(5)
O16_2 O 0.0786(3) 0.8599(5) 0.0466(5)
O18_2 O 0.0094(3) 0.7503(7) 0.0680(5)
O19_2 O 0.7864(2) 0.6690(3) 0.5654(3)
O22_2 O 0.7593(2) 0.8763(4) 0.6214(3)
O14_2 O 0.1385(4) 0.9861(7) 0.9239(6)
O15_2 O 0.1178(4) 0.8028(5) 0.8238(5)
N5_2 N 0.0895(5) 0.8357(6) 0.6753(6)
C28_2 C 0.1211(6) 0.8442(9) 0.7515(8)
H28_2 H 0.1525 0.8901 0.7528
C29_2 C 0.0491(5) 0.7497(8) 0.6673(7)
H29_2 H 0.0317 0.7421 0.6058
H30_2 H 0.0176 0.7599 0.7043
H31_2 H 0.0715 0.6905 0.6866
C30_2 C 0.1005(5) 0.8846(9) 0.5962(7)
H32_2 H 0.0727 0.8609 0.5467
H33_2 H 0.1410 0.8710 0.5849
H34_2 H 0.0954 0.9555 0.6030
O17_2 O 0.0736(3) 0.7205(5) 0.9768(4)
O20_2 O 0.2136(2) 0.6690(3) 0.9346(3)
O21_2 O 0.2407(2) 0.8763(4) 0.8786(3)
O14_3 O 0.3615(4) 0.5139(7) 0.0761(6)
N4_3 N 0.3308(5) 0.3587(9) 0.1354(7)
C25_3 C 0.3238(7) 0.4453(11) 0.0865(9)
H21_3 H 0.2853 0.4555 0.0562
C26_3 C 0.2862(6) 0.2829(11) 0.1451(9)
H22_3 H 0.3019 0.2366 0.1912
H23_3 H 0.2504 0.3138 0.1614
H24_3 H 0.2767 0.2478 0.0893
C27_3 C 0.3911(6) 0.3602(11) 0.1794(9)
H25_3 H 0.3980 0.3024 0.2173
H26_3 H 0.4187 0.3596 0.1353
H27_3 H 0.3974 0.4197 0.2153
O15_3 O 0.3822(4) 0.6972(5) 0.1762(5)
N5_3 N 0.4105(5) 0.6643(6) 0.3247(6)
C28_3 C 0.3789(6) 0.6558(9) 0.2485(8)
H28_3 H 0.3475 0.6099 0.2472
C29_3 C 0.4509(5) 0.7503(8) 0.3327(7)
H29_3 H 0.4683 0.7579 0.3942
H30_3 H 0.4824 0.7401 0.2957
H31_3 H 0.4285 0.8095 0.3134
C30_3 C 0.3995(5) 0.6154(9) 0.4038(7)
H32_3 H 0.4273 0.6391 0.4533
H33_3 H 0.3590 0.6290 0.4151
H34_3 H 0.4046 0.5445 0.3970
O17_3 O 0.4264(3) 0.7795(5) 0.0232(4)
O11_3 O 0.2866(2) 0.5678(4) 0.9086(3)
O13_2 O 0.1761(2) 0.2825(4) 0.6032(3)
C16_3 C 0.0919(3) 0.4901(5) 0.7581(4)
C17_3 C 0.1287(3) 0.5481(5) 0.8199(4)
H18_3 H 0.1116 0.5912 0.8583
C18_3 C 0.1914(3) 0.5412(4) 0.8240(4)
C19_3 C 0.2164(3) 0.4797(5) 0.7635(4)
H19_3 H 0.2581 0.4772 0.7645
C20_3 C 0.1797(3) 0.4221(5) 0.7018(4)
C21_3 C 0.1174(3) 0.4250(5) 0.7006(4)
H20_3 H 0.0928 0.3837 0.6617
C22_3 C 0.0271(3) 0.4937(5) 0.7528(4)
C23_3 C 0.2336(3) 0.5961(5) 0.8936(4)
C24_3 C 0.2078(3) 0.3548(5) 0.6376(4)
N6_3 N 0.4482(3) 0.7231(6) 0.9699(5)
O16_3 O 0.4214(3) 0.6401(5) 0.9534(5)
O18_3 O 0.4906(3) 0.7497(7) 0.9320(5)
O23_2 O 0.3239(2) 0.7825(4) 0.8968(3)
O2_3 O 0.7134(2) 0.5678(4) 0.5914(3)
O4_2 O 0.8239(2) 0.2825(4) 0.8968(3)
C1_3 C 0.9081(3) 0.4901(5) 0.7419(4)
C2_3 C 0.8713(3) 0.5481(5) 0.6801(4)
H1_3 H 0.8884 0.5912 0.6417
C3_3 C 0.8086(3) 0.5412(4) 0.6760(4)
C4_3 C 0.7836(3) 0.4797(5) 0.7365(4)
H2_3 H 0.7419 0.4772 0.7355
C5_3 C 0.8203(3) 0.4221(5) 0.7982(4)
C6_3 C 0.8826(3) 0.4250(5) 0.7994(4)
H3_3 H 0.9072 0.3837 0.8383
C7_3 C 0.9729(3) 0.4937(5) 0.7472(4)
C8_3 C 0.7664(3) 0.5961(5) 0.6064(4)
C9_3 C 0.7922(3) 0.3548(5) 0.8624(4)
O5_3 O 0.6385(4) 0.5139(7) 0.4239(6)
N1_3 N 0.6692(5) 0.3587(9) 0.3646(7)
C10_3 C 0.6762(7) 0.4453(11) 0.4135(9)
H4_3 H 0.7147 0.4555 0.4438
C11_3 C 0.7138(6) 0.2829(11) 0.3549(9)
H5_3 H 0.6981 0.2366 0.3088
H6_3 H 0.7496 0.3138 0.3386
H7_3 H 0.7233 0.2478 0.4107
C12_3 C 0.6089(6) 0.3602(11) 0.3206(9)
H8_3 H 0.6020 0.3024 0.2827
H9_3 H 0.5813 0.3596 0.3647
H10_3 H 0.6026 0.4197 0.2847
O6_3 O 0.6178(4) 0.6972(5) 0.3238(5)
N2_3 N 0.5895(5) 0.6643(6) 0.1753(6)
C13_3 C 0.6211(6) 0.6558(9) 0.2515(8)
H11_3 H 0.6525 0.6099 0.2528
C14_3 C 0.5491(5) 0.7503(8) 0.1673(7)
H12_3 H 0.5317 0.7579 0.1058
H13_3 H 0.5176 0.7401 0.2043
H14_3 H 0.5715 0.8095 0.1866
C15_3 C 0.6005(5) 0.6154(9) 0.0962(7)
H15_3 H 0.5727 0.6391 0.0467
H16_3 H 0.6410 0.6290 0.0849
H17_3 H 0.5954 0.5445 0.1030
N3_3 N 0.5518(3) 0.7231(6) 0.5301(5)
O7_3 O 0.5786(3) 0.6401(5) 0.5466(5)
O8_3 O 0.5736(3) 0.7795(5) 0.4768(4)
O9_3 O 0.5094(3) 0.7497(7) 0.5680(5)
O24_2 O 0.6761(2) 0.7825(4) 0.6032(3)
O14_4 O 0.8615(4) 0.0139(7) 0.0761(6)
O15_4 O 0.8822(4) 0.1972(5) 0.1762(5)
N5_4 N 0.9105(5) 0.1643(6) 0.3247(6)
C28_4 C 0.8789(6) 0.1558(9) 0.2485(8)
H28_4 H 0.8475 0.1099 0.2472
C29_4 C 0.9509(5) 0.2503(8) 0.3327(7)
H29_4 H 0.9683 0.2579 0.3942
H30_4 H 0.9824 0.2401 0.2957
H31_4 H 0.9285 0.3095 0.3134
C30_4 C 0.8995(5) 0.1154(9) 0.4038(7)
H32_4 H 0.9273 0.1391 0.4533
H33_4 H 0.8590 0.1290 0.4151
H34_4 H 0.9046 0.0445 0.3970
O17_4 O 0.9264(3) 0.2795(5) 0.0232(4)
O2_4 O 0.2134(2) 0.0678(4) 0.5914(3)
C2_4 C 0.3713(3) 0.0481(5) 0.6801(4)
H1_4 H 0.3884 0.0912 0.6417
C3_4 C 0.3086(3) 0.0412(4) 0.6760(4)
C8_4 C 0.2664(3) 0.0961(5) 0.6064(4)
O5_4 O 0.1385(4) 0.0139(7) 0.4239(6)
O6_4 O 0.1178(4) 0.1972(5) 0.3238(5)
N2_4 N 0.0895(5) 0.1643(6) 0.1753(6)
C13_4 C 0.1211(6) 0.1558(9) 0.2515(8)
H11_4 H 0.1525 0.1099 0.2528
C14_4 C 0.0491(5) 0.2503(8) 0.1673(7)
H12_4 H 0.0317 0.2579 0.1058
H13_4 H 0.0176 0.2401 0.2043
H14_4 H 0.0715 0.3095 0.1866
C15_4 C 0.1005(5) 0.1154(9) 0.0962(7)
H15_4 H 0.0727 0.1391 0.0467
H16_4 H 0.1410 0.1290 0.0849
H17_4 H 0.0954 0.0445 0.1030
N3_4 N 0.0518(3) 0.2231(6) 0.5301(5)
O7_4 O 0.0786(3) 0.1401(5) 0.5466(5)
O8_4 O 0.0736(3) 0.2795(5) 0.4768(4)
O9_4 O 0.0094(3) 0.2497(7) 0.5680(5)
O11_4 O 0.7866(2) 0.0678(4) 0.9086(3)
C17_4 C 0.6287(3) 0.0481(5) 0.8199(4)
H18_4 H 0.6116 0.0912 0.8583
C18_4 C 0.6914(3) 0.0412(4) 0.8240(4)
C23_4 C 0.7336(3) 0.0961(5) 0.8936(4)
N6_4 N 0.9482(3) 0.2231(6) 0.9699(5)
O16_4 O 0.9214(3) 0.1401(5) 0.9534(5)
O18_4 O 0.9906(3) 0.2497(7) 0.9320(5)
N4_4 N 0.8308(5) 0.8587(9) 0.1354(7)
C25_4 C 0.8238(7) 0.9453(11) 0.0865(9)
H21_4 H 0.7853 0.9555 0.0562
C26_4 C 0.7862(6) 0.7829(11) 0.1451(9)
H22_4 H 0.8019 0.7366 0.1912
H23_4 H 0.7504 0.8138 0.1614
H24_4 H 0.7767 0.7478 0.0893
C27_4 C 0.8911(6) 0.8602(11) 0.1794(9)
H25_4 H 0.8980 0.8024 0.2173
H26_4 H 0.9187 0.8596 0.1353
H27_4 H 0.8974 0.9197 0.2153
C1_4 C 0.4081(3) 0.9901(5) 0.7419(4)
C4_4 C 0.2836(3) 0.9797(5) 0.7365(4)
H2_4 H 0.2419 0.9772 0.7355
C5_4 C 0.3203(3) 0.9221(5) 0.7982(4)
C6_4 C 0.3826(3) 0.9250(5) 0.7994(4)
H3_4 H 0.4072 0.8837 0.8383
C7_4 C 0.4729(3) 0.9937(5) 0.7472(4)
C9_4 C 0.2922(3) 0.8548(5) 0.8624(4)
N1_4 N 0.1692(5) 0.8587(9) 0.3646(7)
C10_4 C 0.1762(7) 0.9453(11) 0.4135(9)
H4_4 H 0.2147 0.9555 0.4438
C11_4 C 0.2138(6) 0.7829(11) 0.3549(9)
H5_4 H 0.1981 0.7366 0.3088
H6_4 H 0.2496 0.8138 0.3386
H7_4 H 0.2233 0.7478 0.4107
C12_4 C 0.1089(6) 0.8602(11) 0.3206(9)
H8_4 H 0.1020 0.8024 0.2827
H9_4 H 0.0813 0.8596 0.3647
H10_4 H 0.1026 0.9197 0.2847
C16_4 C 0.5919(3) 0.9901(5) 0.7581(4)
C19_4 C 0.7164(3) 0.9797(5) 0.7635(4)
H19_4 H 0.7581 0.9772 0.7645
C20_4 C 0.6797(3) 0.9221(5) 0.7018(4)
C21_4 C 0.6174(3) 0.9250(5) 0.7006(4)
H20_4 H 0.5928 0.8837 0.6617
C22_4 C 0.5271(3) 0.9937(5) 0.7528(4)
C24_4 C 0.7078(3) 0.8548(5) 0.6376(4)
loop_
_geom_bond_atom_site_label_1
_geom_bond_atom_site_label_2
_geom_bond_site_symmetry_1
_geom_bond_site_symmetry_2
Eu1 O1 1_555 1_555
O1 C8 1_555 1_555
O2 Eu1 1_555 1_555
O3 C9 1_555 1_555
O4 C9 1_555 1_555
C1 C2 1_555 1_555
C2 H1 1_555 1_555
C3 C2 1_555 1_555
C4 C3 1_555 1_555
H2 C4 1_555 1_555
C5 C4 1_555 1_555
C6 C1 1_555 1_555
H3 C6 1_555 1_555
C7 C1 1_555 1_555
C8 O2 1_555 1_555
C9 C5 1_555 1_555
O5 Eu1 1_555 1_555
N1 C10 1_555 1_555
C10 O5 1_555 1_555
H4 C10 1_555 1_555
C11 N1 1_555 1_555
H5 C11 1_555 1_555
H6 C11 1_555 1_555
H7 C11 1_555 1_555
C12 N1 1_555 1_555
H8 C12 1_555 1_555
H9 C12 1_555 1_555
H10 C12 1_555 1_555
O6 Eu1 1_555 1_555
N2 C13 1_555 1_555
C13 O6 1_555 1_555
H11 C13 1_555 1_555
C14 N2 1_555 1_555
H12 C14 1_555 1_555
H13 C14 1_555 1_555
H14 C14 1_555 1_555
C15 N2 1_555 1_555
H15 C15 1_555 1_555
H16 C15 1_555 1_555
H17 C15 1_555 1_555
N3 O7 1_555 1_555
O7 Eu1 1_555 1_555
O8 Eu1 1_555 1_555
O9 N3 1_555 1_555
Eu6 O3 1_555 1_555
Eu7 O1 1_555 1_555
O19 Eu1 1_555 1_555
O22 Eu1 1_555 1_555
O24 Eu1 1_555 1_555
C3 C8 1_555 1_555
C5 C6 1_555 1_555
N3 O8 1_555 1_555
Eu7 O19 1_555 1_555
O10 C23 1_555 1_555
O11 C23 1_555 1_555
O12 C24 1_555 1_555
O13 C24 1_555 1_555
C16 C17 1_555 1_555
C17 H18 1_555 1_555
C18 C17 1_555 1_555
C19 C18 1_555 1_555
H19 C19 1_555 1_555
C20 C19 1_555 1_555
C21 C16 1_555 1_555
H20 C21 1_555 1_555
C23 C18 1_555 1_555
C24 C20 1_555 1_555
N6 O16 1_555 1_555
O18 N6 1_555 1_555
Eu3 O13 1_555 1_555
Eu5 O12 1_555 1_555
Eu8 O10 1_555 1_555
C16 C22 1_555 1_555
C20 C21 1_555 1_555
O14 Eu2 1_555 1_555
N4 C25 1_555 1_555
C25 O14 1_555 1_555
H21 C25 1_555 1_555
C26 N4 1_555 1_555
H22 C26 1_555 1_555
H23 C26 1_555 1_555
H24 C26 1_555 1_555
C27 N4 1_555 1_555
H25 C27 1_555 1_555
H26 C27 1_555 1_555
H27 C27 1_555 1_555
O15 Eu2 1_555 1_555
N5 C28 1_555 1_555
C28 O15 1_555 1_555
H28 C28 1_555 1_555
C29 N5 1_555 1_555
H29 C29 1_555 1_555
H30 C29 1_555 1_555
H31 C29 1_555 1_555
C30 N5 1_555 1_555
H32 C30 1_555 1_555
H33 C30 1_555 1_555
H34 C30 1_555 1_555
O17 Eu2 1_555 1_555
O20 Eu2 1_555 1_555
O21 Eu2 1_555 1_555
O3_2 C9_2 1_555 1_555
O23 C9_2 1_555 1_555
H2_2 C4_2 1_555 1_555
C5_2 C4_2 1_555 1_555
C6_2 C1_2 1_555 1_555
H3_2 C6_2 1_555 1_555
C7_2 C1_2 1_555 1_555
C9_2 C5_2 1_555 1_555
N1_2 C10_2 1_555 1_555
H4_2 C10_2 1_555 1_555
C11_2 N1_2 1_555 1_555
H5_2 C11_2 1_555 1_555
H6_2 C11_2 1_555 1_555
H7_2 C11_2 1_555 1_555
C12_2 N1_2 1_555 1_555
H8_2 C12_2 1_555 1_555
H9_2 C12_2 1_555 1_555
H10_2 C12_2 1_555 1_555
O12_2 C24_2 1_555 1_555
O24 C24_2 1_555 1_555
H19_2 C19_2 1_555 1_555
C20_2 C19_2 1_555 1_555
C21_2 C16_2 1_555 1_555
H20_2 C21_2 1_555 1_555
C22_2 C7_2 1_555 1_555
C24_2 C20_2 1_555 1_555
Eu7 O12_2 1_555 1_555
Eu8 O3_2 1_555 1_555
C5_2 C6_2 1_555 1_555
C16_2 C22_2 1_555 1_555
C20_2 C21_2 1_555 1_555
N4_2 C25_2 1_555 1_555
H21_2 C25_2 1_555 1_555
C26_2 N4_2 1_555 1_555
H22_2 C26_2 1_555 1_555
H23_2 C26_2 1_555 1_555
H24_2 C26_2 1_555 1_555
C27_2 N4_2 1_555 1_555
H25_2 C27_2 1_555 1_555
H26_2 C27_2 1_555 1_555
H27_2 C27_2 1_555 1_555
Eu3 O1_2 1_555 1_555
O1_2 C8_2 1_555 1_555
O2_2 Eu3 1_555 1_555
C2_2 H1_2 1_555 1_555
C3_2 C2_2 1_555 1_555
C8_2 O2_2 1_555 1_555
O5_2 Eu3 1_555 1_555
O6_2 Eu3 1_555 1_555
N2_2 C13_2 1_555 1_555
C13_2 O6_2 1_555 1_555
H11_2 C13_2 1_555 1_555
C14_2 N2_2 1_555 1_555
H12_2 C14_2 1_555 1_555
H13_2 C14_2 1_555 1_555
H14_2 C14_2 1_555 1_555
C15_2 N2_2 1_555 1_555
H15_2 C15_2 1_555 1_555
H16_2 C15_2 1_555 1_555
H17_2 C15_2 1_555 1_555
N3_2 O7_2 1_555 1_555
O7_2 Eu3 1_555 1_555
O8_2 Eu3 1_555 1_555
O9_2 N3_2 1_555 1_555
O10_2 C23_2 1_555 1_555
O11_2 C23_2 1_555 1_555
C17_2 H18_2 1_555 1_555
C18_2 C17_2 1_555 1_555
C23_2 C18_2 1_555 1_555
N6_2 O16_2 1_555 1_555
O18_2 N6_2 1_555 1_555
Eu5 O1_2 1_555 1_555
Eu6 O10_2 1_555 1_555
O19_2 Eu3 1_555 1_555
O22_2 Eu3 1_555 1_555
C3_2 C8_2 1_555 1_555
N3_2 O8_2 1_555 1_555
Eu5 O19_2 1_555 1_555
O14_2 Eu4 1_555 1_555
O15_2 Eu4 1_555 1_555
N5_2 C28_2 1_555 1_555
C28_2 O15_2 1_555 1_555
H28_2 C28_2 1_555 1_555
C29_2 N5_2 1_555 1_555
H29_2 C29_2 1_555 1_555
H30_2 C29_2 1_555 1_555
H31_2 C29_2 1_555 1_555
C30_2 N5_2 1_555 1_555
H32_2 C30_2 1_555 1_555
H33_2 C30_2 1_555 1_555
H34_2 C30_2 1_555 1_555
O17_2 Eu4 1_555 1_555
O20_2 Eu4 1_555 1_555
O21_2 Eu4 1_555 1_555
O14_3 Eu6 1_555 1_555
N4_3 C25_3 1_555 1_555
C25_3 O14_3 1_555 1_555
H21_3 C25_3 1_555 1_555
C26_3 N4_3 1_555 1_555
H22_3 C26_3 1_555 1_555
H23_3 C26_3 1_555 1_555
H24_3 C26_3 1_555 1_555
C27_3 N4_3 1_555 1_555
H25_3 C27_3 1_555 1_555
H26_3 C27_3 1_555 1_555
H27_3 C27_3 1_555 1_555
O15_3 Eu6 1_555 1_555
N5_3 C28_3 1_555 1_555
C28_3 O15_3 1_555 1_555
H28_3 C28_3 1_555 1_555
C29_3 N5_3 1_555 1_555
H29_3 C29_3 1_555 1_555
H30_3 C29_3 1_555 1_555
H31_3 C29_3 1_555 1_555
C30_3 N5_3 1_555 1_555
H32_3 C30_3 1_555 1_555
H33_3 C30_3 1_555 1_555
H34_3 C30_3 1_555 1_555
O17_3 Eu6 1_555 1_555
O20_2 C23_3 1_555 1_555
O11_3 C23_3 1_555 1_555
O22 C24_3 1_555 1_555
O13_2 C24_3 1_555 1_555
C16_3 C17_3 1_555 1_555
C17_3 H18_3 1_555 1_555
C18_3 C17_3 1_555 1_555
C19_3 C18_3 1_555 1_555
H19_3 C19_3 1_555 1_555
C20_3 C19_3 1_555 1_555
C21_3 C16_3 1_555 1_555
H20_3 C21_3 1_555 1_555
C23_3 C18_3 1_555 1_555
C24_3 C20_3 1_555 1_555
N6_3 O16_3 1_555 1_555
O18_3 N6_3 1_555 1_555
Eu7 O13_2 1_555 1_555
C16_3 C22_3 1_555 1_555
C20_3 C21_3 1_555 1_555
O19_2 C8_3 1_555 1_555
O2_3 Eu5 1_555 1_555
O21 C9_3 1_555 1_555
O4_2 C9_3 1_555 1_555
C1_3 C2_3 1_555 1_555
C2_3 H1_3 1_555 1_555
C3_3 C2_3 1_555 1_555
C4_3 C3_3 1_555 1_555
H2_3 C4_3 1_555 1_555
C5_3 C4_3 1_555 1_555
C6_3 C1_3 1_555 1_555
H3_3 C6_3 1_555 1_555
C7_3 C1_3 1_555 1_555
C8_3 O2_3 1_555 1_555
C9_3 C5_3 1_555 1_555
O5_3 Eu5 1_555 1_555
N1_3 C10_3 1_555 1_555
C10_3 O5_3 1_555 1_555
H4_3 C10_3 1_555 1_555
C11_3 N1_3 1_555 1_555
H5_3 C11_3 1_555 1_555
H6_3 C11_3 1_555 1_555
H7_3 C11_3 1_555 1_555
C12_3 N1_3 1_555 1_555
H8_3 C12_3 1_555 1_555
H9_3 C12_3 1_555 1_555
H10_3 C12_3 1_555 1_555
O6_3 Eu5 1_555 1_555
N2_3 C13_3 1_555 1_555
C13_3 O6_3 1_555 1_555
H11_3 C13_3 1_555 1_555
C14_3 N2_3 1_555 1_555
H12_3 C14_3 1_555 1_555
H13_3 C14_3 1_555 1_555
H14_3 C14_3 1_555 1_555
C15_3 N2_3 1_555 1_555
H15_3 C15_3 1_555 1_555
H16_3 C15_3 1_555 1_555
H17_3 C15_3 1_555 1_555
N3_3 O7_3 1_555 1_555
O7_3 Eu5 1_555 1_555
O8_3 Eu5 1_555 1_555
O9_3 N3_3 1_555 1_555
O24_2 Eu5 1_555 1_555
C3_3 C8_3 1_555 1_555
C5_3 C6_3 1_555 1_555
N3_3 O8_3 1_555 1_555
O14_4 Eu8 1_555 1_555
O15_4 Eu8 1_555 1_555
N5_4 C28_4 1_555 1_555
C28_4 O15_4 1_555 1_555
H28_4 C28_4 1_555 1_555
C29_4 N5_4 1_555 1_555
H29_4 C29_4 1_555 1_555
H30_4 C29_4 1_555 1_555
H31_4 C29_4 1_555 1_555
C30_4 N5_4 1_555 1_555
H32_4 C30_4 1_555 1_555
H33_4 C30_4 1_555 1_555
H34_4 C30_4 1_555 1_555
O17_4 Eu8 1_555 1_555
O19 C8_4 1_555 1_555
O2_4 Eu7 1_555 1_555
C2_4 H1_4 1_555 1_555
C3_4 C2_4 1_555 1_555
C8_4 O2_4 1_555 1_555
O5_4 Eu7 1_555 1_555
O6_4 Eu7 1_555 1_555
N2_4 C13_4 1_555 1_555
C13_4 O6_4 1_555 1_555
H11_4 C13_4 1_555 1_555
C14_4 N2_4 1_555 1_555
H12_4 C14_4 1_555 1_555
H13_4 C14_4 1_555 1_555
H14_4 C14_4 1_555 1_555
C15_4 N2_4 1_555 1_555
H15_4 C15_4 1_555 1_555
H16_4 C15_4 1_555 1_555
H17_4 C15_4 1_555 1_555
N3_4 O7_4 1_555 1_555
O7_4 Eu7 1_555 1_555
O8_4 Eu7 1_555 1_555
O9_4 N3_4 1_555 1_555
O20 C23_4 1_555 1_555
O11_4 C23_4 1_555 1_555
C17_4 H18_4 1_555 1_555
C18_4 C17_4 1_555 1_555
C23_4 C18_4 1_555 1_555
N6_4 O16_4 1_555 1_555
O18_4 N6_4 1_555 1_555
C3_4 C8_4 1_555 1_555
N3_4 O8_4 1_555 1_555
N4_4 C25_4 1_555 1_555
H21_4 C25_4 1_555 1_555
C26_4 N4_4 1_555 1_555
H22_4 C26_4 1_555 1_555
H23_4 C26_4 1_555 1_555
H24_4 C26_4 1_555 1_555
C27_4 N4_4 1_555 1_555
H25_4 C27_4 1_555 1_555
H26_4 C27_4 1_555 1_555
H27_4 C27_4 1_555 1_555
O21_2 C9_4 1_555 1_555
O23_2 C9_4 1_555 1_555
H2_4 C4_4 1_555 1_555
C5_4 C4_4 1_555 1_555
C6_4 C1_4 1_555 1_555
H3_4 C6_4 1_555 1_555
C7_4 C1_4 1_555 1_555
C9_4 C5_4 1_555 1_555
N1_4 C10_4 1_555 1_555
H4_4 C10_4 1_555 1_555
C11_4 N1_4 1_555 1_555
H5_4 C11_4 1_555 1_555
H6_4 C11_4 1_555 1_555
H7_4 C11_4 1_555 1_555
C12_4 N1_4 1_555 1_555
H8_4 C12_4 1_555 1_555
H9_4 C12_4 1_555 1_555
H10_4 C12_4 1_555 1_555
O22_2 C24_4 1_555 1_555
O24_2 C24_4 1_555 1_555
H19_4 C19_4 1_555 1_555
C20_4 C19_4 1_555 1_555
C21_4 C16_4 1_555 1_555
H20_4 C21_4 1_555 1_555
C22_4 C7_4 1_555 1_555
C24_4 C20_4 1_555 1_555
C5_4 C6_4 1_555 1_555
C16_4 C22_4 1_555 1_555
C20_4 C21_4 1_555 1_555

#END
