
###############################################################################
#
# This file contains modified crystal structure data generated from the
# MOF subset of the Cambridge Structural Database (CSD) v543 
# hosted by the Cambridge Crystallographic Data Centre (CCDC).
#
# This work is licensed under the Creative Commons
# Attribution-NonCommercial-ShareAlike 4.0 International License.
# To view a copy of this license, visit
# http://creativecommons.org/licenses/by-nc-sa/4.0/
# or send a letter to
# Creative Commons, PO Box 1866, Mountain View, CA 94042, USA.
#
# CIF created using the CSD Python API on 29 September 2022
# The structure has been converted into the P1 space group
# The structure has a 3D framework
# The original CSD entry SOTWUV is in the monoclinic crystal system
# The framework has been calculated to contain at least 10.0% void space
# The void calculation uses a probe of radius 1.32A, grid spacing 0.4
#
###############################################################################

data_SOTWUV
_chemical_formula_moiety         '(C120 H136 N24 O72 Tb8)n'
_symmetry_cell_setting           triclinic
_symmetry_space_group_name_H-M   'P 1'
_symmetry_Int_Tables_number      1
_space_group_name_Hall           'P 1'
loop_
_symmetry_equiv_pos_site_id
_symmetry_equiv_pos_as_xyz
1 x,y,z
_cell_length_a                   22.214(4)
_cell_length_b                   13.407(3)
_cell_length_c                   14.781(3)
_cell_angle_alpha                90
_cell_angle_beta                 97.20(3)
_cell_angle_gamma                90
_cell_volume                     4367.41
loop_
_atom_site_label
_atom_site_type_symbol
_atom_site_fract_x
_atom_site_fract_y
_atom_site_fract_z
Tb1 Tb 0.330844(8) 0.319076(15) 0.527236(13)
O1 O 0.21218(19) 0.3286(3) 0.4336(3)
O2 O 0.28611(17) 0.4286(3) 0.4104(3)
O3 O 0.26057(15) 0.6249(3) 0.1208(3)
O4 O 0.17689(16) 0.7183(3) 0.1040(2)
C1 C 0.0915(2) 0.5099(4) 0.2575(3)
C2 C 0.1290(2) 0.4508(4) 0.3186(4)
H1 H 0.1119 0.4066 0.3566
C3 C 0.1915(2) 0.4576(4) 0.3230(3)
C4 C 0.21687(19) 0.5205(4) 0.2635(3)
H2 H 0.2588 0.5232 0.2648
C5 C 0.1806(2) 0.5788(4) 0.2024(3)
C6 C 0.1181(2) 0.5757(4) 0.2007(3)
H3 H 0.0937 0.6176 0.1615
C7 C 0.0269(2) 0.5059(4) 0.2533(4)
C8 C 0.2328(2) 0.4008(4) 0.3931(3)
C9 C 0.2079(2) 0.6460(4) 0.1371(3)
O5 O 0.3627(3) 0.4828(6) 0.5767(5)
N1 N 0.3365(4) 0.6346(7) 0.6388(6)
C10 C 0.3268(5) 0.5526(9) 0.5884(8)
H4 H 0.2879 0.5461 0.5573
C11 C 0.2917(5) 0.7066(9) 0.6514(8)
H5 H 0.3092 0.7579 0.6918
H6 H 0.2590 0.6753 0.6774
H7 H 0.2765 0.7356 0.5936
C12 C 0.3940(5) 0.6299(9) 0.6811(8)
H8 H 0.4031 0.6895 0.7160
H9 H 0.4216 0.6238 0.6363
H10 H 0.3982 0.5730 0.7208
O6 O 0.3815(3) 0.3003(5) 0.6768(5)
N2 N 0.4116(4) 0.3355(6) 0.8248(6)
C13 C 0.3789(5) 0.3410(8) 0.7482(7)
H11 H 0.3466 0.3851 0.7475
C14 C 0.4511(5) 0.2473(7) 0.8329(7)
H12 H 0.4693 0.2402 0.8950
H13 H 0.4824 0.2551 0.7941
H14 H 0.4275 0.1890 0.8149
C15 C 0.4021(5) 0.3876(7) 0.9056(7)
H15 H 0.4284 0.3610 0.9563
H16 H 0.3606 0.3798 0.9163
H17 H 0.4107 0.4571 0.8986
N3 N 0.4471(2) 0.2770(5) 0.4674(4)
O7 O 0.4200(2) 0.3579(4) 0.4514(4)
O8 O 0.4259(2) 0.2192(4) 0.5225(3)
O9 O 0.4912(3) 0.2527(6) 0.4302(5)
Tb6 Tb 0.330844(8) 0.680924(15) 0.027236(13)
Tb7 Tb 0.169156(8) 0.180924(15) 0.472764(13)
O19 O 0.28782(19) 0.1714(3) 0.5664(3)
O22 O 0.26057(15) 0.3751(3) 0.6208(3)
O24 O 0.32311(16) 0.2183(3) 0.3960(2)
Tb4 Tb 0.169156(8) 0.819076(15) 0.972764(13)
O10 O 0.78782(19) 0.3286(3) 0.0664(3)
O11 O 0.71389(17) 0.4286(3) 0.0896(3)
O12 O 0.73943(15) 0.6249(3) 0.3792(3)
O13 O 0.82311(16) 0.7183(3) 0.3960(2)
C16 C 0.9085(2) 0.5099(4) 0.2425(3)
C17 C 0.8710(2) 0.4508(4) 0.1814(4)
H18 H 0.8881 0.4066 0.1434
C18 C 0.8085(2) 0.4576(4) 0.1770(3)
C19 C 0.78313(19) 0.5205(4) 0.2365(3)
H19 H 0.7412 0.5232 0.2352
C20 C 0.8194(2) 0.5788(4) 0.2976(3)
C21 C 0.8819(2) 0.5757(4) 0.2993(3)
H20 H 0.9063 0.6176 0.3385
C22 C 0.9731(2) 0.5059(4) 0.2467(4)
C23 C 0.7672(2) 0.4008(4) 0.1069(3)
C24 C 0.7921(2) 0.6460(4) 0.3629(3)
N6 N 0.5529(2) 0.2770(5) 0.0326(4)
O16 O 0.5800(2) 0.3579(4) 0.0486(4)
O18 O 0.5088(3) 0.2527(6) 0.0698(5)
Tb3 Tb 0.830844(8) 0.819076(15) 0.527236(13)
Tb5 Tb 0.669156(8) 0.680924(15) 0.472764(13)
Tb8 Tb 0.830844(8) 0.180924(15) 0.027236(13)
O23 O 0.67689(16) 0.2183(3) 0.1040(2)
Tb2 Tb 0.669156(8) 0.319076(15) 0.972764(13)
O14 O 0.6373(3) 0.4828(6) 0.9233(5)
N4 N 0.6635(4) 0.6346(7) 0.8612(6)
C25 C 0.6732(5) 0.5526(9) 0.9116(8)
H21 H 0.7121 0.5461 0.9427
C26 C 0.7083(5) 0.7066(9) 0.8486(8)
H22 H 0.6908 0.7579 0.8082
H23 H 0.7410 0.6753 0.8226
H24 H 0.7235 0.7356 0.9064
C27 C 0.6060(5) 0.6299(9) 0.8189(8)
H25 H 0.5969 0.6895 0.7840
H26 H 0.5784 0.6238 0.8637
H27 H 0.6018 0.5730 0.7792
O15 O 0.6185(3) 0.3003(5) 0.8232(5)
N5 N 0.5884(4) 0.3355(6) 0.6752(6)
C28 C 0.6211(5) 0.3410(8) 0.7518(7)
H28 H 0.6534 0.3851 0.7525
C29 C 0.5489(5) 0.2473(7) 0.6671(7)
H29 H 0.5307 0.2402 0.6050
H30 H 0.5176 0.2551 0.7059
H31 H 0.5725 0.1890 0.6851
C30 C 0.5979(5) 0.3876(7) 0.5944(7)
H32 H 0.5716 0.3610 0.5437
H33 H 0.6394 0.3798 0.5837
H34 H 0.5893 0.4571 0.6014
O17 O 0.5741(2) 0.2192(4) 0.9775(3)
O20 O 0.71218(19) 0.1714(3) 0.9336(3)
O21 O 0.73943(15) 0.3751(3) 0.8792(3)
O3_2 O 0.76057(15) 0.1249(3) 0.1208(3)
C1_2 C 0.5915(2) 0.0099(4) 0.2575(3)
C4_2 C 0.71687(19) 0.0205(4) 0.2635(3)
H2_2 H 0.7588 0.0232 0.2648
C5_2 C 0.6806(2) 0.0788(4) 0.2024(3)
C6_2 C 0.6181(2) 0.0757(4) 0.2007(3)
H3_2 H 0.5937 0.1176 0.1615
C7_2 C 0.5269(2) 0.0059(4) 0.2533(4)
C9_2 C 0.7079(2) 0.1460(4) 0.1371(3)
N1_2 N 0.8365(4) 0.1346(7) 0.6388(6)
C10_2 C 0.8268(5) 0.0526(9) 0.5884(8)
H4_2 H 0.7879 0.0461 0.5573
C11_2 C 0.7917(5) 0.2066(9) 0.6514(8)
H5_2 H 0.8092 0.2579 0.6918
H6_2 H 0.7590 0.1753 0.6774
H7_2 H 0.7765 0.2356 0.5936
C12_2 C 0.8940(5) 0.1299(9) 0.6811(8)
H8_2 H 0.9031 0.1895 0.7160
H9_2 H 0.9216 0.1238 0.6363
H10_2 H 0.8982 0.0730 0.7208
O12_2 O 0.23943(15) 0.1249(3) 0.3792(3)
C16_2 C 0.4085(2) 0.0099(4) 0.2425(3)
C19_2 C 0.28313(19) 0.0205(4) 0.2365(3)
H19_2 H 0.2412 0.0232 0.2352
C20_2 C 0.3194(2) 0.0788(4) 0.2976(3)
C21_2 C 0.3819(2) 0.0757(4) 0.2993(3)
H20_2 H 0.4063 0.1176 0.3385
C22_2 C 0.4731(2) 0.0059(4) 0.2467(4)
C24_2 C 0.2921(2) 0.1460(4) 0.3629(3)
N4_2 N 0.1635(4) 0.1346(7) 0.8612(6)
C25_2 C 0.1732(5) 0.0526(9) 0.9116(8)
H21_2 H 0.2121 0.0461 0.9427
C26_2 C 0.2083(5) 0.2066(9) 0.8486(8)
H22_2 H 0.1908 0.2579 0.8082
H23_2 H 0.2410 0.1753 0.8226
H24_2 H 0.2235 0.2356 0.9064
C27_2 C 0.1060(5) 0.1299(9) 0.8189(8)
H25_2 H 0.0969 0.1895 0.7840
H26_2 H 0.0784 0.1238 0.8637
H27_2 H 0.1018 0.0730 0.7792
O1_2 O 0.71218(19) 0.8286(3) 0.4336(3)
O2_2 O 0.78611(17) 0.9286(3) 0.4104(3)
C2_2 C 0.6290(2) 0.9508(4) 0.3186(4)
H1_2 H 0.6119 0.9066 0.3566
C3_2 C 0.6915(2) 0.9576(4) 0.3230(3)
C8_2 C 0.7328(2) 0.9008(4) 0.3931(3)
O5_2 O 0.8627(3) 0.9828(6) 0.5767(5)
O6_2 O 0.8815(3) 0.8003(5) 0.6768(5)
N2_2 N 0.9116(4) 0.8355(6) 0.8248(6)
C13_2 C 0.8789(5) 0.8410(8) 0.7482(7)
H11_2 H 0.8466 0.8851 0.7475
C14_2 C 0.9511(5) 0.7473(7) 0.8329(7)
H12_2 H 0.9693 0.7402 0.8950
H13_2 H 0.9824 0.7551 0.7941
H14_2 H 0.9275 0.6890 0.8149
C15_2 C 0.9021(5) 0.8876(7) 0.9056(7)
H15_2 H 0.9284 0.8610 0.9563
H16_2 H 0.8606 0.8798 0.9163
H17_2 H 0.9107 0.9571 0.8986
N3_2 N 0.9471(2) 0.7770(5) 0.4674(4)
O7_2 O 0.9200(2) 0.8579(4) 0.4514(4)
O8_2 O 0.9259(2) 0.7192(4) 0.5225(3)
O9_2 O 0.9912(3) 0.7527(6) 0.4302(5)
O10_2 O 0.28782(19) 0.8286(3) 0.0664(3)
O11_2 O 0.21389(17) 0.9286(3) 0.0896(3)
C17_2 C 0.3710(2) 0.9508(4) 0.1814(4)
H18_2 H 0.3881 0.9066 0.1434
C18_2 C 0.3085(2) 0.9576(4) 0.1770(3)
C23_2 C 0.2672(2) 0.9008(4) 0.1069(3)
N6_2 N 0.0529(2) 0.7770(5) 0.0326(4)
O16_2 O 0.0800(2) 0.8579(4) 0.0486(4)
O18_2 O 0.0088(3) 0.7527(6) 0.0698(5)
O19_2 O 0.78782(19) 0.6714(3) 0.5664(3)
O22_2 O 0.76057(15) 0.8751(3) 0.6208(3)
O14_2 O 0.1373(3) 0.9828(6) 0.9233(5)
O15_2 O 0.1185(3) 0.8003(5) 0.8232(5)
N5_2 N 0.0884(4) 0.8355(6) 0.6752(6)
C28_2 C 0.1211(5) 0.8410(8) 0.7518(7)
H28_2 H 0.1534 0.8851 0.7525
C29_2 C 0.0489(5) 0.7473(7) 0.6671(7)
H29_2 H 0.0307 0.7402 0.6050
H30_2 H 0.0176 0.7551 0.7059
H31_2 H 0.0725 0.6890 0.6851
C30_2 C 0.0979(5) 0.8876(7) 0.5944(7)
H32_2 H 0.0716 0.8610 0.5437
H33_2 H 0.1394 0.8798 0.5837
H34_2 H 0.0893 0.9571 0.6014
O17_2 O 0.0741(2) 0.7192(4) 0.9775(3)
O20_2 O 0.21218(19) 0.6714(3) 0.9336(3)
O21_2 O 0.23943(15) 0.8751(3) 0.8792(3)
O14_3 O 0.3627(3) 0.5172(6) 0.0767(5)
N4_3 N 0.3365(4) 0.3654(7) 0.1388(6)
C25_3 C 0.3268(5) 0.4474(9) 0.0884(8)
H21_3 H 0.2879 0.4539 0.0573
C26_3 C 0.2917(5) 0.2934(9) 0.1514(8)
H22_3 H 0.3092 0.2421 0.1918
H23_3 H 0.2590 0.3247 0.1774
H24_3 H 0.2765 0.2644 0.0936
C27_3 C 0.3940(5) 0.3701(9) 0.1811(8)
H25_3 H 0.4031 0.3105 0.2160
H26_3 H 0.4216 0.3762 0.1363
H27_3 H 0.3982 0.4270 0.2208
O15_3 O 0.3815(3) 0.6997(5) 0.1768(5)
N5_3 N 0.4116(4) 0.6645(6) 0.3248(6)
C28_3 C 0.3789(5) 0.6590(8) 0.2482(7)
H28_3 H 0.3466 0.6149 0.2475
C29_3 C 0.4511(5) 0.7527(7) 0.3329(7)
H29_3 H 0.4693 0.7598 0.3950
H30_3 H 0.4824 0.7449 0.2941
H31_3 H 0.4275 0.8110 0.3149
C30_3 C 0.4021(5) 0.6124(7) 0.4056(7)
H32_3 H 0.4284 0.6390 0.4563
H33_3 H 0.3606 0.6202 0.4163
H34_3 H 0.4107 0.5429 0.3986
O17_3 O 0.4259(2) 0.7808(4) 0.0225(3)
O11_3 O 0.28611(17) 0.5714(3) 0.9104(3)
O13_2 O 0.17689(16) 0.2817(3) 0.6040(2)
C16_3 C 0.0915(2) 0.4901(4) 0.7575(3)
C17_3 C 0.1290(2) 0.5492(4) 0.8186(4)
H18_3 H 0.1119 0.5934 0.8566
C18_3 C 0.1915(2) 0.5424(4) 0.8230(3)
C19_3 C 0.21687(19) 0.4795(4) 0.7635(3)
H19_3 H 0.2588 0.4768 0.7648
C20_3 C 0.1806(2) 0.4212(4) 0.7024(3)
C21_3 C 0.1181(2) 0.4243(4) 0.7007(3)
H20_3 H 0.0937 0.3824 0.6615
C22_3 C 0.0269(2) 0.4941(4) 0.7533(4)
C23_3 C 0.2328(2) 0.5992(4) 0.8931(3)
C24_3 C 0.2079(2) 0.3540(4) 0.6371(3)
N6_3 N 0.4471(2) 0.7230(5) 0.9674(4)
O16_3 O 0.4200(2) 0.6421(4) 0.9514(4)
O18_3 O 0.4912(3) 0.7473(6) 0.9302(5)
O23_2 O 0.32311(16) 0.7817(3) 0.8960(2)
O2_3 O 0.71389(17) 0.5714(3) 0.5896(3)
O4_2 O 0.82311(16) 0.2817(3) 0.8960(2)
C1_3 C 0.9085(2) 0.4901(4) 0.7425(3)
C2_3 C 0.8710(2) 0.5492(4) 0.6814(4)
H1_3 H 0.8881 0.5934 0.6434
C3_3 C 0.8085(2) 0.5424(4) 0.6770(3)
C4_3 C 0.78313(19) 0.4795(4) 0.7365(3)
H2_3 H 0.7412 0.4768 0.7352
C5_3 C 0.8194(2) 0.4212(4) 0.7976(3)
C6_3 C 0.8819(2) 0.4243(4) 0.7993(3)
H3_3 H 0.9063 0.3824 0.8385
C7_3 C 0.9731(2) 0.4941(4) 0.7467(4)
C8_3 C 0.7672(2) 0.5992(4) 0.6069(3)
C9_3 C 0.7921(2) 0.3540(4) 0.8629(3)
O5_3 O 0.6373(3) 0.5172(6) 0.4233(5)
N1_3 N 0.6635(4) 0.3654(7) 0.3612(6)
C10_3 C 0.6732(5) 0.4474(9) 0.4116(8)
H4_3 H 0.7121 0.4539 0.4427
C11_3 C 0.7083(5) 0.2934(9) 0.3486(8)
H5_3 H 0.6908 0.2421 0.3082
H6_3 H 0.7410 0.3247 0.3226
H7_3 H 0.7235 0.2644 0.4064
C12_3 C 0.6060(5) 0.3701(9) 0.3189(8)
H8_3 H 0.5969 0.3105 0.2840
H9_3 H 0.5784 0.3762 0.3637
H10_3 H 0.6018 0.4270 0.2792
O6_3 O 0.6185(3) 0.6997(5) 0.3232(5)
N2_3 N 0.5884(4) 0.6645(6) 0.1752(6)
C13_3 C 0.6211(5) 0.6590(8) 0.2518(7)
H11_3 H 0.6534 0.6149 0.2525
C14_3 C 0.5489(5) 0.7527(7) 0.1671(7)
H12_3 H 0.5307 0.7598 0.1050
H13_3 H 0.5176 0.7449 0.2059
H14_3 H 0.5725 0.8110 0.1851
C15_3 C 0.5979(5) 0.6124(7) 0.0944(7)
H15_3 H 0.5716 0.6390 0.0437
H16_3 H 0.6394 0.6202 0.0837
H17_3 H 0.5893 0.5429 0.1014
N3_3 N 0.5529(2) 0.7230(5) 0.5326(4)
O7_3 O 0.5800(2) 0.6421(4) 0.5486(4)
O8_3 O 0.5741(2) 0.7808(4) 0.4775(3)
O9_3 O 0.5088(3) 0.7473(6) 0.5698(5)
O24_2 O 0.67689(16) 0.7817(3) 0.6040(2)
O14_4 O 0.8627(3) 0.0172(6) 0.0767(5)
O15_4 O 0.8815(3) 0.1997(5) 0.1768(5)
N5_4 N 0.9116(4) 0.1645(6) 0.3248(6)
C28_4 C 0.8789(5) 0.1590(8) 0.2482(7)
H28_4 H 0.8466 0.1149 0.2475
C29_4 C 0.9511(5) 0.2527(7) 0.3329(7)
H29_4 H 0.9693 0.2598 0.3950
H30_4 H 0.9824 0.2449 0.2941
H31_4 H 0.9275 0.3110 0.3149
C30_4 C 0.9021(5) 0.1124(7) 0.4056(7)
H32_4 H 0.9284 0.1390 0.4563
H33_4 H 0.8606 0.1202 0.4163
H34_4 H 0.9107 0.0429 0.3986
O17_4 O 0.9259(2) 0.2808(4) 0.0225(3)
O2_4 O 0.21389(17) 0.0714(3) 0.5896(3)
C2_4 C 0.3710(2) 0.0492(4) 0.6814(4)
H1_4 H 0.3881 0.0934 0.6434
C3_4 C 0.3085(2) 0.0424(4) 0.6770(3)
C8_4 C 0.2672(2) 0.0992(4) 0.6069(3)
O5_4 O 0.1373(3) 0.0172(6) 0.4233(5)
O6_4 O 0.1185(3) 0.1997(5) 0.3232(5)
N2_4 N 0.0884(4) 0.1645(6) 0.1752(6)
C13_4 C 0.1211(5) 0.1590(8) 0.2518(7)
H11_4 H 0.1534 0.1149 0.2525
C14_4 C 0.0489(5) 0.2527(7) 0.1671(7)
H12_4 H 0.0307 0.2598 0.1050
H13_4 H 0.0176 0.2449 0.2059
H14_4 H 0.0725 0.3110 0.1851
C15_4 C 0.0979(5) 0.1124(7) 0.0944(7)
H15_4 H 0.0716 0.1390 0.0437
H16_4 H 0.1394 0.1202 0.0837
H17_4 H 0.0893 0.0429 0.1014
N3_4 N 0.0529(2) 0.2230(5) 0.5326(4)
O7_4 O 0.0800(2) 0.1421(4) 0.5486(4)
O8_4 O 0.0741(2) 0.2808(4) 0.4775(3)
O9_4 O 0.0088(3) 0.2473(6) 0.5698(5)
O11_4 O 0.78611(17) 0.0714(3) 0.9104(3)
C17_4 C 0.6290(2) 0.0492(4) 0.8186(4)
H18_4 H 0.6119 0.0934 0.8566
C18_4 C 0.6915(2) 0.0424(4) 0.8230(3)
C23_4 C 0.7328(2) 0.0992(4) 0.8931(3)
N6_4 N 0.9471(2) 0.2230(5) 0.9674(4)
O16_4 O 0.9200(2) 0.1421(4) 0.9514(4)
O18_4 O 0.9912(3) 0.2473(6) 0.9302(5)
N4_4 N 0.8365(4) 0.8654(7) 0.1388(6)
C25_4 C 0.8268(5) 0.9474(9) 0.0884(8)
H21_4 H 0.7879 0.9539 0.0573
C26_4 C 0.7917(5) 0.7934(9) 0.1514(8)
H22_4 H 0.8092 0.7421 0.1918
H23_4 H 0.7590 0.8247 0.1774
H24_4 H 0.7765 0.7644 0.0936
C27_4 C 0.8940(5) 0.8701(9) 0.1811(8)
H25_4 H 0.9031 0.8105 0.2160
H26_4 H 0.9216 0.8762 0.1363
H27_4 H 0.8982 0.9270 0.2208
C1_4 C 0.4085(2) 0.9901(4) 0.7425(3)
C4_4 C 0.28313(19) 0.9795(4) 0.7365(3)
H2_4 H 0.2412 0.9768 0.7352
C5_4 C 0.3194(2) 0.9212(4) 0.7976(3)
C6_4 C 0.3819(2) 0.9243(4) 0.7993(3)
H3_4 H 0.4063 0.8824 0.8385
C7_4 C 0.4731(2) 0.9941(4) 0.7467(4)
C9_4 C 0.2921(2) 0.8540(4) 0.8629(3)
N1_4 N 0.1635(4) 0.8654(7) 0.3612(6)
C10_4 C 0.1732(5) 0.9474(9) 0.4116(8)
H4_4 H 0.2121 0.9539 0.4427
C11_4 C 0.2083(5) 0.7934(9) 0.3486(8)
H5_4 H 0.1908 0.7421 0.3082
H6_4 H 0.2410 0.8247 0.3226
H7_4 H 0.2235 0.7644 0.4064
C12_4 C 0.1060(5) 0.8701(9) 0.3189(8)
H8_4 H 0.0969 0.8105 0.2840
H9_4 H 0.0784 0.8762 0.3637
H10_4 H 0.1018 0.9270 0.2792
C16_4 C 0.5915(2) 0.9901(4) 0.7575(3)
C19_4 C 0.71687(19) 0.9795(4) 0.7635(3)
H19_4 H 0.7588 0.9768 0.7648
C20_4 C 0.6806(2) 0.9212(4) 0.7024(3)
C21_4 C 0.6181(2) 0.9243(4) 0.7007(3)
H20_4 H 0.5937 0.8824 0.6615
C22_4 C 0.5269(2) 0.9941(4) 0.7533(4)
C24_4 C 0.7079(2) 0.8540(4) 0.6371(3)
loop_
_geom_bond_atom_site_label_1
_geom_bond_atom_site_label_2
_geom_bond_site_symmetry_1
_geom_bond_site_symmetry_2
Tb1 O1 1_555 1_555
O1 C8 1_555 1_555
O2 Tb1 1_555 1_555
O3 C9 1_555 1_555
O4 C9 1_555 1_555
C1 C2 1_555 1_555
C2 H1 1_555 1_555
C3 C2 1_555 1_555
C4 C3 1_555 1_555
H2 C4 1_555 1_555
C5 C4 1_555 1_555
C6 C1 1_555 1_555
H3 C6 1_555 1_555
C7 C1 1_555 1_555
C8 O2 1_555 1_555
C9 C5 1_555 1_555
O5 Tb1 1_555 1_555
N1 C10 1_555 1_555
C10 O5 1_555 1_555
H4 C10 1_555 1_555
C11 N1 1_555 1_555
H5 C11 1_555 1_555
H6 C11 1_555 1_555
H7 C11 1_555 1_555
C12 N1 1_555 1_555
H8 C12 1_555 1_555
H9 C12 1_555 1_555
H10 C12 1_555 1_555
O6 Tb1 1_555 1_555
N2 C13 1_555 1_555
C13 O6 1_555 1_555
H11 C13 1_555 1_555
C14 N2 1_555 1_555
H12 C14 1_555 1_555
H13 C14 1_555 1_555
H14 C14 1_555 1_555
C15 N2 1_555 1_555
H15 C15 1_555 1_555
H16 C15 1_555 1_555
H17 C15 1_555 1_555
N3 O7 1_555 1_555
O7 Tb1 1_555 1_555
O8 Tb1 1_555 1_555
O9 N3 1_555 1_555
Tb6 O3 1_555 1_555
Tb7 O1 1_555 1_555
O19 Tb1 1_555 1_555
O22 Tb1 1_555 1_555
O24 Tb1 1_555 1_555
C3 C8 1_555 1_555
C5 C6 1_555 1_555
N3 O8 1_555 1_555
Tb7 O19 1_555 1_555
O10 C23 1_555 1_555
O11 C23 1_555 1_555
O12 C24 1_555 1_555
O13 C24 1_555 1_555
C16 C17 1_555 1_555
C17 H18 1_555 1_555
C18 C17 1_555 1_555
C19 C18 1_555 1_555
H19 C19 1_555 1_555
C20 C19 1_555 1_555
C21 C16 1_555 1_555
H20 C21 1_555 1_555
C23 C18 1_555 1_555
C24 C20 1_555 1_555
N6 O16 1_555 1_555
O18 N6 1_555 1_555
Tb3 O13 1_555 1_555
Tb5 O12 1_555 1_555
Tb8 O10 1_555 1_555
C16 C22 1_555 1_555
C20 C21 1_555 1_555
O14 Tb2 1_555 1_555
N4 C25 1_555 1_555
C25 O14 1_555 1_555
H21 C25 1_555 1_555
C26 N4 1_555 1_555
H22 C26 1_555 1_555
H23 C26 1_555 1_555
H24 C26 1_555 1_555
C27 N4 1_555 1_555
H25 C27 1_555 1_555
H26 C27 1_555 1_555
H27 C27 1_555 1_555
O15 Tb2 1_555 1_555
N5 C28 1_555 1_555
C28 O15 1_555 1_555
H28 C28 1_555 1_555
C29 N5 1_555 1_555
H29 C29 1_555 1_555
H30 C29 1_555 1_555
H31 C29 1_555 1_555
C30 N5 1_555 1_555
H32 C30 1_555 1_555
H33 C30 1_555 1_555
H34 C30 1_555 1_555
O17 Tb2 1_555 1_555
O20 Tb2 1_555 1_555
O21 Tb2 1_555 1_555
O3_2 C9_2 1_555 1_555
O23 C9_2 1_555 1_555
H2_2 C4_2 1_555 1_555
C5_2 C4_2 1_555 1_555
C6_2 C1_2 1_555 1_555
H3_2 C6_2 1_555 1_555
C7_2 C1_2 1_555 1_555
C9_2 C5_2 1_555 1_555
N1_2 C10_2 1_555 1_555
H4_2 C10_2 1_555 1_555
C11_2 N1_2 1_555 1_555
H5_2 C11_2 1_555 1_555
H6_2 C11_2 1_555 1_555
H7_2 C11_2 1_555 1_555
C12_2 N1_2 1_555 1_555
H8_2 C12_2 1_555 1_555
H9_2 C12_2 1_555 1_555
H10_2 C12_2 1_555 1_555
O12_2 C24_2 1_555 1_555
O24 C24_2 1_555 1_555
H19_2 C19_2 1_555 1_555
C20_2 C19_2 1_555 1_555
C21_2 C16_2 1_555 1_555
H20_2 C21_2 1_555 1_555
C22_2 C7_2 1_555 1_555
C24_2 C20_2 1_555 1_555
Tb7 O12_2 1_555 1_555
Tb8 O3_2 1_555 1_555
C5_2 C6_2 1_555 1_555
C16_2 C22_2 1_555 1_555
C20_2 C21_2 1_555 1_555
N4_2 C25_2 1_555 1_555
H21_2 C25_2 1_555 1_555
C26_2 N4_2 1_555 1_555
H22_2 C26_2 1_555 1_555
H23_2 C26_2 1_555 1_555
H24_2 C26_2 1_555 1_555
C27_2 N4_2 1_555 1_555
H25_2 C27_2 1_555 1_555
H26_2 C27_2 1_555 1_555
H27_2 C27_2 1_555 1_555
Tb3 O1_2 1_555 1_555
O1_2 C8_2 1_555 1_555
O2_2 Tb3 1_555 1_555
C2_2 H1_2 1_555 1_555
C3_2 C2_2 1_555 1_555
C8_2 O2_2 1_555 1_555
O5_2 Tb3 1_555 1_555
O6_2 Tb3 1_555 1_555
N2_2 C13_2 1_555 1_555
C13_2 O6_2 1_555 1_555
H11_2 C13_2 1_555 1_555
C14_2 N2_2 1_555 1_555
H12_2 C14_2 1_555 1_555
H13_2 C14_2 1_555 1_555
H14_2 C14_2 1_555 1_555
C15_2 N2_2 1_555 1_555
H15_2 C15_2 1_555 1_555
H16_2 C15_2 1_555 1_555
H17_2 C15_2 1_555 1_555
N3_2 O7_2 1_555 1_555
O7_2 Tb3 1_555 1_555
O8_2 Tb3 1_555 1_555
O9_2 N3_2 1_555 1_555
O10_2 C23_2 1_555 1_555
O11_2 C23_2 1_555 1_555
C17_2 H18_2 1_555 1_555
C18_2 C17_2 1_555 1_555
C23_2 C18_2 1_555 1_555
N6_2 O16_2 1_555 1_555
O18_2 N6_2 1_555 1_555
Tb5 O1_2 1_555 1_555
Tb6 O10_2 1_555 1_555
O19_2 Tb3 1_555 1_555
O22_2 Tb3 1_555 1_555
C3_2 C8_2 1_555 1_555
N3_2 O8_2 1_555 1_555
Tb5 O19_2 1_555 1_555
O14_2 Tb4 1_555 1_555
O15_2 Tb4 1_555 1_555
N5_2 C28_2 1_555 1_555
C28_2 O15_2 1_555 1_555
H28_2 C28_2 1_555 1_555
C29_2 N5_2 1_555 1_555
H29_2 C29_2 1_555 1_555
H30_2 C29_2 1_555 1_555
H31_2 C29_2 1_555 1_555
C30_2 N5_2 1_555 1_555
H32_2 C30_2 1_555 1_555
H33_2 C30_2 1_555 1_555
H34_2 C30_2 1_555 1_555
O17_2 Tb4 1_555 1_555
O20_2 Tb4 1_555 1_555
O21_2 Tb4 1_555 1_555
O14_3 Tb6 1_555 1_555
N4_3 C25_3 1_555 1_555
C25_3 O14_3 1_555 1_555
H21_3 C25_3 1_555 1_555
C26_3 N4_3 1_555 1_555
H22_3 C26_3 1_555 1_555
H23_3 C26_3 1_555 1_555
H24_3 C26_3 1_555 1_555
C27_3 N4_3 1_555 1_555
H25_3 C27_3 1_555 1_555
H26_3 C27_3 1_555 1_555
H27_3 C27_3 1_555 1_555
O15_3 Tb6 1_555 1_555
N5_3 C28_3 1_555 1_555
C28_3 O15_3 1_555 1_555
H28_3 C28_3 1_555 1_555
C29_3 N5_3 1_555 1_555
H29_3 C29_3 1_555 1_555
H30_3 C29_3 1_555 1_555
H31_3 C29_3 1_555 1_555
C30_3 N5_3 1_555 1_555
H32_3 C30_3 1_555 1_555
H33_3 C30_3 1_555 1_555
H34_3 C30_3 1_555 1_555
O17_3 Tb6 1_555 1_555
O20_2 C23_3 1_555 1_555
O11_3 C23_3 1_555 1_555
O22 C24_3 1_555 1_555
O13_2 C24_3 1_555 1_555
C16_3 C17_3 1_555 1_555
C17_3 H18_3 1_555 1_555
C18_3 C17_3 1_555 1_555
C19_3 C18_3 1_555 1_555
H19_3 C19_3 1_555 1_555
C20_3 C19_3 1_555 1_555
C21_3 C16_3 1_555 1_555
H20_3 C21_3 1_555 1_555
C23_3 C18_3 1_555 1_555
C24_3 C20_3 1_555 1_555
N6_3 O16_3 1_555 1_555
O18_3 N6_3 1_555 1_555
Tb7 O13_2 1_555 1_555
C16_3 C22_3 1_555 1_555
C20_3 C21_3 1_555 1_555
O19_2 C8_3 1_555 1_555
O2_3 Tb5 1_555 1_555
O21 C9_3 1_555 1_555
O4_2 C9_3 1_555 1_555
C1_3 C2_3 1_555 1_555
C2_3 H1_3 1_555 1_555
C3_3 C2_3 1_555 1_555
C4_3 C3_3 1_555 1_555
H2_3 C4_3 1_555 1_555
C5_3 C4_3 1_555 1_555
C6_3 C1_3 1_555 1_555
H3_3 C6_3 1_555 1_555
C7_3 C1_3 1_555 1_555
C8_3 O2_3 1_555 1_555
C9_3 C5_3 1_555 1_555
O5_3 Tb5 1_555 1_555
N1_3 C10_3 1_555 1_555
C10_3 O5_3 1_555 1_555
H4_3 C10_3 1_555 1_555
C11_3 N1_3 1_555 1_555
H5_3 C11_3 1_555 1_555
H6_3 C11_3 1_555 1_555
H7_3 C11_3 1_555 1_555
C12_3 N1_3 1_555 1_555
H8_3 C12_3 1_555 1_555
H9_3 C12_3 1_555 1_555
H10_3 C12_3 1_555 1_555
O6_3 Tb5 1_555 1_555
N2_3 C13_3 1_555 1_555
C13_3 O6_3 1_555 1_555
H11_3 C13_3 1_555 1_555
C14_3 N2_3 1_555 1_555
H12_3 C14_3 1_555 1_555
H13_3 C14_3 1_555 1_555
H14_3 C14_3 1_555 1_555
C15_3 N2_3 1_555 1_555
H15_3 C15_3 1_555 1_555
H16_3 C15_3 1_555 1_555
H17_3 C15_3 1_555 1_555
N3_3 O7_3 1_555 1_555
O7_3 Tb5 1_555 1_555
O8_3 Tb5 1_555 1_555
O9_3 N3_3 1_555 1_555
O24_2 Tb5 1_555 1_555
C3_3 C8_3 1_555 1_555
C5_3 C6_3 1_555 1_555
N3_3 O8_3 1_555 1_555
O14_4 Tb8 1_555 1_555
O15_4 Tb8 1_555 1_555
N5_4 C28_4 1_555 1_555
C28_4 O15_4 1_555 1_555
H28_4 C28_4 1_555 1_555
C29_4 N5_4 1_555 1_555
H29_4 C29_4 1_555 1_555
H30_4 C29_4 1_555 1_555
H31_4 C29_4 1_555 1_555
C30_4 N5_4 1_555 1_555
H32_4 C30_4 1_555 1_555
H33_4 C30_4 1_555 1_555
H34_4 C30_4 1_555 1_555
O17_4 Tb8 1_555 1_555
O19 C8_4 1_555 1_555
O2_4 Tb7 1_555 1_555
C2_4 H1_4 1_555 1_555
C3_4 C2_4 1_555 1_555
C8_4 O2_4 1_555 1_555
O5_4 Tb7 1_555 1_555
O6_4 Tb7 1_555 1_555
N2_4 C13_4 1_555 1_555
C13_4 O6_4 1_555 1_555
H11_4 C13_4 1_555 1_555
C14_4 N2_4 1_555 1_555
H12_4 C14_4 1_555 1_555
H13_4 C14_4 1_555 1_555
H14_4 C14_4 1_555 1_555
C15_4 N2_4 1_555 1_555
H15_4 C15_4 1_555 1_555
H16_4 C15_4 1_555 1_555
H17_4 C15_4 1_555 1_555
N3_4 O7_4 1_555 1_555
O7_4 Tb7 1_555 1_555
O8_4 Tb7 1_555 1_555
O9_4 N3_4 1_555 1_555
O20 C23_4 1_555 1_555
O11_4 C23_4 1_555 1_555
C17_4 H18_4 1_555 1_555
C18_4 C17_4 1_555 1_555
C23_4 C18_4 1_555 1_555
N6_4 O16_4 1_555 1_555
O18_4 N6_4 1_555 1_555
C3_4 C8_4 1_555 1_555
N3_4 O8_4 1_555 1_555
N4_4 C25_4 1_555 1_555
H21_4 C25_4 1_555 1_555
C26_4 N4_4 1_555 1_555
H22_4 C26_4 1_555 1_555
H23_4 C26_4 1_555 1_555
H24_4 C26_4 1_555 1_555
C27_4 N4_4 1_555 1_555
H25_4 C27_4 1_555 1_555
H26_4 C27_4 1_555 1_555
H27_4 C27_4 1_555 1_555
O21_2 C9_4 1_555 1_555
O23_2 C9_4 1_555 1_555
H2_4 C4_4 1_555 1_555
C5_4 C4_4 1_555 1_555
C6_4 C1_4 1_555 1_555
H3_4 C6_4 1_555 1_555
C7_4 C1_4 1_555 1_555
C9_4 C5_4 1_555 1_555
N1_4 C10_4 1_555 1_555
H4_4 C10_4 1_555 1_555
C11_4 N1_4 1_555 1_555
H5_4 C11_4 1_555 1_555
H6_4 C11_4 1_555 1_555
H7_4 C11_4 1_555 1_555
C12_4 N1_4 1_555 1_555
H8_4 C12_4 1_555 1_555
H9_4 C12_4 1_555 1_555
H10_4 C12_4 1_555 1_555
O22_2 C24_4 1_555 1_555
O24_2 C24_4 1_555 1_555
H19_4 C19_4 1_555 1_555
C20_4 C19_4 1_555 1_555
C21_4 C16_4 1_555 1_555
H20_4 C21_4 1_555 1_555
C22_4 C7_4 1_555 1_555
C24_4 C20_4 1_555 1_555
C5_4 C6_4 1_555 1_555
C16_4 C22_4 1_555 1_555
C20_4 C21_4 1_555 1_555

#END
