
###############################################################################
#
# This file contains modified crystal structure data generated from the
# MOF subset of the Cambridge Structural Database (CSD) v543 
# hosted by the Cambridge Crystallographic Data Centre (CCDC).
#
# This work is licensed under the Creative Commons
# Attribution-NonCommercial-ShareAlike 4.0 International License.
# To view a copy of this license, visit
# http://creativecommons.org/licenses/by-nc-sa/4.0/
# or send a letter to
# Creative Commons, PO Box 1866, Mountain View, CA 94042, USA.
#
# CIF created using the CSD Python API on 29 September 2022
# The structure has been converted into the P1 space group
# The structure has a 3D framework
# The original CSD entry SOTXAC is in the monoclinic crystal system
# The framework has been calculated to contain at least 10.0% void space
# The void calculation uses a probe of radius 1.32A, grid spacing 0.4
#
###############################################################################

data_SOTXAC
_chemical_formula_moiety         '(C120 H136 Er8 N24 O72)n'
_symmetry_cell_setting           triclinic
_symmetry_space_group_name_H-M   'P 1'
_symmetry_Int_Tables_number      1
_space_group_name_Hall           'P 1'
loop_
_symmetry_equiv_pos_site_id
_symmetry_equiv_pos_as_xyz
1 x,y,z
_cell_length_a                   22.228(4)
_cell_length_b                   13.257(3)
_cell_length_c                   14.639(3)
_cell_angle_alpha                90
_cell_angle_beta                 97.07(3)
_cell_angle_gamma                90
_cell_volume                     4280.97
loop_
_atom_site_label
_atom_site_type_symbol
_atom_site_fract_x
_atom_site_fract_y
_atom_site_fract_z
Er1 Er 0.330984(12) 0.32070(2) 0.527549(18)
O1 O 0.2090(3) 0.3271(3) 0.4317(3)
O2 O 0.2836(2) 0.4288(4) 0.4138(3)
O3 O 0.2603(2) 0.6241(4) 0.1177(3)
O4 O 0.1780(2) 0.7217(4) 0.1032(3)
C1 C 0.0916(3) 0.5138(5) 0.2582(5)
C2 C 0.1279(3) 0.4550(6) 0.3197(5)
H1 H 0.1103 0.4120 0.3591
C3 C 0.1904(3) 0.4594(5) 0.3235(4)
C4 C 0.2157(3) 0.5224(5) 0.2630(5)
H2 H 0.2576 0.5253 0.2646
C5 C 0.1800(3) 0.5802(5) 0.2013(4)
C6 C 0.1177(3) 0.5789(5) 0.1986(5)
H3 H 0.0936 0.6204 0.1581
C7 C 0.0276(3) 0.5121(5) 0.2537(5)
C8 C 0.2299(3) 0.3993(5) 0.3932(4)
C9 C 0.2088(3) 0.6483(5) 0.1354(5)
O5 O 0.3613(4) 0.4831(7) 0.5754(6)
N1 N 0.3338(5) 0.6363(9) 0.6333(7)
C10 C 0.3237(7) 0.5536(11) 0.5842(9)
H4 H 0.2850 0.5460 0.5525
C11 C 0.2873(6) 0.7085(10) 0.6414(10)
H5 H 0.3014 0.7574 0.6875
H6 H 0.2521 0.6749 0.6588
H7 H 0.2769 0.7419 0.5834
C12 C 0.3906(6) 0.6456(11) 0.6842(9)
H8 H 0.3929 0.7087 0.7166
H9 H 0.4213 0.6433 0.6436
H10 H 0.3967 0.5912 0.7276
O6 O 0.3810(5) 0.3035(7) 0.6750(7)
N2 N 0.4128(6) 0.3339(8) 0.8264(8)
C13 C 0.3787(7) 0.3413(11) 0.7462(11)
H11 H 0.3463 0.3856 0.7468
C14 C 0.4471(7) 0.2417(10) 0.8302(9)
H12 H 0.4696 0.2345 0.8901
H13 H 0.4747 0.2435 0.7846
H14 H 0.4200 0.1856 0.8183
C15 C 0.4115(7) 0.3888(11) 0.9093(9)
H15 H 0.4329 0.3520 0.9596
H16 H 0.3701 0.3984 0.9203
H17 H 0.4304 0.4533 0.9041
N3 N 0.4461(3) 0.2820(8) 0.4668(6)
O7 O 0.4170(3) 0.3631(5) 0.4511(5)
O8 O 0.4249(3) 0.2229(6) 0.5213(5)
O9 O 0.4885(3) 0.2570(8) 0.4272(6)
Er6 Er 0.330984(12) 0.67930(2) 0.027549(18)
Er7 Er 0.169016(12) 0.17930(2) 0.472451(18)
O19 O 0.2910(3) 0.1729(3) 0.5683(3)
O22 O 0.2603(2) 0.3759(4) 0.6177(3)
O24 O 0.3220(2) 0.2217(4) 0.3968(3)
Er4 Er 0.169016(12) 0.82070(2) 0.972451(18)
O10 O 0.7910(3) 0.3271(3) 0.0683(3)
O11 O 0.7164(2) 0.4288(4) 0.0862(3)
O12 O 0.7397(2) 0.6241(4) 0.3823(3)
O13 O 0.8220(2) 0.7217(4) 0.3968(3)
C16 C 0.9084(3) 0.5138(5) 0.2418(5)
C17 C 0.8721(3) 0.4550(6) 0.1803(5)
H18 H 0.8897 0.4120 0.1409
C18 C 0.8096(3) 0.4594(5) 0.1765(4)
C19 C 0.7843(3) 0.5224(5) 0.2370(5)
H19 H 0.7424 0.5253 0.2354
C20 C 0.8200(3) 0.5802(5) 0.2987(4)
C21 C 0.8823(3) 0.5789(5) 0.3014(5)
H20 H 0.9064 0.6204 0.3419
C22 C 0.9724(3) 0.5121(5) 0.2463(5)
C23 C 0.7701(3) 0.3993(5) 0.1068(4)
C24 C 0.7912(3) 0.6483(5) 0.3646(5)
N6 N 0.5539(3) 0.2820(8) 0.0332(6)
O16 O 0.5830(3) 0.3631(5) 0.0489(5)
O18 O 0.5115(3) 0.2570(8) 0.0728(6)
Er3 Er 0.830984(12) 0.82070(2) 0.527549(18)
Er5 Er 0.669016(12) 0.67930(2) 0.472451(18)
Er8 Er 0.830984(12) 0.17930(2) 0.027549(18)
O23 O 0.6780(2) 0.2217(4) 0.1032(3)
Er2 Er 0.669016(12) 0.32070(2) 0.972451(18)
O14 O 0.6387(4) 0.4831(7) 0.9246(6)
N4 N 0.6662(5) 0.6363(9) 0.8667(7)
C25 C 0.6763(7) 0.5536(11) 0.9158(9)
H21 H 0.7150 0.5460 0.9475
C26 C 0.7127(6) 0.7085(10) 0.8586(10)
H22 H 0.6986 0.7574 0.8125
H23 H 0.7479 0.6749 0.8412
H24 H 0.7231 0.7419 0.9166
C27 C 0.6094(6) 0.6456(11) 0.8158(9)
H25 H 0.6071 0.7087 0.7834
H26 H 0.5787 0.6433 0.8564
H27 H 0.6033 0.5912 0.7724
O15 O 0.6190(5) 0.3035(7) 0.8250(7)
N5 N 0.5872(6) 0.3339(8) 0.6736(8)
C28 C 0.6213(7) 0.3413(11) 0.7538(11)
H28 H 0.6537 0.3856 0.7532
C29 C 0.5529(7) 0.2417(10) 0.6698(9)
H29 H 0.5304 0.2345 0.6099
H30 H 0.5253 0.2435 0.7154
H31 H 0.5800 0.1856 0.6817
C30 C 0.5885(7) 0.3888(11) 0.5907(9)
H32 H 0.5671 0.3520 0.5404
H33 H 0.6299 0.3984 0.5797
H34 H 0.5696 0.4533 0.5959
O17 O 0.5751(3) 0.2229(6) 0.9787(5)
O20 O 0.7090(3) 0.1729(3) 0.9317(3)
O21 O 0.7397(2) 0.3759(4) 0.8823(3)
O3_2 O 0.7603(2) 0.1241(4) 0.1177(3)
C1_2 C 0.5916(3) 0.0138(5) 0.2582(5)
C4_2 C 0.7157(3) 0.0224(5) 0.2630(5)
H2_2 H 0.7576 0.0253 0.2646
C5_2 C 0.6800(3) 0.0802(5) 0.2013(4)
C6_2 C 0.6177(3) 0.0789(5) 0.1986(5)
H3_2 H 0.5936 0.1204 0.1581
C7_2 C 0.5276(3) 0.0121(5) 0.2537(5)
C9_2 C 0.7088(3) 0.1483(5) 0.1354(5)
N1_2 N 0.8338(5) 0.1363(9) 0.6333(7)
C10_2 C 0.8237(7) 0.0536(11) 0.5842(9)
H4_2 H 0.7850 0.0460 0.5525
C11_2 C 0.7873(6) 0.2085(10) 0.6414(10)
H5_2 H 0.8014 0.2574 0.6875
H6_2 H 0.7521 0.1749 0.6588
H7_2 H 0.7769 0.2419 0.5834
C12_2 C 0.8906(6) 0.1456(11) 0.6842(9)
H8_2 H 0.8929 0.2087 0.7166
H9_2 H 0.9213 0.1433 0.6436
H10_2 H 0.8967 0.0912 0.7276
O12_2 O 0.2397(2) 0.1241(4) 0.3823(3)
C16_2 C 0.4084(3) 0.0138(5) 0.2418(5)
C19_2 C 0.2843(3) 0.0224(5) 0.2370(5)
H19_2 H 0.2424 0.0253 0.2354
C20_2 C 0.3200(3) 0.0802(5) 0.2987(4)
C21_2 C 0.3823(3) 0.0789(5) 0.3014(5)
H20_2 H 0.4064 0.1204 0.3419
C22_2 C 0.4724(3) 0.0121(5) 0.2463(5)
C24_2 C 0.2912(3) 0.1483(5) 0.3646(5)
N4_2 N 0.1662(5) 0.1363(9) 0.8667(7)
C25_2 C 0.1763(7) 0.0536(11) 0.9158(9)
H21_2 H 0.2150 0.0460 0.9475
C26_2 C 0.2127(6) 0.2085(10) 0.8586(10)
H22_2 H 0.1986 0.2574 0.8125
H23_2 H 0.2479 0.1749 0.8412
H24_2 H 0.2231 0.2419 0.9166
C27_2 C 0.1094(6) 0.1456(11) 0.8158(9)
H25_2 H 0.1071 0.2087 0.7834
H26_2 H 0.0787 0.1433 0.8564
H27_2 H 0.1033 0.0912 0.7724
O1_2 O 0.7090(3) 0.8271(3) 0.4317(3)
O2_2 O 0.7836(2) 0.9288(4) 0.4138(3)
C2_2 C 0.6279(3) 0.9550(6) 0.3197(5)
H1_2 H 0.6103 0.9120 0.3591
C3_2 C 0.6904(3) 0.9594(5) 0.3235(4)
C8_2 C 0.7299(3) 0.8993(5) 0.3932(4)
O5_2 O 0.8613(4) 0.9831(7) 0.5754(6)
O6_2 O 0.8810(5) 0.8035(7) 0.6750(7)
N2_2 N 0.9128(6) 0.8339(8) 0.8264(8)
C13_2 C 0.8787(7) 0.8413(11) 0.7462(11)
H11_2 H 0.8463 0.8856 0.7468
C14_2 C 0.9471(7) 0.7417(10) 0.8302(9)
H12_2 H 0.9696 0.7345 0.8901
H13_2 H 0.9747 0.7435 0.7846
H14_2 H 0.9200 0.6856 0.8183
C15_2 C 0.9115(7) 0.8888(11) 0.9093(9)
H15_2 H 0.9329 0.8520 0.9596
H16_2 H 0.8701 0.8984 0.9203
H17_2 H 0.9304 0.9533 0.9041
N3_2 N 0.9461(3) 0.7820(8) 0.4668(6)
O7_2 O 0.9170(3) 0.8631(5) 0.4511(5)
O8_2 O 0.9249(3) 0.7229(6) 0.5213(5)
O9_2 O 0.9885(3) 0.7570(8) 0.4272(6)
O10_2 O 0.2910(3) 0.8271(3) 0.0683(3)
O11_2 O 0.2164(2) 0.9288(4) 0.0862(3)
C17_2 C 0.3721(3) 0.9550(6) 0.1803(5)
H18_2 H 0.3897 0.9120 0.1409
C18_2 C 0.3096(3) 0.9594(5) 0.1765(4)
C23_2 C 0.2701(3) 0.8993(5) 0.1068(4)
N6_2 N 0.0539(3) 0.7820(8) 0.0332(6)
O16_2 O 0.0830(3) 0.8631(5) 0.0489(5)
O18_2 O 0.0115(3) 0.7570(8) 0.0728(6)
O19_2 O 0.7910(3) 0.6729(3) 0.5683(3)
O22_2 O 0.7603(2) 0.8759(4) 0.6177(3)
O14_2 O 0.1387(4) 0.9831(7) 0.9246(6)
O15_2 O 0.1190(5) 0.8035(7) 0.8250(7)
N5_2 N 0.0872(6) 0.8339(8) 0.6736(8)
C28_2 C 0.1213(7) 0.8413(11) 0.7538(11)
H28_2 H 0.1537 0.8856 0.7532
C29_2 C 0.0529(7) 0.7417(10) 0.6698(9)
H29_2 H 0.0304 0.7345 0.6099
H30_2 H 0.0253 0.7435 0.7154
H31_2 H 0.0800 0.6856 0.6817
C30_2 C 0.0885(7) 0.8888(11) 0.5907(9)
H32_2 H 0.0671 0.8520 0.5404
H33_2 H 0.1299 0.8984 0.5797
H34_2 H 0.0696 0.9533 0.5959
O17_2 O 0.0751(3) 0.7229(6) 0.9787(5)
O20_2 O 0.2090(3) 0.6729(3) 0.9317(3)
O21_2 O 0.2397(2) 0.8759(4) 0.8823(3)
O14_3 O 0.3613(4) 0.5169(7) 0.0754(6)
N4_3 N 0.3338(5) 0.3637(9) 0.1333(7)
C25_3 C 0.3237(7) 0.4464(11) 0.0842(9)
H21_3 H 0.2850 0.4540 0.0525
C26_3 C 0.2873(6) 0.2915(10) 0.1414(10)
H22_3 H 0.3014 0.2426 0.1875
H23_3 H 0.2521 0.3251 0.1588
H24_3 H 0.2769 0.2581 0.0834
C27_3 C 0.3906(6) 0.3544(11) 0.1842(9)
H25_3 H 0.3929 0.2913 0.2166
H26_3 H 0.4213 0.3567 0.1436
H27_3 H 0.3967 0.4088 0.2276
O15_3 O 0.3810(5) 0.6965(7) 0.1750(7)
N5_3 N 0.4128(6) 0.6661(8) 0.3264(8)
C28_3 C 0.3787(7) 0.6587(11) 0.2462(11)
H28_3 H 0.3463 0.6144 0.2468
C29_3 C 0.4471(7) 0.7583(10) 0.3302(9)
H29_3 H 0.4696 0.7655 0.3901
H30_3 H 0.4747 0.7565 0.2846
H31_3 H 0.4200 0.8144 0.3183
C30_3 C 0.4115(7) 0.6112(11) 0.4093(9)
H32_3 H 0.4329 0.6480 0.4596
H33_3 H 0.3701 0.6016 0.4203
H34_3 H 0.4304 0.5467 0.4041
O17_3 O 0.4249(3) 0.7771(6) 0.0213(5)
O11_3 O 0.2836(2) 0.5712(4) 0.9138(3)
O13_2 O 0.1780(2) 0.2783(4) 0.6032(3)
C16_3 C 0.0916(3) 0.4862(5) 0.7582(5)
C17_3 C 0.1279(3) 0.5450(6) 0.8197(5)
H18_3 H 0.1103 0.5880 0.8591
C18_3 C 0.1904(3) 0.5406(5) 0.8235(4)
C19_3 C 0.2157(3) 0.4776(5) 0.7630(5)
H19_3 H 0.2576 0.4747 0.7646
C20_3 C 0.1800(3) 0.4198(5) 0.7013(4)
C21_3 C 0.1177(3) 0.4211(5) 0.6986(5)
H20_3 H 0.0936 0.3796 0.6581
C22_3 C 0.0276(3) 0.4879(5) 0.7537(5)
C23_3 C 0.2299(3) 0.6007(5) 0.8932(4)
C24_3 C 0.2088(3) 0.3517(5) 0.6354(5)
N6_3 N 0.4461(3) 0.7180(8) 0.9668(6)
O16_3 O 0.4170(3) 0.6369(5) 0.9511(5)
O18_3 O 0.4885(3) 0.7430(8) 0.9272(6)
O23_2 O 0.3220(2) 0.7783(4) 0.8968(3)
O2_3 O 0.7164(2) 0.5712(4) 0.5862(3)
O4_2 O 0.8220(2) 0.2783(4) 0.8968(3)
C1_3 C 0.9084(3) 0.4862(5) 0.7418(5)
C2_3 C 0.8721(3) 0.5450(6) 0.6803(5)
H1_3 H 0.8897 0.5880 0.6409
C3_3 C 0.8096(3) 0.5406(5) 0.6765(4)
C4_3 C 0.7843(3) 0.4776(5) 0.7370(5)
H2_3 H 0.7424 0.4747 0.7354
C5_3 C 0.8200(3) 0.4198(5) 0.7987(4)
C6_3 C 0.8823(3) 0.4211(5) 0.8014(5)
H3_3 H 0.9064 0.3796 0.8419
C7_3 C 0.9724(3) 0.4879(5) 0.7463(5)
C8_3 C 0.7701(3) 0.6007(5) 0.6068(4)
C9_3 C 0.7912(3) 0.3517(5) 0.8646(5)
O5_3 O 0.6387(4) 0.5169(7) 0.4246(6)
N1_3 N 0.6662(5) 0.3637(9) 0.3667(7)
C10_3 C 0.6763(7) 0.4464(11) 0.4158(9)
H4_3 H 0.7150 0.4540 0.4475
C11_3 C 0.7127(6) 0.2915(10) 0.3586(10)
H5_3 H 0.6986 0.2426 0.3125
H6_3 H 0.7479 0.3251 0.3412
H7_3 H 0.7231 0.2581 0.4166
C12_3 C 0.6094(6) 0.3544(11) 0.3158(9)
H8_3 H 0.6071 0.2913 0.2834
H9_3 H 0.5787 0.3567 0.3564
H10_3 H 0.6033 0.4088 0.2724
O6_3 O 0.6190(5) 0.6965(7) 0.3250(7)
N2_3 N 0.5872(6) 0.6661(8) 0.1736(8)
C13_3 C 0.6213(7) 0.6587(11) 0.2538(11)
H11_3 H 0.6537 0.6144 0.2532
C14_3 C 0.5529(7) 0.7583(10) 0.1698(9)
H12_3 H 0.5304 0.7655 0.1099
H13_3 H 0.5253 0.7565 0.2154
H14_3 H 0.5800 0.8144 0.1817
C15_3 C 0.5885(7) 0.6112(11) 0.0907(9)
H15_3 H 0.5671 0.6480 0.0404
H16_3 H 0.6299 0.6016 0.0797
H17_3 H 0.5696 0.5467 0.0959
N3_3 N 0.5539(3) 0.7180(8) 0.5332(6)
O7_3 O 0.5830(3) 0.6369(5) 0.5489(5)
O8_3 O 0.5751(3) 0.7771(6) 0.4787(5)
O9_3 O 0.5115(3) 0.7430(8) 0.5728(6)
O24_2 O 0.6780(2) 0.7783(4) 0.6032(3)
O14_4 O 0.8613(4) 0.0169(7) 0.0754(6)
O15_4 O 0.8810(5) 0.1965(7) 0.1750(7)
N5_4 N 0.9128(6) 0.1661(8) 0.3264(8)
C28_4 C 0.8787(7) 0.1587(11) 0.2462(11)
H28_4 H 0.8463 0.1144 0.2468
C29_4 C 0.9471(7) 0.2583(10) 0.3302(9)
H29_4 H 0.9696 0.2655 0.3901
H30_4 H 0.9747 0.2565 0.2846
H31_4 H 0.9200 0.3144 0.3183
C30_4 C 0.9115(7) 0.1112(11) 0.4093(9)
H32_4 H 0.9329 0.1480 0.4596
H33_4 H 0.8701 0.1016 0.4203
H34_4 H 0.9304 0.0467 0.4041
O17_4 O 0.9249(3) 0.2771(6) 0.0213(5)
O2_4 O 0.2164(2) 0.0712(4) 0.5862(3)
C2_4 C 0.3721(3) 0.0450(6) 0.6803(5)
H1_4 H 0.3897 0.0880 0.6409
C3_4 C 0.3096(3) 0.0406(5) 0.6765(4)
C8_4 C 0.2701(3) 0.1007(5) 0.6068(4)
O5_4 O 0.1387(4) 0.0169(7) 0.4246(6)
O6_4 O 0.1190(5) 0.1965(7) 0.3250(7)
N2_4 N 0.0872(6) 0.1661(8) 0.1736(8)
C13_4 C 0.1213(7) 0.1587(11) 0.2538(11)
H11_4 H 0.1537 0.1144 0.2532
C14_4 C 0.0529(7) 0.2583(10) 0.1698(9)
H12_4 H 0.0304 0.2655 0.1099
H13_4 H 0.0253 0.2565 0.2154
H14_4 H 0.0800 0.3144 0.1817
C15_4 C 0.0885(7) 0.1112(11) 0.0907(9)
H15_4 H 0.0671 0.1480 0.0404
H16_4 H 0.1299 0.1016 0.0797
H17_4 H 0.0696 0.0467 0.0959
N3_4 N 0.0539(3) 0.2180(8) 0.5332(6)
O7_4 O 0.0830(3) 0.1369(5) 0.5489(5)
O8_4 O 0.0751(3) 0.2771(6) 0.4787(5)
O9_4 O 0.0115(3) 0.2430(8) 0.5728(6)
O11_4 O 0.7836(2) 0.0712(4) 0.9138(3)
C17_4 C 0.6279(3) 0.0450(6) 0.8197(5)
H18_4 H 0.6103 0.0880 0.8591
C18_4 C 0.6904(3) 0.0406(5) 0.8235(4)
C23_4 C 0.7299(3) 0.1007(5) 0.8932(4)
N6_4 N 0.9461(3) 0.2180(8) 0.9668(6)
O16_4 O 0.9170(3) 0.1369(5) 0.9511(5)
O18_4 O 0.9885(3) 0.2430(8) 0.9272(6)
N4_4 N 0.8338(5) 0.8637(9) 0.1333(7)
C25_4 C 0.8237(7) 0.9464(11) 0.0842(9)
H21_4 H 0.7850 0.9540 0.0525
C26_4 C 0.7873(6) 0.7915(10) 0.1414(10)
H22_4 H 0.8014 0.7426 0.1875
H23_4 H 0.7521 0.8251 0.1588
H24_4 H 0.7769 0.7581 0.0834
C27_4 C 0.8906(6) 0.8544(11) 0.1842(9)
H25_4 H 0.8929 0.7913 0.2166
H26_4 H 0.9213 0.8567 0.1436
H27_4 H 0.8967 0.9088 0.2276
C1_4 C 0.4084(3) 0.9862(5) 0.7418(5)
C4_4 C 0.2843(3) 0.9776(5) 0.7370(5)
H2_4 H 0.2424 0.9747 0.7354
C5_4 C 0.3200(3) 0.9198(5) 0.7987(4)
C6_4 C 0.3823(3) 0.9211(5) 0.8014(5)
H3_4 H 0.4064 0.8796 0.8419
C7_4 C 0.4724(3) 0.9879(5) 0.7463(5)
C9_4 C 0.2912(3) 0.8517(5) 0.8646(5)
N1_4 N 0.1662(5) 0.8637(9) 0.3667(7)
C10_4 C 0.1763(7) 0.9464(11) 0.4158(9)
H4_4 H 0.2150 0.9540 0.4475
C11_4 C 0.2127(6) 0.7915(10) 0.3586(10)
H5_4 H 0.1986 0.7426 0.3125
H6_4 H 0.2479 0.8251 0.3412
H7_4 H 0.2231 0.7581 0.4166
C12_4 C 0.1094(6) 0.8544(11) 0.3158(9)
H8_4 H 0.1071 0.7913 0.2834
H9_4 H 0.0787 0.8567 0.3564
H10_4 H 0.1033 0.9088 0.2724
C16_4 C 0.5916(3) 0.9862(5) 0.7582(5)
C19_4 C 0.7157(3) 0.9776(5) 0.7630(5)
H19_4 H 0.7576 0.9747 0.7646
C20_4 C 0.6800(3) 0.9198(5) 0.7013(4)
C21_4 C 0.6177(3) 0.9211(5) 0.6986(5)
H20_4 H 0.5936 0.8796 0.6581
C22_4 C 0.5276(3) 0.9879(5) 0.7537(5)
C24_4 C 0.7088(3) 0.8517(5) 0.6354(5)
loop_
_geom_bond_atom_site_label_1
_geom_bond_atom_site_label_2
_geom_bond_site_symmetry_1
_geom_bond_site_symmetry_2
Er1 O2 1_555 1_555
O1 C8 1_555 1_555
O2 C8 1_555 1_555
O3 C9 1_555 1_555
O4 C9 1_555 1_555
C1 C2 1_555 1_555
C2 H1 1_555 1_555
C3 C2 1_555 1_555
C4 C3 1_555 1_555
H2 C4 1_555 1_555
C5 C4 1_555 1_555
C6 C1 1_555 1_555
H3 C6 1_555 1_555
C7 C1 1_555 1_555
C8 C3 1_555 1_555
C9 C5 1_555 1_555
O5 Er1 1_555 1_555
N1 C10 1_555 1_555
C10 O5 1_555 1_555
H4 C10 1_555 1_555
C11 N1 1_555 1_555
H5 C11 1_555 1_555
H6 C11 1_555 1_555
H7 C11 1_555 1_555
C12 N1 1_555 1_555
H8 C12 1_555 1_555
H9 C12 1_555 1_555
H10 C12 1_555 1_555
O6 Er1 1_555 1_555
N2 C13 1_555 1_555
C13 O6 1_555 1_555
H11 C13 1_555 1_555
C14 N2 1_555 1_555
H12 C14 1_555 1_555
H13 C14 1_555 1_555
H14 C14 1_555 1_555
C15 N2 1_555 1_555
H15 C15 1_555 1_555
H16 C15 1_555 1_555
H17 C15 1_555 1_555
N3 O7 1_555 1_555
O7 Er1 1_555 1_555
O8 Er1 1_555 1_555
O9 N3 1_555 1_555
Er6 O3 1_555 1_555
Er7 O1 1_555 1_555
O19 Er1 1_555 1_555
O22 Er1 1_555 1_555
O24 Er1 1_555 1_555
C5 C6 1_555 1_555
N3 O8 1_555 1_555
O10 C23 1_555 1_555
O11 C23 1_555 1_555
O12 C24 1_555 1_555
O13 C24 1_555 1_555
C16 C17 1_555 1_555
C17 H18 1_555 1_555
C18 C17 1_555 1_555
C19 C18 1_555 1_555
H19 C19 1_555 1_555
C20 C19 1_555 1_555
C21 C16 1_555 1_555
H20 C21 1_555 1_555
C23 C18 1_555 1_555
C24 C20 1_555 1_555
N6 O16 1_555 1_555
O18 N6 1_555 1_555
Er3 O13 1_555 1_555
Er5 O12 1_555 1_555
Er8 O10 1_555 1_555
C16 C22 1_555 1_555
C20 C21 1_555 1_555
O14 Er2 1_555 1_555
N4 C25 1_555 1_555
C25 O14 1_555 1_555
H21 C25 1_555 1_555
C26 N4 1_555 1_555
H22 C26 1_555 1_555
H23 C26 1_555 1_555
H24 C26 1_555 1_555
C27 N4 1_555 1_555
H25 C27 1_555 1_555
H26 C27 1_555 1_555
H27 C27 1_555 1_555
O15 Er2 1_555 1_555
N5 C28 1_555 1_555
C28 O15 1_555 1_555
H28 C28 1_555 1_555
C29 N5 1_555 1_555
H29 C29 1_555 1_555
H30 C29 1_555 1_555
H31 C29 1_555 1_555
C30 N5 1_555 1_555
H32 C30 1_555 1_555
H33 C30 1_555 1_555
H34 C30 1_555 1_555
O17 Er2 1_555 1_555
O20 Er2 1_555 1_555
O21 Er2 1_555 1_555
O3_2 C9_2 1_555 1_555
O23 C9_2 1_555 1_555
H2_2 C4_2 1_555 1_555
C5_2 C4_2 1_555 1_555
C6_2 C1_2 1_555 1_555
H3_2 C6_2 1_555 1_555
C7_2 C1_2 1_555 1_555
C9_2 C5_2 1_555 1_555
N1_2 C10_2 1_555 1_555
H4_2 C10_2 1_555 1_555
C11_2 N1_2 1_555 1_555
H5_2 C11_2 1_555 1_555
H6_2 C11_2 1_555 1_555
H7_2 C11_2 1_555 1_555
C12_2 N1_2 1_555 1_555
H8_2 C12_2 1_555 1_555
H9_2 C12_2 1_555 1_555
H10_2 C12_2 1_555 1_555
O12_2 C24_2 1_555 1_555
O24 C24_2 1_555 1_555
H19_2 C19_2 1_555 1_555
C20_2 C19_2 1_555 1_555
C21_2 C16_2 1_555 1_555
H20_2 C21_2 1_555 1_555
C22_2 C7_2 1_555 1_555
C24_2 C20_2 1_555 1_555
Er7 O12_2 1_555 1_555
Er8 O3_2 1_555 1_555
C5_2 C6_2 1_555 1_555
C16_2 C22_2 1_555 1_555
C20_2 C21_2 1_555 1_555
N4_2 C25_2 1_555 1_555
H21_2 C25_2 1_555 1_555
C26_2 N4_2 1_555 1_555
H22_2 C26_2 1_555 1_555
H23_2 C26_2 1_555 1_555
H24_2 C26_2 1_555 1_555
C27_2 N4_2 1_555 1_555
H25_2 C27_2 1_555 1_555
H26_2 C27_2 1_555 1_555
H27_2 C27_2 1_555 1_555
Er3 O2_2 1_555 1_555
O1_2 C8_2 1_555 1_555
O2_2 C8_2 1_555 1_555
C2_2 H1_2 1_555 1_555
C3_2 C2_2 1_555 1_555
C8_2 C3_2 1_555 1_555
O5_2 Er3 1_555 1_555
O6_2 Er3 1_555 1_555
N2_2 C13_2 1_555 1_555
C13_2 O6_2 1_555 1_555
H11_2 C13_2 1_555 1_555
C14_2 N2_2 1_555 1_555
H12_2 C14_2 1_555 1_555
H13_2 C14_2 1_555 1_555
H14_2 C14_2 1_555 1_555
C15_2 N2_2 1_555 1_555
H15_2 C15_2 1_555 1_555
H16_2 C15_2 1_555 1_555
H17_2 C15_2 1_555 1_555
N3_2 O7_2 1_555 1_555
O7_2 Er3 1_555 1_555
O8_2 Er3 1_555 1_555
O9_2 N3_2 1_555 1_555
O10_2 C23_2 1_555 1_555
O11_2 C23_2 1_555 1_555
C17_2 H18_2 1_555 1_555
C18_2 C17_2 1_555 1_555
C23_2 C18_2 1_555 1_555
N6_2 O16_2 1_555 1_555
O18_2 N6_2 1_555 1_555
Er5 O1_2 1_555 1_555
Er6 O10_2 1_555 1_555
O19_2 Er3 1_555 1_555
O22_2 Er3 1_555 1_555
N3_2 O8_2 1_555 1_555
O14_2 Er4 1_555 1_555
O15_2 Er4 1_555 1_555
N5_2 C28_2 1_555 1_555
C28_2 O15_2 1_555 1_555
H28_2 C28_2 1_555 1_555
C29_2 N5_2 1_555 1_555
H29_2 C29_2 1_555 1_555
H30_2 C29_2 1_555 1_555
H31_2 C29_2 1_555 1_555
C30_2 N5_2 1_555 1_555
H32_2 C30_2 1_555 1_555
H33_2 C30_2 1_555 1_555
H34_2 C30_2 1_555 1_555
O17_2 Er4 1_555 1_555
O20_2 Er4 1_555 1_555
O21_2 Er4 1_555 1_555
O14_3 Er6 1_555 1_555
N4_3 C25_3 1_555 1_555
C25_3 O14_3 1_555 1_555
H21_3 C25_3 1_555 1_555
C26_3 N4_3 1_555 1_555
H22_3 C26_3 1_555 1_555
H23_3 C26_3 1_555 1_555
H24_3 C26_3 1_555 1_555
C27_3 N4_3 1_555 1_555
H25_3 C27_3 1_555 1_555
H26_3 C27_3 1_555 1_555
H27_3 C27_3 1_555 1_555
O15_3 Er6 1_555 1_555
N5_3 C28_3 1_555 1_555
C28_3 O15_3 1_555 1_555
H28_3 C28_3 1_555 1_555
C29_3 N5_3 1_555 1_555
H29_3 C29_3 1_555 1_555
H30_3 C29_3 1_555 1_555
H31_3 C29_3 1_555 1_555
C30_3 N5_3 1_555 1_555
H32_3 C30_3 1_555 1_555
H33_3 C30_3 1_555 1_555
H34_3 C30_3 1_555 1_555
O17_3 Er6 1_555 1_555
O20_2 C23_3 1_555 1_555
O11_3 C23_3 1_555 1_555
O22 C24_3 1_555 1_555
O13_2 C24_3 1_555 1_555
C16_3 C17_3 1_555 1_555
C17_3 H18_3 1_555 1_555
C18_3 C17_3 1_555 1_555
C19_3 C18_3 1_555 1_555
H19_3 C19_3 1_555 1_555
C20_3 C19_3 1_555 1_555
C21_3 C16_3 1_555 1_555
H20_3 C21_3 1_555 1_555
C23_3 C18_3 1_555 1_555
C24_3 C20_3 1_555 1_555
N6_3 O16_3 1_555 1_555
O18_3 N6_3 1_555 1_555
Er7 O13_2 1_555 1_555
C16_3 C22_3 1_555 1_555
C20_3 C21_3 1_555 1_555
Er5 O2_3 1_555 1_555
O19_2 C8_3 1_555 1_555
O2_3 C8_3 1_555 1_555
O21 C9_3 1_555 1_555
O4_2 C9_3 1_555 1_555
C1_3 C2_3 1_555 1_555
C2_3 H1_3 1_555 1_555
C3_3 C2_3 1_555 1_555
C4_3 C3_3 1_555 1_555
H2_3 C4_3 1_555 1_555
C5_3 C4_3 1_555 1_555
C6_3 C1_3 1_555 1_555
H3_3 C6_3 1_555 1_555
C7_3 C1_3 1_555 1_555
C8_3 C3_3 1_555 1_555
C9_3 C5_3 1_555 1_555
O5_3 Er5 1_555 1_555
N1_3 C10_3 1_555 1_555
C10_3 O5_3 1_555 1_555
H4_3 C10_3 1_555 1_555
C11_3 N1_3 1_555 1_555
H5_3 C11_3 1_555 1_555
H6_3 C11_3 1_555 1_555
H7_3 C11_3 1_555 1_555
C12_3 N1_3 1_555 1_555
H8_3 C12_3 1_555 1_555
H9_3 C12_3 1_555 1_555
H10_3 C12_3 1_555 1_555
O6_3 Er5 1_555 1_555
N2_3 C13_3 1_555 1_555
C13_3 O6_3 1_555 1_555
H11_3 C13_3 1_555 1_555
C14_3 N2_3 1_555 1_555
H12_3 C14_3 1_555 1_555
H13_3 C14_3 1_555 1_555
H14_3 C14_3 1_555 1_555
C15_3 N2_3 1_555 1_555
H15_3 C15_3 1_555 1_555
H16_3 C15_3 1_555 1_555
H17_3 C15_3 1_555 1_555
N3_3 O7_3 1_555 1_555
O7_3 Er5 1_555 1_555
O8_3 Er5 1_555 1_555
O9_3 N3_3 1_555 1_555
O24_2 Er5 1_555 1_555
C5_3 C6_3 1_555 1_555
N3_3 O8_3 1_555 1_555
O14_4 Er8 1_555 1_555
O15_4 Er8 1_555 1_555
N5_4 C28_4 1_555 1_555
C28_4 O15_4 1_555 1_555
H28_4 C28_4 1_555 1_555
C29_4 N5_4 1_555 1_555
H29_4 C29_4 1_555 1_555
H30_4 C29_4 1_555 1_555
H31_4 C29_4 1_555 1_555
C30_4 N5_4 1_555 1_555
H32_4 C30_4 1_555 1_555
H33_4 C30_4 1_555 1_555
H34_4 C30_4 1_555 1_555
O17_4 Er8 1_555 1_555
Er7 O2_4 1_555 1_555
O19 C8_4 1_555 1_555
O2_4 C8_4 1_555 1_555
C2_4 H1_4 1_555 1_555
C3_4 C2_4 1_555 1_555
C8_4 C3_4 1_555 1_555
O5_4 Er7 1_555 1_555
O6_4 Er7 1_555 1_555
N2_4 C13_4 1_555 1_555
C13_4 O6_4 1_555 1_555
H11_4 C13_4 1_555 1_555
C14_4 N2_4 1_555 1_555
H12_4 C14_4 1_555 1_555
H13_4 C14_4 1_555 1_555
H14_4 C14_4 1_555 1_555
C15_4 N2_4 1_555 1_555
H15_4 C15_4 1_555 1_555
H16_4 C15_4 1_555 1_555
H17_4 C15_4 1_555 1_555
N3_4 O7_4 1_555 1_555
O7_4 Er7 1_555 1_555
O8_4 Er7 1_555 1_555
O9_4 N3_4 1_555 1_555
O20 C23_4 1_555 1_555
O11_4 C23_4 1_555 1_555
C17_4 H18_4 1_555 1_555
C18_4 C17_4 1_555 1_555
C23_4 C18_4 1_555 1_555
N6_4 O16_4 1_555 1_555
O18_4 N6_4 1_555 1_555
N3_4 O8_4 1_555 1_555
N4_4 C25_4 1_555 1_555
H21_4 C25_4 1_555 1_555
C26_4 N4_4 1_555 1_555
H22_4 C26_4 1_555 1_555
H23_4 C26_4 1_555 1_555
H24_4 C26_4 1_555 1_555
C27_4 N4_4 1_555 1_555
H25_4 C27_4 1_555 1_555
H26_4 C27_4 1_555 1_555
H27_4 C27_4 1_555 1_555
O21_2 C9_4 1_555 1_555
O23_2 C9_4 1_555 1_555
H2_4 C4_4 1_555 1_555
C5_4 C4_4 1_555 1_555
C6_4 C1_4 1_555 1_555
H3_4 C6_4 1_555 1_555
C7_4 C1_4 1_555 1_555
C9_4 C5_4 1_555 1_555
N1_4 C10_4 1_555 1_555
H4_4 C10_4 1_555 1_555
C11_4 N1_4 1_555 1_555
H5_4 C11_4 1_555 1_555
H6_4 C11_4 1_555 1_555
H7_4 C11_4 1_555 1_555
C12_4 N1_4 1_555 1_555
H8_4 C12_4 1_555 1_555
H9_4 C12_4 1_555 1_555
H10_4 C12_4 1_555 1_555
O22_2 C24_4 1_555 1_555
O24_2 C24_4 1_555 1_555
H19_4 C19_4 1_555 1_555
C20_4 C19_4 1_555 1_555
C21_4 C16_4 1_555 1_555
H20_4 C21_4 1_555 1_555
C22_4 C7_4 1_555 1_555
C24_4 C20_4 1_555 1_555
C5_4 C6_4 1_555 1_555
C16_4 C22_4 1_555 1_555
C20_4 C21_4 1_555 1_555

#END
