
###############################################################################
#
# This file contains modified crystal structure data generated from the
# MOF subset of the Cambridge Structural Database (CSD) v543 
# hosted by the Cambridge Crystallographic Data Centre (CCDC).
#
# This work is licensed under the Creative Commons
# Attribution-NonCommercial-ShareAlike 4.0 International License.
# To view a copy of this license, visit
# http://creativecommons.org/licenses/by-nc-sa/4.0/
# or send a letter to
# Creative Commons, PO Box 1866, Mountain View, CA 94042, USA.
#
# CIF created using the CSD Python API on 29 September 2022
# The structure has been converted into the P1 space group
# The structure has a 3D framework
# The original CSD entry SOTXIK is in the monoclinic crystal system
# The framework has been calculated to contain at least 10.0% void space
# The void calculation uses a probe of radius 1.32A, grid spacing 0.4
# The framework is charged, counterions have been retained in the structure
# H atom positions have been added when not included in the experimental data
#
###############################################################################

data_SOTXIK
_chemical_formula_moiety         '(C156 H84 Eu8 N4 O72 8-)n'
_symmetry_cell_setting           triclinic
_symmetry_space_group_name_H-M   'P 1'
_symmetry_Int_Tables_number      1
_space_group_name_Hall           'P 1'
loop_
_symmetry_equiv_pos_site_id
_symmetry_equiv_pos_as_xyz
1 x,y,z
_cell_length_a                   14.558(3)
_cell_length_b                   18.271(4)
_cell_length_c                   21.899(4)
_cell_angle_alpha                90
_cell_angle_beta                 112.12(3)
_cell_angle_gamma                90
_cell_volume                     5396.17
loop_
_atom_site_label
_atom_site_type_symbol
_atom_site_fract_x
_atom_site_fract_y
_atom_site_fract_z
Eu8 Eu 0.302726(17) 0.217725(16) 0.077742(12)
O5 O 0.1757(3) 0.3626(3) 0.5699(2)
O6 O 0.0256(4) 0.3465(3) 0.5731(3)
O7 O 0.2849(4) 0.6699(3) 0.7172(3)
O8 O 0.3255(4) 0.6147(3) 0.6439(3)
O13 O 0.1878(3) 0.2420(3) 0.9641(2)
O14 O 0.3433(3) 0.2625(3) 0.9816(2)
O15 O 0.4425(3) 0.2921(2) 0.7893(2)
O16 O 0.3322(3) 0.2912(4) 0.6888(2)
C8 C 0.0174(5) 0.5173(4) 0.7522(4)
C9 C 0.0792(5) 0.5105(4) 0.7150(3)
C10 C 0.0662(5) 0.4503(3) 0.6736(3)
H4 H 0.0191 0.4150 0.6716
C11 C 0.1236(4) 0.4423(3) 0.6350(3)
C12 C 0.1949(5) 0.4955(4) 0.6401(3)
H5 H 0.2359 0.4895 0.6167
C13 C 0.2060(4) 0.5565(4) 0.6790(3)
C14 C 0.1489(5) 0.5641(4) 0.7172(3)
H6 H 0.1570 0.6048 0.7441
C17 C 0.1056(4) 0.3781(4) 0.5891(3)
C18 C 0.2777(4) 0.6173(4) 0.6809(3)
C26 C 0.0008(4) 0.2633(4) 0.7180(3)
C27 C 0.1027(3) 0.2663(3) 0.7608(2)
C28 C 0.1302(4) 0.2590(4) 0.8277(3)
H10 H 0.0815 0.2519 0.8450
C29 C 0.2291(4) 0.2620(3) 0.8703(3)
C30 C 0.3034(4) 0.2704(3) 0.8449(3)
H11 H 0.3697 0.2721 0.8731
C31 C 0.2775(3) 0.2761(3) 0.7772(2)
C32 C 0.1790(4) 0.2723(4) 0.7349(3)
H12 H 0.1625 0.2738 0.6896
C35 C 0.2555(4) 0.2554(3) 0.9430(3)
C36 C 0.3583(4) 0.2869(4) 0.7499(3)
Eu3 Eu 0.608444(17) 0.246177(15) 0.817653(12)
Eu4 Eu 0.391556(17) 0.746177(15) 0.682347(12)
Eu7 Eu 0.302726(17) 0.282275(16) 0.577742(12)
N1 N 0.7621(14) 0.9901(10) 0.0271(10)
C39 C 0.8429(16) 0.9420(13) 0.0783(11)
O25 O 0.8122(3) 0.7580(3) 0.0359(2)
O26 O 0.6567(3) 0.7375(3) 0.0184(2)
H17 H 0.878566 0.907769 0.0529529
H18 H 0.89809 0.977143 0.113515
H19 H 0.808607 0.907416 0.104274
Eu2 Eu 0.697274(17) 0.782275(16) 0.922258(12)
O1 O 0.7542(3) 0.3218(2) 0.8259(2)
O2 O 0.6332(3) 0.3796(2) 0.8424(2)
O3 O 0.8252(3) 0.6988(2) 0.9099(2)
O4 O 0.6801(4) 0.6509(3) 0.8943(3)
O9 O 0.5814(3) 0.2890(3) 0.71100(19)
O10 O 0.4696(4) 0.2660(4) 0.6119(2)
O11 O 0.5704(3) 0.2687(3) 0.4184(2)
O12 O 0.7272(3) 0.2490(3) 0.4357(2)
C1 C 0.8909(5) 0.5189(4) 0.8113(3)
C2 C 0.8431(5) 0.4535(4) 0.8120(3)
H1 H 0.8612 0.4111 0.7958
C3 C 0.7670(4) 0.4508(4) 0.8371(3)
C4 C 0.7419(4) 0.5140(4) 0.8615(3)
H2 H 0.6903 0.5129 0.8767
C5 C 0.7919(4) 0.5793(4) 0.8639(3)
C6 C 0.8683(5) 0.5819(4) 0.8393(3)
H3 H 0.9034 0.6250 0.8416
C7 C 0.9627(5) 0.5209(4) 0.7813(4)
C15 C 0.7164(4) 0.3797(3) 0.8356(3)
C16 C 0.7648(4) 0.6468(4) 0.8910(3)
C19 C 0.8120(3) 0.2648(3) 0.6403(2)
C20 C 0.7379(4) 0.2680(3) 0.6672(2)
H7 H 0.7550 0.2700 0.7126
C21 C 0.6386(4) 0.2683(3) 0.6247(3)
C22 C 0.6124(4) 0.2646(3) 0.5566(2)
H8 H 0.5458 0.2645 0.5289
C23 C 0.6852(3) 0.2611(3) 0.5298(2)
C24 C 0.7846(4) 0.2601(4) 0.5724(3)
H9 H 0.8336 0.2563 0.5550
C25 C 0.9141(4) 0.2633(4) 0.6833(3)
C33 C 0.5579(3) 0.2745(4) 0.6517(3)
C34 C 0.6593(4) 0.2590(3) 0.4573(3)
O17 O 0.6619(6) 0.8921(5) 0.9692(4)
C37 C 0.6863(17) 0.9602(13) 0.9788(12)
O18 O 0.4933(5) 0.1545(4) 0.7456(4)
Eu5 Eu 0.608444(17) 0.253823(15) 0.317653(12)
O19 O 0.8243(3) 0.8626(3) 0.9301(2)
O20 O 0.7151(4) 0.1699(3) 0.7828(3)
O21 O 0.6745(4) 0.1147(3) 0.8561(3)
O22 O 0.5304(4) 0.7660(4) 0.8881(2)
O23 O 0.5704(3) 0.2313(3) 0.9184(2)
O24 O 0.7272(3) 0.2510(3) 0.9357(2)
O28 O 0.6678(3) 0.7912(4) 0.8112(2)
H13 H 0.638262 0.99817 0.942401
H20 H 0.531326 0.110831 0.741694
H21 H 0.444337 0.139867 0.764932
O3_2 O 0.1748(3) 0.1988(2) 0.5901(2)
O4_2 O 0.3199(4) 0.1509(3) 0.6057(3)
C1_2 C 0.1091(5) 0.0189(4) 0.6887(3)
C4_2 C 0.2581(4) 0.0140(4) 0.6385(3)
H2_2 H 0.3097 0.0129 0.6233
C5_2 C 0.2081(4) 0.0793(4) 0.6361(3)
C6_2 C 0.1317(5) 0.0819(4) 0.6607(3)
H3_2 H 0.0966 0.1250 0.6584
C7_2 C 0.0373(5) 0.0209(4) 0.7187(4)
C16_2 C 0.2352(4) 0.1468(4) 0.6090(3)
O17_2 O 0.3381(6) 0.3921(5) 0.5308(4)
N1_2 N 0.2379(14) 0.4901(10) 0.4729(10)
C37_2 C 0.3137(17) 0.4602(13) 0.5212(12)
C38 C 0.1984(16) 0.5676(13) 0.4719(11)
C39_2 C 0.1571(16) 0.4420(13) 0.4217(11)
O25_2 O 0.1878(3) 0.2580(3) 0.4641(2)
O26_2 O 0.3433(3) 0.2375(3) 0.4816(2)
H13_2 H 0.361738 0.49817 0.557599
H14 H 0.256702 0.606906 0.47609
H15 H 0.135683 0.576596 0.425791
H16 H 0.174615 0.574628 0.513105
H17_2 H 0.121434 0.407769 0.447047
H18_2 H 0.10191 0.477143 0.386485
H19_2 H 0.191393 0.407416 0.395726
O11_2 O 0.4296(3) 0.7687(3) 0.0816(2)
O12_2 O 0.2728(3) 0.7490(3) 0.0643(2)
C34_2 C 0.3407(4) 0.7590(3) 0.0427(3)
Eu5_2 Eu 0.391556(17) 0.753823(15) 0.182347(12)
O1_2 O 0.2458(3) 0.8218(2) 0.6741(2)
O2_2 O 0.3668(3) 0.8796(2) 0.6576(2)
O9_2 O 0.4186(3) 0.7890(3) 0.78900(19)
C2_2 C 0.1569(5) 0.9535(4) 0.6880(3)
H1_2 H 0.1388 0.9111 0.7042
C3_2 C 0.2330(4) 0.9508(4) 0.6629(3)
C15_2 C 0.2836(4) 0.8797(3) 0.6644(3)
C19_2 C 0.1880(3) 0.7648(3) 0.8597(2)
C20_2 C 0.2621(4) 0.7680(3) 0.8328(2)
H7_2 H 0.2450 0.7700 0.7874
C21_2 C 0.3614(4) 0.7683(3) 0.8753(3)
C22_2 C 0.3876(4) 0.7646(3) 0.9434(2)
H8_2 H 0.4542 0.7645 0.9711
C23_2 C 0.3148(3) 0.7611(3) 0.9702(2)
C24_2 C 0.2154(4) 0.7601(4) 0.9276(3)
H9_2 H 0.1664 0.7563 0.9450
C25_2 C 0.0859(4) 0.7633(4) 0.8167(3)
C33_2 C 0.4421(3) 0.7745(4) 0.8483(3)
O18_2 O 0.5067(5) 0.6545(4) 0.7544(4)
O23_2 O 0.4296(3) 0.7313(3) 0.5816(2)
O24_2 O 0.2728(3) 0.7510(3) 0.5643(2)
O27 O 0.5575(3) 0.7921(2) 0.7107(2)
H20_2 H 0.468674 0.610831 0.758306
H21_2 H 0.555663 0.639867 0.735068
C8_2 C 0.9826(5) 0.0173(4) 0.7478(4)
C9_2 C 0.9208(5) 0.0105(4) 0.7850(3)
C13_2 C 0.7940(4) 0.0565(4) 0.8210(3)
C14_2 C 0.8511(5) 0.0641(4) 0.7828(3)
H6_2 H 0.8430 0.1048 0.7559
C18_2 C 0.7223(4) 0.1173(4) 0.8191(3)
O6_2 O 0.9744(4) 0.8465(3) 0.9269(3)
O13_2 O 0.8122(3) 0.7420(3) 0.5359(2)
O14_2 O 0.6567(3) 0.7625(3) 0.5184(2)
C10_2 C 0.9338(5) 0.9503(3) 0.8264(3)
H4_2 H 0.9809 0.9150 0.8284
C11_2 C 0.8764(4) 0.9423(3) 0.8650(3)
C12_2 C 0.8051(5) 0.9955(4) 0.8599(3)
H5_2 H 0.7641 0.9895 0.8833
C17_2 C 0.8944(4) 0.8781(4) 0.9109(3)
C26_2 C 0.9992(4) 0.7633(4) 0.7820(3)
C27_2 C 0.8973(3) 0.7663(3) 0.7392(2)
C28_2 C 0.8698(4) 0.7590(4) 0.6723(3)
H10_2 H 0.9185 0.7519 0.6550
C29_2 C 0.7709(4) 0.7620(3) 0.6297(3)
C30_2 C 0.6966(4) 0.7704(3) 0.6551(3)
H11_2 H 0.6303 0.7721 0.6269
C31_2 C 0.7225(3) 0.7761(3) 0.7228(2)
C32_2 C 0.8210(4) 0.7723(4) 0.7651(3)
H12_2 H 0.8375 0.7738 0.8104
C35_2 C 0.7445(4) 0.7554(3) 0.5570(3)
C36_2 C 0.6417(4) 0.7869(4) 0.7501(3)
Eu8_2 Eu 0.697274(17) 0.717725(16) 0.422258(12)
O1_3 O 0.2458(3) 0.6782(2) 0.1741(2)
O2_3 O 0.3668(3) 0.6204(2) 0.1576(2)
O3_3 O 0.1748(3) 0.3012(2) 0.0901(2)
O4_3 O 0.3199(4) 0.3491(3) 0.1057(3)
O9_3 O 0.4186(3) 0.7110(3) 0.28900(19)
O10_2 O 0.5304(4) 0.7340(4) 0.3881(2)
C1_3 C 0.1091(5) 0.4811(4) 0.1887(3)
C2_3 C 0.1569(5) 0.5465(4) 0.1880(3)
H1_3 H 0.1388 0.5889 0.2042
C3_3 C 0.2330(4) 0.5492(4) 0.1629(3)
C4_3 C 0.2581(4) 0.4860(4) 0.1385(3)
H2_3 H 0.3097 0.4871 0.1233
C5_3 C 0.2081(4) 0.4207(4) 0.1361(3)
C6_3 C 0.1317(5) 0.4181(4) 0.1607(3)
H3_3 H 0.0966 0.3750 0.1584
C7_3 C 0.0373(5) 0.4791(4) 0.2187(4)
C15_3 C 0.2836(4) 0.6203(3) 0.1644(3)
C16_3 C 0.2352(4) 0.3532(4) 0.1090(3)
C19_3 C 0.1880(3) 0.7352(3) 0.3597(2)
C20_3 C 0.2621(4) 0.7320(3) 0.3328(2)
H7_3 H 0.2450 0.7300 0.2874
C21_3 C 0.3614(4) 0.7317(3) 0.3753(3)
C22_3 C 0.3876(4) 0.7354(3) 0.4434(2)
H8_3 H 0.4542 0.7355 0.4711
C23_3 C 0.3148(3) 0.7389(3) 0.4702(2)
C24_3 C 0.2154(4) 0.7399(4) 0.4276(3)
H9_3 H 0.1664 0.7437 0.4450
C25_3 C 0.0859(4) 0.7367(4) 0.3167(3)
C33_3 C 0.4421(3) 0.7255(4) 0.3483(3)
C34_3 C 0.3407(4) 0.7410(3) 0.5427(3)
O17_3 O 0.3381(6) 0.1079(5) 0.0308(4)
C37_3 C 0.3137(17) 0.0398(13) 0.0212(12)
O18_3 O 0.5067(5) 0.8455(4) 0.2544(4)
O19_2 O 0.1757(3) 0.1374(3) 0.0699(2)
O20_2 O 0.2849(4) 0.8301(3) 0.2172(3)
O21_2 O 0.3255(4) 0.8853(3) 0.1439(3)
O22_2 O 0.4696(4) 0.2340(4) 0.1119(2)
O27_2 O 0.5575(3) 0.7079(2) 0.2107(2)
O28_2 O 0.3322(3) 0.2088(4) 0.1888(2)
H13_3 H 0.361738 0.00183049 0.0575994
H20_3 H 0.468674 0.889169 0.258306
H21_3 H 0.555663 0.860133 0.235068
N1_3 N 0.2379(14) 0.0099(10) 0.9729(10)
C39_3 C 0.1571(16) 0.0580(13) 0.9217(11)
H17_3 H 0.121434 0.0922306 0.947047
H18_3 H 0.10191 0.0228575 0.886485
H19_3 H 0.191393 0.0925843 0.895726
O5_2 O 0.8243(3) 0.6374(3) 0.4301(2)
O6_3 O 0.9744(4) 0.6535(3) 0.4269(3)
O7_2 O 0.7151(4) 0.3301(3) 0.2828(3)
O8_2 O 0.6745(4) 0.3853(3) 0.3561(3)
O16_2 O 0.6678(3) 0.7088(4) 0.3112(2)
C8_3 C 0.9826(5) 0.4827(4) 0.2478(4)
C9_3 C 0.9208(5) 0.4895(4) 0.2850(3)
C10_3 C 0.9338(5) 0.5497(3) 0.3264(3)
H4_3 H 0.9809 0.5850 0.3284
C11_3 C 0.8764(4) 0.5577(3) 0.3650(3)
C12_3 C 0.8051(5) 0.5045(4) 0.3599(3)
H5_3 H 0.7641 0.5105 0.3833
C13_3 C 0.7940(4) 0.4435(4) 0.3210(3)
C14_3 C 0.8511(5) 0.4359(4) 0.2828(3)
H6_3 H 0.8430 0.3952 0.2559
C17_3 C 0.8944(4) 0.6219(4) 0.4109(3)
C18_3 C 0.7223(4) 0.3827(4) 0.3191(3)
C26_3 C 0.9992(4) 0.7367(4) 0.2820(3)
C27_3 C 0.8973(3) 0.7337(3) 0.2392(2)
C28_3 C 0.8698(4) 0.7410(4) 0.1723(3)
H10_3 H 0.9185 0.7481 0.1550
C29_3 C 0.7709(4) 0.7380(3) 0.1297(3)
C30_3 C 0.6966(4) 0.7296(3) 0.1551(3)
H11_3 H 0.6303 0.7279 0.1269
C31_3 C 0.7225(3) 0.7239(3) 0.2228(2)
C32_3 C 0.8210(4) 0.7277(4) 0.2651(3)
H12_3 H 0.8375 0.7262 0.3104
C35_3 C 0.7445(4) 0.7446(3) 0.0570(3)
C36_3 C 0.6417(4) 0.7131(4) 0.2501(3)
O6_4 O 0.0256(4) 0.1535(3) 0.0731(3)
O15_2 O 0.4425(3) 0.2079(2) 0.2893(2)
C10_4 C 0.0662(5) 0.0497(3) 0.1736(3)
H4_4 H 0.0191 0.0850 0.1716
C11_4 C 0.1236(4) 0.0577(3) 0.1350(3)
C12_4 C 0.1949(5) 0.0045(4) 0.1401(3)
H5_4 H 0.2359 0.0105 0.1167
C17_4 C 0.1056(4) 0.1219(4) 0.0891(3)
C26_4 C 0.0008(4) 0.2367(4) 0.2180(3)
C27_4 C 0.1027(3) 0.2337(3) 0.2608(2)
C28_4 C 0.1302(4) 0.2410(4) 0.3277(3)
H10_4 H 0.0815 0.2481 0.3450
C29_4 C 0.2291(4) 0.2380(3) 0.3703(3)
C30_4 C 0.3034(4) 0.2296(3) 0.3449(3)
H11_4 H 0.3697 0.2279 0.3731
C31_4 C 0.2775(3) 0.2239(3) 0.2772(2)
C32_4 C 0.1790(4) 0.2277(4) 0.2349(3)
H12_4 H 0.1625 0.2262 0.1896
C35_4 C 0.2555(4) 0.2446(3) 0.4430(3)
C36_4 C 0.3583(4) 0.2131(4) 0.2499(3)
C8_4 C 0.0174(5) 0.9827(4) 0.2522(4)
C9_4 C 0.0792(5) 0.9895(4) 0.2150(3)
C13_4 C 0.2060(4) 0.9435(4) 0.1790(3)
C14_4 C 0.1489(5) 0.9359(4) 0.2172(3)
H6_4 H 0.1570 0.8952 0.2441
C18_4 C 0.2777(4) 0.8827(4) 0.1809(3)
O1_4 O 0.7542(3) 0.1782(2) 0.3259(2)
O2_4 O 0.6332(3) 0.1204(2) 0.3424(2)
O9_4 O 0.5814(3) 0.2110(3) 0.21100(19)
C2_4 C 0.8431(5) 0.0465(4) 0.3120(3)
H1_4 H 0.8612 0.0889 0.2958
C3_4 C 0.7670(4) 0.0492(4) 0.3371(3)
C15_4 C 0.7164(4) 0.1203(3) 0.3356(3)
C19_4 C 0.8120(3) 0.2352(3) 0.1403(2)
C20_4 C 0.7379(4) 0.2320(3) 0.1672(2)
H7_4 H 0.7550 0.2300 0.2126
C21_4 C 0.6386(4) 0.2317(3) 0.1247(3)
C22_4 C 0.6124(4) 0.2354(3) 0.0566(2)
H8_4 H 0.5458 0.2355 0.0289
C23_4 C 0.6852(3) 0.2389(3) 0.0298(2)
C24_4 C 0.7846(4) 0.2399(4) 0.0724(3)
H9_4 H 0.8336 0.2437 0.0550
C25_4 C 0.9141(4) 0.2367(4) 0.1833(3)
C33_4 C 0.5579(3) 0.2255(4) 0.1517(3)
O18_4 O 0.4933(5) 0.3455(4) 0.2456(4)
H20_4 H 0.531326 0.389169 0.241694
H21_4 H 0.444337 0.360133 0.264932
C34_4 C 0.6593(4) 0.2410(3) 0.9573(3)
O3_4 O 0.8252(3) 0.8012(2) 0.4099(2)
O4_4 O 0.6801(4) 0.8491(3) 0.3943(3)
C1_4 C 0.8909(5) 0.9811(4) 0.3113(3)
C4_4 C 0.7419(4) 0.9860(4) 0.3615(3)
H2_4 H 0.6903 0.9871 0.3767
C5_4 C 0.7919(4) 0.9207(4) 0.3639(3)
C6_4 C 0.8683(5) 0.9181(4) 0.3393(3)
H3_4 H 0.9034 0.8750 0.3416
C7_4 C 0.9627(5) 0.9791(4) 0.2813(4)
C16_4 C 0.7648(4) 0.8532(4) 0.3910(3)
O17_4 O 0.6619(6) 0.6079(5) 0.4692(4)
N1_4 N 0.7621(14) 0.5099(10) 0.5271(10)
C37_4 C 0.6863(17) 0.5398(13) 0.4788(12)
C38_2 C 0.8016(16) 0.4324(13) 0.5281(11)
C39_4 C 0.8429(16) 0.5580(13) 0.5783(11)
H13_4 H 0.638262 0.50183 0.442401
H14_2 H 0.743298 0.393094 0.52391
H15_2 H 0.864317 0.423404 0.574209
H16_2 H 0.825385 0.425372 0.486895
H17_4 H 0.878566 0.592231 0.552953
H18_4 H 0.89809 0.522857 0.613515
H19_4 H 0.808607 0.592584 0.604274
C38_3 C 0.8016(16) 0.0676(13) 0.0281(11)
H14_3 H 0.743298 0.106906 0.0239099
H15_3 H 0.864317 0.0765955 0.074209
H16_3 H 0.825385 0.0746278 0.986895
H16_4 H 0.174615 0.925372 0.0131049
C38_4 C 0.1984(16) 0.9324(13) 0.9719(11)
H14_4 H 0.256702 0.893094 0.97609
H15_4 H 0.135683 0.923404 0.925791
loop_
_geom_bond_atom_site_label_1
_geom_bond_atom_site_label_2
_geom_bond_site_symmetry_1
_geom_bond_site_symmetry_2
O5 C17 1_555 1_555
O6 C17 1_555 1_555
O7 C18 1_555 1_555
O8 C18 1_555 1_555
O13 C35 1_555 1_555
O14 C35 1_555 1_555
O15 C36 1_555 1_555
O16 C36 1_555 1_555
C9 C8 1_555 1_555
C10 C9 1_555 1_555
H4 C10 1_555 1_555
C11 C10 1_555 1_555
C12 C11 1_555 1_555
H5 C12 1_555 1_555
C13 C12 1_555 1_555
C14 C9 1_555 1_555
H6 C14 1_555 1_555
C17 C11 1_555 1_555
C18 C13 1_555 1_555
C27 C26 1_555 1_555
C28 C27 1_555 1_555
H10 C28 1_555 1_555
C29 C28 1_555 1_555
C30 C29 1_555 1_555
H11 C30 1_555 1_555
C31 C30 1_555 1_555
C32 C27 1_555 1_555
H12 C32 1_555 1_555
C35 C29 1_555 1_555
C36 C31 1_555 1_555
Eu3 O15 1_555 1_555
Eu4 O7 1_555 1_555
Eu7 O5 1_555 1_555
O8 Eu4 1_555 1_555
O16 Eu7 1_555 1_555
C13 C14 1_555 1_555
C31 C32 1_555 1_555
C39 N1 1_555 1_555
C39 H17 1_555 1_555
C39 H18 1_555 1_555
C39 H19 1_555 1_555
Eu3 O1 1_555 1_555
Eu2 O3 1_555 1_555
O1 C15 1_555 1_555
O2 Eu3 1_555 1_555
O3 C16 1_555 1_555
O4 Eu2 1_555 1_555
O9 Eu3 1_555 1_555
O10 C33 1_555 1_555
O11 C34 1_555 1_555
O12 C34 1_555 1_555
C1 C2 1_555 1_555
C2 H1 1_555 1_555
C3 C2 1_555 1_555
C4 C3 1_555 1_555
H2 C4 1_555 1_555
C5 C4 1_555 1_555
C6 C1 1_555 1_555
H3 C6 1_555 1_555
C7 C1 1_555 1_555
C15 O2 1_555 1_555
C16 O4 1_555 1_555
C19 C20 1_555 1_555
C20 H7 1_555 1_555
C21 C20 1_555 1_555
C22 C21 1_555 1_555
H8 C22 1_555 1_555
C23 C22 1_555 1_555
C24 C19 1_555 1_555
H9 C24 1_555 1_555
C25 C19 1_555 1_555
C33 O9 1_555 1_555
C34 C23 1_555 1_555
O17 Eu2 1_555 1_555
C37 O17 1_555 1_555
O18 Eu3 1_555 1_555
Eu5 O11 1_555 1_555
Eu7 O10 1_555 1_555
O19 Eu2 1_555 1_555
O20 Eu3 1_555 1_555
O21 Eu3 1_555 1_555
O22 Eu2 1_555 1_555
O23 Eu3 1_555 1_555
O24 Eu3 1_555 1_555
O28 Eu2 1_555 1_555
O12 Eu5 1_555 1_555
C3 C15 1_555 1_555
C5 C6 1_555 1_555
C5 C16 1_555 1_555
C21 C33 1_555 1_555
C23 C24 1_555 1_555
C37 H13 1_555 1_555
O18 H20 1_555 1_555
O18 H21 1_555 1_555
Eu7 O3_2 1_555 1_555
O3_2 C16_2 1_555 1_555
O4_2 Eu7 1_555 1_555
H2_2 C4_2 1_555 1_555
C5_2 C4_2 1_555 1_555
C6_2 C1_2 1_555 1_555
H3_2 C6_2 1_555 1_555
C7_2 C1_2 1_555 1_555
C16_2 O4_2 1_555 1_555
O17_2 Eu7 1_555 1_555
N1_2 C37_2 1_555 1_555
C37_2 O17_2 1_555 1_555
C38 N1_2 1_555 1_555
C39_2 N1_2 1_555 1_555
O25_2 Eu7 1_555 1_555
O26_2 Eu7 1_555 1_555
C5_2 C6_2 1_555 1_555
C5_2 C16_2 1_555 1_555
C37_2 H13_2 1_555 1_555
C38 H14 1_555 1_555
C38 H15 1_555 1_555
C38 H16 1_555 1_555
C39_2 H17_2 1_555 1_555
C39_2 H18_2 1_555 1_555
C39_2 H19_2 1_555 1_555
O11_2 C34_2 1_555 1_555
O12_2 C34_2 1_555 1_555
Eu5_2 O11_2 1_555 1_555
O12_2 Eu5_2 1_555 1_555
Eu4 O1_2 1_555 1_555
O1_2 C15_2 1_555 1_555
O2_2 Eu4 1_555 1_555
O9_2 Eu4 1_555 1_555
O22 C33_2 1_555 1_555
C2_2 H1_2 1_555 1_555
C3_2 C2_2 1_555 1_555
C15_2 O2_2 1_555 1_555
C19_2 C20_2 1_555 1_555
C20_2 H7_2 1_555 1_555
C21_2 C20_2 1_555 1_555
C22_2 C21_2 1_555 1_555
H8_2 C22_2 1_555 1_555
C23_2 C22_2 1_555 1_555
C24_2 C19_2 1_555 1_555
H9_2 C24_2 1_555 1_555
C25_2 C19_2 1_555 1_555
C33_2 O9_2 1_555 1_555
O18_2 Eu4 1_555 1_555
O23_2 Eu4 1_555 1_555
O24_2 Eu4 1_555 1_555
O27 Eu4 1_555 1_555
C3_2 C15_2 1_555 1_555
C21_2 C33_2 1_555 1_555
C23_2 C24_2 1_555 1_555
O18_2 H20_2 1_555 1_555
O18_2 H21_2 1_555 1_555
O20 C18_2 1_555 1_555
O21 C18_2 1_555 1_555
C9_2 C8_2 1_555 1_555
C14_2 C9_2 1_555 1_555
H6_2 C14_2 1_555 1_555
C18_2 C13_2 1_555 1_555
C13_2 C14_2 1_555 1_555
O19 C17_2 1_555 1_555
O6_2 C17_2 1_555 1_555
O13_2 C35_2 1_555 1_555
O14_2 C35_2 1_555 1_555
O27 C36_2 1_555 1_555
O28 C36_2 1_555 1_555
H4_2 C10_2 1_555 1_555
C11_2 C10_2 1_555 1_555
C12_2 C11_2 1_555 1_555
H5_2 C12_2 1_555 1_555
C17_2 C11_2 1_555 1_555
C27_2 C26_2 1_555 1_555
C28_2 C27_2 1_555 1_555
H10_2 C28_2 1_555 1_555
C29_2 C28_2 1_555 1_555
C30_2 C29_2 1_555 1_555
H11_2 C30_2 1_555 1_555
C31_2 C30_2 1_555 1_555
C32_2 C27_2 1_555 1_555
H12_2 C32_2 1_555 1_555
C35_2 C29_2 1_555 1_555
C36_2 C31_2 1_555 1_555
Eu8_2 O13_2 1_555 1_555
O14_2 Eu8_2 1_555 1_555
C31_2 C32_2 1_555 1_555
Eu5_2 O1_3 1_555 1_555
Eu8 O3_3 1_555 1_555
O1_3 C15_3 1_555 1_555
O2_3 Eu5_2 1_555 1_555
O3_3 C16_3 1_555 1_555
O4_3 Eu8 1_555 1_555
O9_3 Eu5_2 1_555 1_555
O10_2 C33_3 1_555 1_555
O23_2 C34_3 1_555 1_555
O24_2 C34_3 1_555 1_555
C1_3 C2_3 1_555 1_555
C2_3 H1_3 1_555 1_555
C3_3 C2_3 1_555 1_555
C4_3 C3_3 1_555 1_555
H2_3 C4_3 1_555 1_555
C5_3 C4_3 1_555 1_555
C6_3 C1_3 1_555 1_555
H3_3 C6_3 1_555 1_555
C7_3 C1_3 1_555 1_555
C15_3 O2_3 1_555 1_555
C16_3 O4_3 1_555 1_555
C19_3 C20_3 1_555 1_555
C20_3 H7_3 1_555 1_555
C21_3 C20_3 1_555 1_555
C22_3 C21_3 1_555 1_555
H8_3 C22_3 1_555 1_555
C23_3 C22_3 1_555 1_555
C24_3 C19_3 1_555 1_555
H9_3 C24_3 1_555 1_555
C25_3 C19_3 1_555 1_555
C33_3 O9_3 1_555 1_555
C34_3 C23_3 1_555 1_555
O17_3 Eu8 1_555 1_555
C37_3 O17_3 1_555 1_555
O18_3 Eu5_2 1_555 1_555
Eu8_2 O10_2 1_555 1_555
O19_2 Eu8 1_555 1_555
O20_2 Eu5_2 1_555 1_555
O21_2 Eu5_2 1_555 1_555
O22_2 Eu8 1_555 1_555
O27_2 Eu5_2 1_555 1_555
O28_2 Eu8 1_555 1_555
C3_3 C15_3 1_555 1_555
C5_3 C6_3 1_555 1_555
C5_3 C16_3 1_555 1_555
C21_3 C33_3 1_555 1_555
C23_3 C24_3 1_555 1_555
C37_3 H13_3 1_555 1_555
O18_3 H20_3 1_555 1_555
O18_3 H21_3 1_555 1_555
C39_3 N1_3 1_555 1_555
C39_3 H17_3 1_555 1_555
C39_3 H18_3 1_555 1_555
C39_3 H19_3 1_555 1_555
O5_2 C17_3 1_555 1_555
O6_3 C17_3 1_555 1_555
O7_2 C18_3 1_555 1_555
O8_2 C18_3 1_555 1_555
O25 C35_3 1_555 1_555
O26 C35_3 1_555 1_555
O27_2 C36_3 1_555 1_555
O16_2 C36_3 1_555 1_555
C9_3 C8_3 1_555 1_555
C10_3 C9_3 1_555 1_555
H4_3 C10_3 1_555 1_555
C11_3 C10_3 1_555 1_555
C12_3 C11_3 1_555 1_555
H5_3 C12_3 1_555 1_555
C13_3 C12_3 1_555 1_555
C14_3 C9_3 1_555 1_555
H6_3 C14_3 1_555 1_555
C17_3 C11_3 1_555 1_555
C18_3 C13_3 1_555 1_555
C27_3 C26_3 1_555 1_555
C28_3 C27_3 1_555 1_555
H10_3 C28_3 1_555 1_555
C29_3 C28_3 1_555 1_555
C30_3 C29_3 1_555 1_555
H11_3 C30_3 1_555 1_555
C31_3 C30_3 1_555 1_555
C32_3 C27_3 1_555 1_555
H12_3 C32_3 1_555 1_555
C35_3 C29_3 1_555 1_555
C36_3 C31_3 1_555 1_555
Eu5 O7_2 1_555 1_555
Eu8_2 O5_2 1_555 1_555
O8_2 Eu5 1_555 1_555
O16_2 Eu8_2 1_555 1_555
C13_3 C14_3 1_555 1_555
C31_3 C32_3 1_555 1_555
O19_2 C17_4 1_555 1_555
O6_4 C17_4 1_555 1_555
O25_2 C35_4 1_555 1_555
O26_2 C35_4 1_555 1_555
O15_2 C36_4 1_555 1_555
O28_2 C36_4 1_555 1_555
H4_4 C10_4 1_555 1_555
C11_4 C10_4 1_555 1_555
C12_4 C11_4 1_555 1_555
H5_4 C12_4 1_555 1_555
C17_4 C11_4 1_555 1_555
C27_4 C26_4 1_555 1_555
C28_4 C27_4 1_555 1_555
H10_4 C28_4 1_555 1_555
C29_4 C28_4 1_555 1_555
C30_4 C29_4 1_555 1_555
H11_4 C30_4 1_555 1_555
C31_4 C30_4 1_555 1_555
C32_4 C27_4 1_555 1_555
H12_4 C32_4 1_555 1_555
C35_4 C29_4 1_555 1_555
C36_4 C31_4 1_555 1_555
Eu5 O15_2 1_555 1_555
C31_4 C32_4 1_555 1_555
O20_2 C18_4 1_555 1_555
O21_2 C18_4 1_555 1_555
C9_4 C8_4 1_555 1_555
C14_4 C9_4 1_555 1_555
H6_4 C14_4 1_555 1_555
C18_4 C13_4 1_555 1_555
C13_4 C14_4 1_555 1_555
Eu5 O1_4 1_555 1_555
O1_4 C15_4 1_555 1_555
O2_4 Eu5 1_555 1_555
O9_4 Eu5 1_555 1_555
O22_2 C33_4 1_555 1_555
C2_4 H1_4 1_555 1_555
C3_4 C2_4 1_555 1_555
C15_4 O2_4 1_555 1_555
C19_4 C20_4 1_555 1_555
C20_4 H7_4 1_555 1_555
C21_4 C20_4 1_555 1_555
C22_4 C21_4 1_555 1_555
H8_4 C22_4 1_555 1_555
C23_4 C22_4 1_555 1_555
C24_4 C19_4 1_555 1_555
H9_4 C24_4 1_555 1_555
C25_4 C19_4 1_555 1_555
C33_4 O9_4 1_555 1_555
O18_4 Eu5 1_555 1_555
C3_4 C15_4 1_555 1_555
C21_4 C33_4 1_555 1_555
C23_4 C24_4 1_555 1_555
O18_4 H20_4 1_555 1_555
O18_4 H21_4 1_555 1_555
O23 C34_4 1_555 1_555
O24 C34_4 1_555 1_555
Eu8_2 O3_4 1_555 1_555
O3_4 C16_4 1_555 1_555
O4_4 Eu8_2 1_555 1_555
H2_4 C4_4 1_555 1_555
C5_4 C4_4 1_555 1_555
C6_4 C1_4 1_555 1_555
H3_4 C6_4 1_555 1_555
C7_4 C1_4 1_555 1_555
C16_4 O4_4 1_555 1_555
O17_4 Eu8_2 1_555 1_555
N1_4 C37_4 1_555 1_555
C37_4 O17_4 1_555 1_555
C38_2 N1_4 1_555 1_555
C39_4 N1_4 1_555 1_555
C5_4 C6_4 1_555 1_555
C5_4 C16_4 1_555 1_555
C37_4 H13_4 1_555 1_555
C38_2 H14_2 1_555 1_555
C38_2 H15_2 1_555 1_555
C38_2 H16_2 1_555 1_555
C39_4 H17_4 1_555 1_555
C39_4 H18_4 1_555 1_555
C39_4 H19_4 1_555 1_555
C38_3 H14_3 1_555 1_555
C38_3 H15_3 1_555 1_555
C38_4 H14_4 1_555 1_555
C38_4 H15_4 1_555 1_555

#END
