
###############################################################################
#
# This file contains modified crystal structure data generated from the
# MOF subset of the Cambridge Structural Database (CSD) v543 
# hosted by the Cambridge Crystallographic Data Centre (CCDC).
#
# This work is licensed under the Creative Commons
# Attribution-NonCommercial-ShareAlike 4.0 International License.
# To view a copy of this license, visit
# http://creativecommons.org/licenses/by-nc-sa/4.0/
# or send a letter to
# Creative Commons, PO Box 1866, Mountain View, CA 94042, USA.
#
# CIF created using the CSD Python API on 29 September 2022
# The structure has been converted into the P1 space group
# The structure has a 3D framework
# The original CSD entry SOVHOA is in the triclinic crystal system
# The framework has been calculated to contain at least 10.0% void space
# The void calculation uses a probe of radius 1.32A, grid spacing 0.4
# H atom positions have been added when not included in the experimental data
#
###############################################################################

data_SOVHOA
_chemical_formula_moiety         '(C12 H22 Cd7 N6 Ni1)n'
_symmetry_cell_setting           triclinic
_symmetry_space_group_name_H-M   'P 1'
_symmetry_Int_Tables_number      1
_space_group_name_Hall           'P 1'
loop_
_symmetry_equiv_pos_site_id
_symmetry_equiv_pos_as_xyz
1 x,y,z
_cell_length_a                   11.52(1)
_cell_length_b                   7.632(3)
_cell_length_c                   7.039(4)
_cell_angle_alpha                88.93(4)
_cell_angle_beta                 109.71(5)
_cell_angle_gamma                82.81(9)
_cell_volume                     576.804
loop_
_atom_site_label
_atom_site_type_symbol
_atom_site_fract_x
_atom_site_fract_y
_atom_site_fract_z
Cd1 Cd -0.00000 0.00000 0.00000
Ni1 Ni -0.00000 0.50000 0.50000
N1 N 0.0466(4) 0.2174(5) 0.2357(6)
C1 C 0.0309(4) 0.3234(5) 0.3379(6)
C15 C 0.0486(4) 0.6642(5) 0.3542(6)
H22 H 0.23413 0.10193 0.05102
Cd1_2 Cd -0.00000 0.00000 1.00000
Cd1_3 Cd -0.00000 1.00000 0.00000
N6 N 0.0723(5) 0.7673(5) 0.2585(6)
H21 H 0.25187 0.86970 0.07808
Cd1_4 Cd -0.00000 1.00000 1.00000
N7 N 0.1960(4) 0.9856(6) 0.9849(6)
H23 H 0.194355 0.979005 0.840146
Cd1_5 Cd 1.00000 0.00000 0.00000
Ni1_2 Ni 1.00000 0.50000 0.50000
N3 N 0.8040(4) 0.0144(6) 0.0151(6)
C3 C 0.7869(4) 0.0250(8) 0.2138(7)
C4 C 0.6546(4) 0.0185(8) 0.2011(8)
C5 C 0.6420(4) 0.0171(9) 0.4119(8)
C6 C 0.5084(4) 0.0029(8) 0.3974(7)
H3 H 0.81530 0.14743 0.27624
H5 H 0.59517 0.13300 0.10968
H7 H 0.66904 0.13788 0.48136
H9 H 0.44748 0.11565 0.30590
H14 H 0.15367 0.08451 0.68712
H16 H 0.37674 0.09952 0.87115
H18 H 0.29266 0.09414 0.49500
H20 H 0.51870 0.11642 0.67576
C13 C 0.9691(4) 0.6766(5) 0.6621(6)
C14 C 0.9514(4) 0.3358(5) 0.6458(6)
Cd1_6 Cd 1.00000 0.00000 1.00000
N2 N 0.9277(5) 0.2327(5) 0.7415(6)
H1 H 0.74813 0.13030 0.92192
Cd1_7 Cd 1.00000 1.00000 0.00000
H4 H 0.84633 0.91549 0.31288
H6 H 0.62326 0.90048 0.12885
H8 H 0.70734 0.90586 0.50500
H10 H 0.48130 0.88358 0.32424
C7 C 0.4916(4) 0.9971(8) 0.6026(7)
C8 C 0.3580(4) 0.9829(9) 0.5881(8)
C9 C 0.3454(4) 0.9815(8) 0.7989(8)
C10 C 0.2131(4) 0.9750(8) 0.7862(7)
H13 H 0.18470 0.85257 0.72376
H15 H 0.40483 0.86700 0.89032
H17 H 0.33096 0.86212 0.51864
H19 H 0.55252 0.88435 0.69410
Cd1_8 Cd 1.00000 1.00000 1.00000
H2 H 0.76587 0.89807 0.94898
N5 N 0.9534(4) 0.7826(5) 0.7643(6)
H23_2 H 0.805645 0.0209948 0.159854
loop_
_geom_bond_atom_site_label_1
_geom_bond_atom_site_label_2
_geom_bond_site_symmetry_1
_geom_bond_site_symmetry_2
Cd1 N1 1_555 1_555
Ni1 C1 1_555 1_555
N1 C1 1_555 1_555
C15 Ni1 1_555 1_555
N6 Cd1_3 1_555 1_555
C15 N6 1_555 1_555
N7 Cd1_4 1_555 1_555
N7 H23 1_555 1_555
N3 Cd1_5 1_555 1_555
C3 N3 1_555 1_555
C4 C3 1_555 1_555
C5 C4 1_555 1_555
C6 C5 1_555 1_555
H3 C3 1_555 1_555
H5 C4 1_555 1_555
H7 C5 1_555 1_555
H9 C6 1_555 1_555
C13 Ni1_2 1_555 1_555
C14 Ni1_2 1_555 1_555
N2 Cd1_6 1_555 1_555
C14 N2 1_555 1_555
C8 C7 1_555 1_555
C9 C8 1_555 1_555
C10 C9 1_555 1_555
N7 C10 1_555 1_555
H13 C10 1_555 1_555
H15 C9 1_555 1_555
H17 C8 1_555 1_555
H19 C7 1_555 1_555
N5 Cd1_8 1_555 1_555
C13 N5 1_555 1_555
N3 H23_2 1_555 1_555

#END
