
###############################################################################
#
# This file contains modified crystal structure data generated from the
# MOF subset of the Cambridge Structural Database (CSD) v543 
# hosted by the Cambridge Crystallographic Data Centre (CCDC).
#
# This work is licensed under the Creative Commons
# Attribution-NonCommercial-ShareAlike 4.0 International License.
# To view a copy of this license, visit
# http://creativecommons.org/licenses/by-nc-sa/4.0/
# or send a letter to
# Creative Commons, PO Box 1866, Mountain View, CA 94042, USA.
#
# CIF created using the CSD Python API on 29 September 2022
# The structure has been converted into the P1 space group
# The structure has a 3D framework
# The original CSD entry SOVPAV01 is in the triclinic crystal system
# The framework has been calculated to contain at least 10.0% void space
# The void calculation uses a probe of radius 1.32A, grid spacing 0.4
#
###############################################################################

data_SOVPAV01
_chemical_formula_moiety         '(C8 H8 O10 Pb2)n'
_symmetry_cell_setting           triclinic
_symmetry_space_group_name_H-M   'P 1'
_symmetry_Int_Tables_number      1
_space_group_name_Hall           'P 1'
loop_
_symmetry_equiv_pos_site_id
_symmetry_equiv_pos_as_xyz
1 x,y,z
_cell_length_a                   7.0728(11)
_cell_length_b                   7.6433(11)
_cell_length_c                   8.0169(12)
_cell_angle_alpha                80.232(2)
_cell_angle_beta                 77.939(2)
_cell_angle_gamma                71.039(2)
_cell_volume                     398.393
loop_
_atom_site_label
_atom_site_type_symbol
_atom_site_fract_x
_atom_site_fract_y
_atom_site_fract_z
_atom_site_U_iso_or_equiv
_atom_site_thermal_displace_type
O9 O 0.0398(8) 0.6886(7) 0.4014(7) 0.0262 Uani
H3 H 0.4226 0.1769 0.0428 0.0250 Uiso
Pb1 Pb 0.33858(3) 0.32176(3) 0.43923(3) 0.0177 Uani
O1 O 0.3119(8) 0.3136(7) 0.7568(6) 0.0223 Uani
O2 O 0.4497(9) 0.0255(7) 0.6893(7) 0.0309 Uani
O5 O 0.5741(8) 0.4161(8) 0.1461(7) 0.0295 Uani
H1 H 0.6702 0.3423 0.0854 0.0440 Uiso
H2 H 0.5976 0.5096 0.1718 0.0440 Uiso
C1 C 0.4031(10) 0.1417(9) 0.7943(9) 0.0170 Uani
C2 C 0.4557(11) 0.0846(10) 0.9704(9) 0.0206 Uani
O11 O 0.6741(7) 0.3570(6) 0.5050(7) 0.0224 Uani
O12 O 0.3259(7) 0.6430(6) 0.4950(7) 0.0224 Uani
Pb2 Pb 0.66142(3) 0.67824(3) 0.56077(3) 0.0177 Uani
O6 O 0.6881(8) 0.6864(7) 0.2432(6) 0.0223 Uani
O7 O 0.5503(9) 0.9745(7) 0.3107(7) 0.0309 Uani
O15 O 0.4259(8) 0.5839(8) 0.8539(7) 0.0295 Uani
H5 H 0.3298 0.6577 0.9146 0.0440 Uiso
H6 H 0.4024 0.4904 0.8282 0.0440 Uiso
C5 C 0.5969(10) 0.8583(9) 0.2057(9) 0.0170 Uani
C6 C 0.5443(11) 0.9154(10) 0.0296(9) 0.0206 Uani
H7 H 0.5774 0.8231 0.9572 0.0250 Uiso
C7 C 0.1517(10) 0.7448(9) 0.4679(9) 0.0182 Uani
C8 C 0.0845(10) 0.9361(9) 0.5198(10) 0.0186 Uani
H8 H 0.1632 0.9678 0.5822 0.0220 Uiso
O3 O 0.9602(8) 0.3114(7) 0.5986(7) 0.0262 Uani
C3 C 0.8483(10) 0.2552(9) 0.5321(9) 0.0182 Uani
C4 C 0.9155(10) 0.0639(9) 0.4802(10) 0.0186 Uani
H4 H 0.8368 0.0322 0.4178 0.0220 Uiso
loop_
_atom_site_aniso_label
_atom_site_aniso_U_11
_atom_site_aniso_U_22
_atom_site_aniso_U_33
_atom_site_aniso_U_23
_atom_site_aniso_U_13
_atom_site_aniso_U_12
O9 0.027 0.021 0.034 -0.007 -0.008 -0.008
Pb1 0.0199 0.0167 0.0159 -0.00352 -0.00163 -0.00479
O1 0.029 0.024 0.011 0.002 -0.003 -0.006
O2 0.046 0.026 0.019 -0.007 -0.012 -0.002
O5 0.034 0.035 0.024 -0.009 -0.001 -0.016
C1 0.014 0.021 0.016 -0.006 0 -0.005
C2 0.027 0.027 0.009 -0.004 -0.001 -0.01
O11 0.017 0.014 0.033 -0.002 -0.006 0.0005
O12 0.017 0.014 0.033 -0.002 -0.006 0.0005
Pb2 0.0199 0.0167 0.0159 -0.00352 -0.00163 -0.00479
O6 0.029 0.024 0.011 0.002 -0.003 -0.006
O7 0.046 0.026 0.019 -0.007 -0.012 -0.002
O15 0.034 0.035 0.024 -0.009 -0.001 -0.016
C5 0.014 0.021 0.016 -0.006 0 -0.005
C6 0.027 0.027 0.009 -0.004 -0.001 -0.01
C7 0.016 0.014 0.021 0.001 0 -0.003
C8 0.016 0.015 0.025 -0.006 -0.002 -0.004
O3 0.027 0.021 0.034 -0.007 -0.008 -0.008
C3 0.016 0.014 0.021 0.001 0 -0.003
C4 0.016 0.015 0.025 -0.006 -0.002 -0.004
loop_
_geom_bond_atom_site_label_1
_geom_bond_atom_site_label_2
_geom_bond_site_symmetry_1
_geom_bond_site_symmetry_2
Pb1 O1 1_555 1_555
O1 C1 1_555 1_555
O2 C1 1_555 1_555
O5 Pb1 1_555 1_555
H1 O5 1_555 1_555
H2 O5 1_555 1_555
C1 C2 1_555 1_555
O11 Pb1 1_555 1_555
O12 Pb1 1_555 1_555
Pb2 O6 1_555 1_555
O6 C5 1_555 1_555
O7 C5 1_555 1_555
O12 Pb2 1_555 1_555
O11 Pb2 1_555 1_555
O15 Pb2 1_555 1_555
H5 O15 1_555 1_555
H6 O15 1_555 1_555
C5 C6 1_555 1_555
O9 C7 1_555 1_555
O12 C7 1_555 1_555
C7 C8 1_555 1_555
H8 C8 1_555 1_555
O11 C3 1_555 1_555
C3 O3 1_555 1_555
C4 C3 1_555 1_555
H4 C4 1_555 1_555

#END
