
###############################################################################
#
# This file contains modified crystal structure data generated from the
# MOF subset of the Cambridge Structural Database (CSD) v543 
# hosted by the Cambridge Crystallographic Data Centre (CCDC).
#
# This work is licensed under the Creative Commons
# Attribution-NonCommercial-ShareAlike 4.0 International License.
# To view a copy of this license, visit
# http://creativecommons.org/licenses/by-nc-sa/4.0/
# or send a letter to
# Creative Commons, PO Box 1866, Mountain View, CA 94042, USA.
#
# CIF created using the CSD Python API on 29 September 2022
# The structure has been converted into the P1 space group
# The structure has a 3D framework
# The original CSD entry SOVWUX is in the triclinic crystal system
# The framework has been calculated to contain at least 10.0% void space
# The void calculation uses a probe of radius 1.32A, grid spacing 0.4
#
###############################################################################

data_SOVWUX
_chemical_formula_moiety         '(C144 H110 N2 O23 Pb5 S8)n'
_symmetry_cell_setting           triclinic
_symmetry_space_group_name_H-M   'P 1'
_symmetry_Int_Tables_number      1
_space_group_name_Hall           'P 1'
loop_
_symmetry_equiv_pos_site_id
_symmetry_equiv_pos_as_xyz
1 x,y,z
_cell_length_a                   13.2336(11)
_cell_length_b                   18.1911(15)
_cell_length_c                   18.8804(16)
_cell_angle_alpha                109.9840(10)
_cell_angle_beta                 107.6050(10)
_cell_angle_gamma                103.9120(10)
_cell_volume                     3759.62
loop_
_atom_site_label
_atom_site_type_symbol
_atom_site_fract_x
_atom_site_fract_y
_atom_site_fract_z
O16 O 0.6830(3) 0.02651(19) 0.16544(18)
O18 O 0.5244(3) 0.0233(2) 0.18491(19)
Pb7 Pb 0.362705(13) 0.067187(10) 0.114390(9)
O15 O 0.6015(2) 0.00652(17) 0.99053(17)
O20 O 0.7919(3) 0.0890(2) 0.9525(2)
O24 O 0.1719(3) 0.0135(2) 0.9454(2)
Pb9 Pb 0.490779(13) 0.081180(9) 0.965004(9)
O1 O 0.3985(2) 0.99348(17) 0.00947(17)
O12 O 0.3256(3) 0.1349(2) 0.02429(19)
Pb2 Pb 0.509221(13) 0.918820(9) 0.034996(9)
O21 O 0.2081(3) 0.9110(2) 0.0475(2)
C1 C 0.0113(4) 0.3018(3) 0.6872(3)
C2 C 0.0443(4) 0.3976(3) 0.7171(3)
H2 H 0.0681 0.4264 0.7779
C3 C 0.1950(4) 0.5130(3) 0.7309(3)
C4 C 0.1877(4) 0.5739(3) 0.7961(3)
H3 H 0.1377 0.5571 0.8196
C5 C 0.2537(4) 0.6590(3) 0.8266(3)
H4 H 0.2482 0.7003 0.8709
C6 C 0.3274(4) 0.6842(3) 0.7933(3)
C7 C 0.3350(4) 0.6236(3) 0.7280(3)
H5 H 0.3863 0.6410 0.7056
C8 C 0.2687(4) 0.5378(3) 0.6953(3)
C9 C 0.4012(4) 0.7766(3) 0.8277(3)
C10 C 0.2711(4) 0.4748(3) 0.6257(3)
C11 C 0.2708(4) 0.4213(3) 0.5670(3)
C12 C 0.2706(4) 0.3572(3) 0.4960(3)
C13 C 0.3741(5) 0.3526(4) 0.4960(4)
H6 H 0.4443 0.3920 0.5424
C14 C 0.3753(5) 0.2911(4) 0.4285(4)
H7 H 0.4466 0.2887 0.4291
C15 C 0.2732(5) 0.2324(3) 0.3596(3)
C16 C 0.1717(5) 0.2385(3) 0.3594(3)
H8 H 0.1015 0.2003 0.3124
C17 C 0.1703(4) 0.3001(3) 0.4272(3)
H9 H 0.0990 0.3029 0.4260
C18 C 0.1495(5) 0.0773(3) 0.2230(4)
H10 H 0.0934 0.0995 0.2009
H11 H 0.1294 0.0563 0.2603
H12 H 0.1489 0.0308 0.1770
C19 C 0.0020(4) 0.2576(3) 0.5996(3)
H13 H 0.0762 0.2804 0.5972
C53 C 0.1046(6) 0.2906(3) 0.7479(3)
H37 H 0.1798 0.3164 0.7482
H38 H 0.1100 0.3186 0.8048
C54 C 0.1224(5) 0.1774(3) 0.7808(3)
C55 C 0.2050(5) 0.2334(3) 0.8609(3)
H39 H 0.2360 0.2924 0.8767
C56 C 0.2418(4) 0.2025(3) 0.9174(3)
H40 H 0.2986 0.2410 0.9720
C57 C 0.1980(4) 0.1172(3) 0.8963(3)
C58 C 0.1166(4) 0.0613(3) 0.8153(3)
H41 H 0.0860 0.0026 0.8003
C59 C 0.0787(4) 0.0892(3) 0.7558(3)
C60 C 0.2335(4) 0.0856(3) 0.9590(3)
O2 O 0.1369(3) 0.42811(19) 0.6975(2)
O3 O 0.4797(3) 0.79432(19) 0.8053(2)
O4 O 0.3807(3) 0.83135(18) 0.87810(19)
O11 O 0.0751(4) 0.2010(2) 0.7218(2)
S1 S 0.28652(14) 0.15807(10) 0.27806(10)
O14 O 0.0716(4) 0.7391(3) 0.7438(3)
C70 C 0.1058(5) 0.7096(4) 0.6913(3)
H49 H 0.1740 0.7457 0.6946
N1 N 0.0547(4) 0.6306(3) 0.6295(3)
C72 C 0.0990(6) 0.6018(4) 0.5679(4)
H53 H 0.1743 0.6445 0.5852
H54 H 0.0459 0.5934 0.5141
H55 H 0.1066 0.5482 0.5630
Pb1 Pb 0.637295(13) 0.932813(10) 0.885610(9)
Pb3 Pb 0.222967(13) 0.885591(10) 0.904766(9)
O17 O 0.3170(3) 0.97349(19) 0.83456(18)
O19 O 0.4756(3) 0.9767(2) 0.81509(19)
O22 O 0.2685(3) 0.8105(2) 0.9942(2)
O23 O 0.6744(3) 0.8651(2) 0.97571(19)
H33 H 0.8645 0.6134 0.0015
H34 H 0.9915 0.8798 0.0126
O10 O 0.7315(3) 0.1895(2) 0.0058(2)
Pb12 Pb 0.777033(13) 0.114409(10) 0.095234(9)
H1 H 0.9778 0.4091 0.6891
H14 H 0.9795 0.1959 0.5811
C20 C 0.8501(4) 0.2169(3) 0.4677(3)
C21 C 0.8879(4) 0.1619(3) 0.4210(3)
H15 H 0.9617 0.1614 0.4456
C22 C 0.8165(4) 0.1079(3) 0.3380(3)
H16 H 0.8428 0.0715 0.3054
C23 C 0.7068(4) 0.1060(3) 0.3016(3)
C24 C 0.6681(4) 0.1598(3) 0.3492(3)
H17 H 0.5928 0.1578 0.3248
C25 C 0.7392(4) 0.2162(3) 0.4320(3)
C26 C 0.6328(4) 0.0483(3) 0.2113(2)
C27 C 0.7058(4) 0.2754(3) 0.4831(3)
C28 C 0.6891(4) 0.3287(3) 0.5306(3)
C29 C 0.6705(5) 0.3910(4) 0.5906(4)
C30 C 0.6737(5) 0.4654(4) 0.5903(4)
H18 H 0.6890 0.4774 0.5485
C31 C 0.6550(5) 0.5268(4) 0.6504(4)
H19 H 0.6581 0.5791 0.6491
C32 C 0.6325(5) 0.5088(4) 0.7097(4)
C33 C 0.6249(6) 0.4315(4) 0.7111(4)
H20 H 0.6056 0.4188 0.7513
C34 C 0.6458(6) 0.3735(4) 0.6531(4)
H21 H 0.6437 0.3216 0.6549
C35 C 0.6324(5) 0.6672(5) 0.7668(7)
H22 H 0.5921 0.6499 0.7073
H23 H 0.7153 0.6935 0.7845
H24 H 0.6068 0.7081 0.7982
C36 C 0.8943(5) 0.2650(3) 0.6869(3)
H25 H 0.8348 0.2703 0.6444
H26 H 0.8741 0.2042 0.6726
C37 C 0.8641(5) 0.2664(3) 0.8077(3)
C38 C 0.8568(5) 0.1845(3) 0.7916(3)
H27 H 0.8731 0.1530 0.7479
C39 C 0.8255(5) 0.1492(3) 0.8400(3)
H28 H 0.8209 0.0932 0.8291
C40 C 0.8007(4) 0.1942(3) 0.9043(3)
C41 C 0.8093(4) 0.2758(3) 0.9206(3)
H29 H 0.7930 0.3069 0.9646
C42 C 0.8415(5) 0.3135(3) 0.8737(3)
C43 C 0.7719(4) 0.1549(3) 0.9567(3)
C44 C 0.8556(5) 0.3993(3) 0.8919(3)
C45 C 0.8719(5) 0.4707(3) 0.9016(3)
C46 C 0.8950(5) 0.5523(3) 0.9022(3)
C47 C 0.9274(5) 0.5635(3) 0.8416(3)
H30 H 0.9340 0.5178 0.8022
C48 C 0.9498(5) 0.6393(3) 0.8382(4)
H31 H 0.9736 0.6463 0.7974
C49 C 0.9379(4) 0.7067(3) 0.8944(3)
C50 C 0.9069(4) 0.6968(3) 0.9560(3)
H32 H 0.9004 0.7425 0.9954
C51 C 0.8856(5) 0.6200(3) 0.9596(3)
C52 C 0.9364(5) 0.8689(3) 0.9583(4)
H35 H 0.8581 0.8437 0.9522
H36 H 0.9472 0.9224 0.9544
C61 C 0.9976(5) 0.0324(3) 0.6727(3)
H45 H 0.8752 0.0244 0.4787
O5 O 0.9151(3) 0.2748(2) 0.54834(18)
O8 O 0.8977(4) 0.3096(2) 0.7675(3)
S2 S 0.60167(15) 0.57691(11) 0.78583(11)
S3 S 0.95899(11) 0.79761(7) 0.87765(8)
C71 C 0.9506(5) 0.5705(4) 0.6198(4)
H50 H 0.9214 0.5998 0.6581
H51 H 0.9676 0.5256 0.6323
H52 H 0.8925 0.5455 0.5625
C62 C 0.9295(5) 0.9851(3) 0.6016(3)
C63 C 0.8497(5) 0.9322(3) 0.5160(3)
C64 C 0.7869(6) 0.8467(4) 0.4872(4)
H42 H 0.7989 0.8216 0.5241
C65 C 0.7066(6) 0.7977(4) 0.4049(4)
H43 H 0.6636 0.7394 0.3861
C66 C 0.6888(6) 0.8336(4) 0.3498(4)
C67 C 0.7528(6) 0.9176(4) 0.3777(4)
H44 H 0.7428 0.9424 0.3406
C68 C 0.8320(6) 0.9663(4) 0.4602(4)
C69 C 0.5701(8) 0.8416(5) 0.2065(5)
H46 H 0.6389 0.8618 0.1979
H47 H 0.5630 0.8896 0.2457
H48 H 0.5022 0.8138 0.1534
S4 S 0.5818(2) 0.76729(12) 0.24808(11)
C62_2 C 0.0705(5) 0.0149(3) 0.3984(3)
C63_2 C 0.1503(5) 0.0678(3) 0.4840(3)
C64_2 C 0.2131(6) 0.1533(4) 0.5128(4)
H42_2 H 0.2011 0.1784 0.4759
C65_2 C 0.2934(6) 0.2023(4) 0.5951(4)
H43_2 H 0.3364 0.2606 0.6139
C66_2 C 0.3112(6) 0.1664(4) 0.6502(4)
C67_2 C 0.2472(6) 0.0824(4) 0.6223(4)
H44_2 H 0.2572 0.0576 0.6594
C68_2 C 0.1680(6) 0.0337(4) 0.5398(4)
C69_2 C 0.4299(8) 0.1584(5) 0.7935(5)
H46_2 H 0.3611 0.1382 0.8021
H47_2 H 0.4370 0.1104 0.7543
H48_2 H 0.4978 0.1862 0.8466
S4_2 S 0.4182(2) 0.23271(12) 0.75192(11)
H1_2 H 0.0222 0.5909 0.3109
H14_2 H 0.0205 0.8041 0.4189
C20_2 C 0.1499(4) 0.7831(3) 0.5323(3)
C21_2 C 0.1121(4) 0.8381(3) 0.5790(3)
H15_2 H 0.0383 0.8386 0.5544
C22_2 C 0.1835(4) 0.8921(3) 0.6620(3)
H16_2 H 0.1572 0.9285 0.6946
C23_2 C 0.2932(4) 0.8940(3) 0.6984(3)
C24_2 C 0.3319(4) 0.8402(3) 0.6508(3)
H17_2 H 0.4072 0.8422 0.6752
C25_2 C 0.2608(4) 0.7838(3) 0.5680(3)
C26_2 C 0.3672(4) 0.9517(3) 0.7887(2)
C27_2 C 0.2942(4) 0.7246(3) 0.5169(3)
C28_2 C 0.3109(4) 0.6713(3) 0.4694(3)
C29_2 C 0.3295(5) 0.6090(4) 0.4094(4)
C30_2 C 0.3263(5) 0.5346(4) 0.4097(4)
H18_2 H 0.3110 0.5226 0.4515
C31_2 C 0.3450(5) 0.4732(4) 0.3496(4)
H19_2 H 0.3419 0.4209 0.3509
C32_2 C 0.3675(5) 0.4912(4) 0.2903(4)
C33_2 C 0.3751(6) 0.5685(4) 0.2889(4)
H20_2 H 0.3944 0.5812 0.2487
C34_2 C 0.3542(6) 0.6265(4) 0.3469(4)
H21_2 H 0.3563 0.6784 0.3451
C35_2 C 0.3676(5) 0.3328(5) 0.2332(7)
H22_2 H 0.4079 0.3501 0.2927
H23_2 H 0.2847 0.3065 0.2155
H24_2 H 0.3932 0.2919 0.2018
C36_2 C 0.1057(5) 0.7350(3) 0.3131(3)
H25_2 H 0.1652 0.7297 0.3556
H26_2 H 0.1259 0.7958 0.3274
C37_2 C 0.1359(5) 0.7336(3) 0.1923(3)
C38_2 C 0.1432(5) 0.8155(3) 0.2084(3)
H27_2 H 0.1269 0.8470 0.2521
C39_2 C 0.1745(5) 0.8508(3) 0.1600(3)
H28_2 H 0.1791 0.9068 0.1709
C40_2 C 0.1993(4) 0.8058(3) 0.0957(3)
C41_2 C 0.1907(4) 0.7242(3) 0.0794(3)
H29_2 H 0.2070 0.6931 0.0354
C42_2 C 0.1585(5) 0.6865(3) 0.1263(3)
C43_2 C 0.2281(4) 0.8451(3) 0.0433(3)
C44_2 C 0.1444(5) 0.6007(3) 0.1081(3)
C45_2 C 0.1281(5) 0.5293(3) 0.0984(3)
C46_2 C 0.1050(5) 0.4477(3) 0.0978(3)
C47_2 C 0.0726(5) 0.4365(3) 0.1584(3)
H30_2 H 0.0660 0.4822 0.1978
C48_2 C 0.0502(5) 0.3607(3) 0.1618(4)
H31_2 H 0.0264 0.3537 0.2026
C49_2 C 0.0621(4) 0.2933(3) 0.1056(3)
C50_2 C 0.0931(4) 0.3032(3) 0.0440(3)
H32_2 H 0.0996 0.2575 0.0046
C51_2 C 0.1144(5) 0.3800(3) 0.0404(3)
C52_2 C 0.0636(5) 0.1311(3) 0.0417(4)
H35_2 H 0.1419 0.1563 0.0478
H36_2 H 0.0528 0.0776 0.0456
C61_2 C 0.0024(5) 0.9676(3) 0.3273(3)
H45_2 H 0.1248 0.9756 0.5213
O5_2 O 0.0849(3) 0.7252(2) 0.45166(18)
O8_2 O 0.1023(4) 0.6904(2) 0.2325(3)
S2_2 S 0.39833(15) 0.42309(11) 0.21417(11)
S3_2 S 0.04101(11) 0.20239(7) 0.12235(8)
C71_2 C 0.0494(5) 0.4295(4) 0.3802(4)
H50_2 H 0.0786 0.4002 0.3419
H51_2 H 0.0324 0.4744 0.3677
H52_2 H 0.1075 0.4545 0.4375
H33_2 H 0.1355 0.3866 0.9985
H34_2 H 0.0085 0.1202 0.9874
C1_2 C 0.9887(4) 0.6982(3) 0.3128(3)
C2_2 C 0.9557(4) 0.6024(3) 0.2829(3)
H2_2 H 0.9319 0.5736 0.2221
C3_2 C 0.8050(4) 0.4870(3) 0.2691(3)
C4_2 C 0.8123(4) 0.4261(3) 0.2039(3)
H3_2 H 0.8623 0.4429 0.1804
C5_2 C 0.7463(4) 0.3410(3) 0.1734(3)
H4_2 H 0.7518 0.2997 0.1291
C6_2 C 0.6726(4) 0.3158(3) 0.2067(3)
C7_2 C 0.6650(4) 0.3764(3) 0.2720(3)
H5_2 H 0.6137 0.3590 0.2944
C8_2 C 0.7313(4) 0.4622(3) 0.3047(3)
C9_2 C 0.5988(4) 0.2234(3) 0.1723(3)
C10_2 C 0.7289(4) 0.5252(3) 0.3743(3)
C11_2 C 0.7292(4) 0.5787(3) 0.4330(3)
C12_2 C 0.7294(4) 0.6428(3) 0.5040(3)
C13_2 C 0.6259(5) 0.6474(4) 0.5040(4)
H6_2 H 0.5557 0.6080 0.4576
C14_2 C 0.6247(5) 0.7089(4) 0.5715(4)
H7_2 H 0.5534 0.7113 0.5709
C15_2 C 0.7268(5) 0.7676(3) 0.6404(3)
C16_2 C 0.8283(5) 0.7615(3) 0.6406(3)
H8_2 H 0.8985 0.7997 0.6876
C17_2 C 0.8297(4) 0.6999(3) 0.5728(3)
H9_2 H 0.9010 0.6971 0.5740
C18_2 C 0.8505(5) 0.9227(3) 0.7770(4)
H10_2 H 0.9066 0.9005 0.7991
H11_2 H 0.8706 0.9437 0.7397
H12_2 H 0.8511 0.9692 0.8230
C19_2 C 0.9980(4) 0.7424(3) 0.4004(3)
H13_2 H 0.9238 0.7196 0.4028
C53_2 C 0.8954(6) 0.7094(3) 0.2521(3)
H37_2 H 0.8202 0.6836 0.2518
H38_2 H 0.8900 0.6814 0.1952
C54_2 C 0.8776(5) 0.8226(3) 0.2192(3)
C55_2 C 0.7950(5) 0.7666(3) 0.1391(3)
H39_2 H 0.7640 0.7076 0.1233
C56_2 C 0.7582(4) 0.7975(3) 0.0826(3)
H40_2 H 0.7014 0.7590 0.0280
C57_2 C 0.8020(4) 0.8828(3) 0.1037(3)
C58_2 C 0.8834(4) 0.9387(3) 0.1847(3)
H41_2 H 0.9140 0.9974 0.1997
C59_2 C 0.9213(4) 0.9108(3) 0.2442(3)
C60_2 C 0.7665(4) 0.9144(3) 0.0410(3)
O2_2 O 0.8631(3) 0.57189(19) 0.3025(2)
O3_2 O 0.5203(3) 0.20568(19) 0.1947(2)
O4_2 O 0.6193(3) 0.16865(18) 0.12190(19)
O11_2 O 0.9249(4) 0.7990(2) 0.2782(2)
O13 O 0.8281(3) 0.9865(2) 0.0546(2)
S1_2 S 0.71348(14) 0.84193(10) 0.72194(10)
O14_2 O 0.9284(4) 0.2609(3) 0.2562(3)
C70_2 C 0.8942(5) 0.2904(4) 0.3087(3)
H49_2 H 0.8260 0.2543 0.3054
N1_2 N 0.9453(4) 0.3694(3) 0.3705(3)
C72_2 C 0.9010(6) 0.3982(4) 0.4321(4)
H53_2 H 0.8257 0.3555 0.4148
H54_2 H 0.9541 0.4066 0.4859
H55_2 H 0.8934 0.4518 0.4370
loop_
_geom_bond_atom_site_label_1
_geom_bond_atom_site_label_2
_geom_bond_site_symmetry_1
_geom_bond_site_symmetry_2
O18 Pb7 1_555 1_555
O15 Pb9 1_555 1_555
O1 Pb2 1_555 1_555
Pb7 O12 1_555 1_555
C1 C2 1_555 1_555
H2 C2 1_555 1_555
C3 C4 1_555 1_555
C4 H3 1_555 1_555
C5 C4 1_555 1_555
H4 C5 1_555 1_555
C6 C5 1_555 1_555
C7 C6 1_555 1_555
H5 C7 1_555 1_555
C8 C3 1_555 1_555
C9 C6 1_555 1_555
C10 C8 1_555 1_555
C11 C10 1_555 1_555
C12 C11 1_555 1_555
C13 C12 1_555 1_555
H6 C13 1_555 1_555
C14 C13 1_555 1_555
H7 C14 1_555 1_555
C15 C14 1_555 1_555
C16 C15 1_555 1_555
H8 C16 1_555 1_555
C17 C12 1_555 1_555
H9 C17 1_555 1_555
C18 H10 1_555 1_555
H11 C18 1_555 1_555
H12 C18 1_555 1_555
C19 C1 1_555 1_555
H13 C19 1_555 1_555
C53 C1 1_555 1_555
H37 C53 1_555 1_555
H38 C53 1_555 1_555
C54 C55 1_555 1_555
C55 H39 1_555 1_555
C56 C55 1_555 1_555
H40 C56 1_555 1_555
C57 C56 1_555 1_555
C58 C57 1_555 1_555
H41 C58 1_555 1_555
C59 C54 1_555 1_555
C60 C57 1_555 1_555
O2 C2 1_555 1_555
O3 C9 1_555 1_555
O4 C9 1_555 1_555
O11 C53 1_555 1_555
O24 C60 1_555 1_555
S1 C15 1_555 1_555
O14 C70 1_555 1_555
C70 H49 1_555 1_555
N1 C70 1_555 1_555
C72 N1 1_555 1_555
H53 C72 1_555 1_555
H54 C72 1_555 1_555
H55 C72 1_555 1_555
Pb1 O3 1_555 1_555
O17 Pb3 1_555 1_555
O19 Pb1 1_555 1_555
O22 Pb3 1_555 1_555
O23 Pb1 1_555 1_555
C3 O2 1_555 1_555
C7 C8 1_555 1_555
C16 C17 1_555 1_555
C18 S1 1_555 1_555
C54 O11 1_555 1_555
C58 C59 1_555 1_555
O4 Pb3 1_555 1_555
O14 Pb3 1_555 1_555
O10 Pb12 1_555 1_555
C20 C21 1_555 1_555
C21 H15 1_555 1_555
C22 C21 1_555 1_555
H16 C22 1_555 1_555
C23 C22 1_555 1_555
C24 C23 1_555 1_555
H17 C24 1_555 1_555
C25 C20 1_555 1_555
C26 C23 1_555 1_555
C27 C25 1_555 1_555
C28 C27 1_555 1_555
C29 C28 1_555 1_555
C30 C29 1_555 1_555
H18 C30 1_555 1_555
C31 C30 1_555 1_555
H19 C31 1_555 1_555
C32 C31 1_555 1_555
C33 C32 1_555 1_555
H20 C33 1_555 1_555
C34 C29 1_555 1_555
H21 C34 1_555 1_555
C35 H22 1_555 1_555
H23 C35 1_555 1_555
H24 C35 1_555 1_555
H25 C36 1_555 1_555
H26 C36 1_555 1_555
C37 C38 1_555 1_555
C38 H27 1_555 1_555
C39 C38 1_555 1_555
H28 C39 1_555 1_555
C40 C39 1_555 1_555
C41 C40 1_555 1_555
H29 C41 1_555 1_555
C42 C37 1_555 1_555
C43 C40 1_555 1_555
C44 C42 1_555 1_555
C45 C44 1_555 1_555
C46 C45 1_555 1_555
C47 C46 1_555 1_555
H30 C47 1_555 1_555
C48 C47 1_555 1_555
H31 C48 1_555 1_555
C49 C48 1_555 1_555
C50 C49 1_555 1_555
H32 C50 1_555 1_555
C51 C46 1_555 1_555
H35 C52 1_555 1_555
H36 C52 1_555 1_555
O16 C26 1_555 1_555
O18 C26 1_555 1_555
O8 C36 1_555 1_555
O20 C43 1_555 1_555
S2 C32 1_555 1_555
S3 C49 1_555 1_555
H50 C71 1_555 1_555
H51 C71 1_555 1_555
H52 C71 1_555 1_555
Pb12 O16 1_555 1_555
C20 O5 1_555 1_555
C24 C25 1_555 1_555
C33 C34 1_555 1_555
C35 S2 1_555 1_555
C37 O8 1_555 1_555
C41 C42 1_555 1_555
C50 C51 1_555 1_555
C52 S3 1_555 1_555
C63 C62 1_555 1_555
C64 C63 1_555 1_555
H42 C64 1_555 1_555
C65 C64 1_555 1_555
H43 C65 1_555 1_555
C66 C65 1_555 1_555
C67 C66 1_555 1_555
H44 C67 1_555 1_555
C68 C63 1_555 1_555
C69 H46 1_555 1_555
H47 C69 1_555 1_555
H48 C69 1_555 1_555
S4 C66 1_555 1_555
C67 C68 1_555 1_555
C69 S4 1_555 1_555
C63_2 C62_2 1_555 1_555
C64_2 C63_2 1_555 1_555
H42_2 C64_2 1_555 1_555
C65_2 C64_2 1_555 1_555
H43_2 C65_2 1_555 1_555
C66_2 C65_2 1_555 1_555
C67_2 C66_2 1_555 1_555
H44_2 C67_2 1_555 1_555
C68_2 C63_2 1_555 1_555
C69_2 H46_2 1_555 1_555
H47_2 C69_2 1_555 1_555
H48_2 C69_2 1_555 1_555
S4_2 C66_2 1_555 1_555
C67_2 C68_2 1_555 1_555
C69_2 S4_2 1_555 1_555
C20_2 C21_2 1_555 1_555
C21_2 H15_2 1_555 1_555
C22_2 C21_2 1_555 1_555
H16_2 C22_2 1_555 1_555
C23_2 C22_2 1_555 1_555
C24_2 C23_2 1_555 1_555
H17_2 C24_2 1_555 1_555
C25_2 C20_2 1_555 1_555
C26_2 C23_2 1_555 1_555
C27_2 C25_2 1_555 1_555
C28_2 C27_2 1_555 1_555
C29_2 C28_2 1_555 1_555
C30_2 C29_2 1_555 1_555
H18_2 C30_2 1_555 1_555
C31_2 C30_2 1_555 1_555
H19_2 C31_2 1_555 1_555
C32_2 C31_2 1_555 1_555
C33_2 C32_2 1_555 1_555
H20_2 C33_2 1_555 1_555
C34_2 C29_2 1_555 1_555
H21_2 C34_2 1_555 1_555
C35_2 H22_2 1_555 1_555
H23_2 C35_2 1_555 1_555
H24_2 C35_2 1_555 1_555
H25_2 C36_2 1_555 1_555
H26_2 C36_2 1_555 1_555
C37_2 C38_2 1_555 1_555
C38_2 H27_2 1_555 1_555
C39_2 C38_2 1_555 1_555
H28_2 C39_2 1_555 1_555
C40_2 C39_2 1_555 1_555
C41_2 C40_2 1_555 1_555
H29_2 C41_2 1_555 1_555
C42_2 C37_2 1_555 1_555
C43_2 C40_2 1_555 1_555
C44_2 C42_2 1_555 1_555
C45_2 C44_2 1_555 1_555
C46_2 C45_2 1_555 1_555
C47_2 C46_2 1_555 1_555
H30_2 C47_2 1_555 1_555
C48_2 C47_2 1_555 1_555
H31_2 C48_2 1_555 1_555
C49_2 C48_2 1_555 1_555
C50_2 C49_2 1_555 1_555
H32_2 C50_2 1_555 1_555
C51_2 C46_2 1_555 1_555
H35_2 C52_2 1_555 1_555
H36_2 C52_2 1_555 1_555
O17 C26_2 1_555 1_555
O19 C26_2 1_555 1_555
O8_2 C36_2 1_555 1_555
O21 C43_2 1_555 1_555
S2_2 C32_2 1_555 1_555
S3_2 C49_2 1_555 1_555
H50_2 C71_2 1_555 1_555
H51_2 C71_2 1_555 1_555
H52_2 C71_2 1_555 1_555
C20_2 O5_2 1_555 1_555
C24_2 C25_2 1_555 1_555
C33_2 C34_2 1_555 1_555
C35_2 S2_2 1_555 1_555
C37_2 O8_2 1_555 1_555
C41_2 C42_2 1_555 1_555
C50_2 C51_2 1_555 1_555
C52_2 S3_2 1_555 1_555
C1_2 C2_2 1_555 1_555
H2_2 C2_2 1_555 1_555
C3_2 C4_2 1_555 1_555
C4_2 H3_2 1_555 1_555
C5_2 C4_2 1_555 1_555
H4_2 C5_2 1_555 1_555
C6_2 C5_2 1_555 1_555
C7_2 C6_2 1_555 1_555
H5_2 C7_2 1_555 1_555
C8_2 C3_2 1_555 1_555
C9_2 C6_2 1_555 1_555
C10_2 C8_2 1_555 1_555
C11_2 C10_2 1_555 1_555
C12_2 C11_2 1_555 1_555
C13_2 C12_2 1_555 1_555
H6_2 C13_2 1_555 1_555
C14_2 C13_2 1_555 1_555
H7_2 C14_2 1_555 1_555
C15_2 C14_2 1_555 1_555
C16_2 C15_2 1_555 1_555
H8_2 C16_2 1_555 1_555
C17_2 C12_2 1_555 1_555
H9_2 C17_2 1_555 1_555
C18_2 H10_2 1_555 1_555
H11_2 C18_2 1_555 1_555
H12_2 C18_2 1_555 1_555
C19_2 C1_2 1_555 1_555
H13_2 C19_2 1_555 1_555
C53_2 C1_2 1_555 1_555
H37_2 C53_2 1_555 1_555
H38_2 C53_2 1_555 1_555
C54_2 C55_2 1_555 1_555
C55_2 H39_2 1_555 1_555
C56_2 C55_2 1_555 1_555
H40_2 C56_2 1_555 1_555
C57_2 C56_2 1_555 1_555
C58_2 C57_2 1_555 1_555
H41_2 C58_2 1_555 1_555
C59_2 C54_2 1_555 1_555
C60_2 C57_2 1_555 1_555
O2_2 C2_2 1_555 1_555
O3_2 C9_2 1_555 1_555
O4_2 C9_2 1_555 1_555
O11_2 C53_2 1_555 1_555
O13 C60_2 1_555 1_555
S1_2 C15_2 1_555 1_555
O14_2 C70_2 1_555 1_555
C70_2 H49_2 1_555 1_555
N1_2 C70_2 1_555 1_555
C72_2 N1_2 1_555 1_555
H53_2 C72_2 1_555 1_555
H54_2 C72_2 1_555 1_555
H55_2 C72_2 1_555 1_555
Pb7 O3_2 1_555 1_555
C3_2 O2_2 1_555 1_555
C7_2 C8_2 1_555 1_555
C16_2 C17_2 1_555 1_555
C18_2 S1_2 1_555 1_555
C54_2 O11_2 1_555 1_555
C58_2 C59_2 1_555 1_555
O4_2 Pb12 1_555 1_555
O14_2 Pb12 1_555 1_555

#END
