
###############################################################################
#
# This file contains modified crystal structure data generated from the
# MOF subset of the Cambridge Structural Database (CSD) v543 
# hosted by the Cambridge Crystallographic Data Centre (CCDC).
#
# This work is licensed under the Creative Commons
# Attribution-NonCommercial-ShareAlike 4.0 International License.
# To view a copy of this license, visit
# http://creativecommons.org/licenses/by-nc-sa/4.0/
# or send a letter to
# Creative Commons, PO Box 1866, Mountain View, CA 94042, USA.
#
# CIF created using the CSD Python API on 29 September 2022
# The structure has been converted into the P1 space group
# The structure has a 3D framework
# The original CSD entry SOWCOY is in the orthorhombic crystal system
# The framework has been calculated to contain at least 10.0% void space
# The void calculation uses a probe of radius 1.32A, grid spacing 0.4
#
###############################################################################

data_SOWCOY
_chemical_formula_moiety         '(C80 H40 N24 O32 Zn8)n'
_symmetry_cell_setting           triclinic
_symmetry_space_group_name_H-M   'P 1'
_symmetry_Int_Tables_number      1
_space_group_name_Hall           'P 1'
loop_
_symmetry_equiv_pos_site_id
_symmetry_equiv_pos_as_xyz
1 x,y,z
_cell_length_a                   20.4409(14)
_cell_length_b                   11.9176(14)
_cell_length_c                   14.9473(11)
_cell_angle_alpha                90
_cell_angle_beta                 90
_cell_angle_gamma                90
_cell_volume                     3641.26
loop_
_atom_site_label
_atom_site_type_symbol
_atom_site_fract_x
_atom_site_fract_y
_atom_site_fract_z
Zn1 Zn 0.30444(2) 0.08518(5) 0.62500(4)
O1 O 0.74393(16) 0.3469(4) 0.7808(2)
O2 O 0.66380(16) 0.4738(3) 0.7789(2)
O3 O 0.66121(16) 0.0341(3) 0.4624(2)
O4 O 0.74817(17) 0.1464(4) 0.4754(2)
N1 N 0.38299(17) 0.1864(4) 0.6197(2)
N2 N 0.48332(18) 0.2453(3) 0.6211(2)
C1 C 0.6546(2) 0.1836(5) 0.5651(3)
C2 C 0.5867(2) 0.3170(5) 0.6842(3)
H1 H 0.5637 0.3656 0.7213
N3 N 0.38133(19) 0.3008(4) 0.6093(4)
C3 C 0.5866(2) 0.1800(5) 0.5640(3)
H2 H 0.5636 0.1357 0.5236
C4 C 0.5541(2) 0.2482(4) 0.6286(3)
C5 C 0.6881(2) 0.2492(4) 0.6231(3)
H3 H 0.7335 0.2506 0.6215
C6 C 0.6907(2) 0.3857(5) 0.7547(3)
C7 C 0.4443(2) 0.1554(5) 0.6258(3)
H4 H 0.4586 0.0817 0.6323
C8 C 0.4421(3) 0.3333(5) 0.6117(4)
H5 H 0.4555 0.4077 0.6075
C9 C 0.6540(2) 0.3157(4) 0.6864(3)
C10 C 0.6907(2) 0.1161(5) 0.4960(4)
Zn2 Zn 0.80444(2) 0.41482(5) 0.87500(4)
Zn3 Zn 0.69556(2) 0.58518(5) 0.87500(4)
Zn5 Zn 0.80444(2) 0.08518(5) 0.37500(4)
O5 O 0.24393(16) 0.1531(4) 0.7192(2)
O8 O 0.24817(17) 0.1464(4) 0.5246(2)
Zn4 Zn 0.69556(2) 0.91482(5) 0.37500(4)
O6 O 0.33620(16) 0.9738(3) 0.7211(2)
O7 O 0.33879(16) 0.9659(3) 0.5376(2)
O6_2 O 0.16380(16) 0.0262(3) 0.7211(2)
O7_2 O 0.16121(16) 0.0341(3) 0.5376(2)
Zn1_2 Zn 0.19556(2) 0.91482(5) 0.62500(4)
N1_2 N 0.11701(17) 0.8136(4) 0.6197(2)
N2_2 N 0.01668(18) 0.7547(3) 0.6211(2)
N3_2 N 0.11867(19) 0.6992(4) 0.6093(4)
C7_2 C 0.0557(2) 0.8446(5) 0.6258(3)
H4_2 H 0.0414 0.9183 0.6323
C8_2 C 0.0579(3) 0.6667(5) 0.6117(4)
H5_2 H 0.0445 0.5923 0.6075
O5_2 O 0.25607(16) 0.8469(4) 0.7192(2)
O8_2 O 0.25183(17) 0.8536(4) 0.5246(2)
O1_2 O 0.75607(16) 0.6531(4) 0.7808(2)
O2_2 O 0.83620(16) 0.5262(3) 0.7789(2)
O3_2 O 0.83879(16) 0.9659(3) 0.4624(2)
O4_2 O 0.75183(17) 0.8536(4) 0.4754(2)
C1_2 C 0.8454(2) 0.8164(5) 0.5651(3)
C2_2 C 0.9133(2) 0.6830(5) 0.6842(3)
H1_2 H 0.9363 0.6344 0.7213
C3_2 C 0.9134(2) 0.8200(5) 0.5640(3)
H2_2 H 0.9364 0.8643 0.5236
C4_2 C 0.9459(2) 0.7518(4) 0.6286(3)
C5_2 C 0.8119(2) 0.7508(4) 0.6231(3)
H3_2 H 0.7665 0.7494 0.6215
C6_2 C 0.8093(2) 0.6143(5) 0.7547(3)
C9_2 C 0.8460(2) 0.6843(4) 0.6864(3)
C10_2 C 0.8093(2) 0.8839(5) 0.4960(4)
O3_3 O 0.16121(16) 0.4659(3) 0.0376(2)
O4_3 O 0.24817(17) 0.3536(4) 0.0246(2)
C10_3 C 0.1907(2) 0.3839(5) 0.0040(4)
Zn4_2 Zn 0.19556(2) 0.58518(5) 0.12500(4)
Zn5_2 Zn 0.30444(2) 0.41482(5) 0.12500(4)
C1_3 C 0.1546(2) 0.3164(5) 0.9349(3)
C2_3 C 0.0867(2) 0.1830(5) 0.8158(3)
H1_3 H 0.0637 0.1344 0.7787
C3_3 C 0.0866(2) 0.3200(5) 0.9360(3)
H2_3 H 0.0636 0.3643 0.9764
C4_3 C 0.0541(2) 0.2518(4) 0.8714(3)
C5_3 C 0.1881(2) 0.2508(4) 0.8769(3)
H3_3 H 0.2335 0.2494 0.8785
C6_3 C 0.1907(2) 0.1143(5) 0.7453(3)
C9_3 C 0.1540(2) 0.1843(4) 0.8136(3)
N1_3 N 0.88299(17) 0.3136(4) 0.8803(2)
N2_3 N 0.98332(18) 0.2547(3) 0.8789(2)
N3_3 N 0.88133(19) 0.1992(4) 0.8907(4)
C7_3 C 0.9443(2) 0.3446(5) 0.8742(3)
H4_3 H 0.9586 0.4183 0.8677
C8_3 C 0.9421(3) 0.1667(5) 0.8883(4)
H5_3 H 0.9555 0.0923 0.8925
O7_3 O 0.83879(16) 0.5341(3) 0.9624(2)
O8_3 O 0.74817(17) 0.3536(4) 0.9754(2)
O3_4 O 0.33879(16) 0.5341(3) 0.0376(2)
O4_4 O 0.25183(17) 0.6464(4) 0.0246(2)
C10_4 C 0.3093(2) 0.6161(5) 0.0040(4)
N1_4 N 0.61701(17) 0.6864(4) 0.8803(2)
N2_4 N 0.51668(18) 0.7453(3) 0.8789(2)
C1_4 C 0.3454(2) 0.6836(5) 0.9349(3)
C2_4 C 0.4133(2) 0.8170(5) 0.8158(3)
H1_4 H 0.4363 0.8656 0.7787
N3_4 N 0.61867(19) 0.8008(4) 0.8907(4)
C3_4 C 0.4134(2) 0.6800(5) 0.9360(3)
H2_4 H 0.4364 0.6357 0.9764
C4_4 C 0.4459(2) 0.7482(4) 0.8714(3)
C5_4 C 0.3119(2) 0.7492(4) 0.8769(3)
H3_4 H 0.2665 0.7506 0.8785
C6_4 C 0.3093(2) 0.8857(5) 0.7453(3)
C7_4 C 0.5557(2) 0.6554(5) 0.8742(3)
H4_4 H 0.5414 0.5817 0.8677
C8_4 C 0.5579(3) 0.8333(5) 0.8883(4)
H5_4 H 0.5445 0.9077 0.8925
C9_4 C 0.3460(2) 0.8157(4) 0.8136(3)
O7_4 O 0.66121(16) 0.4659(3) 0.9624(2)
O8_4 O 0.75183(17) 0.6464(4) 0.9754(2)
O6_3 O 0.66380(16) 0.0262(3) 0.2789(2)
O1_3 O 0.25607(16) 0.6531(4) 0.2192(2)
O2_3 O 0.33620(16) 0.5262(3) 0.2211(2)
N1_5 N 0.61701(17) 0.8136(4) 0.3803(2)
N2_5 N 0.51668(18) 0.7547(3) 0.3789(2)
C1_5 C 0.3454(2) 0.8164(5) 0.4349(3)
C2_5 C 0.4133(2) 0.6830(5) 0.3158(3)
H1_5 H 0.4363 0.6344 0.2787
N3_5 N 0.61867(19) 0.6992(4) 0.3907(4)
C3_5 C 0.4134(2) 0.8200(5) 0.4360(3)
H2_5 H 0.4364 0.8643 0.4764
C4_5 C 0.4459(2) 0.7518(4) 0.3714(3)
C5_5 C 0.3119(2) 0.7508(4) 0.3769(3)
H3_5 H 0.2665 0.7494 0.3785
C6_5 C 0.3093(2) 0.6143(5) 0.2453(3)
C7_5 C 0.5557(2) 0.8446(5) 0.3742(3)
H4_5 H 0.5414 0.9183 0.3677
C8_5 C 0.5579(3) 0.6667(5) 0.3883(4)
H5_5 H 0.5445 0.5923 0.3925
C9_5 C 0.3460(2) 0.6843(4) 0.3136(3)
C10_5 C 0.3093(2) 0.8839(5) 0.5040(4)
O5_3 O 0.75607(16) 0.8469(4) 0.2808(2)
O1_4 O 0.24393(16) 0.3469(4) 0.2192(2)
O2_4 O 0.16380(16) 0.4738(3) 0.2211(2)
C1_6 C 0.1546(2) 0.1836(5) 0.4349(3)
C2_6 C 0.0867(2) 0.3170(5) 0.3158(3)
H1_6 H 0.0637 0.3656 0.2787
C3_6 C 0.0866(2) 0.1800(5) 0.4360(3)
H2_6 H 0.0636 0.1357 0.4764
C4_6 C 0.0541(2) 0.2482(4) 0.3714(3)
C5_6 C 0.1881(2) 0.2492(4) 0.3769(3)
H3_6 H 0.2335 0.2506 0.3785
C6_6 C 0.1907(2) 0.3857(5) 0.2453(3)
C9_6 C 0.1540(2) 0.3157(4) 0.3136(3)
C10_6 C 0.1907(2) 0.1161(5) 0.5040(4)
N1_6 N 0.88299(17) 0.1864(4) 0.3803(2)
N2_6 N 0.98332(18) 0.2453(3) 0.3789(2)
N3_6 N 0.88133(19) 0.3008(4) 0.3907(4)
C7_6 C 0.9443(2) 0.1554(5) 0.3742(3)
H4_6 H 0.9586 0.0817 0.3677
C8_6 C 0.9421(3) 0.3333(5) 0.3883(4)
H5_6 H 0.9555 0.4077 0.3925
O5_4 O 0.74393(16) 0.1531(4) 0.2808(2)
O6_4 O 0.83620(16) 0.9738(3) 0.2789(2)
N1_7 N 0.11701(17) 0.6864(4) 0.1197(2)
N2_7 N 0.01668(18) 0.7453(3) 0.1211(2)
N3_7 N 0.11867(19) 0.8008(4) 0.1093(4)
C7_7 C 0.0557(2) 0.6554(5) 0.1258(3)
H4_7 H 0.0414 0.5817 0.1323
C8_7 C 0.0579(3) 0.8333(5) 0.1117(4)
H5_7 H 0.0445 0.9077 0.1075
C1_7 C 0.8454(2) 0.6836(5) 0.0651(3)
C2_7 C 0.9133(2) 0.8170(5) 0.1842(3)
H1_7 H 0.9363 0.8656 0.2213
C3_7 C 0.9134(2) 0.6800(5) 0.0640(3)
H2_7 H 0.9364 0.6357 0.0236
C4_7 C 0.9459(2) 0.7482(4) 0.1286(3)
C5_7 C 0.8119(2) 0.7492(4) 0.1231(3)
H3_7 H 0.7665 0.7506 0.1215
C6_7 C 0.8093(2) 0.8857(5) 0.2547(3)
C9_7 C 0.8460(2) 0.8157(4) 0.1864(3)
C10_7 C 0.8093(2) 0.6161(5) 0.9960(4)
N1_8 N 0.38299(17) 0.3136(4) 0.1197(2)
N2_8 N 0.48332(18) 0.2547(3) 0.1211(2)
C1_8 C 0.6546(2) 0.3164(5) 0.0651(3)
C2_8 C 0.5867(2) 0.1830(5) 0.1842(3)
H1_8 H 0.5637 0.1344 0.2213
N3_8 N 0.38133(19) 0.1992(4) 0.1093(4)
C3_8 C 0.5866(2) 0.3200(5) 0.0640(3)
H2_8 H 0.5636 0.3643 0.0236
C4_8 C 0.5541(2) 0.2518(4) 0.1286(3)
C5_8 C 0.6881(2) 0.2508(4) 0.1231(3)
H3_8 H 0.7335 0.2494 0.1215
C6_8 C 0.6907(2) 0.1143(5) 0.2547(3)
C7_8 C 0.4443(2) 0.3446(5) 0.1258(3)
H4_8 H 0.4586 0.4183 0.1323
C8_8 C 0.4421(3) 0.1667(5) 0.1117(4)
H5_8 H 0.4555 0.0923 0.1075
C9_8 C 0.6540(2) 0.1843(4) 0.1864(3)
C10_8 C 0.6907(2) 0.3839(5) 0.9960(4)
loop_
_geom_bond_atom_site_label_1
_geom_bond_atom_site_label_2
_geom_bond_site_symmetry_1
_geom_bond_site_symmetry_2
Zn1 N1 1_555 1_555
O1 C6 1_555 1_555
O2 C6 1_555 1_555
O3 C10 1_555 1_555
O4 C10 1_555 1_555
N1 N3 1_555 1_555
N2 C4 1_555 1_555
C1 C3 1_555 1_555
C2 H1 1_555 1_555
N3 C8 1_555 1_555
C3 H2 1_555 1_555
C4 C2 1_555 1_555
C5 C1 1_555 1_555
H3 C5 1_555 1_555
C6 C9 1_555 1_555
C7 N1 1_555 1_555
H4 C7 1_555 1_555
C8 N2 1_555 1_555
H5 C8 1_555 1_555
C9 C2 1_555 1_555
C10 C1 1_555 1_555
Zn2 O1 1_555 1_555
Zn3 O2 1_555 1_555
Zn5 O4 1_555 1_555
O5 Zn1 1_555 1_555
O8 Zn1 1_555 1_555
N2 C7 1_555 1_555
C3 C4 1_555 1_555
C5 C9 1_555 1_555
Zn1_2 N1_2 1_555 1_555
N1_2 N3_2 1_555 1_555
N3_2 C8_2 1_555 1_555
C7_2 N1_2 1_555 1_555
H4_2 C7_2 1_555 1_555
C8_2 N2_2 1_555 1_555
H5_2 C8_2 1_555 1_555
O5_2 Zn1_2 1_555 1_555
O8_2 Zn1_2 1_555 1_555
N2_2 C7_2 1_555 1_555
O1_2 C6_2 1_555 1_555
O2_2 C6_2 1_555 1_555
O3_2 C10_2 1_555 1_555
O4_2 C10_2 1_555 1_555
C1_2 C3_2 1_555 1_555
C2_2 H1_2 1_555 1_555
C3_2 H2_2 1_555 1_555
C4_2 C2_2 1_555 1_555
C5_2 C1_2 1_555 1_555
H3_2 C5_2 1_555 1_555
C6_2 C9_2 1_555 1_555
C9_2 C2_2 1_555 1_555
C10_2 C1_2 1_555 1_555
Zn3 O1_2 1_555 1_555
Zn2 O2_2 1_555 1_555
Zn4 O4_2 1_555 1_555
C3_2 C4_2 1_555 1_555
C5_2 C9_2 1_555 1_555
O3_3 C10_3 1_555 1_555
O4_3 C10_3 1_555 1_555
Zn4_2 O3_3 1_555 1_555
Zn5_2 O4_3 1_555 1_555
O5 C6_3 1_555 1_555
O6_2 C6_3 1_555 1_555
C1_3 C3_3 1_555 1_555
C2_3 H1_3 1_555 1_555
C3_3 H2_3 1_555 1_555
C4_3 C2_3 1_555 1_555
C5_3 C1_3 1_555 1_555
H3_3 C5_3 1_555 1_555
C6_3 C9_3 1_555 1_555
C9_3 C2_3 1_555 1_555
C3_3 C4_3 1_555 1_555
C5_3 C9_3 1_555 1_555
Zn2 N1_3 1_555 1_555
N1_3 N3_3 1_555 1_555
N3_3 C8_3 1_555 1_555
C7_3 N1_3 1_555 1_555
H4_3 C7_3 1_555 1_555
C8_3 N2_3 1_555 1_555
H5_3 C8_3 1_555 1_555
O7_3 Zn2 1_555 1_555
O8_3 Zn2 1_555 1_555
N2_3 C7_3 1_555 1_555
O3_4 C10_4 1_555 1_555
O4_4 C10_4 1_555 1_555
Zn5_2 O3_4 1_555 1_555
Zn4_2 O4_4 1_555 1_555
Zn3 N1_4 1_555 1_555
O5_2 C6_4 1_555 1_555
O6 C6_4 1_555 1_555
N1_4 N3_4 1_555 1_555
N2_4 C4_4 1_555 1_555
C1_4 C3_4 1_555 1_555
C2_4 H1_4 1_555 1_555
N3_4 C8_4 1_555 1_555
C3_4 H2_4 1_555 1_555
C4_4 C2_4 1_555 1_555
C5_4 C1_4 1_555 1_555
H3_4 C5_4 1_555 1_555
C6_4 C9_4 1_555 1_555
C7_4 N1_4 1_555 1_555
H4_4 C7_4 1_555 1_555
C8_4 N2_4 1_555 1_555
H5_4 C8_4 1_555 1_555
C9_4 C2_4 1_555 1_555
O7_4 Zn3 1_555 1_555
O8_4 Zn3 1_555 1_555
N2_4 C7_4 1_555 1_555
C3_4 C4_4 1_555 1_555
C5_4 C9_4 1_555 1_555
Zn4 N1_5 1_555 1_555
O1_3 C6_5 1_555 1_555
O2_3 C6_5 1_555 1_555
O7 C10_5 1_555 1_555
O8_2 C10_5 1_555 1_555
N1_5 N3_5 1_555 1_555
N2_5 C4_5 1_555 1_555
C1_5 C3_5 1_555 1_555
C2_5 H1_5 1_555 1_555
N3_5 C8_5 1_555 1_555
C3_5 H2_5 1_555 1_555
C4_5 C2_5 1_555 1_555
C5_5 C1_5 1_555 1_555
H3_5 C5_5 1_555 1_555
C6_5 C9_5 1_555 1_555
C7_5 N1_5 1_555 1_555
H4_5 C7_5 1_555 1_555
C8_5 N2_5 1_555 1_555
H5_5 C8_5 1_555 1_555
C9_5 C2_5 1_555 1_555
C10_5 C1_5 1_555 1_555
Zn4_2 O1_3 1_555 1_555
Zn5_2 O2_3 1_555 1_555
O5_3 Zn4 1_555 1_555
N2_5 C7_5 1_555 1_555
C3_5 C4_5 1_555 1_555
C5_5 C9_5 1_555 1_555
O1_4 C6_6 1_555 1_555
O2_4 C6_6 1_555 1_555
O7_2 C10_6 1_555 1_555
O8 C10_6 1_555 1_555
C1_6 C3_6 1_555 1_555
C2_6 H1_6 1_555 1_555
C3_6 H2_6 1_555 1_555
C4_6 C2_6 1_555 1_555
C5_6 C1_6 1_555 1_555
H3_6 C5_6 1_555 1_555
C6_6 C9_6 1_555 1_555
C9_6 C2_6 1_555 1_555
C10_6 C1_6 1_555 1_555
Zn5_2 O1_4 1_555 1_555
Zn4_2 O2_4 1_555 1_555
C3_6 C4_6 1_555 1_555
C5_6 C9_6 1_555 1_555
Zn5 N1_6 1_555 1_555
N1_6 N3_6 1_555 1_555
N3_6 C8_6 1_555 1_555
C7_6 N1_6 1_555 1_555
H4_6 C7_6 1_555 1_555
C8_6 N2_6 1_555 1_555
H5_6 C8_6 1_555 1_555
O5_4 Zn5 1_555 1_555
N2_6 C7_6 1_555 1_555
Zn4_2 N1_7 1_555 1_555
N1_7 N3_7 1_555 1_555
N3_7 C8_7 1_555 1_555
C7_7 N1_7 1_555 1_555
H4_7 C7_7 1_555 1_555
C8_7 N2_7 1_555 1_555
H5_7 C8_7 1_555 1_555
N2_7 C7_7 1_555 1_555
O5_3 C6_7 1_555 1_555
O6_4 C6_7 1_555 1_555
C1_7 C3_7 1_555 1_555
C2_7 H1_7 1_555 1_555
C3_7 H2_7 1_555 1_555
C4_7 C2_7 1_555 1_555
C5_7 C1_7 1_555 1_555
H3_7 C5_7 1_555 1_555
C6_7 C9_7 1_555 1_555
C9_7 C2_7 1_555 1_555
C3_7 C4_7 1_555 1_555
C5_7 C9_7 1_555 1_555
O7_3 C10_7 1_555 1_555
O8_4 C10_7 1_555 1_555
Zn5_2 N1_8 1_555 1_555
O5_4 C6_8 1_555 1_555
O6_3 C6_8 1_555 1_555
N1_8 N3_8 1_555 1_555
N2_8 C4_8 1_555 1_555
C1_8 C3_8 1_555 1_555
C2_8 H1_8 1_555 1_555
N3_8 C8_8 1_555 1_555
C3_8 H2_8 1_555 1_555
C4_8 C2_8 1_555 1_555
C5_8 C1_8 1_555 1_555
H3_8 C5_8 1_555 1_555
C6_8 C9_8 1_555 1_555
C7_8 N1_8 1_555 1_555
H4_8 C7_8 1_555 1_555
C8_8 N2_8 1_555 1_555
H5_8 C8_8 1_555 1_555
C9_8 C2_8 1_555 1_555
N2_8 C7_8 1_555 1_555
C3_8 C4_8 1_555 1_555
C5_8 C9_8 1_555 1_555
O7_4 C10_8 1_555 1_555
O8_3 C10_8 1_555 1_555

#END
