
###############################################################################
#
# This file contains modified crystal structure data generated from the
# MOF subset of the Cambridge Structural Database (CSD) v543 
# hosted by the Cambridge Crystallographic Data Centre (CCDC).
#
# This work is licensed under the Creative Commons
# Attribution-NonCommercial-ShareAlike 4.0 International License.
# To view a copy of this license, visit
# http://creativecommons.org/licenses/by-nc-sa/4.0/
# or send a letter to
# Creative Commons, PO Box 1866, Mountain View, CA 94042, USA.
#
# CIF created using the CSD Python API on 29 September 2022
# The structure has been converted into the P1 space group
# The structure has a 3D framework
# The original CSD entry SOWCOY01 is in the monoclinic crystal system
# The framework has been calculated to contain at least 10.0% void space
# The void calculation uses a probe of radius 1.32A, grid spacing 0.4
#
###############################################################################

data_SOWCOY01
_chemical_formula_moiety         '(C40 H20 N12 O16 Zn2)n'
_symmetry_cell_setting           triclinic
_symmetry_space_group_name_H-M   'P 1'
_symmetry_Int_Tables_number      1
_space_group_name_Hall           'P 1'
loop_
_symmetry_equiv_pos_site_id
_symmetry_equiv_pos_as_xyz
1 x,y,z
_cell_length_a                   10.9484(3)
_cell_length_b                   12.1060(4)
_cell_length_c                   14.7728(5)
_cell_angle_alpha                90
_cell_angle_beta                 109.791(3)
_cell_angle_gamma                90
_cell_volume                     1842.35
loop_
_atom_site_label
_atom_site_type_symbol
_atom_site_fract_x
_atom_site_fract_y
_atom_site_fract_z
Zn2 Zn 0.10926(4) 0.91847(4) 0.03151(3)
Zn4 Zn 0.10926(4) 0.58153(4) 0.53151(3)
O6 O 0.0032(3) 0.3600(3) 0.3939(3)
O7 O 0.0073(3) 0.3437(3) 0.5897(3)
Zn5 Zn 0.89074(4) 0.08153(4) 0.96849(3)
Zn1 Zn 0.89074(4) 0.41847(4) 0.46849(3)
O1 O 0.8304(3) 0.5225(3) 0.5533(3)
O2 O 0.8257(3) 0.9621(3) 0.8655(3)
O3 O 0.9968(3) 0.6400(3) 0.6061(3)
N1 N 0.2725(3) 0.6737(3) 0.5747(3)
C1 C 0.8805(4) 0.7361(4) 0.7314(3)
H1 H 0.9708 0.7364 0.7549
O4 O 0.9927(3) 0.8437(3) 0.9103(3)
C2 C 0.8840(5) 0.8758(5) 0.8581(3)
C3 C 0.8874(4) 0.6046(4) 0.6008(3)
N2 N 0.4734(4) 0.7275(3) 0.6295(3)
N3 N 0.2720(4) 0.7882(4) 0.5825(3)
C4 C 0.3939(4) 0.6398(4) 0.6027(3)
H2 H 0.4204 0.5667 0.6039
C5 C 0.6794(4) 0.6627(4) 0.6214(3)
H3 H 0.6349 0.6151 0.5717
C6 C 0.6136(4) 0.7282(4) 0.6648(4)
C7 C 0.6775(5) 0.8008(4) 0.7402(4)
H4 H 0.6310 0.8468 0.7671
C8 C 0.8129(4) 0.8017(4) 0.7736(3)
C9 C 0.8145(4) 0.6688(4) 0.6531(3)
C10 C 0.3934(5) 0.8169(5) 0.6153(4)
H5 H 0.4222 0.8894 0.6276
O5 O 0.8257(3) 0.5379(3) 0.3655(3)
N4 N 0.7275(3) 0.3263(3) 0.4253(3)
O5_2 O 0.1743(3) 0.0379(3) 0.1345(3)
O1_2 O 0.1696(3) 0.0225(3) 0.9467(3)
O2_2 O 0.1743(3) 0.4621(3) 0.6345(3)
O3_2 O 0.0032(3) 0.1400(3) 0.8939(3)
N1_2 N 0.7275(3) 0.1737(3) 0.9253(3)
C1_2 C 0.1195(4) 0.2361(4) 0.7686(3)
H1_2 H 0.0292 0.2364 0.7451
C2_2 C 0.1160(5) 0.3758(5) 0.6419(3)
C3_2 C 0.1126(4) 0.1046(4) 0.8992(3)
N2_2 N 0.5266(4) 0.2275(3) 0.8705(3)
N3_2 N 0.7280(4) 0.2882(4) 0.9175(3)
C4_2 C 0.6061(4) 0.1398(4) 0.8973(3)
H2_2 H 0.5796 0.0667 0.8961
C5_2 C 0.3206(4) 0.1627(4) 0.8786(3)
H3_2 H 0.3651 0.1151 0.9283
C6_2 C 0.3864(4) 0.2282(4) 0.8352(4)
C7_2 C 0.3225(5) 0.3008(4) 0.7598(4)
H4_2 H 0.3690 0.3468 0.7329
C8_2 C 0.1871(4) 0.3017(4) 0.7264(3)
C9_2 C 0.1855(4) 0.1688(4) 0.8469(3)
C10_2 C 0.6066(5) 0.3169(5) 0.8847(4)
H5_2 H 0.5778 0.3894 0.8724
N4_2 N 0.2725(3) 0.8263(3) 0.0747(3)
O6_2 O 0.9968(3) 0.8600(3) 0.1061(3)
O1_3 O 0.1696(3) 0.4775(3) 0.4467(3)
C1_3 C 0.1195(4) 0.2639(4) 0.2686(3)
H1_3 H 0.0292 0.2636 0.2451
O4_2 O 0.0073(3) 0.1563(3) 0.0897(3)
C2_3 C 0.1160(5) 0.1242(5) 0.1419(3)
C3_3 C 0.1126(4) 0.3954(4) 0.3992(3)
N2_3 N 0.5266(4) 0.2725(3) 0.3705(3)
N3_3 N 0.7280(4) 0.2118(4) 0.4175(3)
C4_3 C 0.6061(4) 0.3602(4) 0.3973(3)
H2_3 H 0.5796 0.4333 0.3961
C5_3 C 0.3206(4) 0.3373(4) 0.3786(3)
H3_3 H 0.3651 0.3849 0.4283
C6_3 C 0.3864(4) 0.2718(4) 0.3352(4)
C7_3 C 0.3225(5) 0.1992(4) 0.2598(4)
H4_3 H 0.3690 0.1532 0.2329
C8_3 C 0.1871(4) 0.1983(4) 0.2264(3)
C9_3 C 0.1855(4) 0.3312(4) 0.3469(3)
C10_3 C 0.6066(5) 0.1831(5) 0.3847(4)
H5_3 H 0.5778 0.1106 0.3724
O7_2 O 0.9927(3) 0.6563(3) 0.4103(3)
O1_4 O 0.8304(3) 0.9775(3) 0.0533(3)
C1_4 C 0.8805(4) 0.7639(4) 0.2314(3)
H1_4 H 0.9708 0.7636 0.2549
C2_4 C 0.8840(5) 0.6242(5) 0.3581(3)
C3_4 C 0.8874(4) 0.8954(4) 0.1008(3)
N2_4 N 0.4734(4) 0.7725(3) 0.1295(3)
N3_4 N 0.2720(4) 0.7118(4) 0.0825(3)
C4_4 C 0.3939(4) 0.8602(4) 0.1027(3)
H2_4 H 0.4204 0.9333 0.1039
C5_4 C 0.6794(4) 0.8373(4) 0.1214(3)
H3_4 H 0.6349 0.8849 0.0717
C6_4 C 0.6136(4) 0.7718(4) 0.1648(4)
C7_4 C 0.6775(5) 0.6992(4) 0.2402(4)
H4_4 H 0.6310 0.6532 0.2671
C8_4 C 0.8129(4) 0.6983(4) 0.2736(3)
C9_4 C 0.8145(4) 0.8312(4) 0.1531(3)
C10_4 C 0.3934(5) 0.6831(5) 0.1153(4)
H5_4 H 0.4222 0.6106 0.1276
loop_
_geom_bond_atom_site_label_1
_geom_bond_atom_site_label_2
_geom_bond_site_symmetry_1
_geom_bond_site_symmetry_2
Zn1 O1 1_555 1_555
O1 C3 1_555 1_555
O2 C2 1_555 1_555
O3 C3 1_555 1_555
N1 N3 1_555 1_555
C1 H1 1_555 1_555
O4 C2 1_555 1_555
C2 C8 1_555 1_555
C3 C9 1_555 1_555
N2 C4 1_555 1_555
N3 C10 1_555 1_555
C4 N1 1_555 1_555
H2 C4 1_555 1_555
C5 H3 1_555 1_555
C6 N2 1_555 1_555
C7 C6 1_555 1_555
H4 C7 1_555 1_555
C8 C1 1_555 1_555
C9 C1 1_555 1_555
C10 N2 1_555 1_555
H5 C10 1_555 1_555
Zn4 N1 1_555 1_555
O5 Zn1 1_555 1_555
N4 Zn1 1_555 1_555
C5 C6 1_555 1_555
C5 C9 1_555 1_555
C7 C8 1_555 1_555
O1_2 C3_2 1_555 1_555
O2_2 C2_2 1_555 1_555
O3_2 C3_2 1_555 1_555
N1_2 N3_2 1_555 1_555
C1_2 H1_2 1_555 1_555
O7 C2_2 1_555 1_555
C2_2 C8_2 1_555 1_555
C3_2 C9_2 1_555 1_555
N2_2 C4_2 1_555 1_555
N3_2 C10_2 1_555 1_555
C4_2 N1_2 1_555 1_555
H2_2 C4_2 1_555 1_555
C5_2 H3_2 1_555 1_555
C6_2 N2_2 1_555 1_555
C7_2 C6_2 1_555 1_555
H4_2 C7_2 1_555 1_555
C8_2 C1_2 1_555 1_555
C9_2 C1_2 1_555 1_555
C10_2 N2_2 1_555 1_555
H5_2 C10_2 1_555 1_555
Zn5 N1_2 1_555 1_555
Zn4 O2_2 1_555 1_555
C5_2 C6_2 1_555 1_555
C5_2 C9_2 1_555 1_555
C7_2 C8_2 1_555 1_555
N4_2 Zn2 1_555 1_555
Zn4 O1_3 1_555 1_555
O1_3 C3_3 1_555 1_555
O5_2 C2_3 1_555 1_555
O6 C3_3 1_555 1_555
N4 N3_3 1_555 1_555
C1_3 H1_3 1_555 1_555
O4_2 C2_3 1_555 1_555
C2_3 C8_3 1_555 1_555
C3_3 C9_3 1_555 1_555
N2_3 C4_3 1_555 1_555
N3_3 C10_3 1_555 1_555
C4_3 N4 1_555 1_555
H2_3 C4_3 1_555 1_555
C5_3 H3_3 1_555 1_555
C6_3 N2_3 1_555 1_555
C7_3 C6_3 1_555 1_555
H4_3 C7_3 1_555 1_555
C8_3 C1_3 1_555 1_555
C9_3 C1_3 1_555 1_555
C10_3 N2_3 1_555 1_555
H5_3 C10_3 1_555 1_555
C5_3 C6_3 1_555 1_555
C5_3 C9_3 1_555 1_555
C7_3 C8_3 1_555 1_555
O1_4 C3_4 1_555 1_555
O5 C2_4 1_555 1_555
O6_2 C3_4 1_555 1_555
N4_2 N3_4 1_555 1_555
C1_4 H1_4 1_555 1_555
O7_2 C2_4 1_555 1_555
C2_4 C8_4 1_555 1_555
C3_4 C9_4 1_555 1_555
N2_4 C4_4 1_555 1_555
N3_4 C10_4 1_555 1_555
C4_4 N4_2 1_555 1_555
H2_4 C4_4 1_555 1_555
C5_4 H3_4 1_555 1_555
C6_4 N2_4 1_555 1_555
C7_4 C6_4 1_555 1_555
H4_4 C7_4 1_555 1_555
C8_4 C1_4 1_555 1_555
C9_4 C1_4 1_555 1_555
C10_4 N2_4 1_555 1_555
H5_4 C10_4 1_555 1_555
C5_4 C6_4 1_555 1_555
C5_4 C9_4 1_555 1_555
C7_4 C8_4 1_555 1_555

#END
