
###############################################################################
#
# This file contains modified crystal structure data generated from the
# MOF subset of the Cambridge Structural Database (CSD) v543 
# hosted by the Cambridge Crystallographic Data Centre (CCDC).
#
# This work is licensed under the Creative Commons
# Attribution-NonCommercial-ShareAlike 4.0 International License.
# To view a copy of this license, visit
# http://creativecommons.org/licenses/by-nc-sa/4.0/
# or send a letter to
# Creative Commons, PO Box 1866, Mountain View, CA 94042, USA.
#
# CIF created using the CSD Python API on 29 September 2022
# The structure has been converted into the P1 space group
# The structure has a 3D framework
# The original CSD entry SOWYOS is in the monoclinic crystal system
# The framework has been calculated to contain at least 10.0% void space
# The void calculation uses a probe of radius 1.32A, grid spacing 0.4
#
###############################################################################

data_SOWYOS
_chemical_formula_moiety         '(C48 H120 N4 O12 Rb3 Si8)n'
_symmetry_cell_setting           triclinic
_symmetry_space_group_name_H-M   'P 1'
_symmetry_Int_Tables_number      1
_space_group_name_Hall           'P 1'
loop_
_symmetry_equiv_pos_site_id
_symmetry_equiv_pos_as_xyz
1 x,y,z
_cell_length_a                   11.759(2)
_cell_length_b                   11.231(3)
_cell_length_c                   16.927(3)
_cell_angle_alpha                90
_cell_angle_beta                 93.91(1)
_cell_angle_gamma                90
_cell_volume                     2230.27
loop_
_atom_site_label
_atom_site_type_symbol
_atom_site_fract_x
_atom_site_fract_y
_atom_site_fract_z
N1 N 0.0657(5) 0.6305(5) 0.5894(3)
Si1 Si 0.1575(2) 0.5739(2) 0.6575(1)
C1 C 0.1084(9) 0.5773(13) 0.7613(5)
C2 C 0.3041(7) 0.6443(8) 0.6650(6)
C3 C 0.1860(9) 0.4124(8) 0.6382(6)
Si2 Si 0.0351(2) 0.7734(2) 0.5684(1)
C5 C 0.0750(8) 0.8851(8) 0.6488(6)
C6 C 0.1079(11) 0.8288(9) 0.4795(6)
H1 H 0.0924 0.6615 0.7738
H2 H 0.0344 0.5350 0.7546
H3 H 0.1521 0.5423 0.8076
H4 H 0.3625 0.5960 0.6953
H5 H 0.2909 0.7214 0.6912
H6 H 0.3229 0.6552 0.6093
H7 H 0.2467 0.3774 0.6744
H8 H 0.2229 0.4064 0.5876
H9 H 0.1342 0.3430 0.6324
H13 H 0.0420 0.9632 0.6329
H14 H 0.1578 0.8993 0.6578
H15 H 0.0482 0.8698 0.7020
H16 H 0.0820 0.9098 0.4924
H17 H 0.0692 0.7936 0.4310
H18 H 0.1913 0.8164 0.4852
C18 C 0.1225(7) 0.2016(8) 0.4565(6)
H44 H 0.1337 0.1162 0.4693
H45 H 0.1481 0.2572 0.4995
H46 H 0.1419 0.2253 0.4028
Rb2 Rb 0.1401(1) 0.5189(1) 0.4308(1)
O7 O 0.2607(5) 0.3724(5) 0.2922(3)
O8 O 0.1646(6) 0.6774(5) 0.2950(4)
O9 O 0.3926(5) 0.5140(5) 0.4583(4)
Rb1 Rb 0.8599(1) 0.4811(1) 0.5692(1)
C4 C 0.8775(7) 0.7984(8) 0.5435(6)
O1 O 0.7393(5) 0.6276(5) 0.7078(3)
O2 O 0.6646(6) 0.8226(5) 0.7950(4)
C7 C 0.6331(8) 0.6268(8) 0.7406(6)
C8 C 0.5858(8) 0.7508(8) 0.7464(6)
C9 C 0.7715(8) 0.8237(9) 0.7623(7)
C10 C 0.8176(9) 0.6987(9) 0.7555(7)
O3 O 0.6074(5) 0.4860(5) 0.5417(4)
C11 C 0.5173(7) 0.4042(8) 0.5514(6)
C12 C 0.5604(7) 0.6017(8) 0.5224(6)
H10 H 0.8663 0.8838 0.5307
H11 H 0.8519 0.7428 0.5005
H12 H 0.8581 0.7747 0.5972
H19 H 0.6421 0.5837 0.7963
H20 H 0.5749 0.5661 0.7117
H21 H 0.5879 0.7701 0.6852
H22 H 0.5028 0.7449 0.7666
H23 H 0.8288 0.8661 0.8045
H24 H 0.7352 0.8482 0.7056
H25 H 0.9021 0.6830 0.7397
H26 H 0.8134 0.6853 0.8172
H27 H 0.4732 0.4172 0.6033
H28 H 0.5603 0.3219 0.5604
H29 H 0.6270 0.6644 0.5182
H30 H 0.5147 0.6171 0.5733
C13 C 0.4396(7) 0.3983(8) 0.4776(6)
C14 C 0.4827(7) 0.5958(8) 0.4486(6)
H31 H 0.5268 0.5828 0.3967
H32 H 0.4397 0.6781 0.4396
H33 H 0.3730 0.3356 0.4818
H34 H 0.4853 0.3829 0.4267
N2 N 0.9343(5) 0.3695(5) 0.4106(3)
Si3 Si 0.8425(2) 0.4261(2) 0.3425(1)
C15 C 0.8916(9) 0.4227(13) 0.2387(5)
C16 C 0.6959(7) 0.3557(8) 0.3350(6)
C17 C 0.8140(9) 0.5876(8) 0.3618(6)
Si4 Si 0.9649(2) 0.2266(2) 0.4316(1)
C19 C 0.9250(8) 0.1149(8) 0.3512(6)
C20 C 0.8921(11) 0.1712(9) 0.5205(6)
H35 H 0.9076 0.3385 0.2262
H36 H 0.9656 0.4650 0.2454
H37 H 0.8479 0.4577 0.1924
H38 H 0.6375 0.4040 0.3047
H39 H 0.7091 0.2786 0.3088
H40 H 0.6771 0.3448 0.3907
H41 H 0.7533 0.6226 0.3256
H42 H 0.7771 0.5936 0.4124
H43 H 0.8658 0.6570 0.3676
H47 H 0.9580 0.0368 0.3671
H48 H 0.8422 0.1007 0.3422
H49 H 0.9518 0.1302 0.2980
H50 H 0.9180 0.0902 0.5076
H51 H 0.9308 0.2064 0.5690
H52 H 0.8087 0.1836 0.5148
O5 O 0.7607(5) 0.1276(5) 0.7922(3)
O6 O 0.8354(6) 0.3226(5) 0.7050(4)
C21 C 0.8669(8) 0.1268(8) 0.7594(6)
C22 C 0.9142(8) 0.2508(8) 0.7536(6)
C23 C 0.7285(8) 0.3237(9) 0.7377(7)
C24 C 0.6824(9) 0.1987(9) 0.7445(7)
H53 H 0.8579 0.0837 0.7037
H54 H 0.9251 0.0661 0.7883
H55 H 0.9121 0.2701 0.8148
H56 H 0.9972 0.2449 0.7334
H57 H 0.6712 0.3661 0.6955
H58 H 0.7648 0.3482 0.7944
H59 H 0.5979 0.1830 0.7603
H60 H 0.6866 0.1853 0.6828
Rb3 Rb 0.6401(1) 0.9811(1) 0.9308(1)
O4 O 0.1074(5) 0.0140(5) 0.0417(4)
C14_2 C 0.0173(7) 0.0958(8) 0.0514(6)
H32_2 H 0.0603 0.1781 0.0604
Rb4 Rb 0.3599(1) 0.0189(1) 0.0692(1)
C13_2 C 0.0604(7) 0.8983(8) 0.0224(6)
H33_2 H 0.1270 0.8356 0.0182
H34_2 H 0.0147 0.8829 0.0733
H27_2 H 0.0268 0.9172 0.8967
C6_2 C 0.3921(11) 0.3288(9) 0.0205(6)
H16_2 H 0.4180 0.4098 0.0076
H17_2 H 0.4308 0.2936 0.0690
H18_2 H 0.3087 0.3164 0.0148
H31_2 H 0.9732 0.0828 0.1033
C17_2 C 0.6860(9) 0.0876(8) 0.1382(6)
H41_2 H 0.7467 0.1226 0.1744
H42_2 H 0.7229 0.0936 0.0876
H43_2 H 0.6342 0.1570 0.1324
O8_2 O 0.3354(6) 0.1774(5) 0.2050(4)
N1_2 N 0.4343(5) 0.1305(5) 0.9106(3)
Si1_2 Si 0.3425(2) 0.0739(2) 0.8425(1)
C1_2 C 0.3916(9) 0.0773(13) 0.7387(5)
C2_2 C 0.1959(7) 0.1443(8) 0.8350(6)
Si2_2 Si 0.4649(2) 0.2734(2) 0.9316(1)
C4_2 C 0.6225(7) 0.2984(8) 0.9565(6)
C5_2 C 0.4250(8) 0.3851(8) 0.8512(6)
C12_2 C 0.9396(7) 0.1017(8) 0.9776(6)
H1_2 H 0.4076 0.1615 0.7262
H2_2 H 0.4656 0.0350 0.7454
H3_2 H 0.3479 0.0423 0.6924
H4_2 H 0.1375 0.0960 0.8047
H5_2 H 0.2091 0.2214 0.8088
H6_2 H 0.1771 0.1552 0.8907
H10_2 H 0.6337 0.3838 0.9693
H11_2 H 0.6481 0.2428 0.9995
H12_2 H 0.6419 0.2747 0.9028
H13_2 H 0.4580 0.4632 0.8671
H14_2 H 0.3422 0.3993 0.8422
H15_2 H 0.4518 0.3698 0.7980
H29_2 H 0.8730 0.1644 0.9818
H30_2 H 0.9853 0.1171 0.9267
N2_2 N 0.5657(5) 0.8695(5) 0.0894(3)
Si3_2 Si 0.6575(2) 0.9261(2) 0.1575(1)
C15_2 C 0.6084(9) 0.9227(13) 0.2613(5)
C16_2 C 0.8041(7) 0.8557(8) 0.1650(6)
Si4_2 Si 0.5351(2) 0.7266(2) 0.0684(1)
C18_2 C 0.3775(7) 0.7016(8) 0.0435(6)
C19_2 C 0.5750(8) 0.6149(8) 0.1488(6)
H35_2 H 0.5924 0.8385 0.2738
H36_2 H 0.5344 0.9650 0.2546
H37_2 H 0.6521 0.9577 0.3076
H38_2 H 0.8625 0.9040 0.1953
H39_2 H 0.7909 0.7786 0.1912
H40_2 H 0.8229 0.8448 0.1093
H44_2 H 0.3663 0.6162 0.0307
H45_2 H 0.3519 0.7572 0.0005
H46_2 H 0.3581 0.7253 0.0972
H47_2 H 0.5420 0.5368 0.1329
H48_2 H 0.6578 0.6007 0.1578
H49_2 H 0.5482 0.6302 0.2020
O7_2 O 0.2393(5) 0.8724(5) 0.2078(3)
C3_2 C 0.3140(9) 0.9124(8) 0.8618(6)
O3_2 O 0.8926(5) 0.9860(5) 0.9583(4)
C11_2 C 0.9827(7) 0.9042(8) 0.9486(6)
H7_2 H 0.2533 0.8774 0.8256
H8_2 H 0.2771 0.9064 0.9124
H9_2 H 0.3658 0.8430 0.8676
H28_2 H 0.9397 0.8219 0.9396
C20_2 C 0.6079(11) 0.6712(9) 0.9795(6)
H50_2 H 0.5820 0.5902 0.9924
H51_2 H 0.5692 0.7064 0.9310
H52_2 H 0.6913 0.6836 0.9852
C7_2 C 0.3669(8) 0.3732(8) 0.2594(6)
C8_2 C 0.4142(8) 0.2492(8) 0.2536(6)
C9_2 C 0.2285(8) 0.1763(9) 0.2377(7)
C10_2 C 0.1824(9) 0.3013(9) 0.2445(7)
H19_2 H 0.3579 0.4163 0.2037
H20_2 H 0.4251 0.4339 0.2883
H21_2 H 0.4121 0.2299 0.3148
H22_2 H 0.4972 0.2551 0.2334
H23_2 H 0.1712 0.1339 0.1955
H24_2 H 0.2648 0.1518 0.2944
H25_2 H 0.0979 0.3170 0.2603
H26_2 H 0.1866 0.3147 0.1828
C21_2 C 0.1331(8) 0.8732(8) 0.2406(6)
C22_2 C 0.0858(8) 0.7492(8) 0.2464(6)
C23_2 C 0.2715(8) 0.6763(9) 0.2623(7)
C24_2 C 0.3176(9) 0.8013(9) 0.2555(7)
H53_2 H 0.1421 0.9163 0.2963
H54_2 H 0.0749 0.9339 0.2117
H55_2 H 0.0879 0.7299 0.1852
H56_2 H 0.0028 0.7551 0.2666
H57_2 H 0.3288 0.6339 0.3045
H58_2 H 0.2352 0.6518 0.2056
H59_2 H 0.4021 0.8170 0.2397
H60_2 H 0.3134 0.8147 0.3172
loop_
_geom_bond_atom_site_label_1
_geom_bond_atom_site_label_2
_geom_bond_site_symmetry_1
_geom_bond_site_symmetry_2
N1 Si1 1_555 1_555
Si1 C1 1_555 1_555
C1 H1 1_555 1_555
C2 Si1 1_555 1_555
C3 Si1 1_555 1_555
Si2 N1 1_555 1_555
C5 Si2 1_555 1_555
C6 Si2 1_555 1_555
H2 C1 1_555 1_555
H3 C1 1_555 1_555
H4 C2 1_555 1_555
H5 C2 1_555 1_555
H6 C2 1_555 1_555
H7 C3 1_555 1_555
H8 C3 1_555 1_555
H9 C3 1_555 1_555
H13 C5 1_555 1_555
H14 C5 1_555 1_555
H15 C5 1_555 1_555
H16 C6 1_555 1_555
H17 C6 1_555 1_555
H18 C6 1_555 1_555
H44 C18 1_555 1_555
H45 C18 1_555 1_555
H46 C18 1_555 1_555
Rb2 N1 1_555 1_555
O7 Rb2 1_555 1_555
O8 Rb2 1_555 1_555
O9 Rb2 1_555 1_555
O1 Rb1 1_555 1_555
O2 C8 1_555 1_555
C7 O1 1_555 1_555
C8 C7 1_555 1_555
C9 O2 1_555 1_555
C10 O1 1_555 1_555
O3 Rb1 1_555 1_555
C11 O3 1_555 1_555
C12 O3 1_555 1_555
H10 C4 1_555 1_555
H11 C4 1_555 1_555
H12 C4 1_555 1_555
H19 C7 1_555 1_555
H20 C7 1_555 1_555
H21 C8 1_555 1_555
H22 C8 1_555 1_555
H23 C9 1_555 1_555
H24 C9 1_555 1_555
H25 C10 1_555 1_555
H26 C10 1_555 1_555
H27 C11 1_555 1_555
H28 C11 1_555 1_555
H29 C12 1_555 1_555
H30 C12 1_555 1_555
C13 C11 1_555 1_555
O9 C13 1_555 1_555
C14 C12 1_555 1_555
H31 C14 1_555 1_555
H32 C14 1_555 1_555
H33 C13 1_555 1_555
H34 C13 1_555 1_555
N2 Rb1 1_555 1_555
Si3 N2 1_555 1_555
C15 Si3 1_555 1_555
C16 Si3 1_555 1_555
C17 Si3 1_555 1_555
Si4 N2 1_555 1_555
C19 Si4 1_555 1_555
C20 Si4 1_555 1_555
H35 C15 1_555 1_555
H36 C15 1_555 1_555
H37 C15 1_555 1_555
H38 C16 1_555 1_555
H39 C16 1_555 1_555
H40 C16 1_555 1_555
H41 C17 1_555 1_555
H42 C17 1_555 1_555
H43 C17 1_555 1_555
H47 C19 1_555 1_555
H48 C19 1_555 1_555
H49 C19 1_555 1_555
H50 C20 1_555 1_555
H51 C20 1_555 1_555
H52 C20 1_555 1_555
O5 C21 1_555 1_555
O6 Rb1 1_555 1_555
C21 C22 1_555 1_555
C22 O6 1_555 1_555
C23 O6 1_555 1_555
C24 O5 1_555 1_555
H53 C21 1_555 1_555
H54 C21 1_555 1_555
H55 C22 1_555 1_555
H56 C22 1_555 1_555
H57 C23 1_555 1_555
H58 C23 1_555 1_555
H59 C24 1_555 1_555
H60 C24 1_555 1_555
Rb3 O2 1_555 1_555
C9 C10 1_555 1_555
O9 C14 1_555 1_555
C23 C24 1_555 1_555
H32_2 C14_2 1_555 1_555
Rb4 O4 1_555 1_555
O4 C14_2 1_555 1_555
H33_2 C13_2 1_555 1_555
H34_2 C13_2 1_555 1_555
H16_2 C6_2 1_555 1_555
H17_2 C6_2 1_555 1_555
H18_2 C6_2 1_555 1_555
H41_2 C17_2 1_555 1_555
H42_2 C17_2 1_555 1_555
H43_2 C17_2 1_555 1_555
O8_2 Rb4 1_555 1_555
N1_2 Si1_2 1_555 1_555
Si1_2 C1_2 1_555 1_555
C1_2 H1_2 1_555 1_555
C2_2 Si1_2 1_555 1_555
Si2_2 N1_2 1_555 1_555
C4_2 Si2_2 1_555 1_555
C5_2 Si2_2 1_555 1_555
H2_2 C1_2 1_555 1_555
H3_2 C1_2 1_555 1_555
H4_2 C2_2 1_555 1_555
H5_2 C2_2 1_555 1_555
H6_2 C2_2 1_555 1_555
H10_2 C4_2 1_555 1_555
H11_2 C4_2 1_555 1_555
H12_2 C4_2 1_555 1_555
H13_2 C5_2 1_555 1_555
H14_2 C5_2 1_555 1_555
H15_2 C5_2 1_555 1_555
H29_2 C12_2 1_555 1_555
H30_2 C12_2 1_555 1_555
Si3_2 N2_2 1_555 1_555
C15_2 Si3_2 1_555 1_555
C16_2 Si3_2 1_555 1_555
Si4_2 N2_2 1_555 1_555
C18_2 Si4_2 1_555 1_555
C19_2 Si4_2 1_555 1_555
H35_2 C15_2 1_555 1_555
H36_2 C15_2 1_555 1_555
H37_2 C15_2 1_555 1_555
H38_2 C16_2 1_555 1_555
H39_2 C16_2 1_555 1_555
H40_2 C16_2 1_555 1_555
H44_2 C18_2 1_555 1_555
H45_2 C18_2 1_555 1_555
H46_2 C18_2 1_555 1_555
H47_2 C19_2 1_555 1_555
H48_2 C19_2 1_555 1_555
H49_2 C19_2 1_555 1_555
O3_2 Rb3 1_555 1_555
C11_2 O3_2 1_555 1_555
H7_2 C3_2 1_555 1_555
H8_2 C3_2 1_555 1_555
H9_2 C3_2 1_555 1_555
H28_2 C11_2 1_555 1_555
H50_2 C20_2 1_555 1_555
H51_2 C20_2 1_555 1_555
H52_2 C20_2 1_555 1_555
O8_2 C8_2 1_555 1_555
C7_2 O7 1_555 1_555
C8_2 C7_2 1_555 1_555
C9_2 O8_2 1_555 1_555
C10_2 O7 1_555 1_555
H19_2 C7_2 1_555 1_555
H20_2 C7_2 1_555 1_555
H21_2 C8_2 1_555 1_555
H22_2 C8_2 1_555 1_555
H23_2 C9_2 1_555 1_555
H24_2 C9_2 1_555 1_555
H25_2 C10_2 1_555 1_555
H26_2 C10_2 1_555 1_555
O7_2 C21_2 1_555 1_555
C21_2 C22_2 1_555 1_555
C22_2 O8 1_555 1_555
C23_2 O8 1_555 1_555
C24_2 O7_2 1_555 1_555
H53_2 C21_2 1_555 1_555
H54_2 C21_2 1_555 1_555
H55_2 C22_2 1_555 1_555
H56_2 C22_2 1_555 1_555
H57_2 C23_2 1_555 1_555
H58_2 C23_2 1_555 1_555
H59_2 C24_2 1_555 1_555
H60_2 C24_2 1_555 1_555
C9_2 C10_2 1_555 1_555
C23_2 C24_2 1_555 1_555

#END
