
###############################################################################
#
# This file contains modified crystal structure data generated from the
# MOF subset of the Cambridge Structural Database (CSD) v543 
# hosted by the Cambridge Crystallographic Data Centre (CCDC).
#
# This work is licensed under the Creative Commons
# Attribution-NonCommercial-ShareAlike 4.0 International License.
# To view a copy of this license, visit
# http://creativecommons.org/licenses/by-nc-sa/4.0/
# or send a letter to
# Creative Commons, PO Box 1866, Mountain View, CA 94042, USA.
#
# CIF created using the CSD Python API on 29 September 2022
# The structure has been converted into the P1 space group
# The structure has a 3D framework
# The original CSD entry SOWYEI is in the monoclinic crystal system
# The framework has been calculated to contain at least 10.0% void space
# The void calculation uses a probe of radius 1.32A, grid spacing 0.4
#
###############################################################################

data_SOWYEI
_chemical_formula_moiety         '(C48 H120 Cs3 N4 O12 Si8)n'
_symmetry_cell_setting           triclinic
_symmetry_space_group_name_H-M   'P 1'
_symmetry_Int_Tables_number      1
_space_group_name_Hall           'P 1'
loop_
_symmetry_equiv_pos_site_id
_symmetry_equiv_pos_as_xyz
1 x,y,z
_cell_length_a                   12.587(2)
_cell_length_b                   11.666(3)
_cell_length_c                   15.200(3)
_cell_angle_alpha                90
_cell_angle_beta                 98.40(2)
_cell_angle_gamma                90
_cell_volume                     2208.02
loop_
_atom_site_label
_atom_site_type_symbol
_atom_site_fract_x
_atom_site_fract_y
_atom_site_fract_z
N1 N 0.0508(1) 0.6519(1) 0.6091(1)
Si1 Si 0.1428(1) 0.6088(1) 0.6932(1)
C1 C 0.1392(2) 0.6793(2) 0.8043(2)
C2 C 0.2862(2) 0.6283(2) 0.6737(2)
C3 C 0.1276(2) 0.4503(2) 0.7134(2)
Si2 Si 0.0270(1) 0.7847(1) 0.5695(1)
C5 C 0.0338(2) 0.9030(2) 0.6547(2)
C6 C 0.1241(3) 0.8334(2) 0.4932(2)
H1 H 0.1949(14) 0.6407(19) 0.8478(15)
H2 H 0.0669(10) 0.6660(21) 0.8216(18)
H3 H 0.1545(19) 0.7630(9) 0.8031(19)
H4 H 0.3060(22) 0.7096(9) 0.6657(16)
H5 H 0.3409(18) 0.5986(19) 0.7220(12)
H6 H 0.3003(22) 0.5886(19) 0.6187(10)
H7 H 0.0556(10) 0.4310(25) 0.7285(16)
H8 H 0.1404(19) 0.4044(22) 0.6613(11)
H9 H 0.1806(15) 0.4225(24) 0.7649(11)
H13 H 0.1095(9) 0.9131(23) 0.6830(16)
H15 H 0.0088(20) 0.9773(14) 0.6275(17)
H16 H 0.1155(21) 0.9160(9) 0.4754(17)
H17 H 0.1124(21) 0.7855(18) 0.4386(12)
H18 H 0.1978(12) 0.8223(20) 0.5250(16)
C18 C 0.1108(2) 0.2052(2) 0.4976(2)
H44 H 0.1243(22) 0.1260(10) 0.5211(16)
H45 H 0.1095(22) 0.2584(16) 0.5487(12)
H46 H 0.1685(18) 0.2281(20) 0.4636(16)
H48 H 0.0089(17) 0.1132(23) 0.2965(13)
Cs2 Cs 0.1367(1) 0.5161(1) 0.4356(1)
O7 O 0.2522(1) 0.3758(1) 0.2988(1)
O8 O 0.1659(1) 0.6826(1) 0.2826(1)
O9 O 0.3900(1) 0.5178(1) 0.4693(1)
Cs1 Cs 0.8633(1) 0.4839(1) 0.5644(1)
C4 C 0.8892(2) 0.7948(2) 0.5024(2)
O1 O 0.7478(1) 0.6242(1) 0.7012(1)
O2 O 0.6659(1) 0.8174(1) 0.7826(1)
C7 C 0.6475(2) 0.6200(2) 0.7344(2)
C8 C 0.5967(2) 0.7367(2) 0.7313(2)
C9 C 0.7668(2) 0.8210(2) 0.7501(2)
C10 C 0.8176(2) 0.7041(2) 0.7522(2)
O3 O 0.6100(1) 0.4822(1) 0.5307(1)
C11 C 0.5390(2) 0.3879(2) 0.5082(2)
C12 C 0.5736(2) 0.5801(2) 0.4787(2)
H10 H 0.8757(22) 0.8740(10) 0.4789(16)
H11 H 0.8905(22) 0.7416(16) 0.4513(12)
H12 H 0.8315(18) 0.7719(20) 0.5364(16)
H14 H 0.9911(17) 0.8868(23) 0.7035(13)
H19 H 0.6646(20) 0.5940(19) 0.7955(7)
H20 H 0.6038(19) 0.5686(18) 0.6931(12)
H21 H 0.5297(12) 0.7409(24) 0.7554(13)
H22 H 0.5781(18) 0.7603(22) 0.6697(8)
H23 H 0.7592(20) 0.8551(19) 0.6878(8)
H24 H 0.8079(18) 0.8702(17) 0.7896(11)
H25 H 0.8335(18) 0.6726(21) 0.8138(8)
H26 H 0.8854(12) 0.7023(22) 0.7257(13)
H27 H 0.5439(20) 0.3677(19) 0.4426(7)
H28 H 0.5660(20) 0.3216(15) 0.5496(11)
H29 H 0.5783(20) 0.5672(21) 0.4170(8)
H30 H 0.6210(17) 0.6398(16) 0.5037(13)
C13 C 0.4264(2) 0.4199(2) 0.5213(2)
C14 C 0.4610(2) 0.6121(2) 0.4918(2)
H31 H 0.4561(20) 0.6323(19) 0.5574(7)
H32 H 0.4340(20) 0.6784(15) 0.4504(11)
H33 H 0.4217(20) 0.4328(21) 0.5830(8)
H34 H 0.3790(17) 0.3602(16) 0.4963(13)
N2 N 0.9492(1) 0.3481(1) 0.3909(1)
Si3 Si 0.8572(1) 0.3912(1) 0.3068(1)
C15 C 0.8608(2) 0.3207(2) 0.1957(2)
C16 C 0.7138(2) 0.3717(2) 0.3263(2)
C17 C 0.8724(2) 0.5497(2) 0.2866(2)
Si4 Si 0.9730(1) 0.2153(1) 0.4305(1)
C19 C 0.9662(2) 0.0970(2) 0.3453(2)
C20 C 0.8759(3) 0.1666(2) 0.5068(2)
H35 H 0.8051(14) 0.3593(19) 0.1522(15)
H36 H 0.9331(10) 0.3340(21) 0.1784(18)
H37 H 0.8455(19) 0.2370(9) 0.1969(19)
H38 H 0.6940(22) 0.2904(9) 0.3343(16)
H39 H 0.6591(18) 0.4014(19) 0.2780(12)
H40 H 0.6997(22) 0.4114(19) 0.3813(10)
H41 H 0.9444(10) 0.5690(25) 0.2715(16)
H42 H 0.8596(19) 0.5956(22) 0.3387(11)
H43 H 0.8194(15) 0.5775(24) 0.2351(11)
H47 H 0.8905(9) 0.0869(23) 0.3170(16)
H49 H 0.9912(20) 0.0227(14) 0.3725(17)
H50 H 0.8845(21) 0.0840(9) 0.5246(17)
H51 H 0.8876(21) 0.2145(18) 0.5614(12)
H52 H 0.8022(12) 0.1777(20) 0.4750(16)
O5 O 0.7522(1) 0.1242(1) 0.7988(1)
O6 O 0.8341(1) 0.3174(1) 0.7174(1)
C21 C 0.8525(2) 0.1200(2) 0.7656(2)
C22 C 0.9033(2) 0.2367(2) 0.7687(2)
C23 C 0.7332(2) 0.3210(2) 0.7499(2)
C24 C 0.6824(2) 0.2041(2) 0.7478(2)
H53 H 0.8354(20) 0.0940(19) 0.7045(7)
H54 H 0.8962(19) 0.0686(18) 0.8069(12)
H55 H 0.9703(12) 0.2409(24) 0.7446(13)
H56 H 0.9219(18) 0.2603(22) 0.8303(8)
H57 H 0.7408(20) 0.3551(19) 0.8122(8)
H58 H 0.6921(18) 0.3702(17) 0.7104(11)
H59 H 0.6665(18) 0.1726(21) 0.6862(8)
H60 H 0.6146(12) 0.2023(22) 0.7743(13)
Cs3 Cs 0.6367(1) 0.9839(1) 0.9356(1)
O4 O 0.1100(1) 0.0178(1) 0.0307(1)
C14_2 C 0.0390(2) 0.1121(2) 0.0082(2)
H32_2 H 0.0660(20) 0.1784(15) 0.0496(11)
Cs4 Cs 0.3633(1) 0.0161(1) 0.0644(1)
H31_2 H 0.0439(20) 0.1323(19) 0.9426(7)
H34_2 H 0.1210(17) 0.8602(16) 0.0037(13)
C13_2 C 0.0736(2) 0.9199(2) 0.9787(2)
H33_2 H 0.0783(20) 0.9328(21) 0.9170(8)
C6_2 C 0.3759(3) 0.3334(2) 0.0068(2)
C12_2 C 0.9264(2) 0.0801(2) 0.0213(2)
H10_2 H 0.6243(22) 0.3740(10) 0.0211(16)
H11_2 H 0.6095(22) 0.2416(16) 0.0487(12)
H16_2 H 0.3845(21) 0.4160(9) 0.0246(17)
H17_2 H 0.3876(21) 0.2855(18) 0.0614(12)
H29_2 H 0.9217(20) 0.0672(21) 0.0830(8)
C17_2 C 0.6276(2) 0.0497(2) 0.2134(2)
H41_2 H 0.5556(10) 0.0690(25) 0.2285(16)
H42_2 H 0.6404(19) 0.0956(22) 0.1613(11)
H43_2 H 0.6806(15) 0.0775(24) 0.2649(11)
O8_2 O 0.3341(1) 0.1826(1) 0.2174(1)
N1_2 N 0.4492(1) 0.1519(1) 0.8909(1)
Si1_2 Si 0.3572(1) 0.1088(1) 0.8068(1)
C1_2 C 0.3608(2) 0.1793(2) 0.6957(2)
C2_2 C 0.2138(2) 0.1283(2) 0.8263(2)
Si2_2 Si 0.4730(1) 0.2847(1) 0.9305(1)
C4_2 C 0.6108(2) 0.2948(2) 0.9976(2)
C5_2 C 0.4662(2) 0.4030(2) 0.8453(2)
H1_2 H 0.3051(14) 0.1407(19) 0.6522(15)
H2_2 H 0.4331(10) 0.1660(21) 0.6784(18)
H3_2 H 0.3455(19) 0.2630(9) 0.6969(19)
H4_2 H 0.1940(22) 0.2096(9) 0.8343(16)
H5_2 H 0.1591(18) 0.0986(19) 0.7780(12)
H6_2 H 0.1997(22) 0.0886(19) 0.8813(10)
H12_2 H 0.6685(18) 0.2719(20) 0.9636(16)
H13_2 H 0.3905(9) 0.4131(23) 0.8170(16)
H14_2 H 0.5089(17) 0.3868(23) 0.7965(13)
H15_2 H 0.4912(20) 0.4773(14) 0.8725(17)
H18_2 H 0.3022(12) 0.3223(20) 0.9750(16)
H30_2 H 0.8790(17) 0.1398(16) 0.9963(13)
H27_2 H 0.9561(20) 0.8677(19) 0.0574(7)
N2_2 N 0.5508(1) 0.8481(1) 0.1091(1)
Si3_2 Si 0.6428(1) 0.8912(1) 0.1932(1)
C15_2 C 0.6392(2) 0.8207(2) 0.3043(2)
C16_2 C 0.7862(2) 0.8717(2) 0.1737(2)
Si4_2 Si 0.5270(1) 0.7153(1) 0.0695(1)
C18_2 C 0.3892(2) 0.7052(2) 0.0024(2)
C19_2 C 0.5338(2) 0.5970(2) 0.1547(2)
H35_2 H 0.6949(14) 0.8593(19) 0.3478(15)
H36_2 H 0.5669(10) 0.8340(21) 0.3216(18)
H37_2 H 0.6545(19) 0.7370(9) 0.3031(19)
H38_2 H 0.8060(22) 0.7904(9) 0.1657(16)
H39_2 H 0.8409(18) 0.9014(19) 0.2220(12)
H40_2 H 0.8003(22) 0.9114(19) 0.1187(10)
H46_2 H 0.3315(18) 0.7281(20) 0.0364(16)
H47_2 H 0.6095(9) 0.5869(23) 0.1830(16)
H48_2 H 0.4911(17) 0.6132(23) 0.2035(13)
H49_2 H 0.5088(20) 0.5227(14) 0.1275(17)
H52_2 H 0.6978(12) 0.6777(20) 0.0250(16)
O7_2 O 0.2478(1) 0.8758(1) 0.2012(1)
C3_2 C 0.3724(2) 0.9503(2) 0.7866(2)
O3_2 O 0.8900(1) 0.9822(1) 0.9693(1)
C11_2 C 0.9610(2) 0.8879(2) 0.9918(2)
H7_2 H 0.4444(10) 0.9310(25) 0.7715(16)
H8_2 H 0.3596(19) 0.9044(22) 0.8387(11)
H9_2 H 0.3194(15) 0.9225(24) 0.7351(11)
H28_2 H 0.9340(20) 0.8216(15) 0.9504(11)
C20_2 C 0.6241(3) 0.6666(2) 0.9932(2)
H44_2 H 0.3757(22) 0.6260(10) 0.9789(16)
H45_2 H 0.3905(22) 0.7584(16) 0.9513(12)
H50_2 H 0.6155(21) 0.5840(9) 0.9754(17)
H51_2 H 0.6124(21) 0.7145(18) 0.9386(12)
C7_2 C 0.3525(2) 0.3800(2) 0.2656(2)
C8_2 C 0.4033(2) 0.2633(2) 0.2687(2)
C9_2 C 0.2332(2) 0.1790(2) 0.2499(2)
C10_2 C 0.1824(2) 0.2959(2) 0.2478(2)
H19_2 H 0.3354(20) 0.4060(19) 0.2045(7)
H20_2 H 0.3962(19) 0.4314(18) 0.3069(12)
H21_2 H 0.4703(12) 0.2591(24) 0.2446(13)
H22_2 H 0.4219(18) 0.2397(22) 0.3303(8)
H23_2 H 0.2408(20) 0.1449(19) 0.3122(8)
H24_2 H 0.1921(18) 0.1298(17) 0.2104(11)
H25_2 H 0.1665(18) 0.3274(21) 0.1862(8)
H26_2 H 0.1146(12) 0.2977(22) 0.2743(13)
C21_2 C 0.1475(2) 0.8800(2) 0.2344(2)
C22_2 C 0.0967(2) 0.7633(2) 0.2313(2)
C23_2 C 0.2668(2) 0.6790(2) 0.2501(2)
C24_2 C 0.3176(2) 0.7959(2) 0.2522(2)
H53_2 H 0.1646(20) 0.9060(19) 0.2955(7)
H54_2 H 0.1038(19) 0.9314(18) 0.1931(12)
H55_2 H 0.0297(12) 0.7591(24) 0.2554(13)
H56_2 H 0.0781(18) 0.7397(22) 0.1697(8)
H57_2 H 0.2592(20) 0.6449(19) 0.1878(8)
H58_2 H 0.3079(18) 0.6298(17) 0.2896(11)
H59_2 H 0.3335(18) 0.8274(21) 0.3138(8)
H60_2 H 0.3854(12) 0.7977(22) 0.2257(13)
loop_
_geom_bond_atom_site_label_1
_geom_bond_atom_site_label_2
_geom_bond_site_symmetry_1
_geom_bond_site_symmetry_2
N1 Si1 1_555 1_555
Si1 C1 1_555 1_555
C1 H1 1_555 1_555
C2 Si1 1_555 1_555
C3 Si1 1_555 1_555
Si2 N1 1_555 1_555
C5 Si2 1_555 1_555
C6 Si2 1_555 1_555
H2 C1 1_555 1_555
H3 C1 1_555 1_555
H4 C2 1_555 1_555
H5 C2 1_555 1_555
H6 C2 1_555 1_555
H7 C3 1_555 1_555
H8 C3 1_555 1_555
H9 C3 1_555 1_555
H13 C5 1_555 1_555
H15 C5 1_555 1_555
H16 C6 1_555 1_555
H17 C6 1_555 1_555
H18 C6 1_555 1_555
H44 C18 1_555 1_555
H45 C18 1_555 1_555
H46 C18 1_555 1_555
Cs2 N1 1_555 1_555
O7 Cs2 1_555 1_555
O8 Cs2 1_555 1_555
O9 Cs2 1_555 1_555
O1 Cs1 1_555 1_555
O2 C8 1_555 1_555
C7 O1 1_555 1_555
C8 C7 1_555 1_555
C9 O2 1_555 1_555
C10 O1 1_555 1_555
O3 Cs1 1_555 1_555
C11 O3 1_555 1_555
C12 O3 1_555 1_555
H10 C4 1_555 1_555
H11 C4 1_555 1_555
H12 C4 1_555 1_555
H19 C7 1_555 1_555
H20 C7 1_555 1_555
H21 C8 1_555 1_555
H22 C8 1_555 1_555
H23 C9 1_555 1_555
H24 C9 1_555 1_555
H25 C10 1_555 1_555
H26 C10 1_555 1_555
H27 C11 1_555 1_555
H28 C11 1_555 1_555
H29 C12 1_555 1_555
H30 C12 1_555 1_555
C13 C11 1_555 1_555
O9 C13 1_555 1_555
C14 C12 1_555 1_555
H31 C14 1_555 1_555
H32 C14 1_555 1_555
H33 C13 1_555 1_555
H34 C13 1_555 1_555
N2 Cs1 1_555 1_555
Si3 N2 1_555 1_555
C15 Si3 1_555 1_555
C16 Si3 1_555 1_555
C17 Si3 1_555 1_555
Si4 N2 1_555 1_555
C19 Si4 1_555 1_555
C20 Si4 1_555 1_555
H35 C15 1_555 1_555
H36 C15 1_555 1_555
H37 C15 1_555 1_555
H38 C16 1_555 1_555
H39 C16 1_555 1_555
H40 C16 1_555 1_555
H41 C17 1_555 1_555
H42 C17 1_555 1_555
H43 C17 1_555 1_555
H47 C19 1_555 1_555
H49 C19 1_555 1_555
H50 C20 1_555 1_555
H51 C20 1_555 1_555
H52 C20 1_555 1_555
O5 C21 1_555 1_555
O6 Cs1 1_555 1_555
C21 C22 1_555 1_555
C22 O6 1_555 1_555
C23 O6 1_555 1_555
C24 O5 1_555 1_555
H53 C21 1_555 1_555
H54 C21 1_555 1_555
H55 C22 1_555 1_555
H56 C22 1_555 1_555
H57 C23 1_555 1_555
H58 C23 1_555 1_555
H59 C24 1_555 1_555
H60 C24 1_555 1_555
Cs3 O2 1_555 1_555
C9 C10 1_555 1_555
O9 C14 1_555 1_555
C23 C24 1_555 1_555
H32_2 C14_2 1_555 1_555
Cs4 O4 1_555 1_555
O4 C14_2 1_555 1_555
H33_2 C13_2 1_555 1_555
H16_2 C6_2 1_555 1_555
H17_2 C6_2 1_555 1_555
H29_2 C12_2 1_555 1_555
H41_2 C17_2 1_555 1_555
H42_2 C17_2 1_555 1_555
H43_2 C17_2 1_555 1_555
O8_2 Cs4 1_555 1_555
N1_2 Si1_2 1_555 1_555
Si1_2 C1_2 1_555 1_555
C1_2 H1_2 1_555 1_555
C2_2 Si1_2 1_555 1_555
Si2_2 N1_2 1_555 1_555
C4_2 Si2_2 1_555 1_555
C5_2 Si2_2 1_555 1_555
H2_2 C1_2 1_555 1_555
H3_2 C1_2 1_555 1_555
H4_2 C2_2 1_555 1_555
H5_2 C2_2 1_555 1_555
H6_2 C2_2 1_555 1_555
H12_2 C4_2 1_555 1_555
H13_2 C5_2 1_555 1_555
H14_2 C5_2 1_555 1_555
H15_2 C5_2 1_555 1_555
Si3_2 N2_2 1_555 1_555
C15_2 Si3_2 1_555 1_555
C16_2 Si3_2 1_555 1_555
Si4_2 N2_2 1_555 1_555
C18_2 Si4_2 1_555 1_555
C19_2 Si4_2 1_555 1_555
H35_2 C15_2 1_555 1_555
H36_2 C15_2 1_555 1_555
H37_2 C15_2 1_555 1_555
H38_2 C16_2 1_555 1_555
H39_2 C16_2 1_555 1_555
H40_2 C16_2 1_555 1_555
H46_2 C18_2 1_555 1_555
H47_2 C19_2 1_555 1_555
H48_2 C19_2 1_555 1_555
H49_2 C19_2 1_555 1_555
O3_2 Cs3 1_555 1_555
C11_2 O3_2 1_555 1_555
H7_2 C3_2 1_555 1_555
H8_2 C3_2 1_555 1_555
H9_2 C3_2 1_555 1_555
H28_2 C11_2 1_555 1_555
H50_2 C20_2 1_555 1_555
H51_2 C20_2 1_555 1_555
O8_2 C8_2 1_555 1_555
C7_2 O7 1_555 1_555
C8_2 C7_2 1_555 1_555
C9_2 O8_2 1_555 1_555
C10_2 O7 1_555 1_555
H19_2 C7_2 1_555 1_555
H20_2 C7_2 1_555 1_555
H21_2 C8_2 1_555 1_555
H22_2 C8_2 1_555 1_555
H23_2 C9_2 1_555 1_555
H24_2 C9_2 1_555 1_555
H25_2 C10_2 1_555 1_555
H26_2 C10_2 1_555 1_555
O7_2 C21_2 1_555 1_555
C21_2 C22_2 1_555 1_555
C22_2 O8 1_555 1_555
C23_2 O8 1_555 1_555
C24_2 O7_2 1_555 1_555
H53_2 C21_2 1_555 1_555
H54_2 C21_2 1_555 1_555
H55_2 C22_2 1_555 1_555
H56_2 C22_2 1_555 1_555
H57_2 C23_2 1_555 1_555
H58_2 C23_2 1_555 1_555
H59_2 C24_2 1_555 1_555
H60_2 C24_2 1_555 1_555
C9_2 C10_2 1_555 1_555
C23_2 C24_2 1_555 1_555

#END
