
###############################################################################
#
# This file contains modified crystal structure data generated from the
# MOF subset of the Cambridge Structural Database (CSD) v543 
# hosted by the Cambridge Crystallographic Data Centre (CCDC).
#
# This work is licensed under the Creative Commons
# Attribution-NonCommercial-ShareAlike 4.0 International License.
# To view a copy of this license, visit
# http://creativecommons.org/licenses/by-nc-sa/4.0/
# or send a letter to
# Creative Commons, PO Box 1866, Mountain View, CA 94042, USA.
#
# CIF created using the CSD Python API on 29 September 2022
# The structure has been converted into the P1 space group
# The structure has a 3D framework
# The original CSD entry SOXPED is in the monoclinic crystal system
# The framework has been calculated to contain at least 10.0% void space
# The void calculation uses a probe of radius 1.32A, grid spacing 0.4
# The framework is charged, counterions have been retained in the structure
#
###############################################################################

data_SOXPED
_chemical_formula_moiety         '(C124 H80 N60 O36 Zn14 4-)n'
_symmetry_cell_setting           triclinic
_symmetry_space_group_name_H-M   'P 1'
_symmetry_Int_Tables_number      1
_space_group_name_Hall           'P 1'
loop_
_symmetry_equiv_pos_site_id
_symmetry_equiv_pos_as_xyz
1 x,y,z
_cell_length_a                   14.4056(7)
_cell_length_b                   36.3878(19)
_cell_length_c                   9.5535(5)
_cell_angle_alpha                90
_cell_angle_beta                 106.076(3)
_cell_angle_gamma                90
_cell_volume                     4812
loop_
_atom_site_label
_atom_site_type_symbol
_atom_site_fract_x
_atom_site_fract_y
_atom_site_fract_z
Zn8 Zn 0.00018(8) 0.35451(3) 0.50079(10)
Zn1 Zn 0.14744(8) 0.35558(3) 0.25649(10)
Zn2 Zn 0.50557(8) 0.29630(3) 0.18459(11)
N1 N 0.5257(7) 0.3247(2) 0.5569(9)
N2 N 0.4248(6) 0.3184(2) 0.3043(9)
N4 N 0.8601(7) 0.3437(2) 0.4216(9)
N6 N 0.2913(7) 0.3456(2) 0.3241(8)
C1 C 0.7904(8) 0.3467(3) 0.2907(11)
N7 N 0.7198(6) 0.3159(2) 0.4441(9)
O4 O 0.0737(10) 0.33489(12) 0.3848(13)
O5 O 0.0520(7) 0.60110(19) 0.1041(9)
C2 C 0.8111(8) 0.3256(3) 0.5111(11)
H1 H 0.839995 0.320761 0.609055
N8 N 0.2906(8) 0.3809(3) 0.6282(11)
H2 H 0.236906 0.385235 0.563537
H3 H 0.299485 0.388880 0.715748
O6 O 0.0961(7) 0.4020(2) 0.1679(9)
C4 C 0.4441(7) 0.3298(2) 0.4431(9)
C5 C 0.5187(8) 0.3383(3) 0.6791(12)
H4 H 0.572759 0.334947 0.758001
N9 N 0.6258(7) 0.3258(2) 0.1960(9)
C6 C 0.0275(9) 0.4711(3) 0.0605(14)
C9 C 0.3603(8) 0.3618(3) 0.5927(11)
N10 N 0.4458(8) 0.3562(3) 0.7087(9)
C10 C 0.7081(8) 0.3294(3) 0.3037(10)
N12 N 0.7080(8) 0.3595(3) 0.0495(10)
C11 C 0.1032(8) 0.4668(3) 0.1973(11)
O8 O 0.1877(8) 0.4243(2) 0.3749(11)
C12 C 0.1324(9) 0.4285(3) 0.2542(13)
C14 C 0.3310(7) 0.3292(3) 0.2434(10)
H9 H 0.299092 0.324533 0.146255
N15 N 0.8625(7) 0.3786(3) 0.1342(10)
H10 H 0.861941 0.387254 0.050306
H11 H 0.913767 0.380336 0.206026
C16 C 0.1433(10) 0.4965(3) 0.2629(14)
H12 H 0.191522 0.494054 0.350163
C17 C 0.0197(9) 0.5733(3) 0.0226(13)
C20 C 0.3616(8) 0.3465(2) 0.4597(10)
C22 C 0.7849(9) 0.3626(3) 0.1528(11)
C23 C 0.0503(9) 0.5367(3) 0.0868(11)
C24 C 0.0014(12) 0.5059(3) 0.0078(16)
C28 C 0.6333(10) 0.3427(4) 0.0700(12)
C30 C 0.1176(12) 0.5325(3) 0.2084(15)
H20 H 0.148639 0.552876 0.259221
Zn9 Zn 0.00018(8) 0.64549(3) 0.00079(10)
Zn10 Zn 0.64087(8) 0.29354(3) 0.55777(11)
N17 N 0.0327(7) 0.3170(2) 0.6713(10)
N19 N 0.5423(7) 0.2446(2) 0.2327(11)
O10 O 0.0520(7) 0.39890(19) 0.6041(9)
N21 N 0.1144(7) 0.3219(2) 0.0711(10)
Zn4 Zn 0.14087(8) 0.20646(3) 0.05777(11)
O1 O 0.1916(6) 0.2156(2) 0.2649(8)
O3 O 0.4551(7) 0.2887(3) 0.9779(9)
C3 C 0.2972(9) 0.2313(3) 0.4938(12)
C8 C 0.2545(10) 0.2724(4) 0.6589(14)
H6 H 0.209941 0.288767 0.678117
O7 O 0.3057(7) 0.2976(6) 0.9472(14)
C13 C 0.3662(11) 0.2889(4) 0.9029(11)
C15 C 0.2759(7) 0.2132(4) 0.3474(14)
C18 C 0.1244(8) 0.2869(3) 0.0906(11)
H13 H 0.148947 0.279527 0.187039
C21 C 0.3463(8) 0.2687(3) 0.7590(10)
C25 C 0.2309(8) 0.2524(4) 0.5344(14)
H16 H 0.167704 0.252971 0.475166
C26 C 0.4119(10) 0.2469(4) 0.7182(12)
H17 H 0.473175 0.243410 0.781491
O9 O 0.3390(7) 0.1914(3) 0.3223(10)
H18 H 0.578513 0.342028 0.990772
C29 C 0.3872(9) 0.2302(4) 0.5835(13)
H19 H 0.434676 0.217693 0.553593
N16 N 0.0257(7) 0.1753(2) 0.0569(9)
N5 N 0.0423(7) 0.2554(2) 0.7327(11)
C7 C 0.0718(10) 0.27464(17) 0.8567(13)
N13 N 0.0793(11) 0.37379(15) 0.8963(15)
H7 H 0.059725 0.381432 0.807823
H8 H 0.093374 0.389321 0.966892
N14 N 0.1053(6) 0.2601(2) 0.9957(10)
C19 C 0.0200(8) 0.2807(3) 0.6214(11)
C27 C 0.0658(5) 0.31134(19) 0.8118(8)
C31 C 0.0881(6) 0.33715(19) 0.9246(7)
Zn6 Zn 0.00557(8) 0.20370(3) 0.68459(11)
N20 N 0.2198(6) 0.1841(2) 0.9441(9)
H5 H 0.997320 0.450575 0.009648
N1_2 N 0.5257(7) 0.6753(2) 0.0569(9)
C2_2 C 0.8111(8) 0.6744(3) 0.0111(11)
H1_2 H 0.839995 0.679239 0.109055
N8_2 N 0.2906(8) 0.6191(3) 0.1282(11)
H2_2 H 0.236906 0.614765 0.063537
H3_2 H 0.299485 0.611120 0.215748
C5_2 C 0.5187(8) 0.6617(3) 0.1791(12)
H4_2 H 0.572759 0.665053 0.258001
C9_2 C 0.3603(8) 0.6382(3) 0.0927(11)
N10_2 N 0.4458(8) 0.6438(3) 0.2087(9)
Zn10_2 Zn 0.64087(8) 0.70646(3) 0.05777(11)
N17_2 N 0.0327(7) 0.6830(2) 0.1713(10)
Zn1_2 Zn 0.14744(8) 0.64442(3) 0.75649(10)
Zn2_2 Zn 0.50557(8) 0.70370(3) 0.68459(11)
N2_2 N 0.4248(6) 0.6816(2) 0.8043(9)
N4_2 N 0.8601(7) 0.6563(2) 0.9216(9)
N6_2 N 0.2913(7) 0.6544(2) 0.8241(8)
O3_2 O 0.4551(7) 0.7113(3) 0.4779(9)
C1_2 C 0.7904(8) 0.6533(3) 0.7907(11)
N7_2 N 0.7198(6) 0.6841(2) 0.9441(9)
O4_2 O 0.0737(10) 0.66511(12) 0.8848(13)
O6_2 O 0.0961(7) 0.5980(2) 0.6679(9)
C4_2 C 0.4441(7) 0.6702(2) 0.9431(9)
N9_2 N 0.6258(7) 0.6742(2) 0.6960(9)
C6_2 C 0.0275(9) 0.5289(3) 0.5605(14)
C8_2 C 0.2545(10) 0.7276(4) 0.1589(14)
H6_2 H 0.209941 0.711233 0.178117
C10_2 C 0.7081(8) 0.6706(3) 0.8037(10)
O7_2 O 0.3057(7) 0.7024(6) 0.4472(14)
N12_2 N 0.7080(8) 0.6405(3) 0.5495(10)
C11_2 C 0.1032(8) 0.5332(3) 0.6973(11)
O8_2 O 0.1877(8) 0.5757(2) 0.8749(11)
C12_2 C 0.1324(9) 0.5715(3) 0.7542(13)
C13_2 C 0.3662(11) 0.7111(4) 0.4029(11)
C14_2 C 0.3310(7) 0.6708(3) 0.7434(10)
H9_2 H 0.299092 0.675467 0.646255
N15_2 N 0.8625(7) 0.6214(3) 0.6342(10)
H10_2 H 0.861941 0.612746 0.550306
H11_2 H 0.913767 0.619664 0.706026
C16_2 C 0.1433(10) 0.5035(3) 0.7629(14)
H12_2 H 0.191522 0.505946 0.850163
C17_2 C 0.0197(9) 0.4267(3) 0.5226(13)
C20_2 C 0.3616(8) 0.6535(2) 0.9597(10)
C21_2 C 0.3463(8) 0.7313(3) 0.2590(10)
C22_2 C 0.7849(9) 0.6374(3) 0.6528(11)
C23_2 C 0.0503(9) 0.4633(3) 0.5868(11)
C24_2 C 0.0014(12) 0.4941(3) 0.5078(16)
C25_2 C 0.2309(8) 0.7476(4) 0.0344(14)
C26_2 C 0.4119(10) 0.7531(4) 0.2182(12)
H17_2 H 0.473175 0.756590 0.281491
C28_2 C 0.6333(10) 0.6573(4) 0.5700(12)
H18_2 H 0.578513 0.657972 0.490772
C29_2 C 0.3872(9) 0.7698(4) 0.0835(13)
H19_2 H 0.434676 0.782307 0.053593
C30_2 C 0.1176(12) 0.4675(3) 0.7084(15)
H20_2 H 0.148639 0.447124 0.759221
N19_2 N 0.5423(7) 0.7554(2) 0.7327(11)
N21_2 N 0.1144(7) 0.6781(2) 0.5711(10)
Zn4_2 Zn 0.14087(8) 0.79354(3) 0.55777(11)
O1_2 O 0.1916(6) 0.7844(2) 0.7649(8)
N5_2 N 0.0423(7) 0.7446(2) 0.2327(11)
C3_2 C 0.2972(9) 0.7687(3) 0.9938(12)
C7_2 C 0.0718(10) 0.72536(17) 0.3567(13)
N13_2 N 0.0793(11) 0.62621(15) 0.3963(15)
H7_2 H 0.059725 0.618568 0.307823
H8_2 H 0.093374 0.610679 0.466892
C15_2 C 0.2759(7) 0.7868(4) 0.8474(14)
N14_2 N 0.1053(6) 0.7399(2) 0.4957(10)
C18_2 C 0.1244(8) 0.7131(3) 0.5906(11)
H13_2 H 0.148947 0.720473 0.687039
C19_2 C 0.0200(8) 0.7193(3) 0.1214(11)
H16_2 H 0.167704 0.747029 0.975166
O9_2 O 0.3390(7) 0.8086(3) 0.8223(10)
C27_2 C 0.0658(5) 0.68866(19) 0.3118(8)
C31_2 C 0.0881(6) 0.66285(19) 0.4246(7)
Zn6_2 Zn 0.00557(8) 0.79630(3) 0.18459(11)
N16_2 N 0.0257(7) 0.8247(2) 0.5569(9)
N20_2 N 0.2198(6) 0.8159(2) 0.4441(9)
O2 O 0.9675(7) 0.4223(2) 0.3955(9)
H5_2 H 0.997320 0.549425 0.509648
H15 H 0.952621 0.490793 0.421715
N4_3 N 0.3601(7) 0.8437(2) 0.4216(9)
C1_3 C 0.2904(8) 0.8467(3) 0.2907(11)
C2_3 C 0.3111(8) 0.8256(3) 0.5111(11)
H1_3 H 0.339995 0.820761 0.609055
C5_3 C 0.0187(8) 0.8383(3) 0.6791(12)
H4_3 H 0.072759 0.834947 0.758001
N9_3 N 0.1258(7) 0.8258(2) 0.1960(9)
C10_3 C 0.2081(8) 0.8294(3) 0.3037(10)
N12_3 N 0.2080(8) 0.8595(3) 0.0495(10)
N15_3 N 0.3625(7) 0.8786(3) 0.1342(10)
H10_3 H 0.361941 0.887254 0.050306
H11_3 H 0.413767 0.880336 0.206026
C22_3 C 0.2849(9) 0.8626(3) 0.1528(11)
C28_3 C 0.1333(10) 0.8427(4) 0.0700(12)
Zn8_2 Zn 0.50018(8) 0.85451(3) 0.50079(10)
O5_2 O 0.5520(7) 0.10110(19) 0.1041(9)
C17_3 C 0.5197(9) 0.0733(3) 0.0226(13)
C23_3 C 0.5503(9) 0.0367(3) 0.0868(11)
C24_3 C 0.5014(12) 0.0059(3) 0.0078(16)
C30_3 C 0.6176(12) 0.0325(3) 0.2084(15)
H20_3 H 0.648639 0.052876 0.259221
Zn9_2 Zn 0.50018(8) 0.14549(3) 0.00079(10)
Zn1_3 Zn 0.64744(8) 0.85558(3) 0.25649(10)
N2_3 N 0.9248(6) 0.8184(2) 0.3043(9)
N6_3 N 0.7913(7) 0.8456(2) 0.3241(8)
O4_3 O 0.5737(10) 0.83489(12) 0.3848(13)
N8_3 N 0.7906(8) 0.8809(3) 0.6282(11)
H2_3 H 0.736906 0.885235 0.563537
H3_3 H 0.799485 0.888880 0.715748
O6_3 O 0.5961(7) 0.9020(2) 0.1679(9)
C4_3 C 0.9441(7) 0.8298(2) 0.4431(9)
C6_3 C 0.5275(9) 0.9711(3) 0.0605(14)
H5_3 H 0.497320 0.950575 0.009648
C9_3 C 0.8603(8) 0.8618(3) 0.5927(11)
N10_3 N 0.9458(8) 0.8562(3) 0.7087(9)
C11_3 C 0.6032(8) 0.9668(3) 0.1973(11)
O8_3 O 0.6877(8) 0.9243(2) 0.3749(11)
C12_3 C 0.6324(9) 0.9285(3) 0.2542(13)
C14_3 C 0.8310(7) 0.8292(3) 0.2434(10)
H9_3 H 0.799092 0.824533 0.146255
C16_3 C 0.6433(10) 0.9965(3) 0.2629(14)
H12_3 H 0.691522 0.994054 0.350163
C20_3 C 0.8616(8) 0.8465(2) 0.4597(10)
N17_3 N 0.5327(7) 0.8170(2) 0.6713(10)
O10_2 O 0.5520(7) 0.89890(19) 0.6041(9)
N21_3 N 0.6144(7) 0.8219(2) 0.0711(10)
O1_3 O 0.6916(6) 0.7156(2) 0.2649(8)
O3_3 O 0.9551(7) 0.7887(3) 0.9779(9)
C3_3 C 0.7972(9) 0.7313(3) 0.4938(12)
C8_3 C 0.7545(10) 0.7724(4) 0.6589(14)
H6_3 H 0.709941 0.788767 0.678117
O7_3 O 0.8057(7) 0.7976(6) 0.9472(14)
C13_3 C 0.8662(11) 0.7889(4) 0.9029(11)
C15_3 C 0.7759(7) 0.7132(4) 0.3474(14)
C18_3 C 0.6244(8) 0.7869(3) 0.0906(11)
H13_3 H 0.648947 0.779527 0.187039
C21_3 C 0.8463(8) 0.7687(3) 0.7590(10)
C25_3 C 0.7309(8) 0.7524(4) 0.5344(14)
H16_3 H 0.667704 0.752971 0.475166
C26_3 C 0.9119(10) 0.7469(4) 0.7182(12)
H17_3 H 0.973175 0.743410 0.781491
O9_3 O 0.8390(7) 0.6914(3) 0.3223(10)
C29_3 C 0.8872(9) 0.7302(4) 0.5835(13)
H19_3 H 0.934676 0.717693 0.553593
C7_3 C 0.5718(10) 0.77464(17) 0.8567(13)
N13_3 N 0.5793(11) 0.87379(15) 0.8963(15)
H7_3 H 0.559725 0.881432 0.807823
H8_3 H 0.593374 0.889321 0.966892
N14_3 N 0.6053(6) 0.7601(2) 0.9957(10)
C19_3 C 0.5200(8) 0.7807(3) 0.6214(11)
H14 H 0.498805 0.774280 0.523380
C27_3 C 0.5658(5) 0.81134(19) 0.8118(8)
C31_3 C 0.5881(6) 0.83715(19) 0.9246(7)
C2_4 C 0.3111(8) 0.1744(3) 0.0111(11)
H1_4 H 0.339995 0.179239 0.109055
C5_4 C 0.0187(8) 0.1617(3) 0.1791(12)
H4_4 H 0.072759 0.165053 0.258001
N4_4 N 0.3601(7) 0.1563(2) 0.9216(9)
C1_4 C 0.2904(8) 0.1533(3) 0.7907(11)
N9_4 N 0.1258(7) 0.1742(2) 0.6960(9)
C10_4 C 0.2081(8) 0.1706(3) 0.8037(10)
N12_4 N 0.2080(8) 0.1405(3) 0.5495(10)
N15_4 N 0.3625(7) 0.1214(3) 0.6342(10)
H10_4 H 0.361941 0.112746 0.550306
H11_4 H 0.413767 0.119664 0.706026
C22_4 C 0.2849(9) 0.1374(3) 0.6528(11)
C28_4 C 0.1333(10) 0.1573(4) 0.5700(12)
H18_3 H 0.078513 0.157972 0.490772
N8_4 N 0.7906(8) 0.1191(3) 0.1282(11)
H2_4 H 0.736906 0.114765 0.063537
H3_4 H 0.799485 0.111120 0.215748
C9_4 C 0.8603(8) 0.1382(3) 0.0927(11)
N10_4 N 0.9458(8) 0.1438(3) 0.2087(9)
N17_4 N 0.5327(7) 0.1830(2) 0.1713(10)
Zn1_4 Zn 0.64744(8) 0.14442(3) 0.75649(10)
N2_4 N 0.9248(6) 0.1816(2) 0.8043(9)
N6_4 N 0.7913(7) 0.1544(2) 0.8241(8)
O3_4 O 0.9551(7) 0.2113(3) 0.4779(9)
O4_4 O 0.5737(10) 0.16511(12) 0.8848(13)
O6_4 O 0.5961(7) 0.0980(2) 0.6679(9)
C4_4 C 0.9441(7) 0.1702(2) 0.9431(9)
C6_4 C 0.5275(9) 0.0289(3) 0.5605(14)
H5_4 H 0.497320 0.049425 0.509648
C8_4 C 0.7545(10) 0.2276(4) 0.1589(14)
H6_4 H 0.709941 0.211233 0.178117
O7_4 O 0.8057(7) 0.2024(6) 0.4472(14)
C11_4 C 0.6032(8) 0.0332(3) 0.6973(11)
O8_4 O 0.6877(8) 0.0757(2) 0.8749(11)
C12_4 C 0.6324(9) 0.0715(3) 0.7542(13)
C13_4 C 0.8662(11) 0.2111(4) 0.4029(11)
C14_4 C 0.8310(7) 0.1708(3) 0.7434(10)
H9_4 H 0.799092 0.175467 0.646255
C16_4 C 0.6433(10) 0.0035(3) 0.7629(14)
H12_4 H 0.691522 0.005946 0.850163
C20_4 C 0.8616(8) 0.1535(2) 0.9597(10)
C21_4 C 0.8463(8) 0.2313(3) 0.2590(10)
C25_4 C 0.7309(8) 0.2476(4) 0.0344(14)
C26_4 C 0.9119(10) 0.2531(4) 0.2182(12)
H17_4 H 0.973175 0.256590 0.281491
C29_4 C 0.8872(9) 0.2698(4) 0.0835(13)
H19_4 H 0.934676 0.282307 0.053593
N21_4 N 0.6144(7) 0.1781(2) 0.5711(10)
O1_4 O 0.6916(6) 0.2844(2) 0.7649(8)
C3_4 C 0.7972(9) 0.2687(3) 0.9938(12)
C7_4 C 0.5718(10) 0.22536(17) 0.3567(13)
N13_4 N 0.5793(11) 0.12621(15) 0.3963(15)
H7_4 H 0.559725 0.118568 0.307823
H8_4 H 0.593374 0.110679 0.466892
C15_4 C 0.7759(7) 0.2868(4) 0.8474(14)
N14_4 N 0.6053(6) 0.2399(2) 0.4957(10)
C18_4 C 0.6244(8) 0.2131(3) 0.5906(11)
H13_4 H 0.648947 0.220473 0.687039
C19_4 C 0.5200(8) 0.2193(3) 0.1214(11)
H14_2 H 0.498805 0.225720 0.023380
H16_4 H 0.667704 0.247029 0.975166
O9_4 O 0.8390(7) 0.3086(3) 0.8223(10)
C27_4 C 0.5658(5) 0.18866(19) 0.3118(8)
C31_4 C 0.5881(6) 0.16285(19) 0.4246(7)
O2_2 O 0.4675(7) 0.9223(2) 0.3955(9)
C17_4 C 0.5197(9) 0.9267(3) 0.5226(13)
C23_4 C 0.5503(9) 0.9633(3) 0.5868(11)
C24_4 C 0.5014(12) 0.9941(3) 0.5078(16)
H15_2 H 0.452621 0.990793 0.421715
C30_4 C 0.6176(12) 0.9675(3) 0.7084(15)
H20_4 H 0.648639 0.947124 0.759221
O2_3 O 0.9675(7) 0.5777(2) 0.8955(9)
H15_3 H 0.952621 0.509207 0.921715
H14_3 H 0.998805 0.274280 0.523380
H14_4 H 0.998805 0.725720 0.023380
H18_4 H 0.078513 0.842028 0.990772
O2_4 O 0.4675(7) 0.0777(2) 0.8955(9)
H15_4 H 0.452621 0.009207 0.921715
loop_
_geom_bond_atom_site_label_1
_geom_bond_atom_site_label_2
_geom_bond_site_symmetry_1
_geom_bond_site_symmetry_2
Zn1 N6 1_555 1_555
Zn2 N2 1_555 1_555
Zn8 O4 1_555 1_555
N1 C4 1_555 1_555
N2 C4 1_555 1_555
N4 C1 1_555 1_555
N6 C14 1_555 1_555
C1 C10 1_555 1_555
N7 C2 1_555 1_555
O4 Zn1 1_555 1_555
O5 C17 1_555 1_555
C2 N4 1_555 1_555
H1 C2 1_555 1_555
N8 H2 1_555 1_555
H3 N8 1_555 1_555
O6 Zn1 1_555 1_555
C4 C20 1_555 1_555
C5 N1 1_555 1_555
H4 C5 1_555 1_555
N9 Zn2 1_555 1_555
C9 N8 1_555 1_555
N10 C5 1_555 1_555
C10 N7 1_555 1_555
N12 C22 1_555 1_555
C11 C6 1_555 1_555
O8 C12 1_555 1_555
C12 O6 1_555 1_555
C14 N2 1_555 1_555
H9 C14 1_555 1_555
N15 H10 1_555 1_555
H11 N15 1_555 1_555
C16 C11 1_555 1_555
H12 C16 1_555 1_555
C17 C23 1_555 1_555
C20 N6 1_555 1_555
C22 C1 1_555 1_555
C23 C24 1_555 1_555
C24 C6 1_555 1_555
C28 N9 1_555 1_555
C30 C16 1_555 1_555
H20 C30 1_555 1_555
Zn9 O5 1_555 1_555
Zn10 N1 1_555 1_555
N17 Zn8 1_555 1_555
N19 Zn2 1_555 1_555
O10 Zn8 1_555 1_555
N21 Zn1 1_555 1_555
N7 Zn10 1_555 1_555
N9 C10 1_555 1_555
C9 N10 1_555 1_555
C9 C20 1_555 1_555
N12 C28 1_555 1_555
C11 C12 1_555 1_555
N15 C22 1_555 1_555
C23 C30 1_555 1_555
Zn4 O1 1_555 1_555
O1 C15 1_555 1_555
C3 C15 1_555 1_555
C8 H6 1_555 1_555
O7 C13 1_555 1_555
N21 C18 1_555 1_555
C13 O3 1_555 1_555
C15 O9 1_555 1_555
H13 C18 1_555 1_555
C21 C8 1_555 1_555
C25 C3 1_555 1_555
H16 C25 1_555 1_555
C26 C21 1_555 1_555
H17 C26 1_555 1_555
C29 C3 1_555 1_555
H19 C29 1_555 1_555
N16 Zn4 1_555 1_555
C8 C25 1_555 1_555
C13 C21 1_555 1_555
C26 C29 1_555 1_555
N17 C19 1_555 1_555
N5 C7 1_555 1_555
C7 N14 1_555 1_555
N13 H7 1_555 1_555
H8 N13 1_555 1_555
C19 N5 1_555 1_555
C27 N17 1_555 1_555
Zn6 N5 1_555 1_555
C7 C27 1_555 1_555
N13 C31 1_555 1_555
C27 C31 1_555 1_555
H1_2 C2_2 1_555 1_555
N8_2 H2_2 1_555 1_555
H3_2 N8_2 1_555 1_555
C5_2 N1_2 1_555 1_555
H4_2 C5_2 1_555 1_555
C9_2 N8_2 1_555 1_555
N10_2 C5_2 1_555 1_555
Zn10_2 N1_2 1_555 1_555
N17_2 Zn9 1_555 1_555
C9_2 N10_2 1_555 1_555
Zn1_2 N6_2 1_555 1_555
Zn2_2 N2_2 1_555 1_555
N2_2 C4_2 1_555 1_555
N4_2 C1_2 1_555 1_555
N6_2 C14_2 1_555 1_555
O3_2 Zn2_2 1_555 1_555
C1_2 C10_2 1_555 1_555
O4_2 Zn1_2 1_555 1_555
O10 C17_2 1_555 1_555
O6_2 Zn1_2 1_555 1_555
C4_2 C20_2 1_555 1_555
N9_2 Zn2_2 1_555 1_555
C8_2 H6_2 1_555 1_555
C10_2 N7_2 1_555 1_555
O7_2 C13_2 1_555 1_555
N12_2 C22_2 1_555 1_555
C11_2 C6_2 1_555 1_555
O8_2 C12_2 1_555 1_555
C12_2 O6_2 1_555 1_555
C13_2 O3_2 1_555 1_555
C14_2 N2_2 1_555 1_555
H9_2 C14_2 1_555 1_555
N15_2 H10_2 1_555 1_555
H11_2 N15_2 1_555 1_555
C16_2 C11_2 1_555 1_555
H12_2 C16_2 1_555 1_555
C17_2 C23_2 1_555 1_555
C20_2 N6_2 1_555 1_555
C21_2 C8_2 1_555 1_555
C22_2 C1_2 1_555 1_555
C23_2 C24_2 1_555 1_555
C24_2 C6_2 1_555 1_555
C26_2 C21_2 1_555 1_555
H17_2 C26_2 1_555 1_555
C28_2 N9_2 1_555 1_555
H18_2 C28_2 1_555 1_555
H19_2 C29_2 1_555 1_555
C30_2 C16_2 1_555 1_555
H20_2 C30_2 1_555 1_555
N19_2 Zn2_2 1_555 1_555
N21_2 Zn1_2 1_555 1_555
N9_2 C10_2 1_555 1_555
C8_2 C25_2 1_555 1_555
N12_2 C28_2 1_555 1_555
C11_2 C12_2 1_555 1_555
C13_2 C21_2 1_555 1_555
N15_2 C22_2 1_555 1_555
C23_2 C30_2 1_555 1_555
C26_2 C29_2 1_555 1_555
Zn4_2 O1_2 1_555 1_555
O1_2 C15_2 1_555 1_555
N17_2 C19_2 1_555 1_555
N5_2 C7_2 1_555 1_555
C3_2 C15_2 1_555 1_555
C7_2 N14_2 1_555 1_555
N21_2 C18_2 1_555 1_555
N13_2 H7_2 1_555 1_555
H8_2 N13_2 1_555 1_555
C15_2 O9_2 1_555 1_555
N14_2 Zn4_2 1_555 1_555
C18_2 N14_2 1_555 1_555
H13_2 C18_2 1_555 1_555
C19_2 N5_2 1_555 1_555
C27_2 N17_2 1_555 1_555
C31_2 N21_2 1_555 1_555
Zn6_2 N5_2 1_555 1_555
N16_2 Zn4_2 1_555 1_555
N20_2 Zn4_2 1_555 1_555
C7_2 C27_2 1_555 1_555
N13_2 C31_2 1_555 1_555
C27_2 C31_2 1_555 1_555
N4_3 C1_3 1_555 1_555
C1_3 C10_3 1_555 1_555
N20_2 C2_3 1_555 1_555
C2_3 N4_3 1_555 1_555
H1_3 C2_3 1_555 1_555
C5_3 N16_2 1_555 1_555
H4_3 C5_3 1_555 1_555
N9_3 Zn6_2 1_555 1_555
C10_3 N20_2 1_555 1_555
N12_3 C22_3 1_555 1_555
N15_3 H10_3 1_555 1_555
H11_3 N15_3 1_555 1_555
C22_3 C1_3 1_555 1_555
C28_3 N9_3 1_555 1_555
Zn8_2 N4_3 1_555 1_555
N9_3 C10_3 1_555 1_555
N12_3 C28_3 1_555 1_555
N15_3 C22_3 1_555 1_555
O5_2 C17_3 1_555 1_555
C17_3 C23_3 1_555 1_555
C23_3 C24_3 1_555 1_555
H20_3 C30_3 1_555 1_555
Zn9_2 O5_2 1_555 1_555
C23_3 C30_3 1_555 1_555
Zn1_3 N6_3 1_555 1_555
Zn8_2 O4_3 1_555 1_555
N2_3 C4_3 1_555 1_555
N6_3 C14_3 1_555 1_555
O4_3 Zn1_3 1_555 1_555
N8_3 H2_3 1_555 1_555
H3_3 N8_3 1_555 1_555
O6_3 Zn1_3 1_555 1_555
C4_3 C20_3 1_555 1_555
C6_3 H5_3 1_555 1_555
C9_3 N8_3 1_555 1_555
C11_3 C6_3 1_555 1_555
O8_3 C12_3 1_555 1_555
C12_3 O6_3 1_555 1_555
C14_3 N2_3 1_555 1_555
H9_3 C14_3 1_555 1_555
C16_3 C11_3 1_555 1_555
H12_3 C16_3 1_555 1_555
C20_3 N6_3 1_555 1_555
N17_3 Zn8_2 1_555 1_555
O10_2 Zn8_2 1_555 1_555
N21_3 Zn1_3 1_555 1_555
C9_3 N10_3 1_555 1_555
C9_3 C20_3 1_555 1_555
C11_3 C12_3 1_555 1_555
Zn10_2 O1_3 1_555 1_555
O1_3 C15_3 1_555 1_555
C3_3 C15_3 1_555 1_555
C8_3 H6_3 1_555 1_555
O7_3 C13_3 1_555 1_555
N21_3 C18_3 1_555 1_555
C13_3 O3_3 1_555 1_555
C15_3 O9_3 1_555 1_555
H13_3 C18_3 1_555 1_555
C21_3 C8_3 1_555 1_555
C25_3 C3_3 1_555 1_555
H16_3 C25_3 1_555 1_555
C26_3 C21_3 1_555 1_555
H17_3 C26_3 1_555 1_555
C29_3 C3_3 1_555 1_555
H19_3 C29_3 1_555 1_555
C8_3 C25_3 1_555 1_555
C13_3 C21_3 1_555 1_555
C26_3 C29_3 1_555 1_555
N17_3 C19_3 1_555 1_555
N19_2 C7_3 1_555 1_555
C7_3 N14_3 1_555 1_555
N13_3 H7_3 1_555 1_555
H8_3 N13_3 1_555 1_555
C19_3 N19_2 1_555 1_555
H14 C19_3 1_555 1_555
C27_3 N17_3 1_555 1_555
C7_3 C27_3 1_555 1_555
N13_3 C31_3 1_555 1_555
C27_3 C31_3 1_555 1_555
H1_4 C2_4 1_555 1_555
C5_4 N16 1_555 1_555
H4_4 C5_4 1_555 1_555
N4_4 C1_4 1_555 1_555
C1_4 C10_4 1_555 1_555
N9_4 Zn6 1_555 1_555
C10_4 N20 1_555 1_555
N12_4 C22_4 1_555 1_555
N15_4 H10_4 1_555 1_555
H11_4 N15_4 1_555 1_555
C22_4 C1_4 1_555 1_555
C28_4 N9_4 1_555 1_555
H18_3 C28_4 1_555 1_555
N9_4 C10_4 1_555 1_555
N12_4 C28_4 1_555 1_555
N15_4 C22_4 1_555 1_555
N8_4 H2_4 1_555 1_555
H3_4 N8_4 1_555 1_555
C9_4 N8_4 1_555 1_555
N17_4 Zn9_2 1_555 1_555
C9_4 N10_4 1_555 1_555
Zn1_4 N6_4 1_555 1_555
N2_4 C4_4 1_555 1_555
N6_4 C14_4 1_555 1_555
O4_4 Zn1_4 1_555 1_555
O6_4 Zn1_4 1_555 1_555
C4_4 C20_4 1_555 1_555
C6_4 H5_4 1_555 1_555
C8_4 H6_4 1_555 1_555
O7_4 C13_4 1_555 1_555
C11_4 C6_4 1_555 1_555
O8_4 C12_4 1_555 1_555
C12_4 O6_4 1_555 1_555
C13_4 O3_4 1_555 1_555
C14_4 N2_4 1_555 1_555
H9_4 C14_4 1_555 1_555
C16_4 C11_4 1_555 1_555
H12_4 C16_4 1_555 1_555
C20_4 N6_4 1_555 1_555
C21_4 C8_4 1_555 1_555
C26_4 C21_4 1_555 1_555
H17_4 C26_4 1_555 1_555
H19_4 C29_4 1_555 1_555
N21_4 Zn1_4 1_555 1_555
C8_4 C25_4 1_555 1_555
C11_4 C12_4 1_555 1_555
C13_4 C21_4 1_555 1_555
C26_4 C29_4 1_555 1_555
Zn10 O1_4 1_555 1_555
O1_4 C15_4 1_555 1_555
N17_4 C19_4 1_555 1_555
N19 C7_4 1_555 1_555
C3_4 C15_4 1_555 1_555
C7_4 N14_4 1_555 1_555
N21_4 C18_4 1_555 1_555
N13_4 H7_4 1_555 1_555
H8_4 N13_4 1_555 1_555
C15_4 O9_4 1_555 1_555
N14_4 Zn10 1_555 1_555
C18_4 N14_4 1_555 1_555
H13_4 C18_4 1_555 1_555
C19_4 N19 1_555 1_555
H14_2 C19_4 1_555 1_555
C27_4 N17_4 1_555 1_555
C31_4 N21_4 1_555 1_555
C7_4 C27_4 1_555 1_555
N13_4 C31_4 1_555 1_555
C27_4 C31_4 1_555 1_555
O2_2 C17_4 1_555 1_555
O10_2 C17_4 1_555 1_555
C17_4 C23_4 1_555 1_555
C23_4 C24_4 1_555 1_555
H15_2 C24_4 1_555 1_555
H20_4 C30_4 1_555 1_555
C23_4 C30_4 1_555 1_555

#END
