
###############################################################################
#
# This file contains modified crystal structure data generated from the
# MOF subset of the Cambridge Structural Database (CSD) v543 
# hosted by the Cambridge Crystallographic Data Centre (CCDC).
#
# This work is licensed under the Creative Commons
# Attribution-NonCommercial-ShareAlike 4.0 International License.
# To view a copy of this license, visit
# http://creativecommons.org/licenses/by-nc-sa/4.0/
# or send a letter to
# Creative Commons, PO Box 1866, Mountain View, CA 94042, USA.
#
# CIF created using the CSD Python API on 29 September 2022
# The structure has been converted into the P1 space group
# The structure has a 3D framework
# The original CSD entry SOZGOF is in the cubic crystal system
# The original CSD entry SOZGOF is in a Sohncke space group
# The framework has been calculated to contain at least 10.0% void space
# The void calculation uses a probe of radius 1.32A, grid spacing 0.4
# Generated hydrogen atom positions removed from atoms on special positions
#
###############################################################################

data_SOZGOF
_chemical_formula_moiety         '(C288 H348 N72 O76 Yb8)n'
_symmetry_cell_setting           triclinic
_symmetry_space_group_name_H-M   'P 1'
_symmetry_Int_Tables_number      1
_space_group_name_Hall           'P 1'
loop_
_symmetry_equiv_pos_site_id
_symmetry_equiv_pos_as_xyz
1 x,y,z
_cell_length_a                   20.3177(13)
_cell_length_b                   20.3177(13)
_cell_length_c                   20.3177(13)
_cell_angle_alpha                90
_cell_angle_beta                 90
_cell_angle_gamma                90
_cell_volume                     8387.33
loop_
_atom_site_label
_atom_site_type_symbol
_atom_site_fract_x
_atom_site_fract_y
_atom_site_fract_z
N9 N 0.0922(7) 0.0473(7) 0.3065(8)
C34 C 0.1656(9) 0.0016(8) 0.2305(9)
H35 H 0.1957 0.0392 0.2335
H36 H 0.1350 0.0084 0.1939
C35 C 0.0494(9) 0.0334(8) 0.3740(9)
H38 H 0.0046 0.0505 0.3684
H39 H 0.0705 0.0556 0.4113
C36 C 0.0805(9) 0.1017(8) 0.2600(9)
H40 H 0.1121 0.0989 0.2237
H41 H 0.0858 0.1438 0.2828
H42 H 0.0356 0.0984 0.2424
Yb1 Yb 0.15627(2) 0.84373(2) 0.34373(2)
O1 O 0.1297(4) 0.8146(4) 0.2441(4)
O2 O 0.0474(5) 0.8839(4) 0.2156(5)
O3 O 0.1696(5) 0.8673(5) 0.4497(4)
N3 N 0.1935(8) 0.9078(7) 0.5473(7)
C1 C 0.0779(6) 0.8315(5) 0.2090(6)
C2 C 0.0576(6) 0.7838(5) 0.1548(6)
C3 C 0.0118(6) 0.7992(6) 0.1168(6)
C5 C 0.0167(6) 0.6929(5) 0.0609(6)
C6 C 0.0733(6) 0.6798(5) 0.0998(5)
H4 H 0.0982 0.6409 0.0927
C7 C 0.0921(5) 0.7241(5) 0.1484(6)
H5 H 0.1278 0.7142 0.1769
C9 C 0.2074(8) 0.8719(7) 0.4956(7)
C10 C 0.2695(9) 0.8344(9) 0.5016(8)
H6 H 0.2769 0.8091 0.4612
H7 H 0.2665 0.8043 0.5392
H8 H 0.3061 0.8650 0.5084
C11 C 0.1260(9) 0.9506(9) 0.5334(8)
H9 H 0.1176 0.9524 0.4860
H10 H 0.1316 0.9954 0.5505
H11 H 0.0887 0.9295 0.5556
C12 C 0.2400(9) 0.9195(9) 0.6017(8)
H12 H 0.2763 0.8879 0.5989
H13 H 0.2172 0.9142 0.6438
H14 H 0.2576 0.9644 0.5984
N6 N 0.1559(5) 0.4911(4) 0.0030(4)
H20 H 0.1700 0.5104 0.0392
N7 N 0.0776(5) 0.5700(5) 0.0092(5)
H21 H 0.3409 0.3789 0.0089
C24 C 0.2549(6) 0.4325(6) 0.0094(6)
H22 H 0.2686 0.4621 0.0429
O8 O 0.0503(4) 0.8304(5) 0.3673(5)
C29 C 0.0044(7) 0.7926(8) 0.3719(7)
H25 H 0.0388 0.7231 0.3091
H28 H 0.0140 0.8824 0.4524
O9 O 0.1327(5) 0.9497(4) 0.3304(5)
C33 C 0.1281(7) 0.9956(7) 0.2926(8)
H34 H 0.1909 0.9612 0.2231
H37 H 0.0476 0.9860 0.3824
O10 O 0.2559(4) 0.8703(4) 0.3146(4)
O11 O 0.1854(4) 0.7441(4) 0.3703(4)
C8 C 0.0242(5) 0.5988(5) 0.9802(5)
H15 H 0.0104 0.4608 0.8300
N5 N 0.0700(5) 0.4908(5) 0.9224(5)
C20 C 0.0198(5) 0.5242(5) 0.9012(5)
O6 O 0.3146(4) 0.2559(4) 0.8703(4)
O7 O 0.3839(4) 0.2844(5) 0.9526(5)
C21 C 0.3315(5) 0.2910(6) 0.9221(6)
C22 C 0.2838(5) 0.3452(6) 0.9424(6)
C23 C 0.2992(6) 0.3832(6) 0.9882(6)
C25 C 0.1929(5) 0.4391(6) 0.9833(6)
C26 C 0.1798(5) 0.4002(5) 0.9267(6)
H23 H 0.1409 0.4073 0.9018
C27 C 0.2241(5) 0.3516(6) 0.9079(5)
H24 H 0.2142 0.3231 0.8722
C28 C 0.0988(5) 0.5198(5) 0.9758(5)
Yb2 Yb 0.34373(2) 0.15627(2) 0.84373(2)
N3_2 N 0.3065(8) 0.0922(7) 0.0473(7)
C10_2 C 0.2305(9) 0.1656(9) 0.0016(8)
H7_2 H 0.2335 0.1957 0.0392
H8_2 H 0.1939 0.1350 0.0084
C11_2 C 0.3740(9) 0.0494(9) 0.0334(8)
H10_2 H 0.3684 0.0046 0.0505
H11_2 H 0.4113 0.0705 0.0556
C12_2 C 0.2600(9) 0.0805(9) 0.1017(8)
H12_2 H 0.2237 0.1121 0.0989
H13_2 H 0.2828 0.0858 0.1438
H14_2 H 0.2424 0.0356 0.0984
O1_2 O 0.3703(4) 0.1854(4) 0.7441(4)
O2_2 O 0.4526(5) 0.1161(4) 0.7156(5)
O3_2 O 0.3304(5) 0.1327(5) 0.9497(4)
N1 N 0.5030(4) 0.3441(5) 0.5089(4)
H1 H 0.5392 0.3300 0.4896
N2 N 0.5092(5) 0.4224(5) 0.4300(5)
C1_2 C 0.4221(6) 0.1685(5) 0.7090(6)
C2_2 C 0.4424(6) 0.2162(5) 0.6548(6)
C3_2 C 0.4882(6) 0.2008(6) 0.6168(6)
H2 H 0.5089 0.1591 0.6211
C4 C 0.5094(6) 0.2451(6) 0.5675(6)
H3 H 0.5429 0.2314 0.5379
C5_2 C 0.4833(6) 0.3071(5) 0.5609(6)
C6_2 C 0.4267(6) 0.3202(5) 0.5998(5)
H4_2 H 0.4018 0.3591 0.5927
C7_2 C 0.4079(5) 0.2759(5) 0.6484(6)
H5_2 H 0.3722 0.2858 0.6769
C8_2 C 0.4758(5) 0.4012(5) 0.4802(5)
C9_2 C 0.2926(8) 0.1281(7) 0.9956(7)
H6_2 H 0.2231 0.1909 0.9612
H9_2 H 0.3824 0.0476 0.9860
O4 O 0.7441(4) 0.3703(4) 0.1854(4)
O5 O 0.7156(5) 0.4526(5) 0.1161(4)
N4 N 0.5089(4) 0.5030(4) 0.3441(5)
H15_2 H 0.4896 0.5392 0.3300
N5_2 N 0.4300(5) 0.5092(5) 0.4224(5)
C13 C 0.7090(6) 0.4221(6) 0.1685(5)
C14 C 0.6548(6) 0.4424(6) 0.2162(5)
C15 C 0.6168(6) 0.4882(6) 0.2008(6)
H16 H 0.6211 0.5089 0.1591
C16 C 0.5675(6) 0.5094(6) 0.2451(6)
H17 H 0.5379 0.5429 0.2314
C17 C 0.5609(6) 0.4833(6) 0.3071(5)
C18 C 0.5998(5) 0.4267(6) 0.3202(5)
H18 H 0.5927 0.4018 0.3591
C19 C 0.6484(6) 0.4079(5) 0.2759(5)
H19 H 0.6769 0.3722 0.2858
C20_2 C 0.4802(5) 0.4758(5) 0.4012(5)
O7_2 O 0.1161(4) 0.7156(5) 0.4526(5)
N6_2 N 0.3441(5) 0.5089(4) 0.5030(4)
H20_2 H 0.3300 0.4896 0.5392
N7_2 N 0.4224(5) 0.4300(5) 0.5092(5)
C21_2 C 0.1685(5) 0.7090(6) 0.4221(6)
C22_2 C 0.2162(5) 0.6548(6) 0.4424(6)
C23_2 C 0.2008(6) 0.6168(6) 0.4882(6)
H21_2 H 0.1591 0.6211 0.5089
C24_2 C 0.2451(6) 0.5675(6) 0.5094(6)
H22_2 H 0.2314 0.5379 0.5429
C25_2 C 0.3071(5) 0.5609(6) 0.4833(6)
C26_2 C 0.3202(5) 0.5998(5) 0.4267(6)
H23_2 H 0.3591 0.5927 0.4018
C27_2 C 0.2759(5) 0.6484(6) 0.4079(5)
H24_2 H 0.2858 0.6769 0.3722
C28_2 C 0.4012(5) 0.4802(5) 0.4758(5)
O8_2 O 0.4497(4) 0.1696(5) 0.8673(5)
N8 N 0.5473(7) 0.1935(8) 0.9078(7)
C29_2 C 0.4956(7) 0.2074(8) 0.8719(7)
C30 C 0.5016(8) 0.2695(9) 0.8344(9)
H25_2 H 0.4612 0.2769 0.8091
H26 H 0.5392 0.2665 0.8043
H27 H 0.5084 0.3061 0.8650
C31 C 0.5334(8) 0.1260(9) 0.9506(9)
H28_2 H 0.4860 0.1176 0.9524
H29 H 0.5505 0.1316 0.9954
H30 H 0.5556 0.0887 0.9295
C32 C 0.6017(8) 0.2400(9) 0.9195(9)
H31 H 0.5989 0.2763 0.8879
H32 H 0.6438 0.2172 0.9142
H33 H 0.5984 0.2576 0.9644
O9_2 O 0.3673(5) 0.0503(4) 0.8304(5)
C33_2 C 0.3719(7) 0.0044(7) 0.7926(8)
H34_2 H 0.3091 0.0388 0.7231
H37_2 H 0.4524 0.0140 0.8824
Yb3 Yb 0.84373(2) 0.34373(2) 0.15627(2)
O10_2 O 0.2441(4) 0.1297(4) 0.8146(4)
N1_2 N 0.0030(4) 0.1559(5) 0.4911(4)
H1_2 H 0.0392 0.1700 0.5104
N2_2 N 0.0092(5) 0.0776(5) 0.5700(5)
H2_2 H 0.0089 0.3409 0.3789
C4_2 C 0.0094(6) 0.2549(6) 0.4325(6)
H3_2 H 0.0429 0.2686 0.4621
O5_2 O 0.2156(5) 0.0474(5) 0.8839(4)
C13_2 C 0.2090(6) 0.0779(6) 0.8315(5)
C14_2 C 0.1548(6) 0.0576(6) 0.7838(5)
C15_2 C 0.1168(6) 0.0118(6) 0.7992(6)
C17_2 C 0.0609(6) 0.0167(6) 0.6929(5)
C18_2 C 0.0998(5) 0.0733(6) 0.6798(5)
H18_2 H 0.0927 0.0982 0.6409
C19_2 C 0.1484(6) 0.0921(5) 0.7241(5)
H19_2 H 0.1769 0.1278 0.7142
N8_2 N 0.0473(7) 0.3065(8) 0.0922(7)
C30_2 C 0.0016(8) 0.2305(9) 0.1656(9)
H26_2 H 0.0392 0.2335 0.1957
H27_2 H 0.0084 0.1939 0.1350
C31_2 C 0.0334(8) 0.3740(9) 0.0494(9)
H29_2 H 0.0505 0.3684 0.0046
H30_2 H 0.0556 0.4113 0.0705
C32_2 C 0.1017(8) 0.2600(9) 0.0805(9)
H31_2 H 0.0989 0.2237 0.1121
H32_2 H 0.1438 0.2828 0.0858
H33_2 H 0.0984 0.2424 0.0356
O1_3 O 0.8703(4) 0.3146(4) 0.2559(4)
O2_3 O 0.9526(5) 0.3839(4) 0.2844(5)
O3_3 O 0.8304(5) 0.3673(5) 0.0503(4)
C1_3 C 0.9221(6) 0.3315(5) 0.2910(6)
C2_3 C 0.9424(6) 0.2838(5) 0.3452(6)
C3_3 C 0.9882(6) 0.2992(6) 0.3832(6)
C5_3 C 0.9833(6) 0.1929(5) 0.4391(6)
C6_3 C 0.9267(6) 0.1798(5) 0.4002(5)
H4_3 H 0.9018 0.1409 0.4073
C7_3 C 0.9079(5) 0.2241(5) 0.3516(6)
H5_3 H 0.8722 0.2142 0.3231
C8_3 C 0.9758(5) 0.0988(5) 0.5198(5)
C9_3 C 0.7926(8) 0.3719(7) 0.0044(7)
H6_3 H 0.7231 0.3091 0.0388
H9_3 H 0.8824 0.4524 0.0140
C20_3 C 0.9802(5) 0.0242(5) 0.5988(5)
H20_3 H 0.8300 0.0104 0.4608
N7_3 N 0.9224(5) 0.0700(5) 0.4908(5)
C28_3 C 0.9012(5) 0.0198(5) 0.5242(5)
O8_3 O 0.9497(4) 0.3304(5) 0.1327(5)
C29_3 C 0.9956(7) 0.2926(8) 0.1281(7)
H25_3 H 0.9612 0.2231 0.1909
H28_3 H 0.9860 0.3824 0.0476
O9_3 O 0.8673(5) 0.4497(4) 0.1696(5)
N9_2 N 0.9078(7) 0.5473(7) 0.1935(8)
C33_3 C 0.8719(7) 0.4956(7) 0.2074(8)
C34_2 C 0.8344(9) 0.5016(8) 0.2695(9)
H34_3 H 0.8091 0.4612 0.2769
H35_2 H 0.8043 0.5392 0.2665
H36_2 H 0.8650 0.5084 0.3061
C35_2 C 0.9506(9) 0.5334(8) 0.1260(9)
H37_3 H 0.9524 0.4860 0.1176
H38_2 H 0.9954 0.5505 0.1316
H39_2 H 0.9295 0.5556 0.0887
C36_2 C 0.9195(9) 0.6017(8) 0.2400(9)
H40_2 H 0.8879 0.5989 0.2763
H41_2 H 0.9142 0.6438 0.2172
H42_2 H 0.9644 0.5984 0.2576
O11_2 O 0.8146(4) 0.2441(4) 0.1297(4)
N4_2 N 0.4911(4) 0.0030(4) 0.1559(5)
H15_3 H 0.5104 0.0392 0.1700
N5_3 N 0.5700(5) 0.0092(5) 0.0776(5)
H16_2 H 0.3789 0.0089 0.3409
C16_2 C 0.4325(6) 0.0094(6) 0.2549(6)
H17_2 H 0.4621 0.0429 0.2686
O7_3 O 0.8839(4) 0.2156(5) 0.0474(5)
C21_3 C 0.8315(5) 0.2090(6) 0.0779(6)
C22_3 C 0.7838(5) 0.1548(6) 0.0576(6)
C23_3 C 0.7992(6) 0.1168(6) 0.0118(6)
C25_3 C 0.6929(5) 0.0609(6) 0.0167(6)
C26_3 C 0.6798(5) 0.0998(5) 0.0733(6)
H23_3 H 0.6409 0.0927 0.0982
C27_3 C 0.7241(5) 0.1484(6) 0.0921(5)
H24_3 H 0.7142 0.1769 0.1278
H1_3 H 0.4608 0.8300 0.0104
N2_3 N 0.4908(5) 0.9224(5) 0.0700(5)
C8_4 C 0.5242(5) 0.9012(5) 0.0198(5)
O5_3 O 0.2844(5) 0.9526(5) 0.3839(4)
C13_3 C 0.2910(6) 0.9221(6) 0.3315(5)
C14_3 C 0.3452(6) 0.9424(6) 0.2838(5)
C15_3 C 0.3832(6) 0.9882(6) 0.2992(6)
C17_3 C 0.4391(6) 0.9833(6) 0.1929(5)
C18_3 C 0.4002(5) 0.9267(6) 0.1798(5)
H18_3 H 0.4073 0.9018 0.1409
C19_3 C 0.3516(6) 0.9079(5) 0.2241(5)
H19_3 H 0.3231 0.8722 0.2142
C20_4 C 0.5198(5) 0.9758(5) 0.0988(5)
C28_4 C 0.5988(5) 0.9802(5) 0.0242(5)
N1_3 N 0.9970(4) 0.6559(5) 0.0089(4)
H2_3 H 0.9911 0.8409 0.1211
C4_3 C 0.9906(6) 0.7549(6) 0.0675(6)
H3_3 H 0.9571 0.7686 0.0379
N8_3 N 0.9527(7) 0.8065(8) 0.4078(7)
C30_3 C 0.9984(8) 0.7305(9) 0.3344(9)
H26_3 H 0.9608 0.7335 0.3043
H27_3 H 0.9916 0.6939 0.3650
C31_3 C 0.9666(8) 0.8740(9) 0.4506(9)
H29_3 H 0.9495 0.8684 0.4954
H30_3 H 0.9444 0.9113 0.4295
C32_3 C 0.8983(8) 0.7600(9) 0.4195(9)
H31_3 H 0.9011 0.7237 0.3879
H32_3 H 0.8562 0.7828 0.4142
H33_3 H 0.9016 0.7424 0.4644
H1_4 H 0.9608 0.6700 0.9896
N2_4 N 0.9908(5) 0.5776(5) 0.9300(5)
O4_2 O 0.7559(4) 0.6297(4) 0.6854(4)
O5_4 O 0.7844(5) 0.5474(5) 0.6161(4)
N4_3 N 0.9911(4) 0.4970(4) 0.8441(5)
C13_4 C 0.7910(6) 0.5779(6) 0.6685(5)
C14_4 C 0.8452(6) 0.5576(6) 0.7162(5)
C15_4 C 0.8832(6) 0.5118(6) 0.7008(6)
H16_3 H 0.8789 0.4911 0.6591
C16_3 C 0.9325(6) 0.4906(6) 0.7451(6)
H17_3 H 0.9621 0.4571 0.7314
C17_4 C 0.9391(6) 0.5167(6) 0.8071(5)
C18_4 C 0.9002(5) 0.5733(6) 0.8202(5)
H18_4 H 0.9073 0.5982 0.8591
C19_4 C 0.8516(6) 0.5921(5) 0.7759(5)
H19_4 H 0.8231 0.6278 0.7858
Yb3_2 Yb 0.65627(2) 0.65627(2) 0.65627(2)
H15_4 H 0.9896 0.9608 0.6700
N5_4 N 0.9300(5) 0.9908(5) 0.5776(5)
O6_2 O 0.6854(4) 0.7559(4) 0.6297(4)
O7_4 O 0.6161(4) 0.7844(5) 0.5474(5)
N6_3 N 0.8441(5) 0.9911(4) 0.4970(4)
C21_4 C 0.6685(5) 0.7910(6) 0.5779(6)
C22_4 C 0.7162(5) 0.8452(6) 0.5576(6)
C23_4 C 0.7008(6) 0.8832(6) 0.5118(6)
H21_3 H 0.6591 0.8789 0.4911
C24_3 C 0.7451(6) 0.9325(6) 0.4906(6)
H22_3 H 0.7314 0.9621 0.4571
C25_4 C 0.8071(5) 0.9391(6) 0.5167(6)
C26_4 C 0.8202(5) 0.9002(5) 0.5733(6)
H23_4 H 0.8591 0.9073 0.5982
C27_4 C 0.7759(5) 0.8516(6) 0.5921(5)
H24_4 H 0.7858 0.8231 0.6278
O1_4 O 0.6297(4) 0.6854(4) 0.7559(4)
O2_4 O 0.5474(5) 0.6161(4) 0.7844(5)
O3_4 O 0.6696(5) 0.6327(5) 0.5503(4)
N1_4 N 0.4970(4) 0.8441(5) 0.9911(4)
N3_3 N 0.6935(8) 0.5922(7) 0.4527(7)
C1_4 C 0.5779(6) 0.6685(5) 0.7910(6)
C2_4 C 0.5576(6) 0.7162(5) 0.8452(6)
C3_4 C 0.5118(6) 0.7008(6) 0.8832(6)
H2_4 H 0.4911 0.6591 0.8789
C4_4 C 0.4906(6) 0.7451(6) 0.9325(6)
H3_4 H 0.4571 0.7314 0.9621
C5_4 C 0.5167(6) 0.8071(5) 0.9391(6)
C6_4 C 0.5733(6) 0.8202(5) 0.9002(5)
H4_4 H 0.5982 0.8591 0.9073
C7_4 C 0.5921(5) 0.7759(5) 0.8516(6)
H5_4 H 0.6278 0.7858 0.8231
C9_4 C 0.7074(8) 0.6281(7) 0.5044(7)
C10_3 C 0.7695(9) 0.6656(9) 0.4984(8)
H6_4 H 0.7769 0.6909 0.5388
H7_3 H 0.7665 0.6957 0.4608
H8_3 H 0.8061 0.6350 0.4916
C11_3 C 0.6260(9) 0.5494(9) 0.4666(8)
H9_4 H 0.6176 0.5476 0.5140
H10_3 H 0.6316 0.5046 0.4495
H11_3 H 0.5887 0.5705 0.4444
C12_3 C 0.7400(9) 0.5805(9) 0.3983(8)
H12_3 H 0.7763 0.6121 0.4011
H13_3 H 0.7172 0.5858 0.3562
H14_3 H 0.7576 0.5356 0.4016
H20_4 H 0.6700 0.9896 0.9608
N7_4 N 0.5776(5) 0.9300(5) 0.9908(5)
O8_4 O 0.5503(4) 0.6696(5) 0.6327(5)
N8_4 N 0.4527(7) 0.6935(8) 0.5922(7)
C29_4 C 0.5044(7) 0.7074(8) 0.6281(7)
C30_4 C 0.4984(8) 0.7695(9) 0.6656(9)
H25_4 H 0.5388 0.7769 0.6909
H26_4 H 0.4608 0.7665 0.6957
H27_4 H 0.4916 0.8061 0.6350
C31_4 C 0.4666(8) 0.6260(9) 0.5494(9)
H28_4 H 0.5140 0.6176 0.5476
H29_4 H 0.4495 0.6316 0.5046
H30_4 H 0.4444 0.5887 0.5705
C32_4 C 0.3983(8) 0.7400(9) 0.5805(9)
H31_4 H 0.4011 0.7763 0.6121
H32_4 H 0.3562 0.7172 0.5858
H33_4 H 0.4016 0.7576 0.5356
O9_4 O 0.6327(5) 0.5503(4) 0.6696(5)
N9_3 N 0.5922(7) 0.4527(7) 0.6935(8)
C33_4 C 0.6281(7) 0.5044(7) 0.7074(8)
C34_3 C 0.6656(9) 0.4984(8) 0.7695(9)
H34_4 H 0.6909 0.5388 0.7769
H35_3 H 0.6957 0.4608 0.7665
H36_3 H 0.6350 0.4916 0.8061
C35_3 C 0.5494(9) 0.4666(8) 0.6260(9)
H37_4 H 0.5476 0.5140 0.6176
H38_3 H 0.5046 0.4495 0.6316
H39_3 H 0.5705 0.4444 0.5887
C36_3 C 0.5805(9) 0.3983(8) 0.7400(9)
H40_3 H 0.6121 0.4011 0.7763
H41_3 H 0.5858 0.3562 0.7172
H42_3 H 0.5356 0.4016 0.7576
N9_4 N 0.4078(7) 0.9527(7) 0.8065(8)
C34_4 C 0.3344(9) 0.9984(8) 0.7305(9)
H35_4 H 0.3043 0.9608 0.7335
H36_4 H 0.3650 0.9916 0.6939
C35_4 C 0.4506(9) 0.9666(8) 0.8740(9)
H38_4 H 0.4954 0.9495 0.8684
H39_4 H 0.4295 0.9444 0.9113
C36_4 C 0.4195(9) 0.8983(8) 0.7600(9)
H40_4 H 0.3879 0.9011 0.7237
H41_4 H 0.4142 0.8562 0.7828
H42_4 H 0.4644 0.9016 0.7424
N4_4 N 0.0089(4) 0.9970(4) 0.6559(5)
H16_4 H 0.1211 0.9911 0.8409
C16_4 C 0.0675(6) 0.9906(6) 0.7549(6)
H17_4 H 0.0379 0.9571 0.7686
N3_4 N 0.8065(8) 0.4078(7) 0.9527(7)
C10_4 C 0.7305(9) 0.3344(9) 0.9984(8)
H7_4 H 0.7335 0.3043 0.9608
H8_4 H 0.6939 0.3650 0.9916
C11_4 C 0.8740(9) 0.4506(9) 0.9666(8)
H10_4 H 0.8684 0.4954 0.9495
H11_4 H 0.9113 0.4295 0.9444
C12_4 C 0.7600(9) 0.4195(9) 0.8983(8)
H12_4 H 0.7237 0.3879 0.9011
H13_4 H 0.7828 0.4142 0.8562
H14_4 H 0.7424 0.4644 0.9016
N6_4 N 0.6559(5) 0.0089(4) 0.9970(4)
H21_4 H 0.8409 0.1211 0.9911
C24_4 C 0.7549(6) 0.0675(6) 0.9906(6)
H22_4 H 0.7686 0.0379 0.9571
Yb4 Yb 0.34236(3) 0.65764(3) 0.15764(3)
O12 O 0.2419(4) 0.6269(5) 0.1808(4)
O13 O 0.2120(4) 0.5501(5) 0.1138(4)
O14 O 0.2659(6) 0.7341(6) 0.2341(6)
O15 O 0.3319(5) 0.6319(5) 0.0511(5)
N10 N 0.0126(4) 0.4940(4) 0.3516(4)
N11 N 0.0124(5) 0.5726(5) 0.4305(5)
C37 C 0.2065(6) 0.5804(6) 0.1647(6)
C38 C 0.1594(6) 0.5588(6) 0.2157(6)
C39 C 0.1535(6) 0.5870(6) 0.2759(6)
H45 H 0.1832 0.6213 0.2872
C40 C 0.1063(5) 0.5686(6) 0.3221(6)
H46 H 0.1051 0.5888 0.3642
C41 C 0.0613(6) 0.5206(6) 0.3055(6)
C42 C 0.0704(6) 0.4814(6) 0.2490(6)
H47 H 0.0458 0.4420 0.2433
C43 C 0.1140(6) 0.5003(5) 0.2037(6)
H48 H 0.1168 0.4770 0.1632
C45 C 0.2923(10) 0.6224(9) 0.0025(9)
C46 C 0.2271(8) 0.6579(8) 0.0054(8)
H49 H 0.1925 0.6270 0.0186
H51 H 0.2297 0.6938 0.0376
N15 N 0.0060(4) 0.6484(4) 0.5126(4)
H64 H 0.0456 0.6579 0.4980
C62 C 0.0186(6) 0.7510(6) 0.5704(6)
H67 H 0.0580 0.7567 0.5458
H68 H 0.0230 0.8368 0.6168
O20 O 0.4489(5) 0.6681(5) 0.1319(5)
N17 N 0.5431(6) 0.6907(7) 0.0805(7)
C65 C 0.4975(9) 0.7077(10) 0.1224(9)
C66 C 0.4946(8) 0.7729(8) 0.1579(8)
H69 H 0.4814 0.8075 0.1270
H70 H 0.5380 0.7833 0.1761
H71 H 0.4624 0.7703 0.1938
C67 C 0.6041(7) 0.7206(9) 0.0657(9)
H72 H 0.6036 0.7665 0.0808
H73 H 0.6114 0.7195 0.0181
H74 H 0.6396 0.6968 0.0880
C68 C 0.5527(10) 0.6293(10) 0.0554(10)
H75 H 0.5133 0.6026 0.0627
H76 H 0.5904 0.6087 0.0773
H77 H 0.5614 0.6326 0.0080
O21 O 0.3681(5) 0.5511(5) 0.1681(5)
N18 N 0.4195(7) 0.4569(6) 0.1907(7)
C69 C 0.3776(9) 0.5025(9) 0.2077(10)
C70 C 0.3421(8) 0.5054(8) 0.2729(8)
H78 H 0.3730 0.5186 0.3075
H79 H 0.3239 0.4620 0.2833
H80 H 0.3062 0.5376 0.2703
C71 C 0.4343(9) 0.3959(7) 0.2206(9)
H81 H 0.4192 0.3964 0.2665
H82 H 0.4819 0.3886 0.2195
H83 H 0.4120 0.3604 0.1968
C72 C 0.4446(10) 0.4473(10) 0.1293(10)
H84 H 0.4373 0.4867 0.1026
H85 H 0.4227 0.4096 0.1087
H86 H 0.4920 0.4386 0.1326
O22 O 0.3192(4) 0.7581(4) 0.1269(5)
O23 O 0.3731(5) 0.6808(4) 0.2581(4)
H44 H 0.9980 0.4544 0.3421
C44 C 0.9879(6) 0.5202(6) 0.4043(5)
O16 O 0.6808(4) 0.2581(4) 0.3731(5)
O17 O 0.6138(4) 0.2880(4) 0.4499(5)
N13 N 0.8516(4) 0.4874(4) 0.5060(4)
H59 H 0.8421 0.5020 0.5456
N14 N 0.9305(5) 0.4876(5) 0.4274(5)
C49 C 0.6647(6) 0.2935(6) 0.4196(6)
C50 C 0.7157(6) 0.3406(6) 0.4412(6)
C51 C 0.7759(6) 0.3465(6) 0.4130(6)
H60 H 0.7872 0.3168 0.3787
C52 C 0.8221(6) 0.3937(5) 0.4314(6)
H61 H 0.8642 0.3949 0.4112
C53 C 0.8055(6) 0.4387(6) 0.4794(6)
C54 C 0.7490(6) 0.4296(6) 0.5186(6)
H62 H 0.7433 0.4542 0.5580
C55 C 0.7037(6) 0.3860(6) 0.4997(5)
H63 H 0.6632 0.3832 0.5230
C56 C 0.9043(5) 0.5121(6) 0.4798(6)
O18 O 0.8731(5) 0.8192(4) 0.7419(4)
O19 O 0.9499(5) 0.8862(4) 0.7120(4)
N16 N 0.9274(5) 0.5695(5) 0.5124(5)
C57 C 0.9196(6) 0.8353(6) 0.7065(6)
C58 C 0.9412(6) 0.7843(6) 0.6594(6)
C59 C 0.9130(6) 0.7241(6) 0.6535(6)
H65 H 0.8787 0.7128 0.6832
C60 C 0.9314(6) 0.6779(6) 0.6063(5)
H66 H 0.9112 0.6358 0.6051
C61 C 0.9794(6) 0.6945(6) 0.5613(6)
C63 C 0.9997(5) 0.7963(6) 0.6140(6)
C64 C 0.9798(6) 0.5957(5) 0.4879(6)
Yb5 Yb 0.65764(3) 0.15764(3) 0.34236(3)
Yb6 Yb 0.84236(3) 0.84236(3) 0.84236(3)
N13_2 N 0.6484(4) 0.5126(4) 0.0060(4)
H59_2 H 0.6579 0.4980 0.0456
C54_2 C 0.7510(6) 0.5704(6) 0.0186(6)
H62_2 H 0.7567 0.5458 0.0580
H63_2 H 0.8368 0.6168 0.0230
O18_2 O 0.6269(5) 0.1808(4) 0.2419(4)
O19_2 O 0.5501(5) 0.1138(4) 0.2120(4)
N15_2 N 0.4940(4) 0.3516(4) 0.0126(4)
N16_2 N 0.5726(5) 0.4305(5) 0.0124(5)
C57_2 C 0.5804(6) 0.1647(6) 0.2065(6)
C58_2 C 0.5588(6) 0.2157(6) 0.1594(6)
C59_2 C 0.5870(6) 0.2759(6) 0.1535(6)
H65_2 H 0.6213 0.2872 0.1832
C60_2 C 0.5686(6) 0.3221(6) 0.1063(5)
H66_2 H 0.5888 0.3642 0.1051
C61_2 C 0.5206(6) 0.3055(6) 0.0613(6)
C62_2 C 0.4814(6) 0.2490(6) 0.0704(6)
H67_2 H 0.4420 0.2433 0.0458
C63_2 C 0.5003(5) 0.2037(6) 0.1140(6)
H68_2 H 0.4770 0.1632 0.1168
Yb4_2 Yb 0.15764(3) 0.34236(3) 0.65764(3)
O12_2 O 0.2581(4) 0.3731(5) 0.6808(4)
O13_2 O 0.2880(4) 0.4499(5) 0.6138(4)
O14_2 O 0.2341(6) 0.2659(6) 0.7341(6)
O15_2 O 0.1681(5) 0.3681(5) 0.5511(5)
N10_2 N 0.4874(4) 0.5060(4) 0.8516(4)
H44_2 H 0.5020 0.5456 0.8421
N11_2 N 0.4876(5) 0.4274(5) 0.9305(5)
N12 N 0.1907(7) 0.4195(7) 0.4569(6)
C37_2 C 0.2935(6) 0.4196(6) 0.6647(6)
C38_2 C 0.3406(6) 0.4412(6) 0.7157(6)
C39_2 C 0.3465(6) 0.4130(6) 0.7759(6)
H45_2 H 0.3168 0.3787 0.7872
C40_2 C 0.3937(5) 0.4314(6) 0.8221(6)
H46_2 H 0.3949 0.4112 0.8642
C41_2 C 0.4387(6) 0.4794(6) 0.8055(6)
C42_2 C 0.4296(6) 0.5186(6) 0.7490(6)
H47_2 H 0.4542 0.5580 0.7433
C43_2 C 0.3860(6) 0.4997(5) 0.7037(6)
H48_2 H 0.3832 0.5230 0.6632
C44_2 C 0.5121(6) 0.4798(6) 0.9043(5)
C45_2 C 0.2077(10) 0.3776(9) 0.5025(9)
C46_2 C 0.2729(8) 0.3421(8) 0.5054(8)
H49_2 H 0.3075 0.3730 0.5186
H50 H 0.2833 0.3239 0.4620
H51_2 H 0.2703 0.3062 0.5376
C47 C 0.2206(9) 0.4343(9) 0.3959(7)
H52 H 0.2665 0.4192 0.3964
H53 H 0.2195 0.4819 0.3886
H54 H 0.1968 0.4120 0.3604
C48 C 0.1293(10) 0.4446(10) 0.4473(10)
H55 H 0.1026 0.4373 0.4867
H56 H 0.1087 0.4227 0.4096
H57 H 0.1326 0.4920 0.4386
O16_2 O 0.8192(4) 0.7419(4) 0.8731(5)
O17_2 O 0.8862(4) 0.7120(4) 0.9499(5)
N14_2 N 0.5695(5) 0.5124(5) 0.9274(5)
C49_2 C 0.8353(6) 0.7065(6) 0.9196(6)
C50_2 C 0.7843(6) 0.6594(6) 0.9412(6)
C51_2 C 0.7241(6) 0.6535(6) 0.9130(6)
H60_2 H 0.7128 0.6832 0.8787
C52_2 C 0.6779(6) 0.6063(5) 0.9314(6)
H61_2 H 0.6358 0.6051 0.9112
C53_2 C 0.6945(6) 0.5613(6) 0.9794(6)
C55_2 C 0.7963(6) 0.6140(6) 0.9997(5)
C56_2 C 0.5957(5) 0.4879(6) 0.9798(6)
H64_2 H 0.4544 0.3421 0.9980
C64_2 C 0.5202(6) 0.4043(5) 0.9879(6)
O20_2 O 0.0511(5) 0.3319(5) 0.6319(5)
C65_2 C 0.0025(9) 0.2923(10) 0.6224(9)
C66_2 C 0.0054(8) 0.2271(8) 0.6579(8)
H69_2 H 0.0186 0.1925 0.6270
H71_2 H 0.0376 0.2297 0.6938
O21_2 O 0.1319(5) 0.4489(5) 0.6681(5)
N18_2 N 0.0805(7) 0.5431(6) 0.6907(7)
C69_2 C 0.1224(9) 0.4975(9) 0.7077(10)
C70_2 C 0.1579(8) 0.4946(8) 0.7729(8)
H78_2 H 0.1270 0.4814 0.8075
H79_2 H 0.1761 0.5380 0.7833
H80_2 H 0.1938 0.4624 0.7703
C71_2 C 0.0657(9) 0.6041(7) 0.7206(9)
H81_2 H 0.0808 0.6036 0.7665
H82_2 H 0.0181 0.6114 0.7195
H83_2 H 0.0880 0.6396 0.6968
C72_2 C 0.0554(10) 0.5527(10) 0.6293(10)
H84_2 H 0.0627 0.5133 0.6026
H85_2 H 0.0773 0.5904 0.6087
H86_2 H 0.0080 0.5614 0.6326
O22_2 O 0.1808(4) 0.2419(4) 0.6269(5)
O23_2 O 0.1269(5) 0.3192(4) 0.7581(4)
H59_3 H 0.1579 0.0020 0.9544
O19_3 O 0.0501(5) 0.3862(4) 0.7880(4)
N16_3 N 0.0726(5) 0.0695(5) 0.9876(5)
C57_3 C 0.0804(6) 0.3353(6) 0.7935(6)
C58_3 C 0.0588(6) 0.2843(6) 0.8406(6)
C59_3 C 0.0870(6) 0.2241(6) 0.8465(6)
H65_3 H 0.1213 0.2128 0.8168
C60_3 C 0.0686(6) 0.1779(6) 0.8937(5)
H66_3 H 0.0888 0.1358 0.8949
C61_3 C 0.0206(6) 0.1945(6) 0.9387(6)
C63_3 C 0.0003(5) 0.2963(6) 0.8860(6)
H44_3 H 0.0020 0.9544 0.1579
O17_3 O 0.3862(4) 0.7880(4) 0.0501(5)
N14_3 N 0.0695(5) 0.9876(5) 0.0726(5)
C49_3 C 0.3353(6) 0.7935(6) 0.0804(6)
C50_3 C 0.2843(6) 0.8406(6) 0.0588(6)
C51_3 C 0.2241(6) 0.8465(6) 0.0870(6)
H60_3 H 0.2128 0.8168 0.1213
C52_3 C 0.1779(6) 0.8937(5) 0.0686(6)
H61_3 H 0.1358 0.8949 0.0888
C53_3 C 0.1945(6) 0.9387(6) 0.0206(6)
C55_3 C 0.2963(6) 0.8860(6) 0.0003(5)
O12_3 O 0.7581(4) 0.1269(5) 0.3192(4)
O13_3 O 0.7880(4) 0.0501(5) 0.3862(4)
O14_3 O 0.7341(6) 0.2341(6) 0.2659(6)
O15_3 O 0.6681(5) 0.1319(5) 0.4489(5)
N11_3 N 0.9876(5) 0.0726(5) 0.0695(5)
N12_2 N 0.6907(7) 0.0805(7) 0.5431(6)
C37_3 C 0.7935(6) 0.0804(6) 0.3353(6)
C38_3 C 0.8406(6) 0.0588(6) 0.2843(6)
C39_3 C 0.8465(6) 0.0870(6) 0.2241(6)
H45_3 H 0.8168 0.1213 0.2128
C40_3 C 0.8937(5) 0.0686(6) 0.1779(6)
H46_3 H 0.8949 0.0888 0.1358
C41_3 C 0.9387(6) 0.0206(6) 0.1945(6)
C43_3 C 0.8860(6) 0.0003(5) 0.2963(6)
C45_3 C 0.7077(10) 0.1224(9) 0.4975(9)
C46_3 C 0.7729(8) 0.1579(8) 0.4946(8)
H49_3 H 0.8075 0.1270 0.4814
H50_2 H 0.7833 0.1761 0.5380
H51_3 H 0.7703 0.1938 0.4624
C47_2 C 0.7206(9) 0.0657(9) 0.6041(7)
H52_2 H 0.7665 0.0808 0.6036
H53_2 H 0.7195 0.0181 0.6114
H54_2 H 0.6968 0.0880 0.6396
C48_2 C 0.6293(10) 0.0554(10) 0.5527(10)
H55_2 H 0.6026 0.0627 0.5133
H56_2 H 0.6087 0.0773 0.5904
H57_2 H 0.6326 0.0080 0.5614
H64_3 H 0.9544 0.1579 0.0020
O20_3 O 0.5511(5) 0.1681(5) 0.3681(5)
N17_2 N 0.4569(6) 0.1907(7) 0.4195(7)
C65_3 C 0.5025(9) 0.2077(10) 0.3776(9)
C66_3 C 0.5054(8) 0.2729(8) 0.3421(8)
H69_3 H 0.5186 0.3075 0.3730
H70_2 H 0.4620 0.2833 0.3239
H71_3 H 0.5376 0.2703 0.3062
C67_2 C 0.3959(7) 0.2206(9) 0.4343(9)
H72_2 H 0.3964 0.2665 0.4192
H73_2 H 0.3886 0.2195 0.4819
H74_2 H 0.3604 0.1968 0.4120
C68_2 C 0.4473(10) 0.1293(10) 0.4446(10)
H75_2 H 0.4867 0.1026 0.4373
H76_2 H 0.4096 0.1087 0.4227
H77_2 H 0.4386 0.1326 0.4920
O21_3 O 0.6319(5) 0.0511(5) 0.3319(5)
C69_3 C 0.6224(9) 0.0025(9) 0.2923(10)
C70_3 C 0.6579(8) 0.0054(8) 0.2271(8)
H78_3 H 0.6270 0.0186 0.1925
H80_3 H 0.6938 0.0376 0.2297
N17_3 N 0.0431(6) 0.8093(7) 0.9195(7)
H70_3 H 0.0380 0.7167 0.8239
C67_3 C 0.1041(7) 0.7794(9) 0.9343(9)
H72_3 H 0.1036 0.7335 0.9192
H73_3 H 0.1114 0.7805 0.9819
H74_3 H 0.1396 0.8032 0.9120
C68_3 C 0.0527(10) 0.8707(10) 0.9446(10)
H75_3 H 0.0133 0.8974 0.9373
H76_3 H 0.0904 0.8913 0.9227
H77_3 H 0.0614 0.8674 0.9920
N10_3 N 0.5126(4) 0.0060(4) 0.6484(4)
H44_4 H 0.4980 0.0456 0.6579
C42_3 C 0.5704(6) 0.0186(6) 0.7510(6)
H47_3 H 0.5458 0.0580 0.7567
H48_3 H 0.6168 0.0230 0.8368
O17_4 O 0.1138(4) 0.2120(4) 0.5501(5)
N13_3 N 0.3516(4) 0.0126(4) 0.4940(4)
N14_4 N 0.4305(5) 0.0124(5) 0.5726(5)
C49_4 C 0.1647(6) 0.2065(6) 0.5804(6)
C50_4 C 0.2157(6) 0.1594(6) 0.5588(6)
C51_4 C 0.2759(6) 0.1535(6) 0.5870(6)
H60_4 H 0.2872 0.1832 0.6213
C52_4 C 0.3221(6) 0.1063(5) 0.5686(6)
H61_4 H 0.3642 0.1051 0.5888
C53_4 C 0.3055(6) 0.0613(6) 0.5206(6)
C54_3 C 0.2490(6) 0.0704(6) 0.4814(6)
H62_3 H 0.2433 0.0458 0.4420
C55_4 C 0.2037(6) 0.1140(6) 0.5003(5)
H63_3 H 0.1632 0.1168 0.4770
N18_3 N 0.9195(7) 0.0431(6) 0.8093(7)
H79_3 H 0.8239 0.0380 0.7167
C71_3 C 0.9343(9) 0.1041(7) 0.7794(9)
H81_3 H 0.9192 0.1036 0.7335
H82_3 H 0.9819 0.1114 0.7805
H83_3 H 0.9120 0.1396 0.8032
C72_3 C 0.9446(10) 0.0527(10) 0.8707(10)
H84_3 H 0.9373 0.0133 0.8974
H85_3 H 0.9227 0.0904 0.8913
H86_3 H 0.9920 0.0614 0.8674
N12_3 N 0.8093(7) 0.9195(7) 0.0431(6)
H50_3 H 0.7167 0.8239 0.0380
C47_3 C 0.7794(9) 0.9343(9) 0.1041(7)
H52_3 H 0.7335 0.9192 0.1036
H53_3 H 0.7805 0.9819 0.1114
H54_3 H 0.8032 0.9120 0.1396
C48_3 C 0.8707(10) 0.9446(10) 0.0527(10)
H55_3 H 0.8974 0.9373 0.0133
H56_3 H 0.8913 0.9227 0.0904
H57_3 H 0.8674 0.9920 0.0614
O12_4 O 0.7419(4) 0.8731(5) 0.8192(4)
O13_4 O 0.7120(4) 0.9499(5) 0.8862(4)
O14_4 O 0.7659(6) 0.7659(6) 0.7659(6)
O15_4 O 0.8319(5) 0.8681(5) 0.9489(5)
N11_4 N 0.5124(5) 0.9274(5) 0.5695(5)
C37_4 C 0.7065(6) 0.9196(6) 0.8353(6)
C38_4 C 0.6594(6) 0.9412(6) 0.7843(6)
C39_4 C 0.6535(6) 0.9130(6) 0.7241(6)
H45_4 H 0.6832 0.8787 0.7128
C40_4 C 0.6063(5) 0.9314(6) 0.6779(6)
H46_4 H 0.6051 0.9112 0.6358
C41_4 C 0.5613(6) 0.9794(6) 0.6945(6)
C43_4 C 0.6140(6) 0.9997(5) 0.7963(6)
C44_3 C 0.4879(6) 0.9798(6) 0.5957(5)
C45_4 C 0.7923(10) 0.8776(9) 0.9975(9)
C46_4 C 0.7271(8) 0.8421(8) 0.9946(8)
H49_4 H 0.6925 0.8730 0.9814
H51_4 H 0.7297 0.8062 0.9624
H59_4 H 0.3421 0.9980 0.4544
C56_3 C 0.4043(5) 0.9879(6) 0.5202(6)
O19_4 O 0.4499(5) 0.6138(4) 0.2880(4)
N15_3 N 0.5060(4) 0.8516(4) 0.4874(4)
H64_4 H 0.5456 0.8421 0.5020
N16_4 N 0.4274(5) 0.9305(5) 0.4876(5)
C57_4 C 0.4196(6) 0.6647(6) 0.2935(6)
C58_4 C 0.4412(6) 0.7157(6) 0.3406(6)
C59_4 C 0.4130(6) 0.7759(6) 0.3465(6)
H65_4 H 0.3787 0.7872 0.3168
C60_4 C 0.4314(6) 0.8221(6) 0.3937(5)
H66_4 H 0.4112 0.8642 0.3949
C61_4 C 0.4794(6) 0.8055(6) 0.4387(6)
C62_3 C 0.5186(6) 0.7490(6) 0.4296(6)
H67_3 H 0.5580 0.7433 0.4542
C63_4 C 0.4997(5) 0.7037(6) 0.3860(6)
H68_3 H 0.5230 0.6632 0.3832
C64_3 C 0.4798(6) 0.9043(5) 0.5121(6)
O20_4 O 0.9489(5) 0.8319(5) 0.8681(5)
C65_4 C 0.9975(9) 0.7923(10) 0.8776(9)
C66_4 C 0.9946(8) 0.7271(8) 0.8421(8)
H69_4 H 0.9814 0.6925 0.8730
H71_4 H 0.9624 0.7297 0.8062
O21_4 O 0.8681(5) 0.9489(5) 0.8319(5)
C69_4 C 0.8776(9) 0.9975(9) 0.7923(10)
C70_4 C 0.8421(8) 0.9946(8) 0.7271(8)
H78_4 H 0.8730 0.9814 0.6925
H80_4 H 0.8062 0.9624 0.7297
N12_4 N 0.3093(7) 0.5805(7) 0.9569(6)
H50_4 H 0.2167 0.6761 0.9620
C47_4 C 0.2794(9) 0.5657(9) 0.8959(7)
H52_4 H 0.2335 0.5808 0.8964
H53_4 H 0.2805 0.5181 0.8886
H54_4 H 0.3032 0.5880 0.8604
C48_4 C 0.3707(10) 0.5554(10) 0.9473(10)
H55_4 H 0.3974 0.5627 0.9867
H56_4 H 0.3913 0.5773 0.9096
H57_4 H 0.3674 0.5080 0.9386
N13_4 N 0.1484(4) 0.9874(4) 0.9940(4)
C54_4 C 0.2510(6) 0.9296(6) 0.9814(6)
H62_4 H 0.2567 0.9542 0.9420
H63_4 H 0.3368 0.8832 0.9770
N17_4 N 0.9569(6) 0.3093(7) 0.5805(7)
H70_4 H 0.9620 0.2167 0.6761
C67_4 C 0.8959(7) 0.2794(9) 0.5657(9)
H72_4 H 0.8964 0.2335 0.5808
H73_4 H 0.8886 0.2805 0.5181
H74_4 H 0.8604 0.3032 0.5880
C68_4 C 0.9473(10) 0.3707(10) 0.5554(10)
H75_4 H 0.9867 0.3974 0.5627
H76_4 H 0.9096 0.3913 0.5773
H77_4 H 0.9386 0.3674 0.5080
N15_4 N 0.9940(4) 0.1484(4) 0.9874(4)
C62_4 C 0.9814(6) 0.2510(6) 0.9296(6)
H67_4 H 0.9420 0.2567 0.9542
H68_4 H 0.9770 0.3368 0.8832
C44_4 C 0.0121(6) 0.0202(6) 0.0957(5)
C56_4 C 0.0957(5) 0.0121(6) 0.0202(6)
C64_4 C 0.0202(6) 0.0957(5) 0.0121(6)
N10_4 N 0.9874(4) 0.9940(4) 0.1484(4)
C42_4 C 0.9296(6) 0.9814(6) 0.2510(6)
H47_4 H 0.9542 0.9420 0.2567
H48_4 H 0.8832 0.9770 0.3368
N18_4 N 0.5805(7) 0.9569(6) 0.3093(7)
H79_4 H 0.6761 0.9620 0.2167
C71_4 C 0.5657(9) 0.8959(7) 0.2794(9)
H81_4 H 0.5808 0.8964 0.2335
H82_4 H 0.5181 0.8886 0.2805
H83_4 H 0.5880 0.8604 0.3032
C72_4 C 0.5554(10) 0.9473(10) 0.3707(10)
H84_4 H 0.5627 0.9867 0.3974
H85_4 H 0.5773 0.9096 0.3913
H86_4 H 0.5080 0.9386 0.3674
loop_
_geom_bond_atom_site_label_1
_geom_bond_atom_site_label_2
_geom_bond_site_symmetry_1
_geom_bond_site_symmetry_2
H35 C34 1_555 1_555
H36 C34 1_555 1_555
C35 N9 1_555 1_555
H38 C35 1_555 1_555
H39 C35 1_555 1_555
C36 N9 1_555 1_555
H40 C36 1_555 1_555
H41 C36 1_555 1_555
H42 C36 1_555 1_555
Yb1 O1 1_555 1_555
O1 C1 1_555 1_555
O2 C1 1_555 1_555
O3 Yb1 1_555 1_555
N3 C9 1_555 1_555
C1 C2 1_555 1_555
C2 C3 1_555 1_555
C6 C5 1_555 1_555
H4 C6 1_555 1_555
C7 C2 1_555 1_555
H5 C7 1_555 1_555
C9 O3 1_555 1_555
C10 C9 1_555 1_555
H6 C10 1_555 1_555
H7 C10 1_555 1_555
H8 C10 1_555 1_555
C11 N3 1_555 1_555
H9 C11 1_555 1_555
H10 C11 1_555 1_555
H11 C11 1_555 1_555
C12 N3 1_555 1_555
H12 C12 1_555 1_555
H13 C12 1_555 1_555
H14 C12 1_555 1_555
N6 H20 1_555 1_555
H22 C24 1_555 1_555
O8 Yb1 1_555 1_555
C29 O8 1_555 1_555
O9 Yb1 1_555 1_555
C33 O9 1_555 1_555
O10 Yb1 1_555 1_555
O11 Yb1 1_555 1_555
C6 C7 1_555 1_555
N5 C20 1_555 1_555
O6 C21 1_555 1_555
O7 C21 1_555 1_555
C21 C22 1_555 1_555
C22 C23 1_555 1_555
C26 C25 1_555 1_555
H23 C26 1_555 1_555
C27 C22 1_555 1_555
H24 C27 1_555 1_555
C28 N5 1_555 1_555
Yb2 O6 1_555 1_555
C26 C27 1_555 1_555
H7_2 C10_2 1_555 1_555
H8_2 C10_2 1_555 1_555
C11_2 N3_2 1_555 1_555
H10_2 C11_2 1_555 1_555
H11_2 C11_2 1_555 1_555
C12_2 N3_2 1_555 1_555
H12_2 C12_2 1_555 1_555
H13_2 C12_2 1_555 1_555
H14_2 C12_2 1_555 1_555
Yb2 O1_2 1_555 1_555
O1_2 C1_2 1_555 1_555
O2_2 C1_2 1_555 1_555
O3_2 Yb2 1_555 1_555
N1 H1 1_555 1_555
N2 C8_2 1_555 1_555
C1_2 C2_2 1_555 1_555
C2_2 C3_2 1_555 1_555
C3_2 H2 1_555 1_555
C4 C3_2 1_555 1_555
H3 C4 1_555 1_555
C5_2 N1 1_555 1_555
C6_2 C5_2 1_555 1_555
H4_2 C6_2 1_555 1_555
C7_2 C2_2 1_555 1_555
H5_2 C7_2 1_555 1_555
C8_2 N1 1_555 1_555
C9_2 O3_2 1_555 1_555
O4 C13 1_555 1_555
O5 C13 1_555 1_555
N4 H15_2 1_555 1_555
N5_2 C20_2 1_555 1_555
C13 C14 1_555 1_555
C14 C15 1_555 1_555
C15 H16 1_555 1_555
C16 C15 1_555 1_555
H17 C16 1_555 1_555
C17 N4 1_555 1_555
C18 C17 1_555 1_555
H18 C18 1_555 1_555
C19 C14 1_555 1_555
H19 C19 1_555 1_555
C20_2 N2 1_555 1_555
O11 C21_2 1_555 1_555
O7_2 C21_2 1_555 1_555
N6_2 H20_2 1_555 1_555
N7_2 C8_2 1_555 1_555
C21_2 C22_2 1_555 1_555
C22_2 C23_2 1_555 1_555
C23_2 H21_2 1_555 1_555
C24_2 C23_2 1_555 1_555
H22_2 C24_2 1_555 1_555
C25_2 N6_2 1_555 1_555
C26_2 C25_2 1_555 1_555
H23_2 C26_2 1_555 1_555
C27_2 C22_2 1_555 1_555
H24_2 C27_2 1_555 1_555
C28_2 N5_2 1_555 1_555
O8_2 Yb2 1_555 1_555
N8 C29_2 1_555 1_555
C29_2 O8_2 1_555 1_555
C30 C29_2 1_555 1_555
H25_2 C30 1_555 1_555
H26 C30 1_555 1_555
H27 C30 1_555 1_555
C31 N8 1_555 1_555
H28_2 C31 1_555 1_555
H29 C31 1_555 1_555
H30 C31 1_555 1_555
C32 N8 1_555 1_555
H31 C32 1_555 1_555
H32 C32 1_555 1_555
H33 C32 1_555 1_555
O9_2 Yb2 1_555 1_555
C33_2 O9_2 1_555 1_555
Yb3 O4 1_555 1_555
O10_2 Yb2 1_555 1_555
C4 C5_2 1_555 1_555
C6_2 C7_2 1_555 1_555
N4 C20_2 1_555 1_555
C16 C17 1_555 1_555
C18 C19 1_555 1_555
N6_2 C28_2 1_555 1_555
N7_2 C28_2 1_555 1_555
C24_2 C25_2 1_555 1_555
C26_2 C27_2 1_555 1_555
N1_2 H1_2 1_555 1_555
H3_2 C4_2 1_555 1_555
O10_2 C13_2 1_555 1_555
O5_2 C13_2 1_555 1_555
C13_2 C14_2 1_555 1_555
C14_2 C15_2 1_555 1_555
C18_2 C17_2 1_555 1_555
H18_2 C18_2 1_555 1_555
C19_2 C14_2 1_555 1_555
H19_2 C19_2 1_555 1_555
H26_2 C30_2 1_555 1_555
H27_2 C30_2 1_555 1_555
C31_2 N8_2 1_555 1_555
H29_2 C31_2 1_555 1_555
H30_2 C31_2 1_555 1_555
C32_2 N8_2 1_555 1_555
H31_2 C32_2 1_555 1_555
H32_2 C32_2 1_555 1_555
H33_2 C32_2 1_555 1_555
C18_2 C19_2 1_555 1_555
Yb3 O1_3 1_555 1_555
O1_3 C1_3 1_555 1_555
O2_3 C1_3 1_555 1_555
O3_3 Yb3 1_555 1_555
C1_3 C2_3 1_555 1_555
C2_3 C3_3 1_555 1_555
C6_3 C5_3 1_555 1_555
H4_3 C6_3 1_555 1_555
C7_3 C2_3 1_555 1_555
H5_3 C7_3 1_555 1_555
C9_3 O3_3 1_555 1_555
N7_3 C8_3 1_555 1_555
O8_3 Yb3 1_555 1_555
C29_3 O8_3 1_555 1_555
O9_3 Yb3 1_555 1_555
N9_2 C33_3 1_555 1_555
C33_3 O9_3 1_555 1_555
C34_2 C33_3 1_555 1_555
H34_3 C34_2 1_555 1_555
H35_2 C34_2 1_555 1_555
H36_2 C34_2 1_555 1_555
C35_2 N9_2 1_555 1_555
H37_3 C35_2 1_555 1_555
H38_2 C35_2 1_555 1_555
H39_2 C35_2 1_555 1_555
C36_2 N9_2 1_555 1_555
H40_2 C36_2 1_555 1_555
H41_2 C36_2 1_555 1_555
H42_2 C36_2 1_555 1_555
O11_2 Yb3 1_555 1_555
C6_3 C7_3 1_555 1_555
N7_3 C28_3 1_555 1_555
N4_2 H15_3 1_555 1_555
H17_2 C16_2 1_555 1_555
O11_2 C21_3 1_555 1_555
O7_3 C21_3 1_555 1_555
C21_3 C22_3 1_555 1_555
C22_3 C23_3 1_555 1_555
C26_3 C25_3 1_555 1_555
H23_3 C26_3 1_555 1_555
C27_3 C22_3 1_555 1_555
H24_3 C27_3 1_555 1_555
C26_3 C27_3 1_555 1_555
N2_3 C8_4 1_555 1_555
O10 C13_3 1_555 1_555
O5_3 C13_3 1_555 1_555
C13_3 C14_3 1_555 1_555
C14_3 C15_3 1_555 1_555
C18_3 C17_3 1_555 1_555
H18_3 C18_3 1_555 1_555
C19_3 C14_3 1_555 1_555
H19_3 C19_3 1_555 1_555
C20_4 N2_3 1_555 1_555
C18_3 C19_3 1_555 1_555
H3_3 C4_3 1_555 1_555
H26_3 C30_3 1_555 1_555
H27_3 C30_3 1_555 1_555
C31_3 N8_3 1_555 1_555
H29_3 C31_3 1_555 1_555
H30_3 C31_3 1_555 1_555
C32_3 N8_3 1_555 1_555
H31_3 C32_3 1_555 1_555
H32_3 C32_3 1_555 1_555
H33_3 C32_3 1_555 1_555
O4_2 C13_4 1_555 1_555
O5_4 C13_4 1_555 1_555
C13_4 C14_4 1_555 1_555
C14_4 C15_4 1_555 1_555
C15_4 H16_3 1_555 1_555
C16_3 C15_4 1_555 1_555
H17_3 C16_3 1_555 1_555
C17_4 N4_3 1_555 1_555
C18_4 C17_4 1_555 1_555
H18_4 C18_4 1_555 1_555
C19_4 C14_4 1_555 1_555
H19_4 C19_4 1_555 1_555
Yb3_2 O4_2 1_555 1_555
C16_3 C17_4 1_555 1_555
C18_4 C19_4 1_555 1_555
O6_2 C21_4 1_555 1_555
O7_4 C21_4 1_555 1_555
C21_4 C22_4 1_555 1_555
C22_4 C23_4 1_555 1_555
C23_4 H21_3 1_555 1_555
C24_3 C23_4 1_555 1_555
H22_3 C24_3 1_555 1_555
C25_4 N6_3 1_555 1_555
C26_4 C25_4 1_555 1_555
H23_4 C26_4 1_555 1_555
C27_4 C22_4 1_555 1_555
H24_4 C27_4 1_555 1_555
Yb3_2 O6_2 1_555 1_555
C24_3 C25_4 1_555 1_555
C26_4 C27_4 1_555 1_555
Yb3_2 O1_4 1_555 1_555
O1_4 C1_4 1_555 1_555
O2_4 C1_4 1_555 1_555
O3_4 Yb3_2 1_555 1_555
N3_3 C9_4 1_555 1_555
C1_4 C2_4 1_555 1_555
C2_4 C3_4 1_555 1_555
C3_4 H2_4 1_555 1_555
C4_4 C3_4 1_555 1_555
H3_4 C4_4 1_555 1_555
C5_4 N1_4 1_555 1_555
C6_4 C5_4 1_555 1_555
H4_4 C6_4 1_555 1_555
C7_4 C2_4 1_555 1_555
H5_4 C7_4 1_555 1_555
C9_4 O3_4 1_555 1_555
C10_3 C9_4 1_555 1_555
H6_4 C10_3 1_555 1_555
H7_3 C10_3 1_555 1_555
H8_3 C10_3 1_555 1_555
C11_3 N3_3 1_555 1_555
H9_4 C11_3 1_555 1_555
H10_3 C11_3 1_555 1_555
H11_3 C11_3 1_555 1_555
C12_3 N3_3 1_555 1_555
H12_3 C12_3 1_555 1_555
H13_3 C12_3 1_555 1_555
H14_3 C12_3 1_555 1_555
O8_4 Yb3_2 1_555 1_555
N8_4 C29_4 1_555 1_555
C29_4 O8_4 1_555 1_555
C30_4 C29_4 1_555 1_555
H25_4 C30_4 1_555 1_555
H26_4 C30_4 1_555 1_555
H27_4 C30_4 1_555 1_555
C31_4 N8_4 1_555 1_555
H28_4 C31_4 1_555 1_555
H29_4 C31_4 1_555 1_555
H30_4 C31_4 1_555 1_555
C32_4 N8_4 1_555 1_555
H31_4 C32_4 1_555 1_555
H32_4 C32_4 1_555 1_555
H33_4 C32_4 1_555 1_555
O9_4 Yb3_2 1_555 1_555
N9_3 C33_4 1_555 1_555
C33_4 O9_4 1_555 1_555
C34_3 C33_4 1_555 1_555
H34_4 C34_3 1_555 1_555
H35_3 C34_3 1_555 1_555
H36_3 C34_3 1_555 1_555
C35_3 N9_3 1_555 1_555
H37_4 C35_3 1_555 1_555
H38_3 C35_3 1_555 1_555
H39_3 C35_3 1_555 1_555
C36_3 N9_3 1_555 1_555
H40_3 C36_3 1_555 1_555
H41_3 C36_3 1_555 1_555
H42_3 C36_3 1_555 1_555
C4_4 C5_4 1_555 1_555
C6_4 C7_4 1_555 1_555
H35_4 C34_4 1_555 1_555
H36_4 C34_4 1_555 1_555
C35_4 N9_4 1_555 1_555
H38_4 C35_4 1_555 1_555
H39_4 C35_4 1_555 1_555
C36_4 N9_4 1_555 1_555
H40_4 C36_4 1_555 1_555
H41_4 C36_4 1_555 1_555
H42_4 C36_4 1_555 1_555
H17_4 C16_4 1_555 1_555
H7_4 C10_4 1_555 1_555
H8_4 C10_4 1_555 1_555
C11_4 N3_4 1_555 1_555
H10_4 C11_4 1_555 1_555
H11_4 C11_4 1_555 1_555
C12_4 N3_4 1_555 1_555
H12_4 C12_4 1_555 1_555
H13_4 C12_4 1_555 1_555
H14_4 C12_4 1_555 1_555
H22_4 C24_4 1_555 1_555
Yb4 O12 1_555 1_555
O12 C37 1_555 1_555
O13 C37 1_555 1_555
O14 Yb4 1_555 1_555
O15 Yb4 1_555 1_555
C37 C38 1_555 1_555
C38 C39 1_555 1_555
C39 H45 1_555 1_555
C40 C39 1_555 1_555
H46 C40 1_555 1_555
C41 N10 1_555 1_555
C42 C41 1_555 1_555
H47 C42 1_555 1_555
C43 C38 1_555 1_555
H48 C43 1_555 1_555
C45 O15 1_555 1_555
C46 C45 1_555 1_555
H49 C46 1_555 1_555
H51 C46 1_555 1_555
N15 H64 1_555 1_555
H67 C62 1_555 1_555
O20 Yb4 1_555 1_555
N17 C65 1_555 1_555
C65 O20 1_555 1_555
C66 C65 1_555 1_555
H69 C66 1_555 1_555
H70 C66 1_555 1_555
H71 C66 1_555 1_555
C67 N17 1_555 1_555
H72 C67 1_555 1_555
H73 C67 1_555 1_555
H74 C67 1_555 1_555
C68 N17 1_555 1_555
H75 C68 1_555 1_555
H76 C68 1_555 1_555
H77 C68 1_555 1_555
O21 Yb4 1_555 1_555
N18 C69 1_555 1_555
C69 O21 1_555 1_555
C70 C69 1_555 1_555
H78 C70 1_555 1_555
H79 C70 1_555 1_555
H80 C70 1_555 1_555
C71 N18 1_555 1_555
H81 C71 1_555 1_555
H82 C71 1_555 1_555
H83 C71 1_555 1_555
C72 N18 1_555 1_555
H84 C72 1_555 1_555
H85 C72 1_555 1_555
H86 C72 1_555 1_555
O22 Yb4 1_555 1_555
O23 Yb4 1_555 1_555
C40 C41 1_555 1_555
C42 C43 1_555 1_555
O16 C49 1_555 1_555
O17 C49 1_555 1_555
N13 H59 1_555 1_555
N14 C44 1_555 1_555
C49 C50 1_555 1_555
C50 C51 1_555 1_555
C51 H60 1_555 1_555
C52 C51 1_555 1_555
H61 C52 1_555 1_555
C53 N13 1_555 1_555
C54 C53 1_555 1_555
H62 C54 1_555 1_555
C55 C50 1_555 1_555
H63 C55 1_555 1_555
C56 N13 1_555 1_555
O18 C57 1_555 1_555
O19 C57 1_555 1_555
N16 C56 1_555 1_555
C57 C58 1_555 1_555
C58 C59 1_555 1_555
C59 H65 1_555 1_555
C60 C59 1_555 1_555
H66 C60 1_555 1_555
C63 C58 1_555 1_555
Yb5 O16 1_555 1_555
Yb6 O18 1_555 1_555
N14 C56 1_555 1_555
C52 C53 1_555 1_555
C54 C55 1_555 1_555
N16 C64 1_555 1_555
C60 C61 1_555 1_555
N13_2 H59_2 1_555 1_555
H62_2 C54_2 1_555 1_555
O18_2 C57_2 1_555 1_555
O19_2 C57_2 1_555 1_555
C57_2 C58_2 1_555 1_555
C58_2 C59_2 1_555 1_555
C59_2 H65_2 1_555 1_555
C60_2 C59_2 1_555 1_555
H66_2 C60_2 1_555 1_555
C61_2 N15_2 1_555 1_555
C62_2 C61_2 1_555 1_555
H67_2 C62_2 1_555 1_555
C63_2 C58_2 1_555 1_555
H68_2 C63_2 1_555 1_555
Yb5 O18_2 1_555 1_555
C60_2 C61_2 1_555 1_555
C62_2 C63_2 1_555 1_555
Yb4_2 O12_2 1_555 1_555
O12_2 C37_2 1_555 1_555
O13_2 C37_2 1_555 1_555
O14_2 Yb4_2 1_555 1_555
O15_2 Yb4_2 1_555 1_555
N10_2 H44_2 1_555 1_555
N11_2 C44_2 1_555 1_555
N12 C45_2 1_555 1_555
C37_2 C38_2 1_555 1_555
C38_2 C39_2 1_555 1_555
C39_2 H45_2 1_555 1_555
C40_2 C39_2 1_555 1_555
H46_2 C40_2 1_555 1_555
C41_2 N10_2 1_555 1_555
C42_2 C41_2 1_555 1_555
H47_2 C42_2 1_555 1_555
C43_2 C38_2 1_555 1_555
H48_2 C43_2 1_555 1_555
C44_2 N10_2 1_555 1_555
C45_2 O15_2 1_555 1_555
C46_2 C45_2 1_555 1_555
H49_2 C46_2 1_555 1_555
H50 C46_2 1_555 1_555
H51_2 C46_2 1_555 1_555
C47 N12 1_555 1_555
H52 C47 1_555 1_555
H53 C47 1_555 1_555
H54 C47 1_555 1_555
C48 N12 1_555 1_555
H55 C48 1_555 1_555
H56 C48 1_555 1_555
H57 C48 1_555 1_555
O16_2 C49_2 1_555 1_555
O17_2 C49_2 1_555 1_555
N14_2 C44_2 1_555 1_555
C49_2 C50_2 1_555 1_555
C50_2 C51_2 1_555 1_555
C51_2 H60_2 1_555 1_555
C52_2 C51_2 1_555 1_555
H61_2 C52_2 1_555 1_555
C55_2 C50_2 1_555 1_555
C64_2 N11_2 1_555 1_555
O20_2 Yb4_2 1_555 1_555
C65_2 O20_2 1_555 1_555
C66_2 C65_2 1_555 1_555
H69_2 C66_2 1_555 1_555
H71_2 C66_2 1_555 1_555
O21_2 Yb4_2 1_555 1_555
N18_2 C69_2 1_555 1_555
C69_2 O21_2 1_555 1_555
C70_2 C69_2 1_555 1_555
H78_2 C70_2 1_555 1_555
H79_2 C70_2 1_555 1_555
H80_2 C70_2 1_555 1_555
C71_2 N18_2 1_555 1_555
H81_2 C71_2 1_555 1_555
H82_2 C71_2 1_555 1_555
H83_2 C71_2 1_555 1_555
C72_2 N18_2 1_555 1_555
H84_2 C72_2 1_555 1_555
H85_2 C72_2 1_555 1_555
H86_2 C72_2 1_555 1_555
Yb6 O16_2 1_555 1_555
O22_2 Yb4_2 1_555 1_555
O23_2 Yb4_2 1_555 1_555
C40_2 C41_2 1_555 1_555
C42_2 C43_2 1_555 1_555
N14_2 C56_2 1_555 1_555
C52_2 C53_2 1_555 1_555
O23_2 C57_3 1_555 1_555
O19_3 C57_3 1_555 1_555
C57_3 C58_3 1_555 1_555
C58_3 C59_3 1_555 1_555
C59_3 H65_3 1_555 1_555
C60_3 C59_3 1_555 1_555
H66_3 C60_3 1_555 1_555
C63_3 C58_3 1_555 1_555
C60_3 C61_3 1_555 1_555
O22 C49_3 1_555 1_555
O17_3 C49_3 1_555 1_555
C49_3 C50_3 1_555 1_555
C50_3 C51_3 1_555 1_555
C51_3 H60_3 1_555 1_555
C52_3 C51_3 1_555 1_555
H61_3 C52_3 1_555 1_555
C55_3 C50_3 1_555 1_555
C52_3 C53_3 1_555 1_555
Yb5 O12_3 1_555 1_555
O12_3 C37_3 1_555 1_555
O13_3 C37_3 1_555 1_555
O14_3 Yb5 1_555 1_555
O15_3 Yb5 1_555 1_555
N12_2 C45_3 1_555 1_555
C37_3 C38_3 1_555 1_555
C38_3 C39_3 1_555 1_555
C39_3 H45_3 1_555 1_555
C40_3 C39_3 1_555 1_555
H46_3 C40_3 1_555 1_555
C43_3 C38_3 1_555 1_555
C45_3 O15_3 1_555 1_555
C46_3 C45_3 1_555 1_555
H49_3 C46_3 1_555 1_555
H50_2 C46_3 1_555 1_555
H51_3 C46_3 1_555 1_555
C47_2 N12_2 1_555 1_555
H52_2 C47_2 1_555 1_555
H53_2 C47_2 1_555 1_555
H54_2 C47_2 1_555 1_555
C48_2 N12_2 1_555 1_555
H55_2 C48_2 1_555 1_555
H56_2 C48_2 1_555 1_555
H57_2 C48_2 1_555 1_555
O20_3 Yb5 1_555 1_555
N17_2 C65_3 1_555 1_555
C65_3 O20_3 1_555 1_555
C66_3 C65_3 1_555 1_555
H69_3 C66_3 1_555 1_555
H70_2 C66_3 1_555 1_555
H71_3 C66_3 1_555 1_555
C67_2 N17_2 1_555 1_555
H72_2 C67_2 1_555 1_555
H73_2 C67_2 1_555 1_555
H74_2 C67_2 1_555 1_555
C68_2 N17_2 1_555 1_555
H75_2 C68_2 1_555 1_555
H76_2 C68_2 1_555 1_555
H77_2 C68_2 1_555 1_555
O21_3 Yb5 1_555 1_555
C69_3 O21_3 1_555 1_555
C70_3 C69_3 1_555 1_555
H78_3 C70_3 1_555 1_555
H80_3 C70_3 1_555 1_555
C40_3 C41_3 1_555 1_555
C67_3 N17_3 1_555 1_555
H72_3 C67_3 1_555 1_555
H73_3 C67_3 1_555 1_555
H74_3 C67_3 1_555 1_555
C68_3 N17_3 1_555 1_555
H75_3 C68_3 1_555 1_555
H76_3 C68_3 1_555 1_555
H77_3 C68_3 1_555 1_555
N10_3 H44_4 1_555 1_555
H47_3 C42_3 1_555 1_555
O22_2 C49_4 1_555 1_555
O17_4 C49_4 1_555 1_555
C49_4 C50_4 1_555 1_555
C50_4 C51_4 1_555 1_555
C51_4 H60_4 1_555 1_555
C52_4 C51_4 1_555 1_555
H61_4 C52_4 1_555 1_555
C53_4 N13_3 1_555 1_555
C54_3 C53_4 1_555 1_555
H62_3 C54_3 1_555 1_555
C55_4 C50_4 1_555 1_555
H63_3 C55_4 1_555 1_555
C71_3 N18_3 1_555 1_555
H81_3 C71_3 1_555 1_555
H82_3 C71_3 1_555 1_555
H83_3 C71_3 1_555 1_555
C72_3 N18_3 1_555 1_555
H84_3 C72_3 1_555 1_555
H85_3 C72_3 1_555 1_555
H86_3 C72_3 1_555 1_555
C52_4 C53_4 1_555 1_555
C54_3 C55_4 1_555 1_555
C47_3 N12_3 1_555 1_555
H52_3 C47_3 1_555 1_555
H53_3 C47_3 1_555 1_555
H54_3 C47_3 1_555 1_555
C48_3 N12_3 1_555 1_555
H55_3 C48_3 1_555 1_555
H56_3 C48_3 1_555 1_555
H57_3 C48_3 1_555 1_555
Yb6 O12_4 1_555 1_555
O12_4 C37_4 1_555 1_555
O13_4 C37_4 1_555 1_555
O14_4 Yb6 1_555 1_555
O15_4 Yb6 1_555 1_555
N11_4 C44_3 1_555 1_555
C37_4 C38_4 1_555 1_555
C38_4 C39_4 1_555 1_555
C39_4 H45_4 1_555 1_555
C40_4 C39_4 1_555 1_555
H46_4 C40_4 1_555 1_555
C43_4 C38_4 1_555 1_555
C45_4 O15_4 1_555 1_555
C46_4 C45_4 1_555 1_555
H49_4 C46_4 1_555 1_555
H51_4 C46_4 1_555 1_555
O23 C57_4 1_555 1_555
O19_4 C57_4 1_555 1_555
N15_3 H64_4 1_555 1_555
N16_4 C56_3 1_555 1_555
C57_4 C58_4 1_555 1_555
C58_4 C59_4 1_555 1_555
C59_4 H65_4 1_555 1_555
C60_4 C59_4 1_555 1_555
H66_4 C60_4 1_555 1_555
C61_4 N15_3 1_555 1_555
C62_3 C61_4 1_555 1_555
H67_3 C62_3 1_555 1_555
C63_4 C58_4 1_555 1_555
H68_3 C63_4 1_555 1_555
C64_3 N11_4 1_555 1_555
O20_4 Yb6 1_555 1_555
C65_4 O20_4 1_555 1_555
C66_4 C65_4 1_555 1_555
H69_4 C66_4 1_555 1_555
H71_4 C66_4 1_555 1_555
O21_4 Yb6 1_555 1_555
C69_4 O21_4 1_555 1_555
C70_4 C69_4 1_555 1_555
H78_4 C70_4 1_555 1_555
H80_4 C70_4 1_555 1_555
C40_4 C41_4 1_555 1_555
N15_3 C64_3 1_555 1_555
N16_4 C64_3 1_555 1_555
C60_4 C61_4 1_555 1_555
C62_3 C63_4 1_555 1_555
C47_4 N12_4 1_555 1_555
H52_4 C47_4 1_555 1_555
H53_4 C47_4 1_555 1_555
H54_4 C47_4 1_555 1_555
C48_4 N12_4 1_555 1_555
H55_4 C48_4 1_555 1_555
H56_4 C48_4 1_555 1_555
H57_4 C48_4 1_555 1_555
H62_4 C54_4 1_555 1_555
C67_4 N17_4 1_555 1_555
H72_4 C67_4 1_555 1_555
H73_4 C67_4 1_555 1_555
H74_4 C67_4 1_555 1_555
C68_4 N17_4 1_555 1_555
H75_4 C68_4 1_555 1_555
H76_4 C68_4 1_555 1_555
H77_4 C68_4 1_555 1_555
H67_4 C62_4 1_555 1_555
H47_4 C42_4 1_555 1_555
C71_4 N18_4 1_555 1_555
H81_4 C71_4 1_555 1_555
H82_4 C71_4 1_555 1_555
H83_4 C71_4 1_555 1_555
C72_4 N18_4 1_555 1_555
H84_4 C72_4 1_555 1_555
H85_4 C72_4 1_555 1_555
H86_4 C72_4 1_555 1_555

#END
