
###############################################################################
#
# This file contains modified crystal structure data generated from the
# MOF subset of the Cambridge Structural Database (CSD) v543 
# hosted by the Cambridge Crystallographic Data Centre (CCDC).
#
# This work is licensed under the Creative Commons
# Attribution-NonCommercial-ShareAlike 4.0 International License.
# To view a copy of this license, visit
# http://creativecommons.org/licenses/by-nc-sa/4.0/
# or send a letter to
# Creative Commons, PO Box 1866, Mountain View, CA 94042, USA.
#
# CIF created using the CSD Python API on 29 September 2022
# The structure has been converted into the P1 space group
# The structure has a 3D framework
# The original CSD entry SOZGIZ is in the cubic crystal system
# The original CSD entry SOZGIZ is in a Sohncke space group
# The framework has been calculated to contain at least 10.0% void space
# The void calculation uses a probe of radius 1.32A, grid spacing 0.4
# Generated hydrogen atom positions removed from atoms on special positions
#
###############################################################################

data_SOZGIZ
_chemical_formula_moiety         '(C288 H348 N72 O76 Tm8)n'
_symmetry_cell_setting           triclinic
_symmetry_space_group_name_H-M   'P 1'
_symmetry_Int_Tables_number      1
_space_group_name_Hall           'P 1'
loop_
_symmetry_equiv_pos_site_id
_symmetry_equiv_pos_as_xyz
1 x,y,z
_cell_length_a                   20.3587(10)
_cell_length_b                   20.3587(10)
_cell_length_c                   20.3587(10)
_cell_angle_alpha                90
_cell_angle_beta                 90
_cell_angle_gamma                90
_cell_volume                     8438.21
loop_
_atom_site_label
_atom_site_type_symbol
_atom_site_fract_x
_atom_site_fract_y
_atom_site_fract_z
N9 N 0.0862(5) 0.0441(5) 0.3064(5)
H35 H 0.1697 0.0452 0.2152
C35 C 0.0503(7) 0.0419(7) 0.3711(6)
H38 H 0.0092 0.0668 0.3675
H39 H 0.0779 0.0613 0.4054
C36 C 0.0727(8) 0.1013(6) 0.2670(7)
H40 H 0.0723 0.1404 0.2951
H41 H 0.0298 0.0964 0.2457
H42 H 0.1068 0.1061 0.2334
Tm1 Tm 0.156189(17) 0.843811(17) 0.343811(17)
O1 O 0.1306(3) 0.8152(3) 0.2427(3)
O2 O 0.0538(4) 0.8845(3) 0.2122(3)
O3 O 0.1701(3) 0.8655(4) 0.4499(3)
N3 N 0.1936(5) 0.9138(5) 0.5441(5)
C1 C 0.0823(4) 0.8315(4) 0.2074(4)
C2 C 0.0602(4) 0.7830(4) 0.1569(4)
C3 C 0.0097(4) 0.7981(4) 0.1156(4)
C5 C 0.0192(4) 0.6911(4) 0.0613(4)
C6 C 0.0706(4) 0.6776(4) 0.1044(4)
H4 H 0.0920 0.6362 0.1021
C7 C 0.0912(4) 0.7230(4) 0.1501(4)
H5 H 0.1276 0.7129 0.1776
C9 C 0.2076(6) 0.8750(6) 0.4965(5)
C10 C 0.2722(6) 0.8372(7) 0.4993(6)
H6 H 0.2668 0.7946 0.4776
H7 H 0.2848 0.8303 0.5452
H8 H 0.3065 0.8624 0.4768
C11 C 0.1289(6) 0.9497(7) 0.5419(7)
H9 H 0.1176 0.9596 0.4962
H10 H 0.1325 0.9908 0.5668
H11 H 0.0946 0.9221 0.5613
C12 C 0.2330(7) 0.9273(8) 0.6013(6)
H12 H 0.2049 0.9277 0.6404
H13 H 0.2543 0.9702 0.5964
H14 H 0.2666 0.8932 0.6061
N6 N 0.1545(4) 0.4887(3) 0.0041(3)
H20 H 0.1686 0.5073 0.0405
N7 N 0.0746(3) 0.5689(3) 0.0110(3)
H21 H 0.3397 0.3812 0.0111
C24 C 0.2537(4) 0.4306(4) 0.0113(5)
H22 H 0.2649 0.4580 0.0473
O8 O 0.0501(3) 0.8299(3) 0.3655(4)
C29 C 0.0035(5) 0.7924(6) 0.3750(6)
C30 C 0.0007(6) 0.7278(6) 0.3372(7)
H25 H 0.0224 0.7332 0.2946
H27 H 0.0232 0.6935 0.3624
H28 H 0.0038 0.8824 0.4596
O9 O 0.1345(4) 0.9499(3) 0.3299(3)
C33 C 0.1250(6) 0.9965(5) 0.2924(6)
C34 C 0.1628(7) 0.9993(6) 0.2278(6)
H34 H 0.2054 0.9776 0.2332
H36 H 0.1376 0.9768 0.1935
H37 H 0.0404 0.9962 0.3824
O10 O 0.2573(3) 0.8694(3) 0.3152(3)
O11 O 0.1848(3) 0.7427(3) 0.3694(3)
C8 C 0.0229(4) 0.5958(4) 0.9851(4)
H15 H 0.0073 0.4595 0.8314
N5 N 0.0689(3) 0.4890(3) 0.9254(3)
C20 C 0.0149(4) 0.5229(4) 0.9042(4)
O6 O 0.3152(3) 0.2573(3) 0.8694(3)
O7 O 0.3845(3) 0.2878(3) 0.9462(4)
C21 C 0.3315(4) 0.2926(4) 0.9177(4)
C22 C 0.2830(4) 0.3431(4) 0.9398(4)
C23 C 0.2981(4) 0.3844(4) 0.9903(4)
C25 C 0.1911(4) 0.4387(4) 0.9808(4)
C26 C 0.1776(4) 0.3956(4) 0.9294(4)
H23 H 0.1362 0.3979 0.9080
C27 C 0.2230(4) 0.3499(4) 0.9088(4)
H24 H 0.2129 0.3224 0.8724
C28 C 0.0958(4) 0.5149(4) 0.9771(4)
Tm2 Tm 0.343811(17) 0.156189(17) 0.843811(17)
N3_2 N 0.3064(5) 0.0862(5) 0.0441(5)
H7_2 H 0.2152 0.1697 0.0452
C11_2 C 0.3711(6) 0.0503(7) 0.0419(7)
H10_2 H 0.3675 0.0092 0.0668
H11_2 H 0.4054 0.0779 0.0613
C12_2 C 0.2670(7) 0.0727(8) 0.1013(6)
H12_2 H 0.2951 0.0723 0.1404
H13_2 H 0.2457 0.0298 0.0964
H14_2 H 0.2334 0.1068 0.1061
O1_2 O 0.3694(3) 0.1848(3) 0.7427(3)
O2_2 O 0.4462(4) 0.1155(3) 0.7122(3)
O3_2 O 0.3299(3) 0.1345(4) 0.9499(3)
N1 N 0.5041(3) 0.3455(4) 0.5113(3)
H1 H 0.5405 0.3314 0.4927
N2 N 0.5110(3) 0.4254(3) 0.4311(3)
C1_2 C 0.4177(4) 0.1685(4) 0.7074(4)
C2_2 C 0.4398(4) 0.2170(4) 0.6569(4)
C3_2 C 0.4903(4) 0.2019(4) 0.6156(4)
H2 H 0.5111 0.1603 0.6188
C4 C 0.5113(5) 0.2463(4) 0.5694(4)
H3 H 0.5473 0.2351 0.5420
C5_2 C 0.4808(4) 0.3089(4) 0.5613(4)
C6_2 C 0.4294(4) 0.3224(4) 0.6044(4)
H4_2 H 0.4080 0.3638 0.6021
C7_2 C 0.4088(4) 0.2770(4) 0.6501(4)
H5_2 H 0.3724 0.2871 0.6776
C8_2 C 0.4771(4) 0.4042(4) 0.4851(4)
C9_2 C 0.2924(6) 0.1250(6) 0.9965(5)
C10_2 C 0.2278(6) 0.1628(7) 0.9993(6)
H6_2 H 0.2332 0.2054 0.9776
H8_2 H 0.1935 0.1376 0.9768
H9_2 H 0.3824 0.0404 0.9962
O4 O 0.7427(3) 0.3694(3) 0.1848(3)
O5 O 0.7122(3) 0.4462(4) 0.1155(3)
N4 N 0.5113(3) 0.5041(3) 0.3455(4)
H15_2 H 0.4927 0.5405 0.3314
N5_2 N 0.4311(3) 0.5110(3) 0.4254(3)
C13 C 0.7074(4) 0.4177(4) 0.1685(4)
C14 C 0.6569(4) 0.4398(4) 0.2170(4)
C15 C 0.6156(4) 0.4903(4) 0.2019(4)
H16 H 0.6188 0.5111 0.1603
C16 C 0.5694(4) 0.5113(5) 0.2463(4)
H17 H 0.5420 0.5473 0.2351
C17 C 0.5613(4) 0.4808(4) 0.3089(4)
C18 C 0.6044(4) 0.4294(4) 0.3224(4)
H18 H 0.6021 0.4080 0.3638
C19 C 0.6501(4) 0.4088(4) 0.2770(4)
H19 H 0.6776 0.3724 0.2871
C20_2 C 0.4851(4) 0.4771(4) 0.4042(4)
O7_2 O 0.1155(3) 0.7122(3) 0.4462(4)
N6_2 N 0.3455(4) 0.5113(3) 0.5041(3)
H20_2 H 0.3314 0.4927 0.5405
N7_2 N 0.4254(3) 0.4311(3) 0.5110(3)
C21_2 C 0.1685(4) 0.7074(4) 0.4177(4)
C22_2 C 0.2170(4) 0.6569(4) 0.4398(4)
C23_2 C 0.2019(4) 0.6156(4) 0.4903(4)
H21_2 H 0.1603 0.6188 0.5111
C24_2 C 0.2463(4) 0.5694(4) 0.5113(5)
H22_2 H 0.2351 0.5420 0.5473
C25_2 C 0.3089(4) 0.5613(4) 0.4808(4)
C26_2 C 0.3224(4) 0.6044(4) 0.4294(4)
H23_2 H 0.3638 0.6021 0.4080
C27_2 C 0.2770(4) 0.6501(4) 0.4088(4)
H24_2 H 0.2871 0.6776 0.3724
C28_2 C 0.4042(4) 0.4851(4) 0.4771(4)
O8_2 O 0.4499(3) 0.1701(3) 0.8655(4)
N8 N 0.5441(5) 0.1936(5) 0.9138(5)
C29_2 C 0.4965(5) 0.2076(6) 0.8750(6)
C30_2 C 0.4993(6) 0.2722(6) 0.8372(7)
H25_2 H 0.4776 0.2668 0.7946
H26 H 0.5452 0.2848 0.8303
H27_2 H 0.4768 0.3065 0.8624
C31 C 0.5419(7) 0.1289(6) 0.9497(7)
H28_2 H 0.4962 0.1176 0.9596
H29 H 0.5668 0.1325 0.9908
H30 H 0.5613 0.0946 0.9221
C32 C 0.6013(6) 0.2330(7) 0.9273(8)
H31 H 0.6404 0.2049 0.9277
H32 H 0.5964 0.2543 0.9702
H33 H 0.6061 0.2666 0.8932
O9_2 O 0.3655(4) 0.0501(3) 0.8299(3)
C33_2 C 0.3750(6) 0.0035(5) 0.7924(6)
C34_2 C 0.3372(7) 0.0007(6) 0.7278(6)
H34_2 H 0.2946 0.0224 0.7332
H36_2 H 0.3624 0.0232 0.6935
H37_2 H 0.4596 0.0038 0.8824
Tm3 Tm 0.843811(17) 0.343811(17) 0.156189(17)
O10_2 O 0.2427(3) 0.1306(3) 0.8152(3)
N1_2 N 0.0041(3) 0.1545(4) 0.4887(3)
H1_2 H 0.0405 0.1686 0.5073
N2_2 N 0.0110(3) 0.0746(3) 0.5689(3)
H2_2 H 0.0111 0.3397 0.3812
C4_2 C 0.0113(5) 0.2537(4) 0.4306(4)
H3_2 H 0.0473 0.2649 0.4580
O5_2 O 0.2122(3) 0.0538(4) 0.8845(3)
C13_2 C 0.2074(4) 0.0823(4) 0.8315(4)
C14_2 C 0.1569(4) 0.0602(4) 0.7830(4)
C15_2 C 0.1156(4) 0.0097(4) 0.7981(4)
C17_2 C 0.0613(4) 0.0192(4) 0.6911(4)
C18_2 C 0.1044(4) 0.0706(4) 0.6776(4)
H18_2 H 0.1021 0.0920 0.6362
C19_2 C 0.1501(4) 0.0912(4) 0.7230(4)
H19_2 H 0.1776 0.1276 0.7129
N8_2 N 0.0441(5) 0.3064(5) 0.0862(5)
H26_2 H 0.0452 0.2152 0.1697
C31_2 C 0.0419(7) 0.3711(6) 0.0503(7)
H29_2 H 0.0668 0.3675 0.0092
H30_2 H 0.0613 0.4054 0.0779
C32_2 C 0.1013(6) 0.2670(7) 0.0727(8)
H31_2 H 0.1404 0.2951 0.0723
H32_2 H 0.0964 0.2457 0.0298
H33_2 H 0.1061 0.2334 0.1068
O1_3 O 0.8694(3) 0.3152(3) 0.2573(3)
O2_3 O 0.9462(4) 0.3845(3) 0.2878(3)
O3_3 O 0.8299(3) 0.3655(4) 0.0501(3)
C1_3 C 0.9177(4) 0.3315(4) 0.2926(4)
C2_3 C 0.9398(4) 0.2830(4) 0.3431(4)
C3_3 C 0.9903(4) 0.2981(4) 0.3844(4)
C5_3 C 0.9808(4) 0.1911(4) 0.4387(4)
C6_3 C 0.9294(4) 0.1776(4) 0.3956(4)
H4_3 H 0.9080 0.1362 0.3979
C7_3 C 0.9088(4) 0.2230(4) 0.3499(4)
H5_3 H 0.8724 0.2129 0.3224
C8_3 C 0.9771(4) 0.0958(4) 0.5149(4)
C9_3 C 0.7924(6) 0.3750(6) 0.0035(5)
C10_3 C 0.7278(6) 0.3372(7) 0.0007(6)
H6_3 H 0.7332 0.2946 0.0224
H8_3 H 0.6935 0.3624 0.0232
H9_3 H 0.8824 0.4596 0.0038
C20_3 C 0.9851(4) 0.0229(4) 0.5958(4)
H20_3 H 0.8314 0.0073 0.4595
N7_3 N 0.9254(3) 0.0689(3) 0.4890(3)
C28_3 C 0.9042(4) 0.0149(4) 0.5229(4)
O8_3 O 0.9499(3) 0.3299(3) 0.1345(4)
C29_3 C 0.9965(5) 0.2924(6) 0.1250(6)
C30_3 C 0.9993(6) 0.2278(6) 0.1628(7)
H25_3 H 0.9776 0.2332 0.2054
H27_3 H 0.9768 0.1935 0.1376
H28_3 H 0.9962 0.3824 0.0404
O9_3 O 0.8655(4) 0.4499(3) 0.1701(3)
N9_2 N 0.9138(5) 0.5441(5) 0.1936(5)
C33_3 C 0.8750(6) 0.4965(5) 0.2076(6)
C34_3 C 0.8372(7) 0.4993(6) 0.2722(6)
H34_3 H 0.7946 0.4776 0.2668
H35_2 H 0.8303 0.5452 0.2848
H36_3 H 0.8624 0.4768 0.3065
C35_2 C 0.9497(7) 0.5419(7) 0.1289(6)
H37_3 H 0.9596 0.4962 0.1176
H38_2 H 0.9908 0.5668 0.1325
H39_2 H 0.9221 0.5613 0.0946
C36_2 C 0.9273(8) 0.6013(6) 0.2330(7)
H40_2 H 0.9277 0.6404 0.2049
H41_2 H 0.9702 0.5964 0.2543
H42_2 H 0.8932 0.6061 0.2666
O11_2 O 0.8152(3) 0.2427(3) 0.1306(3)
N4_2 N 0.4887(3) 0.0041(3) 0.1545(4)
H15_3 H 0.5073 0.0405 0.1686
N5_3 N 0.5689(3) 0.0110(3) 0.0746(3)
H16_2 H 0.3812 0.0111 0.3397
C16_2 C 0.4306(4) 0.0113(5) 0.2537(4)
H17_2 H 0.4580 0.0473 0.2649
O7_3 O 0.8845(3) 0.2122(3) 0.0538(4)
C21_3 C 0.8315(4) 0.2074(4) 0.0823(4)
C22_3 C 0.7830(4) 0.1569(4) 0.0602(4)
C23_3 C 0.7981(4) 0.1156(4) 0.0097(4)
C25_3 C 0.6911(4) 0.0613(4) 0.0192(4)
C26_3 C 0.6776(4) 0.1044(4) 0.0706(4)
H23_3 H 0.6362 0.1021 0.0920
C27_3 C 0.7230(4) 0.1501(4) 0.0912(4)
H24_3 H 0.7129 0.1776 0.1276
H1_3 H 0.4595 0.8314 0.0073
N2_3 N 0.4890(3) 0.9254(3) 0.0689(3)
C8_4 C 0.5229(4) 0.9042(4) 0.0149(4)
O5_3 O 0.2878(3) 0.9462(4) 0.3845(3)
C13_3 C 0.2926(4) 0.9177(4) 0.3315(4)
C14_3 C 0.3431(4) 0.9398(4) 0.2830(4)
C15_3 C 0.3844(4) 0.9903(4) 0.2981(4)
C17_3 C 0.4387(4) 0.9808(4) 0.1911(4)
C18_3 C 0.3956(4) 0.9294(4) 0.1776(4)
H18_3 H 0.3979 0.9080 0.1362
C19_3 C 0.3499(4) 0.9088(4) 0.2230(4)
H19_3 H 0.3224 0.8724 0.2129
C20_4 C 0.5149(4) 0.9771(4) 0.0958(4)
C28_4 C 0.5958(4) 0.9851(4) 0.0229(4)
N1_3 N 0.9959(3) 0.6545(4) 0.0113(3)
H2_3 H 0.9889 0.8397 0.1188
C4_3 C 0.9887(5) 0.7537(4) 0.0694(4)
H3_3 H 0.9527 0.7649 0.0420
N8_3 N 0.9559(5) 0.8064(5) 0.4138(5)
H26_3 H 0.9548 0.7152 0.3303
C31_3 C 0.9581(7) 0.8711(6) 0.4497(7)
H29_3 H 0.9332 0.8675 0.4908
H30_3 H 0.9387 0.9054 0.4221
C32_3 C 0.8987(6) 0.7670(7) 0.4273(8)
H31_3 H 0.8596 0.7951 0.4277
H32_3 H 0.9036 0.7457 0.4702
H33_3 H 0.8939 0.7334 0.3932
H1_4 H 0.9595 0.6686 0.9927
N2_4 N 0.9890(3) 0.5746(3) 0.9311(3)
O4_2 O 0.7573(3) 0.6306(3) 0.6848(3)
O5_4 O 0.7878(3) 0.5538(4) 0.6155(3)
N4_3 N 0.9887(3) 0.4959(3) 0.8455(4)
C13_4 C 0.7926(4) 0.5823(4) 0.6685(4)
C14_4 C 0.8431(4) 0.5602(4) 0.7170(4)
C15_4 C 0.8844(4) 0.5097(4) 0.7019(4)
H16_3 H 0.8812 0.4889 0.6603
C16_3 C 0.9306(4) 0.4887(5) 0.7463(4)
H17_3 H 0.9580 0.4527 0.7351
C17_4 C 0.9387(4) 0.5192(4) 0.8089(4)
C18_4 C 0.8956(4) 0.5706(4) 0.8224(4)
H18_4 H 0.8979 0.5920 0.8638
C19_4 C 0.8499(4) 0.5912(4) 0.7770(4)
H19_4 H 0.8224 0.6276 0.7871
Tm3_2 Tm 0.656189(17) 0.656189(17) 0.656189(17)
H15_4 H 0.9927 0.9595 0.6686
N5_4 N 0.9311(3) 0.9890(3) 0.5746(3)
O6_2 O 0.6848(3) 0.7573(3) 0.6306(3)
O7_4 O 0.6155(3) 0.7878(3) 0.5538(4)
N6_3 N 0.8455(4) 0.9887(3) 0.4959(3)
C21_4 C 0.6685(4) 0.7926(4) 0.5823(4)
C22_4 C 0.7170(4) 0.8431(4) 0.5602(4)
C23_4 C 0.7019(4) 0.8844(4) 0.5097(4)
H21_3 H 0.6603 0.8812 0.4889
C24_3 C 0.7463(4) 0.9306(4) 0.4887(5)
H22_3 H 0.7351 0.9580 0.4527
C25_4 C 0.8089(4) 0.9387(4) 0.5192(4)
C26_4 C 0.8224(4) 0.8956(4) 0.5706(4)
H23_4 H 0.8638 0.8979 0.5920
C27_4 C 0.7770(4) 0.8499(4) 0.5912(4)
H24_4 H 0.7871 0.8224 0.6276
O1_4 O 0.6306(3) 0.6848(3) 0.7573(3)
O2_4 O 0.5538(4) 0.6155(3) 0.7878(3)
O3_4 O 0.6701(3) 0.6345(4) 0.5501(3)
N1_4 N 0.4959(3) 0.8455(4) 0.9887(3)
N3_3 N 0.6936(5) 0.5862(5) 0.4559(5)
C1_4 C 0.5823(4) 0.6685(4) 0.7926(4)
C2_4 C 0.5602(4) 0.7170(4) 0.8431(4)
C3_4 C 0.5097(4) 0.7019(4) 0.8844(4)
H2_4 H 0.4889 0.6603 0.8812
C4_4 C 0.4887(5) 0.7463(4) 0.9306(4)
H3_4 H 0.4527 0.7351 0.9580
C5_4 C 0.5192(4) 0.8089(4) 0.9387(4)
C6_4 C 0.5706(4) 0.8224(4) 0.8956(4)
H4_4 H 0.5920 0.8638 0.8979
C7_4 C 0.5912(4) 0.7770(4) 0.8499(4)
H5_4 H 0.6276 0.7871 0.8224
C9_4 C 0.7076(6) 0.6250(6) 0.5035(5)
C10_4 C 0.7722(6) 0.6628(7) 0.5007(6)
H6_4 H 0.7668 0.7054 0.5224
H7_3 H 0.7848 0.6697 0.4548
H8_4 H 0.8065 0.6376 0.5232
C11_3 C 0.6289(6) 0.5503(7) 0.4581(7)
H9_4 H 0.6176 0.5404 0.5038
H10_3 H 0.6325 0.5092 0.4332
H11_3 H 0.5946 0.5779 0.4387
C12_3 C 0.7330(7) 0.5727(8) 0.3987(6)
H12_3 H 0.7049 0.5723 0.3596
H13_3 H 0.7543 0.5298 0.4036
H14_3 H 0.7666 0.6068 0.3939
H20_4 H 0.6686 0.9927 0.9595
N7_4 N 0.5746(3) 0.9311(3) 0.9890(3)
O8_4 O 0.5501(3) 0.6701(3) 0.6345(4)
N8_4 N 0.4559(5) 0.6936(5) 0.5862(5)
C29_4 C 0.5035(5) 0.7076(6) 0.6250(6)
C30_4 C 0.5007(6) 0.7722(6) 0.6628(7)
H25_4 H 0.5224 0.7668 0.7054
H26_4 H 0.4548 0.7848 0.6697
H27_4 H 0.5232 0.8065 0.6376
C31_4 C 0.4581(7) 0.6289(6) 0.5503(7)
H28_4 H 0.5038 0.6176 0.5404
H29_4 H 0.4332 0.6325 0.5092
H30_4 H 0.4387 0.5946 0.5779
C32_4 C 0.3987(6) 0.7330(7) 0.5727(8)
H31_4 H 0.3596 0.7049 0.5723
H32_4 H 0.4036 0.7543 0.5298
H33_4 H 0.3939 0.7666 0.6068
O9_4 O 0.6345(4) 0.5501(3) 0.6701(3)
N9_3 N 0.5862(5) 0.4559(5) 0.6936(5)
C33_4 C 0.6250(6) 0.5035(5) 0.7076(6)
C34_4 C 0.6628(7) 0.5007(6) 0.7722(6)
H34_4 H 0.7054 0.5224 0.7668
H35_3 H 0.6697 0.4548 0.7848
H36_4 H 0.6376 0.5232 0.8065
C35_3 C 0.5503(7) 0.4581(7) 0.6289(6)
H37_4 H 0.5404 0.5038 0.6176
H38_3 H 0.5092 0.4332 0.6325
H39_3 H 0.5779 0.4387 0.5946
C36_3 C 0.5727(8) 0.3987(6) 0.7330(7)
H40_3 H 0.5723 0.3596 0.7049
H41_3 H 0.5298 0.4036 0.7543
H42_3 H 0.6068 0.3939 0.7666
N9_4 N 0.4138(5) 0.9559(5) 0.8064(5)
H35_4 H 0.3303 0.9548 0.7152
C35_4 C 0.4497(7) 0.9581(7) 0.8711(6)
H38_4 H 0.4908 0.9332 0.8675
H39_4 H 0.4221 0.9387 0.9054
C36_4 C 0.4273(8) 0.8987(6) 0.7670(7)
H40_4 H 0.4277 0.8596 0.7951
H41_4 H 0.4702 0.9036 0.7457
H42_4 H 0.3932 0.8939 0.7334
N4_4 N 0.0113(3) 0.9959(3) 0.6545(4)
H16_4 H 0.1188 0.9889 0.8397
C16_4 C 0.0694(4) 0.9887(5) 0.7537(4)
H17_4 H 0.0420 0.9527 0.7649
N3_4 N 0.8064(5) 0.4138(5) 0.9559(5)
H7_4 H 0.7152 0.3303 0.9548
C11_4 C 0.8711(6) 0.4497(7) 0.9581(7)
H10_4 H 0.8675 0.4908 0.9332
H11_4 H 0.9054 0.4221 0.9387
C12_4 C 0.7670(7) 0.4273(8) 0.8987(6)
H12_4 H 0.7951 0.4277 0.8596
H13_4 H 0.7457 0.4702 0.9036
H14_4 H 0.7334 0.3932 0.8939
N6_4 N 0.6545(4) 0.0113(3) 0.9959(3)
H21_4 H 0.8397 0.1188 0.9889
C24_4 C 0.7537(4) 0.0694(4) 0.9887(5)
H22_4 H 0.7649 0.0420 0.9527
Tm4 Tm 0.33830(2) 0.66170(2) 0.16170(2)
O12 O 0.2402(3) 0.6248(3) 0.1829(3)
O13 O 0.2133(3) 0.5424(4) 0.1157(3)
O14 O 0.2634(5) 0.7366(5) 0.2366(5)
O15 O 0.3288(4) 0.6322(3) 0.0533(3)
N10 N 0.0102(3) 0.4938(3) 0.3522(4)
N11 N 0.0119(3) 0.5733(4) 0.4302(3)
C37 C 0.2063(4) 0.5737(4) 0.1672(4)
C38 C 0.1558(5) 0.5544(4) 0.2162(4)
C39 C 0.1503(5) 0.5853(4) 0.2761(4)
H45 H 0.1800 0.6198 0.2864
C40 C 0.1032(4) 0.5678(4) 0.3216(4)
H46 H 0.0997 0.5903 0.3623
C41 C 0.0607(4) 0.5159(4) 0.3063(4)
C42 C 0.0667(4) 0.4827(5) 0.2486(4)
H47 H 0.0383 0.4469 0.2393
C43 C 0.1138(5) 0.5008(4) 0.2038(5)
H48 H 0.1180 0.4770 0.1639
C45 C 0.2908(7) 0.6277(6) 0.0064(6)
C46 C 0.2269(6) 0.6609(7) 0.0048(6)
H51 H 0.2154 0.6759 0.0490
N15 N 0.0062(3) 0.6478(4) 0.5102(3)
H64 H 0.0451 0.6575 0.4939
C62 C 0.0173(5) 0.7514(4) 0.5667(4)
H67 H 0.0531 0.7607 0.5383
H68 H 0.0230 0.8361 0.6180
O20 O 0.4467(3) 0.6712(4) 0.1322(3)
N17 N 0.5440(6) 0.6918(7) 0.0886(7)
C65 C 0.4936(6) 0.7092(7) 0.1277(6)
C66 C 0.4952(6) 0.7731(6) 0.1609(7)
H69 H 0.5110 0.8067 0.1302
H70 H 0.5249 0.7708 0.1987
H71 H 0.4510 0.7846 0.1759
C67 C 0.6013(7) 0.7318(8) 0.0746(8)
H72 H 0.6190 0.7200 0.0314
H73 H 0.6348 0.7241 0.1083
H74 H 0.5889 0.7783 0.0747
C68 C 0.5422(8) 0.6298(7) 0.0602(8)
H75 H 0.5203 0.6324 0.0174
H76 H 0.5178 0.5997 0.0888
H77 H 0.5871 0.6135 0.0542
O21 O 0.3678(3) 0.5533(3) 0.1712(4)
N18 N 0.4114(7) 0.4560(6) 0.1918(7)
C69 C 0.3723(6) 0.5064(6) 0.2092(7)
C70 C 0.3391(7) 0.5048(6) 0.2731(6)
H78 H 0.3698 0.4890 0.3067
H79 H 0.3013 0.4751 0.2708
H80 H 0.3241 0.5490 0.2846
C71 C 0.4254(8) 0.3987(7) 0.2318(8)
H81 H 0.4686 0.3810 0.2200
H82 H 0.3917 0.3652 0.2241
H83 H 0.4253 0.4111 0.2783
C72 C 0.4398(8) 0.4578(8) 0.1298(7)
H84 H 0.4826 0.4797 0.1324
H85 H 0.4112 0.4822 0.0997
H86 H 0.4458 0.4129 0.1135
O22 O 0.3171(3) 0.7598(3) 0.1248(3)
O23 O 0.3752(3) 0.6829(3) 0.2598(3)
H44 H 0.9939 0.4549 0.3425
C44 C 0.9851(4) 0.5194(4) 0.4035(4)
O16 O 0.6829(3) 0.2598(3) 0.3752(3)
O17 O 0.6157(3) 0.2867(3) 0.4576(4)
N13 N 0.8522(4) 0.4898(3) 0.5062(3)
H59 H 0.8425 0.5061 0.5451
N14 N 0.9302(3) 0.4881(3) 0.4267(4)
C49 C 0.6672(4) 0.2937(4) 0.4263(4)
C50 C 0.7162(4) 0.3442(5) 0.4456(4)
C51 C 0.7761(4) 0.3497(5) 0.4147(4)
H60 H 0.7864 0.3200 0.3802
C52 C 0.8216(4) 0.3968(4) 0.4322(4)
H61 H 0.8623 0.4003 0.4097
C53 C 0.8063(4) 0.4393(4) 0.4841(4)
C54 C 0.7486(4) 0.4333(4) 0.5173(5)
H62 H 0.7393 0.4617 0.5531
C55 C 0.7038(5) 0.3862(5) 0.4992(4)
H63 H 0.6639 0.3820 0.5230
C56 C 0.9035(4) 0.5149(4) 0.4806(4)
O18 O 0.8752(3) 0.8171(3) 0.7402(3)
O19 O 0.9576(4) 0.8843(3) 0.7133(3)
N16 N 0.9267(4) 0.5698(3) 0.5119(3)
C57 C 0.9263(4) 0.8328(4) 0.7063(4)
C58 C 0.9456(4) 0.7838(4) 0.6558(5)
C59 C 0.9147(4) 0.7239(4) 0.6503(5)
H65 H 0.8802 0.7136 0.6800
C60 C 0.9322(4) 0.6784(4) 0.6032(4)
H66 H 0.9097 0.6377 0.5997
C61 C 0.9841(4) 0.6937(4) 0.5607(4)
C63 C 0.9992(4) 0.7962(5) 0.6138(5)
C64 C 0.9806(4) 0.5965(4) 0.4851(4)
Tm5 Tm 0.66170(2) 0.16170(2) 0.33830(2)
Tm6 Tm 0.83830(2) 0.83830(2) 0.83830(2)
N13_2 N 0.6478(4) 0.5102(3) 0.0062(3)
H59_2 H 0.6575 0.4939 0.0451
C54_2 C 0.7514(4) 0.5667(4) 0.0173(5)
H62_2 H 0.7607 0.5383 0.0531
H63_2 H 0.8361 0.6180 0.0230
O18_2 O 0.6248(3) 0.1829(3) 0.2402(3)
O19_2 O 0.5424(4) 0.1157(3) 0.2133(3)
N15_2 N 0.4938(3) 0.3522(4) 0.0102(3)
N16_2 N 0.5733(4) 0.4302(3) 0.0119(3)
C57_2 C 0.5737(4) 0.1672(4) 0.2063(4)
C58_2 C 0.5544(4) 0.2162(4) 0.1558(5)
C59_2 C 0.5853(4) 0.2761(4) 0.1503(5)
H65_2 H 0.6198 0.2864 0.1800
C60_2 C 0.5678(4) 0.3216(4) 0.1032(4)
H66_2 H 0.5903 0.3623 0.0997
C61_2 C 0.5159(4) 0.3063(4) 0.0607(4)
C62_2 C 0.4827(5) 0.2486(4) 0.0667(4)
H67_2 H 0.4469 0.2393 0.0383
C63_2 C 0.5008(4) 0.2038(5) 0.1138(5)
H68_2 H 0.4770 0.1639 0.1180
Tm4_2 Tm 0.16170(2) 0.33830(2) 0.66170(2)
O12_2 O 0.2598(3) 0.3752(3) 0.6829(3)
O13_2 O 0.2867(3) 0.4576(4) 0.6157(3)
O14_2 O 0.2366(5) 0.2634(5) 0.7366(5)
O15_2 O 0.1712(4) 0.3678(3) 0.5533(3)
N10_2 N 0.4898(3) 0.5062(3) 0.8522(4)
H44_2 H 0.5061 0.5451 0.8425
N11_2 N 0.4881(3) 0.4267(4) 0.9302(3)
N12 N 0.1918(7) 0.4114(7) 0.4560(6)
C37_2 C 0.2937(4) 0.4263(4) 0.6672(4)
C38_2 C 0.3442(5) 0.4456(4) 0.7162(4)
C39_2 C 0.3497(5) 0.4147(4) 0.7761(4)
H45_2 H 0.3200 0.3802 0.7864
C40_2 C 0.3968(4) 0.4322(4) 0.8216(4)
H46_2 H 0.4003 0.4097 0.8623
C41_2 C 0.4393(4) 0.4841(4) 0.8063(4)
C42_2 C 0.4333(4) 0.5173(5) 0.7486(4)
H47_2 H 0.4617 0.5531 0.7393
C43_2 C 0.3862(5) 0.4992(4) 0.7038(5)
H48_2 H 0.3820 0.5230 0.6639
C44_2 C 0.5149(4) 0.4806(4) 0.9035(4)
C45_2 C 0.2092(7) 0.3723(6) 0.5064(6)
C46_2 C 0.2731(6) 0.3391(7) 0.5048(6)
H49 H 0.3067 0.3698 0.4890
H50 H 0.2708 0.3013 0.4751
H51_2 H 0.2846 0.3241 0.5490
C47 C 0.2318(8) 0.4254(8) 0.3987(7)
H52 H 0.2200 0.4686 0.3810
H53 H 0.2241 0.3917 0.3652
H54 H 0.2783 0.4253 0.4111
C48 C 0.1298(7) 0.4398(8) 0.4578(8)
H55 H 0.1324 0.4826 0.4797
H56 H 0.0997 0.4112 0.4822
H57 H 0.1135 0.4458 0.4129
O16_2 O 0.8171(3) 0.7402(3) 0.8752(3)
O17_2 O 0.8843(3) 0.7133(3) 0.9576(4)
N14_2 N 0.5698(3) 0.5119(3) 0.9267(4)
C49_2 C 0.8328(4) 0.7063(4) 0.9263(4)
C50_2 C 0.7838(4) 0.6558(5) 0.9456(4)
C51_2 C 0.7239(4) 0.6503(5) 0.9147(4)
H60_2 H 0.7136 0.6800 0.8802
C52_2 C 0.6784(4) 0.6032(4) 0.9322(4)
H61_2 H 0.6377 0.5997 0.9097
C53_2 C 0.6937(4) 0.5607(4) 0.9841(4)
C55_2 C 0.7962(5) 0.6138(5) 0.9992(4)
C56_2 C 0.5965(4) 0.4851(4) 0.9806(4)
H64_2 H 0.4549 0.3425 0.9939
C64_2 C 0.5194(4) 0.4035(4) 0.9851(4)
O20_2 O 0.0533(3) 0.3288(4) 0.6322(3)
C65_2 C 0.0064(6) 0.2908(7) 0.6277(6)
C66_2 C 0.0048(6) 0.2269(6) 0.6609(7)
H71_2 H 0.0490 0.2154 0.6759
O21_2 O 0.1322(3) 0.4467(3) 0.6712(4)
N18_2 N 0.0886(7) 0.5440(6) 0.6918(7)
C69_2 C 0.1277(6) 0.4936(6) 0.7092(7)
C70_2 C 0.1609(7) 0.4952(6) 0.7731(6)
H78_2 H 0.1302 0.5110 0.8067
H79_2 H 0.1987 0.5249 0.7708
H80_2 H 0.1759 0.4510 0.7846
C71_2 C 0.0746(8) 0.6013(7) 0.7318(8)
H81_2 H 0.0314 0.6190 0.7200
H82_2 H 0.1083 0.6348 0.7241
H83_2 H 0.0747 0.5889 0.7783
C72_2 C 0.0602(8) 0.5422(8) 0.6298(7)
H84_2 H 0.0174 0.5203 0.6324
H85_2 H 0.0888 0.5178 0.5997
H86_2 H 0.0542 0.5871 0.6135
O22_2 O 0.1829(3) 0.2402(3) 0.6248(3)
O23_2 O 0.1248(3) 0.3171(3) 0.7598(3)
H59_3 H 0.1575 0.0061 0.9549
O19_3 O 0.0424(4) 0.3843(3) 0.7867(3)
N16_3 N 0.0733(4) 0.0698(3) 0.9881(3)
C57_3 C 0.0737(4) 0.3328(4) 0.7937(4)
C58_3 C 0.0544(4) 0.2838(4) 0.8442(5)
C59_3 C 0.0853(4) 0.2239(4) 0.8497(5)
H65_3 H 0.1198 0.2136 0.8200
C60_3 C 0.0678(4) 0.1784(4) 0.8968(4)
H66_3 H 0.0903 0.1377 0.9003
C61_3 C 0.0159(4) 0.1937(4) 0.9393(4)
C63_3 C 0.0008(4) 0.2962(5) 0.8862(5)
H44_3 H 0.0061 0.9549 0.1575
O17_3 O 0.3843(3) 0.7867(3) 0.0424(4)
N14_3 N 0.0698(3) 0.9881(3) 0.0733(4)
C49_3 C 0.3328(4) 0.7937(4) 0.0737(4)
C50_3 C 0.2838(4) 0.8442(5) 0.0544(4)
C51_3 C 0.2239(4) 0.8497(5) 0.0853(4)
H60_3 H 0.2136 0.8200 0.1198
C52_3 C 0.1784(4) 0.8968(4) 0.0678(4)
H61_3 H 0.1377 0.9003 0.0903
C53_3 C 0.1937(4) 0.9393(4) 0.0159(4)
C55_3 C 0.2962(5) 0.8862(5) 0.0008(4)
O12_3 O 0.7598(3) 0.1248(3) 0.3171(3)
O13_3 O 0.7867(3) 0.0424(4) 0.3843(3)
O14_3 O 0.7366(5) 0.2366(5) 0.2634(5)
O15_3 O 0.6712(4) 0.1322(3) 0.4467(3)
N11_3 N 0.9881(3) 0.0733(4) 0.0698(3)
N12_2 N 0.6918(7) 0.0886(7) 0.5440(6)
C37_3 C 0.7937(4) 0.0737(4) 0.3328(4)
C38_3 C 0.8442(5) 0.0544(4) 0.2838(4)
C39_3 C 0.8497(5) 0.0853(4) 0.2239(4)
H45_3 H 0.8200 0.1198 0.2136
C40_3 C 0.8968(4) 0.0678(4) 0.1784(4)
H46_3 H 0.9003 0.0903 0.1377
C41_3 C 0.9393(4) 0.0159(4) 0.1937(4)
C43_3 C 0.8862(5) 0.0008(4) 0.2962(5)
C45_3 C 0.7092(7) 0.1277(6) 0.4936(6)
C46_3 C 0.7731(6) 0.1609(7) 0.4952(6)
H49_2 H 0.8067 0.1302 0.5110
H50_2 H 0.7708 0.1987 0.5249
H51_3 H 0.7846 0.1759 0.4510
C47_2 C 0.7318(8) 0.0746(8) 0.6013(7)
H52_2 H 0.7200 0.0314 0.6190
H53_2 H 0.7241 0.1083 0.6348
H54_2 H 0.7783 0.0747 0.5889
C48_2 C 0.6298(7) 0.0602(8) 0.5422(8)
H55_2 H 0.6324 0.0174 0.5203
H56_2 H 0.5997 0.0888 0.5178
H57_2 H 0.6135 0.0542 0.5871
H64_3 H 0.9549 0.1575 0.0061
O20_3 O 0.5533(3) 0.1712(4) 0.3678(3)
N17_2 N 0.4560(6) 0.1918(7) 0.4114(7)
C65_3 C 0.5064(6) 0.2092(7) 0.3723(6)
C66_3 C 0.5048(6) 0.2731(6) 0.3391(7)
H69_2 H 0.4890 0.3067 0.3698
H70_2 H 0.4751 0.2708 0.3013
H71_3 H 0.5490 0.2846 0.3241
C67_2 C 0.3987(7) 0.2318(8) 0.4254(8)
H72_2 H 0.3810 0.2200 0.4686
H73_2 H 0.3652 0.2241 0.3917
H74_2 H 0.4111 0.2783 0.4253
C68_2 C 0.4578(8) 0.1298(7) 0.4398(8)
H75_2 H 0.4797 0.1324 0.4826
H76_2 H 0.4822 0.0997 0.4112
H77_2 H 0.4129 0.1135 0.4458
O21_3 O 0.6322(3) 0.0533(3) 0.3288(4)
C69_3 C 0.6277(6) 0.0064(6) 0.2908(7)
C70_3 C 0.6609(7) 0.0048(6) 0.2269(6)
H80_3 H 0.6759 0.0490 0.2154
N17_3 N 0.0440(6) 0.8082(7) 0.9114(7)
H69_3 H 0.0110 0.6933 0.8698
H70_3 H 0.0249 0.7292 0.8013
C67_3 C 0.1013(7) 0.7682(8) 0.9254(8)
H72_3 H 0.1190 0.7800 0.9686
H73_3 H 0.1348 0.7759 0.8917
H74_3 H 0.0889 0.7217 0.9253
C68_3 C 0.0422(8) 0.8702(7) 0.9398(8)
H75_3 H 0.0203 0.8676 0.9826
H76_3 H 0.0178 0.9003 0.9112
H77_3 H 0.0871 0.8865 0.9458
N10_3 N 0.5102(3) 0.0062(3) 0.6478(4)
H44_4 H 0.4939 0.0451 0.6575
C42_3 C 0.5667(4) 0.0173(5) 0.7514(4)
H47_3 H 0.5383 0.0531 0.7607
H48_3 H 0.6180 0.0230 0.8361
O17_4 O 0.1157(3) 0.2133(3) 0.5424(4)
N13_3 N 0.3522(4) 0.0102(3) 0.4938(3)
N14_4 N 0.4302(3) 0.0119(3) 0.5733(4)
C49_4 C 0.1672(4) 0.2063(4) 0.5737(4)
C50_4 C 0.2162(4) 0.1558(5) 0.5544(4)
C51_4 C 0.2761(4) 0.1503(5) 0.5853(4)
H60_4 H 0.2864 0.1800 0.6198
C52_4 C 0.3216(4) 0.1032(4) 0.5678(4)
H61_4 H 0.3623 0.0997 0.5903
C53_4 C 0.3063(4) 0.0607(4) 0.5159(4)
C54_3 C 0.2486(4) 0.0667(4) 0.4827(5)
H62_3 H 0.2393 0.0383 0.4469
C55_4 C 0.2038(5) 0.1138(5) 0.5008(4)
H63_3 H 0.1639 0.1180 0.4770
N18_3 N 0.9114(7) 0.0440(6) 0.8082(7)
H78_3 H 0.8698 0.0110 0.6933
H79_3 H 0.8013 0.0249 0.7292
C71_3 C 0.9254(8) 0.1013(7) 0.7682(8)
H81_3 H 0.9686 0.1190 0.7800
H82_3 H 0.8917 0.1348 0.7759
H83_3 H 0.9253 0.0889 0.7217
C72_3 C 0.9398(8) 0.0422(8) 0.8702(7)
H84_3 H 0.9826 0.0203 0.8676
H85_3 H 0.9112 0.0178 0.9003
H86_3 H 0.9458 0.0871 0.8865
N12_3 N 0.8082(7) 0.9114(7) 0.0440(6)
H49_3 H 0.6933 0.8698 0.0110
H50_3 H 0.7292 0.8013 0.0249
C47_3 C 0.7682(8) 0.9254(8) 0.1013(7)
H52_3 H 0.7800 0.9686 0.1190
H53_3 H 0.7759 0.8917 0.1348
H54_3 H 0.7217 0.9253 0.0889
C48_3 C 0.8702(7) 0.9398(8) 0.0422(8)
H55_3 H 0.8676 0.9826 0.0203
H56_3 H 0.9003 0.9112 0.0178
H57_3 H 0.8865 0.9458 0.0871
O12_4 O 0.7402(3) 0.8752(3) 0.8171(3)
O13_4 O 0.7133(3) 0.9576(4) 0.8843(3)
O14_4 O 0.7634(5) 0.7634(5) 0.7634(5)
O15_4 O 0.8288(4) 0.8678(3) 0.9467(3)
N11_4 N 0.5119(3) 0.9267(4) 0.5698(3)
C37_4 C 0.7063(4) 0.9263(4) 0.8328(4)
C38_4 C 0.6558(5) 0.9456(4) 0.7838(4)
C39_4 C 0.6503(5) 0.9147(4) 0.7239(4)
H45_4 H 0.6800 0.8802 0.7136
C40_4 C 0.6032(4) 0.9322(4) 0.6784(4)
H46_4 H 0.5997 0.9097 0.6377
C41_4 C 0.5607(4) 0.9841(4) 0.6937(4)
C43_4 C 0.6138(5) 0.9992(4) 0.7962(5)
C44_3 C 0.4851(4) 0.9806(4) 0.5965(4)
C45_4 C 0.7908(7) 0.8723(6) 0.9936(6)
C46_4 C 0.7269(6) 0.8391(7) 0.9952(6)
H51_4 H 0.7154 0.8241 0.9510
H59_4 H 0.3425 0.9939 0.4549
C56_3 C 0.4035(4) 0.9851(4) 0.5194(4)
O19_4 O 0.4576(4) 0.6157(3) 0.2867(3)
N15_3 N 0.5062(3) 0.8522(4) 0.4898(3)
H64_4 H 0.5451 0.8425 0.5061
N16_4 N 0.4267(4) 0.9302(3) 0.4881(3)
C57_4 C 0.4263(4) 0.6672(4) 0.2937(4)
C58_4 C 0.4456(4) 0.7162(4) 0.3442(5)
C59_4 C 0.4147(4) 0.7761(4) 0.3497(5)
H65_4 H 0.3802 0.7864 0.3200
C60_4 C 0.4322(4) 0.8216(4) 0.3968(4)
H66_4 H 0.4097 0.8623 0.4003
C61_4 C 0.4841(4) 0.8063(4) 0.4393(4)
C62_3 C 0.5173(5) 0.7486(4) 0.4333(4)
H67_3 H 0.5531 0.7393 0.4617
C63_4 C 0.4992(4) 0.7038(5) 0.3862(5)
H68_3 H 0.5230 0.6639 0.3820
C64_3 C 0.4806(4) 0.9035(4) 0.5149(4)
O20_4 O 0.9467(3) 0.8288(4) 0.8678(3)
C65_4 C 0.9936(6) 0.7908(7) 0.8723(6)
C66_4 C 0.9952(6) 0.7269(6) 0.8391(7)
H71_4 H 0.9510 0.7154 0.8241
O21_4 O 0.8678(3) 0.9467(3) 0.8288(4)
C69_4 C 0.8723(6) 0.9936(6) 0.7908(7)
C70_4 C 0.8391(7) 0.9952(6) 0.7269(6)
H80_4 H 0.8241 0.9510 0.7154
N12_4 N 0.3082(7) 0.5886(7) 0.9560(6)
H49_4 H 0.1933 0.6302 0.9890
H50_4 H 0.2292 0.6987 0.9751
C47_4 C 0.2682(8) 0.5746(8) 0.8987(7)
H52_4 H 0.2800 0.5314 0.8810
H53_4 H 0.2759 0.6083 0.8652
H54_4 H 0.2217 0.5747 0.9111
C48_4 C 0.3702(7) 0.5602(8) 0.9578(8)
H55_4 H 0.3676 0.5174 0.9797
H56_4 H 0.4003 0.5888 0.9822
H57_4 H 0.3865 0.5542 0.9129
N13_4 N 0.1478(4) 0.9898(3) 0.9938(3)
C54_4 C 0.2514(4) 0.9333(4) 0.9827(5)
H62_4 H 0.2607 0.9617 0.9469
H63_4 H 0.3361 0.8820 0.9770
N17_4 N 0.9560(6) 0.3082(7) 0.5886(7)
H69_4 H 0.9890 0.1933 0.6302
H70_4 H 0.9751 0.2292 0.6987
C67_4 C 0.8987(7) 0.2682(8) 0.5746(8)
H72_4 H 0.8810 0.2800 0.5314
H73_4 H 0.8652 0.2759 0.6083
H74_4 H 0.9111 0.2217 0.5747
C68_4 C 0.9578(8) 0.3702(7) 0.5602(8)
H75_4 H 0.9797 0.3676 0.5174
H76_4 H 0.9822 0.4003 0.5888
H77_4 H 0.9129 0.3865 0.5542
N15_4 N 0.9938(3) 0.1478(4) 0.9898(3)
C62_4 C 0.9827(5) 0.2514(4) 0.9333(4)
H67_4 H 0.9469 0.2607 0.9617
H68_4 H 0.9770 0.3361 0.8820
C44_4 C 0.0149(4) 0.0194(4) 0.0965(4)
C56_4 C 0.0965(4) 0.0149(4) 0.0194(4)
C64_4 C 0.0194(4) 0.0965(4) 0.0149(4)
N10_4 N 0.9898(3) 0.9938(3) 0.1478(4)
C42_4 C 0.9333(4) 0.9827(5) 0.2514(4)
H47_4 H 0.9617 0.9469 0.2607
H48_4 H 0.8820 0.9770 0.3361
N18_4 N 0.5886(7) 0.9560(6) 0.3082(7)
H78_4 H 0.6302 0.9890 0.1933
H79_4 H 0.6987 0.9751 0.2292
C71_4 C 0.5746(8) 0.8987(7) 0.2682(8)
H81_4 H 0.5314 0.8810 0.2800
H82_4 H 0.6083 0.8652 0.2759
H83_4 H 0.5747 0.9111 0.2217
C72_4 C 0.5602(8) 0.9578(8) 0.3702(7)
H84_4 H 0.5174 0.9797 0.3676
H85_4 H 0.5888 0.9822 0.4003
H86_4 H 0.5542 0.9129 0.3865
loop_
_geom_bond_atom_site_label_1
_geom_bond_atom_site_label_2
_geom_bond_site_symmetry_1
_geom_bond_site_symmetry_2
C35 N9 1_555 1_555
H38 C35 1_555 1_555
H39 C35 1_555 1_555
C36 N9 1_555 1_555
H40 C36 1_555 1_555
H41 C36 1_555 1_555
H42 C36 1_555 1_555
Tm1 O1 1_555 1_555
O1 C1 1_555 1_555
O2 C1 1_555 1_555
O3 Tm1 1_555 1_555
N3 C9 1_555 1_555
C1 C2 1_555 1_555
C2 C3 1_555 1_555
C6 C5 1_555 1_555
H4 C6 1_555 1_555
C7 C2 1_555 1_555
H5 C7 1_555 1_555
C9 O3 1_555 1_555
C10 C9 1_555 1_555
H6 C10 1_555 1_555
H7 C10 1_555 1_555
H8 C10 1_555 1_555
C11 N3 1_555 1_555
H9 C11 1_555 1_555
H10 C11 1_555 1_555
H11 C11 1_555 1_555
C12 N3 1_555 1_555
H12 C12 1_555 1_555
H13 C12 1_555 1_555
H14 C12 1_555 1_555
N6 H20 1_555 1_555
H22 C24 1_555 1_555
O8 Tm1 1_555 1_555
C29 O8 1_555 1_555
C30 C29 1_555 1_555
H25 C30 1_555 1_555
H27 C30 1_555 1_555
O9 Tm1 1_555 1_555
C33 O9 1_555 1_555
C34 C33 1_555 1_555
H34 C34 1_555 1_555
H36 C34 1_555 1_555
O10 Tm1 1_555 1_555
O11 Tm1 1_555 1_555
C6 C7 1_555 1_555
N5 C20 1_555 1_555
O6 C21 1_555 1_555
O7 C21 1_555 1_555
C21 C22 1_555 1_555
C22 C23 1_555 1_555
C26 C25 1_555 1_555
H23 C26 1_555 1_555
C27 C22 1_555 1_555
H24 C27 1_555 1_555
C28 N5 1_555 1_555
Tm2 O6 1_555 1_555
C26 C27 1_555 1_555
C11_2 N3_2 1_555 1_555
H10_2 C11_2 1_555 1_555
H11_2 C11_2 1_555 1_555
C12_2 N3_2 1_555 1_555
H12_2 C12_2 1_555 1_555
H13_2 C12_2 1_555 1_555
H14_2 C12_2 1_555 1_555
Tm2 O1_2 1_555 1_555
O1_2 C1_2 1_555 1_555
O2_2 C1_2 1_555 1_555
O3_2 Tm2 1_555 1_555
N1 H1 1_555 1_555
N2 C8_2 1_555 1_555
C1_2 C2_2 1_555 1_555
C2_2 C3_2 1_555 1_555
C3_2 H2 1_555 1_555
C4 C3_2 1_555 1_555
H3 C4 1_555 1_555
C5_2 N1 1_555 1_555
C6_2 C5_2 1_555 1_555
H4_2 C6_2 1_555 1_555
C7_2 C2_2 1_555 1_555
H5_2 C7_2 1_555 1_555
C8_2 N1 1_555 1_555
C9_2 O3_2 1_555 1_555
C10_2 C9_2 1_555 1_555
H6_2 C10_2 1_555 1_555
H8_2 C10_2 1_555 1_555
O4 C13 1_555 1_555
O5 C13 1_555 1_555
N4 H15_2 1_555 1_555
N5_2 C20_2 1_555 1_555
C13 C14 1_555 1_555
C14 C15 1_555 1_555
C15 H16 1_555 1_555
C16 C15 1_555 1_555
H17 C16 1_555 1_555
C17 N4 1_555 1_555
C18 C17 1_555 1_555
H18 C18 1_555 1_555
C19 C14 1_555 1_555
H19 C19 1_555 1_555
C20_2 N2 1_555 1_555
O11 C21_2 1_555 1_555
O7_2 C21_2 1_555 1_555
N6_2 H20_2 1_555 1_555
N7_2 C8_2 1_555 1_555
C21_2 C22_2 1_555 1_555
C22_2 C23_2 1_555 1_555
C23_2 H21_2 1_555 1_555
C24_2 C23_2 1_555 1_555
H22_2 C24_2 1_555 1_555
C25_2 N6_2 1_555 1_555
C26_2 C25_2 1_555 1_555
H23_2 C26_2 1_555 1_555
C27_2 C22_2 1_555 1_555
H24_2 C27_2 1_555 1_555
C28_2 N5_2 1_555 1_555
O8_2 Tm2 1_555 1_555
N8 C29_2 1_555 1_555
C29_2 O8_2 1_555 1_555
C30_2 C29_2 1_555 1_555
H25_2 C30_2 1_555 1_555
H26 C30_2 1_555 1_555
H27_2 C30_2 1_555 1_555
C31 N8 1_555 1_555
H28_2 C31 1_555 1_555
H29 C31 1_555 1_555
H30 C31 1_555 1_555
C32 N8 1_555 1_555
H31 C32 1_555 1_555
H32 C32 1_555 1_555
H33 C32 1_555 1_555
O9_2 Tm2 1_555 1_555
C33_2 O9_2 1_555 1_555
C34_2 C33_2 1_555 1_555
H34_2 C34_2 1_555 1_555
H36_2 C34_2 1_555 1_555
Tm3 O4 1_555 1_555
O10_2 Tm2 1_555 1_555
C4 C5_2 1_555 1_555
C6_2 C7_2 1_555 1_555
N4 C20_2 1_555 1_555
C16 C17 1_555 1_555
C18 C19 1_555 1_555
N6_2 C28_2 1_555 1_555
N7_2 C28_2 1_555 1_555
C24_2 C25_2 1_555 1_555
C26_2 C27_2 1_555 1_555
N1_2 H1_2 1_555 1_555
H3_2 C4_2 1_555 1_555
O10_2 C13_2 1_555 1_555
O5_2 C13_2 1_555 1_555
C13_2 C14_2 1_555 1_555
C14_2 C15_2 1_555 1_555
C18_2 C17_2 1_555 1_555
H18_2 C18_2 1_555 1_555
C19_2 C14_2 1_555 1_555
H19_2 C19_2 1_555 1_555
C31_2 N8_2 1_555 1_555
H29_2 C31_2 1_555 1_555
H30_2 C31_2 1_555 1_555
C32_2 N8_2 1_555 1_555
H31_2 C32_2 1_555 1_555
H32_2 C32_2 1_555 1_555
H33_2 C32_2 1_555 1_555
C18_2 C19_2 1_555 1_555
Tm3 O1_3 1_555 1_555
O1_3 C1_3 1_555 1_555
O2_3 C1_3 1_555 1_555
O3_3 Tm3 1_555 1_555
C1_3 C2_3 1_555 1_555
C2_3 C3_3 1_555 1_555
C6_3 C5_3 1_555 1_555
H4_3 C6_3 1_555 1_555
C7_3 C2_3 1_555 1_555
H5_3 C7_3 1_555 1_555
C9_3 O3_3 1_555 1_555
C10_3 C9_3 1_555 1_555
H6_3 C10_3 1_555 1_555
H8_3 C10_3 1_555 1_555
N7_3 C8_3 1_555 1_555
O8_3 Tm3 1_555 1_555
C29_3 O8_3 1_555 1_555
C30_3 C29_3 1_555 1_555
H25_3 C30_3 1_555 1_555
H27_3 C30_3 1_555 1_555
O9_3 Tm3 1_555 1_555
N9_2 C33_3 1_555 1_555
C33_3 O9_3 1_555 1_555
C34_3 C33_3 1_555 1_555
H34_3 C34_3 1_555 1_555
H35_2 C34_3 1_555 1_555
H36_3 C34_3 1_555 1_555
C35_2 N9_2 1_555 1_555
H37_3 C35_2 1_555 1_555
H38_2 C35_2 1_555 1_555
H39_2 C35_2 1_555 1_555
C36_2 N9_2 1_555 1_555
H40_2 C36_2 1_555 1_555
H41_2 C36_2 1_555 1_555
H42_2 C36_2 1_555 1_555
O11_2 Tm3 1_555 1_555
C6_3 C7_3 1_555 1_555
N7_3 C28_3 1_555 1_555
N4_2 H15_3 1_555 1_555
H17_2 C16_2 1_555 1_555
O11_2 C21_3 1_555 1_555
O7_3 C21_3 1_555 1_555
C21_3 C22_3 1_555 1_555
C22_3 C23_3 1_555 1_555
C26_3 C25_3 1_555 1_555
H23_3 C26_3 1_555 1_555
C27_3 C22_3 1_555 1_555
H24_3 C27_3 1_555 1_555
C26_3 C27_3 1_555 1_555
N2_3 C8_4 1_555 1_555
O10 C13_3 1_555 1_555
O5_3 C13_3 1_555 1_555
C13_3 C14_3 1_555 1_555
C14_3 C15_3 1_555 1_555
C18_3 C17_3 1_555 1_555
H18_3 C18_3 1_555 1_555
C19_3 C14_3 1_555 1_555
H19_3 C19_3 1_555 1_555
C20_4 N2_3 1_555 1_555
C18_3 C19_3 1_555 1_555
H3_3 C4_3 1_555 1_555
C31_3 N8_3 1_555 1_555
H29_3 C31_3 1_555 1_555
H30_3 C31_3 1_555 1_555
C32_3 N8_3 1_555 1_555
H31_3 C32_3 1_555 1_555
H32_3 C32_3 1_555 1_555
H33_3 C32_3 1_555 1_555
O4_2 C13_4 1_555 1_555
O5_4 C13_4 1_555 1_555
C13_4 C14_4 1_555 1_555
C14_4 C15_4 1_555 1_555
C15_4 H16_3 1_555 1_555
C16_3 C15_4 1_555 1_555
H17_3 C16_3 1_555 1_555
C17_4 N4_3 1_555 1_555
C18_4 C17_4 1_555 1_555
H18_4 C18_4 1_555 1_555
C19_4 C14_4 1_555 1_555
H19_4 C19_4 1_555 1_555
Tm3_2 O4_2 1_555 1_555
C16_3 C17_4 1_555 1_555
C18_4 C19_4 1_555 1_555
O6_2 C21_4 1_555 1_555
O7_4 C21_4 1_555 1_555
C21_4 C22_4 1_555 1_555
C22_4 C23_4 1_555 1_555
C23_4 H21_3 1_555 1_555
C24_3 C23_4 1_555 1_555
H22_3 C24_3 1_555 1_555
C25_4 N6_3 1_555 1_555
C26_4 C25_4 1_555 1_555
H23_4 C26_4 1_555 1_555
C27_4 C22_4 1_555 1_555
H24_4 C27_4 1_555 1_555
Tm3_2 O6_2 1_555 1_555
C24_3 C25_4 1_555 1_555
C26_4 C27_4 1_555 1_555
Tm3_2 O1_4 1_555 1_555
O1_4 C1_4 1_555 1_555
O2_4 C1_4 1_555 1_555
O3_4 Tm3_2 1_555 1_555
N3_3 C9_4 1_555 1_555
C1_4 C2_4 1_555 1_555
C2_4 C3_4 1_555 1_555
C3_4 H2_4 1_555 1_555
C4_4 C3_4 1_555 1_555
H3_4 C4_4 1_555 1_555
C5_4 N1_4 1_555 1_555
C6_4 C5_4 1_555 1_555
H4_4 C6_4 1_555 1_555
C7_4 C2_4 1_555 1_555
H5_4 C7_4 1_555 1_555
C9_4 O3_4 1_555 1_555
C10_4 C9_4 1_555 1_555
H6_4 C10_4 1_555 1_555
H7_3 C10_4 1_555 1_555
H8_4 C10_4 1_555 1_555
C11_3 N3_3 1_555 1_555
H9_4 C11_3 1_555 1_555
H10_3 C11_3 1_555 1_555
H11_3 C11_3 1_555 1_555
C12_3 N3_3 1_555 1_555
H12_3 C12_3 1_555 1_555
H13_3 C12_3 1_555 1_555
H14_3 C12_3 1_555 1_555
O8_4 Tm3_2 1_555 1_555
N8_4 C29_4 1_555 1_555
C29_4 O8_4 1_555 1_555
C30_4 C29_4 1_555 1_555
H25_4 C30_4 1_555 1_555
H26_4 C30_4 1_555 1_555
H27_4 C30_4 1_555 1_555
C31_4 N8_4 1_555 1_555
H28_4 C31_4 1_555 1_555
H29_4 C31_4 1_555 1_555
H30_4 C31_4 1_555 1_555
C32_4 N8_4 1_555 1_555
H31_4 C32_4 1_555 1_555
H32_4 C32_4 1_555 1_555
H33_4 C32_4 1_555 1_555
O9_4 Tm3_2 1_555 1_555
N9_3 C33_4 1_555 1_555
C33_4 O9_4 1_555 1_555
C34_4 C33_4 1_555 1_555
H34_4 C34_4 1_555 1_555
H35_3 C34_4 1_555 1_555
H36_4 C34_4 1_555 1_555
C35_3 N9_3 1_555 1_555
H37_4 C35_3 1_555 1_555
H38_3 C35_3 1_555 1_555
H39_3 C35_3 1_555 1_555
C36_3 N9_3 1_555 1_555
H40_3 C36_3 1_555 1_555
H41_3 C36_3 1_555 1_555
H42_3 C36_3 1_555 1_555
C4_4 C5_4 1_555 1_555
C6_4 C7_4 1_555 1_555
C35_4 N9_4 1_555 1_555
H38_4 C35_4 1_555 1_555
H39_4 C35_4 1_555 1_555
C36_4 N9_4 1_555 1_555
H40_4 C36_4 1_555 1_555
H41_4 C36_4 1_555 1_555
H42_4 C36_4 1_555 1_555
H17_4 C16_4 1_555 1_555
C11_4 N3_4 1_555 1_555
H10_4 C11_4 1_555 1_555
H11_4 C11_4 1_555 1_555
C12_4 N3_4 1_555 1_555
H12_4 C12_4 1_555 1_555
H13_4 C12_4 1_555 1_555
H14_4 C12_4 1_555 1_555
H22_4 C24_4 1_555 1_555
Tm4 O12 1_555 1_555
O12 C37 1_555 1_555
O13 C37 1_555 1_555
O14 Tm4 1_555 1_555
O15 Tm4 1_555 1_555
C37 C38 1_555 1_555
C38 C39 1_555 1_555
C39 H45 1_555 1_555
C40 C39 1_555 1_555
H46 C40 1_555 1_555
C41 N10 1_555 1_555
C42 C41 1_555 1_555
H47 C42 1_555 1_555
C43 C38 1_555 1_555
H48 C43 1_555 1_555
C45 O15 1_555 1_555
C46 C45 1_555 1_555
H51 C46 1_555 1_555
N15 H64 1_555 1_555
H67 C62 1_555 1_555
O20 Tm4 1_555 1_555
N17 C65 1_555 1_555
C65 O20 1_555 1_555
C66 C65 1_555 1_555
H69 C66 1_555 1_555
H70 C66 1_555 1_555
H71 C66 1_555 1_555
C67 N17 1_555 1_555
H72 C67 1_555 1_555
H73 C67 1_555 1_555
H74 C67 1_555 1_555
C68 N17 1_555 1_555
H75 C68 1_555 1_555
H76 C68 1_555 1_555
H77 C68 1_555 1_555
O21 Tm4 1_555 1_555
N18 C69 1_555 1_555
C69 O21 1_555 1_555
C70 C69 1_555 1_555
H78 C70 1_555 1_555
H79 C70 1_555 1_555
H80 C70 1_555 1_555
C71 N18 1_555 1_555
H81 C71 1_555 1_555
H82 C71 1_555 1_555
H83 C71 1_555 1_555
C72 N18 1_555 1_555
H84 C72 1_555 1_555
H85 C72 1_555 1_555
H86 C72 1_555 1_555
O22 Tm4 1_555 1_555
O23 Tm4 1_555 1_555
C40 C41 1_555 1_555
C42 C43 1_555 1_555
O16 C49 1_555 1_555
O17 C49 1_555 1_555
N13 H59 1_555 1_555
N14 C44 1_555 1_555
C49 C50 1_555 1_555
C50 C51 1_555 1_555
C51 H60 1_555 1_555
C52 C51 1_555 1_555
H61 C52 1_555 1_555
C53 N13 1_555 1_555
C54 C53 1_555 1_555
H62 C54 1_555 1_555
C55 C50 1_555 1_555
H63 C55 1_555 1_555
C56 N13 1_555 1_555
O18 C57 1_555 1_555
O19 C57 1_555 1_555
N16 C56 1_555 1_555
C57 C58 1_555 1_555
C58 C59 1_555 1_555
C59 H65 1_555 1_555
C60 C59 1_555 1_555
H66 C60 1_555 1_555
C63 C58 1_555 1_555
Tm5 O16 1_555 1_555
Tm6 O18 1_555 1_555
N14 C56 1_555 1_555
C52 C53 1_555 1_555
C54 C55 1_555 1_555
N16 C64 1_555 1_555
C60 C61 1_555 1_555
N13_2 H59_2 1_555 1_555
H62_2 C54_2 1_555 1_555
O18_2 C57_2 1_555 1_555
O19_2 C57_2 1_555 1_555
C57_2 C58_2 1_555 1_555
C58_2 C59_2 1_555 1_555
C59_2 H65_2 1_555 1_555
C60_2 C59_2 1_555 1_555
H66_2 C60_2 1_555 1_555
C61_2 N15_2 1_555 1_555
C62_2 C61_2 1_555 1_555
H67_2 C62_2 1_555 1_555
C63_2 C58_2 1_555 1_555
H68_2 C63_2 1_555 1_555
Tm5 O18_2 1_555 1_555
C60_2 C61_2 1_555 1_555
C62_2 C63_2 1_555 1_555
Tm4_2 O12_2 1_555 1_555
O12_2 C37_2 1_555 1_555
O13_2 C37_2 1_555 1_555
O14_2 Tm4_2 1_555 1_555
O15_2 Tm4_2 1_555 1_555
N10_2 H44_2 1_555 1_555
N11_2 C44_2 1_555 1_555
N12 C45_2 1_555 1_555
C37_2 C38_2 1_555 1_555
C38_2 C39_2 1_555 1_555
C39_2 H45_2 1_555 1_555
C40_2 C39_2 1_555 1_555
H46_2 C40_2 1_555 1_555
C41_2 N10_2 1_555 1_555
C42_2 C41_2 1_555 1_555
H47_2 C42_2 1_555 1_555
C43_2 C38_2 1_555 1_555
H48_2 C43_2 1_555 1_555
C44_2 N10_2 1_555 1_555
C45_2 O15_2 1_555 1_555
C46_2 C45_2 1_555 1_555
H49 C46_2 1_555 1_555
H50 C46_2 1_555 1_555
H51_2 C46_2 1_555 1_555
C47 N12 1_555 1_555
H52 C47 1_555 1_555
H53 C47 1_555 1_555
H54 C47 1_555 1_555
C48 N12 1_555 1_555
H55 C48 1_555 1_555
H56 C48 1_555 1_555
H57 C48 1_555 1_555
O16_2 C49_2 1_555 1_555
O17_2 C49_2 1_555 1_555
N14_2 C44_2 1_555 1_555
C49_2 C50_2 1_555 1_555
C50_2 C51_2 1_555 1_555
C51_2 H60_2 1_555 1_555
C52_2 C51_2 1_555 1_555
H61_2 C52_2 1_555 1_555
C55_2 C50_2 1_555 1_555
C64_2 N11_2 1_555 1_555
O20_2 Tm4_2 1_555 1_555
C65_2 O20_2 1_555 1_555
C66_2 C65_2 1_555 1_555
H71_2 C66_2 1_555 1_555
O21_2 Tm4_2 1_555 1_555
N18_2 C69_2 1_555 1_555
C69_2 O21_2 1_555 1_555
C70_2 C69_2 1_555 1_555
H78_2 C70_2 1_555 1_555
H79_2 C70_2 1_555 1_555
H80_2 C70_2 1_555 1_555
C71_2 N18_2 1_555 1_555
H81_2 C71_2 1_555 1_555
H82_2 C71_2 1_555 1_555
H83_2 C71_2 1_555 1_555
C72_2 N18_2 1_555 1_555
H84_2 C72_2 1_555 1_555
H85_2 C72_2 1_555 1_555
H86_2 C72_2 1_555 1_555
Tm6 O16_2 1_555 1_555
O22_2 Tm4_2 1_555 1_555
O23_2 Tm4_2 1_555 1_555
C40_2 C41_2 1_555 1_555
C42_2 C43_2 1_555 1_555
N14_2 C56_2 1_555 1_555
C52_2 C53_2 1_555 1_555
O23_2 C57_3 1_555 1_555
O19_3 C57_3 1_555 1_555
C57_3 C58_3 1_555 1_555
C58_3 C59_3 1_555 1_555
C59_3 H65_3 1_555 1_555
C60_3 C59_3 1_555 1_555
H66_3 C60_3 1_555 1_555
C63_3 C58_3 1_555 1_555
C60_3 C61_3 1_555 1_555
O22 C49_3 1_555 1_555
O17_3 C49_3 1_555 1_555
C49_3 C50_3 1_555 1_555
C50_3 C51_3 1_555 1_555
C51_3 H60_3 1_555 1_555
C52_3 C51_3 1_555 1_555
H61_3 C52_3 1_555 1_555
C55_3 C50_3 1_555 1_555
C52_3 C53_3 1_555 1_555
Tm5 O12_3 1_555 1_555
O12_3 C37_3 1_555 1_555
O13_3 C37_3 1_555 1_555
O14_3 Tm5 1_555 1_555
O15_3 Tm5 1_555 1_555
N12_2 C45_3 1_555 1_555
C37_3 C38_3 1_555 1_555
C38_3 C39_3 1_555 1_555
C39_3 H45_3 1_555 1_555
C40_3 C39_3 1_555 1_555
H46_3 C40_3 1_555 1_555
C43_3 C38_3 1_555 1_555
C45_3 O15_3 1_555 1_555
C46_3 C45_3 1_555 1_555
H49_2 C46_3 1_555 1_555
H50_2 C46_3 1_555 1_555
H51_3 C46_3 1_555 1_555
C47_2 N12_2 1_555 1_555
H52_2 C47_2 1_555 1_555
H53_2 C47_2 1_555 1_555
H54_2 C47_2 1_555 1_555
C48_2 N12_2 1_555 1_555
H55_2 C48_2 1_555 1_555
H56_2 C48_2 1_555 1_555
H57_2 C48_2 1_555 1_555
O20_3 Tm5 1_555 1_555
N17_2 C65_3 1_555 1_555
C65_3 O20_3 1_555 1_555
C66_3 C65_3 1_555 1_555
H69_2 C66_3 1_555 1_555
H70_2 C66_3 1_555 1_555
H71_3 C66_3 1_555 1_555
C67_2 N17_2 1_555 1_555
H72_2 C67_2 1_555 1_555
H73_2 C67_2 1_555 1_555
H74_2 C67_2 1_555 1_555
C68_2 N17_2 1_555 1_555
H75_2 C68_2 1_555 1_555
H76_2 C68_2 1_555 1_555
H77_2 C68_2 1_555 1_555
O21_3 Tm5 1_555 1_555
C69_3 O21_3 1_555 1_555
C70_3 C69_3 1_555 1_555
H80_3 C70_3 1_555 1_555
C40_3 C41_3 1_555 1_555
C67_3 N17_3 1_555 1_555
H72_3 C67_3 1_555 1_555
H73_3 C67_3 1_555 1_555
H74_3 C67_3 1_555 1_555
C68_3 N17_3 1_555 1_555
H75_3 C68_3 1_555 1_555
H76_3 C68_3 1_555 1_555
H77_3 C68_3 1_555 1_555
N10_3 H44_4 1_555 1_555
H47_3 C42_3 1_555 1_555
O22_2 C49_4 1_555 1_555
O17_4 C49_4 1_555 1_555
C49_4 C50_4 1_555 1_555
C50_4 C51_4 1_555 1_555
C51_4 H60_4 1_555 1_555
C52_4 C51_4 1_555 1_555
H61_4 C52_4 1_555 1_555
C53_4 N13_3 1_555 1_555
C54_3 C53_4 1_555 1_555
H62_3 C54_3 1_555 1_555
C55_4 C50_4 1_555 1_555
H63_3 C55_4 1_555 1_555
C71_3 N18_3 1_555 1_555
H81_3 C71_3 1_555 1_555
H82_3 C71_3 1_555 1_555
H83_3 C71_3 1_555 1_555
C72_3 N18_3 1_555 1_555
H84_3 C72_3 1_555 1_555
H85_3 C72_3 1_555 1_555
H86_3 C72_3 1_555 1_555
C52_4 C53_4 1_555 1_555
C54_3 C55_4 1_555 1_555
C47_3 N12_3 1_555 1_555
H52_3 C47_3 1_555 1_555
H53_3 C47_3 1_555 1_555
H54_3 C47_3 1_555 1_555
C48_3 N12_3 1_555 1_555
H55_3 C48_3 1_555 1_555
H56_3 C48_3 1_555 1_555
H57_3 C48_3 1_555 1_555
Tm6 O12_4 1_555 1_555
O12_4 C37_4 1_555 1_555
O13_4 C37_4 1_555 1_555
O14_4 Tm6 1_555 1_555
O15_4 Tm6 1_555 1_555
N11_4 C44_3 1_555 1_555
C37_4 C38_4 1_555 1_555
C38_4 C39_4 1_555 1_555
C39_4 H45_4 1_555 1_555
C40_4 C39_4 1_555 1_555
H46_4 C40_4 1_555 1_555
C43_4 C38_4 1_555 1_555
C45_4 O15_4 1_555 1_555
C46_4 C45_4 1_555 1_555
H51_4 C46_4 1_555 1_555
O23 C57_4 1_555 1_555
O19_4 C57_4 1_555 1_555
N15_3 H64_4 1_555 1_555
N16_4 C56_3 1_555 1_555
C57_4 C58_4 1_555 1_555
C58_4 C59_4 1_555 1_555
C59_4 H65_4 1_555 1_555
C60_4 C59_4 1_555 1_555
H66_4 C60_4 1_555 1_555
C61_4 N15_3 1_555 1_555
C62_3 C61_4 1_555 1_555
H67_3 C62_3 1_555 1_555
C63_4 C58_4 1_555 1_555
H68_3 C63_4 1_555 1_555
C64_3 N11_4 1_555 1_555
O20_4 Tm6 1_555 1_555
C65_4 O20_4 1_555 1_555
C66_4 C65_4 1_555 1_555
H71_4 C66_4 1_555 1_555
O21_4 Tm6 1_555 1_555
C69_4 O21_4 1_555 1_555
C70_4 C69_4 1_555 1_555
H80_4 C70_4 1_555 1_555
C40_4 C41_4 1_555 1_555
N15_3 C64_3 1_555 1_555
N16_4 C64_3 1_555 1_555
C60_4 C61_4 1_555 1_555
C62_3 C63_4 1_555 1_555
C47_4 N12_4 1_555 1_555
H52_4 C47_4 1_555 1_555
H53_4 C47_4 1_555 1_555
H54_4 C47_4 1_555 1_555
C48_4 N12_4 1_555 1_555
H55_4 C48_4 1_555 1_555
H56_4 C48_4 1_555 1_555
H57_4 C48_4 1_555 1_555
H62_4 C54_4 1_555 1_555
C67_4 N17_4 1_555 1_555
H72_4 C67_4 1_555 1_555
H73_4 C67_4 1_555 1_555
H74_4 C67_4 1_555 1_555
C68_4 N17_4 1_555 1_555
H75_4 C68_4 1_555 1_555
H76_4 C68_4 1_555 1_555
H77_4 C68_4 1_555 1_555
H67_4 C62_4 1_555 1_555
H47_4 C42_4 1_555 1_555
C71_4 N18_4 1_555 1_555
H81_4 C71_4 1_555 1_555
H82_4 C71_4 1_555 1_555
H83_4 C71_4 1_555 1_555
C72_4 N18_4 1_555 1_555
H84_4 C72_4 1_555 1_555
H85_4 C72_4 1_555 1_555
H86_4 C72_4 1_555 1_555

#END
