
###############################################################################
#
# This file contains modified crystal structure data generated from the
# MOF subset of the Cambridge Structural Database (CSD) v543 
# hosted by the Cambridge Crystallographic Data Centre (CCDC).
#
# This work is licensed under the Creative Commons
# Attribution-NonCommercial-ShareAlike 4.0 International License.
# To view a copy of this license, visit
# http://creativecommons.org/licenses/by-nc-sa/4.0/
# or send a letter to
# Creative Commons, PO Box 1866, Mountain View, CA 94042, USA.
#
# CIF created using the CSD Python API on 29 September 2022
# The structure has been converted into the P1 space group
# The structure has a 3D framework
# The original CSD entry SOZHOG is in the monoclinic crystal system
# The framework has been calculated to contain at least 10.0% void space
# The void calculation uses a probe of radius 1.32A, grid spacing 0.4
#
###############################################################################

data_SOZHOG
_chemical_formula_moiety         '(C56 H32 N8 O20)n'
_symmetry_cell_setting           triclinic
_symmetry_space_group_name_H-M   'P 1'
_symmetry_Int_Tables_number      1
_space_group_name_Hall           'P 1'
loop_
_symmetry_equiv_pos_site_id
_symmetry_equiv_pos_as_xyz
1 x,y,z
_cell_length_a                   13.882(2)
_cell_length_b                   13.365(3)
_cell_length_c                   14.209(2)
_cell_angle_alpha                90
_cell_angle_beta                 112.046(2)
_cell_angle_gamma                90
_cell_volume                     2443.48
loop_
_atom_site_label
_atom_site_type_symbol
_atom_site_fract_x
_atom_site_fract_y
_atom_site_fract_z
C1 C 0.2249(3) 0.6953(3) 0.8848(3)
H1 H 0.2780 0.7417 0.9124
C2 C 0.1214(3) 0.7261(3) 0.8468(3)
H2 H 0.1048 0.7936 0.8461
C3 C 0.0447(3) 0.6560(3) 0.8106(3)
C4 C 0.0666(3) 0.5542(3) 0.8086(3)
H3 H 0.0134 0.5073 0.7847
C5 C 0.1695(3) 0.5252(3) 0.8431(3)
H4 H 0.1859 0.4580 0.8406
N1 N 0.2481(3) 0.5941(3) 0.8812(3)
Cu4 Cu 0.40033(4) 0.55314(4) 0.94897(4)
Cu5 Cu 0.59967(4) 0.05314(4) 0.55103(4)
Cu1 Cu 0.59967(4) 0.44686(4) 0.05103(4)
N3 N 0.7519(3) 0.4059(3) 0.1188(3)
O6 O 0.5344(2) 0.3972(2) 0.1492(2)
O8 O 0.6059(2) 0.5917(2) 0.1023(2)
C6 C 0.9344(3) 0.6953(3) 0.7746(3)
C7 C 0.7582(3) 0.6555(3) 0.7617(3)
C8 C 0.7075(3) 0.6067(3) 0.8147(3)
H5 H 0.7434 0.5603 0.8642
C9 C 0.6041(3) 0.6252(3) 0.7955(3)
C10 C 0.5513(3) 0.6969(3) 0.7222(3)
H6 H 0.4817 0.7100 0.7092
C11 C 0.6004(3) 0.7481(3) 0.6692(4)
C12 C 0.7061(3) 0.7279(3) 0.6880(3)
H7 H 0.7404 0.7615 0.6524
C13 C 0.5562(3) 0.5763(3) 0.8627(3)
C14 C 0.5519(3) 0.8330(3) 0.5979(3)
N2 N 0.8629(2) 0.6312(2) 0.7821(2)
H8 H 0.8825 0.5709 0.8007
O1 O 0.9180(2) 0.7833(2) 0.7475(2)
O2 O 0.6093(2) 0.5133(2) 0.9239(2)
O3 O 0.4656(2) 0.6028(2) 0.8508(2)
O4 O 0.4593(2) 0.8235(2) 0.5385(2)
O5 O 0.6059(2) 0.9083(2) 0.6023(2)
O7 O 0.5407(2) 0.3235(2) 0.9615(2)
Cu2 Cu 0.40033(4) 0.94686(4) 0.44897(4)
C6_2 C 0.0656(3) 0.1953(3) 0.7254(3)
C7_2 C 0.2418(3) 0.1555(3) 0.7383(3)
C8_2 C 0.2925(3) 0.1067(3) 0.6853(3)
H5_2 H 0.2566 0.0603 0.6358
C9_2 C 0.3959(3) 0.1252(3) 0.7045(3)
C10_2 C 0.4487(3) 0.1969(3) 0.7778(3)
H6_2 H 0.5183 0.2100 0.7908
C11_2 C 0.3996(3) 0.2481(3) 0.8308(4)
C12_2 C 0.2939(3) 0.2279(3) 0.8120(3)
H7_2 H 0.2596 0.2615 0.8476
C13_2 C 0.4438(3) 0.0763(3) 0.6373(3)
C14_2 C 0.4481(3) 0.3330(3) 0.9021(3)
N2_2 N 0.1371(2) 0.1312(2) 0.7179(2)
H8_2 H 0.1175 0.0709 0.6993
O1_2 O 0.0820(2) 0.2833(2) 0.7525(2)
O2_2 O 0.3907(2) 0.0133(2) 0.5761(2)
O3_2 O 0.5344(2) 0.1028(2) 0.6492(2)
O5_2 O 0.3941(2) 0.4083(2) 0.8977(2)
O8_2 O 0.3941(2) 0.0917(2) 0.3977(2)
N3_2 N 0.2481(3) 0.9059(3) 0.3812(3)
O6_2 O 0.4656(2) 0.8972(2) 0.3508(2)
C1_2 C 0.7751(3) 0.1953(3) 0.6152(3)
H1_2 H 0.7220 0.2417 0.5876
C2_2 C 0.8786(3) 0.2261(3) 0.6532(3)
H2_2 H 0.8952 0.2936 0.6539
C3_2 C 0.9553(3) 0.1560(3) 0.6894(3)
C4_2 C 0.9334(3) 0.0542(3) 0.6914(3)
H3_2 H 0.9866 0.0073 0.7153
C5_2 C 0.8305(3) 0.0252(3) 0.6569(3)
N1_2 N 0.7519(3) 0.0941(3) 0.6188(3)
C6_3 C 0.0656(3) 0.3047(3) 0.2254(3)
C7_3 C 0.2418(3) 0.3445(3) 0.2383(3)
C8_3 C 0.2925(3) 0.3933(3) 0.1853(3)
H5_3 H 0.2566 0.4397 0.1358
C9_3 C 0.3959(3) 0.3748(3) 0.2045(3)
C10_3 C 0.4487(3) 0.3031(3) 0.2778(3)
H6_3 H 0.5183 0.2900 0.2908
C11_3 C 0.3996(3) 0.2519(3) 0.3308(4)
C12_3 C 0.2939(3) 0.2721(3) 0.3120(3)
H7_3 H 0.2596 0.2385 0.3476
C13_3 C 0.4438(3) 0.4237(3) 0.1373(3)
C14_3 C 0.4481(3) 0.1670(3) 0.4021(3)
N2_3 N 0.1371(2) 0.3688(2) 0.2179(2)
H8_3 H 0.1175 0.4291 0.1993
O1_3 O 0.0820(2) 0.2167(2) 0.2525(2)
O2_3 O 0.3907(2) 0.4867(2) 0.0761(2)
O4_2 O 0.5407(2) 0.1765(2) 0.4615(2)
O7_2 O 0.4593(2) 0.6765(2) 0.0385(2)
C1_3 C 0.7751(3) 0.3047(3) 0.1152(3)
H1_3 H 0.7220 0.2583 0.0876
C2_3 C 0.8786(3) 0.2739(3) 0.1532(3)
H2_3 H 0.8952 0.2064 0.1539
C3_3 C 0.9553(3) 0.3440(3) 0.1894(3)
C4_3 C 0.9334(3) 0.4458(3) 0.1914(3)
H3_3 H 0.9866 0.4927 0.2153
C5_3 C 0.8305(3) 0.4748(3) 0.1569(3)
H4_2 H 0.8141 0.5420 0.1594
C1_4 C 0.2249(3) 0.8047(3) 0.3848(3)
H1_4 H 0.2780 0.7583 0.4124
C2_4 C 0.1214(3) 0.7739(3) 0.3468(3)
H2_4 H 0.1048 0.7064 0.3461
C3_4 C 0.0447(3) 0.8440(3) 0.3106(3)
C4_4 C 0.0666(3) 0.9458(3) 0.3086(3)
H3_4 H 0.0134 0.9927 0.2847
C5_4 C 0.1695(3) 0.9748(3) 0.3431(3)
C6_4 C 0.9344(3) 0.8047(3) 0.2746(3)
C7_4 C 0.7582(3) 0.8445(3) 0.2617(3)
C8_4 C 0.7075(3) 0.8933(3) 0.3147(3)
H5_4 H 0.7434 0.9397 0.3642
C9_4 C 0.6041(3) 0.8748(3) 0.2955(3)
C10_4 C 0.5513(3) 0.8031(3) 0.2222(3)
H6_4 H 0.4817 0.7900 0.2092
C11_4 C 0.6004(3) 0.7519(3) 0.1692(4)
C12_4 C 0.7061(3) 0.7721(3) 0.1880(3)
H7_4 H 0.7404 0.7385 0.1524
C13_4 C 0.5562(3) 0.9237(3) 0.3627(3)
C14_4 C 0.5519(3) 0.6670(3) 0.0979(3)
N2_4 N 0.8629(2) 0.8688(2) 0.2821(2)
H8_4 H 0.8825 0.9291 0.3007
O1_4 O 0.9180(2) 0.7167(2) 0.2475(2)
O2_4 O 0.6093(2) 0.9867(2) 0.4239(2)
H4_3 H 0.8141 0.9580 0.6594
H4_4 H 0.1859 0.0420 0.3406
loop_
_geom_bond_atom_site_label_1
_geom_bond_atom_site_label_2
_geom_bond_site_symmetry_1
_geom_bond_site_symmetry_2
C1 H1 1_555 1_555
C2 C1 1_555 1_555
H2 C2 1_555 1_555
C3 C2 1_555 1_555
C4 C3 1_555 1_555
H3 C4 1_555 1_555
C5 C4 1_555 1_555
H4 C5 1_555 1_555
N1 C1 1_555 1_555
Cu4 N1 1_555 1_555
C5 N1 1_555 1_555
N3 Cu1 1_555 1_555
O6 Cu1 1_555 1_555
O8 Cu1 1_555 1_555
C7 C8 1_555 1_555
C8 H5 1_555 1_555
C9 C8 1_555 1_555
C10 C9 1_555 1_555
H6 C10 1_555 1_555
C11 C10 1_555 1_555
C12 C7 1_555 1_555
H7 C12 1_555 1_555
C13 C9 1_555 1_555
C14 C11 1_555 1_555
N2 C6 1_555 1_555
H8 N2 1_555 1_555
O1 C6 1_555 1_555
O2 C13 1_555 1_555
O3 C13 1_555 1_555
O4 C14 1_555 1_555
O5 C14 1_555 1_555
Cu2 O4 1_555 1_555
Cu4 O3 1_555 1_555
C7 N2 1_555 1_555
C11 C12 1_555 1_555
C7_2 C8_2 1_555 1_555
C8_2 H5_2 1_555 1_555
C9_2 C8_2 1_555 1_555
C10_2 C9_2 1_555 1_555
H6_2 C10_2 1_555 1_555
C11_2 C10_2 1_555 1_555
C12_2 C7_2 1_555 1_555
H7_2 C12_2 1_555 1_555
C13_2 C9_2 1_555 1_555
C14_2 C11_2 1_555 1_555
N2_2 C6_2 1_555 1_555
H8_2 N2_2 1_555 1_555
O1_2 C6_2 1_555 1_555
O2_2 C13_2 1_555 1_555
O3_2 C13_2 1_555 1_555
O7 C14_2 1_555 1_555
O5_2 C14_2 1_555 1_555
Cu5 O3_2 1_555 1_555
Cu4 O5_2 1_555 1_555
C7_2 N2_2 1_555 1_555
C11_2 C12_2 1_555 1_555
N3_2 Cu2 1_555 1_555
O6_2 Cu2 1_555 1_555
C1_2 H1_2 1_555 1_555
C2_2 C1_2 1_555 1_555
H2_2 C2_2 1_555 1_555
C3_2 C2_2 1_555 1_555
C4_2 C3_2 1_555 1_555
H3_2 C4_2 1_555 1_555
C5_2 C4_2 1_555 1_555
N1_2 C1_2 1_555 1_555
Cu5 N1_2 1_555 1_555
C5_2 N1_2 1_555 1_555
C7_3 C8_3 1_555 1_555
C8_3 H5_3 1_555 1_555
C9_3 C8_3 1_555 1_555
C10_3 C9_3 1_555 1_555
H6_3 C10_3 1_555 1_555
C11_3 C10_3 1_555 1_555
C12_3 C7_3 1_555 1_555
H7_3 C12_3 1_555 1_555
C13_3 C9_3 1_555 1_555
C14_3 C11_3 1_555 1_555
N2_3 C6_3 1_555 1_555
H8_3 N2_3 1_555 1_555
O1_3 C6_3 1_555 1_555
O2_3 C13_3 1_555 1_555
O6 C13_3 1_555 1_555
O4_2 C14_3 1_555 1_555
O8_2 C14_3 1_555 1_555
Cu5 O4_2 1_555 1_555
C7_3 N2_3 1_555 1_555
C11_3 C12_3 1_555 1_555
C1_3 H1_3 1_555 1_555
C2_3 C1_3 1_555 1_555
H2_3 C2_3 1_555 1_555
C3_3 C2_3 1_555 1_555
C4_3 C3_3 1_555 1_555
H3_3 C4_3 1_555 1_555
C5_3 C4_3 1_555 1_555
H4_2 C5_3 1_555 1_555
N3 C1_3 1_555 1_555
C5_3 N3 1_555 1_555
C1_4 H1_4 1_555 1_555
C2_4 C1_4 1_555 1_555
H2_4 C2_4 1_555 1_555
C3_4 C2_4 1_555 1_555
C4_4 C3_4 1_555 1_555
H3_4 C4_4 1_555 1_555
C5_4 C4_4 1_555 1_555
N3_2 C1_4 1_555 1_555
C5_4 N3_2 1_555 1_555
C7_4 C8_4 1_555 1_555
C8_4 H5_4 1_555 1_555
C9_4 C8_4 1_555 1_555
C10_4 C9_4 1_555 1_555
H6_4 C10_4 1_555 1_555
C11_4 C10_4 1_555 1_555
C12_4 C7_4 1_555 1_555
H7_4 C12_4 1_555 1_555
C13_4 C9_4 1_555 1_555
C14_4 C11_4 1_555 1_555
N2_4 C6_4 1_555 1_555
H8_4 N2_4 1_555 1_555
O1_4 C6_4 1_555 1_555
O2_4 C13_4 1_555 1_555
O6_2 C13_4 1_555 1_555
O7_2 C14_4 1_555 1_555
O8 C14_4 1_555 1_555
C7_4 N2_4 1_555 1_555
C11_4 C12_4 1_555 1_555

#END
