
###############################################################################
#
# This file contains modified crystal structure data generated from the
# MOF subset of the Cambridge Structural Database (CSD) v543 
# hosted by the Cambridge Crystallographic Data Centre (CCDC).
#
# This work is licensed under the Creative Commons
# Attribution-NonCommercial-ShareAlike 4.0 International License.
# To view a copy of this license, visit
# http://creativecommons.org/licenses/by-nc-sa/4.0/
# or send a letter to
# Creative Commons, PO Box 1866, Mountain View, CA 94042, USA.
#
# CIF created using the CSD Python API on 29 September 2022
# The structure has been converted into the P1 space group
# The structure has a 3D framework
# The original CSD entry SOZRUW is in the cubic crystal system
# The original CSD entry SOZRUW is in a Sohncke space group
# The framework has been calculated to contain at least 10.0% void space
# The void calculation uses a probe of radius 1.32A, grid spacing 0.4
# Generated hydrogen atom positions removed from atoms on special positions
#
###############################################################################

data_SOZRUW
_chemical_formula_moiety         '(C288 H348 N72 O76 Sm8)n'
_symmetry_cell_setting           triclinic
_symmetry_space_group_name_H-M   'P 1'
_symmetry_Int_Tables_number      1
_space_group_name_Hall           'P 1'
loop_
_symmetry_equiv_pos_site_id
_symmetry_equiv_pos_as_xyz
1 x,y,z
_cell_length_a                   20.4926(12)
_cell_length_b                   20.4926(12)
_cell_length_c                   20.4926(12)
_cell_angle_alpha                90
_cell_angle_beta                 90
_cell_angle_gamma                90
_cell_volume                     8605.8
loop_
_atom_site_label
_atom_site_type_symbol
_atom_site_fract_x
_atom_site_fract_y
_atom_site_fract_z
N9 N 0.0845(4) 0.0482(4) 0.3060(4)
C33 C 0.1225(4) 0.0027(4) 0.2915(4)
C34 C 0.1569(5) 0.0061(6) 0.2275(4)
H35 H 0.1823 0.0465 0.2252
H36 H 0.1248 0.0053 0.1921
C35 C 0.0503(5) 0.0430(5) 0.3721(5)
H37 H 0.0659 0.0041 0.3951
H38 H 0.0030 0.0396 0.3654
H39 H 0.0599 0.0819 0.3982
C36 C 0.0675(6) 0.1063(5) 0.2648(7)
H40 H 0.0952 0.1433 0.2773
H41 H 0.0216 0.1178 0.2716
H42 H 0.0747 0.0959 0.2187
Sm1 Sm 0.153324(13) 0.846676(13) 0.346676(13)
O1 O 0.1338(3) 0.8081(3) 0.2438(2)
O2 O 0.0612(3) 0.8811(2) 0.2123(3)
O3 O 0.1676(3) 0.8668(3) 0.4574(2)
N3 N 0.1940(4) 0.9155(4) 0.5482(4)
C1 C 0.0873(3) 0.8270(3) 0.2074(3)
C2 C 0.0656(3) 0.7799(3) 0.1561(3)
C3 C 0.0146(3) 0.7960(3) 0.1145(3)
C5 C 0.0223(3) 0.6905(3) 0.0621(3)
C6 C 0.0741(3) 0.6757(3) 0.1046(3)
H4 H 0.0958 0.6349 0.1008
C7 C 0.0933(3) 0.7186(3) 0.1507(3)
H5 H 0.1267 0.7063 0.1803
C9 C 0.2085(4) 0.8775(4) 0.5027(4)
C10 C 0.2725(4) 0.8431(5) 0.5061(6)
H6 H 0.2768 0.8137 0.4686
H7 H 0.2748 0.8177 0.5465
H8 H 0.3079 0.8752 0.5053
C11 C 0.1279(5) 0.9497(5) 0.5430(5)
H9 H 0.1049 0.9341 0.5041
H10 H 0.1346 0.9970 0.5396
H11 H 0.1018 0.9401 0.5819
C12 C 0.2352(7) 0.9325(6) 0.6063(5)
H12 H 0.2227 0.9048 0.6433
H13 H 0.2284 0.9784 0.6178
H14 H 0.2813 0.9253 0.5959
N6 N 0.1515(2) 0.4888(2) 0.0021(2)
H20 H 0.1649 0.5062 0.0389
N7 N 0.0760(2) 0.5687(2) 0.0099(2)
H21 H 0.3374 0.3818 0.0057
C24 C 0.2528(3) 0.4319(3) 0.0067(3)
H22 H 0.2648 0.4603 0.0414
O8 O 0.0426(2) 0.8324(3) 0.3668(3)
H25 H 0.0314 0.7232 0.3137
O9 O 0.1332(3) 0.9574(2) 0.3324(3)
H34 H 0.1863 0.9686 0.2232
O10 O 0.2562(2) 0.8662(3) 0.3081(3)
O11 O 0.1919(3) 0.7438(2) 0.3662(3)
C8 C 0.0231(3) 0.5962(3) 0.9852(3)
H15 H 0.0062 0.4611 0.8351
N5 N 0.0687(2) 0.4901(2) 0.9240(2)
C20 C 0.0148(3) 0.5231(3) 0.9038(3)
O6 O 0.3081(3) 0.2562(2) 0.8662(3)
O7 O 0.3811(2) 0.2877(3) 0.9388(3)
C21 C 0.3270(3) 0.2926(3) 0.9127(3)
C22 C 0.2799(3) 0.3439(3) 0.9344(3)
C23 C 0.2960(3) 0.3855(3) 0.9854(3)
C25 C 0.1905(3) 0.4379(3) 0.9777(3)
C26 C 0.1757(3) 0.3954(3) 0.9259(3)
H23 H 0.1349 0.3992 0.9042
C27 C 0.2186(3) 0.3493(3) 0.9067(3)
H24 H 0.2063 0.3197 0.8733
C28 C 0.0962(3) 0.5148(3) 0.9769(3)
Sm2 Sm 0.346676(13) 0.153324(13) 0.846676(13)
N3_2 N 0.3060(4) 0.0845(4) 0.0482(4)
C9_2 C 0.2915(4) 0.1225(4) 0.0027(4)
C10_2 C 0.2275(4) 0.1569(5) 0.0061(6)
H7_2 H 0.2252 0.1823 0.0465
H8_2 H 0.1921 0.1248 0.0053
C11_2 C 0.3721(5) 0.0503(5) 0.0430(5)
H9_2 H 0.3951 0.0659 0.0041
H10_2 H 0.3654 0.0030 0.0396
H11_2 H 0.3982 0.0599 0.0819
C12_2 C 0.2648(7) 0.0675(6) 0.1063(5)
H12_2 H 0.2773 0.0952 0.1433
H13_2 H 0.2716 0.0216 0.1178
H14_2 H 0.2187 0.0747 0.0959
O1_2 O 0.3662(3) 0.1919(3) 0.7438(2)
O2_2 O 0.4388(3) 0.1189(2) 0.7123(3)
O3_2 O 0.3324(3) 0.1332(3) 0.9574(2)
N1 N 0.5021(2) 0.3485(2) 0.5112(2)
H1 H 0.5389 0.3351 0.4938
N2 N 0.5099(2) 0.4240(2) 0.4313(2)
C1_2 C 0.4127(3) 0.1730(3) 0.7074(3)
C2_2 C 0.4344(3) 0.2201(3) 0.6561(3)
C3_2 C 0.4854(3) 0.2040(3) 0.6145(3)
H2 H 0.5057 0.1626 0.6182
C4 C 0.5067(3) 0.2472(3) 0.5681(3)
H3 H 0.5414 0.2352 0.5397
C5_2 C 0.4777(3) 0.3095(3) 0.5621(3)
C6_2 C 0.4259(3) 0.3243(3) 0.6046(3)
H4_2 H 0.4042 0.3651 0.6008
C7_2 C 0.4067(3) 0.2814(3) 0.6507(3)
H5_2 H 0.3733 0.2937 0.6803
C8_2 C 0.4769(3) 0.4038(3) 0.4852(3)
H6_2 H 0.2232 0.1863 0.9686
O4 O 0.7438(2) 0.3662(3) 0.1919(3)
O5 O 0.7123(3) 0.4388(3) 0.1189(2)
N4 N 0.5112(2) 0.5021(2) 0.3485(2)
H15_2 H 0.4938 0.5389 0.3351
N5_2 N 0.4313(2) 0.5099(2) 0.4240(2)
C13 C 0.7074(3) 0.4127(3) 0.1730(3)
C14 C 0.6561(3) 0.4344(3) 0.2201(3)
C15 C 0.6145(3) 0.4854(3) 0.2040(3)
H16 H 0.6182 0.5057 0.1626
C16 C 0.5681(3) 0.5067(3) 0.2472(3)
H17 H 0.5397 0.5414 0.2352
C17 C 0.5621(3) 0.4777(3) 0.3095(3)
C18 C 0.6046(3) 0.4259(3) 0.3243(3)
H18 H 0.6008 0.4042 0.3651
C19 C 0.6507(3) 0.4067(3) 0.2814(3)
H19 H 0.6803 0.3733 0.2937
C20_2 C 0.4852(3) 0.4769(3) 0.4038(3)
O7_2 O 0.1189(2) 0.7123(3) 0.4388(3)
N6_2 N 0.3485(2) 0.5112(2) 0.5021(2)
H20_2 H 0.3351 0.4938 0.5389
N7_2 N 0.4240(2) 0.4313(2) 0.5099(2)
C21_2 C 0.1730(3) 0.7074(3) 0.4127(3)
C22_2 C 0.2201(3) 0.6561(3) 0.4344(3)
C23_2 C 0.2040(3) 0.6145(3) 0.4854(3)
H21_2 H 0.1626 0.6182 0.5057
C24_2 C 0.2472(3) 0.5681(3) 0.5067(3)
H22_2 H 0.2352 0.5397 0.5414
C25_2 C 0.3095(3) 0.5621(3) 0.4777(3)
C26_2 C 0.3243(3) 0.6046(3) 0.4259(3)
H23_2 H 0.3651 0.6008 0.4042
C27_2 C 0.2814(3) 0.6507(3) 0.4067(3)
H24_2 H 0.2937 0.6803 0.3733
C28_2 C 0.4038(3) 0.4852(3) 0.4769(3)
O8_2 O 0.4574(2) 0.1676(3) 0.8668(3)
N8 N 0.5482(4) 0.1940(4) 0.9155(4)
C29 C 0.5027(4) 0.2085(4) 0.8775(4)
C30 C 0.5061(6) 0.2725(4) 0.8431(5)
H25_2 H 0.4686 0.2768 0.8137
H26 H 0.5465 0.2748 0.8177
H27 H 0.5053 0.3079 0.8752
C31 C 0.5430(5) 0.1279(5) 0.9497(5)
H28 H 0.5041 0.1049 0.9341
H29 H 0.5396 0.1346 0.9970
H30 H 0.5819 0.1018 0.9401
C32 C 0.6063(5) 0.2352(7) 0.9325(6)
H31 H 0.6433 0.2227 0.9048
H32 H 0.6178 0.2284 0.9784
H33 H 0.5959 0.2813 0.9253
O9_2 O 0.3668(3) 0.0426(2) 0.8324(3)
H34_2 H 0.3137 0.0314 0.7232
Sm3 Sm 0.846676(13) 0.346676(13) 0.153324(13)
O10_2 O 0.2438(2) 0.1338(3) 0.8081(3)
N1_2 N 0.0021(2) 0.1515(2) 0.4888(2)
H1_2 H 0.0389 0.1649 0.5062
N2_2 N 0.0099(2) 0.0760(2) 0.5687(2)
H2_2 H 0.0057 0.3374 0.3818
C4_2 C 0.0067(3) 0.2528(3) 0.4319(3)
H3_2 H 0.0414 0.2648 0.4603
O5_2 O 0.2123(3) 0.0612(3) 0.8811(2)
C13_2 C 0.2074(3) 0.0873(3) 0.8270(3)
C14_2 C 0.1561(3) 0.0656(3) 0.7799(3)
C15_2 C 0.1145(3) 0.0146(3) 0.7960(3)
C17_2 C 0.0621(3) 0.0223(3) 0.6905(3)
C18_2 C 0.1046(3) 0.0741(3) 0.6757(3)
H18_2 H 0.1008 0.0958 0.6349
C19_2 C 0.1507(3) 0.0933(3) 0.7186(3)
H19_2 H 0.1803 0.1267 0.7063
N8_2 N 0.0482(4) 0.3060(4) 0.0845(4)
C29_2 C 0.0027(4) 0.2915(4) 0.1225(4)
C30_2 C 0.0061(6) 0.2275(4) 0.1569(5)
H26_2 H 0.0465 0.2252 0.1823
H27_2 H 0.0053 0.1921 0.1248
C31_2 C 0.0430(5) 0.3721(5) 0.0503(5)
H28_2 H 0.0041 0.3951 0.0659
H29_2 H 0.0396 0.3654 0.0030
H30_2 H 0.0819 0.3982 0.0599
C32_2 C 0.1063(5) 0.2648(7) 0.0675(6)
H31_2 H 0.1433 0.2773 0.0952
H32_2 H 0.1178 0.2716 0.0216
H33_2 H 0.0959 0.2187 0.0747
O1_3 O 0.8662(3) 0.3081(3) 0.2562(2)
O2_3 O 0.9388(3) 0.3811(2) 0.2877(3)
O3_3 O 0.8324(3) 0.3668(3) 0.0426(2)
C1_3 C 0.9127(3) 0.3270(3) 0.2926(3)
C2_3 C 0.9344(3) 0.2799(3) 0.3439(3)
C3_3 C 0.9854(3) 0.2960(3) 0.3855(3)
C5_3 C 0.9777(3) 0.1905(3) 0.4379(3)
C6_3 C 0.9259(3) 0.1757(3) 0.3954(3)
H4_3 H 0.9042 0.1349 0.3992
C7_3 C 0.9067(3) 0.2186(3) 0.3493(3)
H5_3 H 0.8733 0.2063 0.3197
C8_3 C 0.9769(3) 0.0962(3) 0.5148(3)
H6_3 H 0.7232 0.3137 0.0314
C20_3 C 0.9852(3) 0.0231(3) 0.5962(3)
H20_3 H 0.8351 0.0062 0.4611
N7_3 N 0.9240(2) 0.0687(2) 0.4901(2)
C28_3 C 0.9038(3) 0.0148(3) 0.5231(3)
O8_3 O 0.9574(2) 0.3324(3) 0.1332(3)
H25_3 H 0.9686 0.2232 0.1863
O9_3 O 0.8668(3) 0.4574(2) 0.1676(3)
N9_2 N 0.9155(4) 0.5482(4) 0.1940(4)
C33_2 C 0.8775(4) 0.5027(4) 0.2085(4)
C34_2 C 0.8431(5) 0.5061(6) 0.2725(4)
H34_3 H 0.8137 0.4686 0.2768
H35_2 H 0.8177 0.5465 0.2748
H36_2 H 0.8752 0.5053 0.3079
C35_2 C 0.9497(5) 0.5430(5) 0.1279(5)
H37_2 H 0.9341 0.5041 0.1049
H38_2 H 0.9970 0.5396 0.1346
H39_2 H 0.9401 0.5819 0.1018
C36_2 C 0.9325(6) 0.6063(5) 0.2352(7)
H40_2 H 0.9048 0.6433 0.2227
H41_2 H 0.9784 0.6178 0.2284
H42_2 H 0.9253 0.5959 0.2813
O11_2 O 0.8081(3) 0.2438(2) 0.1338(3)
N4_2 N 0.4888(2) 0.0021(2) 0.1515(2)
H15_3 H 0.5062 0.0389 0.1649
N5_3 N 0.5687(2) 0.0099(2) 0.0760(2)
H16_2 H 0.3818 0.0057 0.3374
C16_2 C 0.4319(3) 0.0067(3) 0.2528(3)
H17_2 H 0.4603 0.0414 0.2648
O7_3 O 0.8811(2) 0.2123(3) 0.0612(3)
C21_3 C 0.8270(3) 0.2074(3) 0.0873(3)
C22_3 C 0.7799(3) 0.1561(3) 0.0656(3)
C23_3 C 0.7960(3) 0.1145(3) 0.0146(3)
C25_3 C 0.6905(3) 0.0621(3) 0.0223(3)
C26_3 C 0.6757(3) 0.1046(3) 0.0741(3)
H23_3 H 0.6349 0.1008 0.0958
C27_3 C 0.7186(3) 0.1507(3) 0.0933(3)
H24_3 H 0.7063 0.1803 0.1267
H1_3 H 0.4611 0.8351 0.0062
N2_3 N 0.4901(2) 0.9240(2) 0.0687(2)
C8_4 C 0.5231(3) 0.9038(3) 0.0148(3)
O5_3 O 0.2877(3) 0.9388(3) 0.3811(2)
C13_3 C 0.2926(3) 0.9127(3) 0.3270(3)
C14_3 C 0.3439(3) 0.9344(3) 0.2799(3)
C15_3 C 0.3855(3) 0.9854(3) 0.2960(3)
C17_3 C 0.4379(3) 0.9777(3) 0.1905(3)
C18_3 C 0.3954(3) 0.9259(3) 0.1757(3)
H18_3 H 0.3992 0.9042 0.1349
C19_3 C 0.3493(3) 0.9067(3) 0.2186(3)
H19_3 H 0.3197 0.8733 0.2063
C20_4 C 0.5148(3) 0.9769(3) 0.0962(3)
C28_4 C 0.5962(3) 0.9852(3) 0.0231(3)
N1_3 N 0.9979(2) 0.6515(2) 0.0112(2)
H2_3 H 0.9943 0.8374 0.1182
C4_3 C 0.9933(3) 0.7528(3) 0.0681(3)
H3_3 H 0.9586 0.7648 0.0397
N8_3 N 0.9518(4) 0.8060(4) 0.4155(4)
C29_3 C 0.9973(4) 0.7915(4) 0.3775(4)
C30_3 C 0.9939(6) 0.7275(4) 0.3431(5)
H26_3 H 0.9535 0.7252 0.3177
H27_3 H 0.9947 0.6921 0.3752
C31_3 C 0.9570(5) 0.8721(5) 0.4497(5)
H28_3 H 0.9959 0.8951 0.4341
H29_3 H 0.9604 0.8654 0.4970
H30_3 H 0.9181 0.8982 0.4401
C32_3 C 0.8937(5) 0.7648(7) 0.4325(6)
H31_3 H 0.8567 0.7773 0.4048
H32_3 H 0.8822 0.7716 0.4784
H33_3 H 0.9041 0.7187 0.4253
H1_4 H 0.9611 0.6649 0.9938
N2_4 N 0.9901(2) 0.5760(2) 0.9313(2)
O4_2 O 0.7562(2) 0.6338(3) 0.6919(3)
O5_4 O 0.7877(3) 0.5612(3) 0.6189(2)
N4_3 N 0.9888(2) 0.4979(2) 0.8485(2)
C13_4 C 0.7926(3) 0.5873(3) 0.6730(3)
C14_4 C 0.8439(3) 0.5656(3) 0.7201(3)
C15_4 C 0.8855(3) 0.5146(3) 0.7040(3)
H16_3 H 0.8818 0.4943 0.6626
C16_3 C 0.9319(3) 0.4933(3) 0.7472(3)
H17_3 H 0.9603 0.4586 0.7352
C17_4 C 0.9379(3) 0.5223(3) 0.8095(3)
C18_4 C 0.8954(3) 0.5741(3) 0.8243(3)
H18_4 H 0.8992 0.5958 0.8651
C19_4 C 0.8493(3) 0.5933(3) 0.7814(3)
H19_4 H 0.8197 0.6267 0.7937
Sm3_2 Sm 0.653324(13) 0.653324(13) 0.653324(13)
H15_4 H 0.9938 0.9611 0.6649
N5_4 N 0.9313(2) 0.9901(2) 0.5760(2)
O6_2 O 0.6919(3) 0.7562(2) 0.6338(3)
O7_4 O 0.6189(2) 0.7877(3) 0.5612(3)
N6_3 N 0.8485(2) 0.9888(2) 0.4979(2)
C21_4 C 0.6730(3) 0.7926(3) 0.5873(3)
C22_4 C 0.7201(3) 0.8439(3) 0.5656(3)
C23_4 C 0.7040(3) 0.8855(3) 0.5146(3)
H21_3 H 0.6626 0.8818 0.4943
C24_3 C 0.7472(3) 0.9319(3) 0.4933(3)
H22_3 H 0.7352 0.9603 0.4586
C25_4 C 0.8095(3) 0.9379(3) 0.5223(3)
C26_4 C 0.8243(3) 0.8954(3) 0.5741(3)
H23_4 H 0.8651 0.8992 0.5958
C27_4 C 0.7814(3) 0.8493(3) 0.5933(3)
H24_4 H 0.7937 0.8197 0.6267
O1_4 O 0.6338(3) 0.6919(3) 0.7562(2)
O2_4 O 0.5612(3) 0.6189(2) 0.7877(3)
O3_4 O 0.6676(3) 0.6332(3) 0.5426(2)
N1_4 N 0.4979(2) 0.8485(2) 0.9888(2)
N3_3 N 0.6940(4) 0.5845(4) 0.4518(4)
C1_4 C 0.5873(3) 0.6730(3) 0.7926(3)
C2_4 C 0.5656(3) 0.7201(3) 0.8439(3)
C3_4 C 0.5146(3) 0.7040(3) 0.8855(3)
H2_4 H 0.4943 0.6626 0.8818
C4_4 C 0.4933(3) 0.7472(3) 0.9319(3)
H3_4 H 0.4586 0.7352 0.9603
C5_4 C 0.5223(3) 0.8095(3) 0.9379(3)
C6_4 C 0.5741(3) 0.8243(3) 0.8954(3)
H4_4 H 0.5958 0.8651 0.8992
C7_4 C 0.5933(3) 0.7814(3) 0.8493(3)
H5_4 H 0.6267 0.7937 0.8197
C9_3 C 0.7085(4) 0.6225(4) 0.4973(4)
C10_3 C 0.7725(4) 0.6569(5) 0.4939(6)
H6_4 H 0.7768 0.6863 0.5314
H7_3 H 0.7748 0.6823 0.4535
H8_3 H 0.8079 0.6248 0.4947
C11_3 C 0.6279(5) 0.5503(5) 0.4570(5)
H9_3 H 0.6049 0.5659 0.4959
H10_3 H 0.6346 0.5030 0.4604
H11_3 H 0.6018 0.5599 0.4181
C12_3 C 0.7352(7) 0.5675(6) 0.3937(5)
H12_3 H 0.7227 0.5952 0.3567
H13_3 H 0.7284 0.5216 0.3822
H14_3 H 0.7813 0.5747 0.4041
H20_4 H 0.6649 0.9938 0.9611
N7_4 N 0.5760(2) 0.9313(2) 0.9901(2)
O8_4 O 0.5426(2) 0.6676(3) 0.6332(3)
N8_4 N 0.4518(4) 0.6940(4) 0.5845(4)
C29_4 C 0.4973(4) 0.7085(4) 0.6225(4)
C30_4 C 0.4939(6) 0.7725(4) 0.6569(5)
H25_4 H 0.5314 0.7768 0.6863
H26_4 H 0.4535 0.7748 0.6823
H27_4 H 0.4947 0.8079 0.6248
C31_4 C 0.4570(5) 0.6279(5) 0.5503(5)
H28_4 H 0.4959 0.6049 0.5659
H29_4 H 0.4604 0.6346 0.5030
H30_4 H 0.4181 0.6018 0.5599
C32_4 C 0.3937(5) 0.7352(7) 0.5675(6)
H31_4 H 0.3567 0.7227 0.5952
H32_4 H 0.3822 0.7284 0.5216
H33_4 H 0.4041 0.7813 0.5747
O9_4 O 0.6332(3) 0.5426(2) 0.6676(3)
N9_3 N 0.5845(4) 0.4518(4) 0.6940(4)
C33_3 C 0.6225(4) 0.4973(4) 0.7085(4)
C34_3 C 0.6569(5) 0.4939(6) 0.7725(4)
H34_4 H 0.6863 0.5314 0.7768
H35_3 H 0.6823 0.4535 0.7748
H36_3 H 0.6248 0.4947 0.8079
C35_3 C 0.5503(5) 0.4570(5) 0.6279(5)
H37_3 H 0.5659 0.4959 0.6049
H38_3 H 0.5030 0.4604 0.6346
H39_3 H 0.5599 0.4181 0.6018
C36_3 C 0.5675(6) 0.3937(5) 0.7352(7)
H40_3 H 0.5952 0.3567 0.7227
H41_3 H 0.5216 0.3822 0.7284
H42_3 H 0.5747 0.4041 0.7813
N9_4 N 0.4155(4) 0.9518(4) 0.8060(4)
C33_4 C 0.3775(4) 0.9973(4) 0.7915(4)
C34_4 C 0.3431(5) 0.9939(6) 0.7275(4)
H35_4 H 0.3177 0.9535 0.7252
H36_4 H 0.3752 0.9947 0.6921
C35_4 C 0.4497(5) 0.9570(5) 0.8721(5)
H37_4 H 0.4341 0.9959 0.8951
H38_4 H 0.4970 0.9604 0.8654
H39_4 H 0.4401 0.9181 0.8982
C36_4 C 0.4325(6) 0.8937(5) 0.7648(7)
H40_4 H 0.4048 0.8567 0.7773
H41_4 H 0.4784 0.8822 0.7716
H42_4 H 0.4253 0.9041 0.7187
N4_4 N 0.0112(2) 0.9979(2) 0.6515(2)
H16_4 H 0.1182 0.9943 0.8374
C16_4 C 0.0681(3) 0.9933(3) 0.7528(3)
H17_4 H 0.0397 0.9586 0.7648
N3_4 N 0.8060(4) 0.4155(4) 0.9518(4)
C9_4 C 0.7915(4) 0.3775(4) 0.9973(4)
C10_4 C 0.7275(4) 0.3431(5) 0.9939(6)
H7_4 H 0.7252 0.3177 0.9535
H8_4 H 0.6921 0.3752 0.9947
C11_4 C 0.8721(5) 0.4497(5) 0.9570(5)
H9_4 H 0.8951 0.4341 0.9959
H10_4 H 0.8654 0.4970 0.9604
H11_4 H 0.8982 0.4401 0.9181
C12_4 C 0.7648(7) 0.4325(6) 0.8937(5)
H12_4 H 0.7773 0.4048 0.8567
H13_4 H 0.7716 0.4784 0.8822
H14_4 H 0.7187 0.4253 0.9041
N6_4 N 0.6515(2) 0.0112(2) 0.9979(2)
H21_4 H 0.8374 0.1182 0.9943
C24_4 C 0.7528(3) 0.0681(3) 0.9933(3)
H22_4 H 0.7648 0.0397 0.9586
Sm4 Sm 0.333571(11) 0.666429(11) 0.166429(11)
O12 O 0.2344(2) 0.6171(2) 0.1794(2)
O13 O 0.2086(2) 0.5332(2) 0.1162(2)
O14 O 0.26322(18) 0.73678(18) 0.23678(18)
O15 O 0.3246(2) 0.6339(2) 0.05505(19)
N10 N 0.0073(2) 0.4904(2) 0.3497(2)
N11 N 0.0116(2) 0.5710(2) 0.4295(2)
C37 C 0.2017(2) 0.5662(3) 0.1665(3)
C38 C 0.1519(3) 0.5461(3) 0.2169(2)
C39 C 0.1470(3) 0.5785(3) 0.2749(3)
H45 H 0.1759 0.6136 0.2837
C40 C 0.1007(3) 0.5614(3) 0.3211(3)
H46 H 0.0984 0.5842 0.3614
C41 C 0.0576(3) 0.5104(3) 0.3080(3)
C42 C 0.0626(3) 0.4777(3) 0.2483(3)
H47 H 0.0333 0.4431 0.2386
C43 C 0.1090(3) 0.4948(3) 0.2040(3)
H48 H 0.1123 0.4717 0.1640
C45 C 0.2889(3) 0.6265(3) 0.0085(3)
C46 C 0.2238(4) 0.6594(4) 0.0037(5)
H51 H 0.2162 0.6856 0.0430
H55 H 0.3915 0.5652 0.0056
N15 N 0.0096(2) 0.6503(2) 0.5073(2)
H64 H 0.0464 0.6616 0.4882
C62 C 0.0223(3) 0.7517(3) 0.5626(3)
H67 H 0.0569 0.7614 0.5333
C63 C 0.0052(3) 0.7960(3) 0.6090(3)
H68 H 0.0283 0.8360 0.6123
O20 O 0.44495(19) 0.6754(2) 0.1339(2)
N17 N 0.5416(3) 0.6932(4) 0.0895(4)
C65 C 0.4915(3) 0.7111(3) 0.1265(3)
C66 C 0.4963(5) 0.7762(4) 0.1594(4)
H69 H 0.5002 0.8106 0.1263
H70 H 0.5347 0.7769 0.1877
H71 H 0.4570 0.7838 0.1856
C67 C 0.6002(4) 0.7335(6) 0.0763(5)
H72 H 0.6064 0.7376 0.0291
H73 H 0.6386 0.7127 0.0957
H74 H 0.5943 0.7770 0.0954
C68 C 0.5377(5) 0.6274(5) 0.0577(6)
H75 H 0.4944 0.6085 0.0652
H76 H 0.5710 0.5986 0.0765
H77 H 0.5452 0.6319 0.0107
O21 O 0.3661(2) 0.55505(19) 0.1754(2)
N18 N 0.4105(4) 0.4584(3) 0.1932(4)
C69 C 0.3735(3) 0.5085(3) 0.2111(3)
C70 C 0.3406(4) 0.5037(5) 0.2762(4)
H78 H 0.3737 0.4998 0.3106
H79 H 0.3123 0.4653 0.2769
H80 H 0.3144 0.5430 0.2838
C71 C 0.4237(5) 0.3998(4) 0.2335(6)
H81 H 0.4709 0.3936 0.2376
H82 H 0.4043 0.3614 0.2127
H83 H 0.4046 0.4057 0.2770
C72 C 0.4423(6) 0.4623(5) 0.1274(5)
H84 H 0.4348 0.5056 0.1085
H85 H 0.4235 0.4290 0.0986
H86 H 0.4893 0.4548 0.1319
O22 O 0.3206(2) 0.7656(2) 0.1171(2)
O23 O 0.3829(2) 0.6794(2) 0.2656(2)
H44 H 0.9882 0.4536 0.3384
C44 C 0.9833(3) 0.5182(3) 0.4046(2)
O16 O 0.6794(2) 0.2656(2) 0.3829(2)
O17 O 0.6162(2) 0.2914(2) 0.4668(2)
N13 N 0.8497(2) 0.4927(2) 0.5096(2)
H59 H 0.8384 0.5118 0.5464
N14 N 0.9295(2) 0.4884(2) 0.4290(2)
C49 C 0.6665(3) 0.2983(2) 0.4338(3)
C50 C 0.7169(2) 0.3481(3) 0.4539(3)
C51 C 0.7749(3) 0.3530(3) 0.4215(3)
H60 H 0.7837 0.3241 0.3864
C52 C 0.8211(3) 0.3993(3) 0.4386(3)
H61 H 0.8614 0.4016 0.4158
C53 C 0.8080(3) 0.4424(3) 0.4896(3)
C54 C 0.7483(3) 0.4374(3) 0.5223(3)
H62 H 0.7386 0.4667 0.5569
C55 C 0.7040(3) 0.3910(3) 0.5052(3)
H63 H 0.6640 0.3877 0.5283
C56 C 0.9046(2) 0.5167(3) 0.4818(3)
O18 O 0.8829(2) 0.8206(2) 0.7344(2)
O19 O 0.9668(2) 0.8838(2) 0.7086(2)
N16 N 0.9290(2) 0.5705(2) 0.5116(2)
C57 C 0.9338(3) 0.8335(3) 0.7017(2)
C58 C 0.9539(3) 0.7831(2) 0.6519(3)
C59 C 0.9215(3) 0.7251(3) 0.6470(3)
H65 H 0.8864 0.7163 0.6759
C60 C 0.9386(3) 0.6789(3) 0.6007(3)
H66 H 0.9158 0.6386 0.5984
C61 C 0.9896(3) 0.6920(3) 0.5576(3)
C64 C 0.9818(3) 0.5954(2) 0.4833(3)
Sm5 Sm 0.666429(11) 0.166429(11) 0.333571(11)
Sm6 Sm 0.833571(11) 0.833571(11) 0.833571(11)
N13_2 N 0.6503(2) 0.5073(2) 0.0096(2)
H59_2 H 0.6616 0.4882 0.0464
C54_2 C 0.7517(3) 0.5626(3) 0.0223(3)
H62_2 H 0.7614 0.5333 0.0569
C55_2 C 0.7960(3) 0.6090(3) 0.0052(3)
H63_2 H 0.8360 0.6123 0.0283
O18_2 O 0.6171(2) 0.1794(2) 0.2344(2)
O19_2 O 0.5332(2) 0.1162(2) 0.2086(2)
N15_2 N 0.4904(2) 0.3497(2) 0.0073(2)
N16_2 N 0.5710(2) 0.4295(2) 0.0116(2)
C57_2 C 0.5662(3) 0.1665(3) 0.2017(2)
C58_2 C 0.5461(3) 0.2169(2) 0.1519(3)
C59_2 C 0.5785(3) 0.2749(3) 0.1470(3)
H65_2 H 0.6136 0.2837 0.1759
C60_2 C 0.5614(3) 0.3211(3) 0.1007(3)
H66_2 H 0.5842 0.3614 0.0984
C61_2 C 0.5104(3) 0.3080(3) 0.0576(3)
C62_2 C 0.4777(3) 0.2483(3) 0.0626(3)
H67_2 H 0.4431 0.2386 0.0333
C63_2 C 0.4948(3) 0.2040(3) 0.1090(3)
H68_2 H 0.4717 0.1640 0.1123
Sm4_2 Sm 0.166429(11) 0.333571(11) 0.666429(11)
O12_2 O 0.2656(2) 0.3829(2) 0.6794(2)
O13_2 O 0.2914(2) 0.4668(2) 0.6162(2)
O14_2 O 0.23678(18) 0.26322(18) 0.73678(18)
O15_2 O 0.1754(2) 0.3661(2) 0.55505(19)
N10_2 N 0.4927(2) 0.5096(2) 0.8497(2)
H44_2 H 0.5118 0.5464 0.8384
N11_2 N 0.4884(2) 0.4290(2) 0.9295(2)
N12 N 0.1932(4) 0.4105(4) 0.4584(3)
C37_2 C 0.2983(2) 0.4338(3) 0.6665(3)
C38_2 C 0.3481(3) 0.4539(3) 0.7169(2)
C39_2 C 0.3530(3) 0.4215(3) 0.7749(3)
H45_2 H 0.3241 0.3864 0.7837
C40_2 C 0.3993(3) 0.4386(3) 0.8211(3)
H46_2 H 0.4016 0.4158 0.8614
C41_2 C 0.4424(3) 0.4896(3) 0.8080(3)
C42_2 C 0.4374(3) 0.5223(3) 0.7483(3)
H47_2 H 0.4667 0.5569 0.7386
C43_2 C 0.3910(3) 0.5052(3) 0.7040(3)
H48_2 H 0.3877 0.5283 0.6640
C44_2 C 0.5167(3) 0.4818(3) 0.9046(2)
C45_2 C 0.2111(3) 0.3735(3) 0.5085(3)
C46_2 C 0.2762(4) 0.3406(4) 0.5037(5)
H49 H 0.3106 0.3737 0.4998
H50 H 0.2769 0.3123 0.4653
H51_2 H 0.2838 0.3144 0.5430
C47 C 0.2335(6) 0.4237(5) 0.3998(4)
H52 H 0.2376 0.4709 0.3936
H53 H 0.2127 0.4043 0.3614
H54 H 0.2770 0.4046 0.4057
C48 C 0.1274(5) 0.4423(6) 0.4623(5)
H55_2 H 0.1085 0.4348 0.5056
H56 H 0.0986 0.4235 0.4290
H57 H 0.1319 0.4893 0.4548
O16_2 O 0.8206(2) 0.7344(2) 0.8829(2)
O17_2 O 0.8838(2) 0.7086(2) 0.9668(2)
N14_2 N 0.5705(2) 0.5116(2) 0.9290(2)
C49_2 C 0.8335(3) 0.7017(2) 0.9338(3)
C50_2 C 0.7831(2) 0.6519(3) 0.9539(3)
C51_2 C 0.7251(3) 0.6470(3) 0.9215(3)
H60_2 H 0.7163 0.6759 0.8864
C52_2 C 0.6789(3) 0.6007(3) 0.9386(3)
H61_2 H 0.6386 0.5984 0.9158
C53_2 C 0.6920(3) 0.5576(3) 0.9896(3)
C56_2 C 0.5954(2) 0.4833(3) 0.9818(3)
H64_2 H 0.4536 0.3384 0.9882
C64_2 C 0.5182(3) 0.4046(2) 0.9833(3)
O20_2 O 0.05505(19) 0.3246(2) 0.6339(2)
C65_2 C 0.0085(3) 0.2889(3) 0.6265(3)
C66_2 C 0.0037(5) 0.2238(4) 0.6594(4)
H71_2 H 0.0430 0.2162 0.6856
H75_2 H 0.0056 0.3915 0.5652
O21_2 O 0.1339(2) 0.44495(19) 0.6754(2)
N18_2 N 0.0895(4) 0.5416(3) 0.6932(4)
C69_2 C 0.1265(3) 0.4915(3) 0.7111(3)
C70_2 C 0.1594(4) 0.4963(5) 0.7762(4)
H78_2 H 0.1263 0.5002 0.8106
H79_2 H 0.1877 0.5347 0.7769
H80_2 H 0.1856 0.4570 0.7838
C71_2 C 0.0763(5) 0.6002(4) 0.7335(6)
H81_2 H 0.0291 0.6064 0.7376
H82_2 H 0.0957 0.6386 0.7127
H83_2 H 0.0954 0.5943 0.7770
C72_2 C 0.0577(6) 0.5377(5) 0.6274(5)
H84_2 H 0.0652 0.4944 0.6085
H85_2 H 0.0765 0.5710 0.5986
H86_2 H 0.0107 0.5452 0.6319
O22_2 O 0.1794(2) 0.2344(2) 0.6171(2)
O23_2 O 0.1171(2) 0.3206(2) 0.7656(2)
H59_3 H 0.1616 0.0118 0.9536
O19_3 O 0.0332(2) 0.3838(2) 0.7914(2)
N16_3 N 0.0710(2) 0.0705(2) 0.9884(2)
C57_3 C 0.0662(3) 0.3335(3) 0.7983(2)
C58_3 C 0.0461(3) 0.2831(2) 0.8481(3)
C59_3 C 0.0785(3) 0.2251(3) 0.8530(3)
H65_3 H 0.1136 0.2163 0.8241
C60_3 C 0.0614(3) 0.1789(3) 0.8993(3)
H66_3 H 0.0842 0.1386 0.9016
C61_3 C 0.0104(3) 0.1920(3) 0.9424(3)
H44_3 H 0.0118 0.9536 0.1616
O17_3 O 0.3838(2) 0.7914(2) 0.0332(2)
N14_3 N 0.0705(2) 0.9884(2) 0.0710(2)
C49_3 C 0.3335(3) 0.7983(2) 0.0662(3)
C50_3 C 0.2831(2) 0.8481(3) 0.0461(3)
C51_3 C 0.2251(3) 0.8530(3) 0.0785(3)
H60_3 H 0.2163 0.8241 0.1136
C52_3 C 0.1789(3) 0.8993(3) 0.0614(3)
H61_3 H 0.1386 0.9016 0.0842
C53_3 C 0.1920(3) 0.9424(3) 0.0104(3)
O12_3 O 0.7656(2) 0.1171(2) 0.3206(2)
O13_3 O 0.7914(2) 0.0332(2) 0.3838(2)
O14_3 O 0.73678(18) 0.23678(18) 0.26322(18)
O15_3 O 0.6754(2) 0.1339(2) 0.44495(19)
N11_3 N 0.9884(2) 0.0710(2) 0.0705(2)
N12_2 N 0.6932(4) 0.0895(4) 0.5416(3)
C37_3 C 0.7983(2) 0.0662(3) 0.3335(3)
C38_3 C 0.8481(3) 0.0461(3) 0.2831(2)
C39_3 C 0.8530(3) 0.0785(3) 0.2251(3)
H45_3 H 0.8241 0.1136 0.2163
C40_3 C 0.8993(3) 0.0614(3) 0.1789(3)
H46_3 H 0.9016 0.0842 0.1386
C41_3 C 0.9424(3) 0.0104(3) 0.1920(3)
C45_3 C 0.7111(3) 0.1265(3) 0.4915(3)
C46_3 C 0.7762(4) 0.1594(4) 0.4963(5)
H49_2 H 0.8106 0.1263 0.5002
H50_2 H 0.7769 0.1877 0.5347
H51_3 H 0.7838 0.1856 0.4570
C47_2 C 0.7335(6) 0.0763(5) 0.6002(4)
H52_2 H 0.7376 0.0291 0.6064
H53_2 H 0.7127 0.0957 0.6386
H54_2 H 0.7770 0.0954 0.5943
C48_2 C 0.6274(5) 0.0577(6) 0.5377(5)
H55_3 H 0.6085 0.0652 0.4944
H56_2 H 0.5986 0.0765 0.5710
H57_2 H 0.6319 0.0107 0.5452
H64_3 H 0.9536 0.1616 0.0118
O20_3 O 0.55505(19) 0.1754(2) 0.3661(2)
N17_2 N 0.4584(3) 0.1932(4) 0.4105(4)
C65_3 C 0.5085(3) 0.2111(3) 0.3735(3)
C66_3 C 0.5037(5) 0.2762(4) 0.3406(4)
H69_2 H 0.4998 0.3106 0.3737
H70_2 H 0.4653 0.2769 0.3123
H71_3 H 0.5430 0.2838 0.3144
C67_2 C 0.3998(4) 0.2335(6) 0.4237(5)
H72_2 H 0.3936 0.2376 0.4709
H73_2 H 0.3614 0.2127 0.4043
H74_2 H 0.4057 0.2770 0.4046
C68_2 C 0.4623(5) 0.1274(5) 0.4423(6)
H75_3 H 0.5056 0.1085 0.4348
H76_2 H 0.4290 0.0986 0.4235
H77_2 H 0.4548 0.1319 0.4893
O21_3 O 0.6339(2) 0.05505(19) 0.3246(2)
C69_3 C 0.6265(3) 0.0085(3) 0.2889(3)
C70_3 C 0.6594(4) 0.0037(5) 0.2238(4)
H80_3 H 0.6856 0.0430 0.2162
H84_3 H 0.5652 0.0056 0.3915
N17_3 N 0.0416(3) 0.8068(4) 0.9105(4)
H69_3 H 0.0002 0.6894 0.8737
H70_3 H 0.0347 0.7231 0.8123
C67_3 C 0.1002(4) 0.7665(6) 0.9237(5)
H72_3 H 0.1064 0.7624 0.9709
H73_3 H 0.1386 0.7873 0.9043
H74_3 H 0.0943 0.7230 0.9046
C68_3 C 0.0377(5) 0.8726(5) 0.9423(6)
H76_3 H 0.0710 0.9014 0.9235
H77_3 H 0.0452 0.8681 0.9893
N10_3 N 0.5073(2) 0.0096(2) 0.6503(2)
H44_4 H 0.4882 0.0464 0.6616
C42_3 C 0.5626(3) 0.0223(3) 0.7517(3)
H47_3 H 0.5333 0.0569 0.7614
C43_3 C 0.6090(3) 0.0052(3) 0.7960(3)
H48_3 H 0.6123 0.0283 0.8360
O17_4 O 0.1162(2) 0.2086(2) 0.5332(2)
N13_3 N 0.3497(2) 0.0073(2) 0.4904(2)
N14_4 N 0.4295(2) 0.0116(2) 0.5710(2)
C49_4 C 0.1665(3) 0.2017(2) 0.5662(3)
C50_4 C 0.2169(2) 0.1519(3) 0.5461(3)
C51_4 C 0.2749(3) 0.1470(3) 0.5785(3)
H60_4 H 0.2837 0.1759 0.6136
C52_4 C 0.3211(3) 0.1007(3) 0.5614(3)
H61_4 H 0.3614 0.0984 0.5842
C53_4 C 0.3080(3) 0.0576(3) 0.5104(3)
C54_3 C 0.2483(3) 0.0626(3) 0.4777(3)
H62_3 H 0.2386 0.0333 0.4431
C55_3 C 0.2040(3) 0.1090(3) 0.4948(3)
H63_3 H 0.1640 0.1123 0.4717
N18_3 N 0.9105(4) 0.0416(3) 0.8068(4)
H78_3 H 0.8737 0.0002 0.6894
H79_3 H 0.8123 0.0347 0.7231
C71_3 C 0.9237(5) 0.1002(4) 0.7665(6)
H81_3 H 0.9709 0.1064 0.7624
H82_3 H 0.9043 0.1386 0.7873
H83_3 H 0.9046 0.0943 0.7230
C72_3 C 0.9423(6) 0.0377(5) 0.8726(5)
H85_3 H 0.9235 0.0710 0.9014
H86_3 H 0.9893 0.0452 0.8681
N12_3 N 0.8068(4) 0.9105(4) 0.0416(3)
H49_3 H 0.6894 0.8737 0.0002
H50_3 H 0.7231 0.8123 0.0347
C47_3 C 0.7665(6) 0.9237(5) 0.1002(4)
H52_3 H 0.7624 0.9709 0.1064
H53_3 H 0.7873 0.9043 0.1386
H54_3 H 0.7230 0.9046 0.0943
C48_3 C 0.8726(5) 0.9423(6) 0.0377(5)
H56_3 H 0.9014 0.9235 0.0710
H57_3 H 0.8681 0.9893 0.0452
O12_4 O 0.7344(2) 0.8829(2) 0.8206(2)
O13_4 O 0.7086(2) 0.9668(2) 0.8838(2)
O14_4 O 0.76322(18) 0.76322(18) 0.76322(18)
O15_4 O 0.8246(2) 0.8661(2) 0.94495(19)
N11_4 N 0.5116(2) 0.9290(2) 0.5705(2)
C37_4 C 0.7017(2) 0.9338(3) 0.8335(3)
C38_4 C 0.6519(3) 0.9539(3) 0.7831(2)
C39_4 C 0.6470(3) 0.9215(3) 0.7251(3)
H45_4 H 0.6759 0.8864 0.7163
C40_4 C 0.6007(3) 0.9386(3) 0.6789(3)
H46_4 H 0.5984 0.9158 0.6386
C41_4 C 0.5576(3) 0.9896(3) 0.6920(3)
C44_3 C 0.4833(3) 0.9818(3) 0.5954(2)
C45_4 C 0.7889(3) 0.8735(3) 0.9915(3)
C46_4 C 0.7238(4) 0.8406(4) 0.9963(5)
H51_4 H 0.7162 0.8144 0.9570
H55_4 H 0.8915 0.9348 0.9944
H59_4 H 0.3384 0.9882 0.4536
C56_3 C 0.4046(2) 0.9833(3) 0.5182(3)
O19_4 O 0.4668(2) 0.6162(2) 0.2914(2)
N15_3 N 0.5096(2) 0.8497(2) 0.4927(2)
H64_4 H 0.5464 0.8384 0.5118
N16_4 N 0.4290(2) 0.9295(2) 0.4884(2)
C57_4 C 0.4338(3) 0.6665(3) 0.2983(2)
C58_4 C 0.4539(3) 0.7169(2) 0.3481(3)
C59_4 C 0.4215(3) 0.7749(3) 0.3530(3)
H65_4 H 0.3864 0.7837 0.3241
C60_4 C 0.4386(3) 0.8211(3) 0.3993(3)
H66_4 H 0.4158 0.8614 0.4016
C61_4 C 0.4896(3) 0.8080(3) 0.4424(3)
C62_3 C 0.5223(3) 0.7483(3) 0.4374(3)
H67_3 H 0.5569 0.7386 0.4667
C63_3 C 0.5052(3) 0.7040(3) 0.3910(3)
H68_3 H 0.5283 0.6640 0.3877
C64_3 C 0.4818(3) 0.9046(2) 0.5167(3)
O20_4 O 0.94495(19) 0.8246(2) 0.8661(2)
C65_4 C 0.9915(3) 0.7889(3) 0.8735(3)
C66_4 C 0.9963(5) 0.7238(4) 0.8406(4)
H71_4 H 0.9570 0.7162 0.8144
H75_4 H 0.9944 0.8915 0.9348
O21_4 O 0.8661(2) 0.94495(19) 0.8246(2)
C69_4 C 0.8735(3) 0.9915(3) 0.7889(3)
C70_4 C 0.8406(4) 0.9963(5) 0.7238(4)
H80_4 H 0.8144 0.9570 0.7162
H84_4 H 0.9348 0.9944 0.8915
N12_4 N 0.3068(4) 0.5895(4) 0.9584(3)
H49_4 H 0.1894 0.6263 0.9998
H50_4 H 0.2231 0.6877 0.9653
C47_4 C 0.2665(6) 0.5763(5) 0.8998(4)
H52_4 H 0.2624 0.5291 0.8936
H53_4 H 0.2873 0.5957 0.8614
H54_4 H 0.2230 0.5954 0.9057
C48_4 C 0.3726(5) 0.5577(6) 0.9623(5)
H56_4 H 0.4014 0.5765 0.9290
H57_4 H 0.3681 0.5107 0.9548
N13_4 N 0.1503(2) 0.9927(2) 0.9904(2)
C54_4 C 0.2517(3) 0.9374(3) 0.9777(3)
H62_4 H 0.2614 0.9667 0.9431
C55_4 C 0.2960(3) 0.8910(3) 0.9948(3)
H63_4 H 0.3360 0.8877 0.9717
N17_4 N 0.9584(3) 0.3068(4) 0.5895(4)
H69_4 H 0.9998 0.1894 0.6263
H70_4 H 0.9653 0.2231 0.6877
C67_4 C 0.8998(4) 0.2665(6) 0.5763(5)
H72_4 H 0.8936 0.2624 0.5291
H73_4 H 0.8614 0.2873 0.5957
H74_4 H 0.9057 0.2230 0.5954
C68_4 C 0.9623(5) 0.3726(5) 0.5577(6)
H76_4 H 0.9290 0.4014 0.5765
H77_4 H 0.9548 0.3681 0.5107
N15_4 N 0.9904(2) 0.1503(2) 0.9927(2)
C62_4 C 0.9777(3) 0.2517(3) 0.9374(3)
H67_4 H 0.9431 0.2614 0.9667
C63_4 C 0.9948(3) 0.2960(3) 0.8910(3)
H68_4 H 0.9717 0.3360 0.8877
C44_4 C 0.0167(3) 0.0182(3) 0.0954(2)
C56_4 C 0.0954(2) 0.0167(3) 0.0182(3)
C64_4 C 0.0182(3) 0.0954(2) 0.0167(3)
N10_4 N 0.9927(2) 0.9904(2) 0.1503(2)
C42_4 C 0.9374(3) 0.9777(3) 0.2517(3)
H47_4 H 0.9667 0.9431 0.2614
C43_4 C 0.8910(3) 0.9948(3) 0.2960(3)
H48_4 H 0.8877 0.9717 0.3360
N18_4 N 0.5895(4) 0.9584(3) 0.3068(4)
H78_4 H 0.6263 0.9998 0.1894
H79_4 H 0.6877 0.9653 0.2231
C71_4 C 0.5763(5) 0.8998(4) 0.2665(6)
H81_4 H 0.5291 0.8936 0.2624
H82_4 H 0.5957 0.8614 0.2873
H83_4 H 0.5954 0.9057 0.2230
C72_4 C 0.5577(6) 0.9623(5) 0.3726(5)
H85_4 H 0.5765 0.9290 0.4014
H86_4 H 0.5107 0.9548 0.3681
loop_
_geom_bond_atom_site_label_1
_geom_bond_atom_site_label_2
_geom_bond_site_symmetry_1
_geom_bond_site_symmetry_2
N9 C33 1_555 1_555
C34 C33 1_555 1_555
H35 C34 1_555 1_555
H36 C34 1_555 1_555
C35 N9 1_555 1_555
H37 C35 1_555 1_555
H38 C35 1_555 1_555
H39 C35 1_555 1_555
C36 N9 1_555 1_555
H40 C36 1_555 1_555
H41 C36 1_555 1_555
H42 C36 1_555 1_555
Sm1 O1 1_555 1_555
O1 C1 1_555 1_555
O2 C1 1_555 1_555
O3 Sm1 1_555 1_555
N3 C9 1_555 1_555
C1 C2 1_555 1_555
C2 C3 1_555 1_555
C6 C5 1_555 1_555
H4 C6 1_555 1_555
C7 C2 1_555 1_555
H5 C7 1_555 1_555
C9 O3 1_555 1_555
C10 C9 1_555 1_555
H6 C10 1_555 1_555
H7 C10 1_555 1_555
H8 C10 1_555 1_555
C11 N3 1_555 1_555
H9 C11 1_555 1_555
H10 C11 1_555 1_555
H11 C11 1_555 1_555
C12 N3 1_555 1_555
H12 C12 1_555 1_555
H13 C12 1_555 1_555
H14 C12 1_555 1_555
N6 H20 1_555 1_555
H22 C24 1_555 1_555
O8 Sm1 1_555 1_555
O9 Sm1 1_555 1_555
O10 Sm1 1_555 1_555
O11 Sm1 1_555 1_555
C6 C7 1_555 1_555
N5 C20 1_555 1_555
O6 C21 1_555 1_555
O7 C21 1_555 1_555
C21 C22 1_555 1_555
C22 C23 1_555 1_555
C26 C25 1_555 1_555
H23 C26 1_555 1_555
C27 C22 1_555 1_555
H24 C27 1_555 1_555
C28 N5 1_555 1_555
Sm2 O6 1_555 1_555
C26 C27 1_555 1_555
N3_2 C9_2 1_555 1_555
C10_2 C9_2 1_555 1_555
H7_2 C10_2 1_555 1_555
H8_2 C10_2 1_555 1_555
C11_2 N3_2 1_555 1_555
H9_2 C11_2 1_555 1_555
H10_2 C11_2 1_555 1_555
H11_2 C11_2 1_555 1_555
C12_2 N3_2 1_555 1_555
H12_2 C12_2 1_555 1_555
H13_2 C12_2 1_555 1_555
H14_2 C12_2 1_555 1_555
Sm2 O1_2 1_555 1_555
O1_2 C1_2 1_555 1_555
O2_2 C1_2 1_555 1_555
O3_2 Sm2 1_555 1_555
N1 H1 1_555 1_555
N2 C8_2 1_555 1_555
C1_2 C2_2 1_555 1_555
C2_2 C3_2 1_555 1_555
C3_2 H2 1_555 1_555
C4 C3_2 1_555 1_555
H3 C4 1_555 1_555
C5_2 N1 1_555 1_555
C6_2 C5_2 1_555 1_555
H4_2 C6_2 1_555 1_555
C7_2 C2_2 1_555 1_555
H5_2 C7_2 1_555 1_555
C8_2 N1 1_555 1_555
O4 C13 1_555 1_555
O5 C13 1_555 1_555
N4 H15_2 1_555 1_555
N5_2 C20_2 1_555 1_555
C13 C14 1_555 1_555
C14 C15 1_555 1_555
C15 H16 1_555 1_555
C16 C15 1_555 1_555
H17 C16 1_555 1_555
C17 N4 1_555 1_555
C18 C17 1_555 1_555
H18 C18 1_555 1_555
C19 C14 1_555 1_555
H19 C19 1_555 1_555
C20_2 N2 1_555 1_555
O11 C21_2 1_555 1_555
O7_2 C21_2 1_555 1_555
N6_2 H20_2 1_555 1_555
N7_2 C8_2 1_555 1_555
C21_2 C22_2 1_555 1_555
C22_2 C23_2 1_555 1_555
C23_2 H21_2 1_555 1_555
C24_2 C23_2 1_555 1_555
H22_2 C24_2 1_555 1_555
C25_2 N6_2 1_555 1_555
C26_2 C25_2 1_555 1_555
H23_2 C26_2 1_555 1_555
C27_2 C22_2 1_555 1_555
H24_2 C27_2 1_555 1_555
C28_2 N5_2 1_555 1_555
O8_2 Sm2 1_555 1_555
N8 C29 1_555 1_555
C29 O8_2 1_555 1_555
C30 C29 1_555 1_555
H25_2 C30 1_555 1_555
H26 C30 1_555 1_555
H27 C30 1_555 1_555
C31 N8 1_555 1_555
H28 C31 1_555 1_555
H29 C31 1_555 1_555
H30 C31 1_555 1_555
C32 N8 1_555 1_555
H31 C32 1_555 1_555
H32 C32 1_555 1_555
H33 C32 1_555 1_555
O9_2 Sm2 1_555 1_555
Sm3 O4 1_555 1_555
O10_2 Sm2 1_555 1_555
C4 C5_2 1_555 1_555
C6_2 C7_2 1_555 1_555
N4 C20_2 1_555 1_555
C16 C17 1_555 1_555
C18 C19 1_555 1_555
N6_2 C28_2 1_555 1_555
N7_2 C28_2 1_555 1_555
C24_2 C25_2 1_555 1_555
C26_2 C27_2 1_555 1_555
N1_2 H1_2 1_555 1_555
H3_2 C4_2 1_555 1_555
O10_2 C13_2 1_555 1_555
O5_2 C13_2 1_555 1_555
C13_2 C14_2 1_555 1_555
C14_2 C15_2 1_555 1_555
C18_2 C17_2 1_555 1_555
H18_2 C18_2 1_555 1_555
C19_2 C14_2 1_555 1_555
H19_2 C19_2 1_555 1_555
N8_2 C29_2 1_555 1_555
C30_2 C29_2 1_555 1_555
H26_2 C30_2 1_555 1_555
H27_2 C30_2 1_555 1_555
C31_2 N8_2 1_555 1_555
H28_2 C31_2 1_555 1_555
H29_2 C31_2 1_555 1_555
H30_2 C31_2 1_555 1_555
C32_2 N8_2 1_555 1_555
H31_2 C32_2 1_555 1_555
H32_2 C32_2 1_555 1_555
H33_2 C32_2 1_555 1_555
C18_2 C19_2 1_555 1_555
Sm3 O1_3 1_555 1_555
O1_3 C1_3 1_555 1_555
O2_3 C1_3 1_555 1_555
O3_3 Sm3 1_555 1_555
C1_3 C2_3 1_555 1_555
C2_3 C3_3 1_555 1_555
C6_3 C5_3 1_555 1_555
H4_3 C6_3 1_555 1_555
C7_3 C2_3 1_555 1_555
H5_3 C7_3 1_555 1_555
N7_3 C8_3 1_555 1_555
O8_3 Sm3 1_555 1_555
O9_3 Sm3 1_555 1_555
N9_2 C33_2 1_555 1_555
C33_2 O9_3 1_555 1_555
C34_2 C33_2 1_555 1_555
H34_3 C34_2 1_555 1_555
H35_2 C34_2 1_555 1_555
H36_2 C34_2 1_555 1_555
C35_2 N9_2 1_555 1_555
H37_2 C35_2 1_555 1_555
H38_2 C35_2 1_555 1_555
H39_2 C35_2 1_555 1_555
C36_2 N9_2 1_555 1_555
H40_2 C36_2 1_555 1_555
H41_2 C36_2 1_555 1_555
H42_2 C36_2 1_555 1_555
O11_2 Sm3 1_555 1_555
C6_3 C7_3 1_555 1_555
N7_3 C28_3 1_555 1_555
N4_2 H15_3 1_555 1_555
H17_2 C16_2 1_555 1_555
O11_2 C21_3 1_555 1_555
O7_3 C21_3 1_555 1_555
C21_3 C22_3 1_555 1_555
C22_3 C23_3 1_555 1_555
C26_3 C25_3 1_555 1_555
H23_3 C26_3 1_555 1_555
C27_3 C22_3 1_555 1_555
H24_3 C27_3 1_555 1_555
C26_3 C27_3 1_555 1_555
N2_3 C8_4 1_555 1_555
O10 C13_3 1_555 1_555
O5_3 C13_3 1_555 1_555
C13_3 C14_3 1_555 1_555
C14_3 C15_3 1_555 1_555
C18_3 C17_3 1_555 1_555
H18_3 C18_3 1_555 1_555
C19_3 C14_3 1_555 1_555
H19_3 C19_3 1_555 1_555
C20_4 N2_3 1_555 1_555
C18_3 C19_3 1_555 1_555
H3_3 C4_3 1_555 1_555
N8_3 C29_3 1_555 1_555
C30_3 C29_3 1_555 1_555
H26_3 C30_3 1_555 1_555
H27_3 C30_3 1_555 1_555
C31_3 N8_3 1_555 1_555
H28_3 C31_3 1_555 1_555
H29_3 C31_3 1_555 1_555
H30_3 C31_3 1_555 1_555
C32_3 N8_3 1_555 1_555
H31_3 C32_3 1_555 1_555
H32_3 C32_3 1_555 1_555
H33_3 C32_3 1_555 1_555
O4_2 C13_4 1_555 1_555
O5_4 C13_4 1_555 1_555
C13_4 C14_4 1_555 1_555
C14_4 C15_4 1_555 1_555
C15_4 H16_3 1_555 1_555
C16_3 C15_4 1_555 1_555
H17_3 C16_3 1_555 1_555
C17_4 N4_3 1_555 1_555
C18_4 C17_4 1_555 1_555
H18_4 C18_4 1_555 1_555
C19_4 C14_4 1_555 1_555
H19_4 C19_4 1_555 1_555
Sm3_2 O4_2 1_555 1_555
C16_3 C17_4 1_555 1_555
C18_4 C19_4 1_555 1_555
O6_2 C21_4 1_555 1_555
O7_4 C21_4 1_555 1_555
C21_4 C22_4 1_555 1_555
C22_4 C23_4 1_555 1_555
C23_4 H21_3 1_555 1_555
C24_3 C23_4 1_555 1_555
H22_3 C24_3 1_555 1_555
C25_4 N6_3 1_555 1_555
C26_4 C25_4 1_555 1_555
H23_4 C26_4 1_555 1_555
C27_4 C22_4 1_555 1_555
H24_4 C27_4 1_555 1_555
Sm3_2 O6_2 1_555 1_555
C24_3 C25_4 1_555 1_555
C26_4 C27_4 1_555 1_555
Sm3_2 O1_4 1_555 1_555
O1_4 C1_4 1_555 1_555
O2_4 C1_4 1_555 1_555
O3_4 Sm3_2 1_555 1_555
N3_3 C9_3 1_555 1_555
C1_4 C2_4 1_555 1_555
C2_4 C3_4 1_555 1_555
C3_4 H2_4 1_555 1_555
C4_4 C3_4 1_555 1_555
H3_4 C4_4 1_555 1_555
C5_4 N1_4 1_555 1_555
C6_4 C5_4 1_555 1_555
H4_4 C6_4 1_555 1_555
C7_4 C2_4 1_555 1_555
H5_4 C7_4 1_555 1_555
C9_3 O3_4 1_555 1_555
C10_3 C9_3 1_555 1_555
H6_4 C10_3 1_555 1_555
H7_3 C10_3 1_555 1_555
H8_3 C10_3 1_555 1_555
C11_3 N3_3 1_555 1_555
H9_3 C11_3 1_555 1_555
H10_3 C11_3 1_555 1_555
H11_3 C11_3 1_555 1_555
C12_3 N3_3 1_555 1_555
H12_3 C12_3 1_555 1_555
H13_3 C12_3 1_555 1_555
H14_3 C12_3 1_555 1_555
O8_4 Sm3_2 1_555 1_555
N8_4 C29_4 1_555 1_555
C29_4 O8_4 1_555 1_555
C30_4 C29_4 1_555 1_555
H25_4 C30_4 1_555 1_555
H26_4 C30_4 1_555 1_555
H27_4 C30_4 1_555 1_555
C31_4 N8_4 1_555 1_555
H28_4 C31_4 1_555 1_555
H29_4 C31_4 1_555 1_555
H30_4 C31_4 1_555 1_555
C32_4 N8_4 1_555 1_555
H31_4 C32_4 1_555 1_555
H32_4 C32_4 1_555 1_555
H33_4 C32_4 1_555 1_555
O9_4 Sm3_2 1_555 1_555
N9_3 C33_3 1_555 1_555
C33_3 O9_4 1_555 1_555
C34_3 C33_3 1_555 1_555
H34_4 C34_3 1_555 1_555
H35_3 C34_3 1_555 1_555
H36_3 C34_3 1_555 1_555
C35_3 N9_3 1_555 1_555
H37_3 C35_3 1_555 1_555
H38_3 C35_3 1_555 1_555
H39_3 C35_3 1_555 1_555
C36_3 N9_3 1_555 1_555
H40_3 C36_3 1_555 1_555
H41_3 C36_3 1_555 1_555
H42_3 C36_3 1_555 1_555
C4_4 C5_4 1_555 1_555
C6_4 C7_4 1_555 1_555
N9_4 C33_4 1_555 1_555
C34_4 C33_4 1_555 1_555
H35_4 C34_4 1_555 1_555
H36_4 C34_4 1_555 1_555
C35_4 N9_4 1_555 1_555
H37_4 C35_4 1_555 1_555
H38_4 C35_4 1_555 1_555
H39_4 C35_4 1_555 1_555
C36_4 N9_4 1_555 1_555
H40_4 C36_4 1_555 1_555
H41_4 C36_4 1_555 1_555
H42_4 C36_4 1_555 1_555
H17_4 C16_4 1_555 1_555
N3_4 C9_4 1_555 1_555
C10_4 C9_4 1_555 1_555
H7_4 C10_4 1_555 1_555
H8_4 C10_4 1_555 1_555
C11_4 N3_4 1_555 1_555
H9_4 C11_4 1_555 1_555
H10_4 C11_4 1_555 1_555
H11_4 C11_4 1_555 1_555
C12_4 N3_4 1_555 1_555
H12_4 C12_4 1_555 1_555
H13_4 C12_4 1_555 1_555
H14_4 C12_4 1_555 1_555
H22_4 C24_4 1_555 1_555
Sm4 O12 1_555 1_555
O12 C37 1_555 1_555
O13 C37 1_555 1_555
O14 Sm4 1_555 1_555
O15 Sm4 1_555 1_555
C37 C38 1_555 1_555
C38 C39 1_555 1_555
C39 H45 1_555 1_555
C40 C39 1_555 1_555
H46 C40 1_555 1_555
C41 N10 1_555 1_555
C42 C41 1_555 1_555
H47 C42 1_555 1_555
C43 C38 1_555 1_555
H48 C43 1_555 1_555
C45 O15 1_555 1_555
C46 C45 1_555 1_555
H51 C46 1_555 1_555
N15 H64 1_555 1_555
H67 C62 1_555 1_555
H68 C63 1_555 1_555
O20 Sm4 1_555 1_555
N17 C65 1_555 1_555
C65 O20 1_555 1_555
C66 C65 1_555 1_555
H69 C66 1_555 1_555
H70 C66 1_555 1_555
H71 C66 1_555 1_555
C67 N17 1_555 1_555
H72 C67 1_555 1_555
H73 C67 1_555 1_555
H74 C67 1_555 1_555
C68 N17 1_555 1_555
H75 C68 1_555 1_555
H76 C68 1_555 1_555
H77 C68 1_555 1_555
O21 Sm4 1_555 1_555
N18 C69 1_555 1_555
C69 O21 1_555 1_555
C70 C69 1_555 1_555
H78 C70 1_555 1_555
H79 C70 1_555 1_555
H80 C70 1_555 1_555
C71 N18 1_555 1_555
H81 C71 1_555 1_555
H82 C71 1_555 1_555
H83 C71 1_555 1_555
C72 N18 1_555 1_555
H84 C72 1_555 1_555
H85 C72 1_555 1_555
H86 C72 1_555 1_555
O22 Sm4 1_555 1_555
O23 Sm4 1_555 1_555
C40 C41 1_555 1_555
C42 C43 1_555 1_555
C62 C63 1_555 1_555
O16 C49 1_555 1_555
O17 C49 1_555 1_555
N13 H59 1_555 1_555
N14 C44 1_555 1_555
C49 C50 1_555 1_555
C50 C51 1_555 1_555
C51 H60 1_555 1_555
C52 C51 1_555 1_555
H61 C52 1_555 1_555
C53 N13 1_555 1_555
C54 C53 1_555 1_555
H62 C54 1_555 1_555
C55 C50 1_555 1_555
H63 C55 1_555 1_555
C56 N13 1_555 1_555
O18 C57 1_555 1_555
O19 C57 1_555 1_555
N16 C56 1_555 1_555
C57 C58 1_555 1_555
C58 C59 1_555 1_555
C59 H65 1_555 1_555
C60 C59 1_555 1_555
H66 C60 1_555 1_555
Sm5 O16 1_555 1_555
Sm6 O18 1_555 1_555
N14 C56 1_555 1_555
C52 C53 1_555 1_555
C54 C55 1_555 1_555
N16 C64 1_555 1_555
C60 C61 1_555 1_555
N13_2 H59_2 1_555 1_555
H62_2 C54_2 1_555 1_555
H63_2 C55_2 1_555 1_555
O18_2 C57_2 1_555 1_555
O19_2 C57_2 1_555 1_555
C57_2 C58_2 1_555 1_555
C58_2 C59_2 1_555 1_555
C59_2 H65_2 1_555 1_555
C60_2 C59_2 1_555 1_555
H66_2 C60_2 1_555 1_555
C61_2 N15_2 1_555 1_555
C62_2 C61_2 1_555 1_555
H67_2 C62_2 1_555 1_555
C63_2 C58_2 1_555 1_555
H68_2 C63_2 1_555 1_555
Sm5 O18_2 1_555 1_555
C54_2 C55_2 1_555 1_555
C60_2 C61_2 1_555 1_555
C62_2 C63_2 1_555 1_555
Sm4_2 O12_2 1_555 1_555
O12_2 C37_2 1_555 1_555
O13_2 C37_2 1_555 1_555
O14_2 Sm4_2 1_555 1_555
O15_2 Sm4_2 1_555 1_555
N10_2 H44_2 1_555 1_555
N11_2 C44_2 1_555 1_555
N12 C45_2 1_555 1_555
C37_2 C38_2 1_555 1_555
C38_2 C39_2 1_555 1_555
C39_2 H45_2 1_555 1_555
C40_2 C39_2 1_555 1_555
H46_2 C40_2 1_555 1_555
C41_2 N10_2 1_555 1_555
C42_2 C41_2 1_555 1_555
H47_2 C42_2 1_555 1_555
C43_2 C38_2 1_555 1_555
H48_2 C43_2 1_555 1_555
C44_2 N10_2 1_555 1_555
C45_2 O15_2 1_555 1_555
C46_2 C45_2 1_555 1_555
H49 C46_2 1_555 1_555
H50 C46_2 1_555 1_555
H51_2 C46_2 1_555 1_555
C47 N12 1_555 1_555
H52 C47 1_555 1_555
H53 C47 1_555 1_555
H54 C47 1_555 1_555
C48 N12 1_555 1_555
H55_2 C48 1_555 1_555
H56 C48 1_555 1_555
H57 C48 1_555 1_555
O16_2 C49_2 1_555 1_555
O17_2 C49_2 1_555 1_555
N14_2 C44_2 1_555 1_555
C49_2 C50_2 1_555 1_555
C50_2 C51_2 1_555 1_555
C51_2 H60_2 1_555 1_555
C52_2 C51_2 1_555 1_555
H61_2 C52_2 1_555 1_555
C64_2 N11_2 1_555 1_555
O20_2 Sm4_2 1_555 1_555
C65_2 O20_2 1_555 1_555
C66_2 C65_2 1_555 1_555
H71_2 C66_2 1_555 1_555
O21_2 Sm4_2 1_555 1_555
N18_2 C69_2 1_555 1_555
C69_2 O21_2 1_555 1_555
C70_2 C69_2 1_555 1_555
H78_2 C70_2 1_555 1_555
H79_2 C70_2 1_555 1_555
H80_2 C70_2 1_555 1_555
C71_2 N18_2 1_555 1_555
H81_2 C71_2 1_555 1_555
H82_2 C71_2 1_555 1_555
H83_2 C71_2 1_555 1_555
C72_2 N18_2 1_555 1_555
H84_2 C72_2 1_555 1_555
H85_2 C72_2 1_555 1_555
H86_2 C72_2 1_555 1_555
Sm6 O16_2 1_555 1_555
O22_2 Sm4_2 1_555 1_555
O23_2 Sm4_2 1_555 1_555
C40_2 C41_2 1_555 1_555
C42_2 C43_2 1_555 1_555
N14_2 C56_2 1_555 1_555
C52_2 C53_2 1_555 1_555
O23_2 C57_3 1_555 1_555
O19_3 C57_3 1_555 1_555
C57_3 C58_3 1_555 1_555
C58_3 C59_3 1_555 1_555
C59_3 H65_3 1_555 1_555
C60_3 C59_3 1_555 1_555
H66_3 C60_3 1_555 1_555
C60_3 C61_3 1_555 1_555
O22 C49_3 1_555 1_555
O17_3 C49_3 1_555 1_555
C49_3 C50_3 1_555 1_555
C50_3 C51_3 1_555 1_555
C51_3 H60_3 1_555 1_555
C52_3 C51_3 1_555 1_555
H61_3 C52_3 1_555 1_555
C52_3 C53_3 1_555 1_555
Sm5 O12_3 1_555 1_555
O12_3 C37_3 1_555 1_555
O13_3 C37_3 1_555 1_555
O14_3 Sm5 1_555 1_555
O15_3 Sm5 1_555 1_555
N12_2 C45_3 1_555 1_555
C37_3 C38_3 1_555 1_555
C38_3 C39_3 1_555 1_555
C39_3 H45_3 1_555 1_555
C40_3 C39_3 1_555 1_555
H46_3 C40_3 1_555 1_555
C45_3 O15_3 1_555 1_555
C46_3 C45_3 1_555 1_555
H49_2 C46_3 1_555 1_555
H50_2 C46_3 1_555 1_555
H51_3 C46_3 1_555 1_555
C47_2 N12_2 1_555 1_555
H52_2 C47_2 1_555 1_555
H53_2 C47_2 1_555 1_555
H54_2 C47_2 1_555 1_555
C48_2 N12_2 1_555 1_555
H55_3 C48_2 1_555 1_555
H56_2 C48_2 1_555 1_555
H57_2 C48_2 1_555 1_555
O20_3 Sm5 1_555 1_555
N17_2 C65_3 1_555 1_555
C65_3 O20_3 1_555 1_555
C66_3 C65_3 1_555 1_555
H69_2 C66_3 1_555 1_555
H70_2 C66_3 1_555 1_555
H71_3 C66_3 1_555 1_555
C67_2 N17_2 1_555 1_555
H72_2 C67_2 1_555 1_555
H73_2 C67_2 1_555 1_555
H74_2 C67_2 1_555 1_555
C68_2 N17_2 1_555 1_555
H75_3 C68_2 1_555 1_555
H76_2 C68_2 1_555 1_555
H77_2 C68_2 1_555 1_555
O21_3 Sm5 1_555 1_555
C69_3 O21_3 1_555 1_555
C70_3 C69_3 1_555 1_555
H80_3 C70_3 1_555 1_555
C40_3 C41_3 1_555 1_555
C67_3 N17_3 1_555 1_555
H72_3 C67_3 1_555 1_555
H73_3 C67_3 1_555 1_555
H74_3 C67_3 1_555 1_555
C68_3 N17_3 1_555 1_555
H76_3 C68_3 1_555 1_555
H77_3 C68_3 1_555 1_555
N10_3 H44_4 1_555 1_555
H47_3 C42_3 1_555 1_555
H48_3 C43_3 1_555 1_555
O22_2 C49_4 1_555 1_555
O17_4 C49_4 1_555 1_555
C49_4 C50_4 1_555 1_555
C50_4 C51_4 1_555 1_555
C51_4 H60_4 1_555 1_555
C52_4 C51_4 1_555 1_555
H61_4 C52_4 1_555 1_555
C53_4 N13_3 1_555 1_555
C54_3 C53_4 1_555 1_555
H62_3 C54_3 1_555 1_555
C55_3 C50_4 1_555 1_555
H63_3 C55_3 1_555 1_555
C71_3 N18_3 1_555 1_555
H81_3 C71_3 1_555 1_555
H82_3 C71_3 1_555 1_555
H83_3 C71_3 1_555 1_555
C72_3 N18_3 1_555 1_555
H85_3 C72_3 1_555 1_555
H86_3 C72_3 1_555 1_555
C42_3 C43_3 1_555 1_555
C52_4 C53_4 1_555 1_555
C54_3 C55_3 1_555 1_555
C47_3 N12_3 1_555 1_555
H52_3 C47_3 1_555 1_555
H53_3 C47_3 1_555 1_555
H54_3 C47_3 1_555 1_555
C48_3 N12_3 1_555 1_555
H56_3 C48_3 1_555 1_555
H57_3 C48_3 1_555 1_555
Sm6 O12_4 1_555 1_555
O12_4 C37_4 1_555 1_555
O13_4 C37_4 1_555 1_555
O14_4 Sm6 1_555 1_555
O15_4 Sm6 1_555 1_555
N11_4 C44_3 1_555 1_555
C37_4 C38_4 1_555 1_555
C38_4 C39_4 1_555 1_555
C39_4 H45_4 1_555 1_555
C40_4 C39_4 1_555 1_555
H46_4 C40_4 1_555 1_555
C45_4 O15_4 1_555 1_555
C46_4 C45_4 1_555 1_555
H51_4 C46_4 1_555 1_555
O23 C57_4 1_555 1_555
O19_4 C57_4 1_555 1_555
N15_3 H64_4 1_555 1_555
N16_4 C56_3 1_555 1_555
C57_4 C58_4 1_555 1_555
C58_4 C59_4 1_555 1_555
C59_4 H65_4 1_555 1_555
C60_4 C59_4 1_555 1_555
H66_4 C60_4 1_555 1_555
C61_4 N15_3 1_555 1_555
C62_3 C61_4 1_555 1_555
H67_3 C62_3 1_555 1_555
C63_3 C58_4 1_555 1_555
H68_3 C63_3 1_555 1_555
C64_3 N11_4 1_555 1_555
O20_4 Sm6 1_555 1_555
C65_4 O20_4 1_555 1_555
C66_4 C65_4 1_555 1_555
H71_4 C66_4 1_555 1_555
O21_4 Sm6 1_555 1_555
C69_4 O21_4 1_555 1_555
C70_4 C69_4 1_555 1_555
H80_4 C70_4 1_555 1_555
C40_4 C41_4 1_555 1_555
N15_3 C64_3 1_555 1_555
N16_4 C64_3 1_555 1_555
C60_4 C61_4 1_555 1_555
C62_3 C63_3 1_555 1_555
C47_4 N12_4 1_555 1_555
H52_4 C47_4 1_555 1_555
H53_4 C47_4 1_555 1_555
H54_4 C47_4 1_555 1_555
C48_4 N12_4 1_555 1_555
H56_4 C48_4 1_555 1_555
H57_4 C48_4 1_555 1_555
H62_4 C54_4 1_555 1_555
H63_4 C55_4 1_555 1_555
C54_4 C55_4 1_555 1_555
C67_4 N17_4 1_555 1_555
H72_4 C67_4 1_555 1_555
H73_4 C67_4 1_555 1_555
H74_4 C67_4 1_555 1_555
C68_4 N17_4 1_555 1_555
H76_4 C68_4 1_555 1_555
H77_4 C68_4 1_555 1_555
H67_4 C62_4 1_555 1_555
H68_4 C63_4 1_555 1_555
C62_4 C63_4 1_555 1_555
H47_4 C42_4 1_555 1_555
H48_4 C43_4 1_555 1_555
C71_4 N18_4 1_555 1_555
H81_4 C71_4 1_555 1_555
H82_4 C71_4 1_555 1_555
H83_4 C71_4 1_555 1_555
C72_4 N18_4 1_555 1_555
H85_4 C72_4 1_555 1_555
H86_4 C72_4 1_555 1_555
C42_4 C43_4 1_555 1_555

#END
