
###############################################################################
#
# This file contains modified crystal structure data generated from the
# MOF subset of the Cambridge Structural Database (CSD) v543 
# hosted by the Cambridge Crystallographic Data Centre (CCDC).
#
# This work is licensed under the Creative Commons
# Attribution-NonCommercial-ShareAlike 4.0 International License.
# To view a copy of this license, visit
# http://creativecommons.org/licenses/by-nc-sa/4.0/
# or send a letter to
# Creative Commons, PO Box 1866, Mountain View, CA 94042, USA.
#
# CIF created using the CSD Python API on 29 September 2022
# The structure has been converted into the P1 space group
# The structure has a 3D framework
# The original CSD entry SOZSEH is in the cubic crystal system
# The original CSD entry SOZSEH is in a Sohncke space group
# The framework has been calculated to contain at least 10.0% void space
# The void calculation uses a probe of radius 1.32A, grid spacing 0.4
# Generated hydrogen atom positions removed from atoms on special positions
#
###############################################################################

data_SOZSEH
_chemical_formula_moiety         '(C288 H348 Gd8 N72 O76)n'
_symmetry_cell_setting           triclinic
_symmetry_space_group_name_H-M   'P 1'
_symmetry_Int_Tables_number      1
_space_group_name_Hall           'P 1'
loop_
_symmetry_equiv_pos_site_id
_symmetry_equiv_pos_as_xyz
1 x,y,z
_cell_length_a                   20.425(4)
_cell_length_b                   20.425(4)
_cell_length_c                   20.425(4)
_cell_angle_alpha                90
_cell_angle_beta                 90
_cell_angle_gamma                90
_cell_volume                     8520.91
loop_
_atom_site_label
_atom_site_type_symbol
_atom_site_fract_x
_atom_site_fract_y
_atom_site_fract_z
N9 N 0.0850(5) 0.0489(4) 0.3086(6)
C33 C 0.1228(5) 0.0030(5) 0.2964(6)
C34 C 0.1598(6) 0.0039(6) 0.2295(5)
H35 H 0.1797 0.0470 0.2228
C35 C 0.0492(6) 0.0453(6) 0.3734(6)
H37 H 0.0625 0.0056 0.3968
H38 H 0.0019 0.0442 0.3656
H39 H 0.0602 0.0838 0.3998
C36 C 0.0693(8) 0.1059(5) 0.2684(8)
H40 H 0.1016 0.1404 0.2764
H41 H 0.0256 0.1220 0.2799
H42 H 0.0701 0.0935 0.2221
Gd1 Gd 0.152518(15) 0.847482(15) 0.347482(15)
O1 O 0.1332(3) 0.8084(3) 0.2450(3)
O2 O 0.0625(3) 0.8822(3) 0.2144(3)
O3 O 0.1654(3) 0.8676(3) 0.4578(3)
N3 N 0.1914(6) 0.9150(5) 0.5489(4)
C1 C 0.0876(3) 0.8280(4) 0.2090(3)
C2 C 0.0661(3) 0.7814(3) 0.1561(3)
C3 C 0.0173(4) 0.7974(3) 0.1140(4)
C5 C 0.0238(3) 0.6922(3) 0.0607(3)
C6 C 0.0743(3) 0.6766(3) 0.1037(3)
H4 H 0.0952 0.6352 0.1003
C7 C 0.0939(3) 0.7189(3) 0.1499(3)
H5 H 0.1276 0.7062 0.1794
C9 C 0.2036(6) 0.8772(5) 0.5030(5)
C10 C 0.2705(5) 0.8402(6) 0.5039(6)
H6 H 0.2702 0.8058 0.4703
H7 H 0.2772 0.8203 0.5470
H8 H 0.3060 0.8711 0.4948
C11 C 0.1266(6) 0.9508(6) 0.5453(6)
H9 H 0.1032 0.9375 0.5056
H10 H 0.1344 0.9981 0.5442
H11 H 0.1002 0.9398 0.5838
C12 C 0.2316(8) 0.9307(8) 0.6059(5)
H12 H 0.2236 0.8984 0.6404
H13 H 0.2201 0.9744 0.6220
H14 H 0.2779 0.9299 0.5935
N6 N 0.1556(3) 0.4908(3) 0.0008(3)
H20 H 0.1703 0.5093 0.0367
N7 N 0.0780(3) 0.5706(3) 0.0085(3)
H21 H 0.3395 0.3829 0.0022
C24 C 0.2550(4) 0.4325(4) 0.0047(4)
H22 H 0.2677 0.4607 0.0394
O8 O 0.0422(3) 0.8346(3) 0.3676(3)
H25 H 0.0297 0.7298 0.3058
H27 H 0.0052 0.6940 0.3711
O9 O 0.1324(3) 0.9578(3) 0.3346(3)
H34 H 0.1942 0.9703 0.2298
H36 H 0.1289 0.9948 0.1940
O10 O 0.2550(3) 0.8668(3) 0.3084(3)
O11 O 0.1916(3) 0.7450(3) 0.3668(3)
C8 C 0.0252(3) 0.5979(3) 0.9835(4)
H15 H 0.0093 0.4633 0.8297
N5 N 0.0706(3) 0.4915(3) 0.9220(3)
C20 C 0.0165(4) 0.5252(3) 0.9021(3)
O6 O 0.3084(3) 0.2550(3) 0.8668(3)
O7 O 0.3822(3) 0.2856(3) 0.9375(3)
C21 C 0.3280(4) 0.2910(3) 0.9124(3)
C22 C 0.2814(3) 0.3439(3) 0.9339(3)
C23 C 0.2974(3) 0.3860(4) 0.9827(4)
C25 C 0.1922(3) 0.4393(3) 0.9762(3)
C26 C 0.1766(3) 0.3963(3) 0.9257(3)
H23 H 0.1352 0.3997 0.9048
C27 C 0.2189(3) 0.3501(3) 0.9061(3)
H24 H 0.2062 0.3206 0.8724
C28 C 0.0979(3) 0.5165(4) 0.9748(3)
Gd2 Gd 0.347482(15) 0.152518(15) 0.847482(15)
N3_2 N 0.3086(6) 0.0850(5) 0.0489(4)
C9_2 C 0.2964(6) 0.1228(5) 0.0030(5)
C10_2 C 0.2295(5) 0.1598(6) 0.0039(6)
H7_2 H 0.2228 0.1797 0.0470
C11_2 C 0.3734(6) 0.0492(6) 0.0453(6)
H9_2 H 0.3968 0.0625 0.0056
H10_2 H 0.3656 0.0019 0.0442
H11_2 H 0.3998 0.0602 0.0838
C12_2 C 0.2684(8) 0.0693(8) 0.1059(5)
H12_2 H 0.2764 0.1016 0.1404
H13_2 H 0.2799 0.0256 0.1220
H14_2 H 0.2221 0.0701 0.0935
O1_2 O 0.3668(3) 0.1916(3) 0.7450(3)
O2_2 O 0.4375(3) 0.1178(3) 0.7144(3)
O3_2 O 0.3346(3) 0.1324(3) 0.9578(3)
N1 N 0.5008(3) 0.3444(3) 0.5092(3)
H1 H 0.5367 0.3297 0.4907
N2 N 0.5085(3) 0.4220(3) 0.4294(3)
C1_2 C 0.4124(3) 0.1720(4) 0.7090(3)
C2_2 C 0.4339(3) 0.2186(3) 0.6561(3)
C3_2 C 0.4827(4) 0.2026(3) 0.6140(4)
H2 H 0.5022 0.1605 0.6171
C4 C 0.5047(4) 0.2450(4) 0.5675(4)
H3 H 0.5394 0.2323 0.5393
C5_2 C 0.4762(3) 0.3078(3) 0.5607(3)
C6_2 C 0.4257(3) 0.3234(3) 0.6037(3)
H4_2 H 0.4048 0.3648 0.6003
C7_2 C 0.4061(3) 0.2811(3) 0.6499(3)
H5_2 H 0.3724 0.2938 0.6794
C8_2 C 0.4748(3) 0.4021(3) 0.4835(4)
H6_2 H 0.2298 0.1942 0.9703
H8_2 H 0.1940 0.1289 0.9948
O4 O 0.7450(3) 0.3668(3) 0.1916(3)
O5 O 0.7144(3) 0.4375(3) 0.1178(3)
N4 N 0.5092(3) 0.5008(3) 0.3444(3)
H15_2 H 0.4907 0.5367 0.3297
N5_2 N 0.4294(3) 0.5085(3) 0.4220(3)
C13 C 0.7090(3) 0.4124(3) 0.1720(4)
C14 C 0.6561(3) 0.4339(3) 0.2186(3)
C15 C 0.6140(4) 0.4827(4) 0.2026(3)
H16 H 0.6171 0.5022 0.1605
C16 C 0.5675(4) 0.5047(4) 0.2450(4)
H17 H 0.5393 0.5394 0.2323
C17 C 0.5607(3) 0.4762(3) 0.3078(3)
C18 C 0.6037(3) 0.4257(3) 0.3234(3)
H18 H 0.6003 0.4048 0.3648
C19 C 0.6499(3) 0.4061(3) 0.2811(3)
H19 H 0.6794 0.3724 0.2938
C20_2 C 0.4835(4) 0.4748(3) 0.4021(3)
O7_2 O 0.1178(3) 0.7144(3) 0.4375(3)
N6_2 N 0.3444(3) 0.5092(3) 0.5008(3)
H20_2 H 0.3297 0.4907 0.5367
N7_2 N 0.4220(3) 0.4294(3) 0.5085(3)
C21_2 C 0.1720(4) 0.7090(3) 0.4124(3)
C22_2 C 0.2186(3) 0.6561(3) 0.4339(3)
C23_2 C 0.2026(3) 0.6140(4) 0.4827(4)
H21_2 H 0.1605 0.6171 0.5022
C24_2 C 0.2450(4) 0.5675(4) 0.5047(4)
H22_2 H 0.2323 0.5393 0.5394
C25_2 C 0.3078(3) 0.5607(3) 0.4762(3)
C26_2 C 0.3234(3) 0.6037(3) 0.4257(3)
H23_2 H 0.3648 0.6003 0.4048
C27_2 C 0.2811(3) 0.6499(3) 0.4061(3)
H24_2 H 0.2938 0.6794 0.3724
C28_2 C 0.4021(3) 0.4835(4) 0.4748(3)
O8_2 O 0.4578(3) 0.1654(3) 0.8676(3)
N8 N 0.5489(4) 0.1914(6) 0.9150(5)
C29 C 0.5030(5) 0.2036(6) 0.8772(5)
C30 C 0.5039(6) 0.2705(5) 0.8402(6)
H25_2 H 0.4703 0.2702 0.8058
H26 H 0.5470 0.2772 0.8203
H27_2 H 0.4948 0.3060 0.8711
C31 C 0.5453(6) 0.1266(6) 0.9508(6)
H28 H 0.5056 0.1032 0.9375
H29 H 0.5442 0.1344 0.9981
H30 H 0.5838 0.1002 0.9398
C32 C 0.6059(5) 0.2316(8) 0.9307(8)
H31 H 0.6404 0.2236 0.8984
H32 H 0.6220 0.2201 0.9744
H33 H 0.5935 0.2779 0.9299
O9_2 O 0.3676(3) 0.0422(3) 0.8346(3)
H34_2 H 0.3058 0.0297 0.7298
H36_2 H 0.3711 0.0052 0.6940
Gd3 Gd 0.847482(15) 0.347482(15) 0.152518(15)
O10_2 O 0.2450(3) 0.1332(3) 0.8084(3)
N1_2 N 0.0008(3) 0.1556(3) 0.4908(3)
H1_2 H 0.0367 0.1703 0.5093
N2_2 N 0.0085(3) 0.0780(3) 0.5706(3)
H2_2 H 0.0022 0.3395 0.3829
C4_2 C 0.0047(4) 0.2550(4) 0.4325(4)
H3_2 H 0.0394 0.2677 0.4607
O5_2 O 0.2144(3) 0.0625(3) 0.8822(3)
C13_2 C 0.2090(3) 0.0876(3) 0.8280(4)
C14_2 C 0.1561(3) 0.0661(3) 0.7814(3)
C15_2 C 0.1140(4) 0.0173(4) 0.7974(3)
C17_2 C 0.0607(3) 0.0238(3) 0.6922(3)
C18_2 C 0.1037(3) 0.0743(3) 0.6766(3)
H18_2 H 0.1003 0.0952 0.6352
C19_2 C 0.1499(3) 0.0939(3) 0.7189(3)
H19_2 H 0.1794 0.1276 0.7062
N8_2 N 0.0489(4) 0.3086(6) 0.0850(5)
C29_2 C 0.0030(5) 0.2964(6) 0.1228(5)
C30_2 C 0.0039(6) 0.2295(5) 0.1598(6)
H26_2 H 0.0470 0.2228 0.1797
C31_2 C 0.0453(6) 0.3734(6) 0.0492(6)
H28_2 H 0.0056 0.3968 0.0625
H29_2 H 0.0442 0.3656 0.0019
H30_2 H 0.0838 0.3998 0.0602
C32_2 C 0.1059(5) 0.2684(8) 0.0693(8)
H31_2 H 0.1404 0.2764 0.1016
H32_2 H 0.1220 0.2799 0.0256
H33_2 H 0.0935 0.2221 0.0701
O1_3 O 0.8668(3) 0.3084(3) 0.2550(3)
O2_3 O 0.9375(3) 0.3822(3) 0.2856(3)
O3_3 O 0.8346(3) 0.3676(3) 0.0422(3)
C1_3 C 0.9124(3) 0.3280(4) 0.2910(3)
C2_3 C 0.9339(3) 0.2814(3) 0.3439(3)
C3_3 C 0.9827(4) 0.2974(3) 0.3860(4)
C5_3 C 0.9762(3) 0.1922(3) 0.4393(3)
C6_3 C 0.9257(3) 0.1766(3) 0.3963(3)
H4_3 H 0.9048 0.1352 0.3997
C7_3 C 0.9061(3) 0.2189(3) 0.3501(3)
H5_3 H 0.8724 0.2062 0.3206
C8_3 C 0.9748(3) 0.0979(3) 0.5165(4)
H6_3 H 0.7298 0.3058 0.0297
H8_3 H 0.6940 0.3711 0.0052
C20_3 C 0.9835(4) 0.0252(3) 0.5979(3)
H20_3 H 0.8297 0.0093 0.4633
N7_3 N 0.9220(3) 0.0706(3) 0.4915(3)
C28_3 C 0.9021(3) 0.0165(4) 0.5252(3)
O8_3 O 0.9578(3) 0.3346(3) 0.1324(3)
H25_3 H 0.9703 0.2298 0.1942
H27_3 H 0.9948 0.1940 0.1289
O9_3 O 0.8676(3) 0.4578(3) 0.1654(3)
N9_2 N 0.9150(5) 0.5489(4) 0.1914(6)
C33_2 C 0.8772(5) 0.5030(5) 0.2036(6)
C34_2 C 0.8402(6) 0.5039(6) 0.2705(5)
H34_3 H 0.8058 0.4703 0.2702
H35_2 H 0.8203 0.5470 0.2772
H36_3 H 0.8711 0.4948 0.3060
C35_2 C 0.9508(6) 0.5453(6) 0.1266(6)
H37_2 H 0.9375 0.5056 0.1032
H38_2 H 0.9981 0.5442 0.1344
H39_2 H 0.9398 0.5838 0.1002
C36_2 C 0.9307(8) 0.6059(5) 0.2316(8)
H40_2 H 0.8984 0.6404 0.2236
H41_2 H 0.9744 0.6220 0.2201
H42_2 H 0.9299 0.5935 0.2779
O11_2 O 0.8084(3) 0.2450(3) 0.1332(3)
N4_2 N 0.4908(3) 0.0008(3) 0.1556(3)
H15_3 H 0.5093 0.0367 0.1703
N5_3 N 0.5706(3) 0.0085(3) 0.0780(3)
H16_2 H 0.3829 0.0022 0.3395
C16_2 C 0.4325(4) 0.0047(4) 0.2550(4)
H17_2 H 0.4607 0.0394 0.2677
O7_3 O 0.8822(3) 0.2144(3) 0.0625(3)
C21_3 C 0.8280(4) 0.2090(3) 0.0876(3)
C22_3 C 0.7814(3) 0.1561(3) 0.0661(3)
C23_3 C 0.7974(3) 0.1140(4) 0.0173(4)
C25_3 C 0.6922(3) 0.0607(3) 0.0238(3)
C26_3 C 0.6766(3) 0.1037(3) 0.0743(3)
H23_3 H 0.6352 0.1003 0.0952
C27_3 C 0.7189(3) 0.1499(3) 0.0939(3)
H24_3 H 0.7062 0.1794 0.1276
H1_3 H 0.4633 0.8297 0.0093
N2_3 N 0.4915(3) 0.9220(3) 0.0706(3)
C8_4 C 0.5252(3) 0.9021(3) 0.0165(4)
O5_3 O 0.2856(3) 0.9375(3) 0.3822(3)
C13_3 C 0.2910(3) 0.9124(3) 0.3280(4)
C14_3 C 0.3439(3) 0.9339(3) 0.2814(3)
C15_3 C 0.3860(4) 0.9827(4) 0.2974(3)
C17_3 C 0.4393(3) 0.9762(3) 0.1922(3)
C18_3 C 0.3963(3) 0.9257(3) 0.1766(3)
H18_3 H 0.3997 0.9048 0.1352
C19_3 C 0.3501(3) 0.9061(3) 0.2189(3)
H19_3 H 0.3206 0.8724 0.2062
C20_4 C 0.5165(4) 0.9748(3) 0.0979(3)
C28_4 C 0.5979(3) 0.9835(4) 0.0252(3)
N1_3 N 0.9992(3) 0.6556(3) 0.0092(3)
H2_3 H 0.9978 0.8395 0.1171
C4_3 C 0.9953(4) 0.7550(4) 0.0675(4)
H3_3 H 0.9606 0.7677 0.0393
N8_3 N 0.9511(4) 0.8086(6) 0.4150(5)
C29_3 C 0.9970(5) 0.7964(6) 0.3772(5)
C30_3 C 0.9961(6) 0.7295(5) 0.3402(6)
H26_3 H 0.9530 0.7228 0.3203
C31_3 C 0.9547(6) 0.8734(6) 0.4508(6)
H28_3 H 0.9944 0.8968 0.4375
H29_3 H 0.9558 0.8656 0.4981
H30_3 H 0.9162 0.8998 0.4398
C32_3 C 0.8941(5) 0.7684(8) 0.4307(8)
H31_3 H 0.8596 0.7764 0.3984
H32_3 H 0.8780 0.7799 0.4744
H33_3 H 0.9065 0.7221 0.4299
H1_4 H 0.9633 0.6703 0.9907
N2_4 N 0.9915(3) 0.5780(3) 0.9294(3)
O4_2 O 0.7550(3) 0.6332(3) 0.6916(3)
O5_4 O 0.7856(3) 0.5625(3) 0.6178(3)
N4_3 N 0.9908(3) 0.4992(3) 0.8444(3)
C13_4 C 0.7910(3) 0.5876(3) 0.6720(4)
C14_4 C 0.8439(3) 0.5661(3) 0.7186(3)
C15_4 C 0.8860(4) 0.5173(4) 0.7026(3)
H16_3 H 0.8829 0.4978 0.6605
C16_3 C 0.9325(4) 0.4953(4) 0.7450(4)
H17_3 H 0.9607 0.4606 0.7323
C17_4 C 0.9393(3) 0.5238(3) 0.8078(3)
C18_4 C 0.8963(3) 0.5743(3) 0.8234(3)
H18_4 H 0.8997 0.5952 0.8648
C19_4 C 0.8501(3) 0.5939(3) 0.7811(3)
H19_4 H 0.8206 0.6276 0.7938
Gd3_2 Gd 0.652518(15) 0.652518(15) 0.652518(15)
H15_4 H 0.9907 0.9633 0.6703
N5_4 N 0.9294(3) 0.9915(3) 0.5780(3)
O6_2 O 0.6916(3) 0.7550(3) 0.6332(3)
O7_4 O 0.6178(3) 0.7856(3) 0.5625(3)
N6_3 N 0.8444(3) 0.9908(3) 0.4992(3)
C21_4 C 0.6720(4) 0.7910(3) 0.5876(3)
C22_4 C 0.7186(3) 0.8439(3) 0.5661(3)
C23_4 C 0.7026(3) 0.8860(4) 0.5173(4)
H21_3 H 0.6605 0.8829 0.4978
C24_3 C 0.7450(4) 0.9325(4) 0.4953(4)
H22_3 H 0.7323 0.9607 0.4606
C25_4 C 0.8078(3) 0.9393(3) 0.5238(3)
C26_4 C 0.8234(3) 0.8963(3) 0.5743(3)
H23_4 H 0.8648 0.8997 0.5952
C27_4 C 0.7811(3) 0.8501(3) 0.5939(3)
H24_4 H 0.7938 0.8206 0.6276
O1_4 O 0.6332(3) 0.6916(3) 0.7550(3)
O2_4 O 0.5625(3) 0.6178(3) 0.7856(3)
O3_4 O 0.6654(3) 0.6324(3) 0.5422(3)
N1_4 N 0.4992(3) 0.8444(3) 0.9908(3)
N3_3 N 0.6914(6) 0.5850(5) 0.4511(4)
C1_4 C 0.5876(3) 0.6720(4) 0.7910(3)
C2_4 C 0.5661(3) 0.7186(3) 0.8439(3)
C3_4 C 0.5173(4) 0.7026(3) 0.8860(4)
H2_4 H 0.4978 0.6605 0.8829
C4_4 C 0.4953(4) 0.7450(4) 0.9325(4)
H3_4 H 0.4606 0.7323 0.9607
C5_4 C 0.5238(3) 0.8078(3) 0.9393(3)
C6_4 C 0.5743(3) 0.8234(3) 0.8963(3)
H4_4 H 0.5952 0.8648 0.8997
C7_4 C 0.5939(3) 0.7811(3) 0.8501(3)
H5_4 H 0.6276 0.7938 0.8206
C9_3 C 0.7036(6) 0.6228(5) 0.4970(5)
C10_3 C 0.7705(5) 0.6598(6) 0.4961(6)
H6_4 H 0.7702 0.6942 0.5297
H7_3 H 0.7772 0.6797 0.4530
H8_4 H 0.8060 0.6289 0.5052
C11_3 C 0.6266(6) 0.5492(6) 0.4547(6)
H9_3 H 0.6032 0.5625 0.4944
H10_3 H 0.6344 0.5019 0.4558
H11_3 H 0.6002 0.5602 0.4162
C12_3 C 0.7316(8) 0.5693(8) 0.3941(5)
H12_3 H 0.7236 0.6016 0.3596
H13_3 H 0.7201 0.5256 0.3780
H14_3 H 0.7779 0.5701 0.4065
H20_4 H 0.6703 0.9907 0.9633
N7_4 N 0.5780(3) 0.9294(3) 0.9915(3)
O8_4 O 0.5422(3) 0.6654(3) 0.6324(3)
N8_4 N 0.4511(4) 0.6914(6) 0.5850(5)
C29_4 C 0.4970(5) 0.7036(6) 0.6228(5)
C30_4 C 0.4961(6) 0.7705(5) 0.6598(6)
H25_4 H 0.5297 0.7702 0.6942
H26_4 H 0.4530 0.7772 0.6797
H27_4 H 0.5052 0.8060 0.6289
C31_4 C 0.4547(6) 0.6266(6) 0.5492(6)
H28_4 H 0.4944 0.6032 0.5625
H29_4 H 0.4558 0.6344 0.5019
H30_4 H 0.4162 0.6002 0.5602
C32_4 C 0.3941(5) 0.7316(8) 0.5693(8)
H31_4 H 0.3596 0.7236 0.6016
H32_4 H 0.3780 0.7201 0.5256
H33_4 H 0.4065 0.7779 0.5701
O9_4 O 0.6324(3) 0.5422(3) 0.6654(3)
N9_3 N 0.5850(5) 0.4511(4) 0.6914(6)
C33_3 C 0.6228(5) 0.4970(5) 0.7036(6)
C34_3 C 0.6598(6) 0.4961(6) 0.7705(5)
H34_4 H 0.6942 0.5297 0.7702
H35_3 H 0.6797 0.4530 0.7772
H36_4 H 0.6289 0.5052 0.8060
C35_3 C 0.5492(6) 0.4547(6) 0.6266(6)
H37_3 H 0.5625 0.4944 0.6032
H38_3 H 0.5019 0.4558 0.6344
H39_3 H 0.5602 0.4162 0.6002
C36_3 C 0.5693(8) 0.3941(5) 0.7316(8)
H40_3 H 0.6016 0.3596 0.7236
H41_3 H 0.5256 0.3780 0.7201
H42_3 H 0.5701 0.4065 0.7779
N9_4 N 0.4150(5) 0.9511(4) 0.8086(6)
C33_4 C 0.3772(5) 0.9970(5) 0.7964(6)
C34_4 C 0.3402(6) 0.9961(6) 0.7295(5)
H35_4 H 0.3203 0.9530 0.7228
C35_4 C 0.4508(6) 0.9547(6) 0.8734(6)
H37_4 H 0.4375 0.9944 0.8968
H38_4 H 0.4981 0.9558 0.8656
H39_4 H 0.4398 0.9162 0.8998
C36_4 C 0.4307(8) 0.8941(5) 0.7684(8)
H40_4 H 0.3984 0.8596 0.7764
H41_4 H 0.4744 0.8780 0.7799
H42_4 H 0.4299 0.9065 0.7221
N4_4 N 0.0092(3) 0.9992(3) 0.6556(3)
H16_4 H 0.1171 0.9978 0.8395
C16_4 C 0.0675(4) 0.9953(4) 0.7550(4)
H17_4 H 0.0393 0.9606 0.7677
N3_4 N 0.8086(6) 0.4150(5) 0.9511(4)
C9_4 C 0.7964(6) 0.3772(5) 0.9970(5)
C10_4 C 0.7295(5) 0.3402(6) 0.9961(6)
H7_4 H 0.7228 0.3203 0.9530
C11_4 C 0.8734(6) 0.4508(6) 0.9547(6)
H9_4 H 0.8968 0.4375 0.9944
H10_4 H 0.8656 0.4981 0.9558
H11_4 H 0.8998 0.4398 0.9162
C12_4 C 0.7684(8) 0.4307(8) 0.8941(5)
H12_4 H 0.7764 0.3984 0.8596
H13_4 H 0.7799 0.4744 0.8780
H14_4 H 0.7221 0.4299 0.9065
N6_4 N 0.6556(3) 0.0092(3) 0.9992(3)
H21_4 H 0.8395 0.1171 0.9978
C24_4 C 0.7550(4) 0.0675(4) 0.9953(4)
H22_4 H 0.7677 0.0393 0.9606
Gd4 Gd 0.333844(13) 0.666156(13) 0.166156(13)
O12 O 0.2355(2) 0.6172(2) 0.1788(2)
O13 O 0.2099(2) 0.5320(3) 0.1156(2)
O14 O 0.2637(2) 0.7363(2) 0.2363(2)
O15 O 0.3256(3) 0.6331(3) 0.0557(2)
N10 N 0.0062(3) 0.4916(3) 0.3485(3)
N11 N 0.0104(3) 0.5730(3) 0.4277(3)
C37 C 0.2031(3) 0.5655(3) 0.1666(3)
C38 C 0.1525(3) 0.5461(3) 0.2151(3)
C39 C 0.1466(3) 0.5789(3) 0.2734(3)
H45 H 0.1758 0.6139 0.2827
C40 C 0.0997(3) 0.5627(3) 0.3189(3)
H46 H 0.0964 0.5868 0.3585
C41 C 0.0572(3) 0.5108(3) 0.3066(3)
C42 C 0.0624(4) 0.4780(4) 0.2468(4)
H47 H 0.0330 0.4434 0.2367
C43 C 0.1097(3) 0.4954(4) 0.2030(3)
H48 H 0.1132 0.4720 0.1630
C45 C 0.2909(4) 0.6282(4) 0.0079(4)
C46 C 0.2266(5) 0.6617(6) 0.0032(6)
H51 H 0.2167 0.6833 0.0449
N15 N 0.0084(3) 0.6515(3) 0.5062(3)
H64 H 0.0452 0.6629 0.4869
C62 C 0.0220(4) 0.7532(4) 0.5624(4)
H67 H 0.0566 0.7633 0.5330
C63 C 0.0046(4) 0.7970(3) 0.6097(3)
H68 H 0.0280 0.8370 0.6132
O20 O 0.4443(2) 0.6744(3) 0.1331(3)
N17 N 0.5432(4) 0.6908(5) 0.0911(4)
C65 C 0.4921(4) 0.7091(4) 0.1282(4)
C66 C 0.4968(6) 0.7734(5) 0.1617(6)
H69 H 0.5066 0.8075 0.1295
H70 H 0.5318 0.7718 0.1945
H71 H 0.4551 0.7833 0.1833
C67 C 0.6020(5) 0.7278(7) 0.0804(7)
H72 H 0.6082 0.7345 0.0333
H73 H 0.6395 0.7038 0.0982
H74 H 0.5983 0.7703 0.1023
C68 C 0.5410(7) 0.6260(6) 0.0581(6)
H75 H 0.5011 0.6028 0.0710
H76 H 0.5794 0.6002 0.0709
H77 H 0.5412 0.6324 0.0105
O21 O 0.3669(3) 0.5557(2) 0.1744(3)
N18 N 0.4089(4) 0.4568(4) 0.1908(5)
C69 C 0.3718(4) 0.5079(4) 0.2091(4)
C70 C 0.3383(6) 0.5032(6) 0.2734(5)
H78 H 0.3705 0.4934 0.3075
H79 H 0.3055 0.4682 0.2718
H80 H 0.3167 0.5449 0.2833
C71 C 0.4196(7) 0.3980(5) 0.2278(7)
H81 H 0.4667 0.3918 0.2345
H82 H 0.4018 0.3605 0.2038
H83 H 0.3977 0.4017 0.2703
C72 C 0.4419(6) 0.4590(7) 0.1260(6)
H84 H 0.4290 0.4989 0.1028
H85 H 0.4291 0.4206 0.1002
H86 H 0.4895 0.4588 0.1324
O22 O 0.3212(2) 0.7645(2) 0.1172(2)
O23 O 0.3828(2) 0.6788(2) 0.2645(2)
H44 H 0.9869 0.4548 0.3371
C44 C 0.9820(3) 0.5191(3) 0.4025(3)
O16 O 0.6788(2) 0.2645(2) 0.3828(2)
O17 O 0.6156(2) 0.2901(2) 0.4680(3)
N13 N 0.8485(3) 0.4938(3) 0.5084(3)
H59 H 0.8371 0.5131 0.5452
N14 N 0.9277(3) 0.4896(3) 0.4270(3)
C49 C 0.6666(3) 0.2969(3) 0.4345(3)
C50 C 0.7151(3) 0.3475(3) 0.4539(3)
C51 C 0.7734(3) 0.3534(3) 0.4211(3)
H60 H 0.7827 0.3242 0.3861
C52 C 0.8189(3) 0.4003(3) 0.4373(3)
H61 H 0.8585 0.4036 0.4132
C53 C 0.8066(3) 0.4428(3) 0.4892(3)
C54 C 0.7468(4) 0.4376(4) 0.5220(4)
H62 H 0.7367 0.4670 0.5566
C55 C 0.7030(3) 0.3903(3) 0.5046(4)
H63 H 0.6630 0.3868 0.5280
C56 C 0.9025(3) 0.5180(3) 0.4809(3)
O18 O 0.8828(2) 0.8212(2) 0.7355(2)
O19 O 0.9680(3) 0.8844(2) 0.7099(2)
N16 N 0.9270(3) 0.5723(3) 0.5104(3)
C57 C 0.9345(3) 0.8334(3) 0.7031(3)
C58 C 0.9539(3) 0.7849(3) 0.6525(3)
C59 C 0.9211(3) 0.7266(3) 0.6466(3)
H65 H 0.8861 0.7173 0.6758
C60 C 0.9373(3) 0.6811(3) 0.5997(3)
H66 H 0.9132 0.6415 0.5964
C61 C 0.9892(3) 0.6934(3) 0.5572(3)
C64 C 0.9809(3) 0.5975(3) 0.4820(3)
Gd5 Gd 0.666156(13) 0.166156(13) 0.333844(13)
Gd6 Gd 0.833844(13) 0.833844(13) 0.833844(13)
N13_2 N 0.6515(3) 0.5062(3) 0.0084(3)
H59_2 H 0.6629 0.4869 0.0452
C54_2 C 0.7532(4) 0.5624(4) 0.0220(4)
H62_2 H 0.7633 0.5330 0.0566
C55_2 C 0.7970(3) 0.6097(3) 0.0046(4)
H63_2 H 0.8370 0.6132 0.0280
O18_2 O 0.6172(2) 0.1788(2) 0.2355(2)
O19_2 O 0.5320(3) 0.1156(2) 0.2099(2)
N15_2 N 0.4916(3) 0.3485(3) 0.0062(3)
N16_2 N 0.5730(3) 0.4277(3) 0.0104(3)
C57_2 C 0.5655(3) 0.1666(3) 0.2031(3)
C58_2 C 0.5461(3) 0.2151(3) 0.1525(3)
C59_2 C 0.5789(3) 0.2734(3) 0.1466(3)
H65_2 H 0.6139 0.2827 0.1758
C60_2 C 0.5627(3) 0.3189(3) 0.0997(3)
H66_2 H 0.5868 0.3585 0.0964
C61_2 C 0.5108(3) 0.3066(3) 0.0572(3)
C62_2 C 0.4780(4) 0.2468(4) 0.0624(4)
H67_2 H 0.4434 0.2367 0.0330
C63_2 C 0.4954(4) 0.2030(3) 0.1097(3)
H68_2 H 0.4720 0.1630 0.1132
Gd4_2 Gd 0.166156(13) 0.333844(13) 0.666156(13)
O12_2 O 0.2645(2) 0.3828(2) 0.6788(2)
O13_2 O 0.2901(2) 0.4680(3) 0.6156(2)
O14_2 O 0.2363(2) 0.2637(2) 0.7363(2)
O15_2 O 0.1744(3) 0.3669(3) 0.5557(2)
N10_2 N 0.4938(3) 0.5084(3) 0.8485(3)
H44_2 H 0.5131 0.5452 0.8371
N11_2 N 0.4896(3) 0.4270(3) 0.9277(3)
N12 N 0.1908(5) 0.4089(4) 0.4568(4)
C37_2 C 0.2969(3) 0.4345(3) 0.6666(3)
C38_2 C 0.3475(3) 0.4539(3) 0.7151(3)
C39_2 C 0.3534(3) 0.4211(3) 0.7734(3)
H45_2 H 0.3242 0.3861 0.7827
C40_2 C 0.4003(3) 0.4373(3) 0.8189(3)
H46_2 H 0.4036 0.4132 0.8585
C41_2 C 0.4428(3) 0.4892(3) 0.8066(3)
C42_2 C 0.4376(4) 0.5220(4) 0.7468(4)
H47_2 H 0.4670 0.5566 0.7367
C43_2 C 0.3903(3) 0.5046(4) 0.7030(3)
H48_2 H 0.3868 0.5280 0.6630
C44_2 C 0.5180(3) 0.4809(3) 0.9025(3)
C45_2 C 0.2091(4) 0.3718(4) 0.5079(4)
C46_2 C 0.2734(5) 0.3383(6) 0.5032(6)
H49 H 0.3075 0.3705 0.4934
H50 H 0.2718 0.3055 0.4682
H51_2 H 0.2833 0.3167 0.5449
C47 C 0.2278(7) 0.4196(7) 0.3980(5)
H52 H 0.2345 0.4667 0.3918
H53 H 0.2038 0.4018 0.3605
H54 H 0.2703 0.3977 0.4017
C48 C 0.1260(6) 0.4419(6) 0.4590(7)
H55 H 0.1028 0.4290 0.4989
H56 H 0.1002 0.4291 0.4206
H57 H 0.1324 0.4895 0.4588
O16_2 O 0.8212(2) 0.7355(2) 0.8828(2)
O17_2 O 0.8844(2) 0.7099(2) 0.9680(3)
N14_2 N 0.5723(3) 0.5104(3) 0.9270(3)
C49_2 C 0.8334(3) 0.7031(3) 0.9345(3)
C50_2 C 0.7849(3) 0.6525(3) 0.9539(3)
C51_2 C 0.7266(3) 0.6466(3) 0.9211(3)
H60_2 H 0.7173 0.6758 0.8861
C52_2 C 0.6811(3) 0.5997(3) 0.9373(3)
H61_2 H 0.6415 0.5964 0.9132
C53_2 C 0.6934(3) 0.5572(3) 0.9892(3)
C56_2 C 0.5975(3) 0.4820(3) 0.9809(3)
H64_2 H 0.4548 0.3371 0.9869
C64_2 C 0.5191(3) 0.4025(3) 0.9820(3)
O20_2 O 0.0557(2) 0.3256(3) 0.6331(3)
C65_2 C 0.0079(4) 0.2909(4) 0.6282(4)
C66_2 C 0.0032(6) 0.2266(5) 0.6617(6)
H71_2 H 0.0449 0.2167 0.6833
O21_2 O 0.1331(3) 0.4443(2) 0.6744(3)
N18_2 N 0.0911(4) 0.5432(4) 0.6908(5)
C69_2 C 0.1282(4) 0.4921(4) 0.7091(4)
C70_2 C 0.1617(6) 0.4968(6) 0.7734(5)
H78_2 H 0.1295 0.5066 0.8075
H79_2 H 0.1945 0.5318 0.7718
H80_2 H 0.1833 0.4551 0.7833
C71_2 C 0.0804(7) 0.6020(5) 0.7278(7)
H81_2 H 0.0333 0.6082 0.7345
H82_2 H 0.0982 0.6395 0.7038
H83_2 H 0.1023 0.5983 0.7703
C72_2 C 0.0581(6) 0.5410(7) 0.6260(6)
H84_2 H 0.0710 0.5011 0.6028
H85_2 H 0.0709 0.5794 0.6002
H86_2 H 0.0105 0.5412 0.6324
O22_2 O 0.1788(2) 0.2355(2) 0.6172(2)
O23_2 O 0.1172(2) 0.3212(2) 0.7645(2)
H59_3 H 0.1629 0.0131 0.9548
O19_3 O 0.0320(3) 0.3844(2) 0.7901(2)
N16_3 N 0.0730(3) 0.0723(3) 0.9896(3)
C57_3 C 0.0655(3) 0.3334(3) 0.7969(3)
C58_3 C 0.0461(3) 0.2849(3) 0.8475(3)
C59_3 C 0.0789(3) 0.2266(3) 0.8534(3)
H65_3 H 0.1139 0.2173 0.8242
C60_3 C 0.0627(3) 0.1811(3) 0.9003(3)
H66_3 H 0.0868 0.1415 0.9036
C61_3 C 0.0108(3) 0.1934(3) 0.9428(3)
H44_3 H 0.0131 0.9548 0.1629
O17_3 O 0.3844(2) 0.7901(2) 0.0320(3)
N14_3 N 0.0723(3) 0.9896(3) 0.0730(3)
C49_3 C 0.3334(3) 0.7969(3) 0.0655(3)
C50_3 C 0.2849(3) 0.8475(3) 0.0461(3)
C51_3 C 0.2266(3) 0.8534(3) 0.0789(3)
H60_3 H 0.2173 0.8242 0.1139
C52_3 C 0.1811(3) 0.9003(3) 0.0627(3)
H61_3 H 0.1415 0.9036 0.0868
C53_3 C 0.1934(3) 0.9428(3) 0.0108(3)
O12_3 O 0.7645(2) 0.1172(2) 0.3212(2)
O13_3 O 0.7901(2) 0.0320(3) 0.3844(2)
O14_3 O 0.7363(2) 0.2363(2) 0.2637(2)
O15_3 O 0.6744(3) 0.1331(3) 0.4443(2)
N11_3 N 0.9896(3) 0.0730(3) 0.0723(3)
N12_2 N 0.6908(5) 0.0911(4) 0.5432(4)
C37_3 C 0.7969(3) 0.0655(3) 0.3334(3)
C38_3 C 0.8475(3) 0.0461(3) 0.2849(3)
C39_3 C 0.8534(3) 0.0789(3) 0.2266(3)
H45_3 H 0.8242 0.1139 0.2173
C40_3 C 0.9003(3) 0.0627(3) 0.1811(3)
H46_3 H 0.9036 0.0868 0.1415
C41_3 C 0.9428(3) 0.0108(3) 0.1934(3)
C45_3 C 0.7091(4) 0.1282(4) 0.4921(4)
C46_3 C 0.7734(5) 0.1617(6) 0.4968(6)
H49_2 H 0.8075 0.1295 0.5066
H50_2 H 0.7718 0.1945 0.5318
H51_3 H 0.7833 0.1833 0.4551
C47_2 C 0.7278(7) 0.0804(7) 0.6020(5)
H52_2 H 0.7345 0.0333 0.6082
H53_2 H 0.7038 0.0982 0.6395
H54_2 H 0.7703 0.1023 0.5983
C48_2 C 0.6260(6) 0.0581(6) 0.5410(7)
H55_2 H 0.6028 0.0710 0.5011
H56_2 H 0.6002 0.0709 0.5794
H57_2 H 0.6324 0.0105 0.5412
H64_3 H 0.9548 0.1629 0.0131
O20_3 O 0.5557(2) 0.1744(3) 0.3669(3)
N17_2 N 0.4568(4) 0.1908(5) 0.4089(4)
C65_3 C 0.5079(4) 0.2091(4) 0.3718(4)
C66_3 C 0.5032(6) 0.2734(5) 0.3383(6)
H69_2 H 0.4934 0.3075 0.3705
H70_2 H 0.4682 0.2718 0.3055
H71_3 H 0.5449 0.2833 0.3167
C67_2 C 0.3980(5) 0.2278(7) 0.4196(7)
H72_2 H 0.3918 0.2345 0.4667
H73_2 H 0.3605 0.2038 0.4018
H74_2 H 0.4017 0.2703 0.3977
C68_2 C 0.4590(7) 0.1260(6) 0.4419(6)
H75_2 H 0.4989 0.1028 0.4290
H76_2 H 0.4206 0.1002 0.4291
H77_2 H 0.4588 0.1324 0.4895
O21_3 O 0.6331(3) 0.0557(2) 0.3256(3)
C69_3 C 0.6282(4) 0.0079(4) 0.2909(4)
C70_3 C 0.6617(6) 0.0032(6) 0.2266(5)
H80_3 H 0.6833 0.0449 0.2167
N17_3 N 0.0432(4) 0.8092(5) 0.9089(4)
H69_3 H 0.0066 0.6925 0.8705
H70_3 H 0.0318 0.7282 0.8055
C67_3 C 0.1020(5) 0.7722(7) 0.9196(7)
H72_3 H 0.1082 0.7655 0.9667
H73_3 H 0.1395 0.7962 0.9018
H74_3 H 0.0983 0.7297 0.8977
C68_3 C 0.0410(7) 0.8740(6) 0.9419(6)
H75_3 H 0.0011 0.8972 0.9290
H76_3 H 0.0794 0.8998 0.9291
H77_3 H 0.0412 0.8676 0.9895
N10_3 N 0.5062(3) 0.0084(3) 0.6515(3)
H44_4 H 0.4869 0.0452 0.6629
C42_3 C 0.5624(4) 0.0220(4) 0.7532(4)
H47_3 H 0.5330 0.0566 0.7633
C43_3 C 0.6097(3) 0.0046(4) 0.7970(3)
H48_3 H 0.6132 0.0280 0.8370
O17_4 O 0.1156(2) 0.2099(2) 0.5320(3)
N13_3 N 0.3485(3) 0.0062(3) 0.4916(3)
N14_4 N 0.4277(3) 0.0104(3) 0.5730(3)
C49_4 C 0.1666(3) 0.2031(3) 0.5655(3)
C50_4 C 0.2151(3) 0.1525(3) 0.5461(3)
C51_4 C 0.2734(3) 0.1466(3) 0.5789(3)
H60_4 H 0.2827 0.1758 0.6139
C52_4 C 0.3189(3) 0.0997(3) 0.5627(3)
H61_4 H 0.3585 0.0964 0.5868
C53_4 C 0.3066(3) 0.0572(3) 0.5108(3)
C54_3 C 0.2468(4) 0.0624(4) 0.4780(4)
H62_3 H 0.2367 0.0330 0.4434
C55_3 C 0.2030(3) 0.1097(3) 0.4954(4)
H63_3 H 0.1630 0.1132 0.4720
N18_3 N 0.9089(4) 0.0432(4) 0.8092(5)
H78_3 H 0.8705 0.0066 0.6925
H79_3 H 0.8055 0.0318 0.7282
C71_3 C 0.9196(7) 0.1020(5) 0.7722(7)
H81_3 H 0.9667 0.1082 0.7655
H82_3 H 0.9018 0.1395 0.7962
H83_3 H 0.8977 0.0983 0.7297
C72_3 C 0.9419(6) 0.0410(7) 0.8740(6)
H84_3 H 0.9290 0.0011 0.8972
H85_3 H 0.9291 0.0794 0.8998
H86_3 H 0.9895 0.0412 0.8676
N12_3 N 0.8092(5) 0.9089(4) 0.0432(4)
H49_3 H 0.6925 0.8705 0.0066
H50_3 H 0.7282 0.8055 0.0318
C47_3 C 0.7722(7) 0.9196(7) 0.1020(5)
H52_3 H 0.7655 0.9667 0.1082
H53_3 H 0.7962 0.9018 0.1395
H54_3 H 0.7297 0.8977 0.0983
C48_3 C 0.8740(6) 0.9419(6) 0.0410(7)
H55_3 H 0.8972 0.9290 0.0011
H56_3 H 0.8998 0.9291 0.0794
H57_3 H 0.8676 0.9895 0.0412
O12_4 O 0.7355(2) 0.8828(2) 0.8212(2)
O13_4 O 0.7099(2) 0.9680(3) 0.8844(2)
O14_4 O 0.7637(2) 0.7637(2) 0.7637(2)
O15_4 O 0.8256(3) 0.8669(3) 0.9443(2)
N11_4 N 0.5104(3) 0.9270(3) 0.5723(3)
C37_4 C 0.7031(3) 0.9345(3) 0.8334(3)
C38_4 C 0.6525(3) 0.9539(3) 0.7849(3)
C39_4 C 0.6466(3) 0.9211(3) 0.7266(3)
H45_4 H 0.6758 0.8861 0.7173
C40_4 C 0.5997(3) 0.9373(3) 0.6811(3)
H46_4 H 0.5964 0.9132 0.6415
C41_4 C 0.5572(3) 0.9892(3) 0.6934(3)
C44_3 C 0.4820(3) 0.9809(3) 0.5975(3)
C45_4 C 0.7909(4) 0.8718(4) 0.9921(4)
C46_4 C 0.7266(5) 0.8383(6) 0.9968(6)
H51_4 H 0.7167 0.8167 0.9551
H59_4 H 0.3371 0.9869 0.4548
C56_3 C 0.4025(3) 0.9820(3) 0.5191(3)
O19_4 O 0.4680(3) 0.6156(2) 0.2901(2)
N15_3 N 0.5084(3) 0.8485(3) 0.4938(3)
H64_4 H 0.5452 0.8371 0.5131
N16_4 N 0.4270(3) 0.9277(3) 0.4896(3)
C57_4 C 0.4345(3) 0.6666(3) 0.2969(3)
C58_4 C 0.4539(3) 0.7151(3) 0.3475(3)
C59_4 C 0.4211(3) 0.7734(3) 0.3534(3)
H65_4 H 0.3861 0.7827 0.3242
C60_4 C 0.4373(3) 0.8189(3) 0.4003(3)
H66_4 H 0.4132 0.8585 0.4036
C61_4 C 0.4892(3) 0.8066(3) 0.4428(3)
C62_3 C 0.5220(4) 0.7468(4) 0.4376(4)
H67_3 H 0.5566 0.7367 0.4670
C63_3 C 0.5046(4) 0.7030(3) 0.3903(3)
H68_3 H 0.5280 0.6630 0.3868
C64_3 C 0.4809(3) 0.9025(3) 0.5180(3)
O20_4 O 0.9443(2) 0.8256(3) 0.8669(3)
C65_4 C 0.9921(4) 0.7909(4) 0.8718(4)
C66_4 C 0.9968(6) 0.7266(5) 0.8383(6)
H71_4 H 0.9551 0.7167 0.8167
O21_4 O 0.8669(3) 0.9443(2) 0.8256(3)
C69_4 C 0.8718(4) 0.9921(4) 0.7909(4)
C70_4 C 0.8383(6) 0.9968(6) 0.7266(5)
H80_4 H 0.8167 0.9551 0.7167
N12_4 N 0.3092(5) 0.5911(4) 0.9568(4)
H49_4 H 0.1925 0.6295 0.9934
H50_4 H 0.2282 0.6945 0.9682
C47_4 C 0.2722(7) 0.5804(7) 0.8980(5)
H52_4 H 0.2655 0.5333 0.8918
H53_4 H 0.2962 0.5982 0.8605
H54_4 H 0.2297 0.6023 0.9017
C48_4 C 0.3740(6) 0.5581(6) 0.9590(7)
H55_4 H 0.3972 0.5710 0.9989
H56_4 H 0.3998 0.5709 0.9206
H57_4 H 0.3676 0.5105 0.9588
N13_4 N 0.1515(3) 0.9938(3) 0.9916(3)
C54_4 C 0.2532(4) 0.9376(4) 0.9780(4)
H62_4 H 0.2633 0.9670 0.9434
C55_4 C 0.2970(3) 0.8903(3) 0.9954(4)
H63_4 H 0.3370 0.8868 0.9720
N17_4 N 0.9568(4) 0.3092(5) 0.5911(4)
H69_4 H 0.9934 0.1925 0.6295
H70_4 H 0.9682 0.2282 0.6945
C67_4 C 0.8980(5) 0.2722(7) 0.5804(7)
H72_4 H 0.8918 0.2655 0.5333
H73_4 H 0.8605 0.2962 0.5982
H74_4 H 0.9017 0.2297 0.6023
C68_4 C 0.9590(7) 0.3740(6) 0.5581(6)
H75_4 H 0.9989 0.3972 0.5710
H76_4 H 0.9206 0.3998 0.5709
H77_4 H 0.9588 0.3676 0.5105
N15_4 N 0.9916(3) 0.1515(3) 0.9938(3)
C62_4 C 0.9780(4) 0.2532(4) 0.9376(4)
H67_4 H 0.9434 0.2633 0.9670
C63_4 C 0.9954(4) 0.2970(3) 0.8903(3)
H68_4 H 0.9720 0.3370 0.8868
C44_4 C 0.0180(3) 0.0191(3) 0.0975(3)
C56_4 C 0.0975(3) 0.0180(3) 0.0191(3)
C64_4 C 0.0191(3) 0.0975(3) 0.0180(3)
N10_4 N 0.9938(3) 0.9916(3) 0.1515(3)
C42_4 C 0.9376(4) 0.9780(4) 0.2532(4)
H47_4 H 0.9670 0.9434 0.2633
C43_4 C 0.8903(3) 0.9954(4) 0.2970(3)
H48_4 H 0.8868 0.9720 0.3370
N18_4 N 0.5911(4) 0.9568(4) 0.3092(5)
H78_4 H 0.6295 0.9934 0.1925
H79_4 H 0.6945 0.9682 0.2282
C71_4 C 0.5804(7) 0.8980(5) 0.2722(7)
H81_4 H 0.5333 0.8918 0.2655
H82_4 H 0.5982 0.8605 0.2962
H83_4 H 0.6023 0.9017 0.2297
C72_4 C 0.5581(6) 0.9590(7) 0.3740(6)
H84_4 H 0.5710 0.9989 0.3972
H85_4 H 0.5709 0.9206 0.3998
H86_4 H 0.5105 0.9588 0.3676
loop_
_geom_bond_atom_site_label_1
_geom_bond_atom_site_label_2
_geom_bond_site_symmetry_1
_geom_bond_site_symmetry_2
N9 C33 1_555 1_555
C34 C33 1_555 1_555
H35 C34 1_555 1_555
C35 N9 1_555 1_555
H37 C35 1_555 1_555
H38 C35 1_555 1_555
H39 C35 1_555 1_555
C36 N9 1_555 1_555
H40 C36 1_555 1_555
H41 C36 1_555 1_555
H42 C36 1_555 1_555
Gd1 O1 1_555 1_555
O1 C1 1_555 1_555
O2 C1 1_555 1_555
O3 Gd1 1_555 1_555
N3 C9 1_555 1_555
C1 C2 1_555 1_555
C2 C3 1_555 1_555
C6 C5 1_555 1_555
H4 C6 1_555 1_555
C7 C2 1_555 1_555
H5 C7 1_555 1_555
C9 O3 1_555 1_555
C10 C9 1_555 1_555
H6 C10 1_555 1_555
H7 C10 1_555 1_555
H8 C10 1_555 1_555
C11 N3 1_555 1_555
H9 C11 1_555 1_555
H10 C11 1_555 1_555
H11 C11 1_555 1_555
C12 N3 1_555 1_555
H12 C12 1_555 1_555
H13 C12 1_555 1_555
H14 C12 1_555 1_555
N6 H20 1_555 1_555
H22 C24 1_555 1_555
O8 Gd1 1_555 1_555
O9 Gd1 1_555 1_555
O10 Gd1 1_555 1_555
O11 Gd1 1_555 1_555
C6 C7 1_555 1_555
N5 C20 1_555 1_555
O6 C21 1_555 1_555
O7 C21 1_555 1_555
C21 C22 1_555 1_555
C22 C23 1_555 1_555
C26 C25 1_555 1_555
H23 C26 1_555 1_555
C27 C22 1_555 1_555
H24 C27 1_555 1_555
C28 N5 1_555 1_555
Gd2 O6 1_555 1_555
C26 C27 1_555 1_555
N3_2 C9_2 1_555 1_555
C10_2 C9_2 1_555 1_555
H7_2 C10_2 1_555 1_555
C11_2 N3_2 1_555 1_555
H9_2 C11_2 1_555 1_555
H10_2 C11_2 1_555 1_555
H11_2 C11_2 1_555 1_555
C12_2 N3_2 1_555 1_555
H12_2 C12_2 1_555 1_555
H13_2 C12_2 1_555 1_555
H14_2 C12_2 1_555 1_555
Gd2 O1_2 1_555 1_555
O1_2 C1_2 1_555 1_555
O2_2 C1_2 1_555 1_555
O3_2 Gd2 1_555 1_555
N1 H1 1_555 1_555
N2 C8_2 1_555 1_555
C1_2 C2_2 1_555 1_555
C2_2 C3_2 1_555 1_555
C3_2 H2 1_555 1_555
C4 C3_2 1_555 1_555
H3 C4 1_555 1_555
C5_2 N1 1_555 1_555
C6_2 C5_2 1_555 1_555
H4_2 C6_2 1_555 1_555
C7_2 C2_2 1_555 1_555
H5_2 C7_2 1_555 1_555
C8_2 N1 1_555 1_555
O4 C13 1_555 1_555
O5 C13 1_555 1_555
N4 H15_2 1_555 1_555
N5_2 C20_2 1_555 1_555
C13 C14 1_555 1_555
C14 C15 1_555 1_555
C15 H16 1_555 1_555
C16 C15 1_555 1_555
H17 C16 1_555 1_555
C17 N4 1_555 1_555
C18 C17 1_555 1_555
H18 C18 1_555 1_555
C19 C14 1_555 1_555
H19 C19 1_555 1_555
C20_2 N2 1_555 1_555
O11 C21_2 1_555 1_555
O7_2 C21_2 1_555 1_555
N6_2 H20_2 1_555 1_555
N7_2 C8_2 1_555 1_555
C21_2 C22_2 1_555 1_555
C22_2 C23_2 1_555 1_555
C23_2 H21_2 1_555 1_555
C24_2 C23_2 1_555 1_555
H22_2 C24_2 1_555 1_555
C25_2 N6_2 1_555 1_555
C26_2 C25_2 1_555 1_555
H23_2 C26_2 1_555 1_555
C27_2 C22_2 1_555 1_555
H24_2 C27_2 1_555 1_555
C28_2 N5_2 1_555 1_555
O8_2 Gd2 1_555 1_555
N8 C29 1_555 1_555
C29 O8_2 1_555 1_555
C30 C29 1_555 1_555
H25_2 C30 1_555 1_555
H26 C30 1_555 1_555
H27_2 C30 1_555 1_555
C31 N8 1_555 1_555
H28 C31 1_555 1_555
H29 C31 1_555 1_555
H30 C31 1_555 1_555
C32 N8 1_555 1_555
H31 C32 1_555 1_555
H32 C32 1_555 1_555
H33 C32 1_555 1_555
O9_2 Gd2 1_555 1_555
Gd3 O4 1_555 1_555
O10_2 Gd2 1_555 1_555
C4 C5_2 1_555 1_555
C6_2 C7_2 1_555 1_555
N4 C20_2 1_555 1_555
C16 C17 1_555 1_555
C18 C19 1_555 1_555
N6_2 C28_2 1_555 1_555
N7_2 C28_2 1_555 1_555
C24_2 C25_2 1_555 1_555
C26_2 C27_2 1_555 1_555
N1_2 H1_2 1_555 1_555
H3_2 C4_2 1_555 1_555
O10_2 C13_2 1_555 1_555
O5_2 C13_2 1_555 1_555
C13_2 C14_2 1_555 1_555
C14_2 C15_2 1_555 1_555
C18_2 C17_2 1_555 1_555
H18_2 C18_2 1_555 1_555
C19_2 C14_2 1_555 1_555
H19_2 C19_2 1_555 1_555
N8_2 C29_2 1_555 1_555
C30_2 C29_2 1_555 1_555
H26_2 C30_2 1_555 1_555
C31_2 N8_2 1_555 1_555
H28_2 C31_2 1_555 1_555
H29_2 C31_2 1_555 1_555
H30_2 C31_2 1_555 1_555
C32_2 N8_2 1_555 1_555
H31_2 C32_2 1_555 1_555
H32_2 C32_2 1_555 1_555
H33_2 C32_2 1_555 1_555
C18_2 C19_2 1_555 1_555
Gd3 O1_3 1_555 1_555
O1_3 C1_3 1_555 1_555
O2_3 C1_3 1_555 1_555
O3_3 Gd3 1_555 1_555
C1_3 C2_3 1_555 1_555
C2_3 C3_3 1_555 1_555
C6_3 C5_3 1_555 1_555
H4_3 C6_3 1_555 1_555
C7_3 C2_3 1_555 1_555
H5_3 C7_3 1_555 1_555
N7_3 C8_3 1_555 1_555
O8_3 Gd3 1_555 1_555
O9_3 Gd3 1_555 1_555
N9_2 C33_2 1_555 1_555
C33_2 O9_3 1_555 1_555
C34_2 C33_2 1_555 1_555
H34_3 C34_2 1_555 1_555
H35_2 C34_2 1_555 1_555
H36_3 C34_2 1_555 1_555
C35_2 N9_2 1_555 1_555
H37_2 C35_2 1_555 1_555
H38_2 C35_2 1_555 1_555
H39_2 C35_2 1_555 1_555
C36_2 N9_2 1_555 1_555
H40_2 C36_2 1_555 1_555
H41_2 C36_2 1_555 1_555
H42_2 C36_2 1_555 1_555
O11_2 Gd3 1_555 1_555
C6_3 C7_3 1_555 1_555
N7_3 C28_3 1_555 1_555
N4_2 H15_3 1_555 1_555
H17_2 C16_2 1_555 1_555
O11_2 C21_3 1_555 1_555
O7_3 C21_3 1_555 1_555
C21_3 C22_3 1_555 1_555
C22_3 C23_3 1_555 1_555
C26_3 C25_3 1_555 1_555
H23_3 C26_3 1_555 1_555
C27_3 C22_3 1_555 1_555
H24_3 C27_3 1_555 1_555
C26_3 C27_3 1_555 1_555
N2_3 C8_4 1_555 1_555
O10 C13_3 1_555 1_555
O5_3 C13_3 1_555 1_555
C13_3 C14_3 1_555 1_555
C14_3 C15_3 1_555 1_555
C18_3 C17_3 1_555 1_555
H18_3 C18_3 1_555 1_555
C19_3 C14_3 1_555 1_555
H19_3 C19_3 1_555 1_555
C20_4 N2_3 1_555 1_555
C18_3 C19_3 1_555 1_555
H3_3 C4_3 1_555 1_555
N8_3 C29_3 1_555 1_555
C30_3 C29_3 1_555 1_555
H26_3 C30_3 1_555 1_555
C31_3 N8_3 1_555 1_555
H28_3 C31_3 1_555 1_555
H29_3 C31_3 1_555 1_555
H30_3 C31_3 1_555 1_555
C32_3 N8_3 1_555 1_555
H31_3 C32_3 1_555 1_555
H32_3 C32_3 1_555 1_555
H33_3 C32_3 1_555 1_555
O4_2 C13_4 1_555 1_555
O5_4 C13_4 1_555 1_555
C13_4 C14_4 1_555 1_555
C14_4 C15_4 1_555 1_555
C15_4 H16_3 1_555 1_555
C16_3 C15_4 1_555 1_555
H17_3 C16_3 1_555 1_555
C17_4 N4_3 1_555 1_555
C18_4 C17_4 1_555 1_555
H18_4 C18_4 1_555 1_555
C19_4 C14_4 1_555 1_555
H19_4 C19_4 1_555 1_555
Gd3_2 O4_2 1_555 1_555
C16_3 C17_4 1_555 1_555
C18_4 C19_4 1_555 1_555
O6_2 C21_4 1_555 1_555
O7_4 C21_4 1_555 1_555
C21_4 C22_4 1_555 1_555
C22_4 C23_4 1_555 1_555
C23_4 H21_3 1_555 1_555
C24_3 C23_4 1_555 1_555
H22_3 C24_3 1_555 1_555
C25_4 N6_3 1_555 1_555
C26_4 C25_4 1_555 1_555
H23_4 C26_4 1_555 1_555
C27_4 C22_4 1_555 1_555
H24_4 C27_4 1_555 1_555
Gd3_2 O6_2 1_555 1_555
C24_3 C25_4 1_555 1_555
C26_4 C27_4 1_555 1_555
Gd3_2 O1_4 1_555 1_555
O1_4 C1_4 1_555 1_555
O2_4 C1_4 1_555 1_555
O3_4 Gd3_2 1_555 1_555
N3_3 C9_3 1_555 1_555
C1_4 C2_4 1_555 1_555
C2_4 C3_4 1_555 1_555
C3_4 H2_4 1_555 1_555
C4_4 C3_4 1_555 1_555
H3_4 C4_4 1_555 1_555
C5_4 N1_4 1_555 1_555
C6_4 C5_4 1_555 1_555
H4_4 C6_4 1_555 1_555
C7_4 C2_4 1_555 1_555
H5_4 C7_4 1_555 1_555
C9_3 O3_4 1_555 1_555
C10_3 C9_3 1_555 1_555
H6_4 C10_3 1_555 1_555
H7_3 C10_3 1_555 1_555
H8_4 C10_3 1_555 1_555
C11_3 N3_3 1_555 1_555
H9_3 C11_3 1_555 1_555
H10_3 C11_3 1_555 1_555
H11_3 C11_3 1_555 1_555
C12_3 N3_3 1_555 1_555
H12_3 C12_3 1_555 1_555
H13_3 C12_3 1_555 1_555
H14_3 C12_3 1_555 1_555
O8_4 Gd3_2 1_555 1_555
N8_4 C29_4 1_555 1_555
C29_4 O8_4 1_555 1_555
C30_4 C29_4 1_555 1_555
H25_4 C30_4 1_555 1_555
H26_4 C30_4 1_555 1_555
H27_4 C30_4 1_555 1_555
C31_4 N8_4 1_555 1_555
H28_4 C31_4 1_555 1_555
H29_4 C31_4 1_555 1_555
H30_4 C31_4 1_555 1_555
C32_4 N8_4 1_555 1_555
H31_4 C32_4 1_555 1_555
H32_4 C32_4 1_555 1_555
H33_4 C32_4 1_555 1_555
O9_4 Gd3_2 1_555 1_555
N9_3 C33_3 1_555 1_555
C33_3 O9_4 1_555 1_555
C34_3 C33_3 1_555 1_555
H34_4 C34_3 1_555 1_555
H35_3 C34_3 1_555 1_555
H36_4 C34_3 1_555 1_555
C35_3 N9_3 1_555 1_555
H37_3 C35_3 1_555 1_555
H38_3 C35_3 1_555 1_555
H39_3 C35_3 1_555 1_555
C36_3 N9_3 1_555 1_555
H40_3 C36_3 1_555 1_555
H41_3 C36_3 1_555 1_555
H42_3 C36_3 1_555 1_555
C4_4 C5_4 1_555 1_555
C6_4 C7_4 1_555 1_555
N9_4 C33_4 1_555 1_555
C34_4 C33_4 1_555 1_555
H35_4 C34_4 1_555 1_555
C35_4 N9_4 1_555 1_555
H37_4 C35_4 1_555 1_555
H38_4 C35_4 1_555 1_555
H39_4 C35_4 1_555 1_555
C36_4 N9_4 1_555 1_555
H40_4 C36_4 1_555 1_555
H41_4 C36_4 1_555 1_555
H42_4 C36_4 1_555 1_555
H17_4 C16_4 1_555 1_555
N3_4 C9_4 1_555 1_555
C10_4 C9_4 1_555 1_555
H7_4 C10_4 1_555 1_555
C11_4 N3_4 1_555 1_555
H9_4 C11_4 1_555 1_555
H10_4 C11_4 1_555 1_555
H11_4 C11_4 1_555 1_555
C12_4 N3_4 1_555 1_555
H12_4 C12_4 1_555 1_555
H13_4 C12_4 1_555 1_555
H14_4 C12_4 1_555 1_555
H22_4 C24_4 1_555 1_555
Gd4 O12 1_555 1_555
O12 C37 1_555 1_555
O13 C37 1_555 1_555
O14 Gd4 1_555 1_555
O15 Gd4 1_555 1_555
C37 C38 1_555 1_555
C38 C39 1_555 1_555
C39 H45 1_555 1_555
C40 C39 1_555 1_555
H46 C40 1_555 1_555
C41 N10 1_555 1_555
C42 C41 1_555 1_555
H47 C42 1_555 1_555
C43 C38 1_555 1_555
H48 C43 1_555 1_555
C45 O15 1_555 1_555
C46 C45 1_555 1_555
H51 C46 1_555 1_555
N15 H64 1_555 1_555
H67 C62 1_555 1_555
H68 C63 1_555 1_555
O20 Gd4 1_555 1_555
N17 C65 1_555 1_555
C65 O20 1_555 1_555
C66 C65 1_555 1_555
H69 C66 1_555 1_555
H70 C66 1_555 1_555
H71 C66 1_555 1_555
C67 N17 1_555 1_555
H72 C67 1_555 1_555
H73 C67 1_555 1_555
H74 C67 1_555 1_555
C68 N17 1_555 1_555
H75 C68 1_555 1_555
H76 C68 1_555 1_555
H77 C68 1_555 1_555
O21 Gd4 1_555 1_555
N18 C69 1_555 1_555
C69 O21 1_555 1_555
C70 C69 1_555 1_555
H78 C70 1_555 1_555
H79 C70 1_555 1_555
H80 C70 1_555 1_555
C71 N18 1_555 1_555
H81 C71 1_555 1_555
H82 C71 1_555 1_555
H83 C71 1_555 1_555
C72 N18 1_555 1_555
H84 C72 1_555 1_555
H85 C72 1_555 1_555
H86 C72 1_555 1_555
O22 Gd4 1_555 1_555
O23 Gd4 1_555 1_555
C40 C41 1_555 1_555
C42 C43 1_555 1_555
C62 C63 1_555 1_555
O16 C49 1_555 1_555
O17 C49 1_555 1_555
N13 H59 1_555 1_555
N14 C44 1_555 1_555
C49 C50 1_555 1_555
C50 C51 1_555 1_555
C51 H60 1_555 1_555
C52 C51 1_555 1_555
H61 C52 1_555 1_555
C53 N13 1_555 1_555
C54 C53 1_555 1_555
H62 C54 1_555 1_555
C55 C50 1_555 1_555
H63 C55 1_555 1_555
C56 N13 1_555 1_555
O18 C57 1_555 1_555
O19 C57 1_555 1_555
N16 C56 1_555 1_555
C57 C58 1_555 1_555
C58 C59 1_555 1_555
C59 H65 1_555 1_555
C60 C59 1_555 1_555
H66 C60 1_555 1_555
Gd5 O16 1_555 1_555
Gd6 O18 1_555 1_555
N14 C56 1_555 1_555
C52 C53 1_555 1_555
C54 C55 1_555 1_555
N16 C64 1_555 1_555
C60 C61 1_555 1_555
N13_2 H59_2 1_555 1_555
H62_2 C54_2 1_555 1_555
H63_2 C55_2 1_555 1_555
O18_2 C57_2 1_555 1_555
O19_2 C57_2 1_555 1_555
C57_2 C58_2 1_555 1_555
C58_2 C59_2 1_555 1_555
C59_2 H65_2 1_555 1_555
C60_2 C59_2 1_555 1_555
H66_2 C60_2 1_555 1_555
C61_2 N15_2 1_555 1_555
C62_2 C61_2 1_555 1_555
H67_2 C62_2 1_555 1_555
C63_2 C58_2 1_555 1_555
H68_2 C63_2 1_555 1_555
Gd5 O18_2 1_555 1_555
C54_2 C55_2 1_555 1_555
C60_2 C61_2 1_555 1_555
C62_2 C63_2 1_555 1_555
Gd4_2 O12_2 1_555 1_555
O12_2 C37_2 1_555 1_555
O13_2 C37_2 1_555 1_555
O14_2 Gd4_2 1_555 1_555
O15_2 Gd4_2 1_555 1_555
N10_2 H44_2 1_555 1_555
N11_2 C44_2 1_555 1_555
N12 C45_2 1_555 1_555
C37_2 C38_2 1_555 1_555
C38_2 C39_2 1_555 1_555
C39_2 H45_2 1_555 1_555
C40_2 C39_2 1_555 1_555
H46_2 C40_2 1_555 1_555
C41_2 N10_2 1_555 1_555
C42_2 C41_2 1_555 1_555
H47_2 C42_2 1_555 1_555
C43_2 C38_2 1_555 1_555
H48_2 C43_2 1_555 1_555
C44_2 N10_2 1_555 1_555
C45_2 O15_2 1_555 1_555
C46_2 C45_2 1_555 1_555
H49 C46_2 1_555 1_555
H50 C46_2 1_555 1_555
H51_2 C46_2 1_555 1_555
C47 N12 1_555 1_555
H52 C47 1_555 1_555
H53 C47 1_555 1_555
H54 C47 1_555 1_555
C48 N12 1_555 1_555
H55 C48 1_555 1_555
H56 C48 1_555 1_555
H57 C48 1_555 1_555
O16_2 C49_2 1_555 1_555
O17_2 C49_2 1_555 1_555
N14_2 C44_2 1_555 1_555
C49_2 C50_2 1_555 1_555
C50_2 C51_2 1_555 1_555
C51_2 H60_2 1_555 1_555
C52_2 C51_2 1_555 1_555
H61_2 C52_2 1_555 1_555
C64_2 N11_2 1_555 1_555
O20_2 Gd4_2 1_555 1_555
C65_2 O20_2 1_555 1_555
C66_2 C65_2 1_555 1_555
H71_2 C66_2 1_555 1_555
O21_2 Gd4_2 1_555 1_555
N18_2 C69_2 1_555 1_555
C69_2 O21_2 1_555 1_555
C70_2 C69_2 1_555 1_555
H78_2 C70_2 1_555 1_555
H79_2 C70_2 1_555 1_555
H80_2 C70_2 1_555 1_555
C71_2 N18_2 1_555 1_555
H81_2 C71_2 1_555 1_555
H82_2 C71_2 1_555 1_555
H83_2 C71_2 1_555 1_555
C72_2 N18_2 1_555 1_555
H84_2 C72_2 1_555 1_555
H85_2 C72_2 1_555 1_555
H86_2 C72_2 1_555 1_555
Gd6 O16_2 1_555 1_555
O22_2 Gd4_2 1_555 1_555
O23_2 Gd4_2 1_555 1_555
C40_2 C41_2 1_555 1_555
C42_2 C43_2 1_555 1_555
N14_2 C56_2 1_555 1_555
C52_2 C53_2 1_555 1_555
O23_2 C57_3 1_555 1_555
O19_3 C57_3 1_555 1_555
C57_3 C58_3 1_555 1_555
C58_3 C59_3 1_555 1_555
C59_3 H65_3 1_555 1_555
C60_3 C59_3 1_555 1_555
H66_3 C60_3 1_555 1_555
C60_3 C61_3 1_555 1_555
O22 C49_3 1_555 1_555
O17_3 C49_3 1_555 1_555
C49_3 C50_3 1_555 1_555
C50_3 C51_3 1_555 1_555
C51_3 H60_3 1_555 1_555
C52_3 C51_3 1_555 1_555
H61_3 C52_3 1_555 1_555
C52_3 C53_3 1_555 1_555
Gd5 O12_3 1_555 1_555
O12_3 C37_3 1_555 1_555
O13_3 C37_3 1_555 1_555
O14_3 Gd5 1_555 1_555
O15_3 Gd5 1_555 1_555
N12_2 C45_3 1_555 1_555
C37_3 C38_3 1_555 1_555
C38_3 C39_3 1_555 1_555
C39_3 H45_3 1_555 1_555
C40_3 C39_3 1_555 1_555
H46_3 C40_3 1_555 1_555
C45_3 O15_3 1_555 1_555
C46_3 C45_3 1_555 1_555
H49_2 C46_3 1_555 1_555
H50_2 C46_3 1_555 1_555
H51_3 C46_3 1_555 1_555
C47_2 N12_2 1_555 1_555
H52_2 C47_2 1_555 1_555
H53_2 C47_2 1_555 1_555
H54_2 C47_2 1_555 1_555
C48_2 N12_2 1_555 1_555
H55_2 C48_2 1_555 1_555
H56_2 C48_2 1_555 1_555
H57_2 C48_2 1_555 1_555
O20_3 Gd5 1_555 1_555
N17_2 C65_3 1_555 1_555
C65_3 O20_3 1_555 1_555
C66_3 C65_3 1_555 1_555
H69_2 C66_3 1_555 1_555
H70_2 C66_3 1_555 1_555
H71_3 C66_3 1_555 1_555
C67_2 N17_2 1_555 1_555
H72_2 C67_2 1_555 1_555
H73_2 C67_2 1_555 1_555
H74_2 C67_2 1_555 1_555
C68_2 N17_2 1_555 1_555
H75_2 C68_2 1_555 1_555
H76_2 C68_2 1_555 1_555
H77_2 C68_2 1_555 1_555
O21_3 Gd5 1_555 1_555
C69_3 O21_3 1_555 1_555
C70_3 C69_3 1_555 1_555
H80_3 C70_3 1_555 1_555
C40_3 C41_3 1_555 1_555
C67_3 N17_3 1_555 1_555
H72_3 C67_3 1_555 1_555
H73_3 C67_3 1_555 1_555
H74_3 C67_3 1_555 1_555
C68_3 N17_3 1_555 1_555
H75_3 C68_3 1_555 1_555
H76_3 C68_3 1_555 1_555
H77_3 C68_3 1_555 1_555
N10_3 H44_4 1_555 1_555
H47_3 C42_3 1_555 1_555
H48_3 C43_3 1_555 1_555
O22_2 C49_4 1_555 1_555
O17_4 C49_4 1_555 1_555
C49_4 C50_4 1_555 1_555
C50_4 C51_4 1_555 1_555
C51_4 H60_4 1_555 1_555
C52_4 C51_4 1_555 1_555
H61_4 C52_4 1_555 1_555
C53_4 N13_3 1_555 1_555
C54_3 C53_4 1_555 1_555
H62_3 C54_3 1_555 1_555
C55_3 C50_4 1_555 1_555
H63_3 C55_3 1_555 1_555
C71_3 N18_3 1_555 1_555
H81_3 C71_3 1_555 1_555
H82_3 C71_3 1_555 1_555
H83_3 C71_3 1_555 1_555
C72_3 N18_3 1_555 1_555
H84_3 C72_3 1_555 1_555
H85_3 C72_3 1_555 1_555
H86_3 C72_3 1_555 1_555
C42_3 C43_3 1_555 1_555
C52_4 C53_4 1_555 1_555
C54_3 C55_3 1_555 1_555
C47_3 N12_3 1_555 1_555
H52_3 C47_3 1_555 1_555
H53_3 C47_3 1_555 1_555
H54_3 C47_3 1_555 1_555
C48_3 N12_3 1_555 1_555
H55_3 C48_3 1_555 1_555
H56_3 C48_3 1_555 1_555
H57_3 C48_3 1_555 1_555
Gd6 O12_4 1_555 1_555
O12_4 C37_4 1_555 1_555
O13_4 C37_4 1_555 1_555
O14_4 Gd6 1_555 1_555
O15_4 Gd6 1_555 1_555
N11_4 C44_3 1_555 1_555
C37_4 C38_4 1_555 1_555
C38_4 C39_4 1_555 1_555
C39_4 H45_4 1_555 1_555
C40_4 C39_4 1_555 1_555
H46_4 C40_4 1_555 1_555
C45_4 O15_4 1_555 1_555
C46_4 C45_4 1_555 1_555
H51_4 C46_4 1_555 1_555
O23 C57_4 1_555 1_555
O19_4 C57_4 1_555 1_555
N15_3 H64_4 1_555 1_555
N16_4 C56_3 1_555 1_555
C57_4 C58_4 1_555 1_555
C58_4 C59_4 1_555 1_555
C59_4 H65_4 1_555 1_555
C60_4 C59_4 1_555 1_555
H66_4 C60_4 1_555 1_555
C61_4 N15_3 1_555 1_555
C62_3 C61_4 1_555 1_555
H67_3 C62_3 1_555 1_555
C63_3 C58_4 1_555 1_555
H68_3 C63_3 1_555 1_555
C64_3 N11_4 1_555 1_555
O20_4 Gd6 1_555 1_555
C65_4 O20_4 1_555 1_555
C66_4 C65_4 1_555 1_555
H71_4 C66_4 1_555 1_555
O21_4 Gd6 1_555 1_555
C69_4 O21_4 1_555 1_555
C70_4 C69_4 1_555 1_555
H80_4 C70_4 1_555 1_555
C40_4 C41_4 1_555 1_555
N15_3 C64_3 1_555 1_555
N16_4 C64_3 1_555 1_555
C60_4 C61_4 1_555 1_555
C62_3 C63_3 1_555 1_555
C47_4 N12_4 1_555 1_555
H52_4 C47_4 1_555 1_555
H53_4 C47_4 1_555 1_555
H54_4 C47_4 1_555 1_555
C48_4 N12_4 1_555 1_555
H55_4 C48_4 1_555 1_555
H56_4 C48_4 1_555 1_555
H57_4 C48_4 1_555 1_555
H62_4 C54_4 1_555 1_555
H63_4 C55_4 1_555 1_555
C54_4 C55_4 1_555 1_555
C67_4 N17_4 1_555 1_555
H72_4 C67_4 1_555 1_555
H73_4 C67_4 1_555 1_555
H74_4 C67_4 1_555 1_555
C68_4 N17_4 1_555 1_555
H75_4 C68_4 1_555 1_555
H76_4 C68_4 1_555 1_555
H77_4 C68_4 1_555 1_555
H67_4 C62_4 1_555 1_555
H68_4 C63_4 1_555 1_555
C62_4 C63_4 1_555 1_555
H47_4 C42_4 1_555 1_555
H48_4 C43_4 1_555 1_555
C71_4 N18_4 1_555 1_555
H81_4 C71_4 1_555 1_555
H82_4 C71_4 1_555 1_555
H83_4 C71_4 1_555 1_555
C72_4 N18_4 1_555 1_555
H84_4 C72_4 1_555 1_555
H85_4 C72_4 1_555 1_555
H86_4 C72_4 1_555 1_555
C42_4 C43_4 1_555 1_555

#END
