
###############################################################################
#
# This file contains modified crystal structure data generated from the
# MOF subset of the Cambridge Structural Database (CSD) v543 
# hosted by the Cambridge Crystallographic Data Centre (CCDC).
#
# This work is licensed under the Creative Commons
# Attribution-NonCommercial-ShareAlike 4.0 International License.
# To view a copy of this license, visit
# http://creativecommons.org/licenses/by-nc-sa/4.0/
# or send a letter to
# Creative Commons, PO Box 1866, Mountain View, CA 94042, USA.
#
# CIF created using the CSD Python API on 29 September 2022
# The structure has been converted into the P1 space group
# The structure has a 3D framework
# The original CSD entry SOZSUX is in the cubic crystal system
# The original CSD entry SOZSUX is in a Sohncke space group
# The framework has been calculated to contain at least 10.0% void space
# The void calculation uses a probe of radius 1.32A, grid spacing 0.4
# H atom positions have been added when not included in the experimental data
# Generated hydrogen atom positions removed from atoms on special positions
#
###############################################################################

data_SOZSUX
_chemical_formula_moiety         '(C288 H348 Er8 N72 O76)n'
_symmetry_cell_setting           triclinic
_symmetry_space_group_name_H-M   'P 1'
_symmetry_Int_Tables_number      1
_space_group_name_Hall           'P 1'
loop_
_symmetry_equiv_pos_site_id
_symmetry_equiv_pos_as_xyz
1 x,y,z
_cell_length_a                   20.3864(12)
_cell_length_b                   20.3864(12)
_cell_length_c                   20.3864(12)
_cell_angle_alpha                90
_cell_angle_beta                 90
_cell_angle_gamma                90
_cell_volume                     8472.7
loop_
_atom_site_label
_atom_site_type_symbol
_atom_site_fract_x
_atom_site_fract_y
_atom_site_fract_z
N9 N 0.0861(4) 0.0457(4) 0.3054(5)
H35 H 0.1838 0.0420 0.2224
C35 C 0.0503(6) 0.0394(5) 0.3725(5)
H38 H 0.0033 0.0473 0.3664
H39 H 0.0681 0.0718 0.4033
C36 C 0.0712(6) 0.1019(5) 0.2653(6)
H40 H 0.0930 0.1408 0.2834
H41 H 0.0236 0.1091 0.2648
H42 H 0.0867 0.0942 0.2205
Er1 Er 0.154994(12) 0.845006(12) 0.345006(12)
O1 O 0.1346(2) 0.8123(2) 0.2432(2)
O2 O 0.0585(3) 0.8839(2) 0.2119(2)
O3 O 0.1682(2) 0.8652(2) 0.4529(2)
N3 N 0.1946(5) 0.9139(4) 0.5457(4)
C1 C 0.0868(3) 0.8300(3) 0.2067(3)
C2 C 0.0645(3) 0.7818(3) 0.1566(3)
C3 C 0.0130(4) 0.7968(3) 0.1150(3)
C5 C 0.0208(3) 0.6917(3) 0.0631(3)
C6 C 0.0717(3) 0.6754(3) 0.1053(3)
H4 H 0.0920 0.6336 0.1022
C7 C 0.0926(3) 0.7197(3) 0.1517(3)
H5 H 0.1269 0.7078 0.1810
C9 C 0.2067(5) 0.8746(5) 0.4988(4)
C10 C 0.2724(4) 0.8388(5) 0.4999(5)
H6 H 0.2737 0.8066 0.4641
H7 H 0.2776 0.8162 0.5420
H8 H 0.3080 0.8705 0.4942
C11 C 0.1275(5) 0.9497(6) 0.5394(5)
H9 H 0.1099 0.9430 0.4952
H10 H 0.1336 0.9967 0.5473
H11 H 0.0967 0.9319 0.5718
C12 C 0.2347(6) 0.9288(6) 0.6019(5)
H12 H 0.2166 0.9070 0.6408
H13 H 0.2352 0.9764 0.6091
H14 H 0.2795 0.9133 0.5942
N6 N 0.1509(3) 0.4872(3) 0.0039(3)
H20 H 0.1635 0.5043 0.0414
N7 N 0.0746(3) 0.5675(3) 0.0117(3)
H21 H 0.3381 0.3813 0.0083
C24 C 0.2531(4) 0.4312(4) 0.0076(3)
H22 H 0.2650 0.4600 0.0422
O8 O 0.0471(2) 0.8318(2) 0.3652(2)
C29 C 0.0012(4) 0.7933(5) 0.3746(5)
C30 C 0.0001(5) 0.7276(4) 0.3388(5)
H25 H 0.0359 0.7263 0.3066
H27 H 0.0058 0.6920 0.3705
H28 H 0.0048 0.8901 0.4430
O9 O 0.1348(2) 0.9529(2) 0.3318(2)
C33 C 0.1254(5) 0.9988(4) 0.2933(5)
C34 C 0.1612(5) 0.9999(5) 0.2276(4)
H34 H 0.1934 0.9641 0.2263
H36 H 0.1295 0.9942 0.1920
H37 H 0.0570 0.9952 0.3901
O10 O 0.2568(2) 0.8654(2) 0.3123(2)
O11 O 0.1877(2) 0.7432(2) 0.3654(2)
C8 C 0.0218(3) 0.5949(3) 0.9869(3)
H15 H 0.0043 0.4586 0.8365
N5 N 0.0675(3) 0.4883(3) 0.9254(3)
C20 C 0.0131(3) 0.5218(3) 0.9051(3)
O6 O 0.3123(2) 0.2568(2) 0.8654(2)
O7 O 0.3839(2) 0.2881(2) 0.9415(3)
C21 C 0.3300(3) 0.2933(3) 0.9132(3)
C22 C 0.2818(3) 0.3434(3) 0.9355(3)
C23 C 0.2968(3) 0.3850(3) 0.9870(4)
C25 C 0.1917(3) 0.4369(3) 0.9792(3)
C26 C 0.1754(3) 0.3947(3) 0.9283(3)
H23 H 0.1336 0.3978 0.9080
C27 C 0.2197(3) 0.3483(3) 0.9074(3)
H24 H 0.2078 0.3190 0.8731
C28 C 0.0949(3) 0.5131(3) 0.9782(3)
Er2 Er 0.345006(12) 0.154994(12) 0.845006(12)
N3_2 N 0.3054(5) 0.0861(4) 0.0457(4)
H7_2 H 0.2224 0.1838 0.0420
C11_2 C 0.3725(5) 0.0503(6) 0.0394(5)
H10_2 H 0.3664 0.0033 0.0473
H11_2 H 0.4033 0.0681 0.0718
C12_2 C 0.2653(6) 0.0712(6) 0.1019(5)
H12_2 H 0.2834 0.0930 0.1408
H13_2 H 0.2648 0.0236 0.1091
H14_2 H 0.2205 0.0867 0.0942
O1_2 O 0.3654(2) 0.1877(2) 0.7432(2)
O2_2 O 0.4415(3) 0.1161(2) 0.7119(2)
O3_2 O 0.3318(2) 0.1348(2) 0.9529(2)
N1 N 0.5039(3) 0.3491(3) 0.5128(3)
H1 H 0.5414 0.3365 0.4957
N2 N 0.5117(3) 0.4254(3) 0.4325(3)
C1_2 C 0.4132(3) 0.1700(3) 0.7067(3)
C2_2 C 0.4355(3) 0.2182(3) 0.6566(3)
C3_2 C 0.4870(4) 0.2032(3) 0.6150(3)
H2 H 0.5083 0.1619 0.6187
C4 C 0.5076(3) 0.2469(4) 0.5688(4)
H3 H 0.5422 0.2350 0.5400
C5_2 C 0.4792(3) 0.3083(3) 0.5631(3)
C6_2 C 0.4283(3) 0.3246(3) 0.6053(3)
H4_2 H 0.4080 0.3664 0.6022
C7_2 C 0.4074(3) 0.2803(3) 0.6517(3)
H5_2 H 0.3731 0.2922 0.6810
C8_2 C 0.4782(3) 0.4051(3) 0.4869(3)
C9_2 C 0.2933(5) 0.1254(5) 0.9988(4)
C10_2 C 0.2276(4) 0.1612(5) 0.9999(5)
H6_2 H 0.2263 0.1934 0.9641
H8_2 H 0.1920 0.1295 0.9942
H9_2 H 0.3901 0.0570 0.9952
O4 O 0.7432(2) 0.3654(2) 0.1877(2)
O5 O 0.7119(2) 0.4415(3) 0.1161(2)
N4 N 0.5128(3) 0.5039(3) 0.3491(3)
H15_2 H 0.4957 0.5414 0.3365
N5_2 N 0.4325(3) 0.5117(3) 0.4254(3)
C13 C 0.7067(3) 0.4132(3) 0.1700(3)
C14 C 0.6566(3) 0.4355(3) 0.2182(3)
C15 C 0.6150(3) 0.4870(4) 0.2032(3)
H16 H 0.6187 0.5083 0.1619
C16 C 0.5688(4) 0.5076(3) 0.2469(4)
H17 H 0.5400 0.5422 0.2350
C17 C 0.5631(3) 0.4792(3) 0.3083(3)
C18 C 0.6053(3) 0.4283(3) 0.3246(3)
H18 H 0.6022 0.4080 0.3664
C19 C 0.6517(3) 0.4074(3) 0.2803(3)
H19 H 0.6810 0.3731 0.2922
C20_2 C 0.4869(3) 0.4782(3) 0.4051(3)
O7_2 O 0.1161(2) 0.7119(2) 0.4415(3)
N6_2 N 0.3491(3) 0.5128(3) 0.5039(3)
H20_2 H 0.3365 0.4957 0.5414
N7_2 N 0.4254(3) 0.4325(3) 0.5117(3)
C21_2 C 0.1700(3) 0.7067(3) 0.4132(3)
C22_2 C 0.2182(3) 0.6566(3) 0.4355(3)
C23_2 C 0.2032(3) 0.6150(3) 0.4870(4)
H21_2 H 0.1619 0.6187 0.5083
C24_2 C 0.2469(4) 0.5688(4) 0.5076(3)
H22_2 H 0.2350 0.5400 0.5422
C25_2 C 0.3083(3) 0.5631(3) 0.4792(3)
C26_2 C 0.3246(3) 0.6053(3) 0.4283(3)
H23_2 H 0.3664 0.6022 0.4080
C27_2 C 0.2803(3) 0.6517(3) 0.4074(3)
H24_2 H 0.2922 0.6810 0.3731
C28_2 C 0.4051(3) 0.4869(3) 0.4782(3)
O8_2 O 0.4529(2) 0.1682(2) 0.8652(2)
N8 N 0.5457(4) 0.1946(5) 0.9139(4)
C29_2 C 0.4988(4) 0.2067(5) 0.8746(5)
C30_2 C 0.4999(5) 0.2724(4) 0.8388(5)
H25_2 H 0.4641 0.2737 0.8066
H26 H 0.5420 0.2776 0.8162
H27_2 H 0.4942 0.3080 0.8705
C31 C 0.5394(5) 0.1275(5) 0.9497(6)
H28_2 H 0.4952 0.1099 0.9430
H29 H 0.5473 0.1336 0.9967
H30 H 0.5718 0.0967 0.9319
C32 C 0.6019(5) 0.2347(6) 0.9288(6)
H31 H 0.6408 0.2166 0.9070
H32 H 0.6091 0.2352 0.9764
H33 H 0.5942 0.2795 0.9133
O9_2 O 0.3652(2) 0.0471(2) 0.8318(2)
C33_2 C 0.3746(5) 0.0012(4) 0.7933(5)
C34_2 C 0.3388(5) 0.0001(5) 0.7276(4)
H34_2 H 0.3066 0.0359 0.7263
H36_2 H 0.3705 0.0058 0.6920
H37_2 H 0.4430 0.0048 0.8901
Er3 Er 0.845006(12) 0.345006(12) 0.154994(12)
O10_2 O 0.2432(2) 0.1346(2) 0.8123(2)
N1_2 N 0.0039(3) 0.1509(3) 0.4872(3)
H1_2 H 0.0414 0.1635 0.5043
N2_2 N 0.0117(3) 0.0746(3) 0.5675(3)
H2_2 H 0.0083 0.3381 0.3813
C4_2 C 0.0076(3) 0.2531(4) 0.4312(4)
H3_2 H 0.0422 0.2650 0.4600
O5_2 O 0.2119(2) 0.0585(3) 0.8839(2)
C13_2 C 0.2067(3) 0.0868(3) 0.8300(3)
C14_2 C 0.1566(3) 0.0645(3) 0.7818(3)
C15_2 C 0.1150(3) 0.0130(4) 0.7968(3)
C17_2 C 0.0631(3) 0.0208(3) 0.6917(3)
C18_2 C 0.1053(3) 0.0717(3) 0.6754(3)
H18_2 H 0.1022 0.0920 0.6336
C19_2 C 0.1517(3) 0.0926(3) 0.7197(3)
H19_2 H 0.1810 0.1269 0.7078
N8_2 N 0.0457(4) 0.3054(5) 0.0861(4)
H26_2 H 0.0420 0.2224 0.1838
C31_2 C 0.0394(5) 0.3725(5) 0.0503(6)
H29_2 H 0.0473 0.3664 0.0033
H30_2 H 0.0718 0.4033 0.0681
C32_2 C 0.1019(5) 0.2653(6) 0.0712(6)
H31_2 H 0.1408 0.2834 0.0930
H32_2 H 0.1091 0.2648 0.0236
H33_2 H 0.0942 0.2205 0.0867
O1_3 O 0.8654(2) 0.3123(2) 0.2568(2)
O2_3 O 0.9415(3) 0.3839(2) 0.2881(2)
O3_3 O 0.8318(2) 0.3652(2) 0.0471(2)
C1_3 C 0.9132(3) 0.3300(3) 0.2933(3)
C2_3 C 0.9355(3) 0.2818(3) 0.3434(3)
C3_3 C 0.9870(4) 0.2968(3) 0.3850(3)
C5_3 C 0.9792(3) 0.1917(3) 0.4369(3)
C6_3 C 0.9283(3) 0.1754(3) 0.3947(3)
H4_3 H 0.9080 0.1336 0.3978
C7_3 C 0.9074(3) 0.2197(3) 0.3483(3)
H5_3 H 0.8731 0.2078 0.3190
C8_3 C 0.9782(3) 0.0949(3) 0.5131(3)
C9_3 C 0.7933(5) 0.3746(5) 0.0012(4)
C10_3 C 0.7276(4) 0.3388(5) 0.0001(5)
H6_3 H 0.7263 0.3066 0.0359
H8_3 H 0.6920 0.3705 0.0058
H9_3 H 0.8901 0.4430 0.0048
C20_3 C 0.9869(3) 0.0218(3) 0.5949(3)
H20_3 H 0.8365 0.0043 0.4586
N7_3 N 0.9254(3) 0.0675(3) 0.4883(3)
C28_3 C 0.9051(3) 0.0131(3) 0.5218(3)
O8_3 O 0.9529(2) 0.3318(2) 0.1348(2)
C29_3 C 0.9988(4) 0.2933(5) 0.1254(5)
C30_3 C 0.9999(5) 0.2276(4) 0.1612(5)
H25_3 H 0.9641 0.2263 0.1934
H27_3 H 0.9942 0.1920 0.1295
H28_3 H 0.9952 0.3901 0.0570
O9_3 O 0.8652(2) 0.4529(2) 0.1682(2)
N9_2 N 0.9139(4) 0.5457(4) 0.1946(5)
C33_3 C 0.8746(5) 0.4988(4) 0.2067(5)
C34_3 C 0.8388(5) 0.4999(5) 0.2724(4)
H34_3 H 0.8066 0.4641 0.2737
H35_2 H 0.8162 0.5420 0.2776
H36_3 H 0.8705 0.4942 0.3080
C35_2 C 0.9497(6) 0.5394(5) 0.1275(5)
H37_3 H 0.9430 0.4952 0.1099
H38_2 H 0.9967 0.5473 0.1336
H39_2 H 0.9319 0.5718 0.0967
C36_2 C 0.9288(6) 0.6019(5) 0.2347(6)
H40_2 H 0.9070 0.6408 0.2166
H41_2 H 0.9764 0.6091 0.2352
H42_2 H 0.9133 0.5942 0.2795
O11_2 O 0.8123(2) 0.2432(2) 0.1346(2)
N4_2 N 0.4872(3) 0.0039(3) 0.1509(3)
H15_3 H 0.5043 0.0414 0.1635
N5_3 N 0.5675(3) 0.0117(3) 0.0746(3)
H16_2 H 0.3813 0.0083 0.3381
C16_2 C 0.4312(4) 0.0076(3) 0.2531(4)
H17_2 H 0.4600 0.0422 0.2650
O7_3 O 0.8839(2) 0.2119(2) 0.0585(3)
C21_3 C 0.8300(3) 0.2067(3) 0.0868(3)
C22_3 C 0.7818(3) 0.1566(3) 0.0645(3)
C23_3 C 0.7968(3) 0.1150(3) 0.0130(4)
C25_3 C 0.6917(3) 0.0631(3) 0.0208(3)
C26_3 C 0.6754(3) 0.1053(3) 0.0717(3)
H23_3 H 0.6336 0.1022 0.0920
C27_3 C 0.7197(3) 0.1517(3) 0.0926(3)
H24_3 H 0.7078 0.1810 0.1269
H1_3 H 0.4586 0.8365 0.0043
N2_3 N 0.4883(3) 0.9254(3) 0.0675(3)
C8_4 C 0.5218(3) 0.9051(3) 0.0131(3)
O5_3 O 0.2881(2) 0.9415(3) 0.3839(2)
C13_3 C 0.2933(3) 0.9132(3) 0.3300(3)
C14_3 C 0.3434(3) 0.9355(3) 0.2818(3)
C15_3 C 0.3850(3) 0.9870(4) 0.2968(3)
C17_3 C 0.4369(3) 0.9792(3) 0.1917(3)
C18_3 C 0.3947(3) 0.9283(3) 0.1754(3)
H18_3 H 0.3978 0.9080 0.1336
C19_3 C 0.3483(3) 0.9074(3) 0.2197(3)
H19_3 H 0.3190 0.8731 0.2078
C20_4 C 0.5131(3) 0.9782(3) 0.0949(3)
C28_4 C 0.5949(3) 0.9869(3) 0.0218(3)
N1_3 N 0.9961(3) 0.6509(3) 0.0128(3)
H2_3 H 0.9917 0.8381 0.1187
C4_3 C 0.9924(3) 0.7531(4) 0.0688(4)
H3_3 H 0.9578 0.7650 0.0400
N8_3 N 0.9543(4) 0.8054(5) 0.4139(4)
H26_3 H 0.9580 0.7224 0.3162
C31_3 C 0.9606(5) 0.8725(5) 0.4497(6)
H29_3 H 0.9527 0.8664 0.4967
H30_3 H 0.9282 0.9033 0.4319
C32_3 C 0.8981(5) 0.7653(6) 0.4288(6)
H31_3 H 0.8592 0.7834 0.4070
H32_3 H 0.8909 0.7648 0.4764
H33_3 H 0.9058 0.7205 0.4133
H1_4 H 0.9586 0.6635 0.9957
N2_4 N 0.9883(3) 0.5746(3) 0.9325(3)
O4_2 O 0.7568(2) 0.6346(2) 0.6877(2)
O5_4 O 0.7881(2) 0.5585(3) 0.6161(2)
N4_3 N 0.9872(3) 0.4961(3) 0.8491(3)
C13_4 C 0.7933(3) 0.5868(3) 0.6700(3)
C14_4 C 0.8434(3) 0.5645(3) 0.7182(3)
C15_4 C 0.8850(3) 0.5130(4) 0.7032(3)
H16_3 H 0.8813 0.4917 0.6619
C16_3 C 0.9312(4) 0.4924(3) 0.7469(4)
H17_3 H 0.9600 0.4578 0.7350
C17_4 C 0.9369(3) 0.5208(3) 0.8083(3)
C18_4 C 0.8947(3) 0.5717(3) 0.8246(3)
H18_4 H 0.8978 0.5920 0.8664
C19_4 C 0.8483(3) 0.5926(3) 0.7803(3)
H19_4 H 0.8190 0.6269 0.7922
Er3_2 Er 0.654994(12) 0.654994(12) 0.654994(12)
H15_4 H 0.9957 0.9586 0.6635
N5_4 N 0.9325(3) 0.9883(3) 0.5746(3)
O6_2 O 0.6877(2) 0.7568(2) 0.6346(2)
O7_4 O 0.6161(2) 0.7881(2) 0.5585(3)
N6_3 N 0.8491(3) 0.9872(3) 0.4961(3)
C21_4 C 0.6700(3) 0.7933(3) 0.5868(3)
C22_4 C 0.7182(3) 0.8434(3) 0.5645(3)
C23_4 C 0.7032(3) 0.8850(3) 0.5130(4)
H21_3 H 0.6619 0.8813 0.4917
C24_3 C 0.7469(4) 0.9312(4) 0.4924(3)
H22_3 H 0.7350 0.9600 0.4578
C25_4 C 0.8083(3) 0.9369(3) 0.5208(3)
C26_4 C 0.8246(3) 0.8947(3) 0.5717(3)
H23_4 H 0.8664 0.8978 0.5920
C27_4 C 0.7803(3) 0.8483(3) 0.5926(3)
H24_4 H 0.7922 0.8190 0.6269
O1_4 O 0.6346(2) 0.6877(2) 0.7568(2)
O2_4 O 0.5585(3) 0.6161(2) 0.7881(2)
O3_4 O 0.6682(2) 0.6348(2) 0.5471(2)
N1_4 N 0.4961(3) 0.8491(3) 0.9872(3)
N3_3 N 0.6946(5) 0.5861(4) 0.4543(4)
C1_4 C 0.5868(3) 0.6700(3) 0.7933(3)
C2_4 C 0.5645(3) 0.7182(3) 0.8434(3)
C3_4 C 0.5130(4) 0.7032(3) 0.8850(3)
H2_4 H 0.4917 0.6619 0.8813
C4_4 C 0.4924(3) 0.7469(4) 0.9312(4)
H3_4 H 0.4578 0.7350 0.9600
C5_4 C 0.5208(3) 0.8083(3) 0.9369(3)
C6_4 C 0.5717(3) 0.8246(3) 0.8947(3)
H4_4 H 0.5920 0.8664 0.8978
C7_4 C 0.5926(3) 0.7803(3) 0.8483(3)
H5_4 H 0.6269 0.7922 0.8190
C9_4 C 0.7067(5) 0.6254(5) 0.5012(4)
C10_4 C 0.7724(4) 0.6612(5) 0.5001(5)
H6_4 H 0.7737 0.6934 0.5359
H7_3 H 0.7776 0.6838 0.4580
H8_4 H 0.8080 0.6295 0.5058
C11_3 C 0.6275(5) 0.5503(6) 0.4606(5)
H9_4 H 0.6099 0.5570 0.5048
H10_3 H 0.6336 0.5033 0.4527
H11_3 H 0.5967 0.5681 0.4282
C12_3 C 0.7347(6) 0.5712(6) 0.3981(5)
H12_3 H 0.7166 0.5930 0.3592
H13_3 H 0.7352 0.5236 0.3909
H14_3 H 0.7795 0.5867 0.4058
H20_4 H 0.6635 0.9957 0.9586
N7_4 N 0.5746(3) 0.9325(3) 0.9883(3)
O8_4 O 0.5471(2) 0.6682(2) 0.6348(2)
N8_4 N 0.4543(4) 0.6946(5) 0.5861(4)
C29_4 C 0.5012(4) 0.7067(5) 0.6254(5)
C30_4 C 0.5001(5) 0.7724(4) 0.6612(5)
H25_4 H 0.5359 0.7737 0.6934
H26_4 H 0.4580 0.7776 0.6838
H27_4 H 0.5058 0.8080 0.6295
C31_4 C 0.4606(5) 0.6275(5) 0.5503(6)
H28_4 H 0.5048 0.6099 0.5570
H29_4 H 0.4527 0.6336 0.5033
H30_4 H 0.4282 0.5967 0.5681
C32_4 C 0.3981(5) 0.7347(6) 0.5712(6)
H31_4 H 0.3592 0.7166 0.5930
H32_4 H 0.3909 0.7352 0.5236
H33_4 H 0.4058 0.7795 0.5867
O9_4 O 0.6348(2) 0.5471(2) 0.6682(2)
N9_3 N 0.5861(4) 0.4543(4) 0.6946(5)
C33_4 C 0.6254(5) 0.5012(4) 0.7067(5)
C34_4 C 0.6612(5) 0.5001(5) 0.7724(4)
H34_4 H 0.6934 0.5359 0.7737
H35_3 H 0.6838 0.4580 0.7776
H36_4 H 0.6295 0.5058 0.8080
C35_3 C 0.5503(6) 0.4606(5) 0.6275(5)
H37_4 H 0.5570 0.5048 0.6099
H38_3 H 0.5033 0.4527 0.6336
H39_3 H 0.5681 0.4282 0.5967
C36_3 C 0.5712(6) 0.3981(5) 0.7347(6)
H40_3 H 0.5930 0.3592 0.7166
H41_3 H 0.5236 0.3909 0.7352
H42_3 H 0.5867 0.4058 0.7795
N9_4 N 0.4139(4) 0.9543(4) 0.8054(5)
H35_4 H 0.3162 0.9580 0.7224
C35_4 C 0.4497(6) 0.9606(5) 0.8725(5)
H38_4 H 0.4967 0.9527 0.8664
H39_4 H 0.4319 0.9282 0.9033
C36_4 C 0.4288(6) 0.8981(5) 0.7653(6)
H40_4 H 0.4070 0.8592 0.7834
H41_4 H 0.4764 0.8909 0.7648
H42_4 H 0.4133 0.9058 0.7205
N4_4 N 0.0128(3) 0.9961(3) 0.6509(3)
H16_4 H 0.1187 0.9917 0.8381
C16_4 C 0.0688(4) 0.9924(3) 0.7531(4)
H17_4 H 0.0400 0.9578 0.7650
N3_4 N 0.8054(5) 0.4139(4) 0.9543(4)
H7_4 H 0.7224 0.3162 0.9580
C11_4 C 0.8725(5) 0.4497(6) 0.9606(5)
H10_4 H 0.8664 0.4967 0.9527
H11_4 H 0.9033 0.4319 0.9282
C12_4 C 0.7653(6) 0.4288(6) 0.8981(5)
H12_4 H 0.7834 0.4070 0.8592
H13_4 H 0.7648 0.4764 0.8909
H14_4 H 0.7205 0.4133 0.9058
N6_4 N 0.6509(3) 0.0128(3) 0.9961(3)
H21_4 H 0.8381 0.1187 0.9917
C24_4 C 0.7531(4) 0.0688(4) 0.9924(3)
H22_4 H 0.7650 0.0400 0.9578
Er4 Er 0.333257(13) 0.666743(13) 0.166743(13)
O12 O 0.2377(2) 0.6190(2) 0.1805(2)
O13 O 0.2117(2) 0.5356(3) 0.1153(2)
O14 O 0.2640(2) 0.7360(2) 0.2360(2)
O15 O 0.3253(3) 0.6332(3) 0.0582(2)
N10 N 0.0092(2) 0.4900(3) 0.3504(3)
N11 N 0.0118(3) 0.5711(3) 0.4307(3)
C37 C 0.2042(3) 0.5683(3) 0.1666(3)
C38 C 0.1546(3) 0.5486(3) 0.2164(3)
C39 C 0.1492(3) 0.5803(3) 0.2754(3)
H44 H 0.1781 0.6156 0.2851
C40 C 0.1021(3) 0.5621(3) 0.3216(3)
H45 H 0.0995 0.5847 0.3623
C41 C 0.0586(3) 0.5105(3) 0.3083(3)
C42 C 0.0649(3) 0.4789(3) 0.2483(3)
H46 H 0.0360 0.4437 0.2384
C43 C 0.1108(3) 0.4965(3) 0.2030(3)
H47 H 0.1134 0.4738 0.1625
C45 C 0.2880(4) 0.6275(4) 0.0112(4)
C46 C 0.2240(4) 0.6602(5) 0.0074(5)
H48 H 0.1891 0.6271 0.0077
H50 H 0.2187 0.6894 0.0452
H54 H 0.3883 0.5600 0.0089
N15 N 0.0100(3) 0.6496(3) 0.5092(2)
H62 H 0.0478 0.6602 0.4913
C62 C 0.0211(3) 0.7517(3) 0.5649(3)
H65 H 0.0563 0.7616 0.5360
C63 C 0.0035(3) 0.7970(3) 0.6108(3)
H66 H 0.0262 0.8375 0.6134
O20 O 0.4418(2) 0.6747(3) 0.1332(3)
N17 N 0.5394(3) 0.6937(4) 0.0906(4)
C65 C 0.4888(4) 0.7120(4) 0.1275(4)
C66 C 0.4926(5) 0.7760(4) 0.1602(5)
H67 H 0.4923 0.8109 0.1271
H68 H 0.5332 0.7786 0.1858
H69 H 0.4548 0.7813 0.1894
C67 C 0.5958(5) 0.7338(6) 0.0766(6)
H70 H 0.6000 0.7395 0.0291
H71 H 0.6353 0.7124 0.0937
H72 H 0.5905 0.7767 0.0975
C68 C 0.5366(5) 0.6272(5) 0.0603(6)
H73 H 0.4911 0.6117 0.0600
H74 H 0.5638 0.5969 0.0858
H75 H 0.5531 0.6295 0.0152
O21 O 0.3668(3) 0.5582(2) 0.1747(3)
N18 N 0.4094(4) 0.4606(3) 0.1937(4)
C69 C 0.3725(4) 0.5112(4) 0.2120(4)
C70 C 0.3398(5) 0.5074(5) 0.2760(4)
H76 H 0.3729 0.5077 0.3109
H77 H 0.3142 0.4668 0.2786
H78 H 0.3106 0.5452 0.2813
C71 C 0.4234(6) 0.4042(5) 0.2338(6)
H79 H 0.4709 0.4000 0.2395
H80 H 0.4063 0.3647 0.2124
H81 H 0.4025 0.4095 0.2767
C72 C 0.4397(6) 0.4634(5) 0.1272(5)
H82 H 0.4400 0.5089 0.1117
H83 H 0.4142 0.4362 0.0969
H84 H 0.4848 0.4469 0.1295
O22 O 0.3195(2) 0.7623(2) 0.1190(2)
O23 O 0.3810(2) 0.6805(2) 0.2623(2)
H43 H 0.9913 0.4522 0.3398
C44 C 0.9839(3) 0.5178(3) 0.4048(3)
O16 O 0.6805(2) 0.2623(2) 0.3810(2)
O17 O 0.6153(2) 0.2883(2) 0.4644(3)
N13 N 0.8504(3) 0.4908(2) 0.5100(3)
H57 H 0.8398 0.5087 0.5478
N14 N 0.9307(3) 0.4882(3) 0.4289(3)
C49 C 0.6666(3) 0.2958(3) 0.4317(3)
C50 C 0.7164(3) 0.3454(3) 0.4514(3)
C51 C 0.7754(3) 0.3508(3) 0.4197(3)
H58 H 0.7851 0.3219 0.3844
C52 C 0.8216(3) 0.3979(3) 0.4379(3)
H59 H 0.8623 0.4005 0.4153
C53 C 0.8083(3) 0.4414(3) 0.4895(3)
C54 C 0.7483(3) 0.4351(3) 0.5211(3)
H60 H 0.7384 0.4640 0.5563
C55 C 0.7030(3) 0.3892(3) 0.5035(3)
H61 H 0.6625 0.3866 0.5262
C56 C 0.9048(3) 0.5161(3) 0.4822(3)
O18 O 0.8810(2) 0.8195(2) 0.7377(2)
O19 O 0.9644(3) 0.8847(2) 0.7117(2)
N16 N 0.9289(3) 0.5693(3) 0.5118(3)
C57 C 0.9317(3) 0.8334(3) 0.7042(3)
C58 C 0.9514(3) 0.7836(3) 0.6546(3)
C59 C 0.9197(3) 0.7246(3) 0.6492(3)
H63 H 0.8844 0.7149 0.6781
C60 C 0.9379(3) 0.6784(3) 0.6021(3)
H64 H 0.9153 0.6377 0.5995
C61 C 0.9895(3) 0.6917(3) 0.5586(3)
C64 C 0.9822(3) 0.5952(3) 0.4839(3)
Er5 Er 0.666743(13) 0.166743(13) 0.333257(13)
Er6 Er 0.833257(13) 0.833257(13) 0.833257(13)
N13_2 N 0.6496(3) 0.5092(2) 0.0100(3)
H57_2 H 0.6602 0.4913 0.0478
C54_2 C 0.7517(3) 0.5649(3) 0.0211(3)
H60_2 H 0.7616 0.5360 0.0563
C55_2 C 0.7970(3) 0.6108(3) 0.0035(3)
H61_2 H 0.8375 0.6134 0.0262
O18_2 O 0.6190(2) 0.1805(2) 0.2377(2)
O19_2 O 0.5356(3) 0.1153(2) 0.2117(2)
N15_2 N 0.4900(3) 0.3504(3) 0.0092(2)
N16_2 N 0.5711(3) 0.4307(3) 0.0118(3)
C57_2 C 0.5683(3) 0.1666(3) 0.2042(3)
C58_2 C 0.5486(3) 0.2164(3) 0.1546(3)
C59_2 C 0.5803(3) 0.2754(3) 0.1492(3)
H63_2 H 0.6156 0.2851 0.1781
C60_2 C 0.5621(3) 0.3216(3) 0.1021(3)
H64_2 H 0.5847 0.3623 0.0995
C61_2 C 0.5105(3) 0.3083(3) 0.0586(3)
C62_2 C 0.4789(3) 0.2483(3) 0.0649(3)
H65_2 H 0.4437 0.2384 0.0360
C63_2 C 0.4965(3) 0.2030(3) 0.1108(3)
H66_2 H 0.4738 0.1625 0.1134
Er4_2 Er 0.166743(13) 0.333257(13) 0.666743(13)
O12_2 O 0.2623(2) 0.3810(2) 0.6805(2)
O13_2 O 0.2883(2) 0.4644(3) 0.6153(2)
O14_2 O 0.2360(2) 0.2640(2) 0.7360(2)
O15_2 O 0.1747(3) 0.3668(3) 0.5582(2)
N10_2 N 0.4908(2) 0.5100(3) 0.8504(3)
H43_2 H 0.5087 0.5478 0.8398
N11_2 N 0.4882(3) 0.4289(3) 0.9307(3)
N12 N 0.1937(4) 0.4094(4) 0.4606(3)
C37_2 C 0.2958(3) 0.4317(3) 0.6666(3)
C38_2 C 0.3454(3) 0.4514(3) 0.7164(3)
C39_2 C 0.3508(3) 0.4197(3) 0.7754(3)
H44_2 H 0.3219 0.3844 0.7851
C40_2 C 0.3979(3) 0.4379(3) 0.8216(3)
H45_2 H 0.4005 0.4153 0.8623
C41_2 C 0.4414(3) 0.4895(3) 0.8083(3)
C42_2 C 0.4351(3) 0.5211(3) 0.7483(3)
H46_2 H 0.4640 0.5563 0.7384
C43_2 C 0.3892(3) 0.5035(3) 0.7030(3)
H47_2 H 0.3866 0.5262 0.6625
C44_2 C 0.5161(3) 0.4822(3) 0.9048(3)
C45_2 C 0.2120(4) 0.3725(4) 0.5112(4)
C46_2 C 0.2760(4) 0.3398(5) 0.5074(5)
H48_2 H 0.3109 0.3729 0.5077
H49 H 0.2786 0.3142 0.4668
H50_2 H 0.2813 0.3106 0.5452
C47 C 0.2338(6) 0.4234(6) 0.4042(5)
H51 H 0.2395 0.4709 0.4000
H52 H 0.2124 0.4063 0.3647
H53 H 0.2767 0.4025 0.4095
C48 C 0.1272(5) 0.4397(6) 0.4634(5)
H54_2 H 0.1117 0.4400 0.5089
H55 H 0.0969 0.4142 0.4362
H56 H 0.1295 0.4848 0.4469
O16_2 O 0.8195(2) 0.7377(2) 0.8810(2)
O17_2 O 0.8847(2) 0.7117(2) 0.9644(3)
N14_2 N 0.5693(3) 0.5118(3) 0.9289(3)
C49_2 C 0.8334(3) 0.7042(3) 0.9317(3)
C50_2 C 0.7836(3) 0.6546(3) 0.9514(3)
C51_2 C 0.7246(3) 0.6492(3) 0.9197(3)
H58_2 H 0.7149 0.6781 0.8844
C52_2 C 0.6784(3) 0.6021(3) 0.9379(3)
H59_2 H 0.6377 0.5995 0.9153
C53_2 C 0.6917(3) 0.5586(3) 0.9895(3)
C56_2 C 0.5952(3) 0.4839(3) 0.9822(3)
H62_2 H 0.4522 0.3398 0.9913
C64_2 C 0.5178(3) 0.4048(3) 0.9839(3)
O20_2 O 0.0582(2) 0.3253(3) 0.6332(3)
C65_2 C 0.0112(4) 0.2880(4) 0.6275(4)
C66_2 C 0.0074(5) 0.2240(4) 0.6602(5)
H67_2 H 0.0077 0.1891 0.6271
H69_2 H 0.0452 0.2187 0.6894
H73_2 H 0.0089 0.3883 0.5600
O21_2 O 0.1332(3) 0.4418(2) 0.6747(3)
N18_2 N 0.0906(4) 0.5394(3) 0.6937(4)
C69_2 C 0.1275(4) 0.4888(4) 0.7120(4)
C70_2 C 0.1602(5) 0.4926(5) 0.7760(4)
H76_2 H 0.1271 0.4923 0.8109
H77_2 H 0.1858 0.5332 0.7786
H78_2 H 0.1894 0.4548 0.7813
C71_2 C 0.0766(6) 0.5958(5) 0.7338(6)
H79_2 H 0.0291 0.6000 0.7395
H80_2 H 0.0937 0.6353 0.7124
H81_2 H 0.0975 0.5905 0.7767
C72_2 C 0.0603(6) 0.5366(5) 0.6272(5)
H82_2 H 0.0600 0.4911 0.6117
H83_2 H 0.0858 0.5638 0.5969
H84_2 H 0.0152 0.5531 0.6295
O22_2 O 0.1805(2) 0.2377(2) 0.6190(2)
O23_2 O 0.1190(2) 0.3195(2) 0.7623(2)
H57_3 H 0.1602 0.0087 0.9522
O19_3 O 0.0356(3) 0.3847(2) 0.7883(2)
N16_3 N 0.0711(3) 0.0693(3) 0.9882(3)
C57_3 C 0.0683(3) 0.3334(3) 0.7958(3)
C58_3 C 0.0486(3) 0.2836(3) 0.8454(3)
C59_3 C 0.0803(3) 0.2246(3) 0.8508(3)
H63_3 H 0.1156 0.2149 0.8219
C60_3 C 0.0621(3) 0.1784(3) 0.8979(3)
H64_3 H 0.0847 0.1377 0.9005
C61_3 C 0.0105(3) 0.1917(3) 0.9414(3)
H43_3 H 0.0087 0.9522 0.1602
O17_3 O 0.3847(2) 0.7883(2) 0.0356(3)
N14_3 N 0.0693(3) 0.9882(3) 0.0711(3)
C49_3 C 0.3334(3) 0.7958(3) 0.0683(3)
C50_3 C 0.2836(3) 0.8454(3) 0.0486(3)
C51_3 C 0.2246(3) 0.8508(3) 0.0803(3)
H58_3 H 0.2149 0.8219 0.1156
C52_3 C 0.1784(3) 0.8979(3) 0.0621(3)
H59_3 H 0.1377 0.9005 0.0847
C53_3 C 0.1917(3) 0.9414(3) 0.0105(3)
O12_3 O 0.7623(2) 0.1190(2) 0.3195(2)
O13_3 O 0.7883(2) 0.0356(3) 0.3847(2)
O14_3 O 0.7360(2) 0.2360(2) 0.2640(2)
O15_3 O 0.6747(3) 0.1332(3) 0.4418(2)
N11_3 N 0.9882(3) 0.0711(3) 0.0693(3)
N12_2 N 0.6937(4) 0.0906(4) 0.5394(3)
C37_3 C 0.7958(3) 0.0683(3) 0.3334(3)
C38_3 C 0.8454(3) 0.0486(3) 0.2836(3)
C39_3 C 0.8508(3) 0.0803(3) 0.2246(3)
H44_3 H 0.8219 0.1156 0.2149
C40_3 C 0.8979(3) 0.0621(3) 0.1784(3)
H45_3 H 0.9005 0.0847 0.1377
C41_3 C 0.9414(3) 0.0105(3) 0.1917(3)
C45_3 C 0.7120(4) 0.1275(4) 0.4888(4)
C46_3 C 0.7760(4) 0.1602(5) 0.4926(5)
H48_3 H 0.8109 0.1271 0.4923
H49_2 H 0.7786 0.1858 0.5332
H50_3 H 0.7813 0.1894 0.4548
C47_2 C 0.7338(6) 0.0766(6) 0.5958(5)
H51_2 H 0.7395 0.0291 0.6000
H52_2 H 0.7124 0.0937 0.6353
H53_2 H 0.7767 0.0975 0.5905
C48_2 C 0.6272(5) 0.0603(6) 0.5366(5)
H54_3 H 0.6117 0.0600 0.4911
H55_2 H 0.5969 0.0858 0.5638
H56_2 H 0.6295 0.0152 0.5531
H62_3 H 0.9522 0.1602 0.0087
O20_3 O 0.5582(2) 0.1747(3) 0.3668(3)
N17_2 N 0.4606(3) 0.1937(4) 0.4094(4)
C65_3 C 0.5112(4) 0.2120(4) 0.3725(4)
C66_3 C 0.5074(5) 0.2760(4) 0.3398(5)
H67_3 H 0.5077 0.3109 0.3729
H68_2 H 0.4668 0.2786 0.3142
H69_3 H 0.5452 0.2813 0.3106
C67_2 C 0.4042(5) 0.2338(6) 0.4234(6)
H70_2 H 0.4000 0.2395 0.4709
H71_2 H 0.3647 0.2124 0.4063
H72_2 H 0.4095 0.2767 0.4025
C68_2 C 0.4634(5) 0.1272(5) 0.4397(6)
H73_3 H 0.5089 0.1117 0.4400
H74_2 H 0.4362 0.0969 0.4142
H75_2 H 0.4469 0.1295 0.4848
O21_3 O 0.6332(3) 0.0582(2) 0.3253(3)
C69_3 C 0.6275(4) 0.0112(4) 0.2880(4)
C70_3 C 0.6602(5) 0.0074(5) 0.2240(4)
H76_3 H 0.6271 0.0077 0.1891
H78_3 H 0.6894 0.0452 0.2187
H82_3 H 0.5600 0.0089 0.3883
N17_3 N 0.0394(3) 0.8063(4) 0.9094(4)
H68_3 H 0.0332 0.7214 0.8142
C67_3 C 0.0958(5) 0.7662(6) 0.9234(6)
H70_3 H 0.1000 0.7605 0.9709
H71_3 H 0.1353 0.7876 0.9063
H72_3 H 0.0905 0.7233 0.9025
C68_3 C 0.0366(5) 0.8728(5) 0.9397(6)
H74_3 H 0.0638 0.9031 0.9142
H75_3 H 0.0531 0.8705 0.9848
N10_3 N 0.5092(2) 0.0100(3) 0.6496(3)
H43_4 H 0.4913 0.0478 0.6602
C42_3 C 0.5649(3) 0.0211(3) 0.7517(3)
H46_3 H 0.5360 0.0563 0.7616
C43_3 C 0.6108(3) 0.0035(3) 0.7970(3)
H47_3 H 0.6134 0.0262 0.8375
O17_4 O 0.1153(2) 0.2117(2) 0.5356(3)
N13_3 N 0.3504(3) 0.0092(2) 0.4900(3)
N14_4 N 0.4307(3) 0.0118(3) 0.5711(3)
C49_4 C 0.1666(3) 0.2042(3) 0.5683(3)
C50_4 C 0.2164(3) 0.1546(3) 0.5486(3)
C51_4 C 0.2754(3) 0.1492(3) 0.5803(3)
H58_4 H 0.2851 0.1781 0.6156
C52_4 C 0.3216(3) 0.1021(3) 0.5621(3)
H59_4 H 0.3623 0.0995 0.5847
C53_4 C 0.3083(3) 0.0586(3) 0.5105(3)
C54_3 C 0.2483(3) 0.0649(3) 0.4789(3)
H60_3 H 0.2384 0.0360 0.4437
C55_3 C 0.2030(3) 0.1108(3) 0.4965(3)
H61_3 H 0.1625 0.1134 0.4738
N18_3 N 0.9094(4) 0.0394(3) 0.8063(4)
H77_3 H 0.8142 0.0332 0.7214
C71_3 C 0.9234(6) 0.0958(5) 0.7662(6)
H79_3 H 0.9709 0.1000 0.7605
H80_3 H 0.9063 0.1353 0.7876
H81_3 H 0.9025 0.0905 0.7233
C72_3 C 0.9397(6) 0.0366(5) 0.8728(5)
H83_3 H 0.9142 0.0638 0.9031
H84_3 H 0.9848 0.0531 0.8705
N12_3 N 0.8063(4) 0.9094(4) 0.0394(3)
H49_3 H 0.7214 0.8142 0.0332
C47_3 C 0.7662(6) 0.9234(6) 0.0958(5)
H51_3 H 0.7605 0.9709 0.1000
H52_3 H 0.7876 0.9063 0.1353
H53_3 H 0.7233 0.9025 0.0905
C48_3 C 0.8728(5) 0.9397(6) 0.0366(5)
H55_3 H 0.9031 0.9142 0.0638
H56_3 H 0.8705 0.9848 0.0531
O12_4 O 0.7377(2) 0.8810(2) 0.8195(2)
O13_4 O 0.7117(2) 0.9644(3) 0.8847(2)
O14_4 O 0.7640(2) 0.7640(2) 0.7640(2)
O15_4 O 0.8253(3) 0.8668(3) 0.9418(2)
N11_4 N 0.5118(3) 0.9289(3) 0.5693(3)
C37_4 C 0.7042(3) 0.9317(3) 0.8334(3)
C38_4 C 0.6546(3) 0.9514(3) 0.7836(3)
C39_4 C 0.6492(3) 0.9197(3) 0.7246(3)
H44_4 H 0.6781 0.8844 0.7149
C40_4 C 0.6021(3) 0.9379(3) 0.6784(3)
H45_4 H 0.5995 0.9153 0.6377
C41_4 C 0.5586(3) 0.9895(3) 0.6917(3)
C44_3 C 0.4839(3) 0.9822(3) 0.5952(3)
C45_4 C 0.7880(4) 0.8725(4) 0.9888(4)
C46_4 C 0.7240(4) 0.8398(5) 0.9926(5)
H48_4 H 0.6891 0.8729 0.9923
H50_4 H 0.7187 0.8106 0.9548
H54_4 H 0.8883 0.9400 0.9911
H57_4 H 0.3398 0.9913 0.4522
C56_3 C 0.4048(3) 0.9839(3) 0.5178(3)
O19_4 O 0.4644(3) 0.6153(2) 0.2883(2)
N15_3 N 0.5100(3) 0.8504(3) 0.4908(2)
H62_4 H 0.5478 0.8398 0.5087
N16_4 N 0.4289(3) 0.9307(3) 0.4882(3)
C57_4 C 0.4317(3) 0.6666(3) 0.2958(3)
C58_4 C 0.4514(3) 0.7164(3) 0.3454(3)
C59_4 C 0.4197(3) 0.7754(3) 0.3508(3)
H63_4 H 0.3844 0.7851 0.3219
C60_4 C 0.4379(3) 0.8216(3) 0.3979(3)
H64_4 H 0.4153 0.8623 0.4005
C61_4 C 0.4895(3) 0.8083(3) 0.4414(3)
C62_3 C 0.5211(3) 0.7483(3) 0.4351(3)
H65_3 H 0.5563 0.7384 0.4640
C63_3 C 0.5035(3) 0.7030(3) 0.3892(3)
H66_3 H 0.5262 0.6625 0.3866
C64_3 C 0.4822(3) 0.9048(3) 0.5161(3)
O20_4 O 0.9418(2) 0.8253(3) 0.8668(3)
C65_4 C 0.9888(4) 0.7880(4) 0.8725(4)
C66_4 C 0.9926(5) 0.7240(4) 0.8398(5)
H67_4 H 0.9923 0.6891 0.8729
H69_4 H 0.9548 0.7187 0.8106
H73_4 H 0.9911 0.8883 0.9400
O21_4 O 0.8668(3) 0.9418(2) 0.8253(3)
C69_4 C 0.8725(4) 0.9888(4) 0.7880(4)
C70_4 C 0.8398(5) 0.9926(5) 0.7240(4)
H76_4 H 0.8729 0.9923 0.6891
H78_4 H 0.8106 0.9548 0.7187
H82_4 H 0.9400 0.9911 0.8883
N12_4 N 0.3063(4) 0.5906(4) 0.9606(3)
H49_4 H 0.2214 0.6858 0.9668
C47_4 C 0.2662(6) 0.5766(6) 0.9042(5)
H51_4 H 0.2605 0.5291 0.9000
H52_4 H 0.2876 0.5937 0.8647
H53_4 H 0.2233 0.5975 0.9095
C48_4 C 0.3728(5) 0.5603(6) 0.9634(5)
H55_4 H 0.4031 0.5858 0.9362
H56_4 H 0.3705 0.5152 0.9469
N13_4 N 0.1496(3) 0.9908(2) 0.9900(3)
C54_4 C 0.2517(3) 0.9351(3) 0.9789(3)
H60_4 H 0.2616 0.9640 0.9437
C55_4 C 0.2970(3) 0.8892(3) 0.9965(3)
H61_4 H 0.3375 0.8866 0.9738
N17_4 N 0.9606(3) 0.3063(4) 0.5906(4)
H68_4 H 0.9668 0.2214 0.6858
C67_4 C 0.9042(5) 0.2662(6) 0.5766(6)
H70_4 H 0.9000 0.2605 0.5291
H71_4 H 0.8647 0.2876 0.5937
H72_4 H 0.9095 0.2233 0.5975
C68_4 C 0.9634(5) 0.3728(5) 0.5603(6)
H74_4 H 0.9362 0.4031 0.5858
H75_4 H 0.9469 0.3705 0.5152
N15_4 N 0.9900(3) 0.1496(3) 0.9908(2)
C62_4 C 0.9789(3) 0.2517(3) 0.9351(3)
H65_4 H 0.9437 0.2616 0.9640
C63_4 C 0.9965(3) 0.2970(3) 0.8892(3)
H66_4 H 0.9738 0.3375 0.8866
C44_4 C 0.0161(3) 0.0178(3) 0.0952(3)
C56_4 C 0.0952(3) 0.0161(3) 0.0178(3)
C64_4 C 0.0178(3) 0.0952(3) 0.0161(3)
N10_4 N 0.9908(2) 0.9900(3) 0.1496(3)
C42_4 C 0.9351(3) 0.9789(3) 0.2517(3)
H46_4 H 0.9640 0.9437 0.2616
C43_4 C 0.8892(3) 0.9965(3) 0.2970(3)
H47_4 H 0.8866 0.9738 0.3375
N18_4 N 0.5906(4) 0.9606(3) 0.3063(4)
H77_4 H 0.6858 0.9668 0.2214
C71_4 C 0.5766(6) 0.9042(5) 0.2662(6)
H79_4 H 0.5291 0.9000 0.2605
H80_4 H 0.5937 0.8647 0.2876
H81_4 H 0.5975 0.9095 0.2233
C72_4 C 0.5603(6) 0.9634(5) 0.3728(5)
H83_4 H 0.5858 0.9362 0.4031
H84_4 H 0.5152 0.9469 0.3705
loop_
_geom_bond_atom_site_label_1
_geom_bond_atom_site_label_2
_geom_bond_site_symmetry_1
_geom_bond_site_symmetry_2
C35 N9 1_555 1_555
H38 C35 1_555 1_555
H39 C35 1_555 1_555
C36 N9 1_555 1_555
H40 C36 1_555 1_555
H41 C36 1_555 1_555
H42 C36 1_555 1_555
Er1 O1 1_555 1_555
O1 C1 1_555 1_555
O2 C1 1_555 1_555
O3 Er1 1_555 1_555
N3 C9 1_555 1_555
C1 C2 1_555 1_555
C2 C3 1_555 1_555
C6 C5 1_555 1_555
H4 C6 1_555 1_555
C7 C2 1_555 1_555
H5 C7 1_555 1_555
C9 O3 1_555 1_555
C10 C9 1_555 1_555
H6 C10 1_555 1_555
H7 C10 1_555 1_555
H8 C10 1_555 1_555
C11 N3 1_555 1_555
H9 C11 1_555 1_555
H10 C11 1_555 1_555
H11 C11 1_555 1_555
C12 N3 1_555 1_555
H12 C12 1_555 1_555
H13 C12 1_555 1_555
H14 C12 1_555 1_555
N6 H20 1_555 1_555
H22 C24 1_555 1_555
O8 Er1 1_555 1_555
C29 O8 1_555 1_555
C30 C29 1_555 1_555
H25 C30 1_555 1_555
H27 C30 1_555 1_555
O9 Er1 1_555 1_555
C33 O9 1_555 1_555
C34 C33 1_555 1_555
H34 C34 1_555 1_555
H36 C34 1_555 1_555
O10 Er1 1_555 1_555
O11 Er1 1_555 1_555
C6 C7 1_555 1_555
N5 C20 1_555 1_555
O6 C21 1_555 1_555
O7 C21 1_555 1_555
C21 C22 1_555 1_555
C22 C23 1_555 1_555
C26 C25 1_555 1_555
H23 C26 1_555 1_555
C27 C22 1_555 1_555
H24 C27 1_555 1_555
C28 N5 1_555 1_555
Er2 O6 1_555 1_555
C26 C27 1_555 1_555
C11_2 N3_2 1_555 1_555
H10_2 C11_2 1_555 1_555
H11_2 C11_2 1_555 1_555
C12_2 N3_2 1_555 1_555
H12_2 C12_2 1_555 1_555
H13_2 C12_2 1_555 1_555
H14_2 C12_2 1_555 1_555
Er2 O1_2 1_555 1_555
O1_2 C1_2 1_555 1_555
O2_2 C1_2 1_555 1_555
O3_2 Er2 1_555 1_555
N1 H1 1_555 1_555
N2 C8_2 1_555 1_555
C1_2 C2_2 1_555 1_555
C2_2 C3_2 1_555 1_555
C3_2 H2 1_555 1_555
C4 C3_2 1_555 1_555
H3 C4 1_555 1_555
C5_2 N1 1_555 1_555
C6_2 C5_2 1_555 1_555
H4_2 C6_2 1_555 1_555
C7_2 C2_2 1_555 1_555
H5_2 C7_2 1_555 1_555
C8_2 N1 1_555 1_555
C9_2 O3_2 1_555 1_555
C10_2 C9_2 1_555 1_555
H6_2 C10_2 1_555 1_555
H8_2 C10_2 1_555 1_555
O4 C13 1_555 1_555
O5 C13 1_555 1_555
N4 H15_2 1_555 1_555
N5_2 C20_2 1_555 1_555
C13 C14 1_555 1_555
C14 C15 1_555 1_555
C15 H16 1_555 1_555
C16 C15 1_555 1_555
H17 C16 1_555 1_555
C17 N4 1_555 1_555
C18 C17 1_555 1_555
H18 C18 1_555 1_555
C19 C14 1_555 1_555
H19 C19 1_555 1_555
C20_2 N2 1_555 1_555
O11 C21_2 1_555 1_555
O7_2 C21_2 1_555 1_555
N6_2 H20_2 1_555 1_555
N7_2 C8_2 1_555 1_555
C21_2 C22_2 1_555 1_555
C22_2 C23_2 1_555 1_555
C23_2 H21_2 1_555 1_555
C24_2 C23_2 1_555 1_555
H22_2 C24_2 1_555 1_555
C25_2 N6_2 1_555 1_555
C26_2 C25_2 1_555 1_555
H23_2 C26_2 1_555 1_555
C27_2 C22_2 1_555 1_555
H24_2 C27_2 1_555 1_555
C28_2 N5_2 1_555 1_555
O8_2 Er2 1_555 1_555
N8 C29_2 1_555 1_555
C29_2 O8_2 1_555 1_555
C30_2 C29_2 1_555 1_555
H25_2 C30_2 1_555 1_555
H26 C30_2 1_555 1_555
H27_2 C30_2 1_555 1_555
C31 N8 1_555 1_555
H28_2 C31 1_555 1_555
H29 C31 1_555 1_555
H30 C31 1_555 1_555
C32 N8 1_555 1_555
H31 C32 1_555 1_555
H32 C32 1_555 1_555
H33 C32 1_555 1_555
O9_2 Er2 1_555 1_555
C33_2 O9_2 1_555 1_555
C34_2 C33_2 1_555 1_555
H34_2 C34_2 1_555 1_555
H36_2 C34_2 1_555 1_555
Er3 O4 1_555 1_555
O10_2 Er2 1_555 1_555
C4 C5_2 1_555 1_555
C6_2 C7_2 1_555 1_555
N4 C20_2 1_555 1_555
C16 C17 1_555 1_555
C18 C19 1_555 1_555
N6_2 C28_2 1_555 1_555
N7_2 C28_2 1_555 1_555
C24_2 C25_2 1_555 1_555
C26_2 C27_2 1_555 1_555
N1_2 H1_2 1_555 1_555
H3_2 C4_2 1_555 1_555
O10_2 C13_2 1_555 1_555
O5_2 C13_2 1_555 1_555
C13_2 C14_2 1_555 1_555
C14_2 C15_2 1_555 1_555
C18_2 C17_2 1_555 1_555
H18_2 C18_2 1_555 1_555
C19_2 C14_2 1_555 1_555
H19_2 C19_2 1_555 1_555
C31_2 N8_2 1_555 1_555
H29_2 C31_2 1_555 1_555
H30_2 C31_2 1_555 1_555
C32_2 N8_2 1_555 1_555
H31_2 C32_2 1_555 1_555
H32_2 C32_2 1_555 1_555
H33_2 C32_2 1_555 1_555
C18_2 C19_2 1_555 1_555
Er3 O1_3 1_555 1_555
O1_3 C1_3 1_555 1_555
O2_3 C1_3 1_555 1_555
O3_3 Er3 1_555 1_555
C1_3 C2_3 1_555 1_555
C2_3 C3_3 1_555 1_555
C6_3 C5_3 1_555 1_555
H4_3 C6_3 1_555 1_555
C7_3 C2_3 1_555 1_555
H5_3 C7_3 1_555 1_555
C9_3 O3_3 1_555 1_555
C10_3 C9_3 1_555 1_555
H6_3 C10_3 1_555 1_555
H8_3 C10_3 1_555 1_555
N7_3 C8_3 1_555 1_555
O8_3 Er3 1_555 1_555
C29_3 O8_3 1_555 1_555
C30_3 C29_3 1_555 1_555
H25_3 C30_3 1_555 1_555
H27_3 C30_3 1_555 1_555
O9_3 Er3 1_555 1_555
N9_2 C33_3 1_555 1_555
C33_3 O9_3 1_555 1_555
C34_3 C33_3 1_555 1_555
H34_3 C34_3 1_555 1_555
H35_2 C34_3 1_555 1_555
H36_3 C34_3 1_555 1_555
C35_2 N9_2 1_555 1_555
H37_3 C35_2 1_555 1_555
H38_2 C35_2 1_555 1_555
H39_2 C35_2 1_555 1_555
C36_2 N9_2 1_555 1_555
H40_2 C36_2 1_555 1_555
H41_2 C36_2 1_555 1_555
H42_2 C36_2 1_555 1_555
O11_2 Er3 1_555 1_555
C6_3 C7_3 1_555 1_555
N7_3 C28_3 1_555 1_555
N4_2 H15_3 1_555 1_555
H17_2 C16_2 1_555 1_555
O11_2 C21_3 1_555 1_555
O7_3 C21_3 1_555 1_555
C21_3 C22_3 1_555 1_555
C22_3 C23_3 1_555 1_555
C26_3 C25_3 1_555 1_555
H23_3 C26_3 1_555 1_555
C27_3 C22_3 1_555 1_555
H24_3 C27_3 1_555 1_555
C26_3 C27_3 1_555 1_555
N2_3 C8_4 1_555 1_555
O10 C13_3 1_555 1_555
O5_3 C13_3 1_555 1_555
C13_3 C14_3 1_555 1_555
C14_3 C15_3 1_555 1_555
C18_3 C17_3 1_555 1_555
H18_3 C18_3 1_555 1_555
C19_3 C14_3 1_555 1_555
H19_3 C19_3 1_555 1_555
C20_4 N2_3 1_555 1_555
C18_3 C19_3 1_555 1_555
H3_3 C4_3 1_555 1_555
C31_3 N8_3 1_555 1_555
H29_3 C31_3 1_555 1_555
H30_3 C31_3 1_555 1_555
C32_3 N8_3 1_555 1_555
H31_3 C32_3 1_555 1_555
H32_3 C32_3 1_555 1_555
H33_3 C32_3 1_555 1_555
O4_2 C13_4 1_555 1_555
O5_4 C13_4 1_555 1_555
C13_4 C14_4 1_555 1_555
C14_4 C15_4 1_555 1_555
C15_4 H16_3 1_555 1_555
C16_3 C15_4 1_555 1_555
H17_3 C16_3 1_555 1_555
C17_4 N4_3 1_555 1_555
C18_4 C17_4 1_555 1_555
H18_4 C18_4 1_555 1_555
C19_4 C14_4 1_555 1_555
H19_4 C19_4 1_555 1_555
Er3_2 O4_2 1_555 1_555
C16_3 C17_4 1_555 1_555
C18_4 C19_4 1_555 1_555
O6_2 C21_4 1_555 1_555
O7_4 C21_4 1_555 1_555
C21_4 C22_4 1_555 1_555
C22_4 C23_4 1_555 1_555
C23_4 H21_3 1_555 1_555
C24_3 C23_4 1_555 1_555
H22_3 C24_3 1_555 1_555
C25_4 N6_3 1_555 1_555
C26_4 C25_4 1_555 1_555
H23_4 C26_4 1_555 1_555
C27_4 C22_4 1_555 1_555
H24_4 C27_4 1_555 1_555
Er3_2 O6_2 1_555 1_555
C24_3 C25_4 1_555 1_555
C26_4 C27_4 1_555 1_555
Er3_2 O1_4 1_555 1_555
O1_4 C1_4 1_555 1_555
O2_4 C1_4 1_555 1_555
O3_4 Er3_2 1_555 1_555
N3_3 C9_4 1_555 1_555
C1_4 C2_4 1_555 1_555
C2_4 C3_4 1_555 1_555
C3_4 H2_4 1_555 1_555
C4_4 C3_4 1_555 1_555
H3_4 C4_4 1_555 1_555
C5_4 N1_4 1_555 1_555
C6_4 C5_4 1_555 1_555
H4_4 C6_4 1_555 1_555
C7_4 C2_4 1_555 1_555
H5_4 C7_4 1_555 1_555
C9_4 O3_4 1_555 1_555
C10_4 C9_4 1_555 1_555
H6_4 C10_4 1_555 1_555
H7_3 C10_4 1_555 1_555
H8_4 C10_4 1_555 1_555
C11_3 N3_3 1_555 1_555
H9_4 C11_3 1_555 1_555
H10_3 C11_3 1_555 1_555
H11_3 C11_3 1_555 1_555
C12_3 N3_3 1_555 1_555
H12_3 C12_3 1_555 1_555
H13_3 C12_3 1_555 1_555
H14_3 C12_3 1_555 1_555
O8_4 Er3_2 1_555 1_555
N8_4 C29_4 1_555 1_555
C29_4 O8_4 1_555 1_555
C30_4 C29_4 1_555 1_555
H25_4 C30_4 1_555 1_555
H26_4 C30_4 1_555 1_555
H27_4 C30_4 1_555 1_555
C31_4 N8_4 1_555 1_555
H28_4 C31_4 1_555 1_555
H29_4 C31_4 1_555 1_555
H30_4 C31_4 1_555 1_555
C32_4 N8_4 1_555 1_555
H31_4 C32_4 1_555 1_555
H32_4 C32_4 1_555 1_555
H33_4 C32_4 1_555 1_555
O9_4 Er3_2 1_555 1_555
N9_3 C33_4 1_555 1_555
C33_4 O9_4 1_555 1_555
C34_4 C33_4 1_555 1_555
H34_4 C34_4 1_555 1_555
H35_3 C34_4 1_555 1_555
H36_4 C34_4 1_555 1_555
C35_3 N9_3 1_555 1_555
H37_4 C35_3 1_555 1_555
H38_3 C35_3 1_555 1_555
H39_3 C35_3 1_555 1_555
C36_3 N9_3 1_555 1_555
H40_3 C36_3 1_555 1_555
H41_3 C36_3 1_555 1_555
H42_3 C36_3 1_555 1_555
C4_4 C5_4 1_555 1_555
C6_4 C7_4 1_555 1_555
C35_4 N9_4 1_555 1_555
H38_4 C35_4 1_555 1_555
H39_4 C35_4 1_555 1_555
C36_4 N9_4 1_555 1_555
H40_4 C36_4 1_555 1_555
H41_4 C36_4 1_555 1_555
H42_4 C36_4 1_555 1_555
H17_4 C16_4 1_555 1_555
C11_4 N3_4 1_555 1_555
H10_4 C11_4 1_555 1_555
H11_4 C11_4 1_555 1_555
C12_4 N3_4 1_555 1_555
H12_4 C12_4 1_555 1_555
H13_4 C12_4 1_555 1_555
H14_4 C12_4 1_555 1_555
H22_4 C24_4 1_555 1_555
Er4 O12 1_555 1_555
O12 C37 1_555 1_555
O13 C37 1_555 1_555
O14 Er4 1_555 1_555
O15 Er4 1_555 1_555
C37 C38 1_555 1_555
C38 C39 1_555 1_555
C39 H44 1_555 1_555
C40 C39 1_555 1_555
H45 C40 1_555 1_555
C41 N10 1_555 1_555
C42 C41 1_555 1_555
H46 C42 1_555 1_555
C43 C38 1_555 1_555
H47 C43 1_555 1_555
C45 O15 1_555 1_555
C46 C45 1_555 1_555
H48 C46 1_555 1_555
H50 C46 1_555 1_555
N15 H62 1_555 1_555
H65 C62 1_555 1_555
H66 C63 1_555 1_555
O20 Er4 1_555 1_555
N17 C65 1_555 1_555
C65 O20 1_555 1_555
C66 C65 1_555 1_555
H67 C66 1_555 1_555
H68 C66 1_555 1_555
H69 C66 1_555 1_555
C67 N17 1_555 1_555
H70 C67 1_555 1_555
H71 C67 1_555 1_555
H72 C67 1_555 1_555
C68 N17 1_555 1_555
H73 C68 1_555 1_555
H74 C68 1_555 1_555
H75 C68 1_555 1_555
O21 Er4 1_555 1_555
N18 C69 1_555 1_555
C69 O21 1_555 1_555
C70 C69 1_555 1_555
H76 C70 1_555 1_555
H77 C70 1_555 1_555
H78 C70 1_555 1_555
C71 N18 1_555 1_555
H79 C71 1_555 1_555
H80 C71 1_555 1_555
H81 C71 1_555 1_555
C72 N18 1_555 1_555
H82 C72 1_555 1_555
H83 C72 1_555 1_555
H84 C72 1_555 1_555
O22 Er4 1_555 1_555
O23 Er4 1_555 1_555
C40 C41 1_555 1_555
C42 C43 1_555 1_555
C62 C63 1_555 1_555
O16 C49 1_555 1_555
O17 C49 1_555 1_555
N13 H57 1_555 1_555
N14 C44 1_555 1_555
C49 C50 1_555 1_555
C50 C51 1_555 1_555
C51 H58 1_555 1_555
C52 C51 1_555 1_555
H59 C52 1_555 1_555
C53 N13 1_555 1_555
C54 C53 1_555 1_555
H60 C54 1_555 1_555
C55 C50 1_555 1_555
H61 C55 1_555 1_555
C56 N13 1_555 1_555
O18 C57 1_555 1_555
O19 C57 1_555 1_555
N16 C56 1_555 1_555
C57 C58 1_555 1_555
C58 C59 1_555 1_555
C59 H63 1_555 1_555
C60 C59 1_555 1_555
H64 C60 1_555 1_555
Er5 O16 1_555 1_555
Er6 O18 1_555 1_555
N14 C56 1_555 1_555
C52 C53 1_555 1_555
C54 C55 1_555 1_555
N16 C64 1_555 1_555
C60 C61 1_555 1_555
N13_2 H57_2 1_555 1_555
H60_2 C54_2 1_555 1_555
H61_2 C55_2 1_555 1_555
O18_2 C57_2 1_555 1_555
O19_2 C57_2 1_555 1_555
C57_2 C58_2 1_555 1_555
C58_2 C59_2 1_555 1_555
C59_2 H63_2 1_555 1_555
C60_2 C59_2 1_555 1_555
H64_2 C60_2 1_555 1_555
C61_2 N15_2 1_555 1_555
C62_2 C61_2 1_555 1_555
H65_2 C62_2 1_555 1_555
C63_2 C58_2 1_555 1_555
H66_2 C63_2 1_555 1_555
Er5 O18_2 1_555 1_555
C54_2 C55_2 1_555 1_555
C60_2 C61_2 1_555 1_555
C62_2 C63_2 1_555 1_555
Er4_2 O12_2 1_555 1_555
O12_2 C37_2 1_555 1_555
O13_2 C37_2 1_555 1_555
O14_2 Er4_2 1_555 1_555
O15_2 Er4_2 1_555 1_555
N10_2 H43_2 1_555 1_555
N11_2 C44_2 1_555 1_555
N12 C45_2 1_555 1_555
C37_2 C38_2 1_555 1_555
C38_2 C39_2 1_555 1_555
C39_2 H44_2 1_555 1_555
C40_2 C39_2 1_555 1_555
H45_2 C40_2 1_555 1_555
C41_2 N10_2 1_555 1_555
C42_2 C41_2 1_555 1_555
H46_2 C42_2 1_555 1_555
C43_2 C38_2 1_555 1_555
H47_2 C43_2 1_555 1_555
C44_2 N10_2 1_555 1_555
C45_2 O15_2 1_555 1_555
C46_2 C45_2 1_555 1_555
H48_2 C46_2 1_555 1_555
H49 C46_2 1_555 1_555
H50_2 C46_2 1_555 1_555
C47 N12 1_555 1_555
H51 C47 1_555 1_555
H52 C47 1_555 1_555
H53 C47 1_555 1_555
C48 N12 1_555 1_555
H54_2 C48 1_555 1_555
H55 C48 1_555 1_555
H56 C48 1_555 1_555
O16_2 C49_2 1_555 1_555
O17_2 C49_2 1_555 1_555
N14_2 C44_2 1_555 1_555
C49_2 C50_2 1_555 1_555
C50_2 C51_2 1_555 1_555
C51_2 H58_2 1_555 1_555
C52_2 C51_2 1_555 1_555
H59_2 C52_2 1_555 1_555
C64_2 N11_2 1_555 1_555
O20_2 Er4_2 1_555 1_555
C65_2 O20_2 1_555 1_555
C66_2 C65_2 1_555 1_555
H67_2 C66_2 1_555 1_555
H69_2 C66_2 1_555 1_555
O21_2 Er4_2 1_555 1_555
N18_2 C69_2 1_555 1_555
C69_2 O21_2 1_555 1_555
C70_2 C69_2 1_555 1_555
H76_2 C70_2 1_555 1_555
H77_2 C70_2 1_555 1_555
H78_2 C70_2 1_555 1_555
C71_2 N18_2 1_555 1_555
H79_2 C71_2 1_555 1_555
H80_2 C71_2 1_555 1_555
H81_2 C71_2 1_555 1_555
C72_2 N18_2 1_555 1_555
H82_2 C72_2 1_555 1_555
H83_2 C72_2 1_555 1_555
H84_2 C72_2 1_555 1_555
Er6 O16_2 1_555 1_555
O22_2 Er4_2 1_555 1_555
O23_2 Er4_2 1_555 1_555
C40_2 C41_2 1_555 1_555
C42_2 C43_2 1_555 1_555
N14_2 C56_2 1_555 1_555
C52_2 C53_2 1_555 1_555
O23_2 C57_3 1_555 1_555
O19_3 C57_3 1_555 1_555
C57_3 C58_3 1_555 1_555
C58_3 C59_3 1_555 1_555
C59_3 H63_3 1_555 1_555
C60_3 C59_3 1_555 1_555
H64_3 C60_3 1_555 1_555
C60_3 C61_3 1_555 1_555
O22 C49_3 1_555 1_555
O17_3 C49_3 1_555 1_555
C49_3 C50_3 1_555 1_555
C50_3 C51_3 1_555 1_555
C51_3 H58_3 1_555 1_555
C52_3 C51_3 1_555 1_555
H59_3 C52_3 1_555 1_555
C52_3 C53_3 1_555 1_555
Er5 O12_3 1_555 1_555
O12_3 C37_3 1_555 1_555
O13_3 C37_3 1_555 1_555
O14_3 Er5 1_555 1_555
O15_3 Er5 1_555 1_555
N12_2 C45_3 1_555 1_555
C37_3 C38_3 1_555 1_555
C38_3 C39_3 1_555 1_555
C39_3 H44_3 1_555 1_555
C40_3 C39_3 1_555 1_555
H45_3 C40_3 1_555 1_555
C45_3 O15_3 1_555 1_555
C46_3 C45_3 1_555 1_555
H48_3 C46_3 1_555 1_555
H49_2 C46_3 1_555 1_555
H50_3 C46_3 1_555 1_555
C47_2 N12_2 1_555 1_555
H51_2 C47_2 1_555 1_555
H52_2 C47_2 1_555 1_555
H53_2 C47_2 1_555 1_555
C48_2 N12_2 1_555 1_555
H54_3 C48_2 1_555 1_555
H55_2 C48_2 1_555 1_555
H56_2 C48_2 1_555 1_555
O20_3 Er5 1_555 1_555
N17_2 C65_3 1_555 1_555
C65_3 O20_3 1_555 1_555
C66_3 C65_3 1_555 1_555
H67_3 C66_3 1_555 1_555
H68_2 C66_3 1_555 1_555
H69_3 C66_3 1_555 1_555
C67_2 N17_2 1_555 1_555
H70_2 C67_2 1_555 1_555
H71_2 C67_2 1_555 1_555
H72_2 C67_2 1_555 1_555
C68_2 N17_2 1_555 1_555
H73_3 C68_2 1_555 1_555
H74_2 C68_2 1_555 1_555
H75_2 C68_2 1_555 1_555
O21_3 Er5 1_555 1_555
C69_3 O21_3 1_555 1_555
C70_3 C69_3 1_555 1_555
H76_3 C70_3 1_555 1_555
H78_3 C70_3 1_555 1_555
C40_3 C41_3 1_555 1_555
C67_3 N17_3 1_555 1_555
H70_3 C67_3 1_555 1_555
H71_3 C67_3 1_555 1_555
H72_3 C67_3 1_555 1_555
C68_3 N17_3 1_555 1_555
H74_3 C68_3 1_555 1_555
H75_3 C68_3 1_555 1_555
N10_3 H43_4 1_555 1_555
H46_3 C42_3 1_555 1_555
H47_3 C43_3 1_555 1_555
O22_2 C49_4 1_555 1_555
O17_4 C49_4 1_555 1_555
C49_4 C50_4 1_555 1_555
C50_4 C51_4 1_555 1_555
C51_4 H58_4 1_555 1_555
C52_4 C51_4 1_555 1_555
H59_4 C52_4 1_555 1_555
C53_4 N13_3 1_555 1_555
C54_3 C53_4 1_555 1_555
H60_3 C54_3 1_555 1_555
C55_3 C50_4 1_555 1_555
H61_3 C55_3 1_555 1_555
C71_3 N18_3 1_555 1_555
H79_3 C71_3 1_555 1_555
H80_3 C71_3 1_555 1_555
H81_3 C71_3 1_555 1_555
C72_3 N18_3 1_555 1_555
H83_3 C72_3 1_555 1_555
H84_3 C72_3 1_555 1_555
C42_3 C43_3 1_555 1_555
C52_4 C53_4 1_555 1_555
C54_3 C55_3 1_555 1_555
C47_3 N12_3 1_555 1_555
H51_3 C47_3 1_555 1_555
H52_3 C47_3 1_555 1_555
H53_3 C47_3 1_555 1_555
C48_3 N12_3 1_555 1_555
H55_3 C48_3 1_555 1_555
H56_3 C48_3 1_555 1_555
Er6 O12_4 1_555 1_555
O12_4 C37_4 1_555 1_555
O13_4 C37_4 1_555 1_555
O14_4 Er6 1_555 1_555
O15_4 Er6 1_555 1_555
N11_4 C44_3 1_555 1_555
C37_4 C38_4 1_555 1_555
C38_4 C39_4 1_555 1_555
C39_4 H44_4 1_555 1_555
C40_4 C39_4 1_555 1_555
H45_4 C40_4 1_555 1_555
C45_4 O15_4 1_555 1_555
C46_4 C45_4 1_555 1_555
H48_4 C46_4 1_555 1_555
H50_4 C46_4 1_555 1_555
O23 C57_4 1_555 1_555
O19_4 C57_4 1_555 1_555
N15_3 H62_4 1_555 1_555
N16_4 C56_3 1_555 1_555
C57_4 C58_4 1_555 1_555
C58_4 C59_4 1_555 1_555
C59_4 H63_4 1_555 1_555
C60_4 C59_4 1_555 1_555
H64_4 C60_4 1_555 1_555
C61_4 N15_3 1_555 1_555
C62_3 C61_4 1_555 1_555
H65_3 C62_3 1_555 1_555
C63_3 C58_4 1_555 1_555
H66_3 C63_3 1_555 1_555
C64_3 N11_4 1_555 1_555
O20_4 Er6 1_555 1_555
C65_4 O20_4 1_555 1_555
C66_4 C65_4 1_555 1_555
H67_4 C66_4 1_555 1_555
H69_4 C66_4 1_555 1_555
O21_4 Er6 1_555 1_555
C69_4 O21_4 1_555 1_555
C70_4 C69_4 1_555 1_555
H76_4 C70_4 1_555 1_555
H78_4 C70_4 1_555 1_555
C40_4 C41_4 1_555 1_555
N15_3 C64_3 1_555 1_555
N16_4 C64_3 1_555 1_555
C60_4 C61_4 1_555 1_555
C62_3 C63_3 1_555 1_555
C47_4 N12_4 1_555 1_555
H51_4 C47_4 1_555 1_555
H52_4 C47_4 1_555 1_555
H53_4 C47_4 1_555 1_555
C48_4 N12_4 1_555 1_555
H55_4 C48_4 1_555 1_555
H56_4 C48_4 1_555 1_555
H60_4 C54_4 1_555 1_555
H61_4 C55_4 1_555 1_555
C54_4 C55_4 1_555 1_555
C67_4 N17_4 1_555 1_555
H70_4 C67_4 1_555 1_555
H71_4 C67_4 1_555 1_555
H72_4 C67_4 1_555 1_555
C68_4 N17_4 1_555 1_555
H74_4 C68_4 1_555 1_555
H75_4 C68_4 1_555 1_555
H65_4 C62_4 1_555 1_555
H66_4 C63_4 1_555 1_555
C62_4 C63_4 1_555 1_555
H46_4 C42_4 1_555 1_555
H47_4 C43_4 1_555 1_555
C71_4 N18_4 1_555 1_555
H79_4 C71_4 1_555 1_555
H80_4 C71_4 1_555 1_555
H81_4 C71_4 1_555 1_555
C72_4 N18_4 1_555 1_555
H83_4 C72_4 1_555 1_555
H84_4 C72_4 1_555 1_555
C42_4 C43_4 1_555 1_555

#END
