
###############################################################################
#
# This file contains modified crystal structure data generated from the
# MOF subset of the Cambridge Structural Database (CSD) v543 
# hosted by the Cambridge Crystallographic Data Centre (CCDC).
#
# This work is licensed under the Creative Commons
# Attribution-NonCommercial-ShareAlike 4.0 International License.
# To view a copy of this license, visit
# http://creativecommons.org/licenses/by-nc-sa/4.0/
# or send a letter to
# Creative Commons, PO Box 1866, Mountain View, CA 94042, USA.
#
# CIF created using the CSD Python API on 29 September 2022
# The structure has been converted into the P1 space group
# The structure has a 3D framework
# The original CSD entry SOZSOR is in the cubic crystal system
# The original CSD entry SOZSOR is in a Sohncke space group
# The framework has been calculated to contain at least 10.0% void space
# The void calculation uses a probe of radius 1.32A, grid spacing 0.4
# Generated hydrogen atom positions removed from atoms on special positions
#
###############################################################################

data_SOZSOR
_chemical_formula_moiety         '(C288 H348 Dy8 N72 O76)n'
_symmetry_cell_setting           triclinic
_symmetry_space_group_name_H-M   'P 1'
_symmetry_Int_Tables_number      1
_space_group_name_Hall           'P 1'
loop_
_symmetry_equiv_pos_site_id
_symmetry_equiv_pos_as_xyz
1 x,y,z
_cell_length_a                   20.4032(10)
_cell_length_b                   20.4032(10)
_cell_length_c                   20.4032(10)
_cell_angle_alpha                90
_cell_angle_beta                 90
_cell_angle_gamma                90
_cell_volume                     8493.66
loop_
_atom_site_label
_atom_site_type_symbol
_atom_site_fract_x
_atom_site_fract_y
_atom_site_fract_z
N9 N 0.0861(4) 0.0472(3) 0.3070(4)
C33 C 0.1247(4) 0.0005(3) 0.2938(4)
C34 C 0.1608(4) 0.0020(4) 0.2289(4)
H35 H 0.1849 0.0433 0.2249
C35 C 0.0499(5) 0.0420(4) 0.3721(4)
H37 H 0.0643 0.0025 0.3953
H38 H 0.0026 0.0395 0.3640
H39 H 0.0595 0.0807 0.3989
C36 C 0.0707(5) 0.1045(4) 0.2672(5)
H40 H 0.0898 0.1436 0.2874
H41 H 0.0230 0.1096 0.2644
H42 H 0.0888 0.0987 0.2231
Dy1 Dy 0.154167(10) 0.845833(10) 0.345833(10)
O1 O 0.1344(2) 0.8110(2) 0.24393(19)
O2 O 0.0594(2) 0.88358(19) 0.2120(2)
O3 O 0.1676(2) 0.8658(2) 0.45474(18)
N3 N 0.1930(4) 0.9139(4) 0.5472(3)
C1 C 0.0872(2) 0.8293(3) 0.2068(2)
C2 C 0.0651(2) 0.7815(2) 0.1562(3)
C3 C 0.0139(3) 0.7966(3) 0.1147(3)
C5 C 0.0218(2) 0.6919(2) 0.0622(3)
C6 C 0.0731(3) 0.6761(3) 0.1045(2)
H4 H 0.0941 0.6347 0.1009
C7 C 0.0935(2) 0.7199(2) 0.1510(3)
H5 H 0.1276 0.7079 0.1803
C9 C 0.2062(4) 0.8753(4) 0.5005(3)
C10 C 0.2711(4) 0.8392(4) 0.5020(4)
H6 H 0.2731 0.8084 0.4652
H7 H 0.2751 0.8151 0.5433
H8 H 0.3071 0.8708 0.4984
C11 C 0.1279(4) 0.9501(5) 0.5420(4)
H9 H 0.1047 0.9357 0.5025
H10 H 0.1360 0.9974 0.5395
H11 H 0.1011 0.9405 0.5807
C12 C 0.2328(5) 0.9293(5) 0.6045(4)
H12 H 0.2126 0.9102 0.6436
H13 H 0.2356 0.9770 0.6096
H14 H 0.2769 0.9112 0.5987
N6 N 0.1523(2) 0.4884(2) 0.0021(2)
H20 H 0.1655 0.5059 0.0393
N7 N 0.0760(2) 0.5688(2) 0.0104(2)
H21 H 0.3378 0.3813 0.0073
C24 C 0.2536(3) 0.4317(3) 0.0065(3)
H22 H 0.2658 0.4606 0.0409
O8 O 0.04526(18) 0.8324(2) 0.3658(2)
H25 H 0.0348 0.7269 0.3084
H27 H 0.0016 0.6929 0.3708
O9 O 0.1342(2) 0.95474(18) 0.3324(2)
H34 H 0.1916 0.9652 0.2269
H36 H 0.1292 0.9984 0.1929
O10 O 0.25607(19) 0.8656(2) 0.3110(2)
O11 O 0.1890(2) 0.74393(19) 0.3656(2)
C8 C 0.0232(3) 0.5965(2) 0.9853(3)
H15 H 0.0059 0.4607 0.8345
N5 N 0.0688(2) 0.4896(2) 0.9240(2)
C20 C 0.0147(3) 0.5232(3) 0.9035(2)
O6 O 0.3110(2) 0.25607(19) 0.8656(2)
O7 O 0.38358(19) 0.2880(2) 0.9406(2)
C21 C 0.3293(3) 0.2932(2) 0.9128(2)
C22 C 0.2815(2) 0.3438(3) 0.9349(2)
C23 C 0.2966(3) 0.3853(3) 0.9861(3)
C25 C 0.1919(2) 0.4378(3) 0.9782(2)
C26 C 0.1761(3) 0.3955(2) 0.9269(3)
H23 H 0.1347 0.3991 0.9059
C27 C 0.2199(2) 0.3490(3) 0.9065(2)
H24 H 0.2079 0.3197 0.8724
C28 C 0.0965(2) 0.5147(3) 0.9768(3)
Dy2 Dy 0.345833(10) 0.154167(10) 0.845833(10)
N3_2 N 0.3070(4) 0.0861(4) 0.0472(3)
C9_2 C 0.2938(4) 0.1247(4) 0.0005(3)
C10_2 C 0.2289(4) 0.1608(4) 0.0020(4)
H7_2 H 0.2249 0.1849 0.0433
C11_2 C 0.3721(4) 0.0499(5) 0.0420(4)
H9_2 H 0.3953 0.0643 0.0025
H10_2 H 0.3640 0.0026 0.0395
H11_2 H 0.3989 0.0595 0.0807
C12_2 C 0.2672(5) 0.0707(5) 0.1045(4)
H12_2 H 0.2874 0.0898 0.1436
H13_2 H 0.2644 0.0230 0.1096
H14_2 H 0.2231 0.0888 0.0987
O1_2 O 0.3656(2) 0.1890(2) 0.74393(19)
O2_2 O 0.4406(2) 0.11642(19) 0.7120(2)
O3_2 O 0.3324(2) 0.1342(2) 0.95474(18)
N1 N 0.5021(2) 0.3477(2) 0.5116(2)
H1 H 0.5393 0.3345 0.4941
N2 N 0.5104(2) 0.4240(2) 0.4312(2)
C1_2 C 0.4128(2) 0.1707(3) 0.7068(2)
C2_2 C 0.4349(2) 0.2185(2) 0.6562(3)
C3_2 C 0.4861(3) 0.2034(3) 0.6147(3)
H2 H 0.5073 0.1622 0.6187
C4 C 0.5065(3) 0.2464(3) 0.5683(3)
H3 H 0.5409 0.2342 0.5394
C5_2 C 0.4782(2) 0.3081(2) 0.5622(3)
C6_2 C 0.4269(3) 0.3239(3) 0.6045(2)
H4_2 H 0.4059 0.3653 0.6009
C7_2 C 0.4065(2) 0.2801(2) 0.6510(3)
H5_2 H 0.3724 0.2921 0.6803
C8_2 C 0.4768(3) 0.4035(2) 0.4853(3)
H6_2 H 0.2269 0.1916 0.9652
H8_2 H 0.1929 0.1292 0.9984
O4 O 0.74393(19) 0.3656(2) 0.1890(2)
O5 O 0.7120(2) 0.4406(2) 0.11642(19)
N4 N 0.5116(2) 0.5021(2) 0.3477(2)
H15_2 H 0.4941 0.5393 0.3345
N5_2 N 0.4312(2) 0.5104(2) 0.4240(2)
C13 C 0.7068(2) 0.4128(2) 0.1707(3)
C14 C 0.6562(3) 0.4349(2) 0.2185(2)
C15 C 0.6147(3) 0.4861(3) 0.2034(3)
H16 H 0.6187 0.5073 0.1622
C16 C 0.5683(3) 0.5065(3) 0.2464(3)
H17 H 0.5394 0.5409 0.2342
C17 C 0.5622(3) 0.4782(2) 0.3081(2)
C18 C 0.6045(2) 0.4269(3) 0.3239(3)
H18 H 0.6009 0.4059 0.3653
C19 C 0.6510(3) 0.4065(2) 0.2801(2)
H19 H 0.6803 0.3724 0.2921
C20_2 C 0.4853(3) 0.4768(3) 0.4035(2)
O7_2 O 0.11642(19) 0.7120(2) 0.4406(2)
N6_2 N 0.3477(2) 0.5116(2) 0.5021(2)
H20_2 H 0.3345 0.4941 0.5393
N7_2 N 0.4240(2) 0.4312(2) 0.5104(2)
C21_2 C 0.1707(3) 0.7068(2) 0.4128(2)
C22_2 C 0.2185(2) 0.6562(3) 0.4349(2)
C23_2 C 0.2034(3) 0.6147(3) 0.4861(3)
H21_2 H 0.1622 0.6187 0.5073
C24_2 C 0.2464(3) 0.5683(3) 0.5065(3)
H22_2 H 0.2342 0.5394 0.5409
C25_2 C 0.3081(2) 0.5622(3) 0.4782(2)
C26_2 C 0.3239(3) 0.6045(2) 0.4269(3)
H23_2 H 0.3653 0.6009 0.4059
C27_2 C 0.2801(2) 0.6510(3) 0.4065(2)
H24_2 H 0.2921 0.6803 0.3724
C28_2 C 0.4035(2) 0.4853(3) 0.4768(3)
O8_2 O 0.45474(18) 0.1676(2) 0.8658(2)
N8 N 0.5472(3) 0.1930(4) 0.9139(4)
C29 C 0.5005(3) 0.2062(4) 0.8753(4)
C30 C 0.5020(4) 0.2711(4) 0.8392(4)
H25_2 H 0.4652 0.2731 0.8084
H26 H 0.5433 0.2751 0.8151
H27_2 H 0.4984 0.3071 0.8708
C31 C 0.5420(4) 0.1279(4) 0.9501(5)
H28 H 0.5025 0.1047 0.9357
H29 H 0.5395 0.1360 0.9974
H30 H 0.5807 0.1011 0.9405
C32 C 0.6045(4) 0.2328(5) 0.9293(5)
H31 H 0.6436 0.2126 0.9102
H32 H 0.6096 0.2356 0.9770
H33 H 0.5987 0.2769 0.9112
O9_2 O 0.3658(2) 0.04526(18) 0.8324(2)
H34_2 H 0.3084 0.0348 0.7269
H36_2 H 0.3708 0.0016 0.6929
Dy3 Dy 0.845833(10) 0.345833(10) 0.154167(10)
O10_2 O 0.24393(19) 0.1344(2) 0.8110(2)
N1_2 N 0.0021(2) 0.1523(2) 0.4884(2)
H1_2 H 0.0393 0.1655 0.5059
N2_2 N 0.0104(2) 0.0760(2) 0.5688(2)
H2_2 H 0.0073 0.3378 0.3813
C4_2 C 0.0065(3) 0.2536(3) 0.4317(3)
H3_2 H 0.0409 0.2658 0.4606
O5_2 O 0.2120(2) 0.0594(2) 0.88358(19)
C13_2 C 0.2068(2) 0.0872(2) 0.8293(3)
C14_2 C 0.1562(3) 0.0651(2) 0.7815(2)
C15_2 C 0.1147(3) 0.0139(3) 0.7966(3)
C17_2 C 0.0622(3) 0.0218(2) 0.6919(2)
C18_2 C 0.1045(2) 0.0731(3) 0.6761(3)
H18_2 H 0.1009 0.0941 0.6347
C19_2 C 0.1510(3) 0.0935(2) 0.7199(2)
H19_2 H 0.1803 0.1276 0.7079
N8_2 N 0.0472(3) 0.3070(4) 0.0861(4)
C29_2 C 0.0005(3) 0.2938(4) 0.1247(4)
C30_2 C 0.0020(4) 0.2289(4) 0.1608(4)
H26_2 H 0.0433 0.2249 0.1849
C31_2 C 0.0420(4) 0.3721(4) 0.0499(5)
H28_2 H 0.0025 0.3953 0.0643
H29_2 H 0.0395 0.3640 0.0026
H30_2 H 0.0807 0.3989 0.0595
C32_2 C 0.1045(4) 0.2672(5) 0.0707(5)
H31_2 H 0.1436 0.2874 0.0898
H32_2 H 0.1096 0.2644 0.0230
H33_2 H 0.0987 0.2231 0.0888
O1_3 O 0.8656(2) 0.3110(2) 0.25607(19)
O2_3 O 0.9406(2) 0.38358(19) 0.2880(2)
O3_3 O 0.8324(2) 0.3658(2) 0.04526(18)
C1_3 C 0.9128(2) 0.3293(3) 0.2932(2)
C2_3 C 0.9349(2) 0.2815(2) 0.3438(3)
C3_3 C 0.9861(3) 0.2966(3) 0.3853(3)
C5_3 C 0.9782(2) 0.1919(2) 0.4378(3)
C6_3 C 0.9269(3) 0.1761(3) 0.3955(2)
H4_3 H 0.9059 0.1347 0.3991
C7_3 C 0.9065(2) 0.2199(2) 0.3490(3)
H5_3 H 0.8724 0.2079 0.3197
C8_3 C 0.9768(3) 0.0965(2) 0.5147(3)
H6_3 H 0.7269 0.3084 0.0348
H8_3 H 0.6929 0.3708 0.0016
C20_3 C 0.9853(3) 0.0232(3) 0.5965(2)
H20_3 H 0.8345 0.0059 0.4607
N7_3 N 0.9240(2) 0.0688(2) 0.4896(2)
C28_3 C 0.9035(2) 0.0147(3) 0.5232(3)
O8_3 O 0.95474(18) 0.3324(2) 0.1342(2)
H25_3 H 0.9652 0.2269 0.1916
H27_3 H 0.9984 0.1929 0.1292
O9_3 O 0.8658(2) 0.45474(18) 0.1676(2)
N9_2 N 0.9139(4) 0.5472(3) 0.1930(4)
C33_2 C 0.8753(4) 0.5005(3) 0.2062(4)
C34_2 C 0.8392(4) 0.5020(4) 0.2711(4)
H34_3 H 0.8084 0.4652 0.2731
H35_2 H 0.8151 0.5433 0.2751
H36_3 H 0.8708 0.4984 0.3071
C35_2 C 0.9501(5) 0.5420(4) 0.1279(4)
H37_2 H 0.9357 0.5025 0.1047
H38_2 H 0.9974 0.5395 0.1360
H39_2 H 0.9405 0.5807 0.1011
C36_2 C 0.9293(5) 0.6045(4) 0.2328(5)
H40_2 H 0.9102 0.6436 0.2126
H41_2 H 0.9770 0.6096 0.2356
H42_2 H 0.9112 0.5987 0.2769
O11_2 O 0.8110(2) 0.24393(19) 0.1344(2)
N4_2 N 0.4884(2) 0.0021(2) 0.1523(2)
H15_3 H 0.5059 0.0393 0.1655
N5_3 N 0.5688(2) 0.0104(2) 0.0760(2)
H16_2 H 0.3813 0.0073 0.3378
C16_2 C 0.4317(3) 0.0065(3) 0.2536(3)
H17_2 H 0.4606 0.0409 0.2658
O7_3 O 0.88358(19) 0.2120(2) 0.0594(2)
C21_3 C 0.8293(3) 0.2068(2) 0.0872(2)
C22_3 C 0.7815(2) 0.1562(3) 0.0651(2)
C23_3 C 0.7966(3) 0.1147(3) 0.0139(3)
C25_3 C 0.6919(2) 0.0622(3) 0.0218(2)
C26_3 C 0.6761(3) 0.1045(2) 0.0731(3)
H23_3 H 0.6347 0.1009 0.0941
C27_3 C 0.7199(2) 0.1510(3) 0.0935(2)
H24_3 H 0.7079 0.1803 0.1276
H1_3 H 0.4607 0.8345 0.0059
N2_3 N 0.4896(2) 0.9240(2) 0.0688(2)
C8_4 C 0.5232(3) 0.9035(2) 0.0147(3)
O5_3 O 0.2880(2) 0.9406(2) 0.38358(19)
C13_3 C 0.2932(2) 0.9128(2) 0.3293(3)
C14_3 C 0.3438(3) 0.9349(2) 0.2815(2)
C15_3 C 0.3853(3) 0.9861(3) 0.2966(3)
C17_3 C 0.4378(3) 0.9782(2) 0.1919(2)
C18_3 C 0.3955(2) 0.9269(3) 0.1761(3)
H18_3 H 0.3991 0.9059 0.1347
C19_3 C 0.3490(3) 0.9065(2) 0.2199(2)
H19_3 H 0.3197 0.8724 0.2079
C20_4 C 0.5147(3) 0.9768(3) 0.0965(2)
C28_4 C 0.5965(2) 0.9853(3) 0.0232(3)
N1_3 N 0.9979(2) 0.6523(2) 0.0116(2)
H2_3 H 0.9927 0.8378 0.1187
C4_3 C 0.9935(3) 0.7536(3) 0.0683(3)
H3_3 H 0.9591 0.7658 0.0394
N8_3 N 0.9528(3) 0.8070(4) 0.4139(4)
C29_3 C 0.9995(3) 0.7938(4) 0.3753(4)
C30_3 C 0.9980(4) 0.7289(4) 0.3392(4)
H26_3 H 0.9567 0.7249 0.3151
C31_3 C 0.9580(4) 0.8721(4) 0.4501(5)
H28_3 H 0.9975 0.8953 0.4357
H29_3 H 0.9605 0.8640 0.4974
H30_3 H 0.9193 0.8989 0.4405
C32_3 C 0.8955(4) 0.7672(5) 0.4293(5)
H31_3 H 0.8564 0.7874 0.4102
H32_3 H 0.8904 0.7644 0.4770
H33_3 H 0.9013 0.7231 0.4112
H1_4 H 0.9607 0.6655 0.9941
N2_4 N 0.9896(2) 0.5760(2) 0.9312(2)
O4_2 O 0.75607(19) 0.6344(2) 0.6890(2)
O5_4 O 0.7880(2) 0.5594(2) 0.61642(19)
N4_3 N 0.9884(2) 0.4979(2) 0.8477(2)
C13_4 C 0.7932(2) 0.5872(2) 0.6707(3)
C14_4 C 0.8438(3) 0.5651(2) 0.7185(2)
C15_4 C 0.8853(3) 0.5139(3) 0.7034(3)
H16_3 H 0.8813 0.4927 0.6622
C16_3 C 0.9317(3) 0.4935(3) 0.7464(3)
H17_3 H 0.9606 0.4591 0.7342
C17_4 C 0.9378(3) 0.5218(2) 0.8081(2)
C18_4 C 0.8955(2) 0.5731(3) 0.8239(3)
H18_4 H 0.8991 0.5941 0.8653
C19_4 C 0.8490(3) 0.5935(2) 0.7801(2)
H19_4 H 0.8197 0.6276 0.7921
Dy3_2 Dy 0.654167(10) 0.654167(10) 0.654167(10)
H15_4 H 0.9941 0.9607 0.6655
N5_4 N 0.9312(2) 0.9896(2) 0.5760(2)
O6_2 O 0.6890(2) 0.75607(19) 0.6344(2)
O7_4 O 0.61642(19) 0.7880(2) 0.5594(2)
N6_3 N 0.8477(2) 0.9884(2) 0.4979(2)
C21_4 C 0.6707(3) 0.7932(2) 0.5872(2)
C22_4 C 0.7185(2) 0.8438(3) 0.5651(2)
C23_4 C 0.7034(3) 0.8853(3) 0.5139(3)
H21_3 H 0.6622 0.8813 0.4927
C24_3 C 0.7464(3) 0.9317(3) 0.4935(3)
H22_3 H 0.7342 0.9606 0.4591
C25_4 C 0.8081(2) 0.9378(3) 0.5218(2)
C26_4 C 0.8239(3) 0.8955(2) 0.5731(3)
H23_4 H 0.8653 0.8991 0.5941
C27_4 C 0.7801(2) 0.8490(3) 0.5935(2)
H24_4 H 0.7921 0.8197 0.6276
O1_4 O 0.6344(2) 0.6890(2) 0.75607(19)
O2_4 O 0.5594(2) 0.61642(19) 0.7880(2)
O3_4 O 0.6676(2) 0.6342(2) 0.54526(18)
N1_4 N 0.4979(2) 0.8477(2) 0.9884(2)
N3_3 N 0.6930(4) 0.5861(4) 0.4528(3)
C1_4 C 0.5872(2) 0.6707(3) 0.7932(2)
C2_4 C 0.5651(2) 0.7185(2) 0.8438(3)
C3_4 C 0.5139(3) 0.7034(3) 0.8853(3)
H2_4 H 0.4927 0.6622 0.8813
C4_4 C 0.4935(3) 0.7464(3) 0.9317(3)
H3_4 H 0.4591 0.7342 0.9606
C5_4 C 0.5218(2) 0.8081(2) 0.9378(3)
C6_4 C 0.5731(3) 0.8239(3) 0.8955(2)
H4_4 H 0.5941 0.8653 0.8991
C7_4 C 0.5935(2) 0.7801(2) 0.8490(3)
H5_4 H 0.6276 0.7921 0.8197
C9_3 C 0.7062(4) 0.6247(4) 0.4995(3)
C10_3 C 0.7711(4) 0.6608(4) 0.4980(4)
H6_4 H 0.7731 0.6916 0.5348
H7_3 H 0.7751 0.6849 0.4567
H8_4 H 0.8071 0.6292 0.5016
C11_3 C 0.6279(4) 0.5499(5) 0.4580(4)
H9_3 H 0.6047 0.5643 0.4975
H10_3 H 0.6360 0.5026 0.4605
H11_3 H 0.6011 0.5595 0.4193
C12_3 C 0.7328(5) 0.5707(5) 0.3955(4)
H12_3 H 0.7126 0.5898 0.3564
H13_3 H 0.7356 0.5230 0.3904
H14_3 H 0.7769 0.5888 0.4013
H20_4 H 0.6655 0.9941 0.9607
N7_4 N 0.5760(2) 0.9312(2) 0.9896(2)
O8_4 O 0.54526(18) 0.6676(2) 0.6342(2)
N8_4 N 0.4528(3) 0.6930(4) 0.5861(4)
C29_4 C 0.4995(3) 0.7062(4) 0.6247(4)
C30_4 C 0.4980(4) 0.7711(4) 0.6608(4)
H25_4 H 0.5348 0.7731 0.6916
H26_4 H 0.4567 0.7751 0.6849
H27_4 H 0.5016 0.8071 0.6292
C31_4 C 0.4580(4) 0.6279(4) 0.5499(5)
H28_4 H 0.4975 0.6047 0.5643
H29_4 H 0.4605 0.6360 0.5026
H30_4 H 0.4193 0.6011 0.5595
C32_4 C 0.3955(4) 0.7328(5) 0.5707(5)
H31_4 H 0.3564 0.7126 0.5898
H32_4 H 0.3904 0.7356 0.5230
H33_4 H 0.4013 0.7769 0.5888
O9_4 O 0.6342(2) 0.54526(18) 0.6676(2)
N9_3 N 0.5861(4) 0.4528(3) 0.6930(4)
C33_3 C 0.6247(4) 0.4995(3) 0.7062(4)
C34_3 C 0.6608(4) 0.4980(4) 0.7711(4)
H34_4 H 0.6916 0.5348 0.7731
H35_3 H 0.6849 0.4567 0.7751
H36_4 H 0.6292 0.5016 0.8071
C35_3 C 0.5499(5) 0.4580(4) 0.6279(4)
H37_3 H 0.5643 0.4975 0.6047
H38_3 H 0.5026 0.4605 0.6360
H39_3 H 0.5595 0.4193 0.6011
C36_3 C 0.5707(5) 0.3955(4) 0.7328(5)
H40_3 H 0.5898 0.3564 0.7126
H41_3 H 0.5230 0.3904 0.7356
H42_3 H 0.5888 0.4013 0.7769
N9_4 N 0.4139(4) 0.9528(3) 0.8070(4)
C33_4 C 0.3753(4) 0.9995(3) 0.7938(4)
C34_4 C 0.3392(4) 0.9980(4) 0.7289(4)
H35_4 H 0.3151 0.9567 0.7249
C35_4 C 0.4501(5) 0.9580(4) 0.8721(4)
H37_4 H 0.4357 0.9975 0.8953
H38_4 H 0.4974 0.9605 0.8640
H39_4 H 0.4405 0.9193 0.8989
C36_4 C 0.4293(5) 0.8955(4) 0.7672(5)
H40_4 H 0.4102 0.8564 0.7874
H41_4 H 0.4770 0.8904 0.7644
H42_4 H 0.4112 0.9013 0.7231
N4_4 N 0.0116(2) 0.9979(2) 0.6523(2)
H16_4 H 0.1187 0.9927 0.8378
C16_4 C 0.0683(3) 0.9935(3) 0.7536(3)
H17_4 H 0.0394 0.9591 0.7658
N3_4 N 0.8070(4) 0.4139(4) 0.9528(3)
C9_4 C 0.7938(4) 0.3753(4) 0.9995(3)
C10_4 C 0.7289(4) 0.3392(4) 0.9980(4)
H7_4 H 0.7249 0.3151 0.9567
C11_4 C 0.8721(4) 0.4501(5) 0.9580(4)
H9_4 H 0.8953 0.4357 0.9975
H10_4 H 0.8640 0.4974 0.9605
H11_4 H 0.8989 0.4405 0.9193
C12_4 C 0.7672(5) 0.4293(5) 0.8955(4)
H12_4 H 0.7874 0.4102 0.8564
H13_4 H 0.7644 0.4770 0.8904
H14_4 H 0.7231 0.4112 0.9013
N6_4 N 0.6523(2) 0.0116(2) 0.9979(2)
H21_4 H 0.8378 0.1187 0.9927
C24_4 C 0.7536(3) 0.0683(3) 0.9935(3)
H22_4 H 0.7658 0.0394 0.9591
Dy4 Dy 0.333331(10) 0.666669(10) 0.166669(10)
O12 O 0.23692(19) 0.61815(19) 0.18025(19)
O13 O 0.21108(19) 0.5343(2) 0.11563(18)
O14 O 0.26395(17) 0.73605(17) 0.23605(17)
O15 O 0.3250(2) 0.6334(2) 0.05734(18)
N10 N 0.0080(2) 0.4904(2) 0.3495(2)
N11 N 0.0113(2) 0.5720(2) 0.4294(2)
C37 C 0.2036(2) 0.5676(3) 0.1663(3)
C38 C 0.1539(2) 0.5476(2) 0.2163(2)
C39 C 0.1483(3) 0.5803(3) 0.2746(2)
H45 H 0.1772 0.6155 0.2840
C40 C 0.1006(3) 0.5625(3) 0.3207(3)
H46 H 0.0971 0.5860 0.3608
C41 C 0.0582(2) 0.5106(3) 0.3079(2)
C42 C 0.0635(3) 0.4781(3) 0.2480(3)
H47 H 0.0340 0.4435 0.2379
C43 C 0.1109(3) 0.4956(3) 0.2036(3)
H48 H 0.1146 0.4720 0.1637
C45 C 0.2890(3) 0.6279(3) 0.0101(3)
C46 C 0.2247(3) 0.6608(4) 0.0059(4)
H49 H 0.1899 0.6277 0.0037
H51 H 0.2182 0.6883 0.0448
H55 H 0.3937 0.5708 0.0038
N15 N 0.0096(2) 0.6505(2) 0.5080(2)
H64 H 0.0468 0.6617 0.4893
C62 C 0.0219(3) 0.7520(3) 0.5635(3)
H67 H 0.0565 0.7621 0.5340
C63 C 0.0044(3) 0.7964(3) 0.6109(3)
H68 H 0.0280 0.8363 0.6146
O20 O 0.44266(18) 0.6750(2) 0.1334(2)
N17 N 0.5408(3) 0.6928(3) 0.0912(4)
C65 C 0.4899(3) 0.7110(3) 0.1279(3)
C66 C 0.4941(4) 0.7753(3) 0.1608(4)
H69 H 0.4963 0.8101 0.1277
H70 H 0.5335 0.7767 0.1882
H71 H 0.4552 0.7818 0.1883
C67 C 0.5982(4) 0.7313(5) 0.0774(5)
H72 H 0.6024 0.7374 0.0300
H73 H 0.6371 0.7086 0.0941
H74 H 0.5943 0.7741 0.0988
C68 C 0.5383(5) 0.6270(4) 0.0607(5)
H75 H 0.4962 0.6063 0.0708
H76 H 0.5740 0.6000 0.0781
H77 H 0.5431 0.6313 0.0131
O21 O 0.3666(2) 0.55734(18) 0.1750(2)
N18 N 0.4088(4) 0.4592(3) 0.1928(3)
C69 C 0.3721(3) 0.5101(3) 0.2110(3)
C70 C 0.3392(4) 0.5059(4) 0.2753(3)
H78 H 0.3723 0.5037 0.3101
H79 H 0.3118 0.4665 0.2767
H80 H 0.3117 0.5448 0.2818
C71 C 0.4226(5) 0.4018(4) 0.2313(5)
H81 H 0.4700 0.3976 0.2374
H82 H 0.4059 0.3629 0.2086
H83 H 0.4012 0.4057 0.2741
C72 C 0.4393(5) 0.4617(5) 0.1270(4)
H84 H 0.4292 0.5038 0.1063
H85 H 0.4219 0.4260 0.1000
H86 H 0.4869 0.4569 0.1313
O22 O 0.31975(19) 0.76308(19) 0.11815(19)
O23 O 0.38185(19) 0.68025(19) 0.26308(19)
H44 H 0.9893 0.4532 0.3383
C44 C 0.9834(3) 0.5186(2) 0.4040(2)
O16 O 0.68025(19) 0.26308(19) 0.38185(19)
O17 O 0.61563(18) 0.28892(19) 0.4657(2)
N13 N 0.8495(2) 0.4920(2) 0.5096(2)
H59 H 0.8383 0.5107 0.5468
N14 N 0.9294(2) 0.4887(2) 0.4280(2)
C49 C 0.6663(3) 0.2964(2) 0.4324(3)
C50 C 0.7163(2) 0.3461(2) 0.4524(2)
C51 C 0.7746(2) 0.3517(3) 0.4197(3)
H60 H 0.7840 0.3228 0.3845
C52 C 0.8207(3) 0.3994(3) 0.4375(3)
H61 H 0.8608 0.4029 0.4140
C53 C 0.8079(2) 0.4418(2) 0.4894(3)
C54 C 0.7480(3) 0.4365(3) 0.5219(3)
H62 H 0.7379 0.4660 0.5565
C55 C 0.7036(3) 0.3891(3) 0.5044(3)
H63 H 0.6637 0.3854 0.5280
C56 C 0.9040(2) 0.5166(3) 0.4814(2)
O18 O 0.88185(19) 0.81975(19) 0.73692(19)
O19 O 0.9657(2) 0.88437(18) 0.71108(19)
N16 N 0.9280(2) 0.5706(2) 0.5113(2)
C57 C 0.9324(3) 0.8337(3) 0.7036(2)
C58 C 0.9524(2) 0.7837(2) 0.6539(2)
C59 C 0.9197(3) 0.7254(2) 0.6483(3)
H65 H 0.8845 0.7160 0.6772
C60 C 0.9375(3) 0.6793(3) 0.6006(3)
H66 H 0.9140 0.6392 0.5971
C61 C 0.9894(3) 0.6921(2) 0.5582(2)
C64 C 0.9814(2) 0.5960(2) 0.4834(3)
Dy5 Dy 0.666669(10) 0.166669(10) 0.333331(10)
Dy6 Dy 0.833331(10) 0.833331(10) 0.833331(10)
N13_2 N 0.6505(2) 0.5080(2) 0.0096(2)
H59_2 H 0.6617 0.4893 0.0468
C54_2 C 0.7520(3) 0.5635(3) 0.0219(3)
H62_2 H 0.7621 0.5340 0.0565
C55_2 C 0.7964(3) 0.6109(3) 0.0044(3)
H63_2 H 0.8363 0.6146 0.0280
O18_2 O 0.61815(19) 0.18025(19) 0.23692(19)
O19_2 O 0.5343(2) 0.11563(18) 0.21108(19)
N15_2 N 0.4904(2) 0.3495(2) 0.0080(2)
N16_2 N 0.5720(2) 0.4294(2) 0.0113(2)
C57_2 C 0.5676(3) 0.1663(3) 0.2036(2)
C58_2 C 0.5476(2) 0.2163(2) 0.1539(2)
C59_2 C 0.5803(3) 0.2746(2) 0.1483(3)
H65_2 H 0.6155 0.2840 0.1772
C60_2 C 0.5625(3) 0.3207(3) 0.1006(3)
H66_2 H 0.5860 0.3608 0.0971
C61_2 C 0.5106(3) 0.3079(2) 0.0582(2)
C62_2 C 0.4781(3) 0.2480(3) 0.0635(3)
H67_2 H 0.4435 0.2379 0.0340
C63_2 C 0.4956(3) 0.2036(3) 0.1109(3)
H68_2 H 0.4720 0.1637 0.1146
Dy4_2 Dy 0.166669(10) 0.333331(10) 0.666669(10)
O12_2 O 0.26308(19) 0.38185(19) 0.68025(19)
O13_2 O 0.28892(19) 0.4657(2) 0.61563(18)
O14_2 O 0.23605(17) 0.26395(17) 0.73605(17)
O15_2 O 0.1750(2) 0.3666(2) 0.55734(18)
N10_2 N 0.4920(2) 0.5096(2) 0.8495(2)
H44_2 H 0.5107 0.5468 0.8383
N11_2 N 0.4887(2) 0.4280(2) 0.9294(2)
N12 N 0.1928(3) 0.4088(4) 0.4592(3)
C37_2 C 0.2964(2) 0.4324(3) 0.6663(3)
C38_2 C 0.3461(2) 0.4524(2) 0.7163(2)
C39_2 C 0.3517(3) 0.4197(3) 0.7746(2)
H45_2 H 0.3228 0.3845 0.7840
C40_2 C 0.3994(3) 0.4375(3) 0.8207(3)
H46_2 H 0.4029 0.4140 0.8608
C41_2 C 0.4418(2) 0.4894(3) 0.8079(2)
C42_2 C 0.4365(3) 0.5219(3) 0.7480(3)
H47_2 H 0.4660 0.5565 0.7379
C43_2 C 0.3891(3) 0.5044(3) 0.7036(3)
H48_2 H 0.3854 0.5280 0.6637
C44_2 C 0.5166(3) 0.4814(2) 0.9040(2)
C45_2 C 0.2110(3) 0.3721(3) 0.5101(3)
C46_2 C 0.2753(3) 0.3392(4) 0.5059(4)
H49_2 H 0.3101 0.3723 0.5037
H50 H 0.2767 0.3118 0.4665
H51_2 H 0.2818 0.3117 0.5448
C47 C 0.2313(5) 0.4226(5) 0.4018(4)
H52 H 0.2374 0.4700 0.3976
H53 H 0.2086 0.4059 0.3629
H54 H 0.2741 0.4012 0.4057
C48 C 0.1270(4) 0.4393(5) 0.4617(5)
H55_2 H 0.1063 0.4292 0.5038
H56 H 0.1000 0.4219 0.4260
H57 H 0.1313 0.4869 0.4569
O16_2 O 0.81975(19) 0.73692(19) 0.88185(19)
O17_2 O 0.88437(18) 0.71108(19) 0.9657(2)
N14_2 N 0.5706(2) 0.5113(2) 0.9280(2)
C49_2 C 0.8337(3) 0.7036(2) 0.9324(3)
C50_2 C 0.7837(2) 0.6539(2) 0.9524(2)
C51_2 C 0.7254(2) 0.6483(3) 0.9197(3)
H60_2 H 0.7160 0.6772 0.8845
C52_2 C 0.6793(3) 0.6006(3) 0.9375(3)
H61_2 H 0.6392 0.5971 0.9140
C53_2 C 0.6921(2) 0.5582(2) 0.9894(3)
C56_2 C 0.5960(2) 0.4834(3) 0.9814(2)
H64_2 H 0.4532 0.3383 0.9893
C64_2 C 0.5186(2) 0.4040(2) 0.9834(3)
O20_2 O 0.05734(18) 0.3250(2) 0.6334(2)
C65_2 C 0.0101(3) 0.2890(3) 0.6279(3)
C66_2 C 0.0059(4) 0.2247(3) 0.6608(4)
H69_2 H 0.0037 0.1899 0.6277
H71_2 H 0.0448 0.2182 0.6883
H75_2 H 0.0038 0.3937 0.5708
O21_2 O 0.1334(2) 0.44266(18) 0.6750(2)
N18_2 N 0.0912(4) 0.5408(3) 0.6928(3)
C69_2 C 0.1279(3) 0.4899(3) 0.7110(3)
C70_2 C 0.1608(4) 0.4941(4) 0.7753(3)
H78_2 H 0.1277 0.4963 0.8101
H79_2 H 0.1882 0.5335 0.7767
H80_2 H 0.1883 0.4552 0.7818
C71_2 C 0.0774(5) 0.5982(4) 0.7313(5)
H81_2 H 0.0300 0.6024 0.7374
H82_2 H 0.0941 0.6371 0.7086
H83_2 H 0.0988 0.5943 0.7741
C72_2 C 0.0607(5) 0.5383(5) 0.6270(4)
H84_2 H 0.0708 0.4962 0.6063
H85_2 H 0.0781 0.5740 0.6000
H86_2 H 0.0131 0.5431 0.6313
O22_2 O 0.18025(19) 0.23692(19) 0.61815(19)
O23_2 O 0.11815(19) 0.31975(19) 0.76308(19)
H59_3 H 0.1617 0.0107 0.9532
O19_3 O 0.0343(2) 0.38437(18) 0.78892(19)
N16_3 N 0.0720(2) 0.0706(2) 0.9887(2)
C57_3 C 0.0676(3) 0.3337(3) 0.7964(2)
C58_3 C 0.0476(2) 0.2837(2) 0.8461(2)
C59_3 C 0.0803(3) 0.2254(2) 0.8517(3)
H65_3 H 0.1155 0.2160 0.8228
C60_3 C 0.0625(3) 0.1793(3) 0.8994(3)
H66_3 H 0.0860 0.1392 0.9029
C61_3 C 0.0106(3) 0.1921(2) 0.9418(2)
H44_3 H 0.0107 0.9532 0.1617
O17_3 O 0.38437(18) 0.78892(19) 0.0343(2)
N14_3 N 0.0706(2) 0.9887(2) 0.0720(2)
C49_3 C 0.3337(3) 0.7964(2) 0.0676(3)
C50_3 C 0.2837(2) 0.8461(2) 0.0476(2)
C51_3 C 0.2254(2) 0.8517(3) 0.0803(3)
H60_3 H 0.2160 0.8228 0.1155
C52_3 C 0.1793(3) 0.8994(3) 0.0625(3)
H61_3 H 0.1392 0.9029 0.0860
C53_3 C 0.1921(2) 0.9418(2) 0.0106(3)
O12_3 O 0.76308(19) 0.11815(19) 0.31975(19)
O13_3 O 0.78892(19) 0.0343(2) 0.38437(18)
O14_3 O 0.73605(17) 0.23605(17) 0.26395(17)
O15_3 O 0.6750(2) 0.1334(2) 0.44266(18)
N11_3 N 0.9887(2) 0.0720(2) 0.0706(2)
N12_2 N 0.6928(3) 0.0912(4) 0.5408(3)
C37_3 C 0.7964(2) 0.0676(3) 0.3337(3)
C38_3 C 0.8461(2) 0.0476(2) 0.2837(2)
C39_3 C 0.8517(3) 0.0803(3) 0.2254(2)
H45_3 H 0.8228 0.1155 0.2160
C40_3 C 0.8994(3) 0.0625(3) 0.1793(3)
H46_3 H 0.9029 0.0860 0.1392
C41_3 C 0.9418(2) 0.0106(3) 0.1921(2)
C45_3 C 0.7110(3) 0.1279(3) 0.4899(3)
C46_3 C 0.7753(3) 0.1608(4) 0.4941(4)
H49_3 H 0.8101 0.1277 0.4963
H50_2 H 0.7767 0.1882 0.5335
H51_3 H 0.7818 0.1883 0.4552
C47_2 C 0.7313(5) 0.0774(5) 0.5982(4)
H52_2 H 0.7374 0.0300 0.6024
H53_2 H 0.7086 0.0941 0.6371
H54_2 H 0.7741 0.0988 0.5943
C48_2 C 0.6270(4) 0.0607(5) 0.5383(5)
H55_3 H 0.6063 0.0708 0.4962
H56_2 H 0.6000 0.0781 0.5740
H57_2 H 0.6313 0.0131 0.5431
H64_3 H 0.9532 0.1617 0.0107
O20_3 O 0.55734(18) 0.1750(2) 0.3666(2)
N17_2 N 0.4592(3) 0.1928(3) 0.4088(4)
C65_3 C 0.5101(3) 0.2110(3) 0.3721(3)
C66_3 C 0.5059(4) 0.2753(3) 0.3392(4)
H69_3 H 0.5037 0.3101 0.3723
H70_2 H 0.4665 0.2767 0.3118
H71_3 H 0.5448 0.2818 0.3117
C67_2 C 0.4018(4) 0.2313(5) 0.4226(5)
H72_2 H 0.3976 0.2374 0.4700
H73_2 H 0.3629 0.2086 0.4059
H74_2 H 0.4057 0.2741 0.4012
C68_2 C 0.4617(5) 0.1270(4) 0.4393(5)
H75_3 H 0.5038 0.1063 0.4292
H76_2 H 0.4260 0.1000 0.4219
H77_2 H 0.4569 0.1313 0.4869
O21_3 O 0.6334(2) 0.05734(18) 0.3250(2)
C69_3 C 0.6279(3) 0.0101(3) 0.2890(3)
C70_3 C 0.6608(4) 0.0059(4) 0.2247(3)
H78_3 H 0.6277 0.0037 0.1899
H80_3 H 0.6883 0.0448 0.2182
H84_3 H 0.5708 0.0038 0.3937
N17_3 N 0.0408(3) 0.8072(3) 0.9088(4)
H70_3 H 0.0335 0.7233 0.8118
C67_3 C 0.0982(4) 0.7687(5) 0.9226(5)
H72_3 H 0.1024 0.7626 0.9700
H73_3 H 0.1371 0.7914 0.9059
H74_3 H 0.0943 0.7259 0.9012
C68_3 C 0.0383(5) 0.8730(4) 0.9393(5)
H76_3 H 0.0740 0.9000 0.9219
H77_3 H 0.0431 0.8687 0.9869
N10_3 N 0.5080(2) 0.0096(2) 0.6505(2)
H44_4 H 0.4893 0.0468 0.6617
C42_3 C 0.5635(3) 0.0219(3) 0.7520(3)
H47_3 H 0.5340 0.0565 0.7621
C43_3 C 0.6109(3) 0.0044(3) 0.7964(3)
H48_3 H 0.6146 0.0280 0.8363
O17_4 O 0.11563(18) 0.21108(19) 0.5343(2)
N13_3 N 0.3495(2) 0.0080(2) 0.4904(2)
N14_4 N 0.4294(2) 0.0113(2) 0.5720(2)
C49_4 C 0.1663(3) 0.2036(2) 0.5676(3)
C50_4 C 0.2163(2) 0.1539(2) 0.5476(2)
C51_4 C 0.2746(2) 0.1483(3) 0.5803(3)
H60_4 H 0.2840 0.1772 0.6155
C52_4 C 0.3207(3) 0.1006(3) 0.5625(3)
H61_4 H 0.3608 0.0971 0.5860
C53_4 C 0.3079(2) 0.0582(2) 0.5106(3)
C54_3 C 0.2480(3) 0.0635(3) 0.4781(3)
H62_3 H 0.2379 0.0340 0.4435
C55_3 C 0.2036(3) 0.1109(3) 0.4956(3)
H63_3 H 0.1637 0.1146 0.4720
N18_3 N 0.9088(4) 0.0408(3) 0.8072(3)
H79_3 H 0.8118 0.0335 0.7233
C71_3 C 0.9226(5) 0.0982(4) 0.7687(5)
H81_3 H 0.9700 0.1024 0.7626
H82_3 H 0.9059 0.1371 0.7914
H83_3 H 0.9012 0.0943 0.7259
C72_3 C 0.9393(5) 0.0383(5) 0.8730(4)
H85_3 H 0.9219 0.0740 0.9000
H86_3 H 0.9869 0.0431 0.8687
N12_3 N 0.8072(3) 0.9088(4) 0.0408(3)
H50_3 H 0.7233 0.8118 0.0335
C47_3 C 0.7687(5) 0.9226(5) 0.0982(4)
H52_3 H 0.7626 0.9700 0.1024
H53_3 H 0.7914 0.9059 0.1371
H54_3 H 0.7259 0.9012 0.0943
C48_3 C 0.8730(4) 0.9393(5) 0.0383(5)
H56_3 H 0.9000 0.9219 0.0740
H57_3 H 0.8687 0.9869 0.0431
O12_4 O 0.73692(19) 0.88185(19) 0.81975(19)
O13_4 O 0.71108(19) 0.9657(2) 0.88437(18)
O14_4 O 0.76395(17) 0.76395(17) 0.76395(17)
O15_4 O 0.8250(2) 0.8666(2) 0.94266(18)
N11_4 N 0.5113(2) 0.9280(2) 0.5706(2)
C37_4 C 0.7036(2) 0.9324(3) 0.8337(3)
C38_4 C 0.6539(2) 0.9524(2) 0.7837(2)
C39_4 C 0.6483(3) 0.9197(3) 0.7254(2)
H45_4 H 0.6772 0.8845 0.7160
C40_4 C 0.6006(3) 0.9375(3) 0.6793(3)
H46_4 H 0.5971 0.9140 0.6392
C41_4 C 0.5582(2) 0.9894(3) 0.6921(2)
C44_3 C 0.4834(3) 0.9814(2) 0.5960(2)
C45_4 C 0.7890(3) 0.8721(3) 0.9899(3)
C46_4 C 0.7247(3) 0.8392(4) 0.9941(4)
H49_4 H 0.6899 0.8723 0.9963
H51_4 H 0.7182 0.8117 0.9552
H55_4 H 0.8937 0.9292 0.9962
H59_4 H 0.3383 0.9893 0.4532
C56_3 C 0.4040(2) 0.9834(3) 0.5186(2)
O19_4 O 0.4657(2) 0.61563(18) 0.28892(19)
N15_3 N 0.5096(2) 0.8495(2) 0.4920(2)
H64_4 H 0.5468 0.8383 0.5107
N16_4 N 0.4280(2) 0.9294(2) 0.4887(2)
C57_4 C 0.4324(3) 0.6663(3) 0.2964(2)
C58_4 C 0.4524(2) 0.7163(2) 0.3461(2)
C59_4 C 0.4197(3) 0.7746(2) 0.3517(3)
H65_4 H 0.3845 0.7840 0.3228
C60_4 C 0.4375(3) 0.8207(3) 0.3994(3)
H66_4 H 0.4140 0.8608 0.4029
C61_4 C 0.4894(3) 0.8079(2) 0.4418(2)
C62_3 C 0.5219(3) 0.7480(3) 0.4365(3)
H67_3 H 0.5565 0.7379 0.4660
C63_3 C 0.5044(3) 0.7036(3) 0.3891(3)
H68_3 H 0.5280 0.6637 0.3854
C64_3 C 0.4814(2) 0.9040(2) 0.5166(3)
O20_4 O 0.94266(18) 0.8250(2) 0.8666(2)
C65_4 C 0.9899(3) 0.7890(3) 0.8721(3)
C66_4 C 0.9941(4) 0.7247(3) 0.8392(4)
H69_4 H 0.9963 0.6899 0.8723
H71_4 H 0.9552 0.7182 0.8117
H75_4 H 0.9962 0.8937 0.9292
O21_4 O 0.8666(2) 0.94266(18) 0.8250(2)
C69_4 C 0.8721(3) 0.9899(3) 0.7890(3)
C70_4 C 0.8392(4) 0.9941(4) 0.7247(3)
H78_4 H 0.8723 0.9963 0.6899
H80_4 H 0.8117 0.9552 0.7182
H84_4 H 0.9292 0.9962 0.8937
N12_4 N 0.3072(3) 0.5912(4) 0.9592(3)
H50_4 H 0.2233 0.6882 0.9665
C47_4 C 0.2687(5) 0.5774(5) 0.9018(4)
H52_4 H 0.2626 0.5300 0.8976
H53_4 H 0.2914 0.5941 0.8629
H54_4 H 0.2259 0.5988 0.9057
C48_4 C 0.3730(4) 0.5607(5) 0.9617(5)
H56_4 H 0.4000 0.5781 0.9260
H57_4 H 0.3687 0.5131 0.9569
N13_4 N 0.1505(2) 0.9920(2) 0.9904(2)
C54_4 C 0.2520(3) 0.9365(3) 0.9781(3)
H62_4 H 0.2621 0.9660 0.9435
C55_4 C 0.2964(3) 0.8891(3) 0.9956(3)
H63_4 H 0.3363 0.8854 0.9720
N17_4 N 0.9592(3) 0.3072(3) 0.5912(4)
H70_4 H 0.9665 0.2233 0.6882
C67_4 C 0.9018(4) 0.2687(5) 0.5774(5)
H72_4 H 0.8976 0.2626 0.5300
H73_4 H 0.8629 0.2914 0.5941
H74_4 H 0.9057 0.2259 0.5988
C68_4 C 0.9617(5) 0.3730(4) 0.5607(5)
H76_4 H 0.9260 0.4000 0.5781
H77_4 H 0.9569 0.3687 0.5131
N15_4 N 0.9904(2) 0.1505(2) 0.9920(2)
C62_4 C 0.9781(3) 0.2520(3) 0.9365(3)
H67_4 H 0.9435 0.2621 0.9660
C63_4 C 0.9956(3) 0.2964(3) 0.8891(3)
H68_4 H 0.9720 0.3363 0.8854
C44_4 C 0.0166(3) 0.0186(2) 0.0960(2)
C56_4 C 0.0960(2) 0.0166(3) 0.0186(2)
C64_4 C 0.0186(2) 0.0960(2) 0.0166(3)
N10_4 N 0.9920(2) 0.9904(2) 0.1505(2)
C42_4 C 0.9365(3) 0.9781(3) 0.2520(3)
H47_4 H 0.9660 0.9435 0.2621
C43_4 C 0.8891(3) 0.9956(3) 0.2964(3)
H48_4 H 0.8854 0.9720 0.3363
N18_4 N 0.5912(4) 0.9592(3) 0.3072(3)
H79_4 H 0.6882 0.9665 0.2233
C71_4 C 0.5774(5) 0.9018(4) 0.2687(5)
H81_4 H 0.5300 0.8976 0.2626
H82_4 H 0.5941 0.8629 0.2914
H83_4 H 0.5988 0.9057 0.2259
C72_4 C 0.5607(5) 0.9617(5) 0.3730(4)
H85_4 H 0.5781 0.9260 0.4000
H86_4 H 0.5131 0.9569 0.3687
loop_
_geom_bond_atom_site_label_1
_geom_bond_atom_site_label_2
_geom_bond_site_symmetry_1
_geom_bond_site_symmetry_2
N9 C33 1_555 1_555
C34 C33 1_555 1_555
H35 C34 1_555 1_555
C35 N9 1_555 1_555
H37 C35 1_555 1_555
H38 C35 1_555 1_555
H39 C35 1_555 1_555
C36 N9 1_555 1_555
H40 C36 1_555 1_555
H41 C36 1_555 1_555
H42 C36 1_555 1_555
Dy1 O1 1_555 1_555
O1 C1 1_555 1_555
O2 C1 1_555 1_555
O3 Dy1 1_555 1_555
N3 C9 1_555 1_555
C1 C2 1_555 1_555
C2 C3 1_555 1_555
C6 C5 1_555 1_555
H4 C6 1_555 1_555
C7 C2 1_555 1_555
H5 C7 1_555 1_555
C9 O3 1_555 1_555
C10 C9 1_555 1_555
H6 C10 1_555 1_555
H7 C10 1_555 1_555
H8 C10 1_555 1_555
C11 N3 1_555 1_555
H9 C11 1_555 1_555
H10 C11 1_555 1_555
H11 C11 1_555 1_555
C12 N3 1_555 1_555
H12 C12 1_555 1_555
H13 C12 1_555 1_555
H14 C12 1_555 1_555
N6 H20 1_555 1_555
H22 C24 1_555 1_555
O8 Dy1 1_555 1_555
O9 Dy1 1_555 1_555
O10 Dy1 1_555 1_555
O11 Dy1 1_555 1_555
C6 C7 1_555 1_555
N5 C20 1_555 1_555
O6 C21 1_555 1_555
O7 C21 1_555 1_555
C21 C22 1_555 1_555
C22 C23 1_555 1_555
C26 C25 1_555 1_555
H23 C26 1_555 1_555
C27 C22 1_555 1_555
H24 C27 1_555 1_555
C28 N5 1_555 1_555
Dy2 O6 1_555 1_555
C26 C27 1_555 1_555
N3_2 C9_2 1_555 1_555
C10_2 C9_2 1_555 1_555
H7_2 C10_2 1_555 1_555
C11_2 N3_2 1_555 1_555
H9_2 C11_2 1_555 1_555
H10_2 C11_2 1_555 1_555
H11_2 C11_2 1_555 1_555
C12_2 N3_2 1_555 1_555
H12_2 C12_2 1_555 1_555
H13_2 C12_2 1_555 1_555
H14_2 C12_2 1_555 1_555
Dy2 O1_2 1_555 1_555
O1_2 C1_2 1_555 1_555
O2_2 C1_2 1_555 1_555
O3_2 Dy2 1_555 1_555
N1 H1 1_555 1_555
N2 C8_2 1_555 1_555
C1_2 C2_2 1_555 1_555
C2_2 C3_2 1_555 1_555
C3_2 H2 1_555 1_555
C4 C3_2 1_555 1_555
H3 C4 1_555 1_555
C5_2 N1 1_555 1_555
C6_2 C5_2 1_555 1_555
H4_2 C6_2 1_555 1_555
C7_2 C2_2 1_555 1_555
H5_2 C7_2 1_555 1_555
C8_2 N1 1_555 1_555
O4 C13 1_555 1_555
O5 C13 1_555 1_555
N4 H15_2 1_555 1_555
N5_2 C20_2 1_555 1_555
C13 C14 1_555 1_555
C14 C15 1_555 1_555
C15 H16 1_555 1_555
C16 C15 1_555 1_555
H17 C16 1_555 1_555
C17 N4 1_555 1_555
C18 C17 1_555 1_555
H18 C18 1_555 1_555
C19 C14 1_555 1_555
H19 C19 1_555 1_555
C20_2 N2 1_555 1_555
O11 C21_2 1_555 1_555
O7_2 C21_2 1_555 1_555
N6_2 H20_2 1_555 1_555
N7_2 C8_2 1_555 1_555
C21_2 C22_2 1_555 1_555
C22_2 C23_2 1_555 1_555
C23_2 H21_2 1_555 1_555
C24_2 C23_2 1_555 1_555
H22_2 C24_2 1_555 1_555
C25_2 N6_2 1_555 1_555
C26_2 C25_2 1_555 1_555
H23_2 C26_2 1_555 1_555
C27_2 C22_2 1_555 1_555
H24_2 C27_2 1_555 1_555
C28_2 N5_2 1_555 1_555
O8_2 Dy2 1_555 1_555
N8 C29 1_555 1_555
C29 O8_2 1_555 1_555
C30 C29 1_555 1_555
H25_2 C30 1_555 1_555
H26 C30 1_555 1_555
H27_2 C30 1_555 1_555
C31 N8 1_555 1_555
H28 C31 1_555 1_555
H29 C31 1_555 1_555
H30 C31 1_555 1_555
C32 N8 1_555 1_555
H31 C32 1_555 1_555
H32 C32 1_555 1_555
H33 C32 1_555 1_555
O9_2 Dy2 1_555 1_555
Dy3 O4 1_555 1_555
O10_2 Dy2 1_555 1_555
C4 C5_2 1_555 1_555
C6_2 C7_2 1_555 1_555
N4 C20_2 1_555 1_555
C16 C17 1_555 1_555
C18 C19 1_555 1_555
N6_2 C28_2 1_555 1_555
N7_2 C28_2 1_555 1_555
C24_2 C25_2 1_555 1_555
C26_2 C27_2 1_555 1_555
N1_2 H1_2 1_555 1_555
H3_2 C4_2 1_555 1_555
O10_2 C13_2 1_555 1_555
O5_2 C13_2 1_555 1_555
C13_2 C14_2 1_555 1_555
C14_2 C15_2 1_555 1_555
C18_2 C17_2 1_555 1_555
H18_2 C18_2 1_555 1_555
C19_2 C14_2 1_555 1_555
H19_2 C19_2 1_555 1_555
N8_2 C29_2 1_555 1_555
C30_2 C29_2 1_555 1_555
H26_2 C30_2 1_555 1_555
C31_2 N8_2 1_555 1_555
H28_2 C31_2 1_555 1_555
H29_2 C31_2 1_555 1_555
H30_2 C31_2 1_555 1_555
C32_2 N8_2 1_555 1_555
H31_2 C32_2 1_555 1_555
H32_2 C32_2 1_555 1_555
H33_2 C32_2 1_555 1_555
C18_2 C19_2 1_555 1_555
Dy3 O1_3 1_555 1_555
O1_3 C1_3 1_555 1_555
O2_3 C1_3 1_555 1_555
O3_3 Dy3 1_555 1_555
C1_3 C2_3 1_555 1_555
C2_3 C3_3 1_555 1_555
C6_3 C5_3 1_555 1_555
H4_3 C6_3 1_555 1_555
C7_3 C2_3 1_555 1_555
H5_3 C7_3 1_555 1_555
N7_3 C8_3 1_555 1_555
O8_3 Dy3 1_555 1_555
O9_3 Dy3 1_555 1_555
N9_2 C33_2 1_555 1_555
C33_2 O9_3 1_555 1_555
C34_2 C33_2 1_555 1_555
H34_3 C34_2 1_555 1_555
H35_2 C34_2 1_555 1_555
H36_3 C34_2 1_555 1_555
C35_2 N9_2 1_555 1_555
H37_2 C35_2 1_555 1_555
H38_2 C35_2 1_555 1_555
H39_2 C35_2 1_555 1_555
C36_2 N9_2 1_555 1_555
H40_2 C36_2 1_555 1_555
H41_2 C36_2 1_555 1_555
H42_2 C36_2 1_555 1_555
O11_2 Dy3 1_555 1_555
C6_3 C7_3 1_555 1_555
N7_3 C28_3 1_555 1_555
N4_2 H15_3 1_555 1_555
H17_2 C16_2 1_555 1_555
O11_2 C21_3 1_555 1_555
O7_3 C21_3 1_555 1_555
C21_3 C22_3 1_555 1_555
C22_3 C23_3 1_555 1_555
C26_3 C25_3 1_555 1_555
H23_3 C26_3 1_555 1_555
C27_3 C22_3 1_555 1_555
H24_3 C27_3 1_555 1_555
C26_3 C27_3 1_555 1_555
N2_3 C8_4 1_555 1_555
O10 C13_3 1_555 1_555
O5_3 C13_3 1_555 1_555
C13_3 C14_3 1_555 1_555
C14_3 C15_3 1_555 1_555
C18_3 C17_3 1_555 1_555
H18_3 C18_3 1_555 1_555
C19_3 C14_3 1_555 1_555
H19_3 C19_3 1_555 1_555
C20_4 N2_3 1_555 1_555
C18_3 C19_3 1_555 1_555
H3_3 C4_3 1_555 1_555
N8_3 C29_3 1_555 1_555
C30_3 C29_3 1_555 1_555
H26_3 C30_3 1_555 1_555
C31_3 N8_3 1_555 1_555
H28_3 C31_3 1_555 1_555
H29_3 C31_3 1_555 1_555
H30_3 C31_3 1_555 1_555
C32_3 N8_3 1_555 1_555
H31_3 C32_3 1_555 1_555
H32_3 C32_3 1_555 1_555
H33_3 C32_3 1_555 1_555
O4_2 C13_4 1_555 1_555
O5_4 C13_4 1_555 1_555
C13_4 C14_4 1_555 1_555
C14_4 C15_4 1_555 1_555
C15_4 H16_3 1_555 1_555
C16_3 C15_4 1_555 1_555
H17_3 C16_3 1_555 1_555
C17_4 N4_3 1_555 1_555
C18_4 C17_4 1_555 1_555
H18_4 C18_4 1_555 1_555
C19_4 C14_4 1_555 1_555
H19_4 C19_4 1_555 1_555
Dy3_2 O4_2 1_555 1_555
C16_3 C17_4 1_555 1_555
C18_4 C19_4 1_555 1_555
O6_2 C21_4 1_555 1_555
O7_4 C21_4 1_555 1_555
C21_4 C22_4 1_555 1_555
C22_4 C23_4 1_555 1_555
C23_4 H21_3 1_555 1_555
C24_3 C23_4 1_555 1_555
H22_3 C24_3 1_555 1_555
C25_4 N6_3 1_555 1_555
C26_4 C25_4 1_555 1_555
H23_4 C26_4 1_555 1_555
C27_4 C22_4 1_555 1_555
H24_4 C27_4 1_555 1_555
Dy3_2 O6_2 1_555 1_555
C24_3 C25_4 1_555 1_555
C26_4 C27_4 1_555 1_555
Dy3_2 O1_4 1_555 1_555
O1_4 C1_4 1_555 1_555
O2_4 C1_4 1_555 1_555
O3_4 Dy3_2 1_555 1_555
N3_3 C9_3 1_555 1_555
C1_4 C2_4 1_555 1_555
C2_4 C3_4 1_555 1_555
C3_4 H2_4 1_555 1_555
C4_4 C3_4 1_555 1_555
H3_4 C4_4 1_555 1_555
C5_4 N1_4 1_555 1_555
C6_4 C5_4 1_555 1_555
H4_4 C6_4 1_555 1_555
C7_4 C2_4 1_555 1_555
H5_4 C7_4 1_555 1_555
C9_3 O3_4 1_555 1_555
C10_3 C9_3 1_555 1_555
H6_4 C10_3 1_555 1_555
H7_3 C10_3 1_555 1_555
H8_4 C10_3 1_555 1_555
C11_3 N3_3 1_555 1_555
H9_3 C11_3 1_555 1_555
H10_3 C11_3 1_555 1_555
H11_3 C11_3 1_555 1_555
C12_3 N3_3 1_555 1_555
H12_3 C12_3 1_555 1_555
H13_3 C12_3 1_555 1_555
H14_3 C12_3 1_555 1_555
O8_4 Dy3_2 1_555 1_555
N8_4 C29_4 1_555 1_555
C29_4 O8_4 1_555 1_555
C30_4 C29_4 1_555 1_555
H25_4 C30_4 1_555 1_555
H26_4 C30_4 1_555 1_555
H27_4 C30_4 1_555 1_555
C31_4 N8_4 1_555 1_555
H28_4 C31_4 1_555 1_555
H29_4 C31_4 1_555 1_555
H30_4 C31_4 1_555 1_555
C32_4 N8_4 1_555 1_555
H31_4 C32_4 1_555 1_555
H32_4 C32_4 1_555 1_555
H33_4 C32_4 1_555 1_555
O9_4 Dy3_2 1_555 1_555
N9_3 C33_3 1_555 1_555
C33_3 O9_4 1_555 1_555
C34_3 C33_3 1_555 1_555
H34_4 C34_3 1_555 1_555
H35_3 C34_3 1_555 1_555
H36_4 C34_3 1_555 1_555
C35_3 N9_3 1_555 1_555
H37_3 C35_3 1_555 1_555
H38_3 C35_3 1_555 1_555
H39_3 C35_3 1_555 1_555
C36_3 N9_3 1_555 1_555
H40_3 C36_3 1_555 1_555
H41_3 C36_3 1_555 1_555
H42_3 C36_3 1_555 1_555
C4_4 C5_4 1_555 1_555
C6_4 C7_4 1_555 1_555
N9_4 C33_4 1_555 1_555
C34_4 C33_4 1_555 1_555
H35_4 C34_4 1_555 1_555
C35_4 N9_4 1_555 1_555
H37_4 C35_4 1_555 1_555
H38_4 C35_4 1_555 1_555
H39_4 C35_4 1_555 1_555
C36_4 N9_4 1_555 1_555
H40_4 C36_4 1_555 1_555
H41_4 C36_4 1_555 1_555
H42_4 C36_4 1_555 1_555
H17_4 C16_4 1_555 1_555
N3_4 C9_4 1_555 1_555
C10_4 C9_4 1_555 1_555
H7_4 C10_4 1_555 1_555
C11_4 N3_4 1_555 1_555
H9_4 C11_4 1_555 1_555
H10_4 C11_4 1_555 1_555
H11_4 C11_4 1_555 1_555
C12_4 N3_4 1_555 1_555
H12_4 C12_4 1_555 1_555
H13_4 C12_4 1_555 1_555
H14_4 C12_4 1_555 1_555
H22_4 C24_4 1_555 1_555
Dy4 O12 1_555 1_555
O12 C37 1_555 1_555
O13 C37 1_555 1_555
O14 Dy4 1_555 1_555
O15 Dy4 1_555 1_555
C37 C38 1_555 1_555
C38 C39 1_555 1_555
C39 H45 1_555 1_555
C40 C39 1_555 1_555
H46 C40 1_555 1_555
C41 N10 1_555 1_555
C42 C41 1_555 1_555
H47 C42 1_555 1_555
C43 C38 1_555 1_555
H48 C43 1_555 1_555
C45 O15 1_555 1_555
C46 C45 1_555 1_555
H49 C46 1_555 1_555
H51 C46 1_555 1_555
N15 H64 1_555 1_555
H67 C62 1_555 1_555
H68 C63 1_555 1_555
O20 Dy4 1_555 1_555
N17 C65 1_555 1_555
C65 O20 1_555 1_555
C66 C65 1_555 1_555
H69 C66 1_555 1_555
H70 C66 1_555 1_555
H71 C66 1_555 1_555
C67 N17 1_555 1_555
H72 C67 1_555 1_555
H73 C67 1_555 1_555
H74 C67 1_555 1_555
C68 N17 1_555 1_555
H75 C68 1_555 1_555
H76 C68 1_555 1_555
H77 C68 1_555 1_555
O21 Dy4 1_555 1_555
N18 C69 1_555 1_555
C69 O21 1_555 1_555
C70 C69 1_555 1_555
H78 C70 1_555 1_555
H79 C70 1_555 1_555
H80 C70 1_555 1_555
C71 N18 1_555 1_555
H81 C71 1_555 1_555
H82 C71 1_555 1_555
H83 C71 1_555 1_555
C72 N18 1_555 1_555
H84 C72 1_555 1_555
H85 C72 1_555 1_555
H86 C72 1_555 1_555
O22 Dy4 1_555 1_555
O23 Dy4 1_555 1_555
C40 C41 1_555 1_555
C42 C43 1_555 1_555
C62 C63 1_555 1_555
O16 C49 1_555 1_555
O17 C49 1_555 1_555
N13 H59 1_555 1_555
N14 C44 1_555 1_555
C49 C50 1_555 1_555
C50 C51 1_555 1_555
C51 H60 1_555 1_555
C52 C51 1_555 1_555
H61 C52 1_555 1_555
C53 N13 1_555 1_555
C54 C53 1_555 1_555
H62 C54 1_555 1_555
C55 C50 1_555 1_555
H63 C55 1_555 1_555
C56 N13 1_555 1_555
O18 C57 1_555 1_555
O19 C57 1_555 1_555
N16 C56 1_555 1_555
C57 C58 1_555 1_555
C58 C59 1_555 1_555
C59 H65 1_555 1_555
C60 C59 1_555 1_555
H66 C60 1_555 1_555
Dy5 O16 1_555 1_555
Dy6 O18 1_555 1_555
N14 C56 1_555 1_555
C52 C53 1_555 1_555
C54 C55 1_555 1_555
N16 C64 1_555 1_555
C60 C61 1_555 1_555
N13_2 H59_2 1_555 1_555
H62_2 C54_2 1_555 1_555
H63_2 C55_2 1_555 1_555
O18_2 C57_2 1_555 1_555
O19_2 C57_2 1_555 1_555
C57_2 C58_2 1_555 1_555
C58_2 C59_2 1_555 1_555
C59_2 H65_2 1_555 1_555
C60_2 C59_2 1_555 1_555
H66_2 C60_2 1_555 1_555
C61_2 N15_2 1_555 1_555
C62_2 C61_2 1_555 1_555
H67_2 C62_2 1_555 1_555
C63_2 C58_2 1_555 1_555
H68_2 C63_2 1_555 1_555
Dy5 O18_2 1_555 1_555
C54_2 C55_2 1_555 1_555
C60_2 C61_2 1_555 1_555
C62_2 C63_2 1_555 1_555
Dy4_2 O12_2 1_555 1_555
O12_2 C37_2 1_555 1_555
O13_2 C37_2 1_555 1_555
O14_2 Dy4_2 1_555 1_555
O15_2 Dy4_2 1_555 1_555
N10_2 H44_2 1_555 1_555
N11_2 C44_2 1_555 1_555
N12 C45_2 1_555 1_555
C37_2 C38_2 1_555 1_555
C38_2 C39_2 1_555 1_555
C39_2 H45_2 1_555 1_555
C40_2 C39_2 1_555 1_555
H46_2 C40_2 1_555 1_555
C41_2 N10_2 1_555 1_555
C42_2 C41_2 1_555 1_555
H47_2 C42_2 1_555 1_555
C43_2 C38_2 1_555 1_555
H48_2 C43_2 1_555 1_555
C44_2 N10_2 1_555 1_555
C45_2 O15_2 1_555 1_555
C46_2 C45_2 1_555 1_555
H49_2 C46_2 1_555 1_555
H50 C46_2 1_555 1_555
H51_2 C46_2 1_555 1_555
C47 N12 1_555 1_555
H52 C47 1_555 1_555
H53 C47 1_555 1_555
H54 C47 1_555 1_555
C48 N12 1_555 1_555
H55_2 C48 1_555 1_555
H56 C48 1_555 1_555
H57 C48 1_555 1_555
O16_2 C49_2 1_555 1_555
O17_2 C49_2 1_555 1_555
N14_2 C44_2 1_555 1_555
C49_2 C50_2 1_555 1_555
C50_2 C51_2 1_555 1_555
C51_2 H60_2 1_555 1_555
C52_2 C51_2 1_555 1_555
H61_2 C52_2 1_555 1_555
C64_2 N11_2 1_555 1_555
O20_2 Dy4_2 1_555 1_555
C65_2 O20_2 1_555 1_555
C66_2 C65_2 1_555 1_555
H69_2 C66_2 1_555 1_555
H71_2 C66_2 1_555 1_555
O21_2 Dy4_2 1_555 1_555
N18_2 C69_2 1_555 1_555
C69_2 O21_2 1_555 1_555
C70_2 C69_2 1_555 1_555
H78_2 C70_2 1_555 1_555
H79_2 C70_2 1_555 1_555
H80_2 C70_2 1_555 1_555
C71_2 N18_2 1_555 1_555
H81_2 C71_2 1_555 1_555
H82_2 C71_2 1_555 1_555
H83_2 C71_2 1_555 1_555
C72_2 N18_2 1_555 1_555
H84_2 C72_2 1_555 1_555
H85_2 C72_2 1_555 1_555
H86_2 C72_2 1_555 1_555
Dy6 O16_2 1_555 1_555
O22_2 Dy4_2 1_555 1_555
O23_2 Dy4_2 1_555 1_555
C40_2 C41_2 1_555 1_555
C42_2 C43_2 1_555 1_555
N14_2 C56_2 1_555 1_555
C52_2 C53_2 1_555 1_555
O23_2 C57_3 1_555 1_555
O19_3 C57_3 1_555 1_555
C57_3 C58_3 1_555 1_555
C58_3 C59_3 1_555 1_555
C59_3 H65_3 1_555 1_555
C60_3 C59_3 1_555 1_555
H66_3 C60_3 1_555 1_555
C60_3 C61_3 1_555 1_555
O22 C49_3 1_555 1_555
O17_3 C49_3 1_555 1_555
C49_3 C50_3 1_555 1_555
C50_3 C51_3 1_555 1_555
C51_3 H60_3 1_555 1_555
C52_3 C51_3 1_555 1_555
H61_3 C52_3 1_555 1_555
C52_3 C53_3 1_555 1_555
Dy5 O12_3 1_555 1_555
O12_3 C37_3 1_555 1_555
O13_3 C37_3 1_555 1_555
O14_3 Dy5 1_555 1_555
O15_3 Dy5 1_555 1_555
N12_2 C45_3 1_555 1_555
C37_3 C38_3 1_555 1_555
C38_3 C39_3 1_555 1_555
C39_3 H45_3 1_555 1_555
C40_3 C39_3 1_555 1_555
H46_3 C40_3 1_555 1_555
C45_3 O15_3 1_555 1_555
C46_3 C45_3 1_555 1_555
H49_3 C46_3 1_555 1_555
H50_2 C46_3 1_555 1_555
H51_3 C46_3 1_555 1_555
C47_2 N12_2 1_555 1_555
H52_2 C47_2 1_555 1_555
H53_2 C47_2 1_555 1_555
H54_2 C47_2 1_555 1_555
C48_2 N12_2 1_555 1_555
H55_3 C48_2 1_555 1_555
H56_2 C48_2 1_555 1_555
H57_2 C48_2 1_555 1_555
O20_3 Dy5 1_555 1_555
N17_2 C65_3 1_555 1_555
C65_3 O20_3 1_555 1_555
C66_3 C65_3 1_555 1_555
H69_3 C66_3 1_555 1_555
H70_2 C66_3 1_555 1_555
H71_3 C66_3 1_555 1_555
C67_2 N17_2 1_555 1_555
H72_2 C67_2 1_555 1_555
H73_2 C67_2 1_555 1_555
H74_2 C67_2 1_555 1_555
C68_2 N17_2 1_555 1_555
H75_3 C68_2 1_555 1_555
H76_2 C68_2 1_555 1_555
H77_2 C68_2 1_555 1_555
O21_3 Dy5 1_555 1_555
C69_3 O21_3 1_555 1_555
C70_3 C69_3 1_555 1_555
H78_3 C70_3 1_555 1_555
H80_3 C70_3 1_555 1_555
C40_3 C41_3 1_555 1_555
C67_3 N17_3 1_555 1_555
H72_3 C67_3 1_555 1_555
H73_3 C67_3 1_555 1_555
H74_3 C67_3 1_555 1_555
C68_3 N17_3 1_555 1_555
H76_3 C68_3 1_555 1_555
H77_3 C68_3 1_555 1_555
N10_3 H44_4 1_555 1_555
H47_3 C42_3 1_555 1_555
H48_3 C43_3 1_555 1_555
O22_2 C49_4 1_555 1_555
O17_4 C49_4 1_555 1_555
C49_4 C50_4 1_555 1_555
C50_4 C51_4 1_555 1_555
C51_4 H60_4 1_555 1_555
C52_4 C51_4 1_555 1_555
H61_4 C52_4 1_555 1_555
C53_4 N13_3 1_555 1_555
C54_3 C53_4 1_555 1_555
H62_3 C54_3 1_555 1_555
C55_3 C50_4 1_555 1_555
H63_3 C55_3 1_555 1_555
C71_3 N18_3 1_555 1_555
H81_3 C71_3 1_555 1_555
H82_3 C71_3 1_555 1_555
H83_3 C71_3 1_555 1_555
C72_3 N18_3 1_555 1_555
H85_3 C72_3 1_555 1_555
H86_3 C72_3 1_555 1_555
C42_3 C43_3 1_555 1_555
C52_4 C53_4 1_555 1_555
C54_3 C55_3 1_555 1_555
C47_3 N12_3 1_555 1_555
H52_3 C47_3 1_555 1_555
H53_3 C47_3 1_555 1_555
H54_3 C47_3 1_555 1_555
C48_3 N12_3 1_555 1_555
H56_3 C48_3 1_555 1_555
H57_3 C48_3 1_555 1_555
Dy6 O12_4 1_555 1_555
O12_4 C37_4 1_555 1_555
O13_4 C37_4 1_555 1_555
O14_4 Dy6 1_555 1_555
O15_4 Dy6 1_555 1_555
N11_4 C44_3 1_555 1_555
C37_4 C38_4 1_555 1_555
C38_4 C39_4 1_555 1_555
C39_4 H45_4 1_555 1_555
C40_4 C39_4 1_555 1_555
H46_4 C40_4 1_555 1_555
C45_4 O15_4 1_555 1_555
C46_4 C45_4 1_555 1_555
H49_4 C46_4 1_555 1_555
H51_4 C46_4 1_555 1_555
O23 C57_4 1_555 1_555
O19_4 C57_4 1_555 1_555
N15_3 H64_4 1_555 1_555
N16_4 C56_3 1_555 1_555
C57_4 C58_4 1_555 1_555
C58_4 C59_4 1_555 1_555
C59_4 H65_4 1_555 1_555
C60_4 C59_4 1_555 1_555
H66_4 C60_4 1_555 1_555
C61_4 N15_3 1_555 1_555
C62_3 C61_4 1_555 1_555
H67_3 C62_3 1_555 1_555
C63_3 C58_4 1_555 1_555
H68_3 C63_3 1_555 1_555
C64_3 N11_4 1_555 1_555
O20_4 Dy6 1_555 1_555
C65_4 O20_4 1_555 1_555
C66_4 C65_4 1_555 1_555
H69_4 C66_4 1_555 1_555
H71_4 C66_4 1_555 1_555
O21_4 Dy6 1_555 1_555
C69_4 O21_4 1_555 1_555
C70_4 C69_4 1_555 1_555
H78_4 C70_4 1_555 1_555
H80_4 C70_4 1_555 1_555
C40_4 C41_4 1_555 1_555
N15_3 C64_3 1_555 1_555
N16_4 C64_3 1_555 1_555
C60_4 C61_4 1_555 1_555
C62_3 C63_3 1_555 1_555
C47_4 N12_4 1_555 1_555
H52_4 C47_4 1_555 1_555
H53_4 C47_4 1_555 1_555
H54_4 C47_4 1_555 1_555
C48_4 N12_4 1_555 1_555
H56_4 C48_4 1_555 1_555
H57_4 C48_4 1_555 1_555
H62_4 C54_4 1_555 1_555
H63_4 C55_4 1_555 1_555
C54_4 C55_4 1_555 1_555
C67_4 N17_4 1_555 1_555
H72_4 C67_4 1_555 1_555
H73_4 C67_4 1_555 1_555
H74_4 C67_4 1_555 1_555
C68_4 N17_4 1_555 1_555
H76_4 C68_4 1_555 1_555
H77_4 C68_4 1_555 1_555
H67_4 C62_4 1_555 1_555
H68_4 C63_4 1_555 1_555
C62_4 C63_4 1_555 1_555
H47_4 C42_4 1_555 1_555
H48_4 C43_4 1_555 1_555
C71_4 N18_4 1_555 1_555
H81_4 C71_4 1_555 1_555
H82_4 C71_4 1_555 1_555
H83_4 C71_4 1_555 1_555
C72_4 N18_4 1_555 1_555
H85_4 C72_4 1_555 1_555
H86_4 C72_4 1_555 1_555
C42_4 C43_4 1_555 1_555

#END
