
###############################################################################
#
# This file contains modified crystal structure data generated from the
# MOF subset of the Cambridge Structural Database (CSD) v543 
# hosted by the Cambridge Crystallographic Data Centre (CCDC).
#
# This work is licensed under the Creative Commons
# Attribution-NonCommercial-ShareAlike 4.0 International License.
# To view a copy of this license, visit
# http://creativecommons.org/licenses/by-nc-sa/4.0/
# or send a letter to
# Creative Commons, PO Box 1866, Mountain View, CA 94042, USA.
#
# CIF created using the CSD Python API on 29 September 2022
# The structure has been converted into the P1 space group
# The structure has a 3D framework
# The original CSD entry SOZSIL is in the cubic crystal system
# The original CSD entry SOZSIL is in a Sohncke space group
# The framework has been calculated to contain at least 10.0% void space
# The void calculation uses a probe of radius 1.32A, grid spacing 0.4
# H atom positions have been added when not included in the experimental data
# Generated hydrogen atom positions removed from atoms on special positions
#
###############################################################################

data_SOZSIL
_chemical_formula_moiety         '(C288 H348 N72 O76 Tb8)n'
_symmetry_cell_setting           triclinic
_symmetry_space_group_name_H-M   'P 1'
_symmetry_Int_Tables_number      1
_space_group_name_Hall           'P 1'
loop_
_symmetry_equiv_pos_site_id
_symmetry_equiv_pos_as_xyz
1 x,y,z
_cell_length_a                   20.4391(14)
_cell_length_b                   20.4391(14)
_cell_length_c                   20.4391(14)
_cell_angle_alpha                90
_cell_angle_beta                 90
_cell_angle_gamma                90
_cell_volume                     8538.57
loop_
_atom_site_label
_atom_site_type_symbol
_atom_site_fract_x
_atom_site_fract_y
_atom_site_fract_z
N9 N 0.0865(4) 0.0463(3) 0.3045(4)
C34 C 0.1600(4) 0.0014(4) 0.2271(3)
H35 H 0.1761 0.0458 0.2188
C35 C 0.0518(5) 0.0421(5) 0.3711(4)
H37 H 0.0693 0.0050 0.3960
H38 H 0.0047 0.0359 0.3643
H39 H 0.0592 0.0826 0.3956
C36 C 0.0696(5) 0.1021(4) 0.2644(5)
H40 H 0.0949 0.1402 0.2787
H41 H 0.0227 0.1114 0.2689
H42 H 0.0796 0.0924 0.2186
Tb1 Tb 0.154662(11) 0.845338(11) 0.345338(11)
O1 O 0.1342(2) 0.8111(2) 0.2424(2)
O2 O 0.0586(2) 0.88325(19) 0.2116(2)
O3 O 0.1687(2) 0.8650(2) 0.45471(18)
N3 N 0.1955(4) 0.9135(4) 0.5463(3)
C1 C 0.0863(2) 0.8289(3) 0.2063(2)
C2 C 0.0638(2) 0.7810(2) 0.1565(2)
C3 C 0.0132(3) 0.7957(3) 0.1149(3)
C5 C 0.0201(2) 0.6906(2) 0.0630(2)
C6 C 0.0719(2) 0.6748(2) 0.1052(2)
H4 H 0.0929 0.6335 0.1021
C7 C 0.0921(2) 0.7192(2) 0.1509(3)
H5 H 0.1266 0.7076 0.1799
C9 C 0.2077(4) 0.8757(4) 0.4999(4)
C10 C 0.2729(3) 0.8400(4) 0.5014(4)
H6 H 0.2716 0.8030 0.4710
H7 H 0.2812 0.8239 0.5458
H8 H 0.3079 0.8701 0.4885
C11 C 0.1289(4) 0.9482(5) 0.5421(5)
H9 H 0.1040 0.9307 0.5050
H10 H 0.1357 0.9953 0.5359
H11 H 0.1044 0.9408 0.5826
C12 C 0.2356(5) 0.9304(5) 0.6021(4)
H12 H 0.2213 0.9051 0.6402
H13 H 0.2311 0.9773 0.6114
H14 H 0.2814 0.9204 0.5924
N6 N 0.1500(2) 0.4867(2) 0.0043(2)
H20 H 0.1623 0.5035 0.0420
N7 N 0.0741(2) 0.5672(2) 0.0123(2)
H21 H 0.3374 0.3821 0.0071
C24 C 0.2519(3) 0.4309(3) 0.0091(3)
H22 H 0.2635 0.4586 0.0446
O8 O 0.04529(18) 0.8313(2) 0.3650(2)
C29 C 0.0001(4) 0.7923(4) 0.3757(4)
H25 H 0.0290 0.7284 0.3030
H27 H 0.0115 0.6921 0.3701
O9 O 0.1350(2) 0.95471(18) 0.3313(2)
C33 C 0.1243(4) 0.9999(4) 0.2923(4)
H34 H 0.1970 0.9710 0.2284
H36 H 0.1299 0.9885 0.1921
O10 O 0.2576(2) 0.8658(2) 0.3111(2)
O11 O 0.1889(2) 0.7424(2) 0.3658(2)
C8 C 0.0215(2) 0.5945(2) 0.9873(3)
H15 H 0.0035 0.4580 0.8377
N5 N 0.0672(2) 0.4877(2) 0.9259(2)
C20 C 0.0127(3) 0.5215(2) 0.9055(2)
O6 O 0.3111(2) 0.2576(2) 0.8658(2)
O7 O 0.38325(19) 0.2884(2) 0.9414(2)
C21 C 0.3289(3) 0.2937(2) 0.9137(2)
C22 C 0.2810(2) 0.3435(2) 0.9362(2)
C23 C 0.2957(3) 0.3851(3) 0.9868(3)
C25 C 0.1906(2) 0.4370(2) 0.9799(2)
C26 C 0.1748(2) 0.3948(2) 0.9281(2)
H23 H 0.1335 0.3979 0.9071
C27 C 0.2192(2) 0.3491(3) 0.9079(2)
H24 H 0.2076 0.3201 0.8734
C28 C 0.0945(2) 0.5127(3) 0.9785(2)
Tb2 Tb 0.345338(11) 0.154662(11) 0.845338(11)
N3_2 N 0.3045(4) 0.0865(4) 0.0463(3)
C10_2 C 0.2271(3) 0.1600(4) 0.0014(4)
H7_2 H 0.2188 0.1761 0.0458
C11_2 C 0.3711(4) 0.0518(5) 0.0421(5)
H9_2 H 0.3960 0.0693 0.0050
H10_2 H 0.3643 0.0047 0.0359
H11_2 H 0.3956 0.0592 0.0826
C12_2 C 0.2644(5) 0.0696(5) 0.1021(4)
H12_2 H 0.2787 0.0949 0.1402
H13_2 H 0.2689 0.0227 0.1114
H14_2 H 0.2186 0.0796 0.0924
O1_2 O 0.3658(2) 0.1889(2) 0.7424(2)
O2_2 O 0.4414(2) 0.11675(19) 0.7116(2)
O3_2 O 0.3313(2) 0.1350(2) 0.95471(18)
N1 N 0.5043(2) 0.3500(2) 0.5133(2)
H1 H 0.5420 0.3377 0.4965
N2 N 0.5123(2) 0.4259(2) 0.4328(2)
C1_2 C 0.4137(2) 0.1711(3) 0.7063(2)
C2_2 C 0.4362(2) 0.2190(2) 0.6565(2)
C3_2 C 0.4868(3) 0.2043(3) 0.6149(3)
H2 H 0.5071 0.1626 0.6179
C4 C 0.5091(3) 0.2481(3) 0.5691(3)
H3 H 0.5446 0.2365 0.5414
C5_2 C 0.4799(2) 0.3094(2) 0.5630(2)
C6_2 C 0.4281(2) 0.3252(2) 0.6052(2)
H4_2 H 0.4071 0.3665 0.6021
C7_2 C 0.4079(2) 0.2808(2) 0.6509(3)
H5_2 H 0.3734 0.2924 0.6799
C8_2 C 0.4785(2) 0.4055(2) 0.4873(3)
C9_2 C 0.2923(4) 0.1243(4) 0.9999(4)
H6_2 H 0.2284 0.1970 0.9710
H8_2 H 0.1921 0.1299 0.9885
O4 O 0.7424(2) 0.3658(2) 0.1889(2)
O5 O 0.7116(2) 0.4414(2) 0.11675(19)
N4 N 0.5133(2) 0.5043(2) 0.3500(2)
H15_2 H 0.4965 0.5420 0.3377
N5_2 N 0.4328(2) 0.5123(2) 0.4259(2)
C13 C 0.7063(2) 0.4137(2) 0.1711(3)
C14 C 0.6565(2) 0.4362(2) 0.2190(2)
C15 C 0.6149(3) 0.4868(3) 0.2043(3)
H16 H 0.6179 0.5071 0.1626
C16 C 0.5691(3) 0.5091(3) 0.2481(3)
H17 H 0.5414 0.5446 0.2365
C17 C 0.5630(2) 0.4799(2) 0.3094(2)
C18 C 0.6052(2) 0.4281(2) 0.3252(2)
H18 H 0.6021 0.4071 0.3665
C19 C 0.6509(3) 0.4079(2) 0.2808(2)
H19 H 0.6799 0.3734 0.2924
C20_2 C 0.4873(3) 0.4785(2) 0.4055(2)
O7_2 O 0.11675(19) 0.7116(2) 0.4414(2)
N6_2 N 0.3500(2) 0.5133(2) 0.5043(2)
H20_2 H 0.3377 0.4965 0.5420
N7_2 N 0.4259(2) 0.4328(2) 0.5123(2)
C21_2 C 0.1711(3) 0.7063(2) 0.4137(2)
C22_2 C 0.2190(2) 0.6565(2) 0.4362(2)
C23_2 C 0.2043(3) 0.6149(3) 0.4868(3)
H21_2 H 0.1626 0.6179 0.5071
C24_2 C 0.2481(3) 0.5691(3) 0.5091(3)
H22_2 H 0.2365 0.5414 0.5446
C25_2 C 0.3094(2) 0.5630(2) 0.4799(2)
C26_2 C 0.3252(2) 0.6052(2) 0.4281(2)
H23_2 H 0.3665 0.6021 0.4071
C27_2 C 0.2808(2) 0.6509(3) 0.4079(2)
H24_2 H 0.2924 0.6799 0.3734
C28_2 C 0.4055(2) 0.4873(3) 0.4785(2)
O8_2 O 0.45471(18) 0.1687(2) 0.8650(2)
N8 N 0.5463(3) 0.1955(4) 0.9135(4)
C29_2 C 0.4999(4) 0.2077(4) 0.8757(4)
C30 C 0.5014(4) 0.2729(3) 0.8400(4)
H25_2 H 0.4710 0.2716 0.8030
H26 H 0.5458 0.2812 0.8239
H27_2 H 0.4885 0.3079 0.8701
C31 C 0.5421(5) 0.1289(4) 0.9482(5)
H28 H 0.5050 0.1040 0.9307
H29 H 0.5359 0.1357 0.9953
H30 H 0.5826 0.1044 0.9408
C32 C 0.6021(4) 0.2356(5) 0.9304(5)
H31 H 0.6402 0.2213 0.9051
H32 H 0.6114 0.2311 0.9773
H33 H 0.5924 0.2814 0.9204
O9_2 O 0.3650(2) 0.04529(18) 0.8313(2)
C33_2 C 0.3757(4) 0.0001(4) 0.7923(4)
H34_2 H 0.3030 0.0290 0.7284
H36_2 H 0.3701 0.0115 0.6921
Tb3 Tb 0.845338(11) 0.345338(11) 0.154662(11)
O10_2 O 0.2424(2) 0.1342(2) 0.8111(2)
N1_2 N 0.0043(2) 0.1500(2) 0.4867(2)
H1_2 H 0.0420 0.1623 0.5035
N2_2 N 0.0123(2) 0.0741(2) 0.5672(2)
H2_2 H 0.0071 0.3374 0.3821
C4_2 C 0.0091(3) 0.2519(3) 0.4309(3)
H3_2 H 0.0446 0.2635 0.4586
O5_2 O 0.2116(2) 0.0586(2) 0.88325(19)
C13_2 C 0.2063(2) 0.0863(2) 0.8289(3)
C14_2 C 0.1565(2) 0.0638(2) 0.7810(2)
C15_2 C 0.1149(3) 0.0132(3) 0.7957(3)
C17_2 C 0.0630(2) 0.0201(2) 0.6906(2)
C18_2 C 0.1052(2) 0.0719(2) 0.6748(2)
H18_2 H 0.1021 0.0929 0.6335
C19_2 C 0.1509(3) 0.0921(2) 0.7192(2)
H19_2 H 0.1799 0.1266 0.7076
N8_2 N 0.0463(3) 0.3045(4) 0.0865(4)
C30_2 C 0.0014(4) 0.2271(3) 0.1600(4)
H26_2 H 0.0458 0.2188 0.1761
C31_2 C 0.0421(5) 0.3711(4) 0.0518(5)
H28_2 H 0.0050 0.3960 0.0693
H29_2 H 0.0359 0.3643 0.0047
H30_2 H 0.0826 0.3956 0.0592
C32_2 C 0.1021(4) 0.2644(5) 0.0696(5)
H31_2 H 0.1402 0.2787 0.0949
H32_2 H 0.1114 0.2689 0.0227
H33_2 H 0.0924 0.2186 0.0796
O1_3 O 0.8658(2) 0.3111(2) 0.2576(2)
O2_3 O 0.9414(2) 0.38325(19) 0.2884(2)
O3_3 O 0.8313(2) 0.3650(2) 0.04529(18)
C1_3 C 0.9137(2) 0.3289(3) 0.2937(2)
C2_3 C 0.9362(2) 0.2810(2) 0.3435(2)
C3_3 C 0.9868(3) 0.2957(3) 0.3851(3)
C5_3 C 0.9799(2) 0.1906(2) 0.4370(2)
C6_3 C 0.9281(2) 0.1748(2) 0.3948(2)
H4_3 H 0.9071 0.1335 0.3979
C7_3 C 0.9079(2) 0.2192(2) 0.3491(3)
H5_3 H 0.8734 0.2076 0.3201
C8_3 C 0.9785(2) 0.0945(2) 0.5127(3)
C9_3 C 0.7923(4) 0.3757(4) 0.0001(4)
H6_3 H 0.7284 0.3030 0.0290
H8_3 H 0.6921 0.3701 0.0115
C20_3 C 0.9873(3) 0.0215(2) 0.5945(2)
H20_3 H 0.8377 0.0035 0.4580
N7_3 N 0.9259(2) 0.0672(2) 0.4877(2)
C28_3 C 0.9055(2) 0.0127(3) 0.5215(2)
O8_3 O 0.95471(18) 0.3313(2) 0.1350(2)
C29_3 C 0.9999(4) 0.2923(4) 0.1243(4)
H25_3 H 0.9710 0.2284 0.1970
H27_3 H 0.9885 0.1921 0.1299
O9_3 O 0.8650(2) 0.45471(18) 0.1687(2)
N9_2 N 0.9135(4) 0.5463(3) 0.1955(4)
C33_3 C 0.8757(4) 0.4999(4) 0.2077(4)
C34_2 C 0.8400(4) 0.5014(4) 0.2729(3)
H34_3 H 0.8030 0.4710 0.2716
H35_2 H 0.8239 0.5458 0.2812
H36_3 H 0.8701 0.4885 0.3079
C35_2 C 0.9482(5) 0.5421(5) 0.1289(4)
H37_2 H 0.9307 0.5050 0.1040
H38_2 H 0.9953 0.5359 0.1357
H39_2 H 0.9408 0.5826 0.1044
C36_2 C 0.9304(5) 0.6021(4) 0.2356(5)
H40_2 H 0.9051 0.6402 0.2213
H41_2 H 0.9773 0.6114 0.2311
H42_2 H 0.9204 0.5924 0.2814
O11_2 O 0.8111(2) 0.2424(2) 0.1342(2)
N4_2 N 0.4867(2) 0.0043(2) 0.1500(2)
H15_3 H 0.5035 0.0420 0.1623
N5_3 N 0.5672(2) 0.0123(2) 0.0741(2)
H16_2 H 0.3821 0.0071 0.3374
C16_2 C 0.4309(3) 0.0091(3) 0.2519(3)
H17_2 H 0.4586 0.0446 0.2635
O7_3 O 0.88325(19) 0.2116(2) 0.0586(2)
C21_3 C 0.8289(3) 0.2063(2) 0.0863(2)
C22_3 C 0.7810(2) 0.1565(2) 0.0638(2)
C23_3 C 0.7957(3) 0.1149(3) 0.0132(3)
C25_3 C 0.6906(2) 0.0630(2) 0.0201(2)
C26_3 C 0.6748(2) 0.1052(2) 0.0719(2)
H23_3 H 0.6335 0.1021 0.0929
C27_3 C 0.7192(2) 0.1509(3) 0.0921(2)
H24_3 H 0.7076 0.1799 0.1266
H1_3 H 0.4580 0.8377 0.0035
N2_3 N 0.4877(2) 0.9259(2) 0.0672(2)
C8_4 C 0.5215(2) 0.9055(2) 0.0127(3)
O5_3 O 0.2884(2) 0.9414(2) 0.38325(19)
C13_3 C 0.2937(2) 0.9137(2) 0.3289(3)
C14_3 C 0.3435(2) 0.9362(2) 0.2810(2)
C15_3 C 0.3851(3) 0.9868(3) 0.2957(3)
C17_3 C 0.4370(2) 0.9799(2) 0.1906(2)
C18_3 C 0.3948(2) 0.9281(2) 0.1748(2)
H18_3 H 0.3979 0.9071 0.1335
C19_3 C 0.3491(3) 0.9079(2) 0.2192(2)
H19_3 H 0.3201 0.8734 0.2076
C20_4 C 0.5127(3) 0.9785(2) 0.0945(2)
C28_4 C 0.5945(2) 0.9873(3) 0.0215(2)
N1_3 N 0.9957(2) 0.6500(2) 0.0133(2)
H2_3 H 0.9929 0.8374 0.1179
C4_3 C 0.9909(3) 0.7519(3) 0.0691(3)
H3_3 H 0.9554 0.7635 0.0414
N8_3 N 0.9537(3) 0.8045(4) 0.4135(4)
C30_3 C 0.9986(4) 0.7271(3) 0.3400(4)
H26_3 H 0.9542 0.7188 0.3239
C31_3 C 0.9579(5) 0.8711(4) 0.4482(5)
H28_3 H 0.9950 0.8960 0.4307
H29_3 H 0.9641 0.8643 0.4953
H30_3 H 0.9174 0.8956 0.4408
C32_3 C 0.8979(4) 0.7644(5) 0.4304(5)
H31_3 H 0.8598 0.7787 0.4051
H32_3 H 0.8886 0.7689 0.4773
H33_3 H 0.9076 0.7186 0.4204
H1_4 H 0.9580 0.6623 0.9965
N2_4 N 0.9877(2) 0.5741(2) 0.9328(2)
O4_2 O 0.7576(2) 0.6342(2) 0.6889(2)
O5_4 O 0.7884(2) 0.5586(2) 0.61675(19)
N4_3 N 0.9867(2) 0.4957(2) 0.8500(2)
C13_4 C 0.7937(2) 0.5863(2) 0.6711(3)
C14_4 C 0.8435(2) 0.5638(2) 0.7190(2)
C15_4 C 0.8851(3) 0.5132(3) 0.7043(3)
H16_3 H 0.8821 0.4929 0.6626
C16_3 C 0.9309(3) 0.4909(3) 0.7481(3)
H17_3 H 0.9586 0.4554 0.7365
C17_4 C 0.9370(2) 0.5201(2) 0.8094(2)
C18_4 C 0.8948(2) 0.5719(2) 0.8252(2)
H18_4 H 0.8979 0.5929 0.8665
C19_4 C 0.8491(3) 0.5921(2) 0.7808(2)
H19_4 H 0.8201 0.6266 0.7924
Tb3_2 Tb 0.654662(11) 0.654662(11) 0.654662(11)
H15_4 H 0.9965 0.9580 0.6623
N5_4 N 0.9328(2) 0.9877(2) 0.5741(2)
O6_2 O 0.6889(2) 0.7576(2) 0.6342(2)
O7_4 O 0.61675(19) 0.7884(2) 0.5586(2)
N6_3 N 0.8500(2) 0.9867(2) 0.4957(2)
C21_4 C 0.6711(3) 0.7937(2) 0.5863(2)
C22_4 C 0.7190(2) 0.8435(2) 0.5638(2)
C23_4 C 0.7043(3) 0.8851(3) 0.5132(3)
H21_3 H 0.6626 0.8821 0.4929
C24_3 C 0.7481(3) 0.9309(3) 0.4909(3)
H22_3 H 0.7365 0.9586 0.4554
C25_4 C 0.8094(2) 0.9370(2) 0.5201(2)
C26_4 C 0.8252(2) 0.8948(2) 0.5719(2)
H23_4 H 0.8665 0.8979 0.5929
C27_4 C 0.7808(2) 0.8491(3) 0.5921(2)
H24_4 H 0.7924 0.8201 0.6266
O1_4 O 0.6342(2) 0.6889(2) 0.7576(2)
O2_4 O 0.5586(2) 0.61675(19) 0.7884(2)
O3_4 O 0.6687(2) 0.6350(2) 0.54529(18)
N1_4 N 0.4957(2) 0.8500(2) 0.9867(2)
N3_3 N 0.6955(4) 0.5865(4) 0.4537(3)
C1_4 C 0.5863(2) 0.6711(3) 0.7937(2)
C2_4 C 0.5638(2) 0.7190(2) 0.8435(2)
C3_4 C 0.5132(3) 0.7043(3) 0.8851(3)
H2_4 H 0.4929 0.6626 0.8821
C4_4 C 0.4909(3) 0.7481(3) 0.9309(3)
H3_4 H 0.4554 0.7365 0.9586
C5_4 C 0.5201(2) 0.8094(2) 0.9370(2)
C6_4 C 0.5719(2) 0.8252(2) 0.8948(2)
H4_4 H 0.5929 0.8665 0.8979
C7_4 C 0.5921(2) 0.7808(2) 0.8491(3)
H5_4 H 0.6266 0.7924 0.8201
C9_4 C 0.7077(4) 0.6243(4) 0.5001(4)
C10_3 C 0.7729(3) 0.6600(4) 0.4986(4)
H6_4 H 0.7716 0.6970 0.5290
H7_3 H 0.7812 0.6761 0.4542
H8_4 H 0.8079 0.6299 0.5115
C11_3 C 0.6289(4) 0.5518(5) 0.4579(5)
H9_3 H 0.6040 0.5693 0.4950
H10_3 H 0.6357 0.5047 0.4641
H11_3 H 0.6044 0.5592 0.4174
C12_3 C 0.7356(5) 0.5696(5) 0.3979(4)
H12_3 H 0.7213 0.5949 0.3598
H13_3 H 0.7311 0.5227 0.3886
H14_3 H 0.7814 0.5796 0.4076
H20_4 H 0.6623 0.9965 0.9580
N7_4 N 0.5741(2) 0.9328(2) 0.9877(2)
O8_4 O 0.54529(18) 0.6687(2) 0.6350(2)
N8_4 N 0.4537(3) 0.6955(4) 0.5865(4)
C29_4 C 0.5001(4) 0.7077(4) 0.6243(4)
C30_4 C 0.4986(4) 0.7729(3) 0.6600(4)
H25_4 H 0.5290 0.7716 0.6970
H26_4 H 0.4542 0.7812 0.6761
H27_4 H 0.5115 0.8079 0.6299
C31_4 C 0.4579(5) 0.6289(4) 0.5518(5)
H28_4 H 0.4950 0.6040 0.5693
H29_4 H 0.4641 0.6357 0.5047
H30_4 H 0.4174 0.6044 0.5592
C32_4 C 0.3979(4) 0.7356(5) 0.5696(5)
H31_4 H 0.3598 0.7213 0.5949
H32_4 H 0.3886 0.7311 0.5227
H33_4 H 0.4076 0.7814 0.5796
O9_4 O 0.6350(2) 0.54529(18) 0.6687(2)
N9_3 N 0.5865(4) 0.4537(3) 0.6955(4)
C33_4 C 0.6243(4) 0.5001(4) 0.7077(4)
C34_3 C 0.6600(4) 0.4986(4) 0.7729(3)
H34_4 H 0.6970 0.5290 0.7716
H35_3 H 0.6761 0.4542 0.7812
H36_4 H 0.6299 0.5115 0.8079
C35_3 C 0.5518(5) 0.4579(5) 0.6289(4)
H37_3 H 0.5693 0.4950 0.6040
H38_3 H 0.5047 0.4641 0.6357
H39_3 H 0.5592 0.4174 0.6044
C36_3 C 0.5696(5) 0.3979(4) 0.7356(5)
H40_3 H 0.5949 0.3598 0.7213
H41_3 H 0.5227 0.3886 0.7311
H42_3 H 0.5796 0.4076 0.7814
N9_4 N 0.4135(4) 0.9537(3) 0.8045(4)
C34_4 C 0.3400(4) 0.9986(4) 0.7271(3)
H35_4 H 0.3239 0.9542 0.7188
C35_4 C 0.4482(5) 0.9579(5) 0.8711(4)
H37_4 H 0.4307 0.9950 0.8960
H38_4 H 0.4953 0.9641 0.8643
H39_4 H 0.4408 0.9174 0.8956
C36_4 C 0.4304(5) 0.8979(4) 0.7644(5)
H40_4 H 0.4051 0.8598 0.7787
H41_4 H 0.4773 0.8886 0.7689
H42_4 H 0.4204 0.9076 0.7186
N4_4 N 0.0133(2) 0.9957(2) 0.6500(2)
H16_4 H 0.1179 0.9929 0.8374
C16_4 C 0.0691(3) 0.9909(3) 0.7519(3)
H17_4 H 0.0414 0.9554 0.7635
N3_4 N 0.8045(4) 0.4135(4) 0.9537(3)
C10_4 C 0.7271(3) 0.3400(4) 0.9986(4)
H7_4 H 0.7188 0.3239 0.9542
C11_4 C 0.8711(4) 0.4482(5) 0.9579(5)
H9_4 H 0.8960 0.4307 0.9950
H10_4 H 0.8643 0.4953 0.9641
H11_4 H 0.8956 0.4408 0.9174
C12_4 C 0.7644(5) 0.4304(5) 0.8979(4)
H12_4 H 0.7787 0.4051 0.8598
H13_4 H 0.7689 0.4773 0.8886
H14_4 H 0.7186 0.4204 0.9076
N6_4 N 0.6500(2) 0.0133(2) 0.9957(2)
H21_4 H 0.8374 0.1179 0.9929
C24_4 C 0.7519(3) 0.0691(3) 0.9909(3)
H22_4 H 0.7635 0.0414 0.9554
Tb4 Tb 0.333225(11) 0.666775(11) 0.166775(11)
O12 O 0.23605(19) 0.61931(19) 0.18038(19)
O13 O 0.20984(19) 0.5350(2) 0.11568(18)
O14 O 0.26340(18) 0.73660(18) 0.23660(18)
O15 O 0.3244(2) 0.6340(2) 0.05690(18)
N10 N 0.0092(2) 0.4896(2) 0.3507(2)
N11 N 0.0126(2) 0.5709(2) 0.4306(2)
C37 C 0.2027(2) 0.5678(2) 0.1667(2)
C38 C 0.1536(2) 0.5479(2) 0.2166(2)
C39 C 0.1486(2) 0.5796(2) 0.2755(2)
H44 H 0.1779 0.6145 0.2850
C40 C 0.1015(2) 0.5619(3) 0.3220(2)
H45 H 0.0987 0.5846 0.3624
C41 C 0.0590(2) 0.5107(3) 0.3082(2)
C42 C 0.0644(3) 0.4778(3) 0.2490(3)
H46 H 0.0358 0.4424 0.2396
C43 C 0.1108(3) 0.4960(3) 0.2037(3)
H47 H 0.1139 0.4731 0.1633
C45 C 0.2879(3) 0.6271(3) 0.0101(3)
C46 C 0.2239(3) 0.6600(4) 0.0064(4)
H50 H 0.2107 0.6743 0.0502
H54 H 0.3863 0.5567 0.0090
N15 N 0.0104(2) 0.6493(2) 0.5092(2)
H62 H 0.0479 0.6602 0.4910
C62 C 0.0222(3) 0.7510(3) 0.5644(3)
H65 H 0.0576 0.7604 0.5358
C63 C 0.0040(3) 0.7963(3) 0.6108(3)
H66 H 0.0269 0.8367 0.6139
O20 O 0.44310(18) 0.6756(2) 0.1340(2)
N17 N 0.5404(3) 0.6946(3) 0.0893(3)
C65 C 0.4899(3) 0.7121(3) 0.1271(3)
C66 C 0.4936(4) 0.7761(3) 0.1600(4)
H67 H 0.5110 0.8088 0.1295
H68 H 0.5226 0.7729 0.1981
H69 H 0.4498 0.7893 0.1743
C67 C 0.5964(4) 0.7328(4) 0.0734(5)
H70 H 0.6030 0.7326 0.0259
H71 H 0.6350 0.7143 0.0950
H72 H 0.5898 0.7779 0.0885
C68 C 0.5368(5) 0.6273(4) 0.0599(5)
H73 H 0.4910 0.6137 0.0567
H74 H 0.5607 0.5964 0.0877
H75 H 0.5564 0.6279 0.0162
O21 O 0.3660(2) 0.55690(18) 0.1756(2)
N18 N 0.4107(3) 0.4596(3) 0.1946(3)
C69 C 0.3729(3) 0.5101(3) 0.2121(3)
C70 C 0.3400(4) 0.5064(4) 0.2761(3)
H76 H 0.3705 0.4890 0.3088
H77 H 0.3019 0.4774 0.2729
H78 H 0.3257 0.5502 0.2893
C71 C 0.4266(5) 0.4036(4) 0.2328(4)
H79 H 0.4741 0.3970 0.2326
H80 H 0.4050 0.3650 0.2143
H81 H 0.4115 0.4102 0.2779
C72 C 0.4401(5) 0.4632(5) 0.1273(4)
H82 H 0.4433 0.5090 0.1137
H83 H 0.4123 0.4393 0.0964
H84 H 0.4838 0.4436 0.1279
O22 O 0.31962(19) 0.76395(19) 0.11931(19)
O23 O 0.38069(19) 0.68038(19) 0.26395(19)
H43 H 0.9910 0.4521 0.3398
C44 C 0.9848(2) 0.5172(2) 0.4056(2)
O16 O 0.68038(19) 0.26395(19) 0.38069(19)
O17 O 0.61568(18) 0.29016(19) 0.4650(2)
N13 N 0.8507(2) 0.4908(2) 0.5104(2)
H57 H 0.8398 0.5090 0.5479
N14 N 0.9306(2) 0.4874(2) 0.4291(2)
C49 C 0.6667(2) 0.2973(2) 0.4322(2)
C50 C 0.7166(2) 0.3464(2) 0.4521(2)
C51 C 0.7755(2) 0.3514(2) 0.4204(2)
H58 H 0.7850 0.3221 0.3855
C52 C 0.8220(2) 0.3985(2) 0.4381(3)
H59 H 0.8624 0.4013 0.4154
C53 C 0.8082(2) 0.4410(2) 0.4893(3)
C54 C 0.7490(3) 0.4356(3) 0.5222(3)
H60 H 0.7396 0.4642 0.5576
C55 C 0.7037(3) 0.3892(3) 0.5040(3)
H61 H 0.6633 0.3861 0.5269
C56 C 0.9056(2) 0.5152(2) 0.4828(2)
O18 O 0.88069(19) 0.81962(19) 0.73605(19)
O19 O 0.9650(2) 0.88432(18) 0.70984(19)
N16 N 0.9291(2) 0.5694(2) 0.5126(2)
C57 C 0.9322(2) 0.8333(2) 0.7027(2)
C58 C 0.9521(2) 0.7834(2) 0.6536(2)
C59 C 0.9204(2) 0.7245(2) 0.6486(2)
H63 H 0.8855 0.7150 0.6779
C60 C 0.9381(3) 0.6780(2) 0.6015(2)
H64 H 0.9154 0.6376 0.5987
C61 C 0.9893(3) 0.6918(2) 0.5590(2)
C64 C 0.9828(2) 0.5944(2) 0.4848(2)
Tb5 Tb 0.666775(11) 0.166775(11) 0.333225(11)
Tb6 Tb 0.833225(11) 0.833225(11) 0.833225(11)
N13_2 N 0.6493(2) 0.5092(2) 0.0104(2)
H57_2 H 0.6602 0.4910 0.0479
C54_2 C 0.7510(3) 0.5644(3) 0.0222(3)
H60_2 H 0.7604 0.5358 0.0576
C55_2 C 0.7963(3) 0.6108(3) 0.0040(3)
H61_2 H 0.8367 0.6139 0.0269
O18_2 O 0.61931(19) 0.18038(19) 0.23605(19)
O19_2 O 0.5350(2) 0.11568(18) 0.20984(19)
N15_2 N 0.4896(2) 0.3507(2) 0.0092(2)
N16_2 N 0.5709(2) 0.4306(2) 0.0126(2)
C57_2 C 0.5678(2) 0.1667(2) 0.2027(2)
C58_2 C 0.5479(2) 0.2166(2) 0.1536(2)
C59_2 C 0.5796(2) 0.2755(2) 0.1486(2)
H63_2 H 0.6145 0.2850 0.1779
C60_2 C 0.5619(3) 0.3220(2) 0.1015(2)
H64_2 H 0.5846 0.3624 0.0987
C61_2 C 0.5107(3) 0.3082(2) 0.0590(2)
C62_2 C 0.4778(3) 0.2490(3) 0.0644(3)
H65_2 H 0.4424 0.2396 0.0358
C63_2 C 0.4960(3) 0.2037(3) 0.1108(3)
H66_2 H 0.4731 0.1633 0.1139
Tb4_2 Tb 0.166775(11) 0.333225(11) 0.666775(11)
O12_2 O 0.26395(19) 0.38069(19) 0.68038(19)
O13_2 O 0.29016(19) 0.4650(2) 0.61568(18)
O14_2 O 0.23660(18) 0.26340(18) 0.73660(18)
O15_2 O 0.1756(2) 0.3660(2) 0.55690(18)
N10_2 N 0.4908(2) 0.5104(2) 0.8507(2)
H43_2 H 0.5090 0.5479 0.8398
N11_2 N 0.4874(2) 0.4291(2) 0.9306(2)
N12 N 0.1946(3) 0.4107(3) 0.4596(3)
C37_2 C 0.2973(2) 0.4322(2) 0.6667(2)
C38_2 C 0.3464(2) 0.4521(2) 0.7166(2)
C39_2 C 0.3514(2) 0.4204(2) 0.7755(2)
H44_2 H 0.3221 0.3855 0.7850
C40_2 C 0.3985(2) 0.4381(3) 0.8220(2)
H45_2 H 0.4013 0.4154 0.8624
C41_2 C 0.4410(2) 0.4893(3) 0.8082(2)
C42_2 C 0.4356(3) 0.5222(3) 0.7490(3)
H46_2 H 0.4642 0.5576 0.7396
C43_2 C 0.3892(3) 0.5040(3) 0.7037(3)
H47_2 H 0.3861 0.5269 0.6633
C44_2 C 0.5152(2) 0.4828(2) 0.9056(2)
C45_2 C 0.2121(3) 0.3729(3) 0.5101(3)
C46_2 C 0.2761(3) 0.3400(4) 0.5064(4)
H48 H 0.3088 0.3705 0.4890
H49 H 0.2729 0.3019 0.4774
H50_2 H 0.2893 0.3257 0.5502
C47 C 0.2328(4) 0.4266(5) 0.4036(4)
H51 H 0.2326 0.4741 0.3970
H52 H 0.2143 0.4050 0.3650
H53 H 0.2779 0.4115 0.4102
C48 C 0.1273(4) 0.4401(5) 0.4632(5)
H54_2 H 0.1137 0.4433 0.5090
H55 H 0.0964 0.4123 0.4393
H56 H 0.1279 0.4838 0.4436
O16_2 O 0.81962(19) 0.73605(19) 0.88069(19)
O17_2 O 0.88432(18) 0.70984(19) 0.9650(2)
N14_2 N 0.5694(2) 0.5126(2) 0.9291(2)
C49_2 C 0.8333(2) 0.7027(2) 0.9322(2)
C50_2 C 0.7834(2) 0.6536(2) 0.9521(2)
C51_2 C 0.7245(2) 0.6486(2) 0.9204(2)
H58_2 H 0.7150 0.6779 0.8855
C52_2 C 0.6780(2) 0.6015(2) 0.9381(3)
H59_2 H 0.6376 0.5987 0.9154
C53_2 C 0.6918(2) 0.5590(2) 0.9893(3)
C56_2 C 0.5944(2) 0.4848(2) 0.9828(2)
H62_2 H 0.4521 0.3398 0.9910
C64_2 C 0.5172(2) 0.4056(2) 0.9848(2)
O20_2 O 0.05690(18) 0.3244(2) 0.6340(2)
C65_2 C 0.0101(3) 0.2879(3) 0.6271(3)
C66_2 C 0.0064(4) 0.2239(3) 0.6600(4)
H69_2 H 0.0502 0.2107 0.6743
H73_2 H 0.0090 0.3863 0.5567
O21_2 O 0.1340(2) 0.44310(18) 0.6756(2)
N18_2 N 0.0893(3) 0.5404(3) 0.6946(3)
C69_2 C 0.1271(3) 0.4899(3) 0.7121(3)
C70_2 C 0.1600(4) 0.4936(4) 0.7761(3)
H76_2 H 0.1295 0.5110 0.8088
H77_2 H 0.1981 0.5226 0.7729
H78_2 H 0.1743 0.4498 0.7893
C71_2 C 0.0734(5) 0.5964(4) 0.7328(4)
H79_2 H 0.0259 0.6030 0.7326
H80_2 H 0.0950 0.6350 0.7143
H81_2 H 0.0885 0.5898 0.7779
C72_2 C 0.0599(5) 0.5368(5) 0.6273(4)
H82_2 H 0.0567 0.4910 0.6137
H83_2 H 0.0877 0.5607 0.5964
H84_2 H 0.0162 0.5564 0.6279
O22_2 O 0.18038(19) 0.23605(19) 0.61931(19)
O23_2 O 0.11931(19) 0.31962(19) 0.76395(19)
H57_3 H 0.1602 0.0090 0.9521
O19_3 O 0.0350(2) 0.38432(18) 0.79016(19)
N16_3 N 0.0709(2) 0.0694(2) 0.9874(2)
C57_3 C 0.0678(2) 0.3333(2) 0.7973(2)
C58_3 C 0.0479(2) 0.2834(2) 0.8464(2)
C59_3 C 0.0796(2) 0.2245(2) 0.8514(2)
H63_3 H 0.1145 0.2150 0.8221
C60_3 C 0.0619(3) 0.1780(2) 0.8985(2)
H64_3 H 0.0846 0.1376 0.9013
C61_3 C 0.0107(3) 0.1918(2) 0.9410(2)
H43_3 H 0.0090 0.9521 0.1602
O17_3 O 0.38432(18) 0.79016(19) 0.0350(2)
N14_3 N 0.0694(2) 0.9874(2) 0.0709(2)
C49_3 C 0.3333(2) 0.7973(2) 0.0678(2)
C50_3 C 0.2834(2) 0.8464(2) 0.0479(2)
C51_3 C 0.2245(2) 0.8514(2) 0.0796(2)
H58_3 H 0.2150 0.8221 0.1145
C52_3 C 0.1780(2) 0.8985(2) 0.0619(3)
H59_3 H 0.1376 0.9013 0.0846
C53_3 C 0.1918(2) 0.9410(2) 0.0107(3)
O12_3 O 0.76395(19) 0.11931(19) 0.31962(19)
O13_3 O 0.79016(19) 0.0350(2) 0.38432(18)
O14_3 O 0.73660(18) 0.23660(18) 0.26340(18)
O15_3 O 0.6756(2) 0.1340(2) 0.44310(18)
N11_3 N 0.9874(2) 0.0709(2) 0.0694(2)
N12_2 N 0.6946(3) 0.0893(3) 0.5404(3)
C37_3 C 0.7973(2) 0.0678(2) 0.3333(2)
C38_3 C 0.8464(2) 0.0479(2) 0.2834(2)
C39_3 C 0.8514(2) 0.0796(2) 0.2245(2)
H44_3 H 0.8221 0.1145 0.2150
C40_3 C 0.8985(2) 0.0619(3) 0.1780(2)
H45_3 H 0.9013 0.0846 0.1376
C41_3 C 0.9410(2) 0.0107(3) 0.1918(2)
C45_3 C 0.7121(3) 0.1271(3) 0.4899(3)
C46_3 C 0.7761(3) 0.1600(4) 0.4936(4)
H48_2 H 0.8088 0.1295 0.5110
H49_2 H 0.7729 0.1981 0.5226
H50_3 H 0.7893 0.1743 0.4498
C47_2 C 0.7328(4) 0.0734(5) 0.5964(4)
H51_2 H 0.7326 0.0259 0.6030
H52_2 H 0.7143 0.0950 0.6350
H53_2 H 0.7779 0.0885 0.5898
C48_2 C 0.6273(4) 0.0599(5) 0.5368(5)
H54_3 H 0.6137 0.0567 0.4910
H55_2 H 0.5964 0.0877 0.5607
H56_2 H 0.6279 0.0162 0.5564
H62_3 H 0.9521 0.1602 0.0090
O20_3 O 0.55690(18) 0.1756(2) 0.3660(2)
N17_2 N 0.4596(3) 0.1946(3) 0.4107(3)
C65_3 C 0.5101(3) 0.2121(3) 0.3729(3)
C66_3 C 0.5064(4) 0.2761(3) 0.3400(4)
H67_2 H 0.4890 0.3088 0.3705
H68_2 H 0.4774 0.2729 0.3019
H69_3 H 0.5502 0.2893 0.3257
C67_2 C 0.4036(4) 0.2328(4) 0.4266(5)
H70_2 H 0.3970 0.2326 0.4741
H71_2 H 0.3650 0.2143 0.4050
H72_2 H 0.4102 0.2779 0.4115
C68_2 C 0.4632(5) 0.1273(4) 0.4401(5)
H73_3 H 0.5090 0.1137 0.4433
H74_2 H 0.4393 0.0964 0.4123
H75_2 H 0.4436 0.1279 0.4838
O21_3 O 0.6340(2) 0.05690(18) 0.3244(2)
C69_3 C 0.6271(3) 0.0101(3) 0.2879(3)
C70_3 C 0.6600(4) 0.0064(4) 0.2239(3)
H78_3 H 0.6743 0.0502 0.2107
H82_3 H 0.5567 0.0090 0.3863
N17_3 N 0.0404(3) 0.8054(3) 0.9107(3)
H67_3 H 0.0110 0.6912 0.8705
H68_3 H 0.0226 0.7271 0.8019
C67_3 C 0.0964(4) 0.7672(4) 0.9266(5)
H70_3 H 0.1030 0.7674 0.9741
H71_3 H 0.1350 0.7857 0.9050
H72_3 H 0.0898 0.7221 0.9115
C68_3 C 0.0368(5) 0.8727(4) 0.9401(5)
H74_3 H 0.0607 0.9036 0.9123
H75_3 H 0.0564 0.8721 0.9838
N10_3 N 0.5092(2) 0.0104(2) 0.6493(2)
H43_4 H 0.4910 0.0479 0.6602
C42_3 C 0.5644(3) 0.0222(3) 0.7510(3)
H46_3 H 0.5358 0.0576 0.7604
C43_3 C 0.6108(3) 0.0040(3) 0.7963(3)
H47_3 H 0.6139 0.0269 0.8367
O17_4 O 0.11568(18) 0.20984(19) 0.5350(2)
N13_3 N 0.3507(2) 0.0092(2) 0.4896(2)
N14_4 N 0.4306(2) 0.0126(2) 0.5709(2)
C49_4 C 0.1667(2) 0.2027(2) 0.5678(2)
C50_4 C 0.2166(2) 0.1536(2) 0.5479(2)
C51_4 C 0.2755(2) 0.1486(2) 0.5796(2)
H58_4 H 0.2850 0.1779 0.6145
C52_4 C 0.3220(2) 0.1015(2) 0.5619(3)
H59_4 H 0.3624 0.0987 0.5846
C53_4 C 0.3082(2) 0.0590(2) 0.5107(3)
C54_3 C 0.2490(3) 0.0644(3) 0.4778(3)
H60_3 H 0.2396 0.0358 0.4424
C55_3 C 0.2037(3) 0.1108(3) 0.4960(3)
H61_3 H 0.1633 0.1139 0.4731
N18_3 N 0.9107(3) 0.0404(3) 0.8054(3)
H76_3 H 0.8705 0.0110 0.6912
H77_3 H 0.8019 0.0226 0.7271
C71_3 C 0.9266(5) 0.0964(4) 0.7672(4)
H79_3 H 0.9741 0.1030 0.7674
H80_3 H 0.9050 0.1350 0.7857
H81_3 H 0.9115 0.0898 0.7221
C72_3 C 0.9401(5) 0.0368(5) 0.8727(4)
H83_3 H 0.9123 0.0607 0.9036
H84_3 H 0.9838 0.0564 0.8721
N12_3 N 0.8054(3) 0.9107(3) 0.0404(3)
H48_3 H 0.6912 0.8705 0.0110
H49_3 H 0.7271 0.8019 0.0226
C47_3 C 0.7672(4) 0.9266(5) 0.0964(4)
H51_3 H 0.7674 0.9741 0.1030
H52_3 H 0.7857 0.9050 0.1350
H53_3 H 0.7221 0.9115 0.0898
C48_3 C 0.8727(4) 0.9401(5) 0.0368(5)
H55_3 H 0.9036 0.9123 0.0607
H56_3 H 0.8721 0.9838 0.0564
O12_4 O 0.73605(19) 0.88069(19) 0.81962(19)
O13_4 O 0.70984(19) 0.9650(2) 0.88432(18)
O14_4 O 0.76340(18) 0.76340(18) 0.76340(18)
O15_4 O 0.8244(2) 0.8660(2) 0.94310(18)
N11_4 N 0.5126(2) 0.9291(2) 0.5694(2)
C37_4 C 0.7027(2) 0.9322(2) 0.8333(2)
C38_4 C 0.6536(2) 0.9521(2) 0.7834(2)
C39_4 C 0.6486(2) 0.9204(2) 0.7245(2)
H44_4 H 0.6779 0.8855 0.7150
C40_4 C 0.6015(2) 0.9381(3) 0.6780(2)
H45_4 H 0.5987 0.9154 0.6376
C41_4 C 0.5590(2) 0.9893(3) 0.6918(2)
C44_3 C 0.4848(2) 0.9828(2) 0.5944(2)
C45_4 C 0.7879(3) 0.8729(3) 0.9899(3)
C46_4 C 0.7239(3) 0.8400(4) 0.9936(4)
H50_4 H 0.7107 0.8257 0.9498
H54_4 H 0.8863 0.9433 0.9910
H57_4 H 0.3398 0.9910 0.4521
C56_3 C 0.4056(2) 0.9848(2) 0.5172(2)
O19_4 O 0.4650(2) 0.61568(18) 0.29016(19)
N15_3 N 0.5104(2) 0.8507(2) 0.4908(2)
H62_4 H 0.5479 0.8398 0.5090
N16_4 N 0.4291(2) 0.9306(2) 0.4874(2)
C57_4 C 0.4322(2) 0.6667(2) 0.2973(2)
C58_4 C 0.4521(2) 0.7166(2) 0.3464(2)
C59_4 C 0.4204(2) 0.7755(2) 0.3514(2)
H63_4 H 0.3855 0.7850 0.3221
C60_4 C 0.4381(3) 0.8220(2) 0.3985(2)
H64_4 H 0.4154 0.8624 0.4013
C61_4 C 0.4893(3) 0.8082(2) 0.4410(2)
C62_3 C 0.5222(3) 0.7490(3) 0.4356(3)
H65_3 H 0.5576 0.7396 0.4642
C63_3 C 0.5040(3) 0.7037(3) 0.3892(3)
H66_3 H 0.5269 0.6633 0.3861
C64_3 C 0.4828(2) 0.9056(2) 0.5152(2)
O20_4 O 0.94310(18) 0.8244(2) 0.8660(2)
C65_4 C 0.9899(3) 0.7879(3) 0.8729(3)
C66_4 C 0.9936(4) 0.7239(3) 0.8400(4)
H69_4 H 0.9498 0.7107 0.8257
H73_4 H 0.9910 0.8863 0.9433
O21_4 O 0.8660(2) 0.94310(18) 0.8244(2)
C69_4 C 0.8729(3) 0.9899(3) 0.7879(3)
C70_4 C 0.8400(4) 0.9936(4) 0.7239(3)
H78_4 H 0.8257 0.9498 0.7107
H82_4 H 0.9433 0.9910 0.8863
N12_4 N 0.3054(3) 0.5893(3) 0.9596(3)
H48_4 H 0.1912 0.6295 0.9890
H49_4 H 0.2271 0.6981 0.9774
C47_4 C 0.2672(4) 0.5734(5) 0.9036(4)
H51_4 H 0.2674 0.5259 0.8970
H52_4 H 0.2857 0.5950 0.8650
H53_4 H 0.2221 0.5885 0.9102
C48_4 C 0.3727(4) 0.5599(5) 0.9632(5)
H55_4 H 0.4036 0.5877 0.9393
H56_4 H 0.3721 0.5162 0.9436
N13_4 N 0.1493(2) 0.9908(2) 0.9896(2)
C54_4 C 0.2510(3) 0.9356(3) 0.9778(3)
H60_4 H 0.2604 0.9642 0.9424
C55_4 C 0.2963(3) 0.8892(3) 0.9960(3)
H61_4 H 0.3367 0.8861 0.9731
N17_4 N 0.9596(3) 0.3054(3) 0.5893(3)
H67_4 H 0.9890 0.1912 0.6295
H68_4 H 0.9774 0.2271 0.6981
C67_4 C 0.9036(4) 0.2672(4) 0.5734(5)
H70_4 H 0.8970 0.2674 0.5259
H71_4 H 0.8650 0.2857 0.5950
H72_4 H 0.9102 0.2221 0.5885
C68_4 C 0.9632(5) 0.3727(4) 0.5599(5)
H74_4 H 0.9393 0.4036 0.5877
H75_4 H 0.9436 0.3721 0.5162
N15_4 N 0.9896(2) 0.1493(2) 0.9908(2)
C62_4 C 0.9778(3) 0.2510(3) 0.9356(3)
H65_4 H 0.9424 0.2604 0.9642
C63_4 C 0.9960(3) 0.2963(3) 0.8892(3)
H66_4 H 0.9731 0.3367 0.8861
C44_4 C 0.0152(2) 0.0172(2) 0.0944(2)
C56_4 C 0.0944(2) 0.0152(2) 0.0172(2)
C64_4 C 0.0172(2) 0.0944(2) 0.0152(2)
N10_4 N 0.9908(2) 0.9896(2) 0.1493(2)
C42_4 C 0.9356(3) 0.9778(3) 0.2510(3)
H46_4 H 0.9642 0.9424 0.2604
C43_4 C 0.8892(3) 0.9960(3) 0.2963(3)
H47_4 H 0.8861 0.9731 0.3367
N18_4 N 0.5893(3) 0.9596(3) 0.3054(3)
H76_4 H 0.6295 0.9890 0.1912
H77_4 H 0.6981 0.9774 0.2271
C71_4 C 0.5734(5) 0.9036(4) 0.2672(4)
H79_4 H 0.5259 0.8970 0.2674
H80_4 H 0.5950 0.8650 0.2857
H81_4 H 0.5885 0.9102 0.2221
C72_4 C 0.5599(5) 0.9632(5) 0.3727(4)
H83_4 H 0.5877 0.9393 0.4036
H84_4 H 0.5162 0.9436 0.3721
loop_
_geom_bond_atom_site_label_1
_geom_bond_atom_site_label_2
_geom_bond_site_symmetry_1
_geom_bond_site_symmetry_2
H35 C34 1_555 1_555
C35 N9 1_555 1_555
H37 C35 1_555 1_555
H38 C35 1_555 1_555
H39 C35 1_555 1_555
C36 N9 1_555 1_555
H40 C36 1_555 1_555
H41 C36 1_555 1_555
H42 C36 1_555 1_555
Tb1 O1 1_555 1_555
O1 C1 1_555 1_555
O2 C1 1_555 1_555
O3 Tb1 1_555 1_555
N3 C9 1_555 1_555
C1 C2 1_555 1_555
C2 C3 1_555 1_555
C6 C5 1_555 1_555
H4 C6 1_555 1_555
C7 C2 1_555 1_555
H5 C7 1_555 1_555
C9 O3 1_555 1_555
C10 C9 1_555 1_555
H6 C10 1_555 1_555
H7 C10 1_555 1_555
H8 C10 1_555 1_555
C11 N3 1_555 1_555
H9 C11 1_555 1_555
H10 C11 1_555 1_555
H11 C11 1_555 1_555
C12 N3 1_555 1_555
H12 C12 1_555 1_555
H13 C12 1_555 1_555
H14 C12 1_555 1_555
N6 H20 1_555 1_555
H22 C24 1_555 1_555
O8 Tb1 1_555 1_555
C29 O8 1_555 1_555
O9 Tb1 1_555 1_555
C33 O9 1_555 1_555
O10 Tb1 1_555 1_555
O11 Tb1 1_555 1_555
C6 C7 1_555 1_555
N5 C20 1_555 1_555
O6 C21 1_555 1_555
O7 C21 1_555 1_555
C21 C22 1_555 1_555
C22 C23 1_555 1_555
C26 C25 1_555 1_555
H23 C26 1_555 1_555
C27 C22 1_555 1_555
H24 C27 1_555 1_555
C28 N5 1_555 1_555
Tb2 O6 1_555 1_555
C26 C27 1_555 1_555
H7_2 C10_2 1_555 1_555
C11_2 N3_2 1_555 1_555
H9_2 C11_2 1_555 1_555
H10_2 C11_2 1_555 1_555
H11_2 C11_2 1_555 1_555
C12_2 N3_2 1_555 1_555
H12_2 C12_2 1_555 1_555
H13_2 C12_2 1_555 1_555
H14_2 C12_2 1_555 1_555
Tb2 O1_2 1_555 1_555
O1_2 C1_2 1_555 1_555
O2_2 C1_2 1_555 1_555
O3_2 Tb2 1_555 1_555
N1 H1 1_555 1_555
N2 C8_2 1_555 1_555
C1_2 C2_2 1_555 1_555
C2_2 C3_2 1_555 1_555
C3_2 H2 1_555 1_555
C4 C3_2 1_555 1_555
H3 C4 1_555 1_555
C5_2 N1 1_555 1_555
C6_2 C5_2 1_555 1_555
H4_2 C6_2 1_555 1_555
C7_2 C2_2 1_555 1_555
H5_2 C7_2 1_555 1_555
C8_2 N1 1_555 1_555
C9_2 O3_2 1_555 1_555
O4 C13 1_555 1_555
O5 C13 1_555 1_555
N4 H15_2 1_555 1_555
N5_2 C20_2 1_555 1_555
C13 C14 1_555 1_555
C14 C15 1_555 1_555
C15 H16 1_555 1_555
C16 C15 1_555 1_555
H17 C16 1_555 1_555
C17 N4 1_555 1_555
C18 C17 1_555 1_555
H18 C18 1_555 1_555
C19 C14 1_555 1_555
H19 C19 1_555 1_555
C20_2 N2 1_555 1_555
O11 C21_2 1_555 1_555
O7_2 C21_2 1_555 1_555
N6_2 H20_2 1_555 1_555
N7_2 C8_2 1_555 1_555
C21_2 C22_2 1_555 1_555
C22_2 C23_2 1_555 1_555
C23_2 H21_2 1_555 1_555
C24_2 C23_2 1_555 1_555
H22_2 C24_2 1_555 1_555
C25_2 N6_2 1_555 1_555
C26_2 C25_2 1_555 1_555
H23_2 C26_2 1_555 1_555
C27_2 C22_2 1_555 1_555
H24_2 C27_2 1_555 1_555
C28_2 N5_2 1_555 1_555
O8_2 Tb2 1_555 1_555
N8 C29_2 1_555 1_555
C29_2 O8_2 1_555 1_555
C30 C29_2 1_555 1_555
H25_2 C30 1_555 1_555
H26 C30 1_555 1_555
H27_2 C30 1_555 1_555
C31 N8 1_555 1_555
H28 C31 1_555 1_555
H29 C31 1_555 1_555
H30 C31 1_555 1_555
C32 N8 1_555 1_555
H31 C32 1_555 1_555
H32 C32 1_555 1_555
H33 C32 1_555 1_555
O9_2 Tb2 1_555 1_555
C33_2 O9_2 1_555 1_555
Tb3 O4 1_555 1_555
O10_2 Tb2 1_555 1_555
C4 C5_2 1_555 1_555
C6_2 C7_2 1_555 1_555
N4 C20_2 1_555 1_555
C16 C17 1_555 1_555
C18 C19 1_555 1_555
N6_2 C28_2 1_555 1_555
N7_2 C28_2 1_555 1_555
C24_2 C25_2 1_555 1_555
C26_2 C27_2 1_555 1_555
N1_2 H1_2 1_555 1_555
H3_2 C4_2 1_555 1_555
O10_2 C13_2 1_555 1_555
O5_2 C13_2 1_555 1_555
C13_2 C14_2 1_555 1_555
C14_2 C15_2 1_555 1_555
C18_2 C17_2 1_555 1_555
H18_2 C18_2 1_555 1_555
C19_2 C14_2 1_555 1_555
H19_2 C19_2 1_555 1_555
H26_2 C30_2 1_555 1_555
C31_2 N8_2 1_555 1_555
H28_2 C31_2 1_555 1_555
H29_2 C31_2 1_555 1_555
H30_2 C31_2 1_555 1_555
C32_2 N8_2 1_555 1_555
H31_2 C32_2 1_555 1_555
H32_2 C32_2 1_555 1_555
H33_2 C32_2 1_555 1_555
C18_2 C19_2 1_555 1_555
Tb3 O1_3 1_555 1_555
O1_3 C1_3 1_555 1_555
O2_3 C1_3 1_555 1_555
O3_3 Tb3 1_555 1_555
C1_3 C2_3 1_555 1_555
C2_3 C3_3 1_555 1_555
C6_3 C5_3 1_555 1_555
H4_3 C6_3 1_555 1_555
C7_3 C2_3 1_555 1_555
H5_3 C7_3 1_555 1_555
C9_3 O3_3 1_555 1_555
N7_3 C8_3 1_555 1_555
O8_3 Tb3 1_555 1_555
C29_3 O8_3 1_555 1_555
O9_3 Tb3 1_555 1_555
N9_2 C33_3 1_555 1_555
C33_3 O9_3 1_555 1_555
C34_2 C33_3 1_555 1_555
H34_3 C34_2 1_555 1_555
H35_2 C34_2 1_555 1_555
H36_3 C34_2 1_555 1_555
C35_2 N9_2 1_555 1_555
H37_2 C35_2 1_555 1_555
H38_2 C35_2 1_555 1_555
H39_2 C35_2 1_555 1_555
C36_2 N9_2 1_555 1_555
H40_2 C36_2 1_555 1_555
H41_2 C36_2 1_555 1_555
H42_2 C36_2 1_555 1_555
O11_2 Tb3 1_555 1_555
C6_3 C7_3 1_555 1_555
N7_3 C28_3 1_555 1_555
N4_2 H15_3 1_555 1_555
H17_2 C16_2 1_555 1_555
O11_2 C21_3 1_555 1_555
O7_3 C21_3 1_555 1_555
C21_3 C22_3 1_555 1_555
C22_3 C23_3 1_555 1_555
C26_3 C25_3 1_555 1_555
H23_3 C26_3 1_555 1_555
C27_3 C22_3 1_555 1_555
H24_3 C27_3 1_555 1_555
C26_3 C27_3 1_555 1_555
N2_3 C8_4 1_555 1_555
O10 C13_3 1_555 1_555
O5_3 C13_3 1_555 1_555
C13_3 C14_3 1_555 1_555
C14_3 C15_3 1_555 1_555
C18_3 C17_3 1_555 1_555
H18_3 C18_3 1_555 1_555
C19_3 C14_3 1_555 1_555
H19_3 C19_3 1_555 1_555
C20_4 N2_3 1_555 1_555
C18_3 C19_3 1_555 1_555
H3_3 C4_3 1_555 1_555
H26_3 C30_3 1_555 1_555
C31_3 N8_3 1_555 1_555
H28_3 C31_3 1_555 1_555
H29_3 C31_3 1_555 1_555
H30_3 C31_3 1_555 1_555
C32_3 N8_3 1_555 1_555
H31_3 C32_3 1_555 1_555
H32_3 C32_3 1_555 1_555
H33_3 C32_3 1_555 1_555
O4_2 C13_4 1_555 1_555
O5_4 C13_4 1_555 1_555
C13_4 C14_4 1_555 1_555
C14_4 C15_4 1_555 1_555
C15_4 H16_3 1_555 1_555
C16_3 C15_4 1_555 1_555
H17_3 C16_3 1_555 1_555
C17_4 N4_3 1_555 1_555
C18_4 C17_4 1_555 1_555
H18_4 C18_4 1_555 1_555
C19_4 C14_4 1_555 1_555
H19_4 C19_4 1_555 1_555
Tb3_2 O4_2 1_555 1_555
C16_3 C17_4 1_555 1_555
C18_4 C19_4 1_555 1_555
O6_2 C21_4 1_555 1_555
O7_4 C21_4 1_555 1_555
C21_4 C22_4 1_555 1_555
C22_4 C23_4 1_555 1_555
C23_4 H21_3 1_555 1_555
C24_3 C23_4 1_555 1_555
H22_3 C24_3 1_555 1_555
C25_4 N6_3 1_555 1_555
C26_4 C25_4 1_555 1_555
H23_4 C26_4 1_555 1_555
C27_4 C22_4 1_555 1_555
H24_4 C27_4 1_555 1_555
Tb3_2 O6_2 1_555 1_555
C24_3 C25_4 1_555 1_555
C26_4 C27_4 1_555 1_555
Tb3_2 O1_4 1_555 1_555
O1_4 C1_4 1_555 1_555
O2_4 C1_4 1_555 1_555
O3_4 Tb3_2 1_555 1_555
N3_3 C9_4 1_555 1_555
C1_4 C2_4 1_555 1_555
C2_4 C3_4 1_555 1_555
C3_4 H2_4 1_555 1_555
C4_4 C3_4 1_555 1_555
H3_4 C4_4 1_555 1_555
C5_4 N1_4 1_555 1_555
C6_4 C5_4 1_555 1_555
H4_4 C6_4 1_555 1_555
C7_4 C2_4 1_555 1_555
H5_4 C7_4 1_555 1_555
C9_4 O3_4 1_555 1_555
C10_3 C9_4 1_555 1_555
H6_4 C10_3 1_555 1_555
H7_3 C10_3 1_555 1_555
H8_4 C10_3 1_555 1_555
C11_3 N3_3 1_555 1_555
H9_3 C11_3 1_555 1_555
H10_3 C11_3 1_555 1_555
H11_3 C11_3 1_555 1_555
C12_3 N3_3 1_555 1_555
H12_3 C12_3 1_555 1_555
H13_3 C12_3 1_555 1_555
H14_3 C12_3 1_555 1_555
O8_4 Tb3_2 1_555 1_555
N8_4 C29_4 1_555 1_555
C29_4 O8_4 1_555 1_555
C30_4 C29_4 1_555 1_555
H25_4 C30_4 1_555 1_555
H26_4 C30_4 1_555 1_555
H27_4 C30_4 1_555 1_555
C31_4 N8_4 1_555 1_555
H28_4 C31_4 1_555 1_555
H29_4 C31_4 1_555 1_555
H30_4 C31_4 1_555 1_555
C32_4 N8_4 1_555 1_555
H31_4 C32_4 1_555 1_555
H32_4 C32_4 1_555 1_555
H33_4 C32_4 1_555 1_555
O9_4 Tb3_2 1_555 1_555
N9_3 C33_4 1_555 1_555
C33_4 O9_4 1_555 1_555
C34_3 C33_4 1_555 1_555
H34_4 C34_3 1_555 1_555
H35_3 C34_3 1_555 1_555
H36_4 C34_3 1_555 1_555
C35_3 N9_3 1_555 1_555
H37_3 C35_3 1_555 1_555
H38_3 C35_3 1_555 1_555
H39_3 C35_3 1_555 1_555
C36_3 N9_3 1_555 1_555
H40_3 C36_3 1_555 1_555
H41_3 C36_3 1_555 1_555
H42_3 C36_3 1_555 1_555
C4_4 C5_4 1_555 1_555
C6_4 C7_4 1_555 1_555
H35_4 C34_4 1_555 1_555
C35_4 N9_4 1_555 1_555
H37_4 C35_4 1_555 1_555
H38_4 C35_4 1_555 1_555
H39_4 C35_4 1_555 1_555
C36_4 N9_4 1_555 1_555
H40_4 C36_4 1_555 1_555
H41_4 C36_4 1_555 1_555
H42_4 C36_4 1_555 1_555
H17_4 C16_4 1_555 1_555
H7_4 C10_4 1_555 1_555
C11_4 N3_4 1_555 1_555
H9_4 C11_4 1_555 1_555
H10_4 C11_4 1_555 1_555
H11_4 C11_4 1_555 1_555
C12_4 N3_4 1_555 1_555
H12_4 C12_4 1_555 1_555
H13_4 C12_4 1_555 1_555
H14_4 C12_4 1_555 1_555
H22_4 C24_4 1_555 1_555
Tb4 O12 1_555 1_555
O12 C37 1_555 1_555
O13 C37 1_555 1_555
O14 Tb4 1_555 1_555
O15 Tb4 1_555 1_555
C37 C38 1_555 1_555
C38 C39 1_555 1_555
C39 H44 1_555 1_555
C40 C39 1_555 1_555
H45 C40 1_555 1_555
C41 N10 1_555 1_555
C42 C41 1_555 1_555
H46 C42 1_555 1_555
C43 C38 1_555 1_555
H47 C43 1_555 1_555
C45 O15 1_555 1_555
C46 C45 1_555 1_555
H50 C46 1_555 1_555
N15 H62 1_555 1_555
H65 C62 1_555 1_555
H66 C63 1_555 1_555
O20 Tb4 1_555 1_555
N17 C65 1_555 1_555
C65 O20 1_555 1_555
C66 C65 1_555 1_555
H67 C66 1_555 1_555
H68 C66 1_555 1_555
H69 C66 1_555 1_555
C67 N17 1_555 1_555
H70 C67 1_555 1_555
H71 C67 1_555 1_555
H72 C67 1_555 1_555
C68 N17 1_555 1_555
H73 C68 1_555 1_555
H74 C68 1_555 1_555
H75 C68 1_555 1_555
O21 Tb4 1_555 1_555
N18 C69 1_555 1_555
C69 O21 1_555 1_555
C70 C69 1_555 1_555
H76 C70 1_555 1_555
H77 C70 1_555 1_555
H78 C70 1_555 1_555
C71 N18 1_555 1_555
H79 C71 1_555 1_555
H80 C71 1_555 1_555
H81 C71 1_555 1_555
C72 N18 1_555 1_555
H82 C72 1_555 1_555
H83 C72 1_555 1_555
H84 C72 1_555 1_555
O22 Tb4 1_555 1_555
O23 Tb4 1_555 1_555
C40 C41 1_555 1_555
C42 C43 1_555 1_555
C62 C63 1_555 1_555
O16 C49 1_555 1_555
O17 C49 1_555 1_555
N13 H57 1_555 1_555
N14 C44 1_555 1_555
C49 C50 1_555 1_555
C50 C51 1_555 1_555
C51 H58 1_555 1_555
C52 C51 1_555 1_555
H59 C52 1_555 1_555
C53 N13 1_555 1_555
C54 C53 1_555 1_555
H60 C54 1_555 1_555
C55 C50 1_555 1_555
H61 C55 1_555 1_555
C56 N13 1_555 1_555
O18 C57 1_555 1_555
O19 C57 1_555 1_555
N16 C56 1_555 1_555
C57 C58 1_555 1_555
C58 C59 1_555 1_555
C59 H63 1_555 1_555
C60 C59 1_555 1_555
H64 C60 1_555 1_555
Tb5 O16 1_555 1_555
Tb6 O18 1_555 1_555
N14 C56 1_555 1_555
C52 C53 1_555 1_555
C54 C55 1_555 1_555
N16 C64 1_555 1_555
C60 C61 1_555 1_555
N13_2 H57_2 1_555 1_555
H60_2 C54_2 1_555 1_555
H61_2 C55_2 1_555 1_555
O18_2 C57_2 1_555 1_555
O19_2 C57_2 1_555 1_555
C57_2 C58_2 1_555 1_555
C58_2 C59_2 1_555 1_555
C59_2 H63_2 1_555 1_555
C60_2 C59_2 1_555 1_555
H64_2 C60_2 1_555 1_555
C61_2 N15_2 1_555 1_555
C62_2 C61_2 1_555 1_555
H65_2 C62_2 1_555 1_555
C63_2 C58_2 1_555 1_555
H66_2 C63_2 1_555 1_555
Tb5 O18_2 1_555 1_555
C54_2 C55_2 1_555 1_555
C60_2 C61_2 1_555 1_555
C62_2 C63_2 1_555 1_555
Tb4_2 O12_2 1_555 1_555
O12_2 C37_2 1_555 1_555
O13_2 C37_2 1_555 1_555
O14_2 Tb4_2 1_555 1_555
O15_2 Tb4_2 1_555 1_555
N10_2 H43_2 1_555 1_555
N11_2 C44_2 1_555 1_555
N12 C45_2 1_555 1_555
C37_2 C38_2 1_555 1_555
C38_2 C39_2 1_555 1_555
C39_2 H44_2 1_555 1_555
C40_2 C39_2 1_555 1_555
H45_2 C40_2 1_555 1_555
C41_2 N10_2 1_555 1_555
C42_2 C41_2 1_555 1_555
H46_2 C42_2 1_555 1_555
C43_2 C38_2 1_555 1_555
H47_2 C43_2 1_555 1_555
C44_2 N10_2 1_555 1_555
C45_2 O15_2 1_555 1_555
C46_2 C45_2 1_555 1_555
H48 C46_2 1_555 1_555
H49 C46_2 1_555 1_555
H50_2 C46_2 1_555 1_555
C47 N12 1_555 1_555
H51 C47 1_555 1_555
H52 C47 1_555 1_555
H53 C47 1_555 1_555
C48 N12 1_555 1_555
H54_2 C48 1_555 1_555
H55 C48 1_555 1_555
H56 C48 1_555 1_555
O16_2 C49_2 1_555 1_555
O17_2 C49_2 1_555 1_555
N14_2 C44_2 1_555 1_555
C49_2 C50_2 1_555 1_555
C50_2 C51_2 1_555 1_555
C51_2 H58_2 1_555 1_555
C52_2 C51_2 1_555 1_555
H59_2 C52_2 1_555 1_555
C64_2 N11_2 1_555 1_555
O20_2 Tb4_2 1_555 1_555
C65_2 O20_2 1_555 1_555
C66_2 C65_2 1_555 1_555
H69_2 C66_2 1_555 1_555
O21_2 Tb4_2 1_555 1_555
N18_2 C69_2 1_555 1_555
C69_2 O21_2 1_555 1_555
C70_2 C69_2 1_555 1_555
H76_2 C70_2 1_555 1_555
H77_2 C70_2 1_555 1_555
H78_2 C70_2 1_555 1_555
C71_2 N18_2 1_555 1_555
H79_2 C71_2 1_555 1_555
H80_2 C71_2 1_555 1_555
H81_2 C71_2 1_555 1_555
C72_2 N18_2 1_555 1_555
H82_2 C72_2 1_555 1_555
H83_2 C72_2 1_555 1_555
H84_2 C72_2 1_555 1_555
Tb6 O16_2 1_555 1_555
O22_2 Tb4_2 1_555 1_555
O23_2 Tb4_2 1_555 1_555
C40_2 C41_2 1_555 1_555
C42_2 C43_2 1_555 1_555
N14_2 C56_2 1_555 1_555
C52_2 C53_2 1_555 1_555
O23_2 C57_3 1_555 1_555
O19_3 C57_3 1_555 1_555
C57_3 C58_3 1_555 1_555
C58_3 C59_3 1_555 1_555
C59_3 H63_3 1_555 1_555
C60_3 C59_3 1_555 1_555
H64_3 C60_3 1_555 1_555
C60_3 C61_3 1_555 1_555
O22 C49_3 1_555 1_555
O17_3 C49_3 1_555 1_555
C49_3 C50_3 1_555 1_555
C50_3 C51_3 1_555 1_555
C51_3 H58_3 1_555 1_555
C52_3 C51_3 1_555 1_555
H59_3 C52_3 1_555 1_555
C52_3 C53_3 1_555 1_555
Tb5 O12_3 1_555 1_555
O12_3 C37_3 1_555 1_555
O13_3 C37_3 1_555 1_555
O14_3 Tb5 1_555 1_555
O15_3 Tb5 1_555 1_555
N12_2 C45_3 1_555 1_555
C37_3 C38_3 1_555 1_555
C38_3 C39_3 1_555 1_555
C39_3 H44_3 1_555 1_555
C40_3 C39_3 1_555 1_555
H45_3 C40_3 1_555 1_555
C45_3 O15_3 1_555 1_555
C46_3 C45_3 1_555 1_555
H48_2 C46_3 1_555 1_555
H49_2 C46_3 1_555 1_555
H50_3 C46_3 1_555 1_555
C47_2 N12_2 1_555 1_555
H51_2 C47_2 1_555 1_555
H52_2 C47_2 1_555 1_555
H53_2 C47_2 1_555 1_555
C48_2 N12_2 1_555 1_555
H54_3 C48_2 1_555 1_555
H55_2 C48_2 1_555 1_555
H56_2 C48_2 1_555 1_555
O20_3 Tb5 1_555 1_555
N17_2 C65_3 1_555 1_555
C65_3 O20_3 1_555 1_555
C66_3 C65_3 1_555 1_555
H67_2 C66_3 1_555 1_555
H68_2 C66_3 1_555 1_555
H69_3 C66_3 1_555 1_555
C67_2 N17_2 1_555 1_555
H70_2 C67_2 1_555 1_555
H71_2 C67_2 1_555 1_555
H72_2 C67_2 1_555 1_555
C68_2 N17_2 1_555 1_555
H73_3 C68_2 1_555 1_555
H74_2 C68_2 1_555 1_555
H75_2 C68_2 1_555 1_555
O21_3 Tb5 1_555 1_555
C69_3 O21_3 1_555 1_555
C70_3 C69_3 1_555 1_555
H78_3 C70_3 1_555 1_555
C40_3 C41_3 1_555 1_555
C67_3 N17_3 1_555 1_555
H70_3 C67_3 1_555 1_555
H71_3 C67_3 1_555 1_555
H72_3 C67_3 1_555 1_555
C68_3 N17_3 1_555 1_555
H74_3 C68_3 1_555 1_555
H75_3 C68_3 1_555 1_555
N10_3 H43_4 1_555 1_555
H46_3 C42_3 1_555 1_555
H47_3 C43_3 1_555 1_555
O22_2 C49_4 1_555 1_555
O17_4 C49_4 1_555 1_555
C49_4 C50_4 1_555 1_555
C50_4 C51_4 1_555 1_555
C51_4 H58_4 1_555 1_555
C52_4 C51_4 1_555 1_555
H59_4 C52_4 1_555 1_555
C53_4 N13_3 1_555 1_555
C54_3 C53_4 1_555 1_555
H60_3 C54_3 1_555 1_555
C55_3 C50_4 1_555 1_555
H61_3 C55_3 1_555 1_555
C71_3 N18_3 1_555 1_555
H79_3 C71_3 1_555 1_555
H80_3 C71_3 1_555 1_555
H81_3 C71_3 1_555 1_555
C72_3 N18_3 1_555 1_555
H83_3 C72_3 1_555 1_555
H84_3 C72_3 1_555 1_555
C42_3 C43_3 1_555 1_555
C52_4 C53_4 1_555 1_555
C54_3 C55_3 1_555 1_555
C47_3 N12_3 1_555 1_555
H51_3 C47_3 1_555 1_555
H52_3 C47_3 1_555 1_555
H53_3 C47_3 1_555 1_555
C48_3 N12_3 1_555 1_555
H55_3 C48_3 1_555 1_555
H56_3 C48_3 1_555 1_555
Tb6 O12_4 1_555 1_555
O12_4 C37_4 1_555 1_555
O13_4 C37_4 1_555 1_555
O14_4 Tb6 1_555 1_555
O15_4 Tb6 1_555 1_555
N11_4 C44_3 1_555 1_555
C37_4 C38_4 1_555 1_555
C38_4 C39_4 1_555 1_555
C39_4 H44_4 1_555 1_555
C40_4 C39_4 1_555 1_555
H45_4 C40_4 1_555 1_555
C45_4 O15_4 1_555 1_555
C46_4 C45_4 1_555 1_555
H50_4 C46_4 1_555 1_555
O23 C57_4 1_555 1_555
O19_4 C57_4 1_555 1_555
N15_3 H62_4 1_555 1_555
N16_4 C56_3 1_555 1_555
C57_4 C58_4 1_555 1_555
C58_4 C59_4 1_555 1_555
C59_4 H63_4 1_555 1_555
C60_4 C59_4 1_555 1_555
H64_4 C60_4 1_555 1_555
C61_4 N15_3 1_555 1_555
C62_3 C61_4 1_555 1_555
H65_3 C62_3 1_555 1_555
C63_3 C58_4 1_555 1_555
H66_3 C63_3 1_555 1_555
C64_3 N11_4 1_555 1_555
O20_4 Tb6 1_555 1_555
C65_4 O20_4 1_555 1_555
C66_4 C65_4 1_555 1_555
H69_4 C66_4 1_555 1_555
O21_4 Tb6 1_555 1_555
C69_4 O21_4 1_555 1_555
C70_4 C69_4 1_555 1_555
H78_4 C70_4 1_555 1_555
C40_4 C41_4 1_555 1_555
N15_3 C64_3 1_555 1_555
N16_4 C64_3 1_555 1_555
C60_4 C61_4 1_555 1_555
C62_3 C63_3 1_555 1_555
C47_4 N12_4 1_555 1_555
H51_4 C47_4 1_555 1_555
H52_4 C47_4 1_555 1_555
H53_4 C47_4 1_555 1_555
C48_4 N12_4 1_555 1_555
H55_4 C48_4 1_555 1_555
H56_4 C48_4 1_555 1_555
H60_4 C54_4 1_555 1_555
H61_4 C55_4 1_555 1_555
C54_4 C55_4 1_555 1_555
C67_4 N17_4 1_555 1_555
H70_4 C67_4 1_555 1_555
H71_4 C67_4 1_555 1_555
H72_4 C67_4 1_555 1_555
C68_4 N17_4 1_555 1_555
H74_4 C68_4 1_555 1_555
H75_4 C68_4 1_555 1_555
H65_4 C62_4 1_555 1_555
H66_4 C63_4 1_555 1_555
C62_4 C63_4 1_555 1_555
H46_4 C42_4 1_555 1_555
H47_4 C43_4 1_555 1_555
C71_4 N18_4 1_555 1_555
H79_4 C71_4 1_555 1_555
H80_4 C71_4 1_555 1_555
H81_4 C71_4 1_555 1_555
C72_4 N18_4 1_555 1_555
H83_4 C72_4 1_555 1_555
H84_4 C72_4 1_555 1_555
C42_4 C43_4 1_555 1_555

#END
