
###############################################################################
#
# This file contains modified crystal structure data generated from the
# MOF subset of the Cambridge Structural Database (CSD) v543 
# hosted by the Cambridge Crystallographic Data Centre (CCDC).
#
# This work is licensed under the Creative Commons
# Attribution-NonCommercial-ShareAlike 4.0 International License.
# To view a copy of this license, visit
# http://creativecommons.org/licenses/by-nc-sa/4.0/
# or send a letter to
# Creative Commons, PO Box 1866, Mountain View, CA 94042, USA.
#
# CIF created using the CSD Python API on 29 September 2022
# The structure has been converted into the P1 space group
# The structure has a 3D framework
# The original CSD entry SOZSAD is in the cubic crystal system
# The original CSD entry SOZSAD is in a Sohncke space group
# The framework has been calculated to contain at least 10.0% void space
# The void calculation uses a probe of radius 1.32A, grid spacing 0.4
# Generated hydrogen atom positions removed from atoms on special positions
#
###############################################################################

data_SOZSAD
_chemical_formula_moiety         '(C288 H348 Eu8 N72 O76)n'
_symmetry_cell_setting           triclinic
_symmetry_space_group_name_H-M   'P 1'
_symmetry_Int_Tables_number      1
_space_group_name_Hall           'P 1'
loop_
_symmetry_equiv_pos_site_id
_symmetry_equiv_pos_as_xyz
1 x,y,z
_cell_length_a                   20.501(3)
_cell_length_b                   20.501(3)
_cell_length_c                   20.501(3)
_cell_angle_alpha                90
_cell_angle_beta                 90
_cell_angle_gamma                90
_cell_volume                     8616.39
loop_
_atom_site_label
_atom_site_type_symbol
_atom_site_fract_x
_atom_site_fract_y
_atom_site_fract_z
N9 N 0.0869(5) 0.0474(5) 0.3053(6)
C33 C 0.1229(6) 0.0001(6) 0.2938(6)
C34 C 0.1580(6) 0.0035(6) 0.2268(5)
H35 H 0.1757 0.0474 0.2203
C35 C 0.0520(7) 0.0430(7) 0.3724(7)
H37 H 0.0655 0.0029 0.3948
H38 H 0.0047 0.0423 0.3657
H39 H 0.0639 0.0809 0.3990
C36 C 0.0681(7) 0.1020(6) 0.2661(7)
H40 H 0.0607 0.1400 0.2942
H41 H 0.0279 0.0916 0.2425
H42 H 0.1028 0.1119 0.2348
Eu1 Eu 0.154330(19) 0.845670(19) 0.345670(19)
O1 O 0.1334(3) 0.8101(3) 0.2425(3)
O2 O 0.0587(3) 0.8815(3) 0.2117(3)
O3 O 0.1686(3) 0.8662(3) 0.4551(3)
N3 N 0.1947(6) 0.9131(5) 0.5474(5)
C1 C 0.0865(3) 0.8279(4) 0.2073(3)
C2 C 0.0638(3) 0.7806(3) 0.1566(3)
C3 C 0.0139(4) 0.7959(4) 0.1145(4)
C5 C 0.0204(3) 0.6907(3) 0.0628(3)
C6 C 0.0716(3) 0.6751(3) 0.1048(3)
H4 H 0.0919 0.6335 0.1019
C7 C 0.0925(3) 0.7184(3) 0.1495(4)
H5 H 0.1277 0.7067 0.1773
C9 C 0.2062(6) 0.8771(6) 0.5001(6)
C10 C 0.2732(5) 0.8420(6) 0.5035(6)
H6 H 0.2741 0.8063 0.4717
H7 H 0.2797 0.8243 0.5474
H8 H 0.3080 0.8731 0.4935
C11 C 0.1276(7) 0.9480(7) 0.5430(7)
H9 H 0.1052 0.9345 0.5029
H10 H 0.1343 0.9953 0.5423
H11 H 0.1010 0.9361 0.5809
C12 C 0.2339(7) 0.9319(7) 0.6020(6)
H12 H 0.2058 0.9393 0.6400
H13 H 0.2575 0.9721 0.5916
H14 H 0.2652 0.8972 0.6119
N6 N 0.1507(3) 0.4870(3) 0.0037(3)
H20 H 0.1632 0.5041 0.0410
N7 N 0.0745(3) 0.5680(3) 0.0112(3)
H21 H 0.3377 0.3831 0.0059
C24 C 0.2516(4) 0.4311(4) 0.0079(4)
H22 H 0.2632 0.4589 0.0431
O8 O 0.0449(3) 0.8314(3) 0.3662(3)
H25 H 0.0283 0.7259 0.3063
H27 H 0.0065 0.6920 0.3731
O9 O 0.1338(3) 0.9551(3) 0.3314(3)
H34 H 0.1937 0.9717 0.2259
H36 H 0.1269 0.9935 0.1920
O10 O 0.2575(3) 0.8666(3) 0.3101(3)
O11 O 0.1899(3) 0.7425(3) 0.3666(3)
C8 C 0.0223(4) 0.5946(3) 0.9868(4)
H15 H 0.0041 0.4590 0.8368
N5 N 0.0680(3) 0.4888(3) 0.9255(3)
C20 C 0.0132(4) 0.5223(4) 0.9054(3)
O6 O 0.3101(3) 0.2575(3) 0.8666(3)
O7 O 0.3815(3) 0.2883(3) 0.9413(3)
C21 C 0.3279(4) 0.2927(3) 0.9135(3)
C22 C 0.2806(3) 0.3434(3) 0.9362(3)
C23 C 0.2959(4) 0.3855(4) 0.9861(4)
C25 C 0.1907(3) 0.4372(3) 0.9796(3)
C26 C 0.1751(3) 0.3952(3) 0.9284(3)
H23 H 0.1335 0.3981 0.9081
C27 C 0.2184(3) 0.3505(4) 0.9075(3)
H24 H 0.2067 0.3227 0.8723
C28 C 0.0946(3) 0.5132(4) 0.9777(4)
Eu2 Eu 0.345670(19) 0.154330(19) 0.845670(19)
N3_2 N 0.3053(6) 0.0869(5) 0.0474(5)
C9_2 C 0.2938(6) 0.1229(6) 0.0001(6)
C10_2 C 0.2268(5) 0.1580(6) 0.0035(6)
H7_2 H 0.2203 0.1757 0.0474
C11_2 C 0.3724(7) 0.0520(7) 0.0430(7)
H9_2 H 0.3948 0.0655 0.0029
H10_2 H 0.3657 0.0047 0.0423
H11_2 H 0.3990 0.0639 0.0809
C12_2 C 0.2661(7) 0.0681(7) 0.1020(6)
H12_2 H 0.2942 0.0607 0.1400
H13_2 H 0.2425 0.0279 0.0916
H14_2 H 0.2348 0.1028 0.1119
O1_2 O 0.3666(3) 0.1899(3) 0.7425(3)
O2_2 O 0.4413(3) 0.1185(3) 0.7117(3)
O3_2 O 0.3314(3) 0.1338(3) 0.9551(3)
N1 N 0.5037(3) 0.3493(3) 0.5130(3)
H1 H 0.5410 0.3368 0.4959
N2 N 0.5112(3) 0.4255(3) 0.4320(3)
C1_2 C 0.4135(3) 0.1721(4) 0.7073(3)
C2_2 C 0.4362(3) 0.2194(3) 0.6566(3)
C3_2 C 0.4861(4) 0.2041(4) 0.6145(4)
H2 H 0.5059 0.1623 0.6169
C4 C 0.5079(4) 0.2484(4) 0.5689(4)
H3 H 0.5431 0.2368 0.5411
C5_2 C 0.4796(3) 0.3093(3) 0.5628(3)
C6_2 C 0.4284(3) 0.3249(3) 0.6048(3)
H4_2 H 0.4081 0.3665 0.6019
C7_2 C 0.4075(3) 0.2816(3) 0.6495(4)
H5_2 H 0.3723 0.2933 0.6773
C8_2 C 0.4777(4) 0.4054(3) 0.4868(4)
H6_2 H 0.2259 0.1937 0.9717
H8_2 H 0.1920 0.1269 0.9935
O4 O 0.7425(3) 0.3666(3) 0.1899(3)
O5 O 0.7117(3) 0.4413(3) 0.1185(3)
N4 N 0.5130(3) 0.5037(3) 0.3493(3)
H15_2 H 0.4959 0.5410 0.3368
N5_2 N 0.4320(3) 0.5112(3) 0.4255(3)
C13 C 0.7073(3) 0.4135(3) 0.1721(4)
C14 C 0.6566(3) 0.4362(3) 0.2194(3)
C15 C 0.6145(4) 0.4861(4) 0.2041(4)
H16 H 0.6169 0.5059 0.1623
C16 C 0.5689(4) 0.5079(4) 0.2484(4)
H17 H 0.5411 0.5431 0.2368
C17 C 0.5628(3) 0.4796(3) 0.3093(3)
C18 C 0.6048(3) 0.4284(3) 0.3249(3)
H18 H 0.6019 0.4081 0.3665
C19 C 0.6495(4) 0.4075(3) 0.2816(3)
H19 H 0.6773 0.3723 0.2933
C20_2 C 0.4868(4) 0.4777(4) 0.4054(3)
O7_2 O 0.1185(3) 0.7117(3) 0.4413(3)
N6_2 N 0.3493(3) 0.5130(3) 0.5037(3)
H20_2 H 0.3368 0.4959 0.5410
N7_2 N 0.4255(3) 0.4320(3) 0.5112(3)
C21_2 C 0.1721(4) 0.7073(3) 0.4135(3)
C22_2 C 0.2194(3) 0.6566(3) 0.4362(3)
C23_2 C 0.2041(4) 0.6145(4) 0.4861(4)
H21_2 H 0.1623 0.6169 0.5059
C24_2 C 0.2484(4) 0.5689(4) 0.5079(4)
H22_2 H 0.2368 0.5411 0.5431
C25_2 C 0.3093(3) 0.5628(3) 0.4796(3)
C26_2 C 0.3249(3) 0.6048(3) 0.4284(3)
H23_2 H 0.3665 0.6019 0.4081
C27_2 C 0.2816(3) 0.6495(4) 0.4075(3)
H24_2 H 0.2933 0.6773 0.3723
C28_2 C 0.4054(3) 0.4868(4) 0.4777(4)
O8_2 O 0.4551(3) 0.1686(3) 0.8662(3)
N8 N 0.5474(5) 0.1947(6) 0.9131(5)
C29 C 0.5001(6) 0.2062(6) 0.8771(6)
C30 C 0.5035(6) 0.2732(5) 0.8420(6)
H25_2 H 0.4717 0.2741 0.8063
H26 H 0.5474 0.2797 0.8243
H27_2 H 0.4935 0.3080 0.8731
C31 C 0.5430(7) 0.1276(7) 0.9480(7)
H28 H 0.5029 0.1052 0.9345
H29 H 0.5423 0.1343 0.9953
H30 H 0.5809 0.1010 0.9361
C32 C 0.6020(6) 0.2339(7) 0.9319(7)
H31 H 0.6400 0.2058 0.9393
H32 H 0.5916 0.2575 0.9721
H33 H 0.6119 0.2652 0.8972
O9_2 O 0.3662(3) 0.0449(3) 0.8314(3)
H34_2 H 0.3063 0.0283 0.7259
H36_2 H 0.3731 0.0065 0.6920
Eu3 Eu 0.845670(19) 0.345670(19) 0.154330(19)
O10_2 O 0.2425(3) 0.1334(3) 0.8101(3)
N1_2 N 0.0037(3) 0.1507(3) 0.4870(3)
H1_2 H 0.0410 0.1632 0.5041
N2_2 N 0.0112(3) 0.0745(3) 0.5680(3)
H2_2 H 0.0059 0.3377 0.3831
C4_2 C 0.0079(4) 0.2516(4) 0.4311(4)
H3_2 H 0.0431 0.2632 0.4589
O5_2 O 0.2117(3) 0.0587(3) 0.8815(3)
C13_2 C 0.2073(3) 0.0865(3) 0.8279(4)
C14_2 C 0.1566(3) 0.0638(3) 0.7806(3)
C15_2 C 0.1145(4) 0.0139(4) 0.7959(4)
C17_2 C 0.0628(3) 0.0204(3) 0.6907(3)
C18_2 C 0.1048(3) 0.0716(3) 0.6751(3)
H18_2 H 0.1019 0.0919 0.6335
C19_2 C 0.1495(4) 0.0925(3) 0.7184(3)
H19_2 H 0.1773 0.1277 0.7067
N8_2 N 0.0474(5) 0.3053(6) 0.0869(5)
C29_2 C 0.0001(6) 0.2938(6) 0.1229(6)
C30_2 C 0.0035(6) 0.2268(5) 0.1580(6)
H26_2 H 0.0474 0.2203 0.1757
C31_2 C 0.0430(7) 0.3724(7) 0.0520(7)
H28_2 H 0.0029 0.3948 0.0655
H29_2 H 0.0423 0.3657 0.0047
H30_2 H 0.0809 0.3990 0.0639
C32_2 C 0.1020(6) 0.2661(7) 0.0681(7)
H31_2 H 0.1400 0.2942 0.0607
H32_2 H 0.0916 0.2425 0.0279
H33_2 H 0.1119 0.2348 0.1028
O1_3 O 0.8666(3) 0.3101(3) 0.2575(3)
O2_3 O 0.9413(3) 0.3815(3) 0.2883(3)
O3_3 O 0.8314(3) 0.3662(3) 0.0449(3)
C1_3 C 0.9135(3) 0.3279(4) 0.2927(3)
C2_3 C 0.9362(3) 0.2806(3) 0.3434(3)
C3_3 C 0.9861(4) 0.2959(4) 0.3855(4)
C5_3 C 0.9796(3) 0.1907(3) 0.4372(3)
C6_3 C 0.9284(3) 0.1751(3) 0.3952(3)
H4_3 H 0.9081 0.1335 0.3981
C7_3 C 0.9075(3) 0.2184(3) 0.3505(4)
H5_3 H 0.8723 0.2067 0.3227
C8_3 C 0.9777(4) 0.0946(3) 0.5132(4)
H6_3 H 0.7259 0.3063 0.0283
H8_3 H 0.6920 0.3731 0.0065
C20_3 C 0.9868(4) 0.0223(4) 0.5946(3)
H20_3 H 0.8368 0.0041 0.4590
N7_3 N 0.9255(3) 0.0680(3) 0.4888(3)
C28_3 C 0.9054(3) 0.0132(4) 0.5223(4)
O8_3 O 0.9551(3) 0.3314(3) 0.1338(3)
H25_3 H 0.9717 0.2259 0.1937
H27_3 H 0.9935 0.1920 0.1269
O9_3 O 0.8662(3) 0.4551(3) 0.1686(3)
N9_2 N 0.9131(5) 0.5474(5) 0.1947(6)
C33_2 C 0.8771(6) 0.5001(6) 0.2062(6)
C34_2 C 0.8420(6) 0.5035(6) 0.2732(5)
H34_3 H 0.8063 0.4717 0.2741
H35_2 H 0.8243 0.5474 0.2797
H36_3 H 0.8731 0.4935 0.3080
C35_2 C 0.9480(7) 0.5430(7) 0.1276(7)
H37_2 H 0.9345 0.5029 0.1052
H38_2 H 0.9953 0.5423 0.1343
H39_2 H 0.9361 0.5809 0.1010
C36_2 C 0.9319(7) 0.6020(6) 0.2339(7)
H40_2 H 0.9393 0.6400 0.2058
H41_2 H 0.9721 0.5916 0.2575
H42_2 H 0.8972 0.6119 0.2652
O11_2 O 0.8101(3) 0.2425(3) 0.1334(3)
N4_2 N 0.4870(3) 0.0037(3) 0.1507(3)
H15_3 H 0.5041 0.0410 0.1632
N5_3 N 0.5680(3) 0.0112(3) 0.0745(3)
H16_2 H 0.3831 0.0059 0.3377
C16_2 C 0.4311(4) 0.0079(4) 0.2516(4)
H17_2 H 0.4589 0.0431 0.2632
O7_3 O 0.8815(3) 0.2117(3) 0.0587(3)
C21_3 C 0.8279(4) 0.2073(3) 0.0865(3)
C22_3 C 0.7806(3) 0.1566(3) 0.0638(3)
C23_3 C 0.7959(4) 0.1145(4) 0.0139(4)
C25_3 C 0.6907(3) 0.0628(3) 0.0204(3)
C26_3 C 0.6751(3) 0.1048(3) 0.0716(3)
H23_3 H 0.6335 0.1019 0.0919
C27_3 C 0.7184(3) 0.1495(4) 0.0925(3)
H24_3 H 0.7067 0.1773 0.1277
H1_3 H 0.4590 0.8368 0.0041
N2_3 N 0.4888(3) 0.9255(3) 0.0680(3)
C8_4 C 0.5223(4) 0.9054(3) 0.0132(4)
O5_3 O 0.2883(3) 0.9413(3) 0.3815(3)
C13_3 C 0.2927(3) 0.9135(3) 0.3279(4)
C14_3 C 0.3434(3) 0.9362(3) 0.2806(3)
C15_3 C 0.3855(4) 0.9861(4) 0.2959(4)
C17_3 C 0.4372(3) 0.9796(3) 0.1907(3)
C18_3 C 0.3952(3) 0.9284(3) 0.1751(3)
H18_3 H 0.3981 0.9081 0.1335
C19_3 C 0.3505(4) 0.9075(3) 0.2184(3)
H19_3 H 0.3227 0.8723 0.2067
C20_4 C 0.5132(4) 0.9777(4) 0.0946(3)
C28_4 C 0.5946(3) 0.9868(4) 0.0223(4)
N1_3 N 0.9963(3) 0.6507(3) 0.0130(3)
H2_3 H 0.9941 0.8377 0.1169
C4_3 C 0.9921(4) 0.7516(4) 0.0689(4)
H3_3 H 0.9569 0.7632 0.0411
N8_3 N 0.9526(5) 0.8053(6) 0.4131(5)
C29_3 C 0.9999(6) 0.7938(6) 0.3771(6)
C30_3 C 0.9965(6) 0.7268(5) 0.3420(6)
H26_3 H 0.9526 0.7203 0.3243
C31_3 C 0.9570(7) 0.8724(7) 0.4480(7)
H28_3 H 0.9971 0.8948 0.4345
H29_3 H 0.9577 0.8657 0.4953
H30_3 H 0.9191 0.8990 0.4361
C32_3 C 0.8980(6) 0.7661(7) 0.4319(7)
H31_3 H 0.8600 0.7942 0.4393
H32_3 H 0.9084 0.7425 0.4721
H33_3 H 0.8881 0.7348 0.3972
H1_4 H 0.9590 0.6632 0.9959
N2_4 N 0.9888(3) 0.5745(3) 0.9320(3)
O4_2 O 0.7575(3) 0.6334(3) 0.6899(3)
O5_4 O 0.7883(3) 0.5587(3) 0.6185(3)
N4_3 N 0.9870(3) 0.4963(3) 0.8493(3)
C13_4 C 0.7927(3) 0.5865(3) 0.6721(4)
C14_4 C 0.8434(3) 0.5638(3) 0.7194(3)
C15_4 C 0.8855(4) 0.5139(4) 0.7041(4)
H16_3 H 0.8831 0.4941 0.6623
C16_3 C 0.9311(4) 0.4921(4) 0.7484(4)
H17_3 H 0.9589 0.4569 0.7368
C17_4 C 0.9372(3) 0.5204(3) 0.8093(3)
C18_4 C 0.8952(3) 0.5716(3) 0.8249(3)
H18_4 H 0.8981 0.5919 0.8665
C19_4 C 0.8505(4) 0.5925(3) 0.7816(3)
H19_4 H 0.8227 0.6277 0.7933
Eu3_2 Eu 0.654330(19) 0.654330(19) 0.654330(19)
H15_4 H 0.9959 0.9590 0.6632
N5_4 N 0.9320(3) 0.9888(3) 0.5745(3)
O6_2 O 0.6899(3) 0.7575(3) 0.6334(3)
O7_4 O 0.6185(3) 0.7883(3) 0.5587(3)
N6_3 N 0.8493(3) 0.9870(3) 0.4963(3)
C21_4 C 0.6721(4) 0.7927(3) 0.5865(3)
C22_4 C 0.7194(3) 0.8434(3) 0.5638(3)
C23_4 C 0.7041(4) 0.8855(4) 0.5139(4)
H21_3 H 0.6623 0.8831 0.4941
C24_3 C 0.7484(4) 0.9311(4) 0.4921(4)
H22_3 H 0.7368 0.9589 0.4569
C25_4 C 0.8093(3) 0.9372(3) 0.5204(3)
C26_4 C 0.8249(3) 0.8952(3) 0.5716(3)
H23_4 H 0.8665 0.8981 0.5919
C27_4 C 0.7816(3) 0.8505(4) 0.5925(3)
H24_4 H 0.7933 0.8227 0.6277
O1_4 O 0.6334(3) 0.6899(3) 0.7575(3)
O2_4 O 0.5587(3) 0.6185(3) 0.7883(3)
O3_4 O 0.6686(3) 0.6338(3) 0.5449(3)
N1_4 N 0.4963(3) 0.8493(3) 0.9870(3)
N3_3 N 0.6947(6) 0.5869(5) 0.4526(5)
C1_4 C 0.5865(3) 0.6721(4) 0.7927(3)
C2_4 C 0.5638(3) 0.7194(3) 0.8434(3)
C3_4 C 0.5139(4) 0.7041(4) 0.8855(4)
H2_4 H 0.4941 0.6623 0.8831
C4_4 C 0.4921(4) 0.7484(4) 0.9311(4)
H3_4 H 0.4569 0.7368 0.9589
C5_4 C 0.5204(3) 0.8093(3) 0.9372(3)
C6_4 C 0.5716(3) 0.8249(3) 0.8952(3)
H4_4 H 0.5919 0.8665 0.8981
C7_4 C 0.5925(3) 0.7816(3) 0.8505(4)
H5_4 H 0.6277 0.7933 0.8227
C9_3 C 0.7062(6) 0.6229(6) 0.4999(6)
C10_3 C 0.7732(5) 0.6580(6) 0.4965(6)
H6_4 H 0.7741 0.6937 0.5283
H7_3 H 0.7797 0.6757 0.4526
H8_4 H 0.8080 0.6269 0.5065
C11_3 C 0.6276(7) 0.5520(7) 0.4570(7)
H9_3 H 0.6052 0.5655 0.4971
H10_3 H 0.6343 0.5047 0.4577
H11_3 H 0.6010 0.5639 0.4191
C12_3 C 0.7339(7) 0.5681(7) 0.3980(6)
H12_3 H 0.7058 0.5607 0.3600
H13_3 H 0.7575 0.5279 0.4084
H14_3 H 0.7652 0.6028 0.3881
H20_4 H 0.6632 0.9959 0.9590
N7_4 N 0.5745(3) 0.9320(3) 0.9888(3)
O8_4 O 0.5449(3) 0.6686(3) 0.6338(3)
N8_4 N 0.4526(5) 0.6947(6) 0.5869(5)
C29_4 C 0.4999(6) 0.7062(6) 0.6229(6)
C30_4 C 0.4965(6) 0.7732(5) 0.6580(6)
H25_4 H 0.5283 0.7741 0.6937
H26_4 H 0.4526 0.7797 0.6757
H27_4 H 0.5065 0.8080 0.6269
C31_4 C 0.4570(7) 0.6276(7) 0.5520(7)
H28_4 H 0.4971 0.6052 0.5655
H29_4 H 0.4577 0.6343 0.5047
H30_4 H 0.4191 0.6010 0.5639
C32_4 C 0.3980(6) 0.7339(7) 0.5681(7)
H31_4 H 0.3600 0.7058 0.5607
H32_4 H 0.4084 0.7575 0.5279
H33_4 H 0.3881 0.7652 0.6028
O9_4 O 0.6338(3) 0.5449(3) 0.6686(3)
N9_3 N 0.5869(5) 0.4526(5) 0.6947(6)
C33_3 C 0.6229(6) 0.4999(6) 0.7062(6)
C34_3 C 0.6580(6) 0.4965(6) 0.7732(5)
H34_4 H 0.6937 0.5283 0.7741
H35_3 H 0.6757 0.4526 0.7797
H36_4 H 0.6269 0.5065 0.8080
C35_3 C 0.5520(7) 0.4570(7) 0.6276(7)
H37_3 H 0.5655 0.4971 0.6052
H38_3 H 0.5047 0.4577 0.6343
H39_3 H 0.5639 0.4191 0.6010
C36_3 C 0.5681(7) 0.3980(6) 0.7339(7)
H40_3 H 0.5607 0.3600 0.7058
H41_3 H 0.5279 0.4084 0.7575
H42_3 H 0.6028 0.3881 0.7652
N9_4 N 0.4131(5) 0.9526(5) 0.8053(6)
C33_4 C 0.3771(6) 0.9999(6) 0.7938(6)
C34_4 C 0.3420(6) 0.9965(6) 0.7268(5)
H35_4 H 0.3243 0.9526 0.7203
C35_4 C 0.4480(7) 0.9570(7) 0.8724(7)
H37_4 H 0.4345 0.9971 0.8948
H38_4 H 0.4953 0.9577 0.8657
H39_4 H 0.4361 0.9191 0.8990
C36_4 C 0.4319(7) 0.8980(6) 0.7661(7)
H40_4 H 0.4393 0.8600 0.7942
H41_4 H 0.4721 0.9084 0.7425
H42_4 H 0.3972 0.8881 0.7348
N4_4 N 0.0130(3) 0.9963(3) 0.6507(3)
H16_4 H 0.1169 0.9941 0.8377
C16_4 C 0.0689(4) 0.9921(4) 0.7516(4)
H17_4 H 0.0411 0.9569 0.7632
N3_4 N 0.8053(6) 0.4131(5) 0.9526(5)
C9_4 C 0.7938(6) 0.3771(6) 0.9999(6)
C10_4 C 0.7268(5) 0.3420(6) 0.9965(6)
H7_4 H 0.7203 0.3243 0.9526
C11_4 C 0.8724(7) 0.4480(7) 0.9570(7)
H9_4 H 0.8948 0.4345 0.9971
H10_4 H 0.8657 0.4953 0.9577
H11_4 H 0.8990 0.4361 0.9191
C12_4 C 0.7661(7) 0.4319(7) 0.8980(6)
H12_4 H 0.7942 0.4393 0.8600
H13_4 H 0.7425 0.4721 0.9084
H14_4 H 0.7348 0.3972 0.8881
N6_4 N 0.6507(3) 0.0130(3) 0.9963(3)
H21_4 H 0.8377 0.1169 0.9941
C24_4 C 0.7516(4) 0.0689(4) 0.9921(4)
H22_4 H 0.7632 0.0411 0.9569
Eu4 Eu 0.333901(15) 0.666099(15) 0.166099(15)
O12 O 0.2353(2) 0.6178(3) 0.1804(3)
O13 O 0.2086(3) 0.5342(3) 0.1160(2)
O14 O 0.2629(2) 0.7371(2) 0.2371(2)
O15 O 0.3248(3) 0.6333(3) 0.0553(2)
N10 N 0.0081(3) 0.4901(3) 0.3513(3)
N11 N 0.0117(3) 0.5716(3) 0.4294(3)
C37 C 0.2017(3) 0.5665(3) 0.1666(3)
C38 C 0.1525(3) 0.5475(3) 0.2163(3)
C39 C 0.1481(3) 0.5797(3) 0.2748(3)
H45 H 0.1775 0.6143 0.2842
C40 C 0.1005(3) 0.5621(3) 0.3211(3)
H46 H 0.0973 0.5852 0.3612
C41 C 0.0585(3) 0.5110(3) 0.3079(3)
C42 C 0.0644(4) 0.4789(4) 0.2487(4)
H47 H 0.0356 0.4438 0.2391
C43 C 0.1095(4) 0.4961(4) 0.2045(4)
H48 H 0.1122 0.4728 0.1645
C45 C 0.2894(5) 0.6266(4) 0.0086(4)
C46 C 0.2245(4) 0.6591(5) 0.0038(5)
H51 H 0.2110 0.6742 0.0471
H55 H 0.3846 0.5510 0.0084
N15 N 0.0099(3) 0.6487(3) 0.5081(3)
H64 H 0.0473 0.6593 0.4898
C62 C 0.0211(4) 0.7513(4) 0.5644(4)
H67 H 0.0562 0.7609 0.5356
C63 C 0.0039(4) 0.7955(4) 0.6095(4)
H68 H 0.0272 0.8355 0.6122
O20 O 0.4447(2) 0.6752(3) 0.1333(3)
N17 N 0.5414(3) 0.6929(4) 0.0889(4)
C65 C 0.4914(4) 0.7106(5) 0.1266(4)
C66 C 0.4962(5) 0.7755(4) 0.1591(5)
H69 H 0.5129 0.8077 0.1280
H70 H 0.5259 0.7725 0.1965
H71 H 0.4529 0.7890 0.1742
C67 C 0.5979(5) 0.7326(6) 0.0747(6)
H72 H 0.6345 0.7186 0.1021
H73 H 0.5879 0.7784 0.0838
H74 H 0.6097 0.7277 0.0287
C68 C 0.5374(6) 0.6264(5) 0.0593(6)
H75 H 0.4916 0.6154 0.0510
H76 H 0.5563 0.5944 0.0893
H77 H 0.5616 0.6258 0.0181
O21 O 0.3667(3) 0.5553(2) 0.1752(3)
N18 N 0.4111(4) 0.4586(3) 0.1929(4)
C69 C 0.3734(4) 0.5086(4) 0.2106(5)
C70 C 0.3409(5) 0.5038(5) 0.2755(4)
H78 H 0.3720 0.4871 0.3077
H79 H 0.3035 0.4741 0.2725
H80 H 0.3258 0.5471 0.2890
C71 C 0.4253(6) 0.4021(5) 0.2326(6)
H81 H 0.3979 0.3655 0.2186
H82 H 0.4162 0.4121 0.2784
H83 H 0.4713 0.3903 0.2277
C72 C 0.4407(6) 0.4626(6) 0.1264(5)
H84 H 0.4490 0.5084 0.1154
H85 H 0.4107 0.4437 0.0944
H86 H 0.4819 0.4384 0.1258
O22 O 0.3196(3) 0.7647(2) 0.1178(3)
O23 O 0.3822(3) 0.6804(3) 0.2647(2)
H44 H 0.9898 0.4527 0.3407
C44 C 0.9840(3) 0.5177(3) 0.4048(3)
O16 O 0.6804(3) 0.2647(2) 0.3822(3)
O17 O 0.6160(2) 0.2914(3) 0.4658(3)
N13 N 0.8513(3) 0.4919(3) 0.5099(3)
H59 H 0.8407 0.5102 0.5473
N14 N 0.9294(3) 0.4883(3) 0.4284(3)
C49 C 0.6666(3) 0.2983(3) 0.4335(3)
C50 C 0.7163(3) 0.3475(3) 0.4525(3)
C51 C 0.7748(3) 0.3519(3) 0.4203(3)
H60 H 0.7842 0.3225 0.3857
C52 C 0.8211(3) 0.3995(3) 0.4379(3)
H61 H 0.8612 0.4027 0.4148
C53 C 0.8079(3) 0.4415(3) 0.4890(3)
C54 C 0.7487(4) 0.4356(4) 0.5211(4)
H62 H 0.7391 0.4644 0.5562
C55 C 0.7045(4) 0.3905(4) 0.5039(4)
H63 H 0.6645 0.3878 0.5272
C56 C 0.9048(3) 0.5160(3) 0.4823(3)
O18 O 0.8822(3) 0.8196(3) 0.7353(2)
O19 O 0.9658(3) 0.8840(2) 0.7086(3)
N16 N 0.9284(3) 0.5706(3) 0.5117(3)
C57 C 0.9335(3) 0.8334(3) 0.7017(3)
C58 C 0.9525(3) 0.7837(3) 0.6525(3)
C59 C 0.9203(3) 0.7252(3) 0.6481(3)
H65 H 0.8857 0.7158 0.6775
C60 C 0.9379(3) 0.6789(3) 0.6005(3)
H66 H 0.9148 0.6388 0.5973
C61 C 0.9890(3) 0.6921(3) 0.5585(3)
C64 C 0.9823(3) 0.5952(3) 0.4840(3)
Eu5 Eu 0.666099(15) 0.166099(15) 0.333901(15)
Eu6 Eu 0.833901(15) 0.833901(15) 0.833901(15)
N13_2 N 0.6487(3) 0.5081(3) 0.0099(3)
H59_2 H 0.6593 0.4898 0.0473
C54_2 C 0.7513(4) 0.5644(4) 0.0211(4)
H62_2 H 0.7609 0.5356 0.0562
C55_2 C 0.7955(4) 0.6095(4) 0.0039(4)
H63_2 H 0.8355 0.6122 0.0272
O18_2 O 0.6178(3) 0.1804(3) 0.2353(2)
O19_2 O 0.5342(3) 0.1160(2) 0.2086(3)
N15_2 N 0.4901(3) 0.3513(3) 0.0081(3)
N16_2 N 0.5716(3) 0.4294(3) 0.0117(3)
C57_2 C 0.5665(3) 0.1666(3) 0.2017(3)
C58_2 C 0.5475(3) 0.2163(3) 0.1525(3)
C59_2 C 0.5797(3) 0.2748(3) 0.1481(3)
H65_2 H 0.6143 0.2842 0.1775
C60_2 C 0.5621(3) 0.3211(3) 0.1005(3)
H66_2 H 0.5852 0.3612 0.0973
C61_2 C 0.5110(3) 0.3079(3) 0.0585(3)
C62_2 C 0.4789(4) 0.2487(4) 0.0644(4)
H67_2 H 0.4438 0.2391 0.0356
C63_2 C 0.4961(4) 0.2045(4) 0.1095(4)
H68_2 H 0.4728 0.1645 0.1122
Eu4_2 Eu 0.166099(15) 0.333901(15) 0.666099(15)
O12_2 O 0.2647(2) 0.3822(3) 0.6804(3)
O13_2 O 0.2914(3) 0.4658(3) 0.6160(2)
O14_2 O 0.2371(2) 0.2629(2) 0.7371(2)
O15_2 O 0.1752(3) 0.3667(3) 0.5553(2)
N10_2 N 0.4919(3) 0.5099(3) 0.8513(3)
H44_2 H 0.5102 0.5473 0.8407
N11_2 N 0.4883(3) 0.4284(3) 0.9294(3)
N12 N 0.1929(4) 0.4111(4) 0.4586(3)
C37_2 C 0.2983(3) 0.4335(3) 0.6666(3)
C38_2 C 0.3475(3) 0.4525(3) 0.7163(3)
C39_2 C 0.3519(3) 0.4203(3) 0.7748(3)
H45_2 H 0.3225 0.3857 0.7842
C40_2 C 0.3995(3) 0.4379(3) 0.8211(3)
H46_2 H 0.4027 0.4148 0.8612
C41_2 C 0.4415(3) 0.4890(3) 0.8079(3)
C42_2 C 0.4356(4) 0.5211(4) 0.7487(4)
H47_2 H 0.4644 0.5562 0.7391
C43_2 C 0.3905(4) 0.5039(4) 0.7045(4)
H48_2 H 0.3878 0.5272 0.6645
C44_2 C 0.5160(3) 0.4823(3) 0.9048(3)
C45_2 C 0.2106(5) 0.3734(4) 0.5086(4)
C46_2 C 0.2755(4) 0.3409(5) 0.5038(5)
H49 H 0.3077 0.3720 0.4871
H50 H 0.2725 0.3035 0.4741
H51_2 H 0.2890 0.3258 0.5471
C47 C 0.2326(6) 0.4253(6) 0.4021(5)
H52 H 0.2186 0.3979 0.3655
H53 H 0.2784 0.4162 0.4121
H54 H 0.2277 0.4713 0.3903
C48 C 0.1264(5) 0.4407(6) 0.4626(6)
H55_2 H 0.1154 0.4490 0.5084
H56 H 0.0944 0.4107 0.4437
H57 H 0.1258 0.4819 0.4384
O16_2 O 0.8196(3) 0.7353(2) 0.8822(3)
O17_2 O 0.8840(2) 0.7086(3) 0.9658(3)
N14_2 N 0.5706(3) 0.5117(3) 0.9284(3)
C49_2 C 0.8334(3) 0.7017(3) 0.9335(3)
C50_2 C 0.7837(3) 0.6525(3) 0.9525(3)
C51_2 C 0.7252(3) 0.6481(3) 0.9203(3)
H60_2 H 0.7158 0.6775 0.8857
C52_2 C 0.6789(3) 0.6005(3) 0.9379(3)
H61_2 H 0.6388 0.5973 0.9148
C53_2 C 0.6921(3) 0.5585(3) 0.9890(3)
C56_2 C 0.5952(3) 0.4840(3) 0.9823(3)
H64_2 H 0.4527 0.3407 0.9898
C64_2 C 0.5177(3) 0.4048(3) 0.9840(3)
O20_2 O 0.0553(2) 0.3248(3) 0.6333(3)
C65_2 C 0.0086(4) 0.2894(5) 0.6266(4)
C66_2 C 0.0038(5) 0.2245(4) 0.6591(5)
H71_2 H 0.0471 0.2110 0.6742
H75_2 H 0.0084 0.3846 0.5510
O21_2 O 0.1333(3) 0.4447(2) 0.6752(3)
N18_2 N 0.0889(4) 0.5414(3) 0.6929(4)
C69_2 C 0.1266(4) 0.4914(4) 0.7106(5)
C70_2 C 0.1591(5) 0.4962(5) 0.7755(4)
H78_2 H 0.1280 0.5129 0.8077
H79_2 H 0.1965 0.5259 0.7725
H80_2 H 0.1742 0.4529 0.7890
C71_2 C 0.0747(6) 0.5979(5) 0.7326(6)
H81_2 H 0.1021 0.6345 0.7186
H82_2 H 0.0838 0.5879 0.7784
H83_2 H 0.0287 0.6097 0.7277
C72_2 C 0.0593(6) 0.5374(6) 0.6264(5)
H84_2 H 0.0510 0.4916 0.6154
H85_2 H 0.0893 0.5563 0.5944
H86_2 H 0.0181 0.5616 0.6258
O22_2 O 0.1804(3) 0.2353(2) 0.6178(3)
O23_2 O 0.1178(3) 0.3196(3) 0.7647(2)
H59_3 H 0.1593 0.0102 0.9527
O19_3 O 0.0342(3) 0.3840(2) 0.7914(3)
N16_3 N 0.0716(3) 0.0706(3) 0.9883(3)
C57_3 C 0.0665(3) 0.3334(3) 0.7983(3)
C58_3 C 0.0475(3) 0.2837(3) 0.8475(3)
C59_3 C 0.0797(3) 0.2252(3) 0.8519(3)
H65_3 H 0.1143 0.2158 0.8225
C60_3 C 0.0621(3) 0.1789(3) 0.8995(3)
H66_3 H 0.0852 0.1388 0.9027
C61_3 C 0.0110(3) 0.1921(3) 0.9415(3)
H44_3 H 0.0102 0.9527 0.1593
O17_3 O 0.3840(2) 0.7914(3) 0.0342(3)
N14_3 N 0.0706(3) 0.9883(3) 0.0716(3)
C49_3 C 0.3334(3) 0.7983(3) 0.0665(3)
C50_3 C 0.2837(3) 0.8475(3) 0.0475(3)
C51_3 C 0.2252(3) 0.8519(3) 0.0797(3)
H60_3 H 0.2158 0.8225 0.1143
C52_3 C 0.1789(3) 0.8995(3) 0.0621(3)
H61_3 H 0.1388 0.9027 0.0852
C53_3 C 0.1921(3) 0.9415(3) 0.0110(3)
O12_3 O 0.7647(2) 0.1178(3) 0.3196(3)
O13_3 O 0.7914(3) 0.0342(3) 0.3840(2)
O14_3 O 0.7371(2) 0.2371(2) 0.2629(2)
O15_3 O 0.6752(3) 0.1333(3) 0.4447(2)
N11_3 N 0.9883(3) 0.0716(3) 0.0706(3)
N12_2 N 0.6929(4) 0.0889(4) 0.5414(3)
C37_3 C 0.7983(3) 0.0665(3) 0.3334(3)
C38_3 C 0.8475(3) 0.0475(3) 0.2837(3)
C39_3 C 0.8519(3) 0.0797(3) 0.2252(3)
H45_3 H 0.8225 0.1143 0.2158
C40_3 C 0.8995(3) 0.0621(3) 0.1789(3)
H46_3 H 0.9027 0.0852 0.1388
C41_3 C 0.9415(3) 0.0110(3) 0.1921(3)
C45_3 C 0.7106(5) 0.1266(4) 0.4914(4)
C46_3 C 0.7755(4) 0.1591(5) 0.4962(5)
H49_2 H 0.8077 0.1280 0.5129
H50_2 H 0.7725 0.1965 0.5259
H51_3 H 0.7890 0.1742 0.4529
C47_2 C 0.7326(6) 0.0747(6) 0.5979(5)
H52_2 H 0.7186 0.1021 0.6345
H53_2 H 0.7784 0.0838 0.5879
H54_2 H 0.7277 0.0287 0.6097
C48_2 C 0.6264(5) 0.0593(6) 0.5374(6)
H55_3 H 0.6154 0.0510 0.4916
H56_2 H 0.5944 0.0893 0.5563
H57_2 H 0.6258 0.0181 0.5616
H64_3 H 0.9527 0.1593 0.0102
O20_3 O 0.5553(2) 0.1752(3) 0.3667(3)
N17_2 N 0.4586(3) 0.1929(4) 0.4111(4)
C65_3 C 0.5086(4) 0.2106(5) 0.3734(4)
C66_3 C 0.5038(5) 0.2755(4) 0.3409(5)
H69_2 H 0.4871 0.3077 0.3720
H70_2 H 0.4741 0.2725 0.3035
H71_3 H 0.5471 0.2890 0.3258
C67_2 C 0.4021(5) 0.2326(6) 0.4253(6)
H72_2 H 0.3655 0.2186 0.3979
H73_2 H 0.4121 0.2784 0.4162
H74_2 H 0.3903 0.2277 0.4713
C68_2 C 0.4626(6) 0.1264(5) 0.4407(6)
H75_3 H 0.5084 0.1154 0.4490
H76_2 H 0.4437 0.0944 0.4107
H77_2 H 0.4384 0.1258 0.4819
O21_3 O 0.6333(3) 0.0553(2) 0.3248(3)
C69_3 C 0.6266(4) 0.0086(4) 0.2894(5)
C70_3 C 0.6591(5) 0.0038(5) 0.2245(4)
H80_3 H 0.6742 0.0471 0.2110
H84_3 H 0.5510 0.0084 0.3846
N17_3 N 0.0414(3) 0.8071(4) 0.9111(4)
H69_3 H 0.0129 0.6923 0.8720
H70_3 H 0.0259 0.7275 0.8035
C67_3 C 0.0979(5) 0.7674(6) 0.9253(6)
H72_3 H 0.1345 0.7814 0.8979
H73_3 H 0.0879 0.7216 0.9162
H74_3 H 0.1097 0.7723 0.9713
C68_3 C 0.0374(6) 0.8736(5) 0.9407(6)
H76_3 H 0.0563 0.9056 0.9107
H77_3 H 0.0616 0.8742 0.9819
N10_3 N 0.5081(3) 0.0099(3) 0.6487(3)
H44_4 H 0.4898 0.0473 0.6593
C42_3 C 0.5644(4) 0.0211(4) 0.7513(4)
H47_3 H 0.5356 0.0562 0.7609
C43_3 C 0.6095(4) 0.0039(4) 0.7955(4)
H48_3 H 0.6122 0.0272 0.8355
O17_4 O 0.1160(2) 0.2086(3) 0.5342(3)
N13_3 N 0.3513(3) 0.0081(3) 0.4901(3)
N14_4 N 0.4294(3) 0.0117(3) 0.5716(3)
C49_4 C 0.1666(3) 0.2017(3) 0.5665(3)
C50_4 C 0.2163(3) 0.1525(3) 0.5475(3)
C51_4 C 0.2748(3) 0.1481(3) 0.5797(3)
H60_4 H 0.2842 0.1775 0.6143
C52_4 C 0.3211(3) 0.1005(3) 0.5621(3)
H61_4 H 0.3612 0.0973 0.5852
C53_4 C 0.3079(3) 0.0585(3) 0.5110(3)
C54_3 C 0.2487(4) 0.0644(4) 0.4789(4)
H62_3 H 0.2391 0.0356 0.4438
C55_3 C 0.2045(4) 0.1095(4) 0.4961(4)
H63_3 H 0.1645 0.1122 0.4728
N18_3 N 0.9111(4) 0.0414(3) 0.8071(4)
H78_3 H 0.8720 0.0129 0.6923
H79_3 H 0.8035 0.0259 0.7275
C71_3 C 0.9253(6) 0.0979(5) 0.7674(6)
H81_3 H 0.8979 0.1345 0.7814
H82_3 H 0.9162 0.0879 0.7216
H83_3 H 0.9713 0.1097 0.7723
C72_3 C 0.9407(6) 0.0374(6) 0.8736(5)
H85_3 H 0.9107 0.0563 0.9056
H86_3 H 0.9819 0.0616 0.8742
N12_3 N 0.8071(4) 0.9111(4) 0.0414(3)
H49_3 H 0.6923 0.8720 0.0129
H50_3 H 0.7275 0.8035 0.0259
C47_3 C 0.7674(6) 0.9253(6) 0.0979(5)
H52_3 H 0.7814 0.8979 0.1345
H53_3 H 0.7216 0.9162 0.0879
H54_3 H 0.7723 0.9713 0.1097
C48_3 C 0.8736(5) 0.9407(6) 0.0374(6)
H56_3 H 0.9056 0.9107 0.0563
H57_3 H 0.8742 0.9819 0.0616
O12_4 O 0.7353(2) 0.8822(3) 0.8196(3)
O13_4 O 0.7086(3) 0.9658(3) 0.8840(2)
O14_4 O 0.7629(2) 0.7629(2) 0.7629(2)
O15_4 O 0.8248(3) 0.8667(3) 0.9447(2)
N11_4 N 0.5117(3) 0.9284(3) 0.5706(3)
C37_4 C 0.7017(3) 0.9335(3) 0.8334(3)
C38_4 C 0.6525(3) 0.9525(3) 0.7837(3)
C39_4 C 0.6481(3) 0.9203(3) 0.7252(3)
H45_4 H 0.6775 0.8857 0.7158
C40_4 C 0.6005(3) 0.9379(3) 0.6789(3)
H46_4 H 0.5973 0.9148 0.6388
C41_4 C 0.5585(3) 0.9890(3) 0.6921(3)
C44_3 C 0.4840(3) 0.9823(3) 0.5952(3)
C45_4 C 0.7894(5) 0.8734(4) 0.9914(4)
C46_4 C 0.7245(4) 0.8409(5) 0.9962(5)
H51_4 H 0.7110 0.8258 0.9529
H55_4 H 0.8846 0.9490 0.9916
H59_4 H 0.3407 0.9898 0.4527
C56_3 C 0.4048(3) 0.9840(3) 0.5177(3)
O19_4 O 0.4658(3) 0.6160(2) 0.2914(3)
N15_3 N 0.5099(3) 0.8513(3) 0.4919(3)
H64_4 H 0.5473 0.8407 0.5102
N16_4 N 0.4284(3) 0.9294(3) 0.4883(3)
C57_4 C 0.4335(3) 0.6666(3) 0.2983(3)
C58_4 C 0.4525(3) 0.7163(3) 0.3475(3)
C59_4 C 0.4203(3) 0.7748(3) 0.3519(3)
H65_4 H 0.3857 0.7842 0.3225
C60_4 C 0.4379(3) 0.8211(3) 0.3995(3)
H66_4 H 0.4148 0.8612 0.4027
C61_4 C 0.4890(3) 0.8079(3) 0.4415(3)
C62_3 C 0.5211(4) 0.7487(4) 0.4356(4)
H67_3 H 0.5562 0.7391 0.4644
C63_3 C 0.5039(4) 0.7045(4) 0.3905(4)
H68_3 H 0.5272 0.6645 0.3878
C64_3 C 0.4823(3) 0.9048(3) 0.5160(3)
O20_4 O 0.9447(2) 0.8248(3) 0.8667(3)
C65_4 C 0.9914(4) 0.7894(5) 0.8734(4)
C66_4 C 0.9962(5) 0.7245(4) 0.8409(5)
H71_4 H 0.9529 0.7110 0.8258
H75_4 H 0.9916 0.8846 0.9490
O21_4 O 0.8667(3) 0.9447(2) 0.8248(3)
C69_4 C 0.8734(4) 0.9914(4) 0.7894(5)
C70_4 C 0.8409(5) 0.9962(5) 0.7245(4)
H80_4 H 0.8258 0.9529 0.7110
H84_4 H 0.9490 0.9916 0.8846
N12_4 N 0.3071(4) 0.5889(4) 0.9586(3)
H49_4 H 0.1923 0.6280 0.9871
H50_4 H 0.2275 0.6965 0.9741
C47_4 C 0.2674(6) 0.5747(6) 0.9021(5)
H52_4 H 0.2814 0.6021 0.8655
H53_4 H 0.2216 0.5838 0.9121
H54_4 H 0.2723 0.5287 0.8903
C48_4 C 0.3736(5) 0.5593(6) 0.9626(6)
H56_4 H 0.4056 0.5893 0.9437
H57_4 H 0.3742 0.5181 0.9384
N13_4 N 0.1487(3) 0.9919(3) 0.9901(3)
C54_4 C 0.2513(4) 0.9356(4) 0.9789(4)
H62_4 H 0.2609 0.9644 0.9438
C55_4 C 0.2955(4) 0.8905(4) 0.9961(4)
H63_4 H 0.3355 0.8878 0.9728
N17_4 N 0.9586(3) 0.3071(4) 0.5889(4)
H69_4 H 0.9871 0.1923 0.6280
H70_4 H 0.9741 0.2275 0.6965
C67_4 C 0.9021(5) 0.2674(6) 0.5747(6)
H72_4 H 0.8655 0.2814 0.6021
H73_4 H 0.9121 0.2216 0.5838
H74_4 H 0.8903 0.2723 0.5287
C68_4 C 0.9626(6) 0.3736(5) 0.5593(6)
H76_4 H 0.9437 0.4056 0.5893
H77_4 H 0.9384 0.3742 0.5181
N15_4 N 0.9901(3) 0.1487(3) 0.9919(3)
C62_4 C 0.9789(4) 0.2513(4) 0.9356(4)
H67_4 H 0.9438 0.2609 0.9644
C63_4 C 0.9961(4) 0.2955(4) 0.8905(4)
H68_4 H 0.9728 0.3355 0.8878
C44_4 C 0.0160(3) 0.0177(3) 0.0952(3)
C56_4 C 0.0952(3) 0.0160(3) 0.0177(3)
C64_4 C 0.0177(3) 0.0952(3) 0.0160(3)
N10_4 N 0.9919(3) 0.9901(3) 0.1487(3)
C42_4 C 0.9356(4) 0.9789(4) 0.2513(4)
H47_4 H 0.9644 0.9438 0.2609
C43_4 C 0.8905(4) 0.9961(4) 0.2955(4)
H48_4 H 0.8878 0.9728 0.3355
N18_4 N 0.5889(4) 0.9586(3) 0.3071(4)
H78_4 H 0.6280 0.9871 0.1923
H79_4 H 0.6965 0.9741 0.2275
C71_4 C 0.5747(6) 0.9021(5) 0.2674(6)
H81_4 H 0.6021 0.8655 0.2814
H82_4 H 0.5838 0.9121 0.2216
H83_4 H 0.5287 0.8903 0.2723
C72_4 C 0.5593(6) 0.9626(6) 0.3736(5)
H85_4 H 0.5893 0.9437 0.4056
H86_4 H 0.5181 0.9384 0.3742
loop_
_geom_bond_atom_site_label_1
_geom_bond_atom_site_label_2
_geom_bond_site_symmetry_1
_geom_bond_site_symmetry_2
N9 C33 1_555 1_555
C34 C33 1_555 1_555
H35 C34 1_555 1_555
C35 N9 1_555 1_555
H37 C35 1_555 1_555
H38 C35 1_555 1_555
H39 C35 1_555 1_555
C36 N9 1_555 1_555
H40 C36 1_555 1_555
H41 C36 1_555 1_555
H42 C36 1_555 1_555
Eu1 O1 1_555 1_555
O1 C1 1_555 1_555
O2 C1 1_555 1_555
O3 Eu1 1_555 1_555
N3 C9 1_555 1_555
C1 C2 1_555 1_555
C2 C3 1_555 1_555
C6 C5 1_555 1_555
H4 C6 1_555 1_555
C7 C2 1_555 1_555
H5 C7 1_555 1_555
C9 O3 1_555 1_555
C10 C9 1_555 1_555
H6 C10 1_555 1_555
H7 C10 1_555 1_555
H8 C10 1_555 1_555
C11 N3 1_555 1_555
H9 C11 1_555 1_555
H10 C11 1_555 1_555
H11 C11 1_555 1_555
C12 N3 1_555 1_555
H12 C12 1_555 1_555
H13 C12 1_555 1_555
H14 C12 1_555 1_555
N6 H20 1_555 1_555
H22 C24 1_555 1_555
O8 Eu1 1_555 1_555
O9 Eu1 1_555 1_555
O10 Eu1 1_555 1_555
O11 Eu1 1_555 1_555
C6 C7 1_555 1_555
N5 C20 1_555 1_555
O6 C21 1_555 1_555
O7 C21 1_555 1_555
C21 C22 1_555 1_555
C22 C23 1_555 1_555
C26 C25 1_555 1_555
H23 C26 1_555 1_555
C27 C22 1_555 1_555
H24 C27 1_555 1_555
C28 N5 1_555 1_555
Eu2 O6 1_555 1_555
C26 C27 1_555 1_555
N3_2 C9_2 1_555 1_555
C10_2 C9_2 1_555 1_555
H7_2 C10_2 1_555 1_555
C11_2 N3_2 1_555 1_555
H9_2 C11_2 1_555 1_555
H10_2 C11_2 1_555 1_555
H11_2 C11_2 1_555 1_555
C12_2 N3_2 1_555 1_555
H12_2 C12_2 1_555 1_555
H13_2 C12_2 1_555 1_555
H14_2 C12_2 1_555 1_555
Eu2 O1_2 1_555 1_555
O1_2 C1_2 1_555 1_555
O2_2 C1_2 1_555 1_555
O3_2 Eu2 1_555 1_555
N1 H1 1_555 1_555
N2 C8_2 1_555 1_555
C1_2 C2_2 1_555 1_555
C2_2 C3_2 1_555 1_555
C3_2 H2 1_555 1_555
C4 C3_2 1_555 1_555
H3 C4 1_555 1_555
C5_2 N1 1_555 1_555
C6_2 C5_2 1_555 1_555
H4_2 C6_2 1_555 1_555
C7_2 C2_2 1_555 1_555
H5_2 C7_2 1_555 1_555
C8_2 N1 1_555 1_555
O4 C13 1_555 1_555
O5 C13 1_555 1_555
N4 H15_2 1_555 1_555
N5_2 C20_2 1_555 1_555
C13 C14 1_555 1_555
C14 C15 1_555 1_555
C15 H16 1_555 1_555
C16 C15 1_555 1_555
H17 C16 1_555 1_555
C17 N4 1_555 1_555
C18 C17 1_555 1_555
H18 C18 1_555 1_555
C19 C14 1_555 1_555
H19 C19 1_555 1_555
C20_2 N2 1_555 1_555
O11 C21_2 1_555 1_555
O7_2 C21_2 1_555 1_555
N6_2 H20_2 1_555 1_555
N7_2 C8_2 1_555 1_555
C21_2 C22_2 1_555 1_555
C22_2 C23_2 1_555 1_555
C23_2 H21_2 1_555 1_555
C24_2 C23_2 1_555 1_555
H22_2 C24_2 1_555 1_555
C25_2 N6_2 1_555 1_555
C26_2 C25_2 1_555 1_555
H23_2 C26_2 1_555 1_555
C27_2 C22_2 1_555 1_555
H24_2 C27_2 1_555 1_555
C28_2 N5_2 1_555 1_555
O8_2 Eu2 1_555 1_555
N8 C29 1_555 1_555
C29 O8_2 1_555 1_555
C30 C29 1_555 1_555
H25_2 C30 1_555 1_555
H26 C30 1_555 1_555
H27_2 C30 1_555 1_555
C31 N8 1_555 1_555
H28 C31 1_555 1_555
H29 C31 1_555 1_555
H30 C31 1_555 1_555
C32 N8 1_555 1_555
H31 C32 1_555 1_555
H32 C32 1_555 1_555
H33 C32 1_555 1_555
O9_2 Eu2 1_555 1_555
Eu3 O4 1_555 1_555
O10_2 Eu2 1_555 1_555
C4 C5_2 1_555 1_555
C6_2 C7_2 1_555 1_555
N4 C20_2 1_555 1_555
C16 C17 1_555 1_555
C18 C19 1_555 1_555
N6_2 C28_2 1_555 1_555
N7_2 C28_2 1_555 1_555
C24_2 C25_2 1_555 1_555
C26_2 C27_2 1_555 1_555
N1_2 H1_2 1_555 1_555
H3_2 C4_2 1_555 1_555
O10_2 C13_2 1_555 1_555
O5_2 C13_2 1_555 1_555
C13_2 C14_2 1_555 1_555
C14_2 C15_2 1_555 1_555
C18_2 C17_2 1_555 1_555
H18_2 C18_2 1_555 1_555
C19_2 C14_2 1_555 1_555
H19_2 C19_2 1_555 1_555
N8_2 C29_2 1_555 1_555
C30_2 C29_2 1_555 1_555
H26_2 C30_2 1_555 1_555
C31_2 N8_2 1_555 1_555
H28_2 C31_2 1_555 1_555
H29_2 C31_2 1_555 1_555
H30_2 C31_2 1_555 1_555
C32_2 N8_2 1_555 1_555
H31_2 C32_2 1_555 1_555
H32_2 C32_2 1_555 1_555
H33_2 C32_2 1_555 1_555
C18_2 C19_2 1_555 1_555
Eu3 O1_3 1_555 1_555
O1_3 C1_3 1_555 1_555
O2_3 C1_3 1_555 1_555
O3_3 Eu3 1_555 1_555
C1_3 C2_3 1_555 1_555
C2_3 C3_3 1_555 1_555
C6_3 C5_3 1_555 1_555
H4_3 C6_3 1_555 1_555
C7_3 C2_3 1_555 1_555
H5_3 C7_3 1_555 1_555
N7_3 C8_3 1_555 1_555
O8_3 Eu3 1_555 1_555
O9_3 Eu3 1_555 1_555
N9_2 C33_2 1_555 1_555
C33_2 O9_3 1_555 1_555
C34_2 C33_2 1_555 1_555
H34_3 C34_2 1_555 1_555
H35_2 C34_2 1_555 1_555
H36_3 C34_2 1_555 1_555
C35_2 N9_2 1_555 1_555
H37_2 C35_2 1_555 1_555
H38_2 C35_2 1_555 1_555
H39_2 C35_2 1_555 1_555
C36_2 N9_2 1_555 1_555
H40_2 C36_2 1_555 1_555
H41_2 C36_2 1_555 1_555
H42_2 C36_2 1_555 1_555
O11_2 Eu3 1_555 1_555
C6_3 C7_3 1_555 1_555
N7_3 C28_3 1_555 1_555
N4_2 H15_3 1_555 1_555
H17_2 C16_2 1_555 1_555
O11_2 C21_3 1_555 1_555
O7_3 C21_3 1_555 1_555
C21_3 C22_3 1_555 1_555
C22_3 C23_3 1_555 1_555
C26_3 C25_3 1_555 1_555
H23_3 C26_3 1_555 1_555
C27_3 C22_3 1_555 1_555
H24_3 C27_3 1_555 1_555
C26_3 C27_3 1_555 1_555
N2_3 C8_4 1_555 1_555
O10 C13_3 1_555 1_555
O5_3 C13_3 1_555 1_555
C13_3 C14_3 1_555 1_555
C14_3 C15_3 1_555 1_555
C18_3 C17_3 1_555 1_555
H18_3 C18_3 1_555 1_555
C19_3 C14_3 1_555 1_555
H19_3 C19_3 1_555 1_555
C20_4 N2_3 1_555 1_555
C18_3 C19_3 1_555 1_555
H3_3 C4_3 1_555 1_555
N8_3 C29_3 1_555 1_555
C30_3 C29_3 1_555 1_555
H26_3 C30_3 1_555 1_555
C31_3 N8_3 1_555 1_555
H28_3 C31_3 1_555 1_555
H29_3 C31_3 1_555 1_555
H30_3 C31_3 1_555 1_555
C32_3 N8_3 1_555 1_555
H31_3 C32_3 1_555 1_555
H32_3 C32_3 1_555 1_555
H33_3 C32_3 1_555 1_555
O4_2 C13_4 1_555 1_555
O5_4 C13_4 1_555 1_555
C13_4 C14_4 1_555 1_555
C14_4 C15_4 1_555 1_555
C15_4 H16_3 1_555 1_555
C16_3 C15_4 1_555 1_555
H17_3 C16_3 1_555 1_555
C17_4 N4_3 1_555 1_555
C18_4 C17_4 1_555 1_555
H18_4 C18_4 1_555 1_555
C19_4 C14_4 1_555 1_555
H19_4 C19_4 1_555 1_555
Eu3_2 O4_2 1_555 1_555
C16_3 C17_4 1_555 1_555
C18_4 C19_4 1_555 1_555
O6_2 C21_4 1_555 1_555
O7_4 C21_4 1_555 1_555
C21_4 C22_4 1_555 1_555
C22_4 C23_4 1_555 1_555
C23_4 H21_3 1_555 1_555
C24_3 C23_4 1_555 1_555
H22_3 C24_3 1_555 1_555
C25_4 N6_3 1_555 1_555
C26_4 C25_4 1_555 1_555
H23_4 C26_4 1_555 1_555
C27_4 C22_4 1_555 1_555
H24_4 C27_4 1_555 1_555
Eu3_2 O6_2 1_555 1_555
C24_3 C25_4 1_555 1_555
C26_4 C27_4 1_555 1_555
Eu3_2 O1_4 1_555 1_555
O1_4 C1_4 1_555 1_555
O2_4 C1_4 1_555 1_555
O3_4 Eu3_2 1_555 1_555
N3_3 C9_3 1_555 1_555
C1_4 C2_4 1_555 1_555
C2_4 C3_4 1_555 1_555
C3_4 H2_4 1_555 1_555
C4_4 C3_4 1_555 1_555
H3_4 C4_4 1_555 1_555
C5_4 N1_4 1_555 1_555
C6_4 C5_4 1_555 1_555
H4_4 C6_4 1_555 1_555
C7_4 C2_4 1_555 1_555
H5_4 C7_4 1_555 1_555
C9_3 O3_4 1_555 1_555
C10_3 C9_3 1_555 1_555
H6_4 C10_3 1_555 1_555
H7_3 C10_3 1_555 1_555
H8_4 C10_3 1_555 1_555
C11_3 N3_3 1_555 1_555
H9_3 C11_3 1_555 1_555
H10_3 C11_3 1_555 1_555
H11_3 C11_3 1_555 1_555
C12_3 N3_3 1_555 1_555
H12_3 C12_3 1_555 1_555
H13_3 C12_3 1_555 1_555
H14_3 C12_3 1_555 1_555
O8_4 Eu3_2 1_555 1_555
N8_4 C29_4 1_555 1_555
C29_4 O8_4 1_555 1_555
C30_4 C29_4 1_555 1_555
H25_4 C30_4 1_555 1_555
H26_4 C30_4 1_555 1_555
H27_4 C30_4 1_555 1_555
C31_4 N8_4 1_555 1_555
H28_4 C31_4 1_555 1_555
H29_4 C31_4 1_555 1_555
H30_4 C31_4 1_555 1_555
C32_4 N8_4 1_555 1_555
H31_4 C32_4 1_555 1_555
H32_4 C32_4 1_555 1_555
H33_4 C32_4 1_555 1_555
O9_4 Eu3_2 1_555 1_555
N9_3 C33_3 1_555 1_555
C33_3 O9_4 1_555 1_555
C34_3 C33_3 1_555 1_555
H34_4 C34_3 1_555 1_555
H35_3 C34_3 1_555 1_555
H36_4 C34_3 1_555 1_555
C35_3 N9_3 1_555 1_555
H37_3 C35_3 1_555 1_555
H38_3 C35_3 1_555 1_555
H39_3 C35_3 1_555 1_555
C36_3 N9_3 1_555 1_555
H40_3 C36_3 1_555 1_555
H41_3 C36_3 1_555 1_555
H42_3 C36_3 1_555 1_555
C4_4 C5_4 1_555 1_555
C6_4 C7_4 1_555 1_555
N9_4 C33_4 1_555 1_555
C34_4 C33_4 1_555 1_555
H35_4 C34_4 1_555 1_555
C35_4 N9_4 1_555 1_555
H37_4 C35_4 1_555 1_555
H38_4 C35_4 1_555 1_555
H39_4 C35_4 1_555 1_555
C36_4 N9_4 1_555 1_555
H40_4 C36_4 1_555 1_555
H41_4 C36_4 1_555 1_555
H42_4 C36_4 1_555 1_555
H17_4 C16_4 1_555 1_555
N3_4 C9_4 1_555 1_555
C10_4 C9_4 1_555 1_555
H7_4 C10_4 1_555 1_555
C11_4 N3_4 1_555 1_555
H9_4 C11_4 1_555 1_555
H10_4 C11_4 1_555 1_555
H11_4 C11_4 1_555 1_555
C12_4 N3_4 1_555 1_555
H12_4 C12_4 1_555 1_555
H13_4 C12_4 1_555 1_555
H14_4 C12_4 1_555 1_555
H22_4 C24_4 1_555 1_555
Eu4 O12 1_555 1_555
O12 C37 1_555 1_555
O13 C37 1_555 1_555
O14 Eu4 1_555 1_555
O15 Eu4 1_555 1_555
C37 C38 1_555 1_555
C38 C39 1_555 1_555
C39 H45 1_555 1_555
C40 C39 1_555 1_555
H46 C40 1_555 1_555
C41 N10 1_555 1_555
C42 C41 1_555 1_555
H47 C42 1_555 1_555
C43 C38 1_555 1_555
H48 C43 1_555 1_555
C45 O15 1_555 1_555
C46 C45 1_555 1_555
H51 C46 1_555 1_555
N15 H64 1_555 1_555
H67 C62 1_555 1_555
H68 C63 1_555 1_555
O20 Eu4 1_555 1_555
N17 C65 1_555 1_555
C65 O20 1_555 1_555
C66 C65 1_555 1_555
H69 C66 1_555 1_555
H70 C66 1_555 1_555
H71 C66 1_555 1_555
C67 N17 1_555 1_555
H72 C67 1_555 1_555
H73 C67 1_555 1_555
H74 C67 1_555 1_555
C68 N17 1_555 1_555
H75 C68 1_555 1_555
H76 C68 1_555 1_555
H77 C68 1_555 1_555
O21 Eu4 1_555 1_555
N18 C69 1_555 1_555
C69 O21 1_555 1_555
C70 C69 1_555 1_555
H78 C70 1_555 1_555
H79 C70 1_555 1_555
H80 C70 1_555 1_555
C71 N18 1_555 1_555
H81 C71 1_555 1_555
H82 C71 1_555 1_555
H83 C71 1_555 1_555
C72 N18 1_555 1_555
H84 C72 1_555 1_555
H85 C72 1_555 1_555
H86 C72 1_555 1_555
O22 Eu4 1_555 1_555
O23 Eu4 1_555 1_555
C40 C41 1_555 1_555
C42 C43 1_555 1_555
C62 C63 1_555 1_555
O16 C49 1_555 1_555
O17 C49 1_555 1_555
N13 H59 1_555 1_555
N14 C44 1_555 1_555
C49 C50 1_555 1_555
C50 C51 1_555 1_555
C51 H60 1_555 1_555
C52 C51 1_555 1_555
H61 C52 1_555 1_555
C53 N13 1_555 1_555
C54 C53 1_555 1_555
H62 C54 1_555 1_555
C55 C50 1_555 1_555
H63 C55 1_555 1_555
C56 N13 1_555 1_555
O18 C57 1_555 1_555
O19 C57 1_555 1_555
N16 C56 1_555 1_555
C57 C58 1_555 1_555
C58 C59 1_555 1_555
C59 H65 1_555 1_555
C60 C59 1_555 1_555
H66 C60 1_555 1_555
Eu5 O16 1_555 1_555
Eu6 O18 1_555 1_555
N14 C56 1_555 1_555
C52 C53 1_555 1_555
C54 C55 1_555 1_555
N16 C64 1_555 1_555
C60 C61 1_555 1_555
N13_2 H59_2 1_555 1_555
H62_2 C54_2 1_555 1_555
H63_2 C55_2 1_555 1_555
O18_2 C57_2 1_555 1_555
O19_2 C57_2 1_555 1_555
C57_2 C58_2 1_555 1_555
C58_2 C59_2 1_555 1_555
C59_2 H65_2 1_555 1_555
C60_2 C59_2 1_555 1_555
H66_2 C60_2 1_555 1_555
C61_2 N15_2 1_555 1_555
C62_2 C61_2 1_555 1_555
H67_2 C62_2 1_555 1_555
C63_2 C58_2 1_555 1_555
H68_2 C63_2 1_555 1_555
Eu5 O18_2 1_555 1_555
C54_2 C55_2 1_555 1_555
C60_2 C61_2 1_555 1_555
C62_2 C63_2 1_555 1_555
Eu4_2 O12_2 1_555 1_555
O12_2 C37_2 1_555 1_555
O13_2 C37_2 1_555 1_555
O14_2 Eu4_2 1_555 1_555
O15_2 Eu4_2 1_555 1_555
N10_2 H44_2 1_555 1_555
N11_2 C44_2 1_555 1_555
N12 C45_2 1_555 1_555
C37_2 C38_2 1_555 1_555
C38_2 C39_2 1_555 1_555
C39_2 H45_2 1_555 1_555
C40_2 C39_2 1_555 1_555
H46_2 C40_2 1_555 1_555
C41_2 N10_2 1_555 1_555
C42_2 C41_2 1_555 1_555
H47_2 C42_2 1_555 1_555
C43_2 C38_2 1_555 1_555
H48_2 C43_2 1_555 1_555
C44_2 N10_2 1_555 1_555
C45_2 O15_2 1_555 1_555
C46_2 C45_2 1_555 1_555
H49 C46_2 1_555 1_555
H50 C46_2 1_555 1_555
H51_2 C46_2 1_555 1_555
C47 N12 1_555 1_555
H52 C47 1_555 1_555
H53 C47 1_555 1_555
H54 C47 1_555 1_555
C48 N12 1_555 1_555
H55_2 C48 1_555 1_555
H56 C48 1_555 1_555
H57 C48 1_555 1_555
O16_2 C49_2 1_555 1_555
O17_2 C49_2 1_555 1_555
N14_2 C44_2 1_555 1_555
C49_2 C50_2 1_555 1_555
C50_2 C51_2 1_555 1_555
C51_2 H60_2 1_555 1_555
C52_2 C51_2 1_555 1_555
H61_2 C52_2 1_555 1_555
C64_2 N11_2 1_555 1_555
O20_2 Eu4_2 1_555 1_555
C65_2 O20_2 1_555 1_555
C66_2 C65_2 1_555 1_555
H71_2 C66_2 1_555 1_555
O21_2 Eu4_2 1_555 1_555
N18_2 C69_2 1_555 1_555
C69_2 O21_2 1_555 1_555
C70_2 C69_2 1_555 1_555
H78_2 C70_2 1_555 1_555
H79_2 C70_2 1_555 1_555
H80_2 C70_2 1_555 1_555
C71_2 N18_2 1_555 1_555
H81_2 C71_2 1_555 1_555
H82_2 C71_2 1_555 1_555
H83_2 C71_2 1_555 1_555
C72_2 N18_2 1_555 1_555
H84_2 C72_2 1_555 1_555
H85_2 C72_2 1_555 1_555
H86_2 C72_2 1_555 1_555
Eu6 O16_2 1_555 1_555
O22_2 Eu4_2 1_555 1_555
O23_2 Eu4_2 1_555 1_555
C40_2 C41_2 1_555 1_555
C42_2 C43_2 1_555 1_555
N14_2 C56_2 1_555 1_555
C52_2 C53_2 1_555 1_555
O23_2 C57_3 1_555 1_555
O19_3 C57_3 1_555 1_555
C57_3 C58_3 1_555 1_555
C58_3 C59_3 1_555 1_555
C59_3 H65_3 1_555 1_555
C60_3 C59_3 1_555 1_555
H66_3 C60_3 1_555 1_555
C60_3 C61_3 1_555 1_555
O22 C49_3 1_555 1_555
O17_3 C49_3 1_555 1_555
C49_3 C50_3 1_555 1_555
C50_3 C51_3 1_555 1_555
C51_3 H60_3 1_555 1_555
C52_3 C51_3 1_555 1_555
H61_3 C52_3 1_555 1_555
C52_3 C53_3 1_555 1_555
Eu5 O12_3 1_555 1_555
O12_3 C37_3 1_555 1_555
O13_3 C37_3 1_555 1_555
O14_3 Eu5 1_555 1_555
O15_3 Eu5 1_555 1_555
N12_2 C45_3 1_555 1_555
C37_3 C38_3 1_555 1_555
C38_3 C39_3 1_555 1_555
C39_3 H45_3 1_555 1_555
C40_3 C39_3 1_555 1_555
H46_3 C40_3 1_555 1_555
C45_3 O15_3 1_555 1_555
C46_3 C45_3 1_555 1_555
H49_2 C46_3 1_555 1_555
H50_2 C46_3 1_555 1_555
H51_3 C46_3 1_555 1_555
C47_2 N12_2 1_555 1_555
H52_2 C47_2 1_555 1_555
H53_2 C47_2 1_555 1_555
H54_2 C47_2 1_555 1_555
C48_2 N12_2 1_555 1_555
H55_3 C48_2 1_555 1_555
H56_2 C48_2 1_555 1_555
H57_2 C48_2 1_555 1_555
O20_3 Eu5 1_555 1_555
N17_2 C65_3 1_555 1_555
C65_3 O20_3 1_555 1_555
C66_3 C65_3 1_555 1_555
H69_2 C66_3 1_555 1_555
H70_2 C66_3 1_555 1_555
H71_3 C66_3 1_555 1_555
C67_2 N17_2 1_555 1_555
H72_2 C67_2 1_555 1_555
H73_2 C67_2 1_555 1_555
H74_2 C67_2 1_555 1_555
C68_2 N17_2 1_555 1_555
H75_3 C68_2 1_555 1_555
H76_2 C68_2 1_555 1_555
H77_2 C68_2 1_555 1_555
O21_3 Eu5 1_555 1_555
C69_3 O21_3 1_555 1_555
C70_3 C69_3 1_555 1_555
H80_3 C70_3 1_555 1_555
C40_3 C41_3 1_555 1_555
C67_3 N17_3 1_555 1_555
H72_3 C67_3 1_555 1_555
H73_3 C67_3 1_555 1_555
H74_3 C67_3 1_555 1_555
C68_3 N17_3 1_555 1_555
H76_3 C68_3 1_555 1_555
H77_3 C68_3 1_555 1_555
N10_3 H44_4 1_555 1_555
H47_3 C42_3 1_555 1_555
H48_3 C43_3 1_555 1_555
O22_2 C49_4 1_555 1_555
O17_4 C49_4 1_555 1_555
C49_4 C50_4 1_555 1_555
C50_4 C51_4 1_555 1_555
C51_4 H60_4 1_555 1_555
C52_4 C51_4 1_555 1_555
H61_4 C52_4 1_555 1_555
C53_4 N13_3 1_555 1_555
C54_3 C53_4 1_555 1_555
H62_3 C54_3 1_555 1_555
C55_3 C50_4 1_555 1_555
H63_3 C55_3 1_555 1_555
C71_3 N18_3 1_555 1_555
H81_3 C71_3 1_555 1_555
H82_3 C71_3 1_555 1_555
H83_3 C71_3 1_555 1_555
C72_3 N18_3 1_555 1_555
H85_3 C72_3 1_555 1_555
H86_3 C72_3 1_555 1_555
C42_3 C43_3 1_555 1_555
C52_4 C53_4 1_555 1_555
C54_3 C55_3 1_555 1_555
C47_3 N12_3 1_555 1_555
H52_3 C47_3 1_555 1_555
H53_3 C47_3 1_555 1_555
H54_3 C47_3 1_555 1_555
C48_3 N12_3 1_555 1_555
H56_3 C48_3 1_555 1_555
H57_3 C48_3 1_555 1_555
Eu6 O12_4 1_555 1_555
O12_4 C37_4 1_555 1_555
O13_4 C37_4 1_555 1_555
O14_4 Eu6 1_555 1_555
O15_4 Eu6 1_555 1_555
N11_4 C44_3 1_555 1_555
C37_4 C38_4 1_555 1_555
C38_4 C39_4 1_555 1_555
C39_4 H45_4 1_555 1_555
C40_4 C39_4 1_555 1_555
H46_4 C40_4 1_555 1_555
C45_4 O15_4 1_555 1_555
C46_4 C45_4 1_555 1_555
H51_4 C46_4 1_555 1_555
O23 C57_4 1_555 1_555
O19_4 C57_4 1_555 1_555
N15_3 H64_4 1_555 1_555
N16_4 C56_3 1_555 1_555
C57_4 C58_4 1_555 1_555
C58_4 C59_4 1_555 1_555
C59_4 H65_4 1_555 1_555
C60_4 C59_4 1_555 1_555
H66_4 C60_4 1_555 1_555
C61_4 N15_3 1_555 1_555
C62_3 C61_4 1_555 1_555
H67_3 C62_3 1_555 1_555
C63_3 C58_4 1_555 1_555
H68_3 C63_3 1_555 1_555
C64_3 N11_4 1_555 1_555
O20_4 Eu6 1_555 1_555
C65_4 O20_4 1_555 1_555
C66_4 C65_4 1_555 1_555
H71_4 C66_4 1_555 1_555
O21_4 Eu6 1_555 1_555
C69_4 O21_4 1_555 1_555
C70_4 C69_4 1_555 1_555
H80_4 C70_4 1_555 1_555
C40_4 C41_4 1_555 1_555
N15_3 C64_3 1_555 1_555
N16_4 C64_3 1_555 1_555
C60_4 C61_4 1_555 1_555
C62_3 C63_3 1_555 1_555
C47_4 N12_4 1_555 1_555
H52_4 C47_4 1_555 1_555
H53_4 C47_4 1_555 1_555
H54_4 C47_4 1_555 1_555
C48_4 N12_4 1_555 1_555
H56_4 C48_4 1_555 1_555
H57_4 C48_4 1_555 1_555
H62_4 C54_4 1_555 1_555
H63_4 C55_4 1_555 1_555
C54_4 C55_4 1_555 1_555
C67_4 N17_4 1_555 1_555
H72_4 C67_4 1_555 1_555
H73_4 C67_4 1_555 1_555
H74_4 C67_4 1_555 1_555
C68_4 N17_4 1_555 1_555
H76_4 C68_4 1_555 1_555
H77_4 C68_4 1_555 1_555
H67_4 C62_4 1_555 1_555
H68_4 C63_4 1_555 1_555
C62_4 C63_4 1_555 1_555
H47_4 C42_4 1_555 1_555
H48_4 C43_4 1_555 1_555
C71_4 N18_4 1_555 1_555
H81_4 C71_4 1_555 1_555
H82_4 C71_4 1_555 1_555
H83_4 C71_4 1_555 1_555
C72_4 N18_4 1_555 1_555
H85_4 C72_4 1_555 1_555
H86_4 C72_4 1_555 1_555
C42_4 C43_4 1_555 1_555

#END
