
###############################################################################
#
# This file contains modified crystal structure data generated from the
# MOF subset of the Cambridge Structural Database (CSD) v543 
# hosted by the Cambridge Crystallographic Data Centre (CCDC).
#
# This work is licensed under the Creative Commons
# Attribution-NonCommercial-ShareAlike 4.0 International License.
# To view a copy of this license, visit
# http://creativecommons.org/licenses/by-nc-sa/4.0/
# or send a letter to
# Creative Commons, PO Box 1866, Mountain View, CA 94042, USA.
#
# CIF created using the CSD Python API on 29 September 2022
# The structure has been converted into the P1 space group
# The structure has a 3D framework
# The original CSD entry SUBMIN is in the rhombohedral crystal system
# The framework has been calculated to contain at least 10.0% void space
# The void calculation uses a probe of radius 1.32A, grid spacing 0.4
# The framework is charged, counterions have been retained in the structure
#
###############################################################################

data_SUBMIN
_chemical_formula_moiety         '(C648 H540 Cd15 Cl36 N213 O144 6-)n'
_symmetry_cell_setting           triclinic
_symmetry_space_group_name_H-M   'P 1'
_symmetry_Int_Tables_number      1
_space_group_name_Hall           'P 1'
loop_
_symmetry_equiv_pos_site_id
_symmetry_equiv_pos_as_xyz
1 x,y,z
_cell_length_a                   31.070(5)
_cell_length_b                   31.070(5)
_cell_length_c                   31.862(5)
_cell_angle_alpha                90
_cell_angle_beta                 90
_cell_angle_gamma                120
_cell_volume                     26637.1
loop_
_atom_site_label
_atom_site_type_symbol
_atom_site_fract_x
_atom_site_fract_y
_atom_site_fract_z
C9 C 0.42691(16) 0.00172(16) 0.39246(11)
H7 H 0.4050 0.0082 0.4073
C10 C 0.42669(15) 0.00125(15) 0.34874(11)
H8 H 0.4044 0.0080 0.3348
Cd1 Cd 0.461165(10) 0.0000 0.2500
C19 C 0.51143(15) 0.01885(14) 0.65347(11)
H16 H 0.4909 0.0266 0.6690
C20 C 0.50830(16) 0.01856(16) 0.61015(12)
H17 H 0.4858 0.0255 0.5970
C21 C 0.53956(15) 0.00766(16) 0.58649(12)
C24 C 0.53627(16) 0.00428(17) 0.54053(13)
H20 H 0.5613 0.0038 0.5249
N7 N 0.54303(12) 0.00836(12) 0.67423(10)
N8 N 0.49866(15) 0.00204(17) 0.52220(9)
Cd4 Cd 0.538835(10) -0.0000 0.7500
N13 N 0.54578(11) 0.06293(11) 0.24922(9)
N14 N 0.46533(17) 0.00836(12) 0.17423(10)
N15 N 0.44084(16) 0.06235(11) 0.26039(9)
C1 C 0.06029(13) 0.58082(13) 0.22845(12)
H1 H 0.0305 0.5726 0.2151
C2 C 0.09979(14) 0.62883(14) 0.22428(12)
H2 H 0.0965 0.6523 0.2088
C3 C 0.14423(15) 0.64106(15) 0.24364(13)
C4 C 0.14692(16) 0.60551(16) 0.26780(15)
H3 H 0.1760 0.6131 0.2820
C5 C 0.10565(14) 0.55838(14) 0.27055(13)
H4 H 0.1077 0.5346 0.2868
C6 C 0.48857(15) 0.98115(14) 0.34653(11)
H5 H 0.5091 0.9734 0.3310
C7 C 0.49170(16) 0.98144(16) 0.38985(12)
H6 H 0.5142 0.9745 0.4030
C8 C 0.46044(15) 0.99234(16) 0.41351(12)
C11 C 0.46373(16) 0.99572(17) 0.45947(13)
H9 H 0.4387 0.9962 0.4751
C12 C 0.37055(14) 0.89991(13) 0.21390(11)
H10 H 0.3962 0.9040 0.1963
C13 C 0.32623(14) 0.85555(13) 0.21246(12)
H11 H 0.3222 0.8303 0.1944
C14 C 0.28759(13) 0.84940(13) 0.23865(12)
C15 C 0.29493(14) 0.88856(15) 0.26375(13)
H12 H 0.2694 0.8859 0.2808
C16 C 0.34043(14) 0.93184(14) 0.26341(12)
H13 H 0.3448 0.9581 0.2804
C17 C 0.24051(14) 0.80134(14) 0.24009(13)
H14 H 0.2170 0.7955 0.2607
C18 C 0.18868(16) 0.69095(16) 0.23934(15)
H15 H 0.2178 0.6981 0.2532
Cd1_2 Cd 0.461165(10) 1.0000 0.2500
N1 N 0.06293(11) 0.54578(11) 0.25078(9)
N2 N 0.45697(12) 0.99164(12) 0.32577(10)
N3 N 0.50134(15) 0.99796(17) 0.47780(9)
N4 N 0.18758(13) 0.72388(13) 0.21714(12)
N5 N 0.23243(14) 0.76825(13) 0.21311(12)
N6 N 0.37849(11) 0.93765(11) 0.23961(9)
C22 C 0.57309(16) 0.99828(16) 0.60754(11)
H18 H 0.5950 0.9918 0.5927
C23 C 0.57331(15) 0.99875(15) 0.65126(11)
H19 H 0.5956 0.9920 0.6652
C25 C 0.52053(18) 0.93971(13) 0.22845(12)
H21 H 0.5421 0.9695 0.2151
C26 C 0.52904(20) 0.90021(14) 0.22428(12)
H22 H 0.5558 0.9035 0.2088
C27 C 0.49683(21) 0.85577(15) 0.24364(13)
C28 C 0.45859(23) 0.85308(16) 0.26780(15)
H23 H 0.4371 0.8240 0.2820
C29 C 0.45273(20) 0.89435(14) 0.27055(13)
H24 H 0.4269 0.8923 0.2868
C30 C 0.52936(19) 0.62945(14) 0.21390(11)
H25 H 0.5078 0.6038 0.1963
C31 C 0.52932(19) 0.67377(14) 0.21246(12)
H26 H 0.5081 0.6778 0.1944
C32 C 0.56181(18) 0.71241(13) 0.23865(12)
C33 C 0.59363(21) 0.70507(14) 0.26375(13)
H27 H 0.6165 0.7306 0.2808
C34 C 0.59141(20) 0.65957(14) 0.26341(12)
H28 H 0.6133 0.6552 0.2804
C35 C 0.56083(20) 0.75949(14) 0.24009(13)
H29 H 0.5785 0.7830 0.2607
C36 C 0.50227(23) 0.81132(16) 0.23934(15)
H30 H 0.4803 0.7822 0.2532
N9 N 0.48285(16) 0.93707(11) 0.25078(9)
N10 N 0.53630(18) 0.81242(13) 0.21714(12)
N11 N 0.53582(19) 0.76757(14) 0.21311(12)
N12 N 0.55916(16) 0.62151(11) 0.23961(9)
Cd2 Cd -0.0000 0.461165(10) 0.2500
Cd3 Cd 0.538835(10) 0.538835(10) 0.2500
Cd4_2 Cd 0.538835(10) 1.0000 0.7500
Cd2_2 Cd 1.0000 0.461165(10) 0.2500
C1_2 C 0.41918(13) 0.47947(18) 0.22845(12)
H1_2 H 0.4274 0.4579 0.2151
C2_2 C 0.37117(14) 0.47096(20) 0.22428(12)
H2_2 H 0.3477 0.4442 0.2088
C3_2 C 0.35894(15) 0.50317(21) 0.24364(13)
C4_2 C 0.39449(16) 0.54141(23) 0.26780(15)
H3_2 H 0.3869 0.5629 0.2820
C5_2 C 0.44162(14) 0.54727(20) 0.27055(13)
H4_2 H 0.4654 0.5731 0.2868
C6_2 C 0.01885(14) 0.50742(21) 0.34653(11)
H5_2 H 0.0266 0.5357 0.3310
C7_2 C 0.01856(16) 0.51026(23) 0.38985(12)
H6_2 H 0.0255 0.5397 0.4030
C8_2 C 0.00766(16) 0.46810(22) 0.41351(12)
C11_2 C 0.00428(17) 0.46801(23) 0.45947(13)
H9_2 H 0.0038 0.4425 0.4751
C12_2 C 0.10009(13) 0.47064(19) 0.21390(11)
H10_2 H 0.0960 0.4922 0.1963
C13_2 C 0.14445(13) 0.47068(19) 0.21246(12)
H11_2 H 0.1697 0.4919 0.1944
C14_2 C 0.15060(13) 0.43819(18) 0.23865(12)
C15_2 C 0.11144(15) 0.40637(21) 0.26375(13)
H12_2 H 0.1141 0.3835 0.2808
C16_2 C 0.06816(14) 0.40859(20) 0.26341(12)
H13_2 H 0.0419 0.3867 0.2804
C17_2 C 0.19866(14) 0.43917(20) 0.24009(13)
H14_2 H 0.2045 0.4215 0.2607
C18_2 C 0.30905(16) 0.49773(23) 0.23934(15)
H15_2 H 0.3019 0.5197 0.2532
N1_2 N 0.45422(11) 0.51715(16) 0.25078(9)
N2_2 N 0.00836(12) 0.46533(17) 0.32577(10)
N3_2 N 0.00204(17) 0.50338(23) 0.47780(9)
N4_2 N 0.27612(13) 0.46370(18) 0.21714(12)
N5_2 N 0.23175(13) 0.46418(19) 0.21311(12)
N6_2 N 0.06235(11) 0.44084(16) 0.23961(9)
C22_2 C 0.00172(16) 0.57481(23) 0.60754(11)
H18_2 H 0.0082 0.6032 0.5927
C23_2 C 0.00125(15) 0.57456(21) 0.65126(11)
H19_2 H 0.0080 0.6036 0.6652
Cd4_3 Cd 0.0000 0.538835(10) 0.7500
C9_2 C 0.99828(16) 0.42519(23) 0.39246(11)
H7_2 H 0.9918 0.3968 0.4073
C10_2 C 0.99875(15) 0.42544(21) 0.34874(11)
H8_2 H 0.9920 0.3964 0.3348
C19_2 C 0.98115(14) 0.49258(21) 0.65347(11)
H16_2 H 0.9734 0.4643 0.6690
C20_2 C 0.98144(16) 0.48974(23) 0.61015(12)
H17_2 H 0.9745 0.4603 0.5970
C21_2 C 0.99234(16) 0.53190(22) 0.58649(12)
C24_2 C 0.99572(17) 0.53199(23) 0.54053(13)
H20_2 H 0.9962 0.5575 0.5249
N7_2 N 0.99164(12) 0.53467(17) 0.67423(10)
N8_2 N 0.99796(17) 0.49662(23) 0.52220(9)
Cd4_4 Cd 1.0000 0.538835(10) 0.7500
N13_2 N 0.93707(11) 0.48285(16) 0.24922(9)
N14_2 N 0.99164(12) 0.45697(21) 0.17423(10)
N15_2 N 0.93765(11) 0.37849(19) 0.26039(9)
C6_3 C 0.49258(21) 0.51143(15) 0.34653(11)
H5_3 H 0.4643 0.4909 0.3310
C7_3 C 0.48974(23) 0.50830(16) 0.38985(12)
H6_3 H 0.4603 0.4858 0.4030
C8_3 C 0.53190(22) 0.53956(15) 0.41351(12)
C9_3 C 0.57481(23) 0.57309(16) 0.39246(11)
H7_3 H 0.6032 0.5950 0.4073
C10_3 C 0.57456(21) 0.57331(15) 0.34874(11)
H8_3 H 0.6036 0.5956 0.3348
C11_3 C 0.53199(23) 0.53627(16) 0.45947(13)
H9_3 H 0.5575 0.5613 0.4751
N2_3 N 0.53467(17) 0.54303(12) 0.32577(10)
N3_3 N 0.49662(23) 0.49866(15) 0.47780(9)
C19_3 C 0.50742(21) 0.48857(15) 0.65347(11)
H16_3 H 0.5357 0.5091 0.6690
C20_3 C 0.51026(23) 0.49170(16) 0.61015(12)
H17_3 H 0.5397 0.5142 0.5970
C21_3 C 0.46810(22) 0.46044(15) 0.58649(12)
C22_3 C 0.42519(23) 0.42691(16) 0.60754(11)
H18_3 H 0.3968 0.4050 0.5927
C23_3 C 0.42544(21) 0.42669(15) 0.65126(11)
H19_3 H 0.3964 0.4044 0.6652
C24_3 C 0.46801(23) 0.46373(16) 0.54053(13)
H20_3 H 0.4425 0.4387 0.5249
N7_3 N 0.46533(17) 0.45697(12) 0.67423(10)
N8_3 N 0.50338(23) 0.50134(15) 0.52220(9)
Cd4_5 Cd 0.461165(10) 0.461165(10) 0.7500
N13_3 N 0.51715(16) 0.45422(11) 0.24922(9)
N14_3 N 0.54303(21) 0.53467(17) 0.17423(10)
N15_3 N 0.62151(19) 0.55916(16) 0.26039(9)
C1_3 C 0.47947(18) 0.41918(13) 0.27155(12)
H1_3 H 0.4579 0.4274 0.2849
C2_3 C 0.47096(20) 0.37117(14) 0.27572(12)
H2_3 H 0.4442 0.3477 0.2912
C3_3 C 0.50317(21) 0.35894(15) 0.25636(13)
C4_3 C 0.54141(23) 0.39449(16) 0.23220(15)
H3_3 H 0.5629 0.3869 0.2180
C5_3 C 0.54727(20) 0.44162(14) 0.22945(13)
H4_3 H 0.5731 0.4654 0.2132
C6_4 C 0.50742(21) 0.01885(14) 0.15347(11)
H5_4 H 0.5357 0.0266 0.1690
C7_4 C 0.51026(23) 0.01856(16) 0.11015(12)
H6_4 H 0.5397 0.0255 0.0970
C8_4 C 0.46810(22) 0.00766(16) 0.08649(12)
C11_4 C 0.46801(23) 0.00428(17) 0.04053(13)
H9_4 H 0.4425 0.0038 0.0249
C12_3 C 0.47064(19) 0.10009(13) 0.28610(11)
H10_3 H 0.4922 0.0960 0.3037
C13_3 C 0.47068(19) 0.14445(13) 0.28754(12)
H11_3 H 0.4919 0.1697 0.3056
C14_3 C 0.43819(18) 0.15060(13) 0.26135(12)
C15_3 C 0.40637(21) 0.11144(15) 0.23625(13)
H12_3 H 0.3835 0.1141 0.2192
C16_3 C 0.40859(20) 0.06816(14) 0.23659(12)
H13_3 H 0.3867 0.0419 0.2196
C17_3 C 0.43917(20) 0.19866(14) 0.25991(13)
H14_3 H 0.4215 0.2045 0.2393
C18_3 C 0.49773(23) 0.30905(16) 0.26066(15)
H15_3 H 0.5197 0.3019 0.2468
N3_4 N 0.50338(23) 0.00204(17) 0.02220(9)
N4_3 N 0.46370(18) 0.27612(13) 0.28286(12)
N5_3 N 0.46418(19) 0.23175(13) 0.28689(12)
C25_2 C 0.58082(22) 0.06029(13) 0.27155(12)
H21_2 H 0.5726 0.0305 0.2849
C26_2 C 0.62883(24) 0.09979(14) 0.27572(12)
H22_2 H 0.6523 0.0965 0.2912
C27_2 C 0.64106(26) 0.14423(15) 0.25636(13)
C28_2 C 0.60551(28) 0.14692(16) 0.23220(15)
H23_2 H 0.6131 0.1760 0.2180
C29_2 C 0.55838(24) 0.10565(14) 0.22945(13)
H24_2 H 0.5346 0.1077 0.2132
C30_2 C 0.89991(24) 0.37055(14) 0.28610(11)
H25_2 H 0.9040 0.3962 0.3037
C31_2 C 0.85555(24) 0.32623(14) 0.28754(12)
H26_2 H 0.8303 0.3222 0.3056
C32_2 C 0.84940(22) 0.28759(13) 0.26135(12)
C33_2 C 0.88856(25) 0.29493(14) 0.23625(13)
H27_2 H 0.8859 0.2694 0.2192
C34_2 C 0.93184(24) 0.34043(14) 0.23659(12)
H28_2 H 0.9581 0.3448 0.2196
C35_2 C 0.80134(24) 0.24051(14) 0.25991(13)
H29_2 H 0.7955 0.2170 0.2393
C36_2 C 0.69095(28) 0.18868(16) 0.26066(15)
H30_2 H 0.6981 0.2178 0.2468
N10_2 N 0.72388(22) 0.18758(13) 0.28286(12)
N11_2 N 0.76825(24) 0.23243(14) 0.28689(12)
C22_4 C 0.57481(23) 0.00172(16) 0.89246(11)
H18_4 H 0.6032 0.0082 0.9073
C23_4 C 0.57456(21) 0.00125(15) 0.84874(11)
H19_4 H 0.6036 0.0080 0.8348
C9_4 C 0.42519(23) 0.99828(16) 0.10754(11)
H7_4 H 0.3968 0.9918 0.0927
C10_4 C 0.42544(21) 0.99875(15) 0.15126(11)
H8_4 H 0.3964 0.9920 0.1652
C19_4 C 0.49258(21) 0.98115(14) 0.84653(11)
H16_4 H 0.4643 0.9734 0.8310
C20_4 C 0.48974(23) 0.98144(16) 0.88985(12)
H17_4 H 0.4603 0.9745 0.9030
C21_4 C 0.53190(22) 0.99234(16) 0.91351(12)
C24_4 C 0.53199(23) 0.99572(17) 0.95947(13)
H20_4 H 0.5575 0.9962 0.9751
N7_4 N 0.53467(17) 0.99164(12) 0.82577(10)
N8_4 N 0.49662(23) 0.99796(17) 0.97780(9)
C1_4 C 0.93971(13) 0.52053(18) 0.27155(12)
H1_4 H 0.9695 0.5421 0.2849
C2_4 C 0.90021(14) 0.52904(20) 0.27572(12)
H2_4 H 0.9035 0.5558 0.2912
C3_4 C 0.85577(15) 0.49683(21) 0.25636(13)
C4_4 C 0.85308(16) 0.45859(23) 0.23220(15)
H3_4 H 0.8240 0.4371 0.2180
C5_4 C 0.89435(14) 0.45273(20) 0.22945(13)
H4_4 H 0.8923 0.4269 0.2132
C6_5 C 0.51143(15) 0.49258(21) 0.15347(11)
H5_5 H 0.4909 0.4643 0.1690
C7_5 C 0.50830(16) 0.48974(23) 0.11015(12)
H6_5 H 0.4858 0.4603 0.0970
C8_5 C 0.53956(15) 0.53190(22) 0.08649(12)
C9_5 C 0.57309(16) 0.57481(23) 0.10754(11)
H7_5 H 0.5950 0.6032 0.0927
C10_5 C 0.57331(15) 0.57456(21) 0.15126(11)
H8_5 H 0.5956 0.6036 0.1652
C11_5 C 0.53627(16) 0.53199(23) 0.04053(13)
H9_5 H 0.5613 0.5575 0.0249
C12_4 C 0.62945(14) 0.52936(19) 0.28610(11)
H10_4 H 0.6038 0.5078 0.3037
C13_4 C 0.67377(14) 0.52932(19) 0.28754(12)
H11_4 H 0.6778 0.5081 0.3056
C14_4 C 0.71241(13) 0.56181(18) 0.26135(12)
C15_4 C 0.70507(14) 0.59363(21) 0.23625(13)
H12_4 H 0.7306 0.6165 0.2192
C16_4 C 0.65957(14) 0.59141(20) 0.23659(12)
H13_4 H 0.6552 0.6133 0.2196
C17_4 C 0.75949(14) 0.56083(20) 0.25991(13)
H14_4 H 0.7830 0.5785 0.2393
C18_4 C 0.81132(16) 0.50227(23) 0.26066(15)
H15_4 H 0.7822 0.4803 0.2468
N3_5 N 0.49866(15) 0.49662(23) 0.02220(9)
N4_4 N 0.81242(13) 0.53630(18) 0.28286(12)
N5_4 N 0.76757(14) 0.53582(19) 0.28689(12)
C19_5 C 0.48857(15) 0.50742(21) 0.84653(11)
H16_5 H 0.5091 0.5357 0.8310
C20_5 C 0.49170(16) 0.51026(23) 0.88985(12)
H17_5 H 0.5142 0.5397 0.9030
C21_5 C 0.46044(15) 0.46810(22) 0.91351(12)
C22_5 C 0.42691(16) 0.42519(23) 0.89246(11)
H18_5 H 0.4050 0.3968 0.9073
C23_5 C 0.42669(15) 0.42544(21) 0.84874(11)
H19_5 H 0.4044 0.3964 0.8348
C24_5 C 0.46373(16) 0.46801(23) 0.95947(13)
H20_5 H 0.4387 0.4425 0.9751
N7_5 N 0.45697(12) 0.46533(17) 0.82577(10)
N8_5 N 0.50134(15) 0.50338(23) 0.97780(9)
C9_6 C 0.00172(16) 0.42691(16) 0.10754(11)
H7_6 H 0.0082 0.4050 0.0927
C10_6 C 0.00125(15) 0.42669(15) 0.15126(11)
H8_6 H 0.0080 0.4044 0.1652
C19_6 C 0.01885(14) 0.51143(15) 0.84653(11)
H16_6 H 0.0266 0.4909 0.8310
C20_6 C 0.01856(16) 0.50830(16) 0.88985(12)
H17_6 H 0.0255 0.4858 0.9030
C21_6 C 0.00766(16) 0.53956(15) 0.91351(12)
C24_6 C 0.00428(17) 0.53627(16) 0.95947(13)
H20_6 H 0.0038 0.5613 0.9751
N7_6 N 0.00836(12) 0.54303(12) 0.82577(10)
N8_6 N 0.00204(17) 0.49866(15) 0.97780(9)
C6_6 C 0.98115(14) 0.48857(15) 0.15347(11)
H5_6 H 0.9734 0.5091 0.1690
C7_6 C 0.98144(16) 0.49170(16) 0.11015(12)
H6_6 H 0.9745 0.5142 0.0970
C8_6 C 0.99234(16) 0.46044(15) 0.08649(12)
C11_6 C 0.99572(17) 0.46373(16) 0.04053(13)
H9_6 H 0.9962 0.4387 0.0249
N3_6 N 0.99796(17) 0.50134(15) 0.02220(9)
C22_6 C 0.99828(16) 0.57309(16) 0.89246(11)
H18_6 H 0.9918 0.5950 0.9073
C23_6 C 0.99875(15) 0.57331(15) 0.84874(11)
H19_6 H 0.9920 0.5956 0.8348
C1_5 C 0.93971(13) 0.41918(13) 0.77155(12)
H1_5 H 0.9695 0.4274 0.7849
C2_5 C 0.90021(14) 0.37117(14) 0.77572(12)
H2_5 H 0.9035 0.3477 0.7912
C3_5 C 0.85577(15) 0.35894(15) 0.75636(13)
C4_5 C 0.85308(16) 0.39449(16) 0.73220(15)
H3_5 H 0.8240 0.3869 0.7180
C5_5 C 0.89435(14) 0.44162(14) 0.72945(13)
H4_5 H 0.8923 0.4654 0.7132
C12_5 C 0.62945(14) 0.10009(13) 0.78610(11)
H10_5 H 0.6038 0.0960 0.8037
C13_5 C 0.67377(14) 0.14445(13) 0.78754(12)
H11_5 H 0.6778 0.1697 0.8056
C14_5 C 0.71241(13) 0.15060(13) 0.76135(12)
C15_5 C 0.70507(14) 0.11144(15) 0.73625(13)
H12_5 H 0.7306 0.1141 0.7192
C16_5 C 0.65957(14) 0.06816(14) 0.73659(12)
H13_5 H 0.6552 0.0419 0.7196
C17_5 C 0.75949(14) 0.19866(14) 0.75991(13)
H14_5 H 0.7830 0.2045 0.7393
C18_5 C 0.81132(16) 0.30905(16) 0.76066(15)
H15_5 H 0.7822 0.3019 0.7468
N1_3 N 0.93707(11) 0.45422(11) 0.74922(9)
N4_5 N 0.81242(13) 0.27612(13) 0.78286(12)
N5_5 N 0.76757(14) 0.23175(13) 0.78689(12)
N6_3 N 0.62151(11) 0.06235(11) 0.76039(9)
C25_3 C 0.47947(18) 0.06029(13) 0.77155(12)
H21_3 H 0.4579 0.0305 0.7849
C26_3 C 0.47096(20) 0.09979(14) 0.77572(12)
H22_3 H 0.4442 0.0965 0.7912
C27_3 C 0.50317(21) 0.14423(15) 0.75636(13)
C28_3 C 0.54141(23) 0.14692(16) 0.73220(15)
H23_3 H 0.5629 0.1760 0.7180
C29_3 C 0.54727(20) 0.10565(14) 0.72945(13)
H24_3 H 0.5731 0.1077 0.7132
C30_3 C 0.47064(19) 0.37055(14) 0.78610(11)
H25_3 H 0.4922 0.3962 0.8037
C31_3 C 0.47068(19) 0.32623(14) 0.78754(12)
H26_3 H 0.4919 0.3222 0.8056
C32_3 C 0.43819(18) 0.28759(13) 0.76135(12)
C33_3 C 0.40637(21) 0.29493(14) 0.73625(13)
H27_3 H 0.3835 0.2694 0.7192
C34_3 C 0.40859(20) 0.34043(14) 0.73659(12)
H28_3 H 0.3867 0.3448 0.7196
C35_3 C 0.43917(20) 0.24051(14) 0.75991(13)
H29_3 H 0.4215 0.2170 0.7393
C36_3 C 0.49773(23) 0.18868(16) 0.76066(15)
H30_3 H 0.5197 0.2178 0.7468
N9_2 N 0.51715(16) 0.06293(11) 0.74922(9)
N10_3 N 0.46370(18) 0.18758(13) 0.78286(12)
N11_3 N 0.46418(19) 0.23243(14) 0.78689(12)
N12_2 N 0.44084(16) 0.37849(11) 0.76039(9)
N13_4 N 0.45422(11) 0.93707(11) 0.75078(9)
N15_4 N 0.55916(16) 0.93765(11) 0.73961(9)
N13_5 N 0.06293(11) 0.51715(16) 0.75078(9)
N15_5 N 0.06235(11) 0.62151(19) 0.73961(9)
C1_6 C 0.58082(13) 0.52053(18) 0.77155(12)
H1_6 H 0.5726 0.5421 0.7849
C2_6 C 0.62883(14) 0.52904(20) 0.77572(12)
H2_6 H 0.6523 0.5558 0.7912
C3_6 C 0.64106(15) 0.49683(21) 0.75636(13)
C4_6 C 0.60551(16) 0.45859(23) 0.73220(15)
H3_6 H 0.6131 0.4371 0.7180
C5_6 C 0.55838(14) 0.45273(20) 0.72945(13)
H4_6 H 0.5346 0.4269 0.7132
C12_6 C 0.89991(13) 0.52936(19) 0.78610(11)
H10_6 H 0.9040 0.5078 0.8037
C13_6 C 0.85555(13) 0.52932(19) 0.78754(12)
H11_6 H 0.8303 0.5081 0.8056
C14_6 C 0.84940(13) 0.56181(18) 0.76135(12)
C15_6 C 0.88856(15) 0.59363(21) 0.73625(13)
H12_6 H 0.8859 0.6165 0.7192
C16_6 C 0.93184(14) 0.59141(20) 0.73659(12)
H13_6 H 0.9581 0.6133 0.7196
C17_6 C 0.80134(14) 0.56083(20) 0.75991(13)
H14_6 H 0.7955 0.5785 0.7393
C18_6 C 0.69095(16) 0.50227(23) 0.76066(15)
H15_6 H 0.6981 0.4803 0.7468
N1_4 N 0.54578(11) 0.48285(16) 0.74922(9)
N4_6 N 0.72388(13) 0.53630(18) 0.78286(12)
N5_6 N 0.76825(13) 0.53582(19) 0.78689(12)
N6_4 N 0.93765(11) 0.55916(16) 0.76039(9)
N13_6 N 0.48285(16) 0.54578(11) 0.75078(9)
N15_6 N 0.37849(19) 0.44084(16) 0.73961(9)
C1_7 C 0.52053(18) 0.58082(13) 0.72845(12)
H1_7 H 0.5421 0.5726 0.7151
C2_7 C 0.52904(20) 0.62883(14) 0.72428(12)
H2_7 H 0.5558 0.6523 0.7088
C3_7 C 0.49683(21) 0.64106(15) 0.74364(13)
C4_7 C 0.45859(23) 0.60551(16) 0.76780(15)
H3_7 H 0.4371 0.6131 0.7820
C5_7 C 0.45273(20) 0.55838(14) 0.77055(13)
H4_7 H 0.4269 0.5346 0.7868
C12_7 C 0.52936(19) 0.89991(13) 0.71390(11)
H10_7 H 0.5078 0.9040 0.6963
C13_7 C 0.52932(19) 0.85555(13) 0.71246(12)
H11_7 H 0.5081 0.8303 0.6944
C14_7 C 0.56181(18) 0.84940(13) 0.73865(12)
C15_7 C 0.59363(21) 0.88856(15) 0.76375(13)
H12_7 H 0.6165 0.8859 0.7808
C16_7 C 0.59141(20) 0.93184(14) 0.76341(12)
H13_7 H 0.6133 0.9581 0.7804
C17_7 C 0.56083(20) 0.80134(14) 0.74009(13)
H14_7 H 0.5785 0.7955 0.7607
C18_7 C 0.50227(23) 0.69095(16) 0.73934(15)
H15_7 H 0.4803 0.6981 0.7532
N4_7 N 0.53630(18) 0.72388(13) 0.71714(12)
N5_7 N 0.53582(19) 0.76825(13) 0.71311(12)
C25_4 C 0.41918(22) 0.93971(13) 0.72845(12)
H21_4 H 0.4274 0.9695 0.7151
C26_4 C 0.37117(24) 0.90021(14) 0.72428(12)
H22_4 H 0.3477 0.9035 0.7088
C27_4 C 0.35894(26) 0.85577(15) 0.74364(13)
C28_4 C 0.39449(28) 0.85308(16) 0.76780(15)
H23_4 H 0.3869 0.8240 0.7820
C29_4 C 0.44162(24) 0.89435(14) 0.77055(13)
H24_4 H 0.4654 0.8923 0.7868
C30_4 C 0.10009(24) 0.62945(14) 0.71390(11)
H25_4 H 0.0960 0.6038 0.6963
C31_4 C 0.14445(24) 0.67377(14) 0.71246(12)
H26_4 H 0.1697 0.6778 0.6944
C32_4 C 0.15060(22) 0.71241(13) 0.73865(12)
C33_4 C 0.11144(25) 0.70507(14) 0.76375(13)
H27_4 H 0.1141 0.7306 0.7808
C34_4 C 0.06816(24) 0.65957(14) 0.76341(12)
H28_4 H 0.0419 0.6552 0.7804
C35_4 C 0.19866(24) 0.75949(14) 0.74009(13)
H29_4 H 0.2045 0.7830 0.7607
C36_4 C 0.30905(28) 0.81132(16) 0.73934(15)
H30_4 H 0.3019 0.7822 0.7532
N10_4 N 0.27612(22) 0.81242(13) 0.71714(12)
N11_4 N 0.23175(24) 0.76757(14) 0.71311(12)
C1_8 C 0.06029(13) 0.47947(18) 0.72845(12)
H1_8 H 0.0305 0.4579 0.7151
C2_8 C 0.09979(14) 0.47096(20) 0.72428(12)
H2_8 H 0.0965 0.4442 0.7088
C3_8 C 0.14423(15) 0.50317(21) 0.74364(13)
C4_8 C 0.14692(16) 0.54141(23) 0.76780(15)
H3_8 H 0.1760 0.5629 0.7820
C5_8 C 0.10565(14) 0.54727(20) 0.77055(13)
H4_8 H 0.1077 0.5731 0.7868
C12_8 C 0.37055(14) 0.47064(19) 0.71390(11)
H10_8 H 0.3962 0.4922 0.6963
C13_8 C 0.32623(14) 0.47068(19) 0.71246(12)
H11_8 H 0.3222 0.4919 0.6944
C14_8 C 0.28759(13) 0.43819(18) 0.73865(12)
C15_8 C 0.29493(14) 0.40637(21) 0.76375(13)
H12_8 H 0.2694 0.3835 0.7808
C16_8 C 0.34043(14) 0.40859(20) 0.76341(12)
H13_8 H 0.3448 0.3867 0.7804
C17_8 C 0.24051(14) 0.43917(20) 0.74009(13)
H14_8 H 0.2170 0.4215 0.7607
C18_8 C 0.18868(16) 0.49773(23) 0.73934(15)
H15_8 H 0.2178 0.5197 0.7532
N4_8 N 0.18758(13) 0.46370(18) 0.71714(12)
N5_8 N 0.23243(14) 0.46418(19) 0.71311(12)
H16_7 H 0.1576 0.3599 0.0023
N7_7 N 0.20970(12) 0.34169(12) 0.00756(10)
Cd4_6 Cd 0.205502(10) 0.3333 0.0833
C6_7 C 0.15524(15) 0.31448(14) 0.67986(11)
H5_7 H 0.1758 0.3067 0.6643
C7_7 C 0.15837(16) 0.31477(16) 0.72318(12)
H6_7 H 0.1809 0.3078 0.7363
C8_7 C 0.12711(15) 0.32567(16) 0.74684(12)
C9_7 C 0.09358(16) 0.33505(16) 0.72579(11)
H7_7 H 0.0717 0.3415 0.7406
C10_7 C 0.09336(15) 0.33458(15) 0.68207(11)
H8_7 H 0.0711 0.3413 0.6681
C11_7 C 0.13040(16) 0.32905(17) 0.79280(13)
H9_7 H 0.1054 0.3295 0.8084
C12_9 C 0.03722(14) 0.23324(13) 0.54723(11)
H10_9 H 0.0629 0.2373 0.5296
C16_9 C 0.00710(14) 0.26517(14) 0.59674(12)
H13_9 H 0.0115 0.2914 0.6137
Cd1_3 Cd 0.127832(10) 0.3333 0.5833
N2_4 N 0.12364(12) 0.32497(12) 0.65910(10)
N3_7 N 0.16801(15) 0.33129(17) 0.81113(9)
N6_5 N 0.04516(11) 0.27098(11) 0.57294(9)
C19_7 C 0.17810(15) 0.35218(14) 0.98680(11)
C20_7 C 0.17497(16) 0.35189(16) 0.94348(12)
H17_7 H 0.1525 0.3588 0.9303
C21_7 C 0.20623(15) 0.34099(16) 0.91982(12)
C22_7 C 0.23976(16) 0.33161(16) 0.94087(11)
H18_7 H 0.2617 0.3251 0.9260
C23_7 C 0.23998(15) 0.33208(15) 0.98459(11)
H19_7 H 0.2623 0.3253 0.9985
C24_7 C 0.20294(16) 0.33761(17) 0.87386(13)
H20_7 H 0.2280 0.3371 0.8582
N8_7 N 0.16533(15) 0.33537(17) 0.85553(9)
C25_5 C 0.18720(18) 0.27304(13) 0.56178(12)
H21_5 H 0.2088 0.3028 0.5484
C26_5 C 0.19571(20) 0.23354(14) 0.55761(12)
H22_5 H 0.2225 0.2368 0.5421
C27_5 C 0.16350(21) 0.18910(15) 0.57697(13)
C28_5 C 0.12526(23) 0.18641(16) 0.60113(15)
H23_5 H 0.1038 0.1573 0.6153
C29_5 C 0.11940(20) 0.22768(14) 0.60388(13)
H24_5 H 0.0936 0.2256 0.6201
C31_5 C 0.19599(19) 0.00710(14) 0.54579(12)
H26_5 H 0.1748 0.0111 0.5277
C32_5 C 0.22848(18) 0.04574(13) 0.57198(12)
C33_5 C 0.26030(21) 0.03840(14) 0.59708(13)
H27_5 H 0.2832 0.0639 0.6141
C35_5 C 0.22750(20) 0.09282(14) 0.57342(13)
H29_5 H 0.2452 0.1163 0.5940
C36_5 C 0.16894(23) 0.14465(16) 0.57267(15)
H30_5 H 0.1470 0.1155 0.5865
N9_3 N 0.14952(16) 0.27040(11) 0.58411(9)
N10_5 N 0.20297(18) 0.14575(13) 0.55047(12)
N11_5 N 0.20249(19) 0.10090(14) 0.54644(12)
N13_7 N 0.21245(11) 0.39626(11) 0.58255(9)
N14_4 N 0.13200(17) 0.34169(12) 0.50756(10)
N15_7 N 0.10751(16) 0.39568(11) 0.59372(9)
C30_5 C 0.19603(19) 0.96278(14) 0.54723(11)
H25_5 H 0.1745 0.9371 0.5296
C34_5 C 0.25808(20) 0.99290(14) 0.59674(12)
H28_5 H 0.2800 0.9885 0.6137
N12_3 N 0.22583(16) 0.95484(11) 0.57294(9)
Cd3_2 Cd 0.205502(10) 0.872168(10) 0.5833
C1_9 C 0.72696(13) 0.91415(13) 0.56178(12)
H1_9 H 0.6972 0.9059 0.5484
C2_9 C 0.76646(14) 0.96216(14) 0.55761(12)
H2_9 H 0.7632 0.9856 0.5421
C3_9 C 0.81090(15) 0.97439(15) 0.57697(13)
C4_9 C 0.81359(16) 0.93884(16) 0.60113(15)
H3_9 H 0.8427 0.9464 0.6153
C5_9 C 0.77232(14) 0.89171(14) 0.60388(13)
H4_9 H 0.7744 0.8679 0.6201
N1_5 N 0.72960(11) 0.87911(11) 0.58411(9)
Cd2_3 Cd 0.6667 0.794498(10) 0.5833
C1_10 C 0.08585(13) 0.81280(18) 0.56178(12)
H1_10 H 0.0941 0.7912 0.5484
C2_10 C 0.03784(14) 0.80429(20) 0.55761(12)
H2_10 H 0.0144 0.7775 0.5421
C3_10 C 0.02561(15) 0.83650(21) 0.57697(13)
C4_10 C 0.06116(16) 0.87474(23) 0.60113(15)
H3_10 H 0.0536 0.8962 0.6153
C5_10 C 0.10829(14) 0.88060(20) 0.60388(13)
H4_10 H 0.1321 0.9064 0.6201
N1_6 N 0.12089(11) 0.85048(16) 0.58411(9)
H16_8 H 0.6401 0.7976 0.0023
N7_8 N 0.65831(12) 0.86800(17) 0.00756(10)
Cd4_7 Cd 0.6667 0.872168(10) 0.0833
C6_8 C 0.68552(14) 0.84075(21) 0.67986(11)
H5_8 H 0.6933 0.8690 0.6643
C7_8 C 0.68523(16) 0.84359(23) 0.72318(12)
H6_8 H 0.6922 0.8730 0.7363
C8_8 C 0.67433(16) 0.80143(22) 0.74684(12)
C9_8 C 0.66495(16) 0.75852(23) 0.72579(11)
H7_8 H 0.6585 0.7301 0.7406
C10_8 C 0.66542(15) 0.75877(21) 0.68207(11)
H8_8 H 0.6587 0.7297 0.6681
C11_8 C 0.67095(17) 0.80134(23) 0.79280(13)
H9_8 H 0.6705 0.7758 0.8084
C12_10 C 0.76676(13) 0.80397(19) 0.54723(11)
H10_10 H 0.7627 0.8255 0.5296
C13_9 C 0.81112(13) 0.80401(19) 0.54579(12)
H11_9 H 0.8364 0.8252 0.5277
C14_9 C 0.81727(13) 0.77152(18) 0.57198(12)
C15_9 C 0.77811(15) 0.73970(21) 0.59708(13)
H12_9 H 0.7808 0.7168 0.6141
C16_10 C 0.73483(14) 0.74192(20) 0.59674(12)
H13_10 H 0.7086 0.7200 0.6137
C17_9 C 0.86533(14) 0.77250(20) 0.57342(13)
H14_9 H 0.8712 0.7548 0.5940
C18_9 C 0.97572(16) 0.83106(23) 0.57267(15)
H15_9 H 0.9686 0.8530 0.5865
N2_5 N 0.67503(12) 0.79866(17) 0.65910(10)
N3_8 N 0.66871(17) 0.83671(23) 0.81113(9)
N4_9 N 0.94279(13) 0.79703(18) 0.55047(12)
N5_9 N 0.89842(13) 0.79751(19) 0.54644(12)
N6_6 N 0.72902(11) 0.77417(16) 0.57294(9)
C19_8 C 0.64782(14) 0.82591(21) 0.98680(11)
C20_8 C 0.64811(16) 0.82307(23) 0.94348(12)
H17_8 H 0.6412 0.7936 0.9303
C21_8 C 0.65901(16) 0.86523(22) 0.91982(12)
C22_8 C 0.66839(16) 0.90814(23) 0.94087(11)
H18_8 H 0.6749 0.9365 0.9260
C23_8 C 0.66792(15) 0.90789(21) 0.98459(11)
H19_8 H 0.6747 0.9369 0.9985
C24_8 C 0.66239(17) 0.86532(23) 0.87386(13)
H20_8 H 0.6629 0.8908 0.8582
N8_8 N 0.66463(17) 0.82995(23) 0.85553(9)
N13_8 N 0.60374(11) 0.81618(16) 0.58255(9)
N14_5 N 0.65831(12) 0.79030(21) 0.50756(10)
N15_8 N 0.60432(11) 0.71182(19) 0.59372(9)
H16_9 H 0.2024 0.8424 0.0023
N7_9 N 0.13200(17) 0.79030(12) 0.00756(10)
Cd4_8 Cd 0.127832(10) 0.794498(10) 0.0833
C6_9 C 0.15925(21) 0.84476(15) 0.67986(11)
H5_9 H 0.1310 0.8242 0.6643
C7_9 C 0.15641(23) 0.84163(16) 0.72318(12)
H6_9 H 0.1270 0.8191 0.7363
C8_9 C 0.19857(22) 0.87289(15) 0.74684(12)
C9_9 C 0.24148(23) 0.90642(16) 0.72579(11)
H7_9 H 0.2699 0.9283 0.7406
C10_9 C 0.24123(21) 0.90664(15) 0.68207(11)
H8_9 H 0.2703 0.9289 0.6681
C11_9 C 0.19866(23) 0.86960(16) 0.79280(13)
H9_9 H 0.2242 0.8946 0.8084
N2_6 N 0.20134(17) 0.87636(12) 0.65910(10)
N3_9 N 0.16329(23) 0.83199(15) 0.81113(9)
C19_9 C 0.17409(21) 0.82190(15) 0.98680(11)
C20_9 C 0.17693(23) 0.82503(16) 0.94348(12)
H17_9 H 0.2064 0.8475 0.9303
C21_9 C 0.13477(22) 0.79377(15) 0.91982(12)
C22_9 C 0.09186(23) 0.76024(16) 0.94087(11)
H18_9 H 0.0635 0.7383 0.9260
C23_9 C 0.09211(21) 0.76002(15) 0.98459(11)
H19_9 H 0.0631 0.7377 0.9985
C24_9 C 0.13468(23) 0.79706(16) 0.87386(13)
H20_9 H 0.1092 0.7720 0.8582
N8_9 N 0.17005(23) 0.83467(15) 0.85553(9)
N13_9 N 0.18382(16) 0.78755(11) 0.58255(9)
N14_6 N 0.20970(21) 0.86800(17) 0.50756(10)
N15_9 N 0.28818(19) 0.89249(16) 0.59372(9)
C1_11 C 0.14614(18) 0.75251(13) 0.60488(12)
H1_11 H 0.1246 0.7607 0.6182
C2_11 C 0.13763(20) 0.70450(14) 0.60905(12)
H2_11 H 0.1109 0.6810 0.6245
C3_11 C 0.16984(21) 0.69227(15) 0.58969(13)
C4_11 C 0.20808(23) 0.72782(16) 0.56553(15)
H3_11 H 0.2296 0.7202 0.5513
C5_11 C 0.21394(20) 0.77495(14) 0.56278(13)
H4_11 H 0.2398 0.7987 0.5465
C6_10 C 0.17409(21) 0.35218(14) 0.48680(11)
H5_10 H 0.2024 0.3599 0.5023
C7_10 C 0.17693(23) 0.35189(16) 0.44348(12)
H6_10 H 0.2064 0.3588 0.4303
C8_10 C 0.13477(22) 0.34099(16) 0.41982(12)
C9_10 C 0.09186(23) 0.33161(16) 0.44087(11)
H7_10 H 0.0635 0.3251 0.4260
C10_10 C 0.09211(21) 0.33208(15) 0.48459(11)
H8_10 H 0.0631 0.3253 0.4985
C11_10 C 0.13468(23) 0.33761(17) 0.37386(13)
H9_10 H 0.1092 0.3371 0.3582
C12_11 C 0.13731(19) 0.43342(13) 0.61943(11)
H10_11 H 0.1589 0.4293 0.6370
C13_10 C 0.13735(19) 0.47778(13) 0.62087(12)
H11_10 H 0.1586 0.5030 0.6389
C14_10 C 0.10486(18) 0.48393(13) 0.59468(12)
C15_10 C 0.07304(21) 0.44477(15) 0.56958(13)
H12_10 H 0.0502 0.4474 0.5525
C16_11 C 0.07526(20) 0.40149(14) 0.56992(12)
H13_11 H 0.0534 0.3752 0.5529
C17_10 C 0.10584(20) 0.53199(14) 0.59324(13)
H14_10 H 0.0882 0.5378 0.5726
C18_10 C 0.16440(23) 0.64238(16) 0.59399(15)
H15_10 H 0.1864 0.6352 0.5801
N3_10 N 0.17005(23) 0.33537(17) 0.35553(9)
N4_10 N 0.13037(18) 0.60945(13) 0.61619(12)
N5_10 N 0.13085(19) 0.56508(13) 0.62022(12)
C19_10 C 0.15925(21) 0.31448(14) 0.17986(11)
H16_10 H 0.1310 0.3067 0.1643
C20_10 C 0.15641(23) 0.31477(16) 0.22318(12)
H17_10 H 0.1270 0.3078 0.2363
C21_10 C 0.19857(22) 0.32567(16) 0.24684(12)
C22_10 C 0.24148(23) 0.33505(16) 0.22579(11)
H18_10 H 0.2699 0.3415 0.2406
C23_10 C 0.24123(21) 0.33458(15) 0.18207(11)
H19_10 H 0.2703 0.3413 0.1681
C24_10 C 0.19866(23) 0.32905(17) 0.29280(13)
H20_10 H 0.2242 0.3295 0.3084
N7_10 N 0.20134(17) 0.32497(12) 0.15910(10)
N8_10 N 0.16329(23) 0.33129(17) 0.31113(9)
C25_6 C 0.24749(22) 0.39362(13) 0.60488(12)
H21_6 H 0.2393 0.3638 0.6182
C26_6 C 0.29550(24) 0.43312(14) 0.60905(12)
H22_6 H 0.3190 0.4298 0.6245
C27_6 C 0.30773(26) 0.47756(15) 0.58969(13)
C28_6 C 0.27218(28) 0.48025(16) 0.56553(15)
H23_6 H 0.2798 0.5093 0.5513
C29_6 C 0.22505(24) 0.43898(14) 0.56278(13)
H24_6 H 0.2013 0.4410 0.5465
C30_6 C 0.56658(24) 0.70388(14) 0.61943(11)
H25_6 H 0.5707 0.7295 0.6370
C31_6 C 0.52222(24) 0.65956(14) 0.62087(12)
H26_6 H 0.4970 0.6555 0.6389
C32_6 C 0.51607(22) 0.62092(13) 0.59468(12)
C33_6 C 0.55523(25) 0.62826(14) 0.56958(13)
H27_6 H 0.5526 0.6027 0.5525
C34_6 C 0.59851(24) 0.67376(14) 0.56992(12)
H28_6 H 0.6248 0.6781 0.5529
C35_6 C 0.46801(24) 0.57384(14) 0.59324(13)
H29_6 H 0.4622 0.5503 0.5726
C36_6 C 0.35762(28) 0.52201(16) 0.59399(15)
H30_6 H 0.3648 0.5511 0.5801
N10_6 N 0.39055(22) 0.52091(13) 0.61619(12)
N11_6 N 0.43492(24) 0.56576(14) 0.62022(12)
C1_12 C 0.60638(13) 0.85386(18) 0.60488(12)
H1_12 H 0.6362 0.8754 0.6182
C2_12 C 0.56688(14) 0.86237(20) 0.60905(12)
H2_12 H 0.5702 0.8891 0.6245
C3_12 C 0.52244(15) 0.83016(21) 0.58969(13)
C4_12 C 0.51975(16) 0.79192(23) 0.56553(15)
H3_12 H 0.4907 0.7704 0.5513
C5_12 C 0.56102(14) 0.78606(20) 0.56278(13)
H4_12 H 0.5590 0.7602 0.5465
C6_11 C 0.17810(15) 0.82591(21) 0.48680(11)
H5_11 H 0.1576 0.7976 0.5023
C7_11 C 0.17497(16) 0.82307(23) 0.44348(12)
H6_11 H 0.1525 0.7936 0.4303
C8_11 C 0.20623(15) 0.86523(22) 0.41982(12)
C9_11 C 0.23976(16) 0.90814(23) 0.44087(11)
H7_11 H 0.2617 0.9365 0.4260
C10_11 C 0.23998(15) 0.90789(21) 0.48459(11)
H8_11 H 0.2623 0.9369 0.4985
C11_11 C 0.20294(16) 0.86532(23) 0.37386(13)
H9_11 H 0.2280 0.8908 0.3582
C12_12 C 0.29612(14) 0.86269(19) 0.61943(11)
H10_12 H 0.2705 0.8411 0.6370
C13_11 C 0.34044(14) 0.86265(19) 0.62087(12)
H11_11 H 0.3445 0.8414 0.6389
C14_11 C 0.37908(13) 0.89514(18) 0.59468(12)
C15_11 C 0.37174(14) 0.92696(21) 0.56958(13)
H12_11 H 0.3973 0.9498 0.5525
C16_12 C 0.32624(14) 0.92474(20) 0.56992(12)
H13_12 H 0.3219 0.9466 0.5529
C17_11 C 0.42616(14) 0.89416(20) 0.59324(13)
H14_11 H 0.4497 0.9118 0.5726
C18_11 C 0.47799(16) 0.83560(23) 0.59399(15)
H15_11 H 0.4489 0.8136 0.5801
N3_11 N 0.16533(15) 0.82995(23) 0.35553(9)
N4_11 N 0.47909(13) 0.86963(18) 0.61619(12)
N5_11 N 0.43424(14) 0.86915(19) 0.62022(12)
C19_11 C 0.15524(15) 0.84075(21) 0.17986(11)
H16_11 H 0.1758 0.8690 0.1643
C20_11 C 0.15837(16) 0.84359(23) 0.22318(12)
H17_11 H 0.1809 0.8730 0.2363
C21_11 C 0.12711(15) 0.80143(22) 0.24684(12)
C22_11 C 0.09358(16) 0.75852(23) 0.22579(11)
H18_11 H 0.0717 0.7301 0.2406
C23_11 C 0.09336(15) 0.75877(21) 0.18207(11)
H19_11 H 0.0711 0.7297 0.1681
C24_11 C 0.13040(16) 0.80134(23) 0.29280(13)
H20_11 H 0.1054 0.7758 0.3084
N7_11 N 0.12364(12) 0.79866(17) 0.15910(10)
N8_11 N 0.16801(15) 0.83671(23) 0.31113(9)
C6_12 C 0.64782(14) 0.82190(15) 0.48680(11)
H5_12 H 0.6401 0.8424 0.5023
C7_12 C 0.64811(16) 0.82503(16) 0.44348(12)
H6_12 H 0.6412 0.8475 0.4303
C8_12 C 0.65901(16) 0.79377(15) 0.41982(12)
C9_12 C 0.66839(16) 0.76024(16) 0.44087(11)
H7_12 H 0.6749 0.7383 0.4260
C10_12 C 0.66792(15) 0.76002(15) 0.48459(11)
H8_12 H 0.6747 0.7377 0.4985
C11_12 C 0.66239(17) 0.79706(16) 0.37386(13)
H9_12 H 0.6629 0.7720 0.3582
N3_12 N 0.66463(17) 0.83467(15) 0.35553(9)
C19_12 C 0.68552(14) 0.84476(15) 0.17986(11)
H16_12 H 0.6933 0.8242 0.1643
C20_12 C 0.68523(16) 0.84163(16) 0.22318(12)
H17_12 H 0.6922 0.8191 0.2363
C21_12 C 0.67433(16) 0.87289(15) 0.24684(12)
C22_12 C 0.66495(16) 0.90642(16) 0.22579(11)
H18_12 H 0.6585 0.9283 0.2406
C23_12 C 0.66542(15) 0.90664(15) 0.18207(11)
H19_12 H 0.6587 0.9289 0.1681
C24_12 C 0.67095(17) 0.86960(16) 0.29280(13)
H20_12 H 0.6705 0.8946 0.3084
N7_12 N 0.67503(12) 0.87636(12) 0.15910(10)
N8_12 N 0.66871(17) 0.83199(15) 0.31113(9)
C1_13 C 0.60638(13) 0.75251(13) 0.10488(12)
H1_13 H 0.6362 0.7607 0.1182
C2_13 C 0.56688(14) 0.70450(14) 0.10905(12)
H2_13 H 0.5702 0.6810 0.1245
C3_13 C 0.52244(15) 0.69227(15) 0.08969(13)
C4_13 C 0.51975(16) 0.72782(16) 0.06553(15)
H3_13 H 0.4907 0.7202 0.0513
C5_13 C 0.56102(14) 0.77495(14) 0.06278(13)
H4_13 H 0.5590 0.7987 0.0465
C12_13 C 0.29612(14) 0.43342(13) 0.11943(11)
H10_13 H 0.2705 0.4293 0.1370
C13_12 C 0.34044(14) 0.47778(13) 0.12087(12)
H11_12 H 0.3445 0.5030 0.1389
C14_12 C 0.37908(13) 0.48393(13) 0.09468(12)
C15_12 C 0.37174(14) 0.44477(15) 0.06958(13)
H12_12 H 0.3973 0.4474 0.0525
C16_13 C 0.32624(14) 0.40149(14) 0.06992(12)
H13_13 H 0.3219 0.3752 0.0529
C17_12 C 0.42616(14) 0.53199(14) 0.09324(13)
H14_12 H 0.4497 0.5378 0.0726
C18_12 C 0.47799(16) 0.64238(16) 0.09399(15)
H15_12 H 0.4489 0.6352 0.0801
N1_7 N 0.60374(11) 0.78755(11) 0.08255(9)
N4_12 N 0.47909(13) 0.60945(13) 0.11619(12)
N5_12 N 0.43424(14) 0.56508(13) 0.12022(12)
N6_7 N 0.28818(11) 0.39568(11) 0.09372(9)
C25_7 C 0.14614(18) 0.39362(13) 0.10488(12)
H21_7 H 0.1246 0.3638 0.1182
C26_7 C 0.13763(20) 0.43312(14) 0.10905(12)
H22_7 H 0.1109 0.4298 0.1245
C27_7 C 0.16984(21) 0.47756(15) 0.08969(13)
C28_7 C 0.20808(23) 0.48025(16) 0.06553(15)
H23_7 H 0.2296 0.5093 0.0513
C29_7 C 0.21394(20) 0.43898(14) 0.06278(13)
H24_7 H 0.2398 0.4410 0.0465
C30_7 C 0.13731(19) 0.70388(14) 0.11943(11)
H25_7 H 0.1589 0.7295 0.1370
C31_7 C 0.13735(19) 0.65956(14) 0.12087(12)
H26_7 H 0.1586 0.6555 0.1389
C32_7 C 0.10486(18) 0.62092(13) 0.09468(12)
C33_7 C 0.07304(21) 0.62826(14) 0.06958(13)
H27_7 H 0.0502 0.6027 0.0525
C34_7 C 0.07526(20) 0.67376(14) 0.06992(12)
H28_7 H 0.0534 0.6781 0.0529
C35_7 C 0.10584(20) 0.57384(14) 0.09324(13)
H29_7 H 0.0882 0.5503 0.0726
C36_7 C 0.16440(23) 0.52201(16) 0.09399(15)
H30_7 H 0.1864 0.5511 0.0801
N9_4 N 0.18382(16) 0.39626(11) 0.08255(9)
N10_7 N 0.13037(18) 0.52091(13) 0.11619(12)
N11_7 N 0.13085(19) 0.56576(14) 0.12022(12)
N12_4 N 0.10751(16) 0.71182(11) 0.09372(9)
N13_10 N 0.12089(11) 0.27040(11) 0.08411(9)
N15_10 N 0.22583(16) 0.27098(11) 0.07294(9)
C1_14 C 0.24749(13) 0.85386(18) 0.10488(12)
H1_14 H 0.2393 0.8754 0.1182
C2_14 C 0.29550(14) 0.86237(20) 0.10905(12)
H2_14 H 0.3190 0.8891 0.1245
C3_14 C 0.30773(15) 0.83016(21) 0.08969(13)
C4_14 C 0.27218(16) 0.79192(23) 0.06553(15)
H3_14 H 0.2798 0.7704 0.0513
C5_14 C 0.22505(14) 0.78606(20) 0.06278(13)
H4_14 H 0.2013 0.7602 0.0465
C12_14 C 0.56658(13) 0.86269(19) 0.11943(11)
H10_14 H 0.5707 0.8411 0.1370
C13_13 C 0.52222(13) 0.86265(19) 0.12087(12)
H11_13 H 0.4970 0.8414 0.1389
C14_13 C 0.51607(13) 0.89514(18) 0.09468(12)
C15_13 C 0.55523(15) 0.92696(21) 0.06958(13)
H12_13 H 0.5526 0.9498 0.0525
C16_14 C 0.59851(14) 0.92474(20) 0.06992(12)
H13_14 H 0.6248 0.9466 0.0529
C17_13 C 0.46801(14) 0.89416(20) 0.09324(13)
H14_13 H 0.4622 0.9118 0.0726
C18_13 C 0.35762(16) 0.83560(23) 0.09399(15)
H15_13 H 0.3648 0.8136 0.0801
N1_8 N 0.21245(11) 0.81618(16) 0.08255(9)
N4_13 N 0.39055(13) 0.86963(18) 0.11619(12)
N5_13 N 0.43492(13) 0.86915(19) 0.12022(12)
N6_8 N 0.60432(11) 0.89249(16) 0.09372(9)
N13_11 N 0.72960(11) 0.85048(16) 0.08411(9)
N15_11 N 0.72902(11) 0.95484(19) 0.07294(9)
N13_12 N 0.14952(16) 0.87911(11) 0.08411(9)
N15_12 N 0.04516(19) 0.77417(16) 0.07294(9)
C12_15 C 0.19603(19) 0.23324(13) 0.04723(11)
H10_15 H 0.1745 0.2373 0.0296
C13_14 C 0.19599(19) 0.18888(13) 0.04579(12)
H11_14 H 0.1748 0.1636 0.0277
C14_14 C 0.22848(18) 0.18273(13) 0.07198(12)
C15_14 C 0.26030(21) 0.22189(15) 0.09708(13)
H12_14 H 0.2832 0.2192 0.1141
C16_15 C 0.25808(20) 0.26517(14) 0.09674(12)
H13_15 H 0.2800 0.2914 0.1137
C17_14 C 0.22750(20) 0.13467(14) 0.07342(13)
H14_14 H 0.2452 0.1288 0.0940
C18_14 C 0.16894(23) 0.02428(16) 0.07267(15)
H15_14 H 0.1470 0.0314 0.0865
N4_14 N 0.20297(18) 0.05721(13) 0.05047(12)
N5_14 N 0.20249(19) 0.10158(13) 0.04644(12)
C25_8 C 0.08585(22) 0.27304(13) 0.06178(12)
H21_8 H 0.0941 0.3028 0.0484
C26_8 C 0.03784(24) 0.23354(14) 0.05761(12)
H22_8 H 0.0144 0.2368 0.0421
C27_8 C 0.02561(26) 0.18910(15) 0.07697(13)
C28_8 C 0.06116(28) 0.18641(16) 0.10113(15)
H23_8 H 0.0536 0.1573 0.1153
C29_8 C 0.10829(24) 0.22768(14) 0.10388(13)
H24_8 H 0.1321 0.2256 0.1201
C1_15 C 0.18720(18) 0.91415(13) 0.06178(12)
H1_15 H 0.2088 0.9059 0.0484
C2_15 C 0.19571(20) 0.96216(14) 0.05761(12)
H2_15 H 0.2225 0.9856 0.0421
C3_15 C 0.16350(21) 0.97439(15) 0.07697(13)
C4_15 C 0.12526(23) 0.93884(16) 0.10113(15)
H3_15 H 0.1038 0.9464 0.1153
C5_15 C 0.11940(20) 0.89171(14) 0.10388(13)
H4_15 H 0.0936 0.8679 0.1201
C30_8 C 0.76676(24) 0.96278(14) 0.04723(11)
H25_8 H 0.7627 0.9371 0.0296
C34_8 C 0.73483(24) 0.99290(14) 0.09674(12)
H28_8 H 0.7086 0.9885 0.1137
C12_16 C 0.03722(14) 0.80397(19) 0.04723(11)
H10_16 H 0.0629 0.8255 0.0296
C16_16 C 0.00710(14) 0.74192(20) 0.09674(12)
H13_16 H 0.0115 0.7200 0.1137
C1_16 C 0.72696(13) 0.81280(18) 0.06178(12)
H1_16 H 0.6972 0.7912 0.0484
C2_16 C 0.76646(14) 0.80429(20) 0.05761(12)
H2_16 H 0.7632 0.7775 0.0421
C3_16 C 0.81090(15) 0.83650(21) 0.07697(13)
C4_16 C 0.81359(16) 0.87474(23) 0.10113(15)
H3_16 H 0.8427 0.8962 0.1153
C5_16 C 0.77232(14) 0.88060(20) 0.10388(13)
H4_16 H 0.7744 0.9064 0.1201
C13_15 C 0.99290(14) 0.80401(19) 0.04579(12)
H11_15 H 0.9889 0.8252 0.0277
C14_15 C 0.95426(13) 0.77152(18) 0.07198(12)
C15_15 C 0.96160(14) 0.73970(21) 0.09708(13)
H12_15 H 0.9361 0.7168 0.1141
C17_15 C 0.90718(14) 0.77250(20) 0.07342(13)
H14_15 H 0.8837 0.7548 0.0940
C18_15 C 0.85535(16) 0.83106(23) 0.07267(15)
H15_15 H 0.8845 0.8530 0.0865
N4_15 N 0.85425(13) 0.79703(18) 0.05047(12)
N5_15 N 0.89910(14) 0.79751(19) 0.04644(12)
C13_16 C 0.99290(14) 0.18888(13) 0.54579(12)
H11_16 H 0.9889 0.1636 0.5277
C14_16 C 0.95426(13) 0.18273(13) 0.57198(12)
C15_16 C 0.96160(14) 0.22189(15) 0.59708(13)
H12_16 H 0.9361 0.2192 0.6141
C17_16 C 0.90718(14) 0.13467(14) 0.57342(13)
H14_16 H 0.8837 0.1288 0.5940
C18_16 C 0.85535(16) 0.02428(16) 0.57267(15)
H15_16 H 0.8845 0.0314 0.5865
N4_16 N 0.85425(13) 0.05721(13) 0.55047(12)
N5_16 N 0.89910(14) 0.10158(13) 0.54644(12)
C6_13 C 0.82190(15) 0.64782(14) 0.01320(11)
C7_13 C 0.82503(16) 0.64811(16) 0.05652(12)
H6_13 H 0.8475 0.6412 0.0697
C8_13 C 0.79377(15) 0.65901(16) 0.08018(12)
C9_13 C 0.76024(16) 0.66839(16) 0.05913(11)
H7_13 H 0.7383 0.6749 0.0740
C10_13 C 0.76002(15) 0.66792(15) 0.01541(11)
H8_13 H 0.7377 0.6747 0.0015
C11_13 C 0.79706(16) 0.66239(17) 0.12614(13)
H9_13 H 0.7720 0.6629 0.1418
N3_13 N 0.83467(15) 0.66463(17) 0.14447(9)
C19_13 C 0.84476(15) 0.68552(14) 0.32014(11)
H16_13 H 0.8242 0.6933 0.3357
C20_13 C 0.84163(16) 0.68523(16) 0.27682(12)
H17_13 H 0.8191 0.6922 0.2637
C21_13 C 0.87289(15) 0.67433(16) 0.25316(12)
C22_13 C 0.90642(16) 0.66495(16) 0.27421(11)
H18_13 H 0.9283 0.6585 0.2594
C23_13 C 0.90664(15) 0.66542(15) 0.31793(11)
H19_13 H 0.9289 0.6587 0.3319
C24_13 C 0.86960(16) 0.67095(17) 0.20720(13)
H20_13 H 0.8946 0.6705 0.1916
N7_13 N 0.87636(12) 0.67503(12) 0.34090(10)
N8_13 N 0.83199(15) 0.66871(17) 0.18887(9)
Cd4_9 Cd 0.872168(10) 0.6667 0.4167
C1_17 C 0.39362(13) 0.24749(13) 0.89512(12)
H1_17 H 0.3638 0.2393 0.8818
C2_17 C 0.43312(14) 0.29550(14) 0.89095(12)
H2_17 H 0.4298 0.3190 0.8755
C3_17 C 0.47756(15) 0.30773(15) 0.91031(13)
C4_17 C 0.48025(16) 0.27218(16) 0.93447(15)
H3_17 H 0.5093 0.2798 0.9487
C5_17 C 0.43898(14) 0.22505(14) 0.93722(13)
H4_17 H 0.4410 0.2013 0.9535
H5_13 H 0.8424 0.6401 0.9977
C12_17 C 0.70388(14) 0.56658(13) 0.88057(11)
H10_17 H 0.7295 0.5707 0.8630
C13_17 C 0.65956(14) 0.52222(13) 0.87913(12)
H11_17 H 0.6555 0.4970 0.8611
C14_17 C 0.62092(13) 0.51607(13) 0.90532(12)
C15_17 C 0.62826(14) 0.55523(15) 0.93042(13)
H12_17 H 0.6027 0.5526 0.9475
C16_17 C 0.67376(14) 0.59851(14) 0.93008(12)
H13_17 H 0.6781 0.6248 0.9471
C17_17 C 0.57384(14) 0.46801(14) 0.90676(13)
H14_17 H 0.5503 0.4622 0.9274
C18_17 C 0.52201(16) 0.35762(16) 0.90601(15)
H15_17 H 0.5511 0.3648 0.9199
Cd1_4 Cd 0.794498(10) 0.6667 0.9167
N1_9 N 0.39626(11) 0.21245(11) 0.91745(9)
N2_7 N 0.79030(12) 0.65831(12) 0.99244(10)
N4_17 N 0.52091(13) 0.39055(13) 0.88381(12)
N5_17 N 0.56576(14) 0.43492(13) 0.87978(12)
N6_9 N 0.71182(11) 0.60432(11) 0.90628(9)
C25_9 C 0.85386(18) 0.60638(13) 0.89512(12)
H21_9 H 0.8754 0.6362 0.8818
C26_9 C 0.86237(20) 0.56688(14) 0.89095(12)
H22_9 H 0.8891 0.5702 0.8755
C27_9 C 0.83016(21) 0.52244(15) 0.91031(13)
C28_9 C 0.79192(23) 0.51975(16) 0.93447(15)
H23_9 H 0.7704 0.4907 0.9487
C29_9 C 0.78606(20) 0.56102(14) 0.93722(13)
H24_9 H 0.7602 0.5590 0.9535
C30_9 C 0.86269(19) 0.29612(14) 0.88057(11)
H25_9 H 0.8411 0.2705 0.8630
C31_8 C 0.86265(19) 0.34044(14) 0.87913(12)
H26_8 H 0.8414 0.3445 0.8611
C32_8 C 0.89514(18) 0.37908(13) 0.90532(12)
C33_8 C 0.92696(21) 0.37174(14) 0.93042(13)
H27_8 H 0.9498 0.3973 0.9475
C34_9 C 0.92474(20) 0.32624(14) 0.93008(12)
H28_9 H 0.9466 0.3219 0.9471
C35_8 C 0.89416(20) 0.42616(14) 0.90676(13)
H29_8 H 0.9118 0.4497 0.9274
C36_8 C 0.83560(23) 0.47799(16) 0.90601(15)
H30_8 H 0.8136 0.4489 0.9199
N9_5 N 0.81618(16) 0.60374(11) 0.91745(9)
N10_8 N 0.86963(18) 0.47909(13) 0.88381(12)
N11_8 N 0.86915(19) 0.43424(14) 0.87978(12)
N12_5 N 0.89249(16) 0.28818(11) 0.90628(9)
Cd2_4 Cd 0.3333 0.127832(10) 0.9167
Cd3_3 Cd 0.872168(10) 0.205502(10) 0.9167
N13_13 N 0.87911(11) 0.72960(11) 0.91589(9)
N14_7 N 0.79866(17) 0.67503(12) 0.84090(10)
N15_13 N 0.77417(16) 0.72902(11) 0.92706(9)
C6_14 C 0.35218(14) 0.17409(21) 0.01320(11)
C7_14 C 0.35189(16) 0.17693(23) 0.05652(12)
H6_14 H 0.3588 0.2064 0.0697
C8_14 C 0.34099(16) 0.13477(22) 0.08018(12)
C9_14 C 0.33161(16) 0.09186(23) 0.05913(11)
H7_14 H 0.3251 0.0635 0.0740
C10_14 C 0.33208(15) 0.09211(21) 0.01541(11)
H8_14 H 0.3253 0.0631 0.0015
C11_14 C 0.33761(17) 0.13468(23) 0.12614(13)
H9_14 H 0.3371 0.1092 0.1418
N3_14 N 0.33537(17) 0.17005(23) 0.14447(9)
C19_14 C 0.31448(14) 0.15925(21) 0.32014(11)
H16_14 H 0.3067 0.1310 0.3357
C20_14 C 0.31477(16) 0.15641(23) 0.27682(12)
H17_14 H 0.3078 0.1270 0.2637
C21_14 C 0.32567(16) 0.19857(22) 0.25316(12)
C22_14 C 0.33505(16) 0.24148(23) 0.27421(11)
H18_14 H 0.3415 0.2699 0.2594
C23_14 C 0.33458(15) 0.24123(21) 0.31793(11)
H19_14 H 0.3413 0.2703 0.3319
C24_14 C 0.32905(17) 0.19866(23) 0.20720(13)
H20_14 H 0.3295 0.2242 0.1916
N7_14 N 0.32497(12) 0.20134(17) 0.34090(10)
N8_14 N 0.33129(17) 0.16329(23) 0.18887(9)
Cd4_10 Cd 0.3333 0.205502(10) 0.4167
C1_18 C 0.75251(13) 0.14614(18) 0.89512(12)
H1_18 H 0.7607 0.1246 0.8818
C2_18 C 0.70450(14) 0.13763(20) 0.89095(12)
H2_18 H 0.6810 0.1109 0.8755
C3_18 C 0.69227(15) 0.16984(21) 0.91031(13)
C4_18 C 0.72782(16) 0.20808(23) 0.93447(15)
H3_18 H 0.7202 0.2296 0.9487
C5_18 C 0.77495(14) 0.21394(20) 0.93722(13)
H4_18 H 0.7987 0.2398 0.9535
H5_14 H 0.3599 0.2024 0.9977
C12_18 C 0.43342(13) 0.13731(19) 0.88057(11)
H10_18 H 0.4293 0.1589 0.8630
C13_18 C 0.47778(13) 0.13735(19) 0.87913(12)
H11_18 H 0.5030 0.1586 0.8611
C14_18 C 0.48393(13) 0.10486(18) 0.90532(12)
C15_18 C 0.44477(15) 0.07304(21) 0.93042(13)
H12_18 H 0.4474 0.0502 0.9475
C16_18 C 0.40149(14) 0.07526(20) 0.93008(12)
H13_18 H 0.3752 0.0534 0.9471
C17_18 C 0.53199(14) 0.10584(20) 0.90676(13)
H14_18 H 0.5378 0.0882 0.9274
C18_18 C 0.64238(16) 0.16440(23) 0.90601(15)
H15_18 H 0.6352 0.1864 0.9199
N1_10 N 0.78755(11) 0.18382(16) 0.91745(9)
N2_8 N 0.34169(12) 0.13200(17) 0.99244(10)
N4_18 N 0.60945(13) 0.13037(18) 0.88381(12)
N5_18 N 0.56508(13) 0.13085(19) 0.87978(12)
N6_10 N 0.39568(11) 0.10751(16) 0.90628(9)
N13_14 N 0.27040(11) 0.14952(16) 0.91589(9)
N14_8 N 0.32497(12) 0.12364(21) 0.84090(10)
N15_14 N 0.27098(11) 0.04516(19) 0.92706(9)
C6_15 C 0.82591(21) 0.17810(15) 0.01320(11)
C7_15 C 0.82307(23) 0.17497(16) 0.05652(12)
H6_15 H 0.7936 0.1525 0.0697
C8_15 C 0.86523(22) 0.20623(15) 0.08018(12)
C9_15 C 0.90814(23) 0.23976(16) 0.05913(11)
H7_15 H 0.9365 0.2617 0.0740
C10_15 C 0.90789(21) 0.23998(15) 0.01541(11)
H8_15 H 0.9369 0.2623 0.0015
C11_15 C 0.86532(23) 0.20294(16) 0.12614(13)
H9_15 H 0.8908 0.2280 0.1418
N3_15 N 0.82995(23) 0.16533(15) 0.14447(9)
C19_15 C 0.84075(21) 0.15524(15) 0.32014(11)
H16_15 H 0.8690 0.1758 0.3357
C20_15 C 0.84359(23) 0.15837(16) 0.27682(12)
H17_15 H 0.8730 0.1809 0.2637
C21_15 C 0.80143(22) 0.12711(15) 0.25316(12)
C22_15 C 0.75852(23) 0.09358(16) 0.27421(11)
H18_15 H 0.7301 0.0717 0.2594
C23_15 C 0.75877(21) 0.09336(15) 0.31793(11)
H19_15 H 0.7297 0.0711 0.3319
C24_15 C 0.80134(23) 0.13040(16) 0.20720(13)
H20_15 H 0.7758 0.1054 0.1916
N7_15 N 0.79866(17) 0.12364(12) 0.34090(10)
N8_15 N 0.83671(23) 0.16801(15) 0.18887(9)
Cd4_11 Cd 0.794498(10) 0.127832(10) 0.4167
H5_15 H 0.7976 0.1576 0.9977
N2_9 N 0.86800(17) 0.20970(12) 0.99244(10)
N13_15 N 0.85048(16) 0.12089(11) 0.91589(9)
N14_9 N 0.87636(21) 0.20134(17) 0.84090(10)
N15_15 N 0.95484(19) 0.22583(16) 0.92706(9)
C30_10 C 0.23324(24) 0.03722(14) 0.95277(11)
H25_10 H 0.2373 0.0629 0.9704
C34_10 C 0.26517(24) 0.00710(14) 0.90326(12)
H28_10 H 0.2914 0.0115 0.8863
C1_19 C 0.81280(18) 0.08585(13) 0.93822(12)
H1_19 H 0.7912 0.0941 0.9516
C2_19 C 0.80429(20) 0.03784(14) 0.94239(12)
H2_19 H 0.7775 0.0144 0.9579
C3_19 C 0.83650(21) 0.02561(15) 0.92303(13)
C4_19 C 0.87474(23) 0.06116(16) 0.89887(15)
H3_19 H 0.8962 0.0536 0.8847
C5_19 C 0.88060(20) 0.10829(14) 0.89612(13)
H4_19 H 0.9064 0.1321 0.8799
C6_16 C 0.84075(21) 0.68552(14) 0.82014(11)
H5_16 H 0.8690 0.6933 0.8357
C7_16 C 0.84359(23) 0.68523(16) 0.77682(12)
H6_16 H 0.8730 0.6922 0.7637
C8_16 C 0.80143(22) 0.67433(16) 0.75316(12)
C9_16 C 0.75852(23) 0.66495(16) 0.77421(11)
H7_16 H 0.7301 0.6585 0.7594
C10_16 C 0.75877(21) 0.66542(15) 0.81793(11)
H8_16 H 0.7297 0.6587 0.8319
C11_16 C 0.80134(23) 0.67095(17) 0.70720(13)
H9_16 H 0.7758 0.6705 0.6916
C12_19 C 0.80397(19) 0.76676(13) 0.95277(11)
H10_19 H 0.8255 0.7627 0.9704
C13_19 C 0.80401(19) 0.81112(13) 0.95421(12)
H11_19 H 0.8252 0.8364 0.9723
C14_19 C 0.77152(18) 0.81727(13) 0.92802(12)
C15_19 C 0.73970(21) 0.77811(15) 0.90292(13)
H12_19 H 0.7168 0.7808 0.8859
C16_19 C 0.74192(20) 0.73483(14) 0.90326(12)
H13_19 H 0.7200 0.7086 0.8863
C17_19 C 0.77250(20) 0.86533(14) 0.92658(13)
H14_19 H 0.7548 0.8712 0.9060
C18_19 C 0.83106(23) 0.97572(16) 0.92733(15)
H15_19 H 0.8530 0.9686 0.9135
N3_16 N 0.83671(23) 0.66871(17) 0.68887(9)
N4_19 N 0.79703(18) 0.94279(13) 0.94953(12)
N5_19 N 0.79751(19) 0.89842(13) 0.95356(12)
C19_16 C 0.82591(21) 0.64782(14) 0.51320(11)
H16_16 H 0.7976 0.6401 0.4977
C20_16 C 0.82307(23) 0.64811(16) 0.55652(12)
H17_16 H 0.7936 0.6412 0.5697
C21_16 C 0.86523(22) 0.65901(16) 0.58018(12)
C22_16 C 0.90814(23) 0.66839(16) 0.55913(11)
H18_16 H 0.9365 0.6749 0.5740
C23_16 C 0.90789(21) 0.66792(15) 0.51541(11)
H19_16 H 0.9369 0.6747 0.5015
C24_16 C 0.86532(23) 0.66239(17) 0.62614(13)
H20_16 H 0.8908 0.6629 0.6418
N7_16 N 0.86800(17) 0.65831(12) 0.49244(10)
N8_16 N 0.82995(23) 0.66463(17) 0.64447(9)
C25_10 C 0.91415(22) 0.72696(13) 0.93822(12)
H21_10 H 0.9059 0.6972 0.9516
C26_10 C 0.96216(24) 0.76646(14) 0.94239(12)
H22_10 H 0.9856 0.7632 0.9579
C27_10 C 0.97439(26) 0.81090(15) 0.92303(13)
C28_10 C 0.93884(28) 0.81359(16) 0.89887(15)
H23_10 H 0.9464 0.8427 0.8847
C29_10 C 0.89171(24) 0.77232(14) 0.89612(13)
H24_10 H 0.8679 0.7744 0.8799
C1_20 C 0.27304(13) 0.18720(18) 0.93822(12)
H1_20 H 0.3028 0.2088 0.9516
C2_20 C 0.23354(14) 0.19571(20) 0.94239(12)
H2_20 H 0.2368 0.2225 0.9579
C3_20 C 0.18910(15) 0.16350(21) 0.92303(13)
C4_20 C 0.18641(16) 0.12526(23) 0.89887(15)
H3_20 H 0.1573 0.1038 0.8847
C5_20 C 0.22768(14) 0.11940(20) 0.89612(13)
H4_20 H 0.2256 0.0936 0.8799
C13_20 C 0.00710(14) 0.19599(19) 0.95421(12)
H11_20 H 0.0111 0.1748 0.9723
C14_20 C 0.04574(13) 0.22848(18) 0.92802(12)
C15_20 C 0.03840(14) 0.26030(21) 0.90292(13)
H12_20 H 0.0639 0.2832 0.8859
C17_20 C 0.09282(14) 0.22750(20) 0.92658(13)
H14_20 H 0.1163 0.2452 0.9060
C18_20 C 0.14465(16) 0.16894(23) 0.92733(15)
H15_20 H 0.1155 0.1470 0.9135
N4_20 N 0.14575(13) 0.20297(18) 0.94953(12)
N5_20 N 0.10090(14) 0.20249(19) 0.95356(12)
C6_17 C 0.84476(15) 0.15925(21) 0.82014(11)
H5_17 H 0.8242 0.1310 0.8357
C7_17 C 0.84163(16) 0.15641(23) 0.77682(12)
H6_17 H 0.8191 0.1270 0.7637
C8_17 C 0.87289(15) 0.19857(22) 0.75316(12)
C9_17 C 0.90642(16) 0.24148(23) 0.77421(11)
H7_17 H 0.9283 0.2699 0.7594
C10_17 C 0.90664(15) 0.24123(21) 0.81793(11)
H8_17 H 0.9289 0.2703 0.8319
C11_17 C 0.86960(16) 0.19866(23) 0.70720(13)
H9_17 H 0.8946 0.2242 0.6916
C12_20 C 0.96278(14) 0.19603(19) 0.95277(11)
H10_20 H 0.9371 0.1745 0.9704
C16_20 C 0.99290(14) 0.25808(20) 0.90326(12)
H13_20 H 0.9885 0.2800 0.8863
N3_17 N 0.83199(15) 0.16329(23) 0.68887(9)
C19_17 C 0.82190(15) 0.17409(21) 0.51320(11)
H16_17 H 0.8424 0.2024 0.4977
C20_17 C 0.82503(16) 0.17693(23) 0.55652(12)
H17_17 H 0.8475 0.2064 0.5697
C21_17 C 0.79377(15) 0.13477(22) 0.58018(12)
C22_17 C 0.76024(16) 0.09186(23) 0.55913(11)
H18_17 H 0.7383 0.0635 0.5740
C23_17 C 0.76002(15) 0.09211(21) 0.51541(11)
H19_17 H 0.7377 0.0631 0.5015
C24_17 C 0.79706(16) 0.13468(23) 0.62614(13)
H20_17 H 0.7720 0.1092 0.6418
N7_17 N 0.79030(12) 0.13200(17) 0.49244(10)
N8_17 N 0.83467(15) 0.17005(23) 0.64447(9)
C6_18 C 0.31448(14) 0.15524(15) 0.82014(11)
H5_18 H 0.3067 0.1758 0.8357
C7_18 C 0.31477(16) 0.15837(16) 0.77682(12)
H6_18 H 0.3078 0.1809 0.7637
C8_18 C 0.32567(16) 0.12711(15) 0.75316(12)
C9_18 C 0.33505(16) 0.09358(16) 0.77421(11)
H7_18 H 0.3415 0.0717 0.7594
C10_18 C 0.33458(15) 0.09336(15) 0.81793(11)
H8_18 H 0.3413 0.0711 0.8319
C11_18 C 0.32905(17) 0.13040(16) 0.70720(13)
H9_18 H 0.3295 0.1054 0.6916
N3_18 N 0.33129(17) 0.16801(15) 0.68887(9)
C19_18 C 0.35218(14) 0.17810(15) 0.51320(11)
H16_18 H 0.3599 0.1576 0.4977
C20_18 C 0.35189(16) 0.17497(16) 0.55652(12)
H17_18 H 0.3588 0.1525 0.5697
C21_18 C 0.34099(16) 0.20623(15) 0.58018(12)
C22_18 C 0.33161(16) 0.23976(16) 0.55913(11)
H18_18 H 0.3251 0.2617 0.5740
C23_18 C 0.33208(15) 0.23998(15) 0.51541(11)
H19_18 H 0.3253 0.2623 0.5015
C24_18 C 0.33761(17) 0.20294(16) 0.62614(13)
H20_18 H 0.3371 0.2280 0.6418
N7_18 N 0.34169(12) 0.20970(12) 0.49244(10)
N8_18 N 0.33537(17) 0.16533(15) 0.64447(9)
C1_21 C 0.27304(13) 0.08585(13) 0.43822(12)
H1_21 H 0.3028 0.0941 0.4516
C2_21 C 0.23354(14) 0.03784(14) 0.44239(12)
H2_21 H 0.2368 0.0144 0.4579
C3_21 C 0.18910(15) 0.02561(15) 0.42303(13)
C4_21 C 0.18641(16) 0.06116(16) 0.39887(15)
H3_21 H 0.1573 0.0536 0.3847
C5_21 C 0.22768(14) 0.10829(14) 0.39612(13)
H4_21 H 0.2256 0.1321 0.3799
N1_11 N 0.27040(11) 0.12089(11) 0.41589(9)
C30_11 C 0.80397(19) 0.03722(14) 0.45277(11)
H25_11 H 0.8255 0.0629 0.4704
C34_11 C 0.74192(20) 0.00710(14) 0.40326(12)
H28_11 H 0.7200 0.0115 0.3863
N12_6 N 0.77417(16) 0.04516(11) 0.42706(9)
C12_21 C 0.96278(14) 0.76676(13) 0.45277(11)
H10_21 H 0.9371 0.7627 0.4704
C16_21 C 0.99290(14) 0.73483(14) 0.40326(12)
H13_21 H 0.9885 0.7086 0.3863
N6_11 N 0.95484(11) 0.72902(11) 0.42706(9)
C25_11 C 0.81280(18) 0.72696(13) 0.43822(12)
H21_11 H 0.7912 0.6972 0.4516
C26_11 C 0.80429(20) 0.76646(14) 0.44239(12)
H22_11 H 0.7775 0.7632 0.4579
C27_11 C 0.83650(21) 0.81090(15) 0.42303(13)
C28_11 C 0.87474(23) 0.81359(16) 0.39887(15)
H23_11 H 0.8962 0.8427 0.3847
C29_11 C 0.88060(20) 0.77232(14) 0.39612(13)
H24_11 H 0.9064 0.7744 0.3799
C31_9 C 0.80401(19) 0.99290(14) 0.45421(12)
H26_9 H 0.8252 0.9889 0.4723
C32_9 C 0.77152(18) 0.95426(13) 0.42802(12)
C33_9 C 0.73970(21) 0.96160(14) 0.40292(13)
H27_9 H 0.7168 0.9361 0.3859
C35_9 C 0.77250(20) 0.90718(14) 0.42658(13)
H29_9 H 0.7548 0.8837 0.4060
C36_9 C 0.83106(23) 0.85535(16) 0.42733(15)
H30_9 H 0.8530 0.8845 0.4135
N9_6 N 0.85048(16) 0.72960(11) 0.41589(9)
N10_9 N 0.79703(18) 0.85425(13) 0.44953(12)
N11_9 N 0.79751(19) 0.89910(14) 0.45356(12)
N13_16 N 0.78755(11) 0.60374(11) 0.41745(9)
N15_16 N 0.89249(16) 0.60432(11) 0.40628(9)
C12_22 C 0.23324(13) 0.19603(19) 0.45277(11)
H10_22 H 0.2373 0.1745 0.4704
C13_21 C 0.18888(13) 0.19599(19) 0.45421(12)
H11_21 H 0.1636 0.1748 0.4723
C14_21 C 0.18273(13) 0.22848(18) 0.42802(12)
C15_21 C 0.22189(15) 0.26030(21) 0.40292(13)
H12_21 H 0.2192 0.2832 0.3859
C16_22 C 0.26517(14) 0.25808(20) 0.40326(12)
H13_22 H 0.2914 0.2800 0.3863
C17_21 C 0.13467(14) 0.22750(20) 0.42658(13)
H14_21 H 0.1288 0.2452 0.4060
C18_21 C 0.02428(16) 0.16894(23) 0.42733(15)
H15_21 H 0.0314 0.1470 0.4135
N4_21 N 0.05721(13) 0.20297(18) 0.44953(12)
N5_21 N 0.10158(13) 0.20249(19) 0.45356(12)
N6_12 N 0.27098(11) 0.22583(16) 0.42706(9)
N13_17 N 0.39626(11) 0.18382(16) 0.41745(9)
N15_17 N 0.39568(11) 0.28818(19) 0.40628(9)
C1_22 C 0.91415(13) 0.18720(18) 0.43822(12)
H1_22 H 0.9059 0.2088 0.4516
C2_22 C 0.96216(14) 0.19571(20) 0.44239(12)
H2_22 H 0.9856 0.2225 0.4579
C3_22 C 0.97439(15) 0.16350(21) 0.42303(13)
C4_22 C 0.93884(16) 0.12526(23) 0.39887(15)
H3_22 H 0.9464 0.1038 0.3847
C5_22 C 0.89171(14) 0.11940(20) 0.39612(13)
H4_22 H 0.8679 0.0936 0.3799
N1_12 N 0.87911(11) 0.14952(16) 0.41589(9)
N13_18 N 0.81618(16) 0.21245(11) 0.41745(9)
N15_18 N 0.71182(19) 0.10751(16) 0.40628(9)
C1_23 C 0.85386(18) 0.24749(13) 0.39512(12)
H1_23 H 0.8754 0.2393 0.3818
C2_23 C 0.86237(20) 0.29550(14) 0.39095(12)
H2_23 H 0.8891 0.3190 0.3755
C3_23 C 0.83016(21) 0.30773(15) 0.41031(13)
C4_23 C 0.79192(23) 0.27218(16) 0.43447(15)
H3_23 H 0.7704 0.2798 0.4487
C5_23 C 0.78606(20) 0.22505(14) 0.43722(13)
H4_23 H 0.7602 0.2013 0.4535
C12_23 C 0.86269(19) 0.56658(13) 0.38057(11)
H10_23 H 0.8411 0.5707 0.3630
C13_22 C 0.86265(19) 0.52222(13) 0.37913(12)
H11_22 H 0.8414 0.4970 0.3611
C14_22 C 0.89514(18) 0.51607(13) 0.40532(12)
C15_22 C 0.92696(21) 0.55523(15) 0.43042(13)
H12_22 H 0.9498 0.5526 0.4475
C16_23 C 0.92474(20) 0.59851(14) 0.43008(12)
H13_23 H 0.9466 0.6248 0.4471
C17_22 C 0.89416(20) 0.46801(14) 0.40676(13)
H14_22 H 0.9118 0.4622 0.4274
C18_22 C 0.83560(23) 0.35762(16) 0.40601(15)
H15_22 H 0.8136 0.3648 0.4199
N4_22 N 0.86963(18) 0.39055(13) 0.38381(12)
N5_22 N 0.86915(19) 0.43492(13) 0.37978(12)
C25_12 C 0.75251(22) 0.60638(13) 0.39512(12)
H21_12 H 0.7607 0.6362 0.3818
C26_12 C 0.70450(24) 0.56688(14) 0.39095(12)
H22_12 H 0.6810 0.5702 0.3755
C27_12 C 0.69227(26) 0.52244(15) 0.41031(13)
C28_12 C 0.72782(28) 0.51975(16) 0.43447(15)
H23_12 H 0.7202 0.4907 0.4487
C29_12 C 0.77495(24) 0.56102(14) 0.43722(13)
H24_12 H 0.7987 0.5590 0.4535
C30_12 C 0.43342(24) 0.29612(14) 0.38057(11)
H25_12 H 0.4293 0.2705 0.3630
C31_10 C 0.47778(24) 0.34044(14) 0.37913(12)
H26_10 H 0.5030 0.3445 0.3611
C32_10 C 0.48393(22) 0.37908(13) 0.40532(12)
C33_10 C 0.44477(25) 0.37174(14) 0.43042(13)
H27_10 H 0.4474 0.3973 0.4475
C34_12 C 0.40149(24) 0.32624(14) 0.43008(12)
H28_12 H 0.3752 0.3219 0.4471
C35_10 C 0.53199(24) 0.42616(14) 0.40676(13)
H29_10 H 0.5378 0.4497 0.4274
C36_10 C 0.64238(28) 0.47799(16) 0.40601(15)
H30_10 H 0.6352 0.4489 0.4199
N10_10 N 0.60945(22) 0.47909(13) 0.38381(12)
N11_10 N 0.56508(24) 0.43424(14) 0.37978(12)
C1_24 C 0.39362(13) 0.14614(18) 0.39512(12)
H1_24 H 0.3638 0.1246 0.3818
C2_24 C 0.43312(14) 0.13763(20) 0.39095(12)
H2_24 H 0.4298 0.1109 0.3755
C3_24 C 0.47756(15) 0.16984(21) 0.41031(13)
C4_24 C 0.48025(16) 0.20808(23) 0.43447(15)
H3_24 H 0.5093 0.2296 0.4487
C5_24 C 0.43898(14) 0.21394(20) 0.43722(13)
H4_24 H 0.4410 0.2398 0.4535
C12_24 C 0.70388(14) 0.13731(19) 0.38057(11)
H10_24 H 0.7295 0.1589 0.3630
C13_23 C 0.65956(14) 0.13735(19) 0.37913(12)
H11_23 H 0.6555 0.1586 0.3611
C14_23 C 0.62092(13) 0.10486(18) 0.40532(12)
C15_23 C 0.62826(14) 0.07304(21) 0.43042(13)
H12_23 H 0.6027 0.0502 0.4475
C16_24 C 0.67376(14) 0.07526(20) 0.43008(12)
H13_24 H 0.6781 0.0534 0.4471
C17_23 C 0.57384(14) 0.10584(20) 0.40676(13)
H14_23 H 0.5503 0.0882 0.4274
C18_23 C 0.52201(16) 0.16440(23) 0.40601(15)
H15_23 H 0.5511 0.1864 0.4199
N4_23 N 0.52091(13) 0.13037(18) 0.38381(12)
N5_23 N 0.56576(14) 0.13085(19) 0.37978(12)
C31_11 C 0.18888(24) 0.99290(14) 0.95421(12)
H26_11 H 0.1636 0.9889 0.9723
C32_11 C 0.18273(22) 0.95426(13) 0.92802(12)
C33_11 C 0.22189(25) 0.96160(14) 0.90292(13)
H27_11 H 0.2192 0.9361 0.8859
C35_11 C 0.13467(24) 0.90718(14) 0.92658(13)
H29_11 H 0.1288 0.8837 0.9060
C36_11 C 0.02428(28) 0.85535(16) 0.92733(15)
H30_11 H 0.0314 0.8845 0.9135
N10_11 N 0.05721(22) 0.85425(13) 0.94953(12)
N11_11 N 0.10158(24) 0.89910(14) 0.95356(12)
C13_24 C 0.00710(14) 0.81112(13) 0.45421(12)
H11_24 H 0.0111 0.8364 0.4723
C14_24 C 0.04574(13) 0.81727(13) 0.42802(12)
C15_24 C 0.03840(14) 0.77811(15) 0.40292(13)
H12_24 H 0.0639 0.7808 0.3859
C17_24 C 0.09282(14) 0.86533(14) 0.42658(13)
H14_24 H 0.1163 0.8712 0.4060
C18_24 C 0.14465(16) 0.97572(16) 0.42733(15)
H15_24 H 0.1155 0.9686 0.4135
N4_24 N 0.14575(13) 0.94279(13) 0.44953(12)
N5_24 N 0.10090(14) 0.89842(13) 0.45356(12)
C31_12 C 0.81112(24) 0.00710(14) 0.04579(12)
H26_12 H 0.8364 0.0111 0.0277
C32_12 C 0.81727(22) 0.04574(13) 0.07198(12)
C33_12 C 0.77811(25) 0.03840(14) 0.09708(13)
H27_12 H 0.7808 0.0639 0.1141
C35_12 C 0.86533(24) 0.09282(14) 0.07342(13)
H29_12 H 0.8712 0.1163 0.0940
C36_12 C 0.97572(28) 0.14465(16) 0.07267(15)
H30_12 H 0.9686 0.1155 0.0865
N10_12 N 0.94279(22) 0.14575(13) 0.05047(12)
N11_12 N 0.89842(24) 0.10090(14) 0.04644(12)
Cl1 Cl 0.30504(8) 0.01829(7) 0.33637(12)
O1 O 0.2775(3) 0.0398(3) 0.3465(3)
O2 O 0.3528(3) 0.0504(3) 0.3238(3)
O3 O 0.3146(3) 0.0142(3) 0.37548(15)
O4 O 0.2874(3) 0.9718(3) 0.3312(3)
O4_2 O 0.0282(3) 0.3156(4) 0.3312(3)
Cl1_2 Cl 0.98171(7) 0.28675(11) 0.33637(12)
O1_2 O 0.9602(3) 0.2377(4) 0.3465(3)
O2_2 O 0.9496(3) 0.3024(4) 0.3238(3)
O3_2 O 0.9858(3) 0.3004(4) 0.37548(15)
Cl1_3 Cl 0.71325(11) 0.69496(8) 0.33637(12)
O1_3 O 0.7623(4) 0.7225(3) 0.3465(3)
O2_3 O 0.6976(4) 0.6472(3) 0.3238(3)
O3_3 O 0.6996(4) 0.6854(3) 0.37548(15)
O4_3 O 0.6844(4) 0.7126(3) 0.3312(3)
O4_4 O 0.3156(4) 0.0282(3) 0.1688(3)
Cl1_4 Cl 0.28675(11) 0.98171(7) 0.16363(12)
O1_4 O 0.2377(4) 0.9602(3) 0.1535(3)
O2_4 O 0.3024(4) 0.9496(3) 0.1762(3)
O3_4 O 0.3004(4) 0.9858(3) 0.12452(15)
Cl1_5 Cl 0.69496(8) 0.71325(11) 0.16363(12)
O1_5 O 0.7225(3) 0.7623(4) 0.1535(3)
O2_5 O 0.6472(3) 0.6976(4) 0.1762(3)
O3_5 O 0.6854(3) 0.6996(4) 0.12452(15)
O4_5 O 0.7126(3) 0.6844(4) 0.1688(3)
Cl1_6 Cl 0.01829(7) 0.30504(8) 0.16363(12)
O1_6 O 0.0398(3) 0.2775(3) 0.1535(3)
O2_6 O 0.0504(3) 0.3528(3) 0.1762(3)
O3_6 O 0.0142(3) 0.3146(3) 0.12452(15)
O4_6 O 0.9718(3) 0.2874(3) 0.1688(3)
O2_7 O 0.0195(3) 0.3837(3) 0.6571(3)
Cl1_7 Cl 0.97171(8) 0.35162(7) 0.66970(12)
O1_7 O 0.9442(3) 0.3731(3) 0.6798(3)
O3_7 O 0.9813(3) 0.3475(3) 0.70881(15)
O4_7 O 0.9541(3) 0.3051(3) 0.6645(3)
Cl1_8 Cl 0.64838(7) 0.62008(11) 0.66970(12)
O1_8 O 0.6269(3) 0.5710(4) 0.6798(3)
O2_8 O 0.6163(3) 0.6357(4) 0.6571(3)
O3_8 O 0.6525(3) 0.6337(4) 0.70881(15)
O4_8 O 0.6949(3) 0.6489(4) 0.6645(3)
Cl1_9 Cl 0.37992(11) 0.02829(8) 0.66970(12)
O1_9 O 0.4290(4) 0.0558(3) 0.6798(3)
O3_9 O 0.3663(4) 0.0187(3) 0.70881(15)
O4_9 O 0.3511(4) 0.0459(3) 0.6645(3)
O2_9 O 0.3643(4) 0.9805(3) 0.6571(3)
Cl1_10 Cl 0.95342(11) 0.31504(7) 0.49696(12)
O1_10 O 0.9044(4) 0.2935(3) 0.4868(3)
O2_10 O 0.9691(4) 0.2829(3) 0.5095(3)
O3_10 O 0.9671(4) 0.3191(3) 0.45785(15)
O4_10 O 0.9823(4) 0.3615(3) 0.5021(3)
Cl1_11 Cl 0.36163(8) 0.04658(11) 0.49696(12)
O1_11 O 0.3892(3) 0.0956(4) 0.4868(3)
O2_11 O 0.3139(3) 0.0309(4) 0.5095(3)
O3_11 O 0.3521(3) 0.0329(4) 0.45785(15)
O4_11 O 0.3793(3) 0.0177(4) 0.5021(3)
Cl1_12 Cl 0.68496(7) 0.63837(8) 0.49696(12)
O1_12 O 0.7065(3) 0.6108(3) 0.4868(3)
O2_12 O 0.7171(3) 0.6861(3) 0.5095(3)
O3_12 O 0.6809(3) 0.6479(3) 0.45785(15)
O4_12 O 0.6385(3) 0.6207(3) 0.5021(3)
Cl1_13 Cl 0.63837(8) 0.68496(7) 0.00304(12)
O1_13 O 0.6108(3) 0.7065(3) 0.0132(3)
O3_13 O 0.6479(3) 0.6809(3) 0.04215(15)
O2_13 O 0.6861(3) 0.7171(3) 0.9905(3)
O4_13 O 0.6207(3) 0.6385(3) 0.9979(3)
Cl1_14 Cl 0.31504(7) 0.95342(11) 0.00304(12)
O1_14 O 0.2935(3) 0.9044(4) 0.0132(3)
O3_14 O 0.3191(3) 0.9671(4) 0.04215(15)
O2_14 O 0.2829(3) 0.9691(4) 0.9905(3)
O4_14 O 0.3615(3) 0.9823(4) 0.9979(3)
Cl1_15 Cl 0.04658(11) 0.36163(8) 0.00304(12)
O1_15 O 0.0956(4) 0.3892(3) 0.0132(3)
O3_15 O 0.0329(4) 0.3521(3) 0.04215(15)
O2_15 O 0.0309(4) 0.3139(3) 0.9905(3)
O4_15 O 0.0177(4) 0.3793(3) 0.9979(3)
Cl1_16 Cl 0.62008(11) 0.64838(7) 0.83030(12)
O1_16 O 0.5710(4) 0.6269(3) 0.8202(3)
O2_16 O 0.6357(4) 0.6163(3) 0.8429(3)
O3_16 O 0.6337(4) 0.6525(3) 0.79119(15)
O4_16 O 0.6489(4) 0.6949(3) 0.8355(3)
Cl1_17 Cl 0.02829(8) 0.37992(11) 0.83030(12)
O1_17 O 0.0558(3) 0.4290(4) 0.8202(3)
O3_17 O 0.0187(3) 0.3663(4) 0.79119(15)
O4_17 O 0.0459(3) 0.3511(4) 0.8355(3)
O2_17 O 0.9805(3) 0.3643(4) 0.8429(3)
O2_18 O 0.3837(3) 0.0195(3) 0.8429(3)
Cl1_18 Cl 0.35162(7) 0.97171(8) 0.83030(12)
O1_18 O 0.3731(3) 0.9442(3) 0.8202(3)
O3_18 O 0.3475(3) 0.9813(3) 0.79119(15)
O4_18 O 0.3051(3) 0.9541(3) 0.8355(3)
O4_19 O 0.7126(3) 0.0282(3) 0.6688(3)
Cl1_19 Cl 0.69496(8) 0.98171(7) 0.66363(12)
O1_19 O 0.7225(3) 0.9602(3) 0.6535(3)
O2_19 O 0.6472(3) 0.9496(3) 0.6762(3)
O3_19 O 0.6854(3) 0.9858(3) 0.62452(15)
Cl1_20 Cl 0.01829(7) 0.71325(11) 0.66363(12)
O1_20 O 0.0398(3) 0.7623(4) 0.6535(3)
O2_20 O 0.0504(3) 0.6976(4) 0.6762(3)
O3_20 O 0.0142(3) 0.6996(4) 0.62452(15)
O4_20 O 0.9718(3) 0.6844(4) 0.6688(3)
Cl1_21 Cl 0.28675(11) 0.30504(8) 0.66363(12)
O1_21 O 0.2377(4) 0.2775(3) 0.6535(3)
O2_21 O 0.3024(4) 0.3528(3) 0.6762(3)
O3_21 O 0.3004(4) 0.3146(3) 0.62452(15)
O4_21 O 0.3156(4) 0.2874(3) 0.6688(3)
Cl1_22 Cl 0.71325(11) 0.01829(7) 0.83637(12)
O1_22 O 0.7623(4) 0.0398(3) 0.8465(3)
O2_22 O 0.6976(4) 0.0504(3) 0.8238(3)
O3_22 O 0.6996(4) 0.0142(3) 0.87548(15)
O4_22 O 0.6844(4) 0.9718(3) 0.8312(3)
Cl1_23 Cl 0.30504(8) 0.28675(11) 0.83637(12)
O1_23 O 0.2775(3) 0.2377(4) 0.8465(3)
O2_23 O 0.3528(3) 0.3024(4) 0.8238(3)
O3_23 O 0.3146(3) 0.3004(4) 0.87548(15)
O4_23 O 0.2874(3) 0.3156(4) 0.8312(3)
O4_24 O 0.0282(3) 0.7126(3) 0.8312(3)
Cl1_24 Cl 0.98171(7) 0.69496(8) 0.83637(12)
O1_24 O 0.9602(3) 0.7225(3) 0.8465(3)
O2_24 O 0.9496(3) 0.6472(3) 0.8238(3)
O3_24 O 0.9858(3) 0.6854(3) 0.87548(15)
Cl1_25 Cl 0.02829(8) 0.64838(7) 0.33030(12)
O1_25 O 0.0558(3) 0.6269(3) 0.3202(3)
O3_25 O 0.0187(3) 0.6525(3) 0.29119(15)
O4_25 O 0.0459(3) 0.6949(3) 0.3355(3)
O2_25 O 0.9805(3) 0.6163(3) 0.3429(3)
Cl1_26 Cl 0.35162(7) 0.37992(11) 0.33030(12)
O1_26 O 0.3731(3) 0.4290(4) 0.3202(3)
O2_26 O 0.3837(3) 0.3643(4) 0.3429(3)
O3_26 O 0.3475(3) 0.3663(4) 0.29119(15)
O4_26 O 0.3051(3) 0.3511(4) 0.3355(3)
O2_27 O 0.6357(4) 0.0195(3) 0.3429(3)
Cl1_27 Cl 0.62008(11) 0.97171(8) 0.33030(12)
O1_27 O 0.5710(4) 0.9442(3) 0.3202(3)
O3_27 O 0.6337(4) 0.9813(3) 0.29119(15)
O4_27 O 0.6489(4) 0.9541(3) 0.3355(3)
Cl1_28 Cl 0.04658(11) 0.68496(7) 0.50304(12)
O1_28 O 0.0956(4) 0.7065(3) 0.5132(3)
O2_28 O 0.0309(4) 0.7171(3) 0.4905(3)
O3_28 O 0.0329(4) 0.6809(3) 0.54215(15)
O4_28 O 0.0177(4) 0.6385(3) 0.4979(3)
Cl1_29 Cl 0.63837(8) 0.95342(11) 0.50304(12)
O1_29 O 0.6108(3) 0.9044(4) 0.5132(3)
O2_29 O 0.6861(3) 0.9691(4) 0.4905(3)
O3_29 O 0.6479(3) 0.9671(4) 0.54215(15)
O4_29 O 0.6207(3) 0.9823(4) 0.4979(3)
Cl1_30 Cl 0.31504(7) 0.36163(8) 0.50304(12)
O1_30 O 0.2935(3) 0.3892(3) 0.5132(3)
O2_30 O 0.2829(3) 0.3139(3) 0.4905(3)
O3_30 O 0.3191(3) 0.3521(3) 0.54215(15)
O4_30 O 0.3615(3) 0.3793(3) 0.4979(3)
O2_31 O 0.3139(3) 0.2829(3) 0.0095(3)
O4_31 O 0.3793(3) 0.3615(3) 0.0021(3)
Cl1_31 Cl 0.36163(8) 0.31504(7) 0.99696(12)
O1_31 O 0.3892(3) 0.2935(3) 0.9868(3)
O3_31 O 0.3521(3) 0.3191(3) 0.95785(15)
O2_32 O 0.7171(3) 0.0309(4) 0.0095(3)
O4_32 O 0.6385(3) 0.0177(4) 0.0021(3)
Cl1_32 Cl 0.68496(7) 0.04658(11) 0.99696(12)
O1_32 O 0.7065(3) 0.0956(4) 0.9868(3)
O3_32 O 0.6809(3) 0.0329(4) 0.95785(15)
O2_33 O 0.9691(4) 0.6861(3) 0.0095(3)
O4_33 O 0.9823(4) 0.6207(3) 0.0021(3)
Cl1_33 Cl 0.95342(11) 0.63837(8) 0.99696(12)
O1_33 O 0.9044(4) 0.6108(3) 0.9868(3)
O3_33 O 0.9671(4) 0.6479(3) 0.95785(15)
Cl1_34 Cl 0.37992(11) 0.35162(7) 0.16970(12)
O1_34 O 0.4290(4) 0.3731(3) 0.1798(3)
O2_34 O 0.3643(4) 0.3837(3) 0.1571(3)
O3_34 O 0.3663(4) 0.3475(3) 0.20881(15)
O4_34 O 0.3511(4) 0.3051(3) 0.1645(3)
O2_35 O 0.0195(3) 0.6357(4) 0.1571(3)
Cl1_35 Cl 0.97171(8) 0.62008(11) 0.16970(12)
O1_35 O 0.9442(3) 0.5710(4) 0.1798(3)
O3_35 O 0.9813(3) 0.6337(4) 0.20881(15)
O4_35 O 0.9541(3) 0.6489(4) 0.1645(3)
Cl1_36 Cl 0.64838(7) 0.02829(8) 0.16970(12)
O1_36 O 0.6269(3) 0.0558(3) 0.1798(3)
O3_36 O 0.6525(3) 0.0187(3) 0.20881(15)
O4_36 O 0.6949(3) 0.0459(3) 0.1645(3)
O2_36 O 0.6163(3) 0.9805(3) 0.1571(3)
loop_
_geom_bond_atom_site_label_1
_geom_bond_atom_site_label_2
_geom_bond_site_symmetry_1
_geom_bond_site_symmetry_2
H7 C9 1_555 1_555
C10 C9 1_555 1_555
H8 C10 1_555 1_555
C19 H16 1_555 1_555
C20 C19 1_555 1_555
H17 C20 1_555 1_555
C21 C20 1_555 1_555
C24 C21 1_555 1_555
H20 C24 1_555 1_555
N7 C19 1_555 1_555
Cd4 N7 1_555 1_555
N13 Cd1 1_555 1_555
N14 Cd1 1_555 1_555
N15 Cd1 1_555 1_555
C24 N8 1_555 1_555
C1 H1 1_555 1_555
C2 C1 1_555 1_555
H2 C2 1_555 1_555
C3 C2 1_555 1_555
C4 C3 1_555 1_555
H3 C4 1_555 1_555
C5 C4 1_555 1_555
H4 C5 1_555 1_555
C6 H5 1_555 1_555
C7 C6 1_555 1_555
H6 C7 1_555 1_555
C8 C7 1_555 1_555
C11 C8 1_555 1_555
H9 C11 1_555 1_555
C12 H10 1_555 1_555
C13 C12 1_555 1_555
H11 C13 1_555 1_555
C14 C13 1_555 1_555
C15 C14 1_555 1_555
H12 C15 1_555 1_555
C16 C15 1_555 1_555
H13 C16 1_555 1_555
C17 C14 1_555 1_555
H14 C17 1_555 1_555
C18 C3 1_555 1_555
H15 C18 1_555 1_555
Cd1_2 N2 1_555 1_555
N1 C1 1_555 1_555
N2 C6 1_555 1_555
N3 C11 1_555 1_555
N4 C18 1_555 1_555
N5 C17 1_555 1_555
N6 C12 1_555 1_555
H18 C22 1_555 1_555
C23 C22 1_555 1_555
H19 C23 1_555 1_555
C25 H21 1_555 1_555
C26 C25 1_555 1_555
H22 C26 1_555 1_555
C27 C26 1_555 1_555
C28 C27 1_555 1_555
H23 C28 1_555 1_555
C29 C28 1_555 1_555
H24 C29 1_555 1_555
C30 H25 1_555 1_555
C31 C30 1_555 1_555
H26 C31 1_555 1_555
C32 C31 1_555 1_555
C33 C32 1_555 1_555
H27 C33 1_555 1_555
C34 C33 1_555 1_555
H28 C34 1_555 1_555
C35 C32 1_555 1_555
H29 C35 1_555 1_555
C36 C27 1_555 1_555
H30 C36 1_555 1_555
N9 Cd1_2 1_555 1_555
N10 C36 1_555 1_555
N11 C35 1_555 1_555
N12 C30 1_555 1_555
Cd2 N1 1_555 1_555
Cd3 N12 1_555 1_555
C5 N1 1_555 1_555
C16 N6 1_555 1_555
Cd1_2 N6 1_555 1_555
N4 N5 1_555 1_555
C25 N9 1_555 1_555
C29 N9 1_555 1_555
C34 N12 1_555 1_555
N10 N11 1_555 1_555
C1_2 H1_2 1_555 1_555
C2_2 C1_2 1_555 1_555
H2_2 C2_2 1_555 1_555
C3_2 C2_2 1_555 1_555
C4_2 C3_2 1_555 1_555
H3_2 C4_2 1_555 1_555
C5_2 C4_2 1_555 1_555
H4_2 C5_2 1_555 1_555
C6_2 H5_2 1_555 1_555
C7_2 C6_2 1_555 1_555
H6_2 C7_2 1_555 1_555
C8_2 C7_2 1_555 1_555
C11_2 C8_2 1_555 1_555
H9_2 C11_2 1_555 1_555
C12_2 H10_2 1_555 1_555
C13_2 C12_2 1_555 1_555
H11_2 C13_2 1_555 1_555
C14_2 C13_2 1_555 1_555
C15_2 C14_2 1_555 1_555
H12_2 C15_2 1_555 1_555
C16_2 C15_2 1_555 1_555
H13_2 C16_2 1_555 1_555
C17_2 C14_2 1_555 1_555
H14_2 C17_2 1_555 1_555
C18_2 C3_2 1_555 1_555
H15_2 C18_2 1_555 1_555
Cd2 N2_2 1_555 1_555
N1_2 C1_2 1_555 1_555
N2_2 C6_2 1_555 1_555
N3_2 C11_2 1_555 1_555
N4_2 C18_2 1_555 1_555
N5_2 C17_2 1_555 1_555
N6_2 C12_2 1_555 1_555
H18_2 C22_2 1_555 1_555
C23_2 C22_2 1_555 1_555
H19_2 C23_2 1_555 1_555
Cd3 N1_2 1_555 1_555
C5_2 N1_2 1_555 1_555
C16_2 N6_2 1_555 1_555
Cd2 N6_2 1_555 1_555
N4_2 N5_2 1_555 1_555
H7_2 C9_2 1_555 1_555
C10_2 C9_2 1_555 1_555
H8_2 C10_2 1_555 1_555
C19_2 H16_2 1_555 1_555
C20_2 C19_2 1_555 1_555
H17_2 C20_2 1_555 1_555
C21_2 C20_2 1_555 1_555
C24_2 C21_2 1_555 1_555
H20_2 C24_2 1_555 1_555
N7_2 C19_2 1_555 1_555
Cd4_4 N7_2 1_555 1_555
N13_2 Cd2_2 1_555 1_555
N14_2 Cd2_2 1_555 1_555
N15_2 Cd2_2 1_555 1_555
C24_2 N8_2 1_555 1_555
C6_3 H5_3 1_555 1_555
C7_3 C6_3 1_555 1_555
H6_3 C7_3 1_555 1_555
C8_3 C7_3 1_555 1_555
C9_3 C8_3 1_555 1_555
H7_3 C9_3 1_555 1_555
C10_3 C9_3 1_555 1_555
H8_3 C10_3 1_555 1_555
C11_3 C8_3 1_555 1_555
H9_3 C11_3 1_555 1_555
Cd3 N2_3 1_555 1_555
N2_3 C6_3 1_555 1_555
N3_3 C11_3 1_555 1_555
C19_3 H16_3 1_555 1_555
C20_3 C19_3 1_555 1_555
H17_3 C20_3 1_555 1_555
C21_3 C20_3 1_555 1_555
C22_3 C21_3 1_555 1_555
H18_3 C22_3 1_555 1_555
C23_3 C22_3 1_555 1_555
H19_3 C23_3 1_555 1_555
C24_3 C21_3 1_555 1_555
H20_3 C24_3 1_555 1_555
N7_3 C19_3 1_555 1_555
N8_3 N3_3 1_555 1_555
Cd4_5 N7_3 1_555 1_555
N13_3 Cd3 1_555 1_555
N14_3 Cd3 1_555 1_555
N15_3 Cd3 1_555 1_555
C10_3 N2_3 1_555 1_555
C23_3 N7_3 1_555 1_555
C24_3 N8_3 1_555 1_555
C1_3 H1_3 1_555 1_555
C2_3 C1_3 1_555 1_555
H2_3 C2_3 1_555 1_555
C3_3 C2_3 1_555 1_555
C4_3 C3_3 1_555 1_555
H3_3 C4_3 1_555 1_555
C5_3 C4_3 1_555 1_555
H4_3 C5_3 1_555 1_555
C6_4 H5_4 1_555 1_555
C7_4 C6_4 1_555 1_555
H6_4 C7_4 1_555 1_555
C8_4 C7_4 1_555 1_555
C11_4 C8_4 1_555 1_555
H9_4 C11_4 1_555 1_555
C12_3 H10_3 1_555 1_555
C13_3 C12_3 1_555 1_555
H11_3 C13_3 1_555 1_555
C14_3 C13_3 1_555 1_555
C15_3 C14_3 1_555 1_555
H12_3 C15_3 1_555 1_555
C16_3 C15_3 1_555 1_555
H13_3 C16_3 1_555 1_555
C17_3 C14_3 1_555 1_555
H14_3 C17_3 1_555 1_555
C18_3 C3_3 1_555 1_555
H15_3 C18_3 1_555 1_555
N13_3 C1_3 1_555 1_555
N14 C6_4 1_555 1_555
N3_4 C11_4 1_555 1_555
N4_3 C18_3 1_555 1_555
N5_3 C17_3 1_555 1_555
N15 C12_3 1_555 1_555
C25_2 H21_2 1_555 1_555
C26_2 C25_2 1_555 1_555
H22_2 C26_2 1_555 1_555
C27_2 C26_2 1_555 1_555
C28_2 C27_2 1_555 1_555
H23_2 C28_2 1_555 1_555
C29_2 C28_2 1_555 1_555
H24_2 C29_2 1_555 1_555
C30_2 H25_2 1_555 1_555
C31_2 C30_2 1_555 1_555
H26_2 C31_2 1_555 1_555
C32_2 C31_2 1_555 1_555
C33_2 C32_2 1_555 1_555
H27_2 C33_2 1_555 1_555
C34_2 C33_2 1_555 1_555
H28_2 C34_2 1_555 1_555
C35_2 C32_2 1_555 1_555
H29_2 C35_2 1_555 1_555
C36_2 C27_2 1_555 1_555
H30_2 C36_2 1_555 1_555
N10_2 C36_2 1_555 1_555
N11_2 C35_2 1_555 1_555
N15_2 C30_2 1_555 1_555
C5_3 N13_3 1_555 1_555
C16_3 N15 1_555 1_555
N4_3 N5_3 1_555 1_555
C25_2 N13 1_555 1_555
C29_2 N13 1_555 1_555
C34_2 N15_2 1_555 1_555
N10_2 N11_2 1_555 1_555
H18_4 C22_4 1_555 1_555
C23_4 C22_4 1_555 1_555
H19_4 C23_4 1_555 1_555
H7_4 C9_4 1_555 1_555
C10_4 C9_4 1_555 1_555
H8_4 C10_4 1_555 1_555
C19_4 H16_4 1_555 1_555
C20_4 C19_4 1_555 1_555
H17_4 C20_4 1_555 1_555
C21_4 C20_4 1_555 1_555
C24_4 C21_4 1_555 1_555
H20_4 C24_4 1_555 1_555
N7_4 C19_4 1_555 1_555
Cd4_2 N7_4 1_555 1_555
C24_4 N8_4 1_555 1_555
C1_4 H1_4 1_555 1_555
C2_4 C1_4 1_555 1_555
H2_4 C2_4 1_555 1_555
C3_4 C2_4 1_555 1_555
C4_4 C3_4 1_555 1_555
H3_4 C4_4 1_555 1_555
C5_4 C4_4 1_555 1_555
H4_4 C5_4 1_555 1_555
C6_5 H5_5 1_555 1_555
C7_5 C6_5 1_555 1_555
H6_5 C7_5 1_555 1_555
C8_5 C7_5 1_555 1_555
C9_5 C8_5 1_555 1_555
H7_5 C9_5 1_555 1_555
C10_5 C9_5 1_555 1_555
H8_5 C10_5 1_555 1_555
C11_5 C8_5 1_555 1_555
H9_5 C11_5 1_555 1_555
C12_4 H10_4 1_555 1_555
C13_4 C12_4 1_555 1_555
H11_4 C13_4 1_555 1_555
C14_4 C13_4 1_555 1_555
C15_4 C14_4 1_555 1_555
H12_4 C15_4 1_555 1_555
C16_4 C15_4 1_555 1_555
H13_4 C16_4 1_555 1_555
C17_4 C14_4 1_555 1_555
H14_4 C17_4 1_555 1_555
C18_4 C3_4 1_555 1_555
H15_4 C18_4 1_555 1_555
N13_2 C1_4 1_555 1_555
N14_3 C6_5 1_555 1_555
N3_5 C11_5 1_555 1_555
N4_4 C18_4 1_555 1_555
N5_4 C17_4 1_555 1_555
N15_3 C12_4 1_555 1_555
C5_4 N13_2 1_555 1_555
C10_5 N14_3 1_555 1_555
C16_4 N15_3 1_555 1_555
N4_4 N5_4 1_555 1_555
C19_5 H16_5 1_555 1_555
C20_5 C19_5 1_555 1_555
H17_5 C20_5 1_555 1_555
C21_5 C20_5 1_555 1_555
C22_5 C21_5 1_555 1_555
H18_5 C22_5 1_555 1_555
C23_5 C22_5 1_555 1_555
H19_5 C23_5 1_555 1_555
C24_5 C21_5 1_555 1_555
H20_5 C24_5 1_555 1_555
N7_5 C19_5 1_555 1_555
Cd4_5 N7_5 1_555 1_555
C23_5 N7_5 1_555 1_555
C24_5 N8_5 1_555 1_555
H7_6 C9_6 1_555 1_555
C10_6 C9_6 1_555 1_555
H8_6 C10_6 1_555 1_555
C19_6 H16_6 1_555 1_555
C20_6 C19_6 1_555 1_555
H17_6 C20_6 1_555 1_555
C21_6 C20_6 1_555 1_555
C24_6 C21_6 1_555 1_555
H20_6 C24_6 1_555 1_555
N7_6 C19_6 1_555 1_555
Cd4_3 N7_6 1_555 1_555
C24_6 N8_6 1_555 1_555
C6_6 H5_6 1_555 1_555
C7_6 C6_6 1_555 1_555
H6_6 C7_6 1_555 1_555
C8_6 C7_6 1_555 1_555
C11_6 C8_6 1_555 1_555
H9_6 C11_6 1_555 1_555
N14_2 C6_6 1_555 1_555
N3_6 C11_6 1_555 1_555
H18_6 C22_6 1_555 1_555
C23_6 C22_6 1_555 1_555
H19_6 C23_6 1_555 1_555
C1_5 H1_5 1_555 1_555
C2_5 C1_5 1_555 1_555
H2_5 C2_5 1_555 1_555
C3_5 C2_5 1_555 1_555
C4_5 C3_5 1_555 1_555
H3_5 C4_5 1_555 1_555
C5_5 C4_5 1_555 1_555
H4_5 C5_5 1_555 1_555
C12_5 H10_5 1_555 1_555
C13_5 C12_5 1_555 1_555
H11_5 C13_5 1_555 1_555
C14_5 C13_5 1_555 1_555
C15_5 C14_5 1_555 1_555
H12_5 C15_5 1_555 1_555
C16_5 C15_5 1_555 1_555
H13_5 C16_5 1_555 1_555
C17_5 C14_5 1_555 1_555
H14_5 C17_5 1_555 1_555
C18_5 C3_5 1_555 1_555
H15_5 C18_5 1_555 1_555
N1_3 C1_5 1_555 1_555
N4_5 C18_5 1_555 1_555
N5_5 C17_5 1_555 1_555
N6_3 C12_5 1_555 1_555
C25_3 H21_3 1_555 1_555
C26_3 C25_3 1_555 1_555
H22_3 C26_3 1_555 1_555
C27_3 C26_3 1_555 1_555
C28_3 C27_3 1_555 1_555
H23_3 C28_3 1_555 1_555
C29_3 C28_3 1_555 1_555
H24_3 C29_3 1_555 1_555
C30_3 H25_3 1_555 1_555
C31_3 C30_3 1_555 1_555
H26_3 C31_3 1_555 1_555
C32_3 C31_3 1_555 1_555
C33_3 C32_3 1_555 1_555
H27_3 C33_3 1_555 1_555
C34_3 C33_3 1_555 1_555
H28_3 C34_3 1_555 1_555
C35_3 C32_3 1_555 1_555
H29_3 C35_3 1_555 1_555
C36_3 C27_3 1_555 1_555
H30_3 C36_3 1_555 1_555
N9_2 Cd4 1_555 1_555
N10_3 C36_3 1_555 1_555
N11_3 C35_3 1_555 1_555
N12_2 C30_3 1_555 1_555
Cd4_4 N1_3 1_555 1_555
Cd4_5 N12_2 1_555 1_555
C5_5 N1_3 1_555 1_555
C16_5 N6_3 1_555 1_555
Cd4 N6_3 1_555 1_555
N4_5 N5_5 1_555 1_555
C25_3 N9_2 1_555 1_555
C29_3 N9_2 1_555 1_555
C34_3 N12_2 1_555 1_555
N10_3 N11_3 1_555 1_555
N13_4 Cd4_2 1_555 1_555
N15_4 Cd4_2 1_555 1_555
N13_5 Cd4_3 1_555 1_555
N15_5 Cd4_3 1_555 1_555
C1_6 H1_6 1_555 1_555
C2_6 C1_6 1_555 1_555
H2_6 C2_6 1_555 1_555
C3_6 C2_6 1_555 1_555
C4_6 C3_6 1_555 1_555
H3_6 C4_6 1_555 1_555
C5_6 C4_6 1_555 1_555
H4_6 C5_6 1_555 1_555
C12_6 H10_6 1_555 1_555
C13_6 C12_6 1_555 1_555
H11_6 C13_6 1_555 1_555
C14_6 C13_6 1_555 1_555
C15_6 C14_6 1_555 1_555
H12_6 C15_6 1_555 1_555
C16_6 C15_6 1_555 1_555
H13_6 C16_6 1_555 1_555
C17_6 C14_6 1_555 1_555
H14_6 C17_6 1_555 1_555
C18_6 C3_6 1_555 1_555
H15_6 C18_6 1_555 1_555
N1_4 C1_6 1_555 1_555
N4_6 C18_6 1_555 1_555
N5_6 C17_6 1_555 1_555
N6_4 C12_6 1_555 1_555
Cd4_5 N1_4 1_555 1_555
C5_6 N1_4 1_555 1_555
C16_6 N6_4 1_555 1_555
Cd4_4 N6_4 1_555 1_555
N4_6 N5_6 1_555 1_555
N13_6 Cd4_5 1_555 1_555
N15_6 Cd4_5 1_555 1_555
C1_7 H1_7 1_555 1_555
C2_7 C1_7 1_555 1_555
H2_7 C2_7 1_555 1_555
C3_7 C2_7 1_555 1_555
C4_7 C3_7 1_555 1_555
H3_7 C4_7 1_555 1_555
C5_7 C4_7 1_555 1_555
H4_7 C5_7 1_555 1_555
C12_7 H10_7 1_555 1_555
C13_7 C12_7 1_555 1_555
H11_7 C13_7 1_555 1_555
C14_7 C13_7 1_555 1_555
C15_7 C14_7 1_555 1_555
H12_7 C15_7 1_555 1_555
C16_7 C15_7 1_555 1_555
H13_7 C16_7 1_555 1_555
C17_7 C14_7 1_555 1_555
H14_7 C17_7 1_555 1_555
C18_7 C3_7 1_555 1_555
H15_7 C18_7 1_555 1_555
N13_6 C1_7 1_555 1_555
N4_7 C18_7 1_555 1_555
N5_7 C17_7 1_555 1_555
N15_4 C12_7 1_555 1_555
C25_4 H21_4 1_555 1_555
C26_4 C25_4 1_555 1_555
H22_4 C26_4 1_555 1_555
C27_4 C26_4 1_555 1_555
C28_4 C27_4 1_555 1_555
H23_4 C28_4 1_555 1_555
C29_4 C28_4 1_555 1_555
H24_4 C29_4 1_555 1_555
C30_4 H25_4 1_555 1_555
C31_4 C30_4 1_555 1_555
H26_4 C31_4 1_555 1_555
C32_4 C31_4 1_555 1_555
C33_4 C32_4 1_555 1_555
H27_4 C33_4 1_555 1_555
C34_4 C33_4 1_555 1_555
H28_4 C34_4 1_555 1_555
C35_4 C32_4 1_555 1_555
H29_4 C35_4 1_555 1_555
C36_4 C27_4 1_555 1_555
H30_4 C36_4 1_555 1_555
N10_4 C36_4 1_555 1_555
N11_4 C35_4 1_555 1_555
N15_5 C30_4 1_555 1_555
C5_7 N13_6 1_555 1_555
C16_7 N15_4 1_555 1_555
N4_7 N5_7 1_555 1_555
C25_4 N13_4 1_555 1_555
C29_4 N13_4 1_555 1_555
C34_4 N15_5 1_555 1_555
N10_4 N11_4 1_555 1_555
C1_8 H1_8 1_555 1_555
C2_8 C1_8 1_555 1_555
H2_8 C2_8 1_555 1_555
C3_8 C2_8 1_555 1_555
C4_8 C3_8 1_555 1_555
H3_8 C4_8 1_555 1_555
C5_8 C4_8 1_555 1_555
H4_8 C5_8 1_555 1_555
C12_8 H10_8 1_555 1_555
C13_8 C12_8 1_555 1_555
H11_8 C13_8 1_555 1_555
C14_8 C13_8 1_555 1_555
C15_8 C14_8 1_555 1_555
H12_8 C15_8 1_555 1_555
C16_8 C15_8 1_555 1_555
H13_8 C16_8 1_555 1_555
C17_8 C14_8 1_555 1_555
H14_8 C17_8 1_555 1_555
C18_8 C3_8 1_555 1_555
H15_8 C18_8 1_555 1_555
N13_5 C1_8 1_555 1_555
N4_8 C18_8 1_555 1_555
N5_8 C17_8 1_555 1_555
N15_6 C12_8 1_555 1_555
C5_8 N13_5 1_555 1_555
C16_8 N15_6 1_555 1_555
N4_8 N5_8 1_555 1_555
Cd4_6 N7_7 1_555 1_555
C6_7 H5_7 1_555 1_555
C7_7 C6_7 1_555 1_555
H6_7 C7_7 1_555 1_555
C8_7 C7_7 1_555 1_555
C9_7 C8_7 1_555 1_555
H7_7 C9_7 1_555 1_555
C10_7 C9_7 1_555 1_555
H8_7 C10_7 1_555 1_555
C11_7 C8_7 1_555 1_555
H9_7 C11_7 1_555 1_555
C12_9 H10_9 1_555 1_555
H13_9 C16_9 1_555 1_555
Cd1_3 N2_4 1_555 1_555
N2_4 C6_7 1_555 1_555
N3_7 C11_7 1_555 1_555
N6_5 C12_9 1_555 1_555
C20_7 C19_7 1_555 1_555
H17_7 C20_7 1_555 1_555
C21_7 C20_7 1_555 1_555
C22_7 C21_7 1_555 1_555
H18_7 C22_7 1_555 1_555
C23_7 C22_7 1_555 1_555
H19_7 C23_7 1_555 1_555
C24_7 C21_7 1_555 1_555
H20_7 C24_7 1_555 1_555
N8_7 N3_7 1_555 1_555
C25_5 H21_5 1_555 1_555
C26_5 C25_5 1_555 1_555
H22_5 C26_5 1_555 1_555
C27_5 C26_5 1_555 1_555
C28_5 C27_5 1_555 1_555
H23_5 C28_5 1_555 1_555
C29_5 C28_5 1_555 1_555
H24_5 C29_5 1_555 1_555
H26_5 C31_5 1_555 1_555
C32_5 C31_5 1_555 1_555
C33_5 C32_5 1_555 1_555
H27_5 C33_5 1_555 1_555
C35_5 C32_5 1_555 1_555
H29_5 C35_5 1_555 1_555
C36_5 C27_5 1_555 1_555
H30_5 C36_5 1_555 1_555
N9_3 Cd1_3 1_555 1_555
N10_5 C36_5 1_555 1_555
N11_5 C35_5 1_555 1_555
N13_7 Cd1_3 1_555 1_555
N14_4 Cd1_3 1_555 1_555
N15_7 Cd1_3 1_555 1_555
C10_7 N2_4 1_555 1_555
C16_9 N6_5 1_555 1_555
Cd1_3 N6_5 1_555 1_555
C24_7 N8_7 1_555 1_555
C25_5 N9_3 1_555 1_555
C29_5 N9_3 1_555 1_555
N10_5 N11_5 1_555 1_555
C30_5 H25_5 1_555 1_555
H28_5 C34_5 1_555 1_555
N12_3 C30_5 1_555 1_555
Cd3_2 N12_3 1_555 1_555
C34_5 N12_3 1_555 1_555
C1_9 H1_9 1_555 1_555
C2_9 C1_9 1_555 1_555
H2_9 C2_9 1_555 1_555
C3_9 C2_9 1_555 1_555
C4_9 C3_9 1_555 1_555
H3_9 C4_9 1_555 1_555
C5_9 C4_9 1_555 1_555
H4_9 C5_9 1_555 1_555
N1_5 C1_9 1_555 1_555
Cd2_3 N1_5 1_555 1_555
C5_9 N1_5 1_555 1_555
C1_10 H1_10 1_555 1_555
C2_10 C1_10 1_555 1_555
H2_10 C2_10 1_555 1_555
C3_10 C2_10 1_555 1_555
C4_10 C3_10 1_555 1_555
H3_10 C4_10 1_555 1_555
C5_10 C4_10 1_555 1_555
H4_10 C5_10 1_555 1_555
N1_6 C1_10 1_555 1_555
Cd3_2 N1_6 1_555 1_555
C5_10 N1_6 1_555 1_555
Cd4_7 N7_8 1_555 1_555
C6_8 H5_8 1_555 1_555
C7_8 C6_8 1_555 1_555
H6_8 C7_8 1_555 1_555
C8_8 C7_8 1_555 1_555
C9_8 C8_8 1_555 1_555
H7_8 C9_8 1_555 1_555
C10_8 C9_8 1_555 1_555
H8_8 C10_8 1_555 1_555
C11_8 C8_8 1_555 1_555
H9_8 C11_8 1_555 1_555
C12_10 H10_10 1_555 1_555
C13_9 C12_10 1_555 1_555
H11_9 C13_9 1_555 1_555
C14_9 C13_9 1_555 1_555
C15_9 C14_9 1_555 1_555
H12_9 C15_9 1_555 1_555
C16_10 C15_9 1_555 1_555
H13_10 C16_10 1_555 1_555
C17_9 C14_9 1_555 1_555
H14_9 C17_9 1_555 1_555
H15_9 C18_9 1_555 1_555
Cd2_3 N2_5 1_555 1_555
N2_5 C6_8 1_555 1_555
N3_8 C11_8 1_555 1_555
N4_9 C18_9 1_555 1_555
N5_9 C17_9 1_555 1_555
N6_6 C12_10 1_555 1_555
C20_8 C19_8 1_555 1_555
H17_8 C20_8 1_555 1_555
C21_8 C20_8 1_555 1_555
C22_8 C21_8 1_555 1_555
H18_8 C22_8 1_555 1_555
C23_8 C22_8 1_555 1_555
H19_8 C23_8 1_555 1_555
C24_8 C21_8 1_555 1_555
H20_8 C24_8 1_555 1_555
N8_8 N3_8 1_555 1_555
N13_8 Cd2_3 1_555 1_555
N14_5 Cd2_3 1_555 1_555
N15_8 Cd2_3 1_555 1_555
C10_8 N2_5 1_555 1_555
C16_10 N6_6 1_555 1_555
Cd2_3 N6_6 1_555 1_555
N4_9 N5_9 1_555 1_555
C24_8 N8_8 1_555 1_555
Cd4_8 N7_9 1_555 1_555
C6_9 H5_9 1_555 1_555
C7_9 C6_9 1_555 1_555
H6_9 C7_9 1_555 1_555
C8_9 C7_9 1_555 1_555
C9_9 C8_9 1_555 1_555
H7_9 C9_9 1_555 1_555
C10_9 C9_9 1_555 1_555
H8_9 C10_9 1_555 1_555
C11_9 C8_9 1_555 1_555
H9_9 C11_9 1_555 1_555
Cd3_2 N2_6 1_555 1_555
N2_6 C6_9 1_555 1_555
N3_9 C11_9 1_555 1_555
C20_9 C19_9 1_555 1_555
H17_9 C20_9 1_555 1_555
C21_9 C20_9 1_555 1_555
C22_9 C21_9 1_555 1_555
H18_9 C22_9 1_555 1_555
C23_9 C22_9 1_555 1_555
H19_9 C23_9 1_555 1_555
C24_9 C21_9 1_555 1_555
H20_9 C24_9 1_555 1_555
N8_9 N3_9 1_555 1_555
N13_9 Cd3_2 1_555 1_555
N14_6 Cd3_2 1_555 1_555
N15_9 Cd3_2 1_555 1_555
C10_9 N2_6 1_555 1_555
C24_9 N8_9 1_555 1_555
C1_11 H1_11 1_555 1_555
C2_11 C1_11 1_555 1_555
H2_11 C2_11 1_555 1_555
C3_11 C2_11 1_555 1_555
C4_11 C3_11 1_555 1_555
H3_11 C4_11 1_555 1_555
C5_11 C4_11 1_555 1_555
H4_11 C5_11 1_555 1_555
C6_10 H5_10 1_555 1_555
C7_10 C6_10 1_555 1_555
H6_10 C7_10 1_555 1_555
C8_10 C7_10 1_555 1_555
C9_10 C8_10 1_555 1_555
H7_10 C9_10 1_555 1_555
C10_10 C9_10 1_555 1_555
H8_10 C10_10 1_555 1_555
C11_10 C8_10 1_555 1_555
H9_10 C11_10 1_555 1_555
C12_11 H10_11 1_555 1_555
C13_10 C12_11 1_555 1_555
H11_10 C13_10 1_555 1_555
C14_10 C13_10 1_555 1_555
C15_10 C14_10 1_555 1_555
H12_10 C15_10 1_555 1_555
C16_11 C15_10 1_555 1_555
H13_11 C16_11 1_555 1_555
C17_10 C14_10 1_555 1_555
H14_10 C17_10 1_555 1_555
C18_10 C3_11 1_555 1_555
H15_10 C18_10 1_555 1_555
N13_9 C1_11 1_555 1_555
N14_4 C6_10 1_555 1_555
N3_10 C11_10 1_555 1_555
N4_10 C18_10 1_555 1_555
N5_10 C17_10 1_555 1_555
N15_7 C12_11 1_555 1_555
C19_10 H16_10 1_555 1_555
C20_10 C19_10 1_555 1_555
H17_10 C20_10 1_555 1_555
C21_10 C20_10 1_555 1_555
C22_10 C21_10 1_555 1_555
H18_10 C22_10 1_555 1_555
C23_10 C22_10 1_555 1_555
H19_10 C23_10 1_555 1_555
C24_10 C21_10 1_555 1_555
H20_10 C24_10 1_555 1_555
N7_10 C19_10 1_555 1_555
N8_10 N3_10 1_555 1_555
C25_6 H21_6 1_555 1_555
C26_6 C25_6 1_555 1_555
H22_6 C26_6 1_555 1_555
C27_6 C26_6 1_555 1_555
C28_6 C27_6 1_555 1_555
H23_6 C28_6 1_555 1_555
C29_6 C28_6 1_555 1_555
H24_6 C29_6 1_555 1_555
C30_6 H25_6 1_555 1_555
C31_6 C30_6 1_555 1_555
H26_6 C31_6 1_555 1_555
C32_6 C31_6 1_555 1_555
C33_6 C32_6 1_555 1_555
H27_6 C33_6 1_555 1_555
C34_6 C33_6 1_555 1_555
H28_6 C34_6 1_555 1_555
C35_6 C32_6 1_555 1_555
H29_6 C35_6 1_555 1_555
C36_6 C27_6 1_555 1_555
H30_6 C36_6 1_555 1_555
N10_6 C36_6 1_555 1_555
N11_6 C35_6 1_555 1_555
N15_8 C30_6 1_555 1_555
Cd4_6 N7_10 1_555 1_555
C5_11 N13_9 1_555 1_555
C10_10 N14_4 1_555 1_555
C16_11 N15_7 1_555 1_555
N4_10 N5_10 1_555 1_555
C23_10 N7_10 1_555 1_555
C24_10 N8_10 1_555 1_555
C25_6 N13_7 1_555 1_555
C29_6 N13_7 1_555 1_555
C34_6 N15_8 1_555 1_555
N10_6 N11_6 1_555 1_555
C1_12 H1_12 1_555 1_555
C2_12 C1_12 1_555 1_555
H2_12 C2_12 1_555 1_555
C3_12 C2_12 1_555 1_555
C4_12 C3_12 1_555 1_555
H3_12 C4_12 1_555 1_555
C5_12 C4_12 1_555 1_555
H4_12 C5_12 1_555 1_555
C6_11 H5_11 1_555 1_555
C7_11 C6_11 1_555 1_555
H6_11 C7_11 1_555 1_555
C8_11 C7_11 1_555 1_555
C9_11 C8_11 1_555 1_555
H7_11 C9_11 1_555 1_555
C10_11 C9_11 1_555 1_555
H8_11 C10_11 1_555 1_555
C11_11 C8_11 1_555 1_555
H9_11 C11_11 1_555 1_555
C12_12 H10_12 1_555 1_555
C13_11 C12_12 1_555 1_555
H11_11 C13_11 1_555 1_555
C14_11 C13_11 1_555 1_555
C15_11 C14_11 1_555 1_555
H12_11 C15_11 1_555 1_555
C16_12 C15_11 1_555 1_555
H13_12 C16_12 1_555 1_555
C17_11 C14_11 1_555 1_555
H14_11 C17_11 1_555 1_555
C18_11 C3_12 1_555 1_555
H15_11 C18_11 1_555 1_555
N13_8 C1_12 1_555 1_555
N14_6 C6_11 1_555 1_555
N3_11 C11_11 1_555 1_555
N4_11 C18_11 1_555 1_555
N5_11 C17_11 1_555 1_555
N15_9 C12_12 1_555 1_555
C19_11 H16_11 1_555 1_555
C20_11 C19_11 1_555 1_555
H17_11 C20_11 1_555 1_555
C21_11 C20_11 1_555 1_555
C22_11 C21_11 1_555 1_555
H18_11 C22_11 1_555 1_555
C23_11 C22_11 1_555 1_555
H19_11 C23_11 1_555 1_555
C24_11 C21_11 1_555 1_555
H20_11 C24_11 1_555 1_555
N7_11 C19_11 1_555 1_555
N8_11 N3_11 1_555 1_555
Cd4_8 N7_11 1_555 1_555
C5_12 N13_8 1_555 1_555
C10_11 N14_6 1_555 1_555
C16_12 N15_9 1_555 1_555
N4_11 N5_11 1_555 1_555
C23_11 N7_11 1_555 1_555
C24_11 N8_11 1_555 1_555
C6_12 H5_12 1_555 1_555
C7_12 C6_12 1_555 1_555
H6_12 C7_12 1_555 1_555
C8_12 C7_12 1_555 1_555
C9_12 C8_12 1_555 1_555
H7_12 C9_12 1_555 1_555
C10_12 C9_12 1_555 1_555
H8_12 C10_12 1_555 1_555
C11_12 C8_12 1_555 1_555
H9_12 C11_12 1_555 1_555
N14_5 C6_12 1_555 1_555
N3_12 C11_12 1_555 1_555
C19_12 H16_12 1_555 1_555
C20_12 C19_12 1_555 1_555
H17_12 C20_12 1_555 1_555
C21_12 C20_12 1_555 1_555
C22_12 C21_12 1_555 1_555
H18_12 C22_12 1_555 1_555
C23_12 C22_12 1_555 1_555
H19_12 C23_12 1_555 1_555
C24_12 C21_12 1_555 1_555
H20_12 C24_12 1_555 1_555
N7_12 C19_12 1_555 1_555
N8_12 N3_12 1_555 1_555
Cd4_7 N7_12 1_555 1_555
C10_12 N14_5 1_555 1_555
C23_12 N7_12 1_555 1_555
C24_12 N8_12 1_555 1_555
C1_13 H1_13 1_555 1_555
C2_13 C1_13 1_555 1_555
H2_13 C2_13 1_555 1_555
C3_13 C2_13 1_555 1_555
C4_13 C3_13 1_555 1_555
H3_13 C4_13 1_555 1_555
C5_13 C4_13 1_555 1_555
H4_13 C5_13 1_555 1_555
C12_13 H10_13 1_555 1_555
C13_12 C12_13 1_555 1_555
H11_12 C13_12 1_555 1_555
C14_12 C13_12 1_555 1_555
C15_12 C14_12 1_555 1_555
H12_12 C15_12 1_555 1_555
C16_13 C15_12 1_555 1_555
H13_13 C16_13 1_555 1_555
C17_12 C14_12 1_555 1_555
H14_12 C17_12 1_555 1_555
C18_12 C3_13 1_555 1_555
H15_12 C18_12 1_555 1_555
N1_7 C1_13 1_555 1_555
N4_12 C18_12 1_555 1_555
N5_12 C17_12 1_555 1_555
N6_7 C12_13 1_555 1_555
C25_7 H21_7 1_555 1_555
C26_7 C25_7 1_555 1_555
H22_7 C26_7 1_555 1_555
C27_7 C26_7 1_555 1_555
C28_7 C27_7 1_555 1_555
H23_7 C28_7 1_555 1_555
C29_7 C28_7 1_555 1_555
H24_7 C29_7 1_555 1_555
C30_7 H25_7 1_555 1_555
C31_7 C30_7 1_555 1_555
H26_7 C31_7 1_555 1_555
C32_7 C31_7 1_555 1_555
C33_7 C32_7 1_555 1_555
H27_7 C33_7 1_555 1_555
C34_7 C33_7 1_555 1_555
H28_7 C34_7 1_555 1_555
C35_7 C32_7 1_555 1_555
H29_7 C35_7 1_555 1_555
C36_7 C27_7 1_555 1_555
H30_7 C36_7 1_555 1_555
N9_4 Cd4_6 1_555 1_555
N10_7 C36_7 1_555 1_555
N11_7 C35_7 1_555 1_555
N12_4 C30_7 1_555 1_555
Cd4_7 N1_7 1_555 1_555
Cd4_8 N12_4 1_555 1_555
N13_10 Cd4_6 1_555 1_555
N15_10 Cd4_6 1_555 1_555
C5_13 N1_7 1_555 1_555
C16_13 N6_7 1_555 1_555
Cd4_6 N6_7 1_555 1_555
N4_12 N5_12 1_555 1_555
C25_7 N9_4 1_555 1_555
C29_7 N9_4 1_555 1_555
C34_7 N12_4 1_555 1_555
N10_7 N11_7 1_555 1_555
C1_14 H1_14 1_555 1_555
C2_14 C1_14 1_555 1_555
H2_14 C2_14 1_555 1_555
C3_14 C2_14 1_555 1_555
C4_14 C3_14 1_555 1_555
H3_14 C4_14 1_555 1_555
C5_14 C4_14 1_555 1_555
H4_14 C5_14 1_555 1_555
C12_14 H10_14 1_555 1_555
C13_13 C12_14 1_555 1_555
H11_13 C13_13 1_555 1_555
C14_13 C13_13 1_555 1_555
C15_13 C14_13 1_555 1_555
H12_13 C15_13 1_555 1_555
C16_14 C15_13 1_555 1_555
H13_14 C16_14 1_555 1_555
C17_13 C14_13 1_555 1_555
H14_13 C17_13 1_555 1_555
C18_13 C3_14 1_555 1_555
H15_13 C18_13 1_555 1_555
N1_8 C1_14 1_555 1_555
N4_13 C18_13 1_555 1_555
N5_13 C17_13 1_555 1_555
N6_8 C12_14 1_555 1_555
Cd4_8 N1_8 1_555 1_555
N13_11 Cd4_7 1_555 1_555
N15_11 Cd4_7 1_555 1_555
C5_14 N1_8 1_555 1_555
C16_14 N6_8 1_555 1_555
Cd4_7 N6_8 1_555 1_555
N4_13 N5_13 1_555 1_555
N13_12 Cd4_8 1_555 1_555
N15_12 Cd4_8 1_555 1_555
C12_15 H10_15 1_555 1_555
C13_14 C12_15 1_555 1_555
H11_14 C13_14 1_555 1_555
C14_14 C13_14 1_555 1_555
C15_14 C14_14 1_555 1_555
H12_14 C15_14 1_555 1_555
C16_15 C15_14 1_555 1_555
H13_15 C16_15 1_555 1_555
C17_14 C14_14 1_555 1_555
H14_14 C17_14 1_555 1_555
H15_14 C18_14 1_555 1_555
N4_14 C18_14 1_555 1_555
N5_14 C17_14 1_555 1_555
N15_10 C12_15 1_555 1_555
C25_8 H21_8 1_555 1_555
C26_8 C25_8 1_555 1_555
H22_8 C26_8 1_555 1_555
C27_8 C26_8 1_555 1_555
C28_8 C27_8 1_555 1_555
H23_8 C28_8 1_555 1_555
C29_8 C28_8 1_555 1_555
H24_8 C29_8 1_555 1_555
C16_15 N15_10 1_555 1_555
N4_14 N5_14 1_555 1_555
C25_8 N13_10 1_555 1_555
C29_8 N13_10 1_555 1_555
C1_15 H1_15 1_555 1_555
C2_15 C1_15 1_555 1_555
H2_15 C2_15 1_555 1_555
C3_15 C2_15 1_555 1_555
C4_15 C3_15 1_555 1_555
H3_15 C4_15 1_555 1_555
C5_15 C4_15 1_555 1_555
H4_15 C5_15 1_555 1_555
N13_12 C1_15 1_555 1_555
C5_15 N13_12 1_555 1_555
C30_8 H25_8 1_555 1_555
H28_8 C34_8 1_555 1_555
N15_11 C30_8 1_555 1_555
C34_8 N15_11 1_555 1_555
C12_16 H10_16 1_555 1_555
H13_16 C16_16 1_555 1_555
N15_12 C12_16 1_555 1_555
C16_16 N15_12 1_555 1_555
C1_16 H1_16 1_555 1_555
C2_16 C1_16 1_555 1_555
H2_16 C2_16 1_555 1_555
C3_16 C2_16 1_555 1_555
C4_16 C3_16 1_555 1_555
H3_16 C4_16 1_555 1_555
C5_16 C4_16 1_555 1_555
H4_16 C5_16 1_555 1_555
H11_15 C13_15 1_555 1_555
C14_15 C13_15 1_555 1_555
C15_15 C14_15 1_555 1_555
H12_15 C15_15 1_555 1_555
C17_15 C14_15 1_555 1_555
H14_15 C17_15 1_555 1_555
C18_15 C3_16 1_555 1_555
H15_15 C18_15 1_555 1_555
N13_11 C1_16 1_555 1_555
N4_15 C18_15 1_555 1_555
N5_15 C17_15 1_555 1_555
C5_16 N13_11 1_555 1_555
N4_15 N5_15 1_555 1_555
H11_16 C13_16 1_555 1_555
C14_16 C13_16 1_555 1_555
C15_16 C14_16 1_555 1_555
H12_16 C15_16 1_555 1_555
C17_16 C14_16 1_555 1_555
H14_16 C17_16 1_555 1_555
H15_16 C18_16 1_555 1_555
N4_16 C18_16 1_555 1_555
N5_16 C17_16 1_555 1_555
N4_16 N5_16 1_555 1_555
C7_13 C6_13 1_555 1_555
H6_13 C7_13 1_555 1_555
C8_13 C7_13 1_555 1_555
C9_13 C8_13 1_555 1_555
H7_13 C9_13 1_555 1_555
C10_13 C9_13 1_555 1_555
H8_13 C10_13 1_555 1_555
C11_13 C8_13 1_555 1_555
H9_13 C11_13 1_555 1_555
N3_13 C11_13 1_555 1_555
C19_13 H16_13 1_555 1_555
C20_13 C19_13 1_555 1_555
H17_13 C20_13 1_555 1_555
C21_13 C20_13 1_555 1_555
C22_13 C21_13 1_555 1_555
H18_13 C22_13 1_555 1_555
C23_13 C22_13 1_555 1_555
H19_13 C23_13 1_555 1_555
C24_13 C21_13 1_555 1_555
H20_13 C24_13 1_555 1_555
N7_13 C19_13 1_555 1_555
N8_13 N3_13 1_555 1_555
Cd4_9 N7_13 1_555 1_555
C23_13 N7_13 1_555 1_555
C24_13 N8_13 1_555 1_555
C1_17 H1_17 1_555 1_555
C2_17 C1_17 1_555 1_555
H2_17 C2_17 1_555 1_555
C3_17 C2_17 1_555 1_555
C4_17 C3_17 1_555 1_555
H3_17 C4_17 1_555 1_555
C5_17 C4_17 1_555 1_555
H4_17 C5_17 1_555 1_555
C12_17 H10_17 1_555 1_555
C13_17 C12_17 1_555 1_555
H11_17 C13_17 1_555 1_555
C14_17 C13_17 1_555 1_555
C15_17 C14_17 1_555 1_555
H12_17 C15_17 1_555 1_555
C16_17 C15_17 1_555 1_555
H13_17 C16_17 1_555 1_555
C17_17 C14_17 1_555 1_555
H14_17 C17_17 1_555 1_555
C18_17 C3_17 1_555 1_555
H15_17 C18_17 1_555 1_555
Cd1_4 N2_7 1_555 1_555
N1_9 C1_17 1_555 1_555
N4_17 C18_17 1_555 1_555
N5_17 C17_17 1_555 1_555
N6_9 C12_17 1_555 1_555
C25_9 H21_9 1_555 1_555
C26_9 C25_9 1_555 1_555
H22_9 C26_9 1_555 1_555
C27_9 C26_9 1_555 1_555
C28_9 C27_9 1_555 1_555
H23_9 C28_9 1_555 1_555
C29_9 C28_9 1_555 1_555
H24_9 C29_9 1_555 1_555
C30_9 H25_9 1_555 1_555
C31_8 C30_9 1_555 1_555
H26_8 C31_8 1_555 1_555
C32_8 C31_8 1_555 1_555
C33_8 C32_8 1_555 1_555
H27_8 C33_8 1_555 1_555
C34_9 C33_8 1_555 1_555
H28_9 C34_9 1_555 1_555
C35_8 C32_8 1_555 1_555
H29_8 C35_8 1_555 1_555
C36_8 C27_9 1_555 1_555
H30_8 C36_8 1_555 1_555
N9_5 Cd1_4 1_555 1_555
N10_8 C36_8 1_555 1_555
N11_8 C35_8 1_555 1_555
N12_5 C30_9 1_555 1_555
Cd2_4 N1_9 1_555 1_555
Cd3_3 N12_5 1_555 1_555
N13_13 Cd1_4 1_555 1_555
N14_7 Cd1_4 1_555 1_555
N15_13 Cd1_4 1_555 1_555
C5_17 N1_9 1_555 1_555
C16_17 N6_9 1_555 1_555
Cd1_4 N6_9 1_555 1_555
N4_17 N5_17 1_555 1_555
C25_9 N9_5 1_555 1_555
C29_9 N9_5 1_555 1_555
C34_9 N12_5 1_555 1_555
N10_8 N11_8 1_555 1_555
C7_14 C6_14 1_555 1_555
H6_14 C7_14 1_555 1_555
C8_14 C7_14 1_555 1_555
C9_14 C8_14 1_555 1_555
H7_14 C9_14 1_555 1_555
C10_14 C9_14 1_555 1_555
H8_14 C10_14 1_555 1_555
C11_14 C8_14 1_555 1_555
H9_14 C11_14 1_555 1_555
N3_14 C11_14 1_555 1_555
C19_14 H16_14 1_555 1_555
C20_14 C19_14 1_555 1_555
H17_14 C20_14 1_555 1_555
C21_14 C20_14 1_555 1_555
C22_14 C21_14 1_555 1_555
H18_14 C22_14 1_555 1_555
C23_14 C22_14 1_555 1_555
H19_14 C23_14 1_555 1_555
C24_14 C21_14 1_555 1_555
H20_14 C24_14 1_555 1_555
N7_14 C19_14 1_555 1_555
N8_14 N3_14 1_555 1_555
Cd4_10 N7_14 1_555 1_555
C23_14 N7_14 1_555 1_555
C24_14 N8_14 1_555 1_555
C1_18 H1_18 1_555 1_555
C2_18 C1_18 1_555 1_555
H2_18 C2_18 1_555 1_555
C3_18 C2_18 1_555 1_555
C4_18 C3_18 1_555 1_555
H3_18 C4_18 1_555 1_555
C5_18 C4_18 1_555 1_555
H4_18 C5_18 1_555 1_555
C12_18 H10_18 1_555 1_555
C13_18 C12_18 1_555 1_555
H11_18 C13_18 1_555 1_555
C14_18 C13_18 1_555 1_555
C15_18 C14_18 1_555 1_555
H12_18 C15_18 1_555 1_555
C16_18 C15_18 1_555 1_555
H13_18 C16_18 1_555 1_555
C17_18 C14_18 1_555 1_555
H14_18 C17_18 1_555 1_555
C18_18 C3_18 1_555 1_555
H15_18 C18_18 1_555 1_555
Cd2_4 N2_8 1_555 1_555
N1_10 C1_18 1_555 1_555
N4_18 C18_18 1_555 1_555
N5_18 C17_18 1_555 1_555
N6_10 C12_18 1_555 1_555
Cd3_3 N1_10 1_555 1_555
N13_14 Cd2_4 1_555 1_555
N14_8 Cd2_4 1_555 1_555
N15_14 Cd2_4 1_555 1_555
C5_18 N1_10 1_555 1_555
C16_18 N6_10 1_555 1_555
Cd2_4 N6_10 1_555 1_555
N4_18 N5_18 1_555 1_555
C7_15 C6_15 1_555 1_555
H6_15 C7_15 1_555 1_555
C8_15 C7_15 1_555 1_555
C9_15 C8_15 1_555 1_555
H7_15 C9_15 1_555 1_555
C10_15 C9_15 1_555 1_555
H8_15 C10_15 1_555 1_555
C11_15 C8_15 1_555 1_555
H9_15 C11_15 1_555 1_555
N3_15 C11_15 1_555 1_555
C19_15 H16_15 1_555 1_555
C20_15 C19_15 1_555 1_555
H17_15 C20_15 1_555 1_555
C21_15 C20_15 1_555 1_555
C22_15 C21_15 1_555 1_555
H18_15 C22_15 1_555 1_555
C23_15 C22_15 1_555 1_555
H19_15 C23_15 1_555 1_555
C24_15 C21_15 1_555 1_555
H20_15 C24_15 1_555 1_555
N7_15 C19_15 1_555 1_555
N8_15 N3_15 1_555 1_555
Cd4_11 N7_15 1_555 1_555
C23_15 N7_15 1_555 1_555
C24_15 N8_15 1_555 1_555
Cd3_3 N2_9 1_555 1_555
N13_15 Cd3_3 1_555 1_555
N14_9 Cd3_3 1_555 1_555
N15_15 Cd3_3 1_555 1_555
C30_10 H25_10 1_555 1_555
H28_10 C34_10 1_555 1_555
N15_14 C30_10 1_555 1_555
C34_10 N15_14 1_555 1_555
C1_19 H1_19 1_555 1_555
C2_19 C1_19 1_555 1_555
H2_19 C2_19 1_555 1_555
C3_19 C2_19 1_555 1_555
C4_19 C3_19 1_555 1_555
H3_19 C4_19 1_555 1_555
C5_19 C4_19 1_555 1_555
H4_19 C5_19 1_555 1_555
N13_15 C1_19 1_555 1_555
C5_19 N13_15 1_555 1_555
C6_16 H5_16 1_555 1_555
C7_16 C6_16 1_555 1_555
H6_16 C7_16 1_555 1_555
C8_16 C7_16 1_555 1_555
C9_16 C8_16 1_555 1_555
H7_16 C9_16 1_555 1_555
C10_16 C9_16 1_555 1_555
H8_16 C10_16 1_555 1_555
C11_16 C8_16 1_555 1_555
H9_16 C11_16 1_555 1_555
C12_19 H10_19 1_555 1_555
C13_19 C12_19 1_555 1_555
H11_19 C13_19 1_555 1_555
C14_19 C13_19 1_555 1_555
C15_19 C14_19 1_555 1_555
H12_19 C15_19 1_555 1_555
C16_19 C15_19 1_555 1_555
H13_19 C16_19 1_555 1_555
C17_19 C14_19 1_555 1_555
H14_19 C17_19 1_555 1_555
H15_19 C18_19 1_555 1_555
N14_7 C6_16 1_555 1_555
N3_16 C11_16 1_555 1_555
N4_19 C18_19 1_555 1_555
N5_19 C17_19 1_555 1_555
N15_13 C12_19 1_555 1_555
C19_16 H16_16 1_555 1_555
C20_16 C19_16 1_555 1_555
H17_16 C20_16 1_555 1_555
C21_16 C20_16 1_555 1_555
C22_16 C21_16 1_555 1_555
H18_16 C22_16 1_555 1_555
C23_16 C22_16 1_555 1_555
H19_16 C23_16 1_555 1_555
C24_16 C21_16 1_555 1_555
H20_16 C24_16 1_555 1_555
N7_16 C19_16 1_555 1_555
N8_16 N3_16 1_555 1_555
C25_10 H21_10 1_555 1_555
C26_10 C25_10 1_555 1_555
H22_10 C26_10 1_555 1_555
C27_10 C26_10 1_555 1_555
C28_10 C27_10 1_555 1_555
H23_10 C28_10 1_555 1_555
C29_10 C28_10 1_555 1_555
H24_10 C29_10 1_555 1_555
Cd4_9 N7_16 1_555 1_555
C10_16 N14_7 1_555 1_555
C16_19 N15_13 1_555 1_555
N4_19 N5_19 1_555 1_555
C23_16 N7_16 1_555 1_555
C24_16 N8_16 1_555 1_555
C25_10 N13_13 1_555 1_555
C29_10 N13_13 1_555 1_555
C1_20 H1_20 1_555 1_555
C2_20 C1_20 1_555 1_555
H2_20 C2_20 1_555 1_555
C3_20 C2_20 1_555 1_555
C4_20 C3_20 1_555 1_555
H3_20 C4_20 1_555 1_555
C5_20 C4_20 1_555 1_555
H4_20 C5_20 1_555 1_555
H11_20 C13_20 1_555 1_555
C14_20 C13_20 1_555 1_555
C15_20 C14_20 1_555 1_555
H12_20 C15_20 1_555 1_555
C17_20 C14_20 1_555 1_555
H14_20 C17_20 1_555 1_555
C18_20 C3_20 1_555 1_555
H15_20 C18_20 1_555 1_555
N13_14 C1_20 1_555 1_555
N4_20 C18_20 1_555 1_555
N5_20 C17_20 1_555 1_555
C5_20 N13_14 1_555 1_555
N4_20 N5_20 1_555 1_555
C6_17 H5_17 1_555 1_555
C7_17 C6_17 1_555 1_555
H6_17 C7_17 1_555 1_555
C8_17 C7_17 1_555 1_555
C9_17 C8_17 1_555 1_555
H7_17 C9_17 1_555 1_555
C10_17 C9_17 1_555 1_555
H8_17 C10_17 1_555 1_555
C11_17 C8_17 1_555 1_555
H9_17 C11_17 1_555 1_555
C12_20 H10_20 1_555 1_555
H13_20 C16_20 1_555 1_555
N14_9 C6_17 1_555 1_555
N3_17 C11_17 1_555 1_555
N15_15 C12_20 1_555 1_555
C19_17 H16_17 1_555 1_555
C20_17 C19_17 1_555 1_555
H17_17 C20_17 1_555 1_555
C21_17 C20_17 1_555 1_555
C22_17 C21_17 1_555 1_555
H18_17 C22_17 1_555 1_555
C23_17 C22_17 1_555 1_555
H19_17 C23_17 1_555 1_555
C24_17 C21_17 1_555 1_555
H20_17 C24_17 1_555 1_555
N7_17 C19_17 1_555 1_555
N8_17 N3_17 1_555 1_555
Cd4_11 N7_17 1_555 1_555
C10_17 N14_9 1_555 1_555
C16_20 N15_15 1_555 1_555
C23_17 N7_17 1_555 1_555
C24_17 N8_17 1_555 1_555
C6_18 H5_18 1_555 1_555
C7_18 C6_18 1_555 1_555
H6_18 C7_18 1_555 1_555
C8_18 C7_18 1_555 1_555
C9_18 C8_18 1_555 1_555
H7_18 C9_18 1_555 1_555
C10_18 C9_18 1_555 1_555
H8_18 C10_18 1_555 1_555
C11_18 C8_18 1_555 1_555
H9_18 C11_18 1_555 1_555
N14_8 C6_18 1_555 1_555
N3_18 C11_18 1_555 1_555
C19_18 H16_18 1_555 1_555
C20_18 C19_18 1_555 1_555
H17_18 C20_18 1_555 1_555
C21_18 C20_18 1_555 1_555
C22_18 C21_18 1_555 1_555
H18_18 C22_18 1_555 1_555
C23_18 C22_18 1_555 1_555
H19_18 C23_18 1_555 1_555
C24_18 C21_18 1_555 1_555
H20_18 C24_18 1_555 1_555
N7_18 C19_18 1_555 1_555
N8_18 N3_18 1_555 1_555
Cd4_10 N7_18 1_555 1_555
C10_18 N14_8 1_555 1_555
C23_18 N7_18 1_555 1_555
C24_18 N8_18 1_555 1_555
C1_21 H1_21 1_555 1_555
C2_21 C1_21 1_555 1_555
H2_21 C2_21 1_555 1_555
C3_21 C2_21 1_555 1_555
C4_21 C3_21 1_555 1_555
H3_21 C4_21 1_555 1_555
C5_21 C4_21 1_555 1_555
H4_21 C5_21 1_555 1_555
N1_11 C1_21 1_555 1_555
Cd4_10 N1_11 1_555 1_555
C5_21 N1_11 1_555 1_555
C30_11 H25_11 1_555 1_555
H28_11 C34_11 1_555 1_555
N12_6 C30_11 1_555 1_555
Cd4_11 N12_6 1_555 1_555
C34_11 N12_6 1_555 1_555
C12_21 H10_21 1_555 1_555
H13_21 C16_21 1_555 1_555
N6_11 C12_21 1_555 1_555
C25_11 H21_11 1_555 1_555
C26_11 C25_11 1_555 1_555
H22_11 C26_11 1_555 1_555
C27_11 C26_11 1_555 1_555
C28_11 C27_11 1_555 1_555
H23_11 C28_11 1_555 1_555
C29_11 C28_11 1_555 1_555
H24_11 C29_11 1_555 1_555
H26_9 C31_9 1_555 1_555
C32_9 C31_9 1_555 1_555
C33_9 C32_9 1_555 1_555
H27_9 C33_9 1_555 1_555
C35_9 C32_9 1_555 1_555
H29_9 C35_9 1_555 1_555
C36_9 C27_11 1_555 1_555
H30_9 C36_9 1_555 1_555
N9_6 Cd4_9 1_555 1_555
N10_9 C36_9 1_555 1_555
N11_9 C35_9 1_555 1_555
N13_16 Cd4_9 1_555 1_555
N15_16 Cd4_9 1_555 1_555
C16_21 N6_11 1_555 1_555
Cd4_9 N6_11 1_555 1_555
C25_11 N9_6 1_555 1_555
C29_11 N9_6 1_555 1_555
N10_9 N11_9 1_555 1_555
C12_22 H10_22 1_555 1_555
C13_21 C12_22 1_555 1_555
H11_21 C13_21 1_555 1_555
C14_21 C13_21 1_555 1_555
C15_21 C14_21 1_555 1_555
H12_21 C15_21 1_555 1_555
C16_22 C15_21 1_555 1_555
H13_22 C16_22 1_555 1_555
C17_21 C14_21 1_555 1_555
H14_21 C17_21 1_555 1_555
H15_21 C18_21 1_555 1_555
N4_21 C18_21 1_555 1_555
N5_21 C17_21 1_555 1_555
N6_12 C12_22 1_555 1_555
N13_17 Cd4_10 1_555 1_555
N15_17 Cd4_10 1_555 1_555
C16_22 N6_12 1_555 1_555
Cd4_10 N6_12 1_555 1_555
N4_21 N5_21 1_555 1_555
C1_22 H1_22 1_555 1_555
C2_22 C1_22 1_555 1_555
H2_22 C2_22 1_555 1_555
C3_22 C2_22 1_555 1_555
C4_22 C3_22 1_555 1_555
H3_22 C4_22 1_555 1_555
C5_22 C4_22 1_555 1_555
H4_22 C5_22 1_555 1_555
N1_12 C1_22 1_555 1_555
Cd4_11 N1_12 1_555 1_555
C5_22 N1_12 1_555 1_555
N13_18 Cd4_11 1_555 1_555
N15_18 Cd4_11 1_555 1_555
C1_23 H1_23 1_555 1_555
C2_23 C1_23 1_555 1_555
H2_23 C2_23 1_555 1_555
C3_23 C2_23 1_555 1_555
C4_23 C3_23 1_555 1_555
H3_23 C4_23 1_555 1_555
C5_23 C4_23 1_555 1_555
H4_23 C5_23 1_555 1_555
C12_23 H10_23 1_555 1_555
C13_22 C12_23 1_555 1_555
H11_22 C13_22 1_555 1_555
C14_22 C13_22 1_555 1_555
C15_22 C14_22 1_555 1_555
H12_22 C15_22 1_555 1_555
C16_23 C15_22 1_555 1_555
H13_23 C16_23 1_555 1_555
C17_22 C14_22 1_555 1_555
H14_22 C17_22 1_555 1_555
C18_22 C3_23 1_555 1_555
H15_22 C18_22 1_555 1_555
N13_18 C1_23 1_555 1_555
N4_22 C18_22 1_555 1_555
N5_22 C17_22 1_555 1_555
N15_16 C12_23 1_555 1_555
C25_12 H21_12 1_555 1_555
C26_12 C25_12 1_555 1_555
H22_12 C26_12 1_555 1_555
C27_12 C26_12 1_555 1_555
C28_12 C27_12 1_555 1_555
H23_12 C28_12 1_555 1_555
C29_12 C28_12 1_555 1_555
H24_12 C29_12 1_555 1_555
C30_12 H25_12 1_555 1_555
C31_10 C30_12 1_555 1_555
H26_10 C31_10 1_555 1_555
C32_10 C31_10 1_555 1_555
C33_10 C32_10 1_555 1_555
H27_10 C33_10 1_555 1_555
C34_12 C33_10 1_555 1_555
H28_12 C34_12 1_555 1_555
C35_10 C32_10 1_555 1_555
H29_10 C35_10 1_555 1_555
C36_10 C27_12 1_555 1_555
H30_10 C36_10 1_555 1_555
N10_10 C36_10 1_555 1_555
N11_10 C35_10 1_555 1_555
N15_17 C30_12 1_555 1_555
C5_23 N13_18 1_555 1_555
C16_23 N15_16 1_555 1_555
N4_22 N5_22 1_555 1_555
C25_12 N13_16 1_555 1_555
C29_12 N13_16 1_555 1_555
C34_12 N15_17 1_555 1_555
N10_10 N11_10 1_555 1_555
C1_24 H1_24 1_555 1_555
C2_24 C1_24 1_555 1_555
H2_24 C2_24 1_555 1_555
C3_24 C2_24 1_555 1_555
C4_24 C3_24 1_555 1_555
H3_24 C4_24 1_555 1_555
C5_24 C4_24 1_555 1_555
H4_24 C5_24 1_555 1_555
C12_24 H10_24 1_555 1_555
C13_23 C12_24 1_555 1_555
H11_23 C13_23 1_555 1_555
C14_23 C13_23 1_555 1_555
C15_23 C14_23 1_555 1_555
H12_23 C15_23 1_555 1_555
C16_24 C15_23 1_555 1_555
H13_24 C16_24 1_555 1_555
C17_23 C14_23 1_555 1_555
H14_23 C17_23 1_555 1_555
C18_23 C3_24 1_555 1_555
H15_23 C18_23 1_555 1_555
N13_17 C1_24 1_555 1_555
N4_23 C18_23 1_555 1_555
N5_23 C17_23 1_555 1_555
N15_18 C12_24 1_555 1_555
C5_24 N13_17 1_555 1_555
C16_24 N15_18 1_555 1_555
N4_23 N5_23 1_555 1_555
H26_11 C31_11 1_555 1_555
C32_11 C31_11 1_555 1_555
C33_11 C32_11 1_555 1_555
H27_11 C33_11 1_555 1_555
C35_11 C32_11 1_555 1_555
H29_11 C35_11 1_555 1_555
H30_11 C36_11 1_555 1_555
N10_11 C36_11 1_555 1_555
N11_11 C35_11 1_555 1_555
N10_11 N11_11 1_555 1_555
H11_24 C13_24 1_555 1_555
C14_24 C13_24 1_555 1_555
C15_24 C14_24 1_555 1_555
H12_24 C15_24 1_555 1_555
C17_24 C14_24 1_555 1_555
H14_24 C17_24 1_555 1_555
H15_24 C18_24 1_555 1_555
N4_24 C18_24 1_555 1_555
N5_24 C17_24 1_555 1_555
N4_24 N5_24 1_555 1_555
H26_12 C31_12 1_555 1_555
C32_12 C31_12 1_555 1_555
C33_12 C32_12 1_555 1_555
H27_12 C33_12 1_555 1_555
C35_12 C32_12 1_555 1_555
H29_12 C35_12 1_555 1_555
H30_12 C36_12 1_555 1_555
N10_12 C36_12 1_555 1_555
N11_12 C35_12 1_555 1_555
N10_12 N11_12 1_555 1_555
Cl1 O1 1_555 1_555
O2 Cl1 1_555 1_555
O3 Cl1 1_555 1_555
Cl1_2 O1_2 1_555 1_555
O2_2 Cl1_2 1_555 1_555
O3_2 Cl1_2 1_555 1_555
Cl1_3 O1_3 1_555 1_555
O2_3 Cl1_3 1_555 1_555
O3_3 Cl1_3 1_555 1_555
O4_3 Cl1_3 1_555 1_555
Cl1_4 O1_4 1_555 1_555
O2_4 Cl1_4 1_555 1_555
O3_4 Cl1_4 1_555 1_555
Cl1_5 O1_5 1_555 1_555
O2_5 Cl1_5 1_555 1_555
O3_5 Cl1_5 1_555 1_555
O4_5 Cl1_5 1_555 1_555
Cl1_6 O1_6 1_555 1_555
O2_6 Cl1_6 1_555 1_555
O3_6 Cl1_6 1_555 1_555
Cl1_7 O1_7 1_555 1_555
O3_7 Cl1_7 1_555 1_555
O4_7 Cl1_7 1_555 1_555
Cl1_8 O1_8 1_555 1_555
O2_8 Cl1_8 1_555 1_555
O3_8 Cl1_8 1_555 1_555
O4_8 Cl1_8 1_555 1_555
Cl1_9 O1_9 1_555 1_555
O3_9 Cl1_9 1_555 1_555
O4_9 Cl1_9 1_555 1_555
Cl1_10 O1_10 1_555 1_555
O2_10 Cl1_10 1_555 1_555
O3_10 Cl1_10 1_555 1_555
O4_10 Cl1_10 1_555 1_555
Cl1_11 O1_11 1_555 1_555
O2_11 Cl1_11 1_555 1_555
O3_11 Cl1_11 1_555 1_555
O4_11 Cl1_11 1_555 1_555
Cl1_12 O1_12 1_555 1_555
O2_12 Cl1_12 1_555 1_555
O3_12 Cl1_12 1_555 1_555
O4_12 Cl1_12 1_555 1_555
Cl1_13 O1_13 1_555 1_555
O3_13 Cl1_13 1_555 1_555
Cl1_14 O1_14 1_555 1_555
O3_14 Cl1_14 1_555 1_555
Cl1_15 O1_15 1_555 1_555
O3_15 Cl1_15 1_555 1_555
Cl1_16 O1_16 1_555 1_555
O2_16 Cl1_16 1_555 1_555
O3_16 Cl1_16 1_555 1_555
O4_16 Cl1_16 1_555 1_555
Cl1_17 O1_17 1_555 1_555
O3_17 Cl1_17 1_555 1_555
O4_17 Cl1_17 1_555 1_555
Cl1_18 O1_18 1_555 1_555
O3_18 Cl1_18 1_555 1_555
O4_18 Cl1_18 1_555 1_555
Cl1_19 O1_19 1_555 1_555
O2_19 Cl1_19 1_555 1_555
O3_19 Cl1_19 1_555 1_555
Cl1_20 O1_20 1_555 1_555
O2_20 Cl1_20 1_555 1_555
O3_20 Cl1_20 1_555 1_555
Cl1_21 O1_21 1_555 1_555
O2_21 Cl1_21 1_555 1_555
O3_21 Cl1_21 1_555 1_555
O4_21 Cl1_21 1_555 1_555
Cl1_22 O1_22 1_555 1_555
O2_22 Cl1_22 1_555 1_555
O3_22 Cl1_22 1_555 1_555
Cl1_23 O1_23 1_555 1_555
O2_23 Cl1_23 1_555 1_555
O3_23 Cl1_23 1_555 1_555
O4_23 Cl1_23 1_555 1_555
Cl1_24 O1_24 1_555 1_555
O2_24 Cl1_24 1_555 1_555
O3_24 Cl1_24 1_555 1_555
Cl1_25 O1_25 1_555 1_555
O3_25 Cl1_25 1_555 1_555
O4_25 Cl1_25 1_555 1_555
Cl1_26 O1_26 1_555 1_555
O2_26 Cl1_26 1_555 1_555
O3_26 Cl1_26 1_555 1_555
O4_26 Cl1_26 1_555 1_555
Cl1_27 O1_27 1_555 1_555
O3_27 Cl1_27 1_555 1_555
O4_27 Cl1_27 1_555 1_555
Cl1_28 O1_28 1_555 1_555
O2_28 Cl1_28 1_555 1_555
O3_28 Cl1_28 1_555 1_555
O4_28 Cl1_28 1_555 1_555
Cl1_29 O1_29 1_555 1_555
O2_29 Cl1_29 1_555 1_555
O3_29 Cl1_29 1_555 1_555
O4_29 Cl1_29 1_555 1_555
Cl1_30 O1_30 1_555 1_555
O2_30 Cl1_30 1_555 1_555
O3_30 Cl1_30 1_555 1_555
O4_30 Cl1_30 1_555 1_555
Cl1_31 O1_31 1_555 1_555
O3_31 Cl1_31 1_555 1_555
Cl1_32 O1_32 1_555 1_555
O3_32 Cl1_32 1_555 1_555
Cl1_33 O1_33 1_555 1_555
O3_33 Cl1_33 1_555 1_555
Cl1_34 O1_34 1_555 1_555
O2_34 Cl1_34 1_555 1_555
O3_34 Cl1_34 1_555 1_555
O4_34 Cl1_34 1_555 1_555
Cl1_35 O1_35 1_555 1_555
O3_35 Cl1_35 1_555 1_555
O4_35 Cl1_35 1_555 1_555
Cl1_36 O1_36 1_555 1_555
O3_36 Cl1_36 1_555 1_555
O4_36 Cl1_36 1_555 1_555

#END
