
###############################################################################
#
# This file contains modified crystal structure data generated from the
# MOF subset of the Cambridge Structural Database (CSD) v543 
# hosted by the Cambridge Crystallographic Data Centre (CCDC).
#
# This work is licensed under the Creative Commons
# Attribution-NonCommercial-ShareAlike 4.0 International License.
# To view a copy of this license, visit
# http://creativecommons.org/licenses/by-nc-sa/4.0/
# or send a letter to
# Creative Commons, PO Box 1866, Mountain View, CA 94042, USA.
#
# CIF created using the CSD Python API on 29 September 2022
# The structure has been converted into the P1 space group
# The structure has a 3D framework
# The original CSD entry SUCLOT is in the triclinic crystal system
# The framework has been calculated to contain at least 10.0% void space
# The void calculation uses a probe of radius 1.32A, grid spacing 0.4
# H atom positions have been added when not included in the experimental data
#
###############################################################################

data_SUCLOT
_chemical_formula_moiety         '(C22 H28 Ca2 N2 O12)n'
_symmetry_cell_setting           triclinic
_symmetry_space_group_name_H-M   'P 1'
_symmetry_Int_Tables_number      1
_space_group_name_Hall           'P 1'
loop_
_symmetry_equiv_pos_site_id
_symmetry_equiv_pos_as_xyz
1 x,y,z
_cell_length_a                   12.4545(1)
_cell_length_b                   10.2080(1)
_cell_length_c                   6.7013(1)
_cell_angle_alpha                107.470(1)
_cell_angle_beta                 104.432(1)
_cell_angle_gamma                66.761(1)
_cell_volume                     738.381
loop_
_atom_site_label
_atom_site_type_symbol
_atom_site_fract_x
_atom_site_fract_y
_atom_site_fract_z
Ca4 Ca 0.4442(3) 0.1094(3) 0.7715(7)
Ca7 Ca 0.5558(3) 0.8906(3) 0.2285(7)
O16 O 0.4756(8) 0.1552(9) 0.1548(18)
H16 H 0.663978 0.120167 0.0269732
O1 O 0.2587(6) 0.0891(7) 0.5014(11)
O2 O 0.5244(8) 0.8448(9) 0.8452(18)
O3 O 0.2621(7) 0.0783(8) 0.8198(11)
O4 O 0.6459(7) 0.0914(8) 0.8705(16)
O5 O 0.5097(7) 0.8590(7) 0.5398(12)
O6 O 0.3088(7) 0.3641(8) 0.7806(16)
C1 C 0.1011(11) 0.6011(14) 0.5360(21)
C2 C 0.513(1) 0.7861(9) 0.6567(14)
C3 C 0.2202(5) 0.0584(9) 0.6292(13)
C4 C 0.1099(5) 0.0375(8) 0.5643(13)
C5 C 0.2107(12) 0.6460(11) 0.8626(16)
C6 C 0.5145(9) 0.6363(7) 0.5779(12)
C8 C 0.2376(15) 0.4312(10) 0.6579(32)
C9 C 0.5398(8) 0.5492(6) 0.7188(11)
C10 C 0.0482(5) 0.0407(9) 0.7183(12)
N1 N 0.1906(9) 0.5684(8) 0.6847(13)
C11 C 0.5388(10) 0.4015(7) 0.6409(11)
C16 C 0.4855(9) 0.3637(7) 0.4221(12)
C17 C 0.4602(8) 0.4508(6) 0.2812(11)
C18 C 0.4612(10) 0.5985(7) 0.3591(11)
O9 O 0.4903(7) 0.1410(7) 0.4602(12)
C19 C 0.487(1) 0.2139(9) 0.3433(14)
H1 H 0.0853456 0.0585656 0.885319
H2 H 0.439611 0.408074 0.112167
H4 H 0.42401 0.677457 0.259315
H9 H 0.560389 0.591926 0.887833
H15 H 0.66061 0.157558 0.806308
H19 H 0.57599 0.322543 0.740685
H20 H 0.210242 0.366774 0.506088
H21 H 0.138816 0.67578 0.950957
H22 H 0.293318 0.585226 0.947831
H23 H 0.217535 0.744824 0.844516
H24 H 0.0982331 0.695667 0.488524
H25 H 0.110786 0.508327 0.400288
H26 H 0.0195137 0.626623 0.594965
C14 C 0.0690(7) 0.9809(12) 0.3524(23)
H8 H 0.125522 0.95129 0.233749
C7 C 0.9310(7) 0.0191(12) 0.6476(23)
H10 H 0.30272 0.0110368 0.180469
H18 H 0.874478 0.0487097 0.766251
O7 O 0.7413(6) 0.9109(7) 0.4986(11)
O8 O 0.7379(7) 0.9217(8) 0.1802(11)
C12 C 0.7798(5) 0.9416(9) 0.3708(13)
C13 C 0.8901(5) 0.9625(8) 0.4357(13)
C15 C 0.9518(5) 0.9593(9) 0.2817(12)
O11 O 0.3541(7) 0.9086(8) 0.1295(16)
O12 O 0.6912(7) 0.6359(8) 0.2194(16)
C20 C 0.8989(11) 0.3989(14) 0.4640(21)
C21 C 0.7893(12) 0.3540(11) 0.1374(16)
C22 C 0.7624(15) 0.5688(10) 0.3421(32)
N2 N 0.8094(9) 0.4316(8) 0.3153(13)
H3 H 0.914654 0.941434 0.114681
H5 H 0.980486 0.373377 0.405035
H6 H 0.889214 0.491673 0.599712
H7 H 0.901767 0.304333 0.511476
H12 H 0.782465 0.255176 0.155484
H13 H 0.706682 0.414774 0.0521694
H14 H 0.861184 0.32422 0.0490429
H17 H 0.789758 0.633226 0.493912
H11 H 0.336022 0.879833 0.973027
H10_2 H 0.69728 0.988963 0.819531
H15_2 H 0.33939 0.842442 0.193692
loop_
_geom_bond_atom_site_label_1
_geom_bond_atom_site_label_2
_geom_bond_site_symmetry_1
_geom_bond_site_symmetry_2
Ca4 O1 1_555 1_555
O1 C3 1_555 1_555
O2 C2 1_555 1_555
O3 Ca4 1_555 1_555
O4 Ca4 1_555 1_555
O5 C2 1_555 1_555
O6 Ca4 1_555 1_555
C1 N1 1_555 1_555
C2 C6 1_555 1_555
C3 O3 1_555 1_555
C4 C3 1_555 1_555
C5 N1 1_555 1_555
C6 C9 1_555 1_555
C8 O6 1_555 1_555
C9 C11 1_555 1_555
C10 C4 1_555 1_555
N1 C8 1_555 1_555
C11 C16 1_555 1_555
C16 C17 1_555 1_555
C17 C18 1_555 1_555
C18 C6 1_555 1_555
O9 Ca4 1_555 1_555
C19 C16 1_555 1_555
O16 C19 1_555 1_555
Ca7 O5 1_555 1_555
O9 C19 1_555 1_555
C10 H1 1_555 1_555
C17 H2 1_555 1_555
C18 H4 1_555 1_555
C9 H9 1_555 1_555
O4 H15 1_555 1_555
C11 H19 1_555 1_555
C8 H20 1_555 1_555
C5 H21 1_555 1_555
C5 H22 1_555 1_555
C5 H23 1_555 1_555
C1 H24 1_555 1_555
C1 H25 1_555 1_555
C1 H26 1_555 1_555
C14 H8 1_555 1_555
C7 H18 1_555 1_555
O7 C12 1_555 1_555
O8 C12 1_555 1_555
C12 C13 1_555 1_555
C15 C13 1_555 1_555
Ca7 O7 1_555 1_555
O11 Ca7 1_555 1_555
O12 Ca7 1_555 1_555
C20 N2 1_555 1_555
C21 N2 1_555 1_555
C22 O12 1_555 1_555
N2 C22 1_555 1_555
O8 Ca7 1_555 1_555
C15 H3 1_555 1_555
C20 H5 1_555 1_555
C20 H6 1_555 1_555
C20 H7 1_555 1_555
C21 H12 1_555 1_555
C21 H13 1_555 1_555
C21 H14 1_555 1_555
C22 H17 1_555 1_555
O11 H15_2 1_555 1_555

#END
