
###############################################################################
#
# This file contains modified crystal structure data generated from the
# MOF subset of the Cambridge Structural Database (CSD) v543 
# hosted by the Cambridge Crystallographic Data Centre (CCDC).
#
# This work is licensed under the Creative Commons
# Attribution-NonCommercial-ShareAlike 4.0 International License.
# To view a copy of this license, visit
# http://creativecommons.org/licenses/by-nc-sa/4.0/
# or send a letter to
# Creative Commons, PO Box 1866, Mountain View, CA 94042, USA.
#
# CIF created using the CSD Python API on 29 September 2022
# The structure has been converted into the P1 space group
# The structure has a 3D framework
# The original CSD entry SUDBOI is in the monoclinic crystal system
# The framework has been calculated to contain at least 10.0% void space
# The void calculation uses a probe of radius 1.32A, grid spacing 0.4
#
###############################################################################

data_SUDBOI
_chemical_formula_moiety         '(C40 H8 Na8 O32 Zn2)n'
_symmetry_cell_setting           triclinic
_symmetry_space_group_name_H-M   'P 1'
_symmetry_Int_Tables_number      1
_space_group_name_Hall           'P 1'
loop_
_symmetry_equiv_pos_site_id
_symmetry_equiv_pos_as_xyz
1 x,y,z
_cell_length_a                   10.926(1)
_cell_length_b                   13.917(1)
_cell_length_c                   13.122(1)
_cell_angle_alpha                90
_cell_angle_beta                 102.14(1)
_cell_angle_gamma                90
_cell_volume                     1950.67
loop_
_atom_site_label
_atom_site_type_symbol
_atom_site_fract_x
_atom_site_fract_y
_atom_site_fract_z
Zn3 Zn 0.24780(2) 0.03528(2) 0.99982(2)
O1 O 0.1239(1) 0.9548(1) 0.9035(1)
O7 O 0.1456(1) 0.5963(1) 0.5809(1)
O8 O 0.2984(1) 0.6608(1) 0.6993(1)
C1 C 0.0408(2) 0.8048(1) 0.8389(2)
C5 C 0.0877(2) 0.6969(2) 0.7065(2)
C6 C 0.1257(2) 0.7599(2) 0.7890(2)
C7 C 0.0975(2) 0.8693(2) 0.9289(2)
C10 C 0.1865(2) 0.6490(2) 0.6594(2)
H2 H 0.2154(19) 0.7692(15) 0.8169(16)
Zn4 Zn 0.25220(2) 0.53528(2) 0.50018(2)
Zn2 Zn 0.75220(2) 0.96472(2) 0.00018(2)
Zn1 Zn 0.74780(2) 0.46472(2) 0.49982(2)
O3 O 0.8590(1) 0.8857(1) 0.9334(1)
O4 O 0.7021(1) 0.8207(1) 0.8165(1)
O5 O 0.8903(1) 0.6369(1) 0.4932(1)
O6 O 0.8597(1) 0.5330(1) 0.6141(1)
C2 C 0.9130(2) 0.7859(2) 0.8053(2)
C3 C 0.8750(2) 0.7224(2) 0.7232(2)
C4 C 0.9601(2) 0.6781(1) 0.6729(2)
C8 C 0.8149(2) 0.8334(2) 0.8546(2)
C9 C 0.9029(2) 0.6114(2) 0.5846(2)
H1 H 0.7855(19) 0.7104(15) 0.6964(16)
O9 O 0.6239(1) 0.5452(1) 0.4035(1)
O10 O 0.6410(1) 0.3857(1) 0.5666(1)
O11 O 0.8544(1) 0.4037(1) 0.4191(1)
O5_2 O 0.6097(1) 0.1369(1) 0.0068(1)
O9_2 O 0.8761(1) 0.0452(1) 0.0965(1)
O1_2 O 0.3761(1) 0.4548(1) 0.5965(1)
O2 O 0.3748(1) 0.3351(1) 0.4823(1)
O4_2 O 0.7979(1) 0.3207(1) 0.6835(1)
O6_2 O 0.6403(1) 0.0330(1) 0.8859(1)
O7_2 O 0.3544(1) 0.0963(1) 0.9191(1)
O8_2 O 0.2016(1) 0.1608(1) 0.8007(1)
C1_2 C 0.4592(2) 0.3048(1) 0.6611(2)
C2_2 C 0.5870(2) 0.2859(2) 0.6947(2)
C3_2 C 0.6250(2) 0.2224(2) 0.7768(2)
C4_2 C 0.5399(2) 0.1781(1) 0.8271(2)
C5_2 C 0.4123(2) 0.1969(2) 0.7935(2)
C6_2 C 0.3743(2) 0.2599(2) 0.7110(2)
C7_2 C 0.4025(2) 0.3693(2) 0.5711(2)
C8_2 C 0.6851(2) 0.3334(2) 0.6454(2)
C9_2 C 0.5971(2) 0.1114(2) 0.9154(2)
C10_2 C 0.3135(2) 0.1490(2) 0.8406(2)
H1_2 H 0.7145(19) 0.2104(15) 0.8036(16)
H2_2 H 0.2846(19) 0.2692(15) 0.6831(16)
O11_2 O 0.6456(1) 0.9037(1) 0.0809(1)
O3_2 O 0.1410(1) 0.1143(1) 0.0666(1)
O4_3 O 0.2979(1) 0.1793(1) 0.1835(1)
O5_3 O 0.1097(1) 0.3631(1) 0.5068(1)
O6_3 O 0.1403(1) 0.4670(1) 0.3859(1)
C2_3 C 0.0870(2) 0.2141(2) 0.1947(2)
C3_3 C 0.1250(2) 0.2776(2) 0.2768(2)
C4_3 C 0.0399(2) 0.3219(1) 0.3271(2)
C8_3 C 0.1851(2) 0.1666(2) 0.1454(2)
C9_3 C 0.0971(2) 0.3886(2) 0.4154(2)
H1_3 H 0.2145(19) 0.2896(15) 0.3036(16)
O10_2 O 0.3590(1) 0.6143(1) 0.4334(1)
O8_3 O 0.7016(1) 0.3392(1) 0.3007(1)
C1_3 C 0.9592(2) 0.1952(1) 0.1611(2)
C5_3 C 0.9123(2) 0.3031(2) 0.2935(2)
C6_3 C 0.8743(2) 0.2401(2) 0.2110(2)
C7_3 C 0.9025(2) 0.1307(2) 0.0711(2)
C10_3 C 0.8135(2) 0.3510(2) 0.3406(2)
H2_3 H 0.7846(19) 0.2308(15) 0.1831(16)
O2_2 O 0.6252(1) 0.6649(1) 0.5177(1)
O4_4 O 0.2021(1) 0.6793(1) 0.3165(1)
O6_4 O 0.3597(1) 0.9670(1) 0.1141(1)
O8_4 O 0.7984(1) 0.8392(1) 0.1993(1)
C1_4 C 0.5408(2) 0.6952(1) 0.3389(2)
C2_4 C 0.4130(2) 0.7141(2) 0.3053(2)
C3_4 C 0.3750(2) 0.7776(2) 0.2232(2)
C4_4 C 0.4601(2) 0.8219(1) 0.1729(2)
C5_4 C 0.5877(2) 0.8031(2) 0.2065(2)
C6_4 C 0.6257(2) 0.7401(2) 0.2890(2)
C7_4 C 0.5975(2) 0.6307(2) 0.4289(2)
C8_4 C 0.3149(2) 0.6666(2) 0.3546(2)
C9_4 C 0.4029(2) 0.8886(2) 0.0846(2)
C10_4 C 0.6865(2) 0.8510(2) 0.1594(2)
H1_4 H 0.2855(19) 0.7896(15) 0.1964(16)
H2_4 H 0.7154(19) 0.7308(15) 0.3169(16)
O5_4 O 0.3903(1) 0.8631(1) 0.9932(1)
O2_3 O 0.1252(1) 0.8351(1) 0.0177(1)
O2_4 O 0.8748(1) 0.1649(1) 0.9823(1)
Na1 Na 0.4182(1) 0.0483(1) 0.2819(1)
Na1_2 Na 0.0818(1) 0.5483(1) 0.2181(1)
Na1_3 Na 0.5818(1) 0.9517(1) 0.7181(1)
Na1_4 Na 0.9182(1) 0.4517(1) 0.7819(1)
Na2 Na 0.5054(1) 0.2652(1) 0.2419(1)
Na2_2 Na 0.9946(1) 0.7652(1) 0.2581(1)
Na2_3 Na 0.4946(1) 0.7348(1) 0.7581(1)
Na2_4 Na 0.0054(1) 0.2348(1) 0.7419(1)
loop_
_geom_bond_atom_site_label_1
_geom_bond_atom_site_label_2
_geom_bond_site_symmetry_1
_geom_bond_site_symmetry_2
O1 C7 1_555 1_555
O7 C10 1_555 1_555
O8 C10 1_555 1_555
C5 C6 1_555 1_555
C6 C1 1_555 1_555
C7 C1 1_555 1_555
C10 C5 1_555 1_555
H2 C6 1_555 1_555
Zn4 O7 1_555 1_555
Zn1 O6 1_555 1_555
O3 C8 1_555 1_555
O4 C8 1_555 1_555
O5 C9 1_555 1_555
O6 C9 1_555 1_555
C2 C3 1_555 1_555
C3 C4 1_555 1_555
C8 C2 1_555 1_555
C9 C4 1_555 1_555
H1 C3 1_555 1_555
O9 Zn1 1_555 1_555
O10 Zn1 1_555 1_555
O11 Zn1 1_555 1_555
O1_2 C7_2 1_555 1_555
O2 C7_2 1_555 1_555
O10 C8_2 1_555 1_555
O4_2 C8_2 1_555 1_555
O6_2 C9_2 1_555 1_555
O7_2 C10_2 1_555 1_555
O8_2 C10_2 1_555 1_555
C1_2 C2_2 1_555 1_555
C2_2 C3_2 1_555 1_555
C3_2 C4_2 1_555 1_555
C4_2 C5_2 1_555 1_555
C5_2 C6_2 1_555 1_555
C6_2 C1_2 1_555 1_555
C7_2 C1_2 1_555 1_555
C8_2 C2_2 1_555 1_555
C9_2 C4_2 1_555 1_555
C10_2 C5_2 1_555 1_555
H1_2 C3_2 1_555 1_555
H2_2 C6_2 1_555 1_555
Zn4 O1_2 1_555 1_555
Zn3 O7_2 1_555 1_555
O11_2 Zn2 1_555 1_555
Zn4 O6_3 1_555 1_555
O3_2 C8_3 1_555 1_555
O4_3 C8_3 1_555 1_555
O5_3 C9_3 1_555 1_555
O6_3 C9_3 1_555 1_555
C2_3 C3_3 1_555 1_555
C3_3 C4_3 1_555 1_555
C8_3 C2_3 1_555 1_555
C9_3 C4_3 1_555 1_555
H1_3 C3_3 1_555 1_555
O10_2 Zn4 1_555 1_555
O9_2 C7_3 1_555 1_555
O11 C10_3 1_555 1_555
O8_3 C10_3 1_555 1_555
C5_3 C6_3 1_555 1_555
C6_3 C1_3 1_555 1_555
C7_3 C1_3 1_555 1_555
C10_3 C5_3 1_555 1_555
H2_3 C6_3 1_555 1_555
O9 C7_4 1_555 1_555
O2_2 C7_4 1_555 1_555
O10_2 C8_4 1_555 1_555
O4_4 C8_4 1_555 1_555
O6_4 C9_4 1_555 1_555
O11_2 C10_4 1_555 1_555
O8_4 C10_4 1_555 1_555
C1_4 C2_4 1_555 1_555
C2_4 C3_4 1_555 1_555
C3_4 C4_4 1_555 1_555
C4_4 C5_4 1_555 1_555
C5_4 C6_4 1_555 1_555
C6_4 C1_4 1_555 1_555
C7_4 C1_4 1_555 1_555
C8_4 C2_4 1_555 1_555
C9_4 C4_4 1_555 1_555
C10_4 C5_4 1_555 1_555
H1_4 C3_4 1_555 1_555
H2_4 C6_4 1_555 1_555

#END
