
###############################################################################
#
# This file contains modified crystal structure data generated from the
# MOF subset of the Cambridge Structural Database (CSD) v543 
# hosted by the Cambridge Crystallographic Data Centre (CCDC).
#
# This work is licensed under the Creative Commons
# Attribution-NonCommercial-ShareAlike 4.0 International License.
# To view a copy of this license, visit
# http://creativecommons.org/licenses/by-nc-sa/4.0/
# or send a letter to
# Creative Commons, PO Box 1866, Mountain View, CA 94042, USA.
#
# CIF created using the CSD Python API on 29 September 2022
# The structure has been converted into the P1 space group
# The structure has a 3D framework
# The original CSD entry SUFHIM is in the rhombohedral crystal system
# The framework has been calculated to contain at least 10.0% void space
# The void calculation uses a probe of radius 1.32A, grid spacing 0.4
#
###############################################################################

data_SUFHIM
_chemical_formula_moiety         '(C216 H72 Na44 O174 Zn22 8+)n'
_symmetry_cell_setting           triclinic
_symmetry_space_group_name_H-M   'P 1'
_symmetry_Int_Tables_number      1
_space_group_name_Hall           'P 1'
loop_
_symmetry_equiv_pos_site_id
_symmetry_equiv_pos_as_xyz
1 x,y,z
_cell_length_a                   29.007(10)
_cell_length_b                   29.007(10)
_cell_length_c                   16.175(6)
_cell_angle_alpha                90
_cell_angle_beta                 90
_cell_angle_gamma                120
_cell_volume                     11786.4
loop_
_atom_site_label
_atom_site_type_symbol
_atom_site_fract_x
_atom_site_fract_y
_atom_site_fract_z
Na1 Na 0.99836(8) 0.33169(8) 0.9167
Na1_2 Na 0.66831(8) 0.66667(11) 0.9167
Na1_3 Na 0.33333(11) 0.00164(8) 0.9167
Na1_4 Na 0.33169(8) 0.99836(8) 0.5833
Na1_5 Na 0.00164(8) 0.33333(11) 0.5833
Na1_6 Na 0.66667(11) 0.66831(8) 0.5833
Na1_7 Na 0.66503(8) 0.66502(8) 0.2500
Na1_8 Na 0.33498(8) 0.00000(11) 0.2500
Na1_9 Na 0.33498(8) 1.00000(11) 0.2500
Na1_10 Na -0.00000(11) 0.33497(8) 0.2500
Na1_11 Na 1.00000(11) 0.33497(8) 0.2500
Na1_12 Na 0.00164(8) 0.66831(8) 0.0833
Na1_13 Na 0.33169(8) 0.33333(11) 0.0833
Na1_14 Na 0.66667(11) 0.99836(8) 0.0833
Na1_15 Na 0.66831(8) 0.00164(8) 0.4167
Na1_16 Na 0.99836(8) 0.66667(11) 0.4167
Na1_17 Na 0.33333(11) 0.33169(8) 0.4167
Na1_18 Na 0.33497(8) 0.33498(8) 0.7500
Na1_19 Na 0.66502(8) -0.00000(11) 0.7500
Na1_20 Na 0.66502(8) 1.00000(11) 0.7500
Na1_21 Na 0.00000(11) 0.66503(8) 0.7500
Na1_22 Na 1.00000(11) 0.66503(8) 0.7500
O1 O 0.00466(11) 0.27581(11) 0.13881(16)
Zn1 Zn 0.06646(2) 0.3333 0.0833
C7 C 0.04652(22) 0.41568(16) 0.0768(2)
C8 C 0.04077(23) 0.57845(16) 0.0992(2)
C9 C 0.05529(22) 0.54237(16) 0.0568(2)
C12 C 0.05775(22) 0.46814(16) 0.0465(2)
O6 O 0.06218(16) 0.39086(11) 0.02786(16)
O7 O 0.02486(18) 0.39913(13) 0.14431(18)
O8 O 0.02376(16) 0.56439(12) 0.17345(16)
O9 O 0.04585(16) 0.61800(12) 0.06270(18)
O10 O 0.04254(15) 0.49603(11) 0.09724(15)
O11 O 0.10228(12) 0.30957(16) 0.00678(16)
O12 O 0.12604(11) 0.35710(16) 0.15989(16)
Zn3 Zn -0.0000 0.60017(2) 0.2500
C1 C 0.96418(15) 0.25099(16) 0.0899(2)
C2 C 0.79566(16) 0.08822(16) 0.0675(2)
C3 C 0.84626(15) 0.12430(16) 0.1099(2)
C4 C 0.86750(18) 0.12319(18) 0.1847(2)
H1 H 0.8524 0.0962 0.2240
C5 C 0.91643(17) 0.17060(17) 0.1906(2)
H2 H 0.9401 0.1810 0.2347
C6 C 0.92295(15) 0.19853(16) 0.1202(2)
O2 O 0.95907(13) 0.26754(13) 0.02236(18)
O4 O 0.76119(11) 0.04867(12) 0.10397(18)
O5 O 0.87985(10) 0.17064(11) 0.06943(15)
Zn3_2 Zn 1.0000 0.60017(2) 0.2500
O3 O 0.79271(11) 0.10228(12) 0.99322(16)
Zn2 Zn 0.73316(2) 0.06646(2) 0.9167
C1_2 C 0.74901(16) 0.71319(22) 0.0899(2)
C2_2 C 0.91178(16) 0.70744(23) 0.0675(2)
C3_2 C 0.87570(16) 0.72196(22) 0.1099(2)
C4_2 C 0.87681(18) 0.74431(25) 0.1847(2)
H1_2 H 0.9038 0.7562 0.2240
C5_2 C 0.82940(17) 0.74583(24) 0.1906(2)
H2_2 H 0.8190 0.7591 0.2347
C6_2 C 0.80147(16) 0.72442(22) 0.1202(2)
O1_2 O 0.72419(11) 0.72885(16) 0.13881(16)
O2_2 O 0.73246(13) 0.69153(18) 0.02236(18)
O4_2 O 0.95133(12) 0.71252(16) 0.10397(18)
O5_2 O 0.82936(11) 0.70921(15) 0.06943(15)
Zn1_2 Zn 0.6667 0.73316(2) 0.0833
C7_2 C 0.58432(16) 0.63085(27) 0.0768(2)
C8_2 C 0.42155(16) 0.46233(28) 0.0992(2)
C9_2 C 0.45763(16) 0.51293(27) 0.0568(2)
C12_2 C 0.53186(16) 0.58962(27) 0.0465(2)
O6_2 O 0.60914(11) 0.67133(19) 0.02786(16)
O7_2 O 0.60087(13) 0.62574(22) 0.14431(18)
O8_2 O 0.43561(12) 0.45938(20) 0.17345(16)
O9_2 O 0.38200(12) 0.42786(20) 0.06270(18)
O10_2 O 0.50397(11) 0.54652(19) 0.09724(15)
O11_2 O 0.69043(16) 0.79271(20) 0.00678(16)
O12_2 O 0.64290(16) 0.76895(19) 0.15989(16)
Zn3_3 Zn 0.39983(2) 0.39979(2) 0.2500
O3_2 O 0.89772(12) 0.69043(16) 0.99322(16)
C10 C 0.45652(18) 0.53417(31) 0.9820(2)
H3 H 0.4295 0.5191 0.9427
C11 C 0.50393(17) 0.58310(29) 0.9761(2)
H4 H 0.5143 0.6068 0.9320
Zn2_2 Zn 0.93354(2) 0.66670(3) 0.9167
C1_3 C 0.28681(22) 0.03582(15) 0.0899(2)
C2_3 C 0.29256(23) 0.20434(16) 0.0675(2)
C3_3 C 0.27804(22) 0.15374(15) 0.1099(2)
C4_3 C 0.25569(25) 0.13250(18) 0.1847(2)
H1_3 H 0.2438 0.1476 0.2240
C5_3 C 0.25417(24) 0.08357(17) 0.1906(2)
H2_3 H 0.2409 0.0599 0.2347
C6_3 C 0.27558(22) 0.07705(15) 0.1202(2)
O2_3 O 0.30847(18) 0.04093(13) 0.02236(18)
O4_3 O 0.28748(16) 0.23881(11) 0.10397(18)
O5_3 O 0.29079(15) 0.12015(10) 0.06943(15)
Zn3_4 Zn 0.60021(2) 0.0000 0.2500
O3_3 O 0.30957(16) 0.20729(11) 0.99322(16)
Zn2_3 Zn 0.33330(3) 0.26684(2) 0.9167
O1_3 O 0.27115(16) 0.99534(11) 0.13881(16)
Zn1_3 Zn 0.26684(2) 0.93354(2) 0.0833
C7_3 C 0.36915(27) 0.95348(22) 0.0768(2)
C8_3 C 0.53767(28) 0.95923(23) 0.0992(2)
C9_3 C 0.48707(27) 0.94471(22) 0.0568(2)
C12_3 C 0.41038(27) 0.94225(22) 0.0465(2)
O6_3 O 0.32867(19) 0.93782(16) 0.02786(16)
O7_3 O 0.37426(22) 0.97514(18) 0.14431(18)
O8_3 O 0.54062(20) 0.97624(16) 0.17345(16)
O9_3 O 0.57214(20) 0.95415(16) 0.06270(18)
O10_3 O 0.45348(19) 0.95746(15) 0.09724(15)
O11_3 O 0.20729(20) 0.89772(12) 0.00678(16)
O12_3 O 0.23105(19) 0.87396(11) 0.15989(16)
Zn3_5 Zn 0.60021(2) 1.0000 0.2500
O1_4 O 0.27581(11) 0.00466(11) 0.36119(16)
Zn1_4 Zn 0.3333 0.06646(2) 0.4167
C7_4 C 0.41568(16) 0.04652(22) 0.4232(2)
C8_4 C 0.57845(16) 0.04077(23) 0.4008(2)
C9_4 C 0.54237(16) 0.05529(22) 0.4432(2)
C10_2 C 0.54348(18) 0.07764(25) 0.5180(2)
H3_2 H 0.5705 0.0895 0.5573
C11_2 C 0.49607(17) 0.07916(24) 0.5239(2)
H4_2 H 0.4857 0.0924 0.5680
C12_4 C 0.46814(16) 0.05775(22) 0.4535(2)
O6_4 O 0.39086(11) 0.06218(16) 0.47214(16)
O7_4 O 0.39913(13) 0.02486(18) 0.35569(18)
O8_4 O 0.56439(12) 0.02376(16) 0.32655(16)
O9_4 O 0.61800(12) 0.04585(16) 0.43730(18)
O10_4 O 0.49603(11) 0.04254(15) 0.40276(15)
O11_4 O 0.30957(16) 0.10228(12) 0.49322(16)
O12_4 O 0.35710(16) 0.12604(11) 0.34011(16)
C1_4 C 0.25099(16) 0.96418(15) 0.4101(2)
C2_4 C 0.08822(16) 0.79566(16) 0.4325(2)
C3_4 C 0.12430(16) 0.84626(15) 0.3901(2)
C4_4 C 0.12319(18) 0.86750(18) 0.3153(2)
H1_4 H 0.0962 0.8524 0.2760
C5_4 C 0.17060(17) 0.91643(17) 0.3094(2)
H2_4 H 0.1810 0.9401 0.2653
C6_4 C 0.19853(16) 0.92295(15) 0.3798(2)
O2_4 O 0.26754(13) 0.95907(13) 0.47764(18)
O3_4 O 0.10228(12) 0.79271(11) 0.50678(16)
O4_4 O 0.04867(12) 0.76119(11) 0.39603(18)
O5_4 O 0.17064(11) 0.87985(10) 0.43057(15)
Zn2_4 Zn 0.06646(2) 0.73316(2) 0.5833
C1_5 C 0.03582(15) 0.28681(22) 0.4101(2)
C2_5 C 0.20434(16) 0.29256(23) 0.4325(2)
C3_5 C 0.15374(15) 0.27804(22) 0.3901(2)
C4_5 C 0.13250(18) 0.25569(25) 0.3153(2)
H1_5 H 0.1476 0.2438 0.2760
C5_5 C 0.08357(17) 0.25417(24) 0.3094(2)
H2_5 H 0.0599 0.2409 0.2653
C6_5 C 0.07705(15) 0.27558(22) 0.3798(2)
O2_5 O 0.04093(13) 0.30847(18) 0.47764(18)
O3_5 O 0.20729(11) 0.30957(16) 0.50678(16)
O4_5 O 0.23881(11) 0.28748(16) 0.39603(18)
O5_5 O 0.12015(10) 0.29079(15) 0.43057(15)
Zn2_5 Zn 0.26684(2) 0.33330(3) 0.5833
O1_5 O 0.99534(11) 0.27115(16) 0.36119(16)
Zn1_5 Zn 0.93354(2) 0.26684(2) 0.4167
C7_5 C 0.95348(22) 0.36915(27) 0.4232(2)
C8_5 C 0.95923(23) 0.53767(28) 0.4008(2)
C9_5 C 0.94471(22) 0.48707(27) 0.4432(2)
C10_3 C 0.92236(25) 0.46583(31) 0.5180(2)
H3_3 H 0.9105 0.4809 0.5573
C11_3 C 0.92084(24) 0.41690(29) 0.5239(2)
H4_3 H 0.9076 0.3932 0.5680
C12_5 C 0.94225(22) 0.41038(27) 0.4535(2)
O6_5 O 0.93782(16) 0.32867(19) 0.47214(16)
O7_5 O 0.97514(18) 0.37426(22) 0.35569(18)
O8_5 O 0.97624(16) 0.54062(20) 0.32655(16)
O9_5 O 0.95415(16) 0.57214(20) 0.43730(18)
O10_5 O 0.95746(15) 0.45348(19) 0.40276(15)
O11_5 O 0.89772(12) 0.20729(20) 0.49322(16)
O12_5 O 0.87396(11) 0.23105(19) 0.34011(16)
C1_6 C 0.71319(22) 0.74901(16) 0.4101(2)
C2_6 C 0.70744(23) 0.91178(16) 0.4325(2)
C3_6 C 0.72196(22) 0.87570(16) 0.3901(2)
C4_6 C 0.74431(25) 0.87681(18) 0.3153(2)
H1_6 H 0.7562 0.9038 0.2760
C5_6 C 0.74583(24) 0.82940(17) 0.3094(2)
H2_6 H 0.7591 0.8190 0.2653
C6_6 C 0.72442(22) 0.80147(16) 0.3798(2)
O1_6 O 0.72885(16) 0.72419(11) 0.36119(16)
O2_6 O 0.69153(18) 0.73246(13) 0.47764(18)
O3_6 O 0.69043(16) 0.89772(12) 0.50678(16)
O4_6 O 0.71252(16) 0.95133(12) 0.39603(18)
O5_6 O 0.70921(15) 0.82936(11) 0.43057(15)
Zn1_6 Zn 0.73316(2) 0.6667 0.4167
C7_6 C 0.63085(27) 0.58432(16) 0.4232(2)
C8_6 C 0.46233(28) 0.42155(16) 0.4008(2)
C9_6 C 0.51293(27) 0.45763(16) 0.4432(2)
C10_4 C 0.53417(31) 0.45652(18) 0.5180(2)
H3_4 H 0.5191 0.4295 0.5573
C11_4 C 0.58310(29) 0.50393(17) 0.5239(2)
H4_4 H 0.6068 0.5143 0.5680
C12_6 C 0.58962(27) 0.53186(16) 0.4535(2)
O6_6 O 0.67133(19) 0.60914(11) 0.47214(16)
O7_6 O 0.62574(22) 0.60087(13) 0.35569(18)
O8_6 O 0.45938(20) 0.43561(12) 0.32655(16)
O9_6 O 0.42786(20) 0.38200(12) 0.43730(18)
O10_6 O 0.54652(19) 0.50397(11) 0.40276(15)
O11_6 O 0.79271(20) 0.69043(16) 0.49322(16)
O12_6 O 0.76895(19) 0.64290(16) 0.34011(16)
Zn2_6 Zn 0.66670(3) 0.93354(2) 0.5833
Zn1_7 Zn -0.0000 0.39979(2) 0.7500
C7_7 C 0.08234(16) 0.37986(22) 0.7566(2)
C8_7 C 0.24511(16) 0.37411(23) 0.7342(2)
C9_7 C 0.20903(16) 0.38863(22) 0.7766(2)
C10_5 C 0.21014(18) 0.41098(25) 0.8514(2)
H3_5 H 0.2371 0.4229 0.8907
C11_5 C 0.16273(17) 0.41250(24) 0.8573(2)
H4_5 H 0.1523 0.4258 0.9014
C12_7 C 0.13480(16) 0.39109(22) 0.7869(2)
O6_7 O 0.05752(11) 0.39552(16) 0.80548(16)
O7_7 O 0.06579(13) 0.35820(18) 0.68903(18)
O8_7 O 0.23105(12) 0.35710(16) 0.65989(16)
O9_7 O 0.28466(12) 0.37919(16) 0.77064(18)
O10_7 O 0.16269(11) 0.37588(15) 0.73610(15)
O12_7 O 0.02376(16) 0.45938(11) 0.67345(16)
C1_7 C 0.91766(16) 0.29751(15) 0.7434(2)
C2_7 C 0.75489(16) 0.12899(16) 0.7658(2)
C3_7 C 0.79097(16) 0.17959(15) 0.7234(2)
C4_7 C 0.78986(18) 0.20083(18) 0.6486(2)
H1_7 H 0.7629 0.1857 0.6093
C5_7 C 0.83727(17) 0.24976(17) 0.6427(2)
H2_7 H 0.8477 0.2734 0.5986
C6_7 C 0.86520(16) 0.25628(15) 0.7131(2)
O1_7 O 0.94248(11) 0.33799(11) 0.69452(16)
O2_7 O 0.93421(13) 0.29240(13) 0.81097(18)
O3_7 O 0.76895(12) 0.12604(11) 0.84011(16)
O4_7 O 0.71534(12) 0.09452(11) 0.72936(18)
O5_7 O 0.83731(11) 0.21318(10) 0.76390(15)
Zn1_8 Zn 1.0000 0.39979(2) 0.7500
O11_7 O 0.97624(16) 0.43561(12) 0.82655(16)
C1_8 C 0.70249(15) 0.62014(22) 0.7434(2)
C2_8 C 0.87101(16) 0.62589(23) 0.7658(2)
C3_8 C 0.82041(15) 0.61137(22) 0.7234(2)
C4_8 C 0.79917(18) 0.58902(25) 0.6486(2)
H1_8 H 0.8143 0.5771 0.6093
C5_8 C 0.75024(17) 0.58750(24) 0.6427(2)
H2_8 H 0.7266 0.5742 0.5986
C6_8 C 0.74372(15) 0.60891(22) 0.7131(2)
O1_8 O 0.66201(11) 0.60448(16) 0.69452(16)
O2_8 O 0.70760(13) 0.64180(18) 0.81097(18)
O3_8 O 0.87396(11) 0.64290(16) 0.84011(16)
O4_8 O 0.90548(11) 0.62081(16) 0.72936(18)
O5_8 O 0.78682(10) 0.62412(15) 0.76390(15)
Zn1_9 Zn 0.60021(2) 0.60017(2) 0.7500
C7_8 C 0.62014(22) 0.70249(27) 0.7566(2)
C8_8 C 0.62589(23) 0.87101(28) 0.7342(2)
C9_8 C 0.61137(22) 0.82041(27) 0.7766(2)
C10_6 C 0.58902(25) 0.79917(31) 0.8514(2)
H3_6 H 0.5771 0.8143 0.8907
C11_6 C 0.58750(24) 0.75024(29) 0.8573(2)
H4_6 H 0.5742 0.7266 0.9014
C12_8 C 0.60891(22) 0.74372(27) 0.7869(2)
O6_8 O 0.60448(16) 0.66201(19) 0.80548(16)
O7_8 O 0.64180(18) 0.70760(22) 0.68903(18)
O8_8 O 0.64290(16) 0.87396(20) 0.65989(16)
O9_8 O 0.62081(16) 0.90548(20) 0.77064(18)
O10_8 O 0.62412(15) 0.78682(19) 0.73610(15)
O11_8 O 0.56439(12) 0.54062(20) 0.82655(16)
O12_8 O 0.54062(11) 0.56439(19) 0.67345(16)
C1_9 C 0.37986(22) 0.08234(16) 0.7434(2)
C2_9 C 0.37411(23) 0.24511(16) 0.7658(2)
C3_9 C 0.38863(22) 0.20903(16) 0.7234(2)
C4_9 C 0.41098(25) 0.21014(18) 0.6486(2)
H1_9 H 0.4229 0.2371 0.6093
C5_9 C 0.41250(24) 0.16273(17) 0.6427(2)
H2_9 H 0.4258 0.1523 0.5986
C6_9 C 0.39109(22) 0.13480(16) 0.7131(2)
O1_9 O 0.39552(16) 0.05752(11) 0.69452(16)
O2_9 O 0.35820(18) 0.06579(13) 0.81097(18)
O3_9 O 0.35710(16) 0.23105(12) 0.84011(16)
O4_9 O 0.37919(16) 0.28466(12) 0.72936(18)
O5_9 O 0.37588(15) 0.16269(11) 0.76390(15)
Zn1_10 Zn 0.39983(2) 0.0000 0.7500
O11_9 O 0.45938(20) 0.02376(16) 0.82655(16)
Zn1_11 Zn 0.39983(2) 1.0000 0.7500
C7_9 C 0.29751(27) 0.91766(16) 0.7566(2)
C8_9 C 0.12899(28) 0.75489(16) 0.7342(2)
C9_9 C 0.17959(27) 0.79097(16) 0.7766(2)
C10_7 C 0.20083(31) 0.78986(18) 0.8514(2)
H3_7 H 0.1857 0.7629 0.8907
C11_7 C 0.24976(29) 0.83727(17) 0.8573(2)
H4_7 H 0.2734 0.8477 0.9014
C12_9 C 0.25628(27) 0.86520(16) 0.7869(2)
O6_9 O 0.33799(19) 0.94248(11) 0.80548(16)
O7_9 O 0.29240(22) 0.93421(13) 0.68903(18)
O8_9 O 0.12604(20) 0.76895(12) 0.65989(16)
O9_9 O 0.09452(20) 0.71534(12) 0.77064(18)
O10_9 O 0.21318(19) 0.83731(11) 0.73610(15)
O12_9 O 0.43561(19) 0.97624(16) 0.67345(16)
C1_10 C 0.03582(15) 0.74901(16) 0.9101(2)
C2_10 C 0.20434(16) 0.91178(16) 0.9325(2)
C3_10 C 0.15374(15) 0.87570(16) 0.8901(2)
C4_10 C 0.13250(18) 0.87681(18) 0.8153(2)
H1_10 H 0.1476 0.9038 0.7760
C5_10 C 0.08357(17) 0.82940(17) 0.8094(2)
H2_10 H 0.0599 0.8190 0.7653
C6_10 C 0.07705(15) 0.80147(16) 0.8798(2)
O2_10 O 0.04093(13) 0.73246(13) 0.97764(18)
O4_10 O 0.23881(11) 0.95133(12) 0.89603(18)
O5_10 O 0.12015(10) 0.82936(11) 0.93057(15)
O1_10 O 0.99534(11) 0.72419(11) 0.86119(16)
C7_10 C 0.95348(22) 0.58432(16) 0.9232(2)
C8_10 C 0.95923(23) 0.42155(16) 0.9008(2)
C9_10 C 0.94471(22) 0.45763(16) 0.9432(2)
C12_10 C 0.94225(22) 0.53186(16) 0.9535(2)
O6_10 O 0.93782(16) 0.60914(11) 0.97214(16)
O7_10 O 0.97514(18) 0.60087(13) 0.85569(18)
O9_10 O 0.95415(16) 0.38200(12) 0.93730(18)
O10_10 O 0.95746(15) 0.50397(11) 0.90276(15)
C10_8 C 0.54348(18) 0.46583(31) 0.0180(2)
H3_8 H 0.5705 0.4809 0.0573
C11_8 C 0.49607(17) 0.41690(29) 0.0239(2)
H4_8 H 0.4857 0.3932 0.0680
C1_11 C 0.25099(16) 0.28681(22) 0.9101(2)
C2_11 C 0.08822(16) 0.29256(23) 0.9325(2)
C3_11 C 0.12430(16) 0.27804(22) 0.8901(2)
C4_11 C 0.12319(18) 0.25569(25) 0.8153(2)
H1_11 H 0.0962 0.2438 0.7760
C5_11 C 0.17060(17) 0.25417(24) 0.8094(2)
H2_11 H 0.1810 0.2409 0.7653
C6_11 C 0.19853(16) 0.27558(22) 0.8798(2)
O1_11 O 0.27581(11) 0.27115(16) 0.86119(16)
O2_11 O 0.26754(13) 0.30847(18) 0.97764(18)
O4_11 O 0.04867(12) 0.28748(16) 0.89603(18)
O5_11 O 0.17064(11) 0.29079(15) 0.93057(15)
C7_11 C 0.41568(16) 0.36915(27) 0.9232(2)
C8_11 C 0.57845(16) 0.53767(28) 0.9008(2)
C9_11 C 0.54237(16) 0.48707(27) 0.9432(2)
C12_11 C 0.46814(16) 0.41038(27) 0.9535(2)
O6_11 O 0.39086(11) 0.32867(19) 0.97214(16)
O7_11 O 0.39913(13) 0.37426(22) 0.85569(18)
O9_11 O 0.61800(12) 0.57214(20) 0.93730(18)
O10_11 O 0.49603(11) 0.45348(19) 0.90276(15)
O1_12 O 0.72885(16) 0.00466(11) 0.86119(16)
C7_12 C 0.63085(27) 0.04652(22) 0.9232(2)
C8_12 C 0.46233(28) 0.04077(23) 0.9008(2)
C9_12 C 0.51293(27) 0.05529(22) 0.9432(2)
C12_12 C 0.58962(27) 0.05775(22) 0.9535(2)
O6_12 O 0.67133(19) 0.06218(16) 0.97214(16)
O7_12 O 0.62574(22) 0.02486(18) 0.85569(18)
O9_12 O 0.42786(20) 0.04585(16) 0.93730(18)
O10_12 O 0.54652(19) 0.04254(15) 0.90276(15)
C1_12 C 0.71319(22) 0.96418(15) 0.9101(2)
C2_12 C 0.70744(23) 0.79566(16) 0.9325(2)
C3_12 C 0.72196(22) 0.84626(15) 0.8901(2)
C4_12 C 0.74431(25) 0.86750(18) 0.8153(2)
H1_12 H 0.7562 0.8524 0.7760
C5_12 C 0.74583(24) 0.91643(17) 0.8094(2)
H2_12 H 0.7591 0.9401 0.7653
C6_12 C 0.72442(22) 0.92295(15) 0.8798(2)
O2_12 O 0.69153(18) 0.95907(13) 0.97764(18)
O4_12 O 0.71252(16) 0.76119(11) 0.89603(18)
O5_12 O 0.70921(15) 0.87985(10) 0.93057(15)
C1_13 C 0.74901(16) 0.03582(15) 0.5899(2)
C2_13 C 0.91178(16) 0.20434(16) 0.5675(2)
C3_13 C 0.87570(16) 0.15374(15) 0.6099(2)
C4_13 C 0.87681(18) 0.13250(18) 0.6847(2)
H1_13 H 0.9038 0.1476 0.7240
C5_13 C 0.82940(17) 0.08357(17) 0.6906(2)
H2_13 H 0.8190 0.0599 0.7347
C6_13 C 0.80147(16) 0.07705(15) 0.6202(2)
O2_13 O 0.73246(13) 0.04093(13) 0.52236(18)
O4_13 O 0.95133(12) 0.23881(11) 0.60397(18)
O5_13 O 0.82936(11) 0.12015(10) 0.56943(15)
O1_13 O 0.72419(11) 0.99534(11) 0.63881(16)
C7_13 C 0.58432(16) 0.95348(22) 0.5768(2)
C8_13 C 0.42155(16) 0.95923(23) 0.5992(2)
C9_13 C 0.45763(16) 0.94471(22) 0.5568(2)
C10_9 C 0.45652(18) 0.92236(25) 0.4820(2)
H3_9 H 0.4295 0.9105 0.4427
C11_9 C 0.50393(17) 0.92084(24) 0.4761(2)
H4_9 H 0.5143 0.9076 0.4320
C12_13 C 0.53186(16) 0.94225(22) 0.5465(2)
O6_13 O 0.60914(11) 0.93782(16) 0.52786(16)
O7_13 O 0.60087(13) 0.97514(18) 0.64431(18)
O9_13 O 0.38200(12) 0.95415(16) 0.56270(18)
O10_13 O 0.50397(11) 0.95746(15) 0.59724(15)
O1_14 O 0.00466(11) 0.72885(16) 0.63881(16)
C7_14 C 0.04652(22) 0.63085(27) 0.5768(2)
C8_14 C 0.04077(23) 0.46233(28) 0.5992(2)
C9_14 C 0.05529(22) 0.51293(27) 0.5568(2)
C10_10 C 0.07764(25) 0.53417(31) 0.4820(2)
H3_10 H 0.0895 0.5191 0.4427
C11_10 C 0.07916(24) 0.58310(29) 0.4761(2)
H4_10 H 0.0924 0.6068 0.4320
C12_14 C 0.05775(22) 0.58962(27) 0.5465(2)
O6_14 O 0.06218(16) 0.67133(19) 0.52786(16)
O7_14 O 0.02486(18) 0.62574(22) 0.64431(18)
O9_14 O 0.04585(16) 0.42786(20) 0.56270(18)
O10_14 O 0.04254(15) 0.54652(19) 0.59724(15)
C1_14 C 0.96418(15) 0.71319(22) 0.5899(2)
C2_14 C 0.79566(16) 0.70744(23) 0.5675(2)
C3_14 C 0.84626(15) 0.72196(22) 0.6099(2)
C4_14 C 0.86750(18) 0.74431(25) 0.6847(2)
H1_14 H 0.8524 0.7562 0.7240
C5_14 C 0.91643(17) 0.74583(24) 0.6906(2)
H2_14 H 0.9401 0.7591 0.7347
C6_14 C 0.92295(15) 0.72442(22) 0.6202(2)
O2_14 O 0.95907(13) 0.69153(18) 0.52236(18)
O4_14 O 0.76119(11) 0.71252(16) 0.60397(18)
O5_14 O 0.87985(10) 0.70921(15) 0.56943(15)
C1_15 C 0.28681(22) 0.25099(16) 0.5899(2)
C2_15 C 0.29256(23) 0.08822(16) 0.5675(2)
C3_15 C 0.27804(22) 0.12430(16) 0.6099(2)
C4_15 C 0.25569(25) 0.12319(18) 0.6847(2)
H1_15 H 0.2438 0.0962 0.7240
C5_15 C 0.25417(24) 0.17060(17) 0.6906(2)
H2_15 H 0.2409 0.1810 0.7347
C6_15 C 0.27558(22) 0.19853(16) 0.6202(2)
O1_15 O 0.27115(16) 0.27581(11) 0.63881(16)
O2_15 O 0.30847(18) 0.26754(13) 0.52236(18)
O4_15 O 0.28748(16) 0.04867(12) 0.60397(18)
O5_15 O 0.29079(15) 0.17064(11) 0.56943(15)
C7_15 C 0.36915(27) 0.41568(16) 0.5768(2)
C8_15 C 0.53767(28) 0.57845(16) 0.5992(2)
C9_15 C 0.48707(27) 0.54237(16) 0.5568(2)
C10_11 C 0.46583(31) 0.54348(18) 0.4820(2)
H3_11 H 0.4809 0.5705 0.4427
C11_11 C 0.41690(29) 0.49607(17) 0.4761(2)
H4_11 H 0.3932 0.4857 0.4320
C12_15 C 0.41038(27) 0.46814(16) 0.5465(2)
O6_15 O 0.32867(19) 0.39086(11) 0.52786(16)
O7_15 O 0.37426(22) 0.39913(13) 0.64431(18)
O9_15 O 0.57214(20) 0.61800(12) 0.56270(18)
O10_15 O 0.45348(19) 0.49603(11) 0.59724(15)
C1_16 C 0.08234(16) 0.70249(15) 0.2566(2)
C2_16 C 0.24511(16) 0.87101(16) 0.2342(2)
C3_16 C 0.20903(16) 0.82041(15) 0.2766(2)
C4_16 C 0.21014(18) 0.79917(18) 0.3514(2)
H1_16 H 0.2371 0.8143 0.3907
C5_16 C 0.16273(17) 0.75024(17) 0.3573(2)
H2_16 H 0.1523 0.7266 0.4014
C6_16 C 0.13480(16) 0.74372(15) 0.2869(2)
O1_16 O 0.05752(11) 0.66201(11) 0.30548(16)
O2_16 O 0.06579(13) 0.70760(13) 0.18903(18)
O4_16 O 0.28466(12) 0.90548(11) 0.27064(18)
O5_16 O 0.16269(11) 0.78682(10) 0.23610(15)
C7_16 C 0.91766(16) 0.62014(22) 0.2434(2)
C8_16 C 0.75489(16) 0.62589(23) 0.2658(2)
C9_16 C 0.79097(16) 0.61137(22) 0.2234(2)
C10_12 C 0.78986(18) 0.58902(25) 0.1486(2)
H3_12 H 0.7629 0.5771 0.1093
C11_12 C 0.83727(17) 0.58750(24) 0.1427(2)
H4_12 H 0.8477 0.5742 0.0986
C12_16 C 0.86520(16) 0.60891(22) 0.2131(2)
O6_16 O 0.94248(11) 0.60448(16) 0.19452(16)
O7_16 O 0.93421(13) 0.64180(18) 0.31097(18)
O9_16 O 0.71534(12) 0.62081(16) 0.22936(18)
O10_16 O 0.83731(11) 0.62412(15) 0.26390(15)
C1_17 C 0.29751(15) 0.37986(22) 0.2566(2)
C2_17 C 0.12899(16) 0.37411(23) 0.2342(2)
C3_17 C 0.17959(15) 0.38863(22) 0.2766(2)
C4_17 C 0.20083(18) 0.41098(25) 0.3514(2)
H1_17 H 0.1857 0.4229 0.3907
C5_17 C 0.24976(17) 0.41250(24) 0.3573(2)
H2_17 H 0.2734 0.4258 0.4014
C6_17 C 0.25628(15) 0.39109(22) 0.2869(2)
O1_17 O 0.33799(11) 0.39552(16) 0.30548(16)
O2_17 O 0.29240(13) 0.35820(18) 0.18903(18)
O4_17 O 0.09452(11) 0.37919(16) 0.27064(18)
O5_17 O 0.21318(10) 0.37588(15) 0.23610(15)
C7_17 C 0.37986(22) 0.29751(27) 0.2434(2)
C8_17 C 0.37411(23) 0.12899(28) 0.2658(2)
C9_17 C 0.38863(22) 0.17959(27) 0.2234(2)
C10_13 C 0.41098(25) 0.20083(31) 0.1486(2)
H3_13 H 0.4229 0.1857 0.1093
C11_13 C 0.41250(24) 0.24976(29) 0.1427(2)
H4_13 H 0.4258 0.2734 0.0986
C12_17 C 0.39109(22) 0.25628(27) 0.2131(2)
O6_17 O 0.39552(16) 0.33799(19) 0.19452(16)
O7_17 O 0.35820(18) 0.29240(22) 0.31097(18)
O9_17 O 0.37919(16) 0.09452(20) 0.22936(18)
O10_17 O 0.37588(15) 0.21318(19) 0.26390(15)
C7_18 C 0.70249(27) 0.08234(16) 0.2434(2)
C8_18 C 0.87101(28) 0.24511(16) 0.2658(2)
C9_18 C 0.82041(27) 0.20903(16) 0.2234(2)
C10_14 C 0.79917(31) 0.21014(18) 0.1486(2)
H3_14 H 0.8143 0.2371 0.1093
C11_14 C 0.75024(29) 0.16273(17) 0.1427(2)
H4_14 H 0.7266 0.1523 0.0986
C12_18 C 0.74372(27) 0.13480(16) 0.2131(2)
O6_18 O 0.66201(19) 0.05752(11) 0.19452(16)
O7_18 O 0.70760(22) 0.06579(13) 0.31097(18)
O9_18 O 0.90548(20) 0.28466(12) 0.22936(18)
O10_18 O 0.78682(19) 0.16269(11) 0.26390(15)
C1_18 C 0.62014(22) 0.91766(16) 0.2566(2)
C2_18 C 0.62589(23) 0.75489(16) 0.2342(2)
C3_18 C 0.61137(22) 0.79097(16) 0.2766(2)
C4_18 C 0.58902(25) 0.78986(18) 0.3514(2)
H1_18 H 0.5771 0.7629 0.3907
C5_18 C 0.58750(24) 0.83727(17) 0.3573(2)
H2_18 H 0.5742 0.8477 0.4014
C6_18 C 0.60891(22) 0.86520(16) 0.2869(2)
O1_18 O 0.60448(16) 0.94248(11) 0.30548(16)
O2_18 O 0.64180(18) 0.93421(13) 0.18903(18)
O4_18 O 0.62081(16) 0.71534(12) 0.27064(18)
O5_18 O 0.62412(15) 0.83731(11) 0.23610(15)
C10_15 C 0.07764(25) 0.54348(18) 0.9820(2)
H3_15 H 0.0895 0.5705 0.9427
C11_15 C 0.07916(24) 0.49607(17) 0.9761(2)
H4_15 H 0.0924 0.4857 0.9320
C10_16 C 0.46583(31) 0.92236(25) 0.9820(2)
H3_16 H 0.4809 0.9105 0.9427
C11_16 C 0.41690(29) 0.92084(24) 0.9761(2)
H4_16 H 0.3932 0.9076 0.9320
C10_17 C 0.92236(25) 0.45652(18) 0.0180(2)
H3_17 H 0.9105 0.4295 0.0573
C11_17 C 0.92084(24) 0.50393(17) 0.0239(2)
H4_17 H 0.9076 0.5143 0.0680
C10_18 C 0.53417(31) 0.07764(25) 0.0180(2)
H3_18 H 0.5191 0.0895 0.0573
C11_18 C 0.58310(29) 0.07916(24) 0.0239(2)
H4_18 H 0.6068 0.0924 0.0680
Na2 Na 0.85426(13) 0.18760(13) 0.9167
Na2_2 Na 0.81240(13) 0.66666(18) 0.9167
Na2_3 Na 0.33334(18) 0.14574(13) 0.9167
Na2_4 Na 0.18760(13) 0.85426(13) 0.5833
Na2_5 Na 0.14574(13) 0.33334(18) 0.5833
Na2_6 Na 0.66666(18) 0.81240(13) 0.5833
Na2_7 Na 0.52093(13) 0.52093(13) 0.2500
Na2_8 Na 0.47907(13) -0.00001(18) 0.2500
Na2_9 Na 0.47907(13) 0.99999(18) 0.2500
Na2_10 Na 0.00001(18) 0.47907(13) 0.2500
Na2_11 Na 1.00001(18) 0.47907(13) 0.2500
Na2_12 Na 0.14574(13) 0.81240(13) 0.0833
Na2_13 Na 0.18760(13) 0.33334(18) 0.0833
Na2_14 Na 0.66666(18) 0.85426(13) 0.0833
Na2_15 Na 0.81240(13) 0.14574(13) 0.4167
Na2_16 Na 0.85426(13) 0.66666(18) 0.4167
Na2_17 Na 0.33334(18) 0.18760(13) 0.4167
Na2_18 Na 0.47907(13) 0.47907(13) 0.7500
Na2_19 Na 0.52093(13) 0.00001(18) 0.7500
Na2_20 Na 0.52093(13) 1.00001(18) 0.7500
Na2_21 Na -0.00001(18) 0.52093(13) 0.7500
Na2_22 Na 0.99999(18) 0.52093(13) 0.7500
loop_
_geom_bond_atom_site_label_1
_geom_bond_atom_site_label_2
_geom_bond_site_symmetry_1
_geom_bond_site_symmetry_2
Zn1 O1 1_555 1_555
C7 C12 1_555 1_555
C8 C9 1_555 1_555
O6 Zn1 1_555 1_555
O7 C7 1_555 1_555
O8 C8 1_555 1_555
O9 C8 1_555 1_555
O10 C9 1_555 1_555
O11 Zn1 1_555 1_555
O12 Zn1 1_555 1_555
Zn3 O8 1_555 1_555
C7 O6 1_555 1_555
C12 O10 1_555 1_555
C1 C6 1_555 1_555
C2 C3 1_555 1_555
C3 C4 1_555 1_555
C4 H1 1_555 1_555
C5 C4 1_555 1_555
H2 C5 1_555 1_555
C6 C5 1_555 1_555
O2 C1 1_555 1_555
O4 C2 1_555 1_555
O5 C3 1_555 1_555
C6 O5 1_555 1_555
Zn2 O3 1_555 1_555
C1_2 C6_2 1_555 1_555
C2_2 C3_2 1_555 1_555
C3_2 C4_2 1_555 1_555
C4_2 H1_2 1_555 1_555
C5_2 C4_2 1_555 1_555
H2_2 C5_2 1_555 1_555
C6_2 C5_2 1_555 1_555
O1_2 C1_2 1_555 1_555
O2_2 C1_2 1_555 1_555
O4_2 C2_2 1_555 1_555
O5_2 C3_2 1_555 1_555
Zn1_2 O1_2 1_555 1_555
C7_2 C12_2 1_555 1_555
C8_2 C9_2 1_555 1_555
O6_2 Zn1_2 1_555 1_555
O7_2 C7_2 1_555 1_555
O8_2 C8_2 1_555 1_555
O9_2 C8_2 1_555 1_555
O10_2 C9_2 1_555 1_555
O11_2 Zn1_2 1_555 1_555
O12_2 Zn1_2 1_555 1_555
Zn3_3 O8_2 1_555 1_555
C6_2 O5_2 1_555 1_555
C7_2 O6_2 1_555 1_555
C12_2 O10_2 1_555 1_555
C10 H3 1_555 1_555
C11 C10 1_555 1_555
H4 C11 1_555 1_555
Zn2_2 O3_2 1_555 1_555
C1_3 C6_3 1_555 1_555
C2_3 C3_3 1_555 1_555
C3_3 C4_3 1_555 1_555
C4_3 H1_3 1_555 1_555
C5_3 C4_3 1_555 1_555
H2_3 C5_3 1_555 1_555
C6_3 C5_3 1_555 1_555
O2_3 C1_3 1_555 1_555
O4_3 C2_3 1_555 1_555
O5_3 C3_3 1_555 1_555
C6_3 O5_3 1_555 1_555
Zn2_3 O3_3 1_555 1_555
Zn1_3 O1_3 1_555 1_555
C7_3 C12_3 1_555 1_555
C8_3 C9_3 1_555 1_555
O6_3 Zn1_3 1_555 1_555
O7_3 C7_3 1_555 1_555
O8_3 C8_3 1_555 1_555
O9_3 C8_3 1_555 1_555
O10_3 C9_3 1_555 1_555
O11_3 Zn1_3 1_555 1_555
O12_3 Zn1_3 1_555 1_555
Zn3_5 O8_3 1_555 1_555
C7_3 O6_3 1_555 1_555
C12_3 O10_3 1_555 1_555
Zn1_4 O1_4 1_555 1_555
C7_4 C12_4 1_555 1_555
C8_4 C9_4 1_555 1_555
C9_4 C10_2 1_555 1_555
C10_2 H3_2 1_555 1_555
C11_2 C10_2 1_555 1_555
H4_2 C11_2 1_555 1_555
C12_4 C11_2 1_555 1_555
O6_4 Zn1_4 1_555 1_555
O7_4 C7_4 1_555 1_555
O8_4 C8_4 1_555 1_555
O9_4 C8_4 1_555 1_555
O10_4 C9_4 1_555 1_555
O11_4 Zn1_4 1_555 1_555
O12_4 Zn1_4 1_555 1_555
Zn3_4 O8_4 1_555 1_555
C7_4 O6_4 1_555 1_555
C12_4 O10_4 1_555 1_555
C1_4 C6_4 1_555 1_555
C2_4 C3_4 1_555 1_555
C3_4 C4_4 1_555 1_555
C4_4 H1_4 1_555 1_555
C5_4 C4_4 1_555 1_555
H2_4 C5_4 1_555 1_555
C6_4 C5_4 1_555 1_555
O2_4 C1_4 1_555 1_555
O3_4 C2_4 1_555 1_555
O4_4 C2_4 1_555 1_555
O5_4 C3_4 1_555 1_555
Zn2_4 O3_4 1_555 1_555
C6_4 O5_4 1_555 1_555
C1_5 C6_5 1_555 1_555
C2_5 C3_5 1_555 1_555
C3_5 C4_5 1_555 1_555
C4_5 H1_5 1_555 1_555
C5_5 C4_5 1_555 1_555
H2_5 C5_5 1_555 1_555
C6_5 C5_5 1_555 1_555
O2_5 C1_5 1_555 1_555
O3_5 C2_5 1_555 1_555
O4_5 C2_5 1_555 1_555
O5_5 C3_5 1_555 1_555
Zn2_5 O3_5 1_555 1_555
C6_5 O5_5 1_555 1_555
Zn1_5 O1_5 1_555 1_555
C7_5 C12_5 1_555 1_555
C8_5 C9_5 1_555 1_555
C9_5 C10_3 1_555 1_555
C10_3 H3_3 1_555 1_555
C11_3 C10_3 1_555 1_555
H4_3 C11_3 1_555 1_555
C12_5 C11_3 1_555 1_555
O6_5 Zn1_5 1_555 1_555
O7_5 C7_5 1_555 1_555
O8_5 C8_5 1_555 1_555
O9_5 C8_5 1_555 1_555
O10_5 C9_5 1_555 1_555
O11_5 Zn1_5 1_555 1_555
O12_5 Zn1_5 1_555 1_555
Zn3_2 O8_5 1_555 1_555
C7_5 O6_5 1_555 1_555
C12_5 O10_5 1_555 1_555
C1_6 C6_6 1_555 1_555
C2_6 C3_6 1_555 1_555
C3_6 C4_6 1_555 1_555
C4_6 H1_6 1_555 1_555
C5_6 C4_6 1_555 1_555
H2_6 C5_6 1_555 1_555
C6_6 C5_6 1_555 1_555
O1_6 C1_6 1_555 1_555
O2_6 C1_6 1_555 1_555
O3_6 C2_6 1_555 1_555
O4_6 C2_6 1_555 1_555
O5_6 C3_6 1_555 1_555
Zn1_6 O1_6 1_555 1_555
C7_6 C12_6 1_555 1_555
C8_6 C9_6 1_555 1_555
C9_6 C10_4 1_555 1_555
C10_4 H3_4 1_555 1_555
C11_4 C10_4 1_555 1_555
H4_4 C11_4 1_555 1_555
C12_6 C11_4 1_555 1_555
O6_6 Zn1_6 1_555 1_555
O7_6 C7_6 1_555 1_555
O8_6 C8_6 1_555 1_555
O9_6 C8_6 1_555 1_555
O10_6 C9_6 1_555 1_555
O11_6 Zn1_6 1_555 1_555
O12_6 Zn1_6 1_555 1_555
Zn2_6 O3_6 1_555 1_555
Zn3_3 O8_6 1_555 1_555
C6_6 O5_6 1_555 1_555
C7_6 O6_6 1_555 1_555
C12_6 O10_6 1_555 1_555
C7_7 C12_7 1_555 1_555
C8_7 C9_7 1_555 1_555
C9_7 C10_5 1_555 1_555
C10_5 H3_5 1_555 1_555
C11_5 C10_5 1_555 1_555
H4_5 C11_5 1_555 1_555
C12_7 C11_5 1_555 1_555
O6_7 Zn1_7 1_555 1_555
O7_7 C7_7 1_555 1_555
O8_7 C8_7 1_555 1_555
O9_7 C8_7 1_555 1_555
O10_7 C9_7 1_555 1_555
O12_7 Zn1_7 1_555 1_555
Zn2_5 O8_7 1_555 1_555
C7_7 O6_7 1_555 1_555
C12_7 O10_7 1_555 1_555
C1_7 C6_7 1_555 1_555
C2_7 C3_7 1_555 1_555
C3_7 C4_7 1_555 1_555
C4_7 H1_7 1_555 1_555
C5_7 C4_7 1_555 1_555
H2_7 C5_7 1_555 1_555
C6_7 C5_7 1_555 1_555
O1_7 C1_7 1_555 1_555
O2_7 C1_7 1_555 1_555
O3_7 C2_7 1_555 1_555
O4_7 C2_7 1_555 1_555
O5_7 C3_7 1_555 1_555
Zn1_8 O1_7 1_555 1_555
O11_7 Zn1_8 1_555 1_555
Zn2 O3_7 1_555 1_555
C6_7 O5_7 1_555 1_555
C1_8 C6_8 1_555 1_555
C2_8 C3_8 1_555 1_555
C3_8 C4_8 1_555 1_555
C4_8 H1_8 1_555 1_555
C5_8 C4_8 1_555 1_555
H2_8 C5_8 1_555 1_555
C6_8 C5_8 1_555 1_555
O1_8 C1_8 1_555 1_555
O2_8 C1_8 1_555 1_555
O3_8 C2_8 1_555 1_555
O4_8 C2_8 1_555 1_555
O5_8 C3_8 1_555 1_555
Zn1_9 O1_8 1_555 1_555
C7_8 C12_8 1_555 1_555
C8_8 C9_8 1_555 1_555
C9_8 C10_6 1_555 1_555
C10_6 H3_6 1_555 1_555
C11_6 C10_6 1_555 1_555
H4_6 C11_6 1_555 1_555
C12_8 C11_6 1_555 1_555
O6_8 Zn1_9 1_555 1_555
O7_8 C7_8 1_555 1_555
O8_8 C8_8 1_555 1_555
O9_8 C8_8 1_555 1_555
O10_8 C9_8 1_555 1_555
O11_8 Zn1_9 1_555 1_555
O12_8 Zn1_9 1_555 1_555
Zn2_2 O3_8 1_555 1_555
Zn2_6 O8_8 1_555 1_555
C6_8 O5_8 1_555 1_555
C7_8 O6_8 1_555 1_555
C12_8 O10_8 1_555 1_555
C1_9 C6_9 1_555 1_555
C2_9 C3_9 1_555 1_555
C3_9 C4_9 1_555 1_555
C4_9 H1_9 1_555 1_555
C5_9 C4_9 1_555 1_555
H2_9 C5_9 1_555 1_555
C6_9 C5_9 1_555 1_555
O1_9 C1_9 1_555 1_555
O2_9 C1_9 1_555 1_555
O3_9 C2_9 1_555 1_555
O4_9 C2_9 1_555 1_555
O5_9 C3_9 1_555 1_555
Zn1_10 O1_9 1_555 1_555
O11_9 Zn1_10 1_555 1_555
Zn2_3 O3_9 1_555 1_555
C6_9 O5_9 1_555 1_555
C7_9 C12_9 1_555 1_555
C8_9 C9_9 1_555 1_555
C9_9 C10_7 1_555 1_555
C10_7 H3_7 1_555 1_555
C11_7 C10_7 1_555 1_555
H4_7 C11_7 1_555 1_555
C12_9 C11_7 1_555 1_555
O6_9 Zn1_11 1_555 1_555
O7_9 C7_9 1_555 1_555
O8_9 C8_9 1_555 1_555
O9_9 C8_9 1_555 1_555
O10_9 C9_9 1_555 1_555
O12_9 Zn1_11 1_555 1_555
Zn2_4 O8_9 1_555 1_555
C7_9 O6_9 1_555 1_555
C12_9 O10_9 1_555 1_555
C1_10 C6_10 1_555 1_555
C2_10 C3_10 1_555 1_555
C3_10 C4_10 1_555 1_555
C4_10 H1_10 1_555 1_555
C5_10 C4_10 1_555 1_555
H2_10 C5_10 1_555 1_555
C6_10 C5_10 1_555 1_555
O2_10 C1_10 1_555 1_555
O4_10 C2_10 1_555 1_555
O5_10 C3_10 1_555 1_555
C6_10 O5_10 1_555 1_555
Zn2_2 O1_10 1_555 1_555
C7_10 C12_10 1_555 1_555
C8_10 C9_10 1_555 1_555
O6_10 Zn2_2 1_555 1_555
O7_10 C7_10 1_555 1_555
O11_7 C8_10 1_555 1_555
O9_10 C8_10 1_555 1_555
O10_10 C9_10 1_555 1_555
C7_10 O6_10 1_555 1_555
C12_10 O10_10 1_555 1_555
C10_8 H3_8 1_555 1_555
C11_8 C10_8 1_555 1_555
H4_8 C11_8 1_555 1_555
C1_11 C6_11 1_555 1_555
C2_11 C3_11 1_555 1_555
C3_11 C4_11 1_555 1_555
C4_11 H1_11 1_555 1_555
C5_11 C4_11 1_555 1_555
H2_11 C5_11 1_555 1_555
C6_11 C5_11 1_555 1_555
O1_11 C1_11 1_555 1_555
O2_11 C1_11 1_555 1_555
O4_11 C2_11 1_555 1_555
O5_11 C3_11 1_555 1_555
Zn2_3 O1_11 1_555 1_555
C7_11 C12_11 1_555 1_555
C8_11 C9_11 1_555 1_555
O6_11 Zn2_3 1_555 1_555
O7_11 C7_11 1_555 1_555
O11_8 C8_11 1_555 1_555
O9_11 C8_11 1_555 1_555
O10_11 C9_11 1_555 1_555
C6_11 O5_11 1_555 1_555
C7_11 O6_11 1_555 1_555
C12_11 O10_11 1_555 1_555
Zn2 O1_12 1_555 1_555
C7_12 C12_12 1_555 1_555
C8_12 C9_12 1_555 1_555
O6_12 Zn2 1_555 1_555
O7_12 C7_12 1_555 1_555
O11_9 C8_12 1_555 1_555
O9_12 C8_12 1_555 1_555
O10_12 C9_12 1_555 1_555
C7_12 O6_12 1_555 1_555
C12_12 O10_12 1_555 1_555
C1_12 C6_12 1_555 1_555
C2_12 C3_12 1_555 1_555
C3_12 C4_12 1_555 1_555
C4_12 H1_12 1_555 1_555
C5_12 C4_12 1_555 1_555
H2_12 C5_12 1_555 1_555
C6_12 C5_12 1_555 1_555
O2_12 C1_12 1_555 1_555
O4_12 C2_12 1_555 1_555
O5_12 C3_12 1_555 1_555
C6_12 O5_12 1_555 1_555
C1_13 C6_13 1_555 1_555
C2_13 C3_13 1_555 1_555
C3_13 C4_13 1_555 1_555
C4_13 H1_13 1_555 1_555
C5_13 C4_13 1_555 1_555
H2_13 C5_13 1_555 1_555
C6_13 C5_13 1_555 1_555
O2_13 C1_13 1_555 1_555
O11_5 C2_13 1_555 1_555
O4_13 C2_13 1_555 1_555
O5_13 C3_13 1_555 1_555
C6_13 O5_13 1_555 1_555
Zn2_6 O1_13 1_555 1_555
C7_13 C12_13 1_555 1_555
C8_13 C9_13 1_555 1_555
C9_13 C10_9 1_555 1_555
C10_9 H3_9 1_555 1_555
C11_9 C10_9 1_555 1_555
H4_9 C11_9 1_555 1_555
C12_13 C11_9 1_555 1_555
O6_13 Zn2_6 1_555 1_555
O7_13 C7_13 1_555 1_555
O12_9 C8_13 1_555 1_555
O9_13 C8_13 1_555 1_555
O10_13 C9_13 1_555 1_555
C7_13 O6_13 1_555 1_555
C12_13 O10_13 1_555 1_555
Zn2_4 O1_14 1_555 1_555
C7_14 C12_14 1_555 1_555
C8_14 C9_14 1_555 1_555
C9_14 C10_10 1_555 1_555
C10_10 H3_10 1_555 1_555
C11_10 C10_10 1_555 1_555
H4_10 C11_10 1_555 1_555
C12_14 C11_10 1_555 1_555
O6_14 Zn2_4 1_555 1_555
O7_14 C7_14 1_555 1_555
O12_7 C8_14 1_555 1_555
O9_14 C8_14 1_555 1_555
O10_14 C9_14 1_555 1_555
C7_14 O6_14 1_555 1_555
C12_14 O10_14 1_555 1_555
C1_14 C6_14 1_555 1_555
C2_14 C3_14 1_555 1_555
C3_14 C4_14 1_555 1_555
C4_14 H1_14 1_555 1_555
C5_14 C4_14 1_555 1_555
H2_14 C5_14 1_555 1_555
C6_14 C5_14 1_555 1_555
O2_14 C1_14 1_555 1_555
O11_6 C2_14 1_555 1_555
O4_14 C2_14 1_555 1_555
O5_14 C3_14 1_555 1_555
C6_14 O5_14 1_555 1_555
C1_15 C6_15 1_555 1_555
C2_15 C3_15 1_555 1_555
C3_15 C4_15 1_555 1_555
C4_15 H1_15 1_555 1_555
C5_15 C4_15 1_555 1_555
H2_15 C5_15 1_555 1_555
C6_15 C5_15 1_555 1_555
O1_15 C1_15 1_555 1_555
O2_15 C1_15 1_555 1_555
O11_4 C2_15 1_555 1_555
O4_15 C2_15 1_555 1_555
O5_15 C3_15 1_555 1_555
Zn2_5 O1_15 1_555 1_555
C7_15 C12_15 1_555 1_555
C8_15 C9_15 1_555 1_555
C9_15 C10_11 1_555 1_555
C10_11 H3_11 1_555 1_555
C11_11 C10_11 1_555 1_555
H4_11 C11_11 1_555 1_555
C12_15 C11_11 1_555 1_555
O6_15 Zn2_5 1_555 1_555
O7_15 C7_15 1_555 1_555
O12_8 C8_15 1_555 1_555
O9_15 C8_15 1_555 1_555
O10_15 C9_15 1_555 1_555
C6_15 O5_15 1_555 1_555
C7_15 O6_15 1_555 1_555
C12_15 O10_15 1_555 1_555
C1_16 C6_16 1_555 1_555
C2_16 C3_16 1_555 1_555
C3_16 C4_16 1_555 1_555
C4_16 H1_16 1_555 1_555
C5_16 C4_16 1_555 1_555
H2_16 C5_16 1_555 1_555
C6_16 C5_16 1_555 1_555
O1_16 C1_16 1_555 1_555
O2_16 C1_16 1_555 1_555
O12_3 C2_16 1_555 1_555
O4_16 C2_16 1_555 1_555
O5_16 C3_16 1_555 1_555
Zn3 O1_16 1_555 1_555
C6_16 O5_16 1_555 1_555
C7_16 C12_16 1_555 1_555
C8_16 C9_16 1_555 1_555
C9_16 C10_12 1_555 1_555
C10_12 H3_12 1_555 1_555
C11_12 C10_12 1_555 1_555
H4_12 C11_12 1_555 1_555
C12_16 C11_12 1_555 1_555
O6_16 Zn3_2 1_555 1_555
O7_16 C7_16 1_555 1_555
O12_6 C8_16 1_555 1_555
O9_16 C8_16 1_555 1_555
O10_16 C9_16 1_555 1_555
C7_16 O6_16 1_555 1_555
C12_16 O10_16 1_555 1_555
C1_17 C6_17 1_555 1_555
C2_17 C3_17 1_555 1_555
C3_17 C4_17 1_555 1_555
C4_17 H1_17 1_555 1_555
C5_17 C4_17 1_555 1_555
H2_17 C5_17 1_555 1_555
C6_17 C5_17 1_555 1_555
O1_17 C1_17 1_555 1_555
O2_17 C1_17 1_555 1_555
O12 C2_17 1_555 1_555
O4_17 C2_17 1_555 1_555
O5_17 C3_17 1_555 1_555
Zn3_3 O1_17 1_555 1_555
C7_17 C12_17 1_555 1_555
C8_17 C9_17 1_555 1_555
C9_17 C10_13 1_555 1_555
C10_13 H3_13 1_555 1_555
C11_13 C10_13 1_555 1_555
H4_13 C11_13 1_555 1_555
C12_17 C11_13 1_555 1_555
O6_17 Zn3_3 1_555 1_555
O7_17 C7_17 1_555 1_555
O12_4 C8_17 1_555 1_555
O9_17 C8_17 1_555 1_555
O10_17 C9_17 1_555 1_555
C6_17 O5_17 1_555 1_555
C7_17 O6_17 1_555 1_555
C12_17 O10_17 1_555 1_555
C7_18 C12_18 1_555 1_555
C8_18 C9_18 1_555 1_555
C9_18 C10_14 1_555 1_555
C10_14 H3_14 1_555 1_555
C11_14 C10_14 1_555 1_555
H4_14 C11_14 1_555 1_555
C12_18 C11_14 1_555 1_555
O6_18 Zn3_4 1_555 1_555
O7_18 C7_18 1_555 1_555
O12_5 C8_18 1_555 1_555
O9_18 C8_18 1_555 1_555
O10_18 C9_18 1_555 1_555
C7_18 O6_18 1_555 1_555
C12_18 O10_18 1_555 1_555
C1_18 C6_18 1_555 1_555
C2_18 C3_18 1_555 1_555
C3_18 C4_18 1_555 1_555
C4_18 H1_18 1_555 1_555
C5_18 C4_18 1_555 1_555
H2_18 C5_18 1_555 1_555
C6_18 C5_18 1_555 1_555
O1_18 C1_18 1_555 1_555
O2_18 C1_18 1_555 1_555
O12_2 C2_18 1_555 1_555
O4_18 C2_18 1_555 1_555
O5_18 C3_18 1_555 1_555
Zn3_5 O1_18 1_555 1_555
C6_18 O5_18 1_555 1_555
C10_15 H3_15 1_555 1_555
C11_15 C10_15 1_555 1_555
H4_15 C11_15 1_555 1_555
C10_16 H3_16 1_555 1_555
C11_16 C10_16 1_555 1_555
H4_16 C11_16 1_555 1_555
C10_17 H3_17 1_555 1_555
C11_17 C10_17 1_555 1_555
H4_17 C11_17 1_555 1_555
C10_18 H3_18 1_555 1_555
C11_18 C10_18 1_555 1_555
H4_18 C11_18 1_555 1_555

#END
