
###############################################################################
#
# This file contains modified crystal structure data generated from the
# MOF subset of the Cambridge Structural Database (CSD) v543 
# hosted by the Cambridge Crystallographic Data Centre (CCDC).
#
# This work is licensed under the Creative Commons
# Attribution-NonCommercial-ShareAlike 4.0 International License.
# To view a copy of this license, visit
# http://creativecommons.org/licenses/by-nc-sa/4.0/
# or send a letter to
# Creative Commons, PO Box 1866, Mountain View, CA 94042, USA.
#
# CIF created using the CSD Python API on 29 September 2022
# The structure has been converted into the P1 space group
# The structure has a 3D framework
# The original CSD entry SUFJEK is in the tetragonal crystal system
# The framework has been calculated to contain at least 10.0% void space
# The void calculation uses a probe of radius 1.32A, grid spacing 0.4
#
###############################################################################

data_SUFJEK
_chemical_formula_moiety         '(C96 H64 N44 O32 Zn16)n'
_symmetry_cell_setting           triclinic
_symmetry_space_group_name_H-M   'P 1'
_symmetry_Int_Tables_number      1
_space_group_name_Hall           'P 1'
loop_
_symmetry_equiv_pos_site_id
_symmetry_equiv_pos_as_xyz
1 x,y,z
_cell_length_a                   13.556(5)
_cell_length_b                   13.556(5)
_cell_length_c                   27.228(5)
_cell_angle_alpha                90
_cell_angle_beta                 90
_cell_angle_gamma                90
_cell_volume                     5003.56
loop_
_atom_site_label
_atom_site_type_symbol
_atom_site_fract_x
_atom_site_fract_y
_atom_site_fract_z
N2 N 0.0275(2) 0.1075(2) 0.03368(12)
C6 C 0.0406(3) 0.1938(3) 0.05487(13)
H4 H 0.0827 0.2042 0.0813
H1 H 0.0317 0.1367 0.8093
C3 C 0.0195(4) 0.1202(4) 0.73628(18)
H2 H 0.0685 0.1652 0.7278
O4 O 0.0552(3) 0.1410(3) 0.63329(11)
N10 N 0.1075(2) 0.0275(2) 0.53368(12)
O2 O 0.1410(3) 0.0552(3) 0.13329(11)
H5 H 0.1367 0.0317 0.3093
C9 C 0.1202(4) 0.0195(4) 0.23628(18)
H6 H 0.1652 0.0685 0.2278
C12 C 0.1938(3) 0.0406(3) 0.55487(13)
H8 H 0.2042 0.0827 0.5813
Zn3 Zn 0.09157(3) 0.97816(3) 0.052738(15)
Zn5 Zn 0.02184(3) 0.90843(3) 0.447262(15)
N1 N 0.9860(2) 0.2651(2) 0.03385(12)
Zn6 Zn 0.97816(3) 0.40843(3) 0.052738(15)
Zn1 Zn 0.90843(3) 0.02184(3) 0.947262(15)
N3 N 0.9611(2) 0.1229(2) 0.99625(11)
O1 O 0.9517(3) 0.0728(3) 0.88355(12)
C1 C 0.9292(4) 0.0333(3) 0.80000(17)
C2 C 0.9979(4) 0.1014(4) 0.78534(19)
C4 C 0.9110(3) 0.0140(4) 0.85269(16)
C5 C 0.9381(3) 0.2171(2) 0.99806(14)
H3 H 0.8935 0.2471 0.9768
O3 O 0.9272(3) 0.0483(3) 0.61645(12)
C7 C 0.9667(3) 0.0708(4) 0.70000(17)
C8 C 0.8986(4) 0.0021(4) 0.71466(19)
C10 C 0.9860(4) 0.0890(3) 0.64731(16)
Zn2 Zn 0.97816(3) 0.09157(3) 0.552738(15)
N4 N 0.7349(2) 0.0140(2) 0.46615(12)
N6 N 0.8771(2) 0.0389(2) 0.50375(11)
C11 C 0.7829(2) 0.0619(3) 0.50194(14)
H7 H 0.7529 0.1065 0.5232
Zn4 Zn 0.59157(3) 0.02184(3) 0.447262(15)
N7 N 0.9860(2) 0.2349(2) 0.53385(12)
N8 N 0.7651(2) 0.0140(2) 0.96615(12)
N1_2 N 0.5140(2) 0.2349(2) 0.03385(12)
N2_2 N 0.4725(2) 0.3925(2) 0.03368(12)
C6_2 C 0.4594(3) 0.3062(3) 0.05487(13)
H4_2 H 0.4173 0.2958 0.0813
Zn3_2 Zn 0.40843(3) 0.52184(3) 0.052738(15)
Zn6_2 Zn 0.52184(3) 0.09157(3) 0.052738(15)
Zn1_2 Zn 0.59157(3) 0.47816(3) 0.947262(15)
N3_2 N 0.5389(2) 0.3771(2) 0.99625(11)
O1_2 O 0.5483(3) 0.4272(3) 0.88355(12)
O2_2 O 0.6410(3) 0.5552(3) 0.86671(11)
C1_2 C 0.5708(4) 0.4667(3) 0.80000(17)
C2_2 C 0.5021(4) 0.3986(4) 0.78534(19)
H1_2 H 0.4683 0.3633 0.8093
C3_2 C 0.4805(4) 0.3798(4) 0.73628(18)
H2_2 H 0.4315 0.3348 0.7278
C4_2 C 0.5890(3) 0.4860(4) 0.85269(16)
C5_2 C 0.5619(3) 0.2829(2) 0.99806(14)
H3_2 H 0.6065 0.2529 0.9768
O3_2 O 0.5728(3) 0.4517(3) 0.61645(12)
O4_2 O 0.4448(3) 0.3590(3) 0.63329(11)
C7_2 C 0.5333(3) 0.4292(4) 0.70000(17)
C8_2 C 0.6014(4) 0.4979(4) 0.71466(19)
H5_2 H 0.6367 0.5317 0.6907
C9_2 C 0.6202(4) 0.5195(4) 0.76372(18)
H6_2 H 0.6652 0.5685 0.7722
C10_2 C 0.5140(4) 0.4110(3) 0.64731(16)
Zn2_2 Zn 0.52184(3) 0.40843(3) 0.552738(15)
N4_2 N 0.7651(2) 0.4860(2) 0.46615(12)
N5 N 0.6075(2) 0.5275(2) 0.46632(12)
N6_2 N 0.6229(2) 0.4611(2) 0.50375(11)
C11_2 C 0.7171(2) 0.4381(3) 0.50194(14)
H7_2 H 0.7471 0.3935 0.5232
C12_2 C 0.6938(3) 0.5406(3) 0.44513(13)
H8_2 H 0.7042 0.5827 0.4187
Zn4_2 Zn 0.90843(3) 0.47816(3) 0.447262(15)
Zn5_2 Zn 0.47816(3) 0.59157(3) 0.447262(15)
N7_2 N 0.5140(2) 0.2651(2) 0.53385(12)
N8_2 N 0.7349(2) 0.4860(2) 0.96615(12)
N9 N 0.5275(2) 0.6075(2) 0.96632(12)
N10_2 N 0.3925(2) 0.4725(2) 0.53368(12)
N5_2 N 0.3925(2) 0.0275(2) 0.03368(12)
C12_3 C 0.3062(3) 0.0406(3) 0.05487(13)
H8_3 H 0.2958 0.0827 0.0813
O2_3 O 0.3590(3) 0.0552(3) 0.63329(11)
H5_3 H 0.3633 0.0317 0.8093
C9_3 C 0.3798(4) 0.0195(4) 0.73628(18)
H6_3 H 0.3348 0.0685 0.7278
N9_2 N 0.4725(2) 0.1075(2) 0.53368(12)
N4_3 N 0.2349(2) 0.9860(2) 0.03385(12)
Zn1_3 Zn 0.40843(3) 0.97816(3) 0.552738(15)
N1_3 N 0.4860(2) 0.7349(2) 0.46615(12)
N2_3 N 0.5275(2) 0.8925(2) 0.46632(12)
N3_3 N 0.4611(2) 0.8771(2) 0.50375(11)
O1_3 O 0.4517(3) 0.9272(3) 0.61645(12)
C1_3 C 0.4292(4) 0.9667(3) 0.70000(17)
C2_3 C 0.4979(4) 0.8986(4) 0.71466(19)
H1_3 H 0.5317 0.8633 0.6907
C3_3 C 0.5195(4) 0.8798(4) 0.76372(18)
H2_3 H 0.5685 0.8348 0.7722
C4_3 C 0.4110(3) 0.9860(4) 0.64731(16)
C5_3 C 0.4381(3) 0.7829(2) 0.50194(14)
H3_3 H 0.3935 0.7529 0.5232
C6_3 C 0.5406(3) 0.8062(3) 0.44513(13)
H4_3 H 0.5827 0.7958 0.4187
O3_3 O 0.4272(3) 0.9517(3) 0.88355(12)
O4_3 O 0.5552(3) 0.8590(3) 0.86671(11)
C7_3 C 0.4667(3) 0.9292(4) 0.80000(17)
C8_3 C 0.3986(4) 0.9979(4) 0.78534(19)
C10_3 C 0.4860(4) 0.9110(3) 0.85269(16)
Zn2_3 Zn 0.47816(3) 0.90843(3) 0.947262(15)
N6_3 N 0.3771(2) 0.9611(2) 0.99625(11)
C11_3 C 0.2829(2) 0.9381(3) 0.99806(14)
H7_3 H 0.2529 0.8935 0.9768
N7_3 N 0.4860(2) 0.7651(2) 0.96615(12)
N8_3 N 0.2651(2) 0.9860(2) 0.53385(12)
N10_3 N 0.6075(2) 0.9725(2) 0.96632(12)
N4_4 N 0.2651(2) 0.5140(2) 0.03385(12)
N5_3 N 0.1075(2) 0.4725(2) 0.03368(12)
C12_4 C 0.1938(3) 0.4594(3) 0.05487(13)
H8_4 H 0.2042 0.4173 0.0813
Zn1_4 Zn 0.09157(3) 0.52184(3) 0.552738(15)
N1_4 N 0.0140(2) 0.7651(2) 0.46615(12)
N3_4 N 0.0389(2) 0.6229(2) 0.50375(11)
O1_4 O 0.0483(3) 0.5728(3) 0.61645(12)
O2_4 O 0.1410(3) 0.4448(3) 0.63329(11)
C1_4 C 0.0708(4) 0.5333(3) 0.70000(17)
C2_4 C 0.0021(4) 0.6014(4) 0.71466(19)
C4_4 C 0.0890(3) 0.5140(4) 0.64731(16)
C5_4 C 0.0619(3) 0.7171(2) 0.50194(14)
H3_4 H 0.1065 0.7471 0.5232
O3_4 O 0.0728(3) 0.5483(3) 0.88355(12)
C7_4 C 0.0333(3) 0.5708(4) 0.80000(17)
C8_4 C 0.1014(4) 0.5021(4) 0.78534(19)
H5_4 H 0.1367 0.4683 0.8093
C9_4 C 0.1202(4) 0.4805(4) 0.73628(18)
H6_4 H 0.1652 0.4315 0.7278
C10_4 C 0.0140(4) 0.5890(3) 0.85269(16)
Zn2_4 Zn 0.02184(3) 0.59157(3) 0.947262(15)
N6_4 N 0.1229(2) 0.5389(2) 0.99625(11)
C11_4 C 0.2171(2) 0.5619(3) 0.99806(14)
H7_4 H 0.2471 0.6065 0.9768
N7_4 N 0.0140(2) 0.7349(2) 0.96615(12)
N8_4 N 0.2349(2) 0.5140(2) 0.53385(12)
N9_3 N 0.0275(2) 0.3925(2) 0.53368(12)
N2_4 N 0.9725(2) 0.6075(2) 0.46632(12)
H1_4 H 0.9683 0.6367 0.6907
C3_4 C 0.9805(4) 0.6202(4) 0.76372(18)
H2_4 H 0.9315 0.6652 0.7722
C6_4 C 0.9594(3) 0.6938(3) 0.44513(13)
H4_4 H 0.9173 0.7042 0.4187
O4_4 O 0.9448(3) 0.6410(3) 0.86671(11)
N10_4 N 0.8925(2) 0.5275(2) 0.96632(12)
N3_5 N 0.0389(2) 0.8771(2) 0.00375(11)
O1_5 O 0.0483(3) 0.9272(3) 0.11645(12)
C1_5 C 0.0708(4) 0.9667(3) 0.20000(17)
C2_5 C 0.0021(4) 0.8986(4) 0.21466(19)
C4_5 C 0.0890(3) 0.9860(4) 0.14731(16)
C5_5 C 0.0619(3) 0.7829(2) 0.00194(14)
H3_5 H 0.1065 0.7529 0.0232
O3_5 O 0.0728(3) 0.9517(3) 0.38355(12)
C7_5 C 0.0333(3) 0.9292(4) 0.30000(17)
C8_5 C 0.1014(4) 0.9979(4) 0.28534(19)
C10_5 C 0.0140(4) 0.9110(3) 0.35269(16)
N6_5 N 0.1229(2) 0.9611(2) 0.49625(11)
C11_5 C 0.2171(2) 0.9381(3) 0.49806(14)
H7_5 H 0.2471 0.8935 0.4768
N3_6 N 0.4611(2) 0.6229(2) 0.00375(11)
O1_6 O 0.4517(3) 0.5728(3) 0.11645(12)
O2_5 O 0.3590(3) 0.4448(3) 0.13329(11)
C1_6 C 0.4292(4) 0.5333(3) 0.20000(17)
C2_6 C 0.4979(4) 0.6014(4) 0.21466(19)
H1_5 H 0.5317 0.6367 0.1907
C3_5 C 0.5195(4) 0.6202(4) 0.26372(18)
H2_5 H 0.5685 0.6652 0.2722
C4_6 C 0.4110(3) 0.5140(4) 0.14731(16)
C5_6 C 0.4381(3) 0.7171(2) 0.00194(14)
H3_6 H 0.3935 0.7471 0.0232
O3_6 O 0.4272(3) 0.5483(3) 0.38355(12)
O4_5 O 0.5552(3) 0.6410(3) 0.36671(11)
C7_6 C 0.4667(3) 0.5708(4) 0.30000(17)
C8_6 C 0.3986(4) 0.5021(4) 0.28534(19)
H5_5 H 0.3633 0.4683 0.3093
C9_5 C 0.3798(4) 0.4805(4) 0.23628(18)
H6_5 H 0.3348 0.4315 0.2278
C10_6 C 0.4860(4) 0.5890(3) 0.35269(16)
N6_6 N 0.3771(2) 0.5389(2) 0.49625(11)
C11_6 C 0.2829(2) 0.5619(3) 0.49806(14)
H7_6 H 0.2529 0.6065 0.4768
C12_5 C 0.3062(3) 0.4594(3) 0.55487(13)
H8_5 H 0.2958 0.4173 0.5813
C6_5 C 0.5406(3) 0.6938(3) 0.94513(13)
H4_5 H 0.5827 0.7042 0.9187
N3_7 N 0.5389(2) 0.1229(2) 0.49625(11)
O1_7 O 0.5483(3) 0.0728(3) 0.38355(12)
C1_7 C 0.5708(4) 0.0333(3) 0.30000(17)
C2_7 C 0.5021(4) 0.1014(4) 0.28534(19)
H1_6 H 0.4683 0.1367 0.3093
C3_6 C 0.4805(4) 0.1202(4) 0.23628(18)
H2_6 H 0.4315 0.1652 0.2278
C4_7 C 0.5890(3) 0.0140(4) 0.35269(16)
C5_7 C 0.5619(3) 0.2171(2) 0.49806(14)
H3_7 H 0.6065 0.2471 0.4768
C6_6 C 0.4594(3) 0.1938(3) 0.55487(13)
H4_6 H 0.4173 0.2042 0.5813
O3_7 O 0.5728(3) 0.0483(3) 0.11645(12)
O4_6 O 0.4448(3) 0.1410(3) 0.13329(11)
C7_7 C 0.5333(3) 0.0708(4) 0.20000(17)
C8_7 C 0.6014(4) 0.0021(4) 0.21466(19)
C10_7 C 0.5140(4) 0.0890(3) 0.14731(16)
N6_7 N 0.6229(2) 0.0389(2) 0.00375(11)
C11_7 C 0.7171(2) 0.0619(3) 0.00194(14)
H7_7 H 0.7471 0.1065 0.0232
O2_6 O 0.6410(3) 0.9448(3) 0.36671(11)
H5_6 H 0.6367 0.9683 0.1907
C9_6 C 0.6202(4) 0.9805(4) 0.26372(18)
H6_6 H 0.6652 0.9315 0.2722
C12_6 C 0.6938(3) 0.9594(3) 0.94513(13)
H8_6 H 0.7042 0.9173 0.9187
H1_7 H 0.0317 0.3633 0.3093
C3_7 C 0.0195(4) 0.3798(4) 0.23628(18)
H2_7 H 0.0685 0.3348 0.2278
C6_7 C 0.0406(3) 0.3062(3) 0.55487(13)
H4_7 H 0.0827 0.2958 0.5813
O4_7 O 0.0552(3) 0.3590(3) 0.13329(11)
N3_8 N 0.9611(2) 0.3771(2) 0.49625(11)
O1_8 O 0.9517(3) 0.4272(3) 0.38355(12)
O2_7 O 0.8590(3) 0.5552(3) 0.36671(11)
C1_8 C 0.9292(4) 0.4667(3) 0.30000(17)
C2_8 C 0.9979(4) 0.3986(4) 0.28534(19)
C4_8 C 0.9110(3) 0.4860(4) 0.35269(16)
C5_8 C 0.9381(3) 0.2829(2) 0.49806(14)
H3_8 H 0.8935 0.2529 0.4768
O3_8 O 0.9272(3) 0.4517(3) 0.11645(12)
C7_8 C 0.9667(3) 0.4292(4) 0.20000(17)
C8_8 C 0.8986(4) 0.4979(4) 0.21466(19)
H5_7 H 0.8633 0.5317 0.1907
C9_7 C 0.8798(4) 0.5195(4) 0.26372(18)
H6_7 H 0.8348 0.5685 0.2722
C10_8 C 0.9860(4) 0.4110(3) 0.14731(16)
N6_8 N 0.8771(2) 0.4611(2) 0.00375(11)
C11_8 C 0.7829(2) 0.4381(3) 0.00194(14)
H7_8 H 0.7529 0.3935 0.0232
C12_7 C 0.8062(3) 0.5406(3) 0.94513(13)
H8_7 H 0.7958 0.5827 0.9187
O2_8 O 0.8590(3) 0.9448(3) 0.86671(11)
H5_8 H 0.8633 0.9683 0.6907
C9_8 C 0.8798(4) 0.9805(4) 0.76372(18)
H6_8 H 0.8348 0.9315 0.7722
N5_4 N 0.8925(2) 0.9725(2) 0.46632(12)
C12_8 C 0.8062(3) 0.9594(3) 0.44513(13)
H8_8 H 0.7958 0.9173 0.4187
N9_4 N 0.9725(2) 0.8925(2) 0.96632(12)
H1_8 H 0.9683 0.8633 0.1907
C3_8 C 0.9805(4) 0.8798(4) 0.26372(18)
H2_8 H 0.9315 0.8348 0.2722
O4_8 O 0.9448(3) 0.8590(3) 0.36671(11)
C6_8 C 0.9594(3) 0.8062(3) 0.94513(13)
H4_8 H 0.9173 0.7958 0.9187
loop_
_geom_bond_atom_site_label_1
_geom_bond_atom_site_label_2
_geom_bond_site_symmetry_1
_geom_bond_site_symmetry_2
H4 C6 1_555 1_555
N2 C6 1_555 1_555
H2 C3 1_555 1_555
H6 C9 1_555 1_555
H8 C12 1_555 1_555
N10 C12 1_555 1_555
Zn6 N1 1_555 1_555
Zn1 N3 1_555 1_555
N3 C5 1_555 1_555
O1 Zn1 1_555 1_555
C1 C2 1_555 1_555
C4 O1 1_555 1_555
C5 H3 1_555 1_555
O3 C10 1_555 1_555
C8 C7 1_555 1_555
C10 C7 1_555 1_555
Zn2 O3 1_555 1_555
N4 C11 1_555 1_555
N6 Zn2 1_555 1_555
C11 N6 1_555 1_555
H7 C11 1_555 1_555
Zn4 N4 1_555 1_555
N7 Zn2 1_555 1_555
N8 Zn1 1_555 1_555
C1 C4 1_555 1_555
C6_2 N1_2 1_555 1_555
H4_2 C6_2 1_555 1_555
Zn3_2 N2_2 1_555 1_555
Zn6_2 N1_2 1_555 1_555
N2_2 C6_2 1_555 1_555
Zn1_2 N3_2 1_555 1_555
N3_2 C5_2 1_555 1_555
O1_2 Zn1_2 1_555 1_555
O2_2 Zn1_2 1_555 1_555
C1_2 C2_2 1_555 1_555
C2_2 H1_2 1_555 1_555
C3_2 C2_2 1_555 1_555
H2_2 C3_2 1_555 1_555
C4_2 O1_2 1_555 1_555
C5_2 H3_2 1_555 1_555
O3_2 C10_2 1_555 1_555
O4_2 C10_2 1_555 1_555
C7_2 C3_2 1_555 1_555
C8_2 C7_2 1_555 1_555
H5_2 C8_2 1_555 1_555
C9_2 C1_2 1_555 1_555
H6_2 C9_2 1_555 1_555
C10_2 C7_2 1_555 1_555
Zn2_2 O3_2 1_555 1_555
N4_2 C11_2 1_555 1_555
N5 N6_2 1_555 1_555
N6_2 Zn2_2 1_555 1_555
C11_2 N6_2 1_555 1_555
H7_2 C11_2 1_555 1_555
C12_2 N4_2 1_555 1_555
H8_2 C12_2 1_555 1_555
Zn4_2 N4_2 1_555 1_555
Zn5_2 N5 1_555 1_555
N7_2 Zn2_2 1_555 1_555
N8_2 Zn1_2 1_555 1_555
N9 Zn1_2 1_555 1_555
N10_2 Zn2_2 1_555 1_555
O2_2 C4_2 1_555 1_555
C1_2 C4_2 1_555 1_555
O4_2 Zn2_2 1_555 1_555
C8_2 C9_2 1_555 1_555
N5 C12_2 1_555 1_555
H8_3 C12_3 1_555 1_555
Zn6_2 N5_2 1_555 1_555
N5_2 C12_3 1_555 1_555
H6_3 C9_3 1_555 1_555
Zn3 N4_3 1_555 1_555
Zn1_3 N3_3 1_555 1_555
N1_3 C5_3 1_555 1_555
N2_3 N3_3 1_555 1_555
N3_3 C5_3 1_555 1_555
O1_3 Zn1_3 1_555 1_555
C1_3 C2_3 1_555 1_555
C2_3 H1_3 1_555 1_555
C3_3 C2_3 1_555 1_555
H2_3 C3_3 1_555 1_555
C4_3 O1_3 1_555 1_555
C5_3 H3_3 1_555 1_555
C6_3 N1_3 1_555 1_555
H4_3 C6_3 1_555 1_555
O3_3 C10_3 1_555 1_555
O4_3 C10_3 1_555 1_555
C7_3 C3_3 1_555 1_555
C8_3 C7_3 1_555 1_555
C10_3 C7_3 1_555 1_555
Zn2_3 O3_3 1_555 1_555
N6_3 Zn2_3 1_555 1_555
C11_3 N6_3 1_555 1_555
H7_3 C11_3 1_555 1_555
Zn5_2 N1_3 1_555 1_555
N7_3 Zn2_3 1_555 1_555
N8_3 Zn1_3 1_555 1_555
N10_3 Zn2_3 1_555 1_555
N2_3 C6_3 1_555 1_555
C1_3 C4_3 1_555 1_555
O4_3 Zn2_3 1_555 1_555
C12_4 N4_4 1_555 1_555
H8_4 C12_4 1_555 1_555
Zn3_2 N4_4 1_555 1_555
N5_3 C12_4 1_555 1_555
Zn1_4 N3_4 1_555 1_555
N1_4 C5_4 1_555 1_555
N3_4 C5_4 1_555 1_555
O1_4 Zn1_4 1_555 1_555
O2_4 Zn1_4 1_555 1_555
C1_4 C2_4 1_555 1_555
C4_4 O1_4 1_555 1_555
C5_4 H3_4 1_555 1_555
O3_4 C10_4 1_555 1_555
C8_4 C7_4 1_555 1_555
H5_4 C8_4 1_555 1_555
C9_4 C1_4 1_555 1_555
H6_4 C9_4 1_555 1_555
C10_4 C7_4 1_555 1_555
Zn2_4 O3_4 1_555 1_555
N6_4 Zn2_4 1_555 1_555
C11_4 N6_4 1_555 1_555
H7_4 C11_4 1_555 1_555
Zn5 N1_4 1_555 1_555
N7_4 Zn2_4 1_555 1_555
N8_4 Zn1_4 1_555 1_555
N9_3 Zn1_4 1_555 1_555
O2_4 C4_4 1_555 1_555
C1_4 C4_4 1_555 1_555
C8_4 C9_4 1_555 1_555
H2_4 C3_4 1_555 1_555
H4_4 C6_4 1_555 1_555
Zn4_2 N2_4 1_555 1_555
N2_4 C6_4 1_555 1_555
Zn3 N3_5 1_555 1_555
N3_5 C5_5 1_555 1_555
O1_5 Zn3 1_555 1_555
C1_5 C2_5 1_555 1_555
C4_5 O1_5 1_555 1_555
C5_5 H3_5 1_555 1_555
O3_5 C10_5 1_555 1_555
C8_5 C7_5 1_555 1_555
C10_5 C7_5 1_555 1_555
Zn5 O3_5 1_555 1_555
N8_3 C11_5 1_555 1_555
N6_5 Zn5 1_555 1_555
C11_5 N6_5 1_555 1_555
H7_5 C11_5 1_555 1_555
C1_5 C4_5 1_555 1_555
Zn3_2 N3_6 1_555 1_555
N3_6 C5_6 1_555 1_555
O1_6 Zn3_2 1_555 1_555
O2_5 Zn3_2 1_555 1_555
C1_6 C2_6 1_555 1_555
C2_6 H1_5 1_555 1_555
C3_5 C2_6 1_555 1_555
H2_5 C3_5 1_555 1_555
C4_6 O1_6 1_555 1_555
C5_6 H3_6 1_555 1_555
O3_6 C10_6 1_555 1_555
O4_5 C10_6 1_555 1_555
C7_6 C3_5 1_555 1_555
C8_6 C7_6 1_555 1_555
H5_5 C8_6 1_555 1_555
C9_5 C1_6 1_555 1_555
H6_5 C9_5 1_555 1_555
C10_6 C7_6 1_555 1_555
Zn5_2 O3_6 1_555 1_555
N8_4 C11_6 1_555 1_555
N10_2 N6_6 1_555 1_555
N6_6 Zn5_2 1_555 1_555
C11_6 N6_6 1_555 1_555
H7_6 C11_6 1_555 1_555
C12_5 N8_4 1_555 1_555
H8_5 C12_5 1_555 1_555
O2_5 C4_6 1_555 1_555
C1_6 C4_6 1_555 1_555
O4_5 Zn5_2 1_555 1_555
C8_6 C9_5 1_555 1_555
N10_2 C12_5 1_555 1_555
C6_5 N7_3 1_555 1_555
H4_5 C6_5 1_555 1_555
N9 C6_5 1_555 1_555
Zn4 N3_7 1_555 1_555
N7_2 C5_7 1_555 1_555
N9_2 N3_7 1_555 1_555
N3_7 C5_7 1_555 1_555
O1_7 Zn4 1_555 1_555
C1_7 C2_7 1_555 1_555
C2_7 H1_6 1_555 1_555
C3_6 C2_7 1_555 1_555
H2_6 C3_6 1_555 1_555
C4_7 O1_7 1_555 1_555
C5_7 H3_7 1_555 1_555
C6_6 N7_2 1_555 1_555
H4_6 C6_6 1_555 1_555
O3_7 C10_7 1_555 1_555
O4_6 C10_7 1_555 1_555
C7_7 C3_6 1_555 1_555
C8_7 C7_7 1_555 1_555
C10_7 C7_7 1_555 1_555
Zn6_2 O3_7 1_555 1_555
N6_7 Zn6_2 1_555 1_555
C11_7 N6_7 1_555 1_555
H7_7 C11_7 1_555 1_555
N9_2 C6_6 1_555 1_555
C1_7 C4_7 1_555 1_555
O4_6 Zn6_2 1_555 1_555
H6_6 C9_6 1_555 1_555
H8_6 C12_6 1_555 1_555
N10_3 C12_6 1_555 1_555
H2_7 C3_7 1_555 1_555
H4_7 C6_7 1_555 1_555
N9_3 C6_7 1_555 1_555
Zn4_2 N3_8 1_555 1_555
N7 C5_8 1_555 1_555
N3_8 C5_8 1_555 1_555
O1_8 Zn4_2 1_555 1_555
O2_7 Zn4_2 1_555 1_555
C1_8 C2_8 1_555 1_555
C4_8 O1_8 1_555 1_555
C5_8 H3_8 1_555 1_555
O3_8 C10_8 1_555 1_555
C8_8 C7_8 1_555 1_555
H5_7 C8_8 1_555 1_555
C9_7 C1_8 1_555 1_555
H6_7 C9_7 1_555 1_555
C10_8 C7_8 1_555 1_555
Zn6 O3_8 1_555 1_555
N6_8 Zn6 1_555 1_555
C11_8 N6_8 1_555 1_555
H7_8 C11_8 1_555 1_555
O2_7 C4_8 1_555 1_555
C1_8 C4_8 1_555 1_555
C8_8 C9_7 1_555 1_555
C12_7 N8_2 1_555 1_555
H8_7 C12_7 1_555 1_555
N10_4 C12_7 1_555 1_555
H6_8 C9_8 1_555 1_555
H8_8 C12_8 1_555 1_555
N5_4 C12_8 1_555 1_555
H2_8 C3_8 1_555 1_555
H4_8 C6_8 1_555 1_555
N9_4 C6_8 1_555 1_555

#END
