
###############################################################################
#
# This file contains modified crystal structure data generated from the
# MOF subset of the Cambridge Structural Database (CSD) v543 
# hosted by the Cambridge Crystallographic Data Centre (CCDC).
#
# This work is licensed under the Creative Commons
# Attribution-NonCommercial-ShareAlike 4.0 International License.
# To view a copy of this license, visit
# http://creativecommons.org/licenses/by-nc-sa/4.0/
# or send a letter to
# Creative Commons, PO Box 1866, Mountain View, CA 94042, USA.
#
# CIF created using the CSD Python API on 29 September 2022
# The structure has been converted into the P1 space group
# The structure has a 3D framework
# The original CSD entry SUFROA is in the orthorhombic crystal system
# The framework has been calculated to contain at least 10.0% void space
# The void calculation uses a probe of radius 1.32A, grid spacing 0.4
# The framework is charged, counterions have been retained in the structure
# H atom positions have been added when not included in the experimental data
#
###############################################################################

data_SUFROA
_chemical_formula_moiety         '(C120 H24 Cu8 F48 N44 P8)n'
_symmetry_cell_setting           triclinic
_symmetry_space_group_name_H-M   'P 1'
_symmetry_Int_Tables_number      1
_space_group_name_Hall           'P 1'
loop_
_symmetry_equiv_pos_site_id
_symmetry_equiv_pos_as_xyz
1 x,y,z
_cell_length_a                   28.282(3)
_cell_length_b                   10.337(3)
_cell_length_c                   16.285(4)
_cell_angle_alpha                90
_cell_angle_beta                 90
_cell_angle_gamma                90
_cell_volume                     4760.94
loop_
_atom_site_label
_atom_site_type_symbol
_atom_site_fract_x
_atom_site_fract_y
_atom_site_fract_z
N3 N 0.4338(2) 0.0199(5) 0.7500
N8 N 0.5662(2) 0.0199(5) 0.7500
Cu5 Cu 0.39914(3) 0.18229(7) 0.7500
Cu6 Cu 0.60086(3) 0.18229(7) 0.7500
N10 N 0.3734(3) 0.134(1) 0.0889(5)
C23 C 0.2930(2) 0.2053(5) 0.0314(3)
C25 C 0.3375(2) 0.1631(8) 0.0635(4)
C27 C 0.2124(2) 0.2667(5) 0.0528(3)
C28 C 0.2548(2) 0.2222(5) 0.0838(3)
C29 C 0.1737(2) 0.2873(5) 0.1085(3)
N11 N 0.1438(2) 0.3057(5) 0.1540(3)
Cu3 Cu 0.10086(3) 0.31771(7) 0.2500
H3 H 0.25826 0.200487 0.148959
N1 N 0.3562(2) 0.1943(5) 0.6540(3)
N2 N 0.4357(2) 0.3443(5) 0.7500
N4 N 0.3734(3) 0.134(1) 0.4111(5)
C1 C 0.4748(2) 0.7982(5) 0.7500
C2 C 0.4498(2) 0.6830(6) 0.7500
C3 C 0.4752(2) 0.5677(5) 0.7500
C4 C 0.2876(2) 0.2333(5) 0.5528(3)
C5 C 0.2452(2) 0.2778(5) 0.5838(3)
C6 C 0.2930(2) 0.2053(5) 0.4686(3)
C7 C 0.4511(2) 0.9209(6) 0.7500
C8 C 0.4513(2) 0.4458(6) 0.7500
C9 C 0.3263(2) 0.2127(5) 0.6085(3)
C10 C 0.3375(2) 0.1631(8) 0.4365(4)
C11 C 0.2070(2) 0.2947(5) 0.5314(3)
C12 C 0.2124(2) 0.2667(5) 0.4472(3)
C13 C 0.2548(2) 0.2222(5) 0.4162(3)
C14 C 0.1737(2) 0.2873(5) 0.3915(3)
N5 N 0.1438(2) 0.3057(5) 0.3460(3)
C15 C 0.1625(2) 0.3369(8) 0.5635(4)
N6 N 0.1266(3) 0.366(1) 0.5889(5)
C16 C 0.5252(2) 0.7982(5) 0.7500
C17 C 0.5502(2) 0.6830(6) 0.7500
C18 C 0.5248(2) 0.5677(5) 0.7500
C19 C 0.5487(2) 0.4458(6) 0.7500
N7 N 0.5643(2) 0.3443(5) 0.7500
C20 C 0.5489(2) 0.9209(6) 0.7500
N9 N 0.3562(2) 0.1943(5) 0.8460(3)
C21 C 0.2876(2) 0.2333(5) 0.9472(3)
C22 C 0.2452(2) 0.2778(5) 0.9162(3)
C24 C 0.3263(2) 0.2127(5) 0.8915(3)
C26 C 0.2070(2) 0.2947(5) 0.9686(3)
C30 C 0.1625(2) 0.3369(8) 0.9365(4)
N12 N 0.1266(3) 0.366(1) 0.9111(5)
N15 N 0.6438(2) 0.1943(5) 0.6540(3)
N16 N 0.6438(2) 0.1943(5) 0.8460(3)
H1 H 0.24174 0.299513 0.851041
H2 H 0.411295 0.682652 0.75
H4 H 0.588705 0.682652 0.75
H5 H 0.25826 0.200487 0.351041
H6 H 0.24174 0.299513 0.648959
N10_2 N 0.6266(3) 0.134(1) 0.0889(5)
C23_2 C 0.7070(2) 0.2053(5) 0.0314(3)
C25_2 C 0.6625(2) 0.1631(8) 0.0635(4)
C27_2 C 0.7876(2) 0.2667(5) 0.0528(3)
C28_2 C 0.7452(2) 0.2222(5) 0.0838(3)
C29_2 C 0.8263(2) 0.2873(5) 0.1085(3)
N11_2 N 0.8562(2) 0.3057(5) 0.1540(3)
Cu3_2 Cu 0.89914(3) 0.31771(7) 0.2500
H3_2 H 0.74174 0.200487 0.148959
N4_2 N 0.6266(3) 0.134(1) 0.4111(5)
C4_2 C 0.7124(2) 0.2333(5) 0.5528(3)
C5_2 C 0.7548(2) 0.2778(5) 0.5838(3)
C6_2 C 0.7070(2) 0.2053(5) 0.4686(3)
C9_2 C 0.6737(2) 0.2127(5) 0.6085(3)
C10_2 C 0.6625(2) 0.1631(8) 0.4365(4)
C11_2 C 0.7930(2) 0.2947(5) 0.5314(3)
C12_2 C 0.7876(2) 0.2667(5) 0.4472(3)
C13_2 C 0.7452(2) 0.2222(5) 0.4162(3)
C14_2 C 0.8263(2) 0.2873(5) 0.3915(3)
N5_2 N 0.8562(2) 0.3057(5) 0.3460(3)
C15_2 C 0.8375(2) 0.3369(8) 0.5635(4)
N6_2 N 0.8734(3) 0.366(1) 0.5889(5)
C21_2 C 0.7124(2) 0.2333(5) 0.9472(3)
C22_2 C 0.7548(2) 0.2778(5) 0.9162(3)
C24_2 C 0.6737(2) 0.2127(5) 0.8915(3)
C26_2 C 0.7930(2) 0.2947(5) 0.9686(3)
C30_2 C 0.8375(2) 0.3369(8) 0.9365(4)
N12_2 N 0.8734(3) 0.366(1) 0.9111(5)
H1_2 H 0.75826 0.299513 0.851041
H5_2 H 0.74174 0.200487 0.351041
H6_2 H 0.75826 0.299513 0.648959
C19_2 C 0.0487(2) 0.0542(6) 0.2500
N7_2 N 0.0643(2) 0.1557(5) 0.2500
N14 N 0.0662(2) 0.4801(5) 0.2500
C16_2 C 0.0252(2) 0.7018(5) 0.2500
C17_2 C 0.0502(2) 0.8170(6) 0.2500
C18_2 C 0.0248(2) 0.9323(5) 0.2500
C20_2 C 0.0489(2) 0.5791(6) 0.2500
H4_2 H 0.0887048 0.817348 0.25
N2_2 N 0.9357(2) 0.1557(5) 0.2500
C8_2 C 0.9513(2) 0.0542(6) 0.2500
N13 N 0.9338(2) 0.4801(5) 0.2500
C1_2 C 0.9748(2) 0.7018(5) 0.2500
C2_2 C 0.9498(2) 0.8170(6) 0.2500
C3_2 C 0.9752(2) 0.9323(5) 0.2500
C7_2 C 0.9511(2) 0.5791(6) 0.2500
H2_2 H 0.911295 0.817348 0.25
Cu1 Cu 0.39914(3) 0.81771(7) 0.2500
N1_2 N 0.3562(2) 0.8057(5) 0.1540(3)
N2_3 N 0.4357(2) 0.6557(5) 0.2500
C1_3 C 0.4748(2) 0.2018(5) 0.2500
C2_3 C 0.4498(2) 0.3170(6) 0.2500
C3_3 C 0.4752(2) 0.4323(5) 0.2500
C4_3 C 0.2876(2) 0.7667(5) 0.0528(3)
C5_3 C 0.2452(2) 0.7222(5) 0.0838(3)
C7_3 C 0.4511(2) 0.0791(6) 0.2500
C8_3 C 0.4513(2) 0.5542(6) 0.2500
C9_3 C 0.3263(2) 0.7873(5) 0.1085(3)
C11_3 C 0.2070(2) 0.7053(5) 0.0314(3)
C15_3 C 0.1625(2) 0.6631(8) 0.0635(4)
N6_3 N 0.1266(3) 0.634(1) 0.0889(5)
C16_3 C 0.5252(2) 0.2018(5) 0.2500
C17_3 C 0.5502(2) 0.3170(6) 0.2500
C18_3 C 0.5248(2) 0.4323(5) 0.2500
C19_3 C 0.5487(2) 0.5542(6) 0.2500
N7_3 N 0.5643(2) 0.6557(5) 0.2500
C20_3 C 0.5489(2) 0.0791(6) 0.2500
N9_2 N 0.3562(2) 0.8057(5) 0.3460(3)
N10_3 N 0.3734(3) 0.866(1) 0.5889(5)
C21_3 C 0.2876(2) 0.7667(5) 0.4472(3)
C22_3 C 0.2452(2) 0.7222(5) 0.4162(3)
C23_3 C 0.2930(2) 0.7947(5) 0.5314(3)
C24_3 C 0.3263(2) 0.7873(5) 0.3915(3)
C25_3 C 0.3375(2) 0.8369(8) 0.5635(4)
C26_3 C 0.2070(2) 0.7053(5) 0.4686(3)
C27_3 C 0.2124(2) 0.7333(5) 0.5528(3)
C28_3 C 0.2548(2) 0.7778(5) 0.5838(3)
C29_3 C 0.1737(2) 0.7127(5) 0.6085(3)
N11_3 N 0.1438(2) 0.6943(5) 0.6540(3)
C30_3 C 0.1625(2) 0.6631(8) 0.4365(4)
N12_3 N 0.1266(3) 0.634(1) 0.4111(5)
N13_2 N 0.4338(2) 0.9801(5) 0.2500
N14_2 N 0.5662(2) 0.9801(5) 0.2500
Cu3_3 Cu 0.10086(3) 0.68229(7) 0.7500
Cu4 Cu 0.60086(3) 0.81771(7) 0.2500
N15_2 N 0.6438(2) 0.8057(5) 0.1540(3)
N16_2 N 0.6438(2) 0.8057(5) 0.3460(3)
H1_3 H 0.24174 0.700487 0.351041
H2_3 H 0.411295 0.317348 0.25
H3_3 H 0.25826 0.799513 0.648959
H4_3 H 0.588705 0.317348 0.25
H6_3 H 0.24174 0.700487 0.148959
N4_3 N 0.3734(3) 0.866(1) 0.9111(5)
C6_3 C 0.2930(2) 0.7947(5) 0.9686(3)
C10_3 C 0.3375(2) 0.8369(8) 0.9365(4)
C12_3 C 0.2124(2) 0.7333(5) 0.9472(3)
C13_3 C 0.2548(2) 0.7778(5) 0.9162(3)
C14_3 C 0.1737(2) 0.7127(5) 0.8915(3)
N5_3 N 0.1438(2) 0.6943(5) 0.8460(3)
H5_3 H 0.25826 0.799513 0.851041
C16_4 C 0.0252(2) 0.2982(5) 0.7500
C17_4 C 0.0502(2) 0.1830(6) 0.7500
C18_4 C 0.0248(2) 0.0677(5) 0.7500
C20_4 C 0.0489(2) 0.4209(6) 0.7500
N8_2 N 0.0662(2) 0.5199(5) 0.7500
H4_4 H 0.0887048 0.182652 0.75
C19_4 C 0.0487(2) 0.9458(6) 0.7500
N7_4 N 0.0643(2) 0.8443(5) 0.7500
N3_2 N 0.9338(2) 0.5199(5) 0.7500
C1_4 C 0.9748(2) 0.2982(5) 0.7500
C2_4 C 0.9498(2) 0.1830(6) 0.7500
C3_4 C 0.9752(2) 0.0677(5) 0.7500
C7_4 C 0.9511(2) 0.4209(6) 0.7500
Cu5_2 Cu 0.89914(3) 0.68229(7) 0.7500
H2_4 H 0.911295 0.182652 0.75
N10_4 N 0.8734(3) 0.634(1) 0.0889(5)
C23_4 C 0.7930(2) 0.7053(5) 0.0314(3)
C25_4 C 0.8375(2) 0.6631(8) 0.0635(4)
C27_4 C 0.7124(2) 0.7667(5) 0.0528(3)
C28_4 C 0.7548(2) 0.7222(5) 0.0838(3)
C29_4 C 0.6737(2) 0.7873(5) 0.1085(3)
H3_4 H 0.75826 0.700487 0.148959
N1_3 N 0.8562(2) 0.6943(5) 0.6540(3)
N2_4 N 0.9357(2) 0.8443(5) 0.7500
N4_4 N 0.8734(3) 0.634(1) 0.4111(5)
C4_4 C 0.7876(2) 0.7333(5) 0.5528(3)
C5_4 C 0.7452(2) 0.7778(5) 0.5838(3)
C6_4 C 0.7930(2) 0.7053(5) 0.4686(3)
C8_4 C 0.9513(2) 0.9458(6) 0.7500
C9_4 C 0.8263(2) 0.7127(5) 0.6085(3)
C10_4 C 0.8375(2) 0.6631(8) 0.4365(4)
C11_4 C 0.7070(2) 0.7947(5) 0.5314(3)
C12_4 C 0.7124(2) 0.7667(5) 0.4472(3)
C13_4 C 0.7548(2) 0.7222(5) 0.4162(3)
C14_4 C 0.6737(2) 0.7873(5) 0.3915(3)
C15_4 C 0.6625(2) 0.8369(8) 0.5635(4)
N6_4 N 0.6266(3) 0.866(1) 0.5889(5)
N9_3 N 0.8562(2) 0.6943(5) 0.8460(3)
C21_4 C 0.7876(2) 0.7333(5) 0.9472(3)
C22_4 C 0.7452(2) 0.7778(5) 0.9162(3)
C24_4 C 0.8263(2) 0.7127(5) 0.8915(3)
C26_4 C 0.7070(2) 0.7947(5) 0.9686(3)
C30_4 C 0.6625(2) 0.8369(8) 0.9365(4)
N12_4 N 0.6266(3) 0.866(1) 0.9111(5)
H1_4 H 0.74174 0.799513 0.851041
H5_4 H 0.75826 0.700487 0.351041
H6_4 H 0.74174 0.799513 0.648959
P1 P 0.19935(7) 0.0405(2) 0.7500
F1 F 0.1908(3) 0.1901(6) 0.7500
F2 F 0.2515(4) 0.074(2) 0.7500
F4 F 0.1466(3) 0.013(1) 0.7500
F5 F 0.2073(7) 0.0389(6) 0.6562(5)
F6 F 0.2073(7) 0.0389(6) 0.8438(5)
F3 F 0.2089(3) 0.8904(5) 0.7500
F3_2 F 0.2089(3) 0.1096(5) 0.2500
P1_2 P 0.19935(7) 0.9595(2) 0.2500
F1_2 F 0.1908(3) 0.8099(6) 0.2500
F2_2 F 0.2515(4) 0.926(2) 0.2500
F4_2 F 0.1466(3) 0.987(1) 0.2500
F5_2 F 0.2073(7) 0.9611(6) 0.1562(5)
F6_2 F 0.2073(7) 0.9611(6) 0.3438(5)
P1_3 P 0.80065(7) 0.0405(2) 0.7500
F1_3 F 0.8092(3) 0.1901(6) 0.7500
F2_3 F 0.7485(4) 0.074(2) 0.7500
F4_3 F 0.8534(3) 0.013(1) 0.7500
F5_3 F 0.7927(7) 0.0389(6) 0.6562(5)
F6_3 F 0.7927(7) 0.0389(6) 0.8438(5)
F3_3 F 0.7911(3) 0.8904(5) 0.7500
P1_4 P 0.69935(7) 0.5405(2) 0.7500
F1_4 F 0.6908(3) 0.6901(6) 0.7500
F2_4 F 0.7515(4) 0.574(2) 0.7500
F3_4 F 0.7089(3) 0.3904(5) 0.7500
F4_4 F 0.6466(3) 0.513(1) 0.7500
F5_4 F 0.7073(7) 0.5389(6) 0.6562(5)
F6_4 F 0.7073(7) 0.5389(6) 0.8438(5)
P1_5 P 0.69935(7) 0.4595(2) 0.2500
F1_5 F 0.6908(3) 0.3099(6) 0.2500
F2_5 F 0.7515(4) 0.426(2) 0.2500
F3_5 F 0.7089(3) 0.6096(5) 0.2500
F4_5 F 0.6466(3) 0.487(1) 0.2500
F5_5 F 0.7073(7) 0.4611(6) 0.1562(5)
F6_5 F 0.7073(7) 0.4611(6) 0.3438(5)
P1_6 P 0.30065(7) 0.5405(2) 0.7500
F1_6 F 0.3092(3) 0.6901(6) 0.7500
F2_6 F 0.2485(4) 0.574(2) 0.7500
F3_6 F 0.2911(3) 0.3904(5) 0.7500
F4_6 F 0.3534(3) 0.513(1) 0.7500
F5_6 F 0.2927(7) 0.5389(6) 0.6562(5)
F6_6 F 0.2927(7) 0.5389(6) 0.8438(5)
F3_7 F 0.7911(3) 0.1096(5) 0.2500
P1_7 P 0.80065(7) 0.9595(2) 0.2500
F1_7 F 0.8092(3) 0.8099(6) 0.2500
F2_7 F 0.7485(4) 0.926(2) 0.2500
F4_7 F 0.8534(3) 0.987(1) 0.2500
F5_7 F 0.7927(7) 0.9611(6) 0.3438(5)
F6_7 F 0.7927(7) 0.9611(6) 0.1562(5)
P1_8 P 0.30065(7) 0.4595(2) 0.2500
F1_8 F 0.3092(3) 0.3099(6) 0.2500
F2_8 F 0.2485(4) 0.426(2) 0.2500
F3_8 F 0.2911(3) 0.6096(5) 0.2500
F4_8 F 0.3534(3) 0.487(1) 0.2500
F5_8 F 0.2927(7) 0.4611(6) 0.3438(5)
F6_8 F 0.2927(7) 0.4611(6) 0.1562(5)
loop_
_geom_bond_atom_site_label_1
_geom_bond_atom_site_label_2
_geom_bond_site_symmetry_1
_geom_bond_site_symmetry_2
Cu5 N3 1_555 1_555
Cu6 N8 1_555 1_555
N10 C25 1_555 1_555
C25 C23 1_555 1_555
C27 C28 1_555 1_555
C28 C23 1_555 1_555
C29 C27 1_555 1_555
N11 C29 1_555 1_555
Cu3 N11 1_555 1_555
C28 H3 1_555 1_555
Cu5 N1 1_555 1_555
N1 C9 1_555 1_555
N2 Cu5 1_555 1_555
N4 C10 1_555 1_555
C1 C2 1_555 1_555
C2 C3 1_555 1_555
C3 C8 1_555 1_555
C4 C5 1_555 1_555
C5 C11 1_555 1_555
C6 C4 1_555 1_555
C7 C1 1_555 1_555
C8 N2 1_555 1_555
C9 C4 1_555 1_555
C10 C6 1_555 1_555
C11 C12 1_555 1_555
C12 C13 1_555 1_555
C13 C6 1_555 1_555
C14 C12 1_555 1_555
N5 C14 1_555 1_555
C15 C11 1_555 1_555
N6 C15 1_555 1_555
C16 C1 1_555 1_555
C17 C16 1_555 1_555
C18 C3 1_555 1_555
C19 C18 1_555 1_555
N7 C19 1_555 1_555
C20 C16 1_555 1_555
N9 Cu5 1_555 1_555
C21 C22 1_555 1_555
C22 C26 1_555 1_555
C24 N9 1_555 1_555
C30 C26 1_555 1_555
N12 C30 1_555 1_555
Cu3 N5 1_555 1_555
Cu6 N7 1_555 1_555
N15 Cu6 1_555 1_555
N16 Cu6 1_555 1_555
C17 C18 1_555 1_555
C21 C24 1_555 1_555
C22 H1 1_555 1_555
C2 H2 1_555 1_555
C17 H4 1_555 1_555
C13 H5 1_555 1_555
C5 H6 1_555 1_555
N10_2 C25_2 1_555 1_555
C25_2 C23_2 1_555 1_555
C27_2 C28_2 1_555 1_555
C28_2 C23_2 1_555 1_555
C29_2 C27_2 1_555 1_555
N11_2 C29_2 1_555 1_555
Cu3_2 N11_2 1_555 1_555
C28_2 H3_2 1_555 1_555
N15 C9_2 1_555 1_555
N4_2 C10_2 1_555 1_555
C4_2 C5_2 1_555 1_555
C5_2 C11_2 1_555 1_555
C6_2 C4_2 1_555 1_555
C9_2 C4_2 1_555 1_555
C10_2 C6_2 1_555 1_555
C11_2 C12_2 1_555 1_555
C12_2 C13_2 1_555 1_555
C13_2 C6_2 1_555 1_555
C14_2 C12_2 1_555 1_555
N5_2 C14_2 1_555 1_555
C15_2 C11_2 1_555 1_555
N6_2 C15_2 1_555 1_555
C21_2 C22_2 1_555 1_555
C22_2 C26_2 1_555 1_555
C24_2 N16 1_555 1_555
C30_2 C26_2 1_555 1_555
N12_2 C30_2 1_555 1_555
Cu3_2 N5_2 1_555 1_555
C21_2 C24_2 1_555 1_555
C22_2 H1_2 1_555 1_555
C13_2 H5_2 1_555 1_555
C5_2 H6_2 1_555 1_555
N7_2 C19_2 1_555 1_555
N14 Cu3 1_555 1_555
Cu3 N7_2 1_555 1_555
C17_2 C16_2 1_555 1_555
C20_2 C16_2 1_555 1_555
N14 C20_2 1_555 1_555
C17_2 C18_2 1_555 1_555
C17_2 H4_2 1_555 1_555
N2_2 Cu3_2 1_555 1_555
C8_2 N2_2 1_555 1_555
N13 Cu3_2 1_555 1_555
N13 C7_2 1_555 1_555
C1_2 C2_2 1_555 1_555
C2_2 C3_2 1_555 1_555
C7_2 C1_2 1_555 1_555
C2_2 H2_2 1_555 1_555
Cu1 N1_2 1_555 1_555
N1_2 C9_3 1_555 1_555
N2_3 Cu1 1_555 1_555
C1_3 C2_3 1_555 1_555
C2_3 C3_3 1_555 1_555
C3_3 C8_3 1_555 1_555
C4_3 C5_3 1_555 1_555
C5_3 C11_3 1_555 1_555
C7_3 C1_3 1_555 1_555
C8_3 N2_3 1_555 1_555
C9_3 C4_3 1_555 1_555
C15_3 C11_3 1_555 1_555
N6_3 C15_3 1_555 1_555
C16_3 C1_3 1_555 1_555
C17_3 C16_3 1_555 1_555
C18_3 C3_3 1_555 1_555
C19_3 C18_3 1_555 1_555
N7_3 C19_3 1_555 1_555
C20_3 C16_3 1_555 1_555
N9_2 Cu1 1_555 1_555
N10_3 C25_3 1_555 1_555
C21_3 C22_3 1_555 1_555
C22_3 C26_3 1_555 1_555
C23_3 C21_3 1_555 1_555
C24_3 N9_2 1_555 1_555
C25_3 C23_3 1_555 1_555
C26_3 C27_3 1_555 1_555
C27_3 C28_3 1_555 1_555
C28_3 C23_3 1_555 1_555
C29_3 C27_3 1_555 1_555
N11_3 C29_3 1_555 1_555
C30_3 C26_3 1_555 1_555
N12_3 C30_3 1_555 1_555
N13_2 Cu1 1_555 1_555
N14_2 Cu4 1_555 1_555
Cu3_3 N11_3 1_555 1_555
Cu4 N7_3 1_555 1_555
N15_2 Cu4 1_555 1_555
N16_2 Cu4 1_555 1_555
C17_3 C18_3 1_555 1_555
C21_3 C24_3 1_555 1_555
C22_3 H1_3 1_555 1_555
C2_3 H2_3 1_555 1_555
C28_3 H3_3 1_555 1_555
C17_3 H4_3 1_555 1_555
C5_3 H6_3 1_555 1_555
N4_3 C10_3 1_555 1_555
C10_3 C6_3 1_555 1_555
C12_3 C13_3 1_555 1_555
C13_3 C6_3 1_555 1_555
C14_3 C12_3 1_555 1_555
N5_3 C14_3 1_555 1_555
Cu3_3 N5_3 1_555 1_555
C13_3 H5_3 1_555 1_555
C17_4 C16_4 1_555 1_555
C20_4 C16_4 1_555 1_555
N8_2 C20_4 1_555 1_555
Cu3_3 N8_2 1_555 1_555
C17_4 C18_4 1_555 1_555
C17_4 H4_4 1_555 1_555
N7_4 C19_4 1_555 1_555
Cu3_3 N7_4 1_555 1_555
N3_2 C7_4 1_555 1_555
C1_4 C2_4 1_555 1_555
C2_4 C3_4 1_555 1_555
C7_4 C1_4 1_555 1_555
Cu5_2 N3_2 1_555 1_555
C2_4 H2_4 1_555 1_555
N10_4 C25_4 1_555 1_555
C25_4 C23_4 1_555 1_555
C27_4 C28_4 1_555 1_555
C28_4 C23_4 1_555 1_555
C29_4 C27_4 1_555 1_555
N15_2 C29_4 1_555 1_555
C28_4 H3_4 1_555 1_555
Cu5_2 N1_3 1_555 1_555
N1_3 C9_4 1_555 1_555
N2_4 Cu5_2 1_555 1_555
N4_4 C10_4 1_555 1_555
C4_4 C5_4 1_555 1_555
C5_4 C11_4 1_555 1_555
C6_4 C4_4 1_555 1_555
C8_4 N2_4 1_555 1_555
C9_4 C4_4 1_555 1_555
C10_4 C6_4 1_555 1_555
C11_4 C12_4 1_555 1_555
C12_4 C13_4 1_555 1_555
C13_4 C6_4 1_555 1_555
C14_4 C12_4 1_555 1_555
N16_2 C14_4 1_555 1_555
C15_4 C11_4 1_555 1_555
N6_4 C15_4 1_555 1_555
N9_3 Cu5_2 1_555 1_555
C21_4 C22_4 1_555 1_555
C22_4 C26_4 1_555 1_555
C24_4 N9_3 1_555 1_555
C30_4 C26_4 1_555 1_555
N12_4 C30_4 1_555 1_555
C21_4 C24_4 1_555 1_555
C22_4 H1_4 1_555 1_555
C13_4 H5_4 1_555 1_555
C5_4 H6_4 1_555 1_555
P1 F1 1_555 1_555
F2 P1 1_555 1_555
F4 P1 1_555 1_555
F5 P1 1_555 1_555
F6 P1 1_555 1_555
P1_2 F1_2 1_555 1_555
F2_2 P1_2 1_555 1_555
F4_2 P1_2 1_555 1_555
F5_2 P1_2 1_555 1_555
F6_2 P1_2 1_555 1_555
P1_3 F1_3 1_555 1_555
F2_3 P1_3 1_555 1_555
F4_3 P1_3 1_555 1_555
F5_3 P1_3 1_555 1_555
F6_3 P1_3 1_555 1_555
P1_4 F1_4 1_555 1_555
F2_4 P1_4 1_555 1_555
F3_4 P1_4 1_555 1_555
F4_4 P1_4 1_555 1_555
F5_4 P1_4 1_555 1_555
F6_4 P1_4 1_555 1_555
P1_5 F1_5 1_555 1_555
F2_5 P1_5 1_555 1_555
F3_5 P1_5 1_555 1_555
F4_5 P1_5 1_555 1_555
F5_5 P1_5 1_555 1_555
F6_5 P1_5 1_555 1_555
P1_6 F1_6 1_555 1_555
F2_6 P1_6 1_555 1_555
F3_6 P1_6 1_555 1_555
F4_6 P1_6 1_555 1_555
F5_6 P1_6 1_555 1_555
F6_6 P1_6 1_555 1_555
P1_7 F1_7 1_555 1_555
F2_7 P1_7 1_555 1_555
F4_7 P1_7 1_555 1_555
F5_7 P1_7 1_555 1_555
F6_7 P1_7 1_555 1_555
P1_8 F1_8 1_555 1_555
F2_8 P1_8 1_555 1_555
F3_8 P1_8 1_555 1_555
F4_8 P1_8 1_555 1_555
F5_8 P1_8 1_555 1_555
F6_8 P1_8 1_555 1_555

#END
