
###############################################################################
#
# This file contains modified crystal structure data generated from the
# MOF subset of the Cambridge Structural Database (CSD) v543 
# hosted by the Cambridge Crystallographic Data Centre (CCDC).
#
# This work is licensed under the Creative Commons
# Attribution-NonCommercial-ShareAlike 4.0 International License.
# To view a copy of this license, visit
# http://creativecommons.org/licenses/by-nc-sa/4.0/
# or send a letter to
# Creative Commons, PO Box 1866, Mountain View, CA 94042, USA.
#
# CIF created using the CSD Python API on 29 September 2022
# The structure has been converted into the P1 space group
# The structure has a 3D framework
# The original CSD entry SUGVUM is in the tetragonal crystal system
# The framework has been calculated to contain at least 10.0% void space
# The void calculation uses a probe of radius 1.32A, grid spacing 0.4
#
###############################################################################

data_SUGVUM
_chemical_formula_moiety         '(C160 H112 Cu14 N32 O32)n'
_symmetry_cell_setting           triclinic
_symmetry_space_group_name_H-M   'P 1'
_symmetry_Int_Tables_number      1
_space_group_name_Hall           'P 1'
loop_
_symmetry_equiv_pos_site_id
_symmetry_equiv_pos_as_xyz
1 x,y,z
_cell_length_a                   20.375(4)
_cell_length_b                   20.375(4)
_cell_length_c                   12.665(2)
_cell_angle_alpha                90
_cell_angle_beta                 90
_cell_angle_gamma                90
_cell_volume                     5257.76
loop_
_atom_site_label
_atom_site_type_symbol
_atom_site_fract_x
_atom_site_fract_y
_atom_site_fract_z
Cu1 Cu 0.5000 0.0000 0.0000
Cu3 Cu 0.2500 0.2500 0.7500
O3 O 0.4456(3) 0.0458(2) 0.1035(3)
N3 N 0.2526(2) 0.1761(3) 0.6509(4)
N4 N 0.5739(3) 0.0026(2) 0.0991(4)
N6 N 0.2824(2) 0.1131(3) 0.5185(4)
C11 C 0.2997(3) 0.1649(3) 0.5792(4)
H8 H 0.3383 0.1890 0.5723
C12 C 0.2055(3) 0.1295(3) 0.6345(5)
H9 H 0.1669 0.1256 0.6733
C13 C 0.2229(3) 0.0900(3) 0.5540(5)
H10 H 0.1995 0.0544 0.5277
C14 C 0.3213(3) 0.0871(3) 0.4335(4)
C15 C 0.3233(3) 0.0202(3) 0.4209(5)
C17 C 0.3908(3) 0.0344(3) 0.2677(5)
C18 C 0.3873(3) 0.1023(3) 0.2827(5)
H13 H 0.4085 0.1302 0.2358
C19 C 0.3527(3) 0.1282(3) 0.3660(5)
H14 H 0.3508 0.1734 0.3760
C20 C 0.4269(4) 0.0071(3) 0.1730(6)
N1 N 0.7526(2) 0.1761(3) 0.8491(4)
N2 N 0.7824(2) 0.1131(3) 0.9815(4)
C1 C 0.7997(3) 0.1649(3) 0.9208(4)
H1 H 0.8383 0.1890 0.9277
C2 C 0.7055(3) 0.1295(3) 0.8655(5)
H2 H 0.6669 0.1256 0.8267
C3 C 0.7229(3) 0.0900(3) 0.9460(5)
H3 H 0.6995 0.0544 0.9723
Cu2 Cu 0.7500 0.2500 0.7500
Cu3_2 Cu 0.5000 0.5000 0.0000
O1 O 0.7042(2) 0.1956(3) 0.6465(3)
O2 O 0.8045(3) 0.1853(3) 0.5772(5)
N2_2 N 0.6369(3) 0.0324(2) 0.2315(4)
C1_2 C 0.5851(3) 0.0497(3) 0.1708(4)
H1_2 H 0.5610 0.0883 0.1777
C4 C 0.6629(3) 0.0713(3) 0.3165(4)
C5 C 0.7298(3) 0.0733(3) 0.3291(5)
H4 H 0.7573 0.0514 0.2824
C6 C 0.7556(3) 0.1090(3) 0.4135(5)
H5 H 0.8008 0.1110 0.4228
C7 C 0.7156(3) 0.1408(3) 0.4823(5)
C8 C 0.6477(3) 0.1373(3) 0.4673(5)
H6 H 0.6198 0.1585 0.5142
C9 C 0.6218(3) 0.1027(3) 0.3840(5)
H7 H 0.5766 0.1008 0.3740
C10 C 0.7429(3) 0.1769(4) 0.5770(6)
O3_2 O 0.7958(2) 0.3044(3) 0.8535(3)
O4 O 0.6955(3) 0.3147(3) 0.9228(5)
N5 N 0.7474(2) 0.3239(3) 0.6509(4)
H13_2 H 0.8802 0.3415 0.9858
C20_2 C 0.7571(3) 0.3231(4) 0.9230(6)
N1_2 N 0.2474(2) 0.3239(3) 0.8491(4)
N2_3 N 0.2176(2) 0.3869(3) 0.9815(4)
C1_3 C 0.2003(3) 0.3351(3) 0.9208(4)
H1_3 H 0.1617 0.3110 0.9277
C2_2 C 0.2945(3) 0.3705(3) 0.8655(5)
H2_2 H 0.3331 0.3744 0.8267
C3_2 C 0.2771(3) 0.4100(3) 0.9460(5)
H3_2 H 0.3005 0.4456 0.9723
O3_3 O 0.5544(3) 0.4542(2) 0.1035(3)
O4_2 O 0.5647(3) 0.5545(3) 0.1728(5)
N4_2 N 0.4261(3) 0.4974(2) 0.0991(4)
N6_2 N 0.7176(2) 0.3869(3) 0.5185(4)
C11_2 C 0.7003(3) 0.3351(3) 0.5792(4)
H8_2 H 0.6617 0.3110 0.5723
C12_2 C 0.7945(3) 0.3705(3) 0.6345(5)
H9_2 H 0.8331 0.3744 0.6733
C13_2 C 0.7771(3) 0.4100(3) 0.5540(5)
H10_2 H 0.8005 0.4456 0.5277
C14_2 C 0.6787(3) 0.4129(3) 0.4335(4)
C15_2 C 0.6767(3) 0.4798(3) 0.4209(5)
H11 H 0.6986 0.5073 0.4676
C16 C 0.6410(3) 0.5056(3) 0.3365(5)
H12 H 0.6390 0.5508 0.3272
C17_2 C 0.6092(3) 0.4656(3) 0.2677(5)
C18_2 C 0.6127(3) 0.3977(3) 0.2827(5)
H13_3 H 0.5915 0.3698 0.2358
C19_2 C 0.6473(3) 0.3718(3) 0.3660(5)
H14_2 H 0.6492 0.3266 0.3760
C20_3 C 0.5731(4) 0.4929(3) 0.1730(6)
O1_2 O 0.2958(2) 0.3044(3) 0.6465(3)
O2_2 O 0.1955(3) 0.3147(3) 0.5772(5)
N2_4 N 0.3631(3) 0.4676(2) 0.2315(4)
C1_4 C 0.4149(3) 0.4503(3) 0.1708(4)
H1_4 H 0.4390 0.4117 0.1777
C2_3 C 0.3795(3) 0.5445(3) 0.1155(5)
H2_3 H 0.3756 0.5831 0.0767
C3_3 C 0.3400(3) 0.5271(3) 0.1960(5)
H3_3 H 0.3044 0.5505 0.2223
C4_2 C 0.3371(3) 0.4287(3) 0.3165(4)
C5_2 C 0.2702(3) 0.4267(3) 0.3291(5)
H4_2 H 0.2427 0.4486 0.2824
C6_2 C 0.2444(3) 0.3910(3) 0.4135(5)
H5_2 H 0.1992 0.3890 0.4228
C7_2 C 0.2844(3) 0.3592(3) 0.4823(5)
C8_2 C 0.3523(3) 0.3627(3) 0.4673(5)
H6_2 H 0.3802 0.3415 0.5142
C9_2 C 0.3782(3) 0.3973(3) 0.3840(5)
H7_2 H 0.4234 0.3992 0.3740
C10_2 C 0.2571(3) 0.3231(4) 0.5770(6)
O3_4 O 0.2042(2) 0.1956(3) 0.8535(3)
O4_3 O 0.3045(3) 0.1853(3) 0.9228(5)
H13_4 H 0.1198 0.1585 0.9858
C20_4 C 0.2429(3) 0.1769(4) 0.9230(6)
Cu1_2 Cu 0.5000 0.0000 1.0000
O2_3 O 0.5647(3) 0.0545(3) 0.8272(5)
H4_3 H 0.6986 0.0073 0.5324
C6_3 C 0.6410(3) 0.0056(3) 0.6635(5)
H5_3 H 0.6390 0.0508 0.6728
C12_3 C 0.3795(3) 0.0445(3) 0.8845(5)
H9_3 H 0.3756 0.0831 0.9233
C13_3 C 0.3400(3) 0.0271(3) 0.8040(5)
H10_3 H 0.3044 0.0505 0.7777
Cu1_3 Cu 0.5000 1.0000 0.0000
O4_4 O 0.4353(3) 0.9455(3) 0.1728(5)
H11_2 H 0.3014 0.9927 0.4676
C16_2 C 0.3590(3) 0.9944(3) 0.3365(5)
H12_2 H 0.3610 0.9492 0.3272
C2_4 C 0.6205(3) 0.9555(3) 0.1155(5)
H2_4 H 0.6244 0.9169 0.0767
C3_4 C 0.6600(3) 0.9729(3) 0.1960(5)
H3_4 H 0.6956 0.9495 0.2223
Cu1_4 Cu 0.5000 1.0000 1.0000
O1_3 O 0.5544(3) 0.9542(2) 0.8965(3)
N1_3 N 0.7474(2) 0.8239(3) 0.3491(4)
N2_5 N 0.7176(2) 0.8869(3) 0.4815(4)
C1_5 C 0.7003(3) 0.8351(3) 0.4208(4)
H1_5 H 0.6617 0.8110 0.4277
C2_5 C 0.7945(3) 0.8705(3) 0.3655(5)
H2_5 H 0.8331 0.8744 0.3267
C3_5 C 0.7771(3) 0.9100(3) 0.4460(5)
H3_5 H 0.8005 0.9456 0.4723
C4_3 C 0.6787(3) 0.9129(3) 0.5665(4)
C5_3 C 0.6767(3) 0.9798(3) 0.5791(5)
C7_3 C 0.6092(3) 0.9656(3) 0.7323(5)
C8_3 C 0.6127(3) 0.8977(3) 0.7173(5)
H6_3 H 0.5915 0.8698 0.7642
C9_3 C 0.6473(3) 0.8718(3) 0.6340(5)
H7_3 H 0.6492 0.8266 0.6240
C10_3 C 0.5731(4) 0.9929(3) 0.8270(6)
Cu2_2 Cu 0.7500 0.7500 0.2500
N5_2 N 0.4261(3) 0.9974(2) 0.9009(4)
Cu3_3 Cu 0.2500 0.7500 0.2500
N3_2 N 0.2474(2) 0.8239(3) 0.1509(4)
N6_3 N 0.2176(2) 0.8869(3) 0.0185(4)
C11_3 C 0.2003(3) 0.8351(3) 0.0792(4)
H8_3 H 0.1617 0.8110 0.0723
C12_4 C 0.2945(3) 0.8705(3) 0.1345(5)
H9_4 H 0.3331 0.8744 0.1733
C13_4 C 0.2771(3) 0.9100(3) 0.0540(5)
H10_4 H 0.3005 0.9456 0.0277
O1_4 O 0.7958(2) 0.8044(3) 0.1465(3)
O2_4 O 0.6955(3) 0.8147(3) 0.0772(5)
H6_4 H 0.8802 0.8415 0.0142
C10_4 C 0.7571(3) 0.8231(4) 0.0770(6)
Cu3_4 Cu 0.5000 0.5000 1.0000
O3_5 O 0.7042(2) 0.6956(3) 0.3535(3)
O4_5 O 0.8045(3) 0.6853(3) 0.4228(5)
N3_3 N 0.5739(3) 0.5026(2) 0.9009(4)
N5_3 N 0.7526(2) 0.6761(3) 0.1509(4)
N6_4 N 0.6369(3) 0.5324(2) 0.7685(4)
C11_4 C 0.5851(3) 0.5497(3) 0.8292(4)
H8_4 H 0.5610 0.5883 0.8223
C12_5 C 0.6205(3) 0.4555(3) 0.8845(5)
H9_5 H 0.6244 0.4169 0.9233
C13_5 C 0.6600(3) 0.4729(3) 0.8040(5)
H10_5 H 0.6956 0.4495 0.7777
C14_3 C 0.6629(3) 0.5713(3) 0.6835(4)
C15_3 C 0.7298(3) 0.5733(3) 0.6709(5)
H11_3 H 0.7573 0.5514 0.7176
C16_3 C 0.7556(3) 0.6090(3) 0.5865(5)
H12_3 H 0.8008 0.6110 0.5772
C17_3 C 0.7156(3) 0.6408(3) 0.5177(5)
C18_3 C 0.6477(3) 0.6373(3) 0.5327(5)
H13_5 H 0.6198 0.6585 0.4858
C19_3 C 0.6218(3) 0.6027(3) 0.6160(5)
H14_3 H 0.5766 0.6008 0.6260
C20_5 C 0.7429(3) 0.6769(4) 0.4230(6)
N6_5 N 0.7824(2) 0.6131(3) 0.0185(4)
C11_5 C 0.7997(3) 0.6649(3) 0.0792(4)
H8_5 H 0.8383 0.6890 0.0723
C12_6 C 0.7055(3) 0.6295(3) 0.1345(5)
H9_6 H 0.6669 0.6256 0.1733
C13_6 C 0.7229(3) 0.5900(3) 0.0540(5)
H10_6 H 0.6995 0.5544 0.0277
O1_5 O 0.4456(3) 0.5458(2) 0.8965(3)
O2_5 O 0.4353(3) 0.4455(3) 0.8272(5)
N1_4 N 0.2526(2) 0.6761(3) 0.3491(4)
N2_6 N 0.2824(2) 0.6131(3) 0.4815(4)
C1_6 C 0.2997(3) 0.6649(3) 0.4208(4)
H1_6 H 0.3383 0.6890 0.4277
C2_6 C 0.2055(3) 0.6295(3) 0.3655(5)
H2_6 H 0.1669 0.6256 0.3267
C3_6 C 0.2229(3) 0.5900(3) 0.4460(5)
H3_6 H 0.1995 0.5544 0.4723
C4_4 C 0.3213(3) 0.5871(3) 0.5665(4)
C5_4 C 0.3233(3) 0.5202(3) 0.5791(5)
H4_4 H 0.3014 0.4927 0.5324
C6_4 C 0.3590(3) 0.4944(3) 0.6635(5)
H5_4 H 0.3610 0.4492 0.6728
C7_4 C 0.3908(3) 0.5344(3) 0.7323(5)
C8_4 C 0.3873(3) 0.6023(3) 0.7173(5)
H6_5 H 0.4085 0.6302 0.7642
C9_4 C 0.3527(3) 0.6282(3) 0.6340(5)
H7_4 H 0.3508 0.6734 0.6240
C10_5 C 0.4269(4) 0.5071(3) 0.8270(6)
O1_6 O 0.2042(2) 0.6956(3) 0.1465(3)
O2_6 O 0.3045(3) 0.6853(3) 0.0772(5)
H6_6 H 0.1198 0.6585 0.0142
C10_6 C 0.2429(3) 0.6769(4) 0.0770(6)
O3_6 O 0.2958(2) 0.8044(3) 0.3535(3)
O4_6 O 0.1955(3) 0.8147(3) 0.4228(5)
N6_6 N 0.3631(3) 0.9676(2) 0.7685(4)
C11_6 C 0.4149(3) 0.9503(3) 0.8292(4)
H8_6 H 0.4390 0.9117 0.8223
C14_4 C 0.3371(3) 0.9287(3) 0.6835(4)
C15_4 C 0.2702(3) 0.9267(3) 0.6709(5)
H11_4 H 0.2427 0.9486 0.7176
C16_4 C 0.2444(3) 0.8910(3) 0.5865(5)
H12_4 H 0.1992 0.8890 0.5772
C17_4 C 0.2844(3) 0.8592(3) 0.5177(5)
C18_4 C 0.3523(3) 0.8627(3) 0.5327(5)
H13_6 H 0.3802 0.8415 0.4858
C19_4 C 0.3782(3) 0.8973(3) 0.6160(5)
H14_4 H 0.4234 0.8992 0.6260
C20_6 C 0.2571(3) 0.8231(4) 0.4230(6)
Cu1_5 Cu 0.0000 0.0000 0.5000
O4_7 O 0.0647(3) 0.0545(3) 0.6728(5)
N5_4 N 0.0739(3) 0.0026(2) 0.4009(4)
H11_5 H 0.1986 0.0073 0.9676
C16_5 C 0.1410(3) 0.0056(3) 0.8365(5)
H12_5 H 0.1390 0.0508 0.8272
N6_7 N 0.1369(3) 0.0324(2) 0.2685(4)
C11_7 C 0.0851(3) 0.0497(3) 0.3292(4)
H8_7 H 0.0610 0.0883 0.3223
C14_5 C 0.1629(3) 0.0713(3) 0.1835(4)
C15_5 C 0.2298(3) 0.0733(3) 0.1709(5)
H11_6 H 0.2573 0.0514 0.2176
C16_6 C 0.2556(3) 0.1090(3) 0.0865(5)
H12_6 H 0.3008 0.1110 0.0772
C17_5 C 0.2156(3) 0.1408(3) 0.0177(5)
C18_5 C 0.1477(3) 0.1373(3) 0.0327(5)
C19_5 C 0.1218(3) 0.1027(3) 0.1160(5)
H14_5 H 0.0766 0.1008 0.1260
Cu1_6 Cu -0.0000 1.0000 0.5000
O3_7 O 0.0544(3) 0.9542(2) 0.6035(3)
C14_6 C 0.1787(3) 0.9129(3) 0.9335(4)
C15_6 C 0.1767(3) 0.9798(3) 0.9209(5)
C17_6 C 0.1092(3) 0.9656(3) 0.7677(5)
C18_6 C 0.1127(3) 0.8977(3) 0.7827(5)
H13_7 H 0.0915 0.8698 0.7358
C19_6 C 0.1473(3) 0.8718(3) 0.8660(5)
H14_6 H 0.1492 0.8266 0.8760
C20_7 C 0.0731(4) 0.9929(3) 0.6730(6)
C12_7 C 0.1205(3) 0.9555(3) 0.3845(5)
H9_7 H 0.1244 0.9169 0.4233
C13_7 C 0.1600(3) 0.9729(3) 0.3040(5)
H10_7 H 0.1956 0.9495 0.2777
Cu1_7 Cu 1.0000 0.0000 0.5000
O1_7 O 0.9456(3) 0.0458(2) 0.3965(3)
C4_5 C 0.8213(3) 0.0871(3) 0.0665(4)
C5_5 C 0.8233(3) 0.0202(3) 0.0791(5)
C7_5 C 0.8908(3) 0.0344(3) 0.2323(5)
C8_5 C 0.8873(3) 0.1023(3) 0.2173(5)
H6_7 H 0.9085 0.1302 0.2642
C9_5 C 0.8527(3) 0.1282(3) 0.1340(5)
H7_5 H 0.8508 0.1734 0.1240
C10_7 C 0.9269(4) 0.0071(3) 0.3270(6)
C2_7 C 0.8795(3) 0.0445(3) 0.6155(5)
H2_7 H 0.8756 0.0831 0.5767
C3_7 C 0.8400(3) 0.0271(3) 0.6960(5)
H3_7 H 0.8044 0.0505 0.7223
Cu1_8 Cu 1.0000 1.0000 0.5000
O2_7 O 0.9353(3) 0.9455(3) 0.3272(5)
H4_5 H 0.8014 0.9927 0.0324
C6_5 C 0.8590(3) 0.9944(3) 0.1635(5)
H5_5 H 0.8610 0.9492 0.1728
N4_3 N 0.9261(3) 0.9974(2) 0.5991(4)
N2_7 N 0.8631(3) 0.9676(2) 0.7315(4)
C1_7 C 0.9149(3) 0.9503(3) 0.6708(4)
H1_7 H 0.9390 0.9117 0.6777
C4_6 C 0.8371(3) 0.9287(3) 0.8165(4)
C5_6 C 0.7702(3) 0.9267(3) 0.8291(5)
H4_6 H 0.7427 0.9486 0.7824
C6_6 C 0.7444(3) 0.8910(3) 0.9135(5)
H5_6 H 0.6992 0.8890 0.9228
C7_6 C 0.7844(3) 0.8592(3) 0.9823(5)
C8_6 C 0.8523(3) 0.8627(3) 0.9673(5)
C9_6 C 0.8782(3) 0.8973(3) 0.8840(5)
H7_6 H 0.9234 0.8992 0.8740
Cu3_5 Cu -0.0000 0.5000 0.5000
O1_8 O 0.0544(3) 0.4542(2) 0.3965(3)
O2_8 O 0.0647(3) 0.5545(3) 0.3272(5)
C4_7 C 0.1787(3) 0.4129(3) 0.0665(4)
C5_7 C 0.1767(3) 0.4798(3) 0.0791(5)
H4_7 H 0.1986 0.5073 0.0324
C6_7 C 0.1410(3) 0.5056(3) 0.1635(5)
H5_7 H 0.1390 0.5508 0.1728
C7_7 C 0.1092(3) 0.4656(3) 0.2323(5)
C8_7 C 0.1127(3) 0.3977(3) 0.2173(5)
H6_8 H 0.0915 0.3698 0.2642
C9_7 C 0.1473(3) 0.3718(3) 0.1340(5)
H7_7 H 0.1492 0.3266 0.1240
C10_8 C 0.0731(4) 0.4929(3) 0.3270(6)
N4_4 N 0.0739(3) 0.5026(2) 0.5991(4)
N2_8 N 0.1369(3) 0.5324(2) 0.7315(4)
C1_8 C 0.0851(3) 0.5497(3) 0.6708(4)
H1_8 H 0.0610 0.5883 0.6777
C2_8 C 0.1205(3) 0.4555(3) 0.6155(5)
H2_8 H 0.1244 0.4169 0.5767
C3_8 C 0.1600(3) 0.4729(3) 0.6960(5)
H3_8 H 0.1956 0.4495 0.7223
C4_8 C 0.1629(3) 0.5713(3) 0.8165(4)
C5_8 C 0.2298(3) 0.5733(3) 0.8291(5)
H4_8 H 0.2573 0.5514 0.7824
C6_8 C 0.2556(3) 0.6090(3) 0.9135(5)
H5_8 H 0.3008 0.6110 0.9228
C7_8 C 0.2156(3) 0.6408(3) 0.9823(5)
C8_8 C 0.1477(3) 0.6373(3) 0.9673(5)
C9_8 C 0.1218(3) 0.6027(3) 0.8840(5)
H7_8 H 0.0766 0.6008 0.8740
Cu3_6 Cu 1.0000 0.5000 0.5000
N3_4 N 0.9261(3) 0.4974(2) 0.4009(4)
N6_8 N 0.8631(3) 0.4676(2) 0.2685(4)
C11_8 C 0.9149(3) 0.4503(3) 0.3292(4)
H8_8 H 0.9390 0.4117 0.3223
C12_8 C 0.8795(3) 0.5445(3) 0.3845(5)
H9_8 H 0.8756 0.5831 0.4233
C13_8 C 0.8400(3) 0.5271(3) 0.3040(5)
H10_8 H 0.8044 0.5505 0.2777
C14_7 C 0.8371(3) 0.4287(3) 0.1835(4)
C15_7 C 0.7702(3) 0.4267(3) 0.1709(5)
H11_7 H 0.7427 0.4486 0.2176
C16_7 C 0.7444(3) 0.3910(3) 0.0865(5)
H12_7 H 0.6992 0.3890 0.0772
C17_7 C 0.7844(3) 0.3592(3) 0.0177(5)
C18_7 C 0.8523(3) 0.3627(3) 0.0327(5)
C19_7 C 0.8782(3) 0.3973(3) 0.1160(5)
H14_7 H 0.9234 0.3992 0.1260
O3_8 O 0.9456(3) 0.5458(2) 0.6035(3)
O4_8 O 0.9353(3) 0.4455(3) 0.6728(5)
C14_8 C 0.8213(3) 0.5871(3) 0.9335(4)
C15_8 C 0.8233(3) 0.5202(3) 0.9209(5)
H11_8 H 0.8014 0.4927 0.9676
C16_8 C 0.8590(3) 0.4944(3) 0.8365(5)
H12_8 H 0.8610 0.4492 0.8272
C17_8 C 0.8908(3) 0.5344(3) 0.7677(5)
C18_8 C 0.8873(3) 0.6023(3) 0.7827(5)
H13_8 H 0.9085 0.6302 0.7358
C19_8 C 0.8527(3) 0.6282(3) 0.8660(5)
H14_8 H 0.8508 0.6734 0.8760
C20_8 C 0.9269(4) 0.5071(3) 0.6730(6)
loop_
_geom_bond_atom_site_label_1
_geom_bond_atom_site_label_2
_geom_bond_site_symmetry_1
_geom_bond_site_symmetry_2
Cu3 N3 1_555 1_555
O3 Cu1 1_555 1_555
N3 C11 1_555 1_555
N4 Cu1 1_555 1_555
N6 C11 1_555 1_555
C11 H8 1_555 1_555
C12 N3 1_555 1_555
H9 C12 1_555 1_555
C13 N6 1_555 1_555
H10 C13 1_555 1_555
C14 N6 1_555 1_555
C15 C14 1_555 1_555
C18 C17 1_555 1_555
H13 C18 1_555 1_555
C19 C14 1_555 1_555
H14 C19 1_555 1_555
C20 O3 1_555 1_555
C12 C13 1_555 1_555
C17 C20 1_555 1_555
C18 C19 1_555 1_555
N1 C1 1_555 1_555
N2 C1 1_555 1_555
C1 H1 1_555 1_555
C2 N1 1_555 1_555
H2 C2 1_555 1_555
C3 N2 1_555 1_555
H3 C3 1_555 1_555
Cu2 N1 1_555 1_555
C2 C3 1_555 1_555
Cu2 O1 1_555 1_555
O1 C10 1_555 1_555
O2 C10 1_555 1_555
N4 C1_2 1_555 1_555
N2_2 C1_2 1_555 1_555
C1_2 H1_2 1_555 1_555
C4 N2_2 1_555 1_555
C5 C4 1_555 1_555
H4 C5 1_555 1_555
C6 C5 1_555 1_555
H5 C6 1_555 1_555
C7 C6 1_555 1_555
C8 C7 1_555 1_555
H6 C8 1_555 1_555
C9 C4 1_555 1_555
H7 C9 1_555 1_555
C10 C7 1_555 1_555
O3_2 Cu2 1_555 1_555
O4 C20_2 1_555 1_555
N5 Cu2 1_555 1_555
C20_2 O3_2 1_555 1_555
C8 C9 1_555 1_555
N1_2 C1_3 1_555 1_555
N2_3 C1_3 1_555 1_555
C1_3 H1_3 1_555 1_555
C2_2 N1_2 1_555 1_555
H2_2 C2_2 1_555 1_555
C3_2 N2_3 1_555 1_555
H3_2 C3_2 1_555 1_555
Cu3 N1_2 1_555 1_555
C2_2 C3_2 1_555 1_555
O3_3 Cu3_2 1_555 1_555
O4_2 C20_3 1_555 1_555
N5 C11_2 1_555 1_555
N4_2 Cu3_2 1_555 1_555
N6_2 C11_2 1_555 1_555
C11_2 H8_2 1_555 1_555
C12_2 N5 1_555 1_555
H9_2 C12_2 1_555 1_555
C13_2 N6_2 1_555 1_555
H10_2 C13_2 1_555 1_555
C14_2 N6_2 1_555 1_555
C15_2 C14_2 1_555 1_555
H11 C15_2 1_555 1_555
C16 C15_2 1_555 1_555
H12 C16 1_555 1_555
C17_2 C16 1_555 1_555
C18_2 C17_2 1_555 1_555
H13_3 C18_2 1_555 1_555
C19_2 C14_2 1_555 1_555
H14_2 C19_2 1_555 1_555
C20_3 O3_3 1_555 1_555
C12_2 C13_2 1_555 1_555
C17_2 C20_3 1_555 1_555
C18_2 C19_2 1_555 1_555
Cu3 O1_2 1_555 1_555
O1_2 C10_2 1_555 1_555
O2_2 C10_2 1_555 1_555
N4_2 C1_4 1_555 1_555
N2_4 C1_4 1_555 1_555
C1_4 H1_4 1_555 1_555
C2_3 N4_2 1_555 1_555
H2_3 C2_3 1_555 1_555
C3_3 N2_4 1_555 1_555
H3_3 C3_3 1_555 1_555
C4_2 N2_4 1_555 1_555
C5_2 C4_2 1_555 1_555
H4_2 C5_2 1_555 1_555
C6_2 C5_2 1_555 1_555
H5_2 C6_2 1_555 1_555
C7_2 C6_2 1_555 1_555
C8_2 C7_2 1_555 1_555
H6_2 C8_2 1_555 1_555
C9_2 C4_2 1_555 1_555
H7_2 C9_2 1_555 1_555
C10_2 C7_2 1_555 1_555
O3_4 Cu3 1_555 1_555
O4_3 C20_4 1_555 1_555
C20_4 O3_4 1_555 1_555
C2_3 C3_3 1_555 1_555
C8_2 C9_2 1_555 1_555
H5_3 C6_3 1_555 1_555
H9_3 C12_3 1_555 1_555
H10_3 C13_3 1_555 1_555
C12_3 C13_3 1_555 1_555
H12_2 C16_2 1_555 1_555
H2_4 C2_4 1_555 1_555
H3_4 C3_4 1_555 1_555
C2_4 C3_4 1_555 1_555
Cu1_4 O1_3 1_555 1_555
O1_3 C10_3 1_555 1_555
N1_3 C1_5 1_555 1_555
N2_5 C1_5 1_555 1_555
C1_5 H1_5 1_555 1_555
C2_5 N1_3 1_555 1_555
H2_5 C2_5 1_555 1_555
C3_5 N2_5 1_555 1_555
H3_5 C3_5 1_555 1_555
C4_3 N2_5 1_555 1_555
C5_3 C4_3 1_555 1_555
C8_3 C7_3 1_555 1_555
H6_3 C8_3 1_555 1_555
C9_3 C4_3 1_555 1_555
H7_3 C9_3 1_555 1_555
C10_3 C7_3 1_555 1_555
Cu2_2 N1_3 1_555 1_555
N5_2 Cu1_4 1_555 1_555
C2_5 C3_5 1_555 1_555
C8_3 C9_3 1_555 1_555
Cu3_3 N3_2 1_555 1_555
N3_2 C11_3 1_555 1_555
N6_3 C11_3 1_555 1_555
C11_3 H8_3 1_555 1_555
C12_4 N3_2 1_555 1_555
H9_4 C12_4 1_555 1_555
C13_4 N6_3 1_555 1_555
H10_4 C13_4 1_555 1_555
C12_4 C13_4 1_555 1_555
Cu2_2 O1_4 1_555 1_555
O1_4 C10_4 1_555 1_555
O2_4 C10_4 1_555 1_555
Cu3_4 N3_3 1_555 1_555
O3_5 Cu2_2 1_555 1_555
O4_5 C20_5 1_555 1_555
N3_3 C11_4 1_555 1_555
N5_3 Cu2_2 1_555 1_555
N6_4 C11_4 1_555 1_555
C11_4 H8_4 1_555 1_555
C12_5 N3_3 1_555 1_555
H9_5 C12_5 1_555 1_555
C13_5 N6_4 1_555 1_555
H10_5 C13_5 1_555 1_555
C14_3 N6_4 1_555 1_555
C15_3 C14_3 1_555 1_555
H11_3 C15_3 1_555 1_555
C16_3 C15_3 1_555 1_555
H12_3 C16_3 1_555 1_555
C17_3 C16_3 1_555 1_555
C18_3 C17_3 1_555 1_555
H13_5 C18_3 1_555 1_555
C19_3 C14_3 1_555 1_555
H14_3 C19_3 1_555 1_555
C20_5 O3_5 1_555 1_555
C12_5 C13_5 1_555 1_555
C17_3 C20_5 1_555 1_555
C18_3 C19_3 1_555 1_555
N5_3 C11_5 1_555 1_555
N6_5 C11_5 1_555 1_555
C11_5 H8_5 1_555 1_555
C12_6 N5_3 1_555 1_555
H9_6 C12_6 1_555 1_555
C13_6 N6_5 1_555 1_555
H10_6 C13_6 1_555 1_555
C12_6 C13_6 1_555 1_555
Cu3_4 O1_5 1_555 1_555
O1_5 C10_5 1_555 1_555
O2_5 C10_5 1_555 1_555
N1_4 C1_6 1_555 1_555
N2_6 C1_6 1_555 1_555
C1_6 H1_6 1_555 1_555
C2_6 N1_4 1_555 1_555
H2_6 C2_6 1_555 1_555
C3_6 N2_6 1_555 1_555
H3_6 C3_6 1_555 1_555
C4_4 N2_6 1_555 1_555
C5_4 C4_4 1_555 1_555
H4_4 C5_4 1_555 1_555
C6_4 C5_4 1_555 1_555
H5_4 C6_4 1_555 1_555
C7_4 C6_4 1_555 1_555
C8_4 C7_4 1_555 1_555
H6_5 C8_4 1_555 1_555
C9_4 C4_4 1_555 1_555
H7_4 C9_4 1_555 1_555
C10_5 C7_4 1_555 1_555
Cu3_3 N1_4 1_555 1_555
C2_6 C3_6 1_555 1_555
C8_4 C9_4 1_555 1_555
Cu3_3 O1_6 1_555 1_555
O1_6 C10_6 1_555 1_555
O2_6 C10_6 1_555 1_555
O3_6 Cu3_3 1_555 1_555
O4_6 C20_6 1_555 1_555
N5_2 C11_6 1_555 1_555
N6_6 C11_6 1_555 1_555
C11_6 H8_6 1_555 1_555
C14_4 N6_6 1_555 1_555
C15_4 C14_4 1_555 1_555
H11_4 C15_4 1_555 1_555
C16_4 C15_4 1_555 1_555
H12_4 C16_4 1_555 1_555
C17_4 C16_4 1_555 1_555
C18_4 C17_4 1_555 1_555
H13_6 C18_4 1_555 1_555
C19_4 C14_4 1_555 1_555
H14_4 C19_4 1_555 1_555
C20_6 O3_6 1_555 1_555
C17_4 C20_6 1_555 1_555
C18_4 C19_4 1_555 1_555
N5_4 Cu1_5 1_555 1_555
H12_5 C16_5 1_555 1_555
N5_4 C11_7 1_555 1_555
N6_7 C11_7 1_555 1_555
C11_7 H8_7 1_555 1_555
C14_5 N6_7 1_555 1_555
C15_5 C14_5 1_555 1_555
H11_6 C15_5 1_555 1_555
C16_6 C15_5 1_555 1_555
H12_6 C16_6 1_555 1_555
C17_5 C16_6 1_555 1_555
C18_5 C17_5 1_555 1_555
C19_5 C14_5 1_555 1_555
H14_5 C19_5 1_555 1_555
C18_5 C19_5 1_555 1_555
O3_7 Cu1_6 1_555 1_555
C15_6 C14_6 1_555 1_555
C18_6 C17_6 1_555 1_555
H13_7 C18_6 1_555 1_555
C19_6 C14_6 1_555 1_555
H14_6 C19_6 1_555 1_555
C20_7 O3_7 1_555 1_555
C17_6 C20_7 1_555 1_555
C18_6 C19_6 1_555 1_555
H9_7 C12_7 1_555 1_555
H10_7 C13_7 1_555 1_555
C12_7 C13_7 1_555 1_555
Cu1_7 O1_7 1_555 1_555
O1_7 C10_7 1_555 1_555
C5_5 C4_5 1_555 1_555
C8_5 C7_5 1_555 1_555
H6_7 C8_5 1_555 1_555
C9_5 C4_5 1_555 1_555
H7_5 C9_5 1_555 1_555
C10_7 C7_5 1_555 1_555
C8_5 C9_5 1_555 1_555
H2_7 C2_7 1_555 1_555
H3_7 C3_7 1_555 1_555
C2_7 C3_7 1_555 1_555
H5_5 C6_5 1_555 1_555
N4_3 Cu1_8 1_555 1_555
N4_3 C1_7 1_555 1_555
N2_7 C1_7 1_555 1_555
C1_7 H1_7 1_555 1_555
C4_6 N2_7 1_555 1_555
C5_6 C4_6 1_555 1_555
H4_6 C5_6 1_555 1_555
C6_6 C5_6 1_555 1_555
H5_6 C6_6 1_555 1_555
C7_6 C6_6 1_555 1_555
C8_6 C7_6 1_555 1_555
C9_6 C4_6 1_555 1_555
H7_6 C9_6 1_555 1_555
C8_6 C9_6 1_555 1_555
Cu3_5 O1_8 1_555 1_555
O1_8 C10_8 1_555 1_555
O2_8 C10_8 1_555 1_555
C5_7 C4_7 1_555 1_555
H4_7 C5_7 1_555 1_555
C6_7 C5_7 1_555 1_555
H5_7 C6_7 1_555 1_555
C7_7 C6_7 1_555 1_555
C8_7 C7_7 1_555 1_555
H6_8 C8_7 1_555 1_555
C9_7 C4_7 1_555 1_555
H7_7 C9_7 1_555 1_555
C10_8 C7_7 1_555 1_555
N4_4 Cu3_5 1_555 1_555
C8_7 C9_7 1_555 1_555
N4_4 C1_8 1_555 1_555
N2_8 C1_8 1_555 1_555
C1_8 H1_8 1_555 1_555
C2_8 N4_4 1_555 1_555
H2_8 C2_8 1_555 1_555
C3_8 N2_8 1_555 1_555
H3_8 C3_8 1_555 1_555
C4_8 N2_8 1_555 1_555
C5_8 C4_8 1_555 1_555
H4_8 C5_8 1_555 1_555
C6_8 C5_8 1_555 1_555
H5_8 C6_8 1_555 1_555
C7_8 C6_8 1_555 1_555
C8_8 C7_8 1_555 1_555
C9_8 C4_8 1_555 1_555
H7_8 C9_8 1_555 1_555
C2_8 C3_8 1_555 1_555
C8_8 C9_8 1_555 1_555
Cu3_6 N3_4 1_555 1_555
N3_4 C11_8 1_555 1_555
N6_8 C11_8 1_555 1_555
C11_8 H8_8 1_555 1_555
C12_8 N3_4 1_555 1_555
H9_8 C12_8 1_555 1_555
C13_8 N6_8 1_555 1_555
H10_8 C13_8 1_555 1_555
C14_7 N6_8 1_555 1_555
C15_7 C14_7 1_555 1_555
H11_7 C15_7 1_555 1_555
C16_7 C15_7 1_555 1_555
H12_7 C16_7 1_555 1_555
C17_7 C16_7 1_555 1_555
C18_7 C17_7 1_555 1_555
C19_7 C14_7 1_555 1_555
H14_7 C19_7 1_555 1_555
C12_8 C13_8 1_555 1_555
C18_7 C19_7 1_555 1_555
O3_8 Cu3_6 1_555 1_555
O4_8 C20_8 1_555 1_555
C15_8 C14_8 1_555 1_555
H11_8 C15_8 1_555 1_555
C16_8 C15_8 1_555 1_555
H12_8 C16_8 1_555 1_555
C17_8 C16_8 1_555 1_555
C18_8 C17_8 1_555 1_555
H13_8 C18_8 1_555 1_555
C19_8 C14_8 1_555 1_555
H14_8 C19_8 1_555 1_555
C20_8 O3_8 1_555 1_555
C17_8 C20_8 1_555 1_555
C18_8 C19_8 1_555 1_555

#END
