
###############################################################################
#
# This file contains modified crystal structure data generated from the
# MOF subset of the Cambridge Structural Database (CSD) v543 
# hosted by the Cambridge Crystallographic Data Centre (CCDC).
#
# This work is licensed under the Creative Commons
# Attribution-NonCommercial-ShareAlike 4.0 International License.
# To view a copy of this license, visit
# http://creativecommons.org/licenses/by-nc-sa/4.0/
# or send a letter to
# Creative Commons, PO Box 1866, Mountain View, CA 94042, USA.
#
# CIF created using the CSD Python API on 29 September 2022
# The structure has been converted into the P1 space group
# The structure has a 3D framework
# The original CSD entry SUGWEX03 is in the tetragonal crystal system
# The framework has been calculated to contain at least 10.0% void space
# The void calculation uses a probe of radius 1.32A, grid spacing 0.4
#
###############################################################################

data_SUGWEX03
_chemical_formula_moiety         '(C160 H112 Cu15 N32 O32)n'
_symmetry_cell_setting           triclinic
_symmetry_space_group_name_H-M   'P 1'
_symmetry_Int_Tables_number      1
_space_group_name_Hall           'P 1'
loop_
_symmetry_equiv_pos_site_id
_symmetry_equiv_pos_as_xyz
1 x,y,z
_cell_length_a                   20.643(15)
_cell_length_b                   20.643(15)
_cell_length_c                   12.520(10)
_cell_angle_alpha                90
_cell_angle_beta                 90
_cell_angle_gamma                90
_cell_volume                     5335.19
loop_
_atom_site_label
_atom_site_type_symbol
_atom_site_fract_x
_atom_site_fract_y
_atom_site_fract_z
Cu1 Cu -0.0000 -0.0000 0.0000
C9 C 0.1570(6) 0.0281(6) 0.2001(9)
H6 H 0.1921 0.0515 0.2265
C10 C 0.1178(7) 0.0445(7) 0.1149(9)
H7 H 0.1221 0.0816 0.0734
Cu1_2 Cu -0.0000 -0.0000 1.0000
O2 O 0.0511(4) 0.0560(5) 0.9015(5)
N1 N 0.2476(5) 0.1784(5) 0.3510(7)
N2 N 0.2217(5) 0.1158(5) 0.4870(6)
C1 C 0.0763(6) 0.0128(10) 0.8372(9)
C2 C 0.1129(6) 0.0412(7) 0.7422(8)
C3 C 0.1433(6) 0.0009(7) 0.6702(9)
C4 C 0.1775(6) 0.0254(7) 0.5868(9)
C5 C 0.1816(6) 0.0894(7) 0.5708(8)
C6 C 0.1510(7) 0.1338(7) 0.6442(9)
H3 H 0.1535 0.1784 0.6344
C7 C 0.1180(6) 0.1076(8) 0.7292(9)
H4 H 0.0986 0.1350 0.7789
C8 C 0.2057(6) 0.1689(6) 0.4268(9)
H5 H 0.1695 0.1948 0.4387
C9_2 C 0.2781(6) 0.0930(6) 0.4501(9)
H6_2 H 0.3015 0.0579 0.4765
C10_2 C 0.2945(7) 0.1322(7) 0.3649(9)
H7_2 H 0.3316 0.1279 0.3234
Cu2 Cu 0.2500 0.2500 0.2500
Cu2_2 Cu -0.0000 0.5000 1.0000
N4 N 0.2524(5) 0.3216(5) 0.1490(7)
N6 N 0.2783(5) 0.3842(5) 0.0130(6)
C18 C 0.2943(6) 0.3311(6) 0.0732(9)
H12 H 0.3305 0.3052 0.0613
C19 C 0.2219(6) 0.4070(6) 0.0499(9)
H13 H 0.1985 0.4421 0.0235
C20 C 0.2055(7) 0.3678(7) 0.1351(9)
H14 H 0.1684 0.3721 0.1766
N5 N 0.0716(5) 0.4976(5) 0.8990(7)
O1 O 0.2018(6) 0.1792(5) 0.0938(7)
O2_2 O 0.3060(5) 0.1989(4) 0.1515(5)
C1_2 C 0.2628(10) 0.1737(6) 0.0872(9)
H4_2 H 0.3850 0.1514 0.0289
O3 O 0.2982(6) 0.3208(5) 0.4062(7)
O4 O 0.1940(5) 0.3011(4) 0.3485(5)
N6_2 N 0.1342(5) 0.4717(5) 0.7630(6)
C11 C 0.2372(10) 0.3263(6) 0.4128(9)
C12 C 0.2088(7) 0.3629(6) 0.5078(8)
C13 C 0.2491(7) 0.3933(6) 0.5798(9)
H8 H 0.2937 0.3902 0.5712
C14 C 0.2246(7) 0.4275(6) 0.6632(9)
H9 H 0.2527 0.4485 0.7098
C15 C 0.1606(7) 0.4316(6) 0.6792(8)
C16 C 0.1162(7) 0.4010(7) 0.6058(9)
H10 H 0.0716 0.4035 0.6156
C17 C 0.1424(8) 0.3680(6) 0.5208(9)
H11 H 0.1150 0.3486 0.4711
C18_2 C 0.0811(6) 0.4557(6) 0.8232(9)
H12_2 H 0.0552 0.4195 0.8113
C19_2 C 0.1570(6) 0.5281(6) 0.7999(9)
H13_2 H 0.1921 0.5515 0.7735
C20_2 C 0.1178(7) 0.5445(7) 0.8851(9)
H14_2 H 0.1221 0.5816 0.9266
Cu1_3 Cu -0.0000 1.0000 0.0000
N3 N 0.0716(5) 0.9976(5) 0.1010(7)
N1_2 N 0.2524(5) 0.8216(5) 0.8510(7)
N2_2 N 0.2783(5) 0.8842(5) 0.9870(6)
C8_2 C 0.2943(6) 0.8311(6) 0.9268(9)
H5_2 H 0.3305 0.8052 0.9387
C9_3 C 0.2219(6) 0.9070(6) 0.9501(9)
H6_3 H 0.1985 0.9421 0.9765
C10_3 C 0.2055(7) 0.8678(7) 0.8649(9)
H7_3 H 0.1684 0.8721 0.8234
Cu2_3 Cu 0.2500 0.7500 0.7500
Cu2_4 Cu 0.0000 0.5000 0.0000
O1_2 O 0.2982(6) 0.8208(5) 0.5938(7)
O2_3 O 0.1940(5) 0.8011(4) 0.6515(5)
N2_3 N 0.1342(5) 0.9717(5) 0.2370(6)
C1_3 C 0.2372(10) 0.8263(6) 0.5872(9)
C2_2 C 0.2088(7) 0.8629(6) 0.4922(8)
C3_2 C 0.2491(7) 0.8933(6) 0.4202(9)
H1 H 0.2937 0.8902 0.4288
C4_2 C 0.2246(7) 0.9275(6) 0.3368(9)
H2 H 0.2527 0.9485 0.2902
C5_2 C 0.1606(7) 0.9316(6) 0.3208(8)
C6_2 C 0.1162(7) 0.9010(7) 0.3942(9)
H3_2 H 0.0716 0.9035 0.3844
C7_2 C 0.1424(8) 0.8680(6) 0.4792(9)
H4_3 H 0.1150 0.8486 0.5289
C8_3 C 0.0811(6) 0.9557(6) 0.1768(9)
H5_3 H 0.0552 0.9195 0.1887
O3_2 O 0.2018(6) 0.6792(5) 0.9062(7)
O4_2 O 0.3060(5) 0.6989(4) 0.8485(5)
N5_2 N 0.2476(5) 0.6784(5) 0.6490(7)
C11_2 C 0.2628(10) 0.6737(6) 0.9128(9)
H11_2 H 0.3850 0.6514 0.9711
O3_3 O 0.0708(5) 0.4518(6) 0.1562(7)
O4_3 O 0.0511(4) 0.5560(5) 0.0985(5)
N6_3 N 0.2217(5) 0.6158(5) 0.5130(6)
C11_3 C 0.0763(6) 0.5128(10) 0.1628(9)
C12_2 C 0.1129(6) 0.5412(7) 0.2578(8)
C13_2 C 0.1433(6) 0.5009(7) 0.3298(9)
H8_2 H 0.1402 0.4563 0.3212
C14_2 C 0.1775(6) 0.5254(7) 0.4132(9)
H9_2 H 0.1985 0.4973 0.4598
C15_2 C 0.1816(6) 0.5894(7) 0.4292(8)
C16_2 C 0.1510(7) 0.6338(7) 0.3558(9)
H10_2 H 0.1535 0.6784 0.3656
C17_2 C 0.1180(6) 0.6076(8) 0.2708(9)
H11_3 H 0.0986 0.6350 0.2211
C18_3 C 0.2057(6) 0.6689(6) 0.5732(9)
H12_3 H 0.1695 0.6948 0.5613
C19_3 C 0.2781(6) 0.5930(6) 0.5499(9)
H13_3 H 0.3015 0.5579 0.5235
C20_3 C 0.2945(7) 0.6322(7) 0.6351(9)
H14_3 H 0.3316 0.6279 0.6766
Cu1_4 Cu -0.0000 1.0000 1.0000
O1_3 O 0.0708(5) 0.9518(6) 0.8438(7)
H1_2 H 0.1402 0.9563 0.6788
H2_2 H 0.1985 0.9973 0.5402
Cu1_5 Cu 1.0000 -0.0000 0.0000
O3_4 O 0.9292(5) 0.0482(6) 0.1562(7)
H8_3 H 0.8598 0.0437 0.3212
H9_3 H 0.8015 0.0027 0.4598
Cu1_6 Cu 1.0000 -0.0000 1.0000
N5_3 N 0.9284(5) 0.0024(5) 0.8990(7)
Cu1_7 Cu 0.7500 0.2500 0.2500
O1_4 O 0.7982(6) 0.3208(5) 0.0938(7)
O2_4 O 0.6940(5) 0.3011(4) 0.1515(5)
C1_4 C 0.7372(10) 0.3263(6) 0.0872(9)
H4_4 H 0.6150 0.3486 0.0289
O3_5 O 0.7018(6) 0.1792(5) 0.4062(7)
O4_4 O 0.8060(5) 0.1989(4) 0.3485(5)
N3_2 N 0.7524(5) 0.3216(5) 0.3510(7)
N5_4 N 0.7476(5) 0.1784(5) 0.1490(7)
N6_4 N 0.8658(5) 0.0283(5) 0.7630(6)
C11_4 C 0.7628(10) 0.1737(6) 0.4128(9)
C12_3 C 0.7912(7) 0.1371(6) 0.5078(8)
C13_3 C 0.7509(7) 0.1067(6) 0.5798(9)
H8_4 H 0.7063 0.1098 0.5712
C14_3 C 0.7754(7) 0.0725(6) 0.6632(9)
H9_4 H 0.7473 0.0515 0.7098
C15_3 C 0.8394(7) 0.0684(6) 0.6792(8)
C16_3 C 0.8838(7) 0.0990(7) 0.6058(9)
H10_3 H 0.9284 0.0965 0.6156
C17_3 C 0.8576(8) 0.1320(6) 0.5208(9)
H11_4 H 0.8850 0.1514 0.4711
C18_4 C 0.9189(6) 0.0443(6) 0.8232(9)
H12_4 H 0.9448 0.0805 0.8113
N6_5 N 0.7217(5) 0.1158(5) 0.0130(6)
C18_5 C 0.7057(6) 0.1689(6) 0.0732(9)
H12_5 H 0.6695 0.1948 0.0613
C19_4 C 0.7781(6) 0.0930(6) 0.0499(9)
H13_4 H 0.8015 0.0579 0.0235
C20_4 C 0.7945(7) 0.1322(7) 0.1351(9)
H14_4 H 0.8316 0.1279 0.1766
Cu2_5 Cu 1.0000 0.5000 1.0000
O1_5 O 0.9292(5) 0.5482(6) 0.8438(7)
O2_5 O 0.9489(4) 0.4440(5) 0.9015(5)
N2_4 N 0.7783(5) 0.3842(5) 0.4870(6)
C1_5 C 0.9237(6) 0.4872(10) 0.8372(9)
C2_3 C 0.8871(6) 0.4588(7) 0.7422(8)
C3_3 C 0.8567(6) 0.4991(7) 0.6702(9)
H1_3 H 0.8598 0.5437 0.6788
C4_3 C 0.8225(6) 0.4746(7) 0.5868(9)
H2_3 H 0.8015 0.5027 0.5402
C5_3 C 0.8184(6) 0.4106(7) 0.5708(8)
C6_3 C 0.8490(7) 0.3662(7) 0.6442(9)
H3_3 H 0.8465 0.3216 0.6344
C7_3 C 0.8820(6) 0.3924(8) 0.7292(9)
H4_5 H 0.9014 0.3650 0.7789
C8_4 C 0.7943(6) 0.3311(6) 0.4268(9)
H5_4 H 0.8305 0.3052 0.4387
C9_4 C 0.7219(6) 0.4070(6) 0.4501(9)
H6_4 H 0.6985 0.4421 0.4765
C10_4 C 0.7055(7) 0.3678(7) 0.3649(9)
H7_4 H 0.6684 0.3721 0.3234
Cu1_8 Cu 1.0000 1.0000 0.0000
Cu3 Cu 0.7500 0.7500 0.7500
O4_5 O 0.9489(4) 0.9440(5) 0.0985(5)
N4_2 N 0.7524(5) 0.8216(5) 0.6490(7)
N6_6 N 0.7783(5) 0.8842(5) 0.5130(6)
C11_5 C 0.9237(6) 0.9872(10) 0.1628(9)
C12_4 C 0.8871(6) 0.9588(7) 0.2578(8)
C13_4 C 0.8567(6) 0.9991(7) 0.3298(9)
C14_4 C 0.8225(6) 0.9746(7) 0.4132(9)
C15_4 C 0.8184(6) 0.9106(7) 0.4292(8)
C16_4 C 0.8490(7) 0.8662(7) 0.3558(9)
H10_4 H 0.8465 0.8216 0.3656
C17_4 C 0.8820(6) 0.8924(8) 0.2708(9)
H11_5 H 0.9014 0.8650 0.2211
C18_6 C 0.7943(6) 0.8311(6) 0.5732(9)
H12_6 H 0.8305 0.8052 0.5613
C19_5 C 0.7219(6) 0.9070(6) 0.5499(9)
H13_5 H 0.6985 0.9421 0.5235
C20_5 C 0.7055(7) 0.8678(7) 0.6351(9)
H14_5 H 0.6684 0.8721 0.6766
O1_6 O 0.7018(6) 0.6792(5) 0.5938(7)
O2_6 O 0.8060(5) 0.6989(4) 0.6515(5)
N1_3 N 0.9284(5) 0.5024(5) 0.1010(7)
N2_5 N 0.8658(5) 0.5283(5) 0.2370(6)
C1_6 C 0.7628(10) 0.6737(6) 0.5872(9)
C2_4 C 0.7912(7) 0.6371(6) 0.4922(8)
C3_4 C 0.7509(7) 0.6067(6) 0.4202(9)
H1_4 H 0.7063 0.6098 0.4288
C4_4 C 0.7754(7) 0.5725(6) 0.3368(9)
H2_4 H 0.7473 0.5515 0.2902
C5_4 C 0.8394(7) 0.5684(6) 0.3208(8)
C6_4 C 0.8838(7) 0.5990(7) 0.3942(9)
H3_4 H 0.9284 0.5965 0.3844
C7_4 C 0.8576(8) 0.6320(6) 0.4792(9)
H4_6 H 0.8850 0.6514 0.5289
C8_5 C 0.9189(6) 0.5443(6) 0.1768(9)
H5_5 H 0.9448 0.5805 0.1887
C9_5 C 0.8430(6) 0.4719(6) 0.2001(9)
H6_5 H 0.8079 0.4485 0.2265
C10_5 C 0.8822(7) 0.4555(7) 0.1149(9)
H7_5 H 0.8779 0.4184 0.0734
Cu2_6 Cu 1.0000 0.5000 0.0000
O3_6 O 0.7982(6) 0.8208(5) 0.9062(7)
O4_6 O 0.6940(5) 0.8011(4) 0.8485(5)
N3_3 N 0.7476(5) 0.6784(5) 0.8510(7)
C11_6 C 0.7372(10) 0.8263(6) 0.9128(9)
H11_6 H 0.6150 0.8486 0.9711
N2_6 N 0.7217(5) 0.6158(5) 0.9870(6)
C8_6 C 0.7057(6) 0.6689(6) 0.9268(9)
H5_6 H 0.6695 0.6948 0.9387
C9_6 C 0.7781(6) 0.5930(6) 0.9501(9)
H6_6 H 0.8015 0.5579 0.9765
C10_6 C 0.7945(7) 0.6322(7) 0.8649(9)
H7_6 H 0.8316 0.6279 0.8234
Cu1_9 Cu 1.0000 1.0000 1.0000
C19_6 C 0.8430(6) 0.9719(6) 0.7999(9)
H13_6 H 0.8079 0.9485 0.7735
C20_6 C 0.8822(7) 0.9555(7) 0.8851(9)
H14_6 H 0.8779 0.9184 0.9266
N1_4 N 0.5716(5) 0.4976(5) 0.6010(7)
N2_7 N 0.6342(5) 0.4717(5) 0.7370(6)
C2_5 C 0.7088(7) 0.3629(6) 0.9922(8)
C3_5 C 0.7491(7) 0.3933(6) 0.9202(9)
H1_5 H 0.7937 0.3902 0.9288
C4_5 C 0.7246(7) 0.4275(6) 0.8368(9)
H2_5 H 0.7527 0.4485 0.7902
C5_5 C 0.6606(7) 0.4316(6) 0.8208(8)
C6_5 C 0.6162(7) 0.4010(7) 0.8942(9)
H3_5 H 0.5716 0.4035 0.8844
C7_5 C 0.6424(8) 0.3680(6) 0.9792(9)
C8_7 C 0.5811(6) 0.4557(6) 0.6768(9)
H5_7 H 0.5552 0.4195 0.6887
C9_7 C 0.6570(6) 0.5281(6) 0.7001(9)
H6_7 H 0.6921 0.5515 0.7265
C10_7 C 0.6178(7) 0.5445(7) 0.6149(9)
H7_7 H 0.6221 0.5816 0.5734
Cu2_7 Cu 0.5000 0.5000 0.5000
O1_7 O 0.5708(5) 0.4518(6) 0.3438(7)
O2_7 O 0.5511(4) 0.5560(5) 0.4015(5)
C1_7 C 0.5763(6) 0.5128(10) 0.3372(9)
C2_6 C 0.6129(6) 0.5412(7) 0.2422(8)
C3_6 C 0.6433(6) 0.5009(7) 0.1702(9)
H1_6 H 0.6402 0.4563 0.1788
C4_6 C 0.6775(6) 0.5254(7) 0.0868(9)
H2_6 H 0.6985 0.4973 0.0402
C5_6 C 0.6816(6) 0.5894(7) 0.0708(8)
C6_6 C 0.6510(7) 0.6338(7) 0.1442(9)
H3_6 H 0.6535 0.6784 0.1344
C7_6 C 0.6180(6) 0.6076(8) 0.2292(9)
H4_7 H 0.5986 0.6350 0.2789
O3_7 O 0.4292(5) 0.5482(6) 0.6562(7)
O4_7 O 0.4489(4) 0.4440(5) 0.5985(5)
N5_5 N 0.4284(5) 0.5024(5) 0.3990(7)
C11_7 C 0.4237(6) 0.4872(10) 0.6628(9)
C12_5 C 0.3871(6) 0.4588(7) 0.7578(8)
C13_5 C 0.3567(6) 0.4991(7) 0.8298(9)
H8_5 H 0.3598 0.5437 0.8212
C14_5 C 0.3225(6) 0.4746(7) 0.9132(9)
H9_5 H 0.3015 0.5027 0.9598
C15_5 C 0.3184(6) 0.4106(7) 0.9292(8)
C16_5 C 0.3490(7) 0.3662(7) 0.8558(9)
H10_5 H 0.3465 0.3216 0.8656
C17_5 C 0.3820(6) 0.3924(8) 0.7708(9)
H11_7 H 0.4014 0.3650 0.7211
N6_7 N 0.3658(5) 0.5283(5) 0.2630(6)
C12_6 C 0.2912(7) 0.6371(6) 0.0078(8)
C13_6 C 0.2509(7) 0.6067(6) 0.0798(9)
H8_6 H 0.2063 0.6098 0.0712
C14_6 C 0.2754(7) 0.5725(6) 0.1632(9)
H9_6 H 0.2473 0.5515 0.2098
C15_6 C 0.3394(7) 0.5684(6) 0.1792(8)
C16_6 C 0.3838(7) 0.5990(7) 0.1058(9)
H10_6 H 0.4284 0.5965 0.1156
C17_6 C 0.3576(8) 0.6320(6) 0.0208(9)
C18_7 C 0.4189(6) 0.5443(6) 0.3232(9)
H12_7 H 0.4448 0.5805 0.3113
C19_7 C 0.3430(6) 0.4719(6) 0.2999(9)
H13_7 H 0.3079 0.4485 0.2735
C20_7 C 0.3822(7) 0.4555(7) 0.3851(9)
H14_7 H 0.3779 0.4184 0.4266
Cu1_10 Cu 0.5000 0.0000 0.5000
O1_8 O 0.4292(5) 0.0482(6) 0.3438(7)
H1_7 H 0.3598 0.0437 0.1788
H2_7 H 0.3015 0.0027 0.0402
O4_8 O 0.5511(4) 0.0560(5) 0.5985(5)
N3_4 N 0.4284(5) 0.0024(5) 0.6010(7)
C11_8 C 0.5763(6) 0.0128(10) 0.6628(9)
C12_7 C 0.6129(6) 0.0412(7) 0.7578(8)
C13_7 C 0.6433(6) 0.0009(7) 0.8298(9)
C14_7 C 0.6775(6) 0.0254(7) 0.9132(9)
C15_7 C 0.6816(6) 0.0894(7) 0.9292(8)
C16_7 C 0.6510(7) 0.1338(7) 0.8558(9)
H10_7 H 0.6535 0.1784 0.8656
C17_7 C 0.6180(6) 0.1076(8) 0.7708(9)
H11_8 H 0.5986 0.1350 0.7211
C19_8 C 0.6570(6) 0.0281(6) 0.2999(9)
H13_8 H 0.6921 0.0515 0.2735
C20_8 C 0.6178(7) 0.0445(7) 0.3851(9)
H14_8 H 0.6221 0.0816 0.4266
N2_8 N 0.3658(5) 0.0283(5) 0.7370(6)
C2_7 C 0.2912(7) 0.1371(6) 0.9922(8)
C3_7 C 0.2509(7) 0.1067(6) 0.9202(9)
H1_8 H 0.2063 0.1098 0.9288
C4_7 C 0.2754(7) 0.0725(6) 0.8368(9)
H2_8 H 0.2473 0.0515 0.7902
C5_7 C 0.3394(7) 0.0684(6) 0.8208(8)
C6_7 C 0.3838(7) 0.0990(7) 0.8942(9)
H3_7 H 0.4284 0.0965 0.8844
C7_7 C 0.3576(8) 0.1320(6) 0.9792(9)
C8_8 C 0.4189(6) 0.0443(6) 0.6768(9)
H5_8 H 0.4448 0.0805 0.6887
Cu1_11 Cu 0.5000 1.0000 0.5000
O2_8 O 0.4489(4) 0.9440(5) 0.4015(5)
C1_8 C 0.4237(6) 0.9872(10) 0.3372(9)
C2_8 C 0.3871(6) 0.9588(7) 0.2422(8)
C3_8 C 0.3567(6) 0.9991(7) 0.1702(9)
C4_8 C 0.3225(6) 0.9746(7) 0.0868(9)
C5_8 C 0.3184(6) 0.9106(7) 0.0708(8)
C6_8 C 0.3490(7) 0.8662(7) 0.1442(9)
H3_8 H 0.3465 0.8216 0.1344
C7_8 C 0.3820(6) 0.8924(8) 0.2292(9)
H4_8 H 0.4014 0.8650 0.2789
O3_8 O 0.5708(5) 0.9518(6) 0.6562(7)
N5_6 N 0.5716(5) 0.9976(5) 0.3990(7)
H8_7 H 0.6402 0.9563 0.8212
H9_7 H 0.6985 0.9973 0.9598
N6_8 N 0.6342(5) 0.9717(5) 0.2630(6)
C12_8 C 0.7088(7) 0.8629(6) 0.0078(8)
C13_8 C 0.7491(7) 0.8933(6) 0.0798(9)
H8_8 H 0.7937 0.8902 0.0712
C14_8 C 0.7246(7) 0.9275(6) 0.1632(9)
H9_8 H 0.7527 0.9485 0.2098
C15_8 C 0.6606(7) 0.9316(6) 0.1792(8)
C16_8 C 0.6162(7) 0.9010(7) 0.1058(9)
H10_8 H 0.5716 0.9035 0.1156
C17_8 C 0.6424(8) 0.8680(6) 0.0208(9)
C18_8 C 0.5811(6) 0.9557(6) 0.3232(9)
H12_8 H 0.5552 0.9195 0.3113
C9_8 C 0.3430(6) 0.9719(6) 0.7001(9)
H6_8 H 0.3079 0.9485 0.7265
C10_8 C 0.3822(7) 0.9555(7) 0.6149(9)
H7_8 H 0.3779 0.9184 0.5734
loop_
_geom_bond_atom_site_label_1
_geom_bond_atom_site_label_2
_geom_bond_site_symmetry_1
_geom_bond_site_symmetry_2
H6 C9 1_555 1_555
H7 C10 1_555 1_555
C9 C10 1_555 1_555
Cu1_2 O2 1_555 1_555
O2 C1 1_555 1_555
N1 C8 1_555 1_555
N2 C5 1_555 1_555
C1 C2 1_555 1_555
C2 C3 1_555 1_555
C4 C3 1_555 1_555
C5 C4 1_555 1_555
C6 C5 1_555 1_555
H3 C6 1_555 1_555
C7 C2 1_555 1_555
H4 C7 1_555 1_555
C8 N2 1_555 1_555
H5 C8 1_555 1_555
C9_2 N2 1_555 1_555
H6_2 C9_2 1_555 1_555
C10_2 N1 1_555 1_555
H7_2 C10_2 1_555 1_555
Cu2 N1 1_555 1_555
C6 C7 1_555 1_555
C9_2 C10_2 1_555 1_555
Cu2 N4 1_555 1_555
N4 C18 1_555 1_555
C18 N6 1_555 1_555
H12 C18 1_555 1_555
C19 N6 1_555 1_555
H13 C19 1_555 1_555
C20 N4 1_555 1_555
H14 C20 1_555 1_555
C19 C20 1_555 1_555
N5 Cu2_2 1_555 1_555
Cu2 O2_2 1_555 1_555
O1 C1_2 1_555 1_555
O2_2 C1_2 1_555 1_555
O3 C11 1_555 1_555
O4 Cu2 1_555 1_555
N5 C18_2 1_555 1_555
N6_2 C15 1_555 1_555
C11 O4 1_555 1_555
C12 C11 1_555 1_555
C13 C12 1_555 1_555
H8 C13 1_555 1_555
C14 C13 1_555 1_555
H9 C14 1_555 1_555
C15 C14 1_555 1_555
C16 C15 1_555 1_555
H10 C16 1_555 1_555
C17 C12 1_555 1_555
H11 C17 1_555 1_555
C18_2 N6_2 1_555 1_555
H12_2 C18_2 1_555 1_555
C19_2 N6_2 1_555 1_555
H13_2 C19_2 1_555 1_555
C20_2 N5 1_555 1_555
H14_2 C20_2 1_555 1_555
C16 C17 1_555 1_555
C19_2 C20_2 1_555 1_555
N3 Cu1_3 1_555 1_555
N1_2 C8_2 1_555 1_555
C8_2 N2_2 1_555 1_555
H5_2 C8_2 1_555 1_555
C9_3 N2_2 1_555 1_555
H6_3 C9_3 1_555 1_555
C10_3 N1_2 1_555 1_555
H7_3 C10_3 1_555 1_555
Cu2_3 N1_2 1_555 1_555
C9_3 C10_3 1_555 1_555
Cu2_3 O2_3 1_555 1_555
O1_2 C1_3 1_555 1_555
O2_3 C1_3 1_555 1_555
N3 C8_3 1_555 1_555
N2_3 C5_2 1_555 1_555
C1_3 C2_2 1_555 1_555
C2_2 C3_2 1_555 1_555
C3_2 H1 1_555 1_555
C4_2 C3_2 1_555 1_555
H2 C4_2 1_555 1_555
C5_2 C4_2 1_555 1_555
C6_2 C5_2 1_555 1_555
H3_2 C6_2 1_555 1_555
C7_2 C2_2 1_555 1_555
H4_3 C7_2 1_555 1_555
C8_3 N2_3 1_555 1_555
H5_3 C8_3 1_555 1_555
O3_2 C11_2 1_555 1_555
O4_2 Cu2_3 1_555 1_555
N5_2 Cu2_3 1_555 1_555
C11_2 O4_2 1_555 1_555
C6_2 C7_2 1_555 1_555
O3_3 C11_3 1_555 1_555
O4_3 Cu2_4 1_555 1_555
N5_2 C18_3 1_555 1_555
N6_3 C15_2 1_555 1_555
C11_3 O4_3 1_555 1_555
C12_2 C11_3 1_555 1_555
C13_2 C12_2 1_555 1_555
H8_2 C13_2 1_555 1_555
C14_2 C13_2 1_555 1_555
H9_2 C14_2 1_555 1_555
C15_2 C14_2 1_555 1_555
C16_2 C15_2 1_555 1_555
H10_2 C16_2 1_555 1_555
C17_2 C12_2 1_555 1_555
H11_3 C17_2 1_555 1_555
C18_3 N6_3 1_555 1_555
H12_3 C18_3 1_555 1_555
C19_3 N6_3 1_555 1_555
H13_3 C19_3 1_555 1_555
C20_3 N5_2 1_555 1_555
H14_3 C20_3 1_555 1_555
C16_2 C17_2 1_555 1_555
C19_3 C20_3 1_555 1_555
N5_3 Cu1_6 1_555 1_555
Cu1_7 O2_4 1_555 1_555
O1_4 C1_4 1_555 1_555
O2_4 C1_4 1_555 1_555
O3_5 C11_4 1_555 1_555
O4_4 Cu1_7 1_555 1_555
N3_2 Cu1_7 1_555 1_555
N5_3 C18_4 1_555 1_555
N5_4 Cu1_7 1_555 1_555
N6_4 C15_3 1_555 1_555
C11_4 O4_4 1_555 1_555
C12_3 C11_4 1_555 1_555
C13_3 C12_3 1_555 1_555
H8_4 C13_3 1_555 1_555
C14_3 C13_3 1_555 1_555
H9_4 C14_3 1_555 1_555
C15_3 C14_3 1_555 1_555
C16_3 C15_3 1_555 1_555
H10_3 C16_3 1_555 1_555
C17_3 C12_3 1_555 1_555
H11_4 C17_3 1_555 1_555
C18_4 N6_4 1_555 1_555
H12_4 C18_4 1_555 1_555
C16_3 C17_3 1_555 1_555
N5_4 C18_5 1_555 1_555
C18_5 N6_5 1_555 1_555
H12_5 C18_5 1_555 1_555
C19_4 N6_5 1_555 1_555
H13_4 C19_4 1_555 1_555
C20_4 N5_4 1_555 1_555
H14_4 C20_4 1_555 1_555
C19_4 C20_4 1_555 1_555
Cu2_5 O2_5 1_555 1_555
O1_5 C1_5 1_555 1_555
O2_5 C1_5 1_555 1_555
N3_2 C8_4 1_555 1_555
N2_4 C5_3 1_555 1_555
C1_5 C2_3 1_555 1_555
C2_3 C3_3 1_555 1_555
C3_3 H1_3 1_555 1_555
C4_3 C3_3 1_555 1_555
H2_3 C4_3 1_555 1_555
C5_3 C4_3 1_555 1_555
C6_3 C5_3 1_555 1_555
H3_3 C6_3 1_555 1_555
C7_3 C2_3 1_555 1_555
H4_5 C7_3 1_555 1_555
C8_4 N2_4 1_555 1_555
H5_4 C8_4 1_555 1_555
C9_4 N2_4 1_555 1_555
H6_4 C9_4 1_555 1_555
C10_4 N3_2 1_555 1_555
H7_4 C10_4 1_555 1_555
C6_3 C7_3 1_555 1_555
C9_4 C10_4 1_555 1_555
Cu3 N4_2 1_555 1_555
O4_5 Cu1_8 1_555 1_555
N4_2 C18_6 1_555 1_555
N6_6 C15_4 1_555 1_555
C11_5 O4_5 1_555 1_555
C12_4 C11_5 1_555 1_555
C13_4 C12_4 1_555 1_555
C14_4 C13_4 1_555 1_555
C15_4 C14_4 1_555 1_555
C16_4 C15_4 1_555 1_555
H10_4 C16_4 1_555 1_555
C17_4 C12_4 1_555 1_555
H11_5 C17_4 1_555 1_555
C18_6 N6_6 1_555 1_555
H12_6 C18_6 1_555 1_555
C19_5 N6_6 1_555 1_555
H13_5 C19_5 1_555 1_555
C20_5 N4_2 1_555 1_555
H14_5 C20_5 1_555 1_555
C16_4 C17_4 1_555 1_555
C19_5 C20_5 1_555 1_555
Cu3 O2_6 1_555 1_555
O1_6 C1_6 1_555 1_555
O2_6 C1_6 1_555 1_555
N1_3 C8_5 1_555 1_555
N2_5 C5_4 1_555 1_555
C1_6 C2_4 1_555 1_555
C2_4 C3_4 1_555 1_555
C3_4 H1_4 1_555 1_555
C4_4 C3_4 1_555 1_555
H2_4 C4_4 1_555 1_555
C5_4 C4_4 1_555 1_555
C6_4 C5_4 1_555 1_555
H3_4 C6_4 1_555 1_555
C7_4 C2_4 1_555 1_555
H4_6 C7_4 1_555 1_555
C8_5 N2_5 1_555 1_555
H5_5 C8_5 1_555 1_555
C9_5 N2_5 1_555 1_555
H6_5 C9_5 1_555 1_555
C10_5 N1_3 1_555 1_555
H7_5 C10_5 1_555 1_555
Cu2_6 N1_3 1_555 1_555
O3_6 C11_6 1_555 1_555
O4_6 Cu3 1_555 1_555
N3_3 Cu3 1_555 1_555
C11_6 O4_6 1_555 1_555
C6_4 C7_4 1_555 1_555
C9_5 C10_5 1_555 1_555
N3_3 C8_6 1_555 1_555
C8_6 N2_6 1_555 1_555
H5_6 C8_6 1_555 1_555
C9_6 N2_6 1_555 1_555
H6_6 C9_6 1_555 1_555
C10_6 N3_3 1_555 1_555
H7_6 C10_6 1_555 1_555
C9_6 C10_6 1_555 1_555
H13_6 C19_6 1_555 1_555
H14_6 C20_6 1_555 1_555
C19_6 C20_6 1_555 1_555
N1_4 C8_7 1_555 1_555
N2_7 C5_5 1_555 1_555
C2_5 C3_5 1_555 1_555
C3_5 H1_5 1_555 1_555
C4_5 C3_5 1_555 1_555
H2_5 C4_5 1_555 1_555
C5_5 C4_5 1_555 1_555
C6_5 C5_5 1_555 1_555
H3_5 C6_5 1_555 1_555
C7_5 C2_5 1_555 1_555
C8_7 N2_7 1_555 1_555
H5_7 C8_7 1_555 1_555
C9_7 N2_7 1_555 1_555
H6_7 C9_7 1_555 1_555
C10_7 N1_4 1_555 1_555
H7_7 C10_7 1_555 1_555
Cu2_7 N1_4 1_555 1_555
C6_5 C7_5 1_555 1_555
C9_7 C10_7 1_555 1_555
Cu2_7 O2_7 1_555 1_555
O1_7 C1_7 1_555 1_555
O2_7 C1_7 1_555 1_555
C1_7 C2_6 1_555 1_555
C2_6 C3_6 1_555 1_555
C3_6 H1_6 1_555 1_555
C4_6 C3_6 1_555 1_555
H2_6 C4_6 1_555 1_555
C5_6 C4_6 1_555 1_555
C6_6 C5_6 1_555 1_555
H3_6 C6_6 1_555 1_555
C7_6 C2_6 1_555 1_555
H4_7 C7_6 1_555 1_555
O3_7 C11_7 1_555 1_555
O4_7 Cu2_7 1_555 1_555
N5_5 Cu2_7 1_555 1_555
C11_7 O4_7 1_555 1_555
C12_5 C11_7 1_555 1_555
C13_5 C12_5 1_555 1_555
H8_5 C13_5 1_555 1_555
C14_5 C13_5 1_555 1_555
H9_5 C14_5 1_555 1_555
C15_5 C14_5 1_555 1_555
C16_5 C15_5 1_555 1_555
H10_5 C16_5 1_555 1_555
C17_5 C12_5 1_555 1_555
H11_7 C17_5 1_555 1_555
C6_6 C7_6 1_555 1_555
C16_5 C17_5 1_555 1_555
N5_5 C18_7 1_555 1_555
N6_7 C15_6 1_555 1_555
C13_6 C12_6 1_555 1_555
H8_6 C13_6 1_555 1_555
C14_6 C13_6 1_555 1_555
H9_6 C14_6 1_555 1_555
C15_6 C14_6 1_555 1_555
C16_6 C15_6 1_555 1_555
H10_6 C16_6 1_555 1_555
C17_6 C12_6 1_555 1_555
C18_7 N6_7 1_555 1_555
H12_7 C18_7 1_555 1_555
C19_7 N6_7 1_555 1_555
H13_7 C19_7 1_555 1_555
C20_7 N5_5 1_555 1_555
H14_7 C20_7 1_555 1_555
C16_6 C17_6 1_555 1_555
C19_7 C20_7 1_555 1_555
O4_8 Cu1_10 1_555 1_555
N3_4 Cu1_10 1_555 1_555
C11_8 O4_8 1_555 1_555
C12_7 C11_8 1_555 1_555
C13_7 C12_7 1_555 1_555
C14_7 C13_7 1_555 1_555
C15_7 C14_7 1_555 1_555
C16_7 C15_7 1_555 1_555
H10_7 C16_7 1_555 1_555
C17_7 C12_7 1_555 1_555
H11_8 C17_7 1_555 1_555
C16_7 C17_7 1_555 1_555
H13_8 C19_8 1_555 1_555
H14_8 C20_8 1_555 1_555
C19_8 C20_8 1_555 1_555
N3_4 C8_8 1_555 1_555
N2_8 C5_7 1_555 1_555
C2_7 C3_7 1_555 1_555
C3_7 H1_8 1_555 1_555
C4_7 C3_7 1_555 1_555
H2_8 C4_7 1_555 1_555
C5_7 C4_7 1_555 1_555
C6_7 C5_7 1_555 1_555
H3_7 C6_7 1_555 1_555
C7_7 C2_7 1_555 1_555
C8_8 N2_8 1_555 1_555
H5_8 C8_8 1_555 1_555
C6_7 C7_7 1_555 1_555
Cu1_11 O2_8 1_555 1_555
O2_8 C1_8 1_555 1_555
C1_8 C2_8 1_555 1_555
C2_8 C3_8 1_555 1_555
C4_8 C3_8 1_555 1_555
C5_8 C4_8 1_555 1_555
C6_8 C5_8 1_555 1_555
H3_8 C6_8 1_555 1_555
C7_8 C2_8 1_555 1_555
H4_8 C7_8 1_555 1_555
N5_6 Cu1_11 1_555 1_555
C6_8 C7_8 1_555 1_555
N5_6 C18_8 1_555 1_555
N6_8 C15_8 1_555 1_555
C13_8 C12_8 1_555 1_555
H8_8 C13_8 1_555 1_555
C14_8 C13_8 1_555 1_555
H9_8 C14_8 1_555 1_555
C15_8 C14_8 1_555 1_555
C16_8 C15_8 1_555 1_555
H10_8 C16_8 1_555 1_555
C17_8 C12_8 1_555 1_555
C18_8 N6_8 1_555 1_555
H12_8 C18_8 1_555 1_555
C16_8 C17_8 1_555 1_555
H6_8 C9_8 1_555 1_555
H7_8 C10_8 1_555 1_555
C9_8 C10_8 1_555 1_555

#END
