
###############################################################################
#
# This file contains modified crystal structure data generated from the
# MOF subset of the Cambridge Structural Database (CSD) v543 
# hosted by the Cambridge Crystallographic Data Centre (CCDC).
#
# This work is licensed under the Creative Commons
# Attribution-NonCommercial-ShareAlike 4.0 International License.
# To view a copy of this license, visit
# http://creativecommons.org/licenses/by-nc-sa/4.0/
# or send a letter to
# Creative Commons, PO Box 1866, Mountain View, CA 94042, USA.
#
# CIF created using the CSD Python API on 29 September 2022
# The structure has been converted into the P1 space group
# The structure has a 3D framework
# The original CSD entry SUHMIS is in the rhombohedral crystal system
# The framework has been calculated to contain at least 10.0% void space
# The void calculation uses a probe of radius 1.32A, grid spacing 0.4
#
###############################################################################

data_SUHMIS
_chemical_formula_moiety         '(C108 H180 Cu18 N54)n'
_symmetry_cell_setting           triclinic
_symmetry_space_group_name_H-M   'P 1'
_symmetry_Int_Tables_number      1
_space_group_name_Hall           'P 1'
loop_
_symmetry_equiv_pos_site_id
_symmetry_equiv_pos_as_xyz
1 x,y,z
_cell_length_a                   19.6808(16)
_cell_length_b                   19.6808(16)
_cell_length_c                   14.2153(12)
_cell_angle_alpha                90
_cell_angle_beta                 90
_cell_angle_gamma                120
_cell_volume                     4768.39
loop_
_atom_site_label
_atom_site_type_symbol
_atom_site_fract_x
_atom_site_fract_y
_atom_site_fract_z
Cu1 Cu 0.41511(2) 0.45181(2) 0.56181(3)
N1 N 0.50555(16) 0.54746(16) 0.6124(2)
N2 N 0.57446(16) 0.58559(16) 0.5614(2)
N3 N 0.58863(16) 0.65537(15) 0.68949(19)
C1 C 0.5169(2) 0.5912(2) 0.6886(2)
C2 C 0.4580(2) 0.5705(2) 0.7655(3)
H1 H 0.4098 0.5213 0.7479
H2 H 0.4791 0.5598 0.8233
C3 C 0.4365(4) 0.6297(4) 0.7870(5)
H3 H 0.3996 0.6119 0.8400
H4 H 0.4116 0.6380 0.7319
H5 H 0.4836 0.6791 0.8038
C4 C 0.62216(19) 0.64947(18) 0.6097(2)
C5 C 0.7031(2) 0.7082(2) 0.5798(3)
H6 H 0.7072 0.7602 0.5742
H7 H 0.7135 0.6935 0.5170
C6 C 0.7644(3) 0.7138(4) 0.6479(4)
H8 H 0.8166 0.7532 0.6256
H9 H 0.7615 0.6628 0.6525
H10 H 0.7549 0.7291 0.7100
Cu2 Cu 0.58489(2) 0.54819(2) 0.43819(3)
Cu3 Cu 0.62997(3) 0.74844(2) 0.77152(3)
N4 N 0.42554(16) 0.41441(16) 0.4386(2)
N5 N 0.32204(15) 0.40007(22) 0.64384(19)
H7_2 H 0.3065 0.0200 0.5170
C6_2 C 0.2862(4) 0.0506(5) 0.6479(4)
H8_2 H 0.2468 0.0634 0.6256
H9_2 H 0.3372 0.0987 0.6525
H10_2 H 0.2709 0.0258 0.7100
Cu2_2 Cu 0.45181(2) 0.03670(3) 0.43819(3)
N4_2 N 0.58559(16) 0.01113(23) 0.4386(2)
Cu1_2 Cu 0.54819(2) 0.96330(3) 0.56181(3)
N1_2 N 0.45254(16) 0.95809(23) 0.6124(2)
N2_2 N 0.41441(16) 0.98887(23) 0.5614(2)
N3_2 N 0.34463(15) 0.93326(22) 0.68949(19)
C1_2 C 0.4088(2) 0.9257(3) 0.6886(2)
C2_2 C 0.4295(2) 0.8875(3) 0.7655(3)
H1_2 H 0.4787 0.8885 0.7479
H2_2 H 0.4402 0.9193 0.8233
C3_2 C 0.3703(4) 0.8068(6) 0.7870(5)
H3_2 H 0.3881 0.7877 0.8400
H4_2 H 0.3620 0.7736 0.7319
H5_2 H 0.3209 0.8045 0.8038
C4_2 C 0.35053(18) 0.97269(26) 0.6097(2)
C5_2 C 0.2918(2) 0.9949(3) 0.5798(3)
H6_2 H 0.2398 0.9470 0.5742
Cu3_2 Cu 0.25156(2) 0.88152(4) 0.77152(3)
N5_2 N 0.59993(22) 0.92196(27) 0.64384(19)
Cu1_3 Cu 0.03670(3) 0.58489(2) 0.56181(3)
N1_3 N 0.04191(23) 0.49445(16) 0.6124(2)
N2_3 N 0.01113(23) 0.42554(16) 0.5614(2)
N3_3 N 0.06674(22) 0.41137(16) 0.68949(19)
C1_3 C 0.0743(3) 0.4831(2) 0.6886(2)
C2_3 C 0.1125(3) 0.5420(2) 0.7655(3)
H1_3 H 0.1115 0.5902 0.7479
H2_3 H 0.0807 0.5209 0.8233
C3_3 C 0.1932(6) 0.5635(4) 0.7870(5)
H3_3 H 0.2123 0.6004 0.8400
H4_3 H 0.2264 0.5884 0.7319
H5_3 H 0.1955 0.5164 0.8038
C4_3 C 0.02731(26) 0.37784(19) 0.6097(2)
C5_3 C 0.0051(3) 0.2969(2) 0.5798(3)
H6_3 H 0.0530 0.2928 0.5742
Cu3_3 Cu 0.11848(4) 0.37003(3) 0.77152(3)
N5_3 N 0.07804(27) 0.67796(15) 0.64384(19)
H7_3 H 0.9800 0.2865 0.5170
C6_3 C 0.9494(5) 0.2356(3) 0.6479(4)
H8_3 H 0.9366 0.1834 0.6256
H9_3 H 0.9013 0.2385 0.6525
H10_3 H 0.9742 0.2451 0.7100
Cu2_3 Cu 0.96330(3) 0.41511(2) 0.43819(3)
N4_3 N 0.98887(23) 0.57446(16) 0.4386(2)
H5_4 H 0.1503 0.0124 0.1371
H10_4 H 0.4216 0.0624 0.0433
Cu3_4 Cu 0.29663(3) 0.08178(2) 0.10486(3)
Cu1_4 Cu 0.08178(2) 0.78514(2) 0.89514(3)
N1_4 N 0.17222(16) 0.88079(16) 0.9457(2)
N2_4 N 0.24113(16) 0.91892(16) 0.8947(2)
C4_4 C 0.28883(19) 0.98280(18) 0.9430(2)
H9_4 H 0.4282 0.9961 0.9858
N4_4 N 0.09221(16) 0.74774(16) 0.7719(2)
Cu1_5 Cu 0.21486(2) 0.29663(3) 0.89514(3)
N1_5 N 0.11921(16) 0.29142(23) 0.9457(2)
N2_5 N 0.08108(16) 0.32220(23) 0.8947(2)
C4_5 C 0.01720(18) 0.30602(26) 0.9430(2)
H9_5 H 0.0039 0.4320 0.9858
N4_5 N 0.25226(16) 0.34446(23) 0.7719(2)
N5_4 N 0.26659(22) 0.25530(27) 0.97718(19)
H5_5 H 0.9876 0.1378 0.1371
H10_5 H 0.9376 0.3591 0.0433
Cu3_5 Cu 0.91822(2) 0.21486(4) 0.10486(3)
N3_4 N 0.73341(22) 0.74470(16) 0.02282(19)
C1_4 C 0.7410(3) 0.8164(2) 0.0219(2)
C2_4 C 0.7792(3) 0.8753(2) 0.0988(3)
H1_4 H 0.7782 0.9235 0.0812
H2_4 H 0.7474 0.8542 0.1566
C3_4 C 0.8599(6) 0.8968(4) 0.1203(5)
H3_4 H 0.8790 0.9337 0.1733
H4_4 H 0.8931 0.9217 0.0652
H5_6 H 0.8622 0.8497 0.1371
H10_6 H 0.6409 0.5784 0.0433
Cu3_6 Cu 0.78514(4) 0.70337(3) 0.10486(3)
Cu1_6 Cu 0.70337(3) 0.91822(2) 0.89514(3)
N1_6 N 0.70858(23) 0.82778(16) 0.9457(2)
N2_6 N 0.67780(23) 0.75887(16) 0.8947(2)
C4_6 C 0.69398(26) 0.71117(19) 0.9430(2)
C5_4 C 0.6718(3) 0.6302(2) 0.9131(3)
H6_4 H 0.7197 0.6261 0.9075
H7_4 H 0.6467 0.6198 0.8503
C6_4 C 0.6161(5) 0.5689(3) 0.9812(4)
H8_4 H 0.6033 0.5167 0.9589
H9_6 H 0.5680 0.5718 0.9858
N4_6 N 0.65554(23) 0.90779(16) 0.7719(2)
Cu1_7 Cu 0.74844(2) 0.11848(2) 0.22848(3)
N1_7 N 0.83888(16) 0.21413(16) 0.2791(2)
N2_7 N 0.90779(16) 0.25226(16) 0.2281(2)
N3_5 N 0.92196(16) 0.32204(15) 0.35616(19)
C1_5 C 0.8502(2) 0.2579(2) 0.3553(2)
C2_5 C 0.7913(2) 0.2372(2) 0.4322(3)
H1_5 H 0.7431 0.1880 0.4146
H2_5 H 0.8124 0.2265 0.4900
C3_5 C 0.7698(4) 0.2964(4) 0.4537(5)
H3_5 H 0.7329 0.2786 0.5067
H4_5 H 0.7449 0.3047 0.3986
H5_7 H 0.8169 0.3458 0.4705
C4_7 C 0.95549(19) 0.31614(18) 0.2764(2)
N4_7 N 0.75887(16) 0.08108(16) 0.1053(2)
N5_5 N 0.65537(15) 0.06674(22) 0.31051(19)
Cu1_8 Cu 0.88152(2) 0.62997(3) 0.22848(3)
N1_8 N 0.78587(16) 0.62476(23) 0.2791(2)
N2_8 N 0.74774(16) 0.65554(23) 0.2281(2)
N3_6 N 0.67796(15) 0.59993(22) 0.35616(19)
C1_6 C 0.7421(2) 0.5924(3) 0.3553(2)
C2_6 C 0.7628(2) 0.5542(3) 0.4322(3)
H1_6 H 0.8120 0.5552 0.4146
H2_6 H 0.7735 0.5860 0.4900
C3_6 C 0.7036(4) 0.4735(6) 0.4537(5)
H3_6 H 0.7214 0.4544 0.5067
H4_6 H 0.6953 0.4403 0.3986
H5_8 H 0.6542 0.4712 0.4705
C4_8 C 0.68386(18) 0.63936(26) 0.2764(2)
C5_5 C 0.6251(2) 0.6616(3) 0.2465(3)
H6_5 H 0.5731 0.6137 0.2409
H7_5 H 0.6398 0.6867 0.1837
C6_5 C 0.6195(4) 0.7173(5) 0.3146(4)
H8_5 H 0.5801 0.7301 0.2923
H9_7 H 0.6705 0.7654 0.3192
H10_7 H 0.6042 0.6925 0.3767
N4_8 N 0.91892(16) 0.67780(23) 0.1053(2)
N5_6 N 0.93326(22) 0.58863(27) 0.31051(19)
Cu1_9 Cu 0.37003(3) 0.25156(2) 0.22848(3)
N1_9 N 0.37524(23) 0.16112(16) 0.2791(2)
N2_9 N 0.34446(23) 0.09221(16) 0.2281(2)
N3_7 N 0.40007(22) 0.07804(16) 0.35616(19)
C1_7 C 0.4076(3) 0.1498(2) 0.3553(2)
C2_7 C 0.4458(3) 0.2087(2) 0.4322(3)
H1_7 H 0.4448 0.2569 0.4146
H2_7 H 0.4140 0.1876 0.4900
C3_7 C 0.5265(6) 0.2302(4) 0.4537(5)
H3_7 H 0.5456 0.2671 0.5067
H4_7 H 0.5597 0.2551 0.3986
H5_9 H 0.5288 0.1831 0.4705
C4_9 C 0.36064(26) 0.04451(19) 0.2764(2)
N4_9 N 0.32220(23) 0.24113(16) 0.1053(2)
N5_7 N 0.41137(27) 0.34463(15) 0.31051(19)
N1_10 N 0.49445(16) 0.45254(16) 0.3876(2)
C1_8 C 0.4831(2) 0.4088(2) 0.3114(2)
C2_8 C 0.5420(2) 0.4295(2) 0.2345(3)
H1_8 H 0.5902 0.4787 0.2521
H2_8 H 0.5209 0.4402 0.1767
C3_8 C 0.5635(4) 0.3703(4) 0.2130(5)
H3_8 H 0.6004 0.3881 0.1600
H4_8 H 0.5884 0.3620 0.2681
H5_10 H 0.5164 0.3209 0.1962
C4_10 C 0.37784(19) 0.35053(18) 0.3903(2)
C5_6 C 0.2969(2) 0.2918(2) 0.4202(3)
H6_6 H 0.2928 0.2398 0.4258
H7_6 H 0.2865 0.3065 0.4830
C6_6 C 0.2356(3) 0.2862(4) 0.3521(4)
H8_6 H 0.1834 0.2468 0.3744
H9_8 H 0.2385 0.3372 0.3475
H10_8 H 0.2451 0.2709 0.2900
N1_11 N 0.54746(16) 0.04191(23) 0.3876(2)
C1_9 C 0.5912(2) 0.0743(3) 0.3114(2)
C2_9 C 0.5705(2) 0.1125(3) 0.2345(3)
H1_9 H 0.5213 0.1115 0.2521
H2_9 H 0.5598 0.0807 0.1767
C3_9 C 0.6297(4) 0.1932(6) 0.2130(5)
H3_9 H 0.6119 0.2123 0.1600
H4_9 H 0.6380 0.2264 0.2681
H5_11 H 0.6791 0.1955 0.1962
C4_11 C 0.64947(18) 0.02731(26) 0.3903(2)
C5_7 C 0.7082(2) 0.0051(3) 0.4202(3)
H6_7 H 0.7602 0.0530 0.4258
H7_7 H 0.6935 0.9800 0.4830
C6_7 C 0.7138(4) 0.9494(5) 0.3521(4)
H8_7 H 0.7532 0.9366 0.3744
H9_9 H 0.6628 0.9013 0.3475
H10_9 H 0.7291 0.9742 0.2900
H7_8 H 0.0200 0.7135 0.4830
C6_8 C 0.0506(5) 0.7644(3) 0.3521(4)
H8_8 H 0.0634 0.8166 0.3744
H9_10 H 0.0987 0.7615 0.3475
H10_10 H 0.0258 0.7549 0.2900
N1_12 N 0.95809(23) 0.50555(16) 0.3876(2)
C1_10 C 0.9257(3) 0.5169(2) 0.3114(2)
C2_10 C 0.8875(3) 0.4580(2) 0.2345(3)
H1_10 H 0.8885 0.4098 0.2521
H2_10 H 0.9193 0.4791 0.1767
C3_10 C 0.8068(6) 0.4365(4) 0.2130(5)
H3_10 H 0.7877 0.3996 0.1600
H4_10 H 0.7736 0.4116 0.2681
H5_12 H 0.8045 0.4836 0.1962
C4_12 C 0.97269(26) 0.62216(19) 0.3903(2)
C5_8 C 0.9949(3) 0.7031(2) 0.4202(3)
H6_8 H 0.9470 0.7072 0.4258
N1_13 N 0.82778(16) 0.11921(16) 0.0543(2)
C4_13 C 0.71117(19) 0.01720(18) 0.0570(2)
H9_11 H 0.5718 0.0039 0.0142
H5_13 H 0.8497 0.9876 0.8629
H10_11 H 0.5784 0.9376 0.9567
H5_14 H 0.0124 0.8622 0.8629
H10_12 H 0.0624 0.6409 0.9567
N1_14 N 0.88079(16) 0.70858(23) 0.0543(2)
C4_14 C 0.98280(18) 0.69398(26) 0.0570(2)
H9_12 H 0.9961 0.5680 0.0142
N1_15 N 0.29142(23) 0.17222(16) 0.0543(2)
C4_15 C 0.30602(26) 0.28883(19) 0.0570(2)
C5_9 C 0.3282(3) 0.3698(2) 0.0869(3)
H6_9 H 0.2803 0.3739 0.0925
H7_9 H 0.3533 0.3802 0.1497
C6_9 C 0.3839(5) 0.4311(3) 0.0188(4)
H8_9 H 0.3967 0.4833 0.0411
H9_13 H 0.4320 0.4282 0.0142
C1_11 C 0.2590(3) 0.1836(2) 0.9781(2)
C2_11 C 0.2208(3) 0.1247(2) 0.9012(3)
H1_11 H 0.2218 0.0765 0.9188
H2_11 H 0.2526 0.1458 0.8434
C3_11 C 0.1401(6) 0.1032(4) 0.8797(5)
H3_11 H 0.1210 0.0663 0.8267
H4_11 H 0.1069 0.0783 0.9348
H5_15 H 0.1378 0.1503 0.8629
H10_13 H 0.3591 0.4216 0.9567
N1_16 N 0.16112(16) 0.78587(16) 0.7209(2)
C1_12 C 0.1498(2) 0.7421(2) 0.6447(2)
C2_12 C 0.2087(2) 0.7628(2) 0.5678(3)
H1_12 H 0.2569 0.8120 0.5854
H2_12 H 0.1876 0.7735 0.5100
C3_12 C 0.2302(4) 0.7036(4) 0.5463(5)
H3_12 H 0.2671 0.7214 0.4933
H4_12 H 0.2551 0.6953 0.6014
H5_16 H 0.1831 0.6542 0.5295
C4_16 C 0.04451(19) 0.68386(18) 0.7236(2)
N1_17 N 0.21413(16) 0.37524(23) 0.7209(2)
C1_13 C 0.2579(2) 0.4076(3) 0.6447(2)
C2_13 C 0.2372(2) 0.4458(3) 0.5678(3)
H1_13 H 0.1880 0.4448 0.5854
H2_13 H 0.2265 0.4140 0.5100
C3_13 C 0.2964(4) 0.5265(6) 0.5463(5)
H3_13 H 0.2786 0.5456 0.4933
H4_13 H 0.3047 0.5597 0.6014
H5_17 H 0.3458 0.5288 0.5295
C4_17 C 0.31614(18) 0.36064(26) 0.7236(2)
C5_10 C 0.3749(2) 0.3384(3) 0.7535(3)
H6_10 H 0.4269 0.3863 0.7591
H7_10 H 0.3602 0.3133 0.8163
C6_10 C 0.3805(4) 0.2827(5) 0.6854(4)
H8_10 H 0.4199 0.2699 0.7077
H9_14 H 0.3295 0.2346 0.6808
H10_14 H 0.3958 0.3075 0.6233
N1_18 N 0.62476(23) 0.83888(16) 0.7209(2)
C1_14 C 0.5924(3) 0.8502(2) 0.6447(2)
C2_14 C 0.5542(3) 0.7913(2) 0.5678(3)
H1_14 H 0.5552 0.7431 0.5854
H2_14 H 0.5860 0.8124 0.5100
C3_14 C 0.4735(6) 0.7698(4) 0.5463(5)
H3_14 H 0.4544 0.7329 0.4933
H4_14 H 0.4403 0.7449 0.6014
H5_18 H 0.4712 0.8169 0.5295
C4_18 C 0.63936(26) 0.95549(19) 0.7236(2)
C5_11 C 0.3698(2) 0.0415(2) 0.9131(3)
H6_11 H 0.3739 0.0935 0.9075
H7_11 H 0.3802 0.0268 0.8503
C6_11 C 0.4311(3) 0.0471(4) 0.9812(4)
H8_11 H 0.4833 0.0865 0.9589
N3_8 N 0.25530(16) 0.98870(15) 0.02282(19)
C1_15 C 0.1836(2) 0.9245(2) 0.0219(2)
C2_15 C 0.1247(2) 0.9038(2) 0.0988(3)
H1_15 H 0.0765 0.8546 0.0812
H2_15 H 0.1458 0.8931 0.1566
C3_15 C 0.1032(4) 0.9630(4) 0.1203(5)
H3_15 H 0.0663 0.9452 0.1733
H4_15 H 0.0783 0.9713 0.0652
N5_8 N 0.98870(15) 0.73341(22) 0.97718(19)
C1_16 C 0.9245(2) 0.7410(3) 0.9781(2)
C2_16 C 0.9038(2) 0.7792(3) 0.9012(3)
H1_16 H 0.8546 0.7782 0.9188
H2_16 H 0.8931 0.7474 0.8434
C3_16 C 0.9630(4) 0.8599(6) 0.8797(5)
H3_16 H 0.9452 0.8790 0.8267
H4_16 H 0.9713 0.8931 0.9348
N3_9 N 0.01130(15) 0.26659(22) 0.02282(19)
C1_17 C 0.0755(2) 0.2590(3) 0.0219(2)
C2_17 C 0.0962(2) 0.2208(3) 0.0988(3)
H1_17 H 0.1454 0.2218 0.0812
H2_17 H 0.1069 0.2526 0.1566
C3_17 C 0.0370(4) 0.1401(6) 0.1203(5)
H3_17 H 0.0548 0.1210 0.1733
H4_17 H 0.0287 0.1069 0.0652
C5_12 C 0.9585(2) 0.3282(3) 0.9131(3)
H6_12 H 0.9065 0.2803 0.9075
H7_12 H 0.9732 0.3533 0.8503
C6_12 C 0.9529(4) 0.3839(5) 0.9812(4)
H8_12 H 0.9135 0.3967 0.9589
N5_9 N 0.74470(27) 0.01130(15) 0.97718(19)
C1_18 C 0.8164(2) 0.0755(2) 0.9781(2)
C2_18 C 0.8753(2) 0.0962(2) 0.9012(3)
H1_18 H 0.9235 0.1454 0.9188
H2_18 H 0.8542 0.1069 0.8434
C3_18 C 0.8968(4) 0.0370(4) 0.8797(5)
H3_18 H 0.9337 0.0548 0.8267
H4_18 H 0.9217 0.0287 0.9348
C5_13 C 0.0364(2) 0.3749(2) 0.2465(3)
H6_13 H 0.0405 0.4269 0.2409
H7_13 H 0.0468 0.3602 0.1837
C6_13 C 0.0977(3) 0.3805(4) 0.3146(4)
H8_13 H 0.1499 0.4199 0.2923
H9_15 H 0.0948 0.3295 0.3192
H10_15 H 0.0882 0.3958 0.3767
C5_14 C 0.3384(3) 0.9636(2) 0.2465(3)
H6_14 H 0.3863 0.9595 0.2409
H7_14 H 0.3133 0.9532 0.1837
C6_14 C 0.2827(5) 0.9023(3) 0.3146(4)
H8_14 H 0.2699 0.8501 0.2923
H9_16 H 0.2346 0.9052 0.3192
H10_16 H 0.3075 0.9118 0.3767
C5_15 C 0.6302(2) 0.9585(2) 0.0869(3)
H6_15 H 0.6261 0.9065 0.0925
H7_15 H 0.6198 0.9732 0.1497
C6_15 C 0.5689(3) 0.9529(4) 0.0188(4)
H8_15 H 0.5167 0.9135 0.0411
C5_16 C 0.0415(2) 0.6718(3) 0.0869(3)
H6_16 H 0.0935 0.7197 0.0925
H7_16 H 0.0268 0.6467 0.1497
C6_16 C 0.0471(4) 0.6161(5) 0.0188(4)
H8_16 H 0.0865 0.6033 0.0411
C5_17 C 0.9636(2) 0.6251(2) 0.7535(3)
H6_17 H 0.9595 0.5731 0.7591
H7_17 H 0.9532 0.6398 0.8163
C6_17 C 0.9023(3) 0.6195(4) 0.6854(4)
H8_17 H 0.8501 0.5801 0.7077
H9_17 H 0.9052 0.6705 0.6808
H10_17 H 0.9118 0.6042 0.6233
C5_18 C 0.6616(3) 0.0364(2) 0.7535(3)
H6_18 H 0.6137 0.0405 0.7591
H7_18 H 0.6867 0.0468 0.8163
C6_18 C 0.7173(5) 0.0977(3) 0.6854(4)
H8_18 H 0.7301 0.1499 0.7077
H9_18 H 0.7654 0.0948 0.6808
H10_18 H 0.6925 0.0882 0.6233
loop_
_geom_bond_atom_site_label_1
_geom_bond_atom_site_label_2
_geom_bond_site_symmetry_1
_geom_bond_site_symmetry_2
Cu1 N1 1_555 1_555
N1 N2 1_555 1_555
N2 C4 1_555 1_555
N3 C1 1_555 1_555
C1 N1 1_555 1_555
C2 C1 1_555 1_555
H1 C2 1_555 1_555
H2 C2 1_555 1_555
C3 C2 1_555 1_555
H3 C3 1_555 1_555
H4 C3 1_555 1_555
H5 C3 1_555 1_555
C4 N3 1_555 1_555
C5 C4 1_555 1_555
H6 C5 1_555 1_555
H7 C5 1_555 1_555
C6 C5 1_555 1_555
H8 C6 1_555 1_555
H9 C6 1_555 1_555
H10 C6 1_555 1_555
Cu2 N2 1_555 1_555
Cu3 N3 1_555 1_555
N4 Cu1 1_555 1_555
N5 Cu1 1_555 1_555
H8_2 C6_2 1_555 1_555
H9_2 C6_2 1_555 1_555
H10_2 C6_2 1_555 1_555
Cu1_2 N1_2 1_555 1_555
N1_2 N2_2 1_555 1_555
N2_2 C4_2 1_555 1_555
N3_2 C1_2 1_555 1_555
C1_2 N1_2 1_555 1_555
C2_2 C1_2 1_555 1_555
H1_2 C2_2 1_555 1_555
H2_2 C2_2 1_555 1_555
C3_2 C2_2 1_555 1_555
H3_2 C3_2 1_555 1_555
H4_2 C3_2 1_555 1_555
H5_2 C3_2 1_555 1_555
C4_2 N3_2 1_555 1_555
C5_2 C4_2 1_555 1_555
H6_2 C5_2 1_555 1_555
Cu3_2 N3_2 1_555 1_555
N5_2 Cu1_2 1_555 1_555
Cu1_3 N1_3 1_555 1_555
N1_3 N2_3 1_555 1_555
N2_3 C4_3 1_555 1_555
N3_3 C1_3 1_555 1_555
C1_3 N1_3 1_555 1_555
C2_3 C1_3 1_555 1_555
H1_3 C2_3 1_555 1_555
H2_3 C2_3 1_555 1_555
C3_3 C2_3 1_555 1_555
H3_3 C3_3 1_555 1_555
H4_3 C3_3 1_555 1_555
H5_3 C3_3 1_555 1_555
C4_3 N3_3 1_555 1_555
C5_3 C4_3 1_555 1_555
H6_3 C5_3 1_555 1_555
Cu3_3 N3_3 1_555 1_555
N5_3 Cu1_3 1_555 1_555
H8_3 C6_3 1_555 1_555
H9_3 C6_3 1_555 1_555
H10_3 C6_3 1_555 1_555
Cu1_4 N1_4 1_555 1_555
N1_4 N2_4 1_555 1_555
N2_4 C4_4 1_555 1_555
Cu3_2 N2_4 1_555 1_555
N4_4 Cu1_4 1_555 1_555
Cu1_5 N1_5 1_555 1_555
N1_5 N2_5 1_555 1_555
N2_5 C4_5 1_555 1_555
Cu3_3 N2_5 1_555 1_555
N4_5 Cu1_5 1_555 1_555
N5_4 Cu1_5 1_555 1_555
N3_4 C1_4 1_555 1_555
C2_4 C1_4 1_555 1_555
H1_4 C2_4 1_555 1_555
H2_4 C2_4 1_555 1_555
C3_4 C2_4 1_555 1_555
H3_4 C3_4 1_555 1_555
H4_4 C3_4 1_555 1_555
H5_6 C3_4 1_555 1_555
Cu3_6 N3_4 1_555 1_555
Cu1_6 N1_6 1_555 1_555
N1_6 N2_6 1_555 1_555
N2_6 C4_6 1_555 1_555
C5_4 C4_6 1_555 1_555
H6_4 C5_4 1_555 1_555
H7_4 C5_4 1_555 1_555
C6_4 C5_4 1_555 1_555
H8_4 C6_4 1_555 1_555
H9_6 C6_4 1_555 1_555
Cu3 N2_6 1_555 1_555
N4_6 Cu1_6 1_555 1_555
Cu1_7 N1_7 1_555 1_555
N1_7 N2_7 1_555 1_555
N2_7 C4_7 1_555 1_555
N3_5 C1_5 1_555 1_555
C1_5 N1_7 1_555 1_555
C2_5 C1_5 1_555 1_555
H1_5 C2_5 1_555 1_555
H2_5 C2_5 1_555 1_555
C3_5 C2_5 1_555 1_555
H3_5 C3_5 1_555 1_555
H4_5 C3_5 1_555 1_555
H5_7 C3_5 1_555 1_555
C4_7 N3_5 1_555 1_555
Cu3_5 N2_7 1_555 1_555
Cu2_3 N3_5 1_555 1_555
N4_7 Cu1_7 1_555 1_555
N5_5 Cu1_7 1_555 1_555
Cu1_8 N1_8 1_555 1_555
N1_8 N2_8 1_555 1_555
N2_8 C4_8 1_555 1_555
N3_6 C1_6 1_555 1_555
C1_6 N1_8 1_555 1_555
C2_6 C1_6 1_555 1_555
H1_6 C2_6 1_555 1_555
H2_6 C2_6 1_555 1_555
C3_6 C2_6 1_555 1_555
H3_6 C3_6 1_555 1_555
H4_6 C3_6 1_555 1_555
H5_8 C3_6 1_555 1_555
C4_8 N3_6 1_555 1_555
C5_5 C4_8 1_555 1_555
H6_5 C5_5 1_555 1_555
H7_5 C5_5 1_555 1_555
C6_5 C5_5 1_555 1_555
H8_5 C6_5 1_555 1_555
H9_7 C6_5 1_555 1_555
H10_7 C6_5 1_555 1_555
Cu3_6 N2_8 1_555 1_555
Cu2 N3_6 1_555 1_555
N4_8 Cu1_8 1_555 1_555
N5_6 Cu1_8 1_555 1_555
Cu1_9 N1_9 1_555 1_555
N1_9 N2_9 1_555 1_555
N2_9 C4_9 1_555 1_555
N3_7 C1_7 1_555 1_555
C1_7 N1_9 1_555 1_555
C2_7 C1_7 1_555 1_555
H1_7 C2_7 1_555 1_555
H2_7 C2_7 1_555 1_555
C3_7 C2_7 1_555 1_555
H3_7 C3_7 1_555 1_555
H4_7 C3_7 1_555 1_555
H5_9 C3_7 1_555 1_555
C4_9 N3_7 1_555 1_555
Cu3_4 N2_9 1_555 1_555
Cu2_2 N3_7 1_555 1_555
N4_9 Cu1_9 1_555 1_555
N5_7 Cu1_9 1_555 1_555
Cu2 N1_10 1_555 1_555
N1_10 N4 1_555 1_555
N4 C4_10 1_555 1_555
N5_7 C1_8 1_555 1_555
C1_8 N1_10 1_555 1_555
C2_8 C1_8 1_555 1_555
H1_8 C2_8 1_555 1_555
H2_8 C2_8 1_555 1_555
C3_8 C2_8 1_555 1_555
H3_8 C3_8 1_555 1_555
H4_8 C3_8 1_555 1_555
H5_10 C3_8 1_555 1_555
C4_10 N5_7 1_555 1_555
C5_6 C4_10 1_555 1_555
H6_6 C5_6 1_555 1_555
H7_6 C5_6 1_555 1_555
C6_6 C5_6 1_555 1_555
H8_6 C6_6 1_555 1_555
H9_8 C6_6 1_555 1_555
H10_8 C6_6 1_555 1_555
Cu2_2 N1_11 1_555 1_555
N1_11 N4_2 1_555 1_555
N4_2 C4_11 1_555 1_555
N5_5 C1_9 1_555 1_555
C1_9 N1_11 1_555 1_555
C2_9 C1_9 1_555 1_555
H1_9 C2_9 1_555 1_555
H2_9 C2_9 1_555 1_555
C3_9 C2_9 1_555 1_555
H3_9 C3_9 1_555 1_555
H4_9 C3_9 1_555 1_555
H5_11 C3_9 1_555 1_555
C4_11 N5_5 1_555 1_555
C5_7 C4_11 1_555 1_555
H6_7 C5_7 1_555 1_555
H8_7 C6_7 1_555 1_555
H9_9 C6_7 1_555 1_555
H10_9 C6_7 1_555 1_555
H8_8 C6_8 1_555 1_555
H9_10 C6_8 1_555 1_555
H10_10 C6_8 1_555 1_555
Cu2_3 N1_12 1_555 1_555
N1_12 N4_3 1_555 1_555
N4_3 C4_12 1_555 1_555
N5_6 C1_10 1_555 1_555
C1_10 N1_12 1_555 1_555
C2_10 C1_10 1_555 1_555
H1_10 C2_10 1_555 1_555
H2_10 C2_10 1_555 1_555
C3_10 C2_10 1_555 1_555
H3_10 C3_10 1_555 1_555
H4_10 C3_10 1_555 1_555
H5_12 C3_10 1_555 1_555
C4_12 N5_6 1_555 1_555
C5_8 C4_12 1_555 1_555
H6_8 C5_8 1_555 1_555
Cu3_5 N1_13 1_555 1_555
N1_13 N4_7 1_555 1_555
N4_7 C4_13 1_555 1_555
Cu3_6 N1_14 1_555 1_555
N1_14 N4_8 1_555 1_555
N4_8 C4_14 1_555 1_555
Cu3_4 N1_15 1_555 1_555
N1_15 N4_9 1_555 1_555
N4_9 C4_15 1_555 1_555
C5_9 C4_15 1_555 1_555
H6_9 C5_9 1_555 1_555
H7_9 C5_9 1_555 1_555
C6_9 C5_9 1_555 1_555
H8_9 C6_9 1_555 1_555
H9_13 C6_9 1_555 1_555
N5_4 C1_11 1_555 1_555
C2_11 C1_11 1_555 1_555
H1_11 C2_11 1_555 1_555
H2_11 C2_11 1_555 1_555
C3_11 C2_11 1_555 1_555
H3_11 C3_11 1_555 1_555
H4_11 C3_11 1_555 1_555
H5_15 C3_11 1_555 1_555
Cu3_2 N1_16 1_555 1_555
N1_16 N4_4 1_555 1_555
N4_4 C4_16 1_555 1_555
N5_3 C1_12 1_555 1_555
C1_12 N1_16 1_555 1_555
C2_12 C1_12 1_555 1_555
H1_12 C2_12 1_555 1_555
H2_12 C2_12 1_555 1_555
C3_12 C2_12 1_555 1_555
H3_12 C3_12 1_555 1_555
H4_12 C3_12 1_555 1_555
H5_16 C3_12 1_555 1_555
C4_16 N5_3 1_555 1_555
Cu3_3 N1_17 1_555 1_555
N1_17 N4_5 1_555 1_555
N4_5 C4_17 1_555 1_555
N5 C1_13 1_555 1_555
C1_13 N1_17 1_555 1_555
C2_13 C1_13 1_555 1_555
H1_13 C2_13 1_555 1_555
H2_13 C2_13 1_555 1_555
C3_13 C2_13 1_555 1_555
H3_13 C3_13 1_555 1_555
H4_13 C3_13 1_555 1_555
H5_17 C3_13 1_555 1_555
C4_17 N5 1_555 1_555
C5_10 C4_17 1_555 1_555
H6_10 C5_10 1_555 1_555
H7_10 C5_10 1_555 1_555
C6_10 C5_10 1_555 1_555
H8_10 C6_10 1_555 1_555
H9_14 C6_10 1_555 1_555
H10_14 C6_10 1_555 1_555
Cu3 N1_18 1_555 1_555
N1_18 N4_6 1_555 1_555
N4_6 C4_18 1_555 1_555
N5_2 C1_14 1_555 1_555
C1_14 N1_18 1_555 1_555
C2_14 C1_14 1_555 1_555
H1_14 C2_14 1_555 1_555
H2_14 C2_14 1_555 1_555
C3_14 C2_14 1_555 1_555
H3_14 C3_14 1_555 1_555
H4_14 C3_14 1_555 1_555
H5_18 C3_14 1_555 1_555
C4_18 N5_2 1_555 1_555
H6_11 C5_11 1_555 1_555
H7_11 C5_11 1_555 1_555
C6_11 C5_11 1_555 1_555
H8_11 C6_11 1_555 1_555
N3_8 C1_15 1_555 1_555
C2_15 C1_15 1_555 1_555
H1_15 C2_15 1_555 1_555
H2_15 C2_15 1_555 1_555
C3_15 C2_15 1_555 1_555
H3_15 C3_15 1_555 1_555
H4_15 C3_15 1_555 1_555
N5_8 C1_16 1_555 1_555
C2_16 C1_16 1_555 1_555
H1_16 C2_16 1_555 1_555
H2_16 C2_16 1_555 1_555
C3_16 C2_16 1_555 1_555
H3_16 C3_16 1_555 1_555
H4_16 C3_16 1_555 1_555
N3_9 C1_17 1_555 1_555
C2_17 C1_17 1_555 1_555
H1_17 C2_17 1_555 1_555
H2_17 C2_17 1_555 1_555
C3_17 C2_17 1_555 1_555
H3_17 C3_17 1_555 1_555
H4_17 C3_17 1_555 1_555
H6_12 C5_12 1_555 1_555
H7_12 C5_12 1_555 1_555
C6_12 C5_12 1_555 1_555
H8_12 C6_12 1_555 1_555
N5_9 C1_18 1_555 1_555
C2_18 C1_18 1_555 1_555
H1_18 C2_18 1_555 1_555
H2_18 C2_18 1_555 1_555
C3_18 C2_18 1_555 1_555
H3_18 C3_18 1_555 1_555
H4_18 C3_18 1_555 1_555
H6_13 C5_13 1_555 1_555
H7_13 C5_13 1_555 1_555
C6_13 C5_13 1_555 1_555
H8_13 C6_13 1_555 1_555
H9_15 C6_13 1_555 1_555
H10_15 C6_13 1_555 1_555
H6_14 C5_14 1_555 1_555
H7_14 C5_14 1_555 1_555
C6_14 C5_14 1_555 1_555
H8_14 C6_14 1_555 1_555
H9_16 C6_14 1_555 1_555
H10_16 C6_14 1_555 1_555
H6_15 C5_15 1_555 1_555
H7_15 C5_15 1_555 1_555
C6_15 C5_15 1_555 1_555
H8_15 C6_15 1_555 1_555
H6_16 C5_16 1_555 1_555
H7_16 C5_16 1_555 1_555
C6_16 C5_16 1_555 1_555
H8_16 C6_16 1_555 1_555
H6_17 C5_17 1_555 1_555
H7_17 C5_17 1_555 1_555
C6_17 C5_17 1_555 1_555
H8_17 C6_17 1_555 1_555
H9_17 C6_17 1_555 1_555
H10_17 C6_17 1_555 1_555
H6_18 C5_18 1_555 1_555
H7_18 C5_18 1_555 1_555
C6_18 C5_18 1_555 1_555
H8_18 C6_18 1_555 1_555
H9_18 C6_18 1_555 1_555
H10_18 C6_18 1_555 1_555

#END
