
###############################################################################
#
# This file contains modified crystal structure data generated from the
# MOF subset of the Cambridge Structural Database (CSD) v543 
# hosted by the Cambridge Crystallographic Data Centre (CCDC).
#
# This work is licensed under the Creative Commons
# Attribution-NonCommercial-ShareAlike 4.0 International License.
# To view a copy of this license, visit
# http://creativecommons.org/licenses/by-nc-sa/4.0/
# or send a letter to
# Creative Commons, PO Box 1866, Mountain View, CA 94042, USA.
#
# CIF created using the CSD Python API on 29 September 2022
# The structure has been converted into the P1 space group
# The structure has a 3D framework
# The original CSD entry SUHNAL is in the rhombohedral crystal system
# The framework has been calculated to contain at least 10.0% void space
# The void calculation uses a probe of radius 1.32A, grid spacing 0.4
#
###############################################################################

data_SUHNAL
_chemical_formula_moiety         '(C108 H180 Cu18 N54)n'
_symmetry_cell_setting           triclinic
_symmetry_space_group_name_H-M   'P 1'
_symmetry_Int_Tables_number      1
_space_group_name_Hall           'P 1'
loop_
_symmetry_equiv_pos_site_id
_symmetry_equiv_pos_as_xyz
1 x,y,z
_cell_length_a                   19.6307(14)
_cell_length_b                   19.6307(14)
_cell_length_c                   14.2594(11)
_cell_angle_alpha                90
_cell_angle_beta                 90
_cell_angle_gamma                120
_cell_volume                     4758.87
loop_
_atom_site_label
_atom_site_type_symbol
_atom_site_fract_x
_atom_site_fract_y
_atom_site_fract_z
Cu1 Cu 0.415121(17) 0.451764(17) 0.56183(2)
N1 N 0.50564(12) 0.54753(12) 0.61246(14)
N2 N 0.57447(11) 0.58574(12) 0.56113(14)
N3 N 0.58865(12) 0.65529(11) 0.68979(14)
C1 C 0.51699(15) 0.59089(15) 0.68880(18)
C2 C 0.45817(19) 0.57006(19) 0.7660(2)
H1 H 0.4099 0.5205 0.7490
H2 H 0.4797 0.5599 0.8237
C3 C 0.4364(3) 0.6302(3) 0.7869(4)
H3 H 0.3996 0.6127 0.8398
H4 H 0.4114 0.6380 0.7317
H5 H 0.4837 0.6798 0.8031
C4 C 0.62205(14) 0.64940(14) 0.60966(17)
C5 C 0.70294(16) 0.70796(17) 0.5792(2)
H6 H 0.7069 0.7601 0.5729
H7 H 0.7131 0.6927 0.5169
C6 C 0.7646(2) 0.7142(3) 0.6474(3)
H8 H 0.8168 0.7537 0.6249
H9 H 0.7619 0.6632 0.6524
H10 H 0.7551 0.7299 0.7091
Cu2 Cu 0.584879(17) 0.548236(17) 0.43817(2)
Cu3 Cu 0.630024(24) 0.748454(17) 0.77150(2)
N4 N 0.42553(11) 0.41426(12) 0.43887(14)
N5 N 0.32196(11) 0.39997(16) 0.64354(14)
H7_2 H 0.3073 0.0204 0.5169
C6_2 C 0.2858(3) 0.0504(4) 0.6474(3)
H8_2 H 0.2463 0.0631 0.6249
H9_2 H 0.3368 0.0987 0.6524
H10_2 H 0.2701 0.0252 0.7091
Cu2_2 Cu 0.451764(17) 0.036643(24) 0.43817(2)
N4_2 N 0.58574(12) 0.01127(16) 0.43887(14)
Cu1_2 Cu 0.548236(17) 0.963357(24) 0.56183(2)
N1_2 N 0.45247(12) 0.95811(17) 0.61246(14)
N2_2 N 0.41426(12) 0.98873(16) 0.56113(14)
N3_2 N 0.34471(11) 0.93336(16) 0.68979(14)
C1_2 C 0.40911(15) 0.92610(21) 0.68880(18)
C2_2 C 0.42994(19) 0.88811(27) 0.7660(2)
H1_2 H 0.4795 0.8894 0.7490
H2_2 H 0.4401 0.9198 0.8237
C3_2 C 0.3698(3) 0.8062(4) 0.7869(4)
H3_2 H 0.3873 0.7869 0.8398
H4_2 H 0.3620 0.7734 0.7317
H5_2 H 0.3202 0.8039 0.8031
C4_2 C 0.35060(14) 0.97265(20) 0.60966(17)
C5_2 C 0.29204(17) 0.99498(23) 0.5792(2)
H6_2 H 0.2399 0.9468 0.5729
Cu3_2 Cu 0.251546(17) 0.881569(29) 0.77150(2)
N5_2 N 0.60003(16) 0.92198(19) 0.64354(14)
Cu1_3 Cu 0.036643(24) 0.584879(17) 0.56183(2)
N1_3 N 0.04189(17) 0.49436(12) 0.61246(14)
N2_3 N 0.01127(16) 0.42553(11) 0.56113(14)
N3_3 N 0.06664(16) 0.41135(12) 0.68979(14)
C1_3 C 0.07390(21) 0.48301(15) 0.68880(18)
C2_3 C 0.11189(27) 0.54183(19) 0.7660(2)
H1_3 H 0.1106 0.5901 0.7490
H2_3 H 0.0802 0.5203 0.8237
C3_3 C 0.1938(4) 0.5636(3) 0.7869(4)
H3_3 H 0.2131 0.6004 0.8398
H4_3 H 0.2266 0.5886 0.7317
H5_3 H 0.1961 0.5163 0.8031
C4_3 C 0.02735(20) 0.37795(14) 0.60966(17)
C5_3 C 0.00502(23) 0.29706(16) 0.5792(2)
H6_3 H 0.0532 0.2931 0.5729
Cu3_3 Cu 0.118431(29) 0.369976(24) 0.77150(2)
N5_3 N 0.07802(19) 0.67804(11) 0.64354(14)
H7_3 H 0.9796 0.2869 0.5169
C6_3 C 0.9496(4) 0.2354(2) 0.6474(3)
H8_3 H 0.9369 0.1832 0.6249
H9_3 H 0.9013 0.2381 0.6524
H10_3 H 0.9748 0.2449 0.7091
Cu2_3 Cu 0.963357(24) 0.415121(17) 0.43817(2)
N4_3 N 0.98873(16) 0.57447(11) 0.43887(14)
H5_4 H 0.1504 0.0131 0.1364
H10_4 H 0.4218 0.0632 0.0424
Cu3_4 Cu 0.296690(24) 0.081788(17) 0.10484(2)
Cu1_4 Cu 0.081788(17) 0.785097(17) 0.89516(2)
N1_4 N 0.17231(12) 0.88086(12) 0.94579(14)
N2_4 N 0.24114(11) 0.91907(12) 0.89446(14)
C4_4 C 0.28872(14) 0.98273(14) 0.94299(17)
H9_4 H 0.4286 0.9965 0.9857
N4_4 N 0.09220(11) 0.74759(12) 0.77220(14)
Cu1_5 Cu 0.214903(17) 0.296690(24) 0.89516(2)
N1_5 N 0.11914(12) 0.29144(17) 0.94579(14)
N2_5 N 0.08093(12) 0.32206(16) 0.89446(14)
C4_5 C 0.01727(14) 0.30598(20) 0.94299(17)
H9_5 H 0.0035 0.4320 0.9857
N4_5 N 0.25241(12) 0.34460(16) 0.77220(14)
N5_4 N 0.26669(16) 0.25532(19) 0.97688(14)
H5_5 H 0.9869 0.1372 0.1364
H10_5 H 0.9368 0.3585 0.0424
Cu3_5 Cu 0.918212(17) 0.214903(29) 0.10484(2)
N3_4 N 0.73331(16) 0.74468(12) 0.02312(14)
C1_4 C 0.74057(21) 0.81634(15) 0.02213(18)
C2_4 C 0.77856(27) 0.87516(19) 0.0993(2)
H1_4 H 0.7773 0.9234 0.0823
H2_4 H 0.7469 0.8536 0.1570
C3_4 C 0.8605(4) 0.8969(3) 0.1202(4)
H3_4 H 0.8798 0.9337 0.1731
H4_4 H 0.8933 0.9219 0.0650
H5_6 H 0.8628 0.8496 0.1364
H10_6 H 0.6415 0.5782 0.0424
Cu3_6 Cu 0.785097(29) 0.703310(24) 0.10484(2)
Cu1_6 Cu 0.703310(24) 0.918212(17) 0.89516(2)
N1_6 N 0.70856(17) 0.82769(12) 0.94579(14)
N2_6 N 0.67794(16) 0.75886(11) 0.89446(14)
C4_6 C 0.69402(20) 0.71128(14) 0.94299(17)
C5_4 C 0.67169(23) 0.63039(16) 0.9125(2)
H6_4 H 0.7199 0.6264 0.9062
H7_4 H 0.6463 0.6202 0.8502
C6_4 C 0.6163(4) 0.5687(2) 0.9807(3)
H8_4 H 0.6036 0.5165 0.9582
H9_6 H 0.5680 0.5714 0.9857
N4_6 N 0.65540(16) 0.90780(11) 0.77220(14)
Cu1_7 Cu 0.748454(17) 0.118431(17) 0.22850(2)
N1_7 N 0.83897(12) 0.21420(12) 0.27913(14)
N2_7 N 0.90780(11) 0.25241(12) 0.22780(14)
N3_5 N 0.92198(12) 0.32196(11) 0.35646(14)
C1_5 C 0.85032(15) 0.25756(15) 0.35547(18)
C2_5 C 0.79150(19) 0.23673(19) 0.4327(2)
H1_5 H 0.7432 0.1872 0.4157
H2_5 H 0.8130 0.2266 0.4904
C3_5 C 0.7697(3) 0.2969(3) 0.4536(4)
H3_5 H 0.7329 0.2794 0.5065
H4_5 H 0.7447 0.3047 0.3984
H5_7 H 0.8170 0.3465 0.4698
C4_7 C 0.95538(14) 0.31607(14) 0.27633(17)
N4_7 N 0.75886(11) 0.08093(12) 0.10554(14)
N5_5 N 0.65529(11) 0.06664(16) 0.31021(14)
Cu1_8 Cu 0.881569(17) 0.630024(24) 0.22850(2)
N1_8 N 0.78580(12) 0.62478(17) 0.27913(14)
N2_8 N 0.74759(12) 0.65540(16) 0.22780(14)
N3_6 N 0.67804(11) 0.60003(16) 0.35646(14)
C1_6 C 0.74244(15) 0.59277(21) 0.35547(18)
C2_6 C 0.76327(19) 0.55478(27) 0.4327(2)
H1_6 H 0.8128 0.5561 0.4157
H2_6 H 0.7734 0.5865 0.4904
C3_6 C 0.7031(3) 0.4729(4) 0.4536(4)
H3_6 H 0.7206 0.4536 0.5065
H4_6 H 0.6953 0.4401 0.3984
H5_8 H 0.6535 0.4706 0.4698
C4_8 C 0.68393(14) 0.63932(20) 0.27633(17)
C5_5 C 0.62537(17) 0.66165(23) 0.2459(2)
H6_5 H 0.5732 0.6135 0.2396
H7_5 H 0.6406 0.6871 0.1836
C6_5 C 0.6191(3) 0.7171(4) 0.3141(3)
H8_5 H 0.5796 0.7298 0.2916
H9_7 H 0.6701 0.7654 0.3191
H10_7 H 0.6034 0.6919 0.3758
N4_8 N 0.91907(12) 0.67794(16) 0.10554(14)
N5_6 N 0.93336(16) 0.58865(19) 0.31021(14)
Cu1_9 Cu 0.369976(24) 0.251546(17) 0.22850(2)
N1_9 N 0.37522(17) 0.16103(12) 0.27913(14)
N2_9 N 0.34460(16) 0.09220(11) 0.22780(14)
N3_7 N 0.39997(16) 0.07802(12) 0.35646(14)
C1_7 C 0.40723(21) 0.14968(15) 0.35547(18)
C2_7 C 0.44522(27) 0.20850(19) 0.4327(2)
H1_7 H 0.4439 0.2568 0.4157
H2_7 H 0.4135 0.1870 0.4904
C3_7 C 0.5271(4) 0.2303(3) 0.4536(4)
H3_7 H 0.5464 0.2671 0.5065
H4_7 H 0.5599 0.2553 0.3984
H5_9 H 0.5294 0.1830 0.4698
C4_9 C 0.36068(20) 0.04462(14) 0.27633(17)
N4_9 N 0.32206(16) 0.24114(11) 0.10554(14)
N5_7 N 0.41135(19) 0.34471(11) 0.31021(14)
N1_10 N 0.49436(12) 0.45247(12) 0.38754(14)
C1_8 C 0.48301(15) 0.40911(15) 0.31120(18)
C2_8 C 0.54183(19) 0.42994(19) 0.2340(2)
H1_8 H 0.5901 0.4795 0.2510
H2_8 H 0.5203 0.4401 0.1763
C3_8 C 0.5636(3) 0.3698(3) 0.2131(4)
H3_8 H 0.6004 0.3873 0.1602
H4_8 H 0.5886 0.3620 0.2683
H5_10 H 0.5163 0.3202 0.1969
C4_10 C 0.37795(14) 0.35060(14) 0.39034(17)
C5_6 C 0.29706(16) 0.29204(17) 0.4208(2)
H6_6 H 0.2931 0.2399 0.4271
H7_6 H 0.2869 0.3073 0.4831
C6_6 C 0.2354(2) 0.2858(3) 0.3526(3)
H8_6 H 0.1832 0.2463 0.3751
H9_8 H 0.2381 0.3368 0.3476
H10_8 H 0.2449 0.2701 0.2909
N1_11 N 0.54753(12) 0.04189(17) 0.38754(14)
C1_9 C 0.59089(15) 0.07390(21) 0.31120(18)
C2_9 C 0.57006(19) 0.11189(27) 0.2340(2)
H1_9 H 0.5205 0.1106 0.2510
H2_9 H 0.5599 0.0802 0.1763
C3_9 C 0.6302(3) 0.1938(4) 0.2131(4)
H3_9 H 0.6127 0.2131 0.1602
H4_9 H 0.6380 0.2266 0.2683
H5_11 H 0.6798 0.1961 0.1969
C4_11 C 0.64940(14) 0.02735(20) 0.39034(17)
C5_7 C 0.70796(17) 0.00502(23) 0.4208(2)
H6_7 H 0.7601 0.0532 0.4271
H7_7 H 0.6927 0.9796 0.4831
C6_7 C 0.7142(3) 0.9496(4) 0.3526(3)
H8_7 H 0.7537 0.9369 0.3751
H9_9 H 0.6632 0.9013 0.3476
H10_9 H 0.7299 0.9748 0.2909
H7_8 H 0.0204 0.7131 0.4831
C6_8 C 0.0504(4) 0.7646(2) 0.3526(3)
H8_8 H 0.0631 0.8168 0.3751
H9_10 H 0.0987 0.7619 0.3476
H10_10 H 0.0252 0.7551 0.2909
N1_12 N 0.95811(17) 0.50564(12) 0.38754(14)
C1_10 C 0.92610(21) 0.51699(15) 0.31120(18)
C2_10 C 0.88811(27) 0.45817(19) 0.2340(2)
H1_10 H 0.8894 0.4099 0.2510
H2_10 H 0.9198 0.4797 0.1763
C3_10 C 0.8062(4) 0.4364(3) 0.2131(4)
H3_10 H 0.7869 0.3996 0.1602
H4_10 H 0.7734 0.4114 0.2683
H5_12 H 0.8039 0.4837 0.1969
C4_12 C 0.97265(20) 0.62205(14) 0.39034(17)
C5_8 C 0.99498(23) 0.70294(16) 0.4208(2)
H6_8 H 0.9468 0.7069 0.4271
N1_13 N 0.82769(12) 0.11914(12) 0.05421(14)
C4_13 C 0.71128(14) 0.01727(14) 0.05701(17)
H9_11 H 0.5714 0.0035 0.0143
H5_13 H 0.8496 0.9869 0.8636
H10_11 H 0.5782 0.9368 0.9576
H5_14 H 0.0131 0.8628 0.8636
H10_12 H 0.0632 0.6415 0.9576
N1_14 N 0.88086(12) 0.70856(17) 0.05421(14)
C4_14 C 0.98273(14) 0.69402(20) 0.05701(17)
H9_12 H 0.9965 0.5680 0.0143
N1_15 N 0.29144(17) 0.17231(12) 0.05421(14)
C4_15 C 0.30598(20) 0.28872(14) 0.05701(17)
C5_9 C 0.32831(23) 0.36961(16) 0.0875(2)
H6_9 H 0.2801 0.3736 0.0938
H7_9 H 0.3537 0.3798 0.1498
C6_9 C 0.3837(4) 0.4313(2) 0.0193(3)
H8_9 H 0.3964 0.4835 0.0418
H9_13 H 0.4320 0.4286 0.0143
C1_11 C 0.25943(21) 0.18366(15) 0.97787(18)
C2_11 C 0.22144(27) 0.12484(19) 0.9007(2)
H1_11 H 0.2227 0.0766 0.9177
H2_11 H 0.2531 0.1464 0.8430
C3_11 C 0.1395(4) 0.1031(3) 0.8798(4)
H3_11 H 0.1202 0.0663 0.8269
H4_11 H 0.1067 0.0781 0.9350
H5_15 H 0.1372 0.1504 0.8636
H10_13 H 0.3585 0.4218 0.9576
N1_16 N 0.16103(12) 0.78580(12) 0.72087(14)
C1_12 C 0.14968(15) 0.74244(15) 0.64453(18)
C2_12 C 0.20850(19) 0.76327(19) 0.5673(2)
H1_12 H 0.2568 0.8128 0.5843
H2_12 H 0.1870 0.7734 0.5096
C3_12 C 0.2303(3) 0.7031(3) 0.5464(4)
H3_12 H 0.2671 0.7206 0.4935
H4_12 H 0.2553 0.6953 0.6016
H5_16 H 0.1830 0.6535 0.5302
C4_16 C 0.04462(14) 0.68393(14) 0.72367(17)
N1_17 N 0.21420(12) 0.37522(17) 0.72087(14)
C1_13 C 0.25756(15) 0.40723(21) 0.64453(18)
C2_13 C 0.23673(19) 0.44522(27) 0.5673(2)
H1_13 H 0.1872 0.4439 0.5843
H2_13 H 0.2266 0.4135 0.5096
C3_13 C 0.2969(3) 0.5271(4) 0.5464(4)
H3_13 H 0.2794 0.5464 0.4935
H4_13 H 0.3047 0.5599 0.6016
H5_17 H 0.3465 0.5294 0.5302
C4_17 C 0.31607(14) 0.36068(20) 0.72367(17)
C5_10 C 0.37463(17) 0.33835(23) 0.7541(2)
H6_10 H 0.4268 0.3865 0.7604
H7_10 H 0.3594 0.3129 0.8164
C6_10 C 0.3809(3) 0.2829(4) 0.6859(3)
H8_10 H 0.4204 0.2702 0.7084
H9_14 H 0.3299 0.2346 0.6809
H10_14 H 0.3966 0.3081 0.6242
N1_18 N 0.62478(17) 0.83897(12) 0.72087(14)
C1_14 C 0.59277(21) 0.85032(15) 0.64453(18)
C2_14 C 0.55478(27) 0.79150(19) 0.5673(2)
H1_14 H 0.5561 0.7432 0.5843
H2_14 H 0.5865 0.8130 0.5096
C3_14 C 0.4729(4) 0.7697(3) 0.5464(4)
H3_14 H 0.4536 0.7329 0.4935
H4_14 H 0.4401 0.7447 0.6016
H5_18 H 0.4706 0.8170 0.5302
C4_18 C 0.63932(20) 0.95538(14) 0.72367(17)
C5_11 C 0.36961(16) 0.04129(17) 0.9125(2)
H6_11 H 0.3736 0.0934 0.9062
H7_11 H 0.3798 0.0260 0.8502
C6_11 C 0.4313(2) 0.0475(3) 0.9807(3)
H8_11 H 0.4835 0.0870 0.9582
N3_8 N 0.25532(12) 0.98862(11) 0.02312(14)
C1_15 C 0.18366(15) 0.92422(15) 0.02213(18)
C2_15 C 0.12484(19) 0.90339(19) 0.0993(2)
H1_15 H 0.0766 0.8538 0.0823
H2_15 H 0.1464 0.8932 0.1570
C3_15 C 0.1031(3) 0.9635(3) 0.1202(4)
H3_15 H 0.0663 0.9460 0.1731
H4_15 H 0.0781 0.9713 0.0650
N5_8 N 0.98862(11) 0.73331(16) 0.97688(14)
C1_16 C 0.92422(15) 0.74057(21) 0.97787(18)
C2_16 C 0.90339(19) 0.77856(27) 0.9007(2)
H1_16 H 0.8538 0.7773 0.9177
H2_16 H 0.8932 0.7469 0.8430
C3_16 C 0.9635(3) 0.8605(4) 0.8798(4)
H3_16 H 0.9460 0.8798 0.8269
H4_16 H 0.9713 0.8933 0.9350
N3_9 N 0.01138(11) 0.26669(16) 0.02312(14)
C1_17 C 0.07578(15) 0.25943(21) 0.02213(18)
C2_17 C 0.09661(19) 0.22144(27) 0.0993(2)
H1_17 H 0.1462 0.2227 0.0823
H2_17 H 0.1068 0.2531 0.1570
C3_17 C 0.0365(3) 0.1395(4) 0.1202(4)
H3_17 H 0.0540 0.1202 0.1731
H4_17 H 0.0287 0.1067 0.0650
C5_12 C 0.95871(17) 0.32831(23) 0.9125(2)
H6_12 H 0.9066 0.2801 0.9062
H7_12 H 0.9740 0.3537 0.8502
C6_12 C 0.9525(3) 0.3837(4) 0.9807(3)
H8_12 H 0.9130 0.3964 0.9582
N5_9 N 0.74468(19) 0.01138(11) 0.97688(14)
C1_18 C 0.81634(15) 0.07578(15) 0.97787(18)
C2_18 C 0.87516(19) 0.09661(19) 0.9007(2)
H1_18 H 0.9234 0.1462 0.9177
H2_18 H 0.8536 0.1068 0.8430
C3_18 C 0.8969(3) 0.0365(3) 0.8798(4)
H3_18 H 0.9337 0.0540 0.8269
H4_18 H 0.9219 0.0287 0.9350
C5_13 C 0.03627(16) 0.37463(17) 0.2459(2)
H6_13 H 0.0402 0.4268 0.2396
H7_13 H 0.0464 0.3594 0.1836
C6_13 C 0.0979(2) 0.3809(3) 0.3141(3)
H8_13 H 0.1501 0.4204 0.2916
H9_15 H 0.0952 0.3299 0.3191
H10_15 H 0.0884 0.3966 0.3758
C5_14 C 0.33835(23) 0.96373(16) 0.2459(2)
H6_14 H 0.3865 0.9598 0.2396
H7_14 H 0.3129 0.9536 0.1836
C6_14 C 0.2829(4) 0.9021(2) 0.3141(3)
H8_14 H 0.2702 0.8499 0.2916
H9_16 H 0.2346 0.9048 0.3191
H10_16 H 0.3081 0.9116 0.3758
C5_15 C 0.63039(16) 0.95871(17) 0.0875(2)
H6_15 H 0.6264 0.9066 0.0938
H7_15 H 0.6202 0.9740 0.1498
C6_15 C 0.5687(2) 0.9525(3) 0.0193(3)
H8_15 H 0.5165 0.9130 0.0418
C5_16 C 0.04129(17) 0.67169(23) 0.0875(2)
H6_16 H 0.0934 0.7199 0.0938
H7_16 H 0.0260 0.6463 0.1498
C6_16 C 0.0475(3) 0.6163(4) 0.0193(3)
H8_16 H 0.0870 0.6036 0.0418
C5_17 C 0.96373(16) 0.62537(17) 0.7541(2)
H6_17 H 0.9598 0.5732 0.7604
H7_17 H 0.9536 0.6406 0.8164
C6_17 C 0.9021(2) 0.6191(3) 0.6859(3)
H8_17 H 0.8499 0.5796 0.7084
H9_17 H 0.9048 0.6701 0.6809
H10_17 H 0.9116 0.6034 0.6242
C5_18 C 0.66165(23) 0.03627(16) 0.7541(2)
H6_18 H 0.6135 0.0402 0.7604
H7_18 H 0.6871 0.0464 0.8164
C6_18 C 0.7171(4) 0.0979(2) 0.6859(3)
H8_18 H 0.7298 0.1501 0.7084
H9_18 H 0.7654 0.0952 0.6809
H10_18 H 0.6919 0.0884 0.6242
loop_
_geom_bond_atom_site_label_1
_geom_bond_atom_site_label_2
_geom_bond_site_symmetry_1
_geom_bond_site_symmetry_2
Cu1 N1 1_555 1_555
N1 N2 1_555 1_555
N2 C4 1_555 1_555
N3 C1 1_555 1_555
C1 N1 1_555 1_555
C2 C1 1_555 1_555
H1 C2 1_555 1_555
H2 C2 1_555 1_555
C3 C2 1_555 1_555
H3 C3 1_555 1_555
H4 C3 1_555 1_555
H5 C3 1_555 1_555
C4 N3 1_555 1_555
C5 C4 1_555 1_555
H6 C5 1_555 1_555
H7 C5 1_555 1_555
C6 C5 1_555 1_555
H8 C6 1_555 1_555
H9 C6 1_555 1_555
H10 C6 1_555 1_555
Cu2 N2 1_555 1_555
Cu3 N3 1_555 1_555
N4 Cu1 1_555 1_555
N5 Cu1 1_555 1_555
H8_2 C6_2 1_555 1_555
H9_2 C6_2 1_555 1_555
H10_2 C6_2 1_555 1_555
Cu1_2 N1_2 1_555 1_555
N1_2 N2_2 1_555 1_555
N2_2 C4_2 1_555 1_555
N3_2 C1_2 1_555 1_555
C1_2 N1_2 1_555 1_555
C2_2 C1_2 1_555 1_555
H1_2 C2_2 1_555 1_555
H2_2 C2_2 1_555 1_555
C3_2 C2_2 1_555 1_555
H3_2 C3_2 1_555 1_555
H4_2 C3_2 1_555 1_555
H5_2 C3_2 1_555 1_555
C4_2 N3_2 1_555 1_555
C5_2 C4_2 1_555 1_555
H6_2 C5_2 1_555 1_555
Cu3_2 N3_2 1_555 1_555
N5_2 Cu1_2 1_555 1_555
Cu1_3 N1_3 1_555 1_555
N1_3 N2_3 1_555 1_555
N2_3 C4_3 1_555 1_555
N3_3 C1_3 1_555 1_555
C1_3 N1_3 1_555 1_555
C2_3 C1_3 1_555 1_555
H1_3 C2_3 1_555 1_555
H2_3 C2_3 1_555 1_555
C3_3 C2_3 1_555 1_555
H3_3 C3_3 1_555 1_555
H4_3 C3_3 1_555 1_555
H5_3 C3_3 1_555 1_555
C4_3 N3_3 1_555 1_555
C5_3 C4_3 1_555 1_555
H6_3 C5_3 1_555 1_555
Cu3_3 N3_3 1_555 1_555
N5_3 Cu1_3 1_555 1_555
H8_3 C6_3 1_555 1_555
H9_3 C6_3 1_555 1_555
H10_3 C6_3 1_555 1_555
Cu1_4 N1_4 1_555 1_555
N1_4 N2_4 1_555 1_555
N2_4 C4_4 1_555 1_555
Cu3_2 N2_4 1_555 1_555
N4_4 Cu1_4 1_555 1_555
Cu1_5 N1_5 1_555 1_555
N1_5 N2_5 1_555 1_555
N2_5 C4_5 1_555 1_555
Cu3_3 N2_5 1_555 1_555
N4_5 Cu1_5 1_555 1_555
N5_4 Cu1_5 1_555 1_555
N3_4 C1_4 1_555 1_555
C2_4 C1_4 1_555 1_555
H1_4 C2_4 1_555 1_555
H2_4 C2_4 1_555 1_555
C3_4 C2_4 1_555 1_555
H3_4 C3_4 1_555 1_555
H4_4 C3_4 1_555 1_555
H5_6 C3_4 1_555 1_555
Cu3_6 N3_4 1_555 1_555
Cu1_6 N1_6 1_555 1_555
N1_6 N2_6 1_555 1_555
N2_6 C4_6 1_555 1_555
C5_4 C4_6 1_555 1_555
H6_4 C5_4 1_555 1_555
H7_4 C5_4 1_555 1_555
C6_4 C5_4 1_555 1_555
H8_4 C6_4 1_555 1_555
H9_6 C6_4 1_555 1_555
Cu3 N2_6 1_555 1_555
N4_6 Cu1_6 1_555 1_555
Cu1_7 N1_7 1_555 1_555
N1_7 N2_7 1_555 1_555
N2_7 C4_7 1_555 1_555
N3_5 C1_5 1_555 1_555
C1_5 N1_7 1_555 1_555
C2_5 C1_5 1_555 1_555
H1_5 C2_5 1_555 1_555
H2_5 C2_5 1_555 1_555
C3_5 C2_5 1_555 1_555
H3_5 C3_5 1_555 1_555
H4_5 C3_5 1_555 1_555
H5_7 C3_5 1_555 1_555
C4_7 N3_5 1_555 1_555
Cu3_5 N2_7 1_555 1_555
Cu2_3 N3_5 1_555 1_555
N4_7 Cu1_7 1_555 1_555
N5_5 Cu1_7 1_555 1_555
Cu1_8 N1_8 1_555 1_555
N1_8 N2_8 1_555 1_555
N2_8 C4_8 1_555 1_555
N3_6 C1_6 1_555 1_555
C1_6 N1_8 1_555 1_555
C2_6 C1_6 1_555 1_555
H1_6 C2_6 1_555 1_555
H2_6 C2_6 1_555 1_555
C3_6 C2_6 1_555 1_555
H3_6 C3_6 1_555 1_555
H4_6 C3_6 1_555 1_555
H5_8 C3_6 1_555 1_555
C4_8 N3_6 1_555 1_555
C5_5 C4_8 1_555 1_555
H6_5 C5_5 1_555 1_555
H7_5 C5_5 1_555 1_555
C6_5 C5_5 1_555 1_555
H8_5 C6_5 1_555 1_555
H9_7 C6_5 1_555 1_555
H10_7 C6_5 1_555 1_555
Cu3_6 N2_8 1_555 1_555
Cu2 N3_6 1_555 1_555
N4_8 Cu1_8 1_555 1_555
N5_6 Cu1_8 1_555 1_555
Cu1_9 N1_9 1_555 1_555
N1_9 N2_9 1_555 1_555
N2_9 C4_9 1_555 1_555
N3_7 C1_7 1_555 1_555
C1_7 N1_9 1_555 1_555
C2_7 C1_7 1_555 1_555
H1_7 C2_7 1_555 1_555
H2_7 C2_7 1_555 1_555
C3_7 C2_7 1_555 1_555
H3_7 C3_7 1_555 1_555
H4_7 C3_7 1_555 1_555
H5_9 C3_7 1_555 1_555
C4_9 N3_7 1_555 1_555
Cu3_4 N2_9 1_555 1_555
Cu2_2 N3_7 1_555 1_555
N4_9 Cu1_9 1_555 1_555
N5_7 Cu1_9 1_555 1_555
Cu2 N1_10 1_555 1_555
N1_10 N4 1_555 1_555
N4 C4_10 1_555 1_555
N5_7 C1_8 1_555 1_555
C1_8 N1_10 1_555 1_555
C2_8 C1_8 1_555 1_555
H1_8 C2_8 1_555 1_555
H2_8 C2_8 1_555 1_555
C3_8 C2_8 1_555 1_555
H3_8 C3_8 1_555 1_555
H4_8 C3_8 1_555 1_555
H5_10 C3_8 1_555 1_555
C4_10 N5_7 1_555 1_555
C5_6 C4_10 1_555 1_555
H6_6 C5_6 1_555 1_555
H7_6 C5_6 1_555 1_555
C6_6 C5_6 1_555 1_555
H8_6 C6_6 1_555 1_555
H9_8 C6_6 1_555 1_555
H10_8 C6_6 1_555 1_555
Cu2_2 N1_11 1_555 1_555
N1_11 N4_2 1_555 1_555
N4_2 C4_11 1_555 1_555
N5_5 C1_9 1_555 1_555
C1_9 N1_11 1_555 1_555
C2_9 C1_9 1_555 1_555
H1_9 C2_9 1_555 1_555
H2_9 C2_9 1_555 1_555
C3_9 C2_9 1_555 1_555
H3_9 C3_9 1_555 1_555
H4_9 C3_9 1_555 1_555
H5_11 C3_9 1_555 1_555
C4_11 N5_5 1_555 1_555
C5_7 C4_11 1_555 1_555
H6_7 C5_7 1_555 1_555
H8_7 C6_7 1_555 1_555
H9_9 C6_7 1_555 1_555
H10_9 C6_7 1_555 1_555
H8_8 C6_8 1_555 1_555
H9_10 C6_8 1_555 1_555
H10_10 C6_8 1_555 1_555
Cu2_3 N1_12 1_555 1_555
N1_12 N4_3 1_555 1_555
N4_3 C4_12 1_555 1_555
N5_6 C1_10 1_555 1_555
C1_10 N1_12 1_555 1_555
C2_10 C1_10 1_555 1_555
H1_10 C2_10 1_555 1_555
H2_10 C2_10 1_555 1_555
C3_10 C2_10 1_555 1_555
H3_10 C3_10 1_555 1_555
H4_10 C3_10 1_555 1_555
H5_12 C3_10 1_555 1_555
C4_12 N5_6 1_555 1_555
C5_8 C4_12 1_555 1_555
H6_8 C5_8 1_555 1_555
Cu3_5 N1_13 1_555 1_555
N1_13 N4_7 1_555 1_555
N4_7 C4_13 1_555 1_555
Cu3_6 N1_14 1_555 1_555
N1_14 N4_8 1_555 1_555
N4_8 C4_14 1_555 1_555
Cu3_4 N1_15 1_555 1_555
N1_15 N4_9 1_555 1_555
N4_9 C4_15 1_555 1_555
C5_9 C4_15 1_555 1_555
H6_9 C5_9 1_555 1_555
H7_9 C5_9 1_555 1_555
C6_9 C5_9 1_555 1_555
H8_9 C6_9 1_555 1_555
H9_13 C6_9 1_555 1_555
N5_4 C1_11 1_555 1_555
C2_11 C1_11 1_555 1_555
H1_11 C2_11 1_555 1_555
H2_11 C2_11 1_555 1_555
C3_11 C2_11 1_555 1_555
H3_11 C3_11 1_555 1_555
H4_11 C3_11 1_555 1_555
H5_15 C3_11 1_555 1_555
Cu3_2 N1_16 1_555 1_555
N1_16 N4_4 1_555 1_555
N4_4 C4_16 1_555 1_555
N5_3 C1_12 1_555 1_555
C1_12 N1_16 1_555 1_555
C2_12 C1_12 1_555 1_555
H1_12 C2_12 1_555 1_555
H2_12 C2_12 1_555 1_555
C3_12 C2_12 1_555 1_555
H3_12 C3_12 1_555 1_555
H4_12 C3_12 1_555 1_555
H5_16 C3_12 1_555 1_555
C4_16 N5_3 1_555 1_555
Cu3_3 N1_17 1_555 1_555
N1_17 N4_5 1_555 1_555
N4_5 C4_17 1_555 1_555
N5 C1_13 1_555 1_555
C1_13 N1_17 1_555 1_555
C2_13 C1_13 1_555 1_555
H1_13 C2_13 1_555 1_555
H2_13 C2_13 1_555 1_555
C3_13 C2_13 1_555 1_555
H3_13 C3_13 1_555 1_555
H4_13 C3_13 1_555 1_555
H5_17 C3_13 1_555 1_555
C4_17 N5 1_555 1_555
C5_10 C4_17 1_555 1_555
H6_10 C5_10 1_555 1_555
H7_10 C5_10 1_555 1_555
C6_10 C5_10 1_555 1_555
H8_10 C6_10 1_555 1_555
H9_14 C6_10 1_555 1_555
H10_14 C6_10 1_555 1_555
Cu3 N1_18 1_555 1_555
N1_18 N4_6 1_555 1_555
N4_6 C4_18 1_555 1_555
N5_2 C1_14 1_555 1_555
C1_14 N1_18 1_555 1_555
C2_14 C1_14 1_555 1_555
H1_14 C2_14 1_555 1_555
H2_14 C2_14 1_555 1_555
C3_14 C2_14 1_555 1_555
H3_14 C3_14 1_555 1_555
H4_14 C3_14 1_555 1_555
H5_18 C3_14 1_555 1_555
C4_18 N5_2 1_555 1_555
H6_11 C5_11 1_555 1_555
H7_11 C5_11 1_555 1_555
C6_11 C5_11 1_555 1_555
H8_11 C6_11 1_555 1_555
N3_8 C1_15 1_555 1_555
C2_15 C1_15 1_555 1_555
H1_15 C2_15 1_555 1_555
H2_15 C2_15 1_555 1_555
C3_15 C2_15 1_555 1_555
H3_15 C3_15 1_555 1_555
H4_15 C3_15 1_555 1_555
N5_8 C1_16 1_555 1_555
C2_16 C1_16 1_555 1_555
H1_16 C2_16 1_555 1_555
H2_16 C2_16 1_555 1_555
C3_16 C2_16 1_555 1_555
H3_16 C3_16 1_555 1_555
H4_16 C3_16 1_555 1_555
N3_9 C1_17 1_555 1_555
C2_17 C1_17 1_555 1_555
H1_17 C2_17 1_555 1_555
H2_17 C2_17 1_555 1_555
C3_17 C2_17 1_555 1_555
H3_17 C3_17 1_555 1_555
H4_17 C3_17 1_555 1_555
H6_12 C5_12 1_555 1_555
H7_12 C5_12 1_555 1_555
C6_12 C5_12 1_555 1_555
H8_12 C6_12 1_555 1_555
N5_9 C1_18 1_555 1_555
C2_18 C1_18 1_555 1_555
H1_18 C2_18 1_555 1_555
H2_18 C2_18 1_555 1_555
C3_18 C2_18 1_555 1_555
H3_18 C3_18 1_555 1_555
H4_18 C3_18 1_555 1_555
H6_13 C5_13 1_555 1_555
H7_13 C5_13 1_555 1_555
C6_13 C5_13 1_555 1_555
H8_13 C6_13 1_555 1_555
H9_15 C6_13 1_555 1_555
H10_15 C6_13 1_555 1_555
H6_14 C5_14 1_555 1_555
H7_14 C5_14 1_555 1_555
C6_14 C5_14 1_555 1_555
H8_14 C6_14 1_555 1_555
H9_16 C6_14 1_555 1_555
H10_16 C6_14 1_555 1_555
H6_15 C5_15 1_555 1_555
H7_15 C5_15 1_555 1_555
C6_15 C5_15 1_555 1_555
H8_15 C6_15 1_555 1_555
H6_16 C5_16 1_555 1_555
H7_16 C5_16 1_555 1_555
C6_16 C5_16 1_555 1_555
H8_16 C6_16 1_555 1_555
H6_17 C5_17 1_555 1_555
H7_17 C5_17 1_555 1_555
C6_17 C5_17 1_555 1_555
H8_17 C6_17 1_555 1_555
H9_17 C6_17 1_555 1_555
H10_17 C6_17 1_555 1_555
H6_18 C5_18 1_555 1_555
H7_18 C5_18 1_555 1_555
C6_18 C5_18 1_555 1_555
H8_18 C6_18 1_555 1_555
H9_18 C6_18 1_555 1_555
H10_18 C6_18 1_555 1_555

#END
