
###############################################################################
#
# This file contains modified crystal structure data generated from the
# MOF subset of the Cambridge Structural Database (CSD) v543 
# hosted by the Cambridge Crystallographic Data Centre (CCDC).
#
# This work is licensed under the Creative Commons
# Attribution-NonCommercial-ShareAlike 4.0 International License.
# To view a copy of this license, visit
# http://creativecommons.org/licenses/by-nc-sa/4.0/
# or send a letter to
# Creative Commons, PO Box 1866, Mountain View, CA 94042, USA.
#
# CIF created using the CSD Python API on 29 September 2022
# The structure has been converted into the P1 space group
# The structure has a 3D framework
# The original CSD entry SUHNIT is in the rhombohedral crystal system
# The framework has been calculated to contain at least 10.0% void space
# The void calculation uses a probe of radius 1.32A, grid spacing 0.4
#
###############################################################################

data_SUHNIT
_chemical_formula_moiety         '(C108 H180 Cu18 N54)n'
_symmetry_cell_setting           triclinic
_symmetry_space_group_name_H-M   'P 1'
_symmetry_Int_Tables_number      1
_space_group_name_Hall           'P 1'
loop_
_symmetry_equiv_pos_site_id
_symmetry_equiv_pos_as_xyz
1 x,y,z
_cell_length_a                   19.6035(14)
_cell_length_b                   19.6035(14)
_cell_length_c                   14.2793(11)
_cell_angle_alpha                90
_cell_angle_beta                 90
_cell_angle_gamma                120
_cell_volume                     4752.31
loop_
_atom_site_label
_atom_site_type_symbol
_atom_site_fract_x
_atom_site_fract_y
_atom_site_fract_z
Cu1 Cu 0.415092(16) 0.451607(17) 0.561910(19)
N1 N 0.50589(11) 0.54736(12) 0.61264(13)
N2 N 0.57466(11) 0.58572(11) 0.56117(13)
N3 N 0.58892(12) 0.65510(11) 0.68993(13)
C1 C 0.51710(15) 0.59066(14) 0.68904(17)
C2 C 0.45844(19) 0.57015(18) 0.7661(2)
H1 H 0.4102 0.5203 0.7497
H2 H 0.4803 0.5605 0.8239
C3 C 0.4363(3) 0.6298(3) 0.7864(4)
H3 H 0.3995 0.6124 0.8392
H4 H 0.4111 0.6372 0.7311
H5 H 0.4836 0.6797 0.8023
C4 C 0.62214(14) 0.64948(13) 0.60975(16)
C5 C 0.70309(15) 0.70805(17) 0.5794(2)
H6 H 0.7070 0.7602 0.5727
H7 H 0.7134 0.6926 0.5173
C6 C 0.7648(2) 0.7147(3) 0.6477(3)
H8 H 0.8171 0.7542 0.6253
H9 H 0.7622 0.6636 0.6532
H10 H 0.7552 0.7305 0.7092
Cu2 Cu 0.584908(16) 0.548393(17) 0.438090(19)
Cu3 Cu 0.630152(23) 0.748425(16) 0.771423(19)
N4 N 0.42534(11) 0.41428(11) 0.43883(13)
N5 N 0.32177(11) 0.39951(16) 0.64340(13)
H7_2 H 0.3074 0.0208 0.5173
C6_2 C 0.2853(3) 0.0501(4) 0.6477(3)
H8_2 H 0.2458 0.0629 0.6253
H9_2 H 0.3364 0.0986 0.6532
H10_2 H 0.2695 0.0247 0.7092
Cu2_2 Cu 0.451607(17) 0.036515(23) 0.438090(19)
N4_2 N 0.58572(11) 0.01106(16) 0.43883(13)
Cu1_2 Cu 0.548393(17) 0.963485(23) 0.561910(19)
N1_2 N 0.45264(12) 0.95853(16) 0.61264(13)
N2_2 N 0.41428(11) 0.98894(16) 0.56117(13)
N3_2 N 0.34490(11) 0.93382(16) 0.68993(13)
C1_2 C 0.40934(14) 0.92644(21) 0.68904(17)
C2_2 C 0.42985(18) 0.88829(26) 0.7661(2)
H1_2 H 0.4797 0.8899 0.7497
H2_2 H 0.4395 0.9198 0.8239
C3_2 C 0.3702(3) 0.8065(4) 0.7864(4)
H3_2 H 0.3876 0.7871 0.8392
H4_2 H 0.3628 0.7739 0.7311
H5_2 H 0.3203 0.8039 0.8023
C4_2 C 0.35052(13) 0.97266(19) 0.60975(16)
C5_2 C 0.29195(17) 0.99504(23) 0.5794(2)
H6_2 H 0.2398 0.9468 0.5727
Cu3_2 Cu 0.251575(16) 0.881726(28) 0.771423(19)
N5_2 N 0.60049(16) 0.92225(19) 0.64340(13)
Cu1_3 Cu 0.036515(23) 0.584908(16) 0.561910(19)
N1_3 N 0.04147(16) 0.49411(11) 0.61264(13)
N2_3 N 0.01106(16) 0.42534(11) 0.56117(13)
N3_3 N 0.06618(16) 0.41108(12) 0.68993(13)
C1_3 C 0.07356(21) 0.48290(15) 0.68904(17)
C2_3 C 0.11171(26) 0.54156(19) 0.7661(2)
H1_3 H 0.1101 0.5898 0.7497
H2_3 H 0.0802 0.5197 0.8239
C3_3 C 0.1935(4) 0.5637(3) 0.7864(4)
H3_3 H 0.2129 0.6005 0.8392
H4_3 H 0.2261 0.5889 0.7311
H5_3 H 0.1961 0.5164 0.8023
C4_3 C 0.02734(19) 0.37786(14) 0.60975(16)
C5_3 C 0.00496(23) 0.29691(15) 0.5794(2)
H6_3 H 0.0532 0.2930 0.5727
Cu3_3 Cu 0.118274(28) 0.369848(23) 0.771423(19)
N5_3 N 0.07775(19) 0.67823(11) 0.64340(13)
H7_3 H 0.9792 0.2866 0.5173
C6_3 C 0.9499(4) 0.2352(2) 0.6477(3)
H8_3 H 0.9371 0.1829 0.6253
H9_3 H 0.9014 0.2378 0.6532
H10_3 H 0.9753 0.2448 0.7092
Cu2_3 Cu 0.963485(23) 0.415092(16) 0.438090(19)
N4_3 N 0.98894(16) 0.57466(11) 0.43883(13)
H5_4 H 0.1503 0.0130 0.1356
H10_4 H 0.4219 0.0638 0.0425
Cu3_4 Cu 0.296818(23) 0.081759(16) 0.104757(19)
Cu1_4 Cu 0.081759(16) 0.784940(17) 0.895243(19)
N1_4 N 0.17256(11) 0.88069(12) 0.94597(13)
N2_4 N 0.24133(11) 0.91905(11) 0.89450(13)
C4_4 C 0.28881(14) 0.98281(13) 0.94308(16)
H9_4 H 0.4289 0.9969 0.9865
N4_4 N 0.09201(11) 0.74761(11) 0.77216(13)
Cu1_5 Cu 0.215060(17) 0.296818(23) 0.895243(19)
N1_5 N 0.11931(12) 0.29186(16) 0.94597(13)
N2_5 N 0.08095(11) 0.32227(16) 0.89450(13)
C4_5 C 0.01719(13) 0.30599(19) 0.94308(16)
H9_5 H 0.0031 0.4319 0.9865
N4_5 N 0.25239(11) 0.34439(16) 0.77216(13)
N5_4 N 0.26715(16) 0.25559(19) 0.97674(13)
H5_5 H 0.9870 0.1372 0.1356
H10_5 H 0.9362 0.3580 0.0425
Cu3_5 Cu 0.918241(16) 0.215060(28) 0.104757(19)
N3_4 N 0.73285(16) 0.74441(12) 0.02326(13)
C1_4 C 0.74023(21) 0.81623(15) 0.02237(17)
C2_4 C 0.77838(26) 0.87489(19) 0.0994(2)
H1_4 H 0.7768 0.9231 0.0830
H2_4 H 0.7469 0.8530 0.1572
C3_4 C 0.8602(4) 0.8970(3) 0.1197(4)
H3_4 H 0.8796 0.9338 0.1725
H4_4 H 0.8928 0.9222 0.0644
H5_6 H 0.8628 0.8497 0.1356
H10_6 H 0.6420 0.5781 0.0425
Cu3_6 Cu 0.784940(28) 0.703182(23) 0.104757(19)
Cu1_6 Cu 0.703182(23) 0.918241(16) 0.895243(19)
N1_6 N 0.70814(16) 0.82744(11) 0.94597(13)
N2_6 N 0.67773(16) 0.75867(11) 0.89450(13)
C4_6 C 0.69401(19) 0.71119(14) 0.94308(16)
C5_4 C 0.67163(23) 0.63024(15) 0.9127(2)
H6_4 H 0.7199 0.6263 0.9060
H7_4 H 0.6459 0.6199 0.8506
C6_4 C 0.6166(4) 0.5685(2) 0.9810(3)
H8_4 H 0.6038 0.5162 0.9586
H9_6 H 0.5681 0.5711 0.9865
N4_6 N 0.65561(16) 0.90799(11) 0.77216(13)
Cu1_7 Cu 0.748425(16) 0.118274(17) 0.228577(19)
N1_7 N 0.83922(11) 0.21403(12) 0.27931(13)
N2_7 N 0.90799(11) 0.25239(11) 0.22784(13)
N3_5 N 0.92225(12) 0.32177(11) 0.35660(13)
C1_5 C 0.85043(15) 0.25733(14) 0.35571(17)
C2_5 C 0.79177(19) 0.23682(18) 0.4328(2)
H1_5 H 0.7435 0.1870 0.4164
H2_5 H 0.8136 0.2272 0.4906
C3_5 C 0.7696(3) 0.2965(3) 0.4531(4)
H3_5 H 0.7328 0.2791 0.5059
H4_5 H 0.7444 0.3039 0.3978
H5_7 H 0.8169 0.3464 0.4690
C4_7 C 0.95547(14) 0.31615(13) 0.27642(16)
N4_7 N 0.75867(11) 0.08095(11) 0.10550(13)
N5_5 N 0.65510(11) 0.06618(16) 0.31007(13)
Cu1_8 Cu 0.881726(17) 0.630152(23) 0.228577(19)
N1_8 N 0.78597(12) 0.62520(16) 0.27931(13)
N2_8 N 0.74761(11) 0.65561(16) 0.22784(13)
N3_6 N 0.67823(11) 0.60049(16) 0.35660(13)
C1_6 C 0.74267(14) 0.59311(21) 0.35571(17)
C2_6 C 0.76318(18) 0.55496(26) 0.4328(2)
H1_6 H 0.8130 0.5566 0.4164
H2_6 H 0.7728 0.5865 0.4906
C3_6 C 0.7035(3) 0.4732(4) 0.4531(4)
H3_6 H 0.7209 0.4538 0.5059
H4_6 H 0.6961 0.4406 0.3978
H5_8 H 0.6536 0.4706 0.4690
C4_8 C 0.68385(13) 0.63933(19) 0.27642(16)
C5_5 C 0.62528(17) 0.66171(23) 0.2461(2)
H6_5 H 0.5731 0.6135 0.2394
H7_5 H 0.6407 0.6875 0.1840
C6_5 C 0.6186(3) 0.7168(4) 0.3144(3)
H8_5 H 0.5791 0.7296 0.2920
H9_7 H 0.6697 0.7653 0.3199
H10_7 H 0.6028 0.6914 0.3759
N4_8 N 0.91905(11) 0.67773(16) 0.10550(13)
N5_6 N 0.93382(16) 0.58892(19) 0.31007(13)
Cu1_9 Cu 0.369848(23) 0.251575(16) 0.228577(19)
N1_9 N 0.37480(16) 0.16078(11) 0.27931(13)
N2_9 N 0.34439(16) 0.09201(11) 0.22784(13)
N3_7 N 0.39951(16) 0.07775(12) 0.35660(13)
C1_7 C 0.40689(21) 0.14957(15) 0.35571(17)
C2_7 C 0.44504(26) 0.20823(19) 0.4328(2)
H1_7 H 0.4434 0.2565 0.4164
H2_7 H 0.4135 0.1864 0.4906
C3_7 C 0.5268(4) 0.2304(3) 0.4531(4)
H3_7 H 0.5462 0.2672 0.5059
H4_7 H 0.5594 0.2556 0.3978
H5_9 H 0.5294 0.1831 0.4690
C4_9 C 0.36067(19) 0.04453(14) 0.27642(16)
N4_9 N 0.32227(16) 0.24133(11) 0.10550(13)
N5_7 N 0.41108(19) 0.34490(11) 0.31007(13)
N1_10 N 0.49411(11) 0.45264(12) 0.38736(13)
C1_8 C 0.48290(15) 0.40934(14) 0.31096(17)
C2_8 C 0.54156(19) 0.42985(18) 0.2339(2)
H1_8 H 0.5898 0.4797 0.2503
H2_8 H 0.5197 0.4395 0.1761
C3_8 C 0.5637(3) 0.3702(3) 0.2136(4)
H3_8 H 0.6005 0.3876 0.1608
H4_8 H 0.5889 0.3628 0.2689
H5_10 H 0.5164 0.3203 0.1977
C4_10 C 0.37786(14) 0.35052(13) 0.39025(16)
C5_6 C 0.29691(15) 0.29195(17) 0.4206(2)
H6_6 H 0.2930 0.2398 0.4273
H7_6 H 0.2866 0.3074 0.4827
C6_6 C 0.2352(2) 0.2853(3) 0.3523(3)
H8_6 H 0.1829 0.2458 0.3747
H9_8 H 0.2378 0.3364 0.3468
H10_8 H 0.2448 0.2695 0.2908
N1_11 N 0.54736(12) 0.04147(16) 0.38736(13)
C1_9 C 0.59066(14) 0.07356(21) 0.31096(17)
C2_9 C 0.57015(18) 0.11171(26) 0.2339(2)
H1_9 H 0.5203 0.1101 0.2503
H2_9 H 0.5605 0.0802 0.1761
C3_9 C 0.6298(3) 0.1935(4) 0.2136(4)
H3_9 H 0.6124 0.2129 0.1608
H4_9 H 0.6372 0.2261 0.2689
H5_11 H 0.6797 0.1961 0.1977
C4_11 C 0.64948(13) 0.02734(19) 0.39025(16)
C5_7 C 0.70805(17) 0.00496(23) 0.4206(2)
H6_7 H 0.7602 0.0532 0.4273
H7_7 H 0.6926 0.9792 0.4827
C6_7 C 0.7147(3) 0.9499(4) 0.3523(3)
H8_7 H 0.7542 0.9371 0.3747
H9_9 H 0.6636 0.9014 0.3468
H10_9 H 0.7305 0.9753 0.2908
H7_8 H 0.0208 0.7134 0.4827
C6_8 C 0.0501(4) 0.7648(2) 0.3523(3)
H8_8 H 0.0629 0.8171 0.3747
H9_10 H 0.0986 0.7622 0.3468
H10_10 H 0.0247 0.7552 0.2908
N1_12 N 0.95853(16) 0.50589(11) 0.38736(13)
C1_10 C 0.92644(21) 0.51710(15) 0.31096(17)
C2_10 C 0.88829(26) 0.45844(19) 0.2339(2)
H1_10 H 0.8899 0.4102 0.2503
H2_10 H 0.9198 0.4803 0.1761
C3_10 C 0.8065(4) 0.4363(3) 0.2136(4)
H3_10 H 0.7871 0.3995 0.1608
H4_10 H 0.7739 0.4111 0.2689
H5_12 H 0.8039 0.4836 0.1977
C4_12 C 0.97266(19) 0.62214(14) 0.39025(16)
C5_8 C 0.99504(23) 0.70309(15) 0.4206(2)
H6_8 H 0.9468 0.7070 0.4273
N1_13 N 0.82744(11) 0.11931(12) 0.05403(13)
C4_13 C 0.71119(14) 0.01719(13) 0.05692(16)
H9_11 H 0.5711 0.0031 0.0135
H5_13 H 0.8497 0.9870 0.8644
H10_11 H 0.5781 0.9362 0.9575
H5_14 H 0.0130 0.8628 0.8644
H10_12 H 0.0638 0.6420 0.9575
N1_14 N 0.88069(12) 0.70814(16) 0.05403(13)
C4_14 C 0.98281(13) 0.69401(19) 0.05692(16)
H9_12 H 0.9969 0.5681 0.0135
N1_15 N 0.29186(16) 0.17256(11) 0.05403(13)
C4_15 C 0.30599(19) 0.28881(14) 0.05692(16)
C5_9 C 0.32837(23) 0.36976(15) 0.0873(2)
H6_9 H 0.2801 0.3737 0.0940
H7_9 H 0.3541 0.3801 0.1494
C6_9 C 0.3834(4) 0.4315(2) 0.0190(3)
H8_9 H 0.3962 0.4838 0.0414
H9_13 H 0.4319 0.4289 0.0135
C1_11 C 0.25977(21) 0.18377(15) 0.97763(17)
C2_11 C 0.22162(26) 0.12511(19) 0.9006(2)
H1_11 H 0.2232 0.0769 0.9170
H2_11 H 0.2531 0.1470 0.8428
C3_11 C 0.1398(4) 0.1030(3) 0.8803(4)
H3_11 H 0.1204 0.0662 0.8275
H4_11 H 0.1072 0.0778 0.9356
H5_15 H 0.1372 0.1503 0.8644
H10_13 H 0.3580 0.4219 0.9575
N1_16 N 0.16078(11) 0.78597(12) 0.72069(13)
C1_12 C 0.14957(15) 0.74267(14) 0.64429(17)
C2_12 C 0.20823(19) 0.76318(18) 0.5672(2)
H1_12 H 0.2565 0.8130 0.5836
H2_12 H 0.1864 0.7728 0.5094
C3_12 C 0.2304(3) 0.7035(3) 0.5469(4)
H3_12 H 0.2672 0.7209 0.4941
H4_12 H 0.2556 0.6961 0.6022
H5_16 H 0.1831 0.6536 0.5310
C4_16 C 0.04453(14) 0.68385(13) 0.72358(16)
N1_17 N 0.21403(12) 0.37480(16) 0.72069(13)
C1_13 C 0.25733(14) 0.40689(21) 0.64429(17)
C2_13 C 0.23682(18) 0.44504(26) 0.5672(2)
H1_13 H 0.1870 0.4434 0.5836
H2_13 H 0.2272 0.4135 0.5094
C3_13 C 0.2965(3) 0.5268(4) 0.5469(4)
H3_13 H 0.2791 0.5462 0.4941
H4_13 H 0.3039 0.5594 0.6022
H5_17 H 0.3464 0.5294 0.5310
C4_17 C 0.31615(13) 0.36067(19) 0.72358(16)
C5_10 C 0.37472(17) 0.33829(23) 0.7539(2)
H6_10 H 0.4269 0.3865 0.7606
H7_10 H 0.3593 0.3125 0.8160
C6_10 C 0.3814(3) 0.2832(4) 0.6856(3)
H8_10 H 0.4209 0.2704 0.7080
H9_14 H 0.3303 0.2347 0.6801
H10_14 H 0.3972 0.3086 0.6241
N1_18 N 0.62520(16) 0.83922(11) 0.72069(13)
C1_14 C 0.59311(21) 0.85043(15) 0.64429(17)
C2_14 C 0.55496(26) 0.79177(19) 0.5672(2)
H1_14 H 0.5566 0.7435 0.5836
H2_14 H 0.5865 0.8136 0.5094
C3_14 C 0.4732(4) 0.7696(3) 0.5469(4)
H3_14 H 0.4538 0.7328 0.4941
H4_14 H 0.4406 0.7444 0.6022
H5_18 H 0.4706 0.8169 0.5310
C4_18 C 0.63933(19) 0.95547(14) 0.72358(16)
C5_11 C 0.36976(15) 0.04138(17) 0.9127(2)
H6_11 H 0.3737 0.0935 0.9060
H7_11 H 0.3801 0.0259 0.8506
C6_11 C 0.4315(2) 0.0480(3) 0.9810(3)
H8_11 H 0.4838 0.0875 0.9586
N3_8 N 0.25559(12) 0.98843(11) 0.02326(13)
C1_15 C 0.18377(15) 0.92399(14) 0.02237(17)
C2_15 C 0.12511(19) 0.90348(18) 0.0994(2)
H1_15 H 0.0769 0.8536 0.0830
H2_15 H 0.1470 0.8938 0.1572
C3_15 C 0.1030(3) 0.9631(3) 0.1197(4)
H3_15 H 0.0662 0.9457 0.1725
H4_15 H 0.0778 0.9705 0.0644
N5_8 N 0.98843(11) 0.73285(16) 0.97674(13)
C1_16 C 0.92399(14) 0.74023(21) 0.97763(17)
C2_16 C 0.90348(18) 0.77838(26) 0.9006(2)
H1_16 H 0.8536 0.7768 0.9170
H2_16 H 0.8938 0.7469 0.8428
C3_16 C 0.9631(3) 0.8602(4) 0.8803(4)
H3_16 H 0.9457 0.8796 0.8275
H4_16 H 0.9705 0.8928 0.9356
N3_9 N 0.01157(11) 0.26715(16) 0.02326(13)
C1_17 C 0.07601(14) 0.25977(21) 0.02237(17)
C2_17 C 0.09652(18) 0.22162(26) 0.0994(2)
H1_17 H 0.1464 0.2232 0.0830
H2_17 H 0.1062 0.2531 0.1572
C3_17 C 0.0369(3) 0.1398(4) 0.1197(4)
H3_17 H 0.0543 0.1204 0.1725
H4_17 H 0.0295 0.1072 0.0644
C5_12 C 0.95862(17) 0.32837(23) 0.9127(2)
H6_12 H 0.9065 0.2801 0.9060
H7_12 H 0.9741 0.3541 0.8506
C6_12 C 0.9520(3) 0.3834(4) 0.9810(3)
H8_12 H 0.9125 0.3962 0.9586
N5_9 N 0.74441(19) 0.01157(11) 0.97674(13)
C1_18 C 0.81623(15) 0.07601(14) 0.97763(17)
C2_18 C 0.87489(19) 0.09652(18) 0.9006(2)
H1_18 H 0.9231 0.1464 0.9170
H2_18 H 0.8530 0.1062 0.8428
C3_18 C 0.8970(3) 0.0369(3) 0.8803(4)
H3_18 H 0.9338 0.0543 0.8275
H4_18 H 0.9222 0.0295 0.9356
C5_13 C 0.03642(15) 0.37472(17) 0.2461(2)
H6_13 H 0.0403 0.4269 0.2394
H7_13 H 0.0467 0.3593 0.1840
C6_13 C 0.0981(2) 0.3814(3) 0.3144(3)
H8_13 H 0.1504 0.4209 0.2920
H9_15 H 0.0955 0.3303 0.3199
H10_15 H 0.0885 0.3972 0.3759
C5_14 C 0.33829(23) 0.96358(15) 0.2461(2)
H6_14 H 0.3865 0.9597 0.2394
H7_14 H 0.3125 0.9533 0.1840
C6_14 C 0.2832(4) 0.9019(2) 0.3144(3)
H8_14 H 0.2704 0.8496 0.2920
H9_16 H 0.2347 0.9045 0.3199
H10_16 H 0.3086 0.9115 0.3759
C5_15 C 0.63024(15) 0.95862(17) 0.0873(2)
H6_15 H 0.6263 0.9065 0.0940
H7_15 H 0.6199 0.9741 0.1494
C6_15 C 0.5685(2) 0.9520(3) 0.0190(3)
H8_15 H 0.5162 0.9125 0.0414
C5_16 C 0.04138(17) 0.67163(23) 0.0873(2)
H6_16 H 0.0935 0.7199 0.0940
H7_16 H 0.0259 0.6459 0.1494
C6_16 C 0.0480(3) 0.6166(4) 0.0190(3)
H8_16 H 0.0875 0.6038 0.0414
C5_17 C 0.96358(15) 0.62528(17) 0.7539(2)
H6_17 H 0.9597 0.5731 0.7606
H7_17 H 0.9533 0.6407 0.8160
C6_17 C 0.9019(2) 0.6186(3) 0.6856(3)
H8_17 H 0.8496 0.5791 0.7080
H9_17 H 0.9045 0.6697 0.6801
H10_17 H 0.9115 0.6028 0.6241
C5_18 C 0.66171(23) 0.03642(15) 0.7539(2)
H6_18 H 0.6135 0.0403 0.7606
H7_18 H 0.6875 0.0467 0.8160
C6_18 C 0.7168(4) 0.0981(2) 0.6856(3)
H8_18 H 0.7296 0.1504 0.7080
H9_18 H 0.7653 0.0955 0.6801
H10_18 H 0.6914 0.0885 0.6241
loop_
_geom_bond_atom_site_label_1
_geom_bond_atom_site_label_2
_geom_bond_site_symmetry_1
_geom_bond_site_symmetry_2
Cu1 N1 1_555 1_555
N1 N2 1_555 1_555
N2 C4 1_555 1_555
N3 C1 1_555 1_555
C1 N1 1_555 1_555
C2 C1 1_555 1_555
H1 C2 1_555 1_555
H2 C2 1_555 1_555
C3 C2 1_555 1_555
H3 C3 1_555 1_555
H4 C3 1_555 1_555
H5 C3 1_555 1_555
C4 N3 1_555 1_555
C5 C4 1_555 1_555
H6 C5 1_555 1_555
H7 C5 1_555 1_555
C6 C5 1_555 1_555
H8 C6 1_555 1_555
H9 C6 1_555 1_555
H10 C6 1_555 1_555
Cu2 N2 1_555 1_555
Cu3 N3 1_555 1_555
N4 Cu1 1_555 1_555
N5 Cu1 1_555 1_555
H8_2 C6_2 1_555 1_555
H9_2 C6_2 1_555 1_555
H10_2 C6_2 1_555 1_555
Cu1_2 N1_2 1_555 1_555
N1_2 N2_2 1_555 1_555
N2_2 C4_2 1_555 1_555
N3_2 C1_2 1_555 1_555
C1_2 N1_2 1_555 1_555
C2_2 C1_2 1_555 1_555
H1_2 C2_2 1_555 1_555
H2_2 C2_2 1_555 1_555
C3_2 C2_2 1_555 1_555
H3_2 C3_2 1_555 1_555
H4_2 C3_2 1_555 1_555
H5_2 C3_2 1_555 1_555
C4_2 N3_2 1_555 1_555
C5_2 C4_2 1_555 1_555
H6_2 C5_2 1_555 1_555
Cu3_2 N3_2 1_555 1_555
N5_2 Cu1_2 1_555 1_555
Cu1_3 N1_3 1_555 1_555
N1_3 N2_3 1_555 1_555
N2_3 C4_3 1_555 1_555
N3_3 C1_3 1_555 1_555
C1_3 N1_3 1_555 1_555
C2_3 C1_3 1_555 1_555
H1_3 C2_3 1_555 1_555
H2_3 C2_3 1_555 1_555
C3_3 C2_3 1_555 1_555
H3_3 C3_3 1_555 1_555
H4_3 C3_3 1_555 1_555
H5_3 C3_3 1_555 1_555
C4_3 N3_3 1_555 1_555
C5_3 C4_3 1_555 1_555
H6_3 C5_3 1_555 1_555
Cu3_3 N3_3 1_555 1_555
N5_3 Cu1_3 1_555 1_555
H8_3 C6_3 1_555 1_555
H9_3 C6_3 1_555 1_555
H10_3 C6_3 1_555 1_555
Cu1_4 N1_4 1_555 1_555
N1_4 N2_4 1_555 1_555
N2_4 C4_4 1_555 1_555
Cu3_2 N2_4 1_555 1_555
N4_4 Cu1_4 1_555 1_555
Cu1_5 N1_5 1_555 1_555
N1_5 N2_5 1_555 1_555
N2_5 C4_5 1_555 1_555
Cu3_3 N2_5 1_555 1_555
N4_5 Cu1_5 1_555 1_555
N5_4 Cu1_5 1_555 1_555
N3_4 C1_4 1_555 1_555
C2_4 C1_4 1_555 1_555
H1_4 C2_4 1_555 1_555
H2_4 C2_4 1_555 1_555
C3_4 C2_4 1_555 1_555
H3_4 C3_4 1_555 1_555
H4_4 C3_4 1_555 1_555
H5_6 C3_4 1_555 1_555
Cu3_6 N3_4 1_555 1_555
Cu1_6 N1_6 1_555 1_555
N1_6 N2_6 1_555 1_555
N2_6 C4_6 1_555 1_555
C5_4 C4_6 1_555 1_555
H6_4 C5_4 1_555 1_555
H7_4 C5_4 1_555 1_555
C6_4 C5_4 1_555 1_555
H8_4 C6_4 1_555 1_555
H9_6 C6_4 1_555 1_555
Cu3 N2_6 1_555 1_555
N4_6 Cu1_6 1_555 1_555
Cu1_7 N1_7 1_555 1_555
N1_7 N2_7 1_555 1_555
N2_7 C4_7 1_555 1_555
N3_5 C1_5 1_555 1_555
C1_5 N1_7 1_555 1_555
C2_5 C1_5 1_555 1_555
H1_5 C2_5 1_555 1_555
H2_5 C2_5 1_555 1_555
C3_5 C2_5 1_555 1_555
H3_5 C3_5 1_555 1_555
H4_5 C3_5 1_555 1_555
H5_7 C3_5 1_555 1_555
C4_7 N3_5 1_555 1_555
Cu3_5 N2_7 1_555 1_555
Cu2_3 N3_5 1_555 1_555
N4_7 Cu1_7 1_555 1_555
N5_5 Cu1_7 1_555 1_555
Cu1_8 N1_8 1_555 1_555
N1_8 N2_8 1_555 1_555
N2_8 C4_8 1_555 1_555
N3_6 C1_6 1_555 1_555
C1_6 N1_8 1_555 1_555
C2_6 C1_6 1_555 1_555
H1_6 C2_6 1_555 1_555
H2_6 C2_6 1_555 1_555
C3_6 C2_6 1_555 1_555
H3_6 C3_6 1_555 1_555
H4_6 C3_6 1_555 1_555
H5_8 C3_6 1_555 1_555
C4_8 N3_6 1_555 1_555
C5_5 C4_8 1_555 1_555
H6_5 C5_5 1_555 1_555
H7_5 C5_5 1_555 1_555
C6_5 C5_5 1_555 1_555
H8_5 C6_5 1_555 1_555
H9_7 C6_5 1_555 1_555
H10_7 C6_5 1_555 1_555
Cu3_6 N2_8 1_555 1_555
Cu2 N3_6 1_555 1_555
N4_8 Cu1_8 1_555 1_555
N5_6 Cu1_8 1_555 1_555
Cu1_9 N1_9 1_555 1_555
N1_9 N2_9 1_555 1_555
N2_9 C4_9 1_555 1_555
N3_7 C1_7 1_555 1_555
C1_7 N1_9 1_555 1_555
C2_7 C1_7 1_555 1_555
H1_7 C2_7 1_555 1_555
H2_7 C2_7 1_555 1_555
C3_7 C2_7 1_555 1_555
H3_7 C3_7 1_555 1_555
H4_7 C3_7 1_555 1_555
H5_9 C3_7 1_555 1_555
C4_9 N3_7 1_555 1_555
Cu3_4 N2_9 1_555 1_555
Cu2_2 N3_7 1_555 1_555
N4_9 Cu1_9 1_555 1_555
N5_7 Cu1_9 1_555 1_555
Cu2 N1_10 1_555 1_555
N1_10 N4 1_555 1_555
N4 C4_10 1_555 1_555
N5_7 C1_8 1_555 1_555
C1_8 N1_10 1_555 1_555
C2_8 C1_8 1_555 1_555
H1_8 C2_8 1_555 1_555
H2_8 C2_8 1_555 1_555
C3_8 C2_8 1_555 1_555
H3_8 C3_8 1_555 1_555
H4_8 C3_8 1_555 1_555
H5_10 C3_8 1_555 1_555
C4_10 N5_7 1_555 1_555
C5_6 C4_10 1_555 1_555
H6_6 C5_6 1_555 1_555
H7_6 C5_6 1_555 1_555
C6_6 C5_6 1_555 1_555
H8_6 C6_6 1_555 1_555
H9_8 C6_6 1_555 1_555
H10_8 C6_6 1_555 1_555
Cu2_2 N1_11 1_555 1_555
N1_11 N4_2 1_555 1_555
N4_2 C4_11 1_555 1_555
N5_5 C1_9 1_555 1_555
C1_9 N1_11 1_555 1_555
C2_9 C1_9 1_555 1_555
H1_9 C2_9 1_555 1_555
H2_9 C2_9 1_555 1_555
C3_9 C2_9 1_555 1_555
H3_9 C3_9 1_555 1_555
H4_9 C3_9 1_555 1_555
H5_11 C3_9 1_555 1_555
C4_11 N5_5 1_555 1_555
C5_7 C4_11 1_555 1_555
H6_7 C5_7 1_555 1_555
H8_7 C6_7 1_555 1_555
H9_9 C6_7 1_555 1_555
H10_9 C6_7 1_555 1_555
H8_8 C6_8 1_555 1_555
H9_10 C6_8 1_555 1_555
H10_10 C6_8 1_555 1_555
Cu2_3 N1_12 1_555 1_555
N1_12 N4_3 1_555 1_555
N4_3 C4_12 1_555 1_555
N5_6 C1_10 1_555 1_555
C1_10 N1_12 1_555 1_555
C2_10 C1_10 1_555 1_555
H1_10 C2_10 1_555 1_555
H2_10 C2_10 1_555 1_555
C3_10 C2_10 1_555 1_555
H3_10 C3_10 1_555 1_555
H4_10 C3_10 1_555 1_555
H5_12 C3_10 1_555 1_555
C4_12 N5_6 1_555 1_555
C5_8 C4_12 1_555 1_555
H6_8 C5_8 1_555 1_555
Cu3_5 N1_13 1_555 1_555
N1_13 N4_7 1_555 1_555
N4_7 C4_13 1_555 1_555
Cu3_6 N1_14 1_555 1_555
N1_14 N4_8 1_555 1_555
N4_8 C4_14 1_555 1_555
Cu3_4 N1_15 1_555 1_555
N1_15 N4_9 1_555 1_555
N4_9 C4_15 1_555 1_555
C5_9 C4_15 1_555 1_555
H6_9 C5_9 1_555 1_555
H7_9 C5_9 1_555 1_555
C6_9 C5_9 1_555 1_555
H8_9 C6_9 1_555 1_555
H9_13 C6_9 1_555 1_555
N5_4 C1_11 1_555 1_555
C2_11 C1_11 1_555 1_555
H1_11 C2_11 1_555 1_555
H2_11 C2_11 1_555 1_555
C3_11 C2_11 1_555 1_555
H3_11 C3_11 1_555 1_555
H4_11 C3_11 1_555 1_555
H5_15 C3_11 1_555 1_555
Cu3_2 N1_16 1_555 1_555
N1_16 N4_4 1_555 1_555
N4_4 C4_16 1_555 1_555
N5_3 C1_12 1_555 1_555
C1_12 N1_16 1_555 1_555
C2_12 C1_12 1_555 1_555
H1_12 C2_12 1_555 1_555
H2_12 C2_12 1_555 1_555
C3_12 C2_12 1_555 1_555
H3_12 C3_12 1_555 1_555
H4_12 C3_12 1_555 1_555
H5_16 C3_12 1_555 1_555
C4_16 N5_3 1_555 1_555
Cu3_3 N1_17 1_555 1_555
N1_17 N4_5 1_555 1_555
N4_5 C4_17 1_555 1_555
N5 C1_13 1_555 1_555
C1_13 N1_17 1_555 1_555
C2_13 C1_13 1_555 1_555
H1_13 C2_13 1_555 1_555
H2_13 C2_13 1_555 1_555
C3_13 C2_13 1_555 1_555
H3_13 C3_13 1_555 1_555
H4_13 C3_13 1_555 1_555
H5_17 C3_13 1_555 1_555
C4_17 N5 1_555 1_555
C5_10 C4_17 1_555 1_555
H6_10 C5_10 1_555 1_555
H7_10 C5_10 1_555 1_555
C6_10 C5_10 1_555 1_555
H8_10 C6_10 1_555 1_555
H9_14 C6_10 1_555 1_555
H10_14 C6_10 1_555 1_555
Cu3 N1_18 1_555 1_555
N1_18 N4_6 1_555 1_555
N4_6 C4_18 1_555 1_555
N5_2 C1_14 1_555 1_555
C1_14 N1_18 1_555 1_555
C2_14 C1_14 1_555 1_555
H1_14 C2_14 1_555 1_555
H2_14 C2_14 1_555 1_555
C3_14 C2_14 1_555 1_555
H3_14 C3_14 1_555 1_555
H4_14 C3_14 1_555 1_555
H5_18 C3_14 1_555 1_555
C4_18 N5_2 1_555 1_555
H6_11 C5_11 1_555 1_555
H7_11 C5_11 1_555 1_555
C6_11 C5_11 1_555 1_555
H8_11 C6_11 1_555 1_555
N3_8 C1_15 1_555 1_555
C2_15 C1_15 1_555 1_555
H1_15 C2_15 1_555 1_555
H2_15 C2_15 1_555 1_555
C3_15 C2_15 1_555 1_555
H3_15 C3_15 1_555 1_555
H4_15 C3_15 1_555 1_555
N5_8 C1_16 1_555 1_555
C2_16 C1_16 1_555 1_555
H1_16 C2_16 1_555 1_555
H2_16 C2_16 1_555 1_555
C3_16 C2_16 1_555 1_555
H3_16 C3_16 1_555 1_555
H4_16 C3_16 1_555 1_555
N3_9 C1_17 1_555 1_555
C2_17 C1_17 1_555 1_555
H1_17 C2_17 1_555 1_555
H2_17 C2_17 1_555 1_555
C3_17 C2_17 1_555 1_555
H3_17 C3_17 1_555 1_555
H4_17 C3_17 1_555 1_555
H6_12 C5_12 1_555 1_555
H7_12 C5_12 1_555 1_555
C6_12 C5_12 1_555 1_555
H8_12 C6_12 1_555 1_555
N5_9 C1_18 1_555 1_555
C2_18 C1_18 1_555 1_555
H1_18 C2_18 1_555 1_555
H2_18 C2_18 1_555 1_555
C3_18 C2_18 1_555 1_555
H3_18 C3_18 1_555 1_555
H4_18 C3_18 1_555 1_555
H6_13 C5_13 1_555 1_555
H7_13 C5_13 1_555 1_555
C6_13 C5_13 1_555 1_555
H8_13 C6_13 1_555 1_555
H9_15 C6_13 1_555 1_555
H10_15 C6_13 1_555 1_555
H6_14 C5_14 1_555 1_555
H7_14 C5_14 1_555 1_555
C6_14 C5_14 1_555 1_555
H8_14 C6_14 1_555 1_555
H9_16 C6_14 1_555 1_555
H10_16 C6_14 1_555 1_555
H6_15 C5_15 1_555 1_555
H7_15 C5_15 1_555 1_555
C6_15 C5_15 1_555 1_555
H8_15 C6_15 1_555 1_555
H6_16 C5_16 1_555 1_555
H7_16 C5_16 1_555 1_555
C6_16 C5_16 1_555 1_555
H8_16 C6_16 1_555 1_555
H6_17 C5_17 1_555 1_555
H7_17 C5_17 1_555 1_555
C6_17 C5_17 1_555 1_555
H8_17 C6_17 1_555 1_555
H9_17 C6_17 1_555 1_555
H10_17 C6_17 1_555 1_555
H6_18 C5_18 1_555 1_555
H7_18 C5_18 1_555 1_555
C6_18 C5_18 1_555 1_555
H8_18 C6_18 1_555 1_555
H9_18 C6_18 1_555 1_555
H10_18 C6_18 1_555 1_555

#END
