
###############################################################################
#
# This file contains modified crystal structure data generated from the
# MOF subset of the Cambridge Structural Database (CSD) v543 
# hosted by the Cambridge Crystallographic Data Centre (CCDC).
#
# This work is licensed under the Creative Commons
# Attribution-NonCommercial-ShareAlike 4.0 International License.
# To view a copy of this license, visit
# http://creativecommons.org/licenses/by-nc-sa/4.0/
# or send a letter to
# Creative Commons, PO Box 1866, Mountain View, CA 94042, USA.
#
# CIF created using the CSD Python API on 29 September 2022
# The structure has been converted into the P1 space group
# The structure has a 3D framework
# The original CSD entry SUHPIV is in the rhombohedral crystal system
# The framework has been calculated to contain at least 10.0% void space
# The void calculation uses a probe of radius 1.32A, grid spacing 0.4
#
###############################################################################

data_SUHPIV
_chemical_formula_moiety         '(C108 H180 Cu18 N54)n'
_symmetry_cell_setting           triclinic
_symmetry_space_group_name_H-M   'P 1'
_symmetry_Int_Tables_number      1
_space_group_name_Hall           'P 1'
loop_
_symmetry_equiv_pos_site_id
_symmetry_equiv_pos_as_xyz
1 x,y,z
_cell_length_a                   19.7253(14)
_cell_length_b                   19.7253(14)
_cell_length_c                   14.1969(10)
_cell_angle_alpha                90
_cell_angle_beta                 90
_cell_angle_gamma                120
_cell_volume                     4783.78
loop_
_atom_site_label
_atom_site_type_symbol
_atom_site_fract_x
_atom_site_fract_y
_atom_site_fract_z
Cu1 Cu 0.41516(2) 0.45190(2) 0.56181(3)
N1 N 0.50559(14) 0.54748(14) 0.61255(18)
N2 N 0.57453(14) 0.58575(14) 0.56072(18)
N3 N 0.58877(14) 0.65547(13) 0.68986(18)
C1 C 0.51686(18) 0.59111(18) 0.6887(2)
C2 C 0.4582(2) 0.5702(2) 0.7663(3)
H1 H 0.4103 0.5207 0.7495
H2 H 0.4798 0.5607 0.8245
C3 C 0.4364(3) 0.6297(3) 0.7860(5)
H3 H 0.3995 0.6125 0.8389
H4 H 0.4117 0.6372 0.7302
H5 H 0.4833 0.6792 0.8023
C4 C 0.62204(17) 0.64932(17) 0.6096(2)
C5 C 0.70296(19) 0.7081(2) 0.5796(3)
H6 H 0.7068 0.7599 0.5737
H7 H 0.7133 0.6934 0.5168
C6 C 0.7641(2) 0.7143(3) 0.6473(4)
H8 H 0.8160 0.7537 0.6247
H9 H 0.7615 0.6635 0.6522
H10 H 0.7547 0.7297 0.7094
Cu2 Cu 0.58484(2) 0.54810(2) 0.43819(3)
Cu3 Cu 0.62993(3) 0.74849(2) 0.77152(3)
N4 N 0.42547(14) 0.41425(14) 0.43928(18)
N5 N 0.32214(13) 0.40003(19) 0.64347(18)
H7_2 H 0.3066 0.0199 0.5168
C6_2 C 0.2857(3) 0.0498(4) 0.6473(4)
H8_2 H 0.2463 0.0623 0.6247
H9_2 H 0.3365 0.0980 0.6522
H10_2 H 0.2703 0.0250 0.7094
Cu2_2 Cu 0.45190(2) 0.03674(3) 0.43819(3)
N4_2 N 0.58575(14) 0.01122(20) 0.43928(18)
Cu1_2 Cu 0.54810(2) 0.96326(3) 0.56181(3)
N1_2 N 0.45252(14) 0.95811(20) 0.61255(18)
N2_2 N 0.41425(14) 0.98878(20) 0.56072(18)
N3_2 N 0.34453(13) 0.93330(19) 0.68986(18)
C1_2 C 0.40889(18) 0.92575(25) 0.6887(2)
C2_2 C 0.4298(2) 0.8880(3) 0.7663(3)
H1_2 H 0.4793 0.8896 0.7495
H2_2 H 0.4393 0.9191 0.8245
C3_2 C 0.3703(3) 0.8067(4) 0.7860(5)
H3_2 H 0.3875 0.7870 0.8389
H4_2 H 0.3628 0.7745 0.7302
H5_2 H 0.3208 0.8041 0.8023
C4_2 C 0.35068(17) 0.97272(24) 0.6096(2)
C5_2 C 0.2919(2) 0.99486(28) 0.5796(3)
H6_2 H 0.2401 0.9469 0.5737
Cu3_2 Cu 0.25151(2) 0.88143(4) 0.77152(3)
N5_2 N 0.59997(19) 0.92210(23) 0.64347(18)
Cu1_3 Cu 0.03674(3) 0.58484(2) 0.56181(3)
N1_3 N 0.04189(20) 0.49441(14) 0.61255(18)
N2_3 N 0.01122(20) 0.42547(14) 0.56072(18)
N3_3 N 0.06670(19) 0.41123(14) 0.68986(18)
C1_3 C 0.07425(25) 0.48314(18) 0.6887(2)
C2_3 C 0.1120(3) 0.5418(2) 0.7663(3)
H1_3 H 0.1104 0.5897 0.7495
H2_3 H 0.0809 0.5202 0.8245
C3_3 C 0.1933(4) 0.5636(3) 0.7860(5)
H3_3 H 0.2130 0.6005 0.8389
H4_3 H 0.2255 0.5883 0.7302
H5_3 H 0.1959 0.5167 0.8023
C4_3 C 0.02728(24) 0.37796(17) 0.6096(2)
C5_3 C 0.00514(28) 0.29704(19) 0.5796(3)
H6_3 H 0.0531 0.2932 0.5737
Cu3_3 Cu 0.11857(4) 0.37007(3) 0.77152(3)
N5_3 N 0.07790(23) 0.67786(13) 0.64347(18)
H7_3 H 0.9801 0.2867 0.5168
C6_3 C 0.9502(4) 0.2359(2) 0.6473(4)
H8_3 H 0.9377 0.1840 0.6247
H9_3 H 0.9020 0.2385 0.6522
H10_3 H 0.9750 0.2453 0.7094
Cu2_3 Cu 0.96326(3) 0.41516(2) 0.43819(3)
N4_3 N 0.98878(20) 0.57453(14) 0.43928(18)
H5_4 H 0.1500 0.0125 0.1356
H10_4 H 0.4214 0.0630 0.0427
Cu3_4 Cu 0.29659(3) 0.08183(2) 0.10486(3)
Cu1_4 Cu 0.08183(2) 0.78523(2) 0.89514(3)
N1_4 N 0.17226(14) 0.88081(14) 0.94588(18)
N2_4 N 0.24120(14) 0.91908(14) 0.89405(18)
C4_4 C 0.28871(17) 0.98265(17) 0.9429(2)
H9_4 H 0.4282 0.9968 0.9855
N4_4 N 0.09214(14) 0.74758(14) 0.77261(18)
Cu1_5 Cu 0.21477(2) 0.29659(3) 0.89514(3)
N1_5 N 0.11919(14) 0.29144(20) 0.94588(18)
N2_5 N 0.08092(14) 0.32211(20) 0.89405(18)
C4_5 C 0.01735(17) 0.30605(24) 0.9429(2)
H9_5 H 0.0032 0.4313 0.9855
N4_5 N 0.25242(14) 0.34455(20) 0.77261(18)
N5_4 N 0.26663(19) 0.25544(23) 0.97681(18)
H5_5 H 0.9875 0.1374 0.1356
H10_5 H 0.9370 0.3583 0.0427
Cu3_5 Cu 0.91817(2) 0.21477(4) 0.10486(3)
N3_4 N 0.73337(19) 0.74456(14) 0.02319(18)
C1_4 C 0.74092(25) 0.81647(18) 0.0220(2)
C2_4 C 0.7787(3) 0.8751(2) 0.0996(3)
H1_4 H 0.7771 0.9230 0.0828
H2_4 H 0.7476 0.8535 0.1578
C3_4 C 0.8600(4) 0.8969(3) 0.1193(5)
H3_4 H 0.8797 0.9338 0.1722
H4_4 H 0.8922 0.9216 0.0635
H5_6 H 0.8626 0.8500 0.1356
H10_6 H 0.6417 0.5786 0.0427
Cu3_6 Cu 0.78523(4) 0.70341(3) 0.10486(3)
Cu1_6 Cu 0.70341(3) 0.91817(2) 0.89514(3)
N1_6 N 0.70856(20) 0.82774(14) 0.94588(18)
N2_6 N 0.67789(20) 0.75880(14) 0.89405(18)
C4_6 C 0.69395(24) 0.71129(17) 0.9429(2)
C5_4 C 0.67181(28) 0.63037(19) 0.9129(3)
H6_4 H 0.7198 0.6265 0.9070
H7_4 H 0.6468 0.6200 0.8501
C6_4 C 0.6169(4) 0.5692(2) 0.9806(4)
H8_4 H 0.6044 0.5173 0.9580
H9_6 H 0.5687 0.5718 0.9855
N4_6 N 0.65545(20) 0.90786(14) 0.77261(18)
Cu1_7 Cu 0.74849(2) 0.11857(2) 0.22848(3)
N1_7 N 0.83892(14) 0.21415(14) 0.27922(18)
N2_7 N 0.90786(14) 0.25242(14) 0.22739(18)
N3_5 N 0.92210(14) 0.32214(13) 0.35653(18)
C1_5 C 0.85019(18) 0.25778(18) 0.3554(2)
C2_5 C 0.7915(2) 0.2369(2) 0.4330(3)
H1_5 H 0.7436 0.1874 0.4162
H2_5 H 0.8131 0.2274 0.4912
C3_5 C 0.7697(3) 0.2964(3) 0.4527(5)
H3_5 H 0.7328 0.2792 0.5056
H4_5 H 0.7450 0.3039 0.3969
H5_7 H 0.8166 0.3459 0.4690
C4_7 C 0.95537(17) 0.31599(17) 0.2763(2)
N4_7 N 0.75880(14) 0.08092(14) 0.10595(18)
N5_5 N 0.65547(13) 0.06670(19) 0.31014(18)
Cu1_8 Cu 0.88143(2) 0.62993(3) 0.22848(3)
N1_8 N 0.78585(14) 0.62478(20) 0.27922(18)
N2_8 N 0.74758(14) 0.65545(20) 0.22739(18)
N3_6 N 0.67786(13) 0.59997(19) 0.35653(18)
C1_6 C 0.74222(18) 0.59242(25) 0.3554(2)
C2_6 C 0.7631(2) 0.5547(3) 0.4330(3)
H1_6 H 0.8126 0.5563 0.4162
H2_6 H 0.7726 0.5858 0.4912
C3_6 C 0.7036(3) 0.4734(4) 0.4527(5)
H3_6 H 0.7208 0.4537 0.5056
H4_6 H 0.6961 0.4412 0.3969
H5_8 H 0.6541 0.4708 0.4690
C4_8 C 0.68401(17) 0.63939(24) 0.2763(2)
C5_5 C 0.6252(2) 0.66153(28) 0.2463(3)
H6_5 H 0.5734 0.6136 0.2404
H7_5 H 0.6399 0.6866 0.1835
C6_5 C 0.6190(3) 0.7165(4) 0.3140(4)
H8_5 H 0.5796 0.7290 0.2914
H9_7 H 0.6698 0.7647 0.3189
H10_7 H 0.6036 0.6917 0.3761
N4_8 N 0.91908(14) 0.67789(20) 0.10595(18)
N5_6 N 0.93330(19) 0.58877(23) 0.31014(18)
Cu1_9 Cu 0.37007(3) 0.25151(2) 0.22848(3)
N1_9 N 0.37522(20) 0.16108(14) 0.27922(18)
N2_9 N 0.34455(20) 0.09214(14) 0.22739(18)
N3_7 N 0.40003(19) 0.07790(14) 0.35653(18)
C1_7 C 0.40758(25) 0.14981(18) 0.3554(2)
C2_7 C 0.4453(3) 0.2085(2) 0.4330(3)
H1_7 H 0.4437 0.2564 0.4162
H2_7 H 0.4142 0.1869 0.4912
C3_7 C 0.5266(4) 0.2303(3) 0.4527(5)
H3_7 H 0.5463 0.2672 0.5056
H4_7 H 0.5588 0.2550 0.3969
H5_9 H 0.5292 0.1834 0.4690
C4_9 C 0.36061(24) 0.04463(17) 0.2763(2)
N4_9 N 0.32211(20) 0.24120(14) 0.10595(18)
N5_7 N 0.41123(23) 0.34453(13) 0.31014(18)
N1_10 N 0.49441(14) 0.45252(14) 0.38745(18)
C1_8 C 0.48314(18) 0.40889(18) 0.3113(2)
C2_8 C 0.5418(2) 0.4298(2) 0.2337(3)
H1_8 H 0.5897 0.4793 0.2505
H2_8 H 0.5202 0.4393 0.1755
C3_8 C 0.5636(3) 0.3703(3) 0.2140(5)
H3_8 H 0.6005 0.3875 0.1611
H4_8 H 0.5883 0.3628 0.2698
H5_10 H 0.5167 0.3208 0.1977
C4_10 C 0.37796(17) 0.35068(17) 0.3904(2)
C5_6 C 0.29704(19) 0.2919(2) 0.4204(3)
H6_6 H 0.2932 0.2401 0.4263
H7_6 H 0.2867 0.3066 0.4832
C6_6 C 0.2359(2) 0.2857(3) 0.3527(4)
H8_6 H 0.1840 0.2463 0.3753
H9_8 H 0.2385 0.3365 0.3478
H10_8 H 0.2453 0.2703 0.2906
N1_11 N 0.54748(14) 0.04189(20) 0.38745(18)
C1_9 C 0.59111(18) 0.07425(25) 0.3113(2)
C2_9 C 0.5702(2) 0.1120(3) 0.2337(3)
H1_9 H 0.5207 0.1104 0.2505
H2_9 H 0.5607 0.0809 0.1755
C3_9 C 0.6297(3) 0.1933(4) 0.2140(5)
H3_9 H 0.6125 0.2130 0.1611
H4_9 H 0.6372 0.2255 0.2698
H5_11 H 0.6792 0.1959 0.1977
C4_11 C 0.64932(17) 0.02728(24) 0.3904(2)
C5_7 C 0.7081(2) 0.00514(28) 0.4204(3)
H6_7 H 0.7599 0.0531 0.4263
H7_7 H 0.6934 0.9801 0.4832
C6_7 C 0.7143(3) 0.9502(4) 0.3527(4)
H8_7 H 0.7537 0.9377 0.3753
H9_9 H 0.6635 0.9020 0.3478
H10_9 H 0.7297 0.9750 0.2906
H7_8 H 0.0199 0.7133 0.4832
C6_8 C 0.0498(4) 0.7641(2) 0.3527(4)
H8_8 H 0.0623 0.8160 0.3753
H9_10 H 0.0980 0.7615 0.3478
H10_10 H 0.0250 0.7547 0.2906
N1_12 N 0.95811(20) 0.50559(14) 0.38745(18)
C1_10 C 0.92575(25) 0.51686(18) 0.3113(2)
C2_10 C 0.8880(3) 0.4582(2) 0.2337(3)
H1_10 H 0.8896 0.4103 0.2505
H2_10 H 0.9191 0.4798 0.1755
C3_10 C 0.8067(4) 0.4364(3) 0.2140(5)
H3_10 H 0.7870 0.3995 0.1611
H4_10 H 0.7745 0.4117 0.2698
H5_12 H 0.8041 0.4833 0.1977
C4_12 C 0.97272(24) 0.62204(17) 0.3904(2)
C5_8 C 0.99486(28) 0.70296(19) 0.4204(3)
H6_8 H 0.9469 0.7068 0.4263
N1_13 N 0.82774(14) 0.11919(14) 0.05412(18)
C4_13 C 0.71129(17) 0.01735(17) 0.0571(2)
H9_11 H 0.5718 0.0032 0.0145
H5_13 H 0.8500 0.9875 0.8644
H10_11 H 0.5786 0.9370 0.9573
H5_14 H 0.0125 0.8626 0.8644
H10_12 H 0.0630 0.6417 0.9573
N1_14 N 0.88081(14) 0.70856(20) 0.05412(18)
C4_14 C 0.98265(17) 0.69395(24) 0.0571(2)
H9_12 H 0.9968 0.5687 0.0145
N1_15 N 0.29144(20) 0.17226(14) 0.05412(18)
C4_15 C 0.30605(24) 0.28871(17) 0.0571(2)
C5_9 C 0.32819(28) 0.36963(19) 0.0871(3)
H6_9 H 0.2802 0.3735 0.0930
H7_9 H 0.3532 0.3800 0.1499
C6_9 C 0.3831(4) 0.4308(2) 0.0194(4)
H8_9 H 0.3956 0.4827 0.0420
H9_13 H 0.4313 0.4282 0.0145
C1_11 C 0.25908(25) 0.18353(18) 0.9780(2)
C2_11 C 0.2213(3) 0.1249(2) 0.9004(3)
H1_11 H 0.2229 0.0770 0.9172
H2_11 H 0.2524 0.1465 0.8422
C3_11 C 0.1400(4) 0.1031(3) 0.8807(5)
H3_11 H 0.1203 0.0662 0.8278
H4_11 H 0.1078 0.0784 0.9365
H5_15 H 0.1374 0.1500 0.8644
H10_13 H 0.3583 0.4214 0.9573
N1_16 N 0.16108(14) 0.78585(14) 0.72078(18)
C1_12 C 0.14981(18) 0.74222(18) 0.6446(2)
C2_12 C 0.2085(2) 0.7631(2) 0.5670(3)
H1_12 H 0.2564 0.8126 0.5838
H2_12 H 0.1869 0.7726 0.5088
C3_12 C 0.2303(3) 0.7036(3) 0.5473(5)
H3_12 H 0.2672 0.7208 0.4944
H4_12 H 0.2550 0.6961 0.6031
H5_16 H 0.1834 0.6541 0.5310
C4_16 C 0.04463(17) 0.68401(17) 0.7237(2)
N1_17 N 0.21415(14) 0.37522(20) 0.72078(18)
C1_13 C 0.25778(18) 0.40758(25) 0.6446(2)
C2_13 C 0.2369(2) 0.4453(3) 0.5670(3)
H1_13 H 0.1874 0.4437 0.5838
H2_13 H 0.2274 0.4142 0.5088
C3_13 C 0.2964(3) 0.5266(4) 0.5473(5)
H3_13 H 0.2792 0.5463 0.4944
H4_13 H 0.3039 0.5588 0.6031
H5_17 H 0.3459 0.5292 0.5310
C4_17 C 0.31599(17) 0.36061(24) 0.7237(2)
C5_10 C 0.3748(2) 0.33847(28) 0.7537(3)
H6_10 H 0.4266 0.3864 0.7596
H7_10 H 0.3601 0.3134 0.8165
C6_10 C 0.3810(3) 0.2835(4) 0.6860(4)
H8_10 H 0.4204 0.2710 0.7086
H9_14 H 0.3302 0.2353 0.6811
H10_14 H 0.3964 0.3083 0.6239
N1_18 N 0.62478(20) 0.83892(14) 0.72078(18)
C1_14 C 0.59242(25) 0.85019(18) 0.6446(2)
C2_14 C 0.5547(3) 0.7915(2) 0.5670(3)
H1_14 H 0.5563 0.7436 0.5838
H2_14 H 0.5858 0.8131 0.5088
C3_14 C 0.4734(4) 0.7697(3) 0.5473(5)
H3_14 H 0.4537 0.7328 0.4944
H4_14 H 0.4412 0.7450 0.6031
H5_18 H 0.4708 0.8166 0.5310
C4_18 C 0.63939(24) 0.95537(17) 0.7237(2)
C5_11 C 0.36963(19) 0.0414(2) 0.9129(3)
H6_11 H 0.3735 0.0932 0.9070
H7_11 H 0.3800 0.0267 0.8501
C6_11 C 0.4308(2) 0.0476(3) 0.9806(4)
H8_11 H 0.4827 0.0870 0.9580
N3_8 N 0.25544(14) 0.98880(13) 0.02319(18)
C1_15 C 0.18353(18) 0.92444(18) 0.0220(2)
C2_15 C 0.1249(2) 0.9035(2) 0.0996(3)
H1_15 H 0.0770 0.8540 0.0828
H2_15 H 0.1465 0.8940 0.1578
C3_15 C 0.1031(3) 0.9630(3) 0.1193(5)
H3_15 H 0.0662 0.9458 0.1722
H4_15 H 0.0784 0.9705 0.0635
N5_8 N 0.98880(13) 0.73337(19) 0.97681(18)
C1_16 C 0.92444(18) 0.74092(25) 0.9780(2)
C2_16 C 0.9035(2) 0.7787(3) 0.9004(3)
H1_16 H 0.8540 0.7771 0.9172
H2_16 H 0.8940 0.7476 0.8422
C3_16 C 0.9630(3) 0.8600(4) 0.8807(5)
H3_16 H 0.9458 0.8797 0.8278
H4_16 H 0.9705 0.8922 0.9365
N3_9 N 0.01120(13) 0.26663(19) 0.02319(18)
C1_17 C 0.07556(18) 0.25908(25) 0.0220(2)
C2_17 C 0.0965(2) 0.2213(3) 0.0996(3)
H1_17 H 0.1460 0.2229 0.0828
H2_17 H 0.1060 0.2524 0.1578
C3_17 C 0.0370(3) 0.1400(4) 0.1193(5)
H3_17 H 0.0542 0.1203 0.1722
H4_17 H 0.0295 0.1078 0.0635
C5_12 C 0.9586(2) 0.32819(28) 0.9129(3)
H6_12 H 0.9068 0.2802 0.9070
H7_12 H 0.9733 0.3532 0.8501
C6_12 C 0.9524(3) 0.3831(4) 0.9806(4)
H8_12 H 0.9130 0.3956 0.9580
N5_9 N 0.74456(23) 0.01120(13) 0.97681(18)
C1_18 C 0.81647(18) 0.07556(18) 0.9780(2)
C2_18 C 0.8751(2) 0.0965(2) 0.9004(3)
H1_18 H 0.9230 0.1460 0.9172
H2_18 H 0.8535 0.1060 0.8422
C3_18 C 0.8969(3) 0.0370(3) 0.8807(5)
H3_18 H 0.9338 0.0542 0.8278
H4_18 H 0.9216 0.0295 0.9365
C5_13 C 0.03629(19) 0.3748(2) 0.2463(3)
H6_13 H 0.0401 0.4266 0.2404
H7_13 H 0.0466 0.3601 0.1835
C6_13 C 0.0974(2) 0.3810(3) 0.3140(4)
H8_13 H 0.1493 0.4204 0.2914
H9_15 H 0.0948 0.3302 0.3189
H10_15 H 0.0880 0.3964 0.3761
C5_14 C 0.33847(28) 0.96371(19) 0.2463(3)
H6_14 H 0.3864 0.9599 0.2404
H7_14 H 0.3134 0.9534 0.1835
C6_14 C 0.2835(4) 0.9026(2) 0.3140(4)
H8_14 H 0.2710 0.8507 0.2914
H9_16 H 0.2353 0.9052 0.3189
H10_16 H 0.3083 0.9120 0.3761
C5_15 C 0.63037(19) 0.9586(2) 0.0871(3)
H6_15 H 0.6265 0.9068 0.0930
H7_15 H 0.6200 0.9733 0.1499
C6_15 C 0.5692(2) 0.9524(3) 0.0194(4)
H8_15 H 0.5173 0.9130 0.0420
C5_16 C 0.0414(2) 0.67181(28) 0.0871(3)
H6_16 H 0.0932 0.7198 0.0930
H7_16 H 0.0267 0.6468 0.1499
C6_16 C 0.0476(3) 0.6169(4) 0.0194(4)
H8_16 H 0.0870 0.6044 0.0420
C5_17 C 0.96371(19) 0.6252(2) 0.7537(3)
H6_17 H 0.9599 0.5734 0.7596
H7_17 H 0.9534 0.6399 0.8165
C6_17 C 0.9026(2) 0.6190(3) 0.6860(4)
H8_17 H 0.8507 0.5796 0.7086
H9_17 H 0.9052 0.6698 0.6811
H10_17 H 0.9120 0.6036 0.6239
C5_18 C 0.66153(28) 0.03629(19) 0.7537(3)
H6_18 H 0.6136 0.0401 0.7596
H7_18 H 0.6866 0.0466 0.8165
C6_18 C 0.7165(4) 0.0974(2) 0.6860(4)
H8_18 H 0.7290 0.1493 0.7086
H9_18 H 0.7647 0.0948 0.6811
H10_18 H 0.6917 0.0880 0.6239
loop_
_geom_bond_atom_site_label_1
_geom_bond_atom_site_label_2
_geom_bond_site_symmetry_1
_geom_bond_site_symmetry_2
Cu1 N1 1_555 1_555
N1 N2 1_555 1_555
N2 C4 1_555 1_555
N3 C1 1_555 1_555
C1 N1 1_555 1_555
C2 C1 1_555 1_555
H1 C2 1_555 1_555
H2 C2 1_555 1_555
C3 C2 1_555 1_555
H3 C3 1_555 1_555
H4 C3 1_555 1_555
H5 C3 1_555 1_555
C4 N3 1_555 1_555
C5 C4 1_555 1_555
H6 C5 1_555 1_555
H7 C5 1_555 1_555
C6 C5 1_555 1_555
H8 C6 1_555 1_555
H9 C6 1_555 1_555
H10 C6 1_555 1_555
Cu2 N2 1_555 1_555
Cu3 N3 1_555 1_555
N4 Cu1 1_555 1_555
N5 Cu1 1_555 1_555
H8_2 C6_2 1_555 1_555
H9_2 C6_2 1_555 1_555
H10_2 C6_2 1_555 1_555
Cu1_2 N1_2 1_555 1_555
N1_2 N2_2 1_555 1_555
N2_2 C4_2 1_555 1_555
N3_2 C1_2 1_555 1_555
C1_2 N1_2 1_555 1_555
C2_2 C1_2 1_555 1_555
H1_2 C2_2 1_555 1_555
H2_2 C2_2 1_555 1_555
C3_2 C2_2 1_555 1_555
H3_2 C3_2 1_555 1_555
H4_2 C3_2 1_555 1_555
H5_2 C3_2 1_555 1_555
C4_2 N3_2 1_555 1_555
C5_2 C4_2 1_555 1_555
H6_2 C5_2 1_555 1_555
Cu3_2 N3_2 1_555 1_555
N5_2 Cu1_2 1_555 1_555
Cu1_3 N1_3 1_555 1_555
N1_3 N2_3 1_555 1_555
N2_3 C4_3 1_555 1_555
N3_3 C1_3 1_555 1_555
C1_3 N1_3 1_555 1_555
C2_3 C1_3 1_555 1_555
H1_3 C2_3 1_555 1_555
H2_3 C2_3 1_555 1_555
C3_3 C2_3 1_555 1_555
H3_3 C3_3 1_555 1_555
H4_3 C3_3 1_555 1_555
H5_3 C3_3 1_555 1_555
C4_3 N3_3 1_555 1_555
C5_3 C4_3 1_555 1_555
H6_3 C5_3 1_555 1_555
Cu3_3 N3_3 1_555 1_555
N5_3 Cu1_3 1_555 1_555
H8_3 C6_3 1_555 1_555
H9_3 C6_3 1_555 1_555
H10_3 C6_3 1_555 1_555
Cu1_4 N1_4 1_555 1_555
N1_4 N2_4 1_555 1_555
N2_4 C4_4 1_555 1_555
Cu3_2 N2_4 1_555 1_555
N4_4 Cu1_4 1_555 1_555
Cu1_5 N1_5 1_555 1_555
N1_5 N2_5 1_555 1_555
N2_5 C4_5 1_555 1_555
Cu3_3 N2_5 1_555 1_555
N4_5 Cu1_5 1_555 1_555
N5_4 Cu1_5 1_555 1_555
N3_4 C1_4 1_555 1_555
C2_4 C1_4 1_555 1_555
H1_4 C2_4 1_555 1_555
H2_4 C2_4 1_555 1_555
C3_4 C2_4 1_555 1_555
H3_4 C3_4 1_555 1_555
H4_4 C3_4 1_555 1_555
H5_6 C3_4 1_555 1_555
Cu3_6 N3_4 1_555 1_555
Cu1_6 N1_6 1_555 1_555
N1_6 N2_6 1_555 1_555
N2_6 C4_6 1_555 1_555
C5_4 C4_6 1_555 1_555
H6_4 C5_4 1_555 1_555
H7_4 C5_4 1_555 1_555
C6_4 C5_4 1_555 1_555
H8_4 C6_4 1_555 1_555
H9_6 C6_4 1_555 1_555
Cu3 N2_6 1_555 1_555
N4_6 Cu1_6 1_555 1_555
Cu1_7 N1_7 1_555 1_555
N1_7 N2_7 1_555 1_555
N2_7 C4_7 1_555 1_555
N3_5 C1_5 1_555 1_555
C1_5 N1_7 1_555 1_555
C2_5 C1_5 1_555 1_555
H1_5 C2_5 1_555 1_555
H2_5 C2_5 1_555 1_555
C3_5 C2_5 1_555 1_555
H3_5 C3_5 1_555 1_555
H4_5 C3_5 1_555 1_555
H5_7 C3_5 1_555 1_555
C4_7 N3_5 1_555 1_555
Cu3_5 N2_7 1_555 1_555
Cu2_3 N3_5 1_555 1_555
N4_7 Cu1_7 1_555 1_555
N5_5 Cu1_7 1_555 1_555
Cu1_8 N1_8 1_555 1_555
N1_8 N2_8 1_555 1_555
N2_8 C4_8 1_555 1_555
N3_6 C1_6 1_555 1_555
C1_6 N1_8 1_555 1_555
C2_6 C1_6 1_555 1_555
H1_6 C2_6 1_555 1_555
H2_6 C2_6 1_555 1_555
C3_6 C2_6 1_555 1_555
H3_6 C3_6 1_555 1_555
H4_6 C3_6 1_555 1_555
H5_8 C3_6 1_555 1_555
C4_8 N3_6 1_555 1_555
C5_5 C4_8 1_555 1_555
H6_5 C5_5 1_555 1_555
H7_5 C5_5 1_555 1_555
C6_5 C5_5 1_555 1_555
H8_5 C6_5 1_555 1_555
H9_7 C6_5 1_555 1_555
H10_7 C6_5 1_555 1_555
Cu3_6 N2_8 1_555 1_555
Cu2 N3_6 1_555 1_555
N4_8 Cu1_8 1_555 1_555
N5_6 Cu1_8 1_555 1_555
Cu1_9 N1_9 1_555 1_555
N1_9 N2_9 1_555 1_555
N2_9 C4_9 1_555 1_555
N3_7 C1_7 1_555 1_555
C1_7 N1_9 1_555 1_555
C2_7 C1_7 1_555 1_555
H1_7 C2_7 1_555 1_555
H2_7 C2_7 1_555 1_555
C3_7 C2_7 1_555 1_555
H3_7 C3_7 1_555 1_555
H4_7 C3_7 1_555 1_555
H5_9 C3_7 1_555 1_555
C4_9 N3_7 1_555 1_555
Cu3_4 N2_9 1_555 1_555
Cu2_2 N3_7 1_555 1_555
N4_9 Cu1_9 1_555 1_555
N5_7 Cu1_9 1_555 1_555
Cu2 N1_10 1_555 1_555
N1_10 N4 1_555 1_555
N4 C4_10 1_555 1_555
N5_7 C1_8 1_555 1_555
C1_8 N1_10 1_555 1_555
C2_8 C1_8 1_555 1_555
H1_8 C2_8 1_555 1_555
H2_8 C2_8 1_555 1_555
C3_8 C2_8 1_555 1_555
H3_8 C3_8 1_555 1_555
H4_8 C3_8 1_555 1_555
H5_10 C3_8 1_555 1_555
C4_10 N5_7 1_555 1_555
C5_6 C4_10 1_555 1_555
H6_6 C5_6 1_555 1_555
H7_6 C5_6 1_555 1_555
C6_6 C5_6 1_555 1_555
H8_6 C6_6 1_555 1_555
H9_8 C6_6 1_555 1_555
H10_8 C6_6 1_555 1_555
Cu2_2 N1_11 1_555 1_555
N1_11 N4_2 1_555 1_555
N4_2 C4_11 1_555 1_555
N5_5 C1_9 1_555 1_555
C1_9 N1_11 1_555 1_555
C2_9 C1_9 1_555 1_555
H1_9 C2_9 1_555 1_555
H2_9 C2_9 1_555 1_555
C3_9 C2_9 1_555 1_555
H3_9 C3_9 1_555 1_555
H4_9 C3_9 1_555 1_555
H5_11 C3_9 1_555 1_555
C4_11 N5_5 1_555 1_555
C5_7 C4_11 1_555 1_555
H6_7 C5_7 1_555 1_555
H8_7 C6_7 1_555 1_555
H9_9 C6_7 1_555 1_555
H10_9 C6_7 1_555 1_555
H8_8 C6_8 1_555 1_555
H9_10 C6_8 1_555 1_555
H10_10 C6_8 1_555 1_555
Cu2_3 N1_12 1_555 1_555
N1_12 N4_3 1_555 1_555
N4_3 C4_12 1_555 1_555
N5_6 C1_10 1_555 1_555
C1_10 N1_12 1_555 1_555
C2_10 C1_10 1_555 1_555
H1_10 C2_10 1_555 1_555
H2_10 C2_10 1_555 1_555
C3_10 C2_10 1_555 1_555
H3_10 C3_10 1_555 1_555
H4_10 C3_10 1_555 1_555
H5_12 C3_10 1_555 1_555
C4_12 N5_6 1_555 1_555
C5_8 C4_12 1_555 1_555
H6_8 C5_8 1_555 1_555
Cu3_5 N1_13 1_555 1_555
N1_13 N4_7 1_555 1_555
N4_7 C4_13 1_555 1_555
Cu3_6 N1_14 1_555 1_555
N1_14 N4_8 1_555 1_555
N4_8 C4_14 1_555 1_555
Cu3_4 N1_15 1_555 1_555
N1_15 N4_9 1_555 1_555
N4_9 C4_15 1_555 1_555
C5_9 C4_15 1_555 1_555
H6_9 C5_9 1_555 1_555
H7_9 C5_9 1_555 1_555
C6_9 C5_9 1_555 1_555
H8_9 C6_9 1_555 1_555
H9_13 C6_9 1_555 1_555
N5_4 C1_11 1_555 1_555
C2_11 C1_11 1_555 1_555
H1_11 C2_11 1_555 1_555
H2_11 C2_11 1_555 1_555
C3_11 C2_11 1_555 1_555
H3_11 C3_11 1_555 1_555
H4_11 C3_11 1_555 1_555
H5_15 C3_11 1_555 1_555
Cu3_2 N1_16 1_555 1_555
N1_16 N4_4 1_555 1_555
N4_4 C4_16 1_555 1_555
N5_3 C1_12 1_555 1_555
C1_12 N1_16 1_555 1_555
C2_12 C1_12 1_555 1_555
H1_12 C2_12 1_555 1_555
H2_12 C2_12 1_555 1_555
C3_12 C2_12 1_555 1_555
H3_12 C3_12 1_555 1_555
H4_12 C3_12 1_555 1_555
H5_16 C3_12 1_555 1_555
C4_16 N5_3 1_555 1_555
Cu3_3 N1_17 1_555 1_555
N1_17 N4_5 1_555 1_555
N4_5 C4_17 1_555 1_555
N5 C1_13 1_555 1_555
C1_13 N1_17 1_555 1_555
C2_13 C1_13 1_555 1_555
H1_13 C2_13 1_555 1_555
H2_13 C2_13 1_555 1_555
C3_13 C2_13 1_555 1_555
H3_13 C3_13 1_555 1_555
H4_13 C3_13 1_555 1_555
H5_17 C3_13 1_555 1_555
C4_17 N5 1_555 1_555
C5_10 C4_17 1_555 1_555
H6_10 C5_10 1_555 1_555
H7_10 C5_10 1_555 1_555
C6_10 C5_10 1_555 1_555
H8_10 C6_10 1_555 1_555
H9_14 C6_10 1_555 1_555
H10_14 C6_10 1_555 1_555
Cu3 N1_18 1_555 1_555
N1_18 N4_6 1_555 1_555
N4_6 C4_18 1_555 1_555
N5_2 C1_14 1_555 1_555
C1_14 N1_18 1_555 1_555
C2_14 C1_14 1_555 1_555
H1_14 C2_14 1_555 1_555
H2_14 C2_14 1_555 1_555
C3_14 C2_14 1_555 1_555
H3_14 C3_14 1_555 1_555
H4_14 C3_14 1_555 1_555
H5_18 C3_14 1_555 1_555
C4_18 N5_2 1_555 1_555
H6_11 C5_11 1_555 1_555
H7_11 C5_11 1_555 1_555
C6_11 C5_11 1_555 1_555
H8_11 C6_11 1_555 1_555
N3_8 C1_15 1_555 1_555
C2_15 C1_15 1_555 1_555
H1_15 C2_15 1_555 1_555
H2_15 C2_15 1_555 1_555
C3_15 C2_15 1_555 1_555
H3_15 C3_15 1_555 1_555
H4_15 C3_15 1_555 1_555
N5_8 C1_16 1_555 1_555
C2_16 C1_16 1_555 1_555
H1_16 C2_16 1_555 1_555
H2_16 C2_16 1_555 1_555
C3_16 C2_16 1_555 1_555
H3_16 C3_16 1_555 1_555
H4_16 C3_16 1_555 1_555
N3_9 C1_17 1_555 1_555
C2_17 C1_17 1_555 1_555
H1_17 C2_17 1_555 1_555
H2_17 C2_17 1_555 1_555
C3_17 C2_17 1_555 1_555
H3_17 C3_17 1_555 1_555
H4_17 C3_17 1_555 1_555
H6_12 C5_12 1_555 1_555
H7_12 C5_12 1_555 1_555
C6_12 C5_12 1_555 1_555
H8_12 C6_12 1_555 1_555
N5_9 C1_18 1_555 1_555
C2_18 C1_18 1_555 1_555
H1_18 C2_18 1_555 1_555
H2_18 C2_18 1_555 1_555
C3_18 C2_18 1_555 1_555
H3_18 C3_18 1_555 1_555
H4_18 C3_18 1_555 1_555
H6_13 C5_13 1_555 1_555
H7_13 C5_13 1_555 1_555
C6_13 C5_13 1_555 1_555
H8_13 C6_13 1_555 1_555
H9_15 C6_13 1_555 1_555
H10_15 C6_13 1_555 1_555
H6_14 C5_14 1_555 1_555
H7_14 C5_14 1_555 1_555
C6_14 C5_14 1_555 1_555
H8_14 C6_14 1_555 1_555
H9_16 C6_14 1_555 1_555
H10_16 C6_14 1_555 1_555
H6_15 C5_15 1_555 1_555
H7_15 C5_15 1_555 1_555
C6_15 C5_15 1_555 1_555
H8_15 C6_15 1_555 1_555
H6_16 C5_16 1_555 1_555
H7_16 C5_16 1_555 1_555
C6_16 C5_16 1_555 1_555
H8_16 C6_16 1_555 1_555
H6_17 C5_17 1_555 1_555
H7_17 C5_17 1_555 1_555
C6_17 C5_17 1_555 1_555
H8_17 C6_17 1_555 1_555
H9_17 C6_17 1_555 1_555
H10_17 C6_17 1_555 1_555
H6_18 C5_18 1_555 1_555
H7_18 C5_18 1_555 1_555
C6_18 C5_18 1_555 1_555
H8_18 C6_18 1_555 1_555
H9_18 C6_18 1_555 1_555
H10_18 C6_18 1_555 1_555

#END
