
###############################################################################
#
# This file contains modified crystal structure data generated from the
# MOF subset of the Cambridge Structural Database (CSD) v543 
# hosted by the Cambridge Crystallographic Data Centre (CCDC).
#
# This work is licensed under the Creative Commons
# Attribution-NonCommercial-ShareAlike 4.0 International License.
# To view a copy of this license, visit
# http://creativecommons.org/licenses/by-nc-sa/4.0/
# or send a letter to
# Creative Commons, PO Box 1866, Mountain View, CA 94042, USA.
#
# CIF created using the CSD Python API on 29 September 2022
# The structure has been converted into the P1 space group
# The structure has a 3D framework
# The original CSD entry SUHPUH is in the rhombohedral crystal system
# The framework has been calculated to contain at least 10.0% void space
# The void calculation uses a probe of radius 1.32A, grid spacing 0.4
#
###############################################################################

data_SUHPUH
_chemical_formula_moiety         '(C108 H180 Cu18 N54)n'
_symmetry_cell_setting           triclinic
_symmetry_space_group_name_H-M   'P 1'
_symmetry_Int_Tables_number      1
_space_group_name_Hall           'P 1'
loop_
_symmetry_equiv_pos_site_id
_symmetry_equiv_pos_as_xyz
1 x,y,z
_cell_length_a                   19.7013(12)
_cell_length_b                   19.7013(12)
_cell_length_c                   14.1981(9)
_cell_angle_alpha                90
_cell_angle_beta                 90
_cell_angle_gamma                120
_cell_volume                     4772.55
loop_
_atom_site_label
_atom_site_type_symbol
_atom_site_fract_x
_atom_site_fract_y
_atom_site_fract_z
Cu1 Cu 0.41515(2) 0.45188(2) 0.56189(2)
N1 N 0.50562(14) 0.54742(14) 0.61239(17)
N2 N 0.57445(14) 0.58539(14) 0.56122(17)
N3 N 0.58856(15) 0.65539(14) 0.68963(17)
C1 C 0.51721(18) 0.59110(18) 0.6888(2)
C2 C 0.4579(2) 0.5702(2) 0.7659(3)
H1 H 0.4100 0.5208 0.7486
H2 H 0.4790 0.5603 0.8243
C3 C 0.4359(3) 0.6298(3) 0.7859(5)
H3 H 0.3991 0.6125 0.8387
H4 H 0.4112 0.6373 0.7301
H5 H 0.4829 0.6794 0.8021
C4 C 0.62198(17) 0.64942(17) 0.6094(2)
C5 C 0.7026(2) 0.7074(2) 0.5795(3)
H6 H 0.7065 0.7593 0.5727
H7 H 0.7129 0.6921 0.5171
C6 C 0.7642(2) 0.7145(3) 0.6475(4)
H8 H 0.8160 0.7540 0.6246
H9 H 0.7619 0.6638 0.6530
H10 H 0.7548 0.7303 0.7094
Cu2 Cu 0.58485(2) 0.54812(2) 0.43811(2)
Cu3 Cu 0.62994(3) 0.74848(2) 0.77144(2)
N4 N 0.42555(14) 0.41461(14) 0.43878(17)
N5 N 0.32206(14) 0.40016(21) 0.64370(17)
H7_2 H 0.3079 0.0208 0.5171
C6_2 C 0.2855(3) 0.0497(4) 0.6475(4)
H8_2 H 0.2460 0.0620 0.6246
H9_2 H 0.3362 0.0981 0.6530
H10_2 H 0.2697 0.0245 0.7094
Cu2_2 Cu 0.45188(2) 0.03673(3) 0.43811(2)
N4_2 N 0.58539(14) 0.01094(20) 0.43878(17)
Cu1_2 Cu 0.54812(2) 0.96327(3) 0.56189(2)
N1_2 N 0.45258(14) 0.95820(20) 0.61239(17)
N2_2 N 0.41461(14) 0.98906(20) 0.56122(17)
N3_2 N 0.34461(14) 0.93317(21) 0.68963(17)
C1_2 C 0.40890(18) 0.92611(25) 0.6888(2)
C2_2 C 0.4298(2) 0.8877(3) 0.7659(3)
H1_2 H 0.4792 0.8892 0.7486
H2_2 H 0.4397 0.9187 0.8243
C3_2 C 0.3702(3) 0.8061(4) 0.7859(5)
H3_2 H 0.3875 0.7866 0.8387
H4_2 H 0.3627 0.7739 0.7301
H5_2 H 0.3206 0.8035 0.8021
C4_2 C 0.35058(17) 0.97256(24) 0.6094(2)
C5_2 C 0.2926(2) 0.9952(3) 0.5795(3)
H6_2 H 0.2407 0.9472 0.5727
Cu3_2 Cu 0.25152(2) 0.88145(4) 0.77144(2)
N5_2 N 0.59984(21) 0.92189(25) 0.64370(17)
Cu1_3 Cu 0.03673(3) 0.58485(2) 0.56189(2)
N1_3 N 0.04180(20) 0.49438(14) 0.61239(17)
N2_3 N 0.01094(20) 0.42555(14) 0.56122(17)
N3_3 N 0.06683(21) 0.41144(15) 0.68963(17)
C1_3 C 0.07389(25) 0.48279(18) 0.6888(2)
C2_3 C 0.1123(3) 0.5421(2) 0.7659(3)
H1_3 H 0.1108 0.5900 0.7486
H2_3 H 0.0813 0.5210 0.8243
C3_3 C 0.1939(4) 0.5641(3) 0.7859(5)
H3_3 H 0.2134 0.6009 0.8387
H4_3 H 0.2261 0.5888 0.7301
H5_3 H 0.1965 0.5171 0.8021
C4_3 C 0.02744(24) 0.37802(17) 0.6094(2)
C5_3 C 0.0048(3) 0.2974(2) 0.5795(3)
H6_3 H 0.0528 0.2935 0.5727
Cu3_3 Cu 0.11855(4) 0.37006(3) 0.77144(2)
N5_3 N 0.07811(25) 0.67794(14) 0.64370(17)
H7_3 H 0.9792 0.2871 0.5171
C6_3 C 0.9503(4) 0.2358(2) 0.6475(4)
H8_3 H 0.9380 0.1840 0.6246
H9_3 H 0.9019 0.2381 0.6530
H10_3 H 0.9755 0.2452 0.7094
Cu2_3 Cu 0.96327(3) 0.41515(2) 0.43811(2)
N4_3 N 0.98906(20) 0.57445(14) 0.43878(17)
H5_4 H 0.1496 0.0127 0.1354
H10_4 H 0.4215 0.0636 0.0427
Cu3_4 Cu 0.29660(3) 0.08182(2) 0.10478(2)
Cu1_4 Cu 0.08182(2) 0.78521(2) 0.89522(2)
N1_4 N 0.17229(14) 0.88075(14) 0.94572(17)
N2_4 N 0.24112(14) 0.91872(14) 0.89455(17)
C4_4 C 0.28865(17) 0.98275(17) 0.9427(2)
H9_4 H 0.4286 0.9971 0.9863
N4_4 N 0.09222(14) 0.74794(14) 0.77211(17)
Cu1_5 Cu 0.21479(2) 0.29660(3) 0.89522(2)
N1_5 N 0.11925(14) 0.29153(20) 0.94572(17)
N2_5 N 0.08128(14) 0.32239(20) 0.89455(17)
C4_5 C 0.01725(17) 0.30589(24) 0.9427(2)
H9_5 H 0.0029 0.4314 0.9863
N4_5 N 0.25206(14) 0.34427(20) 0.77211(17)
N5_4 N 0.26650(21) 0.25523(25) 0.97704(17)
H5_5 H 0.9873 0.1368 0.1354
H10_5 H 0.9364 0.3578 0.0427
Cu3_5 Cu 0.91818(2) 0.21479(4) 0.10478(2)
N3_4 N 0.73350(21) 0.74477(15) 0.02296(17)
C1_4 C 0.74056(25) 0.81612(18) 0.0221(2)
C2_4 C 0.7790(3) 0.8754(2) 0.0992(3)
H1_4 H 0.7775 0.9233 0.0819
H2_4 H 0.7480 0.8543 0.1576
C3_4 C 0.8606(4) 0.8974(3) 0.1192(5)
H3_4 H 0.8801 0.9342 0.1720
H4_4 H 0.8928 0.9221 0.0634
H5_6 H 0.8632 0.8504 0.1354
H10_6 H 0.6422 0.5785 0.0427
Cu3_6 Cu 0.78521(4) 0.70340(3) 0.10478(2)
Cu1_6 Cu 0.70340(3) 0.91818(2) 0.89522(2)
N1_6 N 0.70847(20) 0.82771(14) 0.94572(17)
N2_6 N 0.67761(20) 0.75888(14) 0.89455(17)
C4_6 C 0.69411(24) 0.71135(17) 0.9427(2)
C5_4 C 0.6715(3) 0.6307(2) 0.9128(3)
H6_4 H 0.7195 0.6268 0.9060
H7_4 H 0.6459 0.6204 0.8504
C6_4 C 0.6170(4) 0.5691(2) 0.9808(4)
H8_4 H 0.6047 0.5173 0.9579
H9_6 H 0.5686 0.5714 0.9863
N4_6 N 0.65573(20) 0.90778(14) 0.77211(17)
Cu1_7 Cu 0.74848(2) 0.11855(2) 0.22856(2)
N1_7 N 0.83895(14) 0.21409(14) 0.27906(17)
N2_7 N 0.90778(14) 0.25206(14) 0.22789(17)
N3_5 N 0.92189(15) 0.32206(14) 0.35630(17)
C1_5 C 0.85054(18) 0.25777(18) 0.3555(2)
C2_5 C 0.7912(2) 0.2369(2) 0.4326(3)
H1_5 H 0.7433 0.1875 0.4153
H2_5 H 0.8123 0.2270 0.4910
C3_5 C 0.7692(3) 0.2965(3) 0.4526(5)
H3_5 H 0.7324 0.2792 0.5054
H4_5 H 0.7445 0.3040 0.3968
H5_7 H 0.8162 0.3461 0.4688
C4_7 C 0.95531(17) 0.31609(17) 0.2761(2)
N4_7 N 0.75888(14) 0.08128(14) 0.10545(17)
N5_5 N 0.65539(14) 0.06683(21) 0.31037(17)
Cu1_8 Cu 0.88145(2) 0.62994(3) 0.22856(2)
N1_8 N 0.78591(14) 0.62487(20) 0.27906(17)
N2_8 N 0.74794(14) 0.65573(20) 0.22789(17)
N3_6 N 0.67794(14) 0.59984(21) 0.35630(17)
C1_6 C 0.74223(18) 0.59278(25) 0.3555(2)
C2_6 C 0.7631(2) 0.5544(3) 0.4326(3)
H1_6 H 0.8125 0.5559 0.4153
H2_6 H 0.7730 0.5854 0.4910
C3_6 C 0.7035(3) 0.4728(4) 0.4526(5)
H3_6 H 0.7208 0.4533 0.5054
H4_6 H 0.6960 0.4406 0.3968
H5_8 H 0.6539 0.4702 0.4688
C4_8 C 0.68391(17) 0.63923(24) 0.2761(2)
C5_5 C 0.6259(2) 0.6619(3) 0.2462(3)
H6_5 H 0.5740 0.6139 0.2394
H7_5 H 0.6412 0.6875 0.1838
C6_5 C 0.6188(3) 0.7164(4) 0.3142(4)
H8_5 H 0.5793 0.7287 0.2913
H9_7 H 0.6695 0.7648 0.3197
H10_7 H 0.6030 0.6912 0.3761
N4_8 N 0.91872(14) 0.67761(20) 0.10545(17)
N5_6 N 0.93317(21) 0.58856(25) 0.31037(17)
Cu1_9 Cu 0.37006(3) 0.25152(2) 0.22856(2)
N1_9 N 0.37513(20) 0.16105(14) 0.27906(17)
N2_9 N 0.34427(20) 0.09222(14) 0.22789(17)
N3_7 N 0.40016(21) 0.07811(15) 0.35630(17)
C1_7 C 0.40722(25) 0.14946(18) 0.3555(2)
C2_7 C 0.4456(3) 0.2088(2) 0.4326(3)
H1_7 H 0.4441 0.2567 0.4153
H2_7 H 0.4146 0.1877 0.4910
C3_7 C 0.5272(4) 0.2308(3) 0.4526(5)
H3_7 H 0.5467 0.2676 0.5054
H4_7 H 0.5594 0.2555 0.3968
H5_9 H 0.5298 0.1838 0.4688
C4_9 C 0.36077(24) 0.04469(17) 0.2761(2)
N4_9 N 0.32239(20) 0.24112(14) 0.10545(17)
N5_7 N 0.41144(25) 0.34461(14) 0.31037(17)
N1_10 N 0.49438(14) 0.45258(14) 0.38761(17)
C1_8 C 0.48279(18) 0.40890(18) 0.3112(2)
C2_8 C 0.5421(2) 0.4298(2) 0.2341(3)
H1_8 H 0.5900 0.4792 0.2514
H2_8 H 0.5210 0.4397 0.1757
C3_8 C 0.5641(3) 0.3702(3) 0.2141(5)
H3_8 H 0.6009 0.3875 0.1613
H4_8 H 0.5888 0.3627 0.2699
H5_10 H 0.5171 0.3206 0.1979
C4_10 C 0.37802(17) 0.35058(17) 0.3906(2)
C5_6 C 0.2974(2) 0.2926(2) 0.4205(3)
H6_6 H 0.2935 0.2407 0.4273
H7_6 H 0.2871 0.3079 0.4829
C6_6 C 0.2358(2) 0.2855(3) 0.3525(4)
H8_6 H 0.1840 0.2460 0.3754
H9_8 H 0.2381 0.3362 0.3470
H10_8 H 0.2452 0.2697 0.2906
N1_11 N 0.54742(14) 0.04180(20) 0.38761(17)
C1_9 C 0.59110(18) 0.07389(25) 0.3112(2)
C2_9 C 0.5702(2) 0.1123(3) 0.2341(3)
H1_9 H 0.5208 0.1108 0.2514
H2_9 H 0.5603 0.0813 0.1757
C3_9 C 0.6298(3) 0.1939(4) 0.2141(5)
H3_9 H 0.6125 0.2134 0.1613
H4_9 H 0.6373 0.2261 0.2699
H5_11 H 0.6794 0.1965 0.1979
C4_11 C 0.64942(17) 0.02744(24) 0.3906(2)
C5_7 C 0.7074(2) 0.0048(3) 0.4205(3)
H6_7 H 0.7593 0.0528 0.4273
H7_7 H 0.6921 0.9792 0.4829
C6_7 C 0.7145(3) 0.9503(4) 0.3525(4)
H8_7 H 0.7540 0.9380 0.3754
H9_9 H 0.6638 0.9019 0.3470
H10_9 H 0.7303 0.9755 0.2906
H7_8 H 0.0208 0.7129 0.4829
C6_8 C 0.0497(4) 0.7642(2) 0.3525(4)
H8_8 H 0.0620 0.8160 0.3754
H9_10 H 0.0981 0.7619 0.3470
H10_10 H 0.0245 0.7548 0.2906
N1_12 N 0.95820(20) 0.50562(14) 0.38761(17)
C1_10 C 0.92611(25) 0.51721(18) 0.3112(2)
C2_10 C 0.8877(3) 0.4579(2) 0.2341(3)
H1_10 H 0.8892 0.4100 0.2514
H2_10 H 0.9187 0.4790 0.1757
C3_10 C 0.8061(4) 0.4359(3) 0.2141(5)
H3_10 H 0.7866 0.3991 0.1613
H4_10 H 0.7739 0.4112 0.2699
H5_12 H 0.8035 0.4829 0.1979
C4_12 C 0.97256(24) 0.62198(17) 0.3906(2)
C5_8 C 0.9952(3) 0.7026(2) 0.4205(3)
H6_8 H 0.9472 0.7065 0.4273
N1_13 N 0.82771(14) 0.11925(14) 0.05428(17)
C4_13 C 0.71135(17) 0.01725(17) 0.0573(2)
H9_11 H 0.5714 0.0029 0.0137
H5_13 H 0.8504 0.9873 0.8646
H10_11 H 0.5785 0.9364 0.9573
H5_14 H 0.0127 0.8632 0.8646
H10_12 H 0.0636 0.6422 0.9573
N1_14 N 0.88075(14) 0.70847(20) 0.05428(17)
C4_14 C 0.98275(17) 0.69411(24) 0.0573(2)
H9_12 H 0.9971 0.5686 0.0137
N1_15 N 0.29153(20) 0.17229(14) 0.05428(17)
C4_15 C 0.30589(24) 0.28865(17) 0.0573(2)
C5_9 C 0.3285(3) 0.3693(2) 0.0872(3)
H6_9 H 0.2805 0.3732 0.0940
H7_9 H 0.3541 0.3796 0.1496
C6_9 C 0.3830(4) 0.4309(2) 0.0192(4)
H8_9 H 0.3953 0.4827 0.0421
H9_13 H 0.4314 0.4286 0.0137
C1_11 C 0.25944(25) 0.18388(18) 0.9779(2)
C2_11 C 0.2210(3) 0.1246(2) 0.9008(3)
H1_11 H 0.2225 0.0767 0.9181
H2_11 H 0.2520 0.1457 0.8424
C3_11 C 0.1394(4) 0.1026(3) 0.8808(5)
H3_11 H 0.1199 0.0658 0.8280
H4_11 H 0.1072 0.0779 0.9366
H5_15 H 0.1368 0.1496 0.8646
H10_13 H 0.3578 0.4215 0.9573
N1_16 N 0.16105(14) 0.78591(14) 0.72094(17)
C1_12 C 0.14946(18) 0.74223(18) 0.6445(2)
C2_12 C 0.2088(2) 0.7631(2) 0.5674(3)
H1_12 H 0.2567 0.8125 0.5847
H2_12 H 0.1877 0.7730 0.5090
C3_12 C 0.2308(3) 0.7035(3) 0.5474(5)
H3_12 H 0.2676 0.7208 0.4946
H4_12 H 0.2555 0.6960 0.6032
H5_16 H 0.1838 0.6539 0.5312
C4_16 C 0.04469(17) 0.68391(17) 0.7239(2)
N1_17 N 0.21409(14) 0.37513(20) 0.72094(17)
C1_13 C 0.25777(18) 0.40722(25) 0.6445(2)
C2_13 C 0.2369(2) 0.4456(3) 0.5674(3)
H1_13 H 0.1875 0.4441 0.5847
H2_13 H 0.2270 0.4146 0.5090
C3_13 C 0.2965(3) 0.5272(4) 0.5474(5)
H3_13 H 0.2792 0.5467 0.4946
H4_13 H 0.3040 0.5594 0.6032
H5_17 H 0.3461 0.5298 0.5312
C4_17 C 0.31609(17) 0.36077(24) 0.7239(2)
C5_10 C 0.3741(2) 0.3381(3) 0.7538(3)
H6_10 H 0.4260 0.3861 0.7606
H7_10 H 0.3588 0.3125 0.8162
C6_10 C 0.3812(3) 0.2836(4) 0.6858(4)
H8_10 H 0.4207 0.2713 0.7087
H9_14 H 0.3305 0.2352 0.6803
H10_14 H 0.3970 0.3088 0.6239
N1_18 N 0.62487(20) 0.83895(14) 0.72094(17)
C1_14 C 0.59278(25) 0.85054(18) 0.6445(2)
C2_14 C 0.5544(3) 0.7912(2) 0.5674(3)
H1_14 H 0.5559 0.7433 0.5847
H2_14 H 0.5854 0.8123 0.5090
C3_14 C 0.4728(4) 0.7692(3) 0.5474(5)
H3_14 H 0.4533 0.7324 0.4946
H4_14 H 0.4406 0.7445 0.6032
H5_18 H 0.4702 0.8162 0.5312
C4_18 C 0.63923(24) 0.95531(17) 0.7239(2)
C5_11 C 0.3693(2) 0.0407(2) 0.9128(3)
H6_11 H 0.3732 0.0926 0.9060
H7_11 H 0.3796 0.0254 0.8504
C6_11 C 0.4309(2) 0.0478(3) 0.9808(4)
H8_11 H 0.4827 0.0873 0.9579
N3_8 N 0.25523(15) 0.98872(14) 0.02296(17)
C1_15 C 0.18388(18) 0.92443(18) 0.0221(2)
C2_15 C 0.1246(2) 0.9035(2) 0.0992(3)
H1_15 H 0.0767 0.8541 0.0819
H2_15 H 0.1457 0.8936 0.1576
C3_15 C 0.1026(3) 0.9631(3) 0.1192(5)
H3_15 H 0.0658 0.9458 0.1720
H4_15 H 0.0779 0.9706 0.0634
N5_8 N 0.98872(14) 0.73350(21) 0.97704(17)
C1_16 C 0.92443(18) 0.74056(25) 0.9779(2)
C2_16 C 0.9035(2) 0.7790(3) 0.9008(3)
H1_16 H 0.8541 0.7775 0.9181
H2_16 H 0.8936 0.7480 0.8424
C3_16 C 0.9631(3) 0.8606(4) 0.8808(5)
H3_16 H 0.9458 0.8801 0.8280
H4_16 H 0.9706 0.8928 0.9366
N3_9 N 0.01128(14) 0.26650(21) 0.02296(17)
C1_17 C 0.07557(18) 0.25944(25) 0.0221(2)
C2_17 C 0.0965(2) 0.2210(3) 0.0992(3)
H1_17 H 0.1459 0.2225 0.0819
H2_17 H 0.1064 0.2520 0.1576
C3_17 C 0.0369(3) 0.1394(4) 0.1192(5)
H3_17 H 0.0542 0.1199 0.1720
H4_17 H 0.0294 0.1072 0.0634
C5_12 C 0.9593(2) 0.3285(3) 0.9128(3)
H6_12 H 0.9074 0.2805 0.9060
H7_12 H 0.9746 0.3541 0.8504
C6_12 C 0.9522(3) 0.3830(4) 0.9808(4)
H8_12 H 0.9127 0.3953 0.9579
N5_9 N 0.74477(25) 0.01128(14) 0.97704(17)
C1_18 C 0.81612(18) 0.07557(18) 0.9779(2)
C2_18 C 0.8754(2) 0.0965(2) 0.9008(3)
H1_18 H 0.9233 0.1459 0.9181
H2_18 H 0.8543 0.1064 0.8424
C3_18 C 0.8974(3) 0.0369(3) 0.8808(5)
H3_18 H 0.9342 0.0542 0.8280
H4_18 H 0.9221 0.0294 0.9366
C5_13 C 0.0359(2) 0.3741(2) 0.2462(3)
H6_13 H 0.0398 0.4260 0.2394
H7_13 H 0.0462 0.3588 0.1838
C6_13 C 0.0975(2) 0.3812(3) 0.3142(4)
H8_13 H 0.1493 0.4207 0.2913
H9_15 H 0.0952 0.3305 0.3197
H10_15 H 0.0881 0.3970 0.3761
C5_14 C 0.3381(3) 0.9641(2) 0.2462(3)
H6_14 H 0.3861 0.9602 0.2394
H7_14 H 0.3125 0.9538 0.1838
C6_14 C 0.2836(4) 0.9025(2) 0.3142(4)
H8_14 H 0.2713 0.8507 0.2913
H9_16 H 0.2352 0.9048 0.3197
H10_16 H 0.3088 0.9119 0.3761
C5_15 C 0.6307(2) 0.9593(2) 0.0872(3)
H6_15 H 0.6268 0.9074 0.0940
H7_15 H 0.6204 0.9746 0.1496
C6_15 C 0.5691(2) 0.9522(3) 0.0192(4)
H8_15 H 0.5173 0.9127 0.0421
C5_16 C 0.0407(2) 0.6715(3) 0.0872(3)
H6_16 H 0.0926 0.7195 0.0940
H7_16 H 0.0254 0.6459 0.1496
C6_16 C 0.0478(3) 0.6170(4) 0.0192(4)
H8_16 H 0.0873 0.6047 0.0421
C5_17 C 0.9641(2) 0.6259(2) 0.7538(3)
H6_17 H 0.9602 0.5740 0.7606
H7_17 H 0.9538 0.6412 0.8162
C6_17 C 0.9025(2) 0.6188(3) 0.6858(4)
H8_17 H 0.8507 0.5793 0.7087
H9_17 H 0.9048 0.6695 0.6803
H10_17 H 0.9119 0.6030 0.6239
C5_18 C 0.6619(3) 0.0359(2) 0.7538(3)
H6_18 H 0.6139 0.0398 0.7606
H7_18 H 0.6875 0.0462 0.8162
C6_18 C 0.7164(4) 0.0975(2) 0.6858(4)
H8_18 H 0.7287 0.1493 0.7087
H9_18 H 0.7648 0.0952 0.6803
H10_18 H 0.6912 0.0881 0.6239
loop_
_geom_bond_atom_site_label_1
_geom_bond_atom_site_label_2
_geom_bond_site_symmetry_1
_geom_bond_site_symmetry_2
Cu1 N1 1_555 1_555
N1 N2 1_555 1_555
N2 C4 1_555 1_555
N3 C1 1_555 1_555
C1 N1 1_555 1_555
C2 C1 1_555 1_555
H1 C2 1_555 1_555
H2 C2 1_555 1_555
C3 C2 1_555 1_555
H3 C3 1_555 1_555
H4 C3 1_555 1_555
H5 C3 1_555 1_555
C4 N3 1_555 1_555
C5 C4 1_555 1_555
H6 C5 1_555 1_555
H7 C5 1_555 1_555
C6 C5 1_555 1_555
H8 C6 1_555 1_555
H9 C6 1_555 1_555
H10 C6 1_555 1_555
Cu2 N2 1_555 1_555
Cu3 N3 1_555 1_555
N4 Cu1 1_555 1_555
N5 Cu1 1_555 1_555
H8_2 C6_2 1_555 1_555
H9_2 C6_2 1_555 1_555
H10_2 C6_2 1_555 1_555
Cu1_2 N1_2 1_555 1_555
N1_2 N2_2 1_555 1_555
N2_2 C4_2 1_555 1_555
N3_2 C1_2 1_555 1_555
C1_2 N1_2 1_555 1_555
C2_2 C1_2 1_555 1_555
H1_2 C2_2 1_555 1_555
H2_2 C2_2 1_555 1_555
C3_2 C2_2 1_555 1_555
H3_2 C3_2 1_555 1_555
H4_2 C3_2 1_555 1_555
H5_2 C3_2 1_555 1_555
C4_2 N3_2 1_555 1_555
C5_2 C4_2 1_555 1_555
H6_2 C5_2 1_555 1_555
Cu3_2 N3_2 1_555 1_555
N5_2 Cu1_2 1_555 1_555
Cu1_3 N1_3 1_555 1_555
N1_3 N2_3 1_555 1_555
N2_3 C4_3 1_555 1_555
N3_3 C1_3 1_555 1_555
C1_3 N1_3 1_555 1_555
C2_3 C1_3 1_555 1_555
H1_3 C2_3 1_555 1_555
H2_3 C2_3 1_555 1_555
C3_3 C2_3 1_555 1_555
H3_3 C3_3 1_555 1_555
H4_3 C3_3 1_555 1_555
H5_3 C3_3 1_555 1_555
C4_3 N3_3 1_555 1_555
C5_3 C4_3 1_555 1_555
H6_3 C5_3 1_555 1_555
Cu3_3 N3_3 1_555 1_555
N5_3 Cu1_3 1_555 1_555
H8_3 C6_3 1_555 1_555
H9_3 C6_3 1_555 1_555
H10_3 C6_3 1_555 1_555
Cu1_4 N1_4 1_555 1_555
N1_4 N2_4 1_555 1_555
N2_4 C4_4 1_555 1_555
Cu3_2 N2_4 1_555 1_555
N4_4 Cu1_4 1_555 1_555
Cu1_5 N1_5 1_555 1_555
N1_5 N2_5 1_555 1_555
N2_5 C4_5 1_555 1_555
Cu3_3 N2_5 1_555 1_555
N4_5 Cu1_5 1_555 1_555
N5_4 Cu1_5 1_555 1_555
N3_4 C1_4 1_555 1_555
C2_4 C1_4 1_555 1_555
H1_4 C2_4 1_555 1_555
H2_4 C2_4 1_555 1_555
C3_4 C2_4 1_555 1_555
H3_4 C3_4 1_555 1_555
H4_4 C3_4 1_555 1_555
H5_6 C3_4 1_555 1_555
Cu3_6 N3_4 1_555 1_555
Cu1_6 N1_6 1_555 1_555
N1_6 N2_6 1_555 1_555
N2_6 C4_6 1_555 1_555
C5_4 C4_6 1_555 1_555
H6_4 C5_4 1_555 1_555
H7_4 C5_4 1_555 1_555
C6_4 C5_4 1_555 1_555
H8_4 C6_4 1_555 1_555
H9_6 C6_4 1_555 1_555
Cu3 N2_6 1_555 1_555
N4_6 Cu1_6 1_555 1_555
Cu1_7 N1_7 1_555 1_555
N1_7 N2_7 1_555 1_555
N2_7 C4_7 1_555 1_555
N3_5 C1_5 1_555 1_555
C1_5 N1_7 1_555 1_555
C2_5 C1_5 1_555 1_555
H1_5 C2_5 1_555 1_555
H2_5 C2_5 1_555 1_555
C3_5 C2_5 1_555 1_555
H3_5 C3_5 1_555 1_555
H4_5 C3_5 1_555 1_555
H5_7 C3_5 1_555 1_555
C4_7 N3_5 1_555 1_555
Cu3_5 N2_7 1_555 1_555
Cu2_3 N3_5 1_555 1_555
N4_7 Cu1_7 1_555 1_555
N5_5 Cu1_7 1_555 1_555
Cu1_8 N1_8 1_555 1_555
N1_8 N2_8 1_555 1_555
N2_8 C4_8 1_555 1_555
N3_6 C1_6 1_555 1_555
C1_6 N1_8 1_555 1_555
C2_6 C1_6 1_555 1_555
H1_6 C2_6 1_555 1_555
H2_6 C2_6 1_555 1_555
C3_6 C2_6 1_555 1_555
H3_6 C3_6 1_555 1_555
H4_6 C3_6 1_555 1_555
H5_8 C3_6 1_555 1_555
C4_8 N3_6 1_555 1_555
C5_5 C4_8 1_555 1_555
H6_5 C5_5 1_555 1_555
H7_5 C5_5 1_555 1_555
C6_5 C5_5 1_555 1_555
H8_5 C6_5 1_555 1_555
H9_7 C6_5 1_555 1_555
H10_7 C6_5 1_555 1_555
Cu3_6 N2_8 1_555 1_555
Cu2 N3_6 1_555 1_555
N4_8 Cu1_8 1_555 1_555
N5_6 Cu1_8 1_555 1_555
Cu1_9 N1_9 1_555 1_555
N1_9 N2_9 1_555 1_555
N2_9 C4_9 1_555 1_555
N3_7 C1_7 1_555 1_555
C1_7 N1_9 1_555 1_555
C2_7 C1_7 1_555 1_555
H1_7 C2_7 1_555 1_555
H2_7 C2_7 1_555 1_555
C3_7 C2_7 1_555 1_555
H3_7 C3_7 1_555 1_555
H4_7 C3_7 1_555 1_555
H5_9 C3_7 1_555 1_555
C4_9 N3_7 1_555 1_555
Cu3_4 N2_9 1_555 1_555
Cu2_2 N3_7 1_555 1_555
N4_9 Cu1_9 1_555 1_555
N5_7 Cu1_9 1_555 1_555
Cu2 N1_10 1_555 1_555
N1_10 N4 1_555 1_555
N4 C4_10 1_555 1_555
N5_7 C1_8 1_555 1_555
C1_8 N1_10 1_555 1_555
C2_8 C1_8 1_555 1_555
H1_8 C2_8 1_555 1_555
H2_8 C2_8 1_555 1_555
C3_8 C2_8 1_555 1_555
H3_8 C3_8 1_555 1_555
H4_8 C3_8 1_555 1_555
H5_10 C3_8 1_555 1_555
C4_10 N5_7 1_555 1_555
C5_6 C4_10 1_555 1_555
H6_6 C5_6 1_555 1_555
H7_6 C5_6 1_555 1_555
C6_6 C5_6 1_555 1_555
H8_6 C6_6 1_555 1_555
H9_8 C6_6 1_555 1_555
H10_8 C6_6 1_555 1_555
Cu2_2 N1_11 1_555 1_555
N1_11 N4_2 1_555 1_555
N4_2 C4_11 1_555 1_555
N5_5 C1_9 1_555 1_555
C1_9 N1_11 1_555 1_555
C2_9 C1_9 1_555 1_555
H1_9 C2_9 1_555 1_555
H2_9 C2_9 1_555 1_555
C3_9 C2_9 1_555 1_555
H3_9 C3_9 1_555 1_555
H4_9 C3_9 1_555 1_555
H5_11 C3_9 1_555 1_555
C4_11 N5_5 1_555 1_555
C5_7 C4_11 1_555 1_555
H6_7 C5_7 1_555 1_555
H8_7 C6_7 1_555 1_555
H9_9 C6_7 1_555 1_555
H10_9 C6_7 1_555 1_555
H8_8 C6_8 1_555 1_555
H9_10 C6_8 1_555 1_555
H10_10 C6_8 1_555 1_555
Cu2_3 N1_12 1_555 1_555
N1_12 N4_3 1_555 1_555
N4_3 C4_12 1_555 1_555
N5_6 C1_10 1_555 1_555
C1_10 N1_12 1_555 1_555
C2_10 C1_10 1_555 1_555
H1_10 C2_10 1_555 1_555
H2_10 C2_10 1_555 1_555
C3_10 C2_10 1_555 1_555
H3_10 C3_10 1_555 1_555
H4_10 C3_10 1_555 1_555
H5_12 C3_10 1_555 1_555
C4_12 N5_6 1_555 1_555
C5_8 C4_12 1_555 1_555
H6_8 C5_8 1_555 1_555
Cu3_5 N1_13 1_555 1_555
N1_13 N4_7 1_555 1_555
N4_7 C4_13 1_555 1_555
Cu3_6 N1_14 1_555 1_555
N1_14 N4_8 1_555 1_555
N4_8 C4_14 1_555 1_555
Cu3_4 N1_15 1_555 1_555
N1_15 N4_9 1_555 1_555
N4_9 C4_15 1_555 1_555
C5_9 C4_15 1_555 1_555
H6_9 C5_9 1_555 1_555
H7_9 C5_9 1_555 1_555
C6_9 C5_9 1_555 1_555
H8_9 C6_9 1_555 1_555
H9_13 C6_9 1_555 1_555
N5_4 C1_11 1_555 1_555
C2_11 C1_11 1_555 1_555
H1_11 C2_11 1_555 1_555
H2_11 C2_11 1_555 1_555
C3_11 C2_11 1_555 1_555
H3_11 C3_11 1_555 1_555
H4_11 C3_11 1_555 1_555
H5_15 C3_11 1_555 1_555
Cu3_2 N1_16 1_555 1_555
N1_16 N4_4 1_555 1_555
N4_4 C4_16 1_555 1_555
N5_3 C1_12 1_555 1_555
C1_12 N1_16 1_555 1_555
C2_12 C1_12 1_555 1_555
H1_12 C2_12 1_555 1_555
H2_12 C2_12 1_555 1_555
C3_12 C2_12 1_555 1_555
H3_12 C3_12 1_555 1_555
H4_12 C3_12 1_555 1_555
H5_16 C3_12 1_555 1_555
C4_16 N5_3 1_555 1_555
Cu3_3 N1_17 1_555 1_555
N1_17 N4_5 1_555 1_555
N4_5 C4_17 1_555 1_555
N5 C1_13 1_555 1_555
C1_13 N1_17 1_555 1_555
C2_13 C1_13 1_555 1_555
H1_13 C2_13 1_555 1_555
H2_13 C2_13 1_555 1_555
C3_13 C2_13 1_555 1_555
H3_13 C3_13 1_555 1_555
H4_13 C3_13 1_555 1_555
H5_17 C3_13 1_555 1_555
C4_17 N5 1_555 1_555
C5_10 C4_17 1_555 1_555
H6_10 C5_10 1_555 1_555
H7_10 C5_10 1_555 1_555
C6_10 C5_10 1_555 1_555
H8_10 C6_10 1_555 1_555
H9_14 C6_10 1_555 1_555
H10_14 C6_10 1_555 1_555
Cu3 N1_18 1_555 1_555
N1_18 N4_6 1_555 1_555
N4_6 C4_18 1_555 1_555
N5_2 C1_14 1_555 1_555
C1_14 N1_18 1_555 1_555
C2_14 C1_14 1_555 1_555
H1_14 C2_14 1_555 1_555
H2_14 C2_14 1_555 1_555
C3_14 C2_14 1_555 1_555
H3_14 C3_14 1_555 1_555
H4_14 C3_14 1_555 1_555
H5_18 C3_14 1_555 1_555
C4_18 N5_2 1_555 1_555
H6_11 C5_11 1_555 1_555
H7_11 C5_11 1_555 1_555
C6_11 C5_11 1_555 1_555
H8_11 C6_11 1_555 1_555
N3_8 C1_15 1_555 1_555
C2_15 C1_15 1_555 1_555
H1_15 C2_15 1_555 1_555
H2_15 C2_15 1_555 1_555
C3_15 C2_15 1_555 1_555
H3_15 C3_15 1_555 1_555
H4_15 C3_15 1_555 1_555
N5_8 C1_16 1_555 1_555
C2_16 C1_16 1_555 1_555
H1_16 C2_16 1_555 1_555
H2_16 C2_16 1_555 1_555
C3_16 C2_16 1_555 1_555
H3_16 C3_16 1_555 1_555
H4_16 C3_16 1_555 1_555
N3_9 C1_17 1_555 1_555
C2_17 C1_17 1_555 1_555
H1_17 C2_17 1_555 1_555
H2_17 C2_17 1_555 1_555
C3_17 C2_17 1_555 1_555
H3_17 C3_17 1_555 1_555
H4_17 C3_17 1_555 1_555
H6_12 C5_12 1_555 1_555
H7_12 C5_12 1_555 1_555
C6_12 C5_12 1_555 1_555
H8_12 C6_12 1_555 1_555
N5_9 C1_18 1_555 1_555
C2_18 C1_18 1_555 1_555
H1_18 C2_18 1_555 1_555
H2_18 C2_18 1_555 1_555
C3_18 C2_18 1_555 1_555
H3_18 C3_18 1_555 1_555
H4_18 C3_18 1_555 1_555
H6_13 C5_13 1_555 1_555
H7_13 C5_13 1_555 1_555
C6_13 C5_13 1_555 1_555
H8_13 C6_13 1_555 1_555
H9_15 C6_13 1_555 1_555
H10_15 C6_13 1_555 1_555
H6_14 C5_14 1_555 1_555
H7_14 C5_14 1_555 1_555
C6_14 C5_14 1_555 1_555
H8_14 C6_14 1_555 1_555
H9_16 C6_14 1_555 1_555
H10_16 C6_14 1_555 1_555
H6_15 C5_15 1_555 1_555
H7_15 C5_15 1_555 1_555
C6_15 C5_15 1_555 1_555
H8_15 C6_15 1_555 1_555
H6_16 C5_16 1_555 1_555
H7_16 C5_16 1_555 1_555
C6_16 C5_16 1_555 1_555
H8_16 C6_16 1_555 1_555
H6_17 C5_17 1_555 1_555
H7_17 C5_17 1_555 1_555
C6_17 C5_17 1_555 1_555
H8_17 C6_17 1_555 1_555
H9_17 C6_17 1_555 1_555
H10_17 C6_17 1_555 1_555
H6_18 C5_18 1_555 1_555
H7_18 C5_18 1_555 1_555
C6_18 C5_18 1_555 1_555
H8_18 C6_18 1_555 1_555
H9_18 C6_18 1_555 1_555
H10_18 C6_18 1_555 1_555

#END
