
###############################################################################
#
# This file contains modified crystal structure data generated from the
# MOF subset of the Cambridge Structural Database (CSD) v543 
# hosted by the Cambridge Crystallographic Data Centre (CCDC).
#
# This work is licensed under the Creative Commons
# Attribution-NonCommercial-ShareAlike 4.0 International License.
# To view a copy of this license, visit
# http://creativecommons.org/licenses/by-nc-sa/4.0/
# or send a letter to
# Creative Commons, PO Box 1866, Mountain View, CA 94042, USA.
#
# CIF created using the CSD Python API on 29 September 2022
# The structure has been converted into the P1 space group
# The structure has a 3D framework
# The original CSD entry SUHPAN is in the rhombohedral crystal system
# The framework has been calculated to contain at least 10.0% void space
# The void calculation uses a probe of radius 1.32A, grid spacing 0.4
#
###############################################################################

data_SUHPAN
_chemical_formula_moiety         '(C108 H180 Cu18 N54)n'
_symmetry_cell_setting           triclinic
_symmetry_space_group_name_H-M   'P 1'
_symmetry_Int_Tables_number      1
_space_group_name_Hall           'P 1'
loop_
_symmetry_equiv_pos_site_id
_symmetry_equiv_pos_as_xyz
1 x,y,z
_cell_length_a                   19.5947(14)
_cell_length_b                   19.5947(14)
_cell_length_c                   14.2851(10)
_cell_angle_alpha                90
_cell_angle_beta                 90
_cell_angle_gamma                120
_cell_volume                     4749.97
loop_
_atom_site_label
_atom_site_type_symbol
_atom_site_fract_x
_atom_site_fract_y
_atom_site_fract_z
Cu1 Cu 0.41502(2) 0.45137(2) 0.56200(3)
N1 N 0.50579(15) 0.54703(16) 0.61274(18)
N2 N 0.57459(15) 0.58569(15) 0.56101(18)
N3 N 0.58929(16) 0.65520(15) 0.68959(17)
C1 C 0.5174(2) 0.59032(19) 0.6888(2)
C2 C 0.4588(2) 0.5695(2) 0.7663(3)
H1 H 0.4111 0.5189 0.7507
H2 H 0.4815 0.5614 0.8243
C3 C 0.4354(4) 0.6290(3) 0.7847(5)
H3 H 0.3985 0.6118 0.8376
H4 H 0.4097 0.6351 0.7290
H5 H 0.4822 0.6795 0.7999
C4 C 0.62275(19) 0.64964(19) 0.6096(2)
C5 C 0.7036(2) 0.7084(2) 0.5797(3)
H6 H 0.7074 0.7606 0.5738
H7 H 0.7139 0.6935 0.5172
C6 C 0.7654(3) 0.7148(3) 0.6470(4)
H8 H 0.8176 0.7544 0.6243
H9 H 0.7628 0.6637 0.6519
H10 H 0.7561 0.7305 0.7087
Cu2 Cu 0.58498(2) 0.54863(2) 0.43800(3)
Cu3 Cu 0.63032(3) 0.74835(2) 0.77133(3)
N4 N 0.42541(15) 0.41431(15) 0.43899(18)
N5 N 0.32187(15) 0.39924(22) 0.64374(17)
H7_2 H 0.3065 0.0204 0.5172
C6_2 C 0.2852(3) 0.0506(4) 0.6470(4)
H8_2 H 0.2456 0.0632 0.6243
H9_2 H 0.3363 0.0991 0.6519
H10_2 H 0.2695 0.0256 0.7087
Cu2_2 Cu 0.45137(2) 0.03635(3) 0.43800(3)
N4_2 N 0.58569(15) 0.01110(21) 0.43899(18)
Cu1_2 Cu 0.54863(2) 0.96365(3) 0.56200(3)
N1_2 N 0.45297(16) 0.95876(22) 0.61274(18)
N2_2 N 0.41431(15) 0.98890(21) 0.56101(18)
N3_2 N 0.34480(15) 0.93409(22) 0.68959(17)
C1_2 C 0.40968(19) 0.92708(28) 0.6888(2)
C2_2 C 0.4305(2) 0.8893(3) 0.7663(3)
H1_2 H 0.4811 0.8922 0.7507
H2_2 H 0.4386 0.9201 0.8243
C3_2 C 0.3710(3) 0.8064(5) 0.7847(5)
H3_2 H 0.3882 0.7867 0.8376
H4_2 H 0.3649 0.7746 0.7290
H5_2 H 0.3205 0.8027 0.7999
C4_2 C 0.35036(19) 0.97311(27) 0.6096(2)
C5_2 C 0.2916(2) 0.9952(3) 0.5797(3)
H6_2 H 0.2394 0.9468 0.5738
Cu3_2 Cu 0.25165(2) 0.88196(4) 0.77133(3)
N5_2 N 0.60076(22) 0.92262(27) 0.64374(17)
Cu1_3 Cu 0.03635(3) 0.58498(2) 0.56200(3)
N1_3 N 0.04124(22) 0.49421(15) 0.61274(18)
N2_3 N 0.01110(21) 0.42541(15) 0.56101(18)
N3_3 N 0.06591(22) 0.41071(16) 0.68959(17)
C1_3 C 0.07292(28) 0.4826(2) 0.6888(2)
C2_3 C 0.1107(3) 0.5412(2) 0.7663(3)
H1_3 H 0.1078 0.5889 0.7507
H2_3 H 0.0799 0.5185 0.8243
C3_3 C 0.1936(5) 0.5646(4) 0.7847(5)
H3_3 H 0.2133 0.6015 0.8376
H4_3 H 0.2254 0.5903 0.7290
H5_3 H 0.1973 0.5178 0.7999
C4_3 C 0.02689(27) 0.37725(19) 0.6096(2)
C5_3 C 0.0048(3) 0.2964(2) 0.5797(3)
H6_3 H 0.0532 0.2926 0.5738
Cu3_3 Cu 0.11804(4) 0.36968(3) 0.77133(3)
N5_3 N 0.07738(27) 0.67813(15) 0.64374(17)
H7_3 H 0.9796 0.2861 0.5172
C6_3 C 0.9494(4) 0.2346(3) 0.6470(4)
H8_3 H 0.9368 0.1824 0.6243
H9_3 H 0.9009 0.2372 0.6519
H10_3 H 0.9744 0.2439 0.7087
Cu2_3 Cu 0.96365(3) 0.41502(2) 0.43800(3)
N4_3 N 0.98890(21) 0.57459(15) 0.43899(18)
H5_4 H 0.1489 0.0128 0.1332
H10_4 H 0.4228 0.0638 0.0420
Cu3_4 Cu 0.29698(3) 0.08169(2) 0.10467(3)
Cu1_4 Cu 0.08169(2) 0.78470(2) 0.89533(3)
N1_4 N 0.17246(15) 0.88036(16) 0.94607(18)
N2_4 N 0.24126(15) 0.91902(15) 0.89434(18)
C4_4 C 0.28942(19) 0.98297(19) 0.9429(2)
H9_4 H 0.4295 0.9970 0.9852
N4_4 N 0.09208(15) 0.74764(15) 0.77232(18)
Cu1_5 Cu 0.21530(2) 0.29698(3) 0.89533(3)
N1_5 N 0.11964(16) 0.29209(22) 0.94607(18)
N2_5 N 0.08098(15) 0.32223(21) 0.89434(18)
C4_5 C 0.01703(19) 0.30644(27) 0.9429(2)
H9_5 H 0.0030 0.4324 0.9852
N4_5 N 0.25236(15) 0.34443(21) 0.77232(18)
N5_4 N 0.26742(22) 0.25596(27) 0.97708(17)
H5_5 H 0.9872 0.1360 0.1332
H10_5 H 0.9362 0.3589 0.0420
Cu3_5 Cu 0.91831(2) 0.21530(4) 0.10467(3)
N3_4 N 0.73258(22) 0.74404(16) 0.02292(17)
C1_4 C 0.73959(28) 0.8159(2) 0.0221(2)
C2_4 C 0.7774(3) 0.8745(2) 0.0996(3)
H1_4 H 0.7745 0.9222 0.0840
H2_4 H 0.7466 0.8518 0.1576
C3_4 C 0.8603(5) 0.8979(4) 0.1180(5)
H3_4 H 0.8800 0.9348 0.1709
H4_4 H 0.8921 0.9236 0.0623
H5_6 H 0.8640 0.8511 0.1332
H10_6 H 0.6411 0.5772 0.0420
Cu3_6 Cu 0.78470(4) 0.70302(3) 0.10467(3)
Cu1_6 Cu 0.70302(3) 0.91831(2) 0.89533(3)
N1_6 N 0.70791(22) 0.82754(15) 0.94607(18)
N2_6 N 0.67777(21) 0.75874(15) 0.89434(18)
C4_6 C 0.69356(27) 0.71058(19) 0.9429(2)
C5_4 C 0.6715(3) 0.6297(2) 0.9130(3)
H6_4 H 0.7199 0.6259 0.9071
H7_4 H 0.6463 0.6194 0.8505
C6_4 C 0.6161(4) 0.5679(3) 0.9803(4)
H8_4 H 0.6035 0.5157 0.9576
H9_6 H 0.5676 0.5705 0.9852
N4_6 N 0.65557(21) 0.90792(15) 0.77232(18)
Cu1_7 Cu 0.74835(2) 0.11804(2) 0.22867(3)
N1_7 N 0.83912(15) 0.21370(16) 0.27941(18)
N2_7 N 0.90792(15) 0.25236(15) 0.22768(18)
N3_5 N 0.92262(16) 0.32187(15) 0.35626(17)
C1_5 C 0.8507(2) 0.25699(19) 0.3555(2)
C2_5 C 0.7921(2) 0.2362(2) 0.4330(3)
H1_5 H 0.7444 0.1856 0.4174
H2_5 H 0.8148 0.2281 0.4910
C3_5 C 0.7687(4) 0.2957(3) 0.4514(5)
H3_5 H 0.7318 0.2785 0.5043
H4_5 H 0.7430 0.3018 0.3957
H5_7 H 0.8155 0.3462 0.4666
C4_7 C 0.95608(19) 0.31631(19) 0.2763(2)
N4_7 N 0.75874(15) 0.08098(15) 0.10566(18)
N5_5 N 0.65520(15) 0.06591(22) 0.31041(17)
Cu1_8 Cu 0.88196(2) 0.63032(3) 0.22867(3)
N1_8 N 0.78630(16) 0.62543(22) 0.27941(18)
N2_8 N 0.74764(15) 0.65557(21) 0.22768(18)
N3_6 N 0.67813(15) 0.60076(22) 0.35626(17)
C1_6 C 0.74301(19) 0.59375(28) 0.3555(2)
C2_6 C 0.7638(2) 0.5560(3) 0.4330(3)
H1_6 H 0.8144 0.5589 0.4174
H2_6 H 0.7719 0.5868 0.4910
C3_6 C 0.7043(3) 0.4731(5) 0.4514(5)
H3_6 H 0.7215 0.4534 0.5043
H4_6 H 0.6982 0.4413 0.3957
H5_8 H 0.6538 0.4694 0.4666
C4_8 C 0.68369(19) 0.63978(27) 0.2763(2)
C5_5 C 0.6249(2) 0.6619(3) 0.2464(3)
H6_5 H 0.5727 0.6135 0.2405
H7_5 H 0.6398 0.6871 0.1839
C6_5 C 0.6185(3) 0.7173(4) 0.3137(4)
H8_5 H 0.5789 0.7299 0.2910
H9_7 H 0.6696 0.7658 0.3186
H10_7 H 0.6028 0.6923 0.3754
N4_8 N 0.91902(15) 0.67777(21) 0.10566(18)
N5_6 N 0.93409(22) 0.58929(27) 0.31041(17)
Cu1_9 Cu 0.36968(3) 0.25165(2) 0.22867(3)
N1_9 N 0.37457(22) 0.16088(15) 0.27941(18)
N2_9 N 0.34443(21) 0.09208(15) 0.22768(18)
N3_7 N 0.39924(22) 0.07738(16) 0.35626(17)
C1_7 C 0.40625(28) 0.1493(2) 0.3555(2)
C2_7 C 0.4440(3) 0.2079(2) 0.4330(3)
H1_7 H 0.4411 0.2556 0.4174
H2_7 H 0.4132 0.1852 0.4910
C3_7 C 0.5269(5) 0.2313(4) 0.4514(5)
H3_7 H 0.5466 0.2682 0.5043
H4_7 H 0.5587 0.2570 0.3957
H5_9 H 0.5306 0.1845 0.4666
C4_9 C 0.36022(27) 0.04392(19) 0.2763(2)
N4_9 N 0.32223(21) 0.24126(15) 0.10566(18)
N5_7 N 0.41071(27) 0.34480(15) 0.31041(17)
N1_10 N 0.49421(15) 0.45297(16) 0.38726(18)
C1_8 C 0.4826(2) 0.40968(19) 0.3112(2)
C2_8 C 0.5412(2) 0.4305(2) 0.2337(3)
H1_8 H 0.5889 0.4811 0.2493
H2_8 H 0.5185 0.4386 0.1757
C3_8 C 0.5646(4) 0.3710(3) 0.2153(5)
H3_8 H 0.6015 0.3882 0.1624
H4_8 H 0.5903 0.3649 0.2710
H5_10 H 0.5178 0.3205 0.2001
C4_10 C 0.37725(19) 0.35036(19) 0.3904(2)
C5_6 C 0.2964(2) 0.2916(2) 0.4203(3)
H6_6 H 0.2926 0.2394 0.4262
H7_6 H 0.2861 0.3065 0.4828
C6_6 C 0.2346(3) 0.2852(3) 0.3530(4)
H8_6 H 0.1824 0.2456 0.3757
H9_8 H 0.2372 0.3363 0.3481
H10_8 H 0.2439 0.2695 0.2913
N1_11 N 0.54703(16) 0.04124(22) 0.38726(18)
C1_9 C 0.59032(19) 0.07292(28) 0.3112(2)
C2_9 C 0.5695(2) 0.1107(3) 0.2337(3)
H1_9 H 0.5189 0.1078 0.2493
H2_9 H 0.5614 0.0799 0.1757
C3_9 C 0.6290(3) 0.1936(5) 0.2153(5)
H3_9 H 0.6118 0.2133 0.1624
H4_9 H 0.6351 0.2254 0.2710
H5_11 H 0.6795 0.1973 0.2001
C4_11 C 0.64964(19) 0.02689(27) 0.3904(2)
C5_7 C 0.7084(2) 0.0048(3) 0.4203(3)
H6_7 H 0.7606 0.0532 0.4262
H7_7 H 0.6935 0.9796 0.4828
C6_7 C 0.7148(3) 0.9494(4) 0.3530(4)
H8_7 H 0.7544 0.9368 0.3757
H9_9 H 0.6637 0.9009 0.3481
H10_9 H 0.7305 0.9744 0.2913
H7_8 H 0.0204 0.7139 0.4828
C6_8 C 0.0506(4) 0.7654(3) 0.3530(4)
H8_8 H 0.0632 0.8176 0.3757
H9_10 H 0.0991 0.7628 0.3481
H10_10 H 0.0256 0.7561 0.2913
N1_12 N 0.95876(22) 0.50579(15) 0.38726(18)
C1_10 C 0.92708(28) 0.5174(2) 0.3112(2)
C2_10 C 0.8893(3) 0.4588(2) 0.2337(3)
H1_10 H 0.8922 0.4111 0.2493
H2_10 H 0.9201 0.4815 0.1757
C3_10 C 0.8064(5) 0.4354(4) 0.2153(5)
H3_10 H 0.7867 0.3985 0.1624
H4_10 H 0.7746 0.4097 0.2710
H5_12 H 0.8027 0.4822 0.2001
C4_12 C 0.97311(27) 0.62275(19) 0.3904(2)
C5_8 C 0.9952(3) 0.7036(2) 0.4203(3)
H6_8 H 0.9468 0.7074 0.4262
N1_13 N 0.82754(15) 0.11964(16) 0.05393(18)
C4_13 C 0.71058(19) 0.01703(19) 0.0571(2)
H9_11 H 0.5705 0.0030 0.0148
H5_13 H 0.8511 0.9872 0.8668
H10_11 H 0.5772 0.9362 0.9580
H5_14 H 0.0128 0.8640 0.8668
H10_12 H 0.0638 0.6411 0.9580
N1_14 N 0.88036(16) 0.70791(22) 0.05393(18)
C4_14 C 0.98297(19) 0.69356(27) 0.0571(2)
H9_12 H 0.9970 0.5676 0.0148
N1_15 N 0.29209(22) 0.17246(15) 0.05393(18)
C4_15 C 0.30644(27) 0.28942(19) 0.0571(2)
C5_9 C 0.3285(3) 0.3703(2) 0.0870(3)
H6_9 H 0.2801 0.3741 0.0929
H7_9 H 0.3537 0.3806 0.1495
C6_9 C 0.3839(4) 0.4321(3) 0.0197(4)
H8_9 H 0.3965 0.4843 0.0424
H9_13 H 0.4324 0.4295 0.0148
C1_11 C 0.26041(28) 0.1841(2) 0.9779(2)
C2_11 C 0.2226(3) 0.1255(2) 0.9004(3)
H1_11 H 0.2255 0.0778 0.9160
H2_11 H 0.2534 0.1482 0.8424
C3_11 C 0.1397(5) 0.1021(4) 0.8820(5)
H3_11 H 0.1200 0.0652 0.8291
H4_11 H 0.1079 0.0764 0.9377
H5_15 H 0.1360 0.1489 0.8668
H10_13 H 0.3589 0.4228 0.9580
N1_16 N 0.16088(15) 0.78630(16) 0.72059(18)
C1_12 C 0.1493(2) 0.74301(19) 0.6445(2)
C2_12 C 0.2079(2) 0.7638(2) 0.5670(3)
H1_12 H 0.2556 0.8144 0.5826
H2_12 H 0.1852 0.7719 0.5090
C3_12 C 0.2313(4) 0.7043(3) 0.5486(5)
H3_12 H 0.2682 0.7215 0.4957
H4_12 H 0.2570 0.6982 0.6043
H5_16 H 0.1845 0.6538 0.5334
C4_16 C 0.04392(19) 0.68369(19) 0.7237(2)
N1_17 N 0.21370(16) 0.37457(22) 0.72059(18)
C1_13 C 0.25699(19) 0.40625(28) 0.6445(2)
C2_13 C 0.2362(2) 0.4440(3) 0.5670(3)
H1_13 H 0.1856 0.4411 0.5826
H2_13 H 0.2281 0.4132 0.5090
C3_13 C 0.2957(3) 0.5269(5) 0.5486(5)
H3_13 H 0.2785 0.5466 0.4957
H4_13 H 0.3018 0.5587 0.6043
H5_17 H 0.3462 0.5306 0.5334
C4_17 C 0.31631(19) 0.36022(27) 0.7237(2)
C5_10 C 0.3751(2) 0.3381(3) 0.7536(3)
H6_10 H 0.4273 0.3865 0.7595
H7_10 H 0.3602 0.3129 0.8161
C6_10 C 0.3815(3) 0.2827(4) 0.6863(4)
H8_10 H 0.4211 0.2701 0.7090
H9_14 H 0.3304 0.2342 0.6814
H10_14 H 0.3972 0.3077 0.6246
N1_18 N 0.62543(22) 0.83912(15) 0.72059(18)
C1_14 C 0.59375(28) 0.8507(2) 0.6445(2)
C2_14 C 0.5560(3) 0.7921(2) 0.5670(3)
H1_14 H 0.5589 0.7444 0.5826
H2_14 H 0.5868 0.8148 0.5090
C3_14 C 0.4731(5) 0.7687(4) 0.5486(5)
H3_14 H 0.4534 0.7318 0.4957
H4_14 H 0.4413 0.7430 0.6043
H5_18 H 0.4694 0.8155 0.5334
C4_18 C 0.63978(27) 0.95608(19) 0.7237(2)
C5_11 C 0.3703(2) 0.0417(2) 0.9130(3)
H6_11 H 0.3741 0.0939 0.9071
H7_11 H 0.3806 0.0268 0.8505
C6_11 C 0.4321(3) 0.0481(3) 0.9803(4)
H8_11 H 0.4843 0.0877 0.9576
N3_8 N 0.25596(16) 0.98853(15) 0.02292(17)
C1_15 C 0.1841(2) 0.92365(19) 0.0221(2)
C2_15 C 0.1255(2) 0.9028(2) 0.0996(3)
H1_15 H 0.0778 0.8522 0.0840
H2_15 H 0.1482 0.8947 0.1576
C3_15 C 0.1021(4) 0.9623(3) 0.1180(5)
H3_15 H 0.0652 0.9451 0.1709
H4_15 H 0.0764 0.9684 0.0623
N5_8 N 0.98853(15) 0.73258(22) 0.97708(17)
C1_16 C 0.92365(19) 0.73959(28) 0.9779(2)
C2_16 C 0.9028(2) 0.7774(3) 0.9004(3)
H1_16 H 0.8522 0.7745 0.9160
H2_16 H 0.8947 0.7466 0.8424
C3_16 C 0.9623(3) 0.8603(5) 0.8820(5)
H3_16 H 0.9451 0.8800 0.8291
H4_16 H 0.9684 0.8921 0.9377
N3_9 N 0.01147(15) 0.26742(22) 0.02292(17)
C1_17 C 0.07635(19) 0.26041(28) 0.0221(2)
C2_17 C 0.0972(2) 0.2226(3) 0.0996(3)
H1_17 H 0.1478 0.2255 0.0840
H2_17 H 0.1053 0.2534 0.1576
C3_17 C 0.0377(3) 0.1397(5) 0.1180(5)
H3_17 H 0.0549 0.1200 0.1709
H4_17 H 0.0316 0.1079 0.0623
C5_12 C 0.9583(2) 0.3285(3) 0.9130(3)
H6_12 H 0.9061 0.2801 0.9071
H7_12 H 0.9732 0.3537 0.8505
C6_12 C 0.9519(3) 0.3839(4) 0.9803(4)
H8_12 H 0.9123 0.3965 0.9576
N5_9 N 0.74404(27) 0.01147(15) 0.97708(17)
C1_18 C 0.8159(2) 0.07635(19) 0.9779(2)
C2_18 C 0.8745(2) 0.0972(2) 0.9004(3)
H1_18 H 0.9222 0.1478 0.9160
H2_18 H 0.8518 0.1053 0.8424
C3_18 C 0.8979(4) 0.0377(3) 0.8820(5)
H3_18 H 0.9348 0.0549 0.8291
H4_18 H 0.9236 0.0316 0.9377
C5_13 C 0.0369(2) 0.3751(2) 0.2464(3)
H6_13 H 0.0407 0.4273 0.2405
H7_13 H 0.0472 0.3602 0.1839
C6_13 C 0.0987(3) 0.3815(3) 0.3137(4)
H8_13 H 0.1509 0.4211 0.2910
H9_15 H 0.0961 0.3304 0.3186
H10_15 H 0.0894 0.3972 0.3754
C5_14 C 0.3381(3) 0.9631(2) 0.2464(3)
H6_14 H 0.3865 0.9593 0.2405
H7_14 H 0.3129 0.9528 0.1839
C6_14 C 0.2827(4) 0.9013(3) 0.3137(4)
H8_14 H 0.2701 0.8491 0.2910
H9_16 H 0.2342 0.9039 0.3186
H10_16 H 0.3077 0.9106 0.3754
C5_15 C 0.6297(2) 0.9583(2) 0.0870(3)
H6_15 H 0.6259 0.9061 0.0929
H7_15 H 0.6194 0.9732 0.1495
C6_15 C 0.5679(3) 0.9519(3) 0.0197(4)
H8_15 H 0.5157 0.9123 0.0424
C5_16 C 0.0417(2) 0.6715(3) 0.0870(3)
H6_16 H 0.0939 0.7199 0.0929
H7_16 H 0.0268 0.6463 0.1495
C6_16 C 0.0481(3) 0.6161(4) 0.0197(4)
H8_16 H 0.0877 0.6035 0.0424
C5_17 C 0.9631(2) 0.6249(2) 0.7536(3)
H6_17 H 0.9593 0.5727 0.7595
H7_17 H 0.9528 0.6398 0.8161
C6_17 C 0.9013(3) 0.6185(3) 0.6863(4)
H8_17 H 0.8491 0.5789 0.7090
H9_17 H 0.9039 0.6696 0.6814
H10_17 H 0.9106 0.6028 0.6246
C5_18 C 0.6619(3) 0.0369(2) 0.7536(3)
H6_18 H 0.6135 0.0407 0.7595
H7_18 H 0.6871 0.0472 0.8161
C6_18 C 0.7173(4) 0.0987(3) 0.6863(4)
H8_18 H 0.7299 0.1509 0.7090
H9_18 H 0.7658 0.0961 0.6814
H10_18 H 0.6923 0.0894 0.6246
loop_
_geom_bond_atom_site_label_1
_geom_bond_atom_site_label_2
_geom_bond_site_symmetry_1
_geom_bond_site_symmetry_2
Cu1 N1 1_555 1_555
N1 N2 1_555 1_555
N2 C4 1_555 1_555
N3 C1 1_555 1_555
C1 N1 1_555 1_555
C2 C1 1_555 1_555
H1 C2 1_555 1_555
H2 C2 1_555 1_555
C3 C2 1_555 1_555
H3 C3 1_555 1_555
H4 C3 1_555 1_555
H5 C3 1_555 1_555
C4 N3 1_555 1_555
C5 C4 1_555 1_555
H6 C5 1_555 1_555
H7 C5 1_555 1_555
C6 C5 1_555 1_555
H8 C6 1_555 1_555
H9 C6 1_555 1_555
H10 C6 1_555 1_555
Cu2 N2 1_555 1_555
Cu3 N3 1_555 1_555
N4 Cu1 1_555 1_555
N5 Cu1 1_555 1_555
H8_2 C6_2 1_555 1_555
H9_2 C6_2 1_555 1_555
H10_2 C6_2 1_555 1_555
Cu1_2 N1_2 1_555 1_555
N1_2 N2_2 1_555 1_555
N2_2 C4_2 1_555 1_555
N3_2 C1_2 1_555 1_555
C1_2 N1_2 1_555 1_555
C2_2 C1_2 1_555 1_555
H1_2 C2_2 1_555 1_555
H2_2 C2_2 1_555 1_555
C3_2 C2_2 1_555 1_555
H3_2 C3_2 1_555 1_555
H4_2 C3_2 1_555 1_555
H5_2 C3_2 1_555 1_555
C4_2 N3_2 1_555 1_555
C5_2 C4_2 1_555 1_555
H6_2 C5_2 1_555 1_555
Cu3_2 N3_2 1_555 1_555
N5_2 Cu1_2 1_555 1_555
Cu1_3 N1_3 1_555 1_555
N1_3 N2_3 1_555 1_555
N2_3 C4_3 1_555 1_555
N3_3 C1_3 1_555 1_555
C1_3 N1_3 1_555 1_555
C2_3 C1_3 1_555 1_555
H1_3 C2_3 1_555 1_555
H2_3 C2_3 1_555 1_555
C3_3 C2_3 1_555 1_555
H3_3 C3_3 1_555 1_555
H4_3 C3_3 1_555 1_555
H5_3 C3_3 1_555 1_555
C4_3 N3_3 1_555 1_555
C5_3 C4_3 1_555 1_555
H6_3 C5_3 1_555 1_555
Cu3_3 N3_3 1_555 1_555
N5_3 Cu1_3 1_555 1_555
H8_3 C6_3 1_555 1_555
H9_3 C6_3 1_555 1_555
H10_3 C6_3 1_555 1_555
Cu1_4 N1_4 1_555 1_555
N1_4 N2_4 1_555 1_555
N2_4 C4_4 1_555 1_555
Cu3_2 N2_4 1_555 1_555
N4_4 Cu1_4 1_555 1_555
Cu1_5 N1_5 1_555 1_555
N1_5 N2_5 1_555 1_555
N2_5 C4_5 1_555 1_555
Cu3_3 N2_5 1_555 1_555
N4_5 Cu1_5 1_555 1_555
N5_4 Cu1_5 1_555 1_555
N3_4 C1_4 1_555 1_555
C2_4 C1_4 1_555 1_555
H1_4 C2_4 1_555 1_555
H2_4 C2_4 1_555 1_555
C3_4 C2_4 1_555 1_555
H3_4 C3_4 1_555 1_555
H4_4 C3_4 1_555 1_555
H5_6 C3_4 1_555 1_555
Cu3_6 N3_4 1_555 1_555
Cu1_6 N1_6 1_555 1_555
N1_6 N2_6 1_555 1_555
N2_6 C4_6 1_555 1_555
C5_4 C4_6 1_555 1_555
H6_4 C5_4 1_555 1_555
H7_4 C5_4 1_555 1_555
C6_4 C5_4 1_555 1_555
H8_4 C6_4 1_555 1_555
H9_6 C6_4 1_555 1_555
Cu3 N2_6 1_555 1_555
N4_6 Cu1_6 1_555 1_555
Cu1_7 N1_7 1_555 1_555
N1_7 N2_7 1_555 1_555
N2_7 C4_7 1_555 1_555
N3_5 C1_5 1_555 1_555
C1_5 N1_7 1_555 1_555
C2_5 C1_5 1_555 1_555
H1_5 C2_5 1_555 1_555
H2_5 C2_5 1_555 1_555
C3_5 C2_5 1_555 1_555
H3_5 C3_5 1_555 1_555
H4_5 C3_5 1_555 1_555
H5_7 C3_5 1_555 1_555
C4_7 N3_5 1_555 1_555
Cu3_5 N2_7 1_555 1_555
Cu2_3 N3_5 1_555 1_555
N4_7 Cu1_7 1_555 1_555
N5_5 Cu1_7 1_555 1_555
Cu1_8 N1_8 1_555 1_555
N1_8 N2_8 1_555 1_555
N2_8 C4_8 1_555 1_555
N3_6 C1_6 1_555 1_555
C1_6 N1_8 1_555 1_555
C2_6 C1_6 1_555 1_555
H1_6 C2_6 1_555 1_555
H2_6 C2_6 1_555 1_555
C3_6 C2_6 1_555 1_555
H3_6 C3_6 1_555 1_555
H4_6 C3_6 1_555 1_555
H5_8 C3_6 1_555 1_555
C4_8 N3_6 1_555 1_555
C5_5 C4_8 1_555 1_555
H6_5 C5_5 1_555 1_555
H7_5 C5_5 1_555 1_555
C6_5 C5_5 1_555 1_555
H8_5 C6_5 1_555 1_555
H9_7 C6_5 1_555 1_555
H10_7 C6_5 1_555 1_555
Cu3_6 N2_8 1_555 1_555
Cu2 N3_6 1_555 1_555
N4_8 Cu1_8 1_555 1_555
N5_6 Cu1_8 1_555 1_555
Cu1_9 N1_9 1_555 1_555
N1_9 N2_9 1_555 1_555
N2_9 C4_9 1_555 1_555
N3_7 C1_7 1_555 1_555
C1_7 N1_9 1_555 1_555
C2_7 C1_7 1_555 1_555
H1_7 C2_7 1_555 1_555
H2_7 C2_7 1_555 1_555
C3_7 C2_7 1_555 1_555
H3_7 C3_7 1_555 1_555
H4_7 C3_7 1_555 1_555
H5_9 C3_7 1_555 1_555
C4_9 N3_7 1_555 1_555
Cu3_4 N2_9 1_555 1_555
Cu2_2 N3_7 1_555 1_555
N4_9 Cu1_9 1_555 1_555
N5_7 Cu1_9 1_555 1_555
Cu2 N1_10 1_555 1_555
N1_10 N4 1_555 1_555
N4 C4_10 1_555 1_555
N5_7 C1_8 1_555 1_555
C1_8 N1_10 1_555 1_555
C2_8 C1_8 1_555 1_555
H1_8 C2_8 1_555 1_555
H2_8 C2_8 1_555 1_555
C3_8 C2_8 1_555 1_555
H3_8 C3_8 1_555 1_555
H4_8 C3_8 1_555 1_555
H5_10 C3_8 1_555 1_555
C4_10 N5_7 1_555 1_555
C5_6 C4_10 1_555 1_555
H6_6 C5_6 1_555 1_555
H7_6 C5_6 1_555 1_555
C6_6 C5_6 1_555 1_555
H8_6 C6_6 1_555 1_555
H9_8 C6_6 1_555 1_555
H10_8 C6_6 1_555 1_555
Cu2_2 N1_11 1_555 1_555
N1_11 N4_2 1_555 1_555
N4_2 C4_11 1_555 1_555
N5_5 C1_9 1_555 1_555
C1_9 N1_11 1_555 1_555
C2_9 C1_9 1_555 1_555
H1_9 C2_9 1_555 1_555
H2_9 C2_9 1_555 1_555
C3_9 C2_9 1_555 1_555
H3_9 C3_9 1_555 1_555
H4_9 C3_9 1_555 1_555
H5_11 C3_9 1_555 1_555
C4_11 N5_5 1_555 1_555
C5_7 C4_11 1_555 1_555
H6_7 C5_7 1_555 1_555
H8_7 C6_7 1_555 1_555
H9_9 C6_7 1_555 1_555
H10_9 C6_7 1_555 1_555
H8_8 C6_8 1_555 1_555
H9_10 C6_8 1_555 1_555
H10_10 C6_8 1_555 1_555
Cu2_3 N1_12 1_555 1_555
N1_12 N4_3 1_555 1_555
N4_3 C4_12 1_555 1_555
N5_6 C1_10 1_555 1_555
C1_10 N1_12 1_555 1_555
C2_10 C1_10 1_555 1_555
H1_10 C2_10 1_555 1_555
H2_10 C2_10 1_555 1_555
C3_10 C2_10 1_555 1_555
H3_10 C3_10 1_555 1_555
H4_10 C3_10 1_555 1_555
H5_12 C3_10 1_555 1_555
C4_12 N5_6 1_555 1_555
C5_8 C4_12 1_555 1_555
H6_8 C5_8 1_555 1_555
Cu3_5 N1_13 1_555 1_555
N1_13 N4_7 1_555 1_555
N4_7 C4_13 1_555 1_555
Cu3_6 N1_14 1_555 1_555
N1_14 N4_8 1_555 1_555
N4_8 C4_14 1_555 1_555
Cu3_4 N1_15 1_555 1_555
N1_15 N4_9 1_555 1_555
N4_9 C4_15 1_555 1_555
C5_9 C4_15 1_555 1_555
H6_9 C5_9 1_555 1_555
H7_9 C5_9 1_555 1_555
C6_9 C5_9 1_555 1_555
H8_9 C6_9 1_555 1_555
H9_13 C6_9 1_555 1_555
N5_4 C1_11 1_555 1_555
C2_11 C1_11 1_555 1_555
H1_11 C2_11 1_555 1_555
H2_11 C2_11 1_555 1_555
C3_11 C2_11 1_555 1_555
H3_11 C3_11 1_555 1_555
H4_11 C3_11 1_555 1_555
H5_15 C3_11 1_555 1_555
Cu3_2 N1_16 1_555 1_555
N1_16 N4_4 1_555 1_555
N4_4 C4_16 1_555 1_555
N5_3 C1_12 1_555 1_555
C1_12 N1_16 1_555 1_555
C2_12 C1_12 1_555 1_555
H1_12 C2_12 1_555 1_555
H2_12 C2_12 1_555 1_555
C3_12 C2_12 1_555 1_555
H3_12 C3_12 1_555 1_555
H4_12 C3_12 1_555 1_555
H5_16 C3_12 1_555 1_555
C4_16 N5_3 1_555 1_555
Cu3_3 N1_17 1_555 1_555
N1_17 N4_5 1_555 1_555
N4_5 C4_17 1_555 1_555
N5 C1_13 1_555 1_555
C1_13 N1_17 1_555 1_555
C2_13 C1_13 1_555 1_555
H1_13 C2_13 1_555 1_555
H2_13 C2_13 1_555 1_555
C3_13 C2_13 1_555 1_555
H3_13 C3_13 1_555 1_555
H4_13 C3_13 1_555 1_555
H5_17 C3_13 1_555 1_555
C4_17 N5 1_555 1_555
C5_10 C4_17 1_555 1_555
H6_10 C5_10 1_555 1_555
H7_10 C5_10 1_555 1_555
C6_10 C5_10 1_555 1_555
H8_10 C6_10 1_555 1_555
H9_14 C6_10 1_555 1_555
H10_14 C6_10 1_555 1_555
Cu3 N1_18 1_555 1_555
N1_18 N4_6 1_555 1_555
N4_6 C4_18 1_555 1_555
N5_2 C1_14 1_555 1_555
C1_14 N1_18 1_555 1_555
C2_14 C1_14 1_555 1_555
H1_14 C2_14 1_555 1_555
H2_14 C2_14 1_555 1_555
C3_14 C2_14 1_555 1_555
H3_14 C3_14 1_555 1_555
H4_14 C3_14 1_555 1_555
H5_18 C3_14 1_555 1_555
C4_18 N5_2 1_555 1_555
H6_11 C5_11 1_555 1_555
H7_11 C5_11 1_555 1_555
C6_11 C5_11 1_555 1_555
H8_11 C6_11 1_555 1_555
N3_8 C1_15 1_555 1_555
C2_15 C1_15 1_555 1_555
H1_15 C2_15 1_555 1_555
H2_15 C2_15 1_555 1_555
C3_15 C2_15 1_555 1_555
H3_15 C3_15 1_555 1_555
H4_15 C3_15 1_555 1_555
N5_8 C1_16 1_555 1_555
C2_16 C1_16 1_555 1_555
H1_16 C2_16 1_555 1_555
H2_16 C2_16 1_555 1_555
C3_16 C2_16 1_555 1_555
H3_16 C3_16 1_555 1_555
H4_16 C3_16 1_555 1_555
N3_9 C1_17 1_555 1_555
C2_17 C1_17 1_555 1_555
H1_17 C2_17 1_555 1_555
H2_17 C2_17 1_555 1_555
C3_17 C2_17 1_555 1_555
H3_17 C3_17 1_555 1_555
H4_17 C3_17 1_555 1_555
H6_12 C5_12 1_555 1_555
H7_12 C5_12 1_555 1_555
C6_12 C5_12 1_555 1_555
H8_12 C6_12 1_555 1_555
N5_9 C1_18 1_555 1_555
C2_18 C1_18 1_555 1_555
H1_18 C2_18 1_555 1_555
H2_18 C2_18 1_555 1_555
C3_18 C2_18 1_555 1_555
H3_18 C3_18 1_555 1_555
H4_18 C3_18 1_555 1_555
H6_13 C5_13 1_555 1_555
H7_13 C5_13 1_555 1_555
C6_13 C5_13 1_555 1_555
H8_13 C6_13 1_555 1_555
H9_15 C6_13 1_555 1_555
H10_15 C6_13 1_555 1_555
H6_14 C5_14 1_555 1_555
H7_14 C5_14 1_555 1_555
C6_14 C5_14 1_555 1_555
H8_14 C6_14 1_555 1_555
H9_16 C6_14 1_555 1_555
H10_16 C6_14 1_555 1_555
H6_15 C5_15 1_555 1_555
H7_15 C5_15 1_555 1_555
C6_15 C5_15 1_555 1_555
H8_15 C6_15 1_555 1_555
H6_16 C5_16 1_555 1_555
H7_16 C5_16 1_555 1_555
C6_16 C5_16 1_555 1_555
H8_16 C6_16 1_555 1_555
H6_17 C5_17 1_555 1_555
H7_17 C5_17 1_555 1_555
C6_17 C5_17 1_555 1_555
H8_17 C6_17 1_555 1_555
H9_17 C6_17 1_555 1_555
H10_17 C6_17 1_555 1_555
H6_18 C5_18 1_555 1_555
H7_18 C5_18 1_555 1_555
C6_18 C5_18 1_555 1_555
H8_18 C6_18 1_555 1_555
H9_18 C6_18 1_555 1_555
H10_18 C6_18 1_555 1_555

#END
