
###############################################################################
#
# This file contains modified crystal structure data generated from the
# MOF subset of the Cambridge Structural Database (CSD) v543 
# hosted by the Cambridge Crystallographic Data Centre (CCDC).
#
# This work is licensed under the Creative Commons
# Attribution-NonCommercial-ShareAlike 4.0 International License.
# To view a copy of this license, visit
# http://creativecommons.org/licenses/by-nc-sa/4.0/
# or send a letter to
# Creative Commons, PO Box 1866, Mountain View, CA 94042, USA.
#
# CIF created using the CSD Python API on 29 September 2022
# The structure has been converted into the P1 space group
# The structure has a 3D framework
# The original CSD entry SUHQUI is in the rhombohedral crystal system
# The framework has been calculated to contain at least 10.0% void space
# The void calculation uses a probe of radius 1.32A, grid spacing 0.4
#
###############################################################################

data_SUHQUI
_chemical_formula_moiety         '(C108 H180 Cu18 N54)n'
_symmetry_cell_setting           triclinic
_symmetry_space_group_name_H-M   'P 1'
_symmetry_Int_Tables_number      1
_space_group_name_Hall           'P 1'
loop_
_symmetry_equiv_pos_site_id
_symmetry_equiv_pos_as_xyz
1 x,y,z
_cell_length_a                   19.6798(13)
_cell_length_b                   19.6798(13)
_cell_length_c                   14.2054(10)
_cell_angle_alpha                90
_cell_angle_beta                 90
_cell_angle_gamma                120
_cell_volume                     4764.59
loop_
_atom_site_label
_atom_site_type_symbol
_atom_site_fract_x
_atom_site_fract_y
_atom_site_fract_z
Cu1 Cu 0.41496(2) 0.45167(2) 0.56205(2)
N1 N 0.50595(15) 0.54670(15) 0.61314(17)
N2 N 0.57459(14) 0.58485(15) 0.56149(17)
N3 N 0.58881(15) 0.65500(14) 0.69005(17)
C1 C 0.51719(19) 0.59032(18) 0.6890(2)
C2 C 0.4586(2) 0.5698(2) 0.7664(3)
H1 H 0.4111 0.5194 0.7507
H2 H 0.4809 0.5619 0.8251
C3 C 0.4351(4) 0.6292(4) 0.7841(5)
H3 H 0.3982 0.6123 0.8369
H4 H 0.4099 0.6352 0.7277
H5 H 0.4817 0.6796 0.7993
C4 C 0.62210(17) 0.64892(17) 0.6100(2)
C5 C 0.70317(19) 0.7075(2) 0.5798(3)
H6 H 0.7071 0.7595 0.5734
H7 H 0.7135 0.6924 0.5172
C6 C 0.7644(2) 0.7140(3) 0.6477(4)
H8 H 0.8165 0.7535 0.6251
H9 H 0.7619 0.6631 0.6528
H10 H 0.7549 0.7296 0.7096
Cu2 Cu 0.58504(2) 0.54833(2) 0.43795(2)
Cu3 Cu 0.62996(3) 0.74829(2) 0.77128(2)
N4 N 0.42541(14) 0.41515(15) 0.43851(17)
N5 N 0.32167(14) 0.39952(21) 0.64328(17)
H7_2 H 0.3076 0.0211 0.5172
C6_2 C 0.2860(3) 0.0504(4) 0.6477(4)
H8_2 H 0.2465 0.0630 0.6251
H9_2 H 0.3369 0.0988 0.6528
H10_2 H 0.2704 0.0253 0.7096
Cu2_2 Cu 0.45167(2) 0.03671(3) 0.43795(2)
N4_2 N 0.58485(15) 0.01026(21) 0.43851(17)
Cu1_2 Cu 0.54833(2) 0.96329(3) 0.56205(2)
N1_2 N 0.45330(15) 0.95925(21) 0.61314(17)
N2_2 N 0.41515(15) 0.98974(21) 0.56149(17)
N3_2 N 0.34500(14) 0.93381(21) 0.69005(17)
C1_2 C 0.40968(18) 0.92687(26) 0.6890(2)
C2_2 C 0.4302(2) 0.8888(3) 0.7664(3)
H1_2 H 0.4806 0.8917 0.7507
H2_2 H 0.4381 0.9190 0.8251
C3_2 C 0.3708(4) 0.8059(6) 0.7841(5)
H3_2 H 0.3877 0.7859 0.8369
H4_2 H 0.3648 0.7747 0.7277
H5_2 H 0.3204 0.8021 0.7993
C4_2 C 0.35108(17) 0.97318(24) 0.6100(2)
C5_2 C 0.2925(2) 0.99567(28) 0.5798(3)
H6_2 H 0.2405 0.9476 0.5734
Cu3_2 Cu 0.25171(2) 0.88166(4) 0.77128(2)
N5_2 N 0.60048(21) 0.92214(25) 0.64328(17)
Cu1_3 Cu 0.03671(3) 0.58504(2) 0.56205(2)
N1_3 N 0.04075(21) 0.49405(15) 0.61314(17)
N2_3 N 0.01026(21) 0.42541(14) 0.56149(17)
N3_3 N 0.06619(21) 0.41119(15) 0.69005(17)
C1_3 C 0.07313(26) 0.48281(19) 0.6890(2)
C2_3 C 0.1112(3) 0.5414(2) 0.7664(3)
H1_3 H 0.1083 0.5889 0.7507
H2_3 H 0.0810 0.5191 0.8251
C3_3 C 0.1941(6) 0.5649(4) 0.7841(5)
H3_3 H 0.2141 0.6018 0.8369
H4_3 H 0.2253 0.5901 0.7277
H5_3 H 0.1979 0.5183 0.7993
C4_3 C 0.02682(24) 0.37790(17) 0.6100(2)
C5_3 C 0.00433(28) 0.29683(19) 0.5798(3)
H6_3 H 0.0524 0.2929 0.5734
Cu3_3 Cu 0.11834(4) 0.37004(3) 0.77128(2)
N5_3 N 0.07786(25) 0.67833(14) 0.64328(17)
H7_3 H 0.9789 0.2865 0.5172
C6_3 C 0.9496(4) 0.2356(2) 0.6477(4)
H8_3 H 0.9370 0.1835 0.6251
H9_3 H 0.9012 0.2381 0.6528
H10_3 H 0.9747 0.2451 0.7096
Cu2_3 Cu 0.96329(3) 0.41496(2) 0.43795(2)
N4_3 N 0.98974(21) 0.57459(14) 0.43851(17)
H5_4 H 0.1484 0.0129 0.1326
H10_4 H 0.4216 0.0629 0.0429
Cu3_4 Cu 0.29662(3) 0.08163(2) 0.10462(2)
Cu1_4 Cu 0.08163(2) 0.78500(2) 0.89538(2)
N1_4 N 0.17262(15) 0.88003(15) 0.94647(17)
N2_4 N 0.24126(14) 0.91818(15) 0.89482(17)
C4_4 C 0.28877(17) 0.98225(17) 0.9433(2)
H9_4 H 0.4286 0.9964 0.9861
N4_4 N 0.09208(14) 0.74848(15) 0.77184(17)
Cu1_5 Cu 0.21500(2) 0.29662(3) 0.89538(2)
N1_5 N 0.11997(15) 0.29258(21) 0.94647(17)
N2_5 N 0.08182(15) 0.32307(21) 0.89482(17)
C4_5 C 0.01775(17) 0.30651(24) 0.9433(2)
H9_5 H 0.0036 0.4321 0.9861
N4_5 N 0.25152(15) 0.34359(21) 0.77184(17)
N5_4 N 0.26714(21) 0.25548(25) 0.97662(17)
H5_5 H 0.9871 0.1354 0.1326
H10_5 H 0.9371 0.3586 0.0429
Cu3_5 Cu 0.91837(2) 0.21500(4) 0.10462(2)
N3_4 N 0.73286(21) 0.74452(15) 0.02338(17)
C1_4 C 0.73980(26) 0.81614(19) 0.0223(2)
C2_4 C 0.7779(3) 0.8747(2) 0.0997(3)
H1_4 H 0.7750 0.9222 0.0840
H2_4 H 0.7477 0.8524 0.1584
C3_4 C 0.8608(6) 0.8982(4) 0.1174(5)
H3_4 H 0.8808 0.9351 0.1702
H4_4 H 0.8920 0.9234 0.0610
H5_6 H 0.8646 0.8516 0.1326
H10_6 H 0.6414 0.5784 0.0429
Cu3_6 Cu 0.78500(4) 0.70338(3) 0.10462(2)
Cu1_6 Cu 0.70338(3) 0.91837(2) 0.89538(2)
N1_6 N 0.70742(21) 0.82738(15) 0.94647(17)
N2_6 N 0.67693(21) 0.75874(14) 0.89482(17)
C4_6 C 0.69349(24) 0.71123(17) 0.9433(2)
C5_4 C 0.67100(28) 0.63016(19) 0.9131(3)
H6_4 H 0.7191 0.6262 0.9067
H7_4 H 0.6456 0.6198 0.8505
C6_4 C 0.6163(4) 0.5689(2) 0.9810(4)
H8_4 H 0.6037 0.5168 0.9584
H9_6 H 0.5679 0.5714 0.9861
N4_6 N 0.65641(21) 0.90792(14) 0.77184(17)
Cu1_7 Cu 0.74829(2) 0.11834(2) 0.22872(2)
N1_7 N 0.83928(15) 0.21337(15) 0.27981(17)
N2_7 N 0.90792(14) 0.25152(15) 0.22816(17)
N3_5 N 0.92214(15) 0.32167(14) 0.35672(17)
C1_5 C 0.85052(19) 0.25699(18) 0.3557(2)
C2_5 C 0.7919(2) 0.2365(2) 0.4331(3)
H1_5 H 0.7444 0.1861 0.4174
H2_5 H 0.8142 0.2286 0.4918
C3_5 C 0.7684(4) 0.2959(4) 0.4508(5)
H3_5 H 0.7315 0.2790 0.5036
H4_5 H 0.7432 0.3019 0.3944
H5_7 H 0.8150 0.3463 0.4660
C4_7 C 0.95543(17) 0.31559(17) 0.2767(2)
N4_7 N 0.75874(14) 0.08182(15) 0.10518(17)
N5_5 N 0.65500(14) 0.06619(21) 0.30995(17)
Cu1_8 Cu 0.88166(2) 0.62996(3) 0.22872(2)
N1_8 N 0.78663(15) 0.62592(21) 0.27981(17)
N2_8 N 0.74848(15) 0.65641(21) 0.22816(17)
N3_6 N 0.67833(14) 0.60048(21) 0.35672(17)
C1_6 C 0.74301(18) 0.59354(26) 0.3557(2)
C2_6 C 0.7635(2) 0.5555(3) 0.4331(3)
H1_6 H 0.8139 0.5584 0.4174
H2_6 H 0.7714 0.5857 0.4918
C3_6 C 0.7041(4) 0.4726(6) 0.4508(5)
H3_6 H 0.7210 0.4526 0.5036
H4_6 H 0.6981 0.4414 0.3944
H5_8 H 0.6537 0.4688 0.4660
C4_8 C 0.68441(17) 0.63985(24) 0.2767(2)
C5_5 C 0.6258(2) 0.66234(28) 0.2465(3)
H6_5 H 0.5738 0.6143 0.2401
H7_5 H 0.6409 0.6878 0.1839
C6_5 C 0.6193(3) 0.7171(4) 0.3144(4)
H8_5 H 0.5798 0.7297 0.2918
H9_7 H 0.6702 0.7655 0.3195
H10_7 H 0.6037 0.6920 0.3763
N4_8 N 0.91818(15) 0.67693(21) 0.10518(17)
N5_6 N 0.93381(21) 0.58881(25) 0.30995(17)
Cu1_9 Cu 0.37004(3) 0.25171(2) 0.22872(2)
N1_9 N 0.37408(21) 0.16072(15) 0.27981(17)
N2_9 N 0.34359(21) 0.09208(14) 0.22816(17)
N3_7 N 0.39952(21) 0.07786(15) 0.35672(17)
C1_7 C 0.40646(26) 0.14948(19) 0.3557(2)
C2_7 C 0.4445(3) 0.2081(2) 0.4331(3)
H1_7 H 0.4416 0.2556 0.4174
H2_7 H 0.4143 0.1858 0.4918
C3_7 C 0.5274(6) 0.2316(4) 0.4508(5)
H3_7 H 0.5474 0.2685 0.5036
H4_7 H 0.5586 0.2568 0.3944
H5_9 H 0.5312 0.1850 0.4660
C4_9 C 0.36015(24) 0.04457(17) 0.2767(2)
N4_9 N 0.32307(21) 0.24126(14) 0.10518(17)
N5_7 N 0.41119(25) 0.34500(14) 0.30995(17)
N1_10 N 0.49405(15) 0.45330(15) 0.38686(17)
C1_8 C 0.48281(19) 0.40968(18) 0.3110(2)
C2_8 C 0.5414(2) 0.4302(2) 0.2336(3)
H1_8 H 0.5889 0.4806 0.2493
H2_8 H 0.5191 0.4381 0.1749
C3_8 C 0.5649(4) 0.3708(4) 0.2159(5)
H3_8 H 0.6018 0.3877 0.1631
H4_8 H 0.5901 0.3648 0.2723
H5_10 H 0.5183 0.3204 0.2007
C4_10 C 0.37790(17) 0.35108(17) 0.3900(2)
C5_6 C 0.29683(19) 0.2925(2) 0.4202(3)
H6_6 H 0.2929 0.2405 0.4266
H7_6 H 0.2865 0.3076 0.4828
C6_6 C 0.2356(2) 0.2860(3) 0.3523(4)
H8_6 H 0.1835 0.2465 0.3749
H9_8 H 0.2381 0.3369 0.3472
H10_8 H 0.2451 0.2704 0.2904
N1_11 N 0.54670(15) 0.04075(21) 0.38686(17)
C1_9 C 0.59032(18) 0.07313(26) 0.3110(2)
C2_9 C 0.5698(2) 0.1112(3) 0.2336(3)
H1_9 H 0.5194 0.1083 0.2493
H2_9 H 0.5619 0.0810 0.1749
C3_9 C 0.6292(4) 0.1941(6) 0.2159(5)
H3_9 H 0.6123 0.2141 0.1631
H4_9 H 0.6352 0.2253 0.2723
H5_11 H 0.6796 0.1979 0.2007
C4_11 C 0.64892(17) 0.02682(24) 0.3900(2)
C5_7 C 0.7075(2) 0.00433(28) 0.4202(3)
H6_7 H 0.7595 0.0524 0.4266
H7_7 H 0.6924 0.9789 0.4828
C6_7 C 0.7140(3) 0.9496(4) 0.3523(4)
H8_7 H 0.7535 0.9370 0.3749
H9_9 H 0.6631 0.9012 0.3472
H10_9 H 0.7296 0.9747 0.2904
H7_8 H 0.0211 0.7135 0.4828
C6_8 C 0.0504(4) 0.7644(2) 0.3523(4)
H8_8 H 0.0630 0.8165 0.3749
H9_10 H 0.0988 0.7619 0.3472
H10_10 H 0.0253 0.7549 0.2904
N1_12 N 0.95925(21) 0.50595(15) 0.38686(17)
C1_10 C 0.92687(26) 0.51719(19) 0.3110(2)
C2_10 C 0.8888(3) 0.4586(2) 0.2336(3)
H1_10 H 0.8917 0.4111 0.2493
H2_10 H 0.9190 0.4809 0.1749
C3_10 C 0.8059(6) 0.4351(4) 0.2159(5)
H3_10 H 0.7859 0.3982 0.1631
H4_10 H 0.7747 0.4099 0.2723
H5_12 H 0.8021 0.4817 0.2007
C4_12 C 0.97318(24) 0.62210(17) 0.3900(2)
C5_8 C 0.99567(28) 0.70317(19) 0.4202(3)
H6_8 H 0.9476 0.7071 0.4266
N1_13 N 0.82738(15) 0.11997(15) 0.05353(17)
C4_13 C 0.71123(17) 0.01775(17) 0.0567(2)
H9_11 H 0.5714 0.0036 0.0139
H5_13 H 0.8516 0.9871 0.8674
H10_11 H 0.5784 0.9371 0.9571
H5_14 H 0.0129 0.8646 0.8674
H10_12 H 0.0629 0.6414 0.9571
N1_14 N 0.88003(15) 0.70742(21) 0.05353(17)
C4_14 C 0.98225(17) 0.69349(24) 0.0567(2)
H9_12 H 0.9964 0.5679 0.0139
N1_15 N 0.29258(21) 0.17262(15) 0.05353(17)
C4_15 C 0.30651(24) 0.28877(17) 0.0567(2)
C5_9 C 0.32900(28) 0.36984(19) 0.0869(3)
H6_9 H 0.2809 0.3738 0.0933
H7_9 H 0.3544 0.3802 0.1495
C6_9 C 0.3837(4) 0.4311(2) 0.0190(4)
H8_9 H 0.3963 0.4832 0.0416
H9_13 H 0.4321 0.4286 0.0139
C1_11 C 0.26020(26) 0.18386(19) 0.9777(2)
C2_11 C 0.2221(3) 0.1253(2) 0.9003(3)
H1_11 H 0.2250 0.0778 0.9160
H2_11 H 0.2523 0.1476 0.8416
C3_11 C 0.1392(6) 0.1018(4) 0.8826(5)
H3_11 H 0.1192 0.0649 0.8298
H4_11 H 0.1080 0.0766 0.9390
H5_15 H 0.1354 0.1484 0.8674
H10_13 H 0.3586 0.4216 0.9571
N1_16 N 0.16072(15) 0.78663(15) 0.72019(17)
C1_12 C 0.14948(19) 0.74301(18) 0.6443(2)
C2_12 C 0.2081(2) 0.7635(2) 0.5669(3)
H1_12 H 0.2556 0.8139 0.5826
H2_12 H 0.1858 0.7714 0.5082
C3_12 C 0.2316(4) 0.7041(4) 0.5492(5)
H3_12 H 0.2685 0.7210 0.4964
H4_12 H 0.2568 0.6981 0.6056
H5_16 H 0.1850 0.6537 0.5340
C4_16 C 0.04457(17) 0.68441(17) 0.7233(2)
N1_17 N 0.21337(15) 0.37408(21) 0.72019(17)
C1_13 C 0.25699(18) 0.40646(26) 0.6443(2)
C2_13 C 0.2365(2) 0.4445(3) 0.5669(3)
H1_13 H 0.1861 0.4416 0.5826
H2_13 H 0.2286 0.4143 0.5082
C3_13 C 0.2959(4) 0.5274(6) 0.5492(5)
H3_13 H 0.2790 0.5474 0.4964
H4_13 H 0.3019 0.5586 0.6056
H5_17 H 0.3463 0.5312 0.5340
C4_17 C 0.31559(17) 0.36015(24) 0.7233(2)
C5_10 C 0.3742(2) 0.33766(28) 0.7535(3)
H6_10 H 0.4262 0.3857 0.7599
H7_10 H 0.3591 0.3122 0.8161
C6_10 C 0.3807(3) 0.2829(4) 0.6856(4)
H8_10 H 0.4202 0.2703 0.7082
H9_14 H 0.3298 0.2345 0.6805
H10_14 H 0.3963 0.3080 0.6237
N1_18 N 0.62592(21) 0.83928(15) 0.72019(17)
C1_14 C 0.59354(26) 0.85052(19) 0.6443(2)
C2_14 C 0.5555(3) 0.7919(2) 0.5669(3)
H1_14 H 0.5584 0.7444 0.5826
H2_14 H 0.5857 0.8142 0.5082
C3_14 C 0.4726(6) 0.7684(4) 0.5492(5)
H3_14 H 0.4526 0.7315 0.4964
H4_14 H 0.4414 0.7432 0.6056
H5_18 H 0.4688 0.8150 0.5340
C4_18 C 0.63985(24) 0.95543(17) 0.7233(2)
C5_11 C 0.36984(19) 0.0408(2) 0.9131(3)
H6_11 H 0.3738 0.0928 0.9067
H7_11 H 0.3802 0.0257 0.8505
C6_11 C 0.4311(2) 0.0473(3) 0.9810(4)
H8_11 H 0.4832 0.0868 0.9584
N3_8 N 0.25548(15) 0.98833(14) 0.02338(17)
C1_15 C 0.18386(19) 0.92365(18) 0.0223(2)
C2_15 C 0.1253(2) 0.9031(2) 0.0997(3)
H1_15 H 0.0778 0.8527 0.0840
H2_15 H 0.1476 0.8952 0.1584
C3_15 C 0.1018(4) 0.9625(4) 0.1174(5)
H3_15 H 0.0649 0.9456 0.1702
H4_15 H 0.0766 0.9685 0.0610
N5_8 N 0.98833(14) 0.73286(21) 0.97662(17)
C1_16 C 0.92365(18) 0.73980(26) 0.9777(2)
C2_16 C 0.9031(2) 0.7779(3) 0.9003(3)
H1_16 H 0.8527 0.7750 0.9160
H2_16 H 0.8952 0.7477 0.8416
C3_16 C 0.9625(4) 0.8608(6) 0.8826(5)
H3_16 H 0.9456 0.8808 0.8298
H4_16 H 0.9685 0.8920 0.9390
N3_9 N 0.01167(14) 0.26714(21) 0.02338(17)
C1_17 C 0.07635(18) 0.26020(26) 0.0223(2)
C2_17 C 0.0969(2) 0.2221(3) 0.0997(3)
H1_17 H 0.1473 0.2250 0.0840
H2_17 H 0.1048 0.2523 0.1584
C3_17 C 0.0375(4) 0.1392(6) 0.1174(5)
H3_17 H 0.0544 0.1192 0.1702
H4_17 H 0.0315 0.1080 0.0610
C5_12 C 0.9592(2) 0.32900(28) 0.9131(3)
H6_12 H 0.9072 0.2809 0.9067
H7_12 H 0.9743 0.3544 0.8505
C6_12 C 0.9527(3) 0.3837(4) 0.9810(4)
H8_12 H 0.9132 0.3963 0.9584
N5_9 N 0.74452(25) 0.01167(14) 0.97662(17)
C1_18 C 0.81614(19) 0.07635(18) 0.9777(2)
C2_18 C 0.8747(2) 0.0969(2) 0.9003(3)
H1_18 H 0.9222 0.1473 0.9160
H2_18 H 0.8524 0.1048 0.8416
C3_18 C 0.8982(4) 0.0375(4) 0.8826(5)
H3_18 H 0.9351 0.0544 0.8298
H4_18 H 0.9234 0.0315 0.9390
C5_13 C 0.03650(19) 0.3742(2) 0.2465(3)
H6_13 H 0.0404 0.4262 0.2401
H7_13 H 0.0468 0.3591 0.1839
C6_13 C 0.0977(2) 0.3807(3) 0.3144(4)
H8_13 H 0.1498 0.4202 0.2918
H9_15 H 0.0952 0.3298 0.3195
H10_15 H 0.0882 0.3963 0.3763
C5_14 C 0.33766(28) 0.96350(19) 0.2465(3)
H6_14 H 0.3857 0.9596 0.2401
H7_14 H 0.3122 0.9532 0.1839
C6_14 C 0.2829(4) 0.9023(2) 0.3144(4)
H8_14 H 0.2703 0.8502 0.2918
H9_16 H 0.2345 0.9048 0.3195
H10_16 H 0.3080 0.9118 0.3763
C5_15 C 0.63016(19) 0.9592(2) 0.0869(3)
H6_15 H 0.6262 0.9072 0.0933
H7_15 H 0.6198 0.9743 0.1495
C6_15 C 0.5689(2) 0.9527(3) 0.0190(4)
H8_15 H 0.5168 0.9132 0.0416
C5_16 C 0.0408(2) 0.67100(28) 0.0869(3)
H6_16 H 0.0928 0.7191 0.0933
H7_16 H 0.0257 0.6456 0.1495
C6_16 C 0.0473(3) 0.6163(4) 0.0190(4)
H8_16 H 0.0868 0.6037 0.0416
C5_17 C 0.96350(19) 0.6258(2) 0.7535(3)
H6_17 H 0.9596 0.5738 0.7599
H7_17 H 0.9532 0.6409 0.8161
C6_17 C 0.9023(2) 0.6193(3) 0.6856(4)
H8_17 H 0.8502 0.5798 0.7082
H9_17 H 0.9048 0.6702 0.6805
H10_17 H 0.9118 0.6037 0.6237
C5_18 C 0.66234(28) 0.03650(19) 0.7535(3)
H6_18 H 0.6143 0.0404 0.7599
H7_18 H 0.6878 0.0468 0.8161
C6_18 C 0.7171(4) 0.0977(2) 0.6856(4)
H8_18 H 0.7297 0.1498 0.7082
H9_18 H 0.7655 0.0952 0.6805
H10_18 H 0.6920 0.0882 0.6237
loop_
_geom_bond_atom_site_label_1
_geom_bond_atom_site_label_2
_geom_bond_site_symmetry_1
_geom_bond_site_symmetry_2
Cu1 N1 1_555 1_555
N1 N2 1_555 1_555
N2 C4 1_555 1_555
N3 C1 1_555 1_555
C1 N1 1_555 1_555
C2 C1 1_555 1_555
H1 C2 1_555 1_555
H2 C2 1_555 1_555
C3 C2 1_555 1_555
H3 C3 1_555 1_555
H4 C3 1_555 1_555
H5 C3 1_555 1_555
C4 N3 1_555 1_555
C5 C4 1_555 1_555
H6 C5 1_555 1_555
H7 C5 1_555 1_555
C6 C5 1_555 1_555
H8 C6 1_555 1_555
H9 C6 1_555 1_555
H10 C6 1_555 1_555
Cu2 N2 1_555 1_555
Cu3 N3 1_555 1_555
N4 Cu1 1_555 1_555
N5 Cu1 1_555 1_555
H8_2 C6_2 1_555 1_555
H9_2 C6_2 1_555 1_555
H10_2 C6_2 1_555 1_555
Cu1_2 N1_2 1_555 1_555
N1_2 N2_2 1_555 1_555
N2_2 C4_2 1_555 1_555
N3_2 C1_2 1_555 1_555
C1_2 N1_2 1_555 1_555
C2_2 C1_2 1_555 1_555
H1_2 C2_2 1_555 1_555
H2_2 C2_2 1_555 1_555
C3_2 C2_2 1_555 1_555
H3_2 C3_2 1_555 1_555
H4_2 C3_2 1_555 1_555
H5_2 C3_2 1_555 1_555
C4_2 N3_2 1_555 1_555
C5_2 C4_2 1_555 1_555
H6_2 C5_2 1_555 1_555
Cu3_2 N3_2 1_555 1_555
N5_2 Cu1_2 1_555 1_555
Cu1_3 N1_3 1_555 1_555
N1_3 N2_3 1_555 1_555
N2_3 C4_3 1_555 1_555
N3_3 C1_3 1_555 1_555
C1_3 N1_3 1_555 1_555
C2_3 C1_3 1_555 1_555
H1_3 C2_3 1_555 1_555
H2_3 C2_3 1_555 1_555
C3_3 C2_3 1_555 1_555
H3_3 C3_3 1_555 1_555
H4_3 C3_3 1_555 1_555
H5_3 C3_3 1_555 1_555
C4_3 N3_3 1_555 1_555
C5_3 C4_3 1_555 1_555
H6_3 C5_3 1_555 1_555
Cu3_3 N3_3 1_555 1_555
N5_3 Cu1_3 1_555 1_555
H8_3 C6_3 1_555 1_555
H9_3 C6_3 1_555 1_555
H10_3 C6_3 1_555 1_555
Cu1_4 N1_4 1_555 1_555
N1_4 N2_4 1_555 1_555
N2_4 C4_4 1_555 1_555
Cu3_2 N2_4 1_555 1_555
N4_4 Cu1_4 1_555 1_555
Cu1_5 N1_5 1_555 1_555
N1_5 N2_5 1_555 1_555
N2_5 C4_5 1_555 1_555
Cu3_3 N2_5 1_555 1_555
N4_5 Cu1_5 1_555 1_555
N5_4 Cu1_5 1_555 1_555
N3_4 C1_4 1_555 1_555
C2_4 C1_4 1_555 1_555
H1_4 C2_4 1_555 1_555
H2_4 C2_4 1_555 1_555
C3_4 C2_4 1_555 1_555
H3_4 C3_4 1_555 1_555
H4_4 C3_4 1_555 1_555
H5_6 C3_4 1_555 1_555
Cu3_6 N3_4 1_555 1_555
Cu1_6 N1_6 1_555 1_555
N1_6 N2_6 1_555 1_555
N2_6 C4_6 1_555 1_555
C5_4 C4_6 1_555 1_555
H6_4 C5_4 1_555 1_555
H7_4 C5_4 1_555 1_555
C6_4 C5_4 1_555 1_555
H8_4 C6_4 1_555 1_555
H9_6 C6_4 1_555 1_555
Cu3 N2_6 1_555 1_555
N4_6 Cu1_6 1_555 1_555
Cu1_7 N1_7 1_555 1_555
N1_7 N2_7 1_555 1_555
N2_7 C4_7 1_555 1_555
N3_5 C1_5 1_555 1_555
C1_5 N1_7 1_555 1_555
C2_5 C1_5 1_555 1_555
H1_5 C2_5 1_555 1_555
H2_5 C2_5 1_555 1_555
C3_5 C2_5 1_555 1_555
H3_5 C3_5 1_555 1_555
H4_5 C3_5 1_555 1_555
H5_7 C3_5 1_555 1_555
C4_7 N3_5 1_555 1_555
Cu3_5 N2_7 1_555 1_555
Cu2_3 N3_5 1_555 1_555
N4_7 Cu1_7 1_555 1_555
N5_5 Cu1_7 1_555 1_555
Cu1_8 N1_8 1_555 1_555
N1_8 N2_8 1_555 1_555
N2_8 C4_8 1_555 1_555
N3_6 C1_6 1_555 1_555
C1_6 N1_8 1_555 1_555
C2_6 C1_6 1_555 1_555
H1_6 C2_6 1_555 1_555
H2_6 C2_6 1_555 1_555
C3_6 C2_6 1_555 1_555
H3_6 C3_6 1_555 1_555
H4_6 C3_6 1_555 1_555
H5_8 C3_6 1_555 1_555
C4_8 N3_6 1_555 1_555
C5_5 C4_8 1_555 1_555
H6_5 C5_5 1_555 1_555
H7_5 C5_5 1_555 1_555
C6_5 C5_5 1_555 1_555
H8_5 C6_5 1_555 1_555
H9_7 C6_5 1_555 1_555
H10_7 C6_5 1_555 1_555
Cu3_6 N2_8 1_555 1_555
Cu2 N3_6 1_555 1_555
N4_8 Cu1_8 1_555 1_555
N5_6 Cu1_8 1_555 1_555
Cu1_9 N1_9 1_555 1_555
N1_9 N2_9 1_555 1_555
N2_9 C4_9 1_555 1_555
N3_7 C1_7 1_555 1_555
C1_7 N1_9 1_555 1_555
C2_7 C1_7 1_555 1_555
H1_7 C2_7 1_555 1_555
H2_7 C2_7 1_555 1_555
C3_7 C2_7 1_555 1_555
H3_7 C3_7 1_555 1_555
H4_7 C3_7 1_555 1_555
H5_9 C3_7 1_555 1_555
C4_9 N3_7 1_555 1_555
Cu3_4 N2_9 1_555 1_555
Cu2_2 N3_7 1_555 1_555
N4_9 Cu1_9 1_555 1_555
N5_7 Cu1_9 1_555 1_555
Cu2 N1_10 1_555 1_555
N1_10 N4 1_555 1_555
N4 C4_10 1_555 1_555
N5_7 C1_8 1_555 1_555
C1_8 N1_10 1_555 1_555
C2_8 C1_8 1_555 1_555
H1_8 C2_8 1_555 1_555
H2_8 C2_8 1_555 1_555
C3_8 C2_8 1_555 1_555
H3_8 C3_8 1_555 1_555
H4_8 C3_8 1_555 1_555
H5_10 C3_8 1_555 1_555
C4_10 N5_7 1_555 1_555
C5_6 C4_10 1_555 1_555
H6_6 C5_6 1_555 1_555
H7_6 C5_6 1_555 1_555
C6_6 C5_6 1_555 1_555
H8_6 C6_6 1_555 1_555
H9_8 C6_6 1_555 1_555
H10_8 C6_6 1_555 1_555
Cu2_2 N1_11 1_555 1_555
N1_11 N4_2 1_555 1_555
N4_2 C4_11 1_555 1_555
N5_5 C1_9 1_555 1_555
C1_9 N1_11 1_555 1_555
C2_9 C1_9 1_555 1_555
H1_9 C2_9 1_555 1_555
H2_9 C2_9 1_555 1_555
C3_9 C2_9 1_555 1_555
H3_9 C3_9 1_555 1_555
H4_9 C3_9 1_555 1_555
H5_11 C3_9 1_555 1_555
C4_11 N5_5 1_555 1_555
C5_7 C4_11 1_555 1_555
H6_7 C5_7 1_555 1_555
H8_7 C6_7 1_555 1_555
H9_9 C6_7 1_555 1_555
H10_9 C6_7 1_555 1_555
H8_8 C6_8 1_555 1_555
H9_10 C6_8 1_555 1_555
H10_10 C6_8 1_555 1_555
Cu2_3 N1_12 1_555 1_555
N1_12 N4_3 1_555 1_555
N4_3 C4_12 1_555 1_555
N5_6 C1_10 1_555 1_555
C1_10 N1_12 1_555 1_555
C2_10 C1_10 1_555 1_555
H1_10 C2_10 1_555 1_555
H2_10 C2_10 1_555 1_555
C3_10 C2_10 1_555 1_555
H3_10 C3_10 1_555 1_555
H4_10 C3_10 1_555 1_555
H5_12 C3_10 1_555 1_555
C4_12 N5_6 1_555 1_555
C5_8 C4_12 1_555 1_555
H6_8 C5_8 1_555 1_555
Cu3_5 N1_13 1_555 1_555
N1_13 N4_7 1_555 1_555
N4_7 C4_13 1_555 1_555
Cu3_6 N1_14 1_555 1_555
N1_14 N4_8 1_555 1_555
N4_8 C4_14 1_555 1_555
Cu3_4 N1_15 1_555 1_555
N1_15 N4_9 1_555 1_555
N4_9 C4_15 1_555 1_555
C5_9 C4_15 1_555 1_555
H6_9 C5_9 1_555 1_555
H7_9 C5_9 1_555 1_555
C6_9 C5_9 1_555 1_555
H8_9 C6_9 1_555 1_555
H9_13 C6_9 1_555 1_555
N5_4 C1_11 1_555 1_555
C2_11 C1_11 1_555 1_555
H1_11 C2_11 1_555 1_555
H2_11 C2_11 1_555 1_555
C3_11 C2_11 1_555 1_555
H3_11 C3_11 1_555 1_555
H4_11 C3_11 1_555 1_555
H5_15 C3_11 1_555 1_555
Cu3_2 N1_16 1_555 1_555
N1_16 N4_4 1_555 1_555
N4_4 C4_16 1_555 1_555
N5_3 C1_12 1_555 1_555
C1_12 N1_16 1_555 1_555
C2_12 C1_12 1_555 1_555
H1_12 C2_12 1_555 1_555
H2_12 C2_12 1_555 1_555
C3_12 C2_12 1_555 1_555
H3_12 C3_12 1_555 1_555
H4_12 C3_12 1_555 1_555
H5_16 C3_12 1_555 1_555
C4_16 N5_3 1_555 1_555
Cu3_3 N1_17 1_555 1_555
N1_17 N4_5 1_555 1_555
N4_5 C4_17 1_555 1_555
N5 C1_13 1_555 1_555
C1_13 N1_17 1_555 1_555
C2_13 C1_13 1_555 1_555
H1_13 C2_13 1_555 1_555
H2_13 C2_13 1_555 1_555
C3_13 C2_13 1_555 1_555
H3_13 C3_13 1_555 1_555
H4_13 C3_13 1_555 1_555
H5_17 C3_13 1_555 1_555
C4_17 N5 1_555 1_555
C5_10 C4_17 1_555 1_555
H6_10 C5_10 1_555 1_555
H7_10 C5_10 1_555 1_555
C6_10 C5_10 1_555 1_555
H8_10 C6_10 1_555 1_555
H9_14 C6_10 1_555 1_555
H10_14 C6_10 1_555 1_555
Cu3 N1_18 1_555 1_555
N1_18 N4_6 1_555 1_555
N4_6 C4_18 1_555 1_555
N5_2 C1_14 1_555 1_555
C1_14 N1_18 1_555 1_555
C2_14 C1_14 1_555 1_555
H1_14 C2_14 1_555 1_555
H2_14 C2_14 1_555 1_555
C3_14 C2_14 1_555 1_555
H3_14 C3_14 1_555 1_555
H4_14 C3_14 1_555 1_555
H5_18 C3_14 1_555 1_555
C4_18 N5_2 1_555 1_555
H6_11 C5_11 1_555 1_555
H7_11 C5_11 1_555 1_555
C6_11 C5_11 1_555 1_555
H8_11 C6_11 1_555 1_555
N3_8 C1_15 1_555 1_555
C2_15 C1_15 1_555 1_555
H1_15 C2_15 1_555 1_555
H2_15 C2_15 1_555 1_555
C3_15 C2_15 1_555 1_555
H3_15 C3_15 1_555 1_555
H4_15 C3_15 1_555 1_555
N5_8 C1_16 1_555 1_555
C2_16 C1_16 1_555 1_555
H1_16 C2_16 1_555 1_555
H2_16 C2_16 1_555 1_555
C3_16 C2_16 1_555 1_555
H3_16 C3_16 1_555 1_555
H4_16 C3_16 1_555 1_555
N3_9 C1_17 1_555 1_555
C2_17 C1_17 1_555 1_555
H1_17 C2_17 1_555 1_555
H2_17 C2_17 1_555 1_555
C3_17 C2_17 1_555 1_555
H3_17 C3_17 1_555 1_555
H4_17 C3_17 1_555 1_555
H6_12 C5_12 1_555 1_555
H7_12 C5_12 1_555 1_555
C6_12 C5_12 1_555 1_555
H8_12 C6_12 1_555 1_555
N5_9 C1_18 1_555 1_555
C2_18 C1_18 1_555 1_555
H1_18 C2_18 1_555 1_555
H2_18 C2_18 1_555 1_555
C3_18 C2_18 1_555 1_555
H3_18 C3_18 1_555 1_555
H4_18 C3_18 1_555 1_555
H6_13 C5_13 1_555 1_555
H7_13 C5_13 1_555 1_555
C6_13 C5_13 1_555 1_555
H8_13 C6_13 1_555 1_555
H9_15 C6_13 1_555 1_555
H10_15 C6_13 1_555 1_555
H6_14 C5_14 1_555 1_555
H7_14 C5_14 1_555 1_555
C6_14 C5_14 1_555 1_555
H8_14 C6_14 1_555 1_555
H9_16 C6_14 1_555 1_555
H10_16 C6_14 1_555 1_555
H6_15 C5_15 1_555 1_555
H7_15 C5_15 1_555 1_555
C6_15 C5_15 1_555 1_555
H8_15 C6_15 1_555 1_555
H6_16 C5_16 1_555 1_555
H7_16 C5_16 1_555 1_555
C6_16 C5_16 1_555 1_555
H8_16 C6_16 1_555 1_555
H6_17 C5_17 1_555 1_555
H7_17 C5_17 1_555 1_555
C6_17 C5_17 1_555 1_555
H8_17 C6_17 1_555 1_555
H9_17 C6_17 1_555 1_555
H10_17 C6_17 1_555 1_555
H6_18 C5_18 1_555 1_555
H7_18 C5_18 1_555 1_555
C6_18 C5_18 1_555 1_555
H8_18 C6_18 1_555 1_555
H9_18 C6_18 1_555 1_555
H10_18 C6_18 1_555 1_555

#END
