
###############################################################################
#
# This file contains modified crystal structure data generated from the
# MOF subset of the Cambridge Structural Database (CSD) v543 
# hosted by the Cambridge Crystallographic Data Centre (CCDC).
#
# This work is licensed under the Creative Commons
# Attribution-NonCommercial-ShareAlike 4.0 International License.
# To view a copy of this license, visit
# http://creativecommons.org/licenses/by-nc-sa/4.0/
# or send a letter to
# Creative Commons, PO Box 1866, Mountain View, CA 94042, USA.
#
# CIF created using the CSD Python API on 29 September 2022
# The structure has been converted into the P1 space group
# The structure has a 3D framework
# The original CSD entry SUHQES is in the rhombohedral crystal system
# The framework has been calculated to contain at least 10.0% void space
# The void calculation uses a probe of radius 1.32A, grid spacing 0.4
#
###############################################################################

data_SUHQES
_chemical_formula_moiety         '(C108 H180 Cu18 N54)n'
_symmetry_cell_setting           triclinic
_symmetry_space_group_name_H-M   'P 1'
_symmetry_Int_Tables_number      1
_space_group_name_Hall           'P 1'
loop_
_symmetry_equiv_pos_site_id
_symmetry_equiv_pos_as_xyz
1 x,y,z
_cell_length_a                   19.6828(17)
_cell_length_b                   19.6828(17)
_cell_length_c                   14.2050(12)
_cell_angle_alpha                90
_cell_angle_beta                 90
_cell_angle_gamma                120
_cell_volume                     4765.91
loop_
_atom_site_label
_atom_site_type_symbol
_atom_site_fract_x
_atom_site_fract_y
_atom_site_fract_z
Cu1 Cu 0.41505(2) 0.45175(2) 0.56205(2)
N1 N 0.50585(15) 0.54704(15) 0.61273(18)
N2 N 0.57462(14) 0.58522(15) 0.56143(17)
N3 N 0.58868(15) 0.65504(14) 0.68986(17)
C1 C 0.51694(19) 0.59043(18) 0.6892(2)
C2 C 0.4583(2) 0.5699(2) 0.7659(3)
H1 H 0.4106 0.5199 0.7495
H2 H 0.4800 0.5611 0.8245
C3 C 0.4354(4) 0.6293(4) 0.7846(5)
H3 H 0.3985 0.6122 0.8375
H4 H 0.4103 0.6360 0.7285
H5 H 0.4821 0.6794 0.8003
C4 C 0.62201(17) 0.64944(17) 0.6096(2)
C5 C 0.7029(2) 0.7074(2) 0.5795(3)
H6 H 0.7070 0.7594 0.5727
H7 H 0.7130 0.6920 0.5170
C6 C 0.7644(3) 0.7142(3) 0.6472(4)
H8 H 0.8163 0.7538 0.6243
H9 H 0.7620 0.6634 0.6524
H10 H 0.7550 0.7299 0.7091
Cu2 Cu 0.58495(2) 0.54825(2) 0.43795(2)
Cu3 Cu 0.62997(3) 0.74838(2) 0.77128(2)
N4 N 0.42538(14) 0.41478(15) 0.43857(17)
N5 N 0.32171(14) 0.39969(21) 0.64347(17)
H7_2 H 0.3080 0.0210 0.5170
C6_2 C 0.2858(3) 0.0502(4) 0.6472(4)
H8_2 H 0.2462 0.0625 0.6243
H9_2 H 0.3366 0.0986 0.6524
H10_2 H 0.2701 0.0251 0.7091
Cu2_2 Cu 0.45175(2) 0.03670(3) 0.43795(2)
N4_2 N 0.58522(15) 0.01060(21) 0.43857(17)
Cu1_2 Cu 0.54825(2) 0.96330(3) 0.56205(2)
N1_2 N 0.45296(15) 0.95881(21) 0.61273(18)
N2_2 N 0.41478(15) 0.98940(21) 0.56143(17)
N3_2 N 0.34496(14) 0.93364(21) 0.68986(17)
C1_2 C 0.40957(18) 0.92651(26) 0.6892(2)
C2_2 C 0.4301(2) 0.8884(3) 0.7659(3)
H1_2 H 0.4801 0.8907 0.7495
H2_2 H 0.4389 0.9189 0.8245
C3_2 C 0.3707(4) 0.8061(6) 0.7846(5)
H3_2 H 0.3878 0.7863 0.8375
H4_2 H 0.3640 0.7743 0.7285
H5_2 H 0.3206 0.8027 0.8003
C4_2 C 0.35056(17) 0.97257(24) 0.6096(2)
C5_2 C 0.2926(2) 0.9955(3) 0.5795(3)
H6_2 H 0.2406 0.9476 0.5727
Cu3_2 Cu 0.25162(2) 0.88158(4) 0.77128(2)
N5_2 N 0.60031(21) 0.92201(25) 0.64347(17)
Cu1_3 Cu 0.03670(3) 0.58495(2) 0.56205(2)
N1_3 N 0.04119(21) 0.49415(15) 0.61273(18)
N2_3 N 0.01060(21) 0.42538(14) 0.56143(17)
N3_3 N 0.06636(21) 0.41132(15) 0.68986(17)
C1_3 C 0.07349(26) 0.48306(19) 0.6892(2)
C2_3 C 0.1116(3) 0.5417(2) 0.7659(3)
H1_3 H 0.1093 0.5894 0.7495
H2_3 H 0.0811 0.5200 0.8245
C3_3 C 0.1939(6) 0.5646(4) 0.7846(5)
H3_3 H 0.2137 0.6015 0.8375
H4_3 H 0.2257 0.5897 0.7285
H5_3 H 0.1973 0.5179 0.8003
C4_3 C 0.02743(24) 0.37799(17) 0.6096(2)
C5_3 C 0.0045(3) 0.2971(2) 0.5795(3)
H6_3 H 0.0524 0.2930 0.5727
Cu3_3 Cu 0.11842(4) 0.37003(3) 0.77128(2)
N5_3 N 0.07799(25) 0.67829(14) 0.64347(17)
H7_3 H 0.9790 0.2870 0.5170
C6_3 C 0.9498(4) 0.2356(3) 0.6472(4)
H8_3 H 0.9375 0.1837 0.6243
H9_3 H 0.9014 0.2380 0.6524
H10_3 H 0.9749 0.2450 0.7091
Cu2_3 Cu 0.96330(3) 0.41505(2) 0.43795(2)
N4_3 N 0.98940(21) 0.57462(14) 0.43857(17)
H5_4 H 0.1488 0.0127 0.1336
H10_4 H 0.4217 0.0632 0.0424
Cu3_4 Cu 0.29663(3) 0.08172(2) 0.10462(2)
Cu1_4 Cu 0.08172(2) 0.78508(2) 0.89538(2)
N1_4 N 0.17252(15) 0.88037(15) 0.94606(18)
N2_4 N 0.24129(14) 0.91855(15) 0.89476(17)
C4_4 C 0.28868(17) 0.98277(17) 0.9429(2)
H9_4 H 0.4287 0.9967 0.9857
N4_4 N 0.09205(14) 0.74811(15) 0.77190(17)
Cu1_5 Cu 0.21492(2) 0.29663(3) 0.89538(2)
N1_5 N 0.11963(15) 0.29214(21) 0.94606(18)
N2_5 N 0.08145(15) 0.32273(21) 0.89476(17)
C4_5 C 0.01723(17) 0.30590(24) 0.9429(2)
H9_5 H 0.0033 0.4319 0.9857
N4_5 N 0.25189(15) 0.34393(21) 0.77190(17)
N5_4 N 0.26697(21) 0.25535(25) 0.97681(17)
H5_5 H 0.9873 0.1360 0.1336
H10_5 H 0.9368 0.3584 0.0424
Cu3_5 Cu 0.91828(2) 0.21492(4) 0.10462(2)
N3_4 N 0.73303(21) 0.74465(15) 0.02319(17)
C1_4 C 0.74016(26) 0.81639(19) 0.0225(2)
C2_4 C 0.7783(3) 0.8750(2) 0.0992(3)
H1_4 H 0.7760 0.9227 0.0828
H2_4 H 0.7478 0.8533 0.1578
C3_4 C 0.8606(6) 0.8979(4) 0.1179(5)
H3_4 H 0.8804 0.9348 0.1708
H4_4 H 0.8924 0.9230 0.0618
H5_6 H 0.8640 0.8512 0.1336
H10_6 H 0.6416 0.5783 0.0424
Cu3_6 Cu 0.78508(4) 0.70337(3) 0.10462(2)
Cu1_6 Cu 0.70337(3) 0.91828(2) 0.89538(2)
N1_6 N 0.70786(21) 0.82748(15) 0.94606(18)
N2_6 N 0.67727(21) 0.75871(14) 0.89476(17)
C4_6 C 0.69410(24) 0.71132(17) 0.9429(2)
C5_4 C 0.6712(3) 0.6304(2) 0.9128(3)
H6_4 H 0.7191 0.6263 0.9060
H7_4 H 0.6457 0.6203 0.8503
C6_4 C 0.6165(4) 0.5689(3) 0.9805(4)
H8_4 H 0.6042 0.5170 0.9576
H9_6 H 0.5681 0.5713 0.9857
N4_6 N 0.65607(21) 0.90795(14) 0.77190(17)
Cu1_7 Cu 0.74838(2) 0.11842(2) 0.22872(2)
N1_7 N 0.83918(15) 0.21371(15) 0.27940(18)
N2_7 N 0.90795(14) 0.25189(15) 0.22810(17)
N3_5 N 0.92201(15) 0.32171(14) 0.35653(17)
C1_5 C 0.85027(19) 0.25710(18) 0.3559(2)
C2_5 C 0.7916(2) 0.2366(2) 0.4326(3)
H1_5 H 0.7439 0.1866 0.4162
H2_5 H 0.8133 0.2278 0.4912
C3_5 C 0.7687(4) 0.2960(4) 0.4513(5)
H3_5 H 0.7318 0.2789 0.5042
H4_5 H 0.7436 0.3027 0.3952
H5_7 H 0.8154 0.3461 0.4670
C4_7 C 0.95534(17) 0.31611(17) 0.2763(2)
N4_7 N 0.75871(14) 0.08145(15) 0.10524(17)
N5_5 N 0.65504(14) 0.06636(21) 0.31014(17)
Cu1_8 Cu 0.88158(2) 0.62997(3) 0.22872(2)
N1_8 N 0.78629(15) 0.62548(21) 0.27940(18)
N2_8 N 0.74811(15) 0.65607(21) 0.22810(17)
N3_6 N 0.67829(14) 0.60031(21) 0.35653(17)
C1_6 C 0.74290(18) 0.59318(26) 0.3559(2)
C2_6 C 0.7634(2) 0.5551(3) 0.4326(3)
H1_6 H 0.8134 0.5574 0.4162
H2_6 H 0.7722 0.5856 0.4912
C3_6 C 0.7040(4) 0.4728(6) 0.4513(5)
H3_6 H 0.7211 0.4530 0.5042
H4_6 H 0.6973 0.4410 0.3952
H5_8 H 0.6539 0.4694 0.4670
C4_8 C 0.68389(17) 0.63924(24) 0.2763(2)
C5_5 C 0.6259(2) 0.6622(3) 0.2462(3)
H6_5 H 0.5739 0.6143 0.2394
H7_5 H 0.6413 0.6877 0.1837
C6_5 C 0.6191(3) 0.7169(4) 0.3139(4)
H8_5 H 0.5795 0.7292 0.2910
H9_7 H 0.6699 0.7653 0.3191
H10_7 H 0.6034 0.6918 0.3758
N4_8 N 0.91855(15) 0.67727(21) 0.10524(17)
N5_6 N 0.93364(21) 0.58868(25) 0.31014(17)
Cu1_9 Cu 0.37003(3) 0.25162(2) 0.22872(2)
N1_9 N 0.37452(21) 0.16082(15) 0.27940(18)
N2_9 N 0.34393(21) 0.09205(14) 0.22810(17)
N3_7 N 0.39969(21) 0.07799(15) 0.35653(17)
C1_7 C 0.40682(26) 0.14973(19) 0.3559(2)
C2_7 C 0.4449(3) 0.2084(2) 0.4326(3)
H1_7 H 0.4426 0.2561 0.4162
H2_7 H 0.4144 0.1867 0.4912
C3_7 C 0.5272(6) 0.2313(4) 0.4513(5)
H3_7 H 0.5470 0.2682 0.5042
H4_7 H 0.5590 0.2564 0.3952
H5_9 H 0.5306 0.1846 0.4670
C4_9 C 0.36076(24) 0.04466(17) 0.2763(2)
N4_9 N 0.32273(21) 0.24129(14) 0.10524(17)
N5_7 N 0.41132(25) 0.34496(14) 0.31014(17)
N1_10 N 0.49415(15) 0.45296(15) 0.38727(18)
C1_8 C 0.48306(19) 0.40957(18) 0.3108(2)
C2_8 C 0.5417(2) 0.4301(2) 0.2341(3)
H1_8 H 0.5894 0.4801 0.2505
H2_8 H 0.5200 0.4389 0.1755
C3_8 C 0.5646(4) 0.3707(4) 0.2154(5)
H3_8 H 0.6015 0.3878 0.1625
H4_8 H 0.5897 0.3640 0.2715
H5_10 H 0.5179 0.3206 0.1997
C4_10 C 0.37799(17) 0.35056(17) 0.3904(2)
C5_6 C 0.2971(2) 0.2926(2) 0.4205(3)
H6_6 H 0.2930 0.2406 0.4273
H7_6 H 0.2870 0.3080 0.4830
C6_6 C 0.2356(3) 0.2858(3) 0.3528(4)
H8_6 H 0.1837 0.2462 0.3757
H9_8 H 0.2380 0.3366 0.3476
H10_8 H 0.2450 0.2701 0.2909
N1_11 N 0.54704(15) 0.04119(21) 0.38727(18)
C1_9 C 0.59043(18) 0.07349(26) 0.3108(2)
C2_9 C 0.5699(2) 0.1116(3) 0.2341(3)
H1_9 H 0.5199 0.1093 0.2505
H2_9 H 0.5611 0.0811 0.1755
C3_9 C 0.6293(4) 0.1939(6) 0.2154(5)
H3_9 H 0.6122 0.2137 0.1625
H4_9 H 0.6360 0.2257 0.2715
H5_11 H 0.6794 0.1973 0.1997
C4_11 C 0.64944(17) 0.02743(24) 0.3904(2)
C5_7 C 0.7074(2) 0.0045(3) 0.4205(3)
H6_7 H 0.7594 0.0524 0.4273
H7_7 H 0.6920 0.9790 0.4830
C6_7 C 0.7142(3) 0.9498(4) 0.3528(4)
H8_7 H 0.7538 0.9375 0.3757
H9_9 H 0.6634 0.9014 0.3476
H10_9 H 0.7299 0.9749 0.2909
H7_8 H 0.0210 0.7130 0.4830
C6_8 C 0.0502(4) 0.7644(3) 0.3528(4)
H8_8 H 0.0625 0.8163 0.3757
H9_10 H 0.0986 0.7620 0.3476
H10_10 H 0.0251 0.7550 0.2909
N1_12 N 0.95881(21) 0.50585(15) 0.38727(18)
C1_10 C 0.92651(26) 0.51694(19) 0.3108(2)
C2_10 C 0.8884(3) 0.4583(2) 0.2341(3)
H1_10 H 0.8907 0.4106 0.2505
H2_10 H 0.9189 0.4800 0.1755
C3_10 C 0.8061(6) 0.4354(4) 0.2154(5)
H3_10 H 0.7863 0.3985 0.1625
H4_10 H 0.7743 0.4103 0.2715
H5_12 H 0.8027 0.4821 0.1997
C4_12 C 0.97257(24) 0.62201(17) 0.3904(2)
C5_8 C 0.9955(3) 0.7029(2) 0.4205(3)
H6_8 H 0.9476 0.7070 0.4273
N1_13 N 0.82748(15) 0.11963(15) 0.05394(18)
C4_13 C 0.71132(17) 0.01723(17) 0.0571(2)
H9_11 H 0.5713 0.0033 0.0143
H5_13 H 0.8512 0.9873 0.8664
H10_11 H 0.5783 0.9368 0.9576
H5_14 H 0.0127 0.8640 0.8664
H10_12 H 0.0632 0.6416 0.9576
N1_14 N 0.88037(15) 0.70786(21) 0.05394(18)
C4_14 C 0.98277(17) 0.69410(24) 0.0571(2)
H9_12 H 0.9967 0.5681 0.0143
N1_15 N 0.29214(21) 0.17252(15) 0.05394(18)
C4_15 C 0.30590(24) 0.28868(17) 0.0571(2)
C5_9 C 0.3288(3) 0.3696(2) 0.0872(3)
H6_9 H 0.2809 0.3737 0.0940
H7_9 H 0.3543 0.3797 0.1497
C6_9 C 0.3835(4) 0.4311(3) 0.0195(4)
H8_9 H 0.3958 0.4830 0.0424
H9_13 H 0.4319 0.4287 0.0143
C1_11 C 0.25984(26) 0.18361(19) 0.9775(2)
C2_11 C 0.2217(3) 0.1250(2) 0.9008(3)
H1_11 H 0.2240 0.0773 0.9172
H2_11 H 0.2522 0.1467 0.8422
C3_11 C 0.1394(6) 0.1021(4) 0.8821(5)
H3_11 H 0.1196 0.0652 0.8292
H4_11 H 0.1076 0.0770 0.9382
H5_15 H 0.1360 0.1488 0.8664
H10_13 H 0.3584 0.4217 0.9576
N1_16 N 0.16082(15) 0.78629(15) 0.72060(18)
C1_12 C 0.14973(19) 0.74290(18) 0.6441(2)
C2_12 C 0.2084(2) 0.7634(2) 0.5674(3)
H1_12 H 0.2561 0.8134 0.5838
H2_12 H 0.1867 0.7722 0.5088
C3_12 C 0.2313(4) 0.7040(4) 0.5487(5)
H3_12 H 0.2682 0.7211 0.4958
H4_12 H 0.2564 0.6973 0.6048
H5_16 H 0.1846 0.6539 0.5330
C4_16 C 0.04466(17) 0.68389(17) 0.7237(2)
N1_17 N 0.21371(15) 0.37452(21) 0.72060(18)
C1_13 C 0.25710(18) 0.40682(26) 0.6441(2)
C2_13 C 0.2366(2) 0.4449(3) 0.5674(3)
H1_13 H 0.1866 0.4426 0.5838
H2_13 H 0.2278 0.4144 0.5088
C3_13 C 0.2960(4) 0.5272(6) 0.5487(5)
H3_13 H 0.2789 0.5470 0.4958
H4_13 H 0.3027 0.5590 0.6048
H5_17 H 0.3461 0.5306 0.5330
C4_17 C 0.31611(17) 0.36076(24) 0.7237(2)
C5_10 C 0.3741(2) 0.3378(3) 0.7538(3)
H6_10 H 0.4261 0.3857 0.7606
H7_10 H 0.3587 0.3123 0.8163
C6_10 C 0.3809(3) 0.2831(4) 0.6861(4)
H8_10 H 0.4205 0.2708 0.7090
H9_14 H 0.3301 0.2347 0.6809
H10_14 H 0.3966 0.3082 0.6242
N1_18 N 0.62548(21) 0.83918(15) 0.72060(18)
C1_14 C 0.59318(26) 0.85027(19) 0.6441(2)
C2_14 C 0.5551(3) 0.7916(2) 0.5674(3)
H1_14 H 0.5574 0.7439 0.5838
H2_14 H 0.5856 0.8133 0.5088
C3_14 C 0.4728(6) 0.7687(4) 0.5487(5)
H3_14 H 0.4530 0.7318 0.4958
H4_14 H 0.4410 0.7436 0.6048
H5_18 H 0.4694 0.8154 0.5330
C4_18 C 0.63924(24) 0.95534(17) 0.7237(2)
C5_11 C 0.3696(2) 0.0407(2) 0.9128(3)
H6_11 H 0.3737 0.0927 0.9060
H7_11 H 0.3797 0.0253 0.8503
C6_11 C 0.4311(3) 0.0475(3) 0.9805(4)
H8_11 H 0.4830 0.0871 0.9576
N3_8 N 0.25535(15) 0.98837(14) 0.02319(17)
C1_15 C 0.18361(19) 0.92376(18) 0.0225(2)
C2_15 C 0.1250(2) 0.9032(2) 0.0992(3)
H1_15 H 0.0773 0.8532 0.0828
H2_15 H 0.1467 0.8944 0.1578
C3_15 C 0.1021(4) 0.9626(4) 0.1179(5)
H3_15 H 0.0652 0.9455 0.1708
H4_15 H 0.0770 0.9693 0.0618
N5_8 N 0.98837(14) 0.73303(21) 0.97681(17)
C1_16 C 0.92376(18) 0.74016(26) 0.9775(2)
C2_16 C 0.9032(2) 0.7783(3) 0.9008(3)
H1_16 H 0.8532 0.7760 0.9172
H2_16 H 0.8944 0.7478 0.8422
C3_16 C 0.9626(4) 0.8606(6) 0.8821(5)
H3_16 H 0.9455 0.8804 0.8292
H4_16 H 0.9693 0.8924 0.9382
N3_9 N 0.01163(14) 0.26697(21) 0.02319(17)
C1_17 C 0.07624(18) 0.25984(26) 0.0225(2)
C2_17 C 0.0968(2) 0.2217(3) 0.0992(3)
H1_17 H 0.1468 0.2240 0.0828
H2_17 H 0.1056 0.2522 0.1578
C3_17 C 0.0374(4) 0.1394(6) 0.1179(5)
H3_17 H 0.0545 0.1196 0.1708
H4_17 H 0.0307 0.1076 0.0618
C5_12 C 0.9593(2) 0.3288(3) 0.9128(3)
H6_12 H 0.9073 0.2809 0.9060
H7_12 H 0.9747 0.3543 0.8503
C6_12 C 0.9525(3) 0.3835(4) 0.9805(4)
H8_12 H 0.9129 0.3958 0.9576
N5_9 N 0.74465(25) 0.01163(14) 0.97681(17)
C1_18 C 0.81639(19) 0.07624(18) 0.9775(2)
C2_18 C 0.8750(2) 0.0968(2) 0.9008(3)
H1_18 H 0.9227 0.1468 0.9172
H2_18 H 0.8533 0.1056 0.8422
C3_18 C 0.8979(4) 0.0374(4) 0.8821(5)
H3_18 H 0.9348 0.0545 0.8292
H4_18 H 0.9230 0.0307 0.9382
C5_13 C 0.0362(2) 0.3741(2) 0.2462(3)
H6_13 H 0.0403 0.4261 0.2394
H7_13 H 0.0463 0.3587 0.1837
C6_13 C 0.0977(3) 0.3809(3) 0.3139(4)
H8_13 H 0.1496 0.4205 0.2910
H9_15 H 0.0953 0.3301 0.3191
H10_15 H 0.0883 0.3966 0.3758
C5_14 C 0.3378(3) 0.9638(2) 0.2462(3)
H6_14 H 0.3857 0.9597 0.2394
H7_14 H 0.3123 0.9537 0.1837
C6_14 C 0.2831(4) 0.9023(3) 0.3139(4)
H8_14 H 0.2708 0.8504 0.2910
H9_16 H 0.2347 0.9047 0.3191
H10_16 H 0.3082 0.9117 0.3758
C5_15 C 0.6304(2) 0.9593(2) 0.0872(3)
H6_15 H 0.6263 0.9073 0.0940
H7_15 H 0.6203 0.9747 0.1497
C6_15 C 0.5689(3) 0.9525(3) 0.0195(4)
H8_15 H 0.5170 0.9129 0.0424
C5_16 C 0.0407(2) 0.6712(3) 0.0872(3)
H6_16 H 0.0927 0.7191 0.0940
H7_16 H 0.0253 0.6457 0.1497
C6_16 C 0.0475(3) 0.6165(4) 0.0195(4)
H8_16 H 0.0871 0.6042 0.0424
C5_17 C 0.9638(2) 0.6259(2) 0.7538(3)
H6_17 H 0.9597 0.5739 0.7606
H7_17 H 0.9537 0.6413 0.8163
C6_17 C 0.9023(3) 0.6191(3) 0.6861(4)
H8_17 H 0.8504 0.5795 0.7090
H9_17 H 0.9047 0.6699 0.6809
H10_17 H 0.9117 0.6034 0.6242
C5_18 C 0.6622(3) 0.0362(2) 0.7538(3)
H6_18 H 0.6143 0.0403 0.7606
H7_18 H 0.6877 0.0463 0.8163
C6_18 C 0.7169(4) 0.0977(3) 0.6861(4)
H8_18 H 0.7292 0.1496 0.7090
H9_18 H 0.7653 0.0953 0.6809
H10_18 H 0.6918 0.0883 0.6242
loop_
_geom_bond_atom_site_label_1
_geom_bond_atom_site_label_2
_geom_bond_site_symmetry_1
_geom_bond_site_symmetry_2
Cu1 N1 1_555 1_555
N1 N2 1_555 1_555
N2 C4 1_555 1_555
N3 C1 1_555 1_555
C1 N1 1_555 1_555
C2 C1 1_555 1_555
H1 C2 1_555 1_555
H2 C2 1_555 1_555
C3 C2 1_555 1_555
H3 C3 1_555 1_555
H4 C3 1_555 1_555
H5 C3 1_555 1_555
C4 N3 1_555 1_555
C5 C4 1_555 1_555
H6 C5 1_555 1_555
H7 C5 1_555 1_555
C6 C5 1_555 1_555
H8 C6 1_555 1_555
H9 C6 1_555 1_555
H10 C6 1_555 1_555
Cu2 N2 1_555 1_555
Cu3 N3 1_555 1_555
N4 Cu1 1_555 1_555
N5 Cu1 1_555 1_555
H8_2 C6_2 1_555 1_555
H9_2 C6_2 1_555 1_555
H10_2 C6_2 1_555 1_555
Cu1_2 N1_2 1_555 1_555
N1_2 N2_2 1_555 1_555
N2_2 C4_2 1_555 1_555
N3_2 C1_2 1_555 1_555
C1_2 N1_2 1_555 1_555
C2_2 C1_2 1_555 1_555
H1_2 C2_2 1_555 1_555
H2_2 C2_2 1_555 1_555
C3_2 C2_2 1_555 1_555
H3_2 C3_2 1_555 1_555
H4_2 C3_2 1_555 1_555
H5_2 C3_2 1_555 1_555
C4_2 N3_2 1_555 1_555
C5_2 C4_2 1_555 1_555
H6_2 C5_2 1_555 1_555
Cu3_2 N3_2 1_555 1_555
N5_2 Cu1_2 1_555 1_555
Cu1_3 N1_3 1_555 1_555
N1_3 N2_3 1_555 1_555
N2_3 C4_3 1_555 1_555
N3_3 C1_3 1_555 1_555
C1_3 N1_3 1_555 1_555
C2_3 C1_3 1_555 1_555
H1_3 C2_3 1_555 1_555
H2_3 C2_3 1_555 1_555
C3_3 C2_3 1_555 1_555
H3_3 C3_3 1_555 1_555
H4_3 C3_3 1_555 1_555
H5_3 C3_3 1_555 1_555
C4_3 N3_3 1_555 1_555
C5_3 C4_3 1_555 1_555
H6_3 C5_3 1_555 1_555
Cu3_3 N3_3 1_555 1_555
N5_3 Cu1_3 1_555 1_555
H8_3 C6_3 1_555 1_555
H9_3 C6_3 1_555 1_555
H10_3 C6_3 1_555 1_555
Cu1_4 N1_4 1_555 1_555
N1_4 N2_4 1_555 1_555
N2_4 C4_4 1_555 1_555
Cu3_2 N2_4 1_555 1_555
N4_4 Cu1_4 1_555 1_555
Cu1_5 N1_5 1_555 1_555
N1_5 N2_5 1_555 1_555
N2_5 C4_5 1_555 1_555
Cu3_3 N2_5 1_555 1_555
N4_5 Cu1_5 1_555 1_555
N5_4 Cu1_5 1_555 1_555
N3_4 C1_4 1_555 1_555
C2_4 C1_4 1_555 1_555
H1_4 C2_4 1_555 1_555
H2_4 C2_4 1_555 1_555
C3_4 C2_4 1_555 1_555
H3_4 C3_4 1_555 1_555
H4_4 C3_4 1_555 1_555
H5_6 C3_4 1_555 1_555
Cu3_6 N3_4 1_555 1_555
Cu1_6 N1_6 1_555 1_555
N1_6 N2_6 1_555 1_555
N2_6 C4_6 1_555 1_555
C5_4 C4_6 1_555 1_555
H6_4 C5_4 1_555 1_555
H7_4 C5_4 1_555 1_555
C6_4 C5_4 1_555 1_555
H8_4 C6_4 1_555 1_555
H9_6 C6_4 1_555 1_555
Cu3 N2_6 1_555 1_555
N4_6 Cu1_6 1_555 1_555
Cu1_7 N1_7 1_555 1_555
N1_7 N2_7 1_555 1_555
N2_7 C4_7 1_555 1_555
N3_5 C1_5 1_555 1_555
C1_5 N1_7 1_555 1_555
C2_5 C1_5 1_555 1_555
H1_5 C2_5 1_555 1_555
H2_5 C2_5 1_555 1_555
C3_5 C2_5 1_555 1_555
H3_5 C3_5 1_555 1_555
H4_5 C3_5 1_555 1_555
H5_7 C3_5 1_555 1_555
C4_7 N3_5 1_555 1_555
Cu3_5 N2_7 1_555 1_555
Cu2_3 N3_5 1_555 1_555
N4_7 Cu1_7 1_555 1_555
N5_5 Cu1_7 1_555 1_555
Cu1_8 N1_8 1_555 1_555
N1_8 N2_8 1_555 1_555
N2_8 C4_8 1_555 1_555
N3_6 C1_6 1_555 1_555
C1_6 N1_8 1_555 1_555
C2_6 C1_6 1_555 1_555
H1_6 C2_6 1_555 1_555
H2_6 C2_6 1_555 1_555
C3_6 C2_6 1_555 1_555
H3_6 C3_6 1_555 1_555
H4_6 C3_6 1_555 1_555
H5_8 C3_6 1_555 1_555
C4_8 N3_6 1_555 1_555
C5_5 C4_8 1_555 1_555
H6_5 C5_5 1_555 1_555
H7_5 C5_5 1_555 1_555
C6_5 C5_5 1_555 1_555
H8_5 C6_5 1_555 1_555
H9_7 C6_5 1_555 1_555
H10_7 C6_5 1_555 1_555
Cu3_6 N2_8 1_555 1_555
Cu2 N3_6 1_555 1_555
N4_8 Cu1_8 1_555 1_555
N5_6 Cu1_8 1_555 1_555
Cu1_9 N1_9 1_555 1_555
N1_9 N2_9 1_555 1_555
N2_9 C4_9 1_555 1_555
N3_7 C1_7 1_555 1_555
C1_7 N1_9 1_555 1_555
C2_7 C1_7 1_555 1_555
H1_7 C2_7 1_555 1_555
H2_7 C2_7 1_555 1_555
C3_7 C2_7 1_555 1_555
H3_7 C3_7 1_555 1_555
H4_7 C3_7 1_555 1_555
H5_9 C3_7 1_555 1_555
C4_9 N3_7 1_555 1_555
Cu3_4 N2_9 1_555 1_555
Cu2_2 N3_7 1_555 1_555
N4_9 Cu1_9 1_555 1_555
N5_7 Cu1_9 1_555 1_555
Cu2 N1_10 1_555 1_555
N1_10 N4 1_555 1_555
N4 C4_10 1_555 1_555
N5_7 C1_8 1_555 1_555
C1_8 N1_10 1_555 1_555
C2_8 C1_8 1_555 1_555
H1_8 C2_8 1_555 1_555
H2_8 C2_8 1_555 1_555
C3_8 C2_8 1_555 1_555
H3_8 C3_8 1_555 1_555
H4_8 C3_8 1_555 1_555
H5_10 C3_8 1_555 1_555
C4_10 N5_7 1_555 1_555
C5_6 C4_10 1_555 1_555
H6_6 C5_6 1_555 1_555
H7_6 C5_6 1_555 1_555
C6_6 C5_6 1_555 1_555
H8_6 C6_6 1_555 1_555
H9_8 C6_6 1_555 1_555
H10_8 C6_6 1_555 1_555
Cu2_2 N1_11 1_555 1_555
N1_11 N4_2 1_555 1_555
N4_2 C4_11 1_555 1_555
N5_5 C1_9 1_555 1_555
C1_9 N1_11 1_555 1_555
C2_9 C1_9 1_555 1_555
H1_9 C2_9 1_555 1_555
H2_9 C2_9 1_555 1_555
C3_9 C2_9 1_555 1_555
H3_9 C3_9 1_555 1_555
H4_9 C3_9 1_555 1_555
H5_11 C3_9 1_555 1_555
C4_11 N5_5 1_555 1_555
C5_7 C4_11 1_555 1_555
H6_7 C5_7 1_555 1_555
H8_7 C6_7 1_555 1_555
H9_9 C6_7 1_555 1_555
H10_9 C6_7 1_555 1_555
H8_8 C6_8 1_555 1_555
H9_10 C6_8 1_555 1_555
H10_10 C6_8 1_555 1_555
Cu2_3 N1_12 1_555 1_555
N1_12 N4_3 1_555 1_555
N4_3 C4_12 1_555 1_555
N5_6 C1_10 1_555 1_555
C1_10 N1_12 1_555 1_555
C2_10 C1_10 1_555 1_555
H1_10 C2_10 1_555 1_555
H2_10 C2_10 1_555 1_555
C3_10 C2_10 1_555 1_555
H3_10 C3_10 1_555 1_555
H4_10 C3_10 1_555 1_555
H5_12 C3_10 1_555 1_555
C4_12 N5_6 1_555 1_555
C5_8 C4_12 1_555 1_555
H6_8 C5_8 1_555 1_555
Cu3_5 N1_13 1_555 1_555
N1_13 N4_7 1_555 1_555
N4_7 C4_13 1_555 1_555
Cu3_6 N1_14 1_555 1_555
N1_14 N4_8 1_555 1_555
N4_8 C4_14 1_555 1_555
Cu3_4 N1_15 1_555 1_555
N1_15 N4_9 1_555 1_555
N4_9 C4_15 1_555 1_555
C5_9 C4_15 1_555 1_555
H6_9 C5_9 1_555 1_555
H7_9 C5_9 1_555 1_555
C6_9 C5_9 1_555 1_555
H8_9 C6_9 1_555 1_555
H9_13 C6_9 1_555 1_555
N5_4 C1_11 1_555 1_555
C2_11 C1_11 1_555 1_555
H1_11 C2_11 1_555 1_555
H2_11 C2_11 1_555 1_555
C3_11 C2_11 1_555 1_555
H3_11 C3_11 1_555 1_555
H4_11 C3_11 1_555 1_555
H5_15 C3_11 1_555 1_555
Cu3_2 N1_16 1_555 1_555
N1_16 N4_4 1_555 1_555
N4_4 C4_16 1_555 1_555
N5_3 C1_12 1_555 1_555
C1_12 N1_16 1_555 1_555
C2_12 C1_12 1_555 1_555
H1_12 C2_12 1_555 1_555
H2_12 C2_12 1_555 1_555
C3_12 C2_12 1_555 1_555
H3_12 C3_12 1_555 1_555
H4_12 C3_12 1_555 1_555
H5_16 C3_12 1_555 1_555
C4_16 N5_3 1_555 1_555
Cu3_3 N1_17 1_555 1_555
N1_17 N4_5 1_555 1_555
N4_5 C4_17 1_555 1_555
N5 C1_13 1_555 1_555
C1_13 N1_17 1_555 1_555
C2_13 C1_13 1_555 1_555
H1_13 C2_13 1_555 1_555
H2_13 C2_13 1_555 1_555
C3_13 C2_13 1_555 1_555
H3_13 C3_13 1_555 1_555
H4_13 C3_13 1_555 1_555
H5_17 C3_13 1_555 1_555
C4_17 N5 1_555 1_555
C5_10 C4_17 1_555 1_555
H6_10 C5_10 1_555 1_555
H7_10 C5_10 1_555 1_555
C6_10 C5_10 1_555 1_555
H8_10 C6_10 1_555 1_555
H9_14 C6_10 1_555 1_555
H10_14 C6_10 1_555 1_555
Cu3 N1_18 1_555 1_555
N1_18 N4_6 1_555 1_555
N4_6 C4_18 1_555 1_555
N5_2 C1_14 1_555 1_555
C1_14 N1_18 1_555 1_555
C2_14 C1_14 1_555 1_555
H1_14 C2_14 1_555 1_555
H2_14 C2_14 1_555 1_555
C3_14 C2_14 1_555 1_555
H3_14 C3_14 1_555 1_555
H4_14 C3_14 1_555 1_555
H5_18 C3_14 1_555 1_555
C4_18 N5_2 1_555 1_555
H6_11 C5_11 1_555 1_555
H7_11 C5_11 1_555 1_555
C6_11 C5_11 1_555 1_555
H8_11 C6_11 1_555 1_555
N3_8 C1_15 1_555 1_555
C2_15 C1_15 1_555 1_555
H1_15 C2_15 1_555 1_555
H2_15 C2_15 1_555 1_555
C3_15 C2_15 1_555 1_555
H3_15 C3_15 1_555 1_555
H4_15 C3_15 1_555 1_555
N5_8 C1_16 1_555 1_555
C2_16 C1_16 1_555 1_555
H1_16 C2_16 1_555 1_555
H2_16 C2_16 1_555 1_555
C3_16 C2_16 1_555 1_555
H3_16 C3_16 1_555 1_555
H4_16 C3_16 1_555 1_555
N3_9 C1_17 1_555 1_555
C2_17 C1_17 1_555 1_555
H1_17 C2_17 1_555 1_555
H2_17 C2_17 1_555 1_555
C3_17 C2_17 1_555 1_555
H3_17 C3_17 1_555 1_555
H4_17 C3_17 1_555 1_555
H6_12 C5_12 1_555 1_555
H7_12 C5_12 1_555 1_555
C6_12 C5_12 1_555 1_555
H8_12 C6_12 1_555 1_555
N5_9 C1_18 1_555 1_555
C2_18 C1_18 1_555 1_555
H1_18 C2_18 1_555 1_555
H2_18 C2_18 1_555 1_555
C3_18 C2_18 1_555 1_555
H3_18 C3_18 1_555 1_555
H4_18 C3_18 1_555 1_555
H6_13 C5_13 1_555 1_555
H7_13 C5_13 1_555 1_555
C6_13 C5_13 1_555 1_555
H8_13 C6_13 1_555 1_555
H9_15 C6_13 1_555 1_555
H10_15 C6_13 1_555 1_555
H6_14 C5_14 1_555 1_555
H7_14 C5_14 1_555 1_555
C6_14 C5_14 1_555 1_555
H8_14 C6_14 1_555 1_555
H9_16 C6_14 1_555 1_555
H10_16 C6_14 1_555 1_555
H6_15 C5_15 1_555 1_555
H7_15 C5_15 1_555 1_555
C6_15 C5_15 1_555 1_555
H8_15 C6_15 1_555 1_555
H6_16 C5_16 1_555 1_555
H7_16 C5_16 1_555 1_555
C6_16 C5_16 1_555 1_555
H8_16 C6_16 1_555 1_555
H6_17 C5_17 1_555 1_555
H7_17 C5_17 1_555 1_555
C6_17 C5_17 1_555 1_555
H8_17 C6_17 1_555 1_555
H9_17 C6_17 1_555 1_555
H10_17 C6_17 1_555 1_555
H6_18 C5_18 1_555 1_555
H7_18 C5_18 1_555 1_555
C6_18 C5_18 1_555 1_555
H8_18 C6_18 1_555 1_555
H9_18 C6_18 1_555 1_555
H10_18 C6_18 1_555 1_555

#END
