
###############################################################################
#
# This file contains modified crystal structure data generated from the
# MOF subset of the Cambridge Structural Database (CSD) v543 
# hosted by the Cambridge Crystallographic Data Centre (CCDC).
#
# This work is licensed under the Creative Commons
# Attribution-NonCommercial-ShareAlike 4.0 International License.
# To view a copy of this license, visit
# http://creativecommons.org/licenses/by-nc-sa/4.0/
# or send a letter to
# Creative Commons, PO Box 1866, Mountain View, CA 94042, USA.
#
# CIF created using the CSD Python API on 29 September 2022
# The structure has been converted into the P1 space group
# The structure has a 3D framework
# The original CSD entry SUJNUH is in the tetragonal crystal system
# The framework has been calculated to contain at least 10.0% void space
# The void calculation uses a probe of radius 1.32A, grid spacing 0.4
# H atom positions have been added when not included in the experimental data
#
###############################################################################

data_SUJNUH
_chemical_formula_moiety         '(C96 H64 Cu8 O34)n'
_symmetry_cell_setting           triclinic
_symmetry_space_group_name_H-M   'P 1'
_symmetry_Int_Tables_number      1
_space_group_name_Hall           'P 1'
loop_
_symmetry_equiv_pos_site_id
_symmetry_equiv_pos_as_xyz
1 x,y,z
_cell_length_a                   20.539(2)
_cell_length_b                   20.539(2)
_cell_length_c                   6.9994(10)
_cell_angle_alpha                90
_cell_angle_beta                 90
_cell_angle_gamma                90
_cell_volume                     2952.7
loop_
_atom_site_label
_atom_site_type_symbol
_atom_site_fract_x
_atom_site_fract_y
_atom_site_fract_z
Cu2 Cu 0.018972(15) 0.023909(15) 0.66374(4)
C2 C 0.00976(15) 0.29628(14) 0.3507(4)
H1 H 0.0280 0.3283 0.4328
C3 C 0.00884(14) 0.23034(13) 0.4065(4)
H2 H 0.0282 0.2181 0.5244
O4 O 0.00537(10) 0.10741(9) 0.5347(3)
C2_2 C 0.20372(14) 0.00976(15) 0.1493(4)
H1_2 H 0.1717 0.0280 0.0672
C3_2 C 0.26966(13) 0.00884(14) 0.0935(4)
O1 O 0.10590(9) 0.01488(10) 0.5484(3)
O5 O 0.05465(9) 0.06851(9) 0.9170(3)
H7 H 0.0853672 0.03846 0.982014
O6 O 0.07344(9) 0.97519(10) 0.2655(3)
H2_2 H 0.7181 0.9718 0.0244
O4_2 O 0.60741(9) 0.99463(10) 0.0347(3)
Cu4 Cu 0.523909(15) 0.981028(15) 0.16374(4)
Cu3 Cu 0.023909(15) 0.481028(15) 0.83626(4)
O1_2 O 0.01488(10) 0.39410(9) 0.9516(3)
O5_2 O 0.06851(9) 0.44535(9) 0.5830(3)
O6_2 O 0.02481(10) 0.57344(9) 0.7655(3)
O8 O 0.10741(9) 0.49463(10) 0.9653(3)
H7_2 H 0.03846 0.414633 0.517986
H8 H 0.078383 0.482346 0.496387
C1 C 0.18600(13) 0.98432(13) 0.3224(4)
C4 C 0.31677(13) 0.98042(13) 0.2061(4)
C5 C 0.34228(13) 0.91021(14) 0.4935(4)
H3 H 0.3867 0.9070 0.4565
C6 C 0.32169(15) 0.87878(17) 0.6543(5)
H4 H 0.3518 0.8540 0.7272
C7 C 0.25610(15) 0.88265(17) 0.7137(5)
H5 H 0.2423 0.8606 0.8259
C8 C 0.21264(14) 0.91809(15) 0.6096(4)
H6 H 0.1687 0.9209 0.6510
C9 C 0.23202(13) 0.95098(13) 0.4399(4)
C10 C 0.29879(13) 0.94767(13) 0.3800(4)
C11 C 0.11619(13) 0.99190(12) 0.3831(4)
C12 C 0.38571(13) 0.98737(13) 0.1348(4)
O3 O 0.43251(9) 0.97618(10) 0.2492(3)
O7 O 0.02382(10) 0.93251(9) 0.7492(3)
H2_3 H 0.2181 0.4718 0.9756
C1_2 C 0.01568(13) 0.68600(13) 0.8224(4)
C4_2 C 0.01958(13) 0.81677(13) 0.7061(4)
C5_2 C 0.08979(14) 0.84228(13) 0.9935(4)
H3_2 H 0.0930 0.8867 0.9565
C9_2 C 0.04902(13) 0.73202(13) 0.9399(4)
C10_2 C 0.05233(13) 0.79879(13) 0.8800(4)
C11_2 C 0.00810(12) 0.61619(13) 0.8831(4)
C12_2 C 0.01263(13) 0.88571(13) 0.6348(4)
C6_2 C 0.37878(17) 0.67831(15) 0.1543(5)
H4_2 H 0.3540 0.6482 0.2272
C7_2 C 0.38265(17) 0.74390(15) 0.2137(5)
H5_2 H 0.3606 0.7577 0.3259
C8_2 C 0.41809(15) 0.78736(14) 0.1096(4)
H6_2 H 0.4209 0.8313 0.1510
O1_3 O 0.51488(10) 0.89410(9) 0.0484(3)
O5_3 O 0.56851(9) 0.94535(9) 0.4170(3)
H7_3 H 0.53846 0.914633 0.482014
H8_2 H 0.578383 0.982346 0.503613
C1_3 C 0.81400(13) 0.01568(13) 0.6776(4)
C4_3 C 0.68323(13) 0.01958(13) 0.7939(4)
C5_3 C 0.65772(13) 0.08979(14) 0.5065(4)
H3_3 H 0.6133 0.0930 0.5435
C6_3 C 0.67831(15) 0.12122(17) 0.3457(5)
H4_3 H 0.6482 0.1460 0.2728
C7_3 C 0.74390(15) 0.11735(17) 0.2863(5)
H5_3 H 0.7577 0.1394 0.1741
C8_3 C 0.78736(14) 0.08191(15) 0.3904(4)
H6_3 H 0.8313 0.0791 0.3490
C9_3 C 0.76798(13) 0.04902(13) 0.5601(4)
C10_3 C 0.70121(13) 0.05233(13) 0.6200(4)
C11_3 C 0.88381(13) 0.00810(12) 0.6169(4)
C12_3 C 0.61429(13) 0.01263(13) 0.8652(4)
O2 O 0.92656(9) 0.02481(10) 0.7345(3)
O3_2 O 0.56749(9) 0.02382(10) 0.7508(3)
O7_2 O 0.97618(10) 0.06749(9) 0.2508(3)
Cu3_2 Cu 0.476091(15) 0.018972(15) 0.83626(4)
H2_4 H 0.7819 0.5282 0.0244
O4_3 O 0.89259(9) 0.50537(10) 0.0347(3)
Cu4_2 Cu 0.976091(15) 0.518972(15) 0.16374(4)
C1_4 C 0.98432(13) 0.31400(13) 0.1776(4)
C4_4 C 0.98042(13) 0.18323(13) 0.2939(4)
C5_4 C 0.91021(14) 0.15772(13) 0.0065(4)
H3_4 H 0.9070 0.1133 0.0435
C9_4 C 0.95098(13) 0.26798(13) 0.0601(4)
C10_4 C 0.94767(13) 0.20121(13) 0.1200(4)
C11_4 C 0.99190(12) 0.38381(13) 0.1169(4)
C12_4 C 0.98737(13) 0.11429(13) 0.3652(4)
O2_2 O 0.97519(10) 0.42656(9) 0.2345(3)
C6_4 C 0.62122(17) 0.32169(15) 0.8457(5)
H4_4 H 0.6460 0.3518 0.7728
C7_4 C 0.61735(17) 0.25610(15) 0.7863(5)
H5_4 H 0.6394 0.2423 0.6741
C8_4 C 0.58191(15) 0.21264(14) 0.8904(4)
H6_4 H 0.5791 0.1687 0.8490
O1_4 O 0.48512(10) 0.10590(9) 0.9516(3)
O5_4 O 0.43149(9) 0.05465(9) 0.5830(3)
O8_2 O 0.39259(9) 0.00537(10) 0.9653(3)
H7_4 H 0.46154 0.0853672 0.517986
H8_3 H 0.421617 0.0176536 0.496387
H2_5 H 0.2819 0.0282 0.9756
O1_5 O 0.98512(10) 0.60590(9) 0.0484(3)
O5_5 O 0.93149(9) 0.55465(9) 0.4170(3)
H7_5 H 0.96154 0.585367 0.482014
H8_4 H 0.921617 0.517654 0.503613
C2_3 C 0.79628(14) 0.99024(15) 0.8507(4)
H1_3 H 0.8283 0.9720 0.9328
C3_3 C 0.73034(13) 0.99116(14) 0.9065(4)
O1_6 O 0.89410(9) 0.98512(10) 0.4516(3)
O5_6 O 0.94535(9) 0.93149(9) 0.0830(3)
Cu1 Cu 0.981028(15) 0.976091(15) 0.33626(4)
O8_3 O 0.99463(10) 0.89259(9) 0.4653(3)
H7_6 H 0.914633 0.96154 0.0179859
C2_4 C 0.99024(15) 0.70372(14) 0.6493(4)
H1_4 H 0.9720 0.6717 0.5672
C3_4 C 0.99116(14) 0.76966(13) 0.5935(4)
H2_6 H 0.9718 0.7819 0.4756
H8_5 H 0.982346 0.921617 0.996387
C1_5 C 0.68600(13) 0.48432(13) 0.6776(4)
C2_5 C 0.70372(14) 0.50976(15) 0.8507(4)
H1_5 H 0.6717 0.5280 0.9328
C3_5 C 0.76966(13) 0.50884(14) 0.9065(4)
C4_5 C 0.81677(13) 0.48042(13) 0.7939(4)
C5_5 C 0.84228(13) 0.41021(14) 0.5065(4)
H3_5 H 0.8867 0.4070 0.5435
C6_5 C 0.82169(15) 0.37878(17) 0.3457(5)
H4_5 H 0.8518 0.3540 0.2728
C7_5 C 0.75610(15) 0.38265(17) 0.2863(5)
H5_5 H 0.7423 0.3606 0.1741
C8_5 C 0.71264(14) 0.41809(15) 0.3904(4)
H6_5 H 0.6687 0.4209 0.3490
C9_5 C 0.73202(13) 0.45098(13) 0.5601(4)
C10_5 C 0.79879(13) 0.44767(13) 0.6200(4)
C11_5 C 0.61619(13) 0.49190(12) 0.6169(4)
C12_5 C 0.88571(13) 0.48737(13) 0.8652(4)
O1_7 O 0.60590(9) 0.51488(10) 0.4516(3)
O2_3 O 0.57344(9) 0.47519(10) 0.7345(3)
O3_3 O 0.93251(9) 0.47618(10) 0.7508(3)
O5_7 O 0.55465(9) 0.56851(9) 0.0830(3)
Cu1_2 Cu 0.518972(15) 0.523909(15) 0.33626(4)
O6_3 O 0.42656(9) 0.52481(10) 0.2655(3)
O7_3 O 0.52382(10) 0.43251(9) 0.2508(3)
O8_4 O 0.50537(10) 0.60741(9) 0.4653(3)
Cu2_2 Cu 0.481028(15) 0.476091(15) 0.66374(4)
H7_7 H 0.585367 0.53846 0.0179859
C6_6 C 0.87878(17) 0.17831(15) 0.8457(5)
H4_6 H 0.8540 0.1482 0.7728
C7_6 C 0.88265(17) 0.24390(15) 0.7863(5)
H5_6 H 0.8606 0.2577 0.6741
C8_6 C 0.91809(15) 0.28736(14) 0.8904(4)
H6_6 H 0.9209 0.3313 0.8490
C1_6 C 0.51568(13) 0.18600(13) 0.1776(4)
C2_6 C 0.49024(15) 0.20372(14) 0.3507(4)
H1_6 H 0.4720 0.1717 0.4328
C3_6 C 0.49116(14) 0.26966(13) 0.4065(4)
H2_7 H 0.4718 0.2819 0.5244
C4_6 C 0.51958(13) 0.31677(13) 0.2939(4)
C5_6 C 0.58979(14) 0.34228(13) 0.0065(4)
H3_6 H 0.5930 0.3867 0.0435
C9_6 C 0.54902(13) 0.23202(13) 0.0601(4)
C10_6 C 0.55233(13) 0.29879(13) 0.1200(4)
C11_6 C 0.50810(12) 0.11619(13) 0.1169(4)
C12_6 C 0.51263(13) 0.38571(13) 0.3652(4)
O2_4 O 0.52481(10) 0.07344(9) 0.2345(3)
O4_4 O 0.49463(10) 0.39259(9) 0.5347(3)
O6_4 O 0.47519(10) 0.92656(9) 0.7655(3)
C1_7 C 0.31400(13) 0.51568(13) 0.3224(4)
C2_7 C 0.29628(14) 0.49024(15) 0.1493(4)
H1_7 H 0.3283 0.4720 0.0672
C3_7 C 0.23034(13) 0.49116(14) 0.0935(4)
C4_7 C 0.18323(13) 0.51958(13) 0.2061(4)
C5_7 C 0.15772(13) 0.58979(14) 0.4935(4)
H3_7 H 0.1133 0.5930 0.4565
C6_7 C 0.17831(15) 0.62122(17) 0.6543(5)
H4_7 H 0.1482 0.6460 0.7272
C7_7 C 0.24390(15) 0.61735(17) 0.7137(5)
H5_7 H 0.2577 0.6394 0.8259
C8_7 C 0.28736(14) 0.58191(15) 0.6096(4)
H6_7 H 0.3313 0.5791 0.6510
C9_7 C 0.26798(13) 0.54902(13) 0.4399(4)
C10_7 C 0.20121(13) 0.55233(13) 0.3800(4)
C11_7 C 0.38381(13) 0.50810(12) 0.3831(4)
C12_7 C 0.11429(13) 0.51263(13) 0.1348(4)
O1_8 O 0.39410(9) 0.48512(10) 0.5484(3)
O3_4 O 0.06749(9) 0.52382(10) 0.2492(3)
O5_8 O 0.44535(9) 0.43149(9) 0.9170(3)
O7_4 O 0.47618(10) 0.56749(9) 0.7492(3)
H7_8 H 0.414633 0.46154 0.982014
C6_8 C 0.12122(17) 0.82169(15) 0.1543(5)
H4_8 H 0.1460 0.8518 0.2272
C7_8 C 0.11735(17) 0.75610(15) 0.2137(5)
H5_8 H 0.1394 0.7423 0.3259
C8_8 C 0.08191(15) 0.71264(14) 0.1096(4)
H6_8 H 0.0791 0.6687 0.1510
C1_8 C 0.48432(13) 0.81400(13) 0.8224(4)
C2_8 C 0.50976(15) 0.79628(14) 0.6493(4)
H1_8 H 0.5280 0.8283 0.5672
C3_8 C 0.50884(14) 0.73034(13) 0.5935(4)
H2_8 H 0.5282 0.7181 0.4756
C4_8 C 0.48042(13) 0.68323(13) 0.7061(4)
C5_8 C 0.41021(14) 0.65772(13) 0.9935(4)
H3_8 H 0.4070 0.6133 0.9565
C9_8 C 0.45098(13) 0.76798(13) 0.9399(4)
C10_8 C 0.44767(13) 0.70121(13) 0.8800(4)
C11_8 C 0.49190(12) 0.88381(13) 0.8831(4)
C12_8 C 0.48737(13) 0.61429(13) 0.6348(4)
H8_6 H 0.517654 0.578383 0.996387
H8_7 H 0.0176536 0.078383 0.00361322
H8_8 H 0.482346 0.421617 0.00361322
loop_
_geom_bond_atom_site_label_1
_geom_bond_atom_site_label_2
_geom_bond_site_symmetry_1
_geom_bond_site_symmetry_2
C2 H1 1_555 1_555
C3 C2 1_555 1_555
H2 C3 1_555 1_555
Cu2 O4 1_555 1_555
C2_2 H1_2 1_555 1_555
C3_2 C2_2 1_555 1_555
O5 Cu2 1_555 1_555
Cu2 O1 1_555 1_555
O5 H7 1_555 1_555
Cu4 O4_2 1_555 1_555
O5_2 Cu3 1_555 1_555
Cu3 O1_2 1_555 1_555
O6_2 Cu3 1_555 1_555
O8 Cu3 1_555 1_555
O5_2 H7_2 1_555 1_555
O5_2 H8 1_555 1_555
C5 H3 1_555 1_555
C6 C5 1_555 1_555
H4 C6 1_555 1_555
C7 C6 1_555 1_555
H5 C7 1_555 1_555
C8 C7 1_555 1_555
H6 C8 1_555 1_555
C9 C1 1_555 1_555
C10 C4 1_555 1_555
C11 C1 1_555 1_555
C12 C4 1_555 1_555
O6 C11 1_555 1_555
O3 C12 1_555 1_555
Cu4 O3 1_555 1_555
C5 C10 1_555 1_555
C8 C9 1_555 1_555
C9 C10 1_555 1_555
C5_2 H3_2 1_555 1_555
C9_2 C1_2 1_555 1_555
C10_2 C4_2 1_555 1_555
C11_2 C1_2 1_555 1_555
C12_2 C4_2 1_555 1_555
O6_2 C11_2 1_555 1_555
O7 C12_2 1_555 1_555
C5_2 C10_2 1_555 1_555
C9_2 C10_2 1_555 1_555
H4_2 C6_2 1_555 1_555
C7_2 C6_2 1_555 1_555
H5_2 C7_2 1_555 1_555
C8_2 C7_2 1_555 1_555
H6_2 C8_2 1_555 1_555
O5_3 Cu4 1_555 1_555
Cu4 O1_3 1_555 1_555
O5_3 H7_3 1_555 1_555
O5_3 H8_2 1_555 1_555
C5_3 H3_3 1_555 1_555
C6_3 C5_3 1_555 1_555
H4_3 C6_3 1_555 1_555
C7_3 C6_3 1_555 1_555
H5_3 C7_3 1_555 1_555
C8_3 C7_3 1_555 1_555
H6_3 C8_3 1_555 1_555
C9_3 C1_3 1_555 1_555
C10_3 C4_3 1_555 1_555
C11_3 C1_3 1_555 1_555
C12_3 C4_3 1_555 1_555
O2 C11_3 1_555 1_555
O3_2 C12_3 1_555 1_555
Cu3_2 O3_2 1_555 1_555
C5_3 C10_3 1_555 1_555
C8_3 C9_3 1_555 1_555
C9_3 C10_3 1_555 1_555
Cu4_2 O4_3 1_555 1_555
C5_4 H3_4 1_555 1_555
C9_4 C1_4 1_555 1_555
C10_4 C4_4 1_555 1_555
C11_4 C1_4 1_555 1_555
C12_4 C4_4 1_555 1_555
O2_2 C11_4 1_555 1_555
O7_2 C12_4 1_555 1_555
Cu4_2 O2_2 1_555 1_555
C5_4 C10_4 1_555 1_555
C9_4 C10_4 1_555 1_555
H4_4 C6_4 1_555 1_555
C7_4 C6_4 1_555 1_555
H5_4 C7_4 1_555 1_555
C8_4 C7_4 1_555 1_555
H6_4 C8_4 1_555 1_555
O5_4 Cu3_2 1_555 1_555
Cu3_2 O1_4 1_555 1_555
O8_2 Cu3_2 1_555 1_555
O5_4 H7_4 1_555 1_555
O5_4 H8_3 1_555 1_555
O5_5 Cu4_2 1_555 1_555
Cu4_2 O1_5 1_555 1_555
O5_5 H7_5 1_555 1_555
O5_5 H8_4 1_555 1_555
C2_3 H1_3 1_555 1_555
C3_3 C2_3 1_555 1_555
O5_6 Cu1 1_555 1_555
Cu1 O1_6 1_555 1_555
O8_3 Cu1 1_555 1_555
O5_6 H7_6 1_555 1_555
C2_4 H1_4 1_555 1_555
C3_4 C2_4 1_555 1_555
H2_6 C3_4 1_555 1_555
C1_5 C2_5 1_555 1_555
C2_5 H1_5 1_555 1_555
C3_5 C2_5 1_555 1_555
C4_5 C3_5 1_555 1_555
C5_5 H3_5 1_555 1_555
C6_5 C5_5 1_555 1_555
H4_5 C6_5 1_555 1_555
C7_5 C6_5 1_555 1_555
H5_5 C7_5 1_555 1_555
C8_5 C7_5 1_555 1_555
H6_5 C8_5 1_555 1_555
C9_5 C1_5 1_555 1_555
C10_5 C4_5 1_555 1_555
C11_5 C1_5 1_555 1_555
C12_5 C4_5 1_555 1_555
O1_7 C11_5 1_555 1_555
O2_3 C11_5 1_555 1_555
O3_3 C12_5 1_555 1_555
O5_7 Cu1_2 1_555 1_555
Cu1_2 O1_7 1_555 1_555
O6_3 Cu1_2 1_555 1_555
O7_3 Cu1_2 1_555 1_555
O8_4 Cu1_2 1_555 1_555
Cu2_2 O2_3 1_555 1_555
C5_5 C10_5 1_555 1_555
C8_5 C9_5 1_555 1_555
C9_5 C10_5 1_555 1_555
Cu1_2 Cu2_2 1_555 1_555
O5_7 H7_7 1_555 1_555
H4_6 C6_6 1_555 1_555
C7_6 C6_6 1_555 1_555
H5_6 C7_6 1_555 1_555
C8_6 C7_6 1_555 1_555
H6_6 C8_6 1_555 1_555
C1_6 C2_6 1_555 1_555
C2_6 H1_6 1_555 1_555
C3_6 C2_6 1_555 1_555
H2_7 C3_6 1_555 1_555
C4_6 C3_6 1_555 1_555
C5_6 H3_6 1_555 1_555
C9_6 C1_6 1_555 1_555
C10_6 C4_6 1_555 1_555
C11_6 C1_6 1_555 1_555
C12_6 C4_6 1_555 1_555
O2_4 C11_6 1_555 1_555
O7_3 C12_6 1_555 1_555
O4_4 C12_6 1_555 1_555
Cu2_2 O4_4 1_555 1_555
C5_6 C10_6 1_555 1_555
C9_6 C10_6 1_555 1_555
C1_7 C2_7 1_555 1_555
C2_7 H1_7 1_555 1_555
C3_7 C2_7 1_555 1_555
C4_7 C3_7 1_555 1_555
C5_7 H3_7 1_555 1_555
C6_7 C5_7 1_555 1_555
H4_7 C6_7 1_555 1_555
C7_7 C6_7 1_555 1_555
H5_7 C7_7 1_555 1_555
C8_7 C7_7 1_555 1_555
H6_7 C8_7 1_555 1_555
C9_7 C1_7 1_555 1_555
C10_7 C4_7 1_555 1_555
C11_7 C1_7 1_555 1_555
C12_7 C4_7 1_555 1_555
O1_8 C11_7 1_555 1_555
O6_3 C11_7 1_555 1_555
O3_4 C12_7 1_555 1_555
O5_8 Cu2_2 1_555 1_555
Cu2_2 O1_8 1_555 1_555
O7_4 Cu2_2 1_555 1_555
C5_7 C10_7 1_555 1_555
C8_7 C9_7 1_555 1_555
C9_7 C10_7 1_555 1_555
O5_8 H7_8 1_555 1_555
H4_8 C6_8 1_555 1_555
C7_8 C6_8 1_555 1_555
H5_8 C7_8 1_555 1_555
C8_8 C7_8 1_555 1_555
H6_8 C8_8 1_555 1_555
C1_8 C2_8 1_555 1_555
C2_8 H1_8 1_555 1_555
C3_8 C2_8 1_555 1_555
H2_8 C3_8 1_555 1_555
C4_8 C3_8 1_555 1_555
C5_8 H3_8 1_555 1_555
C9_8 C1_8 1_555 1_555
C10_8 C4_8 1_555 1_555
C11_8 C1_8 1_555 1_555
C12_8 C4_8 1_555 1_555
O6_4 C11_8 1_555 1_555
O7_4 C12_8 1_555 1_555
O8_4 C12_8 1_555 1_555
C5_8 C10_8 1_555 1_555
C9_8 C10_8 1_555 1_555

#END
