
###############################################################################
#
# This file contains modified crystal structure data generated from the
# MOF subset of the Cambridge Structural Database (CSD) v543 
# hosted by the Cambridge Crystallographic Data Centre (CCDC).
#
# This work is licensed under the Creative Commons
# Attribution-NonCommercial-ShareAlike 4.0 International License.
# To view a copy of this license, visit
# http://creativecommons.org/licenses/by-nc-sa/4.0/
# or send a letter to
# Creative Commons, PO Box 1866, Mountain View, CA 94042, USA.
#
# CIF created using the CSD Python API on 29 September 2022
# The structure has been converted into the P1 space group
# The structure has a 3D framework
# The original CSD entry SUJQUK01 is in the orthorhombic crystal system
# The framework has been calculated to contain at least 10.0% void space
# The void calculation uses a probe of radius 1.32A, grid spacing 0.4
#
###############################################################################

data_SUJQUK01
_chemical_formula_moiety         '(C160 H112 N16 O32 Zn8)n'
_symmetry_cell_setting           triclinic
_symmetry_space_group_name_H-M   'P 1'
_symmetry_Int_Tables_number      1
_space_group_name_Hall           'P 1'
loop_
_symmetry_equiv_pos_site_id
_symmetry_equiv_pos_as_xyz
1 x,y,z
_cell_length_a                   13.738(5)
_cell_length_b                   15.767(5)
_cell_length_c                   19.411(7)
_cell_angle_alpha                90
_cell_angle_beta                 90
_cell_angle_gamma                90
_cell_volume                     4204.56
loop_
_atom_site_label
_atom_site_type_symbol
_atom_site_fract_x
_atom_site_fract_y
_atom_site_fract_z
Zn1 Zn 0.47808(5) 0.60051(4) 0.55950(3)
O1 O 0.4790(3) 0.4787(3) 0.5890(3)
O2 O 0.5332(3) 0.3620(3) 0.5380(2)
O3 O 0.5148(4) 0.2632(5) 0.9053(2)
O4 O 0.5182(3) 0.1458(4) 0.8449(2)
C1 C 0.5101(3) 0.3604(3) 0.6575(3)
C2 C 0.5029(3) 0.4045(4) 0.7193(3)
H1 H 0.495943 0.464469 0.718836
C3 C 0.5056(4) 0.3620(4) 0.7811(3)
H2 H 0.501514 0.392912 0.822966
C4 C 0.5143(4) 0.2748(4) 0.7828(3)
C5 C 0.5198(4) 0.2303(4) 0.7215(3)
H3 H 0.523611 0.170184 0.722314
C6 C 0.5199(4) 0.2724(3) 0.6594(3)
H4 H 0.526660 0.241361 0.617733
C7 C 0.5073(3) 0.4044(4) 0.5901(3)
C8 C 0.5146(4) 0.2257(6) 0.8502(3)
N1 N 0.3188(3) 0.5925(3) 0.5645(2)
C9 C 0.2771(4) 0.5506(4) 0.6167(3)
H5 H 0.317761 0.526127 0.650911
C10 C 0.1774(4) 0.5414(4) 0.6229(3)
H6 H 0.150658 0.511042 0.660653
C11 C 0.1172(4) 0.5766(4) 0.5739(3)
C12 C 0.1597(4) 0.6206(4) 0.5208(3)
H7 H 0.120449 0.646177 0.486275
C13 C 0.2607(4) 0.6274(4) 0.5178(3)
H8 H 0.289120 0.658185 0.480872
C14 C 0.0079(5) 0.5690(4) 0.5828(3)
Zn3 Zn 0.52192(5) 0.10051(4) 0.94050(3)
Zn4 Zn 0.52192(5) 0.39949(4) 0.44050(3)
O5 O 0.4668(3) 0.6380(3) 0.4620(2)
O6 O 0.4818(3) 0.6458(4) 0.6551(2)
N3 N 0.6350(4) 0.6013(3) 0.5543(2)
H9 H 0.984072 0.537713 0.621046
C15 C 0.9443(4) 0.6032(4) 0.5405(3)
H10 H 0.969564 0.633460 0.502120
C16 C 0.6894(4) 0.5584(4) 0.6000(3)
H11 H 0.657034 0.528802 0.635963
C17 C 0.7900(5) 0.5550(4) 0.5977(3)
H12 H 0.824950 0.522708 0.630820
C18 C 0.8396(4) 0.5990(4) 0.5468(3)
C19 C 0.7842(5) 0.6448(4) 0.5003(3)
H13 H 0.814946 0.676252 0.464690
C20 C 0.6853(4) 0.6446(4) 0.5060(3)
H14 H 0.649217 0.677205 0.473715
N2 N 0.3650(4) 0.1013(3) 0.9457(2)
H9_2 H 0.015928 0.037713 0.878954
C15_2 C 0.0557(4) 0.1032(4) 0.9595(3)
H10_2 H 0.030436 0.133460 0.997880
C16_2 C 0.3106(4) 0.0584(4) 0.9000(3)
H11_2 H 0.342966 0.028802 0.864037
C17_2 C 0.2100(5) 0.0550(4) 0.9023(3)
H12_2 H 0.175050 0.022708 0.869180
C18_2 C 0.1604(4) 0.0990(4) 0.9532(3)
C19_2 C 0.2158(5) 0.1448(4) 0.9997(3)
C20_2 C 0.3147(4) 0.1446(4) 0.9940(3)
H7_2 H 0.879551 0.146177 0.013725
H8_2 H 0.710880 0.158185 0.019128
O5_2 O 0.5332(3) 0.1380(3) 0.0380(2)
N1_2 N 0.6812(3) 0.0925(3) 0.9355(2)
C9_2 C 0.7229(4) 0.0506(4) 0.8833(3)
H5_2 H 0.682239 0.026127 0.849089
C10_2 C 0.8226(4) 0.0414(4) 0.8771(3)
H6_2 H 0.849342 0.011042 0.839347
C11_2 C 0.8828(4) 0.0766(4) 0.9261(3)
C12_2 C 0.8403(4) 0.1206(4) 0.9792(3)
C13_2 C 0.7393(4) 0.1274(4) 0.9822(3)
C14_2 C 0.9921(5) 0.0690(4) 0.9172(3)
Zn4_2 Zn 0.47808(5) 0.89949(4) 0.05950(3)
O1_2 O 0.5210(3) 0.9787(3) 0.9110(3)
O2_2 O 0.4668(3) 0.8620(3) 0.9620(2)
O3_2 O 0.4852(4) 0.7632(5) 0.5947(2)
C1_2 C 0.4899(3) 0.8604(3) 0.8425(3)
C2_2 C 0.4971(3) 0.9045(4) 0.7807(3)
H1_2 H 0.504057 0.964469 0.781164
C3_2 C 0.4944(4) 0.8620(4) 0.7189(3)
H2_2 H 0.498486 0.892912 0.677034
C4_2 C 0.4857(4) 0.7748(4) 0.7172(3)
C5_2 C 0.4802(4) 0.7303(4) 0.7785(3)
H3_2 H 0.476389 0.670184 0.777686
C6_2 C 0.4801(4) 0.7724(3) 0.8406(3)
H4_2 H 0.473340 0.741361 0.882267
C7_2 C 0.4927(3) 0.9044(4) 0.9099(3)
C8_2 C 0.4854(4) 0.7257(6) 0.6498(3)
N2_2 N 0.3650(4) 0.3987(3) 0.4457(2)
H9_3 H 0.015928 0.462287 0.378954
C15_3 C 0.0557(4) 0.3968(4) 0.4595(3)
H10_3 H 0.030436 0.366540 0.497880
C16_3 C 0.3106(4) 0.4416(4) 0.4000(3)
H11_3 H 0.342966 0.471198 0.364037
C17_3 C 0.2100(5) 0.4450(4) 0.4023(3)
H12_3 H 0.175050 0.477292 0.369180
C18_3 C 0.1604(4) 0.4010(4) 0.4532(3)
C19_3 C 0.2158(5) 0.3552(4) 0.4997(3)
H13_2 H 0.185054 0.323748 0.535310
C20_3 C 0.3147(4) 0.3554(4) 0.4940(3)
H14_2 H 0.350783 0.322795 0.526285
O1_3 O 0.5210(3) 0.5213(3) 0.4110(3)
O3_3 O 0.4852(4) 0.7368(5) 0.0947(2)
O4_2 O 0.4818(3) 0.8542(4) 0.1551(2)
C1_3 C 0.4899(3) 0.6396(3) 0.3425(3)
C2_3 C 0.4971(3) 0.5955(4) 0.2807(3)
H1_3 H 0.504057 0.535531 0.281164
C3_3 C 0.4944(4) 0.6380(4) 0.2189(3)
H2_3 H 0.498486 0.607088 0.177034
C4_3 C 0.4857(4) 0.7252(4) 0.2172(3)
C5_3 C 0.4802(4) 0.7697(4) 0.2785(3)
H3_3 H 0.476389 0.829816 0.277686
C6_3 C 0.4801(4) 0.7276(3) 0.3406(3)
H4_3 H 0.473340 0.758639 0.382267
C7_3 C 0.4927(3) 0.5956(4) 0.4099(3)
C8_3 C 0.4854(4) 0.7743(6) 0.1498(3)
N1_3 N 0.6812(3) 0.4075(3) 0.4355(2)
C9_3 C 0.7229(4) 0.4494(4) 0.3833(3)
H5_3 H 0.682239 0.473873 0.349089
C10_3 C 0.8226(4) 0.4586(4) 0.3771(3)
H6_3 H 0.849342 0.488958 0.339347
C11_3 C 0.8828(4) 0.4234(4) 0.4261(3)
C12_3 C 0.8403(4) 0.3794(4) 0.4792(3)
H7_3 H 0.879551 0.353823 0.513725
C13_3 C 0.7393(4) 0.3726(4) 0.4822(3)
H8_3 H 0.710880 0.341815 0.519128
C14_3 C 0.9921(5) 0.4310(4) 0.4172(3)
O6_2 O 0.5182(3) 0.3542(4) 0.3449(2)
O1_4 O 0.4790(3) 0.0213(3) 0.0890(3)
O3_4 O 0.5148(4) 0.2368(5) 0.4053(2)
C1_4 C 0.5101(3) 0.1396(3) 0.1575(3)
C2_4 C 0.5029(3) 0.0955(4) 0.2193(3)
H1_4 H 0.495943 0.035531 0.218836
C3_4 C 0.5056(4) 0.1380(4) 0.2811(3)
H2_4 H 0.501514 0.107088 0.322966
C4_4 C 0.5143(4) 0.2252(4) 0.2828(3)
C5_4 C 0.5198(4) 0.2697(4) 0.2215(3)
H3_4 H 0.523611 0.329816 0.222314
C6_4 C 0.5199(4) 0.2276(3) 0.1594(3)
H4_4 H 0.526660 0.258639 0.117733
C7_4 C 0.5073(3) 0.0956(4) 0.0901(3)
C8_4 C 0.5146(4) 0.2743(6) 0.3502(3)
N1_4 N 0.3188(3) 0.9075(3) 0.0645(2)
C9_4 C 0.2771(4) 0.9494(4) 0.1167(3)
H5_4 H 0.317761 0.973873 0.150911
C10_4 C 0.1774(4) 0.9586(4) 0.1229(3)
H6_4 H 0.150658 0.988958 0.160653
C11_4 C 0.1172(4) 0.9234(4) 0.0739(3)
C12_4 C 0.1597(4) 0.8794(4) 0.0208(3)
C13_4 C 0.2607(4) 0.8726(4) 0.0178(3)
C14_4 C 0.0079(5) 0.9310(4) 0.0828(3)
N3_2 N 0.6350(4) 0.8987(3) 0.0543(2)
H7_4 H 0.120449 0.853823 0.986275
H8_4 H 0.289120 0.841815 0.980872
H9_4 H 0.984072 0.962287 0.121046
C15_4 C 0.9443(4) 0.8968(4) 0.0405(3)
H10_4 H 0.969564 0.866540 0.002120
C16_4 C 0.6894(4) 0.9416(4) 0.1000(3)
H11_4 H 0.657034 0.971198 0.135963
C17_4 C 0.7900(5) 0.9450(4) 0.0977(3)
H12_4 H 0.824950 0.977292 0.130820
C18_4 C 0.8396(4) 0.9010(4) 0.0468(3)
C19_4 C 0.7842(5) 0.8552(4) 0.0003(3)
C20_4 C 0.6853(4) 0.8554(4) 0.0060(3)
Zn2 Zn 0.02192(5) 0.39949(4) 0.05950(3)
O1_5 O 0.0210(3) 0.5213(3) 0.0890(3)
H1_5 H 0.004057 0.535531 0.218836
N1_5 N 0.1812(3) 0.4075(3) 0.0645(2)
N2_3 N 0.8650(4) 0.3987(3) 0.0543(2)
C9_5 C 0.2229(4) 0.4494(4) 0.1167(3)
H5_5 H 0.182239 0.473873 0.150911
C10_5 C 0.3226(4) 0.4586(4) 0.1229(3)
H6_5 H 0.349342 0.488958 0.160653
C11_5 C 0.3828(4) 0.4234(4) 0.0739(3)
C12_5 C 0.3403(4) 0.3794(4) 0.0208(3)
C13_5 C 0.2393(4) 0.3726(4) 0.0178(3)
C14_5 C 0.4921(5) 0.4310(4) 0.0828(3)
H9_5 H 0.515928 0.462287 0.121046
C15_5 C 0.5557(4) 0.3968(4) 0.0405(3)
H10_5 H 0.530436 0.366540 0.002120
C16_5 C 0.8106(4) 0.4416(4) 0.1000(3)
H11_5 H 0.842966 0.471198 0.135963
C17_5 C 0.7100(5) 0.4450(4) 0.0977(3)
H12_5 H 0.675050 0.477292 0.130820
C18_5 C 0.6604(4) 0.4010(4) 0.0468(3)
C19_5 C 0.7158(5) 0.3552(4) 0.0003(3)
C20_5 C 0.8147(4) 0.3554(4) 0.0060(3)
O6_3 O 0.0182(3) 0.3542(4) 0.1551(2)
H7_5 H 0.379551 0.353823 0.986275
H8_5 H 0.210880 0.341815 0.980872
H13_3 H 0.685054 0.323748 0.964690
H14_3 H 0.850783 0.322795 0.973715
O5_3 O 0.0332(3) 0.3620(3) 0.9620(2)
O2_3 O 0.9668(3) 0.6380(3) 0.0380(2)
O3_5 O 0.9852(4) 0.7368(5) 0.4053(2)
O4_3 O 0.9818(3) 0.8542(4) 0.3449(2)
C1_5 C 0.9899(3) 0.6396(3) 0.1575(3)
C2_5 C 0.9971(3) 0.5955(4) 0.2193(3)
C3_5 C 0.9944(4) 0.6380(4) 0.2811(3)
H2_5 H 0.998486 0.607088 0.322966
C4_5 C 0.9857(4) 0.7252(4) 0.2828(3)
C5_5 C 0.9802(4) 0.7697(4) 0.2215(3)
H3_5 H 0.976389 0.829816 0.222314
C6_5 C 0.9801(4) 0.7276(3) 0.1594(3)
H4_5 H 0.973340 0.758639 0.117733
C7_5 C 0.9927(3) 0.5956(4) 0.0901(3)
C8_5 C 0.9854(4) 0.7743(6) 0.3502(3)
Zn3_2 Zn 0.97808(5) 0.89949(4) 0.44050(3)
Zn4_3 Zn 0.97808(5) 0.60051(4) 0.94050(3)
O2_4 O 0.0332(3) 0.1380(3) 0.4620(2)
O3_6 O 0.0148(4) 0.2368(5) 0.0947(2)
C1_6 C 0.0101(3) 0.1396(3) 0.3425(3)
C2_6 C 0.0029(3) 0.0955(4) 0.2807(3)
C3_6 C 0.0056(4) 0.1380(4) 0.2189(3)
H2_6 H 0.001514 0.107088 0.177034
C4_6 C 0.0143(4) 0.2252(4) 0.2172(3)
C5_6 C 0.0198(4) 0.2697(4) 0.2785(3)
H3_6 H 0.023611 0.329816 0.277686
C6_6 C 0.0199(4) 0.2276(3) 0.3406(3)
H4_6 H 0.026660 0.258639 0.382267
C7_6 C 0.0073(3) 0.0956(4) 0.4099(3)
C8_6 C 0.0146(4) 0.2743(6) 0.1498(3)
Zn4_4 Zn 0.02192(5) 0.10051(4) 0.55950(3)
N3_3 N 0.1350(4) 0.8987(3) 0.4457(2)
N1_6 N 0.8188(3) 0.9075(3) 0.4355(2)
C9_6 C 0.7771(4) 0.9494(4) 0.3833(3)
H5_6 H 0.817761 0.973873 0.349089
C10_6 C 0.6774(4) 0.9586(4) 0.3771(3)
H6_6 H 0.650658 0.988958 0.339347
C11_6 C 0.6172(4) 0.9234(4) 0.4261(3)
C12_6 C 0.6597(4) 0.8794(4) 0.4792(3)
H7_6 H 0.620449 0.853823 0.513725
C13_6 C 0.7607(4) 0.8726(4) 0.4822(3)
H8_6 H 0.789120 0.841815 0.519128
C14_6 C 0.5079(5) 0.9310(4) 0.4172(3)
H9_6 H 0.484072 0.962287 0.378954
C15_6 C 0.4443(4) 0.8968(4) 0.4595(3)
H10_6 H 0.469564 0.866540 0.497880
C16_6 C 0.1894(4) 0.9416(4) 0.4000(3)
H11_6 H 0.157034 0.971198 0.364037
C17_6 C 0.2900(5) 0.9450(4) 0.4023(3)
H12_6 H 0.324950 0.977292 0.369180
C18_6 C 0.3396(4) 0.9010(4) 0.4532(3)
C19_6 C 0.2842(5) 0.8552(4) 0.4997(3)
H13_4 H 0.314946 0.823748 0.535310
C20_6 C 0.1853(4) 0.8554(4) 0.4940(3)
H14_4 H 0.149217 0.822795 0.526285
O5_4 O 0.9668(3) 0.8620(3) 0.5380(2)
O3_7 O 0.0148(4) 0.2632(5) 0.5947(2)
O4_4 O 0.0182(3) 0.1458(4) 0.6551(2)
C1_7 C 0.0101(3) 0.3604(3) 0.8425(3)
C2_7 C 0.0029(3) 0.4045(4) 0.7807(3)
C3_7 C 0.0056(4) 0.3620(4) 0.7189(3)
H2_7 H 0.001514 0.392912 0.677034
C4_7 C 0.0143(4) 0.2748(4) 0.7172(3)
C5_7 C 0.0198(4) 0.2303(4) 0.7785(3)
H3_7 H 0.023611 0.170184 0.777686
C6_7 C 0.0199(4) 0.2724(3) 0.8406(3)
H4_7 H 0.026660 0.241361 0.882267
C7_7 C 0.0073(3) 0.4044(4) 0.9099(3)
C8_7 C 0.0146(4) 0.2257(6) 0.6498(3)
N3_4 N 0.1350(4) 0.6013(3) 0.9457(2)
H7_7 H 0.620449 0.646177 0.013725
H8_7 H 0.789120 0.658185 0.019128
H13_5 H 0.314946 0.676252 0.035310
H14_5 H 0.149217 0.677205 0.026285
O1_6 O 0.9790(3) 0.4787(3) 0.9110(3)
H1_6 H 0.995943 0.464469 0.781164
N1_7 N 0.8188(3) 0.5925(3) 0.9355(2)
C9_7 C 0.7771(4) 0.5506(4) 0.8833(3)
H5_7 H 0.817761 0.526127 0.849089
C10_7 C 0.6774(4) 0.5414(4) 0.8771(3)
H6_7 H 0.650658 0.511042 0.839347
C11_7 C 0.6172(4) 0.5766(4) 0.9261(3)
C12_7 C 0.6597(4) 0.6206(4) 0.9792(3)
C13_7 C 0.7607(4) 0.6274(4) 0.9822(3)
C14_7 C 0.5079(5) 0.5690(4) 0.9172(3)
H9_7 H 0.484072 0.537713 0.878954
C15_7 C 0.4443(4) 0.6032(4) 0.9595(3)
H10_7 H 0.469564 0.633460 0.997880
C16_7 C 0.1894(4) 0.5584(4) 0.9000(3)
H11_7 H 0.157034 0.528802 0.864037
C17_7 C 0.2900(5) 0.5550(4) 0.9023(3)
H12_7 H 0.324950 0.522708 0.869180
C18_7 C 0.3396(4) 0.5990(4) 0.9532(3)
C19_7 C 0.2842(5) 0.6448(4) 0.9997(3)
C20_7 C 0.1853(4) 0.6446(4) 0.9940(3)
O6_4 O 0.9818(3) 0.6458(4) 0.8449(2)
N1_8 N 0.1812(3) 0.0925(3) 0.5645(2)
N2_4 N 0.8650(4) 0.1013(3) 0.5543(2)
C9_8 C 0.2229(4) 0.0506(4) 0.6167(3)
H5_8 H 0.182239 0.026127 0.650911
C10_8 C 0.3226(4) 0.0414(4) 0.6229(3)
H6_8 H 0.349342 0.011042 0.660653
C11_8 C 0.3828(4) 0.0766(4) 0.5739(3)
C12_8 C 0.3403(4) 0.1206(4) 0.5208(3)
H7_8 H 0.379551 0.146177 0.486275
C13_8 C 0.2393(4) 0.1274(4) 0.5178(3)
H8_8 H 0.210880 0.158185 0.480872
C14_8 C 0.4921(5) 0.0690(4) 0.5828(3)
H9_8 H 0.515928 0.037713 0.621046
C15_8 C 0.5557(4) 0.1032(4) 0.5405(3)
H10_8 H 0.530436 0.133460 0.502120
C16_8 C 0.8106(4) 0.0584(4) 0.6000(3)
H11_8 H 0.842966 0.028802 0.635963
C17_8 C 0.7100(5) 0.0550(4) 0.5977(3)
H12_8 H 0.675050 0.022708 0.630820
C18_8 C 0.6604(4) 0.0990(4) 0.5468(3)
C19_8 C 0.7158(5) 0.1448(4) 0.5003(3)
H13_6 H 0.685054 0.176252 0.464690
C20_8 C 0.8147(4) 0.1446(4) 0.5060(3)
H14_6 H 0.850783 0.177205 0.473715
O3_8 O 0.9852(4) 0.7632(5) 0.9053(2)
C1_8 C 0.9899(3) 0.8604(3) 0.6575(3)
C2_8 C 0.9971(3) 0.9045(4) 0.7193(3)
C3_8 C 0.9944(4) 0.8620(4) 0.7811(3)
H2_8 H 0.998486 0.892912 0.822966
C4_8 C 0.9857(4) 0.7748(4) 0.7828(3)
C5_8 C 0.9802(4) 0.7303(4) 0.7215(3)
H3_8 H 0.976389 0.670184 0.722314
C6_8 C 0.9801(4) 0.7724(3) 0.6594(3)
H4_8 H 0.973340 0.741361 0.617733
C7_8 C 0.9927(3) 0.9044(4) 0.5901(3)
C8_8 C 0.9854(4) 0.7257(6) 0.8502(3)
H13_7 H 0.185054 0.176252 0.035310
H14_7 H 0.350783 0.177205 0.026285
O1_7 O 0.9790(3) 0.0213(3) 0.4110(3)
H1_7 H 0.995943 0.035531 0.281164
H13_8 H 0.814946 0.823748 0.964690
H14_8 H 0.649217 0.822795 0.973715
O1_8 O 0.0210(3) 0.9787(3) 0.5890(3)
H1_8 H 0.004057 0.964469 0.718836
loop_
_geom_bond_atom_site_label_1
_geom_bond_atom_site_label_2
_geom_bond_site_symmetry_1
_geom_bond_site_symmetry_2
Zn1 O1 1_555 1_555
O1 C7 1_555 1_555
O2 C7 1_555 1_555
O3 C8 1_555 1_555
O4 C8 1_555 1_555
C1 C2 1_555 1_555
C2 H1 1_555 1_555
C3 C2 1_555 1_555
H2 C3 1_555 1_555
C4 C3 1_555 1_555
C5 C4 1_555 1_555
H3 C5 1_555 1_555
C6 C1 1_555 1_555
H4 C6 1_555 1_555
C7 C1 1_555 1_555
C8 C4 1_555 1_555
N1 Zn1 1_555 1_555
C9 N1 1_555 1_555
H5 C9 1_555 1_555
C10 C9 1_555 1_555
H6 C10 1_555 1_555
C11 C10 1_555 1_555
C12 C11 1_555 1_555
H7 C12 1_555 1_555
C13 N1 1_555 1_555
H8 C13 1_555 1_555
C14 C11 1_555 1_555
Zn3 O4 1_555 1_555
Zn4 O2 1_555 1_555
O5 Zn1 1_555 1_555
O6 Zn1 1_555 1_555
N3 Zn1 1_555 1_555
C5 C6 1_555 1_555
C12 C13 1_555 1_555
N3 C16 1_555 1_555
H10 C15 1_555 1_555
C16 H11 1_555 1_555
C17 C16 1_555 1_555
H12 C17 1_555 1_555
C18 C15 1_555 1_555
C19 C18 1_555 1_555
H13 C19 1_555 1_555
C20 N3 1_555 1_555
H14 C20 1_555 1_555
C17 C18 1_555 1_555
C19 C20 1_555 1_555
N2 C16_2 1_555 1_555
H10_2 C15_2 1_555 1_555
C16_2 H11_2 1_555 1_555
C17_2 C16_2 1_555 1_555
H12_2 C17_2 1_555 1_555
C18_2 C15_2 1_555 1_555
C19_2 C18_2 1_555 1_555
C20_2 N2 1_555 1_555
Zn3 N2 1_555 1_555
C17_2 C18_2 1_555 1_555
C19_2 C20_2 1_555 1_555
N1_2 Zn3 1_555 1_555
C9_2 N1_2 1_555 1_555
H5_2 C9_2 1_555 1_555
C10_2 C9_2 1_555 1_555
H6_2 C10_2 1_555 1_555
C11_2 C10_2 1_555 1_555
C12_2 C11_2 1_555 1_555
C13_2 N1_2 1_555 1_555
C14_2 C11_2 1_555 1_555
C12_2 C13_2 1_555 1_555
O1_2 C7_2 1_555 1_555
O2_2 C7_2 1_555 1_555
O3_2 C8_2 1_555 1_555
O6 C8_2 1_555 1_555
C1_2 C2_2 1_555 1_555
C2_2 H1_2 1_555 1_555
C3_2 C2_2 1_555 1_555
H2_2 C3_2 1_555 1_555
C4_2 C3_2 1_555 1_555
C5_2 C4_2 1_555 1_555
H3_2 C5_2 1_555 1_555
C6_2 C1_2 1_555 1_555
H4_2 C6_2 1_555 1_555
C7_2 C1_2 1_555 1_555
C8_2 C4_2 1_555 1_555
C5_2 C6_2 1_555 1_555
N2_2 C16_3 1_555 1_555
H10_3 C15_3 1_555 1_555
C16_3 H11_3 1_555 1_555
C17_3 C16_3 1_555 1_555
H12_3 C17_3 1_555 1_555
C18_3 C15_3 1_555 1_555
C19_3 C18_3 1_555 1_555
H13_2 C19_3 1_555 1_555
C20_3 N2_2 1_555 1_555
H14_2 C20_3 1_555 1_555
Zn4 N2_2 1_555 1_555
C17_3 C18_3 1_555 1_555
C19_3 C20_3 1_555 1_555
Zn4 O1_3 1_555 1_555
O1_3 C7_3 1_555 1_555
O5 C7_3 1_555 1_555
O3_3 C8_3 1_555 1_555
O4_2 C8_3 1_555 1_555
C1_3 C2_3 1_555 1_555
C2_3 H1_3 1_555 1_555
C3_3 C2_3 1_555 1_555
H2_3 C3_3 1_555 1_555
C4_3 C3_3 1_555 1_555
C5_3 C4_3 1_555 1_555
H3_3 C5_3 1_555 1_555
C6_3 C1_3 1_555 1_555
H4_3 C6_3 1_555 1_555
C7_3 C1_3 1_555 1_555
C8_3 C4_3 1_555 1_555
N1_3 Zn4 1_555 1_555
C9_3 N1_3 1_555 1_555
H5_3 C9_3 1_555 1_555
C10_3 C9_3 1_555 1_555
H6_3 C10_3 1_555 1_555
C11_3 C10_3 1_555 1_555
C12_3 C11_3 1_555 1_555
H7_3 C12_3 1_555 1_555
C13_3 N1_3 1_555 1_555
H8_3 C13_3 1_555 1_555
C14_3 C11_3 1_555 1_555
Zn4_2 O4_2 1_555 1_555
O6_2 Zn4 1_555 1_555
C5_3 C6_3 1_555 1_555
C12_3 C13_3 1_555 1_555
O1_4 C7_4 1_555 1_555
O5_2 C7_4 1_555 1_555
O3_4 C8_4 1_555 1_555
O6_2 C8_4 1_555 1_555
C1_4 C2_4 1_555 1_555
C2_4 H1_4 1_555 1_555
C3_4 C2_4 1_555 1_555
H2_4 C3_4 1_555 1_555
C4_4 C3_4 1_555 1_555
C5_4 C4_4 1_555 1_555
H3_4 C5_4 1_555 1_555
C6_4 C1_4 1_555 1_555
H4_4 C6_4 1_555 1_555
C7_4 C1_4 1_555 1_555
C8_4 C4_4 1_555 1_555
C5_4 C6_4 1_555 1_555
N1_4 Zn4_2 1_555 1_555
C9_4 N1_4 1_555 1_555
H5_4 C9_4 1_555 1_555
C10_4 C9_4 1_555 1_555
H6_4 C10_4 1_555 1_555
C11_4 C10_4 1_555 1_555
C12_4 C11_4 1_555 1_555
C13_4 N1_4 1_555 1_555
C14_4 C11_4 1_555 1_555
N3_2 Zn4_2 1_555 1_555
C12_4 C13_4 1_555 1_555
N3_2 C16_4 1_555 1_555
H10_4 C15_4 1_555 1_555
C16_4 H11_4 1_555 1_555
C17_4 C16_4 1_555 1_555
H12_4 C17_4 1_555 1_555
C18_4 C15_4 1_555 1_555
C19_4 C18_4 1_555 1_555
C20_4 N3_2 1_555 1_555
C17_4 C18_4 1_555 1_555
C19_4 C20_4 1_555 1_555
Zn2 O1_5 1_555 1_555
N1_5 Zn2 1_555 1_555
N2_3 C16_5 1_555 1_555
C9_5 N1_5 1_555 1_555
H5_5 C9_5 1_555 1_555
C10_5 C9_5 1_555 1_555
H6_5 C10_5 1_555 1_555
C11_5 C10_5 1_555 1_555
C12_5 C11_5 1_555 1_555
C13_5 N1_5 1_555 1_555
C14_5 C11_5 1_555 1_555
H9_5 C14_5 1_555 1_555
C15_5 C14_5 1_555 1_555
H10_5 C15_5 1_555 1_555
C16_5 H11_5 1_555 1_555
C17_5 C16_5 1_555 1_555
H12_5 C17_5 1_555 1_555
C18_5 C15_5 1_555 1_555
C19_5 C18_5 1_555 1_555
C20_5 N2_3 1_555 1_555
O6_3 Zn2 1_555 1_555
C12_5 C13_5 1_555 1_555
C17_5 C18_5 1_555 1_555
C19_5 C20_5 1_555 1_555
O2_3 C7_5 1_555 1_555
O3_5 C8_5 1_555 1_555
O4_3 C8_5 1_555 1_555
C1_5 C2_5 1_555 1_555
C3_5 C2_5 1_555 1_555
H2_5 C3_5 1_555 1_555
C4_5 C3_5 1_555 1_555
C5_5 C4_5 1_555 1_555
H3_5 C5_5 1_555 1_555
C6_5 C1_5 1_555 1_555
H4_5 C6_5 1_555 1_555
C7_5 C1_5 1_555 1_555
C8_5 C4_5 1_555 1_555
Zn3_2 O4_3 1_555 1_555
C5_5 C6_5 1_555 1_555
O2_4 C7_6 1_555 1_555
O3_6 C8_6 1_555 1_555
O6_3 C8_6 1_555 1_555
C1_6 C2_6 1_555 1_555
C3_6 C2_6 1_555 1_555
H2_6 C3_6 1_555 1_555
C4_6 C3_6 1_555 1_555
C5_6 C4_6 1_555 1_555
H3_6 C5_6 1_555 1_555
C6_6 C1_6 1_555 1_555
H4_6 C6_6 1_555 1_555
C7_6 C1_6 1_555 1_555
C8_6 C4_6 1_555 1_555
Zn4_4 O2_4 1_555 1_555
C5_6 C6_6 1_555 1_555
N1_6 Zn3_2 1_555 1_555
N3_3 C16_6 1_555 1_555
C9_6 N1_6 1_555 1_555
H5_6 C9_6 1_555 1_555
C10_6 C9_6 1_555 1_555
H6_6 C10_6 1_555 1_555
C11_6 C10_6 1_555 1_555
C12_6 C11_6 1_555 1_555
H7_6 C12_6 1_555 1_555
C13_6 N1_6 1_555 1_555
H8_6 C13_6 1_555 1_555
C14_6 C11_6 1_555 1_555
H9_6 C14_6 1_555 1_555
C15_6 C14_6 1_555 1_555
H10_6 C15_6 1_555 1_555
C16_6 H11_6 1_555 1_555
C17_6 C16_6 1_555 1_555
H12_6 C17_6 1_555 1_555
C18_6 C15_6 1_555 1_555
C19_6 C18_6 1_555 1_555
H13_4 C19_6 1_555 1_555
C20_6 N3_3 1_555 1_555
H14_4 C20_6 1_555 1_555
O5_4 Zn3_2 1_555 1_555
C12_6 C13_6 1_555 1_555
C17_6 C18_6 1_555 1_555
C19_6 C20_6 1_555 1_555
O5_3 C7_7 1_555 1_555
O3_7 C8_7 1_555 1_555
O4_4 C8_7 1_555 1_555
C1_7 C2_7 1_555 1_555
C3_7 C2_7 1_555 1_555
H2_7 C3_7 1_555 1_555
C4_7 C3_7 1_555 1_555
C5_7 C4_7 1_555 1_555
H3_7 C5_7 1_555 1_555
C6_7 C1_7 1_555 1_555
H4_7 C6_7 1_555 1_555
C7_7 C1_7 1_555 1_555
C8_7 C4_7 1_555 1_555
Zn4_4 O4_4 1_555 1_555
C5_7 C6_7 1_555 1_555
Zn4_3 O1_6 1_555 1_555
N1_7 Zn4_3 1_555 1_555
N3_4 C16_7 1_555 1_555
C9_7 N1_7 1_555 1_555
H5_7 C9_7 1_555 1_555
C10_7 C9_7 1_555 1_555
H6_7 C10_7 1_555 1_555
C11_7 C10_7 1_555 1_555
C12_7 C11_7 1_555 1_555
C13_7 N1_7 1_555 1_555
C14_7 C11_7 1_555 1_555
H9_7 C14_7 1_555 1_555
C15_7 C14_7 1_555 1_555
H10_7 C15_7 1_555 1_555
C16_7 H11_7 1_555 1_555
C17_7 C16_7 1_555 1_555
H12_7 C17_7 1_555 1_555
C18_7 C15_7 1_555 1_555
C19_7 C18_7 1_555 1_555
C20_7 N3_4 1_555 1_555
O6_4 Zn4_3 1_555 1_555
C12_7 C13_7 1_555 1_555
C17_7 C18_7 1_555 1_555
C19_7 C20_7 1_555 1_555
N1_8 Zn4_4 1_555 1_555
N2_4 C16_8 1_555 1_555
C9_8 N1_8 1_555 1_555
H5_8 C9_8 1_555 1_555
C10_8 C9_8 1_555 1_555
H6_8 C10_8 1_555 1_555
C11_8 C10_8 1_555 1_555
C12_8 C11_8 1_555 1_555
H7_8 C12_8 1_555 1_555
C13_8 N1_8 1_555 1_555
H8_8 C13_8 1_555 1_555
C14_8 C11_8 1_555 1_555
H9_8 C14_8 1_555 1_555
C15_8 C14_8 1_555 1_555
H10_8 C15_8 1_555 1_555
C16_8 H11_8 1_555 1_555
C17_8 C16_8 1_555 1_555
H12_8 C17_8 1_555 1_555
C18_8 C15_8 1_555 1_555
C19_8 C18_8 1_555 1_555
H13_6 C19_8 1_555 1_555
C20_8 N2_4 1_555 1_555
H14_6 C20_8 1_555 1_555
C12_8 C13_8 1_555 1_555
C17_8 C18_8 1_555 1_555
C19_8 C20_8 1_555 1_555
O5_4 C7_8 1_555 1_555
O3_8 C8_8 1_555 1_555
O6_4 C8_8 1_555 1_555
C1_8 C2_8 1_555 1_555
C3_8 C2_8 1_555 1_555
H2_8 C3_8 1_555 1_555
C4_8 C3_8 1_555 1_555
C5_8 C4_8 1_555 1_555
H3_8 C5_8 1_555 1_555
C6_8 C1_8 1_555 1_555
H4_8 C6_8 1_555 1_555
C7_8 C1_8 1_555 1_555
C8_8 C4_8 1_555 1_555
C5_8 C6_8 1_555 1_555

#END
