
###############################################################################
#
# This file contains modified crystal structure data generated from the
# MOF subset of the Cambridge Structural Database (CSD) v543 
# hosted by the Cambridge Crystallographic Data Centre (CCDC).
#
# This work is licensed under the Creative Commons
# Attribution-NonCommercial-ShareAlike 4.0 International License.
# To view a copy of this license, visit
# http://creativecommons.org/licenses/by-nc-sa/4.0/
# or send a letter to
# Creative Commons, PO Box 1866, Mountain View, CA 94042, USA.
#
# CIF created using the CSD Python API on 29 September 2022
# The structure has been converted into the P1 space group
# The structure has a 3D framework
# The original CSD entry SUJQUK is in the orthorhombic crystal system
# The framework has been calculated to contain at least 10.0% void space
# The void calculation uses a probe of radius 1.32A, grid spacing 0.4
#
###############################################################################

data_SUJQUK
_chemical_formula_moiety         '(C160 H112 N16 O32 Zn6)n'
_symmetry_cell_setting           triclinic
_symmetry_space_group_name_H-M   'P 1'
_symmetry_Int_Tables_number      1
_space_group_name_Hall           'P 1'
loop_
_symmetry_equiv_pos_site_id
_symmetry_equiv_pos_as_xyz
1 x,y,z
_cell_length_a                   13.7982(7)
_cell_length_b                   16.2380(8)
_cell_length_c                   19.0994(10)
_cell_angle_alpha                90
_cell_angle_beta                 90
_cell_angle_gamma                90
_cell_volume                     4279.32
loop_
_atom_site_label
_atom_site_type_symbol
_atom_site_fract_x
_atom_site_fract_y
_atom_site_fract_z
N2 N 0.3139(2) 0.41162(16) 0.56539(13)
C7 C 0.0046(2) 0.4296(2) 0.5827(2)
C8 C 0.2553(2) 0.3743(2) 0.51928(17)
H7 H 0.2838 0.3439 0.4828
C9 C 0.1552(2) 0.3782(2) 0.52229(18)
H8 H 0.1175 0.3510 0.4885
C10 C 0.1108(2) 0.42253(19) 0.57541(17)
C11 C 0.1720(2) 0.4603(2) 0.62379(19)
H9 H 0.1456 0.4906 0.6611
C12 C 0.2708(2) 0.4534(2) 0.61716(18)
H10 H 0.3102 0.4793 0.6507
Zn4 Zn 0.47275(2) 0.40422(2) 0.560193(16)
O1 O 0.47526(16) 0.52090(14) 0.59417(13)
O2 O 0.53928(16) 0.62948(15) 0.53941(11)
O3 O 0.52378(18) 0.85263(19) 0.84555(14)
O4 O 0.5190(3) 0.7405(2) 0.90921(14)
N1 N 0.63140(19) 0.40119(16) 0.55408(13)
C1 C 0.6788(2) 0.3563(2) 0.50638(17)
H1 H 0.6423 0.3248 0.4746
C2 C 0.7782(2) 0.3537(2) 0.50132(17)
H2 H 0.8077 0.3211 0.4667
C3 C 0.8346(2) 0.3989(2) 0.54710(17)
C4 C 0.7857(2) 0.4453(2) 0.59759(18)
H3 H 0.8207 0.4771 0.6301
C5 C 0.6864(2) 0.4442(2) 0.59944(17)
H4 H 0.6549 0.4751 0.6343
C6 C 0.9404(2) 0.3947(2) 0.54048(19)
H5 H 0.9651 0.3643 0.5026
H6 H 0.9807 0.4612 0.6201
C13 C 0.5087(2) 0.59185(19) 0.59260(16)
C14 C 0.51203(19) 0.63817(18) 0.66058(14)
C15 C 0.5215(2) 0.72301(19) 0.65938(16)
H11 H 0.5268 0.7507 0.6163
C16 C 0.5234(2) 0.7674(2) 0.72175(17)
H12 H 0.5288 0.8251 0.7207
C17 C 0.5172(2) 0.7268(2) 0.78518(16)
C18 C 0.5080(2) 0.6419(2) 0.78592(16)
H13 H 0.5042 0.6140 0.8289
C19 C 0.5044(2) 0.5979(2) 0.72413(17)
H14 H 0.4967 0.5404 0.7253
C20 C 0.5200(2) 0.7752(3) 0.85286(19)
Zn2 Zn 0.52725(2) 0.59578(2) 0.439807(16)
Zn3 Zn 0.52725(2) 0.90422(2) 0.939807(16)
O5 O 0.46072(16) 0.37052(15) 0.46059(11)
O6 O 0.47622(18) 0.35263(19) 0.65445(14)
Zn2_2 Zn 0.47275(2) 0.09578(2) 0.060193(16)
O1_2 O 0.52474(16) 0.02090(14) 0.90583(13)
O2_2 O 0.46072(16) 0.12948(15) 0.96059(11)
O4_2 O 0.4810(3) 0.2405(2) 0.59079(14)
C13_2 C 0.4913(2) 0.09185(19) 0.90740(16)
C14_2 C 0.48797(19) 0.13817(18) 0.83942(14)
C15_2 C 0.4785(2) 0.22301(19) 0.84062(16)
H11_2 H 0.4732 0.2507 0.8837
C16_2 C 0.4766(2) 0.2674(2) 0.77825(17)
H12_2 H 0.4712 0.3251 0.7793
C17_2 C 0.4828(2) 0.2268(2) 0.71482(16)
C18_2 C 0.4920(2) 0.1419(2) 0.71408(16)
H13_2 H 0.4958 0.1140 0.6711
C19_2 C 0.4956(2) 0.0979(2) 0.77587(17)
H14_2 H 0.5033 0.0404 0.7747
C20_2 C 0.4800(2) 0.2752(3) 0.64714(19)
H1_2 H 0.3577 0.8248 0.0254
H2_2 H 0.1923 0.8211 0.0333
O5_2 O 0.53928(16) 0.87052(15) 0.03941(11)
N1_2 N 0.36860(19) 0.90119(16) 0.94592(13)
C1_2 C 0.3212(2) 0.8563(2) 0.99362(17)
C2_2 C 0.2218(2) 0.8537(2) 0.99868(17)
C3_2 C 0.1654(2) 0.8989(2) 0.95290(17)
C4_2 C 0.2143(2) 0.9453(2) 0.90241(18)
H3_2 H 0.1793 0.9771 0.8699
C5_2 C 0.3136(2) 0.9442(2) 0.90056(17)
H4_2 H 0.3451 0.9751 0.8657
C6_2 C 0.0596(2) 0.8947(2) 0.95952(19)
H5_2 H 0.0349 0.8643 0.9974
H6_2 H 0.0193 0.9612 0.8799
N3 N 0.6861(2) 0.91162(16) 0.93461(13)
C7_2 C 0.9954(2) 0.9296(2) 0.9173(2)
C8_2 C 0.7447(2) 0.8743(2) 0.98072(17)
C9_2 C 0.8448(2) 0.8782(2) 0.97771(18)
C10_2 C 0.8892(2) 0.92253(19) 0.92459(17)
C11_2 C 0.8280(2) 0.9603(2) 0.87621(19)
H9_2 H 0.8544 0.9906 0.8389
C12_2 C 0.7292(2) 0.9534(2) 0.88284(18)
H10_2 H 0.6898 0.9793 0.8493
O1_3 O 0.52474(16) 0.47910(14) 0.40583(13)
O3_2 O 0.47622(18) 0.14737(19) 0.15445(14)
O4_3 O 0.4810(3) 0.2595(2) 0.09079(14)
N1_3 N 0.36860(19) 0.59881(16) 0.44592(13)
C1_3 C 0.3212(2) 0.6437(2) 0.49362(17)
H1_3 H 0.3577 0.6752 0.5254
C2_3 C 0.2218(2) 0.6463(2) 0.49868(17)
H2_3 H 0.1923 0.6789 0.5333
C3_3 C 0.1654(2) 0.6011(2) 0.45290(17)
C4_3 C 0.2143(2) 0.5547(2) 0.40241(18)
H3_3 H 0.1793 0.5229 0.3699
C5_3 C 0.3136(2) 0.5558(2) 0.40056(17)
H4_3 H 0.3451 0.5249 0.3657
C6_3 C 0.0596(2) 0.6053(2) 0.45952(19)
H5_3 H 0.0349 0.6357 0.4974
H6_3 H 0.0193 0.5388 0.3799
C13_3 C 0.4913(2) 0.40815(19) 0.40740(16)
C14_3 C 0.48797(19) 0.36183(18) 0.33942(14)
C15_3 C 0.4785(2) 0.27699(19) 0.34062(16)
H11_3 H 0.4732 0.2493 0.3837
C16_3 C 0.4766(2) 0.2326(2) 0.27825(17)
H12_3 H 0.4712 0.1749 0.2793
C17_3 C 0.4828(2) 0.2732(2) 0.21482(16)
C18_3 C 0.4920(2) 0.3581(2) 0.21408(16)
H13_3 H 0.4958 0.3860 0.1711
C19_3 C 0.4956(2) 0.4021(2) 0.27587(17)
H14_3 H 0.5033 0.4596 0.2747
C20_3 C 0.4800(2) 0.2248(3) 0.14714(19)
O6_2 O 0.52378(18) 0.64737(19) 0.34555(14)
N3_2 N 0.6861(2) 0.58838(16) 0.43461(13)
C7_3 C 0.9954(2) 0.5704(2) 0.4173(2)
C8_3 C 0.7447(2) 0.6257(2) 0.48072(17)
H7_2 H 0.7162 0.6561 0.5172
C9_3 C 0.8448(2) 0.6218(2) 0.47771(18)
H8_2 H 0.8825 0.6490 0.5115
C10_3 C 0.8892(2) 0.57747(19) 0.42459(17)
C11_3 C 0.8280(2) 0.5397(2) 0.37621(19)
H9_3 H 0.8544 0.5094 0.3389
C12_3 C 0.7292(2) 0.5466(2) 0.38284(18)
H10_3 H 0.6898 0.5207 0.3493
N2_2 N 0.3139(2) 0.08838(16) 0.06539(13)
C7_4 C 0.0046(2) 0.0704(2) 0.0827(2)
C8_4 C 0.2553(2) 0.1257(2) 0.01928(17)
C9_4 C 0.1552(2) 0.1218(2) 0.02229(18)
C10_4 C 0.1108(2) 0.07747(19) 0.07541(17)
C11_4 C 0.1720(2) 0.0397(2) 0.12379(19)
H9_4 H 0.1456 0.0094 0.1611
C12_4 C 0.2708(2) 0.0466(2) 0.11716(18)
H10_4 H 0.3102 0.0207 0.1507
N1_4 N 0.63140(19) 0.09881(16) 0.05408(13)
C1_4 C 0.6788(2) 0.1437(2) 0.00638(17)
C2_4 C 0.7782(2) 0.1463(2) 0.00132(17)
C3_4 C 0.8346(2) 0.1011(2) 0.04710(17)
C4_4 C 0.7857(2) 0.0547(2) 0.09759(18)
H3_4 H 0.8207 0.0229 0.1301
C5_4 C 0.6864(2) 0.0558(2) 0.09944(17)
H4_4 H 0.6549 0.0249 0.1343
C6_4 C 0.9404(2) 0.1053(2) 0.04048(19)
H5_4 H 0.9651 0.1357 0.0026
H6_4 H 0.9807 0.0388 0.1201
H1_4 H 0.6423 0.1752 0.9746
H2_4 H 0.8077 0.1789 0.9667
O1_4 O 0.47526(16) 0.97910(14) 0.09417(13)
O4_4 O 0.5190(3) 0.7595(2) 0.40921(14)
C13_4 C 0.5087(2) 0.90815(19) 0.09260(16)
C14_4 C 0.51203(19) 0.86183(18) 0.16058(14)
C15_4 C 0.5215(2) 0.77699(19) 0.15938(16)
H11_4 H 0.5268 0.7493 0.1163
C16_4 C 0.5234(2) 0.7326(2) 0.22175(17)
H12_4 H 0.5288 0.6749 0.2207
C17_4 C 0.5172(2) 0.7732(2) 0.28518(16)
C18_4 C 0.5080(2) 0.8581(2) 0.28592(16)
H13_4 H 0.5042 0.8860 0.3289
C19_4 C 0.5044(2) 0.9021(2) 0.22413(17)
H14_4 H 0.4967 0.9596 0.2253
C20_4 C 0.5200(2) 0.7248(3) 0.35286(19)
Zn1 Zn 0.02725(2) 0.59578(2) 0.060193(16)
O1_5 O 0.02474(16) 0.47910(14) 0.09417(13)
H14_5 H 0.0033 0.4596 0.2253
O6_3 O 0.02378(18) 0.64737(19) 0.15445(14)
N3_3 N 0.1861(2) 0.58838(16) 0.06539(13)
O5_3 O 0.03928(16) 0.62948(15) 0.96059(11)
O2_3 O 0.96072(16) 0.37052(15) 0.03941(11)
O3_3 O 0.97622(18) 0.14737(19) 0.34555(14)
O4_5 O 0.9810(3) 0.2595(2) 0.40921(14)
N1_5 N 0.86860(19) 0.59881(16) 0.05408(13)
C1_5 C 0.8212(2) 0.6437(2) 0.00638(17)
C2_5 C 0.7218(2) 0.6463(2) 0.00132(17)
C3_5 C 0.6654(2) 0.6011(2) 0.04710(17)
C4_5 C 0.7143(2) 0.5547(2) 0.09759(18)
H3_5 H 0.6793 0.5229 0.1301
C5_5 C 0.8136(2) 0.5558(2) 0.09944(17)
H4_5 H 0.8451 0.5249 0.1343
C6_5 C 0.5596(2) 0.6053(2) 0.04048(19)
H5_5 H 0.5349 0.6357 0.0026
C7_5 C 0.4954(2) 0.5704(2) 0.0827(2)
H6_5 H 0.5193 0.5388 0.1201
C8_5 C 0.2447(2) 0.6257(2) 0.01928(17)
C9_5 C 0.3448(2) 0.6218(2) 0.02229(18)
C10_5 C 0.3892(2) 0.57747(19) 0.07541(17)
C11_5 C 0.3280(2) 0.5397(2) 0.12379(19)
H9_5 H 0.3544 0.5094 0.1611
C12_5 C 0.2292(2) 0.5466(2) 0.11716(18)
H10_5 H 0.1898 0.5207 0.1507
C13_5 C 0.9913(2) 0.40815(19) 0.09260(16)
C14_5 C 0.98797(19) 0.36183(18) 0.16058(14)
C15_5 C 0.9785(2) 0.27699(19) 0.15938(16)
H11_5 H 0.9732 0.2493 0.1163
C16_5 C 0.9766(2) 0.2326(2) 0.22175(17)
H12_5 H 0.9712 0.1749 0.2207
C17_5 C 0.9828(2) 0.2732(2) 0.28518(16)
C18_5 C 0.9920(2) 0.3581(2) 0.28592(16)
H13_5 H 0.9958 0.3860 0.3289
C19_5 C 0.9956(2) 0.4021(2) 0.22413(17)
C20_5 C 0.9800(2) 0.2248(3) 0.35286(19)
Zn3_2 Zn 0.97275(2) 0.09578(2) 0.439807(16)
H1_5 H 0.8577 0.6752 0.9746
H2_5 H 0.6923 0.6789 0.9667
H7_3 H 0.2162 0.6561 0.9828
H8_3 H 0.3825 0.6490 0.9885
Zn2_3 Zn 0.97275(2) 0.40422(2) 0.939807(16)
N1_6 N 0.13140(19) 0.09881(16) 0.44592(13)
N2_3 N 0.8139(2) 0.08838(16) 0.43461(13)
C1_6 C 0.1788(2) 0.1437(2) 0.49362(17)
H1_6 H 0.1423 0.1752 0.5254
C2_6 C 0.2782(2) 0.1463(2) 0.49868(17)
H2_6 H 0.3077 0.1789 0.5333
C3_6 C 0.3346(2) 0.1011(2) 0.45290(17)
C4_6 C 0.2857(2) 0.0547(2) 0.40241(18)
H3_6 H 0.3207 0.0229 0.3699
C5_6 C 0.1864(2) 0.0558(2) 0.40056(17)
H4_6 H 0.1549 0.0249 0.3657
C6_6 C 0.4404(2) 0.1053(2) 0.45952(19)
H5_6 H 0.4651 0.1357 0.4974
C7_6 C 0.5046(2) 0.0704(2) 0.4173(2)
H6_6 H 0.4807 0.0388 0.3799
C8_6 C 0.7553(2) 0.1257(2) 0.48072(17)
H7_4 H 0.7838 0.1561 0.5172
C9_6 C 0.6552(2) 0.1218(2) 0.47771(18)
H8_4 H 0.6175 0.1490 0.5115
C10_6 C 0.6108(2) 0.07747(19) 0.42459(17)
C11_6 C 0.6720(2) 0.0397(2) 0.37621(19)
H9_6 H 0.6456 0.0094 0.3389
C12_6 C 0.7708(2) 0.0466(2) 0.38284(18)
H10_6 H 0.8102 0.0207 0.3493
O2_4 O 0.03928(16) 0.87052(15) 0.46059(11)
O4_6 O 0.0190(3) 0.7595(2) 0.09079(14)
C13_6 C 0.0087(2) 0.90815(19) 0.40740(16)
C14_6 C 0.01203(19) 0.86183(18) 0.33942(14)
C15_6 C 0.0215(2) 0.77699(19) 0.34062(16)
H11_6 H 0.0268 0.7493 0.3837
C16_6 C 0.0234(2) 0.7326(2) 0.27825(17)
H12_6 H 0.0288 0.6749 0.2793
C17_6 C 0.0172(2) 0.7732(2) 0.21482(16)
C18_6 C 0.0080(2) 0.8581(2) 0.21408(16)
H13_6 H 0.0042 0.8860 0.1711
C19_6 C 0.0044(2) 0.9021(2) 0.27587(17)
C20_6 C 0.0200(2) 0.7248(3) 0.14714(19)
Zn2_4 Zn 0.02725(2) 0.90422(2) 0.560193(16)
O5_4 O 0.96072(16) 0.12948(15) 0.53941(11)
H1_7 H 0.1423 0.3248 0.0254
H2_7 H 0.3077 0.3211 0.0333
H7_5 H 0.7838 0.3439 0.0172
H8_5 H 0.6175 0.3510 0.0115
O3_4 O 0.02378(18) 0.85263(19) 0.65445(14)
O4_7 O 0.0190(3) 0.7405(2) 0.59079(14)
N1_7 N 0.13140(19) 0.40119(16) 0.94592(13)
N2_4 N 0.8139(2) 0.41162(16) 0.93461(13)
C1_7 C 0.1788(2) 0.3563(2) 0.99362(17)
C2_7 C 0.2782(2) 0.3537(2) 0.99868(17)
C3_7 C 0.3346(2) 0.3989(2) 0.95290(17)
C4_7 C 0.2857(2) 0.4453(2) 0.90241(18)
H3_7 H 0.3207 0.4771 0.8699
C5_7 C 0.1864(2) 0.4442(2) 0.90056(17)
H4_7 H 0.1549 0.4751 0.8657
C6_7 C 0.4404(2) 0.3947(2) 0.95952(19)
H5_7 H 0.4651 0.3643 0.9974
C7_7 C 0.5046(2) 0.4296(2) 0.9173(2)
H6_7 H 0.4807 0.4612 0.8799
C8_7 C 0.7553(2) 0.3743(2) 0.98072(17)
C9_7 C 0.6552(2) 0.3782(2) 0.97771(18)
C10_7 C 0.6108(2) 0.42253(19) 0.92459(17)
C11_7 C 0.6720(2) 0.4603(2) 0.87621(19)
H9_7 H 0.6456 0.4906 0.8389
C12_7 C 0.7708(2) 0.4534(2) 0.88284(18)
H10_7 H 0.8102 0.4793 0.8493
C13_7 C 0.0087(2) 0.59185(19) 0.90740(16)
C14_7 C 0.01203(19) 0.63817(18) 0.83942(14)
C15_7 C 0.0215(2) 0.72301(19) 0.84062(16)
H11_7 H 0.0268 0.7507 0.8837
C16_7 C 0.0234(2) 0.7674(2) 0.77825(17)
H12_7 H 0.0288 0.8251 0.7793
C17_7 C 0.0172(2) 0.7268(2) 0.71482(16)
C18_7 C 0.0080(2) 0.6419(2) 0.71408(16)
H13_7 H 0.0042 0.6140 0.6711
C19_7 C 0.0044(2) 0.5979(2) 0.77587(17)
C20_7 C 0.0200(2) 0.7752(3) 0.64714(19)
O1_6 O 0.97526(16) 0.52090(14) 0.90583(13)
H14_6 H 0.9967 0.5404 0.7747
O6_4 O 0.97622(18) 0.35263(19) 0.84555(14)
N3_4 N 0.1861(2) 0.91162(16) 0.56539(13)
O4_8 O 0.9810(3) 0.2405(2) 0.90921(14)
C13_8 C 0.9913(2) 0.09185(19) 0.59260(16)
C14_8 C 0.98797(19) 0.13817(18) 0.66058(14)
C15_8 C 0.9785(2) 0.22301(19) 0.65938(16)
H11_8 H 0.9732 0.2507 0.6163
C16_8 C 0.9766(2) 0.2674(2) 0.72175(17)
H12_8 H 0.9712 0.3251 0.7207
C17_8 C 0.9828(2) 0.2268(2) 0.78518(16)
C18_8 C 0.9920(2) 0.1419(2) 0.78592(16)
H13_8 H 0.9958 0.1140 0.8289
C19_8 C 0.9956(2) 0.0979(2) 0.72413(17)
C20_8 C 0.9800(2) 0.2752(3) 0.85286(19)
N1_8 N 0.86860(19) 0.90119(16) 0.55408(13)
C1_8 C 0.8212(2) 0.8563(2) 0.50638(17)
H1_8 H 0.8577 0.8248 0.4746
C2_8 C 0.7218(2) 0.8537(2) 0.50132(17)
H2_8 H 0.6923 0.8211 0.4667
C3_8 C 0.6654(2) 0.8989(2) 0.54710(17)
C4_8 C 0.7143(2) 0.9453(2) 0.59759(18)
H3_8 H 0.6793 0.9771 0.6301
C5_8 C 0.8136(2) 0.9442(2) 0.59944(17)
H4_8 H 0.8451 0.9751 0.6343
C6_8 C 0.5596(2) 0.8947(2) 0.54048(19)
H5_8 H 0.5349 0.8643 0.5026
C7_8 C 0.4954(2) 0.9296(2) 0.5827(2)
H6_8 H 0.5193 0.9612 0.6201
C8_8 C 0.2447(2) 0.8743(2) 0.51928(17)
H7_6 H 0.2162 0.8439 0.4828
C9_8 C 0.3448(2) 0.8782(2) 0.52229(18)
H8_6 H 0.3825 0.8510 0.4885
C10_8 C 0.3892(2) 0.92253(19) 0.57541(17)
C11_8 C 0.3280(2) 0.9603(2) 0.62379(19)
H9_8 H 0.3544 0.9906 0.6611
C12_8 C 0.2292(2) 0.9534(2) 0.61716(18)
H10_8 H 0.1898 0.9793 0.6507
H7_7 H 0.7162 0.8439 0.0172
H8_7 H 0.8825 0.8510 0.0115
O1_7 O 0.97526(16) 0.97910(14) 0.40583(13)
H14_7 H 0.9967 0.9596 0.2747
H7_8 H 0.2838 0.1561 0.9828
H8_8 H 0.1175 0.1490 0.9885
O1_8 O 0.02474(16) 0.02090(14) 0.59417(13)
H14_8 H 0.0033 0.0404 0.7253
loop_
_geom_bond_atom_site_label_1
_geom_bond_atom_site_label_2
_geom_bond_site_symmetry_1
_geom_bond_site_symmetry_2
N2 C8 1_555 1_555
C8 H7 1_555 1_555
C9 C8 1_555 1_555
H8 C9 1_555 1_555
C10 C7 1_555 1_555
C11 C10 1_555 1_555
H9 C11 1_555 1_555
C12 N2 1_555 1_555
H10 C12 1_555 1_555
Zn4 N2 1_555 1_555
C9 C10 1_555 1_555
C11 C12 1_555 1_555
Zn4 O1 1_555 1_555
O1 C13 1_555 1_555
O2 C13 1_555 1_555
O3 C20 1_555 1_555
O4 C20 1_555 1_555
N1 Zn4 1_555 1_555
C1 N1 1_555 1_555
H1 C1 1_555 1_555
C2 C1 1_555 1_555
H2 C2 1_555 1_555
C3 C2 1_555 1_555
C4 C3 1_555 1_555
H3 C4 1_555 1_555
C5 N1 1_555 1_555
H4 C5 1_555 1_555
C6 C3 1_555 1_555
H5 C6 1_555 1_555
C13 C14 1_555 1_555
C14 C15 1_555 1_555
C15 H11 1_555 1_555
C16 C15 1_555 1_555
H12 C16 1_555 1_555
C17 C16 1_555 1_555
C18 C17 1_555 1_555
H13 C18 1_555 1_555
C19 C14 1_555 1_555
H14 C19 1_555 1_555
C20 C17 1_555 1_555
Zn2 O2 1_555 1_555
Zn3 O3 1_555 1_555
O5 Zn4 1_555 1_555
O6 Zn4 1_555 1_555
C4 C5 1_555 1_555
C18 C19 1_555 1_555
O1_2 C13_2 1_555 1_555
O2_2 C13_2 1_555 1_555
O6 C20_2 1_555 1_555
O4_2 C20_2 1_555 1_555
C13_2 C14_2 1_555 1_555
C14_2 C15_2 1_555 1_555
C15_2 H11_2 1_555 1_555
C16_2 C15_2 1_555 1_555
H12_2 C16_2 1_555 1_555
C17_2 C16_2 1_555 1_555
C18_2 C17_2 1_555 1_555
H13_2 C18_2 1_555 1_555
C19_2 C14_2 1_555 1_555
H14_2 C19_2 1_555 1_555
C20_2 C17_2 1_555 1_555
C18_2 C19_2 1_555 1_555
N1_2 Zn3 1_555 1_555
C1_2 N1_2 1_555 1_555
C2_2 C1_2 1_555 1_555
C3_2 C2_2 1_555 1_555
C4_2 C3_2 1_555 1_555
H3_2 C4_2 1_555 1_555
C5_2 N1_2 1_555 1_555
H4_2 C5_2 1_555 1_555
C6_2 C3_2 1_555 1_555
H5_2 C6_2 1_555 1_555
N3 Zn3 1_555 1_555
C4_2 C5_2 1_555 1_555
N3 C8_2 1_555 1_555
C9_2 C8_2 1_555 1_555
C10_2 C7_2 1_555 1_555
C11_2 C10_2 1_555 1_555
H9_2 C11_2 1_555 1_555
C12_2 N3 1_555 1_555
H10_2 C12_2 1_555 1_555
C9_2 C10_2 1_555 1_555
C11_2 C12_2 1_555 1_555
Zn2 O1_3 1_555 1_555
O1_3 C13_3 1_555 1_555
O5 C13_3 1_555 1_555
O3_2 C20_3 1_555 1_555
O4_3 C20_3 1_555 1_555
N1_3 Zn2 1_555 1_555
C1_3 N1_3 1_555 1_555
H1_3 C1_3 1_555 1_555
C2_3 C1_3 1_555 1_555
H2_3 C2_3 1_555 1_555
C3_3 C2_3 1_555 1_555
C4_3 C3_3 1_555 1_555
H3_3 C4_3 1_555 1_555
C5_3 N1_3 1_555 1_555
H4_3 C5_3 1_555 1_555
C6_3 C3_3 1_555 1_555
H5_3 C6_3 1_555 1_555
C13_3 C14_3 1_555 1_555
C14_3 C15_3 1_555 1_555
C15_3 H11_3 1_555 1_555
C16_3 C15_3 1_555 1_555
H12_3 C16_3 1_555 1_555
C17_3 C16_3 1_555 1_555
C18_3 C17_3 1_555 1_555
H13_3 C18_3 1_555 1_555
C19_3 C14_3 1_555 1_555
H14_3 C19_3 1_555 1_555
C20_3 C17_3 1_555 1_555
Zn2_2 O3_2 1_555 1_555
O6_2 Zn2 1_555 1_555
N3_2 Zn2 1_555 1_555
C4_3 C5_3 1_555 1_555
C18_3 C19_3 1_555 1_555
N3_2 C8_3 1_555 1_555
C8_3 H7_2 1_555 1_555
C9_3 C8_3 1_555 1_555
H8_2 C9_3 1_555 1_555
C10_3 C7_3 1_555 1_555
C11_3 C10_3 1_555 1_555
H9_3 C11_3 1_555 1_555
C12_3 N3_2 1_555 1_555
H10_3 C12_3 1_555 1_555
C9_3 C10_3 1_555 1_555
C11_3 C12_3 1_555 1_555
N2_2 C8_4 1_555 1_555
C9_4 C8_4 1_555 1_555
C10_4 C7_4 1_555 1_555
C11_4 C10_4 1_555 1_555
H9_4 C11_4 1_555 1_555
C12_4 N2_2 1_555 1_555
H10_4 C12_4 1_555 1_555
Zn2_2 N2_2 1_555 1_555
C9_4 C10_4 1_555 1_555
C11_4 C12_4 1_555 1_555
N1_4 Zn2_2 1_555 1_555
C1_4 N1_4 1_555 1_555
C2_4 C1_4 1_555 1_555
C3_4 C2_4 1_555 1_555
C4_4 C3_4 1_555 1_555
H3_4 C4_4 1_555 1_555
C5_4 N1_4 1_555 1_555
H4_4 C5_4 1_555 1_555
C6_4 C3_4 1_555 1_555
H5_4 C6_4 1_555 1_555
C4_4 C5_4 1_555 1_555
O1_4 C13_4 1_555 1_555
O5_2 C13_4 1_555 1_555
O6_2 C20_4 1_555 1_555
O4_4 C20_4 1_555 1_555
C13_4 C14_4 1_555 1_555
C14_4 C15_4 1_555 1_555
C15_4 H11_4 1_555 1_555
C16_4 C15_4 1_555 1_555
H12_4 C16_4 1_555 1_555
C17_4 C16_4 1_555 1_555
C18_4 C17_4 1_555 1_555
H13_4 C18_4 1_555 1_555
C19_4 C14_4 1_555 1_555
H14_4 C19_4 1_555 1_555
C20_4 C17_4 1_555 1_555
C18_4 C19_4 1_555 1_555
Zn1 O1_5 1_555 1_555
O6_3 Zn1 1_555 1_555
N3_3 Zn1 1_555 1_555
O2_3 C13_5 1_555 1_555
O3_3 C20_5 1_555 1_555
O4_5 C20_5 1_555 1_555
N3_3 C8_5 1_555 1_555
C1_5 N1_5 1_555 1_555
C2_5 C1_5 1_555 1_555
C3_5 C2_5 1_555 1_555
C4_5 C3_5 1_555 1_555
H3_5 C4_5 1_555 1_555
C5_5 N1_5 1_555 1_555
H4_5 C5_5 1_555 1_555
C6_5 C3_5 1_555 1_555
H5_5 C6_5 1_555 1_555
C7_5 C6_5 1_555 1_555
H6_5 C7_5 1_555 1_555
C9_5 C8_5 1_555 1_555
C10_5 C7_5 1_555 1_555
C11_5 C10_5 1_555 1_555
H9_5 C11_5 1_555 1_555
C12_5 N3_3 1_555 1_555
H10_5 C12_5 1_555 1_555
C13_5 C14_5 1_555 1_555
C14_5 C15_5 1_555 1_555
C15_5 H11_5 1_555 1_555
C16_5 C15_5 1_555 1_555
H12_5 C16_5 1_555 1_555
C17_5 C16_5 1_555 1_555
C18_5 C17_5 1_555 1_555
H13_5 C18_5 1_555 1_555
C19_5 C14_5 1_555 1_555
C20_5 C17_5 1_555 1_555
Zn3_2 O3_3 1_555 1_555
C4_5 C5_5 1_555 1_555
C9_5 C10_5 1_555 1_555
C11_5 C12_5 1_555 1_555
C18_5 C19_5 1_555 1_555
N2_3 C8_6 1_555 1_555
C1_6 N1_6 1_555 1_555
H1_6 C1_6 1_555 1_555
C2_6 C1_6 1_555 1_555
H2_6 C2_6 1_555 1_555
C3_6 C2_6 1_555 1_555
C4_6 C3_6 1_555 1_555
H3_6 C4_6 1_555 1_555
C5_6 N1_6 1_555 1_555
H4_6 C5_6 1_555 1_555
C6_6 C3_6 1_555 1_555
H5_6 C6_6 1_555 1_555
C7_6 C6_6 1_555 1_555
H6_6 C7_6 1_555 1_555
C8_6 H7_4 1_555 1_555
C9_6 C8_6 1_555 1_555
H8_4 C9_6 1_555 1_555
C10_6 C7_6 1_555 1_555
C11_6 C10_6 1_555 1_555
H9_6 C11_6 1_555 1_555
C12_6 N2_3 1_555 1_555
H10_6 C12_6 1_555 1_555
Zn3_2 N2_3 1_555 1_555
C4_6 C5_6 1_555 1_555
C9_6 C10_6 1_555 1_555
C11_6 C12_6 1_555 1_555
O2_4 C13_6 1_555 1_555
O6_3 C20_6 1_555 1_555
O4_6 C20_6 1_555 1_555
C13_6 C14_6 1_555 1_555
C14_6 C15_6 1_555 1_555
C15_6 H11_6 1_555 1_555
C16_6 C15_6 1_555 1_555
H12_6 C16_6 1_555 1_555
C17_6 C16_6 1_555 1_555
C18_6 C17_6 1_555 1_555
H13_6 C18_6 1_555 1_555
C19_6 C14_6 1_555 1_555
C20_6 C17_6 1_555 1_555
Zn2_4 O2_4 1_555 1_555
C18_6 C19_6 1_555 1_555
O5_4 Zn3_2 1_555 1_555
O5_3 C13_7 1_555 1_555
O3_4 C20_7 1_555 1_555
O4_7 C20_7 1_555 1_555
N2_4 C8_7 1_555 1_555
C1_7 N1_7 1_555 1_555
C2_7 C1_7 1_555 1_555
C3_7 C2_7 1_555 1_555
C4_7 C3_7 1_555 1_555
H3_7 C4_7 1_555 1_555
C5_7 N1_7 1_555 1_555
H4_7 C5_7 1_555 1_555
C6_7 C3_7 1_555 1_555
H5_7 C6_7 1_555 1_555
C7_7 C6_7 1_555 1_555
H6_7 C7_7 1_555 1_555
C9_7 C8_7 1_555 1_555
C10_7 C7_7 1_555 1_555
C11_7 C10_7 1_555 1_555
H9_7 C11_7 1_555 1_555
C12_7 N2_4 1_555 1_555
H10_7 C12_7 1_555 1_555
C13_7 C14_7 1_555 1_555
C14_7 C15_7 1_555 1_555
C15_7 H11_7 1_555 1_555
C16_7 C15_7 1_555 1_555
H12_7 C16_7 1_555 1_555
C17_7 C16_7 1_555 1_555
C18_7 C17_7 1_555 1_555
H13_7 C18_7 1_555 1_555
C19_7 C14_7 1_555 1_555
C20_7 C17_7 1_555 1_555
Zn2_4 O3_4 1_555 1_555
Zn2_3 N2_4 1_555 1_555
C4_7 C5_7 1_555 1_555
C9_7 C10_7 1_555 1_555
C11_7 C12_7 1_555 1_555
C18_7 C19_7 1_555 1_555
Zn2_3 O1_6 1_555 1_555
O6_4 Zn2_3 1_555 1_555
N3_4 Zn2_4 1_555 1_555
O5_4 C13_8 1_555 1_555
O6_4 C20_8 1_555 1_555
O4_8 C20_8 1_555 1_555
C13_8 C14_8 1_555 1_555
C14_8 C15_8 1_555 1_555
C15_8 H11_8 1_555 1_555
C16_8 C15_8 1_555 1_555
H12_8 C16_8 1_555 1_555
C17_8 C16_8 1_555 1_555
C18_8 C17_8 1_555 1_555
H13_8 C18_8 1_555 1_555
C19_8 C14_8 1_555 1_555
C20_8 C17_8 1_555 1_555
C18_8 C19_8 1_555 1_555
N3_4 C8_8 1_555 1_555
C1_8 N1_8 1_555 1_555
H1_8 C1_8 1_555 1_555
C2_8 C1_8 1_555 1_555
H2_8 C2_8 1_555 1_555
C3_8 C2_8 1_555 1_555
C4_8 C3_8 1_555 1_555
H3_8 C4_8 1_555 1_555
C5_8 N1_8 1_555 1_555
H4_8 C5_8 1_555 1_555
C6_8 C3_8 1_555 1_555
H5_8 C6_8 1_555 1_555
C7_8 C6_8 1_555 1_555
H6_8 C7_8 1_555 1_555
C8_8 H7_6 1_555 1_555
C9_8 C8_8 1_555 1_555
H8_6 C9_8 1_555 1_555
C10_8 C7_8 1_555 1_555
C11_8 C10_8 1_555 1_555
H9_8 C11_8 1_555 1_555
C12_8 N3_4 1_555 1_555
H10_8 C12_8 1_555 1_555
C4_8 C5_8 1_555 1_555
C9_8 C10_8 1_555 1_555
C11_8 C12_8 1_555 1_555

#END
