
###############################################################################
#
# This file contains modified crystal structure data generated from the
# MOF subset of the Cambridge Structural Database (CSD) v543 
# hosted by the Cambridge Crystallographic Data Centre (CCDC).
#
# This work is licensed under the Creative Commons
# Attribution-NonCommercial-ShareAlike 4.0 International License.
# To view a copy of this license, visit
# http://creativecommons.org/licenses/by-nc-sa/4.0/
# or send a letter to
# Creative Commons, PO Box 1866, Mountain View, CA 94042, USA.
#
# CIF created using the CSD Python API on 29 September 2022
# The structure has been converted into the P1 space group
# The structure has a 3D framework
# The original CSD entry SUJRIZ is in the orthorhombic crystal system
# The framework has been calculated to contain at least 10.0% void space
# The void calculation uses a probe of radius 1.32A, grid spacing 0.4
#
###############################################################################

data_SUJRIZ
_chemical_formula_moiety         '(C160 H112 N16 O32 Zn8)n'
_symmetry_cell_setting           triclinic
_symmetry_space_group_name_H-M   'P 1'
_symmetry_Int_Tables_number      1
_space_group_name_Hall           'P 1'
loop_
_symmetry_equiv_pos_site_id
_symmetry_equiv_pos_as_xyz
1 x,y,z
_cell_length_a                   13.5707(15)
_cell_length_b                   15.0060(17)
_cell_length_c                   20.074(2)
_cell_angle_alpha                90
_cell_angle_beta                 90
_cell_angle_gamma                90
_cell_volume                     4087.91
loop_
_atom_site_label
_atom_site_type_symbol
_atom_site_fract_x
_atom_site_fract_y
_atom_site_fract_z
N2 N 0.3353(4) 0.6005(3) 0.5707(3)
C7 C 0.2796(4) 0.6313(4) 0.5212(3)
H6 H 0.3090 0.6676 0.4893
C8 C 0.1810(4) 0.6123(4) 0.5147(3)
H7 H 0.1449 0.6363 0.4797
C9 C 0.1358(4) 0.5569(4) 0.5609(3)
C10 C 0.1924(4) 0.5313(4) 0.6155(3)
H8 H 0.1638 0.4995 0.6502
C11 C 0.2915(4) 0.5535(4) 0.6180(3)
H9 H 0.3286 0.5346 0.6543
C12 C 0.0373(4) 0.5153(4) 0.5483(3)
H10 H 0.0069 0.4964 0.5902
Zn4 Zn 0.49752(4) 0.60974(5) 0.56487(3)
Zn5 Zn 0.50248(4) 0.39026(5) 0.43513(3)
N3 N 0.3415(4) 0.3882(3) 0.4449(3)
C21 C 0.2844(4) 0.4354(4) 0.4032(3)
H15 H 0.3130 0.4604 0.3655
C22 C 0.1836(4) 0.4487(4) 0.4141(3)
H16 H 0.1464 0.4815 0.3839
C23 C 0.1401(4) 0.4127(4) 0.4699(3)
C24 C 0.1972(4) 0.3570(4) 0.5094(3)
H17 H 0.1693 0.3264 0.5450
C25 C 0.2963(4) 0.3479(4) 0.4949(3)
H18 H 0.3338 0.3110 0.5222
C26 C 0.0388(4) 0.4353(4) 0.4961(3)
H19 H 0.0084 0.3822 0.5159
Zn3 Zn 0.50248(4) 0.10974(5) 0.93513(3)
Zn2 Zn 0.49752(4) 0.89026(5) 0.06487(3)
O1 O 0.5048(3) 0.6383(4) 0.6632(3)
O2 O 0.4932(4) 0.7677(5) 0.6116(3)
O3 O 0.4873(3) 0.8413(3) 0.9721(2)
O4 O 0.4952(3) 0.9750(3) 0.9243(3)
N1 N 0.6585(4) 0.6118(3) 0.5551(3)
C1 C 0.7156(4) 0.5646(4) 0.5968(3)
H1 H 0.6870 0.5396 0.6345
C2 C 0.8164(4) 0.5513(4) 0.5859(3)
H2 H 0.8536 0.5185 0.6161
C3 C 0.8599(4) 0.5873(4) 0.5301(3)
C4 C 0.8028(4) 0.6430(4) 0.4906(3)
H3 H 0.8307 0.6736 0.4550
C5 C 0.7037(4) 0.6521(4) 0.5051(3)
H4 H 0.6662 0.6890 0.4778
C6 C 0.9612(4) 0.5647(4) 0.5039(3)
H5 H 0.9916 0.6178 0.4841
C13 C 0.4993(4) 0.7215(6) 0.6633(4)
C14 C 0.4976(4) 0.7675(5) 0.7308(3)
C15 C 0.5005(4) 0.7166(5) 0.7879(3)
H11 H 0.5037 0.6549 0.7848
C16 C 0.4987(4) 0.7570(4) 0.8497(4)
H12 H 0.5008 0.7225 0.8881
C17 C 0.4938(4) 0.8494(4) 0.8544(3)
C18 C 0.4918(5) 0.9017(5) 0.7963(4)
H13 H 0.4892 0.9636 0.7989
C19 C 0.4938(4) 0.8593(5) 0.7351(3)
H14 H 0.4926 0.8932 0.6963
C20 C 0.4917(4) 0.8936(4) 0.9217(4)
O5 O 0.4952(3) 0.3617(4) 0.3368(3)
O6 O 0.5068(4) 0.2323(5) 0.3884(3)
O7 O 0.4873(3) 0.6587(3) 0.4721(2)
O8 O 0.5127(3) 0.3413(3) 0.5279(2)
O9 O 0.5127(3) 0.1587(3) 0.0279(2)
O10 O 0.4952(3) 0.5250(3) 0.4243(3)
O11 O 0.5048(3) 0.4750(3) 0.5757(3)
O12 O 0.5048(3) 0.0250(3) 0.0757(3)
N5 N 0.6647(4) 0.3995(3) 0.4293(3)
C27 C 0.7204(4) 0.3687(4) 0.4788(3)
H20 H 0.6910 0.3324 0.5107
C28 C 0.8190(4) 0.3877(4) 0.4853(3)
H21 H 0.8551 0.3637 0.5203
C29 C 0.8642(4) 0.4431(4) 0.4391(3)
C30 C 0.8076(4) 0.4687(4) 0.3845(3)
H22 H 0.8362 0.5005 0.3498
C31 C 0.7085(4) 0.4465(4) 0.3820(3)
H23 H 0.6714 0.4654 0.3457
C32 C 0.9627(4) 0.4847(4) 0.4517(3)
H24 H 0.9931 0.5036 0.4098
C33 C 0.5007(4) 0.2785(6) 0.3367(4)
C34 C 0.5024(4) 0.2325(5) 0.2692(3)
C35 C 0.4995(4) 0.2834(5) 0.2121(3)
H25 H 0.4963 0.3451 0.2152
C36 C 0.5013(4) 0.2430(4) 0.1503(4)
H26 H 0.4992 0.2775 0.1119
C37 C 0.5062(4) 0.1506(4) 0.1456(3)
C38 C 0.5082(5) 0.0983(5) 0.2037(4)
H27 H 0.5108 0.0364 0.2011
C39 C 0.5062(4) 0.1407(5) 0.2649(3)
H28 H 0.5074 0.1068 0.3037
C40 C 0.5083(4) 0.1064(4) 0.0783(4)
C4_2 C 0.1972(4) 0.1430(4) 0.0094(3)
H3_2 H 0.1693 0.1736 0.0450
H4_2 H 0.3338 0.1890 0.0222
H5_2 H 0.0084 0.1178 0.0159
H22_2 H 0.1638 0.0005 0.1502
H24_2 H 0.0069 0.0036 0.0902
O1_2 O 0.4952(3) 0.1383(4) 0.8368(3)
O2_2 O 0.5068(4) 0.2677(5) 0.8884(3)
N1_2 N 0.3415(4) 0.1118(3) 0.9449(3)
C1_2 C 0.2844(4) 0.0646(4) 0.9032(3)
H1_2 H 0.3130 0.0396 0.8655
C2_2 C 0.1836(4) 0.0513(4) 0.9141(3)
H2_2 H 0.1464 0.0185 0.8839
C3_2 C 0.1401(4) 0.0873(4) 0.9699(3)
C5_2 C 0.2963(4) 0.1521(4) 0.9949(3)
C6_2 C 0.0388(4) 0.0647(4) 0.9961(3)
C13_2 C 0.5007(4) 0.2215(6) 0.8367(4)
C14_2 C 0.5024(4) 0.2675(5) 0.7692(3)
C15_2 C 0.4995(4) 0.2166(5) 0.7121(3)
H11_2 H 0.4963 0.1549 0.7152
C16_2 C 0.5013(4) 0.2570(4) 0.6503(4)
H12_2 H 0.4992 0.2225 0.6119
C17_2 C 0.5062(4) 0.3494(4) 0.6456(3)
C18_2 C 0.5082(5) 0.4017(5) 0.7037(4)
H13_2 H 0.5108 0.4636 0.7011
C19_2 C 0.5062(4) 0.3593(5) 0.7649(3)
H14_2 H 0.5074 0.3932 0.8037
C20_2 C 0.5083(4) 0.3936(4) 0.5783(4)
N6 N 0.6647(4) 0.1005(3) 0.9293(3)
O5_2 O 0.5048(3) 0.8617(4) 0.1632(3)
O6_2 O 0.4932(4) 0.7323(5) 0.1116(3)
N4 N 0.6585(4) 0.8882(3) 0.0551(3)
N5_2 N 0.3353(4) 0.8995(3) 0.0707(3)
C27_2 C 0.2796(4) 0.8687(4) 0.0212(3)
C28_2 C 0.1810(4) 0.8877(4) 0.0147(3)
C29_2 C 0.1358(4) 0.9431(4) 0.0609(3)
C30_2 C 0.1924(4) 0.9687(4) 0.1155(3)
C31_2 C 0.2915(4) 0.9465(4) 0.1180(3)
H23_2 H 0.3286 0.9654 0.1543
C32_2 C 0.0373(4) 0.9847(4) 0.0483(3)
C33_2 C 0.4993(4) 0.7785(6) 0.1633(4)
C34_2 C 0.4976(4) 0.7325(5) 0.2308(3)
C35_2 C 0.5005(4) 0.7834(5) 0.2879(3)
H25_2 H 0.5037 0.8451 0.2848
C36_2 C 0.4987(4) 0.7430(4) 0.3497(4)
H26_2 H 0.5008 0.7775 0.3881
C37_2 C 0.4938(4) 0.6506(4) 0.3544(3)
C38_2 C 0.4918(5) 0.5983(5) 0.2963(4)
H27_2 H 0.4892 0.5364 0.2989
C39_2 C 0.4938(4) 0.6407(5) 0.2351(3)
H28_2 H 0.4926 0.6068 0.1963
C40_2 C 0.4917(4) 0.6064(4) 0.4217(4)
H20_2 H 0.3090 0.8324 0.9893
H21_2 H 0.1449 0.8637 0.9797
H6_2 H 0.6910 0.1676 0.0107
H7_2 H 0.8551 0.1363 0.0203
C7_2 C 0.7204(4) 0.1313(4) 0.9788(3)
C8_2 C 0.8190(4) 0.1123(4) 0.9853(3)
C9_2 C 0.8642(4) 0.0569(4) 0.9391(3)
C10_2 C 0.8076(4) 0.0313(4) 0.8845(3)
C11_2 C 0.7085(4) 0.0535(4) 0.8820(3)
H9_2 H 0.6714 0.0346 0.8457
C12_2 C 0.9627(4) 0.0153(4) 0.9517(3)
C21_2 C 0.7156(4) 0.9354(4) 0.0968(3)
H15_2 H 0.6870 0.9604 0.1345
C22_2 C 0.8164(4) 0.9487(4) 0.0859(3)
H16_2 H 0.8536 0.9815 0.1161
C23_2 C 0.8599(4) 0.9127(4) 0.0301(3)
C25_2 C 0.7037(4) 0.8479(4) 0.0051(3)
C26_2 C 0.9612(4) 0.9353(4) 0.0039(3)
H8_2 H 0.8362 0.9995 0.8498
H10_2 H 0.9931 0.9964 0.9098
C24_2 C 0.8028(4) 0.8570(4) 0.9906(3)
H17_2 H 0.8307 0.8264 0.9550
H18_2 H 0.6662 0.8110 0.9778
H19_2 H 0.9916 0.8822 0.9841
Zn8 Zn 0.00248(4) 0.10974(5) 0.56487(3)
Zn1 Zn 0.00248(4) 0.39026(5) 0.06487(3)
O2_3 O 0.0068(4) 0.2323(5) 0.1116(3)
O3_2 O 0.0127(3) 0.1587(3) 0.4721(2)
O4_2 O 0.0048(3) 0.0250(3) 0.4243(3)
C13_3 C 0.0007(4) 0.2785(6) 0.1633(4)
C14_3 C 0.0024(4) 0.2325(5) 0.2308(3)
C16_3 C 0.0013(4) 0.2430(4) 0.3497(4)
C17_3 C 0.0062(4) 0.1506(4) 0.3544(3)
C18_3 C 0.0082(5) 0.0983(5) 0.2963(4)
H13_3 H 0.0108 0.0364 0.2989
C19_3 C 0.0062(4) 0.1407(5) 0.2351(3)
H14_3 H 0.0074 0.1068 0.1963
C20_3 C 0.0083(4) 0.1064(4) 0.4217(4)
N6_2 N 0.1647(4) 0.3995(3) 0.0707(3)
O5_3 O 0.0048(3) 0.6383(4) 0.8368(3)
O7_2 O 0.0127(3) 0.3413(3) 0.9721(2)
O10_2 O 0.0048(3) 0.4750(3) 0.9243(3)
N4_2 N 0.1585(4) 0.6118(3) 0.9449(3)
C35_3 C 0.0005(4) 0.7166(5) 0.7121(3)
H25_3 H 0.0037 0.6549 0.7152
H26_3 H 0.0008 0.7225 0.6119
O1_3 O 0.9952(3) 0.3617(4) 0.1632(3)
N1_3 N 0.8415(4) 0.3882(3) 0.0551(3)
C1_3 C 0.7844(4) 0.4354(4) 0.0968(3)
H1_3 H 0.8130 0.4604 0.1345
C2_3 C 0.6836(4) 0.4487(4) 0.0859(3)
H2_3 H 0.6464 0.4815 0.1161
C3_3 C 0.6401(4) 0.4127(4) 0.0301(3)
C5_3 C 0.7963(4) 0.3479(4) 0.0051(3)
C6_3 C 0.5388(4) 0.4353(4) 0.0039(3)
C7_3 C 0.2204(4) 0.3687(4) 0.0212(3)
C8_3 C 0.3190(4) 0.3877(4) 0.0147(3)
C9_3 C 0.3642(4) 0.4431(4) 0.0609(3)
C10_3 C 0.3076(4) 0.4687(4) 0.1155(3)
H8_3 H 0.3362 0.5005 0.1502
C11_3 C 0.2085(4) 0.4465(4) 0.1180(3)
H9_3 H 0.1714 0.4654 0.1543
C12_3 C 0.4627(4) 0.4847(4) 0.0483(3)
H10_3 H 0.4931 0.5036 0.0902
C15_3 C 0.9995(4) 0.2834(5) 0.2879(3)
H11_3 H 0.9963 0.3451 0.2848
H12_3 H 0.9992 0.2775 0.3881
O8_2 O 0.9873(3) 0.6587(3) 0.0279(2)
O11_2 O 0.9952(3) 0.5250(3) 0.0757(3)
C24_3 C 0.3028(4) 0.6430(4) 0.0094(3)
H17_3 H 0.3307 0.6736 0.0450
H18_3 H 0.1662 0.6890 0.0222
H19_3 H 0.4916 0.6178 0.0159
H20_3 H 0.8090 0.6676 0.0107
H21_3 H 0.6449 0.6363 0.0203
C4_3 C 0.6972(4) 0.3570(4) 0.9906(3)
H3_3 H 0.6693 0.3264 0.9550
H4_3 H 0.8338 0.3110 0.9778
H5_3 H 0.5084 0.3822 0.9841
H6_3 H 0.1910 0.3324 0.9893
H7_3 H 0.3551 0.3637 0.9797
Zn6 Zn 0.99752(4) 0.60974(5) 0.93513(3)
Zn7 Zn 0.99752(4) 0.89026(5) 0.43513(3)
O6_3 O 0.9932(4) 0.7677(5) 0.8884(3)
O9_2 O 0.9873(3) 0.8413(3) 0.5279(2)
O12_2 O 0.9952(3) 0.9750(3) 0.5757(3)
N5_3 N 0.8353(4) 0.6005(3) 0.9293(3)
C21_3 C 0.2156(4) 0.5646(4) 0.9032(3)
H15_3 H 0.1870 0.5396 0.8655
C22_3 C 0.3164(4) 0.5513(4) 0.9141(3)
H16_3 H 0.3536 0.5185 0.8839
C23_3 C 0.3599(4) 0.5873(4) 0.9699(3)
C25_3 C 0.2037(4) 0.6521(4) 0.9949(3)
C26_3 C 0.4612(4) 0.5647(4) 0.9961(3)
C27_3 C 0.7796(4) 0.6313(4) 0.9788(3)
C28_3 C 0.6810(4) 0.6123(4) 0.9853(3)
C29_3 C 0.6358(4) 0.5569(4) 0.9391(3)
C30_3 C 0.6924(4) 0.5313(4) 0.8845(3)
H22_3 H 0.6638 0.4995 0.8498
C31_3 C 0.7915(4) 0.5535(4) 0.8820(3)
H23_3 H 0.8286 0.5346 0.8457
C32_3 C 0.5373(4) 0.5153(4) 0.9517(3)
H24_3 H 0.5069 0.4964 0.9098
C33_3 C 0.9993(4) 0.7215(6) 0.8367(4)
C34_3 C 0.9976(4) 0.7675(5) 0.7692(3)
C36_3 C 0.9987(4) 0.7570(4) 0.6503(4)
C37_3 C 0.9938(4) 0.8494(4) 0.6456(3)
C38_3 C 0.9918(5) 0.9017(5) 0.7037(4)
H27_3 H 0.9892 0.9636 0.7011
C39_3 C 0.9938(4) 0.8593(5) 0.7649(3)
H28_3 H 0.9926 0.8932 0.8037
C40_3 C 0.9917(4) 0.8936(4) 0.5783(4)
H8_4 H 0.6638 0.0005 0.3498
H10_4 H 0.5069 0.0036 0.4098
O6_4 O 0.0068(4) 0.2677(5) 0.6116(3)
N3_2 N 0.8415(4) 0.1118(3) 0.5551(3)
N5_4 N 0.1647(4) 0.1005(3) 0.5707(3)
C21_4 C 0.7844(4) 0.0646(4) 0.5968(3)
H15_4 H 0.8130 0.0396 0.6345
C22_4 C 0.6836(4) 0.0513(4) 0.5859(3)
H16_4 H 0.6464 0.0185 0.6161
C23_4 C 0.6401(4) 0.0873(4) 0.5301(3)
C24_4 C 0.6972(4) 0.1430(4) 0.4906(3)
H17_4 H 0.6693 0.1736 0.4550
C25_4 C 0.7963(4) 0.1521(4) 0.5051(3)
H18_4 H 0.8338 0.1890 0.4778
C26_4 C 0.5388(4) 0.0647(4) 0.5039(3)
H19_4 H 0.5084 0.1178 0.4841
C27_4 C 0.2204(4) 0.1313(4) 0.5212(3)
H20_4 H 0.1910 0.1676 0.4893
C28_4 C 0.3190(4) 0.1123(4) 0.5147(3)
H21_4 H 0.3551 0.1363 0.4797
C29_4 C 0.3642(4) 0.0569(4) 0.5609(3)
C30_4 C 0.3076(4) 0.0313(4) 0.6155(3)
C31_4 C 0.2085(4) 0.0535(4) 0.6180(3)
H23_4 H 0.1714 0.0346 0.6543
C32_4 C 0.4627(4) 0.0153(4) 0.5483(3)
C33_4 C 0.0007(4) 0.2215(6) 0.6633(4)
C34_4 C 0.0024(4) 0.2675(5) 0.7308(3)
C36_4 C 0.0013(4) 0.2570(4) 0.8497(4)
C37_4 C 0.0062(4) 0.3494(4) 0.8544(3)
C38_4 C 0.0082(5) 0.4017(5) 0.7963(4)
H27_4 H 0.0108 0.4636 0.7989
C39_4 C 0.0062(4) 0.3593(5) 0.7351(3)
H28_4 H 0.0074 0.3932 0.6963
C40_4 C 0.0083(4) 0.3936(4) 0.9217(4)
O1_4 O 0.0048(3) 0.8617(4) 0.3368(3)
N1_4 N 0.1585(4) 0.8882(3) 0.4449(3)
N2_2 N 0.8353(4) 0.8995(3) 0.4293(3)
C1_4 C 0.2156(4) 0.9354(4) 0.4032(3)
H1_4 H 0.1870 0.9604 0.3655
C2_4 C 0.3164(4) 0.9487(4) 0.4141(3)
H2_4 H 0.3536 0.9815 0.3839
C3_4 C 0.3599(4) 0.9127(4) 0.4699(3)
C4_4 C 0.3028(4) 0.8570(4) 0.5094(3)
H3_4 H 0.3307 0.8264 0.5450
C5_4 C 0.2037(4) 0.8479(4) 0.4949(3)
H4_4 H 0.1662 0.8110 0.5222
C6_4 C 0.4612(4) 0.9353(4) 0.4961(3)
H5_4 H 0.4916 0.8822 0.5159
C7_4 C 0.7796(4) 0.8687(4) 0.4788(3)
H6_4 H 0.8090 0.8324 0.5107
C8_4 C 0.6810(4) 0.8877(4) 0.4853(3)
H7_4 H 0.6449 0.8637 0.5203
C9_4 C 0.6358(4) 0.9431(4) 0.4391(3)
C10_4 C 0.6924(4) 0.9687(4) 0.3845(3)
C11_4 C 0.7915(4) 0.9465(4) 0.3820(3)
H9_4 H 0.8286 0.9654 0.3457
C12_4 C 0.5373(4) 0.9847(4) 0.4517(3)
C15_4 C 0.0005(4) 0.7834(5) 0.2121(3)
H11_4 H 0.0037 0.8451 0.2152
H12_4 H 0.0008 0.7775 0.1119
H22_4 H 0.3362 0.9995 0.6502
H24_4 H 0.4931 0.9964 0.5902
O5_4 O 0.9952(3) 0.1383(4) 0.6632(3)
C35_4 C 0.9995(4) 0.2166(5) 0.7879(3)
H25_4 H 0.9963 0.1549 0.7848
H26_4 H 0.9992 0.2225 0.8881
O2_4 O 0.9932(4) 0.7323(5) 0.3884(3)
C13_4 C 0.9993(4) 0.7785(6) 0.3367(4)
C14_4 C 0.9976(4) 0.7325(5) 0.2692(3)
C16_4 C 0.9987(4) 0.7430(4) 0.1503(4)
C17_4 C 0.9938(4) 0.6506(4) 0.1456(3)
C18_4 C 0.9918(5) 0.5983(5) 0.2037(4)
H13_4 H 0.9892 0.5364 0.2011
C19_4 C 0.9938(4) 0.6407(5) 0.2649(3)
H14_4 H 0.9926 0.6068 0.3037
C20_4 C 0.9917(4) 0.6064(4) 0.0783(4)
loop_
_geom_bond_atom_site_label_1
_geom_bond_atom_site_label_2
_geom_bond_site_symmetry_1
_geom_bond_site_symmetry_2
N2 C7 1_555 1_555
C7 H6 1_555 1_555
C8 C7 1_555 1_555
H7 C8 1_555 1_555
C9 C8 1_555 1_555
C10 C9 1_555 1_555
H8 C10 1_555 1_555
C11 N2 1_555 1_555
H9 C11 1_555 1_555
H10 C12 1_555 1_555
Zn4 N2 1_555 1_555
Zn5 N3 1_555 1_555
N3 C21 1_555 1_555
C21 H15 1_555 1_555
C22 C21 1_555 1_555
H16 C22 1_555 1_555
C23 C22 1_555 1_555
C24 C23 1_555 1_555
H17 C24 1_555 1_555
C25 N3 1_555 1_555
H18 C25 1_555 1_555
C26 C12 1_555 1_555
H19 C26 1_555 1_555
C9 C12 1_555 1_555
C10 C11 1_555 1_555
C23 C26 1_555 1_555
C24 C25 1_555 1_555
Zn4 O1 1_555 1_555
O1 C13 1_555 1_555
O2 Zn4 1_555 1_555
O3 C20 1_555 1_555
O4 C20 1_555 1_555
N1 Zn4 1_555 1_555
C1 N1 1_555 1_555
H1 C1 1_555 1_555
C2 C1 1_555 1_555
H2 C2 1_555 1_555
C3 C2 1_555 1_555
C4 C3 1_555 1_555
H3 C4 1_555 1_555
C5 N1 1_555 1_555
H4 C5 1_555 1_555
C6 C3 1_555 1_555
H5 C6 1_555 1_555
C13 O2 1_555 1_555
C14 C13 1_555 1_555
C15 C14 1_555 1_555
H11 C15 1_555 1_555
C16 C15 1_555 1_555
H12 C16 1_555 1_555
C17 C16 1_555 1_555
C18 C17 1_555 1_555
H13 C18 1_555 1_555
C19 C14 1_555 1_555
H14 C19 1_555 1_555
C20 C17 1_555 1_555
Zn5 O5 1_555 1_555
O5 C33 1_555 1_555
O6 Zn5 1_555 1_555
O7 Zn4 1_555 1_555
O8 Zn5 1_555 1_555
O9 C40 1_555 1_555
O10 Zn5 1_555 1_555
O11 Zn4 1_555 1_555
O12 C40 1_555 1_555
N5 Zn5 1_555 1_555
C27 N5 1_555 1_555
H20 C27 1_555 1_555
C28 C27 1_555 1_555
H21 C28 1_555 1_555
C29 C28 1_555 1_555
C30 C29 1_555 1_555
H22 C30 1_555 1_555
C31 N5 1_555 1_555
H23 C31 1_555 1_555
C32 C6 1_555 1_555
H24 C32 1_555 1_555
C33 O6 1_555 1_555
C34 C33 1_555 1_555
C35 C34 1_555 1_555
H25 C35 1_555 1_555
C36 C35 1_555 1_555
H26 C36 1_555 1_555
C37 C36 1_555 1_555
C38 C37 1_555 1_555
H27 C38 1_555 1_555
C39 C34 1_555 1_555
H28 C39 1_555 1_555
C40 C37 1_555 1_555
C4 C5 1_555 1_555
C18 C19 1_555 1_555
C29 C32 1_555 1_555
C30 C31 1_555 1_555
C38 C39 1_555 1_555
H3_2 C4_2 1_555 1_555
Zn3 O1_2 1_555 1_555
O1_2 C13_2 1_555 1_555
O2_2 Zn3 1_555 1_555
O8 C20_2 1_555 1_555
O11 C20_2 1_555 1_555
N1_2 Zn3 1_555 1_555
C1_2 N1_2 1_555 1_555
H1_2 C1_2 1_555 1_555
C2_2 C1_2 1_555 1_555
H2_2 C2_2 1_555 1_555
C3_2 C2_2 1_555 1_555
C5_2 N1_2 1_555 1_555
C6_2 C3_2 1_555 1_555
C13_2 O2_2 1_555 1_555
C14_2 C13_2 1_555 1_555
C15_2 C14_2 1_555 1_555
H11_2 C15_2 1_555 1_555
C16_2 C15_2 1_555 1_555
H12_2 C16_2 1_555 1_555
C17_2 C16_2 1_555 1_555
C18_2 C17_2 1_555 1_555
H13_2 C18_2 1_555 1_555
C19_2 C14_2 1_555 1_555
H14_2 C19_2 1_555 1_555
C20_2 C17_2 1_555 1_555
N6 Zn3 1_555 1_555
C18_2 C19_2 1_555 1_555
Zn2 O5_2 1_555 1_555
O5_2 C33_2 1_555 1_555
O6_2 Zn2 1_555 1_555
O7 C40_2 1_555 1_555
O10 C40_2 1_555 1_555
N4 Zn2 1_555 1_555
N5_2 Zn2 1_555 1_555
C27_2 N5_2 1_555 1_555
C28_2 C27_2 1_555 1_555
C29_2 C28_2 1_555 1_555
C30_2 C29_2 1_555 1_555
C31_2 N5_2 1_555 1_555
H23_2 C31_2 1_555 1_555
C33_2 O6_2 1_555 1_555
C34_2 C33_2 1_555 1_555
C35_2 C34_2 1_555 1_555
H25_2 C35_2 1_555 1_555
C36_2 C35_2 1_555 1_555
H26_2 C36_2 1_555 1_555
C37_2 C36_2 1_555 1_555
C38_2 C37_2 1_555 1_555
H27_2 C38_2 1_555 1_555
C39_2 C34_2 1_555 1_555
H28_2 C39_2 1_555 1_555
C40_2 C37_2 1_555 1_555
C29_2 C32_2 1_555 1_555
C30_2 C31_2 1_555 1_555
C38_2 C39_2 1_555 1_555
N6 C7_2 1_555 1_555
C8_2 C7_2 1_555 1_555
C9_2 C8_2 1_555 1_555
C10_2 C9_2 1_555 1_555
C11_2 N6 1_555 1_555
H9_2 C11_2 1_555 1_555
C9_2 C12_2 1_555 1_555
C10_2 C11_2 1_555 1_555
N4 C21_2 1_555 1_555
C21_2 H15_2 1_555 1_555
C22_2 C21_2 1_555 1_555
H16_2 C22_2 1_555 1_555
C23_2 C22_2 1_555 1_555
C25_2 N4 1_555 1_555
C23_2 C26_2 1_555 1_555
H17_2 C24_2 1_555 1_555
O2_3 Zn1 1_555 1_555
O3_2 C20_3 1_555 1_555
O4_2 C20_3 1_555 1_555
C13_3 O2_3 1_555 1_555
C14_3 C13_3 1_555 1_555
C17_3 C16_3 1_555 1_555
C18_3 C17_3 1_555 1_555
H13_3 C18_3 1_555 1_555
C19_3 C14_3 1_555 1_555
H14_3 C19_3 1_555 1_555
C20_3 C17_3 1_555 1_555
Zn8 O3_2 1_555 1_555
N6_2 Zn1 1_555 1_555
C18_3 C19_3 1_555 1_555
H25_3 C35_3 1_555 1_555
N6_2 C7_3 1_555 1_555
C1_3 N1_3 1_555 1_555
H1_3 C1_3 1_555 1_555
C2_3 C1_3 1_555 1_555
H2_3 C2_3 1_555 1_555
C3_3 C2_3 1_555 1_555
C5_3 N1_3 1_555 1_555
C6_3 C3_3 1_555 1_555
C8_3 C7_3 1_555 1_555
C9_3 C8_3 1_555 1_555
C10_3 C9_3 1_555 1_555
H8_3 C10_3 1_555 1_555
C11_3 N6_2 1_555 1_555
H9_3 C11_3 1_555 1_555
C12_3 C6_3 1_555 1_555
H10_3 C12_3 1_555 1_555
H11_3 C15_3 1_555 1_555
H17_3 C24_3 1_555 1_555
C9_3 C12_3 1_555 1_555
C10_3 C11_3 1_555 1_555
H3_3 C4_3 1_555 1_555
Zn7 O9_2 1_555 1_555
O6_3 Zn6 1_555 1_555
O9_2 C40_3 1_555 1_555
O12_2 C40_3 1_555 1_555
N4_2 C21_3 1_555 1_555
N5_3 Zn6 1_555 1_555
C21_3 H15_3 1_555 1_555
C22_3 C21_3 1_555 1_555
H16_3 C22_3 1_555 1_555
C23_3 C22_3 1_555 1_555
C25_3 N4_2 1_555 1_555
C27_3 N5_3 1_555 1_555
C28_3 C27_3 1_555 1_555
C29_3 C28_3 1_555 1_555
C30_3 C29_3 1_555 1_555
H22_3 C30_3 1_555 1_555
C31_3 N5_3 1_555 1_555
H23_3 C31_3 1_555 1_555
H24_3 C32_3 1_555 1_555
C33_3 O6_3 1_555 1_555
C34_3 C33_3 1_555 1_555
C37_3 C36_3 1_555 1_555
C38_3 C37_3 1_555 1_555
H27_3 C38_3 1_555 1_555
C39_3 C34_3 1_555 1_555
H28_3 C39_3 1_555 1_555
C40_3 C37_3 1_555 1_555
C23_3 C26_3 1_555 1_555
C26_3 C32_3 1_555 1_555
C29_3 C32_3 1_555 1_555
C30_3 C31_3 1_555 1_555
C38_3 C39_3 1_555 1_555
O6_4 Zn8 1_555 1_555
O7_2 C40_4 1_555 1_555
O10_2 C40_4 1_555 1_555
N3_2 C21_4 1_555 1_555
N5_4 Zn8 1_555 1_555
C21_4 H15_4 1_555 1_555
C22_4 C21_4 1_555 1_555
H16_4 C22_4 1_555 1_555
C23_4 C22_4 1_555 1_555
C24_4 C23_4 1_555 1_555
H17_4 C24_4 1_555 1_555
C25_4 N3_2 1_555 1_555
H18_4 C25_4 1_555 1_555
H19_4 C26_4 1_555 1_555
C27_4 N5_4 1_555 1_555
H20_4 C27_4 1_555 1_555
C28_4 C27_4 1_555 1_555
H21_4 C28_4 1_555 1_555
C29_4 C28_4 1_555 1_555
C30_4 C29_4 1_555 1_555
C31_4 N5_4 1_555 1_555
H23_4 C31_4 1_555 1_555
C33_4 O6_4 1_555 1_555
C34_4 C33_4 1_555 1_555
C37_4 C36_4 1_555 1_555
C38_4 C37_4 1_555 1_555
H27_4 C38_4 1_555 1_555
C39_4 C34_4 1_555 1_555
H28_4 C39_4 1_555 1_555
C40_4 C37_4 1_555 1_555
C23_4 C26_4 1_555 1_555
C24_4 C25_4 1_555 1_555
C26_4 C32_4 1_555 1_555
C29_4 C32_4 1_555 1_555
C30_4 C31_4 1_555 1_555
C38_4 C39_4 1_555 1_555
N2_2 C7_4 1_555 1_555
C1_4 N1_4 1_555 1_555
H1_4 C1_4 1_555 1_555
C2_4 C1_4 1_555 1_555
H2_4 C2_4 1_555 1_555
C3_4 C2_4 1_555 1_555
C4_4 C3_4 1_555 1_555
H3_4 C4_4 1_555 1_555
C5_4 N1_4 1_555 1_555
H4_4 C5_4 1_555 1_555
C6_4 C3_4 1_555 1_555
H5_4 C6_4 1_555 1_555
C7_4 H6_4 1_555 1_555
C8_4 C7_4 1_555 1_555
H7_4 C8_4 1_555 1_555
C9_4 C8_4 1_555 1_555
C10_4 C9_4 1_555 1_555
C11_4 N2_2 1_555 1_555
H9_4 C11_4 1_555 1_555
C12_4 C6_4 1_555 1_555
H11_4 C15_4 1_555 1_555
Zn7 N2_2 1_555 1_555
C4_4 C5_4 1_555 1_555
C9_4 C12_4 1_555 1_555
C10_4 C11_4 1_555 1_555
H25_4 C35_4 1_555 1_555
O2_4 Zn7 1_555 1_555
O8_2 C20_4 1_555 1_555
O11_2 C20_4 1_555 1_555
C13_4 O2_4 1_555 1_555
C14_4 C13_4 1_555 1_555
C17_4 C16_4 1_555 1_555
C18_4 C17_4 1_555 1_555
H13_4 C18_4 1_555 1_555
C19_4 C14_4 1_555 1_555
H14_4 C19_4 1_555 1_555
C20_4 C17_4 1_555 1_555
C18_4 C19_4 1_555 1_555

#END
