
###############################################################################
#
# This file contains modified crystal structure data generated from the
# MOF subset of the Cambridge Structural Database (CSD) v543 
# hosted by the Cambridge Crystallographic Data Centre (CCDC).
#
# This work is licensed under the Creative Commons
# Attribution-NonCommercial-ShareAlike 4.0 International License.
# To view a copy of this license, visit
# http://creativecommons.org/licenses/by-nc-sa/4.0/
# or send a letter to
# Creative Commons, PO Box 1866, Mountain View, CA 94042, USA.
#
# CIF created using the CSD Python API on 29 September 2022
# The structure has been converted into the P1 space group
# The structure has a 3D framework
# The original CSD entry SUJYAA is in the rhombohedral crystal system
# The framework has been calculated to contain at least 10.0% void space
# The void calculation uses a probe of radius 1.32A, grid spacing 0.4
# H atom positions have been added when not included in the experimental data
#
###############################################################################

data_SUJYAA
_chemical_formula_moiety         '(C612 H618 Ni72 O352)n'
_symmetry_cell_setting           triclinic
_symmetry_space_group_name_H-M   'P 1'
_symmetry_Int_Tables_number      1
_space_group_name_Hall           'P 1'
loop_
_symmetry_equiv_pos_site_id
_symmetry_equiv_pos_as_xyz
1 x,y,z
_cell_length_a                   33.7013(4)
_cell_length_b                   33.7013(4)
_cell_length_c                   22.4423(3)
_cell_angle_alpha                90
_cell_angle_beta                 90
_cell_angle_gamma                120
_cell_volume                     22074.5
loop_
_atom_site_label
_atom_site_type_symbol
_atom_site_fract_x
_atom_site_fract_y
_atom_site_fract_z
Ni1 Ni 0.62126(3) 0.52283(3) 0.39414(4)
Ni2 Ni 0.57767(4) 0.45261(4) 0.53118(5)
Ni3 Ni 0.75477(4) 0.58485(5) 0.27128(5)
Ni4 Ni 0.63516(4) 0.37606(4) 0.65181(6)
O1 O 0.88495(13) 0.59301(14) 0.35376(17)
O2 O 0.63077(13) 0.48283(13) 0.58994(17)
O3 O 0.91368(14) 0.55258(13) 0.41664(17)
O4 O 0.68543(14) 0.57322(14) 0.41731(18)
O5 O 0.62214(15) 0.49858(15) 0.47502(18)
O6 O 0.80988(15) 0.58492(17) 0.30009(19)
O7 O 0.66070(14) 0.44427(14) 0.65259(19)
O8 O 0.75317(14) 0.60743(14) 0.35410(17)
O9 O 0.86183(15) 0.46019(14) 0.58882(17)
O10 O 0.70144(15) 0.39356(15) 0.6552(2)
O11 O 0.88986(15) 0.47417(14) 0.47480(18)
O12 O 0.79277(15) 0.43084(15) 0.65138(19)
O13 O 0.5955(2) 0.5596(2) 0.4366(3)
O14 O 0.5567(3) 0.4999(3) 0.5454(4)
C1 C 0.90004(18) 0.58560(19) 0.5058(2)
C2 C 0.85902(19) 0.60728(19) 0.3852(2)
C3 C 0.7042(2) 0.5535(2) 0.5967(2)
C4 C 0.6653(2) 0.5220(2) 0.5651(2)
C5 C 0.87040(19) 0.62550(18) 0.4423(2)
C6 C 0.6599(2) 0.5294(2) 0.5049(3)
C7 C 0.7342(2) 0.5145(2) 0.6612(2)
C8 C 0.90089(18) 0.54935(19) 0.4754(2)
C9 C 0.91223(19) 0.62938(18) 0.4733(3)
H1 H 0.933619 0.632438 0.441645
C10 C 0.7321(2) 0.60128(19) 0.5069(3)
C11 C 0.80174(19) 0.63299(19) 0.4426(3)
C12 C 0.8034(2) 0.5075(2) 0.6605(2)
C13 C 0.87263(19) 0.5369(2) 0.5954(2)
C14 C 0.7368(2) 0.59225(19) 0.5665(3)
H2 H 0.762983 0.613171 0.586962
C15 C 0.84090(19) 0.63788(18) 0.4701(3)
H3 H 0.847833 0.649874 0.508422
C16 C 0.8885(2) 0.50847(19) 0.5043(2)
C17 C 0.6933(2) 0.5687(2) 0.4760(2)
C18 C 0.7683(2) 0.64393(18) 0.4745(3)
H4 H 0.752288 0.651114 0.443545
C19 C 0.81985(19) 0.6020(2) 0.3558(3)
C20 C 0.88561(18) 0.57794(19) 0.5650(2)
H5 H 0.884556 0.601373 0.585541
C21 C 0.79154(19) 0.61474(19) 0.3850(3)
C22 C 0.7818(2) 0.5337(2) 0.6633(2)
H6 H 0.799995 0.565297 0.666632
C23 C 0.87397(19) 0.50168(19) 0.5639(2)
C24 C 0.7280(2) 0.4395(2) 0.6562(3)
C25 C 0.7114(2) 0.5435(2) 0.6604(2)
H7 H 0.680822 0.524562 0.677715
C26 C 0.7075(2) 0.4668(2) 0.6564(2)
C27 C 0.7757(2) 0.4601(2) 0.6557(3)
C28 C 0.8557(2) 0.5290(2) 0.6592(2)
H8 H 0.862465 0.506193 0.676021
O15 O 0.6447(3) 0.4794(2) 0.3536(4)
C29 C 0.9375(2) 0.6724(2) 0.5121(3)
H9 H 0.945010 0.698994 0.488558
H10 H 0.965190 0.674519 0.527243
H11 H 0.918283 0.670506 0.544733
C30 C 0.7921(2) 0.6860(2) 0.5152(3)
H12 H 0.812095 0.712430 0.491935
H13 H 0.809577 0.680913 0.544890
H14 H 0.769419 0.690918 0.534351
C31 C 0.8803(2) 0.5716(2) 0.6985(3)
H15 H 0.912346 0.581281 0.700395
H16 H 0.867526 0.564627 0.737907
H17 H 0.876557 0.595810 0.681891
O16 O 0.6305(3) 0.3811(3) 0.7490(3)
O17 O 0.5306(3) 0.5469(3) 0.5649(3)
C32 C 0.7359(3) 0.5866(2) 0.6994(3)
H18 H 0.736648 0.577904 0.739894
H19 H 0.719796 0.603335 0.697300
H20 H 0.766689 0.605578 0.685193
O18 O 0.6397(3) 0.3723(3) 0.5518(4)
C33 C 0.5826(5) 0.5874(4) 0.4169(6)
H21 H 0.584250 0.593829 0.376422
H22 H 0.571724 0.601037 0.443333
C34 C 0.5331(3) 0.5126(4) 0.5670(4)
H23 H 0.510983 0.490640 0.591839
O19 O 0.6112(6) 0.4103(6) 0.4897(8)
O20 O 0.7167(5) 0.5054(5) 0.3055(7)
Ni5 Ni 0.85616(3) 0.56824(4) 0.27253(4)
Ni6 Ni 0.87494(6) 0.42233(4) 0.53118(5)
Ni7 Ni 0.49675(6) 0.57856(4) 0.60461(5)
Ni8 Ni 0.91818(5) 0.49675(6) 0.39539(5)
Ni9 Ni 0.74090(6) 0.36484(4) 0.65181(6)
O21 O 0.62527(19) 0.55162(13) 0.31291(17)
O22 O 0.69443(19) 0.58035(14) 0.25003(17)
O23 O 0.55829(23) 0.47655(15) 0.36658(19)
O24 O 0.53981(14) 0.40164(21) 0.58882(17)
O25 O 0.60644(15) 0.30788(21) 0.6552(2)
O26 O 0.52583(14) 0.41569(21) 0.47480(18)
O27 O 0.74902(21) 0.55653(15) 0.19187(18)
O28 O 0.56916(15) 0.36193(21) 0.65138(19)
O29 O 0.7864(3) 0.6504(4) 0.2316(3)
H24 H 0.660877 0.471241 0.38393
H25 H 0.617945 0.451028 0.338105
H26 H 0.722154 0.504655 0.348862
H27 H 0.683266 0.4908 0.297944
H28 H 0.54792 0.558797 0.411033
H29 H 0.610192 0.393756 0.758325
H30 H 0.617683 0.350179 0.767025
H31 H 0.613731 0.390973 0.521176
H32 H 0.591541 0.390457 0.456867
H33 H 0.672084 0.391555 0.539035
H34 H 0.628317 0.340036 0.539704
Ni1_2 Ni 0.47717(3) 0.09843(4) 0.39414(4)
Ni2_2 Ni 0.54739(4) 0.12506(6) 0.53118(5)
Ni3_2 Ni 0.41515(5) 0.16992(6) 0.27128(5)
Ni4_2 Ni 0.62394(4) 0.25910(6) 0.65181(6)
O1_2 O 0.40699(14) 0.29194(19) 0.35376(17)
O2_2 O 0.51717(13) 0.14794(18) 0.58994(17)
O3_2 O 0.44742(13) 0.36110(19) 0.41664(17)
O4_2 O 0.42678(14) 0.11221(20) 0.41731(18)
O5_2 O 0.50142(15) 0.12356(21) 0.47502(18)
O6_2 O 0.41508(17) 0.22496(23) 0.30009(19)
O7_2 O 0.55573(14) 0.21643(20) 0.65259(19)
O8_2 O 0.39257(14) 0.14574(20) 0.35410(17)
O13_2 O 0.4404(2) 0.0359(3) 0.4366(3)
O14_2 O 0.5001(3) 0.0568(4) 0.5454(4)
C1_2 C 0.41440(19) 0.31444(26) 0.5058(2)
C2_2 C 0.39272(19) 0.25174(27) 0.3852(2)
C3_2 C 0.4465(2) 0.1507(3) 0.5967(2)
C4_2 C 0.4780(2) 0.1433(3) 0.5651(2)
C5_2 C 0.37450(18) 0.24490(26) 0.4423(2)
C6_2 C 0.4706(2) 0.1305(3) 0.5049(3)
C7_2 C 0.4855(2) 0.2197(3) 0.6612(2)
C8_2 C 0.45065(19) 0.35154(26) 0.4754(2)
C9_2 C 0.37062(18) 0.28285(26) 0.4733(3)
H1_2 H 0.367562 0.301181 0.441645
C10_2 C 0.39872(19) 0.13082(28) 0.5069(3)
C11_2 C 0.36701(19) 0.16875(27) 0.4426(3)
C12_2 C 0.4925(2) 0.2959(3) 0.6605(2)
C13_2 C 0.4631(2) 0.33573(28) 0.5954(2)
C14_2 C 0.40775(19) 0.14455(28) 0.5665(3)
H2_2 H 0.386829 0.149812 0.586962
C15_2 C 0.36212(18) 0.20302(26) 0.4701(3)
H3_2 H 0.350126 0.197959 0.508422
C16_2 C 0.49153(19) 0.38003(28) 0.5043(2)
C17_2 C 0.4313(2) 0.1246(3) 0.4760(2)
C18_2 C 0.35607(18) 0.12437(27) 0.4745(3)
H4_2 H 0.348886 0.101174 0.443545
C19_2 C 0.3980(2) 0.21785(28) 0.3558(3)
C20_2 C 0.42206(19) 0.30767(26) 0.5650(2)
H5_2 H 0.398627 0.283183 0.585541
C21_2 C 0.38526(19) 0.17680(27) 0.3850(3)
C22_2 C 0.4663(2) 0.2481(3) 0.6633(2)
H6_2 H 0.434703 0.234698 0.666632
C23_2 C 0.49832(19) 0.37229(27) 0.5639(2)
C24_2 C 0.5605(2) 0.2885(3) 0.6562(3)
C25_2 C 0.4565(2) 0.1679(3) 0.6604(2)
H7_2 H 0.475438 0.156260 0.677715
C26_2 C 0.5332(2) 0.2407(3) 0.6564(2)
C27_2 C 0.5399(2) 0.3156(3) 0.6557(3)
C28_2 C 0.4710(2) 0.3267(3) 0.6592(2)
H8_2 H 0.493807 0.356272 0.676021
O15_2 O 0.5206(2) 0.1653(4) 0.3536(4)
C29_2 C 0.3276(2) 0.2651(3) 0.5121(3)
H9_2 H 0.301006 0.246016 0.488558
H10_2 H 0.325481 0.290671 0.527243
H11_2 H 0.329494 0.247777 0.544733
C30_2 C 0.3140(2) 0.1061(3) 0.5152(3)
H12_2 H 0.287570 0.099665 0.491935
H13_2 H 0.319087 0.128664 0.544890
H14_2 H 0.309082 0.078501 0.534351
C31_2 C 0.4284(2) 0.3087(3) 0.6985(3)
H15_2 H 0.418719 0.331065 0.700395
H16_2 H 0.435373 0.302899 0.737907
H17_2 H 0.404190 0.280747 0.681891
O16_2 O 0.6189(3) 0.2494(4) 0.7490(3)
C32_2 C 0.4134(2) 0.1493(4) 0.6994(3)
H18_2 H 0.422096 0.158744 0.739894
H19_2 H 0.396665 0.116461 0.697300
H20_2 H 0.394422 0.161111 0.685193
O18_2 O 0.6277(3) 0.2674(4) 0.5518(4)
C34_2 C 0.4874(4) 0.0205(5) 0.5670(4)
H23_2 H 0.509360 0.020343 0.591839
O19_2 O 0.5897(6) 0.2009(8) 0.4897(8)
O20_2 O 0.4946(5) 0.2113(7) 0.3055(7)
Ni5_2 Ni 0.43176(4) 0.28793(5) 0.27253(4)
Ni8_2 Ni 0.50325(6) 0.42144(8) 0.39539(5)
O21_2 O 0.44838(13) 0.07366(23) 0.31291(17)
O22_2 O 0.41965(14) 0.11409(24) 0.25003(17)
O23_2 O 0.52345(15) 0.08175(27) 0.36658(19)
O24_2 O 0.59836(21) 0.13817(25) 0.58882(17)
O25_2 O 0.69212(21) 0.29856(26) 0.6552(2)
O26_2 O 0.58431(21) 0.11014(25) 0.47480(18)
O27_2 O 0.44347(15) 0.19250(26) 0.19187(18)
O28_2 O 0.63807(21) 0.20723(26) 0.65138(19)
O29_2 O 0.3496(4) 0.1361(5) 0.2316(3)
H24_2 H 0.528759 0.189636 0.38393
H25_2 H 0.548972 0.166917 0.338105
H26_2 H 0.495345 0.217499 0.348862
H27_2 H 0.5092 0.192466 0.297944
H29_2 H 0.606244 0.216436 0.758325
H30_2 H 0.649821 0.267505 0.767025
H31_2 H 0.609027 0.222757 0.521176
H32_2 H 0.609543 0.201084 0.456867
H33_2 H 0.608445 0.280529 0.539035
H34_2 H 0.659964 0.288281 0.539704
O17_2 O 0.4531(3) 0.9837(4) 0.5649(3)
C33_2 C 0.4126(4) 0.9952(6) 0.4169(6)
H21_2 H 0.406171 0.990421 0.376422
H22_2 H 0.398963 0.970687 0.443333
Ni7_2 Ni 0.42144(4) 0.91818(7) 0.60461(5)
H28_2 H 0.441203 0.989123 0.411033
O17_3 O 0.0163(4) 0.4694(3) 0.5649(3)
C33_3 C 0.0048(6) 0.4174(5) 0.4169(6)
H21_3 H 0.009579 0.415750 0.376422
H22_3 H 0.029313 0.428276 0.443333
Ni7_3 Ni 0.08182(7) 0.50325(6) 0.60461(5)
H28_3 H 0.0108767 0.45208 0.411033
Ni1_3 Ni 0.90157(4) 0.37874(3) 0.39414(4)
Ni3_3 Ni 0.83008(6) 0.24523(4) 0.27128(5)
O1_3 O 0.70806(19) 0.11505(13) 0.35376(17)
O2_3 O 0.85206(18) 0.36923(13) 0.58994(17)
O3_3 O 0.63890(19) 0.08632(14) 0.41664(17)
O4_3 O 0.88779(20) 0.31457(14) 0.41731(18)
O5_3 O 0.87644(21) 0.37786(15) 0.47502(18)
O6_3 O 0.77504(23) 0.19012(15) 0.30009(19)
O7_3 O 0.78357(20) 0.33930(14) 0.65259(19)
O8_3 O 0.85426(20) 0.24683(14) 0.35410(17)
O13_3 O 0.9641(3) 0.4045(2) 0.4366(3)
O14_3 O 0.9432(4) 0.4433(3) 0.5454(4)
C1_3 C 0.68556(26) 0.09996(18) 0.5058(2)
C2_3 C 0.74826(27) 0.14098(19) 0.3852(2)
C3_3 C 0.8493(3) 0.2958(2) 0.5967(2)
C4_3 C 0.8567(3) 0.3347(2) 0.5651(2)
C5_3 C 0.75510(26) 0.12960(19) 0.4423(2)
C6_3 C 0.8695(3) 0.3401(2) 0.5049(3)
C7_3 C 0.7803(3) 0.2658(2) 0.6612(2)
C8_3 C 0.64846(26) 0.09911(18) 0.4754(2)
C9_3 C 0.71715(26) 0.08777(19) 0.4733(3)
H1_3 H 0.698819 0.066381 0.441645
C10_3 C 0.86918(28) 0.2679(2) 0.5069(3)
C11_3 C 0.83125(27) 0.19826(19) 0.4426(3)
C12_3 C 0.7041(3) 0.1966(2) 0.6605(2)
C13_3 C 0.66427(28) 0.12737(19) 0.5954(2)
C14_3 C 0.85545(28) 0.2632(2) 0.5665(3)
H2_3 H 0.850188 0.237017 0.586962
C15_3 C 0.79698(26) 0.15910(19) 0.4701(3)
H3_3 H 0.802041 0.152167 0.508422
C16_3 C 0.61997(28) 0.1115(2) 0.5043(2)
C17_3 C 0.8754(3) 0.3067(2) 0.4760(2)
C18_3 C 0.87563(27) 0.2317(2) 0.4745(3)
H4_3 H 0.898826 0.247712 0.443545
C19_3 C 0.78215(28) 0.18015(19) 0.3558(3)
C20_3 C 0.69233(26) 0.11439(18) 0.5650(2)
H5_3 H 0.716817 0.115444 0.585541
C21_3 C 0.82320(27) 0.20846(19) 0.3850(3)
C22_3 C 0.7519(3) 0.2182(2) 0.6633(2)
H6_3 H 0.765302 0.200005 0.666632
C23_3 C 0.62771(27) 0.12603(19) 0.5639(2)
C24_3 C 0.7115(3) 0.2720(2) 0.6562(3)
C25_3 C 0.8321(3) 0.2886(2) 0.6604(2)
H7_3 H 0.843740 0.319178 0.677715
C26_3 C 0.7593(3) 0.2925(2) 0.6564(2)
C27_3 C 0.6844(3) 0.2243(2) 0.6557(3)
C28_3 C 0.6733(3) 0.1443(2) 0.6592(2)
H8_3 H 0.643728 0.137535 0.676021
O15_3 O 0.8347(4) 0.3553(3) 0.3536(4)
C29_3 C 0.7349(3) 0.0625(2) 0.5121(3)
H9_3 H 0.753984 0.054990 0.488558
H10_3 H 0.709329 0.034810 0.527243
H11_3 H 0.752223 0.081717 0.544733
C30_3 C 0.8939(3) 0.2079(2) 0.5152(3)
H12_3 H 0.900335 0.187905 0.491935
H13_3 H 0.871336 0.190423 0.544890
H14_3 H 0.921499 0.230581 0.534351
C31_3 C 0.6913(3) 0.1197(2) 0.6985(3)
H15_3 H 0.668935 0.087654 0.700395
H16_3 H 0.697101 0.132474 0.737907
H17_3 H 0.719253 0.123443 0.681891
O16_3 O 0.7506(4) 0.3695(3) 0.7490(3)
C32_3 C 0.8507(4) 0.2641(3) 0.6994(3)
H18_3 H 0.841256 0.263352 0.739894
H19_3 H 0.883539 0.280204 0.697300
H20_3 H 0.838889 0.233311 0.685193
O18_3 O 0.7326(4) 0.3603(3) 0.5518(4)
C34_3 C 0.9795(5) 0.4669(3) 0.5670(4)
H23_3 H 0.979657 0.489017 0.591839
O19_3 O 0.7991(8) 0.3888(6) 0.4897(8)
O20_3 O 0.7887(7) 0.2833(5) 0.3055(7)
Ni5_3 Ni 0.71207(5) 0.14384(3) 0.27253(4)
Ni8_3 Ni 0.57856(8) 0.08182(5) 0.39539(5)
O21_3 O 0.92634(23) 0.37473(19) 0.31291(17)
O22_3 O 0.88591(24) 0.30557(19) 0.25003(17)
O23_3 O 0.91825(27) 0.44171(23) 0.36658(19)
O27_3 O 0.80750(26) 0.25098(21) 0.19187(18)
O29_3 O 0.8639(5) 0.2136(3) 0.2316(3)
H24_3 H 0.810364 0.339123 0.38393
H25_3 H 0.833083 0.382055 0.338105
H26_3 H 0.782501 0.277846 0.348862
H27_3 H 0.807534 0.316734 0.297944
H29_3 H 0.783564 0.389808 0.758325
H30_3 H 0.732495 0.382317 0.767025
H31_3 H 0.777243 0.386269 0.521176
H32_3 H 0.798916 0.408459 0.456867
H33_3 H 0.719471 0.327916 0.539035
H34_3 H 0.711719 0.371683 0.539704
Ni1_4 Ni 0.28793(3) 0.85616(3) 0.72747(4)
Ni2_3 Ni 0.24434(4) 0.78594(4) 0.86451(5)
Ni4_3 Ni 0.30183(4) 0.70939(4) 0.98514(6)
O1_4 O 0.55162(13) 0.92634(14) 0.68709(17)
O2_4 O 0.29744(13) 0.81616(13) 0.92327(17)
O3_4 O 0.58035(14) 0.88591(13) 0.74997(17)
O4_4 O 0.35210(14) 0.90655(14) 0.75064(18)
O5_4 O 0.28881(15) 0.83191(15) 0.80835(18)
O6_4 O 0.47655(15) 0.91825(17) 0.63342(19)
O7_4 O 0.32737(14) 0.77760(14) 0.98592(19)
O8_4 O 0.41984(14) 0.94076(14) 0.68743(17)
O9_2 O 0.52850(15) 0.79352(14) 0.92215(17)
O10_2 O 0.36811(15) 0.72689(15) 0.9885(2)
O11_2 O 0.55653(15) 0.80750(14) 0.80813(18)
O12_2 O 0.45944(15) 0.76417(15) 0.98471(19)
O13_4 O 0.2622(2) 0.8929(2) 0.7699(3)
O14_4 O 0.2234(3) 0.8332(3) 0.8787(4)
C1_4 C 0.56671(18) 0.91893(19) 0.8391(2)
C2_4 C 0.52569(19) 0.94061(19) 0.7185(2)
C3_4 C 0.3709(2) 0.8868(2) 0.9300(2)
C4_4 C 0.3320(2) 0.8553(2) 0.8984(2)
C5_4 C 0.53707(19) 0.95883(18) 0.7756(2)
C6_4 C 0.3266(2) 0.8627(2) 0.8382(3)
C7_4 C 0.4009(2) 0.8478(2) 0.9945(2)
C8_4 C 0.56756(18) 0.88268(19) 0.8087(2)
C9_4 C 0.57890(19) 0.96271(18) 0.8066(3)
H1_4 H 0.600286 0.965771 0.774978
C10_4 C 0.3988(2) 0.93461(19) 0.8402(3)
C11_4 C 0.46841(19) 0.96632(19) 0.7759(3)
C12_4 C 0.4701(2) 0.8408(2) 0.9938(2)
C13_4 C 0.53930(19) 0.8702(2) 0.9287(2)
C14_4 C 0.4035(2) 0.92558(19) 0.8998(3)
H2_4 H 0.429650 0.946504 0.920295
C15_4 C 0.50757(19) 0.97121(18) 0.8034(3)
H3_4 H 0.514500 0.983207 0.841755
C16_4 C 0.5552(2) 0.84180(19) 0.8376(2)
C17_4 C 0.3600(2) 0.9020(2) 0.8093(2)
C18_4 C 0.4350(2) 0.97726(18) 0.8078(3)
H4_4 H 0.418955 0.984447 0.776878
C19_4 C 0.48652(19) 0.9353(2) 0.6891(3)
C20_4 C 0.55228(18) 0.91127(19) 0.8983(2)
H5_4 H 0.551223 0.934706 0.918874
C21_4 C 0.45821(19) 0.94807(19) 0.7183(3)
C22_4 C 0.4485(2) 0.8670(2) 0.9966(2)
H6_4 H 0.466662 0.898630 0.999965
C23_4 C 0.54064(19) 0.83501(19) 0.8972(2)
C24_4 C 0.3947(2) 0.7728(2) 0.9895(3)
C25_4 C 0.3781(2) 0.8768(2) 0.9937(2)
C26_4 C 0.3742(2) 0.8001(2) 0.9897(2)
C27_4 C 0.4424(2) 0.7934(2) 0.9890(3)
C28_4 C 0.5224(2) 0.8623(2) 0.9925(2)
O15_4 O 0.3114(3) 0.8127(2) 0.6869(4)
O17_4 O 0.1973(3) 0.8802(3) 0.8982(3)
O18_4 O 0.3064(3) 0.7056(3) 0.8851(4)
C33_4 C 0.2493(5) 0.9207(4) 0.7502(6)
H21_4 H 0.250917 0.927162 0.709755
H22_4 H 0.238391 0.934370 0.776666
C34_4 C 0.1998(3) 0.8459(4) 0.9003(4)
H23_4 H 0.177650 0.823973 0.925172
O19_4 O 0.2779(6) 0.7436(6) 0.8230(8)
O20_4 O 0.3834(5) 0.8387(5) 0.6388(7)
Ni5_4 Ni 0.52283(3) 0.90157(4) 0.60586(4)
Ni6_2 Ni 0.54161(6) 0.75566(4) 0.86451(5)
Ni7_4 Ni 0.16341(6) 0.91190(4) 0.93795(5)
Ni8_4 Ni 0.58485(5) 0.83008(6) 0.72872(5)
Ni9_2 Ni 0.40757(6) 0.69817(4) 0.98514(6)
O21_4 O 0.29194(19) 0.88495(13) 0.64624(17)
O22_4 O 0.36110(19) 0.91368(14) 0.58336(17)
O23_4 O 0.22496(23) 0.80988(15) 0.69991(19)
O24_3 O 0.20648(14) 0.73497(21) 0.92215(17)
O25_3 O 0.27311(15) 0.64121(21) 0.9885(2)
O26_3 O 0.19250(14) 0.74902(21) 0.80813(18)
O27_4 O 0.41569(21) 0.88986(15) 0.52520(18)
O28_3 O 0.23583(15) 0.69526(21) 0.98471(19)
H24_4 H 0.327544 0.804575 0.717263
H25_4 H 0.284612 0.784361 0.671438
H26_4 H 0.38882 0.837988 0.682196
H27_4 H 0.349933 0.824133 0.631278
H28_4 H 0.214587 0.89213 0.744367
H31_4 H 0.280397 0.724307 0.854509
H32_4 H 0.258208 0.72379 0.7902
H33_4 H 0.33875 0.724888 0.872368
H34_4 H 0.294984 0.673369 0.873038
Ni1_5 Ni 0.14384(3) 0.43176(4) 0.72747(4)
Ni2_4 Ni 0.21406(4) 0.45839(6) 0.86451(5)
Ni4_4 Ni 0.29061(4) 0.59243(6) 0.98514(6)
O1_5 O 0.07366(14) 0.62527(19) 0.68709(17)
O2_5 O 0.18384(13) 0.48127(18) 0.92327(17)
O3_5 O 0.11409(13) 0.69443(19) 0.74997(17)
O4_5 O 0.09345(14) 0.44554(20) 0.75064(18)
O5_5 O 0.16809(15) 0.45689(21) 0.80835(18)
O6_5 O 0.08175(17) 0.55829(23) 0.63342(19)
O7_5 O 0.22240(14) 0.54976(20) 0.98592(19)
O8_5 O 0.05924(14) 0.47907(20) 0.68743(17)
O13_5 O 0.1071(2) 0.3692(3) 0.7699(3)
O14_5 O 0.1668(3) 0.3901(4) 0.8787(4)
C1_5 C 0.08107(19) 0.64777(26) 0.8391(2)
C2_5 C 0.05939(19) 0.58507(27) 0.7185(2)
C3_5 C 0.1132(2) 0.4840(3) 0.9300(2)
C4_5 C 0.1447(2) 0.4766(3) 0.8984(2)
C5_5 C 0.04117(18) 0.57823(26) 0.7756(2)
C6_5 C 0.1373(2) 0.4638(3) 0.8382(3)
C7_5 C 0.1522(2) 0.5530(3) 0.9945(2)
C8_5 C 0.11732(19) 0.68487(26) 0.8087(2)
C9_5 C 0.03729(18) 0.61618(26) 0.8066(3)
H1_5 H 0.034229 0.634514 0.774978
C10_5 C 0.06539(19) 0.46415(28) 0.8402(3)
C11_5 C 0.03368(19) 0.50208(27) 0.7759(3)
C12_5 C 0.1592(2) 0.6292(3) 0.9938(2)
C13_5 C 0.1298(2) 0.66906(28) 0.9287(2)
C14_5 C 0.07442(19) 0.47788(28) 0.8998(3)
H2_5 H 0.053496 0.483145 0.920295
C15_5 C 0.02879(18) 0.53635(26) 0.8034(3)
H3_5 H 0.016793 0.531292 0.841755
C16_5 C 0.15820(19) 0.71336(28) 0.8376(2)
C17_5 C 0.0980(2) 0.4579(3) 0.8093(2)
C18_5 C 0.02274(18) 0.45770(27) 0.8078(3)
H4_5 H 0.015553 0.434507 0.776878
C19_5 C 0.0647(2) 0.55118(28) 0.6891(3)
C20_5 C 0.08873(19) 0.64100(26) 0.8983(2)
H5_5 H 0.065294 0.616516 0.918874
C21_5 C 0.05193(19) 0.51013(27) 0.7183(3)
C22_5 C 0.1330(2) 0.5814(3) 0.9966(2)
H6_5 H 0.101370 0.568031 0.999965
C23_5 C 0.16499(19) 0.70562(27) 0.8972(2)
C24_5 C 0.2272(2) 0.6218(3) 0.9895(3)
C25_5 C 0.1232(2) 0.5012(3) 0.9937(2)
C26_5 C 0.1999(2) 0.5740(3) 0.9897(2)
C27_5 C 0.2066(2) 0.6489(3) 0.9890(3)
C28_5 C 0.1377(2) 0.6600(3) 0.9925(2)
O15_5 O 0.1873(2) 0.4986(4) 0.6869(4)
O17_5 O 0.1198(3) 0.3170(4) 0.8982(3)
O18_5 O 0.2944(3) 0.6007(4) 0.8851(4)
C33_5 C 0.0793(4) 0.3285(6) 0.7502(6)
H21_5 H 0.072838 0.323754 0.709755
H22_5 H 0.065630 0.304020 0.776666
C34_5 C 0.1541(4) 0.3538(5) 0.9003(4)
H23_5 H 0.176027 0.353676 0.925172
O19_5 O 0.2564(6) 0.5342(8) 0.8230(8)
O20_5 O 0.1613(5) 0.5446(7) 0.6388(7)
Ni5_5 Ni 0.09843(4) 0.62126(5) 0.60586(4)
Ni7_5 Ni 0.08810(4) 0.25152(7) 0.93795(5)
Ni8_5 Ni 0.16992(6) 0.75477(8) 0.72872(5)
O21_5 O 0.11505(13) 0.40699(23) 0.64624(17)
O22_5 O 0.08632(14) 0.44742(24) 0.58336(17)
O23_5 O 0.19012(15) 0.41508(27) 0.69991(19)
O24_4 O 0.26503(21) 0.47150(25) 0.92215(17)
O25_4 O 0.35879(21) 0.63189(26) 0.9885(2)
O26_4 O 0.25098(21) 0.44347(25) 0.80813(18)
O27_5 O 0.11014(15) 0.52583(26) 0.52520(18)
O28_4 O 0.30474(21) 0.54056(26) 0.98471(19)
H24_5 H 0.195425 0.522969 0.717263
H25_5 H 0.215639 0.500251 0.671438
H26_5 H 0.162012 0.550832 0.682196
H27_5 H 0.175867 0.525799 0.631278
H28_5 H 0.10787 0.322457 0.744367
H31_5 H 0.275693 0.556091 0.854509
H32_5 H 0.27621 0.534418 0.7902
H33_5 H 0.275112 0.613862 0.872368
H34_5 H 0.326631 0.621615 0.873038
Ni1_6 Ni 0.56824(4) 0.71207(3) 0.72747(4)
O1_6 O 0.37473(19) 0.44838(13) 0.68709(17)
O2_6 O 0.51873(18) 0.70256(13) 0.92327(17)
O3_6 O 0.30557(19) 0.41965(14) 0.74997(17)
O4_6 O 0.55446(20) 0.64790(14) 0.75064(18)
O5_6 O 0.54311(21) 0.71119(15) 0.80835(18)
O6_6 O 0.44171(23) 0.52345(15) 0.63342(19)
O7_6 O 0.45024(20) 0.67263(14) 0.98592(19)
O8_6 O 0.52093(20) 0.58016(14) 0.68743(17)
O13_6 O 0.6308(3) 0.7378(2) 0.7699(3)
O14_6 O 0.6099(4) 0.7766(3) 0.8787(4)
C1_6 C 0.35223(26) 0.43329(18) 0.8391(2)
C2_6 C 0.41493(27) 0.47431(19) 0.7185(2)
C3_6 C 0.5160(3) 0.6291(2) 0.9300(2)
C4_6 C 0.5234(3) 0.6680(2) 0.8984(2)
C5_6 C 0.42177(26) 0.46293(19) 0.7756(2)
C6_6 C 0.5362(3) 0.6734(2) 0.8382(3)
C7_6 C 0.4470(3) 0.5991(2) 0.9945(2)
C8_6 C 0.31513(26) 0.43244(18) 0.8087(2)
C9_6 C 0.38382(26) 0.42110(19) 0.8066(3)
H1_6 H 0.365486 0.399714 0.774978
C10_6 C 0.53585(28) 0.6012(2) 0.8402(3)
C11_6 C 0.49792(27) 0.53159(19) 0.7759(3)
C12_6 C 0.3708(3) 0.5299(2) 0.9938(2)
C13_6 C 0.33094(28) 0.46070(19) 0.9287(2)
C14_6 C 0.52212(28) 0.5965(2) 0.8998(3)
H2_6 H 0.516855 0.570350 0.920295
C15_6 C 0.46365(26) 0.49243(19) 0.8034(3)
H3_6 H 0.468708 0.485500 0.841755
C16_6 C 0.28664(28) 0.4448(2) 0.8376(2)
C17_6 C 0.5421(3) 0.6400(2) 0.8093(2)
C18_6 C 0.54230(27) 0.5650(2) 0.8078(3)
H4_6 H 0.565493 0.581045 0.776878
C19_6 C 0.44882(28) 0.51348(19) 0.6891(3)
C20_6 C 0.35900(26) 0.44772(18) 0.8983(2)
H5_6 H 0.383484 0.448777 0.918874
C21_6 C 0.48987(27) 0.54179(19) 0.7183(3)
C22_6 C 0.4186(3) 0.5515(2) 0.9966(2)
H6_6 H 0.431969 0.533338 0.999965
C23_6 C 0.29438(27) 0.45936(19) 0.8972(2)
C24_6 C 0.3782(3) 0.6053(2) 0.9895(3)
C25_6 C 0.4988(3) 0.6219(2) 0.9937(2)
C26_6 C 0.4260(3) 0.6258(2) 0.9897(2)
C27_6 C 0.3511(3) 0.5576(2) 0.9890(3)
C28_6 C 0.3400(3) 0.4776(2) 0.9925(2)
O15_6 O 0.5014(4) 0.6886(3) 0.6869(4)
C29_4 C 0.4016(3) 0.3958(2) 0.8454(3)
H9_4 H 0.420651 0.388323 0.821891
H10_4 H 0.375996 0.368143 0.860576
H11_4 H 0.418890 0.415050 0.878066
C30_4 C 0.5606(3) 0.5412(2) 0.8485(3)
H12_4 H 0.567002 0.521238 0.825268
H13_4 H 0.538003 0.523756 0.878223
H14_4 H 0.588166 0.563914 0.867684
O17_6 O 0.6830(4) 0.8027(3) 0.8982(3)
O18_6 O 0.3993(4) 0.6936(3) 0.8851(4)
C33_6 C 0.6715(6) 0.7507(5) 0.7502(6)
H21_6 H 0.676246 0.749083 0.709755
H22_6 H 0.695980 0.761609 0.776666
C34_6 C 0.6462(5) 0.8002(3) 0.9003(4)
H23_6 H 0.646324 0.822350 0.925172
O19_6 O 0.4658(8) 0.7221(6) 0.8230(8)
O20_6 O 0.4554(7) 0.6166(5) 0.6388(7)
Ni5_6 Ni 0.37874(5) 0.47717(3) 0.60586(4)
Ni7_6 Ni 0.74848(7) 0.83659(6) 0.93795(5)
Ni8_6 Ni 0.24523(8) 0.41515(5) 0.72872(5)
O21_6 O 0.59301(23) 0.70806(19) 0.64624(17)
O22_6 O 0.55258(24) 0.63890(19) 0.58336(17)
O23_6 O 0.58492(27) 0.77504(23) 0.69991(19)
O27_6 O 0.47417(26) 0.58431(21) 0.52520(18)
H24_6 H 0.477031 0.672456 0.717263
H25_6 H 0.499749 0.715388 0.671438
H26_6 H 0.449168 0.61118 0.682196
H27_6 H 0.474201 0.650067 0.631278
H28_6 H 0.677543 0.785413 0.744367
H31_6 H 0.443909 0.719603 0.854509
H32_6 H 0.465582 0.741792 0.7902
H33_6 H 0.386138 0.66125 0.872368
H34_6 H 0.378385 0.705016 0.873038
O1_7 O 0.21828(13) 0.25968(14) 0.02043(17)
O3_7 O 0.24701(14) 0.21925(13) 0.08331(17)
O4_7 O 0.01876(14) 0.23989(14) 0.08398(18)
O8_7 O 0.08650(14) 0.27410(14) 0.02077(17)
O9_3 O 0.19516(15) 0.12686(14) 0.25549(17)
O10_3 O 0.03477(15) 0.06023(15) 0.3219(2)
O11_3 O 0.22319(15) 0.14084(14) 0.14147(18)
O12_3 O 0.12610(15) 0.09751(15) 0.31805(19)
C1_7 C 0.23337(18) 0.25227(19) 0.1725(2)
C2_7 C 0.19235(19) 0.27395(19) 0.0519(2)
C3_7 C 0.0375(2) 0.2202(2) 0.2634(2)
C5_7 C 0.20373(19) 0.29217(18) 0.1090(2)
C7_7 C 0.0675(2) 0.1812(2) 0.3279(2)
C8_7 C 0.23422(18) 0.21602(19) 0.1421(2)
C9_7 C 0.24556(19) 0.29605(18) 0.1400(3)
H1_7 H 0.266952 0.299105 0.108312
C10_7 C 0.0654(2) 0.26795(19) 0.1736(3)
C11_7 C 0.13507(19) 0.29966(19) 0.1093(3)
C12_7 C 0.1367(2) 0.1742(2) 0.3272(2)
C13_7 C 0.20596(19) 0.2036(2) 0.2621(2)
C14_7 C 0.0701(2) 0.25892(19) 0.2332(3)
H2_7 H 0.096316 0.279838 0.253629
C15_7 C 0.17423(19) 0.30455(18) 0.1368(3)
H3_7 H 0.181166 0.316541 0.175089
C16_7 C 0.2218(2) 0.17514(19) 0.1710(2)
C17_7 C 0.0266(2) 0.2354(2) 0.1427(2)
C18_7 C 0.1016(2) 0.31060(18) 0.1412(3)
H4_7 H 0.085621 0.317781 0.110212
C19_7 C 0.15318(19) 0.2687(2) 0.0225(3)
C20_7 C 0.21894(18) 0.24461(19) 0.2317(2)
H5_7 H 0.217889 0.268040 0.252208
C21_7 C 0.12487(19) 0.28141(19) 0.0517(3)
C22_7 C 0.1151(2) 0.2004(2) 0.3300(2)
H6_7 H 0.133328 0.231964 0.333299
C23_7 C 0.20730(19) 0.16835(19) 0.2306(2)
C24_7 C 0.0613(2) 0.1062(2) 0.3229(3)
C25_7 C 0.0447(2) 0.2102(2) 0.3271(2)
H7_4 H 0.014155 0.191229 0.344382
C26_7 C 0.0408(2) 0.1335(2) 0.3231(2)
C27_7 C 0.1090(2) 0.1268(2) 0.3224(3)
C28_7 C 0.1890(2) 0.1957(2) 0.3259(2)
H8_4 H 0.195798 0.172860 0.342688
C29_5 C 0.2708(2) 0.3391(2) 0.1788(3)
H9_5 H 0.278343 0.365661 0.155225
H10_5 H 0.298523 0.341186 0.193910
H11_5 H 0.251616 0.337173 0.211400
C30_5 C 0.1254(2) 0.3527(2) 0.1819(3)
H12_5 H 0.145428 0.379097 0.158602
H13_5 H 0.142910 0.347580 0.211557
H14_5 H 0.102752 0.357585 0.201018
C31_4 C 0.2136(2) 0.2383(2) 0.3652(3)
H15_4 H 0.245679 0.247948 0.367062
H16_4 H 0.200859 0.231294 0.404574
H17_4 H 0.209890 0.262477 0.348558
C32_4 C 0.0692(3) 0.2533(2) 0.3661(3)
H18_4 H 0.069981 0.244571 0.406561
H19_4 H 0.053129 0.270002 0.363967
H20_4 H 0.100022 0.272245 0.351860
Ni6_3 Ni 0.20827(6) 0.08900(4) 0.19785(5)
Ni8_7 Ni 0.25152(5) 0.16341(6) 0.06205(5)
Ni9_3 Ni 0.07423(6) 0.03151(4) 0.31848(6)
H26_7 H 0.055487 0.171321 0.015529
H33_7 H 0.00541712 0.0582215 0.205702
O6_7 O 0.14321(15) 0.25159(17) 0.96676(19)
O20_7 O 0.0500(5) 0.1721(5) 0.9722(7)
Ni5_7 Ni 0.18950(3) 0.23490(4) 0.93919(4)
O22_7 O 0.02777(19) 0.24701(14) 0.91669(17)
O27_7 O 0.08236(21) 0.22319(15) 0.85853(18)
H27_7 H 0.0165994 0.157467 0.964611
Ni1_7 Ni 0.95459(3) 0.18950(3) 0.06081(4)
Ni2_5 Ni 0.91100(4) 0.11928(4) 0.19785(5)
Ni4_5 Ni 0.96849(4) 0.04273(4) 0.31848(6)
O2_7 O 0.96410(13) 0.14950(13) 0.25661(17)
O5_7 O 0.95547(15) 0.16525(15) 0.14169(18)
O7_7 O 0.99403(14) 0.11094(14) 0.31926(19)
O13_7 O 0.9288(2) 0.2263(2) 0.1033(3)
O14_7 O 0.8900(3) 0.1666(3) 0.2121(4)
C4_7 C 0.9986(2) 0.1887(2) 0.2318(2)
C6_7 C 0.9932(2) 0.1961(2) 0.1716(3)
O15_7 O 0.9780(3) 0.1461(2) 0.0203(4)
O16_4 O 0.9638(3) 0.0478(3) 0.4157(3)
O18_7 O 0.9730(3) 0.0390(3) 0.2185(4)
C33_7 C 0.9159(5) 0.2541(4) 0.0836(6)
H21_7 H 0.917583 0.260496 0.043089
H22_7 H 0.905057 0.267704 0.110000
C34_7 C 0.8664(3) 0.1793(4) 0.2337(4)
H23_7 H 0.844316 0.157307 0.258506
O19_7 O 0.9445(6) 0.0770(6) 0.1564(8)
O23_7 O 0.89163(23) 0.14321(15) 0.03324(19)
O24_5 O 0.87314(14) 0.06831(21) 0.25549(17)
O26_5 O 0.85916(14) 0.08236(21) 0.14147(18)
O28_5 O 0.90249(15) 0.02860(21) 0.31805(19)
H24_7 H 0.99421 0.137908 0.0505965
H25_7 H 0.951279 0.117695 0.00477153
H28_7 H 0.881253 0.225463 0.0776999
H29_4 H 0.943525 0.0604226 0.424992
H30_4 H 0.951017 0.0168452 0.433692
H31_7 H 0.947064 0.05764 0.187843
H32_7 H 0.924874 0.0571234 0.123534
H34_7 H 0.96165 0.0067024 0.206371
O25_5 O 0.93977(15) 0.97455(21) 0.3219(2)
O3_8 O 0.78075(13) 0.02777(19) 0.08331(17)
C8_8 C 0.78398(19) 0.01821(26) 0.1421(2)
C13_8 C 0.7964(2) 0.00240(28) 0.2621(2)
C16_8 C 0.82486(19) 0.04670(28) 0.1710(2)
C23_8 C 0.83165(19) 0.03896(27) 0.2306(2)
H8_5 H 0.827140 0.022939 0.342688
Ni8_8 Ni 0.83659(6) 0.08810(8) 0.06205(5)
Ni1_8 Ni 0.81050(3) 0.76510(4) 0.06081(4)
Ni2_6 Ni 0.88072(4) 0.79173(6) 0.19785(5)
Ni4_6 Ni 0.95727(4) 0.92577(6) 0.31848(6)
O1_8 O 0.74032(14) 0.95861(19) 0.02043(17)
O2_8 O 0.85050(13) 0.81461(18) 0.25661(17)
O4_8 O 0.76011(14) 0.77888(20) 0.08398(18)
O5_8 O 0.83475(15) 0.79023(21) 0.14169(18)
O7_8 O 0.88906(14) 0.88310(20) 0.31926(19)
O8_8 O 0.72590(14) 0.81241(20) 0.02077(17)
O13_8 O 0.7737(2) 0.7026(3) 0.1033(3)
O14_8 O 0.8334(3) 0.7235(4) 0.2121(4)
C1_8 C 0.74773(19) 0.98111(26) 0.1725(2)
C2_8 C 0.72605(19) 0.91841(27) 0.0519(2)
C3_8 C 0.7798(2) 0.8174(3) 0.2634(2)
C4_8 C 0.8113(2) 0.8100(3) 0.2318(2)
C5_8 C 0.70783(18) 0.91157(26) 0.1090(2)
C6_8 C 0.8039(2) 0.7972(3) 0.1716(3)
C7_8 C 0.8188(2) 0.8864(3) 0.3279(2)
C9_8 C 0.70395(18) 0.94952(26) 0.1400(3)
H1_8 H 0.700895 0.967848 0.108312
C10_8 C 0.73205(19) 0.79749(28) 0.1736(3)
C11_8 C 0.70034(19) 0.83542(27) 0.1093(3)
C12_8 C 0.8258(2) 0.9626(3) 0.3272(2)
C14_8 C 0.74108(19) 0.81122(28) 0.2332(3)
H2_8 H 0.720162 0.816479 0.253629
C15_8 C 0.69545(18) 0.86969(26) 0.1368(3)
H3_8 H 0.683459 0.864626 0.175089
C17_8 C 0.7646(2) 0.7913(3) 0.1427(2)
C18_8 C 0.68940(18) 0.79104(27) 0.1412(3)
H4_8 H 0.682219 0.767841 0.110212
C19_8 C 0.7313(2) 0.88452(28) 0.0225(3)
C20_8 C 0.75539(19) 0.97434(26) 0.2317(2)
H5_8 H 0.731960 0.949850 0.252208
C21_8 C 0.71859(19) 0.84347(27) 0.0517(3)
C22_8 C 0.7996(2) 0.9148(3) 0.3300(2)
H6_8 H 0.768036 0.901365 0.333299
C24_8 C 0.8938(2) 0.9552(3) 0.3229(3)
C25_8 C 0.7898(2) 0.8346(3) 0.3271(2)
H7_5 H 0.808771 0.822927 0.344382
C26_8 C 0.8665(2) 0.9074(3) 0.3231(2)
C27_8 C 0.8732(2) 0.9823(3) 0.3224(3)
C28_8 C 0.8043(2) 0.9934(3) 0.3259(2)
O15_8 O 0.8539(2) 0.8320(4) 0.0203(4)
C29_6 C 0.6609(2) 0.9318(3) 0.1788(3)
H9_6 H 0.634339 0.912683 0.155225
H10_6 H 0.658814 0.957338 0.193910
H11_6 H 0.662827 0.914444 0.211400
C30_6 C 0.6473(2) 0.7728(3) 0.1819(3)
H12_6 H 0.620903 0.766332 0.158602
H13_6 H 0.652420 0.795331 0.211557
H14_6 H 0.642415 0.745168 0.201018
C31_5 C 0.7617(2) 0.9754(3) 0.3652(3)
H15_5 H 0.752052 0.997732 0.367062
H16_5 H 0.768706 0.969566 0.404574
H17_5 H 0.737523 0.947414 0.348558
O16_5 O 0.9522(3) 0.9161(4) 0.4157(3)
C32_5 C 0.7467(2) 0.8160(4) 0.3661(3)
H18_5 H 0.755429 0.825411 0.406561
H19_5 H 0.729998 0.783128 0.363967
H20_5 H 0.727755 0.827778 0.351860
O18_8 O 0.9610(3) 0.9341(4) 0.2185(4)
C33_8 C 0.7459(4) 0.6619(6) 0.0836(6)
H21_8 H 0.739504 0.657088 0.043089
H22_8 H 0.732296 0.637354 0.110000
C34_8 C 0.8207(4) 0.6872(5) 0.2337(4)
H23_8 H 0.842693 0.687010 0.258506
O19_8 O 0.9230(6) 0.8676(8) 0.1564(8)
O23_8 O 0.85679(15) 0.74841(27) 0.03324(19)
O24_6 O 0.93169(21) 0.80484(25) 0.25549(17)
O26_6 O 0.91764(21) 0.77681(25) 0.14147(18)
O28_6 O 0.97140(21) 0.87390(26) 0.31805(19)
H24_8 H 0.862092 0.856302 0.0505965
H25_8 H 0.882305 0.833584 0.00477153
H26_8 H 0.828679 0.884166 0.015529
H28_8 H 0.774537 0.65579 0.0776999
H29_5 H 0.939577 0.883103 0.424992
H30_5 H 0.983155 0.934171 0.433692
H31_8 H 0.94236 0.889424 0.187843
H32_8 H 0.942877 0.867751 0.123534
H33_8 H 0.941779 0.947196 0.205702
H34_8 H 0.993298 0.954948 0.206371
O6_8 O 0.74841(17) 0.89163(23) 0.96676(19)
O20_8 O 0.8279(5) 0.8780(7) 0.9722(7)
Ni5_8 Ni 0.76510(4) 0.95459(5) 0.93919(4)
O21_7 O 0.78172(13) 0.74032(23) 0.97957(17)
O22_8 O 0.75299(14) 0.78075(24) 0.91669(17)
O27_8 O 0.77681(15) 0.85916(26) 0.85853(18)
H27_8 H 0.842533 0.859133 0.964611
Ni1_9 Ni 0.23490(4) 0.04541(3) 0.06081(4)
O2_9 O 0.18539(18) 0.03590(13) 0.25661(17)
O5_9 O 0.20977(21) 0.04453(15) 0.14169(18)
O7_9 O 0.11690(20) 0.00597(14) 0.31926(19)
O13_9 O 0.2974(3) 0.0712(2) 0.1033(3)
O14_9 O 0.2765(4) 0.1100(3) 0.2121(4)
C4_9 C 0.1900(3) 0.0014(2) 0.2318(2)
C6_9 C 0.2028(3) 0.0068(2) 0.1716(3)
O15_9 O 0.1680(4) 0.0220(3) 0.0203(4)
O16_6 O 0.0839(4) 0.0362(3) 0.4157(3)
O18_9 O 0.0659(4) 0.0270(3) 0.2185(4)
C33_9 C 0.3381(6) 0.0841(5) 0.0836(6)
H21_9 H 0.342912 0.082417 0.043089
H22_9 H 0.362646 0.094943 0.110000
C34_9 C 0.3128(5) 0.1336(3) 0.2337(4)
H23_9 H 0.312990 0.155684 0.258506
O19_9 O 0.1324(8) 0.0555(6) 0.1564(8)
O23_9 O 0.25159(27) 0.10837(23) 0.03324(19)
H24_9 H 0.143698 0.00578959 0.0505965
H25_9 H 0.166416 0.0487213 0.00477153
H28_9 H 0.34421 0.118747 0.0776999
H29_6 H 0.116897 0.0564747 0.424992
H30_6 H 0.0658287 0.0489834 0.433692
H31_9 H 0.110576 0.0529361 0.187843
H32_9 H 0.132249 0.0751256 0.123534
H34_9 H 0.0450521 0.0383497 0.206371
O21_8 O 0.25968(23) 0.04139(19) 0.97957(17)
O6_9 O 0.10837(23) 0.85679(15) 0.96676(19)
O20_9 O 0.1220(7) 0.9500(5) 0.9722(7)
Ni5_9 Ni 0.04541(5) 0.81050(3) 0.93919(4)
O22_9 O 0.21925(24) 0.97223(19) 0.91669(17)
O27_9 O 0.14084(26) 0.91764(21) 0.85853(18)
H27_9 H 0.140867 0.983401 0.964611
O3_9 O 0.97223(19) 0.75299(14) 0.08331(17)
C8_9 C 0.98179(26) 0.76578(18) 0.1421(2)
C13_9 C 0.99760(28) 0.79404(19) 0.2621(2)
C16_9 C 0.95330(28) 0.7782(2) 0.1710(2)
C23_9 C 0.96104(27) 0.79270(19) 0.2306(2)
H8_6 H 0.977061 0.804202 0.342688
Ni8_9 Ni 0.91190(8) 0.74848(5) 0.06205(5)
Ni2_7 Ni 0.42233(4) 0.54739(4) 0.46882(5)
Ni4_7 Ni 0.36484(4) 0.62394(4) 0.34819(6)
O2_10 O 0.36923(13) 0.51717(13) 0.41006(17)
O4_9 O 0.31457(14) 0.42678(14) 0.58269(18)
O5_10 O 0.37786(15) 0.50142(15) 0.52498(18)
O7_10 O 0.33930(14) 0.55573(14) 0.34741(19)
O8_9 O 0.24683(14) 0.39257(14) 0.64590(17)
O9_4 O 0.13817(15) 0.53981(14) 0.41118(17)
O10_4 O 0.29856(15) 0.60644(15) 0.3448(2)
O12_4 O 0.20723(15) 0.56916(15) 0.34862(19)
O13_10 O 0.4045(2) 0.4404(2) 0.5634(3)
O14_10 O 0.4433(3) 0.5001(3) 0.4546(4)
C1_9 C 0.09996(18) 0.41440(19) 0.4942(2)
C2_9 C 0.14098(19) 0.39272(19) 0.6148(2)
C3_9 C 0.2958(2) 0.4465(2) 0.4033(2)
C4_10 C 0.3347(2) 0.4780(2) 0.4349(2)
C5_9 C 0.12960(19) 0.37450(18) 0.5577(2)
C6_10 C 0.3401(2) 0.4706(2) 0.4951(3)
C7_9 C 0.2658(2) 0.4855(2) 0.3388(2)
C8_10 C 0.09911(18) 0.45065(19) 0.5246(2)
C9_9 C 0.08777(19) 0.37062(18) 0.5267(3)
H1_9 H 0.066381 0.367562 0.558355
C10_9 C 0.2679(2) 0.39872(19) 0.4931(3)
C11_9 C 0.19826(19) 0.36701(19) 0.5574(3)
C12_9 C 0.1966(2) 0.4925(2) 0.3395(2)
C13_10 C 0.12737(19) 0.4631(2) 0.4046(2)
C14_9 C 0.2632(2) 0.40775(19) 0.4335(3)
H2_9 H 0.237017 0.386829 0.413038
C15_9 C 0.15910(19) 0.36212(18) 0.5299(3)
H3_9 H 0.152167 0.350126 0.491578
C16_10 C 0.1115(2) 0.49153(19) 0.4957(2)
C17_9 C 0.3067(2) 0.4313(2) 0.5240(2)
C18_9 C 0.2317(2) 0.35607(18) 0.5255(3)
H4_9 H 0.247712 0.348886 0.556455
C19_9 C 0.18015(19) 0.3980(2) 0.6442(3)
C20_9 C 0.11439(18) 0.42206(19) 0.4350(2)
H5_9 H 0.115444 0.398627 0.414459
C21_9 C 0.20846(19) 0.38526(19) 0.6150(3)
C22_9 C 0.2182(2) 0.4663(2) 0.3367(2)
H6_9 H 0.200005 0.434703 0.333368
C23_10 C 0.12603(19) 0.49832(19) 0.4361(2)
C24_9 C 0.2720(2) 0.5605(2) 0.3438(3)
C25_9 C 0.2886(2) 0.4565(2) 0.3396(2)
H7_6 H 0.319178 0.475438 0.322285
C26_9 C 0.2925(2) 0.5332(2) 0.3436(2)
C27_9 C 0.2243(2) 0.5399(2) 0.3443(3)
C28_9 C 0.1443(2) 0.4710(2) 0.3408(2)
H8_7 H 0.137535 0.493807 0.323979
O15_10 O 0.3553(3) 0.5206(2) 0.6464(4)
C29_7 C 0.0625(2) 0.3276(2) 0.4879(3)
H9_7 H 0.054990 0.301006 0.511442
H10_7 H 0.034810 0.325481 0.472757
H11_7 H 0.081717 0.329494 0.455267
C30_7 C 0.2079(2) 0.3140(2) 0.4848(3)
H12_7 H 0.187905 0.287570 0.508065
H13_7 H 0.190423 0.319087 0.455110
H14_7 H 0.230581 0.309082 0.465649
C31_6 C 0.1197(2) 0.4284(2) 0.3015(3)
H15_6 H 0.087654 0.418719 0.299605
H16_6 H 0.132474 0.435373 0.262093
H17_6 H 0.123443 0.404190 0.318109
O16_7 O 0.3695(3) 0.6189(3) 0.2510(3)
O17_7 O 0.4694(3) 0.4531(3) 0.4351(3)
C32_6 C 0.2641(3) 0.4134(2) 0.3006(3)
H18_6 H 0.263352 0.422096 0.260106
H19_6 H 0.280204 0.396665 0.302700
H20_6 H 0.233311 0.394422 0.314807
O18_10 O 0.3603(3) 0.6277(3) 0.4482(4)
C33_10 C 0.4174(5) 0.4126(4) 0.5831(6)
H21_10 H 0.415750 0.406171 0.623578
H22_10 H 0.428276 0.398963 0.556667
C34_10 C 0.4669(3) 0.4874(4) 0.4330(4)
H23_10 H 0.489017 0.509360 0.408161
O19_10 O 0.3888(6) 0.5897(6) 0.5103(8)
O20_10 O 0.2833(5) 0.4946(5) 0.6945(7)
Ni6_4 Ni 0.12506(6) 0.57767(4) 0.46882(5)
Ni9_4 Ni 0.25910(6) 0.63516(4) 0.34819(6)
O24_7 O 0.46019(14) 0.59836(21) 0.41118(17)
O25_6 O 0.39356(15) 0.69212(21) 0.3448(2)
O28_7 O 0.43084(15) 0.63807(21) 0.34862(19)
O29_4 O 0.2136(3) 0.3496(4) 0.7684(3)
H24_10 H 0.339123 0.528759 0.61607
H25_10 H 0.382055 0.548972 0.661895
H26_9 H 0.277846 0.495345 0.651138
H27_10 H 0.316734 0.5092 0.702056
H28_10 H 0.45208 0.441203 0.588967
H29_7 H 0.389808 0.606244 0.241675
H30_7 H 0.382317 0.649821 0.232975
H31_10 H 0.386269 0.609027 0.478824
H32_10 H 0.408459 0.609543 0.543133
H33_9 H 0.327916 0.608445 0.460965
H34_10 H 0.371683 0.659964 0.460296
O17_8 O 0.5469(3) 0.0163(4) 0.4351(3)
C33_11 C 0.5874(4) 0.0048(6) 0.5831(6)
H21_11 H 0.593829 0.009579 0.623578
H22_11 H 0.601037 0.029313 0.556667
H28_11 H 0.558797 0.0108767 0.588967
Ni2_8 Ni 0.45261(4) 0.87494(6) 0.46882(5)
Ni4_8 Ni 0.37606(4) 0.74090(6) 0.34819(6)
O2_11 O 0.48283(13) 0.85206(18) 0.41006(17)
O4_10 O 0.57322(14) 0.88779(20) 0.58269(18)
O5_11 O 0.49858(15) 0.87644(21) 0.52498(18)
O7_11 O 0.44427(14) 0.78357(20) 0.34741(19)
O8_10 O 0.60743(14) 0.85426(20) 0.64590(17)
O13_11 O 0.5596(2) 0.9641(3) 0.5634(3)
O14_11 O 0.4999(3) 0.9432(4) 0.4546(4)
C1_10 C 0.58560(19) 0.68556(26) 0.4942(2)
C2_10 C 0.60728(19) 0.74826(27) 0.6148(2)
C3_10 C 0.5535(2) 0.8493(3) 0.4033(2)
C4_11 C 0.5220(2) 0.8567(3) 0.4349(2)
C5_10 C 0.62550(18) 0.75510(26) 0.5577(2)
C6_11 C 0.5294(2) 0.8695(3) 0.4951(3)
C7_10 C 0.5145(2) 0.7803(3) 0.3388(2)
C8_11 C 0.54935(19) 0.64846(26) 0.5246(2)
C9_10 C 0.62938(18) 0.71715(26) 0.5267(3)
H1_10 H 0.632438 0.698819 0.558355
C10_10 C 0.60128(19) 0.86918(28) 0.4931(3)
C11_10 C 0.63299(19) 0.83125(27) 0.5574(3)
C12_10 C 0.5075(2) 0.7041(3) 0.3395(2)
C13_11 C 0.5369(2) 0.66427(28) 0.4046(2)
C14_10 C 0.59225(19) 0.85545(28) 0.4335(3)
H2_10 H 0.613171 0.850188 0.413038
C15_10 C 0.63788(18) 0.79698(26) 0.5299(3)
H3_10 H 0.649874 0.802041 0.491578
C16_11 C 0.50847(19) 0.61997(28) 0.4957(2)
C17_10 C 0.5687(2) 0.8754(3) 0.5240(2)
C18_10 C 0.64393(18) 0.87563(27) 0.5255(3)
H4_10 H 0.651114 0.898826 0.556455
C19_10 C 0.6020(2) 0.78215(28) 0.6442(3)
C20_10 C 0.57794(19) 0.69233(26) 0.4350(2)
H5_10 H 0.601373 0.716817 0.414459
C21_10 C 0.61474(19) 0.82320(27) 0.6150(3)
C22_10 C 0.5337(2) 0.7519(3) 0.3367(2)
H6_10 H 0.565297 0.765302 0.333368
C23_11 C 0.50168(19) 0.62771(27) 0.4361(2)
C24_10 C 0.4395(2) 0.7115(3) 0.3438(3)
C25_10 C 0.5435(2) 0.8321(3) 0.3396(2)
H7_7 H 0.524562 0.843740 0.322285
C26_10 C 0.4668(2) 0.7593(3) 0.3436(2)
C27_10 C 0.4601(2) 0.6844(3) 0.3443(3)
C28_10 C 0.5290(2) 0.6733(3) 0.3408(2)
H8_8 H 0.506193 0.643728 0.323979
O15_11 O 0.4794(2) 0.8347(4) 0.6464(4)
C29_8 C 0.6724(2) 0.7349(3) 0.4879(3)
H9_8 H 0.698994 0.753984 0.511442
H10_8 H 0.674519 0.709329 0.472757
H11_8 H 0.670506 0.752223 0.455267
C30_8 C 0.6860(2) 0.8939(3) 0.4848(3)
H12_8 H 0.712430 0.900335 0.508065
H13_8 H 0.680913 0.871336 0.455110
H14_8 H 0.690918 0.921499 0.465649
C31_7 C 0.5716(2) 0.6913(3) 0.3015(3)
H15_7 H 0.581281 0.668935 0.299605
H16_7 H 0.564627 0.697101 0.262093
H17_7 H 0.595810 0.719253 0.318109
O16_8 O 0.3811(3) 0.7506(4) 0.2510(3)
C32_7 C 0.5866(2) 0.8507(4) 0.3006(3)
H18_7 H 0.577904 0.841256 0.260106
H19_7 H 0.603335 0.883539 0.302700
H20_7 H 0.605578 0.838889 0.314807
O18_11 O 0.3723(3) 0.7326(4) 0.4482(4)
C34_11 C 0.5126(4) 0.9795(5) 0.4330(4)
H23_11 H 0.490640 0.979657 0.408161
O19_11 O 0.4103(6) 0.7991(8) 0.5103(8)
O20_11 O 0.5054(5) 0.7887(7) 0.6945(7)
O24_8 O 0.40164(21) 0.86183(25) 0.41118(17)
O25_7 O 0.30788(21) 0.70144(26) 0.3448(2)
O28_8 O 0.36193(21) 0.79277(26) 0.34862(19)
O29_5 O 0.6504(4) 0.8639(5) 0.7684(3)
H24_11 H 0.471241 0.810364 0.61607
H25_11 H 0.451028 0.833083 0.661895
H26_10 H 0.504655 0.782501 0.651138
H27_11 H 0.4908 0.807534 0.702056
H29_8 H 0.393756 0.783564 0.241675
H30_8 H 0.350179 0.732495 0.232975
H31_11 H 0.390973 0.777243 0.478824
H32_11 H 0.390457 0.798916 0.543133
H33_10 H 0.391555 0.719471 0.460965
H34_11 H 0.340036 0.711719 0.460296
O2_12 O 0.14794(18) 0.63077(13) 0.41006(17)
O4_11 O 0.11221(20) 0.68543(14) 0.58269(18)
O5_12 O 0.12356(21) 0.62214(15) 0.52498(18)
O7_12 O 0.21643(20) 0.66070(14) 0.34741(19)
O8_11 O 0.14574(20) 0.75317(14) 0.64590(17)
O13_12 O 0.0359(3) 0.5955(2) 0.5634(3)
O14_12 O 0.0568(4) 0.5567(3) 0.4546(4)
C1_11 C 0.31444(26) 0.90004(18) 0.4942(2)
C2_11 C 0.25174(27) 0.85902(19) 0.6148(2)
C3_11 C 0.1507(3) 0.7042(2) 0.4033(2)
C4_12 C 0.1433(3) 0.6653(2) 0.4349(2)
C5_11 C 0.24490(26) 0.87040(19) 0.5577(2)
C6_12 C 0.1305(3) 0.6599(2) 0.4951(3)
C7_11 C 0.2197(3) 0.7342(2) 0.3388(2)
C8_12 C 0.35154(26) 0.90089(18) 0.5246(2)
C9_11 C 0.28285(26) 0.91223(19) 0.5267(3)
H1_11 H 0.301181 0.933619 0.558355
C10_11 C 0.13082(28) 0.7321(2) 0.4931(3)
C11_11 C 0.16875(27) 0.80174(19) 0.5574(3)
C12_11 C 0.2959(3) 0.8034(2) 0.3395(2)
C13_12 C 0.33573(28) 0.87263(19) 0.4046(2)
C14_11 C 0.14455(28) 0.7368(2) 0.4335(3)
H2_11 H 0.149812 0.762983 0.413038
C15_11 C 0.20302(26) 0.84090(19) 0.5299(3)
H3_11 H 0.197959 0.847833 0.491578
C16_12 C 0.38003(28) 0.8885(2) 0.4957(2)
C17_11 C 0.1246(3) 0.6933(2) 0.5240(2)
C18_11 C 0.12437(27) 0.7683(2) 0.5255(3)
H4_11 H 0.101174 0.752288 0.556455
C19_11 C 0.21785(28) 0.81985(19) 0.6442(3)
C20_11 C 0.30767(26) 0.88561(18) 0.4350(2)
H5_11 H 0.283183 0.884556 0.414459
C21_11 C 0.17680(27) 0.79154(19) 0.6150(3)
C22_11 C 0.2481(3) 0.7818(2) 0.3367(2)
H6_11 H 0.234698 0.799995 0.333368
C23_12 C 0.37229(27) 0.87397(19) 0.4361(2)
C24_11 C 0.2885(3) 0.7280(2) 0.3438(3)
C25_11 C 0.1679(3) 0.7114(2) 0.3396(2)
H7_8 H 0.156260 0.680822 0.322285
C26_11 C 0.2407(3) 0.7075(2) 0.3436(2)
C27_11 C 0.3156(3) 0.7757(2) 0.3443(3)
C28_11 C 0.3267(3) 0.8557(2) 0.3408(2)
H8_9 H 0.356272 0.862465 0.323979
O15_12 O 0.1653(4) 0.6447(3) 0.6464(4)
C29_9 C 0.2651(3) 0.9375(2) 0.4879(3)
H9_9 H 0.246016 0.945010 0.511442
H10_9 H 0.290671 0.965190 0.472757
H11_9 H 0.247777 0.918283 0.455267
C30_9 C 0.1061(3) 0.7921(2) 0.4848(3)
H12_9 H 0.099665 0.812095 0.508065
H13_9 H 0.128664 0.809577 0.455110
H14_9 H 0.078501 0.769419 0.465649
C31_8 C 0.3087(3) 0.8803(2) 0.3015(3)
H15_8 H 0.331065 0.912346 0.299605
H16_8 H 0.302899 0.867526 0.262093
H17_8 H 0.280747 0.876557 0.318109
O16_9 O 0.2494(4) 0.6305(3) 0.2510(3)
C32_8 C 0.1493(4) 0.7359(3) 0.3006(3)
H18_8 H 0.158744 0.736648 0.260106
H19_8 H 0.116461 0.719796 0.302700
H20_8 H 0.161111 0.766689 0.314807
O18_12 O 0.2674(4) 0.6397(3) 0.4482(4)
C34_12 C 0.0205(5) 0.5331(3) 0.4330(4)
H23_12 H 0.020343 0.510983 0.408161
O19_12 O 0.2009(8) 0.6112(6) 0.5103(8)
O20_12 O 0.2113(7) 0.7167(5) 0.6945(7)
O29_6 O 0.1361(5) 0.7864(3) 0.7684(3)
H24_12 H 0.189636 0.660877 0.61607
H25_12 H 0.166917 0.617945 0.661895
H26_11 H 0.217499 0.722154 0.651138
H27_12 H 0.192466 0.683266 0.702056
H29_9 H 0.216436 0.610192 0.241675
H30_9 H 0.267505 0.617683 0.232975
H31_12 H 0.222757 0.613731 0.478824
H32_12 H 0.201084 0.591541 0.543133
H33_11 H 0.280529 0.672084 0.460965
H34_12 H 0.288281 0.628317 0.460296
O17_9 O 0.9837(4) 0.5306(3) 0.4351(3)
C33_12 C 0.9952(6) 0.5826(5) 0.5831(6)
H21_12 H 0.990421 0.584250 0.623578
H22_12 H 0.970687 0.571724 0.556667
H28_12 H 0.989123 0.54792 0.588967
Ni2_9 Ni 0.75566(4) 0.21406(4) 0.13549(5)
Ni4_9 Ni 0.69817(4) 0.29061(4) 0.01486(6)
O2_13 O 0.70256(13) 0.18384(13) 0.07673(17)
O4_12 O 0.64790(14) 0.09345(14) 0.24936(18)
O5_13 O 0.71119(15) 0.16809(15) 0.19165(18)
O7_13 O 0.67263(14) 0.22240(14) 0.01408(19)
O8_12 O 0.58016(14) 0.05924(14) 0.31257(17)
O9_5 O 0.47150(15) 0.20648(14) 0.07785(17)
O10_5 O 0.63189(15) 0.27311(15) 0.0115(2)
O12_5 O 0.54056(15) 0.23583(15) 0.01529(19)
O13_13 O 0.7378(2) 0.1071(2) 0.2301(3)
O14_13 O 0.7766(3) 0.1668(3) 0.1213(4)
C1_12 C 0.43329(18) 0.08107(19) 0.1609(2)
C2_12 C 0.47431(19) 0.05939(19) 0.2815(2)
C3_12 C 0.6291(2) 0.1132(2) 0.0700(2)
C4_13 C 0.6680(2) 0.1447(2) 0.1016(2)
C5_12 C 0.46293(19) 0.04117(18) 0.2244(2)
C6_13 C 0.6734(2) 0.1373(2) 0.1618(3)
C7_12 C 0.5991(2) 0.1522(2) 0.0055(2)
C8_13 C 0.43244(18) 0.11732(19) 0.1913(2)
C9_12 C 0.42110(19) 0.03729(18) 0.1934(3)
H1_12 H 0.399714 0.034229 0.225022
C10_12 C 0.6012(2) 0.06539(19) 0.1598(3)
C11_12 C 0.53159(19) 0.03368(19) 0.2241(3)
C12_12 C 0.5299(2) 0.1592(2) 0.0062(2)
C13_13 C 0.46070(19) 0.1298(2) 0.0713(2)
C14_12 C 0.5965(2) 0.07442(19) 0.1002(3)
H2_12 H 0.570350 0.053496 0.079705
C15_12 C 0.49243(19) 0.02879(18) 0.1966(3)
H3_12 H 0.485500 0.016793 0.158245
C16_13 C 0.4448(2) 0.15820(19) 0.1624(2)
C17_12 C 0.6400(2) 0.0980(2) 0.1907(2)
C18_12 C 0.5650(2) 0.02274(18) 0.1922(3)
H4_12 H 0.581045 0.015553 0.223122
C19_12 C 0.51348(19) 0.0647(2) 0.3109(3)
C20_12 C 0.44772(18) 0.08873(19) 0.1017(2)
H5_12 H 0.448777 0.065294 0.081126
C21_12 C 0.54179(19) 0.05193(19) 0.2817(3)
C22_12 C 0.5515(2) 0.1330(2) 0.0034(2)
H6_12 H 0.533338 0.101370 0.000035
C23_13 C 0.45936(19) 0.16499(19) 0.1028(2)
C24_12 C 0.6053(2) 0.2272(2) 0.0105(3)
C25_12 C 0.6219(2) 0.1232(2) 0.0063(2)
C26_12 C 0.6258(2) 0.1999(2) 0.0103(2)
C27_12 C 0.5576(2) 0.2066(2) 0.0110(3)
C28_12 C 0.4776(2) 0.1377(2) 0.0075(2)
O15_13 O 0.6886(3) 0.1873(2) 0.3131(4)
O17_10 O 0.8027(3) 0.1198(3) 0.1018(3)
O18_13 O 0.6936(3) 0.2944(3) 0.1149(4)
C33_13 C 0.7507(5) 0.0793(4) 0.2498(6)
H21_13 H 0.749083 0.072838 0.290245
H22_13 H 0.761609 0.065630 0.223334
C34_13 C 0.8002(3) 0.1541(4) 0.0997(4)
H23_13 H 0.822350 0.176027 0.074828
O19_13 O 0.7221(6) 0.2564(6) 0.1770(8)
O20_13 O 0.6166(5) 0.1613(5) 0.3612(7)
Ni6_5 Ni 0.45839(6) 0.24434(4) 0.13549(5)
Ni9_5 Ni 0.59243(6) 0.30183(4) 0.01486(6)
O24_9 O 0.79352(14) 0.26503(21) 0.07785(17)
O25_8 O 0.72689(15) 0.35879(21) 0.0115(2)
O28_9 O 0.76417(15) 0.30474(21) 0.01529(19)
H24_13 H 0.672456 0.195425 0.282737
H25_13 H 0.715388 0.215639 0.328562
H26_12 H 0.61118 0.162012 0.317804
H27_13 H 0.650067 0.175867 0.368722
H28_13 H 0.785413 0.10787 0.255633
H31_13 H 0.719603 0.275693 0.145491
H32_13 H 0.741792 0.27621 0.2098
H33_12 H 0.66125 0.275112 0.127632
H34_13 H 0.705016 0.326631 0.126962
Ni2_10 Ni 0.78594(4) 0.54161(6) 0.13549(5)
Ni4_10 Ni 0.70939(4) 0.40757(6) 0.01486(6)
O2_14 O 0.81616(13) 0.51873(18) 0.07673(17)
O4_13 O 0.90655(14) 0.55446(20) 0.24936(18)
O5_14 O 0.83191(15) 0.54311(21) 0.19165(18)
O7_14 O 0.77760(14) 0.45024(20) 0.01408(19)
O8_13 O 0.94076(14) 0.52093(20) 0.31257(17)
O13_14 O 0.8929(2) 0.6308(3) 0.2301(3)
O14_14 O 0.8332(3) 0.6099(4) 0.1213(4)
C1_13 C 0.91893(19) 0.35223(26) 0.1609(2)
C2_13 C 0.94061(19) 0.41493(27) 0.2815(2)
C3_13 C 0.8868(2) 0.5160(3) 0.0700(2)
C4_14 C 0.8553(2) 0.5234(3) 0.1016(2)
C5_13 C 0.95883(18) 0.42177(26) 0.2244(2)
C6_14 C 0.8627(2) 0.5362(3) 0.1618(3)
C7_13 C 0.8478(2) 0.4470(3) 0.0055(2)
C8_14 C 0.88268(19) 0.31513(26) 0.1913(2)
C9_13 C 0.96271(18) 0.38382(26) 0.1934(3)
H1_13 H 0.965771 0.365486 0.225022
C10_13 C 0.93461(19) 0.53585(28) 0.1598(3)
C11_13 C 0.96632(19) 0.49792(27) 0.2241(3)
C12_13 C 0.8408(2) 0.3708(3) 0.0062(2)
C13_14 C 0.8702(2) 0.33094(28) 0.0713(2)
C14_13 C 0.92558(19) 0.52212(28) 0.1002(3)
H2_13 H 0.946504 0.516855 0.079705
C15_13 C 0.97121(18) 0.46365(26) 0.1966(3)
H3_13 H 0.983207 0.468708 0.158245
C16_14 C 0.84180(19) 0.28664(28) 0.1624(2)
C17_13 C 0.9020(2) 0.5421(3) 0.1907(2)
C18_13 C 0.97726(18) 0.54230(27) 0.1922(3)
H4_13 H 0.984447 0.565493 0.223122
C19_13 C 0.9353(2) 0.44882(28) 0.3109(3)
C20_13 C 0.91127(19) 0.35900(26) 0.1017(2)
H5_13 H 0.934706 0.383484 0.081126
C21_13 C 0.94807(19) 0.48987(27) 0.2817(3)
C22_13 C 0.8670(2) 0.4186(3) 0.0034(2)
H6_13 H 0.898630 0.431969 0.000035
C23_14 C 0.83501(19) 0.29438(27) 0.1028(2)
C24_13 C 0.7728(2) 0.3782(3) 0.0105(3)
C25_13 C 0.8768(2) 0.4988(3) 0.0063(2)
C26_13 C 0.8001(2) 0.4260(3) 0.0103(2)
C27_13 C 0.7934(2) 0.3511(3) 0.0110(3)
C28_13 C 0.8623(2) 0.3400(3) 0.0075(2)
O15_14 O 0.8127(2) 0.5014(4) 0.3131(4)
O17_11 O 0.8802(3) 0.6830(4) 0.1018(3)
O18_14 O 0.7056(3) 0.3993(4) 0.1149(4)
C33_14 C 0.9207(4) 0.6715(6) 0.2498(6)
H21_14 H 0.927162 0.676246 0.290245
H22_14 H 0.934370 0.695980 0.223334
C34_14 C 0.8459(4) 0.6462(5) 0.0997(4)
H23_14 H 0.823973 0.646324 0.074828
O19_14 O 0.7436(6) 0.4658(8) 0.1770(8)
O20_14 O 0.8387(5) 0.4554(7) 0.3612(7)
O24_10 O 0.73497(21) 0.52850(25) 0.07785(17)
O25_9 O 0.64121(21) 0.36811(26) 0.0115(2)
O28_10 O 0.69526(21) 0.45944(26) 0.01529(19)
H24_14 H 0.804575 0.477031 0.282737
H25_14 H 0.784361 0.499749 0.328562
H26_13 H 0.837988 0.449168 0.317804
H27_14 H 0.824133 0.474201 0.368722
H28_14 H 0.89213 0.677543 0.255633
H31_14 H 0.724307 0.443909 0.145491
H32_14 H 0.72379 0.465582 0.2098
H33_13 H 0.724888 0.386138 0.127632
H34_14 H 0.673369 0.378385 0.126962
O2_15 O 0.48127(18) 0.29744(13) 0.07673(17)
O4_14 O 0.44554(20) 0.35210(14) 0.24936(18)
O5_15 O 0.45689(21) 0.28881(15) 0.19165(18)
O7_15 O 0.54976(20) 0.32737(14) 0.01408(19)
O8_14 O 0.47907(20) 0.41984(14) 0.31257(17)
O13_15 O 0.3692(3) 0.2622(2) 0.2301(3)
O14_15 O 0.3901(4) 0.2234(3) 0.1213(4)
C1_14 C 0.64777(26) 0.56671(18) 0.1609(2)
C2_14 C 0.58507(27) 0.52569(19) 0.2815(2)
C3_14 C 0.4840(3) 0.3709(2) 0.0700(2)
C4_15 C 0.4766(3) 0.3320(2) 0.1016(2)
C5_14 C 0.57823(26) 0.53707(19) 0.2244(2)
C6_15 C 0.4638(3) 0.3266(2) 0.1618(3)
C7_14 C 0.5530(3) 0.4009(2) 0.0055(2)
C8_15 C 0.68487(26) 0.56756(18) 0.1913(2)
C9_14 C 0.61618(26) 0.57890(19) 0.1934(3)
H1_14 H 0.634514 0.600286 0.225022
C10_14 C 0.46415(28) 0.3988(2) 0.1598(3)
C11_14 C 0.50208(27) 0.46841(19) 0.2241(3)
C12_14 C 0.6292(3) 0.4701(2) 0.0062(2)
C13_15 C 0.66906(28) 0.53930(19) 0.0713(2)
C14_14 C 0.47788(28) 0.4035(2) 0.1002(3)
H2_14 H 0.483145 0.429650 0.079705
C15_14 C 0.53635(26) 0.50757(19) 0.1966(3)
H3_14 H 0.531292 0.514500 0.158245
C16_15 C 0.71336(28) 0.5552(2) 0.1624(2)
C17_14 C 0.4579(3) 0.3600(2) 0.1907(2)
C18_14 C 0.45770(27) 0.4350(2) 0.1922(3)
H4_14 H 0.434507 0.418955 0.223122
C19_14 C 0.55118(28) 0.48652(19) 0.3109(3)
C20_14 C 0.64100(26) 0.55228(18) 0.1017(2)
H5_14 H 0.616516 0.551223 0.081126
C21_14 C 0.51013(27) 0.45821(19) 0.2817(3)
C22_14 C 0.5814(3) 0.4485(2) 0.0034(2)
H6_14 H 0.568031 0.466662 0.000035
C23_15 C 0.70562(27) 0.54064(19) 0.1028(2)
C24_14 C 0.6218(3) 0.3947(2) 0.0105(3)
C25_14 C 0.5012(3) 0.3781(2) 0.0063(2)
C26_14 C 0.5740(3) 0.3742(2) 0.0103(2)
C27_14 C 0.6489(3) 0.4424(2) 0.0110(3)
C28_14 C 0.6600(3) 0.5224(2) 0.0075(2)
O15_15 O 0.4986(4) 0.3114(3) 0.3131(4)
C29_10 C 0.5984(3) 0.6042(2) 0.1546(3)
H9_10 H 0.579349 0.611677 0.178109
H10_10 H 0.624004 0.631857 0.139424
H11_10 H 0.581110 0.584950 0.121934
C30_10 C 0.4394(3) 0.4588(2) 0.1515(3)
H12_10 H 0.432998 0.478762 0.174732
H13_10 H 0.461997 0.476244 0.121777
H14_10 H 0.411834 0.436086 0.132316
O17_12 O 0.3170(4) 0.1973(3) 0.1018(3)
O18_15 O 0.6007(4) 0.3064(3) 0.1149(4)
C33_15 C 0.3285(6) 0.2493(5) 0.2498(6)
H21_15 H 0.323754 0.250917 0.290245
H22_15 H 0.304020 0.238391 0.223334
C34_15 C 0.3538(5) 0.1998(3) 0.0997(4)
H23_15 H 0.353676 0.177650 0.074828
O19_15 O 0.5342(8) 0.2779(6) 0.1770(8)
O20_15 O 0.5446(7) 0.3834(5) 0.3612(7)
H24_15 H 0.522969 0.327544 0.282737
H25_15 H 0.500251 0.284612 0.328562
H26_14 H 0.550832 0.38882 0.317804
H27_15 H 0.525799 0.349933 0.368722
H28_15 H 0.322457 0.214587 0.255633
H31_15 H 0.556091 0.280397 0.145491
H32_15 H 0.534418 0.258208 0.2098
H33_14 H 0.613862 0.33875 0.127632
H34_15 H 0.621615 0.294984 0.126962
O25_10 O 0.06023(15) 0.02545(21) 0.6781(2)
Ni2_11 Ni 0.08900(4) 0.88072(4) 0.80215(5)
Ni4_11 Ni 0.03151(4) 0.95727(4) 0.68152(6)
O2_16 O 0.03590(13) 0.85050(13) 0.74339(17)
O5_16 O 0.04453(15) 0.83475(15) 0.85831(18)
O7_16 O 0.00597(14) 0.88906(14) 0.68074(19)
O13_16 O 0.0712(2) 0.7737(2) 0.8967(3)
O14_16 O 0.1100(3) 0.8334(3) 0.7879(4)
C4_16 C 0.0014(2) 0.8113(2) 0.7682(2)
C6_16 C 0.0068(2) 0.8039(2) 0.8284(3)
O15_16 O 0.0220(3) 0.8539(2) 0.9797(4)
O16_10 O 0.0362(3) 0.9522(3) 0.5843(3)
O18_16 O 0.0270(3) 0.9610(3) 0.7815(4)
C33_16 C 0.0841(5) 0.7459(4) 0.9164(6)
H21_16 H 0.082417 0.739504 0.956911
H22_16 H 0.094943 0.732296 0.890000
C34_16 C 0.1336(3) 0.8207(4) 0.7663(4)
H23_16 H 0.155684 0.842693 0.741494
O19_16 O 0.0555(6) 0.9230(6) 0.8436(8)
O24_11 O 0.12686(14) 0.93169(21) 0.74451(17)
O28_11 O 0.09751(15) 0.97140(21) 0.68195(19)
H24_16 H 0.00578959 0.862092 0.949403
H25_16 H 0.0487213 0.882305 0.995228
H28_16 H 0.118747 0.774537 0.9223
H29_10 H 0.0564747 0.939577 0.575008
H30_10 H 0.0489834 0.983155 0.566308
H31_16 H 0.0529361 0.94236 0.812157
H32_16 H 0.0751256 0.942877 0.876466
H34_16 H 0.0383497 0.993298 0.793629
O20_16 O 0.9500(5) 0.8279(5) 0.0278(7)
H27_16 H 0.983401 0.842533 0.035389
O4_15 O 0.98124(14) 0.76011(14) 0.91602(18)
O8_15 O 0.91350(14) 0.72590(14) 0.97923(17)
O9_6 O 0.80484(15) 0.87314(14) 0.74451(17)
O10_6 O 0.96523(15) 0.93977(15) 0.6781(2)
O12_6 O 0.87390(15) 0.90249(15) 0.68195(19)
C1_15 C 0.76663(18) 0.74773(19) 0.8275(2)
C2_15 C 0.80765(19) 0.72605(19) 0.9481(2)
C3_15 C 0.9625(2) 0.7798(2) 0.7366(2)
C5_15 C 0.79627(19) 0.70783(18) 0.8910(2)
C7_15 C 0.9325(2) 0.8188(2) 0.6721(2)
C8_16 C 0.76578(18) 0.78398(19) 0.8579(2)
C9_15 C 0.75444(19) 0.70395(18) 0.8600(3)
H1_15 H 0.733048 0.700895 0.891688
C10_15 C 0.9346(2) 0.73205(19) 0.8264(3)
C11_15 C 0.86493(19) 0.70034(19) 0.8907(3)
C12_15 C 0.8633(2) 0.8258(2) 0.6728(2)
C13_16 C 0.79404(19) 0.7964(2) 0.7379(2)
C14_15 C 0.9299(2) 0.74108(19) 0.7668(3)
H2_15 H 0.903684 0.720162 0.746371
C15_15 C 0.82577(19) 0.69545(18) 0.8632(3)
H3_15 H 0.818834 0.683459 0.824911
C16_16 C 0.7782(2) 0.82486(19) 0.8290(2)
C17_15 C 0.9734(2) 0.7646(2) 0.8573(2)
C18_15 C 0.8984(2) 0.68940(18) 0.8588(3)
H4_15 H 0.914379 0.682219 0.889788
C19_15 C 0.84682(19) 0.7313(2) 0.9775(3)
C20_15 C 0.78106(18) 0.75539(19) 0.7683(2)
H5_15 H 0.782111 0.731960 0.747792
C21_15 C 0.87513(19) 0.71859(19) 0.9483(3)
C22_15 C 0.8849(2) 0.7996(2) 0.6700(2)
H6_15 H 0.866672 0.768036 0.666701
C23_16 C 0.79270(19) 0.83165(19) 0.7694(2)
C24_15 C 0.9387(2) 0.8938(2) 0.6771(3)
C25_15 C 0.9553(2) 0.7898(2) 0.6729(2)
H7_9 H 0.985845 0.808771 0.655618
C26_15 C 0.9592(2) 0.8665(2) 0.6769(2)
C27_15 C 0.8910(2) 0.8732(2) 0.6776(3)
C28_15 C 0.8110(2) 0.8043(2) 0.6741(2)
H8_10 H 0.804202 0.827140 0.657312
C29_11 C 0.7292(2) 0.6609(2) 0.8212(3)
H9_11 H 0.721657 0.634339 0.844775
H10_11 H 0.701477 0.658814 0.806090
H11_11 H 0.748384 0.662827 0.788600
C30_11 C 0.8746(2) 0.6473(2) 0.8181(3)
H12_11 H 0.854572 0.620903 0.841398
H13_11 H 0.857090 0.652420 0.788443
H14_11 H 0.897248 0.642415 0.798982
C31_9 C 0.7864(2) 0.7617(2) 0.6348(3)
H15_9 H 0.754321 0.752052 0.632938
H16_9 H 0.799141 0.768706 0.595426
H17_9 H 0.790110 0.737523 0.651442
C32_9 C 0.9308(3) 0.7467(2) 0.6339(3)
H18_9 H 0.930019 0.755429 0.593439
H19_9 H 0.946871 0.729998 0.636033
H20_9 H 0.899978 0.727755 0.648140
Ni6_6 Ni 0.79173(6) 0.91100(4) 0.80215(5)
Ni9_6 Ni 0.92577(6) 0.96849(4) 0.68152(6)
H26_15 H 0.944513 0.828679 0.984471
H33_15 H 0.994583 0.941779 0.794298
O20_17 O 0.1721(5) 0.1220(7) 0.0278(7)
H27_17 H 0.157467 0.140867 0.035389
Ni2_12 Ni 0.11928(4) 0.20827(6) 0.80215(5)
Ni4_12 Ni 0.04273(4) 0.07423(6) 0.68152(6)
O2_17 O 0.14950(13) 0.18539(18) 0.74339(17)
O4_16 O 0.23989(14) 0.22112(20) 0.91602(18)
O5_17 O 0.16525(15) 0.20977(21) 0.85831(18)
O7_17 O 0.11094(14) 0.11690(20) 0.68074(19)
O8_16 O 0.27410(14) 0.18759(20) 0.97923(17)
O13_17 O 0.2263(2) 0.2974(3) 0.8967(3)
O14_17 O 0.1666(3) 0.2765(4) 0.7879(4)
C1_16 C 0.25227(19) 0.01889(26) 0.8275(2)
C2_16 C 0.27395(19) 0.08159(27) 0.9481(2)
C3_16 C 0.2202(2) 0.1826(3) 0.7366(2)
C4_17 C 0.1887(2) 0.1900(3) 0.7682(2)
C5_16 C 0.29217(18) 0.08843(26) 0.8910(2)
C6_17 C 0.1961(2) 0.2028(3) 0.8284(3)
C7_16 C 0.1812(2) 0.1136(3) 0.6721(2)
C9_16 C 0.29605(18) 0.05048(26) 0.8600(3)
H1_16 H 0.299105 0.032152 0.891688
C10_16 C 0.26795(19) 0.20251(28) 0.8264(3)
C11_16 C 0.29966(19) 0.16458(27) 0.8907(3)
C12_16 C 0.1742(2) 0.0374(3) 0.6728(2)
C14_16 C 0.25892(19) 0.18878(28) 0.7668(3)
H2_16 H 0.279838 0.183521 0.746371
C15_16 C 0.30455(18) 0.13031(26) 0.8632(3)
H3_16 H 0.316541 0.135374 0.824911
C17_16 C 0.2354(2) 0.2087(3) 0.8573(2)
C18_16 C 0.31060(18) 0.20896(27) 0.8588(3)
H4_16 H 0.317781 0.232159 0.889788
C19_16 C 0.2687(2) 0.11548(28) 0.9775(3)
C20_16 C 0.24461(19) 0.02566(26) 0.7683(2)
H5_16 H 0.268040 0.050150 0.747792
C21_16 C 0.28141(19) 0.15653(27) 0.9483(3)
C22_16 C 0.2004(2) 0.0852(3) 0.6700(2)
H6_16 H 0.231964 0.098635 0.666701
C24_16 C 0.1062(2) 0.0448(3) 0.6771(3)
C25_16 C 0.2102(2) 0.1654(3) 0.6729(2)
H7_10 H 0.191229 0.177073 0.655618
C26_16 C 0.1335(2) 0.0926(3) 0.6769(2)
C27_16 C 0.1268(2) 0.0177(3) 0.6776(3)
C28_16 C 0.1957(2) 0.0066(3) 0.6741(2)
O15_17 O 0.1461(2) 0.1680(4) 0.9797(4)
C29_12 C 0.3391(2) 0.0682(3) 0.8212(3)
H9_12 H 0.365661 0.087317 0.844775
H10_12 H 0.341186 0.042662 0.806090
H11_12 H 0.337173 0.085556 0.788600
C30_12 C 0.3527(2) 0.2272(3) 0.8181(3)
H12_12 H 0.379097 0.233668 0.841398
H13_12 H 0.347580 0.204669 0.788443
H14_12 H 0.357585 0.254832 0.798982
C31_10 C 0.2383(2) 0.0246(3) 0.6348(3)
H15_10 H 0.247948 0.002268 0.632938
H16_10 H 0.231294 0.030434 0.595426
H17_10 H 0.262477 0.052586 0.651442
O16_11 O 0.0478(3) 0.0839(4) 0.5843(3)
C32_10 C 0.2533(2) 0.1840(4) 0.6339(3)
H18_10 H 0.244571 0.174589 0.593439
H19_10 H 0.270002 0.216872 0.636033
H20_10 H 0.272245 0.172222 0.648140
O18_17 O 0.0390(3) 0.0659(4) 0.7815(4)
C33_17 C 0.2541(4) 0.3381(6) 0.9164(6)
H21_17 H 0.260496 0.342912 0.956911
H22_17 H 0.267704 0.362646 0.890000
C34_17 C 0.1793(4) 0.3128(5) 0.7663(4)
H23_17 H 0.157307 0.312990 0.741494
O19_17 O 0.0770(6) 0.1324(8) 0.8436(8)
O24_12 O 0.06831(21) 0.19516(25) 0.74451(17)
O28_12 O 0.02860(21) 0.12610(26) 0.68195(19)
H24_17 H 0.137908 0.143698 0.949403
H25_17 H 0.117695 0.166416 0.995228
H26_16 H 0.171321 0.115834 0.984471
H28_17 H 0.225463 0.34421 0.9223
H29_11 H 0.0604226 0.116897 0.575008
H30_11 H 0.0168452 0.0658287 0.566308
H31_17 H 0.05764 0.110576 0.812157
H32_17 H 0.0571234 0.132249 0.876466
H33_16 H 0.0582215 0.0528043 0.794298
H34_17 H 0.0067024 0.0450521 0.793629
C8_17 C 0.21602(19) 0.98179(26) 0.8579(2)
C13_17 C 0.2036(2) 0.99760(28) 0.7379(2)
C16_17 C 0.17514(19) 0.95330(28) 0.8290(2)
C23_17 C 0.16835(19) 0.96104(27) 0.7694(2)
H8_11 H 0.172860 0.977061 0.657312
C8_18 C 0.01821(26) 0.23422(18) 0.8579(2)
C13_18 C 0.00240(28) 0.20596(19) 0.7379(2)
C16_18 C 0.04670(28) 0.2218(2) 0.8290(2)
C23_18 C 0.03896(27) 0.20730(19) 0.7694(2)
H8_12 H 0.022939 0.195798 0.657312
O20_18 O 0.8780(7) 0.0500(5) 0.0278(7)
H27_18 H 0.859133 0.0165994 0.035389
O2_18 O 0.81461(18) 0.96410(13) 0.74339(17)
O5_18 O 0.79023(21) 0.95547(15) 0.85831(18)
O7_18 O 0.88310(20) 0.99403(14) 0.68074(19)
O13_18 O 0.7026(3) 0.9288(2) 0.8967(3)
O14_18 O 0.7235(4) 0.8900(3) 0.7879(4)
C4_18 C 0.8100(3) 0.9986(2) 0.7682(2)
C6_18 C 0.7972(3) 0.9932(2) 0.8284(3)
O15_18 O 0.8320(4) 0.9780(3) 0.9797(4)
O16_12 O 0.9161(4) 0.9638(3) 0.5843(3)
O18_18 O 0.9341(4) 0.9730(3) 0.7815(4)
C33_18 C 0.6619(6) 0.9159(5) 0.9164(6)
H21_18 H 0.657088 0.917583 0.956911
H22_18 H 0.637354 0.905057 0.890000
C34_18 C 0.6872(5) 0.8664(3) 0.7663(4)
H23_18 H 0.687010 0.844316 0.741494
O19_18 O 0.8676(8) 0.9445(6) 0.8436(8)
H24_18 H 0.856302 0.99421 0.949403
H25_18 H 0.833584 0.951279 0.995228
H28_18 H 0.65579 0.881253 0.9223
H29_12 H 0.883103 0.943525 0.575008
H30_12 H 0.934171 0.951017 0.566308
H31_18 H 0.889424 0.947064 0.812157
H32_18 H 0.867751 0.924874 0.876466
H34_18 H 0.954948 0.96165 0.793629
C29_13 C 0.6042(2) 0.0057(2) 0.8454(3)
H9_13 H 0.611677 0.032327 0.821891
H10_13 H 0.631857 0.007852 0.860576
H11_13 H 0.584950 0.003839 0.878066
C30_13 C 0.4588(2) 0.0193(2) 0.8485(3)
H12_13 H 0.478762 0.045763 0.825268
H13_13 H 0.476244 0.014246 0.878223
H14_13 H 0.436086 0.024251 0.867684
H6_17 H 0.466662 0.898630 -0.000035
H7_11 H 0.347489 0.857895 0.011048
H8_13 H 0.529132 0.839526 0.009354
C31_11 C 0.5470(2) 0.9049(2) 0.0318(3)
H15_11 H 0.579013 0.914614 0.033728
H16_11 H 0.534193 0.897960 0.071240
H17_11 H 0.543224 0.929143 0.015224
O16_13 O 0.2972(3) 0.7144(3) 0.0823(3)
C32_11 C 0.4026(3) 0.9199(2) 0.0327(3)
H18_11 H 0.403315 0.911237 0.073227
H19_11 H 0.386463 0.936668 0.030633
H20_11 H 0.433356 0.938911 0.018526
H29_13 H 0.276859 0.727089 0.0916586
H30_13 H 0.28435 0.683512 0.100359
H6_18 H 0.101370 0.568031 -0.000035
H7_12 H 0.142105 0.489593 0.011048
H8_14 H 0.160474 0.689605 0.009354
C31_12 C 0.0951(2) 0.6420(3) 0.0318(3)
H15_12 H 0.085386 0.664398 0.033728
H16_12 H 0.102040 0.636232 0.071240
H17_12 H 0.070857 0.614080 0.015224
O16_14 O 0.2856(3) 0.5827(4) 0.0823(3)
C32_12 C 0.0801(2) 0.4826(4) 0.0327(3)
H18_12 H 0.088763 0.492077 0.073227
H19_12 H 0.063332 0.449794 0.030633
H20_12 H 0.061089 0.494444 0.018526
H29_14 H 0.272911 0.549769 0.0916586
H30_14 H 0.316488 0.600838 0.100359
C29_14 C 0.9943(2) 0.5984(3) 0.8454(3)
H9_14 H 0.967673 0.579349 0.821891
H10_14 H 0.992148 0.624004 0.860576
H11_14 H 0.996161 0.581110 0.878066
C30_14 C 0.9807(2) 0.4394(3) 0.8485(3)
H12_14 H 0.954237 0.432998 0.825268
H13_14 H 0.985754 0.461997 0.878223
H14_14 H 0.975749 0.411834 0.867684
H6_19 H 0.431969 0.533338 -0.000035
H7_13 H 0.510407 0.652511 0.011048
H8_15 H 0.310395 0.470868 0.009354
C31_13 C 0.3580(3) 0.4530(2) 0.0318(3)
H15_13 H 0.335602 0.420987 0.033728
H16_13 H 0.363768 0.465807 0.071240
H17_13 H 0.385920 0.456776 0.015224
O16_15 O 0.4173(4) 0.7028(3) 0.0823(3)
C32_13 C 0.5174(4) 0.5974(3) 0.0327(3)
H18_13 H 0.507923 0.596685 0.073227
H19_13 H 0.550206 0.613537 0.030633
H20_13 H 0.505556 0.566644 0.018526
H29_15 H 0.450231 0.723141 0.0916586
H30_15 H 0.399162 0.71565 0.100359
O21_9 O 0.95861(19) 0.21828(13) 0.97957(17)
O25_11 O 0.97455(21) 0.03477(26) 0.6781(2)
O4_17 O 0.77888(20) 0.01876(14) 0.91602(18)
O8_17 O 0.81241(20) 0.08650(14) 0.97923(17)
C1_17 C 0.98111(26) 0.23337(18) 0.8275(2)
C2_17 C 0.91841(27) 0.19235(19) 0.9481(2)
C3_17 C 0.8174(3) 0.0375(2) 0.7366(2)
C5_17 C 0.91157(26) 0.20373(19) 0.8910(2)
C7_17 C 0.8864(3) 0.0675(2) 0.6721(2)
C9_17 C 0.94952(26) 0.24556(19) 0.8600(3)
H1_17 H 0.967848 0.266952 0.891688
C10_17 C 0.79749(28) 0.0654(2) 0.8264(3)
C11_17 C 0.83542(27) 0.13507(19) 0.8907(3)
C12_17 C 0.9626(3) 0.1367(2) 0.6728(2)
C14_17 C 0.81122(28) 0.0701(2) 0.7668(3)
H2_17 H 0.816479 0.096316 0.746371
C15_17 C 0.86969(26) 0.17423(19) 0.8632(3)
H3_17 H 0.864626 0.181166 0.824911
C17_17 C 0.7913(3) 0.0266(2) 0.8573(2)
C18_17 C 0.79104(27) 0.1016(2) 0.8588(3)
H4_17 H 0.767841 0.085621 0.889788
C19_17 C 0.88452(28) 0.15318(19) 0.9775(3)
C20_17 C 0.97434(26) 0.21894(18) 0.7683(2)
H5_17 H 0.949850 0.217889 0.747792
C21_17 C 0.84347(27) 0.12487(19) 0.9483(3)
C22_17 C 0.9148(3) 0.1151(2) 0.6700(2)
H6_20 H 0.901365 0.133328 0.666701
C24_17 C 0.9552(3) 0.0613(2) 0.6771(3)
C25_17 C 0.8346(3) 0.0447(2) 0.6729(2)
H7_14 H 0.822927 0.014155 0.655618
C26_17 C 0.9074(3) 0.0408(2) 0.6769(2)
C27_17 C 0.9823(3) 0.1090(2) 0.6776(3)
C28_17 C 0.9934(3) 0.1890(2) 0.6741(2)
C29_15 C 0.9318(3) 0.2708(2) 0.8212(3)
H9_15 H 0.912683 0.278343 0.844775
H10_15 H 0.957338 0.298523 0.806090
H11_15 H 0.914444 0.251616 0.788600
C30_15 C 0.7728(3) 0.1254(2) 0.8181(3)
H12_15 H 0.766332 0.145428 0.841398
H13_15 H 0.795331 0.142910 0.788443
H14_15 H 0.745168 0.102752 0.798982
C31_14 C 0.9754(3) 0.2136(2) 0.6348(3)
H15_14 H 0.997732 0.245679 0.632938
H16_14 H 0.969566 0.200859 0.595426
H17_14 H 0.947414 0.209890 0.651442
C32_14 C 0.8160(4) 0.0692(3) 0.6339(3)
H18_14 H 0.825411 0.069981 0.593439
H19_14 H 0.783128 0.053129 0.636033
H20_14 H 0.827778 0.100022 0.648140
H26_17 H 0.884166 0.055487 0.984471
H33_17 H 0.947196 0.00541712 0.794298
O25_12 O 0.02545(21) 0.96523(26) 0.3219(2)
O1_9 O 0.04139(19) 0.78172(13) 0.02043(17)
O4_18 O 0.22112(20) 0.98124(14) 0.08398(18)
O8_18 O 0.18759(20) 0.91350(14) 0.02077(17)
C1_18 C 0.01889(26) 0.76663(18) 0.1725(2)
C2_18 C 0.08159(27) 0.80765(19) 0.0519(2)
C3_18 C 0.1826(3) 0.9625(2) 0.2634(2)
C5_18 C 0.08843(26) 0.79627(19) 0.1090(2)
C7_18 C 0.1136(3) 0.9325(2) 0.3279(2)
C9_18 C 0.05048(26) 0.75444(19) 0.1400(3)
H1_18 H 0.032152 0.733048 0.108312
C10_18 C 0.20251(28) 0.9346(2) 0.1736(3)
C11_18 C 0.16458(27) 0.86493(19) 0.1093(3)
C12_18 C 0.0374(3) 0.8633(2) 0.3272(2)
C14_18 C 0.18878(28) 0.9299(2) 0.2332(3)
H2_18 H 0.183521 0.903684 0.253629
C15_18 C 0.13031(26) 0.82577(19) 0.1368(3)
H3_18 H 0.135374 0.818834 0.175089
C17_18 C 0.2087(3) 0.9734(2) 0.1427(2)
C18_18 C 0.20896(27) 0.8984(2) 0.1412(3)
H4_18 H 0.232159 0.914379 0.110212
C19_18 C 0.11548(28) 0.84682(19) 0.0225(3)
C20_18 C 0.02566(26) 0.78106(18) 0.2317(2)
H5_18 H 0.050150 0.782111 0.252208
C21_18 C 0.15653(27) 0.87513(19) 0.0517(3)
C22_18 C 0.0852(3) 0.8849(2) 0.3300(2)
H6_21 H 0.098635 0.866672 0.333299
C24_18 C 0.0448(3) 0.9387(2) 0.3229(3)
C25_18 C 0.1654(3) 0.9553(2) 0.3271(2)
H7_15 H 0.177073 0.985845 0.344382
C26_18 C 0.0926(3) 0.9592(2) 0.3231(2)
C27_18 C 0.0177(3) 0.8910(2) 0.3224(3)
C28_18 C 0.0066(3) 0.8110(2) 0.3259(2)
C29_16 C 0.0682(3) 0.7292(2) 0.1788(3)
H9_16 H 0.087317 0.721657 0.155225
H10_16 H 0.042662 0.701477 0.193910
H11_16 H 0.085556 0.748384 0.211400
C30_16 C 0.2272(3) 0.8746(2) 0.1819(3)
H12_16 H 0.233668 0.854572 0.158602
H13_16 H 0.204669 0.857090 0.211557
H14_16 H 0.254832 0.897248 0.201018
C31_15 C 0.0246(3) 0.7864(2) 0.3652(3)
H15_15 H 0.002268 0.754321 0.367062
H16_15 H 0.030434 0.799141 0.404574
H17_15 H 0.052586 0.790110 0.348558
C32_15 C 0.1840(4) 0.9308(3) 0.3661(3)
H18_15 H 0.174589 0.930019 0.406561
H19_15 H 0.216872 0.946871 0.363967
H20_15 H 0.172222 0.899978 0.351860
H26_18 H 0.115834 0.944513 0.015529
H33_18 H 0.0528043 0.994583 0.205702
H6_22 H 0.533338 0.101370 1.000035
H7_16 H 0.652511 0.142105 0.988952
H8_16 H 0.470868 0.160474 0.990646
C31_16 C 0.4530(2) 0.0951(2) 0.9682(3)
H15_16 H 0.420987 0.085386 0.966272
H16_16 H 0.465807 0.102040 0.928760
H17_16 H 0.456776 0.070857 0.984776
O16_16 O 0.7028(3) 0.2856(3) 0.9177(3)
C32_16 C 0.5974(3) 0.0801(2) 0.9673(3)
H18_16 H 0.596685 0.088763 0.926773
H19_16 H 0.613537 0.063332 0.969367
H20_16 H 0.566644 0.061089 0.981474
H29_16 H 0.723141 0.272911 0.908341
H30_16 H 0.71565 0.316488 0.899641
C29_17 C 0.3958(2) 0.9943(2) 0.1546(3)
H9_17 H 0.388323 0.967673 0.178109
H10_17 H 0.368143 0.992148 0.139424
H11_17 H 0.415050 0.996161 0.121934
C30_17 C 0.5412(2) 0.9807(2) 0.1515(3)
H12_17 H 0.521238 0.954237 0.174732
H13_17 H 0.523756 0.985754 0.121777
H14_17 H 0.563914 0.975749 0.132316
C29_18 C 0.0057(2) 0.4016(3) 0.1546(3)
H9_18 H 0.032327 0.420651 0.178109
H10_18 H 0.007852 0.375996 0.139424
H11_18 H 0.003839 0.418890 0.121934
C30_18 C 0.0193(2) 0.5606(3) 0.1515(3)
H12_18 H 0.045763 0.567002 0.174732
H13_18 H 0.014246 0.538003 0.121777
H14_18 H 0.024251 0.588166 0.132316
H6_23 H 0.898630 0.431969 1.000035
H7_17 H 0.857895 0.510407 0.988952
H8_17 H 0.839526 0.310395 0.990646
C31_17 C 0.9049(2) 0.3580(3) 0.9682(3)
H15_17 H 0.914614 0.335602 0.966272
H16_17 H 0.897960 0.363768 0.928760
H17_17 H 0.929143 0.385920 0.984776
O16_17 O 0.7144(3) 0.4173(4) 0.9177(3)
C32_17 C 0.9199(2) 0.5174(4) 0.9673(3)
H18_17 H 0.911237 0.507923 0.926773
H19_17 H 0.936668 0.550206 0.969367
H20_17 H 0.938911 0.505556 0.981474
H29_17 H 0.727089 0.450231 0.908341
H30_17 H 0.683512 0.399162 0.899641
H6_24 H 0.568031 0.466662 1.000035
H7_18 H 0.489593 0.347489 0.988952
H8_18 H 0.689605 0.529132 0.990646
C31_18 C 0.6420(3) 0.5470(2) 0.9682(3)
H15_18 H 0.664398 0.579013 0.966272
H16_18 H 0.636232 0.534193 0.928760
H17_18 H 0.614080 0.543224 0.984776
O16_18 O 0.5827(4) 0.2972(3) 0.9177(3)
C32_18 C 0.4826(4) 0.4026(3) 0.9673(3)
H18_18 H 0.492077 0.403315 0.926773
H19_18 H 0.449794 0.386463 0.969367
H20_18 H 0.494444 0.433356 0.981474
H29_18 H 0.549769 0.276859 0.908341
H30_18 H 0.600838 0.28435 0.899641
loop_
_geom_bond_atom_site_label_1
_geom_bond_atom_site_label_2
_geom_bond_site_symmetry_1
_geom_bond_site_symmetry_2
Ni1 O4 1_555 1_555
Ni2 O2 1_555 1_555
Ni3 O6 1_555 1_555
Ni4 O7 1_555 1_555
O1 C2 1_555 1_555
O2 C4 1_555 1_555
O3 C8 1_555 1_555
O4 C17 1_555 1_555
O5 Ni1 1_555 1_555
O6 C19 1_555 1_555
O7 C26 1_555 1_555
O8 Ni3 1_555 1_555
O9 C23 1_555 1_555
O10 Ni4 1_555 1_555
O11 C16 1_555 1_555
O12 C27 1_555 1_555
O13 Ni1 1_555 1_555
O14 Ni2 1_555 1_555
C1 C8 1_555 1_555
C2 C5 1_555 1_555
C3 C4 1_555 1_555
C4 C6 1_555 1_555
C5 C9 1_555 1_555
C6 O5 1_555 1_555
C7 C22 1_555 1_555
C8 C16 1_555 1_555
C9 C1 1_555 1_555
H1 C9 1_555 1_555
C10 C14 1_555 1_555
C11 C15 1_555 1_555
C12 C22 1_555 1_555
C13 C20 1_555 1_555
C14 C3 1_555 1_555
H2 C14 1_555 1_555
C15 C5 1_555 1_555
H3 C15 1_555 1_555
C16 C23 1_555 1_555
C17 C6 1_555 1_555
C18 C10 1_555 1_555
H4 C18 1_555 1_555
C19 C2 1_555 1_555
C20 C1 1_555 1_555
H5 C20 1_555 1_555
C21 O8 1_555 1_555
C22 H6 1_555 1_555
C23 C13 1_555 1_555
C24 O10 1_555 1_555
C25 C3 1_555 1_555
H7 C25 1_555 1_555
C26 C7 1_555 1_555
C27 C12 1_555 1_555
C28 C12 1_555 1_555
H8 C28 1_555 1_555
O15 Ni1 1_555 1_555
C29 C9 1_555 1_555
H9 C29 1_555 1_555
H10 C29 1_555 1_555
H11 C29 1_555 1_555
C30 C18 1_555 1_555
H12 C30 1_555 1_555
H13 C30 1_555 1_555
H14 C30 1_555 1_555
C31 C28 1_555 1_555
H15 C31 1_555 1_555
H16 C31 1_555 1_555
H17 C31 1_555 1_555
O16 Ni4 1_555 1_555
O17 C34 1_555 1_555
C32 C25 1_555 1_555
H18 C32 1_555 1_555
H19 C32 1_555 1_555
H20 C32 1_555 1_555
O18 Ni4 1_555 1_555
C33 O13 1_555 1_555
H21 C33 1_555 1_555
H22 C33 1_555 1_555
C34 O14 1_555 1_555
H23 C34 1_555 1_555
O19 Ni2 1_555 1_555
O20 Ni3 1_555 1_555
Ni5 O1 1_555 1_555
Ni6 O9 1_555 1_555
Ni7 O17 1_555 1_555
Ni8 O3 1_555 1_555
Ni9 O10 1_555 1_555
O21 Ni1 1_555 1_555
O22 Ni3 1_555 1_555
O23 Ni1 1_555 1_555
O24 Ni2 1_555 1_555
O25 Ni4 1_555 1_555
O26 Ni2 1_555 1_555
O27 Ni3 1_555 1_555
O28 Ni4 1_555 1_555
O29 Ni3 1_555 1_555
Ni2 O5 1_555 1_555
O6 Ni5 1_555 1_555
O11 Ni6 1_555 1_555
O11 Ni8 1_555 1_555
O12 Ni9 1_555 1_555
C7 C25 1_555 1_555
C10 C17 1_555 1_555
C11 C18 1_555 1_555
C11 C21 1_555 1_555
C13 C28 1_555 1_555
C19 C21 1_555 1_555
C24 C26 1_555 1_555
C24 C27 1_555 1_555
O15 H24 1_555 1_555
O15 H25 1_555 1_555
O20 H26 1_555 1_555
O20 H27 1_555 1_555
C33 H28 1_555 1_555
O16 H29 1_555 1_555
O16 H30 1_555 1_555
O19 H31 1_555 1_555
O19 H32 1_555 1_555
O18 H33 1_555 1_555
O18 H34 1_555 1_555
Ni1_2 O4_2 1_555 1_555
Ni2_2 O2_2 1_555 1_555
Ni3_2 O6_2 1_555 1_555
Ni4_2 O7_2 1_555 1_555
O1_2 C2_2 1_555 1_555
O2_2 C4_2 1_555 1_555
O3_2 C8_2 1_555 1_555
O4_2 C17_2 1_555 1_555
O5_2 Ni1_2 1_555 1_555
O6_2 C19_2 1_555 1_555
O7_2 C26_2 1_555 1_555
O8_2 Ni3_2 1_555 1_555
O24 C23_2 1_555 1_555
O25 Ni4_2 1_555 1_555
O26 C16_2 1_555 1_555
O28 C27_2 1_555 1_555
O13_2 Ni1_2 1_555 1_555
O14_2 Ni2_2 1_555 1_555
C1_2 C8_2 1_555 1_555
C2_2 C5_2 1_555 1_555
C3_2 C4_2 1_555 1_555
C4_2 C6_2 1_555 1_555
C5_2 C9_2 1_555 1_555
C6_2 O5_2 1_555 1_555
C7_2 C22_2 1_555 1_555
C8_2 C16_2 1_555 1_555
C9_2 C1_2 1_555 1_555
H1_2 C9_2 1_555 1_555
C10_2 C14_2 1_555 1_555
C11_2 C15_2 1_555 1_555
C12_2 C22_2 1_555 1_555
C13_2 C20_2 1_555 1_555
C14_2 C3_2 1_555 1_555
H2_2 C14_2 1_555 1_555
C15_2 C5_2 1_555 1_555
H3_2 C15_2 1_555 1_555
C16_2 C23_2 1_555 1_555
C17_2 C6_2 1_555 1_555
C18_2 C10_2 1_555 1_555
H4_2 C18_2 1_555 1_555
C19_2 C2_2 1_555 1_555
C20_2 C1_2 1_555 1_555
H5_2 C20_2 1_555 1_555
C21_2 O8_2 1_555 1_555
C22_2 H6_2 1_555 1_555
C23_2 C13_2 1_555 1_555
C24_2 O25 1_555 1_555
C25_2 C3_2 1_555 1_555
H7_2 C25_2 1_555 1_555
C26_2 C7_2 1_555 1_555
C27_2 C12_2 1_555 1_555
C28_2 C12_2 1_555 1_555
H8_2 C28_2 1_555 1_555
O15_2 Ni1_2 1_555 1_555
C29_2 C9_2 1_555 1_555
H9_2 C29_2 1_555 1_555
H10_2 C29_2 1_555 1_555
H11_2 C29_2 1_555 1_555
C30_2 C18_2 1_555 1_555
H12_2 C30_2 1_555 1_555
H13_2 C30_2 1_555 1_555
H14_2 C30_2 1_555 1_555
C31_2 C28_2 1_555 1_555
H15_2 C31_2 1_555 1_555
H16_2 C31_2 1_555 1_555
H17_2 C31_2 1_555 1_555
O16_2 Ni4_2 1_555 1_555
C32_2 C25_2 1_555 1_555
H18_2 C32_2 1_555 1_555
H19_2 C32_2 1_555 1_555
H20_2 C32_2 1_555 1_555
O18_2 Ni4_2 1_555 1_555
C34_2 O14_2 1_555 1_555
H23_2 C34_2 1_555 1_555
O19_2 Ni2_2 1_555 1_555
O20_2 Ni3_2 1_555 1_555
Ni5_2 O1_2 1_555 1_555
Ni8_2 O3_2 1_555 1_555
O21_2 Ni1_2 1_555 1_555
O22_2 Ni3_2 1_555 1_555
O23_2 Ni1_2 1_555 1_555
O24_2 Ni2_2 1_555 1_555
O25_2 Ni4_2 1_555 1_555
O26_2 Ni2_2 1_555 1_555
O27_2 Ni3_2 1_555 1_555
O28_2 Ni4_2 1_555 1_555
O29_2 Ni3_2 1_555 1_555
Ni2_2 O5_2 1_555 1_555
O6_2 Ni5_2 1_555 1_555
O26 Ni8_2 1_555 1_555
C7_2 C25_2 1_555 1_555
C10_2 C17_2 1_555 1_555
C11_2 C18_2 1_555 1_555
C11_2 C21_2 1_555 1_555
C13_2 C28_2 1_555 1_555
C19_2 C21_2 1_555 1_555
C24_2 C26_2 1_555 1_555
C24_2 C27_2 1_555 1_555
O15_2 H24_2 1_555 1_555
O15_2 H25_2 1_555 1_555
O20_2 H26_2 1_555 1_555
O20_2 H27_2 1_555 1_555
O16_2 H29_2 1_555 1_555
O16_2 H30_2 1_555 1_555
O19_2 H31_2 1_555 1_555
O19_2 H32_2 1_555 1_555
O18_2 H33_2 1_555 1_555
O18_2 H34_2 1_555 1_555
H21_2 C33_2 1_555 1_555
H22_2 C33_2 1_555 1_555
Ni7_2 O17_2 1_555 1_555
C33_2 H28_2 1_555 1_555
H21_3 C33_3 1_555 1_555
H22_3 C33_3 1_555 1_555
Ni7_3 O17_3 1_555 1_555
C33_3 H28_3 1_555 1_555
Ni1_3 O4_3 1_555 1_555
Ni6 O2_3 1_555 1_555
Ni3_3 O6_3 1_555 1_555
Ni9 O7_3 1_555 1_555
O1_3 C2_3 1_555 1_555
O2_3 C4_3 1_555 1_555
O3_3 C8_3 1_555 1_555
O4_3 C17_3 1_555 1_555
O5_3 Ni1_3 1_555 1_555
O6_3 C19_3 1_555 1_555
O7_3 C26_3 1_555 1_555
O8_3 Ni3_3 1_555 1_555
O24_2 C23_3 1_555 1_555
O25_2 Ni9 1_555 1_555
O26_2 C16_3 1_555 1_555
O28_2 C27_3 1_555 1_555
O13_3 Ni1_3 1_555 1_555
O14_3 Ni6 1_555 1_555
C1_3 C8_3 1_555 1_555
C2_3 C5_3 1_555 1_555
C3_3 C4_3 1_555 1_555
C4_3 C6_3 1_555 1_555
C5_3 C9_3 1_555 1_555
C6_3 O5_3 1_555 1_555
C7_3 C22_3 1_555 1_555
C8_3 C16_3 1_555 1_555
C9_3 C1_3 1_555 1_555
H1_3 C9_3 1_555 1_555
C10_3 C14_3 1_555 1_555
C11_3 C15_3 1_555 1_555
C12_3 C22_3 1_555 1_555
C13_3 C20_3 1_555 1_555
C14_3 C3_3 1_555 1_555
H2_3 C14_3 1_555 1_555
C15_3 C5_3 1_555 1_555
H3_3 C15_3 1_555 1_555
C16_3 C23_3 1_555 1_555
C17_3 C6_3 1_555 1_555
C18_3 C10_3 1_555 1_555
H4_3 C18_3 1_555 1_555
C19_3 C2_3 1_555 1_555
C20_3 C1_3 1_555 1_555
H5_3 C20_3 1_555 1_555
C21_3 O8_3 1_555 1_555
C22_3 H6_3 1_555 1_555
C23_3 C13_3 1_555 1_555
C24_3 O25_2 1_555 1_555
C25_3 C3_3 1_555 1_555
H7_3 C25_3 1_555 1_555
C26_3 C7_3 1_555 1_555
C27_3 C12_3 1_555 1_555
C28_3 C12_3 1_555 1_555
H8_3 C28_3 1_555 1_555
O15_3 Ni1_3 1_555 1_555
C29_3 C9_3 1_555 1_555
H9_3 C29_3 1_555 1_555
H10_3 C29_3 1_555 1_555
H11_3 C29_3 1_555 1_555
C30_3 C18_3 1_555 1_555
H12_3 C30_3 1_555 1_555
H13_3 C30_3 1_555 1_555
H14_3 C30_3 1_555 1_555
C31_3 C28_3 1_555 1_555
H15_3 C31_3 1_555 1_555
H16_3 C31_3 1_555 1_555
H17_3 C31_3 1_555 1_555
O16_3 Ni9 1_555 1_555
C32_3 C25_3 1_555 1_555
H18_3 C32_3 1_555 1_555
H19_3 C32_3 1_555 1_555
H20_3 C32_3 1_555 1_555
O18_3 Ni9 1_555 1_555
C34_3 O14_3 1_555 1_555
H23_3 C34_3 1_555 1_555
O19_3 Ni6 1_555 1_555
O20_3 Ni3_3 1_555 1_555
Ni5_3 O1_3 1_555 1_555
Ni8_3 O3_3 1_555 1_555
O21_3 Ni1_3 1_555 1_555
O22_3 Ni3_3 1_555 1_555
O23_3 Ni1_3 1_555 1_555
O27_3 Ni3_3 1_555 1_555
O29_3 Ni3_3 1_555 1_555
Ni6 O5_3 1_555 1_555
O6_3 Ni5_3 1_555 1_555
O26_2 Ni8_3 1_555 1_555
C7_3 C25_3 1_555 1_555
C10_3 C17_3 1_555 1_555
C11_3 C18_3 1_555 1_555
C11_3 C21_3 1_555 1_555
C13_3 C28_3 1_555 1_555
C19_3 C21_3 1_555 1_555
C24_3 C26_3 1_555 1_555
C24_3 C27_3 1_555 1_555
O15_3 H24_3 1_555 1_555
O15_3 H25_3 1_555 1_555
O20_3 H26_3 1_555 1_555
O20_3 H27_3 1_555 1_555
O16_3 H29_3 1_555 1_555
O16_3 H30_3 1_555 1_555
O19_3 H31_3 1_555 1_555
O19_3 H32_3 1_555 1_555
O18_3 H33_3 1_555 1_555
O18_3 H34_3 1_555 1_555
Ni1_4 O4_4 1_555 1_555
Ni2_3 O2_4 1_555 1_555
Ni7_2 O6_4 1_555 1_555
Ni4_3 O7_4 1_555 1_555
O1_4 C2_4 1_555 1_555
O2_4 C4_4 1_555 1_555
O3_4 C8_4 1_555 1_555
O4_4 C17_4 1_555 1_555
O5_4 Ni1_4 1_555 1_555
O6_4 C19_4 1_555 1_555
O7_4 C26_4 1_555 1_555
O8_4 Ni7_2 1_555 1_555
O9_2 C23_4 1_555 1_555
O10_2 Ni4_3 1_555 1_555
O11_2 C16_4 1_555 1_555
O12_2 C27_4 1_555 1_555
O13_4 Ni1_4 1_555 1_555
O14_4 Ni2_3 1_555 1_555
C1_4 C8_4 1_555 1_555
C2_4 C5_4 1_555 1_555
C3_4 C4_4 1_555 1_555
C4_4 C6_4 1_555 1_555
C5_4 C9_4 1_555 1_555
C6_4 O5_4 1_555 1_555
C7_4 C22_4 1_555 1_555
C8_4 C16_4 1_555 1_555
C9_4 C1_4 1_555 1_555
H1_4 C9_4 1_555 1_555
C10_4 C14_4 1_555 1_555
C11_4 C15_4 1_555 1_555
C12_4 C22_4 1_555 1_555
C13_4 C20_4 1_555 1_555
C14_4 C3_4 1_555 1_555
H2_4 C14_4 1_555 1_555
C15_4 C5_4 1_555 1_555
H3_4 C15_4 1_555 1_555
C16_4 C23_4 1_555 1_555
C17_4 C6_4 1_555 1_555
C18_4 C10_4 1_555 1_555
H4_4 C18_4 1_555 1_555
C19_4 C2_4 1_555 1_555
C20_4 C1_4 1_555 1_555
H5_4 C20_4 1_555 1_555
C21_4 O8_4 1_555 1_555
C22_4 H6_4 1_555 1_555
C23_4 C13_4 1_555 1_555
C24_4 O10_2 1_555 1_555
C25_4 C3_4 1_555 1_555
C26_4 C7_4 1_555 1_555
C27_4 C12_4 1_555 1_555
C28_4 C12_4 1_555 1_555
O15_4 Ni1_4 1_555 1_555
O17_4 C34_4 1_555 1_555
O18_4 Ni4_3 1_555 1_555
C33_4 O13_4 1_555 1_555
H21_4 C33_4 1_555 1_555
H22_4 C33_4 1_555 1_555
C34_4 O14_4 1_555 1_555
H23_4 C34_4 1_555 1_555
O19_4 Ni2_3 1_555 1_555
O20_4 Ni7_2 1_555 1_555
Ni5_4 O1_4 1_555 1_555
Ni6_2 O9_2 1_555 1_555
Ni7_4 O17_4 1_555 1_555
Ni8_4 O3_4 1_555 1_555
Ni9_2 O10_2 1_555 1_555
O21_4 Ni1_4 1_555 1_555
O22_4 Ni7_2 1_555 1_555
O23_4 Ni1_4 1_555 1_555
O24_3 Ni2_3 1_555 1_555
O25_3 Ni4_3 1_555 1_555
O26_3 Ni2_3 1_555 1_555
O27_4 Ni7_2 1_555 1_555
O28_3 Ni4_3 1_555 1_555
Ni2_3 O5_4 1_555 1_555
O6_4 Ni5_4 1_555 1_555
O11_2 Ni6_2 1_555 1_555
O11_2 Ni8_4 1_555 1_555
O12_2 Ni9_2 1_555 1_555
C7_4 C25_4 1_555 1_555
C10_4 C17_4 1_555 1_555
C11_4 C18_4 1_555 1_555
C11_4 C21_4 1_555 1_555
C13_4 C28_4 1_555 1_555
C19_4 C21_4 1_555 1_555
C24_4 C26_4 1_555 1_555
C24_4 C27_4 1_555 1_555
O15_4 H24_4 1_555 1_555
O15_4 H25_4 1_555 1_555
O20_4 H26_4 1_555 1_555
O20_4 H27_4 1_555 1_555
C33_4 H28_4 1_555 1_555
O19_4 H31_4 1_555 1_555
O19_4 H32_4 1_555 1_555
O18_4 H33_4 1_555 1_555
O18_4 H34_4 1_555 1_555
Ni1_5 O4_5 1_555 1_555
Ni2_4 O2_5 1_555 1_555
Ni7_3 O6_5 1_555 1_555
Ni4_4 O7_5 1_555 1_555
O1_5 C2_5 1_555 1_555
O2_5 C4_5 1_555 1_555
O3_5 C8_5 1_555 1_555
O4_5 C17_5 1_555 1_555
O5_5 Ni1_5 1_555 1_555
O6_5 C19_5 1_555 1_555
O7_5 C26_5 1_555 1_555
O8_5 Ni7_3 1_555 1_555
O24_3 C23_5 1_555 1_555
O25_3 Ni4_4 1_555 1_555
O26_3 C16_5 1_555 1_555
O28_3 C27_5 1_555 1_555
O13_5 Ni1_5 1_555 1_555
O14_5 Ni2_4 1_555 1_555
C1_5 C8_5 1_555 1_555
C2_5 C5_5 1_555 1_555
C3_5 C4_5 1_555 1_555
C4_5 C6_5 1_555 1_555
C5_5 C9_5 1_555 1_555
C6_5 O5_5 1_555 1_555
C7_5 C22_5 1_555 1_555
C8_5 C16_5 1_555 1_555
C9_5 C1_5 1_555 1_555
H1_5 C9_5 1_555 1_555
C10_5 C14_5 1_555 1_555
C11_5 C15_5 1_555 1_555
C12_5 C22_5 1_555 1_555
C13_5 C20_5 1_555 1_555
C14_5 C3_5 1_555 1_555
H2_5 C14_5 1_555 1_555
C15_5 C5_5 1_555 1_555
H3_5 C15_5 1_555 1_555
C16_5 C23_5 1_555 1_555
C17_5 C6_5 1_555 1_555
C18_5 C10_5 1_555 1_555
H4_5 C18_5 1_555 1_555
C19_5 C2_5 1_555 1_555
C20_5 C1_5 1_555 1_555
H5_5 C20_5 1_555 1_555
C21_5 O8_5 1_555 1_555
C22_5 H6_5 1_555 1_555
C23_5 C13_5 1_555 1_555
C24_5 O25_3 1_555 1_555
C25_5 C3_5 1_555 1_555
C26_5 C7_5 1_555 1_555
C27_5 C12_5 1_555 1_555
C28_5 C12_5 1_555 1_555
O15_5 Ni1_5 1_555 1_555
O17_5 C34_5 1_555 1_555
O18_5 Ni4_4 1_555 1_555
C33_5 O13_5 1_555 1_555
H21_5 C33_5 1_555 1_555
H22_5 C33_5 1_555 1_555
C34_5 O14_5 1_555 1_555
H23_5 C34_5 1_555 1_555
O19_5 Ni2_4 1_555 1_555
O20_5 Ni7_3 1_555 1_555
Ni5_5 O1_5 1_555 1_555
Ni7_5 O17_5 1_555 1_555
Ni8_5 O3_5 1_555 1_555
O21_5 Ni1_5 1_555 1_555
O22_5 Ni7_3 1_555 1_555
O23_5 Ni1_5 1_555 1_555
O24_4 Ni2_4 1_555 1_555
O25_4 Ni4_4 1_555 1_555
O26_4 Ni2_4 1_555 1_555
O27_5 Ni7_3 1_555 1_555
O28_4 Ni4_4 1_555 1_555
Ni2_4 O5_5 1_555 1_555
O6_5 Ni5_5 1_555 1_555
O26_3 Ni8_5 1_555 1_555
C7_5 C25_5 1_555 1_555
C10_5 C17_5 1_555 1_555
C11_5 C18_5 1_555 1_555
C11_5 C21_5 1_555 1_555
C13_5 C28_5 1_555 1_555
C19_5 C21_5 1_555 1_555
C24_5 C26_5 1_555 1_555
C24_5 C27_5 1_555 1_555
O15_5 H24_5 1_555 1_555
O15_5 H25_5 1_555 1_555
O20_5 H26_5 1_555 1_555
O20_5 H27_5 1_555 1_555
C33_5 H28_5 1_555 1_555
O19_5 H31_5 1_555 1_555
O19_5 H32_5 1_555 1_555
O18_5 H33_5 1_555 1_555
O18_5 H34_5 1_555 1_555
Ni1_6 O4_6 1_555 1_555
Ni6_2 O2_6 1_555 1_555
Ni7 O6_6 1_555 1_555
Ni9_2 O7_6 1_555 1_555
O1_6 C2_6 1_555 1_555
O2_6 C4_6 1_555 1_555
O3_6 C8_6 1_555 1_555
O4_6 C17_6 1_555 1_555
O5_6 Ni1_6 1_555 1_555
O6_6 C19_6 1_555 1_555
O7_6 C26_6 1_555 1_555
O8_6 Ni7 1_555 1_555
O24_4 C23_6 1_555 1_555
O25_4 Ni9_2 1_555 1_555
O26_4 C16_6 1_555 1_555
O28_4 C27_6 1_555 1_555
O13_6 Ni1_6 1_555 1_555
O14_6 Ni6_2 1_555 1_555
C1_6 C8_6 1_555 1_555
C2_6 C5_6 1_555 1_555
C3_6 C4_6 1_555 1_555
C4_6 C6_6 1_555 1_555
C5_6 C9_6 1_555 1_555
C6_6 O5_6 1_555 1_555
C7_6 C22_6 1_555 1_555
C8_6 C16_6 1_555 1_555
C9_6 C1_6 1_555 1_555
H1_6 C9_6 1_555 1_555
C10_6 C14_6 1_555 1_555
C11_6 C15_6 1_555 1_555
C12_6 C22_6 1_555 1_555
C13_6 C20_6 1_555 1_555
C14_6 C3_6 1_555 1_555
H2_6 C14_6 1_555 1_555
C15_6 C5_6 1_555 1_555
H3_6 C15_6 1_555 1_555
C16_6 C23_6 1_555 1_555
C17_6 C6_6 1_555 1_555
C18_6 C10_6 1_555 1_555
H4_6 C18_6 1_555 1_555
C19_6 C2_6 1_555 1_555
C20_6 C1_6 1_555 1_555
H5_6 C20_6 1_555 1_555
C21_6 O8_6 1_555 1_555
C22_6 H6_6 1_555 1_555
C23_6 C13_6 1_555 1_555
C24_6 O25_4 1_555 1_555
C25_6 C3_6 1_555 1_555
C26_6 C7_6 1_555 1_555
C27_6 C12_6 1_555 1_555
C28_6 C12_6 1_555 1_555
O15_6 Ni1_6 1_555 1_555
C29_4 C9_6 1_555 1_555
H9_4 C29_4 1_555 1_555
H10_4 C29_4 1_555 1_555
H11_4 C29_4 1_555 1_555
C30_4 C18_6 1_555 1_555
H12_4 C30_4 1_555 1_555
H13_4 C30_4 1_555 1_555
H14_4 C30_4 1_555 1_555
O17_6 C34_6 1_555 1_555
O18_6 Ni9_2 1_555 1_555
C33_6 O13_6 1_555 1_555
H21_6 C33_6 1_555 1_555
H22_6 C33_6 1_555 1_555
C34_6 O14_6 1_555 1_555
H23_6 C34_6 1_555 1_555
O19_6 Ni6_2 1_555 1_555
O20_6 Ni7 1_555 1_555
Ni5_6 O1_6 1_555 1_555
Ni7_6 O17_6 1_555 1_555
Ni8_6 O3_6 1_555 1_555
O21_6 Ni1_6 1_555 1_555
O22_6 Ni7 1_555 1_555
O23_6 Ni1_6 1_555 1_555
O27_6 Ni7 1_555 1_555
Ni6_2 O5_6 1_555 1_555
O6_6 Ni5_6 1_555 1_555
O26_4 Ni8_6 1_555 1_555
C7_6 C25_6 1_555 1_555
C10_6 C17_6 1_555 1_555
C11_6 C18_6 1_555 1_555
C11_6 C21_6 1_555 1_555
C13_6 C28_6 1_555 1_555
C19_6 C21_6 1_555 1_555
C24_6 C26_6 1_555 1_555
C24_6 C27_6 1_555 1_555
O15_6 H24_6 1_555 1_555
O15_6 H25_6 1_555 1_555
O20_6 H26_6 1_555 1_555
O20_6 H27_6 1_555 1_555
C33_6 H28_6 1_555 1_555
O19_6 H31_6 1_555 1_555
O19_6 H32_6 1_555 1_555
O18_6 H33_6 1_555 1_555
O18_6 H34_6 1_555 1_555
O1_7 C2_7 1_555 1_555
O3_7 C8_7 1_555 1_555
O4_7 C17_7 1_555 1_555
O9_3 C23_7 1_555 1_555
O11_3 C16_7 1_555 1_555
O12_3 C27_7 1_555 1_555
C1_7 C8_7 1_555 1_555
C2_7 C5_7 1_555 1_555
C5_7 C9_7 1_555 1_555
C7_7 C22_7 1_555 1_555
C8_7 C16_7 1_555 1_555
C9_7 C1_7 1_555 1_555
H1_7 C9_7 1_555 1_555
C10_7 C14_7 1_555 1_555
C11_7 C15_7 1_555 1_555
C12_7 C22_7 1_555 1_555
C13_7 C20_7 1_555 1_555
C14_7 C3_7 1_555 1_555
H2_7 C14_7 1_555 1_555
C15_7 C5_7 1_555 1_555
H3_7 C15_7 1_555 1_555
C16_7 C23_7 1_555 1_555
C18_7 C10_7 1_555 1_555
H4_7 C18_7 1_555 1_555
C19_7 C2_7 1_555 1_555
C20_7 C1_7 1_555 1_555
H5_7 C20_7 1_555 1_555
C21_7 O8_7 1_555 1_555
C22_7 H6_7 1_555 1_555
C23_7 C13_7 1_555 1_555
C24_7 O10_3 1_555 1_555
C25_7 C3_7 1_555 1_555
H7_4 C25_7 1_555 1_555
C26_7 C7_7 1_555 1_555
C27_7 C12_7 1_555 1_555
C28_7 C12_7 1_555 1_555
H8_4 C28_7 1_555 1_555
C29_5 C9_7 1_555 1_555
H9_5 C29_5 1_555 1_555
H10_5 C29_5 1_555 1_555
H11_5 C29_5 1_555 1_555
C30_5 C18_7 1_555 1_555
H12_5 C30_5 1_555 1_555
H13_5 C30_5 1_555 1_555
H14_5 C30_5 1_555 1_555
C31_4 C28_7 1_555 1_555
H15_4 C31_4 1_555 1_555
H16_4 C31_4 1_555 1_555
H17_4 C31_4 1_555 1_555
C32_4 C25_7 1_555 1_555
H18_4 C32_4 1_555 1_555
H19_4 C32_4 1_555 1_555
H20_4 C32_4 1_555 1_555
Ni6_3 O9_3 1_555 1_555
Ni8_7 O3_7 1_555 1_555
Ni9_3 O10_3 1_555 1_555
O11_3 Ni6_3 1_555 1_555
O11_3 Ni8_7 1_555 1_555
O12_3 Ni9_3 1_555 1_555
C7_7 C25_7 1_555 1_555
C10_7 C17_7 1_555 1_555
C11_7 C18_7 1_555 1_555
C11_7 C21_7 1_555 1_555
C13_7 C28_7 1_555 1_555
C19_7 C21_7 1_555 1_555
C24_7 C26_7 1_555 1_555
C24_7 C27_7 1_555 1_555
Ni7_5 O6_7 1_555 1_555
O20_7 Ni7_5 1_555 1_555
O22_7 Ni7_5 1_555 1_555
O27_7 Ni7_5 1_555 1_555
O6_7 Ni5_7 1_555 1_555
O20_7 H27_7 1_555 1_555
Ni2_5 O2_7 1_555 1_555
Ni4_5 O7_7 1_555 1_555
O2_7 C4_7 1_555 1_555
O5_7 Ni1_7 1_555 1_555
O13_7 Ni1_7 1_555 1_555
O14_7 Ni2_5 1_555 1_555
C4_7 C6_7 1_555 1_555
C6_7 O5_7 1_555 1_555
O15_7 Ni1_7 1_555 1_555
O16_4 Ni4_5 1_555 1_555
O29_3 C34_7 1_555 1_555
O18_7 Ni4_5 1_555 1_555
C33_7 O13_7 1_555 1_555
H21_7 C33_7 1_555 1_555
H22_7 C33_7 1_555 1_555
C34_7 O14_7 1_555 1_555
H23_7 C34_7 1_555 1_555
O19_7 Ni2_5 1_555 1_555
O23_7 Ni1_7 1_555 1_555
O24_5 Ni2_5 1_555 1_555
O26_5 Ni2_5 1_555 1_555
O28_5 Ni4_5 1_555 1_555
Ni2_5 O5_7 1_555 1_555
O15_7 H24_7 1_555 1_555
O15_7 H25_7 1_555 1_555
C33_7 H28_7 1_555 1_555
O16_4 H29_4 1_555 1_555
O16_4 H30_4 1_555 1_555
O19_7 H31_7 1_555 1_555
O19_7 H32_7 1_555 1_555
O18_7 H34_7 1_555 1_555
O3_8 C8_8 1_555 1_555
O24_5 C23_8 1_555 1_555
O26_5 C16_8 1_555 1_555
C8_8 C16_8 1_555 1_555
C16_8 C23_8 1_555 1_555
C23_8 C13_8 1_555 1_555
Ni8_8 O3_8 1_555 1_555
O26_5 Ni8_8 1_555 1_555
Ni1_8 O4_8 1_555 1_555
Ni2_6 O2_8 1_555 1_555
Ni4_6 O7_8 1_555 1_555
O1_8 C2_8 1_555 1_555
O2_8 C4_8 1_555 1_555
O4_8 C17_8 1_555 1_555
O5_8 Ni1_8 1_555 1_555
O7_8 C26_8 1_555 1_555
O25_5 Ni4_6 1_555 1_555
O13_8 Ni1_8 1_555 1_555
O14_8 Ni2_6 1_555 1_555
C2_8 C5_8 1_555 1_555
C3_8 C4_8 1_555 1_555
C4_8 C6_8 1_555 1_555
C5_8 C9_8 1_555 1_555
C6_8 O5_8 1_555 1_555
C7_8 C22_8 1_555 1_555
C9_8 C1_8 1_555 1_555
H1_8 C9_8 1_555 1_555
C10_8 C14_8 1_555 1_555
C11_8 C15_8 1_555 1_555
C12_8 C22_8 1_555 1_555
C14_8 C3_8 1_555 1_555
H2_8 C14_8 1_555 1_555
C15_8 C5_8 1_555 1_555
H3_8 C15_8 1_555 1_555
C17_8 C6_8 1_555 1_555
C18_8 C10_8 1_555 1_555
H4_8 C18_8 1_555 1_555
C19_8 C2_8 1_555 1_555
C20_8 C1_8 1_555 1_555
H5_8 C20_8 1_555 1_555
C21_8 O8_8 1_555 1_555
C22_8 H6_8 1_555 1_555
C24_8 O25_5 1_555 1_555
C25_8 C3_8 1_555 1_555
H7_5 C25_8 1_555 1_555
C26_8 C7_8 1_555 1_555
C27_8 C12_8 1_555 1_555
C28_8 C12_8 1_555 1_555
O15_8 Ni1_8 1_555 1_555
C29_6 C9_8 1_555 1_555
H9_6 C29_6 1_555 1_555
H10_6 C29_6 1_555 1_555
H11_6 C29_6 1_555 1_555
C30_6 C18_8 1_555 1_555
H12_6 C30_6 1_555 1_555
H13_6 C30_6 1_555 1_555
H14_6 C30_6 1_555 1_555
C31_5 C28_8 1_555 1_555
H15_5 C31_5 1_555 1_555
H16_5 C31_5 1_555 1_555
H17_5 C31_5 1_555 1_555
O16_5 Ni4_6 1_555 1_555
O29 C34_8 1_555 1_555
C32_5 C25_8 1_555 1_555
H18_5 C32_5 1_555 1_555
H19_5 C32_5 1_555 1_555
H20_5 C32_5 1_555 1_555
O18_8 Ni4_6 1_555 1_555
C33_8 O13_8 1_555 1_555
H21_8 C33_8 1_555 1_555
H22_8 C33_8 1_555 1_555
C34_8 O14_8 1_555 1_555
H23_8 C34_8 1_555 1_555
O19_8 Ni2_6 1_555 1_555
O23_8 Ni1_8 1_555 1_555
O24_6 Ni2_6 1_555 1_555
O26_6 Ni2_6 1_555 1_555
O28_6 Ni4_6 1_555 1_555
Ni2_6 O5_8 1_555 1_555
C7_8 C25_8 1_555 1_555
C10_8 C17_8 1_555 1_555
C11_8 C18_8 1_555 1_555
C11_8 C21_8 1_555 1_555
C19_8 C21_8 1_555 1_555
C24_8 C26_8 1_555 1_555
C24_8 C27_8 1_555 1_555
O15_8 H24_8 1_555 1_555
O15_8 H25_8 1_555 1_555
C33_8 H28_8 1_555 1_555
O16_5 H29_5 1_555 1_555
O16_5 H30_5 1_555 1_555
O19_8 H31_8 1_555 1_555
O19_8 H32_8 1_555 1_555
O18_8 H33_8 1_555 1_555
O18_8 H34_8 1_555 1_555
Ni7_6 O6_8 1_555 1_555
O20_8 Ni7_6 1_555 1_555
O22_8 Ni7_6 1_555 1_555
O27_8 Ni7_6 1_555 1_555
O6_8 Ni5_8 1_555 1_555
O20_8 H27_8 1_555 1_555
Ni6_3 O2_9 1_555 1_555
Ni9_3 O7_9 1_555 1_555
O2_9 C4_9 1_555 1_555
O5_9 Ni1_9 1_555 1_555
O13_9 Ni1_9 1_555 1_555
O14_9 Ni6_3 1_555 1_555
C4_9 C6_9 1_555 1_555
C6_9 O5_9 1_555 1_555
O15_9 Ni1_9 1_555 1_555
O16_6 Ni9_3 1_555 1_555
O29_2 C34_9 1_555 1_555
O18_9 Ni9_3 1_555 1_555
C33_9 O13_9 1_555 1_555
H21_9 C33_9 1_555 1_555
H22_9 C33_9 1_555 1_555
C34_9 O14_9 1_555 1_555
H23_9 C34_9 1_555 1_555
O19_9 Ni6_3 1_555 1_555
O23_9 Ni1_9 1_555 1_555
Ni6_3 O5_9 1_555 1_555
O15_9 H24_9 1_555 1_555
O15_9 H25_9 1_555 1_555
C33_9 H28_9 1_555 1_555
O16_6 H29_6 1_555 1_555
O16_6 H30_6 1_555 1_555
O19_9 H31_9 1_555 1_555
O19_9 H32_9 1_555 1_555
O18_9 H34_9 1_555 1_555
Ni7_4 O6_9 1_555 1_555
O20_9 Ni7_4 1_555 1_555
O22_9 Ni7_4 1_555 1_555
O27_9 Ni7_4 1_555 1_555
O6_9 Ni5_9 1_555 1_555
O20_9 H27_9 1_555 1_555
O3_9 C8_9 1_555 1_555
O24_6 C23_9 1_555 1_555
O26_6 C16_9 1_555 1_555
C8_9 C16_9 1_555 1_555
C16_9 C23_9 1_555 1_555
C23_9 C13_9 1_555 1_555
Ni8_9 O3_9 1_555 1_555
O26_6 Ni8_9 1_555 1_555
Ni5_6 O4_9 1_555 1_555
Ni2_7 O2_10 1_555 1_555
Ni8_6 O23_5 1_555 1_555
Ni4_7 O7_10 1_555 1_555
O21_5 C2_9 1_555 1_555
O2_10 C4_10 1_555 1_555
O22_5 C8_10 1_555 1_555
O4_9 C17_9 1_555 1_555
O5_10 Ni5_6 1_555 1_555
O23_5 C19_9 1_555 1_555
O7_10 C26_9 1_555 1_555
O8_9 Ni8_6 1_555 1_555
O9_4 C23_10 1_555 1_555
O10_4 Ni4_7 1_555 1_555
O27_5 C16_10 1_555 1_555
O12_4 C27_9 1_555 1_555
O13_10 Ni5_6 1_555 1_555
O14_10 Ni2_7 1_555 1_555
C1_9 C8_10 1_555 1_555
C2_9 C5_9 1_555 1_555
C3_9 C4_10 1_555 1_555
C4_10 C6_10 1_555 1_555
C5_9 C9_9 1_555 1_555
C6_10 O5_10 1_555 1_555
C7_9 C22_9 1_555 1_555
C8_10 C16_10 1_555 1_555
C9_9 C1_9 1_555 1_555
H1_9 C9_9 1_555 1_555
C10_9 C14_9 1_555 1_555
C11_9 C15_9 1_555 1_555
C12_9 C22_9 1_555 1_555
C13_10 C20_9 1_555 1_555
C14_9 C3_9 1_555 1_555
H2_9 C14_9 1_555 1_555
C15_9 C5_9 1_555 1_555
H3_9 C15_9 1_555 1_555
C16_10 C23_10 1_555 1_555
C17_9 C6_10 1_555 1_555
C18_9 C10_9 1_555 1_555
H4_9 C18_9 1_555 1_555
C19_9 C2_9 1_555 1_555
C20_9 C1_9 1_555 1_555
H5_9 C20_9 1_555 1_555
C21_9 O8_9 1_555 1_555
C22_9 H6_9 1_555 1_555
C23_10 C13_10 1_555 1_555
C24_9 O10_4 1_555 1_555
C25_9 C3_9 1_555 1_555
H7_6 C25_9 1_555 1_555
C26_9 C7_9 1_555 1_555
C27_9 C12_9 1_555 1_555
C28_9 C12_9 1_555 1_555
H8_7 C28_9 1_555 1_555
O15_10 Ni5_6 1_555 1_555
C29_7 C9_9 1_555 1_555
H9_7 C29_7 1_555 1_555
H10_7 C29_7 1_555 1_555
H11_7 C29_7 1_555 1_555
C30_7 C18_9 1_555 1_555
H12_7 C30_7 1_555 1_555
H13_7 C30_7 1_555 1_555
H14_7 C30_7 1_555 1_555
C31_6 C28_9 1_555 1_555
H15_6 C31_6 1_555 1_555
H16_6 C31_6 1_555 1_555
H17_6 C31_6 1_555 1_555
O16_7 Ni4_7 1_555 1_555
O17_7 C34_10 1_555 1_555
C32_6 C25_9 1_555 1_555
H18_6 C32_6 1_555 1_555
H19_6 C32_6 1_555 1_555
H20_6 C32_6 1_555 1_555
O18_10 Ni4_7 1_555 1_555
C33_10 O13_10 1_555 1_555
H21_10 C33_10 1_555 1_555
H22_10 C33_10 1_555 1_555
C34_10 O14_10 1_555 1_555
H23_10 C34_10 1_555 1_555
O19_10 Ni2_7 1_555 1_555
O20_10 Ni8_6 1_555 1_555
Ni6_4 O9_4 1_555 1_555
Ni8_2 O17_7 1_555 1_555
Ni9_4 O10_4 1_555 1_555
O24_7 Ni2_7 1_555 1_555
O25_6 Ni4_7 1_555 1_555
O27_6 Ni2_7 1_555 1_555
O28_7 Ni4_7 1_555 1_555
O29_4 Ni8_6 1_555 1_555
Ni2_7 O5_10 1_555 1_555
O27_5 Ni6_4 1_555 1_555
O12_4 Ni9_4 1_555 1_555
C7_9 C25_9 1_555 1_555
C10_9 C17_9 1_555 1_555
C11_9 C18_9 1_555 1_555
C11_9 C21_9 1_555 1_555
C13_10 C28_9 1_555 1_555
C19_9 C21_9 1_555 1_555
C24_9 C26_9 1_555 1_555
C24_9 C27_9 1_555 1_555
O15_10 H24_10 1_555 1_555
O15_10 H25_10 1_555 1_555
O20_10 H26_9 1_555 1_555
O20_10 H27_10 1_555 1_555
C33_10 H28_10 1_555 1_555
O16_7 H29_7 1_555 1_555
O16_7 H30_7 1_555 1_555
O19_10 H31_10 1_555 1_555
O19_10 H32_10 1_555 1_555
O18_10 H33_9 1_555 1_555
O18_10 H34_10 1_555 1_555
H21_11 C33_11 1_555 1_555
H22_11 C33_11 1_555 1_555
Ni8_3 O17_8 1_555 1_555
C33_11 H28_11 1_555 1_555
Ni5_4 O4_10 1_555 1_555
Ni2_8 O2_11 1_555 1_555
Ni8_4 O23_6 1_555 1_555
Ni4_8 O7_11 1_555 1_555
O21_6 C2_10 1_555 1_555
O2_11 C4_11 1_555 1_555
O22_6 C8_11 1_555 1_555
O4_10 C17_10 1_555 1_555
O5_11 Ni5_4 1_555 1_555
O23_6 C19_10 1_555 1_555
O7_11 C26_10 1_555 1_555
O8_10 Ni8_4 1_555 1_555
O24_7 C23_11 1_555 1_555
O25_6 Ni4_8 1_555 1_555
O27_6 C16_11 1_555 1_555
O28_7 C27_10 1_555 1_555
O13_11 Ni5_4 1_555 1_555
O14_11 Ni2_8 1_555 1_555
C1_10 C8_11 1_555 1_555
C2_10 C5_10 1_555 1_555
C3_10 C4_11 1_555 1_555
C4_11 C6_11 1_555 1_555
C5_10 C9_10 1_555 1_555
C6_11 O5_11 1_555 1_555
C7_10 C22_10 1_555 1_555
C8_11 C16_11 1_555 1_555
C9_10 C1_10 1_555 1_555
H1_10 C9_10 1_555 1_555
C10_10 C14_10 1_555 1_555
C11_10 C15_10 1_555 1_555
C12_10 C22_10 1_555 1_555
C13_11 C20_10 1_555 1_555
C14_10 C3_10 1_555 1_555
H2_10 C14_10 1_555 1_555
C15_10 C5_10 1_555 1_555
H3_10 C15_10 1_555 1_555
C16_11 C23_11 1_555 1_555
C17_10 C6_11 1_555 1_555
C18_10 C10_10 1_555 1_555
H4_10 C18_10 1_555 1_555
C19_10 C2_10 1_555 1_555
C20_10 C1_10 1_555 1_555
H5_10 C20_10 1_555 1_555
C21_10 O8_10 1_555 1_555
C22_10 H6_10 1_555 1_555
C23_11 C13_11 1_555 1_555
C24_10 O25_6 1_555 1_555
C25_10 C3_10 1_555 1_555
H7_7 C25_10 1_555 1_555
C26_10 C7_10 1_555 1_555
C27_10 C12_10 1_555 1_555
C28_10 C12_10 1_555 1_555
H8_8 C28_10 1_555 1_555
O15_11 Ni5_4 1_555 1_555
C29_8 C9_10 1_555 1_555
H9_8 C29_8 1_555 1_555
H10_8 C29_8 1_555 1_555
H11_8 C29_8 1_555 1_555
C30_8 C18_10 1_555 1_555
H12_8 C30_8 1_555 1_555
H13_8 C30_8 1_555 1_555
H14_8 C30_8 1_555 1_555
C31_7 C28_10 1_555 1_555
H15_7 C31_7 1_555 1_555
H16_7 C31_7 1_555 1_555
H17_7 C31_7 1_555 1_555
O16_8 Ni4_8 1_555 1_555
C32_7 C25_10 1_555 1_555
H18_7 C32_7 1_555 1_555
H19_7 C32_7 1_555 1_555
H20_7 C32_7 1_555 1_555
O18_11 Ni4_8 1_555 1_555
C34_11 O14_11 1_555 1_555
H23_11 C34_11 1_555 1_555
O19_11 Ni2_8 1_555 1_555
O20_11 Ni8_4 1_555 1_555
O24_8 Ni2_8 1_555 1_555
O25_7 Ni4_8 1_555 1_555
O27_4 Ni2_8 1_555 1_555
O28_8 Ni4_8 1_555 1_555
O29_5 Ni8_4 1_555 1_555
Ni2_8 O5_11 1_555 1_555
C7_10 C25_10 1_555 1_555
C10_10 C17_10 1_555 1_555
C11_10 C18_10 1_555 1_555
C11_10 C21_10 1_555 1_555
C13_11 C28_10 1_555 1_555
C19_10 C21_10 1_555 1_555
C24_10 C26_10 1_555 1_555
C24_10 C27_10 1_555 1_555
O15_11 H24_11 1_555 1_555
O15_11 H25_11 1_555 1_555
O20_11 H26_10 1_555 1_555
O20_11 H27_11 1_555 1_555
O16_8 H29_8 1_555 1_555
O16_8 H30_8 1_555 1_555
O19_11 H31_11 1_555 1_555
O19_11 H32_11 1_555 1_555
O18_11 H33_10 1_555 1_555
O18_11 H34_11 1_555 1_555
Ni5_5 O4_11 1_555 1_555
Ni6_4 O2_12 1_555 1_555
Ni8_5 O23_4 1_555 1_555
Ni9_4 O7_12 1_555 1_555
O21_4 C2_11 1_555 1_555
O2_12 C4_12 1_555 1_555
O22_4 C8_12 1_555 1_555
O4_11 C17_11 1_555 1_555
O5_12 Ni5_5 1_555 1_555
O23_4 C19_11 1_555 1_555
O7_12 C26_11 1_555 1_555
O8_11 Ni8_5 1_555 1_555
O24_8 C23_12 1_555 1_555
O25_7 Ni9_4 1_555 1_555
O27_4 C16_12 1_555 1_555
O28_8 C27_11 1_555 1_555
O13_12 Ni5_5 1_555 1_555
O14_12 Ni6_4 1_555 1_555
C1_11 C8_12 1_555 1_555
C2_11 C5_11 1_555 1_555
C3_11 C4_12 1_555 1_555
C4_12 C6_12 1_555 1_555
C5_11 C9_11 1_555 1_555
C6_12 O5_12 1_555 1_555
C7_11 C22_11 1_555 1_555
C8_12 C16_12 1_555 1_555
C9_11 C1_11 1_555 1_555
H1_11 C9_11 1_555 1_555
C10_11 C14_11 1_555 1_555
C11_11 C15_11 1_555 1_555
C12_11 C22_11 1_555 1_555
C13_12 C20_11 1_555 1_555
C14_11 C3_11 1_555 1_555
H2_11 C14_11 1_555 1_555
C15_11 C5_11 1_555 1_555
H3_11 C15_11 1_555 1_555
C16_12 C23_12 1_555 1_555
C17_11 C6_12 1_555 1_555
C18_11 C10_11 1_555 1_555
H4_11 C18_11 1_555 1_555
C19_11 C2_11 1_555 1_555
C20_11 C1_11 1_555 1_555
H5_11 C20_11 1_555 1_555
C21_11 O8_11 1_555 1_555
C22_11 H6_11 1_555 1_555
C23_12 C13_12 1_555 1_555
C24_11 O25_7 1_555 1_555
C25_11 C3_11 1_555 1_555
H7_8 C25_11 1_555 1_555
C26_11 C7_11 1_555 1_555
C27_11 C12_11 1_555 1_555
C28_11 C12_11 1_555 1_555
H8_9 C28_11 1_555 1_555
O15_12 Ni5_5 1_555 1_555
C29_9 C9_11 1_555 1_555
H9_9 C29_9 1_555 1_555
H10_9 C29_9 1_555 1_555
H11_9 C29_9 1_555 1_555
C30_9 C18_11 1_555 1_555
H12_9 C30_9 1_555 1_555
H13_9 C30_9 1_555 1_555
H14_9 C30_9 1_555 1_555
C31_8 C28_11 1_555 1_555
H15_8 C31_8 1_555 1_555
H16_8 C31_8 1_555 1_555
H17_8 C31_8 1_555 1_555
O16_9 Ni9_4 1_555 1_555
C32_8 C25_11 1_555 1_555
H18_8 C32_8 1_555 1_555
H19_8 C32_8 1_555 1_555
H20_8 C32_8 1_555 1_555
O18_12 Ni9_4 1_555 1_555
C34_12 O14_12 1_555 1_555
H23_12 C34_12 1_555 1_555
O19_12 Ni6_4 1_555 1_555
O20_12 Ni8_5 1_555 1_555
O29_6 Ni8_5 1_555 1_555
Ni6_4 O5_12 1_555 1_555
C7_11 C25_11 1_555 1_555
C10_11 C17_11 1_555 1_555
C11_11 C18_11 1_555 1_555
C11_11 C21_11 1_555 1_555
C13_12 C28_11 1_555 1_555
C19_11 C21_11 1_555 1_555
C24_11 C26_11 1_555 1_555
C24_11 C27_11 1_555 1_555
O15_12 H24_12 1_555 1_555
O15_12 H25_12 1_555 1_555
O20_12 H26_11 1_555 1_555
O20_12 H27_12 1_555 1_555
O16_9 H29_9 1_555 1_555
O16_9 H30_9 1_555 1_555
O19_12 H31_12 1_555 1_555
O19_12 H32_12 1_555 1_555
O18_12 H33_11 1_555 1_555
O18_12 H34_12 1_555 1_555
H21_12 C33_12 1_555 1_555
H22_12 C33_12 1_555 1_555
Ni8 O17_9 1_555 1_555
C33_12 H28_12 1_555 1_555
Ni5_3 O4_12 1_555 1_555
Ni2_9 O2_13 1_555 1_555
Ni8_3 O23_2 1_555 1_555
Ni4_9 O7_13 1_555 1_555
O21_2 C2_12 1_555 1_555
O2_13 C4_13 1_555 1_555
O22_2 C8_13 1_555 1_555
O4_12 C17_12 1_555 1_555
O5_13 Ni5_3 1_555 1_555
O23_2 C19_12 1_555 1_555
O7_13 C26_12 1_555 1_555
O8_12 Ni8_3 1_555 1_555
O9_5 C23_13 1_555 1_555
O10_5 Ni4_9 1_555 1_555
O27_2 C16_13 1_555 1_555
O12_5 C27_12 1_555 1_555
O13_13 Ni5_3 1_555 1_555
O14_13 Ni2_9 1_555 1_555
C1_12 C8_13 1_555 1_555
C2_12 C5_12 1_555 1_555
C3_12 C4_13 1_555 1_555
C4_13 C6_13 1_555 1_555
C5_12 C9_12 1_555 1_555
C6_13 O5_13 1_555 1_555
C7_12 C22_12 1_555 1_555
C8_13 C16_13 1_555 1_555
C9_12 C1_12 1_555 1_555
H1_12 C9_12 1_555 1_555
C10_12 C14_12 1_555 1_555
C11_12 C15_12 1_555 1_555
C12_12 C22_12 1_555 1_555
C13_13 C20_12 1_555 1_555
C14_12 C3_12 1_555 1_555
H2_12 C14_12 1_555 1_555
C15_12 C5_12 1_555 1_555
H3_12 C15_12 1_555 1_555
C16_13 C23_13 1_555 1_555
C17_12 C6_13 1_555 1_555
C18_12 C10_12 1_555 1_555
H4_12 C18_12 1_555 1_555
C19_12 C2_12 1_555 1_555
C20_12 C1_12 1_555 1_555
H5_12 C20_12 1_555 1_555
C21_12 O8_12 1_555 1_555
C22_12 H6_12 1_555 1_555
C23_13 C13_13 1_555 1_555
C24_12 O10_5 1_555 1_555
C25_12 C3_12 1_555 1_555
C26_12 C7_12 1_555 1_555
C27_12 C12_12 1_555 1_555
C28_12 C12_12 1_555 1_555
O15_13 Ni5_3 1_555 1_555
O17_10 C34_13 1_555 1_555
O18_13 Ni4_9 1_555 1_555
C33_13 O13_13 1_555 1_555
H21_13 C33_13 1_555 1_555
H22_13 C33_13 1_555 1_555
C34_13 O14_13 1_555 1_555
H23_13 C34_13 1_555 1_555
O19_13 Ni2_9 1_555 1_555
O20_13 Ni8_3 1_555 1_555
Ni6_5 O9_5 1_555 1_555
Ni8_8 O17_10 1_555 1_555
Ni9_5 O10_5 1_555 1_555
O24_9 Ni2_9 1_555 1_555
O25_8 Ni4_9 1_555 1_555
O27_3 Ni2_9 1_555 1_555
O28_9 Ni4_9 1_555 1_555
Ni2_9 O5_13 1_555 1_555
O27_2 Ni6_5 1_555 1_555
O12_5 Ni9_5 1_555 1_555
C7_12 C25_12 1_555 1_555
C10_12 C17_12 1_555 1_555
C11_12 C18_12 1_555 1_555
C11_12 C21_12 1_555 1_555
C13_13 C28_12 1_555 1_555
C19_12 C21_12 1_555 1_555
C24_12 C26_12 1_555 1_555
C24_12 C27_12 1_555 1_555
O15_13 H24_13 1_555 1_555
O15_13 H25_13 1_555 1_555
O20_13 H26_12 1_555 1_555
O20_13 H27_13 1_555 1_555
C33_13 H28_13 1_555 1_555
O19_13 H31_13 1_555 1_555
O19_13 H32_13 1_555 1_555
O18_13 H33_12 1_555 1_555
O18_13 H34_13 1_555 1_555
Ni5 O4_13 1_555 1_555
Ni2_10 O2_14 1_555 1_555
Ni8 O23_3 1_555 1_555
Ni4_10 O7_14 1_555 1_555
O21_3 C2_13 1_555 1_555
O2_14 C4_14 1_555 1_555
O22_3 C8_14 1_555 1_555
O4_13 C17_13 1_555 1_555
O5_14 Ni5 1_555 1_555
O23_3 C19_13 1_555 1_555
O7_14 C26_13 1_555 1_555
O8_13 Ni8 1_555 1_555
O24_9 C23_14 1_555 1_555
O25_8 Ni4_10 1_555 1_555
O27_3 C16_14 1_555 1_555
O28_9 C27_13 1_555 1_555
O13_14 Ni5 1_555 1_555
O14_14 Ni2_10 1_555 1_555
C1_13 C8_14 1_555 1_555
C2_13 C5_13 1_555 1_555
C3_13 C4_14 1_555 1_555
C4_14 C6_14 1_555 1_555
C5_13 C9_13 1_555 1_555
C6_14 O5_14 1_555 1_555
C7_13 C22_13 1_555 1_555
C8_14 C16_14 1_555 1_555
C9_13 C1_13 1_555 1_555
H1_13 C9_13 1_555 1_555
C10_13 C14_13 1_555 1_555
C11_13 C15_13 1_555 1_555
C12_13 C22_13 1_555 1_555
C13_14 C20_13 1_555 1_555
C14_13 C3_13 1_555 1_555
H2_13 C14_13 1_555 1_555
C15_13 C5_13 1_555 1_555
H3_13 C15_13 1_555 1_555
C16_14 C23_14 1_555 1_555
C17_13 C6_14 1_555 1_555
C18_13 C10_13 1_555 1_555
H4_13 C18_13 1_555 1_555
C19_13 C2_13 1_555 1_555
C20_13 C1_13 1_555 1_555
H5_13 C20_13 1_555 1_555
C21_13 O8_13 1_555 1_555
C22_13 H6_13 1_555 1_555
C23_14 C13_14 1_555 1_555
C24_13 O25_8 1_555 1_555
C25_13 C3_13 1_555 1_555
C26_13 C7_13 1_555 1_555
C27_13 C12_13 1_555 1_555
C28_13 C12_13 1_555 1_555
O15_14 Ni5 1_555 1_555
O17_11 C34_14 1_555 1_555
O18_14 Ni4_10 1_555 1_555
C33_14 O13_14 1_555 1_555
H21_14 C33_14 1_555 1_555
H22_14 C33_14 1_555 1_555
C34_14 O14_14 1_555 1_555
H23_14 C34_14 1_555 1_555
O19_14 Ni2_10 1_555 1_555
O20_14 Ni8 1_555 1_555
Ni8_9 O17_11 1_555 1_555
O24_10 Ni2_10 1_555 1_555
O25_9 Ni4_10 1_555 1_555
O27 Ni2_10 1_555 1_555
O28_10 Ni4_10 1_555 1_555
Ni2_10 O5_14 1_555 1_555
C7_13 C25_13 1_555 1_555
C10_13 C17_13 1_555 1_555
C11_13 C18_13 1_555 1_555
C11_13 C21_13 1_555 1_555
C13_14 C28_13 1_555 1_555
C19_13 C21_13 1_555 1_555
C24_13 C26_13 1_555 1_555
C24_13 C27_13 1_555 1_555
O15_14 H24_14 1_555 1_555
O15_14 H25_14 1_555 1_555
O20_14 H26_13 1_555 1_555
O20_14 H27_14 1_555 1_555
C33_14 H28_14 1_555 1_555
O19_14 H31_14 1_555 1_555
O19_14 H32_14 1_555 1_555
O18_14 H33_13 1_555 1_555
O18_14 H34_14 1_555 1_555
Ni5_2 O4_14 1_555 1_555
Ni6_5 O2_15 1_555 1_555
Ni8_2 O23 1_555 1_555
Ni9_5 O7_15 1_555 1_555
O21 C2_14 1_555 1_555
O2_15 C4_15 1_555 1_555
O22 C8_15 1_555 1_555
O4_14 C17_14 1_555 1_555
O5_15 Ni5_2 1_555 1_555
O23 C19_14 1_555 1_555
O7_15 C26_14 1_555 1_555
O8_14 Ni8_2 1_555 1_555
O24_10 C23_15 1_555 1_555
O25_9 Ni9_5 1_555 1_555
O27 C16_15 1_555 1_555
O28_10 C27_14 1_555 1_555
O13_15 Ni5_2 1_555 1_555
O14_15 Ni6_5 1_555 1_555
C1_14 C8_15 1_555 1_555
C2_14 C5_14 1_555 1_555
C3_14 C4_15 1_555 1_555
C4_15 C6_15 1_555 1_555
C5_14 C9_14 1_555 1_555
C6_15 O5_15 1_555 1_555
C7_14 C22_14 1_555 1_555
C8_15 C16_15 1_555 1_555
C9_14 C1_14 1_555 1_555
H1_14 C9_14 1_555 1_555
C10_14 C14_14 1_555 1_555
C11_14 C15_14 1_555 1_555
C12_14 C22_14 1_555 1_555
C13_15 C20_14 1_555 1_555
C14_14 C3_14 1_555 1_555
H2_14 C14_14 1_555 1_555
C15_14 C5_14 1_555 1_555
H3_14 C15_14 1_555 1_555
C16_15 C23_15 1_555 1_555
C17_14 C6_15 1_555 1_555
C18_14 C10_14 1_555 1_555
H4_14 C18_14 1_555 1_555
C19_14 C2_14 1_555 1_555
C20_14 C1_14 1_555 1_555
H5_14 C20_14 1_555 1_555
C21_14 O8_14 1_555 1_555
C22_14 H6_14 1_555 1_555
C23_15 C13_15 1_555 1_555
C24_14 O25_9 1_555 1_555
C25_14 C3_14 1_555 1_555
C26_14 C7_14 1_555 1_555
C27_14 C12_14 1_555 1_555
C28_14 C12_14 1_555 1_555
O15_15 Ni5_2 1_555 1_555
C29_10 C9_14 1_555 1_555
H9_10 C29_10 1_555 1_555
H10_10 C29_10 1_555 1_555
H11_10 C29_10 1_555 1_555
C30_10 C18_14 1_555 1_555
H12_10 C30_10 1_555 1_555
H13_10 C30_10 1_555 1_555
H14_10 C30_10 1_555 1_555
O17_12 C34_15 1_555 1_555
O18_15 Ni9_5 1_555 1_555
C33_15 O13_15 1_555 1_555
H21_15 C33_15 1_555 1_555
H22_15 C33_15 1_555 1_555
C34_15 O14_15 1_555 1_555
H23_15 C34_15 1_555 1_555
O19_15 Ni6_5 1_555 1_555
O20_15 Ni8_2 1_555 1_555
Ni8_7 O17_12 1_555 1_555
Ni6_5 O5_15 1_555 1_555
C7_14 C25_14 1_555 1_555
C10_14 C17_14 1_555 1_555
C11_14 C18_14 1_555 1_555
C11_14 C21_14 1_555 1_555
C13_15 C28_14 1_555 1_555
C19_14 C21_14 1_555 1_555
C24_14 C26_14 1_555 1_555
C24_14 C27_14 1_555 1_555
O15_15 H24_15 1_555 1_555
O15_15 H25_15 1_555 1_555
O20_15 H26_14 1_555 1_555
O20_15 H27_15 1_555 1_555
C33_15 H28_15 1_555 1_555
O19_15 H31_15 1_555 1_555
O19_15 H32_15 1_555 1_555
O18_15 H33_14 1_555 1_555
O18_15 H34_15 1_555 1_555
Ni2_11 O2_16 1_555 1_555
Ni4_11 O7_16 1_555 1_555
O2_16 C4_16 1_555 1_555
O5_16 Ni5_9 1_555 1_555
O13_16 Ni5_9 1_555 1_555
O14_16 Ni2_11 1_555 1_555
C4_16 C6_16 1_555 1_555
C6_16 O5_16 1_555 1_555
O15_16 Ni5_9 1_555 1_555
O16_10 Ni4_11 1_555 1_555
O29_6 C34_16 1_555 1_555
O18_16 Ni4_11 1_555 1_555
C33_16 O13_16 1_555 1_555
H21_16 C33_16 1_555 1_555
H22_16 C33_16 1_555 1_555
C34_16 O14_16 1_555 1_555
H23_16 C34_16 1_555 1_555
O19_16 Ni2_11 1_555 1_555
O24_11 Ni2_11 1_555 1_555
O27_9 Ni2_11 1_555 1_555
O28_11 Ni4_11 1_555 1_555
Ni2_11 O5_16 1_555 1_555
O15_16 H24_16 1_555 1_555
O15_16 H25_16 1_555 1_555
C33_16 H28_16 1_555 1_555
O16_10 H29_10 1_555 1_555
O16_10 H30_10 1_555 1_555
O19_16 H31_16 1_555 1_555
O19_16 H32_16 1_555 1_555
O18_16 H34_16 1_555 1_555
Ni8_9 O23_8 1_555 1_555
O20_16 Ni8_9 1_555 1_555
O20_16 H27_16 1_555 1_555
O21_7 C2_15 1_555 1_555
O22_8 C8_16 1_555 1_555
O4_15 C17_15 1_555 1_555
O9_6 C23_16 1_555 1_555
O27_8 C16_16 1_555 1_555
O12_6 C27_15 1_555 1_555
C1_15 C8_16 1_555 1_555
C2_15 C5_15 1_555 1_555
C5_15 C9_15 1_555 1_555
C7_15 C22_15 1_555 1_555
C8_16 C16_16 1_555 1_555
C9_15 C1_15 1_555 1_555
H1_15 C9_15 1_555 1_555
C10_15 C14_15 1_555 1_555
C11_15 C15_15 1_555 1_555
C12_15 C22_15 1_555 1_555
C13_16 C20_15 1_555 1_555
C14_15 C3_15 1_555 1_555
H2_15 C14_15 1_555 1_555
C15_15 C5_15 1_555 1_555
H3_15 C15_15 1_555 1_555
C16_16 C23_16 1_555 1_555
C18_15 C10_15 1_555 1_555
H4_15 C18_15 1_555 1_555
C19_15 C2_15 1_555 1_555
C20_15 C1_15 1_555 1_555
H5_15 C20_15 1_555 1_555
C21_15 O8_15 1_555 1_555
C22_15 H6_15 1_555 1_555
C23_16 C13_16 1_555 1_555
C24_15 O10_6 1_555 1_555
C25_15 C3_15 1_555 1_555
H7_9 C25_15 1_555 1_555
C26_15 C7_15 1_555 1_555
C27_15 C12_15 1_555 1_555
C28_15 C12_15 1_555 1_555
H8_10 C28_15 1_555 1_555
C29_11 C9_15 1_555 1_555
H9_11 C29_11 1_555 1_555
H10_11 C29_11 1_555 1_555
H11_11 C29_11 1_555 1_555
C30_11 C18_15 1_555 1_555
H12_11 C30_11 1_555 1_555
H13_11 C30_11 1_555 1_555
H14_11 C30_11 1_555 1_555
C31_9 C28_15 1_555 1_555
H15_9 C31_9 1_555 1_555
H16_9 C31_9 1_555 1_555
H17_9 C31_9 1_555 1_555
C32_9 C25_15 1_555 1_555
H18_9 C32_9 1_555 1_555
H19_9 C32_9 1_555 1_555
H20_9 C32_9 1_555 1_555
Ni6_6 O9_6 1_555 1_555
Ni9_6 O10_6 1_555 1_555
O27_8 Ni6_6 1_555 1_555
O12_6 Ni9_6 1_555 1_555
C7_15 C25_15 1_555 1_555
C10_15 C17_15 1_555 1_555
C11_15 C18_15 1_555 1_555
C11_15 C21_15 1_555 1_555
C13_16 C28_15 1_555 1_555
C19_15 C21_15 1_555 1_555
C24_15 C26_15 1_555 1_555
C24_15 C27_15 1_555 1_555
Ni8_7 O23_9 1_555 1_555
O20_17 Ni8_7 1_555 1_555
O20_17 H27_17 1_555 1_555
Ni5_7 O4_16 1_555 1_555
Ni2_12 O2_17 1_555 1_555
Ni4_12 O7_17 1_555 1_555
O21_8 C2_16 1_555 1_555
O2_17 C4_17 1_555 1_555
O4_16 C17_16 1_555 1_555
O5_17 Ni5_7 1_555 1_555
O7_17 C26_16 1_555 1_555
O25_10 Ni4_12 1_555 1_555
O13_17 Ni5_7 1_555 1_555
O14_17 Ni2_12 1_555 1_555
C2_16 C5_16 1_555 1_555
C3_16 C4_17 1_555 1_555
C4_17 C6_17 1_555 1_555
C5_16 C9_16 1_555 1_555
C6_17 O5_17 1_555 1_555
C7_16 C22_16 1_555 1_555
C9_16 C1_16 1_555 1_555
H1_16 C9_16 1_555 1_555
C10_16 C14_16 1_555 1_555
C11_16 C15_16 1_555 1_555
C12_16 C22_16 1_555 1_555
C14_16 C3_16 1_555 1_555
H2_16 C14_16 1_555 1_555
C15_16 C5_16 1_555 1_555
H3_16 C15_16 1_555 1_555
C17_16 C6_17 1_555 1_555
C18_16 C10_16 1_555 1_555
H4_16 C18_16 1_555 1_555
C19_16 C2_16 1_555 1_555
C20_16 C1_16 1_555 1_555
H5_16 C20_16 1_555 1_555
C21_16 O8_16 1_555 1_555
C22_16 H6_16 1_555 1_555
C24_16 O25_10 1_555 1_555
C25_16 C3_16 1_555 1_555
H7_10 C25_16 1_555 1_555
C26_16 C7_16 1_555 1_555
C27_16 C12_16 1_555 1_555
C28_16 C12_16 1_555 1_555
O15_17 Ni5_7 1_555 1_555
C29_12 C9_16 1_555 1_555
H9_12 C29_12 1_555 1_555
H10_12 C29_12 1_555 1_555
H11_12 C29_12 1_555 1_555
C30_12 C18_16 1_555 1_555
H12_12 C30_12 1_555 1_555
H13_12 C30_12 1_555 1_555
H14_12 C30_12 1_555 1_555
C31_10 C28_16 1_555 1_555
H15_10 C31_10 1_555 1_555
H16_10 C31_10 1_555 1_555
H17_10 C31_10 1_555 1_555
O16_11 Ni4_12 1_555 1_555
O29_4 C34_17 1_555 1_555
C32_10 C25_16 1_555 1_555
H18_10 C32_10 1_555 1_555
H19_10 C32_10 1_555 1_555
H20_10 C32_10 1_555 1_555
O18_17 Ni4_12 1_555 1_555
C33_17 O13_17 1_555 1_555
H21_17 C33_17 1_555 1_555
H22_17 C33_17 1_555 1_555
C34_17 O14_17 1_555 1_555
H23_17 C34_17 1_555 1_555
O19_17 Ni2_12 1_555 1_555
O24_12 Ni2_12 1_555 1_555
O27_7 Ni2_12 1_555 1_555
O28_12 Ni4_12 1_555 1_555
Ni2_12 O5_17 1_555 1_555
C7_16 C25_16 1_555 1_555
C10_16 C17_16 1_555 1_555
C11_16 C18_16 1_555 1_555
C11_16 C21_16 1_555 1_555
C19_16 C21_16 1_555 1_555
C24_16 C26_16 1_555 1_555
C24_16 C27_16 1_555 1_555
O15_17 H24_17 1_555 1_555
O15_17 H25_17 1_555 1_555
C33_17 H28_17 1_555 1_555
O16_11 H29_11 1_555 1_555
O16_11 H30_11 1_555 1_555
O19_17 H31_17 1_555 1_555
O19_17 H32_17 1_555 1_555
O18_17 H33_16 1_555 1_555
O18_17 H34_17 1_555 1_555
O22_9 C8_17 1_555 1_555
O24_11 C23_17 1_555 1_555
O27_9 C16_17 1_555 1_555
C8_17 C16_17 1_555 1_555
C16_17 C23_17 1_555 1_555
C23_17 C13_17 1_555 1_555
O22_7 C8_18 1_555 1_555
O24_12 C23_18 1_555 1_555
O27_7 C16_18 1_555 1_555
C8_18 C16_18 1_555 1_555
C16_18 C23_18 1_555 1_555
C23_18 C13_18 1_555 1_555
Ni8_8 O23_7 1_555 1_555
O20_18 Ni8_8 1_555 1_555
O20_18 H27_18 1_555 1_555
Ni6_6 O2_18 1_555 1_555
Ni9_6 O7_18 1_555 1_555
O2_18 C4_18 1_555 1_555
O5_18 Ni5_8 1_555 1_555
O13_18 Ni5_8 1_555 1_555
O14_18 Ni6_6 1_555 1_555
C4_18 C6_18 1_555 1_555
C6_18 O5_18 1_555 1_555
O15_18 Ni5_8 1_555 1_555
O16_12 Ni9_6 1_555 1_555
O29_5 C34_18 1_555 1_555
O18_18 Ni9_6 1_555 1_555
C33_18 O13_18 1_555 1_555
H21_18 C33_18 1_555 1_555
H22_18 C33_18 1_555 1_555
C34_18 O14_18 1_555 1_555
H23_18 C34_18 1_555 1_555
O19_18 Ni6_6 1_555 1_555
Ni6_6 O5_18 1_555 1_555
O15_18 H24_18 1_555 1_555
O15_18 H25_18 1_555 1_555
C33_18 H28_18 1_555 1_555
O16_12 H29_12 1_555 1_555
O16_12 H30_12 1_555 1_555
O19_18 H31_18 1_555 1_555
O19_18 H32_18 1_555 1_555
O18_18 H34_18 1_555 1_555
H9_13 C29_13 1_555 1_555
H10_13 C29_13 1_555 1_555
H11_13 C29_13 1_555 1_555
H12_13 C30_13 1_555 1_555
H13_13 C30_13 1_555 1_555
H14_13 C30_13 1_555 1_555
H15_11 C31_11 1_555 1_555
H16_11 C31_11 1_555 1_555
H17_11 C31_11 1_555 1_555
H18_11 C32_11 1_555 1_555
H19_11 C32_11 1_555 1_555
H20_11 C32_11 1_555 1_555
O16_13 H29_13 1_555 1_555
O16_13 H30_13 1_555 1_555
H15_12 C31_12 1_555 1_555
H16_12 C31_12 1_555 1_555
H17_12 C31_12 1_555 1_555
H18_12 C32_12 1_555 1_555
H19_12 C32_12 1_555 1_555
H20_12 C32_12 1_555 1_555
O16_14 H29_14 1_555 1_555
O16_14 H30_14 1_555 1_555
H9_14 C29_14 1_555 1_555
H10_14 C29_14 1_555 1_555
H11_14 C29_14 1_555 1_555
H12_14 C30_14 1_555 1_555
H13_14 C30_14 1_555 1_555
H14_14 C30_14 1_555 1_555
H15_13 C31_13 1_555 1_555
H16_13 C31_13 1_555 1_555
H17_13 C31_13 1_555 1_555
H18_13 C32_13 1_555 1_555
H19_13 C32_13 1_555 1_555
H20_13 C32_13 1_555 1_555
O16_15 H29_15 1_555 1_555
O16_15 H30_15 1_555 1_555
O21_9 C2_17 1_555 1_555
O4_17 C17_17 1_555 1_555
C2_17 C5_17 1_555 1_555
C5_17 C9_17 1_555 1_555
C7_17 C22_17 1_555 1_555
C9_17 C1_17 1_555 1_555
H1_17 C9_17 1_555 1_555
C10_17 C14_17 1_555 1_555
C11_17 C15_17 1_555 1_555
C12_17 C22_17 1_555 1_555
C14_17 C3_17 1_555 1_555
H2_17 C14_17 1_555 1_555
C15_17 C5_17 1_555 1_555
H3_17 C15_17 1_555 1_555
C18_17 C10_17 1_555 1_555
H4_17 C18_17 1_555 1_555
C19_17 C2_17 1_555 1_555
C20_17 C1_17 1_555 1_555
H5_17 C20_17 1_555 1_555
C21_17 O8_17 1_555 1_555
C22_17 H6_20 1_555 1_555
C24_17 O25_11 1_555 1_555
C25_17 C3_17 1_555 1_555
H7_14 C25_17 1_555 1_555
C26_17 C7_17 1_555 1_555
C27_17 C12_17 1_555 1_555
C28_17 C12_17 1_555 1_555
C29_15 C9_17 1_555 1_555
H9_15 C29_15 1_555 1_555
H10_15 C29_15 1_555 1_555
H11_15 C29_15 1_555 1_555
C30_15 C18_17 1_555 1_555
H12_15 C30_15 1_555 1_555
H13_15 C30_15 1_555 1_555
H14_15 C30_15 1_555 1_555
C31_14 C28_17 1_555 1_555
H15_14 C31_14 1_555 1_555
H16_14 C31_14 1_555 1_555
H17_14 C31_14 1_555 1_555
C32_14 C25_17 1_555 1_555
H18_14 C32_14 1_555 1_555
H19_14 C32_14 1_555 1_555
H20_14 C32_14 1_555 1_555
C7_17 C25_17 1_555 1_555
C10_17 C17_17 1_555 1_555
C11_17 C18_17 1_555 1_555
C11_17 C21_17 1_555 1_555
C19_17 C21_17 1_555 1_555
C24_17 C26_17 1_555 1_555
C24_17 C27_17 1_555 1_555
O1_9 C2_18 1_555 1_555
O4_18 C17_18 1_555 1_555
C2_18 C5_18 1_555 1_555
C5_18 C9_18 1_555 1_555
C7_18 C22_18 1_555 1_555
C9_18 C1_18 1_555 1_555
H1_18 C9_18 1_555 1_555
C10_18 C14_18 1_555 1_555
C11_18 C15_18 1_555 1_555
C12_18 C22_18 1_555 1_555
C14_18 C3_18 1_555 1_555
H2_18 C14_18 1_555 1_555
C15_18 C5_18 1_555 1_555
H3_18 C15_18 1_555 1_555
C18_18 C10_18 1_555 1_555
H4_18 C18_18 1_555 1_555
C19_18 C2_18 1_555 1_555
C20_18 C1_18 1_555 1_555
H5_18 C20_18 1_555 1_555
C21_18 O8_18 1_555 1_555
C22_18 H6_21 1_555 1_555
C24_18 O25_12 1_555 1_555
C25_18 C3_18 1_555 1_555
H7_15 C25_18 1_555 1_555
C26_18 C7_18 1_555 1_555
C27_18 C12_18 1_555 1_555
C28_18 C12_18 1_555 1_555
C29_16 C9_18 1_555 1_555
H9_16 C29_16 1_555 1_555
H10_16 C29_16 1_555 1_555
H11_16 C29_16 1_555 1_555
C30_16 C18_18 1_555 1_555
H12_16 C30_16 1_555 1_555
H13_16 C30_16 1_555 1_555
H14_16 C30_16 1_555 1_555
C31_15 C28_18 1_555 1_555
H15_15 C31_15 1_555 1_555
H16_15 C31_15 1_555 1_555
H17_15 C31_15 1_555 1_555
C32_15 C25_18 1_555 1_555
H18_15 C32_15 1_555 1_555
H19_15 C32_15 1_555 1_555
H20_15 C32_15 1_555 1_555
C7_18 C25_18 1_555 1_555
C10_18 C17_18 1_555 1_555
C11_18 C18_18 1_555 1_555
C11_18 C21_18 1_555 1_555
C19_18 C21_18 1_555 1_555
C24_18 C26_18 1_555 1_555
C24_18 C27_18 1_555 1_555
H15_16 C31_16 1_555 1_555
H16_16 C31_16 1_555 1_555
H17_16 C31_16 1_555 1_555
H18_16 C32_16 1_555 1_555
H19_16 C32_16 1_555 1_555
H20_16 C32_16 1_555 1_555
O16_16 H29_16 1_555 1_555
O16_16 H30_16 1_555 1_555
H9_17 C29_17 1_555 1_555
H10_17 C29_17 1_555 1_555
H11_17 C29_17 1_555 1_555
H12_17 C30_17 1_555 1_555
H13_17 C30_17 1_555 1_555
H14_17 C30_17 1_555 1_555
H9_18 C29_18 1_555 1_555
H10_18 C29_18 1_555 1_555
H11_18 C29_18 1_555 1_555
H12_18 C30_18 1_555 1_555
H13_18 C30_18 1_555 1_555
H14_18 C30_18 1_555 1_555
H15_17 C31_17 1_555 1_555
H16_17 C31_17 1_555 1_555
H17_17 C31_17 1_555 1_555
H18_17 C32_17 1_555 1_555
H19_17 C32_17 1_555 1_555
H20_17 C32_17 1_555 1_555
O16_17 H29_17 1_555 1_555
O16_17 H30_17 1_555 1_555
H15_18 C31_18 1_555 1_555
H16_18 C31_18 1_555 1_555
H17_18 C31_18 1_555 1_555
H18_18 C32_18 1_555 1_555
H19_18 C32_18 1_555 1_555
H20_18 C32_18 1_555 1_555
O16_18 H29_18 1_555 1_555
O16_18 H30_18 1_555 1_555

#END
