
###############################################################################
#
# This file contains modified crystal structure data generated from the
# MOF subset of the Cambridge Structural Database (CSD) v543 
# hosted by the Cambridge Crystallographic Data Centre (CCDC).
#
# This work is licensed under the Creative Commons
# Attribution-NonCommercial-ShareAlike 4.0 International License.
# To view a copy of this license, visit
# http://creativecommons.org/licenses/by-nc-sa/4.0/
# or send a letter to
# Creative Commons, PO Box 1866, Mountain View, CA 94042, USA.
#
# CIF created using the CSD Python API on 29 September 2022
# The structure has been converted into the P1 space group
# The structure has a 3D framework
# The original CSD entry SUKNUI is in the trigonal crystal system
# The framework has been calculated to contain at least 10.0% void space
# The void calculation uses a probe of radius 1.32A, grid spacing 0.4
# The framework is charged, counterions have been retained in the structure
#
###############################################################################

data_SUKNUI
_chemical_formula_moiety         '(C156 H132 Cd6 N36 Na2 O30 4+)n'
_symmetry_cell_setting           triclinic
_symmetry_space_group_name_H-M   'P 1'
_symmetry_Int_Tables_number      1
_space_group_name_Hall           'P 1'
loop_
_symmetry_equiv_pos_site_id
_symmetry_equiv_pos_as_xyz
1 x,y,z
_cell_length_a                   20.1432(18)
_cell_length_b                   20.1432(18)
_cell_length_c                   21.962(4)
_cell_angle_alpha                90
_cell_angle_beta                 90
_cell_angle_gamma                120
_cell_volume                     7717.19
loop_
_atom_site_label
_atom_site_type_symbol
_atom_site_fract_x
_atom_site_fract_y
_atom_site_fract_z
Cd8 Cd 0.22440(2) 0.77560(2) 0.2500
C57 C 0.0291(5) 0.6227(7) 0.0910(4)
C62 C 0.0346(5) 0.5859(6) 0.1446(3)
H35 H 0.0032 0.5334 0.1501
C67 C 0.0851(4) 0.6281(6) 0.1861(3)
H40 H 0.0899 0.6041 0.2206
C72 C 0.1268(6) 0.7422(8) 0.1314(4)
H45 H 0.1583 0.7949 0.1270
C77 C 0.0743(7) 0.6993(9) 0.0874(4)
H50 H 0.0698 0.7244 0.0534
N18 N 0.1312(4) 0.7059(6) 0.1808(2)
C9 C 0.0291(5) 0.4064(5) 0.4090(4)
C10 C 0.0346(5) 0.4487(4) 0.3554(3)
H5 H 0.0032 0.4698 0.3499
C11 C 0.0851(4) 0.4570(4) 0.3139(3)
H6 H 0.0899 0.4858 0.2794
C12 C 0.1268(6) 0.3846(5) 0.3686(4)
H7 H 0.1583 0.3634 0.3730
C13 C 0.0743(7) 0.3750(6) 0.4126(4)
H8 H 0.0698 0.3454 0.4466
N2 N 0.1312(4) 0.4253(4) 0.3192(2)
Cd4 Cd 0.22440(2) 0.44880(3) 0.2500
C34 C 0.5473(6) 0.1624(6) 0.0085(5)
C37 C 0.8376(6) 0.3849(8) 0.0085(5)
C38 C 0.6151(8) 0.4527(6) 0.0085(5)
C49 C 0.5981(7) 0.0242(7) 0.0417(4)
C52 C 0.9758(7) 0.5739(10) 0.0417(4)
C53 C 0.4261(10) 0.4019(7) 0.0417(4)
H27 H 0.6201 0.0223 0.0050
H30 H 0.9777 0.5978 0.0050
H31 H 0.4022 0.3799 0.0050
C58 C 0.3773(7) 0.4064(5) 0.0910(4)
C63 C 0.4141(6) 0.4487(4) 0.1446(3)
H36 H 0.4666 0.4698 0.1501
C68 C 0.3719(6) 0.4570(4) 0.1861(3)
H41 H 0.3959 0.4858 0.2206
C73 C 0.2578(8) 0.3846(5) 0.1314(4)
H46 H 0.2051 0.3634 0.1270
C78 C 0.3007(9) 0.3750(6) 0.0874(4)
H51 H 0.2756 0.3454 0.0534
N4 N 0.5750(4) 0.0706(4) 0.0456(3)
N7 N 0.9294(4) 0.5044(6) 0.0456(3)
N8 N 0.4956(6) 0.4250(4) 0.0456(3)
N19 N 0.2941(6) 0.4253(4) 0.1808(2)
N20 N 0.5093(7) 0.1540(7) 0.0620(4)
N23 N 0.8460(7) 0.3553(10) 0.0620(4)
N24 N 0.6447(10) 0.4907(7) 0.0620(4)
H57 H 0.525(5) 0.146(9) 0.0953(14)
H60 H 0.854(9) 0.379(10) 0.0953(14)
H61 H 0.621(10) 0.475(5) 0.0953(14)
H62 H 0.4614(15) 0.133(8) 0.0659(19)
H65 H 0.867(8) 0.3284(81) 0.0659(19)
H66 H 0.6716(81) 0.5386(15) 0.0659(19)
Cd1 Cd 0.77560(2) 0.22440(2) 0.7500
Na1 Na 0.6667 0.3333 0.7500
C1 C 0.8175(5) 0.3293(4) 0.6582(3)
C2 C 0.8265(4) 0.3731(4) 0.6011(3)
C3 C 0.8753(4) 0.3775(4) 0.5572(3)
H1 H 0.9049 0.3547 0.5639
C4 C 0.8829(4) 0.4148(5) 0.5024(4)
C5 C 0.8376(6) 0.4527(6) 0.4915(5)
C6 C 0.7847(6) 0.4478(6) 0.5381(4)
H2 H 0.7537 0.4693 0.5327
C7 C 0.7824(5) 0.4090(5) 0.5917(3)
H3 H 0.7501 0.4068 0.6229
C8 C 0.9758(7) 0.4019(7) 0.4583(4)
H4 H 0.9777 0.3799 0.4950
O1 O 0.7655(3) 0.3228(3) 0.6961(2)
O2 O 0.8599(3) 0.3030(3) 0.6672(2)
O3 O 0.8460(2) 0.1540(2) 0.7500
N1 N 0.9294(4) 0.4250(4) 0.4544(3)
N3 N 0.8460(7) 0.4907(7) 0.4380(4)
H9 H 0.880(7) 0.163(7) 0.774(5)
H10 H 0.854(9) 0.475(5) 0.4047(14)
H11 H 0.867(8) 0.5386(15) 0.4341(19)
Cd2 Cd 0.77560(2) 0.55120(3) 0.7500
Cd3 Cd 0.44880(3) 0.22440(2) 0.7500
Cd6 Cd 0.55120(3) 0.77560(2) 0.2500
C14 C 0.6707(4) 0.1825(5) 0.8418(3)
C15 C 0.6707(4) 0.4882(6) 0.6582(3)
C16 C 0.5118(6) 0.1825(5) 0.6582(3)
C17 C 0.8175(5) 0.4882(6) 0.8418(3)
C18 C 0.5118(6) 0.3293(4) 0.8418(3)
C19 C 0.6269(4) 0.1735(4) 0.8989(3)
C20 C 0.6269(4) 0.4534(6) 0.6011(3)
C21 C 0.5466(6) 0.1735(4) 0.6011(3)
C22 C 0.8265(4) 0.4534(6) 0.8989(3)
C23 C 0.5466(6) 0.3731(4) 0.8989(3)
C24 C 0.6225(4) 0.1247(4) 0.9428(3)
C25 C 0.6225(4) 0.4978(6) 0.5572(3)
C26 C 0.5022(6) 0.1247(4) 0.5572(3)
C27 C 0.8753(4) 0.4978(6) 0.9428(3)
C28 C 0.5022(6) 0.3775(4) 0.9428(3)
H12 H 0.6453 0.0951 0.9361
H13 H 0.6453 0.5502 0.5639
H14 H 0.4498 0.0951 0.5639
H15 H 0.9049 0.5502 0.9361
H16 H 0.4498 0.3547 0.9361
C29 C 0.5852(5) 0.1171(4) 0.9976(4)
C30 C 0.5852(5) 0.4681(6) 0.5024(4)
C31 C 0.5319(6) 0.1171(4) 0.5024(4)
C32 C 0.8829(4) 0.4681(6) 0.9976(4)
C33 C 0.5319(6) 0.4148(5) 0.9976(4)
C35 C 0.5473(6) 0.3849(8) 0.4915(5)
C36 C 0.6151(8) 0.1624(6) 0.4915(5)
C39 C 0.5522(6) 0.2153(6) 0.9619(4)
C40 C 0.5522(6) 0.3369(8) 0.5381(4)
C41 C 0.6631(8) 0.2153(6) 0.5381(4)
C42 C 0.7847(6) 0.3369(8) 0.9619(4)
C43 C 0.6631(8) 0.4478(6) 0.9619(4)
H17 H 0.5307 0.2463 0.9673
H18 H 0.5307 0.2844 0.5327
H19 H 0.7156 0.2463 0.5327
H20 H 0.7537 0.2844 0.9673
H21 H 0.7156 0.4693 0.9673
C44 C 0.5910(5) 0.2176(5) 0.9083(3)
C45 C 0.5910(5) 0.3734(7) 0.5917(3)
C46 C 0.6266(7) 0.2176(5) 0.5917(3)
C47 C 0.7824(5) 0.3734(7) 0.9083(3)
C48 C 0.6266(7) 0.4090(5) 0.9083(3)
H22 H 0.5932 0.2499 0.8771
H23 H 0.5932 0.3433 0.6229
H24 H 0.6567 0.2499 0.6229
H25 H 0.7501 0.3433 0.8771
H26 H 0.6567 0.4068 0.8771
C50 C 0.5981(7) 0.5739(10) 0.4583(4)
C51 C 0.4261(10) 0.0242(7) 0.4583(4)
H28 H 0.6201 0.5978 0.4950
H29 H 0.4022 0.0223 0.4950
C55 C 0.5936(5) 0.6227(7) 0.4090(4)
C60 C 0.5513(4) 0.5859(6) 0.3554(3)
H33 H 0.5302 0.5334 0.3499
C65 C 0.5430(4) 0.6281(6) 0.3139(3)
H38 H 0.5142 0.6041 0.2794
C70 C 0.6154(5) 0.7422(8) 0.3686(4)
H43 H 0.6366 0.7949 0.3730
C75 C 0.6250(6) 0.6993(9) 0.4126(4)
H48 H 0.6546 0.7244 0.4466
O4 O 0.6772(3) 0.2345(3) 0.8039(2)
O5 O 0.6772(3) 0.4427(4) 0.6961(2)
O6 O 0.5573(4) 0.2345(3) 0.6961(2)
O7 O 0.7655(3) 0.4427(4) 0.8039(2)
O8 O 0.5573(4) 0.3228(3) 0.8039(2)
O9 O 0.6970(3) 0.1401(3) 0.8328(2)
O10 O 0.6970(3) 0.5569(4) 0.6672(2)
O11 O 0.8599(3) 0.5569(4) 0.8328(2)
O12 O 0.4431(4) 0.1401(3) 0.6672(2)
O13 O 0.4431(4) 0.3030(3) 0.8328(2)
O14 O 0.8460(2) 0.6920(3) 0.7500
O15 O 0.3080(3) 0.1540(2) 0.7500
N5 N 0.5750(4) 0.5044(6) 0.4544(3)
N6 N 0.4956(6) 0.0706(4) 0.4544(3)
N9 N 0.8688(4) 0.2941(6) 0.8192(2)
N10 N 0.7059(6) 0.1312(4) 0.6808(2)
N11 N 0.8688(4) 0.5747(4) 0.6808(2)
N12 N 0.7059(6) 0.5747(4) 0.8192(2)
N13 N 0.4253(4) 0.2941(6) 0.6808(2)
N14 N 0.4253(4) 0.1312(4) 0.8192(2)
N16 N 0.5747(4) 0.7059(6) 0.3192(2)
N21 N 0.5093(7) 0.3553(10) 0.4380(4)
N22 N 0.6447(10) 0.1540(7) 0.4380(4)
H52 H 0.837(7) 0.120(7) 0.726(5)
H53 H 0.837(7) 0.717(10) 0.774(5)
H54 H 0.880(7) 0.717(10) 0.726(5)
H55 H 0.283(10) 0.120(7) 0.774(5)
H56 H 0.283(10) 0.163(7) 0.726(5)
H58 H 0.525(5) 0.379(10) 0.4047(14)
H59 H 0.621(10) 0.146(9) 0.4047(14)
H63 H 0.4614(15) 0.3284(81) 0.4341(19)
H64 H 0.6716(81) 0.133(8) 0.4341(19)
C54 C 0.5936(5) 0.9709(5) 0.0910(4)
C59 C 0.5513(4) 0.9654(5) 0.1446(3)
H32 H 0.5302 0.9968 0.1501
C64 C 0.5430(4) 0.9149(4) 0.1861(3)
H37 H 0.5142 0.9101 0.2206
C69 C 0.6154(5) 0.8732(6) 0.1314(4)
H42 H 0.6366 0.8417 0.1270
C74 C 0.6250(6) 0.9257(7) 0.0874(4)
H47 H 0.6546 0.9302 0.0534
N15 N 0.5747(4) 0.8688(4) 0.1808(2)
C56 C 0.3773(7) 0.9709(5) 0.4090(4)
C61 C 0.4141(6) 0.9654(5) 0.3554(3)
H34 H 0.4666 0.9968 0.3499
C66 C 0.3719(6) 0.9149(4) 0.3139(3)
H39 H 0.3959 0.9101 0.2794
C71 C 0.2578(8) 0.8732(6) 0.3686(4)
H44 H 0.2051 0.8417 0.3730
C76 C 0.3007(9) 0.9257(7) 0.4126(4)
H49 H 0.2756 0.9302 0.4466
N17 N 0.2941(6) 0.8688(4) 0.3192(2)
C56_2 C 0.6227(7) 0.0291(5) 0.5910(4)
C61_2 C 0.5859(6) 0.0346(5) 0.6446(3)
H34_2 H 0.5334 0.0032 0.6501
C66_2 C 0.6281(6) 0.0851(4) 0.6861(3)
H39_2 H 0.6041 0.0899 0.7206
C71_2 C 0.7422(8) 0.1268(6) 0.6314(4)
H44_2 H 0.7949 0.1583 0.6270
C76_2 C 0.6993(9) 0.0743(7) 0.5874(4)
H49_2 H 0.7244 0.0698 0.5534
C54_2 C 0.4064(5) 0.0291(5) 0.9090(4)
C59_2 C 0.4487(4) 0.0346(5) 0.8554(3)
H32_2 H 0.4698 0.0032 0.8499
C64_2 C 0.4570(4) 0.0851(4) 0.8139(3)
H37_2 H 0.4858 0.0899 0.7794
C69_2 C 0.3846(5) 0.1268(6) 0.8686(4)
H42_2 H 0.3634 0.1583 0.8730
C74_2 C 0.3750(6) 0.0743(7) 0.9126(4)
H47_2 H 0.3454 0.0698 0.9466
Na1_2 Na 0.3333 0.6667 0.2500
C1_2 C 0.1825(5) 0.6707(4) 0.3418(3)
C2_2 C 0.1735(4) 0.6269(4) 0.3989(3)
C3_2 C 0.1247(4) 0.6225(4) 0.4428(3)
H1_2 H 0.0951 0.6453 0.4361
C4_2 C 0.1171(4) 0.5852(5) 0.4976(4)
C5_2 C 0.1624(6) 0.5473(6) 0.5085(5)
C6_2 C 0.2153(6) 0.5522(6) 0.4619(4)
H2_2 H 0.2463 0.5307 0.4673
C7_2 C 0.2176(5) 0.5910(5) 0.4083(3)
H3_2 H 0.2499 0.5932 0.3771
C8_2 C 0.0242(7) 0.5981(7) 0.5417(4)
H4_2 H 0.0223 0.6201 0.5050
O1_2 O 0.2345(3) 0.6772(3) 0.3039(2)
O2_2 O 0.1401(3) 0.6970(3) 0.3328(2)
O3_2 O 0.1540(2) 0.8460(2) 0.2500
N1_2 N 0.0706(4) 0.5750(4) 0.5456(3)
N3_2 N 0.1540(7) 0.5093(7) 0.5620(4)
H9_2 H 0.120(7) 0.837(7) 0.226(5)
H10_2 H 0.146(9) 0.525(5) 0.5953(14)
H11_2 H 0.133(8) 0.4614(15) 0.5659(19)
C14_2 C 0.3293(4) 0.8175(5) 0.1582(3)
C15_2 C 0.3293(4) 0.5118(6) 0.3418(3)
C16_2 C 0.4882(6) 0.8175(5) 0.3418(3)
C17_2 C 0.1825(5) 0.5118(6) 0.1582(3)
C18_2 C 0.4882(6) 0.6707(4) 0.1582(3)
C19_2 C 0.3731(4) 0.8265(4) 0.1011(3)
C20_2 C 0.3731(4) 0.5466(6) 0.3989(3)
C21_2 C 0.4534(6) 0.8265(4) 0.3989(3)
C22_2 C 0.1735(4) 0.5466(6) 0.1011(3)
C23_2 C 0.4534(6) 0.6269(4) 0.1011(3)
C24_2 C 0.3775(4) 0.8753(4) 0.0572(3)
C25_2 C 0.3775(4) 0.5022(6) 0.4428(3)
C26_2 C 0.4978(6) 0.8753(4) 0.4428(3)
C27_2 C 0.1247(4) 0.5022(6) 0.0572(3)
C28_2 C 0.4978(6) 0.6225(4) 0.0572(3)
H12_2 H 0.3547 0.9049 0.0639
H13_2 H 0.3547 0.4498 0.4361
H14_2 H 0.5502 0.9049 0.4361
H15_2 H 0.0951 0.4498 0.0639
H16_2 H 0.5502 0.6453 0.0639
C29_2 C 0.4148(5) 0.8829(4) 0.0024(4)
C30_2 C 0.4148(5) 0.5319(6) 0.4976(4)
C31_2 C 0.4681(6) 0.8829(4) 0.4976(4)
C32_2 C 0.1171(4) 0.5319(6) 0.0024(4)
C33_2 C 0.4681(6) 0.5852(5) 0.0024(4)
C35_2 C 0.4527(6) 0.6151(8) 0.5085(5)
C36_2 C 0.3849(8) 0.8376(6) 0.5085(5)
C39_2 C 0.4478(6) 0.7847(6) 0.0381(4)
C40_2 C 0.4478(6) 0.6631(8) 0.4619(4)
C41_2 C 0.3369(8) 0.7847(6) 0.4619(4)
C42_2 C 0.2153(6) 0.6631(8) 0.0381(4)
C43_2 C 0.3369(8) 0.5522(6) 0.0381(4)
H17_2 H 0.4693 0.7537 0.0327
H18_2 H 0.4693 0.7156 0.4673
H19_2 H 0.2844 0.7537 0.4673
H20_2 H 0.2463 0.7156 0.0327
H21_2 H 0.2844 0.5307 0.0327
C44_2 C 0.4090(5) 0.7824(5) 0.0917(3)
C45_2 C 0.4090(5) 0.6266(7) 0.4083(3)
C46_2 C 0.3734(7) 0.7824(5) 0.4083(3)
C47_2 C 0.2176(5) 0.6266(7) 0.0917(3)
C48_2 C 0.3734(7) 0.5910(5) 0.0917(3)
H22_2 H 0.4068 0.7501 0.1229
H23_2 H 0.4068 0.6567 0.3771
H24_2 H 0.3433 0.7501 0.3771
H25_2 H 0.2499 0.6567 0.1229
H26_2 H 0.3433 0.5932 0.1229
C50_2 C 0.4019(7) 0.4261(10) 0.5417(4)
C51_2 C 0.5739(10) 0.9758(7) 0.5417(4)
H28_2 H 0.3799 0.4022 0.5050
H29_2 H 0.5978 0.9777 0.5050
C55_2 C 0.4064(5) 0.3773(7) 0.5910(4)
C60_2 C 0.4487(4) 0.4141(6) 0.6446(3)
H33_2 H 0.4698 0.4666 0.6501
C65_2 C 0.4570(4) 0.3719(6) 0.6861(3)
H38_2 H 0.4858 0.3959 0.7206
C70_2 C 0.3846(5) 0.2578(8) 0.6314(4)
H43_2 H 0.3634 0.2051 0.6270
C75_2 C 0.3750(6) 0.3007(9) 0.5874(4)
H48_2 H 0.3454 0.2756 0.5534
O4_2 O 0.3228(3) 0.7655(3) 0.1961(2)
O5_2 O 0.3228(3) 0.5573(4) 0.3039(2)
O6_2 O 0.4427(4) 0.7655(3) 0.3039(2)
O7_2 O 0.2345(3) 0.5573(4) 0.1961(2)
O8_2 O 0.4427(4) 0.6772(3) 0.1961(2)
O9_2 O 0.3030(3) 0.8599(3) 0.1672(2)
O10_2 O 0.3030(3) 0.4431(4) 0.3328(2)
O11_2 O 0.1401(3) 0.4431(4) 0.1672(2)
O12_2 O 0.5569(4) 0.8599(3) 0.3328(2)
O13_2 O 0.5569(4) 0.6970(3) 0.1672(2)
O14_2 O 0.1540(2) 0.3080(3) 0.2500
O15_2 O 0.6920(3) 0.8460(2) 0.2500
N5_2 N 0.4250(4) 0.4956(6) 0.5456(3)
N6_2 N 0.5044(6) 0.9294(4) 0.5456(3)
N21_2 N 0.4907(7) 0.6447(10) 0.5620(4)
N22_2 N 0.3553(10) 0.8460(7) 0.5620(4)
H52_2 H 0.163(7) 0.880(7) 0.274(5)
H53_2 H 0.163(7) 0.283(10) 0.226(5)
H54_2 H 0.120(7) 0.283(10) 0.274(5)
H55_2 H 0.717(10) 0.880(7) 0.226(5)
H56_2 H 0.717(10) 0.837(7) 0.274(5)
H58_2 H 0.475(5) 0.621(10) 0.5953(14)
H59_2 H 0.379(10) 0.854(9) 0.5953(14)
H63_2 H 0.5386(15) 0.6716(81) 0.5659(19)
H64_2 H 0.3284(81) 0.867(8) 0.5659(19)
C34_2 C 0.4527(6) 0.8376(6) 0.9915(5)
C37_2 C 0.1624(6) 0.6151(8) 0.9915(5)
C38_2 C 0.3849(8) 0.5473(6) 0.9915(5)
C49_2 C 0.4019(7) 0.9758(7) 0.9583(4)
C52_2 C 0.0242(7) 0.4261(10) 0.9583(4)
C53_2 C 0.5739(10) 0.5981(7) 0.9583(4)
H27_2 H 0.3799 0.9777 0.9950
H30_2 H 0.0223 0.4022 0.9950
H31_2 H 0.5978 0.6201 0.9950
C58_2 C 0.6227(7) 0.5936(5) 0.9090(4)
C63_2 C 0.5859(6) 0.5513(4) 0.8554(3)
H36_2 H 0.5334 0.5302 0.8499
C68_2 C 0.6281(6) 0.5430(4) 0.8139(3)
H41_2 H 0.6041 0.5142 0.7794
C73_2 C 0.7422(8) 0.6154(5) 0.8686(4)
H46_2 H 0.7949 0.6366 0.8730
C78_2 C 0.6993(9) 0.6250(6) 0.9126(4)
H51_2 H 0.7244 0.6546 0.9466
N4_2 N 0.4250(4) 0.9294(4) 0.9544(3)
N7_2 N 0.0706(4) 0.4956(6) 0.9544(3)
N8_2 N 0.5044(6) 0.5750(4) 0.9544(3)
N20_2 N 0.4907(7) 0.8460(7) 0.9380(4)
N23_2 N 0.1540(7) 0.6447(10) 0.9380(4)
N24_2 N 0.3553(10) 0.5093(7) 0.9380(4)
H57_2 H 0.475(5) 0.854(9) 0.9047(14)
H60_2 H 0.146(9) 0.621(10) 0.9047(14)
H61_2 H 0.379(10) 0.525(5) 0.9047(14)
H62_2 H 0.5386(15) 0.867(8) 0.9341(19)
H65_2 H 0.133(8) 0.6716(81) 0.9341(19)
H66_2 H 0.3284(81) 0.4614(15) 0.9341(19)
C9_2 C 0.9709(5) 0.5936(5) 0.5910(4)
C10_2 C 0.9654(5) 0.5513(4) 0.6446(3)
H5_2 H 0.9968 0.5302 0.6501
C11_2 C 0.9149(4) 0.5430(4) 0.6861(3)
H6_2 H 0.9101 0.5142 0.7206
C12_2 C 0.8732(6) 0.6154(5) 0.6314(4)
H7_2 H 0.8417 0.6366 0.6270
C13_2 C 0.9257(7) 0.6250(6) 0.5874(4)
H8_2 H 0.9302 0.6546 0.5534
C57_2 C 0.9709(5) 0.3773(7) 0.9090(4)
C62_2 C 0.9654(5) 0.4141(6) 0.8554(3)
H35_2 H 0.9968 0.4666 0.8499
C67_2 C 0.9149(4) 0.3719(6) 0.8139(3)
H40_2 H 0.9101 0.3959 0.7794
C72_2 C 0.8732(6) 0.2578(8) 0.8686(4)
H45_2 H 0.8417 0.2051 0.8730
C77_2 C 0.9257(7) 0.3007(9) 0.9126(4)
H50_2 H 0.9302 0.2756 0.9466
loop_
_geom_bond_atom_site_label_1
_geom_bond_atom_site_label_2
_geom_bond_site_symmetry_1
_geom_bond_site_symmetry_2
Cd8 N18 1_555 1_555
C62 C57 1_555 1_555
H35 C62 1_555 1_555
C67 C62 1_555 1_555
H40 C67 1_555 1_555
C72 H45 1_555 1_555
C77 C57 1_555 1_555
H50 C77 1_555 1_555
N18 C67 1_555 1_555
C72 C77 1_555 1_555
C72 N18 1_555 1_555
C10 C9 1_555 1_555
H5 C10 1_555 1_555
C11 C10 1_555 1_555
H6 C11 1_555 1_555
C12 H7 1_555 1_555
C13 C9 1_555 1_555
H8 C13 1_555 1_555
N2 C11 1_555 1_555
Cd4 N2 1_555 1_555
C12 C13 1_555 1_555
C12 N2 1_555 1_555
Cd4 N19 1_555 1_555
C49 H27 1_555 1_555
C52 H30 1_555 1_555
C53 H31 1_555 1_555
C58 C53 1_555 1_555
C63 C58 1_555 1_555
H36 C63 1_555 1_555
C68 C63 1_555 1_555
H41 C68 1_555 1_555
C73 H46 1_555 1_555
C78 C58 1_555 1_555
H51 C78 1_555 1_555
N19 C68 1_555 1_555
N20 C34 1_555 1_555
N23 C37 1_555 1_555
N24 C38 1_555 1_555
H57 N20 1_555 1_555
H60 N23 1_555 1_555
H61 N24 1_555 1_555
H62 N20 1_555 1_555
H65 N23 1_555 1_555
H66 N24 1_555 1_555
C49 N4 1_555 1_555
C52 N7 1_555 1_555
C53 N8 1_555 1_555
C73 C78 1_555 1_555
C73 N19 1_555 1_555
Cd1 O1 1_555 1_555
Na1 O1 1_555 1_555
C1 C2 1_555 1_555
C2 C3 1_555 1_555
C3 H1 1_555 1_555
C4 C3 1_555 1_555
C5 C4 1_555 1_555
C6 C5 1_555 1_555
H2 C6 1_555 1_555
C7 C2 1_555 1_555
H3 C7 1_555 1_555
C8 H4 1_555 1_555
O1 C1 1_555 1_555
O2 Cd1 1_555 1_555
O3 Cd1 1_555 1_555
N1 C4 1_555 1_555
N3 C5 1_555 1_555
H9 O3 1_555 1_555
H10 N3 1_555 1_555
H11 N3 1_555 1_555
Cd2 O5 1_555 1_555
Cd3 O6 1_555 1_555
Cd6 N16 1_555 1_555
C14 C19 1_555 1_555
C15 C20 1_555 1_555
C16 C21 1_555 1_555
C17 C22 1_555 1_555
C18 C23 1_555 1_555
C19 C24 1_555 1_555
C20 C25 1_555 1_555
C21 C26 1_555 1_555
C22 C27 1_555 1_555
C23 C28 1_555 1_555
C24 H12 1_555 1_555
C25 H13 1_555 1_555
C26 H14 1_555 1_555
C27 H15 1_555 1_555
C28 H16 1_555 1_555
C29 C24 1_555 1_555
C30 C25 1_555 1_555
C31 C26 1_555 1_555
C32 C27 1_555 1_555
C33 C28 1_555 1_555
C35 C30 1_555 1_555
C36 C31 1_555 1_555
C40 C35 1_555 1_555
C41 C36 1_555 1_555
H17 C39 1_555 1_555
H18 C40 1_555 1_555
H19 C41 1_555 1_555
H20 C42 1_555 1_555
H21 C43 1_555 1_555
C44 C19 1_555 1_555
C45 C20 1_555 1_555
C46 C21 1_555 1_555
C47 C22 1_555 1_555
C48 C23 1_555 1_555
H22 C44 1_555 1_555
H23 C45 1_555 1_555
H24 C46 1_555 1_555
H25 C47 1_555 1_555
H26 C48 1_555 1_555
C50 H28 1_555 1_555
C51 H29 1_555 1_555
C55 C50 1_555 1_555
C60 C55 1_555 1_555
H33 C60 1_555 1_555
C65 C60 1_555 1_555
H38 C65 1_555 1_555
C70 H43 1_555 1_555
C75 C55 1_555 1_555
H48 C75 1_555 1_555
O4 Cd1 1_555 1_555
O5 Na1 1_555 1_555
O6 Na1 1_555 1_555
O7 Na1 1_555 1_555
O8 Na1 1_555 1_555
O9 Cd1 1_555 1_555
O10 Cd2 1_555 1_555
O11 Cd2 1_555 1_555
O12 Cd3 1_555 1_555
O13 Cd3 1_555 1_555
O14 Cd2 1_555 1_555
O15 Cd3 1_555 1_555
N5 C30 1_555 1_555
N6 C31 1_555 1_555
N9 Cd1 1_555 1_555
N10 Cd1 1_555 1_555
N11 Cd2 1_555 1_555
N12 Cd2 1_555 1_555
N13 Cd3 1_555 1_555
N14 Cd3 1_555 1_555
N16 C65 1_555 1_555
N21 C35 1_555 1_555
N22 C36 1_555 1_555
H52 O3 1_555 1_555
H53 O14 1_555 1_555
H54 O14 1_555 1_555
H55 O15 1_555 1_555
H56 O15 1_555 1_555
H58 N21 1_555 1_555
H59 N22 1_555 1_555
H63 N21 1_555 1_555
H64 N22 1_555 1_555
Na1 O4 1_555 1_555
C1 O2 1_555 1_555
C6 C7 1_555 1_555
C8 N1 1_555 1_555
Cd2 O7 1_555 1_555
Cd3 O8 1_555 1_555
C14 O4 1_555 1_555
C14 O9 1_555 1_555
C15 O5 1_555 1_555
C15 O10 1_555 1_555
C16 O6 1_555 1_555
C16 O12 1_555 1_555
C17 O7 1_555 1_555
C17 O11 1_555 1_555
C18 O8 1_555 1_555
C18 O13 1_555 1_555
C39 C44 1_555 1_555
C40 C45 1_555 1_555
C41 C46 1_555 1_555
C42 C47 1_555 1_555
C43 C48 1_555 1_555
C50 N5 1_555 1_555
C51 N6 1_555 1_555
C70 C75 1_555 1_555
C70 N16 1_555 1_555
Cd6 N15 1_555 1_555
C59 C54 1_555 1_555
H32 C59 1_555 1_555
C64 C59 1_555 1_555
H37 C64 1_555 1_555
C69 H42 1_555 1_555
C74 C54 1_555 1_555
H47 C74 1_555 1_555
N15 C64 1_555 1_555
C69 C74 1_555 1_555
C69 N15 1_555 1_555
Cd8 N17 1_555 1_555
C61 C56 1_555 1_555
H34 C61 1_555 1_555
C66 C61 1_555 1_555
H39 C66 1_555 1_555
C71 H44 1_555 1_555
C76 C56 1_555 1_555
H49 C76 1_555 1_555
N17 C66 1_555 1_555
C71 C76 1_555 1_555
C71 N17 1_555 1_555
C61_2 C56_2 1_555 1_555
H34_2 C61_2 1_555 1_555
C66_2 C61_2 1_555 1_555
H39_2 C66_2 1_555 1_555
C71_2 H44_2 1_555 1_555
C76_2 C56_2 1_555 1_555
H49_2 C76_2 1_555 1_555
N10 C66_2 1_555 1_555
C71_2 C76_2 1_555 1_555
C71_2 N10 1_555 1_555
C59_2 C54_2 1_555 1_555
H32_2 C59_2 1_555 1_555
C64_2 C59_2 1_555 1_555
H37_2 C64_2 1_555 1_555
C69_2 H42_2 1_555 1_555
C74_2 C54_2 1_555 1_555
H47_2 C74_2 1_555 1_555
N14 C64_2 1_555 1_555
C69_2 C74_2 1_555 1_555
C69_2 N14 1_555 1_555
Cd8 O1_2 1_555 1_555
Na1_2 O1_2 1_555 1_555
C1_2 C2_2 1_555 1_555
C2_2 C3_2 1_555 1_555
C3_2 H1_2 1_555 1_555
C4_2 C3_2 1_555 1_555
C5_2 C4_2 1_555 1_555
C6_2 C5_2 1_555 1_555
H2_2 C6_2 1_555 1_555
C7_2 C2_2 1_555 1_555
H3_2 C7_2 1_555 1_555
C8_2 H4_2 1_555 1_555
O1_2 C1_2 1_555 1_555
O2_2 Cd8 1_555 1_555
O3_2 Cd8 1_555 1_555
N1_2 C4_2 1_555 1_555
N3_2 C5_2 1_555 1_555
H9_2 O3_2 1_555 1_555
H10_2 N3_2 1_555 1_555
H11_2 N3_2 1_555 1_555
Cd4 O5_2 1_555 1_555
Cd6 O6_2 1_555 1_555
C14_2 C19_2 1_555 1_555
C15_2 C20_2 1_555 1_555
C16_2 C21_2 1_555 1_555
C17_2 C22_2 1_555 1_555
C18_2 C23_2 1_555 1_555
C19_2 C24_2 1_555 1_555
C20_2 C25_2 1_555 1_555
C21_2 C26_2 1_555 1_555
C22_2 C27_2 1_555 1_555
C23_2 C28_2 1_555 1_555
C24_2 H12_2 1_555 1_555
C25_2 H13_2 1_555 1_555
C26_2 H14_2 1_555 1_555
C27_2 H15_2 1_555 1_555
C28_2 H16_2 1_555 1_555
C29_2 C24_2 1_555 1_555
C30_2 C25_2 1_555 1_555
C31_2 C26_2 1_555 1_555
C32_2 C27_2 1_555 1_555
C33_2 C28_2 1_555 1_555
C35_2 C30_2 1_555 1_555
C36_2 C31_2 1_555 1_555
C40_2 C35_2 1_555 1_555
C41_2 C36_2 1_555 1_555
H17_2 C39_2 1_555 1_555
H18_2 C40_2 1_555 1_555
H19_2 C41_2 1_555 1_555
H20_2 C42_2 1_555 1_555
H21_2 C43_2 1_555 1_555
C44_2 C19_2 1_555 1_555
C45_2 C20_2 1_555 1_555
C46_2 C21_2 1_555 1_555
C47_2 C22_2 1_555 1_555
C48_2 C23_2 1_555 1_555
H22_2 C44_2 1_555 1_555
H23_2 C45_2 1_555 1_555
H24_2 C46_2 1_555 1_555
H25_2 C47_2 1_555 1_555
H26_2 C48_2 1_555 1_555
C50_2 H28_2 1_555 1_555
C51_2 H29_2 1_555 1_555
C55_2 C50_2 1_555 1_555
C60_2 C55_2 1_555 1_555
H33_2 C60_2 1_555 1_555
C65_2 C60_2 1_555 1_555
H38_2 C65_2 1_555 1_555
C70_2 H43_2 1_555 1_555
C75_2 C55_2 1_555 1_555
H48_2 C75_2 1_555 1_555
O4_2 Cd8 1_555 1_555
O5_2 Na1_2 1_555 1_555
O6_2 Na1_2 1_555 1_555
O7_2 Na1_2 1_555 1_555
O8_2 Na1_2 1_555 1_555
O9_2 Cd8 1_555 1_555
O10_2 Cd4 1_555 1_555
O11_2 Cd4 1_555 1_555
O12_2 Cd6 1_555 1_555
O13_2 Cd6 1_555 1_555
O14_2 Cd4 1_555 1_555
O15_2 Cd6 1_555 1_555
N5_2 C30_2 1_555 1_555
N6_2 C31_2 1_555 1_555
N13 C65_2 1_555 1_555
N21_2 C35_2 1_555 1_555
N22_2 C36_2 1_555 1_555
H52_2 O3_2 1_555 1_555
H53_2 O14_2 1_555 1_555
H54_2 O14_2 1_555 1_555
H55_2 O15_2 1_555 1_555
H56_2 O15_2 1_555 1_555
H58_2 N21_2 1_555 1_555
H59_2 N22_2 1_555 1_555
H63_2 N21_2 1_555 1_555
H64_2 N22_2 1_555 1_555
Na1_2 O4_2 1_555 1_555
C1_2 O2_2 1_555 1_555
C6_2 C7_2 1_555 1_555
C8_2 N1_2 1_555 1_555
Cd4 O7_2 1_555 1_555
Cd6 O8_2 1_555 1_555
C14_2 O4_2 1_555 1_555
C14_2 O9_2 1_555 1_555
C15_2 O5_2 1_555 1_555
C15_2 O10_2 1_555 1_555
C16_2 O6_2 1_555 1_555
C16_2 O12_2 1_555 1_555
C17_2 O7_2 1_555 1_555
C17_2 O11_2 1_555 1_555
C18_2 O8_2 1_555 1_555
C18_2 O13_2 1_555 1_555
C39_2 C44_2 1_555 1_555
C40_2 C45_2 1_555 1_555
C41_2 C46_2 1_555 1_555
C42_2 C47_2 1_555 1_555
C43_2 C48_2 1_555 1_555
C50_2 N5_2 1_555 1_555
C51_2 N6_2 1_555 1_555
C70_2 C75_2 1_555 1_555
C70_2 N13 1_555 1_555
C49_2 H27_2 1_555 1_555
C52_2 H30_2 1_555 1_555
C53_2 H31_2 1_555 1_555
C58_2 C53_2 1_555 1_555
C63_2 C58_2 1_555 1_555
H36_2 C63_2 1_555 1_555
C68_2 C63_2 1_555 1_555
H41_2 C68_2 1_555 1_555
C73_2 H46_2 1_555 1_555
C78_2 C58_2 1_555 1_555
H51_2 C78_2 1_555 1_555
N12 C68_2 1_555 1_555
N20_2 C34_2 1_555 1_555
N23_2 C37_2 1_555 1_555
N24_2 C38_2 1_555 1_555
H57_2 N20_2 1_555 1_555
H60_2 N23_2 1_555 1_555
H61_2 N24_2 1_555 1_555
H62_2 N20_2 1_555 1_555
H65_2 N23_2 1_555 1_555
H66_2 N24_2 1_555 1_555
C49_2 N4_2 1_555 1_555
C52_2 N7_2 1_555 1_555
C53_2 N8_2 1_555 1_555
C73_2 C78_2 1_555 1_555
C73_2 N12 1_555 1_555
C10_2 C9_2 1_555 1_555
H5_2 C10_2 1_555 1_555
C11_2 C10_2 1_555 1_555
H6_2 C11_2 1_555 1_555
C12_2 H7_2 1_555 1_555
C13_2 C9_2 1_555 1_555
H8_2 C13_2 1_555 1_555
N11 C11_2 1_555 1_555
C12_2 C13_2 1_555 1_555
C12_2 N11 1_555 1_555
C62_2 C57_2 1_555 1_555
H35_2 C62_2 1_555 1_555
C67_2 C62_2 1_555 1_555
H40_2 C67_2 1_555 1_555
C72_2 H45_2 1_555 1_555
C77_2 C57_2 1_555 1_555
H50_2 C77_2 1_555 1_555
N9 C67_2 1_555 1_555
C72_2 C77_2 1_555 1_555
C72_2 N9 1_555 1_555

#END
