
###############################################################################
#
# This file contains modified crystal structure data generated from the
# MOF subset of the Cambridge Structural Database (CSD) v543 
# hosted by the Cambridge Crystallographic Data Centre (CCDC).
#
# This work is licensed under the Creative Commons
# Attribution-NonCommercial-ShareAlike 4.0 International License.
# To view a copy of this license, visit
# http://creativecommons.org/licenses/by-nc-sa/4.0/
# or send a letter to
# Creative Commons, PO Box 1866, Mountain View, CA 94042, USA.
#
# CIF created using the CSD Python API on 29 September 2022
# The structure has been converted into the P1 space group
# The structure has a 3D framework
# The original CSD entry SUKNOC is in the trigonal crystal system
# The framework has been calculated to contain at least 10.0% void space
# The void calculation uses a probe of radius 1.32A, grid spacing 0.4
# The framework is charged, counterions have been retained in the structure
#
###############################################################################

data_SUKNOC
_chemical_formula_moiety         '(C156 H132 Cd6 K2 N36 O30 4+)n'
_symmetry_cell_setting           triclinic
_symmetry_space_group_name_H-M   'P 1'
_symmetry_Int_Tables_number      1
_space_group_name_Hall           'P 1'
loop_
_symmetry_equiv_pos_site_id
_symmetry_equiv_pos_as_xyz
1 x,y,z
_cell_length_a                   21.3676(4)
_cell_length_b                   21.3676(4)
_cell_length_c                   21.0560(10)
_cell_angle_alpha                90
_cell_angle_beta                 90
_cell_angle_gamma                120
_cell_volume                     8325.65
loop_
_atom_site_label
_atom_site_type_symbol
_atom_site_fract_x
_atom_site_fract_y
_atom_site_fract_z
C55 C 0.09671(14) 0.46972(20) 0.19056(11)
H33 H 0.1073 0.5009 0.2248
C60 C 0.04427(15) 0.46249(21) 0.14927(13)
H38 H 0.0194 0.4873 0.1557
C65 C 0.0291(2) 0.41714(27) 0.09768(18)
C70 C 0.0654(2) 0.37978(28) 0.09236(19)
H43 H 0.0551 0.3476 0.0590
C75 C 0.1171(2) 0.38984(27) 0.13620(17)
H48 H 0.1413 0.3641 0.1317
N16 N 0.13379(12) 0.43496(17) 0.18498(10)
Cd6 Cd 0.226190(15) 0.452370(13) 0.2500
C56 C 0.09671(14) 0.62699(14) 0.30944(11)
H34 H 0.1073 0.6064 0.2752
C61 C 0.04427(15) 0.58178(15) 0.35073(13)
H39 H 0.0194 0.5321 0.3443
C66 C 0.0291(2) 0.61196(18) 0.40232(18)
C71 C 0.0654(2) 0.68562(19) 0.40764(19)
H44 H 0.0551 0.7075 0.4410
C76 C 0.1171(2) 0.72726(18) 0.36380(17)
H49 H 0.1413 0.7772 0.3683
N17 N 0.13379(12) 0.69883(12) 0.31502(10)
Cd7 Cd 0.226180(7) 0.773810(15) 0.2500
C4 C 0.53799(16) 0.11207(16) 0.00364(15)
C5 C 0.61329(19) 0.1479(2) 0.00779(18)
C8 C 0.4328(2) 0.0241(3) 0.0487(2)
H4 H 0.4097 0.0294 0.0134
N1 N 0.49969(14) 0.06211(14) 0.05222(11)
N3 N 0.64519(19) 0.1357(3) 0.0578(2)
H10 H 0.6315(14) 0.0943(6) 0.0725(13)
H11 H 0.6904(2) 0.1616(12) 0.0572(14)
C29 C 0.57408(23) 0.46201(16) 0.00364(15)
C30 C 0.88793(16) 0.42592(23) 0.00364(15)
C34 C 0.53461(28) 0.38671(19) 0.00779(18)
C35 C 0.8521(2) 0.46539(28) 0.00779(18)
C49 C 0.5913(4) 0.5672(2) 0.0487(2)
C50 C 0.9759(3) 0.4087(4) 0.0487(2)
H27 H 0.6197 0.5903 0.0134
H28 H 0.9706 0.3803 0.0134
C54 C 0.53028(20) 0.62699(14) 0.19056(11)
H32 H 0.4991 0.6064 0.2248
C59 C 0.53751(21) 0.58178(15) 0.14927(13)
H37 H 0.5127 0.5321 0.1557
C64 C 0.58286(27) 0.61196(18) 0.09768(18)
C69 C 0.62022(28) 0.68562(19) 0.09236(19)
H42 H 0.6524 0.7075 0.0590
C74 C 0.61016(27) 0.72726(18) 0.13620(17)
H47 H 0.6359 0.7772 0.1317
N4 N 0.56242(20) 0.50031(14) 0.05222(11)
N5 N 0.93789(14) 0.43758(20) 0.05222(11)
N15 N 0.56504(17) 0.69883(12) 0.18498(10)
N20 N 0.49051(36) 0.35481(19) 0.0578(2)
N21 N 0.8643(3) 0.50949(36) 0.0578(2)
Cd5 Cd 0.547630(13) 0.773820(7) 0.2500
H57 H 0.4628(15) 0.3685(14) 0.0725(13)
H58 H 0.9057(6) 0.5372(15) 0.0725(13)
H62 H 0.4712(12) 0.3096(2) 0.0572(14)
H63 H 0.8384(12) 0.5288(12) 0.0572(14)
C1 C 0.51150(14) 0.18847(12) 0.85125(11)
C2 C 0.54747(14) 0.17728(13) 0.90623(11)
C3 C 0.50581(15) 0.12647(14) 0.95249(11)
H1 H 0.4557 0.1018 0.9491
C6 C 0.65441(18) 0.1994(2) 0.96115(16)
H2 H 0.7046 0.2237 0.9635
C7 C 0.62148(15) 0.21394(15) 0.91253(13)
H3 H 0.6496 0.2494 0.8830
O1 O 0.54992(9) 0.23367(8) 0.80901(8)
O2 O 0.44278(10) 0.15399(9) 0.84625(8)
O3 O 0.32241(16) 0.16120(8) 0.7500
K1 K 0.6667 0.3333 0.7500
Cd1 Cd 0.452370(13) 0.226180(7) 0.7500
H9 H 0.2972(4) 0.1196(6) 0.7629(14)
C14 C 0.67697(18) 0.48850(14) 0.85125(11)
C15 C 0.81153(12) 0.32303(18) 0.85125(11)
C16 C 0.81153(12) 0.48850(14) 0.64875(11)
C17 C 0.51150(14) 0.32303(18) 0.64875(11)
C18 C 0.67697(18) 0.18847(12) 0.64875(11)
C19 C 0.62981(19) 0.45253(14) 0.90623(11)
C20 C 0.82272(13) 0.37019(19) 0.90623(11)
C21 C 0.82272(13) 0.45253(14) 0.59377(11)
C22 C 0.54747(14) 0.37019(19) 0.59377(11)
C23 C 0.62981(19) 0.17728(13) 0.59377(11)
C24 C 0.62066(21) 0.49419(15) 0.95249(11)
C25 C 0.87353(14) 0.37934(21) 0.95249(11)
C26 C 0.87353(14) 0.49419(15) 0.54751(11)
C27 C 0.50581(15) 0.37934(21) 0.54751(11)
C28 C 0.62066(21) 0.12647(14) 0.54751(11)
H12 H 0.6461 0.5443 0.9491
H13 H 0.8982 0.3539 0.9491
H14 H 0.8982 0.5443 0.5509
H15 H 0.4557 0.3539 0.5509
H16 H 0.6461 0.1018 0.5509
C31 C 0.88793(16) 0.46201(16) 0.49636(15)
C32 C 0.53799(16) 0.42592(23) 0.49636(15)
C33 C 0.57408(23) 0.11207(16) 0.49636(15)
C36 C 0.8521(2) 0.38671(19) 0.49221(18)
C37 C 0.61329(19) 0.46539(28) 0.49221(18)
C38 C 0.53461(28) 0.1479(2) 0.49221(18)
C39 C 0.54499(27) 0.34559(18) 0.96115(16)
C40 C 0.8006(2) 0.45501(27) 0.96115(16)
C41 C 0.8006(2) 0.34559(18) 0.53885(16)
C42 C 0.65441(18) 0.45501(27) 0.53885(16)
C43 C 0.54499(27) 0.1994(2) 0.53885(16)
H17 H 0.5191 0.2954 0.9635
H18 H 0.7763 0.4809 0.9635
H19 H 0.7763 0.2954 0.5365
H20 H 0.7046 0.4809 0.5365
H21 H 0.5191 0.2237 0.5365
C44 C 0.59246(21) 0.37852(15) 0.91253(13)
C45 C 0.78606(15) 0.40754(21) 0.91253(13)
C46 C 0.78606(15) 0.37852(15) 0.58747(13)
C47 C 0.62148(15) 0.40754(21) 0.58747(13)
C48 C 0.59246(21) 0.21394(15) 0.58747(13)
H22 H 0.5998 0.3504 0.8830
H23 H 0.7506 0.4002 0.8830
H24 H 0.7506 0.3504 0.6170
H25 H 0.6496 0.4002 0.6170
H26 H 0.5998 0.2494 0.6170
C51 C 0.9759(3) 0.5672(2) 0.4513(2)
C52 C 0.4328(2) 0.4087(4) 0.4513(2)
C53 C 0.5913(4) 0.0241(3) 0.4513(2)
H29 H 0.9706 0.5903 0.4866
H30 H 0.4097 0.3803 0.4866
H31 H 0.6197 0.0294 0.4866
C57 C 0.37301(14) 0.46972(20) 0.30944(11)
H35 H 0.3936 0.5009 0.2752
C62 C 0.41822(15) 0.46249(21) 0.35073(13)
H40 H 0.4679 0.4873 0.3443
C67 C 0.38804(18) 0.41714(27) 0.40232(18)
C72 C 0.31438(19) 0.37978(28) 0.40764(19)
H45 H 0.2925 0.3476 0.4410
C77 C 0.27274(18) 0.38984(27) 0.36380(17)
H50 H 0.2228 0.3641 0.3683
N6 N 0.93789(14) 0.50031(14) 0.44778(11)
N7 N 0.49969(14) 0.43758(20) 0.44778(11)
N8 N 0.56242(20) 0.06211(14) 0.44778(11)
N9 N 0.43496(17) 0.30117(12) 0.81502(10)
N10 N 0.43496(17) 0.13379(12) 0.68498(10)
N11 N 0.86621(12) 0.56504(17) 0.81502(10)
N12 N 0.69883(12) 0.56504(17) 0.68498(10)
N13 N 0.69883(12) 0.13379(12) 0.81502(10)
N14 N 0.86621(12) 0.30117(12) 0.68498(10)
N18 N 0.30117(12) 0.43496(17) 0.31502(10)
N22 N 0.8643(3) 0.35481(19) 0.4422(2)
N23 N 0.64519(19) 0.50949(36) 0.4422(2)
N24 N 0.49051(36) 0.1357(3) 0.4422(2)
O4 O 0.68375(12) 0.45008(9) 0.80901(8)
O5 O 0.76633(8) 0.31625(12) 0.80901(8)
O6 O 0.76633(8) 0.45008(9) 0.69099(8)
O7 O 0.54992(9) 0.31625(12) 0.69099(8)
O8 O 0.68375(12) 0.23367(8) 0.69099(8)
O9 O 0.44278(10) 0.28879(13) 0.65375(8)
O10 O 0.71121(13) 0.55722(10) 0.84625(8)
O11 O 0.84601(9) 0.55722(10) 0.65375(8)
O12 O 0.84601(9) 0.28879(13) 0.84625(8)
O13 O 0.71121(13) 0.15399(9) 0.65375(8)
O14 O 0.83879(18) 0.67759(16) 0.7500
O15 O 0.83880(8) 0.16121(18) 0.7500
Cd3 Cd 0.773810(15) 0.547630(13) 0.7500
Cd4 Cd 0.773820(7) 0.226190(15) 0.7500
H52 H 0.2972(4) 0.1776(7) 0.7371(14)
H53 H 0.8224(7) 0.7028(4) 0.7629(14)
H54 H 0.8804(6) 0.7028(4) 0.7371(14)
H55 H 0.8804(6) 0.1776(7) 0.7629(14)
H56 H 0.8224(7) 0.1196(6) 0.7371(14)
H59 H 0.9057(6) 0.3685(14) 0.4275(13)
H60 H 0.6315(14) 0.5372(15) 0.4275(13)
H61 H 0.4628(15) 0.0943(6) 0.4275(13)
H64 H 0.8384(12) 0.3096(2) 0.4428(14)
H65 H 0.6904(2) 0.5288(12) 0.4428(14)
H66 H 0.4712(12) 0.1616(12) 0.4428(14)
C9 C 0.37301(14) 0.90329(14) 0.19056(11)
H5 H 0.3936 0.8927 0.2248
C10 C 0.41822(15) 0.95573(15) 0.14927(13)
H6 H 0.4679 0.9806 0.1557
C11 C 0.38804(18) 0.9709(2) 0.09768(18)
C12 C 0.31438(19) 0.9346(2) 0.09236(19)
H7 H 0.2925 0.9449 0.0590
C13 C 0.27274(18) 0.8829(2) 0.13620(17)
H8 H 0.2228 0.8587 0.1317
N2 N 0.30117(12) 0.86621(12) 0.18498(10)
C58 C 0.53028(20) 0.90329(14) 0.30944(11)
H36 H 0.4991 0.8927 0.2752
C63 C 0.53751(21) 0.95573(15) 0.35073(13)
H41 H 0.5127 0.9806 0.3443
C68 C 0.58286(27) 0.9709(2) 0.40232(18)
C73 C 0.62022(28) 0.9346(2) 0.40764(19)
H46 H 0.6524 0.9449 0.4410
C78 C 0.61016(27) 0.8829(2) 0.36380(17)
H51 H 0.6359 0.8587 0.3683
N19 N 0.56504(17) 0.86621(12) 0.31502(10)
C58_2 C 0.46972(20) 0.09671(14) 0.69056(11)
H36_2 H 0.5009 0.1073 0.7248
C63_2 C 0.46249(21) 0.04427(15) 0.64927(13)
H41_2 H 0.4873 0.0194 0.6557
C68_2 C 0.41714(27) 0.0291(2) 0.59768(18)
C73_2 C 0.37978(28) 0.0654(2) 0.59236(19)
H46_2 H 0.3476 0.0551 0.5590
C78_2 C 0.38984(27) 0.1171(2) 0.63620(17)
H51_2 H 0.3641 0.1413 0.6317
C9_2 C 0.62699(14) 0.09671(14) 0.80944(11)
H5_2 H 0.6064 0.1073 0.7752
C10_2 C 0.58178(15) 0.04427(15) 0.85073(13)
H6_2 H 0.5321 0.0194 0.8443
C11_2 C 0.61196(18) 0.0291(2) 0.90232(18)
C12_2 C 0.68562(19) 0.0654(2) 0.90764(19)
H7_2 H 0.7075 0.0551 0.9410
C13_2 C 0.72726(18) 0.1171(2) 0.86380(17)
H8_2 H 0.7772 0.1413 0.8683
C1_2 C 0.48850(14) 0.81153(12) 0.14875(11)
C2_2 C 0.45253(14) 0.82272(13) 0.09377(11)
C3_2 C 0.49419(15) 0.87353(14) 0.04751(11)
H1_2 H 0.5443 0.8982 0.0509
C6_2 C 0.34559(18) 0.8006(2) 0.03885(16)
H2_2 H 0.2954 0.7763 0.0365
C7_2 C 0.37852(15) 0.78606(15) 0.08747(13)
H3_2 H 0.3504 0.7506 0.1170
O1_2 O 0.45008(9) 0.76633(8) 0.19099(8)
O2_2 O 0.55722(10) 0.84601(9) 0.15375(8)
O3_2 O 0.67759(16) 0.83880(8) 0.2500
K1_2 K 0.3333 0.6667 0.2500
H9_2 H 0.7028(4) 0.8804(6) 0.2371(14)
C14_2 C 0.32303(18) 0.51150(14) 0.14875(11)
C15_2 C 0.18847(12) 0.67697(18) 0.14875(11)
C16_2 C 0.18847(12) 0.51150(14) 0.35125(11)
C17_2 C 0.48850(14) 0.67697(18) 0.35125(11)
C18_2 C 0.32303(18) 0.81153(12) 0.35125(11)
C19_2 C 0.37019(19) 0.54747(14) 0.09377(11)
C20_2 C 0.17728(13) 0.62981(19) 0.09377(11)
C21_2 C 0.17728(13) 0.54747(14) 0.40623(11)
C22_2 C 0.45253(14) 0.62981(19) 0.40623(11)
C23_2 C 0.37019(19) 0.82272(13) 0.40623(11)
C24_2 C 0.37934(21) 0.50581(15) 0.04751(11)
C25_2 C 0.12647(14) 0.62066(21) 0.04751(11)
C26_2 C 0.12647(14) 0.50581(15) 0.45249(11)
C27_2 C 0.49419(15) 0.62066(21) 0.45249(11)
C28_2 C 0.37934(21) 0.87353(14) 0.45249(11)
H12_2 H 0.3539 0.4557 0.0509
H13_2 H 0.1018 0.6461 0.0509
H14_2 H 0.1018 0.4557 0.4491
H15_2 H 0.5443 0.6461 0.4491
H16_2 H 0.3539 0.8982 0.4491
C31_2 C 0.11207(16) 0.53799(16) 0.50364(15)
C32_2 C 0.46201(16) 0.57408(23) 0.50364(15)
C33_2 C 0.42592(23) 0.88793(16) 0.50364(15)
C36_2 C 0.1479(2) 0.61329(19) 0.50779(18)
C37_2 C 0.38671(19) 0.53461(28) 0.50779(18)
C38_2 C 0.46539(28) 0.8521(2) 0.50779(18)
C39_2 C 0.45501(27) 0.65441(18) 0.03885(16)
C40_2 C 0.1994(2) 0.54499(27) 0.03885(16)
C41_2 C 0.1994(2) 0.65441(18) 0.46115(16)
C42_2 C 0.34559(18) 0.54499(27) 0.46115(16)
C43_2 C 0.45501(27) 0.8006(2) 0.46115(16)
H17_2 H 0.4809 0.7046 0.0365
H18_2 H 0.2237 0.5191 0.0365
H19_2 H 0.2237 0.7046 0.4635
H20_2 H 0.2954 0.5191 0.4635
H21_2 H 0.4809 0.7763 0.4635
C44_2 C 0.40754(21) 0.62148(15) 0.08747(13)
C45_2 C 0.21394(15) 0.59246(21) 0.08747(13)
C46_2 C 0.21394(15) 0.62148(15) 0.41253(13)
C47_2 C 0.37852(15) 0.59246(21) 0.41253(13)
C48_2 C 0.40754(21) 0.78606(15) 0.41253(13)
H22_2 H 0.4002 0.6496 0.1170
H23_2 H 0.2494 0.5998 0.1170
H24_2 H 0.2494 0.6496 0.3830
H25_2 H 0.3504 0.5998 0.3830
H26_2 H 0.4002 0.7506 0.3830
C51_2 C 0.0241(3) 0.4328(2) 0.5487(2)
C52_2 C 0.5672(2) 0.5913(4) 0.5487(2)
C53_2 C 0.4087(4) 0.9759(3) 0.5487(2)
H29_2 H 0.0294 0.4097 0.5134
H30_2 H 0.5903 0.6197 0.5134
H31_2 H 0.3803 0.9706 0.5134
C57_2 C 0.62699(14) 0.53028(20) 0.69056(11)
H35_2 H 0.6064 0.4991 0.7248
C62_2 C 0.58178(15) 0.53751(21) 0.64927(13)
H40_2 H 0.5321 0.5127 0.6557
C67_2 C 0.61196(18) 0.58286(27) 0.59768(18)
C72_2 C 0.68562(19) 0.62022(28) 0.59236(19)
H45_2 H 0.7075 0.6524 0.5590
C77_2 C 0.72726(18) 0.61016(27) 0.63620(17)
H50_2 H 0.7772 0.6359 0.6317
N6_2 N 0.06211(14) 0.49969(14) 0.55222(11)
N7_2 N 0.50031(14) 0.56242(20) 0.55222(11)
N8_2 N 0.43758(20) 0.93789(14) 0.55222(11)
N22_2 N 0.1357(3) 0.64519(19) 0.5578(2)
N23_2 N 0.35481(19) 0.49051(36) 0.5578(2)
N24_2 N 0.50949(36) 0.8643(3) 0.5578(2)
O4_2 O 0.31625(12) 0.54992(9) 0.19099(8)
O5_2 O 0.23367(8) 0.68375(12) 0.19099(8)
O6_2 O 0.23367(8) 0.54992(9) 0.30901(8)
O7_2 O 0.45008(9) 0.68375(12) 0.30901(8)
O8_2 O 0.31625(12) 0.76633(8) 0.30901(8)
O9_2 O 0.55722(10) 0.71121(13) 0.34625(8)
O10_2 O 0.28879(13) 0.44278(10) 0.15375(8)
O11_2 O 0.15399(9) 0.44278(10) 0.34625(8)
O12_2 O 0.15399(9) 0.71121(13) 0.15375(8)
O13_2 O 0.28879(13) 0.84601(9) 0.34625(8)
O14_2 O 0.16121(18) 0.32241(16) 0.2500
O15_2 O 0.16120(8) 0.83879(18) 0.2500
H52_2 H 0.7028(4) 0.8224(7) 0.2629(14)
H53_2 H 0.1776(7) 0.2972(4) 0.2371(14)
H54_2 H 0.1196(6) 0.2972(4) 0.2629(14)
H55_2 H 0.1196(6) 0.8224(7) 0.2371(14)
H56_2 H 0.1776(7) 0.8804(6) 0.2629(14)
H59_2 H 0.0943(6) 0.6315(14) 0.5725(13)
H60_2 H 0.3685(14) 0.4628(15) 0.5725(13)
H61_2 H 0.5372(15) 0.9057(6) 0.5725(13)
H64_2 H 0.1616(12) 0.6904(2) 0.5572(14)
H65_2 H 0.3096(2) 0.4712(12) 0.5572(14)
H66_2 H 0.5288(12) 0.8384(12) 0.5572(14)
C4_2 C 0.46201(16) 0.88793(16) 0.99636(15)
C5_2 C 0.38671(19) 0.8521(2) 0.99221(18)
C8_2 C 0.5672(2) 0.9759(3) 0.9513(2)
H4_2 H 0.5903 0.9706 0.9866
N1_2 N 0.50031(14) 0.93789(14) 0.94778(11)
N3_2 N 0.35481(19) 0.8643(3) 0.9422(2)
H10_2 H 0.3685(14) 0.9057(6) 0.9275(13)
H11_2 H 0.3096(2) 0.8384(12) 0.9428(14)
C29_2 C 0.42592(23) 0.53799(16) 0.99636(15)
C30_2 C 0.11207(16) 0.57408(23) 0.99636(15)
C34_2 C 0.46539(28) 0.61329(19) 0.99221(18)
C35_2 C 0.1479(2) 0.53461(28) 0.99221(18)
C49_2 C 0.4087(4) 0.4328(2) 0.9513(2)
C50_2 C 0.0241(3) 0.5913(4) 0.9513(2)
H27_2 H 0.3803 0.4097 0.9866
H28_2 H 0.0294 0.6197 0.9866
C54_2 C 0.46972(20) 0.37301(14) 0.80944(11)
H32_2 H 0.5009 0.3936 0.7752
C59_2 C 0.46249(21) 0.41822(15) 0.85073(13)
H37_2 H 0.4873 0.4679 0.8443
C64_2 C 0.41714(27) 0.38804(18) 0.90232(18)
C69_2 C 0.37978(28) 0.31438(19) 0.90764(19)
H42_2 H 0.3476 0.2925 0.9410
C74_2 C 0.38984(27) 0.27274(18) 0.86380(17)
H47_2 H 0.3641 0.2228 0.8683
N4_2 N 0.43758(20) 0.49969(14) 0.94778(11)
N5_2 N 0.06211(14) 0.56242(20) 0.94778(11)
N20_2 N 0.50949(36) 0.64519(19) 0.9422(2)
N21_2 N 0.1357(3) 0.49051(36) 0.9422(2)
H57_2 H 0.5372(15) 0.6315(14) 0.9275(13)
H58_2 H 0.0943(6) 0.4628(15) 0.9275(13)
H62_2 H 0.5288(12) 0.6904(2) 0.9428(14)
H63_2 H 0.1616(12) 0.4712(12) 0.9428(14)
C56_2 C 0.90329(14) 0.37301(14) 0.69056(11)
H34_2 H 0.8927 0.3936 0.7248
C61_2 C 0.95573(15) 0.41822(15) 0.64927(13)
H39_2 H 0.9806 0.4679 0.6557
C66_2 C 0.9709(2) 0.38804(18) 0.59768(18)
C71_2 C 0.9346(2) 0.31438(19) 0.59236(19)
H44_2 H 0.9449 0.2925 0.5590
C76_2 C 0.8829(2) 0.27274(18) 0.63620(17)
H49_2 H 0.8587 0.2228 0.6317
C55_2 C 0.90329(14) 0.53028(20) 0.80944(11)
H33_2 H 0.8927 0.4991 0.7752
C60_2 C 0.95573(15) 0.53751(21) 0.85073(13)
H38_2 H 0.9806 0.5127 0.8443
C65_2 C 0.9709(2) 0.58286(27) 0.90232(18)
C70_2 C 0.9346(2) 0.62022(28) 0.90764(19)
H43_2 H 0.9449 0.6524 0.9410
C75_2 C 0.8829(2) 0.61016(27) 0.86380(17)
H48_2 H 0.8587 0.6359 0.8683
loop_
_geom_bond_atom_site_label_1
_geom_bond_atom_site_label_2
_geom_bond_site_symmetry_1
_geom_bond_site_symmetry_2
C55 H33 1_555 1_555
C60 C55 1_555 1_555
H38 C60 1_555 1_555
C70 C65 1_555 1_555
H43 C70 1_555 1_555
C75 C70 1_555 1_555
H48 C75 1_555 1_555
N16 C55 1_555 1_555
Cd6 N16 1_555 1_555
C60 C65 1_555 1_555
C75 N16 1_555 1_555
C56 H34 1_555 1_555
C61 C56 1_555 1_555
H39 C61 1_555 1_555
C71 C66 1_555 1_555
H44 C71 1_555 1_555
C76 C71 1_555 1_555
H49 C76 1_555 1_555
N17 C56 1_555 1_555
Cd7 N17 1_555 1_555
C61 C66 1_555 1_555
C76 N17 1_555 1_555
C5 C4 1_555 1_555
C8 H4 1_555 1_555
N1 C4 1_555 1_555
N3 C5 1_555 1_555
H10 N3 1_555 1_555
H11 N3 1_555 1_555
C34 C29 1_555 1_555
C35 C30 1_555 1_555
C49 H27 1_555 1_555
C50 H28 1_555 1_555
C54 H32 1_555 1_555
C59 C54 1_555 1_555
H37 C59 1_555 1_555
C64 C49 1_555 1_555
C69 C64 1_555 1_555
H42 C69 1_555 1_555
C74 C69 1_555 1_555
H47 C74 1_555 1_555
N4 C29 1_555 1_555
N5 C30 1_555 1_555
N15 C54 1_555 1_555
N20 C34 1_555 1_555
N21 C35 1_555 1_555
Cd5 N15 1_555 1_555
H57 N20 1_555 1_555
H58 N21 1_555 1_555
H62 N20 1_555 1_555
H63 N21 1_555 1_555
C8 N1 1_555 1_555
C49 N4 1_555 1_555
C50 N5 1_555 1_555
C59 C64 1_555 1_555
C74 N15 1_555 1_555
C1 C2 1_555 1_555
C2 C3 1_555 1_555
C3 H1 1_555 1_555
H2 C6 1_555 1_555
C7 C2 1_555 1_555
H3 C7 1_555 1_555
O1 C1 1_555 1_555
O2 C1 1_555 1_555
O3 Cd1 1_555 1_555
K1 O1 1_555 1_555
Cd1 O1 1_555 1_555
H9 O3 1_555 1_555
C14 C19 1_555 1_555
C15 C20 1_555 1_555
C16 C21 1_555 1_555
C17 C22 1_555 1_555
C18 C23 1_555 1_555
C19 C24 1_555 1_555
C20 C25 1_555 1_555
C21 C26 1_555 1_555
C22 C27 1_555 1_555
C23 C28 1_555 1_555
C24 H12 1_555 1_555
C25 H13 1_555 1_555
C26 H14 1_555 1_555
C27 H15 1_555 1_555
C28 H16 1_555 1_555
C31 C26 1_555 1_555
C32 C27 1_555 1_555
C33 C28 1_555 1_555
C36 C31 1_555 1_555
C37 C32 1_555 1_555
C38 C33 1_555 1_555
C41 C36 1_555 1_555
C42 C37 1_555 1_555
C43 C38 1_555 1_555
H17 C39 1_555 1_555
H18 C40 1_555 1_555
H19 C41 1_555 1_555
H20 C42 1_555 1_555
H21 C43 1_555 1_555
C44 C19 1_555 1_555
C45 C20 1_555 1_555
C46 C21 1_555 1_555
C47 C22 1_555 1_555
C48 C23 1_555 1_555
H22 C44 1_555 1_555
H23 C45 1_555 1_555
H24 C46 1_555 1_555
H25 C47 1_555 1_555
H26 C48 1_555 1_555
C51 H29 1_555 1_555
C52 H30 1_555 1_555
C53 H31 1_555 1_555
C57 H35 1_555 1_555
C62 C57 1_555 1_555
H40 C62 1_555 1_555
C67 C52 1_555 1_555
C72 C67 1_555 1_555
H45 C72 1_555 1_555
C77 C72 1_555 1_555
H50 C77 1_555 1_555
N6 C31 1_555 1_555
N7 C32 1_555 1_555
N8 C33 1_555 1_555
N9 Cd1 1_555 1_555
N10 Cd1 1_555 1_555
N11 Cd3 1_555 1_555
N12 Cd3 1_555 1_555
N13 Cd4 1_555 1_555
N14 Cd4 1_555 1_555
N18 C57 1_555 1_555
N22 C36 1_555 1_555
N23 C37 1_555 1_555
N24 C38 1_555 1_555
O4 K1 1_555 1_555
O5 K1 1_555 1_555
O6 K1 1_555 1_555
O7 K1 1_555 1_555
O8 K1 1_555 1_555
O9 Cd1 1_555 1_555
O10 C14 1_555 1_555
O11 C16 1_555 1_555
O12 C15 1_555 1_555
O13 C18 1_555 1_555
O14 Cd3 1_555 1_555
O15 Cd4 1_555 1_555
Cd3 O4 1_555 1_555
Cd4 O5 1_555 1_555
Cd6 N18 1_555 1_555
H52 O3 1_555 1_555
H53 O14 1_555 1_555
H54 O14 1_555 1_555
H55 O15 1_555 1_555
H56 O15 1_555 1_555
H59 N22 1_555 1_555
H60 N23 1_555 1_555
H61 N24 1_555 1_555
H64 N22 1_555 1_555
H65 N23 1_555 1_555
H66 N24 1_555 1_555
C6 C7 1_555 1_555
O2 Cd1 1_555 1_555
Cd1 O7 1_555 1_555
C14 O4 1_555 1_555
C15 O5 1_555 1_555
C16 O6 1_555 1_555
C17 O7 1_555 1_555
C17 O9 1_555 1_555
C18 O8 1_555 1_555
C39 C44 1_555 1_555
C40 C45 1_555 1_555
C41 C46 1_555 1_555
C42 C47 1_555 1_555
C43 C48 1_555 1_555
C51 N6 1_555 1_555
C52 N7 1_555 1_555
C53 N8 1_555 1_555
C62 C67 1_555 1_555
C77 N18 1_555 1_555
O6 Cd3 1_555 1_555
O8 Cd4 1_555 1_555
O10 Cd3 1_555 1_555
O11 Cd3 1_555 1_555
O12 Cd4 1_555 1_555
O13 Cd4 1_555 1_555
C9 H5 1_555 1_555
C10 C9 1_555 1_555
H6 C10 1_555 1_555
C12 C11 1_555 1_555
H7 C12 1_555 1_555
C13 C12 1_555 1_555
H8 C13 1_555 1_555
N2 C9 1_555 1_555
Cd7 N2 1_555 1_555
C10 C11 1_555 1_555
C13 N2 1_555 1_555
C58 H36 1_555 1_555
C63 C58 1_555 1_555
H41 C63 1_555 1_555
C73 C68 1_555 1_555
H46 C73 1_555 1_555
C78 C73 1_555 1_555
H51 C78 1_555 1_555
N19 C58 1_555 1_555
Cd5 N19 1_555 1_555
C63 C68 1_555 1_555
C78 N19 1_555 1_555
C58_2 H36_2 1_555 1_555
C63_2 C58_2 1_555 1_555
H41_2 C63_2 1_555 1_555
C73_2 C68_2 1_555 1_555
H46_2 C73_2 1_555 1_555
C78_2 C73_2 1_555 1_555
H51_2 C78_2 1_555 1_555
N10 C58_2 1_555 1_555
C63_2 C68_2 1_555 1_555
C78_2 N10 1_555 1_555
C9_2 H5_2 1_555 1_555
C10_2 C9_2 1_555 1_555
H6_2 C10_2 1_555 1_555
C12_2 C11_2 1_555 1_555
H7_2 C12_2 1_555 1_555
C13_2 C12_2 1_555 1_555
H8_2 C13_2 1_555 1_555
N13 C9_2 1_555 1_555
C10_2 C11_2 1_555 1_555
C13_2 N13 1_555 1_555
C1_2 C2_2 1_555 1_555
C2_2 C3_2 1_555 1_555
C3_2 H1_2 1_555 1_555
H2_2 C6_2 1_555 1_555
C7_2 C2_2 1_555 1_555
H3_2 C7_2 1_555 1_555
O1_2 C1_2 1_555 1_555
O2_2 C1_2 1_555 1_555
O3_2 Cd5 1_555 1_555
K1_2 O1_2 1_555 1_555
Cd5 O1_2 1_555 1_555
H9_2 O3_2 1_555 1_555
C14_2 C19_2 1_555 1_555
C15_2 C20_2 1_555 1_555
C16_2 C21_2 1_555 1_555
C17_2 C22_2 1_555 1_555
C18_2 C23_2 1_555 1_555
C19_2 C24_2 1_555 1_555
C20_2 C25_2 1_555 1_555
C21_2 C26_2 1_555 1_555
C22_2 C27_2 1_555 1_555
C23_2 C28_2 1_555 1_555
C24_2 H12_2 1_555 1_555
C25_2 H13_2 1_555 1_555
C26_2 H14_2 1_555 1_555
C27_2 H15_2 1_555 1_555
C28_2 H16_2 1_555 1_555
C31_2 C26_2 1_555 1_555
C32_2 C27_2 1_555 1_555
C33_2 C28_2 1_555 1_555
C36_2 C31_2 1_555 1_555
C37_2 C32_2 1_555 1_555
C38_2 C33_2 1_555 1_555
C41_2 C36_2 1_555 1_555
C42_2 C37_2 1_555 1_555
C43_2 C38_2 1_555 1_555
H17_2 C39_2 1_555 1_555
H18_2 C40_2 1_555 1_555
H19_2 C41_2 1_555 1_555
H20_2 C42_2 1_555 1_555
H21_2 C43_2 1_555 1_555
C44_2 C19_2 1_555 1_555
C45_2 C20_2 1_555 1_555
C46_2 C21_2 1_555 1_555
C47_2 C22_2 1_555 1_555
C48_2 C23_2 1_555 1_555
H22_2 C44_2 1_555 1_555
H23_2 C45_2 1_555 1_555
H24_2 C46_2 1_555 1_555
H25_2 C47_2 1_555 1_555
H26_2 C48_2 1_555 1_555
C51_2 H29_2 1_555 1_555
C52_2 H30_2 1_555 1_555
C53_2 H31_2 1_555 1_555
C57_2 H35_2 1_555 1_555
C62_2 C57_2 1_555 1_555
H40_2 C62_2 1_555 1_555
C67_2 C52_2 1_555 1_555
C72_2 C67_2 1_555 1_555
H45_2 C72_2 1_555 1_555
C77_2 C72_2 1_555 1_555
H50_2 C77_2 1_555 1_555
N6_2 C31_2 1_555 1_555
N7_2 C32_2 1_555 1_555
N8_2 C33_2 1_555 1_555
N12 C57_2 1_555 1_555
N22_2 C36_2 1_555 1_555
N23_2 C37_2 1_555 1_555
N24_2 C38_2 1_555 1_555
O4_2 K1_2 1_555 1_555
O5_2 K1_2 1_555 1_555
O6_2 K1_2 1_555 1_555
O7_2 K1_2 1_555 1_555
O8_2 K1_2 1_555 1_555
O9_2 Cd5 1_555 1_555
O10_2 C14_2 1_555 1_555
O11_2 C16_2 1_555 1_555
O12_2 C15_2 1_555 1_555
O13_2 C18_2 1_555 1_555
O14_2 Cd6 1_555 1_555
O15_2 Cd7 1_555 1_555
Cd6 O4_2 1_555 1_555
Cd7 O5_2 1_555 1_555
H52_2 O3_2 1_555 1_555
H53_2 O14_2 1_555 1_555
H54_2 O14_2 1_555 1_555
H55_2 O15_2 1_555 1_555
H56_2 O15_2 1_555 1_555
H59_2 N22_2 1_555 1_555
H60_2 N23_2 1_555 1_555
H61_2 N24_2 1_555 1_555
H64_2 N22_2 1_555 1_555
H65_2 N23_2 1_555 1_555
H66_2 N24_2 1_555 1_555
C6_2 C7_2 1_555 1_555
O2_2 Cd5 1_555 1_555
Cd5 O7_2 1_555 1_555
C14_2 O4_2 1_555 1_555
C15_2 O5_2 1_555 1_555
C16_2 O6_2 1_555 1_555
C17_2 O7_2 1_555 1_555
C17_2 O9_2 1_555 1_555
C18_2 O8_2 1_555 1_555
C39_2 C44_2 1_555 1_555
C40_2 C45_2 1_555 1_555
C41_2 C46_2 1_555 1_555
C42_2 C47_2 1_555 1_555
C43_2 C48_2 1_555 1_555
C51_2 N6_2 1_555 1_555
C52_2 N7_2 1_555 1_555
C53_2 N8_2 1_555 1_555
C62_2 C67_2 1_555 1_555
C77_2 N12 1_555 1_555
O6_2 Cd6 1_555 1_555
O8_2 Cd7 1_555 1_555
O10_2 Cd6 1_555 1_555
O11_2 Cd6 1_555 1_555
O12_2 Cd7 1_555 1_555
O13_2 Cd7 1_555 1_555
C5_2 C4_2 1_555 1_555
C8_2 H4_2 1_555 1_555
N1_2 C4_2 1_555 1_555
N3_2 C5_2 1_555 1_555
H10_2 N3_2 1_555 1_555
H11_2 N3_2 1_555 1_555
C34_2 C29_2 1_555 1_555
C35_2 C30_2 1_555 1_555
C49_2 H27_2 1_555 1_555
C50_2 H28_2 1_555 1_555
C54_2 H32_2 1_555 1_555
C59_2 C54_2 1_555 1_555
H37_2 C59_2 1_555 1_555
C64_2 C49_2 1_555 1_555
C69_2 C64_2 1_555 1_555
H42_2 C69_2 1_555 1_555
C74_2 C69_2 1_555 1_555
H47_2 C74_2 1_555 1_555
N4_2 C29_2 1_555 1_555
N5_2 C30_2 1_555 1_555
N9 C54_2 1_555 1_555
N20_2 C34_2 1_555 1_555
N21_2 C35_2 1_555 1_555
H57_2 N20_2 1_555 1_555
H58_2 N21_2 1_555 1_555
H62_2 N20_2 1_555 1_555
H63_2 N21_2 1_555 1_555
C8_2 N1_2 1_555 1_555
C49_2 N4_2 1_555 1_555
C50_2 N5_2 1_555 1_555
C59_2 C64_2 1_555 1_555
C74_2 N9 1_555 1_555
C56_2 H34_2 1_555 1_555
C61_2 C56_2 1_555 1_555
H39_2 C61_2 1_555 1_555
C71_2 C66_2 1_555 1_555
H44_2 C71_2 1_555 1_555
C76_2 C71_2 1_555 1_555
H49_2 C76_2 1_555 1_555
N14 C56_2 1_555 1_555
C61_2 C66_2 1_555 1_555
C76_2 N14 1_555 1_555
C55_2 H33_2 1_555 1_555
C60_2 C55_2 1_555 1_555
H38_2 C60_2 1_555 1_555
C70_2 C65_2 1_555 1_555
H43_2 C70_2 1_555 1_555
C75_2 C70_2 1_555 1_555
H48_2 C75_2 1_555 1_555
N11 C55_2 1_555 1_555
C60_2 C65_2 1_555 1_555
C75_2 N11 1_555 1_555

#END
