
###############################################################################
#
# This file contains modified crystal structure data generated from the
# MOF subset of the Cambridge Structural Database (CSD) v543 
# hosted by the Cambridge Crystallographic Data Centre (CCDC).
#
# This work is licensed under the Creative Commons
# Attribution-NonCommercial-ShareAlike 4.0 International License.
# To view a copy of this license, visit
# http://creativecommons.org/licenses/by-nc-sa/4.0/
# or send a letter to
# Creative Commons, PO Box 1866, Mountain View, CA 94042, USA.
#
# CIF created using the CSD Python API on 29 September 2022
# The structure has been converted into the P1 space group
# The structure has a 3D framework
# The original CSD entry SUKPAQ is in the trigonal crystal system
# The framework has been calculated to contain at least 10.0% void space
# The void calculation uses a probe of radius 1.32A, grid spacing 0.4
# The framework is charged, counterions have been retained in the structure
#
###############################################################################

data_SUKPAQ
_chemical_formula_moiety         '(C156 H132 Cd6 Cs2 N36 O30 4+)n'
_symmetry_cell_setting           triclinic
_symmetry_space_group_name_H-M   'P 1'
_symmetry_Int_Tables_number      1
_space_group_name_Hall           'P 1'
loop_
_symmetry_equiv_pos_site_id
_symmetry_equiv_pos_as_xyz
1 x,y,z
_cell_length_a                   22.5982(8)
_cell_length_b                   22.5982(8)
_cell_length_c                   20.3700(7)
_cell_angle_alpha                90
_cell_angle_beta                 90
_cell_angle_gamma                120
_cell_volume                     9008.85
loop_
_atom_site_label
_atom_site_type_symbol
_atom_site_fract_x
_atom_site_fract_y
_atom_site_fract_z
Cd5 Cd 0.45618(8) 0.22809(4) 0.2500
N12 N 0.4460(10) 0.1421(7) 0.1803(6)
C57 C 0.4040(16) 0.1299(10) 0.1270(9)
H50 H 0.3823 0.1561 0.1194
C62 C 0.3948(17) 0.0775(11) 0.0846(10)
H55 H 0.3649 0.0673 0.0483
C67 C 0.4270(13) 0.0398(9) 0.0928(8)
C72 C 0.4670(12) 0.0533(8) 0.1477(7)
H60 H 0.4883 0.0272 0.1573
C77 C 0.4755(11) 0.1060(8) 0.1886(7)
H65 H 0.5050 0.1163 0.2252
N2 N 0.6961(7) 0.1421(7) 0.3197(6)
C9 C 0.7259(12) 0.1299(10) 0.3730(9)
H8 H 0.7738 0.1561 0.3806
C10 C 0.6827(13) 0.0775(11) 0.4154(10)
H9 H 0.7024 0.0673 0.4517
C11 C 0.6128(10) 0.0398(9) 0.4072(8)
C12 C 0.5863(9) 0.0533(8) 0.3523(7)
H10 H 0.5389 0.0272 0.3427
C13 C 0.6305(8) 0.1060(8) 0.3114(7)
H11 H 0.6113 0.1163 0.2748
Cd7 Cd 0.77191(4) 0.22809(9) 0.2500
Cd9 Cd 0.77191(9) 0.54382(8) 0.2500
N6 N 0.0560(7) 0.4889(8) 0.0549(6)
N7 N 0.4329(11) 0.9440(7) 0.0549(6)
N8 N 0.5111(8) 0.5671(11) 0.0549(6)
N13 N 0.6961(7) 0.5540(10) 0.1803(6)
N22 N 0.1285(11) 0.6279(9) 0.0674(9)
N23 N 0.4994(14) 0.8715(11) 0.0674(9)
N24 N 0.3721(9) 0.5006(14) 0.0674(9)
H19 H 0.0922 0.6034 0.0919
H20 H 0.5112 0.9078 0.0919
H21 H 0.3966 0.4888 0.0919
H24 H 0.1537 0.6722 0.0738
H25 H 0.5185 0.8463 0.0738
H26 H 0.3278 0.4815 0.0738
C31 C 0.1070(8) 0.5262(9) 0.0070(8)
C32 C 0.4192(12) 0.8930(8) 0.0070(8)
C33 C 0.4738(9) 0.5808(12) 0.0070(8)
C36 C 0.1460(10) 0.5966(10) 0.0184(9)
C37 C 0.4506(14) 0.8540(10) 0.0184(9)
C38 C 0.4034(10) 0.5494(14) 0.0184(9)
C51 C 0.0129(11) 0.4272(11) 0.0461(9)
C52 C 0.4143(16) 0.9871(11) 0.0461(9)
C53 C 0.5728(11) 0.5857(16) 0.0461(9)
H44 H 0.0152 0.4059 0.0067
H45 H 0.3907 0.9848 0.0067
H46 H 0.5941 0.6093 0.0067
C58 C 0.7259(12) 0.5960(16) 0.1270(9)
H51 H 0.7738 0.6177 0.1194
C63 C 0.6827(13) 0.6052(17) 0.0846(10)
H56 H 0.7024 0.6351 0.0483
C68 C 0.6128(10) 0.5730(13) 0.0928(8)
C73 C 0.5863(9) 0.5330(12) 0.1477(7)
H61 H 0.5389 0.5117 0.1573
C78 C 0.6305(8) 0.5245(11) 0.1886(7)
H66 H 0.6113 0.4950 0.2252
Cs1 Cs 0.3333 0.6667 0.7500
Cd1 Cd 0.54382(8) 0.77191(4) 0.7500
O1 O 0.4545(6) 0.7658(5) 0.6844(5)
O2 O 0.5564(6) 0.8442(6) 0.6533(5)
O3 O 0.6662(10) 0.8331(5) 0.7500
H1 H 0.7009 0.8793 0.7432
N1 N 0.5111(8) 0.9440(7) 0.4451(6)
N3 N 0.3721(9) 0.8715(11) 0.4326(9)
H2 H 0.3966 0.9078 0.4081
H3 H 0.3278 0.8463 0.4262
C1 C 0.4942(11) 0.8127(8) 0.6448(6)
C2 C 0.4624(8) 0.8259(7) 0.5884(6)
C3 C 0.5005(8) 0.8775(7) 0.5446(6)
H4 H 0.5485 0.9036 0.5512
C4 C 0.4738(9) 0.8930(8) 0.4930(8)
C5 C 0.4034(10) 0.8540(10) 0.4816(9)
C6 C 0.3633(10) 0.8006(10) 0.5262(9)
H5 H 0.3154 0.7732 0.5198
C7 C 0.3934(10) 0.7888(8) 0.5778(7)
H6 H 0.3657 0.7535 0.6078
C8 C 0.5728(11) 0.9871(11) 0.4539(9)
H7 H 0.5941 0.9848 0.4933
Cd2 Cd 0.22809(4) 0.77191(9) 0.7500
Cd3 Cd 0.22809(9) 0.45618(8) 0.7500
O4 O 0.2342(5) 0.6887(8) 0.6844(5)
O5 O 0.3113(8) 0.5455(6) 0.6844(5)
O6 O 0.2342(5) 0.5455(6) 0.8156(5)
O7 O 0.3113(8) 0.7658(5) 0.8156(5)
O8 O 0.4545(6) 0.6887(8) 0.8156(5)
O9 O 0.1558(6) 0.7122(8) 0.6533(5)
O10 O 0.2878(8) 0.4436(6) 0.6533(5)
O11 O 0.1558(6) 0.4436(6) 0.8467(5)
O12 O 0.2878(8) 0.8442(6) 0.8467(5)
O13 O 0.5564(6) 0.7122(8) 0.8467(5)
O14 O 0.1669(5) 0.8331(11) 0.7500
O15 O 0.1669(11) 0.3338(10) 0.7500
H12 H 0.7009 0.8216 0.7568
H13 H 0.1207 0.8216 0.7432
H14 H 0.1784 0.8793 0.7568
H15 H 0.1784 0.2991 0.7432
H16 H 0.1207 0.2991 0.7568
N4 N 0.0560(7) 0.5671(11) 0.4451(6)
N5 N 0.4329(11) 0.4889(8) 0.4451(6)
N10 N 0.4460(10) 0.3039(7) 0.3197(6)
N14 N 0.3039(7) 0.8579(7) 0.6803(6)
N15 N 0.1421(7) 0.4460(10) 0.6803(6)
N16 N 0.5540(10) 0.6961(7) 0.6803(6)
N17 N 0.1421(7) 0.6961(7) 0.8197(6)
N18 N 0.5540(10) 0.8579(7) 0.8197(6)
N19 N 0.3039(7) 0.4460(10) 0.8197(6)
N20 N 0.1285(11) 0.5006(14) 0.4326(9)
N21 N 0.4994(14) 0.6279(9) 0.4326(9)
H17 H 0.0922 0.4888 0.4081
H18 H 0.5112 0.6034 0.4081
H22 H 0.1537 0.4815 0.4262
H23 H 0.5185 0.6722 0.4262
C14 C 0.1873(8) 0.6815(14) 0.6448(6)
C15 C 0.3185(14) 0.5058(11) 0.6448(6)
C16 C 0.1873(8) 0.5058(11) 0.8552(6)
C17 C 0.3185(14) 0.8127(8) 0.8552(6)
C18 C 0.4942(11) 0.6815(14) 0.8552(6)
C19 C 0.1741(7) 0.6365(11) 0.5884(6)
C20 C 0.3635(11) 0.5376(8) 0.5884(6)
C21 C 0.1741(7) 0.5376(8) 0.9116(6)
C22 C 0.3635(11) 0.8259(7) 0.9116(6)
C23 C 0.4624(8) 0.6365(11) 0.9116(6)
C24 C 0.1225(7) 0.6230(11) 0.5446(6)
C25 C 0.3770(11) 0.4995(8) 0.5446(6)
C26 C 0.1225(7) 0.4995(8) 0.9554(6)
C27 C 0.3770(11) 0.8775(7) 0.9554(6)
C28 C 0.5005(8) 0.6230(11) 0.9554(6)
H27 H 0.0964 0.6449 0.5512
H28 H 0.3551 0.4515 0.5512
H29 H 0.0964 0.4515 0.9488
H30 H 0.3551 0.9036 0.9488
H31 H 0.5485 0.6449 0.9488
C29 C 0.1070(8) 0.5808(12) 0.4930(8)
C30 C 0.4192(12) 0.5262(9) 0.4930(8)
C34 C 0.1460(10) 0.5494(14) 0.4816(9)
C35 C 0.4506(14) 0.5966(10) 0.4816(9)
C39 C 0.1994(10) 0.5627(14) 0.5262(9)
C40 C 0.4373(14) 0.6367(10) 0.5262(9)
C41 C 0.1994(10) 0.6367(10) 0.9738(9)
C42 C 0.4373(14) 0.8006(10) 0.9738(9)
C43 C 0.3633(10) 0.5627(14) 0.9738(9)
H32 H 0.2268 0.5422 0.5198
H33 H 0.4578 0.6846 0.5198
H34 H 0.2268 0.6846 0.9802
H35 H 0.4578 0.7732 0.9802
H36 H 0.3154 0.5422 0.9802
C44 C 0.2112(8) 0.6046(13) 0.5778(7)
C45 C 0.3954(13) 0.6066(10) 0.5778(7)
C46 C 0.2112(8) 0.6066(10) 0.9222(7)
C47 C 0.3954(13) 0.7888(8) 0.9222(7)
C48 C 0.3934(10) 0.6046(13) 0.9222(7)
H37 H 0.2465 0.6122 0.6078
H38 H 0.3878 0.6343 0.6078
H39 H 0.2465 0.6343 0.8922
H40 H 0.3878 0.7535 0.8922
H41 H 0.3657 0.6122 0.8922
C49 C 0.0129(11) 0.5857(16) 0.4539(9)
C50 C 0.4143(16) 0.4272(11) 0.4539(9)
H42 H 0.0152 0.6093 0.4933
H43 H 0.3907 0.4059 0.4933
C55 C 0.4040(16) 0.2741(12) 0.3730(9)
H48 H 0.3823 0.2262 0.3806
C60 C 0.3948(17) 0.3173(13) 0.4154(10)
H53 H 0.3649 0.2976 0.4517
C65 C 0.4270(13) 0.3872(10) 0.4072(8)
C70 C 0.4670(12) 0.4137(9) 0.3523(7)
H58 H 0.4883 0.4611 0.3427
C75 C 0.4755(11) 0.3695(8) 0.3114(7)
H63 H 0.5050 0.3887 0.2748
N11 N 0.8579(7) 0.3039(7) 0.1803(6)
C56 C 0.8701(10) 0.2741(12) 0.1270(9)
H49 H 0.8439 0.2262 0.1194
C61 C 0.9225(11) 0.3173(13) 0.0846(10)
H54 H 0.9327 0.2976 0.0483
C66 C 0.9602(9) 0.3872(10) 0.0928(8)
C71 C 0.9467(8) 0.4137(9) 0.1477(7)
H59 H 0.9728 0.4611 0.1573
C76 C 0.8940(8) 0.3695(8) 0.1886(7)
H64 H 0.8837 0.3887 0.2252
N9 N 0.8579(7) 0.5540(10) 0.3197(6)
C54 C 0.8701(10) 0.5960(16) 0.3730(9)
H47 H 0.8439 0.6177 0.3806
C59 C 0.9225(11) 0.6052(17) 0.4154(10)
H52 H 0.9327 0.6351 0.4517
C64 C 0.9602(9) 0.5730(13) 0.4072(8)
C69 C 0.9467(8) 0.5330(12) 0.3523(7)
H57 H 0.9728 0.5117 0.3427
C74 C 0.8940(8) 0.5245(11) 0.3114(7)
H62 H 0.8837 0.4950 0.2748
C54_2 C 0.1299(10) 0.4040(16) 0.6270(9)
H47_2 H 0.1561 0.3823 0.6194
C59_2 C 0.0775(11) 0.3948(17) 0.5846(10)
H52_2 H 0.0673 0.3649 0.5483
C64_2 C 0.0398(9) 0.4270(13) 0.5928(8)
C69_2 C 0.0533(8) 0.4670(12) 0.6477(7)
H57_2 H 0.0272 0.4883 0.6573
C74_2 C 0.1060(8) 0.4755(11) 0.6886(7)
H62_2 H 0.1163 0.5050 0.7252
C56_2 C 0.1299(10) 0.7259(12) 0.8730(9)
H49_2 H 0.1561 0.7738 0.8806
C61_2 C 0.0775(11) 0.6827(13) 0.9154(10)
H54_2 H 0.0673 0.7024 0.9517
C66_2 C 0.0398(9) 0.6128(10) 0.9072(8)
C71_2 C 0.0533(8) 0.5863(9) 0.8523(7)
H59_2 H 0.0272 0.5389 0.8427
C76_2 C 0.1060(8) 0.6305(8) 0.8114(7)
H64_2 H 0.1163 0.6113 0.7748
Cs1_2 Cs 0.6667 0.3333 0.2500
O1_2 O 0.5455(6) 0.2342(5) 0.3156(5)
O2_2 O 0.4436(6) 0.1558(6) 0.3467(5)
O3_2 O 0.3338(10) 0.1669(5) 0.2500
H1_2 H 0.2991 0.1207 0.2568
N1_2 N 0.4889(8) 0.0560(7) 0.5549(6)
N3_2 N 0.6279(9) 0.1285(11) 0.5674(9)
H2_2 H 0.6034 0.0922 0.5919
H3_2 H 0.6722 0.1537 0.5738
C1_2 C 0.5058(11) 0.1873(8) 0.3552(6)
C2_2 C 0.5376(8) 0.1741(7) 0.4116(6)
C3_2 C 0.4995(8) 0.1225(7) 0.4554(6)
H4_2 H 0.4515 0.0964 0.4488
C4_2 C 0.5262(9) 0.1070(8) 0.5070(8)
C5_2 C 0.5966(10) 0.1460(10) 0.5184(9)
C6_2 C 0.6367(10) 0.1994(10) 0.4738(9)
H5_2 H 0.6846 0.2268 0.4802
C7_2 C 0.6066(10) 0.2112(8) 0.4222(7)
H6_2 H 0.6343 0.2465 0.3922
C8_2 C 0.4272(11) 0.0129(11) 0.5461(9)
H7_2 H 0.4059 0.0152 0.5067
O4_2 O 0.7658(5) 0.3113(8) 0.3156(5)
O5_2 O 0.6887(8) 0.4545(6) 0.3156(5)
O6_2 O 0.7658(5) 0.4545(6) 0.1844(5)
O7_2 O 0.6887(8) 0.2342(5) 0.1844(5)
O8_2 O 0.5455(6) 0.3113(8) 0.1844(5)
O9_2 O 0.8442(6) 0.2878(8) 0.3467(5)
O10_2 O 0.7122(8) 0.5564(6) 0.3467(5)
O11_2 O 0.8442(6) 0.5564(6) 0.1533(5)
O12_2 O 0.7122(8) 0.1558(6) 0.1533(5)
O13_2 O 0.4436(6) 0.2878(8) 0.1533(5)
O14_2 O 0.8331(5) 0.1669(11) 0.2500
O15_2 O 0.8331(11) 0.6662(10) 0.2500
H12_2 H 0.2991 0.1784 0.2432
H13_2 H 0.8793 0.1784 0.2568
H14_2 H 0.8216 0.1207 0.2432
H15_2 H 0.8216 0.7009 0.2568
H16_2 H 0.8793 0.7009 0.2432
N4_2 N 0.9440(7) 0.4329(11) 0.5549(6)
N5_2 N 0.5671(11) 0.5111(8) 0.5549(6)
N20_2 N 0.8715(11) 0.4994(14) 0.5674(9)
N21_2 N 0.5006(14) 0.3721(9) 0.5674(9)
H17_2 H 0.9078 0.5112 0.5919
H18_2 H 0.4888 0.3966 0.5919
H22_2 H 0.8463 0.5185 0.5738
H23_2 H 0.4815 0.3278 0.5738
C14_2 C 0.8127(8) 0.3185(14) 0.3552(6)
C15_2 C 0.6815(14) 0.4942(11) 0.3552(6)
C16_2 C 0.8127(8) 0.4942(11) 0.1448(6)
C17_2 C 0.6815(14) 0.1873(8) 0.1448(6)
C18_2 C 0.5058(11) 0.3185(14) 0.1448(6)
C19_2 C 0.8259(7) 0.3635(11) 0.4116(6)
C20_2 C 0.6365(11) 0.4624(8) 0.4116(6)
C21_2 C 0.8259(7) 0.4624(8) 0.0884(6)
C22_2 C 0.6365(11) 0.1741(7) 0.0884(6)
C23_2 C 0.5376(8) 0.3635(11) 0.0884(6)
C24_2 C 0.8775(7) 0.3770(11) 0.4554(6)
C25_2 C 0.6230(11) 0.5005(8) 0.4554(6)
C26_2 C 0.8775(7) 0.5005(8) 0.0446(6)
C27_2 C 0.6230(11) 0.1225(7) 0.0446(6)
C28_2 C 0.4995(8) 0.3770(11) 0.0446(6)
H27_2 H 0.9036 0.3551 0.4488
H28_2 H 0.6449 0.5485 0.4488
H29_2 H 0.9036 0.5485 0.0512
H30_2 H 0.6449 0.0964 0.0512
H31_2 H 0.4515 0.3551 0.0512
C29_2 C 0.8930(8) 0.4192(12) 0.5070(8)
C30_2 C 0.5808(12) 0.4738(9) 0.5070(8)
C34_2 C 0.8540(10) 0.4506(14) 0.5184(9)
C35_2 C 0.5494(14) 0.4034(10) 0.5184(9)
C39_2 C 0.8006(10) 0.4373(14) 0.4738(9)
C40_2 C 0.5627(14) 0.3633(10) 0.4738(9)
C41_2 C 0.8006(10) 0.3633(10) 0.0262(9)
C42_2 C 0.5627(14) 0.1994(10) 0.0262(9)
C43_2 C 0.6367(10) 0.4373(14) 0.0262(9)
H32_2 H 0.7732 0.4578 0.4802
H33_2 H 0.5422 0.3154 0.4802
H34_2 H 0.7732 0.3154 0.0198
H35_2 H 0.5422 0.2268 0.0198
H36_2 H 0.6846 0.4578 0.0198
C44_2 C 0.7888(8) 0.3954(13) 0.4222(7)
C45_2 C 0.6046(13) 0.3934(10) 0.4222(7)
C46_2 C 0.7888(8) 0.3934(10) 0.0778(7)
C47_2 C 0.6046(13) 0.2112(8) 0.0778(7)
C48_2 C 0.6066(10) 0.3954(13) 0.0778(7)
H37_2 H 0.7535 0.3878 0.3922
H38_2 H 0.6122 0.3657 0.3922
H39_2 H 0.7535 0.3657 0.1078
H40_2 H 0.6122 0.2465 0.1078
H41_2 H 0.6343 0.3878 0.1078
C49_2 C 0.9871(11) 0.4143(16) 0.5461(9)
C50_2 C 0.5857(16) 0.5728(11) 0.5461(9)
H42_2 H 0.9848 0.3907 0.5067
H43_2 H 0.6093 0.5941 0.5067
C55_2 C 0.5960(16) 0.7259(12) 0.6270(9)
H48_2 H 0.6177 0.7738 0.6194
C60_2 C 0.6052(17) 0.6827(13) 0.5846(10)
H53_2 H 0.6351 0.7024 0.5483
C65_2 C 0.5730(13) 0.6128(10) 0.5928(8)
C70_2 C 0.5330(12) 0.5863(9) 0.6477(7)
H58_2 H 0.5117 0.5389 0.6573
C75_2 C 0.5245(11) 0.6305(8) 0.6886(7)
H63_2 H 0.4950 0.6113 0.7252
N6_2 N 0.9440(7) 0.5111(8) 0.9451(6)
N7_2 N 0.5671(11) 0.0560(7) 0.9451(6)
N8_2 N 0.4889(8) 0.4329(11) 0.9451(6)
N22_2 N 0.8715(11) 0.3721(9) 0.9326(9)
N23_2 N 0.5006(14) 0.1285(11) 0.9326(9)
N24_2 N 0.6279(9) 0.4994(14) 0.9326(9)
H19_2 H 0.9078 0.3966 0.9081
H20_2 H 0.4888 0.0922 0.9081
H21_2 H 0.6034 0.5112 0.9081
H24_2 H 0.8463 0.3278 0.9262
H25_2 H 0.4815 0.1537 0.9262
H26_2 H 0.6722 0.5185 0.9262
C31_2 C 0.8930(8) 0.4738(9) 0.9930(8)
C32_2 C 0.5808(12) 0.1070(8) 0.9930(8)
C33_2 C 0.5262(9) 0.4192(12) 0.9930(8)
C36_2 C 0.8540(10) 0.4034(10) 0.9816(9)
C37_2 C 0.5494(14) 0.1460(10) 0.9816(9)
C38_2 C 0.5966(10) 0.4506(14) 0.9816(9)
C51_2 C 0.9871(11) 0.5728(11) 0.9539(9)
C52_2 C 0.5857(16) 0.0129(11) 0.9539(9)
C53_2 C 0.4272(11) 0.4143(16) 0.9539(9)
H44_2 H 0.9848 0.5941 0.9933
H45_2 H 0.6093 0.0152 0.9933
H46_2 H 0.4059 0.3907 0.9933
C58_2 C 0.2741(12) 0.4040(16) 0.8730(9)
H51_2 H 0.2262 0.3823 0.8806
C63_2 C 0.3173(13) 0.3948(17) 0.9154(10)
H56_2 H 0.2976 0.3649 0.9517
C68_2 C 0.3872(10) 0.4270(13) 0.9072(8)
C73_2 C 0.4137(9) 0.4670(12) 0.8523(7)
H61_2 H 0.4611 0.4883 0.8427
C78_2 C 0.3695(8) 0.4755(11) 0.8114(7)
H66_2 H 0.3887 0.5050 0.7748
C9_2 C 0.2741(12) 0.8701(10) 0.6270(9)
H8_2 H 0.2262 0.8439 0.6194
C10_2 C 0.3173(13) 0.9225(11) 0.5846(10)
H9_2 H 0.2976 0.9327 0.5483
C11_2 C 0.3872(10) 0.9602(9) 0.5928(8)
C12_2 C 0.4137(9) 0.9467(8) 0.6477(7)
H10_2 H 0.4611 0.9728 0.6573
C13_2 C 0.3695(8) 0.8940(8) 0.6886(7)
H11_2 H 0.3887 0.8837 0.7252
C57_2 C 0.5960(16) 0.8701(10) 0.8730(9)
H50_2 H 0.6177 0.8439 0.8806
C62_2 C 0.6052(17) 0.9225(11) 0.9154(10)
H55_2 H 0.6351 0.9327 0.9517
C67_2 C 0.5730(13) 0.9602(9) 0.9072(8)
C72_2 C 0.5330(12) 0.9467(8) 0.8523(7)
H60_2 H 0.5117 0.9728 0.8427
C77_2 C 0.5245(11) 0.8940(8) 0.8114(7)
H65_2 H 0.4950 0.8837 0.7748
loop_
_geom_bond_atom_site_label_1
_geom_bond_atom_site_label_2
_geom_bond_site_symmetry_1
_geom_bond_site_symmetry_2
Cd5 N12 1_555 1_555
N12 C57 1_555 1_555
C57 H50 1_555 1_555
C62 C57 1_555 1_555
H55 C62 1_555 1_555
C72 C67 1_555 1_555
H60 C72 1_555 1_555
C77 N12 1_555 1_555
H65 C77 1_555 1_555
C62 C67 1_555 1_555
C72 C77 1_555 1_555
N2 C9 1_555 1_555
C9 H8 1_555 1_555
C10 C9 1_555 1_555
H9 C10 1_555 1_555
C12 C11 1_555 1_555
H10 C12 1_555 1_555
C13 N2 1_555 1_555
H11 C13 1_555 1_555
Cd7 N2 1_555 1_555
C10 C11 1_555 1_555
C12 C13 1_555 1_555
Cd9 N13 1_555 1_555
N6 C31 1_555 1_555
N7 C32 1_555 1_555
N8 C33 1_555 1_555
N13 C58 1_555 1_555
N22 H19 1_555 1_555
N23 H20 1_555 1_555
N24 H21 1_555 1_555
H24 N22 1_555 1_555
H25 N23 1_555 1_555
H26 N24 1_555 1_555
C36 N22 1_555 1_555
C37 N23 1_555 1_555
C38 N24 1_555 1_555
C51 N6 1_555 1_555
C52 N7 1_555 1_555
C53 N8 1_555 1_555
H44 C51 1_555 1_555
H45 C52 1_555 1_555
H46 C53 1_555 1_555
C58 H51 1_555 1_555
C63 C58 1_555 1_555
H56 C63 1_555 1_555
C68 C53 1_555 1_555
C73 C68 1_555 1_555
H61 C73 1_555 1_555
C78 N13 1_555 1_555
H66 C78 1_555 1_555
C31 C36 1_555 1_555
C32 C37 1_555 1_555
C33 C38 1_555 1_555
C63 C68 1_555 1_555
C73 C78 1_555 1_555
Cs1 O1 1_555 1_555
Cd1 O1 1_555 1_555
O1 C1 1_555 1_555
O2 Cd1 1_555 1_555
O3 Cd1 1_555 1_555
H1 O3 1_555 1_555
N1 C4 1_555 1_555
N3 H2 1_555 1_555
H3 N3 1_555 1_555
C1 O2 1_555 1_555
C2 C1 1_555 1_555
C3 C2 1_555 1_555
H4 C3 1_555 1_555
C4 C3 1_555 1_555
C5 N3 1_555 1_555
C6 C5 1_555 1_555
H5 C6 1_555 1_555
C7 C2 1_555 1_555
H6 C7 1_555 1_555
C8 N1 1_555 1_555
H7 C8 1_555 1_555
Cd2 O4 1_555 1_555
Cd3 O5 1_555 1_555
Cd5 N10 1_555 1_555
O4 Cs1 1_555 1_555
O5 Cs1 1_555 1_555
O6 Cs1 1_555 1_555
O7 Cs1 1_555 1_555
O8 Cs1 1_555 1_555
O9 Cd2 1_555 1_555
O10 Cd3 1_555 1_555
O11 Cd3 1_555 1_555
O12 Cd2 1_555 1_555
O13 Cd1 1_555 1_555
O14 Cd2 1_555 1_555
O15 Cd3 1_555 1_555
H12 O3 1_555 1_555
H13 O14 1_555 1_555
H14 O14 1_555 1_555
H15 O15 1_555 1_555
H16 O15 1_555 1_555
N4 C29 1_555 1_555
N5 C30 1_555 1_555
N10 C55 1_555 1_555
N14 Cd2 1_555 1_555
N15 Cd3 1_555 1_555
N16 Cd1 1_555 1_555
N17 Cd2 1_555 1_555
N18 Cd1 1_555 1_555
N19 Cd3 1_555 1_555
N20 H17 1_555 1_555
N21 H18 1_555 1_555
H22 N20 1_555 1_555
H23 N21 1_555 1_555
C14 O4 1_555 1_555
C15 O5 1_555 1_555
C16 O6 1_555 1_555
C17 O7 1_555 1_555
C18 O8 1_555 1_555
C19 C14 1_555 1_555
C20 C15 1_555 1_555
C21 C16 1_555 1_555
C22 C17 1_555 1_555
C23 C18 1_555 1_555
C24 C19 1_555 1_555
C25 C20 1_555 1_555
C26 C21 1_555 1_555
C27 C22 1_555 1_555
C28 C23 1_555 1_555
H27 C24 1_555 1_555
H28 C25 1_555 1_555
H29 C26 1_555 1_555
H30 C27 1_555 1_555
H31 C28 1_555 1_555
C29 C24 1_555 1_555
C30 C25 1_555 1_555
C34 N20 1_555 1_555
C35 N21 1_555 1_555
C39 C34 1_555 1_555
C40 C35 1_555 1_555
H32 C39 1_555 1_555
H33 C40 1_555 1_555
H34 C41 1_555 1_555
H35 C42 1_555 1_555
H36 C43 1_555 1_555
C44 C19 1_555 1_555
C45 C20 1_555 1_555
C46 C21 1_555 1_555
C47 C22 1_555 1_555
C48 C23 1_555 1_555
H37 C44 1_555 1_555
H38 C45 1_555 1_555
H39 C46 1_555 1_555
H40 C47 1_555 1_555
H41 C48 1_555 1_555
C49 N4 1_555 1_555
C50 N5 1_555 1_555
H42 C49 1_555 1_555
H43 C50 1_555 1_555
C55 H48 1_555 1_555
C60 C55 1_555 1_555
H53 C60 1_555 1_555
C65 C50 1_555 1_555
C70 C65 1_555 1_555
H58 C70 1_555 1_555
C75 N10 1_555 1_555
H63 C75 1_555 1_555
Cd1 O8 1_555 1_555
C4 C5 1_555 1_555
C6 C7 1_555 1_555
Cd2 O7 1_555 1_555
Cd3 O6 1_555 1_555
O9 C14 1_555 1_555
O10 C15 1_555 1_555
O11 C16 1_555 1_555
O12 C17 1_555 1_555
O13 C18 1_555 1_555
C29 C34 1_555 1_555
C30 C35 1_555 1_555
C39 C44 1_555 1_555
C40 C45 1_555 1_555
C41 C46 1_555 1_555
C42 C47 1_555 1_555
C43 C48 1_555 1_555
C60 C65 1_555 1_555
C70 C75 1_555 1_555
Cd7 N11 1_555 1_555
N11 C56 1_555 1_555
C56 H49 1_555 1_555
C61 C56 1_555 1_555
H54 C61 1_555 1_555
C71 C66 1_555 1_555
H59 C71 1_555 1_555
C76 N11 1_555 1_555
H64 C76 1_555 1_555
C61 C66 1_555 1_555
C71 C76 1_555 1_555
Cd9 N9 1_555 1_555
N9 C54 1_555 1_555
C54 H47 1_555 1_555
C59 C54 1_555 1_555
H52 C59 1_555 1_555
C69 C64 1_555 1_555
H57 C69 1_555 1_555
C74 N9 1_555 1_555
H62 C74 1_555 1_555
C59 C64 1_555 1_555
C69 C74 1_555 1_555
N15 C54_2 1_555 1_555
C54_2 H47_2 1_555 1_555
C59_2 C54_2 1_555 1_555
H52_2 C59_2 1_555 1_555
C69_2 C64_2 1_555 1_555
H57_2 C69_2 1_555 1_555
C74_2 N15 1_555 1_555
H62_2 C74_2 1_555 1_555
C59_2 C64_2 1_555 1_555
C69_2 C74_2 1_555 1_555
N17 C56_2 1_555 1_555
C56_2 H49_2 1_555 1_555
C61_2 C56_2 1_555 1_555
H54_2 C61_2 1_555 1_555
C71_2 C66_2 1_555 1_555
H59_2 C71_2 1_555 1_555
C76_2 N17 1_555 1_555
H64_2 C76_2 1_555 1_555
C61_2 C66_2 1_555 1_555
C71_2 C76_2 1_555 1_555
Cs1_2 O1_2 1_555 1_555
Cd5 O1_2 1_555 1_555
O1_2 C1_2 1_555 1_555
O2_2 Cd5 1_555 1_555
O3_2 Cd5 1_555 1_555
H1_2 O3_2 1_555 1_555
N1_2 C4_2 1_555 1_555
N3_2 H2_2 1_555 1_555
H3_2 N3_2 1_555 1_555
C1_2 O2_2 1_555 1_555
C2_2 C1_2 1_555 1_555
C3_2 C2_2 1_555 1_555
H4_2 C3_2 1_555 1_555
C4_2 C3_2 1_555 1_555
C5_2 N3_2 1_555 1_555
C6_2 C5_2 1_555 1_555
H5_2 C6_2 1_555 1_555
C7_2 C2_2 1_555 1_555
H6_2 C7_2 1_555 1_555
C8_2 N1_2 1_555 1_555
H7_2 C8_2 1_555 1_555
Cd7 O4_2 1_555 1_555
Cd9 O5_2 1_555 1_555
O4_2 Cs1_2 1_555 1_555
O5_2 Cs1_2 1_555 1_555
O6_2 Cs1_2 1_555 1_555
O7_2 Cs1_2 1_555 1_555
O8_2 Cs1_2 1_555 1_555
O9_2 Cd7 1_555 1_555
O10_2 Cd9 1_555 1_555
O11_2 Cd9 1_555 1_555
O12_2 Cd7 1_555 1_555
O13_2 Cd5 1_555 1_555
O14_2 Cd7 1_555 1_555
O15_2 Cd9 1_555 1_555
H12_2 O3_2 1_555 1_555
H13_2 O14_2 1_555 1_555
H14_2 O14_2 1_555 1_555
H15_2 O15_2 1_555 1_555
H16_2 O15_2 1_555 1_555
N4_2 C29_2 1_555 1_555
N5_2 C30_2 1_555 1_555
N16 C55_2 1_555 1_555
N20_2 H17_2 1_555 1_555
N21_2 H18_2 1_555 1_555
H22_2 N20_2 1_555 1_555
H23_2 N21_2 1_555 1_555
C14_2 O4_2 1_555 1_555
C15_2 O5_2 1_555 1_555
C16_2 O6_2 1_555 1_555
C17_2 O7_2 1_555 1_555
C18_2 O8_2 1_555 1_555
C19_2 C14_2 1_555 1_555
C20_2 C15_2 1_555 1_555
C21_2 C16_2 1_555 1_555
C22_2 C17_2 1_555 1_555
C23_2 C18_2 1_555 1_555
C24_2 C19_2 1_555 1_555
C25_2 C20_2 1_555 1_555
C26_2 C21_2 1_555 1_555
C27_2 C22_2 1_555 1_555
C28_2 C23_2 1_555 1_555
H27_2 C24_2 1_555 1_555
H28_2 C25_2 1_555 1_555
H29_2 C26_2 1_555 1_555
H30_2 C27_2 1_555 1_555
H31_2 C28_2 1_555 1_555
C29_2 C24_2 1_555 1_555
C30_2 C25_2 1_555 1_555
C34_2 N20_2 1_555 1_555
C35_2 N21_2 1_555 1_555
C39_2 C34_2 1_555 1_555
C40_2 C35_2 1_555 1_555
H32_2 C39_2 1_555 1_555
H33_2 C40_2 1_555 1_555
H34_2 C41_2 1_555 1_555
H35_2 C42_2 1_555 1_555
H36_2 C43_2 1_555 1_555
C44_2 C19_2 1_555 1_555
C45_2 C20_2 1_555 1_555
C46_2 C21_2 1_555 1_555
C47_2 C22_2 1_555 1_555
C48_2 C23_2 1_555 1_555
H37_2 C44_2 1_555 1_555
H38_2 C45_2 1_555 1_555
H39_2 C46_2 1_555 1_555
H40_2 C47_2 1_555 1_555
H41_2 C48_2 1_555 1_555
C49_2 N4_2 1_555 1_555
C50_2 N5_2 1_555 1_555
H42_2 C49_2 1_555 1_555
H43_2 C50_2 1_555 1_555
C55_2 H48_2 1_555 1_555
C60_2 C55_2 1_555 1_555
H53_2 C60_2 1_555 1_555
C65_2 C50_2 1_555 1_555
C70_2 C65_2 1_555 1_555
H58_2 C70_2 1_555 1_555
C75_2 N16 1_555 1_555
H63_2 C75_2 1_555 1_555
Cd5 O8_2 1_555 1_555
C4_2 C5_2 1_555 1_555
C6_2 C7_2 1_555 1_555
Cd7 O7_2 1_555 1_555
Cd9 O6_2 1_555 1_555
O9_2 C14_2 1_555 1_555
O10_2 C15_2 1_555 1_555
O11_2 C16_2 1_555 1_555
O12_2 C17_2 1_555 1_555
O13_2 C18_2 1_555 1_555
C29_2 C34_2 1_555 1_555
C30_2 C35_2 1_555 1_555
C39_2 C44_2 1_555 1_555
C40_2 C45_2 1_555 1_555
C41_2 C46_2 1_555 1_555
C42_2 C47_2 1_555 1_555
C43_2 C48_2 1_555 1_555
C60_2 C65_2 1_555 1_555
C70_2 C75_2 1_555 1_555
N6_2 C31_2 1_555 1_555
N7_2 C32_2 1_555 1_555
N8_2 C33_2 1_555 1_555
N19 C58_2 1_555 1_555
N22_2 H19_2 1_555 1_555
N23_2 H20_2 1_555 1_555
N24_2 H21_2 1_555 1_555
H24_2 N22_2 1_555 1_555
H25_2 N23_2 1_555 1_555
H26_2 N24_2 1_555 1_555
C36_2 N22_2 1_555 1_555
C37_2 N23_2 1_555 1_555
C38_2 N24_2 1_555 1_555
C51_2 N6_2 1_555 1_555
C52_2 N7_2 1_555 1_555
C53_2 N8_2 1_555 1_555
H44_2 C51_2 1_555 1_555
H45_2 C52_2 1_555 1_555
H46_2 C53_2 1_555 1_555
C58_2 H51_2 1_555 1_555
C63_2 C58_2 1_555 1_555
H56_2 C63_2 1_555 1_555
C68_2 C53_2 1_555 1_555
C73_2 C68_2 1_555 1_555
H61_2 C73_2 1_555 1_555
C78_2 N19 1_555 1_555
H66_2 C78_2 1_555 1_555
C31_2 C36_2 1_555 1_555
C32_2 C37_2 1_555 1_555
C33_2 C38_2 1_555 1_555
C63_2 C68_2 1_555 1_555
C73_2 C78_2 1_555 1_555
N14 C9_2 1_555 1_555
C9_2 H8_2 1_555 1_555
C10_2 C9_2 1_555 1_555
H9_2 C10_2 1_555 1_555
C12_2 C11_2 1_555 1_555
H10_2 C12_2 1_555 1_555
C13_2 N14 1_555 1_555
H11_2 C13_2 1_555 1_555
C10_2 C11_2 1_555 1_555
C12_2 C13_2 1_555 1_555
N18 C57_2 1_555 1_555
C57_2 H50_2 1_555 1_555
C62_2 C57_2 1_555 1_555
H55_2 C62_2 1_555 1_555
C72_2 C67_2 1_555 1_555
H60_2 C72_2 1_555 1_555
C77_2 N18 1_555 1_555
H65_2 C77_2 1_555 1_555
C62_2 C67_2 1_555 1_555
C72_2 C77_2 1_555 1_555

#END
