
###############################################################################
#
# This file contains modified crystal structure data generated from the
# MOF subset of the Cambridge Structural Database (CSD) v543 
# hosted by the Cambridge Crystallographic Data Centre (CCDC).
#
# This work is licensed under the Creative Commons
# Attribution-NonCommercial-ShareAlike 4.0 International License.
# To view a copy of this license, visit
# http://creativecommons.org/licenses/by-nc-sa/4.0/
# or send a letter to
# Creative Commons, PO Box 1866, Mountain View, CA 94042, USA.
#
# CIF created using the CSD Python API on 29 September 2022
# The structure has been converted into the P1 space group
# The structure has a 3D framework
# The original CSD entry SUKREX is in the triclinic crystal system
# The framework has been calculated to contain at least 10.0% void space
# The void calculation uses a probe of radius 1.32A, grid spacing 0.4
# H atom positions have been added when not included in the experimental data
# Generated hydrogen atom positions removed from atoms on special positions
#
###############################################################################

data_SUKREX
_chemical_formula_moiety         '(C30 H36 La4 O29)n'
_symmetry_cell_setting           triclinic
_symmetry_space_group_name_H-M   'P 1'
_symmetry_Int_Tables_number      1
_space_group_name_Hall           'P 1'
loop_
_symmetry_equiv_pos_site_id
_symmetry_equiv_pos_as_xyz
1 x,y,z
_cell_length_a                   9.2467(18)
_cell_length_b                   10.715(2)
_cell_length_c                   10.840(2)
_cell_angle_alpha                86.19(3)
_cell_angle_beta                 84.05(3)
_cell_angle_gamma                81.42(3)
_cell_volume                     1054.85
loop_
_atom_site_label
_atom_site_type_symbol
_atom_site_fract_x
_atom_site_fract_y
_atom_site_fract_z
_atom_site_U_iso_or_equiv
_atom_site_thermal_displace_type
O5 O 0.3426(5) 0.0603(5) 0.5980(5) 0.0231 Uani
C21 C 0.2179(7) 0.1209(7) 0.3496(7) 0.0182 Uani
C22 C 0.1028(7) 0.0600(7) 0.4270(7) 0.0173 Uani
O23 O 0.1915(5) 0.2326(5) 0.3078(5) 0.0230 Uani
O24 O 0.3464(5) 0.0564(5) 0.3316(5) 0.0202 Uani
La9 La 0.46940(4) 0.26046(4) 0.28033(4) 0.0164 Uani
La17 La 0.52189(4) 0.17700(4) 0.68595(4) 0.0149 Uani
C8 C 0.0432(7) 0.9171(6) 0.5988(7) 0.0175 Uani
H2 H 0.0716 0.8609 0.6640 0.0210 Uiso
C9 C 0.1460(7) 0.9787(6) 0.5266(7) 0.0165 Uani
C10 C 0.3032(7) 0.9669(6) 0.5593(6) 0.0151 Uani
O1 O 0.3835(5) 0.8593(5) 0.5453(5) 0.0205 Uani
La4 La 0.53060(4) 0.73954(4) 0.71967(4) 0.0164 Uani
O30 O 0.3329(6) 0.6144(6) 0.6662(6) 0.0331 Uani
O31 O 0.6131(8) 0.8135(7) 0.9204(6) 0.0470 Uani
O32 O 0.4271(7) 0.6249(6) 0.9192(6) 0.0384 Uani
La13 La 0.47811(4) 0.82300(4) 0.31405(4) 0.0149 Uani
O36 O 0.6239(5) 0.6769(5) 0.4986(5) 0.0210 Uani
O47 O 0.8085(5) 0.7674(5) 0.6922(5) 0.0230 Uani
O49 O 0.6536(5) 0.9436(5) 0.6684(5) 0.0202 Uani
O52 O 0.6714(6) 0.5140(5) 0.7267(5) 0.0232 Uani
O53 O 0.3357(7) 0.8857(6) 0.8175(6) 0.0373 Uani
C3 C 0.0244(8) 0.0551(7) 0.8825(7) 0.0214 Uani
H1 H 0.0405 0.0934 0.8037 0.0260 Uiso
O6 O 0.3470(6) 0.0885(5) 0.8485(5) 0.0285 Uani
C23 C 0.9568(7) 0.0829(6) 0.4012(7) 0.0175 Uani
H5 H 0.9284 0.1391 0.3360 0.0210 Uiso
C24 C 0.8540(7) 0.0213(6) 0.4734(7) 0.0165 Uani
C25 C 0.6968(7) 0.0331(6) 0.4407(6) 0.0151 Uani
O21 O 0.6165(5) 0.1407(5) 0.4547(5) 0.0205 Uani
C19 C 0.1189(7) 0.9407(7) 0.0613(7) 0.0205 Uani
C20 C 0.2440(8) 0.8844(7) 0.1371(8) 0.0226 Uani
O17 O 0.3711(6) 0.9080(6) 0.1003(5) 0.0286 Uani
O18 O 0.2185(6) 0.8237(6) 0.2363(6) 0.0343 Uani
C1 C 0.2892(8) 0.9896(7) 0.8670(7) 0.0208 Uani
C2 C 0.1430(7) 0.9949(6) 0.9422(7) 0.0169 Uani
C6 C 0.7821(7) 0.8791(7) 0.6504(7) 0.0182 Uani
C7 C 0.8972(7) 0.9400(7) 0.5730(7) 0.0173 Uani
C11 C 0.2806(7) 0.5476(6) 0.3697(7) 0.0169 Uani
C12 C 0.1357(7) 0.5188(7) 0.4387(7) 0.0186 Uani
C13 C 0.0075(8) 0.5932(7) 0.4049(7) 0.0188 Uani
H3 H 0.0126 0.6560 0.3418 0.0230 Uiso
O10 O 0.3416(6) 0.6311(5) 0.4086(5) 0.0237 Uani
O11 O 0.3286(6) 0.4860(5) 0.2733(5) 0.0232 Uani
O13 O 0.5214(7) 0.6415(5) 0.1611(6) 0.0330 Uani
O22 O 0.6574(5) 0.9397(5) 0.4020(5) 0.0231 Uani
C29 C 0.1287(7) 0.4266(6) 0.5345(7) 0.0170 Uani
C30 C 0.2628(7) 0.3490(7) 0.5781(7) 0.0191 Uani
O25 O 0.3761(5) 0.3231(5) 0.5014(5) 0.0210 Uani
O26 O 0.2645(6) 0.3121(5) 0.6895(5) 0.0257 Uani
O44 O 0.6530(6) 0.9115(5) 0.1515(5) 0.0285 Uani
O45 O 0.7355(6) 0.6879(5) 0.3105(5) 0.0257 Uani
C16 C 0.7108(8) 0.0104(7) 0.1330(7) 0.0208 Uani
C17 C 0.8570(7) 0.0051(6) 0.0578(7) 0.0169 Uani
O20 O 0.6643(7) 0.1143(6) 0.1825(6) 0.0373 Uani
C4 C 0.8811(7) 0.0593(7) 0.9387(7) 0.0205 Uani
C5 C 0.7560(8) 0.1156(7) 0.8629(8) 0.0226 Uani
O3 O 0.6289(6) 0.0920(6) 0.8997(5) 0.0286 Uani
O4 O 0.7815(6) 0.1763(6) 0.7637(6) 0.0343 Uani
C18 C 0.9756(8) 0.9449(7) 0.1175(7) 0.0214 Uani
H4 H 0.9595 0.9066 0.1963 0.0260 Uiso
C14 C 0.8713(7) 0.5734(6) 0.4655(7) 0.0170 Uani
C15 C 0.7372(7) 0.6510(7) 0.4219(7) 0.0191 Uani
C26 C 0.7194(7) 0.4524(6) 0.6303(7) 0.0169 Uani
C27 C 0.8643(7) 0.4812(7) 0.5613(7) 0.0186 Uani
C28 C 0.9925(8) 0.4068(7) 0.5951(7) 0.0188 Uani
H6 H 0.9874 0.3440 0.6582 0.0230 Uiso
O27 O 0.6584(6) 0.3689(5) 0.5914(5) 0.0237 Uani
O29 O 0.4786(7) 0.3585(5) 0.8389(6) 0.0330 Uani
O14 O 0.6671(6) 0.3856(6) 0.3338(6) 0.0331 Uani
O15 O 0.3869(8) 0.1865(7) 0.0796(6) 0.0470 Uani
O16 O 0.5729(7) 0.3751(6) 0.0808(6) 0.0384 Uani
loop_
_atom_site_aniso_label
_atom_site_aniso_U_11
_atom_site_aniso_U_22
_atom_site_aniso_U_33
_atom_site_aniso_U_23
_atom_site_aniso_U_13
_atom_site_aniso_U_12
O5 0.018 0.023 0.029 -0.005 -0.009 0.001
C21 0.014 0.021 0.02 -0.002 -0.004 -0.002
C22 0.016 0.019 0.018 -0.002 0 -0.007
O23 0.017 0.021 0.03 0.008 -0.001 -0.004
O24 0.012 0.021 0.026 0 0 0.001
La9 0.0141 0.0162 0.0182 -0.00098 -0.0003 -0.00061
La17 0.0124 0.0156 0.0163 -0.00093 -0.00231 -4e-05
C8 0.017 0.015 0.02 0 -0.004 0
C9 0.012 0.016 0.022 -0.002 -0.001 -0.004
C10 0.016 0.018 0.011 0 0.001 -0.003
O1 0.018 0.017 0.025 -0.002 -0.004 0.0041
La4 0.0141 0.0162 0.0182 -0.00098 -0.0003 -0.00061
O30 0.034 0.032 0.039 0.003 -0.014 -0.018
O31 0.05 0.077 0.021 -0.007 -0.001 -0.032
O32 0.056 0.033 0.026 0.004 0 -0.011
La13 0.0124 0.0156 0.0163 -0.00093 -0.00231 -4e-05
O36 0.013 0.026 0.022 -0.002 0.002 0.002
O47 0.017 0.021 0.03 0.008 -0.001 -0.004
O49 0.012 0.021 0.026 0 0 0.001
O52 0.025 0.023 0.02 -0.001 0.004 -0.003
O53 0.04 0.033 0.031 0.001 0.012 0.009
C3 0.022 0.023 0.019 0.002 -0.002 -0.004
O6 0.026 0.035 0.026 0.006 -0.003 -0.012
C23 0.017 0.015 0.02 0 -0.004 0
C24 0.012 0.016 0.022 -0.002 -0.001 -0.004
C25 0.016 0.018 0.011 0 0.001 -0.003
O21 0.018 0.017 0.025 -0.002 -0.004 0.0041
C19 0.015 0.024 0.023 -0.003 -0.007 0
C20 0.018 0.021 0.028 0.003 -0.005 0
O17 0.017 0.044 0.024 0.006 -0.004 -0.004
O18 0.023 0.043 0.035 0.016 -0.004 -0.006
C1 0.014 0.031 0.016 0.003 -0.002 0
C2 0.008 0.02 0.021 -0.002 -0.001 0.004
C6 0.014 0.021 0.02 -0.002 -0.004 -0.002
C7 0.016 0.019 0.018 -0.002 0 -0.007
C11 0.011 0.014 0.024 0.003 -0.003 0.003
C12 0.015 0.021 0.02 -0.006 -0.004 0.001
C13 0.018 0.021 0.017 0.003 -0.005 -0.001
O10 0.023 0.023 0.028 -0.002 -0.006 -0.01
O11 0.025 0.023 0.02 -0.001 0.004 -0.003
O13 0.039 0.021 0.039 -0.009 -0.002 -0.002
O22 0.018 0.023 0.029 -0.005 -0.009 0.001
C29 0.015 0.014 0.021 0.001 -0.004 0.002
C30 0.012 0.02 0.025 -0.002 -0.004 0.001
O25 0.013 0.026 0.022 -0.002 0.002 0.002
O26 0.021 0.032 0.021 0.003 -0.006 0.007
O44 0.026 0.035 0.026 0.006 -0.003 -0.012
O45 0.021 0.032 0.021 0.003 -0.006 0.007
C16 0.014 0.031 0.016 0.003 -0.002 0
C17 0.008 0.02 0.021 -0.002 -0.001 0.004
O20 0.04 0.033 0.031 0.001 0.012 0.009
C4 0.015 0.024 0.023 -0.003 -0.007 0
C5 0.018 0.021 0.028 0.003 -0.005 0
O3 0.017 0.044 0.024 0.006 -0.004 -0.004
O4 0.023 0.043 0.035 0.016 -0.004 -0.006
C18 0.022 0.023 0.019 0.002 -0.002 -0.004
C14 0.015 0.014 0.021 0.001 -0.004 0.002
C15 0.012 0.02 0.025 -0.002 -0.004 0.001
C26 0.011 0.014 0.024 0.003 -0.003 0.003
C27 0.015 0.021 0.02 -0.006 -0.004 0.001
C28 0.018 0.021 0.017 0.003 -0.005 -0.001
O27 0.023 0.023 0.028 -0.002 -0.006 -0.01
O29 0.039 0.021 0.039 -0.009 -0.002 -0.002
O14 0.034 0.032 0.039 0.003 -0.014 -0.018
O15 0.05 0.077 0.021 -0.007 -0.001 -0.032
O16 0.056 0.033 0.026 0.004 0 -0.011
loop_
_geom_bond_atom_site_label_1
_geom_bond_atom_site_label_2
_geom_bond_site_symmetry_1
_geom_bond_site_symmetry_2
C21 C22 1_555 1_555
O23 C21 1_555 1_555
O24 C21 1_555 1_555
La9 O23 1_555 1_555
La17 O5 1_555 1_555
O24 La9 1_555 1_555
C8 H2 1_555 1_555
C9 C8 1_555 1_555
C10 C9 1_555 1_555
O1 C10 1_555 1_555
La4 O1 1_555 1_555
O30 La4 1_555 1_555
O31 La4 1_555 1_555
O32 La4 1_555 1_555
La13 O1 1_555 1_555
O36 La4 1_555 1_555
O47 La4 1_555 1_555
O49 La4 1_555 1_555
O52 La4 1_555 1_555
O53 La4 1_555 1_555
La13 O36 1_555 1_555
C3 H1 1_555 1_555
H5 C23 1_555 1_555
C25 C24 1_555 1_555
O21 C25 1_555 1_555
La9 O21 1_555 1_555
La17 O6 1_555 1_555
C23 C24 1_555 1_555
O21 La17 1_555 1_555
C20 C19 1_555 1_555
O17 C20 1_555 1_555
O18 C20 1_555 1_555
La13 O17 1_555 1_555
O18 La13 1_555 1_555
La13 O10 1_555 1_555
C1 C2 1_555 1_555
C6 C7 1_555 1_555
C11 C12 1_555 1_555
C12 C13 1_555 1_555
C13 H3 1_555 1_555
O47 C6 1_555 1_555
O10 C11 1_555 1_555
O11 C11 1_555 1_555
O13 La13 1_555 1_555
O22 La13 1_555 1_555
C29 C12 1_555 1_555
C30 C29 1_555 1_555
O25 C30 1_555 1_555
O26 C30 1_555 1_555
La9 O11 1_555 1_555
La17 O25 1_555 1_555
O44 La13 1_555 1_555
O45 La13 1_555 1_555
C1 O53 1_555 1_555
C6 O49 1_555 1_555
O25 La9 1_555 1_555
O26 La17 1_555 1_555
C16 C17 1_555 1_555
O20 C16 1_555 1_555
La9 O20 1_555 1_555
C5 C4 1_555 1_555
O3 C5 1_555 1_555
O4 C5 1_555 1_555
La17 O3 1_555 1_555
O4 La17 1_555 1_555
H4 C18 1_555 1_555
C15 C14 1_555 1_555
O36 C15 1_555 1_555
O45 C15 1_555 1_555
C26 C27 1_555 1_555
C27 C14 1_555 1_555
C28 C27 1_555 1_555
H6 C28 1_555 1_555
O27 C26 1_555 1_555
O52 C26 1_555 1_555
La17 O27 1_555 1_555
O29 La17 1_555 1_555
O14 La9 1_555 1_555
O15 La9 1_555 1_555
O16 La9 1_555 1_555

#END
