
###############################################################################
#
# This file contains modified crystal structure data generated from the
# MOF subset of the Cambridge Structural Database (CSD) v543 
# hosted by the Cambridge Crystallographic Data Centre (CCDC).
#
# This work is licensed under the Creative Commons
# Attribution-NonCommercial-ShareAlike 4.0 International License.
# To view a copy of this license, visit
# http://creativecommons.org/licenses/by-nc-sa/4.0/
# or send a letter to
# Creative Commons, PO Box 1866, Mountain View, CA 94042, USA.
#
# CIF created using the CSD Python API on 29 September 2022
# The structure has been converted into the P1 space group
# The structure has a 3D framework
# The original CSD entry SUKRIB is in the triclinic crystal system
# The framework has been calculated to contain at least 10.0% void space
# The void calculation uses a probe of radius 1.32A, grid spacing 0.4
# H atom positions have been added when not included in the experimental data
# Generated hydrogen atom positions removed from atoms on special positions
#
###############################################################################

data_SUKRIB
_chemical_formula_moiety         '(C30 H38 Ce4 O31)n'
_symmetry_cell_setting           triclinic
_symmetry_space_group_name_H-M   'P 1'
_symmetry_Int_Tables_number      1
_space_group_name_Hall           'P 1'
loop_
_symmetry_equiv_pos_site_id
_symmetry_equiv_pos_as_xyz
1 x,y,z
_cell_length_a                   9.2252(18)
_cell_length_b                   10.627(2)
_cell_length_c                   10.807(2)
_cell_angle_alpha                86.51(3)
_cell_angle_beta                 83.93(3)
_cell_angle_gamma                81.22(3)
_cell_volume                     1040.11
loop_
_atom_site_label
_atom_site_type_symbol
_atom_site_fract_x
_atom_site_fract_y
_atom_site_fract_z
_atom_site_U_iso_or_equiv
_atom_site_thermal_displace_type
Ce15 Ce 0.02241(3) 0.67695(3) 0.68627(3) 0.0090 Uani
Ce1 Ce 0.03105(3) 0.23995(3) 0.71858(3) 0.0099 Uani
C6 C 0.2343(7) 0.1492(6) 0.4208(6) 0.0137 Uani
C7 C 0.3725(6) 0.0712(6) 0.4627(5) 0.0105 Uani
C8 C 0.5059(7) 0.0914(6) 0.4027(6) 0.0141 Uani
H2 H 0.5099 0.1533 0.3383 0.0170 Uiso
C9 C 0.6370(6) 0.0190(6) 0.4380(5) 0.0100 Uani
C10 C 0.7817(7) 0.0468(6) 0.3688(6) 0.0125 Uani
O1 O 0.1214(5) 0.1762(4) 0.5001(4) 0.0167 Uani
O2 O 0.2320(5) 0.1830(5) 0.3094(4) 0.0191 Uani
O5 O 0.8409(5) 0.1337(4) 0.4072(4) 0.0177 Uani
O13 O 0.0145(5) 0.1436(5) 0.1566(5) 0.0226 Uani
O15 O 0.1134(6) 0.3104(6) 0.9173(5) 0.0359 Uani
O24 O 0.1685(5) 0.0158(4) 0.7266(4) 0.0158 Uani
Ce12 Ce 0.97759(3) 0.32305(3) 0.31373(3) 0.0090 Uani
O40 O 0.1547(5) 0.4077(5) 0.1517(4) 0.0211 Uani
O42 O 0.3064(5) 0.2654(4) 0.6935(5) 0.0190 Uani
O44 O 0.1519(4) 0.4424(4) 0.6693(4) 0.0122 Uani
O46 O 0.1593(5) 0.4363(4) 0.4013(4) 0.0165 Uani
O10 O 0.8315(5) 0.9842(4) 0.2734(4) 0.0158 Uani
C21 C 0.7657(7) 0.8508(6) 0.5792(6) 0.0137 Uani
C22 C 0.6275(6) 0.9288(6) 0.5373(5) 0.0105 Uani
C23 C 0.4941(7) 0.9086(6) 0.5973(6) 0.0141 Uani
H5 H 0.4901 0.8467 0.6617 0.0170 Uiso
C24 C 0.3630(6) 0.9810(6) 0.5620(5) 0.0100 Uani
C25 C 0.2183(7) 0.9532(6) 0.6312(6) 0.0125 Uani
O21 O 0.8786(5) 0.8238(4) 0.4999(4) 0.0167 Uani
O22 O 0.7680(5) 0.8170(5) 0.6906(4) 0.0191 Uani
O23 O 0.1591(5) 0.8663(4) 0.5928(4) 0.0177 Uani
Ce8 Ce 0.96895(3) 0.76005(3) 0.28142(3) 0.0099 Uani
C26 C 0.2090(6) 0.5077(6) 0.1352(5) 0.0126 Uani
C27 C 0.3576(6) 0.5024(6) 0.0571(6) 0.0132 Uani
C28 C 0.6208(6) 0.4415(6) 0.0613(6) 0.0124 Uani
C29 C 0.4781(7) 0.4438(6) 0.1171(6) 0.0141 Uani
H6 H 0.4627 0.4054 0.1961 0.0170 Uiso
C30 C 0.7463(7) 0.3868(6) 0.1358(6) 0.0158 Uani
O25 O 0.7213(5) 0.3256(5) 0.2368(5) 0.0251 Uani
O26 O 0.8730(5) 0.4117(5) 0.1000(5) 0.0217 Uani
O28 O 0.1626(6) 0.6121(5) 0.1825(5) 0.0265 Uani
C1 C 0.1958(6) 0.5322(6) 0.4408(5) 0.0106 Uani
C2 C 0.3549(6) 0.5215(6) 0.4717(6) 0.0135 Uani
C3 C 0.4557(7) 0.5845(6) 0.4026(6) 0.0140 Uani
H1 H 0.4266 0.6428 0.3390 0.0170 Uiso
C4 C 0.6035(6) 0.5611(6) 0.4276(6) 0.0124 Uani
C5 C 0.7185(7) 0.6217(6) 0.3488(6) 0.0126 Uani
C11 C 0.7910(6) 0.4923(6) 0.8648(5) 0.0126 Uani
C12 C 0.6424(6) 0.4976(6) 0.9429(6) 0.0132 Uani
C13 C 0.3792(6) 0.5585(6) 0.9387(6) 0.0124 Uani
C14 C 0.5219(7) 0.5562(6) 0.8829(6) 0.0141 Uani
H3 H 0.5373 0.5946 0.8039 0.0170 Uiso
C15 C 0.2537(7) 0.6132(6) 0.8642(6) 0.0158 Uani
O3 O 0.2787(5) 0.6744(5) 0.7632(5) 0.0251 Uani
O4 O 0.1270(5) 0.5883(5) 0.9000(5) 0.0217 Uani
O6 O 0.8453(5) 0.5923(5) 0.8483(4) 0.0211 Uani
O7 O 0.1141(5) 0.6397(4) 0.4555(4) 0.0147 Uani
O8 O 0.6936(5) 0.7346(4) 0.3065(5) 0.0190 Uani
O9 O 0.8481(4) 0.5576(4) 0.3307(4) 0.0122 Uani
O12 O 0.8374(6) 0.3879(5) 0.8175(5) 0.0265 Uani
O14 O 0.8309(6) 0.1198(5) 0.6669(5) 0.0291 Uani
O16 O 0.9181(7) 0.1264(5) 0.9158(5) 0.0343 Uani
C16 C 0.8042(6) 0.4678(6) 0.5592(5) 0.0106 Uani
C17 C 0.6451(6) 0.4785(6) 0.5283(6) 0.0135 Uani
C18 C 0.5443(7) 0.4155(6) 0.5974(6) 0.0140 Uani
H4 H 0.5734 0.3572 0.6610 0.0170 Uiso
C19 C 0.3965(6) 0.4389(6) 0.5724(6) 0.0124 Uani
C20 C 0.2815(7) 0.3783(6) 0.6512(6) 0.0126 Uani
O19 O 0.8407(5) 0.5637(4) 0.5987(4) 0.0165 Uani
O20 O 0.8859(5) 0.3603(4) 0.5445(4) 0.0147 Uani
O30 O 0.1691(6) 0.8802(5) 0.3331(5) 0.0291 Uani
O32 O 0.0819(7) 0.8736(5) 0.0842(5) 0.0343 Uani
H9 H 0.966633 0.0707223 0.1939 . .
H10 H 0.969498 0.176404 0.0792675 . .
H15 H 0.0504637 0.920803 0.814209 . .
O29 O 0.9855(5) 0.8564(5) 0.8434(5) 0.0226 Uani
O31 O 0.8866(6) 0.6896(6) 0.0827(5) 0.0359 Uani
H16 H 0.88106 0.897674 0.849843 . .
H16_2 H 0.11894 0.102326 0.150157 . .
H9_2 H 0.0333675 0.929278 0.8061 . .
H10_2 H 0.030502 0.823596 0.920732 . .
H15_2 H 0.949536 0.0791968 0.185791 . .
loop_
_atom_site_aniso_label
_atom_site_aniso_U_11
_atom_site_aniso_U_22
_atom_site_aniso_U_33
_atom_site_aniso_U_23
_atom_site_aniso_U_13
_atom_site_aniso_U_12
Ce15 0.00733 0.00974 0.00984 0.0011 -0.00175 -0.00099
Ce1 0.00909 0.00904 0.01138 0.00048 -8e-05 -0.0017
C6 0.016 0.009 0.016 -0.003 -0.009 0.005
C7 0.006 0.013 0.012 0.001 -0.003 0.001
C8 0.012 0.014 0.016 0.006 -0.004 -0.002
C9 0.008 0.011 0.011 0.001 -0.002 -0.001
C10 0.014 0.009 0.015 0.002 -0.007 0
O1 0.013 0.017 0.018 -0.001 0.0013 0.0028
O2 0.02 0.022 0.012 0.0045 -0.0032 0.0069
O5 0.021 0.016 0.018 0.0026 -0.0062 -0.0074
O13 0.027 0.017 0.024 -0.002 0.002 -0.007
O15 0.036 0.056 0.02 -0.004 -0.001 -0.021
O24 0.015 0.018 0.013 -0.0022 0.0062 -0.0025
Ce12 0.00733 0.00974 0.00984 0.0011 -0.00175 -0.00099
O40 0.018 0.031 0.017 0.003 -0.0017 -0.014
O42 0.014 0.013 0.028 0.0062 -0.0002 0.0001
O44 0.0092 0.015 0.011 0.0014 0.0063 -0.0036
O46 0.018 0.016 0.017 -0.0003 -0.0043 -0.0061
O10 0.015 0.018 0.013 -0.0022 0.0062 -0.0025
C21 0.016 0.009 0.016 -0.003 -0.009 0.005
C22 0.006 0.013 0.012 0.001 -0.003 0.001
C23 0.012 0.014 0.016 0.006 -0.004 -0.002
C24 0.008 0.011 0.011 0.001 -0.002 -0.001
C25 0.014 0.009 0.015 0.002 -0.007 0
O21 0.013 0.017 0.018 -0.001 0.0013 0.0028
O22 0.02 0.022 0.012 0.0045 -0.0032 0.0069
O23 0.021 0.016 0.018 0.0026 -0.0062 -0.0074
Ce8 0.00909 0.00904 0.01138 0.00048 -8e-05 -0.0017
C26 0.008 0.022 0.006 0.004 0 0.001
C27 0.008 0.016 0.015 0.002 -0.003 0
C28 0.01 0.009 0.018 0.002 -0.007 0.002
C29 0.013 0.014 0.014 0.004 -0.002 0.001
C30 0.014 0.015 0.019 -0.002 -0.009 0.002
O25 0.016 0.034 0.023 0.018 -0.004 -0.003
O26 0.011 0.03 0.025 0.007 -0.0075 -0.0056
O28 0.028 0.023 0.023 0.002 0.007 0.006
C1 0.012 0.014 0.006 0.003 -0.003 -0.002
C2 0.008 0.012 0.021 -0.002 -0.005 0
C3 0.014 0.009 0.019 0.003 -0.007 0.001
C4 0.009 0.014 0.014 -0.001 0.001 -0.002
C5 0.012 0.014 0.014 0 -0.009 -0.004
C11 0.008 0.022 0.006 0.004 0 0.001
C12 0.008 0.016 0.015 0.002 -0.003 0
C13 0.01 0.009 0.018 0.002 -0.007 0.002
C14 0.013 0.014 0.014 0.004 -0.002 0.001
C15 0.014 0.015 0.019 -0.002 -0.009 0.002
O3 0.016 0.034 0.023 0.018 -0.004 -0.003
O4 0.011 0.03 0.025 0.007 -0.0075 -0.0056
O6 0.018 0.031 0.017 0.003 -0.0017 -0.014
O7 0.012 0.015 0.015 0.0008 0.0013 0.0025
O8 0.014 0.013 0.028 0.0062 -0.0002 0.0001
O9 0.0092 0.015 0.011 0.0014 0.0063 -0.0036
O12 0.028 0.023 0.023 0.002 0.007 0.006
O14 0.033 0.035 0.023 0.002 -0.006 -0.016
O16 0.057 0.023 0.021 0.005 0.005 -0.008
C16 0.012 0.014 0.006 0.003 -0.003 -0.002
C17 0.008 0.012 0.021 -0.002 -0.005 0
C18 0.014 0.009 0.019 0.003 -0.007 0.001
C19 0.009 0.014 0.014 -0.001 0.001 -0.002
C20 0.012 0.014 0.014 0 -0.009 -0.004
O19 0.018 0.016 0.017 -0.0003 -0.0043 -0.0061
O20 0.012 0.015 0.015 0.0008 0.0013 0.0025
O30 0.033 0.035 0.023 0.002 -0.006 -0.016
O32 0.057 0.023 0.021 0.005 0.005 -0.008
O29 0.027 0.017 0.024 -0.002 0.002 -0.007
O31 0.036 0.056 0.02 -0.004 -0.001 -0.021
loop_
_geom_bond_atom_site_label_1
_geom_bond_atom_site_label_2
_geom_bond_site_symmetry_1
_geom_bond_site_symmetry_2
Ce1 O1 1_555 1_555
C6 C7 1_555 1_555
C7 C8 1_555 1_555
C8 H2 1_555 1_555
C9 C8 1_555 1_555
C10 C9 1_555 1_555
O1 C6 1_555 1_555
O5 C10 1_555 1_555
O15 Ce1 1_555 1_555
O24 Ce1 1_555 1_555
Ce12 O5 1_555 1_555
O42 Ce1 1_555 1_555
O44 Ce1 1_555 1_555
C6 O2 1_555 1_555
Ce15 O44 1_555 1_555
C21 C22 1_555 1_555
C23 C22 1_555 1_555
H5 C23 1_555 1_555
C25 C24 1_555 1_555
O21 C21 1_555 1_555
O22 C21 1_555 1_555
O23 C25 1_555 1_555
Ce8 O10 1_555 1_555
Ce15 O23 1_555 1_555
C23 C24 1_555 1_555
O21 Ce8 1_555 1_555
C26 C27 1_555 1_555
C29 C27 1_555 1_555
H6 C29 1_555 1_555
C30 C28 1_555 1_555
O25 C30 1_555 1_555
O26 C30 1_555 1_555
O40 C26 1_555 1_555
O28 C26 1_555 1_555
Ce12 O25 1_555 1_555
C28 C29 1_555 1_555
O26 Ce12 1_555 1_555
C1 C2 1_555 1_555
C2 C3 1_555 1_555
C3 H1 1_555 1_555
C4 C3 1_555 1_555
C5 C4 1_555 1_555
C11 C12 1_555 1_555
C12 C14 1_555 1_555
C13 C14 1_555 1_555
C14 H3 1_555 1_555
C15 C13 1_555 1_555
O3 C15 1_555 1_555
O4 C15 1_555 1_555
O6 C11 1_555 1_555
O7 C1 1_555 1_555
O8 C5 1_555 1_555
O9 Ce12 1_555 1_555
O46 C1 1_555 1_555
C16 C17 1_555 1_555
C17 C4 1_555 1_555
C18 C17 1_555 1_555
H4 C18 1_555 1_555
C19 C2 1_555 1_555
C20 C19 1_555 1_555
O42 C20 1_555 1_555
O44 C20 1_555 1_555
O19 C16 1_555 1_555
Ce15 O3 1_555 1_555
Ce8 O8 1_555 1_555
Ce12 O20 1_555 1_555
C5 O9 1_555 1_555
C11 O12 1_555 1_555
O4 Ce15 1_555 1_555
O7 Ce15 1_555 1_555
O9 Ce8 1_555 1_555
C16 O20 1_555 1_555
C18 C19 1_555 1_555
O31 Ce8 1_555 1_555
O29 H16 1_555 1_555
O13 H16_2 1_555 1_555

#END
