
###############################################################################
#
# This file contains modified crystal structure data generated from the
# MOF subset of the Cambridge Structural Database (CSD) v543 
# hosted by the Cambridge Crystallographic Data Centre (CCDC).
#
# This work is licensed under the Creative Commons
# Attribution-NonCommercial-ShareAlike 4.0 International License.
# To view a copy of this license, visit
# http://creativecommons.org/licenses/by-nc-sa/4.0/
# or send a letter to
# Creative Commons, PO Box 1866, Mountain View, CA 94042, USA.
#
# CIF created using the CSD Python API on 29 September 2022
# The structure has been converted into the P1 space group
# The structure has a 3D framework
# The original CSD entry SUKYON is in the tetragonal crystal system
# The framework has been calculated to contain at least 10.0% void space
# The void calculation uses a probe of radius 1.32A, grid spacing 0.4
# H atom positions have been added when not included in the experimental data
# Generated hydrogen atom positions removed from atoms on special positions
#
###############################################################################

data_SUKYON
_chemical_formula_moiety         '(C216 H160 Cu8 O34)n'
_symmetry_cell_setting           triclinic
_symmetry_space_group_name_H-M   'P 1'
_symmetry_Int_Tables_number      1
_space_group_name_Hall           'P 1'
loop_
_symmetry_equiv_pos_site_id
_symmetry_equiv_pos_as_xyz
1 x,y,z
_cell_length_a                   18.1427(6)
_cell_length_b                   18.1427(6)
_cell_length_c                   35.410(2)
_cell_angle_alpha                90
_cell_angle_beta                 90
_cell_angle_gamma                90
_cell_volume                     11655.5
loop_
_atom_site_label
_atom_site_type_symbol
_atom_site_fract_x
_atom_site_fract_y
_atom_site_fract_z
C1 C 0.1754(5) 0.5037(9) 0.4554(3)
C2 C 0.1525(7) 0.4361(7) 0.4696(4)
H1 H 0.1744 0.3923 0.4608
C3 C 0.0971(7) 0.4331(7) 0.4966(4)
H2 H 0.0816 0.3874 0.5062
C4 C 0.0647(5) 0.4978(9) 0.5096(3)
C5 C 0.0877(8) 0.5655(7) 0.4954(4)
H3 H 0.0657 0.6092 0.5041
C6 C 0.1430(8) 0.5684(7) 0.4683(4)
H4 H 0.1585 0.6142 0.4587
C7 C 0.4022(8) 0.4907(10) 0.3398(4)
C8 C 0.0072(9) 0.3210(6) 0.6192(3)
C11 C 0.0047(9) 0.4343(5) 0.5664(3)
C12 C 0.0675(6) 0.3912(8) 0.5705(3)
H7 H 0.1092 0.4004 0.5554
C13 C 0.0688(7) 0.3346(7) 0.5969(3)
H8 H 0.1113 0.3055 0.5997
O1 O 0.4222(7) 0.5526(6) 0.3246(3)
C14 C 0.3436(4) 0.4966(8) 0.3699(2)
C15 C 0.3246(6) 0.4326(6) 0.3892(3)
H9 H 0.3482 0.3879 0.3834
C16 C 0.2708(7) 0.4348(7) 0.4172(3)
H10 H 0.2580 0.3916 0.4302
C17 C 0.2360(4) 0.5010(9) 0.4258(2)
C18 C 0.2550(6) 0.5649(6) 0.4065(3)
H11 H 0.2315 0.6096 0.4123
C19 C 0.3088(7) 0.5627(6) 0.3786(3)
H12 H 0.3217 0.6060 0.3655
C20 C 0.0059(9) 0.1571(4) 0.7063(2)
C21 C 0.0725(7) 0.1797(7) 0.6908(3)
H13 H 0.1170 0.1599 0.6998
C22 C 0.0733(7) 0.2316(8) 0.6619(4)
H14 H 0.1184 0.2468 0.6514
C23 C 0.0075(9) 0.2609(5) 0.6486(2)
Cu1 Cu 0.49295(15) 0.57321(11) 0.28811(6)
O3 O 0.4303(7) 0.4252(6) 0.3334(3)
C26 C -0.0000 0.5000 0.5383(4)
O4 O 0.0616(8) 0.0647(8) 0.7484(3)
O5 O 0.4788(4) 0.6924(4) 0.28657(19)
C27 C 0.0018(11) 0.1026(8) 0.7375(4)
C36 C 0.0556(7) 0.6360(8) 0.6151(3)
H21 H 0.0973 0.6451 0.6301
C37 C 0.0569(7) 0.5793(7) 0.5886(3)
H22 H 0.0994 0.5502 0.5858
O7 O 0.5778(7) 0.4474(6) 0.3246(3)
O8 O 0.0624(7) 0.9145(6) 0.7516(3)
O9 O 0.4145(6) 0.5624(7) 0.2516(3)
O10 O 0.5855(6) 0.4376(7) 0.2516(3)
C51 C 0.0591(7) 0.7617(8) 0.6641(4)
H31 H 0.1036 0.7419 0.6551
C52 C 0.0599(7) 0.8136(7) 0.6930(4)
H32 H 0.1050 0.8288 0.7035
Cu4 Cu 0.50705(15) 0.42679(11) 0.28811(6)
Cu7 Cu 0.07321(11) 0.99295(15) 0.78811(6)
O12 O 0.5697(7) 0.5748(6) 0.3334(3)
O14 O 0.5647(8) 0.5616(8) 0.2484(3)
O15 O 0.4353(8) 0.4384(8) 0.2484(3)
O16 O 0.5212(4) 0.3076(4) 0.28657(19)
Cu8 Cu 0.92679(11) 0.00705(15) 0.78811(6)
C9 C 0.9444(7) 0.3640(8) 0.6151(3)
H5 H 0.9027 0.3549 0.6301
C10 C 0.9431(7) 0.4207(7) 0.5886(3)
H6 H 0.9006 0.4498 0.5858
O2 O 0.9376(7) 0.0855(6) 0.7516(3)
C24 C 0.9409(7) 0.2383(8) 0.6641(4)
H15 H 0.8964 0.2581 0.6551
C25 C 0.9401(7) 0.1864(7) 0.6930(4)
H16 H 0.8950 0.1712 0.7035
C26_2 C 1.0000 0.5000 0.5383(4)
C28 C 0.8246(5) 0.4963(9) 0.4554(3)
C29 C 0.8475(7) 0.5639(7) 0.4696(4)
H17 H 0.8256 0.6077 0.4608
C30 C 0.9029(7) 0.5669(7) 0.4966(4)
H18 H 0.9184 0.6126 0.5062
C31 C 0.9353(5) 0.5022(9) 0.5096(3)
C32 C 0.9123(8) 0.4345(7) 0.4954(4)
H19 H 0.9343 0.3908 0.5041
C33 C 0.8570(8) 0.4316(7) 0.4683(4)
H20 H 0.8415 0.3858 0.4587
C34 C 0.5978(8) 0.5093(10) 0.3398(4)
C35 C 0.9928(9) 0.6790(6) 0.6192(3)
C38 C 0.9953(9) 0.5657(5) 0.5664(3)
C39 C 0.9325(6) 0.6088(8) 0.5705(3)
H23 H 0.8908 0.5996 0.5554
C40 C 0.9312(7) 0.6654(7) 0.5969(3)
H24 H 0.8887 0.6945 0.5997
C41 C 0.6564(4) 0.5034(8) 0.3699(2)
C42 C 0.6754(6) 0.5674(6) 0.3892(3)
H25 H 0.6518 0.6121 0.3834
C43 C 0.7292(7) 0.5652(7) 0.4172(3)
H26 H 0.7420 0.6084 0.4302
C44 C 0.7640(4) 0.4990(9) 0.4258(2)
C45 C 0.7450(6) 0.4351(6) 0.4065(3)
H27 H 0.7685 0.3904 0.4123
C46 C 0.6912(7) 0.4373(6) 0.3786(3)
H28 H 0.6783 0.3940 0.3655
C47 C 0.9941(9) 0.8429(4) 0.7063(2)
C48 C 0.9275(7) 0.8203(7) 0.6908(3)
H29 H 0.8830 0.8401 0.6998
C49 C 0.9267(7) 0.7684(8) 0.6619(4)
H30 H 0.8816 0.7532 0.6514
C50 C 0.9925(9) 0.7391(5) 0.6486(2)
O13 O 0.9384(8) 0.9353(8) 0.7484(3)
C53 C 0.9982(11) 0.8974(8) 0.7375(4)
H2_2 H 0.1126 0.4184 0.0062
C4_2 C 0.0022(9) 0.4353(5) 0.0096(3)
C8_2 C 0.1790(6) 0.4928(9) 0.1192(3)
C9_2 C 0.1360(8) 0.5556(7) 0.1151(3)
H5_2 H 0.1451 0.5973 0.1301
C10_2 C 0.0793(7) 0.5569(7) 0.0886(3)
H6_2 H 0.0502 0.5994 0.0858
C11_2 C 0.0657(5) 0.4953(9) 0.0664(3)
C12_2 C 0.1088(8) 0.4325(6) 0.0705(3)
H7_2 H 0.0996 0.3908 0.0554
C13_2 C 0.1654(7) 0.4312(7) 0.0969(3)
H8_2 H 0.1945 0.3887 0.0997
C20_2 C 0.3429(4) 0.4941(9) 0.2063(2)
C21_2 C 0.3203(7) 0.4275(7) 0.1908(3)
H13_2 H 0.3401 0.3830 0.1998
C22_2 C 0.2684(8) 0.4267(7) 0.1619(4)
H14_2 H 0.2532 0.3816 0.1514
C23_2 C 0.2391(5) 0.4925(9) 0.1486(2)
C24_2 C 0.2617(8) 0.5591(7) 0.1641(4)
H15_2 H 0.2419 0.6036 0.1551
C25_2 C 0.3136(7) 0.5599(7) 0.1930(4)
H16_2 H 0.3288 0.6050 0.2035
C26_3 C -0.0000 0.5000 0.0383(4)
C27_2 C 0.3974(8) 0.4982(11) 0.2375(4)
H19_2 H 0.1092 0.5657 0.0041
C2_2 C 0.0639(7) 0.3475(7) 0.9696(4)
H1_2 H 0.1077 0.3256 0.9608
C3_2 C 0.0669(7) 0.4029(7) 0.9966(4)
C7_2 C 0.0093(10) 0.0978(8) 0.8398(4)
C14_2 C 0.0034(8) 0.1564(4) 0.8699(2)
C15_2 C 0.0674(6) 0.1754(6) 0.8892(3)
H9_2 H 0.1121 0.1518 0.8834
C16_2 C 0.0652(7) 0.2292(7) 0.9172(3)
H10_2 H 0.1084 0.2420 0.9302
O3_2 O 0.0748(6) 0.0697(7) 0.8334(3)
C28_2 C 0.0037(9) 0.6754(5) 0.9554(3)
C32_2 C 0.0655(7) 0.5877(8) 0.9954(4)
C33_2 C 0.0684(7) 0.6430(8) 0.9683(4)
H20_2 H 0.1142 0.6585 0.9587
O6 O 0.0526(6) 0.9222(7) 0.8246(3)
C44_2 C 0.0010(9) 0.7360(4) 0.9258(2)
C45_2 C 0.0649(6) 0.7550(6) 0.9065(3)
H27_2 H 0.1096 0.7315 0.9123
C46_2 C 0.0627(6) 0.8088(7) 0.8786(3)
H28_2 H 0.1060 0.8217 0.8655
H35 H 0.216242 0.0269957 0.781335
O16_2 O 0.1924(4) 0.9788(4) 0.78657(19)
H36 H 0.205558 0.94321 0.76636
H3_2 H 0.8908 0.4343 0.0041
C26_4 C 1.0000 0.5000 0.0383(4)
H18_2 H 0.8874 0.5816 0.0062
C31_2 C 0.9978(9) 0.5647(5) 0.0096(3)
C35_2 C 0.8210(6) 0.5072(9) 0.1192(3)
C36_2 C 0.8640(8) 0.4444(7) 0.1151(3)
H21_2 H 0.8549 0.4027 0.1301
C37_2 C 0.9207(7) 0.4431(7) 0.0886(3)
H22_2 H 0.9498 0.4006 0.0858
C38_2 C 0.9343(5) 0.5047(9) 0.0664(3)
C39_2 C 0.8912(8) 0.5675(6) 0.0705(3)
H23_2 H 0.9004 0.6092 0.0554
C40_2 C 0.8346(7) 0.5688(7) 0.0969(3)
H24_2 H 0.8055 0.6113 0.0997
C47_2 C 0.6571(4) 0.5059(9) 0.2063(2)
C48_2 C 0.6797(7) 0.5725(7) 0.1908(3)
H29_2 H 0.6599 0.6170 0.1998
C49_2 C 0.7316(8) 0.5733(7) 0.1619(4)
H30_2 H 0.7468 0.6184 0.1514
C50_2 C 0.7609(5) 0.5075(9) 0.1486(2)
C51_2 C 0.7383(8) 0.4409(7) 0.1641(4)
H31_2 H 0.7581 0.3964 0.1551
C52_2 C 0.6864(7) 0.4401(7) 0.1930(4)
H32_2 H 0.6712 0.3950 0.2035
C53_2 C 0.6026(8) 0.5018(11) 0.2375(4)
C1_2 C 0.9963(9) 0.3246(5) 0.9554(3)
C5_2 C 0.9345(7) 0.4123(8) 0.9954(4)
C6_2 C 0.9316(7) 0.3570(8) 0.9683(4)
H4_2 H 0.8858 0.3415 0.9587
O1_2 O 0.9474(6) 0.0778(7) 0.8246(3)
C17_2 C 0.9990(9) 0.2640(4) 0.9258(2)
C18_2 C 0.9351(6) 0.2450(6) 0.9065(3)
H11_2 H 0.8904 0.2685 0.9123
C19_2 C 0.9373(6) 0.1912(7) 0.8786(3)
H12_2 H 0.8940 0.1783 0.8655
O5_2 O 0.8076(4) 0.0212(4) 0.78657(19)
C29_2 C 0.9361(7) 0.6525(7) 0.9696(4)
H17_2 H 0.8923 0.6744 0.9608
C30_2 C 0.9331(7) 0.5971(7) 0.9966(4)
C34_2 C 0.9907(10) 0.9022(8) 0.8398(4)
C41_2 C 0.9966(8) 0.8436(4) 0.8699(2)
C42_2 C 0.9326(6) 0.8246(6) 0.8892(3)
H25_2 H 0.8879 0.8482 0.8834
C43_2 C 0.9348(7) 0.7708(7) 0.9172(3)
H26_2 H 0.8916 0.7580 0.9302
O11 O 0.9252(6) 0.9303(7) 0.8334(3)
H33 H 0.786744 0.0108542 0.81195
H34 H 0.786029 0.98656 0.767881
H34_2 H 0.213971 0.0134398 0.767881
H33_2 H 0.213256 0.989146 0.81195
H36_2 H 0.794442 0.0567903 0.76636
H35_2 H 0.783758 0.973004 0.781335
Cu8_2 Cu 0.00705(15) 0.07321(11) 0.21189(6)
C9_3 C 0.3640(8) 0.0556(7) 0.3849(3)
H5_3 H 0.3549 0.0973 0.3699
C10_3 C 0.4207(7) 0.0569(7) 0.4114(3)
H6_3 H 0.4498 0.0994 0.4142
O2_2 O 0.0855(6) 0.0624(7) 0.2484(3)
C24_3 C 0.2383(8) 0.0591(7) 0.3359(4)
H15_3 H 0.2581 0.1036 0.3449
C25_3 C 0.1864(7) 0.0599(7) 0.3070(4)
H16_3 H 0.1712 0.1050 0.2965
C26_5 C 0.5000 0.0000 0.4617(4)
C28_3 C 0.4963(9) 0.1754(5) 0.5446(3)
C29_3 C 0.5639(7) 0.1525(7) 0.5304(4)
H17_3 H 0.6077 0.1744 0.5392
C30_3 C 0.5669(7) 0.0971(7) 0.5034(4)
H18_3 H 0.6126 0.0816 0.4938
C31_3 C 0.5022(9) 0.0647(5) 0.4904(3)
C32_3 C 0.4345(7) 0.0877(8) 0.5046(4)
H19_3 H 0.3908 0.0657 0.4959
C33_3 C 0.4316(7) 0.1430(8) 0.5317(4)
H20_3 H 0.3858 0.1585 0.5413
C34_3 C 0.5093(10) 0.4022(8) 0.6602(4)
C35_3 C 0.6790(6) 0.0072(9) 0.3808(3)
C38_3 C 0.5657(5) 0.0047(9) 0.4336(3)
C39_3 C 0.6088(8) 0.0675(6) 0.4295(3)
H23_3 H 0.5996 0.1092 0.4446
C40_3 C 0.6654(7) 0.0688(7) 0.4031(3)
H24_3 H 0.6945 0.1113 0.4003
O6_2 O 0.4474(6) 0.4222(7) 0.6754(3)
C41_3 C 0.5034(8) 0.3436(4) 0.6301(2)
C42_3 C 0.5674(6) 0.3246(6) 0.6108(3)
H25_3 H 0.6121 0.3482 0.6166
C43_3 C 0.5652(7) 0.2708(7) 0.5828(3)
H26_3 H 0.6084 0.2580 0.5698
C44_3 C 0.4990(9) 0.2360(4) 0.5742(2)
C45_3 C 0.4351(6) 0.2550(6) 0.5935(3)
H27_3 H 0.3904 0.2315 0.5877
C46_3 C 0.4373(6) 0.3088(7) 0.6214(3)
H28_3 H 0.3940 0.3217 0.6345
C47_3 C 0.8429(4) 0.0059(9) 0.2937(2)
C48_3 C 0.8203(7) 0.0725(7) 0.3092(3)
H29_3 H 0.8401 0.1170 0.3002
C49_3 C 0.7684(8) 0.0733(7) 0.3381(4)
H30_3 H 0.7532 0.1184 0.3486
C50_3 C 0.7391(5) 0.0075(9) 0.3514(2)
Cu2 Cu 0.42679(11) 0.49295(15) 0.71189(6)
Cu6 Cu 0.57321(11) 0.50705(15) 0.71189(6)
O11_2 O 0.5748(6) 0.4303(7) 0.6666(3)
O13_2 O 0.9353(8) 0.0616(8) 0.2516(3)
C53_3 C 0.8974(8) 0.0018(11) 0.2625(4)
C1_3 C 0.5037(9) 0.8246(5) 0.5446(3)
C2_3 C 0.4361(7) 0.8475(7) 0.5304(4)
H1_3 H 0.3923 0.8256 0.5392
C3_3 C 0.4331(7) 0.9029(7) 0.5034(4)
H2_3 H 0.3874 0.9184 0.4938
C4_3 C 0.4978(9) 0.9353(5) 0.4904(3)
C5_3 C 0.5655(7) 0.9123(8) 0.5046(4)
H3_3 H 0.6092 0.9343 0.4959
C6_3 C 0.5684(7) 0.8570(8) 0.5317(4)
H4_3 H 0.6142 0.8415 0.5413
C7_3 C 0.4907(10) 0.5978(8) 0.6602(4)
C8_3 C 0.3210(6) 0.9928(9) 0.3808(3)
C11_3 C 0.4343(5) 0.9953(9) 0.4336(3)
C12_3 C 0.3912(8) 0.9325(6) 0.4295(3)
H7_3 H 0.4004 0.8908 0.4446
C13_3 C 0.3346(7) 0.9312(7) 0.4031(3)
H8_3 H 0.3055 0.8887 0.4003
O1_3 O 0.5526(6) 0.5778(7) 0.6754(3)
C14_3 C 0.4966(8) 0.6564(4) 0.6301(2)
C15_3 C 0.4326(6) 0.6754(6) 0.6108(3)
H9_3 H 0.3879 0.6518 0.6166
C16_3 C 0.4348(7) 0.7292(7) 0.5828(3)
H10_3 H 0.3916 0.7420 0.5698
C17_3 C 0.5010(9) 0.7640(4) 0.5742(2)
C18_3 C 0.5649(6) 0.7450(6) 0.5935(3)
H11_3 H 0.6096 0.7685 0.5877
C19_3 C 0.5627(6) 0.6912(7) 0.6214(3)
H12_3 H 0.6060 0.6783 0.6345
C20_3 C 0.1571(4) 0.9941(9) 0.2937(2)
C21_3 C 0.1797(7) 0.9275(7) 0.3092(3)
H13_3 H 0.1599 0.8830 0.3002
C22_3 C 0.2316(8) 0.9267(7) 0.3381(4)
H14_3 H 0.2468 0.8816 0.3486
C23_3 C 0.2609(5) 0.9925(9) 0.3514(2)
O3_3 O 0.4252(6) 0.5697(7) 0.6666(3)
C26_6 C 0.5000 1.0000 0.4617(4)
O4_2 O 0.0647(8) 0.9384(8) 0.2516(3)
O5_3 O 0.6924(4) 0.5212(4) 0.71343(19)
C27_3 C 0.1026(8) 0.9982(11) 0.2625(4)
C36_3 C 0.6360(8) 0.9444(7) 0.3849(3)
H21_3 H 0.6451 0.9027 0.3699
C37_3 C 0.5793(7) 0.9431(7) 0.4114(3)
H22_3 H 0.5502 0.9006 0.4142
O8_2 O 0.9145(6) 0.9376(7) 0.2484(3)
O9_2 O 0.5624(7) 0.5855(6) 0.7484(3)
O10_2 O 0.4376(7) 0.4145(6) 0.7484(3)
C51_3 C 0.7617(8) 0.9409(7) 0.3359(4)
H31_3 H 0.7419 0.8964 0.3449
C52_3 C 0.8136(7) 0.9401(7) 0.3070(4)
H32_3 H 0.8288 0.8950 0.2965
Cu7_2 Cu 0.99295(15) 0.92679(11) 0.21189(6)
O14_2 O 0.5616(8) 0.4353(8) 0.7516(3)
O15_2 O 0.4384(8) 0.5647(8) 0.7516(3)
O16_3 O 0.3076(4) 0.4788(4) 0.71343(19)
C1_4 C 0.3246(5) 0.0037(9) 0.0446(3)
C5_4 C 0.4123(8) 0.0655(7) 0.0046(4)
C6_4 C 0.3570(8) 0.0684(7) 0.0317(4)
H4_4 H 0.3415 0.1142 0.0413
O1_4 O 0.0778(7) 0.0526(6) 0.1754(3)
C17_4 C 0.2640(4) 0.0010(9) 0.0742(2)
C18_4 C 0.2450(6) 0.0649(6) 0.0935(3)
H11_4 H 0.2685 0.1096 0.0877
C19_4 C 0.1912(7) 0.0627(6) 0.1214(3)
H12_4 H 0.1783 0.1060 0.1345
O5_4 O 0.0212(4) 0.1924(4) 0.21343(19)
C29_4 C 0.6525(7) 0.0639(7) 0.0304(4)
H17_4 H 0.6744 0.1077 0.0392
C30_4 C 0.5971(7) 0.0669(7) 0.0034(4)
C34_4 C 0.9022(8) 0.0093(10) 0.1602(4)
C41_4 C 0.8436(4) 0.0034(8) 0.1301(2)
C42_4 C 0.8246(6) 0.0674(6) 0.1108(3)
H25_4 H 0.8482 0.1121 0.1166
C43_4 C 0.7708(7) 0.0652(7) 0.0828(3)
H26_4 H 0.7580 0.1084 0.0698
O11_3 O 0.9303(7) 0.0748(6) 0.1666(3)
H33_3 H 0.0108542 0.213256 0.18805
H3_4 H 0.4343 0.1092 0.9959
C26_7 C 0.5000 -0.0000 0.9617(4)
H18_4 H 0.5816 0.1126 0.9938
C31_4 C 0.5647(5) 0.0022(9) 0.9904(3)
C35_4 C 0.5072(9) 0.1790(6) 0.8808(3)
C36_4 C 0.4444(7) 0.1360(8) 0.8849(3)
H21_4 H 0.4027 0.1451 0.8699
C37_4 C 0.4431(7) 0.0793(7) 0.9114(3)
H22_4 H 0.4006 0.0502 0.9142
C38_4 C 0.5047(9) 0.0657(5) 0.9336(3)
C39_4 C 0.5675(6) 0.1088(8) 0.9295(3)
H23_4 H 0.6092 0.0996 0.9446
C40_4 C 0.5688(7) 0.1654(7) 0.9031(3)
H24_4 H 0.6113 0.1945 0.9003
C47_4 C 0.5059(9) 0.3429(4) 0.7937(2)
C48_4 C 0.5725(7) 0.3203(7) 0.8092(3)
H29_4 H 0.6170 0.3401 0.8002
C49_4 C 0.5733(7) 0.2684(8) 0.8381(4)
H30_4 H 0.6184 0.2532 0.8486
C50_4 C 0.5075(9) 0.2391(5) 0.8514(2)
C51_4 C 0.4409(7) 0.2617(8) 0.8359(4)
H31_4 H 0.3964 0.2419 0.8449
C52_4 C 0.4401(7) 0.3136(7) 0.8070(4)
H32_4 H 0.3950 0.3288 0.7965
C53_4 C 0.5018(11) 0.3974(8) 0.7625(4)
C2_4 C 0.3475(7) 0.9361(7) 0.0304(4)
H1_4 H 0.3256 0.8923 0.0392
C3_4 C 0.4029(7) 0.9331(7) 0.0034(4)
C7_4 C 0.0978(8) 0.9907(10) 0.1602(4)
C14_4 C 0.1564(4) 0.9966(8) 0.1301(2)
C15_4 C 0.1754(6) 0.9326(6) 0.1108(3)
H9_4 H 0.1518 0.8879 0.1166
C16_4 C 0.2292(7) 0.9348(7) 0.0828(3)
H10_4 H 0.2420 0.8916 0.0698
O3_4 O 0.0697(7) 0.9252(6) 0.1666(3)
C28_4 C 0.6754(5) 0.9963(9) 0.0446(3)
C32_4 C 0.5877(8) 0.9345(7) 0.0046(4)
C33_4 C 0.6430(8) 0.9316(7) 0.0317(4)
H20_4 H 0.6585 0.8858 0.0413
O6_3 O 0.9222(7) 0.9474(6) 0.1754(3)
C44_4 C 0.7360(4) 0.9990(9) 0.0742(2)
C45_4 C 0.7550(6) 0.9351(6) 0.0935(3)
H27_4 H 0.7315 0.8904 0.0877
C46_4 C 0.8088(7) 0.9373(6) 0.1214(3)
H28_4 H 0.8217 0.8940 0.1345
H35_3 H 0.0269957 0.783758 0.218665
H2_4 H 0.4184 0.8874 0.9938
C4_4 C 0.4353(5) 0.9978(9) 0.9904(3)
C8_4 C 0.4928(9) 0.8210(6) 0.8808(3)
C9_4 C 0.5556(7) 0.8640(8) 0.8849(3)
H5_4 H 0.5973 0.8549 0.8699
C10_4 C 0.5569(7) 0.9207(7) 0.9114(3)
H6_4 H 0.5994 0.9498 0.9142
C11_4 C 0.4953(9) 0.9343(5) 0.9336(3)
C12_4 C 0.4325(6) 0.8912(8) 0.9295(3)
H7_4 H 0.3908 0.9004 0.9446
C13_4 C 0.4312(7) 0.8346(7) 0.9031(3)
H8_4 H 0.3887 0.8055 0.9003
C20_4 C 0.4941(9) 0.6571(4) 0.7937(2)
C21_4 C 0.4275(7) 0.6797(7) 0.8092(3)
H13_4 H 0.3830 0.6599 0.8002
C22_4 C 0.4267(7) 0.7316(8) 0.8381(4)
H14_4 H 0.3816 0.7468 0.8486
C23_4 C 0.4925(9) 0.7609(5) 0.8514(2)
C24_4 C 0.5591(7) 0.7383(8) 0.8359(4)
H15_4 H 0.6036 0.7581 0.8449
C25_4 C 0.5599(7) 0.6864(7) 0.8070(4)
H16_4 H 0.6050 0.6712 0.7965
C26_8 C 0.5000 1.0000 0.9617(4)
C27_4 C 0.4982(11) 0.6026(8) 0.7625(4)
H19_4 H 0.5657 0.8908 0.9959
H34_3 H 0.98656 0.213971 0.232119
O16_4 O 0.9788(4) 0.8076(4) 0.21343(19)
H36_3 H 0.94321 0.794442 0.23364
H36_4 H 0.0567903 0.205558 0.23364
H34_4 H 0.0134398 0.786029 0.232119
H35_4 H 0.973004 0.216242 0.218665
H33_4 H 0.989146 0.786744 0.18805
loop_
_geom_bond_atom_site_label_1
_geom_bond_atom_site_label_2
_geom_bond_site_symmetry_1
_geom_bond_site_symmetry_2
C1 C2 1_555 1_555
C2 H1 1_555 1_555
C3 C2 1_555 1_555
H2 C3 1_555 1_555
C4 C3 1_555 1_555
C5 C4 1_555 1_555
H3 C5 1_555 1_555
C6 C1 1_555 1_555
H4 C6 1_555 1_555
C7 O1 1_555 1_555
C12 C11 1_555 1_555
H7 C12 1_555 1_555
C13 C8 1_555 1_555
H8 C13 1_555 1_555
O1 Cu1 1_555 1_555
C14 C7 1_555 1_555
C15 C14 1_555 1_555
H9 C15 1_555 1_555
C16 C15 1_555 1_555
H10 C16 1_555 1_555
C17 C1 1_555 1_555
C18 C17 1_555 1_555
H11 C18 1_555 1_555
C19 C14 1_555 1_555
H12 C19 1_555 1_555
C20 C21 1_555 1_555
C21 H13 1_555 1_555
C22 C21 1_555 1_555
H14 C22 1_555 1_555
C23 C8 1_555 1_555
Cu1 O5 1_555 1_555
O3 C7 1_555 1_555
C26 C4 1_555 1_555
O4 C27 1_555 1_555
C27 C20 1_555 1_555
C36 H21 1_555 1_555
C37 C36 1_555 1_555
H22 C37 1_555 1_555
O7 Cu4 1_555 1_555
O8 Cu7 1_555 1_555
O9 Cu1 1_555 1_555
O10 Cu4 1_555 1_555
H31 C51 1_555 1_555
H32 C52 1_555 1_555
Cu4 O3 1_555 1_555
O12 Cu1 1_555 1_555
O14 Cu1 1_555 1_555
O15 Cu4 1_555 1_555
O16 Cu4 1_555 1_555
C5 C6 1_555 1_555
C11 C26 1_555 1_555
C12 C13 1_555 1_555
C16 C17 1_555 1_555
C18 C19 1_555 1_555
C22 C23 1_555 1_555
C51 C52 1_555 1_555
C9 H5 1_555 1_555
C10 C9 1_555 1_555
H6 C10 1_555 1_555
H15 C24 1_555 1_555
H16 C25 1_555 1_555
C28 C29 1_555 1_555
C29 H17 1_555 1_555
C30 C29 1_555 1_555
H18 C30 1_555 1_555
C31 C26_2 1_555 1_555
C32 C31 1_555 1_555
H19 C32 1_555 1_555
C33 C28 1_555 1_555
H20 C33 1_555 1_555
C34 O7 1_555 1_555
C38 C26_2 1_555 1_555
C39 C38 1_555 1_555
H23 C39 1_555 1_555
C40 C35 1_555 1_555
H24 C40 1_555 1_555
C41 C34 1_555 1_555
C42 C41 1_555 1_555
H25 C42 1_555 1_555
C43 C42 1_555 1_555
H26 C43 1_555 1_555
C44 C28 1_555 1_555
C45 C44 1_555 1_555
H27 C45 1_555 1_555
C46 C41 1_555 1_555
H28 C46 1_555 1_555
C47 C48 1_555 1_555
C48 H29 1_555 1_555
C49 C48 1_555 1_555
H30 C49 1_555 1_555
C50 C35 1_555 1_555
Cu8 O2 1_555 1_555
O12 C34 1_555 1_555
O13 C53 1_555 1_555
C24 C25 1_555 1_555
C30 C31 1_555 1_555
C32 C33 1_555 1_555
C39 C40 1_555 1_555
C43 C44 1_555 1_555
C45 C46 1_555 1_555
C47 C53 1_555 1_555
C49 C50 1_555 1_555
C8_2 C9_2 1_555 1_555
C9_2 H5_2 1_555 1_555
C10_2 C9_2 1_555 1_555
H6_2 C10_2 1_555 1_555
C11_2 C10_2 1_555 1_555
C12_2 C11_2 1_555 1_555
H7_2 C12_2 1_555 1_555
C13_2 C8_2 1_555 1_555
H8_2 C13_2 1_555 1_555
O9 C27_2 1_555 1_555
C20_2 C21_2 1_555 1_555
C21_2 H13_2 1_555 1_555
C22_2 C21_2 1_555 1_555
H14_2 C22_2 1_555 1_555
C23_2 C8_2 1_555 1_555
C24_2 C23_2 1_555 1_555
H15_2 C24_2 1_555 1_555
C25_2 C20_2 1_555 1_555
H16_2 C25_2 1_555 1_555
C26_3 C4_2 1_555 1_555
O15 C27_2 1_555 1_555
C27_2 C20_2 1_555 1_555
C11_2 C26_3 1_555 1_555
C12_2 C13_2 1_555 1_555
C22_2 C23_2 1_555 1_555
C24_2 C25_2 1_555 1_555
C2_2 H1_2 1_555 1_555
C3_2 C2_2 1_555 1_555
C14_2 C7_2 1_555 1_555
C15_2 C14_2 1_555 1_555
H9_2 C15_2 1_555 1_555
C16_2 C15_2 1_555 1_555
H10_2 C16_2 1_555 1_555
O3_2 C7_2 1_555 1_555
C33_2 C28_2 1_555 1_555
H20_2 C33_2 1_555 1_555
O6 Cu7 1_555 1_555
C44_2 C28_2 1_555 1_555
C45_2 C44_2 1_555 1_555
H27_2 C45_2 1_555 1_555
H28_2 C46_2 1_555 1_555
C32_2 C33_2 1_555 1_555
C45_2 C46_2 1_555 1_555
O16_2 Cu7 1_555 1_555
O16_2 H36 1_555 1_555
C31_2 C26_4 1_555 1_555
C35_2 C36_2 1_555 1_555
C36_2 H21_2 1_555 1_555
C37_2 C36_2 1_555 1_555
H22_2 C37_2 1_555 1_555
C38_2 C26_4 1_555 1_555
C39_2 C38_2 1_555 1_555
H23_2 C39_2 1_555 1_555
C40_2 C35_2 1_555 1_555
H24_2 C40_2 1_555 1_555
C47_2 C48_2 1_555 1_555
C48_2 H29_2 1_555 1_555
C49_2 C48_2 1_555 1_555
H30_2 C49_2 1_555 1_555
C50_2 C35_2 1_555 1_555
C51_2 C50_2 1_555 1_555
H31_2 C51_2 1_555 1_555
C52_2 C47_2 1_555 1_555
H32_2 C52_2 1_555 1_555
O14 C53_2 1_555 1_555
C53_2 O10 1_555 1_555
C37_2 C38_2 1_555 1_555
C39_2 C40_2 1_555 1_555
C47_2 C53_2 1_555 1_555
C49_2 C50_2 1_555 1_555
C51_2 C52_2 1_555 1_555
C6_2 C1_2 1_555 1_555
H4_2 C6_2 1_555 1_555
O1_2 Cu8 1_555 1_555
C17_2 C1_2 1_555 1_555
C18_2 C17_2 1_555 1_555
H11_2 C18_2 1_555 1_555
H12_2 C19_2 1_555 1_555
Cu8 O5_2 1_555 1_555
C29_2 H17_2 1_555 1_555
C30_2 C29_2 1_555 1_555
C41_2 C34_2 1_555 1_555
C42_2 C41_2 1_555 1_555
H25_2 C42_2 1_555 1_555
C43_2 C42_2 1_555 1_555
H26_2 C43_2 1_555 1_555
O11 C34_2 1_555 1_555
C5_2 C6_2 1_555 1_555
C18_2 C19_2 1_555 1_555
O5_2 H33 1_555 1_555
O16_2 H33_2 1_555 1_555
O5_2 H36_2 1_555 1_555
C9_3 H5_3 1_555 1_555
C10_3 C9_3 1_555 1_555
H6_3 C10_3 1_555 1_555
H15_3 C24_3 1_555 1_555
H16_3 C25_3 1_555 1_555
C28_3 C29_3 1_555 1_555
C29_3 H17_3 1_555 1_555
C30_3 C29_3 1_555 1_555
H18_3 C30_3 1_555 1_555
C31_3 C26_5 1_555 1_555
C32_3 C31_3 1_555 1_555
H19_3 C32_3 1_555 1_555
C33_3 C28_3 1_555 1_555
H20_3 C33_3 1_555 1_555
C34_3 O6_2 1_555 1_555
C38_3 C26_5 1_555 1_555
C39_3 C38_3 1_555 1_555
H23_3 C39_3 1_555 1_555
C40_3 C35_3 1_555 1_555
H24_3 C40_3 1_555 1_555
O6_2 Cu2 1_555 1_555
C41_3 C34_3 1_555 1_555
C42_3 C41_3 1_555 1_555
H25_3 C42_3 1_555 1_555
C43_3 C42_3 1_555 1_555
H26_3 C43_3 1_555 1_555
C44_3 C28_3 1_555 1_555
C45_3 C44_3 1_555 1_555
H27_3 C45_3 1_555 1_555
C46_3 C41_3 1_555 1_555
H28_3 C46_3 1_555 1_555
C47_3 C48_3 1_555 1_555
C48_3 H29_3 1_555 1_555
C49_3 C48_3 1_555 1_555
H30_3 C49_3 1_555 1_555
C50_3 C35_3 1_555 1_555
Cu8_2 O2_2 1_555 1_555
Cu6 O11_2 1_555 1_555
O11_2 C34_3 1_555 1_555
O13_2 C53_3 1_555 1_555
C24_3 C25_3 1_555 1_555
C30_3 C31_3 1_555 1_555
C32_3 C33_3 1_555 1_555
C39_3 C40_3 1_555 1_555
C43_3 C44_3 1_555 1_555
C45_3 C46_3 1_555 1_555
C47_3 C53_3 1_555 1_555
C49_3 C50_3 1_555 1_555
C1_3 C2_3 1_555 1_555
C2_3 H1_3 1_555 1_555
C3_3 C2_3 1_555 1_555
H2_3 C3_3 1_555 1_555
C4_3 C3_3 1_555 1_555
C5_3 C4_3 1_555 1_555
H3_3 C5_3 1_555 1_555
C6_3 C1_3 1_555 1_555
H4_3 C6_3 1_555 1_555
C7_3 O1_3 1_555 1_555
C12_3 C11_3 1_555 1_555
H7_3 C12_3 1_555 1_555
C13_3 C8_3 1_555 1_555
H8_3 C13_3 1_555 1_555
O1_3 Cu6 1_555 1_555
C14_3 C7_3 1_555 1_555
C15_3 C14_3 1_555 1_555
H9_3 C15_3 1_555 1_555
C16_3 C15_3 1_555 1_555
H10_3 C16_3 1_555 1_555
C17_3 C1_3 1_555 1_555
C18_3 C17_3 1_555 1_555
H11_3 C18_3 1_555 1_555
C19_3 C14_3 1_555 1_555
H12_3 C19_3 1_555 1_555
C20_3 C21_3 1_555 1_555
C21_3 H13_3 1_555 1_555
C22_3 C21_3 1_555 1_555
H14_3 C22_3 1_555 1_555
C23_3 C8_3 1_555 1_555
Cu6 O5_3 1_555 1_555
O3_3 C7_3 1_555 1_555
C26_6 C4_3 1_555 1_555
O4_2 C27_3 1_555 1_555
C27_3 C20_3 1_555 1_555
C36_3 H21_3 1_555 1_555
C37_3 C36_3 1_555 1_555
H22_3 C37_3 1_555 1_555
O8_2 Cu7_2 1_555 1_555
O9_2 Cu6 1_555 1_555
O10_2 Cu2 1_555 1_555
H31_3 C51_3 1_555 1_555
H32_3 C52_3 1_555 1_555
Cu2 O3_3 1_555 1_555
O14_2 Cu6 1_555 1_555
O15_2 Cu2 1_555 1_555
O16_3 Cu2 1_555 1_555
C5_3 C6_3 1_555 1_555
C11_3 C26_6 1_555 1_555
C12_3 C13_3 1_555 1_555
C16_3 C17_3 1_555 1_555
C18_3 C19_3 1_555 1_555
C22_3 C23_3 1_555 1_555
C51_3 C52_3 1_555 1_555
C6_4 C1_4 1_555 1_555
H4_4 C6_4 1_555 1_555
O1_4 Cu8_2 1_555 1_555
C17_4 C1_4 1_555 1_555
C18_4 C17_4 1_555 1_555
H11_4 C18_4 1_555 1_555
H12_4 C19_4 1_555 1_555
Cu8_2 O5_4 1_555 1_555
C29_4 H17_4 1_555 1_555
C30_4 C29_4 1_555 1_555
C41_4 C34_4 1_555 1_555
C42_4 C41_4 1_555 1_555
H25_4 C42_4 1_555 1_555
C43_4 C42_4 1_555 1_555
H26_4 C43_4 1_555 1_555
O11_3 C34_4 1_555 1_555
C5_4 C6_4 1_555 1_555
C18_4 C19_4 1_555 1_555
O5_4 H33_3 1_555 1_555
C31_4 C26_7 1_555 1_555
C35_4 C36_4 1_555 1_555
C36_4 H21_4 1_555 1_555
C37_4 C36_4 1_555 1_555
H22_4 C37_4 1_555 1_555
C38_4 C26_7 1_555 1_555
C39_4 C38_4 1_555 1_555
H23_4 C39_4 1_555 1_555
C40_4 C35_4 1_555 1_555
H24_4 C40_4 1_555 1_555
C47_4 C48_4 1_555 1_555
C48_4 H29_4 1_555 1_555
C49_4 C48_4 1_555 1_555
H30_4 C49_4 1_555 1_555
C50_4 C35_4 1_555 1_555
C51_4 C50_4 1_555 1_555
H31_4 C51_4 1_555 1_555
C52_4 C47_4 1_555 1_555
H32_4 C52_4 1_555 1_555
O14_2 C53_4 1_555 1_555
C53_4 O10_2 1_555 1_555
C37_4 C38_4 1_555 1_555
C39_4 C40_4 1_555 1_555
C47_4 C53_4 1_555 1_555
C49_4 C50_4 1_555 1_555
C51_4 C52_4 1_555 1_555
C2_4 H1_4 1_555 1_555
C3_4 C2_4 1_555 1_555
C14_4 C7_4 1_555 1_555
C15_4 C14_4 1_555 1_555
H9_4 C15_4 1_555 1_555
C16_4 C15_4 1_555 1_555
H10_4 C16_4 1_555 1_555
O3_4 C7_4 1_555 1_555
C33_4 C28_4 1_555 1_555
H20_4 C33_4 1_555 1_555
O6_3 Cu7_2 1_555 1_555
C44_4 C28_4 1_555 1_555
C45_4 C44_4 1_555 1_555
H27_4 C45_4 1_555 1_555
H28_4 C46_4 1_555 1_555
C32_4 C33_4 1_555 1_555
C45_4 C46_4 1_555 1_555
C8_4 C9_4 1_555 1_555
C9_4 H5_4 1_555 1_555
C10_4 C9_4 1_555 1_555
H6_4 C10_4 1_555 1_555
C11_4 C10_4 1_555 1_555
C12_4 C11_4 1_555 1_555
H7_4 C12_4 1_555 1_555
C13_4 C8_4 1_555 1_555
H8_4 C13_4 1_555 1_555
O9_2 C27_4 1_555 1_555
C20_4 C21_4 1_555 1_555
C21_4 H13_4 1_555 1_555
C22_4 C21_4 1_555 1_555
H14_4 C22_4 1_555 1_555
C23_4 C8_4 1_555 1_555
C24_4 C23_4 1_555 1_555
H15_4 C24_4 1_555 1_555
C25_4 C20_4 1_555 1_555
H16_4 C25_4 1_555 1_555
C26_8 C4_4 1_555 1_555
O15_2 C27_4 1_555 1_555
C27_4 C20_4 1_555 1_555
C11_4 C26_8 1_555 1_555
C12_4 C13_4 1_555 1_555
C22_4 C23_4 1_555 1_555
C24_4 C25_4 1_555 1_555
O16_4 Cu7_2 1_555 1_555
O16_4 H36_3 1_555 1_555
O5_4 H36_4 1_555 1_555
O16_4 H33_4 1_555 1_555

#END
