
###############################################################################
#
# This file contains modified crystal structure data generated from the
# MOF subset of the Cambridge Structural Database (CSD) v543 
# hosted by the Cambridge Crystallographic Data Centre (CCDC).
#
# This work is licensed under the Creative Commons
# Attribution-NonCommercial-ShareAlike 4.0 International License.
# To view a copy of this license, visit
# http://creativecommons.org/licenses/by-nc-sa/4.0/
# or send a letter to
# Creative Commons, PO Box 1866, Mountain View, CA 94042, USA.
#
# CIF created using the CSD Python API on 29 September 2022
# The structure has been converted into the P1 space group
# The structure has a 3D framework
# The original CSD entry SUKYIH is in the tetragonal crystal system
# The framework has been calculated to contain at least 10.0% void space
# The void calculation uses a probe of radius 1.32A, grid spacing 0.4
# H atom positions have been added when not included in the experimental data
# Generated hydrogen atom positions removed from atoms on special positions
#
###############################################################################

data_SUKYIH
_chemical_formula_moiety         '(C58 H80 Cu12 O28)n'
_symmetry_cell_setting           triclinic
_symmetry_space_group_name_H-M   'P 1'
_symmetry_Int_Tables_number      1
_space_group_name_Hall           'P 1'
loop_
_symmetry_equiv_pos_site_id
_symmetry_equiv_pos_as_xyz
1 x,y,z
_cell_length_a                   12.2480(9)
_cell_length_b                   12.2480(9)
_cell_length_c                   22.8767(17)
_cell_angle_alpha                90
_cell_angle_beta                 90
_cell_angle_gamma                90
_cell_volume                     3431.81
loop_
_atom_site_label
_atom_site_type_symbol
_atom_site_fract_x
_atom_site_fract_y
_atom_site_fract_z
Cu2 Cu 0.0000 0.60771(10) 0.0000
Cu3 Cu 0.0000 0.39229(10) 0.0000
Cu2_2 Cu 0.0000 0.60771(10) 1.0000
Cu3_2 Cu 0.0000 0.39229(10) 1.0000
Cu6 Cu 0.60771(10) 0.0000 0.5000
Cu7 Cu 0.39229(10) 0.0000 0.5000
C1 C 0.4004(5) 0.5000 0.2072(3)
O1 O 0.1131(3) 0.4075(3) 0.05953(15)
C2 C 0.5000 0.5000 0.2500
C3 C 0.1449(6) 0.5000 0.0764(3)
C4 C 0.3608(4) 0.4039(4) 0.18525(19)
H1 H 0.3889 0.3380 0.1987
C5 C 0.2800(4) 0.4038(4) 0.1436(2)
H2 H 0.2535 0.3377 0.1296
C6 C 0.2375(5) 0.5000 0.1223(2)
O2 O 0.0000 0.2174(7) 0.0000
Cu2_3 Cu 1.0000 0.60771(10) 0.0000
Cu3_3 Cu 1.0000 0.39229(10) 0.0000
Cu6_2 Cu 0.60771(10) 1.0000 0.5000
Cu7_2 Cu 0.39229(10) 1.0000 0.5000
C7 C 0.5996(5) 0.5000 0.2072(3)
C8 C 0.5000 0.4004(5) 0.2928(3)
C9 C 0.5000 0.5996(5) 0.2928(3)
O3 O 0.8869(3) 0.5925(3) 0.05953(15)
O4 O 0.8869(3) 0.4075(3) 0.05953(15)
O5 O 0.4075(3) 0.1131(3) 0.44047(15)
O6 O 0.5925(3) 0.1131(3) 0.44047(15)
O7 O 0.5925(3) 0.8869(3) 0.44047(15)
O8 O 0.4075(3) 0.8869(3) 0.44047(15)
O9 O 0.1131(3) 0.5925(3) 0.05953(15)
C10 C 0.8551(6) 0.5000 0.0764(3)
C11 C 0.5000 0.1449(6) 0.4236(3)
C12 C 0.5000 0.8551(6) 0.4236(3)
C13 C 0.6392(4) 0.5961(4) 0.18525(19)
C14 C 0.6392(4) 0.4039(4) 0.18525(19)
C15 C 0.4039(4) 0.3608(4) 0.31475(19)
C16 C 0.5961(4) 0.3608(4) 0.31475(19)
C17 C 0.5961(4) 0.6392(4) 0.31475(19)
C18 C 0.4039(4) 0.6392(4) 0.31475(19)
C19 C 0.3608(4) 0.5961(4) 0.18525(19)
H3 H 0.6111 0.6620 0.1987
H4 H 0.6111 0.3380 0.1987
H5 H 0.3380 0.3889 0.3013
H6 H 0.6620 0.3889 0.3013
H7 H 0.6620 0.6111 0.3013
H8 H 0.3380 0.6111 0.3013
H9 H 0.3889 0.6620 0.1987
C20 C 0.7200(4) 0.5962(4) 0.1436(2)
C21 C 0.7200(4) 0.4038(4) 0.1436(2)
C22 C 0.4038(4) 0.2800(4) 0.3564(2)
C23 C 0.5962(4) 0.2800(4) 0.3564(2)
C24 C 0.5962(4) 0.7200(4) 0.3564(2)
C25 C 0.4038(4) 0.7200(4) 0.3564(2)
C26 C 0.2800(4) 0.5962(4) 0.1436(2)
H10 H 0.7465 0.6623 0.1296
H11 H 0.7465 0.3377 0.1296
H12 H 0.3377 0.2535 0.3704
H13 H 0.6623 0.2535 0.3704
H14 H 0.6623 0.7465 0.3704
H15 H 0.3377 0.7465 0.3704
H16 H 0.2535 0.6623 0.1296
C27 C 0.7625(5) 0.5000 0.1223(2)
C28 C 0.5000 0.2375(5) 0.3777(2)
C29 C 0.5000 0.7625(5) 0.3777(2)
O16 O 0.0000 0.7826(7) 0.0000
O2_2 O 0.0000 0.2174(7) 1.0000
Cu2_4 Cu 1.0000 0.60771(10) 1.0000
Cu3_4 Cu 1.0000 0.39229(10) 1.0000
O11 O 0.1131(3) 0.4075(3) 0.94047(15)
O14 O 0.1131(3) 0.5925(3) 0.94047(15)
O16_2 O 0.0000 0.7826(7) 1.0000
O2_3 O 1.0000 0.2174(7) 0.0000
O16_3 O 1.0000 0.7826(7) 0.0000
O2_4 O 1.0000 0.2174(7) 1.0000
O10 O 0.8869(3) 0.4075(3) 0.94047(15)
O15 O 0.8869(3) 0.5925(3) 0.94047(15)
O16_4 O 1.0000 0.7826(7) 1.0000
C1_2 C 0.5000 0.4004(5) 0.7072(3)
O1_2 O 0.5925(3) 0.1131(3) 0.55953(15)
C2_2 C 0.5000 0.5000 0.7500
C3_2 C 0.5000 0.1449(6) 0.5764(3)
C4_2 C 0.5961(4) 0.3608(4) 0.68525(19)
H1_2 H 0.6620 0.3889 0.6987
C5_2 C 0.5962(4) 0.2800(4) 0.6436(2)
H2_2 H 0.6623 0.2535 0.6296
C6_2 C 0.5000 0.2375(5) 0.6223(2)
O2_5 O 0.7826(7) 0.0000 0.5000
C7_2 C 0.5000 0.5996(5) 0.7072(3)
C8_2 C 0.5996(5) 0.5000 0.7928(3)
C9_2 C 0.4004(5) 0.5000 0.7928(3)
O3_2 O 0.4075(3) 0.8869(3) 0.55953(15)
O4_2 O 0.5925(3) 0.8869(3) 0.55953(15)
O9_2 O 0.4075(3) 0.1131(3) 0.55953(15)
C10_2 C 0.5000 0.8551(6) 0.5764(3)
C11_2 C 0.8551(6) 0.5000 0.9236(3)
C12_2 C 0.1449(6) 0.5000 0.9236(3)
C13_2 C 0.4039(4) 0.6392(4) 0.68525(19)
C14_2 C 0.5961(4) 0.6392(4) 0.68525(19)
C15_2 C 0.6392(4) 0.4039(4) 0.81475(19)
C16_2 C 0.6392(4) 0.5961(4) 0.81475(19)
C17_2 C 0.3608(4) 0.5961(4) 0.81475(19)
C18_2 C 0.3608(4) 0.4039(4) 0.81475(19)
C19_2 C 0.4039(4) 0.3608(4) 0.68525(19)
H3_2 H 0.3380 0.6111 0.6987
H4_2 H 0.6620 0.6111 0.6987
H5_2 H 0.6111 0.3380 0.8013
H6_2 H 0.6111 0.6620 0.8013
H7_2 H 0.3889 0.6620 0.8013
H8_2 H 0.3889 0.3380 0.8013
H9_2 H 0.3380 0.3889 0.6987
C20_2 C 0.4038(4) 0.7200(4) 0.6436(2)
C21_2 C 0.5962(4) 0.7200(4) 0.6436(2)
C22_2 C 0.7200(4) 0.4038(4) 0.8564(2)
C23_2 C 0.7200(4) 0.5962(4) 0.8564(2)
C24_2 C 0.2800(4) 0.5962(4) 0.8564(2)
C25_2 C 0.2800(4) 0.4038(4) 0.8564(2)
C26_2 C 0.4038(4) 0.2800(4) 0.6436(2)
H10_2 H 0.3377 0.7465 0.6296
H11_2 H 0.6623 0.7465 0.6296
H12_2 H 0.7465 0.3377 0.8704
H13_2 H 0.7465 0.6623 0.8704
H14_2 H 0.2535 0.6623 0.8704
H15_2 H 0.2535 0.3377 0.8704
H16_2 H 0.3377 0.2535 0.6296
C27_2 C 0.5000 0.7625(5) 0.6223(2)
C28_2 C 0.7625(5) 0.5000 0.8777(2)
C29_2 C 0.2375(5) 0.5000 0.8777(2)
O16_5 O 0.2174(7) 0.0000 0.5000
O2_6 O 0.7826(7) 1.0000 0.5000
O16_6 O 0.2174(7) 1.0000 0.5000
loop_
_geom_bond_atom_site_label_1
_geom_bond_atom_site_label_2
_geom_bond_site_symmetry_1
_geom_bond_site_symmetry_2
Cu3 O1 1_555 1_555
C1 C2 1_555 1_555
O1 C3 1_555 1_555
C2 C7 1_555 1_555
C3 C6 1_555 1_555
C4 C1 1_555 1_555
H1 C4 1_555 1_555
C5 C4 1_555 1_555
H2 C5 1_555 1_555
C6 C5 1_555 1_555
O2 Cu3 1_555 1_555
Cu2_3 O3 1_555 1_555
Cu3_3 O4 1_555 1_555
Cu7 O5 1_555 1_555
Cu6 O6 1_555 1_555
Cu6_2 O7 1_555 1_555
Cu7_2 O8 1_555 1_555
Cu2 O9 1_555 1_555
C7 C13 1_555 1_555
C8 C2 1_555 1_555
C9 C2 1_555 1_555
O3 C10 1_555 1_555
O4 C10 1_555 1_555
O5 C11 1_555 1_555
O6 C11 1_555 1_555
O7 C12 1_555 1_555
O8 C12 1_555 1_555
O9 C3 1_555 1_555
C10 C27 1_555 1_555
C11 C28 1_555 1_555
C12 C29 1_555 1_555
C13 H3 1_555 1_555
C14 C7 1_555 1_555
C15 C8 1_555 1_555
C16 C8 1_555 1_555
C17 C9 1_555 1_555
C18 C9 1_555 1_555
C19 C1 1_555 1_555
H4 C14 1_555 1_555
H5 C15 1_555 1_555
H6 C16 1_555 1_555
H7 C17 1_555 1_555
H8 C18 1_555 1_555
H9 C19 1_555 1_555
C20 C13 1_555 1_555
C21 C14 1_555 1_555
C22 C15 1_555 1_555
C23 C16 1_555 1_555
C24 C17 1_555 1_555
C25 C18 1_555 1_555
C26 C6 1_555 1_555
H10 C20 1_555 1_555
H11 C21 1_555 1_555
H12 C22 1_555 1_555
H13 C23 1_555 1_555
H14 C24 1_555 1_555
H15 C25 1_555 1_555
H16 C26 1_555 1_555
C27 C20 1_555 1_555
C28 C22 1_555 1_555
C29 C24 1_555 1_555
O16 Cu2 1_555 1_555
C19 C26 1_555 1_555
C21 C27 1_555 1_555
C23 C28 1_555 1_555
C25 C29 1_555 1_555
O2_2 Cu3_2 1_555 1_555
O11 Cu3_2 1_555 1_555
O14 Cu2_2 1_555 1_555
O16_2 Cu2_2 1_555 1_555
O2_3 Cu3_3 1_555 1_555
O16_3 Cu2_3 1_555 1_555
O2_4 Cu3_4 1_555 1_555
O10 Cu3_4 1_555 1_555
O15 Cu2_4 1_555 1_555
O16_4 Cu2_4 1_555 1_555
Cu6 O1_2 1_555 1_555
C1_2 C2_2 1_555 1_555
O1_2 C3_2 1_555 1_555
C2_2 C7_2 1_555 1_555
C3_2 C6_2 1_555 1_555
C4_2 C1_2 1_555 1_555
H1_2 C4_2 1_555 1_555
C5_2 C4_2 1_555 1_555
H2_2 C5_2 1_555 1_555
C6_2 C5_2 1_555 1_555
O2_5 Cu6 1_555 1_555
Cu7_2 O3_2 1_555 1_555
Cu6_2 O4_2 1_555 1_555
Cu7 O9_2 1_555 1_555
C7_2 C13_2 1_555 1_555
C8_2 C2_2 1_555 1_555
C9_2 C2_2 1_555 1_555
O3_2 C10_2 1_555 1_555
O4_2 C10_2 1_555 1_555
O10 C11_2 1_555 1_555
O15 C11_2 1_555 1_555
O14 C12_2 1_555 1_555
O11 C12_2 1_555 1_555
O9_2 C3_2 1_555 1_555
C10_2 C27_2 1_555 1_555
C11_2 C28_2 1_555 1_555
C12_2 C29_2 1_555 1_555
C13_2 H3_2 1_555 1_555
C14_2 C7_2 1_555 1_555
C15_2 C8_2 1_555 1_555
C16_2 C8_2 1_555 1_555
C17_2 C9_2 1_555 1_555
C18_2 C9_2 1_555 1_555
C19_2 C1_2 1_555 1_555
H4_2 C14_2 1_555 1_555
H5_2 C15_2 1_555 1_555
H6_2 C16_2 1_555 1_555
H7_2 C17_2 1_555 1_555
H8_2 C18_2 1_555 1_555
H9_2 C19_2 1_555 1_555
C20_2 C13_2 1_555 1_555
C21_2 C14_2 1_555 1_555
C22_2 C15_2 1_555 1_555
C23_2 C16_2 1_555 1_555
C24_2 C17_2 1_555 1_555
C25_2 C18_2 1_555 1_555
C26_2 C6_2 1_555 1_555
H10_2 C20_2 1_555 1_555
H11_2 C21_2 1_555 1_555
H12_2 C22_2 1_555 1_555
H13_2 C23_2 1_555 1_555
H14_2 C24_2 1_555 1_555
H15_2 C25_2 1_555 1_555
H16_2 C26_2 1_555 1_555
C27_2 C20_2 1_555 1_555
C28_2 C22_2 1_555 1_555
C29_2 C24_2 1_555 1_555
O16_5 Cu7 1_555 1_555
C19_2 C26_2 1_555 1_555
C21_2 C27_2 1_555 1_555
C23_2 C28_2 1_555 1_555
C25_2 C29_2 1_555 1_555
O2_6 Cu6_2 1_555 1_555
O16_6 Cu7_2 1_555 1_555

#END
