
###############################################################################
#
# This file contains modified crystal structure data generated from the
# MOF subset of the Cambridge Structural Database (CSD) v543 
# hosted by the Cambridge Crystallographic Data Centre (CCDC).
#
# This work is licensed under the Creative Commons
# Attribution-NonCommercial-ShareAlike 4.0 International License.
# To view a copy of this license, visit
# http://creativecommons.org/licenses/by-nc-sa/4.0/
# or send a letter to
# Creative Commons, PO Box 1866, Mountain View, CA 94042, USA.
#
# CIF created using the CSD Python API on 29 September 2022
# The structure has been converted into the P1 space group
# The structure has a 3D framework
# The original CSD entry SUMROK is in the monoclinic crystal system
# The framework has been calculated to contain at least 10.0% void space
# The void calculation uses a probe of radius 1.32A, grid spacing 0.4
#
###############################################################################

data_SUMROK
_chemical_formula_moiety         '(C296 H184 Ag20 N16 O44)n'
_symmetry_cell_setting           triclinic
_symmetry_space_group_name_H-M   'P 1'
_symmetry_Int_Tables_number      1
_space_group_name_Hall           'P 1'
loop_
_symmetry_equiv_pos_site_id
_symmetry_equiv_pos_as_xyz
1 x,y,z
_cell_length_a                   33.950(7)
_cell_length_b                   6.0020(12)
_cell_length_c                   39.546(18)
_cell_angle_alpha                90
_cell_angle_beta                 105.22(3)
_cell_angle_gamma                90
_cell_volume                     7775.56
loop_
_atom_site_label
_atom_site_type_symbol
_atom_site_fract_x
_atom_site_fract_y
_atom_site_fract_z
Ag2 Ag 0.28968(2) 0.29632(5) 0.22665(2)
O3 O 0.24034(7) 0.0428(4) 0.22247(8)
Ag7 Ag 0.21032(2) 0.20368(5) 0.27335(2)
O8 O 0.25966(7) 0.4572(4) 0.27753(8)
O9 O 0.38054(8) 0.1073(4) 0.23006(9)
O11 O 0.35135(8) 0.4391(4) 0.22954(9)
N3 N 0.2879(2) 0.2852(11) 0.15810(17)
Ag3 Ag 0.33290(2) 0.87366(6) 0.23312(2)
O4 O 0.27128(8) 0.7423(4) 0.20852(8)
C1 C 0.03989(11) 0.0940(6) 0.14106(10)
C3 C 0.07706(11) 0.2055(6) 0.14952(10)
H2 H 0.097132 0.163585 0.138674
C5 C 0.08496(10) 0.3773(5) 0.17371(9)
C7 C 0.05489(10) 0.4354(5) 0.19022(10)
H4 H 0.060501 0.544611 0.207508
C9 C 0.01666(10) 0.3342(5) 0.18151(9)
C11 C 0.00997(11) 0.1610(6) 0.15695(10)
H10 H 0.068428 0.016449 0.085369
C24 C 0.12482(10) 0.4994(5) 0.18239(9)
C25 C 0.12769(10) 0.7145(6) 0.19553(10)
H16 H 0.104391 0.783848 0.198625
C26 C 0.16454(11) 0.8292(6) 0.20419(10)
H17 H 0.165603 0.973470 0.212943
C27 C 0.19981(10) 0.7292(6) 0.19983(10)
C28 C 0.19697(11) 0.5159(6) 0.18539(10)
H18 H 0.220025 0.448606 0.181432
C29 C 0.16014(11) 0.4040(6) 0.17694(11)
H19 H 0.158841 0.261790 0.167387
C30 C 0.24005(11) 0.8473(6) 0.21077(10)
H20 H 0.007108 0.715433 0.212547
Ag1 Ag 0.03114(2) 0.08114(7) 0.98467(2)
N1 N 0.08286(18) 0.1362(9) 0.95430(15)
N2 N 0.2121(2) 0.2852(11) 0.84190(17)
C4 C 0.1113(2) 0.0052(12) 0.90896(18)
C6 C 0.1334(2) 0.1975(11) 0.90940(17)
C8 C 0.1278(3) 0.3655(12) 0.9319(2)
H5 H 0.140423 0.503262 0.932141
C10 C 0.1031(3) 0.3227(12) 0.9541(2)
H6 H 0.100715 0.433396 0.969934
C12 C 0.1904(3) 0.4506(14) 0.8497(2)
H8 H 0.192908 0.590896 0.840543
C14 C 0.1645(3) 0.4260(12) 0.8706(2)
H9 H 0.149315 0.547551 0.874543
C16 C 0.1605(2) 0.2279(11) 0.88559(18)
C18 C 0.1831(3) 0.0531(13) 0.8774(2)
C20 C 0.2075(3) 0.0962(14) 0.8558(2)
Ag5 Ag 0.21032(2) 0.29632(5) 0.77335(2)
Ag9 Ag 0.83290(2) 0.12634(6) 0.23312(2)
O5 O 0.88054(8) 0.8927(4) 0.23006(9)
O6 O 0.85135(8) 0.5609(4) 0.22954(9)
H7 H 0.984832 0.088966 0.151151
C31 C 0.98329(10) 0.4151(5) 0.19616(9)
C32 C 0.98413(11) 0.6268(6) 0.21050(11)
C33 C 0.95178(11) 0.7095(6) 0.22181(10)
H21 H 0.953488 0.851163 0.231618
C34 C 0.91705(10) 0.5841(6) 0.21867(10)
C35 C 0.91600(12) 0.3700(6) 0.20587(13)
H22 H 0.893449 0.280173 0.205068
C36 C 0.94846(12) 0.2864(6) 0.19409(12)
H23 H 0.946860 0.143430 0.184772
C37 C 0.88025(11) 0.6858(6) 0.22720(10)
Ag6 Ag 0.78968(2) 0.70368(5) 0.22665(2)
Ag4 Ag 0.96886(2) 0.91886(7) 0.01533(2)
O3_2 O 0.25966(7) 0.0428(4) 0.77753(8)
Ag7_2 Ag 0.28968(2) 0.20368(5) 0.72665(2)
Ag9_2 Ag 0.66710(2) 0.12634(6) 0.76688(2)
O8_2 O 0.24034(7) 0.4572(4) 0.72247(8)
O9_2 O 0.11946(8) 0.1073(4) 0.76994(9)
O11_2 O 0.14865(8) 0.4391(4) 0.77046(9)
Ag3_2 Ag 0.16710(2) 0.87366(6) 0.76688(2)
O4_2 O 0.22872(8) 0.7423(4) 0.79148(8)
O5_2 O 0.61946(8) 0.8927(4) 0.76994(9)
O6_2 O 0.64865(8) 0.5609(4) 0.77046(9)
C1_2 C 0.46011(11) 0.0940(6) 0.85894(10)
C3_2 C 0.42294(11) 0.2055(6) 0.85048(10)
H2_2 H 0.402868 0.163585 0.861326
C5_2 C 0.41504(10) 0.3773(5) 0.82629(9)
C7_2 C 0.44511(10) 0.4354(5) 0.80978(10)
H4_2 H 0.439499 0.544611 0.792492
C9_2 C 0.48334(10) 0.3342(5) 0.81849(9)
C11_2 C 0.49003(11) 0.1610(6) 0.84305(10)
H7_2 H 0.515168 0.088966 0.848849
H10_2 H 0.431572 0.016449 0.914631
C24_2 C 0.37518(10) 0.4994(5) 0.81761(9)
C25_2 C 0.37231(10) 0.7145(6) 0.80447(10)
H16_2 H 0.395609 0.783848 0.801375
C26_2 C 0.33546(11) 0.8292(6) 0.79581(10)
H17_2 H 0.334397 0.973470 0.787057
C27_2 C 0.30019(10) 0.7292(6) 0.80017(10)
C28_2 C 0.30303(11) 0.5159(6) 0.81461(10)
H18_2 H 0.279975 0.448606 0.818568
C29_2 C 0.33986(11) 0.4040(6) 0.82306(11)
H19_2 H 0.341159 0.261790 0.832613
C30_2 C 0.25995(11) 0.8473(6) 0.78923(10)
C31_2 C 0.51671(10) 0.4151(5) 0.80384(9)
C32_2 C 0.51587(11) 0.6268(6) 0.78950(11)
H20_2 H 0.492892 0.715433 0.787453
C33_2 C 0.54822(11) 0.7095(6) 0.77819(10)
H21_2 H 0.546512 0.851163 0.768382
C34_2 C 0.58295(10) 0.5841(6) 0.78133(10)
C35_2 C 0.58400(12) 0.3700(6) 0.79413(13)
H22_2 H 0.606551 0.280173 0.794932
C36_2 C 0.55154(12) 0.2864(6) 0.80591(12)
H23_2 H 0.553140 0.143430 0.815228
C37_2 C 0.61975(11) 0.6858(6) 0.77280(10)
Ag6_2 Ag 0.71032(2) 0.70368(5) 0.77335(2)
Ag1_2 Ag 0.46886(2) 0.08114(7) 0.01533(2)
N1_2 N 0.41714(18) 0.1362(9) 0.04570(15)
C4_2 C 0.3887(2) 0.0052(12) 0.09104(18)
C6_2 C 0.3666(2) 0.1975(11) 0.09060(17)
C8_2 C 0.3722(3) 0.3655(12) 0.0681(2)
H5_2 H 0.359577 0.503262 0.067859
C10_2 C 0.3969(3) 0.3227(12) 0.0459(2)
H6_2 H 0.399285 0.433396 0.030066
C12_2 C 0.3096(3) 0.4506(14) 0.1503(2)
H8_2 H 0.307092 0.590896 0.159457
C14_2 C 0.3355(3) 0.4260(12) 0.1294(2)
H9_2 H 0.350685 0.547551 0.125457
C16_2 C 0.3395(2) 0.2279(11) 0.11441(18)
C18_2 C 0.3169(3) 0.0531(13) 0.1226(2)
C20_2 C 0.2925(3) 0.0962(14) 0.1442(2)
Ag4_2 Ag 0.53114(2) 0.91886(7) 0.98467(2)
Ag2_2 Ag 0.78968(2) 0.79632(5) 0.72665(2)
Ag3_3 Ag 0.83290(2) 0.37366(6) 0.73312(2)
O3_3 O 0.74034(7) 0.5428(4) 0.72247(8)
O4_3 O 0.77128(8) 0.2423(4) 0.70852(8)
O5_3 O 0.38054(8) 0.3927(4) 0.73006(9)
O6_3 O 0.35135(8) 0.0609(4) 0.72954(9)
H4_3 H 0.560501 0.044611 0.707508
C25_3 C 0.62769(10) 0.2145(6) 0.69553(10)
H16_3 H 0.604391 0.283848 0.698625
C26_3 C 0.66454(11) 0.3292(6) 0.70419(10)
H17_3 H 0.665603 0.473470 0.712943
C27_3 C 0.69981(10) 0.2292(6) 0.69983(10)
C28_3 C 0.69697(11) 0.0159(6) 0.68539(10)
C30_3 C 0.74005(11) 0.3473(6) 0.71077(10)
C32_3 C 0.48413(11) 0.1268(6) 0.71050(11)
H20_3 H 0.507108 0.215433 0.712547
C33_3 C 0.45178(11) 0.2095(6) 0.72181(10)
H21_3 H 0.453488 0.351163 0.731618
C34_3 C 0.41705(10) 0.0841(6) 0.71867(10)
C37_3 C 0.38025(11) 0.1858(6) 0.72720(10)
Ag9_3 Ag 0.33290(2) 0.62634(6) 0.73312(2)
O8_3 O 0.75966(7) 0.9572(4) 0.77753(8)
O9_3 O 0.88054(8) 0.6073(4) 0.73006(9)
O11_3 O 0.85135(8) 0.9391(4) 0.72954(9)
N3_2 N 0.7879(2) 0.7852(11) 0.65810(17)
C1_3 C 0.53989(11) 0.5940(6) 0.64106(10)
C3_3 C 0.57706(11) 0.7055(6) 0.64952(10)
H2_3 H 0.597132 0.663585 0.638674
C5_3 C 0.58496(10) 0.8773(5) 0.67371(9)
C7_3 C 0.55489(10) 0.9354(5) 0.69022(10)
H5_3 H 0.640423 0.003262 0.432141
C9_3 C 0.51666(10) 0.8342(5) 0.68151(9)
C11_3 C 0.50997(11) 0.6610(6) 0.65695(10)
H7_3 H 0.484832 0.588966 0.651151
H8_3 H 0.692908 0.090896 0.340543
C13 C 0.53220(11) 0.4092(6) 0.61502(10)
H9_3 H 0.649315 0.047551 0.374543
C15 C 0.55093(16) 0.4020(8) 0.58786(13)
H10_3 H 0.568428 0.516449 0.585369
C17 C 0.54388(17) 0.2265(8) 0.56441(13)
H11 H 0.557481 0.221903 0.546845
C19 C 0.51732(14) 0.0597(7) 0.56658(11)
C21 C 0.49757(14) 0.0677(7) 0.59266(11)
C22 C 0.50488(13) 0.2399(6) 0.61654(11)
H15 H 0.491204 0.242673 0.634067
C24_3 C 0.62482(10) 0.9994(5) 0.68239(9)
H18_3 H 0.720025 0.948606 0.681432
C29_3 C 0.66014(11) 0.9040(6) 0.67694(11)
H19_3 H 0.658841 0.761790 0.667387
C31_3 C 0.48329(10) 0.9151(5) 0.69616(9)
C35_3 C 0.41600(12) 0.8700(6) 0.70587(13)
H22_3 H 0.393449 0.780173 0.705068
C36_3 C 0.44846(12) 0.7864(6) 0.69409(12)
H23_3 H 0.446860 0.643430 0.684772
Ag1_3 Ag 0.53114(2) 0.58114(7) 0.48467(2)
O1 O 0.53693(12) 0.8315(6) 0.52528(9)
O2 O 0.47847(12) 0.7549(6) 0.53823(9)
N1_3 N 0.58286(18) 0.6362(9) 0.45430(15)
N2_2 N 0.7121(2) 0.7852(11) 0.34190(17)
C2 C 0.5876(2) 0.4795(11) 0.43189(19)
H1 H 0.574077 0.344716 0.431787
C4_3 C 0.6113(2) 0.5052(12) 0.40896(18)
H3 H 0.612502 0.392478 0.393121
C6_3 C 0.6334(2) 0.6975(11) 0.40940(17)
C8_3 C 0.6278(3) 0.8655(12) 0.4319(2)
C10_3 C 0.6031(3) 0.8227(12) 0.4541(2)
H6_3 H 0.600715 0.933396 0.469934
C12_3 C 0.6904(3) 0.9506(14) 0.3497(2)
C14_3 C 0.6645(3) 0.9260(12) 0.3706(2)
C16_3 C 0.6605(2) 0.7279(11) 0.38559(18)
C18_3 C 0.6831(3) 0.5531(13) 0.3774(2)
H12 H 0.681564 0.410963 0.386287
C20_3 C 0.7075(3) 0.5962(14) 0.3558(2)
H13 H 0.722441 0.477021 0.350642
H14 H 0.479122 0.956157 0.594251
C23 C 0.51027(15) 0.8644(7) 0.54115(12)
Ag4_3 Ag 0.46886(2) 0.41886(7) 0.51533(2)
Ag5_2 Ag 0.71032(2) 0.79632(5) 0.27335(2)
O7 O 0.52153(12) 0.2451(6) 0.46177(9)
O5_4 O 0.11946(8) 0.3927(4) 0.26994(9)
O6_4 O 0.14865(8) 0.0609(4) 0.27046(9)
C32_4 C 0.01587(11) 0.1268(6) 0.28950(11)
C33_4 C 0.04822(11) 0.2095(6) 0.27819(10)
H21_4 H 0.046512 0.351163 0.268382
C34_4 C 0.08295(10) 0.0841(6) 0.28133(10)
C37_4 C 0.11975(11) 0.1858(6) 0.27280(10)
Ag9_4 Ag 0.16710(2) 0.62634(6) 0.26688(2)
H7_4 H 0.015168 0.588966 0.348849
C21_2 C 0.00243(14) 0.0677(7) 0.40734(11)
H15_2 H 0.008796 0.242673 0.365933
C31_4 C 0.01671(10) 0.9151(5) 0.30384(9)
C35_4 C 0.08400(12) 0.8700(6) 0.29413(13)
H22_4 H 0.106551 0.780173 0.294932
C36_4 C 0.05154(12) 0.7864(6) 0.30591(12)
H23_4 H 0.053140 0.643430 0.315228
O2_2 O 0.02153(12) 0.7549(6) 0.46177(9)
H14_2 H 0.020878 0.956157 0.405749
Ag4_4 Ag 0.03114(2) 0.41886(7) 0.48467(2)
Ag3_4 Ag 0.66710(2) 0.37366(6) 0.26688(2)
O3_4 O 0.75966(7) 0.5428(4) 0.27753(8)
O4_4 O 0.72872(8) 0.2423(4) 0.29148(8)
H4_4 H 0.939499 0.044611 0.292492
C25_4 C 0.87231(10) 0.2145(6) 0.30447(10)
H16_4 H 0.895609 0.283848 0.301375
C26_4 C 0.83546(11) 0.3292(6) 0.29581(10)
H17_4 H 0.834397 0.473470 0.287057
C27_4 C 0.80019(10) 0.2292(6) 0.30017(10)
C28_4 C 0.80303(11) 0.0159(6) 0.31461(10)
C30_4 C 0.75995(11) 0.3473(6) 0.28923(10)
H20_4 H 0.992892 0.215433 0.287453
O8_4 O 0.74034(7) 0.9572(4) 0.22247(8)
O9_4 O 0.61946(8) 0.6073(4) 0.26994(9)
O11_4 O 0.64865(8) 0.9391(4) 0.27046(9)
C1_4 C 0.96011(11) 0.5940(6) 0.35894(10)
C3_4 C 0.92294(11) 0.7055(6) 0.35048(10)
H2_4 H 0.902868 0.663585 0.361326
C5_4 C 0.91504(10) 0.8773(5) 0.32629(9)
C7_4 C 0.94511(10) 0.9354(5) 0.30978(10)
H5_4 H 0.859577 0.003262 0.567859
C9_4 C 0.98334(10) 0.8342(5) 0.31849(9)
C11_4 C 0.99003(11) 0.6610(6) 0.34305(10)
H8_4 H 0.807092 0.090896 0.659457
C13_2 C 0.96780(11) 0.4092(6) 0.38498(10)
H9_4 H 0.850685 0.047551 0.625457
C15_2 C 0.94907(16) 0.4020(8) 0.41214(13)
H10_4 H 0.931572 0.516449 0.414631
C17_2 C 0.95612(17) 0.2265(8) 0.43559(13)
H11_2 H 0.942519 0.221903 0.453155
C19_2 C 0.98268(14) 0.0597(7) 0.43342(11)
C22_2 C 0.99512(13) 0.2399(6) 0.38346(11)
C24_4 C 0.87518(10) 0.9994(5) 0.31761(9)
H18_4 H 0.779975 0.948606 0.318568
C29_4 C 0.83986(11) 0.9040(6) 0.32306(11)
H19_4 H 0.841159 0.761790 0.332613
Ag1_4 Ag 0.96886(2) 0.58114(7) 0.51533(2)
O1_2 O 0.96307(12) 0.8315(6) 0.47472(9)
N1_4 N 0.91714(18) 0.6362(9) 0.54570(15)
C2_2 C 0.9124(2) 0.4795(11) 0.56811(19)
H1_2 H 0.925923 0.344716 0.568213
C4_4 C 0.8887(2) 0.5052(12) 0.59104(18)
H3_2 H 0.887498 0.392478 0.606879
C6_4 C 0.8666(2) 0.6975(11) 0.59060(17)
C8_4 C 0.8722(3) 0.8655(12) 0.5681(2)
C10_4 C 0.8969(3) 0.8227(12) 0.5459(2)
H6_4 H 0.899285 0.933396 0.530066
C12_4 C 0.8096(3) 0.9506(14) 0.6503(2)
C14_4 C 0.8355(3) 0.9260(12) 0.6294(2)
C16_4 C 0.8395(2) 0.7279(11) 0.61441(18)
C18_4 C 0.8169(3) 0.5531(13) 0.6226(2)
H12_2 H 0.818436 0.410963 0.613713
C20_4 C 0.7925(3) 0.5962(14) 0.6442(2)
H13_2 H 0.777559 0.477021 0.649358
C23_2 C 0.98973(15) 0.8644(7) 0.45885(12)
O7_2 O 0.97847(12) 0.2451(6) 0.53823(9)
H7_5 H 0.015168 0.911034 0.848849
C31_5 C 0.01671(10) 0.5849(5) 0.80384(9)
C32_5 C 0.01587(11) 0.3732(6) 0.78950(11)
C33_5 C 0.04822(11) 0.2905(6) 0.77819(10)
H21_5 H 0.046512 0.148837 0.768382
C34_5 C 0.08295(10) 0.4159(6) 0.78133(10)
C35_5 C 0.08400(12) 0.6300(6) 0.79413(13)
H22_5 H 0.106551 0.719827 0.794932
C36_5 C 0.05154(12) 0.7136(6) 0.80591(12)
H23_5 H 0.053140 0.856570 0.815228
C37_5 C 0.11975(11) 0.3142(6) 0.77280(10)
N1_5 N 0.91714(18) 0.8638(9) 0.04570(15)
N2_3 N 0.7879(2) 0.7148(11) 0.15810(17)
C4_5 C 0.8887(2) 0.9948(12) 0.09104(18)
C6_5 C 0.8666(2) 0.8025(11) 0.09060(17)
C8_5 C 0.8722(3) 0.6345(12) 0.0681(2)
H5_5 H 0.859577 0.496738 0.067859
C10_5 C 0.8969(3) 0.6773(12) 0.0459(2)
H6_5 H 0.899285 0.566604 0.030066
C12_5 C 0.8096(3) 0.5494(14) 0.1503(2)
H8_5 H 0.807092 0.409104 0.159457
C14_5 C 0.8355(3) 0.5740(12) 0.1294(2)
H9_5 H 0.850685 0.452449 0.125457
C16_5 C 0.8395(2) 0.7721(11) 0.11441(18)
C18_5 C 0.8169(3) 0.9469(13) 0.1226(2)
C20_5 C 0.7925(3) 0.9038(14) 0.1442(2)
O4_5 O 0.72872(8) 0.2577(4) 0.79148(8)
C1_5 C 0.96011(11) 0.9060(6) 0.85894(10)
C3_5 C 0.92294(11) 0.7945(6) 0.85048(10)
H2_5 H 0.902868 0.836415 0.861326
C5_5 C 0.91504(10) 0.6227(5) 0.82629(9)
C7_5 C 0.94511(10) 0.5646(5) 0.80978(10)
H4_5 H 0.939499 0.455389 0.792492
C9_5 C 0.98334(10) 0.6658(5) 0.81849(9)
C11_5 C 0.99003(11) 0.8390(6) 0.84305(10)
H10_5 H 0.931572 0.983551 0.914631
C24_5 C 0.87518(10) 0.5006(5) 0.81761(9)
C25_5 C 0.87231(10) 0.2855(6) 0.80447(10)
H16_5 H 0.895609 0.216152 0.801375
C26_5 C 0.83546(11) 0.1708(6) 0.79581(10)
H17_5 H 0.834397 0.026530 0.787057
C27_5 C 0.80019(10) 0.2708(6) 0.80017(10)
C28_5 C 0.80303(11) 0.4841(6) 0.81461(10)
H18_5 H 0.779975 0.551394 0.818568
C29_5 C 0.83986(11) 0.5960(6) 0.82306(11)
H19_5 H 0.841159 0.738210 0.832613
C30_5 C 0.75995(11) 0.1527(6) 0.78923(10)
H20_5 H 0.992892 0.284567 0.787453
N3_3 N 0.7121(2) 0.7148(11) 0.84190(17)
N1_6 N 0.58286(18) 0.8638(9) 0.95430(15)
C4_6 C 0.6113(2) 0.9948(12) 0.90896(18)
C6_6 C 0.6334(2) 0.8025(11) 0.90940(17)
C8_6 C 0.6278(3) 0.6345(12) 0.9319(2)
H5_6 H 0.640423 0.496738 0.932141
C10_6 C 0.6031(3) 0.6773(12) 0.9541(2)
H6_6 H 0.600715 0.566604 0.969934
C12_6 C 0.6904(3) 0.5494(14) 0.8497(2)
H8_6 H 0.692908 0.409104 0.840543
C14_6 C 0.6645(3) 0.5740(12) 0.8706(2)
H9_6 H 0.649315 0.452449 0.874543
C16_6 C 0.6605(2) 0.7721(11) 0.88559(18)
C18_6 C 0.6831(3) 0.9469(13) 0.8774(2)
C20_6 C 0.7075(3) 0.9038(14) 0.8558(2)
O4_6 O 0.77128(8) 0.2577(4) 0.20852(8)
C1_6 C 0.53989(11) 0.9060(6) 0.14106(10)
C3_6 C 0.57706(11) 0.7945(6) 0.14952(10)
H2_6 H 0.597132 0.836415 0.138674
C5_6 C 0.58496(10) 0.6227(5) 0.17371(9)
C7_6 C 0.55489(10) 0.5646(5) 0.19022(10)
H4_6 H 0.560501 0.455389 0.207508
C9_6 C 0.51666(10) 0.6658(5) 0.18151(9)
C11_6 C 0.50997(11) 0.8390(6) 0.15695(10)
H7_6 H 0.484832 0.911034 0.151151
H10_6 H 0.568428 0.983551 0.085369
C24_6 C 0.62482(10) 0.5006(5) 0.18239(9)
C25_6 C 0.62769(10) 0.2855(6) 0.19553(10)
H16_6 H 0.604391 0.216152 0.198625
C26_6 C 0.66454(11) 0.1708(6) 0.20419(10)
H17_6 H 0.665603 0.026530 0.212943
C27_6 C 0.69981(10) 0.2708(6) 0.19983(10)
C28_6 C 0.69697(11) 0.4841(6) 0.18539(10)
H18_6 H 0.720025 0.551394 0.181432
C29_6 C 0.66014(11) 0.5960(6) 0.17694(11)
H19_6 H 0.658841 0.738210 0.167387
C30_6 C 0.74005(11) 0.1527(6) 0.21077(10)
C31_6 C 0.48329(10) 0.5849(5) 0.19616(9)
C32_6 C 0.48413(11) 0.3732(6) 0.21050(11)
H20_6 H 0.507108 0.284567 0.212547
C33_6 C 0.45178(11) 0.2905(6) 0.22181(10)
H21_6 H 0.453488 0.148837 0.231618
C34_6 C 0.41705(10) 0.4159(6) 0.21867(10)
C35_6 C 0.41600(12) 0.6300(6) 0.20587(13)
H22_6 H 0.393449 0.719827 0.205068
C36_6 C 0.44846(12) 0.7136(6) 0.19409(12)
H23_6 H 0.446860 0.856570 0.184772
C37_6 C 0.38025(11) 0.3142(6) 0.22720(10)
O1_3 O 0.46307(12) 0.1685(6) 0.47472(9)
N1_7 N 0.41714(18) 0.3638(9) 0.54570(15)
N2_4 N 0.2879(2) 0.2148(11) 0.65810(17)
C2_3 C 0.4124(2) 0.5205(11) 0.56811(19)
H1_3 H 0.425923 0.655284 0.568213
C4_7 C 0.3887(2) 0.4948(12) 0.59104(18)
H3_3 H 0.387498 0.607522 0.606879
C6_7 C 0.3666(2) 0.3025(11) 0.59060(17)
C8_7 C 0.3722(3) 0.1345(12) 0.5681(2)
C10_7 C 0.3969(3) 0.1773(12) 0.5459(2)
H6_7 H 0.399285 0.066604 0.530066
C12_7 C 0.3096(3) 0.0494(14) 0.6503(2)
C14_7 C 0.3355(3) 0.0740(12) 0.6294(2)
C16_7 C 0.3395(2) 0.2721(11) 0.61441(18)
C18_7 C 0.3169(3) 0.4469(13) 0.6226(2)
H12_3 H 0.318436 0.589037 0.613713
C20_7 C 0.2925(3) 0.4038(14) 0.6442(2)
H13_3 H 0.277559 0.522979 0.649358
H14_3 H 0.520878 0.043843 0.405749
C23_3 C 0.48973(15) 0.1356(7) 0.45885(12)
C1_7 C 0.46011(11) 0.4060(6) 0.35894(10)
C3_7 C 0.42294(11) 0.2945(6) 0.35048(10)
H2_7 H 0.402868 0.336415 0.361326
C5_7 C 0.41504(10) 0.1227(5) 0.32629(9)
C7_7 C 0.44511(10) 0.0646(5) 0.30978(10)
H5_7 H 0.359577 0.996738 0.567859
C9_7 C 0.48334(10) 0.1658(5) 0.31849(9)
C11_7 C 0.49003(11) 0.3390(6) 0.34305(10)
H7_7 H 0.515168 0.411034 0.348849
H8_7 H 0.307092 0.909104 0.659457
C13_3 C 0.46780(11) 0.5908(6) 0.38498(10)
H9_7 H 0.350685 0.952449 0.625457
C15_3 C 0.44907(16) 0.5980(8) 0.41214(13)
H10_7 H 0.431572 0.483551 0.414631
C17_3 C 0.45612(17) 0.7735(8) 0.43559(13)
H11_3 H 0.442519 0.778097 0.453155
C19_3 C 0.48268(14) 0.9403(7) 0.43342(11)
C21_3 C 0.50243(14) 0.9323(7) 0.40734(11)
C22_3 C 0.49512(13) 0.7601(6) 0.38346(11)
H15_3 H 0.508796 0.757327 0.365933
C24_7 C 0.37518(10) 0.0006(5) 0.31761(9)
H18_7 H 0.279975 0.051394 0.318568
C29_7 C 0.33986(11) 0.0960(6) 0.32306(11)
H19_7 H 0.341159 0.238210 0.332613
C31_7 C 0.51671(10) 0.0849(5) 0.30384(9)
C35_7 C 0.58400(12) 0.1300(6) 0.29413(13)
H22_7 H 0.606551 0.219827 0.294932
C36_7 C 0.55154(12) 0.2136(6) 0.30591(12)
H23_7 H 0.553140 0.356570 0.315228
O4_7 O 0.22872(8) 0.7577(4) 0.29148(8)
H4_7 H 0.439499 0.955389 0.292492
C25_7 C 0.37231(10) 0.7855(6) 0.30447(10)
H16_7 H 0.395609 0.716152 0.301375
C26_7 C 0.33546(11) 0.6708(6) 0.29581(10)
H17_7 H 0.334397 0.526530 0.287057
C27_7 C 0.30019(10) 0.7708(6) 0.30017(10)
C28_7 C 0.30303(11) 0.9841(6) 0.31461(10)
C30_7 C 0.25995(11) 0.6527(6) 0.28923(10)
C32_7 C 0.51587(11) 0.8732(6) 0.28950(11)
H20_7 H 0.492892 0.784567 0.287453
C33_7 C 0.54822(11) 0.7905(6) 0.27819(10)
H21_7 H 0.546512 0.648837 0.268382
C34_7 C 0.58295(10) 0.9159(6) 0.28133(10)
C37_7 C 0.61975(11) 0.8142(6) 0.27280(10)
N3_4 N 0.2121(2) 0.2148(11) 0.34190(17)
O1_4 O 0.03693(12) 0.1685(6) 0.52528(9)
N1_8 N 0.08286(18) 0.3638(9) 0.45430(15)
C2_4 C 0.0876(2) 0.5205(11) 0.43189(19)
H1_4 H 0.074077 0.655284 0.431787
C4_8 C 0.1113(2) 0.4948(12) 0.40896(18)
H3_4 H 0.112502 0.607522 0.393121
C6_8 C 0.1334(2) 0.3025(11) 0.40940(17)
C8_8 C 0.1278(3) 0.1345(12) 0.4319(2)
C10_8 C 0.1031(3) 0.1773(12) 0.4541(2)
H6_8 H 0.100715 0.066604 0.469934
C12_8 C 0.1904(3) 0.0494(14) 0.3497(2)
C14_8 C 0.1645(3) 0.0740(12) 0.3706(2)
C16_8 C 0.1605(2) 0.2721(11) 0.38559(18)
C18_8 C 0.1831(3) 0.4469(13) 0.3774(2)
H12_4 H 0.181564 0.589037 0.386287
C20_8 C 0.2075(3) 0.4038(14) 0.3558(2)
H13_4 H 0.222441 0.522979 0.350642
C23_4 C 0.01027(15) 0.1356(7) 0.54115(12)
C1_8 C 0.03989(11) 0.4060(6) 0.64106(10)
C3_8 C 0.07706(11) 0.2945(6) 0.64952(10)
H2_8 H 0.097132 0.336415 0.638674
C5_8 C 0.08496(10) 0.1227(5) 0.67371(9)
C7_8 C 0.05489(10) 0.0646(5) 0.69022(10)
H5_8 H 0.140423 0.996738 0.432141
C9_8 C 0.01666(10) 0.1658(5) 0.68151(9)
C11_8 C 0.00997(11) 0.3390(6) 0.65695(10)
H8_8 H 0.192908 0.909104 0.340543
C13_4 C 0.03220(11) 0.5908(6) 0.61502(10)
H9_8 H 0.149315 0.952449 0.374543
C15_4 C 0.05093(16) 0.5980(8) 0.58786(13)
H10_8 H 0.068428 0.483551 0.585369
C17_4 C 0.04388(17) 0.7735(8) 0.56441(13)
H11_4 H 0.057481 0.778097 0.546845
C19_4 C 0.01732(14) 0.9403(7) 0.56658(11)
C22_4 C 0.00488(13) 0.7601(6) 0.61654(11)
C24_8 C 0.12482(10) 0.0006(5) 0.68239(9)
H18_8 H 0.220025 0.051394 0.681432
C29_8 C 0.16014(11) 0.0960(6) 0.67694(11)
H19_8 H 0.158841 0.238210 0.667387
O4_8 O 0.27128(8) 0.7577(4) 0.70852(8)
H4_8 H 0.060501 0.955389 0.707508
C25_8 C 0.12769(10) 0.7855(6) 0.69553(10)
H16_8 H 0.104391 0.716152 0.698625
C26_8 C 0.16454(11) 0.6708(6) 0.70419(10)
H17_8 H 0.165603 0.526530 0.712943
C27_8 C 0.19981(10) 0.7708(6) 0.69983(10)
C28_8 C 0.19697(11) 0.9841(6) 0.68539(10)
C30_8 C 0.24005(11) 0.6527(6) 0.71077(10)
H20_8 H 0.007108 0.784567 0.712547
H14_4 H 0.979122 0.043843 0.594251
H7_8 H 0.984832 0.411034 0.651151
C21_4 C 0.99757(14) 0.9323(7) 0.59266(11)
H15_4 H 0.991204 0.757327 0.634067
C31_8 C 0.98329(10) 0.0849(5) 0.69616(9)
C35_8 C 0.91600(12) 0.1300(6) 0.70587(13)
H22_8 H 0.893449 0.219827 0.705068
C36_8 C 0.94846(12) 0.2136(6) 0.69409(12)
H23_8 H 0.946860 0.356570 0.684772
C32_8 C 0.98413(11) 0.8732(6) 0.71050(11)
C33_8 C 0.95178(11) 0.7905(6) 0.72181(10)
H21_8 H 0.953488 0.648837 0.731618
C34_8 C 0.91705(10) 0.9159(6) 0.71867(10)
C37_8 C 0.88025(11) 0.8142(6) 0.72720(10)
O1_5 O 0.03693(12) 0.3315(6) 0.02528(9)
C13_5 C 0.03220(11) 0.9092(6) 0.11502(10)
C15_5 C 0.05093(16) 0.9020(8) 0.08786(13)
C17_5 C 0.04388(17) 0.7265(8) 0.06441(13)
H11_5 H 0.057481 0.721903 0.046845
C19_5 C 0.01732(14) 0.5597(7) 0.06658(11)
C22_5 C 0.00488(13) 0.7399(6) 0.11654(11)
C23_5 C 0.01027(15) 0.3644(7) 0.04115(12)
C2_5 C 0.0876(2) 0.9795(11) 0.93189(19)
H1_5 H 0.074077 0.844716 0.931787
H3_5 H 0.112502 0.892478 0.893121
H12_5 H 0.181564 0.910963 0.886287
H13_5 H 0.222441 0.977021 0.850642
O7_3 O 0.02153(12) 0.7451(6) 0.96177(9)
C21_5 C 0.00243(14) 0.4323(7) 0.90734(11)
H14_5 H 0.020878 0.543843 0.905749
H15_5 H 0.008796 0.257327 0.865933
O2_3 O 0.97847(12) 0.2549(6) 0.03823(9)
C21_6 C 0.99757(14) 0.5677(7) 0.09266(11)
H14_6 H 0.979122 0.456157 0.094251
H15_6 H 0.991204 0.742673 0.134067
C2_6 C 0.9124(2) 0.0205(11) 0.06811(19)
H1_6 H 0.925923 0.155284 0.068213
H3_6 H 0.887498 0.107522 0.106879
H12_6 H 0.818436 0.089037 0.113713
H13_6 H 0.777559 0.022979 0.149358
O1_6 O 0.46307(12) 0.3315(6) 0.97472(9)
O2_4 O 0.52153(12) 0.2549(6) 0.96177(9)
C13_6 C 0.46780(11) 0.9092(6) 0.88498(10)
C15_6 C 0.44907(16) 0.9020(8) 0.91214(13)
C17_6 C 0.45612(17) 0.7265(8) 0.93559(13)
H11_6 H 0.442519 0.721903 0.953155
C19_6 C 0.48268(14) 0.5597(7) 0.93342(11)
C21_7 C 0.50243(14) 0.5677(7) 0.90734(11)
H14_7 H 0.520878 0.456157 0.905749
C22_6 C 0.49512(13) 0.7399(6) 0.88346(11)
H15_7 H 0.508796 0.742673 0.865933
C23_6 C 0.48973(15) 0.3644(7) 0.95885(12)
C2_7 C 0.5876(2) 0.0205(11) 0.93189(19)
H1_7 H 0.574077 0.155284 0.931787
H3_7 H 0.612502 0.107522 0.893121
H12_7 H 0.681564 0.089037 0.886287
H13_7 H 0.722441 0.022979 0.850642
C2_8 C 0.4124(2) 0.9795(11) 0.06811(19)
H1_8 H 0.425923 0.844716 0.068213
H3_8 H 0.387498 0.892478 0.106879
H12_8 H 0.318436 0.910963 0.113713
H13_8 H 0.277559 0.977021 0.149358
O7_4 O 0.47847(12) 0.7451(6) 0.03823(9)
O1_7 O 0.53693(12) 0.6685(6) 0.02528(9)
C13_7 C 0.53220(11) 0.0908(6) 0.11502(10)
C15_7 C 0.55093(16) 0.0980(8) 0.08786(13)
C17_7 C 0.54388(17) 0.2735(8) 0.06441(13)
H11_7 H 0.557481 0.278097 0.046845
C19_7 C 0.51732(14) 0.4403(7) 0.06658(11)
C21_8 C 0.49757(14) 0.4323(7) 0.09266(11)
H14_8 H 0.479122 0.543843 0.094251
C22_7 C 0.50488(13) 0.2601(6) 0.11654(11)
H15_8 H 0.491204 0.257327 0.134067
C23_7 C 0.51027(15) 0.6356(7) 0.04115(12)
O1_8 O 0.96307(12) 0.6685(6) 0.97472(9)
C13_8 C 0.96780(11) 0.0908(6) 0.88498(10)
C15_8 C 0.94907(16) 0.0980(8) 0.91214(13)
C17_8 C 0.95612(17) 0.2735(8) 0.93559(13)
H11_8 H 0.942519 0.278097 0.953155
C19_8 C 0.98268(14) 0.4403(7) 0.93342(11)
C22_8 C 0.99512(13) 0.2601(6) 0.88346(11)
C23_8 C 0.98973(15) 0.6356(7) 0.95885(12)
loop_
_geom_bond_atom_site_label_1
_geom_bond_atom_site_label_2
_geom_bond_site_symmetry_1
_geom_bond_site_symmetry_2
O3 Ag2 1_555 1_555
Ag7 O3 1_555 1_555
O8 Ag2 1_555 1_555
O11 Ag2 1_555 1_555
N3 Ag2 1_555 1_555
Ag7 O8 1_555 1_555
Ag3 O4 1_555 1_555
O4 C30 1_555 1_555
C1 C3 1_555 1_555
C3 H2 1_555 1_555
C5 C3 1_555 1_555
C7 C5 1_555 1_555
H4 C7 1_555 1_555
C9 C7 1_555 1_555
C11 C1 1_555 1_555
C24 C5 1_555 1_555
C25 C24 1_555 1_555
H16 C25 1_555 1_555
C26 C25 1_555 1_555
H17 C26 1_555 1_555
C27 C26 1_555 1_555
C28 C27 1_555 1_555
H18 C28 1_555 1_555
C29 C24 1_555 1_555
H19 C29 1_555 1_555
O11 Ag3 1_555 1_555
C9 C11 1_555 1_555
C27 C30 1_555 1_555
C28 C29 1_555 1_555
N1 Ag1 1_555 1_555
N2 C12 1_555 1_555
C6 C4 1_555 1_555
C8 C6 1_555 1_555
H5 C8 1_555 1_555
C10 N1 1_555 1_555
H6 C10 1_555 1_555
C12 H8 1_555 1_555
C14 C12 1_555 1_555
H9 C14 1_555 1_555
C16 C6 1_555 1_555
C18 C16 1_555 1_555
C20 N2 1_555 1_555
Ag5 N2 1_555 1_555
C8 C10 1_555 1_555
C14 C16 1_555 1_555
C18 C20 1_555 1_555
O5 C37 1_555 1_555
O6 C37 1_555 1_555
C32 C31 1_555 1_555
C33 C32 1_555 1_555
H21 C33 1_555 1_555
C34 C33 1_555 1_555
C35 C34 1_555 1_555
H22 C35 1_555 1_555
C36 C31 1_555 1_555
H23 C36 1_555 1_555
C37 C34 1_555 1_555
Ag6 O6 1_555 1_555
Ag9 O6 1_555 1_555
C35 C36 1_555 1_555
O3_2 Ag5 1_555 1_555
Ag7_2 O3_2 1_555 1_555
O8_2 Ag5 1_555 1_555
O11_2 Ag5 1_555 1_555
Ag7_2 O8_2 1_555 1_555
Ag3_2 O4_2 1_555 1_555
O4_2 C30_2 1_555 1_555
O5_2 C37_2 1_555 1_555
O6_2 C37_2 1_555 1_555
C1_2 C3_2 1_555 1_555
C3_2 H2_2 1_555 1_555
C5_2 C3_2 1_555 1_555
C7_2 C5_2 1_555 1_555
H4_2 C7_2 1_555 1_555
C9_2 C7_2 1_555 1_555
C11_2 C1_2 1_555 1_555
H7_2 C11_2 1_555 1_555
C24_2 C5_2 1_555 1_555
C25_2 C24_2 1_555 1_555
H16_2 C25_2 1_555 1_555
C26_2 C25_2 1_555 1_555
H17_2 C26_2 1_555 1_555
C27_2 C26_2 1_555 1_555
C28_2 C27_2 1_555 1_555
H18_2 C28_2 1_555 1_555
C29_2 C24_2 1_555 1_555
H19_2 C29_2 1_555 1_555
C31_2 C9_2 1_555 1_555
C32_2 C31_2 1_555 1_555
H20_2 C32_2 1_555 1_555
C33_2 C32_2 1_555 1_555
H21_2 C33_2 1_555 1_555
C34_2 C33_2 1_555 1_555
C35_2 C34_2 1_555 1_555
H22_2 C35_2 1_555 1_555
C36_2 C31_2 1_555 1_555
H23_2 C36_2 1_555 1_555
C37_2 C34_2 1_555 1_555
Ag6_2 O6_2 1_555 1_555
Ag9_2 O6_2 1_555 1_555
O11_2 Ag3_2 1_555 1_555
C9_2 C11_2 1_555 1_555
C27_2 C30_2 1_555 1_555
C28_2 C29_2 1_555 1_555
C35_2 C36_2 1_555 1_555
N1_2 Ag1_2 1_555 1_555
N3 C12_2 1_555 1_555
C6_2 C4_2 1_555 1_555
C8_2 C6_2 1_555 1_555
H5_2 C8_2 1_555 1_555
C10_2 N1_2 1_555 1_555
H6_2 C10_2 1_555 1_555
C12_2 H8_2 1_555 1_555
C14_2 C12_2 1_555 1_555
H9_2 C14_2 1_555 1_555
C16_2 C6_2 1_555 1_555
C18_2 C16_2 1_555 1_555
C20_2 N3 1_555 1_555
C8_2 C10_2 1_555 1_555
C14_2 C16_2 1_555 1_555
C18_2 C20_2 1_555 1_555
Ag2_2 Ag3_3 1_555 1_555
Ag3_3 O4_3 1_555 1_555
O3_3 Ag2_2 1_555 1_555
O4_3 C30_3 1_555 1_555
O5_3 C37_3 1_555 1_555
O6_3 C37_3 1_555 1_555
H16_3 C25_3 1_555 1_555
C26_3 C25_3 1_555 1_555
H17_3 C26_3 1_555 1_555
C27_3 C26_3 1_555 1_555
C28_3 C27_3 1_555 1_555
C30_3 O3_3 1_555 1_555
H20_3 C32_3 1_555 1_555
C33_3 C32_3 1_555 1_555
H21_3 C33_3 1_555 1_555
C34_3 C33_3 1_555 1_555
C37_3 C34_3 1_555 1_555
Ag7_2 O6_3 1_555 1_555
Ag6_2 O3_3 1_555 1_555
Ag9_3 O5_3 1_555 1_555
O8_3 Ag2_2 1_555 1_555
O9_3 Ag3_3 1_555 1_555
O11_3 Ag2_2 1_555 1_555
N3_2 Ag2_2 1_555 1_555
C27_3 C30_3 1_555 1_555
Ag7_2 Ag9_3 1_555 1_555
Ag6_2 O8_3 1_555 1_555
C1_3 C3_3 1_555 1_555
C3_3 H2_3 1_555 1_555
C5_3 C3_3 1_555 1_555
C7_3 C5_3 1_555 1_555
C9_3 C7_3 1_555 1_555
C11_3 C1_3 1_555 1_555
H7_3 C11_3 1_555 1_555
C13 C1_3 1_555 1_555
C15 C13 1_555 1_555
H10_3 C15 1_555 1_555
C17 C15 1_555 1_555
H11 C17 1_555 1_555
C19 C17 1_555 1_555
C21 C19 1_555 1_555
C22 C13 1_555 1_555
H15 C22 1_555 1_555
C24_3 C5_3 1_555 1_555
C29_3 C24_3 1_555 1_555
H19_3 C29_3 1_555 1_555
C31_3 C9_3 1_555 1_555
H22_3 C35_3 1_555 1_555
C36_3 C31_3 1_555 1_555
H23_3 C36_3 1_555 1_555
C9_3 C11_3 1_555 1_555
C21 C22 1_555 1_555
C35_3 C36_3 1_555 1_555
Ag1_3 O1 1_555 1_555
O1 C23 1_555 1_555
O2 C23 1_555 1_555
N1_3 Ag1_3 1_555 1_555
N2_2 C12_3 1_555 1_555
C2 N1_3 1_555 1_555
H1 C2 1_555 1_555
C4_3 C2 1_555 1_555
H3 C4_3 1_555 1_555
C6_3 C4_3 1_555 1_555
C8_3 C6_3 1_555 1_555
C10_3 N1_3 1_555 1_555
H6_3 C10_3 1_555 1_555
C14_3 C12_3 1_555 1_555
C16_3 C6_3 1_555 1_555
C18_3 C16_3 1_555 1_555
H12 C18_3 1_555 1_555
C20_3 N2_2 1_555 1_555
H13 C20_3 1_555 1_555
Ag4_3 Ag1_3 1_555 1_555
Ag5_2 N2_2 1_555 1_555
O7 Ag1_3 1_555 1_555
O2 Ag4_3 1_555 1_555
C8_3 C10_3 1_555 1_555
C14_3 C16_3 1_555 1_555
C18_3 C20_3 1_555 1_555
O5_4 C37_4 1_555 1_555
O6_4 C37_4 1_555 1_555
C33_4 C32_4 1_555 1_555
H21_4 C33_4 1_555 1_555
C34_4 C33_4 1_555 1_555
C37_4 C34_4 1_555 1_555
Ag7 O6_4 1_555 1_555
Ag9_4 O5_4 1_555 1_555
Ag7 Ag9_4 1_555 1_555
H22_4 C35_4 1_555 1_555
C36_4 C31_4 1_555 1_555
H23_4 C36_4 1_555 1_555
C35_4 C36_4 1_555 1_555
O2_2 Ag4_4 1_555 1_555
Ag5_2 Ag3_4 1_555 1_555
Ag3_4 O4_4 1_555 1_555
O3_4 Ag5_2 1_555 1_555
O4_4 C30_4 1_555 1_555
H16_4 C25_4 1_555 1_555
C26_4 C25_4 1_555 1_555
H17_4 C26_4 1_555 1_555
C27_4 C26_4 1_555 1_555
C28_4 C27_4 1_555 1_555
C30_4 O3_4 1_555 1_555
Ag6 O3_4 1_555 1_555
O8_4 Ag5_2 1_555 1_555
O9_4 Ag3_4 1_555 1_555
O11_4 Ag5_2 1_555 1_555
C27_4 C30_4 1_555 1_555
Ag6 O8_4 1_555 1_555
C1_4 C3_4 1_555 1_555
C3_4 H2_4 1_555 1_555
C5_4 C3_4 1_555 1_555
C7_4 C5_4 1_555 1_555
C9_4 C7_4 1_555 1_555
C11_4 C1_4 1_555 1_555
C13_2 C1_4 1_555 1_555
C15_2 C13_2 1_555 1_555
H10_4 C15_2 1_555 1_555
C17_2 C15_2 1_555 1_555
H11_2 C17_2 1_555 1_555
C19_2 C17_2 1_555 1_555
C22_2 C13_2 1_555 1_555
C24_4 C5_4 1_555 1_555
C29_4 C24_4 1_555 1_555
H19_4 C29_4 1_555 1_555
C9_4 C11_4 1_555 1_555
Ag1_4 O1_2 1_555 1_555
O1_2 C23_2 1_555 1_555
N1_4 Ag1_4 1_555 1_555
N3_2 C12_4 1_555 1_555
C2_2 N1_4 1_555 1_555
H1_2 C2_2 1_555 1_555
C4_4 C2_2 1_555 1_555
H3_2 C4_4 1_555 1_555
C6_4 C4_4 1_555 1_555
C8_4 C6_4 1_555 1_555
C10_4 N1_4 1_555 1_555
H6_4 C10_4 1_555 1_555
C14_4 C12_4 1_555 1_555
C16_4 C6_4 1_555 1_555
C18_4 C16_4 1_555 1_555
H12_2 C18_4 1_555 1_555
C20_4 N3_2 1_555 1_555
H13_2 C20_4 1_555 1_555
O7_2 Ag1_4 1_555 1_555
C8_4 C10_4 1_555 1_555
C14_4 C16_4 1_555 1_555
C18_4 C20_4 1_555 1_555
O9_2 C37_5 1_555 1_555
O11_2 C37_5 1_555 1_555
C32_5 C31_5 1_555 1_555
C33_5 C32_5 1_555 1_555
H21_5 C33_5 1_555 1_555
C34_5 C33_5 1_555 1_555
C35_5 C34_5 1_555 1_555
H22_5 C35_5 1_555 1_555
C36_5 C31_5 1_555 1_555
H23_5 C36_5 1_555 1_555
C37_5 C34_5 1_555 1_555
C35_5 C36_5 1_555 1_555
N1_5 Ag4 1_555 1_555
N2_3 C12_5 1_555 1_555
C6_5 C4_5 1_555 1_555
C8_5 C6_5 1_555 1_555
H5_5 C8_5 1_555 1_555
C10_5 N1_5 1_555 1_555
H6_5 C10_5 1_555 1_555
C12_5 H8_5 1_555 1_555
C14_5 C12_5 1_555 1_555
H9_5 C14_5 1_555 1_555
C16_5 C6_5 1_555 1_555
C18_5 C16_5 1_555 1_555
C20_5 N2_3 1_555 1_555
Ag6 N2_3 1_555 1_555
C8_5 C10_5 1_555 1_555
C14_5 C16_5 1_555 1_555
C18_5 C20_5 1_555 1_555
Ag9_2 O4_5 1_555 1_555
O4_5 C30_5 1_555 1_555
C1_5 C3_5 1_555 1_555
C3_5 H2_5 1_555 1_555
C5_5 C3_5 1_555 1_555
C7_5 C5_5 1_555 1_555
H4_5 C7_5 1_555 1_555
C9_5 C7_5 1_555 1_555
C11_5 C1_5 1_555 1_555
C24_5 C5_5 1_555 1_555
C25_5 C24_5 1_555 1_555
H16_5 C25_5 1_555 1_555
C26_5 C25_5 1_555 1_555
H17_5 C26_5 1_555 1_555
C27_5 C26_5 1_555 1_555
C28_5 C27_5 1_555 1_555
H18_5 C28_5 1_555 1_555
C29_5 C24_5 1_555 1_555
H19_5 C29_5 1_555 1_555
C9_5 C11_5 1_555 1_555
C27_5 C30_5 1_555 1_555
C28_5 C29_5 1_555 1_555
N3_3 Ag6_2 1_555 1_555
N1_6 Ag4_2 1_555 1_555
N3_3 C12_6 1_555 1_555
C6_6 C4_6 1_555 1_555
C8_6 C6_6 1_555 1_555
H5_6 C8_6 1_555 1_555
C10_6 N1_6 1_555 1_555
H6_6 C10_6 1_555 1_555
C12_6 H8_6 1_555 1_555
C14_6 C12_6 1_555 1_555
H9_6 C14_6 1_555 1_555
C16_6 C6_6 1_555 1_555
C18_6 C16_6 1_555 1_555
C20_6 N3_3 1_555 1_555
C8_6 C10_6 1_555 1_555
C14_6 C16_6 1_555 1_555
C18_6 C20_6 1_555 1_555
Ag9 O4_6 1_555 1_555
O4_6 C30_6 1_555 1_555
O9 C37_6 1_555 1_555
O11 C37_6 1_555 1_555
C1_6 C3_6 1_555 1_555
C3_6 H2_6 1_555 1_555
C5_6 C3_6 1_555 1_555
C7_6 C5_6 1_555 1_555
H4_6 C7_6 1_555 1_555
C9_6 C7_6 1_555 1_555
C11_6 C1_6 1_555 1_555
H7_6 C11_6 1_555 1_555
C24_6 C5_6 1_555 1_555
C25_6 C24_6 1_555 1_555
H16_6 C25_6 1_555 1_555
C26_6 C25_6 1_555 1_555
H17_6 C26_6 1_555 1_555
C27_6 C26_6 1_555 1_555
C28_6 C27_6 1_555 1_555
H18_6 C28_6 1_555 1_555
C29_6 C24_6 1_555 1_555
H19_6 C29_6 1_555 1_555
C31_6 C9_6 1_555 1_555
C32_6 C31_6 1_555 1_555
H20_6 C32_6 1_555 1_555
C33_6 C32_6 1_555 1_555
H21_6 C33_6 1_555 1_555
C34_6 C33_6 1_555 1_555
C35_6 C34_6 1_555 1_555
H22_6 C35_6 1_555 1_555
C36_6 C31_6 1_555 1_555
H23_6 C36_6 1_555 1_555
C37_6 C34_6 1_555 1_555
C9_6 C11_6 1_555 1_555
C27_6 C30_6 1_555 1_555
C28_6 C29_6 1_555 1_555
C35_6 C36_6 1_555 1_555
Ag4_3 O1_3 1_555 1_555
O1_3 C23_3 1_555 1_555
O7 C23_3 1_555 1_555
N1_7 Ag4_3 1_555 1_555
N2_4 C12_7 1_555 1_555
C2_3 N1_7 1_555 1_555
H1_3 C2_3 1_555 1_555
C4_7 C2_3 1_555 1_555
H3_3 C4_7 1_555 1_555
C6_7 C4_7 1_555 1_555
C8_7 C6_7 1_555 1_555
C10_7 N1_7 1_555 1_555
H6_7 C10_7 1_555 1_555
C14_7 C12_7 1_555 1_555
C16_7 C6_7 1_555 1_555
C18_7 C16_7 1_555 1_555
H12_3 C18_7 1_555 1_555
C20_7 N2_4 1_555 1_555
H13_3 C20_7 1_555 1_555
Ag7_2 N2_4 1_555 1_555
C8_7 C10_7 1_555 1_555
C14_7 C16_7 1_555 1_555
C18_7 C20_7 1_555 1_555
C1_7 C3_7 1_555 1_555
C3_7 H2_7 1_555 1_555
C5_7 C3_7 1_555 1_555
C7_7 C5_7 1_555 1_555
C9_7 C7_7 1_555 1_555
C11_7 C1_7 1_555 1_555
H7_7 C11_7 1_555 1_555
C13_3 C1_7 1_555 1_555
C15_3 C13_3 1_555 1_555
H10_7 C15_3 1_555 1_555
C17_3 C15_3 1_555 1_555
H11_3 C17_3 1_555 1_555
C19_3 C17_3 1_555 1_555
C21_3 C19_3 1_555 1_555
C22_3 C13_3 1_555 1_555
H15_3 C22_3 1_555 1_555
C24_7 C5_7 1_555 1_555
C29_7 C24_7 1_555 1_555
H19_7 C29_7 1_555 1_555
C31_7 C9_7 1_555 1_555
H22_7 C35_7 1_555 1_555
C36_7 C31_7 1_555 1_555
H23_7 C36_7 1_555 1_555
C9_7 C11_7 1_555 1_555
C21_3 C22_3 1_555 1_555
C35_7 C36_7 1_555 1_555
Ag9_4 O4_7 1_555 1_555
O4_7 C30_7 1_555 1_555
O9_4 C37_7 1_555 1_555
O11_4 C37_7 1_555 1_555
H16_7 C25_7 1_555 1_555
C26_7 C25_7 1_555 1_555
H17_7 C26_7 1_555 1_555
C27_7 C26_7 1_555 1_555
C28_7 C27_7 1_555 1_555
C30_7 O8 1_555 1_555
H20_7 C32_7 1_555 1_555
C33_7 C32_7 1_555 1_555
H21_7 C33_7 1_555 1_555
C34_7 C33_7 1_555 1_555
C37_7 C34_7 1_555 1_555
N3_4 Ag7 1_555 1_555
C27_7 C30_7 1_555 1_555
Ag4_4 O1_4 1_555 1_555
O1_4 C23_4 1_555 1_555
N1_8 Ag4_4 1_555 1_555
N3_4 C12_8 1_555 1_555
C2_4 N1_8 1_555 1_555
H1_4 C2_4 1_555 1_555
C4_8 C2_4 1_555 1_555
H3_4 C4_8 1_555 1_555
C6_8 C4_8 1_555 1_555
C8_8 C6_8 1_555 1_555
C10_8 N1_8 1_555 1_555
H6_8 C10_8 1_555 1_555
C14_8 C12_8 1_555 1_555
C16_8 C6_8 1_555 1_555
C18_8 C16_8 1_555 1_555
H12_4 C18_8 1_555 1_555
C20_8 N3_4 1_555 1_555
H13_4 C20_8 1_555 1_555
C8_8 C10_8 1_555 1_555
C14_8 C16_8 1_555 1_555
C18_8 C20_8 1_555 1_555
C1_8 C3_8 1_555 1_555
C3_8 H2_8 1_555 1_555
C5_8 C3_8 1_555 1_555
C7_8 C5_8 1_555 1_555
C9_8 C7_8 1_555 1_555
C11_8 C1_8 1_555 1_555
C13_4 C1_8 1_555 1_555
C15_4 C13_4 1_555 1_555
H10_8 C15_4 1_555 1_555
C17_4 C15_4 1_555 1_555
H11_4 C17_4 1_555 1_555
C19_4 C17_4 1_555 1_555
C22_4 C13_4 1_555 1_555
C24_8 C5_8 1_555 1_555
C29_8 C24_8 1_555 1_555
H19_8 C29_8 1_555 1_555
C9_8 C11_8 1_555 1_555
Ag9_3 O4_8 1_555 1_555
O4_8 C30_8 1_555 1_555
H16_8 C25_8 1_555 1_555
C26_8 C25_8 1_555 1_555
H17_8 C26_8 1_555 1_555
C27_8 C26_8 1_555 1_555
C28_8 C27_8 1_555 1_555
C30_8 O8_2 1_555 1_555
C27_8 C30_8 1_555 1_555
H22_8 C35_8 1_555 1_555
C36_8 C31_8 1_555 1_555
H23_8 C36_8 1_555 1_555
C35_8 C36_8 1_555 1_555
O9_3 C37_8 1_555 1_555
O11_3 C37_8 1_555 1_555
C33_8 C32_8 1_555 1_555
H21_8 C33_8 1_555 1_555
C34_8 C33_8 1_555 1_555
C37_8 C34_8 1_555 1_555
O1_5 C23_5 1_555 1_555
C15_5 C13_5 1_555 1_555
C17_5 C15_5 1_555 1_555
H11_5 C17_5 1_555 1_555
C19_5 C17_5 1_555 1_555
C22_5 C13_5 1_555 1_555
C23_5 C19_5 1_555 1_555
H1_5 C2_5 1_555 1_555
H14_5 C21_5 1_555 1_555
H14_6 C21_6 1_555 1_555
H1_6 C2_6 1_555 1_555
O1_6 C23_6 1_555 1_555
O2_4 C23_6 1_555 1_555
C15_6 C13_6 1_555 1_555
C17_6 C15_6 1_555 1_555
H11_6 C17_6 1_555 1_555
C19_6 C17_6 1_555 1_555
C21_7 C19_6 1_555 1_555
H14_7 C21_7 1_555 1_555
C22_6 C13_6 1_555 1_555
H15_7 C22_6 1_555 1_555
C23_6 C19_6 1_555 1_555
C21_7 C22_6 1_555 1_555
H1_7 C2_7 1_555 1_555
H1_8 C2_8 1_555 1_555
O1_7 C23_7 1_555 1_555
O7_4 C23_7 1_555 1_555
C15_7 C13_7 1_555 1_555
C17_7 C15_7 1_555 1_555
H11_7 C17_7 1_555 1_555
C19_7 C17_7 1_555 1_555
C21_8 C19_7 1_555 1_555
H14_8 C21_8 1_555 1_555
C22_7 C13_7 1_555 1_555
H15_8 C22_7 1_555 1_555
C23_7 C19_7 1_555 1_555
C21_8 C22_7 1_555 1_555
O1_8 C23_8 1_555 1_555
C15_8 C13_8 1_555 1_555
C17_8 C15_8 1_555 1_555
H11_8 C17_8 1_555 1_555
C19_8 C17_8 1_555 1_555
C22_8 C13_8 1_555 1_555
C23_8 C19_8 1_555 1_555

#END
