
###############################################################################
#
# This file contains modified crystal structure data generated from the
# MOF subset of the Cambridge Structural Database (CSD) v543 
# hosted by the Cambridge Crystallographic Data Centre (CCDC).
#
# This work is licensed under the Creative Commons
# Attribution-NonCommercial-ShareAlike 4.0 International License.
# To view a copy of this license, visit
# http://creativecommons.org/licenses/by-nc-sa/4.0/
# or send a letter to
# Creative Commons, PO Box 1866, Mountain View, CA 94042, USA.
#
# CIF created using the CSD Python API on 29 September 2022
# The structure has been converted into the P1 space group
# The structure has a 3D framework
# The original CSD entry SUMRIE is in the monoclinic crystal system
# The framework has been calculated to contain at least 10.0% void space
# The void calculation uses a probe of radius 1.32A, grid spacing 0.4
#
###############################################################################

data_SUMRIE
_chemical_formula_moiety         '(C264 H152 Ag22 N24 O46)n'
_symmetry_cell_setting           triclinic
_symmetry_space_group_name_H-M   'P 1'
_symmetry_Int_Tables_number      1
_space_group_name_Hall           'P 1'
loop_
_symmetry_equiv_pos_site_id
_symmetry_equiv_pos_as_xyz
1 x,y,z
_cell_length_a                   34.512(7)
_cell_length_b                   5.9589(12)
_cell_length_c                   38.939(19)
_cell_angle_alpha                90
_cell_angle_beta                 104.48(3)
_cell_angle_gamma                90
_cell_volume                     7753.57
loop_
_atom_site_label
_atom_site_type_symbol
_atom_site_fract_x
_atom_site_fract_y
_atom_site_fract_z
H38 H 0.126956 0.092716 0.499845
O19 O 0.0454(4) 0.280(2) 0.5371(4)
C42 C 0.0340(5) 0.936(3) 0.6149(5)
C43 C 0.0661(7) 0.799(4) 0.6105(6)
H24 H 0.092253 0.829109 0.624672
C44 C 0.0608(7) 0.627(3) 0.5869(5)
H25 H 0.083108 0.536947 0.585809
C45 C 0.0227(5) 0.579(4) 0.5638(5)
C48 C 0.0154(5) 0.379(3) 0.5412(5)
Ag1 Ag 0.04023(6) 0.9514(4) 0.51002(7)
Ag2 Ag 0.47089(5) 0.0777(3) 0.51671(5)
O10 O 0.0206(4) 0.665(3) 0.4735(4)
C5 C 0.3479(10) 0.103(6) 0.5396(9)
C46 C 0.0067(6) 0.258(4) 0.4355(6)
H26 H 0.031317 0.264853 0.453032
C47 C 0.0014(6) 0.092(5) 0.4108(6)
N1 N 0.4130(9) 0.184(6) 0.5322(7)
C56 C 0.4018(7) 0.379(5) 0.5239(7)
H32 H 0.420288 0.487853 0.519892
C57 C 0.3654(9) 0.431(7) 0.5208(9)
H33 H 0.357510 0.572014 0.509960
C58 C 0.3368(7) 0.318(5) 0.5305(7)
C59 C 0.3844(9) 0.051(6) 0.5427(8)
C60 C 0.2967(5) 0.397(4) 0.5254(6)
N2 N 0.2866(6) 0.613(4) 0.5124(6)
N3 N 0.2482(7) 0.694(3) 0.5095(7)
C61 C 0.2199(5) 0.560(4) 0.5196(7)
N4 N 0.2300(6) 0.345(4) 0.5325(6)
N5 N 0.2684(6) 0.264(3) 0.5354(6)
N6 N 0.1052(5) 0.799(4) 0.5143(6)
C62 C 0.1150(5) 0.578(4) 0.5239(6)
H35 H 0.095550 0.480256 0.529259
C63 C 0.1534(6) 0.499(3) 0.5256(6)
H36 H 0.160107 0.347391 0.532221
C64 C 0.1819(5) 0.641(5) 0.5178(6)
C65 C 0.1720(7) 0.862(4) 0.5082(7)
H37 H 0.191513 0.959847 0.502808
C66 C 0.1337(8) 0.941(3) 0.5064(7)
O13 O 0.4631(4) 0.346(3) 0.4755(4)
O1 O 0.4773(3) 0.742(2) 0.5393(4)
O2 O 0.5369(4) 0.654(3) 0.5245(4)
O7 O 0.1545(3) 0.436(2) 0.2812(3)
O8 O 0.1234(3) 0.107(2) 0.2707(4)
H3 H 0.329106 0.996280 0.543610
C8 C 0.5320(5) 0.073(3) 0.6158(5)
C9 C 0.5503(5) 0.084(4) 0.5880(5)
C10 C 0.5432(6) 0.259(4) 0.5659(7)
H6 H 0.557640 0.266159 0.548055
C11 C 0.5174(5) 0.425(3) 0.5669(5)
C12 C 0.4963(6) 0.423(4) 0.5937(5)
H7 H 0.477253 0.536353 0.594799
C13 C 0.5047(6) 0.249(3) 0.6187(5)
H8 H 0.492009 0.246861 0.637754
C14 C 0.5087(6) 0.628(4) 0.5409(5)
H17 H 0.015229 0.899305 0.351761
C35 C 0.0185(5) 0.568(3) 0.3037(5)
C36 C 0.0533(5) 0.697(4) 0.3079(5)
H20 H 0.054592 0.842675 0.318173
C37 C 0.0858(5) 0.614(4) 0.2970(5)
H21 H 0.108103 0.710920 0.298832
C38 C 0.0879(4) 0.408(3) 0.2841(5)
C39 C 0.0532(6) 0.284(4) 0.2802(5)
H22 H 0.052302 0.136729 0.270668
C40 C 0.0203(4) 0.363(3) 0.2895(5)
C41 C 0.1248(4) 0.321(3) 0.2795(5)
H27 H 0.022826 0.990768 0.411266
H34 H 0.393028 0.908698 0.552914
Ag8 Ag 0.52911(5) 0.9223(3) 0.48329(5)
Ag9 Ag 0.21189(4) 0.2900(3) 0.27524(4)
Ag12 Ag 0.17293(4) 0.8713(3) 0.27781(5)
Ag4 Ag 0.82707(4) 0.1287(3) 0.72219(5)
Ag5 Ag 0.28843(4) 0.2976(3) 0.72679(4)
O3 O 0.7658(3) 0.268(2) 0.7057(3)
O5 O 0.3751(3) 0.111(2) 0.7305(3)
O6 O 0.3458(3) 0.4425(19) 0.7216(3)
C1 C 0.5388(5) 0.889(3) 0.6426(4)
C2 C 0.5750(5) 0.777(3) 0.6510(4)
H1 H 0.595019 0.817330 0.639324
C3 C 0.5825(4) 0.613(3) 0.6752(4)
C4 C 0.5512(5) 0.553(3) 0.6913(4)
H2 H 0.556261 0.437358 0.708641
C6 C 0.5144(4) 0.652(3) 0.6832(4)
C7 C 0.5075(5) 0.824(3) 0.6567(5)
H4 H 0.481969 0.892479 0.648932
H5 H 0.567834 0.967515 0.584733
C15 C 0.6216(4) 0.488(3) 0.6848(4)
C16 C 0.6260(5) 0.265(3) 0.6983(4)
H9 H 0.603343 0.188133 0.702052
C17 C 0.6611(4) 0.163(3) 0.7057(4)
H10 H 0.662826 0.013985 0.714546
C18 C 0.6974(5) 0.271(3) 0.7010(4)
C19 C 0.6942(4) 0.482(3) 0.6874(4)
H11 H 0.716925 0.555477 0.683018
C20 C 0.6568(5) 0.590(3) 0.6799(4)
H12 H 0.655082 0.739819 0.671162
C21 C 0.7352(5) 0.148(3) 0.7102(4)
C22 C 0.4816(5) 0.571(3) 0.6976(4)
C23 C 0.4481(5) 0.701(3) 0.6967(5)
H13 H 0.447729 0.851410 0.688397
C24 C 0.4170(5) 0.628(3) 0.7067(5)
H14 H 0.394750 0.724987 0.704895
C25 C 0.4153(4) 0.416(3) 0.7195(4)
C26 C 0.4481(4) 0.280(3) 0.7231(4)
H15 H 0.448301 0.133261 0.732577
C27 C 0.4807(5) 0.361(3) 0.7125(5)
H16 H 0.503664 0.268238 0.715621
C28 C 0.3764(5) 0.320(4) 0.7249(4)
Ag15 Ag 0.32779(4) 0.8777(3) 0.72728(4)
O14 O 0.2624(3) 0.447(2) 0.7788(3)
O17 O 0.8455(3) 0.564(2) 0.7188(3)
O20 O 0.2383(3) 0.059(2) 0.7220(3)
Ag3 Ag 0.78811(4) 0.7100(3) 0.72476(4)
O4 O 0.7376(3) 0.947(2) 0.7212(3)
Ag13 Ag 0.71157(4) 0.7976(3) 0.77321(4)
O18 O 0.8766(3) 0.893(2) 0.7293(4)
O21 O 0.7617(3) 0.559(2) 0.7780(3)
O22 O 0.2672(3) 0.745(2) 0.7102(3)
Ag7 Ag 0.95977(6) 0.0486(4) 0.48998(7)
O12 O 0.7328(3) 0.255(2) 0.2898(3)
C29 C 0.9848(5) 0.644(3) 0.3181(5)
C30 C 0.9903(5) 0.823(4) 0.3446(5)
C31 C 0.9592(5) 0.881(3) 0.3591(4)
C32 C 0.9223(4) 0.779(3) 0.3486(5)
H18 H 0.901124 0.823406 0.358644
C33 C 0.9162(5) 0.605(3) 0.3227(5)
C34 C 0.9469(4) 0.544(3) 0.3087(5)
H19 H 0.942330 0.428269 0.291414
H23 H 0.997389 0.268750 0.285779
C49 C 0.8760(5) 0.487(3) 0.3131(5)
C50 C 0.8737(4) 0.269(3) 0.2987(5)
H28 H 0.896806 0.196776 0.294803
C51 C 0.8376(5) 0.165(3) 0.2907(4)
H29 H 0.835754 0.016747 0.281298
C52 C 0.8025(4) 0.269(3) 0.2957(4)
C53 C 0.8070(4) 0.477(3) 0.3102(4)
H30 H 0.784348 0.548296 0.315085
C54 C 0.8416(5) 0.583(3) 0.3177(5)
H31 H 0.842628 0.732150 0.326643
C55 C 0.7624(4) 0.143(3) 0.2876(4)
Ag16 Ag 0.67221(4) 0.1223(3) 0.27272(4)
O11 O 0.7617(3) 0.941(2) 0.2780(3)
Ag10 Ag 0.78811(4) 0.7900(3) 0.22476(4)
Ag14 Ag 0.71157(4) 0.7024(3) 0.27321(4)
O11_2 O 0.2383(3) 0.441(2) 0.2220(3)
O12_2 O 0.2672(3) 0.755(2) 0.2102(3)
H19_2 H 0.057670 0.928269 0.208586
H23_2 H 0.002611 0.768750 0.214221
C49_2 C 0.1240(5) 0.987(3) 0.1869(5)
C50_2 C 0.1263(4) 0.769(3) 0.2013(5)
H28_2 H 0.103194 0.696776 0.205197
C51_2 C 0.1624(5) 0.665(3) 0.2093(4)
H29_2 H 0.164246 0.516747 0.218702
C52_2 C 0.1975(4) 0.769(3) 0.2043(4)
C53_2 C 0.1930(4) 0.977(3) 0.1898(4)
C55_2 C 0.2376(4) 0.643(3) 0.2124(4)
Ag14_2 Ag 0.28843(4) 0.2024(3) 0.22679(4)
Ag16_2 Ag 0.32779(4) 0.6223(3) 0.22728(4)
H17_2 H 0.984771 0.399305 0.148239
C35_2 C 0.9815(5) 0.068(3) 0.1963(5)
C36_2 C 0.9467(5) 0.197(4) 0.1921(5)
H20_2 H 0.945408 0.342675 0.181827
C37_2 C 0.9142(5) 0.114(4) 0.2030(5)
H21_2 H 0.891897 0.210920 0.201168
C46_2 C 0.9933(6) 0.758(4) 0.0645(6)
H26_2 H 0.968683 0.764853 0.046968
C47_2 C 0.9986(6) 0.592(5) 0.0892(6)
H27_2 H 0.977174 0.490768 0.088734
Ag8_2 Ag 0.47089(5) 0.4223(3) 0.01671(5)
Ag12_2 Ag 0.82707(4) 0.3713(3) 0.22219(5)
O13_2 O 0.5369(4) 0.846(3) 0.0245(4)
Ag2_2 Ag 0.52911(5) 0.5777(3) 0.98329(5)
O1_2 O 0.5227(3) 0.242(2) 0.9607(4)
O2_2 O 0.4631(4) 0.154(3) 0.9755(4)
C5_2 C 0.6521(10) 0.603(6) 0.9604(9)
H3_2 H 0.670894 0.496280 0.956390
H7_2 H 0.522747 0.036353 0.905201
C14_2 C 0.4913(6) 0.128(4) 0.9591(5)
N1_2 N 0.5870(9) 0.684(6) 0.9678(7)
C56_2 C 0.5982(7) 0.879(5) 0.9761(7)
H32_2 H 0.579712 0.987853 0.980108
C57_2 C 0.6346(9) 0.931(7) 0.9792(9)
C58_2 C 0.6632(7) 0.818(5) 0.9695(7)
C59_2 C 0.6156(9) 0.551(6) 0.9573(8)
H34_2 H 0.606972 0.408698 0.947086
C60_2 C 0.7033(5) 0.897(4) 0.9746(6)
N4_2 N 0.7700(6) 0.845(4) 0.9675(6)
N5_2 N 0.7316(6) 0.764(3) 0.9646(6)
H35_2 H 0.904450 0.980256 0.970741
C63_2 C 0.8466(6) 0.999(3) 0.9744(6)
H36_2 H 0.839893 0.847391 0.967779
O7_2 O 0.8455(3) 0.936(2) 0.2188(3)
O8_2 O 0.8766(3) 0.607(2) 0.2293(4)
C38_2 C 0.9121(4) 0.908(3) 0.2159(5)
C39_2 C 0.9468(6) 0.784(4) 0.2198(5)
H22_2 H 0.947698 0.636729 0.229332
C40_2 C 0.9797(4) 0.863(3) 0.2105(5)
C41_2 C 0.8752(4) 0.821(3) 0.2205(5)
C1_2 C 0.4612(5) 0.389(3) 0.8574(4)
C2_2 C 0.4250(5) 0.277(3) 0.8490(4)
H1_2 H 0.404981 0.317330 0.860676
C3_2 C 0.4175(4) 0.113(3) 0.8248(4)
C4_2 C 0.4488(5) 0.053(3) 0.8087(4)
C6_2 C 0.4856(4) 0.152(3) 0.8168(4)
C7_2 C 0.4925(5) 0.324(3) 0.8433(5)
H4_2 H 0.518031 0.392479 0.851068
C8_2 C 0.4680(5) 0.573(3) 0.8842(5)
C9_2 C 0.4497(5) 0.584(4) 0.9120(5)
H5_2 H 0.432166 0.467515 0.915267
C10_2 C 0.4568(6) 0.759(4) 0.9341(7)
H6_2 H 0.442360 0.766159 0.951945
C11_2 C 0.4826(5) 0.925(3) 0.9331(5)
C12_2 C 0.5037(6) 0.923(4) 0.9063(5)
C13_2 C 0.4953(6) 0.749(3) 0.8813(5)
H8_2 H 0.507991 0.746861 0.862246
H11_2 H 0.283075 0.055477 0.816982
C20_2 C 0.3432(5) 0.090(3) 0.8201(4)
H12_2 H 0.344918 0.239819 0.828838
C22_2 C 0.5184(5) 0.071(3) 0.8024(4)
C23_2 C 0.5519(5) 0.201(3) 0.8033(5)
H13_2 H 0.552271 0.351410 0.811603
C24_2 C 0.5830(5) 0.128(3) 0.7933(5)
H14_2 H 0.605250 0.224987 0.795105
Ag15_2 Ag 0.67221(4) 0.3777(3) 0.77272(4)
O17_2 O 0.1545(3) 0.064(2) 0.7812(3)
Ag3_2 Ag 0.21189(4) 0.2100(3) 0.77524(4)
Ag4_2 Ag 0.17293(4) 0.6287(3) 0.77781(5)
O3_2 O 0.2342(3) 0.768(2) 0.7943(3)
O5_2 O 0.6249(3) 0.611(2) 0.7695(3)
O6_2 O 0.6542(3) 0.9425(19) 0.7784(3)
H2_2 H 0.443739 0.937358 0.791359
C15_2 C 0.3784(4) 0.988(3) 0.8152(4)
C16_2 C 0.3740(5) 0.765(3) 0.8017(4)
H9_2 H 0.396657 0.688133 0.797948
C17_2 C 0.3389(4) 0.663(3) 0.7943(4)
H10_2 H 0.337174 0.513985 0.785454
C18_2 C 0.3026(5) 0.771(3) 0.7990(4)
C19_2 C 0.3058(4) 0.982(3) 0.8126(4)
C21_2 C 0.2648(5) 0.648(3) 0.7898(4)
C25_2 C 0.5847(4) 0.916(3) 0.7805(4)
C26_2 C 0.5519(4) 0.780(3) 0.7769(4)
H15_2 H 0.551699 0.633261 0.767423
C27_2 C 0.5193(5) 0.861(3) 0.7875(5)
H16_2 H 0.496336 0.768238 0.784379
C28_2 C 0.6236(5) 0.820(4) 0.7751(4)
O18_2 O 0.1234(3) 0.393(2) 0.7707(4)
O22_2 O 0.7328(3) 0.245(2) 0.7898(3)
C29_2 C 0.0152(5) 0.356(3) 0.6819(5)
C30_2 C 0.0097(5) 0.177(4) 0.6554(5)
C31_2 C 0.0408(5) 0.119(3) 0.6409(4)
C32_2 C 0.0777(4) 0.221(3) 0.6514(5)
H18_2 H 0.098876 0.176594 0.641356
C33_2 C 0.0838(5) 0.395(3) 0.6773(5)
C34_2 C 0.0531(4) 0.456(3) 0.6913(5)
H19_3 H 0.057670 0.571731 0.708586
H23_3 H 0.002611 0.731250 0.714221
C49_3 C 0.1240(5) 0.513(3) 0.6869(5)
C50_3 C 0.1263(4) 0.731(3) 0.7013(5)
H28_3 H 0.103194 0.803224 0.705197
C51_3 C 0.1624(5) 0.835(3) 0.7093(4)
H29_3 H 0.164246 0.983253 0.718702
C52_3 C 0.1975(4) 0.731(3) 0.7043(4)
C53_3 C 0.1930(4) 0.523(3) 0.6898(4)
H30_2 H 0.215652 0.451704 0.684915
C54_2 C 0.1584(5) 0.417(3) 0.6823(5)
H31_2 H 0.157372 0.267850 0.673357
C55_3 C 0.2376(4) 0.857(3) 0.7124(4)
O4_2 O 0.2624(3) 0.053(2) 0.2788(3)
O15 O 0.6542(3) 0.5575(19) 0.2784(3)
O3_3 O 0.2342(3) 0.732(2) 0.2943(3)
O5_3 O 0.6249(3) 0.889(2) 0.2695(3)
C1_3 C 0.4612(5) 0.111(3) 0.3574(4)
C2_3 C 0.4250(5) 0.223(3) 0.3490(4)
H1_3 H 0.404981 0.182670 0.360676
C3_3 C 0.4175(4) 0.387(3) 0.3248(4)
C4_3 C 0.4488(5) 0.447(3) 0.3087(4)
H2_3 H 0.443739 0.562642 0.291359
C6_3 C 0.4856(4) 0.348(3) 0.3168(4)
C7_3 C 0.4925(5) 0.176(3) 0.3433(5)
H4_3 H 0.518031 0.107521 0.351068
H5_3 H 0.432166 0.032485 0.415267
C15_3 C 0.3784(4) 0.512(3) 0.3152(4)
C16_3 C 0.3740(5) 0.735(3) 0.3017(4)
H9_3 H 0.396657 0.811867 0.297948
C17_3 C 0.3389(4) 0.837(3) 0.2943(4)
H10_3 H 0.337174 0.986015 0.285454
C18_3 C 0.3026(5) 0.729(3) 0.2990(4)
C19_3 C 0.3058(4) 0.518(3) 0.3126(4)
H11_3 H 0.283075 0.444523 0.316982
C20_3 C 0.3432(5) 0.410(3) 0.3201(4)
H12_3 H 0.344918 0.260181 0.328838
C21_3 C 0.2648(5) 0.852(3) 0.2898(4)
C22_3 C 0.5184(5) 0.429(3) 0.3024(4)
C23_3 C 0.5519(5) 0.299(3) 0.3033(5)
H13_3 H 0.552271 0.148590 0.311603
C24_3 C 0.5830(5) 0.372(3) 0.2933(5)
H14_3 H 0.605250 0.275013 0.295105
C25_3 C 0.5847(4) 0.584(3) 0.2805(4)
C26_3 C 0.5519(4) 0.720(3) 0.2769(4)
H15_3 H 0.551699 0.866739 0.267423
C27_3 C 0.5193(5) 0.639(3) 0.2875(5)
H16_3 H 0.496336 0.731762 0.284379
C28_3 C 0.6236(5) 0.680(4) 0.2751(4)
O14_2 O 0.7376(3) 0.553(2) 0.2212(3)
O1_3 O 0.5227(3) 0.258(2) 0.4607(4)
H3_3 H 0.670894 0.003720 0.456390
C8_3 C 0.4680(5) 0.927(3) 0.3842(5)
C9_3 C 0.4497(5) 0.916(4) 0.4120(5)
C10_3 C 0.4568(6) 0.741(4) 0.4341(7)
H6_3 H 0.442360 0.733841 0.451945
C11_3 C 0.4826(5) 0.575(3) 0.4331(5)
C12_3 C 0.5037(6) 0.577(4) 0.4063(5)
H7_3 H 0.522747 0.463647 0.405201
C13_3 C 0.4953(6) 0.751(3) 0.3813(5)
H8_3 H 0.507991 0.753139 0.362246
C14_3 C 0.4913(6) 0.372(4) 0.4591(5)
H17_3 H 0.984771 0.100695 0.648239
C35_3 C 0.9815(5) 0.432(3) 0.6963(5)
C36_3 C 0.9467(5) 0.303(4) 0.6921(5)
H20_3 H 0.945408 0.157325 0.681827
C37_3 C 0.9142(5) 0.386(4) 0.7030(5)
H21_3 H 0.891897 0.289080 0.701168
C38_3 C 0.9121(4) 0.592(3) 0.7159(5)
C39_3 C 0.9468(6) 0.716(4) 0.7198(5)
H22_3 H 0.947698 0.863271 0.729332
C40_3 C 0.9797(4) 0.637(3) 0.7105(5)
C41_3 C 0.8752(4) 0.679(3) 0.7205(5)
H27_3 H 0.977174 0.009232 0.588734
H34_3 H 0.606972 0.091302 0.447086
O10_2 O 0.9794(4) 0.335(3) 0.5265(4)
C5_3 C 0.6521(10) 0.897(6) 0.4604(9)
C46_3 C 0.9933(6) 0.742(4) 0.5645(6)
H26_3 H 0.968683 0.735147 0.546968
C47_3 C 0.9986(6) 0.908(5) 0.5892(6)
N1_3 N 0.5870(9) 0.816(6) 0.4678(7)
C56_3 C 0.5982(7) 0.621(5) 0.4761(7)
H32_3 H 0.579712 0.512147 0.480108
C57_3 C 0.6346(9) 0.569(7) 0.4792(9)
H33_2 H 0.642490 0.427986 0.490040
C58_3 C 0.6632(7) 0.682(5) 0.4695(7)
C59_3 C 0.6156(9) 0.949(6) 0.4573(8)
C60_3 C 0.7033(5) 0.603(4) 0.4746(6)
N2_2 N 0.7134(6) 0.387(4) 0.4876(6)
N3_2 N 0.7518(7) 0.306(3) 0.4905(7)
C61_2 C 0.7801(5) 0.440(4) 0.4804(7)
N4_3 N 0.7700(6) 0.655(4) 0.4675(6)
N5_3 N 0.7316(6) 0.736(3) 0.4646(6)
N6_2 N 0.8948(5) 0.201(4) 0.4857(6)
C62_2 C 0.8850(5) 0.422(4) 0.4761(6)
H35_3 H 0.904450 0.519744 0.470741
C63_3 C 0.8466(6) 0.501(3) 0.4744(6)
H36_3 H 0.839893 0.652609 0.467779
C64_2 C 0.8181(5) 0.359(5) 0.4822(6)
C65_2 C 0.8280(7) 0.138(4) 0.4918(7)
H37_2 H 0.808487 0.040153 0.497192
C66_2 C 0.8663(8) 0.059(3) 0.4936(7)
O15_2 O 0.3458(3) 0.0575(19) 0.2216(3)
O3_4 O 0.7658(3) 0.232(2) 0.2057(3)
O5_4 O 0.3751(3) 0.389(2) 0.2305(3)
H2_4 H 0.556261 0.062642 0.208641
C15_4 C 0.6216(4) 0.012(3) 0.1848(4)
C16_4 C 0.6260(5) 0.235(3) 0.1983(4)
H9_4 H 0.603343 0.311867 0.202052
C17_4 C 0.6611(4) 0.337(3) 0.2057(4)
H10_4 H 0.662826 0.486015 0.214546
C18_4 C 0.6974(5) 0.229(3) 0.2010(4)
C19_4 C 0.6942(4) 0.018(3) 0.1874(4)
C21_4 C 0.7352(5) 0.352(3) 0.2102(4)
C25_4 C 0.4153(4) 0.084(3) 0.2195(4)
C26_4 C 0.4481(4) 0.220(3) 0.2231(4)
H15_4 H 0.448301 0.366739 0.232577
C27_4 C 0.4807(5) 0.139(3) 0.2125(5)
H16_4 H 0.503664 0.231762 0.215621
C28_4 C 0.3764(5) 0.180(4) 0.2249(4)
C1_4 C 0.5388(5) 0.611(3) 0.1426(4)
C2_4 C 0.5750(5) 0.723(3) 0.1510(4)
H1_4 H 0.595019 0.682670 0.139324
C3_4 C 0.5825(4) 0.887(3) 0.1752(4)
C4_4 C 0.5512(5) 0.947(3) 0.1913(4)
C6_4 C 0.5144(4) 0.848(3) 0.1832(4)
C7_4 C 0.5075(5) 0.676(3) 0.1567(5)
H4_4 H 0.481969 0.607521 0.148932
C8_4 C 0.5320(5) 0.427(3) 0.1158(5)
C9_4 C 0.5503(5) 0.416(4) 0.0880(5)
H5_4 H 0.567834 0.532485 0.084733
C10_4 C 0.5432(6) 0.241(4) 0.0659(7)
H6_4 H 0.557640 0.233841 0.048055
C11_4 C 0.5174(5) 0.075(3) 0.0669(5)
C12_4 C 0.4963(6) 0.077(4) 0.0937(5)
C13_4 C 0.5047(6) 0.251(3) 0.1187(5)
H8_4 H 0.492009 0.253139 0.137754
H11_4 H 0.716925 0.944523 0.183018
C20_4 C 0.6568(5) 0.910(3) 0.1799(4)
H12_4 H 0.655082 0.760181 0.171162
C22_4 C 0.4816(5) 0.929(3) 0.1976(4)
C23_4 C 0.4481(5) 0.799(3) 0.1967(5)
H13_4 H 0.447729 0.648590 0.188397
C24_4 C 0.4170(5) 0.872(3) 0.2067(5)
H14_4 H 0.394750 0.775013 0.204895
C38_4 C 0.0879(4) 0.092(3) 0.7841(5)
C39_4 C 0.0532(6) 0.216(4) 0.7802(5)
H22_4 H 0.052302 0.363271 0.770668
C40_4 C 0.0203(4) 0.137(3) 0.7895(5)
C41_4 C 0.1248(4) 0.179(3) 0.7795(5)
O1_4 O 0.4773(3) 0.758(2) 0.0393(4)
C5_4 C 0.3479(10) 0.397(6) 0.0396(9)
H3_4 H 0.329106 0.503720 0.043610
H7_4 H 0.477253 0.963647 0.094799
C14_4 C 0.5087(6) 0.872(4) 0.0409(5)
N1_4 N 0.4130(9) 0.316(6) 0.0322(7)
C56_4 C 0.4018(7) 0.121(5) 0.0239(7)
H32_4 H 0.420288 0.012147 0.019892
C57_4 C 0.3654(9) 0.069(7) 0.0208(9)
C58_4 C 0.3368(7) 0.182(5) 0.0305(7)
C59_4 C 0.3844(9) 0.449(6) 0.0427(8)
H34_4 H 0.393028 0.591302 0.052914
C60_4 C 0.2967(5) 0.103(4) 0.0254(6)
N4_4 N 0.2300(6) 0.155(4) 0.0325(6)
N5_4 N 0.2684(6) 0.236(3) 0.0354(6)
H35_4 H 0.095550 0.019744 0.029259
C63_4 C 0.1534(6) 0.001(3) 0.0256(6)
H36_4 H 0.160107 0.152609 0.032221
H17_4 H 0.015229 0.600695 0.851761
C35_4 C 0.0185(5) 0.932(3) 0.8037(5)
C36_4 C 0.0533(5) 0.803(4) 0.8079(5)
H20_4 H 0.054592 0.657325 0.818173
C37_4 C 0.0858(5) 0.886(4) 0.7970(5)
H21_4 H 0.108103 0.789080 0.798832
C46_4 C 0.0067(6) 0.242(4) 0.9355(6)
H26_4 H 0.031317 0.235147 0.953032
C47_4 C 0.0014(6) 0.408(5) 0.9108(6)
H27_4 H 0.022826 0.509232 0.911266
H19_4 H 0.942330 0.071731 0.791414
H23_4 H 0.997389 0.231250 0.785779
C49_4 C 0.8760(5) 0.013(3) 0.8131(5)
C50_4 C 0.8737(4) 0.231(3) 0.7987(5)
H28_4 H 0.896806 0.303224 0.794803
C51_4 C 0.8376(5) 0.335(3) 0.7907(4)
H29_4 H 0.835754 0.483253 0.781298
C52_4 C 0.8025(4) 0.231(3) 0.7957(4)
C53_4 C 0.8070(4) 0.023(3) 0.8102(4)
C55_4 C 0.7624(4) 0.357(3) 0.7876(4)
O9 O 0.9546(4) 0.720(2) 0.4629(4)
C42_2 C 0.9660(5) 0.064(3) 0.3851(5)
C43_2 C 0.9339(7) 0.201(4) 0.3895(6)
H24_2 H 0.907747 0.170891 0.375328
C44_2 C 0.9392(7) 0.373(3) 0.4131(5)
H25_2 H 0.916892 0.463053 0.414191
C45_2 C 0.9773(5) 0.421(4) 0.4362(5)
C48_2 C 0.9846(5) 0.621(3) 0.4588(5)
H38_2 H 0.873044 0.907284 0.500155
O9_2 O 0.0454(4) 0.220(2) 0.0371(4)
C48_3 C 0.0154(5) 0.121(3) 0.0412(5)
Ag7_2 Ag 0.04023(6) 0.5486(4) 0.01002(7)
H33_3 H 0.357510 0.927986 0.009960
N2_3 N 0.2866(6) 0.887(4) 0.0124(6)
N3_3 N 0.2482(7) 0.806(3) 0.0095(7)
C61_3 C 0.2199(5) 0.940(4) 0.0196(7)
N6_3 N 0.1052(5) 0.701(4) 0.0143(6)
C62_3 C 0.1150(5) 0.922(4) 0.0239(6)
C64_3 C 0.1819(5) 0.859(5) 0.0178(6)
C65_3 C 0.1720(7) 0.638(4) 0.0082(7)
H37_3 H 0.191513 0.540153 0.002808
C66_3 C 0.1337(8) 0.559(3) 0.0064(7)
C29_3 C 0.0152(5) 0.144(3) 0.1819(5)
C30_3 C 0.0097(5) 0.323(4) 0.1554(5)
C31_3 C 0.0408(5) 0.381(3) 0.1409(4)
C32_3 C 0.0777(4) 0.279(3) 0.1514(5)
H18_3 H 0.098876 0.323406 0.141356
C33_3 C 0.0838(5) 0.105(3) 0.1773(5)
C34_3 C 0.0531(4) 0.044(3) 0.1913(5)
C42_3 C 0.0340(5) 0.564(3) 0.1149(5)
C43_3 C 0.0661(7) 0.701(4) 0.1105(6)
H24_3 H 0.092253 0.670891 0.124672
C44_3 C 0.0608(7) 0.873(3) 0.0869(5)
H25_3 H 0.083108 0.963053 0.085809
C45_3 C 0.0227(5) 0.921(4) 0.0638(5)
H30_3 H 0.215652 0.048296 0.184915
C54_3 C 0.1584(5) 0.083(3) 0.1823(5)
H31_3 H 0.157372 0.232150 0.173357
O10_3 O 0.9794(4) 0.165(3) 0.0265(4)
H38_3 H 0.873044 0.592716 0.000155
Ag1_2 Ag 0.95977(6) 0.4514(4) 0.98998(7)
H33_4 H 0.642490 0.072014 0.990040
N2_4 N 0.7134(6) 0.113(4) 0.9876(6)
N3_4 N 0.7518(7) 0.194(3) 0.9905(7)
C61_4 C 0.7801(5) 0.060(4) 0.9804(7)
N6_4 N 0.8948(5) 0.299(4) 0.9857(6)
C62_4 C 0.8850(5) 0.078(4) 0.9761(6)
C64_4 C 0.8181(5) 0.141(5) 0.9822(6)
C65_4 C 0.8280(7) 0.362(4) 0.9918(7)
H37_4 H 0.808487 0.459847 0.997192
C66_4 C 0.8663(8) 0.441(3) 0.9936(7)
O19_2 O 0.9546(4) 0.780(2) 0.9629(4)
C48_4 C 0.9846(5) 0.879(3) 0.9588(5)
O10_4 O 0.0206(4) 0.835(3) 0.9735(4)
H38_4 H 0.126956 0.407284 0.999845
C29_4 C 0.9848(5) 0.856(3) 0.8181(5)
C30_4 C 0.9903(5) 0.677(4) 0.8446(5)
C31_4 C 0.9592(5) 0.619(3) 0.8591(4)
C32_4 C 0.9223(4) 0.721(3) 0.8486(5)
H18_4 H 0.901124 0.676594 0.858644
C33_4 C 0.9162(5) 0.895(3) 0.8227(5)
C34_4 C 0.9469(4) 0.956(3) 0.8087(5)
C42_4 C 0.9660(5) 0.436(3) 0.8851(5)
C43_4 C 0.9339(7) 0.299(4) 0.8895(6)
H24_4 H 0.907747 0.329109 0.875328
C44_4 C 0.9392(7) 0.127(3) 0.9131(5)
H25_4 H 0.916892 0.036947 0.914191
C45_4 C 0.9773(5) 0.079(4) 0.9362(5)
H30_4 H 0.784348 0.951704 0.815085
C54_4 C 0.8416(5) 0.917(3) 0.8177(5)
H31_4 H 0.842628 0.767850 0.826643
loop_
_geom_bond_atom_site_label_1
_geom_bond_atom_site_label_2
_geom_bond_site_symmetry_1
_geom_bond_site_symmetry_2
O19 C48 1_555 1_555
C43 C42 1_555 1_555
H24 C43 1_555 1_555
C44 C43 1_555 1_555
H25 C44 1_555 1_555
C45 C44 1_555 1_555
C48 C45 1_555 1_555
Ag1 O10 1_555 1_555
H26 C46 1_555 1_555
N1 Ag2 1_555 1_555
C56 N1 1_555 1_555
H32 C56 1_555 1_555
C57 C56 1_555 1_555
H33 C57 1_555 1_555
C58 C5 1_555 1_555
C59 C5 1_555 1_555
C60 C58 1_555 1_555
N2 C60 1_555 1_555
N3 N2 1_555 1_555
C61 N3 1_555 1_555
N4 C61 1_555 1_555
N5 C60 1_555 1_555
N6 Ag1 1_555 1_555
C62 N6 1_555 1_555
H35 C62 1_555 1_555
C63 C62 1_555 1_555
H36 C63 1_555 1_555
C64 C61 1_555 1_555
C65 C64 1_555 1_555
H37 C65 1_555 1_555
C66 N6 1_555 1_555
O13 Ag2 1_555 1_555
C46 C47 1_555 1_555
N1 C59 1_555 1_555
C57 C58 1_555 1_555
N4 N5 1_555 1_555
C63 C64 1_555 1_555
C65 C66 1_555 1_555
O1 C14 1_555 1_555
O2 C14 1_555 1_555
O7 C41 1_555 1_555
O8 C41 1_555 1_555
C9 C8 1_555 1_555
C10 C9 1_555 1_555
H6 C10 1_555 1_555
C11 C10 1_555 1_555
C12 C11 1_555 1_555
H7 C12 1_555 1_555
C13 C8 1_555 1_555
H8 C13 1_555 1_555
C14 C11 1_555 1_555
C36 C35 1_555 1_555
H20 C36 1_555 1_555
C37 C36 1_555 1_555
H21 C37 1_555 1_555
C38 C37 1_555 1_555
C39 C38 1_555 1_555
H22 C39 1_555 1_555
C40 C35 1_555 1_555
C41 C38 1_555 1_555
Ag9 O7 1_555 1_555
Ag12 O7 1_555 1_555
O2 Ag8 1_555 1_555
C12 C13 1_555 1_555
C39 C40 1_555 1_555
Ag4 O3 1_555 1_555
O3 C21 1_555 1_555
O5 C28 1_555 1_555
O6 Ag5 1_555 1_555
C1 C2 1_555 1_555
C2 H1 1_555 1_555
C3 C2 1_555 1_555
C4 C3 1_555 1_555
H2 C4 1_555 1_555
C6 C4 1_555 1_555
C7 C1 1_555 1_555
H4 C7 1_555 1_555
C15 C3 1_555 1_555
C16 C15 1_555 1_555
H9 C16 1_555 1_555
C17 C16 1_555 1_555
H10 C17 1_555 1_555
C18 C17 1_555 1_555
C19 C18 1_555 1_555
H11 C19 1_555 1_555
C20 C15 1_555 1_555
H12 C20 1_555 1_555
C22 C6 1_555 1_555
C23 C22 1_555 1_555
H13 C23 1_555 1_555
C24 C23 1_555 1_555
H14 C24 1_555 1_555
C25 C24 1_555 1_555
C26 C25 1_555 1_555
H15 C26 1_555 1_555
C27 C22 1_555 1_555
H16 C27 1_555 1_555
C28 O6 1_555 1_555
Ag15 O6 1_555 1_555
O14 Ag5 1_555 1_555
O17 Ag4 1_555 1_555
O20 Ag5 1_555 1_555
C6 C7 1_555 1_555
C18 C21 1_555 1_555
C19 C20 1_555 1_555
C25 C28 1_555 1_555
C26 C27 1_555 1_555
O4 Ag3 1_555 1_555
Ag13 O4 1_555 1_555
O17 Ag3 1_555 1_555
O21 Ag3 1_555 1_555
O22 Ag15 1_555 1_555
Ag13 O21 1_555 1_555
O12 C55 1_555 1_555
C29 C30 1_555 1_555
C31 C30 1_555 1_555
C32 C31 1_555 1_555
H18 C32 1_555 1_555
C33 C32 1_555 1_555
C34 C29 1_555 1_555
H19 C34 1_555 1_555
C49 C33 1_555 1_555
C50 C49 1_555 1_555
H28 C50 1_555 1_555
C51 C50 1_555 1_555
H29 C51 1_555 1_555
C52 C51 1_555 1_555
C53 C52 1_555 1_555
H30 C53 1_555 1_555
C54 C49 1_555 1_555
H31 C54 1_555 1_555
C55 C52 1_555 1_555
Ag16 O12 1_555 1_555
C33 C34 1_555 1_555
C53 C54 1_555 1_555
Ag10 O11 1_555 1_555
Ag14 O11 1_555 1_555
O11_2 C55_2 1_555 1_555
O12_2 C55_2 1_555 1_555
C50_2 C49_2 1_555 1_555
H28_2 C50_2 1_555 1_555
C51_2 C50_2 1_555 1_555
H29_2 C51_2 1_555 1_555
C52_2 C51_2 1_555 1_555
C53_2 C52_2 1_555 1_555
C55_2 C52_2 1_555 1_555
Ag9 O11_2 1_555 1_555
Ag14_2 O11_2 1_555 1_555
Ag16_2 O12_2 1_555 1_555
Ag14_2 Ag16_2 1_555 1_555
C36_2 C35_2 1_555 1_555
H20_2 C36_2 1_555 1_555
C37_2 C36_2 1_555 1_555
H21_2 C37_2 1_555 1_555
H26_2 C46_2 1_555 1_555
H27_2 C47_2 1_555 1_555
C46_2 C47_2 1_555 1_555
Ag2_2 O1_2 1_555 1_555
O1_2 C14_2 1_555 1_555
O2_2 C14_2 1_555 1_555
C5_2 H3_2 1_555 1_555
N1_2 Ag2_2 1_555 1_555
C56_2 N1_2 1_555 1_555
H32_2 C56_2 1_555 1_555
C57_2 C56_2 1_555 1_555
C58_2 C5_2 1_555 1_555
C59_2 C5_2 1_555 1_555
H34_2 C59_2 1_555 1_555
C60_2 C58_2 1_555 1_555
N5_2 C60_2 1_555 1_555
H36_2 C63_2 1_555 1_555
N1_2 C59_2 1_555 1_555
C57_2 C58_2 1_555 1_555
N4_2 N5_2 1_555 1_555
O7_2 C41_2 1_555 1_555
O8_2 C41_2 1_555 1_555
C39_2 C38_2 1_555 1_555
H22_2 C39_2 1_555 1_555
C41_2 C38_2 1_555 1_555
Ag10 O7_2 1_555 1_555
Ag12_2 O8_2 1_555 1_555
C39_2 C40_2 1_555 1_555
Ag10 Ag12_2 1_555 1_555
C1_2 C2_2 1_555 1_555
C2_2 H1_2 1_555 1_555
C3_2 C2_2 1_555 1_555
C4_2 C3_2 1_555 1_555
C6_2 C4_2 1_555 1_555
C7_2 C1_2 1_555 1_555
H4_2 C7_2 1_555 1_555
C8_2 C1_2 1_555 1_555
C9_2 C8_2 1_555 1_555
H5_2 C9_2 1_555 1_555
C10_2 C9_2 1_555 1_555
H6_2 C10_2 1_555 1_555
C11_2 C10_2 1_555 1_555
C12_2 C11_2 1_555 1_555
C13_2 C8_2 1_555 1_555
H8_2 C13_2 1_555 1_555
H12_2 C20_2 1_555 1_555
C22_2 C6_2 1_555 1_555
C23_2 C22_2 1_555 1_555
H13_2 C23_2 1_555 1_555
C24_2 C23_2 1_555 1_555
H14_2 C24_2 1_555 1_555
C6_2 C7_2 1_555 1_555
C12_2 C13_2 1_555 1_555
Ag3_2 Ag4_2 1_555 1_555
Ag4_2 O3_2 1_555 1_555
Ag13 Ag15_2 1_555 1_555
Ag15_2 O5_2 1_555 1_555
O3_2 C21_2 1_555 1_555
O14 Ag3_2 1_555 1_555
O5_2 C28_2 1_555 1_555
O6_2 Ag13 1_555 1_555
C16_2 C15_2 1_555 1_555
H9_2 C16_2 1_555 1_555
C17_2 C16_2 1_555 1_555
H10_2 C17_2 1_555 1_555
C18_2 C17_2 1_555 1_555
C19_2 C18_2 1_555 1_555
C21_2 O14 1_555 1_555
C26_2 C25_2 1_555 1_555
H15_2 C26_2 1_555 1_555
H16_2 C27_2 1_555 1_555
C28_2 O6_2 1_555 1_555
O17_2 Ag3_2 1_555 1_555
O18_2 Ag4_2 1_555 1_555
O20 Ag3_2 1_555 1_555
O22_2 Ag15_2 1_555 1_555
C18_2 C21_2 1_555 1_555
C25_2 C28_2 1_555 1_555
C26_2 C27_2 1_555 1_555
O22 C55_3 1_555 1_555
C29_2 C30_2 1_555 1_555
C31_2 C30_2 1_555 1_555
C32_2 C31_2 1_555 1_555
H18_2 C32_2 1_555 1_555
C33_2 C32_2 1_555 1_555
C34_2 C29_2 1_555 1_555
H19_3 C34_2 1_555 1_555
C49_3 C33_2 1_555 1_555
C50_3 C49_3 1_555 1_555
H28_3 C50_3 1_555 1_555
C51_3 C50_3 1_555 1_555
H29_3 C51_3 1_555 1_555
C52_3 C51_3 1_555 1_555
C53_3 C52_3 1_555 1_555
H30_2 C53_3 1_555 1_555
C54_2 C49_3 1_555 1_555
H31_2 C54_2 1_555 1_555
C55_3 C52_3 1_555 1_555
C33_2 C34_2 1_555 1_555
C53_3 C54_2 1_555 1_555
O4_2 Ag9 1_555 1_555
Ag14_2 O4_2 1_555 1_555
O15 Ag16 1_555 1_555
Ag12 O3_3 1_555 1_555
O3_3 C21_3 1_555 1_555
O5_3 C28_3 1_555 1_555
O15 Ag14 1_555 1_555
C1_3 C2_3 1_555 1_555
C2_3 H1_3 1_555 1_555
C3_3 C2_3 1_555 1_555
C4_3 C3_3 1_555 1_555
H2_3 C4_3 1_555 1_555
C6_3 C4_3 1_555 1_555
C7_3 C1_3 1_555 1_555
H4_3 C7_3 1_555 1_555
C15_3 C3_3 1_555 1_555
C16_3 C15_3 1_555 1_555
H9_3 C16_3 1_555 1_555
C17_3 C16_3 1_555 1_555
H10_3 C17_3 1_555 1_555
C18_3 C17_3 1_555 1_555
C19_3 C18_3 1_555 1_555
H11_3 C19_3 1_555 1_555
C20_3 C15_3 1_555 1_555
H12_3 C20_3 1_555 1_555
C22_3 C6_3 1_555 1_555
C23_3 C22_3 1_555 1_555
H13_3 C23_3 1_555 1_555
C24_3 C23_3 1_555 1_555
H14_3 C24_3 1_555 1_555
C25_3 C24_3 1_555 1_555
C26_3 C25_3 1_555 1_555
H15_3 C26_3 1_555 1_555
C27_3 C22_3 1_555 1_555
H16_3 C27_3 1_555 1_555
C28_3 O15 1_555 1_555
O14_2 Ag14 1_555 1_555
C6_3 C7_3 1_555 1_555
C18_3 C21_3 1_555 1_555
C19_3 C20_3 1_555 1_555
C25_3 C28_3 1_555 1_555
C26_3 C27_3 1_555 1_555
O1_3 C14_3 1_555 1_555
O13 C14_3 1_555 1_555
O17 C41_3 1_555 1_555
O18 C41_3 1_555 1_555
C9_3 C8_3 1_555 1_555
C10_3 C9_3 1_555 1_555
H6_3 C10_3 1_555 1_555
C11_3 C10_3 1_555 1_555
C12_3 C11_3 1_555 1_555
H7_3 C12_3 1_555 1_555
C13_3 C8_3 1_555 1_555
H8_3 C13_3 1_555 1_555
C14_3 C11_3 1_555 1_555
C36_3 C35_3 1_555 1_555
H20_3 C36_3 1_555 1_555
C37_3 C36_3 1_555 1_555
H21_3 C37_3 1_555 1_555
C38_3 C37_3 1_555 1_555
C39_3 C38_3 1_555 1_555
H22_3 C39_3 1_555 1_555
C40_3 C35_3 1_555 1_555
C41_3 C38_3 1_555 1_555
C12_3 C13_3 1_555 1_555
C39_3 C40_3 1_555 1_555
Ag7 O10_2 1_555 1_555
H26_3 C46_3 1_555 1_555
N1_3 Ag8 1_555 1_555
C56_3 N1_3 1_555 1_555
H32_3 C56_3 1_555 1_555
C57_3 C56_3 1_555 1_555
H33_2 C57_3 1_555 1_555
C58_3 C5_3 1_555 1_555
C59_3 C5_3 1_555 1_555
C60_3 C58_3 1_555 1_555
N2_2 C60_3 1_555 1_555
N3_2 N2_2 1_555 1_555
C61_2 N3_2 1_555 1_555
N4_3 C61_2 1_555 1_555
N5_3 C60_3 1_555 1_555
N6_2 Ag7 1_555 1_555
C62_2 N6_2 1_555 1_555
H35_3 C62_2 1_555 1_555
C63_3 C62_2 1_555 1_555
H36_3 C63_3 1_555 1_555
C64_2 C61_2 1_555 1_555
C65_2 C64_2 1_555 1_555
H37_2 C65_2 1_555 1_555
C66_2 N6_2 1_555 1_555
C46_3 C47_3 1_555 1_555
N1_3 C59_3 1_555 1_555
C57_3 C58_3 1_555 1_555
N4_3 N5_3 1_555 1_555
C63_3 C64_2 1_555 1_555
C65_2 C66_2 1_555 1_555
Ag12_2 O3_4 1_555 1_555
Ag16_2 O5_4 1_555 1_555
O3_4 C21_4 1_555 1_555
O14_2 Ag10 1_555 1_555
O5_4 C28_4 1_555 1_555
O15_2 Ag14_2 1_555 1_555
C16_4 C15_4 1_555 1_555
H9_4 C16_4 1_555 1_555
C17_4 C16_4 1_555 1_555
H10_4 C17_4 1_555 1_555
C18_4 C17_4 1_555 1_555
C19_4 C18_4 1_555 1_555
C21_4 O14_2 1_555 1_555
C26_4 C25_4 1_555 1_555
H15_4 C26_4 1_555 1_555
H16_4 C27_4 1_555 1_555
C28_4 O15_2 1_555 1_555
C18_4 C21_4 1_555 1_555
C25_4 C28_4 1_555 1_555
C26_4 C27_4 1_555 1_555
C1_4 C2_4 1_555 1_555
C2_4 H1_4 1_555 1_555
C3_4 C2_4 1_555 1_555
C4_4 C3_4 1_555 1_555
C6_4 C4_4 1_555 1_555
C7_4 C1_4 1_555 1_555
H4_4 C7_4 1_555 1_555
C8_4 C1_4 1_555 1_555
C9_4 C8_4 1_555 1_555
H5_4 C9_4 1_555 1_555
C10_4 C9_4 1_555 1_555
H6_4 C10_4 1_555 1_555
C11_4 C10_4 1_555 1_555
C12_4 C11_4 1_555 1_555
C13_4 C8_4 1_555 1_555
H8_4 C13_4 1_555 1_555
H12_4 C20_4 1_555 1_555
C22_4 C6_4 1_555 1_555
C23_4 C22_4 1_555 1_555
H13_4 C23_4 1_555 1_555
C24_4 C23_4 1_555 1_555
H14_4 C24_4 1_555 1_555
C6_4 C7_4 1_555 1_555
C12_4 C13_4 1_555 1_555
O17_2 C41_4 1_555 1_555
O18_2 C41_4 1_555 1_555
C39_4 C38_4 1_555 1_555
H22_4 C39_4 1_555 1_555
C41_4 C38_4 1_555 1_555
C39_4 C40_4 1_555 1_555
Ag8_2 O1_4 1_555 1_555
O1_4 C14_4 1_555 1_555
O13_2 C14_4 1_555 1_555
C5_4 H3_4 1_555 1_555
N1_4 Ag8_2 1_555 1_555
C56_4 N1_4 1_555 1_555
H32_4 C56_4 1_555 1_555
C57_4 C56_4 1_555 1_555
C58_4 C5_4 1_555 1_555
C59_4 C5_4 1_555 1_555
H34_4 C59_4 1_555 1_555
C60_4 C58_4 1_555 1_555
N5_4 C60_4 1_555 1_555
H36_4 C63_4 1_555 1_555
N1_4 C59_4 1_555 1_555
C57_4 C58_4 1_555 1_555
N4_4 N5_4 1_555 1_555
C36_4 C35_4 1_555 1_555
H20_4 C36_4 1_555 1_555
C37_4 C36_4 1_555 1_555
H21_4 C37_4 1_555 1_555
H26_4 C46_4 1_555 1_555
H27_4 C47_4 1_555 1_555
C46_4 C47_4 1_555 1_555
O21 C55_4 1_555 1_555
O22_2 C55_4 1_555 1_555
C50_4 C49_4 1_555 1_555
H28_4 C50_4 1_555 1_555
C51_4 C50_4 1_555 1_555
H29_4 C51_4 1_555 1_555
C52_4 C51_4 1_555 1_555
C53_4 C52_4 1_555 1_555
C55_4 C52_4 1_555 1_555
O9 C48_2 1_555 1_555
C43_2 C42_2 1_555 1_555
H24_2 C43_2 1_555 1_555
C44_2 C43_2 1_555 1_555
H25_2 C44_2 1_555 1_555
C45_2 C44_2 1_555 1_555
C48_2 C45_2 1_555 1_555
O9_2 C48_3 1_555 1_555
O9_2 Ag7_2 1_555 1_555
N3_3 N2_3 1_555 1_555
C61_3 N3_3 1_555 1_555
N6_3 Ag7_2 1_555 1_555
C62_3 N6_3 1_555 1_555
C64_3 C61_3 1_555 1_555
C65_3 C64_3 1_555 1_555
H37_3 C65_3 1_555 1_555
C66_3 N6_3 1_555 1_555
C65_3 C66_3 1_555 1_555
C29_3 C30_3 1_555 1_555
C31_3 C30_3 1_555 1_555
C32_3 C31_3 1_555 1_555
H18_3 C32_3 1_555 1_555
C33_3 C32_3 1_555 1_555
C34_3 C29_3 1_555 1_555
C42_3 C31_3 1_555 1_555
C43_3 C42_3 1_555 1_555
H24_3 C43_3 1_555 1_555
C44_3 C43_3 1_555 1_555
H25_3 C44_3 1_555 1_555
C45_3 C44_3 1_555 1_555
H31_3 C54_3 1_555 1_555
C33_3 C34_3 1_555 1_555
N3_4 N2_4 1_555 1_555
C61_4 N3_4 1_555 1_555
N6_4 Ag1_2 1_555 1_555
C62_4 N6_4 1_555 1_555
C64_4 C61_4 1_555 1_555
C65_4 C64_4 1_555 1_555
H37_4 C65_4 1_555 1_555
C66_4 N6_4 1_555 1_555
O19_2 Ag1_2 1_555 1_555
C65_4 C66_4 1_555 1_555
O19_2 C48_4 1_555 1_555
C29_4 C30_4 1_555 1_555
C31_4 C30_4 1_555 1_555
C32_4 C31_4 1_555 1_555
H18_4 C32_4 1_555 1_555
C33_4 C32_4 1_555 1_555
C34_4 C29_4 1_555 1_555
C42_4 C31_4 1_555 1_555
C43_4 C42_4 1_555 1_555
H24_4 C43_4 1_555 1_555
C44_4 C43_4 1_555 1_555
H25_4 C44_4 1_555 1_555
C45_4 C44_4 1_555 1_555
H31_4 C54_4 1_555 1_555
C33_4 C34_4 1_555 1_555

#END
