
###############################################################################
#
# This file contains modified crystal structure data generated from the
# MOF subset of the Cambridge Structural Database (CSD) v543 
# hosted by the Cambridge Crystallographic Data Centre (CCDC).
#
# This work is licensed under the Creative Commons
# Attribution-NonCommercial-ShareAlike 4.0 International License.
# To view a copy of this license, visit
# http://creativecommons.org/licenses/by-nc-sa/4.0/
# or send a letter to
# Creative Commons, PO Box 1866, Mountain View, CA 94042, USA.
#
# CIF created using the CSD Python API on 29 September 2022
# The structure has been converted into the P1 space group
# The structure has a 3D framework
# The original CSD entry SUMREA is in the monoclinic crystal system
# The original CSD entry SUMREA is in a Sohncke space group
# The framework has been calculated to contain at least 10.0% void space
# The void calculation uses a probe of radius 1.32A, grid spacing 0.4
#
###############################################################################

data_SUMREA
_chemical_formula_moiety         '(C264 H152 Ag21 N8 O46)n'
_symmetry_cell_setting           triclinic
_symmetry_space_group_name_H-M   'P 1'
_symmetry_Int_Tables_number      1
_space_group_name_Hall           'P 1'
loop_
_symmetry_equiv_pos_site_id
_symmetry_equiv_pos_as_xyz
1 x,y,z
_cell_length_a                   34.592(7)
_cell_length_b                   6.2570(13)
_cell_length_c                   35.505(18)
_cell_angle_alpha                90
_cell_angle_beta                 107.21(3)
_cell_angle_gamma                90
_cell_volume                     7340.71
loop_
_atom_site_label
_atom_site_type_symbol
_atom_site_fract_x
_atom_site_fract_y
_atom_site_fract_z
Ag1 Ag 0.28150(4) 0.5404(2) 0.49419(5)
Ag2 Ag 0.20857(4) 0.6092(2) 0.50929(5)
O1 O 0.2864(3) 0.261(2) 0.5323(3)
O2 O 0.2250(4) 0.2910(18) 0.5356(4)
C13 C 0.2553(5) 0.208(2) 0.5428(4)
N1 N 0.1407(3) 0.615(3) 0.5119(4)
C55 C 0.1162(5) 0.788(2) 0.4960(5)
H31 H 0.126975 0.90564 0.486573
C56 C 0.0754(5) 0.786(3) 0.4941(5)
H32 H 0.059028 0.90213 0.483437
C57 C 0.0593(4) 0.611(4) 0.5081(5)
C58 C 0.0838(6) 0.437(3) 0.5241(5)
H33 H 0.072969 0.32006 0.533484
C59 C 0.1245(5) 0.440(2) 0.5260(4)
H34 H 0.140916 0.32356 0.536620
C60 C 0.0168(6) 0.647(4) 0.5004(7)
O32 O 0.2106(3) 0.8706(15) 0.4698(3)
O34 O 0.2715(3) 0.8300(15) 0.4620(3)
C125 C 0.2373(5) 0.932(2) 0.4568(4)
C1 C 0.2839(3) 0.4381(19) 0.6370(3)
C2 C 0.3204(3) 0.3208(18) 0.6460(3)
H1 H 0.340938 0.366547 0.635960
C3 C 0.3268(3) 0.1275(18) 0.6710(3)
C4 C 0.2986(4) 0.0711(19) 0.6885(4)
C5 C 0.2591(3) 0.1681(18) 0.6772(3)
C6 C 0.2539(4) 0.358(2) 0.6527(4)
H3 H 0.229428 0.430913 0.647121
C7 C 0.2771(3) 0.6215(18) 0.6119(3)
C8 C 0.3079(4) 0.702(2) 0.5988(4)
H4 H 0.333458 0.639783 0.605141
C9 C 0.2981(4) 0.885(2) 0.5752(4)
H5 H 0.318464 0.939355 0.565820
C10 C 0.2637(4) 0.988(2) 0.5647(4)
C11 C 0.2360(4) 0.910(2) 0.5833(4)
H6 H 0.211929 0.986376 0.579043
C12 C 0.2407(4) 0.731(2) 0.6075(4)
H7 H 0.221583 0.687468 0.619628
C14 C 0.3668(4) 0.023(2) 0.6806(4)
C18 C 0.4371(4) 0.016(2) 0.6820(4)
H10 H 0.459466 0.090786 0.679647
C19 C 0.4002(3) 0.114(2) 0.6739(4)
H11 H 0.397618 0.251266 0.663200
C21 C 0.2297(4) 0.096(2) 0.6950(4)
C22 C 0.1969(5) 0.201(2) 0.6986(5)
H12 H 0.197452 0.345933 0.693037
C23 C 0.1645(3) 0.147(3) 0.7080(5)
H13 H 0.145111 0.247098 0.709672
O26 O 0.0169(2) 0.0054(15) 0.7844(3)
Ag3 Ag 0.53300(4) 0.2685(3) 0.71532(5)
Ag4 Ag 0.57175(4) 0.6790(3) 0.71660(4)
Ag5 Ag 0.03952(4) 0.8267(2) 0.73069(4)
Ag6 Ag 0.07567(4) 0.4283(3) 0.72178(4)
O3 O 0.4831(2) 0.5054(15) 0.7156(3)
O4 O 0.5117(3) 0.8042(16) 0.7008(3)
O5 O 0.0967(3) 0.9654(16) 0.7220(3)
O6 O 0.1248(2) 0.6330(18) 0.7262(3)
H2 H 0.304801 0.967894 0.708267
C15 C 0.3711(4) 0.816(2) 0.6916(4)
H8 H 0.348740 0.740307 0.693826
C16 C 0.4080(3) 0.716(2) 0.6996(4)
H9 H 0.410304 0.577582 0.709672
C17 C 0.4408(3) 0.8068(19) 0.6937(3)
C20 C 0.4831(4) 0.695(2) 0.7040(3)
C24 C 0.1607(4) 0.933(2) 0.7154(5)
C25 C 0.1932(4) 0.803(3) 0.7164(4)
H14 H 0.193669 0.660352 0.723544
C26 C 0.2270(3) 0.900(3) 0.7056(4)
H15 H 0.248895 0.811760 0.706576
C27 C 0.1249(6) 0.846(3) 0.7218(5)
O12 O 0.0139(2) 0.3182(15) 0.7054(3)
N2 N 0.5094(5) 0.242(3) 0.6374(3)
C61 C 0.4901(5) 0.413(2) 0.6145(4)
H35 H 0.478943 0.521628 0.625884
C62 C 0.4873(5) 0.422(2) 0.5747(4)
H36 H 0.474376 0.536168 0.559413
C63 C 0.5039(5) 0.259(3) 0.5577(3)
C64 C 0.5233(5) 0.088(2) 0.5806(4)
C65 C 0.5260(5) 0.079(2) 0.6204(4)
C66 C 0.5008(8) 0.267(4) 0.5148(4)
N4 N 0.4906(5) 0.242(3) 0.3626(3)
C73 C 0.5099(5) 0.413(2) 0.3855(4)
H43 H 0.521057 0.521628 0.374116
C74 C 0.5127(5) 0.422(2) 0.4253(4)
H44 H 0.525624 0.536168 0.440587
C75 C 0.4961(5) 0.259(3) 0.4423(3)
C76 C 0.4767(5) 0.088(2) 0.4194(4)
C77 C 0.4740(5) 0.079(2) 0.3796(4)
C78 C 0.4992(8) 0.267(4) 0.4852(4)
O19 O 0.4051(3) 0.144(2) 0.2807(3)
O20 O 0.3773(3) 0.468(2) 0.2790(3)
O23 O 0.0134(3) 0.6113(19) 0.2779(3)
C111 C 0.1997(3) 0.0424(19) 0.3099(3)
H64 H 0.195210 0.159470 0.293019
C112 C 0.2721(3) 0.020(2) 0.3061(3)
C115 C 0.3378(4) 0.196(2) 0.2862(4)
C116 C 0.3045(3) 0.310(2) 0.2852(4)
H67 H 0.304933 0.454269 0.278942
C117 C 0.2700(4) 0.238(2) 0.2925(4)
H68 H 0.247140 0.322590 0.288970
C118 C 0.3790(4) 0.274(3) 0.2797(4)
C126 C 0.1297(3) 0.0942(17) 0.3176(3)
C127 C 0.1253(3) 0.299(2) 0.3027(3)
H73 H 0.147398 0.368003 0.298365
C128 C 0.0871(3) 0.4066(19) 0.2938(3)
H74 H 0.084486 0.547226 0.284936
C129 C 0.0558(3) 0.302(2) 0.2985(4)
C130 C 0.0573(3) 0.100(2) 0.3088(5)
H75 H 0.033550 0.029109 0.308421
C132 C 0.0152(4) 0.432(3) 0.2876(4)
Ag18 Ag 0.46700(4) 0.2685(3) 0.28468(5)
Ag19 Ag 0.03300(4) 0.7685(3) 0.21532(5)
Ag22 Ag 0.42825(4) 0.6790(3) 0.28340(4)
Ag24 Ag 0.46048(4) 0.3267(2) 0.76931(4)
O27 O 0.5949(3) 0.144(2) 0.7193(3)
O29 O 0.6227(3) 0.468(2) 0.7210(3)
O36 O 0.5134(3) 0.1113(19) 0.7779(3)
C79 C 0.7161(3) 0.4381(19) 0.3630(3)
C80 C 0.6796(3) 0.3208(18) 0.3540(3)
H47 H 0.659062 0.366547 0.364040
C81 C 0.6732(3) 0.1275(18) 0.3290(3)
C82 C 0.7014(4) 0.0711(19) 0.3115(4)
C83 C 0.7409(3) 0.1681(18) 0.3228(3)
C84 C 0.7461(4) 0.358(2) 0.3473(4)
H49 H 0.770572 0.430913 0.352879
C85 C 0.7229(3) 0.6215(18) 0.3881(3)
C86 C 0.6921(4) 0.702(2) 0.4012(4)
H50 H 0.666542 0.639783 0.394859
C87 C 0.7019(4) 0.885(2) 0.4248(4)
H51 H 0.681536 0.939355 0.434180
C88 C 0.7363(4) 0.988(2) 0.4353(4)
C89 C 0.7640(4) 0.910(2) 0.4167(4)
H52 H 0.788071 0.986376 0.420957
C90 C 0.7593(4) 0.731(2) 0.3925(4)
H53 H 0.778417 0.687468 0.380372
C92 C 0.6332(4) 0.023(2) 0.3194(4)
C96 C 0.5629(4) 0.016(2) 0.3180(4)
H56 H 0.540534 0.090786 0.320353
C97 C 0.5998(3) 0.114(2) 0.3261(4)
H57 H 0.602382 0.251266 0.336800
C99 C 0.7703(4) 0.096(2) 0.3050(4)
C100 C 0.8031(5) 0.201(2) 0.3014(5)
H58 H 0.802548 0.345933 0.306963
C101 C 0.8355(3) 0.147(3) 0.2920(5)
H59 H 0.854889 0.247098 0.290328
O25 O 0.9831(2) 0.0054(15) 0.2156(3)
O11 O 0.9866(3) 0.6113(19) 0.7221(3)
C33 C 0.8003(3) 0.0424(19) 0.6901(3)
H18 H 0.804790 0.159470 0.706981
C34 C 0.7279(3) 0.020(2) 0.6939(3)
C37 C 0.6622(4) 0.196(2) 0.7138(4)
C38 C 0.6955(3) 0.310(2) 0.7148(4)
H21 H 0.695067 0.454269 0.721058
C39 C 0.7300(4) 0.238(2) 0.7075(4)
H22 H 0.752860 0.322590 0.711030
C40 C 0.6210(4) 0.274(3) 0.7203(4)
C48 C 0.8703(3) 0.0942(17) 0.6824(3)
C49 C 0.8747(3) 0.299(2) 0.6973(3)
H27 H 0.852602 0.368003 0.701635
C50 C 0.9129(3) 0.4066(19) 0.7062(3)
H28 H 0.915514 0.547226 0.715064
C51 C 0.9442(3) 0.302(2) 0.7015(4)
C52 C 0.9427(3) 0.100(2) 0.6912(5)
H29 H 0.966450 0.029109 0.691579
C54 C 0.9848(4) 0.432(3) 0.7124(4)
Ag11 Ag 0.96048(4) 0.8267(2) 0.26931(4)
Ag12 Ag 0.92433(4) 0.4283(3) 0.27822(4)
O15 O 0.5169(2) 0.5054(15) 0.2844(3)
O16 O 0.4883(3) 0.8042(16) 0.2992(3)
O17 O 0.9033(3) 0.9654(16) 0.2780(3)
O18 O 0.8752(2) 0.6330(18) 0.2738(3)
H48 H 0.695199 0.967894 0.291733
C93 C 0.6289(4) 0.816(2) 0.3084(4)
H54 H 0.651260 0.740307 0.306174
C94 C 0.5920(3) 0.716(2) 0.3004(4)
H55 H 0.589696 0.577582 0.290328
C95 C 0.5592(3) 0.8068(19) 0.3063(3)
C98 C 0.5169(4) 0.695(2) 0.2960(3)
C102 C 0.8393(4) 0.933(2) 0.2846(5)
C103 C 0.8068(4) 0.803(3) 0.2836(4)
H60 H 0.806331 0.660352 0.276456
C104 C 0.7730(3) 0.900(3) 0.2944(4)
H61 H 0.751105 0.811760 0.293424
C105 C 0.8751(6) 0.846(3) 0.2782(5)
O24 O 0.9861(2) 0.3182(15) 0.2946(3)
Ag20 Ag 0.96700(4) 0.7685(3) 0.78468(5)
Ag23 Ag 0.53952(4) 0.3267(2) 0.23069(4)
O35 O 0.4866(3) 0.1113(19) 0.2221(3)
Ag4_2 Ag 0.07175(4) 0.1790(3) 0.21660(4)
O4_2 O 0.0117(3) 0.3042(16) 0.2008(3)
H43_2 H 0.021057 0.021628 0.874116
H44_2 H 0.025624 0.036168 0.940587
N2_2 N 0.0094(5) 0.742(3) 0.1374(3)
C63_2 C 0.0039(5) 0.759(3) 0.0577(3)
C64_2 C 0.0233(5) 0.588(2) 0.0806(4)
H37 H 0.034403 0.479268 0.069211
C65_2 C 0.0260(5) 0.579(2) 0.1204(4)
H38 H 0.038970 0.464724 0.135682
C66_2 C 0.0008(8) 0.767(4) 0.0148(4)
O27_2 O 0.0949(3) 0.644(2) 0.2193(3)
O29_2 O 0.1227(3) 0.968(2) 0.2210(3)
C73_2 C 0.0099(5) 0.913(2) 0.8855(4)
C74_2 C 0.0127(5) 0.922(2) 0.9253(4)
O5_2 O 0.5967(3) 0.4654(16) 0.2220(3)
O6_2 O 0.6248(2) 0.1330(18) 0.2262(3)
C1_2 C 0.7839(3) 0.9381(19) 0.1370(3)
C2_2 C 0.8204(3) 0.8208(18) 0.1460(3)
H1_2 H 0.840938 0.866547 0.135960
C3_2 C 0.8268(3) 0.6275(18) 0.1710(3)
C4_2 C 0.7986(4) 0.5711(19) 0.1885(4)
H2_2 H 0.804801 0.467894 0.208267
C5_2 C 0.7591(3) 0.6681(18) 0.1772(3)
C6_2 C 0.7539(4) 0.858(2) 0.1527(4)
H3_2 H 0.729428 0.930913 0.147121
C14_2 C 0.8668(4) 0.523(2) 0.1806(4)
C15_2 C 0.8711(4) 0.316(2) 0.1916(4)
H8_2 H 0.848740 0.240307 0.193826
C16_2 C 0.9080(3) 0.216(2) 0.1996(4)
H9_2 H 0.910304 0.077582 0.209672
C17_2 C 0.9408(3) 0.3068(19) 0.1937(3)
C18_2 C 0.9371(4) 0.516(2) 0.1820(4)
H10_2 H 0.959466 0.590786 0.179647
C19_2 C 0.9002(3) 0.614(2) 0.1739(4)
H11_2 H 0.897618 0.751266 0.163200
C20_2 C 0.9831(4) 0.195(2) 0.2040(3)
C21_2 C 0.7297(4) 0.596(2) 0.1950(4)
C22_2 C 0.6969(5) 0.701(2) 0.1986(5)
H12_2 H 0.697452 0.845933 0.193037
C23_2 C 0.6645(3) 0.647(3) 0.2080(5)
H13_2 H 0.645111 0.747098 0.209672
C24_2 C 0.6607(4) 0.433(2) 0.2154(5)
C25_2 C 0.6932(4) 0.303(3) 0.2164(4)
H14_2 H 0.693669 0.160352 0.223544
C26_2 C 0.7270(3) 0.400(3) 0.2056(4)
H15_2 H 0.748895 0.311760 0.206576
C27_2 C 0.6249(6) 0.346(3) 0.2218(5)
H28_2 H 0.415514 0.047226 0.215064
H35_2 H 0.978943 0.021628 0.125884
H36_2 H 0.974376 0.036168 0.059413
O17_2 O 0.4033(3) 0.4654(16) 0.7780(3)
O18_2 O 0.3752(2) 0.1330(18) 0.7738(3)
C79_2 C 0.2161(3) 0.9381(19) 0.8630(3)
C80_2 C 0.1796(3) 0.8208(18) 0.8540(3)
H47_2 H 0.159062 0.866547 0.864040
C81_2 C 0.1732(3) 0.6275(18) 0.8290(3)
C82_2 C 0.2014(4) 0.5711(19) 0.8115(4)
H48_2 H 0.195199 0.467894 0.791733
C83_2 C 0.2409(3) 0.6681(18) 0.8228(3)
C84_2 C 0.2461(4) 0.858(2) 0.8473(4)
H49_2 H 0.270572 0.930913 0.852879
C92_2 C 0.1332(4) 0.523(2) 0.8194(4)
C93_2 C 0.1289(4) 0.316(2) 0.8084(4)
H54_2 H 0.151260 0.240307 0.806174
C94_2 C 0.0920(3) 0.216(2) 0.8004(4)
H55_2 H 0.089696 0.077582 0.790328
C95_2 C 0.0592(3) 0.3068(19) 0.8063(3)
C96_2 C 0.0629(4) 0.516(2) 0.8180(4)
H56_2 H 0.040534 0.590786 0.820353
C97_2 C 0.0998(3) 0.614(2) 0.8261(4)
H57_2 H 0.102382 0.751266 0.836800
C98_2 C 0.0169(4) 0.195(2) 0.7960(3)
C99_2 C 0.2703(4) 0.596(2) 0.8050(4)
C100_2 C 0.3031(5) 0.701(2) 0.8014(5)
H58_2 H 0.302548 0.845933 0.806963
C101_2 C 0.3355(3) 0.647(3) 0.7920(5)
H59_2 H 0.354889 0.747098 0.790328
C102_2 C 0.3393(4) 0.433(2) 0.7846(5)
C103_2 C 0.3068(4) 0.303(3) 0.7836(4)
H60_2 H 0.306331 0.160352 0.776456
C104_2 C 0.2730(3) 0.400(3) 0.7944(4)
H61_2 H 0.251105 0.311760 0.793424
C105_2 C 0.3751(6) 0.346(3) 0.7782(5)
H74_2 H 0.584486 0.047226 0.784936
Ag22_2 Ag 0.92825(4) 0.1790(3) 0.78340(4)
Ag6_2 Ag 0.57567(4) 0.9283(3) 0.22178(4)
O12_2 O 0.5139(2) 0.8182(15) 0.2054(3)
C28 C 0.2645(3) 0.4402(19) 0.1806(4)
C29 C 0.2562(3) 0.2760(19) 0.1563(4)
H16 H 0.231099 0.209238 0.150060
C30 C 0.2871(3) 0.2024(18) 0.1396(4)
C31 C 0.3241(3) 0.312(2) 0.1506(4)
H17 H 0.344309 0.265746 0.140061
C32 C 0.3315(3) 0.469(2) 0.1739(4)
C33_2 C 0.3003(3) 0.5424(19) 0.1901(3)
H18_2 H 0.304790 0.659470 0.206981
C34_2 C 0.2279(3) 0.520(2) 0.1939(3)
C35 C 0.2000(4) 0.385(2) 0.1956(5)
H19 H 0.202539 0.240368 0.190672
C36 C 0.1644(6) 0.465(3) 0.2056(7)
H20 H 0.143717 0.373026 0.206710
C37_2 C 0.1622(4) 0.696(2) 0.2138(4)
C38_2 C 0.1955(3) 0.810(2) 0.2148(4)
H21_2 H 0.195067 0.954269 0.221058
C39_2 C 0.2300(4) 0.738(2) 0.2075(4)
H22_2 H 0.252860 0.822590 0.211030
C40_2 C 0.1210(4) 0.774(3) 0.2203(4)
H23 H 0.326169 0.023196 0.090712
C48_2 C 0.3703(3) 0.5942(17) 0.1824(3)
C49_2 C 0.3747(3) 0.799(2) 0.1973(3)
H27_2 H 0.352602 0.868003 0.201635
C50_2 C 0.4129(3) 0.9066(19) 0.2062(3)
C51_2 C 0.4442(3) 0.802(2) 0.2015(4)
C52_2 C 0.4427(3) 0.600(2) 0.1912(5)
H29_2 H 0.466450 0.529109 0.191579
C53 C 0.4069(3) 0.4906(18) 0.1800(4)
H30 H 0.406046 0.350754 0.170968
C54_2 C 0.4848(4) 0.932(3) 0.2124(4)
C61_2 C 0.9901(5) 0.913(2) 0.1145(4)
C62_2 C 0.9873(5) 0.922(2) 0.0747(4)
N4_2 N 0.9906(5) 0.742(3) 0.8626(3)
C75_2 C 0.9961(5) 0.759(3) 0.9423(3)
C76_2 C 0.9767(5) 0.588(2) 0.9194(4)
H45 H 0.965597 0.479268 0.930789
C77_2 C 0.9740(5) 0.579(2) 0.8796(4)
H46 H 0.961030 0.464724 0.864318
C78_2 C 0.9992(8) 0.767(4) 0.9852(4)
Ag12_2 Ag 0.42433(4) 0.9283(3) 0.77822(4)
O19_2 O 0.9051(3) 0.644(2) 0.7807(3)
O20_2 O 0.8773(3) 0.968(2) 0.7790(3)
O24_2 O 0.4861(2) 0.8182(15) 0.7946(3)
C106 C 0.7355(3) 0.4402(19) 0.8194(4)
C107 C 0.7438(3) 0.2760(19) 0.8437(4)
H62 H 0.768901 0.209238 0.849940
C108 C 0.7129(3) 0.2024(18) 0.8604(4)
C109 C 0.6759(3) 0.312(2) 0.8494(4)
H63 H 0.655691 0.265746 0.859939
C110 C 0.6685(3) 0.469(2) 0.8261(4)
C111_2 C 0.6997(3) 0.5424(19) 0.8099(3)
H64_2 H 0.695210 0.659470 0.793019
C112_2 C 0.7721(3) 0.520(2) 0.8061(3)
C113 C 0.8000(4) 0.385(2) 0.8044(5)
H65 H 0.797461 0.240368 0.809328
C114 C 0.8356(6) 0.465(3) 0.7944(7)
H66 H 0.856283 0.373026 0.793290
C115_2 C 0.8378(4) 0.696(2) 0.7862(4)
C116_2 C 0.8045(3) 0.810(2) 0.7852(4)
H67_2 H 0.804933 0.954269 0.778942
C117_2 C 0.7700(4) 0.738(2) 0.7925(4)
H68_2 H 0.747140 0.822590 0.788970
C118_2 C 0.8790(4) 0.774(3) 0.7797(4)
H69 H 0.673831 0.023196 0.909288
C126_2 C 0.6297(3) 0.5942(17) 0.8176(3)
C127_2 C 0.6253(3) 0.799(2) 0.8027(3)
H73_2 H 0.647398 0.868003 0.798365
C128_2 C 0.5871(3) 0.9066(19) 0.7938(3)
C129_2 C 0.5558(3) 0.802(2) 0.7985(4)
C130_2 C 0.5573(3) 0.600(2) 0.8088(5)
H75_2 H 0.533550 0.529109 0.808421
C131 C 0.5931(3) 0.4906(18) 0.8200(4)
H76 H 0.593954 0.350754 0.829032
C132_2 C 0.5152(4) 0.932(3) 0.7876(4)
O16_2 O 0.9883(3) 0.3042(16) 0.7992(3)
H37_2 H 0.534403 0.979268 0.569211
H38_2 H 0.538970 0.964724 0.635682
H45_2 H 0.465597 0.979268 0.430789
H46_2 H 0.461030 0.964724 0.364318
C106_2 C 0.2355(3) 0.9402(19) 0.3194(4)
C107_2 C 0.2438(3) 0.7760(19) 0.3437(4)
H62_2 H 0.268901 0.709238 0.349940
C108_2 C 0.2129(3) 0.7024(18) 0.3604(4)
C109_2 C 0.1759(3) 0.812(2) 0.3494(4)
H63_2 H 0.155691 0.765746 0.359939
C110_2 C 0.1685(3) 0.969(2) 0.3261(4)
C113_2 C 0.3000(4) 0.885(2) 0.3044(5)
H65_2 H 0.297461 0.740368 0.309328
C114_2 C 0.3356(6) 0.965(3) 0.2944(7)
H66_2 H 0.356283 0.873026 0.293290
C119 C 0.2211(4) 0.4956(19) 0.3867(4)
C120 C 0.1959(5) 0.436(3) 0.4102(5)
H69_2 H 0.173831 0.523196 0.409288
C121 C 0.2020(5) 0.264(3) 0.4335(6)
H70 H 0.184802 0.239588 0.448851
C122 C 0.2314(5) 0.127(3) 0.4355(5)
C123 C 0.2581(8) 0.181(3) 0.4226(7)
H71 H 0.281826 0.100458 0.429211
C124 C 0.2554(4) 0.372(2) 0.3959(5)
H72 H 0.276639 0.406077 0.386001
C131_2 C 0.0931(3) 0.9906(18) 0.3200(4)
H76_2 H 0.093954 0.850754 0.329032
C28_2 C 0.7645(3) 0.9402(19) 0.6806(4)
C29_2 C 0.7562(3) 0.7760(19) 0.6563(4)
H16_2 H 0.731099 0.709238 0.650060
C30_2 C 0.7871(3) 0.7024(18) 0.6396(4)
C31_2 C 0.8241(3) 0.812(2) 0.6506(4)
H17_2 H 0.844309 0.765746 0.640061
C32_2 C 0.8315(3) 0.969(2) 0.6739(4)
C35_2 C 0.7000(4) 0.885(2) 0.6956(5)
H19_2 H 0.702539 0.740368 0.690672
C36_2 C 0.6644(6) 0.965(3) 0.7056(7)
H20_2 H 0.643717 0.873026 0.706710
C41 C 0.7789(4) 0.4956(19) 0.6133(4)
C42 C 0.8041(5) 0.436(3) 0.5898(5)
H23_2 H 0.826169 0.523196 0.590712
C43 C 0.7980(5) 0.264(3) 0.5665(6)
H24 H 0.815198 0.239588 0.551149
C44 C 0.7686(5) 0.127(3) 0.5645(5)
C45 C 0.7419(8) 0.181(3) 0.5774(7)
H25 H 0.718174 0.100458 0.570789
C46 C 0.7446(4) 0.372(2) 0.6041(5)
H26 H 0.723361 0.406077 0.613999
C53_2 C 0.9069(3) 0.9906(18) 0.6800(4)
H30_2 H 0.906046 0.850754 0.670968
N3 N 0.8593(3) 0.615(3) 0.4881(4)
C67 C 0.8838(5) 0.788(2) 0.5040(5)
H39 H 0.873025 0.90564 0.513427
C68 C 0.9246(5) 0.786(3) 0.5059(5)
H40 H 0.940972 0.90213 0.516563
C69 C 0.9407(4) 0.611(4) 0.4919(5)
C70 C 0.9162(6) 0.437(3) 0.4759(5)
H41 H 0.927031 0.32006 0.466516
C71 C 0.8755(5) 0.440(2) 0.4740(4)
H42 H 0.859084 0.32356 0.463380
C72 C 0.9832(6) 0.647(4) 0.4996(7)
Ag7 Ag 0.71850(4) 0.5404(2) 0.50581(5)
Ag8 Ag 0.79143(4) 0.6092(2) 0.49071(5)
O13 O 0.7136(3) 0.261(2) 0.4677(3)
O14 O 0.7750(4) 0.2910(18) 0.4644(4)
C91 C 0.7447(5) 0.208(2) 0.4572(4)
O31 O 0.7894(3) 0.8706(15) 0.5302(3)
O33 O 0.7285(3) 0.8300(15) 0.5380(3)
C47 C 0.7627(5) 0.932(2) 0.5432(4)
Ag2_2 Ag 0.70857(4) 0.1092(2) 0.00929(5)
N1_2 N 0.6407(3) 0.115(3) 0.0119(4)
C57_2 C 0.5593(4) 0.111(4) 0.0081(5)
C60_2 C 0.5168(6) 0.147(4) 0.0004(7)
C67_2 C 0.3838(5) 0.288(2) 0.0040(5)
H39_2 H 0.373025 0.40564 0.013427
C68_2 C 0.4246(5) 0.286(3) 0.0059(5)
H40_2 H 0.440972 0.40213 0.016563
Ag7_2 Ag 0.21850(4) 0.0404(2) 0.00581(5)
O31_2 O 0.2894(3) 0.3706(15) 0.0302(3)
O33_2 O 0.2285(3) 0.3300(15) 0.0380(3)
C41_2 C 0.2789(4) 0.9956(19) 0.1133(4)
C42_2 C 0.3041(5) 0.936(3) 0.0898(5)
C43_2 C 0.2980(5) 0.764(3) 0.0665(6)
H24_2 H 0.315198 0.739588 0.051149
C44_2 C 0.2686(5) 0.627(3) 0.0645(5)
C45_2 C 0.2419(8) 0.681(3) 0.0774(7)
H25_2 H 0.218174 0.600458 0.070789
C46_2 C 0.2446(4) 0.872(2) 0.1041(5)
H26_2 H 0.223361 0.906077 0.113999
C47_2 C 0.2627(5) 0.432(2) 0.0432(4)
Ag1_2 Ag 0.78150(4) 0.0404(2) 0.99419(5)
C55_2 C 0.6162(5) 0.288(2) 0.9960(5)
H31_2 H 0.626975 0.40564 0.986573
C56_2 C 0.5754(5) 0.286(3) 0.9941(5)
H32_2 H 0.559028 0.40213 0.983437
N3_2 N 0.3593(3) 0.115(3) 0.9881(4)
C69_2 C 0.4407(4) 0.111(4) 0.9919(5)
C72_2 C 0.4832(6) 0.147(4) 0.9996(7)
Ag8_2 Ag 0.29143(4) 0.1092(2) 0.99071(5)
O32_2 O 0.7106(3) 0.3706(15) 0.9698(3)
O34_2 O 0.7715(3) 0.3300(15) 0.9620(3)
C119_2 C 0.7211(4) 0.9956(19) 0.8867(4)
C120_2 C 0.6959(5) 0.936(3) 0.9102(5)
C121_2 C 0.7020(5) 0.764(3) 0.9335(6)
H70_2 H 0.684802 0.739588 0.948851
C122_2 C 0.7314(5) 0.627(3) 0.9355(5)
C123_2 C 0.7581(8) 0.681(3) 0.9226(7)
H71_2 H 0.781826 0.600458 0.929211
C124_2 C 0.7554(4) 0.872(2) 0.8959(5)
H72_2 H 0.776639 0.906077 0.886001
C125_2 C 0.7373(5) 0.432(2) 0.9568(4)
O1_2 O 0.7864(3) 0.761(2) 0.0323(3)
O2_2 O 0.7250(4) 0.7910(18) 0.0356(4)
C7_2 C 0.7771(3) 0.1215(18) 0.1119(3)
C8_2 C 0.8079(4) 0.202(2) 0.0988(4)
H4_2 H 0.833458 0.139783 0.105141
C9_2 C 0.7981(4) 0.385(2) 0.0752(4)
H5_2 H 0.818464 0.439355 0.065820
C10_2 C 0.7637(4) 0.488(2) 0.0647(4)
C11_2 C 0.7360(4) 0.410(2) 0.0833(4)
H6_2 H 0.711929 0.486376 0.079043
C12_2 C 0.7407(4) 0.231(2) 0.1075(4)
H7_2 H 0.721583 0.187468 0.119628
C13_2 C 0.7553(5) 0.708(2) 0.0428(4)
C58_2 C 0.5838(6) 0.937(3) 0.0241(5)
H33_2 H 0.572969 0.82006 0.033484
C59_2 C 0.6245(5) 0.940(2) 0.0260(4)
H34_2 H 0.640916 0.82356 0.036620
C70_2 C 0.4162(6) 0.937(3) 0.9759(5)
H41_2 H 0.427031 0.82006 0.966516
C71_2 C 0.3755(5) 0.940(2) 0.9740(4)
H42_2 H 0.359084 0.82356 0.963380
O13_2 O 0.2136(3) 0.761(2) 0.9677(3)
O14_2 O 0.2750(4) 0.7910(18) 0.9644(4)
C85_2 C 0.2229(3) 0.1215(18) 0.8881(3)
C86_2 C 0.1921(4) 0.202(2) 0.9012(4)
H50_2 H 0.166542 0.139783 0.894859
C87_2 C 0.2019(4) 0.385(2) 0.9248(4)
H51_2 H 0.181536 0.439355 0.934180
C88_2 C 0.2363(4) 0.488(2) 0.9353(4)
C89_2 C 0.2640(4) 0.410(2) 0.9167(4)
H52_2 H 0.288071 0.486376 0.920957
C90_2 C 0.2593(4) 0.231(2) 0.8925(4)
H53_2 H 0.278417 0.187468 0.880372
C91_2 C 0.2447(5) 0.708(2) 0.9572(4)
loop_
_geom_bond_atom_site_label_1
_geom_bond_atom_site_label_2
_geom_bond_site_symmetry_1
_geom_bond_site_symmetry_2
Ag1 Ag2 1_555 1_555
Ag2 O2 1_555 1_555
O1 Ag1 1_555 1_555
O2 C13 1_555 1_555
C13 O1 1_555 1_555
N1 Ag2 1_555 1_555
C55 N1 1_555 1_555
H31 C55 1_555 1_555
C56 C55 1_555 1_555
H32 C56 1_555 1_555
C57 C56 1_555 1_555
C58 C57 1_555 1_555
H33 C58 1_555 1_555
C59 N1 1_555 1_555
H34 C59 1_555 1_555
C60 C57 1_555 1_555
O32 Ag2 1_555 1_555
O34 Ag1 1_555 1_555
C58 C59 1_555 1_555
O32 C125 1_555 1_555
O34 C125 1_555 1_555
C1 C2 1_555 1_555
C2 H1 1_555 1_555
C3 C2 1_555 1_555
C4 C3 1_555 1_555
C5 C4 1_555 1_555
C6 C1 1_555 1_555
H3 C6 1_555 1_555
C7 C1 1_555 1_555
C8 C7 1_555 1_555
H4 C8 1_555 1_555
C9 C8 1_555 1_555
H5 C9 1_555 1_555
C10 C9 1_555 1_555
C11 C10 1_555 1_555
H6 C11 1_555 1_555
C12 C7 1_555 1_555
H7 C12 1_555 1_555
C14 C3 1_555 1_555
H10 C18 1_555 1_555
C19 C14 1_555 1_555
H11 C19 1_555 1_555
C21 C5 1_555 1_555
C22 C21 1_555 1_555
H12 C22 1_555 1_555
C23 C22 1_555 1_555
H13 C23 1_555 1_555
C5 C6 1_555 1_555
C11 C12 1_555 1_555
C18 C19 1_555 1_555
Ag3 Ag4 1_555 1_555
Ag4 O4 1_555 1_555
Ag5 Ag6 1_555 1_555
Ag6 O6 1_555 1_555
O3 Ag3 1_555 1_555
O4 C20 1_555 1_555
O5 Ag5 1_555 1_555
O6 C27 1_555 1_555
H8 C15 1_555 1_555
C16 C15 1_555 1_555
H9 C16 1_555 1_555
C17 C16 1_555 1_555
C20 O3 1_555 1_555
C25 C24 1_555 1_555
H14 C25 1_555 1_555
H15 C26 1_555 1_555
C27 O5 1_555 1_555
O12 Ag6 1_555 1_555
N2 Ag3 1_555 1_555
C61 N2 1_555 1_555
H35 C61 1_555 1_555
C62 C61 1_555 1_555
H36 C62 1_555 1_555
C63 C62 1_555 1_555
C64 C63 1_555 1_555
C65 N2 1_555 1_555
C66 C63 1_555 1_555
N4 C73 1_555 1_555
C73 H43 1_555 1_555
C74 C73 1_555 1_555
H44 C74 1_555 1_555
C75 C74 1_555 1_555
C76 C75 1_555 1_555
C77 N4 1_555 1_555
C78 C66 1_555 1_555
O19 C118 1_555 1_555
O20 C118 1_555 1_555
H64 C111 1_555 1_555
C116 C115 1_555 1_555
H67 C116 1_555 1_555
C117 C112 1_555 1_555
H68 C117 1_555 1_555
C118 C115 1_555 1_555
C127 C126 1_555 1_555
H73 C127 1_555 1_555
C128 C127 1_555 1_555
H74 C128 1_555 1_555
C129 C128 1_555 1_555
C130 C129 1_555 1_555
H75 C130 1_555 1_555
C132 O23 1_555 1_555
Ag18 N4 1_555 1_555
Ag19 O23 1_555 1_555
Ag22 O20 1_555 1_555
Ag24 O3 1_555 1_555
O27 Ag3 1_555 1_555
O29 Ag4 1_555 1_555
O36 Ag3 1_555 1_555
C17 C20 1_555 1_555
C24 C27 1_555 1_555
C25 C26 1_555 1_555
C64 C65 1_555 1_555
C75 C78 1_555 1_555
C76 C77 1_555 1_555
O19 Ag18 1_555 1_555
C116 C117 1_555 1_555
C129 C132 1_555 1_555
Ag18 Ag22 1_555 1_555
Ag24 O36 1_555 1_555
C79 C80 1_555 1_555
C80 H47 1_555 1_555
C81 C80 1_555 1_555
C82 C81 1_555 1_555
C83 C82 1_555 1_555
C84 C79 1_555 1_555
H49 C84 1_555 1_555
C85 C79 1_555 1_555
C86 C85 1_555 1_555
H50 C86 1_555 1_555
C87 C86 1_555 1_555
H51 C87 1_555 1_555
C88 C87 1_555 1_555
C89 C88 1_555 1_555
H52 C89 1_555 1_555
C90 C85 1_555 1_555
H53 C90 1_555 1_555
C92 C81 1_555 1_555
H56 C96 1_555 1_555
C97 C92 1_555 1_555
H57 C97 1_555 1_555
C99 C83 1_555 1_555
C100 C99 1_555 1_555
H58 C100 1_555 1_555
C101 C100 1_555 1_555
H59 C101 1_555 1_555
C83 C84 1_555 1_555
C89 C90 1_555 1_555
C96 C97 1_555 1_555
O27 C40 1_555 1_555
O29 C40 1_555 1_555
H18 C33 1_555 1_555
C38 C37 1_555 1_555
H21 C38 1_555 1_555
C39 C34 1_555 1_555
H22 C39 1_555 1_555
C40 C37 1_555 1_555
C49 C48 1_555 1_555
H27 C49 1_555 1_555
C50 C49 1_555 1_555
H28 C50 1_555 1_555
C51 C50 1_555 1_555
C52 C51 1_555 1_555
H29 C52 1_555 1_555
C54 O11 1_555 1_555
Ag22 O16 1_555 1_555
Ag11 Ag12 1_555 1_555
Ag12 O18 1_555 1_555
O15 Ag18 1_555 1_555
O16 C98 1_555 1_555
O17 Ag11 1_555 1_555
O18 C105 1_555 1_555
H54 C93 1_555 1_555
C94 C93 1_555 1_555
H55 C94 1_555 1_555
C95 C94 1_555 1_555
C98 O15 1_555 1_555
C103 C102 1_555 1_555
H60 C103 1_555 1_555
H61 C104 1_555 1_555
C105 O17 1_555 1_555
O24 Ag12 1_555 1_555
Ag20 O11 1_555 1_555
Ag23 O15 1_555 1_555
O35 Ag18 1_555 1_555
C38 C39 1_555 1_555
C51 C54 1_555 1_555
C95 C98 1_555 1_555
C102 C105 1_555 1_555
C103 C104 1_555 1_555
Ag23 O35 1_555 1_555
Ag4_2 O4_2 1_555 1_555
N2_2 Ag19 1_555 1_555
C64_2 C63_2 1_555 1_555
H37 C64_2 1_555 1_555
C65_2 N2_2 1_555 1_555
H38 C65_2 1_555 1_555
C66_2 C63_2 1_555 1_555
O27_2 Ag19 1_555 1_555
C64_2 C65_2 1_555 1_555
C74_2 C73_2 1_555 1_555
O5_2 Ag23 1_555 1_555
O6_2 C27_2 1_555 1_555
C1_2 C2_2 1_555 1_555
C2_2 H1_2 1_555 1_555
C3_2 C2_2 1_555 1_555
C4_2 C3_2 1_555 1_555
H2_2 C4_2 1_555 1_555
C5_2 C4_2 1_555 1_555
C6_2 C1_2 1_555 1_555
H3_2 C6_2 1_555 1_555
C14_2 C3_2 1_555 1_555
C15_2 C14_2 1_555 1_555
H8_2 C15_2 1_555 1_555
C16_2 C15_2 1_555 1_555
H9_2 C16_2 1_555 1_555
C17_2 C16_2 1_555 1_555
C18_2 C17_2 1_555 1_555
H10_2 C18_2 1_555 1_555
C19_2 C14_2 1_555 1_555
H11_2 C19_2 1_555 1_555
C20_2 O25 1_555 1_555
C21_2 C5_2 1_555 1_555
C22_2 C21_2 1_555 1_555
H12_2 C22_2 1_555 1_555
C23_2 C22_2 1_555 1_555
H13_2 C23_2 1_555 1_555
C24_2 C23_2 1_555 1_555
C25_2 C24_2 1_555 1_555
H14_2 C25_2 1_555 1_555
C26_2 C21_2 1_555 1_555
H15_2 C26_2 1_555 1_555
C27_2 O5_2 1_555 1_555
C5_2 C6_2 1_555 1_555
C17_2 C20_2 1_555 1_555
C18_2 C19_2 1_555 1_555
C24_2 C27_2 1_555 1_555
C25_2 C26_2 1_555 1_555
O17_2 Ag24 1_555 1_555
O18_2 C105_2 1_555 1_555
C79_2 C80_2 1_555 1_555
C80_2 H47_2 1_555 1_555
C81_2 C80_2 1_555 1_555
C82_2 C81_2 1_555 1_555
H48_2 C82_2 1_555 1_555
C83_2 C82_2 1_555 1_555
C84_2 C79_2 1_555 1_555
H49_2 C84_2 1_555 1_555
C92_2 C81_2 1_555 1_555
C93_2 C92_2 1_555 1_555
H54_2 C93_2 1_555 1_555
C94_2 C93_2 1_555 1_555
H55_2 C94_2 1_555 1_555
C95_2 C94_2 1_555 1_555
C96_2 C95_2 1_555 1_555
H56_2 C96_2 1_555 1_555
C97_2 C92_2 1_555 1_555
H57_2 C97_2 1_555 1_555
C98_2 O26 1_555 1_555
C99_2 C83_2 1_555 1_555
C100_2 C99_2 1_555 1_555
H58_2 C100_2 1_555 1_555
C101_2 C100_2 1_555 1_555
H59_2 C101_2 1_555 1_555
C102_2 C101_2 1_555 1_555
C103_2 C102_2 1_555 1_555
H60_2 C103_2 1_555 1_555
C104_2 C99_2 1_555 1_555
H61_2 C104_2 1_555 1_555
C105_2 O17_2 1_555 1_555
C83_2 C84_2 1_555 1_555
C95_2 C98_2 1_555 1_555
C96_2 C97_2 1_555 1_555
C102_2 C105_2 1_555 1_555
C103_2 C104_2 1_555 1_555
O27_2 C40_2 1_555 1_555
O29_2 C40_2 1_555 1_555
O12_2 Ag6_2 1_555 1_555
C28 C29 1_555 1_555
C29 H16 1_555 1_555
C30 C29 1_555 1_555
C31 C30 1_555 1_555
H17 C31 1_555 1_555
C32 C31 1_555 1_555
C33_2 C28 1_555 1_555
H18_2 C33_2 1_555 1_555
C34_2 C28 1_555 1_555
C35 C34_2 1_555 1_555
H19 C35 1_555 1_555
C36 C35 1_555 1_555
H20 C36 1_555 1_555
C37_2 C36 1_555 1_555
C38_2 C37_2 1_555 1_555
H21_2 C38_2 1_555 1_555
C39_2 C34_2 1_555 1_555
H22_2 C39_2 1_555 1_555
C40_2 C37_2 1_555 1_555
C48_2 C32 1_555 1_555
C49_2 C48_2 1_555 1_555
H27_2 C49_2 1_555 1_555
C50_2 C49_2 1_555 1_555
C51_2 C50_2 1_555 1_555
C52_2 C51_2 1_555 1_555
H29_2 C52_2 1_555 1_555
C53 C48_2 1_555 1_555
H30 C53 1_555 1_555
C62_2 C61_2 1_555 1_555
O12_2 C54_2 1_555 1_555
C32 C33_2 1_555 1_555
C38_2 C39_2 1_555 1_555
C51_2 C54_2 1_555 1_555
C52_2 C53 1_555 1_555
C76_2 C75_2 1_555 1_555
H45 C76_2 1_555 1_555
C77_2 N4_2 1_555 1_555
H46 C77_2 1_555 1_555
O19_2 C118_2 1_555 1_555
O20_2 C118_2 1_555 1_555
O24_2 Ag12_2 1_555 1_555
C106 C107 1_555 1_555
C107 H62 1_555 1_555
C108 C107 1_555 1_555
C109 C108 1_555 1_555
H63 C109 1_555 1_555
C110 C109 1_555 1_555
C111_2 C106 1_555 1_555
H64_2 C111_2 1_555 1_555
C112_2 C106 1_555 1_555
C113 C112_2 1_555 1_555
H65 C113 1_555 1_555
C114 C113 1_555 1_555
H66 C114 1_555 1_555
C115_2 C114 1_555 1_555
C116_2 C115_2 1_555 1_555
H67_2 C116_2 1_555 1_555
C117_2 C112_2 1_555 1_555
H68_2 C117_2 1_555 1_555
C118_2 C115_2 1_555 1_555
C126_2 C110 1_555 1_555
C127_2 C126_2 1_555 1_555
H73_2 C127_2 1_555 1_555
C128_2 C127_2 1_555 1_555
C129_2 C128_2 1_555 1_555
C130_2 C129_2 1_555 1_555
H75_2 C130_2 1_555 1_555
C131 C126_2 1_555 1_555
H76 C131 1_555 1_555
Ag20 N4_2 1_555 1_555
C75_2 C78_2 1_555 1_555
C76_2 C77_2 1_555 1_555
O19_2 Ag20 1_555 1_555
O24_2 C132_2 1_555 1_555
C110 C111_2 1_555 1_555
C116_2 C117_2 1_555 1_555
C129_2 C132_2 1_555 1_555
C130_2 C131 1_555 1_555
Ag22_2 O16_2 1_555 1_555
C106_2 C107_2 1_555 1_555
C107_2 H62_2 1_555 1_555
C108_2 C107_2 1_555 1_555
C109_2 C108_2 1_555 1_555
H63_2 C109_2 1_555 1_555
C110_2 C109_2 1_555 1_555
H65_2 C113_2 1_555 1_555
C114_2 C113_2 1_555 1_555
H66_2 C114_2 1_555 1_555
C119 C108_2 1_555 1_555
C120 C119 1_555 1_555
H69_2 C120 1_555 1_555
C121 C120 1_555 1_555
H70 C121 1_555 1_555
C122 C121 1_555 1_555
C123 C122 1_555 1_555
H71 C123 1_555 1_555
C124 C119 1_555 1_555
H72 C124 1_555 1_555
H76_2 C131_2 1_555 1_555
C123 C124 1_555 1_555
C28_2 C29_2 1_555 1_555
C29_2 H16_2 1_555 1_555
C30_2 C29_2 1_555 1_555
C31_2 C30_2 1_555 1_555
H17_2 C31_2 1_555 1_555
C32_2 C31_2 1_555 1_555
H19_2 C35_2 1_555 1_555
C36_2 C35_2 1_555 1_555
H20_2 C36_2 1_555 1_555
C41 C30_2 1_555 1_555
C42 C41 1_555 1_555
H23_2 C42 1_555 1_555
C43 C42 1_555 1_555
H24 C43 1_555 1_555
C44 C43 1_555 1_555
C45 C44 1_555 1_555
H25 C45 1_555 1_555
C46 C41 1_555 1_555
H26 C46 1_555 1_555
H30_2 C53_2 1_555 1_555
C45 C46 1_555 1_555
N3 C67 1_555 1_555
C67 H39 1_555 1_555
C68 C67 1_555 1_555
H40 C68 1_555 1_555
C69 C68 1_555 1_555
C70 C69 1_555 1_555
H41 C70 1_555 1_555
C71 N3 1_555 1_555
H42 C71 1_555 1_555
Ag7 Ag8 1_555 1_555
Ag8 N3 1_555 1_555
O13 Ag7 1_555 1_555
O14 Ag8 1_555 1_555
C91 O13 1_555 1_555
O31 Ag8 1_555 1_555
O33 Ag7 1_555 1_555
C69 C72 1_555 1_555
C70 C71 1_555 1_555
O14 C91 1_555 1_555
O31 C47 1_555 1_555
O33 C47 1_555 1_555
N1_2 Ag2_2 1_555 1_555
C60_2 C57_2 1_555 1_555
C67_2 H39_2 1_555 1_555
C68_2 C67_2 1_555 1_555
H40_2 C68_2 1_555 1_555
O33_2 Ag7_2 1_555 1_555
O31_2 C47_2 1_555 1_555
O33_2 C47_2 1_555 1_555
C42_2 C41_2 1_555 1_555
C43_2 C42_2 1_555 1_555
H24_2 C43_2 1_555 1_555
C44_2 C43_2 1_555 1_555
C45_2 C44_2 1_555 1_555
H25_2 C45_2 1_555 1_555
C46_2 C41_2 1_555 1_555
H26_2 C46_2 1_555 1_555
C47_2 C44_2 1_555 1_555
C45_2 C46_2 1_555 1_555
H31_2 C55_2 1_555 1_555
C56_2 C55_2 1_555 1_555
H32_2 C56_2 1_555 1_555
Ag8_2 N3_2 1_555 1_555
O34_2 Ag1_2 1_555 1_555
C69_2 C72_2 1_555 1_555
O32_2 C125_2 1_555 1_555
O34_2 C125_2 1_555 1_555
C120_2 C119_2 1_555 1_555
C121_2 C120_2 1_555 1_555
H70_2 C121_2 1_555 1_555
C122_2 C121_2 1_555 1_555
C123_2 C122_2 1_555 1_555
H71_2 C123_2 1_555 1_555
C124_2 C119_2 1_555 1_555
H72_2 C124_2 1_555 1_555
C125_2 C122_2 1_555 1_555
C123_2 C124_2 1_555 1_555
O2_2 C13_2 1_555 1_555
C8_2 C7_2 1_555 1_555
H4_2 C8_2 1_555 1_555
C9_2 C8_2 1_555 1_555
H5_2 C9_2 1_555 1_555
C10_2 C9_2 1_555 1_555
C11_2 C10_2 1_555 1_555
H6_2 C11_2 1_555 1_555
C12_2 C7_2 1_555 1_555
H7_2 C12_2 1_555 1_555
C13_2 O1_2 1_555 1_555
H33_2 C58_2 1_555 1_555
H34_2 C59_2 1_555 1_555
C10_2 C13_2 1_555 1_555
C11_2 C12_2 1_555 1_555
C58_2 C59_2 1_555 1_555
H41_2 C70_2 1_555 1_555
H42_2 C71_2 1_555 1_555
C86_2 C85_2 1_555 1_555
H50_2 C86_2 1_555 1_555
C87_2 C86_2 1_555 1_555
H51_2 C87_2 1_555 1_555
C88_2 C87_2 1_555 1_555
C89_2 C88_2 1_555 1_555
H52_2 C89_2 1_555 1_555
C90_2 C85_2 1_555 1_555
H53_2 C90_2 1_555 1_555
C91_2 O13_2 1_555 1_555
C70_2 C71_2 1_555 1_555
O14_2 C91_2 1_555 1_555
C88_2 C91_2 1_555 1_555
C89_2 C90_2 1_555 1_555

#END
