
###############################################################################
#
# This file contains modified crystal structure data generated from the
# MOF subset of the Cambridge Structural Database (CSD) v543 
# hosted by the Cambridge Crystallographic Data Centre (CCDC).
#
# This work is licensed under the Creative Commons
# Attribution-NonCommercial-ShareAlike 4.0 International License.
# To view a copy of this license, visit
# http://creativecommons.org/licenses/by-nc-sa/4.0/
# or send a letter to
# Creative Commons, PO Box 1866, Mountain View, CA 94042, USA.
#
# CIF created using the CSD Python API on 29 September 2022
# The structure has been converted into the P1 space group
# The structure has a 3D framework
# The original CSD entry SUMRAW is in the monoclinic crystal system
# The framework has been calculated to contain at least 10.0% void space
# The void calculation uses a probe of radius 1.32A, grid spacing 0.4
# H atom positions have been added when not included in the experimental data
#
###############################################################################

data_SUMRAW
_chemical_formula_moiety         '(C216 H136 Ag20 O52)n'
_symmetry_cell_setting           triclinic
_symmetry_space_group_name_H-M   'P 1'
_symmetry_Int_Tables_number      1
_space_group_name_Hall           'P 1'
loop_
_symmetry_equiv_pos_site_id
_symmetry_equiv_pos_as_xyz
1 x,y,z
_cell_length_a                   34.285(7)
_cell_length_b                   5.9340(12)
_cell_length_c                   39.220(18)
_cell_angle_alpha                90
_cell_angle_beta                 104.56(3)
_cell_angle_gamma                90
_cell_volume                     7722.95
loop_
_atom_site_label
_atom_site_type_symbol
_atom_site_fract_x
_atom_site_fract_y
_atom_site_fract_z
Ag2 Ag 0.28873(2) 0.29123(12) 0.22708(2)
O4 O 0.23788(14) 0.0508(8) 0.22131(14)
Ag6 Ag 0.21127(2) 0.20877(12) 0.27292(2)
O9 O 0.26212(14) 0.4492(8) 0.27869(14)
O11 O 0.34698(16) 0.4345(9) 0.22344(16)
O12 O 0.37756(15) 0.1061(9) 0.23153(16)
Ag3 Ag 0.32894(2) 0.86664(12) 0.22828(2)
O5 O 0.26739(15) 0.7348(8) 0.20925(17)
C1 C 0.0375(2) 0.1096(12) 0.1402(2)
C2 C 0.0734(2) 0.2188(12) 0.1493(2)
H1 H 0.093540 0.175386 0.138542
C3 C 0.0816(2) 0.3958(11) 0.17421(19)
C4 C 0.0516(2) 0.4566(11) 0.1896(2)
H2 H 0.056477 0.571844 0.206157
C5 C 0.0142(2) 0.3532(11) 0.18135(19)
C6 C 0.0076(2) 0.1780(12) 0.1570(2)
H4 H 0.072355 0.004692 0.089039
C14 C 0.12166(19) 0.5140(11) 0.1825(2)
C15 C 0.1256(2) 0.7324(11) 0.1966(2)
H8 H 0.102965 0.806386 0.199848
C16 C 0.1625(2) 0.8402(11) 0.2056(2)
H9 H 0.164190 0.984773 0.214992
C17 C 0.1971(2) 0.7362(10) 0.2009(2)
C18 C 0.1929(2) 0.5202(12) 0.1856(2)
H10 H 0.215093 0.449171 0.180860
C19 C 0.1559(2) 0.4125(11) 0.1776(2)
H11 H 0.154125 0.266830 0.168610
C20 C 0.2362(2) 0.8442(12) 0.2107(2)
H15 H 0.003552 0.731017 0.212888
Ag8 Ag 0.82894(2) 0.13336(12) 0.22828(2)
O6 O 0.84698(16) 0.5655(9) 0.22344(16)
O7 O 0.87756(15) 0.8939(9) 0.23153(16)
H3 H 0.982828 0.104384 0.151700
C21 C 0.9808(2) 0.4306(12) 0.1959(2)
C22 C 0.9480(3) 0.3007(14) 0.1945(3)
H12 H 0.947820 0.153919 0.186163
C23 C 0.9140(3) 0.3782(14) 0.2051(3)
H13 H 0.891811 0.285004 0.203277
C24 C 0.9141(2) 0.5927(12) 0.2181(2)
C25 C 0.9482(2) 0.7182(13) 0.2221(2)
H14 H 0.949689 0.859164 0.232704
C26 C 0.9810(2) 0.6394(13) 0.2106(2)
C27 C 0.8760(2) 0.6918(14) 0.2251(2)
Ag5 Ag 0.78873(2) 0.70877(12) 0.22708(2)
O6_2 O 0.15302(16) 0.0655(9) 0.27656(16)
O7_2 O 0.12244(15) 0.3939(9) 0.26847(16)
C24_2 C 0.0859(2) 0.0927(12) 0.2819(2)
C25_2 C 0.0518(2) 0.2182(13) 0.2779(2)
H14_2 H 0.050311 0.359164 0.267296
C26_2 C 0.0190(2) 0.1394(13) 0.2894(2)
C27_2 C 0.1240(2) 0.1918(14) 0.2749(2)
Ag8_2 Ag 0.17106(2) 0.63336(12) 0.27172(2)
H3_2 H 0.017172 0.604384 0.348300
C11 C 0.0074(3) 0.0919(14) 0.4105(3)
C12 C 0.0002(3) 0.2660(14) 0.3868(3)
H7 H 0.016615 0.280538 0.371335
C21_2 C 0.0192(2) 0.9306(12) 0.3041(2)
C22_2 C 0.0520(3) 0.8007(14) 0.3055(3)
H12_2 H 0.052180 0.653919 0.313837
C23_2 C 0.0860(3) 0.8782(14) 0.2949(3)
H13_2 H 0.108189 0.785004 0.296723
Ag2_2 Ag 0.71127(2) 0.79123(12) 0.27292(2)
Ag3_2 Ag 0.67106(2) 0.36664(12) 0.27172(2)
O4_2 O 0.76212(14) 0.5508(8) 0.27869(14)
O5_2 O 0.73261(15) 0.2348(8) 0.29075(17)
H2_2 H 0.943523 0.071844 0.293843
C14_2 C 0.87834(19) 0.0140(11) 0.3175(2)
C15_2 C 0.8744(2) 0.2324(11) 0.3034(2)
H8_2 H 0.897035 0.306386 0.300152
C16_2 C 0.8375(2) 0.3402(11) 0.2944(2)
H9_2 H 0.835810 0.484773 0.285008
C17_2 C 0.8029(2) 0.2362(10) 0.2991(2)
C18_2 C 0.8071(2) 0.0202(12) 0.3144(2)
C20_2 C 0.7638(2) 0.3442(12) 0.2893(2)
H15_2 H 0.996448 0.231017 0.287112
O9_2 O 0.73788(14) 0.9492(8) 0.22131(14)
O11_2 O 0.65302(16) 0.9345(9) 0.27656(16)
O12_2 O 0.62244(15) 0.6061(9) 0.26847(16)
C1_2 C 0.9625(2) 0.6096(12) 0.3598(2)
C2_2 C 0.9266(2) 0.7188(12) 0.3507(2)
H1_2 H 0.906460 0.675386 0.361458
C3_2 C 0.9184(2) 0.8958(11) 0.32579(19)
C4_2 C 0.9484(2) 0.9566(11) 0.3104(2)
C5_2 C 0.9858(2) 0.8532(11) 0.31865(19)
C6_2 C 0.9924(2) 0.6780(12) 0.3430(2)
C7 C 0.9699(2) 0.4201(13) 0.3849(2)
C8 C 0.9471(4) 0.399(2) 0.4093(4)
H4_2 H 0.927645 0.504692 0.410961
C9 C 0.9549(4) 0.210(2) 0.4314(4)
H5 H 0.937144 0.183382 0.445393
C10 C 0.9852(3) 0.0633(16) 0.4344(3)
H10_2 H 0.784907 0.949171 0.319140
C19_2 C 0.8441(2) 0.9125(11) 0.3224(2)
H11_2 H 0.845875 0.766830 0.331390
O5_3 O 0.76739(15) 0.2652(8) 0.20925(17)
C1_3 C 0.5375(2) 0.8904(12) 0.1402(2)
C2_3 C 0.5734(2) 0.7812(12) 0.1493(2)
H1_3 H 0.593540 0.824614 0.138542
C3_3 C 0.5816(2) 0.6042(11) 0.17421(19)
C4_3 C 0.5516(2) 0.5434(11) 0.1896(2)
H2_3 H 0.556477 0.428156 0.206157
C5_3 C 0.5142(2) 0.6468(11) 0.18135(19)
C6_3 C 0.5076(2) 0.8220(12) 0.1570(2)
H3_3 H 0.482828 0.895616 0.151700
H4_3 H 0.572355 0.995308 0.089039
C14_3 C 0.62166(19) 0.4860(11) 0.1825(2)
C15_3 C 0.6256(2) 0.2676(11) 0.1966(2)
H8_3 H 0.602965 0.193614 0.199848
C16_3 C 0.6625(2) 0.1598(11) 0.2056(2)
H9_3 H 0.664190 0.015227 0.214992
C17_3 C 0.6971(2) 0.2638(10) 0.2009(2)
C18_3 C 0.6929(2) 0.4798(12) 0.1856(2)
H10_3 H 0.715093 0.550829 0.180860
C19_3 C 0.6559(2) 0.5875(11) 0.1776(2)
H11_3 H 0.654125 0.733170 0.168610
C20_3 C 0.7362(2) 0.1558(12) 0.2107(2)
C21_3 C 0.4808(2) 0.5694(12) 0.1959(2)
C22_3 C 0.4480(3) 0.6993(14) 0.1945(3)
H12_3 H 0.447820 0.846081 0.186163
C23_3 C 0.4140(3) 0.6218(14) 0.2051(3)
H13_3 H 0.391811 0.714996 0.203277
C24_3 C 0.4141(2) 0.4073(12) 0.2181(2)
C25_3 C 0.4482(2) 0.2818(13) 0.2221(2)
H14_3 H 0.449689 0.140836 0.232704
C26_3 C 0.4810(2) 0.3606(13) 0.2106(2)
H15_3 H 0.503552 0.268983 0.212888
C27_3 C 0.3760(2) 0.3082(14) 0.2251(2)
C1_4 C 0.4625(2) 0.3904(12) 0.3598(2)
C2_4 C 0.4266(2) 0.2812(12) 0.3507(2)
H1_4 H 0.406460 0.324614 0.361458
C3_4 C 0.4184(2) 0.1042(11) 0.32579(19)
C4_4 C 0.4484(2) 0.0434(11) 0.3104(2)
C5_4 C 0.4858(2) 0.1468(11) 0.31865(19)
C6_4 C 0.4924(2) 0.3220(12) 0.3430(2)
H3_4 H 0.517172 0.395616 0.348300
C7_2 C 0.4699(2) 0.5799(13) 0.3849(2)
C8_2 C 0.4471(4) 0.601(2) 0.4093(4)
H4_4 H 0.427645 0.495308 0.410961
C9_2 C 0.4549(4) 0.790(2) 0.4314(4)
H5_2 H 0.437144 0.816618 0.445393
C10_2 C 0.4852(3) 0.9367(16) 0.4344(3)
C11_2 C 0.5074(3) 0.9081(14) 0.4105(3)
C12_2 C 0.5002(3) 0.7340(14) 0.3868(3)
H7_2 H 0.516615 0.719462 0.371335
H10_4 H 0.284907 0.050829 0.319140
C19_4 C 0.3441(2) 0.0875(11) 0.3224(2)
H11_4 H 0.345875 0.233170 0.331390
C21_4 C 0.5192(2) 0.0694(12) 0.3041(2)
C22_4 C 0.5520(3) 0.1993(14) 0.3055(3)
H12_4 H 0.552180 0.346081 0.313837
C23_4 C 0.5860(3) 0.1218(14) 0.2949(3)
H13_4 H 0.608189 0.214996 0.296723
O5_4 O 0.23261(15) 0.7652(8) 0.29075(17)
H2_4 H 0.443523 0.928156 0.293843
C14_4 C 0.37834(19) 0.9860(11) 0.3175(2)
C15_4 C 0.3744(2) 0.7676(11) 0.3034(2)
H8_4 H 0.397035 0.693614 0.300152
C16_4 C 0.3375(2) 0.6598(11) 0.2944(2)
H9_4 H 0.335810 0.515227 0.285008
C17_4 C 0.3029(2) 0.7638(10) 0.2991(2)
C18_4 C 0.3071(2) 0.9798(12) 0.3144(2)
C20_4 C 0.2638(2) 0.6558(12) 0.2893(2)
C24_4 C 0.5859(2) 0.9073(12) 0.2819(2)
C25_4 C 0.5518(2) 0.7818(13) 0.2779(2)
H14_4 H 0.550311 0.640836 0.267296
C26_4 C 0.5190(2) 0.8606(13) 0.2894(2)
H15_4 H 0.496448 0.768983 0.287112
C27_4 C 0.6240(2) 0.8082(14) 0.2749(2)
O1 O 0.0344(3) 0.3315(15) 0.0267(3)
C7_3 C 0.0301(2) 0.9201(13) 0.1151(2)
C8_3 C 0.0529(4) 0.899(2) 0.0907(4)
C9_3 C 0.0451(4) 0.710(2) 0.0686(4)
H5_3 H 0.062856 0.683382 0.054607
C10_3 C 0.0148(3) 0.5633(16) 0.0656(3)
C13 C 0.0096(4) 0.3651(19) 0.0416(4)
Ag1 Ag 0.03281(4) 0.0688(2) 0.98708(4)
O2 O 0.0975(6) 0.183(5) 0.9737(6)
H16 H 0.119757 0.172136 0.995435
H17 H 0.103179 0.0815655 0.955393
O8 O 0.0220(3) 0.7467(13) 0.9610(2)
C11_3 C 0.0074(3) 0.4081(14) 0.9105(3)
H6 H 0.028051 0.509386 0.910163
C12_3 C 0.0002(3) 0.2340(14) 0.8868(3)
H7_3 H 0.016615 0.219462 0.871335
O3 O 0.9780(3) 0.2533(13) 0.0390(2)
C11_4 C 0.9926(3) 0.5919(14) 0.0895(3)
H6_2 H 0.971949 0.490614 0.089837
C12_4 C 0.9998(3) 0.7660(14) 0.1132(3)
H7_4 H 0.983385 0.780538 0.128665
Ag4 Ag 0.96719(4) 0.9312(2) 0.01292(4)
O2_2 O 0.9025(6) 0.817(5) 0.0263(6)
H16_2 H 0.880243 0.827864 0.00456495
H17_2 H 0.896821 0.918435 0.0446074
Ag2_3 Ag 0.21127(2) 0.29123(12) 0.77292(2)
O4_3 O 0.26212(14) 0.0508(8) 0.77869(14)
Ag6_2 Ag 0.28873(2) 0.20877(12) 0.72708(2)
Ag8_3 Ag 0.67106(2) 0.13336(12) 0.77172(2)
O9_3 O 0.23788(14) 0.4492(8) 0.72131(14)
O11_3 O 0.15302(16) 0.4345(9) 0.77656(16)
O12_3 O 0.12244(15) 0.1061(9) 0.76847(16)
Ag3_3 Ag 0.17106(2) 0.86664(12) 0.77172(2)
O5_5 O 0.23261(15) 0.7348(8) 0.79075(17)
O6_3 O 0.65302(16) 0.5655(9) 0.77656(16)
O7_3 O 0.62244(15) 0.8939(9) 0.76847(16)
C1_5 C 0.4625(2) 0.1096(12) 0.8598(2)
C2_5 C 0.4266(2) 0.2188(12) 0.8507(2)
H1_5 H 0.406460 0.175386 0.861458
C3_5 C 0.4184(2) 0.3958(11) 0.82579(19)
C4_5 C 0.4484(2) 0.4566(11) 0.8104(2)
H2_5 H 0.443523 0.571844 0.793843
C5_5 C 0.4858(2) 0.3532(11) 0.81865(19)
C6_5 C 0.4924(2) 0.1780(12) 0.8430(2)
H3_5 H 0.517172 0.104384 0.848300
H4_5 H 0.427645 0.004692 0.910961
C14_5 C 0.37834(19) 0.5140(11) 0.8175(2)
C15_5 C 0.3744(2) 0.7324(11) 0.8034(2)
H8_5 H 0.397035 0.806386 0.800152
C16_5 C 0.3375(2) 0.8402(11) 0.7944(2)
H9_5 H 0.335810 0.984773 0.785008
C17_5 C 0.3029(2) 0.7362(10) 0.7991(2)
C18_5 C 0.3071(2) 0.5202(12) 0.8144(2)
H10_5 H 0.284907 0.449171 0.819140
C19_5 C 0.3441(2) 0.4125(11) 0.8224(2)
H11_5 H 0.345875 0.266830 0.831390
C20_5 C 0.2638(2) 0.8442(12) 0.7893(2)
C21_5 C 0.5192(2) 0.4306(12) 0.8041(2)
C22_5 C 0.5520(3) 0.3007(14) 0.8055(3)
H12_5 H 0.552180 0.153919 0.813837
C23_5 C 0.5860(3) 0.3782(14) 0.7949(3)
H13_5 H 0.608189 0.285004 0.796723
C24_5 C 0.5859(2) 0.5927(12) 0.7819(2)
C25_5 C 0.5518(2) 0.7182(13) 0.7779(2)
H14_5 H 0.550311 0.859164 0.767296
C26_5 C 0.5190(2) 0.6394(13) 0.7894(2)
H15_5 H 0.496448 0.731017 0.787112
C27_5 C 0.6240(2) 0.6918(14) 0.7749(2)
Ag5_2 Ag 0.71127(2) 0.70877(12) 0.77292(2)
Ag2_4 Ag 0.78873(2) 0.79123(12) 0.72708(2)
Ag3_4 Ag 0.82894(2) 0.36664(12) 0.72828(2)
O4_4 O 0.73788(14) 0.5508(8) 0.72131(14)
O5_6 O 0.76739(15) 0.2348(8) 0.70925(17)
O6_4 O 0.34698(16) 0.0655(9) 0.72344(16)
O7_4 O 0.37756(15) 0.3939(9) 0.73153(16)
H2_6 H 0.556477 0.071844 0.706157
C14_6 C 0.62166(19) 0.0140(11) 0.6825(2)
C15_6 C 0.6256(2) 0.2324(11) 0.6966(2)
H8_6 H 0.602965 0.306386 0.699848
C16_6 C 0.6625(2) 0.3402(11) 0.7056(2)
H9_6 H 0.664190 0.484773 0.714992
C17_6 C 0.6971(2) 0.2362(10) 0.7009(2)
C18_6 C 0.6929(2) 0.0202(12) 0.6856(2)
C20_6 C 0.7362(2) 0.3442(12) 0.7107(2)
C24_6 C 0.4141(2) 0.0927(12) 0.7181(2)
C25_6 C 0.4482(2) 0.2182(13) 0.7221(2)
H14_6 H 0.449689 0.359164 0.732704
C26_6 C 0.4810(2) 0.1394(13) 0.7106(2)
H15_6 H 0.503552 0.231017 0.712888
C27_6 C 0.3760(2) 0.1918(14) 0.7251(2)
Ag8_4 Ag 0.32894(2) 0.63336(12) 0.72828(2)
O9_4 O 0.76212(14) 0.9492(8) 0.77869(14)
O11_4 O 0.84698(16) 0.9345(9) 0.72344(16)
O12_4 O 0.87756(15) 0.6061(9) 0.73153(16)
C1_6 C 0.5375(2) 0.6096(12) 0.6402(2)
C2_6 C 0.5734(2) 0.7188(12) 0.6493(2)
H1_6 H 0.593540 0.675386 0.638542
C3_6 C 0.5816(2) 0.8958(11) 0.67421(19)
C4_6 C 0.5516(2) 0.9566(11) 0.6896(2)
C5_6 C 0.5142(2) 0.8532(11) 0.68135(19)
C6_6 C 0.5076(2) 0.6780(12) 0.6570(2)
H3_6 H 0.482828 0.604384 0.651700
C7_4 C 0.5301(2) 0.4201(13) 0.6151(2)
C8_4 C 0.5529(4) 0.399(2) 0.5907(4)
H4_6 H 0.572355 0.504692 0.589039
C9_4 C 0.5451(4) 0.210(2) 0.5686(4)
H5_4 H 0.562856 0.183382 0.554607
C10_4 C 0.5148(3) 0.0633(16) 0.5656(3)
C11_5 C 0.4926(3) 0.0919(14) 0.5895(3)
C12_5 C 0.4998(3) 0.2660(14) 0.6132(3)
H7_5 H 0.483385 0.280538 0.628665
H10_6 H 0.715093 0.949171 0.680860
C19_6 C 0.6559(2) 0.9125(11) 0.6776(2)
H11_6 H 0.654125 0.766830 0.668610
C21_6 C 0.4808(2) 0.9306(12) 0.6959(2)
C22_6 C 0.4480(3) 0.8007(14) 0.6945(3)
H12_6 H 0.447820 0.653919 0.686163
C23_6 C 0.4140(3) 0.8782(14) 0.7051(3)
H13_6 H 0.391811 0.785004 0.703277
H3_7 H 0.017172 0.895616 0.848300
C21_7 C 0.0192(2) 0.5694(12) 0.8041(2)
C22_7 C 0.0520(3) 0.6993(14) 0.8055(3)
H12_7 H 0.052180 0.846081 0.813837
C23_7 C 0.0860(3) 0.6218(14) 0.7949(3)
H13_7 H 0.108189 0.714996 0.796723
C24_7 C 0.0859(2) 0.4073(12) 0.7819(2)
C25_7 C 0.0518(2) 0.2818(13) 0.7779(2)
H14_7 H 0.050311 0.140836 0.767296
C26_7 C 0.0190(2) 0.3606(13) 0.7894(2)
C27_7 C 0.1240(2) 0.3082(14) 0.7749(2)
O5_7 O 0.73261(15) 0.2652(8) 0.79075(17)
C1_7 C 0.9625(2) 0.8904(12) 0.8598(2)
C2_7 C 0.9266(2) 0.7812(12) 0.8507(2)
H1_7 H 0.906460 0.824614 0.861458
C3_7 C 0.9184(2) 0.6042(11) 0.82579(19)
C4_7 C 0.9484(2) 0.5434(11) 0.8104(2)
H2_7 H 0.943523 0.428156 0.793843
C5_7 C 0.9858(2) 0.6468(11) 0.81865(19)
C6_7 C 0.9924(2) 0.8220(12) 0.8430(2)
H4_7 H 0.927645 0.995308 0.910961
C14_7 C 0.87834(19) 0.4860(11) 0.8175(2)
C15_7 C 0.8744(2) 0.2676(11) 0.8034(2)
H8_7 H 0.897035 0.193614 0.800152
C16_7 C 0.8375(2) 0.1598(11) 0.7944(2)
H9_7 H 0.835810 0.015227 0.785008
C17_7 C 0.8029(2) 0.2638(10) 0.7991(2)
C18_7 C 0.8071(2) 0.4798(12) 0.8144(2)
H10_7 H 0.784907 0.550829 0.819140
C19_7 C 0.8441(2) 0.5875(11) 0.8224(2)
H11_7 H 0.845875 0.733170 0.831390
C20_7 C 0.7638(2) 0.1558(12) 0.7893(2)
H15_7 H 0.996448 0.268983 0.787112
C1_8 C 0.0375(2) 0.3904(12) 0.6402(2)
C2_8 C 0.0734(2) 0.2812(12) 0.6493(2)
H1_8 H 0.093540 0.324614 0.638542
C3_8 C 0.0816(2) 0.1042(11) 0.67421(19)
C4_8 C 0.0516(2) 0.0434(11) 0.6896(2)
C5_8 C 0.0142(2) 0.1468(11) 0.68135(19)
C6_8 C 0.0076(2) 0.3220(12) 0.6570(2)
C7_5 C 0.0301(2) 0.5799(13) 0.6151(2)
C8_5 C 0.0529(4) 0.601(2) 0.5907(4)
H4_8 H 0.072355 0.495308 0.589039
C9_5 C 0.0451(4) 0.790(2) 0.5686(4)
H5_5 H 0.062856 0.816618 0.554607
C10_5 C 0.0148(3) 0.9367(16) 0.5656(3)
H10_8 H 0.215093 0.050829 0.680860
C19_8 C 0.1559(2) 0.0875(11) 0.6776(2)
H11_8 H 0.154125 0.233170 0.668610
O5_8 O 0.26739(15) 0.7652(8) 0.70925(17)
H2_8 H 0.056477 0.928156 0.706157
C14_8 C 0.12166(19) 0.9860(11) 0.6825(2)
C15_8 C 0.1256(2) 0.7676(11) 0.6966(2)
H8_8 H 0.102965 0.693614 0.699848
C16_8 C 0.1625(2) 0.6598(11) 0.7056(2)
H9_8 H 0.164190 0.515227 0.714992
C17_8 C 0.1971(2) 0.7638(10) 0.7009(2)
C18_8 C 0.1929(2) 0.9798(12) 0.6856(2)
C20_8 C 0.2362(2) 0.6558(12) 0.7107(2)
H15_8 H 0.003552 0.768983 0.712888
H3_8 H 0.982828 0.395616 0.651700
C11_6 C 0.9926(3) 0.9081(14) 0.5895(3)
C12_6 C 0.9998(3) 0.7340(14) 0.6132(3)
H7_6 H 0.983385 0.719462 0.628665
C21_8 C 0.9808(2) 0.0694(12) 0.6959(2)
C22_8 C 0.9480(3) 0.1993(14) 0.6945(3)
H12_8 H 0.947820 0.346081 0.686163
C23_8 C 0.9140(3) 0.1218(14) 0.7051(3)
H13_8 H 0.891811 0.214996 0.703277
C24_8 C 0.9141(2) 0.9073(12) 0.7181(2)
C25_8 C 0.9482(2) 0.7818(13) 0.7221(2)
H14_8 H 0.949689 0.640836 0.732704
C26_8 C 0.9810(2) 0.8606(13) 0.7106(2)
C27_8 C 0.8760(2) 0.8082(14) 0.7251(2)
Ag1_2 Ag 0.46719(4) 0.0688(2) 0.01292(4)
O2_3 O 0.4025(6) 0.183(5) 0.0263(6)
H16_3 H 0.380243 0.172136 0.00456495
H17_3 H 0.396821 0.0815655 0.0446074
O1_2 O 0.4656(3) 0.3315(15) 0.9733(3)
O3_2 O 0.5220(3) 0.2533(13) 0.9610(2)
C7_6 C 0.4699(2) 0.9201(13) 0.8849(2)
C8_6 C 0.4471(4) 0.899(2) 0.9093(4)
C9_6 C 0.4549(4) 0.710(2) 0.9314(4)
H5_6 H 0.437144 0.683382 0.945393
C10_6 C 0.4852(3) 0.5633(16) 0.9344(3)
C11_7 C 0.5074(3) 0.5919(14) 0.9105(3)
H6_3 H 0.528051 0.490614 0.910163
C12_7 C 0.5002(3) 0.7660(14) 0.8868(3)
H7_7 H 0.516615 0.780538 0.871335
C13_2 C 0.4904(4) 0.3651(19) 0.9584(4)
O8_2 O 0.4780(3) 0.7467(13) 0.0390(2)
O1_3 O 0.5344(3) 0.6685(15) 0.0267(3)
C7_7 C 0.5301(2) 0.0799(13) 0.1151(2)
C8_7 C 0.5529(4) 0.101(2) 0.0907(4)
C9_7 C 0.5451(4) 0.290(2) 0.0686(4)
H5_7 H 0.562856 0.316618 0.054607
C10_7 C 0.5148(3) 0.4367(16) 0.0656(3)
C11_8 C 0.4926(3) 0.4081(14) 0.0895(3)
H6_4 H 0.471949 0.509386 0.089837
C12_8 C 0.4998(3) 0.2340(14) 0.1132(3)
H7_8 H 0.483385 0.219462 0.128665
C13_3 C 0.5096(4) 0.6349(19) 0.0416(4)
Ag4_2 Ag 0.53281(4) 0.9312(2) 0.98708(4)
O2_4 O 0.5975(6) 0.817(5) 0.9737(6)
H16_4 H 0.619757 0.827864 0.995435
H17_4 H 0.603179 0.918435 0.955393
Ag1_3 Ag 0.53281(4) 0.5688(2) 0.48708(4)
O1_4 O 0.5344(3) 0.8315(15) 0.5267(3)
O2_5 O 0.5975(6) 0.683(5) 0.4737(6)
O3_3 O 0.4780(3) 0.7533(13) 0.5390(2)
H6_5 H 0.471949 0.990614 0.589837
C13_4 C 0.5096(4) 0.8651(19) 0.5416(4)
Ag4_3 Ag 0.46719(4) 0.4312(2) 0.51292(4)
O8_3 O 0.5220(3) 0.2467(13) 0.4610(2)
H16_5 H 0.619757 0.672136 0.495435
H17_5 H 0.603179 0.581565 0.455393
O1_5 O 0.4656(3) 0.1685(15) 0.4733(3)
O2_6 O 0.4025(6) 0.317(5) 0.5263(6)
H6_6 H 0.528051 0.009386 0.410163
C13_5 C 0.4904(4) 0.1349(19) 0.4584(4)
H16_6 H 0.380243 0.327864 0.504565
H17_6 H 0.396821 0.418435 0.544607
O3_4 O 0.0220(3) 0.7533(13) 0.4610(2)
H6_7 H 0.028051 0.990614 0.410163
Ag4_4 Ag 0.03281(4) 0.4312(2) 0.48708(4)
O1_6 O 0.0344(3) 0.1685(15) 0.5267(3)
O2_7 O 0.0975(6) 0.317(5) 0.4737(6)
C13_6 C 0.0096(4) 0.1349(19) 0.5416(4)
H16_7 H 0.119757 0.327864 0.495435
H17_7 H 0.103179 0.418435 0.455393
Ag1_4 Ag 0.96719(4) 0.5688(2) 0.51292(4)
O1_7 O 0.9656(3) 0.8315(15) 0.4733(3)
O2_8 O 0.9025(6) 0.683(5) 0.5263(6)
C13_7 C 0.9904(4) 0.8651(19) 0.4584(4)
O8_4 O 0.9780(3) 0.2467(13) 0.5390(2)
H16_8 H 0.880243 0.672136 0.504565
H17_8 H 0.896821 0.581565 0.544607
H6_8 H 0.971949 0.009386 0.589837
O1_8 O 0.9656(3) 0.6685(15) 0.9733(3)
C7_8 C 0.9699(2) 0.0799(13) 0.8849(2)
C8_8 C 0.9471(4) 0.101(2) 0.9093(4)
C9_8 C 0.9549(4) 0.290(2) 0.9314(4)
H5_8 H 0.937144 0.316618 0.945393
C10_8 C 0.9852(3) 0.4367(16) 0.9344(3)
C13_8 C 0.9904(4) 0.6349(19) 0.9584(4)
loop_
_geom_bond_atom_site_label_1
_geom_bond_atom_site_label_2
_geom_bond_site_symmetry_1
_geom_bond_site_symmetry_2
O4 Ag2 1_555 1_555
Ag6 O4 1_555 1_555
O9 Ag2 1_555 1_555
O11 Ag2 1_555 1_555
Ag6 O9 1_555 1_555
Ag3 O5 1_555 1_555
O5 C20 1_555 1_555
C1 C2 1_555 1_555
C2 H1 1_555 1_555
C3 C2 1_555 1_555
C4 C3 1_555 1_555
H2 C4 1_555 1_555
C5 C4 1_555 1_555
C6 C1 1_555 1_555
C14 C3 1_555 1_555
C15 C14 1_555 1_555
H8 C15 1_555 1_555
C16 C15 1_555 1_555
H9 C16 1_555 1_555
C17 C16 1_555 1_555
C18 C17 1_555 1_555
H10 C18 1_555 1_555
C19 C14 1_555 1_555
H11 C19 1_555 1_555
O11 Ag3 1_555 1_555
C5 C6 1_555 1_555
C17 C20 1_555 1_555
C18 C19 1_555 1_555
O6 C27 1_555 1_555
O7 C27 1_555 1_555
C22 C21 1_555 1_555
H12 C22 1_555 1_555
C23 C22 1_555 1_555
H13 C23 1_555 1_555
C24 C23 1_555 1_555
C25 C24 1_555 1_555
H14 C25 1_555 1_555
C26 C21 1_555 1_555
C27 C24 1_555 1_555
Ag5 O6 1_555 1_555
Ag8 O6 1_555 1_555
C25 C26 1_555 1_555
O6_2 C27_2 1_555 1_555
O7_2 C27_2 1_555 1_555
C25_2 C24_2 1_555 1_555
H14_2 C25_2 1_555 1_555
C27_2 C24_2 1_555 1_555
Ag6 O6_2 1_555 1_555
Ag8_2 O7_2 1_555 1_555
C25_2 C26_2 1_555 1_555
Ag6 Ag8_2 1_555 1_555
H7 C12 1_555 1_555
C22_2 C21_2 1_555 1_555
H12_2 C22_2 1_555 1_555
C23_2 C22_2 1_555 1_555
H13_2 C23_2 1_555 1_555
C11 C12 1_555 1_555
Ag2_2 Ag3_2 1_555 1_555
Ag3_2 O5_2 1_555 1_555
O4_2 Ag2_2 1_555 1_555
O5_2 C20_2 1_555 1_555
C15_2 C14_2 1_555 1_555
H8_2 C15_2 1_555 1_555
C16_2 C15_2 1_555 1_555
H9_2 C16_2 1_555 1_555
C17_2 C16_2 1_555 1_555
C18_2 C17_2 1_555 1_555
C20_2 O4_2 1_555 1_555
Ag5 O4_2 1_555 1_555
O9_2 Ag2_2 1_555 1_555
O11_2 Ag2_2 1_555 1_555
O12_2 Ag3_2 1_555 1_555
C17_2 C20_2 1_555 1_555
Ag5 O9_2 1_555 1_555
C1_2 C2_2 1_555 1_555
C2_2 H1_2 1_555 1_555
C3_2 C2_2 1_555 1_555
C4_2 C3_2 1_555 1_555
C5_2 C4_2 1_555 1_555
C6_2 C1_2 1_555 1_555
C7 C1_2 1_555 1_555
C8 C7 1_555 1_555
H4_2 C8 1_555 1_555
C9 C8 1_555 1_555
H5 C9 1_555 1_555
C10 C9 1_555 1_555
H11_2 C19_2 1_555 1_555
C5_2 C6_2 1_555 1_555
Ag8 O5_3 1_555 1_555
O5_3 C20_3 1_555 1_555
O11 C27_3 1_555 1_555
O12 C27_3 1_555 1_555
C1_3 C2_3 1_555 1_555
C2_3 H1_3 1_555 1_555
C3_3 C2_3 1_555 1_555
C4_3 C3_3 1_555 1_555
H2_3 C4_3 1_555 1_555
C5_3 C4_3 1_555 1_555
C6_3 C1_3 1_555 1_555
H3_3 C6_3 1_555 1_555
C14_3 C3_3 1_555 1_555
C15_3 C14_3 1_555 1_555
H8_3 C15_3 1_555 1_555
C16_3 C15_3 1_555 1_555
H9_3 C16_3 1_555 1_555
C17_3 C16_3 1_555 1_555
C18_3 C17_3 1_555 1_555
H10_3 C18_3 1_555 1_555
C19_3 C14_3 1_555 1_555
H11_3 C19_3 1_555 1_555
C21_3 C5_3 1_555 1_555
C22_3 C21_3 1_555 1_555
H12_3 C22_3 1_555 1_555
C23_3 C22_3 1_555 1_555
H13_3 C23_3 1_555 1_555
C24_3 C23_3 1_555 1_555
C25_3 C24_3 1_555 1_555
H14_3 C25_3 1_555 1_555
C26_3 C21_3 1_555 1_555
H15_3 C26_3 1_555 1_555
C27_3 C24_3 1_555 1_555
C5_3 C6_3 1_555 1_555
C17_3 C20_3 1_555 1_555
C18_3 C19_3 1_555 1_555
C25_3 C26_3 1_555 1_555
C1_4 C2_4 1_555 1_555
C2_4 H1_4 1_555 1_555
C3_4 C2_4 1_555 1_555
C4_4 C3_4 1_555 1_555
C5_4 C4_4 1_555 1_555
C6_4 C1_4 1_555 1_555
H3_4 C6_4 1_555 1_555
C7_2 C1_4 1_555 1_555
C8_2 C7_2 1_555 1_555
H4_4 C8_2 1_555 1_555
C9_2 C8_2 1_555 1_555
H5_2 C9_2 1_555 1_555
C10_2 C9_2 1_555 1_555
C11_2 C10_2 1_555 1_555
C12_2 C7_2 1_555 1_555
H7_2 C12_2 1_555 1_555
H11_4 C19_4 1_555 1_555
C21_4 C5_4 1_555 1_555
C22_4 C21_4 1_555 1_555
H12_4 C22_4 1_555 1_555
C23_4 C22_4 1_555 1_555
H13_4 C23_4 1_555 1_555
C5_4 C6_4 1_555 1_555
C11_2 C12_2 1_555 1_555
Ag8_2 O5_4 1_555 1_555
O5_4 C20_4 1_555 1_555
O11_2 C27_4 1_555 1_555
O12_2 C27_4 1_555 1_555
C15_4 C14_4 1_555 1_555
H8_4 C15_4 1_555 1_555
C16_4 C15_4 1_555 1_555
H9_4 C16_4 1_555 1_555
C17_4 C16_4 1_555 1_555
C18_4 C17_4 1_555 1_555
C20_4 O9 1_555 1_555
C25_4 C24_4 1_555 1_555
H14_4 C25_4 1_555 1_555
H15_4 C26_4 1_555 1_555
C27_4 C24_4 1_555 1_555
C17_4 C20_4 1_555 1_555
C25_4 C26_4 1_555 1_555
O1 C13 1_555 1_555
C8_3 C7_3 1_555 1_555
C9_3 C8_3 1_555 1_555
H5_3 C9_3 1_555 1_555
C10_3 C9_3 1_555 1_555
C13 C10_3 1_555 1_555
O2 Ag1 1_555 1_555
O2 H16 1_555 1_555
O2 H17 1_555 1_555
H6 C11_3 1_555 1_555
H7_3 C12_3 1_555 1_555
C11_3 C12_3 1_555 1_555
H6_2 C11_4 1_555 1_555
H7_4 C12_4 1_555 1_555
C11_4 C12_4 1_555 1_555
O2_2 Ag4 1_555 1_555
O2_2 H16_2 1_555 1_555
O2_2 H17_2 1_555 1_555
O4_3 Ag2_3 1_555 1_555
Ag6_2 O4_3 1_555 1_555
O9_3 Ag2_3 1_555 1_555
O11_3 Ag2_3 1_555 1_555
Ag6_2 O9_3 1_555 1_555
Ag3_3 O5_5 1_555 1_555
O5_5 C20_5 1_555 1_555
O6_3 C27_5 1_555 1_555
O7_3 C27_5 1_555 1_555
C1_5 C2_5 1_555 1_555
C2_5 H1_5 1_555 1_555
C3_5 C2_5 1_555 1_555
C4_5 C3_5 1_555 1_555
H2_5 C4_5 1_555 1_555
C5_5 C4_5 1_555 1_555
C6_5 C1_5 1_555 1_555
H3_5 C6_5 1_555 1_555
C14_5 C3_5 1_555 1_555
C15_5 C14_5 1_555 1_555
H8_5 C15_5 1_555 1_555
C16_5 C15_5 1_555 1_555
H9_5 C16_5 1_555 1_555
C17_5 C16_5 1_555 1_555
C18_5 C17_5 1_555 1_555
H10_5 C18_5 1_555 1_555
C19_5 C14_5 1_555 1_555
H11_5 C19_5 1_555 1_555
C21_5 C5_5 1_555 1_555
C22_5 C21_5 1_555 1_555
H12_5 C22_5 1_555 1_555
C23_5 C22_5 1_555 1_555
H13_5 C23_5 1_555 1_555
C24_5 C23_5 1_555 1_555
C25_5 C24_5 1_555 1_555
H14_5 C25_5 1_555 1_555
C26_5 C21_5 1_555 1_555
H15_5 C26_5 1_555 1_555
C27_5 C24_5 1_555 1_555
Ag5_2 O6_3 1_555 1_555
Ag8_3 O6_3 1_555 1_555
O11_3 Ag3_3 1_555 1_555
C5_5 C6_5 1_555 1_555
C17_5 C20_5 1_555 1_555
C18_5 C19_5 1_555 1_555
C25_5 C26_5 1_555 1_555
Ag2_4 Ag3_4 1_555 1_555
Ag3_4 O5_6 1_555 1_555
O4_4 Ag2_4 1_555 1_555
O5_6 C20_6 1_555 1_555
O6_4 C27_6 1_555 1_555
O7_4 C27_6 1_555 1_555
C15_6 C14_6 1_555 1_555
H8_6 C15_6 1_555 1_555
C16_6 C15_6 1_555 1_555
H9_6 C16_6 1_555 1_555
C17_6 C16_6 1_555 1_555
C18_6 C17_6 1_555 1_555
C20_6 O4_4 1_555 1_555
C25_6 C24_6 1_555 1_555
H14_6 C25_6 1_555 1_555
H15_6 C26_6 1_555 1_555
C27_6 C24_6 1_555 1_555
Ag6_2 O6_4 1_555 1_555
Ag5_2 O4_4 1_555 1_555
Ag8_4 O7_4 1_555 1_555
O9_4 Ag2_4 1_555 1_555
O11_4 Ag2_4 1_555 1_555
O12_4 Ag3_4 1_555 1_555
C17_6 C20_6 1_555 1_555
C25_6 C26_6 1_555 1_555
Ag6_2 Ag8_4 1_555 1_555
Ag5_2 O9_4 1_555 1_555
C1_6 C2_6 1_555 1_555
C2_6 H1_6 1_555 1_555
C3_6 C2_6 1_555 1_555
C4_6 C3_6 1_555 1_555
C5_6 C4_6 1_555 1_555
C6_6 C1_6 1_555 1_555
H3_6 C6_6 1_555 1_555
C7_4 C1_6 1_555 1_555
C8_4 C7_4 1_555 1_555
H4_6 C8_4 1_555 1_555
C9_4 C8_4 1_555 1_555
H5_4 C9_4 1_555 1_555
C10_4 C9_4 1_555 1_555
C11_5 C10_4 1_555 1_555
C12_5 C7_4 1_555 1_555
H7_5 C12_5 1_555 1_555
H11_6 C19_6 1_555 1_555
C21_6 C5_6 1_555 1_555
C22_6 C21_6 1_555 1_555
H12_6 C22_6 1_555 1_555
C23_6 C22_6 1_555 1_555
H13_6 C23_6 1_555 1_555
C5_6 C6_6 1_555 1_555
C11_5 C12_5 1_555 1_555
O11_3 C27_7 1_555 1_555
O12_3 C27_7 1_555 1_555
C22_7 C21_7 1_555 1_555
H12_7 C22_7 1_555 1_555
C23_7 C22_7 1_555 1_555
H13_7 C23_7 1_555 1_555
C24_7 C23_7 1_555 1_555
C25_7 C24_7 1_555 1_555
H14_7 C25_7 1_555 1_555
C26_7 C21_7 1_555 1_555
C27_7 C24_7 1_555 1_555
C25_7 C26_7 1_555 1_555
Ag8_3 O5_7 1_555 1_555
O5_7 C20_7 1_555 1_555
C1_7 C2_7 1_555 1_555
C2_7 H1_7 1_555 1_555
C3_7 C2_7 1_555 1_555
C4_7 C3_7 1_555 1_555
H2_7 C4_7 1_555 1_555
C5_7 C4_7 1_555 1_555
C6_7 C1_7 1_555 1_555
C14_7 C3_7 1_555 1_555
C15_7 C14_7 1_555 1_555
H8_7 C15_7 1_555 1_555
C16_7 C15_7 1_555 1_555
H9_7 C16_7 1_555 1_555
C17_7 C16_7 1_555 1_555
C18_7 C17_7 1_555 1_555
H10_7 C18_7 1_555 1_555
C19_7 C14_7 1_555 1_555
H11_7 C19_7 1_555 1_555
C5_7 C6_7 1_555 1_555
C17_7 C20_7 1_555 1_555
C18_7 C19_7 1_555 1_555
C1_8 C2_8 1_555 1_555
C2_8 H1_8 1_555 1_555
C3_8 C2_8 1_555 1_555
C4_8 C3_8 1_555 1_555
C5_8 C4_8 1_555 1_555
C6_8 C1_8 1_555 1_555
C7_5 C1_8 1_555 1_555
C8_5 C7_5 1_555 1_555
H4_8 C8_5 1_555 1_555
C9_5 C8_5 1_555 1_555
H5_5 C9_5 1_555 1_555
C10_5 C9_5 1_555 1_555
H11_8 C19_8 1_555 1_555
C5_8 C6_8 1_555 1_555
Ag8_4 O5_8 1_555 1_555
O5_8 C20_8 1_555 1_555
C15_8 C14_8 1_555 1_555
H8_8 C15_8 1_555 1_555
C16_8 C15_8 1_555 1_555
H9_8 C16_8 1_555 1_555
C17_8 C16_8 1_555 1_555
C18_8 C17_8 1_555 1_555
C20_8 O9_3 1_555 1_555
C17_8 C20_8 1_555 1_555
H7_6 C12_6 1_555 1_555
C22_8 C21_8 1_555 1_555
H12_8 C22_8 1_555 1_555
C23_8 C22_8 1_555 1_555
H13_8 C23_8 1_555 1_555
C11_6 C12_6 1_555 1_555
O11_4 C27_8 1_555 1_555
O12_4 C27_8 1_555 1_555
C25_8 C24_8 1_555 1_555
H14_8 C25_8 1_555 1_555
C27_8 C24_8 1_555 1_555
C25_8 C26_8 1_555 1_555
O2_3 Ag1_2 1_555 1_555
O2_3 H16_3 1_555 1_555
O2_3 H17_3 1_555 1_555
O1_2 C13_2 1_555 1_555
O3_2 C13_2 1_555 1_555
C8_6 C7_6 1_555 1_555
C9_6 C8_6 1_555 1_555
H5_6 C9_6 1_555 1_555
C10_6 C9_6 1_555 1_555
C11_7 C10_6 1_555 1_555
H6_3 C11_7 1_555 1_555
C12_7 C7_6 1_555 1_555
H7_7 C12_7 1_555 1_555
C13_2 C10_6 1_555 1_555
C11_7 C12_7 1_555 1_555
O1_3 C13_3 1_555 1_555
O8_2 C13_3 1_555 1_555
C8_7 C7_7 1_555 1_555
C9_7 C8_7 1_555 1_555
H5_7 C9_7 1_555 1_555
C10_7 C9_7 1_555 1_555
C11_8 C10_7 1_555 1_555
H6_4 C11_8 1_555 1_555
C12_8 C7_7 1_555 1_555
H7_8 C12_8 1_555 1_555
C13_3 C10_7 1_555 1_555
C11_8 C12_8 1_555 1_555
O2_4 Ag4_2 1_555 1_555
O2_4 H16_4 1_555 1_555
O2_4 H17_4 1_555 1_555
Ag1_3 O1_4 1_555 1_555
O1_4 C13_4 1_555 1_555
O2_5 Ag1_3 1_555 1_555
O3_3 C13_4 1_555 1_555
Ag4_3 Ag1_3 1_555 1_555
O8_3 Ag1_3 1_555 1_555
O3_3 Ag4_3 1_555 1_555
O2_5 H16_5 1_555 1_555
O2_5 H17_5 1_555 1_555
Ag4_3 O1_5 1_555 1_555
O1_5 C13_5 1_555 1_555
O2_6 Ag4_3 1_555 1_555
O8_3 C13_5 1_555 1_555
O2_6 H16_6 1_555 1_555
O2_6 H17_6 1_555 1_555
O3_4 Ag4_4 1_555 1_555
Ag4_4 O1_6 1_555 1_555
O1_6 C13_6 1_555 1_555
O2_7 Ag4_4 1_555 1_555
O2_7 H16_7 1_555 1_555
O2_7 H17_7 1_555 1_555
Ag1_4 O1_7 1_555 1_555
O1_7 C13_7 1_555 1_555
O2_8 Ag1_4 1_555 1_555
O8_4 Ag1_4 1_555 1_555
O2_8 H16_8 1_555 1_555
O2_8 H17_8 1_555 1_555
O1_8 C13_8 1_555 1_555
C8_8 C7_8 1_555 1_555
C9_8 C8_8 1_555 1_555
H5_8 C9_8 1_555 1_555
C10_8 C9_8 1_555 1_555
C13_8 C10_8 1_555 1_555

#END
