
###############################################################################
#
# This file contains modified crystal structure data generated from the
# MOF subset of the Cambridge Structural Database (CSD) v543 
# hosted by the Cambridge Crystallographic Data Centre (CCDC).
#
# This work is licensed under the Creative Commons
# Attribution-NonCommercial-ShareAlike 4.0 International License.
# To view a copy of this license, visit
# http://creativecommons.org/licenses/by-nc-sa/4.0/
# or send a letter to
# Creative Commons, PO Box 1866, Mountain View, CA 94042, USA.
#
# CIF created using the CSD Python API on 29 September 2022
# The structure has been converted into the P1 space group
# The structure has a 3D framework
# The original CSD entry SUNLAP is in the tetragonal crystal system
# The original CSD entry SUNLAP is in a Sohncke space group
# The framework has been calculated to contain at least 10.0% void space
# The void calculation uses a probe of radius 1.32A, grid spacing 0.4
# H atom positions have been added when not included in the experimental data
# Generated hydrogen atom positions removed from atoms on special positions
#
###############################################################################

data_SUNLAP
_chemical_formula_moiety         '(C880 H704 Cu34 N16 O186)n'
_symmetry_cell_setting           triclinic
_symmetry_space_group_name_H-M   'P 1'
_symmetry_Int_Tables_number      1
_space_group_name_Hall           'P 1'
loop_
_symmetry_equiv_pos_site_id
_symmetry_equiv_pos_as_xyz
1 x,y,z
_cell_length_a                   23.7776(2)
_cell_length_b                   23.7776(2)
_cell_length_c                   75.9896(10)
_cell_angle_alpha                90
_cell_angle_beta                 90
_cell_angle_gamma                90
_cell_volume                     42962.6
loop_
_atom_site_label
_atom_site_type_symbol
_atom_site_fract_x
_atom_site_fract_y
_atom_site_fract_z
Cu5 Cu 0.04322(4) 0.03468(4) 0.139107(9)
C1 C 0.15377(19) 0.80139(18) 0.21660(5)
C2 C 0.1767(2) 0.82838(13) 0.23116(6)
H1 H 0.1744 0.8673 0.2321
C3 C 0.2031(2) 0.79720(18) 0.24424(4)
C4 C 0.20653(16) 0.73903(18) 0.24277(4)
C5 C 0.18361(18) 0.71204(13) 0.22822(5)
C6 C 0.15723(17) 0.74322(18) 0.21513(4)
C7 C 0.1354(3) 0.7157(3) 0.19981(7)
H2 H 0.1202 0.7370 0.1907
C8 C 0.1366(3) 0.6575(3) 0.19839(8)
C9 C 0.1611(3) 0.6263(3) 0.21240(8)
H3 H 0.1613 0.5873 0.2119
C10 C 0.1841(3) 0.6527(3) 0.22631(7)
H4 H 0.2011 0.6312 0.2350
C11 C 0.1235(2) 0.83960(19) 0.20268(5)
C12 C 0.0692(2) 0.82780(16) 0.19696(6)
H5 H 0.0494 0.7978 0.2018
C13 C 0.04455(17) 0.8608(2) 0.18397(6)
H6 H 0.0082 0.8529 0.1801
C14 C 0.0741(2) 0.90552(18) 0.17671(5)
C15 C 0.1284(2) 0.91732(17) 0.18243(6)
H7 H 0.1482 0.9473 0.1776
C16 C 0.15306(18) 0.8844(2) 0.19541(6)
H8 H 0.1894 0.8923 0.1992
O2 O 0.0030(3) 0.5724(2) 0.12943(5)
O3 O 0.0728(2) 0.5115(2) 0.12986(6)
C17 C 0.1127(2) 0.6305(2) 0.18234(5)
C18 C 0.14007(18) 0.5846(2) 0.17487(6)
H9 H 0.1726 0.5705 0.1800
C19 C 0.1189(2) 0.56004(19) 0.15966(6)
H10 H 0.1371 0.5294 0.1547
C20 C 0.0703(2) 0.5813(2) 0.15193(5)
C21 C 0.04298(17) 0.6271(2) 0.15941(6)
H11 H 0.0105 0.6413 0.1542
C22 C 0.0642(2) 0.65169(18) 0.17461(6)
H12 H 0.0459 0.6823 0.1796
C23 C 0.0478(4) 0.9396(3) 0.16308(9)
C24 C 0.0499(4) 0.5518(3) 0.13595(9)
C25 C 0.2083(9) 0.8863(7) 0.2625(2)
C26 C 0.193(3) 0.906(2) 0.2733(8)
O4 O 0.0725(2) 0.9815(2) 0.15690(5)
O6 O 0.2266(3) 0.8216(2) 0.25843(6)
Cu2 Cu 0.46532(4) 0.45678(4) 0.360893(9)
Cu4 Cu 0.04322(4) 0.46532(4) 0.110893(9)
Cu6 Cu 0.03468(4) 0.45678(4) 0.389107(9)
Cu8 Cu 0.53468(4) 0.54322(4) 0.360893(9)
C30 C 0.30139(18) 0.65377(19) 0.28340(5)
C31 C 0.32838(13) 0.6767(2) 0.26884(6)
H13 H 0.3673 0.6744 0.2679
C32 C 0.29720(18) 0.7031(2) 0.25576(4)
C33 C 0.23903(18) 0.70653(16) 0.25723(4)
C34 C 0.21204(13) 0.68361(18) 0.27178(5)
C35 C 0.24322(18) 0.65723(17) 0.28487(4)
C36 C 0.2157(3) 0.6354(3) 0.30019(7)
H14 H 0.2370 0.6202 0.3093
C37 C 0.1575(3) 0.6366(3) 0.30161(8)
C38 C 0.1263(3) 0.6611(3) 0.28760(8)
H15 H 0.0873 0.6613 0.2881
C39 C 0.1527(3) 0.6841(3) 0.27369(7)
H16 H 0.1312 0.7011 0.2650
C40 C 0.33960(19) 0.6235(2) 0.29732(5)
C41 C 0.32780(16) 0.5692(2) 0.30304(6)
H17 H 0.2978 0.5494 0.2982
C42 C 0.3608(2) 0.54455(17) 0.31603(6)
H18 H 0.3529 0.5082 0.3199
C43 C 0.40552(18) 0.5741(2) 0.32329(5)
C44 C 0.41732(17) 0.6284(2) 0.31757(6)
H19 H 0.4473 0.6482 0.3224
C45 C 0.3844(2) 0.65306(18) 0.30459(6)
H20 H 0.3923 0.6894 0.3008
O7 O 0.4254(2) 0.4998(2) 0.34235(5)
O8 O 0.0724(2) 0.5030(3) 0.37057(5)
O9 O 0.0030(3) 0.9276(2) 0.12057(5)
O10 O 0.4276(2) 0.5030(3) 0.37943(5)
O11 O 0.0115(2) 0.5728(2) 0.37014(6)
O13 O 0.5115(2) 0.4272(2) 0.37986(6)
C46 C 0.1305(2) 0.6127(2) 0.31766(5)
C47 C 0.0846(2) 0.64007(18) 0.32513(6)
H21 H 0.0705 0.6726 0.3200
C48 C 0.06004(19) 0.6189(2) 0.34034(6)
H22 H 0.0294 0.6371 0.3453
C49 C 0.0813(2) 0.5703(2) 0.34807(5)
C50 C 0.1271(2) 0.54298(17) 0.34059(6)
H23 H 0.1413 0.5105 0.3458
C51 C 0.15169(18) 0.5642(2) 0.32539(6)
H24 H 0.1823 0.5459 0.3204
C52 C 0.4396(3) 0.5478(4) 0.33692(9)
C53 C 0.0518(3) 0.5499(4) 0.36405(9)
C54 C 0.3863(7) 0.7083(9) 0.2375(2)
C55 C 0.406(2) 0.693(3) 0.2267(8)
O14 O 0.4815(2) 0.5725(2) 0.34310(5)
O16 O 0.5185(2) 0.4275(2) 0.34310(5)
O17 O 0.4092(3) 0.3853(3) 0.36071(7)
O18 O 0.3216(2) 0.7266(3) 0.24157(6)
C56 C 0.3963(9) 0.3773(9) 0.3460(2)
N2 N 0.3562(7) 0.3330(7) 0.3388(2)
C57 C 0.3018(8) 0.3341(8) 0.3506(2)
C58 C 0.3576(8) 0.3182(8) 0.3194(2)
H56 H 0.410046 0.746259 0.240514
H57 H 0.394779 0.676495 0.247464
H58 H 0.402069 0.723003 0.215943
H59 H 0.450316 0.686303 0.22965
H60 H 0.386802 0.653239 0.222893
H61 H 0.399167 0.302425 0.31596
H62 H 0.326244 0.285975 0.316673
H63 H 0.348394 0.355569 0.311631
H64 H 0.415421 0.40505 0.336295
H65 H 0.282667 0.375663 0.349971
H66 H 0.272016 0.302829 0.345828
H67 H 0.313082 0.324569 0.364165
H82 H 0.246259 0.910046 0.259486
H83 H 0.176495 0.894779 0.252536
H84 H 0.223003 0.902069 0.284057
H85 H 0.186303 0.950316 0.27035
H86 H 0.153239 0.886802 0.277107
O12 O 0.9272(2) 0.0115(2) 0.12014(6)
O15 O 0.9275(2) 0.0185(2) 0.15690(5)
Cu1 Cu 0.95678(4) 0.96532(4) 0.139107(9)
O1 O 0.9998(2) 0.9254(2) 0.15765(5)
O5 O 0.8853(3) 0.9092(3) 0.13929(7)
C27 C 0.8773(9) 0.8963(9) 0.1540(2)
N1 N 0.8330(7) 0.8562(7) 0.1612(2)
C28 C 0.8341(8) 0.8018(8) 0.1494(2)
C29 C 0.8182(8) 0.8576(8) 0.1806(2)
Cu3 Cu 0.95678(4) 0.53468(4) 0.110893(9)
Cu7 Cu 0.96532(4) 0.54322(4) 0.389107(9)
H49 H 0.875663 0.782667 0.150029
H50 H 0.802829 0.772016 0.154172
H51 H 0.824569 0.813082 0.135835
H52 H 0.802425 0.899167 0.18404
H53 H 0.785975 0.826244 0.183327
H54 H 0.855569 0.848394 0.188369
H55 H 0.90505 0.915421 0.163705
Cu2_2 Cu 0.03468(4) 0.04322(4) 0.860893(9)
Cu4_2 Cu 0.45678(4) 0.03468(4) 0.610893(9)
Cu6_2 Cu 0.46532(4) 0.04322(4) 0.889107(9)
O7_2 O 0.0746(2) 0.0002(2) 0.84235(5)
O17_2 O 0.0908(3) 0.1147(3) 0.86071(7)
C56_2 C 0.1037(9) 0.1227(9) 0.8460(2)
N2_2 N 0.1438(7) 0.1670(7) 0.8388(2)
C57_2 C 0.1982(8) 0.1659(8) 0.8506(2)
C58_2 C 0.1424(8) 0.1818(8) 0.8194(2)
H61_2 H 0.100833 0.197575 0.81596
H62_2 H 0.173756 0.214025 0.816673
H63_2 H 0.151606 0.144431 0.811631
H64_2 H 0.0845793 0.0949502 0.836295
H65_2 H 0.217333 0.124337 0.849971
H66_2 H 0.227984 0.197171 0.845828
H67_2 H 0.186918 0.175431 0.864165
Cu1_2 Cu 0.54322(4) 0.53468(4) 0.639107(9)
C1_2 C 0.34623(19) 0.69861(18) 0.71660(5)
C2_2 C 0.3233(2) 0.67162(13) 0.73116(6)
H1_2 H 0.3256 0.6327 0.7321
C3_2 C 0.2969(2) 0.70280(18) 0.74424(4)
C4_2 C 0.29347(16) 0.76097(18) 0.74277(4)
C5_2 C 0.31639(18) 0.78796(13) 0.72822(5)
C6_2 C 0.34277(17) 0.75678(18) 0.71513(4)
C7_2 C 0.3646(3) 0.7843(3) 0.69981(7)
H2_2 H 0.3798 0.7630 0.6907
C8_2 C 0.3634(3) 0.8425(3) 0.69839(8)
C9_2 C 0.3389(3) 0.8737(3) 0.71240(8)
H3_2 H 0.3387 0.9127 0.7119
C10_2 C 0.3159(3) 0.8473(3) 0.72631(7)
H4_2 H 0.2989 0.8688 0.7350
C11_2 C 0.3765(2) 0.66040(19) 0.70268(5)
C12_2 C 0.4308(2) 0.67220(16) 0.69696(6)
H5_2 H 0.4506 0.7022 0.7018
C13_2 C 0.45545(17) 0.6392(2) 0.68397(6)
H6_2 H 0.4918 0.6471 0.6801
C14_2 C 0.4259(2) 0.59448(18) 0.67671(5)
C15_2 C 0.3716(2) 0.58268(17) 0.68243(6)
H7_2 H 0.3518 0.5527 0.6776
C16_2 C 0.34694(18) 0.6156(2) 0.69541(6)
H8_2 H 0.3106 0.6077 0.6992
O1_2 O 0.5002(2) 0.5746(2) 0.65765(5)
O2_2 O 0.4970(3) 0.9276(2) 0.62943(5)
O3_2 O 0.4272(2) 0.9885(2) 0.62986(6)
C17_2 C 0.3873(2) 0.8695(2) 0.68234(5)
C18_2 C 0.35993(18) 0.9154(2) 0.67487(6)
H9_2 H 0.3274 0.9295 0.6800
C19_2 C 0.3811(2) 0.93996(19) 0.65966(6)
H10_2 H 0.3629 0.9706 0.6547
C20_2 C 0.4297(2) 0.9187(2) 0.65193(5)
C21_2 C 0.45702(17) 0.8729(2) 0.65941(6)
H11_2 H 0.4895 0.8587 0.6542
C22_2 C 0.4358(2) 0.84831(18) 0.67461(6)
H12_2 H 0.4541 0.8177 0.6796
C23_2 C 0.4522(4) 0.5604(3) 0.66308(9)
C24_2 C 0.4501(4) 0.9482(3) 0.63595(9)
C25_2 C 0.2917(9) 0.6137(7) 0.7625(2)
C26_2 C 0.307(3) 0.594(2) 0.7733(8)
O4_2 O 0.4275(2) 0.5185(2) 0.65690(5)
O5_2 O 0.6147(3) 0.5908(3) 0.63929(7)
O6_2 O 0.2734(3) 0.6784(2) 0.75843(6)
C27_2 C 0.6227(9) 0.6037(9) 0.6540(2)
N1_2 N 0.6670(7) 0.6438(7) 0.6612(2)
C28_2 C 0.6659(8) 0.6982(8) 0.6494(2)
C29_2 C 0.6818(8) 0.6424(8) 0.6806(2)
Cu3_2 Cu 0.54322(4) 0.96532(4) 0.610893(9)
Cu5_2 Cu 0.45678(4) 0.46532(4) 0.639107(9)
Cu7_2 Cu 0.53468(4) 0.95678(4) 0.889107(9)
C30_2 C 0.19861(18) 0.84623(19) 0.78340(5)
C31_2 C 0.17162(13) 0.8233(2) 0.76884(6)
H13_2 H 0.1327 0.8256 0.7679
C32_2 C 0.20280(18) 0.7969(2) 0.75576(4)
C33_2 C 0.26097(18) 0.79347(16) 0.75723(4)
C34_2 C 0.28796(13) 0.81639(18) 0.77178(5)
C35_2 C 0.25678(18) 0.84277(17) 0.78487(4)
C36_2 C 0.2843(3) 0.8646(3) 0.80019(7)
H14_2 H 0.2630 0.8798 0.8093
C37_2 C 0.3425(3) 0.8634(3) 0.80161(8)
C38_2 C 0.3737(3) 0.8389(3) 0.78760(8)
H15_2 H 0.4127 0.8387 0.7881
C39_2 C 0.3473(3) 0.8159(3) 0.77369(7)
H16_2 H 0.3688 0.7989 0.7650
C40_2 C 0.16040(19) 0.8765(2) 0.79732(5)
C41_2 C 0.17220(16) 0.9308(2) 0.80304(6)
H17_2 H 0.2022 0.9506 0.7982
C42_2 C 0.1392(2) 0.95545(17) 0.81603(6)
H18_2 H 0.1471 0.9918 0.8199
C43_2 C 0.09448(18) 0.9259(2) 0.82329(5)
C44_2 C 0.08268(17) 0.8716(2) 0.81757(6)
H19_2 H 0.0527 0.8518 0.8224
C45_2 C 0.1156(2) 0.84694(18) 0.80459(6)
H20_2 H 0.1077 0.8106 0.8008
O8_2 O 0.4276(2) 0.9970(3) 0.87057(5)
O9_2 O 0.4970(3) 0.5724(2) 0.62057(5)
O10_2 O 0.0724(2) 0.9970(3) 0.87943(5)
O11_2 O 0.4885(2) 0.9272(2) 0.87014(6)
O12_2 O 0.5728(2) 0.4885(2) 0.62014(6)
C46_2 C 0.3695(2) 0.8873(2) 0.81766(5)
C47_2 C 0.4154(2) 0.85993(18) 0.82513(6)
H21_2 H 0.4295 0.8274 0.8200
C48_2 C 0.43996(19) 0.8811(2) 0.84034(6)
H22_2 H 0.4706 0.8629 0.8453
C49_2 C 0.4187(2) 0.9297(2) 0.84807(5)
C50_2 C 0.3729(2) 0.95702(17) 0.84059(6)
H23_2 H 0.3587 0.9895 0.8458
C51_2 C 0.34831(18) 0.9358(2) 0.82539(6)
H24_2 H 0.3177 0.9541 0.8204
C52_2 C 0.0604(3) 0.9522(4) 0.83692(9)
C53_2 C 0.4482(3) 0.9501(4) 0.86405(9)
C54_2 C 0.1137(7) 0.7917(9) 0.7375(2)
C55_2 C 0.094(2) 0.807(3) 0.7267(8)
O14_2 O 0.0185(2) 0.9275(2) 0.84310(5)
O15_2 O 0.5725(2) 0.4815(2) 0.65690(5)
O18_2 O 0.1784(2) 0.7734(3) 0.74157(6)
H49_2 H 0.624337 0.717333 0.650029
H50_2 H 0.697171 0.727984 0.654172
H51_2 H 0.675431 0.686918 0.635835
H52_2 H 0.697575 0.600833 0.68404
H53_2 H 0.714025 0.673756 0.683327
H54_2 H 0.644431 0.651606 0.688369
H55_2 H 0.59495 0.584579 0.663705
H56_2 H 0.0899539 0.753741 0.740514
H57_2 H 0.105221 0.823505 0.747464
H58_2 H 0.0979307 0.776997 0.715943
H59_2 H 0.0496843 0.813697 0.72965
H60_2 H 0.113198 0.846761 0.722893
H82_2 H 0.253741 0.589954 0.759486
H83_2 H 0.323505 0.605221 0.752536
H84_2 H 0.276997 0.597931 0.784057
H85_2 H 0.313697 0.549684 0.77035
H86_2 H 0.346761 0.613198 0.777107
O13_2 O 0.9885(2) 0.0728(2) 0.87986(6)
O16_2 O 0.9815(2) 0.0725(2) 0.84310(5)
Cu8_2 Cu 0.96532(4) 0.95678(4) 0.860893(9)
O13_3 O 0.5728(2) 0.0115(2) 0.62986(6)
O16_3 O 0.5725(2) 0.0185(2) 0.59310(5)
C1_3 C 0.19861(18) 0.65377(19) 0.46660(5)
C2_3 C 0.17162(13) 0.6767(2) 0.48116(6)
H1_3 H 0.1327 0.6744 0.4821
C3_3 C 0.20280(18) 0.7031(2) 0.49424(4)
C4_3 C 0.26097(18) 0.70653(16) 0.49277(4)
C5_3 C 0.28796(13) 0.68361(18) 0.47822(5)
C6_3 C 0.25678(18) 0.65723(17) 0.46513(4)
C7_3 C 0.2843(3) 0.6354(3) 0.44981(7)
H2_3 H 0.2630 0.6202 0.4407
C8_3 C 0.3425(3) 0.6366(3) 0.44839(8)
C9_3 C 0.3737(3) 0.6611(3) 0.46240(8)
H3_3 H 0.4127 0.6613 0.4619
C10_3 C 0.3473(3) 0.6841(3) 0.47631(7)
H4_3 H 0.3688 0.7011 0.4850
C11_3 C 0.16040(19) 0.6235(2) 0.45268(5)
C12_3 C 0.17220(16) 0.5692(2) 0.44696(6)
H5_3 H 0.2022 0.5494 0.4518
C13_3 C 0.1392(2) 0.54455(17) 0.43397(6)
H6_3 H 0.1471 0.5082 0.4301
C14_3 C 0.09448(18) 0.5741(2) 0.42671(5)
C15_3 C 0.08268(17) 0.6284(2) 0.43243(6)
H7_3 H 0.0527 0.6482 0.4276
C16_3 C 0.1156(2) 0.65306(18) 0.44541(6)
H8_3 H 0.1077 0.6894 0.4492
O1_3 O 0.0746(2) 0.4998(2) 0.40765(5)
O3_3 O 0.4885(2) 0.5728(2) 0.37986(6)
C17_3 C 0.3695(2) 0.6127(2) 0.43234(5)
C18_3 C 0.4154(2) 0.64007(18) 0.42487(6)
H9_3 H 0.4295 0.6726 0.4300
C19_3 C 0.43996(19) 0.6189(2) 0.40966(6)
H10_3 H 0.4706 0.6371 0.4047
C20_3 C 0.4187(2) 0.5703(2) 0.40193(5)
C21_3 C 0.3729(2) 0.54298(17) 0.40941(6)
H11_3 H 0.3587 0.5105 0.4042
C22_3 C 0.34831(18) 0.5642(2) 0.42461(6)
H12_3 H 0.3177 0.5459 0.4296
C23_3 C 0.0604(3) 0.5478(4) 0.41308(9)
C24_3 C 0.4482(3) 0.5499(4) 0.38595(9)
C25_3 C 0.1137(7) 0.7083(9) 0.5125(2)
C26_3 C 0.094(2) 0.693(3) 0.5233(8)
O4_3 O 0.0185(2) 0.5725(2) 0.40690(5)
O5_3 O 0.0908(3) 0.3853(3) 0.38929(7)
O6_3 O 0.1784(2) 0.7266(3) 0.50843(6)
C27_3 C 0.1037(9) 0.3773(9) 0.4040(2)
N1_3 N 0.1438(7) 0.3330(7) 0.4112(2)
C28_3 C 0.1982(8) 0.3341(8) 0.3994(2)
C29_3 C 0.1424(8) 0.3182(8) 0.4306(2)
C30_3 C 0.34623(19) 0.80139(18) 0.53340(5)
C31_3 C 0.3233(2) 0.82838(13) 0.51884(6)
H13_3 H 0.3256 0.8673 0.5179
C32_3 C 0.2969(2) 0.79720(18) 0.50576(4)
C33_3 C 0.29347(16) 0.73903(18) 0.50723(4)
C34_3 C 0.31639(18) 0.71204(13) 0.52178(5)
C35_3 C 0.34277(17) 0.74322(18) 0.53487(4)
C36_3 C 0.3646(3) 0.7157(3) 0.55019(7)
H14_3 H 0.3798 0.7370 0.5593
C37_3 C 0.3634(3) 0.6575(3) 0.55161(8)
C38_3 C 0.3389(3) 0.6263(3) 0.53760(8)
H15_3 H 0.3387 0.5873 0.5381
C39_3 C 0.3159(3) 0.6527(3) 0.52369(7)
H16_3 H 0.2989 0.6312 0.5150
C40_3 C 0.3765(2) 0.83960(19) 0.54732(5)
C41_3 C 0.4308(2) 0.82780(16) 0.55304(6)
H17_3 H 0.4506 0.7978 0.5482
C42_3 C 0.45545(17) 0.8608(2) 0.56603(6)
H18_3 H 0.4918 0.8529 0.5699
C43_3 C 0.4259(2) 0.90552(18) 0.57329(5)
C44_3 C 0.3716(2) 0.91732(17) 0.56757(6)
H19_3 H 0.3518 0.9473 0.5724
C45_3 C 0.34694(18) 0.8844(2) 0.55459(6)
H20_3 H 0.3106 0.8923 0.5508
O7_3 O 0.5002(2) 0.9254(2) 0.59235(5)
O11_3 O 0.4272(2) 0.5115(2) 0.62014(6)
C46_3 C 0.3873(2) 0.6305(2) 0.56766(5)
C47_3 C 0.35993(18) 0.5846(2) 0.57513(6)
H21_3 H 0.3274 0.5705 0.5700
C48_3 C 0.3811(2) 0.56004(19) 0.59034(6)
H22_3 H 0.3629 0.5294 0.5953
C49_3 C 0.4297(2) 0.5813(2) 0.59807(5)
C50_3 C 0.45702(17) 0.6271(2) 0.59059(6)
H23_3 H 0.4895 0.6413 0.5958
C51_3 C 0.4358(2) 0.65169(18) 0.57539(6)
H24_3 H 0.4541 0.6823 0.5704
C52_3 C 0.4522(4) 0.9396(3) 0.58692(9)
C53_3 C 0.4501(4) 0.5518(3) 0.61405(9)
C54_3 C 0.2917(9) 0.8863(7) 0.4875(2)
C55_3 C 0.307(3) 0.906(2) 0.4767(8)
O14_3 O 0.4275(2) 0.9815(2) 0.59310(5)
O17_3 O 0.6147(3) 0.9092(3) 0.61071(7)
O18_3 O 0.2734(3) 0.8216(2) 0.49157(6)
C56_3 C 0.6227(9) 0.8963(9) 0.5960(2)
N2_3 N 0.6670(7) 0.8562(7) 0.5888(2)
C57_3 C 0.6659(8) 0.8018(8) 0.6006(2)
C58_3 C 0.6818(8) 0.8576(8) 0.5694(2)
H49_3 H 0.217333 0.375663 0.400029
H50_3 H 0.227984 0.302829 0.404172
H51_3 H 0.186918 0.324569 0.385835
H52_3 H 0.100833 0.302425 0.43404
H53_3 H 0.173756 0.285975 0.433327
H54_3 H 0.151606 0.355569 0.438369
H55_3 H 0.0845793 0.40505 0.413705
H56_3 H 0.253741 0.910046 0.490514
H57_3 H 0.323505 0.894779 0.497464
H58_3 H 0.276997 0.902069 0.465943
H59_3 H 0.313697 0.950316 0.47965
H60_3 H 0.346761 0.886802 0.472893
H61_3 H 0.697575 0.899167 0.56596
H62_3 H 0.714025 0.826244 0.566673
H63_3 H 0.644431 0.848394 0.561631
H64_3 H 0.59495 0.915421 0.586295
H65_3 H 0.624337 0.782667 0.599971
H66_3 H 0.697171 0.772016 0.595828
H67_3 H 0.675431 0.813082 0.614165
H82_3 H 0.0899539 0.746259 0.509486
H83_3 H 0.105221 0.676495 0.502536
H84_3 H 0.0979307 0.723003 0.534057
H85_3 H 0.0496843 0.686303 0.52035
H86_3 H 0.113198 0.653239 0.527107
O12_3 O 0.9885(2) 0.4272(2) 0.37014(6)
O15_3 O 0.9815(2) 0.4275(2) 0.40690(5)
O1_4 O 0.4254(2) 0.0002(2) 0.90765(5)
O5_4 O 0.4092(3) 0.1147(3) 0.88929(7)
C27_4 C 0.3963(9) 0.1227(9) 0.9040(2)
N1_4 N 0.3562(7) 0.1670(7) 0.9112(2)
C28_4 C 0.3018(8) 0.1659(8) 0.8994(2)
C29_4 C 0.3576(8) 0.1818(8) 0.9306(2)
O12_4 O 0.5115(2) 0.0728(2) 0.87014(6)
O15_4 O 0.5185(2) 0.0725(2) 0.90690(5)
H49_4 H 0.282667 0.124337 0.900029
H50_4 H 0.272016 0.197171 0.904172
H51_4 H 0.313082 0.175431 0.885835
H52_4 H 0.399167 0.197575 0.93404
H53_4 H 0.326244 0.214025 0.933327
H54_4 H 0.348394 0.144431 0.938369
H55_4 H 0.415421 0.0949502 0.913705
C25_4 C 0.3863(7) 0.7917(9) 0.0125(2)
C26_4 C 0.406(2) 0.807(3) 0.0233(8)
O6_4 O 0.3216(2) 0.7734(3) 0.00843(6)
C30_4 C 0.15377(19) 0.69861(18) 0.03340(5)
C31_4 C 0.1767(2) 0.67162(13) 0.01884(6)
H13_4 H 0.1744 0.6327 0.0179
C32_4 C 0.2031(2) 0.70280(18) 0.00576(4)
C33_4 C 0.20653(16) 0.76097(18) 0.00723(4)
C34_4 C 0.18361(18) 0.78796(13) 0.02178(5)
C35_4 C 0.15723(17) 0.75678(18) 0.03487(4)
C36_4 C 0.1354(3) 0.7843(3) 0.05019(7)
H14_4 H 0.1202 0.7630 0.0593
C37_4 C 0.1366(3) 0.8425(3) 0.05161(8)
C38_4 C 0.1611(3) 0.8737(3) 0.03760(8)
H15_4 H 0.1613 0.9127 0.0381
C39_4 C 0.1841(3) 0.8473(3) 0.02369(7)
H16_4 H 0.2011 0.8688 0.0150
C40_4 C 0.1235(2) 0.66040(19) 0.04732(5)
C41_4 C 0.0692(2) 0.67220(16) 0.05304(6)
H17_4 H 0.0494 0.7022 0.0482
C42_4 C 0.04455(17) 0.6392(2) 0.06603(6)
H18_4 H 0.0082 0.6471 0.0699
C43_4 C 0.0741(2) 0.59448(18) 0.07329(5)
C44_4 C 0.1284(2) 0.58268(17) 0.06757(6)
H19_4 H 0.1482 0.5527 0.0724
C45_4 C 0.15306(18) 0.6156(2) 0.05459(6)
H20_4 H 0.1894 0.6077 0.0508
O11_4 O 0.0728(2) 0.9885(2) 0.12014(6)
C46_4 C 0.1127(2) 0.8695(2) 0.06766(5)
C47_4 C 0.14007(18) 0.9154(2) 0.07513(6)
H21_4 H 0.1726 0.9295 0.0700
C48_4 C 0.1189(2) 0.93996(19) 0.09034(6)
H22_4 H 0.1371 0.9706 0.0953
C49_4 C 0.0703(2) 0.9187(2) 0.09807(5)
C50_4 C 0.04298(17) 0.8729(2) 0.09059(6)
H23_4 H 0.0105 0.8587 0.0958
C51_4 C 0.0642(2) 0.84831(18) 0.07539(6)
H24_4 H 0.0459 0.8177 0.0704
C52_4 C 0.0478(4) 0.5604(3) 0.08692(9)
C53_4 C 0.0499(4) 0.9482(3) 0.11405(9)
O14_4 O 0.0725(2) 0.5185(2) 0.09310(5)
H82_4 H 0.410046 0.753741 0.00948565
H83_4 H 0.394779 0.823505 0.0025355
H84_4 H 0.402069 0.776997 0.0340575
H85_4 H 0.450316 0.813697 0.0203504
H86_4 H 0.386802 0.846761 0.0271073
C1_4 C 0.30139(18) 0.84623(19) 0.96660(5)
C2_4 C 0.32838(13) 0.8233(2) 0.98116(6)
H1_4 H 0.3673 0.8256 0.9821
C3_4 C 0.29720(18) 0.7969(2) 0.99424(4)
C4_4 C 0.23903(18) 0.79347(16) 0.99277(4)
C5_4 C 0.21204(13) 0.81639(18) 0.97822(5)
C6_4 C 0.24322(18) 0.84277(17) 0.96513(4)
C7_4 C 0.2157(3) 0.8646(3) 0.94981(7)
H2_4 H 0.2370 0.8798 0.9407
C8_4 C 0.1575(3) 0.8634(3) 0.94839(8)
C9_4 C 0.1263(3) 0.8389(3) 0.96240(8)
H3_4 H 0.0873 0.8387 0.9619
C10_4 C 0.1527(3) 0.8159(3) 0.97631(7)
H4_4 H 0.1312 0.7989 0.9850
C11_4 C 0.33960(19) 0.8765(2) 0.95268(5)
C12_4 C 0.32780(16) 0.9308(2) 0.94696(6)
H5_4 H 0.2978 0.9506 0.9518
C13_4 C 0.3608(2) 0.95545(17) 0.93397(6)
H6_4 H 0.3529 0.9918 0.9301
C14_4 C 0.40552(18) 0.9259(2) 0.92671(5)
C15_4 C 0.41732(17) 0.8716(2) 0.93243(6)
H7_4 H 0.4473 0.8518 0.9276
C16_4 C 0.3844(2) 0.84694(18) 0.94541(6)
H8_4 H 0.3923 0.8106 0.9492
O3_4 O 0.0115(2) 0.9272(2) 0.87986(6)
C17_4 C 0.1305(2) 0.8873(2) 0.93234(5)
C18_4 C 0.0846(2) 0.85993(18) 0.92487(6)
H9_4 H 0.0705 0.8274 0.9300
C19_4 C 0.06004(19) 0.8811(2) 0.90966(6)
H10_4 H 0.0294 0.8629 0.9047
C20_4 C 0.0813(2) 0.9297(2) 0.90193(5)
C21_4 C 0.1271(2) 0.95702(17) 0.90941(6)
H11_4 H 0.1413 0.9895 0.9042
C22_4 C 0.15169(18) 0.9358(2) 0.92461(6)
H12_4 H 0.1823 0.9541 0.9296
C23_4 C 0.4396(3) 0.9522(4) 0.91308(9)
C24_4 C 0.0518(3) 0.9501(4) 0.88595(9)
O4_4 O 0.4815(2) 0.9275(2) 0.90690(5)
C54_4 C 0.2083(9) 0.6137(7) 0.9875(2)
C55_4 C 0.193(3) 0.594(2) 0.9767(8)
O18_4 O 0.2266(3) 0.6784(2) 0.99157(6)
H56_4 H 0.246259 0.589954 0.990514
H57_4 H 0.176495 0.605221 0.997464
H58_4 H 0.223003 0.597931 0.965943
H59_4 H 0.186303 0.549684 0.97965
H60_4 H 0.153239 0.613198 0.972893
O7_4 O 0.9998(2) 0.5746(2) 0.09235(5)
O13_4 O 0.9272(2) 0.4885(2) 0.12986(6)
O16_4 O 0.9275(2) 0.4815(2) 0.09310(5)
O17_4 O 0.8853(3) 0.5908(3) 0.11071(7)
C56_4 C 0.8773(9) 0.6037(9) 0.0960(2)
N2_4 N 0.8330(7) 0.6438(7) 0.0888(2)
C57_4 C 0.8341(8) 0.6982(8) 0.1006(2)
C58_4 C 0.8182(8) 0.6424(8) 0.0694(2)
H61_4 H 0.802425 0.600833 0.0659597
H62_4 H 0.785975 0.673756 0.0666731
H63_4 H 0.855569 0.651606 0.0616313
H64_4 H 0.90505 0.584579 0.0862952
H65_4 H 0.875663 0.717333 0.0999705
H66_4 H 0.802829 0.727984 0.0958275
H67_4 H 0.824569 0.686918 0.114165
C1_5 C 0.65377(19) 0.30139(18) 0.71660(5)
C2_5 C 0.6767(2) 0.32838(13) 0.73116(6)
H1_5 H 0.6744 0.3673 0.7321
C3_5 C 0.7031(2) 0.29720(18) 0.74424(4)
C4_5 C 0.70653(16) 0.23903(18) 0.74277(4)
C5_5 C 0.68361(18) 0.21204(13) 0.72822(5)
C6_5 C 0.65723(17) 0.24322(18) 0.71513(4)
C7_5 C 0.6354(3) 0.2157(3) 0.69981(7)
H2_5 H 0.6202 0.2370 0.6907
C8_5 C 0.6366(3) 0.1575(3) 0.69839(8)
C9_5 C 0.6611(3) 0.1263(3) 0.71240(8)
H3_5 H 0.6613 0.0873 0.7119
C10_5 C 0.6841(3) 0.1527(3) 0.72631(7)
H4_5 H 0.7011 0.1312 0.7350
C11_5 C 0.6235(2) 0.33960(19) 0.70268(5)
C12_5 C 0.5692(2) 0.32780(16) 0.69696(6)
H5_5 H 0.5494 0.2978 0.7018
C13_5 C 0.54455(17) 0.3608(2) 0.68397(6)
H6_5 H 0.5082 0.3529 0.6801
C14_5 C 0.5741(2) 0.40552(18) 0.67671(5)
C15_5 C 0.6284(2) 0.41732(17) 0.68243(6)
H7_5 H 0.6482 0.4473 0.6776
C16_5 C 0.65306(18) 0.3844(2) 0.69541(6)
H8_5 H 0.6894 0.3923 0.6992
O1_5 O 0.4998(2) 0.4254(2) 0.65765(5)
O2_3 O 0.5030(3) 0.0724(2) 0.62943(5)
C17_5 C 0.6127(2) 0.1305(2) 0.68234(5)
C18_5 C 0.64007(18) 0.0846(2) 0.67487(6)
H9_5 H 0.6726 0.0705 0.6800
C19_5 C 0.6189(2) 0.06004(19) 0.65966(6)
H10_5 H 0.6371 0.0294 0.6547
C20_5 C 0.5703(2) 0.0813(2) 0.65193(5)
C21_5 C 0.54298(17) 0.1271(2) 0.65941(6)
H11_5 H 0.5105 0.1413 0.6542
C22_5 C 0.5642(2) 0.15169(18) 0.67461(6)
H12_5 H 0.5459 0.1823 0.6796
C23_5 C 0.5478(4) 0.4396(3) 0.66308(9)
C24_5 C 0.5499(4) 0.0518(3) 0.63595(9)
C25_5 C 0.7083(9) 0.3863(7) 0.7625(2)
C26_5 C 0.693(3) 0.406(2) 0.7733(8)
O5_5 O 0.3853(3) 0.4092(3) 0.63929(7)
O6_5 O 0.7266(3) 0.3216(2) 0.75843(6)
C27_5 C 0.3773(9) 0.3963(9) 0.6540(2)
N1_5 N 0.3330(7) 0.3562(7) 0.6612(2)
C28_5 C 0.3341(8) 0.3018(8) 0.6494(2)
C29_5 C 0.3182(8) 0.3576(8) 0.6806(2)
C30_5 C 0.80139(18) 0.15377(19) 0.78340(5)
C31_5 C 0.82838(13) 0.1767(2) 0.76884(6)
H13_5 H 0.8673 0.1744 0.7679
C32_5 C 0.79720(18) 0.2031(2) 0.75576(4)
C33_5 C 0.73903(18) 0.20653(16) 0.75723(4)
C34_5 C 0.71204(13) 0.18361(18) 0.77178(5)
C35_5 C 0.74322(18) 0.15723(17) 0.78487(4)
C36_5 C 0.7157(3) 0.1354(3) 0.80019(7)
H14_5 H 0.7370 0.1202 0.8093
C37_5 C 0.6575(3) 0.1366(3) 0.80161(8)
C38_5 C 0.6263(3) 0.1611(3) 0.78760(8)
H15_5 H 0.5873 0.1613 0.7881
C39_5 C 0.6527(3) 0.1841(3) 0.77369(7)
H16_5 H 0.6312 0.2011 0.7650
C40_5 C 0.83960(19) 0.1235(2) 0.79732(5)
C41_5 C 0.82780(16) 0.0692(2) 0.80304(6)
H17_5 H 0.7978 0.0494 0.7982
C42_5 C 0.8608(2) 0.04455(17) 0.81603(6)
H18_5 H 0.8529 0.0082 0.8199
C43_5 C 0.90552(18) 0.0741(2) 0.82329(5)
C44_5 C 0.91732(17) 0.1284(2) 0.81757(6)
H19_5 H 0.9473 0.1482 0.8224
C45_5 C 0.8844(2) 0.15306(18) 0.80459(6)
H20_5 H 0.8923 0.1894 0.8008
O8_3 O 0.5724(2) 0.0030(3) 0.87057(5)
O9_3 O 0.5030(3) 0.4276(2) 0.62057(5)
O10_3 O 0.9276(2) 0.0030(3) 0.87943(5)
C46_5 C 0.6305(2) 0.1127(2) 0.81766(5)
C47_5 C 0.5846(2) 0.14007(18) 0.82513(6)
H21_5 H 0.5705 0.1726 0.8200
C48_5 C 0.56004(19) 0.1189(2) 0.84034(6)
H22_5 H 0.5294 0.1371 0.8453
C49_5 C 0.5813(2) 0.0703(2) 0.84807(5)
C50_5 C 0.6271(2) 0.04298(17) 0.84059(6)
H23_5 H 0.6413 0.0105 0.8458
C51_5 C 0.65169(18) 0.0642(2) 0.82539(6)
H24_5 H 0.6823 0.0459 0.8204
C52_5 C 0.9396(3) 0.0478(4) 0.83692(9)
C53_5 C 0.5518(3) 0.0499(4) 0.86405(9)
C54_5 C 0.8863(7) 0.2083(9) 0.7375(2)
C55_5 C 0.906(2) 0.193(3) 0.7267(8)
O18_5 O 0.8216(2) 0.2266(3) 0.74157(6)
H49_5 H 0.375663 0.282667 0.650029
H50_5 H 0.302829 0.272016 0.654172
H51_5 H 0.324569 0.313082 0.635835
H52_5 H 0.302425 0.399167 0.68404
H53_5 H 0.285975 0.326244 0.683327
H54_5 H 0.355569 0.348394 0.688369
H55_5 H 0.40505 0.415421 0.663705
H56_5 H 0.910046 0.246259 0.740514
H57_5 H 0.894779 0.176495 0.747464
H58_5 H 0.902069 0.223003 0.715943
H59_5 H 0.950316 0.186303 0.72965
H60_5 H 0.886802 0.153239 0.722893
H82_5 H 0.746259 0.410046 0.759486
H83_5 H 0.676495 0.394779 0.752536
H84_5 H 0.723003 0.402069 0.784057
H85_5 H 0.686303 0.450316 0.77035
H86_5 H 0.653239 0.386802 0.777107
O7_5 O 0.9254(2) 0.9998(2) 0.84235(5)
O17_5 O 0.9092(3) 0.8853(3) 0.86071(7)
C56_5 C 0.8963(9) 0.8773(9) 0.8460(2)
N2_5 N 0.8562(7) 0.8330(7) 0.8388(2)
C57_5 C 0.8018(8) 0.8341(8) 0.8506(2)
C58_5 C 0.8576(8) 0.8182(8) 0.8194(2)
H61_5 H 0.899167 0.802425 0.81596
H62_5 H 0.826244 0.785975 0.816673
H63_5 H 0.848394 0.855569 0.811631
H64_5 H 0.915421 0.90505 0.836295
H65_5 H 0.782667 0.875663 0.849971
H66_5 H 0.772016 0.802829 0.845828
H67_5 H 0.813082 0.824569 0.864165
O1_6 O 0.0002(2) 0.0746(2) 0.15765(5)
O5_6 O 0.1147(3) 0.0908(3) 0.13929(7)
C27_6 C 0.1227(9) 0.1037(9) 0.1540(2)
N1_6 N 0.1670(7) 0.1438(7) 0.1612(2)
C28_6 C 0.1659(8) 0.1982(8) 0.1494(2)
C29_6 C 0.1818(8) 0.1424(8) 0.1806(2)
H49_6 H 0.124337 0.217333 0.150029
H50_6 H 0.197171 0.227984 0.154172
H51_6 H 0.175431 0.186918 0.135835
H52_6 H 0.197575 0.100833 0.18404
H53_6 H 0.214025 0.173756 0.183327
H54_6 H 0.144431 0.151606 0.188369
H55_6 H 0.0949502 0.0845793 0.163705
C1_6 C 0.84623(19) 0.19861(18) 0.21660(5)
C2_6 C 0.8233(2) 0.17162(13) 0.23116(6)
H1_6 H 0.8256 0.1327 0.2321
C3_6 C 0.7969(2) 0.20280(18) 0.24424(4)
C4_6 C 0.79347(16) 0.26097(18) 0.24277(4)
C5_6 C 0.81639(18) 0.28796(13) 0.22822(5)
C6_6 C 0.84277(17) 0.25678(18) 0.21513(4)
C7_6 C 0.8646(3) 0.2843(3) 0.19981(7)
H2_6 H 0.8798 0.2630 0.1907
C8_6 C 0.8634(3) 0.3425(3) 0.19839(8)
C9_6 C 0.8389(3) 0.3737(3) 0.21240(8)
H3_6 H 0.8387 0.4127 0.2119
C10_6 C 0.8159(3) 0.3473(3) 0.22631(7)
H4_6 H 0.7989 0.3688 0.2350
C11_6 C 0.8765(2) 0.16040(19) 0.20268(5)
C12_6 C 0.9308(2) 0.17220(16) 0.19696(6)
H5_6 H 0.9506 0.2022 0.2018
C13_6 C 0.95545(17) 0.1392(2) 0.18397(6)
H6_6 H 0.9918 0.1471 0.1801
C14_6 C 0.9259(2) 0.09448(18) 0.17671(5)
C15_6 C 0.8716(2) 0.08268(17) 0.18243(6)
H7_6 H 0.8518 0.0527 0.1776
C16_6 C 0.84694(18) 0.1156(2) 0.19541(6)
H8_6 H 0.8106 0.1077 0.1992
O2_4 O 0.9970(3) 0.4276(2) 0.12943(5)
C17_6 C 0.8873(2) 0.3695(2) 0.18234(5)
C18_6 C 0.85993(18) 0.4154(2) 0.17487(6)
H9_6 H 0.8274 0.4295 0.1800
C19_6 C 0.8811(2) 0.43996(19) 0.15966(6)
H10_6 H 0.8629 0.4706 0.1547
C20_6 C 0.9297(2) 0.4187(2) 0.15193(5)
C21_6 C 0.95702(17) 0.3729(2) 0.15941(6)
H11_6 H 0.9895 0.3587 0.1542
C22_6 C 0.9358(2) 0.34831(18) 0.17461(6)
H12_6 H 0.9541 0.3177 0.1796
C23_6 C 0.9522(4) 0.0604(3) 0.16308(9)
C24_6 C 0.9501(4) 0.4482(3) 0.13595(9)
C25_6 C 0.7917(9) 0.1137(7) 0.2625(2)
C26_6 C 0.807(3) 0.094(2) 0.2733(8)
O6_6 O 0.7734(3) 0.1784(2) 0.25843(6)
C30_6 C 0.69861(18) 0.34623(19) 0.28340(5)
C31_6 C 0.67162(13) 0.3233(2) 0.26884(6)
H13_6 H 0.6327 0.3256 0.2679
C32_6 C 0.70280(18) 0.2969(2) 0.25576(4)
C33_6 C 0.76097(18) 0.29347(16) 0.25723(4)
C34_6 C 0.78796(13) 0.31639(18) 0.27178(5)
C35_6 C 0.75678(18) 0.34277(17) 0.28487(4)
C36_6 C 0.7843(3) 0.3646(3) 0.30019(7)
H14_6 H 0.7630 0.3798 0.3093
C37_6 C 0.8425(3) 0.3634(3) 0.30161(8)
C38_6 C 0.8737(3) 0.3389(3) 0.28760(8)
H15_6 H 0.9127 0.3387 0.2881
C39_6 C 0.8473(3) 0.3159(3) 0.27369(7)
H16_6 H 0.8688 0.2989 0.2650
C40_6 C 0.66040(19) 0.3765(2) 0.29732(5)
C41_6 C 0.67220(16) 0.4308(2) 0.30304(6)
H17_6 H 0.7022 0.4506 0.2982
C42_6 C 0.6392(2) 0.45545(17) 0.31603(6)
H18_6 H 0.6471 0.4918 0.3199
C43_6 C 0.59448(18) 0.4259(2) 0.32329(5)
C44_6 C 0.58268(17) 0.3716(2) 0.31757(6)
H19_6 H 0.5527 0.3518 0.3224
C45_6 C 0.6156(2) 0.34694(18) 0.30459(6)
H20_6 H 0.6077 0.3106 0.3008
O7_6 O 0.5746(2) 0.5002(2) 0.34235(5)
O8_4 O 0.9276(2) 0.4970(3) 0.37057(5)
O9_4 O 0.9970(3) 0.0724(2) 0.12057(5)
O10_4 O 0.5724(2) 0.4970(3) 0.37943(5)
C46_6 C 0.8695(2) 0.3873(2) 0.31766(5)
C47_6 C 0.9154(2) 0.35993(18) 0.32513(6)
H21_6 H 0.9295 0.3274 0.3200
C48_6 C 0.93996(19) 0.3811(2) 0.34034(6)
H22_6 H 0.9706 0.3629 0.3453
C49_6 C 0.9187(2) 0.4297(2) 0.34807(5)
C50_6 C 0.8729(2) 0.45702(17) 0.34059(6)
H23_6 H 0.8587 0.4895 0.3458
C51_6 C 0.84831(18) 0.4358(2) 0.32539(6)
H24_6 H 0.8177 0.4541 0.3204
C52_6 C 0.5604(3) 0.4522(4) 0.33692(9)
C53_6 C 0.9482(3) 0.4501(4) 0.36405(9)
C54_6 C 0.6137(7) 0.2917(9) 0.2375(2)
C55_6 C 0.594(2) 0.307(3) 0.2267(8)
O17_6 O 0.5908(3) 0.6147(3) 0.36071(7)
O18_6 O 0.6784(2) 0.2734(3) 0.24157(6)
C56_6 C 0.6037(9) 0.6227(9) 0.3460(2)
N2_6 N 0.6438(7) 0.6670(7) 0.3388(2)
C57_6 C 0.6982(8) 0.6659(8) 0.3506(2)
C58_6 C 0.6424(8) 0.6818(8) 0.3194(2)
H56_6 H 0.589954 0.253741 0.240514
H57_6 H 0.605221 0.323505 0.247464
H58_6 H 0.597931 0.276997 0.215943
H59_6 H 0.549684 0.313697 0.22965
H60_6 H 0.613198 0.346761 0.222893
H61_6 H 0.600833 0.697575 0.31596
H62_6 H 0.673756 0.714025 0.316673
H63_6 H 0.651606 0.644431 0.311631
H64_6 H 0.584579 0.59495 0.336295
H65_6 H 0.717333 0.624337 0.349971
H66_6 H 0.727984 0.697171 0.345828
H67_6 H 0.686918 0.675431 0.364165
H82_6 H 0.753741 0.0899539 0.259486
H83_6 H 0.823505 0.105221 0.252536
H84_6 H 0.776997 0.0979307 0.284057
H85_6 H 0.813697 0.0496843 0.27035
H86_6 H 0.846761 0.113198 0.277107
O7_7 O 0.0002(2) 0.4254(2) 0.09235(5)
O17_7 O 0.1147(3) 0.4092(3) 0.11071(7)
C56_7 C 0.1227(9) 0.3963(9) 0.0960(2)
N2_7 N 0.1670(7) 0.3562(7) 0.0888(2)
C57_7 C 0.1659(8) 0.3018(8) 0.1006(2)
C58_7 C 0.1818(8) 0.3576(8) 0.0694(2)
H61_7 H 0.197575 0.399167 0.0659597
H62_7 H 0.214025 0.326244 0.0666731
H63_7 H 0.144431 0.348394 0.0616313
H64_7 H 0.0949502 0.415421 0.0862952
H65_7 H 0.124337 0.282667 0.0999705
H66_7 H 0.197171 0.272016 0.0958275
H67_7 H 0.175431 0.313082 0.114165
C25_7 C 0.6137(7) 0.2083(9) 0.0125(2)
C26_7 C 0.594(2) 0.193(3) 0.0233(8)
O6_7 O 0.6784(2) 0.2266(3) 0.00843(6)
C30_7 C 0.84623(19) 0.30139(18) 0.03340(5)
C31_7 C 0.8233(2) 0.32838(13) 0.01884(6)
H13_7 H 0.8256 0.3673 0.0179
C32_7 C 0.7969(2) 0.29720(18) 0.00576(4)
C33_7 C 0.79347(16) 0.23903(18) 0.00723(4)
C34_7 C 0.81639(18) 0.21204(13) 0.02178(5)
C35_7 C 0.84277(17) 0.24322(18) 0.03487(4)
C36_7 C 0.8646(3) 0.2157(3) 0.05019(7)
H14_7 H 0.8798 0.2370 0.0593
C37_7 C 0.8634(3) 0.1575(3) 0.05161(8)
C38_7 C 0.8389(3) 0.1263(3) 0.03760(8)
H15_7 H 0.8387 0.0873 0.0381
C39_7 C 0.8159(3) 0.1527(3) 0.02369(7)
H16_7 H 0.7989 0.1312 0.0150
C40_7 C 0.8765(2) 0.33960(19) 0.04732(5)
C41_7 C 0.9308(2) 0.32780(16) 0.05304(6)
H17_7 H 0.9506 0.2978 0.0482
C42_7 C 0.95545(17) 0.3608(2) 0.06603(6)
H18_7 H 0.9918 0.3529 0.0699
C43_7 C 0.9259(2) 0.40552(18) 0.07329(5)
C44_7 C 0.8716(2) 0.41732(17) 0.06757(6)
H19_7 H 0.8518 0.4473 0.0724
C45_7 C 0.84694(18) 0.3844(2) 0.05459(6)
H20_7 H 0.8106 0.3923 0.0508
C46_7 C 0.8873(2) 0.1305(2) 0.06766(5)
C47_7 C 0.85993(18) 0.0846(2) 0.07513(6)
H21_7 H 0.8274 0.0705 0.0700
C48_7 C 0.8811(2) 0.06004(19) 0.09034(6)
H22_7 H 0.8629 0.0294 0.0953
C49_7 C 0.9297(2) 0.0813(2) 0.09807(5)
C50_7 C 0.95702(17) 0.1271(2) 0.09059(6)
H23_7 H 0.9895 0.1413 0.0958
C51_7 C 0.9358(2) 0.15169(18) 0.07539(6)
H24_7 H 0.9541 0.1823 0.0704
C52_7 C 0.9522(4) 0.4396(3) 0.08692(9)
C53_7 C 0.9501(4) 0.0518(3) 0.11405(9)
H82_7 H 0.589954 0.246259 0.00948565
H83_7 H 0.605221 0.176495 0.0025355
H84_7 H 0.597931 0.223003 0.0340575
H85_7 H 0.549684 0.186303 0.0203504
H86_7 H 0.613198 0.153239 0.0271073
C1_7 C 0.69861(18) 0.15377(19) 0.96660(5)
C2_7 C 0.67162(13) 0.1767(2) 0.98116(6)
H1_7 H 0.6327 0.1744 0.9821
C3_7 C 0.70280(18) 0.2031(2) 0.99424(4)
C4_7 C 0.76097(18) 0.20653(16) 0.99277(4)
C5_7 C 0.78796(13) 0.18361(18) 0.97822(5)
C6_7 C 0.75678(18) 0.15723(17) 0.96513(4)
C7_7 C 0.7843(3) 0.1354(3) 0.94981(7)
H2_7 H 0.7630 0.1202 0.9407
C8_7 C 0.8425(3) 0.1366(3) 0.94839(8)
C9_7 C 0.8737(3) 0.1611(3) 0.96240(8)
H3_7 H 0.9127 0.1613 0.9619
C10_7 C 0.8473(3) 0.1841(3) 0.97631(7)
H4_7 H 0.8688 0.2011 0.9850
C11_7 C 0.66040(19) 0.1235(2) 0.95268(5)
C12_7 C 0.67220(16) 0.0692(2) 0.94696(6)
H5_7 H 0.7022 0.0494 0.9518
C13_7 C 0.6392(2) 0.04455(17) 0.93397(6)
H6_7 H 0.6471 0.0082 0.9301
C14_7 C 0.59448(18) 0.0741(2) 0.92671(5)
C15_7 C 0.58268(17) 0.1284(2) 0.93243(6)
H7_7 H 0.5527 0.1482 0.9276
C16_7 C 0.6156(2) 0.15306(18) 0.94541(6)
H8_7 H 0.6077 0.1894 0.9492
C17_7 C 0.8695(2) 0.1127(2) 0.93234(5)
C18_7 C 0.9154(2) 0.14007(18) 0.92487(6)
H9_7 H 0.9295 0.1726 0.9300
C19_7 C 0.93996(19) 0.1189(2) 0.90966(6)
H10_7 H 0.9706 0.1371 0.9047
C20_7 C 0.9187(2) 0.0703(2) 0.90193(5)
C21_7 C 0.8729(2) 0.04298(17) 0.90941(6)
H11_7 H 0.8587 0.0105 0.9042
C22_7 C 0.84831(18) 0.0642(2) 0.92461(6)
H12_7 H 0.8177 0.0459 0.9296
C23_7 C 0.5604(3) 0.0478(4) 0.91308(9)
C24_7 C 0.9482(3) 0.0499(4) 0.88595(9)
C54_7 C 0.7917(9) 0.3863(7) 0.9875(2)
C55_7 C 0.807(3) 0.406(2) 0.9767(8)
O18_7 O 0.7734(3) 0.3216(2) 0.99157(6)
H56_7 H 0.753741 0.410046 0.990514
H57_7 H 0.823505 0.394779 0.997464
H58_7 H 0.776997 0.402069 0.965943
H59_7 H 0.813697 0.450316 0.97965
H60_7 H 0.846761 0.386802 0.972893
O1_7 O 0.5746(2) 0.9998(2) 0.90765(5)
O5_7 O 0.5908(3) 0.8853(3) 0.88929(7)
C27_7 C 0.6037(9) 0.8773(9) 0.9040(2)
N1_7 N 0.6438(7) 0.8330(7) 0.9112(2)
C28_7 C 0.6982(8) 0.8341(8) 0.8994(2)
C29_7 C 0.6424(8) 0.8182(8) 0.9306(2)
H49_7 H 0.717333 0.875663 0.900029
H50_7 H 0.727984 0.802829 0.904172
H51_7 H 0.686918 0.824569 0.885835
H52_7 H 0.600833 0.802425 0.93404
H53_7 H 0.673756 0.785975 0.933327
H54_7 H 0.651606 0.855569 0.938369
H55_7 H 0.584579 0.90505 0.913705
C1_8 C 0.80139(18) 0.34623(19) 0.46660(5)
C2_8 C 0.82838(13) 0.3233(2) 0.48116(6)
H1_8 H 0.8673 0.3256 0.4821
C3_8 C 0.79720(18) 0.2969(2) 0.49424(4)
C4_8 C 0.73903(18) 0.29347(16) 0.49277(4)
C5_8 C 0.71204(13) 0.31639(18) 0.47822(5)
C6_8 C 0.74322(18) 0.34277(17) 0.46513(4)
C7_8 C 0.7157(3) 0.3646(3) 0.44981(7)
H2_8 H 0.7370 0.3798 0.4407
C8_8 C 0.6575(3) 0.3634(3) 0.44839(8)
C9_8 C 0.6263(3) 0.3389(3) 0.46240(8)
H3_8 H 0.5873 0.3387 0.4619
C10_8 C 0.6527(3) 0.3159(3) 0.47631(7)
H4_8 H 0.6312 0.2989 0.4850
C11_8 C 0.83960(19) 0.3765(2) 0.45268(5)
C12_8 C 0.82780(16) 0.4308(2) 0.44696(6)
H5_8 H 0.7978 0.4506 0.4518
C13_8 C 0.8608(2) 0.45545(17) 0.43397(6)
H6_8 H 0.8529 0.4918 0.4301
C14_8 C 0.90552(18) 0.4259(2) 0.42671(5)
C15_8 C 0.91732(17) 0.3716(2) 0.43243(6)
H7_8 H 0.9473 0.3518 0.4276
C16_8 C 0.8844(2) 0.34694(18) 0.44541(6)
H8_8 H 0.8923 0.3106 0.4492
O1_8 O 0.9254(2) 0.5002(2) 0.40765(5)
C17_8 C 0.6305(2) 0.3873(2) 0.43234(5)
C18_8 C 0.5846(2) 0.35993(18) 0.42487(6)
H9_8 H 0.5705 0.3274 0.4300
C19_8 C 0.56004(19) 0.3811(2) 0.40966(6)
H10_8 H 0.5294 0.3629 0.4047
C20_8 C 0.5813(2) 0.4297(2) 0.40193(5)
C21_8 C 0.6271(2) 0.45702(17) 0.40941(6)
H11_8 H 0.6413 0.4895 0.4042
C22_8 C 0.65169(18) 0.4358(2) 0.42461(6)
H12_8 H 0.6823 0.4541 0.4296
C23_8 C 0.9396(3) 0.4522(4) 0.41308(9)
C24_8 C 0.5518(3) 0.4501(4) 0.38595(9)
C25_8 C 0.8863(7) 0.2917(9) 0.5125(2)
C26_8 C 0.906(2) 0.307(3) 0.5233(8)
O5_8 O 0.9092(3) 0.6147(3) 0.38929(7)
O6_8 O 0.8216(2) 0.2734(3) 0.50843(6)
C27_8 C 0.8963(9) 0.6227(9) 0.4040(2)
N1_8 N 0.8562(7) 0.6670(7) 0.4112(2)
C28_8 C 0.8018(8) 0.6659(8) 0.3994(2)
C29_8 C 0.8576(8) 0.6818(8) 0.4306(2)
C30_8 C 0.65377(19) 0.19861(18) 0.53340(5)
C31_8 C 0.6767(2) 0.17162(13) 0.51884(6)
H13_8 H 0.6744 0.1327 0.5179
C32_8 C 0.7031(2) 0.20280(18) 0.50576(4)
C33_8 C 0.70653(16) 0.26097(18) 0.50723(4)
C34_8 C 0.68361(18) 0.28796(13) 0.52178(5)
C35_8 C 0.65723(17) 0.25678(18) 0.53487(4)
C36_8 C 0.6354(3) 0.2843(3) 0.55019(7)
H14_8 H 0.6202 0.2630 0.5593
C37_8 C 0.6366(3) 0.3425(3) 0.55161(8)
C38_8 C 0.6611(3) 0.3737(3) 0.53760(8)
H15_8 H 0.6613 0.4127 0.5381
C39_8 C 0.6841(3) 0.3473(3) 0.52369(7)
H16_8 H 0.7011 0.3688 0.5150
C40_8 C 0.6235(2) 0.16040(19) 0.54732(5)
C41_8 C 0.5692(2) 0.17220(16) 0.55304(6)
H17_8 H 0.5494 0.2022 0.5482
C42_8 C 0.54455(17) 0.1392(2) 0.56603(6)
H18_8 H 0.5082 0.1471 0.5699
C43_8 C 0.5741(2) 0.09448(18) 0.57329(5)
C44_8 C 0.6284(2) 0.08268(17) 0.56757(6)
H19_8 H 0.6482 0.0527 0.5724
C45_8 C 0.65306(18) 0.1156(2) 0.55459(6)
H20_8 H 0.6894 0.1077 0.5508
O7_8 O 0.4998(2) 0.0746(2) 0.59235(5)
C46_8 C 0.6127(2) 0.3695(2) 0.56766(5)
C47_8 C 0.64007(18) 0.4154(2) 0.57513(6)
H21_8 H 0.6726 0.4295 0.5700
C48_8 C 0.6189(2) 0.43996(19) 0.59034(6)
H22_8 H 0.6371 0.4706 0.5953
C49_8 C 0.5703(2) 0.4187(2) 0.59807(5)
C50_8 C 0.54298(17) 0.3729(2) 0.59059(6)
H23_8 H 0.5105 0.3587 0.5958
C51_8 C 0.5642(2) 0.34831(18) 0.57539(6)
H24_8 H 0.5459 0.3177 0.5704
C52_8 C 0.5478(4) 0.0604(3) 0.58692(9)
C53_8 C 0.5499(4) 0.4482(3) 0.61405(9)
C54_8 C 0.7083(9) 0.1137(7) 0.4875(2)
C55_8 C 0.693(3) 0.094(2) 0.4767(8)
O17_8 O 0.3853(3) 0.0908(3) 0.61071(7)
O18_8 O 0.7266(3) 0.1784(2) 0.49157(6)
C56_8 C 0.3773(9) 0.1037(9) 0.5960(2)
N2_8 N 0.3330(7) 0.1438(7) 0.5888(2)
C57_8 C 0.3341(8) 0.1982(8) 0.6006(2)
C58_8 C 0.3182(8) 0.1424(8) 0.5694(2)
H49_8 H 0.782667 0.624337 0.400029
H50_8 H 0.772016 0.697171 0.404172
H51_8 H 0.813082 0.675431 0.385835
H52_8 H 0.899167 0.697575 0.43404
H53_8 H 0.826244 0.714025 0.433327
H54_8 H 0.848394 0.644431 0.438369
H55_8 H 0.915421 0.59495 0.413705
H56_8 H 0.746259 0.0899539 0.490514
H57_8 H 0.676495 0.105221 0.497464
H58_8 H 0.723003 0.0979307 0.465943
H59_8 H 0.686303 0.0496843 0.47965
H60_8 H 0.653239 0.113198 0.472893
H61_8 H 0.302425 0.100833 0.56596
H62_8 H 0.285975 0.173756 0.566673
H63_8 H 0.355569 0.151606 0.561631
H64_8 H 0.40505 0.0845793 0.586295
H65_8 H 0.375663 0.217333 0.599971
H66_8 H 0.302829 0.227984 0.595828
H67_8 H 0.324569 0.186918 0.614165
H82_8 H 0.910046 0.253741 0.509486
H83_8 H 0.894779 0.323505 0.502536
H84_8 H 0.902069 0.276997 0.534057
H85_8 H 0.950316 0.313697 0.52035
H86_8 H 0.886802 0.346761 0.527107
Cu9 Cu 0.0000 0.0000 0.018018(13)
O19 O 0.0000 0.0000 0.04504(9)
O26 O 0.08076(15) 0.00763(17) 0.01715(6)
H72 H 0.039199 0.00370342 0.0493959
Cu9_2 Cu -0.0000 1.0000 0.018018(13)
O19_2 O -0.0000 1.0000 0.04504(9)
O29 O 0.00844(17) 0.91639(15) 0.01181(6)
Cu9_3 Cu 1.0000 0.0000 0.018018(13)
C59 C 0.71411(10) 0.0086(2) 0.00594(6)
C62 C 0.83080(10) 0.00418(18) 0.00412(5)
C65 C 0.64947(13) 0.0102(3) 0.00595(7)
C68 C 0.53266(13) 0.0061(3) 0.00511(7)
C69 C 0.55989(18) 0.0364(3) 0.01823(7)
C70 C 0.61829(18) 0.0384(2) 0.01865(6)
C71 C 0.6444(3) 0.0697(5) 0.03207(12)
H30 H 0.6834 0.0722 0.0321
C72 C 0.6148(3) 0.0969(6) 0.04510(13)
C73 C 0.5550(4) 0.0942(6) 0.04390(17)
H31 H 0.5336 0.1139 0.0521
C74 C 0.5282(3) 0.0639(6) 0.03135(12)
H32 H 0.4892 0.0613 0.0314
C75 C 0.6443(3) 0.1263(6) 0.06000(11)
C76 C 0.6971(3) 0.1509(5) 0.05825(11)
H33 H 0.7136 0.1540 0.0472
C77 C 0.7252(3) 0.1708(4) 0.07303(15)
H34 H 0.7605 0.1873 0.0719
C78 C 0.7006(4) 0.1661(5) 0.08956(12)
C79 C 0.6478(5) 0.1415(6) 0.09130(10)
H35 H 0.6314 0.1384 0.1024
C80 C 0.6197(4) 0.1216(6) 0.07653(13)
H36 H 0.5844 0.1052 0.0777
C81 C 0.8938(2) 0.0022(2) 0.00267(10)
C84 C 0.7324(7) 0.1847(7) 0.1058(2)
O19_3 O 1.0000 0.0000 0.04504(9)
O22 O 0.7163(9) 0.1601(9) 0.1207(2)
O23 O 0.7705(6) 0.2205(6) 0.10086(16)
C89 C 0.19693(15) 0.01665(17) 0.01884(5)
H39 H 0.1765 0.0321 0.0281
C90 C 0.25528(15) 0.01444(19) 0.01975(5)
H40 H 0.2738 0.0284 0.0296
O28 O 0.99156(17) 0.08361(15) 0.01181(6)
H70 H 0.752115 0.253245 0.0951431
Cu9_4 Cu 1.0000 1.0000 0.018018(13)
C63 C 0.80307(15) 0.98335(17) 0.01884(5)
H27 H 0.8235 0.9679 0.0281
C64 C 0.74472(15) 0.98556(19) 0.01975(5)
H28 H 0.7262 0.9716 0.0296
O19_4 O 1.0000 1.0000 0.04504(9)
O20 O 0.91924(15) 0.99237(17) 0.01715(6)
C85 C 0.28589(10) 0.9914(2) 0.00594(6)
C88 C 0.16920(10) 0.99582(18) 0.00412(5)
C91 C 0.35053(13) 0.9898(3) 0.00595(7)
C94 C 0.46734(13) 0.9939(3) 0.00511(7)
C95 C 0.44011(18) 0.9636(3) 0.01823(7)
C96 C 0.38171(18) 0.9616(2) 0.01865(6)
C97 C 0.3556(3) 0.9303(5) 0.03207(12)
H42 H 0.3166 0.9278 0.0321
C98 C 0.3852(3) 0.9031(6) 0.04510(13)
C99 C 0.4450(4) 0.9058(6) 0.04390(17)
H43 H 0.4664 0.8861 0.0521
C100 C 0.4718(3) 0.9361(6) 0.03135(12)
H44 H 0.5108 0.9387 0.0314
C101 C 0.3557(3) 0.8737(6) 0.06000(11)
C102 C 0.3029(3) 0.8491(5) 0.05825(11)
H45 H 0.2864 0.8460 0.0472
C103 C 0.2748(3) 0.8292(4) 0.07303(15)
H46 H 0.2395 0.8127 0.0719
C104 C 0.2994(4) 0.8339(5) 0.08956(12)
C105 C 0.3522(5) 0.8585(6) 0.09130(10)
H47 H 0.3686 0.8616 0.1024
C106 C 0.3803(4) 0.8784(6) 0.07653(13)
H48 H 0.4156 0.8948 0.0777
C107 C 0.1062(2) 0.9978(2) 0.00267(10)
C110 C 0.2676(7) 0.8153(7) 0.1058(2)
O30 O 0.2837(9) 0.8399(9) 0.1207(2)
O31 O 0.2295(6) 0.7795(6) 0.10086(16)
H71 H 0.983608 0.964201 0.0493959
H79 H 0.247885 0.746755 0.0951431
C66 C 0.0201(3) 0.37775(19) 0.00717(6)
H29 H 0.0390 0.3569 0.0157
C67 C 0.0222(3) 0.43616(19) 0.00759(6)
C82 C 0.0418(15) 0.4437(15) 0.0372(3)
C83 C 0.0737(15) 0.4765(14) 0.0510(4)
O24 O 0.0518(4) 0.4660(2) 0.01928(8)
C86 C 0.0294(2) 0.74184(15) 0.00879(5)
H37 H 0.0449 0.7214 0.0180
C87 C 0.02722(18) 0.80019(16) 0.00970(5)
H38 H 0.0412 0.8187 0.0195
H69 H 0.0553048 0.39996 0.0376461
H73 H 0.0603067 0.520288 0.0507244
H74 H 0.0651805 0.458758 0.0639402
H75 H 0.118603 0.474092 0.0482809
H80 H 0.00299141 0.553843 0.0400896
C60 C 0.9706(2) 0.25816(15) 0.00879(5)
H25 H 0.9551 0.2786 0.0180
C61 C 0.97278(18) 0.19981(16) 0.00970(5)
H26 H 0.9588 0.1813 0.0195
C92 C 0.9799(3) 0.62225(19) 0.00717(6)
H41 H 0.9610 0.6431 0.0157
C93 C 0.9778(3) 0.56384(19) 0.00759(6)
C108 C 0.9582(15) 0.5563(15) 0.0372(3)
C109 C 0.9263(15) 0.5235(14) 0.0510(4)
O32 O 0.9482(4) 0.5340(2) 0.01928(8)
H68 H 0.997009 0.446157 0.0400896
H76 H 0.939693 0.479712 0.0507244
H77 H 0.93482 0.541242 0.0639402
H78 H 0.881397 0.525908 0.0482809
H81 H 0.944695 0.60004 0.0376461
H71_2 H 0.0163923 0.0357991 0.0493959
H72_2 H 0.960801 0.996297 0.0493959
Cu10 Cu -0.0000 -0.0000 0.981982(13)
Cu10_2 Cu 0.0000 1.0000 0.981982(13)
C60_2 C 0.74184(15) 0.0294(2) 0.99121(5)
H25_2 H 0.7214 0.0449 0.9820
C61_2 C 0.80019(16) 0.02722(18) 0.99030(5)
H26_2 H 0.8187 0.0412 0.9805
O21 O 0.91639(15) 0.00844(17) 0.98819(6)
Cu10_3 Cu 1.0000 -0.0000 0.981982(13)
C92_2 C 0.37775(19) 0.0201(3) 0.99283(6)
H41_2 H 0.3569 0.0390 0.9843
C93_2 C 0.43616(19) 0.0222(3) 0.99241(6)
C108_2 C 0.4437(15) 0.0418(15) 0.9628(3)
C109_2 C 0.4765(14) 0.0737(15) 0.9490(4)
O32_2 O 0.4660(2) 0.0518(4) 0.98072(8)
H68_2 H 0.553843 0.00299141 0.95991
H76_2 H 0.520288 0.0603067 0.949276
H77_2 H 0.458758 0.0651805 0.93606
H78_2 H 0.474092 0.118603 0.951719
H81_2 H 0.39996 0.0553048 0.962354
C66_2 C 0.62225(19) 0.9799(3) 0.99283(6)
H29_2 H 0.6431 0.9610 0.9843
C67_2 C 0.56384(19) 0.9778(3) 0.99241(6)
C82_2 C 0.5563(15) 0.9582(15) 0.9628(3)
C83_2 C 0.5235(14) 0.9263(15) 0.9490(4)
O24_2 O 0.5340(2) 0.9482(4) 0.98072(8)
Cu10_4 Cu 1.0000 1.0000 0.981982(13)
C86_2 C 0.25816(15) 0.9706(2) 0.99121(5)
H37_2 H 0.2786 0.9551 0.9820
C87_2 C 0.19981(16) 0.97278(18) 0.99030(5)
H38_2 H 0.1813 0.9588 0.9805
O27 O 0.08361(15) 0.99156(17) 0.98819(6)
H69_2 H 0.60004 0.944695 0.962354
H73_2 H 0.479712 0.939693 0.949276
H74_2 H 0.541242 0.93482 0.93606
H75_2 H 0.525908 0.881397 0.951719
H80_2 H 0.446157 0.997009 0.95991
C63_2 C 0.01665(17) 0.19693(15) 0.98116(5)
H27_2 H 0.0321 0.1765 0.9719
C64_2 C 0.01444(19) 0.25528(15) 0.98025(5)
H28_2 H 0.0284 0.2738 0.9704
O19_5 O 0.0000 0.0000 0.95496(9)
O20_2 O 0.00763(17) 0.08076(15) 0.98285(6)
C85_2 C 0.0086(2) 0.71411(10) 0.99406(6)
C88_2 C 0.00418(18) 0.83080(10) 0.99588(5)
C91_2 C 0.0102(3) 0.64947(13) 0.99405(7)
C94_2 C 0.0061(3) 0.53266(13) 0.99489(7)
C95_2 C 0.0364(3) 0.55989(18) 0.98177(7)
C96_2 C 0.0384(2) 0.61829(18) 0.98135(6)
C97_2 C 0.0697(5) 0.6444(3) 0.96793(12)
H42_2 H 0.0722 0.6834 0.9679
C98_2 C 0.0969(6) 0.6148(3) 0.95490(13)
C99_2 C 0.0942(6) 0.5550(4) 0.95610(17)
H43_2 H 0.1139 0.5336 0.9479
C100_2 C 0.0639(6) 0.5282(3) 0.96865(12)
H44_2 H 0.0613 0.4892 0.9686
C101_2 C 0.1263(6) 0.6443(3) 0.94000(11)
C102_2 C 0.1509(5) 0.6971(3) 0.94175(11)
H45_2 H 0.1540 0.7136 0.9528
C103_2 C 0.1708(4) 0.7252(3) 0.92697(15)
H46_2 H 0.1873 0.7605 0.9281
C104_2 C 0.1661(5) 0.7006(4) 0.91044(12)
C105_2 C 0.1415(6) 0.6478(5) 0.90870(10)
H47_2 H 0.1384 0.6314 0.8976
C106_2 C 0.1216(6) 0.6197(4) 0.92347(13)
H48_2 H 0.1052 0.5844 0.9223
C107_2 C 0.0022(2) 0.8938(2) 0.99733(10)
C110_2 C 0.1847(7) 0.7324(7) 0.8942(2)
O30_2 O 0.1601(9) 0.7163(9) 0.8793(2)
O31_2 O 0.2205(6) 0.7705(6) 0.89914(16)
H71_3 H 0.0357991 0.0163923 0.950604
H79_2 H 0.253245 0.752115 0.904857
O19_6 O -0.0000 1.0000 0.95496(9)
C59_2 C 0.9914(2) 0.28589(10) 0.99406(6)
C62_2 C 0.99582(18) 0.16920(10) 0.99588(5)
C65_2 C 0.9898(3) 0.35053(13) 0.99405(7)
C68_2 C 0.9939(3) 0.46734(13) 0.99489(7)
C69_2 C 0.9636(3) 0.44011(18) 0.98177(7)
C70_2 C 0.9616(2) 0.38171(18) 0.98135(6)
C71_2 C 0.9303(5) 0.3556(3) 0.96793(12)
H30_2 H 0.9278 0.3166 0.9679
C72_2 C 0.9031(6) 0.3852(3) 0.95490(13)
C73_2 C 0.9058(6) 0.4450(4) 0.95610(17)
H31_2 H 0.8861 0.4664 0.9479
C74_2 C 0.9361(6) 0.4718(3) 0.96865(12)
H32_2 H 0.9387 0.5108 0.9686
C75_2 C 0.8737(6) 0.3557(3) 0.94000(11)
C76_2 C 0.8491(5) 0.3029(3) 0.94175(11)
H33_2 H 0.8460 0.2864 0.9528
C77_2 C 0.8292(4) 0.2748(3) 0.92697(15)
H34_2 H 0.8127 0.2395 0.9281
C78_2 C 0.8339(5) 0.2994(4) 0.91044(12)
C79_2 C 0.8585(6) 0.3522(5) 0.90870(10)
H35_2 H 0.8616 0.3686 0.8976
C80_2 C 0.8784(6) 0.3803(4) 0.92347(13)
H36_2 H 0.8948 0.4156 0.9223
C81_2 C 0.9978(2) 0.1062(2) 0.99733(10)
C84_2 C 0.8153(7) 0.2676(7) 0.8942(2)
O19_7 O 1.0000 0.0000 0.95496(9)
O22_2 O 0.8399(9) 0.2837(9) 0.8793(2)
O23_2 O 0.7795(6) 0.2295(6) 0.89914(16)
C89_2 C 0.98335(17) 0.80307(15) 0.98116(5)
H39_2 H 0.9679 0.8235 0.9719
C90_2 C 0.98556(19) 0.74472(15) 0.98025(5)
H40_2 H 0.9716 0.7262 0.9704
O25 O 0.99237(17) 0.91924(15) 0.98285(6)
H70_2 H 0.746755 0.247885 0.904857
O19_8 O 1.0000 1.0000 0.95496(9)
H72_3 H 0.996297 0.960801 0.950604
H72_4 H 0.00370342 0.039199 0.950604
H71_4 H 0.964201 0.983608 0.950604
H32_3 H 0.0108 0.4387 0.5314
Cu11 Cu 0.5000 0.5000 0.518018(13)
Cu12 Cu 0.5000 0.5000 0.481982(13)
C85_3 C 0.21411(10) 0.5086(2) 0.50594(6)
C86_3 C 0.24184(15) 0.5294(2) 0.49121(5)
H37_3 H 0.2214 0.5449 0.4820
C87_3 C 0.30019(16) 0.52722(18) 0.49030(5)
H38_3 H 0.3187 0.5412 0.4805
C88_3 C 0.33080(10) 0.50418(18) 0.50412(5)
C89_3 C 0.30307(15) 0.48335(17) 0.51884(5)
H39_3 H 0.3235 0.4679 0.5281
C90_3 C 0.24472(15) 0.48556(19) 0.51975(5)
H40_3 H 0.2262 0.4716 0.5296
C91_3 C 0.14947(13) 0.5102(3) 0.50595(7)
C92_3 C 0.12225(19) 0.4799(3) 0.49283(6)
H41_3 H 0.1431 0.4610 0.4843
C93_3 C 0.06384(19) 0.4778(3) 0.49241(6)
C94_3 C 0.03266(13) 0.5061(3) 0.50511(7)
C95_3 C 0.05989(18) 0.5364(3) 0.51823(7)
C96_3 C 0.11829(18) 0.5384(2) 0.51865(6)
C97_3 C 0.1444(3) 0.5697(5) 0.53207(12)
H42_3 H 0.1834 0.5722 0.5321
C98_3 C 0.1148(3) 0.5969(6) 0.54510(13)
C99_3 C 0.0550(4) 0.5942(6) 0.54390(17)
H43_3 H 0.0336 0.6139 0.5521
C100_3 C 0.0282(3) 0.5639(6) 0.53135(12)
C101_3 C 0.1443(3) 0.6263(6) 0.56000(11)
C102_3 C 0.1971(3) 0.6509(5) 0.55825(11)
H45_3 H 0.2136 0.6540 0.5472
C103_3 C 0.2252(3) 0.6708(4) 0.57303(15)
H46_3 H 0.2605 0.6873 0.5719
C104_3 C 0.2006(4) 0.6661(5) 0.58956(12)
C105_3 C 0.1478(5) 0.6415(6) 0.59130(10)
H47_3 H 0.1314 0.6384 0.6024
C106_3 C 0.1197(4) 0.6216(6) 0.57653(13)
H48_3 H 0.0844 0.6052 0.5777
C107_3 C 0.3938(2) 0.5022(2) 0.50267(10)
C108_3 C 0.0563(15) 0.4582(15) 0.4628(3)
C109_3 C 0.0235(14) 0.4263(15) 0.4490(4)
C110_3 C 0.2324(7) 0.6847(7) 0.6058(2)
O25_2 O 0.41924(15) 0.49237(17) 0.51715(6)
O27_2 O 0.41639(15) 0.50844(17) 0.48819(6)
O30_3 O 0.2163(9) 0.6601(9) 0.6207(2)
O31_3 O 0.2705(6) 0.7205(6) 0.60086(16)
O32_3 O 0.0340(2) 0.4482(4) 0.48072(8)
H73_3 H 0.0202885 0.560307 0.449276
H77_3 H 0.0412416 0.43482 0.43606
H78_3 H 0.0259082 0.381397 0.451719
H79_3 H 0.252115 0.753245 0.595143
H80_3 H 0.0538432 0.502991 0.45991
H81_3 H 0.10004 0.444695 0.462354
C59_3 C 0.78589(10) 0.4914(2) 0.50594(6)
C60_3 C 0.75816(15) 0.4706(2) 0.49121(5)
H25_3 H 0.7786 0.4551 0.4820
C61_3 C 0.69981(16) 0.47278(18) 0.49030(5)
H26_3 H 0.6813 0.4588 0.4805
C62_3 C 0.66920(10) 0.49582(18) 0.50412(5)
C63_3 C 0.69693(15) 0.51665(17) 0.51884(5)
H27_3 H 0.6765 0.5321 0.5281
C64_3 C 0.75528(15) 0.51444(19) 0.51975(5)
H28_3 H 0.7738 0.5284 0.5296
C65_3 C 0.85053(13) 0.4898(3) 0.50595(7)
C66_3 C 0.87775(19) 0.5201(3) 0.49283(6)
H29_3 H 0.8569 0.5390 0.4843
C67_3 C 0.93616(19) 0.5222(3) 0.49241(6)
C68_3 C 0.96734(13) 0.4939(3) 0.50511(7)
C69_3 C 0.94011(18) 0.4636(3) 0.51823(7)
C70_3 C 0.88171(18) 0.4616(2) 0.51865(6)
C71_3 C 0.8556(3) 0.4303(5) 0.53207(12)
H30_3 H 0.8166 0.4278 0.5321
C72_3 C 0.8852(3) 0.4031(6) 0.54510(13)
C73_3 C 0.9450(4) 0.4058(6) 0.54390(17)
H31_3 H 0.9664 0.3861 0.5521
C74_3 C 0.9718(3) 0.4361(6) 0.53135(12)
C75_3 C 0.8557(3) 0.3737(6) 0.56000(11)
C76_3 C 0.8029(3) 0.3491(5) 0.55825(11)
H33_3 H 0.7864 0.3460 0.5472
C77_3 C 0.7748(3) 0.3292(4) 0.57303(15)
H34_3 H 0.7395 0.3127 0.5719
C78_3 C 0.7994(4) 0.3339(5) 0.58956(12)
C79_3 C 0.8522(5) 0.3585(6) 0.59130(10)
H35_3 H 0.8686 0.3616 0.6024
C80_3 C 0.8803(4) 0.3784(6) 0.57653(13)
H36_3 H 0.9156 0.3948 0.5777
C81_3 C 0.6062(2) 0.4978(2) 0.50267(10)
C82_3 C 0.9437(15) 0.5418(15) 0.4628(3)
C83_3 C 0.9765(14) 0.5737(15) 0.4490(4)
C84_3 C 0.7676(7) 0.3153(7) 0.6058(2)
O19_9 O 0.5000 0.5000 0.54504(9)
O20_3 O 0.58076(15) 0.50763(17) 0.51715(6)
O21_2 O 0.58361(15) 0.49156(17) 0.48819(6)
O22_3 O 0.7837(9) 0.3399(9) 0.6207(2)
O23_3 O 0.7295(6) 0.2795(6) 0.60086(16)
O24_3 O 0.9660(2) 0.5518(4) 0.48072(8)
H44_3 H 0.9892 0.5613 0.5314
O28_2 O 0.50844(17) 0.41639(15) 0.51181(6)
O29_2 O 0.49156(17) 0.58361(15) 0.51181(6)
H68_3 H 0.946157 0.497009 0.45991
H69_3 H 0.89996 0.555305 0.462354
H70_3 H 0.747885 0.246755 0.595143
H74_3 H 0.958758 0.56518 0.43606
H75_3 H 0.974092 0.618603 0.451719
H76_3 H 0.979712 0.439693 0.449276
C59_4 C 0.5086(2) 0.21411(10) 0.49406(6)
C60_4 C 0.5294(2) 0.24184(15) 0.50879(5)
H25_4 H 0.5449 0.2214 0.5180
C61_4 C 0.52722(18) 0.30019(16) 0.50970(5)
H26_4 H 0.5412 0.3187 0.5195
C62_4 C 0.50418(18) 0.33080(10) 0.49588(5)
C63_4 C 0.48335(17) 0.30307(15) 0.48116(5)
H27_4 H 0.4679 0.3235 0.4719
C64_4 C 0.48556(19) 0.24472(15) 0.48025(5)
H28_4 H 0.4716 0.2262 0.4704
C65_4 C 0.5102(3) 0.14947(13) 0.49405(7)
C66_4 C 0.4799(3) 0.12225(19) 0.50717(6)
H29_4 H 0.4610 0.1431 0.5157
C67_4 C 0.4778(3) 0.06384(19) 0.50759(6)
C68_4 C 0.5061(3) 0.03266(13) 0.49489(7)
C69_4 C 0.5364(3) 0.05989(18) 0.48177(7)
C70_4 C 0.5384(2) 0.11829(18) 0.48135(6)
C71_4 C 0.5697(5) 0.1444(3) 0.46793(12)
H30_4 H 0.5722 0.1834 0.4679
C72_4 C 0.5969(6) 0.1148(3) 0.45490(13)
C73_4 C 0.5942(6) 0.0550(4) 0.45610(17)
H31_4 H 0.6139 0.0336 0.4479
C74_4 C 0.5639(6) 0.0282(3) 0.46865(12)
C75_4 C 0.6263(6) 0.1443(3) 0.44000(11)
C76_4 C 0.6509(5) 0.1971(3) 0.44175(11)
H33_4 H 0.6540 0.2136 0.4528
C77_4 C 0.6708(4) 0.2252(3) 0.42697(15)
H34_4 H 0.6873 0.2605 0.4281
C78_4 C 0.6661(5) 0.2006(4) 0.41044(12)
C79_4 C 0.6415(6) 0.1478(5) 0.40870(10)
H35_4 H 0.6384 0.1314 0.3976
C80_4 C 0.6216(6) 0.1197(4) 0.42347(13)
H36_4 H 0.6052 0.0844 0.4223
C81_4 C 0.5022(2) 0.3938(2) 0.49733(10)
C82_4 C 0.4582(15) 0.0563(15) 0.5372(3)
C83_4 C 0.4263(15) 0.0235(14) 0.5510(4)
C84_4 C 0.6847(7) 0.2324(7) 0.3942(2)
O19_10 O 0.5000 0.5000 0.45496(9)
O20_4 O 0.49237(17) 0.41924(15) 0.48285(6)
O22_4 O 0.6601(9) 0.2163(9) 0.3793(2)
O23_4 O 0.7205(6) 0.2705(6) 0.39914(16)
O24_4 O 0.4482(4) 0.0340(2) 0.51928(8)
H44_4 H 0.4387 0.0108 0.4686
O26_2 O 0.50763(17) 0.58076(15) 0.48285(6)
H68_4 H 0.502991 0.0538432 0.54009
H69_4 H 0.444695 0.10004 0.537646
H70_4 H 0.753245 0.252115 0.404857
H74_4 H 0.43482 0.0412416 0.56394
H75_4 H 0.381397 0.0259082 0.548281
H76_4 H 0.560307 0.0202885 0.550724
H32_4 H 0.5613 0.9892 0.4686
C85_4 C 0.4914(2) 0.78589(10) 0.49406(6)
C86_4 C 0.4706(2) 0.75816(15) 0.50879(5)
H37_4 H 0.4551 0.7786 0.5180
C87_4 C 0.47278(18) 0.69981(16) 0.50970(5)
H38_4 H 0.4588 0.6813 0.5195
C88_4 C 0.49582(18) 0.66920(10) 0.49588(5)
C89_4 C 0.51665(17) 0.69693(15) 0.48116(5)
H39_4 H 0.5321 0.6765 0.4719
C90_4 C 0.51444(19) 0.75528(15) 0.48025(5)
H40_4 H 0.5284 0.7738 0.4704
C91_4 C 0.4898(3) 0.85053(13) 0.49405(7)
C92_4 C 0.5201(3) 0.87775(19) 0.50717(6)
H41_4 H 0.5390 0.8569 0.5157
C93_4 C 0.5222(3) 0.93616(19) 0.50759(6)
C94_4 C 0.4939(3) 0.96734(13) 0.49489(7)
C95_4 C 0.4636(3) 0.94011(18) 0.48177(7)
C96_4 C 0.4616(2) 0.88171(18) 0.48135(6)
C97_4 C 0.4303(5) 0.8556(3) 0.46793(12)
H42_4 H 0.4278 0.8166 0.4679
C98_4 C 0.4031(6) 0.8852(3) 0.45490(13)
C99_4 C 0.4058(6) 0.9450(4) 0.45610(17)
H43_4 H 0.3861 0.9664 0.4479
C100_4 C 0.4361(6) 0.9718(3) 0.46865(12)
C101_4 C 0.3737(6) 0.8557(3) 0.44000(11)
C102_4 C 0.3491(5) 0.8029(3) 0.44175(11)
H45_4 H 0.3460 0.7864 0.4528
C103_4 C 0.3292(4) 0.7748(3) 0.42697(15)
H46_4 H 0.3127 0.7395 0.4281
C104_4 C 0.3339(5) 0.7994(4) 0.41044(12)
C105_4 C 0.3585(6) 0.8522(5) 0.40870(10)
H47_4 H 0.3616 0.8686 0.3976
C106_4 C 0.3784(6) 0.8803(4) 0.42347(13)
H48_4 H 0.3948 0.9156 0.4223
C107_4 C 0.4978(2) 0.6062(2) 0.49733(10)
C108_4 C 0.5418(15) 0.9437(15) 0.5372(3)
C109_4 C 0.5737(15) 0.9765(14) 0.5510(4)
C110_4 C 0.3153(7) 0.7676(7) 0.3942(2)
O30_4 O 0.3399(9) 0.7837(9) 0.3793(2)
O31_4 O 0.2795(6) 0.7295(6) 0.39914(16)
O32_4 O 0.5518(4) 0.9660(2) 0.51928(8)
H73_4 H 0.439693 0.979712 0.550724
H77_4 H 0.56518 0.958758 0.56394
H78_4 H 0.618603 0.974092 0.548281
H79_4 H 0.246755 0.747885 0.404857
H80_4 H 0.497009 0.946157 0.54009
H81_4 H 0.555305 0.89996 0.537646
Cu9_5 Cu 0.0000 0.5000 0.268018(13)
C63_5 C 0.01665(17) 0.30307(15) 0.26884(5)
H27_5 H 0.0321 0.3235 0.2781
C64_5 C 0.01444(19) 0.24472(15) 0.26975(5)
H28_5 H 0.0284 0.2262 0.2796
C66_5 C 0.0201(3) 0.12225(19) 0.24283(6)
H29_5 H 0.0390 0.1431 0.2343
C67_5 C 0.0222(3) 0.06384(19) 0.24241(6)
C82_5 C 0.0418(15) 0.0563(15) 0.2128(3)
C83_5 C 0.0737(15) 0.0235(14) 0.1990(4)
O19_11 O -0.0000 0.5000 0.29504(9)
O20_5 O 0.00763(17) 0.41924(15) 0.26715(6)
O24_5 O 0.0518(4) 0.0340(2) 0.23072(8)
Cu10_5 Cu -0.0000 0.5000 0.231982(13)
H44_5 H 0.0613 0.0108 0.2814
O29_3 O 0.08361(15) 0.50844(17) 0.26181(6)
H69_5 H 0.0553048 0.10004 0.212354
H71_5 H 0.0357991 0.483608 0.299396
H74_5 H 0.0651805 0.0412416 0.18606
H75_5 H 0.118603 0.0259082 0.201719
C85_5 C 0.0086(2) 0.78589(10) 0.25594(6)
C86_5 C 0.0294(2) 0.75816(15) 0.24121(5)
H37_5 H 0.0449 0.7786 0.2320
C87_5 C 0.02722(18) 0.69981(16) 0.24030(5)
H38_5 H 0.0412 0.6813 0.2305
C88_5 C 0.00418(18) 0.66920(10) 0.25412(5)
C91_5 C 0.0102(3) 0.85053(13) 0.25595(7)
C94_5 C 0.0061(3) 0.96734(13) 0.25511(7)
C95_5 C 0.0364(3) 0.94011(18) 0.26823(7)
C96_5 C 0.0384(2) 0.88171(18) 0.26865(6)
C97_5 C 0.0697(5) 0.8556(3) 0.28207(12)
H42_5 H 0.0722 0.8166 0.2821
C98_5 C 0.0969(6) 0.8852(3) 0.29510(13)
C99_5 C 0.0942(6) 0.9450(4) 0.29390(17)
H43_5 H 0.1139 0.9664 0.3021
C100_5 C 0.0639(6) 0.9718(3) 0.28135(12)
C101_5 C 0.1263(6) 0.8557(3) 0.31000(11)
C102_5 C 0.1509(5) 0.8029(3) 0.30825(11)
H45_5 H 0.1540 0.7864 0.2972
C103_5 C 0.1708(4) 0.7748(3) 0.32303(15)
H46_5 H 0.1873 0.7395 0.3219
C104_5 C 0.1661(5) 0.7994(4) 0.33956(12)
C105_5 C 0.1415(6) 0.8522(5) 0.34130(10)
H47_5 H 0.1384 0.8686 0.3524
C106_5 C 0.1216(6) 0.8803(4) 0.32653(13)
H48_5 H 0.1052 0.9156 0.3277
C107_5 C 0.0022(2) 0.6062(2) 0.25267(10)
C110_5 C 0.1847(7) 0.7676(7) 0.3558(2)
O27_3 O 0.00844(17) 0.58361(15) 0.23819(6)
O30_5 O 0.1601(9) 0.7837(9) 0.3707(2)
O31_5 O 0.2205(6) 0.7295(6) 0.35086(16)
H73_5 H 0.0603067 0.979712 0.199276
H79_5 H 0.253245 0.747885 0.345143
H80_5 H 0.00299141 0.946157 0.20991
Cu9_6 Cu 1.0000 0.5000 0.268018(13)
C59_5 C 0.9914(2) 0.21411(10) 0.25594(6)
C60_5 C 0.9706(2) 0.24184(15) 0.24121(5)
H25_5 H 0.9551 0.2214 0.2320
C61_5 C 0.97278(18) 0.30019(16) 0.24030(5)
H26_5 H 0.9588 0.3187 0.2305
C62_5 C 0.99582(18) 0.33080(10) 0.25412(5)
C65_5 C 0.9898(3) 0.14947(13) 0.25595(7)
C68_5 C 0.9939(3) 0.03266(13) 0.25511(7)
C69_5 C 0.9636(3) 0.05989(18) 0.26823(7)
C70_5 C 0.9616(2) 0.11829(18) 0.26865(6)
C71_5 C 0.9303(5) 0.1444(3) 0.28207(12)
H30_5 H 0.9278 0.1834 0.2821
C72_5 C 0.9031(6) 0.1148(3) 0.29510(13)
C73_5 C 0.9058(6) 0.0550(4) 0.29390(17)
H31_5 H 0.8861 0.0336 0.3021
C74_5 C 0.9361(6) 0.0282(3) 0.28135(12)
C75_5 C 0.8737(6) 0.1443(3) 0.31000(11)
C76_5 C 0.8491(5) 0.1971(3) 0.30825(11)
H33_5 H 0.8460 0.2136 0.2972
C77_5 C 0.8292(4) 0.2252(3) 0.32303(15)
H34_5 H 0.8127 0.2605 0.3219
C78_5 C 0.8339(5) 0.2006(4) 0.33956(12)
C79_5 C 0.8585(6) 0.1478(5) 0.34130(10)
H35_5 H 0.8616 0.1314 0.3524
C80_5 C 0.8784(6) 0.1197(4) 0.32653(13)
H36_5 H 0.8948 0.0844 0.3277
C81_5 C 0.9978(2) 0.3938(2) 0.25267(10)
C84_5 C 0.8153(7) 0.2324(7) 0.3558(2)
O19_12 O 1.0000 0.5000 0.29504(9)
O21_3 O 0.99156(17) 0.41639(15) 0.23819(6)
O22_5 O 0.8399(9) 0.2163(9) 0.3707(2)
O23_5 O 0.7795(6) 0.2705(6) 0.35086(16)
Cu10_6 Cu 1.0000 0.5000 0.231982(13)
O26_3 O 0.99237(17) 0.58076(15) 0.26715(6)
O28_3 O 0.91639(15) 0.49156(17) 0.26181(6)
H68_5 H 0.997009 0.0538432 0.20991
H70_5 H 0.746755 0.252115 0.345143
H72_5 H 0.996297 0.539199 0.299396
H76_5 H 0.939693 0.0202885 0.199276
H32_5 H 0.9387 0.9892 0.2814
C89_5 C 0.98335(17) 0.69693(15) 0.26884(5)
H39_5 H 0.9679 0.6765 0.2781
C90_5 C 0.98556(19) 0.75528(15) 0.26975(5)
H40_5 H 0.9716 0.7738 0.2796
C92_5 C 0.9799(3) 0.87775(19) 0.24283(6)
H41_5 H 0.9610 0.8569 0.2343
C93_5 C 0.9778(3) 0.93616(19) 0.24241(6)
C108_5 C 0.9582(15) 0.9437(15) 0.2128(3)
C109_5 C 0.9263(15) 0.9765(14) 0.1990(4)
O32_5 O 0.9482(4) 0.9660(2) 0.23072(8)
H77_5 H 0.93482 0.958758 0.18606
H78_5 H 0.881397 0.974092 0.201719
H81_5 H 0.944695 0.89996 0.212354
O19_13 O 0.0000 0.5000 0.20496(9)
O26_4 O 0.08076(15) 0.49237(17) 0.23285(6)
H72_6 H 0.039199 0.496297 0.200604
C59_6 C 0.71411(10) 0.4914(2) 0.24406(6)
C60_6 C 0.74184(15) 0.4706(2) 0.25879(5)
H25_6 H 0.7214 0.4551 0.2680
C61_6 C 0.80019(16) 0.47278(18) 0.25970(5)
H26_6 H 0.8187 0.4588 0.2695
C62_6 C 0.83080(10) 0.49582(18) 0.24588(5)
C63_6 C 0.80307(15) 0.51665(17) 0.23116(5)
H27_6 H 0.8235 0.5321 0.2219
C64_6 C 0.74472(15) 0.51444(19) 0.23025(5)
H28_6 H 0.7262 0.5284 0.2204
C65_6 C 0.64947(13) 0.4898(3) 0.24405(7)
C66_6 C 0.62225(19) 0.5201(3) 0.25717(6)
H29_6 H 0.6431 0.5390 0.2657
C67_6 C 0.56384(19) 0.5222(3) 0.25759(6)
C68_6 C 0.53266(13) 0.4939(3) 0.24489(7)
C69_6 C 0.55989(18) 0.4636(3) 0.23177(7)
C70_6 C 0.61829(18) 0.4616(2) 0.23135(6)
C71_6 C 0.6444(3) 0.4303(5) 0.21793(12)
H30_6 H 0.6834 0.4278 0.2179
C72_6 C 0.6148(3) 0.4031(6) 0.20490(13)
C73_6 C 0.5550(4) 0.4058(6) 0.20610(17)
H31_6 H 0.5336 0.3861 0.1979
C74_6 C 0.5282(3) 0.4361(6) 0.21865(12)
H32_6 H 0.4892 0.4387 0.2186
C75_6 C 0.6443(3) 0.3737(6) 0.19000(11)
C76_6 C 0.6971(3) 0.3491(5) 0.19175(11)
H33_6 H 0.7136 0.3460 0.2028
C77_6 C 0.7252(3) 0.3292(4) 0.17697(15)
H34_6 H 0.7605 0.3127 0.1781
C78_6 C 0.7006(4) 0.3339(5) 0.16044(12)
C79_6 C 0.6478(5) 0.3585(6) 0.15870(10)
H35_6 H 0.6314 0.3616 0.1476
C80_6 C 0.6197(4) 0.3784(6) 0.17347(13)
H36_6 H 0.5844 0.3948 0.1723
C81_6 C 0.8938(2) 0.4978(2) 0.24733(10)
C82_6 C 0.5563(15) 0.5418(15) 0.2872(3)
C83_6 C 0.5235(14) 0.5737(15) 0.3010(4)
C84_6 C 0.7324(7) 0.3153(7) 0.1442(2)
O19_14 O 1.0000 0.5000 0.20496(9)
O20_6 O 0.91924(15) 0.50763(17) 0.23285(6)
O22_6 O 0.7163(9) 0.3399(9) 0.1293(2)
O23_6 O 0.7705(6) 0.2795(6) 0.14914(16)
O24_6 O 0.5340(2) 0.5518(4) 0.26928(8)
C85_6 C 0.28589(10) 0.5086(2) 0.24406(6)
C86_6 C 0.25816(15) 0.5294(2) 0.25879(5)
H37_6 H 0.2786 0.5449 0.2680
C87_6 C 0.19981(16) 0.52722(18) 0.25970(5)
H38_6 H 0.1813 0.5412 0.2695
C88_6 C 0.16920(10) 0.50418(18) 0.24588(5)
C89_6 C 0.19693(15) 0.48335(17) 0.23116(5)
H39_6 H 0.1765 0.4679 0.2219
C90_6 C 0.25528(15) 0.48556(19) 0.23025(5)
H40_6 H 0.2738 0.4716 0.2204
C91_6 C 0.35053(13) 0.5102(3) 0.24405(7)
C92_6 C 0.37775(19) 0.4799(3) 0.25717(6)
H41_6 H 0.3569 0.4610 0.2657
C93_6 C 0.43616(19) 0.4778(3) 0.25759(6)
C94_6 C 0.46734(13) 0.5061(3) 0.24489(7)
C95_6 C 0.44011(18) 0.5364(3) 0.23177(7)
C96_6 C 0.38171(18) 0.5384(2) 0.23135(6)
C97_6 C 0.3556(3) 0.5697(5) 0.21793(12)
H42_6 H 0.3166 0.5722 0.2179
C98_6 C 0.3852(3) 0.5969(6) 0.20490(13)
C99_6 C 0.4450(4) 0.5942(6) 0.20610(17)
H43_6 H 0.4664 0.6139 0.1979
C100_6 C 0.4718(3) 0.5639(6) 0.21865(12)
H44_6 H 0.5108 0.5613 0.2186
C101_6 C 0.3557(3) 0.6263(6) 0.19000(11)
C102_6 C 0.3029(3) 0.6509(5) 0.19175(11)
H45_6 H 0.2864 0.6540 0.2028
C103_6 C 0.2748(3) 0.6708(4) 0.17697(15)
H46_6 H 0.2395 0.6873 0.1781
C104_6 C 0.2994(4) 0.6661(5) 0.16044(12)
C105_6 C 0.3522(5) 0.6415(6) 0.15870(10)
H47_6 H 0.3686 0.6384 0.1476
C106_6 C 0.3803(4) 0.6216(6) 0.17347(13)
H48_6 H 0.4156 0.6052 0.1723
C107_6 C 0.1062(2) 0.5022(2) 0.24733(10)
C108_6 C 0.4437(15) 0.4582(15) 0.2872(3)
C109_6 C 0.4765(14) 0.4263(15) 0.3010(4)
C110_6 C 0.2676(7) 0.6847(7) 0.1442(2)
O30_6 O 0.2837(9) 0.6601(9) 0.1293(2)
O31_6 O 0.2295(6) 0.7205(6) 0.14914(16)
O32_6 O 0.4660(2) 0.4482(4) 0.26928(8)
H68_6 H 0.553843 0.497009 0.29009
H69_6 H 0.60004 0.555305 0.287646
H70_6 H 0.752115 0.246755 0.154857
H71_6 H 0.983608 0.535799 0.200604
H73_6 H 0.479712 0.560307 0.300724
H74_6 H 0.541242 0.56518 0.31394
H75_6 H 0.525908 0.618603 0.298281
H76_6 H 0.520288 0.439693 0.300724
H77_6 H 0.458758 0.43482 0.31394
H78_6 H 0.474092 0.381397 0.298281
H79_6 H 0.247885 0.753245 0.154857
H80_6 H 0.446157 0.502991 0.29009
H81_6 H 0.39996 0.444695 0.287646
H72_7 H 0.00370342 0.460801 0.299396
H71_7 H 0.964201 0.516392 0.299396
H71_8 H 0.0163923 0.464201 0.200604
H72_8 H 0.960801 0.503703 0.200604
Cu11_2 Cu 0.5000 0.0000 0.768018(13)
Cu12_2 Cu 0.5000 0.0000 0.731982(13)
C59_7 C 0.5086(2) 0.28589(10) 0.75594(6)
C60_7 C 0.5294(2) 0.25816(15) 0.74121(5)
H25_7 H 0.5449 0.2786 0.7320
C61_7 C 0.52722(18) 0.19981(16) 0.74030(5)
H26_7 H 0.5412 0.1813 0.7305
C62_7 C 0.50418(18) 0.16920(10) 0.75412(5)
C63_7 C 0.48335(17) 0.19693(15) 0.76884(5)
H27_7 H 0.4679 0.1765 0.7781
C64_7 C 0.48556(19) 0.25528(15) 0.76975(5)
H28_7 H 0.4716 0.2738 0.7796
C65_7 C 0.5102(3) 0.35053(13) 0.75595(7)
C66_7 C 0.4799(3) 0.37775(19) 0.74283(6)
H29_7 H 0.4610 0.3569 0.7343
C67_7 C 0.4778(3) 0.43616(19) 0.74241(6)
C68_7 C 0.5061(3) 0.46734(13) 0.75511(7)
C69_7 C 0.5364(3) 0.44011(18) 0.76823(7)
C70_7 C 0.5384(2) 0.38171(18) 0.76865(6)
C71_7 C 0.5697(5) 0.3556(3) 0.78207(12)
H30_7 H 0.5722 0.3166 0.7821
C72_7 C 0.5969(6) 0.3852(3) 0.79510(13)
C73_7 C 0.5942(6) 0.4450(4) 0.79390(17)
H31_7 H 0.6139 0.4664 0.8021
C74_7 C 0.5639(6) 0.4718(3) 0.78135(12)
H32_7 H 0.5613 0.5108 0.7814
C75_7 C 0.6263(6) 0.3557(3) 0.81000(11)
C76_7 C 0.6509(5) 0.3029(3) 0.80825(11)
H33_7 H 0.6540 0.2864 0.7972
C77_7 C 0.6708(4) 0.2748(3) 0.82303(15)
H34_7 H 0.6873 0.2395 0.8219
C78_7 C 0.6661(5) 0.2994(4) 0.83956(12)
C79_7 C 0.6415(6) 0.3522(5) 0.84130(10)
H35_7 H 0.6384 0.3686 0.8524
C80_7 C 0.6216(6) 0.3803(4) 0.82653(13)
H36_7 H 0.6052 0.4156 0.8277
C81_7 C 0.5022(2) 0.1062(2) 0.75267(10)
C82_7 C 0.4582(15) 0.4437(15) 0.7128(3)
C83_7 C 0.4263(15) 0.4765(14) 0.6990(4)
C84_7 C 0.6847(7) 0.2676(7) 0.8558(2)
O19_15 O 0.5000 -0.0000 0.79504(9)
O20_7 O 0.49237(17) 0.08076(15) 0.76715(6)
O21_4 O 0.50844(17) 0.08361(15) 0.73819(6)
O22_7 O 0.6601(9) 0.2837(9) 0.8707(2)
O23_7 O 0.7205(6) 0.2295(6) 0.85086(16)
O24_7 O 0.4482(4) 0.4660(2) 0.73072(8)
Cu11_3 Cu 0.5000 1.0000 0.768018(13)
Cu12_3 Cu 0.5000 1.0000 0.731982(13)
C85_7 C 0.4914(2) 0.71411(10) 0.75594(6)
C86_7 C 0.4706(2) 0.74184(15) 0.74121(5)
H37_7 H 0.4551 0.7214 0.7320
C87_7 C 0.47278(18) 0.80019(16) 0.74030(5)
H38_7 H 0.4588 0.8187 0.7305
C88_7 C 0.49582(18) 0.83080(10) 0.75412(5)
C89_7 C 0.51665(17) 0.80307(15) 0.76884(5)
H39_7 H 0.5321 0.8235 0.7781
C90_7 C 0.51444(19) 0.74472(15) 0.76975(5)
H40_7 H 0.5284 0.7262 0.7796
C91_7 C 0.4898(3) 0.64947(13) 0.75595(7)
C92_7 C 0.5201(3) 0.62225(19) 0.74283(6)
H41_7 H 0.5390 0.6431 0.7343
C93_7 C 0.5222(3) 0.56384(19) 0.74241(6)
C94_7 C 0.4939(3) 0.53266(13) 0.75511(7)
C95_7 C 0.4636(3) 0.55989(18) 0.76823(7)
C96_7 C 0.4616(2) 0.61829(18) 0.76865(6)
C97_7 C 0.4303(5) 0.6444(3) 0.78207(12)
H42_7 H 0.4278 0.6834 0.7821
C98_7 C 0.4031(6) 0.6148(3) 0.79510(13)
C99_7 C 0.4058(6) 0.5550(4) 0.79390(17)
H43_7 H 0.3861 0.5336 0.8021
C100_7 C 0.4361(6) 0.5282(3) 0.78135(12)
H44_7 H 0.4387 0.4892 0.7814
C101_7 C 0.3737(6) 0.6443(3) 0.81000(11)
C102_7 C 0.3491(5) 0.6971(3) 0.80825(11)
H45_7 H 0.3460 0.7136 0.7972
C103_7 C 0.3292(4) 0.7252(3) 0.82303(15)
H46_7 H 0.3127 0.7605 0.8219
C104_7 C 0.3339(5) 0.7006(4) 0.83956(12)
C105_7 C 0.3585(6) 0.6478(5) 0.84130(10)
H47_7 H 0.3616 0.6314 0.8524
C106_7 C 0.3784(6) 0.6197(4) 0.82653(13)
H48_7 H 0.3948 0.5844 0.8277
C107_7 C 0.4978(2) 0.8938(2) 0.75267(10)
C108_7 C 0.5418(15) 0.5563(15) 0.7128(3)
C109_7 C 0.5737(15) 0.5235(14) 0.6990(4)
C110_7 C 0.3153(7) 0.7324(7) 0.8558(2)
O25_3 O 0.50763(17) 0.91924(15) 0.76715(6)
O27_4 O 0.49156(17) 0.91639(15) 0.73819(6)
O28_4 O 0.58361(15) 0.00844(17) 0.76181(6)
O30_7 O 0.3399(9) 0.7163(9) 0.8707(2)
O31_7 O 0.2795(6) 0.7705(6) 0.85086(16)
O32_7 O 0.5518(4) 0.5340(2) 0.73072(8)
H68_7 H 0.502991 0.446157 0.70991
H69_7 H 0.444695 0.39996 0.712354
H70_7 H 0.753245 0.247885 0.845143
H71_9 H 0.464201 0.0163923 0.799396
H73_7 H 0.439693 0.520288 0.699276
H74_7 H 0.43482 0.458758 0.68606
H75_7 H 0.381397 0.474092 0.701719
H76_7 H 0.560307 0.479712 0.699276
H77_7 H 0.56518 0.541242 0.68606
H78_7 H 0.618603 0.525908 0.701719
H79_7 H 0.246755 0.752115 0.845143
H80_7 H 0.497009 0.553843 0.70991
H81_7 H 0.555305 0.60004 0.712354
O19_16 O 0.5000 1.0000 0.79504(9)
O29_4 O 0.41639(15) 0.99156(17) 0.76181(6)
H72_9 H 0.503703 0.960801 0.799396
H32_8 H 0.0108 0.0613 0.7186
C89_8 C 0.30307(15) 0.01665(17) 0.73116(5)
H39_8 H 0.3235 0.0321 0.7219
C90_8 C 0.24472(15) 0.01444(19) 0.73025(5)
H40_8 H 0.2262 0.0284 0.7204
C92_8 C 0.12225(19) 0.0201(3) 0.75717(6)
H41_8 H 0.1431 0.0390 0.7657
C93_8 C 0.06384(19) 0.0222(3) 0.75759(6)
C108_8 C 0.0563(15) 0.0418(15) 0.7872(3)
C109_8 C 0.0235(14) 0.0737(15) 0.8010(4)
O25_4 O 0.41924(15) 0.00763(17) 0.73285(6)
O32_8 O 0.0340(2) 0.0518(4) 0.76928(8)
H77_8 H 0.0412416 0.0651805 0.81394
H78_8 H 0.0259082 0.118603 0.798281
H81_8 H 0.10004 0.0553048 0.787646
C85_8 C 0.21411(10) 0.9914(2) 0.74406(6)
C86_8 C 0.24184(15) 0.9706(2) 0.75879(5)
H37_8 H 0.2214 0.9551 0.7680
C87_8 C 0.30019(16) 0.97278(18) 0.75970(5)
H38_8 H 0.3187 0.9588 0.7695
C88_8 C 0.33080(10) 0.99582(18) 0.74588(5)
C91_8 C 0.14947(13) 0.9898(3) 0.74405(7)
C94_8 C 0.03266(13) 0.9939(3) 0.74489(7)
C95_8 C 0.05989(18) 0.9636(3) 0.73177(7)
C96_8 C 0.11829(18) 0.9616(2) 0.73135(6)
C97_8 C 0.1444(3) 0.9303(5) 0.71793(12)
H42_8 H 0.1834 0.9278 0.7179
C98_8 C 0.1148(3) 0.9031(6) 0.70490(13)
C99_8 C 0.0550(4) 0.9058(6) 0.70610(17)
H43_8 H 0.0336 0.8861 0.6979
C100_8 C 0.0282(3) 0.9361(6) 0.71865(12)
C101_8 C 0.1443(3) 0.8737(6) 0.69000(11)
C102_8 C 0.1971(3) 0.8491(5) 0.69175(11)
H45_8 H 0.2136 0.8460 0.7028
C103_8 C 0.2252(3) 0.8292(4) 0.67697(15)
H46_8 H 0.2605 0.8127 0.6781
C104_8 C 0.2006(4) 0.8339(5) 0.66044(12)
C105_8 C 0.1478(5) 0.8585(6) 0.65870(10)
H47_8 H 0.1314 0.8616 0.6476
C106_8 C 0.1197(4) 0.8784(6) 0.67347(13)
H48_8 H 0.0844 0.8948 0.6723
C107_8 C 0.3938(2) 0.9978(2) 0.74733(10)
C110_8 C 0.2324(7) 0.8153(7) 0.6442(2)
O30_8 O 0.2163(9) 0.8399(9) 0.6293(2)
O31_8 O 0.2705(6) 0.7795(6) 0.64914(16)
H73_8 H 0.0202885 0.939693 0.800724
H79_8 H 0.252115 0.746755 0.654857
H80_8 H 0.0538432 0.997009 0.79009
C59_8 C 0.78589(10) 0.0086(2) 0.74406(6)
C60_8 C 0.75816(15) 0.0294(2) 0.75879(5)
H25_8 H 0.7786 0.0449 0.7680
C61_8 C 0.69981(16) 0.02722(18) 0.75970(5)
H26_8 H 0.6813 0.0412 0.7695
C62_8 C 0.66920(10) 0.00418(18) 0.74588(5)
C65_8 C 0.85053(13) 0.0102(3) 0.74405(7)
C68_8 C 0.96734(13) 0.0061(3) 0.74489(7)
C69_8 C 0.94011(18) 0.0364(3) 0.73177(7)
C70_8 C 0.88171(18) 0.0384(2) 0.73135(6)
C71_8 C 0.8556(3) 0.0697(5) 0.71793(12)
H30_8 H 0.8166 0.0722 0.7179
C72_8 C 0.8852(3) 0.0969(6) 0.70490(13)
C73_8 C 0.9450(4) 0.0942(6) 0.70610(17)
H31_8 H 0.9664 0.1139 0.6979
C74_8 C 0.9718(3) 0.0639(6) 0.71865(12)
C75_8 C 0.8557(3) 0.1263(6) 0.69000(11)
C76_8 C 0.8029(3) 0.1509(5) 0.69175(11)
H33_8 H 0.7864 0.1540 0.7028
C77_8 C 0.7748(3) 0.1708(4) 0.67697(15)
H34_8 H 0.7395 0.1873 0.6781
C78_8 C 0.7994(4) 0.1661(5) 0.66044(12)
C79_8 C 0.8522(5) 0.1415(6) 0.65870(10)
H35_8 H 0.8686 0.1384 0.6476
C80_8 C 0.8803(4) 0.1216(6) 0.67347(13)
H36_8 H 0.9156 0.1052 0.6723
C81_8 C 0.6062(2) 0.0022(2) 0.74733(10)
C84_8 C 0.7676(7) 0.1847(7) 0.6442(2)
O19_17 O 0.5000 0.0000 0.70496(9)
O22_8 O 0.7837(9) 0.1601(9) 0.6293(2)
O23_8 O 0.7295(6) 0.2205(6) 0.64914(16)
H68_8 H 0.946157 0.00299141 0.79009
H70_8 H 0.747885 0.253245 0.654857
H72_10 H 0.460801 0.00370342 0.700604
H76_8 H 0.979712 0.0603067 0.800724
C63_8 C 0.69693(15) 0.98335(17) 0.73116(5)
H27_8 H 0.6765 0.9679 0.7219
C64_8 C 0.75528(15) 0.98556(19) 0.73025(5)
H28_8 H 0.7738 0.9716 0.7204
C66_8 C 0.87775(19) 0.9799(3) 0.75717(6)
H29_8 H 0.8569 0.9610 0.7657
C67_8 C 0.93616(19) 0.9778(3) 0.75759(6)
C82_8 C 0.9437(15) 0.9582(15) 0.7872(3)
C83_8 C 0.9765(14) 0.9263(15) 0.8010(4)
O19_18 O 0.5000 1.0000 0.70496(9)
O20_8 O 0.58076(15) 0.99237(17) 0.73285(6)
O24_8 O 0.9660(2) 0.9482(4) 0.76928(8)
H44_8 H 0.9892 0.9387 0.7186
H69_8 H 0.89996 0.944695 0.787646
H71_10 H 0.516392 0.964201 0.700604
H74_8 H 0.958758 0.93482 0.81394
H75_8 H 0.974092 0.881397 0.798281
H72_11 H 0.496297 0.039199 0.799396
H71_11 H 0.535799 0.983608 0.799396
H71_12 H 0.483608 0.0357991 0.700604
H72_12 H 0.539199 0.996297 0.700604
loop_
_geom_bond_atom_site_label_1
_geom_bond_atom_site_label_2
_geom_bond_site_symmetry_1
_geom_bond_site_symmetry_2
C1 C2 1_555 1_555
C2 H1 1_555 1_555
C3 C2 1_555 1_555
C4 C3 1_555 1_555
C5 C4 1_555 1_555
C6 C1 1_555 1_555
C7 C6 1_555 1_555
H2 C7 1_555 1_555
C8 C7 1_555 1_555
C9 C8 1_555 1_555
H3 C9 1_555 1_555
C10 C5 1_555 1_555
H4 C10 1_555 1_555
C11 C1 1_555 1_555
C12 C11 1_555 1_555
H5 C12 1_555 1_555
C13 C12 1_555 1_555
H6 C13 1_555 1_555
C14 C13 1_555 1_555
C15 C14 1_555 1_555
H7 C15 1_555 1_555
C16 C11 1_555 1_555
H8 C16 1_555 1_555
O2 C24 1_555 1_555
O3 C24 1_555 1_555
C17 C8 1_555 1_555
C18 C17 1_555 1_555
H9 C18 1_555 1_555
C19 C18 1_555 1_555
H10 C19 1_555 1_555
C20 C19 1_555 1_555
C21 C20 1_555 1_555
H11 C21 1_555 1_555
C22 C17 1_555 1_555
H12 C22 1_555 1_555
C23 C14 1_555 1_555
C24 C20 1_555 1_555
C25 C26 1_555 1_555
O4 C23 1_555 1_555
O6 C3 1_555 1_555
Cu2 O7 1_555 1_555
Cu4 O3 1_555 1_555
Cu6 O8 1_555 1_555
Cu8 O14 1_555 1_555
C30 C31 1_555 1_555
C31 H13 1_555 1_555
C32 C31 1_555 1_555
C33 C4 1_555 1_555
C34 C33 1_555 1_555
C35 C30 1_555 1_555
C36 C35 1_555 1_555
H14 C36 1_555 1_555
C37 C36 1_555 1_555
C38 C37 1_555 1_555
H15 C38 1_555 1_555
C39 C34 1_555 1_555
H16 C39 1_555 1_555
C40 C30 1_555 1_555
C41 C40 1_555 1_555
H17 C41 1_555 1_555
C42 C41 1_555 1_555
H18 C42 1_555 1_555
C43 C42 1_555 1_555
C44 C43 1_555 1_555
H19 C44 1_555 1_555
C45 C40 1_555 1_555
H20 C45 1_555 1_555
O7 C52 1_555 1_555
O8 C53 1_555 1_555
O10 Cu2 1_555 1_555
O11 C53 1_555 1_555
O13 Cu2 1_555 1_555
C46 C37 1_555 1_555
C47 C46 1_555 1_555
H21 C47 1_555 1_555
C48 C47 1_555 1_555
H22 C48 1_555 1_555
C49 C48 1_555 1_555
C50 C49 1_555 1_555
H23 C50 1_555 1_555
C51 C46 1_555 1_555
H24 C51 1_555 1_555
C52 C43 1_555 1_555
C53 C49 1_555 1_555
C54 C55 1_555 1_555
O14 C52 1_555 1_555
O16 Cu2 1_555 1_555
O17 Cu2 1_555 1_555
O18 C32 1_555 1_555
C56 O17 1_555 1_555
N2 C56 1_555 1_555
C57 N2 1_555 1_555
C58 N2 1_555 1_555
C5 C6 1_555 1_555
C9 C10 1_555 1_555
C15 C16 1_555 1_555
C21 C22 1_555 1_555
C25 O6 1_555 1_555
C32 C33 1_555 1_555
C34 C35 1_555 1_555
C38 C39 1_555 1_555
C44 C45 1_555 1_555
C50 C51 1_555 1_555
C54 O18 1_555 1_555
C54 H56 1_555 1_555
C54 H57 1_555 1_555
C55 H58 1_555 1_555
C55 H59 1_555 1_555
C55 H60 1_555 1_555
C58 H61 1_555 1_555
C58 H62 1_555 1_555
C58 H63 1_555 1_555
C56 H64 1_555 1_555
C57 H65 1_555 1_555
C57 H66 1_555 1_555
C57 H67 1_555 1_555
C25 H82 1_555 1_555
C25 H83 1_555 1_555
C26 H84 1_555 1_555
C26 H85 1_555 1_555
C26 H86 1_555 1_555
Cu1 O1 1_555 1_555
O5 Cu1 1_555 1_555
C27 O5 1_555 1_555
N1 C27 1_555 1_555
C28 N1 1_555 1_555
C29 N1 1_555 1_555
C28 H49 1_555 1_555
C28 H50 1_555 1_555
C28 H51 1_555 1_555
C29 H52 1_555 1_555
C29 H53 1_555 1_555
C29 H54 1_555 1_555
C27 H55 1_555 1_555
Cu2_2 O7_2 1_555 1_555
O17_2 Cu2_2 1_555 1_555
C56_2 O17_2 1_555 1_555
N2_2 C56_2 1_555 1_555
C57_2 N2_2 1_555 1_555
C58_2 N2_2 1_555 1_555
C58_2 H61_2 1_555 1_555
C58_2 H62_2 1_555 1_555
C58_2 H63_2 1_555 1_555
C56_2 H64_2 1_555 1_555
C57_2 H65_2 1_555 1_555
C57_2 H66_2 1_555 1_555
C57_2 H67_2 1_555 1_555
Cu1_2 O1_2 1_555 1_555
C1_2 C2_2 1_555 1_555
C2_2 H1_2 1_555 1_555
C3_2 C2_2 1_555 1_555
C4_2 C3_2 1_555 1_555
C5_2 C4_2 1_555 1_555
C6_2 C1_2 1_555 1_555
C7_2 C6_2 1_555 1_555
H2_2 C7_2 1_555 1_555
C8_2 C7_2 1_555 1_555
C9_2 C8_2 1_555 1_555
H3_2 C9_2 1_555 1_555
C10_2 C5_2 1_555 1_555
H4_2 C10_2 1_555 1_555
C11_2 C1_2 1_555 1_555
C12_2 C11_2 1_555 1_555
H5_2 C12_2 1_555 1_555
C13_2 C12_2 1_555 1_555
H6_2 C13_2 1_555 1_555
C14_2 C13_2 1_555 1_555
C15_2 C14_2 1_555 1_555
H7_2 C15_2 1_555 1_555
C16_2 C11_2 1_555 1_555
H8_2 C16_2 1_555 1_555
O1_2 C23_2 1_555 1_555
O2_2 C24_2 1_555 1_555
O3_2 C24_2 1_555 1_555
C17_2 C8_2 1_555 1_555
C18_2 C17_2 1_555 1_555
H9_2 C18_2 1_555 1_555
C19_2 C18_2 1_555 1_555
H10_2 C19_2 1_555 1_555
C20_2 C19_2 1_555 1_555
C21_2 C20_2 1_555 1_555
H11_2 C21_2 1_555 1_555
C22_2 C17_2 1_555 1_555
H12_2 C22_2 1_555 1_555
C23_2 C14_2 1_555 1_555
C24_2 C20_2 1_555 1_555
C25_2 C26_2 1_555 1_555
O4_2 C23_2 1_555 1_555
O5_2 Cu1_2 1_555 1_555
O6_2 C3_2 1_555 1_555
C27_2 O5_2 1_555 1_555
N1_2 C27_2 1_555 1_555
C28_2 N1_2 1_555 1_555
C29_2 N1_2 1_555 1_555
Cu3_2 O2_2 1_555 1_555
Cu5_2 O4_2 1_555 1_555
Cu7_2 O11_2 1_555 1_555
C30_2 C31_2 1_555 1_555
C31_2 H13_2 1_555 1_555
C32_2 C31_2 1_555 1_555
C33_2 C4_2 1_555 1_555
C34_2 C33_2 1_555 1_555
C35_2 C30_2 1_555 1_555
C36_2 C35_2 1_555 1_555
H14_2 C36_2 1_555 1_555
C37_2 C36_2 1_555 1_555
C38_2 C37_2 1_555 1_555
H15_2 C38_2 1_555 1_555
C39_2 C34_2 1_555 1_555
H16_2 C39_2 1_555 1_555
C40_2 C30_2 1_555 1_555
C41_2 C40_2 1_555 1_555
H17_2 C41_2 1_555 1_555
C42_2 C41_2 1_555 1_555
H18_2 C42_2 1_555 1_555
C43_2 C42_2 1_555 1_555
C44_2 C43_2 1_555 1_555
H19_2 C44_2 1_555 1_555
C45_2 C40_2 1_555 1_555
H20_2 C45_2 1_555 1_555
O8_2 C53_2 1_555 1_555
O9_2 Cu1_2 1_555 1_555
O11_2 C53_2 1_555 1_555
O12_2 Cu1_2 1_555 1_555
C46_2 C37_2 1_555 1_555
C47_2 C46_2 1_555 1_555
H21_2 C47_2 1_555 1_555
C48_2 C47_2 1_555 1_555
H22_2 C48_2 1_555 1_555
C49_2 C48_2 1_555 1_555
C50_2 C49_2 1_555 1_555
H23_2 C50_2 1_555 1_555
C51_2 C46_2 1_555 1_555
H24_2 C51_2 1_555 1_555
C52_2 C43_2 1_555 1_555
C53_2 C49_2 1_555 1_555
C54_2 C55_2 1_555 1_555
O14_2 C52_2 1_555 1_555
O15_2 Cu1_2 1_555 1_555
O18_2 C32_2 1_555 1_555
C5_2 C6_2 1_555 1_555
C9_2 C10_2 1_555 1_555
C15_2 C16_2 1_555 1_555
C21_2 C22_2 1_555 1_555
C25_2 O6_2 1_555 1_555
C32_2 C33_2 1_555 1_555
C34_2 C35_2 1_555 1_555
C38_2 C39_2 1_555 1_555
C44_2 C45_2 1_555 1_555
C50_2 C51_2 1_555 1_555
C54_2 O18_2 1_555 1_555
C28_2 H49_2 1_555 1_555
C28_2 H50_2 1_555 1_555
C28_2 H51_2 1_555 1_555
C29_2 H52_2 1_555 1_555
C29_2 H53_2 1_555 1_555
C29_2 H54_2 1_555 1_555
C27_2 H55_2 1_555 1_555
C54_2 H56_2 1_555 1_555
C54_2 H57_2 1_555 1_555
C55_2 H58_2 1_555 1_555
C55_2 H59_2 1_555 1_555
C55_2 H60_2 1_555 1_555
C25_2 H82_2 1_555 1_555
C25_2 H83_2 1_555 1_555
C26_2 H84_2 1_555 1_555
C26_2 H85_2 1_555 1_555
C26_2 H86_2 1_555 1_555
Cu6 O1_3 1_555 1_555
C1_3 C2_3 1_555 1_555
C2_3 H1_3 1_555 1_555
C3_3 C2_3 1_555 1_555
C4_3 C3_3 1_555 1_555
C5_3 C4_3 1_555 1_555
C6_3 C1_3 1_555 1_555
C7_3 C6_3 1_555 1_555
H2_3 C7_3 1_555 1_555
C8_3 C7_3 1_555 1_555
C9_3 C8_3 1_555 1_555
H3_3 C9_3 1_555 1_555
C10_3 C5_3 1_555 1_555
H4_3 C10_3 1_555 1_555
C11_3 C1_3 1_555 1_555
C12_3 C11_3 1_555 1_555
H5_3 C12_3 1_555 1_555
C13_3 C12_3 1_555 1_555
H6_3 C13_3 1_555 1_555
C14_3 C13_3 1_555 1_555
C15_3 C14_3 1_555 1_555
H7_3 C15_3 1_555 1_555
C16_3 C11_3 1_555 1_555
H8_3 C16_3 1_555 1_555
O1_3 C23_3 1_555 1_555
O10 C24_3 1_555 1_555
O3_3 C24_3 1_555 1_555
C17_3 C8_3 1_555 1_555
C18_3 C17_3 1_555 1_555
H9_3 C18_3 1_555 1_555
C19_3 C18_3 1_555 1_555
H10_3 C19_3 1_555 1_555
C20_3 C19_3 1_555 1_555
C21_3 C20_3 1_555 1_555
H11_3 C21_3 1_555 1_555
C22_3 C17_3 1_555 1_555
H12_3 C22_3 1_555 1_555
C23_3 C14_3 1_555 1_555
C24_3 C20_3 1_555 1_555
C25_3 C26_3 1_555 1_555
O4_3 C23_3 1_555 1_555
O5_3 Cu6 1_555 1_555
O6_3 C3_3 1_555 1_555
C27_3 O5_3 1_555 1_555
N1_3 C27_3 1_555 1_555
C28_3 N1_3 1_555 1_555
C29_3 N1_3 1_555 1_555
Cu3_2 O7_3 1_555 1_555
Cu8 O3_3 1_555 1_555
Cu5_2 O11_3 1_555 1_555
C30_3 C31_3 1_555 1_555
C31_3 H13_3 1_555 1_555
C32_3 C31_3 1_555 1_555
C33_3 C4_3 1_555 1_555
C34_3 C33_3 1_555 1_555
C35_3 C30_3 1_555 1_555
C36_3 C35_3 1_555 1_555
H14_3 C36_3 1_555 1_555
C37_3 C36_3 1_555 1_555
C38_3 C37_3 1_555 1_555
H15_3 C38_3 1_555 1_555
C39_3 C34_3 1_555 1_555
H16_3 C39_3 1_555 1_555
C40_3 C30_3 1_555 1_555
C41_3 C40_3 1_555 1_555
H17_3 C41_3 1_555 1_555
C42_3 C41_3 1_555 1_555
H18_3 C42_3 1_555 1_555
C43_3 C42_3 1_555 1_555
C44_3 C43_3 1_555 1_555
H19_3 C44_3 1_555 1_555
C45_3 C40_3 1_555 1_555
H20_3 C45_3 1_555 1_555
O7_3 C52_3 1_555 1_555
O9_2 C53_3 1_555 1_555
O11_3 C53_3 1_555 1_555
C46_3 C37_3 1_555 1_555
C47_3 C46_3 1_555 1_555
H21_3 C47_3 1_555 1_555
C48_3 C47_3 1_555 1_555
H22_3 C48_3 1_555 1_555
C49_3 C48_3 1_555 1_555
C50_3 C49_3 1_555 1_555
H23_3 C50_3 1_555 1_555
C51_3 C46_3 1_555 1_555
H24_3 C51_3 1_555 1_555
C52_3 C43_3 1_555 1_555
C53_3 C49_3 1_555 1_555
C54_3 C55_3 1_555 1_555
O14_3 C52_3 1_555 1_555
O17_3 Cu3_2 1_555 1_555
O18_3 C32_3 1_555 1_555
C56_3 O17_3 1_555 1_555
N2_3 C56_3 1_555 1_555
C57_3 N2_3 1_555 1_555
C58_3 N2_3 1_555 1_555
C5_3 C6_3 1_555 1_555
C9_3 C10_3 1_555 1_555
C15_3 C16_3 1_555 1_555
C21_3 C22_3 1_555 1_555
C25_3 O6_3 1_555 1_555
C32_3 C33_3 1_555 1_555
C34_3 C35_3 1_555 1_555
C38_3 C39_3 1_555 1_555
C44_3 C45_3 1_555 1_555
C50_3 C51_3 1_555 1_555
C54_3 O18_3 1_555 1_555
C28_3 H49_3 1_555 1_555
C28_3 H50_3 1_555 1_555
C28_3 H51_3 1_555 1_555
C29_3 H52_3 1_555 1_555
C29_3 H53_3 1_555 1_555
C29_3 H54_3 1_555 1_555
C27_3 H55_3 1_555 1_555
C54_3 H56_3 1_555 1_555
C54_3 H57_3 1_555 1_555
C55_3 H58_3 1_555 1_555
C55_3 H59_3 1_555 1_555
C55_3 H60_3 1_555 1_555
C58_3 H61_3 1_555 1_555
C58_3 H62_3 1_555 1_555
C58_3 H63_3 1_555 1_555
C56_3 H64_3 1_555 1_555
C57_3 H65_3 1_555 1_555
C57_3 H66_3 1_555 1_555
C57_3 H67_3 1_555 1_555
C25_3 H82_3 1_555 1_555
C25_3 H83_3 1_555 1_555
C26_3 H84_3 1_555 1_555
C26_3 H85_3 1_555 1_555
C26_3 H86_3 1_555 1_555
Cu6_2 O1_4 1_555 1_555
O5_4 Cu6_2 1_555 1_555
C27_4 O5_4 1_555 1_555
N1_4 C27_4 1_555 1_555
C28_4 N1_4 1_555 1_555
C29_4 N1_4 1_555 1_555
O12_4 Cu6_2 1_555 1_555
O15_4 Cu6_2 1_555 1_555
C28_4 H49_4 1_555 1_555
C28_4 H50_4 1_555 1_555
C28_4 H51_4 1_555 1_555
C29_4 H52_4 1_555 1_555
C29_4 H53_4 1_555 1_555
C29_4 H54_4 1_555 1_555
C27_4 H55_4 1_555 1_555
C25_4 C26_4 1_555 1_555
Cu4 O14_4 1_555 1_555
C30_4 C31_4 1_555 1_555
C31_4 H13_4 1_555 1_555
C32_4 C31_4 1_555 1_555
C34_4 C33_4 1_555 1_555
C35_4 C30_4 1_555 1_555
C36_4 C35_4 1_555 1_555
H14_4 C36_4 1_555 1_555
C37_4 C36_4 1_555 1_555
C38_4 C37_4 1_555 1_555
H15_4 C38_4 1_555 1_555
C39_4 C34_4 1_555 1_555
H16_4 C39_4 1_555 1_555
C40_4 C30_4 1_555 1_555
C41_4 C40_4 1_555 1_555
H17_4 C41_4 1_555 1_555
C42_4 C41_4 1_555 1_555
H18_4 C42_4 1_555 1_555
C43_4 C42_4 1_555 1_555
C44_4 C43_4 1_555 1_555
H19_4 C44_4 1_555 1_555
C45_4 C40_4 1_555 1_555
H20_4 C45_4 1_555 1_555
O9 C53_4 1_555 1_555
O11_4 C53_4 1_555 1_555
C46_4 C37_4 1_555 1_555
C47_4 C46_4 1_555 1_555
H21_4 C47_4 1_555 1_555
C48_4 C47_4 1_555 1_555
H22_4 C48_4 1_555 1_555
C49_4 C48_4 1_555 1_555
C50_4 C49_4 1_555 1_555
H23_4 C50_4 1_555 1_555
C51_4 C46_4 1_555 1_555
H24_4 C51_4 1_555 1_555
C52_4 C43_4 1_555 1_555
C53_4 C49_4 1_555 1_555
O14_4 C52_4 1_555 1_555
C25_4 O6_4 1_555 1_555
C32_4 C33_4 1_555 1_555
C34_4 C35_4 1_555 1_555
C38_4 C39_4 1_555 1_555
C44_4 C45_4 1_555 1_555
C50_4 C51_4 1_555 1_555
C25_4 H82_4 1_555 1_555
C25_4 H83_4 1_555 1_555
C26_4 H84_4 1_555 1_555
C26_4 H85_4 1_555 1_555
C26_4 H86_4 1_555 1_555
C1_4 C2_4 1_555 1_555
C2_4 H1_4 1_555 1_555
C3_4 C2_4 1_555 1_555
C4_4 C3_4 1_555 1_555
C5_4 C4_4 1_555 1_555
C6_4 C1_4 1_555 1_555
C7_4 C6_4 1_555 1_555
H2_4 C7_4 1_555 1_555
C8_4 C7_4 1_555 1_555
C9_4 C8_4 1_555 1_555
H3_4 C9_4 1_555 1_555
C10_4 C5_4 1_555 1_555
H4_4 C10_4 1_555 1_555
C11_4 C1_4 1_555 1_555
C12_4 C11_4 1_555 1_555
H5_4 C12_4 1_555 1_555
C13_4 C12_4 1_555 1_555
H6_4 C13_4 1_555 1_555
C14_4 C13_4 1_555 1_555
C15_4 C14_4 1_555 1_555
H7_4 C15_4 1_555 1_555
C16_4 C11_4 1_555 1_555
H8_4 C16_4 1_555 1_555
O10_2 C24_4 1_555 1_555
O3_4 C24_4 1_555 1_555
C17_4 C8_4 1_555 1_555
C18_4 C17_4 1_555 1_555
H9_4 C18_4 1_555 1_555
C19_4 C18_4 1_555 1_555
H10_4 C19_4 1_555 1_555
C20_4 C19_4 1_555 1_555
C21_4 C20_4 1_555 1_555
H11_4 C21_4 1_555 1_555
C22_4 C17_4 1_555 1_555
H12_4 C22_4 1_555 1_555
C23_4 C14_4 1_555 1_555
C24_4 C20_4 1_555 1_555
O4_4 C23_4 1_555 1_555
Cu7_2 O4_4 1_555 1_555
C54_4 C55_4 1_555 1_555
C5_4 C6_4 1_555 1_555
C9_4 C10_4 1_555 1_555
C15_4 C16_4 1_555 1_555
C21_4 C22_4 1_555 1_555
C54_4 O18_4 1_555 1_555
C54_4 H56_4 1_555 1_555
C54_4 H57_4 1_555 1_555
C55_4 H58_4 1_555 1_555
C55_4 H59_4 1_555 1_555
C55_4 H60_4 1_555 1_555
Cu3 O7_4 1_555 1_555
O13_4 Cu3 1_555 1_555
O16_4 Cu3 1_555 1_555
O17_4 Cu3 1_555 1_555
C56_4 O17_4 1_555 1_555
N2_4 C56_4 1_555 1_555
C57_4 N2_4 1_555 1_555
C58_4 N2_4 1_555 1_555
C58_4 H61_4 1_555 1_555
C58_4 H62_4 1_555 1_555
C58_4 H63_4 1_555 1_555
C56_4 H64_4 1_555 1_555
C57_4 H65_4 1_555 1_555
C57_4 H66_4 1_555 1_555
C57_4 H67_4 1_555 1_555
Cu5_2 O1_5 1_555 1_555
C1_5 C2_5 1_555 1_555
C2_5 H1_5 1_555 1_555
C3_5 C2_5 1_555 1_555
C4_5 C3_5 1_555 1_555
C5_5 C4_5 1_555 1_555
C6_5 C1_5 1_555 1_555
C7_5 C6_5 1_555 1_555
H2_5 C7_5 1_555 1_555
C8_5 C7_5 1_555 1_555
C9_5 C8_5 1_555 1_555
H3_5 C9_5 1_555 1_555
C10_5 C5_5 1_555 1_555
H4_5 C10_5 1_555 1_555
C11_5 C1_5 1_555 1_555
C12_5 C11_5 1_555 1_555
H5_5 C12_5 1_555 1_555
C13_5 C12_5 1_555 1_555
H6_5 C13_5 1_555 1_555
C14_5 C13_5 1_555 1_555
C15_5 C14_5 1_555 1_555
H7_5 C15_5 1_555 1_555
C16_5 C11_5 1_555 1_555
H8_5 C16_5 1_555 1_555
O1_5 C23_5 1_555 1_555
O2_3 C24_5 1_555 1_555
O13_3 C24_5 1_555 1_555
C17_5 C8_5 1_555 1_555
C18_5 C17_5 1_555 1_555
H9_5 C18_5 1_555 1_555
C19_5 C18_5 1_555 1_555
H10_5 C19_5 1_555 1_555
C20_5 C19_5 1_555 1_555
C21_5 C20_5 1_555 1_555
H11_5 C21_5 1_555 1_555
C22_5 C17_5 1_555 1_555
H12_5 C22_5 1_555 1_555
C23_5 C14_5 1_555 1_555
C24_5 C20_5 1_555 1_555
C25_5 C26_5 1_555 1_555
O15_2 C23_5 1_555 1_555
O5_5 Cu5_2 1_555 1_555
O6_5 C3_5 1_555 1_555
C27_5 O5_5 1_555 1_555
N1_5 C27_5 1_555 1_555
C28_5 N1_5 1_555 1_555
C29_5 N1_5 1_555 1_555
Cu4_2 O2_3 1_555 1_555
C30_5 C31_5 1_555 1_555
C31_5 H13_5 1_555 1_555
C32_5 C31_5 1_555 1_555
C33_5 C4_5 1_555 1_555
C34_5 C33_5 1_555 1_555
C35_5 C30_5 1_555 1_555
C36_5 C35_5 1_555 1_555
H14_5 C36_5 1_555 1_555
C37_5 C36_5 1_555 1_555
C38_5 C37_5 1_555 1_555
H15_5 C38_5 1_555 1_555
C39_5 C34_5 1_555 1_555
H16_5 C39_5 1_555 1_555
C40_5 C30_5 1_555 1_555
C41_5 C40_5 1_555 1_555
H17_5 C41_5 1_555 1_555
C42_5 C41_5 1_555 1_555
H18_5 C42_5 1_555 1_555
C43_5 C42_5 1_555 1_555
C44_5 C43_5 1_555 1_555
H19_5 C44_5 1_555 1_555
C45_5 C40_5 1_555 1_555
H20_5 C45_5 1_555 1_555
O8_3 C53_5 1_555 1_555
O9_3 Cu5_2 1_555 1_555
O12_4 C53_5 1_555 1_555
C46_5 C37_5 1_555 1_555
C47_5 C46_5 1_555 1_555
H21_5 C47_5 1_555 1_555
C48_5 C47_5 1_555 1_555
H22_5 C48_5 1_555 1_555
C49_5 C48_5 1_555 1_555
C50_5 C49_5 1_555 1_555
H23_5 C50_5 1_555 1_555
C51_5 C46_5 1_555 1_555
H24_5 C51_5 1_555 1_555
C52_5 C43_5 1_555 1_555
C53_5 C49_5 1_555 1_555
C54_5 C55_5 1_555 1_555
O16_2 C52_5 1_555 1_555
O18_5 C32_5 1_555 1_555
C5_5 C6_5 1_555 1_555
C9_5 C10_5 1_555 1_555
C15_5 C16_5 1_555 1_555
C21_5 C22_5 1_555 1_555
C25_5 O6_5 1_555 1_555
C32_5 C33_5 1_555 1_555
C34_5 C35_5 1_555 1_555
C38_5 C39_5 1_555 1_555
C44_5 C45_5 1_555 1_555
C50_5 C51_5 1_555 1_555
C54_5 O18_5 1_555 1_555
C28_5 H49_5 1_555 1_555
C28_5 H50_5 1_555 1_555
C28_5 H51_5 1_555 1_555
C29_5 H52_5 1_555 1_555
C29_5 H53_5 1_555 1_555
C29_5 H54_5 1_555 1_555
C27_5 H55_5 1_555 1_555
C54_5 H56_5 1_555 1_555
C54_5 H57_5 1_555 1_555
C55_5 H58_5 1_555 1_555
C55_5 H59_5 1_555 1_555
C55_5 H60_5 1_555 1_555
C25_5 H82_5 1_555 1_555
C25_5 H83_5 1_555 1_555
C26_5 H84_5 1_555 1_555
C26_5 H85_5 1_555 1_555
C26_5 H86_5 1_555 1_555
Cu8_2 O7_5 1_555 1_555
O17_5 Cu8_2 1_555 1_555
C56_5 O17_5 1_555 1_555
N2_5 C56_5 1_555 1_555
C57_5 N2_5 1_555 1_555
C58_5 N2_5 1_555 1_555
C58_5 H61_5 1_555 1_555
C58_5 H62_5 1_555 1_555
C58_5 H63_5 1_555 1_555
C56_5 H64_5 1_555 1_555
C57_5 H65_5 1_555 1_555
C57_5 H66_5 1_555 1_555
C57_5 H67_5 1_555 1_555
Cu5 O1_6 1_555 1_555
O5_6 Cu5 1_555 1_555
C27_6 O5_6 1_555 1_555
N1_6 C27_6 1_555 1_555
C28_6 N1_6 1_555 1_555
C29_6 N1_6 1_555 1_555
C28_6 H49_6 1_555 1_555
C28_6 H50_6 1_555 1_555
C28_6 H51_6 1_555 1_555
C29_6 H52_6 1_555 1_555
C29_6 H53_6 1_555 1_555
C29_6 H54_6 1_555 1_555
C27_6 H55_6 1_555 1_555
C1_6 C2_6 1_555 1_555
C2_6 H1_6 1_555 1_555
C3_6 C2_6 1_555 1_555
C4_6 C3_6 1_555 1_555
C5_6 C4_6 1_555 1_555
C6_6 C1_6 1_555 1_555
C7_6 C6_6 1_555 1_555
H2_6 C7_6 1_555 1_555
C8_6 C7_6 1_555 1_555
C9_6 C8_6 1_555 1_555
H3_6 C9_6 1_555 1_555
C10_6 C5_6 1_555 1_555
H4_6 C10_6 1_555 1_555
C11_6 C1_6 1_555 1_555
C12_6 C11_6 1_555 1_555
H5_6 C12_6 1_555 1_555
C13_6 C12_6 1_555 1_555
H6_6 C13_6 1_555 1_555
C14_6 C13_6 1_555 1_555
C15_6 C14_6 1_555 1_555
H7_6 C15_6 1_555 1_555
C16_6 C11_6 1_555 1_555
H8_6 C16_6 1_555 1_555
O2_4 C24_6 1_555 1_555
O13_4 C24_6 1_555 1_555
C17_6 C8_6 1_555 1_555
C18_6 C17_6 1_555 1_555
H9_6 C18_6 1_555 1_555
C19_6 C18_6 1_555 1_555
H10_6 C19_6 1_555 1_555
C20_6 C19_6 1_555 1_555
C21_6 C20_6 1_555 1_555
H11_6 C21_6 1_555 1_555
C22_6 C17_6 1_555 1_555
H12_6 C22_6 1_555 1_555
C23_6 C14_6 1_555 1_555
C24_6 C20_6 1_555 1_555
C25_6 C26_6 1_555 1_555
O15 C23_6 1_555 1_555
O6_6 C3_6 1_555 1_555
Cu8 O7_6 1_555 1_555
Cu7 O8_4 1_555 1_555
C30_6 C31_6 1_555 1_555
C31_6 H13_6 1_555 1_555
C32_6 C31_6 1_555 1_555
C33_6 C4_6 1_555 1_555
C34_6 C33_6 1_555 1_555
C35_6 C30_6 1_555 1_555
C36_6 C35_6 1_555 1_555
H14_6 C36_6 1_555 1_555
C37_6 C36_6 1_555 1_555
C38_6 C37_6 1_555 1_555
H15_6 C38_6 1_555 1_555
C39_6 C34_6 1_555 1_555
H16_6 C39_6 1_555 1_555
C40_6 C30_6 1_555 1_555
C41_6 C40_6 1_555 1_555
H17_6 C41_6 1_555 1_555
C42_6 C41_6 1_555 1_555
H18_6 C42_6 1_555 1_555
C43_6 C42_6 1_555 1_555
C44_6 C43_6 1_555 1_555
H19_6 C44_6 1_555 1_555
C45_6 C40_6 1_555 1_555
H20_6 C45_6 1_555 1_555
O7_6 C52_6 1_555 1_555
O8_4 C53_6 1_555 1_555
O10_4 Cu8 1_555 1_555
O12_3 C53_6 1_555 1_555
C46_6 C37_6 1_555 1_555
C47_6 C46_6 1_555 1_555
H21_6 C47_6 1_555 1_555
C48_6 C47_6 1_555 1_555
H22_6 C48_6 1_555 1_555
C49_6 C48_6 1_555 1_555
C50_6 C49_6 1_555 1_555
H23_6 C50_6 1_555 1_555
C51_6 C46_6 1_555 1_555
H24_6 C51_6 1_555 1_555
C52_6 C43_6 1_555 1_555
C53_6 C49_6 1_555 1_555
C54_6 C55_6 1_555 1_555
O16 C52_6 1_555 1_555
O17_6 Cu8 1_555 1_555
O18_6 C32_6 1_555 1_555
C56_6 O17_6 1_555 1_555
N2_6 C56_6 1_555 1_555
C57_6 N2_6 1_555 1_555
C58_6 N2_6 1_555 1_555
C5_6 C6_6 1_555 1_555
C9_6 C10_6 1_555 1_555
C15_6 C16_6 1_555 1_555
C21_6 C22_6 1_555 1_555
C25_6 O6_6 1_555 1_555
C32_6 C33_6 1_555 1_555
C34_6 C35_6 1_555 1_555
C38_6 C39_6 1_555 1_555
C44_6 C45_6 1_555 1_555
C50_6 C51_6 1_555 1_555
C54_6 O18_6 1_555 1_555
C54_6 H56_6 1_555 1_555
C54_6 H57_6 1_555 1_555
C55_6 H58_6 1_555 1_555
C55_6 H59_6 1_555 1_555
C55_6 H60_6 1_555 1_555
C58_6 H61_6 1_555 1_555
C58_6 H62_6 1_555 1_555
C58_6 H63_6 1_555 1_555
C56_6 H64_6 1_555 1_555
C57_6 H65_6 1_555 1_555
C57_6 H66_6 1_555 1_555
C57_6 H67_6 1_555 1_555
C25_6 H82_6 1_555 1_555
C25_6 H83_6 1_555 1_555
C26_6 H84_6 1_555 1_555
C26_6 H85_6 1_555 1_555
C26_6 H86_6 1_555 1_555
Cu4 O7_7 1_555 1_555
O17_7 Cu4 1_555 1_555
C56_7 O17_7 1_555 1_555
N2_7 C56_7 1_555 1_555
C57_7 N2_7 1_555 1_555
C58_7 N2_7 1_555 1_555
C58_7 H61_7 1_555 1_555
C58_7 H62_7 1_555 1_555
C58_7 H63_7 1_555 1_555
C56_7 H64_7 1_555 1_555
C57_7 H65_7 1_555 1_555
C57_7 H66_7 1_555 1_555
C57_7 H67_7 1_555 1_555
C25_7 C26_7 1_555 1_555
C30_7 C31_7 1_555 1_555
C31_7 H13_7 1_555 1_555
C32_7 C31_7 1_555 1_555
C34_7 C33_7 1_555 1_555
C35_7 C30_7 1_555 1_555
C36_7 C35_7 1_555 1_555
H14_7 C36_7 1_555 1_555
C37_7 C36_7 1_555 1_555
C38_7 C37_7 1_555 1_555
H15_7 C38_7 1_555 1_555
C39_7 C34_7 1_555 1_555
H16_7 C39_7 1_555 1_555
C40_7 C30_7 1_555 1_555
C41_7 C40_7 1_555 1_555
H17_7 C41_7 1_555 1_555
C42_7 C41_7 1_555 1_555
H18_7 C42_7 1_555 1_555
C43_7 C42_7 1_555 1_555
C44_7 C43_7 1_555 1_555
H19_7 C44_7 1_555 1_555
C45_7 C40_7 1_555 1_555
H20_7 C45_7 1_555 1_555
O9_4 C53_7 1_555 1_555
O12 C53_7 1_555 1_555
C46_7 C37_7 1_555 1_555
C47_7 C46_7 1_555 1_555
H21_7 C47_7 1_555 1_555
C48_7 C47_7 1_555 1_555
H22_7 C48_7 1_555 1_555
C49_7 C48_7 1_555 1_555
C50_7 C49_7 1_555 1_555
H23_7 C50_7 1_555 1_555
C51_7 C46_7 1_555 1_555
H24_7 C51_7 1_555 1_555
C52_7 C43_7 1_555 1_555
C53_7 C49_7 1_555 1_555
O16_4 C52_7 1_555 1_555
C25_7 O6_7 1_555 1_555
C32_7 C33_7 1_555 1_555
C34_7 C35_7 1_555 1_555
C38_7 C39_7 1_555 1_555
C44_7 C45_7 1_555 1_555
C50_7 C51_7 1_555 1_555
C25_7 H82_7 1_555 1_555
C25_7 H83_7 1_555 1_555
C26_7 H84_7 1_555 1_555
C26_7 H85_7 1_555 1_555
C26_7 H86_7 1_555 1_555
C1_7 C2_7 1_555 1_555
C2_7 H1_7 1_555 1_555
C3_7 C2_7 1_555 1_555
C4_7 C3_7 1_555 1_555
C5_7 C4_7 1_555 1_555
C6_7 C1_7 1_555 1_555
C7_7 C6_7 1_555 1_555
H2_7 C7_7 1_555 1_555
C8_7 C7_7 1_555 1_555
C9_7 C8_7 1_555 1_555
H3_7 C9_7 1_555 1_555
C10_7 C5_7 1_555 1_555
H4_7 C10_7 1_555 1_555
C11_7 C1_7 1_555 1_555
C12_7 C11_7 1_555 1_555
H5_7 C12_7 1_555 1_555
C13_7 C12_7 1_555 1_555
H6_7 C13_7 1_555 1_555
C14_7 C13_7 1_555 1_555
C15_7 C14_7 1_555 1_555
H7_7 C15_7 1_555 1_555
C16_7 C11_7 1_555 1_555
H8_7 C16_7 1_555 1_555
O10_3 C24_7 1_555 1_555
O13_2 C24_7 1_555 1_555
C17_7 C8_7 1_555 1_555
C18_7 C17_7 1_555 1_555
H9_7 C18_7 1_555 1_555
C19_7 C18_7 1_555 1_555
H10_7 C19_7 1_555 1_555
C20_7 C19_7 1_555 1_555
C21_7 C20_7 1_555 1_555
H11_7 C21_7 1_555 1_555
C22_7 C17_7 1_555 1_555
H12_7 C22_7 1_555 1_555
C23_7 C14_7 1_555 1_555
C24_7 C20_7 1_555 1_555
O15_4 C23_7 1_555 1_555
C54_7 C55_7 1_555 1_555
C5_7 C6_7 1_555 1_555
C9_7 C10_7 1_555 1_555
C15_7 C16_7 1_555 1_555
C21_7 C22_7 1_555 1_555
C54_7 O18_7 1_555 1_555
C54_7 H56_7 1_555 1_555
C54_7 H57_7 1_555 1_555
C55_7 H58_7 1_555 1_555
C55_7 H59_7 1_555 1_555
C55_7 H60_7 1_555 1_555
Cu7_2 O1_7 1_555 1_555
O5_7 Cu7_2 1_555 1_555
C27_7 O5_7 1_555 1_555
N1_7 C27_7 1_555 1_555
C28_7 N1_7 1_555 1_555
C29_7 N1_7 1_555 1_555
C28_7 H49_7 1_555 1_555
C28_7 H50_7 1_555 1_555
C28_7 H51_7 1_555 1_555
C29_7 H52_7 1_555 1_555
C29_7 H53_7 1_555 1_555
C29_7 H54_7 1_555 1_555
C27_7 H55_7 1_555 1_555
Cu7 O1_8 1_555 1_555
C1_8 C2_8 1_555 1_555
C2_8 H1_8 1_555 1_555
C3_8 C2_8 1_555 1_555
C4_8 C3_8 1_555 1_555
C5_8 C4_8 1_555 1_555
C6_8 C1_8 1_555 1_555
C7_8 C6_8 1_555 1_555
H2_8 C7_8 1_555 1_555
C8_8 C7_8 1_555 1_555
C9_8 C8_8 1_555 1_555
H3_8 C9_8 1_555 1_555
C10_8 C5_8 1_555 1_555
H4_8 C10_8 1_555 1_555
C11_8 C1_8 1_555 1_555
C12_8 C11_8 1_555 1_555
H5_8 C12_8 1_555 1_555
C13_8 C12_8 1_555 1_555
H6_8 C13_8 1_555 1_555
C14_8 C13_8 1_555 1_555
C15_8 C14_8 1_555 1_555
H7_8 C15_8 1_555 1_555
C16_8 C11_8 1_555 1_555
H8_8 C16_8 1_555 1_555
O1_8 C23_8 1_555 1_555
O10_4 C24_8 1_555 1_555
O13 C24_8 1_555 1_555
C17_8 C8_8 1_555 1_555
C18_8 C17_8 1_555 1_555
H9_8 C18_8 1_555 1_555
C19_8 C18_8 1_555 1_555
H10_8 C19_8 1_555 1_555
C20_8 C19_8 1_555 1_555
C21_8 C20_8 1_555 1_555
H11_8 C21_8 1_555 1_555
C22_8 C17_8 1_555 1_555
H12_8 C22_8 1_555 1_555
C23_8 C14_8 1_555 1_555
C24_8 C20_8 1_555 1_555
C25_8 C26_8 1_555 1_555
O15_3 C23_8 1_555 1_555
O5_8 Cu7 1_555 1_555
O6_8 C3_8 1_555 1_555
C27_8 O5_8 1_555 1_555
N1_8 C27_8 1_555 1_555
C28_8 N1_8 1_555 1_555
C29_8 N1_8 1_555 1_555
Cu4_2 O7_8 1_555 1_555
C30_8 C31_8 1_555 1_555
C31_8 H13_8 1_555 1_555
C32_8 C31_8 1_555 1_555
C33_8 C4_8 1_555 1_555
C34_8 C33_8 1_555 1_555
C35_8 C30_8 1_555 1_555
C36_8 C35_8 1_555 1_555
H14_8 C36_8 1_555 1_555
C37_8 C36_8 1_555 1_555
C38_8 C37_8 1_555 1_555
H15_8 C38_8 1_555 1_555
C39_8 C34_8 1_555 1_555
H16_8 C39_8 1_555 1_555
C40_8 C30_8 1_555 1_555
C41_8 C40_8 1_555 1_555
H17_8 C41_8 1_555 1_555
C42_8 C41_8 1_555 1_555
H18_8 C42_8 1_555 1_555
C43_8 C42_8 1_555 1_555
C44_8 C43_8 1_555 1_555
H19_8 C44_8 1_555 1_555
C45_8 C40_8 1_555 1_555
H20_8 C45_8 1_555 1_555
O7_8 C52_8 1_555 1_555
O9_3 C53_8 1_555 1_555
O12_2 C53_8 1_555 1_555
C46_8 C37_8 1_555 1_555
C47_8 C46_8 1_555 1_555
H21_8 C47_8 1_555 1_555
C48_8 C47_8 1_555 1_555
H22_8 C48_8 1_555 1_555
C49_8 C48_8 1_555 1_555
C50_8 C49_8 1_555 1_555
H23_8 C50_8 1_555 1_555
C51_8 C46_8 1_555 1_555
H24_8 C51_8 1_555 1_555
C52_8 C43_8 1_555 1_555
C53_8 C49_8 1_555 1_555
C54_8 C55_8 1_555 1_555
O16_3 C52_8 1_555 1_555
O17_8 Cu4_2 1_555 1_555
O18_8 C32_8 1_555 1_555
C56_8 O17_8 1_555 1_555
N2_8 C56_8 1_555 1_555
C57_8 N2_8 1_555 1_555
C58_8 N2_8 1_555 1_555
C5_8 C6_8 1_555 1_555
C9_8 C10_8 1_555 1_555
C15_8 C16_8 1_555 1_555
C21_8 C22_8 1_555 1_555
C25_8 O6_8 1_555 1_555
C32_8 C33_8 1_555 1_555
C34_8 C35_8 1_555 1_555
C38_8 C39_8 1_555 1_555
C44_8 C45_8 1_555 1_555
C50_8 C51_8 1_555 1_555
C54_8 O18_8 1_555 1_555
C28_8 H49_8 1_555 1_555
C28_8 H50_8 1_555 1_555
C28_8 H51_8 1_555 1_555
C29_8 H52_8 1_555 1_555
C29_8 H53_8 1_555 1_555
C29_8 H54_8 1_555 1_555
C27_8 H55_8 1_555 1_555
C54_8 H56_8 1_555 1_555
C54_8 H57_8 1_555 1_555
C55_8 H58_8 1_555 1_555
C55_8 H59_8 1_555 1_555
C55_8 H60_8 1_555 1_555
C58_8 H61_8 1_555 1_555
C58_8 H62_8 1_555 1_555
C58_8 H63_8 1_555 1_555
C56_8 H64_8 1_555 1_555
C57_8 H65_8 1_555 1_555
C57_8 H66_8 1_555 1_555
C57_8 H67_8 1_555 1_555
C25_8 H82_8 1_555 1_555
C25_8 H83_8 1_555 1_555
C26_8 H84_8 1_555 1_555
C26_8 H85_8 1_555 1_555
C26_8 H86_8 1_555 1_555
Cu9 O19 1_555 1_555
O26 Cu9 1_555 1_555
O19 H72 1_555 1_555
Cu9_2 O19_2 1_555 1_555
O29 Cu9_2 1_555 1_555
Cu9_3 O19_3 1_555 1_555
C65 C59 1_555 1_555
C69 C68 1_555 1_555
C70 C65 1_555 1_555
C71 C70 1_555 1_555
H30 C71 1_555 1_555
C72 C71 1_555 1_555
C73 C72 1_555 1_555
H31 C73 1_555 1_555
C74 C69 1_555 1_555
H32 C74 1_555 1_555
C75 C72 1_555 1_555
C76 C75 1_555 1_555
H33 C76 1_555 1_555
C77 C76 1_555 1_555
H34 C77 1_555 1_555
C78 C77 1_555 1_555
C79 C78 1_555 1_555
H35 C79 1_555 1_555
C80 C75 1_555 1_555
H36 C80 1_555 1_555
C81 C62 1_555 1_555
C84 C78 1_555 1_555
O22 C84 1_555 1_555
O23 C84 1_555 1_555
H39 C89 1_555 1_555
H40 C90 1_555 1_555
O28 Cu9_3 1_555 1_555
C69 C70 1_555 1_555
C73 C74 1_555 1_555
C79 C80 1_555 1_555
C89 C90 1_555 1_555
O23 H70 1_555 1_555
Cu9_4 O19_4 1_555 1_555
H27 C63 1_555 1_555
H28 C64 1_555 1_555
O20 Cu9_4 1_555 1_555
C91 C85 1_555 1_555
C95 C94 1_555 1_555
C96 C91 1_555 1_555
C97 C96 1_555 1_555
H42 C97 1_555 1_555
C98 C97 1_555 1_555
C99 C98 1_555 1_555
H43 C99 1_555 1_555
C100 C95 1_555 1_555
H44 C100 1_555 1_555
C101 C98 1_555 1_555
C102 C101 1_555 1_555
H45 C102 1_555 1_555
C103 C102 1_555 1_555
H46 C103 1_555 1_555
C104 C103 1_555 1_555
C105 C104 1_555 1_555
H47 C105 1_555 1_555
C106 C101 1_555 1_555
H48 C106 1_555 1_555
C107 C88 1_555 1_555
C110 C104 1_555 1_555
O30 C110 1_555 1_555
O31 C110 1_555 1_555
C63 C64 1_555 1_555
C95 C96 1_555 1_555
C99 C100 1_555 1_555
C105 C106 1_555 1_555
O19_4 H71 1_555 1_555
O31 H79 1_555 1_555
H29 C66 1_555 1_555
C67 C66 1_555 1_555
C82 C83 1_555 1_555
O24 C67 1_555 1_555
C86 H37 1_555 1_555
C87 C86 1_555 1_555
H38 C87 1_555 1_555
C82 O24 1_555 1_555
C82 H69 1_555 1_555
C83 H73 1_555 1_555
C83 H74 1_555 1_555
C83 H75 1_555 1_555
C60 H25 1_555 1_555
C61 C60 1_555 1_555
H26 C61 1_555 1_555
H41 C92 1_555 1_555
C93 C92 1_555 1_555
C108 C109 1_555 1_555
O32 C93 1_555 1_555
C108 O32 1_555 1_555
C109 H76 1_555 1_555
C109 H77 1_555 1_555
C109 H78 1_555 1_555
C108 H81 1_555 1_555
O19 H71_2 1_555 1_555
O19_4 H72_2 1_555 1_555
C60_2 H25_2 1_555 1_555
C61_2 C60_2 1_555 1_555
H26_2 C61_2 1_555 1_555
Cu10_3 O21 1_555 1_555
H41_2 C92_2 1_555 1_555
C93_2 C92_2 1_555 1_555
C108_2 C109_2 1_555 1_555
O32_2 C93_2 1_555 1_555
C108_2 O32_2 1_555 1_555
C109_2 H76_2 1_555 1_555
C109_2 H77_2 1_555 1_555
C109_2 H78_2 1_555 1_555
C108_2 H81_2 1_555 1_555
H29_2 C66_2 1_555 1_555
C67_2 C66_2 1_555 1_555
C82_2 C83_2 1_555 1_555
O24_2 C67_2 1_555 1_555
Cu10_2 O27 1_555 1_555
C86_2 H37_2 1_555 1_555
C87_2 C86_2 1_555 1_555
H38_2 C87_2 1_555 1_555
C82_2 O24_2 1_555 1_555
C82_2 H69_2 1_555 1_555
C83_2 H73_2 1_555 1_555
C83_2 H74_2 1_555 1_555
C83_2 H75_2 1_555 1_555
Cu10 O19_5 1_555 1_555
H27_2 C63_2 1_555 1_555
H28_2 C64_2 1_555 1_555
O20_2 Cu10 1_555 1_555
C91_2 C85_2 1_555 1_555
C95_2 C94_2 1_555 1_555
C96_2 C91_2 1_555 1_555
C97_2 C96_2 1_555 1_555
H42_2 C97_2 1_555 1_555
C98_2 C97_2 1_555 1_555
C99_2 C98_2 1_555 1_555
H43_2 C99_2 1_555 1_555
C100_2 C95_2 1_555 1_555
H44_2 C100_2 1_555 1_555
C101_2 C98_2 1_555 1_555
C102_2 C101_2 1_555 1_555
H45_2 C102_2 1_555 1_555
C103_2 C102_2 1_555 1_555
H46_2 C103_2 1_555 1_555
C104_2 C103_2 1_555 1_555
C105_2 C104_2 1_555 1_555
H47_2 C105_2 1_555 1_555
C106_2 C101_2 1_555 1_555
H48_2 C106_2 1_555 1_555
C107_2 C88_2 1_555 1_555
C110_2 C104_2 1_555 1_555
O30_2 C110_2 1_555 1_555
O31_2 C110_2 1_555 1_555
C63_2 C64_2 1_555 1_555
C95_2 C96_2 1_555 1_555
C99_2 C100_2 1_555 1_555
C105_2 C106_2 1_555 1_555
O19_5 H71_3 1_555 1_555
O31_2 H79_2 1_555 1_555
Cu10_2 O19_6 1_555 1_555
Cu10_3 O19_7 1_555 1_555
C65_2 C59_2 1_555 1_555
C69_2 C68_2 1_555 1_555
C70_2 C65_2 1_555 1_555
C71_2 C70_2 1_555 1_555
H30_2 C71_2 1_555 1_555
C72_2 C71_2 1_555 1_555
C73_2 C72_2 1_555 1_555
H31_2 C73_2 1_555 1_555
C74_2 C69_2 1_555 1_555
H32_2 C74_2 1_555 1_555
C75_2 C72_2 1_555 1_555
C76_2 C75_2 1_555 1_555
H33_2 C76_2 1_555 1_555
C77_2 C76_2 1_555 1_555
H34_2 C77_2 1_555 1_555
C78_2 C77_2 1_555 1_555
C79_2 C78_2 1_555 1_555
H35_2 C79_2 1_555 1_555
C80_2 C75_2 1_555 1_555
H36_2 C80_2 1_555 1_555
C81_2 C62_2 1_555 1_555
C84_2 C78_2 1_555 1_555
O22_2 C84_2 1_555 1_555
O23_2 C84_2 1_555 1_555
Cu10_4 O25 1_555 1_555
H39_2 C89_2 1_555 1_555
H40_2 C90_2 1_555 1_555
C69_2 C70_2 1_555 1_555
C73_2 C74_2 1_555 1_555
C79_2 C80_2 1_555 1_555
C89_2 C90_2 1_555 1_555
O23_2 H70_2 1_555 1_555
Cu10_4 O19_8 1_555 1_555
O19_8 H72_3 1_555 1_555
O19_5 H72_4 1_555 1_555
O19_8 H71_4 1_555 1_555
Cu11 O25_2 1_555 1_555
Cu12 O27_2 1_555 1_555
C85_3 C86_3 1_555 1_555
C86_3 H37_3 1_555 1_555
C87_3 C86_3 1_555 1_555
H38_3 C87_3 1_555 1_555
C88_3 C87_3 1_555 1_555
C89_3 C88_3 1_555 1_555
H39_3 C89_3 1_555 1_555
C90_3 C85_3 1_555 1_555
H40_3 C90_3 1_555 1_555
C91_3 C85_3 1_555 1_555
C92_3 C91_3 1_555 1_555
H41_3 C92_3 1_555 1_555
C93_3 C92_3 1_555 1_555
C95_3 C94_3 1_555 1_555
C96_3 C91_3 1_555 1_555
C97_3 C96_3 1_555 1_555
H42_3 C97_3 1_555 1_555
C98_3 C97_3 1_555 1_555
C99_3 C98_3 1_555 1_555
H43_3 C99_3 1_555 1_555
C100_3 C95_3 1_555 1_555
C101_3 C98_3 1_555 1_555
C102_3 C101_3 1_555 1_555
H45_3 C102_3 1_555 1_555
C103_3 C102_3 1_555 1_555
H46_3 C103_3 1_555 1_555
C104_3 C103_3 1_555 1_555
C105_3 C104_3 1_555 1_555
H47_3 C105_3 1_555 1_555
C106_3 C101_3 1_555 1_555
H48_3 C106_3 1_555 1_555
C107_3 C88_3 1_555 1_555
C108_3 C109_3 1_555 1_555
C110_3 C104_3 1_555 1_555
O25_2 C107_3 1_555 1_555
O27_2 C107_3 1_555 1_555
O30_3 C110_3 1_555 1_555
O31_3 C110_3 1_555 1_555
O32_3 C93_3 1_555 1_555
C89_3 C90_3 1_555 1_555
C93_3 C94_3 1_555 1_555
C95_3 C96_3 1_555 1_555
C99_3 C100_3 1_555 1_555
C105_3 C106_3 1_555 1_555
C108_3 O32_3 1_555 1_555
C109_3 H77_3 1_555 1_555
C109_3 H78_3 1_555 1_555
O31_3 H79_3 1_555 1_555
C108_3 H80_3 1_555 1_555
C108_3 H81_3 1_555 1_555
Cu11 O19_9 1_555 1_555
C59_3 C60_3 1_555 1_555
C60_3 H25_3 1_555 1_555
C61_3 C60_3 1_555 1_555
H26_3 C61_3 1_555 1_555
C62_3 C61_3 1_555 1_555
C63_3 C62_3 1_555 1_555
H27_3 C63_3 1_555 1_555
C64_3 C59_3 1_555 1_555
H28_3 C64_3 1_555 1_555
C65_3 C59_3 1_555 1_555
C66_3 C65_3 1_555 1_555
H29_3 C66_3 1_555 1_555
C67_3 C66_3 1_555 1_555
C68_3 C67_3 1_555 1_555
C69_3 C68_3 1_555 1_555
C70_3 C65_3 1_555 1_555
C71_3 C70_3 1_555 1_555
H30_3 C71_3 1_555 1_555
C72_3 C71_3 1_555 1_555
C73_3 C72_3 1_555 1_555
H31_3 C73_3 1_555 1_555
C74_3 C69_3 1_555 1_555
C75_3 C72_3 1_555 1_555
C76_3 C75_3 1_555 1_555
H33_3 C76_3 1_555 1_555
C77_3 C76_3 1_555 1_555
H34_3 C77_3 1_555 1_555
C78_3 C77_3 1_555 1_555
C79_3 C78_3 1_555 1_555
H35_3 C79_3 1_555 1_555
C80_3 C75_3 1_555 1_555
H36_3 C80_3 1_555 1_555
C81_3 C62_3 1_555 1_555
C82_3 C83_3 1_555 1_555
C84_3 C78_3 1_555 1_555
O20_3 Cu11 1_555 1_555
O21_2 C81_3 1_555 1_555
O22_3 C84_3 1_555 1_555
O23_3 C84_3 1_555 1_555
O24_3 C67_3 1_555 1_555
Cu12 O21_2 1_555 1_555
O28_2 Cu11 1_555 1_555
O29_2 Cu11 1_555 1_555
C63_3 C64_3 1_555 1_555
C69_3 C70_3 1_555 1_555
C73_3 C74_3 1_555 1_555
C79_3 C80_3 1_555 1_555
C81_3 O20_3 1_555 1_555
C82_3 O24_3 1_555 1_555
C82_3 H68_3 1_555 1_555
C82_3 H69_3 1_555 1_555
O23_3 H70_3 1_555 1_555
C83_3 H74_3 1_555 1_555
C83_3 H75_3 1_555 1_555
Cu12 O19_10 1_555 1_555
C59_4 C60_4 1_555 1_555
C60_4 H25_4 1_555 1_555
C61_4 C60_4 1_555 1_555
H26_4 C61_4 1_555 1_555
C62_4 C61_4 1_555 1_555
C63_4 C62_4 1_555 1_555
H27_4 C63_4 1_555 1_555
C64_4 C59_4 1_555 1_555
H28_4 C64_4 1_555 1_555
C65_4 C59_4 1_555 1_555
C66_4 C65_4 1_555 1_555
H29_4 C66_4 1_555 1_555
C67_4 C66_4 1_555 1_555
C68_4 C67_4 1_555 1_555
C69_4 C68_4 1_555 1_555
C70_4 C65_4 1_555 1_555
C71_4 C70_4 1_555 1_555
H30_4 C71_4 1_555 1_555
C72_4 C71_4 1_555 1_555
C73_4 C72_4 1_555 1_555
H31_4 C73_4 1_555 1_555
C74_4 C69_4 1_555 1_555
C75_4 C72_4 1_555 1_555
C76_4 C75_4 1_555 1_555
H33_4 C76_4 1_555 1_555
C77_4 C76_4 1_555 1_555
H34_4 C77_4 1_555 1_555
C78_4 C77_4 1_555 1_555
C79_4 C78_4 1_555 1_555
H35_4 C79_4 1_555 1_555
C80_4 C75_4 1_555 1_555
H36_4 C80_4 1_555 1_555
C81_4 C62_4 1_555 1_555
C82_4 C83_4 1_555 1_555
C84_4 C78_4 1_555 1_555
O20_4 Cu12 1_555 1_555
O28_2 C81_4 1_555 1_555
O22_4 C84_4 1_555 1_555
O23_4 C84_4 1_555 1_555
O24_4 C67_4 1_555 1_555
O26_2 Cu12 1_555 1_555
C63_4 C64_4 1_555 1_555
C69_4 C70_4 1_555 1_555
C73_4 C74_4 1_555 1_555
C79_4 C80_4 1_555 1_555
C81_4 O20_4 1_555 1_555
C82_4 O24_4 1_555 1_555
C82_4 H68_4 1_555 1_555
C82_4 H69_4 1_555 1_555
O23_4 H70_4 1_555 1_555
C83_4 H74_4 1_555 1_555
C83_4 H75_4 1_555 1_555
C85_4 C86_4 1_555 1_555
C86_4 H37_4 1_555 1_555
C87_4 C86_4 1_555 1_555
H38_4 C87_4 1_555 1_555
C88_4 C87_4 1_555 1_555
C89_4 C88_4 1_555 1_555
H39_4 C89_4 1_555 1_555
C90_4 C85_4 1_555 1_555
H40_4 C90_4 1_555 1_555
C91_4 C85_4 1_555 1_555
C92_4 C91_4 1_555 1_555
H41_4 C92_4 1_555 1_555
C93_4 C92_4 1_555 1_555
C95_4 C94_4 1_555 1_555
C96_4 C91_4 1_555 1_555
C97_4 C96_4 1_555 1_555
H42_4 C97_4 1_555 1_555
C98_4 C97_4 1_555 1_555
C99_4 C98_4 1_555 1_555
H43_4 C99_4 1_555 1_555
C100_4 C95_4 1_555 1_555
C101_4 C98_4 1_555 1_555
C102_4 C101_4 1_555 1_555
H45_4 C102_4 1_555 1_555
C103_4 C102_4 1_555 1_555
H46_4 C103_4 1_555 1_555
C104_4 C103_4 1_555 1_555
C105_4 C104_4 1_555 1_555
H47_4 C105_4 1_555 1_555
C106_4 C101_4 1_555 1_555
H48_4 C106_4 1_555 1_555
C107_4 C88_4 1_555 1_555
C108_4 C109_4 1_555 1_555
C110_4 C104_4 1_555 1_555
O26_2 C107_4 1_555 1_555
O29_2 C107_4 1_555 1_555
O30_4 C110_4 1_555 1_555
O31_4 C110_4 1_555 1_555
O32_4 C93_4 1_555 1_555
C89_4 C90_4 1_555 1_555
C93_4 C94_4 1_555 1_555
C95_4 C96_4 1_555 1_555
C99_4 C100_4 1_555 1_555
C105_4 C106_4 1_555 1_555
C108_4 O32_4 1_555 1_555
C109_4 H77_4 1_555 1_555
C109_4 H78_4 1_555 1_555
O31_4 H79_4 1_555 1_555
C108_4 H80_4 1_555 1_555
C108_4 H81_4 1_555 1_555
Cu9_5 O19_11 1_555 1_555
H27_5 C63_5 1_555 1_555
H28_5 C64_5 1_555 1_555
H29_5 C66_5 1_555 1_555
C67_5 C66_5 1_555 1_555
C82_5 C83_5 1_555 1_555
O20_5 Cu9_5 1_555 1_555
O24_5 C67_5 1_555 1_555
O29_3 Cu9_5 1_555 1_555
C63_5 C64_5 1_555 1_555
C82_5 O24_5 1_555 1_555
C82_5 H69_5 1_555 1_555
O19_11 H71_5 1_555 1_555
C83_5 H74_5 1_555 1_555
C83_5 H75_5 1_555 1_555
Cu10_5 O27_3 1_555 1_555
C85_5 C86_5 1_555 1_555
C86_5 H37_5 1_555 1_555
C87_5 C86_5 1_555 1_555
H38_5 C87_5 1_555 1_555
C88_5 C87_5 1_555 1_555
C91_5 C85_5 1_555 1_555
C95_5 C94_5 1_555 1_555
C96_5 C91_5 1_555 1_555
C97_5 C96_5 1_555 1_555
H42_5 C97_5 1_555 1_555
C98_5 C97_5 1_555 1_555
C99_5 C98_5 1_555 1_555
H43_5 C99_5 1_555 1_555
C100_5 C95_5 1_555 1_555
C101_5 C98_5 1_555 1_555
C102_5 C101_5 1_555 1_555
H45_5 C102_5 1_555 1_555
C103_5 C102_5 1_555 1_555
H46_5 C103_5 1_555 1_555
C104_5 C103_5 1_555 1_555
C105_5 C104_5 1_555 1_555
H47_5 C105_5 1_555 1_555
C106_5 C101_5 1_555 1_555
H48_5 C106_5 1_555 1_555
C107_5 C88_5 1_555 1_555
C110_5 C104_5 1_555 1_555
O27_3 C107_5 1_555 1_555
O30_5 C110_5 1_555 1_555
O31_5 C110_5 1_555 1_555
C95_5 C96_5 1_555 1_555
C99_5 C100_5 1_555 1_555
C105_5 C106_5 1_555 1_555
O31_5 H79_5 1_555 1_555
Cu9_6 O19_12 1_555 1_555
C59_5 C60_5 1_555 1_555
C60_5 H25_5 1_555 1_555
C61_5 C60_5 1_555 1_555
H26_5 C61_5 1_555 1_555
C62_5 C61_5 1_555 1_555
C65_5 C59_5 1_555 1_555
C69_5 C68_5 1_555 1_555
C70_5 C65_5 1_555 1_555
C71_5 C70_5 1_555 1_555
H30_5 C71_5 1_555 1_555
C72_5 C71_5 1_555 1_555
C73_5 C72_5 1_555 1_555
H31_5 C73_5 1_555 1_555
C74_5 C69_5 1_555 1_555
C75_5 C72_5 1_555 1_555
C76_5 C75_5 1_555 1_555
H33_5 C76_5 1_555 1_555
C77_5 C76_5 1_555 1_555
H34_5 C77_5 1_555 1_555
C78_5 C77_5 1_555 1_555
C79_5 C78_5 1_555 1_555
H35_5 C79_5 1_555 1_555
C80_5 C75_5 1_555 1_555
H36_5 C80_5 1_555 1_555
C81_5 C62_5 1_555 1_555
C84_5 C78_5 1_555 1_555
O21_3 C81_5 1_555 1_555
O22_5 C84_5 1_555 1_555
O23_5 C84_5 1_555 1_555
Cu10_6 O21_3 1_555 1_555
O26_3 Cu9_6 1_555 1_555
O28_3 Cu9_6 1_555 1_555
C69_5 C70_5 1_555 1_555
C73_5 C74_5 1_555 1_555
C79_5 C80_5 1_555 1_555
O23_5 H70_5 1_555 1_555
O19_12 H72_5 1_555 1_555
H39_5 C89_5 1_555 1_555
H40_5 C90_5 1_555 1_555
H41_5 C92_5 1_555 1_555
C93_5 C92_5 1_555 1_555
C108_5 C109_5 1_555 1_555
O32_5 C93_5 1_555 1_555
C89_5 C90_5 1_555 1_555
C108_5 O32_5 1_555 1_555
C109_5 H77_5 1_555 1_555
C109_5 H78_5 1_555 1_555
C108_5 H81_5 1_555 1_555
Cu10_5 O19_13 1_555 1_555
O26_4 Cu10_5 1_555 1_555
O19_13 H72_6 1_555 1_555
Cu10_6 O19_14 1_555 1_555
C59_6 C60_6 1_555 1_555
C60_6 H25_6 1_555 1_555
C61_6 C60_6 1_555 1_555
H26_6 C61_6 1_555 1_555
C62_6 C61_6 1_555 1_555
C63_6 C62_6 1_555 1_555
H27_6 C63_6 1_555 1_555
C64_6 C59_6 1_555 1_555
H28_6 C64_6 1_555 1_555
C65_6 C59_6 1_555 1_555
C66_6 C65_6 1_555 1_555
H29_6 C66_6 1_555 1_555
C67_6 C66_6 1_555 1_555
C68_6 C67_6 1_555 1_555
C69_6 C68_6 1_555 1_555
C70_6 C65_6 1_555 1_555
C71_6 C70_6 1_555 1_555
H30_6 C71_6 1_555 1_555
C72_6 C71_6 1_555 1_555
C73_6 C72_6 1_555 1_555
H31_6 C73_6 1_555 1_555
C74_6 C69_6 1_555 1_555
H32_6 C74_6 1_555 1_555
C75_6 C72_6 1_555 1_555
C76_6 C75_6 1_555 1_555
H33_6 C76_6 1_555 1_555
C77_6 C76_6 1_555 1_555
H34_6 C77_6 1_555 1_555
C78_6 C77_6 1_555 1_555
C79_6 C78_6 1_555 1_555
H35_6 C79_6 1_555 1_555
C80_6 C75_6 1_555 1_555
H36_6 C80_6 1_555 1_555
C81_6 C62_6 1_555 1_555
C82_6 C83_6 1_555 1_555
C84_6 C78_6 1_555 1_555
O20_6 Cu10_6 1_555 1_555
O28_3 C81_6 1_555 1_555
O22_6 C84_6 1_555 1_555
O23_6 C84_6 1_555 1_555
O24_6 C67_6 1_555 1_555
C85_6 C86_6 1_555 1_555
C86_6 H37_6 1_555 1_555
C87_6 C86_6 1_555 1_555
H38_6 C87_6 1_555 1_555
C88_6 C87_6 1_555 1_555
C89_6 C88_6 1_555 1_555
H39_6 C89_6 1_555 1_555
C90_6 C85_6 1_555 1_555
H40_6 C90_6 1_555 1_555
C91_6 C85_6 1_555 1_555
C92_6 C91_6 1_555 1_555
H41_6 C92_6 1_555 1_555
C93_6 C92_6 1_555 1_555
C94_6 C68_6 1_555 1_555
C95_6 C94_6 1_555 1_555
C96_6 C91_6 1_555 1_555
C97_6 C96_6 1_555 1_555
H42_6 C97_6 1_555 1_555
C98_6 C97_6 1_555 1_555
C99_6 C98_6 1_555 1_555
H43_6 C99_6 1_555 1_555
C100_6 C95_6 1_555 1_555
H44_6 C100_6 1_555 1_555
C101_6 C98_6 1_555 1_555
C102_6 C101_6 1_555 1_555
H45_6 C102_6 1_555 1_555
C103_6 C102_6 1_555 1_555
H46_6 C103_6 1_555 1_555
C104_6 C103_6 1_555 1_555
C105_6 C104_6 1_555 1_555
H47_6 C105_6 1_555 1_555
C106_6 C101_6 1_555 1_555
H48_6 C106_6 1_555 1_555
C107_6 C88_6 1_555 1_555
C108_6 C109_6 1_555 1_555
C110_6 C104_6 1_555 1_555
O26_4 C107_6 1_555 1_555
O29_3 C107_6 1_555 1_555
O30_6 C110_6 1_555 1_555
O31_6 C110_6 1_555 1_555
O32_6 C93_6 1_555 1_555
C63_6 C64_6 1_555 1_555
C69_6 C70_6 1_555 1_555
C73_6 C74_6 1_555 1_555
C79_6 C80_6 1_555 1_555
C81_6 O20_6 1_555 1_555
C82_6 O24_6 1_555 1_555
C89_6 C90_6 1_555 1_555
C93_6 C94_6 1_555 1_555
C95_6 C96_6 1_555 1_555
C99_6 C100_6 1_555 1_555
C105_6 C106_6 1_555 1_555
C108_6 O32_6 1_555 1_555
C82_6 H68_6 1_555 1_555
C82_6 H69_6 1_555 1_555
O23_6 H70_6 1_555 1_555
O19_14 H71_6 1_555 1_555
C83_6 H73_6 1_555 1_555
C83_6 H74_6 1_555 1_555
C83_6 H75_6 1_555 1_555
C109_6 H76_6 1_555 1_555
C109_6 H77_6 1_555 1_555
C109_6 H78_6 1_555 1_555
O31_6 H79_6 1_555 1_555
C108_6 H80_6 1_555 1_555
C108_6 H81_6 1_555 1_555
O19_11 H72_7 1_555 1_555
O19_12 H71_7 1_555 1_555
O19_13 H71_8 1_555 1_555
O19_14 H72_8 1_555 1_555
Cu11_2 O19_15 1_555 1_555
C59_7 C60_7 1_555 1_555
C60_7 H25_7 1_555 1_555
C61_7 C60_7 1_555 1_555
H26_7 C61_7 1_555 1_555
C62_7 C61_7 1_555 1_555
C63_7 C62_7 1_555 1_555
H27_7 C63_7 1_555 1_555
C64_7 C59_7 1_555 1_555
H28_7 C64_7 1_555 1_555
C65_7 C59_7 1_555 1_555
C66_7 C65_7 1_555 1_555
H29_7 C66_7 1_555 1_555
C67_7 C66_7 1_555 1_555
C68_7 C67_7 1_555 1_555
C69_7 C68_7 1_555 1_555
C70_7 C65_7 1_555 1_555
C71_7 C70_7 1_555 1_555
H30_7 C71_7 1_555 1_555
C72_7 C71_7 1_555 1_555
C73_7 C72_7 1_555 1_555
H31_7 C73_7 1_555 1_555
C74_7 C69_7 1_555 1_555
H32_7 C74_7 1_555 1_555
C75_7 C72_7 1_555 1_555
C76_7 C75_7 1_555 1_555
H33_7 C76_7 1_555 1_555
C77_7 C76_7 1_555 1_555
H34_7 C77_7 1_555 1_555
C78_7 C77_7 1_555 1_555
C79_7 C78_7 1_555 1_555
H35_7 C79_7 1_555 1_555
C80_7 C75_7 1_555 1_555
H36_7 C80_7 1_555 1_555
C81_7 C62_7 1_555 1_555
C82_7 C83_7 1_555 1_555
C84_7 C78_7 1_555 1_555
O20_7 Cu11_2 1_555 1_555
O21_4 C81_7 1_555 1_555
O22_7 C84_7 1_555 1_555
O23_7 C84_7 1_555 1_555
O24_7 C67_7 1_555 1_555
Cu12_2 O21_4 1_555 1_555
Cu11_3 O25_3 1_555 1_555
Cu12_3 O27_4 1_555 1_555
C85_7 C86_7 1_555 1_555
C86_7 H37_7 1_555 1_555
C87_7 C86_7 1_555 1_555
H38_7 C87_7 1_555 1_555
C88_7 C87_7 1_555 1_555
C89_7 C88_7 1_555 1_555
H39_7 C89_7 1_555 1_555
C90_7 C85_7 1_555 1_555
H40_7 C90_7 1_555 1_555
C91_7 C85_7 1_555 1_555
C92_7 C91_7 1_555 1_555
H41_7 C92_7 1_555 1_555
C93_7 C92_7 1_555 1_555
C94_7 C68_7 1_555 1_555
C95_7 C94_7 1_555 1_555
C96_7 C91_7 1_555 1_555
C97_7 C96_7 1_555 1_555
H42_7 C97_7 1_555 1_555
C98_7 C97_7 1_555 1_555
C99_7 C98_7 1_555 1_555
H43_7 C99_7 1_555 1_555
C100_7 C95_7 1_555 1_555
H44_7 C100_7 1_555 1_555
C101_7 C98_7 1_555 1_555
C102_7 C101_7 1_555 1_555
H45_7 C102_7 1_555 1_555
C103_7 C102_7 1_555 1_555
H46_7 C103_7 1_555 1_555
C104_7 C103_7 1_555 1_555
C105_7 C104_7 1_555 1_555
H47_7 C105_7 1_555 1_555
C106_7 C101_7 1_555 1_555
H48_7 C106_7 1_555 1_555
C107_7 C88_7 1_555 1_555
C108_7 C109_7 1_555 1_555
C110_7 C104_7 1_555 1_555
O25_3 C107_7 1_555 1_555
O27_4 C107_7 1_555 1_555
O28_4 Cu11_2 1_555 1_555
O30_7 C110_7 1_555 1_555
O31_7 C110_7 1_555 1_555
O32_7 C93_7 1_555 1_555
C63_7 C64_7 1_555 1_555
C69_7 C70_7 1_555 1_555
C73_7 C74_7 1_555 1_555
C79_7 C80_7 1_555 1_555
C81_7 O20_7 1_555 1_555
C82_7 O24_7 1_555 1_555
C89_7 C90_7 1_555 1_555
C93_7 C94_7 1_555 1_555
C95_7 C96_7 1_555 1_555
C99_7 C100_7 1_555 1_555
C105_7 C106_7 1_555 1_555
C108_7 O32_7 1_555 1_555
C82_7 H68_7 1_555 1_555
C82_7 H69_7 1_555 1_555
O23_7 H70_7 1_555 1_555
O19_15 H71_9 1_555 1_555
C83_7 H73_7 1_555 1_555
C83_7 H74_7 1_555 1_555
C83_7 H75_7 1_555 1_555
C109_7 H76_7 1_555 1_555
C109_7 H77_7 1_555 1_555
C109_7 H78_7 1_555 1_555
O31_7 H79_7 1_555 1_555
C108_7 H80_7 1_555 1_555
C108_7 H81_7 1_555 1_555
Cu11_3 O19_16 1_555 1_555
O29_4 Cu11_3 1_555 1_555
O19_16 H72_9 1_555 1_555
Cu12_2 O25_4 1_555 1_555
H39_8 C89_8 1_555 1_555
H40_8 C90_8 1_555 1_555
H41_8 C92_8 1_555 1_555
C93_8 C92_8 1_555 1_555
C108_8 C109_8 1_555 1_555
O32_8 C93_8 1_555 1_555
C89_8 C90_8 1_555 1_555
C108_8 O32_8 1_555 1_555
C109_8 H77_8 1_555 1_555
C109_8 H78_8 1_555 1_555
C108_8 H81_8 1_555 1_555
C85_8 C86_8 1_555 1_555
C86_8 H37_8 1_555 1_555
C87_8 C86_8 1_555 1_555
H38_8 C87_8 1_555 1_555
C88_8 C87_8 1_555 1_555
C91_8 C85_8 1_555 1_555
C95_8 C94_8 1_555 1_555
C96_8 C91_8 1_555 1_555
C97_8 C96_8 1_555 1_555
H42_8 C97_8 1_555 1_555
C98_8 C97_8 1_555 1_555
C99_8 C98_8 1_555 1_555
H43_8 C99_8 1_555 1_555
C100_8 C95_8 1_555 1_555
C101_8 C98_8 1_555 1_555
C102_8 C101_8 1_555 1_555
H45_8 C102_8 1_555 1_555
C103_8 C102_8 1_555 1_555
H46_8 C103_8 1_555 1_555
C104_8 C103_8 1_555 1_555
C105_8 C104_8 1_555 1_555
H47_8 C105_8 1_555 1_555
C106_8 C101_8 1_555 1_555
H48_8 C106_8 1_555 1_555
C107_8 C88_8 1_555 1_555
C110_8 C104_8 1_555 1_555
O29_4 C107_8 1_555 1_555
O30_8 C110_8 1_555 1_555
O31_8 C110_8 1_555 1_555
C95_8 C96_8 1_555 1_555
C99_8 C100_8 1_555 1_555
C105_8 C106_8 1_555 1_555
O31_8 H79_8 1_555 1_555
Cu12_2 O19_17 1_555 1_555
C59_8 C60_8 1_555 1_555
C60_8 H25_8 1_555 1_555
C61_8 C60_8 1_555 1_555
H26_8 C61_8 1_555 1_555
C62_8 C61_8 1_555 1_555
C65_8 C59_8 1_555 1_555
C69_8 C68_8 1_555 1_555
C70_8 C65_8 1_555 1_555
C71_8 C70_8 1_555 1_555
H30_8 C71_8 1_555 1_555
C72_8 C71_8 1_555 1_555
C73_8 C72_8 1_555 1_555
H31_8 C73_8 1_555 1_555
C74_8 C69_8 1_555 1_555
C75_8 C72_8 1_555 1_555
C76_8 C75_8 1_555 1_555
H33_8 C76_8 1_555 1_555
C77_8 C76_8 1_555 1_555
H34_8 C77_8 1_555 1_555
C78_8 C77_8 1_555 1_555
C79_8 C78_8 1_555 1_555
H35_8 C79_8 1_555 1_555
C80_8 C75_8 1_555 1_555
H36_8 C80_8 1_555 1_555
C81_8 C62_8 1_555 1_555
C84_8 C78_8 1_555 1_555
O28_4 C81_8 1_555 1_555
O22_8 C84_8 1_555 1_555
O23_8 C84_8 1_555 1_555
C69_8 C70_8 1_555 1_555
C73_8 C74_8 1_555 1_555
C79_8 C80_8 1_555 1_555
O23_8 H70_8 1_555 1_555
O19_17 H72_10 1_555 1_555
Cu12_3 O19_18 1_555 1_555
H27_8 C63_8 1_555 1_555
H28_8 C64_8 1_555 1_555
H29_8 C66_8 1_555 1_555
C67_8 C66_8 1_555 1_555
C82_8 C83_8 1_555 1_555
O20_8 Cu12_3 1_555 1_555
O24_8 C67_8 1_555 1_555
C63_8 C64_8 1_555 1_555
C82_8 O24_8 1_555 1_555
C82_8 H69_8 1_555 1_555
O19_18 H71_10 1_555 1_555
C83_8 H74_8 1_555 1_555
C83_8 H75_8 1_555 1_555
O19_15 H72_11 1_555 1_555
O19_16 H71_11 1_555 1_555
O19_17 H71_12 1_555 1_555
O19_18 H72_12 1_555 1_555

#END
