
###############################################################################
#
# This file contains modified crystal structure data generated from the
# MOF subset of the Cambridge Structural Database (CSD) v543 
# hosted by the Cambridge Crystallographic Data Centre (CCDC).
#
# This work is licensed under the Creative Commons
# Attribution-NonCommercial-ShareAlike 4.0 International License.
# To view a copy of this license, visit
# http://creativecommons.org/licenses/by-nc-sa/4.0/
# or send a letter to
# Creative Commons, PO Box 1866, Mountain View, CA 94042, USA.
#
# CIF created using the CSD Python API on 29 September 2022
# The structure has been converted into the P1 space group
# The structure has a 3D framework
# The original CSD entry SUPCAK is in the monoclinic crystal system
# The framework has been calculated to contain at least 10.0% void space
# The void calculation uses a probe of radius 1.32A, grid spacing 0.4
#
###############################################################################

data_SUPCAK
_chemical_formula_moiety         '(C152 H112 Co8 N16 O46)n'
_symmetry_cell_setting           triclinic
_symmetry_space_group_name_H-M   'P 1'
_symmetry_Int_Tables_number      1
_space_group_name_Hall           'P 1'
loop_
_symmetry_equiv_pos_site_id
_symmetry_equiv_pos_as_xyz
1 x,y,z
_cell_length_a                   30.016(5)
_cell_length_b                   15.638(3)
_cell_length_c                   18.552(3)
_cell_angle_alpha                90
_cell_angle_beta                 117.944(2)
_cell_angle_gamma                90
_cell_volume                     7692.81
loop_
_atom_site_label
_atom_site_type_symbol
_atom_site_fract_x
_atom_site_fract_y
_atom_site_fract_z
Co1 Co 0.06611(2) 0.77165(2) 0.28254(2)
O1 O -0.0000 0.69776(17) 0.2500
O2 O 0.04139(7) 0.61343(15) 0.38545(14)
O3 O 0.10269(7) 0.69600(13) 0.38653(11)
O4 O 0.23449(8) 0.46155(16) 0.68973(14)
O5 O 0.03304(7) 0.84415(13) 0.17815(12)
N1 N 0.09148(8) 0.31550(16) 0.71844(14)
N2 N 0.36391(8) 0.66251(16) 0.67675(14)
C1 C 0.08654(10) 0.63697(19) 0.41438(17)
C2 C 0.12505(10) 0.59170(19) 0.48816(17)
C3 C 0.11112(10) 0.5300(2) 0.52845(18)
H1 H 0.0772 0.5172 0.5090
C4 C 0.14702(10) 0.4873(2) 0.59722(19)
C5 C 0.19786(10) 0.5050(2) 0.62433(18)
C6 C 0.21297(10) 0.5686(2) 0.58681(17)
C7 C 0.17618(10) 0.61138(19) 0.51878(17)
H2 H 0.1858 0.6535 0.4935
C8 C 0.2561(2) 0.3903(4) 0.6677(4)
H3 H 0.2310 0.3467 0.6424
H4 H 0.2839 0.3676 0.7158
H5 H 0.2678 0.4091 0.6302
C9 C 0.12923(10) 0.4254(2) 0.63944(19)
C10 C 0.08609(11) 0.3775(2) 0.5962(2)
H6 H 0.0687 0.3809 0.5396
C11 C 0.06874(11) 0.3241(2) 0.6377(2)
H7 H 0.0396 0.2926 0.6073
C12 C 0.13416(11) 0.3610(2) 0.7599(2)
H8 H 0.1513 0.3552 0.8164
C13 C 0.15407(12) 0.4153(2) 0.7243(2)
H9 H 0.1837 0.4450 0.7562
C14 C 0.26651(10) 0.59632(19) 0.61961(17)
C15 C 0.29800(11) 0.6078(2) 0.70140(19)
H10 H 0.2872 0.5931 0.7392
C16 C 0.34562(11) 0.6411(2) 0.72763(19)
H11 H 0.3660 0.6490 0.7833
C17 C 0.33412(10) 0.6471(2) 0.59737(18)
H12 H 0.3467 0.6585 0.5611
C18 C 0.28586(11) 0.61522(19) 0.56634(19)
H13 H 0.2664 0.6064 0.5105
O11 O 0.04836(7) 0.85756(13) 0.35083(13)
C38 C 0.01063(11) 0.8741(2) 0.36032(19)
H28 H 0.0156 0.9135 0.4010
Co4 Co 0.06611(2) 0.22835(2) 0.78254(2)
Co5 Co 0.43389(2) 0.72835(2) 0.71746(2)
N6 N 0.09148(8) 0.68450(16) 0.21844(14)
N7 N 0.13609(8) 0.83749(16) 0.32325(14)
O1_2 O 1.0000 0.69776(17) 0.2500
O6 O 0.95164(7) 0.85756(13) 0.14917(13)
C19 C 0.98937(11) 0.8741(2) 0.13968(19)
H14 H 0.9844 0.9135 0.0990
Co2 Co 0.93389(2) 0.77165(2) 0.21746(2)
O7 O 0.95861(7) 0.61343(15) 0.11455(14)
O8 O 0.89731(7) 0.69600(13) 0.11347(11)
O10 O 0.96696(7) 0.84415(13) 0.32185(12)
C20 C 0.91346(10) 0.63697(19) 0.08562(17)
C21 C 0.87495(10) 0.59170(19) 0.01184(17)
H16 H 0.8142 0.6535 0.0065
N5 N 0.90852(8) 0.68450(16) 0.28156(14)
N8 N 0.86391(8) 0.83749(16) 0.17675(14)
O9 O 0.76551(8) 0.46155(16) 0.81027(14)
N3 N 0.90852(8) 0.31550(16) 0.78156(14)
N4 N 0.63609(8) 0.66251(16) 0.82325(14)
C22 C 0.88888(10) 0.5300(2) 0.97155(18)
H15 H 0.9228 0.5172 0.9910
C23 C 0.85298(10) 0.4873(2) 0.90278(19)
C24 C 0.80214(10) 0.5050(2) 0.87567(18)
C25 C 0.78703(10) 0.5686(2) 0.91319(17)
C26 C 0.82382(10) 0.61138(19) 0.98122(17)
C27 C 0.7439(2) 0.3903(4) 0.8323(4)
H17 H 0.7690 0.3467 0.8576
H18 H 0.7161 0.3676 0.7842
H19 H 0.7322 0.4091 0.8698
C28 C 0.87077(10) 0.4254(2) 0.86056(19)
C29 C 0.91391(11) 0.3775(2) 0.9038(2)
H20 H 0.9313 0.3809 0.9604
C30 C 0.93126(11) 0.3241(2) 0.8623(2)
H21 H 0.9604 0.2926 0.8927
C31 C 0.86584(11) 0.3610(2) 0.7401(2)
H22 H 0.8487 0.3552 0.6836
C32 C 0.84593(12) 0.4153(2) 0.7757(2)
H23 H 0.8163 0.4450 0.7438
C33 C 0.73349(10) 0.59632(19) 0.88039(17)
C34 C 0.70200(11) 0.6078(2) 0.79860(19)
H24 H 0.7128 0.5931 0.7608
C35 C 0.65438(11) 0.6411(2) 0.77237(19)
H25 H 0.6340 0.6490 0.7167
C36 C 0.66588(10) 0.6471(2) 0.90263(18)
H26 H 0.6533 0.6585 0.9389
C37 C 0.71414(11) 0.61522(19) 0.93366(19)
H27 H 0.7336 0.6064 0.9895
Co3 Co 0.93389(2) 0.22835(2) 0.71746(2)
Co6 Co 0.56611(2) 0.72835(2) 0.78254(2)
Co1_2 Co 0.56611(2) 0.27165(2) 0.28254(2)
O1_3 O 0.5000 0.19776(17) 0.2500
O2_2 O 0.54139(7) 0.11343(15) 0.38545(14)
O3_2 O 0.60269(7) 0.19600(13) 0.38653(11)
O5_2 O 0.53304(7) 0.34415(13) 0.17815(12)
O6_2 O 0.45164(7) 0.35756(13) 0.14917(13)
N2_2 N 0.86391(8) 0.16251(16) 0.67675(14)
C1_2 C 0.58654(10) 0.13697(19) 0.41438(17)
C2_2 C 0.62505(10) 0.09170(19) 0.48816(17)
C3_2 C 0.61112(10) 0.0300(2) 0.52845(18)
H1_2 H 0.5772 0.0172 0.5090
C5_2 C 0.69786(10) 0.0050(2) 0.62433(18)
C6_2 C 0.71297(10) 0.0686(2) 0.58681(17)
C7_2 C 0.67618(10) 0.11138(19) 0.51878(17)
H2_2 H 0.6858 0.1535 0.4935
C14_2 C 0.76651(10) 0.09632(19) 0.61961(17)
C15_2 C 0.79800(11) 0.1078(2) 0.70140(19)
H10_2 H 0.7872 0.0931 0.7392
C16_2 C 0.84562(11) 0.1411(2) 0.72763(19)
H11_2 H 0.8660 0.1490 0.7833
C17_2 C 0.83412(10) 0.1471(2) 0.59737(18)
H12_2 H 0.8467 0.1585 0.5611
C18_2 C 0.78586(11) 0.11522(19) 0.56634(19)
H13_2 H 0.7664 0.1064 0.5105
C19_2 C 0.48937(11) 0.3741(2) 0.13968(19)
H14_2 H 0.4844 0.4135 0.0990
Co2_2 Co 0.43389(2) 0.27165(2) 0.21746(2)
O7_2 O 0.45861(7) 0.11343(15) 0.11455(14)
O8_2 O 0.39731(7) 0.19600(13) 0.11347(11)
O10_2 O 0.46696(7) 0.34415(13) 0.32185(12)
O11_2 O 0.54836(7) 0.35756(13) 0.35083(13)
C20_2 C 0.41346(10) 0.13697(19) 0.08562(17)
C21_2 C 0.37495(10) 0.09170(19) 0.01184(17)
H16_2 H 0.3142 0.1535 0.0065
C38_2 C 0.51063(11) 0.3741(2) 0.36032(19)
H28_2 H 0.5156 0.4135 0.4010
N5_2 N 0.40852(8) 0.18450(16) 0.28156(14)
N6_2 N 0.59148(8) 0.18450(16) 0.21844(14)
N7_2 N 0.63609(8) 0.33749(16) 0.32325(14)
N8_2 N 0.36391(8) 0.33749(16) 0.17675(14)
N4_2 N 0.13609(8) 0.16251(16) 0.82325(14)
C22_2 C 0.38888(10) 0.0300(2) 0.97155(18)
H15_2 H 0.4228 0.0172 0.9910
C24_2 C 0.30214(10) 0.0050(2) 0.87567(18)
C25_2 C 0.28703(10) 0.0686(2) 0.91319(17)
C26_2 C 0.32382(10) 0.11138(19) 0.98122(17)
C33_2 C 0.23349(10) 0.09632(19) 0.88039(17)
C34_2 C 0.20200(11) 0.1078(2) 0.79860(19)
H24_2 H 0.2128 0.0931 0.7608
C35_2 C 0.15438(11) 0.1411(2) 0.77237(19)
H25_2 H 0.1340 0.1490 0.7167
C36_2 C 0.16588(10) 0.1471(2) 0.90263(18)
H26_2 H 0.1533 0.1585 0.9389
C37_2 C 0.21414(11) 0.11522(19) 0.93366(19)
H27_2 H 0.2336 0.1064 0.9895
O4_2 O 0.73449(8) 0.96155(16) 0.68973(14)
N1_2 N 0.59148(8) 0.81550(16) 0.71844(14)
C4_2 C 0.64702(10) 0.9873(2) 0.59722(19)
C8_2 C 0.7561(2) 0.8903(4) 0.6677(4)
H3_2 H 0.7310 0.8467 0.6424
H4_2 H 0.7839 0.8676 0.7158
H5_2 H 0.7678 0.9091 0.6302
C9_2 C 0.62923(10) 0.9254(2) 0.63944(19)
C10_2 C 0.58609(11) 0.8775(2) 0.5962(2)
H6_2 H 0.5687 0.8809 0.5396
C11_2 C 0.56874(11) 0.8241(2) 0.6377(2)
H7_2 H 0.5396 0.7926 0.6073
C12_2 C 0.63416(11) 0.8610(2) 0.7599(2)
H8_2 H 0.6513 0.8552 0.8164
C13_2 C 0.65407(12) 0.9153(2) 0.7243(2)
H9_2 H 0.6837 0.9450 0.7562
O9_2 O 0.26551(8) 0.96155(16) 0.81027(14)
N3_2 N 0.40852(8) 0.81550(16) 0.78156(14)
C23_2 C 0.35298(10) 0.9873(2) 0.90278(19)
C27_2 C 0.2439(2) 0.8903(4) 0.8323(4)
H17_2 H 0.2690 0.8467 0.8576
H18_2 H 0.2161 0.8676 0.7842
H19_2 H 0.2322 0.9091 0.8698
C28_2 C 0.37077(10) 0.9254(2) 0.86056(19)
C29_2 C 0.41391(11) 0.8775(2) 0.9038(2)
H20_2 H 0.4313 0.8809 0.9604
C30_2 C 0.43126(11) 0.8241(2) 0.8623(2)
H21_2 H 0.4604 0.7926 0.8927
C31_2 C 0.36584(11) 0.8610(2) 0.7401(2)
H22_2 H 0.3487 0.8552 0.6836
C32_2 C 0.34593(12) 0.9153(2) 0.7757(2)
H23_2 H 0.3163 0.9450 0.7438
O9_3 O 0.23449(8) 0.53845(16) 0.18973(14)
C22_3 C 0.11112(10) 0.4700(2) 0.02845(18)
H15_3 H 0.0772 0.4828 0.0090
C23_3 C 0.14702(10) 0.5127(2) 0.09722(19)
C24_3 C 0.19786(10) 0.4950(2) 0.12433(18)
C25_3 C 0.21297(10) 0.4314(2) 0.08681(17)
C26_3 C 0.17618(10) 0.38862(19) 0.01878(17)
C27_3 C 0.2561(2) 0.6097(4) 0.1677(4)
H17_3 H 0.2310 0.6533 0.1424
H18_3 H 0.2839 0.6324 0.2158
H19_3 H 0.2678 0.5909 0.1302
C28_3 C 0.12923(10) 0.5746(2) 0.13944(19)
C29_3 C 0.08609(11) 0.6225(2) 0.0962(2)
H20_3 H 0.0687 0.6191 0.0396
C30_3 C 0.06874(11) 0.6759(2) 0.1377(2)
H21_3 H 0.0396 0.7074 0.1073
C31_3 C 0.13416(11) 0.6390(2) 0.2599(2)
H22_3 H 0.1513 0.6448 0.3164
C32_3 C 0.15407(12) 0.5847(2) 0.2243(2)
H23_3 H 0.1837 0.5550 0.2562
C33_3 C 0.26651(10) 0.40368(19) 0.11961(17)
C34_3 C 0.29800(11) 0.3922(2) 0.20140(19)
H24_3 H 0.2872 0.4069 0.2392
C35_3 C 0.34562(11) 0.3589(2) 0.22763(19)
H25_3 H 0.3660 0.3510 0.2833
C36_3 C 0.33412(10) 0.3529(2) 0.09737(18)
H26_3 H 0.3467 0.3415 0.0611
C37_3 C 0.28586(11) 0.38478(19) 0.06634(19)
H27_3 H 0.2664 0.3936 0.0105
O1_4 O -0.0000 0.30224(17) 0.7500
O6_3 O 0.04836(7) 0.14244(13) 0.85083(13)
C19_3 C 0.01063(11) 0.1259(2) 0.86032(19)
H14_3 H 0.0156 0.0865 0.9010
O7_3 O 0.04139(7) 0.38657(15) 0.88545(14)
O8_3 O 0.10269(7) 0.30400(13) 0.88653(11)
O10_3 O 0.03304(7) 0.15585(13) 0.67815(12)
C20_3 C 0.08654(10) 0.36303(19) 0.91438(17)
C21_3 C 0.12505(10) 0.40830(19) 0.98816(17)
H16_3 H 0.1858 0.3465 0.9935
O1_5 O 1.0000 0.30224(17) 0.7500
O2_3 O 0.95861(7) 0.38657(15) 0.61455(14)
O3_3 O 0.89731(7) 0.30400(13) 0.61347(11)
O4_3 O 0.76551(8) 0.53845(16) 0.31027(14)
O5_3 O 0.96696(7) 0.15585(13) 0.82185(12)
C1_3 C 0.91346(10) 0.36303(19) 0.58562(17)
C2_3 C 0.87495(10) 0.40830(19) 0.51184(17)
C3_3 C 0.88888(10) 0.4700(2) 0.47155(18)
H1_3 H 0.9228 0.4828 0.4910
C4_3 C 0.85298(10) 0.5127(2) 0.40278(19)
C5_3 C 0.80214(10) 0.4950(2) 0.37567(18)
C6_3 C 0.78703(10) 0.4314(2) 0.41319(17)
C7_3 C 0.82382(10) 0.38862(19) 0.48122(17)
H2_3 H 0.8142 0.3465 0.5065
C8_3 C 0.7439(2) 0.6097(4) 0.3323(4)
H3_3 H 0.7690 0.6533 0.3576
H4_3 H 0.7161 0.6324 0.2842
H5_3 H 0.7322 0.5909 0.3698
C9_3 C 0.87077(10) 0.5746(2) 0.36056(19)
C10_3 C 0.91391(11) 0.6225(2) 0.4038(2)
H6_3 H 0.9313 0.6191 0.4604
C11_3 C 0.93126(11) 0.6759(2) 0.3623(2)
H7_3 H 0.9604 0.7074 0.3927
C12_3 C 0.86584(11) 0.6390(2) 0.2401(2)
H8_3 H 0.8487 0.6448 0.1836
C13_3 C 0.84593(12) 0.5847(2) 0.2757(2)
H9_3 H 0.8163 0.5550 0.2438
C14_3 C 0.73349(10) 0.40368(19) 0.38039(17)
C15_3 C 0.70200(11) 0.3922(2) 0.29860(19)
H10_3 H 0.7128 0.4069 0.2608
C16_3 C 0.65438(11) 0.3589(2) 0.27237(19)
H11_3 H 0.6340 0.3510 0.2167
C17_3 C 0.66588(10) 0.3529(2) 0.40263(18)
H12_3 H 0.6533 0.3415 0.4389
C18_3 C 0.71414(11) 0.38478(19) 0.43366(19)
H13_3 H 0.7336 0.3936 0.4895
O11_3 O 0.95164(7) 0.14244(13) 0.64917(13)
C38_3 C 0.98937(11) 0.1259(2) 0.63968(19)
H28_3 H 0.9844 0.0865 0.5990
O9_4 O 0.73449(8) 0.03845(16) 0.18973(14)
C23_4 C 0.64702(10) 0.0127(2) 0.09722(19)
C27_4 C 0.7561(2) 0.1097(4) 0.1677(4)
H17_4 H 0.7310 0.1533 0.1424
H18_4 H 0.7839 0.1324 0.2158
H19_4 H 0.7678 0.0909 0.1302
C28_4 C 0.62923(10) 0.0746(2) 0.13944(19)
C29_4 C 0.58609(11) 0.1225(2) 0.0962(2)
H20_4 H 0.5687 0.1191 0.0396
C30_4 C 0.56874(11) 0.1759(2) 0.1377(2)
H21_4 H 0.5396 0.2074 0.1073
C31_4 C 0.63416(11) 0.1390(2) 0.2599(2)
H22_4 H 0.6513 0.1448 0.3164
C32_4 C 0.65407(12) 0.0847(2) 0.2243(2)
H23_4 H 0.6837 0.0550 0.2562
O4_4 O 0.26551(8) 0.03845(16) 0.31027(14)
C4_4 C 0.35298(10) 0.0127(2) 0.40278(19)
C8_4 C 0.2439(2) 0.1097(4) 0.3323(4)
H3_4 H 0.2690 0.1533 0.3576
H4_4 H 0.2161 0.1324 0.2842
H5_4 H 0.2322 0.0909 0.3698
C9_4 C 0.37077(10) 0.0746(2) 0.36056(19)
C10_4 C 0.41391(11) 0.1225(2) 0.4038(2)
H6_4 H 0.4313 0.1191 0.4604
C11_4 C 0.43126(11) 0.1759(2) 0.3623(2)
H7_4 H 0.4604 0.2074 0.3927
C12_4 C 0.36584(11) 0.1390(2) 0.2401(2)
H8_4 H 0.3487 0.1448 0.1836
C13_4 C 0.34593(12) 0.0847(2) 0.2757(2)
H9_4 H 0.3163 0.0550 0.2438
C22_4 C 0.61112(10) 0.9700(2) 0.02845(18)
H15_4 H 0.5772 0.9828 0.0090
C24_4 C 0.69786(10) 0.9950(2) 0.12433(18)
C25_4 C 0.71297(10) 0.9314(2) 0.08681(17)
C26_4 C 0.67618(10) 0.88862(19) 0.01878(17)
C33_4 C 0.76651(10) 0.90368(19) 0.11961(17)
C34_4 C 0.79800(11) 0.8922(2) 0.20140(19)
H24_4 H 0.7872 0.9069 0.2392
C35_4 C 0.84562(11) 0.8589(2) 0.22763(19)
H25_4 H 0.8660 0.8510 0.2833
C36_4 C 0.83412(10) 0.8529(2) 0.09737(18)
H26_4 H 0.8467 0.8415 0.0611
C37_4 C 0.78586(11) 0.88478(19) 0.06634(19)
H27_4 H 0.7664 0.8936 0.0105
O1_6 O 0.5000 0.80224(17) 0.7500
O2_4 O 0.45861(7) 0.88657(15) 0.61455(14)
O3_4 O 0.39731(7) 0.80400(13) 0.61347(11)
O5_4 O 0.46696(7) 0.65585(13) 0.82185(12)
O6_4 O 0.54836(7) 0.64244(13) 0.85083(13)
C1_4 C 0.41346(10) 0.86303(19) 0.58562(17)
C2_4 C 0.37495(10) 0.90830(19) 0.51184(17)
C3_4 C 0.38888(10) 0.9700(2) 0.47155(18)
H1_4 H 0.4228 0.9828 0.4910
C5_4 C 0.30214(10) 0.9950(2) 0.37567(18)
C6_4 C 0.28703(10) 0.9314(2) 0.41319(17)
C7_4 C 0.32382(10) 0.88862(19) 0.48122(17)
H2_4 H 0.3142 0.8465 0.5065
C14_4 C 0.23349(10) 0.90368(19) 0.38039(17)
C15_4 C 0.20200(11) 0.8922(2) 0.29860(19)
H10_4 H 0.2128 0.9069 0.2608
C16_4 C 0.15438(11) 0.8589(2) 0.27237(19)
H11_4 H 0.1340 0.8510 0.2167
C17_4 C 0.16588(10) 0.8529(2) 0.40263(18)
H12_4 H 0.1533 0.8415 0.4389
C18_4 C 0.21414(11) 0.88478(19) 0.43366(19)
H13_4 H 0.2336 0.8936 0.4895
C19_4 C 0.51063(11) 0.6259(2) 0.86032(19)
H14_4 H 0.5156 0.5865 0.9010
O7_4 O 0.54139(7) 0.88657(15) 0.88545(14)
O8_4 O 0.60269(7) 0.80400(13) 0.88653(11)
O10_4 O 0.53304(7) 0.65585(13) 0.67815(12)
O11_4 O 0.45164(7) 0.64244(13) 0.64917(13)
C20_4 C 0.58654(10) 0.86303(19) 0.91438(17)
C21_4 C 0.62505(10) 0.90830(19) 0.98816(17)
H16_4 H 0.6858 0.8465 0.9935
C38_4 C 0.48937(11) 0.6259(2) 0.63968(19)
H28_4 H 0.4844 0.5865 0.5990
loop_
_geom_bond_atom_site_label_1
_geom_bond_atom_site_label_2
_geom_bond_site_symmetry_1
_geom_bond_site_symmetry_2
Co1 O1 1_555 1_555
O2 C1 1_555 1_555
O3 Co1 1_555 1_555
O4 C5 1_555 1_555
O5 Co1 1_555 1_555
N1 C11 1_555 1_555
N2 C16 1_555 1_555
C1 O3 1_555 1_555
C2 C1 1_555 1_555
C3 C2 1_555 1_555
H1 C3 1_555 1_555
C4 C3 1_555 1_555
C5 C4 1_555 1_555
C6 C5 1_555 1_555
C7 C2 1_555 1_555
H2 C7 1_555 1_555
C8 O4 1_555 1_555
H3 C8 1_555 1_555
H4 C8 1_555 1_555
H5 C8 1_555 1_555
C9 C4 1_555 1_555
C10 C9 1_555 1_555
H6 C10 1_555 1_555
C11 C10 1_555 1_555
H7 C11 1_555 1_555
C12 N1 1_555 1_555
H8 C12 1_555 1_555
C13 C9 1_555 1_555
H9 C13 1_555 1_555
C14 C6 1_555 1_555
C15 C14 1_555 1_555
H10 C15 1_555 1_555
C16 C15 1_555 1_555
H11 C16 1_555 1_555
C17 N2 1_555 1_555
H12 C17 1_555 1_555
C18 C14 1_555 1_555
H13 C18 1_555 1_555
O11 Co1 1_555 1_555
H28 C38 1_555 1_555
Co4 N1 1_555 1_555
Co5 N2 1_555 1_555
N6 Co1 1_555 1_555
N7 Co1 1_555 1_555
C6 C7 1_555 1_555
C12 C13 1_555 1_555
C17 C18 1_555 1_555
O11 C38 1_555 1_555
O1_2 Co2 1_555 1_555
O6 C19 1_555 1_555
H14 C19 1_555 1_555
Co2 O6 1_555 1_555
O7 C20 1_555 1_555
O8 Co2 1_555 1_555
O10 Co2 1_555 1_555
C20 O8 1_555 1_555
C21 C20 1_555 1_555
N5 Co2 1_555 1_555
N8 Co2 1_555 1_555
O9 C24 1_555 1_555
N3 C30 1_555 1_555
N4 C35 1_555 1_555
H15 C22 1_555 1_555
C23 C22 1_555 1_555
C24 C23 1_555 1_555
C25 C24 1_555 1_555
C27 O9 1_555 1_555
H17 C27 1_555 1_555
H18 C27 1_555 1_555
H19 C27 1_555 1_555
C28 C23 1_555 1_555
C29 C28 1_555 1_555
H20 C29 1_555 1_555
C30 C29 1_555 1_555
H21 C30 1_555 1_555
C31 N3 1_555 1_555
H22 C31 1_555 1_555
C32 C28 1_555 1_555
H23 C32 1_555 1_555
C33 C25 1_555 1_555
C34 C33 1_555 1_555
H24 C34 1_555 1_555
C35 C34 1_555 1_555
H25 C35 1_555 1_555
C36 N4 1_555 1_555
H26 C36 1_555 1_555
C37 C33 1_555 1_555
H27 C37 1_555 1_555
Co3 N3 1_555 1_555
Co6 N4 1_555 1_555
C25 C26 1_555 1_555
C31 C32 1_555 1_555
C36 C37 1_555 1_555
Co1_2 O1_3 1_555 1_555
O1_3 Co2_2 1_555 1_555
O2_2 C1_2 1_555 1_555
O3_2 Co1_2 1_555 1_555
O5_2 Co1_2 1_555 1_555
O6_2 C19_2 1_555 1_555
N2_2 C16_2 1_555 1_555
C1_2 O3_2 1_555 1_555
C2_2 C1_2 1_555 1_555
C3_2 C2_2 1_555 1_555
H1_2 C3_2 1_555 1_555
C6_2 C5_2 1_555 1_555
C7_2 C2_2 1_555 1_555
H2_2 C7_2 1_555 1_555
C14_2 C6_2 1_555 1_555
C15_2 C14_2 1_555 1_555
H10_2 C15_2 1_555 1_555
C16_2 C15_2 1_555 1_555
H11_2 C16_2 1_555 1_555
C17_2 N2_2 1_555 1_555
H12_2 C17_2 1_555 1_555
C18_2 C14_2 1_555 1_555
H13_2 C18_2 1_555 1_555
C19_2 O5_2 1_555 1_555
H14_2 C19_2 1_555 1_555
Co2_2 O6_2 1_555 1_555
O7_2 C20_2 1_555 1_555
O8_2 Co2_2 1_555 1_555
O10_2 Co2_2 1_555 1_555
O11_2 Co1_2 1_555 1_555
C20_2 O8_2 1_555 1_555
C21_2 C20_2 1_555 1_555
C38_2 O10_2 1_555 1_555
H28_2 C38_2 1_555 1_555
Co3 N2_2 1_555 1_555
N5_2 Co2_2 1_555 1_555
N6_2 Co1_2 1_555 1_555
N7_2 Co1_2 1_555 1_555
N8_2 Co2_2 1_555 1_555
C6_2 C7_2 1_555 1_555
C17_2 C18_2 1_555 1_555
O11_2 C38_2 1_555 1_555
N4_2 C35_2 1_555 1_555
H15_2 C22_2 1_555 1_555
C25_2 C24_2 1_555 1_555
C33_2 C25_2 1_555 1_555
C34_2 C33_2 1_555 1_555
H24_2 C34_2 1_555 1_555
C35_2 C34_2 1_555 1_555
H25_2 C35_2 1_555 1_555
C36_2 N4_2 1_555 1_555
H26_2 C36_2 1_555 1_555
C37_2 C33_2 1_555 1_555
H27_2 C37_2 1_555 1_555
Co4 N4_2 1_555 1_555
C25_2 C26_2 1_555 1_555
C36_2 C37_2 1_555 1_555
N1_2 C11_2 1_555 1_555
C8_2 O4_2 1_555 1_555
H3_2 C8_2 1_555 1_555
H4_2 C8_2 1_555 1_555
H5_2 C8_2 1_555 1_555
C9_2 C4_2 1_555 1_555
C10_2 C9_2 1_555 1_555
H6_2 C10_2 1_555 1_555
C11_2 C10_2 1_555 1_555
H7_2 C11_2 1_555 1_555
C12_2 N1_2 1_555 1_555
H8_2 C12_2 1_555 1_555
C13_2 C9_2 1_555 1_555
H9_2 C13_2 1_555 1_555
Co6 N1_2 1_555 1_555
C12_2 C13_2 1_555 1_555
N3_2 C30_2 1_555 1_555
C27_2 O9_2 1_555 1_555
H17_2 C27_2 1_555 1_555
H18_2 C27_2 1_555 1_555
H19_2 C27_2 1_555 1_555
C28_2 C23_2 1_555 1_555
C29_2 C28_2 1_555 1_555
H20_2 C29_2 1_555 1_555
C30_2 C29_2 1_555 1_555
H21_2 C30_2 1_555 1_555
C31_2 N3_2 1_555 1_555
H22_2 C31_2 1_555 1_555
C32_2 C28_2 1_555 1_555
H23_2 C32_2 1_555 1_555
Co5 N3_2 1_555 1_555
C31_2 C32_2 1_555 1_555
O9_3 C24_3 1_555 1_555
N6 C30_3 1_555 1_555
N8_2 C35_3 1_555 1_555
H15_3 C22_3 1_555 1_555
C23_3 C22_3 1_555 1_555
C24_3 C23_3 1_555 1_555
C25_3 C24_3 1_555 1_555
C27_3 O9_3 1_555 1_555
H17_3 C27_3 1_555 1_555
H18_3 C27_3 1_555 1_555
H19_3 C27_3 1_555 1_555
C28_3 C23_3 1_555 1_555
C29_3 C28_3 1_555 1_555
H20_3 C29_3 1_555 1_555
C30_3 C29_3 1_555 1_555
H21_3 C30_3 1_555 1_555
C31_3 N6 1_555 1_555
H22_3 C31_3 1_555 1_555
C32_3 C28_3 1_555 1_555
H23_3 C32_3 1_555 1_555
C33_3 C25_3 1_555 1_555
C34_3 C33_3 1_555 1_555
H24_3 C34_3 1_555 1_555
C35_3 C34_3 1_555 1_555
H25_3 C35_3 1_555 1_555
C36_3 N8_2 1_555 1_555
H26_3 C36_3 1_555 1_555
C37_3 C33_3 1_555 1_555
H27_3 C37_3 1_555 1_555
C25_3 C26_3 1_555 1_555
C31_3 C32_3 1_555 1_555
C36_3 C37_3 1_555 1_555
O1_4 Co4 1_555 1_555
O6_3 C19_3 1_555 1_555
H14_3 C19_3 1_555 1_555
Co4 O6_3 1_555 1_555
O7_3 C20_3 1_555 1_555
O8_3 Co4 1_555 1_555
O10_3 Co4 1_555 1_555
C20_3 O8_3 1_555 1_555
C21_3 C20_3 1_555 1_555
Co3 O1_5 1_555 1_555
O2_3 C1_3 1_555 1_555
O3_3 Co3 1_555 1_555
O4_3 C5_3 1_555 1_555
O5_3 Co3 1_555 1_555
N5 C11_3 1_555 1_555
N7_2 C16_3 1_555 1_555
C1_3 O3_3 1_555 1_555
C2_3 C1_3 1_555 1_555
C3_3 C2_3 1_555 1_555
H1_3 C3_3 1_555 1_555
C4_3 C3_3 1_555 1_555
C5_3 C4_3 1_555 1_555
C6_3 C5_3 1_555 1_555
C7_3 C2_3 1_555 1_555
H2_3 C7_3 1_555 1_555
C8_3 O4_3 1_555 1_555
H3_3 C8_3 1_555 1_555
H4_3 C8_3 1_555 1_555
H5_3 C8_3 1_555 1_555
C9_3 C4_3 1_555 1_555
C10_3 C9_3 1_555 1_555
H6_3 C10_3 1_555 1_555
C11_3 C10_3 1_555 1_555
H7_3 C11_3 1_555 1_555
C12_3 N5 1_555 1_555
H8_3 C12_3 1_555 1_555
C13_3 C9_3 1_555 1_555
H9_3 C13_3 1_555 1_555
C14_3 C6_3 1_555 1_555
C15_3 C14_3 1_555 1_555
H10_3 C15_3 1_555 1_555
C16_3 C15_3 1_555 1_555
H11_3 C16_3 1_555 1_555
C17_3 N7_2 1_555 1_555
H12_3 C17_3 1_555 1_555
C18_3 C14_3 1_555 1_555
H13_3 C18_3 1_555 1_555
O11_3 Co3 1_555 1_555
H28_3 C38_3 1_555 1_555
C6_3 C7_3 1_555 1_555
C12_3 C13_3 1_555 1_555
C17_3 C18_3 1_555 1_555
O11_3 C38_3 1_555 1_555
N6_2 C30_4 1_555 1_555
C27_4 O9_4 1_555 1_555
H17_4 C27_4 1_555 1_555
H18_4 C27_4 1_555 1_555
H19_4 C27_4 1_555 1_555
C28_4 C23_4 1_555 1_555
C29_4 C28_4 1_555 1_555
H20_4 C29_4 1_555 1_555
C30_4 C29_4 1_555 1_555
H21_4 C30_4 1_555 1_555
C31_4 N6_2 1_555 1_555
H22_4 C31_4 1_555 1_555
C32_4 C28_4 1_555 1_555
H23_4 C32_4 1_555 1_555
C31_4 C32_4 1_555 1_555
N5_2 C11_4 1_555 1_555
C8_4 O4_4 1_555 1_555
H3_4 C8_4 1_555 1_555
H4_4 C8_4 1_555 1_555
H5_4 C8_4 1_555 1_555
C9_4 C4_4 1_555 1_555
C10_4 C9_4 1_555 1_555
H6_4 C10_4 1_555 1_555
C11_4 C10_4 1_555 1_555
H7_4 C11_4 1_555 1_555
C12_4 N5_2 1_555 1_555
H8_4 C12_4 1_555 1_555
C13_4 C9_4 1_555 1_555
H9_4 C13_4 1_555 1_555
C12_4 C13_4 1_555 1_555
N8 C35_4 1_555 1_555
H15_4 C22_4 1_555 1_555
C25_4 C24_4 1_555 1_555
C33_4 C25_4 1_555 1_555
C34_4 C33_4 1_555 1_555
H24_4 C34_4 1_555 1_555
C35_4 C34_4 1_555 1_555
H25_4 C35_4 1_555 1_555
C36_4 N8 1_555 1_555
H26_4 C36_4 1_555 1_555
C37_4 C33_4 1_555 1_555
H27_4 C37_4 1_555 1_555
C25_4 C26_4 1_555 1_555
C36_4 C37_4 1_555 1_555
Co5 O1_6 1_555 1_555
O1_6 Co6 1_555 1_555
O2_4 C1_4 1_555 1_555
O3_4 Co5 1_555 1_555
O5_4 Co5 1_555 1_555
O6_4 C19_4 1_555 1_555
N7 C16_4 1_555 1_555
C1_4 O3_4 1_555 1_555
C2_4 C1_4 1_555 1_555
C3_4 C2_4 1_555 1_555
H1_4 C3_4 1_555 1_555
C6_4 C5_4 1_555 1_555
C7_4 C2_4 1_555 1_555
H2_4 C7_4 1_555 1_555
C14_4 C6_4 1_555 1_555
C15_4 C14_4 1_555 1_555
H10_4 C15_4 1_555 1_555
C16_4 C15_4 1_555 1_555
H11_4 C16_4 1_555 1_555
C17_4 N7 1_555 1_555
H12_4 C17_4 1_555 1_555
C18_4 C14_4 1_555 1_555
H13_4 C18_4 1_555 1_555
C19_4 O5_4 1_555 1_555
H14_4 C19_4 1_555 1_555
Co6 O6_4 1_555 1_555
O7_4 C20_4 1_555 1_555
O8_4 Co6 1_555 1_555
O10_4 Co6 1_555 1_555
O11_4 Co5 1_555 1_555
C20_4 O8_4 1_555 1_555
C21_4 C20_4 1_555 1_555
C38_4 O10_4 1_555 1_555
H28_4 C38_4 1_555 1_555
C6_4 C7_4 1_555 1_555
C17_4 C18_4 1_555 1_555
O11_4 C38_4 1_555 1_555

#END
