
###############################################################################
#
# This file contains modified crystal structure data generated from the
# MOF subset of the Cambridge Structural Database (CSD) v543 
# hosted by the Cambridge Crystallographic Data Centre (CCDC).
#
# This work is licensed under the Creative Commons
# Attribution-NonCommercial-ShareAlike 4.0 International License.
# To view a copy of this license, visit
# http://creativecommons.org/licenses/by-nc-sa/4.0/
# or send a letter to
# Creative Commons, PO Box 1866, Mountain View, CA 94042, USA.
#
# CIF created using the CSD Python API on 29 September 2022
# The structure has been converted into the P1 space group
# The structure has a 3D framework
# The original CSD entry SUPGIW is in the monoclinic crystal system
# The framework has been calculated to contain at least 10.0% void space
# The void calculation uses a probe of radius 1.32A, grid spacing 0.4
# The framework is charged, counterions have been retained in the structure
#
###############################################################################

data_SUPGIW
_chemical_formula_moiety         '(C84 H36 Cd6 N4 O32 4-)n'
_symmetry_cell_setting           triclinic
_symmetry_space_group_name_H-M   'P 1'
_symmetry_Int_Tables_number      1
_space_group_name_Hall           'P 1'
loop_
_symmetry_equiv_pos_site_id
_symmetry_equiv_pos_as_xyz
1 x,y,z
_cell_length_a                   14.423(3)
_cell_length_b                   13.066(2)
_cell_length_c                   16.263(3)
_cell_angle_alpha                90
_cell_angle_beta                 90.933(5)
_cell_angle_gamma                90
_cell_volume                     3064.37
loop_
_atom_site_label
_atom_site_type_symbol
_atom_site_fract_x
_atom_site_fract_y
_atom_site_fract_z
Cd13 Cd 0.000000 0.000000 0.500000
Cd13_2 Cd 0.000000 1.000000 0.500000
Cd1 Cd 0.24844(2) 0.02067(2) 0.49172(2)
O19 O 0.19354(12) 0.09490(15) 0.37380(11)
O23 O 0.23103(16) 0.1544(2) 0.58724(13)
N4 N 0.39496(13) 0.09142(16) 0.48011(12)
Cd6 Cd 0.25156(2) 0.52067(2) 0.00828(2)
Cd11 Cd 0.500000 0.500000 0.000000
O1 O 0.30768(12) 0.93624(14) 0.60873(10)
O2 O 0.45208(14) 0.53630(16) 0.12495(11)
O3 O 0.30646(12) 0.59490(15) 0.12620(11)
O4 O 0.12774(11) 0.89327(14) 0.50763(11)
O5 O 0.26897(16) 0.6544(2) 0.91276(13)
O6 O 0.31122(12) 0.89893(14) 0.41002(11)
O7 O 0.21087(13) 0.77067(17) 0.39888(15)
N1 N 0.60504(13) 0.90858(16) 0.51989(12)
O8 O 0.20675(12) 0.81336(17) 0.63866(13)
C1 C 0.48632(15) 0.83225(19) 0.60099(14)
C2 C 0.44760(15) 0.78950(18) 0.52975(14)
H1 H 0.394401 0.749588 0.533059
C3 C 0.48770(15) 0.80600(18) 0.45421(14)
O9 O 0.4108(2) 0.6264(3) 0.95302(15)
C4 C 0.36392(15) 0.74794(17) 0.34972(14)
C5 C 0.45656(15) 0.75297(19) 0.37736(14)
C6 C 0.45038(16) 0.8056(2) 0.68357(14)
C7 C 0.56562(16) 0.8913(2) 0.59250(14)
H2 H 0.592540 0.920219 0.639384
C8 C 0.41003(16) 0.64382(19) 0.23354(14)
C9 C 0.28862(15) 0.81031(19) 0.39054(14)
C10 C 0.28500(15) 0.85656(19) 0.64442(14)
C11 C 0.35556(15) 0.80735(18) 0.70170(13)
C12 C 0.32573(15) 0.76423(19) 0.77496(14)
H3 H 0.262776 0.764216 0.786461
C13 C 0.34195(15) 0.69241(18) 0.27883(14)
H4 H 0.280342 0.687771 0.261447
C14 C 0.38770(17) 0.7213(2) 0.83112(15)
C15 C 0.38719(17) 0.58727(18) 0.15446(14)
C16 C 0.56617(16) 0.8669(2) 0.45259(14)
H5 H 0.593266 0.879505 0.402086
C17 C 0.52407(17) 0.7032(2) 0.33163(16)
H6 H 0.585681 0.706131 0.349257
C18 C 0.3523(2) 0.6631(2) 0.90453(15)
C19 C 0.50157(17) 0.6497(2) 0.26077(16)
H7 H 0.547924 0.617564 0.231230
C20 C 0.48162(19) 0.7256(3) 0.81557(17)
H8 H 0.524154 0.700714 0.854224
C21 C 0.51237(18) 0.7670(3) 0.74253(17)
H9 H 0.575660 0.769055 0.732576
Cd7 Cd 0.75156(2) 0.97933(2) 0.50828(2)
Cd11_2 Cd 0.500000 0.500000 1.000000
O22 O 0.62774(11) 0.60673(14) 0.00763(11)
O26 O 0.5892(2) 0.3736(3) 0.04698(15)
O10 O 0.69232(12) 0.06376(14) 0.39127(10)
O11 O 0.54792(14) 0.46370(16) 0.87505(11)
O12 O 0.69354(12) 0.40510(15) 0.87380(11)
O13 O 0.87226(11) 0.10673(14) 0.49237(11)
O14 O 0.73103(16) 0.3456(2) 0.08724(13)
O15 O 0.68878(12) 0.10107(14) 0.58998(11)
O16 O 0.78913(13) 0.22933(17) 0.60112(15)
O17 O 0.79325(12) 0.18664(17) 0.36134(13)
C22 C 0.51368(15) 0.16775(19) 0.39901(14)
C23 C 0.55240(15) 0.21050(18) 0.47025(14)
H10 H 0.605599 0.250412 0.466941
C24 C 0.51230(15) 0.19400(18) 0.54579(14)
C25 C 0.63608(15) 0.25206(17) 0.65028(14)
C26 C 0.54344(15) 0.24703(19) 0.62264(14)
C27 C 0.54962(16) 0.1944(2) 0.31643(14)
C28 C 0.43438(16) 0.1087(2) 0.40750(14)
H11 H 0.407460 0.079781 0.360616
C29 C 0.58997(16) 0.35618(19) 0.76646(14)
C30 C 0.71138(15) 0.18969(19) 0.60946(14)
C31 C 0.71500(15) 0.14344(19) 0.35558(14)
C32 C 0.64444(15) 0.19265(18) 0.29830(13)
C33 C 0.67427(15) 0.23577(19) 0.22504(14)
H12 H 0.737224 0.235784 0.213539
C34 C 0.65805(15) 0.30759(18) 0.72117(14)
H13 H 0.719658 0.312229 0.738553
C35 C 0.61230(17) 0.2787(2) 0.16888(15)
C36 C 0.61281(17) 0.41273(18) 0.84554(14)
C37 C 0.43383(16) 0.1331(2) 0.54741(14)
H14 H 0.406734 0.120495 0.597914
C38 C 0.47593(17) 0.2968(2) 0.66837(16)
H15 H 0.414319 0.293869 0.650743
C39 C 0.6477(2) 0.3369(2) 0.09547(15)
C40 C 0.49843(17) 0.3503(2) 0.73923(16)
H16 H 0.452076 0.382436 0.768770
C41 C 0.51838(19) 0.2744(3) 0.18443(17)
H17 H 0.475846 0.299286 0.145776
C42 C 0.48763(18) 0.2330(3) 0.25747(17)
H18 H 0.424340 0.230945 0.267424
Cd9 Cd 0.74844(2) 0.47933(2) 0.99172(2)
Cd13_3 Cd 1.000000 0.000000 0.500000
O21 O 0.37226(11) 0.39327(14) 0.99237(11)
Cd13_4 Cd 1.000000 1.000000 0.500000
O20 O 0.80646(12) 0.90510(15) 0.62620(11)
O24 O 0.76897(16) 0.8456(2) 0.41276(13)
O2_2 O 0.04792(14) 0.03630(16) 0.37505(11)
O6_2 O 0.18878(12) 0.39893(14) 0.08998(11)
O7_2 O 0.28913(13) 0.27067(17) 0.10112(15)
C3_2 C 0.01230(15) 0.30600(18) 0.04579(14)
C4_2 C 0.13608(15) 0.24794(17) 0.15028(14)
C5_2 C 0.04344(15) 0.25297(19) 0.12264(14)
C8_2 C 0.08997(16) 0.14382(19) 0.26646(14)
C9_2 C 0.21138(15) 0.31031(19) 0.10946(14)
C13_2 C 0.15805(15) 0.19241(18) 0.22117(14)
H4_2 H 0.219658 0.187771 0.238553
C15_2 C 0.11281(17) 0.08727(18) 0.34554(14)
N4_2 N 0.10504(13) 0.59142(16) 0.01989(12)
O25 O 0.0892(2) 0.1264(3) 0.54698(15)
O1_2 O 0.19232(12) 0.43624(14) 0.89127(10)
O8_2 O 0.29325(12) 0.31336(17) 0.86134(13)
C1_2 C 0.01368(15) 0.33225(19) 0.89901(14)
C2_2 C 0.05240(15) 0.28950(18) 0.97025(14)
H1_2 H 0.105599 0.249588 0.966941
C6_2 C 0.04962(16) 0.3056(2) 0.81643(14)
C10_2 C 0.21500(15) 0.35656(19) 0.85558(14)
C11_2 C 0.14444(15) 0.30735(18) 0.79830(13)
C12_2 C 0.17427(15) 0.26423(19) 0.72504(14)
H3_2 H 0.237224 0.264216 0.713539
C14_2 C 0.11230(17) 0.2213(2) 0.66888(15)
C18_2 C 0.1477(2) 0.1631(2) 0.59547(15)
C20_2 C 0.01838(19) 0.2256(3) 0.68443(17)
C28_2 C 0.06562(16) 0.6087(2) 0.09250(14)
H11_2 H 0.092540 0.579781 0.139384
H17_2 H 0.024154 0.799286 0.354224
C42_2 C 0.01237(18) 0.7330(3) 0.24253(17)
H18_2 H 0.075660 0.730945 0.232576
C37_2 C 0.06617(16) 0.6331(2) 0.95259(14)
H14_2 H 0.093266 0.620495 0.902086
C38_2 C 0.02407(17) 0.7968(2) 0.83163(16)
H15_2 H 0.085681 0.793869 0.849257
C40_2 C 0.00157(17) 0.8503(2) 0.76077(16)
H16_2 H 0.047924 0.882436 0.731230
C16_2 C 0.93383(16) 0.3669(2) 0.04741(14)
H5_2 H 0.906734 0.379505 0.097914
C17_2 C 0.97593(17) 0.2032(2) 0.16837(16)
H6_2 H 0.914319 0.206131 0.150743
C19_2 C 0.99843(17) 0.1497(2) 0.23923(16)
H7_2 H 0.952076 0.117564 0.268770
N1_2 N 0.89496(13) 0.40858(16) 0.98011(12)
C7_2 C 0.93438(16) 0.3913(2) 0.90750(14)
H2_2 H 0.907460 0.420219 0.860616
H8_2 H 0.975846 0.200714 0.645776
C21_2 C 0.98763(18) 0.2670(3) 0.75747(17)
H9_2 H 0.924340 0.269055 0.767424
O10_2 O 0.80768(12) 0.56376(14) 0.10873(10)
O17_2 O 0.70675(12) 0.68664(17) 0.13866(13)
C22_2 C 0.98632(15) 0.66775(19) 0.10099(14)
C23_2 C 0.94760(15) 0.71050(18) 0.02975(14)
H10_2 H 0.894401 0.750412 0.033059
O18 O 0.9108(2) 0.8736(3) 0.45302(15)
C27_2 C 0.95038(16) 0.6944(2) 0.18357(14)
C31_2 C 0.78500(15) 0.64344(19) 0.14442(14)
C32_2 C 0.85556(15) 0.69265(18) 0.20170(13)
C33_2 C 0.82573(15) 0.73577(19) 0.27496(14)
H12_2 H 0.762776 0.735784 0.286461
C35_2 C 0.88770(17) 0.7787(2) 0.33112(15)
C39_2 C 0.8523(2) 0.8369(2) 0.40453(15)
C41_2 C 0.98162(19) 0.7744(3) 0.31557(17)
O11_2 O 0.95208(14) 0.96370(16) 0.62495(11)
O15_2 O 0.81122(12) 0.60107(14) 0.91002(11)
O16_2 O 0.71087(13) 0.72933(17) 0.89888(15)
C24_2 C 0.98770(15) 0.69400(18) 0.95421(14)
C25_2 C 0.86392(15) 0.75206(17) 0.84972(14)
C26_2 C 0.95656(15) 0.74703(19) 0.87736(14)
C29_2 C 0.91003(16) 0.85618(19) 0.73354(14)
C30_2 C 0.78862(15) 0.68969(19) 0.89054(14)
C34_2 C 0.84195(15) 0.80759(18) 0.77883(14)
H13_2 H 0.780342 0.812229 0.761447
C36_2 C 0.88719(17) 0.91273(18) 0.65446(14)
loop_
_geom_bond_atom_site_label_1
_geom_bond_atom_site_label_2
_geom_bond_site_symmetry_1
_geom_bond_site_symmetry_2
O19 Cd1 1_555 1_555
O23 Cd1 1_555 1_555
N4 Cd1 1_555 1_555
Cd11 O2 1_555 1_555
O1 C10 1_555 1_555
O2 C15 1_555 1_555
O3 C15 1_555 1_555
O5 C18 1_555 1_555
O7 C9 1_555 1_555
N1 C7 1_555 1_555
O8 C10 1_555 1_555
C1 C2 1_555 1_555
C2 H1 1_555 1_555
C3 C2 1_555 1_555
O9 C18 1_555 1_555
C4 C5 1_555 1_555
C5 C3 1_555 1_555
C6 C1 1_555 1_555
C7 C1 1_555 1_555
H2 C7 1_555 1_555
C8 C13 1_555 1_555
C9 O6 1_555 1_555
C10 C11 1_555 1_555
C11 C6 1_555 1_555
C12 C11 1_555 1_555
H3 C12 1_555 1_555
C13 C4 1_555 1_555
H4 C13 1_555 1_555
C14 C12 1_555 1_555
C15 C8 1_555 1_555
C16 N1 1_555 1_555
H5 C16 1_555 1_555
C17 C5 1_555 1_555
H6 C17 1_555 1_555
C18 C14 1_555 1_555
C19 C8 1_555 1_555
H7 C19 1_555 1_555
C20 C14 1_555 1_555
H8 C20 1_555 1_555
C21 C6 1_555 1_555
H9 C21 1_555 1_555
Cd6 O3 1_555 1_555
Cd7 N1 1_555 1_555
Cd11_2 O9 1_555 1_555
Cd13_2 O4 1_555 1_555
O22 Cd11 1_555 1_555
O26 Cd11 1_555 1_555
C3 C16 1_555 1_555
C4 C9 1_555 1_555
C17 C19 1_555 1_555
C20 C21 1_555 1_555
O10 C31 1_555 1_555
O11 Cd11_2 1_555 1_555
O12 C36 1_555 1_555
O14 C39 1_555 1_555
O16 C30 1_555 1_555
N4 C28 1_555 1_555
O17 C31 1_555 1_555
C22 C23 1_555 1_555
C23 H10 1_555 1_555
C24 C23 1_555 1_555
O26 C39 1_555 1_555
C25 C26 1_555 1_555
C26 C24 1_555 1_555
C27 C22 1_555 1_555
C28 C22 1_555 1_555
H11 C28 1_555 1_555
C29 C34 1_555 1_555
C30 O15 1_555 1_555
C31 C32 1_555 1_555
C32 C27 1_555 1_555
C33 C32 1_555 1_555
H12 C33 1_555 1_555
C34 C25 1_555 1_555
H13 C34 1_555 1_555
C35 C33 1_555 1_555
C36 O11 1_555 1_555
C37 N4 1_555 1_555
H14 C37 1_555 1_555
C38 C26 1_555 1_555
H15 C38 1_555 1_555
C39 C35 1_555 1_555
C40 C29 1_555 1_555
H16 C40 1_555 1_555
C41 C35 1_555 1_555
H17 C41 1_555 1_555
C42 C27 1_555 1_555
H18 C42 1_555 1_555
Cd9 O12 1_555 1_555
Cd13_3 O13 1_555 1_555
O21 Cd11_2 1_555 1_555
C24 C37 1_555 1_555
C25 C30 1_555 1_555
C29 C36 1_555 1_555
C38 C40 1_555 1_555
C41 C42 1_555 1_555
O20 Cd7 1_555 1_555
O24 Cd7 1_555 1_555
Cd13 O2_2 1_555 1_555
O2_2 C15_2 1_555 1_555
O19 C15_2 1_555 1_555
O6_2 Cd6 1_555 1_555
O7_2 C9_2 1_555 1_555
C4_2 C5_2 1_555 1_555
C5_2 C3_2 1_555 1_555
C8_2 C13_2 1_555 1_555
C9_2 O6_2 1_555 1_555
C13_2 C4_2 1_555 1_555
H4_2 C13_2 1_555 1_555
C15_2 C8_2 1_555 1_555
N4_2 Cd6 1_555 1_555
O25 Cd13 1_555 1_555
C4_2 C9_2 1_555 1_555
O1_2 C10_2 1_555 1_555
O23 C18_2 1_555 1_555
O8_2 C10_2 1_555 1_555
C1_2 C2_2 1_555 1_555
C2_2 H1_2 1_555 1_555
O25 C18_2 1_555 1_555
C6_2 C1_2 1_555 1_555
C10_2 C11_2 1_555 1_555
C11_2 C6_2 1_555 1_555
C12_2 C11_2 1_555 1_555
H3_2 C12_2 1_555 1_555
C14_2 C12_2 1_555 1_555
C18_2 C14_2 1_555 1_555
C20_2 C14_2 1_555 1_555
N4_2 C28_2 1_555 1_555
H11_2 C28_2 1_555 1_555
H18_2 C42_2 1_555 1_555
H14_2 C37_2 1_555 1_555
H15_2 C38_2 1_555 1_555
H16_2 C40_2 1_555 1_555
C38_2 C40_2 1_555 1_555
H5_2 C16_2 1_555 1_555
H6_2 C17_2 1_555 1_555
H7_2 C19_2 1_555 1_555
C17_2 C19_2 1_555 1_555
N1_2 C7_2 1_555 1_555
H2_2 C7_2 1_555 1_555
H9_2 C21_2 1_555 1_555
Cd9 N1_2 1_555 1_555
O10_2 C31_2 1_555 1_555
O24 C39_2 1_555 1_555
O17_2 C31_2 1_555 1_555
C22_2 C23_2 1_555 1_555
C23_2 H10_2 1_555 1_555
O18 C39_2 1_555 1_555
C27_2 C22_2 1_555 1_555
C31_2 C32_2 1_555 1_555
C32_2 C27_2 1_555 1_555
C33_2 C32_2 1_555 1_555
H12_2 C33_2 1_555 1_555
C35_2 C33_2 1_555 1_555
C39_2 C35_2 1_555 1_555
C41_2 C35_2 1_555 1_555
Cd13_4 O18 1_555 1_555
O11_2 Cd13_4 1_555 1_555
O20 C36_2 1_555 1_555
O15_2 Cd9 1_555 1_555
O16_2 C30_2 1_555 1_555
C25_2 C26_2 1_555 1_555
C26_2 C24_2 1_555 1_555
C29_2 C34_2 1_555 1_555
C30_2 O15_2 1_555 1_555
C34_2 C25_2 1_555 1_555
H13_2 C34_2 1_555 1_555
C36_2 O11_2 1_555 1_555
C25_2 C30_2 1_555 1_555
C29_2 C36_2 1_555 1_555

#END
