
###############################################################################
#
# This file contains modified crystal structure data generated from the
# MOF subset of the Cambridge Structural Database (CSD) v543 
# hosted by the Cambridge Crystallographic Data Centre (CCDC).
#
# This work is licensed under the Creative Commons
# Attribution-NonCommercial-ShareAlike 4.0 International License.
# To view a copy of this license, visit
# http://creativecommons.org/licenses/by-nc-sa/4.0/
# or send a letter to
# Creative Commons, PO Box 1866, Mountain View, CA 94042, USA.
#
# CIF created using the CSD Python API on 29 September 2022
# The structure has been converted into the P1 space group
# The structure has a 3D framework
# The original CSD entry SUPKOG is in the tetragonal crystal system
# The framework has been calculated to contain at least 10.0% void space
# The void calculation uses a probe of radius 1.32A, grid spacing 0.4
# H atom positions have been added when not included in the experimental data
#
###############################################################################

data_SUPKOG
_chemical_formula_moiety         '(C96 H80 K3 O106 Zn22)n'
_symmetry_cell_setting           triclinic
_symmetry_space_group_name_H-M   'P 1'
_symmetry_Int_Tables_number      1
_space_group_name_Hall           'P 1'
loop_
_symmetry_equiv_pos_site_id
_symmetry_equiv_pos_as_xyz
1 x,y,z
_cell_length_a                   12.8873(10)
_cell_length_b                   12.8873(10)
_cell_length_c                   30.445(4)
_cell_angle_alpha                90
_cell_angle_beta                 90
_cell_angle_gamma                90
_cell_volume                     5056.38
loop_
_atom_site_label
_atom_site_type_symbol
_atom_site_fract_x
_atom_site_fract_y
_atom_site_fract_z
Zn2 Zn 0.500000 -0.000000 0.44190(3)
O1 O 0.6107(4) 0.0096(4) 0.35883(14)
Zn3 Zn 0.44951(6) 0.10616(6) 0.20965(2)
O9 O 0.4450(4) 0.1012(4) 0.27887(14)
O10 O 0.4601(4) 0.2649(4) 0.20848(14)
O11 O 0.6072(4) 0.2038(4) 0.31103(16)
O12 O 0.4285(4) 0.1106(4) 0.40891(15)
O13 O 0.4167(4) 0.4199(4) 0.23552(17)
O14 O 0.5110(5) 0.3338(5) 0.3360(2)
C7 C 0.4156(5) 0.3203(5) 0.2365(2)
C8 C 0.5202(6) 0.2490(6) 0.3181(2)
C9 C 0.3933(5) 0.0831(5) 0.3717(2)
C10 C 0.4184(5) 0.1930(5) 0.3021(2)
C11 C 0.3496(5) 0.1689(6) 0.3426(2)
H5 H 0.342075 0.232818 0.360367
H6 H 0.279644 0.148308 0.332425
C12 C 0.3542(6) 0.2709(5) 0.2733(2)
H7 H 0.294224 0.233615 0.260445
H8 H 0.326595 0.326362 0.292487
Zn5 Zn 0.60616(6) 0.05049(6) 0.29035(2)
Zn7 Zn 0.500000 0.500000 0.19190(3)
K2 K 0.750000 0.16785(18) 0.375000
K4 K 0.33215(18) 0.250000 0.125000
O17 O 0.4904(4) 0.1107(4) 0.14117(14)
O19 O 0.6012(4) 0.0550(4) 0.22113(14)
O23 O 0.2962(4) 0.1072(4) 0.18897(16)
O26 O 0.5801(4) 0.0833(4) 0.48552(17)
Zn1 Zn 0.55049(6) 0.89384(6) 0.20965(2)
Zn2_2 Zn 0.500000 1.000000 0.44190(3)
K1 K 0.250000 0.83215(18) 0.375000
O2 O 0.5550(4) 0.8988(4) 0.27887(14)
O3 O 0.5399(4) 0.7351(4) 0.20848(14)
O4 O 0.3928(4) 0.7962(4) 0.31103(16)
O5 O 0.5715(4) 0.8894(4) 0.40891(15)
O6 O 0.5833(4) 0.5801(4) 0.23552(17)
O7 O 0.4890(5) 0.6662(5) 0.3360(2)
C1 C 0.5844(5) 0.6797(5) 0.2365(2)
C2 C 0.4798(6) 0.7510(6) 0.3181(2)
C3 C 0.6067(5) 0.9169(5) 0.3717(2)
C4 C 0.5816(5) 0.8070(5) 0.3021(2)
C5 C 0.6504(5) 0.8311(6) 0.3426(2)
H1 H 0.657925 0.767182 0.360367
H2 H 0.720356 0.851692 0.332425
C6 C 0.6458(6) 0.7291(5) 0.2733(2)
H3 H 0.705776 0.766385 0.260445
H4 H 0.673405 0.673638 0.292487
O8 O 0.3893(4) 0.9904(4) 0.35883(14)
Zn4 Zn 0.39384(6) 0.94951(6) 0.29035(2)
K3 K 0.66785(18) 0.750000 0.125000
O15 O 0.1107(4) 0.9904(4) 0.39117(14)
O16 O 0.5096(4) 0.8893(4) 0.14117(14)
O18 O 0.3988(4) 0.9450(4) 0.22113(14)
O20 O 0.2351(4) 0.9601(4) 0.29152(14)
O21 O 0.2649(4) 0.9601(4) 0.45848(14)
O22 O 0.1072(4) 0.7962(4) 0.43897(16)
O24 O 0.7038(4) 0.8928(4) 0.18897(16)
O25 O 0.4199(4) 0.9167(4) 0.48552(17)
H9 H 0.451419 0.612854 0.318655
O15_2 O 0.8893(4) 0.0096(4) 0.39117(14)
O20_2 O 0.7649(4) 0.0399(4) 0.29152(14)
O21_2 O 0.7351(4) 0.0399(4) 0.45848(14)
O22_2 O 0.8928(4) 0.2038(4) 0.43897(16)
H9_2 H 0.548581 0.387146 0.318655
Zn2_3 Zn -0.000000 0.500000 0.55810(3)
O1_2 O 0.0096(4) 0.3893(4) 0.64117(14)
Zn3_2 Zn 0.10616(6) 0.55049(6) 0.79035(2)
O9_2 O 0.1012(4) 0.5550(4) 0.72113(14)
O10_2 O 0.2649(4) 0.5399(4) 0.79152(14)
O11_2 O 0.2038(4) 0.3928(4) 0.68897(16)
O12_2 O 0.1106(4) 0.5715(4) 0.59109(15)
O13_2 O 0.4199(4) 0.5833(4) 0.76448(17)
O14_2 O 0.3338(5) 0.4890(5) 0.6640(2)
C7_2 C 0.3203(5) 0.5844(5) 0.7635(2)
C8_2 C 0.2490(6) 0.4798(6) 0.6819(2)
C9_2 C 0.0831(5) 0.6067(5) 0.6283(2)
C10_2 C 0.1930(5) 0.5816(5) 0.6979(2)
C11_2 C 0.1689(6) 0.6504(5) 0.6574(2)
H5_2 H 0.232818 0.657925 0.639633
H6_2 H 0.148308 0.720356 0.667575
C12_2 C 0.2709(5) 0.6458(6) 0.7267(2)
H7_2 H 0.233615 0.705776 0.739555
H8_2 H 0.326362 0.673405 0.707513
Zn5_2 Zn 0.05049(6) 0.39384(6) 0.70965(2)
Zn7_2 Zn 0.500000 0.500000 0.80810(3)
K2_2 K 0.16785(18) 0.250000 0.625000
K4_2 K 0.250000 0.66785(18) 0.875000
O17_2 O 0.1107(4) 0.5096(4) 0.85883(14)
O19_2 O 0.0550(4) 0.3988(4) 0.77887(14)
O23_2 O 0.1072(4) 0.7038(4) 0.81103(16)
O26_2 O 0.0833(4) 0.4199(4) 0.51448(17)
Zn1_2 Zn 0.89384(6) 0.44951(6) 0.79035(2)
Zn2_4 Zn 1.000000 0.500000 0.55810(3)
K1_2 K 0.83215(18) 0.750000 0.625000
O2_2 O 0.8988(4) 0.4450(4) 0.72113(14)
O3_2 O 0.7351(4) 0.4601(4) 0.79152(14)
O4_2 O 0.7962(4) 0.6072(4) 0.68897(16)
O5_2 O 0.8894(4) 0.4285(4) 0.59109(15)
O6_2 O 0.5801(4) 0.4167(4) 0.76448(17)
O7_2 O 0.6662(5) 0.5110(5) 0.6640(2)
C1_2 C 0.6797(5) 0.4156(5) 0.7635(2)
C2_2 C 0.7510(6) 0.5202(6) 0.6819(2)
C3_2 C 0.9169(5) 0.3933(5) 0.6283(2)
C4_2 C 0.8070(5) 0.4184(5) 0.6979(2)
C5_2 C 0.8311(6) 0.3496(5) 0.6574(2)
H1_2 H 0.767182 0.342075 0.639633
H2_2 H 0.851692 0.279644 0.667575
C6_2 C 0.7291(5) 0.3542(6) 0.7267(2)
H3_2 H 0.766385 0.294224 0.739555
H4_2 H 0.673638 0.326595 0.707513
O8_2 O 0.9904(4) 0.6107(4) 0.64117(14)
Zn4_2 Zn 0.94951(6) 0.60616(6) 0.70965(2)
K3_2 K 0.750000 0.33215(18) 0.875000
O15_3 O 0.9904(4) 0.8893(4) 0.60883(14)
O16_2 O 0.8893(4) 0.4904(4) 0.85883(14)
O18_2 O 0.9450(4) 0.6012(4) 0.77887(14)
O20_3 O 0.9601(4) 0.7649(4) 0.70848(14)
O21_3 O 0.9601(4) 0.7351(4) 0.54152(14)
O22_3 O 0.7962(4) 0.8928(4) 0.56103(16)
O24_2 O 0.8928(4) 0.2962(4) 0.81103(16)
O25_2 O 0.9167(4) 0.5801(4) 0.51448(17)
H9_3 H 0.612854 0.548581 0.681345
O15_4 O 0.0096(4) 0.1107(4) 0.60883(14)
O20_4 O 0.0399(4) 0.2351(4) 0.70848(14)
O21_4 O 0.0399(4) 0.2649(4) 0.54152(14)
O22_4 O 0.2038(4) 0.1072(4) 0.56103(16)
H9_4 H 0.387146 0.451419 0.681345
Zn2_5 Zn 0.000000 -0.000000 0.30810(3)
Zn3_3 Zn 0.05049(6) 0.10616(6) 0.54035(2)
O9_3 O 0.0550(4) 0.1012(4) 0.47113(14)
O12_3 O 0.0715(4) 0.1106(4) 0.34109(15)
C7_3 C 0.0844(5) 0.3203(5) 0.5135(2)
C9_3 C 0.1067(5) 0.0831(5) 0.3783(2)
C10_3 C 0.0816(5) 0.1930(5) 0.4479(2)
C11_3 C 0.1504(5) 0.1689(6) 0.4074(2)
H5_3 H 0.157925 0.232818 0.389633
H6_3 H 0.220356 0.148308 0.417575
C12_3 C 0.1458(6) 0.2709(5) 0.4767(2)
H7_3 H 0.205776 0.233615 0.489555
H8_3 H 0.173405 0.326362 0.457513
Zn2_6 Zn 0.000000 1.000000 0.30810(3)
O7_3 O 0.0110(5) 0.6662(5) 0.4140(2)
C2_3 C 0.0202(6) 0.7510(6) 0.4319(2)
Zn4_3 Zn 0.10616(6) 0.94951(6) 0.45965(2)
O18_3 O 0.1012(4) 0.9450(4) 0.52887(14)
O25_3 O 0.0801(4) 0.9167(4) 0.26448(17)
H9_5 H 0.0485808 0.612854 0.431345
Zn2_7 Zn 1.000000 -0.000000 0.30810(3)
O14_3 O 0.9890(5) 0.3338(5) 0.4140(2)
C8_3 C 0.9798(6) 0.2490(6) 0.4319(2)
Zn5_3 Zn 0.89384(6) 0.05049(6) 0.45965(2)
O19_3 O 0.8988(4) 0.0550(4) 0.52887(14)
O26_3 O 0.9199(4) 0.0833(4) 0.26448(17)
Zn1_3 Zn 0.94951(6) 0.89384(6) 0.54035(2)
Zn2_8 Zn 1.000000 1.000000 0.30810(3)
O2_3 O 0.9450(4) 0.8988(4) 0.47113(14)
O5_3 O 0.9285(4) 0.8894(4) 0.34109(15)
C1_3 C 0.9156(5) 0.6797(5) 0.5135(2)
C3_3 C 0.8933(5) 0.9169(5) 0.3783(2)
C4_3 C 0.9184(5) 0.8070(5) 0.4479(2)
C5_3 C 0.8496(5) 0.8311(6) 0.4074(2)
H1_3 H 0.842075 0.767182 0.389633
H2_3 H 0.779644 0.851692 0.417575
C6_3 C 0.8542(6) 0.7291(5) 0.4767(2)
H3_3 H 0.794224 0.766385 0.489555
H4_3 H 0.826595 0.673638 0.457513
H9_6 H 0.951419 0.387146 0.431345
Zn6 Zn 0.000000 0.500000 0.94190(3)
O1_3 O 0.4904(4) 0.3893(4) 0.10883(14)
O2_4 O 0.6012(4) 0.4450(4) 0.02887(14)
O4_3 O 0.7038(4) 0.6072(4) 0.06103(16)
O5_4 O 0.6106(4) 0.4285(4) 0.15891(15)
O7_4 O 0.8338(5) 0.5110(5) 0.0860(2)
C2_4 C 0.7490(6) 0.5202(6) 0.0681(2)
C3_4 C 0.5831(5) 0.3933(5) 0.1217(2)
C4_4 C 0.6930(5) 0.4184(5) 0.0521(2)
C5_4 C 0.6689(6) 0.3496(5) 0.0926(2)
H1_4 H 0.732818 0.342075 0.110367
H2_4 H 0.648308 0.279644 0.082425
C6_4 C 0.7709(5) 0.3542(6) 0.0233(2)
H3_4 H 0.733615 0.294224 0.010445
H4_4 H 0.826362 0.326595 0.042487
O8_3 O 0.5096(4) 0.6107(4) 0.10883(14)
O9_4 O 0.3988(4) 0.5550(4) 0.02887(14)
O11_3 O 0.2962(4) 0.3928(4) 0.06103(16)
O12_4 O 0.3894(4) 0.5715(4) 0.15891(15)
O14_4 O 0.1662(5) 0.4890(5) 0.0860(2)
C8_4 C 0.2510(6) 0.4798(6) 0.0681(2)
C9_4 C 0.4169(5) 0.6067(5) 0.1217(2)
C10_4 C 0.3070(5) 0.5816(5) 0.0521(2)
C11_4 C 0.3311(6) 0.6504(5) 0.0926(2)
H5_4 H 0.267182 0.657925 0.110367
H6_4 H 0.351692 0.720356 0.082425
C12_4 C 0.2291(5) 0.6458(6) 0.0233(2)
H7_4 H 0.266385 0.705776 0.010445
H8_4 H 0.173638 0.673405 0.042487
Zn4_4 Zn 0.55049(6) 0.60616(6) 0.04035(2)
Zn5_4 Zn 0.44951(6) 0.39384(6) 0.04035(2)
O20_5 O 0.5399(4) 0.7649(4) 0.04152(14)
H9_7 H 0.887146 0.548581 0.0686551
Zn1_4 Zn 0.60616(6) 0.44951(6) 0.95965(2)
O3_3 O 0.7649(4) 0.4601(4) 0.95848(14)
O6_3 O 0.9199(4) 0.4167(4) 0.98552(17)
C1_4 C 0.8203(5) 0.4156(5) 0.9865(2)
Zn3_4 Zn 0.39384(6) 0.55049(6) 0.95965(2)
O10_3 O 0.2351(4) 0.5399(4) 0.95848(14)
O13_3 O 0.0801(4) 0.5833(4) 0.98552(17)
C7_4 C 0.1797(5) 0.5844(5) 0.9865(2)
Zn6_2 Zn 1.000000 0.500000 0.94190(3)
O16_3 O 0.6107(4) 0.4904(4) 0.89117(14)
O17_3 O 0.3893(4) 0.5096(4) 0.89117(14)
O18_4 O 0.5550(4) 0.6012(4) 0.97113(14)
O19_4 O 0.4450(4) 0.3988(4) 0.97113(14)
O23_3 O 0.3928(4) 0.7038(4) 0.93897(16)
O24_3 O 0.6072(4) 0.2962(4) 0.93897(16)
O20_6 O 0.4601(4) 0.2351(4) 0.04152(14)
H9_8 H 0.112854 0.451419 0.0686551
Zn7_3 Zn -0.000000 -0.000000 0.69190(3)
O5_5 O 0.0715(4) 0.3894(4) 0.90891(15)
O6_4 O 0.0833(4) 0.0801(4) 0.73552(17)
C1_5 C 0.0844(5) 0.1797(5) 0.7365(2)
C3_5 C 0.1067(5) 0.4169(5) 0.8717(2)
C4_5 C 0.0816(5) 0.3070(5) 0.8021(2)
C5_5 C 0.1504(5) 0.3311(6) 0.8426(2)
H1_5 H 0.157925 0.267182 0.860367
H2_5 H 0.220356 0.351692 0.832425
C6_5 C 0.1458(6) 0.2291(5) 0.7733(2)
H3_5 H 0.205776 0.266385 0.760445
H4_5 H 0.173405 0.173638 0.792487
O14_5 O 0.0110(5) 0.8338(5) 0.8360(2)
C8_5 C 0.0202(6) 0.7490(6) 0.8181(2)
Zn7_4 Zn -0.000000 1.000000 0.69190(3)
Zn7_5 Zn 1.000000 -0.000000 0.69190(3)
O7_5 O 0.9890(5) 0.1662(5) 0.8360(2)
C2_5 C 0.9798(6) 0.2510(6) 0.8181(2)
O12_5 O 0.9285(4) 0.6106(4) 0.90891(15)
O13_4 O 0.9167(4) 0.9199(4) 0.73552(17)
C7_5 C 0.9156(5) 0.8203(5) 0.7365(2)
C9_5 C 0.8933(5) 0.5831(5) 0.8717(2)
C10_5 C 0.9184(5) 0.6930(5) 0.8021(2)
C11_5 C 0.8496(5) 0.6689(6) 0.8426(2)
H5_5 H 0.842075 0.732818 0.860367
H6_5 H 0.779644 0.648308 0.832425
C12_5 C 0.8542(6) 0.7709(5) 0.7733(2)
H7_5 H 0.794224 0.733615 0.760445
H8_5 H 0.826595 0.826362 0.792487
Zn7_6 Zn 1.000000 1.000000 0.69190(3)
H9_9 H 0.951419 0.112854 0.818655
H9_10 H 0.0485808 0.887146 0.818655
Zn2_9 Zn 0.500000 0.000000 0.05810(3)
O7_6 O 0.1662(5) 0.0110(5) 0.1640(2)
C2_6 C 0.2510(6) 0.0202(6) 0.1819(2)
O12_6 O 0.6106(4) 0.0715(4) 0.09109(15)
C7_6 C 0.8203(5) 0.0844(5) 0.2635(2)
C9_6 C 0.5831(5) 0.1067(5) 0.1283(2)
C10_6 C 0.6930(5) 0.0816(5) 0.1979(2)
C11_6 C 0.6689(6) 0.1504(5) 0.1574(2)
H5_6 H 0.732818 0.157925 0.139633
H6_6 H 0.648308 0.220356 0.167575
C12_6 C 0.7709(5) 0.1458(6) 0.2267(2)
H7_6 H 0.733615 0.205776 0.239555
H8_6 H 0.826362 0.173405 0.207513
O25_4 O 0.4167(4) 0.0801(4) 0.01448(17)
H9_11 H 0.112854 0.0485808 0.181345
Zn2_10 Zn 0.500000 1.000000 0.05810(3)
O5_6 O 0.3894(4) 0.9285(4) 0.09109(15)
C1_6 C 0.1797(5) 0.9156(5) 0.2635(2)
C3_6 C 0.4169(5) 0.8933(5) 0.1283(2)
C4_6 C 0.3070(5) 0.9184(5) 0.1979(2)
C5_6 C 0.3311(6) 0.8496(5) 0.1574(2)
H1_6 H 0.267182 0.842075 0.139633
H2_6 H 0.351692 0.779644 0.167575
C6_6 C 0.2291(5) 0.8542(6) 0.2267(2)
H3_6 H 0.266385 0.794224 0.239555
H4_6 H 0.173638 0.826595 0.207513
O14_6 O 0.8338(5) 0.9890(5) 0.1640(2)
C8_6 C 0.7490(6) 0.9798(6) 0.1819(2)
O26_4 O 0.5833(4) 0.9199(4) 0.01448(17)
H9_12 H 0.887146 0.951419 0.181345
C1_7 C 0.4156(5) 0.1797(5) 0.0135(2)
C7_7 C 0.5844(5) 0.8203(5) 0.0135(2)
O5_7 O 0.4285(4) 0.3894(4) 0.84109(15)
O7_7 O 0.5110(5) 0.1662(5) 0.9140(2)
C2_7 C 0.5202(6) 0.2510(6) 0.9319(2)
C3_7 C 0.3933(5) 0.4169(5) 0.8783(2)
C4_7 C 0.4184(5) 0.3070(5) 0.9479(2)
C5_7 C 0.3496(5) 0.3311(6) 0.9074(2)
H1_7 H 0.342075 0.267182 0.889633
H2_7 H 0.279644 0.351692 0.917575
C6_7 C 0.3542(6) 0.2291(5) 0.9767(2)
H3_7 H 0.294224 0.266385 0.989555
H4_7 H 0.326595 0.173638 0.957513
O12_7 O 0.5715(4) 0.6106(4) 0.84109(15)
O14_7 O 0.4890(5) 0.8338(5) 0.9140(2)
C8_7 C 0.4798(6) 0.7490(6) 0.9319(2)
C9_7 C 0.6067(5) 0.5831(5) 0.8783(2)
C10_7 C 0.5816(5) 0.6930(5) 0.9479(2)
C11_7 C 0.6504(5) 0.6689(6) 0.9074(2)
H5_7 H 0.657925 0.732818 0.889633
H6_7 H 0.720356 0.648308 0.917575
C12_7 C 0.6458(6) 0.7709(5) 0.9767(2)
H7_7 H 0.705776 0.733615 0.989555
H8_7 H 0.673405 0.826362 0.957513
H9_13 H 0.548581 0.112854 0.931345
H9_14 H 0.451419 0.887146 0.931345
O7_8 O 0.3338(5) 0.0110(5) 0.5860(2)
C2_8 C 0.2490(6) 0.0202(6) 0.5681(2)
H9_15 H 0.387146 0.0485808 0.568655
O5_8 O 0.1106(4) 0.9285(4) 0.65891(15)
C1_8 C 0.3203(5) 0.9156(5) 0.4865(2)
C3_8 C 0.0831(5) 0.8933(5) 0.6217(2)
C4_8 C 0.1930(5) 0.9184(5) 0.5521(2)
C5_8 C 0.1689(6) 0.8496(5) 0.5926(2)
H1_8 H 0.232818 0.842075 0.610367
H2_8 H 0.148308 0.779644 0.582425
C6_8 C 0.2709(5) 0.8542(6) 0.5233(2)
H3_8 H 0.233615 0.794224 0.510445
H4_8 H 0.326362 0.826595 0.542487
O12_8 O 0.8894(4) 0.0715(4) 0.65891(15)
C7_8 C 0.6797(5) 0.0844(5) 0.4865(2)
C9_8 C 0.9169(5) 0.1067(5) 0.6217(2)
C10_8 C 0.8070(5) 0.0816(5) 0.5521(2)
C11_8 C 0.8311(6) 0.1504(5) 0.5926(2)
H5_8 H 0.767182 0.157925 0.610367
H6_8 H 0.851692 0.220356 0.582425
C12_8 C 0.7291(5) 0.1458(6) 0.5233(2)
H7_8 H 0.766385 0.205776 0.510445
H8_8 H 0.673638 0.173405 0.542487
O14_8 O 0.6662(5) 0.9890(5) 0.5860(2)
C8_8 C 0.7510(6) 0.9798(6) 0.5681(2)
H9_16 H 0.612854 0.951419 0.568655
loop_
_geom_bond_atom_site_label_1
_geom_bond_atom_site_label_2
_geom_bond_site_symmetry_1
_geom_bond_site_symmetry_2
Zn3 O9 1_555 1_555
O9 C10 1_555 1_555
O10 Zn3 1_555 1_555
O11 C8 1_555 1_555
O12 Zn2 1_555 1_555
O13 C7 1_555 1_555
O14 C8 1_555 1_555
C7 O10 1_555 1_555
C8 C10 1_555 1_555
C10 C11 1_555 1_555
C11 C9 1_555 1_555
H5 C11 1_555 1_555
H6 C11 1_555 1_555
C12 C7 1_555 1_555
H7 C12 1_555 1_555
H8 C12 1_555 1_555
Zn5 O1 1_555 1_555
Zn7 O13 1_555 1_555
K2 O1 1_555 1_555
K4 O10 1_555 1_555
O17 Zn3 1_555 1_555
O23 Zn3 1_555 1_555
O26 Zn2 1_555 1_555
Zn3 O19 1_555 1_555
O9 Zn5 1_555 1_555
O11 Zn5 1_555 1_555
O11 K2 1_555 1_555
O12 C9 1_555 1_555
C10 C12 1_555 1_555
Zn5 O19 1_555 1_555
K4 O17 1_555 1_555
K4 O23 1_555 1_555
Zn1 O2 1_555 1_555
Zn2_2 O5 1_555 1_555
K1 O4 1_555 1_555
O2 C4 1_555 1_555
O3 Zn1 1_555 1_555
O4 C2 1_555 1_555
O5 C3 1_555 1_555
O6 C1 1_555 1_555
O7 C2 1_555 1_555
C1 O3 1_555 1_555
C2 C4 1_555 1_555
C3 C5 1_555 1_555
C4 C5 1_555 1_555
C5 H1 1_555 1_555
H2 C5 1_555 1_555
C6 C1 1_555 1_555
H3 C6 1_555 1_555
H4 C6 1_555 1_555
O8 K1 1_555 1_555
Zn4 O2 1_555 1_555
Zn7 O6 1_555 1_555
K3 O3 1_555 1_555
O15 K1 1_555 1_555
O16 Zn1 1_555 1_555
O18 Zn1 1_555 1_555
O20 K1 1_555 1_555
O21 K1 1_555 1_555
O22 K1 1_555 1_555
O24 Zn1 1_555 1_555
O25 Zn2_2 1_555 1_555
O4 Zn4 1_555 1_555
C4 C6 1_555 1_555
O8 Zn4 1_555 1_555
Zn4 O18 1_555 1_555
Zn4 O20 1_555 1_555
K3 O16 1_555 1_555
K3 O24 1_555 1_555
O7 H9 1_555 1_555
O15_2 K2 1_555 1_555
O20_2 K2 1_555 1_555
O21_2 K2 1_555 1_555
O22_2 K2 1_555 1_555
Zn5 O20_2 1_555 1_555
O14 H9_2 1_555 1_555
Zn3_2 O9_2 1_555 1_555
O9_2 C10_2 1_555 1_555
O10_2 Zn3_2 1_555 1_555
O11_2 C8_2 1_555 1_555
O12_2 Zn2_3 1_555 1_555
O13_2 C7_2 1_555 1_555
O14_2 C8_2 1_555 1_555
C7_2 O10_2 1_555 1_555
C8_2 C10_2 1_555 1_555
C10_2 C11_2 1_555 1_555
C11_2 C9_2 1_555 1_555
H5_2 C11_2 1_555 1_555
H6_2 C11_2 1_555 1_555
C12_2 C7_2 1_555 1_555
H7_2 C12_2 1_555 1_555
H8_2 C12_2 1_555 1_555
Zn5_2 O1_2 1_555 1_555
Zn7_2 O13_2 1_555 1_555
K2_2 O1_2 1_555 1_555
K4_2 O10_2 1_555 1_555
O17_2 Zn3_2 1_555 1_555
O23_2 Zn3_2 1_555 1_555
O26_2 Zn2_3 1_555 1_555
Zn3_2 O19_2 1_555 1_555
O9_2 Zn5_2 1_555 1_555
O11_2 Zn5_2 1_555 1_555
O11_2 K2_2 1_555 1_555
O12_2 C9_2 1_555 1_555
C10_2 C12_2 1_555 1_555
Zn5_2 O19_2 1_555 1_555
K4_2 O17_2 1_555 1_555
K4_2 O23_2 1_555 1_555
Zn1_2 O2_2 1_555 1_555
Zn2_4 O5_2 1_555 1_555
K1_2 O4_2 1_555 1_555
O2_2 C4_2 1_555 1_555
O3_2 Zn1_2 1_555 1_555
O4_2 C2_2 1_555 1_555
O5_2 C3_2 1_555 1_555
O6_2 C1_2 1_555 1_555
O7_2 C2_2 1_555 1_555
C1_2 O3_2 1_555 1_555
C2_2 C4_2 1_555 1_555
C3_2 C5_2 1_555 1_555
C4_2 C5_2 1_555 1_555
C5_2 H1_2 1_555 1_555
H2_2 C5_2 1_555 1_555
C6_2 C1_2 1_555 1_555
H3_2 C6_2 1_555 1_555
H4_2 C6_2 1_555 1_555
O8_2 K1_2 1_555 1_555
Zn4_2 O2_2 1_555 1_555
Zn7_2 O6_2 1_555 1_555
K3_2 O3_2 1_555 1_555
O15_3 K1_2 1_555 1_555
O16_2 Zn1_2 1_555 1_555
O18_2 Zn1_2 1_555 1_555
O20_3 K1_2 1_555 1_555
O21_3 K1_2 1_555 1_555
O22_3 K1_2 1_555 1_555
O24_2 Zn1_2 1_555 1_555
O25_2 Zn2_4 1_555 1_555
O4_2 Zn4_2 1_555 1_555
C4_2 C6_2 1_555 1_555
O8_2 Zn4_2 1_555 1_555
Zn4_2 O18_2 1_555 1_555
Zn4_2 O20_3 1_555 1_555
K3_2 O16_2 1_555 1_555
K3_2 O24_2 1_555 1_555
O7_2 H9_3 1_555 1_555
O15_4 K2_2 1_555 1_555
O20_4 K2_2 1_555 1_555
O21_4 K2_2 1_555 1_555
O22_4 K2_2 1_555 1_555
Zn5_2 O20_4 1_555 1_555
O14_2 H9_4 1_555 1_555
Zn3_3 O9_3 1_555 1_555
O9_3 C10_3 1_555 1_555
O21_4 Zn3_3 1_555 1_555
O12_3 Zn2_5 1_555 1_555
O26_2 C7_3 1_555 1_555
C7_3 O21_4 1_555 1_555
C10_3 C11_3 1_555 1_555
C11_3 C9_3 1_555 1_555
H5_3 C11_3 1_555 1_555
H6_3 C11_3 1_555 1_555
C12_3 C7_3 1_555 1_555
H7_3 C12_3 1_555 1_555
H8_3 C12_3 1_555 1_555
O15_4 Zn3_3 1_555 1_555
O22_4 Zn3_3 1_555 1_555
O12_3 C9_3 1_555 1_555
C10_3 C12_3 1_555 1_555
O22 C2_3 1_555 1_555
O7_3 C2_3 1_555 1_555
O25_3 Zn2_6 1_555 1_555
O22 Zn4_3 1_555 1_555
O15 Zn4_3 1_555 1_555
Zn4_3 O18_3 1_555 1_555
Zn4_3 O21 1_555 1_555
O7_3 H9_5 1_555 1_555
O22_2 C8_3 1_555 1_555
O14_3 C8_3 1_555 1_555
Zn5_3 O15_2 1_555 1_555
O26_3 Zn2_7 1_555 1_555
O22_2 Zn5_3 1_555 1_555
Zn5_3 O19_3 1_555 1_555
Zn1_3 O2_3 1_555 1_555
Zn2_8 O5_3 1_555 1_555
O2_3 C4_3 1_555 1_555
O21_3 Zn1_3 1_555 1_555
O5_3 C3_3 1_555 1_555
O25_2 C1_3 1_555 1_555
C1_3 O21_3 1_555 1_555
C3_3 C5_3 1_555 1_555
C4_3 C5_3 1_555 1_555
C5_3 H1_3 1_555 1_555
H2_3 C5_3 1_555 1_555
C6_3 C1_3 1_555 1_555
H3_3 C6_3 1_555 1_555
H4_3 C6_3 1_555 1_555
O15_3 Zn1_3 1_555 1_555
O22_3 Zn1_3 1_555 1_555
C4_3 C6_3 1_555 1_555
Zn5_3 O21_2 1_555 1_555
O14_3 H9_6 1_555 1_555
Zn7 O5_4 1_555 1_555
K3 O4_3 1_555 1_555
O1_3 C3_4 1_555 1_555
O2_4 C4_4 1_555 1_555
O4_3 C2_4 1_555 1_555
O5_4 C3_4 1_555 1_555
O7_4 C2_4 1_555 1_555
C2_4 C4_4 1_555 1_555
C3_4 C5_4 1_555 1_555
C4_4 C5_4 1_555 1_555
C5_4 H1_4 1_555 1_555
H2_4 C5_4 1_555 1_555
H3_4 C6_4 1_555 1_555
H4_4 C6_4 1_555 1_555
O8_3 K3 1_555 1_555
O9_4 C10_4 1_555 1_555
O11_3 C8_4 1_555 1_555
O12_4 Zn7 1_555 1_555
O14_4 C8_4 1_555 1_555
C8_4 C10_4 1_555 1_555
C9_4 O8_3 1_555 1_555
C10_4 C11_4 1_555 1_555
C11_4 C9_4 1_555 1_555
H5_4 C11_4 1_555 1_555
H6_4 C11_4 1_555 1_555
H7_4 C12_4 1_555 1_555
H8_4 C12_4 1_555 1_555
Zn4_4 O2_4 1_555 1_555
Zn5_4 O1_3 1_555 1_555
K4 O1_3 1_555 1_555
O20_5 K3 1_555 1_555
O2_4 Zn5_4 1_555 1_555
O4_3 Zn4_4 1_555 1_555
C4_4 C6_4 1_555 1_555
O8_3 Zn4_4 1_555 1_555
O9_4 Zn4_4 1_555 1_555
O9_4 Zn5_4 1_555 1_555
O11_3 Zn5_4 1_555 1_555
O11_3 K4 1_555 1_555
O12_4 C9_4 1_555 1_555
C10_4 C12_4 1_555 1_555
Zn4_4 O20_5 1_555 1_555
O7_4 H9_7 1_555 1_555
O3_3 Zn1_4 1_555 1_555
O6_3 C1_4 1_555 1_555
C1_4 O3_3 1_555 1_555
O10_3 Zn3_4 1_555 1_555
O13_3 C7_4 1_555 1_555
C7_4 O10_3 1_555 1_555
Zn6_2 O6_3 1_555 1_555
Zn6 O13_3 1_555 1_555
K3_2 O3_3 1_555 1_555
K4_2 O10_3 1_555 1_555
O16_3 Zn1_4 1_555 1_555
O17_3 Zn3_4 1_555 1_555
O18_4 Zn1_4 1_555 1_555
O19_4 Zn1_4 1_555 1_555
O23_3 Zn3_4 1_555 1_555
O24_3 Zn1_4 1_555 1_555
Zn3_4 O18_4 1_555 1_555
Zn3_4 O19_4 1_555 1_555
K3_2 O16_3 1_555 1_555
K3_2 O24_3 1_555 1_555
K4_2 O17_3 1_555 1_555
K4_2 O23_3 1_555 1_555
O20_6 K4 1_555 1_555
Zn5_4 O20_6 1_555 1_555
O14_4 H9_8 1_555 1_555
Zn6 O5_5 1_555 1_555
O17_2 C3_5 1_555 1_555
O19_2 C4_5 1_555 1_555
O5_5 C3_5 1_555 1_555
O6_4 C1_5 1_555 1_555
C1_5 O20_4 1_555 1_555
C3_5 C5_5 1_555 1_555
C4_5 C5_5 1_555 1_555
C5_5 H1_5 1_555 1_555
H2_5 C5_5 1_555 1_555
C6_5 C1_5 1_555 1_555
H3_5 C6_5 1_555 1_555
H4_5 C6_5 1_555 1_555
O23_2 C8_5 1_555 1_555
O14_5 C8_5 1_555 1_555
Zn7_3 O6_4 1_555 1_555
C4_5 C6_5 1_555 1_555
O24_2 C2_5 1_555 1_555
O7_5 C2_5 1_555 1_555
O18_2 C10_5 1_555 1_555
O12_5 Zn6_2 1_555 1_555
O13_4 C7_5 1_555 1_555
C7_5 O20_3 1_555 1_555
C9_5 O16_2 1_555 1_555
C10_5 C11_5 1_555 1_555
C11_5 C9_5 1_555 1_555
H5_5 C11_5 1_555 1_555
H6_5 C11_5 1_555 1_555
C12_5 C7_5 1_555 1_555
H7_5 C12_5 1_555 1_555
H8_5 C12_5 1_555 1_555
Zn7_6 O13_4 1_555 1_555
O12_5 C9_5 1_555 1_555
C10_5 C12_5 1_555 1_555
O7_5 H9_9 1_555 1_555
O14_5 H9_10 1_555 1_555
O23 C2_6 1_555 1_555
O7_6 C2_6 1_555 1_555
O19 C10_6 1_555 1_555
O12_6 Zn2_9 1_555 1_555
O26_3 C7_6 1_555 1_555
C7_6 O20_2 1_555 1_555
C9_6 O17 1_555 1_555
C10_6 C11_6 1_555 1_555
C11_6 C9_6 1_555 1_555
H5_6 C11_6 1_555 1_555
H6_6 C11_6 1_555 1_555
C12_6 C7_6 1_555 1_555
H7_6 C12_6 1_555 1_555
H8_6 C12_6 1_555 1_555
O25_4 Zn2_9 1_555 1_555
O12_6 C9_6 1_555 1_555
C10_6 C12_6 1_555 1_555
O7_6 H9_11 1_555 1_555
Zn2_10 O5_6 1_555 1_555
O16 C3_6 1_555 1_555
O18 C4_6 1_555 1_555
O5_6 C3_6 1_555 1_555
O25_3 C1_6 1_555 1_555
C1_6 O20 1_555 1_555
C3_6 C5_6 1_555 1_555
C4_6 C5_6 1_555 1_555
C5_6 H1_6 1_555 1_555
H2_6 C5_6 1_555 1_555
C6_6 C1_6 1_555 1_555
H3_6 C6_6 1_555 1_555
H4_6 C6_6 1_555 1_555
O24 C8_6 1_555 1_555
O14_6 C8_6 1_555 1_555
O26_4 Zn2_10 1_555 1_555
C4_6 C6_6 1_555 1_555
O14_6 H9_12 1_555 1_555
O25_4 C1_7 1_555 1_555
C1_7 O20_6 1_555 1_555
O26_4 C7_7 1_555 1_555
C7_7 O20_5 1_555 1_555
Zn7_2 O5_7 1_555 1_555
O17_3 C3_7 1_555 1_555
O19_4 C4_7 1_555 1_555
O24_3 C2_7 1_555 1_555
O5_7 C3_7 1_555 1_555
O7_7 C2_7 1_555 1_555
C2_7 C4_7 1_555 1_555
C3_7 C5_7 1_555 1_555
C4_7 C5_7 1_555 1_555
C5_7 H1_7 1_555 1_555
H2_7 C5_7 1_555 1_555
H3_7 C6_7 1_555 1_555
H4_7 C6_7 1_555 1_555
O18_4 C10_7 1_555 1_555
O23_3 C8_7 1_555 1_555
O12_7 Zn7_2 1_555 1_555
O14_7 C8_7 1_555 1_555
C8_7 C10_7 1_555 1_555
C9_7 O16_3 1_555 1_555
C10_7 C11_7 1_555 1_555
C11_7 C9_7 1_555 1_555
H5_7 C11_7 1_555 1_555
H6_7 C11_7 1_555 1_555
H7_7 C12_7 1_555 1_555
H8_7 C12_7 1_555 1_555
C4_7 C6_7 1_555 1_555
O12_7 C9_7 1_555 1_555
C10_7 C12_7 1_555 1_555
O7_7 H9_13 1_555 1_555
O14_7 H9_14 1_555 1_555
O22_4 C2_8 1_555 1_555
O7_8 C2_8 1_555 1_555
O7_8 H9_15 1_555 1_555
Zn7_4 O5_8 1_555 1_555
O18_3 C4_8 1_555 1_555
O5_8 C3_8 1_555 1_555
O25 C1_8 1_555 1_555
C1_8 O21 1_555 1_555
C3_8 C5_8 1_555 1_555
C4_8 C5_8 1_555 1_555
C5_8 H1_8 1_555 1_555
H2_8 C5_8 1_555 1_555
C6_8 C1_8 1_555 1_555
H3_8 C6_8 1_555 1_555
H4_8 C6_8 1_555 1_555
C4_8 C6_8 1_555 1_555
O19_3 C10_8 1_555 1_555
O12_8 Zn7_5 1_555 1_555
O26 C7_8 1_555 1_555
C7_8 O21_2 1_555 1_555
C10_8 C11_8 1_555 1_555
C11_8 C9_8 1_555 1_555
H5_8 C11_8 1_555 1_555
H6_8 C11_8 1_555 1_555
C12_8 C7_8 1_555 1_555
H7_8 C12_8 1_555 1_555
H8_8 C12_8 1_555 1_555
O12_8 C9_8 1_555 1_555
C10_8 C12_8 1_555 1_555
O22_3 C8_8 1_555 1_555
O14_8 C8_8 1_555 1_555
O14_8 H9_16 1_555 1_555

#END
