
###############################################################################
#
# This file contains modified crystal structure data generated from the
# MOF subset of the Cambridge Structural Database (CSD) v543 
# hosted by the Cambridge Crystallographic Data Centre (CCDC).
#
# This work is licensed under the Creative Commons
# Attribution-NonCommercial-ShareAlike 4.0 International License.
# To view a copy of this license, visit
# http://creativecommons.org/licenses/by-nc-sa/4.0/
# or send a letter to
# Creative Commons, PO Box 1866, Mountain View, CA 94042, USA.
#
# CIF created using the CSD Python API on 29 September 2022
# The structure has been converted into the P1 space group
# The structure has a 3D framework
# The original CSD entry SUPLOF is in the tetragonal crystal system
# The framework has been calculated to contain at least 10.0% void space
# The void calculation uses a probe of radius 1.32A, grid spacing 0.4
#
###############################################################################

data_SUPLOF
_chemical_formula_moiety         '(C144 H96 N16 O48 Zn8)n'
_symmetry_cell_setting           triclinic
_symmetry_space_group_name_H-M   'P 1'
_symmetry_Int_Tables_number      1
_space_group_name_Hall           'P 1'
loop_
_symmetry_equiv_pos_site_id
_symmetry_equiv_pos_as_xyz
1 x,y,z
_cell_length_a                   17.48(2)
_cell_length_b                   17.48(2)
_cell_length_c                   22.69(2)
_cell_angle_alpha                90
_cell_angle_beta                 90
_cell_angle_gamma                90
_cell_volume                     6932.94
loop_
_atom_site_label
_atom_site_type_symbol
_atom_site_fract_x
_atom_site_fract_y
_atom_site_fract_z
O1 O 0.3779(2) 0.0186(2) 0.2027(2)
C3 C 0.3931(3) 0.0875(3) 0.2097(2)
H1 H 0.3601 0.0251 0.4950
O2 O 0.4116(2) 0.2531(2) 0.2363(2)
H2 H 0.4455 0.2209 0.2280
C5 C 0.3300(3) 0.1404(3) 0.2268(2)
C6 C 0.2819(4) 0.2628(4) 0.2564(3)
H3 H 0.2904 0.3152 0.2654
C7 C 0.3432(3) 0.2180(3) 0.2392(3)
C8 C 0.2082(3) 0.2333(4) 0.2611(3)
O3 O 0.1240(2) 0.1236(3) 0.2508(3)
H5 H 0.0914 0.1581 0.2572
H8 H 0.3620 0.0295 0.5954
C14 C 0.1958(3) 0.1555(4) 0.2486(3)
C16 C 0.2560(3) 0.1104(3) 0.2320(3)
H11 H 0.2474 0.0578 0.2239
O4 O 0.4589(2) 0.1170(2) 0.2051(2)
O5 O 0.1615(2) 0.3521(3) 0.2918(2)
O6 O 0.0773(3) 0.2596(3) 0.2789(2)
C18 C 0.1451(4) 0.2847(5) 0.2787(3)
Zn3 Zn 0.56833(3) 0.08295(3) 0.20296(3)
Zn4 Zn 0.06833(3) 0.41705(3) 0.29704(3)
Zn1 Zn 0.43167(3) 0.91705(3) 0.20296(3)
N1 N 0.4330(2) 0.9214(2) 0.2991(2)
N2 N 0.4169(3) 0.9322(3) 0.6097(2)
C1 C 0.4184(4) 0.9242(3) 0.4864(2)
C2 C 0.4225(4) 0.9227(4) 0.4214(3)
C4 C 0.3841(4) 0.9850(4) 0.5165(3)
C9 C 0.4887(3) 0.8935(4) 0.3329(3)
H4 H 0.5326 0.8728 0.3141
C10 C 0.4471(4) 0.8722(4) 0.5813(3)
H6 H 0.4680 0.8314 0.6038
C11 C 0.3713(4) 0.9494(4) 0.3264(3)
H7 H 0.3307 0.9690 0.3030
C12 C 0.3851(4) 0.9870(4) 0.5762(3)
C13 C 0.4490(4) 0.8674(4) 0.5212(3)
H9 H 0.4719 0.8240 0.5031
C15 C 0.4862(4) 0.8930(4) 0.3930(3)
H10 H 0.5276 0.8726 0.4151
C17 C 0.3640(4) 0.9513(4) 0.3868(3)
H12 H 0.3193 0.9721 0.4045
Zn2 Zn 0.41705(3) 0.93167(3) 0.70296(3)
N3 N 0.4322(3) 0.9169(3) 0.1097(2)
O7 O 0.5411(2) 0.8830(2) 0.2051(2)
O8 O 0.3385(2) 0.8521(3) 0.2082(2)
N1_2 N 0.5670(2) 0.0786(2) 0.2991(2)
N2_2 N 0.5831(3) 0.0678(3) 0.6097(2)
C1_2 C 0.5816(4) 0.0758(3) 0.4864(2)
C2_2 C 0.5775(4) 0.0773(4) 0.4214(3)
C4_2 C 0.6159(4) 0.0150(4) 0.5165(3)
C9_2 C 0.5113(3) 0.1065(4) 0.3329(3)
H4_2 H 0.4674 0.1272 0.3141
C10_2 C 0.5529(4) 0.1278(4) 0.5813(3)
H6_2 H 0.5320 0.1686 0.6038
C11_2 C 0.6287(4) 0.0506(4) 0.3264(3)
H7_2 H 0.6693 0.0310 0.3030
C12_2 C 0.6149(4) 0.0130(4) 0.5762(3)
C13_2 C 0.5510(4) 0.1326(4) 0.5212(3)
H9_2 H 0.5281 0.1760 0.5031
C15_2 C 0.5138(4) 0.1070(4) 0.3930(3)
H10_2 H 0.4724 0.1274 0.4151
C17_2 C 0.6360(4) 0.0487(4) 0.3868(3)
H12_2 H 0.6807 0.0279 0.4045
Zn2_2 Zn 0.58295(3) 0.06833(3) 0.70296(3)
N3_2 N 0.5678(3) 0.0831(3) 0.1097(2)
O8_2 O 0.6615(2) 0.1479(3) 0.2082(2)
O1_2 O 0.6221(2) 0.9814(2) 0.2027(2)
C3_2 C 0.6069(3) 0.9125(3) 0.2097(2)
H1_2 H 0.6399 0.9749 0.4950
O2_2 O 0.5884(2) 0.7469(2) 0.2363(2)
H2_2 H 0.5545 0.7791 0.2280
C5_2 C 0.6700(3) 0.8596(3) 0.2268(2)
C6_2 C 0.7181(4) 0.7372(4) 0.2564(3)
H3_2 H 0.7096 0.6848 0.2654
C7_2 C 0.6568(3) 0.7820(3) 0.2392(3)
C8_2 C 0.7918(3) 0.7667(4) 0.2611(3)
O3_2 O 0.8760(2) 0.8764(3) 0.2508(3)
H5_2 H 0.9086 0.8419 0.2572
H8_2 H 0.6380 0.9705 0.5954
C14_2 C 0.8042(3) 0.8445(4) 0.2486(3)
C16_2 C 0.7440(3) 0.8896(3) 0.2320(3)
H11_2 H 0.7526 0.9422 0.2239
O5_2 O 0.8385(2) 0.6479(3) 0.2918(2)
O6_2 O 0.9227(3) 0.7404(3) 0.2789(2)
C18_2 C 0.8549(4) 0.7153(5) 0.2787(3)
Zn4_2 Zn 0.93167(3) 0.58295(3) 0.29704(3)
H4_3 H 0.0326 0.6272 0.1859
H10_3 H 0.0276 0.6274 0.0849
O7_2 O 0.0411(2) 0.6170(2) 0.2949(2)
N1_3 N 0.9330(2) 0.5786(2) 0.2009(2)
C1_3 C 0.9184(4) 0.5758(3) 0.0136(2)
C2_3 C 0.9225(4) 0.5773(4) 0.0786(3)
O1_3 O 0.8779(2) 0.4814(2) 0.2973(2)
C3_3 C 0.8931(3) 0.4125(3) 0.2903(2)
H1_3 H 0.8601 0.4749 0.0050
O2_3 O 0.9116(2) 0.2469(2) 0.2637(2)
H2_3 H 0.9455 0.2791 0.2720
C5_3 C 0.8300(3) 0.3596(3) 0.2732(2)
C6_3 C 0.7819(4) 0.2372(4) 0.2436(3)
H3_3 H 0.7904 0.1848 0.2346
C7_3 C 0.8432(3) 0.2820(3) 0.2608(3)
C8_3 C 0.7082(3) 0.2667(4) 0.2389(3)
C9_3 C 0.9887(3) 0.6065(4) 0.1671(3)
O3_3 O 0.6240(2) 0.3764(3) 0.2492(3)
H5_3 H 0.5914 0.3419 0.2428
C11_3 C 0.8713(4) 0.5506(4) 0.1736(3)
H7_3 H 0.8307 0.5310 0.1970
C14_3 C 0.6958(3) 0.3445(4) 0.2514(3)
C15_3 C 0.9862(4) 0.6070(4) 0.1070(3)
C16_3 C 0.7560(3) 0.3896(3) 0.2680(3)
H11_3 H 0.7474 0.4422 0.2761
C17_3 C 0.8640(4) 0.5487(4) 0.1132(3)
H12_3 H 0.8193 0.5279 0.0955
O4_2 O 0.9589(2) 0.3830(2) 0.2949(2)
O6_3 O 0.5773(3) 0.2404(3) 0.2211(2)
C18_3 C 0.6451(4) 0.2153(5) 0.2213(3)
N3_3 N 0.9322(3) 0.5831(3) 0.3903(2)
N2_3 N 0.9169(3) 0.5678(3) 0.8903(2)
C4_3 C 0.8841(4) 0.5150(4) 0.9835(3)
C10_3 C 0.9471(4) 0.6278(4) 0.9187(3)
H6_3 H 0.9680 0.6686 0.8962
C12_3 C 0.8851(4) 0.5130(4) 0.9238(3)
H8_3 H 0.8620 0.4705 0.9046
C13_3 C 0.9490(4) 0.6326(4) 0.9788(3)
H9_3 H 0.9719 0.6760 0.9969
Zn2_3 Zn 0.91705(3) 0.56833(3) 0.79704(3)
N1_4 N 0.0670(2) 0.4214(2) 0.2009(2)
C1_4 C 0.0816(4) 0.4242(3) 0.0136(2)
C2_4 C 0.0775(4) 0.4227(4) 0.0786(3)
O1_4 O 0.1221(2) 0.5186(2) 0.2973(2)
C3_4 C 0.1069(3) 0.5875(3) 0.2903(2)
H1_4 H 0.1399 0.5251 0.0050
O2_4 O 0.0884(2) 0.7531(2) 0.2637(2)
H2_4 H 0.0545 0.7209 0.2720
C5_4 C 0.1700(3) 0.6404(3) 0.2732(2)
C6_4 C 0.2181(4) 0.7628(4) 0.2436(3)
H3_4 H 0.2096 0.8152 0.2346
C7_4 C 0.1568(3) 0.7180(3) 0.2608(3)
C8_4 C 0.2918(3) 0.7333(4) 0.2389(3)
C9_4 C 0.0113(3) 0.3935(4) 0.1671(3)
O3_4 O 0.3760(2) 0.6236(3) 0.2492(3)
H5_4 H 0.4086 0.6581 0.2428
C11_4 C 0.1287(4) 0.4494(4) 0.1736(3)
H7_4 H 0.1693 0.4690 0.1970
C14_4 C 0.3042(3) 0.6555(4) 0.2514(3)
C15_4 C 0.0138(4) 0.3930(4) 0.1070(3)
C16_4 C 0.2440(3) 0.6104(3) 0.2680(3)
H11_4 H 0.2526 0.5578 0.2761
C17_4 C 0.1360(4) 0.4513(4) 0.1132(3)
H12_4 H 0.1807 0.4721 0.0955
O6_4 O 0.4227(3) 0.7596(3) 0.2211(2)
C18_4 C 0.3549(4) 0.7847(5) 0.2213(3)
N3_4 N 0.0678(3) 0.4169(3) 0.3903(2)
N2_4 N 0.0831(3) 0.4322(3) 0.8903(2)
C4_4 C 0.1159(4) 0.4850(4) 0.9835(3)
C10_4 C 0.0529(4) 0.3722(4) 0.9187(3)
H6_4 H 0.0320 0.3314 0.8962
C12_4 C 0.1149(4) 0.4870(4) 0.9238(3)
H8_4 H 0.1380 0.5295 0.9046
C13_4 C 0.0510(4) 0.3674(4) 0.9788(3)
H9_4 H 0.0281 0.3240 0.9969
Zn2_4 Zn 0.08295(3) 0.43167(3) 0.79704(3)
H4_4 H 0.9674 0.3728 0.1859
H10_4 H 0.9724 0.3726 0.0849
H4_5 H 0.3728 0.0326 0.8141
H10_5 H 0.3726 0.0276 0.9151
O7_3 O 0.3830(2) 0.0411(2) 0.7051(2)
C4_5 C 0.4850(4) 0.8841(4) 0.0165(3)
C10_5 C 0.3722(4) 0.9471(4) 0.0813(3)
H6_5 H 0.3314 0.9680 0.1038
C12_5 C 0.4870(4) 0.8851(4) 0.0762(3)
H8_5 H 0.5295 0.8620 0.0954
C13_5 C 0.3674(4) 0.9490(4) 0.0212(3)
H9_5 H 0.3240 0.9719 0.0031
N1_5 N 0.4214(2) 0.9330(2) 0.7991(2)
C1_5 C 0.4242(3) 0.9184(4) 0.9864(2)
C2_5 C 0.4227(4) 0.9225(4) 0.9214(3)
O1_5 O 0.5186(2) 0.8779(2) 0.7027(2)
C3_5 C 0.5875(3) 0.8931(3) 0.7097(2)
H1_5 H 0.5251 0.8601 0.9950
O2_5 O 0.7531(2) 0.9116(2) 0.7363(2)
H2_5 H 0.7209 0.9455 0.7280
C5_5 C 0.6404(3) 0.8300(3) 0.7268(2)
C6_5 C 0.7628(4) 0.7819(4) 0.7564(3)
H3_5 H 0.8152 0.7904 0.7654
C7_5 C 0.7180(3) 0.8432(3) 0.7392(3)
C8_5 C 0.7333(4) 0.7082(3) 0.7611(3)
C9_5 C 0.3935(4) 0.9887(3) 0.8329(3)
O3_5 O 0.6236(3) 0.6240(2) 0.7508(3)
H5_5 H 0.6581 0.5914 0.7572
C11_5 C 0.4494(4) 0.8713(4) 0.8264(3)
H7_5 H 0.4690 0.8307 0.8030
C14_5 C 0.6555(4) 0.6958(3) 0.7486(3)
C15_5 C 0.3930(4) 0.9862(4) 0.8930(3)
C16_5 C 0.6104(3) 0.7560(3) 0.7320(3)
H11_5 H 0.5578 0.7474 0.7239
C17_5 C 0.4513(4) 0.8640(4) 0.8868(3)
H12_5 H 0.4721 0.8193 0.9045
O4_3 O 0.6170(2) 0.9589(2) 0.7051(2)
O5_3 O 0.8521(3) 0.6615(2) 0.7918(2)
O6_5 O 0.7596(3) 0.5773(3) 0.7789(2)
C18_5 C 0.7847(5) 0.6451(4) 0.7787(3)
O8_3 O 0.3521(3) 0.8385(2) 0.7082(2)
C4_6 C 0.5150(4) 0.1159(4) 0.0165(3)
C10_6 C 0.6278(4) 0.0529(4) 0.0813(3)
H6_6 H 0.6686 0.0320 0.1038
C12_6 C 0.5130(4) 0.1149(4) 0.0762(3)
H8_6 H 0.4705 0.1380 0.0954
C13_6 C 0.6326(4) 0.0510(4) 0.0212(3)
H9_6 H 0.6760 0.0281 0.0031
N1_6 N 0.5786(2) 0.0670(2) 0.7991(2)
C1_6 C 0.5758(3) 0.0816(4) 0.9864(2)
C2_6 C 0.5773(4) 0.0775(4) 0.9214(3)
O1_6 O 0.4814(2) 0.1221(2) 0.7027(2)
C3_6 C 0.4125(3) 0.1069(3) 0.7097(2)
H1_6 H 0.4749 0.1399 0.9950
O2_6 O 0.2469(2) 0.0884(2) 0.7363(2)
H2_6 H 0.2791 0.0545 0.7280
C5_6 C 0.3596(3) 0.1700(3) 0.7268(2)
C6_6 C 0.2372(4) 0.2181(4) 0.7564(3)
H3_6 H 0.1848 0.2096 0.7654
C7_6 C 0.2820(3) 0.1568(3) 0.7392(3)
C8_6 C 0.2667(4) 0.2918(3) 0.7611(3)
C9_6 C 0.6065(4) 0.0113(3) 0.8329(3)
O3_6 O 0.3764(3) 0.3760(2) 0.7508(3)
H5_6 H 0.3419 0.4086 0.7572
C11_6 C 0.5506(4) 0.1287(4) 0.8264(3)
H7_6 H 0.5310 0.1693 0.8030
C14_6 C 0.3445(4) 0.3042(3) 0.7486(3)
C15_6 C 0.6070(4) 0.0138(4) 0.8930(3)
C16_6 C 0.3896(3) 0.2440(3) 0.7320(3)
H11_6 H 0.4422 0.2526 0.7239
C17_6 C 0.5487(4) 0.1360(4) 0.8868(3)
H12_6 H 0.5279 0.1807 0.9045
O5_4 O 0.1479(3) 0.3385(2) 0.7918(2)
O6_6 O 0.2404(3) 0.4227(3) 0.7789(2)
C18_6 C 0.2153(5) 0.3549(4) 0.7787(3)
O8_4 O 0.6479(3) 0.1615(2) 0.7082(2)
H4_6 H 0.6272 0.9674 0.8141
H10_6 H 0.6274 0.9724 0.9151
N1_7 N 0.0786(2) 0.4330(2) 0.7009(2)
C1_7 C 0.0758(3) 0.4184(4) 0.5136(2)
C2_7 C 0.0773(4) 0.4225(4) 0.5786(3)
C4_7 C 0.0150(4) 0.3841(4) 0.4835(3)
C9_7 C 0.1065(4) 0.4887(3) 0.6671(3)
H4_7 H 0.1272 0.5326 0.6859
C10_7 C 0.1278(4) 0.4471(4) 0.4187(3)
H6_7 H 0.1686 0.4680 0.3962
C11_7 C 0.0506(4) 0.3713(4) 0.6736(3)
H7_7 H 0.0310 0.3307 0.6970
C12_7 C 0.0130(4) 0.3851(4) 0.4238(3)
C13_7 C 0.1326(4) 0.4490(4) 0.4788(3)
H9_7 H 0.1760 0.4719 0.4969
C15_7 C 0.1070(4) 0.4862(4) 0.6070(3)
H10_7 H 0.1274 0.5276 0.5849
C17_7 C 0.0487(4) 0.3640(4) 0.6132(3)
H12_7 H 0.0279 0.3193 0.5955
O7_4 O 0.1170(2) 0.5411(2) 0.7949(2)
O1_7 O 0.9814(2) 0.3779(2) 0.7973(2)
C3_7 C 0.9125(3) 0.3931(3) 0.7903(2)
H1_7 H 0.9749 0.3601 0.5050
O2_7 O 0.7469(2) 0.4116(2) 0.7637(2)
H2_7 H 0.7791 0.4455 0.7720
C5_7 C 0.8596(3) 0.3300(3) 0.7732(2)
C6_7 C 0.7372(4) 0.2819(4) 0.7436(3)
H3_7 H 0.6848 0.2904 0.7346
C7_7 C 0.7820(3) 0.3432(3) 0.7608(3)
C8_7 C 0.7667(4) 0.2082(3) 0.7389(3)
O3_7 O 0.8764(3) 0.1240(2) 0.7492(3)
H5_7 H 0.8419 0.0914 0.7428
H8_7 H 0.9705 0.3620 0.4046
C14_7 C 0.8445(4) 0.1958(3) 0.7514(3)
C16_7 C 0.8896(3) 0.2560(3) 0.7680(3)
H11_7 H 0.9422 0.2474 0.7761
O4_4 O 0.8830(2) 0.4589(2) 0.7949(2)
O6_7 O 0.7404(3) 0.0773(3) 0.7211(2)
C18_7 C 0.7153(5) 0.1451(4) 0.7213(3)
O1_8 O 0.0186(2) 0.6221(2) 0.7973(2)
C3_8 C 0.0875(3) 0.6069(3) 0.7903(2)
H1_8 H 0.0251 0.6399 0.5050
O2_8 O 0.2531(2) 0.5884(2) 0.7637(2)
H2_8 H 0.2209 0.5545 0.7720
C5_8 C 0.1404(3) 0.6700(3) 0.7732(2)
C6_8 C 0.2628(4) 0.7181(4) 0.7436(3)
H3_8 H 0.3152 0.7096 0.7346
C7_8 C 0.2180(3) 0.6568(3) 0.7608(3)
C8_8 C 0.2333(4) 0.7918(3) 0.7389(3)
O3_8 O 0.1236(3) 0.8760(2) 0.7492(3)
H5_8 H 0.1581 0.9086 0.7428
H8_8 H 0.0295 0.6380 0.4046
C14_8 C 0.1555(4) 0.8042(3) 0.7514(3)
C16_8 C 0.1104(3) 0.7440(3) 0.7680(3)
H11_8 H 0.0578 0.7526 0.7761
O6_8 O 0.2596(3) 0.9227(3) 0.7211(2)
C18_8 C 0.2847(5) 0.8549(4) 0.7213(3)
N1_8 N 0.9214(2) 0.5670(2) 0.7009(2)
C1_8 C 0.9242(3) 0.5816(4) 0.5136(2)
C2_8 C 0.9227(4) 0.5775(4) 0.5786(3)
C4_8 C 0.9850(4) 0.6159(4) 0.4835(3)
C9_8 C 0.8935(4) 0.5113(3) 0.6671(3)
H4_8 H 0.8728 0.4674 0.6859
C10_8 C 0.8722(4) 0.5529(4) 0.4187(3)
H6_8 H 0.8314 0.5320 0.3962
C11_8 C 0.9494(4) 0.6287(4) 0.6736(3)
H7_8 H 0.9690 0.6693 0.6970
C12_8 C 0.9870(4) 0.6149(4) 0.4238(3)
C13_8 C 0.8674(4) 0.5510(4) 0.4788(3)
H9_8 H 0.8240 0.5281 0.4969
C15_8 C 0.8930(4) 0.5138(4) 0.6070(3)
H10_8 H 0.8726 0.4724 0.5849
C17_8 C 0.9513(4) 0.6360(4) 0.6132(3)
H12_8 H 0.9721 0.6807 0.5955
loop_
_geom_bond_atom_site_label_1
_geom_bond_atom_site_label_2
_geom_bond_site_symmetry_1
_geom_bond_site_symmetry_2
C3 O1 1_555 1_555
O2 H2 1_555 1_555
C5 C3 1_555 1_555
C6 H3 1_555 1_555
C7 O2 1_555 1_555
C8 C6 1_555 1_555
O3 H5 1_555 1_555
C14 C8 1_555 1_555
C16 C5 1_555 1_555
H11 C16 1_555 1_555
O4 C3 1_555 1_555
O5 C18 1_555 1_555
O6 C18 1_555 1_555
C18 C8 1_555 1_555
Zn3 O4 1_555 1_555
Zn4 O5 1_555 1_555
C5 C7 1_555 1_555
C6 C7 1_555 1_555
O3 C14 1_555 1_555
C14 C16 1_555 1_555
Zn1 N1 1_555 1_555
N1 C9 1_555 1_555
N2 C10 1_555 1_555
C1 C2 1_555 1_555
C2 C15 1_555 1_555
C4 C1 1_555 1_555
C9 H4 1_555 1_555
C10 H6 1_555 1_555
C11 N1 1_555 1_555
H7 C11 1_555 1_555
C12 N2 1_555 1_555
C13 C1 1_555 1_555
H9 C13 1_555 1_555
C15 C9 1_555 1_555
H10 C15 1_555 1_555
C17 C2 1_555 1_555
H12 C17 1_555 1_555
Zn2 N2 1_555 1_555
N3 Zn1 1_555 1_555
O7 Zn1 1_555 1_555
O8 Zn1 1_555 1_555
C4 C12 1_555 1_555
C10 C13 1_555 1_555
C11 C17 1_555 1_555
Zn3 N1_2 1_555 1_555
N1_2 C9_2 1_555 1_555
N2_2 C10_2 1_555 1_555
C1_2 C2_2 1_555 1_555
C2_2 C15_2 1_555 1_555
C4_2 C1_2 1_555 1_555
C9_2 H4_2 1_555 1_555
C10_2 H6_2 1_555 1_555
C11_2 N1_2 1_555 1_555
H7_2 C11_2 1_555 1_555
C12_2 N2_2 1_555 1_555
C13_2 C1_2 1_555 1_555
H9_2 C13_2 1_555 1_555
C15_2 C9_2 1_555 1_555
H10_2 C15_2 1_555 1_555
C17_2 C2_2 1_555 1_555
H12_2 C17_2 1_555 1_555
Zn2_2 N2_2 1_555 1_555
N3_2 Zn3 1_555 1_555
O8_2 Zn3 1_555 1_555
C4_2 C12_2 1_555 1_555
C10_2 C13_2 1_555 1_555
C11_2 C17_2 1_555 1_555
C3_2 O1_2 1_555 1_555
O2_2 H2_2 1_555 1_555
C5_2 C3_2 1_555 1_555
C6_2 H3_2 1_555 1_555
C7_2 O2_2 1_555 1_555
C8_2 C6_2 1_555 1_555
O3_2 H5_2 1_555 1_555
C14_2 C8_2 1_555 1_555
C16_2 C5_2 1_555 1_555
H11_2 C16_2 1_555 1_555
O7 C3_2 1_555 1_555
O5_2 C18_2 1_555 1_555
O6_2 C18_2 1_555 1_555
C18_2 C8_2 1_555 1_555
Zn4_2 O5_2 1_555 1_555
C5_2 C7_2 1_555 1_555
C6_2 C7_2 1_555 1_555
O3_2 C14_2 1_555 1_555
C14_2 C16_2 1_555 1_555
Zn4_2 N1_3 1_555 1_555
N1_3 C9_3 1_555 1_555
C1_3 C2_3 1_555 1_555
C2_3 C15_3 1_555 1_555
O1_3 Zn4_2 1_555 1_555
C3_3 O1_3 1_555 1_555
O2_3 H2_3 1_555 1_555
C5_3 C3_3 1_555 1_555
C6_3 H3_3 1_555 1_555
C7_3 O2_3 1_555 1_555
C8_3 C6_3 1_555 1_555
O3_3 H5_3 1_555 1_555
C11_3 N1_3 1_555 1_555
H7_3 C11_3 1_555 1_555
C14_3 C8_3 1_555 1_555
C15_3 C9_3 1_555 1_555
C16_3 C5_3 1_555 1_555
H11_3 C16_3 1_555 1_555
C17_3 C2_3 1_555 1_555
H12_3 C17_3 1_555 1_555
O4_2 C3_3 1_555 1_555
O8_2 C18_3 1_555 1_555
O6_3 C18_3 1_555 1_555
C18_3 C8_3 1_555 1_555
N3_3 Zn4_2 1_555 1_555
C5_3 C7_3 1_555 1_555
C6_3 C7_3 1_555 1_555
O3_3 C14_3 1_555 1_555
C11_3 C17_3 1_555 1_555
C14_3 C16_3 1_555 1_555
N2_3 C10_3 1_555 1_555
C10_3 H6_3 1_555 1_555
C12_3 N2_3 1_555 1_555
H8_3 C12_3 1_555 1_555
H9_3 C13_3 1_555 1_555
Zn2_3 N2_3 1_555 1_555
C4_3 C12_3 1_555 1_555
C10_3 C13_3 1_555 1_555
Zn4 N1_4 1_555 1_555
N1_4 C9_4 1_555 1_555
C1_4 C2_4 1_555 1_555
C2_4 C15_4 1_555 1_555
O1_4 Zn4 1_555 1_555
C3_4 O1_4 1_555 1_555
O2_4 H2_4 1_555 1_555
C5_4 C3_4 1_555 1_555
C6_4 H3_4 1_555 1_555
C7_4 O2_4 1_555 1_555
C8_4 C6_4 1_555 1_555
O3_4 H5_4 1_555 1_555
C11_4 N1_4 1_555 1_555
H7_4 C11_4 1_555 1_555
C14_4 C8_4 1_555 1_555
C15_4 C9_4 1_555 1_555
C16_4 C5_4 1_555 1_555
H11_4 C16_4 1_555 1_555
C17_4 C2_4 1_555 1_555
H12_4 C17_4 1_555 1_555
O7_2 C3_4 1_555 1_555
O8 C18_4 1_555 1_555
O6_4 C18_4 1_555 1_555
C18_4 C8_4 1_555 1_555
N3_4 Zn4 1_555 1_555
C5_4 C7_4 1_555 1_555
C6_4 C7_4 1_555 1_555
O3_4 C14_4 1_555 1_555
C11_4 C17_4 1_555 1_555
C14_4 C16_4 1_555 1_555
N2_4 C10_4 1_555 1_555
C10_4 H6_4 1_555 1_555
C12_4 N2_4 1_555 1_555
H8_4 C12_4 1_555 1_555
H9_4 C13_4 1_555 1_555
Zn2_4 N2_4 1_555 1_555
C4_4 C12_4 1_555 1_555
C10_4 C13_4 1_555 1_555
N3 C10_5 1_555 1_555
C10_5 H6_5 1_555 1_555
C12_5 N3 1_555 1_555
H8_5 C12_5 1_555 1_555
H9_5 C13_5 1_555 1_555
C4_5 C12_5 1_555 1_555
C10_5 C13_5 1_555 1_555
Zn2 N1_5 1_555 1_555
N1_5 C9_5 1_555 1_555
C1_5 C2_5 1_555 1_555
C2_5 C15_5 1_555 1_555
O1_5 Zn2 1_555 1_555
C3_5 O1_5 1_555 1_555
O2_5 H2_5 1_555 1_555
C5_5 C3_5 1_555 1_555
C6_5 H3_5 1_555 1_555
C7_5 O2_5 1_555 1_555
C8_5 C6_5 1_555 1_555
O3_5 H5_5 1_555 1_555
C11_5 N1_5 1_555 1_555
H7_5 C11_5 1_555 1_555
C14_5 C8_5 1_555 1_555
C15_5 C9_5 1_555 1_555
C16_5 C5_5 1_555 1_555
H11_5 C16_5 1_555 1_555
C17_5 C2_5 1_555 1_555
H12_5 C17_5 1_555 1_555
O4_3 C3_5 1_555 1_555
O5_3 C18_5 1_555 1_555
O6_5 C18_5 1_555 1_555
C18_5 C8_5 1_555 1_555
Zn2_3 O5_3 1_555 1_555
O8_3 Zn2 1_555 1_555
C5_5 C7_5 1_555 1_555
C6_5 C7_5 1_555 1_555
O3_5 C14_5 1_555 1_555
C11_5 C17_5 1_555 1_555
C14_5 C16_5 1_555 1_555
N3_2 C10_6 1_555 1_555
C10_6 H6_6 1_555 1_555
C12_6 N3_2 1_555 1_555
H8_6 C12_6 1_555 1_555
H9_6 C13_6 1_555 1_555
C4_6 C12_6 1_555 1_555
C10_6 C13_6 1_555 1_555
Zn2_2 N1_6 1_555 1_555
N1_6 C9_6 1_555 1_555
C1_6 C2_6 1_555 1_555
C2_6 C15_6 1_555 1_555
O1_6 Zn2_2 1_555 1_555
C3_6 O1_6 1_555 1_555
O2_6 H2_6 1_555 1_555
C5_6 C3_6 1_555 1_555
C6_6 H3_6 1_555 1_555
C7_6 O2_6 1_555 1_555
C8_6 C6_6 1_555 1_555
O3_6 H5_6 1_555 1_555
C11_6 N1_6 1_555 1_555
H7_6 C11_6 1_555 1_555
C14_6 C8_6 1_555 1_555
C15_6 C9_6 1_555 1_555
C16_6 C5_6 1_555 1_555
H11_6 C16_6 1_555 1_555
C17_6 C2_6 1_555 1_555
H12_6 C17_6 1_555 1_555
O7_3 C3_6 1_555 1_555
O5_4 C18_6 1_555 1_555
O6_6 C18_6 1_555 1_555
C18_6 C8_6 1_555 1_555
Zn2_4 O5_4 1_555 1_555
O8_4 Zn2_2 1_555 1_555
C5_6 C7_6 1_555 1_555
C6_6 C7_6 1_555 1_555
O3_6 C14_6 1_555 1_555
C11_6 C17_6 1_555 1_555
C14_6 C16_6 1_555 1_555
Zn2_4 N1_7 1_555 1_555
N1_7 C9_7 1_555 1_555
N3_4 C10_7 1_555 1_555
C1_7 C2_7 1_555 1_555
C2_7 C15_7 1_555 1_555
C4_7 C1_7 1_555 1_555
C9_7 H4_7 1_555 1_555
C10_7 H6_7 1_555 1_555
C11_7 N1_7 1_555 1_555
H7_7 C11_7 1_555 1_555
C12_7 N3_4 1_555 1_555
C13_7 C1_7 1_555 1_555
H9_7 C13_7 1_555 1_555
C15_7 C9_7 1_555 1_555
H10_7 C15_7 1_555 1_555
C17_7 C2_7 1_555 1_555
H12_7 C17_7 1_555 1_555
O7_4 Zn2_4 1_555 1_555
C4_7 C12_7 1_555 1_555
C10_7 C13_7 1_555 1_555
C11_7 C17_7 1_555 1_555
C3_7 O1_7 1_555 1_555
O2_7 H2_7 1_555 1_555
C5_7 C3_7 1_555 1_555
C6_7 H3_7 1_555 1_555
C7_7 O2_7 1_555 1_555
C8_7 C6_7 1_555 1_555
O3_7 H5_7 1_555 1_555
C14_7 C8_7 1_555 1_555
C16_7 C5_7 1_555 1_555
H11_7 C16_7 1_555 1_555
O4_4 C3_7 1_555 1_555
O8_4 C18_7 1_555 1_555
O6_7 C18_7 1_555 1_555
C18_7 C8_7 1_555 1_555
Zn2_3 O4_4 1_555 1_555
C5_7 C7_7 1_555 1_555
C6_7 C7_7 1_555 1_555
O3_7 C14_7 1_555 1_555
C14_7 C16_7 1_555 1_555
C3_8 O1_8 1_555 1_555
O2_8 H2_8 1_555 1_555
C5_8 C3_8 1_555 1_555
C6_8 H3_8 1_555 1_555
C7_8 O2_8 1_555 1_555
C8_8 C6_8 1_555 1_555
O3_8 H5_8 1_555 1_555
C14_8 C8_8 1_555 1_555
C16_8 C5_8 1_555 1_555
H11_8 C16_8 1_555 1_555
O7_4 C3_8 1_555 1_555
O8_3 C18_8 1_555 1_555
O6_8 C18_8 1_555 1_555
C18_8 C8_8 1_555 1_555
C5_8 C7_8 1_555 1_555
C6_8 C7_8 1_555 1_555
O3_8 C14_8 1_555 1_555
C14_8 C16_8 1_555 1_555
Zn2_3 N1_8 1_555 1_555
N1_8 C9_8 1_555 1_555
N3_3 C10_8 1_555 1_555
C1_8 C2_8 1_555 1_555
C2_8 C15_8 1_555 1_555
C4_8 C1_8 1_555 1_555
C9_8 H4_8 1_555 1_555
C10_8 H6_8 1_555 1_555
C11_8 N1_8 1_555 1_555
H7_8 C11_8 1_555 1_555
C12_8 N3_3 1_555 1_555
C13_8 C1_8 1_555 1_555
H9_8 C13_8 1_555 1_555
C15_8 C9_8 1_555 1_555
H10_8 C15_8 1_555 1_555
C17_8 C2_8 1_555 1_555
H12_8 C17_8 1_555 1_555
C4_8 C12_8 1_555 1_555
C10_8 C13_8 1_555 1_555
C11_8 C17_8 1_555 1_555

#END
