
###############################################################################
#
# This file contains modified crystal structure data generated from the
# MOF subset of the Cambridge Structural Database (CSD) v543 
# hosted by the Cambridge Crystallographic Data Centre (CCDC).
#
# This work is licensed under the Creative Commons
# Attribution-NonCommercial-ShareAlike 4.0 International License.
# To view a copy of this license, visit
# http://creativecommons.org/licenses/by-nc-sa/4.0/
# or send a letter to
# Creative Commons, PO Box 1866, Mountain View, CA 94042, USA.
#
# CIF created using the CSD Python API on 29 September 2022
# The structure has been converted into the P1 space group
# The structure has a 3D framework
# The original CSD entry SUQHUJ is in the rhombohedral crystal system
# The original CSD entry SUQHUJ is in a Sohncke space group
# The framework has been calculated to contain at least 10.0% void space
# The void calculation uses a probe of radius 1.32A, grid spacing 0.4
# The framework is charged, counterions have been retained in the structure
# H atom positions have been added when not included in the experimental data
# Generated hydrogen atom positions removed from atoms on special positions
#
###############################################################################

data_SUQHUJ
_chemical_formula_moiety         '(C54 H90 In11 N10 O83)n'
_symmetry_cell_setting           triclinic
_symmetry_space_group_name_H-M   'P 1'
_symmetry_Int_Tables_number      1
_space_group_name_Hall           'P 1'
loop_
_symmetry_equiv_pos_site_id
_symmetry_equiv_pos_as_xyz
1 x,y,z
_cell_length_a                   13.9508(19)
_cell_length_b                   13.9508(19)
_cell_length_c                   22.402(7)
_cell_angle_alpha                90
_cell_angle_beta                 90
_cell_angle_gamma                120
_cell_volume                     3775.86
loop_
_atom_site_label
_atom_site_type_symbol
_atom_site_fract_x
_atom_site_fract_y
_atom_site_fract_z
O11 O 0.5785(6) -0.0000(8) 0.0000
O11_2 O 0.5785(6) -0.0000(8) 1.0000
O12 O 0.5676(6) 0.1227(8) 0.9088(3)
O13 O 0.7509(5) 0.1914(7) 0.8909(3)
C10 C 0.6627(7) 0.1313(10) 0.9172(4)
C11 C 0.6707(7) 0.0593(10) 0.9641(3)
C12 C 0.7497(9) 0.0393(12) 0.9766(5)
H4 H 0.8187 0.0704 0.9583
In7 In 0.81294(5) 0.3333 0.8333
In9 In 0.52036(5) 0.18706(5) 0.8333
In1 In 0.47964(5) 0.6667 0.1667
O1 O 0.6290(7) 0.6667 0.1667
O2 O 0.4324(6) 0.5551(5) 0.0912(3)
O3 O 0.2491(5) 0.4405(5) 0.1091(3)
O4 O 0.4215(6) 0.4215(6) 0.0000
O5 O 0.3333 0.6667 0.1667
C1 C 0.3373(7) 0.4686(7) 0.0828(4)
C2 C 0.3293(7) 0.3886(7) 0.0359(3)
C3 C 0.2503(9) 0.2896(8) 0.0234(5)
H1 H 0.1813 0.2517 0.0417
In2 In 0.3333 0.81294(5) 0.1667
O8 O 0.3333 0.9623(7) 0.1667
O9 O 0.4449(5) 0.8773(8) 0.0912(3)
O10 O 0.5595(5) 0.8086(7) 0.1091(3)
O11_3 O 0.5785(6) 1.0000(8) 0.0000
C7 C 0.5314(7) 0.8687(10) 0.0828(4)
C8 C 0.6114(7) 0.9407(10) 0.0359(3)
C9 C 0.7104(8) 0.9607(12) 0.0234(5)
H3 H 0.7483 0.9296 0.0417
In3 In 0.18706(5) 0.52036(5) 0.1667
O14 O 0.0377(7) 0.3710(7) 0.1667
O15 O 0.1227(8) 0.5676(6) 0.0912(3)
O16 O 0.1914(7) 0.7509(5) 0.1091(3)
O17 O -0.0000(8) 0.5785(6) 0.0000
C13 C 0.1313(10) 0.6627(7) 0.0828(4)
C14 C 0.0593(10) 0.6707(7) 0.0359(3)
C15 C 0.0393(12) 0.7497(9) 0.0234(5)
H5 H 0.0704 0.8187 0.0417
O20 O 0.2218(5) 0.7657(6) 0.2421(3)
O21 O 0.5440(8) 0.7782(5) 0.2421(3)
O22 O 0.2343(6) 0.4560(8) 0.2421(3)
O23 O 0.1072(5) 0.5824(5) 0.2242(3)
O24 O 0.4753(7) 0.8928(5) 0.2242(3)
O25 O 0.4176(5) 0.5247(7) 0.2242(3)
O4_2 O 0.4215(6) 0.4215(6) 1.0000
O6 O 0.5551(5) 0.4324(6) 0.9088(3)
O7 O 0.4405(5) 0.2491(5) 0.8909(3)
C4 C 0.4686(7) 0.3373(7) 0.9172(4)
C5 C 0.3886(7) 0.3293(7) 0.9641(3)
C6 C 0.2896(8) 0.2503(9) 0.9766(5)
H2 H 0.2517 0.1813 0.9583
O11_4 O 0.5785(6) 1.0000(8) 1.0000
O17_2 O -0.0000(8) 0.5785(6) 1.0000
In5 In 0.6667 0.47964(5) 0.8333
O17_3 O 1.0000(8) 0.5785(6) 0.0000
H10 H 0.983017 0.37823 0.191832
O17_4 O 1.0000(8) 0.5785(6) 1.0000
O18 O 0.8773(8) 0.4449(5) 0.9088(3)
O19 O 0.8086(7) 0.5595(5) 0.8909(3)
C16 C 0.8687(10) 0.5314(7) 0.9172(4)
C17 C 0.9407(10) 0.6114(7) 0.9641(3)
C18 C 0.9607(12) 0.7104(8) 0.9766(5)
H6 H 0.9296 0.7483 0.9583
H10_2 H 0.395213 0.0169825 0.191832
O1_2 O 0.6667 0.6290(7) 0.8333
O5_2 O 0.6667 0.3333 0.8333
O8_2 O 0.9623(7) 0.3333 0.8333
O14_2 O 0.3710(7) 0.0377(7) 0.8333
O20_2 O 0.7657(6) 0.2218(5) 0.7579(3)
O21_2 O 0.7782(5) 0.5440(8) 0.7579(3)
O22_2 O 0.4560(8) 0.2343(6) 0.7579(3)
O23_2 O 0.5824(5) 0.1072(5) 0.7758(3)
O24_2 O 0.8928(5) 0.4753(7) 0.7758(3)
O25_2 O 0.5247(7) 0.4176(5) 0.7758(3)
H10_3 H 0.37823 0.983017 0.808168
H10_4 H 0.0169825 0.395213 0.808168
In1_2 In 0.14631(5) 0.0000 0.5000
O1_3 O 0.2957(7) 0.0000 0.5000
O5_3 O -0.0000 0.0000 0.5000
In2_2 In -0.0000 0.14627(5) 0.5000
O8_3 O -0.0000 0.2956(7) 0.5000
O9_2 O 0.1116(5) 0.2106(8) 0.4245(3)
O10_2 O 0.2262(5) 0.1419(7) 0.4424(3)
O11_5 O 0.2452(6) 0.3333(8) 0.3333
C7_2 C 0.1981(7) 0.2020(10) 0.4161(4)
C8_2 C 0.2781(7) 0.2740(10) 0.3692(3)
C9_2 C 0.3771(8) 0.2940(12) 0.3567(5)
H3_2 H 0.4150 0.2629 0.3750
C10_2 C 0.3294(7) 0.4646(10) 0.2505(4)
C11_2 C 0.3374(7) 0.3926(10) 0.2974(3)
C12_2 C 0.4164(9) 0.3726(12) 0.3099(5)
H4_2 H 0.4854 0.4037 0.2916
O21_3 O 0.2106(8) 0.1116(5) 0.5755(3)
O24_3 O 0.1419(7) 0.2262(5) 0.5576(3)
In1_3 In 0.14631(5) 1.0000 0.5000
O1_4 O 0.2957(7) 1.0000 0.5000
O2_2 O 0.0991(6) 0.8884(5) 0.4245(3)
O4_3 O 0.0882(6) 0.7548(6) 0.3333
O5_4 O -0.0000 1.0000 0.5000
C1_2 C 0.0040(7) 0.8019(7) 0.4161(4)
C4_2 C 0.1353(7) 0.6706(7) 0.2505(4)
C5_2 C 0.0553(7) 0.6626(7) 0.2974(3)
O25_3 O 0.0842(5) 0.8581(7) 0.5576(3)
O5_5 O 1.0000 0.0000 0.5000
In2_3 In 1.0000 0.14627(5) 0.5000
O8_4 O 1.0000 0.2956(7) 0.5000
O16_2 O 0.8581(7) 0.0842(5) 0.4424(3)
C14_2 C 0.7260(10) 0.0040(7) 0.3692(3)
C15_2 C 0.7060(12) 0.0830(9) 0.3567(5)
H5_2 H 0.7371 0.1520 0.3750
C18_2 C 0.6274(12) 0.0437(8) 0.3099(5)
H6_2 H 0.5963 0.0816 0.2916
O20_3 O 0.8884(5) 0.0991(6) 0.5755(3)
O3_2 O 0.9158(5) 0.7738(5) 0.4424(3)
O5_6 O 1.0000 1.0000 0.5000
C2_2 C 0.9960(7) 0.7219(7) 0.3692(3)
C3_2 C 0.9170(9) 0.6229(8) 0.3567(5)
H1_2 H 0.8480 0.5850 0.3750
C6_2 C 0.9563(8) 0.5836(9) 0.3099(5)
H2_2 H 0.9184 0.5146 0.2916
In3_2 In 0.85373(5) 0.85369(5) 0.5000
O14_3 O 0.7044(7) 0.7043(7) 0.5000
O15_2 O 0.7894(8) 0.9009(6) 0.4245(3)
O17_5 O 0.6667(8) 0.9118(6) 0.3333
C13_2 C 0.7980(10) 0.9960(7) 0.4161(4)
C16_2 C 0.5354(10) 0.8647(7) 0.2505(4)
C17_2 C 0.6074(10) 0.9447(7) 0.2974(3)
O22_3 O 0.9009(6) 0.7894(8) 0.5755(3)
O23_3 O 0.7738(5) 0.9158(5) 0.5576(3)
H7 H 0.361689 0.000220945 0.205533
H8 H 0.38167 0.0102112 0.133955
H9 H 0.978284 0.382963 0.150282
H9_2 H 0.404679 0.0217157 0.150282
H11 H 0.999779 0.361468 0.205533
H12 H 0.989789 0.371459 0.133955
C9_3 C 0.0437(8) 0.6274(12) 0.6901(5)
H3_3 H 0.0816 0.5963 0.7084
C11_3 C 0.0040(7) 0.7260(10) 0.6308(3)
C12_3 C 0.0830(9) 0.7060(12) 0.6433(5)
H4_3 H 0.1520 0.7371 0.6250
H7_2 H 0.000220945 0.361689 0.794467
H8_2 H 0.0102112 0.38167 0.866045
O4_4 O 0.7548(6) 0.0882(6) 0.6667
C1_3 C 0.6706(7) 0.1353(7) 0.7495(4)
C2_3 C 0.6626(7) 0.0553(7) 0.7026(3)
C4_3 C 0.8019(7) 0.0040(7) 0.5839(4)
O11_6 O 0.9118(6) 0.6667(8) 0.6667
C7_3 C 0.8647(7) 0.5354(10) 0.7495(4)
C8_3 C 0.9447(7) 0.6074(10) 0.7026(3)
C10_3 C 0.9960(7) 0.7980(10) 0.5839(4)
O17_6 O 0.3333(8) 0.2452(6) 0.6667
C13_3 C 0.4646(10) 0.3294(7) 0.7495(4)
C14_3 C 0.3926(10) 0.3374(7) 0.7026(3)
C15_3 C 0.3726(12) 0.4164(9) 0.6901(5)
H5_3 H 0.4037 0.4854 0.7084
C16_3 C 0.2020(10) 0.1981(7) 0.5839(4)
C17_3 C 0.2740(10) 0.2781(7) 0.6308(3)
C18_3 C 0.2940(12) 0.3771(8) 0.6433(5)
H6_3 H 0.2629 0.4150 0.6250
C3_3 C 0.5836(9) 0.9563(8) 0.6901(5)
H1_3 H 0.5146 0.9184 0.7084
C5_3 C 0.7219(7) 0.9960(7) 0.6308(3)
C6_3 C 0.6229(8) 0.9170(9) 0.6433(5)
H2_3 H 0.5850 0.8480 0.6250
H9_3 H 0.382963 0.978284 0.849718
H9_4 H 0.0217157 0.404679 0.849718
H11_2 H 0.361468 0.999779 0.794467
H12_2 H 0.371459 0.989789 0.866045
N1 N 0.0000 0.0000 0.0000
O26 O 0.0000 0.083(2) 0.0000
O28 O 0.0830(20) 0.0000 0.0000
N1_2 N 0.0000 0.0000 1.0000
O26_2 O -0.0000 0.083(2) 1.0000
O28_2 O 0.0830(20) 0.0000 1.0000
N1_3 N 0.0000 1.0000 0.0000
O28_3 O 0.0830(20) 1.0000 0.0000
N1_4 N -0.0000 1.0000 1.0000
O28_4 O 0.0830(20) 1.0000 1.0000
N1_5 N 1.0000 0.0000 0.0000
O26_3 O 1.0000 0.083(2) 0.0000
N1_6 N 1.0000 0.0000 1.0000
O26_4 O 1.0000 0.083(2) 1.0000
N1_7 N 1.0000 1.0000 0.0000
O27 O 0.917(2) 0.9170(20) 0.0000
N1_8 N 1.0000 1.0000 1.0000
O27_2 O 0.917(2) 0.9170(20) 1.0000
N1_9 N 0.6667 0.3333 0.3333
O26_5 O 0.6667 0.416(2) 0.3333
O27_3 O 0.584(2) 0.2503(20) 0.3333
O28_5 O 0.7497(20) 0.3333 0.3333
N1_10 N 0.3333 0.6667 0.6667
O26_6 O 0.3333 0.750(2) 0.6667
O27_4 O 0.250(2) 0.5837(20) 0.6667
O28_6 O 0.4163(20) 0.6667 0.6667
loop_
_geom_bond_atom_site_label_1
_geom_bond_atom_site_label_2
_geom_bond_site_symmetry_1
_geom_bond_site_symmetry_2
O12 C10 1_555 1_555
O13 C10 1_555 1_555
C10 C11 1_555 1_555
C11 O11_2 1_555 1_555
H4 C12 1_555 1_555
In7 O13 1_555 1_555
In9 O12 1_555 1_555
C11 C12 1_555 1_555
In1 O1 1_555 1_555
O2 In1 1_555 1_555
O3 C1 1_555 1_555
O4 C2 1_555 1_555
O5 In1 1_555 1_555
C1 O2 1_555 1_555
C2 C1 1_555 1_555
C3 C2 1_555 1_555
H1 C3 1_555 1_555
In2 O5 1_555 1_555
O8 In2 1_555 1_555
O9 In2 1_555 1_555
O10 In1 1_555 1_555
O11_3 C8 1_555 1_555
C7 O9 1_555 1_555
C8 C7 1_555 1_555
C9 C8 1_555 1_555
H3 C9 1_555 1_555
In3 O3 1_555 1_555
O14 In3 1_555 1_555
O15 In3 1_555 1_555
O16 In2 1_555 1_555
O17 C14 1_555 1_555
C13 O15 1_555 1_555
C14 C13 1_555 1_555
C15 C14 1_555 1_555
H5 C15 1_555 1_555
O20 In2 1_555 1_555
O21 In1 1_555 1_555
O22 In3 1_555 1_555
O23 In3 1_555 1_555
O24 In2 1_555 1_555
O25 In1 1_555 1_555
O5 In3 1_555 1_555
O10 C7 1_555 1_555
O16 C13 1_555 1_555
O6 C4 1_555 1_555
O7 C4 1_555 1_555
C4 C5 1_555 1_555
C5 O4_2 1_555 1_555
H2 C6 1_555 1_555
In5 O6 1_555 1_555
In9 O7 1_555 1_555
C5 C6 1_555 1_555
O18 C16 1_555 1_555
O19 C16 1_555 1_555
C16 C17 1_555 1_555
C17 O17_4 1_555 1_555
H6 C18 1_555 1_555
In5 O19 1_555 1_555
In7 O18 1_555 1_555
C17 C18 1_555 1_555
In5 O1_2 1_555 1_555
O5_2 In5 1_555 1_555
In7 O5_2 1_555 1_555
O8_2 In7 1_555 1_555
O14_2 In9 1_555 1_555
O20_2 In7 1_555 1_555
O21_2 In5 1_555 1_555
O22_2 In9 1_555 1_555
O23_2 In9 1_555 1_555
O24_2 In7 1_555 1_555
O25_2 In5 1_555 1_555
O5_2 In9 1_555 1_555
In1_2 O1_3 1_555 1_555
O5_3 In1_2 1_555 1_555
In2_2 O5_3 1_555 1_555
O8_3 In2_2 1_555 1_555
O9_2 In2_2 1_555 1_555
O10_2 In1_2 1_555 1_555
O11_5 C8_2 1_555 1_555
C7_2 O9_2 1_555 1_555
C8_2 C7_2 1_555 1_555
C9_2 C8_2 1_555 1_555
H3_2 C9_2 1_555 1_555
O22 C10_2 1_555 1_555
O25 C10_2 1_555 1_555
C10_2 C11_2 1_555 1_555
C11_2 O11_5 1_555 1_555
C12_2 C9_2 1_555 1_555
H4_2 C12_2 1_555 1_555
O21_3 In1_2 1_555 1_555
O24_3 In2_2 1_555 1_555
O10_2 C7_2 1_555 1_555
C11_2 C12_2 1_555 1_555
In1_3 O1_4 1_555 1_555
O2_2 In1_3 1_555 1_555
O5_4 In1_3 1_555 1_555
C1_2 O2_2 1_555 1_555
O20 C4_2 1_555 1_555
O23 C4_2 1_555 1_555
C4_2 C5_2 1_555 1_555
C5_2 O4_3 1_555 1_555
O25_3 In1_3 1_555 1_555
In2_3 O5_5 1_555 1_555
O8_4 In2_3 1_555 1_555
O16_2 In2_3 1_555 1_555
C15_2 C14_2 1_555 1_555
H5_2 C15_2 1_555 1_555
C18_2 C15_2 1_555 1_555
H6_2 C18_2 1_555 1_555
O20_3 In2_3 1_555 1_555
C3_2 C2_2 1_555 1_555
H1_2 C3_2 1_555 1_555
C6_2 C3_2 1_555 1_555
H2_2 C6_2 1_555 1_555
In3_2 O3_2 1_555 1_555
O14_3 In3_2 1_555 1_555
O15_2 In3_2 1_555 1_555
C13_2 O15_2 1_555 1_555
O21 C16_2 1_555 1_555
O24 C16_2 1_555 1_555
C16_2 C17_2 1_555 1_555
C17_2 O17_5 1_555 1_555
O22_3 In3_2 1_555 1_555
O23_3 In3_2 1_555 1_555
O5_6 In3_2 1_555 1_555
H3_3 C9_3 1_555 1_555
C12_3 C9_3 1_555 1_555
H4_3 C12_3 1_555 1_555
C11_3 C12_3 1_555 1_555
O23_2 C1_3 1_555 1_555
O4_4 C2_3 1_555 1_555
C1_3 O20_2 1_555 1_555
C2_3 C1_3 1_555 1_555
O20_3 C4_3 1_555 1_555
O11_6 C8_3 1_555 1_555
C7_3 O21_2 1_555 1_555
C8_3 C7_3 1_555 1_555
O22_3 C10_3 1_555 1_555
O17_6 C14_3 1_555 1_555
C13_3 O22_2 1_555 1_555
C14_3 C13_3 1_555 1_555
C15_3 C14_3 1_555 1_555
H5_3 C15_3 1_555 1_555
O21_3 C16_3 1_555 1_555
O24_3 C16_3 1_555 1_555
C16_3 C17_3 1_555 1_555
C17_3 O17_6 1_555 1_555
C18_3 C15_3 1_555 1_555
H6_3 C18_3 1_555 1_555
O24_2 C7_3 1_555 1_555
O25_2 C13_3 1_555 1_555
C17_3 C18_3 1_555 1_555
H1_3 C3_3 1_555 1_555
C6_3 C3_3 1_555 1_555
H2_3 C6_3 1_555 1_555
C5_3 C6_3 1_555 1_555
N1 O26 1_555 1_555
O28 N1 1_555 1_555
N1_2 O26_2 1_555 1_555
O28_2 N1_2 1_555 1_555
O28_3 N1_3 1_555 1_555
O28_4 N1_4 1_555 1_555
N1_5 O26_3 1_555 1_555
N1_6 O26_4 1_555 1_555
O27 N1_7 1_555 1_555
O27_2 N1_8 1_555 1_555
N1_9 O26_5 1_555 1_555
O27_3 N1_9 1_555 1_555
O28_5 N1_9 1_555 1_555
N1_10 O26_6 1_555 1_555
O27_4 N1_10 1_555 1_555
O28_6 N1_10 1_555 1_555

#END
