
###############################################################################
#
# This file contains modified crystal structure data generated from the
# MOF subset of the Cambridge Structural Database (CSD) v543 
# hosted by the Cambridge Crystallographic Data Centre (CCDC).
#
# This work is licensed under the Creative Commons
# Attribution-NonCommercial-ShareAlike 4.0 International License.
# To view a copy of this license, visit
# http://creativecommons.org/licenses/by-nc-sa/4.0/
# or send a letter to
# Creative Commons, PO Box 1866, Mountain View, CA 94042, USA.
#
# CIF created using the CSD Python API on 29 September 2022
# The structure has been converted into the P1 space group
# The structure has a 3D framework
# The original CSD entry SURDOA is in the monoclinic crystal system
# The framework has been calculated to contain at least 10.0% void space
# The void calculation uses a probe of radius 1.32A, grid spacing 0.4
#
###############################################################################

data_SURDOA
_chemical_formula_moiety         '(C136 H96 Co8 N24 O32)n'
_symmetry_cell_setting           triclinic
_symmetry_space_group_name_H-M   'P 1'
_symmetry_Int_Tables_number      1
_space_group_name_Hall           'P 1'
loop_
_symmetry_equiv_pos_site_id
_symmetry_equiv_pos_as_xyz
1 x,y,z
_cell_length_a                   26.323(4)
_cell_length_b                   14.696(2)
_cell_length_c                   26.630(4)
_cell_angle_alpha                90
_cell_angle_beta                 157.747(4)
_cell_angle_gamma                90
_cell_volume                     3901.19
loop_
_atom_site_label
_atom_site_type_symbol
_atom_site_fract_x
_atom_site_fract_y
_atom_site_fract_z
Co6 Co 0.09447(6) 0.04689(6) 0.52335(6)
Co1 Co 0.40553(6) 0.45311(6) 0.47665(6)
O1 O 0.2813(3) 0.4031(3) 0.3118(3)
O2 O 0.1373(3) 0.4517(3) 0.2378(3)
N1 N 0.3729(4) 0.3714(4) 0.5072(4)
N3 N 0.1096(4) 0.0805(3) 0.0115(4)
C1 C 0.1622(5) 0.4182(4) 0.2190(5)
C2 C 0.0499(5) 0.3956(4) 0.0804(4)
C8 C 0.0753(5) 0.3612(4) 0.0569(5)
H3 H 0.1634 0.3479 0.1285
C10 C 0.1758(5) 0.2036(5) 0.0293(5)
H6 H 0.2221 0.2417 0.0499
C11 C 0.1995(5) 0.1148(4) 0.0596(5)
H7 H 0.2676 0.0812 0.1067
C13 C 0.3160(7) 0.2900(5) 0.4504(6)
H9 H 0.3089 0.2649 0.4119
C14 C 0.2670(7) 0.2411(5) 0.4458(7)
H10 H 0.2273 0.1847 0.4040
C15 C 0.2766(6) 0.2752(5) 0.5026(6)
C16 C 0.3395(6) 0.3572(5) 0.5649(5)
H11 H 0.3511 0.3825 0.6072
C17 C 0.3858(5) 0.4027(5) 0.5658(5)
H12 H 0.4285 0.4584 0.6095
N4 N 0.1271(4) 0.1286(4) 0.4928(4)
C18 C 0.1840(7) 0.2100(5) 0.5496(6)
H13 H 0.1911 0.2351 0.5881
C19 C 0.2330(7) 0.2589(5) 0.5542(7)
H14 H 0.2727 0.3153 0.5960
C20 C 0.2234(6) 0.2248(5) 0.4974(6)
C21 C 0.1605(6) 0.1428(5) 0.4351(5)
H15 H 0.1489 0.1175 0.3928
C22 C 0.1142(5) 0.0973(5) 0.4342(5)
H16 H 0.0715 0.0416 0.3905
O5 O 0.2187(3) 0.0969(3) 0.6882(3)
O6 O 0.3627(3) 0.0483(3) 0.7622(3)
N6 N 0.3904(4) 0.4195(3) 0.9885(4)
C23 C 0.3378(5) 0.0818(4) 0.7810(5)
C24 C 0.4501(5) 0.1044(4) 0.9196(4)
C30 C 0.4247(5) 0.1388(4) 0.9431(5)
H19 H 0.3366 0.1521 0.8715
C32 C 0.3242(5) 0.2964(5) 0.9707(5)
H22 H 0.2779 0.2583 0.9501
C33 C 0.3005(5) 0.3852(4) 0.9404(5)
H23 H 0.2324 0.4188 0.8933
Co5 Co 0.40553(6) 0.54689(6) 0.97665(6)
O9 O 0.5838(3) 0.4219(3) 0.6122(3)
N7 N 0.3904(4) 0.5805(3) 0.4885(4)
Co4 Co 0.09447(6) 0.95311(6) 0.02335(6)
N8 N 0.1096(4) 0.9195(3) 0.5115(4)
O4 O 0.6491(3) 0.4618(3) 0.7484(3)
C3 C 0.9185(5) 0.4170(4) 0.9733(4)
H1 H 0.9004 0.4413 0.9883
C4 C 0.8144(5) 0.4023(4) 0.8445(4)
C5 C 0.6733(5) 0.4318(4) 0.7283(5)
C6 C 0.8431(5) 0.3666(4) 0.8242(5)
H2 H 0.7732 0.3565 0.7378
C7 C 0.9729(5) 0.3452(4) 0.9283(5)
H4 H 0.9215 0.3132 0.8096
H8 H 0.9619 0.1494 0.9108
O1_2 O 0.2187(3) 0.9031(3) 0.1882(3)
O2_2 O 0.3627(3) 0.9517(3) 0.2622(3)
O3 O 0.9162(3) 0.9219(3) 0.8878(3)
O4_2 O 0.8509(3) 0.9618(3) 0.7516(3)
N2 N 0.4305(4) 0.7265(4) 0.5379(4)
C1_2 C 0.3378(5) 0.9182(4) 0.2810(5)
C2_2 C 0.4501(5) 0.8956(4) 0.4196(4)
C3_2 C 0.5815(5) 0.9170(4) 0.5267(4)
H1_2 H 0.5996 0.9413 0.5117
C4_2 C 0.6856(5) 0.9023(4) 0.6555(4)
C5_2 C 0.8267(5) 0.9318(4) 0.7717(5)
C6_2 C 0.6569(5) 0.8666(4) 0.6758(5)
H2_2 H 0.7268 0.8565 0.7622
C7_2 C 0.5271(5) 0.8452(4) 0.5717(5)
C8_2 C 0.4247(5) 0.8612(4) 0.4431(5)
H3_2 H 0.3366 0.8479 0.3715
C9 C 0.4959(5) 0.8156(4) 0.5956(5)
H4_2 H 0.5785 0.8132 0.6904
H5 H 0.4378 0.8604 0.5581
C10_2 C 0.3242(5) 0.7036(5) 0.4707(5)
H6_2 H 0.2779 0.7417 0.4501
C11_2 C 0.3005(5) 0.6148(4) 0.4404(5)
H7_2 H 0.2324 0.5812 0.3933
C12 C 0.4672(5) 0.6518(4) 0.5471(5)
H8_2 H 0.5381 0.6494 0.5892
C13_2 C 0.1840(7) 0.7900(5) 0.0496(6)
H9_2 H 0.1911 0.7649 0.0881
C14_2 C 0.2330(7) 0.7411(5) 0.0542(7)
H10_2 H 0.2727 0.6847 0.0960
N4_2 N 0.3729(4) 0.6286(4) 0.0072(4)
C20_2 C 0.2766(6) 0.7248(5) 0.0026(6)
C21_2 C 0.3395(6) 0.6428(5) 0.0649(5)
H15_2 H 0.3511 0.6175 0.1072
C22_2 C 0.3858(5) 0.5973(5) 0.0658(5)
H16_2 H 0.4285 0.5416 0.1095
O10 O 0.5838(3) 0.5781(3) 0.1122(3)
N1_2 N 0.1271(4) 0.8714(4) 0.9928(4)
C15_2 C 0.2234(6) 0.7752(5) 0.9974(6)
C16_2 C 0.1605(6) 0.8572(5) 0.9351(5)
H11_2 H 0.1489 0.8825 0.8928
C17_2 C 0.1142(5) 0.9027(5) 0.9342(5)
H12_2 H 0.0715 0.9584 0.8905
C18_2 C 0.3160(7) 0.7100(5) 0.9504(6)
H13_2 H 0.3089 0.7351 0.9119
C19_2 C 0.2670(7) 0.7589(5) 0.9458(7)
H14_2 H 0.2273 0.8153 0.9040
O5_2 O 0.2813(3) 0.5969(3) 0.8118(3)
O6_2 O 0.1373(3) 0.5483(3) 0.7378(3)
N5 N 0.0695(4) 0.7735(4) 0.4621(4)
C23_2 C 0.1622(5) 0.5818(4) 0.7190(5)
C24_2 C 0.0499(5) 0.6044(4) 0.5804(4)
C30_2 C 0.0753(5) 0.6388(4) 0.5569(5)
H19_2 H 0.1634 0.6521 0.6285
C31 C 0.0041(5) 0.6844(4) 0.4044(5)
H21 H 0.0622 0.6396 0.4419
C32_2 C 0.1758(5) 0.7964(5) 0.5293(5)
H22_2 H 0.2221 0.7583 0.5499
C33_2 C 0.1995(5) 0.8852(4) 0.5596(5)
H23_2 H 0.2676 0.9188 0.6067
C34 C 0.0328(5) 0.8482(4) 0.4529(5)
O8 O 0.6491(3) 0.5382(3) 0.2484(3)
C25 C 0.9185(5) 0.5830(4) 0.4733(4)
H17 H 0.9004 0.5587 0.4883
C26 C 0.8144(5) 0.5977(4) 0.3445(4)
C27 C 0.6733(5) 0.5682(4) 0.2283(5)
C28 C 0.8431(5) 0.6334(4) 0.3242(5)
H18 H 0.7732 0.6435 0.2378
C29 C 0.9729(5) 0.6548(4) 0.4283(5)
H20 H 0.9215 0.6868 0.3096
H24 H 0.9619 0.8506 0.4108
O7 O 0.9162(3) 0.0781(3) 0.3878(3)
O8_2 O 0.8509(3) 0.0382(3) 0.2516(3)
N5_2 N 0.4305(4) 0.2735(4) 0.0379(4)
C25_2 C 0.5815(5) 0.0830(4) 0.0267(4)
H17_2 H 0.5996 0.0587 0.0117
C26_2 C 0.6856(5) 0.0977(4) 0.1555(4)
C27_2 C 0.8267(5) 0.0682(4) 0.2717(5)
C28_2 C 0.6569(5) 0.1334(4) 0.1758(5)
H18_2 H 0.7268 0.1435 0.2622
C29_2 C 0.5271(5) 0.1548(4) 0.0717(5)
C31_2 C 0.4959(5) 0.1844(4) 0.0956(5)
H20_2 H 0.5785 0.1868 0.1904
H21_2 H 0.4378 0.1396 0.0581
C34_2 C 0.4672(5) 0.3482(4) 0.0471(5)
H24_2 H 0.5381 0.3506 0.0892
N2_2 N 0.0695(4) 0.2265(4) 0.9621(4)
C9_2 C 0.0041(5) 0.3156(4) 0.9044(5)
H5_2 H 0.0622 0.3604 0.9419
C12_2 C 0.0328(5) 0.1518(4) 0.9529(5)
Co3 Co 0.59447(6) 0.45311(6) 0.02335(6)
O3_2 O 0.4162(3) 0.4219(3) 0.8878(3)
O4_3 O 0.3509(3) 0.4618(3) 0.7516(3)
C3_3 C 0.0815(5) 0.4170(4) 0.5267(4)
H1_3 H 0.0996 0.4413 0.5117
C4_3 C 0.1856(5) 0.4023(4) 0.6555(4)
C5_3 C 0.3267(5) 0.4318(4) 0.7717(5)
C6_3 C 0.1569(5) 0.3666(4) 0.6758(5)
H2_3 H 0.2268 0.3565 0.7622
C7_3 C 0.0271(5) 0.3452(4) 0.5717(5)
H4_3 H 0.0785 0.3132 0.6904
H8_3 H 0.0381 0.1494 0.5892
O10_2 O 0.0838(3) 0.0781(3) 0.1122(3)
O1_3 O 0.7187(3) 0.4031(3) 0.1882(3)
O2_3 O 0.8627(3) 0.4517(3) 0.2622(3)
N2_3 N 0.9305(4) 0.2265(4) 0.5379(4)
N3_2 N 0.8904(4) 0.0805(3) 0.4885(4)
C1_3 C 0.8378(5) 0.4182(4) 0.2810(5)
C2_3 C 0.9501(5) 0.3956(4) 0.4196(4)
C8_3 C 0.9247(5) 0.3612(4) 0.4431(5)
H3_3 H 0.8366 0.3479 0.3715
C9_3 C 0.9959(5) 0.3156(4) 0.5956(5)
H5_3 H 0.9378 0.3604 0.5581
C10_3 C 0.8242(5) 0.2036(5) 0.4707(5)
H6_3 H 0.7779 0.2417 0.4501
C11_3 C 0.8005(5) 0.1148(4) 0.4404(5)
H7_3 H 0.7324 0.0812 0.3933
C12_3 C 0.9672(5) 0.1518(4) 0.5471(5)
C13_3 C 0.6840(7) 0.2900(5) 0.0496(6)
H9_3 H 0.6911 0.2649 0.0881
C14_3 C 0.7330(7) 0.2411(5) 0.0542(7)
H10_3 H 0.7727 0.1847 0.0960
N4_3 N 0.8729(4) 0.1286(4) 0.0072(4)
C20_3 C 0.7766(6) 0.2248(5) 0.0026(6)
C21_3 C 0.8395(6) 0.1428(5) 0.0649(5)
H15_3 H 0.8511 0.1175 0.1072
C22_3 C 0.8858(5) 0.0973(5) 0.0658(5)
H16_3 H 0.9285 0.0416 0.1095
N7_2 N 0.6096(4) 0.5805(3) 0.0115(4)
N1_3 N 0.6271(4) 0.3714(4) 0.9928(4)
C15_3 C 0.7234(6) 0.2752(5) 0.9974(6)
C16_3 C 0.6605(6) 0.3572(5) 0.9351(5)
H11_3 H 0.6489 0.3825 0.8928
C17_3 C 0.6142(5) 0.4027(5) 0.9342(5)
H12_3 H 0.5715 0.4584 0.8905
C18_3 C 0.8160(7) 0.2100(5) 0.9504(6)
H13_3 H 0.8089 0.2351 0.9119
C19_3 C 0.7670(7) 0.2589(5) 0.9458(7)
H14_3 H 0.7273 0.3153 0.9040
Co2 Co 0.90553(6) 0.04689(6) 0.97665(6)
O5_3 O 0.7813(3) 0.0969(3) 0.8118(3)
O6_3 O 0.6373(3) 0.0483(3) 0.7378(3)
O8_3 O 0.1491(3) 0.0382(3) 0.2484(3)
N5_3 N 0.5695(4) 0.2735(4) 0.4621(4)
N6_2 N 0.6096(4) 0.4195(3) 0.5115(4)
C23_3 C 0.6622(5) 0.0818(4) 0.7190(5)
C24_3 C 0.5499(5) 0.1044(4) 0.5804(4)
C25_3 C 0.4185(5) 0.0830(4) 0.4733(4)
H17_3 H 0.4004 0.0587 0.4883
C26_3 C 0.3144(5) 0.0977(4) 0.3445(4)
C27_3 C 0.1733(5) 0.0682(4) 0.2283(5)
C28_3 C 0.3431(5) 0.1334(4) 0.3242(5)
H18_3 H 0.2732 0.1435 0.2378
C29_3 C 0.4729(5) 0.1548(4) 0.4283(5)
C30_3 C 0.5753(5) 0.1388(4) 0.5569(5)
H19_3 H 0.6634 0.1521 0.6285
C31_3 C 0.5041(5) 0.1844(4) 0.4044(5)
H20_3 H 0.4215 0.1868 0.3096
H21_3 H 0.5622 0.1396 0.4419
C32_3 C 0.6758(5) 0.2964(5) 0.5293(5)
H22_3 H 0.7221 0.2583 0.5499
C33_3 C 0.6995(5) 0.3852(4) 0.5596(5)
H23_3 H 0.7676 0.4188 0.6067
C34_3 C 0.5328(5) 0.3482(4) 0.4529(5)
H24_3 H 0.4619 0.3506 0.4108
Co5_2 Co 0.59447(6) 0.54689(6) 0.52335(6)
Co4_2 Co 0.90553(6) 0.95311(6) 0.47665(6)
N8_2 N 0.8904(4) 0.9195(3) 0.9885(4)
O7_2 O 0.4162(3) 0.5781(3) 0.3878(3)
O8_4 O 0.3509(3) 0.5382(3) 0.2516(3)
C25_4 C 0.0815(5) 0.5830(4) 0.0267(4)
H17_4 H 0.0996 0.5587 0.0117
C26_4 C 0.1856(5) 0.5977(4) 0.1555(4)
C27_4 C 0.3267(5) 0.5682(4) 0.2717(5)
C28_4 C 0.1569(5) 0.6334(4) 0.1758(5)
H18_4 H 0.2268 0.6435 0.2622
C29_4 C 0.0271(5) 0.6548(4) 0.0717(5)
H20_4 H 0.0785 0.6868 0.1904
H24_4 H 0.0381 0.8506 0.0892
O1_4 O 0.7813(3) 0.9031(3) 0.3118(3)
O2_4 O 0.6373(3) 0.9517(3) 0.2378(3)
N1_4 N 0.8729(4) 0.8714(4) 0.5072(4)
C1_4 C 0.6622(5) 0.9182(4) 0.2190(5)
C2_4 C 0.5499(5) 0.8956(4) 0.0804(4)
C8_4 C 0.5753(5) 0.8612(4) 0.0569(5)
H3_4 H 0.6634 0.8479 0.1285
C10_4 C 0.6758(5) 0.7036(5) 0.0293(5)
H6_4 H 0.7221 0.7417 0.0499
C11_4 C 0.6995(5) 0.6148(4) 0.0596(5)
H7_4 H 0.7676 0.5812 0.1067
C13_4 C 0.8160(7) 0.7900(5) 0.4504(6)
H9_4 H 0.8089 0.7649 0.4119
C14_4 C 0.7670(7) 0.7411(5) 0.4458(7)
H10_4 H 0.7273 0.6847 0.4040
C15_4 C 0.7766(6) 0.7752(5) 0.5026(6)
C16_4 C 0.8395(6) 0.8572(5) 0.5649(5)
H11_4 H 0.8511 0.8825 0.6072
C17_4 C 0.8858(5) 0.9027(5) 0.5658(5)
H12_4 H 0.9285 0.9584 0.6095
N4_4 N 0.6271(4) 0.6286(4) 0.4928(4)
C18_4 C 0.6840(7) 0.7100(5) 0.5496(6)
H13_4 H 0.6911 0.7351 0.5881
C19_4 C 0.7330(7) 0.7589(5) 0.5542(7)
H14_4 H 0.7727 0.8153 0.5960
C20_4 C 0.7234(6) 0.7248(5) 0.4974(6)
C21_4 C 0.6605(6) 0.6428(5) 0.4351(5)
H15_4 H 0.6489 0.6175 0.3928
C22_4 C 0.6142(5) 0.5973(5) 0.4342(5)
H16_4 H 0.5715 0.5416 0.3905
O5_4 O 0.7187(3) 0.5969(3) 0.6882(3)
O6_4 O 0.8627(3) 0.5483(3) 0.7622(3)
C23_4 C 0.8378(5) 0.5818(4) 0.7810(5)
C24_4 C 0.9501(5) 0.6044(4) 0.9196(4)
C30_4 C 0.9247(5) 0.6388(4) 0.9431(5)
H19_4 H 0.8366 0.6521 0.8715
C32_4 C 0.8242(5) 0.7964(5) 0.9707(5)
H22_4 H 0.7779 0.7583 0.9501
C33_4 C 0.8005(5) 0.8852(4) 0.9404(5)
H23_4 H 0.7324 0.9188 0.8933
O9_2 O 0.0838(3) 0.9219(3) 0.6122(3)
O4_4 O 0.1491(3) 0.9618(3) 0.7484(3)
N2_4 N 0.5695(4) 0.7265(4) 0.9621(4)
C3_4 C 0.4185(5) 0.9170(4) 0.9733(4)
H1_4 H 0.4004 0.9413 0.9883
C4_4 C 0.3144(5) 0.9023(4) 0.8445(4)
C5_4 C 0.1733(5) 0.9318(4) 0.7283(5)
C6_4 C 0.3431(5) 0.8666(4) 0.8242(5)
H2_4 H 0.2732 0.8565 0.7378
C7_4 C 0.4729(5) 0.8452(4) 0.9283(5)
C9_4 C 0.5041(5) 0.8156(4) 0.9044(5)
H4_4 H 0.4215 0.8132 0.8096
H5_4 H 0.5622 0.8604 0.9419
C12_4 C 0.5328(5) 0.6518(4) 0.9529(5)
H8_4 H 0.4619 0.6494 0.9108
N5_4 N 0.9305(4) 0.7735(4) 0.0379(4)
C31_4 C 0.9959(5) 0.6844(4) 0.0956(5)
H21_4 H 0.9378 0.6396 0.0581
C34_4 C 0.9672(5) 0.8482(4) 0.0471(5)
loop_
_geom_bond_atom_site_label_1
_geom_bond_atom_site_label_2
_geom_bond_site_symmetry_1
_geom_bond_site_symmetry_2
Co1 O1 1_555 1_555
O1 C1 1_555 1_555
O2 C1 1_555 1_555
N1 Co1 1_555 1_555
N3 C11 1_555 1_555
C1 C2 1_555 1_555
C8 C2 1_555 1_555
H3 C8 1_555 1_555
H6 C10 1_555 1_555
C11 C10 1_555 1_555
H7 C11 1_555 1_555
C13 N1 1_555 1_555
H9 C13 1_555 1_555
C14 C13 1_555 1_555
H10 C14 1_555 1_555
C15 C14 1_555 1_555
C16 C15 1_555 1_555
H11 C16 1_555 1_555
C17 N1 1_555 1_555
H12 C17 1_555 1_555
N4 C18 1_555 1_555
C18 H13 1_555 1_555
C19 C18 1_555 1_555
H14 C19 1_555 1_555
C20 C15 1_555 1_555
C21 C20 1_555 1_555
H15 C21 1_555 1_555
C22 N4 1_555 1_555
H16 C22 1_555 1_555
Co6 N4 1_555 1_555
O5 Co6 1_555 1_555
O6 C23 1_555 1_555
N6 C33 1_555 1_555
C23 O5 1_555 1_555
C24 C23 1_555 1_555
C30 C24 1_555 1_555
H19 C30 1_555 1_555
H22 C32 1_555 1_555
C33 C32 1_555 1_555
H23 C33 1_555 1_555
Co5 N6 1_555 1_555
O9 Co1 1_555 1_555
N7 Co1 1_555 1_555
C16 C17 1_555 1_555
C19 C20 1_555 1_555
C21 C22 1_555 1_555
O9 C5 1_555 1_555
O4 C5 1_555 1_555
C3 H1 1_555 1_555
C4 C3 1_555 1_555
C5 C4 1_555 1_555
C6 C4 1_555 1_555
H2 C6 1_555 1_555
C7 C6 1_555 1_555
Co4 O1_2 1_555 1_555
O1_2 C1_2 1_555 1_555
O2_2 C1_2 1_555 1_555
O3 C5_2 1_555 1_555
O4_2 C5_2 1_555 1_555
N2 C9 1_555 1_555
N7 C11_2 1_555 1_555
C1_2 C2_2 1_555 1_555
C2_2 C3_2 1_555 1_555
C3_2 H1_2 1_555 1_555
C4_2 C3_2 1_555 1_555
C5_2 C4_2 1_555 1_555
C6_2 C4_2 1_555 1_555
H2_2 C6_2 1_555 1_555
C7_2 C6_2 1_555 1_555
C8_2 C2_2 1_555 1_555
H3_2 C8_2 1_555 1_555
C9 C7_2 1_555 1_555
H4_2 C9 1_555 1_555
H5 C9 1_555 1_555
C10_2 N2 1_555 1_555
H6_2 C10_2 1_555 1_555
C11_2 C10_2 1_555 1_555
H7_2 C11_2 1_555 1_555
C12 N2 1_555 1_555
H8_2 C12 1_555 1_555
H9_2 C13_2 1_555 1_555
C14_2 C13_2 1_555 1_555
H10_2 C14_2 1_555 1_555
C21_2 C20_2 1_555 1_555
H15_2 C21_2 1_555 1_555
C22_2 N4_2 1_555 1_555
H16_2 C22_2 1_555 1_555
N7 C12 1_555 1_555
C7_2 C8_2 1_555 1_555
C21_2 C22_2 1_555 1_555
C16_2 C15_2 1_555 1_555
H11_2 C16_2 1_555 1_555
C17_2 N1_2 1_555 1_555
H12_2 C17_2 1_555 1_555
C18_2 H13_2 1_555 1_555
C19_2 C18_2 1_555 1_555
H14_2 C19_2 1_555 1_555
O5_2 Co5 1_555 1_555
O6_2 C23_2 1_555 1_555
N5 C31 1_555 1_555
N8 C33_2 1_555 1_555
C23_2 O5_2 1_555 1_555
C24_2 C23_2 1_555 1_555
C30_2 C24_2 1_555 1_555
H19_2 C30_2 1_555 1_555
H21 C31 1_555 1_555
C32_2 N5 1_555 1_555
H22_2 C32_2 1_555 1_555
C33_2 C32_2 1_555 1_555
H23_2 C33_2 1_555 1_555
C34 N5 1_555 1_555
C16_2 C17_2 1_555 1_555
N8 C34 1_555 1_555
O10 C27 1_555 1_555
O8 C27 1_555 1_555
H17 C25 1_555 1_555
C26 C25 1_555 1_555
C27 C26 1_555 1_555
C28 C26 1_555 1_555
H18 C28 1_555 1_555
C29 C28 1_555 1_555
O7 C27_2 1_555 1_555
O8_2 C27_2 1_555 1_555
N5_2 C31_2 1_555 1_555
H17_2 C25_2 1_555 1_555
C26_2 C25_2 1_555 1_555
C27_2 C26_2 1_555 1_555
C28_2 C26_2 1_555 1_555
H18_2 C28_2 1_555 1_555
C29_2 C28_2 1_555 1_555
C31_2 C29_2 1_555 1_555
H20_2 C31_2 1_555 1_555
H21_2 C31_2 1_555 1_555
C34_2 N5_2 1_555 1_555
H24_2 C34_2 1_555 1_555
N2_2 C9_2 1_555 1_555
H5_2 C9_2 1_555 1_555
C12_2 N2_2 1_555 1_555
O3_2 C5_3 1_555 1_555
O4_3 C5_3 1_555 1_555
C3_3 H1_3 1_555 1_555
C4_3 C3_3 1_555 1_555
C5_3 C4_3 1_555 1_555
C6_3 C4_3 1_555 1_555
H2_3 C6_3 1_555 1_555
C7_3 C6_3 1_555 1_555
Co3 O1_3 1_555 1_555
O1_3 C1_3 1_555 1_555
O2_3 C1_3 1_555 1_555
N2_3 C9_3 1_555 1_555
N3_2 C11_3 1_555 1_555
C1_3 C2_3 1_555 1_555
C8_3 C2_3 1_555 1_555
H3_3 C8_3 1_555 1_555
H5_3 C9_3 1_555 1_555
C10_3 N2_3 1_555 1_555
H6_3 C10_3 1_555 1_555
C11_3 C10_3 1_555 1_555
H7_3 C11_3 1_555 1_555
C12_3 N2_3 1_555 1_555
H9_3 C13_3 1_555 1_555
C14_3 C13_3 1_555 1_555
H10_3 C14_3 1_555 1_555
C21_3 C20_3 1_555 1_555
H15_3 C21_3 1_555 1_555
C22_3 N4_3 1_555 1_555
H16_3 C22_3 1_555 1_555
N7_2 Co3 1_555 1_555
N3_2 C12_3 1_555 1_555
C21_3 C22_3 1_555 1_555
C16_3 C15_3 1_555 1_555
H11_3 C16_3 1_555 1_555
C17_3 N1_3 1_555 1_555
H12_3 C17_3 1_555 1_555
C18_3 H13_3 1_555 1_555
C19_3 C18_3 1_555 1_555
H14_3 C19_3 1_555 1_555
O5_3 Co2 1_555 1_555
O6_3 C23_3 1_555 1_555
O10_2 C27_3 1_555 1_555
O8_3 C27_3 1_555 1_555
N5_3 C31_3 1_555 1_555
N6_2 C33_3 1_555 1_555
C23_3 O5_3 1_555 1_555
C24_3 C23_3 1_555 1_555
C25_3 C24_3 1_555 1_555
H17_3 C25_3 1_555 1_555
C26_3 C25_3 1_555 1_555
C27_3 C26_3 1_555 1_555
C28_3 C26_3 1_555 1_555
H18_3 C28_3 1_555 1_555
C29_3 C28_3 1_555 1_555
C30_3 C24_3 1_555 1_555
H19_3 C30_3 1_555 1_555
C31_3 C29_3 1_555 1_555
H20_3 C31_3 1_555 1_555
H21_3 C31_3 1_555 1_555
C32_3 N5_3 1_555 1_555
H22_3 C32_3 1_555 1_555
C33_3 C32_3 1_555 1_555
H23_3 C33_3 1_555 1_555
C34_3 N5_3 1_555 1_555
H24_3 C34_3 1_555 1_555
Co5_2 N6_2 1_555 1_555
C16_3 C17_3 1_555 1_555
N6_2 C34_3 1_555 1_555
C29_3 C30_3 1_555 1_555
O7_2 C27_4 1_555 1_555
O8_4 C27_4 1_555 1_555
H17_4 C25_4 1_555 1_555
C26_4 C25_4 1_555 1_555
C27_4 C26_4 1_555 1_555
C28_4 C26_4 1_555 1_555
H18_4 C28_4 1_555 1_555
C29_4 C28_4 1_555 1_555
Co5_2 O7_2 1_555 1_555
Co4_2 O1_4 1_555 1_555
O1_4 C1_4 1_555 1_555
O2_4 C1_4 1_555 1_555
N1_4 Co4_2 1_555 1_555
N7_2 C11_4 1_555 1_555
C1_4 C2_4 1_555 1_555
C8_4 C2_4 1_555 1_555
H3_4 C8_4 1_555 1_555
H6_4 C10_4 1_555 1_555
C11_4 C10_4 1_555 1_555
H7_4 C11_4 1_555 1_555
C13_4 N1_4 1_555 1_555
H9_4 C13_4 1_555 1_555
C14_4 C13_4 1_555 1_555
H10_4 C14_4 1_555 1_555
C15_4 C14_4 1_555 1_555
C16_4 C15_4 1_555 1_555
H11_4 C16_4 1_555 1_555
C17_4 N1_4 1_555 1_555
H12_4 C17_4 1_555 1_555
N4_4 C18_4 1_555 1_555
C18_4 H13_4 1_555 1_555
C19_4 C18_4 1_555 1_555
H14_4 C19_4 1_555 1_555
C20_4 C15_4 1_555 1_555
C21_4 C20_4 1_555 1_555
H15_4 C21_4 1_555 1_555
C22_4 N4_4 1_555 1_555
H16_4 C22_4 1_555 1_555
Co5_2 N4_4 1_555 1_555
O5_4 Co5_2 1_555 1_555
O6_4 C23_4 1_555 1_555
N8_2 C33_4 1_555 1_555
C23_4 O5_4 1_555 1_555
C24_4 C23_4 1_555 1_555
C30_4 C24_4 1_555 1_555
H19_4 C30_4 1_555 1_555
H22_4 C32_4 1_555 1_555
C33_4 C32_4 1_555 1_555
H23_4 C33_4 1_555 1_555
C16_4 C17_4 1_555 1_555
C19_4 C20_4 1_555 1_555
C21_4 C22_4 1_555 1_555
O9_2 C5_4 1_555 1_555
O4_4 C5_4 1_555 1_555
N2_4 C9_4 1_555 1_555
C3_4 H1_4 1_555 1_555
C4_4 C3_4 1_555 1_555
C5_4 C4_4 1_555 1_555
C6_4 C4_4 1_555 1_555
H2_4 C6_4 1_555 1_555
C7_4 C6_4 1_555 1_555
C9_4 C7_4 1_555 1_555
H4_4 C9_4 1_555 1_555
H5_4 C9_4 1_555 1_555
C12_4 N2_4 1_555 1_555
H8_4 C12_4 1_555 1_555
N5_4 C31_4 1_555 1_555
H21_4 C31_4 1_555 1_555
C34_4 N5_4 1_555 1_555

#END
