
###############################################################################
#
# This file contains modified crystal structure data generated from the
# MOF subset of the Cambridge Structural Database (CSD) v543 
# hosted by the Cambridge Crystallographic Data Centre (CCDC).
#
# This work is licensed under the Creative Commons
# Attribution-NonCommercial-ShareAlike 4.0 International License.
# To view a copy of this license, visit
# http://creativecommons.org/licenses/by-nc-sa/4.0/
# or send a letter to
# Creative Commons, PO Box 1866, Mountain View, CA 94042, USA.
#
# CIF created using the CSD Python API on 29 September 2022
# The structure has been converted into the P1 space group
# The structure has a 3D framework
# The original CSD entry SURMEZ is in the monoclinic crystal system
# The framework has been calculated to contain at least 10.0% void space
# The void calculation uses a probe of radius 1.32A, grid spacing 0.4
#
###############################################################################

data_SURMEZ
_chemical_formula_moiety         '(C172 H96 Cu8 F48 N12 O32 S4)n'
_symmetry_cell_setting           triclinic
_symmetry_space_group_name_H-M   'P 1'
_symmetry_Int_Tables_number      1
_space_group_name_Hall           'P 1'
loop_
_symmetry_equiv_pos_site_id
_symmetry_equiv_pos_as_xyz
1 x,y,z
_cell_length_a                   7.3181(8)
_cell_length_b                   29.042(3)
_cell_length_c                   23.593(3)
_cell_angle_alpha                90
_cell_angle_beta                 91.721(2)
_cell_angle_gamma                90
_cell_volume                     5012.01
loop_
_atom_site_label
_atom_site_type_symbol
_atom_site_fract_x
_atom_site_fract_y
_atom_site_fract_z
C77 C 0.0207(6) 0.06175(13) 0.68307(16)
C81 C 0.1424(5) 0.18380(12) 0.52878(12)
C82 C 0.2399(5) 0.14743(14) 0.55244(15)
H44 H 0.3596 0.1423 0.5418
C83 C 0.1627(5) 0.11868(13) 0.59142(15)
H45 H 0.2301 0.0941 0.6063
C84 C 0.2283(5) 0.21359(12) 0.48468(13)
H46 H 0.0771 0.3841 0.9133
F23 F 0.0947(4) 0.02982(8) 0.64981(10)
F24 F 0.1583(3) 0.08460(9) 0.70797(9)
O15 O 0.1347(3) 0.24614(8) 0.46398(9)
O16 O 0.3892(3) 0.20298(9) 0.47177(10)
Cu6 Cu 0.23598(5) 0.288931(12) 0.407390(14)
Cu10 Cu 0.52775(5) 0.232052(13) 0.412309(14)
C44 C 0.9167(5) 0.14107(12) 0.92250(13)
H25 H 0.8728 0.1571 0.9534
C46 C 0.9435(5) 0.08913(12) 0.85731(15)
H27 H 0.9262 0.0634 0.8343
C47 C 0.7014(4) 0.07489(11) 0.92724(13)
C48 C 0.5217(5) 0.08064(13) 0.91946(15)
H28 H 0.4693 0.1032 0.8962
C49 C 0.4196(5) 0.04849(12) 0.95055(15)
H29 H 0.2925 0.0477 0.9501
C50 C 0.5270(4) 0.01871(11) 0.98129(12)
N5 N 0.8454(4) 0.10071(9) 0.90343(10)
S2 S 0.75524(12) 0.03022(3) 0.97254(4)
C53 C 0.9444(4) 0.31522(11) 0.77946(12)
H30 H 0.8783 0.2911 0.7946
C54 C 0.8602(5) 0.34504(11) 0.74110(13)
H31 H 0.7385 0.3403 0.7301
C55 C 0.9556(4) 0.38217(10) 0.71870(12)
C58 C 0.8521(4) 0.41405(11) 0.67663(12)
C59 C 0.9843(5) 0.44703(12) 0.64594(14)
C60 C 0.7179(5) 0.44331(12) 0.71151(14)
C61 C 0.7535(4) 0.38592(11) 0.62909(12)
C62 C 0.8476(5) 0.34846(11) 0.60691(13)
H34 H 0.9614 0.3403 0.6224
C63 C 0.7724(5) 0.32343(11) 0.56206(13)
H35 H 0.8374 0.2989 0.5474
C64 C 0.6025(4) 0.33431(11) 0.53873(12)
C65 C 0.5072(5) 0.37107(12) 0.56137(13)
H36 H 0.3914 0.3784 0.5467
C66 C 0.5833(5) 0.39687(12) 0.60556(13)
H37 H 0.5192 0.4219 0.6196
C67 C 0.5230(5) 0.30771(12) 0.48947(12)
F15 F 0.8945(3) 0.47183(8) 0.60568(9)
F16 F 0.8013(3) 0.46058(8) 0.75797(9)
F17 F 0.6471(4) 0.47935(7) 0.68309(9)
F18 F 0.5790(3) 0.41845(8) 0.72871(9)
O11 O 0.6208(3) 0.27622(9) 0.46995(9)
O12 O 0.3675(3) 0.31941(8) 0.47056(9)
C1 C 0.2215(5) 0.21122(11) 0.33605(12)
C2 C 0.1279(4) 0.17875(11) 0.29551(12)
C6 C 0.1366(5) 0.11187(12) 0.23568(14)
H3 H 0.2021 0.0872 0.2215
C7 C 0.2220(5) 0.14203(12) 0.27350(14)
H4 H 0.3440 0.1375 0.2842
C18 C 0.5557(4) 0.30185(11) 0.33305(13)
C19 C 0.6402(4) 0.32793(11) 0.28554(12)
C20 C 0.8074(4) 0.31510(11) 0.26420(14)
H9 H 0.8707 0.2902 0.2798
C21 C 0.8799(5) 0.33936(12) 0.21965(14)
H10 H 0.9906 0.3300 0.2050
C22 C 0.7906(5) 0.37725(11) 0.19650(13)
C23 C 0.6244(5) 0.39041(13) 0.21823(15)
H11 H 0.5627 0.4159 0.2034
C24 C 0.5511(5) 0.36564(13) 0.26196(15)
H12 H 0.4390 0.3745 0.2759
C25 C 0.8886(5) 0.40556(11) 0.15052(13)
C26 C 0.7526(6) 0.43541(14) 0.11383(16)
C28 C 0.9859(5) 0.37409(12) 0.10880(13)
C29 C 0.8875(5) 0.33719(12) 0.08471(14)
H13 H 0.7686 0.3317 0.0957
C30 C 0.9645(5) 0.30873(12) 0.04476(13)
H14 H 0.8967 0.2847 0.0287
C36 C 0.0703(5) 0.37774(12) 0.35153(13)
H18 H 0.1570 0.3771 0.3235
C42 C 0.9529(14) 0.1053(3) 0.4140(4)
H23 H 0.9265 0.0868 0.3810
H24 H 0.9361 0.0872 0.4475
C43 C 0.8224(10) 0.1472(3) 0.4142(2)
F1 F 0.1155(3) 0.07521(8) 0.12052(8)
F2 F 0.0632(3) 0.02204(7) 0.18121(9)
F7 F 0.8352(4) 0.45262(9) 0.06889(10)
F8 F 0.6858(4) 0.47114(8) 0.14197(11)
F9 F 0.6107(3) 0.41112(9) 0.09468(10)
F10 F 0.9364(4) 0.46098(8) 0.22394(10)
N1 N 0.0531(3) 0.34514(8) 0.39294(10)
N3 N 0.7439(6) 0.18058(18) 0.41572(15)
O1 O 0.1402(3) 0.24779(8) 0.34813(9)
O2 O 0.3754(3) 0.19865(8) 0.35573(10)
O5 O 0.4078(3) 0.31720(8) 0.35117(9)
O6 O 0.6376(3) 0.26666(8) 0.35107(9)
C45 C 0.0703(5) 0.12226(12) 0.85153(13)
H26 H 0.1570 0.1229 0.8235
N4 N 0.0531(3) 0.15486(8) 0.89294(10)
C51 C 0.2215(5) 0.28878(11) 0.83605(12)
C52 C 0.1279(4) 0.32125(11) 0.79551(12)
C56 C 0.1366(5) 0.38813(12) 0.73568(14)
H32 H 0.2021 0.4128 0.7215
C57 C 0.2220(5) 0.35797(12) 0.77350(14)
H33 H 0.3440 0.3625 0.7842
C68 C 0.5557(4) 0.19815(11) 0.83305(13)
C69 C 0.6402(4) 0.17207(11) 0.78554(12)
C70 C 0.8074(4) 0.18490(11) 0.76420(14)
H38 H 0.8707 0.2098 0.7798
C71 C 0.8799(5) 0.16064(12) 0.71965(14)
H39 H 0.9906 0.1700 0.7050
C72 C 0.7906(5) 0.12275(11) 0.69650(13)
C73 C 0.6244(5) 0.10959(13) 0.71823(15)
H40 H 0.5627 0.0841 0.7034
C74 C 0.5511(5) 0.13436(13) 0.76196(15)
H41 H 0.4390 0.1255 0.7759
C75 C 0.8886(5) 0.09444(11) 0.65052(13)
C76 C 0.7526(6) 0.06459(14) 0.61383(16)
C78 C 0.9859(5) 0.12591(12) 0.60880(13)
C79 C 0.8875(5) 0.16281(12) 0.58471(14)
H42 H 0.7686 0.1683 0.5957
C80 C 0.9645(5) 0.19127(12) 0.54476(13)
H43 H 0.8967 0.2153 0.5287
C85 C 0.9529(14) 0.3947(3) 0.9140(4)
H47 H 0.9265 0.4132 0.8810
H48 H 0.9361 0.4128 0.9475
C86 C 0.8224(10) 0.3528(3) 0.9142(2)
Cu3 Cu 0.23598(5) 0.211069(12) 0.907390(14)
Cu4 Cu 0.52775(5) 0.267948(13) 0.912309(14)
F13 F 0.1155(3) 0.42479(8) 0.62052(8)
F14 F 0.0632(3) 0.47796(7) 0.68121(9)
F19 F 0.8352(4) 0.04738(9) 0.56889(10)
F20 F 0.6858(4) 0.02886(8) 0.64197(11)
F21 F 0.6107(3) 0.08888(9) 0.59468(10)
F22 F 0.9364(4) 0.03902(8) 0.72394(10)
N6 N 0.7439(6) 0.31942(18) 0.91572(15)
O9 O 0.1402(3) 0.25221(8) 0.84813(9)
O10 O 0.3754(3) 0.30135(8) 0.85573(10)
O13 O 0.4078(3) 0.18280(8) 0.85117(9)
O14 O 0.6376(3) 0.23334(8) 0.85107(9)
O17 O 0.6208(3) 0.22378(9) 0.96995(9)
O19 O 0.3675(3) 0.18059(8) 0.97056(9)
O21 O 0.1347(3) 0.25386(8) 0.96398(9)
O23 O 0.3892(3) 0.29702(9) 0.97177(10)
C34 C 0.2283(5) 0.28641(12) 0.98468(13)
C17 C 0.5230(5) 0.19229(12) 0.98947(12)
C3 C 0.0556(4) 0.68478(11) 0.22054(12)
H1 H 0.1217 0.7089 0.2054
C4 C 0.1398(5) 0.65496(11) 0.25890(13)
H2 H 0.2615 0.6597 0.2699
C5 C 0.0444(4) 0.61783(10) 0.28130(12)
C8 C 0.1479(4) 0.58595(11) 0.32337(12)
C9 C 0.0157(5) 0.55297(12) 0.35406(14)
C10 C 0.2821(5) 0.55669(12) 0.28849(14)
C11 C 0.2465(4) 0.61408(11) 0.37091(12)
C12 C 0.1524(5) 0.65154(11) 0.39309(13)
H5 H 0.0386 0.6597 0.3776
C13 C 0.2276(5) 0.67657(11) 0.43794(13)
H6 H 0.1626 0.7011 0.4526
C14 C 0.3975(4) 0.66569(11) 0.46127(12)
C15 C 0.4928(5) 0.62893(12) 0.43863(13)
H7 H 0.6086 0.6216 0.4533
C16 C 0.4167(5) 0.60313(12) 0.39444(13)
H8 H 0.4808 0.5781 0.3804
C17_2 C 0.4770(5) 0.69229(12) 0.51053(12)
C35 C 0.0833(5) 0.85893(12) 0.07750(13)
H17 H 0.1272 0.8429 0.0466
C37 C 0.0565(5) 0.91087(12) 0.14269(15)
H19 H 0.0738 0.9366 0.1657
C38 C 0.2986(4) 0.92511(11) 0.07276(13)
C39 C 0.4783(5) 0.91936(13) 0.08054(15)
H20 H 0.5307 0.8968 0.1038
C40 C 0.5804(5) 0.95151(12) 0.04945(15)
H21 H 0.7075 0.9523 0.0499
C41 C 0.4730(4) 0.98129(11) 0.01871(12)
F3 F 0.1055(3) 0.52817(8) 0.39432(9)
F4 F 0.1987(3) 0.53942(8) 0.24203(9)
F5 F 0.3529(4) 0.52065(7) 0.31691(9)
F6 F 0.4210(3) 0.58155(8) 0.27129(9)
N2 N 0.1546(4) 0.89929(9) 0.09657(10)
O3 O 0.3792(3) 0.72378(9) 0.53005(9)
O4 O 0.6325(3) 0.68059(8) 0.52944(9)
S1 S 0.24476(12) 0.96978(3) 0.02746(4)
Cu8 Cu 0.76402(5) 0.711069(12) 0.592610(14)
Cu12 Cu 0.47225(5) 0.767948(13) 0.587691(14)
C27 C 0.9793(6) 0.93825(13) 0.31693(16)
C31 C 0.8576(5) 0.81620(12) 0.47122(12)
C32 C 0.7601(5) 0.85257(14) 0.44756(15)
H15 H 0.6404 0.8577 0.4582
C33 C 0.8373(5) 0.88132(13) 0.40858(15)
H16 H 0.7699 0.9059 0.3937
C34_2 C 0.7717(5) 0.78641(12) 0.51532(13)
H22 H 0.9229 0.6159 0.0867
F11 F 0.9053(4) 0.97018(8) 0.35019(10)
F12 F 0.8417(3) 0.91540(9) 0.29203(9)
O7 O 0.8653(3) 0.75386(8) 0.53602(9)
O8 O 0.6108(3) 0.79702(9) 0.52823(10)
C45_2 C 0.9297(5) 0.62226(12) 0.64847(13)
H26_2 H 0.8430 0.6229 0.6765
N4_2 N 0.9469(3) 0.65486(8) 0.60706(10)
C51_2 C 0.7785(5) 0.78878(11) 0.66395(12)
C52_2 C 0.8721(4) 0.82125(11) 0.70449(12)
C56_2 C 0.8634(5) 0.88813(12) 0.76432(14)
H32_2 H 0.7979 0.9128 0.7785
C57_2 C 0.7780(5) 0.85797(12) 0.72650(14)
H33_2 H 0.6560 0.8625 0.7158
C68_2 C 0.4443(4) 0.69815(11) 0.66695(13)
C69_2 C 0.3598(4) 0.67207(11) 0.71446(12)
C70_2 C 0.1926(4) 0.68490(11) 0.73580(14)
H38_2 H 0.1293 0.7098 0.7202
C71_2 C 0.1201(5) 0.66064(12) 0.78035(14)
H39_2 H 0.0094 0.6700 0.7950
C72_2 C 0.2094(5) 0.62275(11) 0.80350(13)
C73_2 C 0.3756(5) 0.60959(13) 0.78177(15)
H40_2 H 0.4373 0.5841 0.7966
C74_2 C 0.4489(5) 0.63436(13) 0.73804(15)
H41_2 H 0.5610 0.6255 0.7241
C75_2 C 0.1114(5) 0.59444(11) 0.84948(13)
C76_2 C 0.2474(6) 0.56459(14) 0.88617(16)
C78_2 C 0.0141(5) 0.62591(12) 0.89120(13)
C79_2 C 0.1125(5) 0.66281(12) 0.91529(14)
H42_2 H 0.2314 0.6683 0.9043
C80_2 C 0.0355(5) 0.69127(12) 0.95524(13)
H43_2 H 0.1033 0.7153 0.9713
C85_2 C 0.0471(14) 0.8947(3) 0.5860(4)
H47_2 H 0.0735 0.9132 0.6190
H48_2 H 0.0639 0.9128 0.5525
C86_2 C 0.1776(10) 0.8528(3) 0.5858(2)
F13_2 F 0.8845(3) 0.92479(8) 0.87948(8)
F14_2 F 0.9368(3) 0.97796(7) 0.81879(9)
F19_2 F 0.1648(4) 0.54738(9) 0.93111(10)
F20_2 F 0.3142(4) 0.52886(8) 0.85803(11)
F21_2 F 0.3893(3) 0.58888(9) 0.90532(10)
F22_2 F 0.0636(4) 0.53902(8) 0.77606(10)
N6_2 N 0.2561(6) 0.81942(18) 0.58428(15)
O9_2 O 0.8598(3) 0.75221(8) 0.65187(9)
O10_2 O 0.6246(3) 0.80135(8) 0.64427(10)
O13_2 O 0.5922(3) 0.68280(8) 0.64883(9)
O14_2 O 0.3624(3) 0.73334(8) 0.64893(9)
C1_2 C 0.7785(5) 0.71122(11) 0.16395(12)
C2_2 C 0.8721(4) 0.67875(11) 0.20449(12)
C6_2 C 0.8634(5) 0.61187(12) 0.26432(14)
H3_2 H 0.7979 0.5872 0.2785
C7_2 C 0.7780(5) 0.64203(12) 0.22650(14)
H4_2 H 0.6560 0.6375 0.2158
C18_2 C 0.4443(4) 0.80185(11) 0.16695(13)
C19_2 C 0.3598(4) 0.82793(11) 0.21446(12)
C20_2 C 0.1926(4) 0.81510(11) 0.23580(14)
H9_2 H 0.1293 0.7902 0.2202
C21_2 C 0.1201(5) 0.83936(12) 0.28035(14)
H10_2 H 0.0094 0.8300 0.2950
C22_2 C 0.2094(5) 0.87725(11) 0.30350(13)
C23_2 C 0.3756(5) 0.89041(13) 0.28177(15)
H11_2 H 0.4373 0.9159 0.2966
C24_2 C 0.4489(5) 0.86564(13) 0.23804(15)
H12_2 H 0.5610 0.8745 0.2241
C25_2 C 0.1114(5) 0.90556(11) 0.34948(13)
C26_2 C 0.2474(6) 0.93541(14) 0.38617(16)
C28_2 C 0.0141(5) 0.87409(12) 0.39120(13)
C29_2 C 0.1125(5) 0.83719(12) 0.41529(14)
H13_2 H 0.2314 0.8317 0.4043
C30_2 C 0.0355(5) 0.80873(12) 0.45524(13)
H14_2 H 0.1033 0.7847 0.4713
C36_2 C 0.9297(5) 0.87774(12) 0.14847(13)
H18_2 H 0.8430 0.8771 0.1765
C42_2 C 0.0471(14) 0.6053(3) 0.0860(4)
H23_2 H 0.0735 0.5868 0.1190
H24_2 H 0.0639 0.5872 0.0525
C43_2 C 0.1776(10) 0.6472(3) 0.0858(2)
Cu1 Cu 0.76402(5) 0.788931(12) 0.092610(14)
Cu2 Cu 0.47225(5) 0.732052(13) 0.087691(14)
F1_2 F 0.8845(3) 0.57521(8) 0.37948(8)
F2_2 F 0.9368(3) 0.52204(7) 0.31879(9)
F7_2 F 0.1648(4) 0.95262(9) 0.43111(10)
F8_2 F 0.3142(4) 0.97114(8) 0.35803(11)
F9_2 F 0.3893(3) 0.91112(9) 0.40532(10)
F10_2 F 0.0636(4) 0.96098(8) 0.27606(10)
N1_2 N 0.9469(3) 0.84514(8) 0.10706(10)
N3_2 N 0.2561(6) 0.68058(18) 0.08428(15)
O1_2 O 0.8598(3) 0.74779(8) 0.15187(9)
O2_2 O 0.6246(3) 0.69865(8) 0.14427(10)
O5_2 O 0.5922(3) 0.81720(8) 0.14883(9)
O6_2 O 0.3624(3) 0.76666(8) 0.14893(9)
O18 O 0.3792(3) 0.77622(9) 0.03005(9)
O20 O 0.6325(3) 0.81941(8) 0.02944(9)
O22 O 0.8653(3) 0.74614(8) 0.03602(9)
O24 O 0.6108(3) 0.70298(9) 0.02823(10)
C67_2 C 0.4770(5) 0.80771(12) 0.01053(12)
C84_2 C 0.7717(5) 0.71359(12) 0.01532(13)
C27_2 C 0.0207(6) 0.43825(13) 0.18307(16)
C31_2 C 0.1424(5) 0.31620(12) 0.02878(12)
C32_2 C 0.2399(5) 0.35257(14) 0.05244(15)
H15_2 H 0.3596 0.3577 0.0418
C33_2 C 0.1627(5) 0.38132(13) 0.09142(15)
H16_2 H 0.2301 0.4059 0.1063
H22_2 H 0.0771 0.1159 0.4133
F11_2 F 0.0947(4) 0.47018(8) 0.14981(10)
F12_2 F 0.1583(3) 0.41540(9) 0.20797(9)
C3_2 C 0.9444(4) 0.18478(11) 0.27946(12)
H1_2 H 0.8783 0.2089 0.2946
C4_2 C 0.8602(5) 0.15496(11) 0.24110(13)
H2_2 H 0.7385 0.1597 0.2301
C5_2 C 0.9556(4) 0.11783(10) 0.21870(12)
C8_2 C 0.8521(4) 0.08595(11) 0.17663(12)
C9_2 C 0.9843(5) 0.05297(12) 0.14594(14)
C10_2 C 0.7179(5) 0.05669(12) 0.21151(14)
C11_2 C 0.7535(4) 0.11408(11) 0.12909(12)
C12_2 C 0.8476(5) 0.15154(11) 0.10691(13)
H5_2 H 0.9614 0.1597 0.1224
C13_2 C 0.7724(5) 0.17657(11) 0.06206(13)
H6_2 H 0.8374 0.2011 0.0474
C14_2 C 0.6025(4) 0.16569(11) 0.03873(12)
C15_2 C 0.5072(5) 0.12893(12) 0.06137(13)
H7_2 H 0.3914 0.1216 0.0467
C16_2 C 0.5833(5) 0.10313(12) 0.10556(13)
H8_2 H 0.5192 0.0781 0.1196
C35_2 C 0.9167(5) 0.35893(12) 0.42250(13)
H17_2 H 0.8728 0.3429 0.4534
C37_2 C 0.9435(5) 0.41087(12) 0.35731(15)
H19_2 H 0.9262 0.4366 0.3343
C38_2 C 0.7014(4) 0.42511(11) 0.42724(13)
C39_2 C 0.5217(5) 0.41936(13) 0.41946(15)
H20_2 H 0.4693 0.3968 0.3962
C40_2 C 0.4196(5) 0.45151(12) 0.45055(15)
H21_2 H 0.2925 0.4523 0.4501
C41_2 C 0.5270(4) 0.48129(11) 0.48129(12)
F3_2 F 0.8945(3) 0.02817(8) 0.10568(9)
F4_2 F 0.8013(3) 0.03942(8) 0.25797(9)
F5_2 F 0.6471(4) 0.02065(7) 0.18309(9)
F6_2 F 0.5790(3) 0.08155(8) 0.22871(9)
N2_2 N 0.8454(4) 0.39929(9) 0.40343(10)
S1_2 S 0.75524(12) 0.46978(3) 0.47254(4)
C44_2 C 0.0833(5) 0.64107(12) 0.57750(13)
H25_2 H 0.1272 0.6571 0.5466
C46_2 C 0.0565(5) 0.58913(12) 0.64269(15)
H27_2 H 0.0738 0.5634 0.6657
C47_2 C 0.2986(4) 0.57489(11) 0.57276(13)
C48_2 C 0.4783(5) 0.58064(13) 0.58054(15)
H28_2 H 0.5307 0.6032 0.6038
C49_2 C 0.5804(5) 0.54849(12) 0.54945(15)
H29_2 H 0.7075 0.5477 0.5499
C50_2 C 0.4730(4) 0.51871(11) 0.51871(12)
N5_2 N 0.1546(4) 0.60071(9) 0.59657(10)
S2_2 S 0.24476(12) 0.53022(3) 0.52746(4)
C53_2 C 0.0556(4) 0.81522(11) 0.72054(12)
H30_2 H 0.1217 0.7911 0.7054
C54_2 C 0.1398(5) 0.84504(11) 0.75890(13)
H31_2 H 0.2615 0.8403 0.7699
C55_2 C 0.0444(4) 0.88217(10) 0.78130(12)
C58_2 C 0.1479(4) 0.91405(11) 0.82337(12)
C59_2 C 0.0157(5) 0.94703(12) 0.85406(14)
C60_2 C 0.2821(5) 0.94331(12) 0.78849(14)
C61_2 C 0.2465(4) 0.88592(11) 0.87091(12)
C62_2 C 0.1524(5) 0.84846(11) 0.89309(13)
H34_2 H 0.0386 0.8403 0.8776
C63_2 C 0.2276(5) 0.82343(11) 0.93794(13)
H35_2 H 0.1626 0.7989 0.9526
C64_2 C 0.3975(4) 0.83431(11) 0.96127(12)
C65_2 C 0.4928(5) 0.87107(12) 0.93863(13)
H36_2 H 0.6086 0.8784 0.9533
C66_2 C 0.4167(5) 0.89687(12) 0.89444(13)
H37_2 H 0.4808 0.9219 0.8804
F15_2 F 0.1055(3) 0.97183(8) 0.89432(9)
F16_2 F 0.1987(3) 0.96058(8) 0.74203(9)
F17_2 F 0.3529(4) 0.97935(7) 0.81691(9)
F18_2 F 0.4210(3) 0.91845(8) 0.77129(9)
C77_2 C 0.9793(6) 0.56175(13) 0.81693(16)
C81_2 C 0.8576(5) 0.68380(12) 0.97122(12)
C82_2 C 0.7601(5) 0.64743(14) 0.94756(15)
H44_2 H 0.6404 0.6423 0.9582
C83_2 C 0.8373(5) 0.61868(13) 0.90858(15)
H45_2 H 0.7699 0.5941 0.8937
H46_2 H 0.9229 0.8841 0.5867
F23_2 F 0.9053(4) 0.52982(8) 0.85019(10)
F24_2 F 0.8417(3) 0.58460(9) 0.79203(9)
loop_
_geom_bond_atom_site_label_1
_geom_bond_atom_site_label_2
_geom_bond_site_symmetry_1
_geom_bond_site_symmetry_2
C82 C81 1_555 1_555
H44 C82 1_555 1_555
H45 C83 1_555 1_555
C84 C81 1_555 1_555
F23 C77 1_555 1_555
F24 C77 1_555 1_555
O15 C84 1_555 1_555
O16 C84 1_555 1_555
Cu6 O15 1_555 1_555
Cu10 O16 1_555 1_555
C82 C83 1_555 1_555
C44 H25 1_555 1_555
H27 C46 1_555 1_555
C47 C48 1_555 1_555
C48 H28 1_555 1_555
C49 C48 1_555 1_555
H29 C49 1_555 1_555
N5 C44 1_555 1_555
S2 C47 1_555 1_555
C53 H30 1_555 1_555
C54 C53 1_555 1_555
H31 C54 1_555 1_555
C55 C54 1_555 1_555
C58 C55 1_555 1_555
C59 C58 1_555 1_555
C60 C58 1_555 1_555
C61 C58 1_555 1_555
C62 C61 1_555 1_555
H34 C62 1_555 1_555
C63 C62 1_555 1_555
H35 C63 1_555 1_555
C64 C63 1_555 1_555
C65 C64 1_555 1_555
H36 C65 1_555 1_555
C66 C61 1_555 1_555
H37 C66 1_555 1_555
C67 C64 1_555 1_555
F15 C59 1_555 1_555
F16 C60 1_555 1_555
F17 C60 1_555 1_555
F18 C60 1_555 1_555
O11 C67 1_555 1_555
O12 C67 1_555 1_555
Cu6 O12 1_555 1_555
Cu10 O11 1_555 1_555
C46 N5 1_555 1_555
C47 N5 1_555 1_555
C49 C50 1_555 1_555
C50 S2 1_555 1_555
C65 C66 1_555 1_555
C1 C2 1_555 1_555
H3 C6 1_555 1_555
C7 C2 1_555 1_555
H4 C7 1_555 1_555
C18 C19 1_555 1_555
C19 C20 1_555 1_555
C20 H9 1_555 1_555
C21 C20 1_555 1_555
H10 C21 1_555 1_555
C22 C21 1_555 1_555
C23 C22 1_555 1_555
H11 C23 1_555 1_555
C24 C19 1_555 1_555
H12 C24 1_555 1_555
C25 C22 1_555 1_555
C26 C25 1_555 1_555
C28 C25 1_555 1_555
C29 C28 1_555 1_555
H13 C29 1_555 1_555
C30 C29 1_555 1_555
H14 C30 1_555 1_555
C36 H18 1_555 1_555
H23 C42 1_555 1_555
H24 C42 1_555 1_555
C43 C42 1_555 1_555
Cu6 N1 1_555 1_555
Cu10 N3 1_555 1_555
F7 C26 1_555 1_555
F8 C26 1_555 1_555
F9 C26 1_555 1_555
N3 C43 1_555 1_555
O1 C1 1_555 1_555
O2 C1 1_555 1_555
O5 C18 1_555 1_555
O6 C18 1_555 1_555
C6 C7 1_555 1_555
C23 C24 1_555 1_555
C36 N1 1_555 1_555
Cu6 O1 1_555 1_555
Cu6 O5 1_555 1_555
Cu10 O2 1_555 1_555
Cu10 O6 1_555 1_555
C45 H26 1_555 1_555
C51 C52 1_555 1_555
H32 C56 1_555 1_555
C57 C52 1_555 1_555
H33 C57 1_555 1_555
C68 C69 1_555 1_555
C69 C70 1_555 1_555
C70 H38 1_555 1_555
C71 C70 1_555 1_555
H39 C71 1_555 1_555
C72 C71 1_555 1_555
C73 C72 1_555 1_555
H40 C73 1_555 1_555
C74 C69 1_555 1_555
H41 C74 1_555 1_555
C75 C72 1_555 1_555
C76 C75 1_555 1_555
C78 C75 1_555 1_555
C79 C78 1_555 1_555
H42 C79 1_555 1_555
C80 C79 1_555 1_555
H43 C80 1_555 1_555
H47 C85 1_555 1_555
H48 C85 1_555 1_555
C86 C85 1_555 1_555
Cu3 N4 1_555 1_555
Cu4 N6 1_555 1_555
F19 C76 1_555 1_555
F20 C76 1_555 1_555
F21 C76 1_555 1_555
N6 C86 1_555 1_555
O9 C51 1_555 1_555
O10 C51 1_555 1_555
O13 C68 1_555 1_555
O14 C68 1_555 1_555
O17 Cu4 1_555 1_555
O19 Cu3 1_555 1_555
O21 Cu3 1_555 1_555
O23 Cu4 1_555 1_555
C45 N4 1_555 1_555
C56 C57 1_555 1_555
C73 C74 1_555 1_555
Cu3 O9 1_555 1_555
Cu3 O13 1_555 1_555
Cu4 O10 1_555 1_555
Cu4 O14 1_555 1_555
O21 C34 1_555 1_555
O23 C34 1_555 1_555
O17 C17 1_555 1_555
O19 C17 1_555 1_555
C3 H1 1_555 1_555
C4 C3 1_555 1_555
H2 C4 1_555 1_555
C5 C4 1_555 1_555
C8 C5 1_555 1_555
C9 C8 1_555 1_555
C10 C8 1_555 1_555
C11 C8 1_555 1_555
C12 C11 1_555 1_555
H5 C12 1_555 1_555
C13 C12 1_555 1_555
H6 C13 1_555 1_555
C14 C13 1_555 1_555
C15 C14 1_555 1_555
H7 C15 1_555 1_555
C16 C11 1_555 1_555
H8 C16 1_555 1_555
C17_2 C14 1_555 1_555
C35 H17 1_555 1_555
H19 C37 1_555 1_555
C38 C39 1_555 1_555
C39 H20 1_555 1_555
C40 C39 1_555 1_555
H21 C40 1_555 1_555
C41 C40 1_555 1_555
F3 C9 1_555 1_555
F4 C10 1_555 1_555
F5 C10 1_555 1_555
F6 C10 1_555 1_555
N2 C35 1_555 1_555
O3 C17_2 1_555 1_555
O4 C17_2 1_555 1_555
S1 C38 1_555 1_555
Cu8 O4 1_555 1_555
Cu12 O3 1_555 1_555
C15 C16 1_555 1_555
C37 N2 1_555 1_555
C38 N2 1_555 1_555
C41 S1 1_555 1_555
C32 C31 1_555 1_555
H15 C32 1_555 1_555
H16 C33 1_555 1_555
C34_2 C31 1_555 1_555
F11 C27 1_555 1_555
F12 C27 1_555 1_555
O7 C34_2 1_555 1_555
O8 C34_2 1_555 1_555
Cu8 O7 1_555 1_555
Cu12 O8 1_555 1_555
C32 C33 1_555 1_555
C45_2 H26_2 1_555 1_555
C51_2 C52_2 1_555 1_555
H32_2 C56_2 1_555 1_555
C57_2 C52_2 1_555 1_555
H33_2 C57_2 1_555 1_555
C68_2 C69_2 1_555 1_555
C69_2 C70_2 1_555 1_555
C70_2 H38_2 1_555 1_555
C71_2 C70_2 1_555 1_555
H39_2 C71_2 1_555 1_555
C72_2 C71_2 1_555 1_555
C73_2 C72_2 1_555 1_555
H40_2 C73_2 1_555 1_555
C74_2 C69_2 1_555 1_555
H41_2 C74_2 1_555 1_555
C75_2 C72_2 1_555 1_555
C76_2 C75_2 1_555 1_555
C78_2 C75_2 1_555 1_555
C79_2 C78_2 1_555 1_555
H42_2 C79_2 1_555 1_555
C80_2 C79_2 1_555 1_555
H43_2 C80_2 1_555 1_555
H47_2 C85_2 1_555 1_555
H48_2 C85_2 1_555 1_555
C86_2 C85_2 1_555 1_555
Cu8 N4_2 1_555 1_555
Cu12 N6_2 1_555 1_555
F19_2 C76_2 1_555 1_555
F20_2 C76_2 1_555 1_555
F21_2 C76_2 1_555 1_555
N6_2 C86_2 1_555 1_555
O9_2 C51_2 1_555 1_555
O10_2 C51_2 1_555 1_555
O13_2 C68_2 1_555 1_555
O14_2 C68_2 1_555 1_555
C45_2 N4_2 1_555 1_555
C56_2 C57_2 1_555 1_555
C73_2 C74_2 1_555 1_555
Cu8 O9_2 1_555 1_555
Cu8 O13_2 1_555 1_555
Cu12 O10_2 1_555 1_555
Cu12 O14_2 1_555 1_555
C1_2 C2_2 1_555 1_555
H3_2 C6_2 1_555 1_555
C7_2 C2_2 1_555 1_555
H4_2 C7_2 1_555 1_555
C18_2 C19_2 1_555 1_555
C19_2 C20_2 1_555 1_555
C20_2 H9_2 1_555 1_555
C21_2 C20_2 1_555 1_555
H10_2 C21_2 1_555 1_555
C22_2 C21_2 1_555 1_555
C23_2 C22_2 1_555 1_555
H11_2 C23_2 1_555 1_555
C24_2 C19_2 1_555 1_555
H12_2 C24_2 1_555 1_555
C25_2 C22_2 1_555 1_555
C26_2 C25_2 1_555 1_555
C28_2 C25_2 1_555 1_555
C29_2 C28_2 1_555 1_555
H13_2 C29_2 1_555 1_555
C30_2 C29_2 1_555 1_555
H14_2 C30_2 1_555 1_555
C36_2 H18_2 1_555 1_555
H23_2 C42_2 1_555 1_555
H24_2 C42_2 1_555 1_555
C43_2 C42_2 1_555 1_555
Cu1 N1_2 1_555 1_555
Cu2 N3_2 1_555 1_555
F7_2 C26_2 1_555 1_555
F8_2 C26_2 1_555 1_555
F9_2 C26_2 1_555 1_555
N3_2 C43_2 1_555 1_555
O1_2 C1_2 1_555 1_555
O2_2 C1_2 1_555 1_555
O5_2 C18_2 1_555 1_555
O6_2 C18_2 1_555 1_555
O18 Cu2 1_555 1_555
O20 Cu1 1_555 1_555
O22 Cu1 1_555 1_555
O24 Cu2 1_555 1_555
C6_2 C7_2 1_555 1_555
C23_2 C24_2 1_555 1_555
C36_2 N1_2 1_555 1_555
Cu1 O1_2 1_555 1_555
Cu1 O5_2 1_555 1_555
Cu2 O2_2 1_555 1_555
Cu2 O6_2 1_555 1_555
O18 C67_2 1_555 1_555
O20 C67_2 1_555 1_555
O22 C84_2 1_555 1_555
O24 C84_2 1_555 1_555
C32_2 C31_2 1_555 1_555
H15_2 C32_2 1_555 1_555
H16_2 C33_2 1_555 1_555
F11_2 C27_2 1_555 1_555
F12_2 C27_2 1_555 1_555
C32_2 C33_2 1_555 1_555
C3_2 H1_2 1_555 1_555
C4_2 C3_2 1_555 1_555
H2_2 C4_2 1_555 1_555
C5_2 C4_2 1_555 1_555
C8_2 C5_2 1_555 1_555
C9_2 C8_2 1_555 1_555
C10_2 C8_2 1_555 1_555
C11_2 C8_2 1_555 1_555
C12_2 C11_2 1_555 1_555
H5_2 C12_2 1_555 1_555
C13_2 C12_2 1_555 1_555
H6_2 C13_2 1_555 1_555
C14_2 C13_2 1_555 1_555
C15_2 C14_2 1_555 1_555
H7_2 C15_2 1_555 1_555
C16_2 C11_2 1_555 1_555
H8_2 C16_2 1_555 1_555
C35_2 H17_2 1_555 1_555
H19_2 C37_2 1_555 1_555
C38_2 C39_2 1_555 1_555
C39_2 H20_2 1_555 1_555
C40_2 C39_2 1_555 1_555
H21_2 C40_2 1_555 1_555
C41_2 C40_2 1_555 1_555
F3_2 C9_2 1_555 1_555
F4_2 C10_2 1_555 1_555
F5_2 C10_2 1_555 1_555
F6_2 C10_2 1_555 1_555
N2_2 C35_2 1_555 1_555
S1_2 C38_2 1_555 1_555
C44_2 H25_2 1_555 1_555
H27_2 C46_2 1_555 1_555
C47_2 C48_2 1_555 1_555
C48_2 H28_2 1_555 1_555
C49_2 C48_2 1_555 1_555
H29_2 C49_2 1_555 1_555
C50_2 C41_2 1_555 1_555
N5_2 C44_2 1_555 1_555
S2_2 C47_2 1_555 1_555
C53_2 H30_2 1_555 1_555
C54_2 C53_2 1_555 1_555
H31_2 C54_2 1_555 1_555
C55_2 C54_2 1_555 1_555
C58_2 C55_2 1_555 1_555
C59_2 C58_2 1_555 1_555
C60_2 C58_2 1_555 1_555
C61_2 C58_2 1_555 1_555
C62_2 C61_2 1_555 1_555
H34_2 C62_2 1_555 1_555
C63_2 C62_2 1_555 1_555
H35_2 C63_2 1_555 1_555
C64_2 C63_2 1_555 1_555
C65_2 C64_2 1_555 1_555
H36_2 C65_2 1_555 1_555
C66_2 C61_2 1_555 1_555
H37_2 C66_2 1_555 1_555
F15_2 C59_2 1_555 1_555
F16_2 C60_2 1_555 1_555
F17_2 C60_2 1_555 1_555
F18_2 C60_2 1_555 1_555
C15_2 C16_2 1_555 1_555
C37_2 N2_2 1_555 1_555
C38_2 N2_2 1_555 1_555
C41_2 S1_2 1_555 1_555
C46_2 N5_2 1_555 1_555
C47_2 N5_2 1_555 1_555
C49_2 C50_2 1_555 1_555
C50_2 S2_2 1_555 1_555
C65_2 C66_2 1_555 1_555
C82_2 C81_2 1_555 1_555
H44_2 C82_2 1_555 1_555
H45_2 C83_2 1_555 1_555
F23_2 C77_2 1_555 1_555
F24_2 C77_2 1_555 1_555
C82_2 C83_2 1_555 1_555

#END
