
###############################################################################
#
# This file contains modified crystal structure data generated from the
# MOF subset of the Cambridge Structural Database (CSD) v543 
# hosted by the Cambridge Crystallographic Data Centre (CCDC).
#
# This work is licensed under the Creative Commons
# Attribution-NonCommercial-ShareAlike 4.0 International License.
# To view a copy of this license, visit
# http://creativecommons.org/licenses/by-nc-sa/4.0/
# or send a letter to
# Creative Commons, PO Box 1866, Mountain View, CA 94042, USA.
#
# CIF created using the CSD Python API on 29 September 2022
# The structure has been converted into the P1 space group
# The structure has a 3D framework
# The original CSD entry SUSMIE is in the triclinic crystal system
# The framework has been calculated to contain at least 10.0% void space
# The void calculation uses a probe of radius 1.32A, grid spacing 0.4
#
###############################################################################

data_SUSMIE
_chemical_formula_moiety         '(C30 H30 N8 Ni3 O14 P4)n'
_symmetry_cell_setting           triclinic
_symmetry_space_group_name_H-M   'P 1'
_symmetry_Int_Tables_number      1
_space_group_name_Hall           'P 1'
loop_
_symmetry_equiv_pos_site_id
_symmetry_equiv_pos_as_xyz
1 x,y,z
_cell_length_a                   8.944(7)
_cell_length_b                   10.776(9)
_cell_length_c                   13.789(11)
_cell_angle_alpha                68.768(9)
_cell_angle_beta                 78.142(9)
_cell_angle_gamma                79.991(9)
_cell_volume                     1205.13
loop_
_atom_site_label
_atom_site_type_symbol
_atom_site_fract_x
_atom_site_fract_y
_atom_site_fract_z
C19 C 0.0549(8) 0.0631(8) 0.2550(6)
H21 H 0.1210 0.0781 0.2926
O18 O 0.3869(5) 0.0769(4) 0.1276(3)
H1 H 0.2259 0.0488 0.9546
C3 C 0.0335(7) 0.0123(6) 0.8436(5)
H5 H 0.0420 0.0590 0.8869
Ni8 Ni 0.68938(8) 0.09987(7) 0.85087(5)
Ni1 Ni 0.5000 0.5000 0.0000
N9 N 0.5156(6) 0.4447(5) 0.1624(4)
O16 O 0.4108(5) 0.3233(4) 0.0318(3)
O19 O 0.2759(5) 0.5909(4) 0.0237(3)
Ni1_2 Ni 0.5000 0.5000 1.0000
Ni2 Ni 0.31062(8) 0.90013(7) 0.14913(5)
N3 N 0.3609(6) 0.8147(5) 0.3022(4)
N4 N 0.4844(6) 0.5553(5) 0.8376(4)
O3 O 0.5324(4) 0.8403(4) 0.0725(3)
O5 O 0.0387(5) 0.7512(4) 0.0402(3)
O7 O 0.2342(5) 0.7231(4) 0.1548(3)
P2 P 0.21761(17) 0.71696(15) 0.04987(11)
C6 C 0.3478(9) 0.6877(7) 0.3587(5)
H8 H 0.3244 0.6330 0.3263
C7 C 0.3670(10) 0.6305(8) 0.4646(6)
H9 H 0.3499 0.5418 0.5019
C8 C 0.4115(8) 0.7068(7) 0.5135(5)
C9 C 0.4230(10) 0.8412(8) 0.4545(6)
H10 H 0.4493 0.8973 0.4846
C10 C 0.3957(9) 0.8923(8) 0.3515(6)
H11 H 0.4013 0.9831 0.3146
C11 C 0.3718(8) 0.5156(7) 0.8079(5)
H12 H 0.3082 0.4561 0.8589
C12 C 0.3473(9) 0.5606(7) 0.7034(5)
H13 H 0.2687 0.5305 0.6857
C13 C 0.4402(8) 0.6506(7) 0.6254(5)
C14 C 0.5575(9) 0.6889(7) 0.6567(5)
H14 H 0.6225 0.7485 0.6072
C15 C 0.5784(8) 0.6386(7) 0.7616(5)
H15 H 0.6601 0.6632 0.7803
N5 N 0.0923(6) 0.9800(5) 0.1956(4)
O15 O 0.5892(5) 0.6767(4) 0.9682(3)
O20 O 0.7241(5) 0.4091(4) 0.9763(3)
N2 N 0.1480(6) 0.9283(5) 0.8130(4)
O1 O 0.2666(4) 0.9721(4) 0.9889(3)
O4 O 0.6131(5) 0.9231(4) 0.8724(3)
H2 H 0.0247 0.7488 0.9818
P1 P 0.53205(17) 0.81894(14) 0.96769(11)
C1 C 0.3240(6) 0.8571(5) 0.9531(4)
C2 C 0.3061(7) 0.8955(6) 0.8371(4)
H3 H 0.3622 0.9721 0.7964
H4 H 0.3548 0.8218 0.8131
C5 C 0.0931(8) 0.8799(8) 0.7493(6)
H7 H 0.1460 0.8204 0.7159
N6 N 0.8520(6) 0.0717(5) 0.1870(4)
O8 O 0.7334(4) 0.0279(4) 0.0111(3)
H17 H 0.9753 0.2512 0.0182
P3 P 0.46795(17) 0.18106(14) 0.03231(11)
C16 C 0.6760(6) 0.1429(5) 0.0469(4)
C17 C 0.6939(7) 0.1045(6) 0.1629(4)
H18 H 0.6378 0.0279 0.2036
H19 H 0.6452 0.1782 0.1869
C20 C 0.9069(8) 0.1201(8) 0.2507(6)
H22 H 0.8540 0.1796 0.2841
N1 N 0.9077(6) 0.0200(5) 0.8044(4)
N7 N 0.6391(6) 0.1853(5) 0.6978(4)
O10 O 0.4676(4) 0.1597(4) 0.9275(3)
O12 O 0.9613(5) 0.2488(4) 0.9598(3)
O14 O 0.7658(5) 0.2769(4) 0.8452(3)
P4 P 0.78239(17) 0.28304(15) 0.95013(11)
C21 C 0.6522(9) 0.3123(7) 0.6413(5)
H23 H 0.6756 0.3670 0.6737
C22 C 0.6330(10) 0.3695(8) 0.5354(6)
H24 H 0.6501 0.4582 0.4981
C23 C 0.5885(8) 0.2932(7) 0.4865(5)
C24 C 0.5770(10) 0.1588(8) 0.5455(6)
H25 H 0.5507 0.1027 0.5154
C25 C 0.6043(9) 0.1077(8) 0.6485(6)
H26 H 0.5987 0.0169 0.6854
C26 C 0.6282(8) 0.4844(7) 0.1921(5)
H27 H 0.6918 0.5439 0.1411
C27 C 0.6527(9) 0.4394(7) 0.2966(5)
H28 H 0.7313 0.4695 0.3143
C28 C 0.5598(8) 0.3494(7) 0.3746(5)
C29 C 0.4425(9) 0.3111(7) 0.3433(5)
H29 H 0.3775 0.2515 0.3928
C30 C 0.4216(8) 0.3614(7) 0.2384(5)
H30 H 0.3399 0.3368 0.2197
H16 H 0.7741 0.9512 0.0454
C18 C 0.9665(7) 0.9877(6) 0.1564(5)
H20 H 0.9580 0.9410 0.1131
C4 C 0.9451(8) 0.9369(8) 0.7450(6)
H6 H 0.8790 0.9219 0.7074
loop_
_geom_bond_atom_site_label_1
_geom_bond_atom_site_label_2
_geom_bond_site_symmetry_1
_geom_bond_site_symmetry_2
H21 C19 1_555 1_555
H5 C3 1_555 1_555
N9 Ni1 1_555 1_555
O16 Ni1 1_555 1_555
O19 Ni1 1_555 1_555
Ni1_2 N4 1_555 1_555
Ni2 N3 1_555 1_555
N3 C6 1_555 1_555
N4 C11 1_555 1_555
O3 Ni2 1_555 1_555
O19 P2 1_555 1_555
O7 Ni2 1_555 1_555
P2 O5 1_555 1_555
C6 H8 1_555 1_555
C7 C6 1_555 1_555
H9 C7 1_555 1_555
C8 C7 1_555 1_555
C9 C8 1_555 1_555
H10 C9 1_555 1_555
C10 N3 1_555 1_555
H11 C10 1_555 1_555
C11 H12 1_555 1_555
C12 C11 1_555 1_555
H13 C12 1_555 1_555
C13 C8 1_555 1_555
C14 C13 1_555 1_555
H14 C14 1_555 1_555
C15 N4 1_555 1_555
H15 C15 1_555 1_555
N5 Ni2 1_555 1_555
O15 Ni1_2 1_555 1_555
O20 Ni1_2 1_555 1_555
O7 P2 1_555 1_555
C9 C10 1_555 1_555
C12 C13 1_555 1_555
C14 C15 1_555 1_555
N2 C2 1_555 1_555
O15 P1 1_555 1_555
O4 P1 1_555 1_555
C1 O1 1_555 1_555
C2 C1 1_555 1_555
H3 C2 1_555 1_555
H4 C2 1_555 1_555
C5 N2 1_555 1_555
H7 C5 1_555 1_555
P1 C1 1_555 1_555
N6 C17 1_555 1_555
O16 P3 1_555 1_555
O18 P3 1_555 1_555
C16 O8 1_555 1_555
C17 C16 1_555 1_555
H18 C17 1_555 1_555
H19 C17 1_555 1_555
C20 N6 1_555 1_555
H22 C20 1_555 1_555
P3 C16 1_555 1_555
Ni8 N1 1_555 1_555
N7 Ni8 1_555 1_555
N9 C26 1_555 1_555
O10 Ni8 1_555 1_555
O20 P4 1_555 1_555
O14 Ni8 1_555 1_555
P4 O12 1_555 1_555
C21 N7 1_555 1_555
H23 C21 1_555 1_555
C22 C21 1_555 1_555
H24 C22 1_555 1_555
C23 C22 1_555 1_555
C24 C23 1_555 1_555
H25 C24 1_555 1_555
C25 N7 1_555 1_555
H26 C25 1_555 1_555
C26 H27 1_555 1_555
C27 C26 1_555 1_555
H28 C27 1_555 1_555
C28 C23 1_555 1_555
C29 C28 1_555 1_555
H29 C29 1_555 1_555
C30 N9 1_555 1_555
H30 C30 1_555 1_555
O14 P4 1_555 1_555
C24 C25 1_555 1_555
C27 C28 1_555 1_555
C29 C30 1_555 1_555
H20 C18 1_555 1_555
H6 C4 1_555 1_555

#END
