
###############################################################################
#
# This file contains modified crystal structure data generated from the
# MOF subset of the Cambridge Structural Database (CSD) v543 
# hosted by the Cambridge Crystallographic Data Centre (CCDC).
#
# This work is licensed under the Creative Commons
# Attribution-NonCommercial-ShareAlike 4.0 International License.
# To view a copy of this license, visit
# http://creativecommons.org/licenses/by-nc-sa/4.0/
# or send a letter to
# Creative Commons, PO Box 1866, Mountain View, CA 94042, USA.
#
# CIF created using the CSD Python API on 29 September 2022
# The structure has been converted into the P1 space group
# The structure has a 3D framework
# The original CSD entry SUSRUV is in the orthorhombic crystal system
# The framework has been calculated to contain at least 10.0% void space
# The void calculation uses a probe of radius 1.32A, grid spacing 0.4
#
###############################################################################

data_SUSRUV
_chemical_formula_moiety         '(C432 H320 N80 O112 Zn32)n'
_symmetry_cell_setting           triclinic
_symmetry_space_group_name_H-M   'P 1'
_symmetry_Int_Tables_number      1
_space_group_name_Hall           'P 1'
loop_
_symmetry_equiv_pos_site_id
_symmetry_equiv_pos_as_xyz
1 x,y,z
_cell_length_a                   26.630(5)
_cell_length_b                   35.928(7)
_cell_length_c                   13.001(3)
_cell_angle_alpha                90
_cell_angle_beta                 90
_cell_angle_gamma                90
_cell_volume                     12438.9
loop_
_atom_site_label
_atom_site_type_symbol
_atom_site_fract_x
_atom_site_fract_y
_atom_site_fract_z
N10 N 0.04653(8) 0.08671(6) 0.37346(18)
C50 C 0.01578(10) 0.07667(8) 0.2967(2)
H37 H 0.023 0.0854 0.2294
C54 C 0.03611(10) 0.07320(8) 0.4671(2)
H40 H 0.0581 0.0793 0.5221
Zn6 Zn 0.10469(2) 0.13106(2) 0.33537(2)
Zn1 Zn 0.35469(2) 0.11894(2) 0.58537(2)
Zn2 Zn 0.22689(2) 0.06110(2) 0.49499(2)
O1 O 0.30114(6) 0.09629(5) 0.49685(16)
O2 O 0.37826(7) 0.14921(5) 0.46058(15)
O3 O 0.39705(11) 0.15815(8) 0.2971(2)
O4 O 0.40217(7) 0.13996(6) 0.68827(16)
O5 O 0.32530(7) 0.08368(5) 0.69962(15)
O6 O 0.29174(7) 0.07871(6) 0.85503(16)
O7 O 0.25884(7) 0.03377(5) 0.61510(15)
H1 H 0.2778 0.0481 0.6484
H2 H 0.2724 0.0129 0.6067
N1 N 0.26304(8) 0.07377(7) 0.36042(18)
N2 N 0.44053(8) 0.15164(6) 0.83678(19)
N3 N 0.16909(8) 0.02480(6) 0.46108(18)
N5 N 0.40942(8) 0.07297(7) 0.54609(19)
C1 C 0.30010(10) 0.09592(7) 0.3981(2)
C2 C 0.33173(10) 0.11612(8) 0.3305(2)
C3 C 0.32413(11) 0.11094(8) 0.2252(2)
H3 H 0.3445 0.1242 0.1778
C4 C 0.28759(11) 0.08688(9) 0.1881(2)
H4 H 0.2834 0.0829 0.1164
C5 C 0.25756(10) 0.06897(8) 0.2591(2)
H5 H 0.2321 0.0526 0.2351
C6 C 0.37204(11) 0.14289(8) 0.3664(2)
C7 C 0.40286(10) 0.13381(7) 0.7847(2)
C8 C 0.36831(9) 0.11155(7) 0.8422(2)
C9 C 0.37529(11) 0.10817(8) 0.9475(2)
H6 H 0.3518 0.0943 0.9868
C10 C 0.41587(10) 0.12457(8) 0.9966(2)
C11 C 0.44731(10) 0.14643(8) 0.9377(2)
H8 H 0.475 0.1583 0.9702
C12 C 0.32525(10) 0.09005(8) 0.7958(2)
C13 C 0.14435(10) 0.02642(8) 0.3710(2)
H9 H 0.1562 0.043 0.3194
C14 C 0.10254(10) 0.00505(7) 0.3507(2)
H10 H 0.0867 0.0064 0.2853
C17 C 0.15181(11) 0.00136(8) 0.5329(2)
C23 C 0.45812(10) 0.08006(8) 0.5290(2)
H17 H 0.4683 0.1052 0.52
C24 C 0.49443(10) 0.05239(8) 0.5237(2)
H18 H 0.5285 0.0588 0.511
C25 C 0.48102(10) 0.01516(8) 0.5372(2)
C26 C 0.42988(10) 0.00784(8) 0.5531(2)
C27 C 0.39610(10) 0.03704(8) 0.5557(2)
H20 H 0.3615 0.0314 0.5648
H23 H 0.5815 0.017 0.5619
C47 C 0.91649(10) 0.01862(7) 0.4263(2)
C48 C 0.89076(10) 0.02018(8) 0.5192(2)
H35 H 0.9023 0.0359 0.5729
H36 H 0.8305 0.0006 0.5961
C51 C 0.97416(10) 0.05426(8) 0.3102(2)
H38 H 0.9537 0.0478 0.2531
C52 C 0.96248(10) 0.04125(8) 0.4080(2)
C53 C 0.99488(10) 0.05078(8) 0.4881(2)
H39 H 0.9888 0.0421 0.5559
Zn7 Zn 0.47689(2) 0.18890(2) 0.74499(2)
N12 N 0.19053(8) 0.09836(6) 0.58678(19)
N13 N 0.29653(8) 0.16329(6) 0.62346(18)
C15 C 0.08351(10) 0.98138(7) 0.4263(2)
C16 C 0.10924(10) 0.97982(8) 0.5192(2)
H11 H 0.0977 0.9641 0.5729
H12 H 0.1695 0.9994 0.5961
C19 C 0.02584(10) 0.94574(8) 0.3102(2)
H14 H 0.0463 0.9522 0.2531
C20 C 0.03752(10) 0.95875(8) 0.4080(2)
C21 C 0.00512(10) 0.94922(8) 0.4881(2)
H15 H 0.0112 0.9579 0.5559
H19 H 0.4185 0.983 0.5619
N6 N 0.59058(8) 0.92703(7) 0.54609(19)
C28 C 0.54188(10) 0.91994(8) 0.5290(2)
H21 H 0.5317 0.8948 0.52
C29 C 0.50557(10) 0.94761(8) 0.5237(2)
H22 H 0.4715 0.9412 0.511
C30 C 0.51898(10) 0.98484(8) 0.5372(2)
C31 C 0.57012(10) 0.99216(8) 0.5531(2)
C32 C 0.60390(10) 0.96296(8) 0.5557(2)
H24 H 0.6385 0.9686 0.5648
Zn3 Zn 0.64531(2) 0.88106(2) 0.58537(2)
Zn4 Zn 0.77311(2) 0.93890(2) 0.49499(2)
O8 O 0.69886(6) 0.90371(5) 0.49685(16)
O9 O 0.62174(7) 0.85079(5) 0.46058(15)
O10 O 0.60295(11) 0.84185(8) 0.2971(2)
O11 O 0.59783(7) 0.86004(6) 0.68827(16)
O12 O 0.67470(7) 0.91632(5) 0.69962(15)
O13 O 0.70826(7) 0.92129(6) 0.85503(16)
O14 O 0.74116(7) 0.96623(5) 0.61510(15)
H25 H 0.7222 0.9519 0.6484
H26 H 0.7276 0.9871 0.6067
N7 N 0.73696(8) 0.92623(7) 0.36042(18)
N8 N 0.55947(8) 0.84836(6) 0.83678(19)
N9 N 0.83091(8) 0.97520(6) 0.46108(18)
C33 C 0.69990(10) 0.90408(7) 0.3981(2)
C34 C 0.66827(10) 0.88388(8) 0.3305(2)
C35 C 0.67587(11) 0.88906(8) 0.2252(2)
H27 H 0.6555 0.8758 0.1778
C36 C 0.71241(11) 0.91312(9) 0.1881(2)
H28 H 0.7166 0.9171 0.1164
C37 C 0.74244(10) 0.93103(8) 0.2591(2)
H29 H 0.7679 0.9474 0.2351
C38 C 0.62796(11) 0.85711(8) 0.3664(2)
C39 C 0.59714(10) 0.86619(7) 0.7847(2)
C40 C 0.63169(9) 0.88845(7) 0.8422(2)
C41 C 0.62471(11) 0.89183(8) 0.9475(2)
H30 H 0.6482 0.9057 0.9868
C42 C 0.58413(10) 0.87543(8) 0.9966(2)
C43 C 0.55269(10) 0.85357(8) 0.9377(2)
H32 H 0.525 0.8417 0.9702
C44 C 0.67475(10) 0.90995(8) 0.7958(2)
C45 C 0.85565(10) 0.97358(8) 0.3710(2)
H33 H 0.8438 0.957 0.3194
C46 C 0.89746(10) 0.99495(7) 0.3507(2)
H34 H 0.9133 0.9936 0.2853
C49 C 0.84819(11) 0.99864(8) 0.5329(2)
Zn8 Zn 0.52311(2) 0.81110(2) 0.74499(2)
N11 N 0.80947(8) 0.90164(6) 0.58678(19)
N14 N 0.70347(8) 0.83671(6) 0.62346(18)
N4 N 0.95347(8) 0.91329(6) 0.37346(18)
C18 C 0.98422(10) 0.92333(8) 0.2967(2)
H13 H 0.977 0.9146 0.2294
C22 C 0.96389(10) 0.92680(8) 0.4671(2)
H16 H 0.9419 0.9207 0.5221
Zn5 Zn 0.89531(2) 0.86894(2) 0.33537(2)
Zn4_2 Zn 0.02311(2) 0.31110(2) 0.74499(2)
N9_2 N 0.08091(8) 0.27480(6) 0.71108(18)
H29_2 H 0.0179 0.3026 0.4851
C45_2 C 0.10565(10) 0.27642(8) 0.6210(2)
H33_2 H 0.0938 0.293 0.5694
C46_2 C 0.14746(10) 0.25505(7) 0.6007(2)
H34_2 H 0.1633 0.2564 0.5353
C47_2 C 0.16649(10) 0.23138(7) 0.6763(2)
C48_2 C 0.14076(10) 0.22982(8) 0.7692(2)
H35_2 H 0.1523 0.2141 0.8229
C49_2 C 0.09819(11) 0.25136(8) 0.7829(2)
H36_2 H 0.0805 0.2494 0.8461
C50_2 C 0.26578(10) 0.17333(8) 0.5467(2)
H37_2 H 0.273 0.1646 0.4794
C51_2 C 0.22416(10) 0.19574(8) 0.5602(2)
H38_2 H 0.2037 0.2022 0.5031
C52_2 C 0.21248(10) 0.20875(8) 0.6580(2)
C53_2 C 0.24488(10) 0.19922(8) 0.7381(2)
H39_2 H 0.2388 0.2079 0.8059
C54_2 C 0.28611(10) 0.17680(8) 0.7171(2)
H40_2 H 0.3081 0.1707 0.7721
N11_2 N 0.05947(8) 0.34836(6) 0.83678(19)
O6_2 O 0.54174(7) 0.17129(6) 0.10503(16)
N2_2 N 0.69053(8) 0.09836(6) 0.08678(19)
C7_2 C 0.65286(10) 0.11619(7) 0.0347(2)
C8_2 C 0.61831(9) 0.13845(7) 0.0922(2)
C9_2 C 0.62529(11) 0.14183(8) 0.1975(2)
H6_2 H 0.6018 0.1557 0.2368
C10_2 C 0.66587(10) 0.12543(8) 0.2466(2)
H7 H 0.6718 0.1291 0.3179
C11_2 C 0.69731(10) 0.10357(8) 0.1877(2)
H8_2 H 0.725 0.0917 0.2202
C12_2 C 0.57525(10) 0.15995(8) 0.0458(2)
O13_2 O 0.95826(7) 0.32871(6) 0.10503(16)
N8_2 N 0.80947(8) 0.40164(6) 0.08678(19)
C39_2 C 0.84714(10) 0.38381(7) 0.0347(2)
C40_2 C 0.88169(9) 0.36155(7) 0.0922(2)
C41_2 C 0.87471(11) 0.35817(8) 0.1975(2)
H30_2 H 0.8982 0.3443 0.2368
C42_2 C 0.83413(10) 0.37457(8) 0.2466(2)
H31 H 0.8282 0.3709 0.3179
C43_2 C 0.80269(10) 0.39643(8) 0.1877(2)
H32_2 H 0.775 0.4083 0.2202
C44_2 C 0.92475(10) 0.34005(8) 0.0458(2)
Zn1_2 Zn 0.60469(2) 0.13106(2) 0.83537(2)
O1_2 O 0.55114(6) 0.15371(5) 0.74685(16)
O2_2 O 0.62826(7) 0.10079(5) 0.71058(15)
O3_2 O 0.64705(11) 0.09185(8) 0.5471(2)
O4_2 O 0.65217(7) 0.11004(6) 0.93827(16)
O5_2 O 0.57530(7) 0.16632(5) 0.94962(15)
O7_2 O 0.50884(7) 0.21623(5) 0.86510(15)
H1_2 H 0.5278 0.2019 0.8984
H2_2 H 0.5224 0.2371 0.8567
N1_2 N 0.51304(8) 0.17623(7) 0.61042(18)
N3_2 N 0.41909(8) 0.22520(6) 0.71108(18)
N4_2 N 0.20347(8) 0.33671(6) 0.62346(18)
N5_2 N 0.65942(8) 0.17703(7) 0.79609(19)
C1_2 C 0.55010(10) 0.15408(7) 0.6481(2)
C2_2 C 0.58173(10) 0.13388(8) 0.5805(2)
C3_2 C 0.57413(11) 0.13906(8) 0.4752(2)
H3_2 H 0.5945 0.1258 0.4278
C4_2 C 0.53759(11) 0.16312(9) 0.4381(2)
H4_2 H 0.5334 0.1671 0.3664
C5_2 C 0.50756(10) 0.18103(8) 0.5091(2)
H5_2 H 0.4821 0.1974 0.4851
C6_2 C 0.62204(11) 0.10711(8) 0.6164(2)
C13_2 C 0.39435(10) 0.22358(8) 0.6210(2)
H9_2 H 0.4062 0.207 0.5694
C14_2 C 0.35254(10) 0.24495(7) 0.6007(2)
H10_2 H 0.3367 0.2436 0.5353
C15_2 C 0.33351(10) 0.26862(7) 0.6763(2)
C16_2 C 0.35924(10) 0.27018(8) 0.7692(2)
H11_2 H 0.3477 0.2859 0.8229
C17_2 C 0.40181(11) 0.24864(8) 0.7829(2)
H12_2 H 0.4195 0.2506 0.8461
C18_2 C 0.23422(10) 0.32667(8) 0.5467(2)
H13_2 H 0.227 0.3354 0.4794
C19_2 C 0.27584(10) 0.30426(8) 0.5602(2)
H14_2 H 0.2963 0.2978 0.5031
C20_2 C 0.28752(10) 0.29125(8) 0.6580(2)
C21_2 C 0.25512(10) 0.30078(8) 0.7381(2)
H15_2 H 0.2612 0.2921 0.8059
C22_2 C 0.21389(10) 0.32320(8) 0.7171(2)
H16_2 H 0.1919 0.3293 0.7721
C23_2 C 0.70812(10) 0.16994(8) 0.7790(2)
H17_2 H 0.7183 0.1448 0.77
C24_2 C 0.74443(10) 0.19761(8) 0.7737(2)
H18_2 H 0.7785 0.1912 0.761
C25_2 C 0.73102(10) 0.23484(8) 0.7872(2)
C26_2 C 0.67988(10) 0.24216(8) 0.8031(2)
H19_2 H 0.6685 0.267 0.8119
C27_2 C 0.64610(10) 0.21296(8) 0.8057(2)
H20_2 H 0.6115 0.2186 0.8148
N6_2 N 0.84058(8) 0.32297(7) 0.79609(19)
C28_2 C 0.79188(10) 0.33006(8) 0.7790(2)
H21_2 H 0.7817 0.3552 0.77
C29_2 C 0.75557(10) 0.30239(8) 0.7737(2)
H22_2 H 0.7215 0.3088 0.761
C30_2 C 0.76898(10) 0.26516(8) 0.7872(2)
C31_2 C 0.82012(10) 0.25784(8) 0.8031(2)
H23_2 H 0.8315 0.233 0.8119
C32_2 C 0.85390(10) 0.28704(8) 0.8057(2)
H24_2 H 0.8885 0.2814 0.8148
Zn3_2 Zn 0.89531(2) 0.36894(2) 0.83537(2)
O8_2 O 0.94886(6) 0.34629(5) 0.74685(16)
O9_2 O 0.87174(7) 0.39921(5) 0.71058(15)
O10_2 O 0.85295(11) 0.40815(8) 0.5471(2)
O11_2 O 0.84783(7) 0.38996(6) 0.93827(16)
O12_2 O 0.92470(7) 0.33368(5) 0.94962(15)
O14_2 O 0.99116(7) 0.28377(5) 0.86510(15)
H25_2 H 0.9722 0.2981 0.8984
H26_2 H 0.9776 0.2629 0.8567
N7_2 N 0.98696(8) 0.32377(7) 0.61042(18)
C33_2 C 0.94990(10) 0.34592(7) 0.6481(2)
C34_2 C 0.91827(10) 0.36612(8) 0.5805(2)
C35_2 C 0.92587(11) 0.36094(8) 0.4752(2)
H27_2 H 0.9055 0.3742 0.4278
C36_2 C 0.96241(11) 0.33688(9) 0.4381(2)
H28_2 H 0.9666 0.3329 0.3664
C37_2 C 0.99244(10) 0.31897(8) 0.5091(2)
C38_2 C 0.87796(11) 0.39289(8) 0.6164(2)
Zn5_2 Zn 0.14531(2) 0.38106(2) 0.58537(2)
Zn7_2 Zn 0.72689(2) 0.06110(2) 0.99499(2)
Zn8_2 Zn 0.77311(2) 0.43890(2) 0.99499(2)
N13_2 N 0.54653(8) 0.08671(6) 0.87346(18)
N14_2 N 0.95347(8) 0.41329(6) 0.87346(18)
N10_2 N 0.04653(8) 0.58671(6) 0.87346(18)
C50_3 C 0.01578(10) 0.57667(8) 0.7967(2)
H37_3 H 0.023 0.5854 0.7294
C54_3 C 0.03611(10) 0.57320(8) 0.9671(2)
Zn6_2 Zn 0.10469(2) 0.63106(2) 0.83537(2)
Zn1_3 Zn 0.35469(2) 0.61894(2) 0.08537(2)
O4_3 O 0.40217(7) 0.63996(6) 0.18827(16)
O5_3 O 0.32530(7) 0.58368(5) 0.19962(15)
O6_3 O 0.29174(7) 0.57871(6) 0.35503(16)
O7_3 O 0.25884(7) 0.53377(5) 0.11510(15)
H1_3 H 0.2778 0.5481 0.1484
H2_3 H 0.2724 0.5129 0.1067
N2_3 N 0.44053(8) 0.65164(6) 0.33678(19)
N5_3 N 0.40942(8) 0.57297(7) 0.04609(19)
C7_3 C 0.40286(10) 0.63381(7) 0.2847(2)
C8_3 C 0.36831(9) 0.61155(7) 0.3422(2)
C9_3 C 0.37529(11) 0.60817(8) 0.4475(2)
H6_3 H 0.3518 0.5943 0.4868
C10_3 C 0.41587(10) 0.62457(8) 0.4966(2)
H7_2 H 0.4218 0.6209 0.5679
C11_3 C 0.44731(10) 0.64643(8) 0.4377(2)
H8_3 H 0.475 0.6583 0.4702
C12_3 C 0.32525(10) 0.59005(8) 0.2958(2)
C16_3 C 0.10924(10) 0.47982(8) 0.0192(2)
H11_3 H 0.0977 0.4641 0.0729
C17_3 C 0.15181(11) 0.50136(8) 0.0329(2)
H12_3 H 0.1695 0.4994 0.0961
H15_3 H 0.0112 0.4579 0.0559
C23_3 C 0.45812(10) 0.58006(8) 0.0290(2)
H17_3 H 0.4683 0.6052 0.02
C24_3 C 0.49443(10) 0.55239(8) 0.0237(2)
H18_3 H 0.5285 0.5588 0.011
C25_3 C 0.48102(10) 0.51516(8) 0.0372(2)
C26_3 C 0.42988(10) 0.50784(8) 0.0531(2)
H19_3 H 0.4185 0.483 0.0619
C27_3 C 0.39610(10) 0.53704(8) 0.0557(2)
H20_3 H 0.3615 0.5314 0.0648
N6_3 N 0.59058(8) 0.42703(7) 0.04609(19)
C28_3 C 0.54188(10) 0.41994(8) 0.0290(2)
H21_3 H 0.5317 0.3948 0.02
C29_3 C 0.50557(10) 0.44761(8) 0.0237(2)
H22_3 H 0.4715 0.4412 0.011
C30_3 C 0.51898(10) 0.48484(8) 0.0372(2)
C31_3 C 0.57012(10) 0.49216(8) 0.0531(2)
H23_3 H 0.5815 0.517 0.0619
C32_3 C 0.60390(10) 0.46296(8) 0.0557(2)
H24_3 H 0.6385 0.4686 0.0648
Zn3_3 Zn 0.64531(2) 0.38106(2) 0.08537(2)
O11_3 O 0.59783(7) 0.36004(6) 0.18827(16)
O12_3 O 0.67470(7) 0.41632(5) 0.19962(15)
O13_3 O 0.70826(7) 0.42129(6) 0.35503(16)
O14_3 O 0.74116(7) 0.46623(5) 0.11510(15)
H25_3 H 0.7222 0.4519 0.1484
H26_3 H 0.7276 0.4871 0.1067
N8_3 N 0.55947(8) 0.34836(6) 0.33678(19)
C39_3 C 0.59714(10) 0.36619(7) 0.2847(2)
C40_3 C 0.63169(9) 0.38845(7) 0.3422(2)
C41_3 C 0.62471(11) 0.39183(8) 0.4475(2)
H30_3 H 0.6482 0.4057 0.4868
C42_3 C 0.58413(10) 0.37543(8) 0.4966(2)
H31_2 H 0.5782 0.3791 0.5679
C43_3 C 0.55269(10) 0.35357(8) 0.4377(2)
H32_3 H 0.525 0.3417 0.4702
C44_3 C 0.67475(10) 0.40995(8) 0.2958(2)
C48_3 C 0.89076(10) 0.52018(8) 0.0192(2)
H35_3 H 0.9023 0.5359 0.0729
C49_3 C 0.84819(11) 0.49864(8) 0.0329(2)
H36_3 H 0.8305 0.5006 0.0961
H39_3 H 0.9888 0.5421 0.0559
Zn7_3 Zn 0.47689(2) 0.68890(2) 0.24499(2)
Zn8_3 Zn 0.52311(2) 0.31110(2) 0.24499(2)
N12_2 N 0.19053(8) 0.59836(6) 0.08678(19)
N13_3 N 0.29653(8) 0.66329(6) 0.12346(18)
N14_3 N 0.70347(8) 0.33671(6) 0.12346(18)
Zn2_2 Zn 0.22689(2) 0.56110(2) 0.99499(2)
O1_3 O 0.30114(6) 0.59629(5) 0.99685(16)
O2_3 O 0.37826(7) 0.64921(5) 0.96058(15)
O3_3 O 0.39705(11) 0.65815(8) 0.7971(2)
N1_3 N 0.26304(8) 0.57377(7) 0.86042(18)
N3_3 N 0.16909(8) 0.52480(6) 0.96108(18)
C1_3 C 0.30010(10) 0.59592(7) 0.8981(2)
C2_3 C 0.33173(10) 0.61612(8) 0.8305(2)
C3_3 C 0.32413(11) 0.61094(8) 0.7252(2)
H3_3 H 0.3445 0.6242 0.6778
C4_3 C 0.28759(11) 0.58688(9) 0.6881(2)
H4_3 H 0.2834 0.5829 0.6164
C5_3 C 0.25756(10) 0.56897(8) 0.7591(2)
H5_3 H 0.2321 0.5526 0.7351
C6_3 C 0.37204(11) 0.64289(8) 0.8664(2)
C13_3 C 0.14435(10) 0.52642(8) 0.8710(2)
H9_3 H 0.1562 0.543 0.8194
C14_3 C 0.10254(10) 0.50505(7) 0.8507(2)
H10_3 H 0.0867 0.5064 0.7853
C15_3 C 0.08351(10) 0.48138(7) 0.9263(2)
C19_3 C 0.02584(10) 0.44574(8) 0.8102(2)
H14_3 H 0.0463 0.4522 0.7531
C20_3 C 0.03752(10) 0.45875(8) 0.9080(2)
C21_3 C 0.00512(10) 0.44922(8) 0.9881(2)
O8_3 O 0.69886(6) 0.40371(5) 0.99685(16)
O9_3 O 0.62174(7) 0.35079(5) 0.96058(15)
O10_3 O 0.60295(11) 0.34185(8) 0.7971(2)
N7_3 N 0.73696(8) 0.42623(7) 0.86042(18)
N9_3 N 0.83091(8) 0.47520(6) 0.96108(18)
C33_3 C 0.69990(10) 0.40408(7) 0.8981(2)
C34_3 C 0.66827(10) 0.38388(8) 0.8305(2)
C35_3 C 0.67587(11) 0.38906(8) 0.7252(2)
H27_3 H 0.6555 0.3758 0.6778
C36_3 C 0.71241(11) 0.41312(9) 0.6881(2)
H28_3 H 0.7166 0.4171 0.6164
C37_3 C 0.74244(10) 0.43103(8) 0.7591(2)
H29_3 H 0.7679 0.4474 0.7351
C38_3 C 0.62796(11) 0.35711(8) 0.8664(2)
C45_3 C 0.85565(10) 0.47358(8) 0.8710(2)
H33_3 H 0.8438 0.457 0.8194
C46_3 C 0.89746(10) 0.49495(7) 0.8507(2)
H34_3 H 0.9133 0.4936 0.7853
C47_3 C 0.91649(10) 0.51862(7) 0.9263(2)
C51_3 C 0.97416(10) 0.55426(8) 0.8102(2)
H38_3 H 0.9537 0.5478 0.7531
C52_3 C 0.96248(10) 0.54125(8) 0.9080(2)
C53_3 C 0.99488(10) 0.55078(8) 0.9881(2)
C18_3 C 0.98422(10) 0.42333(8) 0.7967(2)
H13_3 H 0.977 0.4146 0.7294
C22_3 C 0.96389(10) 0.42680(8) 0.9671(2)
Zn4_3 Zn 0.02311(2) 0.81110(2) 0.24499(2)
N9_4 N 0.08091(8) 0.77480(6) 0.21108(18)
C45_4 C 0.10565(10) 0.77642(8) 0.1210(2)
H33_4 H 0.0938 0.793 0.0694
C46_4 C 0.14746(10) 0.75505(7) 0.1007(2)
H34_4 H 0.1633 0.7564 0.0353
C47_4 C 0.16649(10) 0.73138(7) 0.1763(2)
C48_4 C 0.14076(10) 0.72982(8) 0.2692(2)
H35_4 H 0.1523 0.7141 0.3229
C49_4 C 0.09819(11) 0.75136(8) 0.2829(2)
H36_4 H 0.0805 0.7494 0.3461
C50_4 C 0.26578(10) 0.67333(8) 0.0467(2)
C51_4 C 0.22416(10) 0.69574(8) 0.0602(2)
H38_4 H 0.2037 0.7022 0.0031
C52_4 C 0.21248(10) 0.70875(8) 0.1580(2)
C53_4 C 0.24488(10) 0.69922(8) 0.2381(2)
H39_4 H 0.2388 0.7079 0.3059
C54_4 C 0.28611(10) 0.67680(8) 0.2171(2)
H40_3 H 0.3081 0.6707 0.2721
N11_3 N 0.05947(8) 0.84836(6) 0.33678(19)
Zn1_4 Zn 0.60469(2) 0.63106(2) 0.33537(2)
O1_4 O 0.55114(6) 0.65371(5) 0.24685(16)
O2_4 O 0.62826(7) 0.60079(5) 0.21058(15)
O3_4 O 0.64705(11) 0.59185(8) 0.0471(2)
O4_4 O 0.65217(7) 0.61004(6) 0.43827(16)
O5_4 O 0.57530(7) 0.66632(5) 0.44962(15)
O6_4 O 0.54174(7) 0.67129(6) 0.60503(16)
O7_4 O 0.50884(7) 0.71623(5) 0.36510(15)
H1_4 H 0.5278 0.7019 0.3984
H2_4 H 0.5224 0.7371 0.3567
N1_4 N 0.51304(8) 0.67623(7) 0.11042(18)
N2_4 N 0.69053(8) 0.59836(6) 0.58678(19)
N3_4 N 0.41909(8) 0.72520(6) 0.21108(18)
N4_3 N 0.20347(8) 0.83671(6) 0.12346(18)
N5_4 N 0.65942(8) 0.67703(7) 0.29609(19)
C1_4 C 0.55010(10) 0.65408(7) 0.1481(2)
C2_4 C 0.58173(10) 0.63388(8) 0.0805(2)
C5_4 C 0.50756(10) 0.68103(8) 0.0091(2)
C6_4 C 0.62204(11) 0.60711(8) 0.1164(2)
C7_4 C 0.65286(10) 0.61619(7) 0.5347(2)
C8_4 C 0.61831(9) 0.63845(7) 0.5922(2)
C9_4 C 0.62529(11) 0.64183(8) 0.6975(2)
H6_4 H 0.6018 0.6557 0.7368
C10_4 C 0.66587(10) 0.62543(8) 0.7466(2)
H7_3 H 0.6718 0.6291 0.8179
C11_4 C 0.69731(10) 0.60357(8) 0.6877(2)
H8_4 H 0.725 0.5917 0.7202
C12_4 C 0.57525(10) 0.65995(8) 0.5458(2)
C13_4 C 0.39435(10) 0.72358(8) 0.1210(2)
H9_4 H 0.4062 0.707 0.0694
C14_4 C 0.35254(10) 0.74495(7) 0.1007(2)
H10_4 H 0.3367 0.7436 0.0353
C15_4 C 0.33351(10) 0.76862(7) 0.1763(2)
C16_4 C 0.35924(10) 0.77018(8) 0.2692(2)
H11_4 H 0.3477 0.7859 0.3229
C17_4 C 0.40181(11) 0.74864(8) 0.2829(2)
H12_4 H 0.4195 0.7506 0.3461
C18_4 C 0.23422(10) 0.82667(8) 0.0467(2)
C19_4 C 0.27584(10) 0.80426(8) 0.0602(2)
H14_4 H 0.2963 0.7978 0.0031
C20_4 C 0.28752(10) 0.79125(8) 0.1580(2)
C21_4 C 0.25512(10) 0.80078(8) 0.2381(2)
H15_4 H 0.2612 0.7921 0.3059
C22_4 C 0.21389(10) 0.82320(8) 0.2171(2)
H16_3 H 0.1919 0.8293 0.2721
C23_4 C 0.70812(10) 0.66994(8) 0.2790(2)
H17_4 H 0.7183 0.6448 0.27
C24_4 C 0.74443(10) 0.69761(8) 0.2737(2)
H18_4 H 0.7785 0.6912 0.261
C25_4 C 0.73102(10) 0.73484(8) 0.2872(2)
C26_4 C 0.67988(10) 0.74216(8) 0.3031(2)
H19_4 H 0.6685 0.767 0.3119
C27_4 C 0.64610(10) 0.71296(8) 0.3057(2)
H20_4 H 0.6115 0.7186 0.3148
N6_4 N 0.84058(8) 0.82297(7) 0.29609(19)
C28_4 C 0.79188(10) 0.83006(8) 0.2790(2)
H21_4 H 0.7817 0.8552 0.27
C29_4 C 0.75557(10) 0.80239(8) 0.2737(2)
H22_4 H 0.7215 0.8088 0.261
C30_4 C 0.76898(10) 0.76516(8) 0.2872(2)
C31_4 C 0.82012(10) 0.75784(8) 0.3031(2)
H23_4 H 0.8315 0.733 0.3119
C32_4 C 0.85390(10) 0.78704(8) 0.3057(2)
H24_4 H 0.8885 0.7814 0.3148
O8_4 O 0.94886(6) 0.84629(5) 0.24685(16)
O9_4 O 0.87174(7) 0.89921(5) 0.21058(15)
O10_4 O 0.85295(11) 0.90815(8) 0.0471(2)
O11_4 O 0.84783(7) 0.88996(6) 0.43827(16)
O12_4 O 0.92470(7) 0.83368(5) 0.44962(15)
O13_4 O 0.95826(7) 0.82871(6) 0.60503(16)
O14_4 O 0.99116(7) 0.78377(5) 0.36510(15)
H25_4 H 0.9722 0.7981 0.3984
H26_4 H 0.9776 0.7629 0.3567
N7_4 N 0.98696(8) 0.82377(7) 0.11042(18)
C33_4 C 0.94990(10) 0.84592(7) 0.1481(2)
C34_4 C 0.91827(10) 0.86612(8) 0.0805(2)
C37_4 C 0.99244(10) 0.81897(8) 0.0091(2)
C38_4 C 0.87796(11) 0.89289(8) 0.1164(2)
C39_4 C 0.84714(10) 0.88381(7) 0.5347(2)
C40_4 C 0.88169(9) 0.86155(7) 0.5922(2)
C41_4 C 0.87471(11) 0.85817(8) 0.6975(2)
H30_4 H 0.8982 0.8443 0.7368
C42_4 C 0.83413(10) 0.87457(8) 0.7466(2)
H31_3 H 0.8282 0.8709 0.8179
C43_4 C 0.80269(10) 0.89643(8) 0.6877(2)
H32_4 H 0.775 0.9083 0.7202
C44_4 C 0.92475(10) 0.84005(8) 0.5458(2)
Zn5_3 Zn 0.14531(2) 0.88106(2) 0.08537(2)
Zn7_4 Zn 0.72689(2) 0.56110(2) 0.49499(2)
N13_4 N 0.54653(8) 0.58671(6) 0.37346(18)
C47_5 C 0.41649(10) 0.01862(7) 0.9263(2)
C50_5 C 0.51578(10) 0.07667(8) 0.7967(2)
H37_4 H 0.523 0.0854 0.7294
C51_5 C 0.47416(10) 0.05426(8) 0.8102(2)
H38_5 H 0.4537 0.0478 0.7531
C52_5 C 0.46248(10) 0.04125(8) 0.9080(2)
C53_5 C 0.49488(10) 0.05078(8) 0.9881(2)
C54_5 C 0.53611(10) 0.07320(8) 0.9671(2)
N6_5 N 0.09058(8) 0.92703(7) 0.04609(19)
C28_5 C 0.04188(10) 0.91994(8) 0.0290(2)
H21_5 H 0.0317 0.8948 0.02
C29_5 C 0.00557(10) 0.94761(8) 0.0237(2)
C30_5 C 0.01898(10) 0.98484(8) 0.0372(2)
C31_5 C 0.07012(10) 0.99216(8) 0.0531(2)
C32_5 C 0.10390(10) 0.96296(8) 0.0557(2)
H24_5 H 0.1385 0.9686 0.0648
O11_5 O 0.09783(7) 0.86004(6) 0.18827(16)
O12_5 O 0.17470(7) 0.91632(5) 0.19962(15)
O13_5 O 0.20826(7) 0.92129(6) 0.35503(16)
O14_5 O 0.24116(7) 0.96623(5) 0.11510(15)
H25_5 H 0.2222 0.9519 0.1484
H26_5 H 0.2276 0.9871 0.1067
C39_5 C 0.09714(10) 0.86619(7) 0.2847(2)
C40_5 C 0.13169(9) 0.88845(7) 0.3422(2)
C41_5 C 0.12471(11) 0.89183(8) 0.4475(2)
H30_5 H 0.1482 0.9057 0.4868
C42_5 C 0.08413(10) 0.87543(8) 0.4966(2)
H31_4 H 0.0782 0.8791 0.5679
C43_5 C 0.05269(10) 0.85357(8) 0.4377(2)
H32_5 H 0.025 0.8417 0.4702
C44_5 C 0.17475(10) 0.90995(8) 0.2958(2)
C49_5 C 0.34819(11) 0.99864(8) 0.0329(2)
N11_4 N 0.30947(8) 0.90164(6) 0.08678(19)
Zn4_4 Zn 0.27311(2) 0.93890(2) 0.99499(2)
O8_5 O 0.19886(6) 0.90371(5) 0.99685(16)
O9_5 O 0.12174(7) 0.85079(5) 0.96058(15)
O10_5 O 0.10295(11) 0.84185(8) 0.7971(2)
N7_5 N 0.23696(8) 0.92623(7) 0.86042(18)
N9_5 N 0.33091(8) 0.97520(6) 0.96108(18)
C33_5 C 0.19990(10) 0.90408(7) 0.8981(2)
C34_5 C 0.16827(10) 0.88388(8) 0.8305(2)
C35_4 C 0.17587(11) 0.88906(8) 0.7252(2)
H27_4 H 0.1555 0.8758 0.6778
C36_4 C 0.21241(11) 0.91312(9) 0.6881(2)
H28_4 H 0.2166 0.9171 0.6164
C37_5 C 0.24244(10) 0.93103(8) 0.7591(2)
H29_4 H 0.2679 0.9474 0.7351
C38_5 C 0.12796(11) 0.85711(8) 0.8664(2)
C45_5 C 0.35565(10) 0.97358(8) 0.8710(2)
H33_5 H 0.3438 0.957 0.8194
C46_5 C 0.39746(10) 0.99495(7) 0.8507(2)
H34_5 H 0.4133 0.9936 0.7853
Zn1_5 Zn 0.85469(2) 0.11894(2) 0.08537(2)
O4_5 O 0.90217(7) 0.13996(6) 0.18827(16)
O5_5 O 0.82530(7) 0.08368(5) 0.19962(15)
O6_5 O 0.79174(7) 0.07871(6) 0.35503(16)
O7_5 O 0.75884(7) 0.03377(5) 0.11510(15)
H1_5 H 0.7778 0.0481 0.1484
H2_5 H 0.7724 0.0129 0.1067
N2_5 N 0.94053(8) 0.15164(6) 0.33678(19)
N5_5 N 0.90942(8) 0.07297(7) 0.04609(19)
C7_5 C 0.90286(10) 0.13381(7) 0.2847(2)
C8_5 C 0.86831(9) 0.11155(7) 0.3422(2)
C9_5 C 0.87529(11) 0.10817(8) 0.4475(2)
H6_5 H 0.8518 0.0943 0.4868
C10_5 C 0.91587(10) 0.12457(8) 0.4966(2)
H7_4 H 0.9218 0.1209 0.5679
C11_5 C 0.94731(10) 0.14643(8) 0.4377(2)
H8_5 H 0.975 0.1583 0.4702
C12_5 C 0.82525(10) 0.09005(8) 0.2958(2)
C17_5 C 0.65181(11) 0.00136(8) 0.0329(2)
C23_5 C 0.95812(10) 0.08006(8) 0.0290(2)
H17_5 H 0.9683 0.1052 0.02
C24_5 C 0.99443(10) 0.05239(8) 0.0237(2)
C25_5 C 0.98102(10) 0.01516(8) 0.0372(2)
C26_5 C 0.92988(10) 0.00784(8) 0.0531(2)
C27_5 C 0.89610(10) 0.03704(8) 0.0557(2)
H20_5 H 0.8615 0.0314 0.0648
Zn7_5 Zn 0.97689(2) 0.18890(2) 0.24499(2)
N13_5 N 0.79653(8) 0.16329(6) 0.12346(18)
O1_5 O 0.80114(6) 0.09629(5) 0.99685(16)
O2_5 O 0.87826(7) 0.14921(5) 0.96058(15)
O3_5 O 0.89705(11) 0.15815(8) 0.7971(2)
N1_5 N 0.76304(8) 0.07377(7) 0.86042(18)
N3_5 N 0.66909(8) 0.02480(6) 0.96108(18)
C1_5 C 0.80010(10) 0.09592(7) 0.8981(2)
C2_5 C 0.83173(10) 0.11612(8) 0.8305(2)
C3_4 C 0.82413(11) 0.11094(8) 0.7252(2)
H3_4 H 0.8445 0.1242 0.6778
C4_4 C 0.78759(11) 0.08688(9) 0.6881(2)
H4_4 H 0.7834 0.0829 0.6164
C5_5 C 0.75756(10) 0.06897(8) 0.7591(2)
H5_4 H 0.7321 0.0526 0.7351
C6_5 C 0.87204(11) 0.14289(8) 0.8664(2)
C13_5 C 0.64435(10) 0.02642(8) 0.8710(2)
H9_5 H 0.6562 0.043 0.8194
C14_5 C 0.60254(10) 0.00505(7) 0.8507(2)
H10_5 H 0.5867 0.0064 0.7853
N4_4 N 0.45347(8) 0.91329(6) 0.87346(18)
C15_5 C 0.58351(10) 0.98138(7) 0.9263(2)
C18_5 C 0.48422(10) 0.92333(8) 0.7967(2)
H13_4 H 0.477 0.9146 0.7294
C19_5 C 0.52584(10) 0.94574(8) 0.8102(2)
H14_5 H 0.5463 0.9522 0.7531
C20_5 C 0.53752(10) 0.95875(8) 0.9080(2)
C21_5 C 0.50512(10) 0.94922(8) 0.9881(2)
C22_5 C 0.46389(10) 0.92680(8) 0.9671(2)
Zn5_4 Zn 0.39531(2) 0.86894(2) 0.83537(2)
O1_6 O 0.05114(6) 0.15371(5) 0.24685(16)
O2_6 O 0.12826(7) 0.10079(5) 0.21058(15)
O3_6 O 0.14705(11) 0.09185(8) 0.0471(2)
O4_6 O 0.15217(7) 0.11004(6) 0.43827(16)
O5_6 O 0.07530(7) 0.16632(5) 0.44962(15)
O6_6 O 0.04174(7) 0.17129(6) 0.60503(16)
O7_6 O 0.00884(7) 0.21623(5) 0.36510(15)
H1_6 H 0.0278 0.2019 0.3984
H2_6 H 0.0224 0.2371 0.3567
N1_6 N 0.01304(8) 0.17623(7) 0.11042(18)
N5_6 N 0.15942(8) 0.17703(7) 0.29609(19)
C1_6 C 0.05010(10) 0.15408(7) 0.1481(2)
C2_6 C 0.08173(10) 0.13388(8) 0.0805(2)
C5_6 C 0.00756(10) 0.18103(8) 0.0091(2)
C6_6 C 0.12204(11) 0.10711(8) 0.1164(2)
C7_6 C 0.15286(10) 0.11619(7) 0.5347(2)
C8_6 C 0.11831(9) 0.13845(7) 0.5922(2)
C9_6 C 0.12529(11) 0.14183(8) 0.6975(2)
H6_6 H 0.1018 0.1557 0.7368
C10_6 C 0.16587(10) 0.12543(8) 0.7466(2)
H7_5 H 0.1718 0.1291 0.8179
C11_6 C 0.19731(10) 0.10357(8) 0.6877(2)
H8_6 H 0.225 0.0917 0.7202
C12_6 C 0.07525(10) 0.15995(8) 0.5458(2)
C23_6 C 0.20812(10) 0.16994(8) 0.2790(2)
H17_6 H 0.2183 0.1448 0.27
C24_6 C 0.24443(10) 0.19761(8) 0.2737(2)
H18_5 H 0.2785 0.1912 0.261
C25_6 C 0.23102(10) 0.23484(8) 0.2872(2)
C26_6 C 0.17988(10) 0.24216(8) 0.3031(2)
H19_5 H 0.1685 0.267 0.3119
C27_6 C 0.14610(10) 0.21296(8) 0.3057(2)
H20_6 H 0.1115 0.2186 0.3148
N6_6 N 0.34058(8) 0.32297(7) 0.29609(19)
C28_6 C 0.29188(10) 0.33006(8) 0.2790(2)
H21_6 H 0.2817 0.3552 0.27
C29_6 C 0.25557(10) 0.30239(8) 0.2737(2)
H22_5 H 0.2215 0.3088 0.261
C30_6 C 0.26898(10) 0.26516(8) 0.2872(2)
C31_6 C 0.32012(10) 0.25784(8) 0.3031(2)
H23_5 H 0.3315 0.233 0.3119
C32_6 C 0.35390(10) 0.28704(8) 0.3057(2)
H24_6 H 0.3885 0.2814 0.3148
Zn3_4 Zn 0.39531(2) 0.36894(2) 0.33537(2)
O8_6 O 0.44886(6) 0.34629(5) 0.24685(16)
O9_6 O 0.37174(7) 0.39921(5) 0.21058(15)
O10_6 O 0.35295(11) 0.40815(8) 0.0471(2)
O11_6 O 0.34783(7) 0.38996(6) 0.43827(16)
O12_6 O 0.42470(7) 0.33368(5) 0.44962(15)
O13_6 O 0.45826(7) 0.32871(6) 0.60503(16)
O14_6 O 0.49116(7) 0.28377(5) 0.36510(15)
H25_6 H 0.4722 0.2981 0.3984
H26_6 H 0.4776 0.2629 0.3567
N7_6 N 0.48696(8) 0.32377(7) 0.11042(18)
N8_4 N 0.30947(8) 0.40164(6) 0.58678(19)
N9_6 N 0.58091(8) 0.27480(6) 0.21108(18)
C33_6 C 0.44990(10) 0.34592(7) 0.1481(2)
C34_6 C 0.41827(10) 0.36612(8) 0.0805(2)
C37_6 C 0.49244(10) 0.31897(8) 0.0091(2)
C38_6 C 0.37796(11) 0.39289(8) 0.1164(2)
C39_6 C 0.34714(10) 0.38381(7) 0.5347(2)
C40_6 C 0.38169(9) 0.36155(7) 0.5922(2)
C41_6 C 0.37471(11) 0.35817(8) 0.6975(2)
H30_6 H 0.3982 0.3443 0.7368
C42_6 C 0.33413(10) 0.37457(8) 0.7466(2)
H31_5 H 0.3282 0.3709 0.8179
C43_6 C 0.30269(10) 0.39643(8) 0.6877(2)
H32_6 H 0.275 0.4083 0.7202
C44_6 C 0.42475(10) 0.34005(8) 0.5458(2)
C45_6 C 0.60565(10) 0.27642(8) 0.1210(2)
H33_6 H 0.5938 0.293 0.0694
C46_6 C 0.64746(10) 0.25505(7) 0.1007(2)
H34_6 H 0.6633 0.2564 0.0353
C47_6 C 0.66649(10) 0.23138(7) 0.1763(2)
C48_5 C 0.64076(10) 0.22982(8) 0.2692(2)
H35_5 H 0.6523 0.2141 0.3229
C49_6 C 0.59819(11) 0.25136(8) 0.2829(2)
H36_5 H 0.5805 0.2494 0.3461
C50_6 C 0.76578(10) 0.17333(8) 0.0467(2)
C51_6 C 0.72416(10) 0.19574(8) 0.0602(2)
H38_6 H 0.7037 0.2022 0.0031
C52_6 C 0.71248(10) 0.20875(8) 0.1580(2)
C53_6 C 0.74488(10) 0.19922(8) 0.2381(2)
H39_5 H 0.7388 0.2079 0.3059
C54_6 C 0.78611(10) 0.17680(8) 0.2171(2)
H40_4 H 0.8081 0.1707 0.2721
Zn8_4 Zn 0.27311(2) 0.43890(2) 0.49499(2)
N14_4 N 0.45347(8) 0.41329(6) 0.37346(18)
N3_6 N 0.91909(8) 0.22520(6) 0.21108(18)
C13_6 C 0.89435(10) 0.22358(8) 0.1210(2)
H9_6 H 0.9062 0.207 0.0694
C14_6 C 0.85254(10) 0.24495(7) 0.1007(2)
H10_6 H 0.8367 0.2436 0.0353
C15_6 C 0.83351(10) 0.26862(7) 0.1763(2)
C16_5 C 0.85924(10) 0.27018(8) 0.2692(2)
H11_5 H 0.8477 0.2859 0.3229
C17_6 C 0.90181(11) 0.24864(8) 0.2829(2)
H12_5 H 0.9195 0.2506 0.3461
C18_6 C 0.73422(10) 0.32667(8) 0.0467(2)
C19_6 C 0.77584(10) 0.30426(8) 0.0602(2)
H14_6 H 0.7963 0.2978 0.0031
C20_6 C 0.78752(10) 0.29125(8) 0.1580(2)
C21_6 C 0.75512(10) 0.30078(8) 0.2381(2)
H15_5 H 0.7612 0.2921 0.3059
C22_6 C 0.71389(10) 0.32320(8) 0.2171(2)
H16_4 H 0.6919 0.3293 0.2721
H18_6 H 0.0285 0.5588 0.511
N6_7 N 0.09058(8) 0.42703(7) 0.54609(19)
C28_7 C 0.04188(10) 0.41994(8) 0.5290(2)
H21_7 H 0.0317 0.3948 0.52
C29_7 C 0.00557(10) 0.44761(8) 0.5237(2)
C30_7 C 0.01898(10) 0.48484(8) 0.5372(2)
C31_7 C 0.07012(10) 0.49216(8) 0.5531(2)
H23_6 H 0.0815 0.517 0.5619
C32_7 C 0.10390(10) 0.46296(8) 0.5557(2)
H24_7 H 0.1385 0.4686 0.5648
O8_7 O 0.19886(6) 0.40371(5) 0.49685(16)
O9_7 O 0.12174(7) 0.35079(5) 0.46058(15)
O10_7 O 0.10295(11) 0.34185(8) 0.2971(2)
O11_7 O 0.09783(7) 0.36004(6) 0.68827(16)
O12_7 O 0.17470(7) 0.41632(5) 0.69962(15)
O13_7 O 0.20826(7) 0.42129(6) 0.85503(16)
O14_7 O 0.24116(7) 0.46623(5) 0.61510(15)
H25_7 H 0.2222 0.4519 0.6484
H26_7 H 0.2276 0.4871 0.6067
N7_7 N 0.23696(8) 0.42623(7) 0.36042(18)
N9_7 N 0.33091(8) 0.47520(6) 0.46108(18)
C33_7 C 0.19990(10) 0.40408(7) 0.3981(2)
C34_7 C 0.16827(10) 0.38388(8) 0.3305(2)
C35_5 C 0.17587(11) 0.38906(8) 0.2252(2)
H27_5 H 0.1555 0.3758 0.1778
C36_5 C 0.21241(11) 0.41312(9) 0.1881(2)
H28_5 H 0.2166 0.4171 0.1164
C37_7 C 0.24244(10) 0.43103(8) 0.2591(2)
H29_5 H 0.2679 0.4474 0.2351
C38_7 C 0.12796(11) 0.35711(8) 0.3664(2)
C39_7 C 0.09714(10) 0.36619(7) 0.7847(2)
C40_7 C 0.13169(9) 0.38845(7) 0.8422(2)
C41_7 C 0.12471(11) 0.39183(8) 0.9475(2)
H30_7 H 0.1482 0.4057 0.9868
C42_7 C 0.08413(10) 0.37543(8) 0.9966(2)
C43_7 C 0.05269(10) 0.35357(8) 0.9377(2)
H32_7 H 0.025 0.3417 0.9702
C44_7 C 0.17475(10) 0.40995(8) 0.7958(2)
C45_7 C 0.35565(10) 0.47358(8) 0.3710(2)
H33_7 H 0.3438 0.457 0.3194
C46_7 C 0.39746(10) 0.49495(7) 0.3507(2)
H34_7 H 0.4133 0.4936 0.2853
C47_7 C 0.41649(10) 0.51862(7) 0.4263(2)
C48_6 C 0.39076(10) 0.52018(8) 0.5192(2)
H35_6 H 0.4023 0.5359 0.5729
C49_7 C 0.34819(11) 0.49864(8) 0.5329(2)
H36_6 H 0.3305 0.5006 0.5961
C50_7 C 0.51578(10) 0.57667(8) 0.2967(2)
H37_5 H 0.523 0.5854 0.2294
C51_7 C 0.47416(10) 0.55426(8) 0.3102(2)
H38_7 H 0.4537 0.5478 0.2531
C52_7 C 0.46248(10) 0.54125(8) 0.4080(2)
C53_7 C 0.49488(10) 0.55078(8) 0.4881(2)
H39_6 H 0.4888 0.5421 0.5559
C54_7 C 0.53611(10) 0.57320(8) 0.4671(2)
H40_5 H 0.5581 0.5793 0.5221
Zn1_6 Zn 0.85469(2) 0.61894(2) 0.58537(2)
O1_7 O 0.80114(6) 0.59629(5) 0.49685(16)
O2_7 O 0.87826(7) 0.64921(5) 0.46058(15)
O3_7 O 0.89705(11) 0.65815(8) 0.2971(2)
O4_7 O 0.90217(7) 0.63996(6) 0.68827(16)
O5_7 O 0.82530(7) 0.58368(5) 0.69962(15)
O6_7 O 0.79174(7) 0.57871(6) 0.85503(16)
O7_7 O 0.75884(7) 0.53377(5) 0.61510(15)
H1_7 H 0.7778 0.5481 0.6484
H2_7 H 0.7724 0.5129 0.6067
N1_7 N 0.76304(8) 0.57377(7) 0.36042(18)
N2_6 N 0.94053(8) 0.65164(6) 0.83678(19)
N3_7 N 0.66909(8) 0.52480(6) 0.46108(18)
N5_7 N 0.90942(8) 0.57297(7) 0.54609(19)
C1_7 C 0.80010(10) 0.59592(7) 0.3981(2)
C2_7 C 0.83173(10) 0.61612(8) 0.3305(2)
C3_5 C 0.82413(11) 0.61094(8) 0.2252(2)
H3_5 H 0.8445 0.6242 0.1778
C4_5 C 0.78759(11) 0.58688(9) 0.1881(2)
H4_5 H 0.7834 0.5829 0.1164
C5_7 C 0.75756(10) 0.56897(8) 0.2591(2)
H5_5 H 0.7321 0.5526 0.2351
C6_7 C 0.87204(11) 0.64289(8) 0.3664(2)
C7_7 C 0.90286(10) 0.63381(7) 0.7847(2)
C8_7 C 0.86831(9) 0.61155(7) 0.8422(2)
C9_7 C 0.87529(11) 0.60817(8) 0.9475(2)
H6_7 H 0.8518 0.5943 0.9868
C10_7 C 0.91587(10) 0.62457(8) 0.9966(2)
C11_7 C 0.94731(10) 0.64643(8) 0.9377(2)
H8_7 H 0.975 0.6583 0.9702
C12_7 C 0.82525(10) 0.59005(8) 0.7958(2)
C13_7 C 0.64435(10) 0.52642(8) 0.3710(2)
H9_7 H 0.6562 0.543 0.3194
C14_7 C 0.60254(10) 0.50505(7) 0.3507(2)
H10_7 H 0.5867 0.5064 0.2853
C15_7 C 0.58351(10) 0.48138(7) 0.4263(2)
C16_6 C 0.60924(10) 0.47982(8) 0.5192(2)
H11_6 H 0.5977 0.4641 0.5729
C17_7 C 0.65181(11) 0.50136(8) 0.5329(2)
H12_6 H 0.6695 0.4994 0.5961
C18_7 C 0.48422(10) 0.42333(8) 0.2967(2)
H13_5 H 0.477 0.4146 0.2294
C19_7 C 0.52584(10) 0.44574(8) 0.3102(2)
H14_7 H 0.5463 0.4522 0.2531
C20_7 C 0.53752(10) 0.45875(8) 0.4080(2)
C21_7 C 0.50512(10) 0.44922(8) 0.4881(2)
H15_6 H 0.5112 0.4579 0.5559
C22_7 C 0.46389(10) 0.42680(8) 0.4671(2)
H16_5 H 0.4419 0.4207 0.5221
C23_7 C 0.95812(10) 0.58006(8) 0.5290(2)
H17_7 H 0.9683 0.6052 0.52
C24_7 C 0.99443(10) 0.55239(8) 0.5237(2)
C25_7 C 0.98102(10) 0.51516(8) 0.5372(2)
C26_7 C 0.92988(10) 0.50784(8) 0.5531(2)
H19_6 H 0.9185 0.483 0.5619
C27_7 C 0.89610(10) 0.53704(8) 0.5557(2)
H20_7 H 0.8615 0.5314 0.5648
H22_6 H 0.9715 0.4412 0.511
Zn7_6 Zn 0.97689(2) 0.68890(2) 0.74499(2)
N13_6 N 0.79653(8) 0.66329(6) 0.62346(18)
O6_8 O 0.04174(7) 0.67129(6) 0.10503(16)
C7_8 C 0.15286(10) 0.61619(7) 0.0347(2)
C8_8 C 0.11831(9) 0.63845(7) 0.0922(2)
C9_8 C 0.12529(11) 0.64183(8) 0.1975(2)
H6_8 H 0.1018 0.6557 0.2368
C10_8 C 0.16587(10) 0.62543(8) 0.2466(2)
H7_6 H 0.1718 0.6291 0.3179
C11_8 C 0.19731(10) 0.60357(8) 0.1877(2)
H8_8 H 0.225 0.5917 0.2202
C12_8 C 0.07525(10) 0.65995(8) 0.0458(2)
O13_8 O 0.45826(7) 0.82871(6) 0.10503(16)
C39_8 C 0.34714(10) 0.88381(7) 0.0347(2)
C40_8 C 0.38169(9) 0.86155(7) 0.0922(2)
C41_8 C 0.37471(11) 0.85817(8) 0.1975(2)
H30_8 H 0.3982 0.8443 0.2368
C42_8 C 0.33413(10) 0.87457(8) 0.2466(2)
H31_6 H 0.3282 0.8709 0.3179
C43_8 C 0.30269(10) 0.89643(8) 0.1877(2)
H32_8 H 0.275 0.9083 0.2202
C44_8 C 0.42475(10) 0.84005(8) 0.0458(2)
O1_8 O 0.05114(6) 0.65371(5) 0.74685(16)
O2_8 O 0.12826(7) 0.60079(5) 0.71058(15)
O3_8 O 0.14705(11) 0.59185(8) 0.5471(2)
O4_8 O 0.15217(7) 0.61004(6) 0.93827(16)
O5_8 O 0.07530(7) 0.66632(5) 0.94962(15)
O7_8 O 0.00884(7) 0.71623(5) 0.86510(15)
H1_8 H 0.0278 0.7019 0.8984
H2_8 H 0.0224 0.7371 0.8567
N1_8 N 0.01304(8) 0.67623(7) 0.61042(18)
N5_8 N 0.15942(8) 0.67703(7) 0.79609(19)
C1_8 C 0.05010(10) 0.65408(7) 0.6481(2)
C2_8 C 0.08173(10) 0.63388(8) 0.5805(2)
C3_6 C 0.07413(11) 0.63906(8) 0.4752(2)
H3_6 H 0.0945 0.6258 0.4278
C4_6 C 0.03759(11) 0.66312(9) 0.4381(2)
H4_6 H 0.0334 0.6671 0.3664
C5_8 C 0.00756(10) 0.68103(8) 0.5091(2)
C6_8 C 0.12204(11) 0.60711(8) 0.6164(2)
C23_8 C 0.20812(10) 0.66994(8) 0.7790(2)
H17_8 H 0.2183 0.6448 0.77
C24_8 C 0.24443(10) 0.69761(8) 0.7737(2)
H18_7 H 0.2785 0.6912 0.761
C25_8 C 0.23102(10) 0.73484(8) 0.7872(2)
C26_8 C 0.17988(10) 0.74216(8) 0.8031(2)
H19_7 H 0.1685 0.767 0.8119
C27_8 C 0.14610(10) 0.71296(8) 0.8057(2)
H20_8 H 0.1115 0.7186 0.8148
N6_8 N 0.34058(8) 0.82297(7) 0.79609(19)
C28_8 C 0.29188(10) 0.83006(8) 0.7790(2)
H21_8 H 0.2817 0.8552 0.77
C29_8 C 0.25557(10) 0.80239(8) 0.7737(2)
H22_7 H 0.2215 0.8088 0.761
C30_8 C 0.26898(10) 0.76516(8) 0.7872(2)
C31_8 C 0.32012(10) 0.75784(8) 0.8031(2)
H23_7 H 0.3315 0.733 0.8119
C32_8 C 0.35390(10) 0.78704(8) 0.8057(2)
H24_8 H 0.3885 0.7814 0.8148
O8_8 O 0.44886(6) 0.84629(5) 0.74685(16)
O9_8 O 0.37174(7) 0.89921(5) 0.71058(15)
O10_8 O 0.35295(11) 0.90815(8) 0.5471(2)
O11_8 O 0.34783(7) 0.88996(6) 0.93827(16)
O12_8 O 0.42470(7) 0.83368(5) 0.94962(15)
O14_8 O 0.49116(7) 0.78377(5) 0.86510(15)
H25_8 H 0.4722 0.7981 0.8984
H26_8 H 0.4776 0.7629 0.8567
N7_8 N 0.48696(8) 0.82377(7) 0.61042(18)
N9_8 N 0.58091(8) 0.77480(6) 0.71108(18)
C33_8 C 0.44990(10) 0.84592(7) 0.6481(2)
C34_8 C 0.41827(10) 0.86612(8) 0.5805(2)
C35_6 C 0.42587(11) 0.86094(8) 0.4752(2)
H27_6 H 0.4055 0.8742 0.4278
C36_6 C 0.46241(11) 0.83688(9) 0.4381(2)
H28_6 H 0.4666 0.8329 0.3664
C37_8 C 0.49244(10) 0.81897(8) 0.5091(2)
H29_6 H 0.5179 0.8026 0.4851
C38_8 C 0.37796(11) 0.89289(8) 0.6164(2)
C45_8 C 0.60565(10) 0.77642(8) 0.6210(2)
H33_8 H 0.5938 0.793 0.5694
C46_8 C 0.64746(10) 0.75505(7) 0.6007(2)
H34_8 H 0.6633 0.7564 0.5353
C47_8 C 0.66649(10) 0.73138(7) 0.6763(2)
C48_7 C 0.64076(10) 0.72982(8) 0.7692(2)
H35_7 H 0.6523 0.7141 0.8229
C49_8 C 0.59819(11) 0.75136(8) 0.7829(2)
H36_7 H 0.5805 0.7494 0.8461
C50_8 C 0.76578(10) 0.67333(8) 0.5467(2)
H37_6 H 0.773 0.6646 0.4794
C51_8 C 0.72416(10) 0.69574(8) 0.5602(2)
H38_8 H 0.7037 0.7022 0.5031
C52_8 C 0.71248(10) 0.70875(8) 0.6580(2)
C53_8 C 0.74488(10) 0.69922(8) 0.7381(2)
H39_7 H 0.7388 0.7079 0.8059
C54_8 C 0.78611(10) 0.67680(8) 0.7171(2)
H40_6 H 0.8081 0.6707 0.7721
N3_8 N 0.91909(8) 0.72520(6) 0.71108(18)
H5_6 H 0.9821 0.6974 0.4851
C13_8 C 0.89435(10) 0.72358(8) 0.6210(2)
H9_8 H 0.9062 0.707 0.5694
C14_8 C 0.85254(10) 0.74495(7) 0.6007(2)
H10_8 H 0.8367 0.7436 0.5353
C15_8 C 0.83351(10) 0.76862(7) 0.6763(2)
C16_7 C 0.85924(10) 0.77018(8) 0.7692(2)
H11_7 H 0.8477 0.7859 0.8229
C17_8 C 0.90181(11) 0.74864(8) 0.7829(2)
H12_7 H 0.9195 0.7506 0.8461
C18_8 C 0.73422(10) 0.82667(8) 0.5467(2)
H13_6 H 0.727 0.8354 0.4794
C19_8 C 0.77584(10) 0.80426(8) 0.5602(2)
H14_8 H 0.7963 0.7978 0.5031
C20_8 C 0.78752(10) 0.79125(8) 0.6580(2)
C21_8 C 0.75512(10) 0.80078(8) 0.7381(2)
H15_7 H 0.7612 0.7921 0.8059
C22_8 C 0.71389(10) 0.82320(8) 0.7171(2)
H16_6 H 0.6919 0.8293 0.7721
H7_7 H 0.4218 0.1209 0.0679
H31_7 H 0.5782 0.8791 0.0679
H40_7 H 0.0581 0.5793 0.0221
H16_7 H 0.9419 0.4207 0.0221
H29_7 H 0.0179 0.8026 0.9851
H37_7 H 0.273 0.6646 0.9794
C3_7 C 0.57413(11) 0.63906(8) 0.9752(2)
H3_7 H 0.5945 0.6258 0.9278
C4_7 C 0.53759(11) 0.66312(9) 0.9381(2)
H4_7 H 0.5334 0.6671 0.8664
H5_7 H 0.4821 0.6974 0.9851
H13_7 H 0.227 0.8354 0.9794
C35_7 C 0.92587(11) 0.86094(8) 0.9752(2)
H27_7 H 0.9055 0.8742 0.9278
C36_7 C 0.96241(11) 0.83688(9) 0.9381(2)
H28_7 H 0.9666 0.8329 0.8664
H18_8 H 0.0285 0.0588 0.011
H23_8 H 0.0815 0.017 0.0619
C48_8 C 0.39076(10) 0.02018(8) 0.0192(2)
H35_8 H 0.4023 0.0359 0.0729
H36_8 H 0.3305 0.0006 0.0961
H39_8 H 0.4888 0.0421 0.0559
H40_8 H 0.5581 0.0793 0.0221
C16_8 C 0.60924(10) 0.97982(8) 0.0192(2)
H11_8 H 0.5977 0.9641 0.0729
H12_8 H 0.6695 0.9994 0.0961
H15_8 H 0.5112 0.9579 0.0559
H16_8 H 0.4419 0.9207 0.0221
H19_8 H 0.9185 0.983 0.0619
H22_8 H 0.9715 0.9412 0.011
C3_8 C 0.07413(11) 0.13906(8) 0.9752(2)
H3_8 H 0.0945 0.1258 0.9278
C4_8 C 0.03759(11) 0.16312(9) 0.9381(2)
H4_8 H 0.0334 0.1671 0.8664
C35_8 C 0.42587(11) 0.36094(8) 0.9752(2)
H27_8 H 0.4055 0.3742 0.9278
C36_8 C 0.46241(11) 0.33688(9) 0.9381(2)
H28_8 H 0.4666 0.3329 0.8664
H29_8 H 0.5179 0.3026 0.9851
H37_8 H 0.773 0.1646 0.9794
H5_8 H 0.9821 0.1974 0.9851
H13_8 H 0.727 0.3354 0.9794
H31_8 H 0.0782 0.3791 0.0679
H7_8 H 0.9218 0.6209 0.0679
loop_
_geom_bond_atom_site_label_1
_geom_bond_atom_site_label_2
_geom_bond_site_symmetry_1
_geom_bond_site_symmetry_2
N10 C50 1_555 1_555
C50 H37 1_555 1_555
C54 N10 1_555 1_555
H40 C54 1_555 1_555
Zn6 N10 1_555 1_555
Zn1 O1 1_555 1_555
Zn2 O1 1_555 1_555
O1 C1 1_555 1_555
O2 Zn1 1_555 1_555
O3 C6 1_555 1_555
O4 Zn1 1_555 1_555
O5 Zn1 1_555 1_555
O6 C12 1_555 1_555
O7 Zn2 1_555 1_555
H1 O7 1_555 1_555
H2 O7 1_555 1_555
N1 Zn2 1_555 1_555
N2 C7 1_555 1_555
N3 Zn2 1_555 1_555
N5 Zn1 1_555 1_555
C1 N1 1_555 1_555
C2 C1 1_555 1_555
C3 C2 1_555 1_555
H3 C3 1_555 1_555
C4 C3 1_555 1_555
H4 C4 1_555 1_555
C5 N1 1_555 1_555
H5 C5 1_555 1_555
C6 O2 1_555 1_555
C7 O4 1_555 1_555
C8 C7 1_555 1_555
C9 C8 1_555 1_555
H6 C9 1_555 1_555
C10 C9 1_555 1_555
C11 N2 1_555 1_555
H8 C11 1_555 1_555
C12 O5 1_555 1_555
C13 N3 1_555 1_555
H9 C13 1_555 1_555
C14 C13 1_555 1_555
H10 C14 1_555 1_555
C17 N3 1_555 1_555
C23 N5 1_555 1_555
H17 C23 1_555 1_555
C24 C23 1_555 1_555
H18 C24 1_555 1_555
C25 C24 1_555 1_555
C26 C25 1_555 1_555
C27 N5 1_555 1_555
H20 C27 1_555 1_555
C48 C47 1_555 1_555
H35 C48 1_555 1_555
H38 C51 1_555 1_555
C52 C47 1_555 1_555
C53 C52 1_555 1_555
H39 C53 1_555 1_555
Zn7 N2 1_555 1_555
N12 Zn2 1_555 1_555
N13 Zn1 1_555 1_555
C2 C6 1_555 1_555
C4 C5 1_555 1_555
C8 C12 1_555 1_555
C10 C11 1_555 1_555
C26 C27 1_555 1_555
C51 C52 1_555 1_555
C16 C15 1_555 1_555
H11 C16 1_555 1_555
H14 C19 1_555 1_555
C20 C15 1_555 1_555
C21 C20 1_555 1_555
H15 C21 1_555 1_555
N6 C28 1_555 1_555
C28 H21 1_555 1_555
C29 C28 1_555 1_555
H22 C29 1_555 1_555
C31 C30 1_555 1_555
C32 N6 1_555 1_555
H24 C32 1_555 1_555
Zn3 N6 1_555 1_555
Zn4 O8 1_555 1_555
O8 Zn3 1_555 1_555
O9 Zn3 1_555 1_555
O10 C38 1_555 1_555
O11 Zn3 1_555 1_555
O12 Zn3 1_555 1_555
O13 C44 1_555 1_555
O14 Zn4 1_555 1_555
H25 O14 1_555 1_555
H26 O14 1_555 1_555
N7 Zn4 1_555 1_555
N8 C39 1_555 1_555
N9 Zn4 1_555 1_555
C33 O8 1_555 1_555
C34 C33 1_555 1_555
C35 C34 1_555 1_555
H27 C35 1_555 1_555
C36 C35 1_555 1_555
H28 C36 1_555 1_555
C37 N7 1_555 1_555
H29 C37 1_555 1_555
C38 O9 1_555 1_555
C39 O11 1_555 1_555
C40 C39 1_555 1_555
C41 C40 1_555 1_555
H30 C41 1_555 1_555
C42 C41 1_555 1_555
C43 N8 1_555 1_555
H32 C43 1_555 1_555
C44 O12 1_555 1_555
C45 N9 1_555 1_555
H33 C45 1_555 1_555
C46 C45 1_555 1_555
H34 C46 1_555 1_555
C49 N9 1_555 1_555
Zn8 N8 1_555 1_555
N11 Zn4 1_555 1_555
N14 Zn3 1_555 1_555
C19 C20 1_555 1_555
C29 C30 1_555 1_555
C31 C32 1_555 1_555
N7 C33 1_555 1_555
C34 C38 1_555 1_555
C36 C37 1_555 1_555
C40 C44 1_555 1_555
C42 C43 1_555 1_555
N4 C18 1_555 1_555
C18 H13 1_555 1_555
C22 N4 1_555 1_555
H16 C22 1_555 1_555
Zn5 N4 1_555 1_555
N9_2 Zn4_2 1_555 1_555
N13 C50_2 1_555 1_555
C45_2 N9_2 1_555 1_555
H33_2 C45_2 1_555 1_555
C46_2 C45_2 1_555 1_555
H34_2 C46_2 1_555 1_555
C47_2 C46_2 1_555 1_555
C48_2 C47_2 1_555 1_555
H35_2 C48_2 1_555 1_555
C49_2 N9_2 1_555 1_555
H36_2 C49_2 1_555 1_555
C50_2 H37_2 1_555 1_555
C51_2 C50_2 1_555 1_555
H38_2 C51_2 1_555 1_555
C52_2 C47_2 1_555 1_555
C53_2 C52_2 1_555 1_555
H39_2 C53_2 1_555 1_555
C54_2 N13 1_555 1_555
H40_2 C54_2 1_555 1_555
N11_2 Zn4_2 1_555 1_555
C48_2 C49_2 1_555 1_555
C51_2 C52_2 1_555 1_555
C53_2 C54_2 1_555 1_555
O6_2 C12_2 1_555 1_555
N2_2 C7_2 1_555 1_555
C8_2 C7_2 1_555 1_555
C9_2 C8_2 1_555 1_555
H6_2 C9_2 1_555 1_555
C10_2 C9_2 1_555 1_555
H7 C10_2 1_555 1_555
C11_2 N2_2 1_555 1_555
H8_2 C11_2 1_555 1_555
O13_2 C44_2 1_555 1_555
N8_2 C39_2 1_555 1_555
C40_2 C39_2 1_555 1_555
C41_2 C40_2 1_555 1_555
H30_2 C41_2 1_555 1_555
C42_2 C41_2 1_555 1_555
H31 C42_2 1_555 1_555
C43_2 N8_2 1_555 1_555
H32_2 C43_2 1_555 1_555
C8_2 C12_2 1_555 1_555
C10_2 C11_2 1_555 1_555
C40_2 C44_2 1_555 1_555
C42_2 C43_2 1_555 1_555
Zn1_2 O1_2 1_555 1_555
Zn7 O1_2 1_555 1_555
O1_2 C1_2 1_555 1_555
O2_2 Zn1_2 1_555 1_555
O3_2 C6_2 1_555 1_555
O4_2 Zn1_2 1_555 1_555
O5_2 Zn1_2 1_555 1_555
O7_2 Zn7 1_555 1_555
H1_2 O7_2 1_555 1_555
H2_2 O7_2 1_555 1_555
N1_2 Zn7 1_555 1_555
N3_2 Zn7 1_555 1_555
N4_2 C18_2 1_555 1_555
N5_2 Zn1_2 1_555 1_555
C1_2 N1_2 1_555 1_555
C2_2 C1_2 1_555 1_555
C3_2 C2_2 1_555 1_555
H3_2 C3_2 1_555 1_555
C4_2 C3_2 1_555 1_555
H4_2 C4_2 1_555 1_555
C5_2 N1_2 1_555 1_555
H5_2 C5_2 1_555 1_555
C6_2 O2_2 1_555 1_555
C13_2 N3_2 1_555 1_555
H9_2 C13_2 1_555 1_555
C14_2 C13_2 1_555 1_555
H10_2 C14_2 1_555 1_555
C15_2 C14_2 1_555 1_555
C16_2 C15_2 1_555 1_555
H11_2 C16_2 1_555 1_555
C17_2 N3_2 1_555 1_555
H12_2 C17_2 1_555 1_555
C18_2 H13_2 1_555 1_555
C19_2 C18_2 1_555 1_555
H14_2 C19_2 1_555 1_555
C20_2 C15_2 1_555 1_555
C21_2 C20_2 1_555 1_555
H15_2 C21_2 1_555 1_555
C22_2 N4_2 1_555 1_555
H16_2 C22_2 1_555 1_555
C23_2 N5_2 1_555 1_555
H17_2 C23_2 1_555 1_555
C24_2 C23_2 1_555 1_555
H18_2 C24_2 1_555 1_555
C25_2 C24_2 1_555 1_555
C26_2 C25_2 1_555 1_555
H19_2 C26_2 1_555 1_555
C27_2 N5_2 1_555 1_555
H20_2 C27_2 1_555 1_555
N6_2 C28_2 1_555 1_555
C28_2 H21_2 1_555 1_555
C29_2 C28_2 1_555 1_555
H22_2 C29_2 1_555 1_555
C30_2 C25_2 1_555 1_555
C31_2 C30_2 1_555 1_555
H23_2 C31_2 1_555 1_555
C32_2 N6_2 1_555 1_555
H24_2 C32_2 1_555 1_555
Zn3_2 N6_2 1_555 1_555
O8_2 Zn3_2 1_555 1_555
O9_2 Zn3_2 1_555 1_555
O10_2 C38_2 1_555 1_555
O11_2 Zn3_2 1_555 1_555
O12_2 Zn3_2 1_555 1_555
H25_2 O14_2 1_555 1_555
H26_2 O14_2 1_555 1_555
C33_2 O8_2 1_555 1_555
C34_2 C33_2 1_555 1_555
C35_2 C34_2 1_555 1_555
H27_2 C35_2 1_555 1_555
C36_2 C35_2 1_555 1_555
H28_2 C36_2 1_555 1_555
C37_2 N7_2 1_555 1_555
C38_2 O9_2 1_555 1_555
Zn5_2 N4_2 1_555 1_555
N13_2 Zn1_2 1_555 1_555
N14_2 Zn3_2 1_555 1_555
C2_2 C6_2 1_555 1_555
C4_2 C5_2 1_555 1_555
C16_2 C17_2 1_555 1_555
C19_2 C20_2 1_555 1_555
C21_2 C22_2 1_555 1_555
C26_2 C27_2 1_555 1_555
C29_2 C30_2 1_555 1_555
C31_2 C32_2 1_555 1_555
N7_2 C33_2 1_555 1_555
C34_2 C38_2 1_555 1_555
C36_2 C37_2 1_555 1_555
N10_2 C50_3 1_555 1_555
C50_3 H37_3 1_555 1_555
C54_3 N10_2 1_555 1_555
Zn6_2 N10_2 1_555 1_555
O4_3 Zn1_3 1_555 1_555
O5_3 Zn1_3 1_555 1_555
O6_3 C12_3 1_555 1_555
H1_3 O7_3 1_555 1_555
H2_3 O7_3 1_555 1_555
N2_3 C7_3 1_555 1_555
N5_3 Zn1_3 1_555 1_555
C7_3 O4_3 1_555 1_555
C8_3 C7_3 1_555 1_555
C9_3 C8_3 1_555 1_555
H6_3 C9_3 1_555 1_555
C10_3 C9_3 1_555 1_555
H7_2 C10_3 1_555 1_555
C11_3 N2_3 1_555 1_555
H8_3 C11_3 1_555 1_555
C12_3 O5_3 1_555 1_555
H11_3 C16_3 1_555 1_555
H12_3 C17_3 1_555 1_555
C23_3 N5_3 1_555 1_555
H17_3 C23_3 1_555 1_555
C24_3 C23_3 1_555 1_555
H18_3 C24_3 1_555 1_555
C25_3 C24_3 1_555 1_555
C26_3 C25_3 1_555 1_555
H19_3 C26_3 1_555 1_555
C27_3 N5_3 1_555 1_555
H20_3 C27_3 1_555 1_555
N6_3 C28_3 1_555 1_555
C28_3 H21_3 1_555 1_555
C29_3 C28_3 1_555 1_555
H22_3 C29_3 1_555 1_555
C30_3 C25_3 1_555 1_555
C31_3 C30_3 1_555 1_555
H23_3 C31_3 1_555 1_555
C32_3 N6_3 1_555 1_555
H24_3 C32_3 1_555 1_555
Zn3_3 N6_3 1_555 1_555
O11_3 Zn3_3 1_555 1_555
O12_3 Zn3_3 1_555 1_555
O13_3 C44_3 1_555 1_555
H25_3 O14_3 1_555 1_555
H26_3 O14_3 1_555 1_555
N8_3 C39_3 1_555 1_555
C39_3 O11_3 1_555 1_555
C40_3 C39_3 1_555 1_555
C41_3 C40_3 1_555 1_555
H30_3 C41_3 1_555 1_555
C42_3 C41_3 1_555 1_555
H31_2 C42_3 1_555 1_555
C43_3 N8_3 1_555 1_555
H32_3 C43_3 1_555 1_555
C44_3 O12_3 1_555 1_555
H35_3 C48_3 1_555 1_555
H36_3 C49_3 1_555 1_555
Zn7_3 N2_3 1_555 1_555
Zn8_3 N8_3 1_555 1_555
N13_3 Zn1_3 1_555 1_555
N14_3 Zn3_3 1_555 1_555
C8_3 C12_3 1_555 1_555
C10_3 C11_3 1_555 1_555
C16_3 C17_3 1_555 1_555
C26_3 C27_3 1_555 1_555
C29_3 C30_3 1_555 1_555
C31_3 C32_3 1_555 1_555
C40_3 C44_3 1_555 1_555
C42_3 C43_3 1_555 1_555
C48_3 C49_3 1_555 1_555
Zn2_2 O1_3 1_555 1_555
O1_3 C1_3 1_555 1_555
O3_3 C6_3 1_555 1_555
N1_3 Zn2_2 1_555 1_555
N3_3 Zn2_2 1_555 1_555
C1_3 N1_3 1_555 1_555
C2_3 C1_3 1_555 1_555
C3_3 C2_3 1_555 1_555
H3_3 C3_3 1_555 1_555
C4_3 C3_3 1_555 1_555
H4_3 C4_3 1_555 1_555
C5_3 N1_3 1_555 1_555
H5_3 C5_3 1_555 1_555
C6_3 O2_3 1_555 1_555
C13_3 N3_3 1_555 1_555
H9_3 C13_3 1_555 1_555
C14_3 C13_3 1_555 1_555
H10_3 C14_3 1_555 1_555
C15_3 C14_3 1_555 1_555
H14_3 C19_3 1_555 1_555
C20_3 C15_3 1_555 1_555
C21_3 C20_3 1_555 1_555
Zn8_2 O8_3 1_555 1_555
O10_3 C38_3 1_555 1_555
N7_3 Zn8_2 1_555 1_555
N9_3 Zn8_2 1_555 1_555
C33_3 O8_3 1_555 1_555
C34_3 C33_3 1_555 1_555
C35_3 C34_3 1_555 1_555
H27_3 C35_3 1_555 1_555
C36_3 C35_3 1_555 1_555
H28_3 C36_3 1_555 1_555
C37_3 N7_3 1_555 1_555
H29_3 C37_3 1_555 1_555
C38_3 O9_3 1_555 1_555
C45_3 N9_3 1_555 1_555
H33_3 C45_3 1_555 1_555
C46_3 C45_3 1_555 1_555
H34_3 C46_3 1_555 1_555
C47_3 C46_3 1_555 1_555
H38_3 C51_3 1_555 1_555
C52_3 C47_3 1_555 1_555
C53_3 C52_3 1_555 1_555
C2_3 C6_3 1_555 1_555
C4_3 C5_3 1_555 1_555
C19_3 C20_3 1_555 1_555
N7_3 C33_3 1_555 1_555
C34_3 C38_3 1_555 1_555
C36_3 C37_3 1_555 1_555
C51_3 C52_3 1_555 1_555
N14_2 C18_3 1_555 1_555
C18_3 H13_3 1_555 1_555
C22_3 N14_2 1_555 1_555
N9_4 Zn4_3 1_555 1_555
N13_3 C50_4 1_555 1_555
C45_4 N9_4 1_555 1_555
H33_4 C45_4 1_555 1_555
C46_4 C45_4 1_555 1_555
H34_4 C46_4 1_555 1_555
C47_4 C46_4 1_555 1_555
C48_4 C47_4 1_555 1_555
H35_4 C48_4 1_555 1_555
C49_4 N9_4 1_555 1_555
H36_4 C49_4 1_555 1_555
C51_4 C50_4 1_555 1_555
H38_4 C51_4 1_555 1_555
C52_4 C47_4 1_555 1_555
C53_4 C52_4 1_555 1_555
H39_4 C53_4 1_555 1_555
C54_4 N13_3 1_555 1_555
H40_3 C54_4 1_555 1_555
N11_3 Zn4_3 1_555 1_555
C48_4 C49_4 1_555 1_555
C51_4 C52_4 1_555 1_555
C53_4 C54_4 1_555 1_555
Zn1_4 O1_4 1_555 1_555
Zn7_3 O1_4 1_555 1_555
O1_4 C1_4 1_555 1_555
O2_4 Zn1_4 1_555 1_555
O3_4 C6_4 1_555 1_555
O4_4 Zn1_4 1_555 1_555
O5_4 Zn1_4 1_555 1_555
O6_4 C12_4 1_555 1_555
O7_4 Zn7_3 1_555 1_555
H1_4 O7_4 1_555 1_555
H2_4 O7_4 1_555 1_555
N1_4 Zn7_3 1_555 1_555
N2_4 C7_4 1_555 1_555
N3_4 Zn7_3 1_555 1_555
N4_3 C18_4 1_555 1_555
N5_4 Zn1_4 1_555 1_555
C1_4 N1_4 1_555 1_555
C2_4 C1_4 1_555 1_555
C5_4 N1_4 1_555 1_555
C6_4 O2_4 1_555 1_555
C7_4 O4_4 1_555 1_555
C8_4 C7_4 1_555 1_555
C9_4 C8_4 1_555 1_555
H6_4 C9_4 1_555 1_555
C10_4 C9_4 1_555 1_555
H7_3 C10_4 1_555 1_555
C11_4 N2_4 1_555 1_555
H8_4 C11_4 1_555 1_555
C12_4 O5_4 1_555 1_555
C13_4 N3_4 1_555 1_555
H9_4 C13_4 1_555 1_555
C14_4 C13_4 1_555 1_555
H10_4 C14_4 1_555 1_555
C15_4 C14_4 1_555 1_555
C16_4 C15_4 1_555 1_555
H11_4 C16_4 1_555 1_555
C17_4 N3_4 1_555 1_555
H12_4 C17_4 1_555 1_555
C19_4 C18_4 1_555 1_555
H14_4 C19_4 1_555 1_555
C20_4 C15_4 1_555 1_555
C21_4 C20_4 1_555 1_555
H15_4 C21_4 1_555 1_555
C22_4 N4_3 1_555 1_555
H16_3 C22_4 1_555 1_555
C23_4 N5_4 1_555 1_555
H17_4 C23_4 1_555 1_555
C24_4 C23_4 1_555 1_555
H18_4 C24_4 1_555 1_555
C25_4 C24_4 1_555 1_555
C26_4 C25_4 1_555 1_555
H19_4 C26_4 1_555 1_555
C27_4 N5_4 1_555 1_555
H20_4 C27_4 1_555 1_555
N6_4 C28_4 1_555 1_555
C28_4 H21_4 1_555 1_555
C29_4 C28_4 1_555 1_555
H22_4 C29_4 1_555 1_555
C30_4 C25_4 1_555 1_555
C31_4 C30_4 1_555 1_555
H23_4 C31_4 1_555 1_555
C32_4 N6_4 1_555 1_555
H24_4 C32_4 1_555 1_555
Zn5 N6_4 1_555 1_555
O8_4 Zn5 1_555 1_555
O9_4 Zn5 1_555 1_555
O10_4 C38_4 1_555 1_555
O11_4 Zn5 1_555 1_555
O12_4 Zn5 1_555 1_555
O13_4 C44_4 1_555 1_555
H25_4 O14_4 1_555 1_555
H26_4 O14_4 1_555 1_555
N11 C39_4 1_555 1_555
C33_4 O8_4 1_555 1_555
C34_4 C33_4 1_555 1_555
C37_4 N7_4 1_555 1_555
C38_4 O9_4 1_555 1_555
C39_4 O11_4 1_555 1_555
C40_4 C39_4 1_555 1_555
C41_4 C40_4 1_555 1_555
H30_4 C41_4 1_555 1_555
C42_4 C41_4 1_555 1_555
H31_3 C42_4 1_555 1_555
C43_4 N11 1_555 1_555
H32_4 C43_4 1_555 1_555
C44_4 O12_4 1_555 1_555
Zn5_3 N4_3 1_555 1_555
Zn7_4 N2_4 1_555 1_555
N13_4 Zn1_4 1_555 1_555
C2_4 C6_4 1_555 1_555
C8_4 C12_4 1_555 1_555
C10_4 C11_4 1_555 1_555
C16_4 C17_4 1_555 1_555
C19_4 C20_4 1_555 1_555
C21_4 C22_4 1_555 1_555
C26_4 C27_4 1_555 1_555
C29_4 C30_4 1_555 1_555
C31_4 C32_4 1_555 1_555
N7_4 C33_4 1_555 1_555
C34_4 C38_4 1_555 1_555
C40_4 C44_4 1_555 1_555
C42_4 C43_4 1_555 1_555
N13_2 C50_5 1_555 1_555
C50_5 H37_4 1_555 1_555
C51_5 C50_5 1_555 1_555
H38_5 C51_5 1_555 1_555
C52_5 C47_5 1_555 1_555
C53_5 C52_5 1_555 1_555
C54_5 N13_2 1_555 1_555
C51_5 C52_5 1_555 1_555
C53_5 C54_5 1_555 1_555
N6_5 C28_5 1_555 1_555
C28_5 H21_5 1_555 1_555
C29_5 C28_5 1_555 1_555
C31_5 C30_5 1_555 1_555
C32_5 N6_5 1_555 1_555
H24_5 C32_5 1_555 1_555
Zn5_3 N6_5 1_555 1_555
O11_5 Zn5_3 1_555 1_555
O12_5 Zn5_3 1_555 1_555
O13_5 C44_5 1_555 1_555
H25_5 O14_5 1_555 1_555
H26_5 O14_5 1_555 1_555
N11_3 C39_5 1_555 1_555
C39_5 O11_5 1_555 1_555
C40_5 C39_5 1_555 1_555
C41_5 C40_5 1_555 1_555
H30_5 C41_5 1_555 1_555
C42_5 C41_5 1_555 1_555
H31_4 C42_5 1_555 1_555
C43_5 N11_3 1_555 1_555
H32_5 C43_5 1_555 1_555
C44_5 O12_5 1_555 1_555
C29_5 C30_5 1_555 1_555
C31_5 C32_5 1_555 1_555
C40_5 C44_5 1_555 1_555
C42_5 C43_5 1_555 1_555
Zn4_4 O8_5 1_555 1_555
O10_5 C38_5 1_555 1_555
N7_5 Zn4_4 1_555 1_555
N9_5 Zn4_4 1_555 1_555
C33_5 O8_5 1_555 1_555
C34_5 C33_5 1_555 1_555
C35_4 C34_5 1_555 1_555
H27_4 C35_4 1_555 1_555
C36_4 C35_4 1_555 1_555
H28_4 C36_4 1_555 1_555
C37_5 N7_5 1_555 1_555
H29_4 C37_5 1_555 1_555
C38_5 O9_5 1_555 1_555
C45_5 N9_5 1_555 1_555
H33_5 C45_5 1_555 1_555
C46_5 C45_5 1_555 1_555
H34_5 C46_5 1_555 1_555
N7_5 C33_5 1_555 1_555
C34_5 C38_5 1_555 1_555
C36_4 C37_5 1_555 1_555
O4_5 Zn1_5 1_555 1_555
O5_5 Zn1_5 1_555 1_555
O6_5 C12_5 1_555 1_555
H1_5 O7_5 1_555 1_555
H2_5 O7_5 1_555 1_555
N2_5 C7_5 1_555 1_555
N5_5 Zn1_5 1_555 1_555
C7_5 O4_5 1_555 1_555
C8_5 C7_5 1_555 1_555
C9_5 C8_5 1_555 1_555
H6_5 C9_5 1_555 1_555
C10_5 C9_5 1_555 1_555
H7_4 C10_5 1_555 1_555
C11_5 N2_5 1_555 1_555
H8_5 C11_5 1_555 1_555
C12_5 O5_5 1_555 1_555
C23_5 N5_5 1_555 1_555
H17_5 C23_5 1_555 1_555
C24_5 C23_5 1_555 1_555
C25_5 C24_5 1_555 1_555
C26_5 C25_5 1_555 1_555
C27_5 N5_5 1_555 1_555
H20_5 C27_5 1_555 1_555
Zn7_5 N2_5 1_555 1_555
N13_5 Zn1_5 1_555 1_555
C8_5 C12_5 1_555 1_555
C10_5 C11_5 1_555 1_555
C26_5 C27_5 1_555 1_555
Zn7_2 O1_5 1_555 1_555
O1_5 C1_5 1_555 1_555
O3_5 C6_5 1_555 1_555
N1_5 Zn7_2 1_555 1_555
N3_5 Zn7_2 1_555 1_555
C1_5 N1_5 1_555 1_555
C2_5 C1_5 1_555 1_555
C3_4 C2_5 1_555 1_555
H3_4 C3_4 1_555 1_555
C4_4 C3_4 1_555 1_555
H4_4 C4_4 1_555 1_555
C5_5 N1_5 1_555 1_555
H5_4 C5_5 1_555 1_555
C6_5 O2_5 1_555 1_555
C13_5 N3_5 1_555 1_555
H9_5 C13_5 1_555 1_555
C14_5 C13_5 1_555 1_555
H10_5 C14_5 1_555 1_555
C2_5 C6_5 1_555 1_555
C4_4 C5_5 1_555 1_555
N4_4 C18_5 1_555 1_555
C18_5 H13_4 1_555 1_555
C19_5 C18_5 1_555 1_555
H14_5 C19_5 1_555 1_555
C20_5 C15_5 1_555 1_555
C21_5 C20_5 1_555 1_555
C22_5 N4_4 1_555 1_555
Zn5_4 N4_4 1_555 1_555
C19_5 C20_5 1_555 1_555
C21_5 C22_5 1_555 1_555
Zn6 O1_6 1_555 1_555
O1_6 C1_6 1_555 1_555
O2_6 Zn6 1_555 1_555
O3_6 C6_6 1_555 1_555
O4_6 Zn6 1_555 1_555
O5_6 Zn6 1_555 1_555
O6_6 C12_6 1_555 1_555
H1_6 O7_6 1_555 1_555
H2_6 O7_6 1_555 1_555
N12 C7_6 1_555 1_555
N5_6 Zn6 1_555 1_555
C1_6 N1_6 1_555 1_555
C2_6 C1_6 1_555 1_555
C5_6 N1_6 1_555 1_555
C6_6 O2_6 1_555 1_555
C7_6 O4_6 1_555 1_555
C8_6 C7_6 1_555 1_555
C9_6 C8_6 1_555 1_555
H6_6 C9_6 1_555 1_555
C10_6 C9_6 1_555 1_555
H7_5 C10_6 1_555 1_555
C11_6 N12 1_555 1_555
H8_6 C11_6 1_555 1_555
C12_6 O5_6 1_555 1_555
C23_6 N5_6 1_555 1_555
H17_6 C23_6 1_555 1_555
C24_6 C23_6 1_555 1_555
H18_5 C24_6 1_555 1_555
C25_6 C24_6 1_555 1_555
C26_6 C25_6 1_555 1_555
H19_5 C26_6 1_555 1_555
C27_6 N5_6 1_555 1_555
H20_6 C27_6 1_555 1_555
N6_6 C28_6 1_555 1_555
C28_6 H21_6 1_555 1_555
C29_6 C28_6 1_555 1_555
H22_5 C29_6 1_555 1_555
C30_6 C25_6 1_555 1_555
C31_6 C30_6 1_555 1_555
H23_5 C31_6 1_555 1_555
C32_6 N6_6 1_555 1_555
H24_6 C32_6 1_555 1_555
Zn3_4 N6_6 1_555 1_555
Zn8_3 O8_6 1_555 1_555
O8_6 Zn3_4 1_555 1_555
O9_6 Zn3_4 1_555 1_555
O10_6 C38_6 1_555 1_555
O11_6 Zn3_4 1_555 1_555
O12_6 Zn3_4 1_555 1_555
O13_6 C44_6 1_555 1_555
O14_6 Zn8_3 1_555 1_555
H25_6 O14_6 1_555 1_555
H26_6 O14_6 1_555 1_555
N7_6 Zn8_3 1_555 1_555
N8_4 C39_6 1_555 1_555
N9_6 Zn8_3 1_555 1_555
N13_5 C50_6 1_555 1_555
C33_6 O8_6 1_555 1_555
C34_6 C33_6 1_555 1_555
C37_6 N7_6 1_555 1_555
C38_6 O9_6 1_555 1_555
C39_6 O11_6 1_555 1_555
C40_6 C39_6 1_555 1_555
C41_6 C40_6 1_555 1_555
H30_6 C41_6 1_555 1_555
C42_6 C41_6 1_555 1_555
H31_5 C42_6 1_555 1_555
C43_6 N8_4 1_555 1_555
H32_6 C43_6 1_555 1_555
C44_6 O12_6 1_555 1_555
C45_6 N9_6 1_555 1_555
H33_6 C45_6 1_555 1_555
C46_6 C45_6 1_555 1_555
H34_6 C46_6 1_555 1_555
C47_6 C46_6 1_555 1_555
C48_5 C47_6 1_555 1_555
H35_5 C48_5 1_555 1_555
C49_6 N9_6 1_555 1_555
H36_5 C49_6 1_555 1_555
C51_6 C50_6 1_555 1_555
H38_6 C51_6 1_555 1_555
C52_6 C47_6 1_555 1_555
C53_6 C52_6 1_555 1_555
H39_5 C53_6 1_555 1_555
C54_6 N13_5 1_555 1_555
H40_4 C54_6 1_555 1_555
Zn8_4 N8_4 1_555 1_555
N14_4 Zn3_4 1_555 1_555
C2_6 C6_6 1_555 1_555
C8_6 C12_6 1_555 1_555
C10_6 C11_6 1_555 1_555
C26_6 C27_6 1_555 1_555
C29_6 C30_6 1_555 1_555
C31_6 C32_6 1_555 1_555
N7_6 C33_6 1_555 1_555
C34_6 C38_6 1_555 1_555
C40_6 C44_6 1_555 1_555
C42_6 C43_6 1_555 1_555
C48_5 C49_6 1_555 1_555
C51_6 C52_6 1_555 1_555
C53_6 C54_6 1_555 1_555
N3_6 Zn7_5 1_555 1_555
N14_3 C18_6 1_555 1_555
C13_6 N3_6 1_555 1_555
H9_6 C13_6 1_555 1_555
C14_6 C13_6 1_555 1_555
H10_6 C14_6 1_555 1_555
C15_6 C14_6 1_555 1_555
C16_5 C15_6 1_555 1_555
H11_5 C16_5 1_555 1_555
C17_6 N3_6 1_555 1_555
H12_5 C17_6 1_555 1_555
C19_6 C18_6 1_555 1_555
H14_6 C19_6 1_555 1_555
C20_6 C15_6 1_555 1_555
C21_6 C20_6 1_555 1_555
H15_5 C21_6 1_555 1_555
C22_6 N14_3 1_555 1_555
H16_4 C22_6 1_555 1_555
C16_5 C17_6 1_555 1_555
C19_6 C20_6 1_555 1_555
C21_6 C22_6 1_555 1_555
N6_7 C28_7 1_555 1_555
C28_7 H21_7 1_555 1_555
C29_7 C28_7 1_555 1_555
C31_7 C30_7 1_555 1_555
H23_6 C31_7 1_555 1_555
C32_7 N6_7 1_555 1_555
H24_7 C32_7 1_555 1_555
Zn5_2 N6_7 1_555 1_555
Zn8_4 O8_7 1_555 1_555
O8_7 Zn5_2 1_555 1_555
O9_7 Zn5_2 1_555 1_555
O10_7 C38_7 1_555 1_555
O11_7 Zn5_2 1_555 1_555
O12_7 Zn5_2 1_555 1_555
O13_7 C44_7 1_555 1_555
O14_7 Zn8_4 1_555 1_555
H25_7 O14_7 1_555 1_555
H26_7 O14_7 1_555 1_555
N7_7 Zn8_4 1_555 1_555
N11_2 C39_7 1_555 1_555
N9_7 Zn8_4 1_555 1_555
N13_4 C50_7 1_555 1_555
C33_7 O8_7 1_555 1_555
C34_7 C33_7 1_555 1_555
C35_5 C34_7 1_555 1_555
H27_5 C35_5 1_555 1_555
C36_5 C35_5 1_555 1_555
H28_5 C36_5 1_555 1_555
C37_7 N7_7 1_555 1_555
H29_5 C37_7 1_555 1_555
C38_7 O9_7 1_555 1_555
C39_7 O11_7 1_555 1_555
C40_7 C39_7 1_555 1_555
C41_7 C40_7 1_555 1_555
H30_7 C41_7 1_555 1_555
C42_7 C41_7 1_555 1_555
C43_7 N11_2 1_555 1_555
H32_7 C43_7 1_555 1_555
C44_7 O12_7 1_555 1_555
C45_7 N9_7 1_555 1_555
H33_7 C45_7 1_555 1_555
C46_7 C45_7 1_555 1_555
H34_7 C46_7 1_555 1_555
C47_7 C46_7 1_555 1_555
C48_6 C47_7 1_555 1_555
H35_6 C48_6 1_555 1_555
C49_7 N9_7 1_555 1_555
H36_6 C49_7 1_555 1_555
C50_7 H37_5 1_555 1_555
C51_7 C50_7 1_555 1_555
H38_7 C51_7 1_555 1_555
C52_7 C47_7 1_555 1_555
C53_7 C52_7 1_555 1_555
H39_6 C53_7 1_555 1_555
C54_7 N13_4 1_555 1_555
H40_5 C54_7 1_555 1_555
C29_7 C30_7 1_555 1_555
C31_7 C32_7 1_555 1_555
N7_7 C33_7 1_555 1_555
C34_7 C38_7 1_555 1_555
C36_5 C37_7 1_555 1_555
C40_7 C44_7 1_555 1_555
C42_7 C43_7 1_555 1_555
C48_6 C49_7 1_555 1_555
C51_7 C52_7 1_555 1_555
C53_7 C54_7 1_555 1_555
Zn1_6 O1_7 1_555 1_555
Zn7_4 O1_7 1_555 1_555
O1_7 C1_7 1_555 1_555
O2_7 Zn1_6 1_555 1_555
O3_7 C6_7 1_555 1_555
O4_7 Zn1_6 1_555 1_555
O5_7 Zn1_6 1_555 1_555
O6_7 C12_7 1_555 1_555
O7_7 Zn7_4 1_555 1_555
H1_7 O7_7 1_555 1_555
H2_7 O7_7 1_555 1_555
N1_7 Zn7_4 1_555 1_555
N2_6 C7_7 1_555 1_555
N3_7 Zn7_4 1_555 1_555
N14_4 C18_7 1_555 1_555
N5_7 Zn1_6 1_555 1_555
C1_7 N1_7 1_555 1_555
C2_7 C1_7 1_555 1_555
C3_5 C2_7 1_555 1_555
H3_5 C3_5 1_555 1_555
C4_5 C3_5 1_555 1_555
H4_5 C4_5 1_555 1_555
C5_7 N1_7 1_555 1_555
H5_5 C5_7 1_555 1_555
C6_7 O2_7 1_555 1_555
C7_7 O4_7 1_555 1_555
C8_7 C7_7 1_555 1_555
C9_7 C8_7 1_555 1_555
H6_7 C9_7 1_555 1_555
C10_7 C9_7 1_555 1_555
C11_7 N2_6 1_555 1_555
H8_7 C11_7 1_555 1_555
C12_7 O5_7 1_555 1_555
C13_7 N3_7 1_555 1_555
H9_7 C13_7 1_555 1_555
C14_7 C13_7 1_555 1_555
H10_7 C14_7 1_555 1_555
C15_7 C14_7 1_555 1_555
C16_6 C15_7 1_555 1_555
H11_6 C16_6 1_555 1_555
C17_7 N3_7 1_555 1_555
H12_6 C17_7 1_555 1_555
C18_7 H13_5 1_555 1_555
C19_7 C18_7 1_555 1_555
H14_7 C19_7 1_555 1_555
C20_7 C15_7 1_555 1_555
C21_7 C20_7 1_555 1_555
H15_6 C21_7 1_555 1_555
C22_7 N14_4 1_555 1_555
H16_5 C22_7 1_555 1_555
C23_7 N5_7 1_555 1_555
H17_7 C23_7 1_555 1_555
C24_7 C23_7 1_555 1_555
C25_7 C24_7 1_555 1_555
C26_7 C25_7 1_555 1_555
H19_6 C26_7 1_555 1_555
C27_7 N5_7 1_555 1_555
H20_7 C27_7 1_555 1_555
Zn7_6 N2_6 1_555 1_555
N13_6 Zn1_6 1_555 1_555
C2_7 C6_7 1_555 1_555
C4_5 C5_7 1_555 1_555
C8_7 C12_7 1_555 1_555
C10_7 C11_7 1_555 1_555
C16_6 C17_7 1_555 1_555
C19_7 C20_7 1_555 1_555
C21_7 C22_7 1_555 1_555
C26_7 C27_7 1_555 1_555
O6_8 C12_8 1_555 1_555
N12_2 C7_8 1_555 1_555
C8_8 C7_8 1_555 1_555
C9_8 C8_8 1_555 1_555
H6_8 C9_8 1_555 1_555
C10_8 C9_8 1_555 1_555
H7_6 C10_8 1_555 1_555
C11_8 N12_2 1_555 1_555
H8_8 C11_8 1_555 1_555
O13_8 C44_8 1_555 1_555
N11_4 C39_8 1_555 1_555
C40_8 C39_8 1_555 1_555
C41_8 C40_8 1_555 1_555
H30_8 C41_8 1_555 1_555
C42_8 C41_8 1_555 1_555
H31_6 C42_8 1_555 1_555
C43_8 N11_4 1_555 1_555
H32_8 C43_8 1_555 1_555
C8_8 C12_8 1_555 1_555
C10_8 C11_8 1_555 1_555
C40_8 C44_8 1_555 1_555
C42_8 C43_8 1_555 1_555
Zn6_2 O1_8 1_555 1_555
O1_8 C1_8 1_555 1_555
O2_8 Zn6_2 1_555 1_555
O3_8 C6_8 1_555 1_555
O4_8 Zn6_2 1_555 1_555
O5_8 Zn6_2 1_555 1_555
H1_8 O7_8 1_555 1_555
H2_8 O7_8 1_555 1_555
N5_8 Zn6_2 1_555 1_555
C1_8 N1_8 1_555 1_555
C2_8 C1_8 1_555 1_555
C3_6 C2_8 1_555 1_555
H3_6 C3_6 1_555 1_555
C4_6 C3_6 1_555 1_555
H4_6 C4_6 1_555 1_555
C5_8 N1_8 1_555 1_555
C6_8 O2_8 1_555 1_555
C23_8 N5_8 1_555 1_555
H17_8 C23_8 1_555 1_555
C24_8 C23_8 1_555 1_555
H18_7 C24_8 1_555 1_555
C25_8 C24_8 1_555 1_555
C26_8 C25_8 1_555 1_555
H19_7 C26_8 1_555 1_555
C27_8 N5_8 1_555 1_555
H20_8 C27_8 1_555 1_555
N6_8 C28_8 1_555 1_555
C28_8 H21_8 1_555 1_555
C29_8 C28_8 1_555 1_555
H22_7 C29_8 1_555 1_555
C30_8 C25_8 1_555 1_555
C31_8 C30_8 1_555 1_555
H23_7 C31_8 1_555 1_555
C32_8 N6_8 1_555 1_555
H24_8 C32_8 1_555 1_555
Zn5_4 N6_8 1_555 1_555
Zn8 O8_8 1_555 1_555
O8_8 Zn5_4 1_555 1_555
O9_8 Zn5_4 1_555 1_555
O10_8 C38_8 1_555 1_555
O11_8 Zn5_4 1_555 1_555
O12_8 Zn5_4 1_555 1_555
O14_8 Zn8 1_555 1_555
H25_8 O14_8 1_555 1_555
H26_8 O14_8 1_555 1_555
N7_8 Zn8 1_555 1_555
N9_8 Zn8 1_555 1_555
N13_6 C50_8 1_555 1_555
C33_8 O8_8 1_555 1_555
C34_8 C33_8 1_555 1_555
C35_6 C34_8 1_555 1_555
H27_6 C35_6 1_555 1_555
C36_6 C35_6 1_555 1_555
H28_6 C36_6 1_555 1_555
C37_8 N7_8 1_555 1_555
H29_6 C37_8 1_555 1_555
C38_8 O9_8 1_555 1_555
C45_8 N9_8 1_555 1_555
H33_8 C45_8 1_555 1_555
C46_8 C45_8 1_555 1_555
H34_8 C46_8 1_555 1_555
C47_8 C46_8 1_555 1_555
C48_7 C47_8 1_555 1_555
H35_7 C48_7 1_555 1_555
C49_8 N9_8 1_555 1_555
H36_7 C49_8 1_555 1_555
C50_8 H37_6 1_555 1_555
C51_8 C50_8 1_555 1_555
H38_8 C51_8 1_555 1_555
C52_8 C47_8 1_555 1_555
C53_8 C52_8 1_555 1_555
H39_7 C53_8 1_555 1_555
C54_8 N13_6 1_555 1_555
H40_6 C54_8 1_555 1_555
C2_8 C6_8 1_555 1_555
C4_6 C5_8 1_555 1_555
C26_8 C27_8 1_555 1_555
C29_8 C30_8 1_555 1_555
C31_8 C32_8 1_555 1_555
N7_8 C33_8 1_555 1_555
C34_8 C38_8 1_555 1_555
C36_6 C37_8 1_555 1_555
C48_7 C49_8 1_555 1_555
C51_8 C52_8 1_555 1_555
C53_8 C54_8 1_555 1_555
N3_8 Zn7_6 1_555 1_555
N14 C18_8 1_555 1_555
C13_8 N3_8 1_555 1_555
H9_8 C13_8 1_555 1_555
C14_8 C13_8 1_555 1_555
H10_8 C14_8 1_555 1_555
C15_8 C14_8 1_555 1_555
C16_7 C15_8 1_555 1_555
H11_7 C16_7 1_555 1_555
C17_8 N3_8 1_555 1_555
H12_7 C17_8 1_555 1_555
C18_8 H13_6 1_555 1_555
C19_8 C18_8 1_555 1_555
H14_8 C19_8 1_555 1_555
C20_8 C15_8 1_555 1_555
C21_8 C20_8 1_555 1_555
H15_7 C21_8 1_555 1_555
C22_8 N14 1_555 1_555
H16_6 C22_8 1_555 1_555
C16_7 C17_8 1_555 1_555
C19_8 C20_8 1_555 1_555
C21_8 C22_8 1_555 1_555
H3_7 C3_7 1_555 1_555
C4_7 C3_7 1_555 1_555
H4_7 C4_7 1_555 1_555
H27_7 C35_7 1_555 1_555
C36_7 C35_7 1_555 1_555
H28_7 C36_7 1_555 1_555
H35_8 C48_8 1_555 1_555
H11_8 C16_8 1_555 1_555
H3_8 C3_8 1_555 1_555
C4_8 C3_8 1_555 1_555
H4_8 C4_8 1_555 1_555
H27_8 C35_8 1_555 1_555
C36_8 C35_8 1_555 1_555
H28_8 C36_8 1_555 1_555

#END
