
###############################################################################
#
# This file contains modified crystal structure data generated from the
# MOF subset of the Cambridge Structural Database (CSD) v543 
# hosted by the Cambridge Crystallographic Data Centre (CCDC).
#
# This work is licensed under the Creative Commons
# Attribution-NonCommercial-ShareAlike 4.0 International License.
# To view a copy of this license, visit
# http://creativecommons.org/licenses/by-nc-sa/4.0/
# or send a letter to
# Creative Commons, PO Box 1866, Mountain View, CA 94042, USA.
#
# CIF created using the CSD Python API on 29 September 2022
# The structure has been converted into the P1 space group
# The structure has a 3D framework
# The original CSD entry SUTBIT is in the orthorhombic crystal system
# The framework has been calculated to contain at least 10.0% void space
# The void calculation uses a probe of radius 1.32A, grid spacing 0.4
#
###############################################################################

data_SUTBIT
_chemical_formula_moiety         '(C56 H32 N16 Ni2)n'
_symmetry_cell_setting           triclinic
_symmetry_space_group_name_H-M   'P 1'
_symmetry_Int_Tables_number      1
_space_group_name_Hall           'P 1'
loop_
_symmetry_equiv_pos_site_id
_symmetry_equiv_pos_as_xyz
1 x,y,z
_cell_length_a                   6.76552(46)
_cell_length_b                   22.7353(32)
_cell_length_c                   13.4648(14)
_cell_angle_alpha                90
_cell_angle_beta                 90
_cell_angle_gamma                90
_cell_volume                     2071.1
loop_
_atom_site_label
_atom_site_type_symbol
_atom_site_fract_x
_atom_site_fract_y
_atom_site_fract_z
C1 C 0.162630 0.358640 0.373160
C2 C 0.00000 0.389690 0.401020
C3 C -0.00000 0.446010 0.451550
N1 N 0.100510 0.308410 0.328080
H2 H 0.287740 0.375400 0.388190
C7 C -0.00000 0.553990 0.548450
C8 C -0.00000 0.610310 0.598980
C9 C 0.162630 0.641360 0.626840
N3 N 0.100510 0.691590 0.671920
H4 H 0.287740 0.624600 0.611810
C11 C 0.177930 0.526990 0.524220
H6 H 0.299530 0.545440 0.540780
C12 C 0.177930 0.473010 0.475780
H7 H 0.299530 0.454560 0.459220
Ni2 Ni 0.25000 0.25000 0.25000
Ni3 Ni 0.25000 0.75000 0.75000
Ni1 Ni 0.75000 0.25000 0.25000
C2_2 C 1.00000 0.389690 0.401020
C3_2 C 1.00000 0.446010 0.451550
C4 C 0.822070 0.473010 0.475780
H1 H 0.700470 0.454560 0.459220
C5 C 0.837370 0.358640 0.373160
N2 N 0.899490 0.308410 0.328080
H3 H 0.712260 0.375400 0.388190
C6 C 0.822070 0.526990 0.524220
C7_2 C 1.00000 0.553990 0.548450
C8_2 C 1.00000 0.610310 0.598980
C10 C 0.837370 0.641360 0.626840
N4 N 0.899490 0.691590 0.671920
H5 H 0.712260 0.624600 0.611810
H8 H 0.700470 0.545440 0.540780
Ni4 Ni 0.75000 0.75000 0.75000
N5 N 0.899490 0.191590 0.328080
N6 N 0.600510 0.191590 0.171920
N7 N 0.600510 0.308410 0.171920
C6_2 C 0.322070 0.026990 0.024220
C7_3 C 0.50000 0.053990 0.048450
C8_3 C 0.50000 0.110310 0.098980
C9_2 C 0.662630 0.141360 0.126840
H4_2 H 0.787740 0.124600 0.111810
C10_2 C 0.337370 0.141360 0.126840
N4_2 N 0.399490 0.191590 0.171920
H5_2 H 0.212260 0.124600 0.111810
C11_2 C 0.677930 0.026990 0.024220
H6_2 H 0.799530 0.045440 0.040780
H8_2 H 0.200470 0.045440 0.040780
C1_2 C 0.662630 0.858640 0.873160
C2_3 C 0.50000 0.889690 0.901020
C3_3 C 0.50000 0.946010 0.951550
C4_2 C 0.322070 0.973010 0.975780
N1_2 N 0.600510 0.808410 0.828080
H1_2 H 0.200470 0.954560 0.959220
H2_2 H 0.787740 0.875400 0.888190
C5_2 C 0.337370 0.858640 0.873160
N2_2 N 0.399490 0.808410 0.828080
H3_2 H 0.212260 0.875400 0.888190
C12_2 C 0.677930 0.973010 0.975780
H7_2 H 0.799530 0.954560 0.959220
N5_2 N 0.399490 0.691590 0.828080
N7_2 N 0.100510 0.808410 0.671920
N5_3 N 0.899490 0.808410 0.671920
N7_3 N 0.600510 0.691590 0.828080
N5_4 N 0.399490 0.308410 0.171920
N7_4 N 0.100510 0.191590 0.328080
C6_3 C 0.177930 0.026990 0.475780
C7_4 C 0.00000 0.053990 0.451550
C8_4 C 0.00000 0.110310 0.401020
C10_3 C 0.162630 0.141360 0.373160
H5_3 H 0.287740 0.124600 0.388190
H8_3 H 0.299530 0.045440 0.459220
C2_4 C -0.00000 0.889690 0.598980
C3_4 C 0.00000 0.946010 0.548450
C4_3 C 0.177930 0.973010 0.524220
H1_3 H 0.299530 0.954560 0.540780
C5_3 C 0.162630 0.858640 0.626840
H3_3 H 0.287740 0.875400 0.611810
C7_5 C 1.00000 0.053990 0.451550
C8_5 C 1.00000 0.110310 0.401020
C9_3 C 0.837370 0.141360 0.373160
H4_3 H 0.712260 0.124600 0.388190
C11_3 C 0.822070 0.026990 0.475780
H6_3 H 0.700470 0.045440 0.459220
C1_3 C 0.837370 0.858640 0.626840
C2_5 C 1.00000 0.889690 0.598980
C3_5 C 1.00000 0.946010 0.548450
H2_3 H 0.712260 0.875400 0.611810
C12_3 C 0.822070 0.973010 0.524220
H7_3 H 0.700470 0.954560 0.540780
C1_4 C 0.337370 0.358640 0.126840
C2_6 C 0.50000 0.389690 0.098980
C3_6 C 0.50000 0.446010 0.048450
C4_4 C 0.677930 0.473010 0.024220
H1_4 H 0.799530 0.454560 0.040780
H2_4 H 0.212260 0.375400 0.111810
C5_4 C 0.662630 0.358640 0.126840
H3_4 H 0.787740 0.375400 0.111810
C12_4 C 0.322070 0.473010 0.024220
H7_4 H 0.200470 0.454560 0.040780
C6_4 C 0.677930 0.526990 0.975780
C7_6 C 0.50000 0.553990 0.951550
C8_6 C 0.50000 0.610310 0.901020
C9_4 C 0.337370 0.641360 0.873160
H4_4 H 0.212260 0.624600 0.888190
C10_4 C 0.662630 0.641360 0.873160
H5_4 H 0.787740 0.624600 0.888190
C11_4 C 0.322070 0.526990 0.975780
H6_4 H 0.200470 0.545440 0.959220
H8_4 H 0.799530 0.545440 0.959220
loop_
_geom_bond_atom_site_label_1
_geom_bond_atom_site_label_2
_geom_bond_site_symmetry_1
_geom_bond_site_symmetry_2
C1 C2 1_555 1_555
C2 C3 1_555 1_555
N1 C1 1_555 1_555
H2 C1 1_555 1_555
C8 C7 1_555 1_555
C9 C8 1_555 1_555
N3 C9 1_555 1_555
H4 C9 1_555 1_555
C11 C7 1_555 1_555
H6 C11 1_555 1_555
C12 C3 1_555 1_555
H7 C12 1_555 1_555
Ni2 N1 1_555 1_555
Ni3 N3 1_555 1_555
C11 C12 1_555 1_555
Ni1 N2 1_555 1_555
C2_2 C3_2 1_555 1_555
C3_2 C4 1_555 1_555
C4 H1 1_555 1_555
C5 C2_2 1_555 1_555
H3 C5 1_555 1_555
C6 C4 1_555 1_555
C7_2 C6 1_555 1_555
C8_2 C7_2 1_555 1_555
C10 C8_2 1_555 1_555
H5 C10 1_555 1_555
H8 C6 1_555 1_555
Ni4 N4 1_555 1_555
N5 Ni1 1_555 1_555
N6 Ni1 1_555 1_555
N7 Ni1 1_555 1_555
C5 N2 1_555 1_555
C10 N4 1_555 1_555
C7_3 C6_2 1_555 1_555
C8_3 C7_3 1_555 1_555
C9_2 C8_3 1_555 1_555
N6 C9_2 1_555 1_555
H4_2 C9_2 1_555 1_555
C10_2 C8_3 1_555 1_555
N4_2 N6 1_555 1_555
H5_2 C10_2 1_555 1_555
C11_2 C7_3 1_555 1_555
H6_2 C11_2 1_555 1_555
H8_2 C6_2 1_555 1_555
Ni2 N4_2 1_555 1_555
C10_2 N4_2 1_555 1_555
Ni3 N2_2 1_555 1_555
C1_2 C2_3 1_555 1_555
C2_3 C3_3 1_555 1_555
C3_3 C4_2 1_555 1_555
C4_2 H1_2 1_555 1_555
N1_2 C1_2 1_555 1_555
H2_2 C1_2 1_555 1_555
C5_2 C2_3 1_555 1_555
N2_2 N1_2 1_555 1_555
H3_2 C5_2 1_555 1_555
C12_2 C3_3 1_555 1_555
H7_2 C12_2 1_555 1_555
Ni4 N1_2 1_555 1_555
N5_2 Ni3 1_555 1_555
N7_2 Ni3 1_555 1_555
C5_2 N2_2 1_555 1_555
N5_3 Ni4 1_555 1_555
N7_3 Ni4 1_555 1_555
N5_4 Ni2 1_555 1_555
N7_4 Ni2 1_555 1_555
C7_4 C6_3 1_555 1_555
C8_4 C7_4 1_555 1_555
C10_3 C8_4 1_555 1_555
H5_3 C10_3 1_555 1_555
H8_3 C6_3 1_555 1_555
C10_3 N7_4 1_555 1_555
C2_4 C3_4 1_555 1_555
C3_4 C4_3 1_555 1_555
C4_3 H1_3 1_555 1_555
C5_3 C2_4 1_555 1_555
H3_3 C5_3 1_555 1_555
C5_3 N7_2 1_555 1_555
C8_5 C7_5 1_555 1_555
C9_3 C8_5 1_555 1_555
N5 C9_3 1_555 1_555
H4_3 C9_3 1_555 1_555
C11_3 C7_5 1_555 1_555
H6_3 C11_3 1_555 1_555
C1_3 C2_5 1_555 1_555
C2_5 C3_5 1_555 1_555
N5_3 C1_3 1_555 1_555
H2_3 C1_3 1_555 1_555
C12_3 C3_5 1_555 1_555
H7_3 C12_3 1_555 1_555
C1_4 C2_6 1_555 1_555
C2_6 C3_6 1_555 1_555
C3_6 C4_4 1_555 1_555
C4_4 H1_4 1_555 1_555
N5_4 C1_4 1_555 1_555
H2_4 C1_4 1_555 1_555
C5_4 C2_6 1_555 1_555
N7 N5_4 1_555 1_555
H3_4 C5_4 1_555 1_555
C12_4 C3_6 1_555 1_555
H7_4 C12_4 1_555 1_555
C5_4 N7 1_555 1_555
C7_6 C6_4 1_555 1_555
C8_6 C7_6 1_555 1_555
C9_4 C8_6 1_555 1_555
N5_2 C9_4 1_555 1_555
H4_4 C9_4 1_555 1_555
C10_4 C8_6 1_555 1_555
N7_3 N5_2 1_555 1_555
H5_4 C10_4 1_555 1_555
C11_4 C7_6 1_555 1_555
H6_4 C11_4 1_555 1_555
H8_4 C6_4 1_555 1_555
C10_4 N7_3 1_555 1_555

#END
