
###############################################################################
#
# This file contains modified crystal structure data generated from the
# MOF subset of the Cambridge Structural Database (CSD) v543 
# hosted by the Cambridge Crystallographic Data Centre (CCDC).
#
# This work is licensed under the Creative Commons
# Attribution-NonCommercial-ShareAlike 4.0 International License.
# To view a copy of this license, visit
# http://creativecommons.org/licenses/by-nc-sa/4.0/
# or send a letter to
# Creative Commons, PO Box 1866, Mountain View, CA 94042, USA.
#
# CIF created using the CSD Python API on 29 September 2022
# The structure has been converted into the P1 space group
# The structure has a 3D framework
# The original CSD entry SUTJIC is in the triclinic crystal system
# The framework has been calculated to contain at least 10.0% void space
# The void calculation uses a probe of radius 1.32A, grid spacing 0.4
#
###############################################################################

data_SUTJIC
_chemical_formula_moiety         '(C128 H136 N16 Ni4 O22)n'
_symmetry_cell_setting           triclinic
_symmetry_space_group_name_H-M   'P 1'
_symmetry_Int_Tables_number      1
_space_group_name_Hall           'P 1'
loop_
_symmetry_equiv_pos_site_id
_symmetry_equiv_pos_as_xyz
1 x,y,z
_cell_length_a                   13.890(3)
_cell_length_b                   14.330(3)
_cell_length_c                   19.017(4)
_cell_angle_alpha                68.31(3)
_cell_angle_beta                 75.83(3)
_cell_angle_gamma                84.36(3)
_cell_volume                     3410.07
loop_
_atom_site_label
_atom_site_type_symbol
_atom_site_fract_x
_atom_site_fract_y
_atom_site_fract_z
H40 H 0.0363 0.7472 0.2239
C34 C 0.0408(3) 0.8757(3) 0.2471(3)
H42 H 0.0709 0.8454 0.2915
H43 H 0.0936 0.9034 0.2014
H45 H 0.0519 0.9089 0.3829
O11 O 0.22812(19) 0.10168(17) 0.19544(12)
N8 N 0.88572(19) 0.0591(2) 0.31471(15)
C37 C 0.9251(3) 0.0241(3) 0.2038(2)
C38 C 0.9274(4) 0.0367(4) 0.1268(2)
C39 C 0.8716(4) 0.1127(4) 0.0888(3)
H48 H 0.8726 0.1250 0.0371
C40 C 0.8139(4) 0.1717(4) 0.1254(2)
H49 H 0.7742 0.2209 0.0981
C41 C 0.8115(3) 0.1621(3) 0.2017(2)
H50 H 0.7729 0.2039 0.2251
C42 C 0.8705(3) 0.0857(3) 0.24004(19)
C56 C 0.2460(2) 0.0160(2) 0.25380(18)
C57 C 0.2247(2) 0.0048(2) 0.33208(18)
H59 H 0.1995 0.0586 0.3475
C61 C 0.1837(3) 0.1855(2) 0.21616(18)
H61 H 0.2283 0.2111 0.2368
H62 H 0.1220 0.1660 0.2550
C62 C 0.1645(2) 0.2642(3) 0.14179(19)
H63 H 0.2226 0.2688 0.1002
H64 H 0.1550 0.3288 0.1481
C63 C 0.0748(3) 0.2426(3) 0.1184(2)
H65 H 0.0165 0.2389 0.1596
H66 H 0.0839 0.1775 0.1128
C64 C 0.0564(3) 0.3217(4) 0.0422(2)
H68 H 0.0609 0.3881 0.0435
Ni6 Ni 0.82888(3) 0.13553(3) 0.38815(2)
O1 O 0.72025(16) 0.42460(16) 0.77468(13)
O2 O 0.7050(2) 0.5853(2) 0.7291(3)
C43 C 0.7520(2) 0.5095(2) 0.7553(2)
C44 C 0.8549(2) 0.5231(2) 0.76280(18)
C45 C 0.8981(2) 0.4460(2) 0.81446(18)
H51 H 0.8650 0.3855 0.8424
C46 C 0.9900(3) 0.4582(3) 0.82497(19)
C48 C 0.9992(2) 0.6246(2) 0.72814(17)
C49 C 0.9054(2) 0.6129(2) 0.71895(17)
H53 H 0.8765 0.6647 0.6838
Ni3 Ni 0.57777(3) 0.37630(3) 0.78233(2)
N2 N 0.4977(2) 0.3579(2) 0.01531(15)
N3 N 0.53009(18) 0.1320(2) 0.37615(15)
N4 N 0.68588(17) 0.10886(18) 0.39085(14)
C4 C 0.3373(3) 0.4562(3) 0.0302(2)
H4 H 0.3257 0.4415 0.0835
H5 H 0.2181 0.5439 0.0116
C9 C 0.5107(3) 0.3153(3) 0.09559(19)
H10 H 0.5811 0.3101 0.0948
H11 H 0.4809 0.3604 0.1226
C10 C 0.4638(3) 0.2111(3) 0.1403(2)
H12 H 0.4919 0.1666 0.1123
H13 H 0.3930 0.2167 0.1426
C11 C 0.4802(3) 0.1650(3) 0.2226(2)
H14 H 0.5506 0.1514 0.2199
H15 H 0.4459 0.1013 0.2486
C12 C 0.4450(3) 0.2298(3) 0.2702(2)
H16 H 0.4895 0.2865 0.2499
H17 H 0.3801 0.2563 0.2619
C13 C 0.4370(2) 0.1822(3) 0.35799(19)
H18 H 0.3838 0.1336 0.3810
H19 H 0.4206 0.2338 0.3807
C14 C 0.5482(2) 0.0304(3) 0.39725(17)
C19 C 0.6460(2) 0.0153(2) 0.40646(17)
C20 C 0.6140(2) 0.1760(2) 0.37420(17)
C21 C 0.6218(3) 0.2840(3) 0.3564(2)
H24 H 0.6737 0.2956 0.3775
H25 H 0.6368 0.3184 0.3011
H26 H 0.5599 0.3088 0.3790
H28 H 0.3843 0.0610 0.0311
H29 H 0.2521 0.0117 0.0053
O3 O 0.63779(17) 0.22911(16) 0.81044(12)
O4 O 0.63864(17) 0.32429(16) 0.68957(13)
O5 O 0.54582(16) 0.52216(17) 0.71701(14)
H1 H 0.5897 0.5597 0.7124
H2 H 0.5242 0.5133 0.6845
O8 O 0.78015(16) 0.19001(15) 0.47975(12)
O9 O 0.81953(16) 0.03225(16) 0.50481(11)
N1 N 0.52529(19) 0.3920(2) 0.88829(15)
N5 N 0.4414(2) 0.3082(2) 0.79500(16)
N6 N 0.3183(3) 0.2504(3) 0.7691(2)
N7 N 0.0259(2) 0.0435(2) 0.74155(19)
C1 C 0.3725(2) 0.4988(2) 0.8690(2)
H3 H 0.3834 0.5122 0.8160
C2 C 0.4372(2) 0.4391(2) 0.91164(18)
C3 C 0.4204(3) 0.4175(3) 0.9909(2)
C5 C 0.2738(3) 0.5167(3) 0.9871(3)
C6 C 0.2908(3) 0.5384(3) 0.9073(2)
H6 H 0.2466 0.5799 0.8795
C7 C 0.5601(3) 0.3435(2) 0.95206(18)
C8 C 0.6514(3) 0.2819(3) 0.9558(2)
H7 H 0.6836 0.2830 0.9047
H8 H 0.6952 0.3086 0.9755
H9 H 0.6348 0.2140 0.9896
C22 C 0.4251(4) 0.1734(4) 0.9297(3)
H27 H 0.4804 0.1920 0.9408
C23 C 0.3685(4) 0.0944(4) 0.9831(3)
C24 C 0.2905(5) 0.0644(5) 0.9672(4)
C25 C 0.2656(4) 0.1082(5) 0.8976(4)
H30 H 0.2144 0.0838 0.8858
C26 C 0.3207(3) 0.1922(4) 0.8441(3)
C27 C 0.4002(3) 0.2254(3) 0.8596(2)
C28 C 0.3885(3) 0.3216(4) 0.7447(2)
C29 C 0.4023(4) 0.4048(5) 0.6658(3)
H31 H 0.4702 0.4261 0.6482
H32 H 0.3856 0.3806 0.6295
H33 H 0.3598 0.4606 0.6697
C30 C 0.2535(4) 0.2297(4) 0.7241(3)
H34 H 0.2282 0.1619 0.7505
H35 H 0.2924 0.2350 0.6729
C31 C 0.1721(4) 0.2996(5) 0.7165(4)
H36 H 0.1440 0.3076 0.7660
H37 H 0.1956 0.3645 0.6787
C32 C 0.0886(3) 0.2608(4) 0.6896(3)
H38 H 0.1175 0.2163 0.6619
H39 H 0.0575 0.3171 0.6554
C33 C 0.0123(4) 0.2051(4) 0.7628(3)
H41 H 0.0453 0.1743 0.8054
C35 C 0.0169(3) 0.0732(3) 0.6040(2)
H44 H 0.0244 0.0309 0.5738
H46 H 0.0552 0.1330 0.5743
C36 C 0.0524(2) 0.0185(3) 0.6764(2)
H47 H 0.0348 0.0052 0.8971
C53 C 0.6558(2) 0.2407(2) 0.73959(19)
C54 C 0.6966(2) 0.1543(2) 0.71460(18)
C55 C 0.7134(2) 0.0625(2) 0.76920(18)
H58 H 0.6972 0.0538 0.8217
C58 C 0.7585(2) 0.0876(2) 0.61325(18)
C59 C 0.7194(2) 0.1669(2) 0.63601(18)
H60 H 0.7083 0.2286 0.5991
C60 C 0.7879(2) 0.1033(2) 0.52843(17)
O13 O 0.85890(15) 0.27537(16) 0.30298(12)
O14 O 0.97474(16) 0.20756(16) 0.36669(13)
O10 O 0.97395(18) 0.6203(2) 0.11941(15)
C15 C 0.4890(3) 0.9490(3) 0.4104(2)
H20 H 0.4242 0.9588 0.4038
C16 C 0.5296(3) 0.8555(3) 0.4333(2)
H21 H 0.4921 0.8006 0.4414
C17 C 0.6268(3) 0.8395(3) 0.4451(2)
H22 H 0.6515 0.7744 0.4630
C18 C 0.6854(3) 0.9190(2) 0.4304(2)
H23 H 0.7505 0.9086 0.4365
C47 C 0.9586(2) 0.4527(2) 0.21870(18)
H52 H 0.8960 0.4450 0.2123
C50 C 0.9426(2) 0.2805(2) 0.31732(18)
C51 C 0.8834(3) 0.6040(4) 0.1030(2)
H54 H 0.8278 0.6048 0.1452
H55 H 0.8854 0.5391 0.0975
C52 C 0.8708(3) 0.6867(3) 0.0282(2)
H56 H 0.8039 0.6845 0.0221
H57 H 0.8790 0.7511 0.0318
O6 O 0.14110(15) 0.72463(16) 0.69702(12)
O7 O 0.02526(16) 0.79244(16) 0.63331(13)
O10_2 O 0.02605(18) 0.3797(2) 0.88059(15)
C15_2 C 0.5110(3) 0.0510(3) 0.5896(2)
H20_2 H 0.5758 0.0412 0.5962
C16_2 C 0.4704(3) 0.1445(3) 0.5667(2)
H21_2 H 0.5079 0.1994 0.5586
C17_2 C 0.3732(3) 0.1605(3) 0.5549(2)
H22_2 H 0.3485 0.2256 0.5370
C18_2 C 0.3146(3) 0.0810(2) 0.5696(2)
H23_2 H 0.2495 0.0914 0.5635
C47_2 C 0.0414(2) 0.5473(2) 0.78130(18)
H52_2 H 0.1040 0.5550 0.7877
C50_2 C 0.0574(2) 0.7195(2) 0.68268(18)
C51_2 C 0.1166(3) 0.3960(4) 0.8970(2)
H54_2 H 0.1722 0.3952 0.8548
H55_2 H 0.1146 0.4609 0.9025
C52_2 C 0.1292(3) 0.3133(3) 0.9718(2)
H56_2 H 0.1961 0.3155 0.9779
H57_2 H 0.1210 0.2489 0.9682
Ni5 Ni 0.17112(3) 0.86447(3) 0.61185(2)
Ni1 Ni 0.42223(3) 0.62370(3) 0.21767(2)
O3_2 O 0.36221(17) 0.77089(16) 0.18956(12)
O4_2 O 0.36136(17) 0.67571(16) 0.31043(13)
O5_2 O 0.45418(16) 0.47784(17) 0.28299(14)
H1_2 H 0.4103 0.4403 0.2876
H2_2 H 0.4758 0.4867 0.3155
O8_2 O 0.21985(16) 0.80999(15) 0.52025(12)
O9_2 O 0.18047(16) 0.96775(16) 0.49519(11)
N1_2 N 0.47471(19) 0.6080(2) 0.11171(15)
N5_2 N 0.5586(2) 0.6918(2) 0.20500(16)
N6_2 N 0.6817(3) 0.7496(3) 0.2309(2)
N7_2 N 0.9741(2) 0.9565(2) 0.25845(19)
C1_2 C 0.6275(2) 0.5012(2) 0.1310(2)
H3_2 H 0.6166 0.4878 0.1840
C2_2 C 0.5628(2) 0.5609(2) 0.08836(18)
C3_2 C 0.5796(3) 0.5825(3) 0.0091(2)
C5_2 C 0.7262(3) 0.4833(3) 0.0129(3)
C6_2 C 0.7092(3) 0.4616(3) 0.0927(2)
H6_2 H 0.7534 0.4201 0.1205
C7_2 C 0.4399(3) 0.6565(2) 0.04794(18)
C8_2 C 0.3486(3) 0.7181(3) 0.0442(2)
H7_2 H 0.3164 0.7170 0.0953
H8_2 H 0.3048 0.6914 0.0245
H9_2 H 0.3652 0.7860 0.0104
C22_2 C 0.5749(4) 0.8266(4) 0.0703(3)
H27_2 H 0.5196 0.8080 0.0592
C23_2 C 0.6315(4) 0.9056(4) 0.0169(3)
C24_2 C 0.7095(5) 0.9356(5) 0.0328(4)
C25_2 C 0.7344(4) 0.8918(5) 0.1024(4)
H30_2 H 0.7856 0.9162 0.1142
C26_2 C 0.6793(3) 0.8078(4) 0.1559(3)
C27_2 C 0.5998(3) 0.7746(3) 0.1404(2)
C28_2 C 0.6115(3) 0.6784(4) 0.2553(2)
C29_2 C 0.5977(4) 0.5952(5) 0.3342(3)
H31_2 H 0.5298 0.5739 0.3518
H32_2 H 0.6144 0.6194 0.3705
H33_2 H 0.6402 0.5394 0.3303
C30_2 C 0.7465(4) 0.7703(4) 0.2759(3)
H34_2 H 0.7718 0.8381 0.2495
H35_2 H 0.7076 0.7650 0.3271
C31_2 C 0.8279(4) 0.7004(5) 0.2835(4)
H36_2 H 0.8560 0.6924 0.2340
H37_2 H 0.8044 0.6355 0.3213
C32_2 C 0.9114(3) 0.7392(4) 0.3104(3)
H38_2 H 0.8825 0.7837 0.3381
H39_2 H 0.9425 0.6829 0.3446
C33_2 C 0.9877(4) 0.7949(4) 0.2372(3)
H41_2 H 0.9547 0.8257 0.1946
C35_2 C 0.9831(3) 0.9268(3) 0.3960(2)
H44_2 H 0.9756 0.9691 0.4262
H46_2 H 0.9448 0.8670 0.4257
C36_2 C 0.9476(2) 0.9815(3) 0.3236(2)
H47_2 H 0.9652 0.9948 0.1029
C53_2 C 0.3442(2) 0.7593(2) 0.26041(19)
C54_2 C 0.3034(2) 0.8457(2) 0.28540(18)
C55_2 C 0.2866(2) 0.9375(2) 0.23080(18)
H58_2 H 0.3028 0.9462 0.1783
C58_2 C 0.2415(2) 0.9124(2) 0.38675(18)
C59_2 C 0.2806(2) 0.8331(2) 0.36399(18)
H60_2 H 0.2917 0.7714 0.4009
C60_2 C 0.2121(2) 0.8967(2) 0.47157(17)
O12 O 0.27975(16) 0.57540(16) 0.22532(13)
N9 N 0.31412(17) 0.89114(18) 0.60915(14)
N10 N 0.11428(19) 0.9409(2) 0.68529(15)
N2_2 N 0.5023(2) 0.6421(2) 0.98469(15)
N3_2 N 0.46991(18) 0.8680(2) 0.62385(15)
C4_2 C 0.6627(3) 0.5438(3) 0.9698(2)
H4_2 H 0.6743 0.5585 0.9165
H5_2 H 0.7819 0.4561 0.9884
C9_2 C 0.4893(3) 0.6847(3) 0.90441(19)
H10_2 H 0.4189 0.6899 0.9052
H11_2 H 0.5191 0.6396 0.8774
C10_2 C 0.5362(3) 0.7889(3) 0.8597(2)
H12_2 H 0.5081 0.8334 0.8877
H13_2 H 0.6070 0.7833 0.8574
C11_2 C 0.5198(3) 0.8350(3) 0.7774(2)
H14_2 H 0.4494 0.8486 0.7801
H15_2 H 0.5541 0.8987 0.7514
C12_2 C 0.5550(3) 0.7702(3) 0.7298(2)
H16_2 H 0.5105 0.7135 0.7501
H17_2 H 0.6199 0.7437 0.7381
C13_2 C 0.5630(2) 0.8178(3) 0.64201(19)
H18_2 H 0.6162 0.8664 0.6190
H19_2 H 0.5794 0.7662 0.6193
C14_2 C 0.4518(2) 0.9696(3) 0.60275(17)
C19_2 C 0.3540(2) 0.9847(2) 0.59354(17)
C20_2 C 0.3860(2) 0.8240(2) 0.62580(17)
C21_2 C 0.3782(3) 0.7160(3) 0.6436(2)
H24_2 H 0.3263 0.7044 0.6225
H25_2 H 0.3632 0.6816 0.6989
H26_2 H 0.4401 0.6912 0.6210
H28_2 H 0.6157 0.9390 0.9689
H29_2 H 0.7479 0.9883 0.9947
O2_2 O 0.2950(2) 0.4147(2) 0.2709(3)
C43_2 C 0.2480(2) 0.4905(2) 0.2447(2)
C44_2 C 0.1451(2) 0.4769(2) 0.23720(18)
C45_2 C 0.1019(2) 0.5540(2) 0.18554(18)
H51_2 H 0.1350 0.6145 0.1576
C46_2 C 0.0100(3) 0.5418(3) 0.17503(19)
C48_2 C 0.0008(2) 0.3754(2) 0.27186(17)
C49_2 C 0.0946(2) 0.3871(2) 0.28105(17)
H53_2 H 0.1235 0.3353 0.3162
O11_2 O 0.77188(19) 0.89832(17) 0.80456(12)
C37_2 C 0.0749(3) 0.9759(3) 0.7962(2)
C38_2 C 0.0726(4) 0.9633(4) 0.8732(2)
C39_2 C 0.1284(4) 0.8873(4) 0.9112(3)
H48_2 H 0.1274 0.8750 0.9629
C40_2 C 0.1861(4) 0.8283(4) 0.8746(2)
H49_2 H 0.2258 0.7791 0.9019
C41_2 C 0.1885(3) 0.8379(3) 0.7983(2)
H50_2 H 0.2271 0.7961 0.7749
C42_2 C 0.1295(3) 0.9143(3) 0.75996(19)
C56_2 C 0.7540(2) 0.9840(2) 0.74620(18)
C57_2 C 0.7753(2) 0.9952(2) 0.66792(18)
H59_2 H 0.8005 0.9414 0.6525
C61_2 C 0.8163(3) 0.8145(2) 0.78384(18)
H61_2 H 0.7717 0.7889 0.7632
H62_2 H 0.8780 0.8340 0.7450
C62_2 C 0.8355(2) 0.7358(3) 0.85821(19)
H63_2 H 0.7774 0.7312 0.8998
H64_2 H 0.8450 0.6712 0.8519
C63_2 C 0.9252(3) 0.7574(3) 0.8816(2)
H65_2 H 0.9835 0.7611 0.8404
H66_2 H 0.9161 0.8225 0.8872
C64_2 C 0.9436(3) 0.6783(4) 0.9578(2)
H68_2 H 0.9391 0.6119 0.9565
H67 H 0.9896 0.3140 0.0380
H67_2 H 0.0104 0.6860 0.9620
H40_2 H 0.9637 0.2528 0.7761
C34_2 C 0.9592(3) 0.1243(3) 0.7529(3)
H42_2 H 0.9291 0.1546 0.7085
H43_2 H 0.9064 0.0966 0.7986
H45_2 H 0.9481 0.0911 0.6171
loop_
_geom_bond_atom_site_label_1
_geom_bond_atom_site_label_2
_geom_bond_site_symmetry_1
_geom_bond_site_symmetry_2
H42 C34 1_555 1_555
H43 C34 1_555 1_555
O11 C56 1_555 1_555
C38 C37 1_555 1_555
C39 C38 1_555 1_555
H48 C39 1_555 1_555
C40 C39 1_555 1_555
H49 C40 1_555 1_555
C41 C40 1_555 1_555
H50 C41 1_555 1_555
C42 N8 1_555 1_555
C57 C56 1_555 1_555
H59 C57 1_555 1_555
C61 O11 1_555 1_555
H61 C61 1_555 1_555
H62 C61 1_555 1_555
C62 C61 1_555 1_555
H63 C62 1_555 1_555
H64 C62 1_555 1_555
C63 C62 1_555 1_555
H65 C63 1_555 1_555
H66 C63 1_555 1_555
H68 C64 1_555 1_555
Ni6 N8 1_555 1_555
C37 C42 1_555 1_555
C41 C42 1_555 1_555
C63 C64 1_555 1_555
O1 C43 1_555 1_555
O2 C43 1_555 1_555
C43 C44 1_555 1_555
C44 C45 1_555 1_555
C45 H51 1_555 1_555
C46 C45 1_555 1_555
C49 C44 1_555 1_555
H53 C49 1_555 1_555
Ni3 O1 1_555 1_555
C48 C49 1_555 1_555
N3 C13 1_555 1_555
N4 C19 1_555 1_555
H4 C4 1_555 1_555
C9 N2 1_555 1_555
H10 C9 1_555 1_555
H11 C9 1_555 1_555
C10 C9 1_555 1_555
H12 C10 1_555 1_555
H13 C10 1_555 1_555
C11 C10 1_555 1_555
H14 C11 1_555 1_555
H15 C11 1_555 1_555
C12 C11 1_555 1_555
H16 C12 1_555 1_555
H17 C12 1_555 1_555
C13 C12 1_555 1_555
H18 C13 1_555 1_555
H19 C13 1_555 1_555
C14 N3 1_555 1_555
C19 C14 1_555 1_555
C20 N3 1_555 1_555
C21 C20 1_555 1_555
H24 C21 1_555 1_555
H25 C21 1_555 1_555
H26 C21 1_555 1_555
Ni6 N4 1_555 1_555
N4 C20 1_555 1_555
Ni3 O3 1_555 1_555
Ni6 O8 1_555 1_555
O3 C53 1_555 1_555
O4 Ni3 1_555 1_555
O5 Ni3 1_555 1_555
H1 O5 1_555 1_555
H2 O5 1_555 1_555
O8 C60 1_555 1_555
O9 Ni6 1_555 1_555
N1 Ni3 1_555 1_555
N5 Ni3 1_555 1_555
N6 C26 1_555 1_555
C1 H3 1_555 1_555
C2 N1 1_555 1_555
C3 C2 1_555 1_555
C6 C1 1_555 1_555
H6 C6 1_555 1_555
C7 N1 1_555 1_555
C8 C7 1_555 1_555
H7 C8 1_555 1_555
H8 C8 1_555 1_555
H9 C8 1_555 1_555
C22 H27 1_555 1_555
C23 C22 1_555 1_555
C24 C23 1_555 1_555
C25 C24 1_555 1_555
H30 C25 1_555 1_555
C26 C25 1_555 1_555
C27 N5 1_555 1_555
C28 N5 1_555 1_555
C29 C28 1_555 1_555
H31 C29 1_555 1_555
H32 C29 1_555 1_555
H33 C29 1_555 1_555
C30 N6 1_555 1_555
H34 C30 1_555 1_555
H35 C30 1_555 1_555
C31 C30 1_555 1_555
H36 C31 1_555 1_555
H37 C31 1_555 1_555
C32 C31 1_555 1_555
H38 C32 1_555 1_555
H39 C32 1_555 1_555
C33 C32 1_555 1_555
H41 C33 1_555 1_555
C35 H44 1_555 1_555
H46 C35 1_555 1_555
C36 N7 1_555 1_555
C53 O4 1_555 1_555
C54 C53 1_555 1_555
C55 C54 1_555 1_555
H58 C55 1_555 1_555
C59 C54 1_555 1_555
H60 C59 1_555 1_555
C60 O9 1_555 1_555
O13 Ni6 1_555 1_555
O14 Ni6 1_555 1_555
N6 C28 1_555 1_555
C1 C2 1_555 1_555
C5 C6 1_555 1_555
C22 C27 1_555 1_555
C26 C27 1_555 1_555
C35 C36 1_555 1_555
C58 C59 1_555 1_555
C58 C60 1_555 1_555
O13 C50 1_555 1_555
O14 C50 1_555 1_555
H20 C15 1_555 1_555
C16 C15 1_555 1_555
H21 C16 1_555 1_555
C17 C16 1_555 1_555
H22 C17 1_555 1_555
C18 C17 1_555 1_555
H23 C18 1_555 1_555
H52 C47 1_555 1_555
C51 O10 1_555 1_555
H54 C51 1_555 1_555
H55 C51 1_555 1_555
C52 C51 1_555 1_555
H56 C52 1_555 1_555
H57 C52 1_555 1_555
O6 C50_2 1_555 1_555
O7 C50_2 1_555 1_555
H20_2 C15_2 1_555 1_555
C16_2 C15_2 1_555 1_555
H21_2 C16_2 1_555 1_555
C17_2 C16_2 1_555 1_555
H22_2 C17_2 1_555 1_555
C18_2 C17_2 1_555 1_555
H23_2 C18_2 1_555 1_555
H52_2 C47_2 1_555 1_555
C51_2 O10_2 1_555 1_555
H54_2 C51_2 1_555 1_555
H55_2 C51_2 1_555 1_555
C52_2 C51_2 1_555 1_555
H56_2 C52_2 1_555 1_555
H57_2 C52_2 1_555 1_555
Ni5 O6 1_555 1_555
O7 Ni5 1_555 1_555
Ni1 O3_2 1_555 1_555
Ni5 O8_2 1_555 1_555
O3_2 C53_2 1_555 1_555
O4_2 Ni1 1_555 1_555
O5_2 Ni1 1_555 1_555
H1_2 O5_2 1_555 1_555
H2_2 O5_2 1_555 1_555
O8_2 C60_2 1_555 1_555
O9_2 Ni5 1_555 1_555
N1_2 Ni1 1_555 1_555
N5_2 Ni1 1_555 1_555
N6_2 C26_2 1_555 1_555
C1_2 H3_2 1_555 1_555
C2_2 N1_2 1_555 1_555
C3_2 C2_2 1_555 1_555
C6_2 C1_2 1_555 1_555
H6_2 C6_2 1_555 1_555
C7_2 N1_2 1_555 1_555
C8_2 C7_2 1_555 1_555
H7_2 C8_2 1_555 1_555
H8_2 C8_2 1_555 1_555
H9_2 C8_2 1_555 1_555
C22_2 H27_2 1_555 1_555
C23_2 C22_2 1_555 1_555
C24_2 C23_2 1_555 1_555
C25_2 C24_2 1_555 1_555
H30_2 C25_2 1_555 1_555
C26_2 C25_2 1_555 1_555
C27_2 N5_2 1_555 1_555
C28_2 N5_2 1_555 1_555
C29_2 C28_2 1_555 1_555
H31_2 C29_2 1_555 1_555
H32_2 C29_2 1_555 1_555
H33_2 C29_2 1_555 1_555
C30_2 N6_2 1_555 1_555
H34_2 C30_2 1_555 1_555
H35_2 C30_2 1_555 1_555
C31_2 C30_2 1_555 1_555
H36_2 C31_2 1_555 1_555
H37_2 C31_2 1_555 1_555
C32_2 C31_2 1_555 1_555
H38_2 C32_2 1_555 1_555
H39_2 C32_2 1_555 1_555
C33_2 C32_2 1_555 1_555
H41_2 C33_2 1_555 1_555
C35_2 H44_2 1_555 1_555
H46_2 C35_2 1_555 1_555
C36_2 N7_2 1_555 1_555
C53_2 O4_2 1_555 1_555
C54_2 C53_2 1_555 1_555
C55_2 C54_2 1_555 1_555
H58_2 C55_2 1_555 1_555
C59_2 C54_2 1_555 1_555
H60_2 C59_2 1_555 1_555
C60_2 O9_2 1_555 1_555
O12 Ni1 1_555 1_555
N9 Ni5 1_555 1_555
N10 Ni5 1_555 1_555
N6_2 C28_2 1_555 1_555
C1_2 C2_2 1_555 1_555
C5_2 C6_2 1_555 1_555
C22_2 C27_2 1_555 1_555
C26_2 C27_2 1_555 1_555
C35_2 C36_2 1_555 1_555
C58_2 C59_2 1_555 1_555
C58_2 C60_2 1_555 1_555
N3_2 C13_2 1_555 1_555
N9 C19_2 1_555 1_555
H4_2 C4_2 1_555 1_555
C9_2 N2_2 1_555 1_555
H10_2 C9_2 1_555 1_555
H11_2 C9_2 1_555 1_555
C10_2 C9_2 1_555 1_555
H12_2 C10_2 1_555 1_555
H13_2 C10_2 1_555 1_555
C11_2 C10_2 1_555 1_555
H14_2 C11_2 1_555 1_555
H15_2 C11_2 1_555 1_555
C12_2 C11_2 1_555 1_555
H16_2 C12_2 1_555 1_555
H17_2 C12_2 1_555 1_555
C13_2 C12_2 1_555 1_555
H18_2 C13_2 1_555 1_555
H19_2 C13_2 1_555 1_555
C14_2 N3_2 1_555 1_555
C19_2 C14_2 1_555 1_555
C20_2 N3_2 1_555 1_555
C21_2 C20_2 1_555 1_555
H24_2 C21_2 1_555 1_555
H25_2 C21_2 1_555 1_555
H26_2 C21_2 1_555 1_555
N9 C20_2 1_555 1_555
O12 C43_2 1_555 1_555
O2_2 C43_2 1_555 1_555
C43_2 C44_2 1_555 1_555
C44_2 C45_2 1_555 1_555
C45_2 H51_2 1_555 1_555
C46_2 C45_2 1_555 1_555
C49_2 C44_2 1_555 1_555
H53_2 C49_2 1_555 1_555
C48_2 C49_2 1_555 1_555
O11_2 C56_2 1_555 1_555
C38_2 C37_2 1_555 1_555
C39_2 C38_2 1_555 1_555
H48_2 C39_2 1_555 1_555
C40_2 C39_2 1_555 1_555
H49_2 C40_2 1_555 1_555
C41_2 C40_2 1_555 1_555
H50_2 C41_2 1_555 1_555
C42_2 N10 1_555 1_555
C57_2 C56_2 1_555 1_555
H59_2 C57_2 1_555 1_555
C61_2 O11_2 1_555 1_555
H61_2 C61_2 1_555 1_555
H62_2 C61_2 1_555 1_555
C62_2 C61_2 1_555 1_555
H63_2 C62_2 1_555 1_555
H64_2 C62_2 1_555 1_555
C63_2 C62_2 1_555 1_555
H65_2 C63_2 1_555 1_555
H66_2 C63_2 1_555 1_555
H68_2 C64_2 1_555 1_555
C37_2 C42_2 1_555 1_555
C41_2 C42_2 1_555 1_555
C63_2 C64_2 1_555 1_555
H42_2 C34_2 1_555 1_555
H43_2 C34_2 1_555 1_555

#END
