
###############################################################################
#
# This file contains modified crystal structure data generated from the
# MOF subset of the Cambridge Structural Database (CSD) v543 
# hosted by the Cambridge Crystallographic Data Centre (CCDC).
#
# This work is licensed under the Creative Commons
# Attribution-NonCommercial-ShareAlike 4.0 International License.
# To view a copy of this license, visit
# http://creativecommons.org/licenses/by-nc-sa/4.0/
# or send a letter to
# Creative Commons, PO Box 1866, Mountain View, CA 94042, USA.
#
# CIF created using the CSD Python API on 29 September 2022
# The structure has been converted into the P1 space group
# The structure has a 3D framework
# The original CSD entry SUTJAU is in the monoclinic crystal system
# The framework has been calculated to contain at least 10.0% void space
# The void calculation uses a probe of radius 1.32A, grid spacing 0.4
#
###############################################################################

data_SUTJAU
_chemical_formula_moiety         '(C192 H192 N16 Ni8 O44)n'
_symmetry_cell_setting           triclinic
_symmetry_space_group_name_H-M   'P 1'
_symmetry_Int_Tables_number      1
_space_group_name_Hall           'P 1'
loop_
_symmetry_equiv_pos_site_id
_symmetry_equiv_pos_as_xyz
1 x,y,z
_cell_length_a                   17.838(4)
_cell_length_b                   16.951(3)
_cell_length_c                   16.981(3)
_cell_angle_alpha                90
_cell_angle_beta                 104.66(3)
_cell_angle_gamma                90
_cell_volume                     4967.42
loop_
_atom_site_label
_atom_site_type_symbol
_atom_site_fract_x
_atom_site_fract_y
_atom_site_fract_z
N4 N 0.20806(9) 0.75923(10) 0.28262(10)
C43 C 0.06902(14) 0.92814(16) 0.11694(18)
H43 H 0.0666 0.9770 0.1459
H44 H 0.0957 0.9390 0.0749
C44 C 0.11561(12) 0.86893(14) 0.17566(15)
C45 C 0.14596(15) 0.88446(15) 0.25501(18)
H45 H 0.1359 0.9329 0.2760
C46 C 0.19138(14) 0.83048(15) 0.30569(16)
H46 H 0.2118 0.8448 0.3598
C47 C 0.17509(13) 0.74086(15) 0.20554(14)
H47 H 0.1823 0.6905 0.1870
C48 C 0.12984(14) 0.79489(16) 0.15127(16)
H48 H 0.1090 0.7800 0.0975
Ni5 Ni 0.289055(13) 0.682658(16) 0.353696(14)
O6 O 0.57261(7) 0.93050(10) 0.59626(8)
O7 O 0.36769(7) 0.77409(9) 0.39778(8)
O8 O 0.28488(7) 0.73948(9) 0.46583(8)
O9 O 0.32315(7) 0.84758(8) 0.75122(7)
O10 O 0.41398(9) 0.93804(10) 0.79492(9)
O11 O 0.37274(9) 0.60484(10) 0.42538(9)
H1 H 0.3943 0.5801 0.3958
H2 H 0.3870 0.6533 0.4325
N3 N 0.21038(9) 0.59281(10) 0.34770(10)
H9 H 0.8376 0.9557 0.4030
H11 H 0.8274 0.9829 0.5349
C12 C 0.71539(10) 0.95922(12) 0.47307(11)
H12 H 0.6786 0.9808 0.4258
H13 H 0.7256 0.9049 0.4610
C13 C 0.68028(10) 0.96092(13) 0.54455(12)
H14 H 0.7148 0.9345 0.5903
C14 C 0.60260(10) 0.92183(14) 0.52620(12)
H16 H 0.5680 0.9464 0.4793
H17 H 0.6075 0.8664 0.5143
C15 C 0.50173(10) 0.89921(12) 0.59291(11)
C16 C 0.47490(11) 0.90871(11) 0.66254(11)
H18 H 0.5055 0.9349 0.7074
C17 C 0.40390(10) 0.87995(11) 0.66577(11)
C18 C 0.35936(10) 0.83914(11) 0.59912(11)
H19 H 0.3112 0.8192 0.6008
C19 C 0.38627(10) 0.82826(11) 0.53089(11)
C20 C 0.45728(10) 0.85837(12) 0.52773(12)
H20 H 0.4751 0.8510 0.4813
C21 C 0.37893(11) 0.88985(11) 0.74398(11)
C22 C 0.34351(11) 0.77897(12) 0.46158(11)
C36 C 0.14898(11) 0.60323(13) 0.37620(13)
H35 H 0.1383 0.6537 0.3919
C37 C 0.09926(11) 0.54199(13) 0.38387(13)
H36 H 0.0570 0.5520 0.4051
C38 C 0.11259(12) 0.46676(13) 0.36011(13)
C39 C 0.17484(13) 0.45785(14) 0.32749(17)
H37 H 0.1855 0.4086 0.3087
C40 C 0.22135(13) 0.52025(14) 0.32221(15)
H38 H 0.2630 0.5119 0.2996
C41 C 0.06361(13) 0.39555(15) 0.36788(16)
H39 H 0.0324 0.3824 0.3139
H40 H 0.0983 0.3515 0.3863
C42 C 0.01133(14) 0.40184(17) 0.42244(15)
H41 H 0.0339 0.4386 0.4658
H42 H 0.0087 0.3507 0.4473
Ni6 Ni 0.289055(13) 0.817342(16) 0.853696(14)
O14 O 0.32315(7) 0.65242(8) 0.25122(7)
O6_2 O 0.57261(7) 0.56950(10) 0.09626(8)
O10_2 O 0.41398(9) 0.56196(10) 0.29492(9)
H10 H 0.7802 0.4405 0.0034
H11_2 H 0.8274 0.5171 0.0349
C13_2 C 0.68028(10) 0.53908(13) 0.04455(12)
H14_2 H 0.7148 0.5655 0.0903
H15 H 0.6750 0.4847 0.0601
C14_2 C 0.60260(10) 0.57817(14) 0.02620(12)
H17_2 H 0.6075 0.6336 0.0143
C15_2 C 0.50173(10) 0.60079(12) 0.09291(11)
C16_2 C 0.47490(11) 0.59129(11) 0.16254(11)
H18_2 H 0.5055 0.5651 0.2074
C17_2 C 0.40390(10) 0.62005(11) 0.16577(11)
C18_2 C 0.35936(10) 0.66086(11) 0.09912(11)
H19_2 H 0.3112 0.6808 0.1008
C19_2 C 0.38627(10) 0.67174(11) 0.03089(11)
C20_2 C 0.45728(10) 0.64163(12) 0.02773(12)
C21_2 C 0.37893(11) 0.61015(11) 0.24398(11)
O5 O 0.93477(7) 0.44246(9) 0.87273(8)
O7_2 O 0.36769(7) 0.72591(9) 0.89778(8)
O8_2 O 0.28488(7) 0.76052(9) 0.96583(8)
O11_2 O 0.37274(9) 0.89516(10) 0.92538(9)
H1_2 H 0.3943 0.9199 0.8958
H2_2 H 0.3870 0.8467 0.9325
N3_2 N 0.21038(9) 0.90719(10) 0.84770(10)
C9 C 0.89957(10) 0.44346(13) 0.93933(12)
H6 H 0.8880 0.3899 0.9526
H7 H 0.9352 0.4662 0.9868
C10 C 0.82620(10) 0.49117(13) 0.91772(12)
H8 H 0.7900 0.4676 0.8712
H9_2 H 0.8376 0.5443 0.9030
C11 C 0.79034(10) 0.49402(12) 0.98875(11)
C12_2 C 0.71539(10) 0.54078(12) 0.97307(11)
H12_2 H 0.6786 0.5192 0.9258
H13_2 H 0.7256 0.5951 0.9610
H16_2 H 0.5680 0.5536 0.9793
H20_2 H 0.4751 0.6490 0.9813
C22_2 C 0.34351(11) 0.72103(12) 0.96158(11)
C36_2 C 0.14898(11) 0.89677(13) 0.87620(13)
H35_2 H 0.1383 0.8463 0.8919
C37_2 C 0.09926(11) 0.95801(13) 0.88387(13)
H36_2 H 0.0570 0.9480 0.9051
C40_2 C 0.22135(13) 0.97975(14) 0.82221(15)
H38_2 H 0.2630 0.9881 0.7996
N6 N 0.20806(9) 0.74077(10) 0.78262(10)
C43_2 C 0.06902(14) 0.57186(16) 0.61694(18)
H43_2 H 0.0666 0.5230 0.6459
H44_2 H 0.0957 0.5610 0.5749
C44_2 C 0.11561(12) 0.63107(14) 0.67566(15)
C45_2 C 0.14596(15) 0.61554(15) 0.75501(18)
H45_2 H 0.1359 0.5671 0.7760
C46_2 C 0.19138(14) 0.66952(15) 0.80569(16)
H46_2 H 0.2118 0.6552 0.8598
C47_2 C 0.17509(13) 0.75914(15) 0.70554(14)
H47_2 H 0.1823 0.8095 0.6870
C48_2 C 0.12984(14) 0.70511(16) 0.65127(16)
H48_2 H 0.1090 0.7200 0.5975
Ni2 Ni 0.710945(13) 0.182658(16) 0.146304(14)
O5_2 O 0.06523(7) 0.55754(9) 0.12727(8)
O7_3 O 0.63231(7) 0.27409(9) 0.10222(8)
O8_3 O 0.71512(7) 0.23948(9) 0.03417(8)
O11_3 O 0.62726(9) 0.10484(10) 0.07462(9)
H1_3 H 0.6057 0.0801 0.1042
H2_3 H 0.6130 0.1533 0.0675
N3_3 N 0.78962(9) 0.09281(10) 0.15230(10)
C9_2 C 0.10043(10) 0.55654(13) 0.06067(12)
H6_2 H 0.1120 0.6101 0.0474
H7_2 H 0.0648 0.5338 0.0132
C10_2 C 0.17380(10) 0.50883(13) 0.08228(12)
H8_2 H 0.2100 0.5324 0.1288
H9_3 H 0.1624 0.4557 0.0970
C11_2 C 0.20966(10) 0.50598(12) 0.01125(11)
C12_3 C 0.28461(10) 0.45922(12) 0.02693(11)
H12_3 H 0.3214 0.4808 0.0742
H13_3 H 0.2744 0.4049 0.0390
H16_3 H 0.4320 0.4464 0.0207
H20_3 H 0.5249 0.3510 0.0187
C22_3 C 0.65649(11) 0.27897(12) 0.03842(11)
C36_3 C 0.85102(11) 0.10323(13) 0.12380(13)
H35_3 H 0.8617 0.1537 0.1081
C37_3 C 0.90074(11) 0.04199(13) 0.11613(13)
H36_3 H 0.9430 0.0520 0.0949
C40_3 C 0.77865(13) 0.02025(14) 0.17779(15)
H38_3 H 0.7370 0.0119 0.2004
O14_2 O 0.67685(7) 0.15242(8) 0.24878(7)
N6_2 N 0.79194(9) 0.25923(10) 0.21738(10)
O6_3 O 0.42739(7) 0.43050(10) 0.90374(8)
O9_2 O 0.67685(7) 0.34758(8) 0.74878(7)
O10_3 O 0.58602(9) 0.43804(10) 0.70508(9)
H10_2 H 0.2198 0.5595 0.9966
H11_3 H 0.1726 0.4829 0.9651
C13_3 C 0.31972(10) 0.46092(13) 0.95545(12)
H14_3 H 0.2852 0.4345 0.9097
H15_2 H 0.3250 0.5153 0.9399
C14_3 C 0.39740(10) 0.42183(14) 0.97380(12)
H17_3 H 0.3925 0.3664 0.9857
C15_3 C 0.49827(10) 0.39921(12) 0.90709(11)
C16_3 C 0.52510(11) 0.40871(11) 0.83746(11)
H18_3 H 0.4945 0.4349 0.7926
C17_3 C 0.59610(10) 0.37995(11) 0.83423(11)
C18_3 C 0.64064(10) 0.33914(11) 0.90088(11)
H19_3 H 0.6888 0.3192 0.8992
C19_3 C 0.61373(10) 0.32826(11) 0.96911(11)
C20_3 C 0.54272(10) 0.35837(12) 0.97227(12)
C21_3 C 0.62107(11) 0.38985(11) 0.75602(11)
Ni6_2 Ni 0.710945(13) 0.317342(16) 0.646304(14)
C43_3 C 0.93098(14) 0.42814(16) 0.38306(18)
H43_3 H 0.9334 0.4770 0.3541
H44_3 H 0.9043 0.4390 0.4251
C44_3 C 0.88439(12) 0.36893(14) 0.32434(15)
C45_3 C 0.85404(15) 0.38446(15) 0.24499(18)
H45_3 H 0.8641 0.4329 0.2240
C46_3 C 0.80862(14) 0.33048(15) 0.19431(16)
H46_3 H 0.7882 0.3448 0.1402
C47_3 C 0.82491(13) 0.24086(15) 0.29446(14)
H47_3 H 0.8177 0.1905 0.3130
C48_3 C 0.87016(14) 0.29489(16) 0.34873(16)
H48_3 H 0.8910 0.2800 0.4025
N4_2 N 0.79194(9) 0.24077(10) 0.71738(10)
C43_4 C 0.93098(14) 0.07186(16) 0.88306(18)
H43_4 H 0.9334 0.0230 0.8541
H44_4 H 0.9043 0.0610 0.9251
C44_4 C 0.88439(12) 0.13107(14) 0.82434(15)
C45_4 C 0.85404(15) 0.11554(15) 0.74499(18)
H45_4 H 0.8641 0.0671 0.7240
C46_4 C 0.80862(14) 0.16952(15) 0.69431(16)
H46_4 H 0.7882 0.1552 0.6402
C47_4 C 0.82491(13) 0.25914(15) 0.79446(14)
H47_4 H 0.8177 0.3095 0.8130
C48_4 C 0.87016(14) 0.20511(16) 0.84873(16)
H48_4 H 0.8910 0.2200 0.9025
O6_4 O 0.42739(7) 0.06950(10) 0.40374(8)
O7_4 O 0.63231(7) 0.22591(9) 0.60222(8)
O8_4 O 0.71512(7) 0.26052(9) 0.53417(8)
O10_4 O 0.58602(9) 0.06196(10) 0.20508(9)
O11_4 O 0.62726(9) 0.39516(10) 0.57462(9)
H1_4 H 0.6057 0.4199 0.6042
H2_4 H 0.6130 0.3467 0.5675
N3_4 N 0.78962(9) 0.40719(10) 0.65230(10)
H9_4 H 0.1624 0.0443 0.5970
H11_4 H 0.1726 0.0171 0.4651
C12_4 C 0.28461(10) 0.04078(12) 0.52693(11)
H12_4 H 0.3214 0.0192 0.5742
H13_4 H 0.2744 0.0951 0.5390
C13_4 C 0.31972(10) 0.03908(13) 0.45545(12)
H14_4 H 0.2852 0.0655 0.4097
C14_4 C 0.39740(10) 0.07817(14) 0.47380(12)
H16_4 H 0.4320 0.0536 0.5207
H17_4 H 0.3925 0.1336 0.4857
C15_4 C 0.49827(10) 0.10079(12) 0.40709(11)
C16_4 C 0.52510(11) 0.09129(11) 0.33746(11)
H18_4 H 0.4945 0.0651 0.2926
C17_4 C 0.59610(10) 0.12005(11) 0.33423(11)
C18_4 C 0.64064(10) 0.16086(11) 0.40088(11)
H19_4 H 0.6888 0.1808 0.3992
C19_4 C 0.61373(10) 0.17174(11) 0.46911(11)
C20_4 C 0.54272(10) 0.14163(12) 0.47227(12)
H20_4 H 0.5249 0.1490 0.5187
C21_4 C 0.62107(11) 0.11015(11) 0.25602(11)
C22_4 C 0.65649(11) 0.22103(12) 0.53842(11)
C36_4 C 0.85102(11) 0.39677(13) 0.62380(13)
H35_4 H 0.8617 0.3463 0.6081
C37_4 C 0.90074(11) 0.45801(13) 0.61613(13)
H36_4 H 0.9430 0.4480 0.5949
C38_2 C 0.88741(12) 0.53324(13) 0.63989(13)
C39_2 C 0.82516(13) 0.54215(14) 0.67251(17)
H37_2 H 0.8145 0.5914 0.6913
C40_4 C 0.77865(13) 0.47975(14) 0.67779(15)
H38_4 H 0.7370 0.4881 0.7004
C41_2 C 0.93639(13) 0.60445(15) 0.63212(16)
H39_2 H 0.9676 0.6176 0.6861
H40_2 H 0.9017 0.6485 0.6137
C42_2 C 0.98867(14) 0.59816(17) 0.57756(15)
H41_2 H 0.9661 0.5614 0.5342
H42_2 H 0.9913 0.6493 0.5527
C38_3 C 0.88741(12) 0.96676(13) 0.13989(13)
C39_3 C 0.82516(13) 0.95785(14) 0.17251(17)
H37_3 H 0.8145 0.9086 0.1913
C41_3 C 0.93639(13) 0.89555(15) 0.13212(16)
H39_3 H 0.9676 0.8824 0.1861
H40_3 H 0.9017 0.8515 0.1137
C42_3 C 0.98867(14) 0.90184(17) 0.07756(15)
H41_3 H 0.9661 0.9386 0.0342
H42_3 H 0.9913 0.8507 0.0527
N2 N 0.25369(8) 0.08273(9) 0.15214(9)
C33 C 0.24623(12) 0.03744(13) 0.08692(12)
H32 H 0.2199 0.0574 0.0365
C34 C 0.29123(12) 0.05284(12) 0.22309(12)
H33 H 0.2982 0.0842 0.2693
Ni3 Ni 0.204761(12) 0.191085(14) 0.147749(13)
Ni1 Ni 0.795239(12) 0.691085(14) 0.352251(13)
O1 O 0.90070(7) 0.63654(8) 0.32036(7)
O2 O 0.80291(7) 0.69530(8) 0.23676(7)
N1 N 0.69406(9) 0.75216(10) 0.33277(9)
C1 C 0.86840(10) 0.66104(11) 0.25052(10)
C2 C 0.90347(9) 0.65181(11) 0.18073(10)
C3 C 0.86890(10) 0.69131(10) 0.10957(11)
H3 H 0.8247 0.7214 0.1066
C4 C 0.89943(10) 0.68640(10) 0.04326(11)
C5 C 0.96436(10) 0.64131(11) 0.04610(11)
H4 H 0.9845 0.6375 0.0008
C6 C 0.99960(10) 0.60141(11) 0.11783(11)
C7 C 0.96958(10) 0.60770(11) 0.18511(11)
H5 H 0.9939 0.5822 0.2333
C23 C 0.68316(12) 0.81869(13) 0.28900(15)
H21 H 0.7246 0.8392 0.2715
C24 C 0.61395(13) 0.85806(14) 0.26875(16)
H22 H 0.6087 0.9034 0.2369
C25 C 0.55231(12) 0.83048(13) 0.29550(13)
C26 C 0.56507(12) 0.76400(15) 0.34231(15)
H23 H 0.5249 0.7432 0.3617
C27 C 0.63442(12) 0.72802(15) 0.36091(14)
H24 H 0.6412 0.6842 0.3950
C28 C 0.47409(12) 0.86805(14) 0.27038(15)
H25 H 0.4800 0.9249 0.2689
H26 H 0.4453 0.8559 0.3102
C29 C 0.42963(13) 0.83956(15) 0.18825(16)
H27 H 0.4420 0.7844 0.1831
H28 H 0.4473 0.8685 0.1471
C30 C 0.34235(13) 0.84775(14) 0.17053(18)
H29 H 0.3193 0.8206 0.1199
H30 H 0.3250 0.8212 0.2133
C31 C 0.31270(11) 0.93007(12) 0.16399(13)
C32 C 0.27551(13) 0.96275(13) 0.09060(14)
H31 H 0.2702 0.9338 0.0430
C35 C 0.32023(12) 0.97755(13) 0.23123(12)
H34 H 0.3451 0.9585 0.2825
O12 O 0.82266(8) 0.70822(8) 0.47534(7)
O13 O 0.86608(7) 0.79109(8) 0.39910(7)
N5 N 0.74631(8) 0.58273(9) 0.34786(9)
O3 O 0.82266(8) 0.79178(8) 0.97534(7)
O4 O 0.86608(7) 0.70891(8) 0.89910(7)
C8 C 0.86107(9) 0.73096(11) 0.96789(10)
Ni4 Ni 0.795239(12) 0.808915(14) 0.852251(13)
O1_2 O 0.09930(7) 0.13654(8) 0.17964(7)
O2_2 O 0.19709(7) 0.19530(8) 0.26324(7)
O3_2 O 0.17734(8) 0.29178(8) 0.52466(7)
O4_2 O 0.13392(7) 0.20891(8) 0.60090(7)
N1_2 N 0.30594(9) 0.25216(10) 0.16723(9)
C1_2 C 0.13160(10) 0.16104(11) 0.24948(10)
C2_2 C 0.09653(9) 0.15181(11) 0.31927(10)
C3_2 C 0.13110(10) 0.19131(10) 0.39043(11)
H3_2 H 0.1753 0.2214 0.3934
C4_2 C 0.10057(10) 0.18640(10) 0.45674(11)
C5_2 C 0.03564(10) 0.14131(11) 0.45390(11)
H4_2 H 0.0155 0.1375 0.4992
C6_2 C 0.00040(10) 0.10141(11) 0.38217(11)
C7_2 C 0.03042(10) 0.10770(11) 0.31489(11)
H5_2 H 0.0061 0.0822 0.2667
C8_2 C 0.13893(9) 0.23096(11) 0.53211(10)
C23_2 C 0.31684(12) 0.31869(13) 0.21100(15)
H21_2 H 0.2754 0.3392 0.2285
C24_2 C 0.38605(13) 0.35806(14) 0.23125(16)
H22_2 H 0.3913 0.4034 0.2631
C25_2 C 0.44769(12) 0.33048(13) 0.20450(13)
C26_2 C 0.43493(12) 0.26400(15) 0.15769(15)
H23_2 H 0.4751 0.2432 0.1383
C27_2 C 0.36558(12) 0.22802(15) 0.13909(14)
H24_2 H 0.3588 0.1842 0.1050
C28_2 C 0.52591(12) 0.36805(14) 0.22962(15)
H25_2 H 0.5200 0.4249 0.2311
H26_2 H 0.5547 0.3559 0.1898
C29_2 C 0.57037(13) 0.33956(15) 0.31175(16)
H27_2 H 0.5580 0.2844 0.3169
H28_2 H 0.5527 0.3685 0.3529
C30_2 C 0.65765(13) 0.34775(14) 0.32947(18)
H29_2 H 0.6807 0.3206 0.3801
H30_2 H 0.6750 0.3212 0.2867
C31_2 C 0.68730(11) 0.43007(12) 0.33601(13)
C32_2 C 0.72449(13) 0.46275(13) 0.40940(14)
H31_2 H 0.7298 0.4338 0.4570
C33_2 C 0.75377(12) 0.53744(13) 0.41308(12)
H32_2 H 0.7801 0.5574 0.4635
C34_2 C 0.70877(12) 0.55284(12) 0.27691(12)
H33_2 H 0.7018 0.5842 0.2307
C35_2 C 0.67977(12) 0.47755(13) 0.26877(12)
H34_2 H 0.6549 0.4585 0.2175
Ni4_2 Ni 0.204761(12) 0.308915(14) 0.647749(13)
O12_2 O 0.17734(8) 0.20822(8) 0.02466(7)
O13_2 O 0.13392(7) 0.29109(8) 0.10090(7)
C8_3 C 0.13893(9) 0.26904(11) 0.03211(10)
O1_3 O 0.09930(7) 0.36346(8) 0.67964(7)
O2_3 O 0.19709(7) 0.30470(8) 0.76324(7)
N1_3 N 0.30594(9) 0.24784(10) 0.66723(9)
C1_3 C 0.13160(10) 0.33896(11) 0.74948(10)
C2_3 C 0.09653(9) 0.34819(11) 0.81927(10)
C3_3 C 0.13110(10) 0.30869(10) 0.89043(11)
H3_3 H 0.1753 0.2786 0.8934
C4_3 C 0.10057(10) 0.31360(10) 0.95674(11)
C5_3 C 0.03564(10) 0.35869(11) 0.95390(11)
H4_3 H 0.0155 0.3625 0.9992
C6_3 C 0.00040(10) 0.39859(11) 0.88217(11)
C7_3 C 0.03042(10) 0.39230(11) 0.81489(11)
H5_3 H 0.0061 0.4178 0.7667
C23_3 C 0.31684(12) 0.18131(13) 0.71100(15)
H21_3 H 0.2754 0.1608 0.7285
C24_3 C 0.38605(13) 0.14194(14) 0.73125(16)
H22_3 H 0.3913 0.0966 0.7631
C25_3 C 0.44769(12) 0.16952(13) 0.70450(13)
C26_3 C 0.43493(12) 0.23600(15) 0.65769(15)
H23_3 H 0.4751 0.2568 0.6383
C27_3 C 0.36558(12) 0.27198(15) 0.63909(14)
H24_3 H 0.3588 0.3158 0.6050
C28_3 C 0.52591(12) 0.13195(14) 0.72962(15)
H25_3 H 0.5200 0.0751 0.7311
H26_3 H 0.5547 0.1441 0.6898
C29_3 C 0.57037(13) 0.16044(15) 0.81175(16)
H27_3 H 0.5580 0.2156 0.8169
H28_3 H 0.5527 0.1315 0.8529
C30_3 C 0.65765(13) 0.15225(14) 0.82947(18)
H29_3 H 0.6807 0.1794 0.8801
H30_3 H 0.6750 0.1788 0.7867
C31_3 C 0.68730(11) 0.06993(12) 0.83601(13)
C32_3 C 0.72449(13) 0.03725(13) 0.90940(14)
H31_3 H 0.7298 0.0662 0.9570
C35_3 C 0.67977(12) 0.02245(13) 0.76877(12)
H34_3 H 0.6549 0.0415 0.7175
N5_2 N 0.25369(8) 0.41727(9) 0.65214(9)
N2_2 N 0.74631(8) 0.91727(9) 0.84786(9)
C33_3 C 0.75377(12) 0.96256(13) 0.91308(12)
H32_3 H 0.7801 0.9426 0.9635
C34_3 C 0.70877(12) 0.94716(12) 0.77691(12)
H33_3 H 0.7018 0.9158 0.7307
O1_4 O 0.90070(7) 0.86346(8) 0.82036(7)
O2_4 O 0.80291(7) 0.80470(8) 0.73676(7)
N1_4 N 0.69406(9) 0.74784(10) 0.83277(9)
C1_4 C 0.86840(10) 0.83896(11) 0.75052(10)
C2_4 C 0.90347(9) 0.84819(11) 0.68073(10)
C3_4 C 0.86890(10) 0.80869(10) 0.60957(11)
H3_4 H 0.8247 0.7786 0.6066
C4_4 C 0.89943(10) 0.81360(10) 0.54326(11)
C5_4 C 0.96436(10) 0.85869(11) 0.54610(11)
H4_4 H 0.9845 0.8625 0.5008
C6_4 C 0.99960(10) 0.89859(11) 0.61783(11)
C7_4 C 0.96958(10) 0.89230(11) 0.68511(11)
H5_4 H 0.9939 0.9178 0.7333
C8_4 C 0.86107(9) 0.76904(11) 0.46789(10)
C23_4 C 0.68316(12) 0.68131(13) 0.78900(15)
H21_4 H 0.7246 0.6608 0.7715
C24_4 C 0.61395(13) 0.64194(14) 0.76875(16)
H22_4 H 0.6087 0.5966 0.7369
C25_4 C 0.55231(12) 0.66952(13) 0.79550(13)
C26_4 C 0.56507(12) 0.73600(15) 0.84231(15)
H23_4 H 0.5249 0.7568 0.8617
C27_4 C 0.63442(12) 0.77198(15) 0.86091(14)
H24_4 H 0.6412 0.8158 0.8950
C28_4 C 0.47409(12) 0.63195(14) 0.77038(15)
H25_4 H 0.4800 0.5751 0.7689
H26_4 H 0.4453 0.6441 0.8102
C29_4 C 0.42963(13) 0.66044(15) 0.68825(16)
H27_4 H 0.4420 0.7156 0.6831
H28_4 H 0.4473 0.6315 0.6471
C30_4 C 0.34235(13) 0.65225(14) 0.67053(18)
H29_4 H 0.3193 0.6794 0.6199
H30_4 H 0.3250 0.6788 0.7133
C31_4 C 0.31270(11) 0.56993(12) 0.66399(13)
C32_4 C 0.27551(13) 0.53725(13) 0.59060(14)
H31_4 H 0.2702 0.5662 0.5430
C33_4 C 0.24623(12) 0.46256(13) 0.58692(12)
H32_4 H 0.2199 0.4426 0.5365
C34_4 C 0.29123(12) 0.44716(12) 0.72309(12)
H33_4 H 0.2982 0.4158 0.7693
C35_4 C 0.32023(12) 0.52245(13) 0.73123(12)
H34_4 H 0.3451 0.5415 0.7825
O5_3 O 0.93477(7) 0.05754(9) 0.37273(8)
C9_3 C 0.89957(10) 0.05654(13) 0.43933(12)
H6_3 H 0.8880 0.1101 0.4526
H7_3 H 0.9352 0.0338 0.4868
C10_3 C 0.82620(10) 0.00883(13) 0.41772(12)
H8_3 H 0.7900 0.0324 0.3712
C11_3 C 0.79034(10) 0.00598(12) 0.48875(11)
H10_3 H 0.7802 0.0595 0.5034
H15_3 H 0.6750 0.0153 0.5601
C38_4 C 0.11259(12) 0.03324(13) 0.86011(13)
C39_4 C 0.17484(13) 0.04215(14) 0.82749(17)
H37_4 H 0.1855 0.0914 0.8087
C41_4 C 0.06361(13) 0.10445(15) 0.86788(16)
H39_4 H 0.0324 0.1176 0.8139
H40_4 H 0.0983 0.1485 0.8863
C42_4 C 0.01133(14) 0.09816(17) 0.92244(15)
H41_4 H 0.0339 0.0614 0.9658
H42_4 H 0.0087 0.1493 0.9473
O5_4 O 0.06523(7) 0.94246(9) 0.62727(8)
C9_4 C 0.10043(10) 0.94346(13) 0.56067(12)
H6_4 H 0.1120 0.8899 0.5474
H7_4 H 0.0648 0.9662 0.5132
C10_4 C 0.17380(10) 0.99117(13) 0.58228(12)
H8_4 H 0.2100 0.9676 0.6288
C11_4 C 0.20966(10) 0.99402(12) 0.51125(11)
H10_4 H 0.2198 0.9405 0.4966
H15_4 H 0.3250 0.9847 0.4399
loop_
_geom_bond_atom_site_label_1
_geom_bond_atom_site_label_2
_geom_bond_site_symmetry_1
_geom_bond_site_symmetry_2
N4 C46 1_555 1_555
H43 C43 1_555 1_555
H44 C43 1_555 1_555
C44 C43 1_555 1_555
C45 C44 1_555 1_555
H45 C45 1_555 1_555
C46 C45 1_555 1_555
H46 C46 1_555 1_555
C47 N4 1_555 1_555
H47 C47 1_555 1_555
C48 C44 1_555 1_555
H48 C48 1_555 1_555
Ni5 N4 1_555 1_555
C47 C48 1_555 1_555
Ni5 O7 1_555 1_555
O6 C14 1_555 1_555
O7 C22 1_555 1_555
O8 Ni5 1_555 1_555
O9 C21 1_555 1_555
O10 C21 1_555 1_555
O11 Ni5 1_555 1_555
H1 O11 1_555 1_555
H2 O11 1_555 1_555
N3 Ni5 1_555 1_555
H12 C12 1_555 1_555
H13 C12 1_555 1_555
C13 C12 1_555 1_555
H14 C13 1_555 1_555
C14 C13 1_555 1_555
H16 C14 1_555 1_555
H17 C14 1_555 1_555
C15 O6 1_555 1_555
C16 C15 1_555 1_555
H18 C16 1_555 1_555
C17 C16 1_555 1_555
C18 C17 1_555 1_555
H19 C18 1_555 1_555
C19 C18 1_555 1_555
C20 C15 1_555 1_555
H20 C20 1_555 1_555
C21 C17 1_555 1_555
C22 O8 1_555 1_555
C36 N3 1_555 1_555
H35 C36 1_555 1_555
C37 C36 1_555 1_555
H36 C37 1_555 1_555
C38 C37 1_555 1_555
C39 C38 1_555 1_555
H37 C39 1_555 1_555
C40 N3 1_555 1_555
H38 C40 1_555 1_555
C41 C38 1_555 1_555
H39 C41 1_555 1_555
H40 C41 1_555 1_555
C42 C41 1_555 1_555
H41 C42 1_555 1_555
H42 C42 1_555 1_555
Ni6 O9 1_555 1_555
O14 Ni5 1_555 1_555
C19 C20 1_555 1_555
C19 C22 1_555 1_555
C39 C40 1_555 1_555
O6_2 C14_2 1_555 1_555
O14 C21_2 1_555 1_555
O10_2 C21_2 1_555 1_555
H14_2 C13_2 1_555 1_555
H15 C13_2 1_555 1_555
C14_2 C13_2 1_555 1_555
H17_2 C14_2 1_555 1_555
C15_2 O6_2 1_555 1_555
C16_2 C15_2 1_555 1_555
H18_2 C16_2 1_555 1_555
C17_2 C16_2 1_555 1_555
C18_2 C17_2 1_555 1_555
H19_2 C18_2 1_555 1_555
C19_2 C18_2 1_555 1_555
C20_2 C15_2 1_555 1_555
C21_2 C17_2 1_555 1_555
C19_2 C20_2 1_555 1_555
Ni6 O7_2 1_555 1_555
O7_2 C22_2 1_555 1_555
O8_2 Ni6 1_555 1_555
O11_2 Ni6 1_555 1_555
H1_2 O11_2 1_555 1_555
H2_2 O11_2 1_555 1_555
N3_2 Ni6 1_555 1_555
C9 O5 1_555 1_555
H6 C9 1_555 1_555
H7 C9 1_555 1_555
C10 C9 1_555 1_555
H8 C10 1_555 1_555
H9_2 C10 1_555 1_555
C11 C10 1_555 1_555
C12_2 C11 1_555 1_555
H12_2 C12_2 1_555 1_555
H13_2 C12_2 1_555 1_555
C22_2 O8_2 1_555 1_555
C36_2 N3_2 1_555 1_555
H35_2 C36_2 1_555 1_555
C37_2 C36_2 1_555 1_555
H36_2 C37_2 1_555 1_555
C40_2 N3_2 1_555 1_555
H38_2 C40_2 1_555 1_555
N6 Ni6 1_555 1_555
N6 C46_2 1_555 1_555
H43_2 C43_2 1_555 1_555
H44_2 C43_2 1_555 1_555
C44_2 C43_2 1_555 1_555
C45_2 C44_2 1_555 1_555
H45_2 C45_2 1_555 1_555
C46_2 C45_2 1_555 1_555
H46_2 C46_2 1_555 1_555
C47_2 N6 1_555 1_555
H47_2 C47_2 1_555 1_555
C48_2 C44_2 1_555 1_555
H48_2 C48_2 1_555 1_555
C47_2 C48_2 1_555 1_555
Ni2 O7_3 1_555 1_555
O7_3 C22_3 1_555 1_555
O8_3 Ni2 1_555 1_555
O11_3 Ni2 1_555 1_555
H1_3 O11_3 1_555 1_555
H2_3 O11_3 1_555 1_555
N3_3 Ni2 1_555 1_555
C9_2 O5_2 1_555 1_555
H6_2 C9_2 1_555 1_555
H7_2 C9_2 1_555 1_555
C10_2 C9_2 1_555 1_555
H8_2 C10_2 1_555 1_555
H9_3 C10_2 1_555 1_555
C11_2 C10_2 1_555 1_555
C12_3 C11_2 1_555 1_555
H12_3 C12_3 1_555 1_555
H13_3 C12_3 1_555 1_555
C22_3 O8_3 1_555 1_555
C36_3 N3_3 1_555 1_555
H35_3 C36_3 1_555 1_555
C37_3 C36_3 1_555 1_555
H36_3 C37_3 1_555 1_555
C40_3 N3_3 1_555 1_555
H38_3 C40_3 1_555 1_555
O14_2 Ni2 1_555 1_555
N6_2 Ni2 1_555 1_555
O6_3 C14_3 1_555 1_555
O9_2 C21_3 1_555 1_555
O10_3 C21_3 1_555 1_555
H14_3 C13_3 1_555 1_555
H15_2 C13_3 1_555 1_555
C14_3 C13_3 1_555 1_555
H17_3 C14_3 1_555 1_555
C15_3 O6_3 1_555 1_555
C16_3 C15_3 1_555 1_555
H18_3 C16_3 1_555 1_555
C17_3 C16_3 1_555 1_555
C18_3 C17_3 1_555 1_555
H19_3 C18_3 1_555 1_555
C19_3 C18_3 1_555 1_555
C20_3 C15_3 1_555 1_555
C21_3 C17_3 1_555 1_555
Ni6_2 O9_2 1_555 1_555
C19_3 C20_3 1_555 1_555
N6_2 C46_3 1_555 1_555
H43_3 C43_3 1_555 1_555
H44_3 C43_3 1_555 1_555
C44_3 C43_3 1_555 1_555
C45_3 C44_3 1_555 1_555
H45_3 C45_3 1_555 1_555
C46_3 C45_3 1_555 1_555
H46_3 C46_3 1_555 1_555
C47_3 N6_2 1_555 1_555
H47_3 C47_3 1_555 1_555
C48_3 C44_3 1_555 1_555
H48_3 C48_3 1_555 1_555
C47_3 C48_3 1_555 1_555
N4_2 C46_4 1_555 1_555
H43_4 C43_4 1_555 1_555
H44_4 C43_4 1_555 1_555
C44_4 C43_4 1_555 1_555
C45_4 C44_4 1_555 1_555
H45_4 C45_4 1_555 1_555
C46_4 C45_4 1_555 1_555
H46_4 C46_4 1_555 1_555
C47_4 N4_2 1_555 1_555
H47_4 C47_4 1_555 1_555
C48_4 C44_4 1_555 1_555
H48_4 C48_4 1_555 1_555
Ni6_2 N4_2 1_555 1_555
C47_4 C48_4 1_555 1_555
Ni6_2 O7_4 1_555 1_555
O6_4 C14_4 1_555 1_555
O7_4 C22_4 1_555 1_555
O8_4 Ni6_2 1_555 1_555
O14_2 C21_4 1_555 1_555
O10_4 C21_4 1_555 1_555
O11_4 Ni6_2 1_555 1_555
H1_4 O11_4 1_555 1_555
H2_4 O11_4 1_555 1_555
N3_4 Ni6_2 1_555 1_555
H12_4 C12_4 1_555 1_555
H13_4 C12_4 1_555 1_555
C13_4 C12_4 1_555 1_555
H14_4 C13_4 1_555 1_555
C14_4 C13_4 1_555 1_555
H16_4 C14_4 1_555 1_555
H17_4 C14_4 1_555 1_555
C15_4 O6_4 1_555 1_555
C16_4 C15_4 1_555 1_555
H18_4 C16_4 1_555 1_555
C17_4 C16_4 1_555 1_555
C18_4 C17_4 1_555 1_555
H19_4 C18_4 1_555 1_555
C19_4 C18_4 1_555 1_555
C20_4 C15_4 1_555 1_555
H20_4 C20_4 1_555 1_555
C21_4 C17_4 1_555 1_555
C22_4 O8_4 1_555 1_555
C36_4 N3_4 1_555 1_555
H35_4 C36_4 1_555 1_555
C37_4 C36_4 1_555 1_555
H36_4 C37_4 1_555 1_555
C38_2 C37_4 1_555 1_555
C39_2 C38_2 1_555 1_555
H37_2 C39_2 1_555 1_555
C40_4 N3_4 1_555 1_555
H38_4 C40_4 1_555 1_555
C41_2 C38_2 1_555 1_555
H39_2 C41_2 1_555 1_555
H40_2 C41_2 1_555 1_555
C42_2 C41_2 1_555 1_555
H41_2 C42_2 1_555 1_555
H42_2 C42_2 1_555 1_555
C19_4 C20_4 1_555 1_555
C19_4 C22_4 1_555 1_555
C39_2 C40_4 1_555 1_555
C39_3 C38_3 1_555 1_555
H37_3 C39_3 1_555 1_555
C41_3 C38_3 1_555 1_555
H39_3 C41_3 1_555 1_555
H40_3 C41_3 1_555 1_555
C42_3 C41_3 1_555 1_555
H41_3 C42_3 1_555 1_555
H42_3 C42_3 1_555 1_555
N2 C33 1_555 1_555
H32 C33 1_555 1_555
C34 N2 1_555 1_555
H33 C34 1_555 1_555
Ni3 N2 1_555 1_555
Ni1 O1 1_555 1_555
O1 C1 1_555 1_555
O2 Ni1 1_555 1_555
N1 Ni1 1_555 1_555
C1 O2 1_555 1_555
C2 C1 1_555 1_555
C3 C2 1_555 1_555
H3 C3 1_555 1_555
C4 C3 1_555 1_555
C5 C4 1_555 1_555
H4 C5 1_555 1_555
C6 C5 1_555 1_555
C7 C2 1_555 1_555
H5 C7 1_555 1_555
C23 N1 1_555 1_555
H21 C23 1_555 1_555
C24 C23 1_555 1_555
H22 C24 1_555 1_555
C25 C24 1_555 1_555
C26 C25 1_555 1_555
H23 C26 1_555 1_555
C27 N1 1_555 1_555
H24 C27 1_555 1_555
C28 C25 1_555 1_555
H25 C28 1_555 1_555
H26 C28 1_555 1_555
C29 C28 1_555 1_555
H27 C29 1_555 1_555
H28 C29 1_555 1_555
C30 C29 1_555 1_555
H29 C30 1_555 1_555
H30 C30 1_555 1_555
C31 C30 1_555 1_555
C32 C31 1_555 1_555
H31 C32 1_555 1_555
C35 C31 1_555 1_555
H34 C35 1_555 1_555
O12 Ni1 1_555 1_555
O13 Ni1 1_555 1_555
N5 Ni1 1_555 1_555
C6 C7 1_555 1_555
C26 C27 1_555 1_555
O3 C8 1_555 1_555
O4 C8 1_555 1_555
Ni4 O3 1_555 1_555
O4 Ni4 1_555 1_555
Ni3 O1_2 1_555 1_555
O1_2 C1_2 1_555 1_555
O2_2 Ni3 1_555 1_555
O3_2 C8_2 1_555 1_555
O4_2 C8_2 1_555 1_555
N1_2 Ni3 1_555 1_555
N5 C33_2 1_555 1_555
C1_2 O2_2 1_555 1_555
C2_2 C1_2 1_555 1_555
C3_2 C2_2 1_555 1_555
H3_2 C3_2 1_555 1_555
C4_2 C3_2 1_555 1_555
C5_2 C4_2 1_555 1_555
H4_2 C5_2 1_555 1_555
C6_2 C5_2 1_555 1_555
C7_2 C2_2 1_555 1_555
H5_2 C7_2 1_555 1_555
C8_2 C4_2 1_555 1_555
C23_2 N1_2 1_555 1_555
H21_2 C23_2 1_555 1_555
C24_2 C23_2 1_555 1_555
H22_2 C24_2 1_555 1_555
C25_2 C24_2 1_555 1_555
C26_2 C25_2 1_555 1_555
H23_2 C26_2 1_555 1_555
C27_2 N1_2 1_555 1_555
H24_2 C27_2 1_555 1_555
C28_2 C25_2 1_555 1_555
H25_2 C28_2 1_555 1_555
H26_2 C28_2 1_555 1_555
C29_2 C28_2 1_555 1_555
H27_2 C29_2 1_555 1_555
H28_2 C29_2 1_555 1_555
C30_2 C29_2 1_555 1_555
H29_2 C30_2 1_555 1_555
H30_2 C30_2 1_555 1_555
C31_2 C30_2 1_555 1_555
C32_2 C31_2 1_555 1_555
H31_2 C32_2 1_555 1_555
C33_2 C32_2 1_555 1_555
H32_2 C33_2 1_555 1_555
C34_2 N5 1_555 1_555
H33_2 C34_2 1_555 1_555
C35_2 C31_2 1_555 1_555
H34_2 C35_2 1_555 1_555
Ni4_2 O3_2 1_555 1_555
O12_2 Ni3 1_555 1_555
O13_2 Ni3 1_555 1_555
O4_2 Ni4_2 1_555 1_555
C6_2 C7_2 1_555 1_555
C26_2 C27_2 1_555 1_555
C34_2 C35_2 1_555 1_555
O12_2 C8_3 1_555 1_555
O13_2 C8_3 1_555 1_555
Ni4_2 O1_3 1_555 1_555
O1_3 C1_3 1_555 1_555
O2_3 Ni4_2 1_555 1_555
N1_3 Ni4_2 1_555 1_555
C1_3 O2_3 1_555 1_555
C2_3 C1_3 1_555 1_555
C3_3 C2_3 1_555 1_555
H3_3 C3_3 1_555 1_555
C4_3 C3_3 1_555 1_555
C5_3 C4_3 1_555 1_555
H4_3 C5_3 1_555 1_555
C6_3 C5_3 1_555 1_555
C7_3 C2_3 1_555 1_555
H5_3 C7_3 1_555 1_555
C23_3 N1_3 1_555 1_555
H21_3 C23_3 1_555 1_555
C24_3 C23_3 1_555 1_555
H22_3 C24_3 1_555 1_555
C25_3 C24_3 1_555 1_555
C26_3 C25_3 1_555 1_555
H23_3 C26_3 1_555 1_555
C27_3 N1_3 1_555 1_555
H24_3 C27_3 1_555 1_555
C28_3 C25_3 1_555 1_555
H25_3 C28_3 1_555 1_555
H26_3 C28_3 1_555 1_555
C29_3 C28_3 1_555 1_555
H27_3 C29_3 1_555 1_555
H28_3 C29_3 1_555 1_555
C30_3 C29_3 1_555 1_555
H29_3 C30_3 1_555 1_555
H30_3 C30_3 1_555 1_555
C31_3 C30_3 1_555 1_555
C32_3 C31_3 1_555 1_555
H31_3 C32_3 1_555 1_555
C35_3 C31_3 1_555 1_555
H34_3 C35_3 1_555 1_555
N5_2 Ni4_2 1_555 1_555
C6_3 C7_3 1_555 1_555
C26_3 C27_3 1_555 1_555
N2_2 C33_3 1_555 1_555
H32_3 C33_3 1_555 1_555
C34_3 N2_2 1_555 1_555
H33_3 C34_3 1_555 1_555
Ni4 N2_2 1_555 1_555
Ni4 O1_4 1_555 1_555
O1_4 C1_4 1_555 1_555
O2_4 Ni4 1_555 1_555
O12 C8_4 1_555 1_555
O13 C8_4 1_555 1_555
N1_4 Ni4 1_555 1_555
N5_2 C33_4 1_555 1_555
C1_4 O2_4 1_555 1_555
C2_4 C1_4 1_555 1_555
C3_4 C2_4 1_555 1_555
H3_4 C3_4 1_555 1_555
C4_4 C3_4 1_555 1_555
C5_4 C4_4 1_555 1_555
H4_4 C5_4 1_555 1_555
C6_4 C5_4 1_555 1_555
C7_4 C2_4 1_555 1_555
H5_4 C7_4 1_555 1_555
C8_4 C4_4 1_555 1_555
C23_4 N1_4 1_555 1_555
H21_4 C23_4 1_555 1_555
C24_4 C23_4 1_555 1_555
H22_4 C24_4 1_555 1_555
C25_4 C24_4 1_555 1_555
C26_4 C25_4 1_555 1_555
H23_4 C26_4 1_555 1_555
C27_4 N1_4 1_555 1_555
H24_4 C27_4 1_555 1_555
C28_4 C25_4 1_555 1_555
H25_4 C28_4 1_555 1_555
H26_4 C28_4 1_555 1_555
C29_4 C28_4 1_555 1_555
H27_4 C29_4 1_555 1_555
H28_4 C29_4 1_555 1_555
C30_4 C29_4 1_555 1_555
H29_4 C30_4 1_555 1_555
H30_4 C30_4 1_555 1_555
C31_4 C30_4 1_555 1_555
C32_4 C31_4 1_555 1_555
H31_4 C32_4 1_555 1_555
C33_4 C32_4 1_555 1_555
H32_4 C33_4 1_555 1_555
C34_4 N5_2 1_555 1_555
H33_4 C34_4 1_555 1_555
C35_4 C31_4 1_555 1_555
H34_4 C35_4 1_555 1_555
C6_4 C7_4 1_555 1_555
C26_4 C27_4 1_555 1_555
C34_4 C35_4 1_555 1_555
C9_3 O5_3 1_555 1_555
H6_3 C9_3 1_555 1_555
H7_3 C9_3 1_555 1_555
C10_3 C9_3 1_555 1_555
H8_3 C10_3 1_555 1_555
C11_3 C10_3 1_555 1_555
H10_3 C11_3 1_555 1_555
C39_4 C38_4 1_555 1_555
H37_4 C39_4 1_555 1_555
C41_4 C38_4 1_555 1_555
H39_4 C41_4 1_555 1_555
H40_4 C41_4 1_555 1_555
C42_4 C41_4 1_555 1_555
H41_4 C42_4 1_555 1_555
H42_4 C42_4 1_555 1_555
C9_4 O5_4 1_555 1_555
H6_4 C9_4 1_555 1_555
H7_4 C9_4 1_555 1_555
C10_4 C9_4 1_555 1_555
H8_4 C10_4 1_555 1_555
C11_4 C10_4 1_555 1_555
H10_4 C11_4 1_555 1_555

#END
