
###############################################################################
#
# This file contains modified crystal structure data generated from the
# MOF subset of the Cambridge Structural Database (CSD) v543 
# hosted by the Cambridge Crystallographic Data Centre (CCDC).
#
# This work is licensed under the Creative Commons
# Attribution-NonCommercial-ShareAlike 4.0 International License.
# To view a copy of this license, visit
# http://creativecommons.org/licenses/by-nc-sa/4.0/
# or send a letter to
# Creative Commons, PO Box 1866, Mountain View, CA 94042, USA.
#
# CIF created using the CSD Python API on 29 September 2022
# The structure has been converted into the P1 space group
# The structure has a 3D framework
# The original CSD entry SUVQEI is in the monoclinic crystal system
# The framework has been calculated to contain at least 10.0% void space
# The void calculation uses a probe of radius 1.32A, grid spacing 0.4
#
###############################################################################

data_SUVQEI
_chemical_formula_moiety         '(C168 H120 Dy8 O80 S12)n'
_symmetry_cell_setting           triclinic
_symmetry_space_group_name_H-M   'P 1'
_symmetry_Int_Tables_number      1
_space_group_name_Hall           'P 1'
loop_
_symmetry_equiv_pos_site_id
_symmetry_equiv_pos_as_xyz
1 x,y,z
_cell_length_a                   18.2117(4)
_cell_length_b                   21.2418(5)
_cell_length_c                   16.1128(4)
_cell_angle_alpha                90
_cell_angle_beta                 110.892(3)
_cell_angle_gamma                90
_cell_volume                     5823.42
loop_
_atom_site_label
_atom_site_type_symbol
_atom_site_fract_x
_atom_site_fract_y
_atom_site_fract_z
O2 O 0.30770(15) 0.03689(14) 0.08127(19)
H25 H 0.295740 0.007640 0.114821
H26 H 0.300370 0.077980 0.089551
O28 O 0.43736(14) 0.09702(13) 0.03428(17)
Dy2 Dy 0.35884(2) 0.00517(2) 0.97155(2)
S1 S 0.12400(6) 0.10787(5) 0.44408(6)
S3 S 0.48572(7) 0.09265(5) 0.49581(7)
C1 C 0.1596(2) 0.03532(18) 0.7196(2)
C2 C 0.2232(2) 0.0567(2) 0.6995(3)
H1 H 0.273170 0.056951 0.743078
C3 C 0.2127(2) 0.0777(2) 0.6148(3)
H2 H 0.255070 0.092962 0.601485
C4 C 0.1389(2) 0.07575(18) 0.5504(2)
C5 C 0.0751(2) 0.05301(19) 0.5684(2)
H3 H 0.025604 0.051436 0.524040
C6 C 0.0861(2) 0.03269(18) 0.6532(2)
H4 H 0.043669 0.017028 0.666075
C7 C 0.1716(2) 0.01728(18) 0.8135(2)
C8 C 0.1006(2) 0.18741(19) 0.4568(2)
C9 C 0.1553(2) 0.2341(2) 0.4649(3)
H5 H 0.204569 0.223991 0.463536
C10 C 0.1368(2) 0.2960(2) 0.4750(3)
H6 H 0.172548 0.327898 0.477683
C11 C 0.0645(2) 0.31043(19) 0.4811(2)
C12 C 0.0125(2) 0.2627(2) 0.4755(3)
C13 C 0.0287(2) 0.2017(2) 0.4620(3)
C14 C 0.0423(2) 0.3773(2) 0.4912(2)
C29 C 0.4775(2) 0.04976(18) 0.7664(2)
C30 C 0.5458(2) 0.0734(2) 0.7596(3)
H17 H 0.589278 0.081245 0.810507
C31 C 0.5493(2) 0.0852(2) 0.6765(3)
H18 H 0.594671 0.101946 0.671458
C32 C 0.4850(2) 0.07198(19) 0.6012(2)
C33 C 0.4182(2) 0.0448(2) 0.6079(3)
H19 H 0.375802 0.034256 0.557061
C34 C 0.4154(2) 0.03357(19) 0.6905(2)
H20 H 0.371095 0.014767 0.695565
C35 C 0.4710(2) 0.03998(18) 0.8563(2)
C36 C 0.4553(2) 0.17234(19) 0.4873(3)
C37 C 0.5120(2) 0.2176(2) 0.5269(3)
H21 H 0.564482 0.206221 0.553825
C38 C 0.4896(2) 0.2788(2) 0.5258(3)
H22 H 0.527388 0.309241 0.552406
C39 C 0.4110(2) 0.2967(2) 0.4854(3)
C40 C 0.3567(2) 0.2511(2) 0.4438(3)
H23 H 0.304656 0.262682 0.413970
C41 C 0.3778(2) 0.1887(2) 0.4454(3)
H24 H 0.340270 0.158213 0.418495
C42 C 0.3864(2) 0.3641(2) 0.4855(3)
O1 O 0.11226(14) 0.01749(12) 0.83572(16)
O3 O 0.23926(14) 0.00256(13) 0.86359(17)
O5 O 0.19719(16) 0.10669(14) 0.42940(18)
O7 O 0.05517(17) 0.07840(13) 0.38106(17)
O8 O 0.08516(14) 0.41933(13) 0.47822(18)
O16 O 0.40358(14) 0.04174(14) 0.85949(16)
O17 O 0.53272(14) 0.03151(13) 0.92124(17)
O18 O 0.56558(16) 0.09224(14) 0.49868(19)
O19 O 0.42639(18) 0.05735(14) 0.42932(18)
O20 O 0.43736(14) 0.40298(13) 0.53428(17)
O21 O 0.31885(15) 0.38076(13) 0.4390(2)
Dy6 Dy 0.07831(2) 0.52619(2) 0.44993(2)
Dy9 Dy 0.35884(2) 0.49483(2) 0.47155(2)
O22 O 0.08516(14) 0.08067(13) 0.97822(18)
O29 O 0.31885(15) 0.11924(13) 0.9390(2)
S2 S 0.21437(6) 0.89925(5) 0.52233(7)
C15 C 0.1467(2) 0.96698(19) 0.2384(2)
C16 C 0.2246(2) 0.9711(2) 0.2950(3)
H9 H 0.262226 0.986865 0.273845
C17 C 0.2467(2) 0.9521(2) 0.3829(3)
H10 H 0.298805 0.955175 0.420976
C18 C 0.1898(2) 0.92823(19) 0.4128(2)
C19 C 0.1118(2) 0.9255(2) 0.3577(3)
H11 H 0.073997 0.910520 0.379222
C20 C 0.0903(2) 0.9451(2) 0.2703(3)
H12 H 0.037875 0.943575 0.232971
C21 C 0.1235(2) 0.98296(18) 0.1417(3)
C22 C 0.2267(2) 0.81725(18) 0.5109(2)
C23 C 0.2992(2) 0.7902(2) 0.5342(3)
H13 H 0.344243 0.814946 0.554780
C24 C 0.3053(2) 0.7257(2) 0.5272(3)
H14 H 0.354860 0.707517 0.542468
C25 C 0.2400(2) 0.68791(19) 0.4981(2)
C26 C 0.1667(2) 0.7168(2) 0.4718(3)
H15 H 0.121450 0.692467 0.449206
C27 C 0.1604(2) 0.7807(2) 0.4787(3)
H16 H 0.110975 0.799356 0.461549
C28 C 0.2443(2) 0.61750(19) 0.4924(2)
O10 O 0.05095(14) 0.99195(12) 0.09704(16)
O11 O 0.17297(14) 0.98204(14) 0.10500(17)
O12 O 0.28852(16) 0.92521(14) 0.57698(18)
O13 O 0.14599(16) 0.90667(14) 0.54631(18)
O14 O 0.30958(14) 0.59116(13) 0.51333(18)
O15 O 0.17926(14) 0.58903(13) 0.46480(18)
Dy7 Dy 0.64116(2) 0.99483(2) 0.02845(2)
O25 O 0.30958(14) 0.90884(13) 0.01333(18)
O27 O 0.46728(14) 0.96849(13) 0.07876(17)
Dy1 Dy 0.07831(2) 0.97381(2) 0.94993(2)
O4 O 0.02084(15) 0.91439(14) 0.81722(17)
H27 H 0.002263 0.875459 0.819763
H28 H 0.017653 0.930809 0.764563
O6 O 0.39807(15) 0.91818(14) 0.90144(19)
H29 H 0.394014 0.878535 0.919015
H30 H 0.416614 0.925245 0.857415
O23 O 0.01746(14) 0.88618(12) 0.98824(17)
O26 O 0.17926(14) 0.91097(13) 0.96480(18)
Dy4 Dy 0.92169(2) 0.02619(2) 0.05007(2)
H7 H 0.964543 0.272177 0.481006
H8 H 0.991769 0.170191 0.456398
O9 O 0.98254(14) 0.38618(12) 0.51176(17)
Dy3 Dy 0.92169(2) 0.47381(2) 0.55007(2)
O24 O 0.94905(14) 0.00805(12) 0.90296(16)
O24_2 O 0.05095(14) 0.50805(12) 0.59704(16)
S1_2 S 0.87600(6) 0.60787(5) 0.05592(6)
S3_2 S 0.51428(7) 0.59265(5) 0.00419(7)
C8_2 C 0.8994(2) 0.68741(19) 0.0432(2)
C9_2 C 0.8447(2) 0.7341(2) 0.0351(3)
H5_2 H 0.795431 0.723991 0.036464
C10_2 C 0.8632(2) 0.7960(2) 0.0250(3)
H6_2 H 0.827452 0.827898 0.022317
C11_2 C 0.9355(2) 0.81043(19) 0.0189(2)
C12_2 C 0.9875(2) 0.7627(2) 0.0245(3)
C13_2 C 0.9713(2) 0.7017(2) 0.0380(3)
C14_2 C 0.9577(2) 0.8773(2) 0.0088(2)
C36_2 C 0.5447(2) 0.67234(19) 0.0127(3)
C39_2 C 0.5890(2) 0.7967(2) 0.0146(3)
C40_2 C 0.6433(2) 0.7511(2) 0.0562(3)
H23_2 H 0.695344 0.762682 0.086030
C41_2 C 0.6222(2) 0.6887(2) 0.0546(3)
H24_2 H 0.659730 0.658213 0.081505
C42_2 C 0.6136(2) 0.8641(2) 0.0145(3)
O5_2 O 0.80281(16) 0.60669(14) 0.07060(18)
O7_2 O 0.94483(17) 0.57840(13) 0.11894(17)
O8_2 O 0.91484(14) 0.91933(13) 0.02178(18)
O18_2 O 0.43442(16) 0.59224(14) 0.00132(19)
O19_2 O 0.57361(18) 0.55735(14) 0.07068(18)
O21_2 O 0.68115(15) 0.88076(13) 0.0610(2)
Dy2_2 Dy 0.64116(2) 0.50517(2) 0.52845(2)
C1_2 C 0.8404(2) 0.53532(18) 0.7804(2)
C2_2 C 0.7768(2) 0.5567(2) 0.8005(3)
H1_2 H 0.726830 0.556951 0.756922
C3_2 C 0.7873(2) 0.5777(2) 0.8852(3)
H2_2 H 0.744930 0.592962 0.898515
C4_2 C 0.8611(2) 0.57575(18) 0.9496(2)
C5_2 C 0.9249(2) 0.55301(19) 0.9316(2)
H3_2 H 0.974396 0.551436 0.975960
C6_2 C 0.9139(2) 0.53269(18) 0.8468(2)
H4_2 H 0.956331 0.517028 0.833925
C7_2 C 0.8284(2) 0.51728(18) 0.6865(2)
C15_2 C 0.8533(2) 0.46698(19) 0.2616(2)
C16_2 C 0.7754(2) 0.4711(2) 0.2050(3)
H9_2 H 0.737774 0.486865 0.226155
C17_2 C 0.7533(2) 0.4521(2) 0.1171(3)
H10_2 H 0.701195 0.455175 0.079024
C18_2 C 0.8102(2) 0.42823(19) 0.0872(2)
C19_2 C 0.8882(2) 0.4255(2) 0.1423(3)
H11_2 H 0.926003 0.410520 0.120778
C20_2 C 0.9097(2) 0.4451(2) 0.2297(3)
H12_2 H 0.962125 0.443575 0.267029
C21_2 C 0.8765(2) 0.48296(18) 0.3583(3)
C25_2 C 0.7600(2) 0.18791(19) 0.0019(2)
C26_2 C 0.8333(2) 0.2168(2) 0.0282(3)
H15_2 H 0.878550 0.192467 0.050794
C27_2 C 0.8396(2) 0.2807(2) 0.0213(3)
H16_2 H 0.889025 0.299356 0.038451
C28_2 C 0.7557(2) 0.11750(19) 0.0076(2)
C29_2 C 0.5225(2) 0.54976(18) 0.7336(2)
C30_2 C 0.4542(2) 0.5734(2) 0.7404(3)
H17_2 H 0.410722 0.581245 0.689493
C31_2 C 0.4507(2) 0.5852(2) 0.8235(3)
H18_2 H 0.405329 0.601946 0.828542
C32_2 C 0.5150(2) 0.57198(19) 0.8988(2)
C33_2 C 0.5818(2) 0.5448(2) 0.8921(3)
H19_2 H 0.624198 0.534256 0.942939
C34_2 C 0.5846(2) 0.53357(19) 0.8095(2)
H20_2 H 0.628905 0.514767 0.804435
C35_2 C 0.5290(2) 0.53998(18) 0.6437(2)
C37_2 C 0.4880(2) 0.7176(2) 0.9731(3)
H21_2 H 0.435518 0.706221 0.946175
C38_2 C 0.5104(2) 0.7788(2) 0.9742(3)
H22_2 H 0.472612 0.809241 0.947594
O1_2 O 0.88774(14) 0.51749(12) 0.66428(16)
O2_2 O 0.69230(15) 0.53689(14) 0.41873(19)
H25_2 H 0.704260 0.507640 0.385179
H26_2 H 0.699630 0.577980 0.410449
O3_2 O 0.76074(14) 0.50256(13) 0.63641(17)
O4_2 O 0.97916(15) 0.41439(14) 0.68278(17)
H27_2 H 0.997737 0.375459 0.680237
H28_2 H 0.982347 0.430809 0.735437
O6_2 O 0.60193(15) 0.41818(14) 0.59856(19)
H29_2 H 0.605986 0.378535 0.580985
H30_2 H 0.583386 0.425245 0.642585
O10_2 O 0.94905(14) 0.49195(12) 0.40296(16)
O11_2 O 0.82703(14) 0.48204(14) 0.39500(17)
O15_2 O 0.82074(14) 0.08903(13) 0.03520(18)
O16_2 O 0.59642(14) 0.54174(14) 0.64051(16)
O17_2 O 0.46728(14) 0.53151(13) 0.57876(17)
O20_2 O 0.56264(14) 0.90298(13) 0.96572(17)
O22_2 O 0.91484(14) 0.58067(13) 0.52178(18)
O25_2 O 0.69042(14) 0.40884(13) 0.48667(18)
O26_2 O 0.82074(14) 0.41097(13) 0.53520(18)
O27_2 O 0.53272(14) 0.46849(13) 0.42124(17)
O28_2 O 0.56264(14) 0.59702(13) 0.46572(17)
O29_2 O 0.68115(15) 0.61924(13) 0.5610(2)
S2_2 S 0.78563(6) 0.39925(5) 0.97767(7)
C22_2 C 0.7733(2) 0.31725(18) 0.9891(2)
C23_2 C 0.7008(2) 0.2902(2) 0.9658(3)
H13_2 H 0.655757 0.314946 0.945220
C24_2 C 0.6947(2) 0.2257(2) 0.9728(3)
H14_2 H 0.645140 0.207517 0.957532
O12_2 O 0.71148(16) 0.42521(14) 0.92302(18)
O13_2 O 0.85401(16) 0.40667(14) 0.95369(18)
O14_2 O 0.69042(14) 0.09116(13) 0.98667(18)
H7_2 H 0.035457 0.727823 0.518994
H8_2 H 0.008231 0.829809 0.543602
O9_2 O 0.01746(14) 0.61382(12) 0.48824(17)
O4_3 O 0.97916(15) 0.08561(14) 0.18278(17)
H27_3 H 0.997737 0.124541 0.180237
H28_3 H 0.982347 0.069191 0.235437
O6_3 O 0.60193(15) 0.08182(14) 0.09856(19)
H29_3 H 0.605986 0.121465 0.080985
H30_3 H 0.583386 0.074755 0.142585
O23_2 O 0.98254(14) 0.11382(12) 0.01176(17)
S2_3 S 0.78563(6) 0.10075(5) 0.47767(7)
C15_3 C 0.8533(2) 0.03302(19) 0.7616(2)
C16_3 C 0.7754(2) 0.0289(2) 0.7050(3)
H9_3 H 0.737774 0.013135 0.726155
C17_3 C 0.7533(2) 0.0479(2) 0.6171(3)
H10_3 H 0.701195 0.044825 0.579024
C18_3 C 0.8102(2) 0.07177(19) 0.5872(2)
C19_3 C 0.8882(2) 0.0745(2) 0.6423(3)
H11_3 H 0.926003 0.089480 0.620778
C20_3 C 0.9097(2) 0.0549(2) 0.7297(3)
H12_3 H 0.962125 0.056425 0.767029
C21_3 C 0.8765(2) 0.01704(18) 0.8583(3)
C22_3 C 0.7733(2) 0.18275(18) 0.4891(2)
C23_3 C 0.7008(2) 0.2098(2) 0.4658(3)
H13_3 H 0.655757 0.185054 0.445220
C24_3 C 0.6947(2) 0.2743(2) 0.4728(3)
H14_3 H 0.645140 0.292483 0.457532
C25_3 C 0.7600(2) 0.31209(19) 0.5019(2)
C26_3 C 0.8333(2) 0.2832(2) 0.5282(3)
H15_3 H 0.878550 0.307533 0.550794
C27_3 C 0.8396(2) 0.2193(2) 0.5213(3)
H16_3 H 0.889025 0.200644 0.538451
C28_3 C 0.7557(2) 0.38250(19) 0.5076(2)
O11_3 O 0.82703(14) 0.01796(14) 0.89500(17)
O12_3 O 0.71148(16) 0.07479(14) 0.42302(18)
O13_3 O 0.85401(16) 0.09333(14) 0.45369(18)
S1_3 S 0.87600(6) 0.89213(5) 0.55592(6)
S3_3 S 0.51428(7) 0.90735(5) 0.50419(7)
C1_3 C 0.8404(2) 0.96468(18) 0.2804(2)
C2_3 C 0.7768(2) 0.9433(2) 0.3005(3)
H1_3 H 0.726830 0.943049 0.256922
C3_3 C 0.7873(2) 0.9223(2) 0.3852(3)
H2_3 H 0.744930 0.907038 0.398515
C4_3 C 0.8611(2) 0.92425(18) 0.4496(2)
C5_3 C 0.9249(2) 0.94699(19) 0.4316(2)
H3_3 H 0.974396 0.948564 0.475960
C6_3 C 0.9139(2) 0.96731(18) 0.3468(2)
H4_3 H 0.956331 0.982972 0.333925
C7_3 C 0.8284(2) 0.98272(18) 0.1865(2)
C8_3 C 0.8994(2) 0.81259(19) 0.5432(2)
C9_3 C 0.8447(2) 0.7659(2) 0.5351(3)
H5_3 H 0.795431 0.776009 0.536464
C10_3 C 0.8632(2) 0.7040(2) 0.5250(3)
H6_3 H 0.827452 0.672102 0.522317
C11_3 C 0.9355(2) 0.68957(19) 0.5189(2)
C12_3 C 0.9875(2) 0.7373(2) 0.5245(3)
C13_3 C 0.9713(2) 0.7983(2) 0.5380(3)
C14_3 C 0.9577(2) 0.6227(2) 0.5088(2)
C29_3 C 0.5225(2) 0.95024(18) 0.2336(2)
C30_3 C 0.4542(2) 0.9266(2) 0.2404(3)
H17_3 H 0.410722 0.918755 0.189493
C31_3 C 0.4507(2) 0.9148(2) 0.3235(3)
H18_3 H 0.405329 0.898054 0.328542
C32_3 C 0.5150(2) 0.92802(19) 0.3988(2)
C33_3 C 0.5818(2) 0.9552(2) 0.3921(3)
H19_3 H 0.624198 0.965744 0.442939
C34_3 C 0.5846(2) 0.96643(19) 0.3095(2)
H20_3 H 0.628905 0.985233 0.304435
C35_3 C 0.5290(2) 0.96002(18) 0.1437(2)
C36_3 C 0.5447(2) 0.82766(19) 0.5127(3)
C37_3 C 0.4880(2) 0.7824(2) 0.4731(3)
H21_3 H 0.435518 0.793779 0.446175
C38_3 C 0.5104(2) 0.7212(2) 0.4742(3)
H22_3 H 0.472612 0.690759 0.447594
C39_3 C 0.5890(2) 0.7033(2) 0.5146(3)
C40_3 C 0.6433(2) 0.7489(2) 0.5562(3)
H23_3 H 0.695344 0.737318 0.586030
C41_3 C 0.6222(2) 0.8113(2) 0.5546(3)
H24_3 H 0.659730 0.841787 0.581505
C42_3 C 0.6136(2) 0.6359(2) 0.5145(3)
O1_3 O 0.88774(14) 0.98251(12) 0.16428(16)
O3_3 O 0.76074(14) 0.99744(13) 0.13641(17)
O5_3 O 0.80281(16) 0.89331(14) 0.57060(18)
O7_3 O 0.94483(17) 0.92160(13) 0.61894(17)
O16_3 O 0.59642(14) 0.95826(14) 0.14051(16)
O18_3 O 0.43442(16) 0.90776(14) 0.50132(19)
O19_3 O 0.57361(18) 0.94265(14) 0.57068(18)
O2_3 O 0.69230(15) 0.96311(14) 0.91873(19)
H25_3 H 0.704260 0.992360 0.885179
H26_3 H 0.699630 0.922020 0.910449
S2_4 S 0.21437(6) 0.60075(5) 0.02233(7)
C22_4 C 0.2267(2) 0.68275(18) 0.0109(2)
C23_4 C 0.2992(2) 0.7098(2) 0.0342(3)
H13_4 H 0.344243 0.685054 0.054780
C24_4 C 0.3053(2) 0.7743(2) 0.0272(3)
H14_4 H 0.354860 0.792483 0.042468
O12_4 O 0.28852(16) 0.57479(14) 0.07698(18)
O13_4 O 0.14599(16) 0.59333(14) 0.04631(18)
C1_4 C 0.1596(2) 0.46468(18) 0.2196(2)
C2_4 C 0.2232(2) 0.4433(2) 0.1995(3)
H1_4 H 0.273170 0.443049 0.243078
C3_4 C 0.2127(2) 0.4223(2) 0.1148(3)
H2_4 H 0.255070 0.407038 0.101485
C4_4 C 0.1389(2) 0.42425(18) 0.0504(2)
C5_4 C 0.0751(2) 0.44699(19) 0.0684(2)
H3_4 H 0.025604 0.448564 0.024040
C6_4 C 0.0861(2) 0.46731(18) 0.1532(2)
H4_4 H 0.043669 0.482972 0.166075
C7_4 C 0.1716(2) 0.48272(18) 0.3135(2)
C15_4 C 0.1467(2) 0.53302(19) 0.7384(2)
C16_4 C 0.2246(2) 0.5289(2) 0.7950(3)
H9_4 H 0.262226 0.513135 0.773845
C17_4 C 0.2467(2) 0.5479(2) 0.8829(3)
H10_4 H 0.298805 0.544825 0.920976
C18_4 C 0.1898(2) 0.57177(19) 0.9128(2)
C19_4 C 0.1118(2) 0.5745(2) 0.8577(3)
H11_4 H 0.073997 0.589480 0.879222
C20_4 C 0.0903(2) 0.5549(2) 0.7703(3)
H12_4 H 0.037875 0.556425 0.732971
C21_4 C 0.1235(2) 0.51704(18) 0.6417(3)
C25_4 C 0.2400(2) 0.81209(19) 0.9981(2)
C26_4 C 0.1667(2) 0.7832(2) 0.9718(3)
H15_4 H 0.121450 0.807533 0.949206
C27_4 C 0.1604(2) 0.7193(2) 0.9787(3)
H16_4 H 0.110975 0.700644 0.961549
C28_4 C 0.2443(2) 0.88250(19) 0.9924(2)
C29_4 C 0.4775(2) 0.45024(18) 0.2664(2)
C30_4 C 0.5458(2) 0.4266(2) 0.2596(3)
H17_4 H 0.589278 0.418755 0.310507
C31_4 C 0.5493(2) 0.4148(2) 0.1765(3)
H18_4 H 0.594671 0.398054 0.171458
C32_4 C 0.4850(2) 0.42802(19) 0.1012(2)
C33_4 C 0.4182(2) 0.4552(2) 0.1079(3)
H19_4 H 0.375802 0.465744 0.057061
C34_4 C 0.4154(2) 0.46643(19) 0.1905(2)
H20_4 H 0.371095 0.485233 0.195565
C35_4 C 0.4710(2) 0.46002(18) 0.3563(2)
C37_4 C 0.5120(2) 0.2824(2) 0.0269(3)
H21_4 H 0.564482 0.293779 0.053825
C38_4 C 0.4896(2) 0.2212(2) 0.0258(3)
H22_4 H 0.527388 0.190759 0.052406
O1_4 O 0.11226(14) 0.48251(12) 0.33572(16)
O2_4 O 0.30770(15) 0.46311(14) 0.58127(19)
H25_4 H 0.295740 0.492360 0.614821
H26_4 H 0.300370 0.422020 0.589551
O3_4 O 0.23926(14) 0.49744(13) 0.36359(17)
O4_4 O 0.02084(15) 0.58561(14) 0.31722(17)
H27_4 H 0.002263 0.624541 0.319763
H28_4 H 0.017653 0.569191 0.264563
O6_4 O 0.39807(15) 0.58182(14) 0.40144(19)
H29_4 H 0.394014 0.621465 0.419015
H30_4 H 0.416614 0.574755 0.357415
O11_4 O 0.17297(14) 0.51796(14) 0.60500(17)
O16_4 O 0.40358(14) 0.45826(14) 0.35949(16)
S1_4 S 0.12400(6) 0.39213(5) 0.94408(6)
S3_4 S 0.48572(7) 0.40735(5) 0.99581(7)
C8_4 C 0.1006(2) 0.31259(19) 0.9568(2)
C9_4 C 0.1553(2) 0.2659(2) 0.9649(3)
H5_4 H 0.204569 0.276009 0.963536
C10_4 C 0.1368(2) 0.2040(2) 0.9750(3)
H6_4 H 0.172548 0.172102 0.977683
C11_4 C 0.0645(2) 0.18957(19) 0.9811(2)
C12_4 C 0.0125(2) 0.2373(2) 0.9755(3)
C13_4 C 0.0287(2) 0.2983(2) 0.9620(3)
C14_4 C 0.0423(2) 0.1227(2) 0.9912(2)
C36_4 C 0.4553(2) 0.32766(19) 0.9873(3)
C39_4 C 0.4110(2) 0.2033(2) 0.9854(3)
C40_4 C 0.3567(2) 0.2489(2) 0.9438(3)
H23_4 H 0.304656 0.237318 0.913970
C41_4 C 0.3778(2) 0.3113(2) 0.9454(3)
H24_4 H 0.340270 0.341787 0.918495
C42_4 C 0.3864(2) 0.1359(2) 0.9855(3)
O5_4 O 0.19719(16) 0.39331(14) 0.92940(18)
O7_4 O 0.05517(17) 0.42160(13) 0.88106(17)
O18_4 O 0.56558(16) 0.40776(14) 0.99868(19)
O19_4 O 0.42639(18) 0.44265(14) 0.92932(18)
H7_3 H 0.035457 0.772177 0.018994
H8_3 H 0.008231 0.670191 0.043602
H7_4 H 0.964543 0.227823 0.981006
H8_4 H 0.991769 0.329809 0.956398
loop_
_geom_bond_atom_site_label_1
_geom_bond_atom_site_label_2
_geom_bond_site_symmetry_1
_geom_bond_site_symmetry_2
O2 H25 1_555 1_555
H26 O2 1_555 1_555
S1 C4 1_555 1_555
S3 C32 1_555 1_555
C1 C2 1_555 1_555
C2 H1 1_555 1_555
C3 C2 1_555 1_555
H2 C3 1_555 1_555
C4 C3 1_555 1_555
C5 C4 1_555 1_555
H3 C5 1_555 1_555
C6 C1 1_555 1_555
H4 C6 1_555 1_555
C7 C1 1_555 1_555
C8 S1 1_555 1_555
C9 C8 1_555 1_555
H5 C9 1_555 1_555
C10 C9 1_555 1_555
H6 C10 1_555 1_555
C11 C10 1_555 1_555
C12 C11 1_555 1_555
C13 C8 1_555 1_555
C14 C11 1_555 1_555
C29 C30 1_555 1_555
C30 H17 1_555 1_555
C31 C30 1_555 1_555
H18 C31 1_555 1_555
C32 C31 1_555 1_555
C33 C32 1_555 1_555
H19 C33 1_555 1_555
C34 C29 1_555 1_555
H20 C34 1_555 1_555
C35 C29 1_555 1_555
C36 S3 1_555 1_555
C37 C36 1_555 1_555
H21 C37 1_555 1_555
C38 C37 1_555 1_555
H22 C38 1_555 1_555
C39 C38 1_555 1_555
C40 C39 1_555 1_555
H23 C40 1_555 1_555
C41 C36 1_555 1_555
H24 C41 1_555 1_555
C42 C39 1_555 1_555
O1 C7 1_555 1_555
O3 Dy2 1_555 1_555
O5 S1 1_555 1_555
O7 S1 1_555 1_555
O8 C14 1_555 1_555
O16 Dy2 1_555 1_555
O17 C35 1_555 1_555
O18 S3 1_555 1_555
O19 S3 1_555 1_555
O20 C42 1_555 1_555
O21 C42 1_555 1_555
Dy6 O8 1_555 1_555
Dy9 O20 1_555 1_555
O29 Dy2 1_555 1_555
C5 C6 1_555 1_555
C7 O3 1_555 1_555
C12 C13 1_555 1_555
C33 C34 1_555 1_555
C35 O16 1_555 1_555
C40 C41 1_555 1_555
O21 Dy9 1_555 1_555
S2 C18 1_555 1_555
C15 C16 1_555 1_555
C16 H9 1_555 1_555
C17 C16 1_555 1_555
H10 C17 1_555 1_555
C18 C17 1_555 1_555
C19 C18 1_555 1_555
H11 C19 1_555 1_555
C20 C15 1_555 1_555
H12 C20 1_555 1_555
C21 C15 1_555 1_555
C22 S2 1_555 1_555
C23 C22 1_555 1_555
H13 C23 1_555 1_555
C24 C23 1_555 1_555
H14 C24 1_555 1_555
C25 C24 1_555 1_555
C26 C25 1_555 1_555
H15 C26 1_555 1_555
C27 C22 1_555 1_555
H16 C27 1_555 1_555
C28 C25 1_555 1_555
O12 S2 1_555 1_555
O13 S2 1_555 1_555
O14 C28 1_555 1_555
O15 C28 1_555 1_555
Dy6 O15 1_555 1_555
Dy9 O14 1_555 1_555
C19 C20 1_555 1_555
C21 O10 1_555 1_555
C21 O11 1_555 1_555
C26 C27 1_555 1_555
O4 Dy1 1_555 1_555
H27 O4 1_555 1_555
H28 O4 1_555 1_555
H29 O6 1_555 1_555
H30 O6 1_555 1_555
O23 Dy1 1_555 1_555
O26 Dy1 1_555 1_555
Dy3 O9 1_555 1_555
Dy6 O24_2 1_555 1_555
C8_2 S1_2 1_555 1_555
C9_2 C8_2 1_555 1_555
H5_2 C9_2 1_555 1_555
C10_2 C9_2 1_555 1_555
H6_2 C10_2 1_555 1_555
C11_2 C10_2 1_555 1_555
C12_2 C11_2 1_555 1_555
C13_2 C8_2 1_555 1_555
C14_2 C11_2 1_555 1_555
C36_2 S3_2 1_555 1_555
C40_2 C39_2 1_555 1_555
H23_2 C40_2 1_555 1_555
C41_2 C36_2 1_555 1_555
H24_2 C41_2 1_555 1_555
C42_2 C39_2 1_555 1_555
O5_2 S1_2 1_555 1_555
O7_2 S1_2 1_555 1_555
O8_2 C14_2 1_555 1_555
O18_2 S3_2 1_555 1_555
O19_2 S3_2 1_555 1_555
O21_2 C42_2 1_555 1_555
C12_2 C13_2 1_555 1_555
C40_2 C41_2 1_555 1_555
O21_2 Dy7 1_555 1_555
Dy3 O1_2 1_555 1_555
Dy2_2 O2_2 1_555 1_555
C1_2 C2_2 1_555 1_555
C2_2 H1_2 1_555 1_555
C3_2 C2_2 1_555 1_555
H2_2 C3_2 1_555 1_555
C4_2 C3_2 1_555 1_555
C5_2 C4_2 1_555 1_555
H3_2 C5_2 1_555 1_555
C6_2 C1_2 1_555 1_555
H4_2 C6_2 1_555 1_555
C7_2 C1_2 1_555 1_555
C15_2 C16_2 1_555 1_555
C16_2 H9_2 1_555 1_555
C17_2 C16_2 1_555 1_555
H10_2 C17_2 1_555 1_555
C18_2 C17_2 1_555 1_555
C19_2 C18_2 1_555 1_555
H11_2 C19_2 1_555 1_555
C20_2 C15_2 1_555 1_555
H12_2 C20_2 1_555 1_555
C21_2 C15_2 1_555 1_555
C26_2 C25_2 1_555 1_555
H15_2 C26_2 1_555 1_555
H16_2 C27_2 1_555 1_555
C28_2 C25_2 1_555 1_555
C29_2 C30_2 1_555 1_555
C30_2 H17_2 1_555 1_555
C31_2 C30_2 1_555 1_555
H18_2 C31_2 1_555 1_555
C32_2 C31_2 1_555 1_555
C33_2 C32_2 1_555 1_555
H19_2 C33_2 1_555 1_555
C34_2 C29_2 1_555 1_555
H20_2 C34_2 1_555 1_555
C35_2 C29_2 1_555 1_555
H21_2 C37_2 1_555 1_555
C38_2 C37_2 1_555 1_555
H22_2 C38_2 1_555 1_555
O1_2 C7_2 1_555 1_555
O2_2 H25_2 1_555 1_555
H26_2 O2_2 1_555 1_555
O3_2 Dy2_2 1_555 1_555
O4_2 Dy3 1_555 1_555
H27_2 O4_2 1_555 1_555
H28_2 O4_2 1_555 1_555
O6_2 Dy2_2 1_555 1_555
H29_2 O6_2 1_555 1_555
H30_2 O6_2 1_555 1_555
O10_2 Dy3 1_555 1_555
O11_2 Dy3 1_555 1_555
O15_2 C28_2 1_555 1_555
O16_2 Dy2_2 1_555 1_555
O17_2 C35_2 1_555 1_555
Dy4 O15_2 1_555 1_555
Dy9 O17_2 1_555 1_555
O22_2 Dy3 1_555 1_555
O25_2 Dy2_2 1_555 1_555
O26_2 Dy3 1_555 1_555
O27_2 Dy2_2 1_555 1_555
O28_2 Dy2_2 1_555 1_555
O29_2 Dy2_2 1_555 1_555
C5_2 C6_2 1_555 1_555
C7_2 O3_2 1_555 1_555
C19_2 C20_2 1_555 1_555
C21_2 O10_2 1_555 1_555
C21_2 O11_2 1_555 1_555
C26_2 C27_2 1_555 1_555
C33_2 C34_2 1_555 1_555
C35_2 O16_2 1_555 1_555
C22_2 S2_2 1_555 1_555
C23_2 C22_2 1_555 1_555
H13_2 C23_2 1_555 1_555
C24_2 C23_2 1_555 1_555
H14_2 C24_2 1_555 1_555
O12_2 S2_2 1_555 1_555
O13_2 S2_2 1_555 1_555
Dy6 O9_2 1_555 1_555
O4_3 Dy4 1_555 1_555
H27_3 O4_3 1_555 1_555
H28_3 O4_3 1_555 1_555
H29_3 O6_3 1_555 1_555
H30_3 O6_3 1_555 1_555
O23_2 Dy4 1_555 1_555
S2_3 C18_3 1_555 1_555
C15_3 C16_3 1_555 1_555
C16_3 H9_3 1_555 1_555
C17_3 C16_3 1_555 1_555
H10_3 C17_3 1_555 1_555
C18_3 C17_3 1_555 1_555
C19_3 C18_3 1_555 1_555
H11_3 C19_3 1_555 1_555
C20_3 C15_3 1_555 1_555
H12_3 C20_3 1_555 1_555
C21_3 C15_3 1_555 1_555
C22_3 S2_3 1_555 1_555
C23_3 C22_3 1_555 1_555
H13_3 C23_3 1_555 1_555
C24_3 C23_3 1_555 1_555
H14_3 C24_3 1_555 1_555
C25_3 C24_3 1_555 1_555
C26_3 C25_3 1_555 1_555
H15_3 C26_3 1_555 1_555
C27_3 C22_3 1_555 1_555
H16_3 C27_3 1_555 1_555
C28_3 C25_3 1_555 1_555
O12_3 S2_3 1_555 1_555
O13_3 S2_3 1_555 1_555
O25_2 C28_3 1_555 1_555
O26_2 C28_3 1_555 1_555
C19_3 C20_3 1_555 1_555
C21_3 O24 1_555 1_555
C21_3 O11_3 1_555 1_555
C26_3 C27_3 1_555 1_555
S1_3 C4_3 1_555 1_555
S3_3 C32_3 1_555 1_555
C1_3 C2_3 1_555 1_555
C2_3 H1_3 1_555 1_555
C3_3 C2_3 1_555 1_555
H2_3 C3_3 1_555 1_555
C4_3 C3_3 1_555 1_555
C5_3 C4_3 1_555 1_555
H3_3 C5_3 1_555 1_555
C6_3 C1_3 1_555 1_555
H4_3 C6_3 1_555 1_555
C7_3 C1_3 1_555 1_555
C8_3 S1_3 1_555 1_555
C9_3 C8_3 1_555 1_555
H5_3 C9_3 1_555 1_555
C10_3 C9_3 1_555 1_555
H6_3 C10_3 1_555 1_555
C11_3 C10_3 1_555 1_555
C12_3 C11_3 1_555 1_555
C13_3 C8_3 1_555 1_555
C14_3 C11_3 1_555 1_555
C29_3 C30_3 1_555 1_555
C30_3 H17_3 1_555 1_555
C31_3 C30_3 1_555 1_555
H18_3 C31_3 1_555 1_555
C32_3 C31_3 1_555 1_555
C33_3 C32_3 1_555 1_555
H19_3 C33_3 1_555 1_555
C34_3 C29_3 1_555 1_555
H20_3 C34_3 1_555 1_555
C35_3 C29_3 1_555 1_555
C36_3 S3_3 1_555 1_555
C37_3 C36_3 1_555 1_555
H21_3 C37_3 1_555 1_555
C38_3 C37_3 1_555 1_555
H22_3 C38_3 1_555 1_555
C39_3 C38_3 1_555 1_555
C40_3 C39_3 1_555 1_555
H23_3 C40_3 1_555 1_555
C41_3 C36_3 1_555 1_555
H24_3 C41_3 1_555 1_555
C42_3 C39_3 1_555 1_555
O1_3 C7_3 1_555 1_555
O3_3 Dy7 1_555 1_555
O5_3 S1_3 1_555 1_555
O7_3 S1_3 1_555 1_555
O22_2 C14_3 1_555 1_555
O16_3 Dy7 1_555 1_555
O27 C35_3 1_555 1_555
O18_3 S3_3 1_555 1_555
O19_3 S3_3 1_555 1_555
O28_2 C42_3 1_555 1_555
O29_2 C42_3 1_555 1_555
C5_3 C6_3 1_555 1_555
C7_3 O3_3 1_555 1_555
C12_3 C13_3 1_555 1_555
C33_3 C34_3 1_555 1_555
C35_3 O16_3 1_555 1_555
C40_3 C41_3 1_555 1_555
O2_3 H25_3 1_555 1_555
H26_3 O2_3 1_555 1_555
C22_4 S2_4 1_555 1_555
C23_4 C22_4 1_555 1_555
H13_4 C23_4 1_555 1_555
C24_4 C23_4 1_555 1_555
H14_4 C24_4 1_555 1_555
O12_4 S2_4 1_555 1_555
O13_4 S2_4 1_555 1_555
Dy6 O1_4 1_555 1_555
Dy9 O2_4 1_555 1_555
C1_4 C2_4 1_555 1_555
C2_4 H1_4 1_555 1_555
C3_4 C2_4 1_555 1_555
H2_4 C3_4 1_555 1_555
C4_4 C3_4 1_555 1_555
C5_4 C4_4 1_555 1_555
H3_4 C5_4 1_555 1_555
C6_4 C1_4 1_555 1_555
H4_4 C6_4 1_555 1_555
C7_4 C1_4 1_555 1_555
C15_4 C16_4 1_555 1_555
C16_4 H9_4 1_555 1_555
C17_4 C16_4 1_555 1_555
H10_4 C17_4 1_555 1_555
C18_4 C17_4 1_555 1_555
C19_4 C18_4 1_555 1_555
H11_4 C19_4 1_555 1_555
C20_4 C15_4 1_555 1_555
H12_4 C20_4 1_555 1_555
C21_4 C15_4 1_555 1_555
C26_4 C25_4 1_555 1_555
H15_4 C26_4 1_555 1_555
H16_4 C27_4 1_555 1_555
C28_4 C25_4 1_555 1_555
C29_4 C30_4 1_555 1_555
C30_4 H17_4 1_555 1_555
C31_4 C30_4 1_555 1_555
H18_4 C31_4 1_555 1_555
C32_4 C31_4 1_555 1_555
C33_4 C32_4 1_555 1_555
H19_4 C33_4 1_555 1_555
C34_4 C29_4 1_555 1_555
H20_4 C34_4 1_555 1_555
C35_4 C29_4 1_555 1_555
H21_4 C37_4 1_555 1_555
C38_4 C37_4 1_555 1_555
H22_4 C38_4 1_555 1_555
O1_4 C7_4 1_555 1_555
O2_4 H25_4 1_555 1_555
H26_4 O2_4 1_555 1_555
O3_4 Dy9 1_555 1_555
O4_4 Dy6 1_555 1_555
H27_4 O4_4 1_555 1_555
H28_4 O4_4 1_555 1_555
O6_4 Dy9 1_555 1_555
H29_4 O6_4 1_555 1_555
H30_4 O6_4 1_555 1_555
O11_4 Dy6 1_555 1_555
O26 C28_4 1_555 1_555
O16_4 Dy9 1_555 1_555
O27_2 C35_4 1_555 1_555
C5_4 C6_4 1_555 1_555
C7_4 O3_4 1_555 1_555
C19_4 C20_4 1_555 1_555
C21_4 O24_2 1_555 1_555
C21_4 O11_4 1_555 1_555
C26_4 C27_4 1_555 1_555
C33_4 C34_4 1_555 1_555
C35_4 O16_4 1_555 1_555
C8_4 S1_4 1_555 1_555
C9_4 C8_4 1_555 1_555
H5_4 C9_4 1_555 1_555
C10_4 C9_4 1_555 1_555
H6_4 C10_4 1_555 1_555
C11_4 C10_4 1_555 1_555
C12_4 C11_4 1_555 1_555
C13_4 C8_4 1_555 1_555
C14_4 C11_4 1_555 1_555
C36_4 S3_4 1_555 1_555
C40_4 C39_4 1_555 1_555
H23_4 C40_4 1_555 1_555
C41_4 C36_4 1_555 1_555
H24_4 C41_4 1_555 1_555
C42_4 C39_4 1_555 1_555
O5_4 S1_4 1_555 1_555
O7_4 S1_4 1_555 1_555
O22 C14_4 1_555 1_555
O18_4 S3_4 1_555 1_555
O19_4 S3_4 1_555 1_555
O29 C42_4 1_555 1_555
C12_4 C13_4 1_555 1_555
C40_4 C41_4 1_555 1_555

#END
