
###############################################################################
#
# This file contains modified crystal structure data generated from the
# MOF subset of the Cambridge Structural Database (CSD) v543 
# hosted by the Cambridge Crystallographic Data Centre (CCDC).
#
# This work is licensed under the Creative Commons
# Attribution-NonCommercial-ShareAlike 4.0 International License.
# To view a copy of this license, visit
# http://creativecommons.org/licenses/by-nc-sa/4.0/
# or send a letter to
# Creative Commons, PO Box 1866, Mountain View, CA 94042, USA.
#
# CIF created using the CSD Python API on 29 September 2022
# The structure has been converted into the P1 space group
# The structure has a 3D framework
# The original CSD entry SUWROT is in the monoclinic crystal system
# The framework has been calculated to contain at least 10.0% void space
# The void calculation uses a probe of radius 1.32A, grid spacing 0.4
#
###############################################################################

data_SUWROT
_chemical_formula_moiety         '(C184 H120 N32 O40 Zn6)n'
_symmetry_cell_setting           triclinic
_symmetry_space_group_name_H-M   'P 1'
_symmetry_Int_Tables_number      1
_space_group_name_Hall           'P 1'
loop_
_symmetry_equiv_pos_site_id
_symmetry_equiv_pos_as_xyz
1 x,y,z
_cell_length_a                   22.807(4)
_cell_length_b                   25.243(5)
_cell_length_c                   16.204(3)
_cell_angle_alpha                90
_cell_angle_beta                 133.809(2)
_cell_angle_gamma                90
_cell_volume                     6732.23
loop_
_atom_site_label
_atom_site_type_symbol
_atom_site_fract_x
_atom_site_fract_y
_atom_site_fract_z
C1 C 0.27803(17) 0.01213(14) 0.7532(2)
C8 C 0.22135(17) 0.04230(14) 0.8252(2)
H3 H 0.2268 0.0618 0.8789
C12 C 0.28499(18) 0.04195(15) 0.8321(2)
H7 H 0.3319 0.0613 0.8885
H15 H 0.383(2) 0.0302(14) 0.812(3)
N3 N 0.15186(12) 0.01582(10) 0.74458(17)
N4 N 0.34371(16) 0.01252(14) 0.7621(2)
Zn1 Zn 0.060108(17) 0.019673(13) 0.73900(2)
C24 C 0.72197(17) 0.01213(14) 0.7468(2)
C27 C 0.77865(17) 0.04230(14) 0.6748(2)
H18 H 0.7732 0.0618 0.6211
C28 C 0.71501(18) 0.04195(15) 0.6679(2)
H19 H 0.6681 0.0613 0.6115
H22 H 0.617(2) 0.0302(14) 0.688(3)
N5 N 0.84814(12) 0.01582(10) 0.75542(17)
N6 N 0.65629(16) 0.01252(14) 0.7379(2)
O11 O 0.10286(12) 0.07937(9) 0.85278(16)
O13 O 0.02281(13) 0.07503(9) 0.88566(16)
Zn3 Zn 0.939892(17) 0.019673(13) 0.76100(2)
O12 O 0.89714(12) 0.07937(9) 0.64722(16)
O14 O 0.97719(13) 0.07503(9) 0.61434(16)
C34 C 0.92043(18) 0.09462(12) 0.6000(2)
C35 C 0.62710(18) 0.40744(12) 0.0015(2)
C36 C 0.87573(18) 0.14116(13) 0.5205(2)
C37 C 0.60175(19) 0.38712(13) 0.0527(2)
H23 H 0.5539 0.3996 0.0298
C38 C 0.7004(2) 0.38983(15) 0.0400(3)
H24 H 0.7191 0.4040 0.0089
C39 C 0.6468(2) 0.34853(14) 0.1375(3)
H25 H 0.6294 0.3350 0.1708
C40 C 0.7924(2) 0.22683(15) 0.3722(3)
C41 C 0.8092(2) 0.16207(16) 0.4935(3)
H26 H 0.7909 0.1473 0.5248
C42 C 0.7181(2) 0.33070(14) 0.1712(3)
C43 C 0.7454(2) 0.35166(16) 0.1237(3)
H27 H 0.7941 0.3399 0.1483
C44 C 0.8995(2) 0.16334(17) 0.4699(3)
H28 H 0.9437 0.1492 0.4848
C45 C 0.7682(2) 0.20495(17) 0.4202(3)
H29 H 0.7234 0.2188 0.4040
C46 C 0.8590(3) 0.20593(17) 0.3978(4)
H30 H 0.8768 0.2208 0.3658
N7 N 0.74264(18) 0.27014(13) 0.2930(2)
N8 N 0.76978(19) 0.28936(13) 0.2558(2)
C3 C 0.07957(18) 0.09462(12) 0.9000(2)
C7 C 0.12427(18) 0.14116(13) 0.9795(2)
H8 H 0.2091 0.1473 0.9752
C34_2 C 0.42043(18) 0.59462(12) 0.6000(2)
C35_2 C 0.12710(18) 0.90744(12) 0.0015(2)
C36_2 C 0.37573(18) 0.64116(13) 0.5205(2)
C37_2 C 0.10175(19) 0.88712(13) 0.0527(2)
H23_2 H 0.0539 0.8996 0.0298
C38_2 C 0.2004(2) 0.88983(15) 0.0400(3)
H24_2 H 0.2191 0.9040 0.0089
C39_2 C 0.1468(2) 0.84853(14) 0.1375(3)
H25_2 H 0.1294 0.8350 0.1708
C40_2 C 0.2924(2) 0.72683(15) 0.3722(3)
C41_2 C 0.3092(2) 0.66207(16) 0.4935(3)
H26_2 H 0.2909 0.6473 0.5248
C42_2 C 0.2181(2) 0.83070(14) 0.1712(3)
C43_2 C 0.2454(2) 0.85166(16) 0.1237(3)
H27_2 H 0.2941 0.8399 0.1483
C44_2 C 0.3995(2) 0.66334(17) 0.4699(3)
H28_2 H 0.4437 0.6492 0.4848
C45_2 C 0.2682(2) 0.70495(17) 0.4202(3)
H29_2 H 0.2234 0.7188 0.4040
C46_2 C 0.3590(3) 0.70593(17) 0.3978(4)
H30_2 H 0.3768 0.7208 0.3658
N7_2 N 0.24264(18) 0.77014(13) 0.2930(2)
N8_2 N 0.26978(19) 0.78936(13) 0.2558(2)
O9 O 0.39714(12) 0.57937(9) 0.64722(16)
O10 O 0.47719(13) 0.57503(9) 0.61434(16)
Zn5 Zn 0.560108(17) 0.519673(13) 0.73900(2)
Zn7 Zn 0.439892(17) 0.519673(13) 0.76100(2)
C3_2 C 0.57957(18) 0.59462(12) 0.9000(2)
C7_2 C 0.62427(18) 0.64116(13) 0.9795(2)
H8_2 H 0.7091 0.6473 0.9752
O3 O 0.60286(12) 0.57937(9) 0.85278(16)
O4 O 0.52281(13) 0.57503(9) 0.88566(16)
C21 C 0.0010(2) 0.4949(2) 0.8355(3)
H12 H 0.0027 0.4958 0.8945
C24_2 C 0.22197(17) 0.51213(14) 0.7468(2)
C25 C 0.29352(17) 0.48420(14) 0.8296(2)
H16 H 0.3002 0.4635 0.8830
C26 C 0.35416(17) 0.48780(13) 0.8310(2)
H17 H 0.4024 0.4697 0.8879
C27_2 C 0.27865(17) 0.54230(14) 0.6748(2)
H18_2 H 0.2732 0.5618 0.6211
C28_2 C 0.21501(18) 0.54195(15) 0.6679(2)
H19_2 H 0.1681 0.5613 0.6115
C29 C 0.1525(2) 0.48851(19) 0.8097(3)
C30 C 0.0720(2) 0.49421(18) 0.7753(3)
C32 C 0.0729(2) 0.4943(2) 0.8608(3)
H21 H 0.1224 0.4939 0.9368
H22_2 H 0.117(2) 0.5302(14) 0.688(3)
N5_2 N 0.34814(12) 0.51582(10) 0.75542(17)
N6_2 N 0.15629(16) 0.51252(14) 0.7379(2)
O6 O 0.20798(15) 0.46453(15) 0.8952(2)
C1_2 C 0.77803(17) 0.51213(14) 0.7532(2)
C2 C 0.42287(18) 0.44885(12) 0.5913(2)
C4 C 0.70648(17) 0.48420(14) 0.6704(2)
H1 H 0.6998 0.4635 0.6170
C5 C 0.64584(17) 0.48780(13) 0.6690(2)
H2 H 0.5976 0.4697 0.6121
C6 C 0.37290(18) 0.40744(12) 0.4985(2)
C8_2 C 0.72135(17) 0.54230(14) 0.8252(2)
H3_2 H 0.7268 0.5618 0.8789
C9 C 0.39825(19) 0.38712(13) 0.4473(2)
H4 H 0.4461 0.3996 0.4702
C10 C 0.2996(2) 0.38983(15) 0.4600(3)
H5 H 0.2809 0.4040 0.4911
C11 C 0.3532(2) 0.34853(14) 0.3625(3)
H6 H 0.3706 0.3350 0.3292
C12_2 C 0.78499(18) 0.54195(15) 0.8321(2)
H7_2 H 0.8319 0.5613 0.8885
C13 C 0.2076(2) 0.22683(15) 0.1278(3)
C14 C 0.1908(2) 0.16207(16) 0.0065(3)
C15 C 0.2819(2) 0.33070(14) 0.3288(3)
C16 C 0.8475(2) 0.48851(19) 0.6903(3)
C17 C 0.2546(2) 0.35166(16) 0.3763(3)
H9 H 0.2059 0.3399 0.3517
C18 C 0.1005(2) 0.16334(17) 0.0301(3)
H10 H 0.0563 0.1492 0.0152
C19 C 0.2318(2) 0.20495(17) 0.0798(3)
H11 H 0.2766 0.2188 0.0960
C20 C 0.9280(2) 0.49421(18) 0.7247(3)
C22 C 0.1410(3) 0.20593(17) 0.1022(4)
H13 H 0.1232 0.2208 0.1342
C23 C 0.9271(2) 0.4943(2) 0.6392(3)
H14 H 0.8776 0.4939 0.5632
H15_2 H 0.883(2) 0.5302(14) 0.812(3)
N1 N 0.25736(18) 0.27014(13) 0.2070(2)
N2 N 0.23022(19) 0.28936(13) 0.2442(2)
N3_2 N 0.65186(12) 0.51582(10) 0.74458(17)
N4_2 N 0.84371(16) 0.51252(14) 0.7621(2)
O1 O 0.39721(12) 0.46532(8) 0.63410(16)
O2 O 0.48757(12) 0.46303(8) 0.61974(16)
O5 O 0.79202(15) 0.46453(15) 0.6048(2)
C31 C 0.9990(2) 0.4949(2) 0.6645(3)
H20 H 0.9973 0.4958 0.6055
C33 C 0.57713(18) 0.44885(12) 0.9087(2)
O7 O 0.60279(12) 0.46532(8) 0.86590(16)
O8 O 0.51243(12) 0.46303(8) 0.88026(16)
C4_2 C 0.20648(17) 0.98420(14) 0.6704(2)
H1_2 H 0.1998 0.9635 0.6170
C5_2 C 0.14584(17) 0.98780(13) 0.6690(2)
H2_2 H 0.0976 0.9697 0.6121
C16_2 C 0.3475(2) 0.98851(19) 0.6903(3)
C20_2 C 0.4280(2) 0.99421(18) 0.7247(3)
C21_2 C 0.5010(2) 0.9949(2) 0.8355(3)
H12_2 H 0.5027 0.9958 0.8945
C23_2 C 0.4271(2) 0.9943(2) 0.6392(3)
H14_2 H 0.3776 0.9939 0.5632
O5_2 O 0.29202(15) 0.96453(15) 0.6048(2)
C25_2 C 0.79352(17) 0.98420(14) 0.8296(2)
H16_2 H 0.8002 0.9635 0.8830
C26_2 C 0.85416(17) 0.98780(13) 0.8310(2)
H17_2 H 0.9024 0.9697 0.8879
C29_2 C 0.6525(2) 0.98851(19) 0.8097(3)
C30_2 C 0.5720(2) 0.99421(18) 0.7753(3)
C31_2 C 0.4990(2) 0.9949(2) 0.6645(3)
H20_2 H 0.4973 0.9958 0.6055
C32_2 C 0.5729(2) 0.9943(2) 0.8608(3)
H21_2 H 0.6224 0.9939 0.9368
O6_2 O 0.70798(15) 0.96453(15) 0.8952(2)
C33_2 C 0.07713(18) 0.94885(12) 0.9087(2)
O7_2 O 0.10279(12) 0.96532(8) 0.86590(16)
O8_2 O 0.01243(12) 0.96303(8) 0.88026(16)
C2_2 C 0.92287(18) 0.94885(12) 0.5913(2)
C6_2 C 0.87290(18) 0.90744(12) 0.4985(2)
C9_2 C 0.89825(19) 0.88712(13) 0.4473(2)
H4_2 H 0.9461 0.8996 0.4702
C10_2 C 0.7996(2) 0.88983(15) 0.4600(3)
H5_2 H 0.7809 0.9040 0.4911
C11_2 C 0.8532(2) 0.84853(14) 0.3625(3)
H6_2 H 0.8706 0.8350 0.3292
C13_2 C 0.7076(2) 0.72683(15) 0.1278(3)
C14_2 C 0.6908(2) 0.66207(16) 0.0065(3)
C15_2 C 0.7819(2) 0.83070(14) 0.3288(3)
C17_2 C 0.7546(2) 0.85166(16) 0.3763(3)
H9_2 H 0.7059 0.8399 0.3517
C18_2 C 0.6005(2) 0.66334(17) 0.0301(3)
H10_2 H 0.5563 0.6492 0.0152
C19_2 C 0.7318(2) 0.70495(17) 0.0798(3)
H11_2 H 0.7766 0.7188 0.0960
C22_2 C 0.6410(3) 0.70593(17) 0.1022(4)
H13_2 H 0.6232 0.7208 0.1342
N1_2 N 0.75736(18) 0.77014(13) 0.2070(2)
N2_2 N 0.73022(19) 0.78936(13) 0.2442(2)
O1_2 O 0.89721(12) 0.96532(8) 0.63410(16)
O2_2 O 0.98757(12) 0.96303(8) 0.61974(16)
C3_3 C 0.42043(18) 0.40538(12) 0.1000(2)
C7_3 C 0.37573(18) 0.35884(13) 0.0205(2)
H8_3 H 0.2909 0.3527 0.0248
O3_2 O 0.39714(12) 0.42063(9) 0.14722(16)
O4_2 O 0.47719(13) 0.42497(9) 0.11434(16)
Zn4 Zn 0.439892(17) 0.480327(13) 0.26100(2)
Zn6 Zn 0.560108(17) 0.480327(13) 0.23900(2)
C34_3 C 0.57957(18) 0.40538(12) 0.4000(2)
C35_3 C 0.87290(18) 0.09256(12) 0.9985(2)
C36_3 C 0.62427(18) 0.35884(13) 0.4795(2)
C37_3 C 0.89825(19) 0.11288(13) 0.9473(2)
H23_3 H 0.9461 0.1004 0.9702
C38_3 C 0.7996(2) 0.11017(15) 0.9600(3)
H24_3 H 0.7809 0.0960 0.9911
C39_3 C 0.8532(2) 0.15147(14) 0.8625(3)
H25_3 H 0.8706 0.1650 0.8292
C40_3 C 0.7076(2) 0.27317(15) 0.6278(3)
C41_3 C 0.6908(2) 0.33793(16) 0.5065(3)
H26_3 H 0.7091 0.3527 0.4752
C42_3 C 0.7819(2) 0.16930(14) 0.8288(3)
C43_3 C 0.7546(2) 0.14834(16) 0.8763(3)
H27_3 H 0.7059 0.1601 0.8517
C44_3 C 0.6005(2) 0.33666(17) 0.5301(3)
H28_3 H 0.5563 0.3508 0.5152
C45_3 C 0.7318(2) 0.29505(17) 0.5798(3)
H29_3 H 0.7766 0.2812 0.5960
C46_3 C 0.6410(3) 0.29407(17) 0.6022(4)
H30_3 H 0.6232 0.2792 0.6342
N7_3 N 0.75736(18) 0.22986(13) 0.7070(2)
N8_3 N 0.73022(19) 0.21064(13) 0.7442(2)
O9_2 O 0.60286(12) 0.42063(9) 0.35278(16)
O10_2 O 0.52281(13) 0.42497(9) 0.38566(16)
C1_3 C 0.22197(17) 0.48787(14) 0.2468(2)
C2_3 C 0.57713(18) 0.55115(12) 0.4087(2)
C4_3 C 0.29352(17) 0.51580(14) 0.3296(2)
H1_3 H 0.3002 0.5365 0.3830
C5_3 C 0.35416(17) 0.51220(13) 0.3310(2)
H2_3 H 0.4024 0.5303 0.3879
C6_3 C 0.62710(18) 0.59256(12) 0.5015(2)
C8_3 C 0.27865(17) 0.45770(14) 0.1748(2)
H3_3 H 0.2732 0.4382 0.1211
C9_3 C 0.60175(19) 0.61288(13) 0.5527(2)
H4_3 H 0.5539 0.6004 0.5298
C10_3 C 0.7004(2) 0.61017(15) 0.5400(3)
H5_3 H 0.7191 0.5960 0.5089
C11_3 C 0.6468(2) 0.65147(14) 0.6375(3)
H6_3 H 0.6294 0.6650 0.6708
C12_3 C 0.21501(18) 0.45805(15) 0.1679(2)
H7_3 H 0.1681 0.4387 0.1115
C13_3 C 0.7924(2) 0.77317(15) 0.8722(3)
C14_3 C 0.8092(2) 0.83793(16) 0.9935(3)
C15_3 C 0.7181(2) 0.66930(14) 0.6712(3)
C16_3 C 0.1525(2) 0.51149(19) 0.3097(3)
C17_3 C 0.7454(2) 0.64834(16) 0.6237(3)
H9_3 H 0.7941 0.6601 0.6483
C18_3 C 0.8995(2) 0.83666(17) 0.9699(3)
H10_3 H 0.9437 0.8508 0.9848
C19_3 C 0.7682(2) 0.79505(17) 0.9202(3)
H11_3 H 0.7234 0.7812 0.9040
C20_3 C 0.0720(2) 0.50579(18) 0.2753(3)
C22_3 C 0.8590(3) 0.79407(17) 0.8978(4)
H13_3 H 0.8768 0.7792 0.8658
C23_3 C 0.0729(2) 0.5057(2) 0.3608(3)
H14_3 H 0.1224 0.5061 0.4368
H15_3 H 0.117(2) 0.4698(14) 0.188(3)
N1_3 N 0.74264(18) 0.72986(13) 0.7930(2)
N2_3 N 0.76978(19) 0.71064(13) 0.7558(2)
N3_3 N 0.34814(12) 0.48418(10) 0.25542(17)
N4_3 N 0.15629(16) 0.48748(14) 0.2379(2)
O1_3 O 0.60279(12) 0.53468(8) 0.36590(16)
O2_3 O 0.51243(12) 0.53697(8) 0.38026(16)
O5_3 O 0.20798(15) 0.53547(15) 0.3952(2)
C31_3 C 0.0010(2) 0.5051(2) 0.3355(3)
H20_3 H 0.0027 0.5042 0.3945
C33_3 C 0.42287(18) 0.55115(12) 0.0913(2)
O7_3 O 0.39721(12) 0.53468(8) 0.13410(16)
O8_3 O 0.48757(12) 0.53697(8) 0.11974(16)
N9 N 0.65186(12) 0.48418(10) 0.24458(17)
C21_3 C 0.9990(2) 0.5051(2) 0.1645(3)
H12_3 H 0.9973 0.5042 0.1055
C24_3 C 0.77803(17) 0.48787(14) 0.2532(2)
C25_3 C 0.70648(17) 0.51580(14) 0.1704(2)
H16_3 H 0.6998 0.5365 0.1170
C26_3 C 0.64584(17) 0.51220(13) 0.1690(2)
H17_3 H 0.5976 0.5303 0.1121
C27_3 C 0.72135(17) 0.45770(14) 0.3252(2)
H18_3 H 0.7268 0.4382 0.3789
C28_3 C 0.78499(18) 0.45805(15) 0.3321(2)
H19_3 H 0.8319 0.4387 0.3885
C29_3 C 0.8475(2) 0.51149(19) 0.1903(3)
C30_3 C 0.9280(2) 0.50579(18) 0.2247(3)
C32_3 C 0.9271(2) 0.5057(2) 0.1392(3)
H21_3 H 0.8776 0.5061 0.0632
H22_3 H 0.883(2) 0.4698(14) 0.312(3)
N6_3 N 0.84371(16) 0.48748(14) 0.2621(2)
O6_3 O 0.79202(15) 0.53547(15) 0.1048(2)
C2_4 C 0.07713(18) 0.05115(12) 0.4087(2)
C6_4 C 0.12710(18) 0.09256(12) 0.5015(2)
C9_4 C 0.10175(19) 0.11288(13) 0.5527(2)
H4_4 H 0.0539 0.1004 0.5298
C10_4 C 0.2004(2) 0.11017(15) 0.5400(3)
H5_4 H 0.2191 0.0960 0.5089
C11_4 C 0.1468(2) 0.15147(14) 0.6375(3)
H6_4 H 0.1294 0.1650 0.6708
C13_4 C 0.2924(2) 0.27317(15) 0.8722(3)
C14_4 C 0.3092(2) 0.33793(16) 0.9935(3)
C15_4 C 0.2181(2) 0.16930(14) 0.6712(3)
C17_4 C 0.2454(2) 0.14834(16) 0.6237(3)
H9_4 H 0.2941 0.1601 0.6483
C18_4 C 0.3995(2) 0.33666(17) 0.9699(3)
H10_4 H 0.4437 0.3508 0.9848
C19_4 C 0.2682(2) 0.29505(17) 0.9202(3)
H11_4 H 0.2234 0.2812 0.9040
C22_4 C 0.3590(3) 0.29407(17) 0.8978(4)
H13_4 H 0.3768 0.2792 0.8658
N1_4 N 0.24264(18) 0.22986(13) 0.7930(2)
N2_4 N 0.26978(19) 0.21064(13) 0.7558(2)
O1_4 O 0.10279(12) 0.03468(8) 0.36590(16)
O2_4 O 0.01243(12) 0.03697(8) 0.38026(16)
C4_4 C 0.79352(17) 0.01580(14) 0.3296(2)
H1_4 H 0.8002 0.0365 0.3830
C5_4 C 0.85416(17) 0.01220(13) 0.3310(2)
H2_4 H 0.9024 0.0303 0.3879
C16_4 C 0.6525(2) 0.01149(19) 0.3097(3)
C20_4 C 0.5720(2) 0.00579(18) 0.2753(3)
C21_4 C 0.4990(2) 0.0051(2) 0.1645(3)
H12_4 H 0.4973 0.0042 0.1055
C23_4 C 0.5729(2) 0.0057(2) 0.3608(3)
H14_4 H 0.6224 0.0061 0.4368
O5_4 O 0.70798(15) 0.03547(15) 0.3952(2)
C25_4 C 0.20648(17) 0.01580(14) 0.1704(2)
H16_4 H 0.1998 0.0365 0.1170
C26_4 C 0.14584(17) 0.01220(13) 0.1690(2)
H17_4 H 0.0976 0.0303 0.1121
C29_4 C 0.3475(2) 0.01149(19) 0.1903(3)
C30_4 C 0.4280(2) 0.00579(18) 0.2247(3)
C31_4 C 0.5010(2) 0.0051(2) 0.3355(3)
H20_4 H 0.5027 0.0042 0.3945
C32_4 C 0.4271(2) 0.0057(2) 0.1392(3)
H21_4 H 0.3776 0.0061 0.0632
O6_4 O 0.29202(15) 0.03547(15) 0.1048(2)
C33_4 C 0.92287(18) 0.05115(12) 0.0913(2)
O7_4 O 0.89721(12) 0.03468(8) 0.13410(16)
O8_4 O 0.98757(12) 0.03697(8) 0.11974(16)
Zn2 Zn 0.060108(17) 0.980327(13) 0.23900(2)
N9_2 N 0.15186(12) 0.98418(10) 0.24458(17)
O12_2 O 0.10286(12) 0.92063(9) 0.35278(16)
O14_2 O 0.02281(13) 0.92497(9) 0.38566(16)
C1_4 C 0.72197(17) 0.98787(14) 0.2468(2)
C8_4 C 0.77865(17) 0.95770(14) 0.1748(2)
H3_4 H 0.7732 0.9382 0.1211
C12_4 C 0.71501(18) 0.95805(15) 0.1679(2)
H7_4 H 0.6681 0.9387 0.1115
H15_4 H 0.617(2) 0.9698(14) 0.188(3)
N3_4 N 0.84814(12) 0.98418(10) 0.25542(17)
N4_4 N 0.65629(16) 0.98748(14) 0.2379(2)
Zn1_2 Zn 0.939892(17) 0.980327(13) 0.26100(2)
C24_4 C 0.27803(17) 0.98787(14) 0.2532(2)
C27_4 C 0.22135(17) 0.95770(14) 0.3252(2)
H18_4 H 0.2268 0.9382 0.3789
C28_4 C 0.28499(18) 0.95805(15) 0.3321(2)
H19_4 H 0.3319 0.9387 0.3885
H22_4 H 0.383(2) 0.9698(14) 0.312(3)
N6_4 N 0.34371(16) 0.98748(14) 0.2621(2)
O11_2 O 0.89714(12) 0.92063(9) 0.14722(16)
O13_2 O 0.97719(13) 0.92497(9) 0.11434(16)
C3_4 C 0.92043(18) 0.90538(12) 0.1000(2)
C7_4 C 0.87573(18) 0.85884(13) 0.0205(2)
H8_4 H 0.7909 0.8527 0.0248
C34_4 C 0.07957(18) 0.90538(12) 0.4000(2)
C35_4 C 0.37290(18) 0.59256(12) 0.9985(2)
C36_4 C 0.12427(18) 0.85884(13) 0.4795(2)
C37_4 C 0.39825(19) 0.61288(13) 0.9473(2)
H23_4 H 0.4461 0.6004 0.9702
C38_4 C 0.2996(2) 0.61017(15) 0.9600(3)
H24_4 H 0.2809 0.5960 0.9911
C39_4 C 0.3532(2) 0.65147(14) 0.8625(3)
H25_4 H 0.3706 0.6650 0.8292
C40_4 C 0.2076(2) 0.77317(15) 0.6278(3)
C41_4 C 0.1908(2) 0.83793(16) 0.5065(3)
H26_4 H 0.2091 0.8527 0.4752
C42_4 C 0.2819(2) 0.66930(14) 0.8288(3)
C43_4 C 0.2546(2) 0.64834(16) 0.8763(3)
H27_4 H 0.2059 0.6601 0.8517
C44_4 C 0.1005(2) 0.83666(17) 0.5301(3)
H28_4 H 0.0563 0.8508 0.5152
C45_4 C 0.2318(2) 0.79505(17) 0.5798(3)
H29_4 H 0.2766 0.7812 0.5960
C46_4 C 0.1410(3) 0.79407(17) 0.6022(4)
H30_4 H 0.1232 0.7792 0.6342
N7_4 N 0.25736(18) 0.72986(13) 0.7070(2)
N8_4 N 0.23022(19) 0.71064(13) 0.7442(2)
loop_
_geom_bond_atom_site_label_1
_geom_bond_atom_site_label_2
_geom_bond_site_symmetry_1
_geom_bond_site_symmetry_2
C8 H3 1_555 1_555
C12 C1 1_555 1_555
H7 C12 1_555 1_555
H15 N4 1_555 1_555
N4 C1 1_555 1_555
Zn1 N3 1_555 1_555
C27 H18 1_555 1_555
C28 C24 1_555 1_555
H19 C28 1_555 1_555
H22 N6 1_555 1_555
N6 C24 1_555 1_555
O11 Zn1 1_555 1_555
Zn3 N5 1_555 1_555
C8 C12 1_555 1_555
C8 N3 1_555 1_555
C27 C28 1_555 1_555
C27 N5 1_555 1_555
O12 Zn3 1_555 1_555
C34 C36 1_555 1_555
C35 C37 1_555 1_555
C36 C41 1_555 1_555
C37 H23 1_555 1_555
C38 C35 1_555 1_555
H24 C38 1_555 1_555
C39 C37 1_555 1_555
H25 C39 1_555 1_555
C40 C45 1_555 1_555
C41 H26 1_555 1_555
C42 C39 1_555 1_555
C43 C38 1_555 1_555
H27 C43 1_555 1_555
C44 C36 1_555 1_555
H28 C44 1_555 1_555
C45 C41 1_555 1_555
H29 C45 1_555 1_555
C46 C40 1_555 1_555
H30 C46 1_555 1_555
N7 C40 1_555 1_555
N8 C42 1_555 1_555
O12 C34 1_555 1_555
O14 C34 1_555 1_555
C42 C43 1_555 1_555
C44 C46 1_555 1_555
N7 N8 1_555 1_555
C3 C7 1_555 1_555
O11 C3 1_555 1_555
O13 C3 1_555 1_555
C34_2 C36_2 1_555 1_555
C35_2 C37_2 1_555 1_555
C36_2 C41_2 1_555 1_555
C37_2 H23_2 1_555 1_555
C38_2 C35_2 1_555 1_555
H24_2 C38_2 1_555 1_555
C39_2 C37_2 1_555 1_555
H25_2 C39_2 1_555 1_555
C40_2 C45_2 1_555 1_555
C41_2 H26_2 1_555 1_555
C42_2 C39_2 1_555 1_555
C43_2 C38_2 1_555 1_555
H27_2 C43_2 1_555 1_555
C44_2 C36_2 1_555 1_555
H28_2 C44_2 1_555 1_555
C45_2 C41_2 1_555 1_555
H29_2 C45_2 1_555 1_555
C46_2 C40_2 1_555 1_555
H30_2 C46_2 1_555 1_555
N7_2 C40_2 1_555 1_555
N8_2 C42_2 1_555 1_555
O9 C34_2 1_555 1_555
O10 C34_2 1_555 1_555
Zn5 O10 1_555 1_555
Zn7 O9 1_555 1_555
C42_2 C43_2 1_555 1_555
C44_2 C46_2 1_555 1_555
N7_2 N8_2 1_555 1_555
C3_2 C7_2 1_555 1_555
O3 C3_2 1_555 1_555
O4 C3_2 1_555 1_555
Zn5 O3 1_555 1_555
Zn7 O4 1_555 1_555
C21 H12 1_555 1_555
C24_2 C25 1_555 1_555
C25 H16 1_555 1_555
C26 C25 1_555 1_555
H17 C26 1_555 1_555
C27_2 H18_2 1_555 1_555
C28_2 C24_2 1_555 1_555
H19_2 C28_2 1_555 1_555
C29 C30 1_555 1_555
C32 C21 1_555 1_555
H21 C32 1_555 1_555
H22_2 N6_2 1_555 1_555
N5_2 C26 1_555 1_555
N6_2 C24_2 1_555 1_555
O6 C29 1_555 1_555
Zn7 N5_2 1_555 1_555
C27_2 C28_2 1_555 1_555
C27_2 N5_2 1_555 1_555
C29 N6_2 1_555 1_555
C30 C32 1_555 1_555
C1_2 C4 1_555 1_555
C2 C6 1_555 1_555
C4 H1 1_555 1_555
C5 C4 1_555 1_555
H2 C5 1_555 1_555
C6 C9 1_555 1_555
C8_2 H3_2 1_555 1_555
C9 H4 1_555 1_555
C10 C6 1_555 1_555
H5 C10 1_555 1_555
C11 C9 1_555 1_555
H6 C11 1_555 1_555
C12_2 C1_2 1_555 1_555
H7_2 C12_2 1_555 1_555
C13 C19 1_555 1_555
C15 C11 1_555 1_555
C16 C20 1_555 1_555
C17 C10 1_555 1_555
H9 C17 1_555 1_555
H10 C18 1_555 1_555
C19 C14 1_555 1_555
H11 C19 1_555 1_555
C22 C13 1_555 1_555
H13 C22 1_555 1_555
C23 C20 1_555 1_555
H14 C23 1_555 1_555
H15_2 N4_2 1_555 1_555
N1 C13 1_555 1_555
N2 C15 1_555 1_555
N3_2 C5 1_555 1_555
N4_2 C1_2 1_555 1_555
O1 C2 1_555 1_555
O2 C2 1_555 1_555
O5 C16 1_555 1_555
Zn5 N3_2 1_555 1_555
C31 C23 1_555 1_555
H20 C31 1_555 1_555
O7 Zn5 1_555 1_555
O8 C33 1_555 1_555
Zn7 O1 1_555 1_555
C8_2 C12_2 1_555 1_555
C8_2 N3_2 1_555 1_555
C15 C17 1_555 1_555
C16 N4_2 1_555 1_555
C18 C22 1_555 1_555
N1 N2 1_555 1_555
O2 Zn5 1_555 1_555
C33 O7 1_555 1_555
O8 Zn7 1_555 1_555
C4_2 H1_2 1_555 1_555
C5_2 C4_2 1_555 1_555
H2_2 C5_2 1_555 1_555
C16_2 C20_2 1_555 1_555
C20_2 C21_2 1_555 1_555
C21_2 H12_2 1_555 1_555
C23_2 C20_2 1_555 1_555
H14_2 C23_2 1_555 1_555
O5_2 C16_2 1_555 1_555
C25_2 H16_2 1_555 1_555
C26_2 C25_2 1_555 1_555
H17_2 C26_2 1_555 1_555
C29_2 C30_2 1_555 1_555
C30_2 C31_2 1_555 1_555
C31_2 C23_2 1_555 1_555
H20_2 C31_2 1_555 1_555
C32_2 C21_2 1_555 1_555
H21_2 C32_2 1_555 1_555
O6_2 C29_2 1_555 1_555
O8_2 C33_2 1_555 1_555
C30_2 C32_2 1_555 1_555
C33_2 O7_2 1_555 1_555
C2_2 C6_2 1_555 1_555
C6_2 C9_2 1_555 1_555
C9_2 H4_2 1_555 1_555
C10_2 C6_2 1_555 1_555
H5_2 C10_2 1_555 1_555
C11_2 C9_2 1_555 1_555
H6_2 C11_2 1_555 1_555
C13_2 C19_2 1_555 1_555
C15_2 C11_2 1_555 1_555
C17_2 C10_2 1_555 1_555
H9_2 C17_2 1_555 1_555
H10_2 C18_2 1_555 1_555
C19_2 C14_2 1_555 1_555
H11_2 C19_2 1_555 1_555
C22_2 C13_2 1_555 1_555
H13_2 C22_2 1_555 1_555
N1_2 C13_2 1_555 1_555
N2_2 C15_2 1_555 1_555
O1_2 C2_2 1_555 1_555
O2_2 C2_2 1_555 1_555
C15_2 C17_2 1_555 1_555
C18_2 C22_2 1_555 1_555
N1_2 N2_2 1_555 1_555
C3_3 C7_3 1_555 1_555
O3_2 C3_3 1_555 1_555
O4_2 C3_3 1_555 1_555
Zn4 O3_2 1_555 1_555
Zn6 O4_2 1_555 1_555
C34_3 C36_3 1_555 1_555
C35_3 C37_3 1_555 1_555
C36_3 C41_3 1_555 1_555
C37_3 H23_3 1_555 1_555
C38_3 C35_3 1_555 1_555
H24_3 C38_3 1_555 1_555
C39_3 C37_3 1_555 1_555
H25_3 C39_3 1_555 1_555
C40_3 C45_3 1_555 1_555
C41_3 H26_3 1_555 1_555
C42_3 C39_3 1_555 1_555
C43_3 C38_3 1_555 1_555
H27_3 C43_3 1_555 1_555
C44_3 C36_3 1_555 1_555
H28_3 C44_3 1_555 1_555
C45_3 C41_3 1_555 1_555
H29_3 C45_3 1_555 1_555
C46_3 C40_3 1_555 1_555
H30_3 C46_3 1_555 1_555
N7_3 C40_3 1_555 1_555
N8_3 C42_3 1_555 1_555
O9_2 C34_3 1_555 1_555
O10_2 C34_3 1_555 1_555
Zn4 O10_2 1_555 1_555
Zn6 O9_2 1_555 1_555
C42_3 C43_3 1_555 1_555
C44_3 C46_3 1_555 1_555
N7_3 N8_3 1_555 1_555
C1_3 C4_3 1_555 1_555
C2_3 C6_3 1_555 1_555
C4_3 H1_3 1_555 1_555
C5_3 C4_3 1_555 1_555
H2_3 C5_3 1_555 1_555
C6_3 C9_3 1_555 1_555
C8_3 H3_3 1_555 1_555
C9_3 H4_3 1_555 1_555
C10_3 C6_3 1_555 1_555
H5_3 C10_3 1_555 1_555
C11_3 C9_3 1_555 1_555
H6_3 C11_3 1_555 1_555
C12_3 C1_3 1_555 1_555
H7_3 C12_3 1_555 1_555
C13_3 C19_3 1_555 1_555
C15_3 C11_3 1_555 1_555
C16_3 C20_3 1_555 1_555
C17_3 C10_3 1_555 1_555
H9_3 C17_3 1_555 1_555
H10_3 C18_3 1_555 1_555
C19_3 C14_3 1_555 1_555
H11_3 C19_3 1_555 1_555
C22_3 C13_3 1_555 1_555
H13_3 C22_3 1_555 1_555
C23_3 C20_3 1_555 1_555
H14_3 C23_3 1_555 1_555
H15_3 N4_3 1_555 1_555
N1_3 C13_3 1_555 1_555
N2_3 C15_3 1_555 1_555
N3_3 C5_3 1_555 1_555
N4_3 C1_3 1_555 1_555
O1_3 C2_3 1_555 1_555
O2_3 C2_3 1_555 1_555
O5_3 C16_3 1_555 1_555
Zn4 N3_3 1_555 1_555
C31_3 C23_3 1_555 1_555
H20_3 C31_3 1_555 1_555
O7_3 Zn4 1_555 1_555
O8_3 C33_3 1_555 1_555
Zn6 O1_3 1_555 1_555
N9 Zn6 1_555 1_555
C8_3 C12_3 1_555 1_555
C8_3 N3_3 1_555 1_555
C15_3 C17_3 1_555 1_555
C16_3 N4_3 1_555 1_555
C18_3 C22_3 1_555 1_555
N1_3 N2_3 1_555 1_555
O2_3 Zn4 1_555 1_555
C33_3 O7_3 1_555 1_555
O8_3 Zn6 1_555 1_555
C21_3 H12_3 1_555 1_555
C24_3 C25_3 1_555 1_555
C25_3 H16_3 1_555 1_555
C26_3 C25_3 1_555 1_555
H17_3 C26_3 1_555 1_555
C27_3 H18_3 1_555 1_555
C28_3 C24_3 1_555 1_555
H19_3 C28_3 1_555 1_555
C29_3 C30_3 1_555 1_555
C32_3 C21_3 1_555 1_555
H21_3 C32_3 1_555 1_555
H22_3 N6_3 1_555 1_555
N9 C26_3 1_555 1_555
N6_3 C24_3 1_555 1_555
O6_3 C29_3 1_555 1_555
C27_3 C28_3 1_555 1_555
C27_3 N9 1_555 1_555
C29_3 N6_3 1_555 1_555
C30_3 C32_3 1_555 1_555
C2_4 C6_4 1_555 1_555
C6_4 C9_4 1_555 1_555
C9_4 H4_4 1_555 1_555
C10_4 C6_4 1_555 1_555
H5_4 C10_4 1_555 1_555
C11_4 C9_4 1_555 1_555
H6_4 C11_4 1_555 1_555
C13_4 C19_4 1_555 1_555
C15_4 C11_4 1_555 1_555
C17_4 C10_4 1_555 1_555
H9_4 C17_4 1_555 1_555
H10_4 C18_4 1_555 1_555
C19_4 C14_4 1_555 1_555
H11_4 C19_4 1_555 1_555
C22_4 C13_4 1_555 1_555
H13_4 C22_4 1_555 1_555
N1_4 C13_4 1_555 1_555
N2_4 C15_4 1_555 1_555
O1_4 C2_4 1_555 1_555
O2_4 C2_4 1_555 1_555
C15_4 C17_4 1_555 1_555
C18_4 C22_4 1_555 1_555
N1_4 N2_4 1_555 1_555
C4_4 H1_4 1_555 1_555
C5_4 C4_4 1_555 1_555
H2_4 C5_4 1_555 1_555
C16_4 C20_4 1_555 1_555
C20_4 C21_4 1_555 1_555
C21_4 H12_4 1_555 1_555
C23_4 C20_4 1_555 1_555
H14_4 C23_4 1_555 1_555
O5_4 C16_4 1_555 1_555
C25_4 H16_4 1_555 1_555
C26_4 C25_4 1_555 1_555
H17_4 C26_4 1_555 1_555
C29_4 C30_4 1_555 1_555
C30_4 C31_4 1_555 1_555
C31_4 C23_4 1_555 1_555
H20_4 C31_4 1_555 1_555
C32_4 C21_4 1_555 1_555
H21_4 C32_4 1_555 1_555
O6_4 C29_4 1_555 1_555
O8_4 C33_4 1_555 1_555
C30_4 C32_4 1_555 1_555
C33_4 O7_4 1_555 1_555
N9_2 Zn2 1_555 1_555
O12_2 Zn2 1_555 1_555
C8_4 H3_4 1_555 1_555
C12_4 C1_4 1_555 1_555
H7_4 C12_4 1_555 1_555
H15_4 N4_4 1_555 1_555
N4_4 C1_4 1_555 1_555
Zn1_2 N3_4 1_555 1_555
C27_4 H18_4 1_555 1_555
C28_4 C24_4 1_555 1_555
H19_4 C28_4 1_555 1_555
H22_4 N6_4 1_555 1_555
N6_4 C24_4 1_555 1_555
O11_2 Zn1_2 1_555 1_555
C8_4 C12_4 1_555 1_555
C8_4 N3_4 1_555 1_555
C27_4 C28_4 1_555 1_555
C27_4 N9_2 1_555 1_555
C3_4 C7_4 1_555 1_555
O11_2 C3_4 1_555 1_555
O13_2 C3_4 1_555 1_555
C34_4 C36_4 1_555 1_555
C35_4 C37_4 1_555 1_555
C36_4 C41_4 1_555 1_555
C37_4 H23_4 1_555 1_555
C38_4 C35_4 1_555 1_555
H24_4 C38_4 1_555 1_555
C39_4 C37_4 1_555 1_555
H25_4 C39_4 1_555 1_555
C40_4 C45_4 1_555 1_555
C41_4 H26_4 1_555 1_555
C42_4 C39_4 1_555 1_555
C43_4 C38_4 1_555 1_555
H27_4 C43_4 1_555 1_555
C44_4 C36_4 1_555 1_555
H28_4 C44_4 1_555 1_555
C45_4 C41_4 1_555 1_555
H29_4 C45_4 1_555 1_555
C46_4 C40_4 1_555 1_555
H30_4 C46_4 1_555 1_555
N7_4 C40_4 1_555 1_555
N8_4 C42_4 1_555 1_555
O12_2 C34_4 1_555 1_555
O14_2 C34_4 1_555 1_555
C42_4 C43_4 1_555 1_555
C44_4 C46_4 1_555 1_555
N7_4 N8_4 1_555 1_555

#END
