
###############################################################################
#
# This file contains modified crystal structure data generated from the
# MOF subset of the Cambridge Structural Database (CSD) v543 
# hosted by the Cambridge Crystallographic Data Centre (CCDC).
#
# This work is licensed under the Creative Commons
# Attribution-NonCommercial-ShareAlike 4.0 International License.
# To view a copy of this license, visit
# http://creativecommons.org/licenses/by-nc-sa/4.0/
# or send a letter to
# Creative Commons, PO Box 1866, Mountain View, CA 94042, USA.
#
# CIF created using the CSD Python API on 29 September 2022
# The structure has been converted into the P1 space group
# The structure has a 3D framework
# The original CSD entry SUXPOS is in the triclinic crystal system
# The framework has been calculated to contain at least 10.0% void space
# The void calculation uses a probe of radius 1.32A, grid spacing 0.4
# H atom positions have been added when not included in the experimental data
#
###############################################################################

data_SUXPOS
_chemical_formula_moiety         '(C32 H48 Cu8 N24 O130 Si2 W24)n'
_symmetry_cell_setting           triclinic
_symmetry_space_group_name_H-M   'P 1'
_symmetry_Int_Tables_number      1
_space_group_name_Hall           'P 1'
loop_
_symmetry_equiv_pos_site_id
_symmetry_equiv_pos_as_xyz
1 x,y,z
_cell_length_a                   13.052(5)
_cell_length_b                   16.309(5)
_cell_length_c                   19.758(5)
_cell_angle_alpha                72.567(5)
_cell_angle_beta                 88.003(5)
_cell_angle_gamma                81.935(5)
_cell_volume                     3972.81
loop_
_atom_site_label
_atom_site_type_symbol
_atom_site_fract_x
_atom_site_fract_y
_atom_site_fract_z
O63 O 0.062(3) 0.062(3) 0.1460(18)
Cu4 Cu 0.0450(3) 0.1063(2) 0.0093(2)
H1 H 0.00719127 0.0260988 0.167911
H2 H 0.131044 0.0279961 0.16079
H4 H 0.21564 0.140241 0.0367956
C13 C 0.351(2) 0.904(2) 0.9307(18)
C14 C 0.253(3) 0.928(2) 0.9498(16)
C15 C 0.1574(18) 0.8896(16) 0.9573(13)
C16 C 0.133(2) 0.8075(19) 0.9547(16)
N12 N 0.0860(19) 0.9424(15) 0.9755(12)
O59 O 0.200(3) 0.7486(19) 0.9359(17)
O60 O 0.3773(15) 0.8349(16) 0.9138(14)
O62 O 0.0441(15) 0.7949(12) 0.9697(11)
O64 O 0.4239(18) 0.951(2) 0.9341(16)
H5 H 0.430897 0.952064 0.983704
O1 O 0.9100(14) 0.0817(13) 0.6491(10)
O2 O 0.6504(11) 0.3560(11) 0.6816(9)
O3 O 0.4997(15) 0.5915(14) 0.5816(10)
O4 O 0.2681(6) 0.3785(6) 0.5753(4)
Si1 Si 0.6020(6) 0.2711(6) 0.7292(4)
O5 O 0.5886(14) 0.1703(15) 0.5019(10)
O6 O 0.6942(14) 0.1402(12) 0.6332(11)
O7 O 0.5737(14) 0.1149(14) 0.8795(10)
O8 O 0.5295(12) 0.2493(10) 0.9309(9)
O9 O 0.6780(12) 0.4137(12) 0.8034(11)
O10 O 0.3565(12) 0.3562(14) 0.7117(11)
O11 O 0.7242(14) 0.2519(12) 0.8825(9)
O12 O 0.5232(11) 0.2411(10) 0.6846(8)
O13 O 0.3575(15) 0.0416(14) 0.7371(11)
O14 O 0.7829(15) 0.0880(13) 0.8741(10)
O15 O 0.6515(13) 0.2971(12) 0.5562(10)
O16 O 0.4494(14) 0.2777(15) 0.5555(10)
O17 O 0.4740(14) 0.4721(13) 0.7103(10)
O18 O 0.8137(12) 0.2548(12) 0.6333(10)
O19 O 0.7713(15) 0.0356(13) 0.7615(11)
O20 O 0.8933(13) 0.1529(12) 0.7598(10)
O21 O 0.3626(12) 0.2957(12) 0.8532(9)
O22 O 0.6510(13) 0.4621(11) 0.5578(10)
O23 O 0.8179(14) 0.4179(13) 0.6338(10)
O24 O 0.4858(13) 0.4104(11) 0.8539(9)
O25 O 0.6944(12) 0.1962(11) 0.7585(8)
O26 O 0.4633(11) 0.4182(10) 0.6023(8)
O27 O 0.8334(14) 0.3157(13) 0.7696(8)
O28 O 0.9363(14) 0.1863(15) 0.8880(10)
O29 O 0.4977(14) 0.1119(13) 0.6350(11)
O33 O 0.5584(14) 0.0634(13) 0.7678(9)
O34 O 0.6651(13) 0.5153(12) 0.6706(9)
O35 O 0.3406(14) 0.2142(13) 0.6698(9)
O37 O 0.6463(15) 0.3734(12) 0.9508(10)
O38 O 0.8492(13) 0.4918(11) 0.7399(9)
O40 O 0.3861(14) 0.1366(12) 0.9527(10)
O41 O 0.8205(14) 0.3847(16) 0.5038(10)
O42 O 0.2920(14) 0.4708(16) 0.7918(11)
O43 O 0.4107(13) 0.1612(13) 0.8046(9)
O46 O 0.717(3) 0.079(2) 0.3888(19)
O47 O 0.5365(12) 0.2922(11) 0.7950(8)
O51 O 0.767(2) -0.000(2) 0.5337(17)
Cu1 Cu 0.6504(3) 0.5027(3) 0.9832(2)
Cu2 Cu 0.6436(3) 0.0194(3) 0.4752(2)
W1 W 0.83109(7) 0.19868(7) 0.83330(6)
W2 W 0.74654(7) 0.36337(7) 0.57733(5)
W3 W 0.39575(8) 0.40028(8) 0.78155(6)
W4 W 0.61351(8) 0.33810(7) 0.88234(6)
W5 W 0.57603(8) 0.20135(8) 0.57834(6)
W6 W 0.45477(8) 0.19311(8) 0.88267(6)
W7 W 0.76752(8) 0.42583(7) 0.72429(6)
W8 W 0.67021(9) 0.05394(7) 0.83172(6)
W9 W 0.37832(7) 0.33058(8) 0.62255(6)
W10 W 0.81331(8) 0.13643(8) 0.68721(6)
W11 W 0.54985(8) 0.49079(7) 0.62414(6)
W12 W 0.43288(9) 0.12246(8) 0.72360(6)
N13 N 0.521(2) 0.5567(19) 0.9238(14)
N14 N 0.5204(19) 0.0474(18) 0.4174(15)
O65 O 0.714(2) 0.5581(17) 0.8895(14)
N15 N 0.9681(15) 0.5235(19) 0.4208(11)
O66 O 0.9694(18) 0.3882(18) 0.3727(11)
Cu7 Cu 0.9978(2) 0.6041(2) 0.53269(19)
H10 H 0.70157 0.662373 0.984758
H14 H 0.850776 0.468735 0.982588
H16 H 0.792455 0.0698186 0.398829
H17 H 0.703953 0.054955 0.349784
H21 H 0.968585 0.248951 0.475175
C1 C 0.368(3) 0.066(3) 0.376(2)
C2 C 0.256(4) 0.057(4) 0.389(3)
C3 C 0.427(3) 0.098(2) 0.3232(18)
C4 C 0.390(4) 0.148(3) 0.244(2)
N5 N 0.531(2) 0.089(2) 0.3472(16)
N6 N 0.425(2) 0.033(2) 0.4307(16)
O39 O 0.3234(16) 0.0526(12) 0.1171(10)
O44 O 0.316(2) 0.1218(17) 0.5421(13)
O48 O 0.297(3) 0.153(2) 0.2322(17)
O49 O 0.458(3) 0.169(2) 0.2026(19)
O50 O 0.179(3) 0.085(3) 0.344(2)
O51_2 O 0.233(2) 0.000(2) 0.4663(17)
H7 H 0.594928 0.108224 0.319654
H11 H 0.381041 0.146508 0.543205
H12 H 0.279075 0.116339 0.587712
H15 H 0.277594 0.0937333 0.242785
N1 N 0.378(2) 0.595(2) 0.8663(16)
C5 C 0.425(4) 0.664(3) 0.741(2)
N3 N 0.420(2) 0.5558(18) 0.9301(14)
O31 O 0.334(2) 0.380(2) 0.9785(19)
O32 O 0.498(2) 0.687(2) 0.7031(16)
O36 O 0.331(2) 0.6626(19) 0.7228(15)
O45 O 0.200(2) 0.553(2) 0.980(2)
C6 C 0.451(3) 0.619(3) 0.819(2)
C7 C 0.540(3) 0.593(3) 0.854(2)
O52 O 0.681(3) 0.634(3) 0.775(2)
C8 C 0.652(4) 0.591(2) 0.845(2)
H8 H 0.301045 0.605124 0.855339
H9 H 0.292969 0.399496 0.933762
H13 H 0.194431 0.617092 0.968186
H18 H 0.299649 0.722227 0.69624
C9 C 0.894(2) 0.694(3) 0.257(2)
C10 C 0.9449(18) 0.5435(18) 0.3549(14)
C11 C 0.932(2) 0.634(2) 0.3278(15)
C12 C 0.946(3) 0.465(3) 0.326(2)
N7 N 0.9510(18) 0.6648(18) 0.3833(13)
N8 N 0.9711(17) 0.5956(17) 0.4378(11)
O54 O 0.8135(13) 0.6071(14) 0.5548(11)
O55 O 0.9843(19) 0.7296(16) 0.4976(15)
O56 O 0.8795(16) 0.775(2) 0.2549(13)
O57 O 0.887(2) 0.659(2) 0.2066(11)
O58 O 0.918(3) 0.477(3) 0.2561(19)
N10 N 0.7760(19) 0.9961(17) 0.0372(16)
N11 N 0.8810(18) 0.9842(15) 0.0235(12)
O61 O 0.8305(19) 0.8349(14) 0.0054(13)
H3 H 0.851085 0.771932 0.0123908
H6 H 0.727206 0.952752 0.0373627
H19 H 0.783108 0.665963 0.556035
H20 H 0.802046 0.56404 0.601052
H22 H 0.911756 0.754397 0.503411
H23 H 0.949677 0.727587 0.382124
H24 H 0.956253 0.6302 0.19786
C9_2 C 0.106(2) 0.306(3) 0.743(2)
C10_2 C 0.0551(18) 0.4565(18) 0.6451(14)
C11_2 C 0.068(2) 0.366(2) 0.6722(15)
C12_2 C 0.054(3) 0.535(3) 0.674(2)
N7_2 N 0.0490(18) 0.3352(18) 0.6167(13)
N8_2 N 0.0289(17) 0.4044(17) 0.5622(11)
N9 N 0.0319(15) 0.4765(19) 0.5792(11)
O53 O 0.0306(18) 0.6118(18) 0.6273(11)
O54_2 O 0.1865(13) 0.3929(14) 0.4452(11)
O55_2 O 0.0157(19) 0.2704(16) 0.5024(15)
O56_2 O 0.1205(16) 0.225(2) 0.7451(13)
O57_2 O 0.113(2) 0.341(2) 0.7934(11)
O58_2 O 0.082(3) 0.523(3) 0.7439(19)
Cu3 Cu 0.0022(2) 0.3959(2) 0.46731(19)
N10_2 N 0.2240(19) 0.0039(17) 0.9628(16)
N11_2 N 0.1190(18) 0.0158(15) 0.9765(12)
O61_2 O 0.1695(19) 0.1651(14) 0.9946(13)
H3_2 H 0.148915 0.228068 0.987609
H6_2 H 0.272794 0.0472482 0.962637
H19_2 H 0.216892 0.334037 0.443965
H20_2 H 0.197954 0.43596 0.398948
H22_2 H 0.088244 0.245603 0.496589
H23_2 H 0.0503228 0.272413 0.617876
H24_2 H 0.0437469 0.3698 0.80214
N1_2 N 0.622(2) 0.405(2) 0.1337(16)
C5_2 C 0.575(4) 0.336(3) 0.259(2)
N2 N 0.479(2) 0.4433(19) 0.0762(14)
N3_2 N 0.580(2) 0.4442(18) 0.0699(14)
O30 O 0.286(2) 0.4419(17) 0.1105(14)
O31_2 O 0.666(2) 0.620(2) 0.0215(19)
O32_2 O 0.502(2) 0.313(2) 0.2969(16)
O36_2 O 0.669(2) 0.3374(19) 0.2772(15)
O45_2 O 0.800(2) 0.447(2) 0.020(2)
C6_2 C 0.549(3) 0.381(3) 0.181(2)
C7_2 C 0.460(3) 0.407(3) 0.146(2)
O52_2 O 0.319(3) 0.366(3) 0.225(2)
C8_2 C 0.348(4) 0.409(2) 0.155(2)
Cu5 Cu 0.3496(3) 0.4973(3) 0.0168(2)
N16 N 0.9140(19) 0.0576(15) 0.0245(12)
O67 O 0.9559(15) 0.2051(12) 0.0303(11)
H8_2 H 0.698955 0.394876 0.144661
H9_2 H 0.707031 0.600504 0.0662383
H13_2 H 0.805569 0.382908 0.0318139
H18_2 H 0.700351 0.277773 0.30376
C1_2 C 0.632(3) 0.934(3) 0.624(2)
C2_2 C 0.744(4) 0.943(4) 0.611(3)
C3_2 C 0.573(3) 0.902(2) 0.6768(18)
C4_2 C 0.610(4) 0.852(3) 0.756(2)
N4 N 0.4796(19) 0.9526(18) 0.5826(15)
N5_2 N 0.469(2) 0.911(2) 0.6528(16)
N6_2 N 0.575(2) 0.967(2) 0.5693(16)
O39_2 O 0.6766(16) 0.9474(12) 0.8829(10)
O44_2 O 0.684(2) 0.8782(17) 0.4579(13)
O48_2 O 0.703(3) 0.847(2) 0.7678(17)
O49_2 O 0.542(3) 0.831(2) 0.7974(19)
O50_2 O 0.821(3) 0.915(3) 0.656(2)
O51_3 O 0.767(2) 1.000(2) 0.5337(17)
Cu6 Cu 0.3564(3) 0.9806(3) 0.5248(2)
Cu8 Cu 0.9550(3) 0.8937(2) 0.9907(2)
H7_2 H 0.405072 0.891776 0.680346
H11_2 H 0.618959 0.853492 0.456795
H12_2 H 0.720925 0.883661 0.412288
H15_2 H 0.722406 0.906267 0.757215
O1_2 O 0.0900(14) 0.9183(13) 0.3509(10)
O2_2 O 0.3496(11) 0.6440(11) 0.3184(9)
O3_2 O 0.5003(15) 0.4085(14) 0.4184(10)
O4_2 O 0.7319(6) 0.6215(6) 0.4247(4)
Si1_2 Si 0.3980(6) 0.7289(6) 0.2708(4)
O5_2 O 0.4114(14) 0.8297(15) 0.4981(10)
O6_2 O 0.3058(14) 0.8598(12) 0.3668(11)
O7_2 O 0.4263(14) 0.8851(14) 0.1205(10)
O8_2 O 0.4705(12) 0.7507(10) 0.0691(9)
O9_2 O 0.3220(12) 0.5863(12) 0.1966(11)
O10_2 O 0.6435(12) 0.6438(14) 0.2883(11)
O11_2 O 0.2758(14) 0.7481(12) 0.1175(9)
O12_2 O 0.4768(11) 0.7589(10) 0.3154(8)
O13_2 O 0.6425(15) 0.9584(14) 0.2629(11)
O14_2 O 0.2171(15) 0.9120(13) 0.1259(10)
O15_2 O 0.3485(13) 0.7029(12) 0.4438(10)
O16_2 O 0.5506(14) 0.7223(15) 0.4445(10)
O17_2 O 0.5260(14) 0.5279(13) 0.2897(10)
O18_2 O 0.1863(12) 0.7452(12) 0.3667(10)
O19_2 O 0.2287(15) 0.9644(13) 0.2385(11)
O20_2 O 0.1067(13) 0.8471(12) 0.2402(10)
O21_2 O 0.6374(12) 0.7043(12) 0.1468(9)
O22_2 O 0.3490(13) 0.5379(11) 0.4422(10)
O23_2 O 0.1821(14) 0.5821(13) 0.3662(10)
O24_2 O 0.5142(13) 0.5896(11) 0.1461(9)
O25_2 O 0.3056(12) 0.8038(11) 0.2415(8)
O26_2 O 0.5367(11) 0.5818(10) 0.3977(8)
O27_2 O 0.1666(14) 0.6843(13) 0.2304(8)
O28_2 O 0.0637(14) 0.8137(15) 0.1120(10)
O29_2 O 0.5023(14) 0.8881(13) 0.3650(11)
O33_2 O 0.4416(14) 0.9366(13) 0.2322(9)
O34_2 O 0.3349(13) 0.4847(12) 0.3294(9)
O35_2 O 0.6594(14) 0.7858(13) 0.3302(9)
O37_2 O 0.3537(15) 0.6266(12) 0.0492(10)
O38_2 O 0.1508(13) 0.5082(11) 0.2601(9)
O40_2 O 0.6139(14) 0.8634(12) 0.0473(10)
O41_2 O 0.1795(14) 0.6153(16) 0.4962(10)
O42_2 O 0.7080(14) 0.5292(16) 0.2082(11)
O43_2 O 0.5893(13) 0.8388(13) 0.1954(9)
O46_2 O 0.283(3) 0.921(2) 0.6112(19)
O47_2 O 0.4635(12) 0.7078(11) 0.2050(8)
O51_4 O 0.233(2) 1.000(2) 0.4663(17)
W1_2 W 0.16891(7) 0.80132(7) 0.16670(6)
W2_2 W 0.25346(7) 0.63663(7) 0.42267(5)
W3_2 W 0.60425(8) 0.59972(8) 0.21845(6)
W4_2 W 0.38649(8) 0.66190(7) 0.11766(6)
W5_2 W 0.42397(8) 0.79865(8) 0.42166(6)
W6_2 W 0.54523(8) 0.80689(8) 0.11733(6)
W7_2 W 0.23248(8) 0.57417(7) 0.27571(6)
W8_2 W 0.32979(9) 0.94606(7) 0.16828(6)
W9_2 W 0.62168(7) 0.66942(8) 0.37745(6)
W10_2 W 0.18669(8) 0.86357(8) 0.31279(6)
W11_2 W 0.45015(8) 0.50921(7) 0.37586(6)
W12_2 W 0.56712(9) 0.87754(8) 0.27640(6)
H10_2 H 0.29843 0.337627 0.0152424
H14_2 H 0.149224 0.531265 0.0174122
H16_2 H 0.207545 0.930181 0.601171
H17_2 H 0.296047 0.945045 0.650216
H21_2 H 0.0314147 0.751049 0.524825
C13_2 C 0.649(2) 0.096(2) 0.0693(18)
C14_2 C 0.747(3) 0.072(2) 0.0502(16)
C15_2 C 0.8426(18) 0.1104(16) 0.0427(13)
C16_2 C 0.867(2) 0.1925(19) 0.0453(16)
O59_2 O 0.800(3) 0.2514(19) 0.0641(17)
O60_2 O 0.6227(15) 0.1651(16) 0.0862(14)
O64_2 O 0.5761(18) 0.049(2) 0.0659(16)
H5_2 H 0.569103 0.0479364 0.0162962
O63_2 O 0.938(3) 0.938(3) 0.8540(18)
H1_2 H 0.992809 0.973901 0.832089
H2_2 H 0.868956 0.972004 0.83921
H4_2 H 0.78436 0.859759 0.963204
loop_
_geom_bond_atom_site_label_1
_geom_bond_atom_site_label_2
_geom_bond_site_symmetry_1
_geom_bond_site_symmetry_2
O63 Cu4 1_555 1_555
O63 H1 1_555 1_555
O63 H2 1_555 1_555
C13 C14 1_555 1_555
C14 C15 1_555 1_555
C15 C16 1_555 1_555
C16 O59 1_555 1_555
N12 C15 1_555 1_555
O60 C13 1_555 1_555
O62 C16 1_555 1_555
O64 C13 1_555 1_555
O64 H5 1_555 1_555
O1 W10 1_555 1_555
O2 Si1 1_555 1_555
O3 W11 1_555 1_555
O4 W9 1_555 1_555
Si1 O12 1_555 1_555
O5 Cu2 1_555 1_555
O6 W5 1_555 1_555
O7 W6 1_555 1_555
O8 W4 1_555 1_555
O9 W4 1_555 1_555
O10 W3 1_555 1_555
O11 W1 1_555 1_555
O12 W5 1_555 1_555
O13 W12 1_555 1_555
O14 W1 1_555 1_555
O15 W2 1_555 1_555
O16 W5 1_555 1_555
O17 W3 1_555 1_555
O18 W2 1_555 1_555
O19 W8 1_555 1_555
O20 W1 1_555 1_555
O21 W3 1_555 1_555
O22 W2 1_555 1_555
O23 W2 1_555 1_555
O24 W3 1_555 1_555
O25 Si1 1_555 1_555
O26 W9 1_555 1_555
O27 W1 1_555 1_555
O28 W1 1_555 1_555
O29 W5 1_555 1_555
O33 W8 1_555 1_555
O34 W7 1_555 1_555
O35 W9 1_555 1_555
O37 Cu1 1_555 1_555
O38 W7 1_555 1_555
O40 W6 1_555 1_555
O41 W2 1_555 1_555
O42 W3 1_555 1_555
O43 W6 1_555 1_555
O46 Cu2 1_555 1_555
O47 Si1 1_555 1_555
Cu1 N13 1_555 1_555
W1 O25 1_555 1_555
W2 O2 1_555 1_555
W3 O47 1_555 1_555
W4 O11 1_555 1_555
W5 O5 1_555 1_555
W6 O8 1_555 1_555
W7 O2 1_555 1_555
W8 O7 1_555 1_555
W9 O10 1_555 1_555
W10 O6 1_555 1_555
W11 O2 1_555 1_555
W12 O12 1_555 1_555
N14 Cu2 1_555 1_555
O65 Cu1 1_555 1_555
O9 W7 1_555 1_555
O12 W9 1_555 1_555
O14 W8 1_555 1_555
O15 W5 1_555 1_555
O16 W9 1_555 1_555
O17 W11 1_555 1_555
O18 W10 1_555 1_555
O19 W10 1_555 1_555
O20 W10 1_555 1_555
O21 W6 1_555 1_555
O22 W11 1_555 1_555
O23 W7 1_555 1_555
O24 W4 1_555 1_555
O25 W8 1_555 1_555
O25 W10 1_555 1_555
O26 W11 1_555 1_555
O27 W7 1_555 1_555
O29 W12 1_555 1_555
O33 W12 1_555 1_555
O34 W11 1_555 1_555
O35 W12 1_555 1_555
O37 W4 1_555 1_555
O43 W12 1_555 1_555
O47 W4 1_555 1_555
O47 W6 1_555 1_555
O51 Cu2 1_555 1_555
O46 H16 1_555 1_555
O46 H17 1_555 1_555
C1 C2 1_555 1_555
C2 O50 1_555 1_555
C3 C1 1_555 1_555
C4 C3 1_555 1_555
N14 N5 1_555 1_555
N5 C3 1_555 1_555
N6 C1 1_555 1_555
O48 C4 1_555 1_555
O49 C4 1_555 1_555
O51_2 C2 1_555 1_555
N14 N6 1_555 1_555
N5 H7 1_555 1_555
O44 H11 1_555 1_555
O44 H12 1_555 1_555
O48 H15 1_555 1_555
N1 N3 1_555 1_555
C5 O32 1_555 1_555
N13 N3 1_555 1_555
O65 C8 1_555 1_555
O36 C5 1_555 1_555
C6 N1 1_555 1_555
C7 N13 1_555 1_555
O52 C8 1_555 1_555
C8 C7 1_555 1_555
C5 C6 1_555 1_555
C6 C7 1_555 1_555
N1 H8 1_555 1_555
O31 H9 1_555 1_555
O45 H13 1_555 1_555
O36 H18 1_555 1_555
C9 C11 1_555 1_555
C10 C11 1_555 1_555
C11 N7 1_555 1_555
C12 C10 1_555 1_555
N7 N8 1_555 1_555
N8 N15 1_555 1_555
N15 C10 1_555 1_555
O66 C12 1_555 1_555
O54 Cu7 1_555 1_555
O55 Cu7 1_555 1_555
O56 C9 1_555 1_555
O57 C9 1_555 1_555
O58 C12 1_555 1_555
N11 N10 1_555 1_555
N8 Cu7 1_555 1_555
O61 H3 1_555 1_555
N10 H6 1_555 1_555
O54 H19 1_555 1_555
O54 H20 1_555 1_555
O55 H22 1_555 1_555
N7 H23 1_555 1_555
O57 H24 1_555 1_555
C9_2 C11_2 1_555 1_555
C10_2 C11_2 1_555 1_555
C11_2 N7_2 1_555 1_555
C12_2 C10_2 1_555 1_555
N7_2 N8_2 1_555 1_555
N8_2 N9 1_555 1_555
N9 C10_2 1_555 1_555
O53 C12_2 1_555 1_555
O54_2 Cu3 1_555 1_555
O55_2 Cu3 1_555 1_555
O56_2 C9_2 1_555 1_555
O57_2 C9_2 1_555 1_555
O58_2 C12_2 1_555 1_555
N11_2 N10_2 1_555 1_555
N8_2 Cu3 1_555 1_555
O61_2 H3_2 1_555 1_555
N10_2 H6_2 1_555 1_555
O54_2 H19_2 1_555 1_555
O54_2 H20_2 1_555 1_555
O55_2 H22_2 1_555 1_555
N7_2 H23_2 1_555 1_555
O57_2 H24_2 1_555 1_555
N1_2 N3_2 1_555 1_555
C5_2 O32_2 1_555 1_555
N2 N3_2 1_555 1_555
O30 C8_2 1_555 1_555
O36_2 C5_2 1_555 1_555
C6_2 N1_2 1_555 1_555
C7_2 N2 1_555 1_555
O52_2 C8_2 1_555 1_555
C8_2 C7_2 1_555 1_555
Cu5 N2 1_555 1_555
C5_2 C6_2 1_555 1_555
O30 Cu5 1_555 1_555
C6_2 C7_2 1_555 1_555
N1_2 H8_2 1_555 1_555
O31_2 H9_2 1_555 1_555
O45_2 H13_2 1_555 1_555
O36_2 H18_2 1_555 1_555
C1_2 C2_2 1_555 1_555
C2_2 O50_2 1_555 1_555
C3_2 C1_2 1_555 1_555
C4_2 C3_2 1_555 1_555
N4 N5_2 1_555 1_555
N5_2 C3_2 1_555 1_555
N6_2 C1_2 1_555 1_555
O48_2 C4_2 1_555 1_555
O49_2 C4_2 1_555 1_555
O51_3 C2_2 1_555 1_555
Cu6 N4 1_555 1_555
N4 N6_2 1_555 1_555
N5_2 H7_2 1_555 1_555
O44_2 H11_2 1_555 1_555
O44_2 H12_2 1_555 1_555
O48_2 H15_2 1_555 1_555
O1_2 W10_2 1_555 1_555
O2_2 Si1_2 1_555 1_555
O3_2 W11_2 1_555 1_555
O4_2 W9_2 1_555 1_555
Si1_2 O12_2 1_555 1_555
O5_2 Cu6 1_555 1_555
O6_2 W5_2 1_555 1_555
O7_2 W6_2 1_555 1_555
O8_2 W4_2 1_555 1_555
O9_2 W4_2 1_555 1_555
O10_2 W3_2 1_555 1_555
O11_2 W1_2 1_555 1_555
O12_2 W5_2 1_555 1_555
O13_2 W12_2 1_555 1_555
O14_2 W1_2 1_555 1_555
O15_2 W2_2 1_555 1_555
O16_2 W5_2 1_555 1_555
O17_2 W3_2 1_555 1_555
O18_2 W2_2 1_555 1_555
O19_2 W8_2 1_555 1_555
O20_2 W1_2 1_555 1_555
O21_2 W3_2 1_555 1_555
O22_2 W2_2 1_555 1_555
O23_2 W2_2 1_555 1_555
O24_2 W3_2 1_555 1_555
O25_2 Si1_2 1_555 1_555
O26_2 W9_2 1_555 1_555
O27_2 W1_2 1_555 1_555
O28_2 W1_2 1_555 1_555
O29_2 W5_2 1_555 1_555
O33_2 W8_2 1_555 1_555
O34_2 W7_2 1_555 1_555
O35_2 W9_2 1_555 1_555
O37_2 Cu5 1_555 1_555
O38_2 W7_2 1_555 1_555
O40_2 W6_2 1_555 1_555
O41_2 W2_2 1_555 1_555
O42_2 W3_2 1_555 1_555
O43_2 W6_2 1_555 1_555
O46_2 Cu6 1_555 1_555
O47_2 Si1_2 1_555 1_555
W1_2 O25_2 1_555 1_555
W2_2 O2_2 1_555 1_555
W3_2 O47_2 1_555 1_555
W4_2 O11_2 1_555 1_555
W5_2 O5_2 1_555 1_555
W6_2 O8_2 1_555 1_555
W7_2 O2_2 1_555 1_555
W8_2 O7_2 1_555 1_555
W9_2 O10_2 1_555 1_555
W10_2 O6_2 1_555 1_555
W11_2 O2_2 1_555 1_555
W12_2 O12_2 1_555 1_555
O9_2 W7_2 1_555 1_555
O12_2 W9_2 1_555 1_555
O14_2 W8_2 1_555 1_555
O15_2 W5_2 1_555 1_555
O16_2 W9_2 1_555 1_555
O17_2 W11_2 1_555 1_555
O18_2 W10_2 1_555 1_555
O19_2 W10_2 1_555 1_555
O20_2 W10_2 1_555 1_555
O21_2 W6_2 1_555 1_555
O22_2 W11_2 1_555 1_555
O23_2 W7_2 1_555 1_555
O24_2 W4_2 1_555 1_555
O25_2 W8_2 1_555 1_555
O25_2 W10_2 1_555 1_555
O26_2 W11_2 1_555 1_555
O27_2 W7_2 1_555 1_555
O29_2 W12_2 1_555 1_555
O33_2 W12_2 1_555 1_555
O34_2 W11_2 1_555 1_555
O35_2 W12_2 1_555 1_555
O37_2 W4_2 1_555 1_555
O43_2 W12_2 1_555 1_555
O47_2 W4_2 1_555 1_555
O47_2 W6_2 1_555 1_555
O51_4 Cu6 1_555 1_555
O46_2 H16_2 1_555 1_555
O46_2 H17_2 1_555 1_555
C13_2 C14_2 1_555 1_555
C14_2 C15_2 1_555 1_555
C15_2 C16_2 1_555 1_555
C16_2 O59_2 1_555 1_555
N16 C15_2 1_555 1_555
O60_2 C13_2 1_555 1_555
O67 C16_2 1_555 1_555
O64_2 C13_2 1_555 1_555
O64_2 H5_2 1_555 1_555
O63_2 Cu8 1_555 1_555
O63_2 H1_2 1_555 1_555
O63_2 H2_2 1_555 1_555

#END
