
###############################################################################
#
# This file contains modified crystal structure data generated from the
# MOF subset of the Cambridge Structural Database (CSD) v543 
# hosted by the Cambridge Crystallographic Data Centre (CCDC).
#
# This work is licensed under the Creative Commons
# Attribution-NonCommercial-ShareAlike 4.0 International License.
# To view a copy of this license, visit
# http://creativecommons.org/licenses/by-nc-sa/4.0/
# or send a letter to
# Creative Commons, PO Box 1866, Mountain View, CA 94042, USA.
#
# CIF created using the CSD Python API on 29 September 2022
# The structure has been converted into the P1 space group
# The structure has a 3D framework
# The original CSD entry SUZGOM is in the monoclinic crystal system
# The framework has been calculated to contain at least 10.0% void space
# The void calculation uses a probe of radius 1.32A, grid spacing 0.4
#
###############################################################################

data_SUZGOM
_chemical_formula_moiety         '(C192 H146 N4 O26 Zn8)n'
_symmetry_cell_setting           triclinic
_symmetry_space_group_name_H-M   'P 1'
_symmetry_Int_Tables_number      1
_space_group_name_Hall           'P 1'
loop_
_symmetry_equiv_pos_site_id
_symmetry_equiv_pos_as_xyz
1 x,y,z
_cell_length_a                   6.16863(14)
_cell_length_b                   34.8853(8)
_cell_length_c                   22.0643(4)
_cell_angle_alpha                90
_cell_angle_beta                 91.825(2)
_cell_angle_gamma                90
_cell_volume                     4745.71
loop_
_atom_site_label
_atom_site_type_symbol
_atom_site_fract_x
_atom_site_fract_y
_atom_site_fract_z
O9 O 0.0003(3) 0.94197(7) 0.53802(9)
N1 N 0.9460(4) 0.86355(7) 0.92814(10)
C1 C 0.9557(5) 0.88501(8) 0.98274(12)
C2 C 0.7993(5) 0.87613(9) 0.88080(12)
C3 C 0.0770(5) 0.93535(9) 0.64240(13)
C5 C 0.8539(5) 0.92104(9) 0.98638(12)
C7 C 0.7222(5) 0.91408(9) 0.88051(12)
C9 C 0.7317(5) 0.85094(9) 0.83467(13)
C12 C 0.0235(6) 0.94240(11) 0.70188(14)
C13 C 0.5106(5) 0.90132(9) 0.78776(13)
C18 C 0.7950(7) 0.80900(10) 0.83205(15)
C19 C 0.5754(5) 0.92567(9) 0.83474(13)
H5 H 0.5193 0.9504 0.8357
C20 C 0.5927(6) 0.86449(10) 0.78846(14)
H6 H 0.5536 0.8480 0.7568
C21 C 0.8068(5) 0.94264(9) 0.92798(13)
C24 C 0.9363(5) 0.79793(9) 0.88668(14)
C25 C 0.3604(5) 0.91374(9) 0.73775(13)
C31 C 0.9978(6) 0.75960(10) 0.89176(15)
H10 H 0.9518 0.7425 0.8617
C33 C 0.4120(5) 0.90683(10) 0.67786(14)
H12 H 0.5419 0.8947 0.6696
C34 C 0.1641(6) 0.93150(11) 0.74849(14)
H13 H 0.1263 0.9362 0.7883
C36 C 0.2751(5) 0.91761(10) 0.63085(14)
H14 H 0.3139 0.9131 0.5911
C40 C 0.6540(7) 0.97628(10) 0.93644(15)
H20 H 0.7205 0.9945 0.9639
H21 H 0.6241 0.9884 0.8980
H22 H 0.5210 0.9672 0.9528
H30 H 0.9215 0.6814 0.9069
C47 C 0.9188(10) 0.80178(15) 0.77514(17)
H33 H 0.9644 0.7755 0.7742
H34 H 0.8268 0.8071 0.7402
C48 C 0.5831(8) 0.78445(12) 0.8326(2)
H35 H 0.5029 0.7878 0.7950
H36 H 0.6202 0.7579 0.8376
H37 H 0.4960 0.7925 0.8656
O5 O 0.6954(4) 0.00249(6) 0.48016(9)
H1 H 0.7753 0.0249 0.4662
O8 O 0.2389(4) 0.03466(7) 0.39711(9)
Zn4 Zn 0.58520(6) 0.007941(11) 0.568763(16)
C6 C 0.0671(5) 0.05158(9) 0.40846(13)
H2 H 0.1067 0.0456 0.2897
Zn6 Zn 0.16134(8) 0.046389(12) 0.536261(18)
O3 O 0.4402(4) 0.01746(7) 0.64921(10)
O4 O 0.1111(5) 0.04039(10) 0.62118(12)
C10 C 0.1279(5) 0.06391(9) 0.84293(13)
C15 C 0.2598(6) 0.03172(10) 0.65996(14)
C16 C 0.1718(5) 0.06274(9) 0.95668(13)
H3 H 0.2471 0.0398 0.9539
C26 C 0.0891(5) 0.07959(10) 0.90379(13)
C27 C 0.2098(6) 0.03998(10) 0.72455(14)
C28 C 0.3682(5) 0.03648(10) 0.77024(14)
H8 H 0.5021 0.0259 0.7616
C32 C 0.3287(5) 0.04861(9) 0.82872(13)
H11 H 0.4373 0.0465 0.8587
C39 C 0.0053(6) 0.05372(12) 0.73867(15)
O6 O 0.7027(5) 0.06221(7) 0.56817(11)
O7 O 0.3874(6) 0.08524(8) 0.53163(16)
C4 C 0.9961(5) 0.32419(9) 0.56877(13)
C8 C 0.9317(5) 0.37077(8) 0.46616(12)
C11 C 0.8611(5) 0.31102(9) 0.51999(13)
C14 C 0.8761(5) 0.24614(9) 0.56036(15)
C17 C 0.9599(5) 0.38801(10) 0.41008(13)
H4 H 0.8905 0.3776 0.3758
C22 C 0.7633(5) 0.33958(9) 0.47520(14)
C23 C 0.8071(5) 0.27253(9) 0.51635(14)
H7 H 0.7220 0.2640 0.4835
C29 C 0.9655(5) 0.43506(11) 0.29725(15)
H9 H 0.8275 0.4266 0.3066
C30 C 0.8069(6) 0.20533(10) 0.55675(16)
C35 C 0.6671(7) 0.12915(10) 0.55214(16)
C37 C 0.8714(6) 0.13802(10) 0.57560(16)
H15 H 0.9626 0.1186 0.5901
C38 C 0.9754(6) 0.45869(10) 0.59267(15)
H16 H 0.8757 0.4380 0.5983
H17 H 0.9976 0.4723 0.6302
H18 H 0.9170 0.4759 0.5624
H19 H 0.8961 0.4447 0.2087
C41 C 0.5311(7) 0.15863(11) 0.5318(2)
H23 H 0.3915 0.1530 0.5173
C42 C 0.5678(6) 0.35826(11) 0.50470(19)
H24 H 0.5105 0.3781 0.4787
H25 H 0.4580 0.3393 0.5107
H26 H 0.6126 0.3691 0.5431
C43 C 0.5817(7) 0.08867(11) 0.55026(16)
C44 C 0.6841(7) 0.32120(11) 0.41531(16)
H27 H 0.8048 0.3100 0.3954
H28 H 0.5792 0.3017 0.4234
H29 H 0.6187 0.3404 0.3896
C45 C 0.9402(6) 0.17577(10) 0.57754(16)
C46 C 0.6023(6) 0.19617(11) 0.53305(19)
H31 H 0.5122 0.2155 0.5178
H32 H 0.9563 0.3182 0.7252
Zn1 Zn 0.41480(6) 0.992059(11) 0.431237(16)
Zn2 Zn 0.83866(8) 0.953611(12) 0.463739(18)
O6_2 O 0.2973(5) 0.93779(7) 0.43183(11)
O7_2 O 0.6126(6) 0.91476(8) 0.46837(16)
C4_2 C 0.0039(5) 0.67581(9) 0.43123(13)
C8_2 C 0.0683(5) 0.62923(8) 0.53384(12)
C11_2 C 0.1389(5) 0.68898(9) 0.48001(13)
C14_2 C 0.1239(5) 0.75386(9) 0.43964(15)
C17_2 C 0.0401(5) 0.61199(10) 0.58992(13)
H4_2 H 0.1095 0.6224 0.6242
C22_2 C 0.2367(5) 0.66042(9) 0.52480(14)
C23_2 C 0.1929(5) 0.72747(9) 0.48365(14)
H7_2 H 0.2780 0.7360 0.5165
C29_2 C 0.0345(5) 0.56494(11) 0.70275(15)
H9_2 H 0.1725 0.5734 0.6934
C30_2 C 0.1931(6) 0.79467(10) 0.44325(16)
C35_2 C 0.3329(7) 0.87085(10) 0.44786(16)
C37_2 C 0.1286(6) 0.86198(10) 0.42440(16)
H15_2 H 0.0374 0.8814 0.4099
C38_2 C 0.0246(6) 0.54131(10) 0.40733(15)
H16_2 H 0.1243 0.5620 0.4017
H17_2 H 0.0024 0.5277 0.3698
H18_2 H 0.0830 0.5241 0.4376
H19_2 H 0.1039 0.5553 0.7913
C41_2 C 0.4689(7) 0.84137(11) 0.4682(2)
H23_2 H 0.6085 0.8470 0.4827
C42_2 C 0.4322(6) 0.64174(11) 0.49530(19)
H24_2 H 0.4895 0.6219 0.5213
H25_2 H 0.5420 0.6607 0.4893
H26_2 H 0.3874 0.6309 0.4569
C43_2 C 0.4183(7) 0.91133(11) 0.44974(16)
C44_2 C 0.3159(7) 0.67880(11) 0.58469(16)
H27_2 H 0.1952 0.6900 0.6046
H28_2 H 0.4208 0.6983 0.5766
H29_2 H 0.3813 0.6596 0.6104
C45_2 C 0.0598(6) 0.82423(10) 0.42246(16)
C46_2 C 0.3977(6) 0.80383(11) 0.46695(19)
H31_2 H 0.4878 0.7845 0.4822
H32_2 H 0.0437 0.6818 0.2748
O10 O 0.5598(4) 0.98254(7) 0.35079(10)
O11 O 0.8889(5) 0.95961(10) 0.37882(12)
O12 O 0.3046(4) 0.99751(6) 0.51984(9)
H1_2 H 0.2247 0.9751 0.5338
O8_2 O 0.7611(4) 0.96534(7) 0.60289(9)
C10_2 C 0.8721(5) 0.93609(9) 0.15707(13)
C15_2 C 0.7402(6) 0.96828(10) 0.34004(14)
C16_2 C 0.8282(5) 0.93726(9) 0.04332(13)
H3_2 H 0.7529 0.9602 0.0461
C26_2 C 0.9109(5) 0.92041(10) 0.09621(13)
C27_2 C 0.7902(6) 0.96002(10) 0.27545(14)
C28_2 C 0.6318(5) 0.96352(10) 0.22976(14)
H8_2 H 0.4979 0.9741 0.2384
C32_2 C 0.6713(5) 0.95139(9) 0.17128(13)
H11_2 H 0.5627 0.9535 0.1413
C39_2 C 0.9947(6) 0.94628(12) 0.26133(15)
C6_2 C 0.9329(5) 0.94842(9) 0.59154(13)
H2_2 H 0.8933 0.9544 0.7103
O2 O 0.0003(3) 0.55803(7) 0.03802(9)
O3_2 O 0.5598(4) 0.51746(7) 0.85079(10)
O4_2 O 0.8889(5) 0.54039(10) 0.87882(12)
N1_2 N 0.9460(4) 0.63645(7) 0.42814(10)
C1_2 C 0.9557(5) 0.61499(8) 0.48274(12)
C2_2 C 0.7993(5) 0.62387(9) 0.38080(12)
C3_2 C 0.0770(5) 0.56465(9) 0.14240(13)
C5_2 C 0.8539(5) 0.57896(9) 0.48638(12)
C7_2 C 0.7222(5) 0.58592(9) 0.38051(12)
C9_2 C 0.7317(5) 0.64906(9) 0.33467(13)
C10_3 C 0.8721(5) 0.56391(9) 0.65707(13)
C12_2 C 0.0235(6) 0.55760(11) 0.20188(14)
C13_2 C 0.5106(5) 0.59868(9) 0.28776(13)
C15_3 C 0.7402(6) 0.53172(10) 0.84004(14)
C16_3 C 0.8282(5) 0.56274(9) 0.54332(13)
H3_3 H 0.7529 0.5398 0.5461
C18_2 C 0.7950(7) 0.69100(10) 0.33205(15)
C19_2 C 0.5754(5) 0.57433(9) 0.33474(13)
H5_2 H 0.5193 0.5496 0.3357
C20_2 C 0.5927(6) 0.63551(10) 0.28846(14)
H6_2 H 0.5536 0.6520 0.2568
C21_2 C 0.8068(5) 0.55736(9) 0.42798(13)
C24_2 C 0.9363(5) 0.70207(9) 0.38668(14)
C25_2 C 0.3604(5) 0.58626(9) 0.23775(13)
C26_3 C 0.9109(5) 0.57959(10) 0.59621(13)
C27_3 C 0.7902(6) 0.53998(10) 0.77545(14)
C28_3 C 0.6318(5) 0.53648(10) 0.72976(14)
H8_3 H 0.4979 0.5259 0.7384
C31_2 C 0.9978(6) 0.74040(10) 0.39176(15)
H10_2 H 0.9518 0.7575 0.3617
C32_3 C 0.6713(5) 0.54861(9) 0.67128(13)
H11_3 H 0.5627 0.5465 0.6413
C33_2 C 0.4120(5) 0.59317(10) 0.17786(14)
H12_2 H 0.5419 0.6053 0.1696
C34_2 C 0.1641(6) 0.56850(11) 0.24849(14)
H13_2 H 0.1263 0.5638 0.2883
C36_2 C 0.2751(5) 0.58239(10) 0.13085(14)
H14_2 H 0.3139 0.5869 0.0911
C39_3 C 0.9947(6) 0.55372(12) 0.76133(15)
C40_2 C 0.6540(7) 0.52372(10) 0.43644(15)
H20_2 H 0.7205 0.5055 0.4639
H21_2 H 0.6241 0.5116 0.3980
H22_2 H 0.5210 0.5328 0.4528
H30_2 H 0.9215 0.8186 0.4069
C47_2 C 0.9188(10) 0.69822(15) 0.27514(17)
H33_2 H 0.9644 0.7245 0.2742
H34_2 H 0.8268 0.6929 0.2402
C48_2 C 0.5831(8) 0.71555(12) 0.3326(2)
H35_2 H 0.5029 0.7122 0.2950
H36_2 H 0.6202 0.7421 0.3376
H37_2 H 0.4960 0.7075 0.3656
Zn5 Zn 0.41480(6) 0.507941(11) 0.931237(16)
Zn7 Zn 0.83866(8) 0.546389(12) 0.963739(18)
C8_3 C 0.9317(5) 0.12923(8) 0.96616(12)
C17_3 C 0.9599(5) 0.11199(10) 0.91008(13)
H4_3 H 0.8905 0.1224 0.8758
C22_3 C 0.7633(5) 0.16042(9) 0.97520(14)
H7_3 H 0.7220 0.2360 0.9835
C29_3 C 0.9655(5) 0.06494(11) 0.79725(15)
H9_3 H 0.8275 0.0734 0.8066
H19_3 H 0.8961 0.0553 0.7087
H24_3 H 0.5105 0.1219 0.9787
C44_3 C 0.6841(7) 0.17880(11) 0.91531(16)
H27_3 H 0.8048 0.1900 0.8954
H28_3 H 0.5792 0.1983 0.9234
H29_3 H 0.6187 0.1596 0.8896
O12_2 O 0.6954(4) 0.49751(6) 0.98016(9)
O1 O 0.2389(4) 0.46534(7) 0.89711(9)
C6_3 C 0.0671(5) 0.44842(9) 0.90846(13)
H2_3 H 0.1067 0.4544 0.7897
H1_3 H 0.7753 0.4751 0.9662
O6_3 O 0.2973(5) 0.56221(7) 0.93183(11)
O7_3 O 0.6126(6) 0.58524(8) 0.96837(16)
C4_3 C 0.0039(5) 0.82419(9) 0.93123(13)
C11_3 C 0.1389(5) 0.81102(9) 0.98001(13)
C14_3 C 0.1239(5) 0.74614(9) 0.93964(15)
C23_3 C 0.1929(5) 0.77253(9) 0.98365(14)
C30_3 C 0.1931(6) 0.70533(10) 0.94325(16)
C35_3 C 0.3329(7) 0.62915(10) 0.94786(16)
C37_3 C 0.1286(6) 0.63802(10) 0.92440(16)
H15_3 H 0.0374 0.6186 0.9099
C38_3 C 0.0246(6) 0.95869(10) 0.90733(15)
H16_3 H 0.1243 0.9380 0.9017
H17_3 H 0.0024 0.9723 0.8698
H18_3 H 0.0830 0.9759 0.9376
C41_3 C 0.4689(7) 0.65863(11) 0.9682(2)
H23_3 H 0.6085 0.6530 0.9827
C42_3 C 0.4322(6) 0.85826(11) 0.99530(19)
H25_3 H 0.5420 0.8393 0.9893
H26_3 H 0.3874 0.8691 0.9569
C43_3 C 0.4183(7) 0.58867(11) 0.94974(16)
C45_3 C 0.0598(6) 0.67577(10) 0.92246(16)
C46_3 C 0.3977(6) 0.69617(11) 0.96695(19)
H31_3 H 0.4878 0.7155 0.9822
H32_3 H 0.0437 0.8182 0.7748
O1_2 O 0.7611(4) 0.53466(7) 0.10289(9)
C6_4 C 0.9329(5) 0.55158(9) 0.09154(13)
H2_4 H 0.8933 0.5456 0.2103
Zn3 Zn 0.58520(6) 0.492059(11) 0.068763(16)
Zn2_2 Zn 0.16134(8) 0.453611(12) 0.036261(18)
O5_2 O 0.3046(4) 0.50249(6) 0.01984(9)
H1_4 H 0.2247 0.5249 0.0338
O6_4 O 0.7027(5) 0.43779(7) 0.06817(11)
O7_4 O 0.3874(6) 0.41476(8) 0.03163(16)
C4_4 C 0.9961(5) 0.17581(9) 0.06877(13)
C11_4 C 0.8611(5) 0.18898(9) 0.01999(13)
C14_4 C 0.8761(5) 0.25386(9) 0.06036(15)
C23_4 C 0.8071(5) 0.22747(9) 0.01635(14)
C30_4 C 0.8069(6) 0.29467(10) 0.05675(16)
C35_4 C 0.6671(7) 0.37085(10) 0.05214(16)
C37_4 C 0.8714(6) 0.36198(10) 0.07560(16)
H15_4 H 0.9626 0.3814 0.0901
C38_4 C 0.9754(6) 0.04131(10) 0.09267(15)
H16_4 H 0.8757 0.0620 0.0983
H17_4 H 0.9976 0.0277 0.1302
H18_4 H 0.9170 0.0241 0.0624
C41_4 C 0.5311(7) 0.34137(11) 0.0318(2)
H23_4 H 0.3915 0.3470 0.0173
C42_4 C 0.5678(6) 0.14174(11) 0.00470(19)
H25_4 H 0.4580 0.1607 0.0107
H26_4 H 0.6126 0.1309 0.0431
C43_4 C 0.5817(7) 0.41133(11) 0.05026(16)
C45_4 C 0.9402(6) 0.32423(10) 0.07754(16)
C46_4 C 0.6023(6) 0.30383(11) 0.03305(19)
H31_4 H 0.5122 0.2845 0.0178
H32_4 H 0.9563 0.1818 0.2252
O10_2 O 0.4402(4) 0.48254(7) 0.14921(10)
O11_2 O 0.1111(5) 0.45961(10) 0.12118(12)
O9_2 O 0.9997(3) 0.44197(7) 0.96198(9)
N1_3 N 0.0540(4) 0.36355(7) 0.57186(10)
C1_3 C 0.0443(5) 0.38501(8) 0.51726(12)
C2_3 C 0.2007(5) 0.37613(9) 0.61920(12)
C3_3 C 0.9230(5) 0.43535(9) 0.85760(13)
C5_3 C 0.1461(5) 0.42104(9) 0.51362(12)
C7_3 C 0.2778(5) 0.41408(9) 0.61949(12)
C9_3 C 0.2683(5) 0.35094(9) 0.66533(13)
C10_4 C 0.1279(5) 0.43609(9) 0.34293(13)
C12_3 C 0.9765(6) 0.44240(11) 0.79812(14)
C13_3 C 0.4894(5) 0.40132(9) 0.71224(13)
C15_4 C 0.2598(6) 0.46828(10) 0.15996(14)
C16_4 C 0.1718(5) 0.43726(9) 0.45668(13)
H3_4 H 0.2471 0.4602 0.4539
C18_3 C 0.2050(7) 0.30900(10) 0.66795(15)
C19_3 C 0.4246(5) 0.42567(9) 0.66526(13)
H5_3 H 0.4807 0.4504 0.6643
C20_3 C 0.4073(6) 0.36449(10) 0.71154(14)
H6_3 H 0.4464 0.3480 0.7432
C21_3 C 0.1932(5) 0.44264(9) 0.57202(13)
C24_3 C 0.0637(5) 0.29793(9) 0.61332(14)
C25_3 C 0.6396(5) 0.41374(9) 0.76225(13)
C26_4 C 0.0891(5) 0.42041(10) 0.40379(13)
C27_4 C 0.2098(6) 0.46002(10) 0.22455(14)
C28_4 C 0.3682(5) 0.46352(10) 0.27024(14)
H8_4 H 0.5021 0.4741 0.2616
C31_3 C 0.0022(6) 0.25960(10) 0.60824(15)
H10_3 H 0.0482 0.2425 0.6383
C32_4 C 0.3287(5) 0.45139(9) 0.32872(13)
H11_4 H 0.4373 0.4535 0.3587
C33_3 C 0.5880(5) 0.40683(10) 0.82214(14)
H12_3 H 0.4581 0.3947 0.8304
C34_3 C 0.8359(6) 0.43150(11) 0.75151(14)
H13_3 H 0.8737 0.4362 0.7117
C36_3 C 0.7249(5) 0.41761(10) 0.86915(14)
H14_3 H 0.6861 0.4131 0.9089
C39_4 C 0.0053(6) 0.44628(12) 0.23867(15)
C40_3 C 0.3460(7) 0.47628(10) 0.56356(15)
H20_3 H 0.2795 0.4945 0.5361
H21_3 H 0.3759 0.4884 0.6020
H22_3 H 0.4790 0.4672 0.5472
H30_3 H 0.0785 0.1814 0.5931
C47_3 C 0.0812(10) 0.30178(15) 0.72486(17)
H33_3 H 0.0356 0.2755 0.7258
H34_3 H 0.1732 0.3071 0.7598
C48_3 C 0.4169(8) 0.28445(12) 0.6674(2)
H35_3 H 0.4971 0.2878 0.7050
H36_3 H 0.3798 0.2579 0.6624
H37_3 H 0.5040 0.2925 0.6344
C8_4 C 0.0683(5) 0.87077(8) 0.03384(12)
C17_4 C 0.0401(5) 0.88801(10) 0.08992(13)
H4_4 H 0.1095 0.8776 0.1242
C22_4 C 0.2367(5) 0.83958(9) 0.02480(14)
H7_4 H 0.2780 0.7640 0.0165
C29_4 C 0.0345(5) 0.93506(11) 0.20275(15)
H9_4 H 0.1725 0.9266 0.1934
H19_4 H 0.1039 0.9447 0.2913
H24_4 H 0.4895 0.8781 0.0213
C44_4 C 0.3159(7) 0.82120(11) 0.08469(16)
H27_4 H 0.1952 0.8100 0.1046
H28_4 H 0.4208 0.8017 0.0766
H29_4 H 0.3813 0.8404 0.1104
O2_2 O 0.9997(3) 0.05803(7) 0.46198(9)
N1_4 N 0.0540(4) 0.13645(7) 0.07186(10)
C1_4 C 0.0443(5) 0.11499(8) 0.01726(12)
C2_4 C 0.2007(5) 0.12387(9) 0.11920(12)
C3_4 C 0.9230(5) 0.06465(9) 0.35760(13)
C5_4 C 0.1461(5) 0.07896(9) 0.01362(12)
C7_4 C 0.2778(5) 0.08592(9) 0.11949(12)
C9_4 C 0.2683(5) 0.14906(9) 0.16533(13)
C12_4 C 0.9765(6) 0.05760(11) 0.29812(14)
C13_4 C 0.4894(5) 0.09868(9) 0.21224(13)
C18_4 C 0.2050(7) 0.19100(10) 0.16795(15)
C19_4 C 0.4246(5) 0.07433(9) 0.16526(13)
H5_4 H 0.4807 0.0496 0.1643
C20_4 C 0.4073(6) 0.13551(10) 0.21154(14)
H6_4 H 0.4464 0.1520 0.2432
C21_4 C 0.1932(5) 0.05736(9) 0.07202(13)
C24_4 C 0.0637(5) 0.20207(9) 0.11332(14)
C25_4 C 0.6396(5) 0.08626(9) 0.26225(13)
C31_4 C 0.0022(6) 0.24040(10) 0.10824(15)
H10_4 H 0.0482 0.2575 0.1383
C33_4 C 0.5880(5) 0.09317(10) 0.32214(14)
H12_4 H 0.4581 0.1053 0.3304
C34_4 C 0.8359(6) 0.06850(11) 0.25151(14)
H13_4 H 0.8737 0.0638 0.2117
C36_4 C 0.7249(5) 0.08239(10) 0.36915(14)
H14_4 H 0.6861 0.0869 0.4089
C40_4 C 0.3460(7) 0.02372(10) 0.06356(15)
H20_4 H 0.2795 0.0055 0.0361
H21_4 H 0.3759 0.0116 0.1020
H22_4 H 0.4790 0.0328 0.0472
H30_4 H 0.0785 0.3186 0.0931
C47_4 C 0.0812(10) 0.19822(15) 0.22486(17)
H33_4 H 0.0356 0.2245 0.2258
H34_4 H 0.1732 0.1929 0.2598
C48_4 C 0.4169(8) 0.21555(12) 0.1674(2)
H35_4 H 0.4971 0.2122 0.2050
H36_4 H 0.3798 0.2421 0.1624
H37_4 H 0.5040 0.2075 0.1344
loop_
_geom_bond_atom_site_label_1
_geom_bond_atom_site_label_2
_geom_bond_site_symmetry_1
_geom_bond_site_symmetry_2
N1 C1 1_555 1_555
C1 C5 1_555 1_555
C2 N1 1_555 1_555
C7 C2 1_555 1_555
C9 C2 1_555 1_555
C12 C3 1_555 1_555
C13 C19 1_555 1_555
C18 C9 1_555 1_555
C19 C7 1_555 1_555
H5 C19 1_555 1_555
C20 C9 1_555 1_555
H6 C20 1_555 1_555
C21 C5 1_555 1_555
C25 C13 1_555 1_555
H10 C31 1_555 1_555
C33 C25 1_555 1_555
H12 C33 1_555 1_555
C34 C12 1_555 1_555
H13 C34 1_555 1_555
C36 C3 1_555 1_555
H14 C36 1_555 1_555
C40 C21 1_555 1_555
H20 C40 1_555 1_555
H21 C40 1_555 1_555
H22 C40 1_555 1_555
C47 C18 1_555 1_555
H33 C47 1_555 1_555
H34 C47 1_555 1_555
C48 C18 1_555 1_555
H35 C48 1_555 1_555
H36 C48 1_555 1_555
H37 C48 1_555 1_555
C7 C21 1_555 1_555
C13 C20 1_555 1_555
C18 C24 1_555 1_555
C24 C31 1_555 1_555
C25 C34 1_555 1_555
C33 C36 1_555 1_555
O5 H1 1_555 1_555
Zn4 O5 1_555 1_555
O8 C6 1_555 1_555
O3 C15 1_555 1_555
O4 C15 1_555 1_555
C10 C26 1_555 1_555
C15 C27 1_555 1_555
C16 H3 1_555 1_555
C26 C16 1_555 1_555
C27 C28 1_555 1_555
C28 H8 1_555 1_555
C32 C10 1_555 1_555
H11 C32 1_555 1_555
C39 C27 1_555 1_555
Zn4 O3 1_555 1_555
Zn6 O4 1_555 1_555
C28 C32 1_555 1_555
O6 Zn4 1_555 1_555
O7 Zn6 1_555 1_555
C11 C4 1_555 1_555
C14 C23 1_555 1_555
C17 C8 1_555 1_555
H4 C17 1_555 1_555
C22 C8 1_555 1_555
C23 C11 1_555 1_555
H7 C23 1_555 1_555
H9 C29 1_555 1_555
C30 C14 1_555 1_555
C35 C37 1_555 1_555
C37 H15 1_555 1_555
H16 C38 1_555 1_555
H17 C38 1_555 1_555
H18 C38 1_555 1_555
C41 C35 1_555 1_555
H23 C41 1_555 1_555
C42 C22 1_555 1_555
H24 C42 1_555 1_555
H25 C42 1_555 1_555
H26 C42 1_555 1_555
C43 O6 1_555 1_555
C44 C22 1_555 1_555
H27 C44 1_555 1_555
H28 C44 1_555 1_555
H29 C44 1_555 1_555
C45 C30 1_555 1_555
C46 C30 1_555 1_555
H31 C46 1_555 1_555
O7 C43 1_555 1_555
C11 C22 1_555 1_555
C35 C43 1_555 1_555
C37 C45 1_555 1_555
C41 C46 1_555 1_555
O6_2 Zn1 1_555 1_555
O7_2 Zn2 1_555 1_555
C11_2 C4_2 1_555 1_555
C14_2 C23_2 1_555 1_555
C17_2 C8_2 1_555 1_555
H4_2 C17_2 1_555 1_555
C22_2 C8_2 1_555 1_555
C23_2 C11_2 1_555 1_555
H7_2 C23_2 1_555 1_555
H9_2 C29_2 1_555 1_555
C30_2 C14_2 1_555 1_555
C35_2 C37_2 1_555 1_555
C37_2 H15_2 1_555 1_555
H16_2 C38_2 1_555 1_555
H17_2 C38_2 1_555 1_555
H18_2 C38_2 1_555 1_555
C41_2 C35_2 1_555 1_555
H23_2 C41_2 1_555 1_555
C42_2 C22_2 1_555 1_555
H24_2 C42_2 1_555 1_555
H25_2 C42_2 1_555 1_555
H26_2 C42_2 1_555 1_555
C43_2 O6_2 1_555 1_555
C44_2 C22_2 1_555 1_555
H27_2 C44_2 1_555 1_555
H28_2 C44_2 1_555 1_555
H29_2 C44_2 1_555 1_555
C45_2 C30_2 1_555 1_555
C46_2 C30_2 1_555 1_555
H31_2 C46_2 1_555 1_555
O10 Zn1 1_555 1_555
O11 Zn2 1_555 1_555
O12 Zn1 1_555 1_555
O7_2 C43_2 1_555 1_555
C11_2 C22_2 1_555 1_555
C35_2 C43_2 1_555 1_555
C37_2 C45_2 1_555 1_555
C41_2 C46_2 1_555 1_555
O12 H1_2 1_555 1_555
O10 C15_2 1_555 1_555
O11 C15_2 1_555 1_555
C10_2 C26_2 1_555 1_555
C15_2 C27_2 1_555 1_555
C16_2 H3_2 1_555 1_555
C26_2 C16_2 1_555 1_555
C27_2 C28_2 1_555 1_555
C28_2 H8_2 1_555 1_555
C32_2 C10_2 1_555 1_555
H11_2 C32_2 1_555 1_555
C39_2 C27_2 1_555 1_555
C28_2 C32_2 1_555 1_555
O8_2 C6_2 1_555 1_555
O3_2 C15_3 1_555 1_555
O4_2 C15_3 1_555 1_555
N1_2 C1_2 1_555 1_555
C1_2 C5_2 1_555 1_555
C2_2 N1_2 1_555 1_555
C5_2 C16_3 1_555 1_555
C7_2 C2_2 1_555 1_555
C9_2 C2_2 1_555 1_555
C10_3 C26_3 1_555 1_555
C12_2 C3_2 1_555 1_555
C13_2 C19_2 1_555 1_555
C15_3 C27_3 1_555 1_555
C16_3 H3_3 1_555 1_555
C18_2 C9_2 1_555 1_555
C19_2 C7_2 1_555 1_555
H5_2 C19_2 1_555 1_555
C20_2 C9_2 1_555 1_555
H6_2 C20_2 1_555 1_555
C21_2 C5_2 1_555 1_555
C25_2 C13_2 1_555 1_555
C26_3 C16_3 1_555 1_555
C27_3 C28_3 1_555 1_555
C28_3 H8_3 1_555 1_555
H10_2 C31_2 1_555 1_555
C32_3 C10_3 1_555 1_555
H11_3 C32_3 1_555 1_555
C33_2 C25_2 1_555 1_555
H12_2 C33_2 1_555 1_555
C34_2 C12_2 1_555 1_555
H13_2 C34_2 1_555 1_555
C36_2 C3_2 1_555 1_555
H14_2 C36_2 1_555 1_555
C39_3 C27_3 1_555 1_555
C40_2 C21_2 1_555 1_555
H20_2 C40_2 1_555 1_555
H21_2 C40_2 1_555 1_555
H22_2 C40_2 1_555 1_555
C47_2 C18_2 1_555 1_555
H33_2 C47_2 1_555 1_555
H34_2 C47_2 1_555 1_555
C48_2 C18_2 1_555 1_555
H35_2 C48_2 1_555 1_555
H36_2 C48_2 1_555 1_555
H37_2 C48_2 1_555 1_555
Zn5 O3_2 1_555 1_555
Zn7 O4_2 1_555 1_555
C7_2 C21_2 1_555 1_555
C13_2 C20_2 1_555 1_555
C18_2 C24_2 1_555 1_555
C24_2 C31_2 1_555 1_555
C25_2 C34_2 1_555 1_555
C28_3 C32_3 1_555 1_555
C33_2 C36_2 1_555 1_555
C17_3 C8_3 1_555 1_555
H4_3 C17_3 1_555 1_555
C22_3 C8_3 1_555 1_555
H9_3 C29_3 1_555 1_555
C44_3 C22_3 1_555 1_555
H27_3 C44_3 1_555 1_555
H28_3 C44_3 1_555 1_555
H29_3 C44_3 1_555 1_555
Zn5 O12_2 1_555 1_555
O1 C6_3 1_555 1_555
Zn5 O1 1_555 1_555
Zn7 O12_2 1_555 1_555
O12_2 H1_3 1_555 1_555
O6_3 Zn5 1_555 1_555
O7_3 Zn7 1_555 1_555
C11_3 C4_3 1_555 1_555
C14_3 C23_3 1_555 1_555
C23_3 C11_3 1_555 1_555
C30_3 C14_3 1_555 1_555
C35_3 C37_3 1_555 1_555
C37_3 H15_3 1_555 1_555
H16_3 C38_3 1_555 1_555
H17_3 C38_3 1_555 1_555
H18_3 C38_3 1_555 1_555
C41_3 C35_3 1_555 1_555
H23_3 C41_3 1_555 1_555
H25_3 C42_3 1_555 1_555
H26_3 C42_3 1_555 1_555
C43_3 O6_3 1_555 1_555
C45_3 C30_3 1_555 1_555
C46_3 C30_3 1_555 1_555
H31_3 C46_3 1_555 1_555
O7_3 C43_3 1_555 1_555
C35_3 C43_3 1_555 1_555
C37_3 C45_3 1_555 1_555
C41_3 C46_3 1_555 1_555
O1_2 C6_4 1_555 1_555
Zn3 O1_2 1_555 1_555
Zn3 O5_2 1_555 1_555
Zn2_2 O5_2 1_555 1_555
O5_2 H1_4 1_555 1_555
O6_4 Zn3 1_555 1_555
O7_4 Zn2_2 1_555 1_555
C11_4 C4_4 1_555 1_555
C14_4 C23_4 1_555 1_555
C23_4 C11_4 1_555 1_555
C30_4 C14_4 1_555 1_555
C35_4 C37_4 1_555 1_555
C37_4 H15_4 1_555 1_555
H16_4 C38_4 1_555 1_555
H17_4 C38_4 1_555 1_555
H18_4 C38_4 1_555 1_555
C41_4 C35_4 1_555 1_555
H23_4 C41_4 1_555 1_555
H25_4 C42_4 1_555 1_555
H26_4 C42_4 1_555 1_555
C43_4 O6_4 1_555 1_555
C45_4 C30_4 1_555 1_555
C46_4 C30_4 1_555 1_555
H31_4 C46_4 1_555 1_555
O10_2 Zn3 1_555 1_555
O11_2 Zn2_2 1_555 1_555
O7_4 C43_4 1_555 1_555
C35_4 C43_4 1_555 1_555
C37_4 C45_4 1_555 1_555
C41_4 C46_4 1_555 1_555
O10_2 C15_4 1_555 1_555
O11_2 C15_4 1_555 1_555
N1_3 C1_3 1_555 1_555
C1_3 C5_3 1_555 1_555
C2_3 N1_3 1_555 1_555
C5_3 C16_4 1_555 1_555
C7_3 C2_3 1_555 1_555
C9_3 C2_3 1_555 1_555
C10_4 C26_4 1_555 1_555
C12_3 C3_3 1_555 1_555
C13_3 C19_3 1_555 1_555
C15_4 C27_4 1_555 1_555
C16_4 H3_4 1_555 1_555
C18_3 C9_3 1_555 1_555
C19_3 C7_3 1_555 1_555
H5_3 C19_3 1_555 1_555
C20_3 C9_3 1_555 1_555
H6_3 C20_3 1_555 1_555
C21_3 C5_3 1_555 1_555
C25_3 C13_3 1_555 1_555
C26_4 C16_4 1_555 1_555
C27_4 C28_4 1_555 1_555
C28_4 H8_4 1_555 1_555
H10_3 C31_3 1_555 1_555
C32_4 C10_4 1_555 1_555
H11_4 C32_4 1_555 1_555
C33_3 C25_3 1_555 1_555
H12_3 C33_3 1_555 1_555
C34_3 C12_3 1_555 1_555
H13_3 C34_3 1_555 1_555
C36_3 C3_3 1_555 1_555
H14_3 C36_3 1_555 1_555
C39_4 C27_4 1_555 1_555
C40_3 C21_3 1_555 1_555
H20_3 C40_3 1_555 1_555
H21_3 C40_3 1_555 1_555
H22_3 C40_3 1_555 1_555
C47_3 C18_3 1_555 1_555
H33_3 C47_3 1_555 1_555
H34_3 C47_3 1_555 1_555
C48_3 C18_3 1_555 1_555
H35_3 C48_3 1_555 1_555
H36_3 C48_3 1_555 1_555
H37_3 C48_3 1_555 1_555
C7_3 C21_3 1_555 1_555
C13_3 C20_3 1_555 1_555
C18_3 C24_3 1_555 1_555
C24_3 C31_3 1_555 1_555
C25_3 C34_3 1_555 1_555
C28_4 C32_4 1_555 1_555
C33_3 C36_3 1_555 1_555
C17_4 C8_4 1_555 1_555
H4_4 C17_4 1_555 1_555
C22_4 C8_4 1_555 1_555
H9_4 C29_4 1_555 1_555
C44_4 C22_4 1_555 1_555
H27_4 C44_4 1_555 1_555
H28_4 C44_4 1_555 1_555
H29_4 C44_4 1_555 1_555
N1_4 C1_4 1_555 1_555
C1_4 C5_4 1_555 1_555
C2_4 N1_4 1_555 1_555
C7_4 C2_4 1_555 1_555
C9_4 C2_4 1_555 1_555
C12_4 C3_4 1_555 1_555
C13_4 C19_4 1_555 1_555
C18_4 C9_4 1_555 1_555
C19_4 C7_4 1_555 1_555
H5_4 C19_4 1_555 1_555
C20_4 C9_4 1_555 1_555
H6_4 C20_4 1_555 1_555
C21_4 C5_4 1_555 1_555
C25_4 C13_4 1_555 1_555
H10_4 C31_4 1_555 1_555
C33_4 C25_4 1_555 1_555
H12_4 C33_4 1_555 1_555
C34_4 C12_4 1_555 1_555
H13_4 C34_4 1_555 1_555
C36_4 C3_4 1_555 1_555
H14_4 C36_4 1_555 1_555
C40_4 C21_4 1_555 1_555
H20_4 C40_4 1_555 1_555
H21_4 C40_4 1_555 1_555
H22_4 C40_4 1_555 1_555
C47_4 C18_4 1_555 1_555
H33_4 C47_4 1_555 1_555
H34_4 C47_4 1_555 1_555
C48_4 C18_4 1_555 1_555
H35_4 C48_4 1_555 1_555
H36_4 C48_4 1_555 1_555
H37_4 C48_4 1_555 1_555
C7_4 C21_4 1_555 1_555
C13_4 C20_4 1_555 1_555
C18_4 C24_4 1_555 1_555
C24_4 C31_4 1_555 1_555
C25_4 C34_4 1_555 1_555
C33_4 C36_4 1_555 1_555

#END
