
###############################################################################
#
# This file contains modified crystal structure data generated from the
# MOF subset of the Cambridge Structural Database (CSD) v543 
# hosted by the Cambridge Crystallographic Data Centre (CCDC).
#
# This work is licensed under the Creative Commons
# Attribution-NonCommercial-ShareAlike 4.0 International License.
# To view a copy of this license, visit
# http://creativecommons.org/licenses/by-nc-sa/4.0/
# or send a letter to
# Creative Commons, PO Box 1866, Mountain View, CA 94042, USA.
#
# CIF created using the CSD Python API on 29 September 2022
# The structure has been converted into the P1 space group
# The structure has a 3D framework
# The original CSD entry TABPEU is in the monoclinic crystal system
# The framework has been calculated to contain at least 10.0% void space
# The void calculation uses a probe of radius 1.32A, grid spacing 0.4
#
###############################################################################

data_TABPEU
_chemical_formula_moiety         '(C352 H320 N64 O64 Zn16)n'
_symmetry_cell_setting           triclinic
_symmetry_space_group_name_H-M   'P 1'
_symmetry_Int_Tables_number      1
_space_group_name_Hall           'P 1'
loop_
_symmetry_equiv_pos_site_id
_symmetry_equiv_pos_as_xyz
1 x,y,z
_cell_length_a                   12.0935(6)
_cell_length_b                   34.0051(17)
_cell_length_c                   31.9458(16)
_cell_angle_alpha                90
_cell_angle_beta                 93.564(3)
_cell_angle_gamma                90
_cell_volume                     13112
loop_
_atom_site_label
_atom_site_type_symbol
_atom_site_fract_x
_atom_site_fract_y
_atom_site_fract_z
O2 O 0.0487(2) 0.67889(8) 0.58360(9)
O3 O 0.0254(2) 0.88041(7) 0.64607(8)
N2 N 0.0486(2) 0.61685(9) 0.38907(10)
N3 N 0.1694(3) 0.60725(8) 0.31530(9)
N4 N 0.3401(3) 0.58867(9) 0.20714(10)
C4 C 0.0547(3) 0.62480(10) 0.46395(12)
H3 H 0.1293 0.6159 0.4666
C5 C 0.0012(3) 0.63533(9) 0.49878(12)
H4 H 0.0407 0.6333 0.5253
C6 C 0.1645(3) 0.60345(12) 0.39140(12)
H5 H 0.2142 0.6264 0.3961
H6 H 0.1771 0.5854 0.4156
C7 C 0.1923(4) 0.58308(11) 0.35284(12)
H7 H 0.2718 0.5760 0.3550
H8 H 0.1489 0.5584 0.3500
C8 C 0.0820(3) 0.63560(10) 0.31709(11)
H9 H 0.0461 0.6393 0.2887
H10 H 0.1136 0.6612 0.3266
C10 C 0.2255(3) 0.60159(10) 0.28020(12)
C11 C 0.2146(3) 0.62681(10) 0.24595(11)
H13 H 0.1666 0.6489 0.2465
C12 C 0.2730(3) 0.61991(10) 0.21144(12)
H14 H 0.2658 0.6383 0.1890
C13 C 0.3486(4) 0.56456(12) 0.24052(14)
H15 H 0.3953 0.5422 0.2390
C14 C 0.2955(4) 0.56983(11) 0.27610(13)
H16 H 0.3064 0.5516 0.2985
C23 C 0.0496(3) 0.74572(11) 0.60551(11)
C24 C 0.1581(4) 0.74398(13) 0.62189(15)
H25 H 0.1996 0.7204 0.6202
C25 C 0.2060(4) 0.77769(16) 0.64115(17)
H26 H 0.2810 0.7772 0.6520
C26 C 0.1439(4) 0.81120(13) 0.64418(15)
H27 H 0.1759 0.8335 0.6582
C27 C 0.0384(3) 0.81334(10) 0.62773(12)
Zn8 Zn 0.42316(4) 0.576751(12) 0.155109(14)
Zn1 Zn 0.82687(3) 0.665792(10) 0.549662(13)
Zn2 Zn 0.42316(4) 0.423249(12) 0.655109(14)
O1 O 0.8945(2) 0.71426(6) 0.57213(7)
O4 O 0.8690(3) 0.84973(7) 0.62392(9)
O5 O 0.8018(2) 0.63346(7) 0.59811(7)
O6 O 0.7345(2) 0.58760(7) 0.55381(8)
O7 O 0.5583(2) 0.46919(7) 0.61153(9)
O8 O 0.4950(2) 0.47292(7) 0.67541(8)
N1 N 0.8957(2) 0.64844(7) 0.49763(9)
N5 N 0.6751(2) 0.68773(8) 0.53021(9)
N6 N 0.3594(2) 0.73475(8) 0.50356(11)
N7 N 0.3050(3) 0.44073(9) 0.61249(10)
N8 N 0.0401(4) 0.47020(10) 0.52679(12)
C1 C 0.8418(3) 0.65057(10) 0.45946(12)
H1 H 0.7673 0.6596 0.4578
C2 C 0.8886(3) 0.64034(10) 0.42279(12)
H2 H 0.8463 0.6422 0.3968
C3 C 0.9974(3) 0.62730(10) 0.42385(12)
C9 C 0.9967(3) 0.62263(12) 0.34651(12)
H11 H 0.9378 0.6428 0.3473
H12 H 0.9623 0.5977 0.3363
C15 C 0.5890(3) 0.66504(10) 0.51608(12)
H17 H 0.6013 0.6376 0.5129
C16 C 0.4862(3) 0.67933(10) 0.50622(12)
H18 H 0.4292 0.6620 0.4958
C17 C 0.4628(3) 0.71966(10) 0.51123(11)
C18 C 0.5531(3) 0.74265(10) 0.52488(12)
H19 H 0.5438 0.7702 0.5282
C19 C 0.6536(3) 0.72640(10) 0.53343(11)
H20 H 0.7131 0.7433 0.5423
C20 C 0.3369(4) 0.77565(11) 0.5108(2)
H21 H 0.3737 0.7827 0.5383
H22 H 0.3741 0.7909 0.4893
C21 C 0.2654(4) 0.71180(13) 0.4894(3)
H23 H 0.2777 0.7040 0.4602
H24 H 0.2687 0.6873 0.5062
C22 C 0.9949(4) 0.71008(11) 0.58589(12)
C28 C 0.9917(3) 0.78059(10) 0.60860(11)
H28 H 0.9174 0.7819 0.5972
C29 C 0.9713(4) 0.84993(11) 0.63255(12)
C30 C 0.7506(3) 0.60096(10) 0.58905(13)
C31 C 0.7045(3) 0.58067(9) 0.62629(11)
C32 C 0.7042(3) 0.59851(10) 0.66550(12)
H29 H 0.7388 0.6234 0.6701
C33 C 0.6535(4) 0.57995(11) 0.69777(12)
H30 H 0.6527 0.5924 0.7244
C34 C 0.6043(3) 0.54378(11) 0.69182(12)
H31 H 0.5696 0.5314 0.7142
C35 C 0.6052(3) 0.52521(9) 0.65295(11)
C36 C 0.6556(3) 0.54382(9) 0.62095(11)
H32 H 0.6571 0.5311 0.5945
C37 C 0.5491(3) 0.48673(11) 0.64570(13)
C38 C 0.2111(4) 0.45761(11) 0.62410(13)
H33 H 0.2051 0.4623 0.6532
C39 C 0.1237(4) 0.46853(11) 0.59751(13)
H34 H 0.0597 0.4801 0.6081
C40 C 0.1297(4) 0.46246(10) 0.55441(13)
C41 C 0.2283(4) 0.44628(11) 0.54187(13)
H35 H 0.2386 0.4427 0.5129
C42 C 0.3105(3) 0.43552(11) 0.57120(13)
H36 H 0.3753 0.4236 0.5615
C43 C 0.0467(4) 0.46751(14) 0.48065(14)
H37 H 0.1124 0.4519 0.4740
N10 N 0.1406(2) 0.76525(8) 0.49644(11)
C46 C 0.0138(3) 0.82067(10) 0.49378(12)
H42 H 0.0708 0.8380 0.5042
C47 C 0.0372(3) 0.78034(10) 0.48877(11)
C50 C 0.1631(4) 0.72435(11) 0.4892(2)
H45 H 0.1263 0.7173 0.4617
H46 H 0.1259 0.7091 0.5107
C51 C 0.2346(4) 0.78820(13) 0.5106(3)
H47 H 0.2223 0.7960 0.5398
H48 H 0.2313 0.8127 0.4938
H54 H 0.0201 0.5458 0.5319
C58 C 0.0546(4) 0.50640(15) 0.46349(15)
H55 H 0.1233 0.5192 0.4752
H56 H 0.0586 0.5047 0.4327
Zn7 Zn 0.92316(4) 0.923249(12) 0.655109(14)
O17 O 0.5254(2) 0.38041(7) 0.64607(8)
N18 N 0.3401(3) 0.41133(9) 0.70714(10)
N14 N 0.0486(2) 0.38315(9) 0.88907(10)
N15 N 0.1694(3) 0.39275(8) 0.81530(9)
C62 C 0.0547(3) 0.37520(10) 0.96395(12)
H59 H 0.1293 0.3841 0.9666
C63 C 0.0012(3) 0.36467(9) 0.99878(12)
C64 C 0.1645(3) 0.39655(12) 0.89140(12)
H61 H 0.2142 0.3736 0.8961
H62 H 0.1771 0.4146 0.9156
C65 C 0.1923(4) 0.41692(11) 0.85284(12)
H63 H 0.2718 0.4240 0.8550
H64 H 0.1489 0.4416 0.8500
C66 C 0.0820(3) 0.36440(10) 0.81709(11)
H65 H 0.0461 0.3607 0.7887
H66 H 0.1136 0.3388 0.8266
C68 C 0.2255(3) 0.39841(10) 0.78020(12)
C69 C 0.2146(3) 0.37319(10) 0.74595(11)
H69 H 0.1666 0.3511 0.7465
C70 C 0.2730(3) 0.38009(10) 0.71144(12)
H70 H 0.2658 0.3617 0.6890
C71 C 0.3486(4) 0.43544(12) 0.74052(14)
H71 H 0.3953 0.4578 0.7390
C72 C 0.2955(4) 0.43017(11) 0.77610(13)
H72 H 0.3064 0.4484 0.7985
H38 H 0.0201 0.4542 0.0319
N9 N 0.1751(2) 0.81227(8) 0.03021(9)
C45 C 0.0890(3) 0.83496(10) 0.01608(12)
H41 H 0.1013 0.8624 0.0129
C48 C 0.0531(3) 0.75735(10) 0.02488(12)
H43 H 0.0438 0.7298 0.0282
C49 C 0.1536(3) 0.77360(10) 0.03343(11)
H44 H 0.2131 0.7567 0.0423
N11 N 0.3050(3) 0.55927(9) 0.11249(10)
N12 N 0.0401(4) 0.52980(10) 0.02679(12)
C52 C 0.2111(4) 0.54239(11) 0.12410(13)
H49 H 0.2051 0.5377 0.1532
C53 C 0.1237(4) 0.53147(11) 0.09751(13)
H50 H 0.0597 0.5199 0.1081
C54 C 0.1297(4) 0.53754(10) 0.05441(13)
C55 C 0.2283(4) 0.55372(11) 0.04187(13)
H51 H 0.2386 0.5573 0.0129
C56 C 0.3105(3) 0.56448(11) 0.07120(13)
H52 H 0.3753 0.5764 0.0615
Zn3 Zn 0.82687(3) 0.334208(10) 0.049662(13)
O9 O 0.8945(2) 0.28574(6) 0.07213(7)
O12 O 0.8690(3) 0.15027(7) 0.12392(9)
O13 O 0.8018(2) 0.36654(7) 0.09811(7)
O14 O 0.7345(2) 0.41240(7) 0.05381(8)
O15 O 0.5583(2) 0.53081(7) 0.11153(9)
O16 O 0.4950(2) 0.52708(7) 0.17541(8)
C73 C 0.9949(4) 0.28992(11) 0.08589(12)
C79 C 0.9917(3) 0.21941(10) 0.10860(11)
H76 H 0.9174 0.2181 0.0972
C80 C 0.9713(4) 0.15007(11) 0.13255(12)
C81 C 0.7506(3) 0.39904(10) 0.08905(13)
C82 C 0.7045(3) 0.41933(9) 0.12629(11)
C83 C 0.7042(3) 0.40149(10) 0.16550(12)
H77 H 0.7388 0.3766 0.1701
C84 C 0.6535(4) 0.42005(11) 0.19777(12)
H78 H 0.6527 0.4076 0.2244
C85 C 0.6043(3) 0.45622(11) 0.19182(12)
H79 H 0.5696 0.4686 0.2142
C86 C 0.6052(3) 0.47479(9) 0.15295(11)
C87 C 0.6556(3) 0.45618(9) 0.12095(11)
H80 H 0.6571 0.4689 0.0945
C88 C 0.5491(3) 0.51327(11) 0.14570(13)
Zn5 Zn 0.32687(3) 0.834208(10) 0.049662(13)
Zn9 Zn 0.92316(4) 0.076751(12) 0.155109(14)
O18 O 0.5254(2) 0.61959(7) 0.14607(8)
N19 N 0.6751(2) 0.31227(8) 0.03021(9)
Zn1_2 Zn 0.32687(3) 0.165792(10) 0.549662(13)
O1_2 O 0.3945(2) 0.21426(6) 0.57213(7)
O2_2 O 0.5487(2) 0.17889(8) 0.58360(9)
O4_2 O 0.3690(3) 0.34973(7) 0.62392(9)
O5_2 O 0.3018(2) 0.13346(7) 0.59811(7)
O6_2 O 0.2345(2) 0.08760(7) 0.55381(8)
N1_2 N 0.3957(2) 0.14844(7) 0.49763(9)
N2_2 N 0.5486(2) 0.11685(9) 0.38907(10)
N3_2 N 0.6694(3) 0.10725(8) 0.31530(9)
N4_2 N 0.8401(3) 0.08867(9) 0.20714(10)
N5_2 N 0.1751(2) 0.18773(8) 0.53021(9)
C1_2 C 0.3418(3) 0.15057(10) 0.45946(12)
H1_2 H 0.2673 0.1596 0.4578
C2_2 C 0.3886(3) 0.14034(10) 0.42279(12)
H2_2 H 0.3463 0.1422 0.3968
C3_2 C 0.4974(3) 0.12730(10) 0.42385(12)
C4_2 C 0.5547(3) 0.12480(10) 0.46395(12)
H3_2 H 0.6293 0.1159 0.4666
C5_2 C 0.5012(3) 0.13533(9) 0.49878(12)
H4_2 H 0.5407 0.1333 0.5253
C6_2 C 0.6645(3) 0.10345(12) 0.39140(12)
H5_2 H 0.7142 0.1264 0.3961
H6_2 H 0.6771 0.0854 0.4156
C7_2 C 0.6923(4) 0.08308(11) 0.35284(12)
H7_2 H 0.7718 0.0760 0.3550
H8_2 H 0.6489 0.0584 0.3500
C8_2 C 0.5820(3) 0.13560(10) 0.31709(11)
H9_2 H 0.5461 0.1393 0.2887
H10_2 H 0.6136 0.1612 0.3266
C9_2 C 0.4967(3) 0.12263(12) 0.34651(12)
H11_2 H 0.4378 0.1428 0.3473
H12_2 H 0.4623 0.0977 0.3363
C10_2 C 0.7255(3) 0.10159(10) 0.28020(12)
C11_2 C 0.7146(3) 0.12681(10) 0.24595(11)
H13_2 H 0.6666 0.1489 0.2465
C12_2 C 0.7730(3) 0.11991(10) 0.21144(12)
H14_2 H 0.7658 0.1383 0.1890
C13_2 C 0.8486(4) 0.06456(12) 0.24052(14)
H15_2 H 0.8953 0.0422 0.2390
C14_2 C 0.7955(4) 0.06983(11) 0.27610(13)
H16_2 H 0.8064 0.0516 0.2985
C15_2 C 0.0890(3) 0.16504(10) 0.51608(12)
H17_2 H 0.1013 0.1376 0.5129
C18_2 C 0.0531(3) 0.24265(10) 0.52488(12)
H19_2 H 0.0438 0.2702 0.5282
C19_2 C 0.1536(3) 0.22640(10) 0.53343(11)
H20_2 H 0.2131 0.2433 0.5423
C22_2 C 0.4949(4) 0.21008(11) 0.58589(12)
C23_2 C 0.5496(3) 0.24572(11) 0.60551(11)
C24_2 C 0.6581(4) 0.24398(13) 0.62189(15)
H25_2 H 0.6996 0.2204 0.6202
C25_2 C 0.7060(4) 0.27769(16) 0.64115(17)
H26_2 H 0.7810 0.2772 0.6520
C26_2 C 0.6439(4) 0.31120(13) 0.64418(15)
H27_2 H 0.6759 0.3335 0.6582
C27_2 C 0.5384(3) 0.31334(10) 0.62773(12)
C28_2 C 0.4917(3) 0.28059(10) 0.60860(11)
H28_2 H 0.4174 0.2819 0.5972
C29_2 C 0.4713(4) 0.34993(11) 0.63255(12)
C30_2 C 0.2506(3) 0.10096(10) 0.58905(13)
C31_2 C 0.2045(3) 0.08067(9) 0.62629(11)
C32_2 C 0.2042(3) 0.09851(10) 0.66550(12)
H29_2 H 0.2388 0.1234 0.6701
C33_2 C 0.1535(4) 0.07995(11) 0.69777(12)
H30_2 H 0.1527 0.0924 0.7244
C34_2 C 0.1043(3) 0.04378(11) 0.69182(12)
H31_2 H 0.0696 0.0314 0.7142
C35_2 C 0.1052(3) 0.02521(9) 0.65295(11)
C36_2 C 0.1556(3) 0.04382(9) 0.62095(11)
H32_2 H 0.1571 0.0311 0.5945
O7_2 O 0.0583(2) 0.96919(7) 0.61153(9)
C37_2 C 0.0491(3) 0.98673(11) 0.64570(13)
O8_2 O 0.9950(2) 0.97292(7) 0.67541(8)
N7_2 N 0.8050(3) 0.94073(9) 0.61249(10)
N8_2 N 0.5401(4) 0.97020(10) 0.52679(12)
C38_2 C 0.7111(4) 0.95761(11) 0.62410(13)
H33_2 H 0.7051 0.9623 0.6532
C39_2 C 0.6237(4) 0.96853(11) 0.59751(13)
H34_2 H 0.5597 0.9801 0.6081
C40_2 C 0.6297(4) 0.96246(10) 0.55441(13)
C41_2 C 0.7283(4) 0.94628(11) 0.54187(13)
H35_2 H 0.7386 0.9427 0.5129
C42_2 C 0.8105(3) 0.93552(11) 0.57120(13)
H36_2 H 0.8753 0.9236 0.5615
C43_2 C 0.5467(4) 0.96751(14) 0.48065(14)
H37_2 H 0.6124 0.9519 0.4740
H38_2 H 0.4799 0.9542 0.4681
C44 C 0.4454(4) 0.99360(15) 0.53651(15)
H39 H 0.3767 0.9808 0.5248
H40 H 0.4414 0.9953 0.5673
N18_2 N 0.8401(3) 0.91133(9) 0.70714(10)
O9_2 O 0.3945(2) 0.78574(6) 0.07213(7)
O10 O 0.5487(2) 0.82111(8) 0.08360(9)
O12_2 O 0.3690(3) 0.65027(7) 0.12392(9)
O13_2 O 0.3018(2) 0.86654(7) 0.09811(7)
O14_2 O 0.2345(2) 0.91240(7) 0.05381(8)
H60 H 0.5407 0.8667 0.0253
C73_2 C 0.4949(4) 0.78992(11) 0.08589(12)
C74 C 0.5496(3) 0.75428(11) 0.10551(11)
C75 C 0.6581(4) 0.75602(13) 0.12189(15)
H73 H 0.6996 0.7796 0.1202
C76 C 0.7060(4) 0.72231(16) 0.14115(17)
H74 H 0.7810 0.7228 0.1520
C77 C 0.6439(4) 0.68880(13) 0.14418(15)
H75 H 0.6759 0.6665 0.1582
C78 C 0.5384(3) 0.68666(10) 0.12773(12)
C79_2 C 0.4917(3) 0.71941(10) 0.10860(11)
H76_2 H 0.4174 0.7181 0.0972
C80_2 C 0.4713(4) 0.65007(11) 0.13255(12)
C81_2 C 0.2506(3) 0.89904(10) 0.08905(13)
C82_2 C 0.2045(3) 0.91933(9) 0.12629(11)
C83_2 C 0.2042(3) 0.90149(10) 0.16550(12)
H77_2 H 0.2388 0.8766 0.1701
C84_2 C 0.1535(4) 0.92005(11) 0.19777(12)
H78_2 H 0.1527 0.9076 0.2244
C85_2 C 0.1043(3) 0.95622(11) 0.19182(12)
H79_2 H 0.0696 0.9686 0.2142
C86_2 C 0.1052(3) 0.97479(9) 0.15295(11)
C87_2 C 0.1556(3) 0.95618(9) 0.12095(11)
H80_2 H 0.1571 0.9689 0.0945
N13 N 0.3957(2) 0.85156(7) 0.99763(9)
N14_2 N 0.5486(2) 0.88315(9) 0.88907(10)
N15_2 N 0.6694(3) 0.89275(8) 0.81530(9)
C59 C 0.3418(3) 0.84943(10) 0.95946(12)
H57 H 0.2673 0.8404 0.9578
C60 C 0.3886(3) 0.85966(10) 0.92279(12)
H58 H 0.3463 0.8578 0.8968
C61 C 0.4974(3) 0.87270(10) 0.92385(12)
C62_2 C 0.5547(3) 0.87520(10) 0.96395(12)
H59_2 H 0.6293 0.8841 0.9666
C63_2 C 0.5012(3) 0.86467(9) 0.99878(12)
C64_2 C 0.6645(3) 0.89655(12) 0.89140(12)
H61_2 H 0.7142 0.8736 0.8961
H62_2 H 0.6771 0.9146 0.9156
C65_2 C 0.6923(4) 0.91692(11) 0.85284(12)
H63_2 H 0.7718 0.9240 0.8550
H64_2 H 0.6489 0.9416 0.8500
C66_2 C 0.5820(3) 0.86440(10) 0.81709(11)
H65_2 H 0.5461 0.8607 0.7887
H66_2 H 0.6136 0.8388 0.8266
C67 C 0.4967(3) 0.87737(12) 0.84651(12)
H67 H 0.4378 0.8572 0.8473
H68 H 0.4623 0.9023 0.8363
C68_2 C 0.7255(3) 0.89841(10) 0.78020(12)
C69_2 C 0.7146(3) 0.87319(10) 0.74595(11)
H69_2 H 0.6666 0.8511 0.7465
C70_2 C 0.7730(3) 0.88009(10) 0.71144(12)
H70_2 H 0.7658 0.8617 0.6890
C71_2 C 0.8486(4) 0.93544(12) 0.74052(14)
H71_2 H 0.8953 0.9578 0.7390
C72_2 C 0.7955(4) 0.93017(11) 0.77610(13)
H72_2 H 0.8064 0.9484 0.7985
H18_2 H 0.0708 0.1620 0.0042
H22_2 H 0.1259 0.2909 0.0107
C21_2 C 0.2346(4) 0.21180(13) 0.0106(3)
H23_2 H 0.2223 0.2040 0.0398
N10_2 N 0.3594(2) 0.26525(8) 0.00356(11)
C45_2 C 0.5890(3) 0.33496(10) 0.01608(12)
H41_2 H 0.6013 0.3624 0.0129
C46_2 C 0.4862(3) 0.32067(10) 0.00622(12)
C47_2 C 0.4628(3) 0.28034(10) 0.01123(11)
C48_2 C 0.5531(3) 0.25735(10) 0.02488(12)
H43_2 H 0.5438 0.2298 0.0282
C49_2 C 0.6536(3) 0.27360(10) 0.03343(11)
H44_2 H 0.7131 0.2567 0.0423
C50_2 C 0.3369(4) 0.22435(11) 0.0108(2)
H45_2 H 0.3737 0.2173 0.0383
H48_2 H 0.2687 0.3127 0.0062
N11_2 N 0.8050(3) 0.05927(9) 0.11249(10)
N12_2 N 0.5401(4) 0.02980(10) 0.02679(12)
C52_2 C 0.7111(4) 0.04239(11) 0.12410(13)
H49_2 H 0.7051 0.0377 0.1532
C53_2 C 0.6237(4) 0.03147(11) 0.09751(13)
H50_2 H 0.5597 0.0199 0.1081
C54_2 C 0.6297(4) 0.03754(10) 0.05441(13)
C55_2 C 0.7283(4) 0.05372(11) 0.04187(13)
H51_2 H 0.7386 0.0573 0.0129
C56_2 C 0.8105(3) 0.06448(11) 0.07120(13)
H52_2 H 0.8753 0.0764 0.0615
C58_2 C 0.4454(4) 0.00640(15) 0.03651(15)
H55_2 H 0.3767 0.0192 0.0248
H56_2 H 0.4414 0.0047 0.0673
O16_2 O 0.9950(2) 0.02708(7) 0.17541(8)
H38_3 H 0.9799 0.4542 0.4681
C44_2 C 0.9454(4) 0.49360(15) 0.53651(15)
H39_2 H 0.8767 0.4808 0.5248
H40_2 H 0.9414 0.4953 0.5673
N9_2 N 0.8249(2) 0.81227(8) 0.46979(9)
C45_3 C 0.9110(3) 0.83496(10) 0.48392(12)
H41_3 H 0.8987 0.8624 0.4871
C48_3 C 0.9469(3) 0.75735(10) 0.47512(12)
H43_3 H 0.9562 0.7298 0.4718
C49_3 C 0.8464(3) 0.77360(10) 0.46657(11)
H44_3 H 0.7869 0.7567 0.4577
N11_3 N 0.6950(3) 0.55927(9) 0.38751(10)
N12_3 N 0.9599(4) 0.52980(10) 0.47321(12)
C52_3 C 0.7889(4) 0.54239(11) 0.37590(13)
H49_3 H 0.7949 0.5377 0.3468
C53_3 C 0.8763(4) 0.53147(11) 0.40249(13)
H50_3 H 0.9403 0.5199 0.3919
C54_3 C 0.8703(4) 0.53754(10) 0.44559(13)
C55_3 C 0.7717(4) 0.55372(11) 0.45813(13)
H51_3 H 0.7614 0.5573 0.4871
C56_3 C 0.6895(3) 0.56448(11) 0.42880(13)
H52_3 H 0.6247 0.5764 0.4385
C57 C 0.9533(4) 0.53249(14) 0.51935(14)
H53 H 0.8876 0.5481 0.5260
Zn3_2 Zn 0.17313(3) 0.334208(10) 0.450338(13)
Zn4 Zn 0.57684(4) 0.576751(12) 0.344891(14)
O9_3 O 0.1055(2) 0.28574(6) 0.42787(7)
O12_3 O 0.1310(3) 0.15027(7) 0.37608(9)
O13_3 O 0.1982(2) 0.36654(7) 0.40189(7)
O14_3 O 0.2655(2) 0.41240(7) 0.44619(8)
O15_2 O 0.4417(2) 0.53081(7) 0.38847(9)
O16_3 O 0.5050(2) 0.52708(7) 0.32459(8)
N13_2 N 0.1043(2) 0.35156(7) 0.50237(9)
C59_2 C 0.1582(3) 0.34943(10) 0.54054(12)
H57_2 H 0.2327 0.3404 0.5422
C60_2 C 0.1114(3) 0.35966(10) 0.57721(12)
H58_2 H 0.1537 0.3578 0.6032
C61_2 C 0.0026(3) 0.37270(10) 0.57615(12)
C67_2 C 0.0033(3) 0.37737(12) 0.65349(12)
H67_2 H 0.0622 0.3572 0.6527
H68_2 H 0.0377 0.4023 0.6637
C73_3 C 0.0051(4) 0.28992(11) 0.41411(12)
C79_3 C 0.0083(3) 0.21941(10) 0.39140(11)
H76_3 H 0.0826 0.2181 0.4028
C80_3 C 0.0287(4) 0.15007(11) 0.36745(12)
C81_3 C 0.2494(3) 0.39904(10) 0.41095(13)
C82_3 C 0.2955(3) 0.41933(9) 0.37371(11)
C83_3 C 0.2958(3) 0.40149(10) 0.33450(12)
H77_3 H 0.2612 0.3766 0.3299
C84_3 C 0.3465(4) 0.42005(11) 0.30223(12)
H78_3 H 0.3473 0.4076 0.2756
C85_3 C 0.3957(3) 0.45622(11) 0.30818(12)
H79_3 H 0.4304 0.4686 0.2858
C86_3 C 0.3948(3) 0.47479(9) 0.34705(11)
C87_3 C 0.3444(3) 0.45618(9) 0.37905(11)
H80_3 H 0.3429 0.4689 0.4055
C88_2 C 0.4509(3) 0.51327(11) 0.35430(13)
Zn5_2 Zn 0.67313(3) 0.834208(10) 0.450338(13)
Zn9_2 Zn 0.07684(4) 0.076751(12) 0.344891(14)
O18_2 O 0.4746(2) 0.61959(7) 0.35393(8)
N17 N 0.6599(3) 0.58867(9) 0.29286(10)
N19_2 N 0.3249(2) 0.31227(8) 0.46979(9)
O10_2 O 0.9513(2) 0.32111(8) 0.41640(9)
O11 O 0.9746(2) 0.11959(7) 0.35393(8)
N14_3 N 0.9514(2) 0.38315(9) 0.61093(10)
N15_3 N 0.8306(3) 0.39275(8) 0.68470(9)
N16 N 0.6599(3) 0.41133(9) 0.79286(10)
C62_3 C 0.9453(3) 0.37520(10) 0.53605(12)
H59_3 H 0.8707 0.3841 0.5334
C63_3 C 0.9988(3) 0.36467(9) 0.50122(12)
H60_2 H 0.9593 0.3667 0.4747
C64_3 C 0.8355(3) 0.39655(12) 0.60860(12)
H61_3 H 0.7858 0.3736 0.6039
H62_3 H 0.8229 0.4146 0.5844
C65_3 C 0.8077(4) 0.41692(11) 0.64716(12)
H63_3 H 0.7282 0.4240 0.6450
H64_3 H 0.8511 0.4416 0.6500
C66_3 C 0.9180(3) 0.36440(10) 0.68291(11)
H65_3 H 0.9539 0.3607 0.7113
H66_3 H 0.8864 0.3388 0.6734
C68_3 C 0.7745(3) 0.39841(10) 0.71980(12)
C69_3 C 0.7854(3) 0.37319(10) 0.75405(11)
H69_3 H 0.8334 0.3511 0.7535
C70_3 C 0.7270(3) 0.38009(10) 0.78856(12)
H70_3 H 0.7342 0.3617 0.8110
C71_3 C 0.6514(4) 0.43544(12) 0.75948(14)
H71_3 H 0.6047 0.4578 0.7610
C72_3 C 0.7045(4) 0.43017(11) 0.72390(13)
H72_3 H 0.6936 0.4484 0.7015
C74_2 C 0.9504(3) 0.25428(11) 0.39449(11)
C75_2 C 0.8419(4) 0.25602(13) 0.37811(15)
H73_2 H 0.8004 0.2796 0.3798
C76_2 C 0.7940(4) 0.22231(16) 0.35885(17)
H74_2 H 0.7190 0.2228 0.3480
C77_2 C 0.8561(4) 0.18880(13) 0.35582(15)
H75_2 H 0.8241 0.1665 0.3418
C78_2 C 0.9616(3) 0.18666(10) 0.37227(12)
Zn6 Zn 0.57684(4) 0.423249(12) 0.844891(14)
Zn1_3 Zn 0.17313(3) 0.665792(10) 0.950338(13)
O1_3 O 0.1055(2) 0.71426(6) 0.92787(7)
O4_3 O 0.1310(3) 0.84973(7) 0.87608(9)
O5_3 O 0.1982(2) 0.63346(7) 0.90189(7)
O6_3 O 0.2655(2) 0.58760(7) 0.94619(8)
O7_3 O 0.4417(2) 0.46919(7) 0.88847(9)
O8_3 O 0.5050(2) 0.47292(7) 0.82459(8)
N5_3 N 0.3249(2) 0.68773(8) 0.96979(9)
N6_2 N 0.6406(2) 0.73475(8) 0.99644(11)
N7_3 N 0.6950(3) 0.44073(9) 0.88751(10)
N8_3 N 0.9599(4) 0.47020(10) 0.97321(12)
C15_3 C 0.4110(3) 0.66504(10) 0.98392(12)
H17_3 H 0.3987 0.6376 0.9871
C16_2 C 0.5138(3) 0.67933(10) 0.99378(12)
C17_2 C 0.5372(3) 0.71966(10) 0.98877(11)
C18_3 C 0.4469(3) 0.74265(10) 0.97512(12)
H19_3 H 0.4562 0.7702 0.9718
C19_3 C 0.3464(3) 0.72640(10) 0.96657(11)
H20_3 H 0.2869 0.7433 0.9577
C20_2 C 0.6631(4) 0.77565(11) 0.9892(2)
H21_2 H 0.6263 0.7827 0.9617
H24_2 H 0.7313 0.6873 0.9938
C22_3 C 0.0051(4) 0.71008(11) 0.91411(12)
C28_3 C 0.0083(3) 0.78059(10) 0.89140(11)
H28_3 H 0.0826 0.7819 0.9028
C29_3 C 0.0287(4) 0.84993(11) 0.86745(12)
C30_3 C 0.2494(3) 0.60096(10) 0.91095(13)
C31_3 C 0.2955(3) 0.58067(9) 0.87371(11)
C32_3 C 0.2958(3) 0.59851(10) 0.83450(12)
H29_3 H 0.2612 0.6234 0.8299
C33_3 C 0.3465(4) 0.57995(11) 0.80223(12)
H30_3 H 0.3473 0.5924 0.7756
C34_3 C 0.3957(3) 0.54378(11) 0.80818(12)
H31_3 H 0.4304 0.5314 0.7858
C35_3 C 0.3948(3) 0.52521(9) 0.84705(11)
C36_3 C 0.3444(3) 0.54382(9) 0.87905(11)
H32_3 H 0.3429 0.5311 0.9055
C37_3 C 0.4509(3) 0.48673(11) 0.85430(13)
C38_3 C 0.7889(4) 0.45761(11) 0.87590(13)
H33_3 H 0.7949 0.4623 0.8468
C39_3 C 0.8763(4) 0.46853(11) 0.90249(13)
H34_3 H 0.9403 0.4801 0.8919
C40_3 C 0.8703(4) 0.46246(10) 0.94559(13)
C41_3 C 0.7717(4) 0.44628(11) 0.95813(13)
H35_3 H 0.7614 0.4427 0.9871
C42_3 C 0.6895(3) 0.43552(11) 0.92880(13)
H36_3 H 0.6247 0.4236 0.9385
H42_2 H 0.9292 0.8380 0.9958
H46_2 H 0.8741 0.7091 0.9893
C51_2 C 0.7654(4) 0.78820(13) 0.9894(3)
H47_2 H 0.7777 0.7960 0.9602
H54_2 H 0.9799 0.5458 0.9681
Zn7_2 Zn 0.07684(4) 0.923249(12) 0.844891(14)
O17_2 O 0.4746(2) 0.38041(7) 0.85393(8)
N2_3 N 0.9514(2) 0.61685(9) 0.11093(10)
N3_3 N 0.8306(3) 0.60725(8) 0.18470(9)
C4_3 C 0.9453(3) 0.62480(10) 0.03605(12)
H3_3 H 0.8707 0.6159 0.0334
C5_3 C 0.9988(3) 0.63533(9) 0.00122(12)
C6_3 C 0.8355(3) 0.60345(12) 0.10860(12)
H5_3 H 0.7858 0.6264 0.1039
H6_3 H 0.8229 0.5854 0.0844
C7_3 C 0.8077(4) 0.58308(11) 0.14716(12)
H7_3 H 0.7282 0.5760 0.1450
H8_3 H 0.8511 0.5584 0.1500
C8_3 C 0.9180(3) 0.63560(10) 0.18291(11)
H9_3 H 0.9539 0.6393 0.2113
H10_3 H 0.8864 0.6612 0.1734
C10_3 C 0.7745(3) 0.60159(10) 0.21980(12)
C11_3 C 0.7854(3) 0.62681(10) 0.25405(11)
H13_3 H 0.8334 0.6489 0.2535
C12_3 C 0.7270(3) 0.61991(10) 0.28856(12)
H14_3 H 0.7342 0.6383 0.3110
C13_3 C 0.6514(4) 0.56456(12) 0.25948(14)
H15_3 H 0.6047 0.5422 0.2610
C14_3 C 0.7045(4) 0.56983(11) 0.22390(13)
H16_3 H 0.6936 0.5516 0.2015
N6_3 N 0.8594(2) 0.23475(8) 0.50356(11)
C16_3 C 0.9862(3) 0.17933(10) 0.50622(12)
H18_3 H 0.9292 0.1620 0.4958
C17_3 C 0.9628(3) 0.21966(10) 0.51123(11)
C20_3 C 0.8369(4) 0.27565(11) 0.5108(2)
H21_3 H 0.8737 0.2827 0.5383
H22_3 H 0.8741 0.2909 0.4893
C21_3 C 0.7654(4) 0.21180(13) 0.4894(3)
H23_3 H 0.7777 0.2040 0.4602
H24_3 H 0.7687 0.1873 0.5062
N10_3 N 0.6406(2) 0.26525(8) 0.49644(11)
C45_4 C 0.4110(3) 0.33496(10) 0.48392(12)
H41_4 H 0.3987 0.3624 0.4871
C46_3 C 0.5138(3) 0.32067(10) 0.49378(12)
H42_3 H 0.5708 0.3380 0.5042
C47_3 C 0.5372(3) 0.28034(10) 0.48877(11)
C48_4 C 0.4469(3) 0.25735(10) 0.47512(12)
H43_4 H 0.4562 0.2298 0.4718
C49_4 C 0.3464(3) 0.27360(10) 0.46657(11)
H44_4 H 0.2869 0.2567 0.4577
C50_3 C 0.6631(4) 0.22435(11) 0.4892(2)
H45_3 H 0.6263 0.2173 0.4617
H46_3 H 0.6259 0.2091 0.5107
C51_3 C 0.7346(4) 0.28820(13) 0.5106(3)
H47_3 H 0.7223 0.2960 0.5398
H48_3 H 0.7313 0.3127 0.4938
N11_4 N 0.1950(3) 0.05927(9) 0.38751(10)
N12_4 N 0.4599(4) 0.02980(10) 0.47321(12)
C52_4 C 0.2889(4) 0.04239(11) 0.37590(13)
H49_4 H 0.2949 0.0377 0.3468
C53_4 C 0.3763(4) 0.03147(11) 0.40249(13)
H50_4 H 0.4403 0.0199 0.3919
C54_4 C 0.3703(4) 0.03754(10) 0.44559(13)
C55_4 C 0.2717(4) 0.05372(11) 0.45813(13)
H51_4 H 0.2614 0.0573 0.4871
C56_4 C 0.1895(3) 0.06448(11) 0.42880(13)
H52_4 H 0.1247 0.0764 0.4385
C57_2 C 0.4533(4) 0.03249(14) 0.51935(14)
H53_2 H 0.3876 0.0481 0.5260
H54_3 H 0.5201 0.0458 0.5319
C58_3 C 0.5546(4) 0.00640(15) 0.46349(15)
H55_3 H 0.6233 0.0192 0.4752
H56_3 H 0.5586 0.0047 0.4327
O16_4 O 0.0050(2) 0.02708(7) 0.32459(8)
N17_2 N 0.1599(3) 0.08867(9) 0.29286(10)
O15_3 O 0.9417(2) 0.03081(7) 0.38847(9)
C88_3 C 0.9509(3) 0.01327(11) 0.35430(13)
O9_4 O 0.6055(2) 0.78574(6) 0.42787(7)
O10_3 O 0.4513(2) 0.82111(8) 0.41640(9)
O12_4 O 0.6310(3) 0.65027(7) 0.37608(9)
O13_4 O 0.6982(2) 0.86654(7) 0.40189(7)
O14_4 O 0.7655(2) 0.91240(7) 0.44619(8)
N13_3 N 0.6043(2) 0.85156(7) 0.50237(9)
N14_4 N 0.4514(2) 0.88315(9) 0.61093(10)
N15_4 N 0.3306(3) 0.89275(8) 0.68470(9)
N16_2 N 0.1599(3) 0.91133(9) 0.79286(10)
C59_3 C 0.6582(3) 0.84943(10) 0.54054(12)
H57_3 H 0.7327 0.8404 0.5422
C60_3 C 0.6114(3) 0.85966(10) 0.57721(12)
H58_3 H 0.6537 0.8578 0.6032
C61_3 C 0.5026(3) 0.87270(10) 0.57615(12)
C62_4 C 0.4453(3) 0.87520(10) 0.53605(12)
H59_4 H 0.3707 0.8841 0.5334
C63_4 C 0.4988(3) 0.86467(9) 0.50122(12)
H60_3 H 0.4593 0.8667 0.4747
C64_4 C 0.3355(3) 0.89655(12) 0.60860(12)
H61_4 H 0.2858 0.8736 0.6039
H62_4 H 0.3229 0.9146 0.5844
C65_4 C 0.3077(4) 0.91692(11) 0.64716(12)
H63_4 H 0.2282 0.9240 0.6450
H64_4 H 0.3511 0.9416 0.6500
C66_4 C 0.4180(3) 0.86440(10) 0.68291(11)
H65_4 H 0.4539 0.8607 0.7113
H66_4 H 0.3864 0.8388 0.6734
C67_3 C 0.5033(3) 0.87737(12) 0.65349(12)
H67_3 H 0.5622 0.8572 0.6527
H68_3 H 0.5377 0.9023 0.6637
C68_4 C 0.2745(3) 0.89841(10) 0.71980(12)
C69_4 C 0.2854(3) 0.87319(10) 0.75405(11)
H69_4 H 0.3334 0.8511 0.7535
C70_4 C 0.2270(3) 0.88009(10) 0.78856(12)
H70_4 H 0.2342 0.8617 0.8110
C71_4 C 0.1514(4) 0.93544(12) 0.75948(14)
H71_4 H 0.1047 0.9578 0.7610
C72_4 C 0.2045(4) 0.93017(11) 0.72390(13)
H72_4 H 0.1936 0.9484 0.7015
C73_4 C 0.5051(4) 0.78992(11) 0.41411(12)
C74_3 C 0.4504(3) 0.75428(11) 0.39449(11)
C75_3 C 0.3419(4) 0.75602(13) 0.37811(15)
H73_3 H 0.3004 0.7796 0.3798
C76_3 C 0.2940(4) 0.72231(16) 0.35885(17)
H74_3 H 0.2190 0.7228 0.3480
C77_3 C 0.3561(4) 0.68880(13) 0.35582(15)
H75_3 H 0.3241 0.6665 0.3418
C78_3 C 0.4616(3) 0.68666(10) 0.37227(12)
C79_4 C 0.5083(3) 0.71941(10) 0.39140(11)
H76_4 H 0.5826 0.7181 0.4028
C80_4 C 0.5287(4) 0.65007(11) 0.36745(12)
C81_4 C 0.7494(3) 0.89904(10) 0.41095(13)
C82_4 C 0.7955(3) 0.91933(9) 0.37371(11)
C83_4 C 0.7958(3) 0.90149(10) 0.33450(12)
H77_4 H 0.7612 0.8766 0.3299
C84_4 C 0.8465(4) 0.92005(11) 0.30223(12)
H78_4 H 0.8473 0.9076 0.2756
C85_4 C 0.8957(3) 0.95622(11) 0.30818(12)
H79_4 H 0.9304 0.9686 0.2858
C86_4 C 0.8948(3) 0.97479(9) 0.34705(11)
C87_4 C 0.8444(3) 0.95618(9) 0.37905(11)
H80_4 H 0.8429 0.9689 0.4055
O8_4 O 0.0050(2) 0.97292(7) 0.82459(8)
N7_4 N 0.1950(3) 0.94073(9) 0.88751(10)
N8_4 N 0.4599(4) 0.97020(10) 0.97321(12)
C38_4 C 0.2889(4) 0.95761(11) 0.87590(13)
H33_4 H 0.2949 0.9623 0.8468
C39_4 C 0.3763(4) 0.96853(11) 0.90249(13)
H34_4 H 0.4403 0.9801 0.8919
C40_4 C 0.3703(4) 0.96246(10) 0.94559(13)
C41_4 C 0.2717(4) 0.94628(11) 0.95813(13)
H35_4 H 0.2614 0.9427 0.9871
C42_4 C 0.1895(3) 0.93552(11) 0.92880(13)
H36_4 H 0.1247 0.9236 0.9385
C44_3 C 0.5546(4) 0.99360(15) 0.96349(15)
H39_3 H 0.6233 0.9808 0.9752
H40_3 H 0.5586 0.9953 0.9327
N1_3 N 0.6043(2) 0.14844(7) 0.00237(9)
N2_4 N 0.4514(2) 0.11685(9) 0.11093(10)
N3_4 N 0.3306(3) 0.10725(8) 0.18470(9)
C1_3 C 0.6582(3) 0.15057(10) 0.04054(12)
H1_3 H 0.7327 0.1596 0.0422
C2_3 C 0.6114(3) 0.14034(10) 0.07721(12)
H2_3 H 0.6537 0.1422 0.1032
C3_3 C 0.5026(3) 0.12730(10) 0.07615(12)
C4_4 C 0.4453(3) 0.12480(10) 0.03605(12)
H3_4 H 0.3707 0.1159 0.0334
C5_4 C 0.4988(3) 0.13533(9) 0.00122(12)
C6_4 C 0.3355(3) 0.10345(12) 0.10860(12)
H5_4 H 0.2858 0.1264 0.1039
H6_4 H 0.3229 0.0854 0.0844
C7_4 C 0.3077(4) 0.08308(11) 0.14716(12)
H7_4 H 0.2282 0.0760 0.1450
H8_4 H 0.3511 0.0584 0.1500
C8_4 C 0.4180(3) 0.13560(10) 0.18291(11)
H9_4 H 0.4539 0.1393 0.2113
H10_4 H 0.3864 0.1612 0.1734
C9_3 C 0.5033(3) 0.12263(12) 0.15349(12)
H11_3 H 0.5622 0.1428 0.1527
H12_3 H 0.5377 0.0977 0.1637
C10_4 C 0.2745(3) 0.10159(10) 0.21980(12)
C11_4 C 0.2854(3) 0.12681(10) 0.25405(11)
H13_4 H 0.3334 0.1489 0.2535
C12_4 C 0.2270(3) 0.11991(10) 0.28856(12)
H14_4 H 0.2342 0.1383 0.3110
C13_4 C 0.1514(4) 0.06456(12) 0.25948(14)
H15_4 H 0.1047 0.0422 0.2610
C14_4 C 0.2045(4) 0.06983(11) 0.22390(13)
H16_4 H 0.1936 0.0516 0.2015
Zn1_4 Zn 0.67313(3) 0.165792(10) 0.950338(13)
O1_4 O 0.6055(2) 0.21426(6) 0.92787(7)
O2_3 O 0.4513(2) 0.17889(8) 0.91640(9)
O4_4 O 0.6310(3) 0.34973(7) 0.87608(9)
O5_4 O 0.6982(2) 0.13346(7) 0.90189(7)
O6_4 O 0.7655(2) 0.08760(7) 0.94619(8)
N5_4 N 0.8249(2) 0.18773(8) 0.96979(9)
H4_3 H 0.4593 0.1333 0.9747
C15_4 C 0.9110(3) 0.16504(10) 0.98392(12)
H17_4 H 0.8987 0.1376 0.9871
C18_4 C 0.9469(3) 0.24265(10) 0.97512(12)
H19_4 H 0.9562 0.2702 0.9718
C19_4 C 0.8464(3) 0.22640(10) 0.96657(11)
H20_4 H 0.7869 0.2433 0.9577
C22_4 C 0.5051(4) 0.21008(11) 0.91411(12)
C23_3 C 0.4504(3) 0.24572(11) 0.89449(11)
C24_3 C 0.3419(4) 0.24398(13) 0.87811(15)
H25_3 H 0.3004 0.2204 0.8798
C25_3 C 0.2940(4) 0.27769(16) 0.85885(17)
H26_3 H 0.2190 0.2772 0.8480
C26_3 C 0.3561(4) 0.31120(13) 0.85582(15)
H27_3 H 0.3241 0.3335 0.8418
C27_3 C 0.4616(3) 0.31334(10) 0.87227(12)
C28_4 C 0.5083(3) 0.28059(10) 0.89140(11)
H28_4 H 0.5826 0.2819 0.9028
C29_4 C 0.5287(4) 0.34993(11) 0.86745(12)
C30_4 C 0.7494(3) 0.10096(10) 0.91095(13)
C31_4 C 0.7955(3) 0.08067(9) 0.87371(11)
C32_4 C 0.7958(3) 0.09851(10) 0.83450(12)
H29_4 H 0.7612 0.1234 0.8299
C33_4 C 0.8465(4) 0.07995(11) 0.80223(12)
H30_4 H 0.8473 0.0924 0.7756
C34_4 C 0.8957(3) 0.04378(11) 0.80818(12)
H31_4 H 0.9304 0.0314 0.7858
C35_4 C 0.8948(3) 0.02521(9) 0.84705(11)
C36_4 C 0.8444(3) 0.04382(9) 0.87905(11)
H32_4 H 0.8429 0.0311 0.9055
O10_4 O 0.0487(2) 0.32111(8) 0.08360(9)
O11_2 O 0.0254(2) 0.11959(7) 0.14607(8)
H60_4 H 0.0407 0.3667 0.0253
C74_4 C 0.0496(3) 0.25428(11) 0.10551(11)
C75_4 C 0.1581(4) 0.25602(13) 0.12189(15)
H73_4 H 0.1996 0.2796 0.1202
C76_4 C 0.2060(4) 0.22231(16) 0.14115(17)
H74_4 H 0.2810 0.2228 0.1520
C77_4 C 0.1439(4) 0.18880(13) 0.14418(15)
H75_4 H 0.1759 0.1665 0.1582
C78_4 C 0.0384(3) 0.18666(10) 0.12773(12)
O15_4 O 0.0583(2) 0.03081(7) 0.11153(9)
C88_4 C 0.0491(3) 0.01327(11) 0.14570(13)
C44_4 C 0.0546(4) 0.49360(15) 0.96349(15)
H39_4 H 0.1233 0.4808 0.9752
H40_4 H 0.0586 0.4953 0.9327
C57_3 C 0.0467(4) 0.53249(14) 0.98065(14)
H53_3 H 0.1124 0.5481 0.9740
N13_4 N 0.8957(2) 0.35156(7) 0.99763(9)
C59_4 C 0.8418(3) 0.34943(10) 0.95946(12)
H57_4 H 0.7673 0.3404 0.9578
C60_4 C 0.8886(3) 0.35966(10) 0.92279(12)
H58_4 H 0.8463 0.3578 0.8968
C61_4 C 0.9974(3) 0.37270(10) 0.92385(12)
C67_4 C 0.9967(3) 0.37737(12) 0.84651(12)
H67_4 H 0.9378 0.3572 0.8473
H68_4 H 0.9623 0.4023 0.8363
N6_4 N 0.1406(2) 0.23475(8) 0.99644(11)
C16_4 C 0.0138(3) 0.17933(10) 0.99378(12)
C17_4 C 0.0372(3) 0.21966(10) 0.98877(11)
C20_4 C 0.1631(4) 0.27565(11) 0.9892(2)
H21_4 H 0.1263 0.2827 0.9617
H24_4 H 0.2313 0.1873 0.9938
H42_4 H 0.4292 0.3380 0.9958
H46_4 H 0.3741 0.2091 0.9893
C51_4 C 0.2654(4) 0.28820(13) 0.9894(3)
H47_4 H 0.2777 0.2960 0.9602
C57_4 C 0.5467(4) 0.03249(14) 0.98065(14)
H53_4 H 0.6124 0.0481 0.9740
H54_4 H 0.4799 0.0458 0.9681
N1_4 N 0.1043(2) 0.64844(7) 0.00237(9)
C1_4 C 0.1582(3) 0.65057(10) 0.04054(12)
H1_4 H 0.2327 0.6596 0.0422
C2_4 C 0.1114(3) 0.64034(10) 0.07721(12)
H2_4 H 0.1537 0.6422 0.1032
C3_4 C 0.0026(3) 0.62730(10) 0.07615(12)
C9_4 C 0.0033(3) 0.62263(12) 0.15349(12)
H11_4 H 0.0622 0.6428 0.1527
H12_4 H 0.0377 0.5977 0.1637
H18_4 H 0.5708 0.6620 0.0042
H22_4 H 0.6259 0.7909 0.0107
C21_4 C 0.7346(4) 0.71180(13) 0.0106(3)
H23_4 H 0.7223 0.7040 0.0398
C43_3 C 0.9533(4) 0.46751(14) 0.01935(14)
H37_3 H 0.8876 0.4519 0.0260
N10_4 N 0.8594(2) 0.76525(8) 0.00356(11)
C46_4 C 0.9862(3) 0.82067(10) 0.00622(12)
C47_4 C 0.9628(3) 0.78034(10) 0.01123(11)
C50_4 C 0.8369(4) 0.72435(11) 0.0108(2)
H45_4 H 0.8737 0.7173 0.0383
H48_4 H 0.7687 0.8127 0.0062
C58_4 C 0.9454(4) 0.50640(15) 0.03651(15)
H55_4 H 0.8767 0.5192 0.0248
H56_4 H 0.9414 0.5047 0.0673
C43_4 C 0.4533(4) 0.96751(14) 0.01935(14)
H37_4 H 0.3876 0.9519 0.0260
H38_4 H 0.5201 0.9542 0.0319
O2_4 O 0.9513(2) 0.67889(8) 0.91640(9)
O3_2 O 0.9746(2) 0.88041(7) 0.85393(8)
H4_4 H 0.9593 0.6333 0.9747
C23_4 C 0.9504(3) 0.74572(11) 0.89449(11)
C24_4 C 0.8419(4) 0.74398(13) 0.87811(15)
H25_4 H 0.8004 0.7204 0.8798
C25_4 C 0.7940(4) 0.77769(16) 0.85885(17)
H26_4 H 0.7190 0.7772 0.8480
C26_4 C 0.8561(4) 0.81120(13) 0.85582(15)
H27_4 H 0.8241 0.8335 0.8418
C27_4 C 0.9616(3) 0.81334(10) 0.87227(12)
O7_4 O 0.9417(2) 0.96919(7) 0.88847(9)
C37_4 C 0.9509(3) 0.98673(11) 0.85430(13)
loop_
_geom_bond_atom_site_label_1
_geom_bond_atom_site_label_2
_geom_bond_site_symmetry_1
_geom_bond_site_symmetry_2
N3 C7 1_555 1_555
N4 C12 1_555 1_555
H3 C4 1_555 1_555
H4 C5 1_555 1_555
C6 N2 1_555 1_555
H5 C6 1_555 1_555
H6 C6 1_555 1_555
C7 C6 1_555 1_555
H7 C7 1_555 1_555
H8 C7 1_555 1_555
C8 N3 1_555 1_555
H9 C8 1_555 1_555
H10 C8 1_555 1_555
C10 N3 1_555 1_555
C11 C10 1_555 1_555
H13 C11 1_555 1_555
C12 C11 1_555 1_555
H14 C12 1_555 1_555
C13 N4 1_555 1_555
H15 C13 1_555 1_555
C14 C10 1_555 1_555
H16 C14 1_555 1_555
C23 C24 1_555 1_555
C24 H25 1_555 1_555
C25 C24 1_555 1_555
H26 C25 1_555 1_555
C26 C25 1_555 1_555
H27 C26 1_555 1_555
C27 C26 1_555 1_555
Zn8 N4 1_555 1_555
C4 C5 1_555 1_555
C13 C14 1_555 1_555
Zn1 O1 1_555 1_555
Zn2 O8 1_555 1_555
O1 C22 1_555 1_555
O4 C29 1_555 1_555
O5 Zn1 1_555 1_555
O6 C30 1_555 1_555
O7 C37 1_555 1_555
O8 C37 1_555 1_555
N1 Zn1 1_555 1_555
N5 Zn1 1_555 1_555
N6 C17 1_555 1_555
N7 Zn2 1_555 1_555
N8 C40 1_555 1_555
C1 N1 1_555 1_555
H1 C1 1_555 1_555
C2 C1 1_555 1_555
H2 C2 1_555 1_555
C3 C2 1_555 1_555
H11 C9 1_555 1_555
H12 C9 1_555 1_555
C15 N5 1_555 1_555
H17 C15 1_555 1_555
C16 C15 1_555 1_555
H18 C16 1_555 1_555
C17 C16 1_555 1_555
C18 C17 1_555 1_555
H19 C18 1_555 1_555
C19 N5 1_555 1_555
H20 C19 1_555 1_555
C20 N6 1_555 1_555
H21 C20 1_555 1_555
H22 C20 1_555 1_555
C21 N6 1_555 1_555
H23 C21 1_555 1_555
H24 C21 1_555 1_555
H28 C28 1_555 1_555
C30 O5 1_555 1_555
C31 C30 1_555 1_555
C32 C31 1_555 1_555
H29 C32 1_555 1_555
C33 C32 1_555 1_555
H30 C33 1_555 1_555
C34 C33 1_555 1_555
H31 C34 1_555 1_555
C35 C34 1_555 1_555
C36 C31 1_555 1_555
H32 C36 1_555 1_555
C37 C35 1_555 1_555
C38 N7 1_555 1_555
H33 C38 1_555 1_555
C39 C38 1_555 1_555
H34 C39 1_555 1_555
C40 C39 1_555 1_555
C41 C40 1_555 1_555
H35 C41 1_555 1_555
C42 N7 1_555 1_555
H36 C42 1_555 1_555
C43 N8 1_555 1_555
H37 C43 1_555 1_555
N10 C47 1_555 1_555
H42 C46 1_555 1_555
C47 C46 1_555 1_555
C50 C21 1_555 1_555
H45 C50 1_555 1_555
H46 C50 1_555 1_555
C51 C20 1_555 1_555
H47 C51 1_555 1_555
H48 C51 1_555 1_555
C58 C43 1_555 1_555
H55 C58 1_555 1_555
H56 C58 1_555 1_555
O17 Zn2 1_555 1_555
N18 Zn2 1_555 1_555
C18 C19 1_555 1_555
C35 C36 1_555 1_555
C41 C42 1_555 1_555
N10 C50 1_555 1_555
N10 C51 1_555 1_555
N15 C65 1_555 1_555
N18 C70 1_555 1_555
H59 C62 1_555 1_555
C64 N14 1_555 1_555
H61 C64 1_555 1_555
H62 C64 1_555 1_555
C65 C64 1_555 1_555
H63 C65 1_555 1_555
H64 C65 1_555 1_555
C66 N15 1_555 1_555
H65 C66 1_555 1_555
H66 C66 1_555 1_555
C68 N15 1_555 1_555
C69 C68 1_555 1_555
H69 C69 1_555 1_555
C70 C69 1_555 1_555
H70 C70 1_555 1_555
C71 N18 1_555 1_555
H71 C71 1_555 1_555
C72 C68 1_555 1_555
H72 C72 1_555 1_555
C62 C63 1_555 1_555
C71 C72 1_555 1_555
N9 C45 1_555 1_555
C45 H41 1_555 1_555
H43 C48 1_555 1_555
C49 N9 1_555 1_555
H44 C49 1_555 1_555
N11 C52 1_555 1_555
N12 C54 1_555 1_555
C52 H49 1_555 1_555
C53 C52 1_555 1_555
H50 C53 1_555 1_555
C54 C53 1_555 1_555
C55 C54 1_555 1_555
H51 C55 1_555 1_555
C56 N11 1_555 1_555
H52 C56 1_555 1_555
Zn3 O9 1_555 1_555
Zn8 N11 1_555 1_555
O9 C73 1_555 1_555
O12 C80 1_555 1_555
O13 Zn3 1_555 1_555
O14 C81 1_555 1_555
O15 C88 1_555 1_555
O16 Zn8 1_555 1_555
H76 C79 1_555 1_555
C81 O13 1_555 1_555
C82 C81 1_555 1_555
C83 C82 1_555 1_555
H77 C83 1_555 1_555
C84 C83 1_555 1_555
H78 C84 1_555 1_555
C85 C84 1_555 1_555
H79 C85 1_555 1_555
C86 C85 1_555 1_555
C87 C82 1_555 1_555
H80 C87 1_555 1_555
C88 O16 1_555 1_555
Zn5 N9 1_555 1_555
O18 Zn8 1_555 1_555
N19 Zn3 1_555 1_555
C48 C49 1_555 1_555
C55 C56 1_555 1_555
C86 C87 1_555 1_555
C86 C88 1_555 1_555
Zn1_2 O1_2 1_555 1_555
O1_2 C22_2 1_555 1_555
O2_2 C22_2 1_555 1_555
O17 C29_2 1_555 1_555
O4_2 C29_2 1_555 1_555
O5_2 Zn1_2 1_555 1_555
O6_2 C30_2 1_555 1_555
N1_2 Zn1_2 1_555 1_555
N2_2 C3_2 1_555 1_555
N3_2 C7_2 1_555 1_555
N4_2 C12_2 1_555 1_555
N5_2 Zn1_2 1_555 1_555
C1_2 N1_2 1_555 1_555
H1_2 C1_2 1_555 1_555
C2_2 C1_2 1_555 1_555
H2_2 C2_2 1_555 1_555
C3_2 C2_2 1_555 1_555
C4_2 C3_2 1_555 1_555
H3_2 C4_2 1_555 1_555
C5_2 N1_2 1_555 1_555
H4_2 C5_2 1_555 1_555
C6_2 N2_2 1_555 1_555
H5_2 C6_2 1_555 1_555
H6_2 C6_2 1_555 1_555
C7_2 C6_2 1_555 1_555
H7_2 C7_2 1_555 1_555
H8_2 C7_2 1_555 1_555
C8_2 N3_2 1_555 1_555
H9_2 C8_2 1_555 1_555
H10_2 C8_2 1_555 1_555
C9_2 N2_2 1_555 1_555
H11_2 C9_2 1_555 1_555
H12_2 C9_2 1_555 1_555
C10_2 N3_2 1_555 1_555
C11_2 C10_2 1_555 1_555
H13_2 C11_2 1_555 1_555
C12_2 C11_2 1_555 1_555
H14_2 C12_2 1_555 1_555
C13_2 N4_2 1_555 1_555
H15_2 C13_2 1_555 1_555
C14_2 C10_2 1_555 1_555
H16_2 C14_2 1_555 1_555
C15_2 N5_2 1_555 1_555
H17_2 C15_2 1_555 1_555
H19_2 C18_2 1_555 1_555
C19_2 N5_2 1_555 1_555
H20_2 C19_2 1_555 1_555
C22_2 C23_2 1_555 1_555
C23_2 C24_2 1_555 1_555
C24_2 H25_2 1_555 1_555
C25_2 C24_2 1_555 1_555
H26_2 C25_2 1_555 1_555
C26_2 C25_2 1_555 1_555
H27_2 C26_2 1_555 1_555
C27_2 C26_2 1_555 1_555
C28_2 C23_2 1_555 1_555
H28_2 C28_2 1_555 1_555
C29_2 C27_2 1_555 1_555
C30_2 O5_2 1_555 1_555
C31_2 C30_2 1_555 1_555
C32_2 C31_2 1_555 1_555
H29_2 C32_2 1_555 1_555
C33_2 C32_2 1_555 1_555
H30_2 C33_2 1_555 1_555
C34_2 C33_2 1_555 1_555
H31_2 C34_2 1_555 1_555
C35_2 C34_2 1_555 1_555
C36_2 C31_2 1_555 1_555
H32_2 C36_2 1_555 1_555
Zn9 N4_2 1_555 1_555
C4_2 C5_2 1_555 1_555
C8_2 C9_2 1_555 1_555
C13_2 C14_2 1_555 1_555
C18_2 C19_2 1_555 1_555
C27_2 C28_2 1_555 1_555
C35_2 C36_2 1_555 1_555
O7_2 C37_2 1_555 1_555
Zn7 O8_2 1_555 1_555
N7_2 Zn7 1_555 1_555
N8_2 C40_2 1_555 1_555
C38_2 N7_2 1_555 1_555
H33_2 C38_2 1_555 1_555
C39_2 C38_2 1_555 1_555
H34_2 C39_2 1_555 1_555
C40_2 C39_2 1_555 1_555
C41_2 C40_2 1_555 1_555
H35_2 C41_2 1_555 1_555
C42_2 N7_2 1_555 1_555
H36_2 C42_2 1_555 1_555
C43_2 N8_2 1_555 1_555
H37_2 C43_2 1_555 1_555
H38_2 C43_2 1_555 1_555
C44 N8_2 1_555 1_555
H39 C44 1_555 1_555
H40 C44 1_555 1_555
N18_2 Zn7 1_555 1_555
C41_2 C42_2 1_555 1_555
Zn5 O9_2 1_555 1_555
O9_2 C73_2 1_555 1_555
O10 C73_2 1_555 1_555
O18 C80_2 1_555 1_555
O12_2 C80_2 1_555 1_555
O13_2 Zn5 1_555 1_555
O14_2 C81_2 1_555 1_555
C73_2 C74 1_555 1_555
C74 C75 1_555 1_555
C75 H73 1_555 1_555
C76 C75 1_555 1_555
H74 C76 1_555 1_555
C77 C76 1_555 1_555
H75 C77 1_555 1_555
C78 C77 1_555 1_555
C79_2 C74 1_555 1_555
H76_2 C79_2 1_555 1_555
C80_2 C78 1_555 1_555
C81_2 O13_2 1_555 1_555
C82_2 C81_2 1_555 1_555
C83_2 C82_2 1_555 1_555
H77_2 C83_2 1_555 1_555
C84_2 C83_2 1_555 1_555
H78_2 C84_2 1_555 1_555
C85_2 C84_2 1_555 1_555
H79_2 C85_2 1_555 1_555
C86_2 C85_2 1_555 1_555
C87_2 C82_2 1_555 1_555
H80_2 C87_2 1_555 1_555
C78 C79_2 1_555 1_555
C86_2 C87_2 1_555 1_555
N14_2 C61 1_555 1_555
N15_2 C65_2 1_555 1_555
N18_2 C70_2 1_555 1_555
C59 N13 1_555 1_555
H57 C59 1_555 1_555
C60 C59 1_555 1_555
H58 C60 1_555 1_555
C61 C60 1_555 1_555
C62_2 C61 1_555 1_555
H59_2 C62_2 1_555 1_555
C63_2 N13 1_555 1_555
C64_2 N14_2 1_555 1_555
H61_2 C64_2 1_555 1_555
H62_2 C64_2 1_555 1_555
C65_2 C64_2 1_555 1_555
H63_2 C65_2 1_555 1_555
H64_2 C65_2 1_555 1_555
C66_2 N15_2 1_555 1_555
H65_2 C66_2 1_555 1_555
H66_2 C66_2 1_555 1_555
C67 N14_2 1_555 1_555
H67 C67 1_555 1_555
H68 C67 1_555 1_555
C68_2 N15_2 1_555 1_555
C69_2 C68_2 1_555 1_555
H69_2 C69_2 1_555 1_555
C70_2 C69_2 1_555 1_555
H70_2 C70_2 1_555 1_555
C71_2 N18_2 1_555 1_555
H71_2 C71_2 1_555 1_555
C72_2 C68_2 1_555 1_555
H72_2 C72_2 1_555 1_555
C62_2 C63_2 1_555 1_555
C66_2 C67 1_555 1_555
C71_2 C72_2 1_555 1_555
H23_2 C21_2 1_555 1_555
N19 C45_2 1_555 1_555
N10_2 C47_2 1_555 1_555
C45_2 H41_2 1_555 1_555
C46_2 C45_2 1_555 1_555
C47_2 C46_2 1_555 1_555
C48_2 C47_2 1_555 1_555
H43_2 C48_2 1_555 1_555
C49_2 N19 1_555 1_555
H44_2 C49_2 1_555 1_555
C50_2 C21_2 1_555 1_555
H45_2 C50_2 1_555 1_555
N11_2 C52_2 1_555 1_555
N12_2 C54_2 1_555 1_555
C52_2 H49_2 1_555 1_555
C53_2 C52_2 1_555 1_555
H50_2 C53_2 1_555 1_555
C54_2 C53_2 1_555 1_555
C55_2 C54_2 1_555 1_555
H51_2 C55_2 1_555 1_555
C56_2 N11_2 1_555 1_555
H52_2 C56_2 1_555 1_555
H55_2 C58_2 1_555 1_555
H56_2 C58_2 1_555 1_555
Zn9 N11_2 1_555 1_555
O16_2 Zn9 1_555 1_555
N10_2 C50_2 1_555 1_555
C48_2 C49_2 1_555 1_555
N12_2 C58_2 1_555 1_555
C55_2 C56_2 1_555 1_555
H39_2 C44_2 1_555 1_555
H40_2 C44_2 1_555 1_555
N9_2 C45_3 1_555 1_555
C45_3 H41_3 1_555 1_555
H43_3 C48_3 1_555 1_555
C49_3 N9_2 1_555 1_555
H44_3 C49_3 1_555 1_555
N11_3 C52_3 1_555 1_555
N12_3 C54_3 1_555 1_555
C52_3 H49_3 1_555 1_555
C53_3 C52_3 1_555 1_555
H50_3 C53_3 1_555 1_555
C54_3 C53_3 1_555 1_555
C55_3 C54_3 1_555 1_555
H51_3 C55_3 1_555 1_555
C56_3 N11_3 1_555 1_555
H52_3 C56_3 1_555 1_555
C57 C44_2 1_555 1_555
H53 C57 1_555 1_555
Zn3_2 O9_3 1_555 1_555
Zn4 N11_3 1_555 1_555
O9_3 C73_3 1_555 1_555
O12_3 C80_3 1_555 1_555
O13_3 Zn3_2 1_555 1_555
O14_3 C81_3 1_555 1_555
O15_2 C88_2 1_555 1_555
O16_3 Zn4 1_555 1_555
N13_2 Zn3_2 1_555 1_555
C59_2 N13_2 1_555 1_555
H57_2 C59_2 1_555 1_555
C60_2 C59_2 1_555 1_555
H58_2 C60_2 1_555 1_555
C61_2 C60_2 1_555 1_555
H67_2 C67_2 1_555 1_555
H68_2 C67_2 1_555 1_555
H76_3 C79_3 1_555 1_555
C81_3 O13_3 1_555 1_555
C82_3 C81_3 1_555 1_555
C83_3 C82_3 1_555 1_555
H77_3 C83_3 1_555 1_555
C84_3 C83_3 1_555 1_555
H78_3 C84_3 1_555 1_555
C85_3 C84_3 1_555 1_555
H79_3 C85_3 1_555 1_555
C86_3 C85_3 1_555 1_555
C87_3 C82_3 1_555 1_555
H80_3 C87_3 1_555 1_555
C88_2 O16_3 1_555 1_555
Zn5_2 N9_2 1_555 1_555
O18_2 Zn4 1_555 1_555
N17 Zn4 1_555 1_555
N19_2 Zn3_2 1_555 1_555
C48_3 C49_3 1_555 1_555
N12_3 C57 1_555 1_555
C55_3 C56_3 1_555 1_555
C86_3 C87_3 1_555 1_555
C86_3 C88_2 1_555 1_555
N15_3 C65_3 1_555 1_555
N16 C70_3 1_555 1_555
H59_3 C62_3 1_555 1_555
H60_2 C63_3 1_555 1_555
C64_3 N14_3 1_555 1_555
H61_3 C64_3 1_555 1_555
H62_3 C64_3 1_555 1_555
C65_3 C64_3 1_555 1_555
H63_3 C65_3 1_555 1_555
H64_3 C65_3 1_555 1_555
C66_3 N15_3 1_555 1_555
H65_3 C66_3 1_555 1_555
H66_3 C66_3 1_555 1_555
C68_3 N15_3 1_555 1_555
C69_3 C68_3 1_555 1_555
H69_3 C69_3 1_555 1_555
C70_3 C69_3 1_555 1_555
H70_3 C70_3 1_555 1_555
C71_3 N16 1_555 1_555
H71_3 C71_3 1_555 1_555
C72_3 C68_3 1_555 1_555
H72_3 C72_3 1_555 1_555
C74_2 C75_2 1_555 1_555
C75_2 H73_2 1_555 1_555
C76_2 C75_2 1_555 1_555
H74_2 C76_2 1_555 1_555
C77_2 C76_2 1_555 1_555
H75_2 C77_2 1_555 1_555
C78_2 C77_2 1_555 1_555
Zn6 N16 1_555 1_555
C62_3 C63_3 1_555 1_555
C71_3 C72_3 1_555 1_555
Zn1_3 O1_3 1_555 1_555
Zn6 O8_3 1_555 1_555
O1_3 C22_3 1_555 1_555
O4_3 C29_3 1_555 1_555
O5_3 Zn1_3 1_555 1_555
O6_3 C30_3 1_555 1_555
O7_3 C37_3 1_555 1_555
O8_3 C37_3 1_555 1_555
N5_3 Zn1_3 1_555 1_555
N6_2 C17_2 1_555 1_555
N7_3 Zn6 1_555 1_555
N8_3 C40_3 1_555 1_555
C15_3 N5_3 1_555 1_555
H17_3 C15_3 1_555 1_555
C16_2 C15_3 1_555 1_555
C17_2 C16_2 1_555 1_555
C18_3 C17_2 1_555 1_555
H19_3 C18_3 1_555 1_555
C19_3 N5_3 1_555 1_555
H20_3 C19_3 1_555 1_555
C20_2 N6_2 1_555 1_555
H21_2 C20_2 1_555 1_555
H28_3 C28_3 1_555 1_555
C30_3 O5_3 1_555 1_555
C31_3 C30_3 1_555 1_555
C32_3 C31_3 1_555 1_555
H29_3 C32_3 1_555 1_555
C33_3 C32_3 1_555 1_555
H30_3 C33_3 1_555 1_555
C34_3 C33_3 1_555 1_555
H31_3 C34_3 1_555 1_555
C35_3 C34_3 1_555 1_555
C36_3 C31_3 1_555 1_555
H32_3 C36_3 1_555 1_555
C37_3 C35_3 1_555 1_555
C38_3 N7_3 1_555 1_555
H33_3 C38_3 1_555 1_555
C39_3 C38_3 1_555 1_555
H34_3 C39_3 1_555 1_555
C40_3 C39_3 1_555 1_555
C41_3 C40_3 1_555 1_555
H35_3 C41_3 1_555 1_555
C42_3 N7_3 1_555 1_555
H36_3 C42_3 1_555 1_555
C51_2 C20_2 1_555 1_555
H47_2 C51_2 1_555 1_555
O17_2 Zn6 1_555 1_555
C18_3 C19_3 1_555 1_555
C35_3 C36_3 1_555 1_555
C41_3 C42_3 1_555 1_555
N3_3 C7_3 1_555 1_555
N17 C12_3 1_555 1_555
H3_3 C4_3 1_555 1_555
C6_3 N2_3 1_555 1_555
H5_3 C6_3 1_555 1_555
H6_3 C6_3 1_555 1_555
C7_3 C6_3 1_555 1_555
H7_3 C7_3 1_555 1_555
H8_3 C7_3 1_555 1_555
C8_3 N3_3 1_555 1_555
H9_3 C8_3 1_555 1_555
H10_3 C8_3 1_555 1_555
C10_3 N3_3 1_555 1_555
C11_3 C10_3 1_555 1_555
H13_3 C11_3 1_555 1_555
C12_3 C11_3 1_555 1_555
H14_3 C12_3 1_555 1_555
C13_3 N17 1_555 1_555
H15_3 C13_3 1_555 1_555
C14_3 C10_3 1_555 1_555
H16_3 C14_3 1_555 1_555
C4_3 C5_3 1_555 1_555
C13_3 C14_3 1_555 1_555
N6_3 C17_3 1_555 1_555
H18_3 C16_3 1_555 1_555
C17_3 C16_3 1_555 1_555
C20_3 N6_3 1_555 1_555
H21_3 C20_3 1_555 1_555
H22_3 C20_3 1_555 1_555
C21_3 N6_3 1_555 1_555
H23_3 C21_3 1_555 1_555
H24_3 C21_3 1_555 1_555
N19_2 C45_4 1_555 1_555
N10_3 C47_3 1_555 1_555
C45_4 H41_4 1_555 1_555
C46_3 C45_4 1_555 1_555
H42_3 C46_3 1_555 1_555
C47_3 C46_3 1_555 1_555
C48_4 C47_3 1_555 1_555
H43_4 C48_4 1_555 1_555
C49_4 N19_2 1_555 1_555
H44_4 C49_4 1_555 1_555
C50_3 C21_3 1_555 1_555
H45_3 C50_3 1_555 1_555
H46_3 C50_3 1_555 1_555
C51_3 C20_3 1_555 1_555
H47_3 C51_3 1_555 1_555
H48_3 C51_3 1_555 1_555
N11_4 C52_4 1_555 1_555
N12_4 C54_4 1_555 1_555
C52_4 H49_4 1_555 1_555
C53_4 C52_4 1_555 1_555
H50_4 C53_4 1_555 1_555
C54_4 C53_4 1_555 1_555
C55_4 C54_4 1_555 1_555
H51_4 C55_4 1_555 1_555
C56_4 N11_4 1_555 1_555
H52_4 C56_4 1_555 1_555
H53_2 C57_2 1_555 1_555
H54_3 C57_2 1_555 1_555
H55_3 C58_3 1_555 1_555
H56_3 C58_3 1_555 1_555
Zn9_2 N11_4 1_555 1_555
O16_4 Zn9_2 1_555 1_555
N17_2 Zn9_2 1_555 1_555
N10_3 C50_3 1_555 1_555
N10_3 C51_3 1_555 1_555
C48_4 C49_4 1_555 1_555
N12_4 C57_2 1_555 1_555
N12_4 C58_3 1_555 1_555
C55_4 C56_4 1_555 1_555
O15_3 C88_3 1_555 1_555
Zn5_2 O9_4 1_555 1_555
O9_4 C73_4 1_555 1_555
O10_3 C73_4 1_555 1_555
O18_2 C80_4 1_555 1_555
O12_4 C80_4 1_555 1_555
O13_4 Zn5_2 1_555 1_555
O14_4 C81_4 1_555 1_555
N13_3 Zn5_2 1_555 1_555
N14_4 C61_3 1_555 1_555
N15_4 C65_4 1_555 1_555
N16_2 C70_4 1_555 1_555
C59_3 N13_3 1_555 1_555
H57_3 C59_3 1_555 1_555
C60_3 C59_3 1_555 1_555
H58_3 C60_3 1_555 1_555
C61_3 C60_3 1_555 1_555
C62_4 C61_3 1_555 1_555
H59_4 C62_4 1_555 1_555
C63_4 N13_3 1_555 1_555
H60_3 C63_4 1_555 1_555
C64_4 N14_4 1_555 1_555
H61_4 C64_4 1_555 1_555
H62_4 C64_4 1_555 1_555
C65_4 C64_4 1_555 1_555
H63_4 C65_4 1_555 1_555
H64_4 C65_4 1_555 1_555
C66_4 N15_4 1_555 1_555
H65_4 C66_4 1_555 1_555
H66_4 C66_4 1_555 1_555
C67_3 N14_4 1_555 1_555
H67_3 C67_3 1_555 1_555
H68_3 C67_3 1_555 1_555
C68_4 N15_4 1_555 1_555
C69_4 C68_4 1_555 1_555
H69_4 C69_4 1_555 1_555
C70_4 C69_4 1_555 1_555
H70_4 C70_4 1_555 1_555
C71_4 N16_2 1_555 1_555
H71_4 C71_4 1_555 1_555
C72_4 C68_4 1_555 1_555
H72_4 C72_4 1_555 1_555
C73_4 C74_3 1_555 1_555
C74_3 C75_3 1_555 1_555
C75_3 H73_3 1_555 1_555
C76_3 C75_3 1_555 1_555
H74_3 C76_3 1_555 1_555
C77_3 C76_3 1_555 1_555
H75_3 C77_3 1_555 1_555
C78_3 C77_3 1_555 1_555
C79_4 C74_3 1_555 1_555
H76_4 C79_4 1_555 1_555
C80_4 C78_3 1_555 1_555
C81_4 O13_4 1_555 1_555
C82_4 C81_4 1_555 1_555
C83_4 C82_4 1_555 1_555
H77_4 C83_4 1_555 1_555
C84_4 C83_4 1_555 1_555
H78_4 C84_4 1_555 1_555
C85_4 C84_4 1_555 1_555
H79_4 C85_4 1_555 1_555
C86_4 C85_4 1_555 1_555
C87_4 C82_4 1_555 1_555
H80_4 C87_4 1_555 1_555
Zn7_2 N16_2 1_555 1_555
C62_4 C63_4 1_555 1_555
C66_4 C67_3 1_555 1_555
C71_4 C72_4 1_555 1_555
C78_3 C79_4 1_555 1_555
C86_4 C87_4 1_555 1_555
Zn7_2 O8_4 1_555 1_555
N7_4 Zn7_2 1_555 1_555
N8_4 C40_4 1_555 1_555
C38_4 N7_4 1_555 1_555
H33_4 C38_4 1_555 1_555
C39_4 C38_4 1_555 1_555
H34_4 C39_4 1_555 1_555
C40_4 C39_4 1_555 1_555
C41_4 C40_4 1_555 1_555
H35_4 C41_4 1_555 1_555
C42_4 N7_4 1_555 1_555
H36_4 C42_4 1_555 1_555
C44_3 N8_4 1_555 1_555
H39_3 C44_3 1_555 1_555
H40_3 C44_3 1_555 1_555
C41_4 C42_4 1_555 1_555
N2_4 C3_3 1_555 1_555
N3_4 C7_4 1_555 1_555
N17_2 C12_4 1_555 1_555
C1_3 N1_3 1_555 1_555
H1_3 C1_3 1_555 1_555
C2_3 C1_3 1_555 1_555
H2_3 C2_3 1_555 1_555
C3_3 C2_3 1_555 1_555
C4_4 C3_3 1_555 1_555
H3_4 C4_4 1_555 1_555
C5_4 N1_3 1_555 1_555
C6_4 N2_4 1_555 1_555
H5_4 C6_4 1_555 1_555
H6_4 C6_4 1_555 1_555
C7_4 C6_4 1_555 1_555
H7_4 C7_4 1_555 1_555
H8_4 C7_4 1_555 1_555
C8_4 N3_4 1_555 1_555
H9_4 C8_4 1_555 1_555
H10_4 C8_4 1_555 1_555
C9_3 N2_4 1_555 1_555
H11_3 C9_3 1_555 1_555
H12_3 C9_3 1_555 1_555
C10_4 N3_4 1_555 1_555
C11_4 C10_4 1_555 1_555
H13_4 C11_4 1_555 1_555
C12_4 C11_4 1_555 1_555
H14_4 C12_4 1_555 1_555
C13_4 N17_2 1_555 1_555
H15_4 C13_4 1_555 1_555
C14_4 C10_4 1_555 1_555
H16_4 C14_4 1_555 1_555
C4_4 C5_4 1_555 1_555
C8_4 C9_3 1_555 1_555
C13_4 C14_4 1_555 1_555
Zn1_4 O1_4 1_555 1_555
O1_4 C22_4 1_555 1_555
O2_3 C22_4 1_555 1_555
O17_2 C29_4 1_555 1_555
O4_4 C29_4 1_555 1_555
O5_4 Zn1_4 1_555 1_555
O6_4 C30_4 1_555 1_555
N5_4 Zn1_4 1_555 1_555
C15_4 N5_4 1_555 1_555
H17_4 C15_4 1_555 1_555
H19_4 C18_4 1_555 1_555
C19_4 N5_4 1_555 1_555
H20_4 C19_4 1_555 1_555
C22_4 C23_3 1_555 1_555
C23_3 C24_3 1_555 1_555
C24_3 H25_3 1_555 1_555
C25_3 C24_3 1_555 1_555
H26_3 C25_3 1_555 1_555
C26_3 C25_3 1_555 1_555
H27_3 C26_3 1_555 1_555
C27_3 C26_3 1_555 1_555
C28_4 C23_3 1_555 1_555
H28_4 C28_4 1_555 1_555
C29_4 C27_3 1_555 1_555
C30_4 O5_4 1_555 1_555
C31_4 C30_4 1_555 1_555
C32_4 C31_4 1_555 1_555
H29_4 C32_4 1_555 1_555
C33_4 C32_4 1_555 1_555
H30_4 C33_4 1_555 1_555
C34_4 C33_4 1_555 1_555
H31_4 C34_4 1_555 1_555
C35_4 C34_4 1_555 1_555
C36_4 C31_4 1_555 1_555
H32_4 C36_4 1_555 1_555
C18_4 C19_4 1_555 1_555
C27_3 C28_4 1_555 1_555
C35_4 C36_4 1_555 1_555
C74_4 C75_4 1_555 1_555
C75_4 H73_4 1_555 1_555
C76_4 C75_4 1_555 1_555
H74_4 C76_4 1_555 1_555
C77_4 C76_4 1_555 1_555
H75_4 C77_4 1_555 1_555
C78_4 C77_4 1_555 1_555
O15_4 C88_4 1_555 1_555
H39_4 C44_4 1_555 1_555
H40_4 C44_4 1_555 1_555
C57_3 C44_4 1_555 1_555
H53_3 C57_3 1_555 1_555
C59_4 N13_4 1_555 1_555
H57_4 C59_4 1_555 1_555
C60_4 C59_4 1_555 1_555
H58_4 C60_4 1_555 1_555
C61_4 C60_4 1_555 1_555
H67_4 C67_4 1_555 1_555
H68_4 C67_4 1_555 1_555
N6_4 C17_4 1_555 1_555
C17_4 C16_4 1_555 1_555
C20_4 N6_4 1_555 1_555
H21_4 C20_4 1_555 1_555
C51_4 C20_4 1_555 1_555
H47_4 C51_4 1_555 1_555
H53_4 C57_4 1_555 1_555
H54_4 C57_4 1_555 1_555
C1_4 N1_4 1_555 1_555
H1_4 C1_4 1_555 1_555
C2_4 C1_4 1_555 1_555
H2_4 C2_4 1_555 1_555
C3_4 C2_4 1_555 1_555
H11_4 C9_4 1_555 1_555
H12_4 C9_4 1_555 1_555
H23_4 C21_4 1_555 1_555
H37_3 C43_3 1_555 1_555
N10_4 C47_4 1_555 1_555
C47_4 C46_4 1_555 1_555
C50_4 C21_4 1_555 1_555
H45_4 C50_4 1_555 1_555
C58_4 C43_3 1_555 1_555
H55_4 C58_4 1_555 1_555
H56_4 C58_4 1_555 1_555
N10_4 C50_4 1_555 1_555
H37_4 C43_4 1_555 1_555
H38_4 C43_4 1_555 1_555
C23_4 C24_4 1_555 1_555
C24_4 H25_4 1_555 1_555
C25_4 C24_4 1_555 1_555
H26_4 C25_4 1_555 1_555
C26_4 C25_4 1_555 1_555
H27_4 C26_4 1_555 1_555
C27_4 C26_4 1_555 1_555
O7_4 C37_4 1_555 1_555

#END
