
###############################################################################
#
# This file contains modified crystal structure data generated from the
# MOF subset of the Cambridge Structural Database (CSD) v543 
# hosted by the Cambridge Crystallographic Data Centre (CCDC).
#
# This work is licensed under the Creative Commons
# Attribution-NonCommercial-ShareAlike 4.0 International License.
# To view a copy of this license, visit
# http://creativecommons.org/licenses/by-nc-sa/4.0/
# or send a letter to
# Creative Commons, PO Box 1866, Mountain View, CA 94042, USA.
#
# CIF created using the CSD Python API on 29 September 2022
# The structure has been converted into the P1 space group
# The structure has a 3D framework
# The original CSD entry TACPOD is in the tetragonal crystal system
# The original CSD entry TACPOD is in a Sohncke space group
# The framework has been calculated to contain at least 10.0% void space
# The void calculation uses a probe of radius 1.32A, grid spacing 0.4
# H atom positions have been added when not included in the experimental data
#
###############################################################################

data_TACPOD
_chemical_formula_moiety         '(C48 H48 O62 Zn9)n'
_symmetry_cell_setting           triclinic
_symmetry_space_group_name_H-M   'P 1'
_symmetry_Int_Tables_number      1
_space_group_name_Hall           'P 1'
loop_
_symmetry_equiv_pos_site_id
_symmetry_equiv_pos_as_xyz
1 x,y,z
_cell_length_a                   19.1245(8)
_cell_length_b                   19.1245(8)
_cell_length_c                   5.7338(5)
_cell_angle_alpha                90
_cell_angle_beta                 90
_cell_angle_gamma                90
_cell_volume                     2097.12
loop_
_atom_site_label
_atom_site_type_symbol
_atom_site_fract_x
_atom_site_fract_y
_atom_site_fract_z
Zn2 Zn 0.22113(10) 0.77887(10) 0.2500
O1 O 0.3162(8) 0.7566(8) 0.064(3)
O2 O 0.4081(8) 0.7881(8) 0.260(3)
O8 O 0.5774(13) 0.7723(14) 0.022(5)
C1 C 0.3770(12) 0.7595(12) 0.095(4)
H2 H 0.5036 0.6949 0.0327
O14 O 0.2695(8) 0.3841(8) 0.078(2)
O19 O 0.2434(8) 0.6838(8) 0.436(3)
O20 O 0.2305(8) 0.8841(8) 0.172(2)
O21 O 0.1159(8) 0.7695(8) 0.328(2)
O22 O 0.2569(7) 0.8182(7) 0.559(2)
Zn4 Zn 0.77028(11) 0.77028(11) 0.0000
Zn6 Zn 0.27887(10) 0.27887(10) 0.0000
Zn1 Zn 0.27028(11) 0.72972(11) 0.7500
O3 O 0.3782(11) 0.7346(14) 0.682(3)
O4 O 0.4445(10) 0.6266(10) 0.929(4)
O5 O 0.5726(12) 0.6261(12) 0.728(4)
O6 O 0.6159(8) 0.7305(8) 0.422(2)
O7 O 0.6818(7) 0.7569(7) 0.809(2)
C2 C 0.4303(13) 0.7536(14) 0.867(5)
H1 H 0.4573 0.7961 0.8349
C3 C 0.4745(17) 0.6869(16) 0.895(6)
C4 C 0.5267(13) 0.6859(14) 0.682(5)
H3 H 0.4992 0.6743 0.5433
C5 C 0.5767(12) 0.7488(13) 0.613(4)
H4 H 0.5470 0.7884 0.5686
C6 C 0.6163(12) 0.7695(14) 0.830(3)
O10 O 0.2119(8) 0.5919(8) 0.240(3)
O11 O 0.2654(14) 0.6218(11) 0.818(3)
O12 O 0.3734(10) 0.5555(10) 0.571(4)
O13 O 0.3739(12) 0.4274(12) 0.772(4)
O15 O 0.2431(7) 0.3182(7) 0.691(2)
O16 O 0.2277(14) 0.4226(13) 0.478(5)
C7 C 0.2405(12) 0.6230(12) 0.405(4)
C8 C 0.2464(14) 0.5697(13) 0.633(5)
H5 H 0.2039 0.5427 0.6651
C9 C 0.3131(16) 0.5255(17) 0.605(6)
H6 H 0.3051 0.4964 0.4673
C10 C 0.3141(14) 0.4733(13) 0.818(5)
H7 H 0.3257 0.5008 0.9567
C11 C 0.2512(13) 0.4233(12) 0.887(4)
H8 H 0.2116 0.4530 0.9314
C12 C 0.2305(14) 0.3837(12) 0.670(3)
O18 O 0.1818(7) 0.7431(7) 0.941(2)
Zn3 Zn 0.72113(10) 0.72113(10) 0.5000
Zn4_2 Zn 0.77028(11) 0.77028(11) 1.0000
Zn6_2 Zn 0.27887(10) 0.27887(10) 1.0000
Zn7 Zn 0.22972(11) 0.22972(11) 0.5000
H9 H 0.544203 0.582703 0.736392
H10 H 0.413361 0.61576 0.795215
H11 H 0.38424 0.586639 0.704785
H12 H 0.417297 0.455797 0.763608
O22_2 O 0.7431(7) 0.1818(7) 0.059(2)
Zn1_2 Zn 0.72972(11) 0.27028(11) 0.2500
Zn2_2 Zn 0.77887(10) 0.22113(10) 0.7500
O1_2 O 0.6838(8) 0.2434(8) 0.564(3)
O2_2 O 0.5919(8) 0.2119(8) 0.760(3)
O3_2 O 0.6218(11) 0.2654(14) 0.182(3)
O4_2 O 0.5555(10) 0.3734(10) 0.429(4)
O5_2 O 0.4274(12) 0.3739(12) 0.228(4)
O7_2 O 0.3182(7) 0.2431(7) 0.309(2)
O8_2 O 0.4226(13) 0.2277(14) 0.522(5)
C1_2 C 0.6230(12) 0.2405(12) 0.595(4)
C2_2 C 0.5697(13) 0.2464(14) 0.367(5)
H1_2 H 0.5427 0.2039 0.3349
C3_2 C 0.5255(17) 0.3131(16) 0.395(6)
H2_2 H 0.4964 0.3051 0.5327
C4_2 C 0.4733(13) 0.3141(14) 0.182(5)
H3_2 H 0.5008 0.3257 0.0433
C5_2 C 0.4233(12) 0.2512(13) 0.113(4)
H4_2 H 0.4530 0.2116 0.0686
C6_2 C 0.3837(12) 0.2305(14) 0.330(3)
O11_2 O 0.7346(14) 0.3782(11) 0.318(3)
O12_2 O 0.6266(10) 0.4445(10) 0.071(4)
O13_2 O 0.6261(12) 0.5726(12) 0.272(4)
O14_2 O 0.7305(8) 0.6159(8) 0.578(2)
O15_2 O 0.7569(7) 0.6818(7) 0.191(2)
C8_2 C 0.7536(14) 0.4303(13) 0.133(5)
H5_2 H 0.7961 0.4573 0.1651
C9_2 C 0.6869(16) 0.4745(17) 0.105(6)
C10_2 C 0.6859(14) 0.5267(13) 0.318(5)
H7_2 H 0.6743 0.4992 0.4567
C11_2 C 0.7488(13) 0.5767(12) 0.387(4)
H8_2 H 0.7884 0.5470 0.4314
C12_2 C 0.7695(14) 0.6163(12) 0.170(3)
O18_2 O 0.8182(7) 0.2569(7) 0.441(2)
O19_2 O 0.7566(8) 0.3162(8) 0.936(3)
O20_2 O 0.7695(8) 0.1159(8) 0.672(2)
O21_2 O 0.8841(8) 0.2305(8) 0.828(2)
H9_2 H 0.455797 0.417297 0.236392
H10_2 H 0.586639 0.38424 0.295215
H11_2 H 0.61576 0.413361 0.204785
H12_2 H 0.582703 0.544203 0.263608
O6_2 O 0.3841(8) 0.2695(8) 0.922(2)
O10_2 O 0.7881(8) 0.4081(8) 0.740(3)
O16_2 O 0.7723(14) 0.5774(13) 0.978(5)
C7_2 C 0.7595(12) 0.3770(12) 0.905(4)
H6_2 H 0.6949 0.5036 0.9673
O13_3 O 0.0726(12) 0.8739(12) 0.022(4)
C10_3 C 0.0267(13) 0.8141(14) 0.068(5)
C11_3 C 0.0767(12) 0.7512(13) 0.137(4)
H8_3 H 0.0470 0.7116 0.1814
H12_3 H 0.0442029 0.917297 0.0136082
O16_3 O 0.0774(13) 0.7277(14) 0.728(5)
H6_3 H 0.0036 0.8051 0.7173
C12_3 C 0.1163(12) 0.7305(14) 0.920(3)
O8_3 O 0.7277(14) 0.0774(13) 0.272(5)
H2_3 H 0.8051 0.0036 0.2827
C6_3 C 0.7305(14) 0.1163(12) 0.080(3)
O5_3 O 0.8739(12) 0.0726(12) 0.978(4)
C4_3 C 0.8141(14) 0.0267(13) 0.932(5)
C5_3 C 0.7512(13) 0.0767(12) 0.863(4)
H4_3 H 0.7116 0.0470 0.8186
H9_3 H 0.917297 0.0442029 0.986392
O1_3 O 0.7434(8) 0.8162(8) 0.314(3)
O2_3 O 0.7119(8) 0.9081(8) 0.510(3)
O4_3 O 0.8734(10) 0.9445(10) 0.179(4)
C1_3 C 0.7405(12) 0.8770(12) 0.345(4)
C2_3 C 0.7464(14) 0.9303(13) 0.117(5)
H1_3 H 0.7039 0.9573 0.0849
C3_3 C 0.8131(16) 0.9745(17) 0.145(6)
O11_3 O 0.8782(11) 0.7654(14) 0.068(3)
H7_3 H 0.9992 0.8257 0.2067
O19_3 O 0.8162(8) 0.7434(8) 0.686(3)
H10_3 H 0.88424 0.913361 0.0452153
O3_3 O 0.7654(14) 0.8782(11) 0.932(3)
H3_3 H 0.8257 0.9992 0.7933
O10_3 O 0.9081(8) 0.7119(8) 0.490(3)
O12_3 O 0.9445(10) 0.8734(10) 0.821(4)
C7_3 C 0.8770(12) 0.7405(12) 0.655(4)
C8_3 C 0.9303(13) 0.7464(14) 0.883(5)
H5_3 H 0.9573 0.7039 0.9151
C9_3 C 0.9745(17) 0.8131(16) 0.855(6)
H11_3 H 0.913361 0.88424 0.954785
O2_4 O 0.2881(8) 0.0919(8) 0.010(3)
O19_4 O 0.1838(8) 0.2566(8) 0.186(3)
O1_4 O 0.2566(8) 0.1838(8) 0.814(3)
O3_4 O 0.2346(14) 0.1218(11) 0.432(3)
O4_4 O 0.1266(10) 0.0555(10) 0.679(4)
C1_4 C 0.2595(12) 0.1230(12) 0.845(4)
C2_4 C 0.2536(14) 0.0697(13) 0.617(5)
H1_4 H 0.2961 0.0427 0.5849
C3_4 C 0.1869(16) 0.0255(17) 0.645(6)
H3_4 H 0.1743 0.0008 0.2933
O11_4 O 0.1218(11) 0.2346(14) 0.568(3)
O12_4 O 0.0555(10) 0.1266(10) 0.321(4)
C7_4 C 0.1230(12) 0.2595(12) 0.155(4)
C8_4 C 0.0697(13) 0.2536(14) 0.383(5)
H5_4 H 0.0427 0.2961 0.4151
C9_4 C 0.0255(17) 0.1869(16) 0.355(6)
H7_4 H 0.0008 0.1743 0.7067
H10_4 H 0.11576 0.0866387 0.545215
H11_4 H 0.0866387 0.11576 0.454785
O10_4 O 0.0919(8) 0.2881(8) 0.990(3)
O5_4 O 0.1261(12) 0.9274(12) 0.478(4)
O8_4 O 0.2723(14) 0.9226(13) 0.772(5)
H2_4 H 0.1949 0.9964 0.7827
C4_4 C 0.1859(14) 0.9733(13) 0.432(5)
C5_4 C 0.2488(13) 0.9233(12) 0.363(4)
H4_4 H 0.2884 0.9530 0.3186
C6_4 C 0.2695(14) 0.8837(12) 0.580(3)
H9_4 H 0.0827034 0.955797 0.486392
O13_4 O 0.9274(12) 0.1261(12) 0.522(4)
O16_4 O 0.9226(13) 0.2723(14) 0.228(5)
H6_4 H 0.9964 0.1949 0.2173
C10_4 C 0.9733(13) 0.1859(14) 0.568(5)
C11_4 C 0.9233(12) 0.2488(13) 0.637(4)
H8_4 H 0.9530 0.2884 0.6814
C12_4 C 0.8837(12) 0.2695(14) 0.420(3)
H12_4 H 0.955797 0.0827034 0.513608
loop_
_geom_bond_atom_site_label_1
_geom_bond_atom_site_label_2
_geom_bond_site_symmetry_1
_geom_bond_site_symmetry_2
Zn2 O1 1_555 1_555
O1 C1 1_555 1_555
O2 C1 1_555 1_555
O19 Zn2 1_555 1_555
O20 Zn2 1_555 1_555
O21 Zn2 1_555 1_555
O22 Zn2 1_555 1_555
Zn6 O14 1_555 1_555
O3 Zn1 1_555 1_555
O4 C3 1_555 1_555
O5 C4 1_555 1_555
O6 C5 1_555 1_555
O7 C6 1_555 1_555
C2 O3 1_555 1_555
H1 C2 1_555 1_555
C3 C2 1_555 1_555
C4 C3 1_555 1_555
H3 C4 1_555 1_555
C5 C4 1_555 1_555
H4 C5 1_555 1_555
C6 C5 1_555 1_555
O19 Zn1 1_555 1_555
O10 C7 1_555 1_555
O11 Zn1 1_555 1_555
O12 C9 1_555 1_555
O13 C10 1_555 1_555
O15 C12 1_555 1_555
O16 C12 1_555 1_555
C7 O19 1_555 1_555
C8 O11 1_555 1_555
H5 C8 1_555 1_555
C9 C8 1_555 1_555
H6 C9 1_555 1_555
C10 C9 1_555 1_555
H7 C10 1_555 1_555
C11 C10 1_555 1_555
H8 C11 1_555 1_555
C12 C11 1_555 1_555
O22 Zn1 1_555 1_555
O18 Zn1 1_555 1_555
Zn3 O6 1_555 1_555
Zn4_2 O7 1_555 1_555
Zn7 O15 1_555 1_555
O7 Zn3 1_555 1_555
O15 Zn6_2 1_555 1_555
C7 C8 1_555 1_555
O5 H9 1_555 1_555
O4 H10 1_555 1_555
O12 H11 1_555 1_555
O13 H12 1_555 1_555
Zn1_2 O1_2 1_555 1_555
Zn2_2 O1_2 1_555 1_555
O1_2 C1_2 1_555 1_555
O2_2 C1_2 1_555 1_555
O3_2 Zn1_2 1_555 1_555
O4_2 C3_2 1_555 1_555
O5_2 C4_2 1_555 1_555
O7_2 C6_2 1_555 1_555
O8_2 C6_2 1_555 1_555
C1_2 C2_2 1_555 1_555
C2_2 O3_2 1_555 1_555
H1_2 C2_2 1_555 1_555
C3_2 C2_2 1_555 1_555
H2_2 C3_2 1_555 1_555
C4_2 C3_2 1_555 1_555
H3_2 C4_2 1_555 1_555
C5_2 C4_2 1_555 1_555
H4_2 C5_2 1_555 1_555
C6_2 C5_2 1_555 1_555
O11_2 Zn1_2 1_555 1_555
O12_2 C9_2 1_555 1_555
O13_2 C10_2 1_555 1_555
O14_2 C11_2 1_555 1_555
O15_2 C12_2 1_555 1_555
C8_2 O11_2 1_555 1_555
H5_2 C8_2 1_555 1_555
C9_2 C8_2 1_555 1_555
C10_2 C9_2 1_555 1_555
H7_2 C10_2 1_555 1_555
C11_2 C10_2 1_555 1_555
H8_2 C11_2 1_555 1_555
C12_2 C11_2 1_555 1_555
O22_2 Zn1_2 1_555 1_555
O18_2 Zn1_2 1_555 1_555
O19_2 Zn2_2 1_555 1_555
O20_2 Zn2_2 1_555 1_555
O21_2 Zn2_2 1_555 1_555
Zn7 O7_2 1_555 1_555
Zn3 O14_2 1_555 1_555
Zn4 O15_2 1_555 1_555
Zn2_2 O18_2 1_555 1_555
O7_2 Zn6 1_555 1_555
O15_2 Zn3 1_555 1_555
O5_2 H9_2 1_555 1_555
O4_2 H10_2 1_555 1_555
O12_2 H11_2 1_555 1_555
O13_2 H12_2 1_555 1_555
O10_2 C7_2 1_555 1_555
C7_2 O19_2 1_555 1_555
Zn6_2 O6_2 1_555 1_555
O13_3 C10_3 1_555 1_555
O21 C11_3 1_555 1_555
C11_3 C10_3 1_555 1_555
H8_3 C11_3 1_555 1_555
O13_3 H12_3 1_555 1_555
O18 C12_3 1_555 1_555
O16_3 C12_3 1_555 1_555
O22_2 C6_3 1_555 1_555
O8_3 C6_3 1_555 1_555
O5_3 C4_3 1_555 1_555
O20_2 C5_3 1_555 1_555
C5_3 C4_3 1_555 1_555
H4_3 C5_3 1_555 1_555
O5_3 H9_3 1_555 1_555
Zn4 O1_3 1_555 1_555
Zn3 O1_3 1_555 1_555
O1_3 C1_3 1_555 1_555
O2_3 C1_3 1_555 1_555
O4_3 C3_3 1_555 1_555
C1_3 C2_3 1_555 1_555
H1_3 C2_3 1_555 1_555
C3_3 C2_3 1_555 1_555
O11_3 Zn4 1_555 1_555
O19_3 Zn3 1_555 1_555
O4_3 H10_3 1_555 1_555
O3_3 Zn4_2 1_555 1_555
O19_3 Zn4_2 1_555 1_555
O10_3 C7_3 1_555 1_555
O12_3 C9_3 1_555 1_555
C7_3 O19_3 1_555 1_555
H5_3 C8_3 1_555 1_555
C9_3 C8_3 1_555 1_555
C7_3 C8_3 1_555 1_555
O12_3 H11_3 1_555 1_555
O19_4 Zn6 1_555 1_555
Zn7 O1_4 1_555 1_555
Zn6_2 O1_4 1_555 1_555
O1_4 C1_4 1_555 1_555
O3_4 Zn7 1_555 1_555
O4_4 C3_4 1_555 1_555
C1_4 C2_4 1_555 1_555
C2_4 O3_4 1_555 1_555
H1_4 C2_4 1_555 1_555
C3_4 C2_4 1_555 1_555
O19_4 Zn7 1_555 1_555
O11_4 Zn7 1_555 1_555
O12_4 C9_4 1_555 1_555
C7_4 O19_4 1_555 1_555
C8_4 O11_4 1_555 1_555
H5_4 C8_4 1_555 1_555
C9_4 C8_4 1_555 1_555
C7_4 C8_4 1_555 1_555
O4_4 H10_4 1_555 1_555
O12_4 H11_4 1_555 1_555
O5_4 C4_4 1_555 1_555
O20 C5_4 1_555 1_555
O22 C6_4 1_555 1_555
O8_4 C6_4 1_555 1_555
C5_4 C4_4 1_555 1_555
H4_4 C5_4 1_555 1_555
C6_4 C5_4 1_555 1_555
O5_4 H9_4 1_555 1_555
O13_4 C10_4 1_555 1_555
O21_2 C11_4 1_555 1_555
O18_2 C12_4 1_555 1_555
O16_4 C12_4 1_555 1_555
C11_4 C10_4 1_555 1_555
H8_4 C11_4 1_555 1_555
C12_4 C11_4 1_555 1_555
O13_4 H12_4 1_555 1_555

#END
