
###############################################################################
#
# This file contains modified crystal structure data generated from the
# MOF subset of the Cambridge Structural Database (CSD) v543 
# hosted by the Cambridge Crystallographic Data Centre (CCDC).
#
# This work is licensed under the Creative Commons
# Attribution-NonCommercial-ShareAlike 4.0 International License.
# To view a copy of this license, visit
# http://creativecommons.org/licenses/by-nc-sa/4.0/
# or send a letter to
# Creative Commons, PO Box 1866, Mountain View, CA 94042, USA.
#
# CIF created using the CSD Python API on 29 September 2022
# The structure has been converted into the P1 space group
# The structure has a 3D framework
# The original CSD entry TACPET is in the tetragonal crystal system
# The original CSD entry TACPET is in a Sohncke space group
# The framework has been calculated to contain at least 10.0% void space
# The void calculation uses a probe of radius 1.32A, grid spacing 0.4
# H atom positions have been added when not included in the experimental data
#
###############################################################################

data_TACPET
_chemical_formula_moiety         '(C48 H70 O62 Zn9)n'
_symmetry_cell_setting           triclinic
_symmetry_space_group_name_H-M   'P 1'
_symmetry_Int_Tables_number      1
_space_group_name_Hall           'P 1'
loop_
_symmetry_equiv_pos_site_id
_symmetry_equiv_pos_as_xyz
1 x,y,z
_cell_length_a                   18.9545(6)
_cell_length_b                   18.9545(6)
_cell_length_c                   5.7911(3)
_cell_angle_alpha                90
_cell_angle_beta                 90
_cell_angle_gamma                90
_cell_volume                     2080.59
loop_
_atom_site_label
_atom_site_type_symbol
_atom_site_fract_x
_atom_site_fract_y
_atom_site_fract_z
Zn2 Zn 0.22180(7) 0.77820(7) 0.2500
O1 O 0.3163(5) 0.7578(5) 0.0635(15)
O2 O 0.4128(5) 0.7699(6) 0.2628(17)
C1 C 0.3809(8) 0.7590(7) 0.088(2)
H2 H 0.5063 0.6969 0.0212
O8 O 0.5870(5) 0.7889(6) 0.0088(19)
O14 O 0.2716(5) 0.3867(4) 0.0745(14)
H10 H 0.253(8) 0.395(8) 0.202(19)
O18 O 0.1133(4) 0.7716(5) 0.3245(14)
H13 H 0.105(8) 0.753(8) 0.452(19)
Zn3 Zn 0.77031(7) 0.77031(7) 0.0000
Zn7 Zn 0.27820(7) 0.27820(7) 0.0000
O20 O 0.2422(5) 0.6837(5) 0.4365(15)
O21 O 0.2284(5) 0.8867(4) 0.1755(14)
H14 H 0.247(8) 0.895(8) 0.048(19)
O22 O 0.2519(5) 0.8178(5) 0.5553(14)
H15 H 0.409004 0.629788 0.0675756
H19 H 0.0901124 0.743128 0.202199
H20 H 0.256872 0.909888 0.297801
Zn1 Zn 0.27031(7) 0.72969(7) 0.7500
O3 O 0.3763(5) 0.7345(5) 0.6787(17)
H1 H 0.398(7) 0.752(8) 0.581(16)
C2 C 0.4761(7) 0.6880(6) 0.887(2)
O4 O 0.4383(5) 0.6247(5) 0.9264(17)
O5 O 0.5694(5) 0.6219(5) 0.7086(16)
C3 C 0.5688(7) 0.7444(7) 0.626(2)
H3 H 0.5380 0.7843 0.5890
O6 O 0.6133(4) 0.7284(5) 0.4255(14)
H4 H 0.605(8) 0.747(8) 0.298(19)
C4 C 0.6156(7) 0.7642(7) 0.830(2)
O7 O 0.6822(5) 0.7519(5) 0.8053(14)
C5 C 0.4249(6) 0.7501(6) 0.862(2)
H5 H 0.4509 0.7935 0.8277
C6 C 0.5234(7) 0.6796(7) 0.675(2)
H6 H 0.4938 0.6702 0.5397
O10 O 0.2301(6) 0.5872(5) 0.2372(17)
C7 C 0.2410(7) 0.6191(8) 0.412(2)
O11 O 0.2655(5) 0.6237(5) 0.8213(17)
H7 H 0.248(8) 0.602(7) 0.919(16)
C8 C 0.3120(6) 0.5239(7) 0.613(2)
H8 H 0.3031 0.4937 0.4788
O12 O 0.3753(5) 0.5617(5) 0.5736(17)
O13 O 0.3781(5) 0.4306(5) 0.7914(16)
C9 C 0.2556(7) 0.4312(7) 0.874(2)
H9 H 0.2157 0.4620 0.9110
C10 C 0.2358(7) 0.3844(7) 0.670(2)
O15 O 0.2481(5) 0.3178(5) 0.6947(14)
O16 O 0.2111(6) 0.4130(5) 0.4912(19)
C11 C 0.2499(6) 0.5751(6) 0.638(2)
H11 H 0.2065 0.5491 0.6723
C12 C 0.3204(7) 0.4766(7) 0.825(2)
H12 H 0.3298 0.5062 0.9603
O19 O 0.1822(5) 0.7481(5) 0.9447(14)
Zn3_2 Zn 0.77031(7) 0.77031(7) 1.0000
Zn4 Zn 0.22969(7) 0.22969(7) 0.5000
Zn6 Zn 0.72180(7) 0.72180(7) 0.5000
Zn7_2 Zn 0.27820(7) 0.27820(7) 1.0000
H16 H 0.421787 0.458666 0.768651
H17 H 0.370212 0.590996 0.432424
H18 H 0.541334 0.578213 0.731349
O22_2 O 0.7481(5) 0.1822(5) 0.0553(14)
Zn1_2 Zn 0.72969(7) 0.27031(7) 0.2500
Zn2_2 Zn 0.77820(7) 0.22180(7) 0.7500
O1_2 O 0.6837(5) 0.2422(5) 0.5635(15)
O2_2 O 0.5872(5) 0.2301(6) 0.7628(17)
C1_2 C 0.6191(8) 0.2410(7) 0.588(2)
O3_2 O 0.6237(5) 0.2655(5) 0.1787(17)
H1_2 H 0.602(7) 0.248(8) 0.081(16)
C2_2 C 0.5239(7) 0.3120(6) 0.387(2)
H2_2 H 0.4937 0.3031 0.5212
O4_2 O 0.5617(5) 0.3753(5) 0.4264(17)
O5_2 O 0.4306(5) 0.3781(5) 0.2086(16)
C3_2 C 0.4312(7) 0.2556(7) 0.126(2)
H3_2 H 0.4620 0.2157 0.0890
C4_2 C 0.3844(7) 0.2358(7) 0.330(2)
O7_2 O 0.3178(5) 0.2481(5) 0.3053(14)
O8_2 O 0.4130(5) 0.2111(6) 0.5088(19)
C5_2 C 0.5751(6) 0.2499(6) 0.362(2)
H5_2 H 0.5491 0.2065 0.3277
C6_2 C 0.4766(7) 0.3204(7) 0.175(2)
H6_2 H 0.5062 0.3298 0.0397
O11_2 O 0.7345(5) 0.3763(5) 0.3213(17)
H7_2 H 0.752(8) 0.398(7) 0.419(16)
C8_2 C 0.6880(6) 0.4761(7) 0.113(2)
O12_2 O 0.6247(5) 0.4383(5) 0.0736(17)
O13_2 O 0.6219(5) 0.5694(5) 0.2914(16)
C9_2 C 0.7444(7) 0.5688(7) 0.374(2)
H9_2 H 0.7843 0.5380 0.4110
O14_2 O 0.7284(5) 0.6133(4) 0.5745(14)
H10_2 H 0.747(8) 0.605(8) 0.702(19)
C10_2 C 0.7642(7) 0.6156(7) 0.170(2)
O15_2 O 0.7519(5) 0.6822(5) 0.1947(14)
C11_2 C 0.7501(6) 0.4249(6) 0.138(2)
H11_2 H 0.7935 0.4509 0.1723
C12_2 C 0.6796(7) 0.5234(7) 0.325(2)
H12_2 H 0.6702 0.4938 0.4603
O18_2 O 0.8867(4) 0.2284(5) 0.8245(14)
H13_2 H 0.895(8) 0.247(8) 0.952(19)
O19_2 O 0.8178(5) 0.2519(5) 0.4447(14)
O20_2 O 0.7578(5) 0.3163(5) 0.9365(15)
O21_2 O 0.7716(5) 0.1133(4) 0.6755(14)
H14_2 H 0.753(8) 0.105(8) 0.548(19)
H15_2 H 0.590996 0.370212 0.567576
H16_2 H 0.578213 0.541334 0.268651
H18_2 H 0.458666 0.421787 0.231349
H19_2 H 0.909888 0.256872 0.702199
H20_2 H 0.743128 0.0901124 0.797801
O6_2 O 0.3867(4) 0.2716(5) 0.9255(14)
H4_2 H 0.395(8) 0.253(8) 0.798(19)
O10_2 O 0.7699(6) 0.4128(5) 0.7372(17)
C7_2 C 0.7590(7) 0.3809(8) 0.912(2)
H8_2 H 0.6969 0.5063 0.9788
O16_2 O 0.7889(6) 0.5870(5) 0.9912(19)
H17_2 H 0.629788 0.409004 0.932424
O13_3 O 0.0694(5) 0.8781(5) 0.0414(16)
C9_3 C 0.0688(7) 0.7556(7) 0.124(2)
H9_3 H 0.0380 0.7157 0.1610
C12_3 C 0.0234(7) 0.8204(7) 0.075(2)
H16_3 H 0.0413337 0.921787 0.0186508
H8_3 H 0.0063 0.8031 0.7288
C10_3 C 0.1156(7) 0.7358(7) 0.920(2)
O16_3 O 0.0870(5) 0.7111(6) 0.7412(19)
H2_3 H 0.8031 0.0063 0.2712
C4_3 C 0.7358(7) 0.1156(7) 0.080(2)
O8_3 O 0.7111(6) 0.0870(5) 0.2588(19)
O5_3 O 0.8781(5) 0.0694(5) 0.9586(16)
C3_3 C 0.7556(7) 0.0688(7) 0.876(2)
H3_3 H 0.7157 0.0380 0.8390
C6_3 C 0.8204(7) 0.0234(7) 0.925(2)
H18_3 H 0.921787 0.0413337 0.981349
O1_3 O 0.7422(5) 0.8163(5) 0.3135(15)
O2_3 O 0.7301(6) 0.9128(5) 0.5128(17)
C1_3 C 0.7410(7) 0.8809(8) 0.338(2)
C2_3 C 0.8120(6) 0.9761(7) 0.137(2)
O4_3 O 0.8753(5) 0.9383(5) 0.1764(17)
C5_3 C 0.7499(6) 0.9249(6) 0.112(2)
H5_3 H 0.7065 0.9509 0.0777
O11_3 O 0.8763(5) 0.7655(5) 0.0713(17)
H7_3 H 0.898(7) 0.748(8) 0.169(16)
H12_3 H 0.9938 0.8298 0.2103
O20_3 O 0.8163(5) 0.7422(5) 0.6865(15)
H15_3 H 0.870212 0.909004 0.317576
H19_3 H 0.756872 0.590112 0.452199
H20_3 H 0.590112 0.756872 0.547801
O3_3 O 0.7655(5) 0.8763(5) 0.9287(17)
H1_3 H 0.748(8) 0.898(7) 0.831(16)
H6_3 H 0.8298 0.9938 0.7897
O10_3 O 0.9128(5) 0.7301(6) 0.4872(17)
C7_3 C 0.8809(8) 0.7410(7) 0.662(2)
C8_3 C 0.9761(7) 0.8120(6) 0.863(2)
O12_3 O 0.9383(5) 0.8753(5) 0.8236(17)
C11_3 C 0.9249(6) 0.7499(6) 0.888(2)
H11_3 H 0.9509 0.7065 0.9223
H17_3 H 0.909004 0.870212 0.682424
O2_4 O 0.2699(6) 0.0872(5) 0.0128(17)
O20_4 O 0.1837(5) 0.2578(5) 0.1865(15)
H20_4 H 0.409888 0.243128 0.0478008
O1_4 O 0.2578(5) 0.1837(5) 0.8135(15)
C1_4 C 0.2590(7) 0.1191(8) 0.838(2)
O3_4 O 0.2345(5) 0.1237(5) 0.4287(17)
H1_4 H 0.252(8) 0.102(7) 0.331(16)
C2_4 C 0.1880(6) 0.0239(7) 0.637(2)
O4_4 O 0.1247(5) 0.0617(5) 0.6764(17)
C5_4 C 0.2501(6) 0.0751(6) 0.612(2)
H5_4 H 0.2935 0.0491 0.5777
H6_4 H 0.1702 0.0062 0.2897
C7_4 C 0.1191(8) 0.2590(7) 0.162(2)
O11_4 O 0.1237(5) 0.2345(5) 0.5713(17)
H7_4 H 0.102(7) 0.252(8) 0.669(16)
C8_4 C 0.0239(7) 0.1880(6) 0.363(2)
O12_4 O 0.0617(5) 0.1247(5) 0.3236(17)
C11_4 C 0.0751(6) 0.2501(6) 0.388(2)
H11_4 H 0.0491 0.2935 0.4223
H12_4 H 0.0062 0.1702 0.7103
H15_4 H 0.129788 0.0909957 0.817576
H17_4 H 0.0909957 0.129788 0.182424
H19_4 H 0.243128 0.409888 0.952199
O10_4 O 0.0872(5) 0.2699(6) 0.9872(17)
H2_4 H 0.1969 0.9937 0.7712
O5_4 O 0.1219(5) 0.9306(5) 0.4586(16)
C3_4 C 0.2444(7) 0.9312(7) 0.376(2)
H3_4 H 0.2843 0.9620 0.3390
C4_4 C 0.2642(7) 0.8844(7) 0.580(2)
O8_4 O 0.2889(6) 0.9130(5) 0.7588(19)
C6_4 C 0.1796(7) 0.9766(7) 0.425(2)
H18_4 H 0.0782131 0.958666 0.481349
H8_4 H 0.9937 0.1969 0.2288
O13_4 O 0.9306(5) 0.1219(5) 0.5414(16)
C9_4 C 0.9312(7) 0.2444(7) 0.624(2)
H9_4 H 0.9620 0.2843 0.6610
C10_4 C 0.8844(7) 0.2642(7) 0.420(2)
O16_4 O 0.9130(5) 0.2889(6) 0.2412(19)
C12_4 C 0.9766(7) 0.1796(7) 0.575(2)
H16_4 H 0.958666 0.0782131 0.518651
loop_
_geom_bond_atom_site_label_1
_geom_bond_atom_site_label_2
_geom_bond_site_symmetry_1
_geom_bond_site_symmetry_2
Zn2 O1 1_555 1_555
O1 C1 1_555 1_555
O2 C1 1_555 1_555
H10 O14 1_555 1_555
O18 Zn2 1_555 1_555
H13 O18 1_555 1_555
Zn7 O14 1_555 1_555
O20 Zn2 1_555 1_555
O21 Zn2 1_555 1_555
H14 O21 1_555 1_555
O22 Zn2 1_555 1_555
O18 H19 1_555 1_555
O21 H20 1_555 1_555
O3 Zn1 1_555 1_555
H1 O3 1_555 1_555
O4 C2 1_555 1_555
O5 C6 1_555 1_555
C3 H3 1_555 1_555
O6 C3 1_555 1_555
H4 O6 1_555 1_555
C4 C3 1_555 1_555
O7 C4 1_555 1_555
C5 O3 1_555 1_555
H5 C5 1_555 1_555
C6 C2 1_555 1_555
H6 C6 1_555 1_555
O20 Zn1 1_555 1_555
O10 C7 1_555 1_555
C7 O20 1_555 1_555
O11 Zn1 1_555 1_555
H7 O11 1_555 1_555
C8 H8 1_555 1_555
O12 C8 1_555 1_555
O13 C12 1_555 1_555
C9 H9 1_555 1_555
C10 C9 1_555 1_555
O15 C10 1_555 1_555
O16 C10 1_555 1_555
C11 C7 1_555 1_555
H11 C11 1_555 1_555
C12 C8 1_555 1_555
H12 C12 1_555 1_555
O22 Zn1 1_555 1_555
O19 Zn1 1_555 1_555
Zn3_2 O7 1_555 1_555
Zn4 O15 1_555 1_555
Zn6 O6 1_555 1_555
C2 C5 1_555 1_555
C3 C6 1_555 1_555
O7 Zn6 1_555 1_555
O11 C11 1_555 1_555
C8 C11 1_555 1_555
C9 C12 1_555 1_555
O15 Zn7_2 1_555 1_555
O13 H16 1_555 1_555
O12 H17 1_555 1_555
O5 H18 1_555 1_555
Zn1_2 O1_2 1_555 1_555
Zn2_2 O1_2 1_555 1_555
O1_2 C1_2 1_555 1_555
O2_2 C1_2 1_555 1_555
C1_2 C5_2 1_555 1_555
O3_2 Zn1_2 1_555 1_555
H1_2 O3_2 1_555 1_555
C2_2 H2_2 1_555 1_555
O4_2 C2_2 1_555 1_555
O5_2 C6_2 1_555 1_555
C3_2 H3_2 1_555 1_555
C4_2 C3_2 1_555 1_555
O7_2 C4_2 1_555 1_555
O8_2 C4_2 1_555 1_555
C5_2 O3_2 1_555 1_555
H5_2 C5_2 1_555 1_555
C6_2 C2_2 1_555 1_555
H6_2 C6_2 1_555 1_555
O11_2 Zn1_2 1_555 1_555
H7_2 O11_2 1_555 1_555
O12_2 C8_2 1_555 1_555
O13_2 C12_2 1_555 1_555
C9_2 H9_2 1_555 1_555
O14_2 C9_2 1_555 1_555
H10_2 O14_2 1_555 1_555
C10_2 C9_2 1_555 1_555
O15_2 C10_2 1_555 1_555
H11_2 C11_2 1_555 1_555
C12_2 C8_2 1_555 1_555
H12_2 C12_2 1_555 1_555
O22_2 Zn1_2 1_555 1_555
O18_2 Zn2_2 1_555 1_555
H13_2 O18_2 1_555 1_555
O19_2 Zn1_2 1_555 1_555
Zn4 O7_2 1_555 1_555
Zn3 O15_2 1_555 1_555
Zn6 O14_2 1_555 1_555
O20_2 Zn2_2 1_555 1_555
O21_2 Zn2_2 1_555 1_555
H14_2 O21_2 1_555 1_555
Zn2_2 O19_2 1_555 1_555
C2_2 C5_2 1_555 1_555
C3_2 C6_2 1_555 1_555
O7_2 Zn7 1_555 1_555
O11_2 C11_2 1_555 1_555
C8_2 C11_2 1_555 1_555
C9_2 C12_2 1_555 1_555
O15_2 Zn6 1_555 1_555
O4_2 H15_2 1_555 1_555
O13_2 H16_2 1_555 1_555
O5_2 H18_2 1_555 1_555
O18_2 H19_2 1_555 1_555
O21_2 H20_2 1_555 1_555
H4_2 O6_2 1_555 1_555
O10_2 C7_2 1_555 1_555
C7_2 O20_2 1_555 1_555
Zn7_2 O6_2 1_555 1_555
O13_3 C12_3 1_555 1_555
C9_3 H9_3 1_555 1_555
O18 C9_3 1_555 1_555
C9_3 C12_3 1_555 1_555
O13_3 H16_3 1_555 1_555
O19 C10_3 1_555 1_555
O16_3 C10_3 1_555 1_555
O22_2 C4_3 1_555 1_555
O8_3 C4_3 1_555 1_555
O5_3 C6_3 1_555 1_555
C3_3 H3_3 1_555 1_555
O21_2 C3_3 1_555 1_555
C3_3 C6_3 1_555 1_555
O5_3 H18_3 1_555 1_555
Zn3 O1_3 1_555 1_555
Zn6 O1_3 1_555 1_555
O1_3 C1_3 1_555 1_555
O2_3 C1_3 1_555 1_555
C1_3 C5_3 1_555 1_555
O4_3 C2_3 1_555 1_555
H5_3 C5_3 1_555 1_555
O11_3 Zn3 1_555 1_555
H7_3 O11_3 1_555 1_555
O20_3 Zn6 1_555 1_555
C2_3 C5_3 1_555 1_555
O4_3 H15_3 1_555 1_555
O14_2 H19_3 1_555 1_555
O6 H20_3 1_555 1_555
O3_3 Zn3_2 1_555 1_555
H1_3 O3_3 1_555 1_555
O20_3 Zn3_2 1_555 1_555
O10_3 C7_3 1_555 1_555
C7_3 O20_3 1_555 1_555
O12_3 C8_3 1_555 1_555
C11_3 C7_3 1_555 1_555
H11_3 C11_3 1_555 1_555
C8_3 C11_3 1_555 1_555
O12_3 H17_3 1_555 1_555
O20_4 Zn7 1_555 1_555
Zn4 O1_4 1_555 1_555
Zn7_2 O1_4 1_555 1_555
O1_4 C1_4 1_555 1_555
C1_4 C5_4 1_555 1_555
O3_4 Zn4 1_555 1_555
H1_4 O3_4 1_555 1_555
O4_4 C2_4 1_555 1_555
C5_4 O3_4 1_555 1_555
H5_4 C5_4 1_555 1_555
O20_4 Zn4 1_555 1_555
C7_4 O20_4 1_555 1_555
O11_4 Zn4 1_555 1_555
H7_4 O11_4 1_555 1_555
O12_4 C8_4 1_555 1_555
C11_4 C7_4 1_555 1_555
H11_4 C11_4 1_555 1_555
C2_4 C5_4 1_555 1_555
O11_4 C11_4 1_555 1_555
C8_4 C11_4 1_555 1_555
O4_4 H15_4 1_555 1_555
O12_4 H17_4 1_555 1_555
O5_4 C6_4 1_555 1_555
C3_4 H3_4 1_555 1_555
O21 C3_4 1_555 1_555
C4_4 C3_4 1_555 1_555
O22 C4_4 1_555 1_555
O8_4 C4_4 1_555 1_555
C3_4 C6_4 1_555 1_555
O5_4 H18_4 1_555 1_555
O13_4 C12_4 1_555 1_555
C9_4 H9_4 1_555 1_555
O18_2 C9_4 1_555 1_555
C10_4 C9_4 1_555 1_555
O19_2 C10_4 1_555 1_555
O16_4 C10_4 1_555 1_555
C9_4 C12_4 1_555 1_555
O13_4 H16_4 1_555 1_555

#END
