
###############################################################################
#
# This file contains modified crystal structure data generated from the
# MOF subset of the Cambridge Structural Database (CSD) v543 
# hosted by the Cambridge Crystallographic Data Centre (CCDC).
#
# This work is licensed under the Creative Commons
# Attribution-NonCommercial-ShareAlike 4.0 International License.
# To view a copy of this license, visit
# http://creativecommons.org/licenses/by-nc-sa/4.0/
# or send a letter to
# Creative Commons, PO Box 1866, Mountain View, CA 94042, USA.
#
# CIF created using the CSD Python API on 29 September 2022
# The structure has been converted into the P1 space group
# The structure has a 3D framework
# The original CSD entry TACPIX is in the tetragonal crystal system
# The original CSD entry TACPIX is in a Sohncke space group
# The framework has been calculated to contain at least 10.0% void space
# The void calculation uses a probe of radius 1.32A, grid spacing 0.4
# H atom positions have been added when not included in the experimental data
#
###############################################################################

data_TACPIX
_chemical_formula_moiety         '(C48 H70 O62 Zn9)n'
_symmetry_cell_setting           triclinic
_symmetry_space_group_name_H-M   'P 1'
_symmetry_Int_Tables_number      1
_space_group_name_Hall           'P 1'
loop_
_symmetry_equiv_pos_site_id
_symmetry_equiv_pos_as_xyz
1 x,y,z
_cell_length_a                   19.0427(10)
_cell_length_b                   19.0427(10)
_cell_length_c                   5.8108(6)
_cell_angle_alpha                90
_cell_angle_beta                 90
_cell_angle_gamma                90
_cell_volume                     2107.14
loop_
_atom_site_label
_atom_site_type_symbol
_atom_site_fract_x
_atom_site_fract_y
_atom_site_fract_z
Zn2 Zn 0.22252(7) 0.77748(7) 0.2500
O1 O 0.3155(5) 0.7562(5) 0.0600(16)
O2 O 0.4105(5) 0.7693(7) 0.2620(18)
C1 C 0.3810(8) 0.7592(8) 0.089(3)
H2 H 0.5049 0.6947 0.0235
O8 O 0.5856(7) 0.7864(8) 0.009(2)
O14 O 0.2712(6) 0.3864(5) 0.0756(15)
H10 H 0.252(8) 0.389(9) 0.197(19)
O19 O 0.2438(5) 0.6845(5) 0.4400(16)
O20 O 0.2288(6) 0.8864(5) 0.1744(15)
O21 O 0.1136(5) 0.7712(6) 0.3256(15)
O22 O 0.2534(5) 0.8178(5) 0.5559(15)
Zn4 Zn 0.77042(7) 0.77042(7) -0.0000
Zn6 Zn 0.27748(7) 0.27748(7) -0.0000
H13 H 0.248(8) 0.889(9) 0.053(19)
H14 H 0.111(9) 0.752(8) 0.447(19)
H15 H 0.0888193 0.743537 0.205643
H16 H 0.256463 0.911181 0.294357
H18 H 0.41018 0.631216 0.0650677
Zn1 Zn 0.27042(7) 0.72958(7) 0.7500
O3 O 0.3755(5) 0.7341(6) 0.6826(17)
H1 H 0.397(8) 0.732(8) 0.565(15)
C2 C 0.4755(8) 0.6863(8) 0.888(3)
O4 O 0.4397(5) 0.6261(5) 0.9252(19)
O5 O 0.5703(5) 0.6210(5) 0.7093(19)
C3 C 0.5699(8) 0.7437(8) 0.627(2)
H3 H 0.5398 0.7842 0.5928
O6 O 0.6136(5) 0.7288(6) 0.4244(15)
H4 H 0.611(9) 0.748(8) 0.303(19)
C4 C 0.6172(7) 0.7620(8) 0.832(2)
O7 O 0.6822(5) 0.7534(5) 0.8059(15)
C5 C 0.4257(7) 0.7496(7) 0.864(2)
H5 H 0.4521 0.7925 0.8282
C6 C 0.5246(7) 0.6820(7) 0.678(2)
H6 H 0.4954 0.6733 0.5423
O10 O 0.2307(7) 0.5895(5) 0.2380(18)
C7 C 0.2408(8) 0.6190(8) 0.411(3)
O11 O 0.2659(6) 0.6245(5) 0.8174(17)
H7 H 0.268(8) 0.603(8) 0.935(15)
C8 C 0.3137(8) 0.5245(8) 0.612(3)
H8 H 0.3053 0.4951 0.4765
O12 O 0.3739(5) 0.5603(5) 0.5748(19)
O13 O 0.3790(5) 0.4297(5) 0.7907(19)
C9 C 0.2563(8) 0.4301(8) 0.873(2)
H9 H 0.2158 0.4602 0.9072
C10 C 0.2380(8) 0.3828(7) 0.668(2)
O15 O 0.2466(5) 0.3178(5) 0.6941(15)
O16 O 0.2136(8) 0.4144(7) 0.491(2)
C11 C 0.2504(7) 0.5743(7) 0.636(2)
H11 H 0.2075 0.5479 0.6718
C12 C 0.3180(7) 0.4754(7) 0.822(2)
H12 H 0.3267 0.5046 0.9577
O18 O 0.1822(5) 0.7466(5) 0.9441(15)
Zn3 Zn 0.72252(7) 0.72252(7) 0.5000
Zn4_2 Zn 0.77042(7) 0.77042(7) 1.0000
Zn6_2 Zn 0.27748(7) 0.27748(7) 1.0000
Zn7 Zn 0.22958(7) 0.22958(7) 0.5000
H17 H 0.541211 0.577859 0.720614
H19 H 0.368784 0.58982 0.434932
H20 H 0.422141 0.458789 0.779386
O22_2 O 0.7466(5) 0.1822(5) 0.0559(15)
Zn1_2 Zn 0.72958(7) 0.27042(7) 0.2500
Zn2_2 Zn 0.77748(7) 0.22252(7) 0.7500
O1_2 O 0.6845(5) 0.2438(5) 0.5600(16)
O2_2 O 0.5895(5) 0.2307(7) 0.7620(18)
C1_2 C 0.6190(8) 0.2408(8) 0.589(3)
O3_2 O 0.6245(5) 0.2659(6) 0.1826(17)
H1_2 H 0.603(8) 0.268(8) 0.065(15)
C2_2 C 0.5245(8) 0.3137(8) 0.388(3)
H2_2 H 0.4951 0.3053 0.5235
O4_2 O 0.5603(5) 0.3739(5) 0.4252(19)
O5_2 O 0.4297(5) 0.3790(5) 0.2093(19)
C3_2 C 0.4301(8) 0.2563(8) 0.127(2)
H3_2 H 0.4602 0.2158 0.0928
C4_2 C 0.3828(7) 0.2380(8) 0.332(2)
O7_2 O 0.3178(5) 0.2466(5) 0.3059(15)
O8_2 O 0.4144(7) 0.2136(8) 0.509(2)
C5_2 C 0.5743(7) 0.2504(7) 0.364(2)
H5_2 H 0.5479 0.2075 0.3282
C6_2 C 0.4754(7) 0.3180(7) 0.178(2)
H6_2 H 0.5046 0.3267 0.0423
O11_2 O 0.7341(6) 0.3755(5) 0.3174(17)
H7_2 H 0.732(8) 0.397(8) 0.435(15)
C8_2 C 0.6863(8) 0.4755(8) 0.112(3)
O12_2 O 0.6261(5) 0.4397(5) 0.0748(19)
O13_2 O 0.6210(5) 0.5703(5) 0.2907(19)
C9_2 C 0.7437(8) 0.5699(8) 0.373(2)
H9_2 H 0.7842 0.5398 0.4072
O14_2 O 0.7288(6) 0.6136(5) 0.5756(15)
H10_2 H 0.748(8) 0.611(9) 0.697(19)
C10_2 C 0.7620(8) 0.6172(7) 0.168(2)
O15_2 O 0.7534(5) 0.6822(5) 0.1941(15)
C11_2 C 0.7496(7) 0.4257(7) 0.136(2)
H11_2 H 0.7925 0.4521 0.1718
C12_2 C 0.6820(7) 0.5246(7) 0.322(2)
H12_2 H 0.6733 0.4954 0.4577
O18_2 O 0.8178(5) 0.2534(5) 0.4441(15)
O19_2 O 0.7562(5) 0.3155(5) 0.9400(16)
O20_2 O 0.7712(6) 0.1136(5) 0.6744(15)
O21_2 O 0.8864(5) 0.2288(6) 0.8256(15)
H13_2 H 0.752(8) 0.111(9) 0.553(19)
H14_2 H 0.889(9) 0.248(8) 0.947(19)
H15_2 H 0.911181 0.256463 0.705643
H16_2 H 0.743537 0.0888193 0.794357
H17_2 H 0.458789 0.422141 0.220614
H18_2 H 0.58982 0.368784 0.565068
H20_2 H 0.577859 0.541211 0.279386
O6_2 O 0.3864(5) 0.2712(6) 0.9244(15)
H4_2 H 0.389(9) 0.252(8) 0.803(19)
O10_2 O 0.7693(7) 0.4105(5) 0.7380(18)
C7_2 C 0.7592(8) 0.3810(8) 0.911(3)
H8_2 H 0.6947 0.5049 0.9765
O16_2 O 0.7864(8) 0.5856(7) 0.991(2)
H19_2 H 0.631216 0.41018 0.934932
O13_3 O 0.0703(5) 0.8790(5) 0.0407(19)
C9_3 C 0.0699(8) 0.7563(8) 0.123(2)
H9_3 H 0.0398 0.7158 0.1572
C12_3 C 0.0246(7) 0.8180(7) 0.072(2)
H20_3 H 0.0412114 0.922141 0.0293862
H8_3 H 0.0049 0.8053 0.7265
C10_3 C 0.1172(7) 0.7380(8) 0.918(2)
O16_3 O 0.0856(7) 0.7136(8) 0.741(2)
H2_3 H 0.8053 0.0049 0.2735
C4_3 C 0.7380(8) 0.1172(7) 0.082(2)
O8_3 O 0.7136(8) 0.0856(7) 0.259(2)
O5_3 O 0.8790(5) 0.0703(5) 0.9593(19)
C3_3 C 0.7563(8) 0.0699(8) 0.877(2)
H3_3 H 0.7158 0.0398 0.8428
C6_3 C 0.8180(7) 0.0246(7) 0.928(2)
H17_3 H 0.922141 0.0412114 0.970614
O1_3 O 0.7438(5) 0.8155(5) 0.3100(16)
O2_3 O 0.7307(7) 0.9105(5) 0.5120(18)
C1_3 C 0.7408(8) 0.8810(8) 0.339(3)
C2_3 C 0.8137(8) 0.9755(8) 0.138(3)
O4_3 O 0.8739(5) 0.9397(5) 0.1752(19)
C5_3 C 0.7504(7) 0.9257(7) 0.114(2)
H5_3 H 0.7075 0.9521 0.0782
O11_3 O 0.8755(5) 0.7659(6) 0.0674(17)
H7_3 H 0.897(8) 0.768(8) 0.185(15)
H12_3 H 0.9954 0.8267 0.2077
O19_3 O 0.8155(5) 0.7438(5) 0.6900(16)
H15_3 H 0.756463 0.588819 0.455643
H16_3 H 0.588819 0.756463 0.544357
H18_3 H 0.868784 0.91018 0.315068
O3_3 O 0.7659(6) 0.8755(5) 0.9326(17)
H1_3 H 0.768(8) 0.897(8) 0.815(15)
H6_3 H 0.8267 0.9954 0.7923
O10_3 O 0.9105(5) 0.7307(7) 0.4880(18)
C7_3 C 0.8810(8) 0.7408(8) 0.661(3)
C8_3 C 0.9755(8) 0.8137(8) 0.862(3)
O12_3 O 0.9397(5) 0.8739(5) 0.8248(19)
C11_3 C 0.9257(7) 0.7504(7) 0.886(2)
H11_3 H 0.9521 0.7075 0.9218
H19_3 H 0.91018 0.868784 0.684932
O2_4 O 0.2693(7) 0.0895(5) 0.0120(18)
O19_4 O 0.1845(5) 0.2562(5) 0.1900(16)
H16_4 H 0.411181 0.243537 0.0443569
O1_4 O 0.2562(5) 0.1845(5) 0.8100(16)
C1_4 C 0.2592(8) 0.1190(8) 0.839(3)
O3_4 O 0.2341(6) 0.1245(5) 0.4326(17)
H1_4 H 0.232(8) 0.103(8) 0.315(15)
C2_4 C 0.1863(8) 0.0245(8) 0.638(3)
O4_4 O 0.1261(5) 0.0603(5) 0.6752(19)
C5_4 C 0.2496(7) 0.0743(7) 0.614(2)
H5_4 H 0.2925 0.0479 0.5782
H6_4 H 0.1733 0.0046 0.2923
C7_4 C 0.1190(8) 0.2592(8) 0.161(3)
O11_4 O 0.1245(5) 0.2341(6) 0.5674(17)
H7_4 H 0.103(8) 0.232(8) 0.685(15)
C8_4 C 0.0245(8) 0.1863(8) 0.362(3)
O12_4 O 0.0603(5) 0.1261(5) 0.3248(19)
C11_4 C 0.0743(7) 0.2496(7) 0.386(2)
H11_4 H 0.0479 0.2925 0.4218
H12_4 H 0.0046 0.1733 0.7077
H15_4 H 0.243537 0.411181 0.955643
H18_4 H 0.131216 0.0898202 0.815068
H19_4 H 0.0898202 0.131216 0.184932
O10_4 O 0.0895(5) 0.2693(7) 0.9880(18)
H2_4 H 0.1947 0.9951 0.7735
O5_4 O 0.1210(5) 0.9297(5) 0.4593(19)
C3_4 C 0.2437(8) 0.9301(8) 0.377(2)
H3_4 H 0.2842 0.9602 0.3428
C4_4 C 0.2620(8) 0.8828(7) 0.582(2)
O8_4 O 0.2864(8) 0.9144(7) 0.759(2)
C6_4 C 0.1820(7) 0.9754(7) 0.428(2)
H17_4 H 0.0778591 0.958789 0.470614
H8_4 H 0.9951 0.1947 0.2265
O13_4 O 0.9297(5) 0.1210(5) 0.5407(19)
C9_4 C 0.9301(8) 0.2437(8) 0.623(2)
H9_4 H 0.9602 0.2842 0.6572
C10_4 C 0.8828(7) 0.2620(8) 0.418(2)
O16_4 O 0.9144(7) 0.2864(8) 0.241(2)
C12_4 C 0.9754(7) 0.1820(7) 0.572(2)
H20_4 H 0.958789 0.0778591 0.529386
loop_
_geom_bond_atom_site_label_1
_geom_bond_atom_site_label_2
_geom_bond_site_symmetry_1
_geom_bond_site_symmetry_2
Zn2 O1 1_555 1_555
O1 C1 1_555 1_555
O2 C1 1_555 1_555
H10 O14 1_555 1_555
O19 Zn2 1_555 1_555
O20 Zn2 1_555 1_555
O21 Zn2 1_555 1_555
O22 Zn2 1_555 1_555
Zn6 O14 1_555 1_555
H13 O20 1_555 1_555
H14 O21 1_555 1_555
O21 H15 1_555 1_555
O20 H16 1_555 1_555
O3 Zn1 1_555 1_555
H1 O3 1_555 1_555
O4 C2 1_555 1_555
O5 C6 1_555 1_555
C3 H3 1_555 1_555
O6 C3 1_555 1_555
H4 O6 1_555 1_555
C4 C3 1_555 1_555
O7 C4 1_555 1_555
C5 O3 1_555 1_555
H5 C5 1_555 1_555
C6 C2 1_555 1_555
H6 C6 1_555 1_555
O19 Zn1 1_555 1_555
O10 C7 1_555 1_555
C7 O19 1_555 1_555
O11 Zn1 1_555 1_555
H7 O11 1_555 1_555
C8 H8 1_555 1_555
O12 C8 1_555 1_555
O13 C12 1_555 1_555
C9 H9 1_555 1_555
C10 C9 1_555 1_555
O15 C10 1_555 1_555
O16 C10 1_555 1_555
C11 C7 1_555 1_555
H11 C11 1_555 1_555
C12 C8 1_555 1_555
H12 C12 1_555 1_555
O22 Zn1 1_555 1_555
O18 Zn1 1_555 1_555
Zn3 O6 1_555 1_555
Zn4_2 O7 1_555 1_555
Zn7 O15 1_555 1_555
C2 C5 1_555 1_555
C3 C6 1_555 1_555
O7 Zn3 1_555 1_555
O11 C11 1_555 1_555
C8 C11 1_555 1_555
C9 C12 1_555 1_555
O15 Zn6_2 1_555 1_555
O5 H17 1_555 1_555
O12 H19 1_555 1_555
O13 H20 1_555 1_555
Zn1_2 O1_2 1_555 1_555
Zn2_2 O1_2 1_555 1_555
O1_2 C1_2 1_555 1_555
O2_2 C1_2 1_555 1_555
C1_2 C5_2 1_555 1_555
O3_2 Zn1_2 1_555 1_555
H1_2 O3_2 1_555 1_555
C2_2 H2_2 1_555 1_555
O4_2 C2_2 1_555 1_555
O5_2 C6_2 1_555 1_555
C3_2 H3_2 1_555 1_555
C4_2 C3_2 1_555 1_555
O7_2 C4_2 1_555 1_555
O8_2 C4_2 1_555 1_555
C5_2 O3_2 1_555 1_555
H5_2 C5_2 1_555 1_555
C6_2 C2_2 1_555 1_555
H6_2 C6_2 1_555 1_555
O11_2 Zn1_2 1_555 1_555
H7_2 O11_2 1_555 1_555
O12_2 C8_2 1_555 1_555
O13_2 C12_2 1_555 1_555
C9_2 H9_2 1_555 1_555
O14_2 C9_2 1_555 1_555
H10_2 O14_2 1_555 1_555
C10_2 C9_2 1_555 1_555
O15_2 C10_2 1_555 1_555
H11_2 C11_2 1_555 1_555
C12_2 C8_2 1_555 1_555
H12_2 C12_2 1_555 1_555
O22_2 Zn1_2 1_555 1_555
O18_2 Zn1_2 1_555 1_555
O19_2 Zn2_2 1_555 1_555
O20_2 Zn2_2 1_555 1_555
O21_2 Zn2_2 1_555 1_555
Zn7 O7_2 1_555 1_555
Zn3 O14_2 1_555 1_555
Zn4 O15_2 1_555 1_555
H13_2 O20_2 1_555 1_555
H14_2 O21_2 1_555 1_555
Zn2_2 O18_2 1_555 1_555
C2_2 C5_2 1_555 1_555
C3_2 C6_2 1_555 1_555
O7_2 Zn6 1_555 1_555
O11_2 C11_2 1_555 1_555
C8_2 C11_2 1_555 1_555
C9_2 C12_2 1_555 1_555
O15_2 Zn3 1_555 1_555
O21_2 H15_2 1_555 1_555
O20_2 H16_2 1_555 1_555
O5_2 H17_2 1_555 1_555
O4_2 H18_2 1_555 1_555
O13_2 H20_2 1_555 1_555
H4_2 O6_2 1_555 1_555
O10_2 C7_2 1_555 1_555
C7_2 O19_2 1_555 1_555
Zn6_2 O6_2 1_555 1_555
O13_3 C12_3 1_555 1_555
C9_3 H9_3 1_555 1_555
O21 C9_3 1_555 1_555
C9_3 C12_3 1_555 1_555
O13_3 H20_3 1_555 1_555
O18 C10_3 1_555 1_555
O16_3 C10_3 1_555 1_555
O22_2 C4_3 1_555 1_555
O8_3 C4_3 1_555 1_555
O5_3 C6_3 1_555 1_555
C3_3 H3_3 1_555 1_555
O20_2 C3_3 1_555 1_555
C3_3 C6_3 1_555 1_555
O5_3 H17_3 1_555 1_555
Zn4 O1_3 1_555 1_555
Zn3 O1_3 1_555 1_555
O1_3 C1_3 1_555 1_555
O2_3 C1_3 1_555 1_555
C1_3 C5_3 1_555 1_555
O4_3 C2_3 1_555 1_555
H5_3 C5_3 1_555 1_555
O11_3 Zn4 1_555 1_555
H7_3 O11_3 1_555 1_555
O19_3 Zn3 1_555 1_555
C2_3 C5_3 1_555 1_555
O14_2 H15_3 1_555 1_555
O6 H16_3 1_555 1_555
O4_3 H18_3 1_555 1_555
O3_3 Zn4_2 1_555 1_555
H1_3 O3_3 1_555 1_555
O19_3 Zn4_2 1_555 1_555
O10_3 C7_3 1_555 1_555
C7_3 O19_3 1_555 1_555
O12_3 C8_3 1_555 1_555
C11_3 C7_3 1_555 1_555
H11_3 C11_3 1_555 1_555
C8_3 C11_3 1_555 1_555
O12_3 H19_3 1_555 1_555
O19_4 Zn6 1_555 1_555
Zn7 O1_4 1_555 1_555
Zn6_2 O1_4 1_555 1_555
O1_4 C1_4 1_555 1_555
C1_4 C5_4 1_555 1_555
O3_4 Zn7 1_555 1_555
H1_4 O3_4 1_555 1_555
O4_4 C2_4 1_555 1_555
C5_4 O3_4 1_555 1_555
H5_4 C5_4 1_555 1_555
O19_4 Zn7 1_555 1_555
C7_4 O19_4 1_555 1_555
O11_4 Zn7 1_555 1_555
H7_4 O11_4 1_555 1_555
O12_4 C8_4 1_555 1_555
C11_4 C7_4 1_555 1_555
H11_4 C11_4 1_555 1_555
C2_4 C5_4 1_555 1_555
O11_4 C11_4 1_555 1_555
C8_4 C11_4 1_555 1_555
O4_4 H18_4 1_555 1_555
O12_4 H19_4 1_555 1_555
O5_4 C6_4 1_555 1_555
C3_4 H3_4 1_555 1_555
O20 C3_4 1_555 1_555
C4_4 C3_4 1_555 1_555
O22 C4_4 1_555 1_555
O8_4 C4_4 1_555 1_555
C3_4 C6_4 1_555 1_555
O5_4 H17_4 1_555 1_555
O13_4 C12_4 1_555 1_555
C9_4 H9_4 1_555 1_555
O21_2 C9_4 1_555 1_555
C10_4 C9_4 1_555 1_555
O18_2 C10_4 1_555 1_555
O16_4 C10_4 1_555 1_555
C9_4 C12_4 1_555 1_555
O13_4 H20_4 1_555 1_555

#END
