
###############################################################################
#
# This file contains modified crystal structure data generated from the
# MOF subset of the Cambridge Structural Database (CSD) v543 
# hosted by the Cambridge Crystallographic Data Centre (CCDC).
#
# This work is licensed under the Creative Commons
# Attribution-NonCommercial-ShareAlike 4.0 International License.
# To view a copy of this license, visit
# http://creativecommons.org/licenses/by-nc-sa/4.0/
# or send a letter to
# Creative Commons, PO Box 1866, Mountain View, CA 94042, USA.
#
# CIF created using the CSD Python API on 29 September 2022
# The structure has been converted into the P1 space group
# The structure has a 3D framework
# The original CSD entry TACTUP is in the orthorhombic crystal system
# The framework has been calculated to contain at least 10.0% void space
# The void calculation uses a probe of radius 1.32A, grid spacing 0.4
#
###############################################################################

data_TACTUP
_chemical_formula_moiety         '(C336 H176 N48 O80 Zn16)n'
_symmetry_cell_setting           triclinic
_symmetry_space_group_name_H-M   'P 1'
_symmetry_Int_Tables_number      1
_space_group_name_Hall           'P 1'
loop_
_symmetry_equiv_pos_site_id
_symmetry_equiv_pos_as_xyz
1 x,y,z
_cell_length_a                   16.7284(3)
_cell_length_b                   20.8912(5)
_cell_length_c                   28.9741(6)
_cell_angle_alpha                90
_cell_angle_beta                 90
_cell_angle_gamma                90
_cell_volume                     10125.8
loop_
_atom_site_label
_atom_site_type_symbol
_atom_site_fract_x
_atom_site_fract_y
_atom_site_fract_z
H13 H 0.6480 0.0003 0.7154
Zn1 Zn 0.64422(3) 0.59717(3) 0.59374(2)
Zn2 Zn 0.14616(3) 0.44098(3) 0.59687(2)
O2 O 0.6331(3) 0.4715(2) 0.82574(15)
O3 O 0.54990(19) 0.5459(2) 0.58060(14)
N1 N 0.0195(2) 0.4610(2) 0.59690(15)
O5 O 0.5052(2) 0.5789(3) 0.51287(15)
O6 O 0.6529(2) 0.57391(19) 0.83662(13)
N2 N 0.6456(2) 0.68180(19) 0.63167(14)
N3 N 0.6463(2) 0.6728(2) 0.54211(14)
C3 C 0.2754(3) 0.5198(3) 0.55483(17)
C4 C 0.6369(3) 0.5402(3) 0.7600(2)
O7 O 0.6533(3) 0.9105(2) 0.68735(17)
C5 C 0.6491(2) 0.7382(2) 0.60936(18)
C6 C 0.6511(3) 0.7857(3) 0.5300(2)
H2 H 0.6530 0.8267 0.5426
N4 N 0.1340(2) 0.52317(19) 0.55753(14)
O8 O 0.0382(3) 0.6884(2) 0.44861(16)
N5 N 0.6344(3) 0.5668(2) 0.66708(15)
C9 C 0.3360(3) 0.4466(3) 0.60198(18)
H3 H 0.3322 0.4111 0.6213
C10 C 0.6259(4) 0.4922(3) 0.7284(2)
H4 H 0.6195 0.4500 0.7380
C11 C 0.1989(3) 0.5473(3) 0.53786(17)
C12 C 0.6485(5) 0.8612(4) 0.7545(2)
H5 H 0.6467 0.8295 0.7770
C13 C 0.6459(3) 0.7354(2) 0.70352(18)
H6 H 0.6442 0.7333 0.7356
C14 C 0.6490(3) 0.7169(4) 0.46594(19)
H7 H 0.6488 0.7103 0.4342
C15 C 0.6406(3) 0.6140(3) 0.69774(18)
C16 C 0.6436(3) 0.6025(2) 0.74489(18)
H8 H 0.6499 0.6360 0.7657
C17 C 0.6245(4) 0.5074(3) 0.6819(2)
H9 H 0.6165 0.4749 0.6605
C18 C 0.3483(3) 0.5449(3) 0.54207(19)
H10 H 0.3511 0.5775 0.5203
C19 C 0.0610(2) 0.5445(2) 0.54641(17)
C20 C 0.6490(3) 0.7335(2) 0.55885(18)
C22 C 0.0510(3) 0.5923(2) 0.51547(17)
H12 H 0.0003 0.6081 0.5089
C23 C 0.6449(3) 0.6800(2) 0.67791(17)
C24 C 0.6494(3) 0.7946(3) 0.68155(19)
C25 C 0.4177(3) 0.5209(3) 0.5621(2)
C26 C 0.4973(3) 0.5520(3) 0.5502(2)
C27 C 0.6500(6) 0.9565(4) 0.7210(3)
C28 C 0.6412(3) 0.5263(3) 0.8115(2)
C29 C 0.6479(3) 0.6641(3) 0.49571(19)
H14 H 0.6483 0.6228 0.4836
C30 C 0.1928(3) 0.5932(3) 0.50548(19)
H15 H 0.2385 0.6087 0.4910
C31 C 0.4107(3) 0.4719(3) 0.59295(19)
H16 H 0.4557 0.4557 0.6077
C32 C 0.6503(4) 0.8526(3) 0.7085(2)
C33 C 0.6510(3) 0.7959(2) 0.63332(18)
H17 H 0.6534 0.8347 0.6175
C34 C 0.6499(6) 0.9306(5) 0.7622(3)
H18 H 0.6506 0.9517 0.7905
C36 C 0.6505(3) 0.7781(3) 0.4831(2)
C37 C 0.1665(4) 0.6944(3) 0.4311(2)
H20 H 0.2213 0.6873 0.4311
C38 C 0.1183(3) 0.6175(3) 0.49355(18)
C39 C 0.1141(3) 0.6664(3) 0.4588(2)
C40 C 0.0480(5) 0.7299(4) 0.4139(3)
H21 H 0.0062 0.7516 0.3997
N6 N 0.2684(2) 0.4714(2) 0.58382(14)
C41 C 0.1258(4) 0.7365(4) 0.4017(3)
H22 H 0.1473 0.7630 0.3790
C42 C 0.6482(4) 0.8375(5) 0.4535(2)
O9 O 0.6540(4) 0.8339(4) 0.41197(19)
O10 O 0.6407(3) 0.8898(4) 0.4708(3)
Zn4 Zn 0.64616(3) 0.55902(3) 0.90313(2)
Zn5 Zn 0.64616(3) 0.94098(3) 0.40313(2)
O11 O 0.75468(18) 0.56935(17) 0.58084(13)
O12 O 0.1529(2) 0.42609(19) 0.66338(13)
O13 O 0.1540(4) 0.3339(4) 0.58803(19)
O14 O 0.1407(3) 0.3898(4) 0.5292(3)
O4 O 0.7220(2) 0.4674(2) 0.59578(19)
C1 C 0.9629(3) 0.4288(3) 0.6212(2)
H1 H 0.9788 0.3950 0.6400
C2 C 0.9949(3) 0.5107(2) 0.57096(18)
C7 C 0.7704(3) 0.5107(3) 0.5894(2)
C8 C 0.8589(3) 0.4941(3) 0.5920(2)
C21 C 0.9154(3) 0.5296(2) 0.5677(2)
H11 H 0.9004 0.5648 0.5500
C35 C 0.8840(3) 0.4440(3) 0.6192(3)
H19 H 0.8470 0.4206 0.6362
C14_2 C 0.1490(3) 0.2831(4) 0.03406(19)
H7_2 H 0.1488 0.2897 0.0658
C29_2 C 0.1479(3) 0.3359(3) 0.00429(19)
H14_2 H 0.1483 0.3772 0.0164
C36_2 C 0.1505(3) 0.2219(3) 0.0169(2)
C42_2 C 0.1482(4) 0.1625(5) 0.0465(2)
O9_2 O 0.1540(4) 0.1661(4) 0.08803(19)
O10_2 O 0.1407(3) 0.1102(4) 0.0292(3)
Zn5_2 Zn 0.14616(3) 0.05902(3) 0.09687(2)
Zn1_2 Zn 0.14422(3) 0.40283(3) 0.90626(2)
O2_2 O 0.1331(3) 0.5285(2) 0.67426(15)
O3_2 O 0.04990(19) 0.4541(2) 0.91940(14)
O5_2 O 0.0052(2) 0.4211(3) 0.98713(15)
N2_2 N 0.1456(2) 0.31820(19) 0.86833(14)
N3_2 N 0.1463(2) 0.3272(2) 0.95789(14)
C4_2 C 0.1369(3) 0.4598(3) 0.7400(2)
O7_2 O 0.1533(3) 0.0895(2) 0.81265(17)
C5_2 C 0.1491(2) 0.2618(2) 0.89064(18)
C6_2 C 0.1511(3) 0.2143(3) 0.9700(2)
H2_2 H 0.1530 0.1733 0.9574
N5_2 N 0.1344(3) 0.4332(2) 0.83292(15)
C10_2 C 0.1259(4) 0.5078(3) 0.7716(2)
H4_2 H 0.1195 0.5500 0.7620
C12_2 C 0.1485(5) 0.1388(4) 0.7455(2)
H5_2 H 0.1467 0.1705 0.7230
C13_2 C 0.1459(3) 0.2646(2) 0.79648(18)
H6_2 H 0.1442 0.2667 0.7644
C15_2 C 0.1406(3) 0.3860(3) 0.80226(18)
C16_2 C 0.1436(3) 0.3975(2) 0.75511(18)
H8_2 H 0.1499 0.3640 0.7343
C17_2 C 0.1245(4) 0.4926(3) 0.8181(2)
H9_2 H 0.1165 0.5251 0.8395
C20_2 C 0.1490(3) 0.2665(2) 0.94115(18)
C23_2 C 0.1449(3) 0.3200(2) 0.82209(17)
C24_2 C 0.1494(3) 0.2054(3) 0.81845(19)
C27_2 C 0.1500(6) 0.0435(4) 0.7790(3)
C28_2 C 0.1412(3) 0.4737(3) 0.6885(2)
C32_2 C 0.1503(4) 0.1474(3) 0.7915(2)
C33_2 C 0.1510(3) 0.2041(2) 0.86668(18)
H17_2 H 0.1534 0.1653 0.8825
C34_2 C 0.1499(6) 0.0694(5) 0.7378(3)
H18_2 H 0.1506 0.0483 0.7095
O11_2 O 0.25468(18) 0.43065(17) 0.91916(13)
N1_2 N 0.5195(2) 0.5390(2) 0.90310(15)
O4_2 O 0.2220(2) 0.5326(2) 0.90422(19)
C1_2 C 0.4629(3) 0.5712(3) 0.8788(2)
H1_2 H 0.4788 0.6050 0.8600
C2_2 C 0.4949(3) 0.4893(2) 0.92904(18)
C3_2 C 0.7754(3) 0.4802(3) 0.94517(17)
C7_2 C 0.2704(3) 0.4893(3) 0.9106(2)
N4_2 N 0.6340(2) 0.47683(19) 0.94247(14)
C8_2 C 0.3589(3) 0.5059(3) 0.9080(2)
C9_2 C 0.8360(3) 0.5534(3) 0.89802(18)
H3_2 H 0.8322 0.5889 0.8787
C11_2 C 0.6989(3) 0.4527(3) 0.96214(17)
C18_2 C 0.8483(3) 0.4551(3) 0.95793(19)
H10_2 H 0.8511 0.4225 0.9797
C19_2 C 0.5610(2) 0.4555(2) 0.95359(17)
C21_2 C 0.4154(3) 0.4704(2) 0.9323(2)
H11_2 H 0.4004 0.4352 0.9500
C22_2 C 0.5510(3) 0.4077(2) 0.98453(17)
H12_2 H 0.5003 0.3919 0.9911
C25_2 C 0.9177(3) 0.4791(3) 0.9379(2)
C26_2 C 0.9973(3) 0.4480(3) 0.9498(2)
C30_2 C 0.6928(3) 0.4068(3) 0.99452(19)
C31_2 C 0.9107(3) 0.5281(3) 0.90705(19)
H16_2 H 0.9557 0.5443 0.8923
C35_2 C 0.3840(3) 0.5560(3) 0.8808(3)
H19_2 H 0.3470 0.5794 0.8638
N6_2 N 0.7684(2) 0.5286(2) 0.91618(14)
O13_2 O 0.6540(4) 0.6661(4) 0.91197(19)
O14_2 O 0.6407(3) 0.6102(4) 0.9708(3)
Zn1_3 Zn 0.14422(3) 0.09717(3) 0.40626(2)
O3_3 O 0.04990(19) 0.0459(2) 0.41940(14)
O5_3 O 0.0052(2) 0.0789(3) 0.48713(15)
O6_2 O 0.1529(2) 0.07391(19) 0.16338(13)
N2_3 N 0.1456(2) 0.18180(19) 0.36833(14)
N3_3 N 0.1463(2) 0.1728(2) 0.45789(14)
C4_3 C 0.1369(3) 0.0402(3) 0.2400(2)
O7_3 O 0.1533(3) 0.4105(2) 0.31265(17)
C5_3 C 0.1491(2) 0.2382(2) 0.39064(18)
C6_3 C 0.1511(3) 0.2857(3) 0.4700(2)
H2_3 H 0.1530 0.3267 0.4574
N5_3 N 0.1344(3) 0.0668(2) 0.33292(15)
C12_3 C 0.1485(5) 0.3612(4) 0.2455(2)
H5_3 H 0.1467 0.3295 0.2230
C13_3 C 0.1459(3) 0.2354(2) 0.29648(18)
H6_3 H 0.1442 0.2333 0.2644
C14_3 C 0.1490(3) 0.2169(4) 0.53406(19)
H7_3 H 0.1488 0.2103 0.5658
C15_3 C 0.1406(3) 0.1140(3) 0.30226(18)
C16_3 C 0.1436(3) 0.1025(2) 0.25511(18)
H8_3 H 0.1499 0.1360 0.2343
C17_3 C 0.1245(4) 0.0074(3) 0.3181(2)
C20_3 C 0.1490(3) 0.2335(2) 0.44115(18)
C23_3 C 0.1449(3) 0.1800(2) 0.32209(17)
C24_3 C 0.1494(3) 0.2946(3) 0.31845(19)
C27_3 C 0.1500(6) 0.4565(4) 0.2790(3)
H13_2 H 0.1480 0.5003 0.2846
C28_3 C 0.1412(3) 0.0263(3) 0.1885(2)
C29_3 C 0.1479(3) 0.1641(3) 0.50429(19)
H14_3 H 0.1483 0.1228 0.5164
C32_3 C 0.1503(4) 0.3526(3) 0.2915(2)
C33_3 C 0.1510(3) 0.2959(2) 0.36668(18)
H17_3 H 0.1534 0.3347 0.3825
C34_3 C 0.1499(6) 0.4306(5) 0.2378(3)
H18_3 H 0.1506 0.4517 0.2095
C36_3 C 0.1505(3) 0.2781(3) 0.5169(2)
C42_3 C 0.1482(4) 0.3375(5) 0.5465(2)
O11_3 O 0.25468(18) 0.06935(17) 0.41916(13)
C2_3 C 0.4949(3) 0.0107(2) 0.42904(18)
C3_3 C 0.7754(3) 0.0198(3) 0.44517(17)
C7_3 C 0.2704(3) 0.0107(3) 0.4106(2)
N4_3 N 0.6340(2) 0.02317(19) 0.44247(14)
O8_2 O 0.5382(3) 0.1884(2) 0.55139(16)
C11_3 C 0.6989(3) 0.0473(3) 0.46214(17)
C18_3 C 0.8483(3) 0.0449(3) 0.45793(19)
H10_3 H 0.8511 0.0775 0.4797
C19_3 C 0.5610(2) 0.0445(2) 0.45359(17)
C21_3 C 0.4154(3) 0.0296(2) 0.4323(2)
H11_3 H 0.4004 0.0648 0.4500
C22_3 C 0.5510(3) 0.0923(2) 0.48453(17)
H12_3 H 0.5003 0.1081 0.4911
C25_3 C 0.9177(3) 0.0209(3) 0.4379(2)
C26_3 C 0.9973(3) 0.0520(3) 0.4498(2)
C30_3 C 0.6928(3) 0.0932(3) 0.49452(19)
H15_2 H 0.7385 0.1087 0.5090
C37_2 C 0.6665(4) 0.1944(3) 0.5689(2)
H20_2 H 0.7213 0.1873 0.5689
C38_2 C 0.6183(3) 0.1175(3) 0.50645(18)
C39_2 C 0.6141(3) 0.1664(3) 0.5412(2)
C40_2 C 0.5480(5) 0.2299(4) 0.5861(3)
H21_2 H 0.5062 0.2516 0.6003
C41_2 C 0.6258(4) 0.2365(4) 0.5983(3)
H22_2 H 0.6473 0.2630 0.6210
N1_3 N 0.5195(2) 0.9610(2) 0.40310(15)
O4_3 O 0.2220(2) 0.9674(2) 0.40422(19)
C1_3 C 0.4629(3) 0.9288(3) 0.3788(2)
H1_3 H 0.4788 0.8950 0.3600
C8_3 C 0.3589(3) 0.9941(3) 0.4080(2)
C9_3 C 0.8360(3) 0.9466(3) 0.39802(18)
H3_3 H 0.8322 0.9111 0.3787
C31_3 C 0.9107(3) 0.9719(3) 0.40705(19)
H16_3 H 0.9557 0.9557 0.3923
C35_3 C 0.3840(3) 0.9440(3) 0.3808(3)
H19_3 H 0.3470 0.9206 0.3638
N6_3 N 0.7684(2) 0.9714(2) 0.41618(14)
O12_2 O 0.6529(2) 0.92609(19) 0.33662(13)
O2_3 O 0.6331(3) 0.0285(2) 0.32574(15)
N1_4 N 0.0195(2) 0.0390(2) 0.09690(15)
C9_4 C 0.3360(3) 0.0534(3) 0.10198(18)
H3_4 H 0.3322 0.0889 0.1213
C10_3 C 0.6259(4) 0.0078(3) 0.2284(2)
H4_3 H 0.6195 0.0500 0.2380
H9_3 H 0.6165 0.0251 0.1605
C31_4 C 0.4107(3) 0.0281(3) 0.09295(19)
H16_4 H 0.4557 0.0443 0.1077
N6_4 N 0.2684(2) 0.0286(2) 0.08382(14)
Zn1_4 Zn 0.64422(3) 0.90283(3) 0.09374(2)
O3_4 O 0.54990(19) 0.9541(2) 0.08060(14)
O5_4 O 0.5052(2) 0.9211(3) 0.01287(15)
N2_4 N 0.6456(2) 0.81820(19) 0.13167(14)
N3_4 N 0.6463(2) 0.8272(2) 0.04211(14)
C3_4 C 0.2754(3) 0.9802(3) 0.05483(17)
C4_4 C 0.6369(3) 0.9598(3) 0.2600(2)
O7_4 O 0.6533(3) 0.5895(2) 0.18735(17)
C5_4 C 0.6491(2) 0.7618(2) 0.10936(18)
C6_4 C 0.6511(3) 0.7143(3) 0.0300(2)
H2_4 H 0.6530 0.6733 0.0426
N4_4 N 0.1340(2) 0.97683(19) 0.05753(14)
N5_4 N 0.6344(3) 0.9332(2) 0.16708(15)
C11_4 C 0.1989(3) 0.9527(3) 0.03786(17)
C12_4 C 0.6485(5) 0.6388(4) 0.2545(2)
H5_4 H 0.6467 0.6705 0.2770
C13_4 C 0.6459(3) 0.7646(2) 0.20352(18)
H6_4 H 0.6442 0.7667 0.2356
C15_4 C 0.6406(3) 0.8860(3) 0.19774(18)
C16_4 C 0.6436(3) 0.8975(2) 0.24489(18)
H8_4 H 0.6499 0.8640 0.2657
C17_4 C 0.6245(4) 0.9926(3) 0.1819(2)
C18_4 C 0.3483(3) 0.9551(3) 0.04207(19)
H10_4 H 0.3511 0.9225 0.0203
C19_4 C 0.0610(2) 0.9555(2) 0.04641(17)
C20_4 C 0.6490(3) 0.7665(2) 0.05885(18)
C22_4 C 0.0510(3) 0.9077(2) 0.01547(17)
H12_4 H 0.0003 0.8919 0.0089
C23_4 C 0.6449(3) 0.8200(2) 0.17791(17)
C24_4 C 0.6494(3) 0.7054(3) 0.18155(19)
C25_4 C 0.4177(3) 0.9791(3) 0.0621(2)
C26_4 C 0.4973(3) 0.9480(3) 0.0502(2)
C27_4 C 0.6500(6) 0.5435(4) 0.2210(3)
H13_3 H 0.6480 0.4997 0.2154
C28_4 C 0.6412(3) 0.9737(3) 0.3115(2)
C30_4 C 0.1928(3) 0.9068(3) 0.00548(19)
C32_4 C 0.6503(4) 0.6474(3) 0.2085(2)
C33_4 C 0.6510(3) 0.7041(2) 0.13332(18)
H17_4 H 0.6534 0.6653 0.1175
C34_4 C 0.6499(6) 0.5694(5) 0.2622(3)
H18_4 H 0.6506 0.5483 0.2905
O11_4 O 0.75468(18) 0.93065(17) 0.08084(13)
O8_3 O 0.0382(3) 0.8116(2) 0.94861(16)
C14_4 C 0.6490(3) 0.7831(4) 0.96594(19)
H7_4 H 0.6488 0.7897 0.9342
C29_4 C 0.6479(3) 0.8359(3) 0.99571(19)
H14_4 H 0.6483 0.8772 0.9836
H15_3 H 0.2385 0.8913 0.9910
C36_4 C 0.6505(3) 0.7219(3) 0.9831(2)
C37_3 C 0.1665(4) 0.8056(3) 0.9311(2)
H20_3 H 0.2213 0.8127 0.9311
C38_3 C 0.1183(3) 0.8825(3) 0.99355(18)
C39_3 C 0.1141(3) 0.8336(3) 0.9588(2)
C40_3 C 0.0480(5) 0.7701(4) 0.9139(3)
H21_3 H 0.0062 0.7484 0.8997
C41_3 C 0.1258(4) 0.7635(4) 0.9017(3)
H22_3 H 0.1473 0.7370 0.8790
C42_4 C 0.6482(4) 0.6625(5) 0.9535(2)
C2_4 C 0.9949(3) 0.9893(2) 0.07096(18)
C7_4 C 0.7704(3) 0.9893(3) 0.0894(2)
C21_4 C 0.9154(3) 0.9704(2) 0.0677(2)
H11_4 H 0.9004 0.9352 0.0500
Zn2_2 Zn 0.35384(3) 0.05902(3) 0.59687(2)
N1_5 N 0.4805(2) 0.0390(2) 0.59690(15)
O4_4 O 0.7780(2) 0.0326(2) 0.59578(19)
C1_4 C 0.5371(3) 0.0712(3) 0.6212(2)
H1_4 H 0.5212 0.1050 0.6400
C8_4 C 0.6411(3) 0.0059(3) 0.5920(2)
C9_5 C 0.1640(3) 0.0534(3) 0.60198(18)
H3_5 H 0.1678 0.0889 0.6213
C31_5 C 0.0893(3) 0.0281(3) 0.59295(19)
H16_5 H 0.0443 0.0443 0.6077
C35_4 C 0.6160(3) 0.0560(3) 0.6192(3)
H19_4 H 0.6530 0.0794 0.6362
N6_5 N 0.2316(2) 0.0286(2) 0.58382(14)
O12_3 O 0.3471(2) 0.07391(19) 0.66338(13)
O13_3 O 0.3460(4) 0.1661(4) 0.58803(19)
O14_3 O 0.3593(3) 0.1102(4) 0.5292(3)
O1 O 0.74532(18) 0.93065(17) 0.58084(13)
C2_5 C 0.5051(3) 0.9893(2) 0.57096(18)
C3_5 C 0.2246(3) 0.9802(3) 0.55483(17)
C7_5 C 0.7296(3) 0.9893(3) 0.5894(2)
N4_5 N 0.3660(2) 0.97683(19) 0.55753(14)
O8_4 O 0.4618(3) 0.8116(2) 0.44861(16)
C11_5 C 0.3011(3) 0.9527(3) 0.53786(17)
C18_5 C 0.1517(3) 0.9551(3) 0.54207(19)
H10_5 H 0.1489 0.9225 0.5203
C19_5 C 0.4390(2) 0.9555(2) 0.54641(17)
C21_5 C 0.5846(3) 0.9704(2) 0.5677(2)
H11_5 H 0.5996 0.9352 0.5500
C22_5 C 0.4490(3) 0.9077(2) 0.51547(17)
H12_5 H 0.4997 0.8919 0.5089
C25_5 C 0.0823(3) 0.9791(3) 0.5621(2)
C26_5 C 0.0027(3) 0.9480(3) 0.5502(2)
C30_5 C 0.3072(3) 0.9068(3) 0.50548(19)
H15_4 H 0.2615 0.8913 0.4910
C37_4 C 0.3335(4) 0.8056(3) 0.4311(2)
H20_4 H 0.2787 0.8127 0.4311
C38_4 C 0.3817(3) 0.8825(3) 0.49355(18)
C39_4 C 0.3859(3) 0.8336(3) 0.4588(2)
C40_4 C 0.4520(5) 0.7701(4) 0.4139(3)
H21_4 H 0.4938 0.7484 0.3997
C41_4 C 0.3742(4) 0.7635(4) 0.4017(3)
H22_4 H 0.3527 0.7370 0.3790
Zn3 Zn 0.85578(3) 0.90283(3) 0.59374(2)
O3_5 O 0.95010(19) 0.9541(2) 0.58060(14)
O5_5 O 0.9948(2) 0.9211(3) 0.51287(15)
O6_3 O 0.8471(2) 0.92609(19) 0.83662(13)
N2_5 N 0.8544(2) 0.81820(19) 0.63167(14)
N3_5 N 0.8537(2) 0.8272(2) 0.54211(14)
C4_5 C 0.8631(3) 0.9598(3) 0.7600(2)
O7_5 O 0.8467(3) 0.5895(2) 0.68735(17)
C5_5 C 0.8509(2) 0.7618(2) 0.60936(18)
C6_5 C 0.8489(3) 0.7143(3) 0.5300(2)
H2_5 H 0.8470 0.6733 0.5426
N5_5 N 0.8656(3) 0.9332(2) 0.66708(15)
C12_5 C 0.8515(5) 0.6388(4) 0.7545(2)
H5_5 H 0.8533 0.6705 0.7770
C13_5 C 0.8541(3) 0.7646(2) 0.70352(18)
H6_5 H 0.8558 0.7667 0.7356
C14_5 C 0.8510(3) 0.7831(4) 0.46594(19)
H7_5 H 0.8512 0.7897 0.4342
C15_5 C 0.8594(3) 0.8860(3) 0.69774(18)
C16_5 C 0.8564(3) 0.8975(2) 0.74489(18)
H8_5 H 0.8501 0.8640 0.7657
C17_5 C 0.8755(4) 0.9926(3) 0.6819(2)
C20_5 C 0.8510(3) 0.7665(2) 0.55885(18)
C23_5 C 0.8551(3) 0.8200(2) 0.67791(17)
C24_5 C 0.8506(3) 0.7054(3) 0.68155(19)
C27_5 C 0.8500(6) 0.5435(4) 0.7210(3)
H13_4 H 0.8520 0.4997 0.7154
C28_5 C 0.8588(3) 0.9737(3) 0.8115(2)
C29_5 C 0.8521(3) 0.8359(3) 0.49571(19)
H14_5 H 0.8517 0.8772 0.4836
C32_5 C 0.8497(4) 0.6474(3) 0.7085(2)
C33_5 C 0.8490(3) 0.7041(2) 0.63332(18)
H17_5 H 0.8466 0.6653 0.6175
C34_5 C 0.8501(6) 0.5694(5) 0.7622(3)
H18_5 H 0.8494 0.5483 0.7905
C36_5 C 0.8495(3) 0.7219(3) 0.4831(2)
C42_5 C 0.8518(4) 0.6625(5) 0.4535(2)
O9_3 O 0.8460(4) 0.6661(4) 0.41197(19)
O10_3 O 0.8593(3) 0.6102(4) 0.4708(3)
Zn4_2 Zn 0.85384(3) 0.94098(3) 0.90313(2)
Zn5_3 Zn 0.85384(3) 0.55902(3) 0.40313(2)
O1_2 O 0.24532(18) 0.06935(17) 0.91916(13)
C2_6 C 0.0051(3) 0.0107(2) 0.92904(18)
C7_6 C 0.2296(3) 0.0107(3) 0.9106(2)
C21_6 C 0.0846(3) 0.0296(2) 0.9323(2)
H11_6 H 0.0996 0.0648 0.9500
Zn3_2 Zn 0.35578(3) 0.09717(3) 0.90626(2)
O8_5 O 0.9618(3) 0.1884(2) 0.05139(16)
C14_6 C 0.3510(3) 0.2169(4) 0.03406(19)
H7_6 H 0.3512 0.2103 0.0658
C29_6 C 0.3521(3) 0.1641(3) 0.00429(19)
H14_6 H 0.3517 0.1228 0.0164
H15_5 H 0.7615 0.1087 0.0090
C36_6 C 0.3495(3) 0.2781(3) 0.0169(2)
C37_5 C 0.8335(4) 0.1944(3) 0.0689(2)
H20_5 H 0.7787 0.1873 0.0689
C38_5 C 0.8817(3) 0.1175(3) 0.00645(18)
C39_5 C 0.8859(3) 0.1664(3) 0.0412(2)
C40_5 C 0.9520(5) 0.2299(4) 0.0861(3)
H21_5 H 0.9938 0.2516 0.1003
C41_5 C 0.8742(4) 0.2365(4) 0.0983(3)
H22_5 H 0.8527 0.2630 0.1210
C42_6 C 0.3518(4) 0.3375(5) 0.0465(2)
O9_4 O 0.3460(4) 0.3339(4) 0.08803(19)
O10_4 O 0.3593(3) 0.3898(4) 0.0292(3)
Zn5_4 Zn 0.35384(3) 0.44098(3) 0.09687(2)
O3_6 O 0.45010(19) 0.0459(2) 0.91940(14)
O5_6 O 0.4948(2) 0.0789(3) 0.98713(15)
N2_6 N 0.3544(2) 0.18180(19) 0.86833(14)
N3_6 N 0.3537(2) 0.1728(2) 0.95789(14)
C3_6 C 0.7246(3) 0.0198(3) 0.94517(17)
C4_6 C 0.3631(3) 0.0402(3) 0.7400(2)
O7_6 O 0.3467(3) 0.4105(2) 0.81265(17)
C5_6 C 0.3509(2) 0.2382(2) 0.89064(18)
C6_6 C 0.3489(3) 0.2857(3) 0.9700(2)
H2_6 H 0.3470 0.3267 0.9574
N4_6 N 0.8660(2) 0.02317(19) 0.94247(14)
N5_6 N 0.3656(3) 0.0668(2) 0.83292(15)
C11_6 C 0.8011(3) 0.0473(3) 0.96214(17)
C12_6 C 0.3515(5) 0.3612(4) 0.7455(2)
H5_6 H 0.3533 0.3295 0.7230
C13_6 C 0.3541(3) 0.2354(2) 0.79648(18)
H6_6 H 0.3558 0.2333 0.7644
C15_6 C 0.3594(3) 0.1140(3) 0.80226(18)
C16_6 C 0.3564(3) 0.1025(2) 0.75511(18)
H8_6 H 0.3501 0.1360 0.7343
C17_6 C 0.3755(4) 0.0074(3) 0.8181(2)
C18_6 C 0.6517(3) 0.0449(3) 0.95793(19)
H10_6 H 0.6489 0.0775 0.9797
C19_6 C 0.9390(2) 0.0445(2) 0.95359(17)
C20_6 C 0.3510(3) 0.2335(2) 0.94115(18)
C22_6 C 0.9490(3) 0.0923(2) 0.98453(17)
H12_6 H 0.9997 0.1081 0.9911
C23_6 C 0.3551(3) 0.1800(2) 0.82209(17)
C24_6 C 0.3506(3) 0.2946(3) 0.81845(19)
C25_6 C 0.5823(3) 0.0209(3) 0.9379(2)
C26_6 C 0.5027(3) 0.0520(3) 0.9498(2)
C27_6 C 0.3500(6) 0.4565(4) 0.7790(3)
H13_5 H 0.3520 0.5003 0.7846
C28_6 C 0.3588(3) 0.0263(3) 0.6885(2)
C30_6 C 0.8072(3) 0.0932(3) 0.99452(19)
C32_6 C 0.3497(4) 0.3526(3) 0.7915(2)
C33_6 C 0.3490(3) 0.2959(2) 0.86668(18)
H17_6 H 0.3466 0.3347 0.8825
C34_6 C 0.3501(6) 0.4306(5) 0.7378(3)
H18_6 H 0.3494 0.4517 0.7095
O2_4 O 0.3669(3) 0.9715(2) 0.67426(15)
N1_6 N 0.9805(2) 0.9610(2) 0.90310(15)
C9_6 C 0.6640(3) 0.9466(3) 0.89802(18)
H3_6 H 0.6678 0.9111 0.8787
C10_4 C 0.3741(4) 0.9922(3) 0.7716(2)
H4_4 H 0.3805 0.9500 0.7620
H9_4 H 0.3835 0.9749 0.8395
C31_6 C 0.5893(3) 0.9719(3) 0.90705(19)
H16_6 H 0.5443 0.9557 0.8923
N6_6 N 0.7316(2) 0.9714(2) 0.91618(14)
O13_4 O 0.8460(4) 0.8339(4) 0.91197(19)
O14_4 O 0.8593(3) 0.8898(4) 0.9708(3)
O1_3 O 0.24532(18) 0.43065(17) 0.41916(13)
O4_5 O 0.2780(2) 0.5326(2) 0.40422(19)
C1_5 C 0.0371(3) 0.5712(3) 0.3788(2)
H1_5 H 0.0212 0.6050 0.3600
C2_7 C 0.0051(3) 0.4893(2) 0.42904(18)
C7_7 C 0.2296(3) 0.4893(3) 0.4106(2)
C8_5 C 0.1411(3) 0.5059(3) 0.4080(2)
C21_7 C 0.0846(3) 0.4704(2) 0.4323(2)
H11_7 H 0.0996 0.4352 0.4500
C35_5 C 0.1160(3) 0.5560(3) 0.3808(3)
H19_5 H 0.1530 0.5794 0.3638
Zn3_3 Zn 0.35578(3) 0.40283(3) 0.40626(2)
O2_5 O 0.3669(3) 0.5285(2) 0.17426(15)
O3_7 O 0.45010(19) 0.4541(2) 0.41940(14)
N1_7 N 0.9805(2) 0.5390(2) 0.40310(15)
O5_7 O 0.4948(2) 0.4211(3) 0.48713(15)
O6_4 O 0.3471(2) 0.42609(19) 0.16338(13)
N2_7 N 0.3544(2) 0.31820(19) 0.36833(14)
N3_7 N 0.3537(2) 0.3272(2) 0.45789(14)
C3_7 C 0.7246(3) 0.4802(3) 0.44517(17)
C4_7 C 0.3631(3) 0.4598(3) 0.2400(2)
O7_7 O 0.3467(3) 0.0895(2) 0.31265(17)
C5_7 C 0.3509(2) 0.2618(2) 0.39064(18)
C6_7 C 0.3489(3) 0.2143(3) 0.4700(2)
H2_7 H 0.3470 0.1733 0.4574
N4_7 N 0.8660(2) 0.47683(19) 0.44247(14)
O8_6 O 0.9618(3) 0.3116(2) 0.55139(16)
N5_7 N 0.3656(3) 0.4332(2) 0.33292(15)
C9_7 C 0.6640(3) 0.5534(3) 0.39802(18)
H3_7 H 0.6678 0.5889 0.3787
C10_5 C 0.3741(4) 0.5078(3) 0.2716(2)
H4_5 H 0.3805 0.5500 0.2620
C11_7 C 0.8011(3) 0.4527(3) 0.46214(17)
C12_7 C 0.3515(5) 0.1388(4) 0.2455(2)
H5_7 H 0.3533 0.1705 0.2230
C13_7 C 0.3541(3) 0.2646(2) 0.29648(18)
H6_7 H 0.3558 0.2667 0.2644
C14_7 C 0.3510(3) 0.2831(4) 0.53406(19)
H7_7 H 0.3512 0.2897 0.5658
C15_7 C 0.3594(3) 0.3860(3) 0.30226(18)
C16_7 C 0.3564(3) 0.3975(2) 0.25511(18)
H8_7 H 0.3501 0.3640 0.2343
C17_7 C 0.3755(4) 0.4926(3) 0.3181(2)
H9_5 H 0.3835 0.5251 0.3395
C18_7 C 0.6517(3) 0.4551(3) 0.45793(19)
H10_7 H 0.6489 0.4225 0.4797
C19_7 C 0.9390(2) 0.4555(2) 0.45359(17)
C20_7 C 0.3510(3) 0.2665(2) 0.44115(18)
C22_7 C 0.9490(3) 0.4077(2) 0.48453(17)
H12_7 H 0.9997 0.3919 0.4911
C23_7 C 0.3551(3) 0.3200(2) 0.32209(17)
C24_7 C 0.3506(3) 0.2054(3) 0.31845(19)
C25_7 C 0.5823(3) 0.4791(3) 0.4379(2)
C26_7 C 0.5027(3) 0.4480(3) 0.4498(2)
C27_7 C 0.3500(6) 0.0435(4) 0.2790(3)
C28_7 C 0.3588(3) 0.4737(3) 0.1885(2)
C29_7 C 0.3521(3) 0.3359(3) 0.50429(19)
H14_7 H 0.3517 0.3772 0.5164
C30_7 C 0.8072(3) 0.4068(3) 0.49452(19)
H15_6 H 0.7615 0.3913 0.5090
C31_7 C 0.5893(3) 0.5281(3) 0.40705(19)
H16_7 H 0.5443 0.5443 0.3923
C32_7 C 0.3497(4) 0.1474(3) 0.2915(2)
C33_7 C 0.3490(3) 0.2041(2) 0.36668(18)
H17_7 H 0.3466 0.1653 0.3825
C34_7 C 0.3501(6) 0.0694(5) 0.2378(3)
H18_7 H 0.3494 0.0483 0.2095
C36_7 C 0.3495(3) 0.2219(3) 0.5169(2)
C37_6 C 0.8335(4) 0.3056(3) 0.5689(2)
H20_6 H 0.7787 0.3127 0.5689
C38_6 C 0.8817(3) 0.3825(3) 0.50645(18)
C39_6 C 0.8859(3) 0.3336(3) 0.5412(2)
C40_6 C 0.9520(5) 0.2701(4) 0.5861(3)
H21_6 H 0.9938 0.2484 0.6003
N6_7 N 0.7316(2) 0.5286(2) 0.41618(14)
C41_6 C 0.8742(4) 0.2635(4) 0.5983(3)
H22_6 H 0.8527 0.2370 0.6210
C42_7 C 0.3518(4) 0.1625(5) 0.5465(2)
O12_4 O 0.8471(2) 0.57391(19) 0.33662(13)
O1_4 O 0.74532(18) 0.56935(17) 0.08084(13)
N1_8 N 0.4805(2) 0.4610(2) 0.09690(15)
O4_6 O 0.7780(2) 0.4674(2) 0.09578(19)
C1_6 C 0.5371(3) 0.4288(3) 0.1212(2)
H1_6 H 0.5212 0.3950 0.1400
C2_8 C 0.5051(3) 0.5107(2) 0.07096(18)
C3_8 C 0.2246(3) 0.5198(3) 0.05483(17)
C7_8 C 0.7296(3) 0.5107(3) 0.0894(2)
N4_8 N 0.3660(2) 0.52317(19) 0.05753(14)
C8_6 C 0.6411(3) 0.4941(3) 0.0920(2)
C9_8 C 0.1640(3) 0.4466(3) 0.10198(18)
H3_8 H 0.1678 0.4111 0.1213
C11_8 C 0.3011(3) 0.5473(3) 0.03786(17)
C18_8 C 0.1517(3) 0.5449(3) 0.04207(19)
H10_8 H 0.1489 0.5775 0.0203
C19_8 C 0.4390(2) 0.5445(2) 0.04641(17)
C21_8 C 0.5846(3) 0.5296(2) 0.0677(2)
H11_8 H 0.5996 0.5648 0.0500
C22_8 C 0.4490(3) 0.5923(2) 0.01547(17)
H12_8 H 0.4997 0.6081 0.0089
C25_8 C 0.0823(3) 0.5209(3) 0.0621(2)
C26_8 C 0.0027(3) 0.5520(3) 0.0502(2)
C30_8 C 0.3072(3) 0.5932(3) 0.00548(19)
C31_8 C 0.0893(3) 0.4719(3) 0.09295(19)
H16_8 H 0.0443 0.4557 0.1077
C35_6 C 0.6160(3) 0.4440(3) 0.1192(3)
H19_6 H 0.6530 0.4206 0.1362
N6_8 N 0.2316(2) 0.4714(2) 0.08382(14)
Zn3_4 Zn 0.85578(3) 0.59717(3) 0.09374(2)
O2_6 O 0.8669(3) 0.4715(2) 0.32574(15)
O3_8 O 0.95010(19) 0.5459(2) 0.08060(14)
O5_8 O 0.9948(2) 0.5789(3) 0.01287(15)
N2_8 N 0.8544(2) 0.68180(19) 0.13167(14)
N3_8 N 0.8537(2) 0.6728(2) 0.04211(14)
C4_8 C 0.8631(3) 0.5402(3) 0.2600(2)
O7_8 O 0.8467(3) 0.9105(2) 0.18735(17)
C5_8 C 0.8509(2) 0.7382(2) 0.10936(18)
C6_8 C 0.8489(3) 0.7857(3) 0.0300(2)
H2_8 H 0.8470 0.8267 0.0426
N5_8 N 0.8656(3) 0.5668(2) 0.16708(15)
C10_6 C 0.8741(4) 0.4922(3) 0.2284(2)
H4_6 H 0.8805 0.4500 0.2380
C12_8 C 0.8515(5) 0.8612(4) 0.2545(2)
H5_8 H 0.8533 0.8295 0.2770
C13_8 C 0.8541(3) 0.7354(2) 0.20352(18)
H6_8 H 0.8558 0.7333 0.2356
C15_8 C 0.8594(3) 0.6140(3) 0.19774(18)
C16_8 C 0.8564(3) 0.6025(2) 0.24489(18)
H8_8 H 0.8501 0.6360 0.2657
C17_8 C 0.8755(4) 0.5074(3) 0.1819(2)
H9_6 H 0.8835 0.4749 0.1605
C20_8 C 0.8510(3) 0.7335(2) 0.05885(18)
C23_8 C 0.8551(3) 0.6800(2) 0.17791(17)
C24_8 C 0.8506(3) 0.7946(3) 0.18155(19)
C27_8 C 0.8500(6) 0.9565(4) 0.2210(3)
C28_8 C 0.8588(3) 0.5263(3) 0.3115(2)
C32_8 C 0.8497(4) 0.8526(3) 0.2085(2)
C33_8 C 0.8490(3) 0.7959(2) 0.13332(18)
H17_8 H 0.8466 0.8347 0.1175
C34_8 C 0.8501(6) 0.9306(5) 0.2622(3)
H18_8 H 0.8494 0.9517 0.2905
C14_8 C 0.8510(3) 0.7169(4) 0.96594(19)
H7_8 H 0.8512 0.7103 0.9342
C29_8 C 0.8521(3) 0.6641(3) 0.99571(19)
H14_8 H 0.8517 0.6228 0.9836
C36_8 C 0.8495(3) 0.7781(3) 0.9831(2)
C42_8 C 0.8518(4) 0.8375(5) 0.9535(2)
O2_7 O 0.8669(3) 0.0285(2) 0.82574(15)
C10_7 C 0.8741(4) 0.0078(3) 0.7284(2)
H4_7 H 0.8805 0.0500 0.7380
H9_7 H 0.8835 0.0251 0.6605
H13_6 H 0.1480 0.9997 0.7846
O8_7 O 0.5382(3) 0.3116(2) 0.05139(16)
H15_7 H 0.7385 0.3913 0.0090
C37_7 C 0.6665(4) 0.3056(3) 0.0689(2)
H20_7 H 0.7213 0.3127 0.0689
C38_7 C 0.6183(3) 0.3825(3) 0.00645(18)
C39_7 C 0.6141(3) 0.3336(3) 0.0412(2)
C40_7 C 0.5480(5) 0.2701(4) 0.0861(3)
H21_7 H 0.5062 0.2484 0.1003
C41_7 C 0.6258(4) 0.2635(4) 0.0983(3)
H22_7 H 0.6473 0.2370 0.1210
O4_7 O 0.2780(2) 0.9674(2) 0.90422(19)
C1_7 C 0.0371(3) 0.9288(3) 0.8788(2)
H1_7 H 0.0212 0.8950 0.8600
C8_7 C 0.1411(3) 0.9941(3) 0.9080(2)
C35_7 C 0.1160(3) 0.9440(3) 0.8808(3)
H19_7 H 0.1530 0.9206 0.8638
H13_7 H 0.3520 0.9997 0.2846
O2_8 O 0.1331(3) 0.9715(2) 0.17426(15)
C10_8 C 0.1259(4) 0.9922(3) 0.2716(2)
H4_8 H 0.1195 0.9500 0.2620
H9_8 H 0.1165 0.9749 0.3395
O8_8 O 0.4618(3) 0.6884(2) 0.94861(16)
H15_8 H 0.2615 0.6087 0.9910
C37_8 C 0.3335(4) 0.6944(3) 0.9311(2)
H20_8 H 0.2787 0.6873 0.9311
C38_8 C 0.3817(3) 0.6175(3) 0.99355(18)
C39_8 C 0.3859(3) 0.6664(3) 0.9588(2)
C40_8 C 0.4520(5) 0.7299(4) 0.9139(3)
H21_8 H 0.4938 0.7516 0.8997
C41_8 C 0.3742(4) 0.7365(4) 0.9017(3)
H22_8 H 0.3527 0.7630 0.8790
H13_8 H 0.8520 0.0003 0.2154
O4_8 O 0.7220(2) 0.0326(2) 0.09578(19)
C1_8 C 0.9629(3) 0.0712(3) 0.1212(2)
H1_8 H 0.9788 0.1050 0.1400
C8_8 C 0.8589(3) 0.0059(3) 0.0920(2)
C35_8 C 0.8840(3) 0.0560(3) 0.1192(3)
H19_8 H 0.8470 0.0794 0.1362
loop_
_geom_bond_atom_site_label_1
_geom_bond_atom_site_label_2
_geom_bond_site_symmetry_1
_geom_bond_site_symmetry_2
Zn1 O3 1_555 1_555
Zn2 N1 1_555 1_555
O2 C28 1_555 1_555
O3 C26 1_555 1_555
O5 C26 1_555 1_555
O6 C28 1_555 1_555
N2 Zn1 1_555 1_555
N3 Zn1 1_555 1_555
C3 C11 1_555 1_555
C4 C10 1_555 1_555
O7 C27 1_555 1_555
C5 N2 1_555 1_555
C6 H2 1_555 1_555
N4 Zn2 1_555 1_555
O8 C39 1_555 1_555
N5 Zn1 1_555 1_555
C9 H3 1_555 1_555
C10 H4 1_555 1_555
C11 N4 1_555 1_555
C12 H5 1_555 1_555
C13 H6 1_555 1_555
C14 H7 1_555 1_555
C15 N5 1_555 1_555
C16 C4 1_555 1_555
H8 C16 1_555 1_555
C17 N5 1_555 1_555
H9 C17 1_555 1_555
C18 C3 1_555 1_555
H10 C18 1_555 1_555
C20 N3 1_555 1_555
C22 C19 1_555 1_555
H12 C22 1_555 1_555
C23 N2 1_555 1_555
C24 C13 1_555 1_555
C25 C18 1_555 1_555
C26 C25 1_555 1_555
C28 C4 1_555 1_555
C29 N3 1_555 1_555
H14 C29 1_555 1_555
C30 C11 1_555 1_555
H15 C30 1_555 1_555
C31 C9 1_555 1_555
H16 C31 1_555 1_555
C32 O7 1_555 1_555
C33 C5 1_555 1_555
H17 C33 1_555 1_555
C34 C12 1_555 1_555
H18 C34 1_555 1_555
C36 C6 1_555 1_555
C37 H20 1_555 1_555
C38 C22 1_555 1_555
C39 C37 1_555 1_555
C40 O8 1_555 1_555
H21 C40 1_555 1_555
N6 Zn2 1_555 1_555
C41 C37 1_555 1_555
H22 C41 1_555 1_555
C42 C36 1_555 1_555
O9 C42 1_555 1_555
O10 C42 1_555 1_555
Zn4 O6 1_555 1_555
Zn5 O9 1_555 1_555
O11 Zn1 1_555 1_555
O12 Zn2 1_555 1_555
O13 Zn2 1_555 1_555
O14 Zn2 1_555 1_555
C3 N6 1_555 1_555
C5 C20 1_555 1_555
C6 C20 1_555 1_555
N4 C19 1_555 1_555
C9 N6 1_555 1_555
C10 C17 1_555 1_555
C12 C32 1_555 1_555
C13 C23 1_555 1_555
C14 C29 1_555 1_555
C14 C36 1_555 1_555
C15 C16 1_555 1_555
C15 C23 1_555 1_555
C24 C32 1_555 1_555
C24 C33 1_555 1_555
C25 C31 1_555 1_555
C27 C34 1_555 1_555
C30 C38 1_555 1_555
C38 C39 1_555 1_555
C40 C41 1_555 1_555
O10 Zn5 1_555 1_555
O11 C7 1_555 1_555
O4 C7 1_555 1_555
C1 H1 1_555 1_555
C7 C8 1_555 1_555
C8 C21 1_555 1_555
C21 C2 1_555 1_555
H11 C21 1_555 1_555
C35 C1 1_555 1_555
H19 C35 1_555 1_555
C8 C35 1_555 1_555
C14_2 H7_2 1_555 1_555
H14_2 C29_2 1_555 1_555
C42_2 C36_2 1_555 1_555
O9_2 C42_2 1_555 1_555
O10_2 C42_2 1_555 1_555
Zn5_2 O9_2 1_555 1_555
C14_2 C29_2 1_555 1_555
C14_2 C36_2 1_555 1_555
O10_2 Zn5_2 1_555 1_555
Zn1_2 O3_2 1_555 1_555
O2_2 C28_2 1_555 1_555
O12 C28_2 1_555 1_555
N2_2 Zn1_2 1_555 1_555
N3_2 Zn1_2 1_555 1_555
C4_2 C10_2 1_555 1_555
O7_2 C27_2 1_555 1_555
C5_2 N2_2 1_555 1_555
C6_2 H2_2 1_555 1_555
N5_2 Zn1_2 1_555 1_555
C10_2 H4_2 1_555 1_555
C12_2 H5_2 1_555 1_555
C13_2 H6_2 1_555 1_555
C15_2 N5_2 1_555 1_555
C16_2 C4_2 1_555 1_555
H8_2 C16_2 1_555 1_555
C17_2 N5_2 1_555 1_555
H9_2 C17_2 1_555 1_555
C20_2 N3_2 1_555 1_555
C23_2 N2_2 1_555 1_555
C24_2 C13_2 1_555 1_555
C28_2 C4_2 1_555 1_555
C32_2 O7_2 1_555 1_555
C33_2 C5_2 1_555 1_555
H17_2 C33_2 1_555 1_555
C34_2 C12_2 1_555 1_555
H18_2 C34_2 1_555 1_555
O11_2 Zn1_2 1_555 1_555
C5_2 C20_2 1_555 1_555
C6_2 C20_2 1_555 1_555
C10_2 C17_2 1_555 1_555
C12_2 C32_2 1_555 1_555
C13_2 C23_2 1_555 1_555
C15_2 C16_2 1_555 1_555
C15_2 C23_2 1_555 1_555
C24_2 C32_2 1_555 1_555
C24_2 C33_2 1_555 1_555
C27_2 C34_2 1_555 1_555
Zn4 N1_2 1_555 1_555
O11_2 C7_2 1_555 1_555
N1_2 C1_2 1_555 1_555
O4_2 C7_2 1_555 1_555
C1_2 H1_2 1_555 1_555
C2_2 N1_2 1_555 1_555
C3_2 C11_2 1_555 1_555
C7_2 C8_2 1_555 1_555
N4_2 Zn4 1_555 1_555
C8_2 C21_2 1_555 1_555
C9_2 H3_2 1_555 1_555
C11_2 N4_2 1_555 1_555
C18_2 C3_2 1_555 1_555
H10_2 C18_2 1_555 1_555
C19_2 C2_2 1_555 1_555
C21_2 C2_2 1_555 1_555
H11_2 C21_2 1_555 1_555
C22_2 C19_2 1_555 1_555
H12_2 C22_2 1_555 1_555
C25_2 C18_2 1_555 1_555
C26_2 C25_2 1_555 1_555
C30_2 C11_2 1_555 1_555
C31_2 C9_2 1_555 1_555
H16_2 C31_2 1_555 1_555
C35_2 C1_2 1_555 1_555
H19_2 C35_2 1_555 1_555
N6_2 Zn4 1_555 1_555
O13_2 Zn4 1_555 1_555
O14_2 Zn4 1_555 1_555
C3_2 N6_2 1_555 1_555
N4_2 C19_2 1_555 1_555
C8_2 C35_2 1_555 1_555
C9_2 N6_2 1_555 1_555
C25_2 C31_2 1_555 1_555
Zn1_3 O3_3 1_555 1_555
O6_2 C28_3 1_555 1_555
N2_3 Zn1_3 1_555 1_555
N3_3 Zn1_3 1_555 1_555
O7_3 C27_3 1_555 1_555
C5_3 N2_3 1_555 1_555
C6_3 H2_3 1_555 1_555
N5_3 Zn1_3 1_555 1_555
C12_3 H5_3 1_555 1_555
C13_3 H6_3 1_555 1_555
C14_3 H7_3 1_555 1_555
C15_3 N5_3 1_555 1_555
C16_3 C4_3 1_555 1_555
H8_3 C16_3 1_555 1_555
C17_3 N5_3 1_555 1_555
C20_3 N3_3 1_555 1_555
C23_3 N2_3 1_555 1_555
C24_3 C13_3 1_555 1_555
C27_3 H13_2 1_555 1_555
C28_3 C4_3 1_555 1_555
C29_3 N3_3 1_555 1_555
H14_3 C29_3 1_555 1_555
C32_3 O7_3 1_555 1_555
C33_3 C5_3 1_555 1_555
H17_3 C33_3 1_555 1_555
C34_3 C12_3 1_555 1_555
H18_3 C34_3 1_555 1_555
C36_3 C6_3 1_555 1_555
C42_3 C36_3 1_555 1_555
O13 C42_3 1_555 1_555
O14 C42_3 1_555 1_555
Zn5_2 O6_2 1_555 1_555
O11_3 Zn1_3 1_555 1_555
C5_3 C20_3 1_555 1_555
C6_3 C20_3 1_555 1_555
C12_3 C32_3 1_555 1_555
C13_3 C23_3 1_555 1_555
C14_3 C29_3 1_555 1_555
C14_3 C36_3 1_555 1_555
C15_3 C16_3 1_555 1_555
C15_3 C23_3 1_555 1_555
C24_3 C32_3 1_555 1_555
C24_3 C33_3 1_555 1_555
C27_3 C34_3 1_555 1_555
O11_3 C7_3 1_555 1_555
C3_3 C11_3 1_555 1_555
O8_2 C39_2 1_555 1_555
C11_3 N4_3 1_555 1_555
C18_3 C3_3 1_555 1_555
H10_3 C18_3 1_555 1_555
C19_3 C2_3 1_555 1_555
C21_3 C2_3 1_555 1_555
H11_3 C21_3 1_555 1_555
C22_3 C19_3 1_555 1_555
H12_3 C22_3 1_555 1_555
C25_3 C18_3 1_555 1_555
C26_3 C25_3 1_555 1_555
C30_3 C11_3 1_555 1_555
H15_2 C30_3 1_555 1_555
C37_2 H20_2 1_555 1_555
C38_2 C22_3 1_555 1_555
C39_2 C37_2 1_555 1_555
C40_2 O8_2 1_555 1_555
H21_2 C40_2 1_555 1_555
C41_2 C37_2 1_555 1_555
H22_2 C41_2 1_555 1_555
N4_3 C19_3 1_555 1_555
C30_3 C38_2 1_555 1_555
C38_2 C39_2 1_555 1_555
C40_2 C41_2 1_555 1_555
Zn5 N1_3 1_555 1_555
N1_3 C1_3 1_555 1_555
C1_3 H1_3 1_555 1_555
C9_3 H3_3 1_555 1_555
C31_3 C9_3 1_555 1_555
H16_3 C31_3 1_555 1_555
C35_3 C1_3 1_555 1_555
H19_3 C35_3 1_555 1_555
N6_3 Zn5 1_555 1_555
O12_2 Zn5 1_555 1_555
C8_3 C35_3 1_555 1_555
C9_3 N6_3 1_555 1_555
Zn5_2 N1_4 1_555 1_555
C9_4 H3_4 1_555 1_555
C10_3 H4_3 1_555 1_555
C31_4 C9_4 1_555 1_555
H16_4 C31_4 1_555 1_555
N6_4 Zn5_2 1_555 1_555
C9_4 N6_4 1_555 1_555
Zn1_4 O3_4 1_555 1_555
O3_4 C26_4 1_555 1_555
O5_4 C26_4 1_555 1_555
O12_2 C28_4 1_555 1_555
N2_4 Zn1_4 1_555 1_555
N3_4 Zn1_4 1_555 1_555
C3_4 C11_4 1_555 1_555
O7_4 C27_4 1_555 1_555
C5_4 N2_4 1_555 1_555
C6_4 H2_4 1_555 1_555
N5_4 Zn1_4 1_555 1_555
C11_4 N4_4 1_555 1_555
C12_4 H5_4 1_555 1_555
C13_4 H6_4 1_555 1_555
C15_4 N5_4 1_555 1_555
C16_4 C4_4 1_555 1_555
H8_4 C16_4 1_555 1_555
C17_4 N5_4 1_555 1_555
C18_4 C3_4 1_555 1_555
H10_4 C18_4 1_555 1_555
C20_4 N3_4 1_555 1_555
C22_4 C19_4 1_555 1_555
H12_4 C22_4 1_555 1_555
C23_4 N2_4 1_555 1_555
C24_4 C13_4 1_555 1_555
C25_4 C18_4 1_555 1_555
C26_4 C25_4 1_555 1_555
C27_4 H13_3 1_555 1_555
C28_4 C4_4 1_555 1_555
C30_4 C11_4 1_555 1_555
C32_4 O7_4 1_555 1_555
C33_4 C5_4 1_555 1_555
H17_4 C33_4 1_555 1_555
C34_4 C12_4 1_555 1_555
H18_4 C34_4 1_555 1_555
O11_4 Zn1_4 1_555 1_555
C5_4 C20_4 1_555 1_555
C6_4 C20_4 1_555 1_555
N4_4 C19_4 1_555 1_555
C12_4 C32_4 1_555 1_555
C13_4 C23_4 1_555 1_555
C15_4 C16_4 1_555 1_555
C15_4 C23_4 1_555 1_555
C24_4 C32_4 1_555 1_555
C24_4 C33_4 1_555 1_555
C27_4 C34_4 1_555 1_555
O8_3 C39_3 1_555 1_555
C14_4 H7_4 1_555 1_555
H14_4 C29_4 1_555 1_555
C37_3 H20_3 1_555 1_555
C39_3 C37_3 1_555 1_555
C40_3 O8_3 1_555 1_555
H21_3 C40_3 1_555 1_555
C41_3 C37_3 1_555 1_555
H22_3 C41_3 1_555 1_555
C42_4 C36_4 1_555 1_555
O13_2 C42_4 1_555 1_555
O14_2 C42_4 1_555 1_555
C14_4 C29_4 1_555 1_555
C14_4 C36_4 1_555 1_555
C38_3 C39_3 1_555 1_555
C40_3 C41_3 1_555 1_555
O11_4 C7_4 1_555 1_555
C21_4 C2_4 1_555 1_555
H11_4 C21_4 1_555 1_555
Zn2_2 N1_5 1_555 1_555
N1_5 C1_4 1_555 1_555
C1_4 H1_4 1_555 1_555
C9_5 H3_5 1_555 1_555
C31_5 C9_5 1_555 1_555
H16_5 C31_5 1_555 1_555
C35_4 C1_4 1_555 1_555
H19_4 C35_4 1_555 1_555
N6_5 Zn2_2 1_555 1_555
O12_3 Zn2_2 1_555 1_555
O13_3 Zn2_2 1_555 1_555
O14_3 Zn2_2 1_555 1_555
C8_4 C35_4 1_555 1_555
C9_5 N6_5 1_555 1_555
O1 C7_5 1_555 1_555
C3_5 C11_5 1_555 1_555
O8_4 C39_4 1_555 1_555
C11_5 N4_5 1_555 1_555
C18_5 C3_5 1_555 1_555
H10_5 C18_5 1_555 1_555
C19_5 C2_5 1_555 1_555
C21_5 C2_5 1_555 1_555
H11_5 C21_5 1_555 1_555
C22_5 C19_5 1_555 1_555
H12_5 C22_5 1_555 1_555
C25_5 C18_5 1_555 1_555
C26_5 C25_5 1_555 1_555
C30_5 C11_5 1_555 1_555
H15_4 C30_5 1_555 1_555
C37_4 H20_4 1_555 1_555
C38_4 C22_5 1_555 1_555
C39_4 C37_4 1_555 1_555
C40_4 O8_4 1_555 1_555
H21_4 C40_4 1_555 1_555
C41_4 C37_4 1_555 1_555
H22_4 C41_4 1_555 1_555
Zn3 O1 1_555 1_555
N4_5 C19_5 1_555 1_555
C30_5 C38_4 1_555 1_555
C38_4 C39_4 1_555 1_555
C40_4 C41_4 1_555 1_555
Zn3 O3_5 1_555 1_555
O6_3 C28_5 1_555 1_555
N2_5 Zn3 1_555 1_555
N3_5 Zn3 1_555 1_555
O7_5 C27_5 1_555 1_555
C5_5 N2_5 1_555 1_555
C6_5 H2_5 1_555 1_555
N5_5 Zn3 1_555 1_555
C12_5 H5_5 1_555 1_555
C13_5 H6_5 1_555 1_555
C14_5 H7_5 1_555 1_555
C15_5 N5_5 1_555 1_555
C16_5 C4_5 1_555 1_555
H8_5 C16_5 1_555 1_555
C17_5 N5_5 1_555 1_555
C20_5 N3_5 1_555 1_555
C23_5 N2_5 1_555 1_555
C24_5 C13_5 1_555 1_555
C27_5 H13_4 1_555 1_555
C28_5 C4_5 1_555 1_555
C29_5 N3_5 1_555 1_555
H14_5 C29_5 1_555 1_555
C32_5 O7_5 1_555 1_555
C33_5 C5_5 1_555 1_555
H17_5 C33_5 1_555 1_555
C34_5 C12_5 1_555 1_555
H18_5 C34_5 1_555 1_555
C36_5 C6_5 1_555 1_555
C42_5 C36_5 1_555 1_555
O9_3 C42_5 1_555 1_555
O10_3 C42_5 1_555 1_555
Zn4_2 O6_3 1_555 1_555
Zn5_3 O9_3 1_555 1_555
C5_5 C20_5 1_555 1_555
C6_5 C20_5 1_555 1_555
C12_5 C32_5 1_555 1_555
C13_5 C23_5 1_555 1_555
C14_5 C29_5 1_555 1_555
C14_5 C36_5 1_555 1_555
C15_5 C16_5 1_555 1_555
C15_5 C23_5 1_555 1_555
C24_5 C32_5 1_555 1_555
C24_5 C33_5 1_555 1_555
C27_5 C34_5 1_555 1_555
O10_3 Zn5_3 1_555 1_555
O1_2 C7_6 1_555 1_555
C21_6 C2_6 1_555 1_555
H11_6 C21_6 1_555 1_555
Zn3_2 O1_2 1_555 1_555
O8_5 C39_5 1_555 1_555
C14_6 H7_6 1_555 1_555
H14_6 C29_6 1_555 1_555
C37_5 H20_5 1_555 1_555
C39_5 C37_5 1_555 1_555
C40_5 O8_5 1_555 1_555
H21_5 C40_5 1_555 1_555
C41_5 C37_5 1_555 1_555
H22_5 C41_5 1_555 1_555
C42_6 C36_6 1_555 1_555
O9_4 C42_6 1_555 1_555
O10_4 C42_6 1_555 1_555
Zn5_4 O9_4 1_555 1_555
C14_6 C29_6 1_555 1_555
C14_6 C36_6 1_555 1_555
C38_5 C39_5 1_555 1_555
C40_5 C41_5 1_555 1_555
O10_4 Zn5_4 1_555 1_555
Zn3_2 O3_6 1_555 1_555
O3_6 C26_6 1_555 1_555
O5_6 C26_6 1_555 1_555
O12_3 C28_6 1_555 1_555
N2_6 Zn3_2 1_555 1_555
N3_6 Zn3_2 1_555 1_555
C3_6 C11_6 1_555 1_555
O7_6 C27_6 1_555 1_555
C5_6 N2_6 1_555 1_555
C6_6 H2_6 1_555 1_555
N5_6 Zn3_2 1_555 1_555
C11_6 N4_6 1_555 1_555
C12_6 H5_6 1_555 1_555
C13_6 H6_6 1_555 1_555
C15_6 N5_6 1_555 1_555
C16_6 C4_6 1_555 1_555
H8_6 C16_6 1_555 1_555
C17_6 N5_6 1_555 1_555
C18_6 C3_6 1_555 1_555
H10_6 C18_6 1_555 1_555
C20_6 N3_6 1_555 1_555
C22_6 C19_6 1_555 1_555
H12_6 C22_6 1_555 1_555
C23_6 N2_6 1_555 1_555
C24_6 C13_6 1_555 1_555
C25_6 C18_6 1_555 1_555
C26_6 C25_6 1_555 1_555
C27_6 H13_5 1_555 1_555
C28_6 C4_6 1_555 1_555
C30_6 C11_6 1_555 1_555
C32_6 O7_6 1_555 1_555
C33_6 C5_6 1_555 1_555
H17_6 C33_6 1_555 1_555
C34_6 C12_6 1_555 1_555
H18_6 C34_6 1_555 1_555
C5_6 C20_6 1_555 1_555
C6_6 C20_6 1_555 1_555
N4_6 C19_6 1_555 1_555
C12_6 C32_6 1_555 1_555
C13_6 C23_6 1_555 1_555
C15_6 C16_6 1_555 1_555
C15_6 C23_6 1_555 1_555
C24_6 C32_6 1_555 1_555
C24_6 C33_6 1_555 1_555
C27_6 C34_6 1_555 1_555
Zn4_2 N1_6 1_555 1_555
C9_6 H3_6 1_555 1_555
C10_4 H4_4 1_555 1_555
C31_6 C9_6 1_555 1_555
H16_6 C31_6 1_555 1_555
N6_6 Zn4_2 1_555 1_555
O13_4 Zn4_2 1_555 1_555
O14_4 Zn4_2 1_555 1_555
C9_6 N6_6 1_555 1_555
O1_3 C7_7 1_555 1_555
O4_5 C7_7 1_555 1_555
C1_5 H1_5 1_555 1_555
C7_7 C8_5 1_555 1_555
C8_5 C21_7 1_555 1_555
C21_7 C2_7 1_555 1_555
H11_7 C21_7 1_555 1_555
C35_5 C1_5 1_555 1_555
H19_5 C35_5 1_555 1_555
Zn3_3 O1_3 1_555 1_555
C8_5 C35_5 1_555 1_555
Zn3_3 O3_7 1_555 1_555
Zn5_3 N1_7 1_555 1_555
O2_5 C28_7 1_555 1_555
O3_7 C26_7 1_555 1_555
O5_7 C26_7 1_555 1_555
O6_4 C28_7 1_555 1_555
N2_7 Zn3_3 1_555 1_555
N3_7 Zn3_3 1_555 1_555
C3_7 C11_7 1_555 1_555
C4_7 C10_5 1_555 1_555
O7_7 C27_7 1_555 1_555
C5_7 N2_7 1_555 1_555
C6_7 H2_7 1_555 1_555
N4_7 Zn5_3 1_555 1_555
O8_6 C39_6 1_555 1_555
N5_7 Zn3_3 1_555 1_555
C9_7 H3_7 1_555 1_555
C10_5 H4_5 1_555 1_555
C11_7 N4_7 1_555 1_555
C12_7 H5_7 1_555 1_555
C13_7 H6_7 1_555 1_555
C14_7 H7_7 1_555 1_555
C15_7 N5_7 1_555 1_555
C16_7 C4_7 1_555 1_555
H8_7 C16_7 1_555 1_555
C17_7 N5_7 1_555 1_555
H9_5 C17_7 1_555 1_555
C18_7 C3_7 1_555 1_555
H10_7 C18_7 1_555 1_555
C20_7 N3_7 1_555 1_555
C22_7 C19_7 1_555 1_555
H12_7 C22_7 1_555 1_555
C23_7 N2_7 1_555 1_555
C24_7 C13_7 1_555 1_555
C25_7 C18_7 1_555 1_555
C26_7 C25_7 1_555 1_555
C28_7 C4_7 1_555 1_555
C29_7 N3_7 1_555 1_555
H14_7 C29_7 1_555 1_555
C30_7 C11_7 1_555 1_555
H15_6 C30_7 1_555 1_555
C31_7 C9_7 1_555 1_555
H16_7 C31_7 1_555 1_555
C32_7 O7_7 1_555 1_555
C33_7 C5_7 1_555 1_555
H17_7 C33_7 1_555 1_555
C34_7 C12_7 1_555 1_555
H18_7 C34_7 1_555 1_555
C36_7 C6_7 1_555 1_555
C37_6 H20_6 1_555 1_555
C38_6 C22_7 1_555 1_555
C39_6 C37_6 1_555 1_555
C40_6 O8_6 1_555 1_555
H21_6 C40_6 1_555 1_555
N6_7 Zn5_3 1_555 1_555
C41_6 C37_6 1_555 1_555
H22_6 C41_6 1_555 1_555
C42_7 C36_7 1_555 1_555
O13_3 C42_7 1_555 1_555
O14_3 C42_7 1_555 1_555
Zn5_4 O6_4 1_555 1_555
O12_4 Zn5_3 1_555 1_555
C3_7 N6_7 1_555 1_555
C5_7 C20_7 1_555 1_555
C6_7 C20_7 1_555 1_555
N4_7 C19_7 1_555 1_555
C9_7 N6_7 1_555 1_555
C10_5 C17_7 1_555 1_555
C12_7 C32_7 1_555 1_555
C13_7 C23_7 1_555 1_555
C14_7 C29_7 1_555 1_555
C14_7 C36_7 1_555 1_555
C15_7 C16_7 1_555 1_555
C15_7 C23_7 1_555 1_555
C24_7 C32_7 1_555 1_555
C24_7 C33_7 1_555 1_555
C25_7 C31_7 1_555 1_555
C27_7 C34_7 1_555 1_555
C30_7 C38_6 1_555 1_555
C38_6 C39_6 1_555 1_555
C40_6 C41_6 1_555 1_555
Zn5_4 N1_8 1_555 1_555
O1_4 C7_8 1_555 1_555
N1_8 C1_6 1_555 1_555
O4_6 C7_8 1_555 1_555
C1_6 H1_6 1_555 1_555
C2_8 N1_8 1_555 1_555
C3_8 C11_8 1_555 1_555
C7_8 C8_6 1_555 1_555
N4_8 Zn5_4 1_555 1_555
C8_6 C21_8 1_555 1_555
C9_8 H3_8 1_555 1_555
C11_8 N4_8 1_555 1_555
C18_8 C3_8 1_555 1_555
H10_8 C18_8 1_555 1_555
C19_8 C2_8 1_555 1_555
C21_8 C2_8 1_555 1_555
H11_8 C21_8 1_555 1_555
C22_8 C19_8 1_555 1_555
H12_8 C22_8 1_555 1_555
C25_8 C18_8 1_555 1_555
C26_8 C25_8 1_555 1_555
C30_8 C11_8 1_555 1_555
C31_8 C9_8 1_555 1_555
H16_8 C31_8 1_555 1_555
C35_6 C1_6 1_555 1_555
H19_6 C35_6 1_555 1_555
N6_8 Zn5_4 1_555 1_555
Zn3_4 O1_4 1_555 1_555
C3_8 N6_8 1_555 1_555
N4_8 C19_8 1_555 1_555
C8_6 C35_6 1_555 1_555
C9_8 N6_8 1_555 1_555
C25_8 C31_8 1_555 1_555
Zn3_4 O3_8 1_555 1_555
O2_6 C28_8 1_555 1_555
O12_4 C28_8 1_555 1_555
N2_8 Zn3_4 1_555 1_555
N3_8 Zn3_4 1_555 1_555
C4_8 C10_6 1_555 1_555
O7_8 C27_8 1_555 1_555
C5_8 N2_8 1_555 1_555
C6_8 H2_8 1_555 1_555
N5_8 Zn3_4 1_555 1_555
C10_6 H4_6 1_555 1_555
C12_8 H5_8 1_555 1_555
C13_8 H6_8 1_555 1_555
C15_8 N5_8 1_555 1_555
C16_8 C4_8 1_555 1_555
H8_8 C16_8 1_555 1_555
C17_8 N5_8 1_555 1_555
H9_6 C17_8 1_555 1_555
C20_8 N3_8 1_555 1_555
C23_8 N2_8 1_555 1_555
C24_8 C13_8 1_555 1_555
C28_8 C4_8 1_555 1_555
C32_8 O7_8 1_555 1_555
C33_8 C5_8 1_555 1_555
H17_8 C33_8 1_555 1_555
C34_8 C12_8 1_555 1_555
H18_8 C34_8 1_555 1_555
C5_8 C20_8 1_555 1_555
C6_8 C20_8 1_555 1_555
C10_6 C17_8 1_555 1_555
C12_8 C32_8 1_555 1_555
C13_8 C23_8 1_555 1_555
C15_8 C16_8 1_555 1_555
C15_8 C23_8 1_555 1_555
C24_8 C32_8 1_555 1_555
C24_8 C33_8 1_555 1_555
C27_8 C34_8 1_555 1_555
C14_8 H7_8 1_555 1_555
H14_8 C29_8 1_555 1_555
C42_8 C36_8 1_555 1_555
O13_4 C42_8 1_555 1_555
O14_4 C42_8 1_555 1_555
C14_8 C29_8 1_555 1_555
C14_8 C36_8 1_555 1_555
C10_7 H4_7 1_555 1_555
O8_7 C39_7 1_555 1_555
C37_7 H20_7 1_555 1_555
C39_7 C37_7 1_555 1_555
C40_7 O8_7 1_555 1_555
H21_7 C40_7 1_555 1_555
C41_7 C37_7 1_555 1_555
H22_7 C41_7 1_555 1_555
C38_7 C39_7 1_555 1_555
C40_7 C41_7 1_555 1_555
C1_7 H1_7 1_555 1_555
C35_7 C1_7 1_555 1_555
H19_7 C35_7 1_555 1_555
C8_7 C35_7 1_555 1_555
C10_8 H4_8 1_555 1_555
O8_8 C39_8 1_555 1_555
C37_8 H20_8 1_555 1_555
C39_8 C37_8 1_555 1_555
C40_8 O8_8 1_555 1_555
H21_8 C40_8 1_555 1_555
C41_8 C37_8 1_555 1_555
H22_8 C41_8 1_555 1_555
C38_8 C39_8 1_555 1_555
C40_8 C41_8 1_555 1_555
C1_8 H1_8 1_555 1_555
C35_8 C1_8 1_555 1_555
H19_8 C35_8 1_555 1_555
C8_8 C35_8 1_555 1_555

#END
