
###############################################################################
#
# This file contains modified crystal structure data generated from the
# MOF subset of the Cambridge Structural Database (CSD) v543 
# hosted by the Cambridge Crystallographic Data Centre (CCDC).
#
# This work is licensed under the Creative Commons
# Attribution-NonCommercial-ShareAlike 4.0 International License.
# To view a copy of this license, visit
# http://creativecommons.org/licenses/by-nc-sa/4.0/
# or send a letter to
# Creative Commons, PO Box 1866, Mountain View, CA 94042, USA.
#
# CIF created using the CSD Python API on 29 September 2022
# The structure has been converted into the P1 space group
# The structure has a 3D framework
# The original CSD entry TACWUS is in the monoclinic crystal system
# The framework has been calculated to contain at least 10.0% void space
# The void calculation uses a probe of radius 1.32A, grid spacing 0.4
# The framework is charged, counterions have been retained in the structure
#
###############################################################################

data_TACWUS
_chemical_formula_moiety         '(C240 H200 Mn8 N47 O60)n'
_symmetry_cell_setting           triclinic
_symmetry_space_group_name_H-M   'P 1'
_symmetry_Int_Tables_number      1
_space_group_name_Hall           'P 1'
loop_
_symmetry_equiv_pos_site_id
_symmetry_equiv_pos_as_xyz
1 x,y,z
_cell_length_a                   15.802(5)
_cell_length_b                   23.455(5)
_cell_length_c                   18.506(5)
_cell_angle_alpha                90
_cell_angle_beta                 105.896(5)
_cell_angle_gamma                90
_cell_volume                     6596.7
loop_
_atom_site_label
_atom_site_type_symbol
_atom_site_fract_x
_atom_site_fract_y
_atom_site_fract_z
O10 O 0.1375(3) 0.7657(2) 0.0057(2)
H10 H 0.1911 0.7892 0.0165
Mn1 Mn 0.60168(5) 0.56996(4) 0.84232(4)
Mn2 Mn 0.10070(5) 0.70960(3) 0.90401(4)
N1 N 0.5603(3) 0.6417(2) 0.7585(3)
N2 N 0.4818(3) 0.7148(2) 0.7024(3)
N3 N 0.1583(3) 0.7720(2) 0.8379(3)
N4 N 0.2324(3) 0.8011(2) 0.7591(3)
N5 N 0.2098(3) 0.8774(2) 0.4145(3)
N6 N 0.2857(3) 0.8322(2) 0.5151(3)
N7 N 0.4891(3) 0.5122(2) 0.7885(3)
N8 N 0.3533(3) 0.4809(2) 0.7429(3)
N9 N 0.0611(3) 0.6478(2) 0.8070(3)
N10 N 0.0792(3) 0.5718(2) 0.7423(3)
N11 N 0.0588(4) 0.3610(3) 0.4689(3)
N12 N 0.0870(3) 0.4303(2) 0.5523(3)
O6 O 0.6864(3) 0.5384(2) 0.7740(2)
H1 H 0.6845 0.5347 0.7299
H2 H 0.7324 0.5185 0.8080
O7 O 0.6560(3) 0.5019(2) 0.9238(3)
H3 H 0.7032 0.4840 0.9296
H4 H 0.6236 0.4791 0.8806
O8 O 0.5178(3) 0.6025(2) 0.9078(3)
H5 H 0.4857 0.5767 0.9357
H6 H 0.4952 0.6398 0.9035
O9 O 0.2330(3) 0.67048(18) 0.9365(3)
H7 H 0.2547 0.6339 0.9422
H8 H 0.2847 0.6972 0.9519
H9 H 0.0960 0.7965 0.9959
C1 C 0.3867(4) 0.7766(3) 0.6109(3)
H11 H 0.4192 0.7688 0.5771
C2 C 0.4107(4) 0.7535(3) 0.6826(3)
C3 C 0.3632(4) 0.7648(3) 0.7330(3)
H12 H 0.3818 0.7509 0.7819
C4 C 0.2881(4) 0.7970(2) 0.7102(3)
C5 C 0.2615(4) 0.8214(3) 0.6390(3)
H13 H 0.2108 0.8434 0.6243
C6 C 0.3132(4) 0.8117(2) 0.5907(3)
C7 C 0.5424(5) 0.7015(3) 0.6635(4)
H14 H 0.5491 0.7197 0.6207
C8 C 0.5894(5) 0.6578(3) 0.6991(4)
H15 H 0.6357 0.6406 0.6852
C9 C 0.4974(4) 0.6769(3) 0.7599(3)
H16 H 0.4666 0.6762 0.7961
C10 C 0.3101(7) 0.8113(5) 0.4545(5)
H17 H 0.3510 0.7826 0.4554
C11 C 0.2649(6) 0.8393(4) 0.3947(5)
H18 H 0.2698 0.8340 0.3462
C12 C 0.2201(5) 0.8686(3) 0.4848(3)
H19 H 0.1856 0.8857 0.5120
C13 C 0.2193(4) 0.7601(3) 0.8049(3)
H20 H 0.2508 0.7261 0.8126
C14 C 0.1746(6) 0.8436(4) 0.7632(6)
H21 H 0.1669 0.8783 0.7379
C15 C 0.1311(6) 0.8245(3) 0.8117(5)
H22 H 0.0875 0.8450 0.8255
C16 C 0.2199(4) 0.4529(3) 0.6498(3)
H23 H 0.2517 0.4277 0.6286
C17 C 0.2601(4) 0.4841(3) 0.7141(3)
C18 C 0.2138(4) 0.5207(3) 0.7464(3)
H24 H 0.2414 0.5393 0.7910
C19 C 0.1256(4) 0.5296(2) 0.7122(3)
C20 C 0.0820(4) 0.4996(3) 0.6484(3)
H25 H 0.0222 0.5052 0.6263
C21 C 0.1295(4) 0.4613(3) 0.6184(3)
C22 C 0.4066(4) 0.5242(3) 0.7771(4)
H26 H 0.3861 0.5586 0.7909
C23 C 0.4908(4) 0.4579(3) 0.7609(4)
H27 H 0.5415 0.4374 0.7620
C24 C 0.4090(5) 0.4389(3) 0.7324(4)
H28 H 0.3927 0.4038 0.7096
C25 C 0.1165(4) 0.6101(3) 0.7953(3)
H29 H 0.1760 0.6098 0.8211
C28 C 0.1121(4) 0.3785(3) 0.5336(3)
H32 H 0.1600 0.3580 0.5621
C30 C 0.0142(5) 0.4467(4) 0.4984(5)
Mn3 Mn 0.10168(5) 0.93004(4) 0.34232(4)
Mn4 Mn 0.10070(5) 0.29040(3) 0.40401(4)
N13 N 0.7098(3) 0.6226(2) 0.9145(3)
N14 N 0.0588(4) 0.6390(3) 0.9689(3)
Mn1_2 Mn 0.60168(5) 0.43004(4) 0.34232(4)
N1_2 N 0.5603(3) 0.3583(2) 0.2585(3)
N2_2 N 0.4818(3) 0.2852(2) 0.2024(3)
N3_2 N 0.1583(3) 0.2280(2) 0.3379(3)
N4_2 N 0.2324(3) 0.1989(2) 0.2591(3)
N6_2 N 0.2857(3) 0.1678(2) 0.0151(3)
N7_2 N 0.4891(3) 0.4878(2) 0.2885(3)
N8_2 N 0.3533(3) 0.5191(2) 0.2429(3)
N9_2 N 0.0611(3) 0.3522(2) 0.3070(3)
N10_2 N 0.0792(3) 0.4282(2) 0.2423(3)
N12_2 N 0.0870(3) 0.5697(2) 0.0523(3)
O6_2 O 0.6864(3) 0.4616(2) 0.2740(2)
H1_2 H 0.6845 0.4653 0.2299
H2_2 H 0.7324 0.4815 0.3080
O7_2 O 0.6560(3) 0.4981(2) 0.4238(3)
H3_2 H 0.7032 0.5160 0.4296
H4_2 H 0.6236 0.5209 0.3806
O8_2 O 0.5178(3) 0.3975(2) 0.4078(3)
H5_2 H 0.4857 0.4233 0.4357
H6_2 H 0.4952 0.3602 0.4035
O9_2 O 0.2330(3) 0.32952(18) 0.4365(3)
H7_2 H 0.2547 0.3661 0.4422
H8_2 H 0.2847 0.3028 0.4519
O10_2 O 0.1375(3) 0.2343(2) 0.5057(2)
H9_2 H 0.0960 0.2035 0.4959
H10_2 H 0.1911 0.2108 0.5165
C1_2 C 0.3867(4) 0.2234(3) 0.1109(3)
H11_2 H 0.4192 0.2312 0.0771
C2_2 C 0.4107(4) 0.2465(3) 0.1826(3)
C3_2 C 0.3632(4) 0.2352(3) 0.2330(3)
H12_2 H 0.3818 0.2491 0.2819
C4_2 C 0.2881(4) 0.2030(2) 0.2102(3)
C5_2 C 0.2615(4) 0.1786(3) 0.1390(3)
H13_2 H 0.2108 0.1566 0.1243
C6_2 C 0.3132(4) 0.1883(2) 0.0907(3)
C7_2 C 0.5424(5) 0.2985(3) 0.1635(4)
H14_2 H 0.5491 0.2803 0.1207
C8_2 C 0.5894(5) 0.3422(3) 0.1991(4)
H15_2 H 0.6357 0.3594 0.1852
C9_2 C 0.4974(4) 0.3231(3) 0.2599(3)
H16_2 H 0.4666 0.3238 0.2961
H19_2 H 0.1856 0.1143 0.0120
C13_2 C 0.2193(4) 0.2399(3) 0.3049(3)
H20_2 H 0.2508 0.2739 0.3126
C14_2 C 0.1746(6) 0.1564(4) 0.2632(6)
H21_2 H 0.1669 0.1217 0.2379
C15_2 C 0.1311(6) 0.1755(3) 0.3117(5)
H22_2 H 0.0875 0.1550 0.3255
C16_2 C 0.2199(4) 0.5471(3) 0.1498(3)
H23_2 H 0.2517 0.5723 0.1286
C17_2 C 0.2601(4) 0.5159(3) 0.2141(3)
C18_2 C 0.2138(4) 0.4793(3) 0.2464(3)
H24_2 H 0.2414 0.4607 0.2910
C19_2 C 0.1256(4) 0.4704(2) 0.2122(3)
C20_2 C 0.0820(4) 0.5004(3) 0.1484(3)
H25_2 H 0.0222 0.4948 0.1263
C21_2 C 0.1295(4) 0.5387(3) 0.1184(3)
C22_2 C 0.4066(4) 0.4758(3) 0.2771(4)
H26_2 H 0.3861 0.4414 0.2909
C23_2 C 0.4908(4) 0.5421(3) 0.2609(4)
H27_2 H 0.5415 0.5626 0.2620
C24_2 C 0.4090(5) 0.5611(3) 0.2324(4)
H28_2 H 0.3927 0.5962 0.2096
C25_2 C 0.1165(4) 0.3899(3) 0.2953(3)
H29_2 H 0.1760 0.3902 0.3211
C28_2 C 0.1121(4) 0.6215(3) 0.0336(3)
H32_2 H 0.1600 0.6420 0.0621
N13_2 N 0.7098(3) 0.3774(2) 0.4145(3)
N5_2 N 0.2098(3) 0.1226(2) 0.9145(3)
C10_2 C 0.3101(7) 0.1887(5) 0.9545(5)
H17_2 H 0.3510 0.2174 0.9554
C11_2 C 0.2649(6) 0.1607(4) 0.8947(5)
H18_2 H 0.2698 0.1660 0.8462
C12_2 C 0.2201(5) 0.1314(3) 0.9848(3)
C30_2 C 0.0142(5) 0.5533(4) 0.9984(5)
Mn3_2 Mn 0.10168(5) 0.06996(4) 0.84232(4)
N1_3 N 0.0603(3) 0.1417(2) 0.7585(3)
O6_3 O 0.1864(3) 0.0384(2) 0.7740(2)
H1_3 H 0.1845 0.0347 0.7299
H2_3 H 0.2324 0.0185 0.8080
O7_3 O 0.1560(3) 0.0019(2) 0.9238(3)
O8_3 O 0.0178(3) 0.1025(2) 0.9078(3)
C7_3 C 0.0424(5) 0.2015(3) 0.6635(4)
H14_3 H 0.0491 0.2197 0.6207
C8_3 C 0.0894(5) 0.1578(3) 0.6991(4)
H15_3 H 0.1357 0.1406 0.6852
Mn2_2 Mn 0.60070(5) 0.20960(3) 0.90401(4)
N2_3 N 0.9818(3) 0.2148(2) 0.7024(3)
N3_3 N 0.6583(3) 0.2720(2) 0.8379(3)
N4_3 N 0.7324(3) 0.3011(2) 0.7591(3)
N6_3 N 0.7857(3) 0.3322(2) 0.5151(3)
N7_3 N 0.9891(3) 0.0122(2) 0.7885(3)
N9_3 N 0.5611(3) 0.1478(2) 0.8070(3)
N10_3 N 0.5792(3) 0.0718(2) 0.7423(3)
O1 O 0.4752(3) 0.25083(19) 0.8707(3)
O2 O 0.4890(3) 0.3246(2) 0.9478(3)
O3 O 0.0609(3) 0.3489(2) 0.6713(3)
H5_3 H 0.9857 0.0767 0.9357
H6_3 H 0.9952 0.1398 0.9035
O9_3 O 0.7330(3) 0.17048(18) 0.9365(3)
H7_3 H 0.7547 0.1339 0.9422
H8_3 H 0.7847 0.1972 0.9519
H9_3 H 0.5960 0.2965 0.9959
C1_3 C 0.8867(4) 0.2766(3) 0.6109(3)
H11_3 H 0.9192 0.2688 0.5771
C2_3 C 0.9107(4) 0.2535(3) 0.6826(3)
C3_3 C 0.8632(4) 0.2648(3) 0.7330(3)
H12_3 H 0.8818 0.2509 0.7819
C4_3 C 0.7881(4) 0.2970(2) 0.7102(3)
C5_3 C 0.7615(4) 0.3214(3) 0.6390(3)
H13_3 H 0.7108 0.3434 0.6243
C6_3 C 0.8132(4) 0.3117(2) 0.5907(3)
C9_3 C 0.9974(4) 0.1769(3) 0.7599(3)
H16_3 H 0.9666 0.1762 0.7961
C10_3 C 0.8101(7) 0.3113(5) 0.4545(5)
H17_3 H 0.8510 0.2826 0.4554
C11_3 C 0.7649(6) 0.3393(4) 0.3947(5)
H18_3 H 0.7698 0.3340 0.3462
C12_3 C 0.7201(5) 0.3686(3) 0.4848(3)
H19_3 H 0.6856 0.3857 0.5120
C13_3 C 0.7193(4) 0.2601(3) 0.8049(3)
H20_3 H 0.7508 0.2261 0.8126
C14_3 C 0.6746(6) 0.3436(4) 0.7632(6)
H21_3 H 0.6669 0.3783 0.7379
C15_3 C 0.6311(6) 0.3245(3) 0.8117(5)
H22_3 H 0.5875 0.3450 0.8255
C18_3 C 0.7138(4) 0.0207(3) 0.7464(3)
H24_3 H 0.7414 0.0393 0.7910
C19_3 C 0.6256(4) 0.0296(2) 0.7122(3)
H25_3 H 0.5222 0.0052 0.6263
C22_3 C 0.9066(4) 0.0242(3) 0.7771(4)
H26_3 H 0.8861 0.0586 0.7909
C25_3 C 0.6165(4) 0.1101(3) 0.7953(3)
H29_3 H 0.6760 0.1098 0.8211
C26 C 0.4830(4) 0.1334(3) 0.7588(4)
H30 H 0.4305 0.1529 0.7540
C27 C 0.4915(4) 0.0866(4) 0.7183(5)
H31 H 0.4475 0.0683 0.6819
C31 C 0.4473(4) 0.2957(3) 0.8940(4)
C32 C 0.3558(4) 0.3141(3) 0.8523(4)
C33 C 0.3148(4) 0.3591(3) 0.8757(4)
H35 H 0.3469 0.3809 0.9158
C34 C 0.2295(5) 0.3736(3) 0.8432(4)
H36 H 0.2025 0.4026 0.8630
C35 C 0.1828(4) 0.3432(3) 0.7785(4)
C36 C 0.2245(5) 0.3005(3) 0.7509(5)
H37 H 0.1952 0.2813 0.7073
C37 C 0.3103(5) 0.2861(3) 0.7881(5)
H38 H 0.3379 0.2568 0.7693
C38 C 0.0883(4) 0.3570(3) 0.7379(4)
C39 C 0.0285(4) 0.3801(3) 0.7819(4)
C44 C 0.0405(4) 0.3648(3) 0.8570(4)
H42 H 0.0886 0.3426 0.8814
N14_2 N 0.5588(4) 0.1390(3) 0.9689(3)
N1_4 N 0.0603(3) 0.8583(2) 0.2585(3)
O6_4 O 0.1864(3) 0.9616(2) 0.2740(2)
H1_4 H 0.1845 0.9653 0.2299
H2_4 H 0.2324 0.9815 0.3080
O7_4 O 0.1560(3) 0.9981(2) 0.4238(3)
O8_4 O 0.0178(3) 0.8975(2) 0.4078(3)
C7_4 C 0.0424(5) 0.7985(3) 0.1635(4)
H14_4 H 0.0491 0.7803 0.1207
C8_4 C 0.0894(5) 0.8422(3) 0.1991(4)
H15_4 H 0.1357 0.8594 0.1852
C29 C 0.4983(6) 0.0958(4) 0.9463(5)
H33 H 0.4531 0.0957 0.9018
C30_3 C 0.5142(5) 0.0533(4) 0.9984(5)
H34 H 0.4819 0.0200 0.9973
C10_4 C 0.8101(7) 0.6887(5) 0.9545(5)
H17_4 H 0.8510 0.7174 0.9554
C11_4 C 0.7649(6) 0.6607(4) 0.8947(5)
H18_4 H 0.7698 0.6660 0.8462
C12_4 C 0.7201(5) 0.6314(3) 0.9848(3)
O1_2 O 0.9752(3) 0.75083(19) 0.8707(3)
O2_2 O 0.9890(3) 0.8246(2) 0.9478(3)
O3_2 O 0.5609(3) 0.8489(2) 0.6713(3)
O4 O 0.3669(4) 0.9249(3) 0.9719(3)
O5 O 0.2882(4) 0.9694(4) 0.8726(4)
C26_2 C 0.9830(4) 0.6334(3) 0.7588(4)
H30_2 H 0.9305 0.6529 0.7540
C27_2 C 0.9915(4) 0.5866(4) 0.7183(5)
H31_2 H 0.9475 0.5683 0.6819
C29_2 C 0.9983(6) 0.4042(4) 0.4463(5)
H33_2 H 0.9531 0.4043 0.4018
H34_2 H 0.9819 0.4800 0.4973
C31_2 C 0.9473(4) 0.7957(3) 0.8940(4)
C32_2 C 0.8558(4) 0.8141(3) 0.8523(4)
C33_2 C 0.8148(4) 0.8591(3) 0.8757(4)
H35_2 H 0.8469 0.8809 0.9158
C34_2 C 0.7295(5) 0.8736(3) 0.8432(4)
H36_2 H 0.7025 0.9026 0.8630
C35_2 C 0.6828(4) 0.8432(3) 0.7785(4)
C36_2 C 0.7245(5) 0.8005(3) 0.7509(5)
H37_2 H 0.6952 0.7813 0.7073
C37_2 C 0.8103(5) 0.7861(3) 0.7881(5)
H38_2 H 0.8379 0.7568 0.7693
C38_2 C 0.5883(4) 0.8570(3) 0.7379(4)
C39_2 C 0.5285(4) 0.8801(3) 0.7819(4)
C40 C 0.4570(4) 0.9136(3) 0.7465(4)
H39 H 0.4468 0.9226 0.6959
C41 C 0.4013(5) 0.9335(3) 0.7859(4)
H40 H 0.3555 0.9577 0.7622
C42 C 0.4116(4) 0.9181(3) 0.8615(4)
C43 C 0.4803(5) 0.8828(3) 0.8957(4)
H41 H 0.4869 0.8708 0.9448
C44_2 C 0.5405(4) 0.8648(3) 0.8570(4)
H42_2 H 0.5886 0.8426 0.8814
C45 C 0.3502(5) 0.9379(3) 0.9047(5)
O1_3 O 0.9752(3) 0.24917(19) 0.3707(3)
O2_3 O 0.9890(3) 0.1754(2) 0.4478(3)
O3_3 O 0.5609(3) 0.1511(2) 0.1713(3)
O4_2 O 0.3669(4) 0.0751(3) 0.4719(3)
O5_2 O 0.2882(4) 0.0306(4) 0.3726(4)
C26_3 C 0.9830(4) 0.3666(3) 0.2588(4)
H30_3 H 0.9305 0.3471 0.2540
C27_3 C 0.9915(4) 0.4134(4) 0.2183(5)
H31_3 H 0.9475 0.4317 0.1819
C31_3 C 0.9473(4) 0.2043(3) 0.3940(4)
C32_3 C 0.8558(4) 0.1859(3) 0.3523(4)
C33_3 C 0.8148(4) 0.1409(3) 0.3757(4)
H35_3 H 0.8469 0.1191 0.4158
C34_3 C 0.7295(5) 0.1264(3) 0.3432(4)
H36_3 H 0.7025 0.0974 0.3630
C35_3 C 0.6828(4) 0.1568(3) 0.2785(4)
C36_3 C 0.7245(5) 0.1995(3) 0.2509(5)
H37_3 H 0.6952 0.2187 0.2073
C37_3 C 0.8103(5) 0.2139(3) 0.2881(5)
H38_3 H 0.8379 0.2432 0.2693
C38_3 C 0.5883(4) 0.1430(3) 0.2379(4)
C39_3 C 0.5285(4) 0.1199(3) 0.2819(4)
C40_2 C 0.4570(4) 0.0864(3) 0.2465(4)
H39_2 H 0.4468 0.0774 0.1959
C41_2 C 0.4013(5) 0.0665(3) 0.2859(4)
H40_2 H 0.3555 0.0423 0.2622
C42_2 C 0.4116(4) 0.0819(3) 0.3615(4)
C43_2 C 0.4803(5) 0.1172(3) 0.3957(4)
H41_2 H 0.4869 0.1292 0.4448
C44_3 C 0.5405(4) 0.1352(3) 0.3570(4)
H42_3 H 0.5886 0.1574 0.3814
C45_2 C 0.3502(5) 0.0621(3) 0.4047(5)
C29_3 C 0.9983(6) 0.5958(4) 0.9463(5)
H33_3 H 0.9531 0.5957 0.9018
H34_3 H 0.9819 0.5200 0.9973
H3_3 H 0.2032 0.9840 0.9296
H4_3 H 0.1236 0.9791 0.8806
H27_3 H 0.0415 0.9374 0.7620
O10_3 O 0.6375(3) 0.2657(2) 0.0057(2)
H10_3 H 0.6911 0.2892 0.0165
N8_3 N 0.8533(3) 0.9809(2) 0.7429(3)
N11_2 N 0.5588(4) 0.8610(3) 0.4689(3)
N12_3 N 0.5870(3) 0.9303(2) 0.5523(3)
C16_3 C 0.7199(4) 0.9529(3) 0.6498(3)
H23_3 H 0.7517 0.9277 0.6286
C17_3 C 0.7601(4) 0.9841(3) 0.7141(3)
C20_3 C 0.5820(4) 0.9996(3) 0.6484(3)
C21_3 C 0.6295(4) 0.9613(3) 0.6184(3)
C23_3 C 0.9908(4) 0.9579(3) 0.7609(4)
C24_3 C 0.9090(5) 0.9389(3) 0.7324(4)
H28_3 H 0.8927 0.9038 0.7096
C28_3 C 0.6121(4) 0.8785(3) 0.5336(3)
H32_3 H 0.6600 0.8580 0.5621
C29_4 C 0.4983(6) 0.9042(4) 0.4463(5)
H33_4 H 0.4531 0.9043 0.4018
C30_4 C 0.5142(5) 0.9467(4) 0.4984(5)
H34_4 H 0.4819 0.9800 0.4973
Mn4_2 Mn 0.60070(5) 0.79040(3) 0.40401(4)
N2_4 N 0.9818(3) 0.7852(2) 0.2024(3)
N3_4 N 0.6583(3) 0.7280(2) 0.3379(3)
N4_4 N 0.7324(3) 0.6989(2) 0.2591(3)
N6_4 N 0.7857(3) 0.6678(2) 0.0151(3)
N7_4 N 0.9891(3) 0.9878(2) 0.2885(3)
N9_4 N 0.5611(3) 0.8522(2) 0.3070(3)
N10_4 N 0.5792(3) 0.9282(2) 0.2423(3)
O1_4 O 0.4752(3) 0.74917(19) 0.3707(3)
O2_4 O 0.4890(3) 0.6754(2) 0.4478(3)
O3_4 O 0.0609(3) 0.6511(2) 0.1713(3)
H5_4 H 0.9857 0.9233 0.4357
H6_4 H 0.9952 0.8602 0.4035
O9_4 O 0.7330(3) 0.82952(18) 0.4365(3)
H7_4 H 0.7547 0.8661 0.4422
H8_4 H 0.7847 0.8028 0.4519
O10_4 O 0.6375(3) 0.7343(2) 0.5057(2)
H9_4 H 0.5960 0.7035 0.4959
H10_4 H 0.6911 0.7108 0.5165
C1_4 C 0.8867(4) 0.7234(3) 0.1109(3)
H11_4 H 0.9192 0.7312 0.0771
C2_4 C 0.9107(4) 0.7465(3) 0.1826(3)
C3_4 C 0.8632(4) 0.7352(3) 0.2330(3)
H12_4 H 0.8818 0.7491 0.2819
C4_4 C 0.7881(4) 0.7030(2) 0.2102(3)
C5_4 C 0.7615(4) 0.6786(3) 0.1390(3)
H13_4 H 0.7108 0.6566 0.1243
C6_4 C 0.8132(4) 0.6883(2) 0.0907(3)
C9_4 C 0.9974(4) 0.8231(3) 0.2599(3)
H16_4 H 0.9666 0.8238 0.2961
H19_4 H 0.6856 0.6143 0.0120
C13_4 C 0.7193(4) 0.7399(3) 0.3049(3)
H20_4 H 0.7508 0.7739 0.3126
C14_4 C 0.6746(6) 0.6564(4) 0.2632(6)
H21_4 H 0.6669 0.6217 0.2379
C15_4 C 0.6311(6) 0.6755(3) 0.3117(5)
H22_4 H 0.5875 0.6550 0.3255
C18_4 C 0.7138(4) 0.9793(3) 0.2464(3)
H24_4 H 0.7414 0.9607 0.2910
C19_4 C 0.6256(4) 0.9704(2) 0.2122(3)
H25_4 H 0.5222 0.9948 0.1263
C22_4 C 0.9066(4) 0.9758(3) 0.2771(4)
H26_4 H 0.8861 0.9414 0.2909
C25_4 C 0.6165(4) 0.8899(3) 0.2953(3)
H29_4 H 0.6760 0.8902 0.3211
C26_4 C 0.4830(4) 0.8666(3) 0.2588(4)
H30_4 H 0.4305 0.8471 0.2540
C27_4 C 0.4915(4) 0.9134(4) 0.2183(5)
H31_4 H 0.4475 0.9317 0.1819
C31_4 C 0.4473(4) 0.7043(3) 0.3940(4)
C32_4 C 0.3558(4) 0.6859(3) 0.3523(4)
C33_4 C 0.3148(4) 0.6409(3) 0.3757(4)
H35_4 H 0.3469 0.6191 0.4158
C34_4 C 0.2295(5) 0.6264(3) 0.3432(4)
H36_4 H 0.2025 0.5974 0.3630
C35_4 C 0.1828(4) 0.6568(3) 0.2785(4)
C36_4 C 0.2245(5) 0.6995(3) 0.2509(5)
H37_4 H 0.1952 0.7187 0.2073
C37_4 C 0.3103(5) 0.7139(3) 0.2881(5)
H38_4 H 0.3379 0.7432 0.2693
C38_4 C 0.0883(4) 0.6430(3) 0.2379(4)
C39_4 C 0.0285(4) 0.6199(3) 0.2819(4)
C44_4 C 0.0405(4) 0.6352(3) 0.3570(4)
H42_4 H 0.0886 0.6574 0.3814
O4_3 O 0.8669(4) 0.4249(3) 0.9719(3)
O5_3 O 0.7882(4) 0.4694(4) 0.8726(4)
C40_3 C 0.9570(4) 0.4136(3) 0.7465(4)
H39_3 H 0.9468 0.4226 0.6959
C41_3 C 0.9013(5) 0.4335(3) 0.7859(4)
H40_3 H 0.8555 0.4577 0.7622
C42_3 C 0.9116(4) 0.4181(3) 0.8615(4)
C43_3 C 0.9803(5) 0.3828(3) 0.8957(4)
H41_3 H 0.9869 0.3708 0.9448
C45_3 C 0.8502(5) 0.4379(3) 0.9047(5)
H3_4 H 0.2032 0.0160 0.4296
H4_4 H 0.1236 0.0209 0.3806
H27_4 H 0.0415 0.0626 0.2620
N8_4 N 0.8533(3) 0.0191(2) 0.2429(3)
N12_4 N 0.5870(3) 0.0697(2) 0.0523(3)
C16_4 C 0.7199(4) 0.0471(3) 0.1498(3)
H23_4 H 0.7517 0.0723 0.1286
C17_4 C 0.7601(4) 0.0159(3) 0.2141(3)
C20_4 C 0.5820(4) 0.0004(3) 0.1484(3)
C21_4 C 0.6295(4) 0.0387(3) 0.1184(3)
C23_4 C 0.9908(4) 0.0421(3) 0.2609(4)
C24_4 C 0.9090(5) 0.0611(3) 0.2324(4)
H28_4 H 0.8927 0.0962 0.2096
C28_4 C 0.6121(4) 0.1215(3) 0.0336(3)
H32_4 H 0.6600 0.1420 0.0621
O4_4 O 0.8669(4) 0.5751(3) 0.4719(3)
O5_4 O 0.7882(4) 0.5306(4) 0.3726(4)
C40_4 C 0.9570(4) 0.5864(3) 0.2465(4)
H39_4 H 0.9468 0.5774 0.1959
C41_4 C 0.9013(5) 0.5665(3) 0.2859(4)
H40_4 H 0.8555 0.5423 0.2622
C42_4 C 0.9116(4) 0.5819(3) 0.3615(4)
C43_4 C 0.9803(5) 0.6172(3) 0.3957(4)
H41_4 H 0.9869 0.6292 0.4448
C45_4 C 0.8502(5) 0.5621(3) 0.4047(5)
O11 O 0.4372(4) 0.4696(2) 0.4718(3)
O12 O 0.3003(3) 0.43716(19) 0.4247(3)
O13 O 0.2726(3) 0.64677(19) 0.7064(2)
C46 C 0.3540(4) 0.4702(3) 0.4655(4)
C47 C 0.3245(4) 0.5142(2) 0.5115(3)
C48 C 0.3848(4) 0.5411(3) 0.5706(4)
H43 H 0.4438 0.5308 0.5823
C49 C 0.3583(4) 0.5835(3) 0.6129(4)
H44 H 0.3987 0.6007 0.6531
C50 C 0.2701(4) 0.5993(3) 0.5933(3)
C51 C 0.2108(4) 0.5728(3) 0.5333(3)
H45 H 0.1524 0.5847 0.5191
C52 C 0.2371(4) 0.5294(3) 0.4947(3)
H46 H 0.1958 0.5102 0.4570
C53 C 0.2409(4) 0.6437(3) 0.6392(4)
C54 C 0.1688(4) 0.6832(3) 0.5996(3)
C55 C 0.1658(4) 0.7044(3) 0.5294(3)
H47 H 0.2111 0.6963 0.5077
C56 C 0.0946(4) 0.7382(3) 0.4906(4)
H48 H 0.0948 0.7549 0.4450
C57 C 0.0248(4) 0.7466(3) 0.5200(4)
C58 C 0.0296(4) 0.7269(3) 0.5910(3)
C59 C 0.1010(5) 0.6958(3) 0.6310(4)
H50 H 0.1037 0.6833 0.6792
O14 O 0.9409(3) 0.7950(2) 0.4106(2)
O15 O 0.8755(3) 0.7716(2) 0.4988(3)
H49 H 0.9839 0.7347 0.6123
C60 C 0.9405(4) 0.7733(3) 0.4719(4)
O13_2 O 0.2726(3) 0.35323(19) 0.2064(2)
C47_2 C 0.3245(4) 0.4858(2) 0.0115(3)
C48_2 C 0.3848(4) 0.4589(3) 0.0706(4)
H43_2 H 0.4438 0.4692 0.0823
C49_2 C 0.3583(4) 0.4165(3) 0.1129(4)
H44_2 H 0.3987 0.3993 0.1531
C50_2 C 0.2701(4) 0.4007(3) 0.0933(3)
C51_2 C 0.2108(4) 0.4272(3) 0.0333(3)
H45_2 H 0.1524 0.4153 0.0191
C53_2 C 0.2409(4) 0.3563(3) 0.1392(4)
C54_2 C 0.1688(4) 0.3168(3) 0.0996(3)
C55_2 C 0.1658(4) 0.2956(3) 0.0294(3)
H47_2 H 0.2111 0.3037 0.0077
C57_2 C 0.0248(4) 0.2534(3) 0.0200(4)
C58_2 C 0.0296(4) 0.2731(3) 0.0910(3)
C59_2 C 0.1010(5) 0.3042(3) 0.1310(4)
H50_2 H 0.1037 0.3167 0.1792
O11_2 O 0.4372(4) 0.5304(2) 0.9718(3)
O12_2 O 0.3003(3) 0.56284(19) 0.9247(3)
C46_2 C 0.3540(4) 0.5298(3) 0.9655(4)
C52_2 C 0.2371(4) 0.4706(3) 0.9947(3)
H46_2 H 0.1958 0.4898 0.9570
C56_2 C 0.0946(4) 0.2618(3) 0.9906(4)
H48_2 H 0.0948 0.2451 0.9450
H49_2 H 0.9839 0.2653 0.1123
O14_2 O 0.9409(3) 0.2050(2) 0.9106(2)
O15_2 O 0.8755(3) 0.2284(2) 0.9988(3)
C60_2 C 0.9405(4) 0.2267(3) 0.9719(4)
O13_3 O 0.7726(3) 0.14677(19) 0.7064(2)
O14_3 O 0.4409(3) 0.2950(2) 0.4106(2)
O15_3 O 0.3755(3) 0.2716(2) 0.4988(3)
C47_3 C 0.8245(4) 0.0142(2) 0.5115(3)
C48_3 C 0.8848(4) 0.0411(3) 0.5706(4)
H43_3 H 0.9438 0.0308 0.5823
C49_3 C 0.8583(4) 0.0835(3) 0.6129(4)
H44_3 H 0.8987 0.1007 0.6531
C50_3 C 0.7701(4) 0.0993(3) 0.5933(3)
C51_3 C 0.7108(4) 0.0728(3) 0.5333(3)
H45_3 H 0.6524 0.0847 0.5191
C52_3 C 0.7371(4) 0.0294(3) 0.4947(3)
H46_3 H 0.6958 0.0102 0.4570
C53_3 C 0.7409(4) 0.1437(3) 0.6392(4)
C54_3 C 0.6688(4) 0.1832(3) 0.5996(3)
C55_3 C 0.6658(4) 0.2044(3) 0.5294(3)
H47_3 H 0.7111 0.1963 0.5077
C56_3 C 0.5946(4) 0.2382(3) 0.4906(4)
H48_3 H 0.5948 0.2549 0.4450
C57_3 C 0.5248(4) 0.2466(3) 0.5200(4)
C58_3 C 0.5296(4) 0.2269(3) 0.5910(3)
H49_3 H 0.4839 0.2347 0.6123
C59_3 C 0.6010(5) 0.1958(3) 0.6310(4)
H50_3 H 0.6037 0.1833 0.6792
C60_3 C 0.4405(4) 0.2733(3) 0.4719(4)
O11_3 O 0.9372(4) 0.9696(2) 0.4718(3)
O12_3 O 0.8003(3) 0.93716(19) 0.4247(3)
C46_3 C 0.8540(4) 0.9702(3) 0.4655(4)
O11_4 O 0.9372(4) 0.0304(2) 0.9718(3)
O12_4 O 0.8003(3) 0.06284(19) 0.9247(3)
C46_4 C 0.8540(4) 0.0298(3) 0.9655(4)
O13_4 O 0.7726(3) 0.85323(19) 0.2064(2)
C47_4 C 0.8245(4) 0.9858(2) 0.0115(3)
C48_4 C 0.8848(4) 0.9589(3) 0.0706(4)
H43_4 H 0.9438 0.9692 0.0823
C49_4 C 0.8583(4) 0.9165(3) 0.1129(4)
H44_4 H 0.8987 0.8993 0.1531
C50_4 C 0.7701(4) 0.9007(3) 0.0933(3)
C51_4 C 0.7108(4) 0.9272(3) 0.0333(3)
H45_4 H 0.6524 0.9153 0.0191
C53_4 C 0.7409(4) 0.8563(3) 0.1392(4)
C54_4 C 0.6688(4) 0.8168(3) 0.0996(3)
C55_4 C 0.6658(4) 0.7956(3) 0.0294(3)
H47_4 H 0.7111 0.8037 0.0077
C57_4 C 0.5248(4) 0.7534(3) 0.0200(4)
C58_4 C 0.5296(4) 0.7731(3) 0.0910(3)
H49_4 H 0.4839 0.7653 0.1123
C59_4 C 0.6010(5) 0.8042(3) 0.1310(4)
H50_4 H 0.6037 0.8167 0.1792
O14_4 O 0.4409(3) 0.7050(2) 0.9106(2)
O15_4 O 0.3755(3) 0.7284(2) 0.9988(3)
C52_4 C 0.7371(4) 0.9706(3) 0.9947(3)
H46_4 H 0.6958 0.9898 0.9570
C56_4 C 0.5946(4) 0.7618(3) 0.9906(4)
H48_4 H 0.5948 0.7451 0.9450
C60_4 C 0.4405(4) 0.7267(3) 0.9719(4)
loop_
_geom_bond_atom_site_label_1
_geom_bond_atom_site_label_2
_geom_bond_site_symmetry_1
_geom_bond_site_symmetry_2
H10 O10 1_555 1_555
Mn1 N1 1_555 1_555
Mn2 N3 1_555 1_555
N1 C8 1_555 1_555
N2 C2 1_555 1_555
N3 C13 1_555 1_555
N4 C4 1_555 1_555
N5 C11 1_555 1_555
N6 C6 1_555 1_555
N7 Mn1 1_555 1_555
N8 C17 1_555 1_555
N9 Mn2 1_555 1_555
N10 C19 1_555 1_555
N11 C28 1_555 1_555
N12 C21 1_555 1_555
O6 Mn1 1_555 1_555
H1 O6 1_555 1_555
H2 O6 1_555 1_555
O7 Mn1 1_555 1_555
H3 O7 1_555 1_555
H4 O7 1_555 1_555
O8 Mn1 1_555 1_555
H5 O8 1_555 1_555
H6 O8 1_555 1_555
O9 Mn2 1_555 1_555
H7 O9 1_555 1_555
H8 O9 1_555 1_555
C1 H11 1_555 1_555
C2 C1 1_555 1_555
C3 C2 1_555 1_555
H12 C3 1_555 1_555
C4 C3 1_555 1_555
C5 C4 1_555 1_555
H13 C5 1_555 1_555
C6 C1 1_555 1_555
C7 N2 1_555 1_555
H14 C7 1_555 1_555
C8 C7 1_555 1_555
H15 C8 1_555 1_555
C9 N1 1_555 1_555
H16 C9 1_555 1_555
C10 N6 1_555 1_555
H17 C10 1_555 1_555
C11 C10 1_555 1_555
H18 C11 1_555 1_555
C12 N5 1_555 1_555
H19 C12 1_555 1_555
C13 N4 1_555 1_555
H20 C13 1_555 1_555
C14 N4 1_555 1_555
H21 C14 1_555 1_555
C15 N3 1_555 1_555
H22 C15 1_555 1_555
C16 H23 1_555 1_555
C17 C16 1_555 1_555
C18 C17 1_555 1_555
H24 C18 1_555 1_555
C19 C18 1_555 1_555
C20 C19 1_555 1_555
H25 C20 1_555 1_555
C21 C16 1_555 1_555
C22 N7 1_555 1_555
H26 C22 1_555 1_555
C23 N7 1_555 1_555
H27 C23 1_555 1_555
C24 N8 1_555 1_555
H28 C24 1_555 1_555
C25 N9 1_555 1_555
H29 C25 1_555 1_555
C28 N12 1_555 1_555
H32 C28 1_555 1_555
C30 N12 1_555 1_555
Mn3 N5 1_555 1_555
Mn4 N11 1_555 1_555
N13 Mn1 1_555 1_555
N14 Mn2 1_555 1_555
N2 C9 1_555 1_555
N6 C12 1_555 1_555
N8 C22 1_555 1_555
N10 C25 1_555 1_555
C5 C6 1_555 1_555
C14 C15 1_555 1_555
C20 C21 1_555 1_555
C23 C24 1_555 1_555
Mn1_2 N1_2 1_555 1_555
Mn4 N3_2 1_555 1_555
N1_2 C8_2 1_555 1_555
N2_2 C2_2 1_555 1_555
N3_2 C13_2 1_555 1_555
N4_2 C4_2 1_555 1_555
N6_2 C6_2 1_555 1_555
N7_2 Mn1_2 1_555 1_555
N8_2 C17_2 1_555 1_555
N9_2 Mn4 1_555 1_555
N10_2 C19_2 1_555 1_555
N12_2 C21_2 1_555 1_555
O6_2 Mn1_2 1_555 1_555
H1_2 O6_2 1_555 1_555
H2_2 O6_2 1_555 1_555
O7_2 Mn1_2 1_555 1_555
H3_2 O7_2 1_555 1_555
H4_2 O7_2 1_555 1_555
O8_2 Mn1_2 1_555 1_555
H5_2 O8_2 1_555 1_555
H6_2 O8_2 1_555 1_555
O9_2 Mn4 1_555 1_555
H7_2 O9_2 1_555 1_555
H8_2 O9_2 1_555 1_555
O10_2 Mn4 1_555 1_555
H9_2 O10_2 1_555 1_555
H10_2 O10_2 1_555 1_555
C1_2 H11_2 1_555 1_555
C2_2 C1_2 1_555 1_555
C3_2 C2_2 1_555 1_555
H12_2 C3_2 1_555 1_555
C4_2 C3_2 1_555 1_555
C5_2 C4_2 1_555 1_555
H13_2 C5_2 1_555 1_555
C6_2 C1_2 1_555 1_555
C7_2 N2_2 1_555 1_555
H14_2 C7_2 1_555 1_555
C8_2 C7_2 1_555 1_555
H15_2 C8_2 1_555 1_555
C9_2 N1_2 1_555 1_555
H16_2 C9_2 1_555 1_555
C13_2 N4_2 1_555 1_555
H20_2 C13_2 1_555 1_555
C14_2 N4_2 1_555 1_555
H21_2 C14_2 1_555 1_555
C15_2 N3_2 1_555 1_555
H22_2 C15_2 1_555 1_555
C16_2 H23_2 1_555 1_555
C17_2 C16_2 1_555 1_555
C18_2 C17_2 1_555 1_555
H24_2 C18_2 1_555 1_555
C19_2 C18_2 1_555 1_555
C20_2 C19_2 1_555 1_555
H25_2 C20_2 1_555 1_555
C21_2 C16_2 1_555 1_555
C22_2 N7_2 1_555 1_555
H26_2 C22_2 1_555 1_555
C23_2 N7_2 1_555 1_555
H27_2 C23_2 1_555 1_555
C24_2 N8_2 1_555 1_555
H28_2 C24_2 1_555 1_555
C25_2 N9_2 1_555 1_555
H29_2 C25_2 1_555 1_555
C28_2 N12_2 1_555 1_555
H32_2 C28_2 1_555 1_555
N13_2 Mn1_2 1_555 1_555
N2_2 C9_2 1_555 1_555
N8_2 C22_2 1_555 1_555
N10_2 C25_2 1_555 1_555
C5_2 C6_2 1_555 1_555
C14_2 C15_2 1_555 1_555
C20_2 C21_2 1_555 1_555
C23_2 C24_2 1_555 1_555
N5_2 C11_2 1_555 1_555
H17_2 C10_2 1_555 1_555
C11_2 C10_2 1_555 1_555
H18_2 C11_2 1_555 1_555
C12_2 N5_2 1_555 1_555
Mn3_2 N5_2 1_555 1_555
Mn3_2 N1_3 1_555 1_555
N1_3 C8_3 1_555 1_555
O6_3 Mn3_2 1_555 1_555
H1_3 O6_3 1_555 1_555
H2_3 O6_3 1_555 1_555
O7_3 Mn3_2 1_555 1_555
O8_3 Mn3_2 1_555 1_555
H14_3 C7_3 1_555 1_555
C8_3 C7_3 1_555 1_555
H15_3 C8_3 1_555 1_555
Mn2_2 N3_3 1_555 1_555
N2_3 C2_3 1_555 1_555
N3_3 C13_3 1_555 1_555
N4_3 C4_3 1_555 1_555
N13_2 C11_3 1_555 1_555
N6_3 C6_3 1_555 1_555
N9_3 Mn2_2 1_555 1_555
N10_3 C19_3 1_555 1_555
O1 Mn2_2 1_555 1_555
O2 C31 1_555 1_555
O3 C38 1_555 1_555
O9_3 Mn2_2 1_555 1_555
H7_3 O9_3 1_555 1_555
H8_3 O9_3 1_555 1_555
C1_3 H11_3 1_555 1_555
C2_3 C1_3 1_555 1_555
C3_3 C2_3 1_555 1_555
H12_3 C3_3 1_555 1_555
C4_3 C3_3 1_555 1_555
C5_3 C4_3 1_555 1_555
H13_3 C5_3 1_555 1_555
C6_3 C1_3 1_555 1_555
H16_3 C9_3 1_555 1_555
C10_3 N6_3 1_555 1_555
H17_3 C10_3 1_555 1_555
C11_3 C10_3 1_555 1_555
H18_3 C11_3 1_555 1_555
C12_3 N13_2 1_555 1_555
H19_3 C12_3 1_555 1_555
C13_3 N4_3 1_555 1_555
H20_3 C13_3 1_555 1_555
C14_3 N4_3 1_555 1_555
H21_3 C14_3 1_555 1_555
C15_3 N3_3 1_555 1_555
H22_3 C15_3 1_555 1_555
H24_3 C18_3 1_555 1_555
C19_3 C18_3 1_555 1_555
C22_3 N7_3 1_555 1_555
H26_3 C22_3 1_555 1_555
C25_3 N9_3 1_555 1_555
H29_3 C25_3 1_555 1_555
C26 N9_3 1_555 1_555
H30 C26 1_555 1_555
C27 N10_3 1_555 1_555
H31 C27 1_555 1_555
C31 O1 1_555 1_555
C32 C31 1_555 1_555
C33 C32 1_555 1_555
H35 C33 1_555 1_555
C34 C33 1_555 1_555
H36 C34 1_555 1_555
C35 C34 1_555 1_555
C36 C35 1_555 1_555
H37 C36 1_555 1_555
C37 C32 1_555 1_555
H38 C37 1_555 1_555
C38 C35 1_555 1_555
C39 C38 1_555 1_555
C44 C39 1_555 1_555
H42 C44 1_555 1_555
N14_2 Mn2_2 1_555 1_555
N2_3 C9_3 1_555 1_555
N6_3 C12_3 1_555 1_555
N10_3 C25_3 1_555 1_555
C5_3 C6_3 1_555 1_555
C14_3 C15_3 1_555 1_555
C26 C27 1_555 1_555
C36 C37 1_555 1_555
Mn3 N1_4 1_555 1_555
N1_4 C8_4 1_555 1_555
O6_4 Mn3 1_555 1_555
H1_4 O6_4 1_555 1_555
H2_4 O6_4 1_555 1_555
O7_4 Mn3 1_555 1_555
O8_4 Mn3 1_555 1_555
H14_4 C7_4 1_555 1_555
C8_4 C7_4 1_555 1_555
H15_4 C8_4 1_555 1_555
C29 N14_2 1_555 1_555
H33 C29 1_555 1_555
H34 C30_3 1_555 1_555
C29 C30_3 1_555 1_555
N13 C11_4 1_555 1_555
H17_4 C10_4 1_555 1_555
C11_4 C10_4 1_555 1_555
H18_4 C11_4 1_555 1_555
C12_4 N13 1_555 1_555
O2_2 C31_2 1_555 1_555
O3_2 C38_2 1_555 1_555
O4 C45 1_555 1_555
O5 C45 1_555 1_555
H30_2 C26_2 1_555 1_555
H31_2 C27_2 1_555 1_555
H33_2 C29_2 1_555 1_555
C31_2 O1_2 1_555 1_555
C32_2 C31_2 1_555 1_555
C33_2 C32_2 1_555 1_555
H35_2 C33_2 1_555 1_555
C34_2 C33_2 1_555 1_555
H36_2 C34_2 1_555 1_555
C35_2 C34_2 1_555 1_555
C36_2 C35_2 1_555 1_555
H37_2 C36_2 1_555 1_555
C37_2 C32_2 1_555 1_555
H38_2 C37_2 1_555 1_555
C38_2 C35_2 1_555 1_555
C39_2 C38_2 1_555 1_555
C40 C39_2 1_555 1_555
H39 C40 1_555 1_555
C41 C40 1_555 1_555
H40 C41 1_555 1_555
C42 C41 1_555 1_555
C43 C42 1_555 1_555
H41 C43 1_555 1_555
C44_2 C39_2 1_555 1_555
H42_2 C44_2 1_555 1_555
C45 C42 1_555 1_555
C26_2 C27_2 1_555 1_555
C36_2 C37_2 1_555 1_555
C43 C44_2 1_555 1_555
O2_3 C31_3 1_555 1_555
O3_3 C38_3 1_555 1_555
O4_2 C45_2 1_555 1_555
O5_2 C45_2 1_555 1_555
H30_3 C26_3 1_555 1_555
H31_3 C27_3 1_555 1_555
C31_3 O1_3 1_555 1_555
C32_3 C31_3 1_555 1_555
C33_3 C32_3 1_555 1_555
H35_3 C33_3 1_555 1_555
C34_3 C33_3 1_555 1_555
H36_3 C34_3 1_555 1_555
C35_3 C34_3 1_555 1_555
C36_3 C35_3 1_555 1_555
H37_3 C36_3 1_555 1_555
C37_3 C32_3 1_555 1_555
H38_3 C37_3 1_555 1_555
C38_3 C35_3 1_555 1_555
C39_3 C38_3 1_555 1_555
C40_2 C39_3 1_555 1_555
H39_2 C40_2 1_555 1_555
C41_2 C40_2 1_555 1_555
H40_2 C41_2 1_555 1_555
C42_2 C41_2 1_555 1_555
C43_2 C42_2 1_555 1_555
H41_2 C43_2 1_555 1_555
C44_3 C39_3 1_555 1_555
H42_3 C44_3 1_555 1_555
C45_2 C42_2 1_555 1_555
C26_3 C27_3 1_555 1_555
C36_3 C37_3 1_555 1_555
C43_2 C44_3 1_555 1_555
H33_3 C29_3 1_555 1_555
H10_3 O10_3 1_555 1_555
N8_3 C17_3 1_555 1_555
N11_2 C28_3 1_555 1_555
N12_3 C21_3 1_555 1_555
C16_3 H23_3 1_555 1_555
C17_3 C16_3 1_555 1_555
C21_3 C16_3 1_555 1_555
C24_3 N8_3 1_555 1_555
H28_3 C24_3 1_555 1_555
C28_3 N12_3 1_555 1_555
H32_3 C28_3 1_555 1_555
C29_4 N11_2 1_555 1_555
H33_4 C29_4 1_555 1_555
C30_4 N12_3 1_555 1_555
H34_4 C30_4 1_555 1_555
Mn4_2 N11_2 1_555 1_555
C20_3 C21_3 1_555 1_555
C23_3 C24_3 1_555 1_555
C29_4 C30_4 1_555 1_555
Mn4_2 N3_4 1_555 1_555
N2_4 C2_4 1_555 1_555
N3_4 C13_4 1_555 1_555
N4_4 C4_4 1_555 1_555
N6_4 C6_4 1_555 1_555
N9_4 Mn4_2 1_555 1_555
N10_4 C19_4 1_555 1_555
O1_4 Mn4_2 1_555 1_555
O2_4 C31_4 1_555 1_555
O3_4 C38_4 1_555 1_555
O9_4 Mn4_2 1_555 1_555
H7_4 O9_4 1_555 1_555
H8_4 O9_4 1_555 1_555
O10_4 Mn4_2 1_555 1_555
H9_4 O10_4 1_555 1_555
H10_4 O10_4 1_555 1_555
C1_4 H11_4 1_555 1_555
C2_4 C1_4 1_555 1_555
C3_4 C2_4 1_555 1_555
H12_4 C3_4 1_555 1_555
C4_4 C3_4 1_555 1_555
C5_4 C4_4 1_555 1_555
H13_4 C5_4 1_555 1_555
C6_4 C1_4 1_555 1_555
H16_4 C9_4 1_555 1_555
C13_4 N4_4 1_555 1_555
H20_4 C13_4 1_555 1_555
C14_4 N4_4 1_555 1_555
H21_4 C14_4 1_555 1_555
C15_4 N3_4 1_555 1_555
H22_4 C15_4 1_555 1_555
H24_4 C18_4 1_555 1_555
C19_4 C18_4 1_555 1_555
C22_4 N7_4 1_555 1_555
H26_4 C22_4 1_555 1_555
C25_4 N9_4 1_555 1_555
H29_4 C25_4 1_555 1_555
C26_4 N9_4 1_555 1_555
H30_4 C26_4 1_555 1_555
C27_4 N10_4 1_555 1_555
H31_4 C27_4 1_555 1_555
C31_4 O1_4 1_555 1_555
C32_4 C31_4 1_555 1_555
C33_4 C32_4 1_555 1_555
H35_4 C33_4 1_555 1_555
C34_4 C33_4 1_555 1_555
H36_4 C34_4 1_555 1_555
C35_4 C34_4 1_555 1_555
C36_4 C35_4 1_555 1_555
H37_4 C36_4 1_555 1_555
C37_4 C32_4 1_555 1_555
H38_4 C37_4 1_555 1_555
C38_4 C35_4 1_555 1_555
C39_4 C38_4 1_555 1_555
C44_4 C39_4 1_555 1_555
H42_4 C44_4 1_555 1_555
N2_4 C9_4 1_555 1_555
N10_4 C25_4 1_555 1_555
C5_4 C6_4 1_555 1_555
C14_4 C15_4 1_555 1_555
C26_4 C27_4 1_555 1_555
C36_4 C37_4 1_555 1_555
O4_3 C45_3 1_555 1_555
O5_3 C45_3 1_555 1_555
H39_3 C40_3 1_555 1_555
C41_3 C40_3 1_555 1_555
H40_3 C41_3 1_555 1_555
C42_3 C41_3 1_555 1_555
C43_3 C42_3 1_555 1_555
H41_3 C43_3 1_555 1_555
C45_3 C42_3 1_555 1_555
N8_4 C17_4 1_555 1_555
N12_4 C21_4 1_555 1_555
C16_4 H23_4 1_555 1_555
C17_4 C16_4 1_555 1_555
C21_4 C16_4 1_555 1_555
C24_4 N8_4 1_555 1_555
H28_4 C24_4 1_555 1_555
C28_4 N12_4 1_555 1_555
H32_4 C28_4 1_555 1_555
C20_4 C21_4 1_555 1_555
C23_4 C24_4 1_555 1_555
O4_4 C45_4 1_555 1_555
O5_4 C45_4 1_555 1_555
H39_4 C40_4 1_555 1_555
C41_4 C40_4 1_555 1_555
H40_4 C41_4 1_555 1_555
C42_4 C41_4 1_555 1_555
C43_4 C42_4 1_555 1_555
H41_4 C43_4 1_555 1_555
C45_4 C42_4 1_555 1_555
O11 C46 1_555 1_555
O12 C46 1_555 1_555
O13 C53 1_555 1_555
C46 C47 1_555 1_555
C47 C48 1_555 1_555
C48 H43 1_555 1_555
C49 C48 1_555 1_555
H44 C49 1_555 1_555
C50 C49 1_555 1_555
C51 C50 1_555 1_555
H45 C51 1_555 1_555
C52 C47 1_555 1_555
H46 C52 1_555 1_555
C53 C50 1_555 1_555
C54 C53 1_555 1_555
C55 C54 1_555 1_555
H47 C55 1_555 1_555
C56 C55 1_555 1_555
H48 C56 1_555 1_555
C57 C56 1_555 1_555
C58 C57 1_555 1_555
C59 C54 1_555 1_555
H50 C59 1_555 1_555
C51 C52 1_555 1_555
C58 C59 1_555 1_555
O14 C60 1_555 1_555
O15 C60 1_555 1_555
O13_2 C53_2 1_555 1_555
C47_2 C48_2 1_555 1_555
C48_2 H43_2 1_555 1_555
C49_2 C48_2 1_555 1_555
H44_2 C49_2 1_555 1_555
C50_2 C49_2 1_555 1_555
C51_2 C50_2 1_555 1_555
H45_2 C51_2 1_555 1_555
C53_2 C50_2 1_555 1_555
C54_2 C53_2 1_555 1_555
C55_2 C54_2 1_555 1_555
H47_2 C55_2 1_555 1_555
C58_2 C57_2 1_555 1_555
C59_2 C54_2 1_555 1_555
H50_2 C59_2 1_555 1_555
C58_2 C59_2 1_555 1_555
O11_2 C46_2 1_555 1_555
O12_2 C46_2 1_555 1_555
H46_2 C52_2 1_555 1_555
H48_2 C56_2 1_555 1_555
O14_2 C60_2 1_555 1_555
O15_2 C60_2 1_555 1_555
O13_3 C53_3 1_555 1_555
O14_3 C60_3 1_555 1_555
O15_3 C60_3 1_555 1_555
C47_3 C48_3 1_555 1_555
C48_3 H43_3 1_555 1_555
C49_3 C48_3 1_555 1_555
H44_3 C49_3 1_555 1_555
C50_3 C49_3 1_555 1_555
C51_3 C50_3 1_555 1_555
H45_3 C51_3 1_555 1_555
C52_3 C47_3 1_555 1_555
H46_3 C52_3 1_555 1_555
C53_3 C50_3 1_555 1_555
C54_3 C53_3 1_555 1_555
C55_3 C54_3 1_555 1_555
H47_3 C55_3 1_555 1_555
C56_3 C55_3 1_555 1_555
H48_3 C56_3 1_555 1_555
C57_3 C56_3 1_555 1_555
C58_3 C57_3 1_555 1_555
H49_3 C58_3 1_555 1_555
C59_3 C54_3 1_555 1_555
H50_3 C59_3 1_555 1_555
C60_3 C57_3 1_555 1_555
C51_3 C52_3 1_555 1_555
C58_3 C59_3 1_555 1_555
O11_3 C46_3 1_555 1_555
O12_3 C46_3 1_555 1_555
O11_4 C46_4 1_555 1_555
O12_4 C46_4 1_555 1_555
O13_4 C53_4 1_555 1_555
C47_4 C48_4 1_555 1_555
C48_4 H43_4 1_555 1_555
C49_4 C48_4 1_555 1_555
H44_4 C49_4 1_555 1_555
C50_4 C49_4 1_555 1_555
C51_4 C50_4 1_555 1_555
H45_4 C51_4 1_555 1_555
C53_4 C50_4 1_555 1_555
C54_4 C53_4 1_555 1_555
C55_4 C54_4 1_555 1_555
H47_4 C55_4 1_555 1_555
C58_4 C57_4 1_555 1_555
H49_4 C58_4 1_555 1_555
C59_4 C54_4 1_555 1_555
H50_4 C59_4 1_555 1_555
C58_4 C59_4 1_555 1_555
O14_4 C60_4 1_555 1_555
O15_4 C60_4 1_555 1_555
H46_4 C52_4 1_555 1_555
H48_4 C56_4 1_555 1_555

#END
