
###############################################################################
#
# This file contains modified crystal structure data generated from the
# MOF subset of the Cambridge Structural Database (CSD) v543 
# hosted by the Cambridge Crystallographic Data Centre (CCDC).
#
# This work is licensed under the Creative Commons
# Attribution-NonCommercial-ShareAlike 4.0 International License.
# To view a copy of this license, visit
# http://creativecommons.org/licenses/by-nc-sa/4.0/
# or send a letter to
# Creative Commons, PO Box 1866, Mountain View, CA 94042, USA.
#
# CIF created using the CSD Python API on 29 September 2022
# The structure has been converted into the P1 space group
# The structure has a 3D framework
# The original CSD entry TACWOM is in the monoclinic crystal system
# The framework has been calculated to contain at least 10.0% void space
# The void calculation uses a probe of radius 1.32A, grid spacing 0.4
# The framework is charged, counterions have been retained in the structure
#
###############################################################################

data_TACWOM
_chemical_formula_moiety         '(C240 H200 N48 Ni8 O60)n'
_symmetry_cell_setting           triclinic
_symmetry_space_group_name_H-M   'P 1'
_symmetry_Int_Tables_number      1
_space_group_name_Hall           'P 1'
loop_
_symmetry_equiv_pos_site_id
_symmetry_equiv_pos_as_xyz
1 x,y,z
_cell_length_a                   15.7709(8)
_cell_length_b                   23.1070(12)
_cell_length_c                   18.3269(10)
_cell_angle_alpha                90
_cell_angle_beta                 106.2710(10)
_cell_angle_gamma                90
_cell_volume                     6411.16
loop_
_atom_site_label
_atom_site_type_symbol
_atom_site_fract_x
_atom_site_fract_y
_atom_site_fract_z
O3 O 0.2520(4) 0.9710(3) 0.2249(4)
O4 O 0.1695(4) 0.9295(3) 0.1222(3)
C24 C 0.0094(4) 0.8799(3) 0.3135(3)
C25 C 0.0812(4) 0.9139(3) 0.3506(4)
H27 H 0.0909 0.9227 0.4018
C26 C 0.1383(4) 0.9346(3) 0.3113(4)
H28 H 0.1850 0.9585 0.3361
C27 C 0.1269(4) 0.9202(3) 0.2349(4)
C28 C 0.0568(4) 0.8847(3) 0.1988(4)
H29 H 0.0486 0.8744 0.1482
C30 C 0.1871(4) 0.9415(3) 0.1903(5)
Ni1 Ni 0.43689(3) 0.70670(2) 0.19277(3)
N1 N 0.4713(3) 0.64737(18) 0.2832(2)
N2 N 0.4539(3) 0.5712(2) 0.3497(3)
N3 N 0.0415(3) 0.5183(2) 0.3058(3)
N4 N 0.1765(3) 0.48317(19) 0.3521(3)
N5 N 0.4457(3) 0.42698(19) 0.5409(3)
O1 O 0.5613(2) 0.74322(16) 0.2267(2)
O2 O 0.5501(3) 0.8162(2) 0.1455(3)
O5 O 0.9792(3) 0.8467(2) 0.4254(3)
O6 O 0.3096(2) 0.67115(17) 0.1604(2)
H1 H 0.2719 0.6977 0.1588
H2 H 0.3002 0.6559 0.1166
O7 O 0.3988(3) 0.76033(18) 0.0957(2)
H3 H 0.4063 0.7956 0.1093
H4 H 0.4303 0.7525 0.0662
O9 O 0.0146(2) 0.60109(17) 0.1834(2)
H7 H 0.0447 0.6304 0.2037
H8 H 0.0493 0.5740 0.1789
C1 C 0.4509(3) 0.4974(2) 0.4440(3)
H11 H 0.5112 0.5021 0.4658
C2 C 0.4074(3) 0.5288(2) 0.3809(3)
C3 C 0.3173(3) 0.5207(2) 0.3471(3)
H12 H 0.2891 0.5399 0.3023
C4 C 0.2708(3) 0.4846(2) 0.3801(3)
C5 C 0.3120(3) 0.4520(2) 0.4439(3)
H13 H 0.2799 0.4268 0.4654
C6 C 0.4026(3) 0.4583(2) 0.4747(3)
C7 C 0.5417(4) 0.5863(3) 0.3742(4)
H14 H 0.5857 0.5683 0.4120
C8 C 0.5511(4) 0.6326(3) 0.3320(4)
H15 H 0.6041 0.6515 0.3356
C9 C 0.4157(3) 0.6104(2) 0.2956(3)
H16 H 0.3558 0.6107 0.2700
C10 C 0.1257(3) 0.5295(2) 0.3191(3)
H17 H 0.1482 0.5644 0.3075
C11 C 0.0375(4) 0.4631(3) 0.3329(4)
C12 C 0.1186(4) 0.4414(3) 0.3599(4)
H19 H 0.1330 0.4047 0.3802
C13 C 0.5242(5) 0.4408(4) 0.5933(4)
H20 H 0.5603 0.4724 0.5921
C14 C 0.4195(4) 0.3756(2) 0.5635(3)
H21 H 0.3688 0.3559 0.5370
N12 N 0.4737(3) 0.3573(2) 0.6267(2)
C15 C 0.5383(4) 0.3985(4) 0.6475(4)
H22 H 0.5841 0.3917 0.7010
C16 C 0.5906(4) 0.7879(2) 0.2020(3)
C17 C 0.6831(3) 0.8079(2) 0.2457(3)
C18 C 0.7291(4) 0.7804(3) 0.3106(4)
H23 H 0.7028 0.7503 0.3300
C19 C 0.8151(4) 0.7970(3) 0.3477(4)
H24 H 0.8453 0.7792 0.3931
C20 C 0.8558(3) 0.8401(2) 0.3171(3)
C21 C 0.8078(4) 0.8691(3) 0.2531(4)
H25 H 0.8334 0.8997 0.2339
C22 C 0.7215(4) 0.8528(3) 0.2173(4)
H26 H 0.6895 0.8723 0.1740
C23 C 0.9509(4) 0.8550(2) 0.3578(3)
C29 C 0.9980(4) 0.8641(3) 0.2381(4)
H30 H 0.9514 0.8400 0.2137
Ni3 Ni 0.43689(3) 0.29330(2) 0.69277(3)
N13 N 0.3883(3) 0.76725(19) 0.2570(3)
N15 N 0.4737(3) 0.6427(2) 0.1267(2)
N8 N 0.8883(3) 0.73275(19) 0.7570(3)
N9 N 0.8133(3) 0.69994(19) 0.8335(3)
N10 N 0.4800(3) 0.85923(19) 0.8290(2)
N11 N 0.5593(3) 0.78494(19) 0.8885(2)
C32 C 0.7832(3) 0.6781(2) 0.9552(3)
H31 H 0.8343 0.6559 0.9706
C33 C 0.7573(3) 0.7024(2) 0.8828(3)
C34 C 0.6797(3) 0.7343(2) 0.8576(3)
H32 H 0.6603 0.7475 0.8077
C35 C 0.6323(3) 0.7458(2) 0.9095(3)
C36 C 0.6563(3) 0.7219(2) 0.9818(3)
C40 C 0.8747(6) 0.6584(3) 0.8310(5)
H37 H 0.8838 0.6232 0.8566
C41 C 0.9191(5) 0.6793(3) 0.7836(5)
H38 H 0.9646 0.6600 0.7708
C42 C 0.8253(4) 0.7425(2) 0.7887(3)
H39 H 0.7918 0.7763 0.7807
C43 C 0.5452(3) 0.8232(2) 0.8296(3)
H40 H 0.5775 0.8239 0.7942
C44 C 0.4519(4) 0.8434(3) 0.8912(3)
H41 H 0.4060 0.8611 0.9055
C45 C 0.4997(4) 0.7995(3) 0.9276(3)
H42 H 0.4939 0.7818 0.9715
Ni4 Ni 0.93689(3) 0.79330(2) 0.69277(3)
Ni5 Ni 0.43806(3) 0.92654(3) 0.75169(3)
N5_2 N 0.4457(3) 0.57302(19) 0.0409(3)
C13_2 C 0.5242(5) 0.5592(4) 0.0933(4)
H20_2 H 0.5603 0.5276 0.0921
C14_2 C 0.4195(4) 0.6244(2) 0.0635(3)
H21_2 H 0.3688 0.6441 0.0370
C15_2 C 0.5383(4) 0.6015(4) 0.1475(4)
H22_2 H 0.5841 0.6083 0.2010
N1_2 N 0.4713(3) 0.35263(18) 0.7832(2)
N2_2 N 0.4539(3) 0.4288(2) 0.8497(3)
N3_2 N 0.0415(3) 0.4817(2) 0.8058(3)
N4_2 N 0.1765(3) 0.51683(19) 0.8521(3)
O1_2 O 0.5613(2) 0.25678(16) 0.7267(2)
O2_2 O 0.5501(3) 0.1838(2) 0.6455(3)
O5_2 O 0.9792(3) 0.1533(2) 0.9254(3)
O6_2 O 0.3096(2) 0.32885(17) 0.6604(2)
H1_2 H 0.2719 0.3023 0.6588
H2_2 H 0.3002 0.3441 0.6166
O7_2 O 0.3988(3) 0.23967(18) 0.5957(2)
H3_2 H 0.4063 0.2044 0.6093
H4_2 H 0.4303 0.2475 0.5662
O9_2 O 0.0146(2) 0.39891(17) 0.6834(2)
H7_2 H 0.0447 0.3696 0.7037
H8_2 H 0.0493 0.4260 0.6789
C1_2 C 0.4509(3) 0.5026(2) 0.9440(3)
H11_2 H 0.5112 0.4979 0.9658
C2_2 C 0.4074(3) 0.4712(2) 0.8809(3)
C3_2 C 0.3173(3) 0.4793(2) 0.8471(3)
H12_2 H 0.2891 0.4601 0.8023
C4_2 C 0.2708(3) 0.5154(2) 0.8801(3)
C5_2 C 0.3120(3) 0.5480(2) 0.9439(3)
H13_2 H 0.2799 0.5732 0.9654
C6_2 C 0.4026(3) 0.5417(2) 0.9747(3)
C7_2 C 0.5417(4) 0.4137(3) 0.8742(4)
H14_2 H 0.5857 0.4317 0.9120
C8_2 C 0.5511(4) 0.3674(3) 0.8320(4)
H15_2 H 0.6041 0.3485 0.8356
C9_2 C 0.4157(3) 0.3896(2) 0.7956(3)
H16_2 H 0.3558 0.3893 0.7700
C10_2 C 0.1257(3) 0.4705(2) 0.8191(3)
H17_2 H 0.1482 0.4356 0.8075
C11_2 C 0.0375(4) 0.5369(3) 0.8329(4)
C12_2 C 0.1186(4) 0.5586(3) 0.8599(4)
H19_2 H 0.1330 0.5953 0.8802
C16_2 C 0.5906(4) 0.2121(2) 0.7020(3)
C17_2 C 0.6831(3) 0.1921(2) 0.7457(3)
C18_2 C 0.7291(4) 0.2196(3) 0.8106(4)
H23_2 H 0.7028 0.2497 0.8300
C19_2 C 0.8151(4) 0.2030(3) 0.8477(4)
H24_2 H 0.8453 0.2208 0.8931
C20_2 C 0.8558(3) 0.1599(2) 0.8171(3)
C21_2 C 0.8078(4) 0.1309(3) 0.7531(4)
H25_2 H 0.8334 0.1003 0.7339
C22_2 C 0.7215(4) 0.1472(3) 0.7173(4)
H26_2 H 0.6895 0.1277 0.6740
C23_2 C 0.9509(4) 0.1450(2) 0.8578(3)
C29_2 C 0.9980(4) 0.1359(3) 0.7381(4)
H30_2 H 0.9514 0.1600 0.7137
N13_2 N 0.3883(3) 0.23275(19) 0.7570(3)
N9_2 N 0.3133(3) 0.19994(19) 0.8335(3)
N11_2 N 0.0593(3) 0.28494(19) 0.8885(2)
C32_2 C 0.2832(3) 0.1781(2) 0.9552(3)
H31_2 H 0.3343 0.1559 0.9706
C33_2 C 0.2573(3) 0.2024(2) 0.8828(3)
C34_2 C 0.1797(3) 0.2343(2) 0.8576(3)
H32_2 H 0.1603 0.2475 0.8077
C35_2 C 0.1323(3) 0.2458(2) 0.9095(3)
C36_2 C 0.1563(3) 0.2219(2) 0.9818(3)
C40_2 C 0.3747(6) 0.1584(3) 0.8310(5)
H37_2 H 0.3838 0.1232 0.8566
C41_2 C 0.4191(5) 0.1793(3) 0.7836(5)
H38_2 H 0.4646 0.1600 0.7708
C42_2 C 0.3253(4) 0.2425(2) 0.7887(3)
H39_2 H 0.2918 0.2763 0.7807
C43_2 C 0.0452(3) 0.3232(2) 0.8296(3)
H40_2 H 0.0775 0.3239 0.7942
N4_3 N 0.6765(3) 0.98317(19) 0.3521(3)
N5_3 N 0.9457(3) 0.92698(19) 0.5409(3)
H10 H 0.3960 0.9735 0.1965
C1_3 C 0.9509(3) 0.9974(2) 0.4440(3)
C4_3 C 0.7708(3) 0.9846(2) 0.3801(3)
C5_3 C 0.8120(3) 0.9520(2) 0.4439(3)
H13_3 H 0.7799 0.9268 0.4654
C6_3 C 0.9026(3) 0.9583(2) 0.4747(3)
C11_3 C 0.5375(4) 0.9631(3) 0.3329(4)
H18 H 0.4857 0.9437 0.3325
C12_3 C 0.6186(4) 0.9414(3) 0.3599(4)
H19_3 H 0.6330 0.9047 0.3802
C14_3 C 0.9195(4) 0.8756(2) 0.5635(3)
H21_3 H 0.8688 0.8559 0.5370
N12_2 N 0.9737(3) 0.8573(2) 0.6267(2)
N1_3 N 0.9713(3) 0.85263(18) 0.7832(2)
N2_3 N 0.9539(3) 0.9288(2) 0.8497(3)
N3_3 N 0.5415(3) 0.9817(2) 0.8058(3)
N6 N 0.3362(3) 0.8771(2) 0.6839(2)
N7 N 0.2577(3) 0.8335(2) 0.5792(2)
N9_3 N 0.3133(3) 0.80006(19) 0.3335(3)
N11_3 N 0.0593(3) 0.71506(19) 0.3885(2)
O6_3 O 0.8096(2) 0.82885(17) 0.6604(2)
H1_3 H 0.7719 0.8023 0.6588
H2_3 H 0.8002 0.8441 0.6166
O7_3 O 0.8988(3) 0.73967(18) 0.5957(2)
H3_3 H 0.9063 0.7044 0.6093
H4_3 H 0.9303 0.7475 0.5662
O8 O 0.3559(3) 0.9562(2) 0.8169(2)
H5 H 0.3632 0.9350 0.8561
H6 H 0.3023 0.9544 0.7904
O9_3 O 0.5146(2) 0.89891(17) 0.6834(2)
H7_3 H 0.5447 0.8696 0.7037
H8_3 H 0.5493 0.9260 0.6789
O10 O 0.3850(2) 0.99414(17) 0.6738(2)
H9 H 0.4087 0.9932 0.6375
C2_3 C 0.9074(3) 0.9712(2) 0.8809(3)
C3_3 C 0.8173(3) 0.9793(2) 0.8471(3)
H12_3 H 0.7891 0.9601 0.8023
C9_3 C 0.9157(3) 0.8896(2) 0.7956(3)
H16_3 H 0.8558 0.8893 0.7700
C10_3 C 0.6257(3) 0.9705(2) 0.8191(3)
H17_3 H 0.6482 0.9356 0.8075
C31 C 0.2314(3) 0.8125(2) 0.5038(3)
C32_3 C 0.2832(3) 0.8219(2) 0.4552(3)
H31_3 H 0.3343 0.8441 0.4706
C33_3 C 0.2573(3) 0.7976(2) 0.3828(3)
C34_3 C 0.1797(3) 0.7657(2) 0.3576(3)
H32_3 H 0.1603 0.7525 0.3077
C35_3 C 0.1323(3) 0.7542(2) 0.4095(3)
C36_3 C 0.1563(3) 0.7781(2) 0.4818(3)
H33 H 0.1225 0.7712 0.5151
C37 C 0.3244(4) 0.8703(3) 0.6108(3)
H34 H 0.3583 0.8887 0.5836
C38 C 0.2295(6) 0.8133(5) 0.6392(4)
H35 H 0.1858 0.7859 0.6372
C39 C 0.2782(5) 0.8414(4) 0.7018(4)
H36 H 0.2722 0.8366 0.7505
C40_3 C 0.3747(6) 0.8416(3) 0.3310(5)
H37_3 H 0.3838 0.8768 0.3566
C41_3 C 0.4191(5) 0.8207(3) 0.2836(5)
H38_3 H 0.4646 0.8400 0.2708
C42_3 C 0.3253(4) 0.7575(2) 0.2887(3)
H39_3 H 0.2918 0.7237 0.2807
C43_3 C 0.0452(3) 0.6768(2) 0.3296(3)
H40_3 H 0.0775 0.6761 0.2942
Ni2 Ni 0.93806(3) 0.57346(3) 0.25169(3)
N6_2 N 0.8362(3) 0.6229(2) 0.1839(2)
N7_2 N 0.7577(3) 0.6665(2) 0.0792(2)
O8_2 O 0.8559(3) 0.5438(2) 0.3169(2)
H5_2 H 0.8632 0.5650 0.3561
H6_2 H 0.8023 0.5456 0.2904
O10_2 O 0.8850(2) 0.50586(17) 0.1738(2)
H9_2 H 0.9087 0.5068 0.1375
H10_2 H 0.8960 0.4735 0.1965
H18_2 H 0.9857 0.4437 0.3325
C31_2 C 0.7314(3) 0.6875(2) 0.0038(3)
H33_2 H 0.6225 0.7288 0.0151
C37_2 C 0.8244(4) 0.6297(3) 0.1108(3)
H34_2 H 0.8583 0.6113 0.0836
C38_2 C 0.7295(6) 0.6867(5) 0.1392(4)
H35_2 H 0.6858 0.7141 0.1372
C39_2 C 0.7782(5) 0.6586(4) 0.2018(4)
H36_2 H 0.7722 0.6634 0.2505
N14 N 0.9800(3) 0.64077(19) 0.3290(2)
C44_2 C 0.9519(4) 0.6566(3) 0.3912(3)
H41_2 H 0.9060 0.6389 0.4055
C45_2 C 0.9997(4) 0.7005(3) 0.4276(3)
H42_2 H 0.9939 0.7182 0.4715
O3_2 O 0.2520(4) 0.0290(3) 0.7249(4)
O4_2 O 0.1695(4) 0.0705(3) 0.6222(3)
C24_2 C 0.0094(4) 0.1201(3) 0.8135(3)
C25_2 C 0.0812(4) 0.0861(3) 0.8506(4)
H27_2 H 0.0909 0.0773 0.9018
C26_2 C 0.1383(4) 0.0654(3) 0.8113(4)
H28_2 H 0.1850 0.0415 0.8361
C27_2 C 0.1269(4) 0.0798(3) 0.7349(4)
C28_2 C 0.0568(4) 0.1153(3) 0.6988(4)
H29_2 H 0.0486 0.1256 0.6482
C30_2 C 0.1871(4) 0.0585(3) 0.6903(5)
Ni2_2 Ni 0.93806(3) 0.42654(3) 0.75169(3)
N6_3 N 0.8362(3) 0.3771(2) 0.6839(2)
N7_3 N 0.7577(3) 0.3335(2) 0.5792(2)
N8_2 N 0.8883(3) 0.26725(19) 0.2570(3)
N9_4 N 0.8133(3) 0.30006(19) 0.3335(3)
N10_2 N 0.4800(3) 0.14077(19) 0.3290(2)
N11_4 N 0.5593(3) 0.21506(19) 0.3885(2)
O8_3 O 0.8559(3) 0.4562(2) 0.8169(2)
H5_3 H 0.8632 0.4350 0.8561
H6_3 H 0.8023 0.4544 0.7904
O10_3 O 0.8850(2) 0.49414(17) 0.6738(2)
H9_3 H 0.9087 0.4932 0.6375
H10_3 H 0.8960 0.5265 0.6965
H18_3 H 0.9857 0.5563 0.8325
C31_3 C 0.7314(3) 0.3125(2) 0.5038(3)
C32_4 C 0.7832(3) 0.3219(2) 0.4552(3)
H31_4 H 0.8343 0.3441 0.4706
C33_4 C 0.7573(3) 0.2976(2) 0.3828(3)
C34_4 C 0.6797(3) 0.2657(2) 0.3576(3)
H32_4 H 0.6603 0.2525 0.3077
C35_4 C 0.6323(3) 0.2542(2) 0.4095(3)
C36_4 C 0.6563(3) 0.2781(2) 0.4818(3)
H33_3 H 0.6225 0.2712 0.5151
C37_3 C 0.8244(4) 0.3703(3) 0.6108(3)
H34_3 H 0.8583 0.3887 0.5836
C38_3 C 0.7295(6) 0.3133(5) 0.6392(4)
H35_3 H 0.6858 0.2859 0.6372
C39_3 C 0.7782(5) 0.3414(4) 0.7018(4)
H36_3 H 0.7722 0.3366 0.7505
C40_4 C 0.8747(6) 0.3416(3) 0.3310(5)
H37_4 H 0.8838 0.3768 0.3566
C41_4 C 0.9191(5) 0.3207(3) 0.2836(5)
H38_4 H 0.9646 0.3400 0.2708
C42_4 C 0.8253(4) 0.2575(2) 0.2887(3)
H39_4 H 0.7918 0.2237 0.2807
C43_4 C 0.5452(3) 0.1768(2) 0.3296(3)
H40_4 H 0.5775 0.1761 0.2942
C44_3 C 0.4519(4) 0.1566(3) 0.3912(3)
H41_3 H 0.4060 0.1389 0.4055
C45_3 C 0.4997(4) 0.2005(3) 0.4276(3)
H42_3 H 0.4939 0.2182 0.4715
Ni4_2 Ni 0.93689(3) 0.20670(2) 0.19277(3)
Ni5_2 Ni 0.43806(3) 0.07346(3) 0.25169(3)
N14_2 N 0.9800(3) 0.35923(19) 0.8290(2)
N1_4 N 0.9713(3) 0.14737(18) 0.2832(2)
N2_4 N 0.9539(3) 0.0712(2) 0.3497(3)
N3_4 N 0.5415(3) 0.0183(2) 0.3058(3)
N6_4 N 0.3362(3) 0.1229(2) 0.1839(2)
N7_4 N 0.2577(3) 0.1665(2) 0.0792(2)
O6_4 O 0.8096(2) 0.17115(17) 0.1604(2)
H1_4 H 0.7719 0.1977 0.1588
H2_4 H 0.8002 0.1559 0.1166
O7_4 O 0.8988(3) 0.26033(18) 0.0957(2)
H3_4 H 0.9063 0.2956 0.1093
H4_4 H 0.9303 0.2525 0.0662
O8_4 O 0.3559(3) 0.0438(2) 0.3169(2)
H5_4 H 0.3632 0.0650 0.3561
H6_4 H 0.3023 0.0456 0.2904
O9_4 O 0.5146(2) 0.10109(17) 0.1834(2)
H7_4 H 0.5447 0.1304 0.2037
H8_4 H 0.5493 0.0740 0.1789
O10_4 O 0.3850(2) 0.00586(17) 0.1738(2)
H9_4 H 0.4087 0.0068 0.1375
C2_4 C 0.9074(3) 0.0288(2) 0.3809(3)
C3_4 C 0.8173(3) 0.0207(2) 0.3471(3)
H12_4 H 0.7891 0.0399 0.3023
C9_4 C 0.9157(3) 0.1104(2) 0.2956(3)
H16_4 H 0.8558 0.1107 0.2700
C10_4 C 0.6257(3) 0.0295(2) 0.3191(3)
H17_4 H 0.6482 0.0644 0.3075
C31_4 C 0.2314(3) 0.1875(2) 0.0038(3)
H33_4 H 0.1225 0.2288 0.0151
C37_4 C 0.3244(4) 0.1297(3) 0.1108(3)
H34_4 H 0.3583 0.1113 0.0836
C38_4 C 0.2295(6) 0.1867(5) 0.1392(4)
H35_4 H 0.1858 0.2141 0.1372
C39_4 C 0.2782(5) 0.1586(4) 0.2018(4)
H36_4 H 0.2722 0.1634 0.2505
N15_2 N 0.9737(3) 0.1427(2) 0.1267(2)
C44_4 C 0.9519(4) 0.3434(3) 0.8912(3)
H41_4 H 0.9060 0.3611 0.9055
C45_4 C 0.9997(4) 0.2995(3) 0.9276(3)
H42_4 H 0.9939 0.2818 0.9715
N5_4 N 0.9457(3) 0.07302(19) 0.0409(3)
C14_4 C 0.9195(4) 0.1244(2) 0.0635(3)
H21_4 H 0.8688 0.1441 0.0370
O1_3 O 0.0613(2) 0.24322(16) 0.2267(2)
O2_3 O 0.0501(3) 0.3162(2) 0.1455(3)
O3_3 O 0.7520(4) 0.4710(3) 0.2249(4)
O4_3 O 0.6695(4) 0.4295(3) 0.1222(3)
O5_3 O 0.4792(3) 0.3467(2) 0.4254(3)
H11_3 H 0.0112 0.0021 0.4658
C7_3 C 0.0417(4) 0.0863(3) 0.3742(4)
H14_3 H 0.0857 0.0683 0.4120
C8_3 C 0.0511(4) 0.1326(3) 0.3320(4)
H15_3 H 0.1041 0.1515 0.3356
C16_3 C 0.0906(4) 0.2879(2) 0.2020(3)
C17_3 C 0.1831(3) 0.3079(2) 0.2457(3)
C18_3 C 0.2291(4) 0.2804(3) 0.3106(4)
H23_3 H 0.2028 0.2503 0.3300
C19_3 C 0.3151(4) 0.2970(3) 0.3477(4)
H24_3 H 0.3453 0.2792 0.3931
C20_3 C 0.3558(3) 0.3401(2) 0.3171(3)
C21_3 C 0.3078(4) 0.3691(3) 0.2531(4)
H25_3 H 0.3334 0.3997 0.2339
C22_3 C 0.2215(4) 0.3528(3) 0.2173(4)
H26_3 H 0.1895 0.3723 0.1740
C23_3 C 0.4509(4) 0.3550(2) 0.3578(3)
C24_3 C 0.5094(4) 0.3799(3) 0.3135(3)
C25_3 C 0.5812(4) 0.4139(3) 0.3506(4)
H27_3 H 0.5909 0.4227 0.4018
C26_3 C 0.6383(4) 0.4346(3) 0.3113(4)
H28_3 H 0.6850 0.4585 0.3361
C27_3 C 0.6269(4) 0.4202(3) 0.2349(4)
C28_3 C 0.5568(4) 0.3847(3) 0.1988(4)
H29_3 H 0.5486 0.3744 0.1482
C29_3 C 0.4980(4) 0.3641(3) 0.2381(4)
H30_3 H 0.4514 0.3400 0.2137
C30_3 C 0.6871(4) 0.4415(3) 0.1903(5)
C13_3 C 0.0242(5) 0.9408(4) 0.5933(4)
H20_3 H 0.0603 0.9724 0.5921
C15_3 C 0.0383(4) 0.8985(4) 0.6475(4)
H22_3 H 0.0841 0.8917 0.7010
C13_4 C 0.0242(5) 0.0592(4) 0.0933(4)
H20_4 H 0.0603 0.0276 0.0921
C15_4 C 0.0383(4) 0.1015(4) 0.1475(4)
H22_4 H 0.0841 0.1083 0.2010
O1_4 O 0.0613(2) 0.75678(16) 0.7267(2)
O2_4 O 0.0501(3) 0.6838(2) 0.6455(3)
O3_4 O 0.7520(4) 0.5290(3) 0.7249(4)
O4_4 O 0.6695(4) 0.5705(3) 0.6222(3)
O5_4 O 0.4792(3) 0.6533(2) 0.9254(3)
H11_4 H 0.0112 0.9979 0.9658
C7_4 C 0.0417(4) 0.9137(3) 0.8742(4)
H14_4 H 0.0857 0.9317 0.9120
C8_4 C 0.0511(4) 0.8674(3) 0.8320(4)
H15_4 H 0.1041 0.8485 0.8356
C16_4 C 0.0906(4) 0.7121(2) 0.7020(3)
C17_4 C 0.1831(3) 0.6921(2) 0.7457(3)
C18_4 C 0.2291(4) 0.7196(3) 0.8106(4)
H23_4 H 0.2028 0.7497 0.8300
C19_4 C 0.3151(4) 0.7030(3) 0.8477(4)
H24_4 H 0.3453 0.7208 0.8931
C20_4 C 0.3558(3) 0.6599(2) 0.8171(3)
C21_4 C 0.3078(4) 0.6309(3) 0.7531(4)
H25_4 H 0.3334 0.6003 0.7339
C22_4 C 0.2215(4) 0.6472(3) 0.7173(4)
H26_4 H 0.1895 0.6277 0.6740
C23_4 C 0.4509(4) 0.6450(2) 0.8578(3)
C24_4 C 0.5094(4) 0.6201(3) 0.8135(3)
C25_4 C 0.5812(4) 0.5861(3) 0.8506(4)
H27_4 H 0.5909 0.5773 0.9018
C26_4 C 0.6383(4) 0.5654(3) 0.8113(4)
H28_4 H 0.6850 0.5415 0.8361
C27_4 C 0.6269(4) 0.5798(3) 0.7349(4)
C28_4 C 0.5568(4) 0.6153(3) 0.6988(4)
H29_4 H 0.5486 0.6256 0.6482
C29_4 C 0.4980(4) 0.6359(3) 0.7381(4)
H30_4 H 0.4514 0.6600 0.7137
C30_4 C 0.6871(4) 0.5585(3) 0.6903(5)
N4_4 N 0.6765(3) 0.01683(19) 0.8521(3)
H10_4 H 0.3960 0.0265 0.6965
C1_4 C 0.9509(3) 0.0026(2) 0.9440(3)
C4_4 C 0.7708(3) 0.0154(2) 0.8801(3)
C5_4 C 0.8120(3) 0.0480(2) 0.9439(3)
H13_4 H 0.7799 0.0732 0.9654
C6_4 C 0.9026(3) 0.0417(2) 0.9747(3)
C11_4 C 0.5375(4) 0.0369(3) 0.8329(4)
H18_4 H 0.4857 0.0563 0.8325
C12_4 C 0.6186(4) 0.0586(3) 0.8599(4)
H19_4 H 0.6330 0.0953 0.8802
O13 O 0.1032(3) 0.29845(19) 0.6824(2)
O14 O 0.1676(3) 0.2697(2) 0.5948(3)
C56 C 0.0167(4) 0.2479(2) 0.5735(3)
C57 C 0.0108(4) 0.2265(3) 0.5016(3)
H49 H 0.0571 0.2327 0.4803
C60 C 0.1010(4) 0.2742(2) 0.6210(3)
O15 O 0.7652(3) 0.14687(19) 0.3859(2)
C47 C 0.7117(3) 0.0159(2) 0.5853(3)
C48 C 0.8010(4) 0.0294(2) 0.6010(3)
H43 H 0.8421 0.0090 0.6385
C49 C 0.8290(4) 0.0726(2) 0.5618(3)
H44 H 0.8882 0.0832 0.5751
C50 C 0.7679(4) 0.1007(2) 0.5015(3)
C51 C 0.6791(4) 0.0859(3) 0.4835(3)
H45 H 0.6383 0.1037 0.4431
C52 C 0.6523(4) 0.0442(3) 0.5264(3)
H46 H 0.5926 0.0350 0.5152
C53 C 0.7977(4) 0.1447(3) 0.4554(3)
C54 C 0.8753(4) 0.2065(2) 0.5655(3)
H47 H 0.8293 0.1999 0.5870
C55 C 0.9472(4) 0.2397(2) 0.6039(3)
H48 H 0.9484 0.2565 0.6503
C58 C 0.9385(4) 0.1966(3) 0.4618(3)
H50 H 0.9337 0.1851 0.4122
C59 C 0.8719(4) 0.1831(2) 0.4948(3)
O11 O 0.5992(3) 0.9744(2) 0.6285(4)
O12 O 0.7344(3) 0.93561(19) 0.6699(3)
C46 C 0.6818(4) 0.9715(3) 0.6318(3)
O13_2 O 0.1032(3) 0.70155(19) 0.1824(2)
O14_2 O 0.1676(3) 0.7303(2) 0.0948(3)
C56_2 C 0.0167(4) 0.7521(2) 0.0735(3)
C57_2 C 0.0108(4) 0.7735(3) 0.0016(3)
C60_2 C 0.1010(4) 0.7258(2) 0.1210(3)
H49_2 H 0.0571 0.7673 0.9803
O11_2 O 0.5992(3) 0.0256(2) 0.1285(4)
O12_2 O 0.7344(3) 0.06439(19) 0.1699(3)
C46_2 C 0.6818(4) 0.0285(3) 0.1318(3)
C47_2 C 0.7117(3) 0.9841(2) 0.0853(3)
C48_2 C 0.8010(4) 0.9706(2) 0.1010(3)
H43_2 H 0.8421 0.9910 0.1385
C49_2 C 0.8290(4) 0.9274(2) 0.0618(3)
H44_2 H 0.8882 0.9168 0.0751
C50_2 C 0.7679(4) 0.8993(2) 0.0015(3)
C52_2 C 0.6523(4) 0.9558(3) 0.0264(3)
H46_2 H 0.5926 0.9650 0.0152
C54_2 C 0.8753(4) 0.7935(2) 0.0655(3)
H47_2 H 0.8293 0.8001 0.0870
C55_2 C 0.9472(4) 0.7603(2) 0.1039(3)
H48_2 H 0.9484 0.7435 0.1503
O15_2 O 0.7652(3) 0.85313(19) 0.8859(2)
C51_2 C 0.6791(4) 0.9141(3) 0.9835(3)
H45_2 H 0.6383 0.8963 0.9431
C53_2 C 0.7977(4) 0.8553(3) 0.9554(3)
C58_2 C 0.9385(4) 0.8034(3) 0.9618(3)
H50_2 H 0.9337 0.8149 0.9122
C59_2 C 0.8719(4) 0.8169(2) 0.9948(3)
O11_3 O 0.0992(3) 0.4744(2) 0.6285(4)
O12_3 O 0.2344(3) 0.43561(19) 0.6699(3)
O13_3 O 0.6032(3) 0.79845(19) 0.6824(2)
O14_3 O 0.6676(3) 0.7697(2) 0.5948(3)
O15_3 O 0.2652(3) 0.64687(19) 0.3859(2)
C46_3 C 0.1818(4) 0.4715(3) 0.6318(3)
C47_3 C 0.2117(3) 0.5159(2) 0.5853(3)
C48_3 C 0.3010(4) 0.5294(2) 0.6010(3)
H43_3 H 0.3421 0.5090 0.6385
C49_3 C 0.3290(4) 0.5726(2) 0.5618(3)
H44_3 H 0.3882 0.5832 0.5751
C50_3 C 0.2679(4) 0.6007(2) 0.5015(3)
C51_3 C 0.1791(4) 0.5859(3) 0.4835(3)
H45_3 H 0.1383 0.6037 0.4431
C52_3 C 0.1523(4) 0.5442(3) 0.5264(3)
H46_3 H 0.0926 0.5350 0.5152
C53_3 C 0.2977(4) 0.6447(3) 0.4554(3)
C54_3 C 0.3753(4) 0.7065(2) 0.5655(3)
H47_3 H 0.3293 0.6999 0.5870
C55_3 C 0.4472(4) 0.7397(2) 0.6039(3)
H48_3 H 0.4484 0.7565 0.6503
C56_3 C 0.5167(4) 0.7479(2) 0.5735(3)
C57_3 C 0.5108(4) 0.7265(3) 0.5016(3)
H49_3 H 0.5571 0.7327 0.4803
C58_3 C 0.4385(4) 0.6966(3) 0.4618(3)
H50_3 H 0.4337 0.6851 0.4122
C59_3 C 0.3719(4) 0.6831(2) 0.4948(3)
C60_3 C 0.6010(4) 0.7742(2) 0.6210(3)
O11_4 O 0.0992(3) 0.5256(2) 0.1285(4)
O12_4 O 0.2344(3) 0.56439(19) 0.1699(3)
O13_4 O 0.6032(3) 0.20155(19) 0.1824(2)
O14_4 O 0.6676(3) 0.2303(2) 0.0948(3)
C46_4 C 0.1818(4) 0.5285(3) 0.1318(3)
C47_4 C 0.2117(3) 0.4841(2) 0.0853(3)
C48_4 C 0.3010(4) 0.4706(2) 0.1010(3)
H43_4 H 0.3421 0.4910 0.1385
C49_4 C 0.3290(4) 0.4274(2) 0.0618(3)
H44_4 H 0.3882 0.4168 0.0751
C50_4 C 0.2679(4) 0.3993(2) 0.0015(3)
C52_4 C 0.1523(4) 0.4558(3) 0.0264(3)
H46_4 H 0.0926 0.4650 0.0152
C54_4 C 0.3753(4) 0.2935(2) 0.0655(3)
H47_4 H 0.3293 0.3001 0.0870
C55_4 C 0.4472(4) 0.2603(2) 0.1039(3)
H48_4 H 0.4484 0.2435 0.1503
C56_4 C 0.5167(4) 0.2521(2) 0.0735(3)
C57_4 C 0.5108(4) 0.2735(3) 0.0016(3)
C60_4 C 0.6010(4) 0.2258(2) 0.1210(3)
O15_4 O 0.2652(3) 0.35313(19) 0.8859(2)
C51_4 C 0.1791(4) 0.4141(3) 0.9835(3)
H45_4 H 0.1383 0.3963 0.9431
C53_4 C 0.2977(4) 0.3553(3) 0.9554(3)
H49_4 H 0.5571 0.2673 0.9803
C58_4 C 0.4385(4) 0.3034(3) 0.9618(3)
H50_4 H 0.4337 0.3149 0.9122
C59_4 C 0.3719(4) 0.3169(2) 0.9948(3)
loop_
_geom_bond_atom_site_label_1
_geom_bond_atom_site_label_2
_geom_bond_site_symmetry_1
_geom_bond_site_symmetry_2
O3 C30 1_555 1_555
O4 C30 1_555 1_555
C25 C24 1_555 1_555
H27 C25 1_555 1_555
C26 C25 1_555 1_555
H28 C26 1_555 1_555
C27 C26 1_555 1_555
C28 C27 1_555 1_555
H29 C28 1_555 1_555
C30 C27 1_555 1_555
Ni1 N1 1_555 1_555
N1 C8 1_555 1_555
N2 C2 1_555 1_555
N3 C10 1_555 1_555
N4 C4 1_555 1_555
N5 C6 1_555 1_555
O1 Ni1 1_555 1_555
O2 C16 1_555 1_555
O5 C23 1_555 1_555
O6 Ni1 1_555 1_555
H1 O6 1_555 1_555
H2 O6 1_555 1_555
O7 Ni1 1_555 1_555
H3 O7 1_555 1_555
H4 O7 1_555 1_555
H7 O9 1_555 1_555
H8 O9 1_555 1_555
C1 H11 1_555 1_555
C2 C1 1_555 1_555
C3 C2 1_555 1_555
H12 C3 1_555 1_555
C4 C3 1_555 1_555
C5 C4 1_555 1_555
H13 C5 1_555 1_555
C6 C1 1_555 1_555
C7 N2 1_555 1_555
H14 C7 1_555 1_555
C8 C7 1_555 1_555
H15 C8 1_555 1_555
C9 N1 1_555 1_555
H16 C9 1_555 1_555
C10 N4 1_555 1_555
H17 C10 1_555 1_555
C11 N3 1_555 1_555
C12 N4 1_555 1_555
H19 C12 1_555 1_555
C13 N5 1_555 1_555
H20 C13 1_555 1_555
C14 N5 1_555 1_555
H21 C14 1_555 1_555
N12 C14 1_555 1_555
C15 C13 1_555 1_555
H22 C15 1_555 1_555
C16 O1 1_555 1_555
C17 C16 1_555 1_555
C18 C17 1_555 1_555
H23 C18 1_555 1_555
C19 C18 1_555 1_555
H24 C19 1_555 1_555
C20 C19 1_555 1_555
C21 C20 1_555 1_555
H25 C21 1_555 1_555
C22 C17 1_555 1_555
H26 C22 1_555 1_555
C23 C20 1_555 1_555
H30 C29 1_555 1_555
Ni3 N12 1_555 1_555
N13 Ni1 1_555 1_555
N15 Ni1 1_555 1_555
N2 C9 1_555 1_555
C5 C6 1_555 1_555
C11 C12 1_555 1_555
N12 C15 1_555 1_555
C21 C22 1_555 1_555
N8 C41 1_555 1_555
N9 C33 1_555 1_555
N10 C43 1_555 1_555
N11 C35 1_555 1_555
C32 H31 1_555 1_555
C33 C32 1_555 1_555
C34 C33 1_555 1_555
H32 C34 1_555 1_555
C35 C34 1_555 1_555
C40 N9 1_555 1_555
H37 C40 1_555 1_555
C41 C40 1_555 1_555
H38 C41 1_555 1_555
C42 N8 1_555 1_555
H39 C42 1_555 1_555
C43 N11 1_555 1_555
H40 C43 1_555 1_555
C44 N10 1_555 1_555
H41 C44 1_555 1_555
C45 N11 1_555 1_555
H42 C45 1_555 1_555
Ni4 N8 1_555 1_555
Ni5 N10 1_555 1_555
N9 C42 1_555 1_555
C35 C36 1_555 1_555
C44 C45 1_555 1_555
C13_2 N5_2 1_555 1_555
H20_2 C13_2 1_555 1_555
C14_2 N5_2 1_555 1_555
H21_2 C14_2 1_555 1_555
N15 C14_2 1_555 1_555
C15_2 C13_2 1_555 1_555
H22_2 C15_2 1_555 1_555
N15 C15_2 1_555 1_555
Ni3 N1_2 1_555 1_555
N1_2 C8_2 1_555 1_555
N2_2 C2_2 1_555 1_555
N3_2 C10_2 1_555 1_555
N4_2 C4_2 1_555 1_555
O1_2 Ni3 1_555 1_555
O2_2 C16_2 1_555 1_555
O5_2 C23_2 1_555 1_555
O6_2 Ni3 1_555 1_555
H1_2 O6_2 1_555 1_555
H2_2 O6_2 1_555 1_555
O7_2 Ni3 1_555 1_555
H3_2 O7_2 1_555 1_555
H4_2 O7_2 1_555 1_555
H7_2 O9_2 1_555 1_555
H8_2 O9_2 1_555 1_555
C1_2 H11_2 1_555 1_555
C2_2 C1_2 1_555 1_555
C3_2 C2_2 1_555 1_555
H12_2 C3_2 1_555 1_555
C4_2 C3_2 1_555 1_555
C5_2 C4_2 1_555 1_555
H13_2 C5_2 1_555 1_555
C6_2 C1_2 1_555 1_555
C7_2 N2_2 1_555 1_555
H14_2 C7_2 1_555 1_555
C8_2 C7_2 1_555 1_555
H15_2 C8_2 1_555 1_555
C9_2 N1_2 1_555 1_555
H16_2 C9_2 1_555 1_555
C10_2 N4_2 1_555 1_555
H17_2 C10_2 1_555 1_555
C11_2 N3_2 1_555 1_555
C12_2 N4_2 1_555 1_555
H19_2 C12_2 1_555 1_555
C16_2 O1_2 1_555 1_555
C17_2 C16_2 1_555 1_555
C18_2 C17_2 1_555 1_555
H23_2 C18_2 1_555 1_555
C19_2 C18_2 1_555 1_555
H24_2 C19_2 1_555 1_555
C20_2 C19_2 1_555 1_555
C21_2 C20_2 1_555 1_555
H25_2 C21_2 1_555 1_555
C22_2 C17_2 1_555 1_555
H26_2 C22_2 1_555 1_555
C23_2 C20_2 1_555 1_555
H30_2 C29_2 1_555 1_555
N13_2 Ni3 1_555 1_555
N2_2 C9_2 1_555 1_555
C5_2 C6_2 1_555 1_555
C11_2 C12_2 1_555 1_555
C21_2 C22_2 1_555 1_555
N13_2 C41_2 1_555 1_555
N9_2 C33_2 1_555 1_555
N11_2 C35_2 1_555 1_555
C32_2 H31_2 1_555 1_555
C33_2 C32_2 1_555 1_555
C34_2 C33_2 1_555 1_555
H32_2 C34_2 1_555 1_555
C35_2 C34_2 1_555 1_555
C40_2 N9_2 1_555 1_555
H37_2 C40_2 1_555 1_555
C41_2 C40_2 1_555 1_555
H38_2 C41_2 1_555 1_555
C42_2 N13_2 1_555 1_555
H39_2 C42_2 1_555 1_555
C43_2 N11_2 1_555 1_555
H40_2 C43_2 1_555 1_555
N9_2 C42_2 1_555 1_555
C35_2 C36_2 1_555 1_555
N4_3 C4_3 1_555 1_555
N5_3 C6_3 1_555 1_555
C5_3 C4_3 1_555 1_555
H13_3 C5_3 1_555 1_555
C6_3 C1_3 1_555 1_555
H18 C11_3 1_555 1_555
C12_3 N4_3 1_555 1_555
H19_3 C12_3 1_555 1_555
C14_3 N5_3 1_555 1_555
H21_3 C14_3 1_555 1_555
N12_2 C14_3 1_555 1_555
Ni4 N12_2 1_555 1_555
C5_3 C6_3 1_555 1_555
C11_3 C12_3 1_555 1_555
Ni4 N1_3 1_555 1_555
Ni5 N3_3 1_555 1_555
N2_3 C2_3 1_555 1_555
N3_3 C10_3 1_555 1_555
N6 Ni5 1_555 1_555
N7 C31 1_555 1_555
N13 C41_3 1_555 1_555
N9_3 C33_3 1_555 1_555
N11_3 C35_3 1_555 1_555
O6_3 Ni4 1_555 1_555
H1_3 O6_3 1_555 1_555
H2_3 O6_3 1_555 1_555
O7_3 Ni4 1_555 1_555
H3_3 O7_3 1_555 1_555
H4_3 O7_3 1_555 1_555
O8 Ni5 1_555 1_555
H5 O8 1_555 1_555
H6 O8 1_555 1_555
O9_3 Ni5 1_555 1_555
H7_3 O9_3 1_555 1_555
H8_3 O9_3 1_555 1_555
O10 Ni5 1_555 1_555
H9 O10 1_555 1_555
C3_3 C2_3 1_555 1_555
H12_3 C3_3 1_555 1_555
C9_3 N1_3 1_555 1_555
H16_3 C9_3 1_555 1_555
H17_3 C10_3 1_555 1_555
C31 C32_3 1_555 1_555
C32_3 H31_3 1_555 1_555
C33_3 C32_3 1_555 1_555
C34_3 C33_3 1_555 1_555
H32_3 C34_3 1_555 1_555
C35_3 C34_3 1_555 1_555
C36_3 C31 1_555 1_555
H33 C36_3 1_555 1_555
C37 N6 1_555 1_555
H34 C37 1_555 1_555
C38 N7 1_555 1_555
H35 C38 1_555 1_555
C39 N6 1_555 1_555
H36 C39 1_555 1_555
C40_3 N9_3 1_555 1_555
H37_3 C40_3 1_555 1_555
C41_3 C40_3 1_555 1_555
H38_3 C41_3 1_555 1_555
C42_3 N13 1_555 1_555
H39_3 C42_3 1_555 1_555
C43_3 N11_3 1_555 1_555
H40_3 C43_3 1_555 1_555
N2_3 C9_3 1_555 1_555
N7 C37 1_555 1_555
N9_3 C42_3 1_555 1_555
C35_3 C36_3 1_555 1_555
C38 C39 1_555 1_555
N6_2 Ni2 1_555 1_555
N7_2 C31_2 1_555 1_555
O8_2 Ni2 1_555 1_555
H5_2 O8_2 1_555 1_555
H6_2 O8_2 1_555 1_555
O10_2 Ni2 1_555 1_555
H9_2 O10_2 1_555 1_555
H10_2 O10_2 1_555 1_555
C37_2 N6_2 1_555 1_555
H34_2 C37_2 1_555 1_555
C38_2 N7_2 1_555 1_555
H35_2 C38_2 1_555 1_555
C39_2 N6_2 1_555 1_555
H36_2 C39_2 1_555 1_555
N14 Ni2 1_555 1_555
N7_2 C37_2 1_555 1_555
C38_2 C39_2 1_555 1_555
C44_2 N14 1_555 1_555
H41_2 C44_2 1_555 1_555
H42_2 C45_2 1_555 1_555
C44_2 C45_2 1_555 1_555
O3_2 C30_2 1_555 1_555
O4_2 C30_2 1_555 1_555
C25_2 C24_2 1_555 1_555
H27_2 C25_2 1_555 1_555
C26_2 C25_2 1_555 1_555
H28_2 C26_2 1_555 1_555
C27_2 C26_2 1_555 1_555
C28_2 C27_2 1_555 1_555
H29_2 C28_2 1_555 1_555
C30_2 C27_2 1_555 1_555
N6_3 Ni2_2 1_555 1_555
N7_3 C31_3 1_555 1_555
N8_2 C41_4 1_555 1_555
N9_4 C33_4 1_555 1_555
N10_2 C43_4 1_555 1_555
N11_4 C35_4 1_555 1_555
O8_3 Ni2_2 1_555 1_555
H5_3 O8_3 1_555 1_555
H6_3 O8_3 1_555 1_555
O10_3 Ni2_2 1_555 1_555
H9_3 O10_3 1_555 1_555
H10_3 O10_3 1_555 1_555
C31_3 C32_4 1_555 1_555
C32_4 H31_4 1_555 1_555
C33_4 C32_4 1_555 1_555
C34_4 C33_4 1_555 1_555
H32_4 C34_4 1_555 1_555
C35_4 C34_4 1_555 1_555
C36_4 C31_3 1_555 1_555
H33_3 C36_4 1_555 1_555
C37_3 N6_3 1_555 1_555
H34_3 C37_3 1_555 1_555
C38_3 N7_3 1_555 1_555
H35_3 C38_3 1_555 1_555
C39_3 N6_3 1_555 1_555
H36_3 C39_3 1_555 1_555
C40_4 N9_4 1_555 1_555
H37_4 C40_4 1_555 1_555
C41_4 C40_4 1_555 1_555
H38_4 C41_4 1_555 1_555
C42_4 N8_2 1_555 1_555
H39_4 C42_4 1_555 1_555
C43_4 N11_4 1_555 1_555
H40_4 C43_4 1_555 1_555
C44_3 N10_2 1_555 1_555
H41_3 C44_3 1_555 1_555
C45_3 N11_4 1_555 1_555
H42_3 C45_3 1_555 1_555
Ni4_2 N8_2 1_555 1_555
Ni5_2 N10_2 1_555 1_555
N14_2 Ni2_2 1_555 1_555
N7_3 C37_3 1_555 1_555
N9_4 C42_4 1_555 1_555
C35_4 C36_4 1_555 1_555
C38_3 C39_3 1_555 1_555
C44_3 C45_3 1_555 1_555
Ni4_2 N1_4 1_555 1_555
Ni5_2 N3_4 1_555 1_555
N2_4 C2_4 1_555 1_555
N3_4 C10_4 1_555 1_555
N6_4 Ni5_2 1_555 1_555
N7_4 C31_4 1_555 1_555
O6_4 Ni4_2 1_555 1_555
H1_4 O6_4 1_555 1_555
H2_4 O6_4 1_555 1_555
O7_4 Ni4_2 1_555 1_555
H3_4 O7_4 1_555 1_555
H4_4 O7_4 1_555 1_555
O8_4 Ni5_2 1_555 1_555
H5_4 O8_4 1_555 1_555
H6_4 O8_4 1_555 1_555
O9_4 Ni5_2 1_555 1_555
H7_4 O9_4 1_555 1_555
H8_4 O9_4 1_555 1_555
O10_4 Ni5_2 1_555 1_555
H9_4 O10_4 1_555 1_555
C3_4 C2_4 1_555 1_555
H12_4 C3_4 1_555 1_555
C9_4 N1_4 1_555 1_555
H16_4 C9_4 1_555 1_555
H17_4 C10_4 1_555 1_555
C37_4 N6_4 1_555 1_555
H34_4 C37_4 1_555 1_555
C38_4 N7_4 1_555 1_555
H35_4 C38_4 1_555 1_555
C39_4 N6_4 1_555 1_555
H36_4 C39_4 1_555 1_555
N15_2 Ni4_2 1_555 1_555
N2_4 C9_4 1_555 1_555
N7_4 C37_4 1_555 1_555
C38_4 C39_4 1_555 1_555
C44_4 N14_2 1_555 1_555
H41_4 C44_4 1_555 1_555
H42_4 C45_4 1_555 1_555
C44_4 C45_4 1_555 1_555
C14_4 N5_4 1_555 1_555
H21_4 C14_4 1_555 1_555
N15_2 C14_4 1_555 1_555
O2_3 C16_3 1_555 1_555
O3_3 C30_3 1_555 1_555
O4_3 C30_3 1_555 1_555
O5_3 C23_3 1_555 1_555
H14_3 C7_3 1_555 1_555
C8_3 C7_3 1_555 1_555
H15_3 C8_3 1_555 1_555
C16_3 O1_3 1_555 1_555
C17_3 C16_3 1_555 1_555
C18_3 C17_3 1_555 1_555
H23_3 C18_3 1_555 1_555
C19_3 C18_3 1_555 1_555
H24_3 C19_3 1_555 1_555
C20_3 C19_3 1_555 1_555
C21_3 C20_3 1_555 1_555
H25_3 C21_3 1_555 1_555
C22_3 C17_3 1_555 1_555
H26_3 C22_3 1_555 1_555
C23_3 C20_3 1_555 1_555
C24_3 C23_3 1_555 1_555
C25_3 C24_3 1_555 1_555
H27_3 C25_3 1_555 1_555
C26_3 C25_3 1_555 1_555
H28_3 C26_3 1_555 1_555
C27_3 C26_3 1_555 1_555
C28_3 C27_3 1_555 1_555
H29_3 C28_3 1_555 1_555
C29_3 C24_3 1_555 1_555
H30_3 C29_3 1_555 1_555
C30_3 C27_3 1_555 1_555
C21_3 C22_3 1_555 1_555
C28_3 C29_3 1_555 1_555
H20_3 C13_3 1_555 1_555
C15_3 C13_3 1_555 1_555
H22_3 C15_3 1_555 1_555
H20_4 C13_4 1_555 1_555
C15_4 C13_4 1_555 1_555
H22_4 C15_4 1_555 1_555
O2_4 C16_4 1_555 1_555
O3_4 C30_4 1_555 1_555
O4_4 C30_4 1_555 1_555
O5_4 C23_4 1_555 1_555
H14_4 C7_4 1_555 1_555
C8_4 C7_4 1_555 1_555
H15_4 C8_4 1_555 1_555
C16_4 O1_4 1_555 1_555
C17_4 C16_4 1_555 1_555
C18_4 C17_4 1_555 1_555
H23_4 C18_4 1_555 1_555
C19_4 C18_4 1_555 1_555
H24_4 C19_4 1_555 1_555
C20_4 C19_4 1_555 1_555
C21_4 C20_4 1_555 1_555
H25_4 C21_4 1_555 1_555
C22_4 C17_4 1_555 1_555
H26_4 C22_4 1_555 1_555
C23_4 C20_4 1_555 1_555
C24_4 C23_4 1_555 1_555
C25_4 C24_4 1_555 1_555
H27_4 C25_4 1_555 1_555
C26_4 C25_4 1_555 1_555
H28_4 C26_4 1_555 1_555
C27_4 C26_4 1_555 1_555
C28_4 C27_4 1_555 1_555
H29_4 C28_4 1_555 1_555
C29_4 C24_4 1_555 1_555
H30_4 C29_4 1_555 1_555
C30_4 C27_4 1_555 1_555
C21_4 C22_4 1_555 1_555
C28_4 C29_4 1_555 1_555
N4_4 C4_4 1_555 1_555
C5_4 C4_4 1_555 1_555
H13_4 C5_4 1_555 1_555
C6_4 C1_4 1_555 1_555
H18_4 C11_4 1_555 1_555
C12_4 N4_4 1_555 1_555
H19_4 C12_4 1_555 1_555
C5_4 C6_4 1_555 1_555
C11_4 C12_4 1_555 1_555
O13 C60 1_555 1_555
O14 C60 1_555 1_555
C57 C56 1_555 1_555
H49 C57 1_555 1_555
C60 C56 1_555 1_555
O15 C53 1_555 1_555
C47 C48 1_555 1_555
C48 H43 1_555 1_555
C49 C48 1_555 1_555
H44 C49 1_555 1_555
C50 C49 1_555 1_555
C51 C50 1_555 1_555
H45 C51 1_555 1_555
C52 C47 1_555 1_555
H46 C52 1_555 1_555
C53 C50 1_555 1_555
C54 H47 1_555 1_555
C55 C54 1_555 1_555
H48 C55 1_555 1_555
H50 C58 1_555 1_555
C59 C53 1_555 1_555
C51 C52 1_555 1_555
C54 C59 1_555 1_555
C58 C59 1_555 1_555
O11 C46 1_555 1_555
O12 C46 1_555 1_555
O13_2 C60_2 1_555 1_555
O14_2 C60_2 1_555 1_555
C57_2 C56_2 1_555 1_555
C60_2 C56_2 1_555 1_555
O11_2 C46_2 1_555 1_555
O12_2 C46_2 1_555 1_555
C47_2 C48_2 1_555 1_555
C48_2 H43_2 1_555 1_555
C49_2 C48_2 1_555 1_555
H44_2 C49_2 1_555 1_555
C50_2 C49_2 1_555 1_555
C52_2 C47_2 1_555 1_555
H46_2 C52_2 1_555 1_555
C54_2 H47_2 1_555 1_555
C55_2 C54_2 1_555 1_555
H48_2 C55_2 1_555 1_555
O15_2 C53_2 1_555 1_555
H45_2 C51_2 1_555 1_555
H50_2 C58_2 1_555 1_555
C59_2 C53_2 1_555 1_555
C58_2 C59_2 1_555 1_555
O11_3 C46_3 1_555 1_555
O12_3 C46_3 1_555 1_555
O13_3 C60_3 1_555 1_555
O14_3 C60_3 1_555 1_555
O15_3 C53_3 1_555 1_555
C46_3 C47_3 1_555 1_555
C47_3 C48_3 1_555 1_555
C48_3 H43_3 1_555 1_555
C49_3 C48_3 1_555 1_555
H44_3 C49_3 1_555 1_555
C50_3 C49_3 1_555 1_555
C51_3 C50_3 1_555 1_555
H45_3 C51_3 1_555 1_555
C52_3 C47_3 1_555 1_555
H46_3 C52_3 1_555 1_555
C53_3 C50_3 1_555 1_555
C54_3 H47_3 1_555 1_555
C55_3 C54_3 1_555 1_555
H48_3 C55_3 1_555 1_555
C56_3 C55_3 1_555 1_555
C57_3 C56_3 1_555 1_555
H49_3 C57_3 1_555 1_555
C58_3 C57_3 1_555 1_555
H50_3 C58_3 1_555 1_555
C59_3 C53_3 1_555 1_555
C60_3 C56_3 1_555 1_555
C51_3 C52_3 1_555 1_555
C54_3 C59_3 1_555 1_555
C58_3 C59_3 1_555 1_555
O11_4 C46_4 1_555 1_555
O12_4 C46_4 1_555 1_555
O13_4 C60_4 1_555 1_555
O14_4 C60_4 1_555 1_555
C46_4 C47_4 1_555 1_555
C47_4 C48_4 1_555 1_555
C48_4 H43_4 1_555 1_555
C49_4 C48_4 1_555 1_555
H44_4 C49_4 1_555 1_555
C50_4 C49_4 1_555 1_555
C52_4 C47_4 1_555 1_555
H46_4 C52_4 1_555 1_555
C54_4 H47_4 1_555 1_555
C55_4 C54_4 1_555 1_555
H48_4 C55_4 1_555 1_555
C56_4 C55_4 1_555 1_555
C57_4 C56_4 1_555 1_555
C60_4 C56_4 1_555 1_555
O15_4 C53_4 1_555 1_555
H45_4 C51_4 1_555 1_555
H50_4 C58_4 1_555 1_555
C59_4 C53_4 1_555 1_555
C58_4 C59_4 1_555 1_555

#END
