
###############################################################################
#
# This file contains modified crystal structure data generated from the
# MOF subset of the Cambridge Structural Database (CSD) v543 
# hosted by the Cambridge Crystallographic Data Centre (CCDC).
#
# This work is licensed under the Creative Commons
# Attribution-NonCommercial-ShareAlike 4.0 International License.
# To view a copy of this license, visit
# http://creativecommons.org/licenses/by-nc-sa/4.0/
# or send a letter to
# Creative Commons, PO Box 1866, Mountain View, CA 94042, USA.
#
# CIF created using the CSD Python API on 29 September 2022
# The structure has been converted into the P1 space group
# The structure has a 3D framework
# The original CSD entry TADCEK is in the monoclinic crystal system
# The framework has been calculated to contain at least 10.0% void space
# The void calculation uses a probe of radius 1.32A, grid spacing 0.4
#
###############################################################################

data_TADCEK
_chemical_formula_moiety         '(C160 H112 N32 O40 Zn8)n'
_symmetry_cell_setting           triclinic
_symmetry_space_group_name_H-M   'P 1'
_symmetry_Int_Tables_number      1
_space_group_name_Hall           'P 1'
loop_
_symmetry_equiv_pos_site_id
_symmetry_equiv_pos_as_xyz
1 x,y,z
_cell_length_a                   17.4144(14)
_cell_length_b                   10.6579(9)
_cell_length_c                   23.8004(19)
_cell_angle_alpha                90
_cell_angle_beta                 91.2380(10)
_cell_angle_gamma                90
_cell_volume                     4416.35
loop_
_atom_site_label
_atom_site_type_symbol
_atom_site_fract_x
_atom_site_fract_y
_atom_site_fract_z
C1 C 0.16732(11) 0.13144(18) 0.29689(8)
H1 H 0.1382 0.0562 0.2984
C2 C 0.19994(12) 0.31041(19) 0.25006(8)
H2 H 0.1942 0.3641 0.2184
C3 C 0.21887(12) 0.15576(19) 0.34089(8)
H3 H 0.2250 0.0987 0.3713
C4 C 0.25282(12) 0.34229(19) 0.29114(8)
H4 H 0.2835 0.4153 0.2872
C5 C 0.26127(11) 0.26643(19) 0.33899(8)
C6 C 0.33408(12) 0.2564(2) 0.43090(8)
C7 C 0.40935(12) 0.32828(19) 0.51537(8)
C8 C 0.43111(15) 0.2131(2) 0.53819(9)
H5 H 0.4184 0.1367 0.5196
C9 C 0.42845(12) 0.43629(19) 0.54544(8)
H6 H 0.4142 0.5164 0.5312
C10 C 0.47179(14) 0.21293(19) 0.58883(9)
H7 H 0.4878 0.1342 0.6037
C11 C 0.46821(12) 0.42656(18) 0.59602(8)
H8 H 0.4806 0.5014 0.6159
C18 C 0.16610(10) 0.17370(19) 0.09811(7)
C19 C 0.21012(11) 0.21286(18) 0.04734(7)
C20 C 0.24111(11) 0.12339(18) 0.01152(8)
H11 H 0.2350 0.0366 0.0194
C21 C 0.21925(11) 0.33960(18) 0.03559(8)
H12 H 0.1983 0.4009 0.0598
N1 N 0.15578(9) 0.20686(15) 0.25236(6)
N2 N 0.30996(10) 0.31237(17) 0.38112(7)
H13 H 0.3281 0.3882 0.3753
N3 N 0.37278(11) 0.34446(16) 0.46348(7)
H14 H 0.3744 0.4208 0.4495
N4 N 0.49018(9) 0.31652(15) 0.61837(7)
O1 O 0.32361(12) 0.14803(16) 0.44340(7)
O2 O 0.04036(8) 0.01823(12) 0.21388(5)
O4 O 0.14721(8) 0.25888(15) 0.13198(6)
O5 O 0.14844(8) 0.06026(14) 0.10418(6)
Zn1 Zn 0.06911(2) 0.19284(2) 0.18795(2)
N9 N 0.00982(9) 0.18348(15) 0.38163(7)
O11 O 0.02661(9) 0.36488(12) 0.20760(6)
Zn7 Zn 0.56911(2) 0.30716(2) 0.68795(2)
C24 C 0.33390(10) 0.32630(19) 0.90189(7)
C25 C 0.28988(11) 0.28714(18) 0.95266(7)
C26 C 0.25889(11) 0.37661(18) 0.98848(8)
H17 H 0.2650 0.4634 0.9806
C27 C 0.28075(11) 0.16040(18) 0.96441(8)
H18 H 0.3017 0.0991 0.9402
O8 O 0.35279(8) 0.24112(15) 0.86802(6)
O9 O 0.35156(8) 0.43974(14) 0.89582(6)
Zn6 Zn 0.43089(2) 0.30716(2) 0.81205(2)
C12 C 0.0000 0.9649(2) 0.2500
C13 C 0.0000 0.8233(2) 0.2500
C14 C 0.04160(11) 0.75687(17) 0.21048(8)
H9 H 0.0702 0.8011 0.1833
C15 C 0.04155(11) 0.62633(17) 0.21042(8)
H10 H 0.0700 0.5820 0.1832
C16 C 0.0000 0.5603(2) 0.2500
C17 C 0.0000 0.4181(2) 0.2500
O6 O 0.95964(8) 0.01823(12) 0.28612(5)
C28 C 0.83268(11) 0.13144(18) 0.20311(8)
H19 H 0.8618 0.0562 0.2016
C29 C 0.80006(12) 0.31041(19) 0.24994(8)
H20 H 0.8058 0.3641 0.2816
C30 C 0.78113(12) 0.15576(19) 0.15911(8)
H21 H 0.7750 0.0987 0.1287
C31 C 0.74718(12) 0.34229(19) 0.20886(8)
H22 H 0.7165 0.4153 0.2128
C32 C 0.73873(11) 0.26643(19) 0.16101(8)
C33 C 0.66592(12) 0.2564(2) 0.06910(8)
N5 N 0.84422(9) 0.20686(15) 0.24764(6)
N6 N 0.69004(10) 0.31237(17) 0.11888(7)
H27 H 0.6719 0.3882 0.1247
N7 N 0.62722(11) 0.34446(16) 0.03652(7)
H28 H 0.6256 0.4208 0.0505
O10 O 0.67639(12) 0.14803(16) 0.05660(7)
Zn2 Zn 0.93089(2) 0.19284(2) 0.31205(2)
N10 N 0.99018(9) 0.18348(15) 0.11837(7)
O12 O 0.97339(9) 0.36488(12) 0.29240(6)
O13 O 0.85279(8) 0.25888(15) 0.36802(6)
C34 C 0.59065(12) 0.32828(19) 0.98463(8)
C35 C 0.56889(15) 0.2131(2) 0.96181(9)
H23 H 0.5816 0.1367 0.9804
C36 C 0.57155(12) 0.43629(19) 0.95456(8)
H24 H 0.5858 0.5164 0.9688
C37 C 0.52821(14) 0.21293(19) 0.91117(9)
H25 H 0.5122 0.1342 0.8963
C38 C 0.53179(12) 0.42656(18) 0.90398(8)
H26 H 0.5194 0.5014 0.8841
N8 N 0.50982(9) 0.31652(15) 0.88163(7)
C12_2 C 1.0000 0.9649(2) 0.2500
C13_2 C 1.0000 0.8233(2) 0.2500
C16_2 C 1.0000 0.5603(2) 0.2500
C17_2 C 1.0000 0.4181(2) 0.2500
C22 C 0.95840(11) 0.75687(17) 0.28952(8)
H15 H 0.9298 0.8011 0.3167
C23 C 0.95845(11) 0.62633(17) 0.28958(8)
H16 H 0.9300 0.5820 0.3168
C18_2 C 0.83390(10) 0.17370(19) 0.40189(7)
C19_2 C 0.78988(11) 0.21286(18) 0.45266(7)
C20_2 C 0.75889(11) 0.12339(18) 0.48848(8)
H11_2 H 0.7650 0.0366 0.4806
C21_2 C 0.78075(11) 0.33960(18) 0.46441(8)
H12_2 H 0.8017 0.4009 0.4402
O5_2 O 0.85156(8) 0.06026(14) 0.39582(6)
C24_2 C 0.66610(10) 0.32630(19) 0.59811(7)
C25_2 C 0.71012(11) 0.28714(18) 0.54734(7)
C26_2 C 0.74111(11) 0.37661(18) 0.51152(8)
H17_2 H 0.7350 0.4634 0.5194
C27_2 C 0.71925(11) 0.16040(18) 0.53559(8)
H18_2 H 0.6983 0.0991 0.5598
O8_2 O 0.64721(8) 0.24112(15) 0.63198(6)
O9_2 O 0.64844(8) 0.43974(14) 0.60418(6)
C17_3 C 0.5000 0.0819(2) 0.7500
O3 O 0.47339(9) 0.13512(12) 0.79240(6)
O7 O 0.52661(9) 0.13512(12) 0.70760(6)
C34_2 C 0.90935(12) 0.17172(19) 0.01537(8)
C35_2 C 0.93111(15) 0.2869(2) 0.03819(9)
H23_2 H 0.9184 0.3633 0.0196
C36_2 C 0.92845(12) 0.06371(19) 0.04544(8)
C37_2 C 0.97179(14) 0.28707(19) 0.08883(9)
H25_2 H 0.9878 0.3658 0.1037
C38_2 C 0.96821(12) 0.07344(18) 0.09602(8)
C1_2 C 0.33268(11) 0.36856(18) 0.70311(8)
H1_2 H 0.3618 0.4438 0.7016
C2_2 C 0.30006(12) 0.18959(19) 0.74994(8)
H2_2 H 0.3058 0.1359 0.7816
C3_2 C 0.28113(12) 0.34424(19) 0.65911(8)
H3_2 H 0.2750 0.4013 0.6287
C4_2 C 0.24718(12) 0.15771(19) 0.70886(8)
H4_2 H 0.2165 0.0847 0.7128
C5_2 C 0.23873(11) 0.23357(19) 0.66101(8)
C6_2 C 0.16592(12) 0.2436(2) 0.56910(8)
C7_2 C 0.09065(12) 0.17172(19) 0.48463(8)
C8_2 C 0.06889(15) 0.2869(2) 0.46181(9)
H5_2 H 0.0816 0.3633 0.4804
C9_2 C 0.07155(12) 0.06371(19) 0.45456(8)
C10_2 C 0.02821(14) 0.28707(19) 0.41117(9)
H7_2 H 0.0122 0.3658 0.3963
C11_2 C 0.03179(12) 0.07344(18) 0.40398(8)
C12_3 C 0.5000 0.5351(2) 0.7500
C13_3 C 0.5000 0.6767(2) 0.7500
C14_2 C 0.45840(11) 0.74313(17) 0.78952(8)
H9_2 H 0.4298 0.6989 0.8167
C15_2 C 0.45845(11) 0.87367(17) 0.78958(8)
H10_2 H 0.4300 0.9180 0.8168
C16_3 C 0.5000 0.9397(2) 0.7500
N1_2 N 0.34422(9) 0.29314(15) 0.74764(6)
N2_2 N 0.19004(10) 0.18763(17) 0.61888(7)
H13_2 H 0.1719 0.1118 0.6247
N3_2 N 0.12722(11) 0.15554(16) 0.53652(7)
H14_2 H 0.1256 0.0792 0.5505
O1_2 O 0.17639(12) 0.35197(16) 0.55660(7)
O2_2 O 0.45964(8) 0.48177(12) 0.78612(5)
C22_2 C 0.54160(11) 0.74313(17) 0.71048(8)
H15_2 H 0.5702 0.6989 0.6833
C23_2 C 0.54155(11) 0.87367(17) 0.71042(8)
H16_2 H 0.5700 0.9180 0.6832
O6_2 O 0.54036(8) 0.48177(12) 0.71388(5)
C28_2 C 0.66732(11) 0.36856(18) 0.79689(8)
H19_2 H 0.6382 0.4438 0.7984
C29_2 C 0.69994(12) 0.18959(19) 0.75006(8)
H20_2 H 0.6942 0.1359 0.7184
C30_2 C 0.71887(12) 0.34424(19) 0.84089(8)
H21_2 H 0.7250 0.4013 0.8713
C31_2 C 0.75282(12) 0.15771(19) 0.79114(8)
H22_2 H 0.7835 0.0847 0.7872
C32_2 C 0.76127(11) 0.23357(19) 0.83899(8)
C33_2 C 0.83408(12) 0.2436(2) 0.93090(8)
N5_2 N 0.65578(9) 0.29314(15) 0.75236(6)
N6_2 N 0.80996(10) 0.18763(17) 0.88112(7)
H27_2 H 0.8281 0.1118 0.8753
N7_2 N 0.87278(11) 0.15554(16) 0.96348(7)
H28_2 H 0.8744 0.0792 0.9495
O10_2 O 0.82361(12) 0.35197(16) 0.94340(7)
Zn7_2 Zn 0.06911(2) 0.80716(2) 0.68795(2)
C1_3 C 0.66732(11) 0.63144(18) 0.29689(8)
H1_3 H 0.6382 0.5562 0.2984
C2_3 C 0.69994(12) 0.81041(19) 0.25006(8)
H2_3 H 0.6942 0.8641 0.2184
C3_3 C 0.71887(12) 0.65576(19) 0.34089(8)
H3_3 H 0.7250 0.5987 0.3713
C4_3 C 0.75282(12) 0.84229(19) 0.29114(8)
H4_3 H 0.7835 0.9153 0.2872
C5_3 C 0.76127(11) 0.76643(19) 0.33899(8)
C6_3 C 0.83408(12) 0.7564(2) 0.43090(8)
C7_3 C 0.90935(12) 0.82828(19) 0.51537(8)
C8_3 C 0.93111(15) 0.7131(2) 0.53819(9)
H5_3 H 0.9184 0.6367 0.5196
C9_3 C 0.92845(12) 0.93629(19) 0.54544(8)
C10_3 C 0.97179(14) 0.71293(19) 0.58883(9)
H7_3 H 0.9878 0.6342 0.6037
C11_3 C 0.96821(12) 0.92656(18) 0.59602(8)
C12_4 C 0.5000 0.4649(2) 0.2500
C13_4 C 0.5000 0.3233(2) 0.2500
C14_3 C 0.54160(11) 0.25687(17) 0.21048(8)
H9_3 H 0.5702 0.3011 0.1833
C15_3 C 0.54155(11) 0.12633(17) 0.21042(8)
H10_3 H 0.5700 0.0820 0.1832
C16_4 C 0.5000 0.0603(2) 0.2500
C18_3 C 0.66610(10) 0.67370(19) 0.09811(7)
C19_3 C 0.71012(11) 0.71286(18) 0.04734(7)
C20_3 C 0.74111(11) 0.62339(18) 0.01152(8)
H11_3 H 0.7350 0.5366 0.0194
C21_3 C 0.71925(11) 0.83960(18) 0.03559(8)
H12_3 H 0.6983 0.9009 0.0598
N1_3 N 0.65578(9) 0.70686(15) 0.25236(6)
N2_3 N 0.80996(10) 0.81237(17) 0.38112(7)
H13_3 H 0.8281 0.8882 0.3753
N3_3 N 0.87278(11) 0.84446(16) 0.46348(7)
H14_3 H 0.8744 0.9208 0.4495
N4_2 N 0.99018(9) 0.81652(15) 0.61837(7)
O1_3 O 0.82361(12) 0.64803(16) 0.44340(7)
O2_3 O 0.54036(8) 0.51823(12) 0.21388(5)
O4_2 O 0.64721(8) 0.75888(15) 0.13198(6)
O5_3 O 0.64844(8) 0.56026(14) 0.10418(6)
Zn1_2 Zn 0.56911(2) 0.69284(2) 0.18795(2)
C22_3 C 0.45840(11) 0.25687(17) 0.28952(8)
H15_3 H 0.4298 0.3011 0.3167
C23_3 C 0.45845(11) 0.12633(17) 0.28958(8)
H16_3 H 0.4300 0.0820 0.3168
O6_3 O 0.45964(8) 0.51823(12) 0.28612(5)
C28_3 C 0.33268(11) 0.63144(18) 0.20311(8)
H19_3 H 0.3618 0.5562 0.2016
C29_3 C 0.30006(12) 0.81041(19) 0.24994(8)
H20_3 H 0.3058 0.8641 0.2816
C30_3 C 0.28113(12) 0.65576(19) 0.15911(8)
H21_3 H 0.2750 0.5987 0.1287
C31_3 C 0.24718(12) 0.84229(19) 0.20886(8)
H22_3 H 0.2165 0.9153 0.2128
C32_3 C 0.23873(11) 0.76643(19) 0.16101(8)
C33_3 C 0.16592(12) 0.7564(2) 0.06910(8)
N5_3 N 0.34422(9) 0.70686(15) 0.24764(6)
N6_3 N 0.19004(10) 0.81237(17) 0.11888(7)
H27_3 H 0.1719 0.8882 0.1247
N7_3 N 0.12722(11) 0.84446(16) 0.03652(7)
H28_3 H 0.1256 0.9208 0.0505
O10_3 O 0.17639(12) 0.64803(16) 0.05660(7)
Zn2_2 Zn 0.43089(2) 0.69284(2) 0.31205(2)
N9_2 N 0.50982(9) 0.68348(15) 0.38163(7)
N10_2 N 0.49018(9) 0.68348(15) 0.11837(7)
O11_2 O 0.52661(9) 0.86488(12) 0.20760(6)
O12_2 O 0.47339(9) 0.86488(12) 0.29240(6)
O13_2 O 0.35279(8) 0.75888(15) 0.36802(6)
C24_3 C 0.83390(10) 0.82630(19) 0.90189(7)
C25_3 C 0.78988(11) 0.78714(18) 0.95266(7)
C26_3 C 0.75889(11) 0.87661(18) 0.98848(8)
H17_3 H 0.7650 0.9634 0.9806
C27_3 C 0.78075(11) 0.66040(18) 0.96441(8)
H18_3 H 0.8017 0.5991 0.9402
O8_3 O 0.85279(8) 0.74112(15) 0.86802(6)
O9_3 O 0.85156(8) 0.93974(14) 0.89582(6)
C34_3 C 0.09065(12) 0.82828(19) 0.98463(8)
C35_3 C 0.06889(15) 0.7131(2) 0.96181(9)
H23_3 H 0.0816 0.6367 0.9804
C36_3 C 0.07155(12) 0.93629(19) 0.95456(8)
C37_3 C 0.02821(14) 0.71293(19) 0.91117(9)
H25_3 H 0.0122 0.6342 0.8963
C38_3 C 0.03179(12) 0.92656(18) 0.90398(8)
N8_2 N 0.00982(9) 0.81652(15) 0.88163(7)
Zn6_2 Zn 0.93089(2) 0.80716(2) 0.81205(2)
C17_4 C 0.5000 0.9181(2) 0.2500
C18_4 C 0.33390(10) 0.67370(19) 0.40189(7)
C19_4 C 0.28988(11) 0.71286(18) 0.45266(7)
C20_4 C 0.25889(11) 0.62339(18) 0.48848(8)
H11_4 H 0.2650 0.5366 0.4806
C21_4 C 0.28075(11) 0.83960(18) 0.46441(8)
H12_4 H 0.3017 0.9009 0.4402
O5_4 O 0.35156(8) 0.56026(14) 0.39582(6)
C24_4 C 0.16610(10) 0.82630(19) 0.59811(7)
C25_4 C 0.21012(11) 0.78714(18) 0.54734(7)
C26_4 C 0.24111(11) 0.87661(18) 0.51152(8)
H17_4 H 0.2350 0.9634 0.5194
C27_4 C 0.21925(11) 0.66040(18) 0.53559(8)
H18_4 H 0.1983 0.5991 0.5598
O8_4 O 0.14721(8) 0.74112(15) 0.63198(6)
O9_4 O 0.14844(8) 0.93974(14) 0.60418(6)
C12_5 C 0.0000 0.0351(2) 0.7500
C13_5 C 0.0000 0.1767(2) 0.7500
C16_5 C 0.0000 0.4397(2) 0.7500
C17_5 C 0.0000 0.5819(2) 0.7500
C22_4 C 0.04160(11) 0.24313(17) 0.71048(8)
H15_4 H 0.0702 0.1989 0.6833
C23_4 C 0.04155(11) 0.37367(17) 0.71042(8)
H16_4 H 0.0700 0.4180 0.6832
O7_2 O 0.02661(9) 0.63512(12) 0.70760(6)
C34_4 C 0.40935(12) 0.67172(19) 0.01537(8)
C35_4 C 0.43111(15) 0.7869(2) 0.03819(9)
H23_4 H 0.4184 0.8633 0.0196
C36_4 C 0.42845(12) 0.56371(19) 0.04544(8)
H24_2 H 0.4142 0.4836 0.0312
C37_4 C 0.47179(14) 0.78707(19) 0.08883(9)
H25_4 H 0.4878 0.8658 0.1037
C38_4 C 0.46821(12) 0.57344(18) 0.09602(8)
H26_2 H 0.4806 0.4986 0.1159
O6_4 O 0.04036(8) 0.98177(12) 0.71388(5)
C28_4 C 0.16732(11) 0.86856(18) 0.79689(8)
H19_4 H 0.1382 0.9438 0.7984
C29_4 C 0.19994(12) 0.68959(19) 0.75006(8)
H20_4 H 0.1942 0.6359 0.7184
C30_4 C 0.21887(12) 0.84424(19) 0.84089(8)
H21_4 H 0.2250 0.9013 0.8713
C31_4 C 0.25282(12) 0.65771(19) 0.79114(8)
H22_4 H 0.2835 0.5847 0.7872
C32_4 C 0.26127(11) 0.73357(19) 0.83899(8)
C33_4 C 0.33408(12) 0.7436(2) 0.93090(8)
N5_4 N 0.15578(9) 0.79314(15) 0.75236(6)
N6_4 N 0.30996(10) 0.68763(17) 0.88112(7)
H27_4 H 0.3281 0.6118 0.8753
N7_4 N 0.37278(11) 0.65554(16) 0.96348(7)
H28_4 H 0.3744 0.5792 0.9495
O10_4 O 0.32361(12) 0.85197(16) 0.94340(7)
C12_6 C 1.0000 0.0351(2) 0.7500
C13_6 C 1.0000 0.1767(2) 0.7500
C14_4 C 0.95840(11) 0.24313(17) 0.78952(8)
H9_4 H 0.9298 0.1989 0.8167
C15_4 C 0.95845(11) 0.37367(17) 0.78958(8)
H10_4 H 0.9300 0.4180 0.8168
C16_6 C 1.0000 0.4397(2) 0.7500
C17_6 C 1.0000 0.5819(2) 0.7500
O3_2 O 0.97339(9) 0.63512(12) 0.79240(6)
C1_4 C 0.83268(11) 0.86856(18) 0.70311(8)
H1_4 H 0.8618 0.9438 0.7016
C2_4 C 0.80006(12) 0.68959(19) 0.74994(8)
H2_4 H 0.8058 0.6359 0.7816
C3_4 C 0.78113(12) 0.84424(19) 0.65911(8)
H3_4 H 0.7750 0.9013 0.6287
C4_4 C 0.74718(12) 0.65771(19) 0.70886(8)
H4_4 H 0.7165 0.5847 0.7128
C5_4 C 0.73873(11) 0.73357(19) 0.66101(8)
C6_4 C 0.66592(12) 0.7436(2) 0.56910(8)
C7_4 C 0.59065(12) 0.67172(19) 0.48463(8)
C8_4 C 0.56889(15) 0.7869(2) 0.46181(9)
H5_4 H 0.5816 0.8633 0.4804
C9_4 C 0.57155(12) 0.56371(19) 0.45456(8)
H6_2 H 0.5858 0.4836 0.4688
C10_4 C 0.52821(14) 0.78707(19) 0.41117(9)
H7_4 H 0.5122 0.8658 0.3963
C11_4 C 0.53179(12) 0.57344(18) 0.40398(8)
H8_2 H 0.5194 0.4986 0.3841
N1_4 N 0.84422(9) 0.79314(15) 0.74764(6)
N2_4 N 0.69004(10) 0.68763(17) 0.61888(7)
H13_4 H 0.6719 0.6118 0.6247
N3_4 N 0.62722(11) 0.65554(16) 0.53652(7)
H14_4 H 0.6256 0.5792 0.5505
O1_4 O 0.67639(12) 0.85197(16) 0.55660(7)
O2_4 O 0.95964(8) 0.98177(12) 0.78612(5)
H6_3 H 0.9142 0.0164 0.5312
H8_3 H 0.9806 0.0014 0.6159
H24_3 H 0.0858 0.0164 0.9688
H26_3 H 0.0194 0.0014 0.8841
H24_4 H 0.9142 0.9836 0.0312
H26_4 H 0.9806 0.9986 0.1159
H6_4 H 0.0858 0.9836 0.4688
H8_4 H 0.0194 0.9986 0.3841
loop_
_geom_bond_atom_site_label_1
_geom_bond_atom_site_label_2
_geom_bond_site_symmetry_1
_geom_bond_site_symmetry_2
C1 H1 1_555 1_555
C2 H2 1_555 1_555
C3 C1 1_555 1_555
H3 C3 1_555 1_555
C4 C2 1_555 1_555
H4 C4 1_555 1_555
C5 C3 1_555 1_555
C6 N2 1_555 1_555
C7 C8 1_555 1_555
C8 H5 1_555 1_555
C9 C7 1_555 1_555
H6 C9 1_555 1_555
C10 C8 1_555 1_555
H7 C10 1_555 1_555
C11 C9 1_555 1_555
H8 C11 1_555 1_555
C18 C19 1_555 1_555
C19 C20 1_555 1_555
C20 H11 1_555 1_555
C21 C19 1_555 1_555
H12 C21 1_555 1_555
N1 C1 1_555 1_555
N2 C5 1_555 1_555
H13 N2 1_555 1_555
N3 C6 1_555 1_555
H14 N3 1_555 1_555
N4 C10 1_555 1_555
O1 C6 1_555 1_555
O4 C18 1_555 1_555
O5 C18 1_555 1_555
Zn1 N1 1_555 1_555
O11 Zn1 1_555 1_555
Zn7 N4 1_555 1_555
C2 N1 1_555 1_555
C4 C5 1_555 1_555
C7 N3 1_555 1_555
C11 N4 1_555 1_555
O2 Zn1 1_555 1_555
O4 Zn1 1_555 1_555
C24 C25 1_555 1_555
C25 C26 1_555 1_555
H17 C26 1_555 1_555
H18 C27 1_555 1_555
O8 C24 1_555 1_555
O9 C24 1_555 1_555
Zn6 O8 1_555 1_555
C25 C27 1_555 1_555
C12 C13 1_555 1_555
C13 C14 1_555 1_555
C14 H9 1_555 1_555
C15 C14 1_555 1_555
H10 C15 1_555 1_555
C16 C15 1_555 1_555
C17 C16 1_555 1_555
O11 C17 1_555 1_555
C28 H19 1_555 1_555
C29 H20 1_555 1_555
C30 C28 1_555 1_555
H21 C30 1_555 1_555
C31 C29 1_555 1_555
H22 C31 1_555 1_555
C32 C30 1_555 1_555
C33 N6 1_555 1_555
N5 C28 1_555 1_555
N6 C32 1_555 1_555
H27 N6 1_555 1_555
N7 C33 1_555 1_555
H28 N7 1_555 1_555
O10 C33 1_555 1_555
Zn2 O6 1_555 1_555
O12 Zn2 1_555 1_555
O13 Zn2 1_555 1_555
C29 N5 1_555 1_555
C31 C32 1_555 1_555
N5 Zn2 1_555 1_555
C34 C35 1_555 1_555
C35 H23 1_555 1_555
C36 C34 1_555 1_555
H24 C36 1_555 1_555
C37 C35 1_555 1_555
H25 C37 1_555 1_555
C38 C36 1_555 1_555
H26 C38 1_555 1_555
N8 C37 1_555 1_555
Zn6 N8 1_555 1_555
C38 N8 1_555 1_555
C12_2 C13_2 1_555 1_555
C17_2 C16_2 1_555 1_555
C22 C13_2 1_555 1_555
H15 C22 1_555 1_555
C23 C16_2 1_555 1_555
H16 C23 1_555 1_555
O12 C17_2 1_555 1_555
C22 C23 1_555 1_555
C18_2 C19_2 1_555 1_555
C19_2 C20_2 1_555 1_555
C20_2 H11_2 1_555 1_555
C21_2 C19_2 1_555 1_555
H12_2 C21_2 1_555 1_555
O13 C18_2 1_555 1_555
O5_2 C18_2 1_555 1_555
C24_2 C25_2 1_555 1_555
C25_2 C26_2 1_555 1_555
C26_2 C21_2 1_555 1_555
H17_2 C26_2 1_555 1_555
C27_2 C20_2 1_555 1_555
H18_2 C27_2 1_555 1_555
O8_2 C24_2 1_555 1_555
O9_2 C24_2 1_555 1_555
Zn7 O8_2 1_555 1_555
C25_2 C27_2 1_555 1_555
O3 C17_3 1_555 1_555
O7 C17_3 1_555 1_555
Zn6 O3 1_555 1_555
Zn7 O7 1_555 1_555
C34_2 C35_2 1_555 1_555
C35_2 H23_2 1_555 1_555
C36_2 C34_2 1_555 1_555
C37_2 C35_2 1_555 1_555
H25_2 C37_2 1_555 1_555
C38_2 C36_2 1_555 1_555
N10 C37_2 1_555 1_555
C38_2 N10 1_555 1_555
C1_2 H1_2 1_555 1_555
C2_2 H2_2 1_555 1_555
C3_2 C1_2 1_555 1_555
H3_2 C3_2 1_555 1_555
C4_2 C2_2 1_555 1_555
H4_2 C4_2 1_555 1_555
C5_2 C3_2 1_555 1_555
C6_2 N2_2 1_555 1_555
C7_2 C8_2 1_555 1_555
C8_2 H5_2 1_555 1_555
C9_2 C7_2 1_555 1_555
C10_2 C8_2 1_555 1_555
H7_2 C10_2 1_555 1_555
C11_2 C9_2 1_555 1_555
C12_3 C13_3 1_555 1_555
C13_3 C14_2 1_555 1_555
C14_2 H9_2 1_555 1_555
C15_2 C14_2 1_555 1_555
H10_2 C15_2 1_555 1_555
C16_3 C15_2 1_555 1_555
N1_2 C1_2 1_555 1_555
N2_2 C5_2 1_555 1_555
H13_2 N2_2 1_555 1_555
N3_2 C6_2 1_555 1_555
H14_2 N3_2 1_555 1_555
N9 C10_2 1_555 1_555
O1_2 C6_2 1_555 1_555
O2_2 C12_3 1_555 1_555
Zn6 N1_2 1_555 1_555
C22_2 C13_3 1_555 1_555
H15_2 C22_2 1_555 1_555
C23_2 C16_3 1_555 1_555
H16_2 C23_2 1_555 1_555
O6_2 C12_3 1_555 1_555
C28_2 H19_2 1_555 1_555
C29_2 H20_2 1_555 1_555
C30_2 C28_2 1_555 1_555
H21_2 C30_2 1_555 1_555
C31_2 C29_2 1_555 1_555
H22_2 C31_2 1_555 1_555
C32_2 C30_2 1_555 1_555
C33_2 N6_2 1_555 1_555
N5_2 C28_2 1_555 1_555
N6_2 C32_2 1_555 1_555
H27_2 N6_2 1_555 1_555
N7_2 C33_2 1_555 1_555
H28_2 N7_2 1_555 1_555
O10_2 C33_2 1_555 1_555
Zn7 O6_2 1_555 1_555
C2_2 N1_2 1_555 1_555
C4_2 C5_2 1_555 1_555
C7_2 N3_2 1_555 1_555
C11_2 N9 1_555 1_555
O2_2 Zn6 1_555 1_555
C22_2 C23_2 1_555 1_555
C29_2 N5_2 1_555 1_555
C31_2 C32_2 1_555 1_555
N5_2 Zn7 1_555 1_555
C1_3 H1_3 1_555 1_555
C2_3 H2_3 1_555 1_555
C3_3 C1_3 1_555 1_555
H3_3 C3_3 1_555 1_555
C4_3 C2_3 1_555 1_555
H4_3 C4_3 1_555 1_555
C5_3 C3_3 1_555 1_555
C6_3 N2_3 1_555 1_555
C7_3 C8_3 1_555 1_555
C8_3 H5_3 1_555 1_555
C9_3 C7_3 1_555 1_555
C10_3 C8_3 1_555 1_555
H7_3 C10_3 1_555 1_555
C11_3 C9_3 1_555 1_555
C12_4 C13_4 1_555 1_555
C13_4 C14_3 1_555 1_555
C14_3 H9_3 1_555 1_555
C15_3 C14_3 1_555 1_555
H10_3 C15_3 1_555 1_555
C16_4 C15_3 1_555 1_555
C18_3 C19_3 1_555 1_555
C19_3 C20_3 1_555 1_555
C20_3 H11_3 1_555 1_555
C21_3 C19_3 1_555 1_555
H12_3 C21_3 1_555 1_555
N1_3 C1_3 1_555 1_555
N2_3 C5_3 1_555 1_555
H13_3 N2_3 1_555 1_555
N3_3 C6_3 1_555 1_555
H14_3 N3_3 1_555 1_555
N4_2 C10_3 1_555 1_555
O1_3 C6_3 1_555 1_555
O2_3 C12_4 1_555 1_555
O4_2 C18_3 1_555 1_555
O5_3 C18_3 1_555 1_555
Zn1_2 N1_3 1_555 1_555
C22_3 C13_4 1_555 1_555
H15_3 C22_3 1_555 1_555
C23_3 C16_4 1_555 1_555
H16_3 C23_3 1_555 1_555
O6_3 C12_4 1_555 1_555
C28_3 H19_3 1_555 1_555
C29_3 H20_3 1_555 1_555
C30_3 C28_3 1_555 1_555
H21_3 C30_3 1_555 1_555
C31_3 C29_3 1_555 1_555
H22_3 C31_3 1_555 1_555
C32_3 C30_3 1_555 1_555
C33_3 N6_3 1_555 1_555
N5_3 C28_3 1_555 1_555
N6_3 C32_3 1_555 1_555
H27_3 N6_3 1_555 1_555
N7_3 C33_3 1_555 1_555
H28_3 N7_3 1_555 1_555
O10_3 C33_3 1_555 1_555
Zn2_2 O6_3 1_555 1_555
N9_2 Zn2_2 1_555 1_555
N10_2 Zn1_2 1_555 1_555
O11_2 Zn1_2 1_555 1_555
O12_2 Zn2_2 1_555 1_555
O13_2 Zn2_2 1_555 1_555
C2_3 N1_3 1_555 1_555
C4_3 C5_3 1_555 1_555
C7_3 N3_3 1_555 1_555
C11_3 N4_2 1_555 1_555
O2_3 Zn1_2 1_555 1_555
O4_2 Zn1_2 1_555 1_555
C22_3 C23_3 1_555 1_555
C29_3 N5_3 1_555 1_555
C31_3 C32_3 1_555 1_555
N5_3 Zn2_2 1_555 1_555
C24_3 C25_3 1_555 1_555
C25_3 C26_3 1_555 1_555
H17_3 C26_3 1_555 1_555
H18_3 C27_3 1_555 1_555
O8_3 C24_3 1_555 1_555
O9_3 C24_3 1_555 1_555
C34_3 C35_3 1_555 1_555
C35_3 H23_3 1_555 1_555
C36_3 C34_3 1_555 1_555
C37_3 C35_3 1_555 1_555
H25_3 C37_3 1_555 1_555
C38_3 C36_3 1_555 1_555
N8_2 C37_3 1_555 1_555
Zn6_2 O8_3 1_555 1_555
C25_3 C27_3 1_555 1_555
C38_3 N8_2 1_555 1_555
O11_2 C17_4 1_555 1_555
O12_2 C17_4 1_555 1_555
C18_4 C19_4 1_555 1_555
C19_4 C20_4 1_555 1_555
C20_4 H11_4 1_555 1_555
C21_4 C19_4 1_555 1_555
H12_4 C21_4 1_555 1_555
O13_2 C18_4 1_555 1_555
O5_4 C18_4 1_555 1_555
C24_4 C25_4 1_555 1_555
C25_4 C26_4 1_555 1_555
C26_4 C21_4 1_555 1_555
H17_4 C26_4 1_555 1_555
C27_4 C20_4 1_555 1_555
H18_4 C27_4 1_555 1_555
O8_4 C24_4 1_555 1_555
O9_4 C24_4 1_555 1_555
Zn7_2 O8_4 1_555 1_555
C25_4 C27_4 1_555 1_555
C12_5 C13_5 1_555 1_555
C17_5 C16_5 1_555 1_555
C22_4 C13_5 1_555 1_555
H15_4 C22_4 1_555 1_555
C23_4 C16_5 1_555 1_555
H16_4 C23_4 1_555 1_555
O7_2 C17_5 1_555 1_555
Zn7_2 O7_2 1_555 1_555
C22_4 C23_4 1_555 1_555
C34_4 C35_4 1_555 1_555
C35_4 H23_4 1_555 1_555
C36_4 C34_4 1_555 1_555
H24_2 C36_4 1_555 1_555
C37_4 C35_4 1_555 1_555
H25_4 C37_4 1_555 1_555
C38_4 C36_4 1_555 1_555
H26_2 C38_4 1_555 1_555
N10_2 C37_4 1_555 1_555
C38_4 N10_2 1_555 1_555
C28_4 H19_4 1_555 1_555
C29_4 H20_4 1_555 1_555
C30_4 C28_4 1_555 1_555
H21_4 C30_4 1_555 1_555
C31_4 C29_4 1_555 1_555
H22_4 C31_4 1_555 1_555
C32_4 C30_4 1_555 1_555
C33_4 N6_4 1_555 1_555
N5_4 C28_4 1_555 1_555
N6_4 C32_4 1_555 1_555
H27_4 N6_4 1_555 1_555
N7_4 C33_4 1_555 1_555
H28_4 N7_4 1_555 1_555
O10_4 C33_4 1_555 1_555
Zn7_2 O6_4 1_555 1_555
C29_4 N5_4 1_555 1_555
C31_4 C32_4 1_555 1_555
N5_4 Zn7_2 1_555 1_555
C12_6 C13_6 1_555 1_555
C13_6 C14_4 1_555 1_555
C14_4 H9_4 1_555 1_555
C15_4 C14_4 1_555 1_555
H10_4 C15_4 1_555 1_555
C16_6 C15_4 1_555 1_555
C17_6 C16_6 1_555 1_555
O3_2 C17_6 1_555 1_555
Zn6_2 O3_2 1_555 1_555
C1_4 H1_4 1_555 1_555
C2_4 H2_4 1_555 1_555
C3_4 C1_4 1_555 1_555
H3_4 C3_4 1_555 1_555
C4_4 C2_4 1_555 1_555
H4_4 C4_4 1_555 1_555
C5_4 C3_4 1_555 1_555
C6_4 N2_4 1_555 1_555
C7_4 C8_4 1_555 1_555
C8_4 H5_4 1_555 1_555
C9_4 C7_4 1_555 1_555
H6_2 C9_4 1_555 1_555
C10_4 C8_4 1_555 1_555
H7_4 C10_4 1_555 1_555
C11_4 C9_4 1_555 1_555
H8_2 C11_4 1_555 1_555
N1_4 C1_4 1_555 1_555
N2_4 C5_4 1_555 1_555
H13_4 N2_4 1_555 1_555
N3_4 C6_4 1_555 1_555
H14_4 N3_4 1_555 1_555
N9_2 C10_4 1_555 1_555
O1_4 C6_4 1_555 1_555
Zn6_2 N1_4 1_555 1_555
C2_4 N1_4 1_555 1_555
C4_4 C5_4 1_555 1_555
C7_4 N3_4 1_555 1_555
C11_4 N9_2 1_555 1_555
O2_4 Zn6_2 1_555 1_555

#END
