
###############################################################################
#
# This file contains modified crystal structure data generated from the
# MOF subset of the Cambridge Structural Database (CSD) v543 
# hosted by the Cambridge Crystallographic Data Centre (CCDC).
#
# This work is licensed under the Creative Commons
# Attribution-NonCommercial-ShareAlike 4.0 International License.
# To view a copy of this license, visit
# http://creativecommons.org/licenses/by-nc-sa/4.0/
# or send a letter to
# Creative Commons, PO Box 1866, Mountain View, CA 94042, USA.
#
# CIF created using the CSD Python API on 29 September 2022
# The structure has been converted into the P1 space group
# The structure has a 3D framework
# The original CSD entry TADWEC is in the orthorhombic crystal system
# The original CSD entry TADWEC is in a Sohncke space group
# The framework has been calculated to contain at least 10.0% void space
# The void calculation uses a probe of radius 1.32A, grid spacing 0.4
#
###############################################################################

data_TADWEC
_chemical_formula_moiety         '(C440 H344 N8 O88 Zn14)n'
_symmetry_cell_setting           triclinic
_symmetry_space_group_name_H-M   'P 1'
_symmetry_Int_Tables_number      1
_space_group_name_Hall           'P 1'
loop_
_symmetry_equiv_pos_site_id
_symmetry_equiv_pos_as_xyz
1 x,y,z
_cell_length_a                   13.0884(3)
_cell_length_b                   28.7131(7)
_cell_length_c                   42.8771(11)
_cell_angle_alpha                90
_cell_angle_beta                 90
_cell_angle_gamma                90
_cell_volume                     16113.6
loop_
_atom_site_label
_atom_site_type_symbol
_atom_site_fract_x
_atom_site_fract_y
_atom_site_fract_z
Zn2 Zn 0.08951(7) 0.35547(3) 0.068090(17)
O1 O 0.4102(5) 0.69970(18) 0.24727(9)
O2 O 0.6674(4) 0.6552(2) 0.27942(12)
O3 O 0.0191(4) 0.81983(17) 0.41325(11)
O4 O 0.1385(4) 0.8758(2) 0.40919(12)
O5 O 0.1525(5) 0.3933(2) 0.10192(12)
O6 O 0.0282(5) 0.4450(3) 0.10416(15)
O7 O 0.6120(6) 0.5791(2) 0.52900(12)
O8 O 0.4485(5) 0.6038(2) 0.53492(12)
O9 O 0.8062(5) 0.4695(2) 0.09650(14)
O10 O 0.8707(13) 0.5408(5) 0.0891(3)
O11 O 0.1974(4) 0.3135(2) 0.05375(14)
C1 C 0.2751(6) 0.5064(3) 0.18253(18)
C2 C 0.1839(7) 0.5204(3) 0.1720(2)
H3 H 0.1539 0.5476 0.1807
C3 C 0.1311(7) 0.4962(3) 0.1486(2)
H4 H 0.0687 0.5083 0.1406
C4 C 0.1699(6) 0.4551(3) 0.13698(17)
C5 C 0.2620(6) 0.4388(3) 0.14875(18)
H5 H 0.2893 0.4098 0.1421
C6 C 0.3135(7) 0.4659(3) 0.17061(17)
H6 H 0.3787 0.4558 0.1776
C7 C 0.3353(7) 0.5348(3) 0.20491(18)
C8 C 0.2926(6) 0.5605(3) 0.22857(16)
H7 H 0.2205 0.5591 0.2310
C9 C 0.4362(8) 0.5381(3) 0.20107(16)
H8 H 0.4678 0.5205 0.1850
C10 C 0.4986(7) 0.5673(3) 0.22033(19)
C11 C 0.3472(6) 0.5884(3) 0.24912(16)
H9 H 0.3139 0.6042 0.2657
C12 C 0.4537(6) 0.5927(3) 0.24466(15)
C13 C 0.6119(6) 0.5766(3) 0.21552(17)
C14 C 0.6629(5) 0.5568(3) 0.18746(14)
C15 C 0.6770(5) 0.5097(2) 0.18109(15)
H10 H 0.6532 0.4869 0.1954
C16 C 0.7259(5) 0.4961(2) 0.15380(17)
H11 H 0.7356 0.4640 0.1494
C17 C 0.7607(7) 0.5295(3) 0.13288(14)
C18 C 0.7466(8) 0.5766(3) 0.13925(18)
H12 H 0.7704 0.5994 0.1250
C19 C 0.6977(7) 0.5902(2) 0.1665(2)
H13 H 0.6880 0.6223 0.1709
C20 C 0.6635(7) 0.6030(3) 0.2347(2)
H14 H 0.7346 0.6073 0.2313
C21 C 0.6149(6) 0.6260(3) 0.26106(16)
C22 C 0.5118(5) 0.6220(3) 0.26501(16)
C23 C 0.6035(7) 0.5967(2) 0.46433(15)
H15 H 0.6668 0.5865 0.4727
C24 C 0.5202(8) 0.6052(2) 0.48366(16)
C25 C 0.5918(6) 0.6036(2) 0.43213(14)
H16 H 0.6477 0.5979 0.4185
C26 C 0.4997(6) 0.6187(2) 0.41998(14)
C27 C 0.4184(7) 0.6273(2) 0.44037(16)
H17 H 0.3557 0.6382 0.4320
C28 C 0.4256(7) 0.6206(3) 0.47155(15)
H18 H 0.3688 0.6261 0.4849
C29 C 0.4871(5) 0.6285(3) 0.38557(14)
C30 C 0.5384(5) 0.6000(2) 0.36370(15)
H19 H 0.5814 0.5756 0.3708
C31 C 0.5271(5) 0.6073(2) 0.33253(14)
H20 H 0.5590 0.5866 0.3183
C32 C 0.4305(5) 0.6644(2) 0.37550(13)
H21 H 0.3996 0.6844 0.3904
C33 C 0.4152(5) 0.6736(2) 0.34271(13)
C34 C 0.4703(4) 0.6442(3) 0.32100(14)
C35 C 0.4638(5) 0.6537(2) 0.28864(14)
C36 C 0.4053(6) 0.6925(3) 0.27903(15)
C37 C 0.3596(5) 0.7208(3) 0.30082(15)
H22 H 0.3263 0.7482 0.2938
C38 C 0.3597(5) 0.7114(2) 0.33181(14)
C39 C 0.2993(5) 0.7427(3) 0.35259(14)
C40 C 0.2172(6) 0.7272(2) 0.36899(17)
H23 H 0.2014 0.6949 0.3688
C41 C 0.3181(5) 0.7908(3) 0.35378(15)
H24 H 0.3738 0.8035 0.3424
C42 C 0.1555(6) 0.7574(3) 0.38606(17)
H25 H 0.0988 0.7451 0.3972
C43 C 0.2590(6) 0.8188(3) 0.37066(17)
H26 H 0.2748 0.8510 0.3716
C44 C 0.1731(6) 0.8019(3) 0.38723(15)
C45 C 0.7787(7) 0.6520(4) 0.2810(3)
H27 H 0.8065 0.6804 0.2910
H28 H 0.8070 0.6500 0.2596
C46 C 0.8105(9) 0.6095(4) 0.2995(3)
H29 H 0.8852 0.6079 0.3004
H30 H 0.7838 0.5814 0.2894
H31 H 0.7831 0.6117 0.3207
C47 C 0.3584(8) 0.7410(4) 0.23579(19)
H32 H 0.3693 0.7679 0.2499
H33 H 0.3823 0.7494 0.2146
C48 C 0.2588(16) 0.7279(6) 0.2355(4)
H34 H 0.2165 0.7540 0.2284
H35 H 0.2379 0.7187 0.2565
H36 H 0.2500 0.7015 0.2212
C49 C 0.1044(7) 0.8357(3) 0.40482(15)
C50 C 0.5298(9) 0.5946(3) 0.5191(2)
C51 C 0.1116(7) 0.4287(3) 0.11273(17)
C52 C 0.8004(15) 0.5089(8) 0.1011(4)
N1 N 0.2377(12) 0.2393(5) 0.0375(3)
C53 C 0.1591(10) 0.2735(4) 0.0385(3)
H37 H 0.0921 0.2701 0.0302
C54 C 0.1998(11) 0.1916(5) 0.0226(3)
H38 H 0.1255 0.1926 0.0198
H39 H 0.2179 0.1657 0.0364
H40 H 0.2328 0.1872 0.0022
C55 C 0.3477(11) 0.2428(5) 0.0488(3)
H41 H 0.3573 0.2723 0.0599
H42 H 0.3940 0.2416 0.0309
H43 H 0.3626 0.2168 0.0629
Zn3 Zn 0.08472(7) 0.93694(3) 0.425900(16)
Zn4 Zn 0.58472(7) 0.56306(3) 0.574100(16)
Zn5 Zn 0.91528(7) 0.43694(3) 0.074100(16)
Zn7 Zn 0.41049(7) 0.64453(3) 0.568090(17)
O16 O 0.0515(5) 0.3962(2) 0.03492(12)
O12 O 0.9737(6) 0.5015(3) 0.05329(19)
H1 H 0.9717 0.4994 0.0338
H2 H 0.9948 0.5253 0.0654
Zn6 Zn 0.91049(7) 0.85547(3) 0.431910(17)
O13 O 0.9809(4) 0.31983(17) 0.08675(11)
O14 O 0.8615(4) 0.3758(2) 0.09081(12)
O15 O 0.8880(6) 0.4209(2) 0.02900(12)
O1_2 O 0.0898(5) 0.30030(18) 0.74727(9)
O3_2 O 0.4809(4) 0.18017(17) 0.91325(11)
O4_2 O 0.3615(4) 0.1242(2) 0.90919(12)
O5_2 O 0.3475(5) 0.6067(2) 0.60192(12)
O6_2 O 0.4718(5) 0.5550(3) 0.60416(15)
O11_2 O 0.3026(4) 0.6865(2) 0.55375(14)
O12_2 O 0.5263(6) 0.4985(3) 0.55329(19)
H1_2 H 0.5283 0.5006 0.5338
H2_2 H 0.5052 0.4747 0.5654
C1_2 C 0.2249(6) 0.4936(3) 0.68253(18)
C2_2 C 0.3161(7) 0.4796(3) 0.6720(2)
H3_2 H 0.3461 0.4524 0.6807
C3_2 C 0.3689(7) 0.5038(3) 0.6486(2)
H4_2 H 0.4313 0.4917 0.6406
C4_2 C 0.3301(6) 0.5449(3) 0.63698(17)
C5_2 C 0.2380(6) 0.5612(3) 0.64875(18)
H5_2 H 0.2107 0.5902 0.6421
C6_2 C 0.1865(7) 0.5341(3) 0.67061(17)
H6_2 H 0.1213 0.5442 0.6776
C7_2 C 0.1647(7) 0.4652(3) 0.70491(18)
C8_2 C 0.2074(6) 0.4395(3) 0.72857(16)
H7_2 H 0.2795 0.4409 0.7310
C9_2 C 0.0638(8) 0.4619(3) 0.70107(16)
H8_2 H 0.0322 0.4795 0.6850
C10_2 C 0.0014(7) 0.4327(3) 0.72033(19)
C11_2 C 0.1528(6) 0.4116(3) 0.74912(16)
H9_2 H 0.1861 0.3958 0.7657
C12_2 C 0.0463(6) 0.4073(3) 0.74466(15)
C26_2 C 0.0003(6) 0.3813(2) 0.91998(14)
C27_2 C 0.0816(7) 0.3727(2) 0.94037(16)
H17_2 H 0.1443 0.3618 0.9320
C28_2 C 0.0744(7) 0.3794(3) 0.97155(15)
H18_2 H 0.1312 0.3739 0.9849
C29_2 C 0.0129(5) 0.3715(3) 0.88557(14)
C32_2 C 0.0695(5) 0.3356(2) 0.87550(13)
H21_2 H 0.1004 0.3156 0.8904
C33_2 C 0.0848(5) 0.3264(2) 0.84271(13)
C34_2 C 0.0297(4) 0.3558(3) 0.82100(14)
C35_2 C 0.0362(5) 0.3463(2) 0.78864(14)
C36_2 C 0.0947(6) 0.3075(3) 0.77903(15)
C37_2 C 0.1404(5) 0.2792(3) 0.80082(15)
H22_2 H 0.1737 0.2518 0.7938
C38_2 C 0.1403(5) 0.2886(2) 0.83181(14)
C39_2 C 0.2007(5) 0.2573(3) 0.85259(14)
C40_2 C 0.2828(6) 0.2728(2) 0.86899(17)
H23_2 H 0.2986 0.3051 0.8688
C41_2 C 0.1819(5) 0.2092(3) 0.85378(15)
H24_2 H 0.1262 0.1965 0.8424
C42_2 C 0.3445(6) 0.2426(3) 0.88606(17)
H25_2 H 0.4012 0.2549 0.8972
C43_2 C 0.2410(6) 0.1812(3) 0.87066(17)
H26_2 H 0.2252 0.1490 0.8716
C44_2 C 0.3269(6) 0.1981(3) 0.88723(15)
C47_2 C 0.1416(8) 0.2590(4) 0.73579(19)
H32_2 H 0.1307 0.2321 0.7499
H33_2 H 0.1177 0.2506 0.7146
C48_2 C 0.2412(16) 0.2721(6) 0.7355(4)
H34_2 H 0.2835 0.2460 0.7284
H35_2 H 0.2621 0.2813 0.7565
H36_2 H 0.2500 0.2985 0.7212
C49_2 C 0.3956(7) 0.1643(3) 0.90482(15)
C51_2 C 0.3884(7) 0.5713(3) 0.61273(17)
N1_2 N 0.2623(12) 0.7607(5) 0.5375(3)
C53_2 C 0.3409(10) 0.7265(4) 0.5385(3)
H37_2 H 0.4079 0.7299 0.5302
C54_2 C 0.3002(11) 0.8084(5) 0.5226(3)
H38_2 H 0.3745 0.8074 0.5198
H39_2 H 0.2821 0.8343 0.5364
H40_2 H 0.2672 0.8128 0.5022
C55_2 C 0.1523(11) 0.7572(5) 0.5488(3)
H41_2 H 0.1427 0.7277 0.5599
H42_2 H 0.1060 0.7584 0.5309
H43_2 H 0.1374 0.7832 0.5629
Zn3_2 Zn 0.41528(7) 0.06306(3) 0.925900(16)
Zn6_2 Zn 0.58951(7) 0.14453(3) 0.931910(17)
O13_2 O 0.5191(4) 0.68017(17) 0.58675(11)
O14_2 O 0.6385(4) 0.6242(2) 0.59081(12)
O17 O 0.6938(5) 0.5305(2) 0.59650(14)
C50_2 C 0.9702(9) 0.4054(3) 0.0191(2)
O2_2 O 0.8326(4) 0.3448(2) 0.77942(12)
O10_2 O 0.6293(13) 0.4592(5) 0.5891(3)
C13_2 C 0.8881(6) 0.4234(3) 0.71552(17)
C14_2 C 0.8371(5) 0.4432(3) 0.68746(14)
C15_2 C 0.8230(5) 0.4903(2) 0.68109(15)
H10_2 H 0.8468 0.5131 0.6954
C16_2 C 0.7741(5) 0.5039(2) 0.65380(17)
H11_2 H 0.7644 0.5360 0.6494
C17_2 C 0.7393(7) 0.4705(3) 0.63288(14)
C18_2 C 0.7534(8) 0.4234(3) 0.63925(18)
H12_2 H 0.7296 0.4006 0.6250
C19_2 C 0.8023(7) 0.4098(2) 0.6665(2)
H13_2 H 0.8120 0.3777 0.6709
C20_2 C 0.8365(7) 0.3970(3) 0.7347(2)
H14_2 H 0.7654 0.3927 0.7313
C21_2 C 0.8851(6) 0.3740(3) 0.76106(16)
C22_2 C 0.9882(5) 0.3780(3) 0.76501(16)
C23_2 C 0.8965(7) 0.4033(2) 0.96433(15)
H15_2 H 0.8332 0.4135 0.9727
C24_2 C 0.9798(8) 0.3948(2) 0.98366(16)
C25_2 C 0.9082(6) 0.3964(2) 0.93213(14)
H16_2 H 0.8523 0.4021 0.9185
C30_2 C 0.9616(5) 0.4000(2) 0.86370(15)
H19_2 H 0.9186 0.4244 0.8708
C31_2 C 0.9729(5) 0.3927(2) 0.83253(14)
H20_2 H 0.9410 0.4134 0.8183
C45_2 C 0.7213(7) 0.3480(4) 0.7810(3)
H27_2 H 0.6935 0.3196 0.7910
H28_2 H 0.6930 0.3500 0.7596
C46_2 C 0.6895(9) 0.3905(4) 0.7995(3)
H29_2 H 0.6148 0.3921 0.8004
H30_2 H 0.7162 0.4186 0.7894
H31_2 H 0.7169 0.3883 0.8207
C52_2 C 0.6996(15) 0.4911(8) 0.6011(4)
O12_3 O 0.0263(6) 0.0015(3) 0.44671(19)
H2_3 H 0.0052 0.0253 0.4346
H1_3 H 0.0283 0.9994 0.4662
O15_2 O 0.1120(6) 0.9209(2) 0.47100(12)
O17_2 O 0.1938(5) 0.9695(2) 0.40350(14)
O1_3 O 0.5898(5) 0.19970(18) 0.25273(9)
O2_3 O 0.3326(4) 0.1552(2) 0.22058(12)
O10_3 O 0.1293(13) 0.0408(5) 0.4109(3)
C1_3 C 0.7249(6) 0.0064(3) 0.31747(18)
C2_3 C 0.8161(7) 0.0204(3) 0.3280(2)
H3_3 H 0.8461 0.0476 0.3193
H4_3 H 0.9313 0.0083 0.3594
C7_3 C 0.6647(7) 0.0348(3) 0.29509(18)
C8_3 C 0.7074(6) 0.0605(3) 0.27143(16)
H7_3 H 0.7795 0.0591 0.2690
C9_3 C 0.5638(8) 0.0381(3) 0.29893(16)
H8_3 H 0.5322 0.0205 0.3150
C10_3 C 0.5014(7) 0.0673(3) 0.27967(19)
C11_3 C 0.6528(6) 0.0884(3) 0.25088(16)
H9_3 H 0.6861 0.1042 0.2343
C12_3 C 0.5463(6) 0.0927(3) 0.25534(15)
C13_3 C 0.3881(6) 0.0766(3) 0.28448(17)
C14_3 C 0.3371(5) 0.0568(3) 0.31254(14)
C15_3 C 0.3230(5) 0.0097(2) 0.31891(15)
C17_3 C 0.2393(7) 0.0295(3) 0.36712(14)
C18_3 C 0.2534(8) 0.0766(3) 0.36075(18)
H12_3 H 0.2296 0.0994 0.3750
C19_3 C 0.3023(7) 0.0902(2) 0.3335(2)
H13_3 H 0.3120 0.1223 0.3291
C20_3 C 0.3365(7) 0.1030(3) 0.2653(2)
H14_3 H 0.2654 0.1073 0.2687
C21_3 C 0.3851(6) 0.1260(3) 0.23894(16)
C22_3 C 0.4882(5) 0.1220(3) 0.23499(16)
C23_3 C 0.3965(7) 0.0967(2) 0.03567(15)
H15_3 H 0.3332 0.0865 0.0273
C24_3 C 0.4798(8) 0.1052(2) 0.01634(16)
C25_3 C 0.4082(6) 0.1036(2) 0.06787(14)
H16_3 H 0.3523 0.0979 0.0815
C26_3 C 0.5003(6) 0.1187(2) 0.08002(14)
C27_3 C 0.5816(7) 0.1273(2) 0.05963(16)
H17_3 H 0.6443 0.1382 0.0680
C28_3 C 0.5744(7) 0.1206(3) 0.02845(15)
H18_3 H 0.6312 0.1261 0.0151
C29_3 C 0.5129(5) 0.1285(3) 0.11443(14)
C30_3 C 0.4616(5) 0.1000(2) 0.13630(15)
H19_3 H 0.4186 0.0756 0.1292
C31_3 C 0.4729(5) 0.1073(2) 0.16747(14)
H20_3 H 0.4410 0.0866 0.1817
C32_3 C 0.5695(5) 0.1644(2) 0.12450(13)
H21_3 H 0.6004 0.1844 0.1096
C33_3 C 0.5848(5) 0.1736(2) 0.15729(13)
C34_3 C 0.5297(4) 0.1442(3) 0.17900(14)
C35_3 C 0.5362(5) 0.1537(2) 0.21136(14)
C36_3 C 0.5947(6) 0.1925(3) 0.22097(15)
C37_3 C 0.6404(5) 0.2208(3) 0.19918(15)
H22_3 H 0.6737 0.2482 0.2062
C38_3 C 0.6403(5) 0.2114(2) 0.16819(14)
C39_3 C 0.7007(5) 0.2427(3) 0.14741(14)
C40_3 C 0.7828(6) 0.2272(2) 0.13101(17)
H23_3 H 0.7986 0.1949 0.1312
C41_3 C 0.6819(5) 0.2908(3) 0.14622(15)
H24_3 H 0.6262 0.3035 0.1576
C42_3 C 0.8445(6) 0.2574(3) 0.11394(17)
H25_3 H 0.9012 0.2451 0.1028
C43_3 C 0.7410(6) 0.3188(3) 0.12934(17)
H26_3 H 0.7252 0.3510 0.1284
C44_3 C 0.8269(6) 0.3019(3) 0.11277(15)
C45_3 C 0.2213(7) 0.1520(4) 0.2190(3)
H27_3 H 0.1935 0.1804 0.2090
H28_3 H 0.1930 0.1500 0.2404
C46_3 C 0.1895(9) 0.1095(4) 0.2005(3)
H29_3 H 0.1148 0.1079 0.1996
H30_3 H 0.2162 0.0814 0.2106
H31_3 H 0.2169 0.1117 0.1793
C47_3 C 0.6416(8) 0.2410(4) 0.26421(19)
H32_3 H 0.6307 0.2679 0.2501
H33_3 H 0.6177 0.2494 0.2854
C48_3 C 0.7412(16) 0.2279(6) 0.2645(4)
H34_3 H 0.7835 0.2540 0.2716
H35_3 H 0.7621 0.2187 0.2435
H36_3 H 0.7500 0.2015 0.2788
C49_3 C 0.8956(7) 0.3357(3) 0.09518(15)
C52_3 C 0.1996(15) 0.0089(8) 0.3989(4)
O7_2 O 0.3880(6) 0.0791(2) 0.97100(12)
O8_2 O 0.5515(5) 0.1038(2) 0.96508(12)
C50_3 C 0.4702(9) 0.0946(3) 0.9809(2)
O5_3 O 0.8475(5) 0.8933(2) 0.39808(12)
O6_3 O 0.9718(5) 0.9450(3) 0.39584(15)
O11_3 O 0.8026(4) 0.8135(2) 0.44625(14)
C3_3 C 0.8689(7) 0.9962(3) 0.3514(2)
C4_3 C 0.8301(6) 0.9551(3) 0.36302(17)
C5_3 C 0.7380(6) 0.9388(3) 0.35125(18)
H5_3 H 0.7107 0.9098 0.3579
C6_3 C 0.6865(7) 0.9659(3) 0.32939(17)
H6_3 H 0.6213 0.9558 0.3224
H10_3 H 0.3468 0.9869 0.3046
C16_3 C 0.2741(5) 0.9961(2) 0.34620(17)
H11_3 H 0.2644 0.9640 0.3506
C51_3 C 0.8884(7) 0.9287(3) 0.38727(17)
N1_3 N 0.7623(12) 0.7393(5) 0.4625(3)
C53_3 C 0.8409(10) 0.7735(4) 0.4615(3)
H37_3 H 0.9079 0.7701 0.4698
C54_3 C 0.8002(11) 0.6916(5) 0.4774(3)
H38_3 H 0.8745 0.6926 0.4802
H39_3 H 0.7821 0.6657 0.4636
H40_3 H 0.7672 0.6872 0.4978
C55_3 C 0.6523(11) 0.7428(5) 0.4512(3)
H41_3 H 0.6427 0.7723 0.4401
H42_3 H 0.6060 0.7416 0.4691
H43_3 H 0.6374 0.7168 0.4371
O16_2 O 0.9485(5) 0.8962(2) 0.46508(12)
O9_2 O 0.3062(5) 0.0305(2) 0.90350(14)
H10_4 H 0.1532 0.0131 0.8046
C16_4 C 0.2259(5) 0.0039(2) 0.84620(17)
H11_4 H 0.2356 0.0360 0.8506
O2_4 O 0.1674(4) 0.8448(2) 0.72058(12)
O10_4 O 0.3707(13) 0.9592(5) 0.9109(3)
C13_4 C 0.1119(6) 0.9234(3) 0.78448(17)
C14_4 C 0.1629(5) 0.9432(3) 0.81254(14)
C15_4 C 0.1770(5) 0.9903(2) 0.81891(15)
C17_4 C 0.2607(7) 0.9705(3) 0.86712(14)
C18_4 C 0.2466(8) 0.9234(3) 0.86075(18)
H12_4 H 0.2704 0.9006 0.8750
C19_4 C 0.1977(7) 0.9098(2) 0.8335(2)
H13_4 H 0.1880 0.8777 0.8291
C20_4 C 0.1635(7) 0.8970(3) 0.7653(2)
H14_4 H 0.2346 0.8927 0.7687
C21_4 C 0.1149(6) 0.8740(3) 0.73894(16)
C22_4 C 0.0118(5) 0.8780(3) 0.73499(16)
C23_4 C 0.1035(7) 0.9033(2) 0.53567(15)
H15_4 H 0.1668 0.9135 0.5273
C24_4 C 0.0202(8) 0.8948(2) 0.51634(16)
C25_4 C 0.0918(6) 0.8964(2) 0.56787(14)
H16_4 H 0.1477 0.9021 0.5815
C30_4 C 0.0384(5) 0.9000(2) 0.63630(15)
H19_4 H 0.0814 0.9244 0.6292
C31_4 C 0.0271(5) 0.8927(2) 0.66747(14)
H20_4 H 0.0590 0.9134 0.6817
C45_4 C 0.2787(7) 0.8480(4) 0.7190(3)
H27_4 H 0.3065 0.8196 0.7090
H28_4 H 0.3070 0.8500 0.7404
C46_4 C 0.3105(9) 0.8905(4) 0.7005(3)
H29_4 H 0.3852 0.8921 0.6996
H30_4 H 0.2838 0.9186 0.7106
H31_4 H 0.2831 0.8883 0.6793
C50_4 C 0.0298(9) 0.9054(3) 0.4809(2)
C52_4 C 0.3004(15) 0.9911(8) 0.8989(4)
O5_4 O 0.6525(5) 0.1067(2) 0.89808(12)
O6_4 O 0.5282(5) 0.0550(3) 0.89584(15)
O11_4 O 0.6974(4) 0.1865(2) 0.94625(14)
H1_4 H 0.4717 0.0006 0.9662
C3_4 C 0.6311(7) 0.0038(3) 0.8514(2)
C4_4 C 0.6699(6) 0.0449(3) 0.86302(17)
C5_4 C 0.7620(6) 0.0612(3) 0.85125(18)
H5_4 H 0.7893 0.0902 0.8579
C6_4 C 0.8135(7) 0.0341(3) 0.82939(17)
H6_4 H 0.8787 0.0442 0.8224
C51_4 C 0.6116(7) 0.0713(3) 0.88727(17)
N1_4 N 0.7377(12) 0.2607(5) 0.9625(3)
C53_4 C 0.6591(10) 0.2265(4) 0.9615(3)
H37_4 H 0.5921 0.2299 0.9698
C54_4 C 0.6998(11) 0.3084(5) 0.9774(3)
H38_4 H 0.6255 0.3074 0.9802
H39_4 H 0.7179 0.3343 0.9636
H40_4 H 0.7328 0.3128 0.9978
C55_4 C 0.8477(11) 0.2572(5) 0.9512(3)
H41_4 H 0.8573 0.2277 0.9401
H42_4 H 0.8940 0.2584 0.9691
H43_4 H 0.8626 0.2832 0.9371
O1_4 O 0.9102(5) 0.80030(18) 0.75273(9)
O12_4 O 0.4737(6) 0.9985(3) 0.94671(19)
H2_4 H 0.4948 0.9747 0.9346
C1_4 C 0.7751(6) 0.9936(3) 0.81747(18)
C2_4 C 0.6839(7) 0.9796(3) 0.8280(2)
H3_4 H 0.6539 0.9524 0.8193
H4_4 H 0.5687 0.9917 0.8594
C7_4 C 0.8353(7) 0.9652(3) 0.79509(18)
C8_4 C 0.7926(6) 0.9395(3) 0.77143(16)
H7_4 H 0.7205 0.9409 0.7690
C9_4 C 0.9362(8) 0.9619(3) 0.79893(16)
H8_4 H 0.9678 0.9795 0.8150
C10_4 C 0.9986(7) 0.9327(3) 0.77967(19)
C11_4 C 0.8472(6) 0.9116(3) 0.75088(16)
H9_4 H 0.8139 0.8958 0.7343
C12_4 C 0.9537(6) 0.9073(3) 0.75534(15)
C26_4 C 0.9997(6) 0.8813(2) 0.58002(14)
C27_4 C 0.9184(7) 0.8727(2) 0.55963(16)
H17_4 H 0.8557 0.8618 0.5680
C28_4 C 0.9256(7) 0.8794(3) 0.52845(15)
H18_4 H 0.8688 0.8739 0.5151
C29_4 C 0.9871(5) 0.8715(3) 0.61443(14)
C32_4 C 0.9305(5) 0.8356(2) 0.62450(13)
H21_4 H 0.8996 0.8156 0.6096
C33_4 C 0.9152(5) 0.8264(2) 0.65729(13)
C34_4 C 0.9703(4) 0.8558(3) 0.67900(14)
C35_4 C 0.9638(5) 0.8463(2) 0.71136(14)
C36_4 C 0.9053(6) 0.8075(3) 0.72097(15)
C37_4 C 0.8596(5) 0.7792(3) 0.69918(15)
H22_4 H 0.8263 0.7518 0.7062
C38_4 C 0.8597(5) 0.7886(2) 0.66819(14)
C39_4 C 0.7993(5) 0.7573(3) 0.64741(14)
C40_4 C 0.7172(6) 0.7728(2) 0.63101(17)
H23_4 H 0.7014 0.8051 0.6312
C41_4 C 0.8181(5) 0.7092(3) 0.64622(15)
H24_4 H 0.8738 0.6965 0.6576
C42_4 C 0.6555(6) 0.7426(3) 0.61394(17)
H25_4 H 0.5988 0.7549 0.6028
C43_4 C 0.7590(6) 0.6812(3) 0.62934(17)
H26_4 H 0.7748 0.6490 0.6284
C44_4 C 0.6731(6) 0.6981(3) 0.61277(15)
C47_4 C 0.8584(8) 0.7590(4) 0.76421(19)
H32_4 H 0.8693 0.7321 0.7501
H33_4 H 0.8823 0.7506 0.7854
C48_4 C 0.7588(16) 0.7721(6) 0.7645(4)
H34_4 H 0.7165 0.7460 0.7716
H35_4 H 0.7379 0.7813 0.7435
H36_4 H 0.7500 0.7985 0.7788
C49_4 C 0.6044(7) 0.6643(3) 0.59518(15)
O7_3 O 0.1120(6) 0.0791(2) 0.02900(12)
C50_5 C 0.0298(9) 0.0946(3) 0.0191(2)
Zn4_2 Zn 0.08472(7) 0.06306(3) 0.074100(16)
O9_3 O 0.3062(5) 0.9695(2) 0.59650(14)
H10_5 H 0.1532 0.9869 0.6954
C16_5 C 0.2259(5) 0.9961(2) 0.65380(17)
H11_5 H 0.2356 0.9640 0.6494
Zn5_2 Zn 0.41528(7) 0.93694(3) 0.574100(16)
O8_3 O 0.9485(5) 0.1038(2) 0.03492(12)
Zn7_2 Zn 0.91049(7) 0.14453(3) 0.068090(17)
O1_5 O 0.9102(5) 0.19970(18) 0.74727(9)
O3_3 O 0.5191(4) 0.31983(17) 0.91325(11)
O4_3 O 0.6385(4) 0.3758(2) 0.90919(12)
O12_5 O 0.4737(6) 0.0015(3) 0.55329(19)
H2_5 H 0.4948 0.0253 0.5654
C1_5 C 0.7751(6) 0.0064(3) 0.68253(18)
C2_5 C 0.6839(7) 0.0204(3) 0.6720(2)
H3_5 H 0.6539 0.0476 0.6807
H4_5 H 0.5687 0.0083 0.6406
C7_5 C 0.8353(7) 0.0348(3) 0.70491(18)
C8_5 C 0.7926(6) 0.0605(3) 0.72857(16)
H7_5 H 0.7205 0.0591 0.7310
C9_5 C 0.9362(8) 0.0381(3) 0.70107(16)
H8_5 H 0.9678 0.0205 0.6850
C10_5 C 0.9986(7) 0.0673(3) 0.72033(19)
C11_5 C 0.8472(6) 0.0884(3) 0.74912(16)
H9_5 H 0.8139 0.1042 0.7657
C12_5 C 0.9537(6) 0.0927(3) 0.74466(15)
C26_5 C 0.9997(6) 0.1187(2) 0.91998(14)
C27_5 C 0.9184(7) 0.1273(2) 0.94037(16)
H17_5 H 0.8557 0.1382 0.9320
C28_5 C 0.9256(7) 0.1206(3) 0.97155(15)
H18_5 H 0.8688 0.1261 0.9849
C29_5 C 0.9871(5) 0.1285(3) 0.88557(14)
C32_5 C 0.9305(5) 0.1644(2) 0.87550(13)
H21_5 H 0.8996 0.1844 0.8904
C33_5 C 0.9152(5) 0.1736(2) 0.84271(13)
C34_5 C 0.9703(4) 0.1442(3) 0.82100(14)
C35_5 C 0.9638(5) 0.1537(2) 0.78864(14)
C36_5 C 0.9053(6) 0.1925(3) 0.77903(15)
C37_5 C 0.8596(5) 0.2208(3) 0.80082(15)
H22_5 H 0.8263 0.2482 0.7938
C38_5 C 0.8597(5) 0.2114(2) 0.83181(14)
C39_5 C 0.7993(5) 0.2427(3) 0.85259(14)
C40_5 C 0.7172(6) 0.2272(2) 0.86899(17)
H23_5 H 0.7014 0.1949 0.8688
C41_5 C 0.8181(5) 0.2908(3) 0.85378(15)
H24_5 H 0.8738 0.3035 0.8424
C42_5 C 0.6555(6) 0.2574(3) 0.88606(17)
H25_5 H 0.5988 0.2451 0.8972
C43_5 C 0.7590(6) 0.3188(3) 0.87066(17)
H26_5 H 0.7748 0.3510 0.8716
C44_5 C 0.6731(6) 0.3019(3) 0.88723(15)
C47_5 C 0.8584(8) 0.2410(4) 0.73579(19)
H32_5 H 0.8693 0.2679 0.7499
H33_5 H 0.8823 0.2494 0.7146
C48_5 C 0.7588(16) 0.2279(6) 0.7355(4)
H34_5 H 0.7165 0.2540 0.7284
H35_5 H 0.7379 0.2187 0.7565
H36_5 H 0.7500 0.2015 0.7212
C49_5 C 0.6044(7) 0.3357(3) 0.90482(15)
Zn3_3 Zn 0.58472(7) 0.43694(3) 0.925900(16)
Zn6_3 Zn 0.41049(7) 0.35547(3) 0.931910(17)
Zn2_2 Zn 0.58951(7) 0.85547(3) 0.568090(17)
O5_5 O 0.6525(5) 0.8933(2) 0.60192(12)
O6_5 O 0.5282(5) 0.9450(3) 0.60416(15)
O11_5 O 0.6974(4) 0.8135(2) 0.55375(14)
H1_5 H 0.4717 0.9994 0.5338
C3_5 C 0.6311(7) 0.9962(3) 0.6486(2)
C4_5 C 0.6699(6) 0.9551(3) 0.63698(17)
C5_5 C 0.7620(6) 0.9388(3) 0.64875(18)
H5_5 H 0.7893 0.9098 0.6421
C6_5 C 0.8135(7) 0.9659(3) 0.67061(17)
H6_5 H 0.8787 0.9558 0.6776
C51_5 C 0.6116(7) 0.9287(3) 0.61273(17)
N1_5 N 0.7377(12) 0.7393(5) 0.5375(3)
C53_5 C 0.6591(10) 0.7735(4) 0.5385(3)
H37_5 H 0.5921 0.7701 0.5302
C54_5 C 0.6998(11) 0.6916(5) 0.5226(3)
H38_5 H 0.6255 0.6926 0.5198
H39_5 H 0.7179 0.6657 0.5364
H40_5 H 0.7328 0.6872 0.5022
C55_5 C 0.8477(11) 0.7428(5) 0.5488(3)
H41_5 H 0.8573 0.7723 0.5599
H42_5 H 0.8940 0.7416 0.5309
H43_5 H 0.8626 0.7168 0.5629
O13_3 O 0.4809(4) 0.81983(17) 0.58675(11)
O14_3 O 0.3615(4) 0.8758(2) 0.59081(12)
O15_3 O 0.3880(6) 0.9209(2) 0.52900(12)
O16_3 O 0.5515(5) 0.8962(2) 0.53492(12)
H1_6 H 0.0283 0.0006 0.0338
O13_4 O 0.0191(4) 0.18017(17) 0.08675(11)
O14_4 O 0.1385(4) 0.1242(2) 0.09081(12)
O17_3 O 0.1938(5) 0.0305(2) 0.09650(14)
O12_6 O 0.0263(6) 0.9985(3) 0.05329(19)
H2_6 H 0.0052 0.9747 0.0654
Zn6_4 Zn 0.08951(7) 0.64453(3) 0.431910(17)
O5_6 O 0.8475(5) 0.1067(2) 0.10192(12)
O6_6 O 0.9718(5) 0.0550(3) 0.10416(15)
O11_6 O 0.8026(4) 0.1865(2) 0.05375(14)
C3_6 C 0.8689(7) 0.0038(3) 0.1486(2)
C4_6 C 0.8301(6) 0.0449(3) 0.13698(17)
C5_6 C 0.7380(6) 0.0612(3) 0.14875(18)
H5_6 H 0.7107 0.0902 0.1421
C6_6 C 0.6865(7) 0.0341(3) 0.17061(17)
H6_6 H 0.6213 0.0442 0.1776
H10_6 H 0.3468 0.0131 0.1954
C16_6 C 0.2741(5) 0.0039(2) 0.15380(17)
H11_6 H 0.2644 0.0360 0.1494
C51_6 C 0.8884(7) 0.0713(3) 0.11273(17)
N1_6 N 0.7623(12) 0.2607(5) 0.0375(3)
C53_6 C 0.8409(10) 0.2265(4) 0.0385(3)
H37_6 H 0.9079 0.2299 0.0302
C54_6 C 0.8002(11) 0.3084(5) 0.0226(3)
H38_6 H 0.8745 0.3074 0.0198
H39_6 H 0.7821 0.3343 0.0364
H40_6 H 0.7672 0.3128 0.0022
C55_6 C 0.6523(11) 0.2572(5) 0.0488(3)
H41_6 H 0.6427 0.2277 0.0599
H42_6 H 0.6060 0.2584 0.0309
H43_6 H 0.6374 0.2832 0.0629
O1_6 O 0.5898(5) 0.80030(18) 0.24727(9)
O2_5 O 0.3326(4) 0.8448(2) 0.27942(12)
O3_4 O 0.9809(4) 0.68017(17) 0.41325(11)
O4_4 O 0.8615(4) 0.6242(2) 0.40919(12)
O10_5 O 0.1293(13) 0.9592(5) 0.0891(3)
C1_6 C 0.7249(6) 0.9936(3) 0.18253(18)
C2_6 C 0.8161(7) 0.9796(3) 0.1720(2)
H3_6 H 0.8461 0.9524 0.1807
H4_6 H 0.9313 0.9917 0.1406
C7_6 C 0.6647(7) 0.9652(3) 0.20491(18)
C8_6 C 0.7074(6) 0.9395(3) 0.22857(16)
H7_6 H 0.7795 0.9409 0.2310
C9_6 C 0.5638(8) 0.9619(3) 0.20107(16)
H8_6 H 0.5322 0.9795 0.1850
C10_6 C 0.5014(7) 0.9327(3) 0.22033(19)
C11_6 C 0.6528(6) 0.9116(3) 0.24912(16)
H9_6 H 0.6861 0.8958 0.2657
C12_6 C 0.5463(6) 0.9073(3) 0.24466(15)
C13_5 C 0.3881(6) 0.9234(3) 0.21552(17)
C14_5 C 0.3371(5) 0.9432(3) 0.18746(14)
C15_5 C 0.3230(5) 0.9903(2) 0.18109(15)
C17_5 C 0.2393(7) 0.9705(3) 0.13288(14)
C18_5 C 0.2534(8) 0.9234(3) 0.13925(18)
H12_5 H 0.2296 0.9006 0.1250
C19_5 C 0.3023(7) 0.9098(2) 0.1665(2)
H13_5 H 0.3120 0.8777 0.1709
C20_5 C 0.3365(7) 0.8970(3) 0.2347(2)
H14_5 H 0.2654 0.8927 0.2313
C21_5 C 0.3851(6) 0.8740(3) 0.26106(16)
C22_5 C 0.4882(5) 0.8780(3) 0.26501(16)
C23_5 C 0.3965(7) 0.9033(2) 0.46433(15)
H15_5 H 0.3332 0.9135 0.4727
C24_5 C 0.4798(8) 0.8948(2) 0.48366(16)
C25_5 C 0.4082(6) 0.8964(2) 0.43213(14)
H16_5 H 0.3523 0.9021 0.4185
C26_6 C 0.5003(6) 0.8813(2) 0.41998(14)
C27_6 C 0.5816(7) 0.8727(2) 0.44037(16)
H17_6 H 0.6443 0.8618 0.4320
C28_6 C 0.5744(7) 0.8794(3) 0.47155(15)
H18_6 H 0.6312 0.8739 0.4849
C29_6 C 0.5129(5) 0.8715(3) 0.38557(14)
C30_5 C 0.4616(5) 0.9000(2) 0.36370(15)
H19_5 H 0.4186 0.9244 0.3708
C31_5 C 0.4729(5) 0.8927(2) 0.33253(14)
H20_5 H 0.4410 0.9134 0.3183
C32_6 C 0.5695(5) 0.8356(2) 0.37550(13)
H21_6 H 0.6004 0.8156 0.3904
C33_6 C 0.5848(5) 0.8264(2) 0.34271(13)
C34_6 C 0.5297(4) 0.8558(3) 0.32100(14)
C35_6 C 0.5362(5) 0.8463(2) 0.28864(14)
C36_6 C 0.5947(6) 0.8075(3) 0.27903(15)
C37_6 C 0.6404(5) 0.7792(3) 0.30082(15)
H22_6 H 0.6737 0.7518 0.2938
C38_6 C 0.6403(5) 0.7886(2) 0.33181(14)
C39_6 C 0.7007(5) 0.7573(3) 0.35259(14)
C40_6 C 0.7828(6) 0.7728(2) 0.36899(17)
H23_6 H 0.7986 0.8051 0.3688
C41_6 C 0.6819(5) 0.7092(3) 0.35378(15)
H24_6 H 0.6262 0.6965 0.3424
C42_6 C 0.8445(6) 0.7426(3) 0.38606(17)
H25_6 H 0.9012 0.7549 0.3972
C43_6 C 0.7410(6) 0.6812(3) 0.37066(17)
H26_6 H 0.7252 0.6490 0.3716
C44_6 C 0.8269(6) 0.6981(3) 0.38723(15)
C45_5 C 0.2213(7) 0.8480(4) 0.2810(3)
H27_5 H 0.1935 0.8196 0.2910
H28_5 H 0.1930 0.8500 0.2596
C46_5 C 0.1895(9) 0.8905(4) 0.2995(3)
H29_5 H 0.1148 0.8921 0.3004
H30_5 H 0.2162 0.9186 0.2894
H31_5 H 0.2169 0.8883 0.3207
C47_6 C 0.6416(8) 0.7590(4) 0.23579(19)
H32_6 H 0.6307 0.7321 0.2499
H33_6 H 0.6177 0.7506 0.2146
C48_6 C 0.7412(16) 0.7721(6) 0.2355(4)
H34_6 H 0.7835 0.7460 0.2284
H35_6 H 0.7621 0.7813 0.2565
H36_6 H 0.7500 0.7985 0.2212
C49_6 C 0.8956(7) 0.6643(3) 0.40482(15)
C50_6 C 0.4702(9) 0.9054(3) 0.5191(2)
C52_5 C 0.1996(15) 0.9911(8) 0.1011(4)
Zn3_4 Zn 0.91528(7) 0.56306(3) 0.425900(16)
O1_7 O 0.0898(5) 0.69970(18) 0.75273(9)
O5_7 O 0.3475(5) 0.3933(2) 0.89808(12)
O6_7 O 0.4718(5) 0.4450(3) 0.89584(15)
O8_4 O 0.0515(5) 0.6038(2) 0.46508(12)
O11_7 O 0.3026(4) 0.3135(2) 0.94625(14)
O12_7 O 0.5263(6) 0.5015(3) 0.94671(19)
H1_7 H 0.5283 0.4994 0.9662
H2_7 H 0.5052 0.5253 0.9346
C1_7 C 0.2249(6) 0.5064(3) 0.81747(18)
C2_7 C 0.3161(7) 0.5204(3) 0.8280(2)
H3_7 H 0.3461 0.5476 0.8193
C3_7 C 0.3689(7) 0.4962(3) 0.8514(2)
H4_7 H 0.4313 0.5083 0.8594
C4_7 C 0.3301(6) 0.4551(3) 0.86302(17)
C5_7 C 0.2380(6) 0.4388(3) 0.85125(18)
H5_7 H 0.2107 0.4098 0.8579
C6_7 C 0.1865(7) 0.4659(3) 0.82939(17)
H6_7 H 0.1213 0.4558 0.8224
C7_7 C 0.1647(7) 0.5348(3) 0.79509(18)
C8_7 C 0.2074(6) 0.5605(3) 0.77143(16)
H7_7 H 0.2795 0.5591 0.7690
C9_7 C 0.0638(8) 0.5381(3) 0.79893(16)
H8_7 H 0.0322 0.5205 0.8150
C10_7 C 0.0014(7) 0.5673(3) 0.77967(19)
C11_7 C 0.1528(6) 0.5884(3) 0.75088(16)
H9_7 H 0.1861 0.6042 0.7343
C12_7 C 0.0463(6) 0.5927(3) 0.75534(15)
C26_7 C 0.0003(6) 0.6187(2) 0.58002(14)
C27_7 C 0.0816(7) 0.6273(2) 0.55963(16)
H17_7 H 0.1443 0.6382 0.5680
C28_7 C 0.0744(7) 0.6206(3) 0.52845(15)
H18_7 H 0.1312 0.6261 0.5151
C29_7 C 0.0129(5) 0.6285(3) 0.61443(14)
C32_7 C 0.0695(5) 0.6644(2) 0.62450(13)
H21_7 H 0.1004 0.6844 0.6096
C33_7 C 0.0848(5) 0.6736(2) 0.65729(13)
C34_7 C 0.0297(4) 0.6442(3) 0.67900(14)
C35_7 C 0.0362(5) 0.6537(2) 0.71136(14)
C36_7 C 0.0947(6) 0.6925(3) 0.72097(15)
C37_7 C 0.1404(5) 0.7208(3) 0.69918(15)
H22_7 H 0.1737 0.7482 0.7062
C38_7 C 0.1403(5) 0.7114(2) 0.66819(14)
C39_7 C 0.2007(5) 0.7427(3) 0.64741(14)
C40_7 C 0.2828(6) 0.7272(2) 0.63101(17)
H23_7 H 0.2986 0.6949 0.6312
C41_7 C 0.1819(5) 0.7908(3) 0.64622(15)
H24_7 H 0.1262 0.8035 0.6576
C42_7 C 0.3445(6) 0.7574(3) 0.61394(17)
H25_7 H 0.4012 0.7451 0.6028
C43_7 C 0.2410(6) 0.8188(3) 0.62934(17)
H26_7 H 0.2252 0.8510 0.6284
C44_7 C 0.3269(6) 0.8019(3) 0.61277(15)
C47_7 C 0.1416(8) 0.7410(4) 0.76421(19)
H32_7 H 0.1307 0.7679 0.7501
H33_7 H 0.1177 0.7494 0.7854
C48_7 C 0.2412(16) 0.7279(6) 0.7645(4)
H34_7 H 0.2835 0.7540 0.7716
H35_7 H 0.2621 0.7187 0.7435
H36_7 H 0.2500 0.7015 0.7788
C49_7 C 0.3956(7) 0.8357(3) 0.59518(15)
C51_7 C 0.3884(7) 0.4287(3) 0.88727(17)
N1_7 N 0.2623(12) 0.2393(5) 0.9625(3)
C53_7 C 0.3409(10) 0.2735(4) 0.9615(3)
H37_7 H 0.4079 0.2701 0.9698
C54_7 C 0.3002(11) 0.1916(5) 0.9774(3)
H38_7 H 0.3745 0.1926 0.9802
H39_7 H 0.2821 0.1657 0.9636
H40_7 H 0.2672 0.1872 0.9978
C55_7 C 0.1523(11) 0.2428(5) 0.9512(3)
H41_7 H 0.1427 0.2723 0.9401
H42_7 H 0.1060 0.2416 0.9691
H43_7 H 0.1374 0.2168 0.9371
O15_4 O 0.6120(6) 0.4209(2) 0.97100(12)
O16_4 O 0.4485(5) 0.3962(2) 0.96508(12)
O17_4 O 0.6938(5) 0.4695(2) 0.90350(14)
O2_6 O 0.8326(4) 0.6552(2) 0.72058(12)
O7_4 O 0.8880(6) 0.5791(2) 0.47100(12)
O10_6 O 0.6293(13) 0.5408(5) 0.9109(3)
C13_6 C 0.8881(6) 0.5766(3) 0.78448(17)
C14_6 C 0.8371(5) 0.5568(3) 0.81254(14)
C15_6 C 0.8230(5) 0.5097(2) 0.81891(15)
H10_7 H 0.8468 0.4869 0.8046
C16_7 C 0.7741(5) 0.4961(2) 0.84620(17)
H11_7 H 0.7644 0.4640 0.8506
C17_6 C 0.7393(7) 0.5295(3) 0.86712(14)
C18_6 C 0.7534(8) 0.5766(3) 0.86075(18)
H12_6 H 0.7296 0.5994 0.8750
C19_6 C 0.8023(7) 0.5902(2) 0.8335(2)
H13_6 H 0.8120 0.6223 0.8291
C20_6 C 0.8365(7) 0.6030(3) 0.7653(2)
H14_6 H 0.7654 0.6073 0.7687
C21_6 C 0.8851(6) 0.6260(3) 0.73894(16)
C22_6 C 0.9882(5) 0.6220(3) 0.73499(16)
C23_6 C 0.8965(7) 0.5967(2) 0.53567(15)
H15_6 H 0.8332 0.5865 0.5273
C24_6 C 0.9798(8) 0.6052(2) 0.51634(16)
C25_6 C 0.9082(6) 0.6036(2) 0.56787(14)
H16_6 H 0.8523 0.5979 0.5815
C30_6 C 0.9616(5) 0.6000(2) 0.63630(15)
H19_6 H 0.9186 0.5756 0.6292
C31_6 C 0.9729(5) 0.6073(2) 0.66747(14)
H20_6 H 0.9410 0.5866 0.6817
C45_6 C 0.7213(7) 0.6520(4) 0.7190(3)
H27_6 H 0.6935 0.6804 0.7090
H28_6 H 0.6930 0.6500 0.7404
C46_6 C 0.6895(9) 0.6095(4) 0.7005(3)
H29_6 H 0.6148 0.6079 0.6996
H30_6 H 0.7162 0.5814 0.7106
H31_6 H 0.7169 0.6117 0.6793
C50_7 C 0.9702(9) 0.5946(3) 0.4809(2)
C52_6 C 0.6996(15) 0.5089(8) 0.8989(4)
O1_8 O 0.4102(5) 0.30030(18) 0.25273(9)
O2_7 O 0.6674(4) 0.3448(2) 0.22058(12)
O5_8 O 0.1525(5) 0.6067(2) 0.39808(12)
O6_8 O 0.0282(5) 0.5550(3) 0.39584(15)
O9_4 O 0.8062(5) 0.5305(2) 0.40350(14)
O10_7 O 0.8707(13) 0.4592(5) 0.4109(3)
O11_8 O 0.1974(4) 0.6865(2) 0.44625(14)
C1_8 C 0.2751(6) 0.4936(3) 0.31747(18)
C2_8 C 0.1839(7) 0.4796(3) 0.3280(2)
H3_8 H 0.1539 0.4524 0.3193
C3_8 C 0.1311(7) 0.5038(3) 0.3514(2)
H4_8 H 0.0687 0.4917 0.3594
C4_8 C 0.1699(6) 0.5449(3) 0.36302(17)
C5_8 C 0.2620(6) 0.5612(3) 0.35125(18)
H5_8 H 0.2893 0.5902 0.3579
C6_8 C 0.3135(7) 0.5341(3) 0.32939(17)
H6_8 H 0.3787 0.5442 0.3224
C7_8 C 0.3353(7) 0.4652(3) 0.29509(18)
C8_8 C 0.2926(6) 0.4395(3) 0.27143(16)
H7_8 H 0.2205 0.4409 0.2690
C9_8 C 0.4362(8) 0.4619(3) 0.29893(16)
H8_8 H 0.4678 0.4795 0.3150
C10_8 C 0.4986(7) 0.4327(3) 0.27967(19)
C11_8 C 0.3472(6) 0.4116(3) 0.25088(16)
H9_8 H 0.3139 0.3958 0.2343
C12_8 C 0.4537(6) 0.4073(3) 0.25534(15)
C13_7 C 0.6119(6) 0.4234(3) 0.28448(17)
C14_7 C 0.6629(5) 0.4432(3) 0.31254(14)
C15_7 C 0.6770(5) 0.4903(2) 0.31891(15)
H10_8 H 0.6532 0.5131 0.3046
C16_8 C 0.7259(5) 0.5039(2) 0.34620(17)
H11_8 H 0.7356 0.5360 0.3506
C17_7 C 0.7607(7) 0.4705(3) 0.36712(14)
C18_7 C 0.7466(8) 0.4234(3) 0.36075(18)
H12_7 H 0.7704 0.4006 0.3750
C19_7 C 0.6977(7) 0.4098(2) 0.3335(2)
H13_7 H 0.6880 0.3777 0.3291
C20_7 C 0.6635(7) 0.3970(3) 0.2653(2)
H14_7 H 0.7346 0.3927 0.2687
C21_7 C 0.6149(6) 0.3740(3) 0.23894(16)
C22_7 C 0.5118(5) 0.3780(3) 0.23499(16)
C23_7 C 0.6035(7) 0.4033(2) 0.03567(15)
H15_7 H 0.6668 0.4135 0.0273
C24_7 C 0.5202(8) 0.3948(2) 0.01634(16)
C25_7 C 0.5918(6) 0.3964(2) 0.06787(14)
H16_7 H 0.6477 0.4021 0.0815
C26_8 C 0.4997(6) 0.3813(2) 0.08002(14)
C27_8 C 0.4184(7) 0.3727(2) 0.05963(16)
H17_8 H 0.3557 0.3618 0.0680
C28_8 C 0.4256(7) 0.3794(3) 0.02845(15)
H18_8 H 0.3688 0.3739 0.0151
C29_8 C 0.4871(5) 0.3715(3) 0.11443(14)
C30_7 C 0.5384(5) 0.4000(2) 0.13630(15)
H19_7 H 0.5814 0.4244 0.1292
C31_7 C 0.5271(5) 0.3927(2) 0.16747(14)
H20_7 H 0.5590 0.4134 0.1817
C32_8 C 0.4305(5) 0.3356(2) 0.12450(13)
H21_8 H 0.3996 0.3156 0.1096
C33_8 C 0.4152(5) 0.3264(2) 0.15729(13)
C34_8 C 0.4703(4) 0.3558(3) 0.17900(14)
C35_8 C 0.4638(5) 0.3463(2) 0.21136(14)
C36_8 C 0.4053(6) 0.3075(3) 0.22097(15)
C37_8 C 0.3596(5) 0.2792(3) 0.19918(15)
H22_8 H 0.3263 0.2518 0.2062
C38_8 C 0.3597(5) 0.2886(2) 0.16819(14)
C39_8 C 0.2993(5) 0.2573(3) 0.14741(14)
C40_8 C 0.2172(6) 0.2728(2) 0.13101(17)
H23_8 H 0.2014 0.3051 0.1312
C41_8 C 0.3181(5) 0.2092(3) 0.14622(15)
H24_8 H 0.3738 0.1965 0.1576
C42_8 C 0.1555(6) 0.2426(3) 0.11394(17)
H25_8 H 0.0988 0.2549 0.1028
C43_8 C 0.2590(6) 0.1812(3) 0.12934(17)
H26_8 H 0.2748 0.1490 0.1284
C44_8 C 0.1731(6) 0.1981(3) 0.11277(15)
C45_7 C 0.7787(7) 0.3480(4) 0.2190(3)
H27_7 H 0.8065 0.3196 0.2090
H28_7 H 0.8070 0.3500 0.2404
C46_7 C 0.8105(9) 0.3905(4) 0.2005(3)
H29_7 H 0.8852 0.3921 0.1996
H30_7 H 0.7838 0.4186 0.2106
H31_7 H 0.7831 0.3883 0.1793
C47_8 C 0.3584(8) 0.2590(4) 0.26421(19)
H32_8 H 0.3693 0.2321 0.2501
H33_8 H 0.3823 0.2506 0.2854
C48_8 C 0.2588(16) 0.2721(6) 0.2645(4)
H34_8 H 0.2165 0.2460 0.2716
H35_8 H 0.2379 0.2813 0.2435
H36_8 H 0.2500 0.2985 0.2788
C49_8 C 0.1044(7) 0.1643(3) 0.09518(15)
C51_8 C 0.1116(7) 0.5713(3) 0.38727(17)
C52_7 C 0.8004(15) 0.4911(8) 0.3989(4)
N1_8 N 0.2377(12) 0.7607(5) 0.4625(3)
C53_8 C 0.1591(10) 0.7265(4) 0.4615(3)
H37_8 H 0.0921 0.7299 0.4698
C54_8 C 0.1998(11) 0.8084(5) 0.4774(3)
H38_8 H 0.1255 0.8074 0.4802
H39_8 H 0.2179 0.8343 0.4636
H40_8 H 0.2328 0.8128 0.4978
C55_8 C 0.3477(11) 0.7572(5) 0.4512(3)
H41_8 H 0.3573 0.7277 0.4401
H42_8 H 0.3940 0.7584 0.4691
H43_8 H 0.3626 0.7832 0.4371
C50_8 C 0.5298(9) 0.4054(3) 0.9809(2)
O12_8 O 0.9737(6) 0.4985(3) 0.44671(19)
H1_8 H 0.9717 0.5006 0.4662
H2_8 H 0.9948 0.4747 0.4346
O2_8 O 0.1674(4) 0.1552(2) 0.77942(12)
O10_8 O 0.3707(13) 0.0408(5) 0.5891(3)
C13_8 C 0.1119(6) 0.0766(3) 0.71552(17)
C14_8 C 0.1629(5) 0.0568(3) 0.68746(14)
C15_8 C 0.1770(5) 0.0097(2) 0.68109(15)
C17_8 C 0.2607(7) 0.0295(3) 0.63288(14)
C18_8 C 0.2466(8) 0.0766(3) 0.63925(18)
H12_8 H 0.2704 0.0994 0.6250
C19_8 C 0.1977(7) 0.0902(2) 0.6665(2)
H13_8 H 0.1880 0.1223 0.6709
C20_8 C 0.1635(7) 0.1030(3) 0.7347(2)
H14_8 H 0.2346 0.1073 0.7313
C21_8 C 0.1149(6) 0.1260(3) 0.76106(16)
C22_8 C 0.0118(5) 0.1220(3) 0.76501(16)
C23_8 C 0.1035(7) 0.0967(2) 0.96433(15)
H15_8 H 0.1668 0.0865 0.9727
C24_8 C 0.0202(8) 0.1052(2) 0.98366(16)
C25_8 C 0.0918(6) 0.1036(2) 0.93213(14)
H16_8 H 0.1477 0.0979 0.9185
C30_8 C 0.0384(5) 0.1000(2) 0.86370(15)
H19_8 H 0.0814 0.0756 0.8708
C31_8 C 0.0271(5) 0.1073(2) 0.83253(14)
H20_8 H 0.0590 0.0866 0.8183
C45_8 C 0.2787(7) 0.1520(4) 0.7810(3)
H27_8 H 0.3065 0.1804 0.7910
H28_8 H 0.3070 0.1500 0.7596
C46_8 C 0.3105(9) 0.1095(4) 0.7995(3)
H29_8 H 0.3852 0.1079 0.8004
H30_8 H 0.2838 0.0814 0.7894
H31_8 H 0.2831 0.1117 0.8207
C52_8 C 0.3004(15) 0.0089(8) 0.6011(4)
loop_
_geom_bond_atom_site_label_1
_geom_bond_atom_site_label_2
_geom_bond_site_symmetry_1
_geom_bond_site_symmetry_2
Zn2 O5 1_555 1_555
O1 C36 1_555 1_555
O2 C21 1_555 1_555
O3 C49 1_555 1_555
O4 C49 1_555 1_555
O5 C51 1_555 1_555
O6 C51 1_555 1_555
O7 C50 1_555 1_555
O8 C50 1_555 1_555
O9 C52 1_555 1_555
O10 C52 1_555 1_555
O11 Zn2 1_555 1_555
C1 C2 1_555 1_555
C2 H3 1_555 1_555
C3 C2 1_555 1_555
H4 C3 1_555 1_555
C4 C3 1_555 1_555
C5 C4 1_555 1_555
H5 C5 1_555 1_555
C6 C1 1_555 1_555
H6 C6 1_555 1_555
C7 C1 1_555 1_555
C8 C7 1_555 1_555
H7 C8 1_555 1_555
C9 C7 1_555 1_555
H8 C9 1_555 1_555
C10 C9 1_555 1_555
C11 C8 1_555 1_555
H9 C11 1_555 1_555
C12 C10 1_555 1_555
C13 C10 1_555 1_555
C14 C13 1_555 1_555
C15 C14 1_555 1_555
H10 C15 1_555 1_555
C16 C15 1_555 1_555
H11 C16 1_555 1_555
C17 C16 1_555 1_555
C18 C17 1_555 1_555
H12 C18 1_555 1_555
C19 C14 1_555 1_555
H13 C19 1_555 1_555
C20 C13 1_555 1_555
H14 C20 1_555 1_555
C21 C20 1_555 1_555
C22 C12 1_555 1_555
C23 H15 1_555 1_555
C24 C23 1_555 1_555
C25 C23 1_555 1_555
H16 C25 1_555 1_555
C26 C25 1_555 1_555
C27 C26 1_555 1_555
H17 C27 1_555 1_555
C28 C24 1_555 1_555
H18 C28 1_555 1_555
C29 C26 1_555 1_555
C30 C29 1_555 1_555
H19 C30 1_555 1_555
C31 C30 1_555 1_555
H20 C31 1_555 1_555
C32 C29 1_555 1_555
H21 C32 1_555 1_555
C33 C32 1_555 1_555
C34 C31 1_555 1_555
C35 C22 1_555 1_555
C36 C35 1_555 1_555
C37 C36 1_555 1_555
H22 C37 1_555 1_555
C38 C33 1_555 1_555
C39 C38 1_555 1_555
C40 C39 1_555 1_555
H23 C40 1_555 1_555
C41 C39 1_555 1_555
H24 C41 1_555 1_555
C42 C40 1_555 1_555
H25 C42 1_555 1_555
C43 C41 1_555 1_555
H26 C43 1_555 1_555
C44 C42 1_555 1_555
C45 O2 1_555 1_555
H27 C45 1_555 1_555
H28 C45 1_555 1_555
C46 C45 1_555 1_555
H29 C46 1_555 1_555
H30 C46 1_555 1_555
H31 C46 1_555 1_555
C47 O1 1_555 1_555
H32 C47 1_555 1_555
H33 C47 1_555 1_555
C48 C47 1_555 1_555
H34 C48 1_555 1_555
H35 C48 1_555 1_555
H36 C48 1_555 1_555
C49 C44 1_555 1_555
C50 C24 1_555 1_555
C51 C4 1_555 1_555
C52 C17 1_555 1_555
N1 C53 1_555 1_555
C53 O11 1_555 1_555
H37 C53 1_555 1_555
C54 N1 1_555 1_555
H38 C54 1_555 1_555
H39 C54 1_555 1_555
H40 C54 1_555 1_555
C55 N1 1_555 1_555
H41 C55 1_555 1_555
H42 C55 1_555 1_555
H43 C55 1_555 1_555
Zn3 O4 1_555 1_555
Zn4 O7 1_555 1_555
Zn5 O9 1_555 1_555
Zn7 O8 1_555 1_555
O16 Zn2 1_555 1_555
C5 C6 1_555 1_555
C11 C12 1_555 1_555
C18 C19 1_555 1_555
C21 C22 1_555 1_555
C27 C28 1_555 1_555
C33 C34 1_555 1_555
C34 C35 1_555 1_555
C37 C38 1_555 1_555
C43 C44 1_555 1_555
O12 Zn5 1_555 1_555
H1 O12 1_555 1_555
H2 O12 1_555 1_555
O14 Zn5 1_555 1_555
O15 Zn5 1_555 1_555
Zn4 O6_2 1_555 1_555
Zn7 O5_2 1_555 1_555
O1_2 C36_2 1_555 1_555
O3_2 C49_2 1_555 1_555
O4_2 C49_2 1_555 1_555
O5_2 C51_2 1_555 1_555
O6_2 C51_2 1_555 1_555
O11_2 Zn7 1_555 1_555
O12_2 Zn4 1_555 1_555
H1_2 O12_2 1_555 1_555
H2_2 O12_2 1_555 1_555
C1_2 C2_2 1_555 1_555
C2_2 H3_2 1_555 1_555
C3_2 C2_2 1_555 1_555
H4_2 C3_2 1_555 1_555
C4_2 C3_2 1_555 1_555
C5_2 C4_2 1_555 1_555
H5_2 C5_2 1_555 1_555
C6_2 C1_2 1_555 1_555
H6_2 C6_2 1_555 1_555
C7_2 C1_2 1_555 1_555
C8_2 C7_2 1_555 1_555
H7_2 C8_2 1_555 1_555
C9_2 C7_2 1_555 1_555
H8_2 C9_2 1_555 1_555
C10_2 C9_2 1_555 1_555
C11_2 C8_2 1_555 1_555
H9_2 C11_2 1_555 1_555
C12_2 C10_2 1_555 1_555
C27_2 C26_2 1_555 1_555
H17_2 C27_2 1_555 1_555
H18_2 C28_2 1_555 1_555
C29_2 C26_2 1_555 1_555
C32_2 C29_2 1_555 1_555
H21_2 C32_2 1_555 1_555
C33_2 C32_2 1_555 1_555
C36_2 C35_2 1_555 1_555
C37_2 C36_2 1_555 1_555
H22_2 C37_2 1_555 1_555
C38_2 C33_2 1_555 1_555
C39_2 C38_2 1_555 1_555
C40_2 C39_2 1_555 1_555
H23_2 C40_2 1_555 1_555
C41_2 C39_2 1_555 1_555
H24_2 C41_2 1_555 1_555
C42_2 C40_2 1_555 1_555
H25_2 C42_2 1_555 1_555
C43_2 C41_2 1_555 1_555
H26_2 C43_2 1_555 1_555
C44_2 C42_2 1_555 1_555
C47_2 O1_2 1_555 1_555
H32_2 C47_2 1_555 1_555
H33_2 C47_2 1_555 1_555
C48_2 C47_2 1_555 1_555
H34_2 C48_2 1_555 1_555
H35_2 C48_2 1_555 1_555
H36_2 C48_2 1_555 1_555
C49_2 C44_2 1_555 1_555
C51_2 C4_2 1_555 1_555
N1_2 C53_2 1_555 1_555
C53_2 O11_2 1_555 1_555
H37_2 C53_2 1_555 1_555
C54_2 N1_2 1_555 1_555
H38_2 C54_2 1_555 1_555
H39_2 C54_2 1_555 1_555
H40_2 C54_2 1_555 1_555
C55_2 N1_2 1_555 1_555
H41_2 C55_2 1_555 1_555
H42_2 C55_2 1_555 1_555
H43_2 C55_2 1_555 1_555
Zn3_2 O4_2 1_555 1_555
Zn6_2 O3_2 1_555 1_555
O13_2 Zn7 1_555 1_555
O14_2 Zn4 1_555 1_555
O17 Zn4 1_555 1_555
C5_2 C6_2 1_555 1_555
C11_2 C12_2 1_555 1_555
C27_2 C28_2 1_555 1_555
C33_2 C34_2 1_555 1_555
C34_2 C35_2 1_555 1_555
C37_2 C38_2 1_555 1_555
C43_2 C44_2 1_555 1_555
O15 C50_2 1_555 1_555
O2_2 C21_2 1_555 1_555
O17 C52_2 1_555 1_555
O10_2 C52_2 1_555 1_555
C14_2 C13_2 1_555 1_555
C15_2 C14_2 1_555 1_555
H10_2 C15_2 1_555 1_555
C16_2 C15_2 1_555 1_555
H11_2 C16_2 1_555 1_555
C17_2 C16_2 1_555 1_555
C18_2 C17_2 1_555 1_555
H12_2 C18_2 1_555 1_555
C19_2 C14_2 1_555 1_555
H13_2 C19_2 1_555 1_555
C20_2 C13_2 1_555 1_555
H14_2 C20_2 1_555 1_555
C21_2 C20_2 1_555 1_555
C23_2 H15_2 1_555 1_555
C24_2 C23_2 1_555 1_555
C25_2 C23_2 1_555 1_555
H16_2 C25_2 1_555 1_555
H19_2 C30_2 1_555 1_555
C31_2 C30_2 1_555 1_555
H20_2 C31_2 1_555 1_555
C45_2 O2_2 1_555 1_555
H27_2 C45_2 1_555 1_555
H28_2 C45_2 1_555 1_555
C46_2 C45_2 1_555 1_555
H29_2 C46_2 1_555 1_555
H30_2 C46_2 1_555 1_555
H31_2 C46_2 1_555 1_555
C52_2 C17_2 1_555 1_555
C18_2 C19_2 1_555 1_555
C21_2 C22_2 1_555 1_555
H2_3 O12_3 1_555 1_555
O15_2 Zn3 1_555 1_555
O17_2 Zn3 1_555 1_555
O1_3 C36_3 1_555 1_555
O2_3 C21_3 1_555 1_555
O13 C49_3 1_555 1_555
O14 C49_3 1_555 1_555
O10_3 C52_3 1_555 1_555
C1_3 C2_3 1_555 1_555
C2_3 H3_3 1_555 1_555
C7_3 C1_3 1_555 1_555
C8_3 C7_3 1_555 1_555
H7_3 C8_3 1_555 1_555
C9_3 C7_3 1_555 1_555
H8_3 C9_3 1_555 1_555
C10_3 C9_3 1_555 1_555
C11_3 C8_3 1_555 1_555
H9_3 C11_3 1_555 1_555
C12_3 C10_3 1_555 1_555
C13_3 C10_3 1_555 1_555
C14_3 C13_3 1_555 1_555
C15_3 C14_3 1_555 1_555
C18_3 C17_3 1_555 1_555
H12_3 C18_3 1_555 1_555
C19_3 C14_3 1_555 1_555
H13_3 C19_3 1_555 1_555
C20_3 C13_3 1_555 1_555
H14_3 C20_3 1_555 1_555
C21_3 C20_3 1_555 1_555
C22_3 C12_3 1_555 1_555
C23_3 H15_3 1_555 1_555
C24_3 C23_3 1_555 1_555
C25_3 C23_3 1_555 1_555
H16_3 C25_3 1_555 1_555
C26_3 C25_3 1_555 1_555
C27_3 C26_3 1_555 1_555
H17_3 C27_3 1_555 1_555
C28_3 C24_3 1_555 1_555
H18_3 C28_3 1_555 1_555
C29_3 C26_3 1_555 1_555
C30_3 C29_3 1_555 1_555
H19_3 C30_3 1_555 1_555
C31_3 C30_3 1_555 1_555
H20_3 C31_3 1_555 1_555
C32_3 C29_3 1_555 1_555
H21_3 C32_3 1_555 1_555
C33_3 C32_3 1_555 1_555
C34_3 C31_3 1_555 1_555
C35_3 C22_3 1_555 1_555
C36_3 C35_3 1_555 1_555
C37_3 C36_3 1_555 1_555
H22_3 C37_3 1_555 1_555
C38_3 C33_3 1_555 1_555
C39_3 C38_3 1_555 1_555
C40_3 C39_3 1_555 1_555
H23_3 C40_3 1_555 1_555
C41_3 C39_3 1_555 1_555
H24_3 C41_3 1_555 1_555
C42_3 C40_3 1_555 1_555
H25_3 C42_3 1_555 1_555
C43_3 C41_3 1_555 1_555
H26_3 C43_3 1_555 1_555
C44_3 C42_3 1_555 1_555
C45_3 O2_3 1_555 1_555
H27_3 C45_3 1_555 1_555
H28_3 C45_3 1_555 1_555
C46_3 C45_3 1_555 1_555
H29_3 C46_3 1_555 1_555
H30_3 C46_3 1_555 1_555
H31_3 C46_3 1_555 1_555
C47_3 O1_3 1_555 1_555
H32_3 C47_3 1_555 1_555
H33_3 C47_3 1_555 1_555
C48_3 C47_3 1_555 1_555
H34_3 C48_3 1_555 1_555
H35_3 C48_3 1_555 1_555
H36_3 C48_3 1_555 1_555
C49_3 C44_3 1_555 1_555
C52_3 C17_3 1_555 1_555
C11_3 C12_3 1_555 1_555
C18_3 C19_3 1_555 1_555
C21_3 C22_3 1_555 1_555
C27_3 C28_3 1_555 1_555
C33_3 C34_3 1_555 1_555
C34_3 C35_3 1_555 1_555
C37_3 C38_3 1_555 1_555
C43_3 C44_3 1_555 1_555
O7_2 C50_3 1_555 1_555
O8_2 C50_3 1_555 1_555
Zn3_2 O7_2 1_555 1_555
Zn6_2 O8_2 1_555 1_555
Zn6 O5_3 1_555 1_555
O5_3 C51_3 1_555 1_555
O6_3 C51_3 1_555 1_555
O11_3 Zn6 1_555 1_555
C4_3 C3_3 1_555 1_555
C5_3 C4_3 1_555 1_555
H5_3 C5_3 1_555 1_555
H6_3 C6_3 1_555 1_555
H11_3 C16_3 1_555 1_555
C51_3 C4_3 1_555 1_555
N1_3 C53_3 1_555 1_555
C53_3 O11_3 1_555 1_555
H37_3 C53_3 1_555 1_555
C54_3 N1_3 1_555 1_555
H38_3 C54_3 1_555 1_555
H39_3 C54_3 1_555 1_555
H40_3 C54_3 1_555 1_555
C55_3 N1_3 1_555 1_555
H41_3 C55_3 1_555 1_555
H42_3 C55_3 1_555 1_555
H43_3 C55_3 1_555 1_555
O16_2 Zn6 1_555 1_555
C5_3 C6_3 1_555 1_555
H11_4 C16_4 1_555 1_555
Zn3_2 O9_2 1_555 1_555
O2_4 C21_4 1_555 1_555
O15_2 C50_4 1_555 1_555
O10_4 C52_4 1_555 1_555
C14_4 C13_4 1_555 1_555
C15_4 C14_4 1_555 1_555
C18_4 C17_4 1_555 1_555
H12_4 C18_4 1_555 1_555
C19_4 C14_4 1_555 1_555
H13_4 C19_4 1_555 1_555
C20_4 C13_4 1_555 1_555
H14_4 C20_4 1_555 1_555
C21_4 C20_4 1_555 1_555
C23_4 H15_4 1_555 1_555
C24_4 C23_4 1_555 1_555
C25_4 C23_4 1_555 1_555
H16_4 C25_4 1_555 1_555
H19_4 C30_4 1_555 1_555
C31_4 C30_4 1_555 1_555
H20_4 C31_4 1_555 1_555
C45_4 O2_4 1_555 1_555
H27_4 C45_4 1_555 1_555
H28_4 C45_4 1_555 1_555
C46_4 C45_4 1_555 1_555
H29_4 C46_4 1_555 1_555
H30_4 C46_4 1_555 1_555
H31_4 C46_4 1_555 1_555
C50_4 C24_4 1_555 1_555
C52_4 C17_4 1_555 1_555
C18_4 C19_4 1_555 1_555
C21_4 C22_4 1_555 1_555
Zn3_2 O6_4 1_555 1_555
Zn6_2 O5_4 1_555 1_555
O5_4 C51_4 1_555 1_555
O6_4 C51_4 1_555 1_555
O11_4 Zn6_2 1_555 1_555
C4_4 C3_4 1_555 1_555
C5_4 C4_4 1_555 1_555
H5_4 C5_4 1_555 1_555
H6_4 C6_4 1_555 1_555
C51_4 C4_4 1_555 1_555
N1_4 C53_4 1_555 1_555
C53_4 O11_4 1_555 1_555
H37_4 C53_4 1_555 1_555
C54_4 N1_4 1_555 1_555
H38_4 C54_4 1_555 1_555
H39_4 C54_4 1_555 1_555
H40_4 C54_4 1_555 1_555
C55_4 N1_4 1_555 1_555
H41_4 C55_4 1_555 1_555
H42_4 C55_4 1_555 1_555
H43_4 C55_4 1_555 1_555
C5_4 C6_4 1_555 1_555
O1_4 C36_4 1_555 1_555
O13_2 C49_4 1_555 1_555
O14_2 C49_4 1_555 1_555
H2_4 O12_4 1_555 1_555
C1_4 C2_4 1_555 1_555
C2_4 H3_4 1_555 1_555
C7_4 C1_4 1_555 1_555
C8_4 C7_4 1_555 1_555
H7_4 C8_4 1_555 1_555
C9_4 C7_4 1_555 1_555
H8_4 C9_4 1_555 1_555
C10_4 C9_4 1_555 1_555
C11_4 C8_4 1_555 1_555
H9_4 C11_4 1_555 1_555
C12_4 C10_4 1_555 1_555
C27_4 C26_4 1_555 1_555
H17_4 C27_4 1_555 1_555
H18_4 C28_4 1_555 1_555
C29_4 C26_4 1_555 1_555
C32_4 C29_4 1_555 1_555
H21_4 C32_4 1_555 1_555
C33_4 C32_4 1_555 1_555
C36_4 C35_4 1_555 1_555
C37_4 C36_4 1_555 1_555
H22_4 C37_4 1_555 1_555
C38_4 C33_4 1_555 1_555
C39_4 C38_4 1_555 1_555
C40_4 C39_4 1_555 1_555
H23_4 C40_4 1_555 1_555
C41_4 C39_4 1_555 1_555
H24_4 C41_4 1_555 1_555
C42_4 C40_4 1_555 1_555
H25_4 C42_4 1_555 1_555
C43_4 C41_4 1_555 1_555
H26_4 C43_4 1_555 1_555
C44_4 C42_4 1_555 1_555
C47_4 O1_4 1_555 1_555
H32_4 C47_4 1_555 1_555
H33_4 C47_4 1_555 1_555
C48_4 C47_4 1_555 1_555
H34_4 C48_4 1_555 1_555
H35_4 C48_4 1_555 1_555
H36_4 C48_4 1_555 1_555
C49_4 C44_4 1_555 1_555
C11_4 C12_4 1_555 1_555
C27_4 C28_4 1_555 1_555
C33_4 C34_4 1_555 1_555
C34_4 C35_4 1_555 1_555
C37_4 C38_4 1_555 1_555
C43_4 C44_4 1_555 1_555
O7_3 C50_5 1_555 1_555
Zn4_2 O7_3 1_555 1_555
H11_5 C16_5 1_555 1_555
Zn5_2 O9_3 1_555 1_555
Zn7_2 O8_3 1_555 1_555
O1_5 C36_5 1_555 1_555
O3_3 C49_5 1_555 1_555
O4_3 C49_5 1_555 1_555
H2_5 O12_5 1_555 1_555
C1_5 C2_5 1_555 1_555
C2_5 H3_5 1_555 1_555
C7_5 C1_5 1_555 1_555
C8_5 C7_5 1_555 1_555
H7_5 C8_5 1_555 1_555
C9_5 C7_5 1_555 1_555
H8_5 C9_5 1_555 1_555
C10_5 C9_5 1_555 1_555
C11_5 C8_5 1_555 1_555
H9_5 C11_5 1_555 1_555
C12_5 C10_5 1_555 1_555
C27_5 C26_5 1_555 1_555
H17_5 C27_5 1_555 1_555
H18_5 C28_5 1_555 1_555
C29_5 C26_5 1_555 1_555
C32_5 C29_5 1_555 1_555
H21_5 C32_5 1_555 1_555
C33_5 C32_5 1_555 1_555
C36_5 C35_5 1_555 1_555
C37_5 C36_5 1_555 1_555
H22_5 C37_5 1_555 1_555
C38_5 C33_5 1_555 1_555
C39_5 C38_5 1_555 1_555
C40_5 C39_5 1_555 1_555
H23_5 C40_5 1_555 1_555
C41_5 C39_5 1_555 1_555
H24_5 C41_5 1_555 1_555
C42_5 C40_5 1_555 1_555
H25_5 C42_5 1_555 1_555
C43_5 C41_5 1_555 1_555
H26_5 C43_5 1_555 1_555
C44_5 C42_5 1_555 1_555
C47_5 O1_5 1_555 1_555
H32_5 C47_5 1_555 1_555
H33_5 C47_5 1_555 1_555
C48_5 C47_5 1_555 1_555
H34_5 C48_5 1_555 1_555
H35_5 C48_5 1_555 1_555
H36_5 C48_5 1_555 1_555
C49_5 C44_5 1_555 1_555
Zn3_3 O4_3 1_555 1_555
Zn6_3 O3_3 1_555 1_555
C11_5 C12_5 1_555 1_555
C27_5 C28_5 1_555 1_555
C33_5 C34_5 1_555 1_555
C34_5 C35_5 1_555 1_555
C37_5 C38_5 1_555 1_555
C43_5 C44_5 1_555 1_555
Zn5_2 O6_5 1_555 1_555
Zn2_2 O5_5 1_555 1_555
O5_5 C51_5 1_555 1_555
O6_5 C51_5 1_555 1_555
O11_5 Zn2_2 1_555 1_555
C4_5 C3_5 1_555 1_555
C5_5 C4_5 1_555 1_555
H5_5 C5_5 1_555 1_555
H6_5 C6_5 1_555 1_555
C51_5 C4_5 1_555 1_555
N1_5 C53_5 1_555 1_555
C53_5 O11_5 1_555 1_555
H37_5 C53_5 1_555 1_555
C54_5 N1_5 1_555 1_555
H38_5 C54_5 1_555 1_555
H39_5 C54_5 1_555 1_555
H40_5 C54_5 1_555 1_555
C55_5 N1_5 1_555 1_555
H41_5 C55_5 1_555 1_555
H42_5 C55_5 1_555 1_555
H43_5 C55_5 1_555 1_555
O13_3 Zn2_2 1_555 1_555
O14_3 Zn5_2 1_555 1_555
O15_3 Zn5_2 1_555 1_555
O16_3 Zn2_2 1_555 1_555
C5_5 C6_5 1_555 1_555
O14_4 Zn4_2 1_555 1_555
O17_3 Zn4_2 1_555 1_555
H2_6 O12_6 1_555 1_555
Zn7_2 O5_6 1_555 1_555
O5_6 C51_6 1_555 1_555
O6_6 C51_6 1_555 1_555
O11_6 Zn7_2 1_555 1_555
C4_6 C3_6 1_555 1_555
C5_6 C4_6 1_555 1_555
H5_6 C5_6 1_555 1_555
H6_6 C6_6 1_555 1_555
H11_6 C16_6 1_555 1_555
C51_6 C4_6 1_555 1_555
N1_6 C53_6 1_555 1_555
C53_6 O11_6 1_555 1_555
H37_6 C53_6 1_555 1_555
C54_6 N1_6 1_555 1_555
H38_6 C54_6 1_555 1_555
H39_6 C54_6 1_555 1_555
H40_6 C54_6 1_555 1_555
C55_6 N1_6 1_555 1_555
H41_6 C55_6 1_555 1_555
H42_6 C55_6 1_555 1_555
H43_6 C55_6 1_555 1_555
C5_6 C6_6 1_555 1_555
O1_6 C36_6 1_555 1_555
O2_5 C21_5 1_555 1_555
O3_4 C49_6 1_555 1_555
O4_4 C49_6 1_555 1_555
O15_3 C50_6 1_555 1_555
O16_3 C50_6 1_555 1_555
O10_5 C52_5 1_555 1_555
C1_6 C2_6 1_555 1_555
C2_6 H3_6 1_555 1_555
C7_6 C1_6 1_555 1_555
C8_6 C7_6 1_555 1_555
H7_6 C8_6 1_555 1_555
C9_6 C7_6 1_555 1_555
H8_6 C9_6 1_555 1_555
C10_6 C9_6 1_555 1_555
C11_6 C8_6 1_555 1_555
H9_6 C11_6 1_555 1_555
C12_6 C10_6 1_555 1_555
C13_5 C10_6 1_555 1_555
C14_5 C13_5 1_555 1_555
C15_5 C14_5 1_555 1_555
C18_5 C17_5 1_555 1_555
H12_5 C18_5 1_555 1_555
C19_5 C14_5 1_555 1_555
H13_5 C19_5 1_555 1_555
C20_5 C13_5 1_555 1_555
H14_5 C20_5 1_555 1_555
C21_5 C20_5 1_555 1_555
C22_5 C12_6 1_555 1_555
C23_5 H15_5 1_555 1_555
C24_5 C23_5 1_555 1_555
C25_5 C23_5 1_555 1_555
H16_5 C25_5 1_555 1_555
C26_6 C25_5 1_555 1_555
C27_6 C26_6 1_555 1_555
H17_6 C27_6 1_555 1_555
C28_6 C24_5 1_555 1_555
H18_6 C28_6 1_555 1_555
C29_6 C26_6 1_555 1_555
C30_5 C29_6 1_555 1_555
H19_5 C30_5 1_555 1_555
C31_5 C30_5 1_555 1_555
H20_5 C31_5 1_555 1_555
C32_6 C29_6 1_555 1_555
H21_6 C32_6 1_555 1_555
C33_6 C32_6 1_555 1_555
C34_6 C31_5 1_555 1_555
C35_6 C22_5 1_555 1_555
C36_6 C35_6 1_555 1_555
C37_6 C36_6 1_555 1_555
H22_6 C37_6 1_555 1_555
C38_6 C33_6 1_555 1_555
C39_6 C38_6 1_555 1_555
C40_6 C39_6 1_555 1_555
H23_6 C40_6 1_555 1_555
C41_6 C39_6 1_555 1_555
H24_6 C41_6 1_555 1_555
C42_6 C40_6 1_555 1_555
H25_6 C42_6 1_555 1_555
C43_6 C41_6 1_555 1_555
H26_6 C43_6 1_555 1_555
C44_6 C42_6 1_555 1_555
C45_5 O2_5 1_555 1_555
H27_5 C45_5 1_555 1_555
H28_5 C45_5 1_555 1_555
C46_5 C45_5 1_555 1_555
H29_5 C46_5 1_555 1_555
H30_5 C46_5 1_555 1_555
H31_5 C46_5 1_555 1_555
C47_6 O1_6 1_555 1_555
H32_6 C47_6 1_555 1_555
H33_6 C47_6 1_555 1_555
C48_6 C47_6 1_555 1_555
H34_6 C48_6 1_555 1_555
H35_6 C48_6 1_555 1_555
H36_6 C48_6 1_555 1_555
C49_6 C44_6 1_555 1_555
C50_6 C24_5 1_555 1_555
C52_5 C17_5 1_555 1_555
Zn3_4 O4_4 1_555 1_555
C11_6 C12_6 1_555 1_555
C18_5 C19_5 1_555 1_555
C21_5 C22_5 1_555 1_555
C27_6 C28_6 1_555 1_555
C33_6 C34_6 1_555 1_555
C34_6 C35_6 1_555 1_555
C37_6 C38_6 1_555 1_555
C43_6 C44_6 1_555 1_555
Zn3_3 O6_7 1_555 1_555
Zn6_3 O5_7 1_555 1_555
O1_7 C36_7 1_555 1_555
O13_3 C49_7 1_555 1_555
O14_3 C49_7 1_555 1_555
O5_7 C51_7 1_555 1_555
O6_7 C51_7 1_555 1_555
O11_7 Zn6_3 1_555 1_555
O12_7 Zn3_3 1_555 1_555
H1_7 O12_7 1_555 1_555
H2_7 O12_7 1_555 1_555
C1_7 C2_7 1_555 1_555
C2_7 H3_7 1_555 1_555
C3_7 C2_7 1_555 1_555
H4_7 C3_7 1_555 1_555
C4_7 C3_7 1_555 1_555
C5_7 C4_7 1_555 1_555
H5_7 C5_7 1_555 1_555
C6_7 C1_7 1_555 1_555
H6_7 C6_7 1_555 1_555
C7_7 C1_7 1_555 1_555
C8_7 C7_7 1_555 1_555
H7_7 C8_7 1_555 1_555
C9_7 C7_7 1_555 1_555
H8_7 C9_7 1_555 1_555
C10_7 C9_7 1_555 1_555
C11_7 C8_7 1_555 1_555
H9_7 C11_7 1_555 1_555
C12_7 C10_7 1_555 1_555
C27_7 C26_7 1_555 1_555
H17_7 C27_7 1_555 1_555
H18_7 C28_7 1_555 1_555
C29_7 C26_7 1_555 1_555
C32_7 C29_7 1_555 1_555
H21_7 C32_7 1_555 1_555
C33_7 C32_7 1_555 1_555
C36_7 C35_7 1_555 1_555
C37_7 C36_7 1_555 1_555
H22_7 C37_7 1_555 1_555
C38_7 C33_7 1_555 1_555
C39_7 C38_7 1_555 1_555
C40_7 C39_7 1_555 1_555
H23_7 C40_7 1_555 1_555
C41_7 C39_7 1_555 1_555
H24_7 C41_7 1_555 1_555
C42_7 C40_7 1_555 1_555
H25_7 C42_7 1_555 1_555
C43_7 C41_7 1_555 1_555
H26_7 C43_7 1_555 1_555
C44_7 C42_7 1_555 1_555
C47_7 O1_7 1_555 1_555
H32_7 C47_7 1_555 1_555
H33_7 C47_7 1_555 1_555
C48_7 C47_7 1_555 1_555
H34_7 C48_7 1_555 1_555
H35_7 C48_7 1_555 1_555
H36_7 C48_7 1_555 1_555
C49_7 C44_7 1_555 1_555
C51_7 C4_7 1_555 1_555
N1_7 C53_7 1_555 1_555
C53_7 O11_7 1_555 1_555
H37_7 C53_7 1_555 1_555
C54_7 N1_7 1_555 1_555
H38_7 C54_7 1_555 1_555
H39_7 C54_7 1_555 1_555
H40_7 C54_7 1_555 1_555
C55_7 N1_7 1_555 1_555
H41_7 C55_7 1_555 1_555
H42_7 C55_7 1_555 1_555
H43_7 C55_7 1_555 1_555
Zn6_4 O8_4 1_555 1_555
O15_4 Zn3_3 1_555 1_555
O16_4 Zn6_3 1_555 1_555
O17_4 Zn3_3 1_555 1_555
C5_7 C6_7 1_555 1_555
C11_7 C12_7 1_555 1_555
C27_7 C28_7 1_555 1_555
C33_7 C34_7 1_555 1_555
C34_7 C35_7 1_555 1_555
C37_7 C38_7 1_555 1_555
C43_7 C44_7 1_555 1_555
O2_6 C21_6 1_555 1_555
O7_4 C50_7 1_555 1_555
O17_4 C52_6 1_555 1_555
O10_6 C52_6 1_555 1_555
C14_6 C13_6 1_555 1_555
C15_6 C14_6 1_555 1_555
H10_7 C15_6 1_555 1_555
C16_7 C15_6 1_555 1_555
H11_7 C16_7 1_555 1_555
C17_6 C16_7 1_555 1_555
C18_6 C17_6 1_555 1_555
H12_6 C18_6 1_555 1_555
C19_6 C14_6 1_555 1_555
H13_6 C19_6 1_555 1_555
C20_6 C13_6 1_555 1_555
H14_6 C20_6 1_555 1_555
C21_6 C20_6 1_555 1_555
C23_6 H15_6 1_555 1_555
C24_6 C23_6 1_555 1_555
C25_6 C23_6 1_555 1_555
H16_6 C25_6 1_555 1_555
H19_6 C30_6 1_555 1_555
C31_6 C30_6 1_555 1_555
H20_6 C31_6 1_555 1_555
C45_6 O2_6 1_555 1_555
H27_6 C45_6 1_555 1_555
H28_6 C45_6 1_555 1_555
C46_6 C45_6 1_555 1_555
H29_6 C46_6 1_555 1_555
H30_6 C46_6 1_555 1_555
H31_6 C46_6 1_555 1_555
C50_7 C24_6 1_555 1_555
C52_6 C17_6 1_555 1_555
Zn3_4 O7_4 1_555 1_555
C18_6 C19_6 1_555 1_555
C21_6 C22_6 1_555 1_555
Zn6_4 O5_8 1_555 1_555
O1_8 C36_8 1_555 1_555
O2_7 C21_7 1_555 1_555
O13_4 C49_8 1_555 1_555
O14_4 C49_8 1_555 1_555
O5_8 C51_8 1_555 1_555
O6_8 C51_8 1_555 1_555
O9_4 C52_7 1_555 1_555
O10_7 C52_7 1_555 1_555
O11_8 Zn6_4 1_555 1_555
C1_8 C2_8 1_555 1_555
C2_8 H3_8 1_555 1_555
C3_8 C2_8 1_555 1_555
H4_8 C3_8 1_555 1_555
C4_8 C3_8 1_555 1_555
C5_8 C4_8 1_555 1_555
H5_8 C5_8 1_555 1_555
C6_8 C1_8 1_555 1_555
H6_8 C6_8 1_555 1_555
C7_8 C1_8 1_555 1_555
C8_8 C7_8 1_555 1_555
H7_8 C8_8 1_555 1_555
C9_8 C7_8 1_555 1_555
H8_8 C9_8 1_555 1_555
C10_8 C9_8 1_555 1_555
C11_8 C8_8 1_555 1_555
H9_8 C11_8 1_555 1_555
C12_8 C10_8 1_555 1_555
C13_7 C10_8 1_555 1_555
C14_7 C13_7 1_555 1_555
C15_7 C14_7 1_555 1_555
H10_8 C15_7 1_555 1_555
C16_8 C15_7 1_555 1_555
H11_8 C16_8 1_555 1_555
C17_7 C16_8 1_555 1_555
C18_7 C17_7 1_555 1_555
H12_7 C18_7 1_555 1_555
C19_7 C14_7 1_555 1_555
H13_7 C19_7 1_555 1_555
C20_7 C13_7 1_555 1_555
H14_7 C20_7 1_555 1_555
C21_7 C20_7 1_555 1_555
C22_7 C12_8 1_555 1_555
C23_7 H15_7 1_555 1_555
C24_7 C23_7 1_555 1_555
C25_7 C23_7 1_555 1_555
H16_7 C25_7 1_555 1_555
C26_8 C25_7 1_555 1_555
C27_8 C26_8 1_555 1_555
H17_8 C27_8 1_555 1_555
C28_8 C24_7 1_555 1_555
H18_8 C28_8 1_555 1_555
C29_8 C26_8 1_555 1_555
C30_7 C29_8 1_555 1_555
H19_7 C30_7 1_555 1_555
C31_7 C30_7 1_555 1_555
H20_7 C31_7 1_555 1_555
C32_8 C29_8 1_555 1_555
H21_8 C32_8 1_555 1_555
C33_8 C32_8 1_555 1_555
C34_8 C31_7 1_555 1_555
C35_8 C22_7 1_555 1_555
C36_8 C35_8 1_555 1_555
C37_8 C36_8 1_555 1_555
H22_8 C37_8 1_555 1_555
C38_8 C33_8 1_555 1_555
C39_8 C38_8 1_555 1_555
C40_8 C39_8 1_555 1_555
H23_8 C40_8 1_555 1_555
C41_8 C39_8 1_555 1_555
H24_8 C41_8 1_555 1_555
C42_8 C40_8 1_555 1_555
H25_8 C42_8 1_555 1_555
C43_8 C41_8 1_555 1_555
H26_8 C43_8 1_555 1_555
C44_8 C42_8 1_555 1_555
C45_7 O2_7 1_555 1_555
H27_7 C45_7 1_555 1_555
H28_7 C45_7 1_555 1_555
C46_7 C45_7 1_555 1_555
H29_7 C46_7 1_555 1_555
H30_7 C46_7 1_555 1_555
H31_7 C46_7 1_555 1_555
C47_8 O1_8 1_555 1_555
H32_8 C47_8 1_555 1_555
H33_8 C47_8 1_555 1_555
C48_8 C47_8 1_555 1_555
H34_8 C48_8 1_555 1_555
H35_8 C48_8 1_555 1_555
H36_8 C48_8 1_555 1_555
C49_8 C44_8 1_555 1_555
C51_8 C4_8 1_555 1_555
C52_7 C17_7 1_555 1_555
N1_8 C53_8 1_555 1_555
C53_8 O11_8 1_555 1_555
H37_8 C53_8 1_555 1_555
C54_8 N1_8 1_555 1_555
H38_8 C54_8 1_555 1_555
H39_8 C54_8 1_555 1_555
H40_8 C54_8 1_555 1_555
C55_8 N1_8 1_555 1_555
H41_8 C55_8 1_555 1_555
H42_8 C55_8 1_555 1_555
H43_8 C55_8 1_555 1_555
Zn3_4 O9_4 1_555 1_555
C5_8 C6_8 1_555 1_555
C11_8 C12_8 1_555 1_555
C18_7 C19_7 1_555 1_555
C21_7 C22_7 1_555 1_555
C27_8 C28_8 1_555 1_555
C33_8 C34_8 1_555 1_555
C34_8 C35_8 1_555 1_555
C37_8 C38_8 1_555 1_555
C43_8 C44_8 1_555 1_555
O15_4 C50_8 1_555 1_555
O16_4 C50_8 1_555 1_555
O12_8 Zn3_4 1_555 1_555
H1_8 O12_8 1_555 1_555
H2_8 O12_8 1_555 1_555
O2_8 C21_8 1_555 1_555
O10_8 C52_8 1_555 1_555
C14_8 C13_8 1_555 1_555
C15_8 C14_8 1_555 1_555
C18_8 C17_8 1_555 1_555
H12_8 C18_8 1_555 1_555
C19_8 C14_8 1_555 1_555
H13_8 C19_8 1_555 1_555
C20_8 C13_8 1_555 1_555
H14_8 C20_8 1_555 1_555
C21_8 C20_8 1_555 1_555
C23_8 H15_8 1_555 1_555
C24_8 C23_8 1_555 1_555
C25_8 C23_8 1_555 1_555
H16_8 C25_8 1_555 1_555
H19_8 C30_8 1_555 1_555
C31_8 C30_8 1_555 1_555
H20_8 C31_8 1_555 1_555
C45_8 O2_8 1_555 1_555
H27_8 C45_8 1_555 1_555
H28_8 C45_8 1_555 1_555
C46_8 C45_8 1_555 1_555
H29_8 C46_8 1_555 1_555
H30_8 C46_8 1_555 1_555
H31_8 C46_8 1_555 1_555
C52_8 C17_8 1_555 1_555
C18_8 C19_8 1_555 1_555
C21_8 C22_8 1_555 1_555

#END
