
###############################################################################
#
# This file contains modified crystal structure data generated from the
# MOF subset of the Cambridge Structural Database (CSD) v543 
# hosted by the Cambridge Crystallographic Data Centre (CCDC).
#
# This work is licensed under the Creative Commons
# Attribution-NonCommercial-ShareAlike 4.0 International License.
# To view a copy of this license, visit
# http://creativecommons.org/licenses/by-nc-sa/4.0/
# or send a letter to
# Creative Commons, PO Box 1866, Mountain View, CA 94042, USA.
#
# CIF created using the CSD Python API on 29 September 2022
# The structure has been converted into the P1 space group
# The structure has a 3D framework
# The original CSD entry TADWIG is in the orthorhombic crystal system
# The original CSD entry TADWIG is in a Sohncke space group
# The framework has been calculated to contain at least 10.0% void space
# The void calculation uses a probe of radius 1.32A, grid spacing 0.4
# H atom positions have been added when not included in the experimental data
#
###############################################################################

data_TADWIG
_chemical_formula_moiety         '(C408 H280 N8 O88 Zn14)n'
_symmetry_cell_setting           triclinic
_symmetry_space_group_name_H-M   'P 1'
_symmetry_Int_Tables_number      1
_space_group_name_Hall           'P 1'
loop_
_symmetry_equiv_pos_site_id
_symmetry_equiv_pos_as_xyz
1 x,y,z
_cell_length_a                   12.7526(10)
_cell_length_b                   26.9066(19)
_cell_length_c                   44.199(3)
_cell_angle_alpha                90
_cell_angle_beta                 90
_cell_angle_gamma                90
_cell_volume                     15166
loop_
_atom_site_label
_atom_site_type_symbol
_atom_site_fract_x
_atom_site_fract_y
_atom_site_fract_z
Zn1 Zn 0.57996(5) 0.54605(3) 0.927513(12)
Zn2 Zn 0.40281(5) 0.63291(2) 0.935190(12)
O2 O 0.1010(3) 0.30034(14) 0.74346(6)
H2 H 0.1399 0.2755 0.7459
O3 O 0.3360(3) 0.59702(17) 0.90172(8)
O4 O 0.4610(3) 0.54001(19) 0.89839(10)
O7 O 0.3745(3) 0.1120(2) 0.58884(9)
O8 O 0.4850(3) 0.17369(15) 0.57986(9)
O9 O 0.0492(4) 0.41339(16) 0.46573(8)
O11 O 0.5281(4) 0.47601(17) 0.94625(11)
C1 C 0.3783(5) 0.5588(3) 0.88980(12)
C2 C 0.3249(4) 0.5347(2) 0.86419(12)
C3 C 0.2293(5) 0.5549(2) 0.85329(13)
H3 H 0.2011 0.5845 0.8617
C4 C 0.1775(5) 0.5299(2) 0.82988(13)
H4 H 0.1121 0.5427 0.8232
C5 C 0.2160(5) 0.4879(3) 0.81606(11)
C6 C 0.3116(5) 0.4700(3) 0.82709(13)
H5 H 0.3408 0.4407 0.8184
C7 C 0.3639(5) 0.4933(3) 0.84989(14)
H6 H 0.4298 0.4804 0.8562
C8 C 0.1549(5) 0.4611(2) 0.79321(12)
C9 C 0.0489(5) 0.4577(2) 0.79444(12)
H7 H 0.0145 0.4740 0.8107
C15 C 0.0361(4) 0.4087(2) 0.74837(11)
C16 C 0.1456(5) 0.4141(2) 0.74641(13)
H9 H 0.1808 0.3995 0.7297
C17 C 0.2054(5) 0.4399(2) 0.76787(12)
H10 H 0.2791 0.4431 0.7654
C24 C 0.0354(4) 0.3499(2) 0.70401(11)
C25 C 0.0916(5) 0.3101(2) 0.71336(11)
C26 C 0.1481(4) 0.2798(2) 0.69200(11)
H15 H 0.1889 0.2526 0.6990
C27 C 0.1436(4) 0.2897(2) 0.66224(11)
C28 C 0.0814(4) 0.3287(2) 0.65072(10)
C29 C 0.0675(4) 0.3386(2) 0.61990(10)
H16 H 0.1024 0.3181 0.6056
C30 C 0.0049(4) 0.3772(2) 0.60926(10)
C34 C 0.0266(4) 0.3596(2) 0.67219(11)
C35 C 0.2065(4) 0.2560(3) 0.64185(11)
C36 C 0.2870(5) 0.2755(2) 0.62274(13)
H19 H 0.2974 0.3103 0.6212
C37 C 0.3498(5) 0.2430(3) 0.60643(12)
H20 H 0.4051 0.2558 0.5943
C38 C 0.3327(5) 0.1913(3) 0.60755(12)
C39 C 0.2547(4) 0.1731(2) 0.62654(11)
H21 H 0.2445 0.1382 0.6281
C40 C 0.1921(4) 0.2047(3) 0.64307(11)
H22 H 0.1382 0.1913 0.6555
C41 C 0.4028(6) 0.1573(3) 0.59130(12)
C42 C 0.0775(5) 0.3795(2) 0.55766(11)
H23 H 0.1410 0.3666 0.5657
C44 C 0.0697(5) 0.3900(2) 0.52610(12)
H24 H 0.1291 0.3861 0.5133
O12 O 0.3012(4) 0.68016(18) 0.95180(11)
N1 N 0.2780(7) 0.7570(4) 0.96334(19)
C49 C 0.1525(8) 0.7605(4) 0.9521(2)
H27 H 0.1332 0.7299 0.9415
H28 H 0.1438 0.7890 0.9385
H29 H 0.1072 0.7648 0.9699
C50 C 0.2960(10) 0.8047(4) 0.9767(2)
H30 H 0.2578 0.8302 0.9653
H31 H 0.3712 0.8122 0.9764
H32 H 0.2712 0.8045 0.9977
C51 C 0.3199(4) 0.7031(2) 0.96948(12)
H33 H 0.3572 0.6931 0.9871
Zn4 Zn 0.42004(5) 0.04605(3) 0.572487(12)
Zn6 Zn 0.59719(5) 0.13291(2) 0.564810(12)
Zn7 Zn 0.09719(5) 0.36709(2) 0.435190(12)
O13 O 0.6886(3) 0.51549(17) 0.90165(9)
O14 O 0.6255(3) 0.6120(2) 0.91116(9)
O15 O 0.5150(3) 0.67369(15) 0.92014(9)
O16 O 0.4508(4) 0.58661(16) 0.96573(8)
O17 O 0.6155(4) 0.56685(16) 0.97101(8)
H34 H 0.530631 0.449987 0.930336
H35 H 0.574773 0.466411 0.963258
O1 O 0.8160(3) 0.35087(15) 0.70980(8)
H1 H 0.8562 0.3406 0.6961
O5 O 0.6172(7) 0.4376(2) 0.90286(15)
O10 O 0.8845(4) 0.43315(16) 0.47101(8)
C10 C 0.9859(5) 0.4320(2) 0.77372(12)
C11 C 0.8758(5) 0.4239(3) 0.77644(13)
C12 C 0.8206(5) 0.3991(2) 0.75485(12)
H8 H 0.7465 0.3967 0.7566
C13 C 0.8713(5) 0.3769(2) 0.73011(11)
C14 C 0.9777(5) 0.3804(2) 0.72678(11)
C18 C 0.8201(5) 0.4401(4) 0.80481(16)
C19 C 0.7795(8) 0.3995(4) 0.82354(19)
H11 H 0.7898 0.3659 0.8176
C20 C 0.7253(8) 0.4106(4) 0.85031(18)
H12 H 0.6904 0.3854 0.8615
C21 C 0.7245(6) 0.4617(3) 0.86019(16)
C22 C 0.7582(5) 0.4990(3) 0.84277(14)
H13 H 0.7505 0.5326 0.8491
C23 C 0.8063(5) 0.4871(3) 0.81419(16)
H14 H 0.8292 0.5135 0.8015
C31 C 0.9533(4) 0.4076(2) 0.63081(11)
H17 H 0.9120 0.4349 0.6242
C32 C 0.6761(8) 0.4743(4) 0.8913(2)
C33 C 0.9625(4) 0.3979(2) 0.66095(11)
H18 H 0.9242 0.4178 0.6749
C43 C 0.9930(4) 0.3880(2) 0.57653(11)
C45 C 0.9736(5) 0.4060(2) 0.51404(11)
C46 C 0.8898(4) 0.4136(2) 0.53330(11)
H25 H 0.8258 0.4263 0.5255
C47 C 0.8982(4) 0.40264(19) 0.56427(10)
H26 H 0.8383 0.4053 0.5769
C48 C 0.9675(6) 0.4177(3) 0.48242(13)
Zn5 Zn 0.92004(5) 0.45395(3) 0.427513(12)
O1_2 O 0.6840(3) 0.64913(15) 0.20980(8)
H1_2 H 0.6438 0.6594 0.1961
O2_2 O 0.3990(3) 0.69966(14) 0.24346(6)
H2_2 H 0.3601 0.7245 0.2459
O3_2 O 0.1640(3) 0.40298(17) 0.40172(8)
O4_2 O 0.0390(3) 0.45999(19) 0.39839(10)
O5_2 O 0.8828(7) 0.5624(2) 0.40286(15)
O6 O 0.8114(3) 0.48451(17) 0.40165(9)
O7_2 O 0.1255(3) 0.8880(2) 0.08884(9)
O8_2 O 0.0150(3) 0.82631(15) 0.07986(9)
C1_2 C 0.1217(5) 0.4412(3) 0.38980(12)
C2_2 C 0.1751(4) 0.4653(2) 0.36419(12)
C3_2 C 0.2707(5) 0.4451(2) 0.35329(13)
H3_2 H 0.2989 0.4155 0.3617
C4_2 C 0.3225(5) 0.4701(2) 0.32988(13)
H4_2 H 0.3879 0.4573 0.3232
C5_2 C 0.2840(5) 0.5121(3) 0.31606(11)
C6_2 C 0.1884(5) 0.5300(3) 0.32709(13)
H5_2 H 0.1592 0.5593 0.3184
C7_2 C 0.1361(5) 0.5067(3) 0.34989(14)
H6_2 H 0.0702 0.5196 0.3562
C8_2 C 0.3451(5) 0.5389(2) 0.29321(12)
C9_2 C 0.4511(5) 0.5423(2) 0.29444(12)
H7_2 H 0.4855 0.5260 0.3107
C10_2 C 0.5141(5) 0.5680(2) 0.27372(12)
C11_2 C 0.6242(5) 0.5761(3) 0.27644(13)
C12_2 C 0.6794(5) 0.6009(2) 0.25485(12)
H8_2 H 0.7535 0.6033 0.2566
C13_2 C 0.6287(5) 0.6231(2) 0.23011(11)
C14_2 C 0.5223(5) 0.6196(2) 0.22678(11)
C15_2 C 0.4639(4) 0.5913(2) 0.24837(11)
C16_2 C 0.3544(5) 0.5859(2) 0.24641(13)
H9_2 H 0.3192 0.6005 0.2297
C17_2 C 0.2946(5) 0.5601(2) 0.26787(12)
H10_2 H 0.2209 0.5569 0.2654
C18_2 C 0.6799(5) 0.5599(4) 0.30481(16)
C19_2 C 0.7205(8) 0.6005(4) 0.32354(19)
H11_2 H 0.7102 0.6341 0.3176
C20_2 C 0.7747(8) 0.5894(4) 0.35031(18)
H12_2 H 0.8096 0.6146 0.3615
C21_2 C 0.7755(6) 0.5383(3) 0.36019(16)
C22_2 C 0.7418(5) 0.5010(3) 0.34277(14)
H13_2 H 0.7495 0.4674 0.3491
C23_2 C 0.6937(5) 0.5129(3) 0.31419(16)
H14_2 H 0.6708 0.4865 0.3015
C24_2 C 0.4646(4) 0.6501(2) 0.20401(11)
C25_2 C 0.4084(5) 0.6899(2) 0.21336(11)
C26_2 C 0.3519(4) 0.7202(2) 0.19200(11)
H15_2 H 0.3111 0.7474 0.1990
C27_2 C 0.3564(4) 0.7103(2) 0.16224(11)
C28_2 C 0.4186(4) 0.6713(2) 0.15072(10)
C29_2 C 0.4325(4) 0.6614(2) 0.11990(10)
H16_2 H 0.3976 0.6819 0.1056
C30_2 C 0.4951(4) 0.6228(2) 0.10926(10)
C31_2 C 0.5467(4) 0.5924(2) 0.13081(11)
H17_2 H 0.5880 0.5651 0.1242
C32_2 C 0.8239(8) 0.5257(4) 0.3913(2)
C33_2 C 0.5375(4) 0.6021(2) 0.16095(11)
H18_2 H 0.5758 0.5822 0.1749
C34_2 C 0.4734(4) 0.6404(2) 0.17219(11)
C35_2 C 0.2935(4) 0.7440(3) 0.14185(11)
C36_2 C 0.2130(5) 0.7245(2) 0.12274(13)
H19_2 H 0.2026 0.6897 0.1212
C37_2 C 0.1502(5) 0.7570(3) 0.10643(12)
H20_2 H 0.0949 0.7442 0.0943
C38_2 C 0.1673(5) 0.8087(3) 0.10755(12)
C39_2 C 0.2453(4) 0.8269(2) 0.12654(11)
H21_2 H 0.2555 0.8618 0.1281
C40_2 C 0.3079(4) 0.7953(3) 0.14307(11)
H22_2 H 0.3618 0.8087 0.1555
C41_2 C 0.0972(6) 0.8427(3) 0.09130(12)
C42_2 C 0.4225(5) 0.6205(2) 0.05766(11)
H23_2 H 0.3590 0.6334 0.0657
C43_2 C 0.5070(4) 0.6120(2) 0.07653(11)
C44_2 C 0.4303(5) 0.6100(2) 0.02610(12)
H24_2 H 0.3709 0.6139 0.0133
C45_2 C 0.5264(5) 0.5940(2) 0.01404(11)
C46_2 C 0.6102(4) 0.5864(2) 0.03330(11)
H25_2 H 0.6742 0.5737 0.0255
C47_2 C 0.6018(4) 0.59736(19) 0.06427(10)
H26_2 H 0.6617 0.5947 0.0769
O12_2 O 0.1988(4) 0.31984(18) 0.45180(11)
N1_2 N 0.2220(7) 0.2430(4) 0.46334(19)
C49_2 C 0.3475(8) 0.2395(4) 0.4521(2)
H27_2 H 0.3668 0.2701 0.4415
H28_2 H 0.3562 0.2110 0.4385
H29_2 H 0.3928 0.2352 0.4699
C50_2 C 0.2040(10) 0.1953(4) 0.4767(2)
H30_2 H 0.2422 0.1698 0.4653
H31_2 H 0.1288 0.1878 0.4764
H32_2 H 0.2288 0.1955 0.4977
C51_2 C 0.1801(4) 0.2969(2) 0.46948(12)
H33_2 H 0.1428 0.3069 0.4871
Zn4_2 Zn 0.07996(5) 0.95395(3) 0.072487(12)
C48_2 C 0.5325(6) 0.5823(3) 0.98242(13)
O11_2 O 0.9719(4) 0.52399(17) 0.44625(11)
Zn6_2 Zn 0.90281(5) 0.86709(2) 0.064810(12)
O14_2 O 0.8745(3) 0.3880(2) 0.41116(9)
O15_2 O 0.9850(3) 0.32631(15) 0.42014(9)
H34_2 H 0.969369 0.550013 0.430336
H35_2 H 0.925227 0.533589 0.463258
O6_2 O 0.3114(3) 0.01549(17) 0.59835(9)
H13_3 H 0.2495 0.0326 0.6509
H14_3 H 0.1708 0.0135 0.6985
O10_2 O 0.1155(4) 0.93315(16) 0.02899(8)
C48_3 C 0.0325(6) 0.9177(3) 0.01758(13)
O3_3 O 0.6640(3) 0.09702(17) 0.59828(8)
O4_3 O 0.5390(3) 0.04001(19) 0.60161(10)
C1_3 C 0.6217(5) 0.0588(3) 0.61020(12)
C2_3 C 0.6751(4) 0.0347(2) 0.63581(12)
C3_3 C 0.7707(5) 0.0549(2) 0.64671(13)
H3_3 H 0.7989 0.0845 0.6383
C4_3 C 0.8225(5) 0.0299(2) 0.67012(13)
H4_3 H 0.8879 0.0427 0.6768
O12_3 O 0.6988(4) 0.18016(18) 0.54820(11)
N1_3 N 0.7220(7) 0.2570(4) 0.53666(19)
C49_3 C 0.8475(8) 0.2605(4) 0.5479(2)
H27_3 H 0.8668 0.2299 0.5585
H28_3 H 0.8562 0.2890 0.5615
H29_3 H 0.8928 0.2648 0.5301
C50_3 C 0.7040(10) 0.3047(4) 0.5233(2)
H30_3 H 0.7422 0.3302 0.5347
H31_3 H 0.6288 0.3122 0.5236
H32_3 H 0.7288 0.3045 0.5023
C51_3 C 0.6801(4) 0.2031(2) 0.53052(12)
H33_3 H 0.6428 0.1931 0.5129
O16_2 O 0.5492(4) 0.08661(16) 0.53427(8)
O17_2 O 0.3845(4) 0.06685(16) 0.52899(8)
O9_2 O 0.9508(4) 0.91339(16) 0.03427(8)
O2_3 O 0.8990(3) 0.80034(14) 0.75654(6)
H2_3 H 0.8601 0.7755 0.7541
O11_3 O 0.4719(4) 0.97601(17) 0.55375(11)
C5_3 C 0.7840(5) 0.9879(3) 0.68394(11)
C6_3 C 0.6884(5) 0.9700(3) 0.67291(13)
H5_3 H 0.6592 0.9407 0.6816
C7_3 C 0.6361(5) 0.9933(3) 0.65011(14)
H6_3 H 0.5702 0.9804 0.6438
C8_3 C 0.8451(5) 0.9611(2) 0.70679(12)
C9_3 C 0.9511(5) 0.9577(2) 0.70556(12)
H7_3 H 0.9855 0.9740 0.6893
C15_3 C 0.9639(4) 0.9087(2) 0.75163(11)
C16_3 C 0.8544(5) 0.9141(2) 0.75359(13)
H9_3 H 0.8192 0.8995 0.7703
C17_3 C 0.7946(5) 0.9399(2) 0.73213(12)
H10_3 H 0.7209 0.9431 0.7346
C24_3 C 0.9646(4) 0.8499(2) 0.79599(11)
C25_3 C 0.9084(5) 0.8101(2) 0.78664(11)
C26_3 C 0.8519(4) 0.7798(2) 0.80800(11)
H15_3 H 0.8111 0.7526 0.8010
C27_3 C 0.8564(4) 0.7897(2) 0.83776(11)
C28_3 C 0.9186(4) 0.8287(2) 0.84928(10)
C29_3 C 0.9325(4) 0.8386(2) 0.88010(10)
H16_3 H 0.8976 0.8181 0.8944
C30_3 C 0.9951(4) 0.8772(2) 0.89074(10)
C34_3 C 0.9734(4) 0.8596(2) 0.82781(11)
C35_3 C 0.7935(4) 0.7560(3) 0.85815(11)
C36_3 C 0.7130(5) 0.7755(2) 0.87726(13)
H19_3 H 0.7026 0.8103 0.8788
C37_3 C 0.6502(5) 0.7430(3) 0.89357(12)
H20_3 H 0.5949 0.7558 0.9057
C38_3 C 0.6673(5) 0.6913(3) 0.89245(12)
C39_3 C 0.7453(4) 0.6731(2) 0.87346(11)
H21_3 H 0.7555 0.6382 0.8719
C40_3 C 0.8079(4) 0.7047(3) 0.85693(11)
H22_3 H 0.8618 0.6913 0.8445
C41_3 C 0.5972(6) 0.6573(3) 0.90870(12)
C42_3 C 0.9225(5) 0.8795(2) 0.94234(11)
H23_3 H 0.8590 0.8666 0.9343
C44_3 C 0.9303(5) 0.8900(2) 0.97390(12)
H24_3 H 0.8709 0.8861 0.9867
H34_3 H 0.469369 0.949987 0.569664
H35_3 H 0.425227 0.966411 0.536742
O11_4 O 0.0281(4) 0.02399(17) 0.05375(11)
H34_4 H 0.0306314 0.0500127 0.0696641
H35_4 H 0.0747727 0.0335894 0.0367425
O13_2 O 0.1886(3) 0.98451(17) 0.09835(9)
O1_3 O 0.3160(3) 0.14913(15) 0.29020(8)
H1_3 H 0.3562 0.1594 0.3039
O2_4 O 0.6010(3) 0.19966(14) 0.25654(6)
H2_4 H 0.6399 0.2245 0.2541
O5_3 O 0.1172(7) 0.0624(2) 0.09714(15)
C5_4 C 0.7160(5) 0.0121(3) 0.18394(11)
C6_4 C 0.8116(5) 0.0300(3) 0.17291(13)
H5_4 H 0.8408 0.0593 0.1816
C7_4 C 0.8639(5) 0.0067(3) 0.15011(14)
H6_4 H 0.9298 0.0196 0.1438
C8_4 C 0.6549(5) 0.0389(2) 0.20679(12)
C9_4 C 0.5489(5) 0.0423(2) 0.20556(12)
H7_4 H 0.5145 0.0260 0.1893
C10_3 C 0.4859(5) 0.0680(2) 0.22628(12)
C11_3 C 0.3758(5) 0.0761(3) 0.22356(13)
C12_3 C 0.3206(5) 0.1009(2) 0.24515(12)
H8_3 H 0.2465 0.1033 0.2434
C13_3 C 0.3713(5) 0.1231(2) 0.26989(11)
C14_3 C 0.4777(5) 0.1196(2) 0.27322(11)
C15_4 C 0.5361(4) 0.0913(2) 0.25163(11)
C16_4 C 0.6456(5) 0.0859(2) 0.25359(13)
H9_4 H 0.6808 0.1005 0.2703
C17_4 C 0.7054(5) 0.0601(2) 0.23213(12)
H10_4 H 0.7791 0.0569 0.2346
C18_3 C 0.3201(5) 0.0599(4) 0.19519(16)
C19_3 C 0.2795(8) 0.1005(4) 0.17646(19)
H11_3 H 0.2898 0.1341 0.1824
C20_3 C 0.2253(8) 0.0894(4) 0.14969(18)
H12_3 H 0.1904 0.1146 0.1385
C21_3 C 0.2245(6) 0.0383(3) 0.13981(16)
C22_3 C 0.2582(5) 0.0010(3) 0.15723(14)
C23_3 C 0.3063(5) 0.0129(3) 0.18581(16)
C24_4 C 0.5354(4) 0.1501(2) 0.29599(11)
C25_4 C 0.5916(5) 0.1899(2) 0.28664(11)
C26_4 C 0.6481(4) 0.2202(2) 0.30800(11)
H15_4 H 0.6889 0.2474 0.3010
C27_4 C 0.6436(4) 0.2103(2) 0.33776(11)
C28_4 C 0.5814(4) 0.1713(2) 0.34928(10)
C29_4 C 0.5675(4) 0.1614(2) 0.38010(10)
H16_4 H 0.6024 0.1819 0.3944
C30_4 C 0.5049(4) 0.1228(2) 0.39074(10)
C31_3 C 0.4533(4) 0.0924(2) 0.36919(11)
H17_3 H 0.4120 0.0651 0.3758
C32_3 C 0.1761(8) 0.0257(4) 0.1087(2)
C33_3 C 0.4625(4) 0.1021(2) 0.33905(11)
H18_3 H 0.4242 0.0822 0.3251
C34_4 C 0.5266(4) 0.1404(2) 0.32781(11)
C35_4 C 0.7065(4) 0.2440(3) 0.35815(11)
C36_4 C 0.7870(5) 0.2245(2) 0.37726(13)
H19_4 H 0.7974 0.1897 0.3788
C37_4 C 0.8498(5) 0.2570(3) 0.39357(12)
H20_4 H 0.9051 0.2442 0.4057
C38_4 C 0.8327(5) 0.3087(3) 0.39245(12)
C39_4 C 0.7547(4) 0.3269(2) 0.37346(11)
H21_4 H 0.7445 0.3618 0.3719
C40_4 C 0.6921(4) 0.2953(3) 0.35693(11)
H22_4 H 0.6382 0.3087 0.3445
C41_4 C 0.9028(6) 0.3427(3) 0.40870(12)
C42_4 C 0.5775(5) 0.1205(2) 0.44234(11)
H23_4 H 0.6410 0.1334 0.4343
C43_3 C 0.4930(4) 0.1120(2) 0.42347(11)
C44_4 C 0.5697(5) 0.1100(2) 0.47390(12)
H24_4 H 0.6291 0.1139 0.4867
C45_3 C 0.4736(5) 0.0940(2) 0.48596(11)
C46_3 C 0.3898(4) 0.0864(2) 0.46670(11)
H25_3 H 0.3258 0.0737 0.4745
C47_3 C 0.3982(4) 0.09736(19) 0.43573(10)
H26_3 H 0.3383 0.0947 0.4231
C48_4 C 0.4675(6) 0.0823(3) 0.51758(13)
O3_4 O 0.8360(3) 0.90298(17) 0.09828(8)
O4_4 O 0.9610(3) 0.95999(19) 0.10161(10)
C1_4 C 0.8783(5) 0.9412(3) 0.11020(12)
C2_4 C 0.8249(4) 0.9653(2) 0.13581(12)
C3_4 C 0.7293(5) 0.9451(2) 0.14671(13)
H3_4 H 0.7011 0.9155 0.1383
C4_4 C 0.6775(5) 0.9701(2) 0.17012(13)
H4_4 H 0.6121 0.9573 0.1768
H13_4 H 0.2505 0.9674 0.1509
H14_4 H 0.3292 0.9865 0.1985
O12_4 O 0.8012(4) 0.81984(18) 0.04820(11)
N1_4 N 0.7780(7) 0.7430(4) 0.03666(19)
C49_4 C 0.6525(8) 0.7395(4) 0.0479(2)
H27_4 H 0.6332 0.7701 0.0585
H28_4 H 0.6438 0.7110 0.0615
H29_4 H 0.6072 0.7352 0.0301
C50_4 C 0.7960(10) 0.6953(4) 0.0233(2)
H30_4 H 0.7578 0.6698 0.0347
H31_4 H 0.8712 0.6878 0.0236
H32_4 H 0.7712 0.6955 0.0023
C51_4 C 0.8199(4) 0.7969(2) 0.03052(12)
H33_4 H 0.8572 0.8069 0.0129
O1_4 O 0.1840(3) 0.85087(15) 0.79020(8)
H1_4 H 0.1438 0.8406 0.8039
O5_4 O 0.3828(7) 0.9376(2) 0.59714(15)
C10_4 C 0.0141(5) 0.9320(2) 0.72628(12)
C11_4 C 0.1242(5) 0.9239(3) 0.72356(13)
C12_4 C 0.1794(5) 0.8991(2) 0.74515(12)
H8_4 H 0.2535 0.8967 0.7434
C13_4 C 0.1287(5) 0.8769(2) 0.76989(11)
C14_4 C 0.0223(5) 0.8804(2) 0.77322(11)
C18_4 C 0.1799(5) 0.9401(4) 0.69519(16)
C19_4 C 0.2205(8) 0.8995(4) 0.67646(19)
H11_4 H 0.2102 0.8659 0.6824
C20_4 C 0.2747(8) 0.9106(4) 0.64969(18)
H12_4 H 0.3096 0.8854 0.6385
C21_4 C 0.2755(6) 0.9617(3) 0.63981(16)
C22_4 C 0.2418(5) 0.9990(3) 0.65723(14)
C23_4 C 0.1937(5) 0.9871(3) 0.68581(16)
C31_4 C 0.0467(4) 0.9076(2) 0.86919(11)
H17_4 H 0.0880 0.9349 0.8758
C32_4 C 0.3239(8) 0.9743(4) 0.6087(2)
C33_4 C 0.0375(4) 0.8979(2) 0.83905(11)
H18_4 H 0.0758 0.9178 0.8251
C43_4 C 0.0070(4) 0.8880(2) 0.92347(11)
C45_4 C 0.0264(5) 0.9060(2) 0.98596(11)
C46_4 C 0.1102(4) 0.9136(2) 0.96670(11)
H25_4 H 0.1742 0.9263 0.9745
C47_4 C 0.1018(4) 0.90264(19) 0.93573(10)
H26_4 H 0.1617 0.9053 0.9231
Zn1_2 Zn 0.07996(5) 0.04605(3) 0.427513(12)
O13_3 O 0.1886(3) 0.01549(17) 0.40165(9)
O14_3 O 0.1255(3) 0.1120(2) 0.41116(9)
O15_3 O 0.0150(3) 0.17369(15) 0.42014(9)
O17_3 O 0.1155(4) 0.06685(16) 0.47101(8)
O11_5 O 0.0281(4) 0.97601(17) 0.44625(11)
Zn6_3 Zn 0.09719(5) 0.63291(2) 0.064810(12)
H34_5 H 0.0306314 0.949987 0.430336
H35_5 H 0.0747727 0.966411 0.463258
Zn2_2 Zn 0.90281(5) 0.13291(2) 0.435190(12)
O3_5 O 0.8360(3) 0.09702(17) 0.40172(8)
O4_5 O 0.9610(3) 0.04001(19) 0.39839(10)
C1_5 C 0.8783(5) 0.0588(3) 0.38980(12)
C2_5 C 0.8249(4) 0.0347(2) 0.36419(12)
C3_5 C 0.7293(5) 0.0549(2) 0.35329(13)
H3_5 H 0.7011 0.0845 0.3617
C4_5 C 0.6775(5) 0.0299(2) 0.32988(13)
H4_5 H 0.6121 0.0427 0.3232
H13_5 H 0.2505 0.0326 0.3491
H14_5 H 0.3292 0.0135 0.3015
O12_5 O 0.8012(4) 0.18016(18) 0.45180(11)
N1_5 N 0.7780(7) 0.2570(4) 0.46334(19)
C49_5 C 0.6525(8) 0.2605(4) 0.4521(2)
H27_5 H 0.6332 0.2299 0.4415
H28_5 H 0.6438 0.2890 0.4385
H29_5 H 0.6072 0.2648 0.4699
C50_5 C 0.7960(10) 0.3047(4) 0.4767(2)
H30_5 H 0.7578 0.3302 0.4653
H31_5 H 0.8712 0.3122 0.4764
H32_5 H 0.7712 0.3045 0.4977
C51_5 C 0.8199(4) 0.2031(2) 0.46948(12)
H33_5 H 0.8572 0.1931 0.4871
O16_3 O 0.9508(4) 0.08661(16) 0.46573(8)
O1_5 O 0.3160(3) 0.85087(15) 0.20980(8)
H1_5 H 0.3562 0.8406 0.1961
O2_5 O 0.6010(3) 0.80034(14) 0.24346(6)
H2_5 H 0.6399 0.7755 0.2459
O5_5 O 0.1172(7) 0.9376(2) 0.40286(15)
O7_3 O 0.8745(3) 0.6120(2) 0.08884(9)
O8_3 O 0.9850(3) 0.67369(15) 0.07986(9)
C5_5 C 0.7160(5) 0.9879(3) 0.31606(11)
C6_5 C 0.8116(5) 0.9700(3) 0.32709(13)
H5_5 H 0.8408 0.9407 0.3184
C7_5 C 0.8639(5) 0.9933(3) 0.34989(14)
H6_5 H 0.9298 0.9804 0.3562
C8_5 C 0.6549(5) 0.9611(2) 0.29321(12)
C9_5 C 0.5489(5) 0.9577(2) 0.29444(12)
H7_5 H 0.5145 0.9740 0.3107
C10_5 C 0.4859(5) 0.9320(2) 0.27372(12)
C11_5 C 0.3758(5) 0.9239(3) 0.27644(13)
C12_5 C 0.3206(5) 0.8991(2) 0.25485(12)
H8_5 H 0.2465 0.8967 0.2566
C13_5 C 0.3713(5) 0.8769(2) 0.23011(11)
C14_5 C 0.4777(5) 0.8804(2) 0.22678(11)
C15_5 C 0.5361(4) 0.9087(2) 0.24837(11)
C16_5 C 0.6456(5) 0.9141(2) 0.24641(13)
H9_5 H 0.6808 0.8995 0.2297
C17_5 C 0.7054(5) 0.9399(2) 0.26787(12)
H10_5 H 0.7791 0.9431 0.2654
C18_5 C 0.3201(5) 0.9401(4) 0.30481(16)
C19_5 C 0.2795(8) 0.8995(4) 0.32354(19)
H11_5 H 0.2898 0.8659 0.3176
C20_5 C 0.2253(8) 0.9106(4) 0.35031(18)
H12_5 H 0.1904 0.8854 0.3615
C21_5 C 0.2245(6) 0.9617(3) 0.36019(16)
C22_5 C 0.2582(5) 0.9990(3) 0.34277(14)
C23_5 C 0.3063(5) 0.9871(3) 0.31419(16)
C24_5 C 0.5354(4) 0.8499(2) 0.20401(11)
C25_5 C 0.5916(5) 0.8101(2) 0.21336(11)
C26_5 C 0.6481(4) 0.7798(2) 0.19200(11)
H15_5 H 0.6889 0.7526 0.1990
C27_5 C 0.6436(4) 0.7897(2) 0.16224(11)
C28_5 C 0.5814(4) 0.8287(2) 0.15072(10)
C29_5 C 0.5675(4) 0.8386(2) 0.11990(10)
H16_5 H 0.6024 0.8181 0.1056
C30_5 C 0.5049(4) 0.8772(2) 0.10926(10)
C31_5 C 0.4533(4) 0.9076(2) 0.13081(11)
H17_5 H 0.4120 0.9349 0.1242
C32_5 C 0.1761(8) 0.9743(4) 0.3913(2)
C33_5 C 0.4625(4) 0.8979(2) 0.16095(11)
H18_5 H 0.4242 0.9178 0.1749
C34_5 C 0.5266(4) 0.8596(2) 0.17219(11)
C35_5 C 0.7065(4) 0.7560(3) 0.14185(11)
C36_5 C 0.7870(5) 0.7755(2) 0.12274(13)
H19_5 H 0.7974 0.8103 0.1212
C37_5 C 0.8498(5) 0.7430(3) 0.10643(12)
H20_5 H 0.9051 0.7558 0.0943
C38_5 C 0.8327(5) 0.6913(3) 0.10755(12)
C39_5 C 0.7547(4) 0.6731(2) 0.12654(11)
H21_5 H 0.7445 0.6382 0.1281
C40_5 C 0.6921(4) 0.7047(3) 0.14307(11)
H22_5 H 0.6382 0.6913 0.1555
C41_5 C 0.9028(6) 0.6573(3) 0.09130(12)
C42_5 C 0.5775(5) 0.8795(2) 0.05766(11)
H23_5 H 0.6410 0.8666 0.0657
C43_5 C 0.4930(4) 0.8880(2) 0.07653(11)
C44_5 C 0.5697(5) 0.8900(2) 0.02610(12)
H24_5 H 0.6291 0.8861 0.0133
C45_5 C 0.4736(5) 0.9060(2) 0.01404(11)
C46_5 C 0.3898(4) 0.9136(2) 0.03330(11)
H25_5 H 0.3258 0.9263 0.0255
C47_5 C 0.3982(4) 0.90264(19) 0.06427(10)
H26_5 H 0.3383 0.9053 0.0769
Zn4_3 Zn 0.92004(5) 0.54605(3) 0.072487(12)
O9_3 O 0.5492(4) 0.91339(16) 0.96573(8)
O10_3 O 0.3845(4) 0.93315(16) 0.97101(8)
C48_5 C 0.4675(6) 0.9177(3) 0.98242(13)
Zn5_2 Zn 0.42004(5) 0.95395(3) 0.927513(12)
Zn7_2 Zn 0.59719(5) 0.86709(2) 0.935190(12)
O1_6 O 0.1840(3) 0.14913(15) 0.70980(8)
H1_6 H 0.1438 0.1594 0.6961
O5_6 O 0.3828(7) 0.0624(2) 0.90286(15)
C10_6 C 0.0141(5) 0.0680(2) 0.77372(12)
C11_6 C 0.1242(5) 0.0761(3) 0.77644(13)
C12_6 C 0.1794(5) 0.1009(2) 0.75485(12)
H8_6 H 0.2535 0.1033 0.7566
C13_6 C 0.1287(5) 0.1231(2) 0.73011(11)
C14_6 C 0.0223(5) 0.1196(2) 0.72678(11)
C18_6 C 0.1799(5) 0.0599(4) 0.80481(16)
C19_6 C 0.2205(8) 0.1005(4) 0.82354(19)
H11_6 H 0.2102 0.1341 0.8176
C20_6 C 0.2747(8) 0.0894(4) 0.85031(18)
H12_6 H 0.3096 0.1146 0.8615
C21_6 C 0.2755(6) 0.0383(3) 0.86019(16)
C22_6 C 0.2418(5) 0.0010(3) 0.84277(14)
C23_6 C 0.1937(5) 0.0129(3) 0.81419(16)
C31_6 C 0.0467(4) 0.0924(2) 0.63081(11)
H17_6 H 0.0880 0.0651 0.6242
C32_6 C 0.3239(8) 0.0257(4) 0.8913(2)
C33_6 C 0.0375(4) 0.1021(2) 0.66095(11)
H18_6 H 0.0758 0.0822 0.6749
C43_6 C 0.0070(4) 0.1120(2) 0.57653(11)
C45_6 C 0.0264(5) 0.0940(2) 0.51404(11)
C46_6 C 0.1102(4) 0.0864(2) 0.53330(11)
H25_6 H 0.1742 0.0737 0.5255
C47_6 C 0.1018(4) 0.09736(19) 0.56427(10)
H26_6 H 0.1617 0.0947 0.5769
C48_6 C 0.0325(6) 0.0823(3) 0.48242(13)
O6_3 O 0.3114(3) 0.98451(17) 0.90165(9)
H13_6 H 0.2495 0.9674 0.8491
H14_6 H 0.1708 0.9865 0.8015
O2_6 O 0.8990(3) 0.19966(14) 0.74346(6)
H2_6 H 0.8601 0.2245 0.7459
O7_4 O 0.6255(3) 0.3880(2) 0.58884(9)
O8_4 O 0.5150(3) 0.32631(15) 0.57986(9)
O11_6 O 0.4719(4) 0.02399(17) 0.94625(11)
C5_6 C 0.7840(5) 0.0121(3) 0.81606(11)
C6_6 C 0.6884(5) 0.0300(3) 0.82709(13)
H5_6 H 0.6592 0.0593 0.8184
C7_6 C 0.6361(5) 0.0067(3) 0.84989(14)
H6_6 H 0.5702 0.0196 0.8562
C8_6 C 0.8451(5) 0.0389(2) 0.79321(12)
C9_6 C 0.9511(5) 0.0423(2) 0.79444(12)
H7_6 H 0.9855 0.0260 0.8107
C15_6 C 0.9639(4) 0.0913(2) 0.74837(11)
C16_6 C 0.8544(5) 0.0859(2) 0.74641(13)
H9_6 H 0.8192 0.1005 0.7297
C17_6 C 0.7946(5) 0.0601(2) 0.76787(12)
H10_6 H 0.7209 0.0569 0.7654
C24_6 C 0.9646(4) 0.1501(2) 0.70401(11)
C25_6 C 0.9084(5) 0.1899(2) 0.71336(11)
C26_6 C 0.8519(4) 0.2202(2) 0.69200(11)
H15_6 H 0.8111 0.2474 0.6990
C27_6 C 0.8564(4) 0.2103(2) 0.66224(11)
C28_6 C 0.9186(4) 0.1713(2) 0.65072(10)
C29_6 C 0.9325(4) 0.1614(2) 0.61990(10)
H16_6 H 0.8976 0.1819 0.6056
C30_6 C 0.9951(4) 0.1228(2) 0.60926(10)
C34_6 C 0.9734(4) 0.1404(2) 0.67219(11)
C35_6 C 0.7935(4) 0.2440(3) 0.64185(11)
C36_6 C 0.7130(5) 0.2245(2) 0.62274(13)
H19_6 H 0.7026 0.1897 0.6212
C37_6 C 0.6502(5) 0.2570(3) 0.60643(12)
H20_6 H 0.5949 0.2442 0.5943
C38_6 C 0.6673(5) 0.3087(3) 0.60755(12)
C39_6 C 0.7453(4) 0.3269(2) 0.62654(11)
H21_6 H 0.7555 0.3618 0.6281
C40_6 C 0.8079(4) 0.2953(3) 0.64307(11)
H22_6 H 0.8618 0.3087 0.6555
C41_6 C 0.5972(6) 0.3427(3) 0.59130(12)
C42_6 C 0.9225(5) 0.1205(2) 0.55766(11)
H23_6 H 0.8590 0.1334 0.5657
C44_6 C 0.9303(5) 0.1100(2) 0.52610(12)
H24_6 H 0.8709 0.1139 0.5133
Zn4_4 Zn 0.57996(5) 0.45395(3) 0.572487(12)
Zn6_4 Zn 0.40281(5) 0.36709(2) 0.564810(12)
H34_6 H 0.469369 0.0500127 0.930336
H35_6 H 0.425227 0.0335894 0.963258
O3_6 O 0.6640(3) 0.90298(17) 0.90172(8)
O4_6 O 0.5390(3) 0.95999(19) 0.89839(10)
C1_6 C 0.6217(5) 0.9412(3) 0.88980(12)
C2_6 C 0.6751(4) 0.9653(2) 0.86419(12)
C3_6 C 0.7707(5) 0.9451(2) 0.85329(13)
H3_6 H 0.7989 0.9155 0.8617
C4_6 C 0.8225(5) 0.9701(2) 0.82988(13)
H4_6 H 0.8879 0.9573 0.8232
O12_6 O 0.6988(4) 0.81984(18) 0.95180(11)
N1_6 N 0.7220(7) 0.7430(4) 0.96334(19)
C49_6 C 0.8475(8) 0.7395(4) 0.9521(2)
H27_6 H 0.8668 0.7701 0.9415
H28_6 H 0.8562 0.7110 0.9385
H29_6 H 0.8928 0.7352 0.9699
C50_6 C 0.7040(10) 0.6953(4) 0.9767(2)
H30_6 H 0.7422 0.6698 0.9653
H31_6 H 0.6288 0.6878 0.9764
H32_6 H 0.7288 0.6955 0.9977
C51_6 C 0.6801(4) 0.7969(2) 0.96948(12)
H33_6 H 0.6428 0.8069 0.9871
O14_4 O 0.3745(3) 0.8880(2) 0.91116(9)
O15_4 O 0.4850(3) 0.82631(15) 0.92014(9)
O1_7 O 0.6840(3) 0.35087(15) 0.29020(8)
H1_7 H 0.6438 0.3406 0.3039
O2_7 O 0.3990(3) 0.30034(14) 0.25654(6)
H2_7 H 0.3601 0.2755 0.2541
O3_7 O 0.1640(3) 0.59702(17) 0.09828(8)
O4_7 O 0.0390(3) 0.54001(19) 0.10161(10)
O5_7 O 0.8828(7) 0.4376(2) 0.09714(15)
O6_4 O 0.8114(3) 0.51549(17) 0.09835(9)
O9_4 O 0.4508(4) 0.41339(16) 0.53427(8)
O10_4 O 0.6155(4) 0.43315(16) 0.52899(8)
C1_7 C 0.1217(5) 0.5588(3) 0.11020(12)
C2_7 C 0.1751(4) 0.5347(2) 0.13581(12)
C3_7 C 0.2707(5) 0.5549(2) 0.14671(13)
H3_7 H 0.2989 0.5845 0.1383
C4_7 C 0.3225(5) 0.5299(2) 0.17012(13)
H4_7 H 0.3879 0.5427 0.1768
C5_7 C 0.2840(5) 0.4879(3) 0.18394(11)
C6_7 C 0.1884(5) 0.4700(3) 0.17291(13)
H5_7 H 0.1592 0.4407 0.1816
C7_7 C 0.1361(5) 0.4933(3) 0.15011(14)
H6_7 H 0.0702 0.4804 0.1438
C8_7 C 0.3451(5) 0.4611(2) 0.20679(12)
C9_7 C 0.4511(5) 0.4577(2) 0.20556(12)
H7_7 H 0.4855 0.4740 0.1893
C10_7 C 0.5141(5) 0.4320(2) 0.22628(12)
C11_7 C 0.6242(5) 0.4239(3) 0.22356(13)
C12_7 C 0.6794(5) 0.3991(2) 0.24515(12)
H8_7 H 0.7535 0.3967 0.2434
C13_7 C 0.6287(5) 0.3769(2) 0.26989(11)
C14_7 C 0.5223(5) 0.3804(2) 0.27322(11)
C15_7 C 0.4639(4) 0.4087(2) 0.25163(11)
C16_7 C 0.3544(5) 0.4141(2) 0.25359(13)
H9_7 H 0.3192 0.3995 0.2703
C17_7 C 0.2946(5) 0.4399(2) 0.23213(12)
H10_7 H 0.2209 0.4431 0.2346
C18_7 C 0.6799(5) 0.4401(4) 0.19519(16)
C19_7 C 0.7205(8) 0.3995(4) 0.17646(19)
H11_7 H 0.7102 0.3659 0.1824
C20_7 C 0.7747(8) 0.4106(4) 0.14969(18)
H12_7 H 0.8096 0.3854 0.1385
C21_7 C 0.7755(6) 0.4617(3) 0.13981(16)
C22_7 C 0.7418(5) 0.4990(3) 0.15723(14)
H13_7 H 0.7495 0.5326 0.1509
C23_7 C 0.6937(5) 0.4871(3) 0.18581(16)
H14_7 H 0.6708 0.5135 0.1985
C24_7 C 0.4646(4) 0.3499(2) 0.29599(11)
C25_7 C 0.4084(5) 0.3101(2) 0.28664(11)
C26_7 C 0.3519(4) 0.2798(2) 0.30800(11)
H15_7 H 0.3111 0.2526 0.3010
C27_7 C 0.3564(4) 0.2897(2) 0.33776(11)
C28_7 C 0.4186(4) 0.3287(2) 0.34928(10)
C29_7 C 0.4325(4) 0.3386(2) 0.38010(10)
H16_7 H 0.3976 0.3181 0.3944
C30_7 C 0.4951(4) 0.3772(2) 0.39074(10)
C31_7 C 0.5467(4) 0.4076(2) 0.36919(11)
H17_7 H 0.5880 0.4349 0.3758
C32_7 C 0.8239(8) 0.4743(4) 0.1087(2)
C33_7 C 0.5375(4) 0.3979(2) 0.33905(11)
H18_7 H 0.5758 0.4178 0.3251
C34_7 C 0.4734(4) 0.3596(2) 0.32781(11)
C35_7 C 0.2935(4) 0.2560(3) 0.35815(11)
C36_7 C 0.2130(5) 0.2755(2) 0.37726(13)
H19_7 H 0.2026 0.3103 0.3788
C37_7 C 0.1502(5) 0.2430(3) 0.39357(12)
H20_7 H 0.0949 0.2558 0.4057
C38_7 C 0.1673(5) 0.1913(3) 0.39245(12)
C39_7 C 0.2453(4) 0.1731(2) 0.37346(11)
H21_7 H 0.2555 0.1382 0.3719
C40_7 C 0.3079(4) 0.2047(3) 0.35693(11)
H22_7 H 0.3618 0.1913 0.3445
C41_7 C 0.0972(6) 0.1573(3) 0.40870(12)
C42_7 C 0.4225(5) 0.3795(2) 0.44234(11)
H23_7 H 0.3590 0.3666 0.4343
C43_7 C 0.5070(4) 0.3880(2) 0.42347(11)
C44_7 C 0.4303(5) 0.3900(2) 0.47390(12)
H24_7 H 0.3709 0.3861 0.4867
C45_7 C 0.5264(5) 0.4060(2) 0.48596(11)
C46_7 C 0.6102(4) 0.4136(2) 0.46670(11)
H25_7 H 0.6742 0.4263 0.4745
C47_7 C 0.6018(4) 0.40264(19) 0.43573(10)
H26_7 H 0.6617 0.4053 0.4231
C48_7 C 0.5325(6) 0.4177(3) 0.51758(13)
O12_7 O 0.1988(4) 0.68016(18) 0.04820(11)
N1_7 N 0.2220(7) 0.7570(4) 0.03666(19)
C49_7 C 0.3475(8) 0.7605(4) 0.0479(2)
H27_7 H 0.3668 0.7299 0.0585
H28_7 H 0.3562 0.7890 0.0615
H29_7 H 0.3928 0.7648 0.0301
C50_7 C 0.2040(10) 0.8047(4) 0.0233(2)
H30_7 H 0.2422 0.8302 0.0347
H31_7 H 0.1288 0.8122 0.0236
H32_7 H 0.2288 0.8045 0.0023
C51_7 C 0.1801(4) 0.7031(2) 0.03052(12)
H33_7 H 0.1428 0.6931 0.0129
O16_4 O 0.0492(4) 0.58661(16) 0.03427(8)
O11_7 O 0.9719(4) 0.47601(17) 0.05375(11)
O17_4 O 0.8845(4) 0.56685(16) 0.02899(8)
H34_7 H 0.969369 0.449987 0.0696641
H35_7 H 0.925227 0.466411 0.0367425
O2_8 O 0.1010(3) 0.69966(14) 0.75654(6)
H2_8 H 0.1399 0.7245 0.7541
O3_8 O 0.3360(3) 0.40298(17) 0.59828(8)
O4_8 O 0.4610(3) 0.45999(19) 0.60161(10)
O11_8 O 0.5281(4) 0.52399(17) 0.55375(11)
C1_8 C 0.3783(5) 0.4412(3) 0.61020(12)
C2_8 C 0.3249(4) 0.4653(2) 0.63581(12)
C3_8 C 0.2293(5) 0.4451(2) 0.64671(13)
H3_8 H 0.2011 0.4155 0.6383
C4_8 C 0.1775(5) 0.4701(2) 0.67012(13)
H4_8 H 0.1121 0.4573 0.6768
C5_8 C 0.2160(5) 0.5121(3) 0.68394(11)
C6_8 C 0.3116(5) 0.5300(3) 0.67291(13)
H5_8 H 0.3408 0.5593 0.6816
C7_8 C 0.3639(5) 0.5067(3) 0.65011(14)
H6_8 H 0.4298 0.5196 0.6438
C8_8 C 0.1549(5) 0.5389(2) 0.70679(12)
C9_8 C 0.0489(5) 0.5423(2) 0.70556(12)
H7_8 H 0.0145 0.5260 0.6893
C15_8 C 0.0361(4) 0.5913(2) 0.75163(11)
C16_8 C 0.1456(5) 0.5859(2) 0.75359(13)
H9_8 H 0.1808 0.6005 0.7703
C17_8 C 0.2054(5) 0.5601(2) 0.73213(12)
H10_8 H 0.2791 0.5569 0.7346
C24_8 C 0.0354(4) 0.6501(2) 0.79599(11)
C25_8 C 0.0916(5) 0.6899(2) 0.78664(11)
C26_8 C 0.1481(4) 0.7202(2) 0.80800(11)
H15_8 H 0.1889 0.7474 0.8010
C27_8 C 0.1436(4) 0.7103(2) 0.83776(11)
C28_8 C 0.0814(4) 0.6713(2) 0.84928(10)
C29_8 C 0.0675(4) 0.6614(2) 0.88010(10)
H16_8 H 0.1024 0.6819 0.8944
C30_8 C 0.0049(4) 0.6228(2) 0.89074(10)
C34_8 C 0.0266(4) 0.6404(2) 0.82781(11)
C35_8 C 0.2065(4) 0.7440(3) 0.85815(11)
C36_8 C 0.2870(5) 0.7245(2) 0.87726(13)
H19_8 H 0.2974 0.6897 0.8788
C37_8 C 0.3498(5) 0.7570(3) 0.89357(12)
H20_8 H 0.4051 0.7442 0.9057
C38_8 C 0.3327(5) 0.8087(3) 0.89245(12)
C39_8 C 0.2547(4) 0.8269(2) 0.87346(11)
H21_8 H 0.2445 0.8618 0.8719
C40_8 C 0.1921(4) 0.7953(3) 0.85693(11)
H22_8 H 0.1382 0.8087 0.8445
C41_8 C 0.4028(6) 0.8427(3) 0.90870(12)
C42_8 C 0.0775(5) 0.6205(2) 0.94234(11)
H23_8 H 0.1410 0.6334 0.9343
C44_8 C 0.0697(5) 0.6100(2) 0.97390(12)
H24_8 H 0.1291 0.6139 0.9867
O12_8 O 0.3012(4) 0.31984(18) 0.54820(11)
N1_8 N 0.2780(7) 0.2430(4) 0.53666(19)
C49_8 C 0.1525(8) 0.2395(4) 0.5479(2)
H27_8 H 0.1332 0.2701 0.5585
H28_8 H 0.1438 0.2110 0.5615
H29_8 H 0.1072 0.2352 0.5301
C50_8 C 0.2960(10) 0.1953(4) 0.5233(2)
H30_8 H 0.2578 0.1698 0.5347
H31_8 H 0.3712 0.1878 0.5236
H32_8 H 0.2712 0.1955 0.5023
C51_8 C 0.3199(4) 0.2969(2) 0.53052(12)
H33_8 H 0.3572 0.3069 0.5129
O13_4 O 0.6886(3) 0.48451(17) 0.59835(9)
H34_8 H 0.530631 0.550013 0.569664
H35_8 H 0.574773 0.533589 0.536742
C48_8 C 0.9675(6) 0.5823(3) 0.01758(13)
O1_8 O 0.8160(3) 0.64913(15) 0.79020(8)
H1_8 H 0.8562 0.6594 0.8039
O5_8 O 0.6172(7) 0.5624(2) 0.59714(15)
C10_8 C 0.9859(5) 0.5680(2) 0.72628(12)
C11_8 C 0.8758(5) 0.5761(3) 0.72356(13)
C12_8 C 0.8206(5) 0.6009(2) 0.74515(12)
H8_8 H 0.7465 0.6033 0.7434
C13_8 C 0.8713(5) 0.6231(2) 0.76989(11)
C14_8 C 0.9777(5) 0.6196(2) 0.77322(11)
C18_8 C 0.8201(5) 0.5599(4) 0.69519(16)
C19_8 C 0.7795(8) 0.6005(4) 0.67646(19)
H11_8 H 0.7898 0.6341 0.6824
C20_8 C 0.7253(8) 0.5894(4) 0.64969(18)
H12_8 H 0.6904 0.6146 0.6385
C21_8 C 0.7245(6) 0.5383(3) 0.63981(16)
C22_8 C 0.7582(5) 0.5010(3) 0.65723(14)
H13_8 H 0.7505 0.4674 0.6509
C23_8 C 0.8063(5) 0.5129(3) 0.68581(16)
H14_8 H 0.8292 0.4865 0.6985
C31_8 C 0.9533(4) 0.5924(2) 0.86919(11)
H17_8 H 0.9120 0.5651 0.8758
C32_8 C 0.6761(8) 0.5257(4) 0.6087(2)
C33_8 C 0.9625(4) 0.6021(2) 0.83905(11)
H18_8 H 0.9242 0.5822 0.8251
C43_8 C 0.9930(4) 0.6120(2) 0.92347(11)
C45_8 C 0.9736(5) 0.5940(2) 0.98596(11)
C46_8 C 0.8898(4) 0.5864(2) 0.96670(11)
H25_8 H 0.8258 0.5737 0.9745
C47_8 C 0.8982(4) 0.59736(19) 0.93573(10)
H26_8 H 0.8383 0.5947 0.9231
loop_
_geom_bond_atom_site_label_1
_geom_bond_atom_site_label_2
_geom_bond_site_symmetry_1
_geom_bond_site_symmetry_2
Zn1 O4 1_555 1_555
Zn2 O3 1_555 1_555
O2 H2 1_555 1_555
O3 C1 1_555 1_555
O4 C1 1_555 1_555
O7 C41 1_555 1_555
O8 C41 1_555 1_555
O11 Zn1 1_555 1_555
C1 C2 1_555 1_555
C2 C3 1_555 1_555
C3 H3 1_555 1_555
C4 C3 1_555 1_555
H4 C4 1_555 1_555
C5 C4 1_555 1_555
C6 C5 1_555 1_555
H5 C6 1_555 1_555
C7 C2 1_555 1_555
H6 C7 1_555 1_555
C8 C5 1_555 1_555
C9 C8 1_555 1_555
H7 C9 1_555 1_555
C16 C15 1_555 1_555
H9 C16 1_555 1_555
C17 C8 1_555 1_555
H10 C17 1_555 1_555
C25 O2 1_555 1_555
C26 C25 1_555 1_555
H15 C26 1_555 1_555
C27 C26 1_555 1_555
C28 C27 1_555 1_555
C29 C28 1_555 1_555
H16 C29 1_555 1_555
C30 C29 1_555 1_555
C34 C24 1_555 1_555
C35 C27 1_555 1_555
C36 C35 1_555 1_555
H19 C36 1_555 1_555
C37 C36 1_555 1_555
H20 C37 1_555 1_555
C38 C37 1_555 1_555
C39 C38 1_555 1_555
H21 C39 1_555 1_555
C40 C35 1_555 1_555
H22 C40 1_555 1_555
C41 C38 1_555 1_555
C42 H23 1_555 1_555
C44 C42 1_555 1_555
H24 C44 1_555 1_555
O12 Zn2 1_555 1_555
N1 C49 1_555 1_555
C49 H27 1_555 1_555
H28 C49 1_555 1_555
H29 C49 1_555 1_555
C50 N1 1_555 1_555
H30 C50 1_555 1_555
H31 C50 1_555 1_555
H32 C50 1_555 1_555
C51 O12 1_555 1_555
H33 C51 1_555 1_555
Zn4 O7 1_555 1_555
Zn6 O8 1_555 1_555
Zn7 O9 1_555 1_555
O13 Zn1 1_555 1_555
O14 Zn1 1_555 1_555
O15 Zn2 1_555 1_555
O16 Zn2 1_555 1_555
O17 Zn1 1_555 1_555
C6 C7 1_555 1_555
C16 C17 1_555 1_555
C24 C25 1_555 1_555
C28 C34 1_555 1_555
C39 C40 1_555 1_555
N1 C51 1_555 1_555
O11 H34 1_555 1_555
O11 H35 1_555 1_555
O1 H1 1_555 1_555
O5 C32 1_555 1_555
O13 C32 1_555 1_555
O10 C48 1_555 1_555
C11 C10 1_555 1_555
C12 C11 1_555 1_555
H8 C12 1_555 1_555
C13 O1 1_555 1_555
C14 C13 1_555 1_555
C18 C11 1_555 1_555
C19 C18 1_555 1_555
H11 C19 1_555 1_555
C20 C19 1_555 1_555
H12 C20 1_555 1_555
C21 C20 1_555 1_555
C22 C21 1_555 1_555
H13 C22 1_555 1_555
C23 C18 1_555 1_555
H14 C23 1_555 1_555
H17 C31 1_555 1_555
C32 C21 1_555 1_555
C33 C31 1_555 1_555
H18 C33 1_555 1_555
C46 C45 1_555 1_555
H25 C46 1_555 1_555
C47 C43 1_555 1_555
H26 C47 1_555 1_555
C48 C45 1_555 1_555
Zn5 O10 1_555 1_555
C12 C13 1_555 1_555
C22 C23 1_555 1_555
C46 C47 1_555 1_555
Zn7 O3_2 1_555 1_555
O1_2 H1_2 1_555 1_555
O2_2 H2_2 1_555 1_555
O3_2 C1_2 1_555 1_555
O4_2 C1_2 1_555 1_555
O5_2 C32_2 1_555 1_555
O6 C32_2 1_555 1_555
O7_2 C41_2 1_555 1_555
O8_2 C41_2 1_555 1_555
C1_2 C2_2 1_555 1_555
C2_2 C3_2 1_555 1_555
C3_2 H3_2 1_555 1_555
C4_2 C3_2 1_555 1_555
H4_2 C4_2 1_555 1_555
C5_2 C4_2 1_555 1_555
C6_2 C5_2 1_555 1_555
H5_2 C6_2 1_555 1_555
C7_2 C2_2 1_555 1_555
H6_2 C7_2 1_555 1_555
C8_2 C5_2 1_555 1_555
C9_2 C8_2 1_555 1_555
H7_2 C9_2 1_555 1_555
C10_2 C9_2 1_555 1_555
C11_2 C10_2 1_555 1_555
C12_2 C11_2 1_555 1_555
H8_2 C12_2 1_555 1_555
C13_2 O1_2 1_555 1_555
C14_2 C13_2 1_555 1_555
C15_2 C10_2 1_555 1_555
C16_2 C15_2 1_555 1_555
H9_2 C16_2 1_555 1_555
C17_2 C8_2 1_555 1_555
H10_2 C17_2 1_555 1_555
C18_2 C11_2 1_555 1_555
C19_2 C18_2 1_555 1_555
H11_2 C19_2 1_555 1_555
C20_2 C19_2 1_555 1_555
H12_2 C20_2 1_555 1_555
C21_2 C20_2 1_555 1_555
C22_2 C21_2 1_555 1_555
H13_2 C22_2 1_555 1_555
C23_2 C18_2 1_555 1_555
H14_2 C23_2 1_555 1_555
C24_2 C14_2 1_555 1_555
C25_2 O2_2 1_555 1_555
C26_2 C25_2 1_555 1_555
H15_2 C26_2 1_555 1_555
C27_2 C26_2 1_555 1_555
C28_2 C27_2 1_555 1_555
C29_2 C28_2 1_555 1_555
H16_2 C29_2 1_555 1_555
C30_2 C29_2 1_555 1_555
C31_2 C30_2 1_555 1_555
H17_2 C31_2 1_555 1_555
C32_2 C21_2 1_555 1_555
C33_2 C31_2 1_555 1_555
H18_2 C33_2 1_555 1_555
C34_2 C24_2 1_555 1_555
C35_2 C27_2 1_555 1_555
C36_2 C35_2 1_555 1_555
H19_2 C36_2 1_555 1_555
C37_2 C36_2 1_555 1_555
H20_2 C37_2 1_555 1_555
C38_2 C37_2 1_555 1_555
C39_2 C38_2 1_555 1_555
H21_2 C39_2 1_555 1_555
C40_2 C35_2 1_555 1_555
H22_2 C40_2 1_555 1_555
C41_2 C38_2 1_555 1_555
C42_2 H23_2 1_555 1_555
C43_2 C30_2 1_555 1_555
C44_2 C42_2 1_555 1_555
H24_2 C44_2 1_555 1_555
C45_2 C44_2 1_555 1_555
C46_2 C45_2 1_555 1_555
H25_2 C46_2 1_555 1_555
C47_2 C43_2 1_555 1_555
H26_2 C47_2 1_555 1_555
O12_2 Zn7 1_555 1_555
N1_2 C49_2 1_555 1_555
C49_2 H27_2 1_555 1_555
H28_2 C49_2 1_555 1_555
H29_2 C49_2 1_555 1_555
C50_2 N1_2 1_555 1_555
H30_2 C50_2 1_555 1_555
H31_2 C50_2 1_555 1_555
H32_2 C50_2 1_555 1_555
C51_2 O12_2 1_555 1_555
H33_2 C51_2 1_555 1_555
Zn5 O6 1_555 1_555
Zn4_2 O7_2 1_555 1_555
C6_2 C7_2 1_555 1_555
C12_2 C13_2 1_555 1_555
C14_2 C15_2 1_555 1_555
C16_2 C17_2 1_555 1_555
C22_2 C23_2 1_555 1_555
C24_2 C25_2 1_555 1_555
C28_2 C34_2 1_555 1_555
C33_2 C34_2 1_555 1_555
C39_2 C40_2 1_555 1_555
C42_2 C43_2 1_555 1_555
C46_2 C47_2 1_555 1_555
N1_2 C51_2 1_555 1_555
O16 C48_2 1_555 1_555
O17 C48_2 1_555 1_555
O11_2 Zn5 1_555 1_555
O14_2 Zn5 1_555 1_555
O11_2 H34_2 1_555 1_555
O11_2 H35_2 1_555 1_555
Zn4 O6_2 1_555 1_555
O10_2 C48_3 1_555 1_555
Zn4_2 O10_2 1_555 1_555
Zn4 O4_3 1_555 1_555
Zn6 O3_3 1_555 1_555
O3_3 C1_3 1_555 1_555
O4_3 C1_3 1_555 1_555
C1_3 C2_3 1_555 1_555
C2_3 C3_3 1_555 1_555
C3_3 H3_3 1_555 1_555
C4_3 C3_3 1_555 1_555
H4_3 C4_3 1_555 1_555
O12_3 Zn6 1_555 1_555
N1_3 C49_3 1_555 1_555
C49_3 H27_3 1_555 1_555
H28_3 C49_3 1_555 1_555
H29_3 C49_3 1_555 1_555
C50_3 N1_3 1_555 1_555
H30_3 C50_3 1_555 1_555
H31_3 C50_3 1_555 1_555
H32_3 C50_3 1_555 1_555
C51_3 O12_3 1_555 1_555
H33_3 C51_3 1_555 1_555
O16_2 Zn6 1_555 1_555
O17_2 Zn4 1_555 1_555
N1_3 C51_3 1_555 1_555
Zn6_2 O9_2 1_555 1_555
O2_3 H2_3 1_555 1_555
O14 C41_3 1_555 1_555
O15 C41_3 1_555 1_555
C6_3 C5_3 1_555 1_555
H5_3 C6_3 1_555 1_555
H6_3 C7_3 1_555 1_555
C8_3 C5_3 1_555 1_555
C9_3 C8_3 1_555 1_555
H7_3 C9_3 1_555 1_555
C16_3 C15_3 1_555 1_555
H9_3 C16_3 1_555 1_555
C17_3 C8_3 1_555 1_555
H10_3 C17_3 1_555 1_555
C25_3 O2_3 1_555 1_555
C26_3 C25_3 1_555 1_555
H15_3 C26_3 1_555 1_555
C27_3 C26_3 1_555 1_555
C28_3 C27_3 1_555 1_555
C29_3 C28_3 1_555 1_555
H16_3 C29_3 1_555 1_555
C30_3 C29_3 1_555 1_555
C34_3 C24_3 1_555 1_555
C35_3 C27_3 1_555 1_555
C36_3 C35_3 1_555 1_555
H19_3 C36_3 1_555 1_555
C37_3 C36_3 1_555 1_555
H20_3 C37_3 1_555 1_555
C38_3 C37_3 1_555 1_555
C39_3 C38_3 1_555 1_555
H21_3 C39_3 1_555 1_555
C40_3 C35_3 1_555 1_555
H22_3 C40_3 1_555 1_555
C41_3 C38_3 1_555 1_555
C42_3 H23_3 1_555 1_555
C44_3 C42_3 1_555 1_555
H24_3 C44_3 1_555 1_555
C6_3 C7_3 1_555 1_555
C16_3 C17_3 1_555 1_555
C24_3 C25_3 1_555 1_555
C28_3 C34_3 1_555 1_555
C39_3 C40_3 1_555 1_555
O11_3 H34_3 1_555 1_555
O11_3 H35_3 1_555 1_555
O11_4 H34_4 1_555 1_555
O11_4 H35_4 1_555 1_555
O13_2 Zn4_2 1_555 1_555
O1_3 H1_3 1_555 1_555
O2_4 H2_4 1_555 1_555
O5_3 C32_3 1_555 1_555
O14_2 C41_4 1_555 1_555
O15_2 C41_4 1_555 1_555
O16_2 C48_4 1_555 1_555
O17_2 C48_4 1_555 1_555
C6_4 C5_4 1_555 1_555
H5_4 C6_4 1_555 1_555
H6_4 C7_4 1_555 1_555
C8_4 C5_4 1_555 1_555
C9_4 C8_4 1_555 1_555
H7_4 C9_4 1_555 1_555
C10_3 C9_4 1_555 1_555
C11_3 C10_3 1_555 1_555
C12_3 C11_3 1_555 1_555
H8_3 C12_3 1_555 1_555
C13_3 O1_3 1_555 1_555
C14_3 C13_3 1_555 1_555
C15_4 C10_3 1_555 1_555
C16_4 C15_4 1_555 1_555
H9_4 C16_4 1_555 1_555
C17_4 C8_4 1_555 1_555
H10_4 C17_4 1_555 1_555
C18_3 C11_3 1_555 1_555
C19_3 C18_3 1_555 1_555
H11_3 C19_3 1_555 1_555
C20_3 C19_3 1_555 1_555
H12_3 C20_3 1_555 1_555
C21_3 C20_3 1_555 1_555
C22_3 C21_3 1_555 1_555
C23_3 C18_3 1_555 1_555
C24_4 C14_3 1_555 1_555
C25_4 O2_4 1_555 1_555
C26_4 C25_4 1_555 1_555
H15_4 C26_4 1_555 1_555
C27_4 C26_4 1_555 1_555
C28_4 C27_4 1_555 1_555
C29_4 C28_4 1_555 1_555
H16_4 C29_4 1_555 1_555
C30_4 C29_4 1_555 1_555
C31_3 C30_4 1_555 1_555
H17_3 C31_3 1_555 1_555
C32_3 C21_3 1_555 1_555
C33_3 C31_3 1_555 1_555
H18_3 C33_3 1_555 1_555
C34_4 C24_4 1_555 1_555
C35_4 C27_4 1_555 1_555
C36_4 C35_4 1_555 1_555
H19_4 C36_4 1_555 1_555
C37_4 C36_4 1_555 1_555
H20_4 C37_4 1_555 1_555
C38_4 C37_4 1_555 1_555
C39_4 C38_4 1_555 1_555
H21_4 C39_4 1_555 1_555
C40_4 C35_4 1_555 1_555
H22_4 C40_4 1_555 1_555
C41_4 C38_4 1_555 1_555
C42_4 H23_4 1_555 1_555
C43_3 C30_4 1_555 1_555
C44_4 C42_4 1_555 1_555
H24_4 C44_4 1_555 1_555
C45_3 C44_4 1_555 1_555
C46_3 C45_3 1_555 1_555
H25_3 C46_3 1_555 1_555
C47_3 C43_3 1_555 1_555
H26_3 C47_3 1_555 1_555
C48_4 C45_3 1_555 1_555
C6_4 C7_4 1_555 1_555
C12_3 C13_3 1_555 1_555
C14_3 C15_4 1_555 1_555
C16_4 C17_4 1_555 1_555
C22_3 C23_3 1_555 1_555
C24_4 C25_4 1_555 1_555
C28_4 C34_4 1_555 1_555
C33_3 C34_4 1_555 1_555
C39_4 C40_4 1_555 1_555
C42_4 C43_3 1_555 1_555
C46_3 C47_3 1_555 1_555
Zn6_2 O3_4 1_555 1_555
O3_4 C1_4 1_555 1_555
O4_4 C1_4 1_555 1_555
C1_4 C2_4 1_555 1_555
C2_4 C3_4 1_555 1_555
C3_4 H3_4 1_555 1_555
C4_4 C3_4 1_555 1_555
H4_4 C4_4 1_555 1_555
O12_4 Zn6_2 1_555 1_555
N1_4 C49_4 1_555 1_555
C49_4 H27_4 1_555 1_555
H28_4 C49_4 1_555 1_555
H29_4 C49_4 1_555 1_555
C50_4 N1_4 1_555 1_555
H30_4 C50_4 1_555 1_555
H31_4 C50_4 1_555 1_555
H32_4 C50_4 1_555 1_555
C51_4 O12_4 1_555 1_555
H33_4 C51_4 1_555 1_555
N1_4 C51_4 1_555 1_555
O1_4 H1_4 1_555 1_555
O5_4 C32_4 1_555 1_555
C11_4 C10_4 1_555 1_555
C12_4 C11_4 1_555 1_555
H8_4 C12_4 1_555 1_555
C13_4 O1_4 1_555 1_555
C14_4 C13_4 1_555 1_555
C18_4 C11_4 1_555 1_555
C19_4 C18_4 1_555 1_555
H11_4 C19_4 1_555 1_555
C20_4 C19_4 1_555 1_555
H12_4 C20_4 1_555 1_555
C21_4 C20_4 1_555 1_555
C22_4 C21_4 1_555 1_555
C23_4 C18_4 1_555 1_555
H17_4 C31_4 1_555 1_555
C32_4 C21_4 1_555 1_555
C33_4 C31_4 1_555 1_555
H18_4 C33_4 1_555 1_555
C46_4 C45_4 1_555 1_555
H25_4 C46_4 1_555 1_555
C47_4 C43_4 1_555 1_555
H26_4 C47_4 1_555 1_555
C12_4 C13_4 1_555 1_555
C22_4 C23_4 1_555 1_555
C46_4 C47_4 1_555 1_555
O13_3 Zn1_2 1_555 1_555
O14_3 Zn1_2 1_555 1_555
O17_3 Zn1_2 1_555 1_555
O11_5 H34_5 1_555 1_555
O11_5 H35_5 1_555 1_555
Zn2_2 O3_5 1_555 1_555
O3_5 C1_5 1_555 1_555
O4_5 C1_5 1_555 1_555
C1_5 C2_5 1_555 1_555
C2_5 C3_5 1_555 1_555
C3_5 H3_5 1_555 1_555
C4_5 C3_5 1_555 1_555
H4_5 C4_5 1_555 1_555
O12_5 Zn2_2 1_555 1_555
N1_5 C49_5 1_555 1_555
C49_5 H27_5 1_555 1_555
H28_5 C49_5 1_555 1_555
H29_5 C49_5 1_555 1_555
C50_5 N1_5 1_555 1_555
H30_5 C50_5 1_555 1_555
H31_5 C50_5 1_555 1_555
H32_5 C50_5 1_555 1_555
C51_5 O12_5 1_555 1_555
H33_5 C51_5 1_555 1_555
O16_3 Zn2_2 1_555 1_555
N1_5 C51_5 1_555 1_555
O1_5 H1_5 1_555 1_555
O2_5 H2_5 1_555 1_555
O5_5 C32_5 1_555 1_555
O7_3 C41_5 1_555 1_555
O8_3 C41_5 1_555 1_555
C6_5 C5_5 1_555 1_555
H5_5 C6_5 1_555 1_555
H6_5 C7_5 1_555 1_555
C8_5 C5_5 1_555 1_555
C9_5 C8_5 1_555 1_555
H7_5 C9_5 1_555 1_555
C10_5 C9_5 1_555 1_555
C11_5 C10_5 1_555 1_555
C12_5 C11_5 1_555 1_555
H8_5 C12_5 1_555 1_555
C13_5 O1_5 1_555 1_555
C14_5 C13_5 1_555 1_555
C15_5 C10_5 1_555 1_555
C16_5 C15_5 1_555 1_555
H9_5 C16_5 1_555 1_555
C17_5 C8_5 1_555 1_555
H10_5 C17_5 1_555 1_555
C18_5 C11_5 1_555 1_555
C19_5 C18_5 1_555 1_555
H11_5 C19_5 1_555 1_555
C20_5 C19_5 1_555 1_555
H12_5 C20_5 1_555 1_555
C21_5 C20_5 1_555 1_555
C22_5 C21_5 1_555 1_555
C23_5 C18_5 1_555 1_555
C24_5 C14_5 1_555 1_555
C25_5 O2_5 1_555 1_555
C26_5 C25_5 1_555 1_555
H15_5 C26_5 1_555 1_555
C27_5 C26_5 1_555 1_555
C28_5 C27_5 1_555 1_555
C29_5 C28_5 1_555 1_555
H16_5 C29_5 1_555 1_555
C30_5 C29_5 1_555 1_555
C31_5 C30_5 1_555 1_555
H17_5 C31_5 1_555 1_555
C32_5 C21_5 1_555 1_555
C33_5 C31_5 1_555 1_555
H18_5 C33_5 1_555 1_555
C34_5 C24_5 1_555 1_555
C35_5 C27_5 1_555 1_555
C36_5 C35_5 1_555 1_555
H19_5 C36_5 1_555 1_555
C37_5 C36_5 1_555 1_555
H20_5 C37_5 1_555 1_555
C38_5 C37_5 1_555 1_555
C39_5 C38_5 1_555 1_555
H21_5 C39_5 1_555 1_555
C40_5 C35_5 1_555 1_555
H22_5 C40_5 1_555 1_555
C41_5 C38_5 1_555 1_555
C42_5 H23_5 1_555 1_555
C43_5 C30_5 1_555 1_555
C44_5 C42_5 1_555 1_555
H24_5 C44_5 1_555 1_555
C45_5 C44_5 1_555 1_555
C46_5 C45_5 1_555 1_555
H25_5 C46_5 1_555 1_555
C47_5 C43_5 1_555 1_555
H26_5 C47_5 1_555 1_555
Zn4_3 O7_3 1_555 1_555
C6_5 C7_5 1_555 1_555
C12_5 C13_5 1_555 1_555
C14_5 C15_5 1_555 1_555
C16_5 C17_5 1_555 1_555
C22_5 C23_5 1_555 1_555
C24_5 C25_5 1_555 1_555
C28_5 C34_5 1_555 1_555
C33_5 C34_5 1_555 1_555
C39_5 C40_5 1_555 1_555
C42_5 C43_5 1_555 1_555
C46_5 C47_5 1_555 1_555
O9_3 C48_5 1_555 1_555
O10_3 C48_5 1_555 1_555
Zn5_2 O10_3 1_555 1_555
Zn7_2 O9_3 1_555 1_555
O1_6 H1_6 1_555 1_555
O5_6 C32_6 1_555 1_555
O17_3 C48_6 1_555 1_555
C11_6 C10_6 1_555 1_555
C12_6 C11_6 1_555 1_555
H8_6 C12_6 1_555 1_555
C13_6 O1_6 1_555 1_555
C14_6 C13_6 1_555 1_555
C18_6 C11_6 1_555 1_555
C19_6 C18_6 1_555 1_555
H11_6 C19_6 1_555 1_555
C20_6 C19_6 1_555 1_555
H12_6 C20_6 1_555 1_555
C21_6 C20_6 1_555 1_555
C22_6 C21_6 1_555 1_555
C23_6 C18_6 1_555 1_555
H17_6 C31_6 1_555 1_555
C32_6 C21_6 1_555 1_555
C33_6 C31_6 1_555 1_555
H18_6 C33_6 1_555 1_555
C46_6 C45_6 1_555 1_555
H25_6 C46_6 1_555 1_555
C47_6 C43_6 1_555 1_555
H26_6 C47_6 1_555 1_555
C48_6 C45_6 1_555 1_555
C12_6 C13_6 1_555 1_555
C22_6 C23_6 1_555 1_555
C46_6 C47_6 1_555 1_555
Zn5_2 O6_3 1_555 1_555
O2_6 H2_6 1_555 1_555
O7_4 C41_6 1_555 1_555
O8_4 C41_6 1_555 1_555
C6_6 C5_6 1_555 1_555
H5_6 C6_6 1_555 1_555
H6_6 C7_6 1_555 1_555
C8_6 C5_6 1_555 1_555
C9_6 C8_6 1_555 1_555
H7_6 C9_6 1_555 1_555
C16_6 C15_6 1_555 1_555
H9_6 C16_6 1_555 1_555
C17_6 C8_6 1_555 1_555
H10_6 C17_6 1_555 1_555
C25_6 O2_6 1_555 1_555
C26_6 C25_6 1_555 1_555
H15_6 C26_6 1_555 1_555
C27_6 C26_6 1_555 1_555
C28_6 C27_6 1_555 1_555
C29_6 C28_6 1_555 1_555
H16_6 C29_6 1_555 1_555
C30_6 C29_6 1_555 1_555
C34_6 C24_6 1_555 1_555
C35_6 C27_6 1_555 1_555
C36_6 C35_6 1_555 1_555
H19_6 C36_6 1_555 1_555
C37_6 C36_6 1_555 1_555
H20_6 C37_6 1_555 1_555
C38_6 C37_6 1_555 1_555
C39_6 C38_6 1_555 1_555
H21_6 C39_6 1_555 1_555
C40_6 C35_6 1_555 1_555
H22_6 C40_6 1_555 1_555
C41_6 C38_6 1_555 1_555
C42_6 H23_6 1_555 1_555
C44_6 C42_6 1_555 1_555
H24_6 C44_6 1_555 1_555
Zn4_4 O7_4 1_555 1_555
Zn6_4 O8_4 1_555 1_555
C6_6 C7_6 1_555 1_555
C16_6 C17_6 1_555 1_555
C24_6 C25_6 1_555 1_555
C28_6 C34_6 1_555 1_555
C39_6 C40_6 1_555 1_555
O11_6 H34_6 1_555 1_555
O11_6 H35_6 1_555 1_555
Zn5_2 O4_6 1_555 1_555
Zn7_2 O3_6 1_555 1_555
O3_6 C1_6 1_555 1_555
O4_6 C1_6 1_555 1_555
C1_6 C2_6 1_555 1_555
C2_6 C3_6 1_555 1_555
C3_6 H3_6 1_555 1_555
C4_6 C3_6 1_555 1_555
H4_6 C4_6 1_555 1_555
O12_6 Zn7_2 1_555 1_555
N1_6 C49_6 1_555 1_555
C49_6 H27_6 1_555 1_555
H28_6 C49_6 1_555 1_555
H29_6 C49_6 1_555 1_555
C50_6 N1_6 1_555 1_555
H30_6 C50_6 1_555 1_555
H31_6 C50_6 1_555 1_555
H32_6 C50_6 1_555 1_555
C51_6 O12_6 1_555 1_555
H33_6 C51_6 1_555 1_555
O14_4 Zn5_2 1_555 1_555
O15_4 Zn7_2 1_555 1_555
N1_6 C51_6 1_555 1_555
Zn6_3 O3_7 1_555 1_555
O1_7 H1_7 1_555 1_555
O2_7 H2_7 1_555 1_555
O3_7 C1_7 1_555 1_555
O4_7 C1_7 1_555 1_555
O5_7 C32_7 1_555 1_555
O6_4 C32_7 1_555 1_555
O14_3 C41_7 1_555 1_555
O15_3 C41_7 1_555 1_555
O9_4 C48_7 1_555 1_555
O10_4 C48_7 1_555 1_555
C1_7 C2_7 1_555 1_555
C2_7 C3_7 1_555 1_555
C3_7 H3_7 1_555 1_555
C4_7 C3_7 1_555 1_555
H4_7 C4_7 1_555 1_555
C5_7 C4_7 1_555 1_555
C6_7 C5_7 1_555 1_555
H5_7 C6_7 1_555 1_555
C7_7 C2_7 1_555 1_555
H6_7 C7_7 1_555 1_555
C8_7 C5_7 1_555 1_555
C9_7 C8_7 1_555 1_555
H7_7 C9_7 1_555 1_555
C10_7 C9_7 1_555 1_555
C11_7 C10_7 1_555 1_555
C12_7 C11_7 1_555 1_555
H8_7 C12_7 1_555 1_555
C13_7 O1_7 1_555 1_555
C14_7 C13_7 1_555 1_555
C15_7 C10_7 1_555 1_555
C16_7 C15_7 1_555 1_555
H9_7 C16_7 1_555 1_555
C17_7 C8_7 1_555 1_555
H10_7 C17_7 1_555 1_555
C18_7 C11_7 1_555 1_555
C19_7 C18_7 1_555 1_555
H11_7 C19_7 1_555 1_555
C20_7 C19_7 1_555 1_555
H12_7 C20_7 1_555 1_555
C21_7 C20_7 1_555 1_555
C22_7 C21_7 1_555 1_555
H13_7 C22_7 1_555 1_555
C23_7 C18_7 1_555 1_555
H14_7 C23_7 1_555 1_555
C24_7 C14_7 1_555 1_555
C25_7 O2_7 1_555 1_555
C26_7 C25_7 1_555 1_555
H15_7 C26_7 1_555 1_555
C27_7 C26_7 1_555 1_555
C28_7 C27_7 1_555 1_555
C29_7 C28_7 1_555 1_555
H16_7 C29_7 1_555 1_555
C30_7 C29_7 1_555 1_555
C31_7 C30_7 1_555 1_555
H17_7 C31_7 1_555 1_555
C32_7 C21_7 1_555 1_555
C33_7 C31_7 1_555 1_555
H18_7 C33_7 1_555 1_555
C34_7 C24_7 1_555 1_555
C35_7 C27_7 1_555 1_555
C36_7 C35_7 1_555 1_555
H19_7 C36_7 1_555 1_555
C37_7 C36_7 1_555 1_555
H20_7 C37_7 1_555 1_555
C38_7 C37_7 1_555 1_555
C39_7 C38_7 1_555 1_555
H21_7 C39_7 1_555 1_555
C40_7 C35_7 1_555 1_555
H22_7 C40_7 1_555 1_555
C41_7 C38_7 1_555 1_555
C42_7 H23_7 1_555 1_555
C43_7 C30_7 1_555 1_555
C44_7 C42_7 1_555 1_555
H24_7 C44_7 1_555 1_555
C45_7 C44_7 1_555 1_555
C46_7 C45_7 1_555 1_555
H25_7 C46_7 1_555 1_555
C47_7 C43_7 1_555 1_555
H26_7 C47_7 1_555 1_555
C48_7 C45_7 1_555 1_555
O12_7 Zn6_3 1_555 1_555
N1_7 C49_7 1_555 1_555
C49_7 H27_7 1_555 1_555
H28_7 C49_7 1_555 1_555
H29_7 C49_7 1_555 1_555
C50_7 N1_7 1_555 1_555
H30_7 C50_7 1_555 1_555
H31_7 C50_7 1_555 1_555
H32_7 C50_7 1_555 1_555
C51_7 O12_7 1_555 1_555
H33_7 C51_7 1_555 1_555
Zn4_3 O6_4 1_555 1_555
Zn4_4 O10_4 1_555 1_555
Zn6_4 O9_4 1_555 1_555
O16_4 Zn6_3 1_555 1_555
C6_7 C7_7 1_555 1_555
C12_7 C13_7 1_555 1_555
C14_7 C15_7 1_555 1_555
C16_7 C17_7 1_555 1_555
C22_7 C23_7 1_555 1_555
C24_7 C25_7 1_555 1_555
C28_7 C34_7 1_555 1_555
C33_7 C34_7 1_555 1_555
C39_7 C40_7 1_555 1_555
C42_7 C43_7 1_555 1_555
C46_7 C47_7 1_555 1_555
N1_7 C51_7 1_555 1_555
O11_7 Zn4_3 1_555 1_555
O17_4 Zn4_3 1_555 1_555
O11_7 H34_7 1_555 1_555
O11_7 H35_7 1_555 1_555
Zn4_4 O4_8 1_555 1_555
Zn6_4 O3_8 1_555 1_555
O2_8 H2_8 1_555 1_555
O3_8 C1_8 1_555 1_555
O4_8 C1_8 1_555 1_555
O14_4 C41_8 1_555 1_555
O15_4 C41_8 1_555 1_555
O11_8 Zn4_4 1_555 1_555
C1_8 C2_8 1_555 1_555
C2_8 C3_8 1_555 1_555
C3_8 H3_8 1_555 1_555
C4_8 C3_8 1_555 1_555
H4_8 C4_8 1_555 1_555
C5_8 C4_8 1_555 1_555
C6_8 C5_8 1_555 1_555
H5_8 C6_8 1_555 1_555
C7_8 C2_8 1_555 1_555
H6_8 C7_8 1_555 1_555
C8_8 C5_8 1_555 1_555
C9_8 C8_8 1_555 1_555
H7_8 C9_8 1_555 1_555
C16_8 C15_8 1_555 1_555
H9_8 C16_8 1_555 1_555
C17_8 C8_8 1_555 1_555
H10_8 C17_8 1_555 1_555
C25_8 O2_8 1_555 1_555
C26_8 C25_8 1_555 1_555
H15_8 C26_8 1_555 1_555
C27_8 C26_8 1_555 1_555
C28_8 C27_8 1_555 1_555
C29_8 C28_8 1_555 1_555
H16_8 C29_8 1_555 1_555
C30_8 C29_8 1_555 1_555
C34_8 C24_8 1_555 1_555
C35_8 C27_8 1_555 1_555
C36_8 C35_8 1_555 1_555
H19_8 C36_8 1_555 1_555
C37_8 C36_8 1_555 1_555
H20_8 C37_8 1_555 1_555
C38_8 C37_8 1_555 1_555
C39_8 C38_8 1_555 1_555
H21_8 C39_8 1_555 1_555
C40_8 C35_8 1_555 1_555
H22_8 C40_8 1_555 1_555
C41_8 C38_8 1_555 1_555
C42_8 H23_8 1_555 1_555
C44_8 C42_8 1_555 1_555
H24_8 C44_8 1_555 1_555
O12_8 Zn6_4 1_555 1_555
N1_8 C49_8 1_555 1_555
C49_8 H27_8 1_555 1_555
H28_8 C49_8 1_555 1_555
H29_8 C49_8 1_555 1_555
C50_8 N1_8 1_555 1_555
H30_8 C50_8 1_555 1_555
H31_8 C50_8 1_555 1_555
H32_8 C50_8 1_555 1_555
C51_8 O12_8 1_555 1_555
H33_8 C51_8 1_555 1_555
O13_4 Zn4_4 1_555 1_555
C6_8 C7_8 1_555 1_555
C16_8 C17_8 1_555 1_555
C24_8 C25_8 1_555 1_555
C28_8 C34_8 1_555 1_555
C39_8 C40_8 1_555 1_555
N1_8 C51_8 1_555 1_555
O11_8 H34_8 1_555 1_555
O11_8 H35_8 1_555 1_555
O17_4 C48_8 1_555 1_555
O1_8 H1_8 1_555 1_555
O5_8 C32_8 1_555 1_555
O13_4 C32_8 1_555 1_555
C11_8 C10_8 1_555 1_555
C12_8 C11_8 1_555 1_555
H8_8 C12_8 1_555 1_555
C13_8 O1_8 1_555 1_555
C14_8 C13_8 1_555 1_555
C18_8 C11_8 1_555 1_555
C19_8 C18_8 1_555 1_555
H11_8 C19_8 1_555 1_555
C20_8 C19_8 1_555 1_555
H12_8 C20_8 1_555 1_555
C21_8 C20_8 1_555 1_555
C22_8 C21_8 1_555 1_555
H13_8 C22_8 1_555 1_555
C23_8 C18_8 1_555 1_555
H14_8 C23_8 1_555 1_555
H17_8 C31_8 1_555 1_555
C32_8 C21_8 1_555 1_555
C33_8 C31_8 1_555 1_555
H18_8 C33_8 1_555 1_555
C46_8 C45_8 1_555 1_555
H25_8 C46_8 1_555 1_555
C47_8 C43_8 1_555 1_555
H26_8 C47_8 1_555 1_555
C12_8 C13_8 1_555 1_555
C22_8 C23_8 1_555 1_555
C46_8 C47_8 1_555 1_555

#END
