
###############################################################################
#
# This file contains modified crystal structure data generated from the
# MOF subset of the Cambridge Structural Database (CSD) v543 
# hosted by the Cambridge Crystallographic Data Centre (CCDC).
#
# This work is licensed under the Creative Commons
# Attribution-NonCommercial-ShareAlike 4.0 International License.
# To view a copy of this license, visit
# http://creativecommons.org/licenses/by-nc-sa/4.0/
# or send a letter to
# Creative Commons, PO Box 1866, Mountain View, CA 94042, USA.
#
# CIF created using the CSD Python API on 29 September 2022
# The structure has been converted into the P1 space group
# The structure has a 3D framework
# The original CSD entry TAFBIN is in the tetragonal crystal system
# The framework has been calculated to contain at least 10.0% void space
# The void calculation uses a probe of radius 1.32A, grid spacing 0.4
#
###############################################################################

data_TAFBIN
_chemical_formula_moiety         '(C192 H192 Cd16 N64 O64)n'
_symmetry_cell_setting           triclinic
_symmetry_space_group_name_H-M   'P 1'
_symmetry_Int_Tables_number      1
_space_group_name_Hall           'P 1'
loop_
_symmetry_equiv_pos_site_id
_symmetry_equiv_pos_as_xyz
1 x,y,z
_cell_length_a                   16.0070(4)
_cell_length_b                   16.0070(4)
_cell_length_c                   24.1560(10)
_cell_angle_alpha                90
_cell_angle_beta                 90
_cell_angle_gamma                90
_cell_volume                     6189.35
loop_
_atom_site_label
_atom_site_type_symbol
_atom_site_fract_x
_atom_site_fract_y
_atom_site_fract_z
Cd1 Cd 0.175745(17) 0.374124(17) 0.090540(10)
N1 N 0.1601(2) 0.6333(2) 0.32132(12)
N2 N 0.1746(2) 0.63387(18) 0.23028(12)
O1 O 0.2776(2) 0.4743(2) 0.10947(17)
O2 O 0.1486(2) 0.5162(2) 0.11763(14)
C1 C 0.1829(2) 0.6783(2) 0.27777(14)
C2 C 0.1361(3) 0.5566(2) 0.30062(16)
H1 H 0.1176 0.5118 0.3218
C3 C 0.1435(3) 0.5567(2) 0.24500(16)
H2 H 0.1303 0.5131 0.2212
C4 C 0.1936(3) 0.6645(2) 0.17420(15)
H3 H 0.2146 0.7212 0.1768
H4 H 0.1423 0.6661 0.1529
C5 C 0.2568(3) 0.6117(2) 0.14357(16)
H5 H 0.3037 0.6012 0.1680
H6 H 0.2776 0.6436 0.1123
C6 C 0.2245(3) 0.5284(3) 0.12241(16)
N3 N 0.2885(2) 0.7772(2) 0.30974(13)
N4 N 0.1828(2) 0.8334(2) 0.26461(13)
C7 C 0.2182(2) 0.7619(2) 0.28289(15)
C8 C 0.2987(3) 0.8621(3) 0.3082(2)
H7 H 0.3430 0.8913 0.3239
C9 C 0.2340(3) 0.8971(3) 0.2802(2)
H8 H 0.2262 0.9536 0.2731
C10 C 0.1044(3) 0.8403(3) 0.23355(17)
H9 H 0.0855 0.7846 0.2239
H10 H 0.1152 0.8701 0.1993
C11 C 0.0359(3) 0.8842(3) 0.26425(18)
H11 H 0.0516 0.9419 0.2705
H12 H 0.0280 0.8579 0.3000
Cd2 Cd 0.125876(17) 0.675745(17) 0.409460(10)
Cd4 Cd 0.374124(17) 0.675745(17) 0.340540(10)
N5 N 0.1333(2) 0.3399(2) 0.17868(12)
O5 O 0.0431(2) 0.3488(2) 0.06548(14)
N6 N 0.2772(2) 0.2885(2) 0.05974(13)
O3 O 0.9569(2) 0.8488(2) 0.18452(14)
O4 O 0.8890(2) 0.9088(3) 0.25136(14)
C12 C 0.9541(3) 0.8810(3) 0.23157(18)
Cd3 Cd 0.824255(17) 0.874124(17) 0.159460(10)
O3_2 O 0.0431(2) 0.1512(2) 0.18452(14)
O4_2 O 0.1110(2) 0.0912(3) 0.25136(14)
C12_2 C 0.0459(3) 0.1190(3) 0.23157(18)
Cd3_2 Cd 0.175745(17) 0.125876(17) 0.159460(10)
Cd1_2 Cd 0.824255(17) 0.625876(17) 0.090540(10)
N1_2 N 0.8399(2) 0.3667(2) 0.32132(12)
N2_2 N 0.8254(2) 0.36613(18) 0.23028(12)
O1_2 O 0.7224(2) 0.5257(2) 0.10947(17)
O2_2 O 0.8514(2) 0.4838(2) 0.11763(14)
C1_2 C 0.8171(2) 0.3217(2) 0.27777(14)
C2_2 C 0.8639(3) 0.4434(2) 0.30062(16)
H1_2 H 0.8824 0.4882 0.3218
C3_2 C 0.8565(3) 0.4433(2) 0.24500(16)
H2_2 H 0.8697 0.4869 0.2212
C4_2 C 0.8064(3) 0.3355(2) 0.17420(15)
H3_2 H 0.7854 0.2788 0.1768
H4_2 H 0.8577 0.3339 0.1529
C5_2 C 0.7432(3) 0.3883(2) 0.14357(16)
H5_2 H 0.6963 0.3988 0.1680
H6_2 H 0.7224 0.3564 0.1123
C6_2 C 0.7755(3) 0.4716(3) 0.12241(16)
N3_2 N 0.7115(2) 0.2228(2) 0.30974(13)
N4_2 N 0.8172(2) 0.1666(2) 0.26461(13)
C7_2 C 0.7818(2) 0.2381(2) 0.28289(15)
C8_2 C 0.7013(3) 0.1379(3) 0.3082(2)
H7_2 H 0.6570 0.1087 0.3239
C9_2 C 0.7660(3) 0.1029(3) 0.2802(2)
H8_2 H 0.7738 0.0464 0.2731
C10_2 C 0.8956(3) 0.1597(3) 0.23355(17)
H9_2 H 0.9145 0.2154 0.2239
H10_2 H 0.8848 0.1299 0.1993
C11_2 C 0.9641(3) 0.1158(3) 0.26425(18)
H11_2 H 0.9484 0.0581 0.2705
H12_2 H 0.9720 0.1421 0.3000
Cd2_2 Cd 0.874124(17) 0.324255(17) 0.409460(10)
Cd4_2 Cd 0.625876(17) 0.324255(17) 0.340540(10)
N5_2 N 0.8667(2) 0.6601(2) 0.17868(12)
O5_2 O 0.9569(2) 0.6512(2) 0.06548(14)
N6_2 N 0.7228(2) 0.7115(2) 0.05974(13)
O3_3 O 0.8488(2) 0.0431(2) 0.81548(14)
O4_3 O 0.9088(3) 0.1110(2) 0.74864(14)
C12_3 C 0.8810(3) 0.0459(3) 0.76843(18)
Cd3_3 Cd 0.874124(17) 0.175745(17) 0.840540(10)
Cd1_3 Cd 0.374124(17) 0.824255(17) 0.909460(10)
N1_3 N 0.6333(2) 0.8399(2) 0.67868(12)
N2_3 N 0.63387(18) 0.8254(2) 0.76972(12)
O1_3 O 0.4743(2) 0.7224(2) 0.89053(17)
O2_3 O 0.5162(2) 0.8514(2) 0.88237(14)
C1_3 C 0.6783(2) 0.8171(2) 0.72223(14)
C2_3 C 0.5566(2) 0.8639(3) 0.69938(16)
H1_3 H 0.5118 0.8824 0.6782
C3_3 C 0.5567(2) 0.8565(3) 0.75500(16)
H2_3 H 0.5131 0.8697 0.7788
C4_3 C 0.6645(2) 0.8064(3) 0.82580(15)
H3_3 H 0.7212 0.7854 0.8232
H4_3 H 0.6661 0.8577 0.8471
C5_3 C 0.6117(2) 0.7432(3) 0.85643(16)
H5_3 H 0.6012 0.6963 0.8320
H6_3 H 0.6436 0.7224 0.8877
C6_3 C 0.5284(3) 0.7755(3) 0.87759(16)
N3_3 N 0.7772(2) 0.7115(2) 0.69026(13)
N4_3 N 0.8334(2) 0.8172(2) 0.73539(13)
C7_3 C 0.7619(2) 0.7818(2) 0.71711(15)
C8_3 C 0.8621(3) 0.7013(3) 0.6918(2)
H7_3 H 0.8913 0.6570 0.6761
C9_3 C 0.8971(3) 0.7660(3) 0.7198(2)
H8_3 H 0.9536 0.7738 0.7269
C10_3 C 0.8403(3) 0.8956(3) 0.76645(17)
H9_3 H 0.7846 0.9145 0.7761
H10_3 H 0.8701 0.8848 0.8007
C11_3 C 0.8842(3) 0.9641(3) 0.73575(18)
H11_3 H 0.9419 0.9484 0.7295
H12_3 H 0.8579 0.9720 0.7000
Cd2_3 Cd 0.675745(17) 0.874124(17) 0.590540(10)
Cd4_3 Cd 0.675745(17) 0.625876(17) 0.659460(10)
N5_3 N 0.3399(2) 0.8667(2) 0.82132(12)
O5_3 O 0.3488(2) 0.9569(2) 0.93452(14)
N6_3 N 0.2885(2) 0.7228(2) 0.94026(13)
Cd1_4 Cd 0.625876(17) 0.175745(17) 0.909460(10)
N1_4 N 0.3667(2) 0.1601(2) 0.67868(12)
N2_4 N 0.36613(18) 0.1746(2) 0.76972(12)
O1_4 O 0.5257(2) 0.2776(2) 0.89053(17)
O2_4 O 0.4838(2) 0.1486(2) 0.88237(14)
C1_4 C 0.3217(2) 0.1829(2) 0.72223(14)
C2_4 C 0.4434(2) 0.1361(3) 0.69938(16)
H1_4 H 0.4882 0.1176 0.6782
C3_4 C 0.4433(2) 0.1435(3) 0.75500(16)
H2_4 H 0.4869 0.1303 0.7788
C4_4 C 0.3355(2) 0.1936(3) 0.82580(15)
H3_4 H 0.2788 0.2146 0.8232
H4_4 H 0.3339 0.1423 0.8471
C5_4 C 0.3883(2) 0.2568(3) 0.85643(16)
H5_4 H 0.3988 0.3037 0.8320
H6_4 H 0.3564 0.2776 0.8877
C6_4 C 0.4716(3) 0.2245(3) 0.87759(16)
N3_4 N 0.2228(2) 0.2885(2) 0.69026(13)
N4_4 N 0.1666(2) 0.1828(2) 0.73539(13)
C7_4 C 0.2381(2) 0.2182(2) 0.71711(15)
C8_4 C 0.1379(3) 0.2987(3) 0.6918(2)
H7_4 H 0.1087 0.3430 0.6761
C9_4 C 0.1029(3) 0.2340(3) 0.7198(2)
H8_4 H 0.0464 0.2262 0.7269
C10_4 C 0.1597(3) 0.1044(3) 0.76645(17)
H9_4 H 0.2154 0.0855 0.7761
H10_4 H 0.1299 0.1152 0.8007
C11_4 C 0.1158(3) 0.0359(3) 0.73575(18)
H11_4 H 0.0581 0.0516 0.7295
H12_4 H 0.1421 0.0280 0.7000
Cd2_4 Cd 0.324255(17) 0.125876(17) 0.590540(10)
Cd4_4 Cd 0.324255(17) 0.374124(17) 0.659460(10)
N5_4 N 0.6601(2) 0.1333(2) 0.82132(12)
O5_4 O 0.6512(2) 0.0431(2) 0.93452(14)
N6_4 N 0.7115(2) 0.2772(2) 0.94026(13)
O3_4 O 0.1512(2) 0.9569(2) 0.81548(14)
O4_4 O 0.0912(3) 0.8890(2) 0.74864(14)
C12_4 C 0.1190(3) 0.9541(3) 0.76843(18)
Cd3_4 Cd 0.125876(17) 0.824255(17) 0.840540(10)
N1_5 N 0.3399(2) 0.6333(2) 0.42868(12)
N2_5 N 0.3254(2) 0.63387(18) 0.51972(12)
O1_5 O 0.2224(2) 0.4743(2) 0.64053(17)
O2_5 O 0.3514(2) 0.5162(2) 0.63237(14)
O3_5 O 0.5431(2) 0.8488(2) 0.56548(14)
O4_5 O 0.6110(2) 0.9088(3) 0.49864(14)
C1_5 C 0.3171(2) 0.6783(2) 0.47223(14)
C2_5 C 0.3639(3) 0.5566(2) 0.44938(16)
H1_5 H 0.3824 0.5118 0.4282
C3_5 C 0.3565(3) 0.5567(2) 0.50500(16)
H2_5 H 0.3697 0.5131 0.5288
C4_5 C 0.3064(3) 0.6645(2) 0.57580(15)
H3_5 H 0.2854 0.7212 0.5732
H4_5 H 0.3577 0.6661 0.5971
C5_5 C 0.2432(3) 0.6117(2) 0.60643(16)
H5_5 H 0.1963 0.6012 0.5820
H6_5 H 0.2224 0.6436 0.6377
C6_5 C 0.2755(3) 0.5284(3) 0.62759(16)
N3_5 N 0.2115(2) 0.7772(2) 0.44026(13)
N4_5 N 0.3172(2) 0.8334(2) 0.48539(13)
C7_5 C 0.2818(2) 0.7619(2) 0.46711(15)
C8_5 C 0.2013(3) 0.8621(3) 0.4418(2)
H7_5 H 0.1570 0.8913 0.4261
C9_5 C 0.2660(3) 0.8971(3) 0.4698(2)
H8_5 H 0.2738 0.9536 0.4769
C10_5 C 0.3956(3) 0.8403(3) 0.51645(17)
H9_5 H 0.4145 0.7846 0.5261
H10_5 H 0.3848 0.8701 0.5507
C11_5 C 0.4641(3) 0.8842(3) 0.48575(18)
H11_5 H 0.4484 0.9419 0.4795
H12_5 H 0.4720 0.8579 0.4500
C12_5 C 0.5459(3) 0.8810(3) 0.51843(18)
N5_5 N 0.3667(2) 0.3399(2) 0.57132(12)
O5_5 O 0.4569(2) 0.3488(2) 0.68452(14)
O6 O 0.3890(2) 0.4088(3) 0.75136(14)
N1_6 N 0.6601(2) 0.3667(2) 0.42868(12)
N2_6 N 0.6746(2) 0.36613(18) 0.51972(12)
O1_6 O 0.7776(2) 0.5257(2) 0.64053(17)
O2_6 O 0.6486(2) 0.4838(2) 0.63237(14)
O3_6 O 0.4569(2) 0.1512(2) 0.56548(14)
O4_6 O 0.3890(2) 0.0912(3) 0.49864(14)
C1_6 C 0.6829(2) 0.3217(2) 0.47223(14)
C2_6 C 0.6361(3) 0.4434(2) 0.44938(16)
H1_6 H 0.6176 0.4882 0.4282
C3_6 C 0.6435(3) 0.4433(2) 0.50500(16)
H2_6 H 0.6303 0.4869 0.5288
C4_6 C 0.6936(3) 0.3355(2) 0.57580(15)
H3_6 H 0.7146 0.2788 0.5732
H4_6 H 0.6423 0.3339 0.5971
C5_6 C 0.7568(3) 0.3883(2) 0.60643(16)
H5_6 H 0.8037 0.3988 0.5820
H6_6 H 0.7776 0.3564 0.6377
C6_6 C 0.7245(3) 0.4716(3) 0.62759(16)
N3_6 N 0.7885(2) 0.2228(2) 0.44026(13)
N4_6 N 0.6828(2) 0.1666(2) 0.48539(13)
C7_6 C 0.7182(2) 0.2381(2) 0.46711(15)
C8_6 C 0.7987(3) 0.1379(3) 0.4418(2)
H7_6 H 0.8430 0.1087 0.4261
C9_6 C 0.7340(3) 0.1029(3) 0.4698(2)
H8_6 H 0.7262 0.0464 0.4769
C10_6 C 0.6044(3) 0.1597(3) 0.51645(17)
H9_6 H 0.5855 0.2154 0.5261
H10_6 H 0.6152 0.1299 0.5507
C11_6 C 0.5359(3) 0.1158(3) 0.48575(18)
H11_6 H 0.5516 0.0581 0.4795
H12_6 H 0.5280 0.1421 0.4500
C12_6 C 0.4541(3) 0.1190(3) 0.51843(18)
N5_6 N 0.6333(2) 0.6601(2) 0.57132(12)
O5_6 O 0.5431(2) 0.6512(2) 0.68452(14)
O6_2 O 0.6110(2) 0.5912(3) 0.75136(14)
O1_7 O 0.0257(2) 0.7224(2) 0.85947(17)
N5_7 N 0.1601(2) 0.8667(2) 0.92868(12)
N6_5 N 0.2115(2) 0.7228(2) 0.80974(13)
C12_7 C 0.6190(3) 0.0459(3) 0.98157(18)
N1_7 N 0.8667(2) 0.8399(2) 0.07132(12)
C1_7 C 0.8217(2) 0.8171(2) 0.02777(14)
C2_7 C 0.9434(2) 0.8639(3) 0.05062(16)
H1_7 H 0.9882 0.8824 0.0718
N4_7 N 0.6666(2) 0.8172(2) 0.01461(13)
C7_7 C 0.7381(2) 0.7818(2) 0.03289(15)
C8_7 C 0.6379(3) 0.7013(3) 0.0582(2)
H7_7 H 0.6087 0.6570 0.0739
C9_7 C 0.6029(3) 0.7660(3) 0.0302(2)
H8_7 H 0.5464 0.7738 0.0231
C11_7 C 0.6158(3) 0.9641(3) 0.01425(18)
H11_7 H 0.5581 0.9484 0.0205
H12_7 H 0.6421 0.9720 0.0500
N1_8 N 0.1333(2) 0.1601(2) 0.07132(12)
C1_8 C 0.1783(2) 0.1829(2) 0.02777(14)
C2_8 C 0.0566(2) 0.1361(3) 0.05062(16)
H1_8 H 0.0118 0.1176 0.0718
N4_8 N 0.3334(2) 0.1828(2) 0.01461(13)
C7_8 C 0.2619(2) 0.2182(2) 0.03289(15)
C8_8 C 0.3621(3) 0.2987(3) 0.0582(2)
H7_8 H 0.3913 0.3430 0.0739
C9_8 C 0.3971(3) 0.2340(3) 0.0302(2)
H8_8 H 0.4536 0.2262 0.0231
C11_8 C 0.3842(3) 0.0359(3) 0.01425(18)
H11_8 H 0.4419 0.0516 0.0205
H12_8 H 0.3579 0.0280 0.0500
C12_8 C 0.3810(3) 0.9541(3) 0.98157(18)
O1_8 O 0.9743(2) 0.2776(2) 0.85947(17)
N5_8 N 0.8399(2) 0.1333(2) 0.92868(12)
N6_6 N 0.7885(2) 0.2772(2) 0.80974(13)
N2_7 N 0.6746(2) 0.13387(18) 0.73028(12)
O2_7 O 0.6486(2) 0.0162(2) 0.61763(14)
C1_9 C 0.6829(2) 0.1783(2) 0.77777(14)
C2_9 C 0.6361(3) 0.0566(2) 0.80062(16)
H1_9 H 0.6176 0.0118 0.8218
C3_7 C 0.6435(3) 0.0567(2) 0.74500(16)
H2_7 H 0.6303 0.0131 0.7212
C4_7 C 0.6936(3) 0.1645(2) 0.67420(15)
H3_7 H 0.7146 0.2212 0.6768
H4_7 H 0.6423 0.1661 0.6529
C5_7 C 0.7568(3) 0.1117(2) 0.64357(16)
H5_7 H 0.8037 0.1012 0.6680
H6_7 H 0.7776 0.1436 0.6123
C6_7 C 0.7245(3) 0.0284(3) 0.62241(16)
N4_9 N 0.6828(2) 0.3334(2) 0.76461(13)
C7_9 C 0.7182(2) 0.2619(2) 0.78289(15)
C8_9 C 0.7987(3) 0.3621(3) 0.8082(2)
H7_9 H 0.8430 0.3913 0.8239
C9_9 C 0.7340(3) 0.3971(3) 0.7802(2)
H8_9 H 0.7262 0.4536 0.7731
C10_7 C 0.6044(3) 0.3403(3) 0.73355(17)
H9_7 H 0.5855 0.2846 0.7239
H10_7 H 0.6152 0.3701 0.6993
C11_9 C 0.5359(3) 0.3842(3) 0.76425(18)
H11_9 H 0.5516 0.4419 0.7705
H12_9 H 0.5280 0.3579 0.8000
C12_9 C 0.4541(3) 0.3810(3) 0.73157(18)
O1_9 O 0.7776(2) 0.9743(2) 0.60947(17)
N6_7 N 0.7772(2) 0.7885(2) 0.55974(13)
O1_10 O 0.2224(2) 0.0257(2) 0.60947(17)
N6_8 N 0.2228(2) 0.2115(2) 0.55974(13)
N2_8 N 0.3254(2) 0.86613(18) 0.73028(12)
O2_8 O 0.3514(2) 0.9838(2) 0.61763(14)
C1_10 C 0.3171(2) 0.8217(2) 0.77777(14)
C2_10 C 0.3639(3) 0.9434(2) 0.80062(16)
H1_10 H 0.3824 0.9882 0.8218
C3_8 C 0.3565(3) 0.9433(2) 0.74500(16)
H2_8 H 0.3697 0.9869 0.7212
C4_8 C 0.3064(3) 0.8355(2) 0.67420(15)
H3_8 H 0.2854 0.7788 0.6768
H4_8 H 0.3577 0.8339 0.6529
C5_8 C 0.2432(3) 0.8883(2) 0.64357(16)
H5_8 H 0.1963 0.8988 0.6680
H6_8 H 0.2224 0.8564 0.6123
C6_8 C 0.2755(3) 0.9716(3) 0.62241(16)
N4_10 N 0.3172(2) 0.6666(2) 0.76461(13)
C7_10 C 0.2818(2) 0.7381(2) 0.78289(15)
C8_10 C 0.2013(3) 0.6379(3) 0.8082(2)
H7_10 H 0.1570 0.6087 0.8239
C9_10 C 0.2660(3) 0.6029(3) 0.7802(2)
H8_10 H 0.2738 0.5464 0.7731
C10_8 C 0.3956(3) 0.6597(3) 0.73355(17)
H9_8 H 0.4145 0.7154 0.7239
H10_8 H 0.3848 0.6299 0.6993
C11_10 C 0.4641(3) 0.6158(3) 0.76425(18)
H11_10 H 0.4484 0.5581 0.7705
H12_10 H 0.4720 0.6421 0.8000
C12_10 C 0.5459(3) 0.6190(3) 0.73157(18)
N2_9 N 0.13387(18) 0.3254(2) 0.26972(12)
O2_9 O 0.0162(2) 0.3514(2) 0.38237(14)
O3_7 O 0.3488(2) 0.5431(2) 0.31548(14)
O4_7 O 0.4088(3) 0.6110(2) 0.24864(14)
C1_11 C 0.1783(2) 0.3171(2) 0.22223(14)
C2_11 C 0.0566(2) 0.3639(3) 0.19938(16)
H1_11 H 0.0118 0.3824 0.1782
C3_9 C 0.0567(2) 0.3565(3) 0.25500(16)
H2_9 H 0.0131 0.3697 0.2788
C4_9 C 0.1645(2) 0.3064(3) 0.32580(15)
H3_9 H 0.2212 0.2854 0.3232
H4_9 H 0.1661 0.3577 0.3471
C5_9 C 0.1117(2) 0.2432(3) 0.35643(16)
H5_9 H 0.1012 0.1963 0.3320
H6_9 H 0.1436 0.2224 0.3877
C6_9 C 0.0284(3) 0.2755(3) 0.37759(16)
N3_7 N 0.2772(2) 0.2115(2) 0.19026(13)
N4_11 N 0.3334(2) 0.3172(2) 0.23539(13)
C7_11 C 0.2619(2) 0.2818(2) 0.21711(15)
C8_11 C 0.3621(3) 0.2013(3) 0.1918(2)
H7_11 H 0.3913 0.1570 0.1761
C9_11 C 0.3971(3) 0.2660(3) 0.2198(2)
H8_11 H 0.4536 0.2738 0.2269
C10_9 C 0.3403(3) 0.3956(3) 0.26645(17)
H9_9 H 0.2846 0.4145 0.2761
H10_9 H 0.3701 0.3848 0.3007
C11_11 C 0.3842(3) 0.4641(3) 0.23575(18)
H11_11 H 0.4419 0.4484 0.2295
H12_11 H 0.3579 0.4720 0.2000
C12_11 C 0.3810(3) 0.5459(3) 0.26843(18)
O1_11 O 0.9743(2) 0.2224(2) 0.39053(17)
O5_7 O 0.8488(2) 0.4569(2) 0.43452(14)
O6_3 O 0.9088(3) 0.3890(2) 0.50136(14)
O1_12 O 0.0257(2) 0.7776(2) 0.39053(17)
O5_8 O 0.1512(2) 0.5431(2) 0.43452(14)
O6_4 O 0.0912(3) 0.6110(2) 0.50136(14)
N2_10 N 0.86613(18) 0.6746(2) 0.26972(12)
O2_10 O 0.9838(2) 0.6486(2) 0.38237(14)
O3_8 O 0.6512(2) 0.4569(2) 0.31548(14)
O4_8 O 0.5912(3) 0.3890(2) 0.24864(14)
C1_12 C 0.8217(2) 0.6829(2) 0.22223(14)
C2_12 C 0.9434(2) 0.6361(3) 0.19938(16)
H1_12 H 0.9882 0.6176 0.1782
C3_10 C 0.9433(2) 0.6435(3) 0.25500(16)
H2_10 H 0.9869 0.6303 0.2788
C4_10 C 0.8355(2) 0.6936(3) 0.32580(15)
H3_10 H 0.7788 0.7146 0.3232
H4_10 H 0.8339 0.6423 0.3471
C5_10 C 0.8883(2) 0.7568(3) 0.35643(16)
H5_10 H 0.8988 0.8037 0.3320
H6_10 H 0.8564 0.7776 0.3877
C6_10 C 0.9716(3) 0.7245(3) 0.37759(16)
N3_8 N 0.7228(2) 0.7885(2) 0.19026(13)
N4_12 N 0.6666(2) 0.6828(2) 0.23539(13)
C7_12 C 0.7381(2) 0.7182(2) 0.21711(15)
C8_12 C 0.6379(3) 0.7987(3) 0.1918(2)
H7_12 H 0.6087 0.8430 0.1761
C9_12 C 0.6029(3) 0.7340(3) 0.2198(2)
H8_12 H 0.5464 0.7262 0.2269
C10_10 C 0.6597(3) 0.6044(3) 0.26645(17)
H9_10 H 0.7154 0.5855 0.2761
H10_10 H 0.6299 0.6152 0.3007
C11_12 C 0.6158(3) 0.5359(3) 0.23575(18)
H11_12 H 0.5581 0.5516 0.2295
H12_12 H 0.6421 0.5280 0.2000
C12_12 C 0.6190(3) 0.4541(3) 0.26843(18)
C12_13 C 0.0459(3) 0.3810(3) 0.01843(18)
C1_13 C 0.8171(2) 0.1783(2) 0.97223(14)
C2_13 C 0.8639(3) 0.0566(2) 0.94938(16)
H1_13 H 0.8824 0.0118 0.9282
N4_13 N 0.8172(2) 0.3334(2) 0.98539(13)
C7_13 C 0.7818(2) 0.2619(2) 0.96711(15)
C8_13 C 0.7013(3) 0.3621(3) 0.9418(2)
H7_13 H 0.6570 0.3913 0.9261
C9_13 C 0.7660(3) 0.3971(3) 0.9698(2)
H8_13 H 0.7738 0.4536 0.9769
C11_13 C 0.9641(3) 0.3842(3) 0.98575(18)
H11_13 H 0.9484 0.4419 0.9795
H12_13 H 0.9720 0.3579 0.9500
O1_13 O 0.7224(2) 0.9743(2) 0.14053(17)
O1_14 O 0.2776(2) 0.0257(2) 0.14053(17)
C1_14 C 0.1829(2) 0.8217(2) 0.97223(14)
C2_14 C 0.1361(3) 0.9434(2) 0.94938(16)
H1_14 H 0.1176 0.9882 0.9282
N4_14 N 0.1828(2) 0.6666(2) 0.98539(13)
C7_14 C 0.2182(2) 0.7381(2) 0.96711(15)
C8_14 C 0.2987(3) 0.6379(3) 0.9418(2)
H7_14 H 0.3430 0.6087 0.9261
C9_14 C 0.2340(3) 0.6029(3) 0.9698(2)
H8_14 H 0.2262 0.5464 0.9769
C11_14 C 0.0359(3) 0.6158(3) 0.98575(18)
H11_14 H 0.0516 0.5581 0.9795
H12_14 H 0.0280 0.6421 0.9500
C12_14 C 0.9541(3) 0.6190(3) 0.01843(18)
N2_11 N 0.36613(18) 0.3254(2) 0.48028(12)
O1_15 O 0.5257(2) 0.2224(2) 0.35947(17)
O2_11 O 0.4838(2) 0.3514(2) 0.36763(14)
C1_15 C 0.3217(2) 0.3171(2) 0.52777(14)
C2_15 C 0.4434(2) 0.3639(3) 0.55062(16)
H1_15 H 0.4882 0.3824 0.5718
C3_11 C 0.4433(2) 0.3565(3) 0.49500(16)
H2_11 H 0.4869 0.3697 0.4712
C4_11 C 0.3355(2) 0.3064(3) 0.42420(15)
H3_11 H 0.2788 0.2854 0.4268
H4_11 H 0.3339 0.3577 0.4029
C5_11 C 0.3883(2) 0.2432(3) 0.39357(16)
H5_11 H 0.3988 0.1963 0.4180
H6_11 H 0.3564 0.2224 0.3623
C6_11 C 0.4716(3) 0.2755(3) 0.37241(16)
N4_15 N 0.1666(2) 0.3172(2) 0.51461(13)
C7_15 C 0.2381(2) 0.2818(2) 0.53289(15)
C8_15 C 0.1379(3) 0.2013(3) 0.5582(2)
H7_15 H 0.1087 0.1570 0.5739
C9_15 C 0.1029(3) 0.2660(3) 0.5302(2)
H8_15 H 0.0464 0.2738 0.5231
C10_11 C 0.1597(3) 0.3956(3) 0.48355(17)
H9_11 H 0.2154 0.4145 0.4739
H10_11 H 0.1299 0.3848 0.4493
C11_15 C 0.1158(3) 0.4641(3) 0.51425(18)
H11_15 H 0.0581 0.4484 0.5205
H12_15 H 0.1421 0.4720 0.5500
C12_15 C 0.1190(3) 0.5459(3) 0.48157(18)
N2_12 N 0.63387(18) 0.6746(2) 0.48028(12)
O1_16 O 0.4743(2) 0.7776(2) 0.35947(17)
O2_12 O 0.5162(2) 0.6486(2) 0.36763(14)
C1_16 C 0.6783(2) 0.6829(2) 0.52777(14)
C2_16 C 0.5566(2) 0.6361(3) 0.55062(16)
H1_16 H 0.5118 0.6176 0.5718
C3_12 C 0.5567(2) 0.6435(3) 0.49500(16)
H2_12 H 0.5131 0.6303 0.4712
C4_12 C 0.6645(2) 0.6936(3) 0.42420(15)
H3_12 H 0.7212 0.7146 0.4268
H4_12 H 0.6661 0.6423 0.4029
C5_12 C 0.6117(2) 0.7568(3) 0.39357(16)
H5_12 H 0.6012 0.8037 0.4180
H6_12 H 0.6436 0.7776 0.3623
C6_12 C 0.5284(3) 0.7245(3) 0.37241(16)
N4_16 N 0.8334(2) 0.6828(2) 0.51461(13)
C7_16 C 0.7619(2) 0.7182(2) 0.53289(15)
C8_16 C 0.8621(3) 0.7987(3) 0.5582(2)
H7_16 H 0.8913 0.8430 0.5739
C9_16 C 0.8971(3) 0.7340(3) 0.5302(2)
H8_16 H 0.9536 0.7262 0.5231
C10_12 C 0.8403(3) 0.6044(3) 0.48355(17)
H9_12 H 0.7846 0.5855 0.4739
H10_12 H 0.8701 0.6152 0.4493
C11_16 C 0.8842(3) 0.5359(3) 0.51425(18)
H11_16 H 0.9419 0.5516 0.5205
H12_16 H 0.8579 0.5280 0.5500
C12_16 C 0.8810(3) 0.4541(3) 0.48157(18)
O6_5 O 0.1110(2) 0.4088(3) 0.99864(14)
O6_6 O 0.8890(2) 0.5912(3) 0.99864(14)
O6_7 O 0.4088(3) 0.8890(2) 0.00136(14)
O6_8 O 0.5912(3) 0.1110(2) 0.00136(14)
N2_13 N 0.86613(18) 0.8254(2) 0.98028(12)
O2_13 O 0.9838(2) 0.8514(2) 0.86763(14)
C3_13 C 0.9433(2) 0.8565(3) 0.99500(16)
H2_13 H 0.9869 0.8697 0.9712
C4_13 C 0.8355(2) 0.8064(3) 0.92420(15)
H3_13 H 0.7788 0.7854 0.9268
H4_13 H 0.8339 0.8577 0.9029
C5_13 C 0.8883(2) 0.7432(3) 0.89357(16)
H5_13 H 0.8988 0.6963 0.9180
H6_13 H 0.8564 0.7224 0.8623
C6_13 C 0.9716(3) 0.7755(3) 0.87241(16)
C10_13 C 0.6597(3) 0.8956(3) 0.98355(17)
H9_13 H 0.7154 0.9145 0.9739
H10_13 H 0.6299 0.8848 0.9493
N2_14 N 0.13387(18) 0.1746(2) 0.98028(12)
O2_14 O 0.0162(2) 0.1486(2) 0.86763(14)
C3_14 C 0.0567(2) 0.1435(3) 0.99500(16)
H2_14 H 0.0131 0.1303 0.9712
C4_14 C 0.1645(2) 0.1936(3) 0.92420(15)
H3_14 H 0.2212 0.2146 0.9268
H4_14 H 0.1661 0.1423 0.9029
C5_14 C 0.1117(2) 0.2568(3) 0.89357(16)
H5_14 H 0.1012 0.3037 0.9180
H6_14 H 0.1436 0.2776 0.8623
C6_14 C 0.0284(3) 0.2245(3) 0.87241(16)
C10_14 C 0.3403(3) 0.1044(3) 0.98355(17)
H9_14 H 0.2846 0.0855 0.9739
H10_14 H 0.3701 0.1152 0.9493
N2_15 N 0.8254(2) 0.13387(18) 0.01972(12)
O2_15 O 0.8514(2) 0.0162(2) 0.13237(14)
C3_15 C 0.8565(3) 0.0567(2) 0.00500(16)
H2_15 H 0.8697 0.0131 0.0288
C4_15 C 0.8064(3) 0.1645(2) 0.07580(15)
H3_15 H 0.7854 0.2212 0.0732
H4_15 H 0.8577 0.1661 0.0971
C5_15 C 0.7432(3) 0.1117(2) 0.10643(16)
H5_15 H 0.6963 0.1012 0.0820
H6_15 H 0.7224 0.1436 0.1377
C6_15 C 0.7755(3) 0.0284(3) 0.12759(16)
C10_15 C 0.8956(3) 0.3403(3) 0.01645(17)
H9_15 H 0.9145 0.2846 0.0261
H10_15 H 0.8848 0.3701 0.0507
N2_16 N 0.1746(2) 0.86613(18) 0.01972(12)
O2_16 O 0.1486(2) 0.9838(2) 0.13237(14)
C3_16 C 0.1435(3) 0.9433(2) 0.00500(16)
H2_16 H 0.1303 0.9869 0.0288
C4_16 C 0.1936(3) 0.8355(2) 0.07580(15)
H3_16 H 0.2146 0.7788 0.0732
H4_16 H 0.1423 0.8339 0.0971
C5_16 C 0.2568(3) 0.8883(2) 0.10643(16)
H5_16 H 0.3037 0.8988 0.0820
H6_16 H 0.2776 0.8564 0.1377
C6_16 C 0.2245(3) 0.9716(3) 0.12759(16)
C10_16 C 0.1044(3) 0.6597(3) 0.01645(17)
H9_16 H 0.0855 0.7154 0.0261
H10_16 H 0.1152 0.6299 0.0507
loop_
_geom_bond_atom_site_label_1
_geom_bond_atom_site_label_2
_geom_bond_site_symmetry_1
_geom_bond_site_symmetry_2
Cd1 O1 1_555 1_555
N1 C1 1_555 1_555
N2 C1 1_555 1_555
O1 C6 1_555 1_555
O2 Cd1 1_555 1_555
C1 C7 1_555 1_555
C2 N1 1_555 1_555
H1 C2 1_555 1_555
C3 N2 1_555 1_555
H2 C3 1_555 1_555
C4 N2 1_555 1_555
H3 C4 1_555 1_555
H4 C4 1_555 1_555
C5 C4 1_555 1_555
H5 C5 1_555 1_555
H6 C5 1_555 1_555
C6 O2 1_555 1_555
N3 C7 1_555 1_555
N4 C7 1_555 1_555
C8 N3 1_555 1_555
H7 C8 1_555 1_555
C9 N4 1_555 1_555
H8 C9 1_555 1_555
C10 N4 1_555 1_555
H9 C10 1_555 1_555
H10 C10 1_555 1_555
C11 C10 1_555 1_555
H11 C11 1_555 1_555
H12 C11 1_555 1_555
Cd2 N1 1_555 1_555
Cd4 N3 1_555 1_555
N5 Cd1 1_555 1_555
O5 Cd1 1_555 1_555
N6 Cd1 1_555 1_555
C2 C3 1_555 1_555
C5 C6 1_555 1_555
C8 C9 1_555 1_555
O3 C12 1_555 1_555
O4 C12 1_555 1_555
Cd3 O3 1_555 1_555
O4 Cd3 1_555 1_555
O3_2 C12_2 1_555 1_555
O4_2 C12_2 1_555 1_555
Cd3_2 O3_2 1_555 1_555
O4_2 Cd3_2 1_555 1_555
Cd1_2 O1_2 1_555 1_555
N1_2 C1_2 1_555 1_555
N2_2 C1_2 1_555 1_555
O1_2 C6_2 1_555 1_555
O2_2 Cd1_2 1_555 1_555
C1_2 C7_2 1_555 1_555
C2_2 N1_2 1_555 1_555
H1_2 C2_2 1_555 1_555
C3_2 N2_2 1_555 1_555
H2_2 C3_2 1_555 1_555
C4_2 N2_2 1_555 1_555
H3_2 C4_2 1_555 1_555
H4_2 C4_2 1_555 1_555
C5_2 C4_2 1_555 1_555
H5_2 C5_2 1_555 1_555
H6_2 C5_2 1_555 1_555
C6_2 O2_2 1_555 1_555
N3_2 C7_2 1_555 1_555
N4_2 C7_2 1_555 1_555
C8_2 N3_2 1_555 1_555
H7_2 C8_2 1_555 1_555
C9_2 N4_2 1_555 1_555
H8_2 C9_2 1_555 1_555
C10_2 N4_2 1_555 1_555
H9_2 C10_2 1_555 1_555
H10_2 C10_2 1_555 1_555
C11_2 C10_2 1_555 1_555
H11_2 C11_2 1_555 1_555
H12_2 C11_2 1_555 1_555
Cd2_2 N1_2 1_555 1_555
Cd4_2 N3_2 1_555 1_555
N5_2 Cd1_2 1_555 1_555
O5_2 Cd1_2 1_555 1_555
N6_2 Cd1_2 1_555 1_555
C2_2 C3_2 1_555 1_555
C5_2 C6_2 1_555 1_555
C8_2 C9_2 1_555 1_555
O3_3 C12_3 1_555 1_555
O4_3 C12_3 1_555 1_555
Cd3_3 O3_3 1_555 1_555
O4_3 Cd3_3 1_555 1_555
Cd1_3 O1_3 1_555 1_555
N1_3 C1_3 1_555 1_555
N2_3 C1_3 1_555 1_555
O1_3 C6_3 1_555 1_555
O2_3 Cd1_3 1_555 1_555
C1_3 C7_3 1_555 1_555
C2_3 N1_3 1_555 1_555
H1_3 C2_3 1_555 1_555
C3_3 N2_3 1_555 1_555
H2_3 C3_3 1_555 1_555
C4_3 N2_3 1_555 1_555
H3_3 C4_3 1_555 1_555
H4_3 C4_3 1_555 1_555
C5_3 C4_3 1_555 1_555
H5_3 C5_3 1_555 1_555
H6_3 C5_3 1_555 1_555
C6_3 O2_3 1_555 1_555
N3_3 C7_3 1_555 1_555
N4_3 C7_3 1_555 1_555
C8_3 N3_3 1_555 1_555
H7_3 C8_3 1_555 1_555
C9_3 N4_3 1_555 1_555
H8_3 C9_3 1_555 1_555
C10_3 N4_3 1_555 1_555
H9_3 C10_3 1_555 1_555
H10_3 C10_3 1_555 1_555
C11_3 C10_3 1_555 1_555
H11_3 C11_3 1_555 1_555
H12_3 C11_3 1_555 1_555
Cd2_3 N1_3 1_555 1_555
Cd4_3 N3_3 1_555 1_555
N5_3 Cd1_3 1_555 1_555
O5_3 Cd1_3 1_555 1_555
N6_3 Cd1_3 1_555 1_555
C2_3 C3_3 1_555 1_555
C5_3 C6_3 1_555 1_555
C8_3 C9_3 1_555 1_555
Cd1_4 O1_4 1_555 1_555
N1_4 C1_4 1_555 1_555
N2_4 C1_4 1_555 1_555
O1_4 C6_4 1_555 1_555
O2_4 Cd1_4 1_555 1_555
C1_4 C7_4 1_555 1_555
C2_4 N1_4 1_555 1_555
H1_4 C2_4 1_555 1_555
C3_4 N2_4 1_555 1_555
H2_4 C3_4 1_555 1_555
C4_4 N2_4 1_555 1_555
H3_4 C4_4 1_555 1_555
H4_4 C4_4 1_555 1_555
C5_4 C4_4 1_555 1_555
H5_4 C5_4 1_555 1_555
H6_4 C5_4 1_555 1_555
C6_4 O2_4 1_555 1_555
N3_4 C7_4 1_555 1_555
N4_4 C7_4 1_555 1_555
C8_4 N3_4 1_555 1_555
H7_4 C8_4 1_555 1_555
C9_4 N4_4 1_555 1_555
H8_4 C9_4 1_555 1_555
C10_4 N4_4 1_555 1_555
H9_4 C10_4 1_555 1_555
H10_4 C10_4 1_555 1_555
C11_4 C10_4 1_555 1_555
H11_4 C11_4 1_555 1_555
H12_4 C11_4 1_555 1_555
Cd2_4 N1_4 1_555 1_555
Cd4_4 N3_4 1_555 1_555
N5_4 Cd1_4 1_555 1_555
O5_4 Cd1_4 1_555 1_555
N6_4 Cd1_4 1_555 1_555
C2_4 C3_4 1_555 1_555
C5_4 C6_4 1_555 1_555
C8_4 C9_4 1_555 1_555
O3_4 C12_4 1_555 1_555
O4_4 C12_4 1_555 1_555
Cd3_4 O3_4 1_555 1_555
O4_4 Cd3_4 1_555 1_555
Cd4_4 O1_5 1_555 1_555
N1_5 C1_5 1_555 1_555
N2_5 C1_5 1_555 1_555
O1_5 C6_5 1_555 1_555
O2_5 Cd4_4 1_555 1_555
O3_5 C12_5 1_555 1_555
O4_5 C12_5 1_555 1_555
C1_5 C7_5 1_555 1_555
C2_5 N1_5 1_555 1_555
H1_5 C2_5 1_555 1_555
C3_5 N2_5 1_555 1_555
H2_5 C3_5 1_555 1_555
C4_5 N2_5 1_555 1_555
H3_5 C4_5 1_555 1_555
H4_5 C4_5 1_555 1_555
C5_5 C4_5 1_555 1_555
H5_5 C5_5 1_555 1_555
H6_5 C5_5 1_555 1_555
C6_5 O2_5 1_555 1_555
N3_5 C7_5 1_555 1_555
N4_5 C7_5 1_555 1_555
C8_5 N3_5 1_555 1_555
H7_5 C8_5 1_555 1_555
C9_5 N4_5 1_555 1_555
H8_5 C9_5 1_555 1_555
C10_5 N4_5 1_555 1_555
H9_5 C10_5 1_555 1_555
H10_5 C10_5 1_555 1_555
C11_5 C10_5 1_555 1_555
H11_5 C11_5 1_555 1_555
H12_5 C11_5 1_555 1_555
C12_5 C11_5 1_555 1_555
Cd4 N1_5 1_555 1_555
Cd2_3 O3_5 1_555 1_555
Cd2 N3_5 1_555 1_555
N5_5 Cd4_4 1_555 1_555
O5_5 Cd4_4 1_555 1_555
O6 Cd4_4 1_555 1_555
O4_5 Cd2_3 1_555 1_555
C2_5 C3_5 1_555 1_555
C5_5 C6_5 1_555 1_555
C8_5 C9_5 1_555 1_555
Cd4_3 O1_6 1_555 1_555
N1_6 C1_6 1_555 1_555
N2_6 C1_6 1_555 1_555
O1_6 C6_6 1_555 1_555
O2_6 Cd4_3 1_555 1_555
O3_6 C12_6 1_555 1_555
O4_6 C12_6 1_555 1_555
C1_6 C7_6 1_555 1_555
C2_6 N1_6 1_555 1_555
H1_6 C2_6 1_555 1_555
C3_6 N2_6 1_555 1_555
H2_6 C3_6 1_555 1_555
C4_6 N2_6 1_555 1_555
H3_6 C4_6 1_555 1_555
H4_6 C4_6 1_555 1_555
C5_6 C4_6 1_555 1_555
H5_6 C5_6 1_555 1_555
H6_6 C5_6 1_555 1_555
C6_6 O2_6 1_555 1_555
N3_6 C7_6 1_555 1_555
N4_6 C7_6 1_555 1_555
C8_6 N3_6 1_555 1_555
H7_6 C8_6 1_555 1_555
C9_6 N4_6 1_555 1_555
H8_6 C9_6 1_555 1_555
C10_6 N4_6 1_555 1_555
H9_6 C10_6 1_555 1_555
H10_6 C10_6 1_555 1_555
C11_6 C10_6 1_555 1_555
H11_6 C11_6 1_555 1_555
H12_6 C11_6 1_555 1_555
C12_6 C11_6 1_555 1_555
Cd4_2 N1_6 1_555 1_555
Cd2_4 O3_6 1_555 1_555
Cd2_2 N3_6 1_555 1_555
N5_6 Cd4_3 1_555 1_555
O5_6 Cd4_3 1_555 1_555
O6_2 Cd4_3 1_555 1_555
O4_6 Cd2_4 1_555 1_555
C2_6 C3_6 1_555 1_555
C5_6 C6_6 1_555 1_555
C8_6 C9_6 1_555 1_555
Cd3_4 O1_7 1_555 1_555
N5_7 Cd3_4 1_555 1_555
N6_5 Cd3_4 1_555 1_555
O5_4 C12_7 1_555 1_555
N1_7 C1_7 1_555 1_555
C1_7 C7_7 1_555 1_555
C2_7 N1_7 1_555 1_555
H1_7 C2_7 1_555 1_555
N6_2 C7_7 1_555 1_555
N4_7 C7_7 1_555 1_555
C8_7 N6_2 1_555 1_555
H7_7 C8_7 1_555 1_555
C9_7 N4_7 1_555 1_555
H8_7 C9_7 1_555 1_555
H11_7 C11_7 1_555 1_555
H12_7 C11_7 1_555 1_555
Cd3 N1_7 1_555 1_555
C8_7 C9_7 1_555 1_555
N1_8 C1_8 1_555 1_555
C1_8 C7_8 1_555 1_555
C2_8 N1_8 1_555 1_555
H1_8 C2_8 1_555 1_555
N6 C7_8 1_555 1_555
N4_8 C7_8 1_555 1_555
C8_8 N6 1_555 1_555
H7_8 C8_8 1_555 1_555
C9_8 N4_8 1_555 1_555
H8_8 C9_8 1_555 1_555
H11_8 C11_8 1_555 1_555
H12_8 C11_8 1_555 1_555
Cd3_2 N1_8 1_555 1_555
C8_8 C9_8 1_555 1_555
O5_3 C12_8 1_555 1_555
Cd3_3 O1_8 1_555 1_555
N5_8 Cd3_3 1_555 1_555
N6_6 Cd3_3 1_555 1_555
N5_4 C1_9 1_555 1_555
N2_7 C1_9 1_555 1_555
O5_5 C12_9 1_555 1_555
O6 C12_9 1_555 1_555
C1_9 C7_9 1_555 1_555
C2_9 N5_4 1_555 1_555
H1_9 C2_9 1_555 1_555
C3_7 N2_7 1_555 1_555
H2_7 C3_7 1_555 1_555
C4_7 N2_7 1_555 1_555
H3_7 C4_7 1_555 1_555
H4_7 C4_7 1_555 1_555
C5_7 C4_7 1_555 1_555
H5_7 C5_7 1_555 1_555
H6_7 C5_7 1_555 1_555
C6_7 O2_7 1_555 1_555
N6_6 C7_9 1_555 1_555
N4_9 C7_9 1_555 1_555
C8_9 N6_6 1_555 1_555
H7_9 C8_9 1_555 1_555
C9_9 N4_9 1_555 1_555
H8_9 C9_9 1_555 1_555
C10_7 N4_9 1_555 1_555
H9_7 C10_7 1_555 1_555
H10_7 C10_7 1_555 1_555
C11_9 C10_7 1_555 1_555
H11_9 C11_9 1_555 1_555
H12_9 C11_9 1_555 1_555
C12_9 C11_9 1_555 1_555
C2_9 C3_7 1_555 1_555
C5_7 C6_7 1_555 1_555
C8_9 C9_9 1_555 1_555
Cd2_3 O1_9 1_555 1_555
N6_7 Cd2_3 1_555 1_555
Cd2_4 O1_10 1_555 1_555
N6_8 Cd2_4 1_555 1_555
N5_3 C1_10 1_555 1_555
N2_8 C1_10 1_555 1_555
O5_6 C12_10 1_555 1_555
O6_2 C12_10 1_555 1_555
C1_10 C7_10 1_555 1_555
C2_10 N5_3 1_555 1_555
H1_10 C2_10 1_555 1_555
C3_8 N2_8 1_555 1_555
H2_8 C3_8 1_555 1_555
C4_8 N2_8 1_555 1_555
H3_8 C4_8 1_555 1_555
H4_8 C4_8 1_555 1_555
C5_8 C4_8 1_555 1_555
H5_8 C5_8 1_555 1_555
H6_8 C5_8 1_555 1_555
C6_8 O2_8 1_555 1_555
N6_5 C7_10 1_555 1_555
N4_10 C7_10 1_555 1_555
C8_10 N6_5 1_555 1_555
H7_10 C8_10 1_555 1_555
C9_10 N4_10 1_555 1_555
H8_10 C9_10 1_555 1_555
C10_8 N4_10 1_555 1_555
H9_8 C10_8 1_555 1_555
H10_8 C10_8 1_555 1_555
C11_10 C10_8 1_555 1_555
H11_10 C11_10 1_555 1_555
H12_10 C11_10 1_555 1_555
C12_10 C11_10 1_555 1_555
C2_10 C3_8 1_555 1_555
C5_8 C6_8 1_555 1_555
C8_10 C9_10 1_555 1_555
N5 C1_11 1_555 1_555
N2_9 C1_11 1_555 1_555
O3_7 C12_11 1_555 1_555
O4_7 C12_11 1_555 1_555
C1_11 C7_11 1_555 1_555
C2_11 N5 1_555 1_555
H1_11 C2_11 1_555 1_555
C3_9 N2_9 1_555 1_555
H2_9 C3_9 1_555 1_555
C4_9 N2_9 1_555 1_555
H3_9 C4_9 1_555 1_555
H4_9 C4_9 1_555 1_555
C5_9 C4_9 1_555 1_555
H5_9 C5_9 1_555 1_555
H6_9 C5_9 1_555 1_555
C6_9 O2_9 1_555 1_555
N3_7 C7_11 1_555 1_555
N4_11 C7_11 1_555 1_555
C8_11 N3_7 1_555 1_555
H7_11 C8_11 1_555 1_555
C9_11 N4_11 1_555 1_555
H8_11 C9_11 1_555 1_555
C10_9 N4_11 1_555 1_555
H9_9 C10_9 1_555 1_555
H10_9 C10_9 1_555 1_555
C11_11 C10_9 1_555 1_555
H11_11 C11_11 1_555 1_555
H12_11 C11_11 1_555 1_555
C12_11 C11_11 1_555 1_555
Cd4 O3_7 1_555 1_555
Cd3_2 N3_7 1_555 1_555
O4_7 Cd4 1_555 1_555
C2_11 C3_9 1_555 1_555
C5_9 C6_9 1_555 1_555
C8_11 C9_11 1_555 1_555
Cd2_2 O1_11 1_555 1_555
O5_7 Cd2_2 1_555 1_555
O6_3 Cd2_2 1_555 1_555
Cd2 O1_12 1_555 1_555
O5_8 Cd2 1_555 1_555
O6_4 Cd2 1_555 1_555
N5_2 C1_12 1_555 1_555
N2_10 C1_12 1_555 1_555
O3_8 C12_12 1_555 1_555
O4_8 C12_12 1_555 1_555
C1_12 C7_12 1_555 1_555
C2_12 N5_2 1_555 1_555
H1_12 C2_12 1_555 1_555
C3_10 N2_10 1_555 1_555
H2_10 C3_10 1_555 1_555
C4_10 N2_10 1_555 1_555
H3_10 C4_10 1_555 1_555
H4_10 C4_10 1_555 1_555
C5_10 C4_10 1_555 1_555
H5_10 C5_10 1_555 1_555
H6_10 C5_10 1_555 1_555
C6_10 O2_10 1_555 1_555
N3_8 C7_12 1_555 1_555
N4_12 C7_12 1_555 1_555
C8_12 N3_8 1_555 1_555
H7_12 C8_12 1_555 1_555
C9_12 N4_12 1_555 1_555
H8_12 C9_12 1_555 1_555
C10_10 N4_12 1_555 1_555
H9_10 C10_10 1_555 1_555
H10_10 C10_10 1_555 1_555
C11_12 C10_10 1_555 1_555
H11_12 C11_12 1_555 1_555
H12_12 C11_12 1_555 1_555
C12_12 C11_12 1_555 1_555
Cd4_2 O3_8 1_555 1_555
Cd3 N3_8 1_555 1_555
O4_8 Cd4_2 1_555 1_555
C2_12 C3_10 1_555 1_555
C5_10 C6_10 1_555 1_555
C8_12 C9_12 1_555 1_555
O5 C12_13 1_555 1_555
N5_8 C1_13 1_555 1_555
C1_13 C7_13 1_555 1_555
C2_13 N5_8 1_555 1_555
H1_13 C2_13 1_555 1_555
N6_4 C7_13 1_555 1_555
N4_13 C7_13 1_555 1_555
C8_13 N6_4 1_555 1_555
H7_13 C8_13 1_555 1_555
C9_13 N4_13 1_555 1_555
H8_13 C9_13 1_555 1_555
H11_13 C11_13 1_555 1_555
H12_13 C11_13 1_555 1_555
C8_13 C9_13 1_555 1_555
Cd3 O1_13 1_555 1_555
Cd3_2 O1_14 1_555 1_555
N5_7 C1_14 1_555 1_555
C1_14 C7_14 1_555 1_555
C2_14 N5_7 1_555 1_555
H1_14 C2_14 1_555 1_555
N6_3 C7_14 1_555 1_555
N4_14 C7_14 1_555 1_555
C8_14 N6_3 1_555 1_555
H7_14 C8_14 1_555 1_555
C9_14 N4_14 1_555 1_555
H8_14 C9_14 1_555 1_555
H11_14 C11_14 1_555 1_555
H12_14 C11_14 1_555 1_555
C8_14 C9_14 1_555 1_555
O5_2 C12_14 1_555 1_555
Cd4_2 O1_15 1_555 1_555
N5_5 C1_15 1_555 1_555
N2_11 C1_15 1_555 1_555
O1_15 C6_11 1_555 1_555
O2_11 Cd4_2 1_555 1_555
O5_8 C12_15 1_555 1_555
O6_4 C12_15 1_555 1_555
C1_15 C7_15 1_555 1_555
C2_15 N5_5 1_555 1_555
H1_15 C2_15 1_555 1_555
C3_11 N2_11 1_555 1_555
H2_11 C3_11 1_555 1_555
C4_11 N2_11 1_555 1_555
H3_11 C4_11 1_555 1_555
H4_11 C4_11 1_555 1_555
C5_11 C4_11 1_555 1_555
H5_11 C5_11 1_555 1_555
H6_11 C5_11 1_555 1_555
C6_11 O2_11 1_555 1_555
N6_8 C7_15 1_555 1_555
N4_15 C7_15 1_555 1_555
C8_15 N6_8 1_555 1_555
H7_15 C8_15 1_555 1_555
C9_15 N4_15 1_555 1_555
H8_15 C9_15 1_555 1_555
C10_11 N4_15 1_555 1_555
H9_11 C10_11 1_555 1_555
H10_11 C10_11 1_555 1_555
C11_15 C10_11 1_555 1_555
H11_15 C11_15 1_555 1_555
H12_15 C11_15 1_555 1_555
C12_15 C11_15 1_555 1_555
C2_15 C3_11 1_555 1_555
C5_11 C6_11 1_555 1_555
C8_15 C9_15 1_555 1_555
Cd4 O1_16 1_555 1_555
N5_6 C1_16 1_555 1_555
N2_12 C1_16 1_555 1_555
O1_16 C6_12 1_555 1_555
O2_12 Cd4 1_555 1_555
O5_7 C12_16 1_555 1_555
O6_3 C12_16 1_555 1_555
C1_16 C7_16 1_555 1_555
C2_16 N5_6 1_555 1_555
H1_16 C2_16 1_555 1_555
C3_12 N2_12 1_555 1_555
H2_12 C3_12 1_555 1_555
C4_12 N2_12 1_555 1_555
H3_12 C4_12 1_555 1_555
H4_12 C4_12 1_555 1_555
C5_12 C4_12 1_555 1_555
H5_12 C5_12 1_555 1_555
H6_12 C5_12 1_555 1_555
C6_12 O2_12 1_555 1_555
N6_7 C7_16 1_555 1_555
N4_16 C7_16 1_555 1_555
C8_16 N6_7 1_555 1_555
H7_16 C8_16 1_555 1_555
C9_16 N4_16 1_555 1_555
H8_16 C9_16 1_555 1_555
C10_12 N4_16 1_555 1_555
H9_12 C10_12 1_555 1_555
H10_12 C10_12 1_555 1_555
C11_16 C10_12 1_555 1_555
H11_16 C11_16 1_555 1_555
H12_16 C11_16 1_555 1_555
C12_16 C11_16 1_555 1_555
C2_16 C3_12 1_555 1_555
C5_12 C6_12 1_555 1_555
C8_16 C9_16 1_555 1_555
C3_13 N2_13 1_555 1_555
H2_13 C3_13 1_555 1_555
C4_13 N2_13 1_555 1_555
H3_13 C4_13 1_555 1_555
H4_13 C4_13 1_555 1_555
C5_13 C4_13 1_555 1_555
H5_13 C5_13 1_555 1_555
H6_13 C5_13 1_555 1_555
C6_13 O2_13 1_555 1_555
H9_13 C10_13 1_555 1_555
H10_13 C10_13 1_555 1_555
C5_13 C6_13 1_555 1_555
C3_14 N2_14 1_555 1_555
H2_14 C3_14 1_555 1_555
C4_14 N2_14 1_555 1_555
H3_14 C4_14 1_555 1_555
H4_14 C4_14 1_555 1_555
C5_14 C4_14 1_555 1_555
H5_14 C5_14 1_555 1_555
H6_14 C5_14 1_555 1_555
C6_14 O2_14 1_555 1_555
H9_14 C10_14 1_555 1_555
H10_14 C10_14 1_555 1_555
C5_14 C6_14 1_555 1_555
C3_15 N2_15 1_555 1_555
H2_15 C3_15 1_555 1_555
C4_15 N2_15 1_555 1_555
H3_15 C4_15 1_555 1_555
H4_15 C4_15 1_555 1_555
C5_15 C4_15 1_555 1_555
H5_15 C5_15 1_555 1_555
H6_15 C5_15 1_555 1_555
C6_15 O2_15 1_555 1_555
H9_15 C10_15 1_555 1_555
H10_15 C10_15 1_555 1_555
C5_15 C6_15 1_555 1_555
C3_16 N2_16 1_555 1_555
H2_16 C3_16 1_555 1_555
C4_16 N2_16 1_555 1_555
H3_16 C4_16 1_555 1_555
H4_16 C4_16 1_555 1_555
C5_16 C4_16 1_555 1_555
H5_16 C5_16 1_555 1_555
H6_16 C5_16 1_555 1_555
C6_16 O2_16 1_555 1_555
H9_16 C10_16 1_555 1_555
H10_16 C10_16 1_555 1_555
C5_16 C6_16 1_555 1_555

#END
