
###############################################################################
#
# This file contains modified crystal structure data generated from the
# MOF subset of the Cambridge Structural Database (CSD) v543 
# hosted by the Cambridge Crystallographic Data Centre (CCDC).
#
# This work is licensed under the Creative Commons
# Attribution-NonCommercial-ShareAlike 4.0 International License.
# To view a copy of this license, visit
# http://creativecommons.org/licenses/by-nc-sa/4.0/
# or send a letter to
# Creative Commons, PO Box 1866, Mountain View, CA 94042, USA.
#
# CIF created using the CSD Python API on 29 September 2022
# The structure has been converted into the P1 space group
# The structure has a 3D framework
# The original CSD entry TAFTUS is in the hexagonal crystal system
# The original CSD entry TAFTUS is in a Sohncke space group
# The framework has been calculated to contain at least 10.0% void space
# The void calculation uses a probe of radius 1.32A, grid spacing 0.4
#
###############################################################################

data_TAFTUS
_chemical_formula_moiety         '(C192 H216 Cu32 I14 N44)n'
_symmetry_cell_setting           triclinic
_symmetry_space_group_name_H-M   'P 1'
_symmetry_Int_Tables_number      1
_space_group_name_Hall           'P 1'
loop_
_symmetry_equiv_pos_site_id
_symmetry_equiv_pos_as_xyz
1 x,y,z
_cell_length_a                   22.901(3)
_cell_length_b                   22.901(3)
_cell_length_c                   22.272(5)
_cell_angle_alpha                90
_cell_angle_beta                 90
_cell_angle_gamma                120
_cell_volume                     10115.8
loop_
_atom_site_label
_atom_site_type_symbol
_atom_site_fract_x
_atom_site_fract_y
_atom_site_fract_z
Cu1 Cu 0.13645(8) 0.21976(8) 0.39233(6)
N1 N 0.2251(5) 0.1454(5) 0.2829(3)
N2 N 0.1943(5) 0.2040(4) 0.3434(4)
C1 C 0.0769(4) 0.1537(8) 0.2500
H1 H 0.1003 0.2006 0.2500
C2 C 0.1065(7) 0.1214(6) 0.2734(4)
C3 C 0.0696(7) 0.0498(7) 0.2706(5)
H2 H 0.0901 0.0259 0.2840
C4 C 0.0081(5) 0.0162(9) 0.2500
C5 C 0.1762(6) 0.1570(6) 0.2988(5)
C6 C 0.2786(4) 0.1882(4) 0.3188(4)
C7 C 0.2580(3) 0.2237(5) 0.3554(4)
C8 C 0.3031(4) 0.2714(4) 0.3956(4)
H4 H 0.2893 0.2951 0.4200
C9 C 0.3688(4) 0.2836(4) 0.3992(3)
H5 H 0.3990 0.3155 0.4261
C10 C 0.3895(4) 0.2481(5) 0.3626(4)
H6 H 0.4335 0.2562 0.3651
C11 C 0.3444(5) 0.2004(4) 0.3225(4)
H7 H 0.3582 0.1766 0.2980
N4 N 0.0097(6) 0.2040(4) 0.1566(4)
C12 C 0.0149(9) 0.1214(6) 0.2266(4)
H9 H 0.0058 0.2951 0.0800
Cu3 Cu 0.21976(8) 0.08331(11) 0.22566(6)
Cu4 Cu 0.08331(11) 0.21976(8) 0.10767(6)
N5 N 0.0797(7) 0.2251(5) 0.4496(3)
N2_2 N 0.2040(4) 0.0097(6) 0.1767(4)
C1_2 C 0.1537(8) 0.0768(9) 0.0833
H1_2 H 0.2006 0.1003 0.0833
C2_2 C 0.1214(6) 0.0149(9) 0.1067(4)
C4_2 C 0.0162(9) 0.0081(10) 0.0833
H4_2 H 0.2951 0.0058 0.2533
N3 N 0.1454(5) 0.2251(9) 0.0504(3)
C12_2 C 0.1214(6) 0.1065(11) 0.0599(4)
C13 C 0.0498(7) 0.0696(12) 0.0627(5)
H8 H 0.0259 0.0901 0.0493
C14 C 0.1570(6) 0.1762(10) 0.0345(5)
C15 C 0.1882(4) 0.2786(7) 0.0145(4)
C20 C 0.2004(4) 0.3444(7) 0.0108(4)
H12 H 0.1766 0.3582 0.0353
C3_2 C 0.0198(10) 0.0696(7) 0.4373(5)
H2_2 H 0.0642 0.0901 0.4507
C5_2 C 0.0192(8) 0.1762(6) 0.4655(5)
C6_2 C 0.0904(6) 0.2786(4) 0.4855(4)
C7_2 C 0.0343(6) 0.2580(3) 0.5221(4)
C8_2 C 0.0317(6) 0.3031(4) 0.5623(4)
C9_2 C 0.0852(6) 0.3688(4) 0.5659(3)
H5_2 H 0.0835 0.3990 0.5928
C10_2 C 0.1414(6) 0.3895(4) 0.5293(4)
H6_2 H 0.1773 0.4335 0.5318
C11_2 C 0.1440(6) 0.3444(5) 0.4892(4)
H7_2 H 0.1816 0.3582 0.4647
N3_2 N 0.9203(7) 0.1454(5) 0.2171(3)
C13_2 C 0.9802(10) 0.0498(7) 0.2294(5)
H8_2 H 0.9358 0.0259 0.2160
C14_2 C 0.9808(8) 0.1570(6) 0.2012(5)
C15_2 C 0.9096(6) 0.1882(4) 0.1812(4)
C16 C 0.9657(6) 0.2237(5) 0.1446(4)
C17 C 0.9683(6) 0.2714(4) 0.1044(4)
C18 C 0.9148(6) 0.2836(4) 0.1008(3)
H10 H 0.9165 0.3155 0.0739
C19 C 0.8586(6) 0.2481(5) 0.1374(4)
H11 H 0.8227 0.2562 0.1349
C20_2 C 0.8560(6) 0.2004(4) 0.1775(4)
H12_2 H 0.8184 0.1766 0.2020
Cu2 Cu 0.86355(8) 0.08331(11) 0.27434(6)
N6 N 0.8057(5) 0.0097(6) 0.3233(4)
N1_2 N 0.8546(5) 0.0797(7) 0.6162(3)
C3_3 C 0.9502(7) 0.0198(10) 0.6039(5)
H2_3 H 0.9741 0.0642 0.6173
C5_3 C 0.8430(6) 0.0192(8) 0.6321(5)
C6_3 C 0.8118(4) 0.0904(6) 0.6521(4)
C7_3 C 0.7763(5) 0.0343(6) 0.6887(4)
C8_3 C 0.7286(4) 0.0317(6) 0.7289(4)
C9_3 C 0.7164(4) 0.0852(6) 0.7325(3)
H5_3 H 0.6845 0.0835 0.7594
C10_3 C 0.7519(5) 0.1414(6) 0.6959(4)
H6_3 H 0.7438 0.1773 0.6984
C11_3 C 0.7996(4) 0.1440(6) 0.6558(4)
H7_3 H 0.8234 0.1816 0.6313
Cu3_2 Cu 0.91669(11) 0.13645(14) 0.55900(6)
N2_3 N 0.9903(6) 0.1943(5) 0.5101(4)
C1_3 C 0.9232(9) 0.0769(4) 0.4167
H1_3 H 0.8997 0.1003 0.4167
C2_3 C 0.9851(9) 0.1065(7) 0.4401(4)
C4_3 C 0.9919(10) 0.0081(5) 0.4167
H4_3 H 0.9942 0.2893 0.5867
C12_3 C 0.8935(11) 0.0149(9) 0.3933(4)
H9_2 H 0.7107 0.0058 0.2467
H3 H 0.9847 0.9693 0.2500
H3_2 H 0.0307 0.0154 0.5833
Cu1_2 Cu 0.78024(8) 0.91669(11) 0.72566(6)
N2_4 N 0.7960(4) 0.9903(6) 0.6767(4)
C1_4 C 0.8463(8) 0.9232(9) 0.5833
H1_4 H 0.7994 0.8997 0.5833
C2_4 C 0.8786(6) 0.9851(9) 0.6067(4)
C4_4 C 0.9838(9) 0.9919(10) 0.5833
H4_4 H 0.7049 0.9942 0.7533
N3_3 N 0.8546(5) 0.7749(9) 0.5504(3)
N4_2 N 0.7960(4) 0.8057(7) 0.4899(4)
C12_4 C 0.8786(6) 0.8935(11) 0.5599(4)
C13_3 C 0.9502(7) 0.9304(12) 0.5627(5)
H8_3 H 0.9741 0.9099 0.5493
C14_3 C 0.8430(6) 0.8238(10) 0.5345(5)
C15_3 C 0.8118(4) 0.7214(7) 0.5145(4)
C16_2 C 0.7763(5) 0.7420(8) 0.4779(4)
C17_2 C 0.7286(4) 0.6969(7) 0.4377(4)
H9_3 H 0.7049 0.7107 0.4133
C18_2 C 0.7164(4) 0.6312(7) 0.4341(3)
H10_2 H 0.6845 0.6010 0.4072
C19_2 C 0.7519(5) 0.6105(8) 0.4707(4)
H11_2 H 0.7438 0.5665 0.4682
C20_3 C 0.7996(4) 0.6556(7) 0.5108(4)
H12_3 H 0.8234 0.6418 0.5353
Cu2_2 Cu 0.91669(11) 0.78024(14) 0.60767(6)
Cu4_2 Cu 0.78024(8) 0.86355(14) 0.44100(6)
N5_2 N 0.7749(5) 0.8546(9) 0.7829(3)
N6_2 N 0.9903(6) 0.7960(8) 0.6566(4)
N1_3 N 0.9203(7) 0.7749(5) 0.9496(3)
C3_4 C 0.9802(10) 0.9304(7) 0.9373(5)
H2_4 H 0.9358 0.9099 0.9507
C5_4 C 0.9808(8) 0.8238(6) 0.9655(5)
C6_4 C 0.9096(6) 0.7214(4) 0.9855(4)
C11_4 C 0.8560(6) 0.6556(5) 0.9892(4)
H7_4 H 0.8184 0.6418 0.9647
Cu3_3 Cu 0.86355(14) 0.78024(8) 0.89233(6)
N2_5 N 0.8057(5) 0.7960(4) 0.8434(4)
C1_5 C 0.9231(4) 0.8463(8) 0.7500
H1_5 H 0.8997 0.7994 0.7500
C2_5 C 0.8935(7) 0.8786(6) 0.7734(4)
C3_5 C 0.9304(7) 0.9502(7) 0.7706(5)
H2_5 H 0.9099 0.9741 0.7840
C4_5 C 0.9919(5) 0.9838(9) 0.7500
C5_5 C 0.8238(6) 0.8430(6) 0.7988(5)
C6_5 C 0.7214(4) 0.8118(4) 0.8188(4)
C7_4 C 0.7420(3) 0.7763(5) 0.8554(4)
C8_4 C 0.6969(4) 0.7286(4) 0.8956(4)
H4_5 H 0.7107 0.7049 0.9200
C9_4 C 0.6312(4) 0.7164(4) 0.8992(3)
H5_4 H 0.6010 0.6845 0.9261
C10_4 C 0.6105(4) 0.7519(5) 0.8626(4)
H6_4 H 0.5665 0.7438 0.8651
C11_5 C 0.6556(5) 0.7996(4) 0.8225(4)
H7_5 H 0.6418 0.8234 0.7980
C12_5 C 0.9851(9) 0.8786(6) 0.7266(4)
H9_4 H 0.9942 0.7049 0.5800
N3_4 N 0.7749(9) 0.9203(7) 0.3838(3)
C13_4 C 0.9304(12) 0.9802(10) 0.3961(5)
H8_4 H 0.9099 0.9358 0.3827
C14_4 C 0.8238(10) 0.9808(8) 0.3679(5)
C15_4 C 0.7214(7) 0.9096(6) 0.3479(4)
C16_3 C 0.7420(8) 0.9657(6) 0.3113(4)
C17_3 C 0.6969(7) 0.9683(6) 0.2711(4)
C18_3 C 0.6312(7) 0.9148(6) 0.2675(3)
H10_3 H 0.6010 0.9165 0.2406
C19_3 C 0.6105(8) 0.8586(6) 0.3041(4)
H11_3 H 0.5665 0.8227 0.3016
C20_4 C 0.6556(7) 0.8560(6) 0.3442(4)
H12_4 H 0.6418 0.8184 0.3687
N3_5 N 0.2251(9) 0.0797(7) 0.8838(3)
C13_5 C 0.0696(12) 0.0198(10) 0.8961(5)
H8_5 H 0.0901 0.0642 0.8827
C14_5 C 0.1762(10) 0.0192(8) 0.8679(5)
C15_5 C 0.2786(7) 0.0904(6) 0.8479(4)
C16_4 C 0.2580(8) 0.0343(6) 0.8113(4)
C17_4 C 0.3031(7) 0.0317(6) 0.7711(4)
C18_4 C 0.3688(7) 0.0852(6) 0.7675(3)
H10_4 H 0.3990 0.0835 0.7406
C19_4 C 0.3895(8) 0.1414(6) 0.8041(4)
H11_4 H 0.4335 0.1773 0.8016
C20_5 C 0.3444(7) 0.1440(6) 0.8442(4)
H12_5 H 0.3582 0.1816 0.8687
Cu2_3 Cu 0.21976(14) 0.13645(8) 0.94100(6)
N6_3 N 0.2040(8) 0.1943(5) 0.9899(4)
C16_5 C 0.2237(5) 0.2580(8) 0.9779(4)
C17_5 C 0.2714(4) 0.3031(7) 0.9377(4)
H9_5 H 0.2951 0.2893 0.9133
C18_5 C 0.2836(4) 0.3688(7) 0.9341(3)
H10_5 H 0.3155 0.3990 0.9072
C19_5 C 0.2481(5) 0.3895(8) 0.9707(4)
H11_5 H 0.2562 0.4335 0.9682
Cu1_3 Cu 0.08331(11) 0.86355(8) 0.05900(6)
N2_6 N 0.0097(6) 0.8057(5) 0.0101(4)
H4_6 H 0.0058 0.7107 0.0867
N5_3 N 0.1454(9) 0.9203(7) 0.1162(3)
C3_6 C 0.0498(7) 0.9802(10) 0.1039(5)
H2_6 H 0.0259 0.9358 0.1173
C5_6 C 0.1570(6) 0.9808(8) 0.1321(5)
C6_6 C 0.1882(4) 0.9096(6) 0.1521(4)
C7_5 C 0.2237(5) 0.9657(6) 0.1887(4)
C8_5 C 0.2714(4) 0.9683(6) 0.2289(4)
C9_5 C 0.2836(4) 0.9148(6) 0.2325(3)
H5_5 H 0.3155 0.9165 0.2594
C10_5 C 0.2481(5) 0.8586(6) 0.1959(4)
H6_5 H 0.2562 0.8227 0.1984
C11_6 C 0.2004(4) 0.8560(6) 0.1558(4)
H7_6 H 0.1766 0.8184 0.1313
C1_6 C 0.0768(9) 0.9231(4) 0.9167
H1_6 H 0.1003 0.8997 0.9167
C2_6 C 0.0149(9) 0.8935(7) 0.9401(4)
C4_6 C 0.0081(10) 0.9919(5) 0.9167
N4_3 N 0.1943(7) 0.9903(6) 0.8233(4)
C12_6 C 0.1065(11) 0.9851(9) 0.8933(4)
H9_6 H 0.2893 0.9942 0.7467
Cu4_3 Cu 0.13645(14) 0.91669(11) 0.77434(6)
N3_6 N 0.0797(7) 0.8546(5) 0.7171(3)
C13_6 C 0.0198(10) 0.9502(7) 0.7294(5)
H8_6 H 0.0642 0.9741 0.7160
C14_6 C 0.0192(8) 0.8430(6) 0.7012(5)
C15_6 C 0.0904(6) 0.8118(4) 0.6812(4)
C16_6 C 0.0343(6) 0.7763(5) 0.6446(4)
C17_6 C 0.0317(6) 0.7286(4) 0.6044(4)
C18_6 C 0.0852(6) 0.7164(4) 0.6008(3)
H10_6 H 0.0835 0.6845 0.5739
C19_6 C 0.1414(6) 0.7519(5) 0.6374(4)
H11_6 H 0.1773 0.7438 0.6349
C20_6 C 0.1440(6) 0.7996(4) 0.6775(4)
H12_6 H 0.1816 0.8234 0.7020
H3_3 H 0.9846 0.0153 0.9167
C7_6 C 0.9657(6) 0.7420(3) 0.0221(4)
C8_6 C 0.9683(6) 0.6969(4) 0.0623(4)
C9_6 C 0.9148(6) 0.6312(4) 0.0659(3)
H5_6 H 0.9165 0.6010 0.0928
C10_6 C 0.8586(6) 0.6105(4) 0.0293(4)
H6_6 H 0.8227 0.5665 0.0318
H3_4 H 0.0153 0.0307 0.7500
H3_5 H 0.9693 0.9846 0.0833
H3_6 H 0.0154 0.9847 0.4167
I5 I 0.15321(6) 0.76274(4) 0.00455(3)
N10 N 0.0621(5) 0.6892(7) 0.8551(4)
C30 C 0.0142(6) 0.6330(9) 0.8954(5)
H31 H 0.0162 0.6505 0.9355
H32 H 0.0275 0.5990 0.8978
C31 C 0.0581(6) 0.6593(9) 0.7955(5)
H33 H 0.0771 0.6299 0.7981
H34 H 0.0851 0.6950 0.7673
C32 C 0.0370(6) 0.7385(9) 0.8486(6)
H35 H 0.0681 0.7763 0.8239
H36 H 0.0348 0.7558 0.8878
I3 I 0.23726(4) 0.84679(6) 0.82879(3)
I4 I 0.18948(5) 0.63412(6) 0.87566(4)
Cu7 Cu 0.28348(9) 0.76469(12) 0.86246(6)
Cu8 Cu 0.15845(8) 0.73425(11) 0.88922(7)
I7 I 0.36588(6) 0.81052(5) 0.95768(4)
Cu9 Cu 0.23531(12) 0.71652(9) 0.97088(6)
Cu12 Cu 0.26575(11) 0.84155(8) 0.94412(7)
N11 N 0.3438(5) 0.7652(7) 0.7928(4)
H30 H 0.6537 0.4026 0.0146
Cu10 Cu 0.51879(8) 0.28348(9) 0.02912(6)
I1 I 0.76274(4) 0.60953(4) 0.83788(3)
I2 I 0.81052(5) 0.44464(4) 0.79101(4)
Cu5 Cu 0.71652(9) 0.48121(8) 0.80421(6)
Cu6 Cu 0.84155(8) 0.57580(8) 0.77745(7)
N7 N 0.6562(5) 0.4214(5) 0.8739(4)
N8 N 0.9379(5) 0.6271(5) 0.8116(4)
C21 C 0.6043(8) 0.4371(8) 0.8878(6)
H13 H 0.5740 0.4258 0.8538
H14 H 0.6245 0.4850 0.8955
C22 C 0.6973(8) 0.4306(7) 0.9268(5)
H15 H 0.7170 0.4766 0.9413
H16 H 0.7334 0.4219 0.9170
C23 C 0.6217(7) 0.3513(7) 0.8557(5)
H17 H 0.6547 0.3374 0.8480
H18 H 0.5974 0.3463 0.8187
C24 C 0.9858(6) 0.6188(7) 0.7713(5)
H19 H 0.9838 0.6343 0.7312
H20 H 0.9725 0.5715 0.7689
C25 C 0.9419(6) 0.6012(7) 0.8712(5)
H21 H 0.9229 0.5528 0.8686
H22 H 0.9149 0.6099 0.8994
C26 C 0.9630(6) 0.7015(7) 0.8181(6)
H23 H 0.9319 0.7082 0.8428
H24 H 0.9652 0.7210 0.7789
N9 N 0.5786(5) 0.3438(5) 0.9594(4)
C27 C 0.5629(8) 0.3957(8) 0.9455(6)
H25 H 0.5742 0.4260 0.9795
H26 H 0.5150 0.3755 0.9378
C28 C 0.5694(7) 0.3027(8) 0.9065(5)
H27 H 0.5234 0.2830 0.8920
H28 H 0.5781 0.2666 0.9163
C29 C 0.6487(7) 0.3783(7) 0.9776(5)
H29 H 0.6626 0.3453 0.9853
I6 I 0.84679(6) 0.60953(4) 0.66212(3)
I8 I 0.63412(6) 0.44464(4) 0.70899(4)
Cu11 Cu 0.76469(12) 0.48121(8) 0.69579(6)
Cu13 Cu 0.73425(11) 0.57580(8) 0.72255(7)
I1_2 I 0.39047(4) 0.15321(6) 0.17121(3)
I2_2 I 0.55536(4) 0.36588(6) 0.12434(4)
Cu5_2 Cu 0.51879(8) 0.23531(12) 0.13754(6)
Cu6_2 Cu 0.42420(8) 0.26575(11) 0.11078(7)
N7_2 N 0.5786(5) 0.2348(7) 0.2072(4)
N8_2 N 0.3729(5) 0.3108(7) 0.1449(4)
C21_2 C 0.5629(8) 0.1672(11) 0.2211(6)
H13_2 H 0.5742 0.1482 0.1871
H14_2 H 0.5150 0.1395 0.2288
C22_2 C 0.5694(7) 0.2667(11) 0.2601(5)
H15_2 H 0.5234 0.2404 0.2746
H16_2 H 0.5781 0.3115 0.2503
C23_2 C 0.6487(7) 0.2704(10) 0.1890(5)
H17_2 H 0.6626 0.3173 0.1813
H18_2 H 0.6537 0.2511 0.1520
C24_2 C 0.3812(7) 0.3670(9) 0.1046(5)
H19_2 H 0.3657 0.3495 0.0645
H20_2 H 0.4285 0.4010 0.1022
C25_2 C 0.3988(7) 0.3407(9) 0.2045(5)
H21_2 H 0.4472 0.3701 0.2019
H22_2 H 0.3901 0.3050 0.2327
C26_2 C 0.2985(7) 0.2615(9) 0.1514(6)
H23_2 H 0.2918 0.2237 0.1761
H24_2 H 0.2790 0.2442 0.1122
N9_2 N 0.6562(5) 0.2348(7) 0.2928(4)
C27_2 C 0.6043(8) 0.1672(11) 0.2789(6)
H25_2 H 0.5740 0.1482 0.3129
H26_2 H 0.6245 0.1395 0.2712
C28_2 C 0.6973(8) 0.2667(11) 0.2399(5)
H27_2 H 0.7170 0.2404 0.2254
H28_2 H 0.7334 0.3115 0.2497
C29_2 C 0.6217(7) 0.2704(10) 0.3110(5)
H29_2 H 0.6547 0.3173 0.3187
H30_2 H 0.5974 0.2511 0.3480
N10_2 N 0.3108(7) 0.3729(9) 0.1884(4)
C30_2 C 0.3670(9) 0.3812(11) 0.2287(5)
H31_2 H 0.3495 0.3657 0.2688
H32_2 H 0.4010 0.4285 0.2311
C31_2 C 0.3407(9) 0.3988(11) 0.1288(5)
H33_2 H 0.3701 0.4472 0.1314
H34_2 H 0.3050 0.3901 0.1006
C32_2 C 0.2615(9) 0.2985(11) 0.1819(6)
H35_2 H 0.2237 0.2918 0.1572
H36_2 H 0.2442 0.2790 0.2211
I3_2 I 0.15321(6) 0.39047(7) 0.16212(3)
I4_2 I 0.36588(6) 0.55536(8) 0.20899(4)
Cu7_2 Cu 0.23531(12) 0.51879(15) 0.19579(6)
Cu8_2 Cu 0.26575(11) 0.42420(14) 0.22255(7)
I5_2 I 0.23726(4) 0.39047(7) 0.33788(3)
I7_2 I 0.18948(5) 0.55536(8) 0.29101(4)
I8_2 I 0.55536(4) 0.18948(7) 0.04232(4)
Cu9_2 Cu 0.28348(9) 0.51879(15) 0.30421(6)
Cu10_2 Cu 0.71652(9) 0.23531(12) 0.36246(6)
Cu12_2 Cu 0.15845(8) 0.42420(14) 0.27745(7)
Cu13_2 Cu 0.42420(8) 0.15845(14) 0.05588(7)
N11_2 N 0.2348(7) 0.5786(9) 0.1261(4)
I6_2 I 0.39047(4) 0.23726(7) 0.99545(3)
I1_3 I 0.84679(6) 0.23726(4) 0.50455(3)
I2_3 I 0.63412(6) 0.18948(5) 0.45768(4)
Cu5_3 Cu 0.76469(12) 0.28348(9) 0.47088(6)
Cu6_3 Cu 0.73425(11) 0.15845(8) 0.44412(7)
N7_3 N 0.7652(7) 0.3438(5) 0.5406(4)
N8_3 N 0.6892(7) 0.0621(5) 0.4783(4)
C21_3 C 0.8328(11) 0.3957(8) 0.5545(6)
H13_3 H 0.8518 0.4260 0.5205
H14_3 H 0.8605 0.3755 0.5622
C22_3 C 0.7333(11) 0.3027(8) 0.5935(5)
H15_3 H 0.7596 0.2830 0.6080
H16_3 H 0.6885 0.2666 0.5837
C23_3 C 0.7296(10) 0.3783(7) 0.5224(5)
H17_3 H 0.6827 0.3453 0.5147
H18_3 H 0.7489 0.4026 0.4854
C24_3 C 0.6330(9) 0.0142(6) 0.4380(5)
H19_3 H 0.6505 0.0162 0.3979
H20_3 H 0.5990 0.0275 0.4356
C25_3 C 0.6593(9) 0.0581(6) 0.5379(5)
H21_3 H 0.6299 0.0771 0.5353
H22_3 H 0.6950 0.0851 0.5661
C26_3 C 0.7385(9) 0.0370(6) 0.4848(6)
H23_3 H 0.7763 0.0681 0.5095
H24_3 H 0.7558 0.0348 0.4456
N9_3 N 0.7652(7) 0.4214(5) 0.6261(4)
C27_3 C 0.8328(11) 0.4371(8) 0.6122(6)
H25_3 H 0.8518 0.4258 0.6462
H26_3 H 0.8605 0.4850 0.6045
C28_3 C 0.7333(11) 0.4306(7) 0.5732(5)
H27_3 H 0.7596 0.4766 0.5587
H28_3 H 0.6885 0.4219 0.5830
C29_3 C 0.7296(10) 0.3513(7) 0.6443(5)
H29_3 H 0.6827 0.3374 0.6520
H30_3 H 0.7489 0.3463 0.6813
I6_3 I 0.76274(7) 0.15321(6) 0.32879(3)
I8_3 I 0.81052(7) 0.36588(6) 0.37566(4)
Cu13_3 Cu 0.84155(14) 0.26575(11) 0.38922(7)
N10_3 N 0.6271(9) 0.9379(5) 0.5217(4)
C30_3 C 0.6188(11) 0.9858(6) 0.5620(5)
H31_3 H 0.6343 0.9838 0.6021
H32_3 H 0.5715 0.9725 0.5644
C31_3 C 0.6012(11) 0.9419(6) 0.4621(5)
H33_3 H 0.5528 0.9229 0.4647
H34_3 H 0.6099 0.9149 0.4339
C32_3 C 0.7015(11) 0.9630(6) 0.5152(6)
H35_3 H 0.7082 0.9319 0.4905
H36_3 H 0.7210 0.9652 0.5544
I3_3 I 0.60953(7) 0.76274(4) 0.49545(3)
I4_3 I 0.44464(8) 0.81052(5) 0.54232(4)
Cu7_3 Cu 0.48121(15) 0.71652(9) 0.52912(6)
Cu8_3 Cu 0.57580(14) 0.84155(8) 0.55588(7)
I5_3 I 0.60953(7) 0.84679(6) 0.67121(3)
I7_3 I 0.44464(8) 0.63412(6) 0.62434(4)
Cu9_3 Cu 0.48121(15) 0.76469(12) 0.63754(6)
Cu12_3 Cu 0.57580(14) 0.73425(11) 0.61078(7)
N11_3 N 0.4214(9) 0.6562(5) 0.4594(4)
N7_4 N 0.3438(5) 0.5786(5) 0.3739(4)
N8_4 N 0.0621(5) 0.3729(5) 0.3116(4)
C21_4 C 0.3957(8) 0.5629(8) 0.3878(6)
H13_4 H 0.4260 0.5742 0.3538
H14_4 H 0.3755 0.5150 0.3955
C22_4 C 0.3027(8) 0.5694(7) 0.4268(5)
H15_4 H 0.2830 0.5234 0.4413
H16_4 H 0.2666 0.5781 0.4170
C23_4 C 0.3783(7) 0.6487(7) 0.3557(5)
H17_4 H 0.3453 0.6626 0.3480
H18_4 H 0.4026 0.6537 0.3187
C24_4 C 0.0142(6) 0.3812(7) 0.2713(5)
H19_4 H 0.0162 0.3657 0.2312
H20_4 H 0.0275 0.4285 0.2689
C25_4 C 0.0581(6) 0.3988(7) 0.3712(5)
H21_4 H 0.0771 0.4472 0.3686
H22_4 H 0.0851 0.3901 0.3994
C26_4 C 0.0370(6) 0.2985(7) 0.3181(6)
H23_4 H 0.0681 0.2918 0.3428
H24_4 H 0.0348 0.2790 0.2789
C27_4 C 0.4371(8) 0.6043(8) 0.4455(6)
H25_4 H 0.4258 0.5740 0.4795
H26_4 H 0.4850 0.6245 0.4378
C28_4 C 0.4306(7) 0.6973(8) 0.4065(5)
H27_4 H 0.4766 0.7170 0.3920
H28_4 H 0.4219 0.7334 0.4163
C29_4 C 0.3513(7) 0.6217(7) 0.4776(5)
H29_4 H 0.3374 0.6547 0.4853
H30_4 H 0.3463 0.5974 0.5146
N10_4 N 0.9379(5) 0.3108(7) 0.3551(4)
C30_4 C 0.9858(6) 0.3670(9) 0.3954(5)
H31_4 H 0.9838 0.3495 0.4355
H32_4 H 0.9725 0.4010 0.3978
C31_4 C 0.9419(6) 0.3407(9) 0.2955(5)
H33_4 H 0.9229 0.3701 0.2981
H34_4 H 0.9149 0.3050 0.2673
C32_4 C 0.9630(6) 0.2615(9) 0.3486(6)
H35_4 H 0.9319 0.2237 0.3239
H36_4 H 0.9652 0.2442 0.3878
N7_5 N 0.4214(5) 0.7652(7) 0.7072(4)
N8_5 N 0.6271(5) 0.6892(7) 0.6449(4)
C21_5 C 0.4371(8) 0.8328(11) 0.7211(6)
H13_5 H 0.4258 0.8518 0.6871
H14_5 H 0.4850 0.8605 0.7288
C22_5 C 0.4306(7) 0.7333(11) 0.7601(5)
H15_5 H 0.4766 0.7596 0.7746
H16_5 H 0.4219 0.6885 0.7503
C23_5 C 0.3513(7) 0.7296(10) 0.6890(5)
H17_5 H 0.3374 0.6827 0.6813
H18_5 H 0.3463 0.7489 0.6520
C24_5 C 0.6188(7) 0.6330(9) 0.6046(5)
H19_5 H 0.6343 0.6505 0.5645
H20_5 H 0.5715 0.5990 0.6022
C25_5 C 0.6012(7) 0.6593(9) 0.7045(5)
H21_5 H 0.5528 0.6299 0.7019
H22_5 H 0.6099 0.6950 0.7327
C26_5 C 0.7015(7) 0.7385(9) 0.6514(6)
H23_5 H 0.7082 0.7763 0.6761
H24_5 H 0.7210 0.7558 0.6122
C27_5 C 0.3957(8) 0.8328(11) 0.7789(6)
H25_5 H 0.4260 0.8518 0.8129
H26_5 H 0.3755 0.8605 0.7712
C28_5 C 0.3027(8) 0.7333(11) 0.7399(5)
H27_5 H 0.2830 0.7596 0.7254
H28_5 H 0.2666 0.6885 0.7497
C29_5 C 0.3783(7) 0.7296(10) 0.8110(5)
H29_5 H 0.3453 0.6827 0.8187
H30_5 H 0.4026 0.7489 0.8480
N10_5 N 0.6892(7) 0.6271(9) 0.6884(4)
C30_5 C 0.6330(9) 0.6188(11) 0.7287(5)
H31_5 H 0.6505 0.6343 0.7688
H32_5 H 0.5990 0.5715 0.7311
C31_5 C 0.6593(9) 0.6012(11) 0.6288(5)
H33_5 H 0.6299 0.5528 0.6314
H34_5 H 0.6950 0.6099 0.6006
C32_5 C 0.7385(9) 0.7015(11) 0.6819(6)
H35_5 H 0.7763 0.7082 0.6572
H36_5 H 0.7558 0.7210 0.7211
N10_6 N 0.3729(9) 0.0621(5) 0.0217(4)
C30_6 C 0.3812(11) 0.0142(6) 0.0620(5)
H31_6 H 0.3657 0.0162 0.1021
H32_6 H 0.4285 0.0275 0.0644
C32_6 C 0.2985(11) 0.0370(6) 0.0152(6)
H36_6 H 0.2790 0.0348 0.0544
C31_6 C 0.3988(11) 0.0581(6) 0.9621(5)
H33_6 H 0.4472 0.0771 0.9647
H34_6 H 0.3901 0.0851 0.9339
H35_6 H 0.2918 0.0681 0.9905
N7_6 N 0.2348(7) 0.6562(5) 0.0406(4)
C21_6 C 0.1672(11) 0.6043(8) 0.0545(6)
H13_6 H 0.1482 0.5740 0.0205
H14_6 H 0.1395 0.6245 0.0622
C22_6 C 0.2667(11) 0.6973(8) 0.0935(5)
H15_6 H 0.2404 0.7170 0.1080
H16_6 H 0.3115 0.7334 0.0837
C23_6 C 0.2704(10) 0.6217(7) 0.0224(5)
H17_6 H 0.3173 0.6547 0.0147
C25_6 C 0.3407(9) 0.9419(6) 0.0379(5)
H21_6 H 0.3701 0.9229 0.0353
H22_6 H 0.3050 0.9149 0.0661
H23_6 H 0.2237 0.9319 0.0095
C27_6 C 0.1672(11) 0.5629(8) 0.1122(6)
H25_6 H 0.1482 0.5742 0.1462
H26_6 H 0.1395 0.5150 0.1045
C28_6 C 0.2667(11) 0.5694(7) 0.0732(5)
H27_6 H 0.2404 0.5234 0.0587
H28_6 H 0.3115 0.5781 0.0830
C29_6 C 0.2704(10) 0.6487(7) 0.1443(5)
H29_6 H 0.3173 0.6626 0.1520
H30_6 H 0.2511 0.6537 0.1813
N8_6 N 0.3108(7) 0.9379(5) 0.9783(4)
H18_6 H 0.2511 0.5974 0.9854
C24_6 C 0.3670(9) 0.9858(6) 0.9380(5)
H19_6 H 0.3495 0.9838 0.8979
H20_6 H 0.4010 0.9725 0.9356
C26_6 C 0.2615(9) 0.9630(6) 0.9848(6)
H24_6 H 0.2442 0.9652 0.9456
loop_
_geom_bond_atom_site_label_1
_geom_bond_atom_site_label_2
_geom_bond_site_symmetry_1
_geom_bond_site_symmetry_2
Cu1 N2 1_555 1_555
N1 C5 1_555 1_555
N2 C5 1_555 1_555
C1 H1 1_555 1_555
C2 C1 1_555 1_555
C3 C2 1_555 1_555
H2 C3 1_555 1_555
C4 C3 1_555 1_555
C5 C2 1_555 1_555
C6 N1 1_555 1_555
C7 N2 1_555 1_555
C8 C7 1_555 1_555
H4 C8 1_555 1_555
C9 C8 1_555 1_555
H5 C9 1_555 1_555
C10 C9 1_555 1_555
H6 C10 1_555 1_555
C11 C6 1_555 1_555
H7 C11 1_555 1_555
C12 C1 1_555 1_555
Cu3 N1 1_555 1_555
Cu4 N4 1_555 1_555
N5 Cu1 1_555 1_555
C6 C7 1_555 1_555
C10 C11 1_555 1_555
Cu3 N2_2 1_555 1_555
C1_2 H1_2 1_555 1_555
C2_2 C1_2 1_555 1_555
N3 C14 1_555 1_555
C12_2 C1_2 1_555 1_555
C13 C4_2 1_555 1_555
H8 C13 1_555 1_555
C14 C12_2 1_555 1_555
C15 N3 1_555 1_555
C20 C15 1_555 1_555
H12 C20 1_555 1_555
Cu4 N3 1_555 1_555
C12_2 C13 1_555 1_555
N5 C5_2 1_555 1_555
H2_2 C3_2 1_555 1_555
C6_2 N5 1_555 1_555
C8_2 C7_2 1_555 1_555
C9_2 C8_2 1_555 1_555
H5_2 C9_2 1_555 1_555
C10_2 C9_2 1_555 1_555
H6_2 C10_2 1_555 1_555
C11_2 C6_2 1_555 1_555
H7_2 C11_2 1_555 1_555
C6_2 C7_2 1_555 1_555
C10_2 C11_2 1_555 1_555
N3_2 C14_2 1_555 1_555
H8_2 C13_2 1_555 1_555
C15_2 N3_2 1_555 1_555
C17 C16 1_555 1_555
C18 C17 1_555 1_555
H10 C18 1_555 1_555
C19 C18 1_555 1_555
H11 C19 1_555 1_555
C20_2 C15_2 1_555 1_555
H12_2 C20_2 1_555 1_555
Cu2 N3_2 1_555 1_555
N6 Cu2 1_555 1_555
C15_2 C16 1_555 1_555
C19 C20_2 1_555 1_555
N1_2 C5_3 1_555 1_555
H2_3 C3_3 1_555 1_555
C6_3 N1_2 1_555 1_555
C8_3 C7_3 1_555 1_555
C9_3 C8_3 1_555 1_555
H5_3 C9_3 1_555 1_555
C10_3 C9_3 1_555 1_555
H6_3 C10_3 1_555 1_555
C11_3 C6_3 1_555 1_555
H7_3 C11_3 1_555 1_555
Cu3_2 N1_2 1_555 1_555
C6_3 C7_3 1_555 1_555
C10_3 C11_3 1_555 1_555
Cu3_2 N2_3 1_555 1_555
C1_3 H1_3 1_555 1_555
C2_3 C1_3 1_555 1_555
C12_3 C1_3 1_555 1_555
Cu1_2 N2_4 1_555 1_555
C1_4 H1_4 1_555 1_555
C2_4 C1_4 1_555 1_555
N3_3 C14_3 1_555 1_555
N4_2 C14_3 1_555 1_555
C12_4 C1_4 1_555 1_555
C13_3 C4_4 1_555 1_555
H8_3 C13_3 1_555 1_555
C14_3 C12_4 1_555 1_555
C15_3 N3_3 1_555 1_555
C16_2 N4_2 1_555 1_555
C17_2 C16_2 1_555 1_555
H9_3 C17_2 1_555 1_555
C18_2 C17_2 1_555 1_555
H10_2 C18_2 1_555 1_555
C19_2 C18_2 1_555 1_555
H11_2 C19_2 1_555 1_555
C20_3 C15_3 1_555 1_555
H12_3 C20_3 1_555 1_555
Cu2_2 N3_3 1_555 1_555
Cu4_2 N4_2 1_555 1_555
N5_2 Cu1_2 1_555 1_555
N6_2 Cu2_2 1_555 1_555
C12_4 C13_3 1_555 1_555
C15_3 C16_2 1_555 1_555
C19_2 C20_3 1_555 1_555
N1_3 C5_4 1_555 1_555
H2_4 C3_4 1_555 1_555
C6_4 N1_3 1_555 1_555
C11_4 C6_4 1_555 1_555
H7_4 C11_4 1_555 1_555
Cu3_3 N1_3 1_555 1_555
Cu3_3 N2_5 1_555 1_555
N5_2 C5_5 1_555 1_555
N2_5 C5_5 1_555 1_555
C1_5 H1_5 1_555 1_555
C2_5 C1_5 1_555 1_555
C3_5 C2_5 1_555 1_555
H2_5 C3_5 1_555 1_555
C4_5 C3_5 1_555 1_555
C5_5 C2_5 1_555 1_555
C6_5 N5_2 1_555 1_555
C7_4 N2_5 1_555 1_555
C8_4 C7_4 1_555 1_555
H4_5 C8_4 1_555 1_555
C9_4 C8_4 1_555 1_555
H5_4 C9_4 1_555 1_555
C10_4 C9_4 1_555 1_555
H6_4 C10_4 1_555 1_555
C11_5 C6_5 1_555 1_555
H7_5 C11_5 1_555 1_555
C12_5 C1_5 1_555 1_555
C6_5 C7_4 1_555 1_555
C10_4 C11_5 1_555 1_555
N3_4 C14_4 1_555 1_555
H8_4 C13_4 1_555 1_555
C15_4 N3_4 1_555 1_555
C17_3 C16_3 1_555 1_555
C18_3 C17_3 1_555 1_555
H10_3 C18_3 1_555 1_555
C19_3 C18_3 1_555 1_555
H11_3 C19_3 1_555 1_555
C20_4 C15_4 1_555 1_555
H12_4 C20_4 1_555 1_555
Cu4_2 N3_4 1_555 1_555
C15_4 C16_3 1_555 1_555
C19_3 C20_4 1_555 1_555
N3_5 C14_5 1_555 1_555
H8_5 C13_5 1_555 1_555
C15_5 N3_5 1_555 1_555
C17_4 C16_4 1_555 1_555
C18_4 C17_4 1_555 1_555
H10_4 C18_4 1_555 1_555
C19_4 C18_4 1_555 1_555
H11_4 C19_4 1_555 1_555
C20_5 C15_5 1_555 1_555
H12_5 C20_5 1_555 1_555
Cu2_3 N3_5 1_555 1_555
N6_3 Cu2_3 1_555 1_555
C15_5 C16_4 1_555 1_555
C19_4 C20_5 1_555 1_555
C16_5 N6_3 1_555 1_555
C17_5 C16_5 1_555 1_555
H9_5 C17_5 1_555 1_555
C18_5 C17_5 1_555 1_555
H10_5 C18_5 1_555 1_555
C19_5 C18_5 1_555 1_555
H11_5 C19_5 1_555 1_555
Cu1_3 N2_6 1_555 1_555
N5_3 Cu1_3 1_555 1_555
N5_3 C5_6 1_555 1_555
H2_6 C3_6 1_555 1_555
C6_6 N5_3 1_555 1_555
C8_5 C7_5 1_555 1_555
C9_5 C8_5 1_555 1_555
H5_5 C9_5 1_555 1_555
C10_5 C9_5 1_555 1_555
H6_5 C10_5 1_555 1_555
C11_6 C6_6 1_555 1_555
H7_6 C11_6 1_555 1_555
C6_6 C7_5 1_555 1_555
C10_5 C11_6 1_555 1_555
C1_6 H1_6 1_555 1_555
C2_6 C1_6 1_555 1_555
C12_6 C1_6 1_555 1_555
Cu4_3 N4_3 1_555 1_555
N3_6 C14_6 1_555 1_555
H8_6 C13_6 1_555 1_555
C15_6 N3_6 1_555 1_555
C17_6 C16_6 1_555 1_555
C18_6 C17_6 1_555 1_555
H10_6 C18_6 1_555 1_555
C19_6 C18_6 1_555 1_555
H11_6 C19_6 1_555 1_555
C20_6 C15_6 1_555 1_555
H12_6 C20_6 1_555 1_555
Cu4_3 N3_6 1_555 1_555
C15_6 C16_6 1_555 1_555
C19_6 C20_6 1_555 1_555
C8_6 C7_6 1_555 1_555
C9_6 C8_6 1_555 1_555
H5_6 C9_6 1_555 1_555
C10_6 C9_6 1_555 1_555
H6_6 C10_6 1_555 1_555
N10 C30 1_555 1_555
H31 C30 1_555 1_555
H32 C30 1_555 1_555
H33 C31 1_555 1_555
H34 C31 1_555 1_555
H35 C32 1_555 1_555
H36 C32 1_555 1_555
I3 Cu7 1_555 1_555
I4 Cu7 1_555 1_555
Cu7 I7 1_555 1_555
Cu8 N10 1_555 1_555
I7 Cu9 1_555 1_555
Cu9 I4 1_555 1_555
Cu12 I3 1_555 1_555
N11 Cu7 1_555 1_555
N10 C31 1_555 1_555
N10 C32 1_555 1_555
I3 Cu8 1_555 1_555
I4 Cu8 1_555 1_555
I7 Cu12 1_555 1_555
I1 Cu5 1_555 1_555
I2 Cu5 1_555 1_555
Cu5 N7 1_555 1_555
Cu6 I1 1_555 1_555
N7 C21 1_555 1_555
N8 Cu6 1_555 1_555
C21 H13 1_555 1_555
H14 C21 1_555 1_555
C22 N7 1_555 1_555
H15 C22 1_555 1_555
H16 C22 1_555 1_555
C23 N7 1_555 1_555
H17 C23 1_555 1_555
H18 C23 1_555 1_555
C24 N8 1_555 1_555
H19 C24 1_555 1_555
H20 C24 1_555 1_555
C25 N8 1_555 1_555
H21 C25 1_555 1_555
H22 C25 1_555 1_555
C26 N8 1_555 1_555
H23 C26 1_555 1_555
H24 C26 1_555 1_555
N9 C27 1_555 1_555
C27 C21 1_555 1_555
H25 C27 1_555 1_555
H26 C27 1_555 1_555
C28 C23 1_555 1_555
H27 C28 1_555 1_555
H28 C28 1_555 1_555
C29 C22 1_555 1_555
H29 C29 1_555 1_555
I6 Cu6 1_555 1_555
I8 Cu5 1_555 1_555
Cu11 I2 1_555 1_555
Cu13 I1 1_555 1_555
I2 Cu6 1_555 1_555
N9 C28 1_555 1_555
N9 C29 1_555 1_555
I6 Cu11 1_555 1_555
I6 Cu13 1_555 1_555
I8 Cu11 1_555 1_555
I8 Cu13 1_555 1_555
I1_2 Cu5_2 1_555 1_555
I2_2 Cu5_2 1_555 1_555
Cu5_2 N7_2 1_555 1_555
Cu6_2 I1_2 1_555 1_555
N7_2 C21_2 1_555 1_555
N8_2 Cu6_2 1_555 1_555
C21_2 H13_2 1_555 1_555
H14_2 C21_2 1_555 1_555
C22_2 N7_2 1_555 1_555
H15_2 C22_2 1_555 1_555
H16_2 C22_2 1_555 1_555
C23_2 N7_2 1_555 1_555
H17_2 C23_2 1_555 1_555
H18_2 C23_2 1_555 1_555
C24_2 N8_2 1_555 1_555
H19_2 C24_2 1_555 1_555
H20_2 C24_2 1_555 1_555
C25_2 N8_2 1_555 1_555
H21_2 C25_2 1_555 1_555
H22_2 C25_2 1_555 1_555
C26_2 N8_2 1_555 1_555
H23_2 C26_2 1_555 1_555
H24_2 C26_2 1_555 1_555
N9_2 C27_2 1_555 1_555
C27_2 C21_2 1_555 1_555
H25_2 C27_2 1_555 1_555
H26_2 C27_2 1_555 1_555
C28_2 C23_2 1_555 1_555
H27_2 C28_2 1_555 1_555
H28_2 C28_2 1_555 1_555
C29_2 C22_2 1_555 1_555
H29_2 C29_2 1_555 1_555
H30_2 C29_2 1_555 1_555
N10_2 C30_2 1_555 1_555
C30_2 C25_2 1_555 1_555
H31_2 C30_2 1_555 1_555
H32_2 C30_2 1_555 1_555
C31_2 C24_2 1_555 1_555
H33_2 C31_2 1_555 1_555
H34_2 C31_2 1_555 1_555
C32_2 C26_2 1_555 1_555
H35_2 C32_2 1_555 1_555
H36_2 C32_2 1_555 1_555
I3_2 Cu7_2 1_555 1_555
I4_2 Cu7_2 1_555 1_555
Cu7_2 I7_2 1_555 1_555
Cu8_2 N10_2 1_555 1_555
I5_2 Cu8_2 1_555 1_555
I7_2 Cu9_2 1_555 1_555
I8_2 Cu5_2 1_555 1_555
Cu9_2 I4_2 1_555 1_555
Cu10_2 N9_2 1_555 1_555
Cu10 I2_2 1_555 1_555
Cu12_2 I3_2 1_555 1_555
Cu13_2 I1_2 1_555 1_555
N11_2 Cu7_2 1_555 1_555
I2_2 Cu6_2 1_555 1_555
N9_2 C28_2 1_555 1_555
N9_2 C29_2 1_555 1_555
N10_2 C31_2 1_555 1_555
N10_2 C32_2 1_555 1_555
I3_2 Cu8_2 1_555 1_555
I4_2 Cu8_2 1_555 1_555
I5_2 Cu9_2 1_555 1_555
I5_2 Cu12_2 1_555 1_555
I7_2 Cu12_2 1_555 1_555
I8_2 Cu10 1_555 1_555
I8_2 Cu13_2 1_555 1_555
I1_3 Cu5_3 1_555 1_555
I2_3 Cu5_3 1_555 1_555
Cu5_3 N7_3 1_555 1_555
Cu6_3 I1_3 1_555 1_555
N7_3 C21_3 1_555 1_555
N8_3 Cu6_3 1_555 1_555
C21_3 H13_3 1_555 1_555
H14_3 C21_3 1_555 1_555
C22_3 N7_3 1_555 1_555
H15_3 C22_3 1_555 1_555
H16_3 C22_3 1_555 1_555
C23_3 N7_3 1_555 1_555
H17_3 C23_3 1_555 1_555
H18_3 C23_3 1_555 1_555
C24_3 N8_3 1_555 1_555
H19_3 C24_3 1_555 1_555
H20_3 C24_3 1_555 1_555
C25_3 N8_3 1_555 1_555
H21_3 C25_3 1_555 1_555
H22_3 C25_3 1_555 1_555
C26_3 N8_3 1_555 1_555
H23_3 C26_3 1_555 1_555
H24_3 C26_3 1_555 1_555
N9_3 C27_3 1_555 1_555
C27_3 C21_3 1_555 1_555
H25_3 C27_3 1_555 1_555
H26_3 C27_3 1_555 1_555
C28_3 C23_3 1_555 1_555
H27_3 C28_3 1_555 1_555
H28_3 C28_3 1_555 1_555
C29_3 C22_3 1_555 1_555
H29_3 C29_3 1_555 1_555
H30_3 C29_3 1_555 1_555
I6_3 Cu6_3 1_555 1_555
I8_3 Cu5_3 1_555 1_555
Cu11 N9_3 1_555 1_555
Cu10_2 I2_3 1_555 1_555
Cu13_3 I1_3 1_555 1_555
I2_3 Cu6_3 1_555 1_555
N9_3 C28_3 1_555 1_555
N9_3 C29_3 1_555 1_555
I6_3 Cu10_2 1_555 1_555
I6_3 Cu13_3 1_555 1_555
I8_3 Cu10_2 1_555 1_555
I8_3 Cu13_3 1_555 1_555
N10_3 C30_3 1_555 1_555
H31_3 C30_3 1_555 1_555
H32_3 C30_3 1_555 1_555
H33_3 C31_3 1_555 1_555
H34_3 C31_3 1_555 1_555
H35_3 C32_3 1_555 1_555
H36_3 C32_3 1_555 1_555
I3_3 Cu7_3 1_555 1_555
I4_3 Cu7_3 1_555 1_555
Cu7_3 I7_3 1_555 1_555
Cu8_3 N10_3 1_555 1_555
I5_3 Cu8_3 1_555 1_555
I7_3 Cu9_3 1_555 1_555
Cu9_3 I4_3 1_555 1_555
Cu12_3 I3_3 1_555 1_555
N11_3 Cu7_3 1_555 1_555
N10_3 C31_3 1_555 1_555
N10_3 C32_3 1_555 1_555
I3_3 Cu8_3 1_555 1_555
I4_3 Cu8_3 1_555 1_555
I5_3 Cu9_3 1_555 1_555
I5_3 Cu12_3 1_555 1_555
I7_3 Cu12_3 1_555 1_555
Cu9_2 N7_4 1_555 1_555
N7_4 C21_4 1_555 1_555
N8_4 Cu12_2 1_555 1_555
C21_4 H13_4 1_555 1_555
H14_4 C21_4 1_555 1_555
C22_4 N7_4 1_555 1_555
H15_4 C22_4 1_555 1_555
H16_4 C22_4 1_555 1_555
C23_4 N7_4 1_555 1_555
H17_4 C23_4 1_555 1_555
H18_4 C23_4 1_555 1_555
C24_4 N8_4 1_555 1_555
H19_4 C24_4 1_555 1_555
H20_4 C24_4 1_555 1_555
C25_4 N8_4 1_555 1_555
H21_4 C25_4 1_555 1_555
H22_4 C25_4 1_555 1_555
C26_4 N8_4 1_555 1_555
H23_4 C26_4 1_555 1_555
H24_4 C26_4 1_555 1_555
N11_3 C27_4 1_555 1_555
C27_4 C21_4 1_555 1_555
H25_4 C27_4 1_555 1_555
H26_4 C27_4 1_555 1_555
C28_4 C23_4 1_555 1_555
H27_4 C28_4 1_555 1_555
H28_4 C28_4 1_555 1_555
C29_4 C22_4 1_555 1_555
H29_4 C29_4 1_555 1_555
H30_4 C29_4 1_555 1_555
N11_3 C28_4 1_555 1_555
N11_3 C29_4 1_555 1_555
N10_4 C30_4 1_555 1_555
H31_4 C30_4 1_555 1_555
H32_4 C30_4 1_555 1_555
H33_4 C31_4 1_555 1_555
H34_4 C31_4 1_555 1_555
H35_4 C32_4 1_555 1_555
H36_4 C32_4 1_555 1_555
Cu13_3 N10_4 1_555 1_555
N10_4 C31_4 1_555 1_555
N10_4 C32_4 1_555 1_555
Cu9_3 N7_5 1_555 1_555
N7_5 C21_5 1_555 1_555
N8_5 Cu12_3 1_555 1_555
C21_5 H13_5 1_555 1_555
H14_5 C21_5 1_555 1_555
C22_5 N7_5 1_555 1_555
H15_5 C22_5 1_555 1_555
H16_5 C22_5 1_555 1_555
C23_5 N7_5 1_555 1_555
H17_5 C23_5 1_555 1_555
H18_5 C23_5 1_555 1_555
C24_5 N8_5 1_555 1_555
H19_5 C24_5 1_555 1_555
H20_5 C24_5 1_555 1_555
C25_5 N8_5 1_555 1_555
H21_5 C25_5 1_555 1_555
H22_5 C25_5 1_555 1_555
C26_5 N8_5 1_555 1_555
H23_5 C26_5 1_555 1_555
H24_5 C26_5 1_555 1_555
N11 C27_5 1_555 1_555
C27_5 C21_5 1_555 1_555
H25_5 C27_5 1_555 1_555
H26_5 C27_5 1_555 1_555
C28_5 C23_5 1_555 1_555
H27_5 C28_5 1_555 1_555
H28_5 C28_5 1_555 1_555
C29_5 C22_5 1_555 1_555
H29_5 C29_5 1_555 1_555
H30_5 C29_5 1_555 1_555
N10_5 C30_5 1_555 1_555
C30_5 C25_5 1_555 1_555
H31_5 C30_5 1_555 1_555
H32_5 C30_5 1_555 1_555
C31_5 C24_5 1_555 1_555
H33_5 C31_5 1_555 1_555
H34_5 C31_5 1_555 1_555
C32_5 C26_5 1_555 1_555
H35_5 C32_5 1_555 1_555
H36_5 C32_5 1_555 1_555
Cu13 N10_5 1_555 1_555
N11 C28_5 1_555 1_555
N11 C29_5 1_555 1_555
N10_5 C31_5 1_555 1_555
N10_5 C32_5 1_555 1_555
N10_6 C30_6 1_555 1_555
H31_6 C30_6 1_555 1_555
H32_6 C30_6 1_555 1_555
H36_6 C32_6 1_555 1_555
Cu13_2 N10_6 1_555 1_555
N10_6 C32_6 1_555 1_555
H33_6 C31_6 1_555 1_555
H34_6 C31_6 1_555 1_555
N7_6 C21_6 1_555 1_555
C21_6 H13_6 1_555 1_555
H14_6 C21_6 1_555 1_555
C22_6 N7_6 1_555 1_555
H15_6 C22_6 1_555 1_555
H16_6 C22_6 1_555 1_555
C23_6 N7_6 1_555 1_555
H17_6 C23_6 1_555 1_555
H21_6 C25_6 1_555 1_555
H22_6 C25_6 1_555 1_555
N11_2 C27_6 1_555 1_555
C27_6 C21_6 1_555 1_555
H25_6 C27_6 1_555 1_555
H26_6 C27_6 1_555 1_555
C28_6 C23_6 1_555 1_555
H27_6 C28_6 1_555 1_555
H28_6 C28_6 1_555 1_555
C29_6 C22_6 1_555 1_555
H29_6 C29_6 1_555 1_555
H30_6 C29_6 1_555 1_555
N11_2 C28_6 1_555 1_555
N11_2 C29_6 1_555 1_555
N8_6 Cu12 1_555 1_555
C24_6 N8_6 1_555 1_555
H19_6 C24_6 1_555 1_555
H20_6 C24_6 1_555 1_555
C26_6 N8_6 1_555 1_555
H24_6 C26_6 1_555 1_555

#END
