
###############################################################################
#
# This file contains modified crystal structure data generated from the
# MOF subset of the Cambridge Structural Database (CSD) v543 
# hosted by the Cambridge Crystallographic Data Centre (CCDC).
#
# This work is licensed under the Creative Commons
# Attribution-NonCommercial-ShareAlike 4.0 International License.
# To view a copy of this license, visit
# http://creativecommons.org/licenses/by-nc-sa/4.0/
# or send a letter to
# Creative Commons, PO Box 1866, Mountain View, CA 94042, USA.
#
# CIF created using the CSD Python API on 29 September 2022
# The structure has been converted into the P1 space group
# The structure has a 3D framework
# The original CSD entry TAFVAA is in the hexagonal crystal system
# The original CSD entry TAFVAA is in a Sohncke space group
# The framework has been calculated to contain at least 10.0% void space
# The void calculation uses a probe of radius 1.32A, grid spacing 0.4
#
###############################################################################

data_TAFVAA
_chemical_formula_moiety         '(C192 H216 Cu32 I14 N44)n'
_symmetry_cell_setting           triclinic
_symmetry_space_group_name_H-M   'P 1'
_symmetry_Int_Tables_number      1
_space_group_name_Hall           'P 1'
loop_
_symmetry_equiv_pos_site_id
_symmetry_equiv_pos_as_xyz
1 x,y,z
_cell_length_a                   22.920(3)
_cell_length_b                   22.920(3)
_cell_length_c                   22.270(5)
_cell_angle_alpha                90
_cell_angle_beta                 90
_cell_angle_gamma                120
_cell_volume                     10131.6
loop_
_atom_site_label
_atom_site_type_symbol
_atom_site_fract_x
_atom_site_fract_y
_atom_site_fract_z
Cu1 Cu 0.08317(9) 0.21976(10) 0.39233(7)
N1 N 0.1469(6) 0.2253(6) 0.4502(4)
N2 N 0.2034(5) 0.1935(6) 0.5103(4)
C1 C 0.1526(9) 0.0763(4) 0.4167
H1 H 0.1994 0.0997 0.4167
C2 C 0.1218(7) 0.1063(7) 0.4404(5)
C3 C 0.0505(8) 0.0705(8) 0.4369(6)
H2 H 0.0266 0.0914 0.4493
C4 C 0.0178(10) 0.0089(5) 0.4167
C5 C 0.1576(7) 0.1760(8) 0.4657(5)
C6 C 0.2229(5) 0.2577(4) 0.5227(5)
C7 C 0.1884(5) 0.2787(5) 0.4853(4)
C8 C 0.2012(5) 0.3446(5) 0.4883(4)
H4 H 0.1782 0.3587 0.4633
C9 C 0.2485(6) 0.3896(4) 0.5288(5)
H5 H 0.2571 0.4337 0.5308
C10 C 0.2830(5) 0.3686(5) 0.5662(4)
H6 H 0.3147 0.3986 0.5933
C11 C 0.2702(5) 0.3026(5) 0.5632(4)
H7 H 0.2933 0.2885 0.5882
N4 N 0.2034(5) 0.0099(8) 0.3230(4)
C12 C 0.1218(7) 0.0155(10) 0.3929(5)
H12 H 0.2933 0.0048 0.2451
Cu2 Cu 0.21976(10) 0.08317(9) 0.27434(7)
Cu3 Cu 0.21976(10) 0.13659(13) 0.55900(7)
N5 N 0.2253(6) 0.1469(6) 0.2165(4)
N6 N 0.0099(8) 0.2034(5) 0.3436(4)
N3 N 0.0784(8) 0.2253(10) 0.0498(4)
C13 C 0.0200(11) 0.0705(14) 0.0631(6)
H8 H 0.0648 0.0914 0.0507
C14 C 0.0184(11) 0.1760(13) 0.0343(5)
C16 C 0.0903(7) 0.2787(9) 0.0147(4)
C17 C 0.1434(7) 0.3446(9) 0.0117(4)
H9 H 0.1805 0.3587 0.0367
Cu4 Cu 0.13659(13) 0.21976(16) 0.10767(7)
N1_2 N 0.2253(6) 0.0784(8) 0.6169(4)
C3_2 C 0.0705(8) 0.0200(11) 0.6036(6)
H2_2 H 0.0914 0.0648 0.6160
C5_2 C 0.1760(8) 0.0184(11) 0.6324(5)
C6_2 C 0.2577(4) 0.0348(6) 0.6894(5)
C7_2 C 0.2787(5) 0.0903(7) 0.6520(4)
C8_2 C 0.3446(5) 0.1434(7) 0.6550(4)
H4_2 H 0.3587 0.1805 0.6300
C9_2 C 0.3896(4) 0.1411(7) 0.6955(5)
H5_2 H 0.4337 0.1766 0.6975
C10_2 C 0.3686(5) 0.0856(7) 0.7329(4)
H6_2 H 0.3986 0.0839 0.7600
C11_2 C 0.3026(5) 0.0324(7) 0.7299(4)
C1_2 C 0.0763(10) 0.1526(9) 0.2500
H1_2 H 0.0997 0.1994 0.2500
C2_2 C 0.0155(10) 0.1218(7) 0.2737(5)
C4_2 C 0.0089(11) 0.0178(10) 0.2500
H7_2 H 0.0048 0.2933 0.4215
N4_2 N 0.1935(9) 0.2034(5) 0.1564(4)
C12_2 C 0.1063(12) 0.1218(7) 0.2263(5)
C13_2 C 0.0705(14) 0.0505(8) 0.2298(6)
H8_2 H 0.0914 0.0266 0.2174
C14_2 C 0.1760(13) 0.1576(7) 0.2010(5)
C15 C 0.2577(8) 0.2229(5) 0.1440(5)
C16_2 C 0.2787(9) 0.1884(5) 0.1814(4)
C17_2 C 0.3446(9) 0.2012(5) 0.1784(4)
H9_2 H 0.3587 0.1782 0.2034
C18 C 0.3896(9) 0.2485(6) 0.1379(5)
H10 H 0.4337 0.2571 0.1359
C19 C 0.3686(9) 0.2830(5) 0.1005(4)
H11 H 0.3986 0.3147 0.0734
C20 C 0.3026(9) 0.2702(5) 0.1035(4)
H12_2 H 0.2885 0.2933 0.0785
N3_2 N 0.1469(6) 0.9216(8) 0.3831(4)
C13_3 C 0.0505(8) 0.9800(11) 0.3964(6)
H8_3 H 0.0266 0.9352 0.3840
C14_3 C 0.1576(7) 0.9816(11) 0.3676(5)
C15_2 C 0.2229(5) 0.9652(6) 0.3106(5)
C16_3 C 0.1884(5) 0.9097(7) 0.3480(4)
C17_3 C 0.2012(5) 0.8566(7) 0.3450(4)
H9_3 H 0.1782 0.8195 0.3700
C18_2 C 0.2485(6) 0.8589(7) 0.3045(5)
H10_2 H 0.2571 0.8234 0.3025
C19_2 C 0.2830(5) 0.9144(7) 0.2671(4)
H11_2 H 0.3147 0.9161 0.2400
C20_2 C 0.2702(5) 0.9676(7) 0.2701(4)
Cu4_2 Cu 0.08317(9) 0.86341(13) 0.44100(7)
Cu1_2 Cu 0.13659(13) 0.91683(9) 0.72566(7)
N1_3 N 0.0784(8) 0.8531(6) 0.7835(4)
C3_3 C 0.0200(11) 0.9495(8) 0.7702(6)
H2_3 H 0.0648 0.9734 0.7826
C5_3 C 0.0184(11) 0.8424(7) 0.7990(5)
C6_3 C 0.0348(6) 0.7771(5) 0.8560(5)
C7_3 C 0.0903(7) 0.8116(5) 0.8186(4)
C8_3 C 0.1434(7) 0.7988(5) 0.8216(4)
H4_3 H 0.1805 0.8218 0.7966
C9_3 C 0.1411(7) 0.7515(6) 0.8621(5)
H5_3 H 0.1766 0.7429 0.8641
C10_3 C 0.0856(7) 0.7170(5) 0.8995(4)
H6_3 H 0.0839 0.6853 0.9266
C11_3 C 0.0324(7) 0.7298(5) 0.8965(4)
N6_2 N 0.1935(9) 0.9901(8) 0.6770(4)
C1_3 C 0.0763(4) 0.9237(10) 0.5834
H1_3 H 0.0997 0.9003 0.5834
C2_3 C 0.1063(7) 0.9845(10) 0.6071(5)
C4_3 C 0.0089(5) 0.9911(11) 0.5834
H7_3 H 0.2885 0.9952 0.7549
N4_3 N 0.0099(8) 0.8065(9) 0.4897(4)
C12_3 C 0.0155(10) 0.8937(12) 0.5596(5)
H12_3 H 0.0048 0.7115 0.4118
H3 H 0.9709 0.9855 0.4167
C15_3 C 0.0348(6) 0.2577(8) 0.9773(5)
C18_3 C 0.1411(7) 0.3896(9) 0.9712(5)
H10_3 H 0.1766 0.4337 0.9692
C19_3 C 0.0856(7) 0.3686(9) 0.9338(4)
H11_3 H 0.0839 0.3986 0.9067
C20_3 C 0.0324(7) 0.3026(9) 0.9368(4)
H3_2 H 0.0145 0.9854 0.0834
N2_2 N 0.8065(6) 0.0099(8) 0.1770(4)
C1_4 C 0.9237(4) 0.0763(10) 0.0834
H1_4 H 0.9003 0.0997 0.0834
C2_4 C 0.8937(7) 0.0155(10) 0.1071(5)
C4_4 C 0.9911(5) 0.0089(11) 0.0834
H7_4 H 0.7115 0.0048 0.2549
C12_4 C 0.9845(10) 0.1063(12) 0.0596(5)
Cu3_2 Cu 0.86341(13) 0.08317(16) 0.22566(7)
N1_4 N 0.9216(8) 0.1469(6) 0.2835(4)
C3_4 C 0.9800(11) 0.0505(8) 0.2702(6)
H2_4 H 0.9352 0.0266 0.2826
C5_4 C 0.9816(11) 0.1576(7) 0.2990(5)
C6_4 C 0.9652(6) 0.2229(5) 0.3560(5)
C7_4 C 0.9097(7) 0.1884(5) 0.3186(4)
C8_4 C 0.8566(7) 0.2012(5) 0.3216(4)
H4_4 H 0.8195 0.1782 0.2966
C9_4 C 0.8589(7) 0.2485(6) 0.3621(5)
H5_4 H 0.8234 0.2571 0.3641
C10_4 C 0.9144(7) 0.2830(5) 0.3995(4)
H6_4 H 0.9161 0.3147 0.4266
C11_4 C 0.9676(7) 0.2702(5) 0.3965(4)
N4_4 N 0.9901(8) 0.1935(9) 0.9897(4)
H12_4 H 0.9952 0.2885 0.9118
Cu2_2 Cu 0.91683(9) 0.13659(13) 0.94100(7)
N5_2 N 0.8531(6) 0.0784(8) 0.8831(4)
C13_4 C 0.9495(8) 0.0200(11) 0.8964(6)
H8_4 H 0.9734 0.0648 0.8840
C14_4 C 0.8424(7) 0.0184(11) 0.8676(5)
C15_4 C 0.7771(5) 0.0348(6) 0.8106(5)
C16_4 C 0.8116(5) 0.0903(7) 0.8480(4)
C17_4 C 0.7988(5) 0.1434(7) 0.8450(4)
H9_4 H 0.8218 0.1805 0.8700
C18_4 C 0.7515(6) 0.1411(7) 0.8045(5)
H10_4 H 0.7429 0.1766 0.8025
C19_4 C 0.7170(5) 0.0856(7) 0.7671(4)
H11_4 H 0.6853 0.0839 0.7400
C20_4 C 0.7298(5) 0.0324(7) 0.7701(4)
Cu1_3 Cu 0.78024(10) 0.86341(13) 0.05900(7)
N1_5 N 0.7747(6) 0.9216(8) 0.1169(4)
C3_5 C 0.9295(8) 0.9800(11) 0.1036(6)
H2_5 H 0.9086 0.9352 0.1160
C5_5 C 0.8240(8) 0.9816(11) 0.1324(5)
C6_5 C 0.7423(4) 0.9652(6) 0.1894(5)
C7_5 C 0.7213(5) 0.9097(7) 0.1520(4)
C8_5 C 0.6554(5) 0.8566(7) 0.1550(4)
H4_5 H 0.6413 0.8195 0.1300
C9_5 C 0.6104(4) 0.8589(7) 0.1955(5)
H5_5 H 0.5663 0.8234 0.1975
C10_5 C 0.6314(5) 0.9144(7) 0.2329(4)
H6_5 H 0.6014 0.9161 0.2600
C11_5 C 0.6974(5) 0.9676(7) 0.2299(4)
N6_3 N 0.7966(5) 0.8065(9) 0.0103(4)
C6_6 C 0.7771(5) 0.7423(4) 0.0227(5)
C9_6 C 0.7515(6) 0.6104(4) 0.0288(5)
H5_6 H 0.7429 0.5663 0.0308
C10_6 C 0.7170(5) 0.6314(5) 0.0662(4)
H6_6 H 0.6853 0.6014 0.0933
C11_6 C 0.7298(5) 0.6974(5) 0.0632(4)
H7_5 H 0.7067 0.7115 0.0882
H3_3 H 0.0146 0.0291 0.7500
N2_3 N 0.9901(8) 0.7966(5) 0.8436(4)
C1_5 C 0.9237(10) 0.8474(9) 0.7500
H1_5 H 0.9003 0.8006 0.7500
C2_5 C 0.9845(10) 0.8782(7) 0.7737(5)
C4_5 C 0.9911(11) 0.9822(10) 0.7500
H7_6 H 0.9952 0.7067 0.9215
N3_3 N 0.7747(10) 0.8531(6) 0.7165(4)
N4_5 N 0.8065(9) 0.7966(5) 0.6564(4)
C12_5 C 0.8937(12) 0.8782(7) 0.7263(5)
C13_5 C 0.9295(14) 0.9495(8) 0.7298(6)
H8_5 H 0.9086 0.9734 0.7174
C14_5 C 0.8240(13) 0.8424(7) 0.7010(5)
C15_5 C 0.7423(8) 0.7771(5) 0.6440(5)
C16_5 C 0.7213(9) 0.8116(5) 0.6814(4)
C17_5 C 0.6554(9) 0.7988(5) 0.6784(4)
H9_5 H 0.6413 0.8218 0.7034
C18_5 C 0.6104(9) 0.7515(6) 0.6379(5)
H10_5 H 0.5663 0.7429 0.6359
C19_5 C 0.6314(9) 0.7170(5) 0.6005(4)
H11_5 H 0.6014 0.6853 0.5734
C20_5 C 0.6974(9) 0.7298(5) 0.6035(4)
H12_5 H 0.7115 0.7067 0.5785
Cu2_3 Cu 0.86341(13) 0.78024(10) 0.60767(7)
Cu3_3 Cu 0.91683(16) 0.78024(10) 0.89233(7)
Cu4_3 Cu 0.78024(16) 0.91683(9) 0.77434(7)
N5_3 N 0.9216(8) 0.7747(6) 0.5498(4)
N1_6 N 0.8531(6) 0.7747(6) 0.9502(4)
C1_6 C 0.8474(9) 0.9237(4) 0.9167
H1_6 H 0.8006 0.9003 0.9167
C2_6 C 0.8782(7) 0.8937(7) 0.9404(5)
C3_6 C 0.9495(8) 0.9295(8) 0.9369(6)
H2_6 H 0.9734 0.9086 0.9493
C4_6 C 0.9822(10) 0.9911(5) 0.9167
C5_6 C 0.8424(7) 0.8240(8) 0.9657(5)
C7_6 C 0.8116(5) 0.7213(5) 0.9853(4)
C8_6 C 0.7988(5) 0.6554(5) 0.9883(4)
H4_6 H 0.8218 0.6413 0.9633
N4_6 N 0.7966(5) 0.9901(8) 0.8230(4)
C12_6 C 0.8782(7) 0.9845(10) 0.8929(5)
H12_6 H 0.7067 0.9952 0.7451
C13_6 C 0.9800(11) 0.9295(14) 0.5631(6)
H8_6 H 0.9352 0.9086 0.5507
C14_6 C 0.9816(11) 0.8240(13) 0.5343(5)
C15_6 C 0.9652(6) 0.7423(8) 0.4773(5)
C16_6 C 0.9097(7) 0.7213(9) 0.5147(4)
C17_6 C 0.8566(7) 0.6554(9) 0.5117(4)
H9_6 H 0.8195 0.6413 0.5367
C18_6 C 0.8589(7) 0.6104(9) 0.4712(5)
H10_6 H 0.8234 0.5663 0.4692
C19_6 C 0.9144(7) 0.6314(9) 0.4338(4)
H11_6 H 0.9161 0.6014 0.4067
C20_6 C 0.9676(7) 0.6974(9) 0.4368(4)
H3_4 H 0.0291 0.0145 0.9167
H3_5 H 0.9855 0.0146 0.5834
H3_6 H 0.9854 0.9709 0.2500
N9 N 0.0620(6) 0.6886(8) 0.6447(5)
C27 C 0.0583(7) 0.6598(10) 0.7034(6)
H25 H 0.0858 0.6957 0.7313
H26 H 0.0769 0.6300 0.7010
C28 C 0.0139(8) 0.6339(11) 0.6051(6)
H27 H 0.0271 0.5999 0.6016
H28 H 0.0154 0.6519 0.5654
C29 C 0.0361(7) 0.7370(11) 0.6497(6)
H29 H 0.0313 0.7514 0.6099
H30 H 0.0680 0.7765 0.6721
I3 I 0.15325(5) 0.76271(7) 0.49544(4)
I4 I 0.18950(5) 0.63426(7) 0.62442(4)
Cu7 Cu 0.15846(9) 0.73423(13) 0.61088(8)
Cu8 Cu 0.23525(11) 0.71656(15) 0.52905(7)
I5 I 0.23729(7) 0.84675(5) 0.67122(4)
I7 I 0.36574(7) 0.81050(5) 0.54224(4)
Cu9 Cu 0.26577(13) 0.84154(9) 0.55578(8)
Cu11 Cu 0.28344(15) 0.76475(11) 0.63761(7)
N11 N 0.2348(7) 0.6554(9) 0.4600(5)
H35 H 0.7486 0.4030 0.0145
Cu13 Cu 0.76475(11) 0.28344(15) 0.02905(7)
I1 I 0.84675(5) 0.60946(5) 0.83789(4)
I2 I 0.81050(5) 0.44476(5) 0.70891(4)
Cu5 Cu 0.84154(9) 0.57577(10) 0.72245(8)
Cu6 Cu 0.76475(11) 0.48131(10) 0.80428(7)
N7 N 0.9380(6) 0.6266(6) 0.6886(5)
N8 N 0.7652(7) 0.4206(6) 0.8733(5)
C21 C 0.9417(7) 0.6015(7) 0.6299(6)
H13 H 0.9142 0.6099 0.6020
H14 H 0.9231 0.5531 0.6323
C22 C 0.9861(8) 0.6200(8) 0.7282(6)
H15 H 0.9729 0.5728 0.7317
H16 H 0.9846 0.6365 0.7679
C23 C 0.9639(7) 0.7009(8) 0.6836(6)
H17 H 0.9687 0.7201 0.7234
H18 H 0.9320 0.7085 0.6612
C24 C 0.7326(9) 0.4302(9) 0.9270(6)
H19 H 0.6876 0.4211 0.9172
H20 H 0.7586 0.4762 0.9414
C25 C 0.8322(9) 0.4364(9) 0.8890(7)
H21 H 0.8592 0.4842 0.8976
H22 H 0.8526 0.4265 0.8553
C26 C 0.7295(10) 0.3510(8) 0.8558(6)
H23 H 0.7486 0.3456 0.8188
H24 H 0.6827 0.3375 0.8482
N10 N 0.7652(7) 0.3446(9) 0.9600(5)
C30 C 0.7326(9) 0.3024(13) 0.9063(6)
H31 H 0.6876 0.2665 0.9161
H32 H 0.7586 0.2824 0.8919
C31 C 0.8322(9) 0.3958(13) 0.9443(7)
H33 H 0.8592 0.3750 0.9357
H34 H 0.8526 0.4261 0.9780
C32 C 0.7295(10) 0.3785(13) 0.9775(6)
H36 H 0.6827 0.3452 0.9851
I6 I 0.76271(7) 0.60946(5) 0.66211(4)
I8 I 0.63426(7) 0.44476(5) 0.79109(4)
Cu10 Cu 0.73423(13) 0.57577(10) 0.77755(8)
Cu12 Cu 0.71656(15) 0.48131(10) 0.69572(7)
I1_2 I 0.39054(5) 0.23729(7) 0.50456(4)
I2_2 I 0.55524(5) 0.36574(7) 0.37558(4)
Cu5_2 Cu 0.42423(10) 0.26577(13) 0.38912(8)
Cu6_2 Cu 0.51869(10) 0.28344(15) 0.47095(7)
N7_2 N 0.3734(6) 0.3114(8) 0.3553(5)
N8_2 N 0.5794(6) 0.3446(9) 0.5400(5)
C21_2 C 0.3985(7) 0.3402(10) 0.2966(6)
H13_2 H 0.3901 0.3043 0.2687
H14_2 H 0.4469 0.3700 0.2990
C22_2 C 0.3800(8) 0.3661(11) 0.3949(6)
H15_2 H 0.4272 0.4001 0.3984
H16_2 H 0.3635 0.3481 0.4346
C23_2 C 0.2991(8) 0.2630(11) 0.3503(6)
H17_2 H 0.2799 0.2486 0.3901
H18_2 H 0.2915 0.2235 0.3279
C24_2 C 0.5698(9) 0.3024(13) 0.5937(6)
H19_2 H 0.5789 0.2665 0.5839
H20_2 H 0.5238 0.2824 0.6081
C25_2 C 0.5636(9) 0.3958(13) 0.5557(7)
H21_2 H 0.5158 0.3750 0.5643
H22_2 H 0.5735 0.4261 0.5220
C26_2 C 0.6490(8) 0.3785(13) 0.5225(6)
H23_2 H 0.6544 0.4030 0.4855
H24_2 H 0.6625 0.3452 0.5149
N9_2 N 0.3114(8) 0.3734(10) 0.3114(5)
C27_2 C 0.3402(10) 0.3985(12) 0.3701(6)
H25_2 H 0.3043 0.3901 0.3980
H26_2 H 0.3700 0.4469 0.3677
C28_2 C 0.3661(11) 0.3800(14) 0.2718(6)
H27_2 H 0.4001 0.4272 0.2683
H28_2 H 0.3481 0.3635 0.2321
C29_2 C 0.2630(11) 0.2991(13) 0.3164(6)
H29_2 H 0.2486 0.2799 0.2766
H30_2 H 0.2235 0.2915 0.3388
N10_2 N 0.6554(9) 0.4206(11) 0.6267(5)
C30_2 C 0.6976(13) 0.4302(16) 0.5730(6)
H31_2 H 0.7335 0.4211 0.5828
H32_2 H 0.7176 0.4762 0.5586
C31_2 C 0.6042(13) 0.4364(16) 0.6110(7)
H33_2 H 0.6250 0.4842 0.6024
H34_2 H 0.5739 0.4265 0.6447
C32_2 C 0.6215(13) 0.3510(16) 0.6442(6)
H35_2 H 0.5970 0.3456 0.6812
H36_2 H 0.6548 0.3375 0.6518
I3_2 I 0.23729(7) 0.39054(9) 0.16211(4)
I4_2 I 0.36574(7) 0.55524(9) 0.29109(4)
Cu7_2 Cu 0.26577(13) 0.42423(16) 0.27755(8)
Cu8_2 Cu 0.28344(15) 0.51869(19) 0.19572(7)
I5_2 I 0.15325(5) 0.39054(9) 0.33789(4)
I6_2 I 0.39054(5) 0.15325(9) 0.32878(4)
I7_2 I 0.18950(5) 0.55524(9) 0.20891(4)
I8_2 I 0.55524(5) 0.18950(9) 0.45776(4)
Cu9_2 Cu 0.15846(9) 0.42423(16) 0.22245(8)
Cu10_2 Cu 0.42423(10) 0.15846(16) 0.44422(8)
Cu11_2 Cu 0.23525(11) 0.51869(19) 0.30428(7)
Cu12_2 Cu 0.51869(10) 0.23525(18) 0.36239(7)
N11_2 N 0.3446(9) 0.5794(11) 0.1267(5)
I1_3 I 0.76271(7) 0.15325(5) 0.17122(4)
I2_3 I 0.63426(7) 0.18950(5) 0.04224(4)
Cu5_3 Cu 0.73423(13) 0.15846(9) 0.05578(8)
Cu6_3 Cu 0.71656(15) 0.23525(11) 0.13761(7)
N7_3 N 0.6886(8) 0.0620(6) 0.0219(5)
N8_3 N 0.6554(9) 0.2348(7) 0.2066(5)
C22_3 C 0.6339(11) 0.0139(8) 0.0615(6)
H15_3 H 0.5999 0.0271 0.0650
H16_3 H 0.6519 0.0154 0.1012
C23_3 C 0.7370(11) 0.0361(7) 0.0169(6)
H17_3 H 0.7514 0.0313 0.0567
C24_3 C 0.6976(13) 0.2674(9) 0.2603(6)
H19_3 H 0.7335 0.3124 0.2505
H20_3 H 0.7176 0.2414 0.2747
C25_3 C 0.6042(13) 0.1678(9) 0.2223(7)
H21_3 H 0.6250 0.1408 0.2309
H22_3 H 0.5739 0.1474 0.1886
C26_3 C 0.6215(13) 0.2705(10) 0.1891(6)
H23_3 H 0.5970 0.2514 0.1521
H24_3 H 0.6548 0.3173 0.1815
N10_3 N 0.5794(11) 0.2348(7) 0.2934(5)
C30_3 C 0.5698(16) 0.2674(9) 0.2397(6)
H31_3 H 0.5789 0.3124 0.2495
H32_3 H 0.5238 0.2414 0.2253
C31_3 C 0.5636(16) 0.1678(9) 0.2777(7)
H33_3 H 0.5158 0.1408 0.2691
H34_3 H 0.5735 0.1474 0.3114
C32_3 C 0.6490(16) 0.2705(10) 0.3109(6)
H35_3 H 0.6544 0.2514 0.3479
H36_3 H 0.6625 0.3173 0.3185
I8_3 I 0.81050(9) 0.36574(7) 0.12442(4)
Cu10_3 Cu 0.84154(16) 0.26577(13) 0.11088(8)
C21_3 C 0.6598(10) 0.0583(7) 0.9632(6)
H13_3 H 0.6957 0.0858 0.9353
H14_3 H 0.6300 0.0769 0.9656
H18_3 H 0.7765 0.0680 0.9945
I6_3 I 0.84675(9) 0.23729(7) 0.99544(4)
C27_3 C 0.6015(12) 0.9417(7) 0.0368(6)
H25_3 H 0.6099 0.9142 0.0647
H26_3 H 0.5531 0.9231 0.0344
H30_3 H 0.7085 0.9320 0.0055
I5_3 I 0.60946(9) 0.76271(7) 0.00456(4)
N9_3 N 0.6266(10) 0.9380(6) 0.9781(5)
C28_3 C 0.6200(14) 0.9861(8) 0.9385(6)
H27_3 H 0.5728 0.9729 0.9350
H28_3 H 0.6365 0.9846 0.8988
C29_3 C 0.7009(13) 0.9639(7) 0.9831(6)
H29_3 H 0.7201 0.9687 0.9433
I3_3 I 0.60946(9) 0.84675(5) 0.82878(4)
I4_3 I 0.44476(9) 0.81050(5) 0.95776(4)
Cu7_3 Cu 0.57577(16) 0.84154(9) 0.94422(8)
Cu8_3 Cu 0.48131(19) 0.76475(11) 0.86239(7)
I7_3 I 0.44476(9) 0.63426(7) 0.87558(4)
Cu9_3 Cu 0.57577(16) 0.73423(13) 0.88912(8)
Cu11_3 Cu 0.48131(19) 0.71656(15) 0.97095(7)
N11_3 N 0.4206(11) 0.7652(7) 0.7934(5)
N7_4 N 0.0620(6) 0.3734(6) 0.1886(5)
N8_4 N 0.2348(7) 0.5794(6) 0.3733(5)
C21_4 C 0.0583(7) 0.3985(7) 0.1299(6)
H13_4 H 0.0858 0.3901 0.1020
H14_4 H 0.0769 0.4469 0.1323
C22_4 C 0.0139(8) 0.3800(8) 0.2282(6)
H15_4 H 0.0271 0.4272 0.2317
H16_4 H 0.0154 0.3635 0.2679
C23_4 C 0.0361(7) 0.2991(8) 0.1836(6)
H17_4 H 0.0313 0.2799 0.2234
H18_4 H 0.0680 0.2915 0.1612
C24_4 C 0.2674(9) 0.5698(9) 0.4270(6)
H19_4 H 0.3124 0.5789 0.4172
H20_4 H 0.2414 0.5238 0.4414
C25_4 C 0.1678(9) 0.5636(9) 0.3890(7)
H21_4 H 0.1408 0.5158 0.3976
H22_4 H 0.1474 0.5735 0.3553
C26_4 C 0.2705(10) 0.6490(8) 0.3558(6)
H23_4 H 0.2514 0.6544 0.3188
H24_4 H 0.3173 0.6625 0.3482
C30_4 C 0.2674(9) 0.6976(13) 0.4063(6)
H31_4 H 0.3124 0.7335 0.4161
H32_4 H 0.2414 0.7176 0.3919
C31_4 C 0.1678(9) 0.6042(13) 0.4443(7)
H33_4 H 0.1408 0.6250 0.4357
H34_4 H 0.1474 0.5739 0.4780
C32_4 C 0.2705(10) 0.6215(13) 0.4775(6)
H35_4 H 0.2514 0.5970 0.5145
H36_4 H 0.3173 0.6548 0.4851
N9_4 N 0.9380(6) 0.3114(8) 0.1447(5)
C27_4 C 0.9417(7) 0.3402(10) 0.2034(6)
H25_4 H 0.9142 0.3043 0.2313
H26_4 H 0.9231 0.3700 0.2010
C28_4 C 0.9861(8) 0.3661(11) 0.1051(6)
H27_4 H 0.9729 0.4001 0.1016
H28_4 H 0.9846 0.3481 0.0654
C29_4 C 0.9639(7) 0.2630(11) 0.1497(6)
H29_4 H 0.9687 0.2486 0.1099
H30_4 H 0.9320 0.2235 0.1721
N8_5 N 0.4206(6) 0.6554(9) 0.0400(5)
C24_5 C 0.4302(9) 0.6976(13) 0.0937(6)
H19_5 H 0.4211 0.7335 0.0839
H20_5 H 0.4762 0.7176 0.1081
C25_5 C 0.4364(9) 0.6042(13) 0.0557(7)
H21_5 H 0.4842 0.6250 0.0643
H22_5 H 0.4265 0.5739 0.0220
C26_5 C 0.3510(8) 0.6215(13) 0.0225(6)
H24_5 H 0.3375 0.6548 0.0149
C30_5 C 0.3024(13) 0.5698(16) 0.0730(6)
H31_5 H 0.2665 0.5789 0.0828
H32_5 H 0.2824 0.5238 0.0586
C31_5 C 0.3958(13) 0.5636(16) 0.1110(7)
H33_5 H 0.3750 0.5158 0.1024
H34_5 H 0.4261 0.5735 0.1447
C32_5 C 0.3785(13) 0.6490(16) 0.1442(6)
H35_5 H 0.4030 0.6544 0.1812
H36_5 H 0.3452 0.6625 0.1518
N7_5 N 0.6266(6) 0.6886(8) 0.8553(5)
C21_5 C 0.6015(7) 0.6598(10) 0.7966(6)
H13_5 H 0.6099 0.6957 0.7687
H14_5 H 0.5531 0.6300 0.7990
C22_5 C 0.6200(8) 0.6339(11) 0.8949(6)
H15_5 H 0.5728 0.5999 0.8984
H16_5 H 0.6365 0.6519 0.9346
C23_5 C 0.7009(8) 0.7370(11) 0.8503(6)
H17_5 H 0.7201 0.7514 0.8901
H18_5 H 0.7085 0.7765 0.8279
H23_5 H 0.3456 0.5970 0.9855
N9_5 N 0.6886(8) 0.6266(10) 0.8114(5)
C27_5 C 0.6598(10) 0.6015(12) 0.8701(6)
H25_5 H 0.6957 0.6099 0.8980
H26_5 H 0.6300 0.5531 0.8677
C28_5 C 0.6339(11) 0.6200(14) 0.7718(6)
H27_5 H 0.5999 0.5728 0.7683
H28_5 H 0.6519 0.6365 0.7321
C29_5 C 0.7370(11) 0.7009(13) 0.8164(6)
H29_5 H 0.7514 0.7201 0.7766
H30_5 H 0.7765 0.7085 0.8388
N9_6 N 0.3734(10) 0.0620(6) 0.4781(5)
C27_6 C 0.3985(12) 0.0583(7) 0.5368(6)
H25_6 H 0.3901 0.0858 0.5647
H26_6 H 0.4469 0.0769 0.5344
C28_6 C 0.3800(14) 0.0139(8) 0.4385(6)
H27_6 H 0.4272 0.0271 0.4350
H28_6 H 0.3635 0.0154 0.3988
C29_6 C 0.2991(13) 0.0361(7) 0.4831(6)
H29_6 H 0.2799 0.0313 0.4433
H30_6 H 0.2915 0.0680 0.5055
N7_6 N 0.3114(8) 0.9380(6) 0.5219(5)
N8_6 N 0.3446(9) 0.7652(7) 0.7066(5)
C21_6 C 0.3402(10) 0.9417(7) 0.4632(6)
H13_6 H 0.3043 0.9142 0.4353
H14_6 H 0.3700 0.9231 0.4656
C22_6 C 0.3661(11) 0.9861(8) 0.5615(6)
H15_6 H 0.4001 0.9729 0.5650
H16_6 H 0.3481 0.9846 0.6012
C23_6 C 0.2630(11) 0.9639(7) 0.5169(6)
H17_6 H 0.2486 0.9687 0.5567
H18_6 H 0.2235 0.9320 0.4945
C24_6 C 0.3024(13) 0.7326(9) 0.7603(6)
H19_6 H 0.2665 0.6876 0.7505
H20_6 H 0.2824 0.7586 0.7747
C25_6 C 0.3958(13) 0.8322(9) 0.7223(7)
H21_6 H 0.3750 0.8592 0.7309
H22_6 H 0.4261 0.8526 0.6886
C26_6 C 0.3785(13) 0.7295(10) 0.6891(6)
H23_6 H 0.4030 0.7486 0.6521
H24_6 H 0.3452 0.6827 0.6815
C30_6 C 0.4302(16) 0.7326(9) 0.7397(6)
H31_6 H 0.4211 0.6876 0.7495
H32_6 H 0.4762 0.7586 0.7253
C31_6 C 0.4364(16) 0.8322(9) 0.7777(7)
H33_6 H 0.4842 0.8592 0.7691
H34_6 H 0.4265 0.8526 0.8114
C32_6 C 0.3510(16) 0.7295(10) 0.8109(6)
H35_6 H 0.3456 0.7486 0.8479
H36_6 H 0.3375 0.6827 0.8185
loop_
_geom_bond_atom_site_label_1
_geom_bond_atom_site_label_2
_geom_bond_site_symmetry_1
_geom_bond_site_symmetry_2
Cu1 N1 1_555 1_555
N1 C5 1_555 1_555
N2 C5 1_555 1_555
C1 H1 1_555 1_555
C2 C1 1_555 1_555
C3 C2 1_555 1_555
H2 C3 1_555 1_555
C4 C3 1_555 1_555
C5 C2 1_555 1_555
C6 N2 1_555 1_555
C7 N1 1_555 1_555
C8 C7 1_555 1_555
H4 C8 1_555 1_555
C9 C8 1_555 1_555
H5 C9 1_555 1_555
C10 C9 1_555 1_555
H6 C10 1_555 1_555
C11 C6 1_555 1_555
H7 C11 1_555 1_555
C12 C1 1_555 1_555
Cu2 N4 1_555 1_555
Cu3 N2 1_555 1_555
N5 Cu2 1_555 1_555
N6 Cu1 1_555 1_555
C6 C7 1_555 1_555
C10 C11 1_555 1_555
N3 C14 1_555 1_555
H8 C13 1_555 1_555
C16 N3 1_555 1_555
C17 C16 1_555 1_555
H9 C17 1_555 1_555
Cu4 N3 1_555 1_555
Cu3 N1_2 1_555 1_555
N1_2 C5_2 1_555 1_555
H2_2 C3_2 1_555 1_555
C7_2 N1_2 1_555 1_555
C8_2 C7_2 1_555 1_555
H4_2 C8_2 1_555 1_555
C9_2 C8_2 1_555 1_555
H5_2 C9_2 1_555 1_555
C10_2 C9_2 1_555 1_555
H6_2 C10_2 1_555 1_555
C11_2 C6_2 1_555 1_555
C6_2 C7_2 1_555 1_555
C10_2 C11_2 1_555 1_555
C1_2 H1_2 1_555 1_555
C2_2 C1_2 1_555 1_555
N5 C14_2 1_555 1_555
N4_2 C14_2 1_555 1_555
C12_2 C1_2 1_555 1_555
C13_2 C4_2 1_555 1_555
H8_2 C13_2 1_555 1_555
C14_2 C12_2 1_555 1_555
C15 N4_2 1_555 1_555
C16_2 N5 1_555 1_555
C17_2 C16_2 1_555 1_555
H9_2 C17_2 1_555 1_555
C18 C17_2 1_555 1_555
H10 C18 1_555 1_555
C19 C18 1_555 1_555
H11 C19 1_555 1_555
C20 C15 1_555 1_555
H12_2 C20 1_555 1_555
Cu4 N4_2 1_555 1_555
C12_2 C13_2 1_555 1_555
C15 C16_2 1_555 1_555
C19 C20 1_555 1_555
N3_2 C14_3 1_555 1_555
H8_3 C13_3 1_555 1_555
C16_3 N3_2 1_555 1_555
C17_3 C16_3 1_555 1_555
H9_3 C17_3 1_555 1_555
C18_2 C17_3 1_555 1_555
H10_2 C18_2 1_555 1_555
C19_2 C18_2 1_555 1_555
H11_2 C19_2 1_555 1_555
C20_2 C15_2 1_555 1_555
Cu4_2 N3_2 1_555 1_555
C15_2 C16_3 1_555 1_555
C19_2 C20_2 1_555 1_555
Cu1_2 N1_3 1_555 1_555
N1_3 C5_3 1_555 1_555
H2_3 C3_3 1_555 1_555
C7_3 N1_3 1_555 1_555
C8_3 C7_3 1_555 1_555
H4_3 C8_3 1_555 1_555
C9_3 C8_3 1_555 1_555
H5_3 C9_3 1_555 1_555
C10_3 C9_3 1_555 1_555
H6_3 C10_3 1_555 1_555
C11_3 C6_3 1_555 1_555
N6_2 Cu1_2 1_555 1_555
C6_3 C7_3 1_555 1_555
C10_3 C11_3 1_555 1_555
C1_3 H1_3 1_555 1_555
C2_3 C1_3 1_555 1_555
C12_3 C1_3 1_555 1_555
Cu4_2 N4_3 1_555 1_555
H10_3 C18_3 1_555 1_555
C19_3 C18_3 1_555 1_555
H11_3 C19_3 1_555 1_555
C20_3 C15_3 1_555 1_555
C19_3 C20_3 1_555 1_555
C1_4 H1_4 1_555 1_555
C2_4 C1_4 1_555 1_555
C12_4 C1_4 1_555 1_555
Cu3_2 N2_2 1_555 1_555
Cu3_2 N1_4 1_555 1_555
N1_4 C5_4 1_555 1_555
H2_4 C3_4 1_555 1_555
C7_4 N1_4 1_555 1_555
C8_4 C7_4 1_555 1_555
H4_4 C8_4 1_555 1_555
C9_4 C8_4 1_555 1_555
H5_4 C9_4 1_555 1_555
C10_4 C9_4 1_555 1_555
H6_4 C10_4 1_555 1_555
C11_4 C6_4 1_555 1_555
C6_4 C7_4 1_555 1_555
C10_4 C11_4 1_555 1_555
Cu2_2 N4_4 1_555 1_555
N5_2 Cu2_2 1_555 1_555
N5_2 C14_4 1_555 1_555
H8_4 C13_4 1_555 1_555
C16_4 N5_2 1_555 1_555
C17_4 C16_4 1_555 1_555
H9_4 C17_4 1_555 1_555
C18_4 C17_4 1_555 1_555
H10_4 C18_4 1_555 1_555
C19_4 C18_4 1_555 1_555
H11_4 C19_4 1_555 1_555
C20_4 C15_4 1_555 1_555
C15_4 C16_4 1_555 1_555
C19_4 C20_4 1_555 1_555
Cu1_3 N1_5 1_555 1_555
N1_5 C5_5 1_555 1_555
H2_5 C3_5 1_555 1_555
C7_5 N1_5 1_555 1_555
C8_5 C7_5 1_555 1_555
H4_5 C8_5 1_555 1_555
C9_5 C8_5 1_555 1_555
H5_5 C9_5 1_555 1_555
C10_5 C9_5 1_555 1_555
H6_5 C10_5 1_555 1_555
C11_5 C6_5 1_555 1_555
N6_3 Cu1_3 1_555 1_555
C6_5 C7_5 1_555 1_555
C10_5 C11_5 1_555 1_555
C6_6 N6_3 1_555 1_555
H5_6 C9_6 1_555 1_555
C10_6 C9_6 1_555 1_555
H6_6 C10_6 1_555 1_555
C11_6 C6_6 1_555 1_555
H7_5 C11_6 1_555 1_555
C10_6 C11_6 1_555 1_555
C1_5 H1_5 1_555 1_555
C2_5 C1_5 1_555 1_555
N3_3 C14_5 1_555 1_555
N4_5 C14_5 1_555 1_555
C12_5 C1_5 1_555 1_555
C13_5 C4_5 1_555 1_555
H8_5 C13_5 1_555 1_555
C14_5 C12_5 1_555 1_555
C15_5 N4_5 1_555 1_555
C16_5 N3_3 1_555 1_555
C17_5 C16_5 1_555 1_555
H9_5 C17_5 1_555 1_555
C18_5 C17_5 1_555 1_555
H10_5 C18_5 1_555 1_555
C19_5 C18_5 1_555 1_555
H11_5 C19_5 1_555 1_555
C20_5 C15_5 1_555 1_555
H12_5 C20_5 1_555 1_555
Cu2_3 N4_5 1_555 1_555
Cu3_3 N2_3 1_555 1_555
Cu4_3 N3_3 1_555 1_555
N5_3 Cu2_3 1_555 1_555
C12_5 C13_5 1_555 1_555
C15_5 C16_5 1_555 1_555
C19_5 C20_5 1_555 1_555
Cu3_3 N1_6 1_555 1_555
N1_6 C5_6 1_555 1_555
C1_6 H1_6 1_555 1_555
C2_6 C1_6 1_555 1_555
C3_6 C2_6 1_555 1_555
H2_6 C3_6 1_555 1_555
C4_6 C3_6 1_555 1_555
C5_6 C2_6 1_555 1_555
C7_6 N1_6 1_555 1_555
C8_6 C7_6 1_555 1_555
H4_6 C8_6 1_555 1_555
C12_6 C1_6 1_555 1_555
Cu4_3 N4_6 1_555 1_555
N5_3 C14_6 1_555 1_555
H8_6 C13_6 1_555 1_555
C16_6 N5_3 1_555 1_555
C17_6 C16_6 1_555 1_555
H9_6 C17_6 1_555 1_555
C18_6 C17_6 1_555 1_555
H10_6 C18_6 1_555 1_555
C19_6 C18_6 1_555 1_555
H11_6 C19_6 1_555 1_555
C20_6 C15_6 1_555 1_555
C15_6 C16_6 1_555 1_555
C19_6 C20_6 1_555 1_555
N9 C27 1_555 1_555
H25 C27 1_555 1_555
H26 C27 1_555 1_555
H27 C28 1_555 1_555
H28 C28 1_555 1_555
H29 C29 1_555 1_555
H30 C29 1_555 1_555
I3 Cu7 1_555 1_555
I4 Cu7 1_555 1_555
Cu7 N9 1_555 1_555
Cu8 I3 1_555 1_555
I5 Cu7 1_555 1_555
I7 Cu8 1_555 1_555
Cu9 I3 1_555 1_555
Cu11 I4 1_555 1_555
N11 Cu8 1_555 1_555
N9 C28 1_555 1_555
N9 C29 1_555 1_555
I4 Cu8 1_555 1_555
I5 Cu9 1_555 1_555
I5 Cu11 1_555 1_555
I7 Cu9 1_555 1_555
I7 Cu11 1_555 1_555
I1 Cu5 1_555 1_555
I2 Cu5 1_555 1_555
Cu5 N7 1_555 1_555
Cu6 I1 1_555 1_555
N7 C21 1_555 1_555
N8 Cu6 1_555 1_555
C21 H13 1_555 1_555
H14 C21 1_555 1_555
C22 N7 1_555 1_555
H15 C22 1_555 1_555
H16 C22 1_555 1_555
C23 N7 1_555 1_555
H17 C23 1_555 1_555
H18 C23 1_555 1_555
C24 N8 1_555 1_555
H19 C24 1_555 1_555
H20 C24 1_555 1_555
C25 N8 1_555 1_555
H21 C25 1_555 1_555
H22 C25 1_555 1_555
C26 N8 1_555 1_555
H23 C26 1_555 1_555
H24 C26 1_555 1_555
N10 C30 1_555 1_555
C30 C26 1_555 1_555
H31 C30 1_555 1_555
H32 C30 1_555 1_555
C31 C25 1_555 1_555
H33 C31 1_555 1_555
H34 C31 1_555 1_555
C32 C24 1_555 1_555
H36 C32 1_555 1_555
I6 Cu5 1_555 1_555
I8 Cu6 1_555 1_555
Cu10 I1 1_555 1_555
Cu12 I2 1_555 1_555
I2 Cu6 1_555 1_555
N10 C31 1_555 1_555
N10 C32 1_555 1_555
I6 Cu10 1_555 1_555
I6 Cu12 1_555 1_555
I8 Cu10 1_555 1_555
I8 Cu12 1_555 1_555
I1_2 Cu5_2 1_555 1_555
I2_2 Cu5_2 1_555 1_555
Cu5_2 N7_2 1_555 1_555
Cu6_2 I1_2 1_555 1_555
N7_2 C21_2 1_555 1_555
N8_2 Cu6_2 1_555 1_555
C21_2 H13_2 1_555 1_555
H14_2 C21_2 1_555 1_555
C22_2 N7_2 1_555 1_555
H15_2 C22_2 1_555 1_555
H16_2 C22_2 1_555 1_555
C23_2 N7_2 1_555 1_555
H17_2 C23_2 1_555 1_555
H18_2 C23_2 1_555 1_555
C24_2 N8_2 1_555 1_555
H19_2 C24_2 1_555 1_555
H20_2 C24_2 1_555 1_555
C25_2 N8_2 1_555 1_555
H21_2 C25_2 1_555 1_555
H22_2 C25_2 1_555 1_555
C26_2 N8_2 1_555 1_555
H23_2 C26_2 1_555 1_555
H24_2 C26_2 1_555 1_555
N9_2 C27_2 1_555 1_555
C27_2 C22_2 1_555 1_555
H25_2 C27_2 1_555 1_555
H26_2 C27_2 1_555 1_555
C28_2 C21_2 1_555 1_555
H27_2 C28_2 1_555 1_555
H28_2 C28_2 1_555 1_555
C29_2 C23_2 1_555 1_555
H29_2 C29_2 1_555 1_555
H30_2 C29_2 1_555 1_555
N10_2 C30_2 1_555 1_555
C30_2 C26_2 1_555 1_555
H31_2 C30_2 1_555 1_555
H32_2 C30_2 1_555 1_555
C31_2 C25_2 1_555 1_555
H33_2 C31_2 1_555 1_555
H34_2 C31_2 1_555 1_555
C32_2 C24_2 1_555 1_555
H35_2 C32_2 1_555 1_555
H36_2 C32_2 1_555 1_555
I3_2 Cu7_2 1_555 1_555
I4_2 Cu7_2 1_555 1_555
Cu7_2 N9_2 1_555 1_555
Cu8_2 I3_2 1_555 1_555
I5_2 Cu7_2 1_555 1_555
I6_2 Cu5_2 1_555 1_555
I7_2 Cu8_2 1_555 1_555
I8_2 Cu6_2 1_555 1_555
Cu9_2 I3_2 1_555 1_555
Cu10_2 I1_2 1_555 1_555
Cu11_2 I4_2 1_555 1_555
Cu12_2 I2_2 1_555 1_555
Cu12 N10_2 1_555 1_555
N11_2 Cu8_2 1_555 1_555
I2_2 Cu6_2 1_555 1_555
N9_2 C28_2 1_555 1_555
N9_2 C29_2 1_555 1_555
N10_2 C31_2 1_555 1_555
N10_2 C32_2 1_555 1_555
I4_2 Cu8_2 1_555 1_555
I5_2 Cu9_2 1_555 1_555
I5_2 Cu11_2 1_555 1_555
I6_2 Cu10_2 1_555 1_555
I6_2 Cu12_2 1_555 1_555
I7_2 Cu9_2 1_555 1_555
I7_2 Cu11_2 1_555 1_555
I8_2 Cu10_2 1_555 1_555
I8_2 Cu12_2 1_555 1_555
I1_3 Cu5_3 1_555 1_555
I2_3 Cu5_3 1_555 1_555
Cu5_3 N7_3 1_555 1_555
Cu6_3 I1_3 1_555 1_555
N8_3 Cu6_3 1_555 1_555
C22_3 N7_3 1_555 1_555
H15_3 C22_3 1_555 1_555
H16_3 C22_3 1_555 1_555
C23_3 N7_3 1_555 1_555
H17_3 C23_3 1_555 1_555
C24_3 N8_3 1_555 1_555
H19_3 C24_3 1_555 1_555
H20_3 C24_3 1_555 1_555
C25_3 N8_3 1_555 1_555
H21_3 C25_3 1_555 1_555
H22_3 C25_3 1_555 1_555
C26_3 N8_3 1_555 1_555
H23_3 C26_3 1_555 1_555
H24_3 C26_3 1_555 1_555
N10_3 C30_3 1_555 1_555
C30_3 C26_3 1_555 1_555
H31_3 C30_3 1_555 1_555
H32_3 C30_3 1_555 1_555
C31_3 C25_3 1_555 1_555
H33_3 C31_3 1_555 1_555
H34_3 C31_3 1_555 1_555
C32_3 C24_3 1_555 1_555
H35_3 C32_3 1_555 1_555
H36_3 C32_3 1_555 1_555
I8_3 Cu6_3 1_555 1_555
Cu10_3 I1_3 1_555 1_555
Cu13 I2_3 1_555 1_555
Cu12_2 N10_3 1_555 1_555
I2_3 Cu6_3 1_555 1_555
N10_3 C31_3 1_555 1_555
N10_3 C32_3 1_555 1_555
I8_3 Cu10_3 1_555 1_555
I8_3 Cu13 1_555 1_555
C21_3 H13_3 1_555 1_555
H14_3 C21_3 1_555 1_555
H25_3 C27_3 1_555 1_555
H26_3 C27_3 1_555 1_555
H27_3 C28_3 1_555 1_555
H28_3 C28_3 1_555 1_555
H29_3 C29_3 1_555 1_555
I3_3 Cu7_3 1_555 1_555
I4_3 Cu7_3 1_555 1_555
Cu7_3 N9_3 1_555 1_555
Cu8_3 I3_3 1_555 1_555
I7_3 Cu8_3 1_555 1_555
Cu9_3 I3_3 1_555 1_555
Cu11_3 I4_3 1_555 1_555
N11_3 Cu8_3 1_555 1_555
N9_3 C28_3 1_555 1_555
N9_3 C29_3 1_555 1_555
I4_3 Cu8_3 1_555 1_555
I7_3 Cu9_3 1_555 1_555
I7_3 Cu11_3 1_555 1_555
Cu9_2 N7_4 1_555 1_555
N7_4 C21_4 1_555 1_555
N8_4 Cu11_2 1_555 1_555
C21_4 H13_4 1_555 1_555
H14_4 C21_4 1_555 1_555
C22_4 N7_4 1_555 1_555
H15_4 C22_4 1_555 1_555
H16_4 C22_4 1_555 1_555
C23_4 N7_4 1_555 1_555
H17_4 C23_4 1_555 1_555
H18_4 C23_4 1_555 1_555
C24_4 N8_4 1_555 1_555
H19_4 C24_4 1_555 1_555
H20_4 C24_4 1_555 1_555
C25_4 N8_4 1_555 1_555
H21_4 C25_4 1_555 1_555
H22_4 C25_4 1_555 1_555
C26_4 N8_4 1_555 1_555
H23_4 C26_4 1_555 1_555
H24_4 C26_4 1_555 1_555
N11 C30_4 1_555 1_555
C30_4 C26_4 1_555 1_555
H31_4 C30_4 1_555 1_555
H32_4 C30_4 1_555 1_555
C31_4 C25_4 1_555 1_555
H33_4 C31_4 1_555 1_555
H34_4 C31_4 1_555 1_555
C32_4 C24_4 1_555 1_555
H35_4 C32_4 1_555 1_555
H36_4 C32_4 1_555 1_555
N11 C31_4 1_555 1_555
N11 C32_4 1_555 1_555
N9_4 C27_4 1_555 1_555
H25_4 C27_4 1_555 1_555
H26_4 C27_4 1_555 1_555
H27_4 C28_4 1_555 1_555
H28_4 C28_4 1_555 1_555
H29_4 C29_4 1_555 1_555
H30_4 C29_4 1_555 1_555
Cu10_3 N9_4 1_555 1_555
N9_4 C28_4 1_555 1_555
N9_4 C29_4 1_555 1_555
C24_5 N8_5 1_555 1_555
H19_5 C24_5 1_555 1_555
H20_5 C24_5 1_555 1_555
C25_5 N8_5 1_555 1_555
H21_5 C25_5 1_555 1_555
H22_5 C25_5 1_555 1_555
C26_5 N8_5 1_555 1_555
H24_5 C26_5 1_555 1_555
N11_2 C30_5 1_555 1_555
C30_5 C26_5 1_555 1_555
H31_5 C30_5 1_555 1_555
H32_5 C30_5 1_555 1_555
C31_5 C25_5 1_555 1_555
H33_5 C31_5 1_555 1_555
H34_5 C31_5 1_555 1_555
C32_5 C24_5 1_555 1_555
H35_5 C32_5 1_555 1_555
H36_5 C32_5 1_555 1_555
N11_2 C31_5 1_555 1_555
N11_2 C32_5 1_555 1_555
Cu9_3 N7_5 1_555 1_555
N7_5 C21_5 1_555 1_555
C21_5 H13_5 1_555 1_555
H14_5 C21_5 1_555 1_555
C22_5 N7_5 1_555 1_555
H15_5 C22_5 1_555 1_555
H16_5 C22_5 1_555 1_555
C23_5 N7_5 1_555 1_555
H17_5 C23_5 1_555 1_555
H18_5 C23_5 1_555 1_555
N9_5 C27_5 1_555 1_555
C27_5 C22_5 1_555 1_555
H25_5 C27_5 1_555 1_555
H26_5 C27_5 1_555 1_555
C28_5 C21_5 1_555 1_555
H27_5 C28_5 1_555 1_555
H28_5 C28_5 1_555 1_555
C29_5 C23_5 1_555 1_555
H29_5 C29_5 1_555 1_555
H30_5 C29_5 1_555 1_555
Cu10 N9_5 1_555 1_555
N9_5 C28_5 1_555 1_555
N9_5 C29_5 1_555 1_555
N9_6 C27_6 1_555 1_555
H25_6 C27_6 1_555 1_555
H26_6 C27_6 1_555 1_555
H27_6 C28_6 1_555 1_555
H28_6 C28_6 1_555 1_555
H29_6 C29_6 1_555 1_555
H30_6 C29_6 1_555 1_555
Cu10_2 N9_6 1_555 1_555
N9_6 C28_6 1_555 1_555
N9_6 C29_6 1_555 1_555
Cu9 N7_6 1_555 1_555
N7_6 C21_6 1_555 1_555
N8_6 Cu11 1_555 1_555
C21_6 H13_6 1_555 1_555
H14_6 C21_6 1_555 1_555
C22_6 N7_6 1_555 1_555
H15_6 C22_6 1_555 1_555
H16_6 C22_6 1_555 1_555
C23_6 N7_6 1_555 1_555
H17_6 C23_6 1_555 1_555
H18_6 C23_6 1_555 1_555
C24_6 N8_6 1_555 1_555
H19_6 C24_6 1_555 1_555
H20_6 C24_6 1_555 1_555
C25_6 N8_6 1_555 1_555
H21_6 C25_6 1_555 1_555
H22_6 C25_6 1_555 1_555
C26_6 N8_6 1_555 1_555
H23_6 C26_6 1_555 1_555
H24_6 C26_6 1_555 1_555
N11_3 C30_6 1_555 1_555
C30_6 C26_6 1_555 1_555
H31_6 C30_6 1_555 1_555
H32_6 C30_6 1_555 1_555
C31_6 C25_6 1_555 1_555
H33_6 C31_6 1_555 1_555
H34_6 C31_6 1_555 1_555
C32_6 C24_6 1_555 1_555
H35_6 C32_6 1_555 1_555
H36_6 C32_6 1_555 1_555
N11_3 C31_6 1_555 1_555
N11_3 C32_6 1_555 1_555

#END
