
###############################################################################
#
# This file contains modified crystal structure data generated from the
# MOF subset of the Cambridge Structural Database (CSD) v543 
# hosted by the Cambridge Crystallographic Data Centre (CCDC).
#
# This work is licensed under the Creative Commons
# Attribution-NonCommercial-ShareAlike 4.0 International License.
# To view a copy of this license, visit
# http://creativecommons.org/licenses/by-nc-sa/4.0/
# or send a letter to
# Creative Commons, PO Box 1866, Mountain View, CA 94042, USA.
#
# CIF created using the CSD Python API on 29 September 2022
# The structure has been converted into the P1 space group
# The structure has a 3D framework
# The original CSD entry TAGTED is in the monoclinic crystal system
# The original CSD entry TAGTED is in a Sohncke space group
# The framework has been calculated to contain at least 10.0% void space
# The void calculation uses a probe of radius 1.32A, grid spacing 0.4
# H atom positions have been added when not included in the experimental data
#
###############################################################################

data_TAGTED
_chemical_formula_moiety         '(C144 H180 Mg12 N12 O59 S17)n'
_symmetry_cell_setting           triclinic
_symmetry_space_group_name_H-M   'P 1'
_symmetry_Int_Tables_number      1
_space_group_name_Hall           'P 1'
loop_
_symmetry_equiv_pos_site_id
_symmetry_equiv_pos_as_xyz
1 x,y,z
_cell_length_a                   22.803(3)
_cell_length_b                   13.4571(13)
_cell_length_c                   15.5637(14)
_cell_angle_alpha                90
_cell_angle_beta                 93.761(7)
_cell_angle_gamma                90
_cell_volume                     4765.63
loop_
_atom_site_label
_atom_site_type_symbol
_atom_site_fract_x
_atom_site_fract_y
_atom_site_fract_z
C40 C 0.0213(4) 0.1753(6) 0.0357(5)
C41 C 0.0354(3) 0.0802(5) 0.0614(4)
C42 C 0.0789(3) 0.0466(5) 0.1318(4)
O18 O 0.10407(19) 0.1080(3) 0.1835(3)
Mg14 Mg 0.09420(10) 0.22721(16) 0.26594(14)
H12 H 0.0401635 0.242054 0.0658649
S2 S 0.0000 0.09549(19) 0.5000
C27 C 0.0360(7) 0.2914(15) 0.7194(12)
C30 C 0.0279(7) 0.3367(12) 0.6240(10)
N2 N 0.0828(7) 0.290(3) 0.7361(15)
C31 C 0.1493(13) 0.261(2) 0.6638(18)
C32 C 0.1550(12) 0.345(2) 0.7247(18)
C33 C 0.102(2) 0.253(3) 0.851(3)
C34 C 0.0919(17) 0.140(3) 0.810(2)
C38 C 0.0326(4) 0.0075(6) 0.4402(5)
C39 C 0.0713(3) 0.0376(6) 0.3703(5)
O16 O 0.0763(2) 0.1282(4) 0.3591(3)
Mg4 Mg 0.25185(10) 0.19108(16) 0.25496(13)
S6 S 0.17445(8) 0.45765(14) 0.50302(12)
C43 C 0.3601(14) 0.304(2) 0.227(2)
C45 C 0.3620(8) 0.3083(18) 0.1166(10)
C48 C 0.3505(4) 0.0089(8) 0.0418(6)
C50 C 0.2832(3) 0.4151(6) 0.5317(5)
C57 C 0.2619(4) 0.3535(6) 0.4629(5)
C58 C 0.2627(3) 0.0220(6) 0.1333(4)
C59 C 0.1673(3) 0.3160(5) 0.3735(4)
C60 C 0.2452(3) 0.5517(5) 0.6291(4)
C61 C 0.2401(3) 0.4770(6) 0.5606(4)
C62 C 0.2042(3) 0.3673(5) 0.4406(4)
C64 C 0.4992(14) 0.231(3) 0.187(3)
C65 C 0.4810(15) 0.325(2) 0.2105(19)
N6 N 0.4084(16) 0.326(2) 0.2354(19)
O21 O 0.2893(2) 0.5473(4) 0.6832(3)
O22 O 0.2857(2) 0.0919(4) 0.1750(3)
O25 O 0.1131(2) 0.3377(4) 0.3640(3)
O26 O 0.2082(2) 0.6191(3) 0.6324(3)
O27 O 0.1893(2) 0.2526(3) 0.3265(3)
O28 O 0.3190(3) 0.2866(5) 0.2583(4)
O30 O 0.0088(2) 0.2619(5) 0.2436(4)
C71 C 0.417(2) 0.282(3) 0.352(3)
C72 C 0.438(2) 0.154(4) 0.355(3)
Mg8 Mg 0.24815(10) 0.69108(16) 0.74504(13)
Mg12 Mg 0.34600(9) 0.47119(16) 0.76204(13)
O31 O 0.2107(2) 0.0473(4) 0.3168(3)
O33 O 0.1184(2) 0.3184(4) 0.1705(3)
O37 O 0.2082(2) 0.2592(4) 0.1512(3)
O39 O 0.2918(2) 0.1191(3) 0.3676(3)
H7 H 0.479601 0.145172 0.325256
H8 H 0.442894 0.12898 0.421627
H9 H 0.404298 0.109871 0.319945
H10 H 0.328427 0.413994 0.558914
H18 H 0.375584 0.0686902 0.0738489
H20 H 0.0186932 0.339852 0.396236
H24 H 0.289243 0.300327 0.431117
H25 H 0.375404 0.2908 0.381762
H26 H 0.450707 0.326102 0.387073
H27 H 0.486331 0.37595 0.157213
H28 H 0.508241 0.349536 0.266594
H29 H 0.394382 0.255386 0.096019
H30 H 0.31886 0.289337 0.0869744
H31 H 0.373959 0.382896 0.0970131
H37 H 0.472422 0.205905 0.130646
H38 H 0.545128 0.233844 0.171888
H39 H 0.494332 0.179491 0.240027
H73 H 0.0710063 0.275982 0.897496
H74 H 0.146562 0.270326 0.875948
H76 H 0.187444 0.338546 0.778954
H77 H 0.156559 0.419616 0.697863
H78 H 0.122618 0.12763 0.760372
H79 H 0.0993919 0.084922 0.860799
H80 H 0.0470619 0.133286 0.781921
H85 H 0.0505126 0.289688 0.579798
H87 H 0.0463829 0.411307 0.623687
H88 H 0.111825 0.273564 0.618054
H89 H 0.189157 0.254943 0.629252
H90 H 0.14271 0.192494 0.699145
S3 S 0.0000 0.99283(18) 0.0000
O19 O 0.0897(2) 0.9561(4) 0.1363(3)
Mg11 Mg 0.15400(9) 0.97119(16) 0.23796(13)
S3_2 S 0.0000 0.99283(18) 1.0000
C37 C 0.0168(7) 0.9146(7) 0.4635(9)
O17 O 0.0935(2) 0.9679(4) 0.3301(3)
S5 S 0.26978(9) 0.88479(15) 0.00049(12)
C44 C 0.1236(9) 0.6883(13) 0.4054(11)
C46 C 0.2422(9) 0.5210(10) 0.2457(13)
C47 C 0.1810(7) 0.6810(9) 0.3710(7)
C49 C 0.1746(8) 0.5594(8) 0.2425(10)
C51 C 0.1672(7) 0.7328(10) 0.1291(6)
C52 C 0.1705(5) 0.7471(8) 0.2295(7)
C55 C 0.2968(4) 0.9798(6) 0.0644(4)
N4 N 0.1745(5) 0.6640(6) 0.2759(6)
O20 O 0.2149(2) 0.9810(4) 0.1456(3)
O29 O 0.1724(3) 0.8281(4) 0.2605(3)
H1 H 0.128653 0.688592 0.109307
H2 H 0.164051 0.805134 0.0977649
H3 H 0.206609 0.694763 0.110645
H15 H 0.099393 0.619572 0.392492
H16 H 0.128804 0.700666 0.474629
H17 H 0.0994822 0.750146 0.374921
H22 H 0.205051 0.619185 0.401645
H23 H 0.20514 0.74976 0.384074
H32 H 0.260957 0.523271 0.311846
H33 H 0.243399 0.445058 0.221708
H34 H 0.267589 0.568913 0.205692
H35 H 0.149018 0.511913 0.2826
H36 H 0.15565 0.557556 0.176447
H75 H 0.0287211 0.847497 0.429635
C53 C 0.3320(3) 0.8817(6) 0.9419(5)
C54 C 0.3717(4) 0.9508(6) 0.9687(6)
C56 C 0.3349(3) 0.8133(5) 0.8678(4)
O23 O 0.3816(2) 0.8184(4) 0.8295(3)
O24 O 0.2918(2) 0.7592(4) 0.8488(3)
Mg15 Mg 0.40580(10) 0.72721(16) 0.73406(14)
H11 H 0.413666 0.962603 0.94068
Mg1 Mg 0.74815(10) 0.19108(16) 0.74504(13)
Mg3 Mg 0.90580(10) 0.22721(16) 0.73406(14)
S2_2 S 1.0000 0.09549(19) 0.5000
S4 S 0.82555(8) 0.45765(14) 0.49698(12)
C1 C 0.6399(14) 0.304(2) 0.773(2)
C3 C 0.6380(8) 0.3083(18) 0.8834(10)
C6 C 0.6495(4) 0.0089(8) 0.9582(6)
C8 C 0.7168(3) 0.4151(6) 0.4683(5)
C11 C 0.9787(4) 0.1753(6) 0.9643(5)
C13 C 0.9674(4) 0.0075(6) 0.5598(5)
C17 C 0.9287(3) 0.0376(6) 0.6297(5)
C18 C 0.9646(3) 0.0802(5) 0.9386(4)
C20 C 0.9211(3) 0.0466(5) 0.8682(4)
C21 C 0.7381(4) 0.3535(6) 0.5371(5)
C22 C 0.7373(3) 0.0220(6) 0.8667(4)
C23 C 0.8327(3) 0.3160(5) 0.6265(4)
C24 C 0.7548(3) 0.5517(5) 0.3709(4)
C25 C 0.7599(3) 0.4770(6) 0.4394(4)
C26 C 0.7958(3) 0.3673(5) 0.5594(4)
C28 C 0.5008(14) 0.231(3) 0.813(3)
C29 C 0.5190(15) 0.325(2) 0.7895(19)
N3 N 0.5916(16) 0.326(2) 0.7646(19)
O1 O 0.9237(2) 0.1282(4) 0.6409(3)
O3 O 0.7107(2) 0.5473(4) 0.3168(3)
O4 O 0.7143(2) 0.0919(4) 0.8250(3)
O7 O 0.89593(19) 0.1080(3) 0.8165(3)
O10 O 0.8869(2) 0.3377(4) 0.6360(3)
O11 O 0.7918(2) 0.6191(3) 0.3676(3)
O12 O 0.8107(2) 0.2526(3) 0.6735(3)
O13 O 0.6810(3) 0.2866(5) 0.7417(4)
O15 O 0.9912(2) 0.2619(5) 0.7564(4)
C35 C 0.583(2) 0.282(3) 0.648(3)
C36 C 0.562(2) 0.154(4) 0.645(3)
C63 C 0.9640(7) 0.2914(15) 0.2806(12)
C66 C 0.9721(7) 0.3367(12) 0.3760(10)
N5 N 0.9172(7) 0.290(3) 0.2639(15)
C67 C 0.8507(13) 0.261(2) 0.3362(18)
C68 C 0.8450(12) 0.345(2) 0.2753(18)
C69 C 0.898(2) 0.253(3) 0.149(3)
C70 C 0.9081(17) 0.140(3) 0.190(2)
Mg10 Mg 0.75185(10) 0.69108(16) 0.25496(13)
Mg13 Mg 0.65400(9) 0.47119(16) 0.23796(13)
O32 O 0.7893(2) 0.0473(4) 0.6832(3)
O34 O 0.8816(2) 0.3184(4) 0.8295(3)
O38 O 0.7918(2) 0.2592(4) 0.8488(3)
O40 O 0.7082(2) 0.1191(3) 0.6324(3)
H4 H 0.877382 0.12763 0.239628
H5 H 0.900608 0.084922 0.139201
H6 H 0.952938 0.133286 0.218079
H13 H 0.812556 0.338546 0.221046
H14 H 0.843441 0.419616 0.302137
H19 H 0.949487 0.289688 0.420202
H21 H 0.953617 0.411307 0.376313
H40 H 0.888175 0.273564 0.381946
H41 H 0.810843 0.254943 0.370748
H42 H 0.85729 0.192494 0.300855
H43 H 0.928994 0.275982 0.102504
H44 H 0.853438 0.270326 0.124052
H45 H 0.624416 0.0686902 0.926151
H52 H 0.959837 0.242054 0.934135
H53 H 0.671573 0.413994 0.441086
H57 H 0.605618 0.255386 0.903981
H58 H 0.68114 0.289337 0.913026
H59 H 0.626041 0.382896 0.902987
H65 H 0.624596 0.2908 0.618238
H66 H 0.549293 0.326102 0.612927
H67 H 0.527578 0.205905 0.869354
H68 H 0.454872 0.233844 0.828112
H69 H 0.505668 0.179491 0.759973
H70 H 0.520399 0.145172 0.674744
H71 H 0.557106 0.12898 0.578373
H72 H 0.595702 0.109871 0.680055
H81 H 0.513669 0.37595 0.842787
H82 H 0.491759 0.349536 0.733406
H83 H 0.710757 0.300327 0.568883
H86 H 0.981307 0.339852 0.603764
S3_3 S 1.0000 0.99283(18) 0.0000
C14 C 0.6680(3) 0.8817(6) 0.0581(5)
C15 C 0.6283(4) 0.9508(6) 0.0313(6)
C19 C 0.6651(3) 0.8133(5) 0.1322(4)
O6 O 0.6184(2) 0.8184(4) 0.1705(3)
O9 O 0.7082(2) 0.7592(4) 0.1512(3)
Mg16 Mg 0.59420(10) 0.72721(16) 0.26594(14)
H84 H 0.586334 0.962603 0.0593198
Mg2 Mg 0.84600(9) 0.97119(16) 0.76204(13)
S1 S 0.73022(9) 0.88479(15) 0.99951(12)
S3_4 S 1.0000 0.99283(18) 1.0000
C2 C 0.8764(9) 0.6883(13) 0.5946(11)
C4 C 0.7578(9) 0.5210(10) 0.7543(13)
C5 C 0.8190(7) 0.6810(9) 0.6290(7)
C7 C 0.8254(8) 0.5594(8) 0.7575(10)
C9 C 0.8328(7) 0.7328(10) 0.8709(6)
C10 C 0.9832(7) 0.9146(7) 0.5365(9)
C12 C 0.8295(5) 0.7471(8) 0.7705(7)
C16 C 0.7032(4) 0.9798(6) 0.9356(4)
N1 N 0.8255(5) 0.6640(6) 0.7241(6)
O2 O 0.7851(2) 0.9810(4) 0.8544(3)
O5 O 0.9065(2) 0.9679(4) 0.6699(3)
O8 O 0.9103(2) 0.9561(4) 0.8637(3)
O14 O 0.8276(3) 0.8281(4) 0.7395(3)
H46 H 0.850982 0.511913 0.7174
H47 H 0.84435 0.557556 0.823553
H48 H 0.871347 0.688592 0.890693
H49 H 0.835949 0.805134 0.902235
H50 H 0.793391 0.694763 0.889355
H51 H 0.971279 0.847497 0.570365
H54 H 0.900607 0.619572 0.607508
H55 H 0.871196 0.700666 0.525371
H56 H 0.900518 0.750146 0.625079
H60 H 0.739043 0.523271 0.688154
H61 H 0.756601 0.445058 0.778292
H62 H 0.732411 0.568913 0.794308
H63 H 0.794949 0.619185 0.598355
H64 H 0.79486 0.74976 0.615926
C24_2 C 0.2548(3) 0.0517(5) 0.3709(4)
C60_2 C 0.7452(3) 0.0517(5) 0.6291(4)
S3_5 S 0.5000 0.49283(18) 0.0000
C14_2 C 0.1680(3) 0.3817(6) 0.0581(5)
C15_2 C 0.1283(4) 0.4508(6) 0.0313(6)
C19_2 C 0.1651(3) 0.3133(5) 0.1322(4)
C40_2 C 0.5213(4) 0.6753(6) 0.0357(5)
C41_2 C 0.5354(3) 0.5802(5) 0.0614(4)
C42_2 C 0.5789(3) 0.5466(5) 0.1318(4)
O18_2 O 0.60407(19) 0.6080(3) 0.1835(3)
O19_2 O 0.5897(2) 0.4561(4) 0.1363(3)
H12_2 H 0.540163 0.742054 0.0658649
H84_2 H 0.0863337 0.462603 0.0593198
S1_2 S 0.23022(9) 0.38479(15) 0.99951(12)
S2_3 S 0.5000 0.59549(19) 0.5000
S3_6 S 0.5000 0.49283(18) 1.0000
S4_2 S 0.32555(8) 0.95765(14) 0.49698(12)
C1_2 C 0.1399(14) 0.804(2) 0.773(2)
C2_2 C 0.3764(9) 0.1883(13) 0.5946(11)
C3_2 C 0.1380(8) 0.8083(18) 0.8834(10)
C4_2 C 0.2578(9) 0.0210(10) 0.7543(13)
C5_2 C 0.3190(7) 0.1810(9) 0.6290(7)
C6_2 C 0.1495(4) 0.5089(8) 0.9582(6)
C7_2 C 0.3254(8) 0.0594(8) 0.7575(10)
C8_2 C 0.2168(3) 0.9151(6) 0.4683(5)
C9_2 C 0.3328(7) 0.2328(10) 0.8709(6)
C10_2 C 0.4832(7) 0.4146(7) 0.5365(9)
C11_2 C 0.4787(4) 0.6753(6) 0.9643(5)
C12_2 C 0.3295(5) 0.2471(8) 0.7705(7)
C13_2 C 0.4674(4) 0.5075(6) 0.5598(5)
C16_2 C 0.2032(4) 0.4798(6) 0.9356(4)
C17_2 C 0.4287(3) 0.5376(6) 0.6297(5)
C18_2 C 0.4646(3) 0.5802(5) 0.9386(4)
C20_2 C 0.4211(3) 0.5466(5) 0.8682(4)
C21_2 C 0.2381(4) 0.8535(6) 0.5371(5)
C22_2 C 0.2373(3) 0.5220(6) 0.8667(4)
C23_2 C 0.3327(3) 0.8160(5) 0.6265(4)
C25_2 C 0.2599(3) 0.9770(6) 0.4394(4)
C26_2 C 0.2958(3) 0.8673(5) 0.5594(4)
C27_2 C 0.5360(7) 0.7914(15) 0.7194(12)
C28_2 C 0.0008(14) 0.731(3) 0.813(3)
C29_2 C 0.0190(15) 0.825(2) 0.7895(19)
C30_2 C 0.5279(7) 0.8367(12) 0.6240(10)
N1_2 N 0.3255(5) 0.1640(6) 0.7241(6)
N2_2 N 0.5828(7) 0.790(3) 0.7361(15)
N3_2 N 0.0916(16) 0.826(2) 0.7646(19)
O1_2 O 0.4237(2) 0.6282(4) 0.6409(3)
O2_2 O 0.2851(2) 0.4810(4) 0.8544(3)
O4_2 O 0.2143(2) 0.5919(4) 0.8250(3)
O5_2 O 0.4065(2) 0.4679(4) 0.6699(3)
O7_2 O 0.39593(19) 0.6080(3) 0.8165(3)
O8_2 O 0.4103(2) 0.4561(4) 0.8637(3)
O10_2 O 0.3869(2) 0.8377(4) 0.6360(3)
O12_2 O 0.3107(2) 0.7526(3) 0.6735(3)
O13_2 O 0.1810(3) 0.7866(5) 0.7417(4)
O14_2 O 0.3276(3) 0.3281(4) 0.7395(3)
O15_2 O 0.4912(2) 0.7619(5) 0.7564(4)
C31_2 C 0.6493(13) 0.761(2) 0.6638(18)
C32_2 C 0.6550(12) 0.845(2) 0.7247(18)
C33_2 C 0.602(2) 0.753(3) 0.851(3)
C34_2 C 0.5919(17) 0.640(3) 0.810(2)
C35_2 C 0.083(2) 0.782(3) 0.648(3)
C36_2 C 0.062(2) 0.654(4) 0.645(3)
C37_2 C 0.5168(7) 0.4146(7) 0.4635(9)
C38_2 C 0.5326(4) 0.5075(6) 0.4402(5)
C39_2 C 0.5713(3) 0.5376(6) 0.3703(5)
O16_2 O 0.5763(2) 0.6282(4) 0.3591(3)
O17_2 O 0.5935(2) 0.4679(4) 0.3301(3)
S5_2 S 0.76978(9) 0.38479(15) 0.00049(12)
S6_2 S 0.67445(8) 0.95765(14) 0.50302(12)
C43_2 C 0.8601(14) 0.804(2) 0.227(2)
C44_2 C 0.6236(9) 0.1883(13) 0.4054(11)
C45_2 C 0.8620(8) 0.8083(18) 0.1166(10)
C46_2 C 0.7422(9) 0.0210(10) 0.2457(13)
C47_2 C 0.6810(7) 0.1810(9) 0.3710(7)
C48_2 C 0.8505(4) 0.5089(8) 0.0418(6)
C49_2 C 0.6746(8) 0.0594(8) 0.2425(10)
C50_2 C 0.7832(3) 0.9151(6) 0.5317(5)
C51_2 C 0.6672(7) 0.2328(10) 0.1291(6)
C52_2 C 0.6705(5) 0.2471(8) 0.2295(7)
C55_2 C 0.7968(4) 0.4798(6) 0.0644(4)
C57_2 C 0.7619(4) 0.8535(6) 0.4629(5)
C58_2 C 0.7627(3) 0.5220(6) 0.1333(4)
C59_2 C 0.6673(3) 0.8160(5) 0.3735(4)
C61_2 C 0.7401(3) 0.9770(6) 0.5606(4)
C62_2 C 0.7042(3) 0.8673(5) 0.4406(4)
C63_2 C 0.4640(7) 0.7914(15) 0.2806(12)
C64_2 C 0.9992(14) 0.731(3) 0.187(3)
C65_2 C 0.9810(15) 0.825(2) 0.2105(19)
C66_2 C 0.4721(7) 0.8367(12) 0.3760(10)
N4_2 N 0.6745(5) 0.1640(6) 0.2759(6)
N5_2 N 0.4172(7) 0.790(3) 0.2639(15)
N6_2 N 0.9084(16) 0.826(2) 0.2354(19)
O20_2 O 0.7149(2) 0.4810(4) 0.1456(3)
O22_2 O 0.7857(2) 0.5919(4) 0.1750(3)
O25_2 O 0.6131(2) 0.8377(4) 0.3640(3)
O27_2 O 0.6893(2) 0.7526(3) 0.3265(3)
O28_2 O 0.8190(3) 0.7866(5) 0.2583(4)
O29_2 O 0.6724(3) 0.3281(4) 0.2605(3)
O30_2 O 0.5088(2) 0.7619(5) 0.2436(4)
C67_2 C 0.3507(13) 0.761(2) 0.3362(18)
C68_2 C 0.3450(12) 0.845(2) 0.2753(18)
C69_2 C 0.398(2) 0.753(3) 0.149(3)
C70_2 C 0.4081(17) 0.640(3) 0.190(2)
C71_2 C 0.917(2) 0.782(3) 0.352(3)
C72_2 C 0.938(2) 0.654(4) 0.355(3)
H1_2 H 0.628653 0.188592 0.109307
H2_2 H 0.664051 0.305134 0.0977649
H3_2 H 0.706609 0.194763 0.110645
H4_2 H 0.377382 0.62763 0.239628
H5_2 H 0.400608 0.584922 0.139201
H6_2 H 0.452938 0.633286 0.218079
H7_2 H 0.979601 0.645172 0.325256
H8_2 H 0.942894 0.62898 0.421627
H9_2 H 0.904298 0.609871 0.319945
H10_2 H 0.828427 0.913994 0.558914
H13_2 H 0.312556 0.838546 0.221046
H14_2 H 0.343441 0.919616 0.302137
H15_2 H 0.599393 0.119572 0.392492
H16_2 H 0.628804 0.200666 0.474629
H17_2 H 0.599482 0.250146 0.374921
H18_2 H 0.875584 0.56869 0.0738489
H19_2 H 0.449487 0.789688 0.420202
H20_2 H 0.518693 0.839852 0.396236
H21_2 H 0.453617 0.911307 0.376313
H22_2 H 0.705051 0.119185 0.401645
H23_2 H 0.70514 0.24976 0.384074
H24_2 H 0.789243 0.800327 0.431117
H25_2 H 0.875404 0.7908 0.381762
H26_2 H 0.950707 0.826102 0.387073
H27_2 H 0.986331 0.87595 0.157213
H29_2 H 0.894382 0.755386 0.096019
H30_2 H 0.81886 0.789337 0.0869744
H31_2 H 0.873959 0.882896 0.0970131
H32_2 H 0.760957 0.0232708 0.311846
H34_2 H 0.767589 0.0689131 0.205692
H35_2 H 0.649018 0.0119133 0.2826
H36_2 H 0.65565 0.0575556 0.176447
H37_2 H 0.972422 0.705905 0.130646
H39_2 H 0.994332 0.679491 0.240027
H40_2 H 0.388175 0.773564 0.381946
H41_2 H 0.310843 0.754943 0.370748
H42_2 H 0.35729 0.692494 0.300855
H43_2 H 0.428994 0.775982 0.102504
H44_2 H 0.353438 0.770326 0.124052
H45_2 H 0.124416 0.56869 0.926151
H46_2 H 0.350982 0.0119133 0.7174
H47_2 H 0.34435 0.0575556 0.823553
H48_2 H 0.371347 0.188592 0.890693
H49_2 H 0.335949 0.305134 0.902235
H50_2 H 0.293391 0.194763 0.889355
H51_2 H 0.471279 0.347497 0.570365
H52_2 H 0.459837 0.742054 0.934135
H53_2 H 0.171573 0.913994 0.441086
H54_2 H 0.400607 0.119572 0.607508
H55_2 H 0.371196 0.200666 0.525371
H56_2 H 0.400518 0.250146 0.625079
H57_2 H 0.105618 0.755386 0.903981
H58_2 H 0.18114 0.789337 0.913026
H59_2 H 0.126041 0.882896 0.902987
H60_2 H 0.239043 0.0232708 0.688154
H62_2 H 0.232411 0.0689131 0.794308
H63_2 H 0.294949 0.119185 0.598355
H64_2 H 0.29486 0.24976 0.615926
H65_2 H 0.124596 0.7908 0.618238
H66_2 H 0.0492931 0.826102 0.612927
H67_2 H 0.0275783 0.705905 0.869354
H69_2 H 0.00566832 0.679491 0.759973
H70_2 H 0.0203989 0.645172 0.674744
H71_2 H 0.0571059 0.62898 0.578373
H72_2 H 0.0957022 0.609871 0.680055
H73_2 H 0.571006 0.775982 0.897496
H74_2 H 0.646562 0.770326 0.875948
H75_2 H 0.528721 0.347497 0.429635
H76_2 H 0.687444 0.838546 0.778954
H77_2 H 0.656559 0.919616 0.697863
H78_2 H 0.622618 0.62763 0.760372
H79_2 H 0.599392 0.584922 0.860799
H80_2 H 0.547062 0.633286 0.781921
H81_2 H 0.0136689 0.87595 0.842787
H83_2 H 0.210757 0.800327 0.568883
H85_2 H 0.550513 0.789688 0.579798
H86_2 H 0.481307 0.839852 0.603764
H87_2 H 0.546383 0.911307 0.623687
H88_2 H 0.611825 0.773564 0.618054
H89_2 H 0.689157 0.754943 0.629252
H90_2 H 0.64271 0.692494 0.699145
C53_2 C 0.8320(3) 0.3817(6) 0.9419(5)
C54_2 C 0.8717(4) 0.4508(6) 0.9687(6)
C56_2 C 0.8349(3) 0.3133(5) 0.8678(4)
H11_2 H 0.913666 0.462603 0.94068
H28_2 H 0.00824111 0.849536 0.266594
H38_2 H 0.0451278 0.733844 0.171888
H33_2 H 0.743399 0.945058 0.221708
H61_2 H 0.256601 0.945058 0.778292
H68_2 H 0.954872 0.733844 0.828112
H82_2 H 0.991759 0.849536 0.733406
loop_
_geom_bond_atom_site_label_1
_geom_bond_atom_site_label_2
_geom_bond_site_symmetry_1
_geom_bond_site_symmetry_2
C42 C41 1_555 1_555
O18 C42 1_555 1_555
Mg14 O18 1_555 1_555
C40 C41 1_555 1_555
C40 H12 1_555 1_555
C27 C30 1_555 1_555
N2 C27 1_555 1_555
C31 C32 1_555 1_555
C32 N2 1_555 1_555
C33 N2 1_555 1_555
C34 C33 1_555 1_555
C38 S2 1_555 1_555
C39 C38 1_555 1_555
O16 C39 1_555 1_555
Mg4 O22 1_555 1_555
Mg14 O16 1_555 1_555
S6 C61 1_555 1_555
C43 C45 1_555 1_555
C50 C57 1_555 1_555
C57 C62 1_555 1_555
C59 C62 1_555 1_555
C60 C61 1_555 1_555
C61 C50 1_555 1_555
C62 S6 1_555 1_555
C64 C65 1_555 1_555
C65 N6 1_555 1_555
N6 C43 1_555 1_555
O21 C60 1_555 1_555
O22 C58 1_555 1_555
O25 Mg14 1_555 1_555
O26 C60 1_555 1_555
O27 Mg4 1_555 1_555
O28 Mg4 1_555 1_555
O30 Mg14 1_555 1_555
C71 N6 1_555 1_555
C72 C71 1_555 1_555
Mg8 O21 1_555 1_555
Mg12 O21 1_555 1_555
O31 Mg4 1_555 1_555
O33 Mg14 1_555 1_555
O37 Mg4 1_555 1_555
O39 Mg4 1_555 1_555
Mg14 O27 1_555 1_555
C43 O28 1_555 1_555
C59 O25 1_555 1_555
C59 O27 1_555 1_555
O26 Mg8 1_555 1_555
C72 H7 1_555 1_555
C72 H8 1_555 1_555
C72 H9 1_555 1_555
C50 H10 1_555 1_555
C48 H18 1_555 1_555
C57 H24 1_555 1_555
C71 H25 1_555 1_555
C71 H26 1_555 1_555
C65 H27 1_555 1_555
C65 H28 1_555 1_555
C45 H29 1_555 1_555
C45 H30 1_555 1_555
C45 H31 1_555 1_555
C64 H37 1_555 1_555
C64 H38 1_555 1_555
C64 H39 1_555 1_555
C33 H73 1_555 1_555
C33 H74 1_555 1_555
C32 H76 1_555 1_555
C32 H77 1_555 1_555
C34 H78 1_555 1_555
C34 H79 1_555 1_555
C34 H80 1_555 1_555
C30 H85 1_555 1_555
C30 H87 1_555 1_555
C31 H88 1_555 1_555
C31 H89 1_555 1_555
C31 H90 1_555 1_555
O19 Mg11 1_555 1_555
Mg11 O17 1_555 1_555
C44 C47 1_555 1_555
C46 C49 1_555 1_555
C47 N4 1_555 1_555
C49 N4 1_555 1_555
C51 C52 1_555 1_555
C52 N4 1_555 1_555
C55 S5 1_555 1_555
O20 Mg11 1_555 1_555
O29 Mg11 1_555 1_555
C52 O29 1_555 1_555
C51 H1 1_555 1_555
C51 H2 1_555 1_555
C51 H3 1_555 1_555
C44 H15 1_555 1_555
C44 H16 1_555 1_555
C44 H17 1_555 1_555
C47 H22 1_555 1_555
C47 H23 1_555 1_555
C46 H32 1_555 1_555
C46 H33 1_555 1_555
C46 H34 1_555 1_555
C49 H35 1_555 1_555
C49 H36 1_555 1_555
C37 H75 1_555 1_555
C53 C54 1_555 1_555
C56 C53 1_555 1_555
O23 C56 1_555 1_555
O24 C56 1_555 1_555
Mg8 O24 1_555 1_555
Mg15 O23 1_555 1_555
C54 H11 1_555 1_555
Mg1 O4 1_555 1_555
Mg3 O1 1_555 1_555
S2_2 C13 1_555 1_555
S4 C25 1_555 1_555
C1 C3 1_555 1_555
C8 C21 1_555 1_555
C11 C18 1_555 1_555
C13 C17 1_555 1_555
C17 O1 1_555 1_555
C18 C20 1_555 1_555
C20 O7 1_555 1_555
C21 C26 1_555 1_555
C23 C26 1_555 1_555
C24 C25 1_555 1_555
C25 C8 1_555 1_555
C26 S4 1_555 1_555
C28 C29 1_555 1_555
C29 N3 1_555 1_555
N3 C1 1_555 1_555
O3 C24 1_555 1_555
O4 C22 1_555 1_555
O10 Mg3 1_555 1_555
O11 C24 1_555 1_555
O12 Mg1 1_555 1_555
O13 Mg1 1_555 1_555
O15 Mg3 1_555 1_555
C35 N3 1_555 1_555
C36 C35 1_555 1_555
C63 C66 1_555 1_555
N5 C63 1_555 1_555
C67 C68 1_555 1_555
C68 N5 1_555 1_555
C69 N5 1_555 1_555
C70 C69 1_555 1_555
Mg10 O3 1_555 1_555
Mg13 O3 1_555 1_555
O32 Mg1 1_555 1_555
O34 Mg3 1_555 1_555
O38 Mg1 1_555 1_555
O40 Mg1 1_555 1_555
Mg3 O7 1_555 1_555
Mg3 O12 1_555 1_555
C1 O13 1_555 1_555
C23 O10 1_555 1_555
C23 O12 1_555 1_555
O11 Mg10 1_555 1_555
C70 H4 1_555 1_555
C70 H5 1_555 1_555
C70 H6 1_555 1_555
C68 H13 1_555 1_555
C68 H14 1_555 1_555
C66 H19 1_555 1_555
C66 H21 1_555 1_555
C67 H40 1_555 1_555
C67 H41 1_555 1_555
C67 H42 1_555 1_555
C69 H43 1_555 1_555
C69 H44 1_555 1_555
C6 H45 1_555 1_555
C11 H52 1_555 1_555
C8 H53 1_555 1_555
C3 H57 1_555 1_555
C3 H58 1_555 1_555
C3 H59 1_555 1_555
C35 H65 1_555 1_555
C35 H66 1_555 1_555
C28 H67 1_555 1_555
C28 H68 1_555 1_555
C28 H69 1_555 1_555
C36 H70 1_555 1_555
C36 H71 1_555 1_555
C36 H72 1_555 1_555
C29 H81 1_555 1_555
C29 H82 1_555 1_555
C21 H83 1_555 1_555
C14 C15 1_555 1_555
C19 C14 1_555 1_555
O6 C19 1_555 1_555
O9 C19 1_555 1_555
Mg10 O9 1_555 1_555
Mg16 O6 1_555 1_555
C15 H84 1_555 1_555
Mg2 O2 1_555 1_555
C2 C5 1_555 1_555
C4 C7 1_555 1_555
C5 N1 1_555 1_555
C7 N1 1_555 1_555
C9 C12 1_555 1_555
C12 N1 1_555 1_555
C16 S1 1_555 1_555
O5 Mg2 1_555 1_555
O8 Mg2 1_555 1_555
O14 Mg2 1_555 1_555
C12 O14 1_555 1_555
C7 H46 1_555 1_555
C7 H47 1_555 1_555
C9 H48 1_555 1_555
C9 H49 1_555 1_555
C9 H50 1_555 1_555
C10 H51 1_555 1_555
C2 H54 1_555 1_555
C2 H55 1_555 1_555
C2 H56 1_555 1_555
C4 H60 1_555 1_555
C4 H61 1_555 1_555
C4 H62 1_555 1_555
C5 H63 1_555 1_555
C5 H64 1_555 1_555
O31 C24_2 1_555 1_555
O39 C24_2 1_555 1_555
O32 C60_2 1_555 1_555
O40 C60_2 1_555 1_555
C14_2 C15_2 1_555 1_555
C19_2 C14_2 1_555 1_555
O33 C19_2 1_555 1_555
O37 C19_2 1_555 1_555
C41_2 S3_5 1_555 1_555
C42_2 C41_2 1_555 1_555
O18_2 C42_2 1_555 1_555
O19_2 C42_2 1_555 1_555
Mg13 O18_2 1_555 1_555
Mg16 O18_2 1_555 1_555
C40_2 C41_2 1_555 1_555
O19_2 Mg13 1_555 1_555
C40_2 H12_2 1_555 1_555
C15_2 H84_2 1_555 1_555
Mg8 O4_2 1_555 1_555
Mg12 O2_2 1_555 1_555
Mg15 O1_2 1_555 1_555
S2_3 C13_2 1_555 1_555
S3_6 C18_2 1_555 1_555
S4_2 C25_2 1_555 1_555
C1_2 C3_2 1_555 1_555
C2_2 C5_2 1_555 1_555
C4_2 C7_2 1_555 1_555
C5_2 N1_2 1_555 1_555
C7_2 N1_2 1_555 1_555
C8_2 C21_2 1_555 1_555
C9_2 C12_2 1_555 1_555
C10_2 C13_2 1_555 1_555
C11_2 C18_2 1_555 1_555
C12_2 N1_2 1_555 1_555
C13_2 C17_2 1_555 1_555
C16_2 S1_2 1_555 1_555
C17_2 O1_2 1_555 1_555
C18_2 C20_2 1_555 1_555
C20_2 O7_2 1_555 1_555
C21_2 C26_2 1_555 1_555
C22_2 C16_2 1_555 1_555
C23_2 C26_2 1_555 1_555
C25_2 C8_2 1_555 1_555
C26_2 S4_2 1_555 1_555
C27_2 C30_2 1_555 1_555
C28_2 C29_2 1_555 1_555
C29_2 N3_2 1_555 1_555
N2_2 C27_2 1_555 1_555
N3_2 C1_2 1_555 1_555
O2_2 C22_2 1_555 1_555
O4_2 C22_2 1_555 1_555
O5_2 Mg12 1_555 1_555
O7_2 Mg12 1_555 1_555
O8_2 Mg12 1_555 1_555
O10_2 Mg15 1_555 1_555
O12_2 Mg8 1_555 1_555
O13_2 Mg8 1_555 1_555
O14_2 Mg12 1_555 1_555
O15_2 Mg15 1_555 1_555
C31_2 C32_2 1_555 1_555
C32_2 N2_2 1_555 1_555
C33_2 N2_2 1_555 1_555
C34_2 C33_2 1_555 1_555
C35_2 N3_2 1_555 1_555
C36_2 C35_2 1_555 1_555
C37_2 C10_2 1_555 1_555
C38_2 S2_3 1_555 1_555
C39_2 C38_2 1_555 1_555
O16_2 C39_2 1_555 1_555
O17_2 C39_2 1_555 1_555
Mg10 O22_2 1_555 1_555
Mg13 O17_2 1_555 1_555
Mg16 O16_2 1_555 1_555
S6_2 C61_2 1_555 1_555
C43_2 C45_2 1_555 1_555
C44_2 C47_2 1_555 1_555
C46_2 C49_2 1_555 1_555
C47_2 N4_2 1_555 1_555
C49_2 N4_2 1_555 1_555
C50_2 C57_2 1_555 1_555
C51_2 C52_2 1_555 1_555
C52_2 N4_2 1_555 1_555
C55_2 S5_2 1_555 1_555
C57_2 C62_2 1_555 1_555
C58_2 C55_2 1_555 1_555
C59_2 C62_2 1_555 1_555
C61_2 C50_2 1_555 1_555
C62_2 S6_2 1_555 1_555
C63_2 C66_2 1_555 1_555
C64_2 C65_2 1_555 1_555
C65_2 N6_2 1_555 1_555
N5_2 C63_2 1_555 1_555
N6_2 C43_2 1_555 1_555
O20_2 Mg13 1_555 1_555
O22_2 C58_2 1_555 1_555
O25_2 Mg16 1_555 1_555
O27_2 Mg10 1_555 1_555
O28_2 Mg10 1_555 1_555
O29_2 Mg13 1_555 1_555
O30_2 Mg16 1_555 1_555
C67_2 C68_2 1_555 1_555
C68_2 N5_2 1_555 1_555
C69_2 N5_2 1_555 1_555
C70_2 C69_2 1_555 1_555
C71_2 N6_2 1_555 1_555
C72_2 C71_2 1_555 1_555
Mg15 O7_2 1_555 1_555
Mg15 O12_2 1_555 1_555
C1_2 O13_2 1_555 1_555
C6_2 C16_2 1_555 1_555
C12_2 O14_2 1_555 1_555
C17_2 O5_2 1_555 1_555
C20_2 O8_2 1_555 1_555
C23_2 O10_2 1_555 1_555
C23_2 O12_2 1_555 1_555
C27_2 O15_2 1_555 1_555
C37_2 C38_2 1_555 1_555
Mg16 O27_2 1_555 1_555
C43_2 O28_2 1_555 1_555
C48_2 C55_2 1_555 1_555
C52_2 O29_2 1_555 1_555
C58_2 O20_2 1_555 1_555
C59_2 O25_2 1_555 1_555
C59_2 O27_2 1_555 1_555
C63_2 O30_2 1_555 1_555
C51_2 H1_2 1_555 1_555
C51_2 H2_2 1_555 1_555
C51_2 H3_2 1_555 1_555
C70_2 H4_2 1_555 1_555
C70_2 H5_2 1_555 1_555
C70_2 H6_2 1_555 1_555
C72_2 H7_2 1_555 1_555
C72_2 H8_2 1_555 1_555
C72_2 H9_2 1_555 1_555
C50_2 H10_2 1_555 1_555
C68_2 H13_2 1_555 1_555
C68_2 H14_2 1_555 1_555
C44_2 H15_2 1_555 1_555
C44_2 H16_2 1_555 1_555
C44_2 H17_2 1_555 1_555
C48_2 H18_2 1_555 1_555
C66_2 H19_2 1_555 1_555
C66_2 H20_2 1_555 1_555
C66_2 H21_2 1_555 1_555
C47_2 H22_2 1_555 1_555
C47_2 H23_2 1_555 1_555
C57_2 H24_2 1_555 1_555
C71_2 H25_2 1_555 1_555
C71_2 H26_2 1_555 1_555
C65_2 H27_2 1_555 1_555
C45_2 H29_2 1_555 1_555
C45_2 H30_2 1_555 1_555
C45_2 H31_2 1_555 1_555
C46_2 H32_2 1_555 1_555
C46_2 H34_2 1_555 1_555
C49_2 H35_2 1_555 1_555
C49_2 H36_2 1_555 1_555
C64_2 H37_2 1_555 1_555
C64_2 H39_2 1_555 1_555
C67_2 H40_2 1_555 1_555
C67_2 H41_2 1_555 1_555
C67_2 H42_2 1_555 1_555
C69_2 H43_2 1_555 1_555
C69_2 H44_2 1_555 1_555
C6_2 H45_2 1_555 1_555
C7_2 H46_2 1_555 1_555
C7_2 H47_2 1_555 1_555
C9_2 H48_2 1_555 1_555
C9_2 H49_2 1_555 1_555
C9_2 H50_2 1_555 1_555
C10_2 H51_2 1_555 1_555
C11_2 H52_2 1_555 1_555
C8_2 H53_2 1_555 1_555
C2_2 H54_2 1_555 1_555
C2_2 H55_2 1_555 1_555
C2_2 H56_2 1_555 1_555
C3_2 H57_2 1_555 1_555
C3_2 H58_2 1_555 1_555
C3_2 H59_2 1_555 1_555
C4_2 H60_2 1_555 1_555
C4_2 H62_2 1_555 1_555
C5_2 H63_2 1_555 1_555
C5_2 H64_2 1_555 1_555
C35_2 H65_2 1_555 1_555
C35_2 H66_2 1_555 1_555
C28_2 H67_2 1_555 1_555
C28_2 H69_2 1_555 1_555
C36_2 H70_2 1_555 1_555
C36_2 H71_2 1_555 1_555
C36_2 H72_2 1_555 1_555
C33_2 H73_2 1_555 1_555
C33_2 H74_2 1_555 1_555
C37_2 H75_2 1_555 1_555
C32_2 H76_2 1_555 1_555
C32_2 H77_2 1_555 1_555
C34_2 H78_2 1_555 1_555
C34_2 H79_2 1_555 1_555
C34_2 H80_2 1_555 1_555
C29_2 H81_2 1_555 1_555
C21_2 H83_2 1_555 1_555
C30_2 H85_2 1_555 1_555
C30_2 H86_2 1_555 1_555
C30_2 H87_2 1_555 1_555
C31_2 H88_2 1_555 1_555
C31_2 H89_2 1_555 1_555
C31_2 H90_2 1_555 1_555
C53_2 C54_2 1_555 1_555
C56_2 C53_2 1_555 1_555
O34 C56_2 1_555 1_555
O38 C56_2 1_555 1_555
C54_2 H11_2 1_555 1_555

#END
