
###############################################################################
#
# This file contains modified crystal structure data generated from the
# MOF subset of the Cambridge Structural Database (CSD) v543 
# hosted by the Cambridge Crystallographic Data Centre (CCDC).
#
# This work is licensed under the Creative Commons
# Attribution-NonCommercial-ShareAlike 4.0 International License.
# To view a copy of this license, visit
# http://creativecommons.org/licenses/by-nc-sa/4.0/
# or send a letter to
# Creative Commons, PO Box 1866, Mountain View, CA 94042, USA.
#
# CIF created using the CSD Python API on 29 September 2022
# The structure has been converted into the P1 space group
# The structure has a 3D framework
# The original CSD entry TAGTIH is in the rhombohedral crystal system
# The original CSD entry TAGTIH is in a Sohncke space group
# The framework has been calculated to contain at least 10.0% void space
# The void calculation uses a probe of radius 1.32A, grid spacing 0.4
# The framework is charged, counterions have been retained in the structure
# H atom positions have been added when not included in the experimental data
# Generated hydrogen atom positions removed from atoms on special positions
#
###############################################################################

data_TAGTIH
_chemical_formula_moiety         '(C54 H90 Mg16 O71 10-)n'
_symmetry_cell_setting           triclinic
_symmetry_space_group_name_H-M   'P 1'
_symmetry_Int_Tables_number      1
_space_group_name_Hall           'P 1'
loop_
_symmetry_equiv_pos_site_id
_symmetry_equiv_pos_as_xyz
1 x,y,z
_cell_length_a                   14.1381(9)
_cell_length_b                   14.1381(9)
_cell_length_c                   21.558(4)
_cell_angle_alpha                90
_cell_angle_beta                 90
_cell_angle_gamma                120
_cell_volume                     3731.82
loop_
_atom_site_label
_atom_site_type_symbol
_atom_site_fract_x
_atom_site_fract_y
_atom_site_fract_z
Mg1 Mg 0.14289(15) 0.14289(15) 0.0000
C1 C 0.1935(4) 0.0032(4) 0.0848(2)
O1 O 0.2023(3) 0.0939(3) 0.07557(17)
O3 O 0.3333 0.0872(3) 0.1667
O4 O 0.2901(4) 0.2901(4) 0.0000
O5 O 0.0000 0.0000 0.0000
C4 C 0.4732(4) 0.1430(6) 0.2485(2)
C5 C 0.3959(4) 0.0615(6) 0.2022(2)
O6 O 0.4644(3) 0.2249(4) 0.25776(17)
O7 O 0.5368(3) 0.1196(4) 0.27233(18)
C8 C 0.0010(4) 0.2718(6) 0.1311(2)
C9 C 0.0814(5) 0.3769(7) 0.1442(3)
H3 H 0.1496 0.4148 0.1254
O9 O 0.0838(3) 0.2137(4) 0.06100(18)
C12 C 0.0436(7) 0.4147(5) 0.1891(3)
H4 H 0.0815 0.4829 0.2079
Mg7 Mg 0.52378(15) 0.33333(21) 0.3333
Mg9 Mg 0.66667(21) 0.19044(15) 0.3333
Mg1_2 Mg 0.14289(15) 0.14289(15) 1.0000
O4_2 O 0.2901(4) 0.2901(4) 1.0000
O5_2 O -0.0000 0.0000 1.0000
O20 O 0.0939(3) 0.2023(3) 0.92443(17)
O25 O 0.2137(4) 0.0838(3) 0.93900(18)
C2 C 0.2708(4) 0.9990(4) 0.1311(2)
C3 C 0.2955(5) 0.9186(5) 0.1442(3)
H1 H 0.2652 0.8504 0.1254
O2 O 0.1299(3) 0.9162(3) 0.06100(18)
O5_3 O 0.0000 1.0000 0.0000
C6 C 0.3712(5) 0.9564(7) 0.1891(3)
H2 H 0.4015 0.9185 0.2079
Mg3 Mg 0.00000(21) 0.85711(15) 0.0000
O17 O 0.0000(6) 0.7099(4) 0.0000
O5_4 O -0.0000 1.0000 1.0000
Mg3_2 Mg -0.00000(21) 0.85711(15) 1.0000
O17_2 O -0.0000(6) 0.7099(4) 1.0000
O22 O 0.1084(4) 0.9061(3) 0.92443(17)
O5_5 O 1.0000 0.0000 0.0000
Mg2 Mg 0.85711(15) 0.00000(21) 0.0000
C7 C 0.9968(4) 0.1903(6) 0.0848(2)
O8 O 0.9061(3) 0.1084(4) 0.07557(17)
O10 O 0.9128(3) 0.2461(3) 0.1667
O11 O 0.7099(4) 0.0000(6) 0.0000
C10 C 0.8570(6) 0.3301(4) 0.2485(2)
C11 C 0.9385(6) 0.3343(4) 0.2022(2)
O12 O 0.7751(4) 0.2394(3) 0.25776(17)
O13 O 0.8804(4) 0.4171(3) 0.27233(18)
Mg5 Mg 0.80956(15) 0.47622(15) 0.3333
O5_6 O 1.0000 0.0000 1.0000
Mg2_2 Mg 0.85711(15) 0.00000(21) 1.0000
O11_2 O 0.7099(4) 0.0000(6) 1.0000
O23 O 0.9162(3) 0.1299(3) 0.93900(18)
H9 H 0.724231 0.0754859 0.99308
O5_7 O 1.0000 1.0000 0.0000
Mg2_3 Mg 0.85711(15) 1.00000(21) 0.0000
O11_3 O 0.7099(4) 1.0000(6) 0.0000
Mg3_3 Mg 1.00000(21) 0.85711(15) 0.0000
C13 C 0.8097(6) 0.8065(4) 0.0848(2)
C14 C 0.7282(6) 0.7292(4) 0.1311(2)
C15 C 0.6231(7) 0.7045(5) 0.1442(3)
H5 H 0.5852 0.7348 0.1254
O14 O 0.8916(4) 0.7977(3) 0.07557(17)
O15 O 0.7863(4) 0.8701(3) 0.06100(18)
O16 O 0.7539(3) 0.6667 0.1667
O17_3 O 1.0000(6) 0.7099(4) 0.0000
C16 C 0.6699(4) 0.5268(4) 0.2485(2)
C17 C 0.6657(4) 0.6041(4) 0.2022(2)
C18 C 0.5853(5) 0.6288(5) 0.1891(3)
H6 H 0.5171 0.5985 0.2079
O18 O 0.7606(3) 0.5356(3) 0.25776(17)
O19 O 0.5829(3) 0.4632(3) 0.27233(18)
H11 H 0.987269 0.680123 0.0428213
O5_8 O 1.0000 1.0000 1.0000
Mg2_4 Mg 0.85711(15) 1.00000(21) 1.0000
O11_4 O 0.7099(4) 1.0000(6) 1.0000
Mg3_4 Mg 1.00000(21) 0.85711(15) 1.0000
O17_4 O 1.0000(6) 0.7099(4) 1.0000
O21 O 0.7977(3) 0.8916(4) 0.92443(17)
O24 O 0.8701(3) 0.7863(4) 0.93900(18)
H10 H 0.66234 0.951705 0.966331
H12 H 0.941071 0.657024 0.972327
H10_2 H 0.0482952 0.710636 0.966331
H9_2 H 0.924514 0.648745 0.99308
H11_2 H 0.692854 0.0127311 0.0428213
H12_2 H 0.715953 0.058929 0.972327
C1_2 C 0.0032(4) 0.1935(4) 0.9152(2)
O3_2 O 0.0872(3) 0.3333 0.8333
C4_2 C 0.1430(6) 0.4732(4) 0.7515(2)
C5_2 C 0.0615(6) 0.3959(4) 0.7978(2)
O6_2 O 0.2249(4) 0.4644(3) 0.74224(17)
O7_2 O 0.1196(4) 0.5368(3) 0.72767(18)
C8_2 C 0.2718(6) 0.0010(4) 0.8689(2)
C9_2 C 0.3769(7) 0.0814(5) 0.8558(3)
H3_2 H 0.4148 0.1496 0.8746
C12_2 C 0.4147(5) 0.0436(7) 0.8109(3)
H4_2 H 0.4829 0.0815 0.7921
Mg7_2 Mg 0.33333(21) 0.52378(15) 0.6667
Mg9_2 Mg 0.19044(15) 0.66667(21) 0.6667
H9_3 H 0.0754859 0.724231 0.00692034
C7_2 C 0.1903(6) 0.9968(4) 0.9152(2)
O10_2 O 0.2461(3) 0.9128(3) 0.8333
C10_2 C 0.3301(4) 0.8570(6) 0.7515(2)
C11_2 C 0.3343(4) 0.9385(6) 0.7978(2)
O12_2 O 0.2394(3) 0.7751(4) 0.74224(17)
O13_2 O 0.4171(3) 0.8804(4) 0.72767(18)
Mg5_2 Mg 0.47622(15) 0.80956(15) 0.6667
C2_2 C 0.9990(4) 0.2708(4) 0.8689(2)
C3_2 C 0.9186(5) 0.2955(5) 0.8558(3)
H1_2 H 0.8504 0.2652 0.8746
C6_2 C 0.9564(7) 0.3712(5) 0.8109(3)
H2_2 H 0.9185 0.4015 0.7921
H10_3 H 0.951705 0.66234 0.0336685
H12_3 H 0.657024 0.941071 0.0276726
C13_2 C 0.8065(4) 0.8097(6) 0.9152(2)
C14_2 C 0.7292(4) 0.7282(6) 0.8689(2)
C15_2 C 0.7045(5) 0.6231(7) 0.8558(3)
H5_2 H 0.7348 0.5852 0.8746
O16_2 O 0.6667 0.7539(3) 0.8333
C16_2 C 0.5268(4) 0.6699(4) 0.7515(2)
C17_2 C 0.6041(4) 0.6657(4) 0.7978(2)
C18_2 C 0.6288(5) 0.5853(5) 0.8109(3)
H6_2 H 0.5985 0.5171 0.7921
O18_2 O 0.5356(3) 0.7606(3) 0.74224(17)
O19_2 O 0.4632(3) 0.5829(3) 0.72767(18)
H11_3 H 0.680123 0.987269 0.957179
H12_4 H 0.058929 0.715953 0.0276726
H11_4 H 0.0127311 0.692854 0.957179
H8 H 0.710636 0.0482952 0.0336685
H7 H 0.648745 0.924514 0.00692034
O3_3 O -0.0000 0.4205(3) 0.5000
C4_3 C 0.1398(4) 0.4764(6) 0.5819(2)
C5_3 C 0.0625(4) 0.3949(6) 0.5356(2)
C6_3 C 0.0378(5) 0.2898(7) 0.5225(3)
H2_3 H 0.0681 0.2519 0.5413
O6_3 O 0.1310(3) 0.5583(4) 0.59110(17)
O7_3 O 0.2034(3) 0.4530(4) 0.60567(18)
H7_2 H 0.0179215 0.609102 0.326413
C1_3 C 0.8602(4) 0.3365(4) 0.4181(2)
C2_3 C 0.9375(4) 0.3323(4) 0.4644(2)
C3_3 C 0.9622(5) 0.2519(5) 0.4775(3)
H1_3 H 0.9319 0.1837 0.4587
O1_2 O 0.8690(3) 0.4272(3) 0.40890(17)
O2_2 O 0.7966(3) 0.2495(3) 0.39433(18)
O3_4 O 1.0000 0.4205(3) 0.5000
O4_3 O 0.9568(4) 0.6234(4) 0.3333
O5_9 O 0.6667 0.3333 0.3333
C7_3 C 0.6635(4) 0.5236(6) 0.4181(2)
C8_3 C 0.6677(4) 0.6051(6) 0.4644(2)
C9_3 C 0.7481(5) 0.7102(7) 0.4775(3)
H3_3 H 0.8163 0.7481 0.4587
O8_2 O 0.5728(3) 0.4417(4) 0.40890(17)
O9_2 O 0.7505(3) 0.5470(4) 0.39433(18)
O10_3 O 0.5795(3) 0.5794(3) 0.5000
O11_5 O 0.3766(4) 0.3333(6) 0.3333
C10_3 C 0.5236(6) 0.6635(4) 0.5819(2)
C11_3 C 0.6051(6) 0.6677(4) 0.5356(2)
C12_3 C 0.7102(7) 0.7481(5) 0.5225(3)
H4_3 H 0.7481 0.8163 0.5413
O12_3 O 0.4417(4) 0.5728(3) 0.59110(17)
O13_3 O 0.5470(4) 0.7505(3) 0.60567(18)
C13_3 C 0.4764(6) 0.1398(4) 0.4181(2)
C14_3 C 0.3949(6) 0.0625(4) 0.4644(2)
C15_3 C 0.2898(7) 0.0378(5) 0.4775(3)
H5_3 H 0.2519 0.0681 0.4587
O14_2 O 0.5583(4) 0.1310(3) 0.40890(17)
O15_2 O 0.4530(4) 0.2034(3) 0.39433(18)
O16_3 O 0.4206(3) 0.0000 0.5000
O17_5 O 0.6667(6) 0.0432(4) 0.3333
O16_4 O 0.4206(3) 1.0000 0.5000
C16_3 C 0.3365(4) 0.8602(4) 0.5819(2)
C17_3 C 0.3323(4) 0.9375(4) 0.5356(2)
C18_3 C 0.2519(5) 0.9622(5) 0.5225(3)
H6_3 H 0.1837 0.9319 0.5413
O18_3 O 0.4272(3) 0.8690(3) 0.59110(17)
O19_3 O 0.2495(3) 0.7966(3) 0.60567(18)
H12_5 H 0.607738 0.990357 0.305661
H12_6 H 0.00964309 0.617381 0.305661
H9_4 H 0.591181 0.982078 0.326413
H8_2 H 0.00432618 0.622698 0.367002
H10_4 H 0.618371 0.995674 0.367002
H8_3 H 0.622698 0.00432618 0.632998
O4_4 O 0.6234(4) 0.9568(4) 0.6667
O5_10 O 0.3333 0.6667 0.6667
O11_6 O 0.0432(4) 0.6667(6) 0.6667
O17_6 O 0.3333(6) 0.3766(4) 0.6667
H10_5 H 0.995674 0.618371 0.632998
H7_3 H 0.609102 0.0179215 0.673587
H12_7 H 0.990357 0.607738 0.694339
H7_4 H 0.982078 0.591181 0.673587
H12_8 H 0.617381 0.00964309 0.694339
loop_
_geom_bond_atom_site_label_1
_geom_bond_atom_site_label_2
_geom_bond_site_symmetry_1
_geom_bond_site_symmetry_2
Mg1 O1 1_555 1_555
O1 C1 1_555 1_555
O4 Mg1 1_555 1_555
O5 Mg1 1_555 1_555
C4 C5 1_555 1_555
C5 O3 1_555 1_555
O6 C4 1_555 1_555
O7 C4 1_555 1_555
C8 C9 1_555 1_555
C9 H3 1_555 1_555
O9 Mg1 1_555 1_555
C12 C9 1_555 1_555
H4 C12 1_555 1_555
Mg7 O6 1_555 1_555
Mg9 O7 1_555 1_555
O4_2 Mg1_2 1_555 1_555
O5_2 Mg1_2 1_555 1_555
O20 Mg1_2 1_555 1_555
O25 Mg1_2 1_555 1_555
C2 C3 1_555 1_555
C3 H1 1_555 1_555
C6 C3 1_555 1_555
H2 C6 1_555 1_555
Mg3 O2 1_555 1_555
O17 Mg3 1_555 1_555
O5_3 Mg3 1_555 1_555
O17_2 Mg3_2 1_555 1_555
O22 Mg3_2 1_555 1_555
O5_4 Mg3_2 1_555 1_555
Mg2 O5_5 1_555 1_555
O8 Mg2 1_555 1_555
O11 Mg2 1_555 1_555
C10 C11 1_555 1_555
C11 O10 1_555 1_555
O12 C10 1_555 1_555
O13 C10 1_555 1_555
Mg5 O13 1_555 1_555
Mg9 O12 1_555 1_555
C7 O8 1_555 1_555
Mg2_2 O5_6 1_555 1_555
O11_2 Mg2_2 1_555 1_555
O23 Mg2_2 1_555 1_555
O11_2 H9 1_555 1_555
Mg2_3 O5_7 1_555 1_555
O11_3 Mg2_3 1_555 1_555
C13 C14 1_555 1_555
C14 C15 1_555 1_555
C15 H5 1_555 1_555
O14 Mg3_3 1_555 1_555
O15 Mg2_3 1_555 1_555
O16 C14 1_555 1_555
O17_3 Mg3_3 1_555 1_555
C16 C17 1_555 1_555
C17 O16 1_555 1_555
C18 C15 1_555 1_555
H6 C18 1_555 1_555
O18 C16 1_555 1_555
O19 C16 1_555 1_555
Mg5 O18 1_555 1_555
Mg7 O19 1_555 1_555
O5_7 Mg3_3 1_555 1_555
C13 O14 1_555 1_555
C13 O15 1_555 1_555
C17 C18 1_555 1_555
O17_3 H11 1_555 1_555
Mg2_4 O5_8 1_555 1_555
O11_4 Mg2_4 1_555 1_555
O17_4 Mg3_4 1_555 1_555
O21 Mg2_4 1_555 1_555
O24 Mg3_4 1_555 1_555
O5_8 Mg3_4 1_555 1_555
O11_4 H10 1_555 1_555
O17_4 H12 1_555 1_555
O17_2 H10_2 1_555 1_555
O17_4 H9_2 1_555 1_555
O11 H11_2 1_555 1_555
O11_2 H12_2 1_555 1_555
O20 C1_2 1_555 1_555
C4_2 C5_2 1_555 1_555
C5_2 O3_2 1_555 1_555
O6_2 C4_2 1_555 1_555
O7_2 C4_2 1_555 1_555
C8_2 C9_2 1_555 1_555
C9_2 H3_2 1_555 1_555
C12_2 C9_2 1_555 1_555
H4_2 C12_2 1_555 1_555
Mg7_2 O6_2 1_555 1_555
Mg9_2 O7_2 1_555 1_555
O17 H9_3 1_555 1_555
C10_2 C11_2 1_555 1_555
C11_2 O10_2 1_555 1_555
O12_2 C10_2 1_555 1_555
O13_2 C10_2 1_555 1_555
Mg5_2 O13_2 1_555 1_555
Mg9_2 O12_2 1_555 1_555
C7_2 O22 1_555 1_555
C2_2 C3_2 1_555 1_555
C3_2 H1_2 1_555 1_555
C6_2 C3_2 1_555 1_555
H2_2 C6_2 1_555 1_555
O17_3 H10_3 1_555 1_555
O11_3 H12_3 1_555 1_555
C13_2 C14_2 1_555 1_555
C14_2 C15_2 1_555 1_555
C15_2 H5_2 1_555 1_555
O16_2 C14_2 1_555 1_555
C16_2 C17_2 1_555 1_555
C17_2 O16_2 1_555 1_555
C18_2 C15_2 1_555 1_555
H6_2 C18_2 1_555 1_555
O18_2 C16_2 1_555 1_555
O19_2 C16_2 1_555 1_555
Mg5_2 O18_2 1_555 1_555
Mg7_2 O19_2 1_555 1_555
C13_2 O21 1_555 1_555
C13_2 O24 1_555 1_555
C17_2 C18_2 1_555 1_555
O11_4 H11_3 1_555 1_555
O17 H12_4 1_555 1_555
O17_2 H11_4 1_555 1_555
O11 H8 1_555 1_555
O11_3 H7 1_555 1_555
C4_3 C5_3 1_555 1_555
C5_3 O3_3 1_555 1_555
H2_3 C6_3 1_555 1_555
O6_3 C4_3 1_555 1_555
O7_3 C4_3 1_555 1_555
Mg9_2 O6_3 1_555 1_555
Mg7_2 O7_3 1_555 1_555
C5_3 C6_3 1_555 1_555
Mg5 O1_2 1_555 1_555
C1_3 C2_3 1_555 1_555
C2_3 C3_3 1_555 1_555
C3_3 H1_3 1_555 1_555
O1_2 C1_3 1_555 1_555
O2_2 C1_3 1_555 1_555
O3_4 C2_3 1_555 1_555
O4_3 Mg5 1_555 1_555
O5_9 Mg5 1_555 1_555
Mg7 O5_9 1_555 1_555
C7_3 C8_3 1_555 1_555
C8_3 C9_3 1_555 1_555
C9_3 H3_3 1_555 1_555
O8_2 Mg7 1_555 1_555
O9_2 Mg5 1_555 1_555
O10_3 C8_3 1_555 1_555
O11_5 Mg7 1_555 1_555
C10_3 C11_3 1_555 1_555
C11_3 O10_3 1_555 1_555
C12_3 C9_3 1_555 1_555
H4_3 C12_3 1_555 1_555
O12_3 C10_3 1_555 1_555
O13_3 C10_3 1_555 1_555
Mg9 O2_2 1_555 1_555
C13_3 C14_3 1_555 1_555
C14_3 C15_3 1_555 1_555
C15_3 H5_3 1_555 1_555
O14_2 Mg9 1_555 1_555
O15_2 Mg7 1_555 1_555
O16_3 C14_3 1_555 1_555
O17_5 Mg9 1_555 1_555
Mg5_2 O13_3 1_555 1_555
Mg7_2 O12_3 1_555 1_555
O5_9 Mg9 1_555 1_555
C7_3 O8_2 1_555 1_555
C7_3 O9_2 1_555 1_555
C11_3 C12_3 1_555 1_555
C13_3 O14_2 1_555 1_555
C13_3 O15_2 1_555 1_555
C16_3 C17_3 1_555 1_555
C17_3 O16_4 1_555 1_555
H6_3 C18_3 1_555 1_555
O18_3 C16_3 1_555 1_555
O19_3 C16_3 1_555 1_555
Mg5_2 O18_3 1_555 1_555
Mg9_2 O19_3 1_555 1_555
C17_3 C18_3 1_555 1_555
O4_4 Mg5_2 1_555 1_555
O5_10 Mg5_2 1_555 1_555
Mg9_2 O5_10 1_555 1_555
O11_6 Mg9_2 1_555 1_555
O17_6 Mg7_2 1_555 1_555
O5_10 Mg7_2 1_555 1_555

#END
