
###############################################################################
#
# This file contains modified crystal structure data generated from the
# MOF subset of the Cambridge Structural Database (CSD) v543 
# hosted by the Cambridge Crystallographic Data Centre (CCDC).
#
# This work is licensed under the Creative Commons
# Attribution-NonCommercial-ShareAlike 4.0 International License.
# To view a copy of this license, visit
# http://creativecommons.org/licenses/by-nc-sa/4.0/
# or send a letter to
# Creative Commons, PO Box 1866, Mountain View, CA 94042, USA.
#
# CIF created using the CSD Python API on 29 September 2022
# The structure has been converted into the P1 space group
# The structure has a 3D framework
# The original CSD entry TAGTUT is in the monoclinic crystal system
# The framework has been calculated to contain at least 10.0% void space
# The void calculation uses a probe of radius 1.32A, grid spacing 0.4
# H atom positions have been added when not included in the experimental data
# Generated hydrogen atom positions removed from atoms on special positions
#
###############################################################################

data_TAGTUT
_chemical_formula_moiety         '(C480 H440 Mg40 N24 O170)n'
_symmetry_cell_setting           triclinic
_symmetry_space_group_name_H-M   'P 1'
_symmetry_Int_Tables_number      1
_space_group_name_Hall           'P 1'
loop_
_symmetry_equiv_pos_site_id
_symmetry_equiv_pos_as_xyz
1 x,y,z
_cell_length_a                   53.598(9)
_cell_length_b                   16.409(3)
_cell_length_c                   21.672(4)
_cell_angle_alpha                90
_cell_angle_beta                 113.85
_cell_angle_gamma                90
_cell_volume                     17432.7
loop_
_atom_site_label
_atom_site_type_symbol
_atom_site_fract_x
_atom_site_fract_y
_atom_site_fract_z
H13 H 0.0951 0.0687 0.0010
C23 C 0.01238(18) 0.0084(6) 0.5258(4)
C26 C 0.0799(4) 0.0680(12) 0.9580(6)
H11 H 0.0700 0.0179 0.9531
H12 H 0.0681 0.1131 0.9551
C37 C 0.0781(3) 0.0291(7) 0.8528(5)
C43 C 0.0825(3) 0.0510(10) 0.7806(10)
H31 H 0.0728 0.0117 0.7464
H32 H 0.1016 0.0490 0.7897
H33 H 0.0756 0.1045 0.7652
C44 C 0.1077(3) 0.1542(9) 0.9041(8)
H34 H 0.1127 0.1519 0.8661
H35 H 0.1240 0.1552 0.9451
H36 H 0.0972 0.2025 0.9012
N2 N 0.0897(2) 0.0744(7) 0.9038(6)
C57 C 0.16973(17) 0.0189(6) 0.4350(4)
C58 C 0.1663(2) 0.0450(7) 0.3666(4)
H43 H 0.1768 0.0100 0.3507
H44 H 0.1474 0.0417 0.3365
H45 H 0.1725 0.1002 0.3683
C59 C 0.1370(2) 0.1253(8) 0.4306(6)
H46 H 0.1369 0.1372 0.3871
H47 H 0.1192 0.1077 0.4253
H48 H 0.1420 0.1734 0.4581
C60 C 0.1572(2) 0.0408(7) 0.5285(5)
H50 H 0.1630 0.0869 0.5582
H51 H 0.1395 0.0237 0.5245
N3 N 0.15588(16) 0.0636(4) 0.4614(4)
C62 C 0.0010(2) 0.0706(6) 0.3984(4)
C65 C 0.02627(19) 0.0892(6) 0.4498(3)
H53 H 0.0392 0.1207 0.4422
C66 C 0.03087(19) 0.0581(7) 0.5121(4)
H54 H 0.0473 0.0707 0.5477
O23 O 0.01191(10) 0.1509(3) 0.3209(2)
Mg12 Mg -0.0000 0.24712(19) 0.2500
Mg16 Mg 0.05205(5) 0.13770(15) 0.30782(10)
C39 C 0.0193(2) 0.4755(8) 0.0915(5)
H28 H 0.0350 0.4927 0.1273
C40 C 0.0129(3) 0.5030(13) 0.0235(5)
C42 C 0.0311(3) 0.5699(9) 0.0158(5)
H30 H 0.0463 0.5894 0.0519
C67 C 0.0096(2) 0.3755(7) 0.1695(4)
C68 C 0.0014(2) 0.4236(7) 0.1013(4)
O26 O 0.03411(13) 0.3957(4) 0.2121(3)
Mg19 Mg 0.05954(5) 0.34489(15) 0.29759(11)
Mg1 Mg -0.0000 0.75288(19) 0.7500
Mg2 Mg 0.05205(5) 0.86230(15) 0.80782(10)
Mg3 Mg 0.05954(5) 0.65511(15) 0.79759(11)
Mg4 Mg 0.19000(5) 0.64364(16) 0.42820(12)
C1 C 0.11124(17) 0.7884(7) 0.7234(4)
C2 C 0.00679(18) 0.8953(5) 0.6723(4)
C3 C 0.09273(17) 0.7754(9) 0.7616(4)
C5 C 0.15706(15) 0.7684(6) 0.3266(4)
C6 C 0.15796(18) 0.6557(6) 0.6018(4)
H1 H 0.1644 0.6080 0.5902
C7 C 0.13546(18) 0.7203(5) 0.6684(4)
C8 C 0.17408(15) 0.7343(6) 0.5244(3)
C9 C 0.15343(17) 0.8032(6) 0.5967(3)
H2 H 0.1567 0.8534 0.5815
C10 C 0.16141(16) 0.7323(5) 0.5762(3)
C11 C 0.13960(17) 0.7986(6) 0.6428(4)
C12 C 0.14013(17) 0.7821(6) 0.2497(3)
C13 C 0.12184(19) 0.7179(6) 0.7081(4)
H3 H 0.1194 0.6683 0.7257
C14 C 0.13237(16) 0.7134(5) 0.2102(4)
H4 H 0.1373 0.6623 0.2300
C15 C 0.11705(18) 0.7194(5) 0.1402(3)
C16 C 0.11125(16) 0.7998(5) 0.1131(3)
C17 C 0.12057(18) 0.8684(5) 0.1557(3)
H5 H 0.1174 0.9207 0.1377
C19 C 0.09002(16) 0.7408(6) 0.0016(3)
C20 C 0.09737(16) 0.8075(5) 0.0412(3)
H6 H 0.0934 0.8590 0.0218
C21 C 0.09596(18) 0.6655(6) 0.0310(4)
H7 H 0.0905 0.6200 0.0031
C22 C 0.01807(19) 0.9724(6) 0.5913(4)
H8 H 0.0351 0.9794 0.6264
C27 C 0.1438(3) 0.6547(8) 0.6474(6)
H14 H 0.1406 0.6044 0.6624
C28 C 0.13001(18) 0.8685(7) 0.6613(4)
H15 H 0.1334 0.9190 0.6468
C29 C 0.11516(19) 0.8643(8) 0.7021(4)
H16 H 0.1083 0.9109 0.7141
C30 C 0.13416(17) 0.8568(5) 0.2232(3)
H17 H 0.1394 0.9018 0.2516
C31 C 0.1093(2) 0.6531(6) 0.0984(4)
H18 H 0.1131 0.6006 0.1159
C32 C 0.1596(4) 0.4845(10) 0.4152(8)
C33 C 0.1397(4) 0.4846(9) 0.4624(9)
H19 H 0.1319 0.4316 0.4606
H20 H 0.1254 0.5242 0.4442
H21 H 0.1510 0.4982 0.5085
C34 C 0.1724(3) 0.4113(12) 0.3453(7)
H22 H 0.1800 0.4635 0.3424
H23 H 0.1588 0.3966 0.3019
H24 H 0.1867 0.3711 0.3594
C38 C 0.1436(3) 0.3388(6) 0.4144(7)
H25 H 0.1357 0.3510 0.4459
H26 H 0.1567 0.2958 0.4321
H27 H 0.1295 0.3219 0.3723
C41 C 0.0229(3) 0.5999(9) 0.9499(5)
H29 H 0.0342 0.6363 0.9404
O1 O 0.07526(14) 0.5399(4) 0.8211(3)
O2 O 0.00627(13) 0.6705(4) 0.8236(3)
O3 O 0.06285(11) 0.9736(4) 0.8476(3)
O4 O 0.08409(10) 0.8446(5) 0.7783(2)
O7 O 0.08776(11) 0.7055(4) 0.7758(3)
O10 O 0.02892(10) 0.9106(3) 0.7161(2)
O11 O 0.03826(7) 0.7562(2) 0.77056(17)
O12 O 0.17120(12) 0.5392(4) 0.4089(3)
O13 O 0.16365(10) 0.8312(4) 0.3614(2)
O14 O 0.16316(10) 0.6942(4) 0.3445(2)
O15 O 0.17876(9) 0.8059(3) 0.5086(2)
O16 O 0.17803(9) 0.6680(3) 0.5019(2)
N1 N 0.1579(2) 0.4159(10) 0.4030(8)
Mg5 Mg 0.2500 0.7500 0.5000
Mg6 Mg 0.19685(4) 0.85188(14) 0.44934(10)
C45 C 0.26210(17) 0.3706(5) 0.1122(3)
C46 C 0.28421(16) 0.5502(5) 0.3122(3)
H37 H 0.2998 0.5684 0.3076
C47 C 0.27310(15) 0.4596(5) 0.2121(3)
H38 H 0.2885 0.4769 0.2060
C48 C 0.27809(16) 0.5782(5) 0.3618(4)
H39 H 0.2904 0.6137 0.3927
C49 C 0.23233(16) 0.3798(5) 0.1780(4)
H40 H 0.2199 0.3440 0.1477
C50 C 0.24540(16) 0.5998(4) 0.4180(3)
C51 C 0.23687(17) 0.5030(5) 0.3261(4)
H41 H 0.2205 0.4900 0.3288
C52 C 0.26687(17) 0.4925(5) 0.2660(4)
C53 C 0.24401(15) 0.4658(5) 0.2751(3)
C54 C 0.25581(15) 0.4016(5) 0.1694(4)
C55 C 0.25460(16) 0.5583(4) 0.3710(3)
C56 C 0.22742(19) 0.4094(6) 0.2292(4)
H42 H 0.2120 0.3913 0.2344
H49 H 0.1699 0.9969 0.5465
O17 O 0.21159(7) 0.7416(2) 0.44628(16)
O18 O 0.18428(10) 0.9611(3) 0.4655(2)
O19 O 0.22173(11) 0.5884(3) 0.4136(2)
O20 O 0.24574(10) 0.3192(3) 0.0755(2)
O21 O 0.28354(11) 0.3965(3) 0.1068(2)
O22 O 0.26269(9) 0.6469(3) 0.4624(2)
O46 O 0.03411(13) 0.6043(4) 0.7121(3)
O47 O 0.07193(9) 0.8179(3) 0.9023(2)
O49 O 0.07129(10) 0.6791(4) 0.8936(2)
O51 O 0.01191(10) 0.8491(3) 0.8209(2)
Mg22 Mg 0.2500 0.2500 0.0000
Mg24 Mg 0.30315(4) 0.35188(14) 0.05066(10)
Mg25 Mg 0.30315(4) 0.64812(14) 0.55066(10)
O53 O 0.28841(7) 0.7584(2) 0.55372(16)
O54 O 0.25426(10) 0.8192(3) 0.4245(2)
O55 O 0.24574(10) 0.6808(3) 0.5755(2)
O57 O 0.21646(11) 0.8965(3) 0.3932(2)
O58 O 0.23731(9) 0.8531(3) 0.5376(2)
C18 C 0.07652(15) 0.7463(7) 0.9257(4)
Mg22_2 Mg 0.2500 0.2500 1.0000
C117 C 0.83027(17) 0.0189(6) 0.0650(4)
C118 C 0.8337(2) 0.0450(7) 0.1334(4)
H94 H 0.8232 0.0100 0.1493
H95 H 0.8526 0.0417 0.1635
H96 H 0.8275 0.1002 0.1317
C119 C 0.8630(2) 0.1253(8) 0.0694(6)
H97 H 0.8631 0.1372 0.1129
H98 H 0.8808 0.1077 0.0747
H99 H 0.8580 0.1734 0.0419
N6 N 0.84412(16) 0.0636(4) 0.0386(4)
C61 C 0.99321(18) 0.1047(5) 0.3277(4)
C63 C 0.98193(19) 0.0276(6) 0.4087(4)
H52 H 0.9649 0.0206 0.3736
O24 O 0.97108(10) 0.0894(3) 0.2839(2)
C92 C 0.9201(4) 0.0680(12) 0.5420(6)
H65 H 0.9300 0.0179 0.5469
H66 H 0.9319 0.1131 0.5449
H67 H 0.9049 0.0687 0.4990
C101 C 0.9219(3) 0.0291(7) 0.6472(5)
C103 C 0.9175(3) 0.0510(10) 0.7194(10)
H82 H 0.9272 0.0117 0.7536
H83 H 0.8984 0.0490 0.7103
H84 H 0.9244 0.1045 0.7348
C104 C 0.8923(3) 0.1542(9) 0.5959(8)
H85 H 0.8873 0.1519 0.6339
H86 H 0.8760 0.1552 0.5549
H87 H 0.9028 0.2025 0.5988
N5 N 0.9103(2) 0.0744(7) 0.5962(6)
C120 C 0.8428(2) 0.0408(7) 0.9715(5)
H101 H 0.8370 0.0869 0.9418
H102 H 0.8605 0.0237 0.9755
Mg12_2 Mg 1.0000 0.24712(19) 0.2500
Mg15 Mg 0.94795(5) 0.13770(15) 0.19218(10)
C71 C 0.9771(3) 0.4001(9) 0.0501(5)
H56 H 0.9658 0.3637 0.0596
O25 O 0.99373(13) 0.3295(4) 0.1764(3)
Mg9 Mg 0.81000(5) 0.64364(16) 0.07180(12)
C75 C 0.84294(15) 0.7684(6) 0.1734(4)
C82 C 0.85987(17) 0.7821(6) 0.2503(3)
C84 C 0.86763(16) 0.7134(5) 0.2898(4)
H61 H 0.8627 0.6623 0.2700
C85 C 0.88295(18) 0.7194(5) 0.3598(3)
C86 C 0.88875(16) 0.7998(5) 0.3869(3)
C87 C 0.87943(18) 0.8684(5) 0.3443(3)
H62 H 0.8826 0.9207 0.3623
C88 C 0.92348(15) 0.7463(7) 0.5743(4)
C89 C 0.90998(16) 0.7408(6) 0.4984(3)
C90 C 0.90263(16) 0.8075(5) 0.4588(3)
H63 H 0.9066 0.8590 0.4782
C91 C 0.90404(18) 0.6655(6) 0.4690(4)
H64 H 0.9095 0.6200 0.4969
C96 C 0.86584(17) 0.8568(5) 0.2768(3)
H71 H 0.8606 0.9018 0.2484
C97 C 0.8907(2) 0.6531(6) 0.4016(4)
H72 H 0.8869 0.6006 0.3841
C98 C 0.8404(4) 0.4845(10) 0.0848(8)
C99 C 0.8603(4) 0.4846(9) 0.0376(9)
H73 H 0.8681 0.4316 0.0394
H74 H 0.8746 0.5242 0.0558
C100 C 0.8276(3) 0.4113(12) 0.1547(7)
H76 H 0.8200 0.4635 0.1576
H77 H 0.8412 0.3966 0.1981
H78 H 0.8133 0.3711 0.1406
C102 C 0.8564(3) 0.3388(6) 0.0856(7)
H79 H 0.8643 0.3510 0.0541
H80 H 0.8433 0.2958 0.0679
H81 H 0.8705 0.3219 0.1277
O30 O 0.92807(9) 0.8179(3) 0.5977(2)
O32 O 0.92871(10) 0.6791(4) 0.6064(2)
O34 O 0.82880(12) 0.5392(4) 0.0911(3)
O35 O 0.83635(10) 0.8312(4) 0.1386(2)
O36 O 0.83684(10) 0.6942(4) 0.1555(2)
N4 N 0.8421(2) 0.4159(10) 0.0970(8)
Mg10 Mg 0.80315(4) 0.85188(14) 0.05066(10)
C105 C 0.73790(17) 0.3706(5) 0.3878(3)
C106 C 0.71579(16) 0.5502(5) 0.1878(3)
H88 H 0.7002 0.5684 0.1924
C107 C 0.72690(15) 0.4596(5) 0.2879(3)
H89 H 0.7115 0.4769 0.2940
C108 C 0.72191(16) 0.5782(5) 0.1382(4)
H90 H 0.7096 0.6137 0.1073
C109 C 0.76767(16) 0.3798(5) 0.3220(4)
H91 H 0.7801 0.3440 0.3523
C110 C 0.75460(16) 0.5998(4) 0.0820(3)
C111 C 0.76313(17) 0.5030(5) 0.1739(4)
H92 H 0.7795 0.4900 0.1712
C112 C 0.73313(17) 0.4925(5) 0.2340(4)
C113 C 0.75599(15) 0.4658(5) 0.2249(3)
C114 C 0.74419(15) 0.4016(5) 0.3306(4)
C115 C 0.74540(16) 0.5583(4) 0.1290(3)
C116 C 0.77258(19) 0.4094(6) 0.2708(4)
H93 H 0.7880 0.3913 0.2656
O39 O 0.78841(7) 0.7416(2) 0.05372(16)
O40 O 0.81572(10) 0.9611(3) 0.0345(2)
O41 O 0.77827(11) 0.5884(3) 0.0864(2)
O42 O 0.75426(10) 0.3192(3) 0.4245(2)
O43 O 0.71646(11) 0.3965(3) 0.3932(2)
O44 O 0.73731(9) 0.6469(3) 0.0376(2)
Mg14 Mg 0.94795(5) 0.86230(15) 0.69218(10)
Mg18 Mg 0.94046(5) 0.65511(15) 0.70241(11)
Mg20 Mg 0.7500 0.7500 0.0000
Mg21 Mg 0.7500 0.2500 0.5000
Mg23 Mg 0.69685(4) 0.35188(14) 0.44934(10)
O56 O 0.78354(11) 0.8965(3) 0.1068(2)
Mg1_2 Mg 1.0000 0.75288(19) 0.7500
C4 C 0.9990(2) 0.9294(6) 0.6016(4)
C24 C 0.97373(19) 0.9108(6) 0.5502(3)
H9 H 0.9608 0.8793 0.5578
C25 C 0.96913(19) 0.9419(7) 0.4879(4)
H10 H 0.9527 0.9293 0.4523
C35 C 0.9904(2) 0.6245(7) 0.8305(4)
C36 C 0.9986(2) 0.5764(7) 0.8987(4)
O5 O 0.96589(13) 0.6043(4) 0.7879(3)
O9 O 0.98809(10) 0.8491(3) 0.6791(2)
C64 C 0.98762(18) 0.9916(6) 0.4742(4)
C69 C 0.9807(2) 0.5245(8) 0.9085(5)
H55 H 0.9650 0.5073 0.8727
C70 C 0.9871(3) 0.4970(13) 0.9765(5)
C72 C 0.9689(3) 0.4301(9) 0.9842(5)
H57 H 0.9537 0.4106 0.9481
C73 C 0.88876(17) 0.7884(7) 0.7766(4)
C74 C 0.90727(17) 0.7754(9) 0.7384(4)
C76 C 0.84204(18) 0.6557(6) 0.8982(4)
H58 H 0.8356 0.6080 0.9098
C77 C 0.86454(18) 0.7203(5) 0.8316(4)
C78 C 0.82592(15) 0.7343(6) 0.9756(3)
C79 C 0.84657(17) 0.8032(6) 0.9033(3)
H59 H 0.8433 0.8534 0.9185
C80 C 0.83859(16) 0.7323(5) 0.9238(3)
C81 C 0.86040(17) 0.7986(6) 0.8572(4)
C83 C 0.87816(19) 0.7179(6) 0.7919(4)
H60 H 0.8806 0.6683 0.7743
C93 C 0.8562(3) 0.6547(8) 0.8526(6)
H68 H 0.8594 0.6044 0.8376
C94 C 0.86999(18) 0.8685(7) 0.8387(4)
H69 H 0.8666 0.9190 0.8532
C95 C 0.88484(19) 0.8643(8) 0.7979(4)
H70 H 0.8917 0.9109 0.7859
H75 H 0.8490 0.4982 0.9915
O27 O 0.92474(14) 0.5399(4) 0.6789(3)
O28 O 0.93715(11) 0.9736(4) 0.6524(3)
O29 O 0.91591(10) 0.8446(5) 0.7217(2)
O31 O 0.91224(11) 0.7055(4) 0.7242(3)
O33 O 0.96174(7) 0.7562(2) 0.72944(17)
O37 O 0.82124(9) 0.8059(3) 0.9914(2)
O38 O 0.82197(9) 0.6680(3) 0.9981(2)
H100 H 0.8301 0.9969 0.9535
O45 O 0.99373(13) 0.6705(4) 0.6764(3)
O52 O 0.97108(10) 0.9106(3) 0.7839(2)
Mg20_2 Mg 0.7500 0.7500 1.0000
Mg26 Mg 0.69685(4) 0.64812(14) 0.94934(10)
O59 O 0.76269(9) 0.8531(3) 0.9624(2)
C61_2 C 0.00679(18) 0.1047(5) 0.1723(4)
C63_2 C 0.01807(19) 0.0276(6) 0.0913(4)
H52_2 H 0.0351 0.0206 0.1264
O24_2 O 0.02892(10) 0.0894(3) 0.2161(2)
C25_2 C 0.03087(19) 0.9419(7) 0.0121(4)
H10_2 H 0.0473 0.9293 0.0477
C64_2 C 0.01238(18) 0.9916(6) 0.0258(4)
C4_2 C 0.0010(2) 0.9294(6) 0.8984(4)
C24_2 C 0.02627(19) 0.9108(6) 0.9498(3)
H9_2 H 0.0392 0.8793 0.9422
C35_2 C 0.0096(2) 0.6245(7) 0.6695(4)
C36_2 C 0.0014(2) 0.5764(7) 0.6013(4)
C69_2 C 0.0193(2) 0.5245(8) 0.5915(5)
H55_2 H 0.0350 0.5073 0.6273
C70_2 C 0.0129(3) 0.4970(13) 0.5235(5)
C71_2 C 0.0229(3) 0.4001(9) 0.4499(5)
H56_2 H 0.0342 0.3637 0.4404
C72_2 C 0.0311(3) 0.4301(9) 0.5158(5)
H57_2 H 0.0463 0.4106 0.5519
O25_2 O 0.00627(13) 0.3295(4) 0.3236(3)
C62_2 C 0.9990(2) 0.0706(6) 0.1016(4)
C65_2 C 0.97373(19) 0.0892(6) 0.0502(3)
H53_2 H 0.9608 0.1207 0.0578
O23_2 O 0.98809(10) 0.1509(3) 0.1791(2)
C23_2 C 0.98762(18) 0.0084(6) 0.9742(4)
C66_2 C 0.96913(19) 0.0581(7) 0.9879(4)
H54_2 H 0.9527 0.0707 0.9523
O54_2 O 0.74574(10) 0.8192(3) 0.0755(2)
C2_2 C 0.99321(18) 0.8953(5) 0.8277(4)
C22_2 C 0.98193(19) 0.9724(6) 0.9087(4)
H8_2 H 0.9649 0.9794 0.8736
C39_2 C 0.9807(2) 0.4755(8) 0.4085(5)
H28_2 H 0.9650 0.4927 0.3727
C40_2 C 0.9871(3) 0.5030(13) 0.4765(5)
C41_2 C 0.9771(3) 0.5999(9) 0.5501(5)
H29_2 H 0.9658 0.6363 0.5596
C42_2 C 0.9689(3) 0.5699(9) 0.4842(5)
H30_2 H 0.9537 0.5894 0.4481
C67_2 C 0.9904(2) 0.3755(7) 0.3305(4)
C68_2 C 0.9986(2) 0.4236(7) 0.3987(4)
O26_2 O 0.96589(13) 0.3957(4) 0.2879(3)
Mg19_2 Mg 0.94046(5) 0.34489(15) 0.20241(11)
O53_2 O 0.71159(7) 0.7584(2) 0.94628(16)
O55_2 O 0.75426(10) 0.6808(3) 0.9245(2)
H13_2 H 0.5951 0.5687 0.0010
C40_3 C 0.5129(3) 0.0030(13) 0.0235(5)
C42_3 C 0.5311(3) 0.0699(9) 0.0158(5)
H30_3 H 0.5463 0.0894 0.0519
Mg9_2 Mg 0.31000(5) 0.14364(16) 0.07180(12)
C75_2 C 0.34294(15) 0.2684(6) 0.1734(4)
C82_2 C 0.35987(17) 0.2821(6) 0.2503(3)
C84_2 C 0.36763(16) 0.2134(5) 0.2898(4)
H61_2 H 0.3627 0.1623 0.2700
C85_2 C 0.38295(18) 0.2194(5) 0.3598(3)
C86_2 C 0.38875(16) 0.2998(5) 0.3869(3)
C87_2 C 0.37943(18) 0.3684(5) 0.3443(3)
H62_2 H 0.3826 0.4207 0.3623
C88_2 C 0.42348(15) 0.2463(7) 0.5743(4)
C89_2 C 0.40998(16) 0.2408(6) 0.4984(3)
C90_2 C 0.40263(16) 0.3075(5) 0.4588(3)
H63_2 H 0.4066 0.3590 0.4782
C91_2 C 0.40404(18) 0.1655(6) 0.4690(4)
H64_2 H 0.4095 0.1200 0.4969
C96_2 C 0.36584(17) 0.3568(5) 0.2768(3)
H71_2 H 0.3606 0.4018 0.2484
C97_2 C 0.3907(2) 0.1531(6) 0.4016(4)
H72_2 H 0.3869 0.1006 0.3841
H74_2 H 0.3746 0.0242 0.0558
O30_2 O 0.42807(9) 0.3179(3) 0.5977(2)
O32_2 O 0.42871(10) 0.1791(4) 0.6064(2)
O34_2 O 0.32880(12) 0.0392(4) 0.0911(3)
O35_2 O 0.33635(10) 0.3312(4) 0.1386(2)
O36_2 O 0.33684(10) 0.1942(4) 0.1555(2)
C106_2 C 0.21579(16) 0.0502(5) 0.1878(3)
H88_2 H 0.2002 0.0684 0.1924
C108_2 C 0.22191(16) 0.0782(5) 0.1382(4)
H90_2 H 0.2096 0.1137 0.1073
C110_2 C 0.25460(16) 0.0998(4) 0.0820(3)
C111_2 C 0.26313(17) 0.0030(5) 0.1739(4)
C115_2 C 0.24540(16) 0.0583(4) 0.1290(3)
C117_2 C 0.33027(17) 0.5189(6) 0.0650(4)
C118_2 C 0.3337(2) 0.5450(7) 0.1334(4)
H94_2 H 0.3232 0.5100 0.1493
H95_2 H 0.3526 0.5417 0.1635
H96_2 H 0.3275 0.6002 0.1317
C119_2 C 0.3630(2) 0.6253(8) 0.0694(6)
H97_2 H 0.3631 0.6372 0.1129
H98_2 H 0.3808 0.6077 0.0747
H99_2 H 0.3580 0.6734 0.0419
O39_2 O 0.28841(7) 0.2416(2) 0.05372(16)
O40_2 O 0.31572(10) 0.4611(3) 0.0345(2)
O41_2 O 0.27827(11) 0.0884(3) 0.0864(2)
O44_2 O 0.23731(9) 0.1469(3) 0.0376(2)
N6_2 N 0.34412(16) 0.5636(4) 0.0386(4)
Mg14_2 Mg 0.44795(5) 0.36230(15) 0.69218(10)
Mg18_2 Mg 0.44046(5) 0.15511(15) 0.70241(11)
Mg1_3 Mg 0.5000 0.25288(19) 0.7500
Mg2_2 Mg 0.55205(5) 0.36230(15) 0.80782(10)
Mg3_2 Mg 0.55954(5) 0.15511(15) 0.79759(11)
Mg4_2 Mg 0.69000(5) 0.14364(16) 0.42820(12)
C1_2 C 0.61124(17) 0.2884(7) 0.7234(4)
C2_3 C 0.50679(18) 0.3953(5) 0.6723(4)
C3_2 C 0.59273(17) 0.2754(9) 0.7616(4)
C4_3 C 0.4990(2) 0.4294(6) 0.6016(4)
C5_2 C 0.65706(15) 0.2684(6) 0.3266(4)
C6_2 C 0.65796(18) 0.1557(6) 0.6018(4)
H1_2 H 0.6644 0.1080 0.5902
C7_2 C 0.63546(18) 0.2203(5) 0.6684(4)
C8_2 C 0.67408(15) 0.2343(6) 0.5244(3)
C9_2 C 0.65343(17) 0.3032(6) 0.5967(3)
H2_2 H 0.6567 0.3534 0.5815
C10_2 C 0.66141(16) 0.2323(5) 0.5762(3)
C11_2 C 0.63960(17) 0.2986(6) 0.6428(4)
C12_2 C 0.64013(17) 0.2821(6) 0.2497(3)
C13_2 C 0.62184(19) 0.2179(6) 0.7081(4)
H3_2 H 0.6194 0.1683 0.7257
C14_2 C 0.63237(16) 0.2134(5) 0.2102(4)
H4_2 H 0.6373 0.1623 0.2300
C15_2 C 0.61705(18) 0.2194(5) 0.1402(3)
C16_2 C 0.61125(16) 0.2998(5) 0.1131(3)
C17_2 C 0.62057(18) 0.3684(5) 0.1557(3)
H5_2 H 0.6174 0.4207 0.1377
C19_2 C 0.59002(16) 0.2408(6) 0.0016(3)
C20_2 C 0.59737(16) 0.3075(5) 0.0412(3)
H6_2 H 0.5934 0.3590 0.0218
C21_2 C 0.59596(18) 0.1655(6) 0.0310(4)
H7_2 H 0.5905 0.1200 0.0031
C22_3 C 0.51807(19) 0.4724(6) 0.5913(4)
H8_3 H 0.5351 0.4794 0.6264
C23_3 C 0.51238(18) 0.5084(6) 0.5258(4)
C24_3 C 0.47373(19) 0.4108(6) 0.5502(3)
H9_3 H 0.4608 0.3793 0.5578
C25_3 C 0.46913(19) 0.4419(7) 0.4879(4)
H10_3 H 0.4527 0.4293 0.4523
C26_2 C 0.5799(4) 0.5680(12) 0.9580(6)
H11_2 H 0.5700 0.5179 0.9531
H12_2 H 0.5681 0.6131 0.9551
C27_2 C 0.6438(3) 0.1547(8) 0.6474(6)
H14_2 H 0.6406 0.1044 0.6624
C28_2 C 0.63001(18) 0.3685(7) 0.6613(4)
H15_2 H 0.6334 0.4190 0.6468
C29_2 C 0.61516(19) 0.3643(8) 0.7021(4)
H16_2 H 0.6083 0.4109 0.7141
C30_2 C 0.63416(17) 0.3568(5) 0.2232(3)
H17_2 H 0.6394 0.4018 0.2516
C31_2 C 0.6093(2) 0.1531(6) 0.0984(4)
H18_2 H 0.6131 0.1006 0.1159
H20_2 H 0.6254 0.0242 0.4442
C35_3 C 0.4904(2) 0.1245(7) 0.8305(4)
C36_3 C 0.4986(2) 0.0764(7) 0.8987(4)
C37_2 C 0.5781(3) 0.5291(7) 0.8528(5)
C41_3 C 0.5229(3) 0.0999(9) 0.9499(5)
H29_3 H 0.5342 0.1363 0.9404
C43_2 C 0.5825(3) 0.5510(10) 0.7806(10)
H31_2 H 0.5728 0.5117 0.7464
H32_2 H 0.6016 0.5490 0.7897
H33_2 H 0.5756 0.6045 0.7652
C44_2 C 0.6077(3) 0.6542(9) 0.9041(8)
H34_2 H 0.6127 0.6519 0.8661
H35_2 H 0.6240 0.6552 0.9451
H36_2 H 0.5972 0.7025 0.9012
O1_2 O 0.57526(14) 0.0399(4) 0.8211(3)
O2_2 O 0.50627(13) 0.1705(4) 0.8236(3)
O3_2 O 0.56285(11) 0.4736(4) 0.8476(3)
O4_2 O 0.58409(10) 0.3446(5) 0.7783(2)
O5_2 O 0.46589(13) 0.1043(4) 0.7879(3)
O7_2 O 0.58776(11) 0.2055(4) 0.7758(3)
O9_2 O 0.48809(10) 0.3491(3) 0.6791(2)
O10_2 O 0.52892(10) 0.4106(3) 0.7161(2)
O11_2 O 0.53826(7) 0.2562(2) 0.77056(17)
O12_2 O 0.67120(12) 0.0392(4) 0.4089(3)
O13_2 O 0.66365(10) 0.3312(4) 0.3614(2)
O14_2 O 0.66316(10) 0.1942(4) 0.3445(2)
O15_2 O 0.67876(9) 0.3059(3) 0.5086(2)
O16_2 O 0.67803(9) 0.1680(3) 0.5019(2)
N2_2 N 0.5897(2) 0.5744(7) 0.9038(6)
C46_2 C 0.78421(16) 0.0502(5) 0.3122(3)
H37_2 H 0.7998 0.0684 0.3076
C48_2 C 0.77809(16) 0.0782(5) 0.3618(4)
H39_2 H 0.7904 0.1137 0.3927
C50_2 C 0.74540(16) 0.0998(4) 0.4180(3)
C51_2 C 0.73687(17) 0.0030(5) 0.3261(4)
C55_2 C 0.75460(16) 0.0583(4) 0.3710(3)
C57_2 C 0.66973(17) 0.5189(6) 0.4350(4)
C58_2 C 0.6663(2) 0.5450(7) 0.3666(4)
H43_2 H 0.6768 0.5100 0.3507
H44_2 H 0.6474 0.5417 0.3365
H45_2 H 0.6725 0.6002 0.3683
C59_2 C 0.6370(2) 0.6253(8) 0.4306(6)
H46_2 H 0.6369 0.6372 0.3871
H47_2 H 0.6192 0.6077 0.4253
H48_2 H 0.6420 0.6734 0.4581
C60_2 C 0.6572(2) 0.5408(7) 0.5285(5)
H49_2 H 0.6699 0.4969 0.5465
H50_2 H 0.6630 0.5869 0.5582
H51_2 H 0.6395 0.5237 0.5245
O17_2 O 0.71159(7) 0.2416(2) 0.44628(16)
O18_2 O 0.68428(10) 0.4611(3) 0.4655(2)
O19_2 O 0.72173(11) 0.0884(3) 0.4136(2)
O22_2 O 0.76269(9) 0.1469(3) 0.4624(2)
N3_2 N 0.65588(16) 0.5636(4) 0.4614(4)
C61_3 C 0.49321(18) 0.6047(5) 0.3277(4)
C62_3 C 0.5010(2) 0.5706(6) 0.3984(4)
C63_3 C 0.48193(19) 0.5276(6) 0.4087(4)
H52_3 H 0.4649 0.5206 0.3736
C64_3 C 0.48762(18) 0.4916(6) 0.4742(4)
C65_3 C 0.52627(19) 0.5892(6) 0.4498(3)
H53_3 H 0.5392 0.6207 0.4422
C66_3 C 0.53087(19) 0.5581(7) 0.5121(4)
H54_3 H 0.5473 0.5707 0.5477
O23_3 O 0.51191(10) 0.6509(3) 0.3209(2)
O24_3 O 0.47108(10) 0.5894(3) 0.2839(2)
C69_3 C 0.4807(2) 0.0245(8) 0.9085(5)
H55_3 H 0.4650 0.0073 0.8727
C73_2 C 0.38876(17) 0.2884(7) 0.7766(4)
C74_2 C 0.40727(17) 0.2754(9) 0.7384(4)
C76_2 C 0.34204(18) 0.1557(6) 0.8982(4)
H58_2 H 0.3356 0.1080 0.9098
C77_2 C 0.36454(18) 0.2203(5) 0.8316(4)
C78_2 C 0.32592(15) 0.2343(6) 0.9756(3)
C79_2 C 0.34657(17) 0.3032(6) 0.9033(3)
H59_2 H 0.3433 0.3534 0.9185
C80_2 C 0.33859(16) 0.2323(5) 0.9238(3)
C81_2 C 0.36040(17) 0.2986(6) 0.8572(4)
C83_2 C 0.37816(19) 0.2179(6) 0.7919(4)
H60_2 H 0.3806 0.1683 0.7743
C92_2 C 0.4201(4) 0.5680(12) 0.5420(6)
H65_2 H 0.4300 0.5179 0.5469
H66_2 H 0.4319 0.6131 0.5449
H67_2 H 0.4049 0.5687 0.4990
C93_2 C 0.3562(3) 0.1547(8) 0.8526(6)
H68_2 H 0.3594 0.1044 0.8376
C94_2 C 0.36999(18) 0.3685(7) 0.8387(4)
H69_2 H 0.3666 0.4190 0.8532
C95_2 C 0.38484(19) 0.3643(8) 0.7979(4)
H70_2 H 0.3917 0.4109 0.7859
C101_2 C 0.4219(3) 0.5291(7) 0.6472(5)
C103_2 C 0.4175(3) 0.5510(10) 0.7194(10)
H82_2 H 0.4272 0.5117 0.7536
H83_2 H 0.3984 0.5490 0.7103
H84_2 H 0.4244 0.6045 0.7348
C104_2 C 0.3923(3) 0.6542(9) 0.5959(8)
H85_2 H 0.3873 0.6519 0.6339
H86_2 H 0.3760 0.6552 0.5549
H87_2 H 0.4028 0.7025 0.5988
O27_2 O 0.42474(14) 0.0399(4) 0.6789(3)
O28_2 O 0.43715(11) 0.4736(4) 0.6524(3)
O29_2 O 0.41591(10) 0.3446(5) 0.7217(2)
O31_2 O 0.41224(11) 0.2055(4) 0.7242(3)
O33_2 O 0.46174(7) 0.2562(2) 0.72944(17)
O37_2 O 0.32124(9) 0.3059(3) 0.9914(2)
O38_2 O 0.32197(9) 0.1680(3) 0.9981(2)
N5_2 N 0.4103(2) 0.5744(7) 0.5962(6)
C120_2 C 0.3428(2) 0.5408(7) 0.9715(5)
H100_2 H 0.3301 0.4969 0.9535
H101_2 H 0.3370 0.5869 0.9418
H102_2 H 0.3605 0.5237 0.9755
Mg12_3 Mg 0.5000 0.74712(19) 0.2500
Mg15_2 Mg 0.44795(5) 0.63770(15) 0.19218(10)
Mg16_2 Mg 0.55205(5) 0.63770(15) 0.30782(10)
O45_2 O 0.49373(13) 0.1705(4) 0.6764(3)
O46_2 O 0.53411(13) 0.1043(4) 0.7121(3)
O47_2 O 0.57193(9) 0.3179(3) 0.9023(2)
O49_2 O 0.57129(10) 0.1791(4) 0.8936(2)
O51_2 O 0.51191(10) 0.3491(3) 0.8209(2)
O52_2 O 0.47108(10) 0.4106(3) 0.7839(2)
Mg25_2 Mg 0.80315(4) 0.14812(14) 0.55066(10)
Mg26_2 Mg 0.19685(4) 0.14812(14) 0.94934(10)
O53_3 O 0.78841(7) 0.2584(2) 0.55372(16)
O55_3 O 0.74574(10) 0.1808(3) 0.5755(2)
O58_2 O 0.73731(9) 0.3531(3) 0.5376(2)
O59_2 O 0.26269(9) 0.3531(3) 0.9624(2)
C18_2 C 0.57652(15) 0.2463(7) 0.9257(4)
C39_3 C 0.5193(2) 0.9755(8) 0.0915(5)
H28_3 H 0.5350 0.9927 0.1273
C67_3 C 0.5096(2) 0.8755(7) 0.1695(4)
C68_3 C 0.5014(2) 0.9236(7) 0.1013(4)
C71_3 C 0.4771(3) 0.9001(9) 0.0501(5)
H56_3 H 0.4658 0.8637 0.0596
O25_3 O 0.49373(13) 0.8295(4) 0.1764(3)
O26_3 O 0.53411(13) 0.8957(4) 0.2121(3)
C98_2 C 0.3404(4) 0.9845(10) 0.0848(8)
C99_2 C 0.3603(4) 0.9846(9) 0.0376(9)
H73_2 H 0.3681 0.9316 0.0394
C100_2 C 0.3276(3) 0.9113(12) 0.1547(7)
H76_2 H 0.3200 0.9635 0.1576
H77_2 H 0.3412 0.8966 0.1981
H78_2 H 0.3133 0.8711 0.1406
C102_2 C 0.3564(3) 0.8388(6) 0.0856(7)
H79_2 H 0.3643 0.8510 0.0541
H80_2 H 0.3433 0.7958 0.0679
H81_2 H 0.3705 0.8219 0.1277
N4_2 N 0.3421(2) 0.9159(10) 0.0970(8)
C105_2 C 0.23790(17) 0.8706(5) 0.3878(3)
C107_2 C 0.22690(15) 0.9596(5) 0.2879(3)
H89_2 H 0.2115 0.9769 0.2940
C109_2 C 0.26767(16) 0.8798(5) 0.3220(4)
H91_2 H 0.2801 0.8440 0.3523
H92_2 H 0.2795 0.9900 0.1712
C112_2 C 0.23313(17) 0.9925(5) 0.2340(4)
C113_2 C 0.25599(15) 0.9658(5) 0.2249(3)
C114_2 C 0.24419(15) 0.9016(5) 0.3306(4)
C116_2 C 0.27258(19) 0.9094(6) 0.2708(4)
H93_2 H 0.2880 0.8913 0.2656
Mg19_3 Mg 0.55954(5) 0.84489(15) 0.29759(11)
C32_2 C 0.6596(4) 0.9845(10) 0.4152(8)
C33_2 C 0.6397(4) 0.9846(9) 0.4624(9)
H19_2 H 0.6319 0.9316 0.4606
H21_2 H 0.6510 0.9982 0.5085
C34_2 C 0.6724(3) 0.9113(12) 0.3453(7)
H22_2 H 0.6800 0.9635 0.3424
H23_2 H 0.6588 0.8966 0.3019
H24_2 H 0.6867 0.8711 0.3594
C38_2 C 0.6436(3) 0.8388(6) 0.4144(7)
H25_2 H 0.6357 0.8510 0.4459
H26_2 H 0.6567 0.7958 0.4321
H27_2 H 0.6295 0.8219 0.3723
N1_2 N 0.6579(2) 0.9159(10) 0.4030(8)
C45_2 C 0.76210(17) 0.8706(5) 0.1122(3)
C47_2 C 0.77310(15) 0.9596(5) 0.2121(3)
H38_2 H 0.7885 0.9769 0.2060
C49_2 C 0.73233(16) 0.8798(5) 0.1780(4)
H40_2 H 0.7199 0.8440 0.1477
H41_2 H 0.7205 0.9900 0.3288
C52_2 C 0.76687(17) 0.9925(5) 0.2660(4)
C53_2 C 0.74401(15) 0.9658(5) 0.2751(3)
C54_2 C 0.75581(15) 0.9016(5) 0.1694(4)
C56_2 C 0.72742(19) 0.9094(6) 0.2292(4)
H42_2 H 0.7120 0.8913 0.2344
C70_3 C 0.4871(3) 0.9970(13) 0.9765(5)
C72_3 C 0.4689(3) 0.9301(9) 0.9842(5)
H57_3 H 0.4537 0.9106 0.9481
H75_2 H 0.3490 0.9982 0.9915
C25_4 C 0.53087(19) 0.4419(7) 0.0121(4)
H10_4 H 0.5473 0.4293 0.0477
C61_4 C 0.50679(18) 0.6047(5) 0.1723(4)
C62_4 C 0.4990(2) 0.5706(6) 0.1016(4)
C63_4 C 0.51807(19) 0.5276(6) 0.0913(4)
H52_4 H 0.5351 0.5206 0.1264
C64_4 C 0.51238(18) 0.4916(6) 0.0258(4)
C65_4 C 0.47373(19) 0.5892(6) 0.0502(3)
H53_4 H 0.4608 0.6207 0.0578
O23_4 O 0.48809(10) 0.6509(3) 0.1791(2)
O24_4 O 0.52892(10) 0.5894(3) 0.2161(2)
C2_4 C 0.49321(18) 0.3953(5) 0.8277(4)
C4_4 C 0.5010(2) 0.4294(6) 0.8984(4)
C22_4 C 0.48193(19) 0.4724(6) 0.9087(4)
H8_4 H 0.4649 0.4794 0.8736
C23_4 C 0.48762(18) 0.5084(6) 0.9742(4)
C24_4 C 0.52627(19) 0.4108(6) 0.9498(3)
H9_4 H 0.5392 0.3793 0.9422
C35_4 C 0.5096(2) 0.1245(7) 0.6695(4)
C36_4 C 0.5014(2) 0.0764(7) 0.6013(4)
C40_4 C 0.4871(3) 0.0030(13) 0.4765(5)
C41_4 C 0.4771(3) 0.0999(9) 0.5501(5)
H29_4 H 0.4658 0.1363 0.5596
C42_4 C 0.4689(3) 0.0699(9) 0.4842(5)
H30_4 H 0.4537 0.0894 0.4481
C66_4 C 0.46913(19) 0.5581(7) 0.9879(4)
H54_4 H 0.4527 0.5707 0.9523
C69_4 C 0.5193(2) 0.0245(8) 0.5915(5)
H55_4 H 0.5350 0.0073 0.6273
O53_4 O 0.21159(7) 0.2584(2) 0.94628(16)
O55_4 O 0.25426(10) 0.1808(3) 0.9245(2)
C39_4 C 0.4807(2) 0.9755(8) 0.4085(5)
H28_4 H 0.4650 0.9927 0.3727
C67_4 C 0.4904(2) 0.8755(7) 0.3305(4)
C68_4 C 0.4986(2) 0.9236(7) 0.3987(4)
C70_4 C 0.5129(3) 0.9970(13) 0.5235(5)
C71_4 C 0.5229(3) 0.9001(9) 0.4499(5)
H56_4 H 0.5342 0.8637 0.4404
C72_4 C 0.5311(3) 0.9301(9) 0.5158(5)
H57_4 H 0.5463 0.9106 0.5519
O25_4 O 0.50627(13) 0.8295(4) 0.3236(3)
O26_4 O 0.46589(13) 0.8957(4) 0.2879(3)
Mg19_4 Mg 0.44046(5) 0.84489(15) 0.20241(11)
C73_3 C 0.11124(17) 0.2116(7) 0.2234(4)
C74_3 C 0.09273(17) 0.2246(9) 0.2616(4)
C76_3 C 0.15796(18) 0.3443(6) 0.1018(4)
H58_3 H 0.1644 0.3920 0.0902
C77_3 C 0.13546(18) 0.2797(5) 0.1684(4)
C78_3 C 0.17408(15) 0.2657(6) 0.0244(3)
C79_3 C 0.15343(17) 0.1968(6) 0.0967(3)
H59_3 H 0.1567 0.1466 0.0815
C80_3 C 0.16141(16) 0.2677(5) 0.0762(3)
C81_3 C 0.13960(17) 0.2014(6) 0.1428(4)
C83_3 C 0.12184(19) 0.2821(6) 0.2081(4)
H60_3 H 0.1194 0.3317 0.2257
C93_3 C 0.1438(3) 0.3453(8) 0.1474(6)
H68_3 H 0.1406 0.3956 0.1624
C94_3 C 0.13001(18) 0.1315(7) 0.1613(4)
H69_3 H 0.1334 0.0810 0.1468
C95_3 C 0.11516(19) 0.1357(8) 0.2021(4)
H70_3 H 0.1083 0.0891 0.2141
H75_3 H 0.1510 0.5018 0.0085
O27_3 O 0.07526(14) 0.4601(4) 0.3211(3)
O28_3 O 0.06285(11) 0.0264(4) 0.3476(3)
O29_3 O 0.08409(10) 0.1554(5) 0.2783(2)
O31_3 O 0.08776(11) 0.2945(4) 0.2758(3)
O33_3 O 0.03826(7) 0.2438(2) 0.27056(17)
O37_3 O 0.17876(9) 0.1941(3) 0.0086(2)
O38_3 O 0.17803(9) 0.3320(3) 0.0019(2)
H100_3 H 0.1699 0.0031 0.0465
O48 O 0.07193(9) 0.1821(3) 0.4023(2)
O50 O 0.07129(10) 0.3209(4) 0.3936(2)
Mg9_3 Mg 0.19000(5) 0.35636(16) 0.92820(12)
C75_3 C 0.15706(15) 0.2316(6) 0.8266(4)
C82_3 C 0.14013(17) 0.2179(6) 0.7497(3)
C84_3 C 0.13237(16) 0.2866(5) 0.7102(4)
H61_3 H 0.1373 0.3377 0.7300
C85_3 C 0.11705(18) 0.2806(5) 0.6402(3)
C86_3 C 0.11125(16) 0.2002(5) 0.6131(3)
C87_3 C 0.12057(18) 0.1316(5) 0.6557(3)
H62_3 H 0.1174 0.0793 0.6377
C88_3 C 0.07652(15) 0.2537(7) 0.4257(4)
C89_3 C 0.09002(16) 0.2592(6) 0.5016(3)
C90_3 C 0.09737(16) 0.1925(5) 0.5412(3)
H63_3 H 0.0934 0.1410 0.5218
C91_3 C 0.09596(18) 0.3345(6) 0.5310(4)
H64_3 H 0.0905 0.3800 0.5031
C96_3 C 0.13416(17) 0.1432(5) 0.7232(3)
H71_3 H 0.1394 0.0982 0.7516
C97_3 C 0.1093(2) 0.3469(6) 0.5984(4)
H72_3 H 0.1131 0.3994 0.6159
C98_3 C 0.1596(4) 0.5155(10) 0.9152(8)
C99_3 C 0.1397(4) 0.5154(9) 0.9624(9)
H73_3 H 0.1319 0.5684 0.9606
H74_3 H 0.1254 0.4758 0.9442
C100_3 C 0.1724(3) 0.5887(12) 0.8453(7)
H76_3 H 0.1800 0.5365 0.8424
H77_3 H 0.1588 0.6034 0.8019
H78_3 H 0.1867 0.6289 0.8594
C102_3 C 0.1436(3) 0.6612(6) 0.9144(7)
H79_3 H 0.1357 0.6490 0.9459
H80_3 H 0.1567 0.7042 0.9321
H81_3 H 0.1295 0.6781 0.8723
O34_3 O 0.17120(12) 0.4608(4) 0.9089(3)
O35_3 O 0.16365(10) 0.1688(4) 0.8614(2)
O36_3 O 0.16316(10) 0.3058(4) 0.8445(2)
N4_3 N 0.1579(2) 0.5841(10) 0.9030(8)
C105_3 C 0.26210(17) 0.6294(5) 0.6122(3)
C106_3 C 0.28421(16) 0.4498(5) 0.8122(3)
H88_3 H 0.2998 0.4316 0.8076
C107_3 C 0.27310(15) 0.5404(5) 0.7121(3)
H89_3 H 0.2885 0.5231 0.7060
C108_3 C 0.27809(16) 0.4218(5) 0.8618(4)
H90_3 H 0.2904 0.3863 0.8927
C109_3 C 0.23233(16) 0.6202(5) 0.6780(4)
H91_3 H 0.2199 0.6560 0.6477
C110_3 C 0.24540(16) 0.4002(4) 0.9180(3)
C111_3 C 0.23687(17) 0.4970(5) 0.8261(4)
H92_3 H 0.2205 0.5100 0.8288
C112_3 C 0.26687(17) 0.5075(5) 0.7660(4)
C113_3 C 0.24401(15) 0.5342(5) 0.7751(3)
C114_3 C 0.25581(15) 0.5984(5) 0.6694(4)
C115_3 C 0.25460(16) 0.4417(4) 0.8710(3)
C116_3 C 0.22742(19) 0.5906(6) 0.7292(4)
H93_3 H 0.2120 0.6087 0.7344
O40_3 O 0.18428(10) 0.0389(3) 0.9655(2)
O41_3 O 0.22173(11) 0.4116(3) 0.9136(2)
O43_2 O 0.28354(11) 0.6035(3) 0.6068(2)
O56_2 O 0.21646(11) 0.1035(3) 0.8932(2)
C92_3 C 0.0799(4) 0.9320(12) 0.4580(6)
H65_3 H 0.0700 0.9821 0.4531
H66_3 H 0.0681 0.8869 0.4551
H67_3 H 0.0951 0.9313 0.5010
C101_3 C 0.0781(3) 0.9709(7) 0.3528(5)
C103_3 C 0.0825(3) 0.9490(10) 0.2806(10)
H82_3 H 0.0728 0.9883 0.2464
H83_3 H 0.1016 0.9510 0.2897
H84_3 H 0.0756 0.8955 0.2652
C104_3 C 0.1077(3) 0.8458(9) 0.4041(8)
H85_3 H 0.1127 0.8481 0.3661
H86_3 H 0.1240 0.8448 0.4451
H87_3 H 0.0972 0.7975 0.4012
N5_3 N 0.0897(2) 0.9256(7) 0.4038(6)
C120_3 C 0.1572(2) 0.9592(7) 0.0285(5)
H101_3 H 0.1630 0.9131 0.0582
H102_3 H 0.1395 0.9763 0.0245
C117_3 C 0.16973(17) 0.9811(6) 0.9350(4)
C118_3 C 0.1663(2) 0.9550(7) 0.8666(4)
H94_3 H 0.1768 0.9900 0.8507
H95_3 H 0.1474 0.9583 0.8365
H96_3 H 0.1725 0.8998 0.8683
C119_3 C 0.1370(2) 0.8747(8) 0.9306(6)
H97_3 H 0.1369 0.8628 0.8871
H98_3 H 0.1192 0.8923 0.9253
H99_3 H 0.1420 0.8266 0.9581
N6_3 N 0.15588(16) 0.9364(4) 0.9614(4)
C18_3 C 0.92348(15) 0.2537(7) 0.0743(4)
O6 O 0.92807(9) 0.1821(3) 0.0977(2)
O8 O 0.92871(10) 0.3209(4) 0.1064(2)
Mg4_3 Mg 0.81000(5) 0.35636(16) 0.57180(12)
C1_3 C 0.88876(17) 0.2116(7) 0.2766(4)
C3_3 C 0.90727(17) 0.2246(9) 0.2384(4)
C5_3 C 0.84294(15) 0.2316(6) 0.6734(4)
C6_3 C 0.84204(18) 0.3443(6) 0.3982(4)
H1_3 H 0.8356 0.3920 0.4098
C7_3 C 0.86454(18) 0.2797(5) 0.3316(4)
C8_3 C 0.82592(15) 0.2657(6) 0.4756(3)
C9_3 C 0.84657(17) 0.1968(6) 0.4033(3)
H2_3 H 0.8433 0.1466 0.4185
C10_3 C 0.83859(16) 0.2677(5) 0.4238(3)
C11_3 C 0.86040(17) 0.2014(6) 0.3572(4)
C12_3 C 0.85987(17) 0.2179(6) 0.7503(3)
C13_3 C 0.87816(19) 0.2821(6) 0.2919(4)
H3_3 H 0.8806 0.3317 0.2743
C14_3 C 0.86763(16) 0.2866(5) 0.7898(4)
H4_3 H 0.8627 0.3377 0.7700
C15_3 C 0.88295(18) 0.2806(5) 0.8598(3)
C16_3 C 0.88875(16) 0.2002(5) 0.8869(3)
C17_3 C 0.87943(18) 0.1316(5) 0.8443(3)
H5_3 H 0.8826 0.0793 0.8623
C19_3 C 0.90998(16) 0.2592(6) 0.9984(3)
C20_3 C 0.90263(16) 0.1925(5) 0.9588(3)
H6_3 H 0.9066 0.1410 0.9782
C21_3 C 0.90404(18) 0.3345(6) 0.9690(4)
H7_3 H 0.9095 0.3800 0.9969
C27_3 C 0.8562(3) 0.3453(8) 0.3526(6)
H14_3 H 0.8594 0.3956 0.3376
C28_3 C 0.86999(18) 0.1315(7) 0.3387(4)
H15_3 H 0.8666 0.0810 0.3532
C29_3 C 0.88484(19) 0.1357(8) 0.2979(4)
H16_3 H 0.8917 0.0891 0.2859
C30_3 C 0.86584(17) 0.1432(5) 0.7768(3)
H17_3 H 0.8606 0.0982 0.7484
C31_3 C 0.8907(2) 0.3469(6) 0.9016(4)
H18_3 H 0.8869 0.3994 0.8841
C32_3 C 0.8404(4) 0.5155(10) 0.5848(8)
C33_3 C 0.8603(4) 0.5154(9) 0.5376(9)
H19_3 H 0.8681 0.5684 0.5394
H20_3 H 0.8746 0.4758 0.5558
H21_3 H 0.8490 0.5018 0.4915
C34_3 C 0.8276(3) 0.5887(12) 0.6547(7)
H22_3 H 0.8200 0.5365 0.6576
H23_3 H 0.8412 0.6034 0.6981
H24_3 H 0.8133 0.6289 0.6406
C38_3 C 0.8564(3) 0.6612(6) 0.5856(7)
H25_3 H 0.8643 0.6490 0.5541
H26_3 H 0.8433 0.7042 0.5679
H27_3 H 0.8705 0.6781 0.6277
O1_3 O 0.92474(14) 0.4601(4) 0.1789(3)
O3_3 O 0.93715(11) 0.0264(4) 0.1524(3)
O4_3 O 0.91591(10) 0.1554(5) 0.2217(2)
O7_3 O 0.91224(11) 0.2945(4) 0.2242(3)
O11_3 O 0.96174(7) 0.2438(2) 0.22944(17)
O12_3 O 0.82880(12) 0.4608(4) 0.5911(3)
O13_3 O 0.83635(10) 0.1688(4) 0.6386(2)
O14_3 O 0.83684(10) 0.3058(4) 0.6555(2)
O15_3 O 0.82124(9) 0.1941(3) 0.4914(2)
O16_3 O 0.82197(9) 0.3320(3) 0.4981(2)
N1_3 N 0.8421(2) 0.5841(10) 0.5970(8)
C45_3 C 0.73790(17) 0.6294(5) 0.8878(3)
C46_3 C 0.71579(16) 0.4498(5) 0.6878(3)
H37_3 H 0.7002 0.4316 0.6924
C47_3 C 0.72690(15) 0.5404(5) 0.7879(3)
H38_3 H 0.7115 0.5231 0.7940
C48_3 C 0.72191(16) 0.4218(5) 0.6382(4)
H39_3 H 0.7096 0.3863 0.6073
C49_3 C 0.76767(16) 0.6202(5) 0.8220(4)
H40_3 H 0.7801 0.6560 0.8523
C50_3 C 0.75460(16) 0.4002(4) 0.5820(3)
C51_3 C 0.76313(17) 0.4970(5) 0.6739(4)
H41_3 H 0.7795 0.5100 0.6712
C52_3 C 0.73313(17) 0.5075(5) 0.7340(4)
C53_3 C 0.75599(15) 0.5342(5) 0.7249(3)
C54_3 C 0.74419(15) 0.5984(5) 0.8306(4)
C55_3 C 0.74540(16) 0.4417(4) 0.6290(3)
C56_3 C 0.77258(19) 0.5906(6) 0.7708(4)
H42_3 H 0.7880 0.6087 0.7656
H49_3 H 0.8301 0.0031 0.4535
O18_3 O 0.81572(10) 0.0389(3) 0.5345(2)
O19_3 O 0.77827(11) 0.4116(3) 0.5864(2)
O21_2 O 0.71646(11) 0.6035(3) 0.8932(2)
O57_2 O 0.78354(11) 0.1035(3) 0.6068(2)
C26_3 C 0.9201(4) 0.9320(12) 0.0420(6)
H11_3 H 0.9300 0.9821 0.0469
H12_3 H 0.9319 0.8869 0.0449
C37_3 C 0.9219(3) 0.9709(7) 0.1472(5)
C43_3 C 0.9175(3) 0.9490(10) 0.2194(10)
H31_3 H 0.9272 0.9883 0.2536
H32_3 H 0.8984 0.9510 0.2103
H33_3 H 0.9244 0.8955 0.2348
C44_3 C 0.8923(3) 0.8458(9) 0.0959(8)
H34_3 H 0.8873 0.8481 0.1339
H35_3 H 0.8760 0.8448 0.0549
H36_3 H 0.9028 0.7975 0.0988
N2_3 N 0.9103(2) 0.9256(7) 0.0962(6)
C57_3 C 0.83027(17) 0.9811(6) 0.5650(4)
C58_3 C 0.8337(2) 0.9550(7) 0.6334(4)
H43_3 H 0.8232 0.9900 0.6493
H44_3 H 0.8526 0.9583 0.6635
H45_3 H 0.8275 0.8998 0.6317
C59_3 C 0.8630(2) 0.8747(8) 0.5694(6)
H46_3 H 0.8631 0.8628 0.6129
H47_3 H 0.8808 0.8923 0.5747
H48_3 H 0.8580 0.8266 0.5419
C60_3 C 0.8428(2) 0.9592(7) 0.4715(5)
H50_3 H 0.8370 0.9131 0.4418
H51_3 H 0.8605 0.9763 0.4755
N3_3 N 0.84412(16) 0.9364(4) 0.5386(4)
H13_3 H 0.9049 0.9313 0.9990
C32_4 C 0.3404(4) 0.0155(10) 0.5848(8)
C33_4 C 0.3603(4) 0.0154(9) 0.5376(9)
H19_4 H 0.3681 0.0684 0.5394
H21_4 H 0.3490 0.0018 0.4915
C34_4 C 0.3276(3) 0.0887(12) 0.6547(7)
H22_4 H 0.3200 0.0365 0.6576
H23_4 H 0.3412 0.1034 0.6981
H24_4 H 0.3133 0.1289 0.6406
C38_4 C 0.3564(3) 0.1612(6) 0.5856(7)
H25_4 H 0.3643 0.1490 0.5541
H26_4 H 0.3433 0.2042 0.5679
H27_4 H 0.3705 0.1781 0.6277
N1_4 N 0.3421(2) 0.0841(10) 0.5970(8)
C45_4 C 0.23790(17) 0.1294(5) 0.8878(3)
C47_4 C 0.22690(15) 0.0404(5) 0.7879(3)
H38_4 H 0.2115 0.0231 0.7940
C49_4 C 0.26767(16) 0.1202(5) 0.8220(4)
H40_4 H 0.2801 0.1560 0.8523
H41_4 H 0.2795 0.0100 0.6712
C52_4 C 0.23313(17) 0.0075(5) 0.7340(4)
C53_4 C 0.25599(15) 0.0342(5) 0.7249(3)
C54_4 C 0.24419(15) 0.0984(5) 0.8306(4)
C56_4 C 0.27258(19) 0.0906(6) 0.7708(4)
H42_4 H 0.2880 0.1087 0.7656
H75_4 H 0.6510 0.0018 0.0085
C98_4 C 0.6596(4) 0.0155(10) 0.9152(8)
C99_4 C 0.6397(4) 0.0154(9) 0.9624(9)
H73_4 H 0.6319 0.0684 0.9606
C100_4 C 0.6724(3) 0.0887(12) 0.8453(7)
H76_4 H 0.6800 0.0365 0.8424
H77_4 H 0.6588 0.1034 0.8019
H78_4 H 0.6867 0.1289 0.8594
C102_4 C 0.6436(3) 0.1612(6) 0.9144(7)
H79_4 H 0.6357 0.1490 0.9459
H80_4 H 0.6567 0.2042 0.9321
H81_4 H 0.6295 0.1781 0.8723
N4_4 N 0.6579(2) 0.0841(10) 0.9030(8)
C105_4 C 0.76210(17) 0.1294(5) 0.6122(3)
C107_4 C 0.77310(15) 0.0404(5) 0.7121(3)
H89_4 H 0.7885 0.0231 0.7060
C109_4 C 0.73233(16) 0.1202(5) 0.6780(4)
H91_4 H 0.7199 0.1560 0.6477
H92_4 H 0.7205 0.0100 0.8288
C112_4 C 0.76687(17) 0.0075(5) 0.7660(4)
C113_4 C 0.74401(15) 0.0342(5) 0.7751(3)
C114_4 C 0.75581(15) 0.0984(5) 0.6694(4)
C116_4 C 0.72742(19) 0.0906(6) 0.7292(4)
H93_4 H 0.7120 0.1087 0.7344
C18_4 C 0.42348(15) 0.7537(7) 0.0743(4)
O6_2 O 0.42807(9) 0.6821(3) 0.0977(2)
O8_2 O 0.42871(10) 0.8209(4) 0.1064(2)
Mg4_4 Mg 0.31000(5) 0.85636(16) 0.57180(12)
C1_4 C 0.38876(17) 0.7116(7) 0.2766(4)
C3_4 C 0.40727(17) 0.7246(9) 0.2384(4)
C5_4 C 0.34294(15) 0.7316(6) 0.6734(4)
C6_4 C 0.34204(18) 0.8443(6) 0.3982(4)
H1_4 H 0.3356 0.8920 0.4098
C7_4 C 0.36454(18) 0.7797(5) 0.3316(4)
C8_4 C 0.32592(15) 0.7657(6) 0.4756(3)
C9_4 C 0.34657(17) 0.6968(6) 0.4033(3)
H2_4 H 0.3433 0.6466 0.4185
C10_4 C 0.33859(16) 0.7677(5) 0.4238(3)
C11_4 C 0.36040(17) 0.7014(6) 0.3572(4)
C12_4 C 0.35987(17) 0.7179(6) 0.7503(3)
C13_4 C 0.37816(19) 0.7821(6) 0.2919(4)
H3_4 H 0.3806 0.8317 0.2743
C14_4 C 0.36763(16) 0.7866(5) 0.7898(4)
H4_4 H 0.3627 0.8377 0.7700
C15_4 C 0.38295(18) 0.7806(5) 0.8598(3)
C16_4 C 0.38875(16) 0.7002(5) 0.8869(3)
C17_4 C 0.37943(18) 0.6316(5) 0.8443(3)
H5_4 H 0.3826 0.5793 0.8623
C19_4 C 0.40998(16) 0.7592(6) 0.9984(3)
C20_4 C 0.40263(16) 0.6925(5) 0.9588(3)
H6_4 H 0.4066 0.6410 0.9782
C21_4 C 0.40404(18) 0.8345(6) 0.9690(4)
H7_4 H 0.4095 0.8800 0.9969
C26_4 C 0.4201(4) 0.4320(12) 0.0420(6)
H11_4 H 0.4300 0.4821 0.0469
H12_4 H 0.4319 0.3869 0.0449
C27_4 C 0.3562(3) 0.8453(8) 0.3526(6)
H14_4 H 0.3594 0.8956 0.3376
C28_4 C 0.36999(18) 0.6315(7) 0.3387(4)
H15_4 H 0.3666 0.5810 0.3532
C29_4 C 0.38484(19) 0.6357(8) 0.2979(4)
H16_4 H 0.3917 0.5891 0.2859
C30_4 C 0.36584(17) 0.6432(5) 0.7768(3)
H17_4 H 0.3606 0.5982 0.7484
C31_4 C 0.3907(2) 0.8469(6) 0.9016(4)
H18_4 H 0.3869 0.8994 0.8841
H20_4 H 0.3746 0.9758 0.5558
C37_4 C 0.4219(3) 0.4709(7) 0.1472(5)
C43_4 C 0.4175(3) 0.4490(10) 0.2194(10)
H31_4 H 0.4272 0.4883 0.2536
H32_4 H 0.3984 0.4510 0.2103
H33_4 H 0.4244 0.3955 0.2348
C44_4 C 0.3923(3) 0.3458(9) 0.0959(8)
H34_4 H 0.3873 0.3481 0.1339
H35_4 H 0.3760 0.3448 0.0549
H36_4 H 0.4028 0.2975 0.0988
O1_4 O 0.42474(14) 0.9601(4) 0.1789(3)
O3_4 O 0.43715(11) 0.5264(4) 0.1524(3)
O4_4 O 0.41591(10) 0.6554(5) 0.2217(2)
O7_4 O 0.41224(11) 0.7945(4) 0.2242(3)
O11_4 O 0.46174(7) 0.7438(2) 0.22944(17)
O12_4 O 0.32880(12) 0.9608(4) 0.5911(3)
O13_4 O 0.33635(10) 0.6688(4) 0.6386(2)
O14_4 O 0.33684(10) 0.8058(4) 0.6555(2)
O15_4 O 0.32124(9) 0.6941(3) 0.4914(2)
O16_4 O 0.32197(9) 0.8320(3) 0.4981(2)
N2_4 N 0.4103(2) 0.4256(7) 0.0962(6)
C46_4 C 0.21579(16) 0.9498(5) 0.6878(3)
H37_4 H 0.2002 0.9316 0.6924
C48_4 C 0.22191(16) 0.9218(5) 0.6382(4)
H39_4 H 0.2096 0.8863 0.6073
C50_4 C 0.25460(16) 0.9002(4) 0.5820(3)
C51_4 C 0.26313(17) 0.9970(5) 0.6739(4)
C55_4 C 0.24540(16) 0.9417(4) 0.6290(3)
C57_4 C 0.33027(17) 0.4811(6) 0.5650(4)
C58_4 C 0.3337(2) 0.4550(7) 0.6334(4)
H43_4 H 0.3232 0.4900 0.6493
H44_4 H 0.3526 0.4583 0.6635
H45_4 H 0.3275 0.3998 0.6317
C59_4 C 0.3630(2) 0.3747(8) 0.5694(6)
H46_4 H 0.3631 0.3628 0.6129
H47_4 H 0.3808 0.3923 0.5747
H48_4 H 0.3580 0.3266 0.5419
C60_4 C 0.3428(2) 0.4592(7) 0.4715(5)
H49_4 H 0.3301 0.5031 0.4535
H50_4 H 0.3370 0.4131 0.4418
H51_4 H 0.3605 0.4763 0.4755
O18_4 O 0.31572(10) 0.5389(3) 0.5345(2)
O19_4 O 0.27827(11) 0.9116(3) 0.5864(2)
N3_4 N 0.34412(16) 0.4364(4) 0.5386(4)
C73_4 C 0.61124(17) 0.7116(7) 0.2234(4)
C74_4 C 0.59273(17) 0.7246(9) 0.2616(4)
C76_4 C 0.65796(18) 0.8443(6) 0.1018(4)
H58_4 H 0.6644 0.8920 0.0902
C77_4 C 0.63546(18) 0.7797(5) 0.1684(4)
C78_4 C 0.67408(15) 0.7657(6) 0.0244(3)
C79_4 C 0.65343(17) 0.6968(6) 0.0967(3)
H59_4 H 0.6567 0.6466 0.0815
C80_4 C 0.66141(16) 0.7677(5) 0.0762(3)
C81_4 C 0.63960(17) 0.7014(6) 0.1428(4)
C83_4 C 0.62184(19) 0.7821(6) 0.2081(4)
H60_4 H 0.6194 0.8317 0.2257
C92_4 C 0.5799(4) 0.4320(12) 0.4580(6)
H65_4 H 0.5700 0.4821 0.4531
H66_4 H 0.5681 0.3869 0.4551
H67_4 H 0.5951 0.4313 0.5010
C93_4 C 0.6438(3) 0.8453(8) 0.1474(6)
H68_4 H 0.6406 0.8956 0.1624
C94_4 C 0.63001(18) 0.6315(7) 0.1613(4)
H69_4 H 0.6334 0.5810 0.1468
C95_4 C 0.61516(19) 0.6357(8) 0.2021(4)
H70_4 H 0.6083 0.5891 0.2141
C101_4 C 0.5781(3) 0.4709(7) 0.3528(5)
C103_4 C 0.5825(3) 0.4490(10) 0.2806(10)
H82_4 H 0.5728 0.4883 0.2464
H83_4 H 0.6016 0.4510 0.2897
H84_4 H 0.5756 0.3955 0.2652
C104_4 C 0.6077(3) 0.3458(9) 0.4041(8)
H85_4 H 0.6127 0.3481 0.3661
H86_4 H 0.6240 0.3448 0.4451
H87_4 H 0.5972 0.2975 0.4012
O27_4 O 0.57526(14) 0.9601(4) 0.3211(3)
O28_4 O 0.56285(11) 0.5264(4) 0.3476(3)
O29_4 O 0.58409(10) 0.6554(5) 0.2783(2)
O31_4 O 0.58776(11) 0.7945(4) 0.2758(3)
O33_4 O 0.53826(7) 0.7438(2) 0.27056(17)
O37_4 O 0.67876(9) 0.6941(3) 0.0086(2)
O38_4 O 0.67803(9) 0.8320(3) 0.0019(2)
N5_4 N 0.5897(2) 0.4256(7) 0.4038(6)
C120_4 C 0.6572(2) 0.4592(7) 0.0285(5)
H100_4 H 0.6699 0.5031 0.0465
H101_4 H 0.6630 0.4131 0.0582
H102_4 H 0.6395 0.4763 0.0245
O48_2 O 0.57193(9) 0.6821(3) 0.4023(2)
O50_2 O 0.57129(10) 0.8209(4) 0.3936(2)
H13_4 H 0.4049 0.4313 0.9990
Mg9_4 Mg 0.69000(5) 0.85636(16) 0.92820(12)
C75_4 C 0.65706(15) 0.7316(6) 0.8266(4)
C82_4 C 0.64013(17) 0.7179(6) 0.7497(3)
C84_4 C 0.63237(16) 0.7866(5) 0.7102(4)
H61_4 H 0.6373 0.8377 0.7300
C85_4 C 0.61705(18) 0.7806(5) 0.6402(3)
C86_4 C 0.61125(16) 0.7002(5) 0.6131(3)
C87_4 C 0.62057(18) 0.6316(5) 0.6557(3)
H62_4 H 0.6174 0.5793 0.6377
C88_4 C 0.57652(15) 0.7537(7) 0.4257(4)
C89_4 C 0.59002(16) 0.7592(6) 0.5016(3)
C90_4 C 0.59737(16) 0.6925(5) 0.5412(3)
H63_4 H 0.5934 0.6410 0.5218
C91_4 C 0.59596(18) 0.8345(6) 0.5310(4)
H64_4 H 0.5905 0.8800 0.5031
C96_4 C 0.63416(17) 0.6432(5) 0.7232(3)
H71_4 H 0.6394 0.5982 0.7516
C97_4 C 0.6093(2) 0.8469(6) 0.5984(4)
H72_4 H 0.6131 0.8994 0.6159
H74_4 H 0.6254 0.9758 0.9442
O34_4 O 0.67120(12) 0.9608(4) 0.9089(3)
O35_4 O 0.66365(10) 0.6688(4) 0.8614(2)
O36_4 O 0.66316(10) 0.8058(4) 0.8445(2)
C106_4 C 0.78421(16) 0.9498(5) 0.8122(3)
H88_4 H 0.7998 0.9316 0.8076
C108_4 C 0.77809(16) 0.9218(5) 0.8618(4)
H90_4 H 0.7904 0.8863 0.8927
C110_4 C 0.74540(16) 0.9002(4) 0.9180(3)
C111_4 C 0.73687(17) 0.9970(5) 0.8261(4)
C115_4 C 0.75460(16) 0.9417(4) 0.8710(3)
C117_4 C 0.66973(17) 0.4811(6) 0.9350(4)
C118_4 C 0.6663(2) 0.4550(7) 0.8666(4)
H94_4 H 0.6768 0.4900 0.8507
H95_4 H 0.6474 0.4583 0.8365
H96_4 H 0.6725 0.3998 0.8683
C119_4 C 0.6370(2) 0.3747(8) 0.9306(6)
H97_4 H 0.6369 0.3628 0.8871
H98_4 H 0.6192 0.3923 0.9253
H99_4 H 0.6420 0.3266 0.9581
O40_4 O 0.68428(10) 0.5389(3) 0.9655(2)
O41_4 O 0.72173(11) 0.9116(3) 0.9136(2)
N6_4 N 0.65588(16) 0.4364(4) 0.9614(4)
loop_
_geom_bond_atom_site_label_1
_geom_bond_atom_site_label_2
_geom_bond_site_symmetry_1
_geom_bond_site_symmetry_2
C26 H11 1_555 1_555
H12 C26 1_555 1_555
C37 C43 1_555 1_555
C43 H31 1_555 1_555
H32 C43 1_555 1_555
H33 C43 1_555 1_555
C44 H34 1_555 1_555
H35 C44 1_555 1_555
H36 C44 1_555 1_555
N2 C26 1_555 1_555
C57 C58 1_555 1_555
C58 H43 1_555 1_555
H44 C58 1_555 1_555
H45 C58 1_555 1_555
C59 H46 1_555 1_555
H47 C59 1_555 1_555
H48 C59 1_555 1_555
H50 C60 1_555 1_555
H51 C60 1_555 1_555
N3 C57 1_555 1_555
C65 C62 1_555 1_555
H53 C65 1_555 1_555
C66 C23 1_555 1_555
H54 C66 1_555 1_555
Mg12 O23 1_555 1_555
Mg16 O23 1_555 1_555
C37 N2 1_555 1_555
C44 N2 1_555 1_555
C59 N3 1_555 1_555
C60 N3 1_555 1_555
C65 C66 1_555 1_555
C39 H28 1_555 1_555
C40 C39 1_555 1_555
C42 C40 1_555 1_555
H30 C42 1_555 1_555
C67 C68 1_555 1_555
C68 C39 1_555 1_555
O26 C67 1_555 1_555
Mg19 O26 1_555 1_555
Mg1 O2 1_555 1_555
Mg2 O3 1_555 1_555
Mg3 O1 1_555 1_555
Mg4 O12 1_555 1_555
C1 C3 1_555 1_555
C3 O4 1_555 1_555
C5 C12 1_555 1_555
C6 H1 1_555 1_555
C7 C11 1_555 1_555
C8 C10 1_555 1_555
C9 H2 1_555 1_555
C10 C6 1_555 1_555
C11 C9 1_555 1_555
C12 C14 1_555 1_555
C13 C1 1_555 1_555
H3 C13 1_555 1_555
C14 H4 1_555 1_555
C15 C14 1_555 1_555
C16 C15 1_555 1_555
C17 C16 1_555 1_555
H5 C17 1_555 1_555
C19 C20 1_555 1_555
C20 C16 1_555 1_555
H6 C20 1_555 1_555
C21 C19 1_555 1_555
H7 C21 1_555 1_555
C22 H8 1_555 1_555
C27 C6 1_555 1_555
H14 C27 1_555 1_555
C28 C11 1_555 1_555
H15 C28 1_555 1_555
C29 C1 1_555 1_555
H16 C29 1_555 1_555
C30 C12 1_555 1_555
H17 C30 1_555 1_555
C31 C15 1_555 1_555
H18 C31 1_555 1_555
C32 C33 1_555 1_555
C33 H19 1_555 1_555
H20 C33 1_555 1_555
H21 C33 1_555 1_555
C34 H22 1_555 1_555
H23 C34 1_555 1_555
H24 C34 1_555 1_555
C38 H25 1_555 1_555
H26 C38 1_555 1_555
H27 C38 1_555 1_555
C41 H29 1_555 1_555
O4 Mg2 1_555 1_555
O7 Mg3 1_555 1_555
O10 Mg2 1_555 1_555
O11 Mg1 1_555 1_555
O12 C32 1_555 1_555
O13 C5 1_555 1_555
O14 Mg4 1_555 1_555
O15 C8 1_555 1_555
O16 Mg4 1_555 1_555
N1 C32 1_555 1_555
Mg5 O17 1_555 1_555
Mg6 O13 1_555 1_555
C45 C54 1_555 1_555
C46 H37 1_555 1_555
C47 H38 1_555 1_555
C48 C46 1_555 1_555
H39 C48 1_555 1_555
C49 H40 1_555 1_555
C50 C55 1_555 1_555
C51 H41 1_555 1_555
C52 C46 1_555 1_555
C53 C51 1_555 1_555
C54 C47 1_555 1_555
C55 C48 1_555 1_555
C56 C49 1_555 1_555
H42 C56 1_555 1_555
O17 Mg4 1_555 1_555
O18 Mg6 1_555 1_555
O19 Mg4 1_555 1_555
O20 C45 1_555 1_555
O21 C45 1_555 1_555
O22 Mg5 1_555 1_555
O46 Mg3 1_555 1_555
O47 Mg2 1_555 1_555
O49 Mg3 1_555 1_555
O51 Mg1 1_555 1_555
Mg22 O20 1_555 1_555
Mg24 O21 1_555 1_555
Mg25 O22 1_555 1_555
O53 Mg5 1_555 1_555
O54 Mg5 1_555 1_555
O55 Mg5 1_555 1_555
O57 Mg6 1_555 1_555
O58 Mg5 1_555 1_555
Mg2 O11 1_555 1_555
Mg2 O51 1_555 1_555
Mg3 O11 1_555 1_555
C2 O10 1_555 1_555
C3 O7 1_555 1_555
C5 O14 1_555 1_555
C7 C13 1_555 1_555
C7 C27 1_555 1_555
C8 O16 1_555 1_555
C9 C10 1_555 1_555
C17 C30 1_555 1_555
C21 C31 1_555 1_555
C28 C29 1_555 1_555
C34 N1 1_555 1_555
C38 N1 1_555 1_555
O15 Mg6 1_555 1_555
Mg6 O17 1_555 1_555
Mg6 O58 1_555 1_555
C47 C52 1_555 1_555
C49 C54 1_555 1_555
C50 O19 1_555 1_555
C50 O22 1_555 1_555
C51 C55 1_555 1_555
C52 C53 1_555 1_555
C53 C56 1_555 1_555
Mg25 O53 1_555 1_555
O47 C18 1_555 1_555
O49 C18 1_555 1_555
C117 C118 1_555 1_555
C118 H94 1_555 1_555
H95 C118 1_555 1_555
H96 C118 1_555 1_555
C119 H97 1_555 1_555
H98 C119 1_555 1_555
H99 C119 1_555 1_555
N6 C117 1_555 1_555
C119 N6 1_555 1_555
C63 H52 1_555 1_555
O24 C61 1_555 1_555
C92 H65 1_555 1_555
H66 C92 1_555 1_555
H67 C92 1_555 1_555
C101 C103 1_555 1_555
C103 H82 1_555 1_555
H83 C103 1_555 1_555
H84 C103 1_555 1_555
C104 H85 1_555 1_555
H86 C104 1_555 1_555
H87 C104 1_555 1_555
N5 C92 1_555 1_555
H101 C120 1_555 1_555
H102 C120 1_555 1_555
Mg15 O24 1_555 1_555
C101 N5 1_555 1_555
C104 N5 1_555 1_555
H56 C71 1_555 1_555
Mg9 O34 1_555 1_555
C75 C82 1_555 1_555
C82 C84 1_555 1_555
C84 H61 1_555 1_555
C85 C84 1_555 1_555
C86 C85 1_555 1_555
C87 C86 1_555 1_555
H62 C87 1_555 1_555
C88 C89 1_555 1_555
C89 C90 1_555 1_555
C90 C86 1_555 1_555
H63 C90 1_555 1_555
C91 C89 1_555 1_555
H64 C91 1_555 1_555
C96 C82 1_555 1_555
H71 C96 1_555 1_555
C97 C85 1_555 1_555
H72 C97 1_555 1_555
C98 C99 1_555 1_555
C99 H73 1_555 1_555
H74 C99 1_555 1_555
C100 H76 1_555 1_555
H77 C100 1_555 1_555
H78 C100 1_555 1_555
C102 H79 1_555 1_555
H80 C102 1_555 1_555
H81 C102 1_555 1_555
O30 C88 1_555 1_555
O32 C88 1_555 1_555
O34 C98 1_555 1_555
O35 C75 1_555 1_555
O36 Mg9 1_555 1_555
N4 C98 1_555 1_555
Mg10 O35 1_555 1_555
C105 C114 1_555 1_555
C106 H88 1_555 1_555
C107 H89 1_555 1_555
C108 C106 1_555 1_555
H90 C108 1_555 1_555
C109 H91 1_555 1_555
C110 C115 1_555 1_555
C111 H92 1_555 1_555
C112 C106 1_555 1_555
C113 C111 1_555 1_555
C114 C107 1_555 1_555
C115 C108 1_555 1_555
C116 C109 1_555 1_555
H93 C116 1_555 1_555
O39 Mg9 1_555 1_555
O40 Mg10 1_555 1_555
O41 Mg9 1_555 1_555
O42 C105 1_555 1_555
O43 C105 1_555 1_555
O44 C110 1_555 1_555
Mg12_2 O25 1_555 1_555
Mg14 O30 1_555 1_555
Mg18 O32 1_555 1_555
Mg20 O39 1_555 1_555
Mg21 O42 1_555 1_555
Mg23 O43 1_555 1_555
O56 Mg10 1_555 1_555
C75 O36 1_555 1_555
C87 C96 1_555 1_555
C91 C97 1_555 1_555
C100 N4 1_555 1_555
C102 N4 1_555 1_555
Mg10 O39 1_555 1_555
C107 C112 1_555 1_555
C109 C114 1_555 1_555
C110 O41 1_555 1_555
C111 C115 1_555 1_555
C112 C113 1_555 1_555
C113 C116 1_555 1_555
O44 Mg20 1_555 1_555
C24 C4 1_555 1_555
H9 C24 1_555 1_555
C25 C24 1_555 1_555
H10 C25 1_555 1_555
C35 C36 1_555 1_555
O5 C35 1_555 1_555
O9 Mg1_2 1_555 1_555
C69 C36 1_555 1_555
H55 C69 1_555 1_555
C72 C70 1_555 1_555
H57 C72 1_555 1_555
Mg14 O9 1_555 1_555
Mg18 O5 1_555 1_555
C73 C74 1_555 1_555
C74 O29 1_555 1_555
C76 H58 1_555 1_555
C77 C81 1_555 1_555
C78 C80 1_555 1_555
C79 H59 1_555 1_555
C80 C76 1_555 1_555
C81 C79 1_555 1_555
C83 C73 1_555 1_555
H60 C83 1_555 1_555
C93 C76 1_555 1_555
H68 C93 1_555 1_555
C94 C81 1_555 1_555
H69 C94 1_555 1_555
C95 C73 1_555 1_555
H70 C95 1_555 1_555
O27 Mg18 1_555 1_555
O28 Mg14 1_555 1_555
O29 Mg14 1_555 1_555
O31 Mg18 1_555 1_555
O33 Mg1_2 1_555 1_555
O37 C78 1_555 1_555
O45 Mg1_2 1_555 1_555
O52 Mg14 1_555 1_555
C25 C64 1_555 1_555
C69 C70 1_555 1_555
Mg14 O33 1_555 1_555
Mg18 O33 1_555 1_555
C74 O31 1_555 1_555
C77 C83 1_555 1_555
C77 C93 1_555 1_555
C78 O38 1_555 1_555
C79 C80 1_555 1_555
C94 C95 1_555 1_555
Mg20_2 O59 1_555 1_555
C63_2 H52_2 1_555 1_555
O24_2 C61_2 1_555 1_555
Mg16 O24_2 1_555 1_555
H10_2 C25_2 1_555 1_555
C25_2 C64_2 1_555 1_555
C24_2 C4_2 1_555 1_555
H9_2 C24_2 1_555 1_555
C35_2 C36_2 1_555 1_555
O46 C35_2 1_555 1_555
C69_2 C36_2 1_555 1_555
H55_2 C69_2 1_555 1_555
H56_2 C71_2 1_555 1_555
C72_2 C70_2 1_555 1_555
H57_2 C72_2 1_555 1_555
Mg12 O25_2 1_555 1_555
C69_2 C70_2 1_555 1_555
C71_2 C72_2 1_555 1_555
C65_2 C62_2 1_555 1_555
H53_2 C65_2 1_555 1_555
Mg12_2 O23_2 1_555 1_555
Mg15 O23_2 1_555 1_555
C66_2 C23_2 1_555 1_555
H54_2 C66_2 1_555 1_555
O54_2 Mg20 1_555 1_555
C22_2 H8_2 1_555 1_555
C39_2 H28_2 1_555 1_555
C40_2 C39_2 1_555 1_555
C41_2 H29_2 1_555 1_555
C42_2 C40_2 1_555 1_555
H30_2 C42_2 1_555 1_555
C67_2 C68_2 1_555 1_555
C68_2 C39_2 1_555 1_555
O26_2 C67_2 1_555 1_555
Mg19_2 O26_2 1_555 1_555
O53_2 Mg20_2 1_555 1_555
O55_2 Mg20_2 1_555 1_555
C2_2 O52 1_555 1_555
C41_2 C42_2 1_555 1_555
Mg26 O53_2 1_555 1_555
C42_3 C40_3 1_555 1_555
H30_3 C42_3 1_555 1_555
Mg9_2 O34_2 1_555 1_555
C75_2 C82_2 1_555 1_555
C82_2 C84_2 1_555 1_555
C84_2 H61_2 1_555 1_555
C85_2 C84_2 1_555 1_555
C86_2 C85_2 1_555 1_555
C87_2 C86_2 1_555 1_555
H62_2 C87_2 1_555 1_555
C88_2 C89_2 1_555 1_555
C89_2 C90_2 1_555 1_555
C90_2 C86_2 1_555 1_555
H63_2 C90_2 1_555 1_555
C91_2 C89_2 1_555 1_555
H64_2 C91_2 1_555 1_555
C96_2 C82_2 1_555 1_555
H71_2 C96_2 1_555 1_555
C97_2 C85_2 1_555 1_555
H72_2 C97_2 1_555 1_555
O30_2 C88_2 1_555 1_555
O32_2 C88_2 1_555 1_555
O35_2 C75_2 1_555 1_555
O36_2 Mg9_2 1_555 1_555
Mg24 O35_2 1_555 1_555
C106_2 H88_2 1_555 1_555
C108_2 C106_2 1_555 1_555
H90_2 C108_2 1_555 1_555
C110_2 C115_2 1_555 1_555
C115_2 C108_2 1_555 1_555
C117_2 C118_2 1_555 1_555
C118_2 H94_2 1_555 1_555
H95_2 C118_2 1_555 1_555
H96_2 C118_2 1_555 1_555
C119_2 H97_2 1_555 1_555
H98_2 C119_2 1_555 1_555
H99_2 C119_2 1_555 1_555
O39_2 Mg9_2 1_555 1_555
O40_2 Mg24 1_555 1_555
O41_2 Mg9_2 1_555 1_555
O44_2 C110_2 1_555 1_555
N6_2 C117_2 1_555 1_555
Mg14_2 O30_2 1_555 1_555
Mg18_2 O32_2 1_555 1_555
Mg22 O39_2 1_555 1_555
C75_2 O36_2 1_555 1_555
C87_2 C96_2 1_555 1_555
C91_2 C97_2 1_555 1_555
Mg24 O39_2 1_555 1_555
C110_2 O41_2 1_555 1_555
C111_2 C115_2 1_555 1_555
C117_2 O40_2 1_555 1_555
C119_2 N6_2 1_555 1_555
O44_2 Mg22 1_555 1_555
Mg1_3 O2_2 1_555 1_555
Mg2_2 O3_2 1_555 1_555
Mg3_2 O1_2 1_555 1_555
Mg4_2 O12_2 1_555 1_555
C1_2 C3_2 1_555 1_555
C2_3 C4_3 1_555 1_555
C3_2 O4_2 1_555 1_555
C4_3 C22_3 1_555 1_555
C5_2 C12_2 1_555 1_555
C6_2 H1_2 1_555 1_555
C7_2 C11_2 1_555 1_555
C8_2 C10_2 1_555 1_555
C9_2 H2_2 1_555 1_555
C10_2 C6_2 1_555 1_555
C11_2 C9_2 1_555 1_555
C12_2 C14_2 1_555 1_555
C13_2 C1_2 1_555 1_555
H3_2 C13_2 1_555 1_555
C14_2 H4_2 1_555 1_555
C15_2 C14_2 1_555 1_555
C16_2 C15_2 1_555 1_555
C17_2 C16_2 1_555 1_555
H5_2 C17_2 1_555 1_555
C19_2 C20_2 1_555 1_555
C20_2 C16_2 1_555 1_555
H6_2 C20_2 1_555 1_555
C21_2 C19_2 1_555 1_555
H7_2 C21_2 1_555 1_555
C22_3 H8_3 1_555 1_555
C23_3 C22_3 1_555 1_555
C24_3 C4_3 1_555 1_555
H9_3 C24_3 1_555 1_555
C25_3 C24_3 1_555 1_555
H10_3 C25_3 1_555 1_555
C26_2 H11_2 1_555 1_555
H12_2 C26_2 1_555 1_555
C27_2 C6_2 1_555 1_555
H14_2 C27_2 1_555 1_555
C28_2 C11_2 1_555 1_555
H15_2 C28_2 1_555 1_555
C29_2 C1_2 1_555 1_555
H16_2 C29_2 1_555 1_555
C30_2 C12_2 1_555 1_555
H17_2 C30_2 1_555 1_555
C31_2 C15_2 1_555 1_555
H18_2 C31_2 1_555 1_555
C35_3 C36_3 1_555 1_555
C36_3 C41_3 1_555 1_555
C37_2 C43_2 1_555 1_555
C41_3 H29_3 1_555 1_555
C43_2 H31_2 1_555 1_555
H32_2 C43_2 1_555 1_555
H33_2 C43_2 1_555 1_555
C44_2 H34_2 1_555 1_555
H35_2 C44_2 1_555 1_555
H36_2 C44_2 1_555 1_555
O2_2 C35_3 1_555 1_555
O3_2 C37_2 1_555 1_555
O4_2 Mg2_2 1_555 1_555
O5_2 C35_3 1_555 1_555
O7_2 Mg3_2 1_555 1_555
O9_2 Mg1_3 1_555 1_555
O10_2 Mg2_2 1_555 1_555
O11_2 Mg1_3 1_555 1_555
O13_2 C5_2 1_555 1_555
O14_2 Mg4_2 1_555 1_555
O15_2 C8_2 1_555 1_555
O16_2 Mg4_2 1_555 1_555
N2_2 C26_2 1_555 1_555
Mg21 O17_2 1_555 1_555
Mg23 O13_2 1_555 1_555
C46_2 H37_2 1_555 1_555
C48_2 C46_2 1_555 1_555
H39_2 C48_2 1_555 1_555
C50_2 C55_2 1_555 1_555
C55_2 C48_2 1_555 1_555
C57_2 C58_2 1_555 1_555
C58_2 H43_2 1_555 1_555
H44_2 C58_2 1_555 1_555
H45_2 C58_2 1_555 1_555
C59_2 H46_2 1_555 1_555
H47_2 C59_2 1_555 1_555
H48_2 C59_2 1_555 1_555
C60_2 H49_2 1_555 1_555
H50_2 C60_2 1_555 1_555
H51_2 C60_2 1_555 1_555
O17_2 Mg4_2 1_555 1_555
O18_2 Mg23 1_555 1_555
O19_2 Mg4_2 1_555 1_555
O22_2 Mg21 1_555 1_555
N3_2 C57_2 1_555 1_555
C61_3 C62_3 1_555 1_555
C62_3 C63_3 1_555 1_555
C63_3 H52_3 1_555 1_555
C64_3 C23_3 1_555 1_555
C65_3 C62_3 1_555 1_555
H53_3 C65_3 1_555 1_555
C66_3 C23_3 1_555 1_555
H54_3 C66_3 1_555 1_555
O23_3 C61_3 1_555 1_555
O24_3 C61_3 1_555 1_555
C69_3 C36_3 1_555 1_555
H55_3 C69_3 1_555 1_555
Mg14_2 O9_2 1_555 1_555
Mg18_2 O5_2 1_555 1_555
C73_2 C74_2 1_555 1_555
C74_2 O29_2 1_555 1_555
C76_2 H58_2 1_555 1_555
C77_2 C81_2 1_555 1_555
C78_2 C80_2 1_555 1_555
C79_2 H59_2 1_555 1_555
C80_2 C76_2 1_555 1_555
C81_2 C79_2 1_555 1_555
C83_2 C73_2 1_555 1_555
H60_2 C83_2 1_555 1_555
C92_2 H65_2 1_555 1_555
H66_2 C92_2 1_555 1_555
H67_2 C92_2 1_555 1_555
C93_2 C76_2 1_555 1_555
H68_2 C93_2 1_555 1_555
C94_2 C81_2 1_555 1_555
H69_2 C94_2 1_555 1_555
C95_2 C73_2 1_555 1_555
H70_2 C95_2 1_555 1_555
C101_2 C103_2 1_555 1_555
C103_2 H82_2 1_555 1_555
H83_2 C103_2 1_555 1_555
H84_2 C103_2 1_555 1_555
C104_2 H85_2 1_555 1_555
H86_2 C104_2 1_555 1_555
H87_2 C104_2 1_555 1_555
O27_2 Mg18_2 1_555 1_555
O28_2 Mg14_2 1_555 1_555
O29_2 Mg14_2 1_555 1_555
O31_2 Mg18_2 1_555 1_555
O33_2 Mg1_3 1_555 1_555
O37_2 C78_2 1_555 1_555
N5_2 C92_2 1_555 1_555
C120_2 H100_2 1_555 1_555
H101_2 C120_2 1_555 1_555
H102_2 C120_2 1_555 1_555
Mg12_3 O23_3 1_555 1_555
Mg15_2 O24_3 1_555 1_555
Mg16_2 O23_3 1_555 1_555
O45_2 Mg1_3 1_555 1_555
O46_2 Mg3_2 1_555 1_555
O47_2 Mg2_2 1_555 1_555
O49_2 Mg3_2 1_555 1_555
O51_2 Mg1_3 1_555 1_555
O52_2 Mg14_2 1_555 1_555
Mg25_2 O22_2 1_555 1_555
O53_3 Mg21 1_555 1_555
O55_3 Mg21 1_555 1_555
O58_2 Mg21 1_555 1_555
Mg2_2 O11_2 1_555 1_555
Mg2_2 O51_2 1_555 1_555
Mg3_2 O11_2 1_555 1_555
C2_3 O9_2 1_555 1_555
C2_3 O10_2 1_555 1_555
C3_2 O7_2 1_555 1_555
C5_2 O14_2 1_555 1_555
C7_2 C13_2 1_555 1_555
C7_2 C27_2 1_555 1_555
C8_2 O16_2 1_555 1_555
C9_2 C10_2 1_555 1_555
C17_2 C30_2 1_555 1_555
C21_2 C31_2 1_555 1_555
C25_3 C64_3 1_555 1_555
C28_2 C29_2 1_555 1_555
C37_2 N2_2 1_555 1_555
C44_2 N2_2 1_555 1_555
O15_2 Mg23 1_555 1_555
Mg23 O17_2 1_555 1_555
Mg23 O58_2 1_555 1_555
C50_2 O19_2 1_555 1_555
C50_2 O22_2 1_555 1_555
C51_2 C55_2 1_555 1_555
C57_2 O18_2 1_555 1_555
C59_2 N3_2 1_555 1_555
C60_2 N3_2 1_555 1_555
C63_3 C64_3 1_555 1_555
C65_3 C66_3 1_555 1_555
Mg14_2 O33_2 1_555 1_555
Mg18_2 O33_2 1_555 1_555
C74_2 O31_2 1_555 1_555
C77_2 C83_2 1_555 1_555
C77_2 C93_2 1_555 1_555
C78_2 O38_2 1_555 1_555
C79_2 C80_2 1_555 1_555
C94_2 C95_2 1_555 1_555
C101_2 O28_2 1_555 1_555
C101_2 N5_2 1_555 1_555
C104_2 N5_2 1_555 1_555
Mg22_2 O59_2 1_555 1_555
Mg25_2 O53_3 1_555 1_555
O47_2 C18_2 1_555 1_555
O49_2 C18_2 1_555 1_555
C39_3 H28_3 1_555 1_555
C67_3 C68_3 1_555 1_555
C68_3 C39_3 1_555 1_555
C71_3 C68_3 1_555 1_555
H56_3 C71_3 1_555 1_555
O25_3 C67_3 1_555 1_555
O26_3 C67_3 1_555 1_555
C98_2 C99_2 1_555 1_555
C99_2 H73_2 1_555 1_555
C100_2 H76_2 1_555 1_555
H77_2 C100_2 1_555 1_555
H78_2 C100_2 1_555 1_555
C102_2 H79_2 1_555 1_555
H80_2 C102_2 1_555 1_555
H81_2 C102_2 1_555 1_555
N4_2 C98_2 1_555 1_555
C105_2 C114_2 1_555 1_555
C107_2 H89_2 1_555 1_555
C109_2 H91_2 1_555 1_555
C114_2 C107_2 1_555 1_555
C116_2 C109_2 1_555 1_555
H93_2 C116_2 1_555 1_555
O54 C105_2 1_555 1_555
O57 C105_2 1_555 1_555
Mg12_3 O25_3 1_555 1_555
Mg19_3 O26_3 1_555 1_555
C100_2 N4_2 1_555 1_555
C102_2 N4_2 1_555 1_555
C107_2 C112_2 1_555 1_555
C109_2 C114_2 1_555 1_555
C112_2 C113_2 1_555 1_555
C113_2 C116_2 1_555 1_555
C32_2 C33_2 1_555 1_555
C33_2 H19_2 1_555 1_555
H21_2 C33_2 1_555 1_555
C34_2 H22_2 1_555 1_555
H23_2 C34_2 1_555 1_555
H24_2 C34_2 1_555 1_555
C38_2 H25_2 1_555 1_555
H26_2 C38_2 1_555 1_555
H27_2 C38_2 1_555 1_555
N1_2 C32_2 1_555 1_555
C45_2 C54_2 1_555 1_555
C47_2 H38_2 1_555 1_555
C49_2 H40_2 1_555 1_555
C54_2 C47_2 1_555 1_555
C56_2 C49_2 1_555 1_555
H42_2 C56_2 1_555 1_555
O54_2 C45_2 1_555 1_555
O56 C45_2 1_555 1_555
C72_3 C70_3 1_555 1_555
H57_3 C72_3 1_555 1_555
C34_2 N1_2 1_555 1_555
C38_2 N1_2 1_555 1_555
C47_2 C52_2 1_555 1_555
C49_2 C54_2 1_555 1_555
C52_2 C53_2 1_555 1_555
C53_2 C56_2 1_555 1_555
H10_4 C25_4 1_555 1_555
C61_4 C62_4 1_555 1_555
C62_4 C63_4 1_555 1_555
C63_4 H52_4 1_555 1_555
C65_4 C62_4 1_555 1_555
H53_4 C65_4 1_555 1_555
O23_4 C61_4 1_555 1_555
O24_4 C61_4 1_555 1_555
Mg12_3 O23_4 1_555 1_555
Mg16_2 O24_4 1_555 1_555
Mg15_2 O23_4 1_555 1_555
C25_4 C64_4 1_555 1_555
C63_4 C64_4 1_555 1_555
C2_4 C4_4 1_555 1_555
C4_4 C22_4 1_555 1_555
C22_4 H8_4 1_555 1_555
C23_4 C22_4 1_555 1_555
C24_4 C4_4 1_555 1_555
H9_4 C24_4 1_555 1_555
C35_4 C36_4 1_555 1_555
C36_4 C41_4 1_555 1_555
C41_4 H29_4 1_555 1_555
C42_4 C40_4 1_555 1_555
H30_4 C42_4 1_555 1_555
O45_2 C35_4 1_555 1_555
O46_2 C35_4 1_555 1_555
C66_4 C23_4 1_555 1_555
H54_4 C66_4 1_555 1_555
C69_4 C36_4 1_555 1_555
H55_4 C69_4 1_555 1_555
O53_4 Mg22_2 1_555 1_555
O55_4 Mg22_2 1_555 1_555
C2_4 O51_2 1_555 1_555
C2_4 O52_2 1_555 1_555
C41_4 C42_4 1_555 1_555
Mg26_2 O53_4 1_555 1_555
C39_4 H28_4 1_555 1_555
C67_4 C68_4 1_555 1_555
C68_4 C39_4 1_555 1_555
C71_4 C68_4 1_555 1_555
H56_4 C71_4 1_555 1_555
C72_4 C70_4 1_555 1_555
H57_4 C72_4 1_555 1_555
O25_4 C67_4 1_555 1_555
O26_4 C67_4 1_555 1_555
Mg12_3 O25_4 1_555 1_555
Mg19_4 O26_4 1_555 1_555
C71_4 C72_4 1_555 1_555
C73_3 C74_3 1_555 1_555
C74_3 O29_3 1_555 1_555
C76_3 H58_3 1_555 1_555
C77_3 C81_3 1_555 1_555
C78_3 C80_3 1_555 1_555
C79_3 H59_3 1_555 1_555
C80_3 C76_3 1_555 1_555
C81_3 C79_3 1_555 1_555
C83_3 C73_3 1_555 1_555
H60_3 C83_3 1_555 1_555
C93_3 C76_3 1_555 1_555
H68_3 C93_3 1_555 1_555
C94_3 C81_3 1_555 1_555
H69_3 C94_3 1_555 1_555
C95_3 C73_3 1_555 1_555
H70_3 C95_3 1_555 1_555
O27_3 Mg19 1_555 1_555
O28_3 Mg16 1_555 1_555
O29_3 Mg16 1_555 1_555
O31_3 Mg19 1_555 1_555
O33_3 Mg12 1_555 1_555
O37_3 C78_3 1_555 1_555
O48 Mg16 1_555 1_555
O50 Mg19 1_555 1_555
Mg16 O33_3 1_555 1_555
Mg19 O33_3 1_555 1_555
C74_3 O31_3 1_555 1_555
C77_3 C83_3 1_555 1_555
C77_3 C93_3 1_555 1_555
C78_3 O38_3 1_555 1_555
C79_3 C80_3 1_555 1_555
C94_3 C95_3 1_555 1_555
Mg9_3 O34_3 1_555 1_555
C75_3 C82_3 1_555 1_555
C82_3 C84_3 1_555 1_555
C84_3 H61_3 1_555 1_555
C85_3 C84_3 1_555 1_555
C86_3 C85_3 1_555 1_555
C87_3 C86_3 1_555 1_555
H62_3 C87_3 1_555 1_555
C88_3 C89_3 1_555 1_555
C89_3 C90_3 1_555 1_555
C90_3 C86_3 1_555 1_555
H63_3 C90_3 1_555 1_555
C91_3 C89_3 1_555 1_555
H64_3 C91_3 1_555 1_555
C96_3 C82_3 1_555 1_555
H71_3 C96_3 1_555 1_555
C97_3 C85_3 1_555 1_555
H72_3 C97_3 1_555 1_555
C98_3 C99_3 1_555 1_555
C99_3 H73_3 1_555 1_555
H74_3 C99_3 1_555 1_555
C100_3 H76_3 1_555 1_555
H77_3 C100_3 1_555 1_555
H78_3 C100_3 1_555 1_555
C102_3 H79_3 1_555 1_555
H80_3 C102_3 1_555 1_555
H81_3 C102_3 1_555 1_555
O48 C88_3 1_555 1_555
O50 C88_3 1_555 1_555
O34_3 C98_3 1_555 1_555
O35_3 C75_3 1_555 1_555
O36_3 Mg9_3 1_555 1_555
N4_3 C98_3 1_555 1_555
Mg26_2 O35_3 1_555 1_555
C105_3 C114_3 1_555 1_555
C106_3 H88_3 1_555 1_555
C107_3 H89_3 1_555 1_555
C108_3 C106_3 1_555 1_555
H90_3 C108_3 1_555 1_555
C109_3 H91_3 1_555 1_555
C110_3 C115_3 1_555 1_555
C111_3 H92_3 1_555 1_555
C112_3 C106_3 1_555 1_555
C113_3 C111_3 1_555 1_555
C114_3 C107_3 1_555 1_555
C115_3 C108_3 1_555 1_555
C116_3 C109_3 1_555 1_555
H93_3 C116_3 1_555 1_555
O53_4 Mg9_3 1_555 1_555
O40_3 Mg26_2 1_555 1_555
O41_3 Mg9_3 1_555 1_555
O55 C105_3 1_555 1_555
O43_2 C105_3 1_555 1_555
O59_2 C110_3 1_555 1_555
Mg25 O43_2 1_555 1_555
O56_2 Mg26_2 1_555 1_555
C75_3 O36_3 1_555 1_555
C87_3 C96_3 1_555 1_555
C91_3 C97_3 1_555 1_555
C100_3 N4_3 1_555 1_555
C102_3 N4_3 1_555 1_555
C107_3 C112_3 1_555 1_555
C109_3 C114_3 1_555 1_555
C110_3 O41_3 1_555 1_555
C111_3 C115_3 1_555 1_555
C112_3 C113_3 1_555 1_555
C113_3 C116_3 1_555 1_555
C92_3 H65_3 1_555 1_555
H66_3 C92_3 1_555 1_555
H67_3 C92_3 1_555 1_555
C101_3 C103_3 1_555 1_555
C103_3 H82_3 1_555 1_555
H83_3 C103_3 1_555 1_555
H84_3 C103_3 1_555 1_555
C104_3 H85_3 1_555 1_555
H86_3 C104_3 1_555 1_555
H87_3 C104_3 1_555 1_555
N5_3 C92_3 1_555 1_555
H101_3 C120_3 1_555 1_555
H102_3 C120_3 1_555 1_555
C101_3 N5_3 1_555 1_555
C104_3 N5_3 1_555 1_555
C117_3 C118_3 1_555 1_555
C118_3 H94_3 1_555 1_555
H95_3 C118_3 1_555 1_555
H96_3 C118_3 1_555 1_555
C119_3 H97_3 1_555 1_555
H98_3 C119_3 1_555 1_555
H99_3 C119_3 1_555 1_555
N6_3 C117_3 1_555 1_555
C119_3 N6_3 1_555 1_555
O6 C18_3 1_555 1_555
O8 C18_3 1_555 1_555
Mg15 O6 1_555 1_555
Mg19_2 O8 1_555 1_555
Mg15 O3_3 1_555 1_555
Mg19_2 O1_3 1_555 1_555
Mg4_3 O12_3 1_555 1_555
C1_3 C3_3 1_555 1_555
C3_3 O4_3 1_555 1_555
C5_3 C12_3 1_555 1_555
C6_3 H1_3 1_555 1_555
C7_3 C11_3 1_555 1_555
C8_3 C10_3 1_555 1_555
C9_3 H2_3 1_555 1_555
C10_3 C6_3 1_555 1_555
C11_3 C9_3 1_555 1_555
C12_3 C14_3 1_555 1_555
C13_3 C1_3 1_555 1_555
H3_3 C13_3 1_555 1_555
C14_3 H4_3 1_555 1_555
C15_3 C14_3 1_555 1_555
C16_3 C15_3 1_555 1_555
C17_3 C16_3 1_555 1_555
H5_3 C17_3 1_555 1_555
C19_3 C20_3 1_555 1_555
C20_3 C16_3 1_555 1_555
H6_3 C20_3 1_555 1_555
C21_3 C19_3 1_555 1_555
H7_3 C21_3 1_555 1_555
C27_3 C6_3 1_555 1_555
H14_3 C27_3 1_555 1_555
C28_3 C11_3 1_555 1_555
H15_3 C28_3 1_555 1_555
C29_3 C1_3 1_555 1_555
H16_3 C29_3 1_555 1_555
C30_3 C12_3 1_555 1_555
H17_3 C30_3 1_555 1_555
C31_3 C15_3 1_555 1_555
H18_3 C31_3 1_555 1_555
C32_3 C33_3 1_555 1_555
C33_3 H19_3 1_555 1_555
H20_3 C33_3 1_555 1_555
H21_3 C33_3 1_555 1_555
C34_3 H22_3 1_555 1_555
H23_3 C34_3 1_555 1_555
H24_3 C34_3 1_555 1_555
C38_3 H25_3 1_555 1_555
H26_3 C38_3 1_555 1_555
H27_3 C38_3 1_555 1_555
O4_3 Mg15 1_555 1_555
O7_3 Mg19_2 1_555 1_555
O11_3 Mg12_2 1_555 1_555
O12_3 C32_3 1_555 1_555
O13_3 C5_3 1_555 1_555
O14_3 Mg4_3 1_555 1_555
O15_3 C8_3 1_555 1_555
O16_3 Mg4_3 1_555 1_555
N1_3 C32_3 1_555 1_555
Mg25_2 O13_3 1_555 1_555
C45_3 C54_3 1_555 1_555
C46_3 H37_3 1_555 1_555
C47_3 H38_3 1_555 1_555
C48_3 C46_3 1_555 1_555
H39_3 C48_3 1_555 1_555
C49_3 H40_3 1_555 1_555
C50_3 C55_3 1_555 1_555
C51_3 H41_3 1_555 1_555
C52_3 C46_3 1_555 1_555
C53_3 C51_3 1_555 1_555
C54_3 C47_3 1_555 1_555
C55_3 C48_3 1_555 1_555
C56_3 C49_3 1_555 1_555
H42_3 C56_3 1_555 1_555
O53_3 Mg4_3 1_555 1_555
O18_3 Mg25_2 1_555 1_555
O19_3 Mg4_3 1_555 1_555
O55_2 C45_3 1_555 1_555
O21_2 C45_3 1_555 1_555
Mg26 O21_2 1_555 1_555
O57_2 Mg25_2 1_555 1_555
Mg15 O11_3 1_555 1_555
Mg19_2 O11_3 1_555 1_555
C3_3 O7_3 1_555 1_555
C5_3 O14_3 1_555 1_555
C7_3 C13_3 1_555 1_555
C7_3 C27_3 1_555 1_555
C8_3 O16_3 1_555 1_555
C9_3 C10_3 1_555 1_555
C17_3 C30_3 1_555 1_555
C21_3 C31_3 1_555 1_555
C28_3 C29_3 1_555 1_555
C34_3 N1_3 1_555 1_555
C38_3 N1_3 1_555 1_555
O15_3 Mg25_2 1_555 1_555
C47_3 C52_3 1_555 1_555
C49_3 C54_3 1_555 1_555
C50_3 O19_3 1_555 1_555
C50_3 O58_2 1_555 1_555
C51_3 C55_3 1_555 1_555
C52_3 C53_3 1_555 1_555
C53_3 C56_3 1_555 1_555
C26_3 H11_3 1_555 1_555
H12_3 C26_3 1_555 1_555
C37_3 C43_3 1_555 1_555
C43_3 H31_3 1_555 1_555
H32_3 C43_3 1_555 1_555
H33_3 C43_3 1_555 1_555
C44_3 H34_3 1_555 1_555
H35_3 C44_3 1_555 1_555
H36_3 C44_3 1_555 1_555
N2_3 C26_3 1_555 1_555
C57_3 C58_3 1_555 1_555
C58_3 H43_3 1_555 1_555
H44_3 C58_3 1_555 1_555
H45_3 C58_3 1_555 1_555
C59_3 H46_3 1_555 1_555
H47_3 C59_3 1_555 1_555
H48_3 C59_3 1_555 1_555
H50_3 C60_3 1_555 1_555
H51_3 C60_3 1_555 1_555
N3_3 C57_3 1_555 1_555
C37_3 N2_3 1_555 1_555
C44_3 N2_3 1_555 1_555
C59_3 N3_3 1_555 1_555
C60_3 N3_3 1_555 1_555
C32_4 C33_4 1_555 1_555
C33_4 H19_4 1_555 1_555
H21_4 C33_4 1_555 1_555
C34_4 H22_4 1_555 1_555
H23_4 C34_4 1_555 1_555
H24_4 C34_4 1_555 1_555
C38_4 H25_4 1_555 1_555
H26_4 C38_4 1_555 1_555
H27_4 C38_4 1_555 1_555
N1_4 C32_4 1_555 1_555
C45_4 C54_4 1_555 1_555
C47_4 H38_4 1_555 1_555
C49_4 H40_4 1_555 1_555
C54_4 C47_4 1_555 1_555
C56_4 C49_4 1_555 1_555
H42_4 C56_4 1_555 1_555
O55_4 C45_4 1_555 1_555
O56_2 C45_4 1_555 1_555
C34_4 N1_4 1_555 1_555
C38_4 N1_4 1_555 1_555
C47_4 C52_4 1_555 1_555
C49_4 C54_4 1_555 1_555
C52_4 C53_4 1_555 1_555
C53_4 C56_4 1_555 1_555
C98_4 C99_4 1_555 1_555
C99_4 H73_4 1_555 1_555
C100_4 H76_4 1_555 1_555
H77_4 C100_4 1_555 1_555
H78_4 C100_4 1_555 1_555
C102_4 H79_4 1_555 1_555
H80_4 C102_4 1_555 1_555
H81_4 C102_4 1_555 1_555
N4_4 C98_4 1_555 1_555
C105_4 C114_4 1_555 1_555
C107_4 H89_4 1_555 1_555
C109_4 H91_4 1_555 1_555
C114_4 C107_4 1_555 1_555
C116_4 C109_4 1_555 1_555
H93_4 C116_4 1_555 1_555
O55_3 C105_4 1_555 1_555
O57_2 C105_4 1_555 1_555
C100_4 N4_4 1_555 1_555
C102_4 N4_4 1_555 1_555
C107_4 C112_4 1_555 1_555
C109_4 C114_4 1_555 1_555
C112_4 C113_4 1_555 1_555
C113_4 C116_4 1_555 1_555
O6_2 C18_4 1_555 1_555
O8_2 C18_4 1_555 1_555
Mg15_2 O6_2 1_555 1_555
Mg19_4 O8_2 1_555 1_555
Mg15_2 O3_4 1_555 1_555
Mg19_4 O1_4 1_555 1_555
Mg4_4 O12_4 1_555 1_555
C1_4 C3_4 1_555 1_555
C3_4 O4_4 1_555 1_555
C5_4 C12_4 1_555 1_555
C6_4 H1_4 1_555 1_555
C7_4 C11_4 1_555 1_555
C8_4 C10_4 1_555 1_555
C9_4 H2_4 1_555 1_555
C10_4 C6_4 1_555 1_555
C11_4 C9_4 1_555 1_555
C12_4 C14_4 1_555 1_555
C13_4 C1_4 1_555 1_555
H3_4 C13_4 1_555 1_555
C14_4 H4_4 1_555 1_555
C15_4 C14_4 1_555 1_555
C16_4 C15_4 1_555 1_555
C17_4 C16_4 1_555 1_555
H5_4 C17_4 1_555 1_555
C19_4 C20_4 1_555 1_555
C20_4 C16_4 1_555 1_555
H6_4 C20_4 1_555 1_555
C21_4 C19_4 1_555 1_555
H7_4 C21_4 1_555 1_555
C26_4 H11_4 1_555 1_555
H12_4 C26_4 1_555 1_555
C27_4 C6_4 1_555 1_555
H14_4 C27_4 1_555 1_555
C28_4 C11_4 1_555 1_555
H15_4 C28_4 1_555 1_555
C29_4 C1_4 1_555 1_555
H16_4 C29_4 1_555 1_555
C30_4 C12_4 1_555 1_555
H17_4 C30_4 1_555 1_555
C31_4 C15_4 1_555 1_555
H18_4 C31_4 1_555 1_555
C37_4 C43_4 1_555 1_555
C43_4 H31_4 1_555 1_555
H32_4 C43_4 1_555 1_555
H33_4 C43_4 1_555 1_555
C44_4 H34_4 1_555 1_555
H35_4 C44_4 1_555 1_555
H36_4 C44_4 1_555 1_555
O3_4 C37_4 1_555 1_555
O4_4 Mg15_2 1_555 1_555
O7_4 Mg19_4 1_555 1_555
O11_4 Mg12_3 1_555 1_555
O13_4 C5_4 1_555 1_555
O14_4 Mg4_4 1_555 1_555
O15_4 C8_4 1_555 1_555
O16_4 Mg4_4 1_555 1_555
N2_4 C26_4 1_555 1_555
Mg25 O13_4 1_555 1_555
C46_4 H37_4 1_555 1_555
C48_4 C46_4 1_555 1_555
H39_4 C48_4 1_555 1_555
C50_4 C55_4 1_555 1_555
C55_4 C48_4 1_555 1_555
C57_4 C58_4 1_555 1_555
C58_4 H43_4 1_555 1_555
H44_4 C58_4 1_555 1_555
H45_4 C58_4 1_555 1_555
C59_4 H46_4 1_555 1_555
H47_4 C59_4 1_555 1_555
H48_4 C59_4 1_555 1_555
C60_4 H49_4 1_555 1_555
H50_4 C60_4 1_555 1_555
H51_4 C60_4 1_555 1_555
O53 Mg4_4 1_555 1_555
O18_4 Mg25 1_555 1_555
O19_4 Mg4_4 1_555 1_555
N3_4 C57_4 1_555 1_555
C73_4 C74_4 1_555 1_555
C74_4 O29_4 1_555 1_555
C76_4 H58_4 1_555 1_555
C77_4 C81_4 1_555 1_555
C78_4 C80_4 1_555 1_555
C79_4 H59_4 1_555 1_555
C80_4 C76_4 1_555 1_555
C81_4 C79_4 1_555 1_555
C83_4 C73_4 1_555 1_555
H60_4 C83_4 1_555 1_555
C92_4 H65_4 1_555 1_555
H66_4 C92_4 1_555 1_555
H67_4 C92_4 1_555 1_555
C93_4 C76_4 1_555 1_555
H68_4 C93_4 1_555 1_555
C94_4 C81_4 1_555 1_555
H69_4 C94_4 1_555 1_555
C95_4 C73_4 1_555 1_555
H70_4 C95_4 1_555 1_555
C101_4 C103_4 1_555 1_555
C103_4 H82_4 1_555 1_555
H83_4 C103_4 1_555 1_555
H84_4 C103_4 1_555 1_555
C104_4 H85_4 1_555 1_555
H86_4 C104_4 1_555 1_555
H87_4 C104_4 1_555 1_555
O27_4 Mg19_3 1_555 1_555
O28_4 Mg16_2 1_555 1_555
O29_4 Mg16_2 1_555 1_555
O31_4 Mg19_3 1_555 1_555
O33_4 Mg12_3 1_555 1_555
O37_4 C78_4 1_555 1_555
N5_4 C92_4 1_555 1_555
C120_4 H100_4 1_555 1_555
H101_4 C120_4 1_555 1_555
H102_4 C120_4 1_555 1_555
O48_2 Mg16_2 1_555 1_555
O50_2 Mg19_3 1_555 1_555
Mg15_2 O11_4 1_555 1_555
Mg19_4 O11_4 1_555 1_555
C3_4 O7_4 1_555 1_555
C5_4 O14_4 1_555 1_555
C7_4 C13_4 1_555 1_555
C7_4 C27_4 1_555 1_555
C8_4 O16_4 1_555 1_555
C9_4 C10_4 1_555 1_555
C17_4 C30_4 1_555 1_555
C21_4 C31_4 1_555 1_555
C28_4 C29_4 1_555 1_555
C37_4 N2_4 1_555 1_555
C44_4 N2_4 1_555 1_555
O15_4 Mg25 1_555 1_555
C50_4 O19_4 1_555 1_555
C50_4 O58 1_555 1_555
C51_4 C55_4 1_555 1_555
C57_4 O18_4 1_555 1_555
C59_4 N3_4 1_555 1_555
C60_4 N3_4 1_555 1_555
Mg16_2 O33_4 1_555 1_555
Mg19_3 O33_4 1_555 1_555
C74_4 O31_4 1_555 1_555
C77_4 C83_4 1_555 1_555
C77_4 C93_4 1_555 1_555
C78_4 O38_4 1_555 1_555
C79_4 C80_4 1_555 1_555
C94_4 C95_4 1_555 1_555
C101_4 O28_4 1_555 1_555
C101_4 N5_4 1_555 1_555
C104_4 N5_4 1_555 1_555
Mg9_4 O34_4 1_555 1_555
C75_4 C82_4 1_555 1_555
C82_4 C84_4 1_555 1_555
C84_4 H61_4 1_555 1_555
C85_4 C84_4 1_555 1_555
C86_4 C85_4 1_555 1_555
C87_4 C86_4 1_555 1_555
H62_4 C87_4 1_555 1_555
C88_4 C89_4 1_555 1_555
C89_4 C90_4 1_555 1_555
C90_4 C86_4 1_555 1_555
H63_4 C90_4 1_555 1_555
C91_4 C89_4 1_555 1_555
H64_4 C91_4 1_555 1_555
C96_4 C82_4 1_555 1_555
H71_4 C96_4 1_555 1_555
C97_4 C85_4 1_555 1_555
H72_4 C97_4 1_555 1_555
O48_2 C88_4 1_555 1_555
O50_2 C88_4 1_555 1_555
O35_4 C75_4 1_555 1_555
O36_4 Mg9_4 1_555 1_555
Mg26 O35_4 1_555 1_555
C106_4 H88_4 1_555 1_555
C108_4 C106_4 1_555 1_555
H90_4 C108_4 1_555 1_555
C110_4 C115_4 1_555 1_555
C115_4 C108_4 1_555 1_555
C117_4 C118_4 1_555 1_555
C118_4 H94_4 1_555 1_555
H95_4 C118_4 1_555 1_555
H96_4 C118_4 1_555 1_555
C119_4 H97_4 1_555 1_555
H98_4 C119_4 1_555 1_555
H99_4 C119_4 1_555 1_555
O53_2 Mg9_4 1_555 1_555
O40_4 Mg26 1_555 1_555
O41_4 Mg9_4 1_555 1_555
O59 C110_4 1_555 1_555
N6_4 C117_4 1_555 1_555
C75_4 O36_4 1_555 1_555
C87_4 C96_4 1_555 1_555
C91_4 C97_4 1_555 1_555
C110_4 O41_4 1_555 1_555
C111_4 C115_4 1_555 1_555
C117_4 O40_4 1_555 1_555
C119_4 N6_4 1_555 1_555

#END
