
###############################################################################
#
# This file contains modified crystal structure data generated from the
# MOF subset of the Cambridge Structural Database (CSD) v543 
# hosted by the Cambridge Crystallographic Data Centre (CCDC).
#
# This work is licensed under the Creative Commons
# Attribution-NonCommercial-ShareAlike 4.0 International License.
# To view a copy of this license, visit
# http://creativecommons.org/licenses/by-nc-sa/4.0/
# or send a letter to
# Creative Commons, PO Box 1866, Mountain View, CA 94042, USA.
#
# CIF created using the CSD Python API on 29 September 2022
# The structure has been converted into the P1 space group
# The structure has a 3D framework
# The original CSD entry TAGVAB is in the trigonal crystal system
# The framework has been calculated to contain at least 10.0% void space
# The void calculation uses a probe of radius 1.32A, grid spacing 0.4
#
###############################################################################

data_TAGVAB
_chemical_formula_moiety         '(C228 H258 Mg18 N12 O90)n'
_symmetry_cell_setting           triclinic
_symmetry_space_group_name_H-M   'P 1'
_symmetry_Int_Tables_number      1
_space_group_name_Hall           'P 1'
loop_
_symmetry_equiv_pos_site_id
_symmetry_equiv_pos_as_xyz
1 x,y,z
_cell_length_a                   22.8104(2)
_cell_length_b                   22.8104(2)
_cell_length_c                   16.8099(2)
_cell_angle_alpha                90
_cell_angle_beta                 90
_cell_angle_gamma                120
_cell_volume                     7574.63
loop_
_atom_site_label
_atom_site_type_symbol
_atom_site_fract_x
_atom_site_fract_y
_atom_site_fract_z
Mg4 Mg 0.03828(10) 0.26518(10) 0.20670(11)
Mg3 Mg 0.70616(12) 0.10765(12) 0.7120(2)
C9 C 0.8168(4) 0.0983(4) 0.5112(4)
C10 C 0.8194(7) 0.1582(7) 0.4833(6)
H5 H 0.7970 0.1769 0.5102
C11 C 0.8568(6) 0.1887(6) 0.4141(5)
H6 H 0.8566 0.2264 0.3933
C12 C 0.8923(5) 0.1651(4) 0.3780(4)
C13 C 0.8876(3) 0.1061(3) 0.4029(4)
H7 H 0.9083 0.0868 0.3736
C14 C 0.8519(4) 0.0743(4) 0.4722(4)
H8 H 0.8524 0.0363 0.4915
C15 C 0.7761(4) 0.0692(4) 0.5824(5)
C16 C 0.9415(4) 0.1992(3) 0.3014(4)
C17 C 0.5466(4) 0.0488(5) 0.5406(8)
C18 C 0.5645(7) 0.1153(7) 0.5099(13)
H9 H 0.5979 0.1538 0.5351
C19 C 0.5319(9) 0.1219(7) 0.4425(12)
H10 H 0.5422 0.1644 0.4236
C20 C 0.4832(5) 0.0623(5) 0.4046(8)
C21 C 0.4572(6) 0.0005(6) 0.4338(8)
C23 C 0.5797(5) 0.0409(5) 0.6089(8)
C24 C 0.4457(4) 0.0715(5) 0.3306(5)
O5 O 0.7473(4) 0.0983(5) 0.6147(4)
O6 O 0.7813(3) 0.0210(3) 0.6081(2)
O7 O 0.9796(2) 0.1823(3) 0.2813(3)
O8 O 0.9408(3) 0.2515(3) 0.2719(3)
O9 O 0.6249(4) 0.0915(4) 0.6404(6)
O11 O 0.4606(4) 0.1285(4) 0.3112(6)
O12 O 0.4072(3) 0.0206(3) 0.2910(5)
O15 O 0.7786(5) 0.2042(5) 0.7241(14)
C37 C 0.8033(8) 0.2650(5) 0.7434(11)
H39 H 0.8000 0.2847 0.6936
H40 H 0.8509 0.2790 0.7479
C38 C 0.7981(10) 0.3079(16) 0.7983(14)
H41 H 0.8337 0.3535 0.7893
H42 H 0.8018 0.2942 0.8512
H43 H 0.7550 0.3054 0.7923
Mg8 Mg 0.89235(12) 0.29384(12) 0.2120(2)
Mg9 Mg 0.40149(17) 0.10765(12) 0.2120(2)
O18 O 0.8177(3) 0.0204(2) 0.7813(3)
O19 O 0.7485(3) 0.0592(3) 0.7719(3)
O20 O 0.6679(6) 0.1285(4) 0.8112(6)
O21 O 0.6134(4) 0.0206(3) 0.7910(5)
C1 C 0.6045(3) 0.7617(4) 0.0532(3)
C2 C 0.5543(4) 0.7768(4) 0.0297(5)
H1 H 0.5152 0.7613 0.0602
C6 C 0.6636(3) 0.7891(4) 0.0092(4)
H4 H 0.6976 0.7797 0.0230
C7 C 0.5940(4) 0.7188(3) 0.1240(4)
O1 O 0.6436(2) 0.7192(2) 0.1553(2)
O2 O 0.5342(2) 0.6839(2) 0.1493(3)
Mg5 Mg 0.73482(10) 0.77310(14) 0.20670(11)
Mg7 Mg 0.56031(11) 0.62864(16) 0.23232(11)
Mg1 Mg 0.73482(10) 0.96172(10) 0.70670(11)
Mg2 Mg 0.56031(11) 0.93167(11) 0.73232(11)
C3 C 0.5625(4) 0.8154(5) 0.9605(5)
H2 H 0.5281 0.8231 0.9437
C4 C 0.6223(3) 0.8415(4) 0.9182(4)
C5 C 0.6722(3) 0.8302(4) 0.9448(4)
H3 H 0.7137 0.8510 0.9186
C8 C 0.6309(4) 0.8795(4) 0.8405(4)
H11 H 0.4199 0.9637 0.4108
C22 C 0.4892(7) 0.9935(5) 0.5019(8)
H12 H 0.4723 0.9504 0.5232
O3 O 0.6861(2) 0.9082(3) 0.8085(2)
O4 O 0.5775(3) 0.8828(3) 0.8179(3)
O10 O 0.5530(3) 0.9820(4) 0.6395(4)
O13 O 0.7608(3) 0.8933(3) 0.6692(4)
N1 N 0.8211(7) 0.8468(7) 0.6407(6)
C25 C 0.7975(6) 0.8706(6) 0.6935(5)
C26 C 0.8145(7) 0.8751(7) 0.7803(6)
H13 H 0.7915 0.8942 0.8087
H14 H 0.8625 0.9033 0.7872
H15 H 0.8004 0.8306 0.8004
C27 C 0.7965(13) 0.8317(14) 0.5587(10)
H16 H 0.7499 0.8217 0.5558
H17 H 0.7987 0.7928 0.5390
C28 C 0.8426(16) 0.8948(16) 0.5094(13)
H18 H 0.8284 0.8869 0.4547
H19 H 0.8885 0.9043 0.5132
H20 H 0.8396 0.9326 0.5292
C29 C 0.8756(10) 0.8280(10) 0.6651(10)
H21 H 0.8687 0.7882 0.6362
H22 H 0.8726 0.8183 0.7216
C30 C 0.9491(11) 0.8922(15) 0.6438(12)
H23 H 0.9838 0.8821 0.6581
H24 H 0.9554 0.9311 0.6730
H25 H 0.9515 0.9013 0.5878
O14 O 0.4638(2) 0.8982(3) 0.7660(4)
N2 N 0.3516(4) 0.8524(4) 0.7908(5)
C31 C 0.4066(4) 0.8702(5) 0.7383(5)
C32 C 0.3948(4) 0.8585(8) 0.6530(7)
H26 H 0.4373 0.8744 0.6261
H27 H 0.3731 0.8825 0.6334
H28 H 0.3663 0.8110 0.6432
C33 C 0.3684(6) 0.8612(6) 0.8748(7)
H29 H 0.4133 0.9001 0.8814
H30 H 0.3367 0.8707 0.9025
C34 C 0.3668(11) 0.8007(12) 0.9128(10)
H31 H 0.3781 0.8098 0.9681
H32 H 0.3990 0.7917 0.8869
H33 H 0.3222 0.7621 0.9076
C35 C 0.2829(5) 0.8177(7) 0.7576(10)
H34 H 0.2523 0.7853 0.7963
H35 H 0.2823 0.7928 0.7106
C36 C 0.2570(7) 0.8659(8) 0.7353(11)
H36 H 0.2121 0.8403 0.7138
H37 H 0.2865 0.8976 0.6962
H38 H 0.2562 0.8899 0.7818
Mg6 Mg 0.37136(16) 0.93167(11) 0.23232(11)
O16 O 0.6436(2) 0.9244(3) 0.6553(2)
O17 O 0.5342(2) 0.8503(3) 0.6493(3)
C1_2 C 0.2383(4) 0.8428(5) 0.0532(3)
C2_2 C 0.2232(4) 0.7775(6) 0.0297(5)
H1_2 H 0.2387 0.7539 0.0602
C6_2 C 0.2109(4) 0.8745(5) 0.0092(4)
H4_2 H 0.2203 0.9179 0.0230
C7_2 C 0.2812(3) 0.8752(5) 0.1240(4)
O1_2 O 0.2808(2) 0.9244(3) 0.1553(2)
O2_2 O 0.3161(2) 0.8503(3) 0.1493(3)
Mg5_2 Mg 0.22690(14) 0.96172(17) 0.20670(11)
Mg1_2 Mg 0.03828(10) 0.77310(14) 0.70670(11)
Mg2_2 Mg 0.06833(11) 0.62864(16) 0.73232(11)
C3_2 C 0.1846(5) 0.7471(6) 0.9605(5)
H2_2 H 0.1769 0.7050 0.9437
C4_2 C 0.1585(4) 0.7808(5) 0.9182(4)
C5_2 C 0.1698(4) 0.8420(5) 0.9448(4)
H3_2 H 0.1490 0.8627 0.9186
C8_2 C 0.1205(4) 0.7514(6) 0.8405(4)
H11_2 H 0.0363 0.4562 0.4108
C22_2 C 0.0065(5) 0.4957(9) 0.5019(8)
H12_2 H 0.0496 0.5219 0.5232
O3_2 O 0.0918(3) 0.7779(4) 0.8085(2)
O4_2 O 0.1172(3) 0.6947(4) 0.8179(3)
O10_2 O 0.0180(4) 0.5710(5) 0.6395(4)
O13_2 O 0.1067(3) 0.8675(4) 0.6692(4)
N1_2 N 0.1532(7) 0.9743(10) 0.6407(6)
C25_2 C 0.1294(6) 0.9269(8) 0.6935(5)
C26_2 C 0.1249(7) 0.9394(10) 0.7803(6)
H13_2 H 0.1058 0.8973 0.8087
H14_2 H 0.0967 0.9592 0.7872
H15_2 H 0.1694 0.9698 0.8004
C27_2 C 0.1683(14) 0.9648(19) 0.5587(10)
H16_2 H 0.1783 0.9282 0.5558
C28_2 C 0.1052(16) 0.9478(23) 0.5094(13)
H18_2 H 0.1131 0.9415 0.4547
H19_2 H 0.0957 0.9842 0.5132
H20_2 H 0.0674 0.9070 0.5292
O14_2 O 0.1018(3) 0.5656(4) 0.7660(4)
N2_2 N 0.1476(4) 0.4992(6) 0.7908(5)
C31_2 C 0.1298(5) 0.5364(6) 0.7383(5)
C32_2 C 0.1415(8) 0.5363(9) 0.6530(7)
H26_2 H 0.1256 0.5629 0.6261
H27_2 H 0.1175 0.4906 0.6334
H28_2 H 0.1890 0.5553 0.6432
C33_2 C 0.1388(6) 0.5072(8) 0.8748(7)
H29_2 H 0.0999 0.5132 0.8814
H30_2 H 0.1293 0.4660 0.9025
C34_2 C 0.1993(12) 0.5661(16) 0.9128(10)
H31_2 H 0.1902 0.5683 0.9681
H32_2 H 0.2083 0.6073 0.8869
H33_2 H 0.2379 0.5601 0.9076
C35_2 C 0.1823(7) 0.4652(9) 0.7576(10)
H34_2 H 0.2147 0.4670 0.7963
H35_2 H 0.2072 0.4895 0.7106
C36_2 C 0.1341(8) 0.3911(11) 0.7353(11)
H36_2 H 0.1597 0.3718 0.7138
H37_2 H 0.1024 0.3889 0.6962
H38_2 H 0.1101 0.3663 0.7818
Mg6_2 Mg 0.06833(11) 0.43969(19) 0.23232(11)
O16_2 O 0.0756(3) 0.7192(4) 0.6553(2)
O17_2 O 0.1497(3) 0.6839(4) 0.6493(3)
Mg3_2 Mg 0.89235(12) 0.59851(17) 0.7120(2)
C9_2 C 0.9017(4) 0.7185(6) 0.5112(4)
C10_2 C 0.8418(7) 0.6612(10) 0.4833(6)
H5_2 H 0.8231 0.6201 0.5102
C11_2 C 0.8113(6) 0.6681(8) 0.4141(5)
H6_2 H 0.7736 0.6302 0.3933
C12_2 C 0.8349(4) 0.7272(6) 0.3780(4)
C13_2 C 0.8939(3) 0.7815(4) 0.4029(4)
H7_2 H 0.9132 0.8215 0.3736
C14_2 C 0.9257(4) 0.7776(6) 0.4722(4)
H8_2 H 0.9637 0.8161 0.4915
C15_2 C 0.9308(4) 0.7069(6) 0.5824(5)
C16_2 C 0.8008(3) 0.7423(5) 0.3014(4)
C17_2 C 0.9512(5) 0.4978(6) 0.5406(8)
C18_2 C 0.8847(7) 0.4492(10) 0.5099(13)
H9_2 H 0.8462 0.4441 0.5351
C19_2 C 0.8781(7) 0.4100(11) 0.4425(12)
H10_2 H 0.8356 0.3778 0.4236
C20_2 C 0.9377(5) 0.4209(7) 0.4046(8)
C21_2 C 0.9995(6) 0.4567(8) 0.4338(8)
C23_2 C 0.9591(5) 0.5388(7) 0.6089(8)
C24_2 C 0.9285(5) 0.3742(6) 0.3306(5)
O5_2 O 0.9017(5) 0.6490(6) 0.6147(4)
O6_2 O 0.9790(3) 0.7603(4) 0.6081(2)
O7_2 O 0.8177(3) 0.7973(4) 0.2813(3)
O8_2 O 0.7485(3) 0.6893(4) 0.2719(3)
O9_2 O 0.9085(4) 0.5334(6) 0.6404(6)
O11_2 O 0.8715(4) 0.3321(6) 0.3112(6)
O12_2 O 0.9794(3) 0.3866(4) 0.2910(5)
O15_2 O 0.7958(5) 0.5744(7) 0.7241(14)
C37_2 C 0.7350(5) 0.5383(9) 0.7434(11)
H39_2 H 0.7153 0.5153 0.6936
H40_2 H 0.7210 0.5719 0.7479
C38_2 C 0.6921(16) 0.4902(19) 0.7983(14)
H41_2 H 0.6465 0.4802 0.7893
H42_2 H 0.7058 0.5076 0.8512
H43_2 H 0.6946 0.4496 0.7923
Mg8_2 Mg 0.70616(12) 0.59851(17) 0.2120(2)
O18_2 O 0.9796(2) 0.7973(4) 0.7813(3)
O19_2 O 0.9408(3) 0.6893(4) 0.7719(3)
O20_2 O 0.8715(4) 0.5394(7) 0.8112(6)
O21_2 O 0.9794(3) 0.5928(5) 0.7910(5)
C1_3 C 0.1572(5) 0.3955(3) 0.0532(3)
C2_3 C 0.2225(6) 0.4457(4) 0.0297(5)
H1_3 H 0.2461 0.4848 0.0602
C6_3 C 0.1255(5) 0.3364(3) 0.0092(4)
H4_3 H 0.0821 0.3024 0.0230
C7_3 C 0.1248(5) 0.4060(4) 0.1240(4)
O1_3 O 0.0756(3) 0.3564(2) 0.1553(2)
O2_3 O 0.1497(3) 0.4658(2) 0.1493(3)
Mg1_3 Mg 0.22690(14) 0.26518(10) 0.70670(11)
Mg2_3 Mg 0.37136(16) 0.43969(11) 0.73232(11)
Mg3_3 Mg 0.40149(17) 0.29384(12) 0.7120(2)
C3_3 C 0.2529(6) 0.4375(4) 0.9605(5)
H2_3 H 0.2950 0.4719 0.9437
C4_3 C 0.2192(5) 0.3777(3) 0.9182(4)
C5_3 C 0.1580(5) 0.3278(3) 0.9448(4)
H3_3 H 0.1373 0.2863 0.9186
C8_3 C 0.2486(6) 0.3691(4) 0.8405(4)
C9_3 C 0.2815(6) 0.1832(4) 0.5112(4)
C10_3 C 0.3388(10) 0.1806(7) 0.4833(6)
H5_3 H 0.3799 0.2030 0.5102
C11_3 C 0.3319(8) 0.1432(6) 0.4141(5)
H6_3 H 0.3698 0.1434 0.3933
C12_3 C 0.2728(6) 0.1077(5) 0.3780(4)
C13_3 C 0.2185(4) 0.1124(3) 0.4029(4)
H7_3 H 0.1785 0.0917 0.3736
C14_3 C 0.2224(6) 0.1481(4) 0.4722(4)
H8_3 H 0.1839 0.1476 0.4915
C15_3 C 0.2931(6) 0.2239(4) 0.5824(5)
C16_3 C 0.2577(5) 0.0585(4) 0.3014(4)
C17_3 C 0.5022(6) 0.4534(4) 0.5406(8)
C18_3 C 0.5508(10) 0.4355(7) 0.5099(13)
H9_3 H 0.5559 0.4021 0.5351
C19_3 C 0.5900(11) 0.4681(9) 0.4425(12)
H10_3 H 0.6222 0.4578 0.4236
C20_3 C 0.5791(7) 0.5168(5) 0.4046(8)
C21_3 C 0.5433(8) 0.5428(6) 0.4338(8)
H11_3 H 0.5438 0.5801 0.4108
C22_3 C 0.5043(9) 0.5108(7) 0.5019(8)
H12_3 H 0.4781 0.5277 0.5232
C23_3 C 0.4612(7) 0.4203(5) 0.6089(8)
C24_3 C 0.6258(6) 0.5543(4) 0.3306(5)
O3_3 O 0.2221(4) 0.3139(2) 0.8085(2)
O4_3 O 0.3053(4) 0.4225(3) 0.8179(3)
O5_3 O 0.3510(6) 0.2527(4) 0.6147(4)
O6_3 O 0.2397(4) 0.2187(3) 0.6081(2)
O7_3 O 0.2027(4) 0.0204(2) 0.2813(3)
O8_3 O 0.3107(4) 0.0592(3) 0.2719(3)
O9_3 O 0.4666(6) 0.3751(4) 0.6404(6)
O10_3 O 0.4290(5) 0.4470(3) 0.6395(4)
O11_3 O 0.6679(6) 0.5394(4) 0.3112(6)
O12_3 O 0.6134(4) 0.5928(3) 0.2910(5)
O13_3 O 0.1325(4) 0.2392(3) 0.6692(4)
N1_3 N 0.0257(10) 0.1789(7) 0.6407(6)
C25_3 C 0.0731(8) 0.2025(6) 0.6935(5)
C26_3 C 0.0606(10) 0.1855(7) 0.7803(6)
H13_3 H 0.1027 0.2085 0.8087
H14_3 H 0.0408 0.1375 0.7872
H15_3 H 0.0302 0.1996 0.8004
C27_3 C 0.0352(19) 0.2035(13) 0.5587(10)
H16_3 H 0.0718 0.2501 0.5558
C28_3 C 0.0522(23) 0.1574(16) 0.5094(13)
H18_3 H 0.0585 0.1716 0.4547
H19_3 H 0.0158 0.1115 0.5132
H20_3 H 0.0930 0.1604 0.5292
O14_3 O 0.4344(4) 0.5362(2) 0.7660(4)
N2_3 N 0.5008(6) 0.6484(4) 0.7908(5)
C31_3 C 0.4636(6) 0.5934(4) 0.7383(5)
C32_3 C 0.4637(9) 0.6052(4) 0.6530(7)
H26_3 H 0.4371 0.5627 0.6261
H27_3 H 0.5094 0.6269 0.6334
H28_3 H 0.4447 0.6337 0.6432
C33_3 C 0.4928(8) 0.6316(6) 0.8748(7)
H29_3 H 0.4868 0.5867 0.8814
H30_3 H 0.5340 0.6633 0.9025
C34_3 C 0.4339(16) 0.6332(11) 0.9128(10)
H31_3 H 0.4317 0.6219 0.9681
H32_3 H 0.3927 0.6010 0.8869
H33_3 H 0.4399 0.6778 0.9076
C35_3 C 0.5348(9) 0.7171(5) 0.7576(10)
H34_3 H 0.5330 0.7477 0.7963
H35_3 H 0.5105 0.7177 0.7106
C36_3 C 0.6089(11) 0.7430(7) 0.7353(11)
H36_3 H 0.6282 0.7879 0.7138
H37_3 H 0.6111 0.7135 0.6962
H38_3 H 0.6337 0.7438 0.7818
O15_3 O 0.4256(7) 0.2214(5) 0.7241(14)
C37_3 C 0.4617(9) 0.1967(8) 0.7434(11)
H39_3 H 0.4847 0.2000 0.6936
H40_3 H 0.4281 0.1491 0.7479
C38_3 C 0.5098(19) 0.2019(10) 0.7983(14)
H41_3 H 0.5198 0.1663 0.7893
H42_3 H 0.4924 0.1982 0.8512
H43_3 H 0.5504 0.2450 0.7923
O16_3 O 0.2808(4) 0.3564(2) 0.6553(2)
O17_3 O 0.3161(4) 0.4658(2) 0.6493(3)
O18_3 O 0.2027(4) 0.1823(3) 0.7813(3)
O19_3 O 0.3107(4) 0.2515(3) 0.7719(3)
O20_3 O 0.4606(7) 0.3321(6) 0.8112(6)
O21_3 O 0.4072(5) 0.3866(4) 0.7910(5)
C1_4 C 0.2383(4) 0.3955(3) 0.5532(3)
C2_4 C 0.2232(4) 0.4457(4) 0.5297(5)
H1_4 H 0.2387 0.4848 0.5602
C3_4 C 0.1846(5) 0.4375(4) 0.4605(5)
H2_4 H 0.1769 0.4719 0.4437
C4_4 C 0.1585(4) 0.3777(3) 0.4182(4)
C5_4 C 0.1698(4) 0.3278(3) 0.4448(4)
H3_4 H 0.1490 0.2863 0.4186
C6_4 C 0.2109(4) 0.3364(3) 0.5092(4)
H4_4 H 0.2203 0.3024 0.5230
C7_4 C 0.2812(3) 0.4060(4) 0.6240(4)
C8_4 C 0.1205(4) 0.3691(4) 0.3405(4)
C22_4 C 0.0065(5) 0.5108(7) 0.0019(8)
H12_4 H 0.0496 0.5277 0.0232
O3_4 O 0.0918(3) 0.3139(2) 0.3085(2)
O4_4 O 0.1172(3) 0.4225(3) 0.3179(3)
O10_4 O 0.0180(4) 0.4470(3) 0.1395(4)
O13_4 O 0.1067(3) 0.2392(3) 0.1692(4)
N1_4 N 0.1532(7) 0.1789(7) 0.1407(6)
C25_4 C 0.1294(6) 0.2025(6) 0.1935(5)
C26_4 C 0.1249(7) 0.1855(7) 0.2803(6)
H13_4 H 0.1058 0.2085 0.3087
H14_4 H 0.0967 0.1375 0.2872
H15_4 H 0.1694 0.1996 0.3004
C27_4 C 0.1683(14) 0.2035(13) 0.0587(10)
H16_4 H 0.1783 0.2501 0.0558
H17_2 H 0.2072 0.2013 0.0390
C28_4 C 0.1052(16) 0.1574(16) 0.0094(13)
H19_4 H 0.0957 0.1115 0.0132
H20_4 H 0.0674 0.1604 0.0292
C29_2 C 0.1720(10) 0.1244(10) 0.1651(10)
H21_2 H 0.2118 0.1313 0.1362
H22_2 H 0.1817 0.1274 0.2216
C30_2 C 0.1078(15) 0.0509(11) 0.1438(12)
H23_2 H 0.1179 0.0162 0.1581
H24_2 H 0.0689 0.0446 0.1730
H25_2 H 0.0987 0.0485 0.0878
O14_4 O 0.1018(3) 0.5362(2) 0.2660(4)
N2_4 N 0.1476(4) 0.6484(4) 0.2908(5)
C31_4 C 0.1298(5) 0.5934(4) 0.2383(5)
C32_4 C 0.1415(8) 0.6052(4) 0.1530(7)
H26_4 H 0.1256 0.5627 0.1261
H27_4 H 0.1175 0.6269 0.1334
H28_4 H 0.1890 0.6337 0.1432
C33_4 C 0.1388(6) 0.6316(6) 0.3748(7)
H29_4 H 0.0999 0.5867 0.3814
H30_4 H 0.1293 0.6633 0.4025
C34_4 C 0.1993(12) 0.6332(11) 0.4128(10)
H31_4 H 0.1902 0.6219 0.4681
H32_4 H 0.2083 0.6010 0.3869
H33_4 H 0.2379 0.6778 0.4076
C35_4 C 0.1823(7) 0.7171(5) 0.2576(10)
H34_4 H 0.2147 0.7477 0.2963
H35_4 H 0.2072 0.7177 0.2106
C36_4 C 0.1341(8) 0.7430(7) 0.2353(11)
H36_4 H 0.1597 0.7879 0.2138
H37_4 H 0.1024 0.7135 0.1962
H38_4 H 0.1101 0.7438 0.2818
H11_4 H 0.0363 0.5801 0.9108
H18_4 H 0.1131 0.1716 0.9547
C9_4 C 0.9017(4) 0.1832(4) 0.0112(4)
H5_4 H 0.8231 0.2030 0.0102
C15_4 C 0.9308(4) 0.2239(4) 0.0824(5)
C17_4 C 0.9512(5) 0.4534(4) 0.0406(8)
C18_4 C 0.8847(7) 0.4355(7) 0.0099(13)
H9_4 H 0.8462 0.4021 0.0351
C23_4 C 0.9591(5) 0.4203(5) 0.1089(8)
O5_4 O 0.9017(5) 0.2527(4) 0.1147(4)
O6_4 O 0.9790(3) 0.2187(3) 0.1081(2)
O9_4 O 0.9085(4) 0.3751(4) 0.1404(6)
O15_4 O 0.7958(5) 0.2214(5) 0.2241(14)
C37_4 C 0.7350(5) 0.1967(8) 0.2434(11)
H39_4 H 0.7153 0.2000 0.1936
H40_4 H 0.7210 0.1491 0.2479
C38_4 C 0.6921(16) 0.2019(10) 0.2983(14)
H41_4 H 0.6465 0.1663 0.2893
H42_4 H 0.7058 0.1982 0.3512
H43_4 H 0.6946 0.2450 0.2923
C10_4 C 0.8418(7) 0.1806(7) 0.9833(6)
C11_4 C 0.8113(6) 0.1432(6) 0.9141(5)
H6_4 H 0.7736 0.1434 0.8933
C12_4 C 0.8349(4) 0.1077(5) 0.8780(4)
C13_4 C 0.8939(3) 0.1124(3) 0.9029(4)
H7_4 H 0.9132 0.0917 0.8736
C14_4 C 0.9257(4) 0.1481(4) 0.9722(4)
H8_4 H 0.9637 0.1476 0.9915
C16_4 C 0.8008(3) 0.0585(4) 0.8014(4)
C19_4 C 0.8781(7) 0.4681(9) 0.9425(12)
H10_4 H 0.8356 0.4578 0.9236
C20_4 C 0.9377(5) 0.5168(5) 0.9046(8)
C21_4 C 0.9995(6) 0.5428(6) 0.9338(8)
C24_4 C 0.9285(5) 0.5543(4) 0.8306(5)
C9_5 C 0.2815(6) 0.0983(4) 0.0112(4)
H5_5 H 0.3799 0.1769 0.0102
C15_5 C 0.2931(6) 0.0692(4) 0.0824(5)
C17_5 C 0.5022(6) 0.0488(5) 0.0406(8)
C18_5 C 0.5508(10) 0.1153(7) 0.0099(13)
H9_5 H 0.5559 0.1538 0.0351
C23_5 C 0.4612(7) 0.0409(5) 0.1089(8)
O5_5 O 0.3510(6) 0.0983(5) 0.1147(4)
O6_5 O 0.2397(4) 0.0210(3) 0.1081(2)
O9_5 O 0.4666(6) 0.0915(4) 0.1404(6)
O15_5 O 0.4256(7) 0.2042(5) 0.2241(14)
C37_5 C 0.4617(9) 0.2650(5) 0.2434(11)
H39_5 H 0.4847 0.2847 0.1936
H40_5 H 0.4281 0.2790 0.2479
C38_5 C 0.5098(19) 0.3079(16) 0.2983(14)
H41_5 H 0.5198 0.3535 0.2893
H42_5 H 0.4924 0.2942 0.3512
H43_5 H 0.5504 0.3054 0.2923
C10_5 C 0.3388(10) 0.1582(7) 0.9833(6)
C11_5 C 0.3319(8) 0.1887(6) 0.9141(5)
H6_5 H 0.3698 0.2264 0.8933
C12_5 C 0.2728(6) 0.1651(4) 0.8780(4)
C13_5 C 0.2185(4) 0.1061(3) 0.9029(4)
H7_5 H 0.1785 0.0868 0.8736
C14_5 C 0.2224(6) 0.0743(4) 0.9722(4)
H8_5 H 0.1839 0.0363 0.9915
C16_5 C 0.2577(5) 0.1992(3) 0.8014(4)
C19_5 C 0.5900(11) 0.1219(7) 0.9425(12)
H10_5 H 0.6222 0.1644 0.9236
C20_5 C 0.5791(7) 0.0623(5) 0.9046(8)
C21_5 C 0.5433(8) 0.0005(6) 0.9338(8)
C24_5 C 0.6258(6) 0.0715(5) 0.8306(5)
C1_5 C 0.1572(5) 0.7617(4) 0.5532(3)
C2_5 C 0.2225(6) 0.7768(4) 0.5297(5)
H1_5 H 0.2461 0.7613 0.5602
C3_5 C 0.2529(6) 0.8154(5) 0.4605(5)
H2_5 H 0.2950 0.8231 0.4437
C4_5 C 0.2192(5) 0.8415(4) 0.4182(4)
C5_5 C 0.1580(5) 0.8302(4) 0.4448(4)
H3_5 H 0.1373 0.8510 0.4186
C6_5 C 0.1255(5) 0.7891(4) 0.5092(4)
H4_5 H 0.0821 0.7797 0.5230
C7_5 C 0.1248(5) 0.7188(3) 0.6240(4)
C8_5 C 0.2486(6) 0.8795(4) 0.3405(4)
C22_5 C 0.5043(9) 0.9935(5) 0.0019(8)
H12_5 H 0.4781 0.9504 0.0232
O3_5 O 0.2221(4) 0.9082(3) 0.3085(2)
O4_5 O 0.3053(4) 0.8828(3) 0.3179(3)
O10_5 O 0.4290(5) 0.9820(4) 0.1395(4)
O13_5 O 0.1325(4) 0.8933(3) 0.1692(4)
N1_5 N 0.0257(10) 0.8468(7) 0.1407(6)
C25_5 C 0.0731(8) 0.8706(6) 0.1935(5)
C26_5 C 0.0606(10) 0.8751(7) 0.2803(6)
H13_5 H 0.1027 0.8942 0.3087
H14_5 H 0.0408 0.9033 0.2872
H15_5 H 0.0302 0.8306 0.3004
C27_5 C 0.0352(19) 0.8317(14) 0.0587(10)
H16_5 H 0.0718 0.8217 0.0558
C28_5 C 0.0522(23) 0.8948(16) 0.0094(13)
H19_5 H 0.0158 0.9043 0.0132
H20_5 H 0.0930 0.9326 0.0292
O14_5 O 0.4344(4) 0.8982(3) 0.2660(4)
N2_5 N 0.5008(6) 0.8524(4) 0.2908(5)
C31_5 C 0.4636(6) 0.8702(5) 0.2383(5)
C32_5 C 0.4637(9) 0.8585(8) 0.1530(7)
H26_5 H 0.4371 0.8744 0.1261
H27_5 H 0.5094 0.8825 0.1334
H28_5 H 0.4447 0.8110 0.1432
C33_5 C 0.4928(8) 0.8612(6) 0.3748(7)
H29_5 H 0.4868 0.9001 0.3814
H30_5 H 0.5340 0.8707 0.4025
C34_5 C 0.4339(16) 0.8007(12) 0.4128(10)
H31_5 H 0.4317 0.8098 0.4681
H32_5 H 0.3927 0.7917 0.3869
H33_5 H 0.4399 0.7621 0.4076
C35_5 C 0.5348(9) 0.8177(7) 0.2576(10)
H34_5 H 0.5330 0.7853 0.2963
H35_5 H 0.5105 0.7928 0.2106
C36_5 C 0.6089(11) 0.8659(8) 0.2353(11)
H36_5 H 0.6282 0.8403 0.2138
H37_5 H 0.6111 0.8976 0.1962
H38_5 H 0.6337 0.8899 0.2818
H11_5 H 0.5438 0.9637 0.9108
H18_5 H 0.0585 0.8869 0.9547
C1_6 C 0.6045(3) 0.8428(5) 0.5532(3)
C2_6 C 0.5543(4) 0.7775(6) 0.5297(5)
H1_6 H 0.5152 0.7539 0.5602
C3_6 C 0.5625(4) 0.7471(6) 0.4605(5)
H2_6 H 0.5281 0.7050 0.4437
C4_6 C 0.6223(3) 0.7808(5) 0.4182(4)
C5_6 C 0.6722(3) 0.8420(5) 0.4448(4)
H3_6 H 0.7137 0.8627 0.4186
C6_6 C 0.6636(3) 0.8745(5) 0.5092(4)
H4_6 H 0.6976 0.9179 0.5230
C7_6 C 0.5940(4) 0.8752(5) 0.6240(4)
C8_6 C 0.6309(4) 0.7514(6) 0.3405(4)
C9_6 C 0.8168(4) 0.7185(6) 0.0112(4)
H5_6 H 0.7970 0.6201 0.0102
C15_6 C 0.7761(4) 0.7069(6) 0.0824(5)
C17_6 C 0.5466(4) 0.4978(6) 0.0406(8)
C18_6 C 0.5645(7) 0.4492(10) 0.0099(13)
H9_6 H 0.5979 0.4441 0.0351
C22_6 C 0.4892(7) 0.4957(9) 0.0019(8)
H12_6 H 0.4723 0.5219 0.0232
C23_6 C 0.5797(5) 0.5388(7) 0.1089(8)
O3_6 O 0.6861(2) 0.7779(4) 0.3085(2)
O4_6 O 0.5775(3) 0.6947(4) 0.3179(3)
O5_6 O 0.7473(4) 0.6490(6) 0.1147(4)
O6_6 O 0.7813(3) 0.7603(4) 0.1081(2)
O9_6 O 0.6249(4) 0.5334(6) 0.1404(6)
O10_6 O 0.5530(3) 0.5710(5) 0.1395(4)
O13_6 O 0.7608(3) 0.8675(4) 0.1692(4)
N1_6 N 0.8211(7) 0.9743(10) 0.1407(6)
C25_6 C 0.7975(6) 0.9269(8) 0.1935(5)
C26_6 C 0.8145(7) 0.9394(10) 0.2803(6)
H13_6 H 0.7915 0.8973 0.3087
H14_6 H 0.8625 0.9592 0.2872
H15_6 H 0.8004 0.9698 0.3004
C27_6 C 0.7965(13) 0.9648(19) 0.0587(10)
H16_6 H 0.7499 0.9282 0.0558
C28_6 C 0.8426(16) 0.9478(23) 0.0094(13)
H19_6 H 0.8885 0.9842 0.0132
H20_6 H 0.8396 0.9070 0.0292
O14_6 O 0.4638(2) 0.5656(4) 0.2660(4)
N2_6 N 0.3516(4) 0.4992(6) 0.2908(5)
C31_6 C 0.4066(4) 0.5364(6) 0.2383(5)
C32_6 C 0.3948(4) 0.5363(9) 0.1530(7)
H26_6 H 0.4373 0.5629 0.1261
H27_6 H 0.3731 0.4906 0.1334
H28_6 H 0.3663 0.5553 0.1432
C33_6 C 0.3684(6) 0.5072(8) 0.3748(7)
H29_6 H 0.4133 0.5132 0.3814
H30_6 H 0.3367 0.4660 0.4025
C34_6 C 0.3668(11) 0.5661(16) 0.4128(10)
H31_6 H 0.3781 0.5683 0.4681
H32_6 H 0.3990 0.6073 0.3869
H33_6 H 0.3222 0.5601 0.4076
C35_6 C 0.2829(5) 0.4652(9) 0.2576(10)
H34_6 H 0.2523 0.4670 0.2963
H35_6 H 0.2823 0.4895 0.2106
C36_6 C 0.2570(7) 0.3911(11) 0.2353(11)
H36_6 H 0.2121 0.3718 0.2138
H37_6 H 0.2865 0.3889 0.1962
H38_6 H 0.2562 0.3663 0.2818
O15_6 O 0.7786(5) 0.5744(7) 0.2241(14)
C37_6 C 0.8033(8) 0.5383(9) 0.2434(11)
H39_6 H 0.8000 0.5153 0.1936
H40_6 H 0.8509 0.5719 0.2479
C38_6 C 0.7981(10) 0.4902(19) 0.2983(14)
H41_6 H 0.8337 0.4802 0.2893
H42_6 H 0.8018 0.5076 0.3512
H43_6 H 0.7550 0.4496 0.2923
C10_6 C 0.8194(7) 0.6612(10) 0.9833(6)
C11_6 C 0.8568(6) 0.6681(8) 0.9141(5)
H6_6 H 0.8566 0.6302 0.8933
C12_6 C 0.8923(5) 0.7272(6) 0.8780(4)
C13_6 C 0.8876(3) 0.7815(4) 0.9029(4)
H7_6 H 0.9083 0.8215 0.8736
C14_6 C 0.8519(4) 0.7776(6) 0.9722(4)
H8_6 H 0.8524 0.8161 0.9915
C16_6 C 0.9415(4) 0.7423(5) 0.8014(4)
C19_6 C 0.5319(9) 0.4100(11) 0.9425(12)
H10_6 H 0.5422 0.3778 0.9236
C20_6 C 0.4832(5) 0.4209(7) 0.9046(8)
C21_6 C 0.4572(6) 0.4567(8) 0.9338(8)
H11_6 H 0.4199 0.4562 0.9108
C24_6 C 0.4457(4) 0.3742(6) 0.8306(5)
H18_6 H 0.8284 0.9415 0.9547
H17_3 H 0.2072 0.0059 0.5390
C29_3 C 0.1720(10) 0.0476(14) 0.6651(10)
H21_3 H 0.2118 0.0805 0.6362
H22_3 H 0.1817 0.0543 0.7216
C30_3 C 0.1078(15) 0.0569(19) 0.6438(12)
H23_3 H 0.1179 0.1017 0.6581
H24_3 H 0.0689 0.0243 0.6730
H25_3 H 0.0987 0.0502 0.5878
H17_4 H 0.9941 0.2013 0.5390
C29_4 C 0.9524(14) 0.1244(10) 0.6651(10)
H21_4 H 0.9195 0.1313 0.6362
H22_4 H 0.9457 0.1274 0.7216
C30_4 C 0.9431(19) 0.0509(11) 0.6438(12)
H23_4 H 0.8983 0.0162 0.6581
H24_4 H 0.9757 0.0446 0.6730
H25_4 H 0.9498 0.0485 0.5878
H17_5 H 0.9941 0.7928 0.0390
C29_5 C 0.9524(14) 0.8280(10) 0.1651(10)
H21_5 H 0.9195 0.7882 0.1362
H22_5 H 0.9457 0.8183 0.2216
C30_5 C 0.9431(19) 0.8922(15) 0.1438(12)
H23_5 H 0.8983 0.8821 0.1581
H24_5 H 0.9757 0.9311 0.1730
H25_5 H 0.9498 0.9013 0.0878
H17_6 H 0.7987 0.0059 0.0390
C29_6 C 0.8756(10) 0.0476(14) 0.1651(10)
H21_6 H 0.8687 0.0805 0.1362
H22_6 H 0.8726 0.0543 0.2216
C30_6 C 0.9491(11) 0.0569(19) 0.1438(12)
H23_6 H 0.9838 0.1017 0.1581
H24_6 H 0.9554 0.0243 0.1730
H25_6 H 0.9515 0.0502 0.0878
loop_
_geom_bond_atom_site_label_1
_geom_bond_atom_site_label_2
_geom_bond_site_symmetry_1
_geom_bond_site_symmetry_2
Mg3 O5 1_555 1_555
C9 C10 1_555 1_555
C10 H5 1_555 1_555
C11 C10 1_555 1_555
H6 C11 1_555 1_555
C12 C11 1_555 1_555
C13 C12 1_555 1_555
H7 C13 1_555 1_555
C14 C9 1_555 1_555
H8 C14 1_555 1_555
C15 C9 1_555 1_555
C16 C12 1_555 1_555
C17 C18 1_555 1_555
C18 H9 1_555 1_555
C19 C18 1_555 1_555
H10 C19 1_555 1_555
C20 C19 1_555 1_555
C21 C20 1_555 1_555
C23 C17 1_555 1_555
C24 C20 1_555 1_555
O5 C15 1_555 1_555
O7 C16 1_555 1_555
O8 C16 1_555 1_555
O9 Mg3 1_555 1_555
O11 C24 1_555 1_555
O12 C24 1_555 1_555
O15 Mg3 1_555 1_555
C37 O15 1_555 1_555
H39 C37 1_555 1_555
H40 C37 1_555 1_555
C38 C37 1_555 1_555
H41 C38 1_555 1_555
H42 C38 1_555 1_555
H43 C38 1_555 1_555
Mg8 O8 1_555 1_555
Mg9 O11 1_555 1_555
O20 Mg3 1_555 1_555
Mg3 O19 1_555 1_555
C13 C14 1_555 1_555
C15 O6 1_555 1_555
C23 O9 1_555 1_555
C1 C2 1_555 1_555
C2 H1 1_555 1_555
C6 C1 1_555 1_555
H4 C6 1_555 1_555
C7 C1 1_555 1_555
O1 C7 1_555 1_555
O2 C7 1_555 1_555
Mg5 O1 1_555 1_555
Mg7 O1 1_555 1_555
O2 Mg7 1_555 1_555
Mg1 O3 1_555 1_555
Mg2 O4 1_555 1_555
H2 C3 1_555 1_555
C4 C3 1_555 1_555
C5 C4 1_555 1_555
H3 C5 1_555 1_555
C8 C4 1_555 1_555
H12 C22 1_555 1_555
O3 C8 1_555 1_555
O4 C8 1_555 1_555
O10 Mg2 1_555 1_555
O13 Mg1 1_555 1_555
N1 C25 1_555 1_555
C25 O13 1_555 1_555
C26 C25 1_555 1_555
H13 C26 1_555 1_555
H14 C26 1_555 1_555
H15 C26 1_555 1_555
C27 N1 1_555 1_555
H16 C27 1_555 1_555
H17 C27 1_555 1_555
C28 C27 1_555 1_555
H18 C28 1_555 1_555
H19 C28 1_555 1_555
H20 C28 1_555 1_555
C29 N1 1_555 1_555
H21 C29 1_555 1_555
H22 C29 1_555 1_555
C30 C29 1_555 1_555
H23 C30 1_555 1_555
H24 C30 1_555 1_555
H25 C30 1_555 1_555
O14 Mg2 1_555 1_555
N2 C31 1_555 1_555
C31 O14 1_555 1_555
C32 C31 1_555 1_555
H26 C32 1_555 1_555
H27 C32 1_555 1_555
H28 C32 1_555 1_555
C33 N2 1_555 1_555
H29 C33 1_555 1_555
H30 C33 1_555 1_555
C34 C33 1_555 1_555
H31 C34 1_555 1_555
H32 C34 1_555 1_555
H33 C34 1_555 1_555
C35 N2 1_555 1_555
H34 C35 1_555 1_555
H35 C35 1_555 1_555
C36 C35 1_555 1_555
H36 C36 1_555 1_555
H37 C36 1_555 1_555
H38 C36 1_555 1_555
O16 Mg1 1_555 1_555
O17 Mg2 1_555 1_555
Mg2 O16 1_555 1_555
C1_2 C2_2 1_555 1_555
C2_2 H1_2 1_555 1_555
C6_2 C1_2 1_555 1_555
H4_2 C6_2 1_555 1_555
C7_2 C1_2 1_555 1_555
O1_2 C7_2 1_555 1_555
O2_2 C7_2 1_555 1_555
Mg5_2 O1_2 1_555 1_555
Mg6 O1_2 1_555 1_555
O2_2 Mg6 1_555 1_555
Mg1_2 O3_2 1_555 1_555
Mg2_2 O4_2 1_555 1_555
H2_2 C3_2 1_555 1_555
C4_2 C3_2 1_555 1_555
C5_2 C4_2 1_555 1_555
H3_2 C5_2 1_555 1_555
C8_2 C4_2 1_555 1_555
H12_2 C22_2 1_555 1_555
O3_2 C8_2 1_555 1_555
O4_2 C8_2 1_555 1_555
O10_2 Mg2_2 1_555 1_555
O13_2 Mg1_2 1_555 1_555
N1_2 C25_2 1_555 1_555
C25_2 O13_2 1_555 1_555
C26_2 C25_2 1_555 1_555
H13_2 C26_2 1_555 1_555
H14_2 C26_2 1_555 1_555
H15_2 C26_2 1_555 1_555
C27_2 N1_2 1_555 1_555
H16_2 C27_2 1_555 1_555
C28_2 C27_2 1_555 1_555
H18_2 C28_2 1_555 1_555
H19_2 C28_2 1_555 1_555
H20_2 C28_2 1_555 1_555
O14_2 Mg2_2 1_555 1_555
N2_2 C31_2 1_555 1_555
C31_2 O14_2 1_555 1_555
C32_2 C31_2 1_555 1_555
H26_2 C32_2 1_555 1_555
H27_2 C32_2 1_555 1_555
H28_2 C32_2 1_555 1_555
C33_2 N2_2 1_555 1_555
H29_2 C33_2 1_555 1_555
H30_2 C33_2 1_555 1_555
C34_2 C33_2 1_555 1_555
H31_2 C34_2 1_555 1_555
H32_2 C34_2 1_555 1_555
H33_2 C34_2 1_555 1_555
C35_2 N2_2 1_555 1_555
H34_2 C35_2 1_555 1_555
H35_2 C35_2 1_555 1_555
C36_2 C35_2 1_555 1_555
H36_2 C36_2 1_555 1_555
H37_2 C36_2 1_555 1_555
H38_2 C36_2 1_555 1_555
O16_2 Mg1_2 1_555 1_555
O17_2 Mg2_2 1_555 1_555
Mg2_2 O16_2 1_555 1_555
Mg3_2 O5_2 1_555 1_555
C9_2 C10_2 1_555 1_555
C10_2 H5_2 1_555 1_555
C11_2 C10_2 1_555 1_555
H6_2 C11_2 1_555 1_555
C12_2 C11_2 1_555 1_555
C13_2 C12_2 1_555 1_555
H7_2 C13_2 1_555 1_555
C14_2 C9_2 1_555 1_555
H8_2 C14_2 1_555 1_555
C15_2 C9_2 1_555 1_555
C16_2 C12_2 1_555 1_555
C17_2 C18_2 1_555 1_555
C18_2 H9_2 1_555 1_555
C19_2 C18_2 1_555 1_555
H10_2 C19_2 1_555 1_555
C20_2 C19_2 1_555 1_555
C21_2 C20_2 1_555 1_555
C23_2 C17_2 1_555 1_555
C24_2 C20_2 1_555 1_555
O5_2 C15_2 1_555 1_555
O7_2 C16_2 1_555 1_555
O8_2 C16_2 1_555 1_555
O9_2 Mg3_2 1_555 1_555
O11_2 C24_2 1_555 1_555
O12_2 C24_2 1_555 1_555
O15_2 Mg3_2 1_555 1_555
C37_2 O15_2 1_555 1_555
H39_2 C37_2 1_555 1_555
H40_2 C37_2 1_555 1_555
C38_2 C37_2 1_555 1_555
H41_2 C38_2 1_555 1_555
H42_2 C38_2 1_555 1_555
H43_2 C38_2 1_555 1_555
Mg5 O7_2 1_555 1_555
Mg8_2 O8_2 1_555 1_555
Mg8 O11_2 1_555 1_555
O20_2 Mg3_2 1_555 1_555
Mg3_2 O19_2 1_555 1_555
C13_2 C14_2 1_555 1_555
C15_2 O6_2 1_555 1_555
C23_2 O9_2 1_555 1_555
O8_2 Mg5 1_555 1_555
C1_3 C2_3 1_555 1_555
C2_3 H1_3 1_555 1_555
C6_3 C1_3 1_555 1_555
H4_3 C6_3 1_555 1_555
C7_3 C1_3 1_555 1_555
O1_3 C7_3 1_555 1_555
O2_3 C7_3 1_555 1_555
Mg4 O1_3 1_555 1_555
Mg6_2 O1_3 1_555 1_555
O2_3 Mg6_2 1_555 1_555
Mg1_3 O3_3 1_555 1_555
Mg2_3 O4_3 1_555 1_555
Mg3_3 O5_3 1_555 1_555
H2_3 C3_3 1_555 1_555
C4_3 C3_3 1_555 1_555
C5_3 C4_3 1_555 1_555
H3_3 C5_3 1_555 1_555
C8_3 C4_3 1_555 1_555
C9_3 C10_3 1_555 1_555
C10_3 H5_3 1_555 1_555
C11_3 C10_3 1_555 1_555
H6_3 C11_3 1_555 1_555
C12_3 C11_3 1_555 1_555
C13_3 C12_3 1_555 1_555
H7_3 C13_3 1_555 1_555
C14_3 C9_3 1_555 1_555
H8_3 C14_3 1_555 1_555
C15_3 C9_3 1_555 1_555
C16_3 C12_3 1_555 1_555
C17_3 C18_3 1_555 1_555
C18_3 H9_3 1_555 1_555
C19_3 C18_3 1_555 1_555
H10_3 C19_3 1_555 1_555
C20_3 C19_3 1_555 1_555
C21_3 C20_3 1_555 1_555
H11_3 C21_3 1_555 1_555
C22_3 C17_3 1_555 1_555
H12_3 C22_3 1_555 1_555
C23_3 C17_3 1_555 1_555
C24_3 C20_3 1_555 1_555
O3_3 C8_3 1_555 1_555
O4_3 C8_3 1_555 1_555
O5_3 C15_3 1_555 1_555
O6_3 Mg1_3 1_555 1_555
O7_3 C16_3 1_555 1_555
O8_3 C16_3 1_555 1_555
O9_3 Mg3_3 1_555 1_555
O10_3 Mg2_3 1_555 1_555
O11_3 C24_3 1_555 1_555
O12_3 C24_3 1_555 1_555
O13_3 Mg1_3 1_555 1_555
N1_3 C25_3 1_555 1_555
C25_3 O13_3 1_555 1_555
C26_3 C25_3 1_555 1_555
H13_3 C26_3 1_555 1_555
H14_3 C26_3 1_555 1_555
H15_3 C26_3 1_555 1_555
C27_3 N1_3 1_555 1_555
H16_3 C27_3 1_555 1_555
C28_3 C27_3 1_555 1_555
H18_3 C28_3 1_555 1_555
H19_3 C28_3 1_555 1_555
H20_3 C28_3 1_555 1_555
O14_3 Mg2_3 1_555 1_555
N2_3 C31_3 1_555 1_555
C31_3 O14_3 1_555 1_555
C32_3 C31_3 1_555 1_555
H26_3 C32_3 1_555 1_555
H27_3 C32_3 1_555 1_555
H28_3 C32_3 1_555 1_555
C33_3 N2_3 1_555 1_555
H29_3 C33_3 1_555 1_555
H30_3 C33_3 1_555 1_555
C34_3 C33_3 1_555 1_555
H31_3 C34_3 1_555 1_555
H32_3 C34_3 1_555 1_555
H33_3 C34_3 1_555 1_555
C35_3 N2_3 1_555 1_555
H34_3 C35_3 1_555 1_555
H35_3 C35_3 1_555 1_555
C36_3 C35_3 1_555 1_555
H36_3 C36_3 1_555 1_555
H37_3 C36_3 1_555 1_555
H38_3 C36_3 1_555 1_555
O15_3 Mg3_3 1_555 1_555
C37_3 O15_3 1_555 1_555
H39_3 C37_3 1_555 1_555
H40_3 C37_3 1_555 1_555
C38_3 C37_3 1_555 1_555
H41_3 C38_3 1_555 1_555
H42_3 C38_3 1_555 1_555
H43_3 C38_3 1_555 1_555
Mg7 O12_3 1_555 1_555
Mg9 O8_3 1_555 1_555
Mg8_2 O11_3 1_555 1_555
O16_3 Mg1_3 1_555 1_555
O17_3 Mg2_3 1_555 1_555
O18_3 Mg1_3 1_555 1_555
O19_3 Mg1_3 1_555 1_555
O20_3 Mg3_3 1_555 1_555
O21_3 Mg2_3 1_555 1_555
Mg2_3 O16_3 1_555 1_555
Mg3_3 O19_3 1_555 1_555
C13_3 C14_3 1_555 1_555
C15_3 O6_3 1_555 1_555
C21_3 C22_3 1_555 1_555
C23_3 O9_3 1_555 1_555
C23_3 O10_3 1_555 1_555
Mg4 O3_4 1_555 1_555
Mg6_2 O4_4 1_555 1_555
C1_4 C2_4 1_555 1_555
C2_4 H1_4 1_555 1_555
C3_4 C2_4 1_555 1_555
H2_4 C3_4 1_555 1_555
C4_4 C3_4 1_555 1_555
C5_4 C4_4 1_555 1_555
H3_4 C5_4 1_555 1_555
C6_4 C1_4 1_555 1_555
H4_4 C6_4 1_555 1_555
C7_4 C1_4 1_555 1_555
C8_4 C4_4 1_555 1_555
H12_4 C22_4 1_555 1_555
O16_3 C7_4 1_555 1_555
O17_3 C7_4 1_555 1_555
O3_4 C8_4 1_555 1_555
O4_4 C8_4 1_555 1_555
O10_4 Mg6_2 1_555 1_555
O13_4 Mg4 1_555 1_555
N1_4 C25_4 1_555 1_555
C25_4 O13_4 1_555 1_555
C26_4 C25_4 1_555 1_555
H13_4 C26_4 1_555 1_555
H14_4 C26_4 1_555 1_555
H15_4 C26_4 1_555 1_555
C27_4 N1_4 1_555 1_555
H16_4 C27_4 1_555 1_555
H17_2 C27_4 1_555 1_555
C28_4 C27_4 1_555 1_555
H19_4 C28_4 1_555 1_555
H20_4 C28_4 1_555 1_555
C29_2 N1_4 1_555 1_555
H21_2 C29_2 1_555 1_555
H22_2 C29_2 1_555 1_555
C30_2 C29_2 1_555 1_555
H23_2 C30_2 1_555 1_555
H24_2 C30_2 1_555 1_555
H25_2 C30_2 1_555 1_555
O14_4 Mg6_2 1_555 1_555
N2_4 C31_4 1_555 1_555
C31_4 O14_4 1_555 1_555
C32_4 C31_4 1_555 1_555
H26_4 C32_4 1_555 1_555
H27_4 C32_4 1_555 1_555
H28_4 C32_4 1_555 1_555
C33_4 N2_4 1_555 1_555
H29_4 C33_4 1_555 1_555
H30_4 C33_4 1_555 1_555
C34_4 C33_4 1_555 1_555
H31_4 C34_4 1_555 1_555
H32_4 C34_4 1_555 1_555
H33_4 C34_4 1_555 1_555
C35_4 N2_4 1_555 1_555
H34_4 C35_4 1_555 1_555
H35_4 C35_4 1_555 1_555
C36_4 C35_4 1_555 1_555
H36_4 C36_4 1_555 1_555
H37_4 C36_4 1_555 1_555
H38_4 C36_4 1_555 1_555
C5_4 C6_4 1_555 1_555
Mg8 O5_4 1_555 1_555
C15_4 C9_4 1_555 1_555
C17_4 C18_4 1_555 1_555
C18_4 H9_4 1_555 1_555
C23_4 C17_4 1_555 1_555
O5_4 C15_4 1_555 1_555
O9_4 Mg8 1_555 1_555
O15_4 Mg8 1_555 1_555
C37_4 O15_4 1_555 1_555
H39_4 C37_4 1_555 1_555
H40_4 C37_4 1_555 1_555
C38_4 C37_4 1_555 1_555
H41_4 C38_4 1_555 1_555
H42_4 C38_4 1_555 1_555
H43_4 C38_4 1_555 1_555
C15_4 O6_4 1_555 1_555
C23_4 O9_4 1_555 1_555
C11_4 C10_4 1_555 1_555
H6_4 C11_4 1_555 1_555
C12_4 C11_4 1_555 1_555
C13_4 C12_4 1_555 1_555
H7_4 C13_4 1_555 1_555
H8_4 C14_4 1_555 1_555
C16_4 C12_4 1_555 1_555
H10_4 C19_4 1_555 1_555
C20_4 C19_4 1_555 1_555
C21_4 C20_4 1_555 1_555
C24_4 C20_4 1_555 1_555
O18 C16_4 1_555 1_555
O19 C16_4 1_555 1_555
O20_2 C24_4 1_555 1_555
O21_2 C24_4 1_555 1_555
C13_4 C14_4 1_555 1_555
Mg9 O5_5 1_555 1_555
C15_5 C9_5 1_555 1_555
C17_5 C18_5 1_555 1_555
C18_5 H9_5 1_555 1_555
C23_5 C17_5 1_555 1_555
O5_5 C15_5 1_555 1_555
O9_5 Mg9 1_555 1_555
O15_5 Mg9 1_555 1_555
C37_5 O15_5 1_555 1_555
H39_5 C37_5 1_555 1_555
H40_5 C37_5 1_555 1_555
C38_5 C37_5 1_555 1_555
H41_5 C38_5 1_555 1_555
H42_5 C38_5 1_555 1_555
H43_5 C38_5 1_555 1_555
C15_5 O6_5 1_555 1_555
C23_5 O9_5 1_555 1_555
C11_5 C10_5 1_555 1_555
H6_5 C11_5 1_555 1_555
C12_5 C11_5 1_555 1_555
C13_5 C12_5 1_555 1_555
H7_5 C13_5 1_555 1_555
H8_5 C14_5 1_555 1_555
C16_5 C12_5 1_555 1_555
H10_5 C19_5 1_555 1_555
C20_5 C19_5 1_555 1_555
C21_5 C20_5 1_555 1_555
C24_5 C20_5 1_555 1_555
O18_3 C16_5 1_555 1_555
O19_3 C16_5 1_555 1_555
O20 C24_5 1_555 1_555
O21 C24_5 1_555 1_555
C13_5 C14_5 1_555 1_555
Mg5_2 O3_5 1_555 1_555
Mg6 O4_5 1_555 1_555
C1_5 C2_5 1_555 1_555
C2_5 H1_5 1_555 1_555
C3_5 C2_5 1_555 1_555
H2_5 C3_5 1_555 1_555
C4_5 C3_5 1_555 1_555
C5_5 C4_5 1_555 1_555
H3_5 C5_5 1_555 1_555
C6_5 C1_5 1_555 1_555
H4_5 C6_5 1_555 1_555
C7_5 C1_5 1_555 1_555
C8_5 C4_5 1_555 1_555
H12_5 C22_5 1_555 1_555
O16_2 C7_5 1_555 1_555
O17_2 C7_5 1_555 1_555
O3_5 C8_5 1_555 1_555
O4_5 C8_5 1_555 1_555
O10_5 Mg6 1_555 1_555
O13_5 Mg5_2 1_555 1_555
N1_5 C25_5 1_555 1_555
C25_5 O13_5 1_555 1_555
C26_5 C25_5 1_555 1_555
H13_5 C26_5 1_555 1_555
H14_5 C26_5 1_555 1_555
H15_5 C26_5 1_555 1_555
C27_5 N1_5 1_555 1_555
H16_5 C27_5 1_555 1_555
C28_5 C27_5 1_555 1_555
H19_5 C28_5 1_555 1_555
H20_5 C28_5 1_555 1_555
O14_5 Mg6 1_555 1_555
N2_5 C31_5 1_555 1_555
C31_5 O14_5 1_555 1_555
C32_5 C31_5 1_555 1_555
H26_5 C32_5 1_555 1_555
H27_5 C32_5 1_555 1_555
H28_5 C32_5 1_555 1_555
C33_5 N2_5 1_555 1_555
H29_5 C33_5 1_555 1_555
H30_5 C33_5 1_555 1_555
C34_5 C33_5 1_555 1_555
H31_5 C34_5 1_555 1_555
H32_5 C34_5 1_555 1_555
H33_5 C34_5 1_555 1_555
C35_5 N2_5 1_555 1_555
H34_5 C35_5 1_555 1_555
H35_5 C35_5 1_555 1_555
C36_5 C35_5 1_555 1_555
H36_5 C36_5 1_555 1_555
H37_5 C36_5 1_555 1_555
H38_5 C36_5 1_555 1_555
C5_5 C6_5 1_555 1_555
Mg5 O3_6 1_555 1_555
Mg7 O4_6 1_555 1_555
Mg8_2 O5_6 1_555 1_555
C1_6 C2_6 1_555 1_555
C2_6 H1_6 1_555 1_555
C3_6 C2_6 1_555 1_555
H2_6 C3_6 1_555 1_555
C4_6 C3_6 1_555 1_555
C5_6 C4_6 1_555 1_555
H3_6 C5_6 1_555 1_555
C6_6 C1_6 1_555 1_555
H4_6 C6_6 1_555 1_555
C7_6 C1_6 1_555 1_555
C8_6 C4_6 1_555 1_555
C15_6 C9_6 1_555 1_555
C17_6 C18_6 1_555 1_555
C18_6 H9_6 1_555 1_555
C22_6 C17_6 1_555 1_555
H12_6 C22_6 1_555 1_555
C23_6 C17_6 1_555 1_555
O16 C7_6 1_555 1_555
O17 C7_6 1_555 1_555
O3_6 C8_6 1_555 1_555
O4_6 C8_6 1_555 1_555
O5_6 C15_6 1_555 1_555
O6_6 Mg5 1_555 1_555
O9_6 Mg8_2 1_555 1_555
O10_6 Mg7 1_555 1_555
O13_6 Mg5 1_555 1_555
N1_6 C25_6 1_555 1_555
C25_6 O13_6 1_555 1_555
C26_6 C25_6 1_555 1_555
H13_6 C26_6 1_555 1_555
H14_6 C26_6 1_555 1_555
H15_6 C26_6 1_555 1_555
C27_6 N1_6 1_555 1_555
H16_6 C27_6 1_555 1_555
C28_6 C27_6 1_555 1_555
H19_6 C28_6 1_555 1_555
H20_6 C28_6 1_555 1_555
O14_6 Mg7 1_555 1_555
N2_6 C31_6 1_555 1_555
C31_6 O14_6 1_555 1_555
C32_6 C31_6 1_555 1_555
H26_6 C32_6 1_555 1_555
H27_6 C32_6 1_555 1_555
H28_6 C32_6 1_555 1_555
C33_6 N2_6 1_555 1_555
H29_6 C33_6 1_555 1_555
H30_6 C33_6 1_555 1_555
C34_6 C33_6 1_555 1_555
H31_6 C34_6 1_555 1_555
H32_6 C34_6 1_555 1_555
H33_6 C34_6 1_555 1_555
C35_6 N2_6 1_555 1_555
H34_6 C35_6 1_555 1_555
H35_6 C35_6 1_555 1_555
C36_6 C35_6 1_555 1_555
H36_6 C36_6 1_555 1_555
H37_6 C36_6 1_555 1_555
H38_6 C36_6 1_555 1_555
O15_6 Mg8_2 1_555 1_555
C37_6 O15_6 1_555 1_555
H39_6 C37_6 1_555 1_555
H40_6 C37_6 1_555 1_555
C38_6 C37_6 1_555 1_555
H41_6 C38_6 1_555 1_555
H42_6 C38_6 1_555 1_555
H43_6 C38_6 1_555 1_555
C5_6 C6_6 1_555 1_555
C15_6 O6_6 1_555 1_555
C23_6 O9_6 1_555 1_555
C23_6 O10_6 1_555 1_555
C11_6 C10_6 1_555 1_555
H6_6 C11_6 1_555 1_555
C12_6 C11_6 1_555 1_555
C13_6 C12_6 1_555 1_555
H7_6 C13_6 1_555 1_555
H8_6 C14_6 1_555 1_555
C16_6 C12_6 1_555 1_555
H10_6 C19_6 1_555 1_555
C20_6 C19_6 1_555 1_555
C21_6 C20_6 1_555 1_555
H11_6 C21_6 1_555 1_555
C24_6 C20_6 1_555 1_555
O18_2 C16_6 1_555 1_555
O19_2 C16_6 1_555 1_555
O20_3 C24_6 1_555 1_555
O21_3 C24_6 1_555 1_555
C13_6 C14_6 1_555 1_555
H21_3 C29_3 1_555 1_555
H22_3 C29_3 1_555 1_555
C30_3 C29_3 1_555 1_555
H23_3 C30_3 1_555 1_555
H24_3 C30_3 1_555 1_555
H25_3 C30_3 1_555 1_555
H21_4 C29_4 1_555 1_555
H22_4 C29_4 1_555 1_555
C30_4 C29_4 1_555 1_555
H23_4 C30_4 1_555 1_555
H24_4 C30_4 1_555 1_555
H25_4 C30_4 1_555 1_555
H21_5 C29_5 1_555 1_555
H22_5 C29_5 1_555 1_555
C30_5 C29_5 1_555 1_555
H23_5 C30_5 1_555 1_555
H24_5 C30_5 1_555 1_555
H25_5 C30_5 1_555 1_555
H21_6 C29_6 1_555 1_555
H22_6 C29_6 1_555 1_555
C30_6 C29_6 1_555 1_555
H23_6 C30_6 1_555 1_555
H24_6 C30_6 1_555 1_555
H25_6 C30_6 1_555 1_555

#END
