
###############################################################################
#
# This file contains modified crystal structure data generated from the
# MOF subset of the Cambridge Structural Database (CSD) v543 
# hosted by the Cambridge Crystallographic Data Centre (CCDC).
#
# This work is licensed under the Creative Commons
# Attribution-NonCommercial-ShareAlike 4.0 International License.
# To view a copy of this license, visit
# http://creativecommons.org/licenses/by-nc-sa/4.0/
# or send a letter to
# Creative Commons, PO Box 1866, Mountain View, CA 94042, USA.
#
# CIF created using the CSD Python API on 29 September 2022
# The structure has been converted into the P1 space group
# The structure has a 3D framework
# The original CSD entry TAJTAC is in the orthorhombic crystal system
# The framework has been calculated to contain at least 10.0% void space
# The void calculation uses a probe of radius 1.32A, grid spacing 0.4
#
###############################################################################

data_TAJTAC
_chemical_formula_moiety         '(C192 H96 O96 Sc12)n'
_symmetry_cell_setting           triclinic
_symmetry_space_group_name_H-M   'P 1'
_symmetry_Int_Tables_number      1
_space_group_name_Hall           'P 1'
loop_
_symmetry_equiv_pos_site_id
_symmetry_equiv_pos_as_xyz
1 x,y,z
_cell_length_a                   8.7442(6)
_cell_length_b                   20.7536(14)
_cell_length_c                   34.333(2)
_cell_angle_alpha                90
_cell_angle_beta                 90
_cell_angle_gamma                90
_cell_volume                     6230.53
loop_
_atom_site_label
_atom_site_type_symbol
_atom_site_fract_x
_atom_site_fract_y
_atom_site_fract_z
Sc1 Sc 0.1250 0.6250 0.36422(13)
C3 C 0.103(3) 0.5187(11) 0.4729(6)
C4 C 0.151(2) 0.4856(11) 0.5049(6)
O3 O 0.2528(14) 0.5415(5) 0.3640(4)
C5 C 0.3750 0.5146(10) 0.3750
C6 C 0.3750 0.4411(11) 0.3750
C7 C 0.241(2) 0.4083(8) 0.3741(8)
H1 H 0.1757 0.5317 0.4538
H2 H 0.2571 0.4762 0.5080
H3 H 0.1466 0.4311 0.3723
O4 O 0.0044(15) 0.4160(7) 0.5927(4)
C8 C 0.098(2) 0.4304(9) 0.5684(5)
O5 O 0.2426(14) 0.4173(6) 0.5714(3)
C9 C 0.052(2) 0.4660(9) 0.5321(5)
O6 O 0.2528(14) 0.2085(5) 0.3860(4)
C12 C 0.3750 0.2354(10) 0.3750
C13 C 0.3750 0.3089(11) 0.3750
C14 C 0.241(2) 0.3417(8) 0.3759(8)
H6 H 0.1466 0.3189 0.3777
O7 O 0.4972(14) 0.5415(5) 0.3860(4)
C15 C 0.509(2) 0.4083(8) 0.3759(8)
H7 H 0.6034 0.4311 0.3777
O8 O 0.4972(14) 0.2085(5) 0.3640(4)
C16 C 0.509(2) 0.3417(8) 0.3741(8)
H8 H 0.6034 0.3189 0.3723
O9 O 0.2544(15) 0.6660(7) 0.4073(4)
C17 C 0.348(2) 0.6804(9) 0.4316(5)
O10 O 0.4926(14) 0.6673(6) 0.4286(3)
C18 C 0.302(2) 0.7160(9) 0.4679(5)
C19 C 0.147(3) 0.7313(11) 0.4729(6)
C20 C 0.099(2) 0.7644(11) 0.5049(6)
H9 H 0.0743 0.7183 0.4538
O11 O 0.2456(15) 0.8340(7) 0.5927(4)
C21 C 0.152(2) 0.8196(9) 0.5684(5)
O12 O 0.0074(14) 0.8327(6) 0.5714(3)
C22 C 0.198(2) 0.7840(9) 0.5321(5)
C23 C 0.353(3) 0.7687(11) 0.5271(6)
C24 C 0.401(2) 0.7356(11) 0.4951(6)
H11 H 0.4257 0.7817 0.5462
H12 H 0.5071 0.7262 0.4920
Sc4 Sc 0.6250 0.1250 0.36422(13)
Sc5 Sc 0.3750 0.8750 0.63578(13)
Sc7 Sc 0.1250 0.1250 0.38578(13)
Sc8 Sc 0.6250 0.6250 0.38578(13)
Sc9 Sc 0.3750 0.3750 0.61422(13)
O15 O 0.2574(14) 0.6673(6) 0.3214(3)
O1 O 0.9956(15) 0.5840(7) 0.4073(4)
C1 C 0.902(2) 0.5696(9) 0.4316(5)
O2 O 0.7574(14) 0.5827(6) 0.4286(3)
C2 C 0.948(2) 0.5340(9) 0.4679(5)
C10 C 0.897(3) 0.4813(11) 0.5271(6)
C11 C 0.849(2) 0.5144(11) 0.4951(6)
H4 H 0.8243 0.4683 0.5462
H5 H 0.7429 0.5238 0.4920
H10 H 0.9929 0.7738 0.5080
Sc3 Sc 0.8750 0.3750 0.63578(13)
Sc6 Sc 0.8750 0.8750 0.61422(13)
O13 O 0.4956(15) 0.6660(7) 0.3427(4)
O14 O 0.7544(15) 0.5840(7) 0.3427(4)
O16 O 0.9926(14) 0.5827(6) 0.3214(3)
O18 O 0.7528(14) 0.7085(5) 0.3860(4)
O20 O 0.9972(14) 0.7085(5) 0.3640(4)
C20_2 C 0.099(2) 0.2644(11) 0.0049(6)
O11_2 O 0.2456(15) 0.3340(7) 0.0927(4)
C21_2 C 0.152(2) 0.3196(9) 0.0684(5)
O12_2 O 0.0074(14) 0.3327(6) 0.0714(3)
C22_2 C 0.198(2) 0.2840(9) 0.0321(5)
C23_2 C 0.353(3) 0.2687(11) 0.0271(6)
H11_2 H 0.4257 0.2817 0.0462
Sc5_2 Sc 0.3750 0.3750 0.13578(13)
Sc1_2 Sc 0.1250 0.1250 0.86422(13)
C3_2 C 0.103(3) 0.0187(11) 0.9729(6)
O3_2 O 0.2528(14) 0.0415(5) 0.8640(4)
C5_2 C 0.3750 0.0146(10) 0.8750
H1_2 H 0.1757 0.0317 0.9538
O7_2 O 0.4972(14) 0.0415(5) 0.8860(4)
O9_2 O 0.2544(15) 0.1660(7) 0.9073(4)
C17_2 C 0.348(2) 0.1804(9) 0.9316(5)
O10_2 O 0.4926(14) 0.1673(6) 0.9286(3)
C18_2 C 0.302(2) 0.2160(9) 0.9679(5)
C19_2 C 0.147(3) 0.2313(11) 0.9729(6)
H9_2 H 0.0743 0.2183 0.9538
C24_2 C 0.401(2) 0.2356(11) 0.9951(6)
H12_2 H 0.5071 0.2262 0.9920
Sc8_2 Sc 0.6250 0.1250 0.88578(13)
O15_2 O 0.2574(14) 0.1673(6) 0.8214(3)
C4_2 C 0.151(2) 0.9856(11) 0.0049(6)
H2_2 H 0.2571 0.9762 0.0080
O4_2 O 0.0044(15) 0.9160(7) 0.0927(4)
C8_2 C 0.098(2) 0.9304(9) 0.0684(5)
O5_2 O 0.2426(14) 0.9173(6) 0.0714(3)
C9_2 C 0.052(2) 0.9660(9) 0.0321(5)
Sc9_2 Sc 0.3750 0.8750 0.11422(13)
C6_2 C 0.3750 0.9411(11) 0.8750
C7_2 C 0.241(2) 0.9083(8) 0.8741(8)
H3_2 H 0.1466 0.9311 0.8723
O6_2 O 0.2528(14) 0.7085(5) 0.8860(4)
C12_2 C 0.3750 0.7354(10) 0.8750
C13_2 C 0.3750 0.8089(11) 0.8750
C14_2 C 0.241(2) 0.8417(8) 0.8759(8)
H6_2 H 0.1466 0.8189 0.8777
C15_2 C 0.509(2) 0.9083(8) 0.8759(8)
H7_2 H 0.6034 0.9311 0.8777
O8_2 O 0.4972(14) 0.7085(5) 0.8640(4)
C16_2 C 0.509(2) 0.8417(8) 0.8741(8)
H8_2 H 0.6034 0.8189 0.8723
Sc4_2 Sc 0.6250 0.6250 0.86422(13)
Sc7_2 Sc 0.1250 0.6250 0.88578(13)
H10_2 H 0.9929 0.2738 0.0080
Sc6_2 Sc 0.8750 0.3750 0.11422(13)
O1_2 O 0.9956(15) 0.0840(7) 0.9073(4)
C1_2 C 0.902(2) 0.0696(9) 0.9316(5)
O2_2 O 0.7574(14) 0.0827(6) 0.9286(3)
C2_2 C 0.948(2) 0.0340(9) 0.9679(5)
C11_2 C 0.849(2) 0.0144(11) 0.9951(6)
H5_2 H 0.7429 0.0238 0.9920
O13_2 O 0.4956(15) 0.1660(7) 0.8427(4)
O14_2 O 0.7544(15) 0.0840(7) 0.8427(4)
O16_2 O 0.9926(14) 0.0827(6) 0.8214(3)
O18_2 O 0.7528(14) 0.2085(5) 0.8860(4)
O20_2 O 0.9972(14) 0.2085(5) 0.8640(4)
C10_2 C 0.897(3) 0.9813(11) 0.0271(6)
H4_2 H 0.8243 0.9683 0.0462
Sc3_2 Sc 0.8750 0.8750 0.13578(13)
C15_3 C 0.009(2) 0.4083(8) 0.8759(8)
H7_3 H 0.1034 0.4311 0.8777
C16_3 C 0.009(2) 0.3417(8) 0.8741(8)
H8_3 H 0.1034 0.3189 0.8723
H12_3 H 0.0071 0.7262 0.9920
C4_3 C 0.651(2) 0.4856(11) 0.0049(6)
H2_3 H 0.7571 0.4762 0.0080
O4_3 O 0.5044(15) 0.4160(7) 0.0927(4)
C8_3 C 0.598(2) 0.4304(9) 0.0684(5)
O5_3 O 0.7426(14) 0.4173(6) 0.0714(3)
C9_3 C 0.552(2) 0.4660(9) 0.0321(5)
C10_3 C 0.397(3) 0.4813(11) 0.0271(6)
H4_3 H 0.3243 0.4683 0.0462
C20_3 C 0.599(2) 0.7644(11) 0.0049(6)
H10_3 H 0.4929 0.7738 0.0080
O11_3 O 0.7456(15) 0.8340(7) 0.0927(4)
C21_3 C 0.652(2) 0.8196(9) 0.0684(5)
O12_3 O 0.5074(14) 0.8327(6) 0.0714(3)
C22_3 C 0.698(2) 0.7840(9) 0.0321(5)
C23_3 C 0.853(3) 0.7687(11) 0.0271(6)
H11_3 H 0.9257 0.7817 0.0462
O1_3 O 0.4956(15) 0.5840(7) 0.9073(4)
C1_3 C 0.402(2) 0.5696(9) 0.9316(5)
O2_3 O 0.2574(14) 0.5827(6) 0.9286(3)
C2_3 C 0.448(2) 0.5340(9) 0.9679(5)
C3_3 C 0.603(3) 0.5187(11) 0.9729(6)
O3_3 O 0.7528(14) 0.5415(5) 0.8640(4)
C5_3 C 0.8750 0.5146(10) 0.8750
C6_3 C 0.8750 0.4411(11) 0.8750
C7_3 C 0.741(2) 0.4083(8) 0.8741(8)
H1_3 H 0.6757 0.5317 0.9538
H3_3 H 0.6466 0.4311 0.8723
C11_3 C 0.349(2) 0.5144(11) 0.9951(6)
H5_3 H 0.2429 0.5238 0.9920
C12_3 C 0.8750 0.2354(10) 0.8750
C13_3 C 0.8750 0.3089(11) 0.8750
C14_3 C 0.741(2) 0.3417(8) 0.8759(8)
H6_3 H 0.6466 0.3189 0.8777
O7_3 O 0.9972(14) 0.5415(5) 0.8860(4)
O9_3 O 0.7544(15) 0.6660(7) 0.9073(4)
C17_3 C 0.848(2) 0.6804(9) 0.9316(5)
O10_3 O 0.9926(14) 0.6673(6) 0.9286(3)
C18_3 C 0.802(2) 0.7160(9) 0.9679(5)
C19_3 C 0.647(3) 0.7313(11) 0.9729(6)
H9_3 H 0.5743 0.7183 0.9538
C24_3 C 0.901(2) 0.7356(11) 0.9951(6)
O14_3 O 0.2544(15) 0.5840(7) 0.8427(4)
O15_3 O 0.7574(14) 0.6673(6) 0.8214(3)
O16_3 O 0.4926(14) 0.5827(6) 0.8214(3)
O13_3 O 0.9956(15) 0.6660(7) 0.8427(4)
H12_4 H 0.0071 0.2262 0.4920
C15_4 C 0.009(2) 0.9083(8) 0.3759(8)
H7_4 H 0.1034 0.9311 0.3777
C16_4 C 0.009(2) 0.8417(8) 0.3741(8)
H8_4 H 0.1034 0.8189 0.3723
O1_4 O 0.4956(15) 0.0840(7) 0.4073(4)
C1_4 C 0.402(2) 0.0696(9) 0.4316(5)
O2_4 O 0.2574(14) 0.0827(6) 0.4286(3)
C2_4 C 0.448(2) 0.0340(9) 0.4679(5)
C3_4 C 0.603(3) 0.0187(11) 0.4729(6)
O3_4 O 0.7528(14) 0.0415(5) 0.3640(4)
C5_4 C 0.8750 0.0146(10) 0.3750
H1_4 H 0.6757 0.0317 0.4538
C11_4 C 0.349(2) 0.0144(11) 0.4951(6)
H5_4 H 0.2429 0.0238 0.4920
O7_4 O 0.9972(14) 0.0415(5) 0.3860(4)
O9_4 O 0.7544(15) 0.1660(7) 0.4073(4)
C17_4 C 0.848(2) 0.1804(9) 0.4316(5)
O10_4 O 0.9926(14) 0.1673(6) 0.4286(3)
C18_4 C 0.802(2) 0.2160(9) 0.4679(5)
C19_4 C 0.647(3) 0.2313(11) 0.4729(6)
C20_4 C 0.599(2) 0.2644(11) 0.5049(6)
H9_4 H 0.5743 0.2183 0.4538
H10_4 H 0.4929 0.2738 0.5080
O11_4 O 0.7456(15) 0.3340(7) 0.5927(4)
C21_4 C 0.652(2) 0.3196(9) 0.5684(5)
O12_4 O 0.5074(14) 0.3327(6) 0.5714(3)
C22_4 C 0.698(2) 0.2840(9) 0.5321(5)
C23_4 C 0.853(3) 0.2687(11) 0.5271(6)
C24_4 C 0.901(2) 0.2356(11) 0.4951(6)
H11_4 H 0.9257 0.2817 0.5462
O14_4 O 0.2544(15) 0.0840(7) 0.3427(4)
O15_4 O 0.7574(14) 0.1673(6) 0.3214(3)
O16_4 O 0.4926(14) 0.0827(6) 0.3214(3)
C4_4 C 0.651(2) 0.9856(11) 0.5049(6)
C6_4 C 0.8750 0.9411(11) 0.3750
C7_4 C 0.741(2) 0.9083(8) 0.3741(8)
H2_4 H 0.7571 0.9762 0.5080
H3_4 H 0.6466 0.9311 0.3723
O4_4 O 0.5044(15) 0.9160(7) 0.5927(4)
C8_4 C 0.598(2) 0.9304(9) 0.5684(5)
O5_4 O 0.7426(14) 0.9173(6) 0.5714(3)
C9_4 C 0.552(2) 0.9660(9) 0.5321(5)
C10_4 C 0.397(3) 0.9813(11) 0.5271(6)
H4_4 H 0.3243 0.9683 0.5462
C12_4 C 0.8750 0.7354(10) 0.3750
C13_4 C 0.8750 0.8089(11) 0.3750
C14_4 C 0.741(2) 0.8417(8) 0.3759(8)
H6_4 H 0.6466 0.8189 0.3777
O13_4 O 0.9956(15) 0.1660(7) 0.3427(4)
C3_5 C 0.103(3) 0.7313(11) 0.7771(6)
C4_5 C 0.151(2) 0.7644(11) 0.7451(6)
H1_5 H 0.1757 0.7183 0.7962
H2_5 H 0.2571 0.7738 0.7420
O4_5 O 0.0044(15) 0.8340(7) 0.6573(4)
C8_5 C 0.098(2) 0.8196(9) 0.6816(5)
O5_5 O 0.2426(14) 0.8327(6) 0.6786(3)
C9_5 C 0.052(2) 0.7840(9) 0.7179(5)
C17_5 C 0.348(2) 0.5696(9) 0.8184(5)
C18_5 C 0.302(2) 0.5340(9) 0.7821(5)
C19_5 C 0.147(3) 0.5187(11) 0.7771(6)
C20_5 C 0.099(2) 0.4856(11) 0.7451(6)
H9_5 H 0.0743 0.5317 0.7962
O11_5 O 0.2456(15) 0.4160(7) 0.6573(4)
C21_5 C 0.152(2) 0.4304(9) 0.6816(5)
O12_5 O 0.0074(14) 0.4173(6) 0.6786(3)
C22_5 C 0.198(2) 0.4660(9) 0.7179(5)
C23_5 C 0.353(3) 0.4813(11) 0.7229(6)
C24_5 C 0.401(2) 0.5144(11) 0.7549(6)
H11_5 H 0.4257 0.4683 0.7038
H12_5 H 0.5071 0.5238 0.7580
C1_5 C 0.902(2) 0.6804(9) 0.8184(5)
C2_5 C 0.948(2) 0.7160(9) 0.7821(5)
C10_5 C 0.897(3) 0.7687(11) 0.7229(6)
C11_5 C 0.849(2) 0.7356(11) 0.7549(6)
H4_5 H 0.8243 0.7817 0.7038
H5_5 H 0.7429 0.7262 0.7580
H10_5 H 0.9929 0.4762 0.7420
C3_6 C 0.103(3) 0.2313(11) 0.2771(6)
C4_6 C 0.151(2) 0.2644(11) 0.2451(6)
H1_6 H 0.1757 0.2183 0.2962
H2_6 H 0.2571 0.2738 0.2420
O4_6 O 0.0044(15) 0.3340(7) 0.1573(4)
C8_6 C 0.098(2) 0.3196(9) 0.1816(5)
O5_6 O 0.2426(14) 0.3327(6) 0.1786(3)
C9_6 C 0.052(2) 0.2840(9) 0.2179(5)
C17_6 C 0.348(2) 0.0696(9) 0.3184(5)
C18_6 C 0.302(2) 0.0340(9) 0.2821(5)
C19_6 C 0.147(3) 0.0187(11) 0.2771(6)
H9_6 H 0.0743 0.0317 0.2962
C24_6 C 0.401(2) 0.0144(11) 0.2549(6)
H12_6 H 0.5071 0.0238 0.2580
C20_6 C 0.099(2) 0.9856(11) 0.2451(6)
O11_6 O 0.2456(15) 0.9160(7) 0.1573(4)
C21_6 C 0.152(2) 0.9304(9) 0.1816(5)
O12_6 O 0.0074(14) 0.9173(6) 0.1786(3)
C22_6 C 0.198(2) 0.9660(9) 0.2179(5)
C23_6 C 0.353(3) 0.9813(11) 0.2229(6)
H11_6 H 0.4257 0.9683 0.2038
C1_6 C 0.902(2) 0.1804(9) 0.3184(5)
C2_6 C 0.948(2) 0.2160(9) 0.2821(5)
C10_6 C 0.897(3) 0.2687(11) 0.2229(6)
C11_6 C 0.849(2) 0.2356(11) 0.2549(6)
H4_6 H 0.8243 0.2817 0.2038
H5_6 H 0.7429 0.2262 0.2580
H10_6 H 0.9929 0.9762 0.2420
H12_7 H 0.0071 0.5238 0.2580
C1_7 C 0.402(2) 0.6804(9) 0.3184(5)
C2_7 C 0.448(2) 0.7160(9) 0.2821(5)
C3_7 C 0.603(3) 0.7313(11) 0.2771(6)
C4_7 C 0.651(2) 0.7644(11) 0.2451(6)
H1_7 H 0.6757 0.7183 0.2962
H2_7 H 0.7571 0.7738 0.2420
O4_7 O 0.5044(15) 0.8340(7) 0.1573(4)
C8_7 C 0.598(2) 0.8196(9) 0.1816(5)
O5_7 O 0.7426(14) 0.8327(6) 0.1786(3)
C9_7 C 0.552(2) 0.7840(9) 0.2179(5)
C10_7 C 0.397(3) 0.7687(11) 0.2229(6)
C11_7 C 0.349(2) 0.7356(11) 0.2549(6)
H4_7 H 0.3243 0.7817 0.2038
H5_7 H 0.2429 0.7262 0.2580
C17_7 C 0.848(2) 0.5696(9) 0.3184(5)
C18_7 C 0.802(2) 0.5340(9) 0.2821(5)
C19_7 C 0.647(3) 0.5187(11) 0.2771(6)
C20_7 C 0.599(2) 0.4856(11) 0.2451(6)
H9_7 H 0.5743 0.5317 0.2962
H10_7 H 0.4929 0.4762 0.2420
O11_7 O 0.7456(15) 0.4160(7) 0.1573(4)
C21_7 C 0.652(2) 0.4304(9) 0.1816(5)
O12_7 O 0.5074(14) 0.4173(6) 0.1786(3)
C22_7 C 0.698(2) 0.4660(9) 0.2179(5)
C23_7 C 0.853(3) 0.4813(11) 0.2229(6)
C24_7 C 0.901(2) 0.5144(11) 0.2549(6)
H11_7 H 0.9257 0.4683 0.2038
H12_8 H 0.0071 0.0238 0.7580
C1_8 C 0.402(2) 0.1804(9) 0.8184(5)
C2_8 C 0.448(2) 0.2160(9) 0.7821(5)
C3_8 C 0.603(3) 0.2313(11) 0.7771(6)
C4_8 C 0.651(2) 0.2644(11) 0.7451(6)
H1_8 H 0.6757 0.2183 0.7962
H2_8 H 0.7571 0.2738 0.7420
O4_8 O 0.5044(15) 0.3340(7) 0.6573(4)
C8_8 C 0.598(2) 0.3196(9) 0.6816(5)
O5_8 O 0.7426(14) 0.3327(6) 0.6786(3)
C9_8 C 0.552(2) 0.2840(9) 0.7179(5)
C10_8 C 0.397(3) 0.2687(11) 0.7229(6)
C11_8 C 0.349(2) 0.2356(11) 0.7549(6)
H4_8 H 0.3243 0.2817 0.7038
H5_8 H 0.2429 0.2262 0.7580
C17_8 C 0.848(2) 0.0696(9) 0.8184(5)
C18_8 C 0.802(2) 0.0340(9) 0.7821(5)
C19_8 C 0.647(3) 0.0187(11) 0.7771(6)
H9_8 H 0.5743 0.0317 0.7962
C24_8 C 0.901(2) 0.0144(11) 0.7549(6)
C20_8 C 0.599(2) 0.9856(11) 0.7451(6)
H10_8 H 0.4929 0.9762 0.7420
O11_8 O 0.7456(15) 0.9160(7) 0.6573(4)
C21_8 C 0.652(2) 0.9304(9) 0.6816(5)
O12_8 O 0.5074(14) 0.9173(6) 0.6786(3)
C22_8 C 0.698(2) 0.9660(9) 0.7179(5)
C23_8 C 0.853(3) 0.9813(11) 0.7229(6)
H11_8 H 0.9257 0.9683 0.7038
O18_3 O 0.2472(14) 0.2915(5) 0.6140(4)
O19 O 0.5028(14) 0.4585(5) 0.6140(4)
O20_3 O 0.0028(14) 0.2915(5) 0.6360(4)
O3_5 O 0.7472(14) 0.4585(5) 0.6360(4)
C5_5 C 0.6250 0.4854(10) 0.6250
C6_5 C 0.6250 0.5589(11) 0.6250
C7_5 C 0.759(2) 0.5917(8) 0.6259(8)
H3_5 H 0.8534 0.5689 0.6277
O6_3 O 0.7472(14) 0.7915(5) 0.6140(4)
C12_5 C 0.6250 0.7646(10) 0.6250
C13_5 C 0.6250 0.6911(11) 0.6250
C14_5 C 0.759(2) 0.6583(8) 0.6241(8)
H6_5 H 0.8534 0.6811 0.6223
C15_5 C 0.491(2) 0.5917(8) 0.6241(8)
H7_5 H 0.3966 0.5689 0.6223
O8_3 O 0.5028(14) 0.7915(5) 0.6360(4)
C16_5 C 0.491(2) 0.6583(8) 0.6259(8)
H8_5 H 0.3966 0.6811 0.6277
O18_4 O 0.2472(14) 0.7915(5) 0.1140(4)
O19_2 O 0.5028(14) 0.9585(5) 0.1140(4)
O20_4 O 0.0028(14) 0.7915(5) 0.1360(4)
C6_6 C 0.6250 0.0589(11) 0.1250
C7_6 C 0.759(2) 0.0917(8) 0.1259(8)
H3_6 H 0.8534 0.0689 0.1277
O6_4 O 0.7472(14) 0.2915(5) 0.1140(4)
C12_6 C 0.6250 0.2646(10) 0.1250
C13_6 C 0.6250 0.1911(11) 0.1250
C14_6 C 0.759(2) 0.1583(8) 0.1241(8)
H6_6 H 0.8534 0.1811 0.1223
C15_6 C 0.491(2) 0.0917(8) 0.1241(8)
H7_6 H 0.3966 0.0689 0.1223
O8_4 O 0.5028(14) 0.2915(5) 0.1360(4)
C16_6 C 0.491(2) 0.1583(8) 0.1259(8)
H8_6 H 0.3966 0.1811 0.1277
O3_6 O 0.7472(14) 0.9585(5) 0.1360(4)
C5_6 C 0.6250 0.9854(10) 0.1250
O19_3 O 0.0028(14) 0.4585(5) 0.1140(4)
O3_7 O 0.2472(14) 0.4585(5) 0.1360(4)
C5_7 C 0.1250 0.4854(10) 0.1250
C6_7 C 0.1250 0.5589(11) 0.1250
C7_7 C 0.259(2) 0.5917(8) 0.1259(8)
H3_7 H 0.3534 0.5689 0.1277
C12_7 C 0.1250 0.7646(10) 0.1250
C13_7 C 0.1250 0.6911(11) 0.1250
C14_7 C 0.259(2) 0.6583(8) 0.1241(8)
H6_7 H 0.3534 0.6811 0.1223
C15_7 C 0.991(2) 0.5917(8) 0.1241(8)
H7_7 H 0.8966 0.5689 0.1223
C16_7 C 0.991(2) 0.6583(8) 0.1259(8)
H8_7 H 0.8966 0.6811 0.1277
O19_4 O 0.0028(14) 0.9585(5) 0.6140(4)
C6_8 C 0.1250 0.0589(11) 0.6250
C7_8 C 0.259(2) 0.0917(8) 0.6259(8)
H3_8 H 0.3534 0.0689 0.6277
C12_8 C 0.1250 0.2646(10) 0.6250
C13_8 C 0.1250 0.1911(11) 0.6250
C14_8 C 0.259(2) 0.1583(8) 0.6241(8)
H6_8 H 0.3534 0.1811 0.6223
O3_8 O 0.2472(14) 0.9585(5) 0.6360(4)
C5_8 C 0.1250 0.9854(10) 0.6250
C15_8 C 0.991(2) 0.0917(8) 0.6241(8)
H7_8 H 0.8966 0.0689 0.6223
C16_8 C 0.991(2) 0.1583(8) 0.6259(8)
H8_8 H 0.8966 0.1811 0.6277
loop_
_geom_bond_atom_site_label_1
_geom_bond_atom_site_label_2
_geom_bond_site_symmetry_1
_geom_bond_site_symmetry_2
C4 C3 1_555 1_555
O3 Sc1 1_555 1_555
C5 O3 1_555 1_555
C6 C5 1_555 1_555
C7 C6 1_555 1_555
H1 C3 1_555 1_555
H2 C4 1_555 1_555
H3 C7 1_555 1_555
O4 C8 1_555 1_555
C8 O5 1_555 1_555
O5 Sc9 1_555 1_555
C9 C4 1_555 1_555
O6 C12 1_555 1_555
C12 C13 1_555 1_555
C13 C14 1_555 1_555
C14 C7 1_555 1_555
H6 C14 1_555 1_555
O7 C5 1_555 1_555
C15 C6 1_555 1_555
H7 C15 1_555 1_555
O8 C12 1_555 1_555
C16 C13 1_555 1_555
H8 C16 1_555 1_555
O9 Sc1 1_555 1_555
C17 O9 1_555 1_555
O10 C17 1_555 1_555
C18 C17 1_555 1_555
C19 C18 1_555 1_555
C20 C19 1_555 1_555
H9 C19 1_555 1_555
O11 C21 1_555 1_555
C21 O12 1_555 1_555
C22 C20 1_555 1_555
C23 C22 1_555 1_555
C24 C18 1_555 1_555
H11 C23 1_555 1_555
H12 C24 1_555 1_555
Sc4 O8 1_555 1_555
Sc5 O11 1_555 1_555
Sc7 O6 1_555 1_555
Sc8 O7 1_555 1_555
O15 Sc1 1_555 1_555
C8 C9 1_555 1_555
C15 C16 1_555 1_555
O10 Sc8 1_555 1_555
C21 C22 1_555 1_555
C23 C24 1_555 1_555
O1 C1 1_555 1_555
C1 O2 1_555 1_555
O2 Sc8 1_555 1_555
C2 C1 1_555 1_555
C11 C2 1_555 1_555
H4 C10 1_555 1_555
H5 C11 1_555 1_555
Sc8 O13 1_555 1_555
O14 Sc8 1_555 1_555
O18 Sc8 1_555 1_555
C10 C11 1_555 1_555
O11_2 C21_2 1_555 1_555
C21_2 O12_2 1_555 1_555
C22_2 C20_2 1_555 1_555
C23_2 C22_2 1_555 1_555
H11_2 C23_2 1_555 1_555
Sc5_2 O11_2 1_555 1_555
C21_2 C22_2 1_555 1_555
O3_2 Sc1_2 1_555 1_555
C5_2 O3_2 1_555 1_555
H1_2 C3_2 1_555 1_555
O7_2 C5_2 1_555 1_555
O9_2 Sc1_2 1_555 1_555
C17_2 O9_2 1_555 1_555
O10_2 C17_2 1_555 1_555
C18_2 C17_2 1_555 1_555
C19_2 C18_2 1_555 1_555
H9_2 C19_2 1_555 1_555
C24_2 C18_2 1_555 1_555
H12_2 C24_2 1_555 1_555
Sc8_2 O7_2 1_555 1_555
O15_2 Sc1_2 1_555 1_555
O10_2 Sc8_2 1_555 1_555
H2_2 C4_2 1_555 1_555
O4_2 C8_2 1_555 1_555
C8_2 O5_2 1_555 1_555
O5_2 Sc9_2 1_555 1_555
C9_2 C4_2 1_555 1_555
C8_2 C9_2 1_555 1_555
C7_2 C6_2 1_555 1_555
H3_2 C7_2 1_555 1_555
O6_2 C12_2 1_555 1_555
C12_2 C13_2 1_555 1_555
C13_2 C14_2 1_555 1_555
C14_2 C7_2 1_555 1_555
H6_2 C14_2 1_555 1_555
C15_2 C6_2 1_555 1_555
H7_2 C15_2 1_555 1_555
O8_2 C12_2 1_555 1_555
C16_2 C13_2 1_555 1_555
H8_2 C16_2 1_555 1_555
Sc4_2 O8_2 1_555 1_555
Sc7_2 O6_2 1_555 1_555
C15_2 C16_2 1_555 1_555
O1_2 C1_2 1_555 1_555
C1_2 O2_2 1_555 1_555
O2_2 Sc8_2 1_555 1_555
C2_2 C1_2 1_555 1_555
C11_2 C2_2 1_555 1_555
H5_2 C11_2 1_555 1_555
Sc8_2 O13_2 1_555 1_555
O14_2 Sc8_2 1_555 1_555
O18_2 Sc8_2 1_555 1_555
H4_2 C10_2 1_555 1_555
H7_3 C15_3 1_555 1_555
H8_3 C16_3 1_555 1_555
C15_3 C16_3 1_555 1_555
H2_3 C4_3 1_555 1_555
O4_3 C8_3 1_555 1_555
C8_3 O5_3 1_555 1_555
O5_3 Sc6_2 1_555 1_555
C9_3 C4_3 1_555 1_555
C10_3 C9_3 1_555 1_555
H4_3 C10_3 1_555 1_555
H10_3 C20_3 1_555 1_555
O11_3 C21_3 1_555 1_555
C21_3 O12_3 1_555 1_555
O12_3 Sc9_2 1_555 1_555
C22_3 C20_3 1_555 1_555
C23_3 C22_3 1_555 1_555
H11_3 C23_3 1_555 1_555
Sc5_2 O4_3 1_555 1_555
Sc3_2 O11_3 1_555 1_555
C8_3 C9_3 1_555 1_555
C21_3 C22_3 1_555 1_555
Sc4_2 O1_3 1_555 1_555
O1_3 C1_3 1_555 1_555
C1_3 O2_3 1_555 1_555
O2_3 Sc7_2 1_555 1_555
C2_3 C1_3 1_555 1_555
C3_3 C2_3 1_555 1_555
O3_3 Sc4_2 1_555 1_555
C5_3 O3_3 1_555 1_555
C6_3 C5_3 1_555 1_555
C7_3 C6_3 1_555 1_555
H1_3 C3_3 1_555 1_555
H3_3 C7_3 1_555 1_555
C11_3 C2_3 1_555 1_555
H5_3 C11_3 1_555 1_555
O18_2 C12_3 1_555 1_555
C12_3 C13_3 1_555 1_555
C13_3 C14_3 1_555 1_555
C14_3 C7_3 1_555 1_555
H6_3 C14_3 1_555 1_555
O7_3 C5_3 1_555 1_555
O20_2 C12_3 1_555 1_555
O9_3 Sc4_2 1_555 1_555
C17_3 O9_3 1_555 1_555
O10_3 C17_3 1_555 1_555
C18_3 C17_3 1_555 1_555
C19_3 C18_3 1_555 1_555
H9_3 C19_3 1_555 1_555
C24_3 C18_3 1_555 1_555
O14_3 Sc7_2 1_555 1_555
O15_3 Sc4_2 1_555 1_555
O16_3 Sc4_2 1_555 1_555
H7_4 C15_4 1_555 1_555
H8_4 C16_4 1_555 1_555
C15_4 C16_4 1_555 1_555
Sc4 O1_4 1_555 1_555
O1_4 C1_4 1_555 1_555
C1_4 O2_4 1_555 1_555
O2_4 Sc7 1_555 1_555
C2_4 C1_4 1_555 1_555
C3_4 C2_4 1_555 1_555
O3_4 Sc4 1_555 1_555
C5_4 O3_4 1_555 1_555
H1_4 C3_4 1_555 1_555
C11_4 C2_4 1_555 1_555
H5_4 C11_4 1_555 1_555
O7_4 C5_4 1_555 1_555
O9_4 Sc4 1_555 1_555
C17_4 O9_4 1_555 1_555
O10_4 C17_4 1_555 1_555
C18_4 C17_4 1_555 1_555
C19_4 C18_4 1_555 1_555
C20_4 C19_4 1_555 1_555
H9_4 C19_4 1_555 1_555
H10_4 C20_4 1_555 1_555
O11_4 C21_4 1_555 1_555
C21_4 O12_4 1_555 1_555
O12_4 Sc9 1_555 1_555
C22_4 C20_4 1_555 1_555
C23_4 C22_4 1_555 1_555
C24_4 C18_4 1_555 1_555
H11_4 C23_4 1_555 1_555
Sc3 O11_4 1_555 1_555
O14_4 Sc7 1_555 1_555
O15_4 Sc4 1_555 1_555
O16_4 Sc4 1_555 1_555
C21_4 C22_4 1_555 1_555
C23_4 C24_4 1_555 1_555
C7_4 C6_4 1_555 1_555
H2_4 C4_4 1_555 1_555
H3_4 C7_4 1_555 1_555
O4_4 C8_4 1_555 1_555
C8_4 O5_4 1_555 1_555
O5_4 Sc6 1_555 1_555
C9_4 C4_4 1_555 1_555
C10_4 C9_4 1_555 1_555
H4_4 C10_4 1_555 1_555
O18 C12_4 1_555 1_555
C12_4 C13_4 1_555 1_555
C13_4 C14_4 1_555 1_555
C14_4 C7_4 1_555 1_555
H6_4 C14_4 1_555 1_555
O20 C12_4 1_555 1_555
Sc5 O4_4 1_555 1_555
C8_4 C9_4 1_555 1_555
C4_5 C3_5 1_555 1_555
H1_5 C3_5 1_555 1_555
H2_5 C4_5 1_555 1_555
O4_5 C8_5 1_555 1_555
C8_5 O5_5 1_555 1_555
O5_5 Sc5 1_555 1_555
C9_5 C4_5 1_555 1_555
C17_5 O14_3 1_555 1_555
O16_3 C17_5 1_555 1_555
C18_5 C17_5 1_555 1_555
C19_5 C18_5 1_555 1_555
C20_5 C19_5 1_555 1_555
H9_5 C19_5 1_555 1_555
O11_5 C21_5 1_555 1_555
C21_5 O12_5 1_555 1_555
C22_5 C20_5 1_555 1_555
C23_5 C22_5 1_555 1_555
C24_5 C18_5 1_555 1_555
H11_5 C23_5 1_555 1_555
H12_5 C24_5 1_555 1_555
Sc9 O11_5 1_555 1_555
C8_5 C9_5 1_555 1_555
C21_5 C22_5 1_555 1_555
C23_5 C24_5 1_555 1_555
O13_3 C1_5 1_555 1_555
C1_5 O15_3 1_555 1_555
C2_5 C1_5 1_555 1_555
C11_5 C2_5 1_555 1_555
H4_5 C10_5 1_555 1_555
H5_5 C11_5 1_555 1_555
C10_5 C11_5 1_555 1_555
C4_6 C3_6 1_555 1_555
H1_6 C3_6 1_555 1_555
H2_6 C4_6 1_555 1_555
O4_6 C8_6 1_555 1_555
C8_6 O5_6 1_555 1_555
O5_6 Sc5_2 1_555 1_555
C9_6 C4_6 1_555 1_555
C17_6 O14_4 1_555 1_555
O16_4 C17_6 1_555 1_555
C18_6 C17_6 1_555 1_555
C19_6 C18_6 1_555 1_555
H9_6 C19_6 1_555 1_555
C24_6 C18_6 1_555 1_555
H12_6 C24_6 1_555 1_555
C8_6 C9_6 1_555 1_555
O11_6 C21_6 1_555 1_555
C21_6 O12_6 1_555 1_555
C22_6 C20_6 1_555 1_555
C23_6 C22_6 1_555 1_555
H11_6 C23_6 1_555 1_555
Sc9_2 O11_6 1_555 1_555
C21_6 C22_6 1_555 1_555
O13_4 C1_6 1_555 1_555
C1_6 O15_4 1_555 1_555
C2_6 C1_6 1_555 1_555
C11_6 C2_6 1_555 1_555
H4_6 C10_6 1_555 1_555
H5_6 C11_6 1_555 1_555
C10_6 C11_6 1_555 1_555
O13 C1_7 1_555 1_555
C1_7 O15 1_555 1_555
C2_7 C1_7 1_555 1_555
C3_7 C2_7 1_555 1_555
C4_7 C3_7 1_555 1_555
H1_7 C3_7 1_555 1_555
H2_7 C4_7 1_555 1_555
O4_7 C8_7 1_555 1_555
C8_7 O5_7 1_555 1_555
O5_7 Sc3_2 1_555 1_555
C9_7 C4_7 1_555 1_555
C10_7 C9_7 1_555 1_555
C11_7 C2_7 1_555 1_555
H4_7 C10_7 1_555 1_555
H5_7 C11_7 1_555 1_555
C17_7 O14 1_555 1_555
O16 C17_7 1_555 1_555
C18_7 C17_7 1_555 1_555
C19_7 C18_7 1_555 1_555
C20_7 C19_7 1_555 1_555
H9_7 C19_7 1_555 1_555
H10_7 C20_7 1_555 1_555
O11_7 C21_7 1_555 1_555
C21_7 O12_7 1_555 1_555
O12_7 Sc5_2 1_555 1_555
C22_7 C20_7 1_555 1_555
C23_7 C22_7 1_555 1_555
C24_7 C18_7 1_555 1_555
H11_7 C23_7 1_555 1_555
Sc9_2 O4_7 1_555 1_555
Sc6_2 O11_7 1_555 1_555
C8_7 C9_7 1_555 1_555
C10_7 C11_7 1_555 1_555
C21_7 C22_7 1_555 1_555
C23_7 C24_7 1_555 1_555
O13_2 C1_8 1_555 1_555
C1_8 O15_2 1_555 1_555
C2_8 C1_8 1_555 1_555
C3_8 C2_8 1_555 1_555
C4_8 C3_8 1_555 1_555
H1_8 C3_8 1_555 1_555
H2_8 C4_8 1_555 1_555
O4_8 C8_8 1_555 1_555
C8_8 O5_8 1_555 1_555
O5_8 Sc3 1_555 1_555
C9_8 C4_8 1_555 1_555
C10_8 C9_8 1_555 1_555
C11_8 C2_8 1_555 1_555
H4_8 C10_8 1_555 1_555
H5_8 C11_8 1_555 1_555
C17_8 O14_2 1_555 1_555
O16_2 C17_8 1_555 1_555
C18_8 C17_8 1_555 1_555
C19_8 C18_8 1_555 1_555
H9_8 C19_8 1_555 1_555
C24_8 C18_8 1_555 1_555
Sc9 O4_8 1_555 1_555
C8_8 C9_8 1_555 1_555
C10_8 C11_8 1_555 1_555
H10_8 C20_8 1_555 1_555
O11_8 C21_8 1_555 1_555
C21_8 O12_8 1_555 1_555
O12_8 Sc5 1_555 1_555
C22_8 C20_8 1_555 1_555
C23_8 C22_8 1_555 1_555
H11_8 C23_8 1_555 1_555
Sc6 O11_8 1_555 1_555
C21_8 C22_8 1_555 1_555
O18_3 Sc9 1_555 1_555
O19 Sc9 1_555 1_555
O3_5 Sc3 1_555 1_555
C5_5 O3_5 1_555 1_555
C6_5 C5_5 1_555 1_555
C7_5 C6_5 1_555 1_555
H3_5 C7_5 1_555 1_555
O6_3 C12_5 1_555 1_555
C12_5 C13_5 1_555 1_555
C13_5 C14_5 1_555 1_555
C14_5 C7_5 1_555 1_555
H6_5 C14_5 1_555 1_555
O19 C5_5 1_555 1_555
C15_5 C6_5 1_555 1_555
H7_5 C15_5 1_555 1_555
O8_3 C12_5 1_555 1_555
C16_5 C13_5 1_555 1_555
H8_5 C16_5 1_555 1_555
Sc5 O8_3 1_555 1_555
Sc6 O6_3 1_555 1_555
C15_5 C16_5 1_555 1_555
O18_4 Sc9_2 1_555 1_555
O19_2 Sc9_2 1_555 1_555
C7_6 C6_6 1_555 1_555
H3_6 C7_6 1_555 1_555
O6_4 C12_6 1_555 1_555
C12_6 C13_6 1_555 1_555
C13_6 C14_6 1_555 1_555
C14_6 C7_6 1_555 1_555
H6_6 C14_6 1_555 1_555
C15_6 C6_6 1_555 1_555
H7_6 C15_6 1_555 1_555
O8_4 C12_6 1_555 1_555
C16_6 C13_6 1_555 1_555
H8_6 C16_6 1_555 1_555
Sc5_2 O8_4 1_555 1_555
Sc6_2 O6_4 1_555 1_555
C15_6 C16_6 1_555 1_555
O3_6 Sc3_2 1_555 1_555
C5_6 O3_6 1_555 1_555
O19_2 C5_6 1_555 1_555
O3_7 Sc5_2 1_555 1_555
C5_7 O3_7 1_555 1_555
C6_7 C5_7 1_555 1_555
C7_7 C6_7 1_555 1_555
H3_7 C7_7 1_555 1_555
O18_4 C12_7 1_555 1_555
C12_7 C13_7 1_555 1_555
C13_7 C14_7 1_555 1_555
C14_7 C7_7 1_555 1_555
H6_7 C14_7 1_555 1_555
O19_3 C5_7 1_555 1_555
O20_4 C12_7 1_555 1_555
H7_7 C15_7 1_555 1_555
H8_7 C16_7 1_555 1_555
C15_7 C16_7 1_555 1_555
C7_8 C6_8 1_555 1_555
H3_8 C7_8 1_555 1_555
O18_3 C12_8 1_555 1_555
C12_8 C13_8 1_555 1_555
C13_8 C14_8 1_555 1_555
C14_8 C7_8 1_555 1_555
H6_8 C14_8 1_555 1_555
O20_3 C12_8 1_555 1_555
O3_8 Sc5 1_555 1_555
C5_8 O3_8 1_555 1_555
O19_4 C5_8 1_555 1_555
H7_8 C15_8 1_555 1_555
H8_8 C16_8 1_555 1_555
C15_8 C16_8 1_555 1_555

#END
