
###############################################################################
#
# This file contains modified crystal structure data generated from the
# MOF subset of the Cambridge Structural Database (CSD) v543 
# hosted by the Cambridge Crystallographic Data Centre (CCDC).
#
# This work is licensed under the Creative Commons
# Attribution-NonCommercial-ShareAlike 4.0 International License.
# To view a copy of this license, visit
# http://creativecommons.org/licenses/by-nc-sa/4.0/
# or send a letter to
# Creative Commons, PO Box 1866, Mountain View, CA 94042, USA.
#
# CIF created using the CSD Python API on 29 September 2022
# The structure has been converted into the P1 space group
# The structure has a 3D framework
# The original CSD entry TAJTIK is in the orthorhombic crystal system
# The framework has been calculated to contain at least 10.0% void space
# The void calculation uses a probe of radius 1.32A, grid spacing 0.4
#
###############################################################################

data_TAJTIK
_chemical_formula_moiety         '(C192 H96 O90 Sc12)n'
_symmetry_cell_setting           triclinic
_symmetry_space_group_name_H-M   'P 1'
_symmetry_Int_Tables_number      1
_space_group_name_Hall           'P 1'
loop_
_symmetry_equiv_pos_site_id
_symmetry_equiv_pos_as_xyz
1 x,y,z
_cell_length_a                   8.681(4)
_cell_length_b                   20.723(7)
_cell_length_c                   34.341(13)
_cell_angle_alpha                90
_cell_angle_beta                 90
_cell_angle_gamma                90
_cell_volume                     6177.82
loop_
_atom_site_label
_atom_site_type_symbol
_atom_site_fract_x
_atom_site_fract_y
_atom_site_fract_z
_atom_site_U_iso_or_equiv
_atom_site_thermal_displace_type
Sc1 Sc 0.3750 0.3750 0.6358(3) 0.0260 Uiso
O1 O 0.252(4) 0.3362(10) 0.5913(8) 0.0690 Uiso
O2 O 0.009(4) 0.3330(11) 0.5696(8) 0.0690 Uiso
O3 O 0.244(3) 0.4584(9) 0.6353(7) 0.0530 Uiso
C1 C 0.143(6) 0.3203(18) 0.5705(12) 0.0690 Uiso
C2 C 0.201(3) 0.2837(4) 0.5328(4) 0.0690 Uiso
C3 C 0.0949(13) 0.2646(7) 0.5048(7) 0.0690 Uiso
C4 C 0.144(2) 0.2308(7) 0.4721(5) 0.0690 Uiso
C5 C 0.1250 0.490(2) 0.6250 0.0530 Uiso
C6 C 0.1250 0.5579(6) 0.6250 0.0530 Uiso
C7 C 0.2636(10) 0.5914(2) 0.62499(19) 0.0660 Uiso
H2 H 0.0746 0.2174 0.4522 0.0757 Uiso
H3 H 0.3583 0.5686 0.6249 0.0773 Uiso
O4 O 0.248(4) 0.1638(10) 0.4087(8) 0.0690 Uiso
O5 O 0.491(4) 0.1670(11) 0.4304(8) 0.0690 Uiso
C8 C 0.357(6) 0.1797(18) 0.4295(12) 0.0690 Uiso
C9 C 0.299(3) 0.2163(4) 0.4672(4) 0.0690 Uiso
C10 C 0.4051(13) 0.2354(7) 0.4952(7) 0.0690 Uiso
C11 C 0.356(2) 0.2692(7) 0.5279(5) 0.0690 Uiso
H4 H 0.5117 0.2257 0.4931 0.0756 Uiso
H5 H 0.4254 0.2826 0.5478 0.0757 Uiso
O6 O 0.244(3) 0.7916(9) 0.6147(7) 0.0530 Uiso
C12 C 0.1250 0.760(2) 0.6250 0.0530 Uiso
C13 C 0.1250 0.6921(6) 0.6250 0.0530 Uiso
C14 C 0.2636(10) 0.6586(2) 0.62501(19) 0.0660 Uiso
H6 H 0.3583 0.6814 0.6251 0.0773 Uiso
O7 O 0.006(3) 0.4584(9) 0.6147(7) 0.0530 Uiso
O8 O 0.006(3) 0.7916(9) 0.6353(7) 0.0530 Uiso
O9 O 0.498(4) 0.4138(10) 0.5913(8) 0.0690 Uiso
O10 O 0.741(4) 0.4170(11) 0.5696(8) 0.0690 Uiso
C17 C 0.607(6) 0.4297(18) 0.5705(12) 0.0690 Uiso
C18 C 0.549(3) 0.4663(4) 0.5328(4) 0.0690 Uiso
C19 C 0.6551(13) 0.4854(7) 0.5048(7) 0.0690 Uiso
C20 C 0.606(2) 0.5192(7) 0.4721(5) 0.0690 Uiso
H9 H 0.7617 0.4757 0.5069 0.0756 Uiso
H10 H 0.6754 0.5326 0.4522 0.0757 Uiso
O11 O 0.502(4) 0.5862(10) 0.4087(8) 0.0690 Uiso
O12 O 0.259(4) 0.5830(11) 0.4304(8) 0.0690 Uiso
C21 C 0.393(6) 0.5703(18) 0.4295(12) 0.0690 Uiso
C22 C 0.451(3) 0.5337(4) 0.4672(4) 0.0690 Uiso
C23 C 0.3449(13) 0.5146(7) 0.4952(7) 0.0690 Uiso
C24 C 0.394(2) 0.4808(7) 0.5279(5) 0.0690 Uiso
H11 H 0.2383 0.5243 0.4931 0.0756 Uiso
H12 H 0.3246 0.4674 0.5478 0.0757 Uiso
Sc3 Sc 0.6250 0.6250 0.3642(3) 0.0260 Uiso
Sc5 Sc 0.1250 0.1250 0.3642(3) 0.0260 Uiso
Sc6 Sc 0.3750 0.8750 0.6142(3) 0.0260 Uiso
Sc7 Sc 0.6250 0.1250 0.3858(3) 0.0260 Uiso
Sc8 Sc 0.1250 0.6250 0.3858(3) 0.0260 Uiso
Sc9 Sc 0.8750 0.3750 0.6142(3) 0.0260 Uiso
O15 O 0.509(4) 0.4170(11) 0.6804(8) 0.0690 Uiso
O16 O 0.241(4) 0.3330(11) 0.6804(8) 0.0690 Uiso
O19 O 0.506(3) 0.2916(9) 0.6353(7) 0.0530 Uiso
H1 H 0.9883 0.2743 0.5069 0.0756 Uiso
C15 C 0.9864(10) 0.5914(2) 0.62501(19) 0.0660 Uiso
H7 H 0.8917 0.5686 0.6251 0.0773 Uiso
C16 C 0.9864(10) 0.6586(2) 0.62499(19) 0.0660 Uiso
H8 H 0.8917 0.6814 0.6249 0.0773 Uiso
Sc4 Sc 0.8750 0.8750 0.6358(3) 0.0260 Uiso
O13 O 0.752(4) 0.4138(10) 0.6587(8) 0.0690 Uiso
O14 O 0.998(4) 0.3362(10) 0.6587(8) 0.0690 Uiso
O18 O 0.744(3) 0.2916(9) 0.6147(7) 0.0530 Uiso
C6_2 C 0.1250 0.0579(6) 0.1250 0.0530 Uiso
C7_2 C 0.2636(10) 0.0914(2) 0.12499(19) 0.0660 Uiso
H3_2 H 0.3583 0.0686 0.1249 0.0773 Uiso
O6_2 O 0.244(3) 0.2916(9) 0.1147(7) 0.0530 Uiso
C12_2 C 0.1250 0.260(2) 0.1250 0.0530 Uiso
C13_2 C 0.1250 0.1921(6) 0.1250 0.0530 Uiso
C14_2 C 0.2636(10) 0.1586(2) 0.12501(19) 0.0660 Uiso
H6_2 H 0.3583 0.1814 0.1251 0.0773 Uiso
O8_2 O 0.006(3) 0.2916(9) 0.1353(7) 0.0530 Uiso
Sc6_2 Sc 0.3750 0.3750 0.1142(3) 0.0260 Uiso
C20_2 C 0.606(2) 0.0192(7) 0.9721(5) 0.0690 Uiso
H10_2 H 0.6754 0.0326 0.9522 0.0757 Uiso
O11_2 O 0.502(4) 0.0862(10) 0.9087(8) 0.0690 Uiso
O12_2 O 0.259(4) 0.0830(11) 0.9304(8) 0.0690 Uiso
C21_2 C 0.393(6) 0.0703(18) 0.9295(12) 0.0690 Uiso
C22_2 C 0.451(3) 0.0337(4) 0.9672(4) 0.0690 Uiso
C23_2 C 0.3449(13) 0.0146(7) 0.9952(7) 0.0690 Uiso
H11_2 H 0.2383 0.0243 0.9931 0.0756 Uiso
Sc3_2 Sc 0.6250 0.1250 0.8642(3) 0.0260 Uiso
Sc8_2 Sc 0.1250 0.1250 0.8858(3) 0.0260 Uiso
Sc1_2 Sc 0.3750 0.8750 0.1358(3) 0.0260 Uiso
O1_2 O 0.252(4) 0.8362(10) 0.0913(8) 0.0690 Uiso
O2_2 O 0.009(4) 0.8330(11) 0.0696(8) 0.0690 Uiso
O3_2 O 0.244(3) 0.9584(9) 0.1353(7) 0.0530 Uiso
C1_2 C 0.143(6) 0.8203(18) 0.0705(12) 0.0690 Uiso
C2_2 C 0.201(3) 0.7837(4) 0.0328(4) 0.0690 Uiso
C3_2 C 0.0949(13) 0.7646(7) 0.0048(7) 0.0690 Uiso
C5_2 C 0.1250 0.990(2) 0.1250 0.0530 Uiso
C11_2 C 0.356(2) 0.7692(7) 0.0279(5) 0.0690 Uiso
H5_2 H 0.4254 0.7826 0.0478 0.0757 Uiso
O7_2 O 0.006(3) 0.9584(9) 0.1147(7) 0.0530 Uiso
O9_2 O 0.498(4) 0.9138(10) 0.0913(8) 0.0690 Uiso
O10_2 O 0.741(4) 0.9170(11) 0.0696(8) 0.0690 Uiso
C17_2 C 0.607(6) 0.9297(18) 0.0705(12) 0.0690 Uiso
C18_2 C 0.549(3) 0.9663(4) 0.0328(4) 0.0690 Uiso
C19_2 C 0.6551(13) 0.9854(7) 0.0048(7) 0.0690 Uiso
H9_2 H 0.7617 0.9757 0.0069 0.0756 Uiso
C24_2 C 0.394(2) 0.9808(7) 0.0279(5) 0.0690 Uiso
H12_2 H 0.3246 0.9674 0.0478 0.0757 Uiso
Sc9_2 Sc 0.8750 0.8750 0.1142(3) 0.0260 Uiso
O15_2 O 0.509(4) 0.9170(11) 0.1804(8) 0.0690 Uiso
O16_2 O 0.241(4) 0.8330(11) 0.1804(8) 0.0690 Uiso
O19_2 O 0.506(3) 0.7916(9) 0.1353(7) 0.0530 Uiso
C4_2 C 0.144(2) 0.7308(7) 0.9721(5) 0.0690 Uiso
H2_2 H 0.0746 0.7174 0.9522 0.0757 Uiso
O4_2 O 0.248(4) 0.6638(10) 0.9087(8) 0.0690 Uiso
O5_2 O 0.491(4) 0.6670(11) 0.9304(8) 0.0690 Uiso
C8_2 C 0.357(6) 0.6797(18) 0.9295(12) 0.0690 Uiso
C9_2 C 0.299(3) 0.7163(4) 0.9672(4) 0.0690 Uiso
C10_2 C 0.4051(13) 0.7354(7) 0.9952(7) 0.0690 Uiso
H4_2 H 0.5117 0.7257 0.9931 0.0756 Uiso
Sc5_2 Sc 0.1250 0.6250 0.8642(3) 0.0260 Uiso
Sc7_2 Sc 0.6250 0.6250 0.8858(3) 0.0260 Uiso
C15_2 C 0.9864(10) 0.0914(2) 0.12501(19) 0.0660 Uiso
H7_2 H 0.8917 0.0686 0.1251 0.0773 Uiso
C16_2 C 0.9864(10) 0.1586(2) 0.12499(19) 0.0660 Uiso
H8_2 H 0.8917 0.1814 0.1249 0.0773 Uiso
Sc4_2 Sc 0.8750 0.3750 0.1358(3) 0.0260 Uiso
H1_2 H 0.9883 0.7743 0.0069 0.0756 Uiso
O13_2 O 0.752(4) 0.9138(10) 0.1587(8) 0.0690 Uiso
O14_2 O 0.998(4) 0.8362(10) 0.1587(8) 0.0690 Uiso
O18_2 O 0.744(3) 0.7916(9) 0.1147(7) 0.0530 Uiso
O10_3 O 0.241(4) 0.4170(11) 0.0696(8) 0.0690 Uiso
C17_3 C 0.107(6) 0.4297(18) 0.0705(12) 0.0690 Uiso
C18_3 C 0.049(3) 0.4663(4) 0.0328(4) 0.0690 Uiso
C19_3 C 0.1551(13) 0.4854(7) 0.0048(7) 0.0690 Uiso
H9_3 H 0.2617 0.4757 0.0069 0.0756 Uiso
O15_3 O 0.009(4) 0.4170(11) 0.1804(8) 0.0690 Uiso
H4_3 H 0.0117 0.2257 0.9931 0.0756 Uiso
C20_3 C 0.106(2) 0.5192(7) 0.9721(5) 0.0690 Uiso
H10_3 H 0.1754 0.5326 0.9522 0.0757 Uiso
O11_3 O 0.002(4) 0.5862(10) 0.9087(8) 0.0690 Uiso
O1_3 O 0.752(4) 0.3362(10) 0.0913(8) 0.0690 Uiso
O2_3 O 0.509(4) 0.3330(11) 0.0696(8) 0.0690 Uiso
O3_3 O 0.744(3) 0.4584(9) 0.1353(7) 0.0530 Uiso
C1_3 C 0.643(6) 0.3203(18) 0.0705(12) 0.0690 Uiso
C2_3 C 0.701(3) 0.2837(4) 0.0328(4) 0.0690 Uiso
C3_3 C 0.5949(13) 0.2646(7) 0.0048(7) 0.0690 Uiso
C5_3 C 0.6250 0.490(2) 0.1250 0.0530 Uiso
C6_3 C 0.6250 0.5579(6) 0.1250 0.0530 Uiso
C7_3 C 0.7636(10) 0.5914(2) 0.12499(19) 0.0660 Uiso
H1_3 H 0.4883 0.2743 0.0069 0.0756 Uiso
H3_3 H 0.8583 0.5686 0.1249 0.0773 Uiso
C11_3 C 0.856(2) 0.2692(7) 0.0279(5) 0.0690 Uiso
H5_3 H 0.9254 0.2826 0.0478 0.0757 Uiso
C12_3 C 0.6250 0.760(2) 0.1250 0.0530 Uiso
C13_3 C 0.6250 0.6921(6) 0.1250 0.0530 Uiso
C14_3 C 0.7636(10) 0.6586(2) 0.12501(19) 0.0660 Uiso
H6_3 H 0.8583 0.6814 0.1251 0.0773 Uiso
O7_3 O 0.506(3) 0.4584(9) 0.1147(7) 0.0530 Uiso
C15_3 C 0.4864(10) 0.5914(2) 0.12501(19) 0.0660 Uiso
H7_3 H 0.3917 0.5686 0.1251 0.0773 Uiso
C16_3 C 0.4864(10) 0.6586(2) 0.12499(19) 0.0660 Uiso
H8_3 H 0.3917 0.6814 0.1249 0.0773 Uiso
O9_3 O 0.998(4) 0.4138(10) 0.0913(8) 0.0690 Uiso
C24_3 C 0.894(2) 0.4808(7) 0.0279(5) 0.0690 Uiso
H12_3 H 0.8246 0.4674 0.0478 0.0757 Uiso
O13_3 O 0.252(4) 0.4138(10) 0.1587(8) 0.0690 Uiso
O14_3 O 0.498(4) 0.3362(10) 0.1587(8) 0.0690 Uiso
O16_3 O 0.741(4) 0.3330(11) 0.1804(8) 0.0690 Uiso
C4_3 C 0.644(2) 0.2308(7) 0.9721(5) 0.0690 Uiso
H2_3 H 0.5746 0.2174 0.9522 0.0757 Uiso
O4_3 O 0.748(4) 0.1638(10) 0.9087(8) 0.0690 Uiso
O5_3 O 0.991(4) 0.1670(11) 0.9304(8) 0.0690 Uiso
C8_3 C 0.857(6) 0.1797(18) 0.9295(12) 0.0690 Uiso
C9_3 C 0.799(3) 0.2163(4) 0.9672(4) 0.0690 Uiso
C10_3 C 0.9051(13) 0.2354(7) 0.9952(7) 0.0690 Uiso
O12_3 O 0.759(4) 0.5830(11) 0.9304(8) 0.0690 Uiso
C21_3 C 0.893(6) 0.5703(18) 0.9295(12) 0.0690 Uiso
C22_3 C 0.951(3) 0.5337(4) 0.9672(4) 0.0690 Uiso
C23_3 C 0.8449(13) 0.5146(7) 0.9952(7) 0.0690 Uiso
H11_3 H 0.7383 0.5243 0.9931 0.0756 Uiso
C20_4 C 0.106(2) 0.0192(7) 0.4721(5) 0.0690 Uiso
H10_4 H 0.1754 0.0326 0.4522 0.0757 Uiso
O11_4 O 0.002(4) 0.0862(10) 0.4087(8) 0.0690 Uiso
H4_4 H 0.0117 0.7257 0.4931 0.0756 Uiso
O10_4 O 0.241(4) 0.9170(11) 0.5696(8) 0.0690 Uiso
C17_4 C 0.107(6) 0.9297(18) 0.5705(12) 0.0690 Uiso
C18_4 C 0.049(3) 0.9663(4) 0.5328(4) 0.0690 Uiso
C19_4 C 0.1551(13) 0.9854(7) 0.5048(7) 0.0690 Uiso
H9_4 H 0.2617 0.9757 0.5069 0.0756 Uiso
O15_4 O 0.009(4) 0.9170(11) 0.6804(8) 0.0690 Uiso
C6_4 C 0.6250 0.0579(6) 0.6250 0.0530 Uiso
C7_4 C 0.7636(10) 0.0914(2) 0.62499(19) 0.0660 Uiso
H3_4 H 0.8583 0.0686 0.6249 0.0773 Uiso
C12_4 C 0.6250 0.260(2) 0.6250 0.0530 Uiso
C13_4 C 0.6250 0.1921(6) 0.6250 0.0530 Uiso
C14_4 C 0.7636(10) 0.1586(2) 0.62501(19) 0.0660 Uiso
H6_4 H 0.8583 0.1814 0.6251 0.0773 Uiso
C15_4 C 0.4864(10) 0.0914(2) 0.62501(19) 0.0660 Uiso
H7_4 H 0.3917 0.0686 0.6251 0.0773 Uiso
C16_4 C 0.4864(10) 0.1586(2) 0.62499(19) 0.0660 Uiso
H8_4 H 0.3917 0.1814 0.6249 0.0773 Uiso
O12_4 O 0.759(4) 0.0830(11) 0.4304(8) 0.0690 Uiso
C21_4 C 0.893(6) 0.0703(18) 0.4295(12) 0.0690 Uiso
C22_4 C 0.951(3) 0.0337(4) 0.4672(4) 0.0690 Uiso
C23_4 C 0.8449(13) 0.0146(7) 0.4952(7) 0.0690 Uiso
H11_4 H 0.7383 0.0243 0.4931 0.0756 Uiso
O1_4 O 0.752(4) 0.8362(10) 0.5913(8) 0.0690 Uiso
O2_4 O 0.509(4) 0.8330(11) 0.5696(8) 0.0690 Uiso
O3_4 O 0.744(3) 0.9584(9) 0.6353(7) 0.0530 Uiso
C1_4 C 0.643(6) 0.8203(18) 0.5705(12) 0.0690 Uiso
C2_4 C 0.701(3) 0.7837(4) 0.5328(4) 0.0690 Uiso
C3_4 C 0.5949(13) 0.7646(7) 0.5048(7) 0.0690 Uiso
C4_4 C 0.644(2) 0.7308(7) 0.4721(5) 0.0690 Uiso
C5_4 C 0.6250 0.990(2) 0.6250 0.0530 Uiso
H1_4 H 0.4883 0.7743 0.5069 0.0756 Uiso
H2_4 H 0.5746 0.7174 0.4522 0.0757 Uiso
O4_4 O 0.748(4) 0.6638(10) 0.4087(8) 0.0690 Uiso
O5_4 O 0.991(4) 0.6670(11) 0.4304(8) 0.0690 Uiso
C8_4 C 0.857(6) 0.6797(18) 0.4295(12) 0.0690 Uiso
C9_4 C 0.799(3) 0.7163(4) 0.4672(4) 0.0690 Uiso
C10_4 C 0.9051(13) 0.7354(7) 0.4952(7) 0.0690 Uiso
C11_4 C 0.856(2) 0.7692(7) 0.5279(5) 0.0690 Uiso
H5_4 H 0.9254 0.7826 0.5478 0.0757 Uiso
O7_4 O 0.506(3) 0.9584(9) 0.6147(7) 0.0530 Uiso
O9_4 O 0.998(4) 0.9138(10) 0.5913(8) 0.0690 Uiso
C24_4 C 0.894(2) 0.9808(7) 0.5279(5) 0.0690 Uiso
H12_4 H 0.8246 0.9674 0.5478 0.0757 Uiso
O13_4 O 0.252(4) 0.9138(10) 0.6587(8) 0.0690 Uiso
O14_4 O 0.498(4) 0.8362(10) 0.6587(8) 0.0690 Uiso
O16_4 O 0.741(4) 0.8330(11) 0.6804(8) 0.0690 Uiso
C4_5 C 0.144(2) 0.0192(7) 0.7779(5) 0.0690 Uiso
H2_5 H 0.0746 0.0326 0.7978 0.0757 Uiso
O4_5 O 0.248(4) 0.0862(10) 0.8413(8) 0.0690 Uiso
O5_5 O 0.491(4) 0.0830(11) 0.8196(8) 0.0690 Uiso
C8_5 C 0.357(6) 0.0703(18) 0.8205(12) 0.0690 Uiso
C9_5 C 0.299(3) 0.0337(4) 0.7828(4) 0.0690 Uiso
C10_5 C 0.4051(13) 0.0146(7) 0.7548(7) 0.0690 Uiso
H4_5 H 0.5117 0.0243 0.7569 0.0756 Uiso
C1_5 C 0.143(6) 0.9297(18) 0.6795(12) 0.0690 Uiso
C2_5 C 0.201(3) 0.9663(4) 0.7172(4) 0.0690 Uiso
C3_5 C 0.0949(13) 0.9854(7) 0.7452(7) 0.0690 Uiso
C11_5 C 0.356(2) 0.9808(7) 0.7221(5) 0.0690 Uiso
H5_5 H 0.4254 0.9674 0.7022 0.0757 Uiso
C17_5 C 0.607(6) 0.8203(18) 0.6795(12) 0.0690 Uiso
C18_5 C 0.549(3) 0.7837(4) 0.7172(4) 0.0690 Uiso
C19_5 C 0.6551(13) 0.7646(7) 0.7452(7) 0.0690 Uiso
C20_5 C 0.606(2) 0.7308(7) 0.7779(5) 0.0690 Uiso
H9_5 H 0.7617 0.7743 0.7431 0.0756 Uiso
H10_5 H 0.6754 0.7174 0.7978 0.0757 Uiso
O11_5 O 0.502(4) 0.6638(10) 0.8413(8) 0.0690 Uiso
O12_5 O 0.259(4) 0.6670(11) 0.8196(8) 0.0690 Uiso
C21_5 C 0.393(6) 0.6797(18) 0.8205(12) 0.0690 Uiso
C22_5 C 0.451(3) 0.7163(4) 0.7828(4) 0.0690 Uiso
C23_5 C 0.3449(13) 0.7354(7) 0.7548(7) 0.0690 Uiso
C24_5 C 0.394(2) 0.7692(7) 0.7221(5) 0.0690 Uiso
H11_5 H 0.2383 0.7257 0.7569 0.0756 Uiso
H12_5 H 0.3246 0.7826 0.7022 0.0757 Uiso
H1_5 H 0.9883 0.9757 0.7431 0.0756 Uiso
C1_6 C 0.143(6) 0.4297(18) 0.1795(12) 0.0690 Uiso
C2_6 C 0.201(3) 0.4663(4) 0.2172(4) 0.0690 Uiso
C3_6 C 0.0949(13) 0.4854(7) 0.2452(7) 0.0690 Uiso
C4_6 C 0.144(2) 0.5192(7) 0.2779(5) 0.0690 Uiso
H2_6 H 0.0746 0.5326 0.2978 0.0757 Uiso
O4_6 O 0.248(4) 0.5862(10) 0.3413(8) 0.0690 Uiso
O5_6 O 0.491(4) 0.5830(11) 0.3196(8) 0.0690 Uiso
C8_6 C 0.357(6) 0.5703(18) 0.3205(12) 0.0690 Uiso
C9_6 C 0.299(3) 0.5337(4) 0.2828(4) 0.0690 Uiso
C10_6 C 0.4051(13) 0.5146(7) 0.2548(7) 0.0690 Uiso
C11_6 C 0.356(2) 0.4808(7) 0.2221(5) 0.0690 Uiso
H4_6 H 0.5117 0.5243 0.2569 0.0756 Uiso
H5_6 H 0.4254 0.4674 0.2022 0.0757 Uiso
C17_6 C 0.607(6) 0.3203(18) 0.1795(12) 0.0690 Uiso
C18_6 C 0.549(3) 0.2837(4) 0.2172(4) 0.0690 Uiso
C19_6 C 0.6551(13) 0.2646(7) 0.2452(7) 0.0690 Uiso
C20_6 C 0.606(2) 0.2308(7) 0.2779(5) 0.0690 Uiso
H9_6 H 0.7617 0.2743 0.2431 0.0756 Uiso
H10_6 H 0.6754 0.2174 0.2978 0.0757 Uiso
O11_6 O 0.502(4) 0.1638(10) 0.3413(8) 0.0690 Uiso
O12_6 O 0.259(4) 0.1670(11) 0.3196(8) 0.0690 Uiso
C21_6 C 0.393(6) 0.1797(18) 0.3205(12) 0.0690 Uiso
C22_6 C 0.451(3) 0.2163(4) 0.2828(4) 0.0690 Uiso
C23_6 C 0.3449(13) 0.2354(7) 0.2548(7) 0.0690 Uiso
C24_6 C 0.394(2) 0.2692(7) 0.2221(5) 0.0690 Uiso
H11_6 H 0.2383 0.2257 0.2569 0.0756 Uiso
H12_6 H 0.3246 0.2826 0.2022 0.0757 Uiso
H1_6 H 0.9883 0.4757 0.2431 0.0756 Uiso
H4_7 H 0.0117 0.0243 0.2569 0.0756 Uiso
C17_7 C 0.107(6) 0.8203(18) 0.1795(12) 0.0690 Uiso
C18_7 C 0.049(3) 0.7837(4) 0.2172(4) 0.0690 Uiso
C19_7 C 0.1551(13) 0.7646(7) 0.2452(7) 0.0690 Uiso
C20_7 C 0.106(2) 0.7308(7) 0.2779(5) 0.0690 Uiso
H9_7 H 0.2617 0.7743 0.2431 0.0756 Uiso
H10_7 H 0.1754 0.7174 0.2978 0.0757 Uiso
O11_7 O 0.002(4) 0.6638(10) 0.3413(8) 0.0690 Uiso
C4_7 C 0.644(2) 0.0192(7) 0.2779(5) 0.0690 Uiso
H2_7 H 0.5746 0.0326 0.2978 0.0757 Uiso
O4_7 O 0.748(4) 0.0862(10) 0.3413(8) 0.0690 Uiso
O5_7 O 0.991(4) 0.0830(11) 0.3196(8) 0.0690 Uiso
C8_7 C 0.857(6) 0.0703(18) 0.3205(12) 0.0690 Uiso
C9_7 C 0.799(3) 0.0337(4) 0.2828(4) 0.0690 Uiso
C10_7 C 0.9051(13) 0.0146(7) 0.2548(7) 0.0690 Uiso
C1_7 C 0.643(6) 0.9297(18) 0.1795(12) 0.0690 Uiso
C2_7 C 0.701(3) 0.9663(4) 0.2172(4) 0.0690 Uiso
C3_7 C 0.5949(13) 0.9854(7) 0.2452(7) 0.0690 Uiso
H1_7 H 0.4883 0.9757 0.2431 0.0756 Uiso
C11_7 C 0.856(2) 0.9808(7) 0.2221(5) 0.0690 Uiso
H5_7 H 0.9254 0.9674 0.2022 0.0757 Uiso
O12_7 O 0.759(4) 0.6670(11) 0.3196(8) 0.0690 Uiso
C21_7 C 0.893(6) 0.6797(18) 0.3205(12) 0.0690 Uiso
C22_7 C 0.951(3) 0.7163(4) 0.2828(4) 0.0690 Uiso
C23_7 C 0.8449(13) 0.7354(7) 0.2548(7) 0.0690 Uiso
C24_7 C 0.894(2) 0.7692(7) 0.2221(5) 0.0690 Uiso
H11_7 H 0.7383 0.7257 0.2569 0.0756 Uiso
H12_7 H 0.8246 0.7826 0.2022 0.0757 Uiso
H4_8 H 0.0117 0.5243 0.7569 0.0756 Uiso
C17_8 C 0.107(6) 0.3203(18) 0.6795(12) 0.0690 Uiso
C18_8 C 0.049(3) 0.2837(4) 0.7172(4) 0.0690 Uiso
C19_8 C 0.1551(13) 0.2646(7) 0.7452(7) 0.0690 Uiso
C20_8 C 0.106(2) 0.2308(7) 0.7779(5) 0.0690 Uiso
H9_8 H 0.2617 0.2743 0.7431 0.0756 Uiso
H10_8 H 0.1754 0.2174 0.7978 0.0757 Uiso
O11_8 O 0.002(4) 0.1638(10) 0.8413(8) 0.0690 Uiso
C1_8 C 0.643(6) 0.4297(18) 0.6795(12) 0.0690 Uiso
C2_8 C 0.701(3) 0.4663(4) 0.7172(4) 0.0690 Uiso
C3_8 C 0.5949(13) 0.4854(7) 0.7452(7) 0.0690 Uiso
C4_8 C 0.644(2) 0.5192(7) 0.7779(5) 0.0690 Uiso
H1_8 H 0.4883 0.4757 0.7431 0.0756 Uiso
H2_8 H 0.5746 0.5326 0.7978 0.0757 Uiso
O4_8 O 0.748(4) 0.5862(10) 0.8413(8) 0.0690 Uiso
O5_8 O 0.991(4) 0.5830(11) 0.8196(8) 0.0690 Uiso
C8_8 C 0.857(6) 0.5703(18) 0.8205(12) 0.0690 Uiso
C9_8 C 0.799(3) 0.5337(4) 0.7828(4) 0.0690 Uiso
C10_8 C 0.9051(13) 0.5146(7) 0.7548(7) 0.0690 Uiso
C11_8 C 0.856(2) 0.4808(7) 0.7221(5) 0.0690 Uiso
H5_8 H 0.9254 0.4674 0.7022 0.0757 Uiso
O12_8 O 0.759(4) 0.1670(11) 0.8196(8) 0.0690 Uiso
C21_8 C 0.893(6) 0.1797(18) 0.8205(12) 0.0690 Uiso
C22_8 C 0.951(3) 0.2163(4) 0.7828(4) 0.0690 Uiso
C23_8 C 0.8449(13) 0.2354(7) 0.7548(7) 0.0690 Uiso
C24_8 C 0.894(2) 0.2692(7) 0.7221(5) 0.0690 Uiso
H11_8 H 0.7383 0.2257 0.7569 0.0756 Uiso
H12_8 H 0.8246 0.2826 0.7022 0.0757 Uiso
C15_5 C 0.0136(10) 0.4086(2) 0.37499(19) 0.0660 Uiso
H7_5 H 0.1083 0.4314 0.3749 0.0773 Uiso
C16_5 C 0.0136(10) 0.3414(2) 0.37501(19) 0.0660 Uiso
H8_5 H 0.1083 0.3186 0.3751 0.0773 Uiso
O18_3 O 0.256(3) 0.7084(9) 0.3853(7) 0.0530 Uiso
O3_5 O 0.756(3) 0.5416(9) 0.3647(7) 0.0530 Uiso
C5_5 C 0.8750 0.510(2) 0.3750 0.0530 Uiso
C6_5 C 0.8750 0.4421(6) 0.3750 0.0530 Uiso
C7_5 C 0.7364(10) 0.4086(2) 0.37501(19) 0.0660 Uiso
H3_5 H 0.6417 0.4314 0.3751 0.0773 Uiso
O6_3 O 0.756(3) 0.2084(9) 0.3853(7) 0.0530 Uiso
C12_5 C 0.8750 0.240(2) 0.3750 0.0530 Uiso
C13_5 C 0.8750 0.3079(6) 0.3750 0.0530 Uiso
C14_5 C 0.7364(10) 0.3414(2) 0.37499(19) 0.0660 Uiso
H6_5 H 0.6417 0.3186 0.3749 0.0773 Uiso
O7_5 O 0.994(3) 0.5416(9) 0.3853(7) 0.0530 Uiso
O8_3 O 0.994(3) 0.2084(9) 0.3647(7) 0.0530 Uiso
O19_3 O 0.494(3) 0.7084(9) 0.3647(7) 0.0530 Uiso
O18_4 O 0.256(3) 0.2084(9) 0.8853(7) 0.0530 Uiso
C15_6 C 0.0136(10) 0.9086(2) 0.87499(19) 0.0660 Uiso
H7_6 H 0.1083 0.9314 0.8749 0.0773 Uiso
C16_6 C 0.0136(10) 0.8414(2) 0.87501(19) 0.0660 Uiso
H8_6 H 0.1083 0.8186 0.8751 0.0773 Uiso
O3_6 O 0.756(3) 0.0416(9) 0.8647(7) 0.0530 Uiso
C5_6 C 0.8750 0.010(2) 0.8750 0.0530 Uiso
O7_6 O 0.994(3) 0.0416(9) 0.8853(7) 0.0530 Uiso
O19_4 O 0.494(3) 0.2084(9) 0.8647(7) 0.0530 Uiso
C6_6 C 0.8750 0.9421(6) 0.8750 0.0530 Uiso
C7_6 C 0.7364(10) 0.9086(2) 0.87501(19) 0.0660 Uiso
H3_6 H 0.6417 0.9314 0.8751 0.0773 Uiso
O6_4 O 0.756(3) 0.7084(9) 0.8853(7) 0.0530 Uiso
C12_6 C 0.8750 0.740(2) 0.8750 0.0530 Uiso
C13_6 C 0.8750 0.8079(6) 0.8750 0.0530 Uiso
C14_6 C 0.7364(10) 0.8414(2) 0.87499(19) 0.0660 Uiso
H6_6 H 0.6417 0.8186 0.8749 0.0773 Uiso
O8_4 O 0.994(3) 0.7084(9) 0.8647(7) 0.0530 Uiso
O3_7 O 0.256(3) 0.5416(9) 0.8647(7) 0.0530 Uiso
C5_7 C 0.3750 0.510(2) 0.8750 0.0530 Uiso
C6_7 C 0.3750 0.4421(6) 0.8750 0.0530 Uiso
C7_7 C 0.2364(10) 0.4086(2) 0.87501(19) 0.0660 Uiso
H3_7 H 0.1417 0.4314 0.8751 0.0773 Uiso
C12_7 C 0.3750 0.240(2) 0.8750 0.0530 Uiso
C13_7 C 0.3750 0.3079(6) 0.8750 0.0530 Uiso
C14_7 C 0.2364(10) 0.3414(2) 0.87499(19) 0.0660 Uiso
H6_7 H 0.1417 0.3186 0.8749 0.0773 Uiso
O7_7 O 0.494(3) 0.5416(9) 0.8853(7) 0.0530 Uiso
C15_7 C 0.5136(10) 0.4086(2) 0.87499(19) 0.0660 Uiso
H7_7 H 0.6083 0.4314 0.8749 0.0773 Uiso
C16_7 C 0.5136(10) 0.3414(2) 0.87501(19) 0.0660 Uiso
H8_7 H 0.6083 0.3186 0.8751 0.0773 Uiso
O3_8 O 0.256(3) 0.0416(9) 0.3647(7) 0.0530 Uiso
C5_8 C 0.3750 0.010(2) 0.3750 0.0530 Uiso
O7_8 O 0.494(3) 0.0416(9) 0.3853(7) 0.0530 Uiso
C6_8 C 0.3750 0.9421(6) 0.3750 0.0530 Uiso
C7_8 C 0.2364(10) 0.9086(2) 0.37501(19) 0.0660 Uiso
H3_8 H 0.1417 0.9314 0.3751 0.0773 Uiso
C12_8 C 0.3750 0.740(2) 0.3750 0.0530 Uiso
C13_8 C 0.3750 0.8079(6) 0.3750 0.0530 Uiso
C14_8 C 0.2364(10) 0.8414(2) 0.37499(19) 0.0660 Uiso
H6_8 H 0.1417 0.8186 0.3749 0.0773 Uiso
C15_8 C 0.5136(10) 0.9086(2) 0.37499(19) 0.0660 Uiso
H7_8 H 0.6083 0.9314 0.3749 0.0773 Uiso
C16_8 C 0.5136(10) 0.8414(2) 0.37501(19) 0.0660 Uiso
H8_8 H 0.6083 0.8186 0.3751 0.0773 Uiso
loop_
_geom_bond_atom_site_label_1
_geom_bond_atom_site_label_2
_geom_bond_site_symmetry_1
_geom_bond_site_symmetry_2
Sc1 O1 1_555 1_555
O1 C1 1_555 1_555
O2 C1 1_555 1_555
O3 Sc1 1_555 1_555
C1 C2 1_555 1_555
C2 C3 1_555 1_555
C3 C4 1_555 1_555
C4 H2 1_555 1_555
C5 O3 1_555 1_555
C6 C5 1_555 1_555
C7 C6 1_555 1_555
H3 C7 1_555 1_555
O4 C8 1_555 1_555
O5 C8 1_555 1_555
C8 C9 1_555 1_555
C9 C4 1_555 1_555
C10 C9 1_555 1_555
C11 C2 1_555 1_555
H4 C10 1_555 1_555
H5 C11 1_555 1_555
O6 C12 1_555 1_555
C12 C13 1_555 1_555
C13 C14 1_555 1_555
C14 C7 1_555 1_555
H6 C14 1_555 1_555
O7 C5 1_555 1_555
O8 C12 1_555 1_555
O9 Sc1 1_555 1_555
O10 C17 1_555 1_555
C17 O9 1_555 1_555
C18 C17 1_555 1_555
C19 C18 1_555 1_555
C20 C19 1_555 1_555
H9 C19 1_555 1_555
H10 C20 1_555 1_555
O11 C21 1_555 1_555
O12 C21 1_555 1_555
C21 C22 1_555 1_555
C22 C20 1_555 1_555
C23 C22 1_555 1_555
C24 C18 1_555 1_555
H11 C23 1_555 1_555
H12 C24 1_555 1_555
Sc3 O11 1_555 1_555
Sc5 O4 1_555 1_555
Sc6 O6 1_555 1_555
Sc7 O5 1_555 1_555
Sc8 O12 1_555 1_555
Sc9 O10 1_555 1_555
O15 Sc1 1_555 1_555
O16 Sc1 1_555 1_555
O19 Sc1 1_555 1_555
C10 C11 1_555 1_555
C23 C24 1_555 1_555
H7 C15 1_555 1_555
H8 C16 1_555 1_555
O13 Sc9 1_555 1_555
O14 Sc9 1_555 1_555
O18 Sc9 1_555 1_555
C15 C16 1_555 1_555
C7_2 C6_2 1_555 1_555
H3_2 C7_2 1_555 1_555
O6_2 C12_2 1_555 1_555
C12_2 C13_2 1_555 1_555
C13_2 C14_2 1_555 1_555
C14_2 C7_2 1_555 1_555
H6_2 C14_2 1_555 1_555
O8_2 C12_2 1_555 1_555
Sc6_2 O6_2 1_555 1_555
H10_2 C20_2 1_555 1_555
O11_2 C21_2 1_555 1_555
O12_2 C21_2 1_555 1_555
C21_2 C22_2 1_555 1_555
C22_2 C20_2 1_555 1_555
C23_2 C22_2 1_555 1_555
H11_2 C23_2 1_555 1_555
Sc3_2 O11_2 1_555 1_555
Sc8_2 O12_2 1_555 1_555
Sc1_2 O1_2 1_555 1_555
O1_2 C1_2 1_555 1_555
O2_2 C1_2 1_555 1_555
O3_2 Sc1_2 1_555 1_555
C1_2 C2_2 1_555 1_555
C2_2 C3_2 1_555 1_555
C5_2 O3_2 1_555 1_555
C11_2 C2_2 1_555 1_555
H5_2 C11_2 1_555 1_555
O7_2 C5_2 1_555 1_555
O9_2 Sc1_2 1_555 1_555
O10_2 C17_2 1_555 1_555
C17_2 O9_2 1_555 1_555
C18_2 C17_2 1_555 1_555
C19_2 C18_2 1_555 1_555
H9_2 C19_2 1_555 1_555
C24_2 C18_2 1_555 1_555
H12_2 C24_2 1_555 1_555
Sc9_2 O10_2 1_555 1_555
O15_2 Sc1_2 1_555 1_555
O16_2 Sc1_2 1_555 1_555
O19_2 Sc1_2 1_555 1_555
C4_2 H2_2 1_555 1_555
O4_2 C8_2 1_555 1_555
O5_2 C8_2 1_555 1_555
C8_2 C9_2 1_555 1_555
C9_2 C4_2 1_555 1_555
C10_2 C9_2 1_555 1_555
H4_2 C10_2 1_555 1_555
Sc5_2 O4_2 1_555 1_555
Sc7_2 O5_2 1_555 1_555
H7_2 C15_2 1_555 1_555
H8_2 C16_2 1_555 1_555
C15_2 C16_2 1_555 1_555
O13_2 Sc9_2 1_555 1_555
O14_2 Sc9_2 1_555 1_555
O18_2 Sc9_2 1_555 1_555
O10_3 C17_3 1_555 1_555
C18_3 C17_3 1_555 1_555
C19_3 C18_3 1_555 1_555
H9_3 C19_3 1_555 1_555
Sc6_2 O10_3 1_555 1_555
H10_3 C20_3 1_555 1_555
Sc5_2 O11_3 1_555 1_555
Sc4_2 O1_3 1_555 1_555
O1_3 C1_3 1_555 1_555
O2_3 C1_3 1_555 1_555
O3_3 Sc4_2 1_555 1_555
C1_3 C2_3 1_555 1_555
C2_3 C3_3 1_555 1_555
C5_3 O3_3 1_555 1_555
C6_3 C5_3 1_555 1_555
C7_3 C6_3 1_555 1_555
H1_3 C3_3 1_555 1_555
H3_3 C7_3 1_555 1_555
C11_3 C2_3 1_555 1_555
H5_3 C11_3 1_555 1_555
O18_2 C12_3 1_555 1_555
C12_3 C13_3 1_555 1_555
C13_3 C14_3 1_555 1_555
C14_3 C7_3 1_555 1_555
H6_3 C14_3 1_555 1_555
O7_3 C5_3 1_555 1_555
C15_3 C6_3 1_555 1_555
H7_3 C15_3 1_555 1_555
O19_2 C12_3 1_555 1_555
C16_3 C13_3 1_555 1_555
H8_3 C16_3 1_555 1_555
O9_3 Sc4_2 1_555 1_555
H12_3 C24_3 1_555 1_555
Sc6_2 O2_3 1_555 1_555
O13_3 Sc6_2 1_555 1_555
O14_3 Sc6_2 1_555 1_555
O16_3 Sc4_2 1_555 1_555
O7_3 Sc6_2 1_555 1_555
C15_3 C16_3 1_555 1_555
C4_3 H2_3 1_555 1_555
O4_3 C8_3 1_555 1_555
O5_3 C8_3 1_555 1_555
C8_3 C9_3 1_555 1_555
C9_3 C4_3 1_555 1_555
C10_3 C9_3 1_555 1_555
O12_3 C21_3 1_555 1_555
C21_3 C22_3 1_555 1_555
C23_3 C22_3 1_555 1_555
H11_3 C23_3 1_555 1_555
Sc3_2 O4_3 1_555 1_555
Sc7_2 O12_3 1_555 1_555
H10_4 C20_4 1_555 1_555
Sc5 O11_4 1_555 1_555
O10_4 C17_4 1_555 1_555
C18_4 C17_4 1_555 1_555
C19_4 C18_4 1_555 1_555
H9_4 C19_4 1_555 1_555
Sc6 O10_4 1_555 1_555
C7_4 C6_4 1_555 1_555
H3_4 C7_4 1_555 1_555
O18 C12_4 1_555 1_555
C12_4 C13_4 1_555 1_555
C13_4 C14_4 1_555 1_555
C14_4 C7_4 1_555 1_555
H6_4 C14_4 1_555 1_555
C15_4 C6_4 1_555 1_555
H7_4 C15_4 1_555 1_555
O19 C12_4 1_555 1_555
C16_4 C13_4 1_555 1_555
H8_4 C16_4 1_555 1_555
O12_4 C21_4 1_555 1_555
C21_4 C22_4 1_555 1_555
C23_4 C22_4 1_555 1_555
H11_4 C23_4 1_555 1_555
Sc7 O12_4 1_555 1_555
C15_4 C16_4 1_555 1_555
Sc4 O1_4 1_555 1_555
O1_4 C1_4 1_555 1_555
O2_4 C1_4 1_555 1_555
O3_4 Sc4 1_555 1_555
C1_4 C2_4 1_555 1_555
C2_4 C3_4 1_555 1_555
C3_4 C4_4 1_555 1_555
C4_4 H2_4 1_555 1_555
C5_4 O3_4 1_555 1_555
H1_4 C3_4 1_555 1_555
O4_4 C8_4 1_555 1_555
O5_4 C8_4 1_555 1_555
C8_4 C9_4 1_555 1_555
C9_4 C4_4 1_555 1_555
C10_4 C9_4 1_555 1_555
C11_4 C2_4 1_555 1_555
H5_4 C11_4 1_555 1_555
O7_4 C5_4 1_555 1_555
O9_4 Sc4 1_555 1_555
H12_4 C24_4 1_555 1_555
Sc6 O2_4 1_555 1_555
Sc3 O4_4 1_555 1_555
O13_4 Sc6 1_555 1_555
O14_4 Sc6 1_555 1_555
O16_4 Sc4 1_555 1_555
C10_4 C11_4 1_555 1_555
O7_4 Sc6 1_555 1_555
C4_5 H2_5 1_555 1_555
O4_5 C8_5 1_555 1_555
O5_5 C8_5 1_555 1_555
C8_5 C9_5 1_555 1_555
C9_5 C4_5 1_555 1_555
C10_5 C9_5 1_555 1_555
H4_5 C10_5 1_555 1_555
Sc8_2 O4_5 1_555 1_555
Sc3_2 O5_5 1_555 1_555
O13_4 C1_5 1_555 1_555
O15_4 C1_5 1_555 1_555
C1_5 C2_5 1_555 1_555
C2_5 C3_5 1_555 1_555
C11_5 C2_5 1_555 1_555
H5_5 C11_5 1_555 1_555
O16_4 C17_5 1_555 1_555
C17_5 O14_4 1_555 1_555
C18_5 C17_5 1_555 1_555
C19_5 C18_5 1_555 1_555
C20_5 C19_5 1_555 1_555
H9_5 C19_5 1_555 1_555
H10_5 C20_5 1_555 1_555
O11_5 C21_5 1_555 1_555
O12_5 C21_5 1_555 1_555
C21_5 C22_5 1_555 1_555
C22_5 C20_5 1_555 1_555
C23_5 C22_5 1_555 1_555
C24_5 C18_5 1_555 1_555
H11_5 C23_5 1_555 1_555
H12_5 C24_5 1_555 1_555
Sc7_2 O11_5 1_555 1_555
Sc5_2 O12_5 1_555 1_555
C23_5 C24_5 1_555 1_555
O13_3 C1_6 1_555 1_555
O15_3 C1_6 1_555 1_555
C1_6 C2_6 1_555 1_555
C2_6 C3_6 1_555 1_555
C3_6 C4_6 1_555 1_555
C4_6 H2_6 1_555 1_555
O4_6 C8_6 1_555 1_555
O5_6 C8_6 1_555 1_555
C8_6 C9_6 1_555 1_555
C9_6 C4_6 1_555 1_555
C10_6 C9_6 1_555 1_555
C11_6 C2_6 1_555 1_555
H4_6 C10_6 1_555 1_555
H5_6 C11_6 1_555 1_555
O16_3 C17_6 1_555 1_555
C17_6 O14_3 1_555 1_555
C18_6 C17_6 1_555 1_555
C19_6 C18_6 1_555 1_555
C20_6 C19_6 1_555 1_555
H9_6 C19_6 1_555 1_555
H10_6 C20_6 1_555 1_555
O11_6 C21_6 1_555 1_555
O12_6 C21_6 1_555 1_555
C21_6 C22_6 1_555 1_555
C22_6 C20_6 1_555 1_555
C23_6 C22_6 1_555 1_555
C24_6 C18_6 1_555 1_555
H11_6 C23_6 1_555 1_555
H12_6 C24_6 1_555 1_555
Sc7 O11_6 1_555 1_555
Sc8 O4_6 1_555 1_555
Sc3 O5_6 1_555 1_555
Sc5 O12_6 1_555 1_555
C10_6 C11_6 1_555 1_555
C23_6 C24_6 1_555 1_555
O16_2 C17_7 1_555 1_555
C18_7 C17_7 1_555 1_555
C19_7 C18_7 1_555 1_555
C20_7 C19_7 1_555 1_555
H9_7 C19_7 1_555 1_555
H10_7 C20_7 1_555 1_555
Sc8 O11_7 1_555 1_555
C4_7 H2_7 1_555 1_555
O4_7 C8_7 1_555 1_555
O5_7 C8_7 1_555 1_555
C8_7 C9_7 1_555 1_555
C9_7 C4_7 1_555 1_555
C10_7 C9_7 1_555 1_555
Sc7 O4_7 1_555 1_555
O13_2 C1_7 1_555 1_555
O15_2 C1_7 1_555 1_555
C1_7 C2_7 1_555 1_555
C2_7 C3_7 1_555 1_555
H1_7 C3_7 1_555 1_555
C11_7 C2_7 1_555 1_555
H5_7 C11_7 1_555 1_555
O12_7 C21_7 1_555 1_555
C21_7 C22_7 1_555 1_555
C23_7 C22_7 1_555 1_555
H11_7 C23_7 1_555 1_555
H12_7 C24_7 1_555 1_555
Sc3 O12_7 1_555 1_555
C23_7 C24_7 1_555 1_555
O16 C17_8 1_555 1_555
C18_8 C17_8 1_555 1_555
C19_8 C18_8 1_555 1_555
C20_8 C19_8 1_555 1_555
H9_8 C19_8 1_555 1_555
H10_8 C20_8 1_555 1_555
Sc8_2 O11_8 1_555 1_555
O13 C1_8 1_555 1_555
O15 C1_8 1_555 1_555
C1_8 C2_8 1_555 1_555
C2_8 C3_8 1_555 1_555
C3_8 C4_8 1_555 1_555
C4_8 H2_8 1_555 1_555
H1_8 C3_8 1_555 1_555
O4_8 C8_8 1_555 1_555
O5_8 C8_8 1_555 1_555
C8_8 C9_8 1_555 1_555
C9_8 C4_8 1_555 1_555
C10_8 C9_8 1_555 1_555
C11_8 C2_8 1_555 1_555
H5_8 C11_8 1_555 1_555
O12_8 C21_8 1_555 1_555
C21_8 C22_8 1_555 1_555
C23_8 C22_8 1_555 1_555
H11_8 C23_8 1_555 1_555
H12_8 C24_8 1_555 1_555
Sc7_2 O4_8 1_555 1_555
Sc3_2 O12_8 1_555 1_555
C10_8 C11_8 1_555 1_555
C23_8 C24_8 1_555 1_555
H7_5 C15_5 1_555 1_555
H8_5 C16_5 1_555 1_555
O18_3 Sc8 1_555 1_555
C15_5 C16_5 1_555 1_555
O3_5 Sc3 1_555 1_555
C5_5 O3_5 1_555 1_555
C6_5 C5_5 1_555 1_555
C7_5 C6_5 1_555 1_555
H3_5 C7_5 1_555 1_555
O6_3 C12_5 1_555 1_555
C12_5 C13_5 1_555 1_555
C13_5 C14_5 1_555 1_555
C14_5 C7_5 1_555 1_555
H6_5 C14_5 1_555 1_555
O7_5 C5_5 1_555 1_555
O8_3 C12_5 1_555 1_555
Sc7 O6_3 1_555 1_555
O19_3 Sc3 1_555 1_555
O18_4 Sc8_2 1_555 1_555
H7_6 C15_6 1_555 1_555
H8_6 C16_6 1_555 1_555
C15_6 C16_6 1_555 1_555
O3_6 Sc3_2 1_555 1_555
C5_6 O3_6 1_555 1_555
O7_6 C5_6 1_555 1_555
O19_4 Sc3_2 1_555 1_555
C7_6 C6_6 1_555 1_555
H3_6 C7_6 1_555 1_555
O6_4 C12_6 1_555 1_555
C12_6 C13_6 1_555 1_555
C13_6 C14_6 1_555 1_555
C14_6 C7_6 1_555 1_555
H6_6 C14_6 1_555 1_555
O8_4 C12_6 1_555 1_555
Sc7_2 O6_4 1_555 1_555
O3_7 Sc5_2 1_555 1_555
C5_7 O3_7 1_555 1_555
C6_7 C5_7 1_555 1_555
C7_7 C6_7 1_555 1_555
H3_7 C7_7 1_555 1_555
O18_4 C12_7 1_555 1_555
C12_7 C13_7 1_555 1_555
C13_7 C14_7 1_555 1_555
C14_7 C7_7 1_555 1_555
H6_7 C14_7 1_555 1_555
O7_7 C5_7 1_555 1_555
C15_7 C6_7 1_555 1_555
H7_7 C15_7 1_555 1_555
O19_4 C12_7 1_555 1_555
C16_7 C13_7 1_555 1_555
H8_7 C16_7 1_555 1_555
O7_7 Sc7_2 1_555 1_555
C15_7 C16_7 1_555 1_555
O3_8 Sc5 1_555 1_555
C5_8 O3_8 1_555 1_555
O7_8 C5_8 1_555 1_555
O7_8 Sc7 1_555 1_555
C7_8 C6_8 1_555 1_555
H3_8 C7_8 1_555 1_555
O18_3 C12_8 1_555 1_555
C12_8 C13_8 1_555 1_555
C13_8 C14_8 1_555 1_555
C14_8 C7_8 1_555 1_555
H6_8 C14_8 1_555 1_555
C15_8 C6_8 1_555 1_555
H7_8 C15_8 1_555 1_555
O19_3 C12_8 1_555 1_555
C16_8 C13_8 1_555 1_555
H8_8 C16_8 1_555 1_555
C15_8 C16_8 1_555 1_555

#END
