
###############################################################################
#
# This file contains modified crystal structure data generated from the
# MOF subset of the Cambridge Structural Database (CSD) v543 
# hosted by the Cambridge Crystallographic Data Centre (CCDC).
#
# This work is licensed under the Creative Commons
# Attribution-NonCommercial-ShareAlike 4.0 International License.
# To view a copy of this license, visit
# http://creativecommons.org/licenses/by-nc-sa/4.0/
# or send a letter to
# Creative Commons, PO Box 1866, Mountain View, CA 94042, USA.
#
# CIF created using the CSD Python API on 29 September 2022
# The structure has been converted into the P1 space group
# The structure has a 3D framework
# The original CSD entry TAKGUK is in the triclinic crystal system
# The framework has been calculated to contain at least 10.0% void space
# The void calculation uses a probe of radius 1.32A, grid spacing 0.4
#
###############################################################################

data_TAKGUK
_chemical_formula_moiety         '(C72 H56 Ce2 Cu8 I8 N6 O14)n'
_symmetry_cell_setting           triclinic
_symmetry_space_group_name_H-M   'P 1'
_symmetry_Int_Tables_number      1
_space_group_name_Hall           'P 1'
loop_
_symmetry_equiv_pos_site_id
_symmetry_equiv_pos_as_xyz
1 x,y,z
_cell_length_a                   9.758(2)
_cell_length_b                   16.575(3)
_cell_length_c                   21.452(4)
_cell_angle_alpha                104.13(3)
_cell_angle_beta                 100.68(3)
_cell_angle_gamma                96.53(3)
_cell_volume                     3260.03
loop_
_atom_site_label
_atom_site_type_symbol
_atom_site_fract_x
_atom_site_fract_y
_atom_site_fract_z
I5 I 0.23627(9) 0.00836(6) 0.49975(5)
Ce6 Ce 0.72280(6) 0.48254(4) 0.00173(3)
I3 I 0.08712(9) 0.97835(7) 0.67145(5)
Cu1 Cu 0.01258(18) 0.94228(11) 0.53908(9)
O5 O 0.3550(10) 0.5871(6) 0.9188(4)
O6 O 0.5688(10) 0.5499(7) 0.9372(5)
N3 N 0.0979(12) 0.7499(8) 0.6375(6)
C25 C 0.2382(18) 0.7677(14) 0.6366(9)
H17 H 0.2665 0.8054 0.6139
C26 C 0.3382(16) 0.7303(11) 0.6689(8)
H18 H 0.4317 0.7405 0.6653
C27 C 0.3009(14) 0.6777(8) 0.7069(7)
C28 C 0.1596(13) 0.6624(10) 0.7073(7)
H19 H 0.1299 0.6283 0.7325
C29 C 0.0641(16) 0.6952(10) 0.6725(8)
C30 C 0.4103(13) 0.6393(9) 0.7434(7)
C31 C 0.3918(12) 0.6239(8) 0.8029(6)
H21 H 0.3105 0.6348 0.8180
C32 C 0.4953(13) 0.5921(8) 0.8396(6)
C33 C 0.6169(14) 0.5758(9) 0.8189(7)
H22 H 0.6885 0.5588 0.8453
C34 C 0.6308(17) 0.5859(11) 0.7549(8)
H23 H 0.7082 0.5703 0.7382
C35 C 0.5305(16) 0.6182(10) 0.7188(8)
H24 H 0.5413 0.6262 0.6785
C36 C 0.4724(13) 0.5750(8) 0.9032(6)
Ce3 Ce 0.27720(6) 0.51746(4) 0.99827(3)
O3 O 0.5438(9) 0.3703(6) 0.9264(5)
O4 O 0.3243(9) 0.4052(6) 0.9120(4)
N2 N 0.7056(11) 0.0261(8) 0.6661(6)
C13 C 0.7601(14) 0.1038(10) 0.7087(7)
H9 H 0.8579 0.1199 0.7207
C14 C 0.6806(14) 0.1573(8) 0.7337(7)
H10 H 0.7241 0.2086 0.7636
C15 C 0.5317(12) 0.1386(8) 0.7163(6)
C16 C 0.4730(14) 0.0564(9) 0.6703(7)
H11 H 0.3759 0.0387 0.6556
C17 C 0.5664(15) 0.0064(9) 0.6497(8)
C18 C 0.4333(14) 0.1944(8) 0.7406(6)
C19 C 0.4718(13) 0.2543(8) 0.8032(6)
H13 H 0.5625 0.2610 0.8289
C20 C 0.3772(11) 0.3025(7) 0.8265(6)
C21 C 0.2441(14) 0.2943(8) 0.7870(7)
H14 H 0.1793 0.3263 0.8029
C22 C 0.2057(15) 0.2399(9) 0.7247(7)
H15 H 0.1179 0.2376 0.6980
C23 C 0.2982(14) 0.1883(9) 0.7018(7)
H16 H 0.2705 0.1496 0.6605
C24 C 0.4176(13) 0.3638(8) 0.8930(6)
Cu5 Cu 0.98742(18) 0.05772(11) 0.46092(9)
I1 I 0.76373(9) 0.99164(6) 0.50025(5)
I2 I 0.98493(9) 0.77848(6) 0.46957(4)
I4 I 0.70094(10) 0.78769(6) 0.61220(5)
Cu2 Cu 0.75388(18) 0.82695(12) 0.50223(9)
Cu3 Cu 0.82017(19) 0.94511(13) 0.62078(10)
Cu4 Cu 0.96305(19) 0.81685(12) 0.59713(9)
O1 O 0.1732(9) 0.5493(6) 0.0943(4)
O8 O 0.1941(12) 0.6688(6) 0.0115(6)
N1 N 0.5782(11) 0.7631(7) 0.4349(5)
C1 C 0.4528(16) 0.7862(10) 0.4383(7)
H1 H 0.4494 0.8347 0.4703
C2 C 0.3279(13) 0.7417(9) 0.3965(7)
H2 H 0.2424 0.7580 0.4031
C3 C 0.3289(13) 0.6721(9) 0.3444(6)
C4 C 0.4599(13) 0.6483(9) 0.3402(7)
H3 H 0.4675 0.6011 0.3079
C5 C 0.5786(13) 0.6966(9) 0.3854(7)
H4 H 0.6658 0.6814 0.3807
C6 C 0.1964(12) 0.6232(8) 0.2980(6)
C7 C 0.1908(11) 0.5971(7) 0.2308(5)
H5 H 0.2716 0.6089 0.2154
C8 C 0.0674(12) 0.5538(7) 0.1863(6)
C11 C 0.0706(12) 0.6053(9) 0.3192(6)
H8 H 0.0691 0.6259 0.3634
C12 C 0.0605(11) 0.5274(8) 0.1142(5)
H12 H 0.5284 0.9532 0.6214
H20 H 0.9692 0.6798 0.6721
H25 H 0.030(7) 0.376(2) 0.011(5)
H27 H 0.187(12) 0.704(3) 0.0527(18)
O10 O 0.4562(9) 0.6297(6) 0.0736(5)
O13 O 0.4312(10) 0.4501(7) 0.0628(5)
O7 O 0.1193(10) 0.3813(6) 0.9945(6)
H26 H 0.129(8) 0.3217(10) 0.975(6)
H28 H 0.194(13) 0.698(4) 0.978(3)
O9 O 0.0541(9) 0.5108(6) 0.9249(4)
O2 O 0.9459(9) 0.4892(6) 0.0751(4)
C9 C 0.9469(11) 0.5318(8) 0.2098(6)
H6 H 0.8655 0.4995 0.1806
C10 C 0.9499(14) 0.5578(8) 0.2757(6)
H7 H 0.8702 0.5435 0.2912
C9_2 C 0.0531(11) 0.4682(8) 0.7902(6)
H6_2 H 0.1345 0.5005 0.8194
C10_2 C 0.0501(14) 0.4422(8) 0.7243(6)
H7_2 H 0.1298 0.4565 0.7088
O7_2 O 0.8807(10) 0.6187(6) 0.0055(6)
H26_2 H 0.871(8) 0.6783(10) 0.025(6)
H28_2 H 0.806(13) 0.302(4) 0.022(3)
O11 O 0.6757(9) 0.5948(6) 0.0880(4)
O12 O 0.6450(10) 0.4129(6) 0.0812(4)
I2_2 I 0.01507(9) 0.22152(6) 0.53043(4)
I4_2 I 0.29906(10) 0.21231(6) 0.38780(5)
Cu2_2 Cu 0.24612(18) 0.17305(12) 0.49777(9)
Cu3_2 Cu 0.17983(19) 0.05489(13) 0.37922(10)
Cu4_2 Cu 0.03695(19) 0.18315(12) 0.40287(9)
O1_2 O 0.8268(9) 0.4507(6) 0.9057(4)
O8_2 O 0.8059(12) 0.3312(6) 0.9885(6)
N1_2 N 0.4218(11) 0.2369(7) 0.5651(5)
C1_2 C 0.5472(16) 0.2138(10) 0.5617(7)
H1_2 H 0.5506 0.1653 0.5297
C2_2 C 0.6721(13) 0.2583(9) 0.6035(7)
H2_2 H 0.7576 0.2420 0.5969
C3_2 C 0.6711(13) 0.3279(9) 0.6556(6)
C4_2 C 0.5401(13) 0.3517(9) 0.6598(7)
H3_2 H 0.5325 0.3989 0.6921
C5_2 C 0.4214(13) 0.3034(9) 0.6146(7)
H4_2 H 0.3342 0.3186 0.6193
C6_2 C 0.8036(12) 0.3768(8) 0.7020(6)
C7_2 C 0.8092(11) 0.4029(7) 0.7692(5)
H5_2 H 0.7284 0.3911 0.7846
C8_2 C 0.9326(12) 0.4462(7) 0.8137(6)
C11_2 C 0.9294(12) 0.3947(9) 0.6808(6)
H8_2 H 0.9309 0.3741 0.6366
C12_2 C 0.9395(11) 0.4726(8) 0.8858(5)
H12_2 H 0.4716 0.0468 0.3786
H20_2 H 0.0308 0.3202 0.3279
H25_2 H 0.970(7) 0.624(2) 0.989(5)
H27_2 H 0.813(12) 0.296(3) 0.9473(18)
N2_2 N 0.2944(11) 0.9739(8) 0.3339(6)
C13_2 C 0.2399(14) 0.8962(10) 0.2913(7)
H9_2 H 0.1421 0.8801 0.2793
C14_2 C 0.3194(14) 0.8427(8) 0.2663(7)
H10_2 H 0.2759 0.7914 0.2364
C15_2 C 0.4683(12) 0.8614(8) 0.2837(6)
C16_2 C 0.5270(14) 0.9436(9) 0.3297(7)
H11_2 H 0.6241 0.9613 0.3444
C17_2 C 0.4336(15) 0.9936(9) 0.3503(8)
C18_2 C 0.5667(14) 0.8056(8) 0.2594(6)
C19_2 C 0.5282(13) 0.7457(8) 0.1968(6)
H13_2 H 0.4375 0.7390 0.1711
C20_2 C 0.6228(11) 0.6975(7) 0.1735(6)
C21_2 C 0.7559(14) 0.7057(8) 0.2130(7)
H14_2 H 0.8207 0.6737 0.1971
C22_2 C 0.7943(15) 0.7601(9) 0.2753(7)
H15_2 H 0.8821 0.7624 0.3020
C23_2 C 0.7018(14) 0.8117(9) 0.2982(7)
H16_2 H 0.7295 0.8504 0.3395
C24_2 C 0.5824(13) 0.6362(8) 0.1070(6)
I3_2 I 0.91288(9) 0.02165(7) 0.32855(5)
N3_2 N 0.9021(12) 0.2501(8) 0.3625(6)
C25_2 C 0.7618(18) 0.2323(14) 0.3634(9)
H17_2 H 0.7335 0.1946 0.3861
C26_2 C 0.6618(16) 0.2697(11) 0.3311(8)
H18_2 H 0.5683 0.2595 0.3347
C27_2 C 0.6991(14) 0.3223(8) 0.2931(7)
C28_2 C 0.8404(13) 0.3376(10) 0.2927(7)
H19_2 H 0.8701 0.3717 0.2675
C29_2 C 0.9359(16) 0.3048(10) 0.3275(8)
C30_2 C 0.5897(13) 0.3607(9) 0.2566(7)
C31_2 C 0.6082(12) 0.3761(8) 0.1971(6)
H21_2 H 0.6895 0.3652 0.1820
C32_2 C 0.5047(13) 0.4079(8) 0.1604(6)
C33_2 C 0.3831(14) 0.4242(9) 0.1811(7)
H22_2 H 0.3115 0.4412 0.1547
C34_2 C 0.3692(17) 0.4141(11) 0.2451(8)
H23_2 H 0.2918 0.4297 0.2618
C35_2 C 0.4695(16) 0.3818(10) 0.2812(8)
H24_2 H 0.4587 0.3738 0.3215
C36_2 C 0.5276(13) 0.4250(8) 0.0968(6)
loop_
_geom_bond_atom_site_label_1
_geom_bond_atom_site_label_2
_geom_bond_site_symmetry_1
_geom_bond_site_symmetry_2
I3 Cu1 1_555 1_555
O5 C36 1_555 1_555
O6 C36 1_555 1_555
C25 N3 1_555 1_555
H17 C25 1_555 1_555
C26 C25 1_555 1_555
H18 C26 1_555 1_555
C27 C26 1_555 1_555
C28 C27 1_555 1_555
H19 C28 1_555 1_555
C29 N3 1_555 1_555
C30 C27 1_555 1_555
C31 C30 1_555 1_555
H21 C31 1_555 1_555
C32 C31 1_555 1_555
C33 C32 1_555 1_555
H22 C33 1_555 1_555
C34 C33 1_555 1_555
H23 C34 1_555 1_555
C35 C30 1_555 1_555
H24 C35 1_555 1_555
C36 C32 1_555 1_555
Ce3 O5 1_555 1_555
C28 C29 1_555 1_555
C34 C35 1_555 1_555
O3 C24 1_555 1_555
O4 C24 1_555 1_555
C13 N2 1_555 1_555
H9 C13 1_555 1_555
C14 C13 1_555 1_555
H10 C14 1_555 1_555
C15 C14 1_555 1_555
C16 C15 1_555 1_555
H11 C16 1_555 1_555
C17 N2 1_555 1_555
C18 C15 1_555 1_555
C19 C18 1_555 1_555
H13 C19 1_555 1_555
C20 C19 1_555 1_555
C21 C20 1_555 1_555
H14 C21 1_555 1_555
C22 C21 1_555 1_555
H15 C22 1_555 1_555
C23 C18 1_555 1_555
H16 C23 1_555 1_555
C24 C20 1_555 1_555
Ce3 O4 1_555 1_555
C16 C17 1_555 1_555
C22 C23 1_555 1_555
I4 Cu2 1_555 1_555
Cu2 I1 1_555 1_555
Cu3 I1 1_555 1_555
Cu4 I2 1_555 1_555
O1 C12 1_555 1_555
N1 Cu2 1_555 1_555
C1 N1 1_555 1_555
H1 C1 1_555 1_555
C2 C1 1_555 1_555
H2 C2 1_555 1_555
C3 C2 1_555 1_555
C4 C3 1_555 1_555
H3 C4 1_555 1_555
C5 N1 1_555 1_555
H4 C5 1_555 1_555
C6 C3 1_555 1_555
C7 C6 1_555 1_555
H5 C7 1_555 1_555
C8 C7 1_555 1_555
C11 C6 1_555 1_555
H8 C11 1_555 1_555
C12 C8 1_555 1_555
H27 O8 1_555 1_555
I2 Cu2 1_555 1_555
I4 Cu3 1_555 1_555
I4 Cu4 1_555 1_555
C4 C5 1_555 1_555
O7 Ce3 1_555 1_555
H26 O7 1_555 1_555
O9 Ce3 1_555 1_555
H6 C9 1_555 1_555
C10 C9 1_555 1_555
H7 C10 1_555 1_555
Ce6 O2 1_555 1_555
H6_2 C9_2 1_555 1_555
C10_2 C9_2 1_555 1_555
H7_2 C10_2 1_555 1_555
O7_2 Ce6 1_555 1_555
H26_2 O7_2 1_555 1_555
O11 Ce6 1_555 1_555
O12 Ce6 1_555 1_555
I4_2 Cu2_2 1_555 1_555
Cu2_2 I5 1_555 1_555
Cu3_2 I5 1_555 1_555
Cu4_2 I2_2 1_555 1_555
O1_2 C12_2 1_555 1_555
N1_2 Cu2_2 1_555 1_555
C1_2 N1_2 1_555 1_555
H1_2 C1_2 1_555 1_555
C2_2 C1_2 1_555 1_555
H2_2 C2_2 1_555 1_555
C3_2 C2_2 1_555 1_555
C4_2 C3_2 1_555 1_555
H3_2 C4_2 1_555 1_555
C5_2 N1_2 1_555 1_555
H4_2 C5_2 1_555 1_555
C6_2 C3_2 1_555 1_555
C7_2 C6_2 1_555 1_555
H5_2 C7_2 1_555 1_555
C8_2 C7_2 1_555 1_555
C11_2 C6_2 1_555 1_555
H8_2 C11_2 1_555 1_555
C12_2 C8_2 1_555 1_555
H27_2 O8_2 1_555 1_555
I2_2 Cu2_2 1_555 1_555
I4_2 Cu3_2 1_555 1_555
I4_2 Cu4_2 1_555 1_555
C4_2 C5_2 1_555 1_555
O10 C24_2 1_555 1_555
O11 C24_2 1_555 1_555
C13_2 N2_2 1_555 1_555
H9_2 C13_2 1_555 1_555
C14_2 C13_2 1_555 1_555
H10_2 C14_2 1_555 1_555
C15_2 C14_2 1_555 1_555
C16_2 C15_2 1_555 1_555
H11_2 C16_2 1_555 1_555
C17_2 N2_2 1_555 1_555
C18_2 C15_2 1_555 1_555
C19_2 C18_2 1_555 1_555
H13_2 C19_2 1_555 1_555
C20_2 C19_2 1_555 1_555
C21_2 C20_2 1_555 1_555
H14_2 C21_2 1_555 1_555
C22_2 C21_2 1_555 1_555
H15_2 C22_2 1_555 1_555
C23_2 C18_2 1_555 1_555
H16_2 C23_2 1_555 1_555
C24_2 C20_2 1_555 1_555
C16_2 C17_2 1_555 1_555
C22_2 C23_2 1_555 1_555
I3_2 Cu5 1_555 1_555
O12 C36_2 1_555 1_555
O13 C36_2 1_555 1_555
C25_2 N3_2 1_555 1_555
H17_2 C25_2 1_555 1_555
C26_2 C25_2 1_555 1_555
H18_2 C26_2 1_555 1_555
C27_2 C26_2 1_555 1_555
C28_2 C27_2 1_555 1_555
H19_2 C28_2 1_555 1_555
C29_2 N3_2 1_555 1_555
C30_2 C27_2 1_555 1_555
C31_2 C30_2 1_555 1_555
H21_2 C31_2 1_555 1_555
C32_2 C31_2 1_555 1_555
C33_2 C32_2 1_555 1_555
H22_2 C33_2 1_555 1_555
C34_2 C33_2 1_555 1_555
H23_2 C34_2 1_555 1_555
C35_2 C30_2 1_555 1_555
H24_2 C35_2 1_555 1_555
C36_2 C32_2 1_555 1_555
C28_2 C29_2 1_555 1_555
C34_2 C35_2 1_555 1_555

#END
