
###############################################################################
#
# This file contains modified crystal structure data generated from the
# MOF subset of the Cambridge Structural Database (CSD) v543 
# hosted by the Cambridge Crystallographic Data Centre (CCDC).
#
# This work is licensed under the Creative Commons
# Attribution-NonCommercial-ShareAlike 4.0 International License.
# To view a copy of this license, visit
# http://creativecommons.org/licenses/by-nc-sa/4.0/
# or send a letter to
# Creative Commons, PO Box 1866, Mountain View, CA 94042, USA.
#
# CIF created using the CSD Python API on 29 September 2022
# The structure has been converted into the P1 space group
# The structure has a 3D framework
# The original CSD entry TAKGOE is in the triclinic crystal system
# The framework has been calculated to contain at least 10.0% void space
# The void calculation uses a probe of radius 1.32A, grid spacing 0.4
#
###############################################################################

data_TAKGOE
_chemical_formula_moiety         '(C80 H68 Cu8 I8 La2 N6 O16)n'
_symmetry_cell_setting           triclinic
_symmetry_space_group_name_H-M   'P 1'
_symmetry_Int_Tables_number      1
_space_group_name_Hall           'P 1'
loop_
_symmetry_equiv_pos_site_id
_symmetry_equiv_pos_as_xyz
1 x,y,z
_cell_length_a                   9.776(2)
_cell_length_b                   16.337(3)
_cell_length_c                   21.534(4)
_cell_angle_alpha                103.82(3)
_cell_angle_beta                 100.74(3)
_cell_angle_gamma                95.87(3)
_cell_volume                     3242.08
loop_
_atom_site_label
_atom_site_type_symbol
_atom_site_fract_x
_atom_site_fract_y
_atom_site_fract_z
I5 I 0.23756(6) 0.00696(4) 0.50045(3)
La6 La 0.72126(5) 0.47998(4) 0.00166(2)
I3 I 0.08137(7) 0.97505(5) 0.66816(3)
Cu1 Cu 0.01122(13) 0.94095(9) 0.53717(6)
O5 O 0.3530(7) 0.5879(5) 0.9153(3)
O6 O 0.5615(7) 0.5475(5) 0.9356(3)
N3 N 0.0958(9) 0.7473(6) 0.6334(4)
C25 C 0.2297(12) 0.7609(9) 0.6304(6)
H17 H 0.2547 0.7957 0.6046
C26 C 0.3358(11) 0.7264(8) 0.6635(6)
H18 H 0.4281 0.7378 0.6590
C27 C 0.3029(10) 0.6743(7) 0.7036(4)
C28 C 0.1614(10) 0.6621(8) 0.7052(5)
H19 H 0.1315 0.6284 0.7309
C29 C 0.0651(12) 0.6977(8) 0.6706(5)
C30 C 0.4117(10) 0.6394(7) 0.7419(5)
C31 C 0.3944(9) 0.6230(6) 0.8012(5)
H21 H 0.3125 0.6341 0.8156
C32 C 0.4938(9) 0.5911(6) 0.8389(4)
C33 C 0.6167(10) 0.5758(8) 0.8178(5)
H22 H 0.6883 0.5579 0.8439
C34 C 0.6327(12) 0.5877(9) 0.7564(6)
H23 H 0.7119 0.5735 0.7407
C35 C 0.5316(11) 0.6202(7) 0.7198(5)
H24 H 0.5440 0.6292 0.6800
C36 C 0.4688(10) 0.5737(6) 0.9011(4)
La3 La 0.27874(5) 0.52002(4) 0.99834(2)
O3 O 0.5415(6) 0.3641(4) 0.9268(3)
O4 O 0.3279(7) 0.4018(5) 0.9150(3)
N2 N 0.7030(8) 0.0212(6) 0.6643(4)
C13 C 0.7526(10) 0.0971(7) 0.7071(5)
H9 H 0.8500 0.1128 0.7195
C14 C 0.6729(10) 0.1533(6) 0.7342(5)
H10 H 0.7160 0.2043 0.7646
C15 C 0.5265(9) 0.1342(6) 0.7163(4)
C16 C 0.4732(12) 0.0541(7) 0.6721(5)
H11 H 0.3764 0.0363 0.6589
C17 C 0.5634(11) 0.0022(8) 0.6485(6)
C18 C 0.4301(9) 0.1913(6) 0.7425(4)
C19 C 0.4695(9) 0.2476(6) 0.8030(4)
H13 H 0.5594 0.2512 0.8282
C20 C 0.3768(10) 0.3000(6) 0.8278(4)
C21 C 0.2450(10) 0.2944(6) 0.7906(5)
H14 H 0.1824 0.3285 0.8069
C22 C 0.2033(11) 0.2372(7) 0.7276(5)
H15 H 0.1139 0.2334 0.7020
C23 C 0.2962(10) 0.1878(6) 0.7050(4)
H16 H 0.2696 0.1504 0.6633
C24 C 0.4164(10) 0.3592(6) 0.8936(4)
Cu5 Cu 0.98878(13) 0.05905(9) 0.46283(6)
I1 I 0.76244(6) 0.99304(4) 0.49955(3)
I2 I 0.98235(7) 0.77672(4) 0.46579(3)
I4 I 0.69872(7) 0.78220(5) 0.60712(3)
Cu2 Cu 0.75150(13) 0.82579(9) 0.49858(6)
Cu3 Cu 0.81525(14) 0.94112(10) 0.61767(7)
Cu4 Cu 0.95984(14) 0.81265(9) 0.59212(6)
O1 O 0.1702(6) 0.5549(5) 0.0942(3)
N1 N 0.5757(8) 0.7628(5) 0.4308(3)
C1 C 0.4516(11) 0.7865(8) 0.4353(5)
H1 H 0.4479 0.8343 0.4683
C2 C 0.3268(10) 0.7428(7) 0.3927(4)
H2 H 0.2415 0.7608 0.3981
C3 C 0.3290(10) 0.6738(6) 0.3430(4)
C4 C 0.4598(10) 0.6494(6) 0.3371(4)
H3 H 0.4665 0.6035 0.3032
C5 C 0.5800(10) 0.6949(7) 0.3826(4)
H4 H 0.6666 0.6774 0.3794
C6 C 0.1993(9) 0.6262(6) 0.2968(4)
C7 C 0.1892(9) 0.6009(6) 0.2287(4)
H5 H 0.2670 0.6152 0.2121
C8 C 0.0669(9) 0.5554(6) 0.1855(4)
C11 C 0.0756(9) 0.6047(6) 0.3179(4)
H8 H 0.0760 0.6231 0.3622
C12 C 0.0581(9) 0.5310(6) 0.1123(4)
H12 H 0.5240 0.9498 0.6192
H20 H 0.9715 0.6864 0.6732
H25 H 0.046(6) 0.3780(19) 0.020(4)
O8 O 0.1830(9) 0.6761(5) 0.0042(4)
O9 O 0.272(2) 0.8446(12) 0.0020(10)
C39 C 0.305(3) 0.8161(17) 0.0582(12)
H31 H 0.3093 0.8631 0.0963
H32 H 0.3970 0.7986 0.0614
C40 C 0.207(3) 0.7479(14) 0.0593(11)
H33 H 0.1177 0.7681 0.0624
H34 H 0.2391 0.7297 0.0985
O11 O 0.4585(6) 0.6359(4) 0.0732(3)
O14 O 0.4385(7) 0.4525(5) 0.0644(3)
O7 O 0.1246(7) 0.3812(5) 0.9977(4)
H26 H 0.135(7) 0.3226(10) 0.978(4)
C37 C 0.143(3) 0.7111(17) 0.9455(11)
H27 H 0.1400 0.6657 0.9067
H28 H 0.0476 0.7236 0.9437
C38 C 0.224(3) 0.7827(16) 0.9404(11)
H29 H 0.1687 0.8081 0.9098
H30 H 0.3046 0.7659 0.9230
O10 O 0.0510(6) 0.5103(5) 0.9238(3)
O2 O 0.9490(6) 0.4897(5) 0.0762(3)
C9 C 0.9492(9) 0.5326(6) 0.2095(4)
H6 H 0.8677 0.5007 0.1808
C10 C 0.9545(10) 0.5577(7) 0.2760(4)
H7 H 0.8766 0.5429 0.2923
C9_2 C 0.0508(9) 0.4674(6) 0.7905(4)
H6_2 H 0.1323 0.4993 0.8192
C10_2 C 0.0455(10) 0.4423(7) 0.7240(4)
H7_2 H 0.1234 0.4571 0.7077
O7_2 O 0.8754(7) 0.6188(5) 0.0023(4)
H26_2 H 0.865(7) 0.6774(10) 0.022(4)
C37_2 C 0.857(3) 0.2889(17) 0.0545(11)
H27_2 H 0.8600 0.3343 0.0933
H28_2 H 0.9524 0.2764 0.0563
C38_2 C 0.776(3) 0.2173(16) 0.0596(11)
H29_2 H 0.8313 0.1919 0.0902
H30_2 H 0.6954 0.2341 0.0770
O12 O 0.6721(7) 0.5982(5) 0.0850(3)
O13 O 0.6470(7) 0.4121(5) 0.0847(3)
I2_2 I 0.01765(7) 0.22328(4) 0.53421(3)
I4_2 I 0.30128(7) 0.21780(5) 0.39288(3)
Cu2_2 Cu 0.24850(13) 0.17421(9) 0.50142(6)
Cu3_2 Cu 0.18475(14) 0.05888(10) 0.38233(7)
Cu4_2 Cu 0.04016(14) 0.18735(9) 0.40788(6)
O1_2 O 0.8298(6) 0.4451(5) 0.9058(3)
N1_2 N 0.4243(8) 0.2372(5) 0.5692(3)
C1_2 C 0.5484(11) 0.2135(8) 0.5647(5)
H1_2 H 0.5521 0.1657 0.5317
C2_2 C 0.6732(10) 0.2572(7) 0.6073(4)
H2_2 H 0.7585 0.2392 0.6019
C3_2 C 0.6710(10) 0.3262(6) 0.6570(4)
C4_2 C 0.5402(10) 0.3506(6) 0.6629(4)
H3_2 H 0.5335 0.3965 0.6968
C5_2 C 0.4200(10) 0.3051(7) 0.6174(4)
H4_2 H 0.3334 0.3226 0.6206
C6_2 C 0.8007(9) 0.3738(6) 0.7032(4)
C7_2 C 0.8108(9) 0.3991(6) 0.7713(4)
H5_2 H 0.7330 0.3848 0.7879
C8_2 C 0.9331(9) 0.4446(6) 0.8145(4)
C11_2 C 0.9244(9) 0.3953(6) 0.6821(4)
H8_2 H 0.9240 0.3769 0.6378
C12_2 C 0.9419(9) 0.4690(6) 0.8877(4)
H12_2 H 0.4760 0.0502 0.3808
H20_2 H 0.0285 0.3136 0.3268
H25_2 H 0.954(6) 0.6220(19) 0.980(4)
O8_2 O 0.8170(9) 0.3239(5) 0.9958(4)
O9_2 O 0.728(2) 0.1554(12) 0.9980(10)
C39_2 C 0.695(3) 0.1839(17) 0.9418(12)
H31_2 H 0.6907 0.1369 0.9037
H32_2 H 0.6030 0.2014 0.9386
C40_2 C 0.793(3) 0.2521(14) 0.9407(11)
H33_2 H 0.8823 0.2319 0.9376
H34_2 H 0.7609 0.2703 0.9015
N2_2 N 0.2970(8) 0.9788(6) 0.3357(4)
C13_2 C 0.2474(10) 0.9029(7) 0.2929(5)
H9_2 H 0.1500 0.8872 0.2805
C14_2 C 0.3271(10) 0.8467(6) 0.2658(5)
H10_2 H 0.2840 0.7957 0.2354
C15_2 C 0.4735(9) 0.8658(6) 0.2837(4)
C16_2 C 0.5268(12) 0.9459(7) 0.3279(5)
H11_2 H 0.6236 0.9637 0.3411
C17_2 C 0.4366(11) 0.9978(8) 0.3515(6)
C18_2 C 0.5699(9) 0.8087(6) 0.2575(4)
C19_2 C 0.5305(9) 0.7524(6) 0.1970(4)
H13_2 H 0.4406 0.7488 0.1718
C20_2 C 0.6232(10) 0.7000(6) 0.1722(4)
C21_2 C 0.7550(10) 0.7056(6) 0.2094(5)
H14_2 H 0.8176 0.6715 0.1931
C22_2 C 0.7967(11) 0.7628(7) 0.2724(5)
H15_2 H 0.8861 0.7666 0.2980
C23_2 C 0.7038(10) 0.8122(6) 0.2950(4)
H16_2 H 0.7304 0.8496 0.3367
C24_2 C 0.5836(10) 0.6408(6) 0.1064(4)
I3_2 I 0.91863(7) 0.02495(5) 0.33184(3)
N3_2 N 0.9042(9) 0.2527(6) 0.3666(4)
C25_2 C 0.7703(12) 0.2391(9) 0.3696(6)
H17_2 H 0.7453 0.2043 0.3954
C26_2 C 0.6642(11) 0.2736(8) 0.3365(6)
H18_2 H 0.5719 0.2622 0.3410
C27_2 C 0.6971(10) 0.3257(7) 0.2964(4)
C28_2 C 0.8386(10) 0.3379(8) 0.2948(5)
H19_2 H 0.8685 0.3716 0.2691
C29_2 C 0.9349(12) 0.3023(8) 0.3294(5)
C30_2 C 0.5883(10) 0.3606(7) 0.2581(5)
C31_2 C 0.6056(9) 0.3770(6) 0.1988(5)
H21_2 H 0.6875 0.3659 0.1844
C32_2 C 0.5062(9) 0.4089(6) 0.1611(4)
C33_2 C 0.3833(10) 0.4242(8) 0.1822(5)
H22_2 H 0.3117 0.4421 0.1561
C34_2 C 0.3673(12) 0.4123(9) 0.2436(6)
H23_2 H 0.2881 0.4265 0.2593
C35_2 C 0.4684(11) 0.3798(7) 0.2802(5)
H24_2 H 0.4560 0.3708 0.3200
C36_2 C 0.5312(10) 0.4263(6) 0.0989(4)
loop_
_geom_bond_atom_site_label_1
_geom_bond_atom_site_label_2
_geom_bond_site_symmetry_1
_geom_bond_site_symmetry_2
I3 Cu1 1_555 1_555
O5 C36 1_555 1_555
O6 C36 1_555 1_555
C25 N3 1_555 1_555
H17 C25 1_555 1_555
C26 C25 1_555 1_555
H18 C26 1_555 1_555
C27 C26 1_555 1_555
C28 C27 1_555 1_555
H19 C28 1_555 1_555
C29 N3 1_555 1_555
C30 C27 1_555 1_555
C31 C30 1_555 1_555
H21 C31 1_555 1_555
C32 C31 1_555 1_555
C33 C32 1_555 1_555
H22 C33 1_555 1_555
C34 C33 1_555 1_555
H23 C34 1_555 1_555
C35 C30 1_555 1_555
H24 C35 1_555 1_555
C36 C32 1_555 1_555
La3 O5 1_555 1_555
C28 C29 1_555 1_555
C34 C35 1_555 1_555
O3 C24 1_555 1_555
O4 C24 1_555 1_555
C13 N2 1_555 1_555
H9 C13 1_555 1_555
C14 C13 1_555 1_555
H10 C14 1_555 1_555
C15 C14 1_555 1_555
C16 C15 1_555 1_555
H11 C16 1_555 1_555
C17 N2 1_555 1_555
C18 C15 1_555 1_555
C19 C18 1_555 1_555
H13 C19 1_555 1_555
C20 C19 1_555 1_555
C21 C20 1_555 1_555
H14 C21 1_555 1_555
C22 C21 1_555 1_555
H15 C22 1_555 1_555
C23 C18 1_555 1_555
H16 C23 1_555 1_555
C24 C20 1_555 1_555
La3 O4 1_555 1_555
C16 C17 1_555 1_555
C22 C23 1_555 1_555
I4 Cu2 1_555 1_555
Cu2 I1 1_555 1_555
Cu3 I1 1_555 1_555
Cu4 I2 1_555 1_555
O1 C12 1_555 1_555
N1 Cu2 1_555 1_555
C1 N1 1_555 1_555
H1 C1 1_555 1_555
C2 C1 1_555 1_555
H2 C2 1_555 1_555
C3 C2 1_555 1_555
C4 C3 1_555 1_555
H3 C4 1_555 1_555
C5 N1 1_555 1_555
H4 C5 1_555 1_555
C6 C3 1_555 1_555
C7 C6 1_555 1_555
H5 C7 1_555 1_555
C8 C7 1_555 1_555
C11 C6 1_555 1_555
H8 C11 1_555 1_555
C12 C8 1_555 1_555
C39 O9 1_555 1_555
H31 C39 1_555 1_555
H32 C39 1_555 1_555
C40 O8 1_555 1_555
H33 C40 1_555 1_555
H34 C40 1_555 1_555
I2 Cu2 1_555 1_555
I4 Cu3 1_555 1_555
I4 Cu4 1_555 1_555
C4 C5 1_555 1_555
C39 C40 1_555 1_555
O7 La3 1_555 1_555
H26 O7 1_555 1_555
H27 C37 1_555 1_555
H28 C37 1_555 1_555
C38 C37 1_555 1_555
H29 C38 1_555 1_555
H30 C38 1_555 1_555
O10 La3 1_555 1_555
H6 C9 1_555 1_555
C10 C9 1_555 1_555
H7 C10 1_555 1_555
La6 O2 1_555 1_555
H6_2 C9_2 1_555 1_555
C10_2 C9_2 1_555 1_555
H7_2 C10_2 1_555 1_555
O7_2 La6 1_555 1_555
H26_2 O7_2 1_555 1_555
H27_2 C37_2 1_555 1_555
H28_2 C37_2 1_555 1_555
C38_2 C37_2 1_555 1_555
H29_2 C38_2 1_555 1_555
H30_2 C38_2 1_555 1_555
O12 La6 1_555 1_555
O13 La6 1_555 1_555
I4_2 Cu2_2 1_555 1_555
Cu2_2 I5 1_555 1_555
Cu3_2 I5 1_555 1_555
Cu4_2 I2_2 1_555 1_555
O1_2 C12_2 1_555 1_555
N1_2 Cu2_2 1_555 1_555
C1_2 N1_2 1_555 1_555
H1_2 C1_2 1_555 1_555
C2_2 C1_2 1_555 1_555
H2_2 C2_2 1_555 1_555
C3_2 C2_2 1_555 1_555
C4_2 C3_2 1_555 1_555
H3_2 C4_2 1_555 1_555
C5_2 N1_2 1_555 1_555
H4_2 C5_2 1_555 1_555
C6_2 C3_2 1_555 1_555
C7_2 C6_2 1_555 1_555
H5_2 C7_2 1_555 1_555
C8_2 C7_2 1_555 1_555
C11_2 C6_2 1_555 1_555
H8_2 C11_2 1_555 1_555
C12_2 C8_2 1_555 1_555
C39_2 O9_2 1_555 1_555
H31_2 C39_2 1_555 1_555
H32_2 C39_2 1_555 1_555
C40_2 O8_2 1_555 1_555
H33_2 C40_2 1_555 1_555
H34_2 C40_2 1_555 1_555
I2_2 Cu2_2 1_555 1_555
I4_2 Cu3_2 1_555 1_555
I4_2 Cu4_2 1_555 1_555
C4_2 C5_2 1_555 1_555
C39_2 C40_2 1_555 1_555
O11 C24_2 1_555 1_555
O12 C24_2 1_555 1_555
C13_2 N2_2 1_555 1_555
H9_2 C13_2 1_555 1_555
C14_2 C13_2 1_555 1_555
H10_2 C14_2 1_555 1_555
C15_2 C14_2 1_555 1_555
C16_2 C15_2 1_555 1_555
H11_2 C16_2 1_555 1_555
C17_2 N2_2 1_555 1_555
C18_2 C15_2 1_555 1_555
C19_2 C18_2 1_555 1_555
H13_2 C19_2 1_555 1_555
C20_2 C19_2 1_555 1_555
C21_2 C20_2 1_555 1_555
H14_2 C21_2 1_555 1_555
C22_2 C21_2 1_555 1_555
H15_2 C22_2 1_555 1_555
C23_2 C18_2 1_555 1_555
H16_2 C23_2 1_555 1_555
C24_2 C20_2 1_555 1_555
C16_2 C17_2 1_555 1_555
C22_2 C23_2 1_555 1_555
I3_2 Cu5 1_555 1_555
O13 C36_2 1_555 1_555
O14 C36_2 1_555 1_555
C25_2 N3_2 1_555 1_555
H17_2 C25_2 1_555 1_555
C26_2 C25_2 1_555 1_555
H18_2 C26_2 1_555 1_555
C27_2 C26_2 1_555 1_555
C28_2 C27_2 1_555 1_555
H19_2 C28_2 1_555 1_555
C29_2 N3_2 1_555 1_555
C30_2 C27_2 1_555 1_555
C31_2 C30_2 1_555 1_555
H21_2 C31_2 1_555 1_555
C32_2 C31_2 1_555 1_555
C33_2 C32_2 1_555 1_555
H22_2 C33_2 1_555 1_555
C34_2 C33_2 1_555 1_555
H23_2 C34_2 1_555 1_555
C35_2 C30_2 1_555 1_555
H24_2 C35_2 1_555 1_555
C36_2 C32_2 1_555 1_555
C28_2 C29_2 1_555 1_555
C34_2 C35_2 1_555 1_555

#END
