
###############################################################################
#
# This file contains modified crystal structure data generated from the
# MOF subset of the Cambridge Structural Database (CSD) v543 
# hosted by the Cambridge Crystallographic Data Centre (CCDC).
#
# This work is licensed under the Creative Commons
# Attribution-NonCommercial-ShareAlike 4.0 International License.
# To view a copy of this license, visit
# http://creativecommons.org/licenses/by-nc-sa/4.0/
# or send a letter to
# Creative Commons, PO Box 1866, Mountain View, CA 94042, USA.
#
# CIF created using the CSD Python API on 29 September 2022
# The structure has been converted into the P1 space group
# The structure has a 3D framework
# The original CSD entry TAKHAR is in the triclinic crystal system
# The framework has been calculated to contain at least 10.0% void space
# The void calculation uses a probe of radius 1.32A, grid spacing 0.4
#
###############################################################################

data_TAKHAR
_chemical_formula_moiety         '(C72 H56 Cu8 Eu2 I8 N6 O14)n'
_symmetry_cell_setting           triclinic
_symmetry_space_group_name_H-M   'P 1'
_symmetry_Int_Tables_number      1
_space_group_name_Hall           'P 1'
loop_
_symmetry_equiv_pos_site_id
_symmetry_equiv_pos_as_xyz
1 x,y,z
_cell_length_a                   9.6689(19)
_cell_length_b                   16.716(3)
_cell_length_c                   21.277(4)
_cell_angle_alpha                104.23(3)
_cell_angle_beta                 100.42(3)
_cell_angle_gamma                96.86(3)
_cell_volume                     3229.6
loop_
_atom_site_label
_atom_site_type_symbol
_atom_site_fract_x
_atom_site_fract_y
_atom_site_fract_z
I5 I 0.23700(8) 0.00970(5) 0.49977(4)
Eu6 Eu 0.72387(5) 0.48464(4) 0.00184(3)
I3 I 0.08940(9) 0.97873(6) 0.67434(4)
Cu1 Cu 0.01404(17) 0.94278(11) 0.54053(8)
O5 O 0.3592(8) 0.5830(5) 0.9217(4)
O6 O 0.5767(8) 0.5501(5) 0.9388(4)
N3 N 0.0981(11) 0.7547(7) 0.6422(6)
C25 C 0.2388(16) 0.7713(11) 0.6435(8)
H17 H 0.2684 0.8099 0.6216
C26 C 0.3410(14) 0.7356(11) 0.6745(7)
H18 H 0.4358 0.7479 0.6718
C27 C 0.3011(12) 0.6801(8) 0.7106(6)
C28 C 0.1582(13) 0.6619(9) 0.7084(7)
H19 H 0.1243 0.6233 0.7293
C29 C 0.0655(14) 0.7014(9) 0.6749(7)
C30 C 0.4121(12) 0.6434(8) 0.7455(6)
C31 C 0.3949(12) 0.6260(7) 0.8065(5)
H21 H 0.3147 0.6376 0.8231
C32 C 0.4963(11) 0.5921(7) 0.8408(5)
C33 C 0.6218(12) 0.5771(9) 0.8176(6)
H22 H 0.6928 0.5571 0.8421
C34 C 0.6373(15) 0.5921(11) 0.7593(7)
H23 H 0.7183 0.5810 0.7433
C35 C 0.5323(13) 0.6241(8) 0.7230(6)
H24 H 0.5442 0.6326 0.6826
C36 C 0.4779(11) 0.5744(7) 0.9067(5)
Eu3 Eu 0.27613(5) 0.51536(4) 0.99816(3)
O3 O 0.5452(8) 0.3754(5) 0.9283(4)
O4 O 0.3264(8) 0.4080(5) 0.9128(4)
N2 N 0.7079(11) 0.0282(7) 0.6681(5)
C13 C 0.7644(14) 0.1035(8) 0.7109(6)
H9 H 0.8632 0.1186 0.7236
C14 C 0.6810(12) 0.1596(8) 0.7369(6)
H10 H 0.7240 0.2105 0.7674
C15 C 0.5314(12) 0.1396(8) 0.7171(5)
C16 C 0.4763(14) 0.0599(9) 0.6713(7)
H11 H 0.3781 0.0433 0.6558
C17 C 0.5647(12) 0.0080(9) 0.6501(8)
C18 C 0.4348(12) 0.1976(8) 0.7423(5)
C19 C 0.4756(12) 0.2564(8) 0.8025(6)
H13 H 0.5684 0.2644 0.8272
C20 C 0.3782(11) 0.3048(7) 0.8273(5)
C21 C 0.2436(12) 0.2963(8) 0.7876(6)
H14 H 0.1794 0.3292 0.8032
C22 C 0.2039(13) 0.2406(8) 0.7263(6)
H15 H 0.1138 0.2363 0.7000
C23 C 0.2974(13) 0.1907(8) 0.7034(6)
H16 H 0.2696 0.1520 0.6618
C24 C 0.4196(11) 0.3675(8) 0.8949(6)
Cu5 Cu 0.98596(17) 0.05722(11) 0.45947(8)
I1 I 0.76300(8) 0.99030(5) 0.50023(4)
I2 I 0.98948(9) 0.77964(5) 0.47165(4)
I4 I 0.69772(9) 0.79038(6) 0.61407(4)
Cu2 Cu 0.75541(16) 0.82741(11) 0.50277(8)
Cu3 Cu 0.82078(17) 0.94673(12) 0.62266(9)
Cu4 Cu 0.96271(17) 0.81831(11) 0.59992(8)
O1 O 0.1704(8) 0.5444(5) 0.0918(4)
O8 O 0.2033(10) 0.6638(6) 0.0132(5)
N1 N 0.5778(10) 0.7617(7) 0.4347(5)
C1 C 0.4526(12) 0.7837(8) 0.4371(6)
H1 H 0.4486 0.8311 0.4700
C2 C 0.3276(13) 0.7416(8) 0.3942(6)
H2 H 0.2427 0.7610 0.3985
C3 C 0.3263(11) 0.6715(7) 0.3453(5)
C4 C 0.4575(11) 0.6481(7) 0.3398(5)
H3 H 0.4637 0.6019 0.3063
C5 C 0.5791(13) 0.6947(8) 0.3852(6)
H4 H 0.6664 0.6784 0.3811
C6 C 0.1936(11) 0.6221(7) 0.2971(5)
C7 C 0.1875(12) 0.5966(7) 0.2281(5)
H5 H 0.2675 0.6103 0.2118
C8 C 0.0624(11) 0.5511(7) 0.1846(5)
C11 C 0.0709(13) 0.6023(8) 0.3189(6)
H8 H 0.0721 0.6199 0.3640
C12 C 0.0579(12) 0.5255(7) 0.1106(5)
H12 H 0.5247 0.9553 0.6215
H20 H 0.9697 0.6889 0.6758
H27 H 0.224(10) 0.708(2) 0.0553(15)
O10 O 0.4548(8) 0.6246(5) 0.0717(4)
O13 O 0.4233(8) 0.4499(5) 0.0612(4)
O7 O 0.1173(8) 0.3834(5) 0.9912(5)
H25 H 0.016(4) 0.374(2) 0.998(5)
H26 H 0.137(5) 0.3235(14) 0.984(5)
H28 H 0.176(11) 0.689(3) 0.9771(15)
O9 O 0.0600(7) 0.5147(5) 0.9280(3)
O2 O 0.9400(7) 0.4853(5) 0.0720(3)
C9 C 0.9412(11) 0.5306(7) 0.2084(6)
H6 H 0.8581 0.4994 0.1790
C10 C 0.9452(12) 0.5566(8) 0.2750(6)
H7 H 0.8644 0.5438 0.2910
C9_2 C 0.0588(11) 0.4694(7) 0.7916(6)
H6_2 H 0.1419 0.5006 0.8210
C10_2 C 0.0548(12) 0.4434(8) 0.7250(6)
H7_2 H 0.1356 0.4562 0.7090
O7_2 O 0.8827(8) 0.6166(5) 0.0088(5)
H25_2 H 0.984(4) 0.626(2) 0.002(5)
H26_2 H 0.863(5) 0.6765(14) 0.016(5)
H28_2 H 0.824(11) 0.311(3) 0.0229(15)
O11 O 0.6736(8) 0.5920(5) 0.0872(4)
O12 O 0.6408(8) 0.4170(5) 0.0783(4)
I2_2 I 0.01052(9) 0.22036(5) 0.52835(4)
I4_2 I 0.30228(9) 0.20962(6) 0.38593(4)
Cu2_2 Cu 0.24459(16) 0.17259(11) 0.49723(8)
Cu3_2 Cu 0.17922(17) 0.05327(12) 0.37734(9)
Cu4_2 Cu 0.03729(17) 0.18169(11) 0.40008(8)
O1_2 O 0.8296(8) 0.4556(5) 0.9082(4)
O8_2 O 0.7967(10) 0.3362(6) 0.9868(5)
N1_2 N 0.4222(10) 0.2383(7) 0.5653(5)
C1_2 C 0.5474(12) 0.2163(8) 0.5629(6)
H1_2 H 0.5514 0.1689 0.5300
C2_2 C 0.6724(13) 0.2584(8) 0.6058(6)
H2_2 H 0.7573 0.2390 0.6015
C3_2 C 0.6737(11) 0.3285(7) 0.6547(5)
C4_2 C 0.5425(11) 0.3519(7) 0.6602(5)
H3_2 H 0.5363 0.3981 0.6937
C5_2 C 0.4209(13) 0.3053(8) 0.6148(6)
H4_2 H 0.3336 0.3216 0.6189
C6_2 C 0.8064(11) 0.3779(7) 0.7029(5)
C7_2 C 0.8125(12) 0.4034(7) 0.7719(5)
H5_2 H 0.7325 0.3897 0.7882
C8_2 C 0.9376(11) 0.4489(7) 0.8154(5)
C11_2 C 0.9291(13) 0.3977(8) 0.6811(6)
H8_2 H 0.9279 0.3801 0.6360
C12_2 C 0.9421(12) 0.4745(7) 0.8894(5)
H12_2 H 0.4753 0.0447 0.3785
H20_2 H 0.0303 0.3111 0.3242
H27_2 H 0.776(10) 0.292(2) 0.9447(15)
N2_2 N 0.2921(11) 0.9718(7) 0.3319(5)
C13_2 C 0.2356(14) 0.8965(8) 0.2891(6)
H9_2 H 0.1368 0.8814 0.2764
C14_2 C 0.3190(12) 0.8404(8) 0.2631(6)
H10_2 H 0.2760 0.7895 0.2326
C15_2 C 0.4686(12) 0.8604(8) 0.2829(5)
C16_2 C 0.5237(14) 0.9401(9) 0.3287(7)
H11_2 H 0.6219 0.9567 0.3442
C17_2 C 0.4353(12) 0.9920(9) 0.3499(8)
C18_2 C 0.5652(12) 0.8024(8) 0.2577(5)
C19_2 C 0.5244(12) 0.7436(8) 0.1975(6)
H13_2 H 0.4316 0.7356 0.1728
C20_2 C 0.6218(11) 0.6952(7) 0.1727(5)
C21_2 C 0.7564(12) 0.7037(8) 0.2124(6)
H14_2 H 0.8206 0.6708 0.1968
C22_2 C 0.7961(13) 0.7594(8) 0.2737(6)
H15_2 H 0.8862 0.7637 0.3000
C23_2 C 0.7026(13) 0.8093(8) 0.2966(6)
H16_2 H 0.7304 0.8480 0.3382
C24_2 C 0.5804(11) 0.6325(8) 0.1051(6)
I3_2 I 0.91060(9) 0.02127(6) 0.32566(4)
N3_2 N 0.9019(11) 0.2453(7) 0.3578(6)
C25_2 C 0.7612(16) 0.2287(11) 0.3565(8)
H17_2 H 0.7316 0.1901 0.3784
C26_2 C 0.6590(14) 0.2644(11) 0.3255(7)
H18_2 H 0.5642 0.2521 0.3282
C27_2 C 0.6989(12) 0.3199(8) 0.2894(6)
C28_2 C 0.8418(13) 0.3381(9) 0.2916(7)
H19_2 H 0.8757 0.3767 0.2707
C29_2 C 0.9345(14) 0.2986(9) 0.3251(7)
C30_2 C 0.5879(12) 0.3566(8) 0.2545(6)
C31_2 C 0.6051(12) 0.3740(7) 0.1935(5)
H21_2 H 0.6853 0.3624 0.1769
C32_2 C 0.5037(11) 0.4079(7) 0.1592(5)
C33_2 C 0.3782(12) 0.4229(9) 0.1824(6)
H22_2 H 0.3072 0.4429 0.1579
C34_2 C 0.3627(15) 0.4079(11) 0.2407(7)
H23_2 H 0.2817 0.4190 0.2567
C35_2 C 0.4677(13) 0.3759(8) 0.2770(6)
H24_2 H 0.4558 0.3674 0.3174
C36_2 C 0.5221(11) 0.4256(7) 0.0933(5)
loop_
_geom_bond_atom_site_label_1
_geom_bond_atom_site_label_2
_geom_bond_site_symmetry_1
_geom_bond_site_symmetry_2
I3 Cu1 1_555 1_555
O5 C36 1_555 1_555
O6 C36 1_555 1_555
C25 N3 1_555 1_555
H17 C25 1_555 1_555
C26 C25 1_555 1_555
H18 C26 1_555 1_555
C27 C26 1_555 1_555
C28 C27 1_555 1_555
H19 C28 1_555 1_555
C29 N3 1_555 1_555
C30 C27 1_555 1_555
C31 C30 1_555 1_555
H21 C31 1_555 1_555
C32 C31 1_555 1_555
C33 C32 1_555 1_555
H22 C33 1_555 1_555
C34 C33 1_555 1_555
H23 C34 1_555 1_555
C35 C30 1_555 1_555
H24 C35 1_555 1_555
C36 C32 1_555 1_555
Eu3 O5 1_555 1_555
C28 C29 1_555 1_555
C34 C35 1_555 1_555
O3 C24 1_555 1_555
O4 C24 1_555 1_555
C13 N2 1_555 1_555
H9 C13 1_555 1_555
C14 C13 1_555 1_555
H10 C14 1_555 1_555
C15 C14 1_555 1_555
C16 C15 1_555 1_555
H11 C16 1_555 1_555
C17 N2 1_555 1_555
C18 C15 1_555 1_555
C19 C18 1_555 1_555
H13 C19 1_555 1_555
C20 C19 1_555 1_555
C21 C20 1_555 1_555
H14 C21 1_555 1_555
C22 C21 1_555 1_555
H15 C22 1_555 1_555
C23 C18 1_555 1_555
H16 C23 1_555 1_555
C24 C20 1_555 1_555
Eu3 O4 1_555 1_555
C16 C17 1_555 1_555
C22 C23 1_555 1_555
I4 Cu2 1_555 1_555
Cu2 I1 1_555 1_555
Cu3 I1 1_555 1_555
Cu4 I2 1_555 1_555
O1 C12 1_555 1_555
N1 Cu2 1_555 1_555
C1 N1 1_555 1_555
H1 C1 1_555 1_555
C2 C1 1_555 1_555
H2 C2 1_555 1_555
C3 C2 1_555 1_555
C4 C3 1_555 1_555
H3 C4 1_555 1_555
C5 N1 1_555 1_555
H4 C5 1_555 1_555
C6 C3 1_555 1_555
C7 C6 1_555 1_555
H5 C7 1_555 1_555
C8 C7 1_555 1_555
C11 C6 1_555 1_555
H8 C11 1_555 1_555
C12 C8 1_555 1_555
H27 O8 1_555 1_555
I2 Cu2 1_555 1_555
I4 Cu3 1_555 1_555
I4 Cu4 1_555 1_555
C4 C5 1_555 1_555
O7 Eu3 1_555 1_555
H25 O7 1_555 1_555
H26 O7 1_555 1_555
O9 Eu3 1_555 1_555
H6 C9 1_555 1_555
C10 C9 1_555 1_555
H7 C10 1_555 1_555
Eu6 O2 1_555 1_555
H6_2 C9_2 1_555 1_555
C10_2 C9_2 1_555 1_555
H7_2 C10_2 1_555 1_555
O7_2 Eu6 1_555 1_555
H25_2 O7_2 1_555 1_555
H26_2 O7_2 1_555 1_555
O11 Eu6 1_555 1_555
O12 Eu6 1_555 1_555
I4_2 Cu2_2 1_555 1_555
Cu2_2 I5 1_555 1_555
Cu3_2 I5 1_555 1_555
Cu4_2 I2_2 1_555 1_555
O1_2 C12_2 1_555 1_555
N1_2 Cu2_2 1_555 1_555
C1_2 N1_2 1_555 1_555
H1_2 C1_2 1_555 1_555
C2_2 C1_2 1_555 1_555
H2_2 C2_2 1_555 1_555
C3_2 C2_2 1_555 1_555
C4_2 C3_2 1_555 1_555
H3_2 C4_2 1_555 1_555
C5_2 N1_2 1_555 1_555
H4_2 C5_2 1_555 1_555
C6_2 C3_2 1_555 1_555
C7_2 C6_2 1_555 1_555
H5_2 C7_2 1_555 1_555
C8_2 C7_2 1_555 1_555
C11_2 C6_2 1_555 1_555
H8_2 C11_2 1_555 1_555
C12_2 C8_2 1_555 1_555
H27_2 O8_2 1_555 1_555
I2_2 Cu2_2 1_555 1_555
I4_2 Cu3_2 1_555 1_555
I4_2 Cu4_2 1_555 1_555
C4_2 C5_2 1_555 1_555
O10 C24_2 1_555 1_555
O11 C24_2 1_555 1_555
C13_2 N2_2 1_555 1_555
H9_2 C13_2 1_555 1_555
C14_2 C13_2 1_555 1_555
H10_2 C14_2 1_555 1_555
C15_2 C14_2 1_555 1_555
C16_2 C15_2 1_555 1_555
H11_2 C16_2 1_555 1_555
C17_2 N2_2 1_555 1_555
C18_2 C15_2 1_555 1_555
C19_2 C18_2 1_555 1_555
H13_2 C19_2 1_555 1_555
C20_2 C19_2 1_555 1_555
C21_2 C20_2 1_555 1_555
H14_2 C21_2 1_555 1_555
C22_2 C21_2 1_555 1_555
H15_2 C22_2 1_555 1_555
C23_2 C18_2 1_555 1_555
H16_2 C23_2 1_555 1_555
C24_2 C20_2 1_555 1_555
C16_2 C17_2 1_555 1_555
C22_2 C23_2 1_555 1_555
I3_2 Cu5 1_555 1_555
O12 C36_2 1_555 1_555
O13 C36_2 1_555 1_555
C25_2 N3_2 1_555 1_555
H17_2 C25_2 1_555 1_555
C26_2 C25_2 1_555 1_555
H18_2 C26_2 1_555 1_555
C27_2 C26_2 1_555 1_555
C28_2 C27_2 1_555 1_555
H19_2 C28_2 1_555 1_555
C29_2 N3_2 1_555 1_555
C30_2 C27_2 1_555 1_555
C31_2 C30_2 1_555 1_555
H21_2 C31_2 1_555 1_555
C32_2 C31_2 1_555 1_555
C33_2 C32_2 1_555 1_555
H22_2 C33_2 1_555 1_555
C34_2 C33_2 1_555 1_555
H23_2 C34_2 1_555 1_555
C35_2 C30_2 1_555 1_555
H24_2 C35_2 1_555 1_555
C36_2 C32_2 1_555 1_555
C28_2 C29_2 1_555 1_555
C34_2 C35_2 1_555 1_555

#END
