
###############################################################################
#
# This file contains modified crystal structure data generated from the
# MOF subset of the Cambridge Structural Database (CSD) v543 
# hosted by the Cambridge Crystallographic Data Centre (CCDC).
#
# This work is licensed under the Creative Commons
# Attribution-NonCommercial-ShareAlike 4.0 International License.
# To view a copy of this license, visit
# http://creativecommons.org/licenses/by-nc-sa/4.0/
# or send a letter to
# Creative Commons, PO Box 1866, Mountain View, CA 94042, USA.
#
# CIF created using the CSD Python API on 29 September 2022
# The structure has been converted into the P1 space group
# The structure has a 3D framework
# The original CSD entry TAKYOV is in the hexagonal crystal system
# The framework has been calculated to contain at least 10.0% void space
# The void calculation uses a probe of radius 1.32A, grid spacing 0.4
#
###############################################################################

data_TAKYOV
_chemical_formula_moiety         '(C84 H60 Co15 Dy2 N12 O66)n'
_symmetry_cell_setting           triclinic
_symmetry_space_group_name_H-M   'P 1'
_symmetry_Int_Tables_number      1
_space_group_name_Hall           'P 1'
loop_
_symmetry_equiv_pos_site_id
_symmetry_equiv_pos_as_xyz
1 x,y,z
_cell_length_a                   15.1473(9)
_cell_length_b                   15.1473(9)
_cell_length_c                   15.4766(18)
_cell_angle_alpha                90
_cell_angle_beta                 90
_cell_angle_gamma                120
_cell_volume                     3075.22
loop_
_atom_site_label
_atom_site_type_symbol
_atom_site_fract_x
_atom_site_fract_y
_atom_site_fract_z
Co8 Co 0.5000 0.5000 0.0000
Co1 Co 0.5000 0.0000 0.5000
O3 O 0.6488(4) 0.1346(3) 0.5000
H3 H 0.6527 0.1656 0.4553
Co4 Co 0.5000 0.0000 0.0000
Co8_2 Co 0.5000 0.5000 1.0000
Dy2 Dy 0.6667 0.3333 0.2500
Dy3 Dy 0.6667 0.3333 0.7500
O9 O 0.5877(4) 0.1988(4) 0.3564(2)
O10 O 0.5877(4) 0.3889(6) 0.1436(2)
O11 O 0.5877(4) 0.1988(4) 0.6436(2)
O12 O 0.5877(4) 0.3889(6) 0.8564(2)
O15 O 0.8012(4) 0.3889(6) 0.3564(2)
O16 O 0.6111(6) 0.4123(4) 0.3564(2)
O17 O 0.8012(4) 0.4123(4) 0.1436(2)
O18 O 0.6111(6) 0.1988(4) 0.1436(2)
C10 C 0.4924(5) 0.1380(3) 0.3608(3)
C11 C 0.4924(5) 0.3544(6) 0.1392(3)
C12 C 0.4924(5) 0.1380(3) 0.6392(3)
C13 C 0.4924(5) 0.3544(6) 0.8608(3)
C21 C 0.4266(5) 0.1615(3) 0.3039(3)
C22 C 0.4266(5) 0.2651(6) 0.1961(3)
C23 C 0.4266(5) 0.1615(3) 0.6961(3)
C24 C 0.4266(5) 0.2651(6) 0.8039(3)
O24 O 0.4484(2) 0.0615(4) 0.4080(2)
O25 O 0.4484(2) 0.3869(4) 0.0920(2)
O26 O 0.4484(2) 0.0615(4) 0.5920(2)
O27 O 0.4484(2) 0.3869(4) 0.9080(2)
C32 C 0.3214(6) 0.1072(3) 0.3064(4)
C33 C 0.3214(6) 0.2142(7) 0.1936(4)
C34 C 0.3214(6) 0.1072(3) 0.6936(4)
C35 C 0.3214(6) 0.2142(7) 0.8064(4)
H9 H 0.2867 0.0536 0.3450
H10 H 0.2867 0.2331 0.1550
H11 H 0.2867 0.0536 0.6550
H12 H 0.2867 0.2331 0.8450
C40 C 0.2702(7) 0.1351(6) 0.2500
C41 C 0.2702(7) 0.1351(6) 0.7500
H17 H 0.1993 0.0996 0.2500
H18 H 0.1993 0.0996 0.7500
N4 N 0.4781(4) 0.2391(2) 0.2500
N5 N 0.4781(4) 0.2391(2) 0.7500
N7 N 0.7609(2) 0.2390(4) 0.2500
N8 N 0.7610(4) 0.5219(4) 0.2500
H20 H 0.6527 0.1656 0.5447
Co4_2 Co 0.5000 0.0000 1.0000
Co1_2 Co 0.5000 1.0000 0.5000
Dy1 Dy 0.3333 0.6667 0.2500
O1 O 0.4123(4) 0.8012(4) 0.3564(2)
C1 C 0.5076(5) 0.8620(3) 0.3608(3)
C2 C 0.5734(5) 0.8385(3) 0.3039(3)
O2 O 0.5516(2) 0.9385(4) 0.4080(2)
C3 C 0.6786(6) 0.8928(3) 0.3064(4)
H1 H 0.7133 0.9464 0.3450
C4 C 0.7298(7) 0.8649(6) 0.2500
H2 H 0.8007 0.9004 0.2500
N1 N 0.5219(4) 0.7609(2) 0.2500
Co3 Co -0.0000 0.5000 0.5000
Co4_3 Co 0.5000 1.0000 0.0000
Co5 Co 0.5000 0.5000 0.5000
Co6 Co 0.0000 0.5000 0.0000
Dy4 Dy 0.3333 0.6667 0.7500
O4 O 0.4123(4) 0.6111(6) 0.1436(2)
O5 O 0.1988(4) 0.6111(6) 0.3564(2)
O6 O 0.3889(6) 0.8012(4) 0.1436(2)
O7 O 0.3889(6) 0.5877(4) 0.3564(2)
O8 O 0.1988(4) 0.5877(4) 0.1436(2)
O13 O 0.4123(4) 0.8012(4) 0.6436(2)
O14 O 0.4123(4) 0.6111(6) 0.8564(2)
C5 C 0.5076(5) 0.6456(6) 0.1392(3)
C6 C 0.1380(3) 0.6456(6) 0.3608(3)
C7 C 0.3544(6) 0.8620(3) 0.1392(3)
C8 C 0.3544(6) 0.4924(5) 0.3608(3)
C9 C 0.1380(3) 0.4924(5) 0.1392(3)
C14 C 0.5076(5) 0.8620(3) 0.6392(3)
C15 C 0.5076(5) 0.6456(6) 0.8608(3)
C16 C 0.5734(5) 0.7349(6) 0.1961(3)
C17 C 0.1615(3) 0.7349(6) 0.3039(3)
C18 C 0.2651(6) 0.8385(3) 0.1961(3)
C19 C 0.2651(6) 0.4266(5) 0.3039(3)
C20 C 0.1615(3) 0.4266(5) 0.1961(3)
C25 C 0.5734(5) 0.8385(3) 0.6961(3)
C26 C 0.5734(5) 0.7349(6) 0.8039(3)
O19 O 0.5516(2) 0.6131(4) 0.0920(2)
O20 O 0.0615(4) 0.6131(4) 0.4080(2)
O21 O 0.3869(4) 0.9385(4) 0.0920(2)
O22 O 0.3869(4) 0.4484(2) 0.4080(2)
O23 O 0.0615(4) 0.4484(2) 0.0920(2)
O28 O 0.5516(2) 0.9385(4) 0.5920(2)
O29 O 0.5516(2) 0.6131(4) 0.9080(2)
O35 O 0.0615(4) 0.6131(4) 0.5920(2)
C27 C 0.6786(6) 0.7858(7) 0.1936(4)
C28 C 0.1072(3) 0.7858(7) 0.3064(4)
C29 C 0.2142(7) 0.8928(3) 0.1936(4)
C30 C 0.2142(7) 0.3214(6) 0.3064(4)
C31 C 0.1072(3) 0.3214(6) 0.1936(4)
C36 C 0.6786(6) 0.8928(3) 0.6936(4)
C37 C 0.6786(6) 0.7858(7) 0.8064(4)
H4 H 0.7133 0.7669 0.1550
H5 H 0.0536 0.7669 0.3450
H6 H 0.2331 0.9464 0.1550
H7 H 0.2331 0.2867 0.3450
H8 H 0.0536 0.2867 0.1550
H13 H 0.7133 0.9464 0.6550
H14 H 0.7133 0.7669 0.8450
C38 C 0.1351(6) 0.8649(9) 0.2500
C39 C 0.1351(9) 0.2702(7) 0.2500
C42 C 0.7298(7) 0.8649(6) 0.7500
H15 H 0.0996 0.9003 0.2500
H16 H 0.0997 0.1993 0.2500
H19 H 0.8007 0.9004 0.7500
N2 N 0.2391(2) 0.7610(4) 0.2500
N3 N 0.2390(4) 0.4781(4) 0.2500
N6 N 0.5219(4) 0.7609(2) 0.7500
O36 O 0.3512(4) 0.8654(3) 0.5000
O37 O 0.6488(4) 0.5142(5) 0.0000
O38 O 0.3512(4) 0.4858(5) 0.0000
O40 O 0.1346(3) 0.4858(5) 0.5000
H21 H 0.3473 0.8344 0.4553
H22 H 0.3473 0.8344 0.5447
H23 H 0.6527 0.4871 0.0447
H25 H 0.3473 0.5129 0.0447
H29 H 0.1656 0.5129 0.4553
H30 H 0.1656 0.5129 0.5447
Co4_4 Co 0.5000 1.0000 1.0000
Co6_2 Co 0.0000 0.5000 1.0000
O37_2 O 0.6488(4) 0.5142(5) 1.0000
O38_2 O 0.3512(4) 0.4858(5) 1.0000
H24 H 0.6527 0.4871 0.9553
H26 H 0.3473 0.5129 0.9553
Co3_2 Co 1.0000 0.5000 0.5000
Co6_3 Co 1.0000 0.5000 0.0000
O33 O 0.9385(4) 0.3869(4) 0.4080(2)
O34 O 0.9385(4) 0.3869(4) 0.5920(2)
O39 O 0.8654(3) 0.5142(5) 0.5000
H27 H 0.8344 0.4871 0.4553
H28 H 0.8344 0.4871 0.5447
Co6_4 Co 1.0000 0.5000 1.0000
O30 O 0.6131(4) 0.0615(4) 0.0920(2)
O37_3 O 0.4858(5) 0.1346(6) 0.0000
H23_2 H 0.5129 0.1656 0.0447
O31 O 0.6131(4) 0.0615(4) 0.9080(2)
O37_4 O 0.4858(5) 0.1346(6) 1.0000
H24_2 H 0.5129 0.1656 0.9553
O13_2 O 0.1988(4) 0.6111(6) 0.6436(2)
O14_2 O 0.3889(6) 0.8012(7) 0.8564(2)
C14_2 C 0.1380(3) 0.6456(6) 0.6392(3)
C15_2 C 0.3544(6) 0.8620(8) 0.8608(3)
C25_2 C 0.1615(3) 0.7349(6) 0.6961(3)
C26_2 C 0.2651(6) 0.8385(8) 0.8039(3)
O29_2 O 0.3869(4) 0.9385(4) 0.9080(2)
O33_2 O 0.6131(4) 0.5516(6) 0.4080(2)
O34_2 O 0.6131(4) 0.5516(6) 0.5920(2)
O35_2 O 0.3869(4) 0.4484(6) 0.5920(2)
C36_2 C 0.1072(3) 0.7858(7) 0.6936(4)
C37_2 C 0.2142(7) 0.8928(9) 0.8064(4)
H13_2 H 0.0536 0.7669 0.6550
H14_2 H 0.2331 0.9464 0.8450
C42_2 C 0.1351(6) 0.8649(9) 0.7500
H19_2 H 0.0996 0.9003 0.7500
N6_2 N 0.2391(2) 0.7610(4) 0.7500
O38_3 O 0.5142(5) 0.8654(6) 0.0000
O39_2 O 0.4858(5) 0.3512(6) 0.5000
O40_2 O 0.5142(5) 0.6488(6) 0.5000
H25_2 H 0.4871 0.8344 0.0447
H27_2 H 0.5129 0.3473 0.4553
H28_2 H 0.5129 0.3473 0.5447
H29_2 H 0.4871 0.6527 0.4553
H30_2 H 0.4871 0.6527 0.5447
O38_4 O 0.5142(5) 0.8654(6) 1.0000
H26_2 H 0.4871 0.8344 0.9553
O11_2 O 0.8012(4) 0.3889(6) 0.6436(2)
O12_2 O 0.6111(6) 0.1988(7) 0.8564(2)
C10_2 C 0.8620(3) 0.3544(6) 0.3608(3)
C11_2 C 0.6456(6) 0.1380(8) 0.1392(3)
C12_2 C 0.8620(3) 0.3544(6) 0.6392(3)
C13_2 C 0.6456(6) 0.1380(8) 0.8608(3)
C21_2 C 0.8385(3) 0.2651(6) 0.3039(3)
C22_2 C 0.7349(6) 0.1615(8) 0.1961(3)
C23_2 C 0.8385(3) 0.2651(6) 0.6961(3)
C24_2 C 0.7349(6) 0.1615(8) 0.8039(3)
C32_2 C 0.8928(3) 0.2142(7) 0.3064(4)
C33_2 C 0.7858(7) 0.1072(9) 0.1936(4)
C34_2 C 0.8928(3) 0.2142(7) 0.6936(4)
C35_2 C 0.7858(7) 0.1072(9) 0.8064(4)
H9_2 H 0.9464 0.2331 0.3450
H10_2 H 0.7669 0.0536 0.1550
H11_2 H 0.9464 0.2331 0.6550
H12_2 H 0.7669 0.0536 0.8450
C40_2 C 0.8649(6) 0.1351(9) 0.2500
C41_2 C 0.8649(6) 0.1351(9) 0.7500
H17_2 H 0.9004 0.0997 0.2500
H18_2 H 0.9004 0.0997 0.7500
N5_2 N 0.7609(2) 0.2390(4) 0.7500
O11_3 O 0.6111(6) 0.4123(4) 0.6436(2)
O12_3 O 0.8012(7) 0.4123(4) 0.8564(2)
O13_3 O 0.3889(6) 0.5877(4) 0.6436(2)
O14_3 O 0.1988(7) 0.5877(4) 0.8564(2)
C10_3 C 0.6456(6) 0.5076(5) 0.3608(3)
C11_3 C 0.8620(8) 0.5076(5) 0.1392(3)
C12_3 C 0.6456(6) 0.5076(5) 0.6392(3)
C13_3 C 0.8620(8) 0.5076(5) 0.8608(3)
C14_3 C 0.3544(6) 0.4924(5) 0.6392(3)
C15_3 C 0.1380(8) 0.4924(5) 0.8608(3)
C21_3 C 0.7349(6) 0.5734(5) 0.3039(3)
C22_3 C 0.8385(8) 0.5734(5) 0.1961(3)
C23_3 C 0.7349(6) 0.5734(5) 0.6961(3)
C24_3 C 0.8385(8) 0.5734(5) 0.8039(3)
C25_3 C 0.2651(6) 0.4266(5) 0.6961(3)
C26_3 C 0.1615(8) 0.4266(5) 0.8039(3)
O25_2 O 0.9385(4) 0.5516(2) 0.0920(2)
O27_2 O 0.9385(4) 0.5516(2) 0.9080(2)
O29_3 O 0.0615(4) 0.4484(2) 0.9080(2)
C32_3 C 0.7858(7) 0.6786(6) 0.3064(4)
C33_3 C 0.8928(9) 0.6786(6) 0.1936(4)
C34_3 C 0.7858(7) 0.6786(6) 0.6936(4)
C35_3 C 0.8928(9) 0.6786(6) 0.8064(4)
C36_3 C 0.2142(7) 0.3214(6) 0.6936(4)
C37_3 C 0.1072(9) 0.3214(6) 0.8064(4)
H9_3 H 0.7669 0.7133 0.3450
H10_3 H 0.9464 0.7133 0.1550
H11_3 H 0.7669 0.7133 0.6550
H12_3 H 0.9464 0.7133 0.8450
H13_3 H 0.2331 0.2867 0.6550
H14_3 H 0.0536 0.2867 0.8450
C40_3 C 0.8649(9) 0.7298(7) 0.2500
C41_3 C 0.8649(9) 0.7298(7) 0.7500
C42_3 C 0.1351(9) 0.2702(7) 0.7500
H17_3 H 0.9003 0.8007 0.2500
H18_3 H 0.9003 0.8007 0.7500
H19_3 H 0.0997 0.1993 0.7500
N5_3 N 0.7610(4) 0.5219(4) 0.7500
N6_3 N 0.2390(4) 0.4781(4) 0.7500
O38_5 O 0.1346(6) 0.6488(4) 0.0000
H25_3 H 0.1656 0.6527 0.0447
O38_6 O 0.1346(6) 0.6488(4) 1.0000
H26_3 H 0.1656 0.6527 0.9553
O37_5 O 0.8654(6) 0.3512(4) 0.0000
H23_3 H 0.8344 0.3473 0.0447
O37_6 O 0.8654(6) 0.3512(4) 1.0000
H24_3 H 0.8344 0.3473 0.9553
loop_
_geom_bond_atom_site_label_1
_geom_bond_atom_site_label_2
_geom_bond_site_symmetry_1
_geom_bond_site_symmetry_2
O3 Co1 1_555 1_555
H3 O3 1_555 1_555
Co8 O25 1_555 1_555
Co8_2 O27 1_555 1_555
Dy2 O9 1_555 1_555
Dy3 O11 1_555 1_555
O9 C10 1_555 1_555
O10 Dy2 1_555 1_555
O11 C12 1_555 1_555
O12 Dy3 1_555 1_555
O15 Dy2 1_555 1_555
O16 Dy2 1_555 1_555
O17 Dy2 1_555 1_555
O18 Dy2 1_555 1_555
C10 C21 1_555 1_555
C11 O10 1_555 1_555
C12 C23 1_555 1_555
C13 O12 1_555 1_555
C21 C32 1_555 1_555
C22 C11 1_555 1_555
C23 C34 1_555 1_555
C24 C13 1_555 1_555
O24 Co1 1_555 1_555
O25 C11 1_555 1_555
O26 Co1 1_555 1_555
O27 C13 1_555 1_555
C32 H9 1_555 1_555
C33 C22 1_555 1_555
C34 H11 1_555 1_555
C35 C24 1_555 1_555
H10 C33 1_555 1_555
H12 C35 1_555 1_555
C40 C32 1_555 1_555
C41 C34 1_555 1_555
H17 C40 1_555 1_555
H18 C41 1_555 1_555
N4 Dy2 1_555 1_555
N5 Dy3 1_555 1_555
N7 Dy2 1_555 1_555
N8 Dy2 1_555 1_555
H20 O3 1_555 1_555
C10 O24 1_555 1_555
C12 O26 1_555 1_555
C21 N4 1_555 1_555
C22 N4 1_555 1_555
C23 N5 1_555 1_555
C24 N5 1_555 1_555
C33 C40 1_555 1_555
C35 C41 1_555 1_555
Co1_2 O2 1_555 1_555
Dy1 O1 1_555 1_555
O1 C1 1_555 1_555
C1 C2 1_555 1_555
C2 C3 1_555 1_555
O2 C1 1_555 1_555
C3 H1 1_555 1_555
C4 C3 1_555 1_555
H2 C4 1_555 1_555
N1 Dy1 1_555 1_555
Co8 O19 1_555 1_555
Co3 O20 1_555 1_555
Co4_3 O21 1_555 1_555
Co5 O22 1_555 1_555
Co6 O23 1_555 1_555
Co8_2 O29 1_555 1_555
Dy4 O13 1_555 1_555
O4 Dy1 1_555 1_555
O5 Dy1 1_555 1_555
O6 Dy1 1_555 1_555
O7 Dy1 1_555 1_555
O8 Dy1 1_555 1_555
O13 C14 1_555 1_555
O14 Dy4 1_555 1_555
C5 O4 1_555 1_555
C6 O5 1_555 1_555
C7 O6 1_555 1_555
C8 O7 1_555 1_555
C9 O8 1_555 1_555
C14 C25 1_555 1_555
C15 O14 1_555 1_555
C16 N1 1_555 1_555
C17 C6 1_555 1_555
C18 C7 1_555 1_555
C19 C8 1_555 1_555
C20 C9 1_555 1_555
C25 C36 1_555 1_555
C26 C15 1_555 1_555
O19 C5 1_555 1_555
O20 C6 1_555 1_555
O21 C7 1_555 1_555
O22 C8 1_555 1_555
O23 C9 1_555 1_555
O28 Co1_2 1_555 1_555
O29 C15 1_555 1_555
O35 Co3 1_555 1_555
C27 C4 1_555 1_555
C28 C17 1_555 1_555
C29 C18 1_555 1_555
C30 C19 1_555 1_555
C31 C20 1_555 1_555
C36 H13 1_555 1_555
C37 C26 1_555 1_555
H4 C27 1_555 1_555
H5 C28 1_555 1_555
H6 C29 1_555 1_555
H7 C30 1_555 1_555
H8 C31 1_555 1_555
H14 C37 1_555 1_555
C38 C28 1_555 1_555
C39 C30 1_555 1_555
C42 C36 1_555 1_555
H15 C38 1_555 1_555
H16 C39 1_555 1_555
H19 C42 1_555 1_555
N2 Dy1 1_555 1_555
N3 Dy1 1_555 1_555
N6 Dy4 1_555 1_555
O36 Co1_2 1_555 1_555
O37 Co8 1_555 1_555
O38 Co8 1_555 1_555
O40 Co3 1_555 1_555
H21 O36 1_555 1_555
H22 O36 1_555 1_555
H23 O37 1_555 1_555
H25 O38 1_555 1_555
H29 O40 1_555 1_555
H30 O40 1_555 1_555
C2 N1 1_555 1_555
C5 C16 1_555 1_555
C14 O28 1_555 1_555
C16 C27 1_555 1_555
C17 N2 1_555 1_555
C18 N2 1_555 1_555
C19 N3 1_555 1_555
C20 N3 1_555 1_555
C25 N6 1_555 1_555
C26 N6 1_555 1_555
C29 C38 1_555 1_555
C31 C39 1_555 1_555
C37 C42 1_555 1_555
O37_2 Co8_2 1_555 1_555
O38_2 Co8_2 1_555 1_555
H24 O37_2 1_555 1_555
H26 O38_2 1_555 1_555
O33 Co3_2 1_555 1_555
O34 Co3_2 1_555 1_555
O39 Co3_2 1_555 1_555
H27 O39 1_555 1_555
H28 O39 1_555 1_555
O30 Co4 1_555 1_555
O37_3 Co4 1_555 1_555
H23_2 O37_3 1_555 1_555
O31 Co4_2 1_555 1_555
O37_4 Co4_2 1_555 1_555
H24_2 O37_4 1_555 1_555
Co4_4 O29_2 1_555 1_555
Dy4 O13_2 1_555 1_555
O13_2 C14_2 1_555 1_555
O14_2 Dy4 1_555 1_555
C14_2 C25_2 1_555 1_555
C15_2 O14_2 1_555 1_555
C25_2 C36_2 1_555 1_555
C26_2 C15_2 1_555 1_555
O29_2 C15_2 1_555 1_555
O33_2 Co5 1_555 1_555
O34_2 Co5 1_555 1_555
O35_2 Co5 1_555 1_555
C36_2 H13_2 1_555 1_555
C37_2 C26_2 1_555 1_555
H14_2 C37_2 1_555 1_555
C42_2 C36_2 1_555 1_555
H19_2 C42_2 1_555 1_555
N6_2 Dy4 1_555 1_555
O38_3 Co4_3 1_555 1_555
O39_2 Co5 1_555 1_555
O40_2 Co5 1_555 1_555
H25_2 O38_3 1_555 1_555
H27_2 O39_2 1_555 1_555
H28_2 O39_2 1_555 1_555
H29_2 O40_2 1_555 1_555
H30_2 O40_2 1_555 1_555
C14_2 O35 1_555 1_555
C25_2 N6_2 1_555 1_555
C26_2 N6_2 1_555 1_555
C37_2 C42_2 1_555 1_555
O38_4 Co4_4 1_555 1_555
H26_2 O38_4 1_555 1_555
Dy3 O11_2 1_555 1_555
O15 C10_2 1_555 1_555
O11_2 C12_2 1_555 1_555
O12_2 Dy3 1_555 1_555
C10_2 C21_2 1_555 1_555
C11_2 O18 1_555 1_555
C12_2 C23_2 1_555 1_555
C13_2 O12_2 1_555 1_555
C21_2 C32_2 1_555 1_555
C22_2 C11_2 1_555 1_555
C23_2 C34_2 1_555 1_555
C24_2 C13_2 1_555 1_555
O30 C11_2 1_555 1_555
O31 C13_2 1_555 1_555
C32_2 H9_2 1_555 1_555
C33_2 C22_2 1_555 1_555
C34_2 H11_2 1_555 1_555
C35_2 C24_2 1_555 1_555
H10_2 C33_2 1_555 1_555
H12_2 C35_2 1_555 1_555
C40_2 C32_2 1_555 1_555
C41_2 C34_2 1_555 1_555
H17_2 C40_2 1_555 1_555
H18_2 C41_2 1_555 1_555
N5_2 Dy3 1_555 1_555
C10_2 O33 1_555 1_555
C12_2 O34 1_555 1_555
C21_2 N7 1_555 1_555
C22_2 N7 1_555 1_555
C23_2 N5_2 1_555 1_555
C24_2 N5_2 1_555 1_555
C33_2 C40_2 1_555 1_555
C35_2 C41_2 1_555 1_555
Co6_3 O25_2 1_555 1_555
Co6_4 O27_2 1_555 1_555
Co6_2 O29_3 1_555 1_555
Dy3 O11_3 1_555 1_555
Dy4 O13_3 1_555 1_555
O16 C10_3 1_555 1_555
O11_3 C12_3 1_555 1_555
O12_3 Dy3 1_555 1_555
O13_3 C14_3 1_555 1_555
O14_3 Dy4 1_555 1_555
C10_3 C21_3 1_555 1_555
C11_3 O17 1_555 1_555
C12_3 C23_3 1_555 1_555
C13_3 O12_3 1_555 1_555
C14_3 C25_3 1_555 1_555
C15_3 O14_3 1_555 1_555
C21_3 C32_3 1_555 1_555
C22_3 C11_3 1_555 1_555
C23_3 C34_3 1_555 1_555
C24_3 C13_3 1_555 1_555
C25_3 C36_3 1_555 1_555
C26_3 C15_3 1_555 1_555
O25_2 C11_3 1_555 1_555
O27_2 C13_3 1_555 1_555
O29_3 C15_3 1_555 1_555
C32_3 H9_3 1_555 1_555
C33_3 C22_3 1_555 1_555
C34_3 H11_3 1_555 1_555
C35_3 C24_3 1_555 1_555
C36_3 H13_3 1_555 1_555
C37_3 C26_3 1_555 1_555
H10_3 C33_3 1_555 1_555
H12_3 C35_3 1_555 1_555
H14_3 C37_3 1_555 1_555
C40_3 C32_3 1_555 1_555
C41_3 C34_3 1_555 1_555
C42_3 C36_3 1_555 1_555
H17_3 C40_3 1_555 1_555
H18_3 C41_3 1_555 1_555
H19_3 C42_3 1_555 1_555
N5_3 Dy3 1_555 1_555
N6_3 Dy4 1_555 1_555
O38_5 Co6 1_555 1_555
H25_3 O38_5 1_555 1_555
C10_3 O33_2 1_555 1_555
C12_3 O34_2 1_555 1_555
C14_3 O35_2 1_555 1_555
C21_3 N8 1_555 1_555
C22_3 N8 1_555 1_555
C23_3 N5_3 1_555 1_555
C24_3 N5_3 1_555 1_555
C25_3 N6_3 1_555 1_555
C26_3 N6_3 1_555 1_555
C33_3 C40_3 1_555 1_555
C35_3 C41_3 1_555 1_555
C37_3 C42_3 1_555 1_555
O38_6 Co6_2 1_555 1_555
H26_3 O38_6 1_555 1_555
O37_5 Co6_3 1_555 1_555
H23_3 O37_5 1_555 1_555
O37_6 Co6_4 1_555 1_555
H24_3 O37_6 1_555 1_555

#END
