
###############################################################################
#
# This file contains modified crystal structure data generated from the
# MOF subset of the Cambridge Structural Database (CSD) v543 
# hosted by the Cambridge Crystallographic Data Centre (CCDC).
#
# This work is licensed under the Creative Commons
# Attribution-NonCommercial-ShareAlike 4.0 International License.
# To view a copy of this license, visit
# http://creativecommons.org/licenses/by-nc-sa/4.0/
# or send a letter to
# Creative Commons, PO Box 1866, Mountain View, CA 94042, USA.
#
# CIF created using the CSD Python API on 29 September 2022
# The structure has been converted into the P1 space group
# The structure has a 3D framework
# The original CSD entry TALJUM is in the monoclinic crystal system
# The framework has been calculated to contain at least 10.0% void space
# The void calculation uses a probe of radius 1.32A, grid spacing 0.4
# The framework is charged, counterions have been retained in the structure
# H atom positions have been added when not included in the experimental data
#
###############################################################################

data_TALJUM
_chemical_formula_moiety         '(C192 H162 B12 Cu23 F48 N78 5+)n'
_symmetry_cell_setting           triclinic
_symmetry_space_group_name_H-M   'P 1'
_symmetry_Int_Tables_number      1
_space_group_name_Hall           'P 1'
loop_
_symmetry_equiv_pos_site_id
_symmetry_equiv_pos_as_xyz
1 x,y,z
_cell_length_a                   20.4436(13)
_cell_length_b                   16.9489(11)
_cell_length_c                   23.1265(15)
_cell_angle_alpha                90
_cell_angle_beta                 112.0070(10)
_cell_angle_gamma                90
_cell_volume                     7429.39
loop_
_atom_site_label
_atom_site_type_symbol
_atom_site_fract_x
_atom_site_fract_y
_atom_site_fract_z
Cu13 Cu 0.45822(3) 0.60078(4) 0.11575(3)
Cu18 Cu 0.01491(3) 0.77130(4) 0.05790(3)
N33 N 0.0258(2) 0.7752(3) 0.14499(19)
H41 H 0.0692 0.7741 0.1716
N43 N 0.3520(2) 0.6281(3) 0.09761(19)
N50 N 0.1084(2) 0.7334(3) 0.0745(2)
H50 H 0.1369 0.7365 0.1133
C58 C 0.2094(3) 0.6726(4) 0.0584(2)
C61 C 0.1359(3) 0.7045(4) 0.0379(3)
C65 C 0.3191(3) 0.6344(4) 0.1373(2)
H57 H 0.3441 0.6206 0.1792
C83 C 0.2503(3) 0.6600(4) 0.1206(2)
H68 H 0.2313 0.6688 0.1513
C84 C 0.3133(3) 0.6448(3) 0.0385(2)
H69 H 0.3354 0.6466 0.0095
C93 C 0.2400(3) 0.6602(4) 0.0175(3)
H81 H 9.00503e-05 0.728154 0.153604
H82 H 0.00321245 0.825815 0.151915
Cu10 Cu 0.04581(3) 0.68444(4) 0.44864(3)
N21 N 0.0223(2) 0.7263(3) 0.36108(18)
N52 N 0.1016(2) 0.6945(3) 0.9731(2)
C56 C 0.0330(3) 0.6856(3) 0.7826(2)
H51 H 0.0643 0.6668 0.7646
C68 C 0.0123(3) 0.7178(3) 0.8753(2)
C80 C 0.0579(3) 0.7798(3) 0.2817(2)
H65 H 0.0939 0.8037 0.2719
C82 C 0.0692(3) 0.7595(3) 0.3425(2)
H67 H 0.1140 0.7701 0.3730
C86 C 0.0583(3) 0.6926(4) 0.8473(3)
H71 H 0.1056 0.6804 0.8717
C88 C 0.0380(3) 0.7251(4) 0.9447(2)
H77 H 0.2128 0.6617 0.9745
C5 C 0.4977(3) 0.0214(3) 0.1079(2)
H2 H 0.5209 0.0489 0.1454
N10 N 0.4544(2) 0.0651(2) 0.05842(18)
C11 C 0.4204(3) 0.0205(3) 0.0086(2)
Cu8 Cu 0.45419(3) 0.18444(4) 0.05136(3)
N47 N 0.9158(2) 0.8016(3) 0.0355(2)
H85 H 0.914635 0.848063 0.0627875
H86 H 0.890387 0.75502 0.0451668
Cu3 Cu 0.93870(3) 0.70285(4) 0.65573(3)
Cu4 Cu 0.5000 0.5000 0.5000
N2 N 0.4790(2) 0.7675(2) 0.09568(18)
N3 N 0.5030(2) 0.7752(2) 0.00878(18)
N4 N 0.4910(2) 0.6928(2) 0.0777(2)
C2 C 0.4855(3) 0.8139(3) 0.0519(2)
C3 C 0.4787(3) 0.9022(3) 0.0550(2)
N8 N 0.5031(2) 0.5716(3) 0.20790(19)
C4 C 0.5062(3) 0.6988(3) 0.0291(2)
C7 C 0.5107(3) 0.9425(3) 0.1086(2)
H5 H 0.5408 0.9171 0.1450
N14 N 0.5966(2) 0.5315(3) 0.5319(2)
H6 H 0.6172 0.5307 0.5723
N17 N 0.6195(2) 0.5555(3) 0.4417(2)
N19 N 0.8430(2) 0.6482(3) 0.60593(19)
C9 C 0.5703(3) 0.5797(3) 0.0228(2)
H10 H 0.5983 0.5853 0.0654
H12 H 0.6159 0.4781 0.0103
C16 C 0.4283(3) 0.9410(3) 0.0029(2)
C19 C 0.8099(3) 0.6606(3) 0.5458(2)
H17 H 0.8320 0.6927 0.5254
C21 C 0.5394(3) 0.5462(3) 0.3351(2)
C23 C 0.6371(3) 0.5543(4) 0.5016(2)
C24 C 0.5746(3) 0.6011(3) 0.3131(2)
H18 H 0.6124 0.6300 0.3412
C27 C 0.7113(3) 0.5860(3) 0.5388(2)
N20 N 0.5004(2) 0.5168(3) 0.4192(2)
H20 H 0.4599 0.5109 0.3885
C29 C 0.4739(3) 0.5163(3) 0.2290(2)
H21 H 0.4413 0.4831 0.1996
C30 C 0.5518(3) 0.5356(3) 0.4037(2)
C31 C 0.4869(3) 0.5027(3) 0.2907(2)
H22 H 0.4609 0.4648 0.3027
C33 C 0.5545(3) 0.6132(3) 0.2507(2)
H24 H 0.5776 0.6525 0.2369
C37 C 0.7456(3) 0.6300(3) 0.5116(2)
H28 H 0.7253 0.6398 0.4685
C47 C 0.7451(3) 0.5698(4) 0.5985(3)
H37 H 0.7240 0.5368 0.6192
C48 C 0.8125(3) 0.6016(4) 0.6314(3)
H38 H 0.8359 0.5882 0.6736
Cu11 Cu 0.54178(3) 0.39922(4) 0.88425(3)
Cu14 Cu 0.06130(3) 0.29715(4) 0.34427(3)
Cu15 Cu 0.43870(3) 0.79715(4) 0.15573(3)
N22 N 0.4777(2) 0.2263(3) 0.13892(18)
N24 N 0.9790(2) 0.7325(2) 0.59568(18)
N25 N 0.0210(2) 0.2675(2) 0.40432(18)
C49 C 0.4800(3) 0.3660(3) 0.0057(2)
N28 N 0.5090(2) 0.3072(2) 0.9223(2)
N29 N 0.9679(2) 0.7036(3) 0.7446(2)
N30 N 0.0321(2) 0.2964(3) 0.2554(2)
N35 N 0.3448(2) 0.1923(2) 0.00941(19)
N36 N 0.4969(2) 0.4284(3) 0.79210(19)
N37 N 0.4571(2) 0.4941(2) 0.07100(19)
N38 N 0.5429(2) 0.5059(2) 0.92900(19)
N42 N 0.9082(2) 0.7944(3) 0.13622(19)
C54 C 0.5182(3) 0.3775(3) 0.0692(2)
H43 H 0.5526 0.3402 0.0913
N44 N 0.6480(2) 0.3719(3) 0.90239(19)
H46 H 0.8925 0.8151 0.9970
N48 N 0.4034(2) 0.4685(3) 0.4681(2)
H48 H 0.3828 0.4693 0.4277
N49 N 0.9977(3) 0.7629(3) 0.9705(2)
H49 H 0.9599 0.7860 0.9450
N51 N 0.3805(2) 0.4445(3) 0.5583(2)
N53 N 0.1570(2) 0.3518(3) 0.39407(19)
C60 C 0.4190(3) 0.4845(4) 0.0105(3)
C62 C 0.8044(3) 0.8062(3) 0.0445(2)
C63 C 0.5071(3) 0.4408(3) 0.0997(2)
H55 H 0.5352 0.4477 0.1421
H56 H 0.5983 0.0864 0.0337
C67 C 0.1901(3) 0.3394(3) 0.4542(2)
H59 H 0.1680 0.3073 0.4746
C69 C 0.4606(3) 0.4538(3) 0.6649(2)
C70 C 0.8821(3) 0.8034(3) 0.0731(2)
C71 C 0.3629(3) 0.4457(4) 0.4984(2)
C72 C 0.4254(3) 0.3989(3) 0.6869(2)
H60 H 0.3876 0.3700 0.6588
C73 C 0.9943(3) 0.7650(3) 0.2366(2)
C74 C 0.9576(3) 0.7155(3) 0.3163(2)
H61 H 0.9216 0.6946 0.3277
C75 C 0.2887(3) 0.4140(3) 0.4612(2)
C76 C 0.9785(3) 0.7792(3) 0.1696(2)
N54 N 0.4996(2) 0.4832(3) 0.5808(2)
H62 H 0.5401 0.4891 0.6115
C77 C 0.5261(3) 0.4837(3) 0.7710(2)
H63 H 0.5587 0.5169 0.8004
C78 C 0.4482(3) 0.4644(3) 0.5963(2)
C79 C 0.5131(3) 0.4973(3) 0.7093(2)
H64 H 0.5391 0.5352 0.6973
C81 C 0.4455(3) 0.3868(3) 0.7493(2)
H66 H 0.4224 0.3475 0.7631
C85 C 0.2544(3) 0.3700(3) 0.4884(2)
H70 H 0.2747 0.3602 0.5315
C89 C 0.9430(3) 0.7331(4) 0.2570(2)
H73 H 0.8972 0.7242 0.2278
C90 C 0.7620(3) 0.7647(4) 0.0709(2)
H74 H 0.7834 0.7342 0.1071
C91 C 0.9464(3) 0.7368(4) 0.8396(2)
H75 H 0.9148 0.7564 0.8570
C92 C 0.6901(3) 0.7691(3) 0.0439(3)
H76 H 0.6635 0.7435 0.0638
C94 C 0.9249(3) 0.7263(4) 0.7724(3)
H78 H 0.8775 0.7362 0.7472
C95 C 0.2549(3) 0.4302(4) 0.4015(3)
H79 H 0.2760 0.4632 0.3808
C96 C 0.1875(3) 0.3984(4) 0.3686(3)
H80 H 0.1641 0.4118 0.3264
Cu1 Cu 0.54581(3) 0.81556(4) 0.94864(3)
N1 N 0.5223(2) 0.7737(3) 0.86108(18)
C1 C 0.5200(3) 0.6340(3) 0.9943(2)
N6 N 0.5258(2) 0.7248(3) 0.64499(19)
H1 H 0.5692 0.7259 0.6716
N7 N 0.1552(2) 0.6923(2) 0.49059(19)
N11 N 0.4082(2) 0.7056(3) 0.63622(19)
C6 C 0.4818(3) 0.6225(3) 0.9308(2)
H3 H 0.4474 0.6598 0.9087
N13 N 0.4158(2) 0.6984(3) 0.5355(2)
H4 H 0.3925 0.6849 0.4970
C12 C 0.5810(3) 0.5155(4) 0.9895(3)
C14 C 0.3044(3) 0.6938(3) 0.5445(2)
C15 C 0.4929(3) 0.5592(3) 0.9003(2)
H13 H 0.4648 0.5523 0.8579
H14 H 0.4017 0.9136 0.9663
C18 C 0.2692(3) 0.6484(4) 0.4922(2)
H16 H 0.2941 0.6159 0.4746
C22 C 0.3821(3) 0.6966(3) 0.5731(2)
C25 C 0.4943(3) 0.7350(3) 0.7366(2)
C26 C 0.4576(3) 0.7845(3) 0.8163(2)
H19 H 0.4216 0.8054 0.8277
C28 C 0.4785(3) 0.7208(3) 0.6696(2)
C32 C 0.5579(3) 0.7202(3) 0.7817(2)
H23 H 0.5939 0.6963 0.7719
C34 C 0.5692(3) 0.7405(3) 0.8425(2)
H25 H 0.6140 0.7299 0.8730
C39 C 0.1952(3) 0.6525(4) 0.4662(2)
H30 H 0.1720 0.6250 0.4287
C41 C 0.4430(3) 0.7669(4) 0.7570(2)
H31 H 0.3972 0.7758 0.7278
C42 C 0.2620(3) 0.7353(4) 0.5709(2)
H32 H 0.2834 0.7658 0.6071
C44 C 0.1901(3) 0.7309(3) 0.5439(3)
H34 H 0.1635 0.7565 0.5638
Cu17 Cu 0.56130(3) 0.20285(4) 0.84427(3)
Cu19 Cu 0.51491(3) 0.72870(4) 0.55790(3)
N23 N 0.5210(2) 0.2325(2) 0.90432(18)
N26 N 0.4970(2) 0.2248(2) 0.99122(18)
C50 C 0.5145(3) 0.1861(3) 0.9481(2)
N34 N 0.6552(2) 0.8077(2) 0.99059(19)
C51 C 0.5213(3) 0.0978(3) 0.9450(2)
C52 C 0.4938(3) 0.3012(3) 0.9709(2)
N40 N 0.5456(2) 0.9349(2) 0.94158(18)
C55 C 0.4893(3) 0.0575(3) 0.8914(2)
H47 H 0.4592 0.0829 0.8550
C57 C 0.4297(3) 0.4203(3) 0.9772(2)
H52 H 0.4017 0.4147 0.9346
H54 H 0.3841 0.5219 0.9897
C64 C 0.5717(3) 0.0590(3) 0.9971(2)
C66 C 0.7692(3) 0.8516(4) 0.9922(2)
H58 H 0.7941 0.8841 0.9746
C87 C 0.6952(3) 0.8475(4) 0.9662(2)
H72 H 0.6720 0.8750 0.9287
C53 C 0.5023(3) 0.9786(3) 0.8921(2)
H42 H 0.4791 0.9511 0.8546
C59 C 0.5796(3) 0.9795(3) 0.9914(2)
H4_2 H 0.1075 0.1849 0.0030
C18_2 C 0.2308(3) 0.1484(4) 0.0078(2)
H16_2 H 0.2059 0.1159 0.0254
C39_2 C 0.3048(3) 0.1525(4) 0.0338(2)
H30_2 H 0.3280 0.1250 0.0713
Cu2 Cu 0.04178(3) 0.10078(4) 0.38425(3)
Cu4_2 Cu -0.0000 0.0000 -0.0000
Cu5 Cu 0.48509(3) 0.27130(4) 0.44210(3)
N4_2 N 0.0090(2) 0.1928(2) 0.4223(2)
N5 N 0.5321(2) 0.2036(3) 0.7554(2)
C2_2 C 0.0145(3) 0.3139(3) 0.4481(2)
C3_2 C 0.0213(3) 0.4022(3) 0.4450(2)
C5_2 C 0.0023(3) 0.5214(3) 0.3921(2)
N10_2 N 0.0456(2) 0.5651(2) 0.44158(18)
N11_2 N 0.0918(2) 0.2056(3) 0.86378(19)
C6_2 C 0.0182(3) 0.1225(3) 0.5692(2)
H3_2 H 0.0526 0.1598 0.5913
N12 N 0.1480(2) 0.1281(3) 0.40239(19)
N13_2 N 0.0842(2) 0.1984(3) 0.9645(2)
N15 N 0.5023(3) 0.2629(3) 0.5295(2)
H7 H 0.5401 0.2860 0.5550
N16 N 0.3916(2) 0.2334(3) 0.4255(2)
H8 H 0.3631 0.2365 0.3867
N18 N 0.3984(2) 0.1945(3) 0.5269(2)
C8 C 0.4670(3) 0.1856(3) 0.7174(2)
H9 H 0.4357 0.1668 0.7354
C10 C 0.2906(3) 0.1726(4) 0.4416(2)
C11_2 C 0.0796(3) 0.5205(3) 0.4914(2)
H11 H 0.1123 0.5464 0.5262
C13 C 0.3641(3) 0.2045(4) 0.4621(3)
C14_2 C 0.1956(3) 0.1938(3) 0.9555(2)
C15_2 C 0.0071(3) 0.0592(3) 0.5997(2)
H13_2 H 0.0352 0.0523 0.6421
C16_2 C 0.0717(3) 0.4410(3) 0.4971(2)
H14_2 H 0.0983 0.4136 0.5337
C17 C 0.1809(3) 0.1344(4) 0.3627(2)
H15 H 0.1559 0.1206 0.3208
C20 C 0.4877(3) 0.2178(3) 0.6247(2)
C22_2 C 0.1179(3) 0.1966(3) 0.9269(2)
C25_2 C 0.0057(3) 0.2350(3) 0.7634(2)
C26_2 C 0.0424(3) 0.2845(3) 0.6837(2)
H19_2 H 0.0784 0.3054 0.6723
C28_2 C 0.0215(3) 0.2208(3) 0.8304(2)
H20_2 H 0.0401 0.0109 0.1115
C29_2 C 0.0261(3) 0.0163(3) 0.2710(2)
C31_2 C 0.0131(3) 0.0027(3) 0.2093(2)
C35 C 0.2497(3) 0.1600(4) 0.3794(2)
H26 H 0.2687 0.1688 0.3487
C36 C 0.1867(3) 0.1448(3) 0.4615(2)
H27 H 0.1646 0.1466 0.4905
C38 C 0.4417(3) 0.1926(4) 0.6527(3)
H29 H 0.3944 0.1804 0.6283
C40 C 0.4620(3) 0.2251(4) 0.5553(2)
C41_2 C 0.0570(3) 0.2669(4) 0.7430(2)
H31_2 H 0.1028 0.2758 0.7722
C42_2 C 0.2380(3) 0.2353(4) 0.9291(2)
H32_2 H 0.2166 0.2658 0.8929
C43 C 0.5536(3) 0.2368(4) 0.6604(2)
H33 H 0.5852 0.2564 0.6430
C44_2 C 0.3099(3) 0.2309(3) 0.9561(3)
H34_2 H 0.3365 0.2565 0.9362
C45 C 0.2600(3) 0.1602(4) 0.4825(3)
H35 H 0.2872 0.1617 0.5255
C46 C 0.5751(3) 0.2263(4) 0.7276(3)
H36 H 0.6225 0.2362 0.7528
N32 N 0.4742(2) 0.2752(3) 0.35501(19)
H40 H 0.4308 0.2741 0.3284
N46 N 0.5842(2) 0.3016(3) 0.4645(2)
H45 H 0.6075 0.3151 0.5030
H54_2 H 0.1159 0.0219 0.5103
H83 H 0.49991 0.228154 0.346396
H84 H 0.496788 0.325815 0.348085
H87 H 0.585365 0.348063 0.437213
H88 H 0.609613 0.25502 0.454833
Cu4_3 Cu -0.0000 0.0000 1.0000
Cu4_4 Cu -0.0000 1.0000 -0.0000
H21_2 H 0.0587 0.9831 0.3004
H22_2 H 0.0391 0.9648 0.1973
N26_2 N 0.0030(2) 0.7248(2) 0.50878(18)
C49_2 C 0.0200(3) 0.8660(3) 0.4943(2)
N30_2 N 0.4679(2) 0.7964(3) 0.2446(2)
N37_2 N 0.0429(2) 0.9941(2) 0.42900(19)
C52_2 C 0.0062(3) 0.8012(3) 0.5291(2)
H42_2 H 0.0209 0.4511 0.6454
C55_2 C 0.0107(3) 0.5575(3) 0.6086(2)
H47_2 H 0.0408 0.5829 0.6450
N48_2 N 0.0966(2) 0.9685(3) 0.0319(2)
H48_2 H 0.1172 0.9693 0.0723
N53_2 N 0.3430(2) 0.8518(3) 0.10593(19)
C57_2 C 0.0703(3) 0.9203(3) 0.5228(2)
H52_2 H 0.0983 0.9147 0.5654
C60_2 C 0.0810(3) 0.9845(4) 0.4895(3)
C67_2 C 0.3099(3) 0.8394(3) 0.0458(2)
H59_2 H 0.3320 0.8073 0.0254
C71_2 C 0.1371(3) 0.9457(4) 0.0016(2)
C75_2 C 0.2113(3) 0.9140(3) 0.0388(2)
C85_2 C 0.2456(3) 0.8700(3) 0.0116(2)
C95_2 C 0.2451(3) 0.9302(4) 0.0985(3)
H79_2 H 0.2240 0.9632 0.1192
C96_2 C 0.3125(3) 0.8984(4) 0.1314(3)
H80_2 H 0.3359 0.9118 0.1736
Cu4_5 Cu -0.0000 1.0000 1.0000
N36_2 N 0.0031(2) 0.9284(3) 0.70790(19)
N51_2 N 0.1195(2) 0.9445(3) 0.9417(2)
C69_2 C 0.0394(3) 0.9538(3) 0.8351(2)
C72_2 C 0.0746(3) 0.8989(3) 0.8131(2)
H60_2 H 0.1124 0.8700 0.8412
N54_2 N 0.0004(2) 0.9832(3) 0.9192(2)
C78_2 C 0.0518(3) 0.9644(3) 0.9037(2)
C81_2 C 0.0545(3) 0.8868(3) 0.7507(2)
H66_2 H 0.0776 0.8475 0.7369
H70_2 H 0.2253 0.8602 0.9685
Cu1_2 Cu 0.95419(3) 0.31556(4) 0.55136(3)
Cu4_6 Cu 1.0000 0.0000 -0.0000
N1_2 N 0.9777(2) 0.2737(3) 0.63892(18)
N3_2 N 0.9970(2) 0.2752(2) 0.49122(18)
C1_2 C 0.9800(3) 0.1340(3) 0.5057(2)
N6_2 N 0.9742(2) 0.2248(3) 0.85501(19)
H1_2 H 0.9308 0.2259 0.8284
N8_2 N 0.9969(2) 0.0716(3) 0.29210(19)
N9 N 0.9571(2) 0.0059(2) 0.57100(19)
C4_2 C 0.9938(3) 0.1988(3) 0.4709(2)
H2_2 H 0.9791 0.5489 0.3546
C7_2 C 0.9893(3) 0.4425(3) 0.3914(2)
H5_2 H 0.9592 0.4171 0.3550
N17_2 N 0.8805(2) 0.0555(3) 0.0583(2)
C9_2 C 0.9297(3) 0.0797(3) 0.4772(2)
H10_2 H 0.9017 0.0853 0.4346
C12_2 C 0.9190(3) 0.0155(4) 0.5105(3)
C21_2 C 0.9606(3) 0.0462(3) 0.1649(2)
C24_2 C 0.9254(3) 0.1011(3) 0.1869(2)
H18_2 H 0.8876 0.1300 0.1588
N20_2 N 0.9996(2) 0.0168(3) 0.0808(2)
C30_2 C 0.9482(3) 0.0356(3) 0.0963(2)
C32_2 C 0.9421(3) 0.2202(3) 0.7183(2)
H23_2 H 0.9061 0.1963 0.7281
C33_2 C 0.9455(3) 0.1132(3) 0.2493(2)
H24_2 H 0.9224 0.1525 0.2631
C34_2 C 0.9308(3) 0.2405(3) 0.6575(2)
H25_2 H 0.8860 0.2299 0.6270
H28_2 H 0.7747 0.1398 0.0315
Cu19_2 Cu 0.98509(3) 0.22870(4) 0.94210(3)
N34_2 N 0.8448(2) 0.3077(2) 0.50941(19)
N40_2 N 0.9544(2) 0.4349(2) 0.55842(18)
N42_2 N 0.5918(2) 0.2944(3) 0.36378(19)
C62_2 C 0.6956(3) 0.3062(3) 0.4555(2)
C66_2 C 0.7308(3) 0.3516(4) 0.5078(2)
H58_2 H 0.7059 0.3841 0.5254
C70_2 C 0.6179(3) 0.3034(3) 0.4269(2)
C73_2 C 0.5057(3) 0.2650(3) 0.2634(2)
C74_2 C 0.5424(3) 0.2155(3) 0.1837(2)
H61_2 H 0.5784 0.1946 0.1723
C76_2 C 0.5215(3) 0.2792(3) 0.3304(2)
C80_2 C 0.4421(3) 0.2798(3) 0.2183(2)
H65_2 H 0.4061 0.3037 0.2281
C82_2 C 0.4308(3) 0.2595(3) 0.1575(2)
H67_2 H 0.3860 0.2701 0.1270
C87_2 C 0.8048(3) 0.3475(4) 0.5338(2)
H72_2 H 0.8280 0.3750 0.5713
C89_2 C 0.5570(3) 0.2331(4) 0.2430(2)
H73_2 H 0.6028 0.2242 0.2722
C90_2 C 0.7380(3) 0.2647(4) 0.4291(2)
H74_2 H 0.7166 0.2342 0.3929
C92_2 C 0.8099(3) 0.2691(3) 0.4561(3)
H76_2 H 0.8365 0.2435 0.4362
Cu4_7 Cu 1.0000 0.0000 1.0000
N14_2 N 0.9034(2) 0.0315(3) 0.9681(2)
H6_2 H 0.8828 0.0307 0.9277
N19_2 N 0.6570(2) 0.1482(3) 0.89407(19)
C19_2 C 0.6901(3) 0.1606(3) 0.9542(2)
H17_2 H 0.6680 0.1927 0.9746
C23_2 C 0.8629(3) 0.0543(4) 0.9984(2)
C27_2 C 0.7887(3) 0.0860(3) 0.9612(2)
C37_2 C 0.7544(3) 0.1300(3) 0.9884(2)
C47_2 C 0.7549(3) 0.0698(4) 0.9015(3)
H37_2 H 0.7760 0.0368 0.8808
C48_2 C 0.6875(3) 0.1016(4) 0.8686(3)
H38_2 H 0.6641 0.0882 0.8264
H63_2 H 0.9413 0.0169 0.6996
H64_2 H 0.9609 0.0352 0.8027
Cu4_8 Cu 1.0000 1.0000 -0.0000
H12_2 H 0.8841 0.9781 0.4897
Cu12 Cu 0.95822(3) 0.89922(4) 0.61575(3)
N27 N 0.9910(2) 0.8072(2) 0.5777(2)
C50_2 C 0.9855(3) 0.6861(3) 0.5519(2)
C51_2 C 0.9787(3) 0.5978(3) 0.5550(2)
C53_2 C 0.9977(3) 0.4786(3) 0.6079(2)
C54_2 C 0.9818(3) 0.8775(3) 0.4308(2)
H43_2 H 0.9474 0.8402 0.4087
C59_2 C 0.9204(3) 0.4795(3) 0.5086(2)
H53 H 0.8877 0.4536 0.4738
C63_2 C 0.9929(3) 0.9408(3) 0.4003(2)
H55_2 H 0.9648 0.9477 0.3579
C64_2 C 0.9283(3) 0.5590(3) 0.5029(2)
H56_2 H 0.9017 0.5864 0.4663
Cu4_9 Cu 1.0000 1.0000 1.0000
N44_2 N 0.8520(2) 0.8719(3) 0.59761(19)
H62_2 H 0.9599 0.9891 0.8885
C77_2 C 0.9739(3) 0.9837(3) 0.7290(2)
C79_2 C 0.9869(3) 0.9973(3) 0.7907(2)
N15_2 N 0.0023(3) 0.2371(3) 0.0295(2)
H7_2 H 0.0401 0.2140 0.0550
C43_2 C 0.0536(3) 0.2632(4) 0.1604(2)
H33_2 H 0.0852 0.2436 0.1430
C46_2 C 0.0751(3) 0.2737(4) 0.2276(3)
H36_2 H 0.1225 0.2638 0.2528
H87_2 H 0.0853654 0.151937 0.937213
H88_2 H 0.109613 0.24498 0.954833
N18_2 N 0.8984(2) 0.3055(3) 0.0269(2)
C8_2 C 0.9670(3) 0.3144(3) 0.2174(2)
H9_2 H 0.9357 0.3332 0.2354
C20_2 C 0.9877(3) 0.2822(3) 0.1247(2)
C38_2 C 0.9417(3) 0.3074(4) 0.1527(3)
H29_2 H 0.8944 0.3196 0.1283
C40_2 C 0.9620(3) 0.2749(4) 0.0553(2)
H35_2 H 0.7872 0.3383 0.0255
N16_2 N 0.8916(2) 0.2666(3) 0.9255(2)
H8_2 H 0.8631 0.2635 0.8867
C10_2 C 0.7906(3) 0.3274(4) 0.9416(2)
C13_2 C 0.8641(3) 0.2955(4) 0.9621(3)
C17_2 C 0.6809(3) 0.3656(4) 0.8627(2)
H15_2 H 0.6559 0.3794 0.8208
C35_2 C 0.7497(3) 0.3400(4) 0.8794(2)
H26_2 H 0.7687 0.3312 0.8487
C36_2 C 0.6867(3) 0.3552(3) 0.9615(2)
H27_2 H 0.6646 0.3534 0.9905
C45_2 C 0.7600(3) 0.3398(4) 0.9825(3)
H83_2 H 0.99991 0.271846 0.846396
H84_2 H 0.996788 0.174185 0.848085
N49_2 N 0.4977(3) 0.7371(3) 0.4705(2)
H49_2 H 0.4599 0.7140 0.4450
N50_2 N 0.6084(2) 0.7666(3) 0.5745(2)
H50_2 H 0.6369 0.7635 0.6133
N52_2 N 0.6016(2) 0.8055(3) 0.4731(2)
C56_2 C 0.5330(3) 0.8144(3) 0.2826(2)
H51_2 H 0.5643 0.8332 0.2646
C58_2 C 0.7094(3) 0.8274(4) 0.5584(2)
C61_2 C 0.6359(3) 0.7955(4) 0.5379(3)
C65_2 C 0.8191(3) 0.8656(4) 0.6373(2)
H57_2 H 0.8441 0.8794 0.6792
C68_2 C 0.5123(3) 0.7822(3) 0.3753(2)
C83_2 C 0.7503(3) 0.8400(4) 0.6206(2)
H68_2 H 0.7313 0.8312 0.6513
C84_2 C 0.8133(3) 0.8552(3) 0.5385(2)
H69_2 H 0.8354 0.8534 0.5095
C86_2 C 0.5583(3) 0.8074(4) 0.3473(3)
H71_2 H 0.6056 0.8196 0.3717
C88_2 C 0.5380(3) 0.7749(4) 0.4447(2)
C91_2 C 0.4464(3) 0.7632(4) 0.3396(2)
H75_2 H 0.4148 0.7436 0.3570
C93_2 C 0.7400(3) 0.8398(4) 0.5175(3)
H77_2 H 0.7128 0.8383 0.4745
C94_2 C 0.4249(3) 0.7737(4) 0.2724(3)
H78_2 H 0.3775 0.7638 0.2472
H81_2 H 0.50009 0.771846 0.653604
H82_2 H 0.503212 0.674185 0.651915
H85_2 H 0.414635 0.651937 0.562787
H86_2 H 0.390387 0.74498 0.545167
H11_2 H 0.3877 0.0464 0.9738
H53_2 H 0.6123 0.9536 0.0262
B1 B 0.8188(6) 0.8884(8) 0.8332(5)
F1 F 0.8588(3) 0.8466(4) 0.8872(2)
F2 F 0.8095(3) 0.8378(4) 0.7829(2)
F3 F 0.8478(3) 0.9594(4) 0.8274(2)
F4 F 0.7545(4) 0.8976(4) 0.8348(3)
B1_2 B 0.6812(6) 0.3884(8) 0.6668(5)
F1_2 F 0.6412(3) 0.3466(4) 0.6128(2)
F2_2 F 0.6905(3) 0.3378(4) 0.7171(2)
F3_2 F 0.6522(3) 0.4594(4) 0.6726(2)
F4_2 F 0.7455(4) 0.3976(4) 0.6652(3)
B1_3 B 0.1812(6) 0.1116(8) 0.1668(5)
F1_3 F 0.1412(3) 0.1534(4) 0.1128(2)
F2_3 F 0.1905(3) 0.1622(4) 0.2171(2)
F3_3 F 0.1522(3) 0.0406(4) 0.1726(2)
F4_3 F 0.2455(4) 0.1024(4) 0.1652(3)
B1_4 B 0.3188(6) 0.6116(8) 0.3332(5)
F1_4 F 0.3588(3) 0.6534(4) 0.3872(2)
F2_4 F 0.3095(3) 0.6622(4) 0.2829(2)
F3_4 F 0.3478(3) 0.5406(4) 0.3274(2)
F4_4 F 0.2545(4) 0.6024(4) 0.3348(3)
B2 B 0.2804(9) 0.7633(9) 0.8667(7)
F5 F 0.2156(3) 0.7881(4) 0.8550(3)
F6 F 0.2974(4) 0.7646(5) 0.8174(3)
F7 F 0.3261(4) 0.8088(4) 0.9124(3)
F8 F 0.2863(4) 0.6888(4) 0.8886(3)
B2_2 B 0.2196(9) 0.2633(9) 0.6333(7)
F5_2 F 0.2844(3) 0.2881(4) 0.6450(3)
F6_2 F 0.2026(4) 0.2646(5) 0.6826(3)
F7_2 F 0.1739(4) 0.3088(4) 0.5876(3)
F8_2 F 0.2137(4) 0.1888(4) 0.6114(3)
B2_3 B 0.7196(9) 0.2367(9) 0.1333(7)
F5_3 F 0.7844(3) 0.2119(4) 0.1450(3)
F6_3 F 0.7026(4) 0.2354(5) 0.1826(3)
F7_3 F 0.6739(4) 0.1912(4) 0.0876(3)
F8_3 F 0.7137(4) 0.3112(4) 0.1114(3)
B2_4 B 0.7804(9) 0.7367(9) 0.3667(7)
F5_4 F 0.7156(3) 0.7119(4) 0.3550(3)
F6_4 F 0.7974(4) 0.7354(5) 0.3174(3)
F7_4 F 0.8261(4) 0.6912(4) 0.4124(3)
F8_4 F 0.7863(4) 0.8112(4) 0.3886(3)
B3 B 0.3328(10) 0.2497(11) 0.7926(8)
F9 F 0.2987(5) 0.3117(4) 0.8100(4)
F10 F 0.3039(4) 0.2499(5) 0.7270(4)
F11 F 0.3209(4) 0.1858(5) 0.8145(4)
F12 F 0.4005(5) 0.2681(6) 0.8092(4)
B3_2 B 0.1672(10) 0.7497(11) 0.7074(8)
F9_2 F 0.2013(5) 0.8117(4) 0.6900(4)
F10_2 F 0.1961(4) 0.7499(5) 0.7730(4)
F11_2 F 0.1791(4) 0.6858(5) 0.6855(4)
F12_2 F 0.0995(5) 0.7681(6) 0.6908(4)
B3_3 B 0.6672(10) 0.7503(11) 0.2074(8)
F9_3 F 0.7013(5) 0.6883(4) 0.1900(4)
F10_3 F 0.6961(4) 0.7501(5) 0.2730(4)
F11_3 F 0.6791(4) 0.8142(5) 0.1855(4)
F12_3 F 0.5995(5) 0.7319(6) 0.1908(4)
B3_4 B 0.8328(10) 0.2503(11) 0.2926(8)
F9_4 F 0.7987(5) 0.1883(4) 0.3100(4)
F10_4 F 0.8039(4) 0.2501(5) 0.2270(4)
F11_4 F 0.8209(4) 0.3142(5) 0.3145(4)
F12_4 F 0.9005(5) 0.2319(6) 0.3092(4)
loop_
_geom_bond_atom_site_label_1
_geom_bond_atom_site_label_2
_geom_bond_site_symmetry_1
_geom_bond_site_symmetry_2
Cu13 N43 1_555 1_555
Cu18 N33 1_555 1_555
N33 H41 1_555 1_555
N43 C65 1_555 1_555
N50 Cu18 1_555 1_555
H50 N50 1_555 1_555
C58 C61 1_555 1_555
C61 N50 1_555 1_555
C65 H57 1_555 1_555
C83 C58 1_555 1_555
H68 C83 1_555 1_555
C84 N43 1_555 1_555
H69 C84 1_555 1_555
C93 C58 1_555 1_555
C65 C83 1_555 1_555
C84 C93 1_555 1_555
N33 H81 1_555 1_555
N33 H82 1_555 1_555
Cu10 N21 1_555 1_555
H51 C56 1_555 1_555
C68 C86 1_555 1_555
H65 C80 1_555 1_555
C82 N21 1_555 1_555
H67 C82 1_555 1_555
C86 C56 1_555 1_555
H71 C86 1_555 1_555
N52 C88 1_555 1_555
C68 C88 1_555 1_555
C80 C82 1_555 1_555
C5 H2 1_555 1_555
N10 C5 1_555 1_555
C11 N10 1_555 1_555
Cu8 N10 1_555 1_555
N47 H85 1_555 1_555
N47 H86 1_555 1_555
Cu13 N4 1_555 1_555
Cu3 N19 1_555 1_555
Cu4 N14 1_555 1_555
N2 N4 1_555 1_555
N4 C4 1_555 1_555
C2 N2 1_555 1_555
C3 C2 1_555 1_555
N8 Cu13 1_555 1_555
C4 N3 1_555 1_555
C7 C3 1_555 1_555
H5 C7 1_555 1_555
N14 H6 1_555 1_555
N17 C23 1_555 1_555
N19 C19 1_555 1_555
H10 C9 1_555 1_555
C16 C3 1_555 1_555
C19 H17 1_555 1_555
C21 C24 1_555 1_555
C23 N14 1_555 1_555
C24 H18 1_555 1_555
C27 C23 1_555 1_555
N20 Cu4 1_555 1_555
H20 N20 1_555 1_555
C29 N8 1_555 1_555
H21 C29 1_555 1_555
C30 N17 1_555 1_555
C31 C21 1_555 1_555
H22 C31 1_555 1_555
C33 N8 1_555 1_555
H24 C33 1_555 1_555
C37 C19 1_555 1_555
H28 C37 1_555 1_555
C47 C27 1_555 1_555
H37 C47 1_555 1_555
C48 N19 1_555 1_555
H38 C48 1_555 1_555
Cu8 N22 1_555 1_555
Cu11 N28 1_555 1_555
Cu14 N25 1_555 1_555
Cu15 N2 1_555 1_555
N24 Cu3 1_555 1_555
N29 Cu3 1_555 1_555
N30 Cu14 1_555 1_555
N35 Cu8 1_555 1_555
N36 Cu11 1_555 1_555
N37 Cu13 1_555 1_555
N38 Cu11 1_555 1_555
N42 C70 1_555 1_555
C54 C49 1_555 1_555
H43 C54 1_555 1_555
N44 Cu11 1_555 1_555
N48 Cu4 1_555 1_555
H48 N48 1_555 1_555
H49 N49 1_555 1_555
N51 C71 1_555 1_555
N53 Cu14 1_555 1_555
C60 N37 1_555 1_555
C63 N37 1_555 1_555
H55 C63 1_555 1_555
C67 N53 1_555 1_555
H59 C67 1_555 1_555
C69 C72 1_555 1_555
C70 N47 1_555 1_555
C71 N48 1_555 1_555
C72 H60 1_555 1_555
C73 C76 1_555 1_555
C74 H61 1_555 1_555
C75 C71 1_555 1_555
N54 Cu4 1_555 1_555
H62 N54 1_555 1_555
C77 N36 1_555 1_555
H63 C77 1_555 1_555
C78 N51 1_555 1_555
C79 C69 1_555 1_555
H64 C79 1_555 1_555
C81 N36 1_555 1_555
H66 C81 1_555 1_555
C85 C67 1_555 1_555
H70 C85 1_555 1_555
C89 C73 1_555 1_555
H73 C89 1_555 1_555
C90 C62 1_555 1_555
H74 C90 1_555 1_555
H75 C91 1_555 1_555
H76 C92 1_555 1_555
C94 N29 1_555 1_555
H78 C94 1_555 1_555
C95 C75 1_555 1_555
H79 C95 1_555 1_555
C96 N53 1_555 1_555
H80 C96 1_555 1_555
N3 C2 1_555 1_555
C21 C30 1_555 1_555
C24 C33 1_555 1_555
C27 C37 1_555 1_555
N20 C30 1_555 1_555
C29 C31 1_555 1_555
C47 C48 1_555 1_555
N42 C76 1_555 1_555
C54 C63 1_555 1_555
C62 C70 1_555 1_555
C69 C78 1_555 1_555
C72 C81 1_555 1_555
C74 C89 1_555 1_555
C75 C85 1_555 1_555
N54 C78 1_555 1_555
C77 C79 1_555 1_555
C90 C92 1_555 1_555
C91 C94 1_555 1_555
C95 C96 1_555 1_555
Cu1 N1 1_555 1_555
N1 C26 1_555 1_555
N6 H1 1_555 1_555
N7 C39 1_555 1_555
N38 C12 1_555 1_555
N11 C22 1_555 1_555
C6 C1 1_555 1_555
H3 C6 1_555 1_555
N13 H4 1_555 1_555
C14 C18 1_555 1_555
C15 N38 1_555 1_555
H13 C15 1_555 1_555
C18 H16 1_555 1_555
C22 N13 1_555 1_555
C25 C28 1_555 1_555
C26 H19 1_555 1_555
C28 N6 1_555 1_555
C32 C25 1_555 1_555
H23 C32 1_555 1_555
C34 N1 1_555 1_555
H25 C34 1_555 1_555
C39 C18 1_555 1_555
H30 C39 1_555 1_555
C41 C25 1_555 1_555
H31 C41 1_555 1_555
C42 C14 1_555 1_555
H32 C42 1_555 1_555
C44 N7 1_555 1_555
H34 C44 1_555 1_555
Cu10 N7 1_555 1_555
Cu17 N23 1_555 1_555
Cu19 N6 1_555 1_555
N23 N28 1_555 1_555
C50 N23 1_555 1_555
N34 Cu1 1_555 1_555
C51 C50 1_555 1_555
C52 N26 1_555 1_555
N40 Cu1 1_555 1_555
C55 C51 1_555 1_555
H47 C55 1_555 1_555
H52 C57 1_555 1_555
C64 C51 1_555 1_555
C66 H58 1_555 1_555
C87 N34 1_555 1_555
H72 C87 1_555 1_555
N11 C28 1_555 1_555
C6 C15 1_555 1_555
N13 Cu19 1_555 1_555
C14 C22 1_555 1_555
C26 C41 1_555 1_555
C32 C34 1_555 1_555
C42 C44 1_555 1_555
N26 C50 1_555 1_555
N28 C52 1_555 1_555
C66 C87 1_555 1_555
C53 H42 1_555 1_555
N40 C53 1_555 1_555
C59 N40 1_555 1_555
N35 C39_2 1_555 1_555
C18_2 H16_2 1_555 1_555
C39_2 C18_2 1_555 1_555
H30_2 C39_2 1_555 1_555
Cu2 N4_2 1_555 1_555
Cu5 N15 1_555 1_555
N25 N4_2 1_555 1_555
N5 C8 1_555 1_555
C2_2 N25 1_555 1_555
C3_2 C2_2 1_555 1_555
N10_2 C5_2 1_555 1_555
N11_2 C22_2 1_555 1_555
H3_2 C6_2 1_555 1_555
N12 Cu2 1_555 1_555
N15 H7 1_555 1_555
N16 Cu5 1_555 1_555
H8 N16 1_555 1_555
N18 C13 1_555 1_555
C8 H9 1_555 1_555
C10 C13 1_555 1_555
C11_2 N10_2 1_555 1_555
H11 C11_2 1_555 1_555
C13 N16 1_555 1_555
H13_2 C15_2 1_555 1_555
C16_2 C3_2 1_555 1_555
H14_2 C16_2 1_555 1_555
C17 N12 1_555 1_555
H15 C17 1_555 1_555
C20 C38 1_555 1_555
C22_2 N13_2 1_555 1_555
C25_2 C28_2 1_555 1_555
C26_2 H19_2 1_555 1_555
C35 C10 1_555 1_555
H26 C35 1_555 1_555
C36 N12 1_555 1_555
H27 C36 1_555 1_555
C38 C8 1_555 1_555
H29 C38 1_555 1_555
C40 N15 1_555 1_555
C41_2 C25_2 1_555 1_555
H31_2 C41_2 1_555 1_555
C42_2 C14_2 1_555 1_555
H32_2 C42_2 1_555 1_555
C43 C20 1_555 1_555
H33 C43 1_555 1_555
H34_2 C44_2 1_555 1_555
C45 C10 1_555 1_555
H35 C45 1_555 1_555
C46 N5 1_555 1_555
H36 C46 1_555 1_555
Cu10 N10_2 1_555 1_555
Cu17 N5 1_555 1_555
N32 Cu5 1_555 1_555
H40 N32 1_555 1_555
N46 Cu5 1_555 1_555
H45 N46 1_555 1_555
N11_2 C28_2 1_555 1_555
C6_2 C15_2 1_555 1_555
N18 C40 1_555 1_555
C11_2 C16_2 1_555 1_555
C14_2 C22_2 1_555 1_555
C17 C35 1_555 1_555
C20 C40 1_555 1_555
C26_2 C41_2 1_555 1_555
C29_2 C31_2 1_555 1_555
C36 C45 1_555 1_555
C42_2 C44_2 1_555 1_555
C43 C46 1_555 1_555
N32 H83 1_555 1_555
N32 H84 1_555 1_555
N46 H87 1_555 1_555
N46 H88 1_555 1_555
N26_2 Cu10 1_555 1_555
C49_2 C52_2 1_555 1_555
N30_2 Cu15 1_555 1_555
C52_2 N26_2 1_555 1_555
H47_2 C55_2 1_555 1_555
N48_2 Cu4_4 1_555 1_555
H48_2 N48_2 1_555 1_555
N53_2 Cu15 1_555 1_555
C57_2 C49_2 1_555 1_555
H52_2 C57_2 1_555 1_555
C60_2 N37_2 1_555 1_555
C67_2 N53_2 1_555 1_555
H59_2 C67_2 1_555 1_555
C71_2 N48_2 1_555 1_555
C75_2 C71_2 1_555 1_555
C85_2 C67_2 1_555 1_555
C95_2 C75_2 1_555 1_555
H79_2 C95_2 1_555 1_555
C96_2 N53_2 1_555 1_555
H80_2 C96_2 1_555 1_555
C57_2 C60_2 1_555 1_555
C75_2 C85_2 1_555 1_555
C95_2 C96_2 1_555 1_555
C69_2 C72_2 1_555 1_555
C72_2 H60_2 1_555 1_555
N54_2 Cu4_5 1_555 1_555
C78_2 N51_2 1_555 1_555
C81_2 N36_2 1_555 1_555
H66_2 C81_2 1_555 1_555
C69_2 C78_2 1_555 1_555
C72_2 C81_2 1_555 1_555
N54_2 C78_2 1_555 1_555
Cu1_2 N1_2 1_555 1_555
N3_2 Cu1_2 1_555 1_555
C1_2 C4_2 1_555 1_555
N6_2 H1_2 1_555 1_555
N9 C12_2 1_555 1_555
C4_2 N3_2 1_555 1_555
H5_2 C7_2 1_555 1_555
C9_2 C1_2 1_555 1_555
H10_2 C9_2 1_555 1_555
C12_2 C9_2 1_555 1_555
C21_2 C24_2 1_555 1_555
C24_2 H18_2 1_555 1_555
N20_2 Cu4_6 1_555 1_555
C30_2 N17_2 1_555 1_555
H23_2 C32_2 1_555 1_555
C33_2 N8_2 1_555 1_555
H24_2 C33_2 1_555 1_555
C34_2 N1_2 1_555 1_555
H25_2 C34_2 1_555 1_555
Cu19_2 N6_2 1_555 1_555
N22 C74_2 1_555 1_555
N34_2 Cu1_2 1_555 1_555
N40_2 Cu1_2 1_555 1_555
N42_2 C70_2 1_555 1_555
C62_2 C66_2 1_555 1_555
C66_2 H58_2 1_555 1_555
C70_2 N46 1_555 1_555
C73_2 C76_2 1_555 1_555
C74_2 H61_2 1_555 1_555
C76_2 N32 1_555 1_555
C80_2 C73_2 1_555 1_555
H65_2 C80_2 1_555 1_555
C82_2 N22 1_555 1_555
H67_2 C82_2 1_555 1_555
C87_2 N34_2 1_555 1_555
H72_2 C87_2 1_555 1_555
C89_2 C73_2 1_555 1_555
H73_2 C89_2 1_555 1_555
C90_2 C62_2 1_555 1_555
H74_2 C90_2 1_555 1_555
C92_2 N34_2 1_555 1_555
H76_2 C92_2 1_555 1_555
C21_2 C30_2 1_555 1_555
C24_2 C33_2 1_555 1_555
N20_2 C30_2 1_555 1_555
C32_2 C34_2 1_555 1_555
N42_2 C76_2 1_555 1_555
C62_2 C70_2 1_555 1_555
C66_2 C87_2 1_555 1_555
C74_2 C89_2 1_555 1_555
C80_2 C82_2 1_555 1_555
C90_2 C92_2 1_555 1_555
Cu17 N19_2 1_555 1_555
Cu4_7 N14_2 1_555 1_555
N14_2 H6_2 1_555 1_555
N19_2 C19_2 1_555 1_555
C19_2 H17_2 1_555 1_555
C23_2 N14_2 1_555 1_555
C27_2 C23_2 1_555 1_555
C37_2 C19_2 1_555 1_555
C47_2 C27_2 1_555 1_555
H37_2 C47_2 1_555 1_555
C48_2 N19_2 1_555 1_555
H38_2 C48_2 1_555 1_555
C27_2 C37_2 1_555 1_555
C47_2 C48_2 1_555 1_555
N24 N27 1_555 1_555
N27 Cu12 1_555 1_555
C50_2 N24 1_555 1_555
C51_2 C50_2 1_555 1_555
N40_2 C53_2 1_555 1_555
H43_2 C54_2 1_555 1_555
C59_2 N40_2 1_555 1_555
H53 C59_2 1_555 1_555
H55_2 C63_2 1_555 1_555
C64_2 C51_2 1_555 1_555
H56_2 C64_2 1_555 1_555
C54_2 C63_2 1_555 1_555
C59_2 C64_2 1_555 1_555
N44_2 Cu12 1_555 1_555
C77_2 C79_2 1_555 1_555
N15_2 H7_2 1_555 1_555
H33_2 C43_2 1_555 1_555
C46_2 N30 1_555 1_555
H36_2 C46_2 1_555 1_555
C43_2 C46_2 1_555 1_555
N13_2 H87_2 1_555 1_555
N13_2 H88_2 1_555 1_555
C8_2 H9_2 1_555 1_555
C20_2 C38_2 1_555 1_555
C38_2 C8_2 1_555 1_555
H29_2 C38_2 1_555 1_555
N18_2 C40_2 1_555 1_555
C20_2 C40_2 1_555 1_555
N16_2 Cu19_2 1_555 1_555
H8_2 N16_2 1_555 1_555
C10_2 C13_2 1_555 1_555
C13_2 N16_2 1_555 1_555
C17_2 N44 1_555 1_555
H15_2 C17_2 1_555 1_555
C35_2 C10_2 1_555 1_555
H26_2 C35_2 1_555 1_555
C36_2 N44 1_555 1_555
H27_2 C36_2 1_555 1_555
C45_2 C10_2 1_555 1_555
C17_2 C35_2 1_555 1_555
C36_2 C45_2 1_555 1_555
N6_2 H83_2 1_555 1_555
N6_2 H84_2 1_555 1_555
N44_2 C65_2 1_555 1_555
N49_2 Cu19 1_555 1_555
H49_2 N49_2 1_555 1_555
N50_2 Cu19 1_555 1_555
H50_2 N50_2 1_555 1_555
N52_2 C61_2 1_555 1_555
C56_2 N30_2 1_555 1_555
H51_2 C56_2 1_555 1_555
C58_2 C61_2 1_555 1_555
C61_2 N50_2 1_555 1_555
C65_2 H57_2 1_555 1_555
C68_2 C86_2 1_555 1_555
C83_2 C58_2 1_555 1_555
H68_2 C83_2 1_555 1_555
C84_2 N44_2 1_555 1_555
H69_2 C84_2 1_555 1_555
C86_2 C56_2 1_555 1_555
H71_2 C86_2 1_555 1_555
C88_2 N49_2 1_555 1_555
C91_2 C68_2 1_555 1_555
H75_2 C91_2 1_555 1_555
C93_2 C58_2 1_555 1_555
H77_2 C93_2 1_555 1_555
C94_2 N30_2 1_555 1_555
H78_2 C94_2 1_555 1_555
N52_2 C88_2 1_555 1_555
C65_2 C83_2 1_555 1_555
C68_2 C88_2 1_555 1_555
C84_2 C93_2 1_555 1_555
C91_2 C94_2 1_555 1_555
N6 H81_2 1_555 1_555
N6 H82_2 1_555 1_555
N13 H85_2 1_555 1_555
N13 H86_2 1_555 1_555
B1 F1 1_555 1_555
F2 B1 1_555 1_555
F3 B1 1_555 1_555
F4 B1 1_555 1_555
B1_2 F1_2 1_555 1_555
F2_2 B1_2 1_555 1_555
F3_2 B1_2 1_555 1_555
F4_2 B1_2 1_555 1_555
B1_3 F1_3 1_555 1_555
F2_3 B1_3 1_555 1_555
F3_3 B1_3 1_555 1_555
F4_3 B1_3 1_555 1_555
B1_4 F1_4 1_555 1_555
F2_4 B1_4 1_555 1_555
F3_4 B1_4 1_555 1_555
F4_4 B1_4 1_555 1_555
B2 F5 1_555 1_555
F6 B2 1_555 1_555
F7 B2 1_555 1_555
F8 B2 1_555 1_555
B2_2 F5_2 1_555 1_555
F6_2 B2_2 1_555 1_555
F7_2 B2_2 1_555 1_555
F8_2 B2_2 1_555 1_555
B2_3 F5_3 1_555 1_555
F6_3 B2_3 1_555 1_555
F7_3 B2_3 1_555 1_555
F8_3 B2_3 1_555 1_555
B2_4 F5_4 1_555 1_555
F6_4 B2_4 1_555 1_555
F7_4 B2_4 1_555 1_555
F8_4 B2_4 1_555 1_555
B3 F9 1_555 1_555
F10 B3 1_555 1_555
F11 B3 1_555 1_555
F12 B3 1_555 1_555
B3_2 F9_2 1_555 1_555
F10_2 B3_2 1_555 1_555
F11_2 B3_2 1_555 1_555
F12_2 B3_2 1_555 1_555
B3_3 F9_3 1_555 1_555
F10_3 B3_3 1_555 1_555
F11_3 B3_3 1_555 1_555
F12_3 B3_3 1_555 1_555
B3_4 F9_4 1_555 1_555
F10_4 B3_4 1_555 1_555
F11_4 B3_4 1_555 1_555
F12_4 B3_4 1_555 1_555

#END
