
###############################################################################
#
# This file contains modified crystal structure data generated from the
# MOF subset of the Cambridge Structural Database (CSD) v543 
# hosted by the Cambridge Crystallographic Data Centre (CCDC).
#
# This work is licensed under the Creative Commons
# Attribution-NonCommercial-ShareAlike 4.0 International License.
# To view a copy of this license, visit
# http://creativecommons.org/licenses/by-nc-sa/4.0/
# or send a letter to
# Creative Commons, PO Box 1866, Mountain View, CA 94042, USA.
#
# CIF created using the CSD Python API on 29 September 2022
# The structure has been converted into the P1 space group
# The structure has a 3D framework
# The original CSD entry TAMFUM is in the monoclinic crystal system
# The framework has been calculated to contain at least 10.0% void space
# The void calculation uses a probe of radius 1.32A, grid spacing 0.4
#
###############################################################################

data_TAMFUM
_chemical_formula_moiety         '(C312 H160 Cd22 O100)n'
_symmetry_cell_setting           triclinic
_symmetry_space_group_name_H-M   'P 1'
_symmetry_Int_Tables_number      1
_space_group_name_Hall           'P 1'
loop_
_symmetry_equiv_pos_site_id
_symmetry_equiv_pos_as_xyz
1 x,y,z
_cell_length_a                   19.8330(10)
_cell_length_b                   31.8966(6)
_cell_length_c                   23.062(2)
_cell_angle_alpha                90
_cell_angle_beta                 108.129(9)
_cell_angle_gamma                90
_cell_volume                     13864.9
loop_
_atom_site_label
_atom_site_type_symbol
_atom_site_fract_x
_atom_site_fract_y
_atom_site_fract_z
O39 O 0.1743(8) 0.0199(4) 0.5304(12)
O2 O 0.1342(5) 0.8892(2) 0.5641(6)
O3 O 0.1826(5) 0.6685(3) 0.5651(7)
O5 O 0.2195(5) 0.8644(2) 0.5313(6)
O8 O 0.2725(5) 0.7103(2) 0.5731(6)
C4 C 0.1696(9) 0.8588(3) 0.5510(10)
C9 C 0.1452(8) 0.8159(4) 0.5612(10)
C16 C 0.0942(7) 0.7358(3) 0.5720(9)
H9 H 0.0771 0.7091 0.5760
C17 C 0.0772(7) 0.8100(3) 0.5655(8)
H10 H 0.0485 0.8333 0.5643
C19 C 0.2092(7) 0.7035(3) 0.5666(9)
C24 C 0.1617(7) 0.7398(3) 0.5665(8)
C28 C 0.0512(7) 0.7705(3) 0.5715(8)
C35 C 0.1856(7) 0.7811(4) 0.5591(7)
H14 H 0.2293 0.7846 0.5527
Cd3 Cd 0.18116(6) 0.94606(2) 0.53358(7)
Cd6 Cd 0.29094(5) 0.63550(2) 0.57307(7)
Cd10 Cd 0.20906(5) 0.86450(2) 0.42693(7)
O31 O 0.1128(4) 0.9207(2) 0.4365(6)
O37 O 0.2581(7) 0.9641(4) 0.4865(7)
O41 O 0.0908(6) 0.9902(3) 0.5466(8)
Cd15 Cd 0.18116(6) 0.05394(2) 0.03358(7)
Cd2 Cd 0.5000 0.02523(6) 0.7500
O1 O 0.7376(5) 0.07740(19) 0.5881(6)
C8 C 0.7029(7) 0.0069(3) 0.5882(8)
O9 O 0.7419(7) 0.0359(4) 0.5135(7)
C14 C 0.6603(8) 0.0166(4) 0.6262(10)
H8 H 0.6533 0.0442 0.6359
O10 O 0.5749(9) 0.0324(3) 0.6952(9)
C18 C 0.7311(7) 0.0440(4) 0.5618(8)
O12 O 0.4111(10) 0.0335(6) 0.6536(11)
H18 H 0.4221 0.0096 0.6700
H19 H 0.4471 0.0427 0.6451
O14 O 0.2624(5) 0.07740(19) 0.9119(6)
C47 C 0.2971(7) 0.0069(3) 0.9118(8)
O22 O 0.2581(7) 0.0359(4) 0.9865(7)
C53 C 0.3397(8) 0.0166(4) 0.8738(10)
H28 H 0.3467 0.0442 0.8641
O23 O 0.4251(9) 0.0324(3) 0.8048(9)
C57 C 0.2689(7) 0.0440(4) 0.9382(8)
O25 O 0.5889(10) 0.0335(6) 0.8464(11)
H38 H 0.5779 0.0096 0.8300
H39 H 0.5529 0.0427 0.8549
Cd8 Cd 0.79094(5) 0.13550(2) 0.57307(7)
Cd9 Cd 0.20906(5) 0.13550(2) 0.92693(7)
Cd14 Cd 0.81884(6) 0.05394(2) 0.46642(7)
O34 O 0.7195(5) 0.6356(2) 0.0313(6)
Cd17 Cd 0.68116(6) 0.55394(2) 0.03358(7)
O4 O 0.3872(4) 0.5793(2) 0.5635(6)
O6 O 0.4102(5) 0.6448(3) 0.5873(7)
C1 C 0.6234(8) 0.5212(4) 0.5484(10)
C2 C 0.7109(7) 0.7794(3) 0.5845(10)
C3 C 0.6959(8) 0.7036(4) 0.5787(10)
O7 O 0.5501(8) 0.9676(4) 0.7048(9)
C5 C 0.6928(7) 0.9330(3) 0.6061(9)
C6 C 0.6122(8) 0.6373(3) 0.5697(10)
C7 C 0.6374(9) 0.7850(5) 0.5880(13)
H1 H 0.6397 0.7978 0.6263
H2 H 0.6146 0.7582 0.5849
H3 H 0.6108 0.8027 0.5552
C10 C 0.5965(8) 0.5622(3) 0.5590(10)
C11 C 0.6380(7) 0.5979(3) 0.5628(9)
H4 H 0.6839 0.5953 0.5608
C12 C 0.8080(7) 0.7344(3) 0.5790(9)
C13 C 0.8698(8) 0.8468(5) 0.5885(8)
H5 H 0.9182 0.8405 0.6111
H6 H 0.8534 0.8696 0.6078
H7 H 0.8669 0.8546 0.5476
C15 C 0.8502(8) 0.7694(3) 0.5817(9)
C20 C 0.8260(8) 0.8101(3) 0.5871(9)
C21 C 0.5444(6) 0.6417(3) 0.5739(6)
H11 H 0.5278 0.6679 0.5806
C22 C 0.7105(9) 0.8926(4) 0.5992(10)
C23 C 0.9831(6) 0.7664(3) 0.5780(9)
C25 C 0.5268(8) 0.5676(3) 0.5598(9)
H12 H 0.4970 0.5444 0.5547
C26 C 0.6568(8) 0.6743(3) 0.5738(10)
C27 C 0.5014(7) 0.6067(4) 0.5682(9)
C29 C 0.7534(8) 0.8138(4) 0.5866(10)
C30 C 0.9220(8) 0.7661(3) 0.5803(10)
C31 C 0.7283(7) 0.8559(3) 0.5927(9)
O11 O 0.6743(8) 0.5199(4) 0.5304(12)
C32 C 0.6299(9) 0.9837(3) 0.6483(11)
C33 C 0.6448(9) 0.9423(4) 0.6390(11)
H13 H 0.6236 0.9207 0.6542
C34 C 0.7381(8) 0.7391(4) 0.5810(8)
C36 C 0.8387(9) 0.6913(4) 0.5779(10)
H15 H 0.8872 0.6938 0.5786
H16 H 0.8118 0.6770 0.5414
H17 H 0.8365 0.6758 0.6129
C37 C 0.5814(12) 0.9945(6) 0.6846(12)
C38 C 0.7174(6) 0.9664(3) 0.5788(6)
H20 H 0.7446 0.9606 0.5535
C39 C 0.4252(7) 0.6107(5) 0.5709(8)
O13 O 0.5908(6) 0.4902(3) 0.5466(8)
Cd4 Cd 0.70906(5) 0.63550(2) 0.92693(7)
O17 O 0.6128(4) 0.5793(2) 0.9365(6)
O19 O 0.5898(5) 0.6448(3) 0.9127(7)
C40 C 0.3766(8) 0.5212(4) 0.9516(10)
C41 C 0.2891(7) 0.7794(3) 0.9155(10)
C42 C 0.3041(8) 0.7036(4) 0.9213(10)
O20 O 0.4499(8) 0.9676(4) 0.7952(9)
C44 C 0.3072(7) 0.9330(3) 0.8939(9)
C45 C 0.3878(8) 0.6373(3) 0.9303(10)
C46 C 0.3626(9) 0.7850(5) 0.9120(13)
H21 H 0.3603 0.7978 0.8737
H22 H 0.3854 0.7582 0.9151
H23 H 0.3892 0.8027 0.9448
C49 C 0.4035(8) 0.5622(3) 0.9410(10)
C50 C 0.3620(7) 0.5979(3) 0.9372(9)
H24 H 0.3161 0.5953 0.9392
C51 C 0.1920(7) 0.7344(3) 0.9210(9)
C52 C 0.1302(8) 0.8468(5) 0.9115(8)
H25 H 0.0818 0.8405 0.8889
H26 H 0.1466 0.8696 0.8922
H27 H 0.1331 0.8546 0.9524
C54 C 0.1498(8) 0.7694(3) 0.9183(9)
C59 C 0.1740(8) 0.8101(3) 0.9129(9)
C60 C 0.4556(6) 0.6417(3) 0.9261(6)
H31 H 0.4722 0.6679 0.9194
C61 C 0.2895(9) 0.8926(4) 0.9008(10)
C62 C 0.0169(6) 0.7664(3) 0.9220(9)
C64 C 0.4732(8) 0.5676(3) 0.9402(9)
H32 H 0.5030 0.5444 0.9453
C65 C 0.3432(8) 0.6743(3) 0.9262(10)
C66 C 0.4986(7) 0.6067(4) 0.9318(9)
C68 C 0.2466(8) 0.8138(4) 0.9134(10)
C69 C 0.0780(8) 0.7661(3) 0.9197(10)
C70 C 0.2717(7) 0.8559(3) 0.9073(9)
O24 O 0.3257(8) 0.5199(4) 0.9696(12)
C71 C 0.3701(9) 0.9837(3) 0.8517(11)
C72 C 0.3552(9) 0.9423(4) 0.8610(11)
H33 H 0.3764 0.9207 0.8458
C73 C 0.2619(8) 0.7391(4) 0.9190(8)
C75 C 0.1613(9) 0.6913(4) 0.9221(10)
H35 H 0.1128 0.6938 0.9214
H36 H 0.1882 0.6770 0.9586
H37 H 0.1635 0.6758 0.8871
C76 C 0.4186(12) 0.9945(6) 0.8154(12)
C77 C 0.2826(6) 0.9664(3) 0.9212(6)
H40 H 0.2554 0.9606 0.9465
C78 C 0.5748(7) 0.6107(5) 0.9291(8)
O26 O 0.4092(6) 0.4902(3) 0.9534(8)
O27 O 0.2376(5) 0.57740(19) 0.5881(6)
O28 O 0.7624(5) 0.57740(19) 0.9119(6)
O30 O 0.8174(5) 0.6685(3) 0.9349(7)
O33 O 0.2805(5) 0.6356(2) 0.4687(6)
O36 O 0.7275(5) 0.7103(2) 0.9269(6)
Cd12 Cd 0.68116(6) 0.44606(2) 0.53358(7)
Cd13 Cd 0.31884(6) 0.44606(2) 0.96642(7)
Cd16 Cd 0.31884(6) 0.55394(2) 0.46642(7)
O40 O 0.8257(8) 0.0199(4) 0.9696(12)
Cd11 Cd 0.79094(5) 0.86450(2) 0.07307(7)
O32 O 0.8872(4) 0.9207(2) 0.0635(6)
O38 O 0.7419(7) 0.9641(4) 0.0135(7)
O15 O 0.8658(5) 0.8892(2) 0.9359(6)
O18 O 0.7805(5) 0.8644(2) 0.9687(6)
C43 C 0.8304(9) 0.8588(3) 0.9490(10)
C48 C 0.8548(8) 0.8159(4) 0.9388(10)
C55 C 0.9058(7) 0.7358(3) 0.9280(9)
H29 H 0.9229 0.7091 0.9240
C56 C 0.9228(7) 0.8100(3) 0.9345(8)
H30 H 0.9515 0.8333 0.9357
C58 C 0.7908(7) 0.7035(3) 0.9334(9)
C63 C 0.8383(7) 0.7398(3) 0.9335(8)
C67 C 0.9488(7) 0.7705(3) 0.9285(8)
C74 C 0.8144(7) 0.7811(4) 0.9409(7)
H34 H 0.7707 0.7846 0.9473
Cd5 Cd 0.81884(6) 0.94606(2) 0.96642(7)
O42 O 0.9092(6) 0.9902(3) 0.9534(8)
O34_2 O 0.2195(5) 0.1356(2) 0.0313(6)
Cd2_2 Cd -0.0000 0.52523(6) 0.7500
O2_2 O 0.6342(5) 0.3892(2) 0.5641(6)
O3_2 O 0.6826(5) 0.1685(3) 0.5651(7)
O5_2 O 0.7195(5) 0.3644(2) 0.5313(6)
C1_2 C 0.1234(8) 0.0212(4) 0.5484(10)
C2_2 C 0.2109(7) 0.2794(3) 0.5845(10)
C3_2 C 0.1959(8) 0.2036(4) 0.5787(10)
O7_2 O 0.0501(8) 0.4676(4) 0.7048(9)
O8_2 O 0.7725(5) 0.2103(2) 0.5731(6)
C4_2 C 0.6696(9) 0.3588(3) 0.5510(10)
C5_2 C 0.1928(7) 0.4330(3) 0.6061(9)
C6_2 C 0.1122(8) 0.1373(3) 0.5697(10)
C7_2 C 0.1374(9) 0.2850(5) 0.5880(13)
H1_2 H 0.1397 0.2978 0.6263
H2_2 H 0.1146 0.2582 0.5849
H3_2 H 0.1108 0.3027 0.5552
C8_2 C 0.2029(7) 0.5069(3) 0.5882(8)
C9_2 C 0.6452(8) 0.3159(4) 0.5612(10)
O9_2 O 0.2419(7) 0.5359(4) 0.5135(7)
C10_2 C 0.0965(8) 0.0622(3) 0.5590(10)
C11_2 C 0.1380(7) 0.0979(3) 0.5628(9)
H4_2 H 0.1839 0.0953 0.5608
C12_2 C 0.3080(7) 0.2344(3) 0.5790(9)
C13_2 C 0.3698(8) 0.3468(5) 0.5885(8)
H5_2 H 0.4182 0.3405 0.6111
H6_2 H 0.3534 0.3696 0.6078
H7_2 H 0.3669 0.3546 0.5476
C14_2 C 0.1603(8) 0.5166(4) 0.6262(10)
H8_2 H 0.1533 0.5442 0.6359
O10_2 O 0.0749(9) 0.5324(3) 0.6952(9)
C15_2 C 0.3502(8) 0.2694(3) 0.5817(9)
C16_2 C 0.5942(7) 0.2358(3) 0.5720(9)
H9_2 H 0.5771 0.2091 0.5760
C17_2 C 0.5772(7) 0.3100(3) 0.5655(8)
H10_2 H 0.5485 0.3333 0.5643
C18_2 C 0.2311(7) 0.5440(4) 0.5618(8)
C19_2 C 0.7092(7) 0.2035(3) 0.5666(9)
C20_2 C 0.3260(8) 0.3101(3) 0.5871(9)
C21_2 C 0.0444(6) 0.1417(3) 0.5739(6)
H11_2 H 0.0278 0.1679 0.5806
C22_2 C 0.2105(9) 0.3926(4) 0.5992(10)
C23_2 C 0.4831(6) 0.2664(3) 0.5780(9)
C24_2 C 0.6617(7) 0.2398(3) 0.5665(8)
C25_2 C 0.0268(8) 0.0676(3) 0.5598(9)
C26_2 C 0.1568(8) 0.1743(3) 0.5738(10)
C27_2 C 0.0014(7) 0.1067(4) 0.5682(9)
C28_2 C 0.5512(7) 0.2705(3) 0.5715(8)
C29_2 C 0.2534(8) 0.3138(4) 0.5866(10)
C30_2 C 0.4220(8) 0.2661(3) 0.5803(10)
C31_2 C 0.2283(7) 0.3559(3) 0.5927(9)
C32_2 C 0.1299(9) 0.4837(3) 0.6483(11)
C33_2 C 0.1448(9) 0.4423(4) 0.6390(11)
H13_2 H 0.1236 0.4207 0.6542
C34_2 C 0.2381(8) 0.2391(4) 0.5810(8)
C35_2 C 0.6856(7) 0.2811(4) 0.5591(7)
H14_2 H 0.7293 0.2846 0.5527
C36_2 C 0.3387(9) 0.1913(4) 0.5779(10)
H15_2 H 0.3872 0.1938 0.5786
H16_2 H 0.3118 0.1770 0.5414
H17_2 H 0.3365 0.1758 0.6129
C37_2 C 0.0814(12) 0.4945(6) 0.6846(12)
C38_2 C 0.2174(6) 0.4664(3) 0.5788(6)
H20_2 H 0.2446 0.4606 0.5535
O17_2 O 0.1128(4) 0.0793(2) 0.9365(6)
O19_2 O 0.0898(5) 0.1448(3) 0.9127(7)
H32_2 H 0.0030 0.0444 0.9453
O25_2 O 0.0889(10) 0.5335(6) 0.8464(11)
H38_2 H 0.0779 0.5096 0.8300
H39_2 H 0.0529 0.5427 0.8549
C78_2 C 0.0748(7) 0.1107(5) 0.9291(8)
Cd10_2 Cd 0.70906(5) 0.36450(2) 0.42693(7)
O30_2 O 0.3174(5) 0.1685(3) 0.9349(7)
O31_2 O 0.6128(4) 0.4207(2) 0.4365(6)
O36_2 O 0.2275(5) 0.2103(2) 0.9269(6)
O37_2 O 0.7581(7) 0.4641(4) 0.4865(7)
Cd11_2 Cd 0.29094(5) 0.36450(2) 0.07307(7)
O32_2 O 0.3872(4) 0.4207(2) 0.0635(6)
O38_2 O 0.2419(7) 0.4641(4) 0.0135(7)
Cd2_3 Cd 1.0000 0.52523(6) 0.7500
O4_2 O 0.8872(4) 0.0793(2) 0.5635(6)
O6_2 O 0.9102(5) 0.1448(3) 0.5873(7)
H12_2 H 0.9970 0.0444 0.5547
O12_2 O 0.9111(10) 0.5335(6) 0.6536(11)
H18_2 H 0.9221 0.5096 0.6700
H19_2 H 0.9471 0.5427 0.6451
C39_2 C 0.9252(7) 0.1107(5) 0.5709(8)
O15_2 O 0.3658(5) 0.3892(2) 0.9359(6)
O18_2 O 0.2805(5) 0.3644(2) 0.9687(6)
C40_2 C 0.8766(8) 0.0212(4) 0.9516(10)
C41_2 C 0.7891(7) 0.2794(3) 0.9155(10)
C42_2 C 0.8041(8) 0.2036(4) 0.9213(10)
O20_2 O 0.9499(8) 0.4676(4) 0.7952(9)
C43_2 C 0.3304(9) 0.3588(3) 0.9490(10)
C44_2 C 0.8072(7) 0.4330(3) 0.8939(9)
C45_2 C 0.8878(8) 0.1373(3) 0.9303(10)
C46_2 C 0.8626(9) 0.2850(5) 0.9120(13)
H21_2 H 0.8603 0.2978 0.8737
H22_2 H 0.8854 0.2582 0.9151
H23_2 H 0.8892 0.3027 0.9448
C47_2 C 0.7971(7) 0.5069(3) 0.9118(8)
C48_2 C 0.3548(8) 0.3159(4) 0.9388(10)
O22_2 O 0.7581(7) 0.5359(4) 0.9865(7)
C49_2 C 0.9035(8) 0.0622(3) 0.9410(10)
C50_2 C 0.8620(7) 0.0979(3) 0.9372(9)
H24_2 H 0.8161 0.0953 0.9392
C51_2 C 0.6920(7) 0.2344(3) 0.9210(9)
C52_2 C 0.6302(8) 0.3468(5) 0.9115(8)
H25_2 H 0.5818 0.3405 0.8889
H26_2 H 0.6466 0.3696 0.8922
H27_2 H 0.6331 0.3546 0.9524
C53_2 C 0.8397(8) 0.5166(4) 0.8738(10)
H28_2 H 0.8467 0.5442 0.8641
O23_2 O 0.9251(9) 0.5324(3) 0.8048(9)
C54_2 C 0.6498(8) 0.2694(3) 0.9183(9)
C55_2 C 0.4058(7) 0.2358(3) 0.9280(9)
H29_2 H 0.4229 0.2091 0.9240
C56_2 C 0.4228(7) 0.3100(3) 0.9345(8)
H30_2 H 0.4515 0.3333 0.9357
C57_2 C 0.7689(7) 0.5440(4) 0.9382(8)
C58_2 C 0.2908(7) 0.2035(3) 0.9334(9)
C59_2 C 0.6740(8) 0.3101(3) 0.9129(9)
C60_2 C 0.9556(6) 0.1417(3) 0.9261(6)
H31_2 H 0.9722 0.1679 0.9194
C61_2 C 0.7895(9) 0.3926(4) 0.9008(10)
C62_2 C 0.5169(6) 0.2664(3) 0.9220(9)
C63_2 C 0.3383(7) 0.2398(3) 0.9335(8)
C64_2 C 0.9732(8) 0.0676(3) 0.9402(9)
C65_2 C 0.8432(8) 0.1743(3) 0.9262(10)
C66_2 C 0.9986(7) 0.1067(4) 0.9318(9)
C67_2 C 0.4488(7) 0.2705(3) 0.9285(8)
C68_2 C 0.7466(8) 0.3138(4) 0.9134(10)
C69_2 C 0.5780(8) 0.2661(3) 0.9197(10)
C70_2 C 0.7717(7) 0.3559(3) 0.9073(9)
C71_2 C 0.8701(9) 0.4837(3) 0.8517(11)
C72_2 C 0.8552(9) 0.4423(4) 0.8610(11)
H33_2 H 0.8764 0.4207 0.8458
C73_2 C 0.7619(8) 0.2391(4) 0.9190(8)
C74_2 C 0.3144(7) 0.2811(4) 0.9409(7)
H34_2 H 0.2707 0.2846 0.9473
C75_2 C 0.6613(9) 0.1913(4) 0.9221(10)
H35_2 H 0.6128 0.1938 0.9214
H36_2 H 0.6882 0.1770 0.9586
H37_2 H 0.6635 0.1758 0.8871
C76_2 C 0.9186(12) 0.4945(6) 0.8154(12)
C77_2 C 0.7826(6) 0.4664(3) 0.9212(6)
H40_2 H 0.7554 0.4606 0.9465
O33_2 O 0.7805(5) 0.1356(2) 0.4687(6)
O15_3 O 0.1342(5) 0.1108(2) 0.0641(6)
O16 O 0.1826(5) 0.3315(3) 0.0651(7)
O21 O 0.2725(5) 0.2897(2) 0.0731(6)
C43_3 C 0.1696(9) 0.1412(3) 0.0510(10)
C48_3 C 0.1452(8) 0.1841(4) 0.0612(10)
C55_3 C 0.0942(7) 0.2642(3) 0.0720(9)
H29_3 H 0.0771 0.2909 0.0760
C56_3 C 0.0772(7) 0.1900(3) 0.0655(8)
H30_3 H 0.0485 0.1667 0.0643
C58_3 C 0.2092(7) 0.2965(3) 0.0666(9)
C63_3 C 0.1617(7) 0.2602(3) 0.0665(8)
C67_3 C 0.0512(7) 0.2295(3) 0.0715(8)
C74_3 C 0.1856(7) 0.2189(4) 0.0591(7)
H34_3 H 0.2293 0.2154 0.0527
O42_2 O 0.0908(6) 0.0098(3) 0.0466(8)
O40_2 O 0.1743(8) 0.9801(4) 0.0304(12)
O6_3 O 0.5898(5) 0.3552(3) 0.4127(7)
C1_3 C 0.3766(8) 0.4788(4) 0.4516(10)
C2_3 C 0.2891(7) 0.2206(3) 0.4155(10)
C3_3 C 0.3041(8) 0.2964(4) 0.4213(10)
O7_3 O 0.4499(8) 0.0324(4) 0.2952(9)
C5_3 C 0.3072(7) 0.0670(3) 0.3939(9)
C6_3 C 0.3878(8) 0.3627(3) 0.4303(10)
C7_3 C 0.3626(9) 0.2150(5) 0.4120(13)
H1_3 H 0.3603 0.2022 0.3737
H2_3 H 0.3854 0.2418 0.4151
H3_3 H 0.3892 0.1973 0.4448
C10_3 C 0.4035(8) 0.4378(3) 0.4410(10)
C11_3 C 0.3620(7) 0.4021(3) 0.4372(9)
H4_3 H 0.3161 0.4047 0.4392
C12_3 C 0.1920(7) 0.2656(3) 0.4210(9)
C13_3 C 0.1302(8) 0.1532(5) 0.4115(8)
H5_3 H 0.0818 0.1595 0.3889
H6_3 H 0.1466 0.1304 0.3922
H7_3 H 0.1331 0.1454 0.4524
C15_3 C 0.1498(8) 0.2306(3) 0.4183(9)
C20_3 C 0.1740(8) 0.1899(3) 0.4129(9)
C21_3 C 0.4556(6) 0.3583(3) 0.4261(6)
H11_3 H 0.4722 0.3321 0.4194
C22_3 C 0.2895(9) 0.1074(4) 0.4008(10)
C23_3 C 0.0169(6) 0.2336(3) 0.4220(9)
C25_3 C 0.4732(8) 0.4324(3) 0.4402(9)
H12_3 H 0.5030 0.4556 0.4453
C26_3 C 0.3432(8) 0.3257(3) 0.4262(10)
C27_3 C 0.4986(7) 0.3933(4) 0.4318(9)
C29_3 C 0.2466(8) 0.1862(4) 0.4134(10)
C30_3 C 0.0780(8) 0.2339(3) 0.4197(10)
C31_3 C 0.2717(7) 0.1441(3) 0.4073(9)
O11_2 O 0.3257(8) 0.4801(4) 0.4696(12)
C32_3 C 0.3701(9) 0.0163(3) 0.3517(11)
C33_3 C 0.3552(9) 0.0577(4) 0.3610(11)
H13_3 H 0.3764 0.0793 0.3458
C34_3 C 0.2619(8) 0.2609(4) 0.4190(8)
C36_3 C 0.1613(9) 0.3087(4) 0.4221(10)
H15_3 H 0.1128 0.3062 0.4214
H16_3 H 0.1882 0.3230 0.4586
H17_3 H 0.1635 0.3242 0.3871
C37_3 C 0.4186(12) 0.0055(6) 0.3154(12)
C38_3 C 0.2826(6) 0.0336(3) 0.4212(6)
H20_3 H 0.2554 0.0394 0.4465
C39_3 C 0.5748(7) 0.3893(5) 0.4291(8)
O13_2 O 0.4092(6) 0.5098(3) 0.4534(8)
O19_3 O 0.4102(5) 0.3552(3) 0.0873(7)
C40_3 C 0.6234(8) 0.4788(4) 0.0484(10)
C41_3 C 0.7109(7) 0.2206(3) 0.0845(10)
C42_3 C 0.6959(8) 0.2964(4) 0.0787(10)
O20_3 O 0.5501(8) 0.0324(4) 0.2048(9)
C44_3 C 0.6928(7) 0.0670(3) 0.1061(9)
C45_3 C 0.6122(8) 0.3627(3) 0.0697(10)
C46_3 C 0.6374(9) 0.2150(5) 0.0880(13)
H21_3 H 0.6397 0.2022 0.1263
H22_3 H 0.6146 0.2418 0.0849
H23_3 H 0.6108 0.1973 0.0552
C49_3 C 0.5965(8) 0.4378(3) 0.0590(10)
C50_3 C 0.6380(7) 0.4021(3) 0.0628(9)
H24_3 H 0.6839 0.4047 0.0608
C51_3 C 0.8080(7) 0.2656(3) 0.0790(9)
C52_3 C 0.8698(8) 0.1532(5) 0.0885(8)
H25_3 H 0.9182 0.1595 0.1111
H26_3 H 0.8534 0.1304 0.1078
H27_3 H 0.8669 0.1454 0.0476
C54_3 C 0.8502(8) 0.2306(3) 0.0817(9)
C59_3 C 0.8260(8) 0.1899(3) 0.0871(9)
C60_3 C 0.5444(6) 0.3583(3) 0.0739(6)
H31_3 H 0.5278 0.3321 0.0806
C61_3 C 0.7105(9) 0.1074(4) 0.0992(10)
C62_3 C 0.9831(6) 0.2336(3) 0.0780(9)
C64_3 C 0.5268(8) 0.4324(3) 0.0598(9)
H32_3 H 0.4970 0.4556 0.0547
C65_3 C 0.6568(8) 0.3257(3) 0.0738(10)
C66_3 C 0.5014(7) 0.3933(4) 0.0682(9)
C68_3 C 0.7534(8) 0.1862(4) 0.0866(10)
C69_3 C 0.9220(8) 0.2339(3) 0.0803(10)
C70_3 C 0.7283(7) 0.1441(3) 0.0927(9)
O24_2 O 0.6743(8) 0.4801(4) 0.0304(12)
C71_3 C 0.6299(9) 0.0163(3) 0.1483(11)
C72_3 C 0.6448(9) 0.0577(4) 0.1390(11)
H33_3 H 0.6236 0.0793 0.1542
C73_3 C 0.7381(8) 0.2609(4) 0.0810(8)
C75_3 C 0.8387(9) 0.3087(4) 0.0779(10)
H35_3 H 0.8872 0.3062 0.0786
H36_3 H 0.8118 0.3230 0.0414
H37_3 H 0.8365 0.3242 0.1129
C76_3 C 0.5814(12) 0.0055(6) 0.1846(12)
C77_3 C 0.7174(6) 0.0336(3) 0.0788(6)
H40_3 H 0.7446 0.0394 0.0535
C78_3 C 0.4252(7) 0.3893(5) 0.0709(8)
O26_2 O 0.5908(6) 0.5098(3) 0.0466(8)
O27_2 O 0.7624(5) 0.42260(19) 0.4119(6)
O28_2 O 0.2376(5) 0.42260(19) 0.0881(6)
O29 O 0.8174(5) 0.3315(3) 0.4349(7)
O35 O 0.7275(5) 0.2897(2) 0.4269(6)
Cd2_4 Cd 0.5000 0.97477(6) 0.2500
O1_2 O 0.2624(5) 0.92260(19) 0.4119(6)
C8_3 C 0.2971(7) 0.9931(3) 0.4118(8)
C14_3 C 0.3397(8) 0.9834(4) 0.3738(10)
H8_3 H 0.3467 0.9558 0.3641
O10_3 O 0.4251(9) 0.9676(3) 0.3048(9)
C18_3 C 0.2689(7) 0.9560(4) 0.4382(8)
O12_3 O 0.5889(10) 0.9665(6) 0.3464(11)
H18_3 H 0.5779 0.9904 0.3300
H19_3 H 0.5529 0.9573 0.3549
O14_2 O 0.7376(5) 0.92260(19) 0.0881(6)
C47_3 C 0.7029(7) 0.9931(3) 0.0882(8)
C53_3 C 0.6603(8) 0.9834(4) 0.1262(10)
H28_3 H 0.6533 0.9558 0.1359
O23_3 O 0.5749(9) 0.9676(3) 0.1952(9)
C57_3 C 0.7311(7) 0.9560(4) 0.0618(8)
O25_3 O 0.4111(10) 0.9665(6) 0.1536(11)
H38_3 H 0.4221 0.9904 0.1700
H39_3 H 0.4471 0.9573 0.1451
O2_3 O 0.8658(5) 0.1108(2) 0.4359(6)
C4_3 C 0.8304(9) 0.1412(3) 0.4490(10)
C9_3 C 0.8548(8) 0.1841(4) 0.4388(10)
C16_3 C 0.9058(7) 0.2642(3) 0.4280(9)
H9_3 H 0.9229 0.2909 0.4240
C17_3 C 0.9228(7) 0.1900(3) 0.4345(8)
H10_3 H 0.9515 0.1667 0.4357
C19_3 C 0.7908(7) 0.2965(3) 0.4334(9)
C24_3 C 0.8383(7) 0.2602(3) 0.4335(8)
C28_3 C 0.9488(7) 0.2295(3) 0.4285(8)
C35_3 C 0.8144(7) 0.2189(4) 0.4409(7)
H14_3 H 0.7707 0.2154 0.4473
O41_2 O 0.9092(6) 0.0098(3) 0.4534(8)
O39_2 O 0.8257(8) 0.9801(4) 0.4696(12)
Cd2_5 Cd 0.0000 0.47477(6) 0.2500
O6_4 O 0.0898(5) 0.8552(3) 0.4127(7)
H12_4 H 0.0030 0.9556 0.4453
O12_4 O 0.0889(10) 0.4665(6) 0.3464(11)
H18_4 H 0.0779 0.4904 0.3300
H19_4 H 0.0529 0.4573 0.3549
C39_4 C 0.0748(7) 0.8893(5) 0.4291(8)
O15_4 O 0.6342(5) 0.6108(2) 0.0641(6)
O16_2 O 0.6826(5) 0.8315(3) 0.0651(7)
C40_4 C 0.1234(8) 0.9788(4) 0.0484(10)
C41_4 C 0.2109(7) 0.7206(3) 0.0845(10)
C42_4 C 0.1959(8) 0.7964(4) 0.0787(10)
O20_4 O 0.0501(8) 0.5324(4) 0.2048(9)
O21_2 O 0.7725(5) 0.7897(2) 0.0731(6)
C43_4 C 0.6696(9) 0.6412(3) 0.0510(10)
C44_4 C 0.1928(7) 0.5670(3) 0.1061(9)
C45_4 C 0.1122(8) 0.8627(3) 0.0697(10)
C46_4 C 0.1374(9) 0.7150(5) 0.0880(13)
H21_4 H 0.1397 0.7022 0.1263
H22_4 H 0.1146 0.7418 0.0849
H23_4 H 0.1108 0.6973 0.0552
C47_4 C 0.2029(7) 0.4931(3) 0.0882(8)
C48_4 C 0.6452(8) 0.6841(4) 0.0612(10)
C49_4 C 0.0965(8) 0.9378(3) 0.0590(10)
C50_4 C 0.1380(7) 0.9021(3) 0.0628(9)
H24_4 H 0.1839 0.9047 0.0608
C51_4 C 0.3080(7) 0.7656(3) 0.0790(9)
C52_4 C 0.3698(8) 0.6532(5) 0.0885(8)
H25_4 H 0.4182 0.6595 0.1111
H26_4 H 0.3534 0.6304 0.1078
H27_4 H 0.3669 0.6454 0.0476
C53_4 C 0.1603(8) 0.4834(4) 0.1262(10)
H28_4 H 0.1533 0.4558 0.1359
O23_4 O 0.0749(9) 0.4676(3) 0.1952(9)
C54_4 C 0.3502(8) 0.7306(3) 0.0817(9)
C55_4 C 0.5942(7) 0.7642(3) 0.0720(9)
H29_4 H 0.5771 0.7909 0.0760
C56_4 C 0.5772(7) 0.6900(3) 0.0655(8)
H30_4 H 0.5485 0.6667 0.0643
C57_4 C 0.2311(7) 0.4560(4) 0.0618(8)
C58_4 C 0.7092(7) 0.7965(3) 0.0666(9)
C59_4 C 0.3260(8) 0.6899(3) 0.0871(9)
C60_4 C 0.0444(6) 0.8583(3) 0.0739(6)
H31_4 H 0.0278 0.8321 0.0806
C61_4 C 0.2105(9) 0.6074(4) 0.0992(10)
C62_4 C 0.4831(6) 0.7336(3) 0.0780(9)
C63_4 C 0.6617(7) 0.7602(3) 0.0665(8)
C64_4 C 0.0268(8) 0.9324(3) 0.0598(9)
C65_4 C 0.1568(8) 0.8257(3) 0.0738(10)
C66_4 C 0.0014(7) 0.8933(4) 0.0682(9)
C67_4 C 0.5512(7) 0.7295(3) 0.0715(8)
C68_4 C 0.2534(8) 0.6862(4) 0.0866(10)
C69_4 C 0.4220(8) 0.7339(3) 0.0803(10)
C70_4 C 0.2283(7) 0.6441(3) 0.0927(9)
C71_4 C 0.1299(9) 0.5163(3) 0.1483(11)
C72_4 C 0.1448(9) 0.5577(4) 0.1390(11)
H33_4 H 0.1236 0.5793 0.1542
C73_4 C 0.2381(8) 0.7609(4) 0.0810(8)
C74_4 C 0.6856(7) 0.7189(4) 0.0591(7)
H34_4 H 0.7293 0.7154 0.0527
C75_4 C 0.3387(9) 0.8087(4) 0.0779(10)
H35_4 H 0.3872 0.8062 0.0786
H36_4 H 0.3118 0.8230 0.0414
H37_4 H 0.3365 0.8242 0.1129
C76_4 C 0.0814(12) 0.5055(6) 0.1846(12)
C77_4 C 0.2174(6) 0.5336(3) 0.0788(6)
H40_4 H 0.2446 0.5394 0.0535
O29_2 O 0.3174(5) 0.8315(3) 0.4349(7)
O35_2 O 0.2275(5) 0.7897(2) 0.4269(6)
Cd2_6 Cd 1.0000 0.47477(6) 0.2500
O2_4 O 0.3658(5) 0.6108(2) 0.4359(6)
C1_4 C 0.8766(8) 0.9788(4) 0.4516(10)
C2_4 C 0.7891(7) 0.7206(3) 0.4155(10)
C3_4 C 0.8041(8) 0.7964(4) 0.4213(10)
O7_4 O 0.9499(8) 0.5324(4) 0.2952(9)
C4_4 C 0.3304(9) 0.6412(3) 0.4490(10)
C5_4 C 0.8072(7) 0.5670(3) 0.3939(9)
C6_4 C 0.8878(8) 0.8627(3) 0.4303(10)
C7_4 C 0.8626(9) 0.7150(5) 0.4120(13)
H1_4 H 0.8603 0.7022 0.3737
H2_4 H 0.8854 0.7418 0.4151
H3_4 H 0.8892 0.6973 0.4448
C8_4 C 0.7971(7) 0.4931(3) 0.4118(8)
C9_4 C 0.3548(8) 0.6841(4) 0.4388(10)
C10_4 C 0.9035(8) 0.9378(3) 0.4410(10)
C11_4 C 0.8620(7) 0.9021(3) 0.4372(9)
H4_4 H 0.8161 0.9047 0.4392
C12_4 C 0.6920(7) 0.7656(3) 0.4210(9)
C13_4 C 0.6302(8) 0.6532(5) 0.4115(8)
H5_4 H 0.5818 0.6595 0.3889
H6_4 H 0.6466 0.6304 0.3922
H7_4 H 0.6331 0.6454 0.4524
C14_4 C 0.8397(8) 0.4834(4) 0.3738(10)
H8_4 H 0.8467 0.4558 0.3641
O10_4 O 0.9251(9) 0.4676(3) 0.3048(9)
C15_4 C 0.6498(8) 0.7306(3) 0.4183(9)
C16_4 C 0.4058(7) 0.7642(3) 0.4280(9)
H9_4 H 0.4229 0.7909 0.4240
C17_4 C 0.4228(7) 0.6900(3) 0.4345(8)
H10_4 H 0.4515 0.6667 0.4357
C18_4 C 0.7689(7) 0.4560(4) 0.4382(8)
C19_4 C 0.2908(7) 0.7965(3) 0.4334(9)
C20_4 C 0.6740(8) 0.6899(3) 0.4129(9)
C21_4 C 0.9556(6) 0.8583(3) 0.4261(6)
H11_4 H 0.9722 0.8321 0.4194
C22_4 C 0.7895(9) 0.6074(4) 0.4008(10)
C23_4 C 0.5169(6) 0.7336(3) 0.4220(9)
C24_4 C 0.3383(7) 0.7602(3) 0.4335(8)
C25_4 C 0.9732(8) 0.9324(3) 0.4402(9)
C26_4 C 0.8432(8) 0.8257(3) 0.4262(10)
C27_4 C 0.9986(7) 0.8933(4) 0.4318(9)
C28_4 C 0.4488(7) 0.7295(3) 0.4285(8)
C29_4 C 0.7466(8) 0.6862(4) 0.4134(10)
C30_4 C 0.5780(8) 0.7339(3) 0.4197(10)
C31_4 C 0.7717(7) 0.6441(3) 0.4073(9)
C32_4 C 0.8701(9) 0.5163(3) 0.3517(11)
C33_4 C 0.8552(9) 0.5577(4) 0.3610(11)
H13_4 H 0.8764 0.5793 0.3458
C34_4 C 0.7619(8) 0.7609(4) 0.4190(8)
C35_4 C 0.3144(7) 0.7189(4) 0.4409(7)
H14_4 H 0.2707 0.7154 0.4473
C36_4 C 0.6613(9) 0.8087(4) 0.4221(10)
H15_4 H 0.6128 0.8062 0.4214
H16_4 H 0.6882 0.8230 0.4586
H17_4 H 0.6635 0.8242 0.3871
C37_4 C 0.9186(12) 0.5055(6) 0.3154(12)
C38_4 C 0.7826(6) 0.5336(3) 0.4212(6)
H20_4 H 0.7554 0.5394 0.4465
O19_4 O 0.9102(5) 0.8552(3) 0.0873(7)
H32_4 H 0.9970 0.9556 0.0547
O25_4 O 0.9111(10) 0.4665(6) 0.1536(11)
H38_4 H 0.9221 0.4904 0.1700
H39_4 H 0.9471 0.4573 0.1451
C78_4 C 0.9252(7) 0.8893(5) 0.0709(8)
loop_
_geom_bond_atom_site_label_1
_geom_bond_atom_site_label_2
_geom_bond_site_symmetry_1
_geom_bond_site_symmetry_2
O2 C4 1_555 1_555
O3 C19 1_555 1_555
O5 C4 1_555 1_555
O8 C19 1_555 1_555
C4 C9 1_555 1_555
C9 C17 1_555 1_555
C16 H9 1_555 1_555
C17 H10 1_555 1_555
C19 C24 1_555 1_555
C24 C16 1_555 1_555
C28 C16 1_555 1_555
C35 C9 1_555 1_555
H14 C35 1_555 1_555
Cd3 O2 1_555 1_555
Cd6 O3 1_555 1_555
Cd10 O5 1_555 1_555
O31 Cd3 1_555 1_555
O37 Cd3 1_555 1_555
O41 Cd3 1_555 1_555
O5 Cd3 1_555 1_555
O8 Cd6 1_555 1_555
C17 C28 1_555 1_555
C24 C35 1_555 1_555
Cd10 O31 1_555 1_555
O1 C18 1_555 1_555
C8 C14 1_555 1_555
O9 C18 1_555 1_555
C14 H8 1_555 1_555
O10 Cd2 1_555 1_555
C18 C8 1_555 1_555
O12 Cd2 1_555 1_555
H18 O12 1_555 1_555
H19 O12 1_555 1_555
O14 C57 1_555 1_555
C47 C53 1_555 1_555
O22 C57 1_555 1_555
C53 H28 1_555 1_555
O23 Cd2 1_555 1_555
C57 C47 1_555 1_555
O25 Cd2 1_555 1_555
H38 O25 1_555 1_555
H39 O25 1_555 1_555
Cd8 O1 1_555 1_555
Cd9 O14 1_555 1_555
Cd14 O9 1_555 1_555
O34 Cd17 1_555 1_555
Cd6 O4 1_555 1_555
O4 C39 1_555 1_555
O6 Cd6 1_555 1_555
C1 C10 1_555 1_555
C2 C7 1_555 1_555
C3 C26 1_555 1_555
O7 C37 1_555 1_555
C5 C22 1_555 1_555
C6 C11 1_555 1_555
C7 H1 1_555 1_555
H2 C7 1_555 1_555
H3 C7 1_555 1_555
C10 C11 1_555 1_555
C11 H4 1_555 1_555
C12 C15 1_555 1_555
C13 H5 1_555 1_555
H6 C13 1_555 1_555
H7 C13 1_555 1_555
C15 C20 1_555 1_555
C20 C13 1_555 1_555
C21 C6 1_555 1_555
H11 C21 1_555 1_555
C22 C31 1_555 1_555
C25 C10 1_555 1_555
H12 C25 1_555 1_555
C26 C6 1_555 1_555
C27 C21 1_555 1_555
C29 C2 1_555 1_555
C30 C15 1_555 1_555
C31 C29 1_555 1_555
O11 C1 1_555 1_555
C33 C5 1_555 1_555
H13 C33 1_555 1_555
C34 C2 1_555 1_555
C36 C12 1_555 1_555
H15 C36 1_555 1_555
H16 C36 1_555 1_555
H17 C36 1_555 1_555
C38 C5 1_555 1_555
H20 C38 1_555 1_555
C39 O6 1_555 1_555
O13 C1 1_555 1_555
Cd4 O17 1_555 1_555
O17 C78 1_555 1_555
O19 Cd4 1_555 1_555
C40 C49 1_555 1_555
C41 C46 1_555 1_555
C42 C65 1_555 1_555
C44 C61 1_555 1_555
C45 C50 1_555 1_555
C46 H21 1_555 1_555
H22 C46 1_555 1_555
H23 C46 1_555 1_555
C49 C50 1_555 1_555
C50 H24 1_555 1_555
C51 C54 1_555 1_555
C52 H25 1_555 1_555
H26 C52 1_555 1_555
H27 C52 1_555 1_555
C54 C59 1_555 1_555
C59 C52 1_555 1_555
C60 C45 1_555 1_555
H31 C60 1_555 1_555
C61 C70 1_555 1_555
C64 C49 1_555 1_555
H32 C64 1_555 1_555
C65 C45 1_555 1_555
C66 C60 1_555 1_555
C68 C41 1_555 1_555
C69 C54 1_555 1_555
C70 C68 1_555 1_555
O24 C40 1_555 1_555
C72 C44 1_555 1_555
H33 C72 1_555 1_555
C73 C41 1_555 1_555
C75 C51 1_555 1_555
H35 C75 1_555 1_555
H36 C75 1_555 1_555
H37 C75 1_555 1_555
C76 O20 1_555 1_555
C77 C44 1_555 1_555
H40 C77 1_555 1_555
C78 O19 1_555 1_555
O26 C40 1_555 1_555
O27 Cd6 1_555 1_555
O28 Cd4 1_555 1_555
O30 Cd4 1_555 1_555
O33 Cd6 1_555 1_555
O36 Cd4 1_555 1_555
Cd12 O11 1_555 1_555
Cd13 O24 1_555 1_555
Cd16 O4 1_555 1_555
C3 C34 1_555 1_555
C12 C34 1_555 1_555
C20 C29 1_555 1_555
C23 C30 1_555 1_555
C25 C27 1_555 1_555
C27 C39 1_555 1_555
C32 C33 1_555 1_555
C32 C37 1_555 1_555
O13 Cd12 1_555 1_555
C42 C73 1_555 1_555
C51 C73 1_555 1_555
C59 C68 1_555 1_555
C62 C69 1_555 1_555
C64 C66 1_555 1_555
C66 C78 1_555 1_555
C71 C72 1_555 1_555
C71 C76 1_555 1_555
O26 Cd13 1_555 1_555
O33 Cd16 1_555 1_555
Cd11 O32 1_555 1_555
O15 C43 1_555 1_555
O30 C58 1_555 1_555
O18 C43 1_555 1_555
O36 C58 1_555 1_555
C43 C48 1_555 1_555
C48 C56 1_555 1_555
C55 H29 1_555 1_555
C56 H30 1_555 1_555
C58 C63 1_555 1_555
C63 C55 1_555 1_555
C67 C55 1_555 1_555
C74 C48 1_555 1_555
H34 C74 1_555 1_555
Cd5 O15 1_555 1_555
O42 Cd5 1_555 1_555
O18 Cd5 1_555 1_555
C56 C67 1_555 1_555
C63 C74 1_555 1_555
O34_2 Cd15 1_555 1_555
Cd2_2 O7_2 1_555 1_555
O27 C18_2 1_555 1_555
O2_2 C4_2 1_555 1_555
O3_2 C19_2 1_555 1_555
O5_2 C4_2 1_555 1_555
C1_2 C10_2 1_555 1_555
C2_2 C7_2 1_555 1_555
C3_2 C26_2 1_555 1_555
O7_2 C37_2 1_555 1_555
O8_2 C19_2 1_555 1_555
C4_2 C9_2 1_555 1_555
C5_2 C22_2 1_555 1_555
C6_2 C11_2 1_555 1_555
C7_2 H1_2 1_555 1_555
H2_2 C7_2 1_555 1_555
H3_2 C7_2 1_555 1_555
C8_2 C14_2 1_555 1_555
C9_2 C17_2 1_555 1_555
O9_2 C18_2 1_555 1_555
C10_2 C11_2 1_555 1_555
C11_2 H4_2 1_555 1_555
C12_2 C15_2 1_555 1_555
C13_2 H5_2 1_555 1_555
H6_2 C13_2 1_555 1_555
H7_2 C13_2 1_555 1_555
C14_2 H8_2 1_555 1_555
O10_2 Cd2_2 1_555 1_555
C15_2 C20_2 1_555 1_555
C16_2 H9_2 1_555 1_555
C17_2 H10_2 1_555 1_555
C18_2 C8_2 1_555 1_555
C19_2 C24_2 1_555 1_555
C20_2 C13_2 1_555 1_555
C21_2 C6_2 1_555 1_555
H11_2 C21_2 1_555 1_555
C22_2 C31_2 1_555 1_555
C23_2 C28_2 1_555 1_555
C24_2 C16_2 1_555 1_555
C25_2 C10_2 1_555 1_555
C26_2 C6_2 1_555 1_555
C27_2 C21_2 1_555 1_555
C28_2 C16_2 1_555 1_555
C29_2 C2_2 1_555 1_555
C30_2 C15_2 1_555 1_555
C31_2 C29_2 1_555 1_555
O39 C1_2 1_555 1_555
C32_2 C14_2 1_555 1_555
C33_2 C5_2 1_555 1_555
H13_2 C33_2 1_555 1_555
C34_2 C2_2 1_555 1_555
C35_2 C9_2 1_555 1_555
H14_2 C35_2 1_555 1_555
C36_2 C12_2 1_555 1_555
H15_2 C36_2 1_555 1_555
H16_2 C36_2 1_555 1_555
H17_2 C36_2 1_555 1_555
C37_2 O10_2 1_555 1_555
C38_2 C5_2 1_555 1_555
H20_2 C38_2 1_555 1_555
Cd12 O2_2 1_555 1_555
Cd9 O17_2 1_555 1_555
O17_2 C78_2 1_555 1_555
O19_2 Cd9 1_555 1_555
O25_2 Cd2_2 1_555 1_555
H38_2 O25_2 1_555 1_555
H39_2 O25_2 1_555 1_555
C78_2 O19_2 1_555 1_555
Cd8 O3_2 1_555 1_555
Cd10_2 O5_2 1_555 1_555
O30_2 Cd9 1_555 1_555
O31_2 Cd12 1_555 1_555
O36_2 Cd9 1_555 1_555
O37_2 Cd12 1_555 1_555
Cd16 O9_2 1_555 1_555
O5_2 Cd12 1_555 1_555
C3_2 C34_2 1_555 1_555
O8_2 Cd8 1_555 1_555
C8_2 C38_2 1_555 1_555
C12_2 C34_2 1_555 1_555
C17_2 C28_2 1_555 1_555
C20_2 C29_2 1_555 1_555
C23_2 C30_2 1_555 1_555
C24_2 C35_2 1_555 1_555
C25_2 C27_2 1_555 1_555
C32_2 C33_2 1_555 1_555
C32_2 C37_2 1_555 1_555
Cd10_2 O31_2 1_555 1_555
Cd11_2 O32_2 1_555 1_555
Cd8 O4_2 1_555 1_555
O4_2 C39_2 1_555 1_555
O6_2 Cd8 1_555 1_555
O12_2 Cd2_3 1_555 1_555
H18_2 O12_2 1_555 1_555
H19_2 O12_2 1_555 1_555
C39_2 O6_2 1_555 1_555
O28 C57_2 1_555 1_555
O15_2 C43_2 1_555 1_555
O30_2 C58_2 1_555 1_555
O18_2 C43_2 1_555 1_555
C40_2 C49_2 1_555 1_555
C41_2 C46_2 1_555 1_555
C42_2 C65_2 1_555 1_555
O20_2 Cd2_3 1_555 1_555
O36_2 C58_2 1_555 1_555
C43_2 C48_2 1_555 1_555
C44_2 C61_2 1_555 1_555
C45_2 C50_2 1_555 1_555
C46_2 H21_2 1_555 1_555
H22_2 C46_2 1_555 1_555
H23_2 C46_2 1_555 1_555
C47_2 C53_2 1_555 1_555
C48_2 C56_2 1_555 1_555
O22_2 C57_2 1_555 1_555
C49_2 C50_2 1_555 1_555
C50_2 H24_2 1_555 1_555
C51_2 C54_2 1_555 1_555
C52_2 H25_2 1_555 1_555
H26_2 C52_2 1_555 1_555
H27_2 C52_2 1_555 1_555
C53_2 H28_2 1_555 1_555
O23_2 Cd2_3 1_555 1_555
C54_2 C59_2 1_555 1_555
C55_2 H29_2 1_555 1_555
C56_2 H30_2 1_555 1_555
C57_2 C47_2 1_555 1_555
C58_2 C63_2 1_555 1_555
C59_2 C52_2 1_555 1_555
C60_2 C45_2 1_555 1_555
H31_2 C60_2 1_555 1_555
C61_2 C70_2 1_555 1_555
C62_2 C67_2 1_555 1_555
C63_2 C55_2 1_555 1_555
C64_2 C49_2 1_555 1_555
C65_2 C45_2 1_555 1_555
C66_2 C60_2 1_555 1_555
C67_2 C55_2 1_555 1_555
C68_2 C41_2 1_555 1_555
C69_2 C54_2 1_555 1_555
C70_2 C68_2 1_555 1_555
O40 C40_2 1_555 1_555
C71_2 C53_2 1_555 1_555
C72_2 C44_2 1_555 1_555
H33_2 C72_2 1_555 1_555
C73_2 C41_2 1_555 1_555
C74_2 C48_2 1_555 1_555
H34_2 C74_2 1_555 1_555
C75_2 C51_2 1_555 1_555
H35_2 C75_2 1_555 1_555
H36_2 C75_2 1_555 1_555
H37_2 C75_2 1_555 1_555
C76_2 O20_2 1_555 1_555
C77_2 C44_2 1_555 1_555
H40_2 C77_2 1_555 1_555
Cd13 O15_2 1_555 1_555
O33_2 Cd8 1_555 1_555
Cd14 O4_2 1_555 1_555
O18_2 Cd13 1_555 1_555
C42_2 C73_2 1_555 1_555
C47_2 C77_2 1_555 1_555
C51_2 C73_2 1_555 1_555
O23_2 C76_2 1_555 1_555
C56_2 C67_2 1_555 1_555
C59_2 C68_2 1_555 1_555
C62_2 C69_2 1_555 1_555
C63_2 C74_2 1_555 1_555
C64_2 C66_2 1_555 1_555
C71_2 C72_2 1_555 1_555
C71_2 C76_2 1_555 1_555
O33_2 Cd14 1_555 1_555
O15_3 C43_3 1_555 1_555
O16 C58_3 1_555 1_555
O34_2 C43_3 1_555 1_555
O21 C58_3 1_555 1_555
C43_3 C48_3 1_555 1_555
C48_3 C56_3 1_555 1_555
C55_3 H29_3 1_555 1_555
C56_3 H30_3 1_555 1_555
C58_3 C63_3 1_555 1_555
C63_3 C55_3 1_555 1_555
C67_3 C55_3 1_555 1_555
C74_3 C48_3 1_555 1_555
H34_3 C74_3 1_555 1_555
Cd15 O15_3 1_555 1_555
Cd11_2 O16 1_555 1_555
O42_2 Cd15 1_555 1_555
O21 Cd11_2 1_555 1_555
C56_3 C67_3 1_555 1_555
C63_3 C74_3 1_555 1_555
O31_2 C39_3 1_555 1_555
O6_3 Cd10_2 1_555 1_555
C1_3 C10_3 1_555 1_555
C2_3 C7_3 1_555 1_555
C3_3 C26_3 1_555 1_555
O7_3 C37_3 1_555 1_555
C5_3 C22_3 1_555 1_555
C6_3 C11_3 1_555 1_555
C7_3 H1_3 1_555 1_555
H2_3 C7_3 1_555 1_555
H3_3 C7_3 1_555 1_555
C10_3 C11_3 1_555 1_555
C11_3 H4_3 1_555 1_555
C12_3 C15_3 1_555 1_555
C13_3 H5_3 1_555 1_555
H6_3 C13_3 1_555 1_555
H7_3 C13_3 1_555 1_555
C15_3 C20_3 1_555 1_555
C20_3 C13_3 1_555 1_555
C21_3 C6_3 1_555 1_555
H11_3 C21_3 1_555 1_555
C22_3 C31_3 1_555 1_555
C25_3 C10_3 1_555 1_555
H12_3 C25_3 1_555 1_555
C26_3 C6_3 1_555 1_555
C27_3 C21_3 1_555 1_555
C29_3 C2_3 1_555 1_555
C30_3 C15_3 1_555 1_555
C31_3 C29_3 1_555 1_555
O11_2 C1_3 1_555 1_555
C33_3 C5_3 1_555 1_555
H13_3 C33_3 1_555 1_555
C34_3 C2_3 1_555 1_555
C36_3 C12_3 1_555 1_555
H15_3 C36_3 1_555 1_555
H16_3 C36_3 1_555 1_555
H17_3 C36_3 1_555 1_555
C38_3 C5_3 1_555 1_555
H20_3 C38_3 1_555 1_555
C39_3 O6_3 1_555 1_555
O13_2 C1_3 1_555 1_555
O32_2 C78_3 1_555 1_555
O19_3 Cd11_2 1_555 1_555
C40_3 C49_3 1_555 1_555
C41_3 C46_3 1_555 1_555
C42_3 C65_3 1_555 1_555
C44_3 C61_3 1_555 1_555
C45_3 C50_3 1_555 1_555
C46_3 H21_3 1_555 1_555
H22_3 C46_3 1_555 1_555
H23_3 C46_3 1_555 1_555
C49_3 C50_3 1_555 1_555
C50_3 H24_3 1_555 1_555
C51_3 C54_3 1_555 1_555
C52_3 H25_3 1_555 1_555
H26_3 C52_3 1_555 1_555
H27_3 C52_3 1_555 1_555
C54_3 C59_3 1_555 1_555
C59_3 C52_3 1_555 1_555
C60_3 C45_3 1_555 1_555
H31_3 C60_3 1_555 1_555
C61_3 C70_3 1_555 1_555
C64_3 C49_3 1_555 1_555
H32_3 C64_3 1_555 1_555
C65_3 C45_3 1_555 1_555
C66_3 C60_3 1_555 1_555
C68_3 C41_3 1_555 1_555
C69_3 C54_3 1_555 1_555
C70_3 C68_3 1_555 1_555
O24_2 C40_3 1_555 1_555
C72_3 C44_3 1_555 1_555
H33_3 C72_3 1_555 1_555
C73_3 C41_3 1_555 1_555
C75_3 C51_3 1_555 1_555
H35_3 C75_3 1_555 1_555
H36_3 C75_3 1_555 1_555
H37_3 C75_3 1_555 1_555
C76_3 O20_3 1_555 1_555
C77_3 C44_3 1_555 1_555
H40_3 C77_3 1_555 1_555
C78_3 O19_3 1_555 1_555
O26_2 C40_3 1_555 1_555
O27_2 Cd10_2 1_555 1_555
O28_2 Cd11_2 1_555 1_555
O29 Cd10_2 1_555 1_555
O35 Cd10_2 1_555 1_555
Cd16 O11_2 1_555 1_555
Cd17 O24_2 1_555 1_555
C3_3 C34_3 1_555 1_555
C12_3 C34_3 1_555 1_555
C20_3 C29_3 1_555 1_555
C23_3 C30_3 1_555 1_555
C25_3 C27_3 1_555 1_555
C27_3 C39_3 1_555 1_555
C32_3 C33_3 1_555 1_555
C32_3 C37_3 1_555 1_555
O13_2 Cd16 1_555 1_555
C42_3 C73_3 1_555 1_555
C51_3 C73_3 1_555 1_555
C59_3 C68_3 1_555 1_555
C62_3 C69_3 1_555 1_555
C64_3 C66_3 1_555 1_555
C66_3 C78_3 1_555 1_555
C71_3 C72_3 1_555 1_555
C71_3 C76_3 1_555 1_555
O26_2 Cd17 1_555 1_555
O1_2 C18_3 1_555 1_555
C8_3 C14_3 1_555 1_555
O37 C18_3 1_555 1_555
C14_3 H8_3 1_555 1_555
O10_3 Cd2_4 1_555 1_555
C18_3 C8_3 1_555 1_555
O12_3 Cd2_4 1_555 1_555
H18_3 O12_3 1_555 1_555
H19_3 O12_3 1_555 1_555
O14_2 C57_3 1_555 1_555
C47_3 C53_3 1_555 1_555
O38 C57_3 1_555 1_555
C53_3 H28_3 1_555 1_555
O23_3 Cd2_4 1_555 1_555
C57_3 C47_3 1_555 1_555
O25_3 Cd2_4 1_555 1_555
H38_3 O25_3 1_555 1_555
H39_3 O25_3 1_555 1_555
Cd10 O1_2 1_555 1_555
Cd11 O14_2 1_555 1_555
O2_3 C4_3 1_555 1_555
O29 C19_3 1_555 1_555
O33_2 C4_3 1_555 1_555
O35 C19_3 1_555 1_555
C4_3 C9_3 1_555 1_555
C9_3 C17_3 1_555 1_555
C16_3 H9_3 1_555 1_555
C17_3 H10_3 1_555 1_555
C19_3 C24_3 1_555 1_555
C24_3 C16_3 1_555 1_555
C28_3 C16_3 1_555 1_555
C35_3 C9_3 1_555 1_555
H14_3 C35_3 1_555 1_555
Cd14 O2_3 1_555 1_555
O41_2 Cd14 1_555 1_555
C17_3 C28_3 1_555 1_555
C24_3 C35_3 1_555 1_555
O31 C39_4 1_555 1_555
O6_4 Cd10 1_555 1_555
O12_4 Cd2_5 1_555 1_555
H18_4 O12_4 1_555 1_555
H19_4 O12_4 1_555 1_555
C39_4 O6_4 1_555 1_555
O28_2 C57_4 1_555 1_555
O15_4 C43_4 1_555 1_555
O16_2 C58_4 1_555 1_555
O34 C43_4 1_555 1_555
C40_4 C49_4 1_555 1_555
C41_4 C46_4 1_555 1_555
C42_4 C65_4 1_555 1_555
O20_4 Cd2_5 1_555 1_555
O21_2 C58_4 1_555 1_555
C43_4 C48_4 1_555 1_555
C44_4 C61_4 1_555 1_555
C45_4 C50_4 1_555 1_555
C46_4 H21_4 1_555 1_555
H22_4 C46_4 1_555 1_555
H23_4 C46_4 1_555 1_555
C47_4 C53_4 1_555 1_555
C48_4 C56_4 1_555 1_555
O38_2 C57_4 1_555 1_555
C49_4 C50_4 1_555 1_555
C50_4 H24_4 1_555 1_555
C51_4 C54_4 1_555 1_555
C52_4 H25_4 1_555 1_555
H26_4 C52_4 1_555 1_555
H27_4 C52_4 1_555 1_555
C53_4 H28_4 1_555 1_555
O23_4 Cd2_5 1_555 1_555
C54_4 C59_4 1_555 1_555
C55_4 H29_4 1_555 1_555
C56_4 H30_4 1_555 1_555
C57_4 C47_4 1_555 1_555
C58_4 C63_4 1_555 1_555
C59_4 C52_4 1_555 1_555
C60_4 C45_4 1_555 1_555
H31_4 C60_4 1_555 1_555
C61_4 C70_4 1_555 1_555
C62_4 C67_4 1_555 1_555
C63_4 C55_4 1_555 1_555
C64_4 C49_4 1_555 1_555
C65_4 C45_4 1_555 1_555
C66_4 C60_4 1_555 1_555
C67_4 C55_4 1_555 1_555
C68_4 C41_4 1_555 1_555
C69_4 C54_4 1_555 1_555
C70_4 C68_4 1_555 1_555
O40_2 C40_4 1_555 1_555
C71_4 C53_4 1_555 1_555
C72_4 C44_4 1_555 1_555
H33_4 C72_4 1_555 1_555
C73_4 C41_4 1_555 1_555
C74_4 C48_4 1_555 1_555
H34_4 C74_4 1_555 1_555
C75_4 C51_4 1_555 1_555
H35_4 C75_4 1_555 1_555
H36_4 C75_4 1_555 1_555
H37_4 C75_4 1_555 1_555
C76_4 O20_4 1_555 1_555
C77_4 C44_4 1_555 1_555
H40_4 C77_4 1_555 1_555
Cd17 O15_4 1_555 1_555
Cd11 O16_2 1_555 1_555
O29_2 Cd10 1_555 1_555
O35_2 Cd10 1_555 1_555
C42_4 C73_4 1_555 1_555
O21_2 Cd11 1_555 1_555
C47_4 C77_4 1_555 1_555
C51_4 C73_4 1_555 1_555
O23_4 C76_4 1_555 1_555
C56_4 C67_4 1_555 1_555
C59_4 C68_4 1_555 1_555
C62_4 C69_4 1_555 1_555
C63_4 C74_4 1_555 1_555
C64_4 C66_4 1_555 1_555
C71_4 C72_4 1_555 1_555
C71_4 C76_4 1_555 1_555
Cd2_6 O7_4 1_555 1_555
O27_2 C18_4 1_555 1_555
O2_4 C4_4 1_555 1_555
O29_2 C19_4 1_555 1_555
O33 C4_4 1_555 1_555
C1_4 C10_4 1_555 1_555
C2_4 C7_4 1_555 1_555
C3_4 C26_4 1_555 1_555
O7_4 C37_4 1_555 1_555
O35_2 C19_4 1_555 1_555
C4_4 C9_4 1_555 1_555
C5_4 C22_4 1_555 1_555
C6_4 C11_4 1_555 1_555
C7_4 H1_4 1_555 1_555
H2_4 C7_4 1_555 1_555
H3_4 C7_4 1_555 1_555
C8_4 C14_4 1_555 1_555
C9_4 C17_4 1_555 1_555
O37_2 C18_4 1_555 1_555
C10_4 C11_4 1_555 1_555
C11_4 H4_4 1_555 1_555
C12_4 C15_4 1_555 1_555
C13_4 H5_4 1_555 1_555
H6_4 C13_4 1_555 1_555
H7_4 C13_4 1_555 1_555
C14_4 H8_4 1_555 1_555
O10_4 Cd2_6 1_555 1_555
C15_4 C20_4 1_555 1_555
C16_4 H9_4 1_555 1_555
C17_4 H10_4 1_555 1_555
C18_4 C8_4 1_555 1_555
C19_4 C24_4 1_555 1_555
C20_4 C13_4 1_555 1_555
C21_4 C6_4 1_555 1_555
H11_4 C21_4 1_555 1_555
C22_4 C31_4 1_555 1_555
C23_4 C28_4 1_555 1_555
C24_4 C16_4 1_555 1_555
C25_4 C10_4 1_555 1_555
C26_4 C6_4 1_555 1_555
C27_4 C21_4 1_555 1_555
C28_4 C16_4 1_555 1_555
C29_4 C2_4 1_555 1_555
C30_4 C15_4 1_555 1_555
C31_4 C29_4 1_555 1_555
O39_2 C1_4 1_555 1_555
C32_4 C14_4 1_555 1_555
C33_4 C5_4 1_555 1_555
H13_4 C33_4 1_555 1_555
C34_4 C2_4 1_555 1_555
C35_4 C9_4 1_555 1_555
H14_4 C35_4 1_555 1_555
C36_4 C12_4 1_555 1_555
H15_4 C36_4 1_555 1_555
H16_4 C36_4 1_555 1_555
H17_4 C36_4 1_555 1_555
C37_4 O10_4 1_555 1_555
C38_4 C5_4 1_555 1_555
H20_4 C38_4 1_555 1_555
Cd16 O2_4 1_555 1_555
O32 C78_4 1_555 1_555
O19_4 Cd11 1_555 1_555
O25_4 Cd2_6 1_555 1_555
H38_4 O25_4 1_555 1_555
H39_4 O25_4 1_555 1_555
C78_4 O19_4 1_555 1_555
C3_4 C34_4 1_555 1_555
C8_4 C38_4 1_555 1_555
C12_4 C34_4 1_555 1_555
C17_4 C28_4 1_555 1_555
C20_4 C29_4 1_555 1_555
C23_4 C30_4 1_555 1_555
C24_4 C35_4 1_555 1_555
C25_4 C27_4 1_555 1_555
C32_4 C33_4 1_555 1_555
C32_4 C37_4 1_555 1_555

#END
