
###############################################################################
#
# This file contains modified crystal structure data generated from the
# MOF subset of the Cambridge Structural Database (CSD) v543 
# hosted by the Cambridge Crystallographic Data Centre (CCDC).
#
# This work is licensed under the Creative Commons
# Attribution-NonCommercial-ShareAlike 4.0 International License.
# To view a copy of this license, visit
# http://creativecommons.org/licenses/by-nc-sa/4.0/
# or send a letter to
# Creative Commons, PO Box 1866, Mountain View, CA 94042, USA.
#
# CIF created using the CSD Python API on 29 September 2022
# The structure has been converted into the P1 space group
# The structure has a 3D framework
# The original CSD entry TAMHUM is in the rhombohedral crystal system
# The framework has been calculated to contain at least 10.0% void space
# The void calculation uses a probe of radius 1.32A, grid spacing 0.4
# The framework is charged, counterions have been retained in the structure
#
###############################################################################

data_TAMHUM
_chemical_formula_moiety         '(C162 H144 Ag18 Cl18 N72 O72)n'
_symmetry_cell_setting           triclinic
_symmetry_space_group_name_H-M   'P 1'
_symmetry_Int_Tables_number      1
_space_group_name_Hall           'P 1'
loop_
_symmetry_equiv_pos_site_id
_symmetry_equiv_pos_as_xyz
1 x,y,z
_cell_length_a                   27.978(2)
_cell_length_b                   27.978(2)
_cell_length_c                   14.9798(10)
_cell_angle_alpha                90
_cell_angle_beta                 90
_cell_angle_gamma                120
_cell_volume                     10154.8
loop_
_atom_site_label
_atom_site_type_symbol
_atom_site_fract_x
_atom_site_fract_y
_atom_site_fract_z
H4 H 0.0103 0.3911 0.0818
H6 H 0.0048 0.3255 0.9818
Ag1 Ag 0.74308(4) 0.12940(3) 0.42770(5)
N1 N 0.8029(3) 0.2138(3) 0.3746(5)
C1 C 0.8816(4) 0.2640(4) 0.0494(6)
H1 H 0.8474 0.2307 0.0431
C2 C 0.8849(4) 0.3032(4) 0.1089(6)
C3 C 0.8023(4) 0.2282(4) 0.2903(6)
H2 H 0.7762 0.2016 0.2505
N2 N 0.8768(3) 0.3194(4) 0.3102(6)
C4 C 0.8793(5) 0.3053(7) 0.3923(8)
H3 H 0.9071 0.3319 0.4301
N3 N 0.9329(3) 0.3497(4) 0.1237(6)
C5 C 0.8385(4) 0.2806(4) 0.2581(6)
N4 N 0.9238(4) 0.2709(4) 0.0011(6)
C6 C 0.9762(4) 0.3577(5) 0.0748(8)
C7 C 0.8439(5) 0.2541(5) 0.4271(7)
H5 H 0.8477 0.2464 0.4876
C8 C 0.9730(5) 0.3190(5) 0.0144(8)
C9 C 0.8354(5) 0.2950(4) 0.1630(6)
H7 H 0.8013 0.2652 0.1356
H8 H 0.8333 0.3293 0.1610
Ag2 Ag 0.94701(5) 0.40975(4) 0.23897(5)
N5 N 0.6527(4) 0.1093(5) 0.3565(6)
N6 N 0.6830(4) 0.0835(5) 0.5430(6)
N7 N 0.7429(4) 0.0624(4) 0.3322(6)
Ag1_2 Ag 0.87060(3) 0.61368(5) 0.42770(5)
N1_2 N 0.7862(3) 0.5891(4) 0.3746(5)
C1_2 C 0.7360(4) 0.6176(6) 0.0494(6)
H1_2 H 0.7693 0.6167 0.0431
C2_2 C 0.6968(4) 0.5817(6) 0.1089(6)
C3_2 C 0.7718(4) 0.5741(6) 0.2903(6)
H2_2 H 0.7984 0.5746 0.2505
N2_2 N 0.6806(4) 0.5574(5) 0.3102(6)
C4_2 C 0.6947(7) 0.5740(9) 0.3923(8)
H3_2 H 0.6681 0.5752 0.4301
N3_2 N 0.6503(4) 0.5832(5) 0.1237(6)
C5_2 C 0.7194(4) 0.5579(6) 0.2581(6)
N4_2 N 0.7291(4) 0.6529(6) 0.0011(6)
C6_2 C 0.6423(5) 0.6185(6) 0.0748(8)
H4_2 H 0.6089 0.6192 0.0818
C7_2 C 0.7459(5) 0.5898(7) 0.4271(7)
H5_2 H 0.7536 0.6013 0.4876
C8_2 C 0.6810(5) 0.6540(7) 0.0144(8)
C9_2 C 0.7050(4) 0.5404(6) 0.1630(6)
H7_2 H 0.7348 0.5361 0.1356
H8_2 H 0.6707 0.5040 0.1610
Ag2_2 Ag 0.59025(4) 0.53727(6) 0.23897(5)
N5_2 N 0.8907(5) 0.5435(6) 0.3565(6)
N6_2 N 0.9165(5) 0.5996(6) 0.5430(6)
N7_2 N 0.9376(4) 0.6804(6) 0.3322(6)
H6_2 H 0.6745 0.6793 0.9818
Ag3 Ag 0.79607(3) 0.71965(5) 0.90563(5)
Ag1_3 Ag 0.38632(5) 0.25692(4) 0.42770(5)
N1_3 N 0.4109(4) 0.1971(3) 0.3746(5)
C1_3 C 0.3824(6) 0.1184(4) 0.0494(6)
H1_3 H 0.3833 0.1526 0.0431
C2_3 C 0.4183(6) 0.1151(4) 0.1089(6)
C3_3 C 0.4259(6) 0.1977(4) 0.2903(6)
H2_3 H 0.4254 0.2238 0.2505
N2_3 N 0.4426(5) 0.1232(3) 0.3102(6)
C4_3 C 0.4260(9) 0.1207(5) 0.3923(8)
H3_3 H 0.4248 0.0929 0.4301
N3_3 N 0.4168(5) 0.0671(3) 0.1237(6)
C5_3 C 0.4421(6) 0.1615(4) 0.2581(6)
N4_3 N 0.3471(6) 0.0762(4) 0.0011(6)
C6_3 C 0.3815(6) 0.0238(4) 0.0748(8)
C7_3 C 0.4102(7) 0.1561(5) 0.4271(7)
H5_3 H 0.3987 0.1523 0.4876
C8_3 C 0.3460(7) 0.0270(5) 0.0144(8)
C9_3 C 0.4596(6) 0.1646(5) 0.1630(6)
H7_3 H 0.4639 0.1987 0.1356
H8_3 H 0.4960 0.1667 0.1610
Ag2_3 Ag 0.46273(6) 0.05299(5) 0.23897(5)
N5_3 N 0.4565(6) 0.3473(4) 0.3565(6)
N6_3 N 0.4004(6) 0.3170(4) 0.5430(6)
N7_3 N 0.3196(6) 0.2571(4) 0.3322(6)
Ag1_4 Ag 0.40975(4) 0.46273(3) 0.76103(5)
N1_4 N 0.4696(3) 0.5471(3) 0.7079(5)
C1_4 C 0.5483(4) 0.5973(4) 0.3827(6)
H1_4 H 0.5141 0.5640 0.3764
C2_4 C 0.5516(4) 0.6365(4) 0.4422(6)
C3_4 C 0.4690(4) 0.5615(4) 0.6236(6)
H2_4 H 0.4429 0.5349 0.5838
N2_4 N 0.5435(3) 0.6527(4) 0.6435(6)
C4_4 C 0.5460(5) 0.6386(7) 0.7256(8)
H3_4 H 0.5738 0.6652 0.7634
N3_4 N 0.5996(3) 0.6830(4) 0.4570(6)
C5_4 C 0.5052(4) 0.6139(4) 0.5914(6)
N4_4 N 0.5905(4) 0.6042(4) 0.3344(6)
C6_4 C 0.6429(4) 0.6910(5) 0.4081(8)
H4_3 H 0.6770 0.7244 0.4151
C7_4 C 0.5106(5) 0.5874(5) 0.7604(7)
H5_4 H 0.5144 0.5797 0.8209
C8_4 C 0.6397(5) 0.6523(5) 0.3477(8)
H6_3 H 0.6715 0.6588 0.3151
C9_4 C 0.5021(5) 0.6283(4) 0.4963(6)
H7_4 H 0.4680 0.5985 0.4689
H8_4 H 0.5000 0.6626 0.4943
Ag2_4 Ag 0.61368(5) 0.74308(4) 0.57230(5)
N5_4 N 0.3194(4) 0.4426(5) 0.6898(6)
N6_4 N 0.3497(4) 0.4168(5) 0.8763(6)
N7_4 N 0.4095(4) 0.3958(4) 0.6656(6)
H6_4 H 0.3412 0.0126 0.3151
N7_5 N 0.6042(4) 0.0138(6) 0.6656(6)
Ag1_5 Ag 0.53727(3) 0.94701(5) 0.76103(5)
N1_5 N 0.4529(3) 0.9224(4) 0.7079(5)
C1_5 C 0.4027(4) 0.9509(6) 0.3827(6)
H1_5 H 0.4360 0.9500 0.3764
C2_5 C 0.3635(4) 0.9150(6) 0.4422(6)
C3_5 C 0.4385(4) 0.9074(6) 0.6236(6)
H2_5 H 0.4651 0.9079 0.5838
N2_5 N 0.3473(4) 0.8907(5) 0.6435(6)
C4_5 C 0.3614(7) 0.9073(9) 0.7256(8)
H3_5 H 0.3348 0.9085 0.7634
N3_5 N 0.3170(4) 0.9165(5) 0.4570(6)
C5_5 C 0.3861(4) 0.8912(6) 0.5914(6)
N4_5 N 0.3958(4) 0.9862(6) 0.3344(6)
C6_5 C 0.3090(5) 0.9518(6) 0.4081(8)
H4_4 H 0.2756 0.9525 0.4151
C7_5 C 0.4126(5) 0.9231(7) 0.7604(7)
H5_5 H 0.4203 0.9346 0.8209
C8_5 C 0.3477(5) 0.9873(7) 0.3477(8)
C9_5 C 0.3717(4) 0.8737(6) 0.4963(6)
H7_5 H 0.4015 0.8694 0.4689
H8_5 H 0.3374 0.8373 0.4943
Ag2_5 Ag 0.25692(4) 0.87060(6) 0.57230(5)
N5_5 N 0.5574(5) 0.8768(6) 0.6898(6)
N6_5 N 0.5832(5) 0.9329(6) 0.8763(6)
Ag1_6 Ag 0.05299(5) 0.59025(4) 0.76103(5)
N1_6 N 0.0776(4) 0.5304(3) 0.7079(5)
C1_6 C 0.0491(6) 0.4517(4) 0.3827(6)
H1_6 H 0.0500 0.4859 0.3764
C2_6 C 0.0850(6) 0.4484(4) 0.4422(6)
C3_6 C 0.0926(6) 0.5310(4) 0.6236(6)
H2_6 H 0.0921 0.5571 0.5838
N2_6 N 0.1093(5) 0.4565(3) 0.6435(6)
C4_6 C 0.0927(9) 0.4540(5) 0.7256(8)
H3_6 H 0.0915 0.4262 0.7634
N3_6 N 0.0835(5) 0.4004(3) 0.4570(6)
C5_6 C 0.1088(6) 0.4948(4) 0.5914(6)
N4_6 N 0.0138(6) 0.4095(4) 0.3344(6)
C6_6 C 0.0482(6) 0.3571(4) 0.4081(8)
H4_5 H 0.0475 0.3230 0.4151
C7_6 C 0.0769(7) 0.4894(5) 0.7604(7)
H5_6 H 0.0654 0.4856 0.8209
C8_6 C 0.0127(7) 0.3603(5) 0.3477(8)
C9_6 C 0.1263(6) 0.4979(5) 0.4963(6)
H7_6 H 0.1306 0.5320 0.4689
H8_6 H 0.1627 0.5000 0.4943
Ag2_6 Ag 0.12940(6) 0.38632(5) 0.57230(5)
N5_6 N 0.1232(6) 0.6806(4) 0.6898(6)
N6_6 N 0.0671(6) 0.6503(4) 0.8763(6)
H6_5 H 0.9874 0.3285 0.3151
N7_6 N 0.9862(6) 0.5905(4) 0.6656(6)
C1_7 C 0.2149(4) 0.9307(4) 0.7161(6)
H1_7 H 0.1807 0.8974 0.7098
C2_7 C 0.2182(4) 0.9699(4) 0.7756(6)
C3_7 C 0.1356(4) 0.8949(4) 0.9570(6)
H2_7 H 0.1095 0.8683 0.9172
N2_7 N 0.2101(3) 0.9861(4) 0.9769(6)
C5_7 C 0.1718(4) 0.9473(4) 0.9248(6)
N4_7 N 0.2571(4) 0.9376(4) 0.6678(6)
C8_7 C 0.3063(5) 0.9857(5) 0.6811(8)
H6_6 H 0.3381 0.9922 0.6485
C9_7 C 0.1687(5) 0.9617(4) 0.8297(6)
H7_7 H 0.1346 0.9319 0.8023
H8_7 H 0.1666 0.9960 0.8277
N7_7 N 0.0762(4) 0.7291(4) 0.9989(6)
N5_7 N 0.9861(4) 0.7759(5) 0.0231(6)
Ag1_7 Ag 0.20393(3) 0.28035(5) 0.09437(5)
N1_7 N 0.1195(3) 0.2558(4) 0.0413(5)
C4_7 C 0.0280(7) 0.2407(9) 0.0590(8)
H3_7 H 0.0014 0.2419 0.0968
C7_7 C 0.0792(5) 0.2565(7) 0.0938(7)
H5_7 H 0.0869 0.2680 0.1543
N5_8 N 0.2241(5) 0.2101(6) 0.0231(6)
N6_7 N 0.2499(5) 0.2662(6) 0.2096(6)
C1_8 C 0.0693(4) 0.2843(6) 0.7161(6)
H1_8 H 0.1026 0.2834 0.7098
C2_8 C 0.0301(4) 0.2484(6) 0.7756(6)
C3_8 C 0.1051(4) 0.2408(6) 0.9570(6)
H2_8 H 0.1317 0.2413 0.9172
N2_8 N 0.0139(4) 0.2241(5) 0.9769(6)
C5_8 C 0.0527(4) 0.2246(6) 0.9248(6)
N4_8 N 0.0624(4) 0.3196(6) 0.6678(6)
C8_8 C 0.0143(5) 0.3207(7) 0.6811(8)
H6_7 H 0.0078 0.3460 0.6485
C9_8 C 0.0383(4) 0.2071(6) 0.8297(6)
H7_8 H 0.0681 0.2028 0.8023
H8_8 H 0.0040 0.1707 0.8277
N7_8 N 0.2709(4) 0.3471(6) 0.9989(6)
N5_9 N 0.7899(6) 0.0139(4) 0.0231(6)
C1_9 C 0.7157(6) 0.7851(4) 0.7161(6)
H1_9 H 0.7166 0.8193 0.7098
C2_9 C 0.7516(6) 0.7818(4) 0.7756(6)
C3_9 C 0.7592(6) 0.8644(4) 0.9570(6)
H2_9 H 0.7587 0.8905 0.9172
N2_9 N 0.7759(5) 0.7899(3) 0.9769(6)
N3_7 N 0.7501(5) 0.7338(3) 0.7904(6)
C5_9 C 0.7754(6) 0.8282(4) 0.9248(6)
N4_9 N 0.6804(6) 0.7429(4) 0.6678(6)
C6_7 C 0.7148(6) 0.6905(4) 0.7415(8)
H4_6 H 0.7141 0.6564 0.7485
C8_9 C 0.6793(7) 0.6937(5) 0.6811(8)
H6_8 H 0.6540 0.6619 0.6485
C9_9 C 0.7929(6) 0.8313(5) 0.8297(6)
H7_9 H 0.7972 0.8654 0.8023
H8_9 H 0.8293 0.8334 0.8277
N7_9 N 0.6529(6) 0.9238(4) 0.9989(6)
N1_8 N 0.1971(3) 0.7862(3) 0.6254(5)
C1_10 C 0.1184(4) 0.7360(4) 0.9506(6)
H1_10 H 0.1526 0.7693 0.9569
C2_10 C 0.1151(4) 0.6968(4) 0.8911(6)
C3_10 C 0.1977(4) 0.7718(4) 0.7097(6)
H2_10 H 0.2238 0.7984 0.7495
C4_8 C 0.1207(5) 0.6947(7) 0.6077(8)
H3_8 H 0.0929 0.6681 0.5699
C5_10 C 0.1615(4) 0.7194(4) 0.7419(6)
C6_8 C 0.0238(4) 0.6423(5) 0.9252(8)
C7_8 C 0.1561(5) 0.7459(5) 0.5729(7)
H5_8 H 0.1523 0.7536 0.5124
C8_10 C 0.0270(5) 0.6810(5) 0.9856(8)
C9_10 C 0.1646(5) 0.7050(4) 0.8370(6)
H7_10 H 0.1987 0.7348 0.8644
H8_10 H 0.1667 0.6707 0.8390
H6_9 H 0.3255 0.3207 0.0182
N1_9 N 0.2138(3) 0.4109(4) 0.6254(5)
C1_11 C 0.2640(4) 0.3824(6) 0.9506(6)
H1_11 H 0.2307 0.3833 0.9569
C2_11 C 0.3032(4) 0.4183(6) 0.8911(6)
C3_11 C 0.2282(4) 0.4259(6) 0.7097(6)
H2_11 H 0.2016 0.4254 0.7495
C4_9 C 0.3053(7) 0.4260(9) 0.6077(8)
H3_9 H 0.3319 0.4248 0.5699
C5_11 C 0.2806(4) 0.4421(6) 0.7419(6)
C6_9 C 0.3577(5) 0.3815(6) 0.9252(8)
H4_7 H 0.3911 0.3808 0.9182
C7_9 C 0.2541(5) 0.4102(7) 0.5729(7)
H5_9 H 0.2464 0.3987 0.5124
C8_11 C 0.3190(5) 0.3460(7) 0.9856(8)
C9_11 C 0.2950(4) 0.4596(6) 0.8370(6)
H7_11 H 0.2652 0.4639 0.8644
H8_11 H 0.3293 0.4960 0.8390
N1_10 N 0.5891(4) 0.8029(3) 0.6254(5)
C1_12 C 0.6176(6) 0.8816(4) 0.9506(6)
H1_12 H 0.6167 0.8474 0.9569
C2_12 C 0.5817(6) 0.8849(4) 0.8911(6)
C3_12 C 0.5741(6) 0.8023(4) 0.7097(6)
H2_12 H 0.5746 0.7762 0.7495
C4_10 C 0.5740(9) 0.8793(5) 0.6077(8)
H3_10 H 0.5752 0.9071 0.5699
C5_12 C 0.5579(6) 0.8385(4) 0.7419(6)
C6_10 C 0.6185(6) 0.9762(4) 0.9252(8)
C7_10 C 0.5898(7) 0.8439(5) 0.5729(7)
H5_10 H 0.6013 0.8477 0.5124
C8_12 C 0.6540(7) 0.9730(5) 0.9856(8)
C9_12 C 0.5404(6) 0.8354(5) 0.8370(6)
H7_12 H 0.5361 0.8013 0.8644
H8_12 H 0.5040 0.8333 0.8390
N1_11 N 0.5304(3) 0.4529(3) 0.2921(5)
C1_13 C 0.4517(4) 0.4027(4) 0.6173(6)
H1_13 H 0.4859 0.4360 0.6236
C2_13 C 0.4484(4) 0.3635(4) 0.5578(6)
C3_13 C 0.5310(4) 0.4385(4) 0.3764(6)
H2_13 H 0.5571 0.4651 0.4162
C4_11 C 0.4540(5) 0.3614(7) 0.2744(8)
H3_11 H 0.4262 0.3348 0.2366
C5_13 C 0.4948(4) 0.3861(4) 0.4086(6)
C6_11 C 0.3571(4) 0.3090(5) 0.5919(8)
H4_8 H 0.3230 0.2756 0.5849
C7_11 C 0.4894(5) 0.4126(5) 0.2396(7)
H5_11 H 0.4856 0.4203 0.1791
C8_13 C 0.3603(5) 0.3477(5) 0.6523(8)
H6_10 H 0.3285 0.3412 0.6849
C9_13 C 0.4979(5) 0.3717(4) 0.5037(6)
H7_13 H 0.5320 0.4015 0.5311
H8_13 H 0.5000 0.3374 0.5057
N1_12 N 0.5471(3) 0.0776(4) 0.2921(5)
C1_14 C 0.5973(4) 0.0491(6) 0.6173(6)
H1_14 H 0.5640 0.0500 0.6236
C2_14 C 0.6365(4) 0.0850(6) 0.5578(6)
C3_14 C 0.5615(4) 0.0926(6) 0.3764(6)
H2_14 H 0.5349 0.0921 0.4162
C4_12 C 0.6386(7) 0.0927(9) 0.2744(8)
H3_12 H 0.6652 0.0915 0.2366
C5_14 C 0.6139(4) 0.1088(6) 0.4086(6)
C6_12 C 0.6910(5) 0.0482(6) 0.5919(8)
H4_9 H 0.7244 0.0475 0.5849
C7_12 C 0.5874(5) 0.0769(7) 0.2396(7)
H5_12 H 0.5797 0.0654 0.1791
C8_14 C 0.6523(5) 0.0127(7) 0.6523(8)
C9_14 C 0.6283(4) 0.1263(6) 0.5037(6)
H7_14 H 0.5985 0.1306 0.5311
H8_14 H 0.6626 0.1627 0.5057
H6_11 H 0.6588 0.9874 0.6849
H6_12 H 0.0126 0.6715 0.6849
N1_13 N 0.9224(4) 0.4696(3) 0.2921(5)
C1_15 C 0.9509(6) 0.5483(4) 0.6173(6)
H1_15 H 0.9500 0.5141 0.6236
C2_15 C 0.9150(6) 0.5516(4) 0.5578(6)
C3_15 C 0.9074(6) 0.4690(4) 0.3764(6)
H2_15 H 0.9079 0.4429 0.4162
C4_13 C 0.9073(9) 0.5460(5) 0.2744(8)
H3_13 H 0.9085 0.5738 0.2366
C5_15 C 0.8912(6) 0.5052(4) 0.4086(6)
C6_13 C 0.9518(6) 0.6429(4) 0.5919(8)
H4_10 H 0.9525 0.6770 0.5849
C7_13 C 0.9231(7) 0.5106(5) 0.2396(7)
H5_13 H 0.9346 0.5144 0.1791
C8_15 C 0.9873(7) 0.6397(5) 0.6523(8)
C9_15 C 0.8737(6) 0.5021(5) 0.5037(6)
H7_15 H 0.8694 0.4680 0.5311
H8_15 H 0.8373 0.5000 0.5057
C1_16 C 0.7851(4) 0.0693(4) 0.2839(6)
H1_16 H 0.8193 0.1026 0.2902
C2_16 C 0.7818(4) 0.0301(4) 0.2244(6)
C3_16 C 0.8644(4) 0.1051(4) 0.0430(6)
H2_16 H 0.8905 0.1317 0.0828
C5_16 C 0.8282(4) 0.0527(4) 0.0752(6)
C8_16 C 0.6937(5) 0.0143(5) 0.3189(8)
H6_13 H 0.6619 0.0078 0.3515
C9_16 C 0.8313(5) 0.0383(4) 0.1703(6)
H7_16 H 0.8654 0.0681 0.1977
H8_16 H 0.8334 0.0040 0.1723
C1_17 C 0.9307(4) 0.7157(6) 0.2839(6)
H1_17 H 0.8974 0.7166 0.2902
C2_17 C 0.9699(4) 0.7516(6) 0.2244(6)
C3_17 C 0.8949(4) 0.7592(6) 0.0430(6)
H2_17 H 0.8683 0.7587 0.0828
C5_17 C 0.9473(4) 0.7754(6) 0.0752(6)
C8_17 C 0.9857(5) 0.6793(7) 0.3189(8)
H6_14 H 0.9922 0.6540 0.3515
C9_17 C 0.9617(4) 0.7929(6) 0.1703(6)
H7_17 H 0.9319 0.7972 0.1977
H8_17 H 0.9960 0.8293 0.1723
N1_14 N 0.8805(3) 0.7442(4) 0.9587(5)
C4_14 C 0.9720(7) 0.7593(9) 0.9410(8)
H3_14 H 0.9986 0.7581 0.9032
C7_14 C 0.9208(5) 0.7435(7) 0.9062(7)
H5_14 H 0.9131 0.7320 0.8457
C1_18 C 0.2843(6) 0.2149(4) 0.2839(6)
H1_18 H 0.2834 0.1807 0.2902
C2_18 C 0.2484(6) 0.2182(4) 0.2244(6)
C3_18 C 0.2408(6) 0.1356(4) 0.0430(6)
H2_18 H 0.2413 0.1095 0.0828
C5_18 C 0.2246(6) 0.1718(4) 0.0752(6)
C6_14 C 0.2852(6) 0.3095(4) 0.2585(8)
H4_11 H 0.2859 0.3436 0.2515
C8_18 C 0.3207(7) 0.3063(5) 0.3189(8)
H6_15 H 0.3460 0.3381 0.3515
C9_18 C 0.2071(6) 0.1687(5) 0.1703(6)
H7_18 H 0.2028 0.1346 0.1977
H8_18 H 0.1707 0.1666 0.1723
Ag3_2 Ag 0.92359(4) 0.20393(3) 0.90563(5)
N3_8 N 0.9836(4) 0.2499(5) 0.7904(6)
C6_15 C 0.9756(5) 0.2852(6) 0.7415(8)
H4_12 H 0.9422 0.2859 0.7485
N1_15 N 0.8638(3) 0.1195(3) 0.9587(5)
C4_15 C 0.7874(5) 0.0280(7) 0.9410(8)
H3_15 H 0.7596 0.0014 0.9032
C7_15 C 0.8228(5) 0.0792(5) 0.9062(7)
H5_15 H 0.8190 0.0869 0.8457
Ag3_3 Ag 0.28035(5) 0.07641(4) 0.90563(5)
N3_9 N 0.2662(3) 0.0164(4) 0.7904(6)
C6_16 C 0.3095(4) 0.0244(5) 0.7415(8)
H4_13 H 0.3436 0.0578 0.7485
N1_16 N 0.2558(4) 0.1362(3) 0.9587(5)
C4_16 C 0.2407(9) 0.2126(5) 0.9410(8)
H3_16 H 0.2419 0.2404 0.9032
C7_16 C 0.2565(7) 0.1772(5) 0.9062(7)
H5_16 H 0.2680 0.1810 0.8457
H4_14 H 0.3808 0.9897 0.0818
H6_16 H 0.3207 0.9952 0.9818
Ag1_8 Ag 0.07641(4) 0.79607(3) 0.09437(5)
N1_17 N 0.1362(3) 0.8805(3) 0.0413(5)
C4_17 C 0.2126(5) 0.9720(7) 0.0590(8)
H3_17 H 0.2404 0.9986 0.0968
C7_17 C 0.1772(5) 0.9208(5) 0.0938(7)
H5_17 H 0.1810 0.9131 0.1543
N6_8 N 0.0164(4) 0.7501(5) 0.2096(6)
C6_17 C 0.0244(5) 0.7148(6) 0.2585(8)
H4_15 H 0.0578 0.7141 0.2515
Ag1_9 Ag 0.71965(5) 0.92359(4) 0.09437(5)
N1_18 N 0.7442(4) 0.8638(3) 0.0413(5)
C4_18 C 0.7593(9) 0.7874(5) 0.0590(8)
H3_18 H 0.7581 0.7596 0.0968
C7_18 C 0.7435(7) 0.8228(5) 0.0938(7)
H5_18 H 0.7320 0.8190 0.1543
N6_9 N 0.7338(6) 0.9836(4) 0.2096(6)
C6_18 C 0.6905(4) 0.9756(5) 0.2585(8)
H4_16 H 0.6564 0.9422 0.2515
H6_17 H 0.9952 0.6745 0.0182
H4_17 H 0.9897 0.6089 0.9182
H6_18 H 0.6793 0.0048 0.0182
H4_18 H 0.6192 0.0103 0.9182
Cl1 Cl 0.45921(12) 0.07063(13) 0.61106(19)
O1 O 0.5043(5) 0.1102(6) 0.5669(9)
O2 O 0.4310(8) 0.0324(6) 0.5470(9)
O3 O 0.4299(5) 0.0928(6) 0.6408(12)
O4 O 0.4695(8) 0.0440(7) 0.6748(10)
Cl1_2 Cl 0.92937(13) 0.38858(18) 0.61106(19)
O1_2 O 0.8898(6) 0.3941(8) 0.5669(9)
O2_2 O 0.9676(6) 0.3986(10) 0.5470(9)
O3_2 O 0.9072(6) 0.3371(8) 0.6408(12)
O4_2 O 0.9560(7) 0.4255(11) 0.6748(10)
Cl1_3 Cl 0.61142(18) 0.54079(12) 0.61106(19)
O1_3 O 0.6059(8) 0.4957(5) 0.5669(9)
O2_3 O 0.6014(10) 0.5690(8) 0.5470(9)
O3_3 O 0.6629(8) 0.5701(5) 0.6408(12)
O4_3 O 0.5745(11) 0.5305(8) 0.6748(10)
O4_4 O 0.1362(8) 0.3773(7) 0.0081(10)
Cl1_4 Cl 0.12588(12) 0.40396(13) 0.94439(19)
O1_4 O 0.1710(5) 0.4435(6) 0.9002(9)
O2_4 O 0.0977(8) 0.3657(6) 0.8803(9)
O3_4 O 0.0966(5) 0.4261(6) 0.9741(12)
O4_5 O 0.6227(7) 0.7588(11) 0.0081(10)
Cl1_5 Cl 0.59604(13) 0.72191(18) 0.94439(19)
O1_5 O 0.5565(6) 0.7274(8) 0.9002(9)
O2_5 O 0.6343(6) 0.7319(10) 0.8803(9)
O3_5 O 0.5739(6) 0.6704(8) 0.9741(12)
O4_6 O 0.2412(11) 0.8638(8) 0.0081(10)
Cl1_6 Cl 0.27809(18) 0.87412(12) 0.94439(19)
O1_6 O 0.2726(8) 0.8290(5) 0.9002(9)
O2_6 O 0.2681(10) 0.9023(8) 0.8803(9)
O3_6 O 0.3296(8) 0.9034(5) 0.9741(12)
Cl1_7 Cl 0.79254(12) 0.73730(13) 0.27773(19)
O1_7 O 0.8376(5) 0.7769(6) 0.2336(9)
O2_7 O 0.7643(8) 0.6991(6) 0.2137(9)
O3_7 O 0.7632(5) 0.7595(6) 0.3075(12)
O4_7 O 0.8028(8) 0.7107(7) 0.3415(10)
Cl1_8 Cl 0.26270(13) 0.05525(18) 0.27773(19)
O1_8 O 0.2231(6) 0.0608(8) 0.2336(9)
O2_8 O 0.3009(6) 0.0653(10) 0.2137(9)
O3_8 O 0.2405(6) 0.0038(8) 0.3075(12)
O4_8 O 0.2893(7) 0.0922(11) 0.3415(10)
Cl1_9 Cl 0.94475(18) 0.20746(12) 0.27773(19)
O1_9 O 0.9392(8) 0.1624(5) 0.2336(9)
O2_9 O 0.9347(10) 0.2357(8) 0.2137(9)
O3_9 O 0.9962(8) 0.2368(5) 0.3075(12)
O4_9 O 0.9078(11) 0.1972(8) 0.3415(10)
Cl1_10 Cl 0.54079(12) 0.92937(13) 0.38894(19)
O1_10 O 0.4957(5) 0.8898(6) 0.4331(9)
O2_10 O 0.5690(8) 0.9676(6) 0.4530(9)
O3_10 O 0.5701(5) 0.9072(6) 0.3592(12)
O4_10 O 0.5305(8) 0.9560(7) 0.3252(10)
Cl1_11 Cl 0.07063(13) 0.61142(18) 0.38894(19)
O1_11 O 0.1102(6) 0.6059(8) 0.4331(9)
O2_11 O 0.0324(6) 0.6014(10) 0.4530(9)
O3_11 O 0.0928(6) 0.6629(8) 0.3592(12)
O4_11 O 0.0440(7) 0.5745(11) 0.3252(10)
Cl1_12 Cl 0.38858(18) 0.45921(12) 0.38894(19)
O1_12 O 0.3941(8) 0.5043(5) 0.4331(9)
O2_12 O 0.3986(10) 0.4310(8) 0.4530(9)
O3_12 O 0.3371(8) 0.4299(5) 0.3592(12)
O4_12 O 0.4255(11) 0.4695(8) 0.3252(10)
Cl1_13 Cl 0.87412(12) 0.59604(13) 0.05561(19)
O1_13 O 0.8290(5) 0.5565(6) 0.0998(9)
O2_13 O 0.9023(8) 0.6343(6) 0.1197(9)
O3_13 O 0.9034(5) 0.5739(6) 0.0259(12)
O4_13 O 0.8638(8) 0.6227(7) 0.9919(10)
Cl1_14 Cl 0.40396(13) 0.27809(18) 0.05561(19)
O1_14 O 0.4435(6) 0.2726(8) 0.0998(9)
O2_14 O 0.3657(6) 0.2681(10) 0.1197(9)
O3_14 O 0.4261(6) 0.3296(8) 0.0259(12)
O4_14 O 0.3773(7) 0.2412(11) 0.9919(10)
Cl1_15 Cl 0.72191(18) 0.12588(12) 0.05561(19)
O1_15 O 0.7274(8) 0.1710(5) 0.0998(9)
O2_15 O 0.7319(10) 0.0977(8) 0.1197(9)
O3_15 O 0.6704(8) 0.0966(5) 0.0259(12)
O4_15 O 0.7588(11) 0.1362(8) 0.9919(10)
Cl1_16 Cl 0.20746(12) 0.26270(13) 0.72227(19)
O1_16 O 0.1624(5) 0.2231(6) 0.7664(9)
O2_16 O 0.2357(8) 0.3009(6) 0.7863(9)
O3_16 O 0.2368(5) 0.2405(6) 0.6925(12)
O4_16 O 0.1972(8) 0.2893(7) 0.6585(10)
Cl1_17 Cl 0.73730(13) 0.94475(18) 0.72227(19)
O1_17 O 0.7769(6) 0.9392(8) 0.7664(9)
O2_17 O 0.6991(6) 0.9347(10) 0.7863(9)
O3_17 O 0.7595(6) 0.9962(8) 0.6925(12)
O4_17 O 0.7107(7) 0.9078(11) 0.6585(10)
Cl1_18 Cl 0.05525(18) 0.79254(12) 0.72227(19)
O1_18 O 0.0608(8) 0.8376(5) 0.7664(9)
O2_18 O 0.0653(10) 0.7643(8) 0.7863(9)
O3_18 O 0.0038(8) 0.7632(5) 0.6925(12)
O4_18 O 0.0922(11) 0.8028(8) 0.6585(10)
loop_
_geom_bond_atom_site_label_1
_geom_bond_atom_site_label_2
_geom_bond_site_symmetry_1
_geom_bond_site_symmetry_2
Ag1 N1 1_555 1_555
N1 C3 1_555 1_555
C1 H1 1_555 1_555
C2 C1 1_555 1_555
C3 H2 1_555 1_555
N2 C4 1_555 1_555
C4 H3 1_555 1_555
N3 C2 1_555 1_555
C5 C3 1_555 1_555
N4 C1 1_555 1_555
C6 N3 1_555 1_555
C7 N1 1_555 1_555
H5 C7 1_555 1_555
C8 N4 1_555 1_555
C9 C2 1_555 1_555
H7 C9 1_555 1_555
H8 C9 1_555 1_555
Ag2 N2 1_555 1_555
N5 Ag1 1_555 1_555
N6 Ag1 1_555 1_555
N7 Ag1 1_555 1_555
N2 C5 1_555 1_555
C4 C7 1_555 1_555
N3 Ag2 1_555 1_555
C5 C9 1_555 1_555
C6 C8 1_555 1_555
Ag1_2 N1_2 1_555 1_555
N1_2 C3_2 1_555 1_555
C1_2 H1_2 1_555 1_555
C2_2 C1_2 1_555 1_555
C3_2 H2_2 1_555 1_555
N2_2 C4_2 1_555 1_555
C4_2 H3_2 1_555 1_555
N3_2 C2_2 1_555 1_555
C5_2 C3_2 1_555 1_555
N4_2 C1_2 1_555 1_555
C6_2 N3_2 1_555 1_555
H4_2 C6_2 1_555 1_555
C7_2 N1_2 1_555 1_555
H5_2 C7_2 1_555 1_555
C8_2 N4_2 1_555 1_555
C9_2 C2_2 1_555 1_555
H7_2 C9_2 1_555 1_555
H8_2 C9_2 1_555 1_555
Ag2_2 N2_2 1_555 1_555
N5_2 Ag1_2 1_555 1_555
N6_2 Ag1_2 1_555 1_555
N7_2 Ag1_2 1_555 1_555
N2_2 C5_2 1_555 1_555
C4_2 C7_2 1_555 1_555
N3_2 Ag2_2 1_555 1_555
C5_2 C9_2 1_555 1_555
C6_2 C8_2 1_555 1_555
Ag1_3 N1_3 1_555 1_555
N1_3 C3_3 1_555 1_555
C1_3 H1_3 1_555 1_555
C2_3 C1_3 1_555 1_555
C3_3 H2_3 1_555 1_555
N2_3 C4_3 1_555 1_555
C4_3 H3_3 1_555 1_555
N3_3 C2_3 1_555 1_555
C5_3 C3_3 1_555 1_555
N4_3 C1_3 1_555 1_555
C6_3 N3_3 1_555 1_555
C7_3 N1_3 1_555 1_555
H5_3 C7_3 1_555 1_555
C8_3 N4_3 1_555 1_555
C9_3 C2_3 1_555 1_555
H7_3 C9_3 1_555 1_555
H8_3 C9_3 1_555 1_555
Ag2_3 N2_3 1_555 1_555
N5_3 Ag1_3 1_555 1_555
N6_3 Ag1_3 1_555 1_555
N7_3 Ag1_3 1_555 1_555
N2_3 C5_3 1_555 1_555
C4_3 C7_3 1_555 1_555
N3_3 Ag2_3 1_555 1_555
C5_3 C9_3 1_555 1_555
C6_3 C8_3 1_555 1_555
Ag1_4 N1_4 1_555 1_555
N1_4 C3_4 1_555 1_555
C1_4 H1_4 1_555 1_555
C2_4 C1_4 1_555 1_555
C3_4 H2_4 1_555 1_555
N2_4 C4_4 1_555 1_555
C4_4 H3_4 1_555 1_555
N3_4 C2_4 1_555 1_555
C5_4 C3_4 1_555 1_555
N4_4 C1_4 1_555 1_555
C6_4 N3_4 1_555 1_555
H4_3 C6_4 1_555 1_555
C7_4 N1_4 1_555 1_555
H5_4 C7_4 1_555 1_555
C8_4 N4_4 1_555 1_555
H6_3 C8_4 1_555 1_555
C9_4 C2_4 1_555 1_555
H7_4 C9_4 1_555 1_555
H8_4 C9_4 1_555 1_555
Ag2_4 N2_4 1_555 1_555
Ag2_2 N4_4 1_555 1_555
N5_4 Ag1_4 1_555 1_555
N6_4 Ag1_4 1_555 1_555
N7_4 Ag1_4 1_555 1_555
N2_4 C5_4 1_555 1_555
C4_4 C7_4 1_555 1_555
N3_4 Ag2_4 1_555 1_555
C5_4 C9_4 1_555 1_555
C6_4 C8_4 1_555 1_555
Ag1_5 N1_5 1_555 1_555
N1_5 C3_5 1_555 1_555
C1_5 H1_5 1_555 1_555
C2_5 C1_5 1_555 1_555
C3_5 H2_5 1_555 1_555
N2_5 C4_5 1_555 1_555
C4_5 H3_5 1_555 1_555
N3_5 C2_5 1_555 1_555
C5_5 C3_5 1_555 1_555
N4_5 C1_5 1_555 1_555
C6_5 N3_5 1_555 1_555
H4_4 C6_5 1_555 1_555
C7_5 N1_5 1_555 1_555
H5_5 C7_5 1_555 1_555
C8_5 N4_5 1_555 1_555
C9_5 C2_5 1_555 1_555
H7_5 C9_5 1_555 1_555
H8_5 C9_5 1_555 1_555
Ag2_5 N2_5 1_555 1_555
N5_5 Ag1_5 1_555 1_555
N6_5 Ag1_5 1_555 1_555
N2_5 C5_5 1_555 1_555
C4_5 C7_5 1_555 1_555
N3_5 Ag2_5 1_555 1_555
C5_5 C9_5 1_555 1_555
C6_5 C8_5 1_555 1_555
Ag1_6 N1_6 1_555 1_555
N1_6 C3_6 1_555 1_555
C1_6 H1_6 1_555 1_555
C2_6 C1_6 1_555 1_555
C3_6 H2_6 1_555 1_555
N2_6 C4_6 1_555 1_555
C4_6 H3_6 1_555 1_555
N3_6 C2_6 1_555 1_555
C5_6 C3_6 1_555 1_555
N4_6 C1_6 1_555 1_555
C6_6 N3_6 1_555 1_555
H4_5 C6_6 1_555 1_555
C7_6 N1_6 1_555 1_555
H5_6 C7_6 1_555 1_555
C8_6 N4_6 1_555 1_555
C9_6 C2_6 1_555 1_555
H7_6 C9_6 1_555 1_555
H8_6 C9_6 1_555 1_555
Ag2_6 N2_6 1_555 1_555
N5_6 Ag1_6 1_555 1_555
N6_6 Ag1_6 1_555 1_555
N2_6 C5_6 1_555 1_555
C4_6 C7_6 1_555 1_555
N3_6 Ag2_6 1_555 1_555
C5_6 C9_6 1_555 1_555
C6_6 C8_6 1_555 1_555
C1_7 H1_7 1_555 1_555
C2_7 C1_7 1_555 1_555
C3_7 H2_7 1_555 1_555
C5_7 C3_7 1_555 1_555
N4_7 C1_7 1_555 1_555
C8_7 N4_7 1_555 1_555
H6_6 C8_7 1_555 1_555
C9_7 C2_7 1_555 1_555
H7_7 C9_7 1_555 1_555
H8_7 C9_7 1_555 1_555
Ag2_5 N4_7 1_555 1_555
N2_7 C5_7 1_555 1_555
C5_7 C9_7 1_555 1_555
Ag1_7 N1_7 1_555 1_555
C4_7 H3_7 1_555 1_555
C7_7 N1_7 1_555 1_555
H5_7 C7_7 1_555 1_555
N5_8 Ag1_7 1_555 1_555
N6_7 Ag1_7 1_555 1_555
C4_7 C7_7 1_555 1_555
C1_8 H1_8 1_555 1_555
C2_8 C1_8 1_555 1_555
C3_8 H2_8 1_555 1_555
C5_8 C3_8 1_555 1_555
N4_8 C1_8 1_555 1_555
C8_8 N4_8 1_555 1_555
H6_7 C8_8 1_555 1_555
C9_8 C2_8 1_555 1_555
H7_8 C9_8 1_555 1_555
H8_8 C9_8 1_555 1_555
Ag2_6 N4_8 1_555 1_555
N2_8 C5_8 1_555 1_555
C5_8 C9_8 1_555 1_555
C1_9 H1_9 1_555 1_555
C2_9 C1_9 1_555 1_555
C3_9 H2_9 1_555 1_555
N3_7 C2_9 1_555 1_555
C5_9 C3_9 1_555 1_555
N4_9 C1_9 1_555 1_555
C6_7 N3_7 1_555 1_555
H4_6 C6_7 1_555 1_555
C8_9 N4_9 1_555 1_555
H6_8 C8_9 1_555 1_555
C9_9 C2_9 1_555 1_555
H7_9 C9_9 1_555 1_555
H8_9 C9_9 1_555 1_555
Ag3 N2_9 1_555 1_555
Ag2_4 N4_9 1_555 1_555
N2_9 C5_9 1_555 1_555
N3_7 Ag3 1_555 1_555
C5_9 C9_9 1_555 1_555
C6_7 C8_9 1_555 1_555
Ag2_5 N1_8 1_555 1_555
N1_8 C3_10 1_555 1_555
C1_10 H1_10 1_555 1_555
C2_10 C1_10 1_555 1_555
C3_10 H2_10 1_555 1_555
N5_6 C4_8 1_555 1_555
C4_8 H3_8 1_555 1_555
N6_6 C2_10 1_555 1_555
C5_10 C3_10 1_555 1_555
N7_7 C1_10 1_555 1_555
C6_8 N6_6 1_555 1_555
C7_8 N1_8 1_555 1_555
H5_8 C7_8 1_555 1_555
C8_10 N7_7 1_555 1_555
C9_10 C2_10 1_555 1_555
H7_10 C9_10 1_555 1_555
H8_10 C9_10 1_555 1_555
N5_6 C5_10 1_555 1_555
C4_8 C7_8 1_555 1_555
C5_10 C9_10 1_555 1_555
C6_8 C8_10 1_555 1_555
Ag2_6 N1_9 1_555 1_555
N1_9 C3_11 1_555 1_555
C1_11 H1_11 1_555 1_555
C2_11 C1_11 1_555 1_555
C3_11 H2_11 1_555 1_555
N5_4 C4_9 1_555 1_555
C4_9 H3_9 1_555 1_555
N6_4 C2_11 1_555 1_555
C5_11 C3_11 1_555 1_555
N7_8 C1_11 1_555 1_555
C6_9 N6_4 1_555 1_555
H4_7 C6_9 1_555 1_555
C7_9 N1_9 1_555 1_555
H5_9 C7_9 1_555 1_555
C8_11 N7_8 1_555 1_555
C9_11 C2_11 1_555 1_555
H7_11 C9_11 1_555 1_555
H8_11 C9_11 1_555 1_555
N5_4 C5_11 1_555 1_555
C4_9 C7_9 1_555 1_555
C5_11 C9_11 1_555 1_555
C6_9 C8_11 1_555 1_555
Ag2_4 N1_10 1_555 1_555
N1_10 C3_12 1_555 1_555
C1_12 H1_12 1_555 1_555
C2_12 C1_12 1_555 1_555
C3_12 H2_12 1_555 1_555
N5_5 C4_10 1_555 1_555
C4_10 H3_10 1_555 1_555
N6_5 C2_12 1_555 1_555
C5_12 C3_12 1_555 1_555
N7_9 C1_12 1_555 1_555
C6_10 N6_5 1_555 1_555
C7_10 N1_10 1_555 1_555
H5_10 C7_10 1_555 1_555
C8_12 N7_9 1_555 1_555
C9_12 C2_12 1_555 1_555
H7_12 C9_12 1_555 1_555
H8_12 C9_12 1_555 1_555
N5_5 C5_12 1_555 1_555
C4_10 C7_10 1_555 1_555
C5_12 C9_12 1_555 1_555
C6_10 C8_12 1_555 1_555
Ag2_2 N1_11 1_555 1_555
N1_11 C3_13 1_555 1_555
C1_13 H1_13 1_555 1_555
C2_13 C1_13 1_555 1_555
C3_13 H2_13 1_555 1_555
N5_3 C4_11 1_555 1_555
C4_11 H3_11 1_555 1_555
N6_3 C2_13 1_555 1_555
C5_13 C3_13 1_555 1_555
N7_4 C1_13 1_555 1_555
C6_11 N6_3 1_555 1_555
H4_8 C6_11 1_555 1_555
C7_11 N1_11 1_555 1_555
H5_11 C7_11 1_555 1_555
C8_13 N7_4 1_555 1_555
H6_10 C8_13 1_555 1_555
C9_13 C2_13 1_555 1_555
H7_13 C9_13 1_555 1_555
H8_13 C9_13 1_555 1_555
N5_3 C5_13 1_555 1_555
C4_11 C7_11 1_555 1_555
C5_13 C9_13 1_555 1_555
C6_11 C8_13 1_555 1_555
Ag2_3 N1_12 1_555 1_555
N1_12 C3_14 1_555 1_555
C1_14 H1_14 1_555 1_555
C2_14 C1_14 1_555 1_555
C3_14 H2_14 1_555 1_555
N5 C4_12 1_555 1_555
C4_12 H3_12 1_555 1_555
N6 C2_14 1_555 1_555
C5_14 C3_14 1_555 1_555
N7_5 C1_14 1_555 1_555
C6_12 N6 1_555 1_555
H4_9 C6_12 1_555 1_555
C7_12 N1_12 1_555 1_555
H5_12 C7_12 1_555 1_555
C8_14 N7_5 1_555 1_555
C9_14 C2_14 1_555 1_555
H7_14 C9_14 1_555 1_555
H8_14 C9_14 1_555 1_555
N5 C5_14 1_555 1_555
C4_12 C7_12 1_555 1_555
C5_14 C9_14 1_555 1_555
C6_12 C8_14 1_555 1_555
Ag2 N1_13 1_555 1_555
N1_13 C3_15 1_555 1_555
C1_15 H1_15 1_555 1_555
C2_15 C1_15 1_555 1_555
C3_15 H2_15 1_555 1_555
N5_2 C4_13 1_555 1_555
C4_13 H3_13 1_555 1_555
N6_2 C2_15 1_555 1_555
C5_15 C3_15 1_555 1_555
N7_6 C1_15 1_555 1_555
C6_13 N6_2 1_555 1_555
H4_10 C6_13 1_555 1_555
C7_13 N1_13 1_555 1_555
H5_13 C7_13 1_555 1_555
C8_15 N7_6 1_555 1_555
C9_15 C2_15 1_555 1_555
H7_15 C9_15 1_555 1_555
H8_15 C9_15 1_555 1_555
N5_2 C5_15 1_555 1_555
C4_13 C7_13 1_555 1_555
C5_15 C9_15 1_555 1_555
C6_13 C8_15 1_555 1_555
C1_16 H1_16 1_555 1_555
C2_16 C1_16 1_555 1_555
C3_16 H2_16 1_555 1_555
C5_16 C3_16 1_555 1_555
N7 C1_16 1_555 1_555
C8_16 N7 1_555 1_555
H6_13 C8_16 1_555 1_555
C9_16 C2_16 1_555 1_555
H7_16 C9_16 1_555 1_555
H8_16 C9_16 1_555 1_555
N5_9 C5_16 1_555 1_555
C5_16 C9_16 1_555 1_555
C1_17 H1_17 1_555 1_555
C2_17 C1_17 1_555 1_555
C3_17 H2_17 1_555 1_555
C5_17 C3_17 1_555 1_555
N7_2 C1_17 1_555 1_555
C8_17 N7_2 1_555 1_555
H6_14 C8_17 1_555 1_555
C9_17 C2_17 1_555 1_555
H7_17 C9_17 1_555 1_555
H8_17 C9_17 1_555 1_555
N5_7 C5_17 1_555 1_555
C5_17 C9_17 1_555 1_555
Ag3 N1_14 1_555 1_555
C4_14 H3_14 1_555 1_555
C7_14 N1_14 1_555 1_555
H5_14 C7_14 1_555 1_555
C4_14 C7_14 1_555 1_555
C1_18 H1_18 1_555 1_555
C2_18 C1_18 1_555 1_555
C3_18 H2_18 1_555 1_555
N6_7 C2_18 1_555 1_555
C5_18 C3_18 1_555 1_555
N7_3 C1_18 1_555 1_555
C6_14 N6_7 1_555 1_555
H4_11 C6_14 1_555 1_555
C8_18 N7_3 1_555 1_555
H6_15 C8_18 1_555 1_555
C9_18 C2_18 1_555 1_555
H7_18 C9_18 1_555 1_555
H8_18 C9_18 1_555 1_555
N5_8 C5_18 1_555 1_555
C5_18 C9_18 1_555 1_555
C6_14 C8_18 1_555 1_555
C6_15 N3_8 1_555 1_555
H4_12 C6_15 1_555 1_555
N3_8 Ag3_2 1_555 1_555
Ag3_2 N1_15 1_555 1_555
C4_15 H3_15 1_555 1_555
C7_15 N1_15 1_555 1_555
H5_15 C7_15 1_555 1_555
C4_15 C7_15 1_555 1_555
C6_16 N3_9 1_555 1_555
H4_13 C6_16 1_555 1_555
N3_9 Ag3_3 1_555 1_555
Ag3_3 N1_16 1_555 1_555
C4_16 H3_16 1_555 1_555
C7_16 N1_16 1_555 1_555
H5_16 C7_16 1_555 1_555
C4_16 C7_16 1_555 1_555
Ag1_8 N1_17 1_555 1_555
C4_17 H3_17 1_555 1_555
C7_17 N1_17 1_555 1_555
H5_17 C7_17 1_555 1_555
N6_8 Ag1_8 1_555 1_555
C4_17 C7_17 1_555 1_555
C6_17 N6_8 1_555 1_555
H4_15 C6_17 1_555 1_555
Ag1_9 N1_18 1_555 1_555
C4_18 H3_18 1_555 1_555
C7_18 N1_18 1_555 1_555
H5_18 C7_18 1_555 1_555
N6_9 Ag1_9 1_555 1_555
C4_18 C7_18 1_555 1_555
C6_18 N6_9 1_555 1_555
H4_16 C6_18 1_555 1_555
Cl1 O1 1_555 1_555
O2 Cl1 1_555 1_555
O3 Cl1 1_555 1_555
O4 Cl1 1_555 1_555
Cl1_2 O1_2 1_555 1_555
O2_2 Cl1_2 1_555 1_555
O3_2 Cl1_2 1_555 1_555
O4_2 Cl1_2 1_555 1_555
Cl1_3 O1_3 1_555 1_555
O2_3 Cl1_3 1_555 1_555
O3_3 Cl1_3 1_555 1_555
O4_3 Cl1_3 1_555 1_555
Cl1_4 O1_4 1_555 1_555
O2_4 Cl1_4 1_555 1_555
O3_4 Cl1_4 1_555 1_555
Cl1_5 O1_5 1_555 1_555
O2_5 Cl1_5 1_555 1_555
O3_5 Cl1_5 1_555 1_555
Cl1_6 O1_6 1_555 1_555
O2_6 Cl1_6 1_555 1_555
O3_6 Cl1_6 1_555 1_555
Cl1_7 O1_7 1_555 1_555
O2_7 Cl1_7 1_555 1_555
O3_7 Cl1_7 1_555 1_555
O4_7 Cl1_7 1_555 1_555
Cl1_8 O1_8 1_555 1_555
O2_8 Cl1_8 1_555 1_555
O3_8 Cl1_8 1_555 1_555
O4_8 Cl1_8 1_555 1_555
Cl1_9 O1_9 1_555 1_555
O2_9 Cl1_9 1_555 1_555
O3_9 Cl1_9 1_555 1_555
O4_9 Cl1_9 1_555 1_555
Cl1_10 O1_10 1_555 1_555
O2_10 Cl1_10 1_555 1_555
O3_10 Cl1_10 1_555 1_555
O4_10 Cl1_10 1_555 1_555
Cl1_11 O1_11 1_555 1_555
O2_11 Cl1_11 1_555 1_555
O3_11 Cl1_11 1_555 1_555
O4_11 Cl1_11 1_555 1_555
Cl1_12 O1_12 1_555 1_555
O2_12 Cl1_12 1_555 1_555
O3_12 Cl1_12 1_555 1_555
O4_12 Cl1_12 1_555 1_555
Cl1_13 O1_13 1_555 1_555
O2_13 Cl1_13 1_555 1_555
O3_13 Cl1_13 1_555 1_555
Cl1_14 O1_14 1_555 1_555
O2_14 Cl1_14 1_555 1_555
O3_14 Cl1_14 1_555 1_555
Cl1_15 O1_15 1_555 1_555
O2_15 Cl1_15 1_555 1_555
O3_15 Cl1_15 1_555 1_555
Cl1_16 O1_16 1_555 1_555
O2_16 Cl1_16 1_555 1_555
O3_16 Cl1_16 1_555 1_555
O4_16 Cl1_16 1_555 1_555
Cl1_17 O1_17 1_555 1_555
O2_17 Cl1_17 1_555 1_555
O3_17 Cl1_17 1_555 1_555
O4_17 Cl1_17 1_555 1_555
Cl1_18 O1_18 1_555 1_555
O2_18 Cl1_18 1_555 1_555
O3_18 Cl1_18 1_555 1_555
O4_18 Cl1_18 1_555 1_555

#END
