
###############################################################################
#
# This file contains modified crystal structure data generated from the
# MOF subset of the Cambridge Structural Database (CSD) v543 
# hosted by the Cambridge Crystallographic Data Centre (CCDC).
#
# This work is licensed under the Creative Commons
# Attribution-NonCommercial-ShareAlike 4.0 International License.
# To view a copy of this license, visit
# http://creativecommons.org/licenses/by-nc-sa/4.0/
# or send a letter to
# Creative Commons, PO Box 1866, Mountain View, CA 94042, USA.
#
# CIF created using the CSD Python API on 29 September 2022
# The structure has been converted into the P1 space group
# The structure has a 3D framework
# The original CSD entry TAMJEY is in the rhombohedral crystal system
# The framework has been calculated to contain at least 10.0% void space
# The void calculation uses a probe of radius 1.32A, grid spacing 0.4
# The framework is charged, counterions have been retained in the structure
#
###############################################################################

data_TAMJEY
_chemical_formula_moiety         '(C162 H144 Ag18 Cl18 N72 O72)n'
_symmetry_cell_setting           triclinic
_symmetry_space_group_name_H-M   'P 1'
_symmetry_Int_Tables_number      1
_space_group_name_Hall           'P 1'
loop_
_symmetry_equiv_pos_site_id
_symmetry_equiv_pos_as_xyz
1 x,y,z
_cell_length_a                   28.3534(15)
_cell_length_b                   28.3534(15)
_cell_length_c                   13.9544(19)
_cell_angle_alpha                90
_cell_angle_beta                 90
_cell_angle_gamma                120
_cell_volume                     9715.21
loop_
_atom_site_label
_atom_site_type_symbol
_atom_site_fract_x
_atom_site_fract_y
_atom_site_fract_z
Ag1 Ag 0.26961(4) 0.19888(3) 0.39475(8)
N1 N 0.2560(3) 0.1186(3) 0.4485(8)
C1 C 0.2259(4) 0.0575(4) 0.5799(9)
C2 C 0.2510(4) 0.0345(4) 0.7364(8)
C3 C 0.2903(4) 0.0734(4) 0.7936(8)
H1 H 0.2932 0.1082 0.7965
N3 N 0.2240(3) 0.0171(4) 0.5226(8)
C4 C 0.2425(4) 0.1080(4) 0.5400(11)
H2 H 0.2442 0.1360 0.5796
C5 C 0.2103(4) 0.0436(4) 0.6812(9)
H3 H 0.2071 0.0733 0.7118
H4 H 0.1741 0.0101 0.6843
C7 C 0.2537(5) 0.0804(5) 0.3948(10)
H6 H 0.2620 0.0873 0.3285
C8 C 0.2397(5) 0.0298(6) 0.4318(11)
H7 H 0.2412 0.0035 0.3917
N4 N 0.3246(3) 0.0651(4) 0.8451(8)
C9 C 0.3240(4) 0.0198(5) 0.8303(9)
H8 H 0.3510 0.0143 0.8601
Ag3 Ag 0.39706(4) 0.13445(3) 0.93858(8)
N5 N 0.2635(5) 0.2498(4) 0.2738(7)
N6 N 0.2069(5) 0.2240(3) 0.4774(8)
N7 N 0.3421(3) 0.2682(4) 0.4882(8)
N2 N 0.2498(4) 0.9863(3) 0.7262(7)
C6 C 0.2847(4) 0.9779(5) 0.7714(9)
H5 H 0.2839 0.9441 0.7653
Ag2 Ag 0.19888(3) 0.92927(5) 0.60525(8)
N2_2 N 0.0137(3) 0.2635(5) 0.7262(7)
C6_2 C 0.0221(5) 0.3068(6) 0.7714(9)
H5_2 H 0.0559 0.3398 0.7653
Ag2_2 Ag 0.07073(5) 0.26961(6) 0.60525(8)
Ag1_2 Ag 0.80112(3) 0.07073(5) 0.39475(8)
N1_2 N 0.8814(3) 0.1374(4) 0.4485(8)
C1_2 C 0.9425(4) 0.1684(6) 0.5799(9)
C2_2 C 0.9655(4) 0.2165(6) 0.7364(8)
C3_2 C 0.9266(4) 0.2169(6) 0.7936(8)
H1_2 H 0.8918 0.1850 0.7965
N3_2 N 0.9829(4) 0.2069(5) 0.5226(8)
C4_2 C 0.8920(4) 0.1345(6) 0.5400(11)
H2_2 H 0.8640 0.1082 0.5796
C5_2 C 0.9564(4) 0.1667(6) 0.6812(9)
H3_2 H 0.9267 0.1338 0.7118
H4_2 H 0.9899 0.1640 0.6843
C7_2 C 0.9196(5) 0.1733(7) 0.3948(10)
H6_2 H 0.9127 0.1747 0.3285
C8_2 C 0.9702(6) 0.2099(8) 0.4318(11)
H7_2 H 0.9965 0.2377 0.3917
N4_2 N 0.9349(4) 0.2595(5) 0.8451(8)
C9_2 C 0.9802(5) 0.3042(6) 0.8303(9)
H8_2 H 0.9857 0.3367 0.8601
Ag3_2 Ag 0.86555(3) 0.26260(5) 0.93858(8)
N5_2 N 0.7502(4) 0.0137(6) 0.2738(7)
N7_2 N 0.7318(4) 0.0738(5) 0.4882(8)
N6_2 N 0.7760(3) 0.9829(6) 0.4774(8)
N6_3 N 0.0171(6) 0.7931(5) 0.4774(8)
Ag1_3 Ag 0.92927(5) 0.73039(4) 0.39475(8)
N1_3 N 0.8626(4) 0.7440(3) 0.4485(8)
C1_3 C 0.8316(6) 0.7741(4) 0.5799(9)
C2_3 C 0.7835(6) 0.7490(4) 0.7364(8)
C3_3 C 0.7831(6) 0.7097(4) 0.7936(8)
H1_3 H 0.8150 0.7068 0.7965
N2_3 N 0.7365(5) 0.7502(4) 0.7262(7)
N3_3 N 0.7931(5) 0.7760(3) 0.5226(8)
C4_3 C 0.8655(6) 0.7575(4) 0.5400(11)
H2_3 H 0.8918 0.7558 0.5796
C5_3 C 0.8333(6) 0.7897(4) 0.6812(9)
H3_3 H 0.8662 0.7929 0.7118
H4_3 H 0.8360 0.8259 0.6843
C6_3 C 0.6932(6) 0.7153(4) 0.7714(9)
H5_3 H 0.6602 0.7161 0.7653
C7_3 C 0.8267(7) 0.7463(5) 0.3948(10)
H6_3 H 0.8253 0.7380 0.3285
C8_3 C 0.7901(8) 0.7603(5) 0.4318(11)
H7_3 H 0.7623 0.7588 0.3917
N4_3 N 0.7405(5) 0.6754(3) 0.8451(8)
C9_3 C 0.6958(6) 0.6760(4) 0.8303(9)
H8_3 H 0.6633 0.6490 0.8601
Ag2_3 Ag 0.73039(6) 0.80112(3) 0.60525(8)
Ag3_3 Ag 0.73740(5) 0.60294(4) 0.93858(8)
N5_3 N 0.9863(6) 0.7365(5) 0.2738(7)
N7_3 N 0.9262(5) 0.6579(3) 0.4882(8)
H8_4 H 0.0177 0.3476 0.1934
Ag3_4 Ag 0.06372(4) 0.46779(3) 0.27192(8)
Ag1_4 Ag 0.93628(4) 0.53221(3) 0.72808(8)
N1_4 N 0.9227(3) 0.4519(3) 0.7818(8)
C1_4 C 0.8926(4) 0.3908(4) 0.9132(9)
N3_4 N 0.8907(3) 0.3504(4) 0.8559(8)
C4_4 C 0.9092(4) 0.4413(4) 0.8733(11)
H2_4 H 0.9109 0.4693 0.9129
C7_4 C 0.9204(5) 0.4137(5) 0.7281(10)
H6_4 H 0.9287 0.4206 0.6618
C8_4 C 0.9064(5) 0.3631(6) 0.7651(11)
H7_4 H 0.9079 0.3368 0.7250
N5_4 N 0.9302(5) 0.5831(4) 0.6071(7)
N6_4 N 0.8736(5) 0.5573(3) 0.8107(8)
C2_4 C 0.6322(4) 0.5498(6) 0.0697(8)
C3_4 C 0.5933(4) 0.5502(6) 0.1269(8)
H1_4 H 0.5585 0.5183 0.1298
N2_4 N 0.6804(3) 0.5968(5) 0.0595(7)
C5_4 C 0.6231(4) 0.5000(6) 0.0145(9)
H3_4 H 0.5934 0.4671 0.0451
H4_4 H 0.6566 0.4973 0.0176
C6_4 C 0.6888(5) 0.6401(6) 0.1047(9)
H5_4 H 0.7226 0.6731 0.0986
N4_4 N 0.6016(4) 0.5928(5) 0.1784(8)
C9_4 C 0.6469(5) 0.6375(6) 0.1636(9)
H8_5 H 0.6524 0.6700 0.1934
Ag3_5 Ag 0.53221(3) 0.59594(5) 0.27192(8)
Ag1_5 Ag 0.46779(3) 0.40406(5) 0.72808(8)
N1_5 N 0.5481(3) 0.4707(4) 0.7818(8)
C1_5 C 0.6092(4) 0.5017(6) 0.9132(9)
N3_5 N 0.6496(4) 0.5402(5) 0.8559(8)
C4_5 C 0.5587(4) 0.4678(6) 0.8733(11)
H2_5 H 0.5307 0.4415 0.9129
C7_5 C 0.5863(5) 0.5066(7) 0.7281(10)
H6_5 H 0.5794 0.5080 0.6618
C8_5 C 0.6369(6) 0.5432(8) 0.7651(11)
H7_5 H 0.6632 0.5710 0.7250
N5_5 N 0.4169(4) 0.3470(6) 0.6071(7)
N6_5 N 0.4427(3) 0.3162(6) 0.8107(8)
N7_4 N 0.3984(4) 0.4072(5) 0.8216(8)
Ag1_6 Ag 0.59594(5) 0.06372(4) 0.72808(8)
N1_6 N 0.5293(4) 0.0773(3) 0.7818(8)
C1_6 C 0.4983(6) 0.1074(4) 0.9132(9)
N3_6 N 0.4598(5) 0.1093(3) 0.8559(8)
C4_6 C 0.5322(6) 0.0908(4) 0.8733(11)
H2_6 H 0.5585 0.0891 0.9129
C7_6 C 0.4934(7) 0.0796(5) 0.7281(10)
H6_6 H 0.4920 0.0713 0.6618
C8_6 C 0.4568(8) 0.0936(5) 0.7651(11)
H7_6 H 0.4290 0.0921 0.7250
N5_6 N 0.6530(6) 0.0698(5) 0.6071(7)
N6_6 N 0.6838(6) 0.1264(5) 0.8107(8)
H8_6 H 0.3300 0.9823 0.1934
Ag3_6 Ag 0.40406(5) 0.93628(4) 0.27192(8)
Ag1_7 Ag 0.60294(4) 0.86555(3) 0.06142(8)
N1_7 N 0.5893(3) 0.7853(3) 0.1152(8)
C1_7 C 0.5592(4) 0.7242(4) 0.2466(9)
C2_5 C 0.5843(4) 0.7012(4) 0.4031(8)
C3_5 C 0.6236(4) 0.7401(4) 0.4603(8)
H1_5 H 0.6265 0.7749 0.4632
N2_5 N 0.5831(4) 0.6530(3) 0.3929(7)
N3_7 N 0.5573(3) 0.6838(4) 0.1893(8)
C4_7 C 0.5758(4) 0.7747(4) 0.2067(11)
H2_7 H 0.5775 0.8027 0.2463
C5_5 C 0.5436(4) 0.7103(4) 0.3479(9)
H3_5 H 0.5404 0.7400 0.3785
H4_5 H 0.5074 0.6768 0.3510
C6_5 C 0.6180(4) 0.6446(5) 0.4381(9)
H5_5 H 0.6172 0.6108 0.4320
C7_7 C 0.5870(5) 0.7471(5) 0.0615(10)
C8_7 C 0.5730(5) 0.6965(6) 0.0985(11)
H7_7 H 0.5745 0.6702 0.0584
N4_5 N 0.6579(3) 0.7318(4) 0.5118(8)
C9_5 C 0.6573(4) 0.6865(5) 0.4970(9)
H8_7 H 0.6843 0.6810 0.5268
N6_7 N 0.5402(5) 0.8907(3) 0.1441(8)
N7_5 N 0.6754(3) 0.9349(4) 0.1549(8)
Ag1_8 Ag 0.13445(3) 0.73740(5) 0.06142(8)
N1_8 N 0.2147(3) 0.8041(4) 0.1152(8)
C1_8 C 0.2758(4) 0.8351(6) 0.2466(9)
C2_6 C 0.2988(4) 0.8832(6) 0.4031(8)
C3_6 C 0.2599(4) 0.8836(6) 0.4603(8)
H1_6 H 0.2251 0.8517 0.4632
N2_6 N 0.3470(3) 0.9302(5) 0.3929(7)
N3_8 N 0.3162(4) 0.8736(5) 0.1893(8)
C4_8 C 0.2253(4) 0.8012(6) 0.2067(11)
H2_8 H 0.1973 0.7749 0.2463
C5_6 C 0.2897(4) 0.8334(6) 0.3479(9)
H3_6 H 0.2600 0.8005 0.3785
H4_6 H 0.3232 0.8307 0.3510
C6_6 C 0.3554(5) 0.9735(6) 0.4381(9)
C7_8 C 0.2529(5) 0.8400(7) 0.0615(10)
C8_8 C 0.3035(6) 0.8766(8) 0.0985(11)
H7_8 H 0.3298 0.9044 0.0584
N4_6 N 0.2682(4) 0.9262(5) 0.5118(8)
C9_6 C 0.3135(5) 0.9709(6) 0.4970(9)
N6_8 N 0.1093(3) 0.6496(6) 0.1441(8)
N7_6 N 0.0651(4) 0.7405(5) 0.1549(8)
Ag1_9 Ag 0.26260(5) 0.39706(4) 0.06142(8)
N1_9 N 0.1959(4) 0.4107(3) 0.1152(8)
C1_9 C 0.1649(6) 0.4408(4) 0.2466(9)
C2_7 C 0.1168(6) 0.4157(4) 0.4031(8)
C3_7 C 0.1164(6) 0.3764(4) 0.4603(8)
H1_7 H 0.1483 0.3735 0.4632
N2_7 N 0.0698(5) 0.4169(4) 0.3929(7)
N3_9 N 0.1264(5) 0.4427(3) 0.1893(8)
C4_9 C 0.1988(6) 0.4242(4) 0.2067(11)
H2_9 H 0.2251 0.4225 0.2463
C5_7 C 0.1666(6) 0.4564(4) 0.3479(9)
H3_7 H 0.1995 0.4596 0.3785
H4_7 H 0.1693 0.4926 0.3510
C6_7 C 0.0265(6) 0.3820(4) 0.4381(9)
C7_9 C 0.1600(7) 0.4130(5) 0.0615(10)
C8_9 C 0.1234(8) 0.4270(5) 0.0985(11)
H7_9 H 0.0956 0.4255 0.0584
N4_7 N 0.0738(5) 0.3421(3) 0.5118(8)
C9_7 C 0.0291(6) 0.3427(4) 0.4970(9)
N6_9 N 0.3504(6) 0.4598(5) 0.1441(8)
N7_7 N 0.2595(5) 0.3246(3) 0.1549(8)
H6_7 H 0.1586 0.4047 0.9952
N5_7 N 0.3196(6) 0.4032(5) 0.9405(7)
C6_8 C 0.7153(4) 0.0221(5) 0.2286(9)
H5_6 H 0.7161 0.0559 0.2347
N1_10 N 0.7440(3) 0.8814(3) 0.5515(8)
C1_10 C 0.7741(4) 0.9425(4) 0.4201(9)
C2_8 C 0.7490(4) 0.9655(4) 0.2636(8)
C3_8 C 0.7097(4) 0.9266(4) 0.2064(8)
H1_8 H 0.7068 0.8918 0.2035
C4_10 C 0.7575(4) 0.8920(4) 0.4600(11)
H2_10 H 0.7558 0.8640 0.4204
C5_8 C 0.7897(4) 0.9564(4) 0.3188(9)
H3_8 H 0.7929 0.9267 0.2882
H4_8 H 0.8259 0.9899 0.3157
C7_10 C 0.7463(5) 0.9196(5) 0.6052(10)
H6_8 H 0.7380 0.9127 0.6715
C8_10 C 0.7603(5) 0.9702(6) 0.5682(11)
H7_10 H 0.7588 0.9965 0.6083
C9_8 C 0.6760(4) 0.9802(5) 0.1697(9)
H8_8 H 0.6490 0.9857 0.1399
N1_11 N 0.1186(3) 0.8626(4) 0.5515(8)
C1_11 C 0.0575(4) 0.8316(6) 0.4201(9)
C2_9 C 0.0345(4) 0.7835(6) 0.2636(8)
C3_9 C 0.0734(4) 0.7831(6) 0.2064(8)
H1_9 H 0.1082 0.8150 0.2035
C4_11 C 0.1080(4) 0.8655(6) 0.4600(11)
H2_11 H 0.1360 0.8918 0.4204
C5_9 C 0.0436(4) 0.8333(6) 0.3188(9)
H3_9 H 0.0733 0.8662 0.2882
H4_9 H 0.0101 0.8360 0.3157
C7_11 C 0.0804(5) 0.8267(7) 0.6052(10)
H6_9 H 0.0873 0.8253 0.6715
C8_11 C 0.0298(6) 0.7901(8) 0.5682(11)
H7_11 H 0.0035 0.7623 0.6083
C9_9 C 0.0198(5) 0.6958(6) 0.1697(9)
H8_9 H 0.0143 0.6633 0.1399
C6_9 C 0.9779(5) 0.6932(6) 0.2286(9)
H5_7 H 0.9441 0.6602 0.2347
N1_12 N 0.1374(4) 0.2560(3) 0.5515(8)
C1_12 C 0.1684(6) 0.2259(4) 0.4201(9)
C2_10 C 0.2165(6) 0.2510(4) 0.2636(8)
C3_10 C 0.2169(6) 0.2903(4) 0.2064(8)
H1_10 H 0.1850 0.2932 0.2035
C4_12 C 0.1345(6) 0.2425(4) 0.4600(11)
H2_12 H 0.1082 0.2442 0.4204
C5_10 C 0.1667(6) 0.2103(4) 0.3188(9)
H3_10 H 0.1338 0.2071 0.2882
H4_10 H 0.1640 0.1741 0.3157
C6_10 C 0.3068(6) 0.2847(4) 0.2286(9)
H5_8 H 0.3398 0.2839 0.2347
C7_12 C 0.1733(7) 0.2537(5) 0.6052(10)
H6_10 H 0.1747 0.2620 0.6715
C8_12 C 0.2099(8) 0.2397(5) 0.5682(11)
H7_12 H 0.2377 0.2412 0.6083
C9_10 C 0.3042(6) 0.3240(4) 0.1697(9)
H8_10 H 0.3367 0.3510 0.1399
N1_13 N 0.0773(3) 0.5481(3) 0.2182(8)
C1_13 C 0.1074(4) 0.6092(4) 0.0868(9)
C4_13 C 0.0908(4) 0.5587(4) 0.1267(11)
H2_13 H 0.0891 0.5307 0.0871
C7_13 C 0.0796(5) 0.5863(5) 0.2719(10)
H6_11 H 0.0713 0.5794 0.3382
C8_13 C 0.0936(5) 0.6369(6) 0.2349(11)
H7_13 H 0.0921 0.6632 0.2750
H8_11 H 0.9823 0.6524 0.8066
N1_14 N 0.4519(3) 0.5293(4) 0.2182(8)
C1_14 C 0.3908(4) 0.4983(6) 0.0868(9)
C4_14 C 0.4413(4) 0.5322(6) 0.1267(11)
H2_14 H 0.4693 0.5585 0.0871
C7_14 C 0.4137(5) 0.4934(7) 0.2719(10)
H6_12 H 0.4206 0.4920 0.3382
C8_14 C 0.3631(6) 0.4568(8) 0.2349(11)
H7_14 H 0.3368 0.4290 0.2750
C2_11 C 0.3678(4) 0.4502(6) 0.9303(8)
C3_11 C 0.4067(4) 0.4498(6) 0.8731(8)
H1_11 H 0.4415 0.4817 0.8702
C5_11 C 0.3769(4) 0.5000(6) 0.9855(9)
H3_11 H 0.4066 0.5329 0.9549
H4_11 H 0.3434 0.5027 0.9824
C6_11 C 0.3112(5) 0.3599(6) 0.8953(9)
H5_9 H 0.2774 0.3269 0.9014
C9_11 C 0.3531(5) 0.3625(6) 0.8364(9)
H8_12 H 0.3476 0.3300 0.8066
H8_13 H 0.6700 0.0177 0.8066
N1_15 N 0.4707(4) 0.9227(3) 0.2182(8)
C1_15 C 0.5017(6) 0.8926(4) 0.0868(9)
C4_15 C 0.4678(6) 0.9092(4) 0.1267(11)
H2_15 H 0.4415 0.9109 0.0871
C7_15 C 0.5066(7) 0.9204(5) 0.2719(10)
H6_13 H 0.5080 0.9287 0.3382
C8_15 C 0.5432(8) 0.9064(5) 0.2349(11)
H7_15 H 0.5710 0.9079 0.2750
N1_16 N 0.4107(3) 0.2147(3) 0.8848(8)
C1_16 C 0.4408(4) 0.2758(4) 0.7534(9)
C2_12 C 0.4157(4) 0.2988(4) 0.5969(8)
C3_12 C 0.3764(4) 0.2599(4) 0.5397(8)
H1_12 H 0.3735 0.2251 0.5368
C4_16 C 0.4242(4) 0.2253(4) 0.7933(11)
H2_16 H 0.4225 0.1973 0.7537
C5_12 C 0.4564(4) 0.2897(4) 0.6521(9)
H3_12 H 0.4596 0.2600 0.6215
H4_12 H 0.4926 0.3232 0.6490
C6_12 C 0.3820(4) 0.3554(5) 0.5619(9)
H5_10 H 0.3828 0.3892 0.5680
C7_16 C 0.4130(5) 0.2529(5) 0.9385(10)
C8_16 C 0.4270(5) 0.3035(6) 0.9015(11)
H7_16 H 0.4255 0.3298 0.9416
C9_12 C 0.3427(4) 0.3135(5) 0.5030(9)
H8_14 H 0.3157 0.3190 0.4732
N1_17 N 0.7853(3) 0.1959(4) 0.8848(8)
C1_17 C 0.7242(4) 0.1649(6) 0.7534(9)
C2_13 C 0.7012(4) 0.1168(6) 0.5969(8)
C3_13 C 0.7401(4) 0.1164(6) 0.5397(8)
H1_13 H 0.7749 0.1483 0.5368
C4_17 C 0.7747(4) 0.1988(6) 0.7933(11)
H2_17 H 0.8027 0.2251 0.7537
C5_13 C 0.7103(4) 0.1666(6) 0.6521(9)
H3_13 H 0.7400 0.1995 0.6215
H4_13 H 0.6768 0.1693 0.6490
C6_13 C 0.6446(5) 0.0265(6) 0.5619(9)
C7_17 C 0.7471(5) 0.1600(7) 0.9385(10)
C8_17 C 0.6965(6) 0.1234(8) 0.9015(11)
H7_17 H 0.6702 0.0956 0.9416
C9_13 C 0.6865(5) 0.0291(6) 0.5030(9)
H6_14 H 0.8414 0.5953 0.0048
N1_18 N 0.8041(4) 0.5893(3) 0.8848(8)
C1_18 C 0.8351(6) 0.5592(4) 0.7534(9)
C2_14 C 0.8832(6) 0.5843(4) 0.5969(8)
C3_14 C 0.8836(6) 0.6236(4) 0.5397(8)
H1_14 H 0.8517 0.6265 0.5368
C4_18 C 0.8012(6) 0.5758(4) 0.7933(11)
H2_18 H 0.7749 0.5775 0.7537
C5_14 C 0.8334(6) 0.5436(4) 0.6521(9)
H3_14 H 0.8005 0.5404 0.6215
H4_14 H 0.8307 0.5074 0.6490
C6_14 C 0.9735(6) 0.6180(4) 0.5619(9)
C7_18 C 0.8400(7) 0.5870(5) 0.9385(10)
C8_18 C 0.8766(8) 0.5730(5) 0.9015(11)
H7_18 H 0.9044 0.5745 0.9416
C9_14 C 0.9709(6) 0.6573(4) 0.5030(9)
N7_8 N 0.0087(3) 0.6016(4) 0.8216(8)
H6_15 H 0.2460 0.8414 0.9952
N5_8 N 0.0835(4) 0.6804(6) 0.9405(7)
C2_15 C 0.0823(4) 0.6322(4) 0.9303(8)
C3_15 C 0.0430(4) 0.5933(4) 0.8731(8)
H1_15 H 0.0401 0.5585 0.8702
C5_15 C 0.1230(4) 0.6231(4) 0.9855(9)
H3_15 H 0.1262 0.5934 0.9549
H4_15 H 0.1592 0.6566 0.9824
C6_15 C 0.0486(4) 0.6888(5) 0.8953(9)
H5_11 H 0.0494 0.7226 0.9014
C9_15 C 0.0093(4) 0.6469(5) 0.8364(9)
C2_16 C 0.9177(4) 0.3678(4) 0.0697(8)
C3_16 C 0.9570(4) 0.4067(4) 0.1269(8)
H1_16 H 0.9599 0.4415 0.1298
N2_8 N 0.9165(4) 0.3196(3) 0.0595(7)
C5_16 C 0.8770(4) 0.3769(4) 0.0145(9)
H3_16 H 0.8738 0.4066 0.0451
H4_16 H 0.8408 0.3434 0.0176
C6_16 C 0.9514(4) 0.3112(5) 0.1047(9)
H5_12 H 0.9506 0.2774 0.0986
N4_8 N 0.9913(3) 0.3984(4) 0.1784(8)
C9_16 C 0.9907(4) 0.3531(5) 0.1636(9)
H6_16 H 0.7540 0.1586 0.0048
C2_17 C 0.4502(6) 0.0823(4) 0.0697(8)
C3_17 C 0.4498(6) 0.0430(4) 0.1269(8)
H1_17 H 0.4817 0.0401 0.1298
N2_9 N 0.4032(5) 0.0835(4) 0.0595(7)
C5_17 C 0.5000(6) 0.1230(4) 0.0145(9)
H3_17 H 0.5329 0.1262 0.0451
H4_17 H 0.5027 0.1592 0.0176
C6_17 C 0.3599(6) 0.0486(4) 0.1047(9)
H5_13 H 0.3269 0.0494 0.0986
N4_9 N 0.4072(5) 0.0087(3) 0.1784(8)
C9_17 C 0.3625(6) 0.0093(4) 0.1636(9)
H6_17 H 0.4047 0.2460 0.0048
N7_9 N 0.5928(5) 0.9913(3) 0.8216(8)
H6_18 H 0.5953 0.7540 0.9952
N5_9 N 0.5968(5) 0.9165(4) 0.9405(7)
C2_18 C 0.5498(6) 0.9177(4) 0.9303(8)
C3_18 C 0.5502(6) 0.9570(4) 0.8731(8)
H1_18 H 0.5183 0.9599 0.8702
C5_18 C 0.5000(6) 0.8770(4) 0.9855(9)
H3_18 H 0.4671 0.8738 0.9549
H4_18 H 0.4973 0.8408 0.9824
C6_18 C 0.6401(6) 0.9514(4) 0.8953(9)
H5_14 H 0.6731 0.9506 0.9014
C9_18 C 0.6375(6) 0.9907(4) 0.8364(9)
H5_15 H 0.3892 0.0065 0.4320
H8_15 H 0.3190 0.0034 0.5268
H5_16 H 0.9935 0.3828 0.4320
H8_16 H 0.9966 0.3157 0.5268
H5_17 H 0.6108 0.9935 0.5680
H8_17 H 0.6810 0.9966 0.4732
H5_18 H 0.0065 0.6172 0.5680
H8_18 H 0.0034 0.6843 0.4732
Cl1 Cl 0.46000(12) 0.38874(12) 0.1349(3)
O1 O 0.4300(4) 0.3310(4) 0.1309(9)
O2 O 0.4453(8) 0.4071(6) 0.0545(12)
O3 O 0.4405(9) 0.3983(9) 0.2204(13)
O4 O 0.5148(5) 0.4069(6) 0.1514(16)
Cl1_2 Cl 0.61126(12) 0.07126(17) 0.1349(3)
O1_2 O 0.6690(4) 0.0990(6) 0.1309(9)
O2_2 O 0.5929(6) 0.0382(10) 0.0545(12)
O3_2 O 0.6017(9) 0.0422(13) 0.2204(13)
O4_2 O 0.5931(6) 0.1079(8) 0.1514(16)
Cl1_3 Cl 0.92874(17) 0.54000(12) 0.1349(3)
O1_3 O 0.9010(6) 0.5700(4) 0.1309(9)
O2_3 O 0.9618(10) 0.5547(8) 0.0545(12)
O3_3 O 0.9578(13) 0.5595(9) 0.2204(13)
O4_3 O 0.8921(8) 0.4852(5) 0.1514(16)
Cl1_4 Cl 0.12667(12) 0.72207(12) 0.4682(3)
O1_4 O 0.0967(4) 0.6643(4) 0.4642(9)
O2_4 O 0.1120(8) 0.7404(6) 0.3878(12)
O3_4 O 0.1072(9) 0.7316(9) 0.5537(13)
O4_4 O 0.1815(5) 0.7402(6) 0.4847(16)
Cl1_5 Cl 0.27793(12) 0.40459(17) 0.4682(3)
O1_5 O 0.3357(4) 0.4323(6) 0.4642(9)
O2_5 O 0.2596(6) 0.3715(10) 0.3878(12)
O3_5 O 0.2684(9) 0.3755(13) 0.5537(13)
O4_5 O 0.2598(6) 0.4412(8) 0.4847(16)
Cl1_6 Cl 0.59541(17) 0.87333(12) 0.4682(3)
O1_6 O 0.5677(6) 0.9033(4) 0.4642(9)
O2_6 O 0.6285(10) 0.8880(8) 0.3878(12)
O3_6 O 0.6245(13) 0.8928(9) 0.5537(13)
O4_6 O 0.5588(8) 0.8185(5) 0.4847(16)
Cl1_7 Cl 0.79333(12) 0.05541(12) 0.8016(3)
O2_7 O 0.7786(8) 0.0738(6) 0.7212(12)
O3_7 O 0.7738(9) 0.0650(9) 0.8871(13)
O4_7 O 0.8481(5) 0.0736(6) 0.8181(16)
O1_7 O 0.7633(4) 0.9977(4) 0.7976(9)
O1_8 O 0.0023(4) 0.7657(6) 0.7976(9)
Cl1_8 Cl 0.94459(12) 0.73793(17) 0.8016(3)
O2_8 O 0.9262(6) 0.7049(10) 0.7212(12)
O3_8 O 0.9350(9) 0.7089(13) 0.8871(13)
O4_8 O 0.9264(6) 0.7746(8) 0.8181(16)
Cl1_9 Cl 0.26207(17) 0.20667(12) 0.8016(3)
O1_9 O 0.2343(6) 0.2367(4) 0.7976(9)
O2_9 O 0.2951(10) 0.2214(8) 0.7212(12)
O3_9 O 0.2911(13) 0.2262(9) 0.8871(13)
O4_9 O 0.2254(8) 0.1519(5) 0.8181(16)
Cl1_10 Cl 0.54000(12) 0.61126(12) 0.8651(3)
O1_10 O 0.5700(4) 0.6690(4) 0.8691(9)
O2_10 O 0.5547(8) 0.5929(6) 0.9455(12)
O3_10 O 0.5595(9) 0.6017(9) 0.7796(13)
O4_10 O 0.4852(5) 0.5931(6) 0.8486(16)
Cl1_11 Cl 0.38874(12) 0.92874(17) 0.8651(3)
O1_11 O 0.3310(4) 0.9010(6) 0.8691(9)
O2_11 O 0.4071(6) 0.9618(10) 0.9455(12)
O3_11 O 0.3983(9) 0.9578(13) 0.7796(13)
O4_11 O 0.4069(6) 0.8921(8) 0.8486(16)
Cl1_12 Cl 0.07126(17) 0.46000(12) 0.8651(3)
O1_12 O 0.0990(6) 0.4300(4) 0.8691(9)
O2_12 O 0.0382(10) 0.4453(8) 0.9455(12)
O3_12 O 0.0422(13) 0.4405(9) 0.7796(13)
O4_12 O 0.1079(8) 0.5148(5) 0.8486(16)
Cl1_13 Cl 0.87333(12) 0.27793(12) 0.5318(3)
O1_13 O 0.9033(4) 0.3357(4) 0.5358(9)
O2_13 O 0.8880(8) 0.2596(6) 0.6122(12)
O3_13 O 0.8928(9) 0.2684(9) 0.4463(13)
O4_13 O 0.8185(5) 0.2598(6) 0.5153(16)
Cl1_14 Cl 0.72207(12) 0.59541(17) 0.5318(3)
O1_14 O 0.6643(4) 0.5677(6) 0.5358(9)
O2_14 O 0.7404(6) 0.6285(10) 0.6122(12)
O3_14 O 0.7316(9) 0.6245(13) 0.4463(13)
O4_14 O 0.7402(6) 0.5588(8) 0.5153(16)
Cl1_15 Cl 0.40459(17) 0.12667(12) 0.5318(3)
O1_15 O 0.4323(6) 0.0967(4) 0.5358(9)
O2_15 O 0.3715(10) 0.1120(8) 0.6122(12)
O3_15 O 0.3755(13) 0.1072(9) 0.4463(13)
O4_15 O 0.4412(8) 0.1815(5) 0.5153(16)
O1_16 O 0.2367(4) 0.0023(4) 0.2024(9)
Cl1_16 Cl 0.20667(12) 0.94459(12) 0.1984(3)
O2_16 O 0.2214(8) 0.9262(6) 0.2788(12)
O3_16 O 0.2262(9) 0.9350(9) 0.1129(13)
O4_16 O 0.1519(5) 0.9264(6) 0.1819(16)
Cl1_17 Cl 0.05541(12) 0.26207(17) 0.1984(3)
O2_17 O 0.0738(6) 0.2951(10) 0.2788(12)
O3_17 O 0.0650(9) 0.2911(13) 0.1129(13)
O4_17 O 0.0736(6) 0.2254(8) 0.1819(16)
O1_17 O 0.9977(4) 0.2343(6) 0.2024(9)
Cl1_18 Cl 0.73793(17) 0.79333(12) 0.1984(3)
O1_18 O 0.7657(6) 0.7633(4) 0.2024(9)
O2_18 O 0.7049(10) 0.7786(8) 0.2788(12)
O3_18 O 0.7089(13) 0.7738(9) 0.1129(13)
O4_18 O 0.7746(8) 0.8481(5) 0.1819(16)
loop_
_geom_bond_atom_site_label_1
_geom_bond_atom_site_label_2
_geom_bond_site_symmetry_1
_geom_bond_site_symmetry_2
Ag1 N1 1_555 1_555
N1 C4 1_555 1_555
C1 N3 1_555 1_555
C2 C3 1_555 1_555
C3 H1 1_555 1_555
N3 C8 1_555 1_555
C4 C1 1_555 1_555
H2 C4 1_555 1_555
C5 C1 1_555 1_555
H3 C5 1_555 1_555
H4 C5 1_555 1_555
C7 N1 1_555 1_555
H6 C7 1_555 1_555
C8 C7 1_555 1_555
H7 C8 1_555 1_555
N4 C3 1_555 1_555
H8 C9 1_555 1_555
Ag3 N4 1_555 1_555
N5 Ag1 1_555 1_555
N6 Ag1 1_555 1_555
N7 Ag1 1_555 1_555
C2 C5 1_555 1_555
N4 C9 1_555 1_555
C6 N2 1_555 1_555
H5 C6 1_555 1_555
Ag2 N2 1_555 1_555
C6_2 N2_2 1_555 1_555
H5_2 C6_2 1_555 1_555
Ag2_2 N2_2 1_555 1_555
Ag1_2 N1_2 1_555 1_555
N1_2 C4_2 1_555 1_555
C1_2 N3_2 1_555 1_555
C2_2 C3_2 1_555 1_555
C3_2 H1_2 1_555 1_555
N3_2 C8_2 1_555 1_555
C4_2 C1_2 1_555 1_555
H2_2 C4_2 1_555 1_555
C5_2 C1_2 1_555 1_555
H3_2 C5_2 1_555 1_555
H4_2 C5_2 1_555 1_555
C7_2 N1_2 1_555 1_555
H6_2 C7_2 1_555 1_555
C8_2 C7_2 1_555 1_555
H7_2 C8_2 1_555 1_555
N4_2 C3_2 1_555 1_555
H8_2 C9_2 1_555 1_555
Ag3_2 N4_2 1_555 1_555
N5_2 Ag1_2 1_555 1_555
N7_2 Ag1_2 1_555 1_555
C2_2 C5_2 1_555 1_555
N4_2 C9_2 1_555 1_555
Ag1_3 N1_3 1_555 1_555
N1_3 C4_3 1_555 1_555
C1_3 N3_3 1_555 1_555
C2_3 C3_3 1_555 1_555
C3_3 H1_3 1_555 1_555
N2_3 C2_3 1_555 1_555
N3_3 C8_3 1_555 1_555
C4_3 C1_3 1_555 1_555
H2_3 C4_3 1_555 1_555
C5_3 C1_3 1_555 1_555
H3_3 C5_3 1_555 1_555
H4_3 C5_3 1_555 1_555
C6_3 N2_3 1_555 1_555
H5_3 C6_3 1_555 1_555
C7_3 N1_3 1_555 1_555
H6_3 C7_3 1_555 1_555
C8_3 C7_3 1_555 1_555
H7_3 C8_3 1_555 1_555
N4_3 C3_3 1_555 1_555
C9_3 C6_3 1_555 1_555
H8_3 C9_3 1_555 1_555
Ag2_3 N2_3 1_555 1_555
Ag3_3 N4_3 1_555 1_555
N5_3 Ag1_3 1_555 1_555
N7_3 Ag1_3 1_555 1_555
C2_3 C5_3 1_555 1_555
N3_3 Ag2_3 1_555 1_555
N4_3 C9_3 1_555 1_555
Ag1_4 N1_4 1_555 1_555
N1_4 C4_4 1_555 1_555
C1_4 N3_4 1_555 1_555
N3_4 C8_4 1_555 1_555
C4_4 C1_4 1_555 1_555
H2_4 C4_4 1_555 1_555
C7_4 N1_4 1_555 1_555
H6_4 C7_4 1_555 1_555
C8_4 C7_4 1_555 1_555
H7_4 C8_4 1_555 1_555
N5_4 Ag1_4 1_555 1_555
N6_4 Ag1_4 1_555 1_555
N3_4 Ag3_2 1_555 1_555
C2_4 C3_4 1_555 1_555
C3_4 H1_4 1_555 1_555
N2_4 C2_4 1_555 1_555
H3_4 C5_4 1_555 1_555
H4_4 C5_4 1_555 1_555
C6_4 N2_4 1_555 1_555
H5_4 C6_4 1_555 1_555
N4_4 C3_4 1_555 1_555
C9_4 C6_4 1_555 1_555
H8_5 C9_4 1_555 1_555
Ag3_5 N4_4 1_555 1_555
C2_4 C5_4 1_555 1_555
N4_4 C9_4 1_555 1_555
Ag1_5 N1_5 1_555 1_555
N1_5 C4_5 1_555 1_555
C1_5 N3_5 1_555 1_555
N3_5 C8_5 1_555 1_555
C4_5 C1_5 1_555 1_555
H2_5 C4_5 1_555 1_555
C7_5 N1_5 1_555 1_555
H6_5 C7_5 1_555 1_555
C8_5 C7_5 1_555 1_555
H7_5 C8_5 1_555 1_555
N5_5 Ag1_5 1_555 1_555
N6_5 Ag1_5 1_555 1_555
N7_4 Ag1_5 1_555 1_555
N3_5 Ag3_3 1_555 1_555
Ag1_6 N1_6 1_555 1_555
N1_6 C4_6 1_555 1_555
C1_6 N3_6 1_555 1_555
N3_6 C8_6 1_555 1_555
C4_6 C1_6 1_555 1_555
H2_6 C4_6 1_555 1_555
C7_6 N1_6 1_555 1_555
H6_6 C7_6 1_555 1_555
C8_6 C7_6 1_555 1_555
H7_6 C8_6 1_555 1_555
N5_6 Ag1_6 1_555 1_555
N6_6 Ag1_6 1_555 1_555
N3_6 Ag3 1_555 1_555
Ag1_7 N1_7 1_555 1_555
N1_7 C4_7 1_555 1_555
C1_7 N3_7 1_555 1_555
C2_5 C3_5 1_555 1_555
C3_5 H1_5 1_555 1_555
N2_5 C2_5 1_555 1_555
N3_7 C8_7 1_555 1_555
C4_7 C1_7 1_555 1_555
H2_7 C4_7 1_555 1_555
C5_5 C1_7 1_555 1_555
H3_5 C5_5 1_555 1_555
H4_5 C5_5 1_555 1_555
C6_5 N2_5 1_555 1_555
H5_5 C6_5 1_555 1_555
C7_7 N1_7 1_555 1_555
C8_7 C7_7 1_555 1_555
H7_7 C8_7 1_555 1_555
N4_5 C3_5 1_555 1_555
C9_5 C6_5 1_555 1_555
H8_7 C9_5 1_555 1_555
Ag3_5 N2_5 1_555 1_555
Ag2_3 N4_5 1_555 1_555
N6_7 Ag1_7 1_555 1_555
N7_5 Ag1_7 1_555 1_555
C2_5 C5_5 1_555 1_555
N3_7 Ag3_5 1_555 1_555
N4_5 C9_5 1_555 1_555
Ag1_8 N1_8 1_555 1_555
N1_8 C4_8 1_555 1_555
C1_8 N3_8 1_555 1_555
C2_6 C3_6 1_555 1_555
C3_6 H1_6 1_555 1_555
N2_6 C2_6 1_555 1_555
N3_8 C8_8 1_555 1_555
C4_8 C1_8 1_555 1_555
H2_8 C4_8 1_555 1_555
C5_6 C1_8 1_555 1_555
H3_6 C5_6 1_555 1_555
H4_6 C5_6 1_555 1_555
C6_6 N2_6 1_555 1_555
C7_8 N1_8 1_555 1_555
C8_8 C7_8 1_555 1_555
H7_8 C8_8 1_555 1_555
N4_6 C3_6 1_555 1_555
C9_6 C6_6 1_555 1_555
Ag3_6 N2_6 1_555 1_555
Ag2 N4_6 1_555 1_555
N6_8 Ag1_8 1_555 1_555
N7_6 Ag1_8 1_555 1_555
C2_6 C5_6 1_555 1_555
N3_8 Ag3_6 1_555 1_555
N4_6 C9_6 1_555 1_555
Ag1_9 N1_9 1_555 1_555
N1_9 C4_9 1_555 1_555
C1_9 N3_9 1_555 1_555
C2_7 C3_7 1_555 1_555
C3_7 H1_7 1_555 1_555
N2_7 C2_7 1_555 1_555
N3_9 C8_9 1_555 1_555
C4_9 C1_9 1_555 1_555
H2_9 C4_9 1_555 1_555
C5_7 C1_9 1_555 1_555
H3_7 C5_7 1_555 1_555
H4_7 C5_7 1_555 1_555
C6_7 N2_7 1_555 1_555
C7_9 N1_9 1_555 1_555
C8_9 C7_9 1_555 1_555
H7_9 C8_9 1_555 1_555
N4_7 C3_7 1_555 1_555
C9_7 C6_7 1_555 1_555
Ag3_4 N2_7 1_555 1_555
Ag2_2 N4_7 1_555 1_555
N6_9 Ag1_9 1_555 1_555
N7_7 Ag1_9 1_555 1_555
C2_7 C5_7 1_555 1_555
N3_9 Ag3_4 1_555 1_555
N4_7 C9_7 1_555 1_555
C6_8 N5_2 1_555 1_555
H5_6 C6_8 1_555 1_555
Ag2_3 N1_10 1_555 1_555
N1_10 C4_10 1_555 1_555
C1_10 N6_2 1_555 1_555
C2_8 C3_8 1_555 1_555
C3_8 H1_8 1_555 1_555
N6_2 C8_10 1_555 1_555
C4_10 C1_10 1_555 1_555
H2_10 C4_10 1_555 1_555
C5_8 C1_10 1_555 1_555
H3_8 C5_8 1_555 1_555
H4_8 C5_8 1_555 1_555
C7_10 N1_10 1_555 1_555
H6_8 C7_10 1_555 1_555
C8_10 C7_10 1_555 1_555
H7_10 C8_10 1_555 1_555
N7_5 C3_8 1_555 1_555
H8_8 C9_8 1_555 1_555
C2_8 C5_8 1_555 1_555
N7_5 C9_8 1_555 1_555
Ag2 N1_11 1_555 1_555
N1_11 C4_11 1_555 1_555
C1_11 N6_3 1_555 1_555
C2_9 C3_9 1_555 1_555
C3_9 H1_9 1_555 1_555
N6_3 C8_11 1_555 1_555
C4_11 C1_11 1_555 1_555
H2_11 C4_11 1_555 1_555
C5_9 C1_11 1_555 1_555
H3_9 C5_9 1_555 1_555
H4_9 C5_9 1_555 1_555
C7_11 N1_11 1_555 1_555
H6_9 C7_11 1_555 1_555
C8_11 C7_11 1_555 1_555
H7_11 C8_11 1_555 1_555
N7_6 C3_9 1_555 1_555
H8_9 C9_9 1_555 1_555
C2_9 C5_9 1_555 1_555
N7_6 C9_9 1_555 1_555
C6_9 N5_3 1_555 1_555
H5_7 C6_9 1_555 1_555
Ag2_2 N1_12 1_555 1_555
N1_12 C4_12 1_555 1_555
C1_12 N6 1_555 1_555
C2_10 C3_10 1_555 1_555
C3_10 H1_10 1_555 1_555
N5 C2_10 1_555 1_555
N6 C8_12 1_555 1_555
C4_12 C1_12 1_555 1_555
H2_12 C4_12 1_555 1_555
C5_10 C1_12 1_555 1_555
H3_10 C5_10 1_555 1_555
H4_10 C5_10 1_555 1_555
C6_10 N5 1_555 1_555
H5_8 C6_10 1_555 1_555
C7_12 N1_12 1_555 1_555
H6_10 C7_12 1_555 1_555
C8_12 C7_12 1_555 1_555
H7_12 C8_12 1_555 1_555
N7_7 C3_10 1_555 1_555
C9_10 C6_10 1_555 1_555
H8_10 C9_10 1_555 1_555
C2_10 C5_10 1_555 1_555
N7_7 C9_10 1_555 1_555
Ag3_4 N1_13 1_555 1_555
N1_13 C4_13 1_555 1_555
C1_13 N6_8 1_555 1_555
N6_8 C8_13 1_555 1_555
C4_13 C1_13 1_555 1_555
H2_13 C4_13 1_555 1_555
C7_13 N1_13 1_555 1_555
H6_11 C7_13 1_555 1_555
C8_13 C7_13 1_555 1_555
H7_13 C8_13 1_555 1_555
Ag3_5 N1_14 1_555 1_555
N1_14 C4_14 1_555 1_555
C1_14 N6_9 1_555 1_555
N6_9 C8_14 1_555 1_555
C4_14 C1_14 1_555 1_555
H2_14 C4_14 1_555 1_555
C7_14 N1_14 1_555 1_555
H6_12 C7_14 1_555 1_555
C8_14 C7_14 1_555 1_555
H7_14 C8_14 1_555 1_555
C2_11 C3_11 1_555 1_555
C3_11 H1_11 1_555 1_555
N5_7 C2_11 1_555 1_555
H3_11 C5_11 1_555 1_555
H4_11 C5_11 1_555 1_555
C6_11 N5_7 1_555 1_555
H5_9 C6_11 1_555 1_555
N7_4 C3_11 1_555 1_555
C9_11 C6_11 1_555 1_555
H8_12 C9_11 1_555 1_555
C2_11 C5_11 1_555 1_555
N7_4 C9_11 1_555 1_555
Ag3_6 N1_15 1_555 1_555
N1_15 C4_15 1_555 1_555
C1_15 N6_7 1_555 1_555
N6_7 C8_15 1_555 1_555
C4_15 C1_15 1_555 1_555
H2_15 C4_15 1_555 1_555
C7_15 N1_15 1_555 1_555
H6_13 C7_15 1_555 1_555
C8_15 C7_15 1_555 1_555
H7_15 C8_15 1_555 1_555
Ag3 N1_16 1_555 1_555
N1_16 C4_16 1_555 1_555
C1_16 N6_5 1_555 1_555
C2_12 C3_12 1_555 1_555
C3_12 H1_12 1_555 1_555
N5_5 C2_12 1_555 1_555
N6_5 C8_16 1_555 1_555
C4_16 C1_16 1_555 1_555
H2_16 C4_16 1_555 1_555
C5_12 C1_16 1_555 1_555
H3_12 C5_12 1_555 1_555
H4_12 C5_12 1_555 1_555
C6_12 N5_5 1_555 1_555
H5_10 C6_12 1_555 1_555
C7_16 N1_16 1_555 1_555
C8_16 C7_16 1_555 1_555
H7_16 C8_16 1_555 1_555
N7 C3_12 1_555 1_555
C9_12 C6_12 1_555 1_555
H8_14 C9_12 1_555 1_555
C2_12 C5_12 1_555 1_555
N7 C9_12 1_555 1_555
Ag3_2 N1_17 1_555 1_555
N1_17 C4_17 1_555 1_555
C1_17 N6_6 1_555 1_555
C2_13 C3_13 1_555 1_555
C3_13 H1_13 1_555 1_555
N5_6 C2_13 1_555 1_555
N6_6 C8_17 1_555 1_555
C4_17 C1_17 1_555 1_555
H2_17 C4_17 1_555 1_555
C5_13 C1_17 1_555 1_555
H3_13 C5_13 1_555 1_555
H4_13 C5_13 1_555 1_555
C6_13 N5_6 1_555 1_555
C7_17 N1_17 1_555 1_555
C8_17 C7_17 1_555 1_555
H7_17 C8_17 1_555 1_555
N7_2 C3_13 1_555 1_555
C9_13 C6_13 1_555 1_555
C2_13 C5_13 1_555 1_555
N7_2 C9_13 1_555 1_555
Ag3_3 N1_18 1_555 1_555
N1_18 C4_18 1_555 1_555
C1_18 N6_4 1_555 1_555
C2_14 C3_14 1_555 1_555
C3_14 H1_14 1_555 1_555
N5_4 C2_14 1_555 1_555
N6_4 C8_18 1_555 1_555
C4_18 C1_18 1_555 1_555
H2_18 C4_18 1_555 1_555
C5_14 C1_18 1_555 1_555
H3_14 C5_14 1_555 1_555
H4_14 C5_14 1_555 1_555
C6_14 N5_4 1_555 1_555
C7_18 N1_18 1_555 1_555
C8_18 C7_18 1_555 1_555
H7_18 C8_18 1_555 1_555
N7_3 C3_14 1_555 1_555
C9_14 C6_14 1_555 1_555
C2_14 C5_14 1_555 1_555
N7_3 C9_14 1_555 1_555
C2_15 C3_15 1_555 1_555
C3_15 H1_15 1_555 1_555
N5_8 C2_15 1_555 1_555
H3_15 C5_15 1_555 1_555
H4_15 C5_15 1_555 1_555
C6_15 N5_8 1_555 1_555
H5_11 C6_15 1_555 1_555
N7_8 C3_15 1_555 1_555
C9_15 C6_15 1_555 1_555
C2_15 C5_15 1_555 1_555
N7_8 C9_15 1_555 1_555
C2_16 C3_16 1_555 1_555
C3_16 H1_16 1_555 1_555
N2_8 C2_16 1_555 1_555
H3_16 C5_16 1_555 1_555
H4_16 C5_16 1_555 1_555
C6_16 N2_8 1_555 1_555
H5_12 C6_16 1_555 1_555
N4_8 C3_16 1_555 1_555
C9_16 C6_16 1_555 1_555
C2_16 C5_16 1_555 1_555
N4_8 C9_16 1_555 1_555
C2_17 C3_17 1_555 1_555
C3_17 H1_17 1_555 1_555
N2_9 C2_17 1_555 1_555
H3_17 C5_17 1_555 1_555
H4_17 C5_17 1_555 1_555
C6_17 N2_9 1_555 1_555
H5_13 C6_17 1_555 1_555
N4_9 C3_17 1_555 1_555
C9_17 C6_17 1_555 1_555
C2_17 C5_17 1_555 1_555
N4_9 C9_17 1_555 1_555
C2_18 C3_18 1_555 1_555
C3_18 H1_18 1_555 1_555
N5_9 C2_18 1_555 1_555
H3_18 C5_18 1_555 1_555
H4_18 C5_18 1_555 1_555
C6_18 N5_9 1_555 1_555
H5_14 C6_18 1_555 1_555
N7_9 C3_18 1_555 1_555
C9_18 C6_18 1_555 1_555
C2_18 C5_18 1_555 1_555
N7_9 C9_18 1_555 1_555
Cl1 O1 1_555 1_555
O2 Cl1 1_555 1_555
O3 Cl1 1_555 1_555
O4 Cl1 1_555 1_555
Cl1_2 O1_2 1_555 1_555
O2_2 Cl1_2 1_555 1_555
O3_2 Cl1_2 1_555 1_555
O4_2 Cl1_2 1_555 1_555
Cl1_3 O1_3 1_555 1_555
O2_3 Cl1_3 1_555 1_555
O3_3 Cl1_3 1_555 1_555
O4_3 Cl1_3 1_555 1_555
Cl1_4 O1_4 1_555 1_555
O2_4 Cl1_4 1_555 1_555
O3_4 Cl1_4 1_555 1_555
O4_4 Cl1_4 1_555 1_555
Cl1_5 O1_5 1_555 1_555
O2_5 Cl1_5 1_555 1_555
O3_5 Cl1_5 1_555 1_555
O4_5 Cl1_5 1_555 1_555
Cl1_6 O1_6 1_555 1_555
O2_6 Cl1_6 1_555 1_555
O3_6 Cl1_6 1_555 1_555
O4_6 Cl1_6 1_555 1_555
O2_7 Cl1_7 1_555 1_555
O3_7 Cl1_7 1_555 1_555
O4_7 Cl1_7 1_555 1_555
O2_8 Cl1_8 1_555 1_555
O3_8 Cl1_8 1_555 1_555
O4_8 Cl1_8 1_555 1_555
Cl1_9 O1_9 1_555 1_555
O2_9 Cl1_9 1_555 1_555
O3_9 Cl1_9 1_555 1_555
O4_9 Cl1_9 1_555 1_555
Cl1_10 O1_10 1_555 1_555
O2_10 Cl1_10 1_555 1_555
O3_10 Cl1_10 1_555 1_555
O4_10 Cl1_10 1_555 1_555
Cl1_11 O1_11 1_555 1_555
O2_11 Cl1_11 1_555 1_555
O3_11 Cl1_11 1_555 1_555
O4_11 Cl1_11 1_555 1_555
Cl1_12 O1_12 1_555 1_555
O2_12 Cl1_12 1_555 1_555
O3_12 Cl1_12 1_555 1_555
O4_12 Cl1_12 1_555 1_555
Cl1_13 O1_13 1_555 1_555
O2_13 Cl1_13 1_555 1_555
O3_13 Cl1_13 1_555 1_555
O4_13 Cl1_13 1_555 1_555
Cl1_14 O1_14 1_555 1_555
O2_14 Cl1_14 1_555 1_555
O3_14 Cl1_14 1_555 1_555
O4_14 Cl1_14 1_555 1_555
Cl1_15 O1_15 1_555 1_555
O2_15 Cl1_15 1_555 1_555
O3_15 Cl1_15 1_555 1_555
O4_15 Cl1_15 1_555 1_555
O2_16 Cl1_16 1_555 1_555
O3_16 Cl1_16 1_555 1_555
O4_16 Cl1_16 1_555 1_555
O2_17 Cl1_17 1_555 1_555
O3_17 Cl1_17 1_555 1_555
O4_17 Cl1_17 1_555 1_555
Cl1_18 O1_18 1_555 1_555
O2_18 Cl1_18 1_555 1_555
O3_18 Cl1_18 1_555 1_555
O4_18 Cl1_18 1_555 1_555

#END
