
###############################################################################
#
# This file contains modified crystal structure data generated from the
# MOF subset of the Cambridge Structural Database (CSD) v543 
# hosted by the Cambridge Crystallographic Data Centre (CCDC).
#
# This work is licensed under the Creative Commons
# Attribution-NonCommercial-ShareAlike 4.0 International License.
# To view a copy of this license, visit
# http://creativecommons.org/licenses/by-nc-sa/4.0/
# or send a letter to
# Creative Commons, PO Box 1866, Mountain View, CA 94042, USA.
#
# CIF created using the CSD Python API on 29 September 2022
# The structure has been converted into the P1 space group
# The structure has a 3D framework
# The original CSD entry TAMJAU is in the rhombohedral crystal system
# The framework has been calculated to contain at least 10.0% void space
# The void calculation uses a probe of radius 1.32A, grid spacing 0.4
# The framework is charged, counterions have been retained in the structure
#
###############################################################################

data_TAMJAU
_chemical_formula_moiety         '(C162 H144 Ag18 Cl18 N72 O72)n'
_symmetry_cell_setting           triclinic
_symmetry_space_group_name_H-M   'P 1'
_symmetry_Int_Tables_number      1
_space_group_name_Hall           'P 1'
loop_
_symmetry_equiv_pos_site_id
_symmetry_equiv_pos_as_xyz
1 x,y,z
_cell_length_a                   28.3911(13)
_cell_length_b                   28.3911(13)
_cell_length_c                   11.7766(17)
_cell_angle_alpha                90
_cell_angle_beta                 90
_cell_angle_gamma                120
_cell_volume                     8220.82
loop_
_atom_site_label
_atom_site_type_symbol
_atom_site_fract_x
_atom_site_fract_y
_atom_site_fract_z
Cl1 Cl 0.78804(9) 0.06068(9) 0.3383(2)
O1 O 0.8389(3) 0.0734(3) 0.3032(7)
O2 O 0.7561(3) 0.0055(3) 0.3596(10)
O3 O 0.7621(4) 0.0761(4) 0.2531(9)
O4 O 0.7964(4) 0.0935(4) 0.4396(7)
Cl1_2 Cl 0.93932(9) 0.72736(13) 0.3383(2)
O1_2 O 0.9266(3) 0.7655(4) 0.3032(7)
O2_2 O 0.9945(3) 0.7506(4) 0.3596(10)
O3_2 O 0.9239(4) 0.6860(6) 0.2531(9)
O4_2 O 0.9065(4) 0.7029(6) 0.4396(7)
Cl1_3 Cl 0.27264(13) 0.21196(9) 0.3383(2)
O1_3 O 0.2345(4) 0.1611(3) 0.3032(7)
O2_3 O 0.2494(4) 0.2439(3) 0.3596(10)
O3_3 O 0.3140(6) 0.2379(4) 0.2531(9)
O4_3 O 0.2971(6) 0.2036(4) 0.4396(7)
Cl1_4 Cl 0.45471(9) 0.39401(9) 0.6716(2)
O1_4 O 0.5056(3) 0.4067(3) 0.6365(7)
O2_4 O 0.4228(3) 0.3388(3) 0.6929(10)
O3_4 O 0.4288(4) 0.4094(4) 0.5864(9)
O4_4 O 0.4631(4) 0.4268(4) 0.7729(7)
Cl1_5 Cl 0.60599(9) 0.06069(13) 0.6716(2)
O1_5 O 0.5933(3) 0.0988(4) 0.6365(7)
O2_5 O 0.6612(3) 0.0839(4) 0.6929(10)
O3_5 O 0.5906(4) 0.0193(6) 0.5864(9)
O4_5 O 0.5732(4) 0.0362(6) 0.7729(7)
Cl1_6 Cl 0.93931(13) 0.54529(9) 0.6716(2)
O1_6 O 0.9012(4) 0.4944(3) 0.6365(7)
O2_6 O 0.9161(4) 0.5772(3) 0.6929(10)
O3_6 O 0.9807(6) 0.5712(4) 0.5864(9)
O4_6 O 0.9638(6) 0.5369(4) 0.7729(7)
Cl1_7 Cl 0.12137(9) 0.72735(9) 0.0050(2)
O2_7 O 0.0894(3) 0.6722(3) 0.0263(10)
O4_7 O 0.1297(4) 0.7602(4) 0.1063(7)
O1_7 O 0.1722(3) 0.7401(3) 0.9699(7)
O3_7 O 0.0954(4) 0.7428(4) 0.9198(9)
Cl1_8 Cl 0.27265(9) 0.39403(13) 0.0050(2)
O2_8 O 0.3278(3) 0.4173(4) 0.0263(10)
O4_8 O 0.2398(4) 0.3696(6) 0.1063(7)
O1_8 O 0.2599(3) 0.4322(4) 0.9699(7)
O3_8 O 0.2572(4) 0.3527(6) 0.9198(9)
Cl1_9 Cl 0.60597(13) 0.87863(9) 0.0050(2)
O2_9 O 0.5827(4) 0.9106(3) 0.0263(10)
O4_9 O 0.6304(6) 0.8703(4) 0.1063(7)
O1_9 O 0.5678(4) 0.8278(3) 0.9699(7)
O3_9 O 0.6473(6) 0.9046(4) 0.9198(9)
Cl1_10 Cl 0.21196(9) 0.93932(9) 0.6617(2)
O1_10 O 0.1611(3) 0.9266(3) 0.6968(7)
O2_10 O 0.2439(3) 0.9945(3) 0.6404(10)
O3_10 O 0.2379(4) 0.9239(4) 0.7469(9)
O4_10 O 0.2036(4) 0.9065(4) 0.5604(7)
Cl1_11 Cl 0.06068(9) 0.27264(13) 0.6617(2)
O1_11 O 0.0734(3) 0.2345(4) 0.6968(7)
O2_11 O 0.0055(3) 0.2494(4) 0.6404(10)
O3_11 O 0.0761(4) 0.3140(6) 0.7469(9)
O4_11 O 0.0935(4) 0.2971(6) 0.5604(7)
Cl1_12 Cl 0.72736(13) 0.78804(9) 0.6617(2)
O1_12 O 0.7655(4) 0.8389(3) 0.6968(7)
O2_12 O 0.7506(4) 0.7561(3) 0.6404(10)
O3_12 O 0.6860(6) 0.7621(4) 0.7469(9)
O4_12 O 0.7029(6) 0.7964(4) 0.5604(7)
Cl1_13 Cl 0.54529(9) 0.60599(9) 0.3284(2)
O1_13 O 0.4944(3) 0.5933(3) 0.3635(7)
O2_13 O 0.5772(3) 0.6612(3) 0.3071(10)
O3_13 O 0.5712(4) 0.5906(4) 0.4136(9)
O4_13 O 0.5369(4) 0.5732(4) 0.2271(7)
Cl1_14 Cl 0.39401(9) 0.93931(13) 0.3284(2)
O1_14 O 0.4067(3) 0.9012(4) 0.3635(7)
O2_14 O 0.3388(3) 0.9161(4) 0.3071(10)
O3_14 O 0.4094(4) 0.9807(6) 0.4136(9)
O4_14 O 0.4268(4) 0.9638(6) 0.2271(7)
Cl1_15 Cl 0.06069(13) 0.45471(9) 0.3284(2)
O1_15 O 0.0988(4) 0.5056(3) 0.3635(7)
O2_15 O 0.0839(4) 0.4228(3) 0.3071(10)
O3_15 O 0.0193(6) 0.4288(4) 0.4136(9)
O4_15 O 0.0362(6) 0.4631(4) 0.2271(7)
O1_16 O 0.8278(3) 0.2599(3) 0.0301(7)
O3_16 O 0.9046(4) 0.2572(4) 0.0802(9)
Cl1_16 Cl 0.87863(9) 0.27265(9) 0.9950(2)
O2_16 O 0.9106(3) 0.3278(3) 0.9737(10)
O4_16 O 0.8703(4) 0.2398(4) 0.8937(7)
O1_17 O 0.7401(3) 0.5678(4) 0.0301(7)
O3_17 O 0.7428(4) 0.6473(6) 0.0802(9)
Cl1_17 Cl 0.72735(9) 0.60597(13) 0.9950(2)
O2_17 O 0.6722(3) 0.5827(4) 0.9737(10)
O4_17 O 0.7602(4) 0.6304(6) 0.8937(7)
O1_18 O 0.4322(4) 0.1722(3) 0.0301(7)
O3_18 O 0.3527(6) 0.0954(4) 0.0802(9)
Cl1_18 Cl 0.39403(13) 0.12137(9) 0.9950(2)
O2_18 O 0.4173(4) 0.0894(3) 0.9737(10)
O4_18 O 0.3696(6) 0.1297(4) 0.8937(7)
C1 C 0.6088(3) 0.6448(3) 0.0087(7)
H1 H 0.6070 0.6105 0.0107
C2 C 0.6156(3) 0.7413(3) 0.0116(9)
H2 H 0.6169 0.7754 0.0135
N3 N 0.6545(3) 0.7365(2) 0.0663(6)
C9 C 0.6499(3) 0.6872(3) 0.0636(7)
H8 H 0.6765 0.6819 0.1014
Ag3 Ag 0.73399(4) 0.81132(4) 0.14015(7)
Ag1 Ag 0.52201(4) 0.58933(2) 0.80682(7)
N1 N 0.5702(2) 0.6493(2) 0.9514(6)
N2 N 0.5484(3) 0.6757(3) 0.7079(10)
C3 C 0.5493(4) 0.7168(3) 0.7602(10)
C4 C 0.5647(4) 0.7656(4) 0.7143(12)
H3 H 0.5667 0.7940 0.7604
C5 C 0.5634(3) 0.6847(4) 0.6012(12)
H4 H 0.5644 0.6567 0.5591
C6 C 0.5740(3) 0.6991(3) 0.9526(9)
C7 C 0.5327(4) 0.7056(3) 0.8874(12)
H5 H 0.4968 0.6722 0.8942
H6 H 0.5297 0.7363 0.9191
C8 C 0.5783(3) 0.7350(4) 0.5455(11)
H7 H 0.5888 0.7404 0.4679
N4 N 0.5771(3) 0.7744(3) 0.6062(11)
Ag2 Ag 0.74400(2) 0.59935(4) 0.47349(7)
Ag4 Ag 0.59935(4) 0.85534(4) 0.52651(7)
Ag5 Ag 0.47799(4) 0.41067(2) 0.19318(7)
N5 N 0.6840(2) 0.5876(3) 0.6181(6)
C10 C 0.6885(3) 0.6307(4) 0.6754(7)
H9 H 0.7228 0.6632 0.6774
N6 N 0.6576(3) 0.5394(4) 0.3746(10)
C11 C 0.5920(3) 0.5410(4) 0.6783(9)
H10 H 0.5579 0.5082 0.6802
C12 C 0.6165(3) 0.4992(5) 0.4269(10)
C13 C 0.5677(4) 0.4658(6) 0.3810(12)
H11 H 0.5393 0.4394 0.4271
N7 N 0.5968(2) 0.5847(4) 0.7330(6)
N8 N 0.7487(4) 0.6788(3) 0.3996(6)
C14 C 0.6486(4) 0.5454(5) 0.2679(12)
H12 H 0.6766 0.5744 0.2258
C15 C 0.6342(3) 0.5416(4) 0.6193(9)
C16 C 0.6277(3) 0.4938(5) 0.5541(12)
H13 H 0.6611 0.4913 0.5609
H14 H 0.5970 0.4601 0.5858
C17 C 0.5983(4) 0.5100(5) 0.2122(11)
H15 H 0.5929 0.5151 0.1346
C18 C 0.6461(3) 0.6294(4) 0.7303(7)
H16 H 0.6514 0.6613 0.7681
N9 N 0.5589(3) 0.4694(4) 0.2729(11)
N10 N 0.4411(3) 0.5306(4) 0.7271(11)
N11 N 0.8027(4) 0.5771(3) 0.3938(11)
Ag2_2 Ag 0.40065(4) 0.14466(4) 0.47349(7)
Ag5_2 Ag 0.58933(2) 0.06732(4) 0.19318(7)
N5_2 N 0.4124(3) 0.0965(4) 0.6181(6)
C10_2 C 0.3693(4) 0.0579(5) 0.6754(7)
H9_2 H 0.3368 0.0597 0.6774
N6_2 N 0.4606(4) 0.1183(5) 0.3746(10)
C11_2 C 0.4590(4) 0.0511(5) 0.6783(9)
H10_2 H 0.4918 0.0498 0.6802
C12_2 C 0.5008(5) 0.1174(6) 0.4269(10)
C13_2 C 0.5342(6) 0.1020(7) 0.3810(12)
H11_2 H 0.5606 0.1000 0.4271
N7_2 N 0.4153(4) 0.0122(4) 0.7330(6)
N8_2 N 0.3212(3) 0.0698(5) 0.3996(6)
C14_2 C 0.4546(5) 0.1033(6) 0.2679(12)
H12_2 H 0.4256 0.1023 0.2258
C15_2 C 0.4584(4) 0.0927(5) 0.6193(9)
C16_2 C 0.5062(5) 0.1340(6) 0.5541(12)
H13_2 H 0.5087 0.1699 0.5609
H14_2 H 0.5399 0.1370 0.5858
C17_2 C 0.4900(5) 0.0884(6) 0.2122(11)
H15_2 H 0.4849 0.0779 0.1346
C18_2 C 0.3706(4) 0.0168(5) 0.7303(7)
N9_2 N 0.5306(4) 0.0896(5) 0.2729(11)
N11_2 N 0.4229(3) 0.2256(5) 0.3938(11)
C1_2 C 0.3552(3) 0.9640(4) 0.0087(7)
H1_2 H 0.3895 0.9965 0.0107
C2_2 C 0.2587(3) 0.8743(4) 0.0116(9)
H2_2 H 0.2246 0.8415 0.0135
N3_2 N 0.2635(2) 0.9180(4) 0.0663(6)
C9_2 C 0.3128(3) 0.9627(4) 0.0636(7)
H8_2 H 0.3181 0.9946 0.1014
Ag3_2 Ag 0.18868(4) 0.92266(6) 0.14015(7)
Ag1_2 Ag 0.41067(2) 0.93268(4) 0.80682(7)
N1_2 N 0.3507(2) 0.9209(3) 0.9514(6)
N2_2 N 0.3243(3) 0.8727(4) 0.7079(10)
C3_2 C 0.2832(3) 0.8325(5) 0.7602(10)
C4_2 C 0.2344(4) 0.7991(6) 0.7143(12)
H3_2 H 0.2060 0.7727 0.7604
C5_2 C 0.3153(4) 0.8787(5) 0.6012(12)
H4_2 H 0.3433 0.9077 0.5591
C6_2 C 0.3009(3) 0.8749(4) 0.9526(9)
C7_2 C 0.2944(3) 0.8271(5) 0.8874(12)
H5_2 H 0.3278 0.8246 0.8942
H6_2 H 0.2637 0.7934 0.9191
C8_2 C 0.2650(4) 0.8433(5) 0.5455(11)
H7_2 H 0.2596 0.8484 0.4679
N4_2 N 0.2256(3) 0.8027(4) 0.6062(11)
Ag4_2 Ag 0.14466(4) 0.74400(6) 0.52651(7)
H16_2 H 0.3387 0.9902 0.7681
N10_2 N 0.4694(4) 0.9104(5) 0.7271(11)
C1_3 C 0.0360(4) 0.3912(3) 0.0087(7)
H1_3 H 0.0035 0.3930 0.0107
C2_3 C 0.1257(4) 0.3844(3) 0.0116(9)
H2_3 H 0.1585 0.3831 0.0135
N3_3 N 0.0820(4) 0.3455(3) 0.0663(6)
C9_3 C 0.0373(4) 0.3501(3) 0.0636(7)
H8_3 H 0.0054 0.3235 0.1014
Ag3_3 Ag 0.07734(6) 0.26601(4) 0.14015(7)
Ag1_3 Ag 0.06732(4) 0.47799(4) 0.80682(7)
N1_3 N 0.0791(3) 0.4298(2) 0.9514(6)
N2_3 N 0.1273(4) 0.4516(3) 0.7079(10)
C3_3 C 0.1675(5) 0.4507(4) 0.7602(10)
C4_3 C 0.2009(6) 0.4353(4) 0.7143(12)
H3_3 H 0.2273 0.4333 0.7604
C5_3 C 0.1213(5) 0.4366(3) 0.6012(12)
H4_3 H 0.0923 0.4356 0.5591
C6_3 C 0.1251(4) 0.4260(3) 0.9526(9)
C7_3 C 0.1729(5) 0.4673(4) 0.8874(12)
H5_3 H 0.1754 0.5032 0.8942
H6_3 H 0.2066 0.4703 0.9191
C8_3 C 0.1567(5) 0.4217(3) 0.5455(11)
H7_3 H 0.1516 0.4112 0.4679
N4_3 N 0.1973(4) 0.4229(3) 0.6062(11)
Ag4_3 Ag 0.25600(6) 0.40065(4) 0.52651(7)
H16_3 H 0.0098 0.3486 0.7681
N10_3 N 0.0896(5) 0.5589(3) 0.7271(11)
Ag2_3 Ag 0.85534(4) 0.25600(2) 0.47349(7)
Ag5_3 Ag 0.93268(4) 0.52201(4) 0.19318(7)
N5_3 N 0.9035(4) 0.3160(2) 0.6181(6)
C10_3 C 0.9421(5) 0.3115(3) 0.6754(7)
H9_3 H 0.9403 0.2772 0.6774
N6_3 N 0.8817(5) 0.3424(3) 0.3746(10)
C11_3 C 0.9489(5) 0.4080(3) 0.6783(9)
H10_3 H 0.9502 0.4421 0.6802
C12_3 C 0.8826(6) 0.3835(3) 0.4269(10)
C13_3 C 0.8980(7) 0.4323(4) 0.3810(12)
H11_3 H 0.9000 0.4607 0.4271
N7_3 N 0.9878(4) 0.4032(2) 0.7330(6)
N8_3 N 0.9302(5) 0.2513(4) 0.3996(6)
C14_3 C 0.8967(6) 0.3514(4) 0.2679(12)
H12_3 H 0.8977 0.3234 0.2258
C15_3 C 0.9073(5) 0.3658(3) 0.6193(9)
C16_3 C 0.8660(6) 0.3723(3) 0.5541(12)
H13_3 H 0.8301 0.3389 0.5609
H14_3 H 0.8630 0.4030 0.5858
C17_3 C 0.9116(6) 0.4017(4) 0.2122(11)
H15_3 H 0.9221 0.4071 0.1346
C18_3 C 0.9832(5) 0.3539(3) 0.7303(7)
N9_3 N 0.9104(5) 0.4411(3) 0.2729(11)
N11_3 N 0.7744(5) 0.1973(4) 0.3938(11)
N2_4 N 0.2151(3) 0.0090(3) 0.0412(10)
C2_4 C 0.2823(3) 0.0746(3) 0.3449(9)
H2_4 H 0.2836 0.1087 0.3468
C3_4 C 0.2160(4) 0.0501(3) 0.0935(10)
C4_4 C 0.2314(4) 0.0989(4) 0.0476(12)
H3_4 H 0.2334 0.1273 0.0937
C6_4 C 0.2407(3) 0.0324(3) 0.2859(9)
C7_4 C 0.1994(4) 0.0389(3) 0.2207(12)
H5_4 H 0.1635 0.0055 0.2275
H6_4 H 0.1964 0.0696 0.2524
C9_4 C 0.3166(3) 0.0205(3) 0.3969(7)
H8_4 H 0.3432 0.0152 0.4347
C5_4 C 0.2301(3) 0.0180(4) 0.9345(12)
C8_4 C 0.2450(3) 0.0683(4) 0.8788(11)
H7_4 H 0.2555 0.0737 0.8012
N4_4 N 0.2438(3) 0.1077(3) 0.9395(11)
Ag4_4 Ag 0.26601(4) 0.18868(4) 0.85985(7)
N1_4 N 0.2369(2) 0.9826(2) 0.2847(6)
C1_4 C 0.2755(3) 0.9781(3) 0.3420(7)
H1_4 H 0.2737 0.9438 0.3440
N10_4 N 0.1077(3) 0.8640(4) 0.0605(11)
H4_4 H 0.2311 0.9900 0.8924
N1_5 N 0.0174(2) 0.2542(3) 0.2847(6)
C1_5 C 0.0219(3) 0.2973(4) 0.3420(7)
H1_5 H 0.0562 0.3298 0.3440
N10_5 N 0.1360(4) 0.2438(5) 0.0605(11)
H4_5 H 0.0100 0.2410 0.8924
N2_5 N 0.9910(3) 0.2060(4) 0.0412(10)
C2_5 C 0.9254(3) 0.2076(4) 0.3449(9)
H2_5 H 0.8913 0.1748 0.3468
C3_5 C 0.9499(3) 0.1658(5) 0.0935(10)
C4_5 C 0.9011(4) 0.1324(6) 0.0476(12)
H3_5 H 0.8727 0.1060 0.0937
C6_5 C 0.9676(3) 0.2082(4) 0.2859(9)
C7_5 C 0.9611(3) 0.1604(5) 0.2207(12)
H5_5 H 0.9945 0.1579 0.2275
H6_5 H 0.9304 0.1267 0.2524
C9_5 C 0.9795(3) 0.2960(4) 0.3969(7)
H8_5 H 0.9848 0.3279 0.4347
C5_5 C 0.9820(4) 0.2120(5) 0.9345(12)
C8_5 C 0.9317(4) 0.1766(5) 0.8788(11)
H7_5 H 0.9263 0.1817 0.8012
N4_5 N 0.8923(3) 0.1360(4) 0.9395(11)
Ag4_5 Ag 0.81132(4) 0.07734(6) 0.85985(7)
N1_6 N 0.7458(3) 0.7631(2) 0.2847(6)
C1_6 C 0.7027(4) 0.7245(3) 0.3420(7)
H1_6 H 0.6702 0.7263 0.3440
N2_6 N 0.7940(4) 0.7849(3) 0.0412(10)
C2_6 C 0.7924(4) 0.7177(3) 0.3449(9)
H2_6 H 0.8252 0.7164 0.3468
C3_6 C 0.8342(5) 0.7840(4) 0.0935(10)
C4_6 C 0.8676(6) 0.7686(4) 0.0476(12)
H3_6 H 0.8940 0.7666 0.0937
C6_6 C 0.7918(4) 0.7593(3) 0.2859(9)
C7_6 C 0.8396(5) 0.8006(4) 0.2207(12)
H5_6 H 0.8421 0.8365 0.2275
H6_6 H 0.8733 0.8036 0.2524
C9_6 C 0.7040(4) 0.6834(3) 0.3969(7)
H8_6 H 0.6721 0.6568 0.4347
N10_6 N 0.7562(5) 0.8923(3) 0.0605(11)
C5_6 C 0.7880(5) 0.7699(3) 0.9345(12)
H4_6 H 0.7590 0.7689 0.8924
C8_6 C 0.8234(5) 0.7550(3) 0.8788(11)
H7_6 H 0.8183 0.7445 0.8012
N4_6 N 0.8640(4) 0.7562(3) 0.9395(11)
Ag4_6 Ag 0.92266(6) 0.73399(4) 0.85985(7)
N1_7 N 0.4298(2) 0.3507(2) 0.0486(6)
N2_7 N 0.4516(3) 0.3243(3) 0.2921(10)
C3_7 C 0.4507(4) 0.2832(3) 0.2398(10)
C4_7 C 0.4353(4) 0.2344(4) 0.2857(12)
H3_7 H 0.4333 0.2060 0.2396
C5_7 C 0.4366(3) 0.3153(4) 0.3988(12)
H4_7 H 0.4356 0.3433 0.4409
C6_7 C 0.4260(3) 0.3009(3) 0.0474(9)
C7_7 C 0.4673(4) 0.2944(3) 0.1126(12)
H5_7 H 0.5032 0.3278 0.1058
H6_7 H 0.4703 0.2637 0.0809
C8_7 C 0.4217(3) 0.2650(4) 0.4545(11)
H7_7 H 0.4112 0.2596 0.5321
N5_4 N 0.3160(2) 0.4124(3) 0.3819(6)
C10_4 C 0.3115(3) 0.3693(4) 0.3246(7)
H9_4 H 0.2772 0.3368 0.3226
N6_4 N 0.3424(3) 0.4606(4) 0.6254(10)
C11_4 C 0.4080(3) 0.4590(4) 0.3217(9)
H10_4 H 0.4421 0.4918 0.3198
C12_4 C 0.3835(3) 0.5008(5) 0.5731(10)
C13_4 C 0.4323(4) 0.5342(6) 0.6190(12)
H11_4 H 0.4607 0.5606 0.5729
N7_4 N 0.4032(2) 0.4153(4) 0.2670(6)
N8_4 N 0.2513(4) 0.3212(3) 0.6004(6)
C14_4 C 0.3514(4) 0.4546(5) 0.7321(12)
H12_4 H 0.3234 0.4256 0.7742
C15_4 C 0.3658(3) 0.4584(4) 0.3807(9)
C16_4 C 0.3723(3) 0.5062(5) 0.4459(12)
H13_4 H 0.3389 0.5087 0.4391
H14_4 H 0.4030 0.5399 0.4142
C17_4 C 0.4017(4) 0.4900(5) 0.7878(11)
H15_4 H 0.4071 0.4849 0.8654
C18_4 C 0.3539(3) 0.3706(4) 0.2697(7)
H16_4 H 0.3486 0.3387 0.2319
C1_7 C 0.3912(3) 0.3552(3) 0.9913(7)
H1_7 H 0.3930 0.3895 0.9893
C2_7 C 0.3844(3) 0.2587(3) 0.9884(9)
H2_7 H 0.3831 0.2246 0.9865
N3_4 N 0.3455(3) 0.2635(2) 0.9337(6)
C9_7 C 0.3501(3) 0.3128(3) 0.9364(7)
H8_7 H 0.3235 0.3181 0.8986
N1_8 N 0.6493(2) 0.0791(3) 0.0486(6)
N2_8 N 0.6757(3) 0.1273(4) 0.2921(10)
C3_8 C 0.7168(3) 0.1675(5) 0.2398(10)
C4_8 C 0.7656(4) 0.2009(6) 0.2857(12)
H3_8 H 0.7940 0.2273 0.2396
C5_8 C 0.6847(4) 0.1213(5) 0.3988(12)
H4_8 H 0.6567 0.0923 0.4409
C6_8 C 0.6991(3) 0.1251(4) 0.0474(9)
C7_8 C 0.7056(3) 0.1729(5) 0.1126(12)
H5_8 H 0.6722 0.1754 0.1058
H6_8 H 0.7363 0.2066 0.0809
C8_8 C 0.7350(4) 0.1567(5) 0.4545(11)
H7_8 H 0.7404 0.1516 0.5321
H16_5 H 0.6613 0.0098 0.2319
C1_8 C 0.6448(3) 0.0360(4) 0.9913(7)
H1_8 H 0.6105 0.0035 0.9893
C2_8 C 0.7413(3) 0.1257(4) 0.9884(9)
H2_8 H 0.7754 0.1585 0.9865
N3_5 N 0.7365(2) 0.0820(4) 0.9337(6)
C9_8 C 0.6872(3) 0.0373(4) 0.9364(7)
H8_8 H 0.6819 0.0054 0.8986
N5_5 N 0.5876(3) 0.9035(4) 0.3819(6)
C10_5 C 0.6307(4) 0.9421(5) 0.3246(7)
H9_5 H 0.6632 0.9403 0.3226
N6_5 N 0.5394(4) 0.8817(5) 0.6254(10)
C11_5 C 0.5410(4) 0.9489(5) 0.3217(9)
H10_5 H 0.5082 0.9502 0.3198
C12_5 C 0.4992(5) 0.8826(6) 0.5731(10)
C13_5 C 0.4658(6) 0.8980(7) 0.6190(12)
H11_5 H 0.4394 0.9000 0.5729
N7_5 N 0.5847(4) 0.9878(4) 0.2670(6)
N8_5 N 0.6788(3) 0.9302(5) 0.6004(6)
C14_5 C 0.5454(5) 0.8967(6) 0.7321(12)
H12_5 H 0.5744 0.8977 0.7742
C15_5 C 0.5416(4) 0.9073(5) 0.3807(9)
C16_5 C 0.4938(5) 0.8660(6) 0.4459(12)
H13_5 H 0.4913 0.8301 0.4391
H14_5 H 0.4601 0.8630 0.4142
C17_5 C 0.5100(5) 0.9116(6) 0.7878(11)
H15_5 H 0.5151 0.9221 0.8654
C18_5 C 0.6294(4) 0.9832(5) 0.2697(7)
N5_6 N 0.0965(4) 0.6840(2) 0.3819(6)
C10_6 C 0.0579(5) 0.6885(3) 0.3246(7)
H9_6 H 0.0597 0.7228 0.3226
N6_6 N 0.1183(5) 0.6576(3) 0.6254(10)
C11_6 C 0.0511(5) 0.5920(3) 0.3217(9)
H10_6 H 0.0498 0.5579 0.3198
C12_6 C 0.1174(6) 0.6165(3) 0.5731(10)
C13_6 C 0.1020(7) 0.5677(4) 0.6190(12)
H11_6 H 0.1000 0.5393 0.5729
N7_6 N 0.0122(4) 0.5968(2) 0.2670(6)
N8_6 N 0.0698(5) 0.7487(4) 0.6004(6)
C14_6 C 0.1033(6) 0.6486(4) 0.7321(12)
H12_6 H 0.1023 0.6766 0.7742
C15_6 C 0.0927(5) 0.6342(3) 0.3807(9)
C16_6 C 0.1340(6) 0.6277(3) 0.4459(12)
H13_6 H 0.1699 0.6611 0.4391
H14_6 H 0.1370 0.5970 0.4142
C17_6 C 0.0884(6) 0.5983(4) 0.7878(11)
H15_6 H 0.0779 0.5929 0.8654
C18_6 C 0.0168(5) 0.6461(3) 0.2697(7)
N1_9 N 0.9209(3) 0.5702(2) 0.0486(6)
N2_9 N 0.8727(4) 0.5484(3) 0.2921(10)
C3_9 C 0.8325(5) 0.5493(4) 0.2398(10)
C4_9 C 0.7991(6) 0.5647(4) 0.2857(12)
H3_9 H 0.7727 0.5667 0.2396
C5_9 C 0.8787(5) 0.5634(3) 0.3988(12)
H4_9 H 0.9077 0.5644 0.4409
C6_9 C 0.8749(4) 0.5740(3) 0.0474(9)
C7_9 C 0.8271(5) 0.5327(4) 0.1126(12)
H5_9 H 0.8246 0.4968 0.1058
H6_9 H 0.7934 0.5297 0.0809
C8_9 C 0.8433(5) 0.5783(3) 0.4545(11)
H7_9 H 0.8484 0.5888 0.5321
H16_6 H 0.9902 0.6514 0.2319
C1_9 C 0.9640(4) 0.6088(3) 0.9913(7)
H1_9 H 0.9965 0.6070 0.9893
C2_9 C 0.8743(4) 0.6156(3) 0.9884(9)
H2_9 H 0.8415 0.6169 0.9865
N3_6 N 0.9180(4) 0.6545(3) 0.9337(6)
C9_9 C 0.9627(4) 0.6499(3) 0.9364(7)
H8_9 H 0.9946 0.6765 0.8986
H4_10 H 0.7689 0.0100 0.1076
N1_10 N 0.7631(2) 0.0174(2) 0.7153(6)
C1_10 C 0.7245(3) 0.0219(3) 0.6580(7)
H1_10 H 0.7263 0.0562 0.6560
C5_10 C 0.7699(3) 0.9820(4) 0.0655(12)
C8_10 C 0.7550(3) 0.9317(4) 0.1212(11)
H7_10 H 0.7445 0.9263 0.1988
N2_10 N 0.7849(3) 0.9910(3) 0.9588(10)
C2_10 C 0.7177(3) 0.9254(3) 0.6551(9)
H2_10 H 0.7164 0.8913 0.6532
C3_10 C 0.7840(4) 0.9499(3) 0.9065(10)
C4_10 C 0.7686(4) 0.9011(4) 0.9524(12)
H3_10 H 0.7666 0.8727 0.9063
C6_10 C 0.7593(3) 0.9676(3) 0.7141(9)
C7_10 C 0.8006(4) 0.9611(3) 0.7793(12)
H5_10 H 0.8365 0.9945 0.7725
H6_10 H 0.8036 0.9304 0.7476
C9_10 C 0.6834(3) 0.9795(3) 0.6031(7)
H8_10 H 0.6568 0.9848 0.5653
C5_11 C 0.0180(4) 0.7880(5) 0.0655(12)
C8_11 C 0.0683(4) 0.8234(5) 0.1212(11)
H7_11 H 0.0737 0.8183 0.1988
N2_11 N 0.0090(3) 0.7940(4) 0.9588(10)
C2_11 C 0.0746(3) 0.7924(4) 0.6551(9)
H2_11 H 0.1087 0.8252 0.6532
C3_11 C 0.0501(3) 0.8342(5) 0.9065(10)
C4_11 C 0.0989(4) 0.8676(6) 0.9524(12)
H3_11 H 0.1273 0.8940 0.9063
C6_11 C 0.0324(3) 0.7918(4) 0.7141(9)
C7_11 C 0.0389(3) 0.8396(5) 0.7793(12)
H5_11 H 0.0055 0.8421 0.7725
H6_11 H 0.0696 0.8733 0.7476
C9_11 C 0.0205(3) 0.7040(4) 0.6031(7)
H8_11 H 0.0152 0.6721 0.5653
H4_11 H 0.9900 0.7590 0.1076
N1_11 N 0.9826(2) 0.7458(3) 0.7153(6)
C1_11 C 0.9781(3) 0.7027(4) 0.6580(7)
H1_11 H 0.9438 0.6702 0.6560
C5_12 C 0.2120(5) 0.2301(3) 0.0655(12)
H4_12 H 0.2410 0.2311 0.1076
C8_12 C 0.1766(5) 0.2450(3) 0.1212(11)
H7_12 H 0.1817 0.2555 0.1988
N1_12 N 0.2542(3) 0.2369(2) 0.7153(6)
C1_12 C 0.2973(4) 0.2755(3) 0.6580(7)
H1_12 H 0.3298 0.2737 0.6560
N2_12 N 0.2060(4) 0.2151(3) 0.9588(10)
C2_12 C 0.2076(4) 0.2823(3) 0.6551(9)
H2_12 H 0.1748 0.2836 0.6532
C3_12 C 0.1658(5) 0.2160(4) 0.9065(10)
C4_12 C 0.1324(6) 0.2314(4) 0.9524(12)
H3_12 H 0.1060 0.2334 0.9063
C6_12 C 0.2082(4) 0.2407(3) 0.7141(9)
C7_12 C 0.1604(5) 0.1994(4) 0.7793(12)
H5_12 H 0.1579 0.1635 0.7725
H6_12 H 0.1267 0.1964 0.7476
C9_12 C 0.2960(4) 0.3166(3) 0.6031(7)
H8_12 H 0.3279 0.3432 0.5653
loop_
_geom_bond_atom_site_label_1
_geom_bond_atom_site_label_2
_geom_bond_site_symmetry_1
_geom_bond_site_symmetry_2
Cl1 O1 1_555 1_555
O2 Cl1 1_555 1_555
O3 Cl1 1_555 1_555
O4 Cl1 1_555 1_555
Cl1_2 O1_2 1_555 1_555
O2_2 Cl1_2 1_555 1_555
O3_2 Cl1_2 1_555 1_555
O4_2 Cl1_2 1_555 1_555
Cl1_3 O1_3 1_555 1_555
O2_3 Cl1_3 1_555 1_555
O3_3 Cl1_3 1_555 1_555
O4_3 Cl1_3 1_555 1_555
Cl1_4 O1_4 1_555 1_555
O2_4 Cl1_4 1_555 1_555
O3_4 Cl1_4 1_555 1_555
O4_4 Cl1_4 1_555 1_555
Cl1_5 O1_5 1_555 1_555
O2_5 Cl1_5 1_555 1_555
O3_5 Cl1_5 1_555 1_555
O4_5 Cl1_5 1_555 1_555
Cl1_6 O1_6 1_555 1_555
O2_6 Cl1_6 1_555 1_555
O3_6 Cl1_6 1_555 1_555
O4_6 Cl1_6 1_555 1_555
O2_7 Cl1_7 1_555 1_555
O4_7 Cl1_7 1_555 1_555
O2_8 Cl1_8 1_555 1_555
O4_8 Cl1_8 1_555 1_555
O2_9 Cl1_9 1_555 1_555
O4_9 Cl1_9 1_555 1_555
Cl1_10 O1_10 1_555 1_555
O2_10 Cl1_10 1_555 1_555
O3_10 Cl1_10 1_555 1_555
O4_10 Cl1_10 1_555 1_555
Cl1_11 O1_11 1_555 1_555
O2_11 Cl1_11 1_555 1_555
O3_11 Cl1_11 1_555 1_555
O4_11 Cl1_11 1_555 1_555
Cl1_12 O1_12 1_555 1_555
O2_12 Cl1_12 1_555 1_555
O3_12 Cl1_12 1_555 1_555
O4_12 Cl1_12 1_555 1_555
Cl1_13 O1_13 1_555 1_555
O2_13 Cl1_13 1_555 1_555
O3_13 Cl1_13 1_555 1_555
O4_13 Cl1_13 1_555 1_555
Cl1_14 O1_14 1_555 1_555
O2_14 Cl1_14 1_555 1_555
O3_14 Cl1_14 1_555 1_555
O4_14 Cl1_14 1_555 1_555
Cl1_15 O1_15 1_555 1_555
O2_15 Cl1_15 1_555 1_555
O3_15 Cl1_15 1_555 1_555
O4_15 Cl1_15 1_555 1_555
O2_16 Cl1_16 1_555 1_555
O4_16 Cl1_16 1_555 1_555
O2_17 Cl1_17 1_555 1_555
O4_17 Cl1_17 1_555 1_555
O2_18 Cl1_18 1_555 1_555
O4_18 Cl1_18 1_555 1_555
C1 H1 1_555 1_555
C2 H2 1_555 1_555
N3 C2 1_555 1_555
C9 C1 1_555 1_555
H8 C9 1_555 1_555
Ag3 N3 1_555 1_555
N3 C9 1_555 1_555
Ag1 N1 1_555 1_555
N2 Ag1 1_555 1_555
C3 N2 1_555 1_555
C4 C3 1_555 1_555
H3 C4 1_555 1_555
C5 N2 1_555 1_555
H4 C5 1_555 1_555
C6 N1 1_555 1_555
C7 C3 1_555 1_555
H5 C7 1_555 1_555
H6 C7 1_555 1_555
C8 C5 1_555 1_555
H7 C8 1_555 1_555
N4 C4 1_555 1_555
Ag2 N5 1_555 1_555
Ag4 N4 1_555 1_555
Ag5 N9 1_555 1_555
N5 C10 1_555 1_555
C10 H9 1_555 1_555
N6 Ag2 1_555 1_555
C11 H10 1_555 1_555
C12 N6 1_555 1_555
C13 C12 1_555 1_555
H11 C13 1_555 1_555
N7 Ag1 1_555 1_555
N8 Ag2 1_555 1_555
C14 N6 1_555 1_555
H12 C14 1_555 1_555
C15 N5 1_555 1_555
C16 C12 1_555 1_555
H13 C16 1_555 1_555
H14 C16 1_555 1_555
C17 C14 1_555 1_555
H15 C17 1_555 1_555
C18 C10 1_555 1_555
H16 C18 1_555 1_555
N9 C13 1_555 1_555
N10 Ag1 1_555 1_555
N11 Ag2 1_555 1_555
C6 C7 1_555 1_555
C8 N4 1_555 1_555
C11 N7 1_555 1_555
C11 C15 1_555 1_555
N7 C18 1_555 1_555
C15 C16 1_555 1_555
C17 N9 1_555 1_555
Ag2_2 N5_2 1_555 1_555
Ag5_2 N9_2 1_555 1_555
N5_2 C10_2 1_555 1_555
C10_2 H9_2 1_555 1_555
N6_2 Ag2_2 1_555 1_555
C11_2 H10_2 1_555 1_555
C12_2 N6_2 1_555 1_555
C13_2 C12_2 1_555 1_555
H11_2 C13_2 1_555 1_555
N8_2 Ag2_2 1_555 1_555
C14_2 N6_2 1_555 1_555
H12_2 C14_2 1_555 1_555
C15_2 N5_2 1_555 1_555
C16_2 C12_2 1_555 1_555
H13_2 C16_2 1_555 1_555
H14_2 C16_2 1_555 1_555
C17_2 C14_2 1_555 1_555
H15_2 C17_2 1_555 1_555
C18_2 C10_2 1_555 1_555
N9_2 C13_2 1_555 1_555
N11_2 Ag2_2 1_555 1_555
C11_2 N7_2 1_555 1_555
C11_2 C15_2 1_555 1_555
N7_2 C18_2 1_555 1_555
C15_2 C16_2 1_555 1_555
C17_2 N9_2 1_555 1_555
C1_2 H1_2 1_555 1_555
C2_2 H2_2 1_555 1_555
N3_2 C2_2 1_555 1_555
C9_2 C1_2 1_555 1_555
H8_2 C9_2 1_555 1_555
Ag3_2 N3_2 1_555 1_555
N3_2 C9_2 1_555 1_555
Ag1_2 N1_2 1_555 1_555
N2_2 Ag1_2 1_555 1_555
C3_2 N2_2 1_555 1_555
C4_2 C3_2 1_555 1_555
H3_2 C4_2 1_555 1_555
C5_2 N2_2 1_555 1_555
H4_2 C5_2 1_555 1_555
C6_2 N1_2 1_555 1_555
C7_2 C3_2 1_555 1_555
H5_2 C7_2 1_555 1_555
H6_2 C7_2 1_555 1_555
C8_2 C5_2 1_555 1_555
H7_2 C8_2 1_555 1_555
N4_2 C4_2 1_555 1_555
Ag4_2 N4_2 1_555 1_555
N10_2 Ag1_2 1_555 1_555
C6_2 C7_2 1_555 1_555
C8_2 N4_2 1_555 1_555
C1_3 H1_3 1_555 1_555
C2_3 H2_3 1_555 1_555
N3_3 C2_3 1_555 1_555
C9_3 C1_3 1_555 1_555
H8_3 C9_3 1_555 1_555
Ag3_3 N3_3 1_555 1_555
N3_3 C9_3 1_555 1_555
Ag1_3 N1_3 1_555 1_555
N2_3 Ag1_3 1_555 1_555
C3_3 N2_3 1_555 1_555
C4_3 C3_3 1_555 1_555
H3_3 C4_3 1_555 1_555
C5_3 N2_3 1_555 1_555
H4_3 C5_3 1_555 1_555
C6_3 N1_3 1_555 1_555
C7_3 C3_3 1_555 1_555
H5_3 C7_3 1_555 1_555
H6_3 C7_3 1_555 1_555
C8_3 C5_3 1_555 1_555
H7_3 C8_3 1_555 1_555
N4_3 C4_3 1_555 1_555
Ag4_3 N4_3 1_555 1_555
N10_3 Ag1_3 1_555 1_555
C6_3 C7_3 1_555 1_555
C8_3 N4_3 1_555 1_555
Ag2_3 N5_3 1_555 1_555
Ag5_3 N9_3 1_555 1_555
N5_3 C10_3 1_555 1_555
C10_3 H9_3 1_555 1_555
N6_3 Ag2_3 1_555 1_555
C11_3 H10_3 1_555 1_555
C12_3 N6_3 1_555 1_555
C13_3 C12_3 1_555 1_555
H11_3 C13_3 1_555 1_555
N8_3 Ag2_3 1_555 1_555
C14_3 N6_3 1_555 1_555
H12_3 C14_3 1_555 1_555
C15_3 N5_3 1_555 1_555
C16_3 C12_3 1_555 1_555
H13_3 C16_3 1_555 1_555
H14_3 C16_3 1_555 1_555
C17_3 C14_3 1_555 1_555
H15_3 C17_3 1_555 1_555
C18_3 C10_3 1_555 1_555
N9_3 C13_3 1_555 1_555
N11_3 Ag2_3 1_555 1_555
C11_3 N7_3 1_555 1_555
C11_3 C15_3 1_555 1_555
N7_3 C18_3 1_555 1_555
C15_3 C16_3 1_555 1_555
C17_3 N9_3 1_555 1_555
C2_4 H2_4 1_555 1_555
C3_4 N2_4 1_555 1_555
C4_4 C3_4 1_555 1_555
H3_4 C4_4 1_555 1_555
N8_2 C2_4 1_555 1_555
C7_4 C3_4 1_555 1_555
H5_4 C7_4 1_555 1_555
H6_4 C7_4 1_555 1_555
H8_4 C9_4 1_555 1_555
C2_4 C6_4 1_555 1_555
N8_2 C9_4 1_555 1_555
C6_4 C7_4 1_555 1_555
C8_4 C5_4 1_555 1_555
H7_4 C8_4 1_555 1_555
Ag4_4 N4_4 1_555 1_555
C8_4 N4_4 1_555 1_555
Ag3_2 N1_4 1_555 1_555
N1_4 C1_4 1_555 1_555
C1_4 H1_4 1_555 1_555
N10_4 Ag3_2 1_555 1_555
Ag3_3 N1_5 1_555 1_555
N1_5 C1_5 1_555 1_555
C1_5 H1_5 1_555 1_555
N10_5 Ag3_3 1_555 1_555
C2_5 H2_5 1_555 1_555
C3_5 N2_5 1_555 1_555
C4_5 C3_5 1_555 1_555
H3_5 C4_5 1_555 1_555
N8_3 C2_5 1_555 1_555
C7_5 C3_5 1_555 1_555
H5_5 C7_5 1_555 1_555
H6_5 C7_5 1_555 1_555
H8_5 C9_5 1_555 1_555
C2_5 C6_5 1_555 1_555
N8_3 C9_5 1_555 1_555
C6_5 C7_5 1_555 1_555
C8_5 C5_5 1_555 1_555
H7_5 C8_5 1_555 1_555
Ag4_5 N4_5 1_555 1_555
C8_5 N4_5 1_555 1_555
Ag3 N1_6 1_555 1_555
N1_6 C1_6 1_555 1_555
C1_6 H1_6 1_555 1_555
N2_6 Ag3 1_555 1_555
C2_6 H2_6 1_555 1_555
C3_6 N2_6 1_555 1_555
C4_6 C3_6 1_555 1_555
H3_6 C4_6 1_555 1_555
N8 C2_6 1_555 1_555
C6_6 N1_6 1_555 1_555
C7_6 C3_6 1_555 1_555
H5_6 C7_6 1_555 1_555
H6_6 C7_6 1_555 1_555
C9_6 C1_6 1_555 1_555
H8_6 C9_6 1_555 1_555
N10_6 Ag3 1_555 1_555
C2_6 C6_6 1_555 1_555
N8 C9_6 1_555 1_555
C6_6 C7_6 1_555 1_555
H4_6 C5_6 1_555 1_555
C8_6 C5_6 1_555 1_555
H7_6 C8_6 1_555 1_555
Ag4_6 N4_6 1_555 1_555
C8_6 N4_6 1_555 1_555
Ag5 N1_7 1_555 1_555
N2_7 Ag5 1_555 1_555
C3_7 N2_7 1_555 1_555
C4_7 C3_7 1_555 1_555
H3_7 C4_7 1_555 1_555
C5_7 N2_7 1_555 1_555
H4_7 C5_7 1_555 1_555
C6_7 N1_7 1_555 1_555
C7_7 C3_7 1_555 1_555
H5_7 C7_7 1_555 1_555
H6_7 C7_7 1_555 1_555
C8_7 C5_7 1_555 1_555
H7_7 C8_7 1_555 1_555
N11_2 C4_7 1_555 1_555
Ag4_3 N5_4 1_555 1_555
N5_4 C10_4 1_555 1_555
C10_4 H9_4 1_555 1_555
N6_4 Ag4_3 1_555 1_555
C11_4 H10_4 1_555 1_555
C12_4 N6_4 1_555 1_555
C13_4 C12_4 1_555 1_555
H11_4 C13_4 1_555 1_555
N7_4 Ag5 1_555 1_555
N8_4 Ag4_3 1_555 1_555
C14_4 N6_4 1_555 1_555
H12_4 C14_4 1_555 1_555
C15_4 N5_4 1_555 1_555
C16_4 C12_4 1_555 1_555
H13_4 C16_4 1_555 1_555
H14_4 C16_4 1_555 1_555
C17_4 C14_4 1_555 1_555
H15_4 C17_4 1_555 1_555
C18_4 C10_4 1_555 1_555
H16_4 C18_4 1_555 1_555
N10 C13_4 1_555 1_555
C6_7 C7_7 1_555 1_555
C8_7 N11_2 1_555 1_555
C11_4 N7_4 1_555 1_555
C11_4 C15_4 1_555 1_555
N7_4 C18_4 1_555 1_555
C15_4 C16_4 1_555 1_555
C17_4 N10 1_555 1_555
C1_7 H1_7 1_555 1_555
C2_7 H2_7 1_555 1_555
N3_4 C2_7 1_555 1_555
C9_7 C1_7 1_555 1_555
H8_7 C9_7 1_555 1_555
Ag4_4 N3_4 1_555 1_555
N3_4 C9_7 1_555 1_555
Ag5_2 N1_8 1_555 1_555
N2_8 Ag5_2 1_555 1_555
C3_8 N2_8 1_555 1_555
C4_8 C3_8 1_555 1_555
H3_8 C4_8 1_555 1_555
C5_8 N2_8 1_555 1_555
H4_8 C5_8 1_555 1_555
C6_8 N1_8 1_555 1_555
C7_8 C3_8 1_555 1_555
H5_8 C7_8 1_555 1_555
H6_8 C7_8 1_555 1_555
C8_8 C5_8 1_555 1_555
H7_8 C8_8 1_555 1_555
N11_3 C4_8 1_555 1_555
C6_8 C7_8 1_555 1_555
C8_8 N11_3 1_555 1_555
C1_8 H1_8 1_555 1_555
C2_8 H2_8 1_555 1_555
N3_5 C2_8 1_555 1_555
C9_8 C1_8 1_555 1_555
H8_8 C9_8 1_555 1_555
Ag4_5 N3_5 1_555 1_555
N3_5 C9_8 1_555 1_555
Ag4 N5_5 1_555 1_555
N5_5 C10_5 1_555 1_555
C10_5 H9_5 1_555 1_555
N6_5 Ag4 1_555 1_555
C11_5 H10_5 1_555 1_555
C12_5 N6_5 1_555 1_555
C13_5 C12_5 1_555 1_555
H11_5 C13_5 1_555 1_555
N8_5 Ag4 1_555 1_555
C14_5 N6_5 1_555 1_555
H12_5 C14_5 1_555 1_555
C15_5 N5_5 1_555 1_555
C16_5 C12_5 1_555 1_555
H13_5 C16_5 1_555 1_555
H14_5 C16_5 1_555 1_555
C17_5 C14_5 1_555 1_555
H15_5 C17_5 1_555 1_555
C18_5 C10_5 1_555 1_555
N10_2 C13_5 1_555 1_555
C11_5 N7_5 1_555 1_555
C11_5 C15_5 1_555 1_555
N7_5 C18_5 1_555 1_555
C15_5 C16_5 1_555 1_555
C17_5 N10_2 1_555 1_555
Ag4_2 N5_6 1_555 1_555
N5_6 C10_6 1_555 1_555
C10_6 H9_6 1_555 1_555
N6_6 Ag4_2 1_555 1_555
C11_6 H10_6 1_555 1_555
C12_6 N6_6 1_555 1_555
C13_6 C12_6 1_555 1_555
H11_6 C13_6 1_555 1_555
N8_6 Ag4_2 1_555 1_555
C14_6 N6_6 1_555 1_555
H12_6 C14_6 1_555 1_555
C15_6 N5_6 1_555 1_555
C16_6 C12_6 1_555 1_555
H13_6 C16_6 1_555 1_555
H14_6 C16_6 1_555 1_555
C17_6 C14_6 1_555 1_555
H15_6 C17_6 1_555 1_555
C18_6 C10_6 1_555 1_555
N10_3 C13_6 1_555 1_555
C11_6 N7_6 1_555 1_555
C11_6 C15_6 1_555 1_555
N7_6 C18_6 1_555 1_555
C15_6 C16_6 1_555 1_555
C17_6 N10_3 1_555 1_555
Ag5_3 N1_9 1_555 1_555
N2_9 Ag5_3 1_555 1_555
C3_9 N2_9 1_555 1_555
C4_9 C3_9 1_555 1_555
H3_9 C4_9 1_555 1_555
C5_9 N2_9 1_555 1_555
H4_9 C5_9 1_555 1_555
C6_9 N1_9 1_555 1_555
C7_9 C3_9 1_555 1_555
H5_9 C7_9 1_555 1_555
H6_9 C7_9 1_555 1_555
C8_9 C5_9 1_555 1_555
H7_9 C8_9 1_555 1_555
N11 C4_9 1_555 1_555
C6_9 C7_9 1_555 1_555
C8_9 N11 1_555 1_555
C1_9 H1_9 1_555 1_555
C2_9 H2_9 1_555 1_555
N3_6 C2_9 1_555 1_555
C9_9 C1_9 1_555 1_555
H8_9 C9_9 1_555 1_555
Ag4_6 N3_6 1_555 1_555
N3_6 C9_9 1_555 1_555
Ag4_5 N1_10 1_555 1_555
N1_10 C1_10 1_555 1_555
C1_10 H1_10 1_555 1_555
C8_10 C5_10 1_555 1_555
H7_10 C8_10 1_555 1_555
C8_10 N10_6 1_555 1_555
C2_10 H2_10 1_555 1_555
C3_10 N2_10 1_555 1_555
C4_10 C3_10 1_555 1_555
H3_10 C4_10 1_555 1_555
N8_5 C2_10 1_555 1_555
C7_10 C3_10 1_555 1_555
H5_10 C7_10 1_555 1_555
H6_10 C7_10 1_555 1_555
H8_10 C9_10 1_555 1_555
C2_10 C6_10 1_555 1_555
N8_5 C9_10 1_555 1_555
C6_10 C7_10 1_555 1_555
C8_11 C5_11 1_555 1_555
H7_11 C8_11 1_555 1_555
C8_11 N10_4 1_555 1_555
C2_11 H2_11 1_555 1_555
C3_11 N2_11 1_555 1_555
C4_11 C3_11 1_555 1_555
H3_11 C4_11 1_555 1_555
N8_6 C2_11 1_555 1_555
C7_11 C3_11 1_555 1_555
H5_11 C7_11 1_555 1_555
H6_11 C7_11 1_555 1_555
H8_11 C9_11 1_555 1_555
C2_11 C6_11 1_555 1_555
N8_6 C9_11 1_555 1_555
C6_11 C7_11 1_555 1_555
Ag4_6 N1_11 1_555 1_555
N1_11 C1_11 1_555 1_555
C1_11 H1_11 1_555 1_555
H4_12 C5_12 1_555 1_555
C8_12 C5_12 1_555 1_555
H7_12 C8_12 1_555 1_555
C8_12 N10_5 1_555 1_555
Ag4_4 N1_12 1_555 1_555
N1_12 C1_12 1_555 1_555
C1_12 H1_12 1_555 1_555
N2_12 Ag4_4 1_555 1_555
C2_12 H2_12 1_555 1_555
C3_12 N2_12 1_555 1_555
C4_12 C3_12 1_555 1_555
H3_12 C4_12 1_555 1_555
N8_4 C2_12 1_555 1_555
C6_12 N1_12 1_555 1_555
C7_12 C3_12 1_555 1_555
H5_12 C7_12 1_555 1_555
H6_12 C7_12 1_555 1_555
C9_12 C1_12 1_555 1_555
H8_12 C9_12 1_555 1_555
C2_12 C6_12 1_555 1_555
N8_4 C9_12 1_555 1_555
C6_12 C7_12 1_555 1_555

#END
