
###############################################################################
#
# This file contains modified crystal structure data generated from the
# MOF subset of the Cambridge Structural Database (CSD) v543 
# hosted by the Cambridge Crystallographic Data Centre (CCDC).
#
# This work is licensed under the Creative Commons
# Attribution-NonCommercial-ShareAlike 4.0 International License.
# To view a copy of this license, visit
# http://creativecommons.org/licenses/by-nc-sa/4.0/
# or send a letter to
# Creative Commons, PO Box 1866, Mountain View, CA 94042, USA.
#
# CIF created using the CSD Python API on 29 September 2022
# The structure has been converted into the P1 space group
# The structure has a 3D framework
# The original CSD entry TAPHOJ is in the monoclinic crystal system
# The framework has been calculated to contain at least 10.0% void space
# The void calculation uses a probe of radius 1.32A, grid spacing 0.4
# The framework is charged, counterions have been retained in the structure
#
###############################################################################

data_TAPHOJ
_chemical_formula_moiety         '(C96 H96 N16 O26 S4 Zn4)n'
_symmetry_cell_setting           triclinic
_symmetry_space_group_name_H-M   'P 1'
_symmetry_Int_Tables_number      1
_space_group_name_Hall           'P 1'
loop_
_symmetry_equiv_pos_site_id
_symmetry_equiv_pos_as_xyz
1 x,y,z
_cell_length_a                   9.8561(7)
_cell_length_b                   11.9538(9)
_cell_length_c                   22.8463(16)
_cell_angle_alpha                90
_cell_angle_beta                 95.506(1)
_cell_angle_gamma                90
_cell_volume                     2679.28
loop_
_atom_site_label
_atom_site_type_symbol
_atom_site_fract_x
_atom_site_fract_y
_atom_site_fract_z
N2 N 0.4208(3) 0.2329(2) 0.23230(11)
N3 N 0.6306(3) 0.3922(2) 0.27093(11)
H1 H 0.594(4) 0.452(3) 0.2574(15)
N4 N 0.7626(3) 0.6174(2) 0.45707(11)
C1 C 0.3626(3) 0.0121(2) 0.17960(13)
H2 H 0.4234 0.0113 0.2145
C3 C 0.1905(3) 0.0050(3) 0.07941(14)
H4 H 0.1292 0.0030 0.0447
C4 C 0.1947(3) 0.1002(3) 0.11409(14)
H5 H 0.1372 0.1620 0.1029
C5 C 0.2831(3) 0.1054(2) 0.16537(13)
C6 C 0.2852(3) 0.2064(3) 0.20445(15)
H6 H 0.2501 0.2716 0.1809
H7 H 0.2232 0.1935 0.2354
C7 C 0.4092(3) 0.3078(2) 0.28239(13)
H8 H 0.3520 0.2720 0.3104
H9 H 0.3640 0.3781 0.2684
C8 C 0.5467(3) 0.3341(3) 0.31323(13)
H10 H 0.5925 0.2642 0.3275
H11 H 0.5366 0.3829 0.3476
C9 C 0.5024(4) 0.2867(3) 0.19015(14)
H12 H 0.4555 0.3553 0.1746
H13 H 0.5116 0.2355 0.1567
C10 C 0.6430(3) 0.3171(3) 0.21872(14)
H14 H 0.6929 0.2482 0.2316
H15 H 0.6952 0.3558 0.1898
C11 C 0.7688(3) 0.4274(3) 0.29743(15)
H16 H 0.8135 0.4721 0.2683
H17 H 0.8250 0.3598 0.3065
C12 C 0.7641(3) 0.4952(3) 0.35272(14)
C13 C 0.8348(3) 0.4585(3) 0.40435(14)
H18 H 0.8857 0.3909 0.4051
C14 C 0.8303(3) 0.5218(3) 0.45521(14)
H19 H 0.8784 0.4952 0.4905
C15 C 0.6923(3) 0.5953(3) 0.35414(13)
H20 H 0.6426 0.6234 0.3196
C24 C 0.6943(3) 0.6532(3) 0.40641(13)
H24 H 0.6452 0.7215 0.4068
Zn4 Zn 0.76535(3) 0.71990(3) 0.536655(14)
S1 S 0.69425(8) 0.93039(6) 0.62673(3)
O5 O 0.7789(2) 0.83279(16) 0.61618(9)
O6 O 0.5495(2) 0.90802(18) 0.62091(10)
O7 O 0.7407(2) 0.98335(18) 0.68281(9)
O1 O 0.5986(2) 0.79328(17) 0.50681(9)
O2 O 0.4635(2) 0.66595(19) 0.54397(10)
N1 N 0.7699(3) 0.5846(2) 0.59300(11)
N2_2 N 0.9208(3) 0.2671(2) 0.73230(11)
C1_2 C 0.8626(3) 0.4879(2) 0.67960(13)
H2_2 H 0.9234 0.4887 0.7145
C2 C 0.8533(3) 0.5800(2) 0.64289(13)
H3 H 0.9087 0.6432 0.6535
C3_2 C 0.6905(3) 0.4950(3) 0.57941(14)
H4_2 H 0.6292 0.4970 0.5447
C4_2 C 0.6947(3) 0.3998(3) 0.61409(14)
H5_2 H 0.6372 0.3380 0.6029
C5_2 C 0.7831(3) 0.3946(2) 0.66537(13)
C6_2 C 0.7852(3) 0.2936(3) 0.70445(15)
H6_2 H 0.7501 0.2284 0.6809
H7_2 H 0.7232 0.3065 0.7354
C7_2 C 0.9092(3) 0.1922(2) 0.78239(13)
H8_2 H 0.8520 0.2280 0.8104
H9_2 H 0.8640 0.1219 0.7684
H12_2 H 0.9555 0.1447 0.6746
C16 C 0.2752(3) 0.9683(2) 0.42742(12)
C17 C 0.1428(3) 0.9424(2) 0.43831(13)
H21 H 0.0682 0.9834 0.4197
C18 C 0.1204(3) 0.8553(2) 0.47706(12)
C20 C 0.2308(3) 0.7950(2) 0.50316(13)
H22 H 0.2156 0.7349 0.5289
C21 C 0.3626(3) 0.8217(2) 0.49198(12)
C22 C 0.4831(3) 0.7532(3) 0.51750(13)
C23 C 0.3850(3) 0.9100(2) 0.45418(13)
H23 H 0.4752 0.9298 0.4469
O8 O 0.9616(2) 0.76113(18) 0.53209(9)
O4 O 0.8798(2) 0.86281(19) 0.45508(10)
C19 C 0.9761(3) 0.8258(2) 0.48774(13)
Zn1 Zn 0.26535(3) 0.78010(3) 0.036655(14)
O1_2 O 0.0986(2) 0.70672(17) 0.00681(9)
N1_2 N 0.2699(3) 0.9154(2) 0.09300(11)
C2_2 C 0.3533(3) 0.9200(2) 0.14289(13)
H3_2 H 0.4087 0.8568 0.1535
O8_2 O 0.4616(2) 0.73887(18) 0.03209(9)
O9 O 0.2789(2) 0.66721(16) 0.11618(9)
O2_2 O 0.9635(2) 0.83405(19) 0.04397(10)
C20_2 C 0.7308(3) 0.7050(2) 0.00316(13)
H22_2 H 0.7156 0.7651 0.0289
C22_2 C 0.9831(3) 0.7468(3) 0.01750(13)
S1_2 S 0.19425(8) 0.56961(6) 0.12673(3)
O4_2 O 0.6202(2) 0.36281(19) 0.04492(10)
O6_2 O 0.0495(2) 0.59198(18) 0.12091(10)
O7_2 O 0.2407(2) 0.51665(18) 0.18281(9)
C16_2 C 0.2248(3) 0.4683(2) 0.07258(12)
C17_2 C 0.3572(3) 0.4424(2) 0.06169(13)
H21_2 H 0.4318 0.4834 0.0803
C18_2 C 0.3796(3) 0.3553(2) 0.02294(12)
C19_2 C 0.5239(3) 0.3258(2) 0.01226(13)
C21_2 C 0.1374(3) 0.3217(2) 0.00802(12)
C23_2 C 0.1150(3) 0.4100(2) 0.04582(13)
H23_2 H 0.0248 0.4298 0.0531
N5 N 0.2626(3) 0.8826(2) 0.95707(11)
C14_2 C 0.3303(3) 0.9782(3) 0.95521(14)
C15_2 C 0.1923(3) 0.9047(3) 0.85414(13)
H20_2 H 0.1426 0.8766 0.8196
C24_2 C 0.1943(3) 0.8468(3) 0.90641(13)
H24_2 H 0.1452 0.7785 0.9068
S1_3 S 0.80575(8) 0.43039(6) 0.87327(3)
O4_3 O 0.3798(2) 0.63719(19) 0.95508(10)
O5_2 O 0.7211(2) 0.33279(16) 0.88382(9)
O6_3 O 0.9505(2) 0.40802(18) 0.87909(10)
O7_3 O 0.7593(2) 0.48335(18) 0.81719(9)
C16_3 C 0.7752(3) 0.5317(2) 0.92742(12)
C17_3 C 0.6428(3) 0.5576(2) 0.93831(13)
H21_3 H 0.5682 0.5166 0.9197
C18_3 C 0.6204(3) 0.6447(2) 0.97706(12)
C19_3 C 0.4761(3) 0.6742(2) 0.98774(13)
C21_3 C 0.8626(3) 0.6783(2) 0.99198(12)
C23_3 C 0.8850(3) 0.5900(2) 0.95418(13)
H23_3 H 0.9752 0.5702 0.9469
Zn3 Zn 0.73465(3) 0.21990(3) 0.963345(14)
O2_3 O 0.0365(2) 0.16595(19) 0.95603(10)
O3 O 0.5384(2) 0.26113(18) 0.96791(9)
C20_3 C 0.2692(3) 0.2950(2) 0.99684(13)
H22_3 H 0.2844 0.2349 0.9711
C22_3 C 0.0169(3) 0.2532(3) 0.98250(13)
O1_3 O 0.9014(2) 0.29328(17) 0.99319(9)
N1_3 N 0.7301(3) 0.0846(2) 0.90700(11)
C2_3 C 0.6467(3) 0.0800(2) 0.85711(13)
H3_3 H 0.5913 0.1432 0.8465
O3_2 O 0.0384(2) 0.23887(18) 0.46791(9)
O4_4 O 0.1202(2) 0.13719(19) 0.54492(10)
C19_4 C 0.0239(3) 0.1742(2) 0.51226(13)
Zn2 Zn 0.23465(3) 0.28010(3) 0.463345(14)
O1_4 O 0.4014(2) 0.20672(17) 0.49319(9)
O2_4 O 0.5365(2) 0.33405(19) 0.45603(10)
N1_4 N 0.2301(3) 0.4154(2) 0.40700(11)
N2_3 N 0.0792(3) 0.7329(2) 0.26770(11)
C1_3 C 0.1374(3) 0.5121(2) 0.32040(13)
H2_3 H 0.0766 0.5113 0.2855
C2_4 C 0.1467(3) 0.4200(2) 0.35711(13)
H3_4 H 0.0913 0.3568 0.3465
C3_3 C 0.3095(3) 0.5050(3) 0.42059(14)
H4_3 H 0.3708 0.5030 0.4553
C4_3 C 0.3053(3) 0.6002(3) 0.38591(14)
H5_3 H 0.3628 0.6620 0.3971
C5_3 C 0.2169(3) 0.6054(2) 0.33463(13)
C6_3 C 0.2148(3) 0.7064(3) 0.29555(15)
H6_3 H 0.2499 0.7716 0.3191
H7_3 H 0.2768 0.6935 0.2646
C7_3 C 0.0908(3) 0.8078(2) 0.21761(13)
H8_3 H 0.1480 0.7720 0.1896
H9_3 H 0.1360 0.8781 0.2316
H12_3 H 0.0445 0.8553 0.3254
C16_4 C 0.7248(3) 0.0317(2) 0.57258(12)
C17_4 C 0.8572(3) 0.0576(2) 0.56169(13)
H21_4 H 0.9318 0.0166 0.5803
C18_4 C 0.8796(3) 0.1447(2) 0.52294(12)
C20_4 C 0.7692(3) 0.2050(2) 0.49684(13)
H22_4 H 0.7844 0.2651 0.4711
C21_4 C 0.6374(3) 0.1783(2) 0.50802(12)
C22_4 C 0.5169(3) 0.2468(3) 0.48250(13)
C23_4 C 0.6150(3) 0.0900(2) 0.54582(13)
H23_4 H 0.5248 0.0702 0.5531
O9_2 O 0.2211(2) 0.16721(16) 0.38382(9)
N5_2 N 0.2374(3) 0.3826(2) 0.54293(11)
N2_4 N 0.5792(3) 0.7671(2) 0.76770(11)
N3_2 N 0.3694(3) 0.6078(2) 0.72907(11)
H1_2 H 0.406(4) 0.548(3) 0.7426(15)
C1_4 C 0.6374(3) 0.9879(2) 0.82040(13)
H2_4 H 0.5766 0.9887 0.7855
C3_4 C 0.8095(3) 0.9950(3) 0.92059(14)
H4_4 H 0.8708 0.9970 0.9553
C4_4 C 0.8053(3) 0.8998(3) 0.88591(14)
H5_4 H 0.8628 0.8380 0.8971
C5_4 C 0.7169(3) 0.8946(2) 0.83463(13)
C6_4 C 0.7148(3) 0.7936(3) 0.79555(15)
H6_4 H 0.7499 0.7284 0.8191
H7_4 H 0.7768 0.8065 0.7646
C7_4 C 0.5908(3) 0.6922(2) 0.71761(13)
H8_4 H 0.6480 0.7280 0.6896
H9_4 H 0.6360 0.6219 0.7316
C8_2 C 0.4533(3) 0.6659(3) 0.68677(13)
H10_2 H 0.4075 0.7358 0.6725
H11_2 H 0.4634 0.6171 0.6524
C9_2 C 0.4976(4) 0.7133(3) 0.80985(14)
H12_4 H 0.5445 0.6447 0.8254
H13_2 H 0.4884 0.7645 0.8433
C10_2 C 0.3570(3) 0.6829(3) 0.78128(14)
H14_2 H 0.3071 0.7518 0.7684
H15_2 H 0.3048 0.6442 0.8102
C11_2 C 0.2312(3) 0.5726(3) 0.70257(15)
H16_2 H 0.1865 0.5279 0.7317
H17_2 H 0.1750 0.6402 0.6935
C12_2 C 0.2359(3) 0.5048(3) 0.64728(14)
C13_2 C 0.1652(3) 0.5415(3) 0.59565(14)
H18_2 H 0.1143 0.6091 0.5949
C14_3 C 0.1697(3) 0.4782(3) 0.54479(14)
H19_2 H 0.1216 0.5048 0.5095
C15_3 C 0.3077(3) 0.4047(3) 0.64586(13)
H20_3 H 0.3574 0.3766 0.6804
C24_3 C 0.3057(3) 0.3468(3) 0.59359(13)
H24_3 H 0.3548 0.2785 0.5932
S1_4 S 0.30575(8) 0.06961(6) 0.37327(3)
O6_4 O 0.4505(2) 0.09198(18) 0.37909(10)
O7_4 O 0.2593(2) 0.01665(18) 0.31719(9)
N4_2 N 0.7374(3) 0.1174(2) 0.04293(11)
C14_4 C 0.6697(3) 0.0218(3) 0.04479(14)
C15_4 C 0.8077(3) 0.0953(3) 0.14586(13)
H20_4 H 0.8574 0.1234 0.1804
C24_4 C 0.8057(3) 0.1532(3) 0.09359(13)
H24_4 H 0.8548 0.2215 0.0932
N3_3 N 0.8694(3) 0.8922(2) 0.22907(11)
H1_3 H 0.906(4) 0.952(3) 0.2426(15)
C8_3 C 0.9533(3) 0.8341(3) 0.18677(13)
H10_3 H 0.9075 0.7642 0.1725
H11_3 H 0.9634 0.8829 0.1524
C9_3 C 0.9976(4) 0.7867(3) 0.30985(14)
H13_3 H 0.9884 0.7355 0.3433
C10_3 C 0.8570(3) 0.8171(3) 0.28128(14)
H14_3 H 0.8071 0.7482 0.2684
H15_3 H 0.8048 0.8558 0.3102
C11_3 C 0.7312(3) 0.9274(3) 0.20257(15)
H16_3 H 0.6865 0.9721 0.2317
H17_3 H 0.6750 0.8598 0.1935
C12_3 C 0.7359(3) 0.9952(3) 0.14728(14)
C13_3 C 0.6652(3) 0.9585(3) 0.09565(14)
H18_3 H 0.6143 0.8909 0.0949
H19_3 H 0.6216 0.9952 0.0095
N3_4 N 0.1306(3) 0.1078(2) 0.77093(11)
H1_4 H 0.094(4) 0.048(3) 0.7574(15)
C8_4 C 0.0467(3) 0.1659(3) 0.81323(13)
H10_4 H 0.0925 0.2358 0.8275
H11_4 H 0.0366 0.1171 0.8476
C9_4 C 0.0024(4) 0.2133(3) 0.69015(14)
H13_4 H 0.0116 0.2645 0.6567
C10_4 C 0.1430(3) 0.1829(3) 0.71872(14)
H14_4 H 0.1929 0.2518 0.7316
H15_4 H 0.1952 0.1442 0.6898
C11_4 C 0.2688(3) 0.0726(3) 0.79743(15)
H16_4 H 0.3135 0.0279 0.7683
H17_4 H 0.3250 0.1402 0.8065
C12_4 C 0.2641(3) 0.0048(3) 0.85272(14)
C13_4 C 0.3348(3) 0.0415(3) 0.90435(14)
H18_4 H 0.3857 0.1091 0.9051
H19_4 H 0.3784 0.0048 0.9905
loop_
_geom_bond_atom_site_label_1
_geom_bond_atom_site_label_2
_geom_bond_site_symmetry_1
_geom_bond_site_symmetry_2
N2 C6 1_555 1_555
N3 H1 1_555 1_555
N4 C14 1_555 1_555
C1 H2 1_555 1_555
H4 C3 1_555 1_555
C4 C3 1_555 1_555
H5 C4 1_555 1_555
C5 C1 1_555 1_555
C6 C5 1_555 1_555
H6 C6 1_555 1_555
H7 C6 1_555 1_555
C7 N2 1_555 1_555
H8 C7 1_555 1_555
H9 C7 1_555 1_555
C8 N3 1_555 1_555
H10 C8 1_555 1_555
H11 C8 1_555 1_555
C9 N2 1_555 1_555
H12 C9 1_555 1_555
H13 C9 1_555 1_555
C10 N3 1_555 1_555
H14 C10 1_555 1_555
H15 C10 1_555 1_555
C11 N3 1_555 1_555
H16 C11 1_555 1_555
H17 C11 1_555 1_555
C12 C11 1_555 1_555
C13 C12 1_555 1_555
H18 C13 1_555 1_555
C14 C13 1_555 1_555
H19 C14 1_555 1_555
C15 C12 1_555 1_555
H20 C15 1_555 1_555
C24 N4 1_555 1_555
H24 C24 1_555 1_555
Zn4 N4 1_555 1_555
C4 C5 1_555 1_555
C7 C8 1_555 1_555
C9 C10 1_555 1_555
C15 C24 1_555 1_555
S1 O5 1_555 1_555
O5 Zn4 1_555 1_555
O6 S1 1_555 1_555
O7 S1 1_555 1_555
Zn4 O1 1_555 1_555
O1 C22 1_555 1_555
O2 C22 1_555 1_555
N1 Zn4 1_555 1_555
N2_2 C6_2 1_555 1_555
C1_2 H2_2 1_555 1_555
C2 N1 1_555 1_555
H3 C2 1_555 1_555
C3_2 N1 1_555 1_555
H4_2 C3_2 1_555 1_555
C4_2 C3_2 1_555 1_555
H5_2 C4_2 1_555 1_555
C5_2 C1_2 1_555 1_555
C6_2 C5_2 1_555 1_555
H6_2 C6_2 1_555 1_555
H7_2 C6_2 1_555 1_555
C7_2 N2_2 1_555 1_555
H8_2 C7_2 1_555 1_555
H9_2 C7_2 1_555 1_555
C17 C16 1_555 1_555
H21 C17 1_555 1_555
C18 C17 1_555 1_555
C20 C18 1_555 1_555
H22 C20 1_555 1_555
C21 C20 1_555 1_555
C22 C21 1_555 1_555
C23 C16 1_555 1_555
H23 C23 1_555 1_555
O8 Zn4 1_555 1_555
C1_2 C2 1_555 1_555
C4_2 C5_2 1_555 1_555
C21 C23 1_555 1_555
O8 C19 1_555 1_555
O4 C19 1_555 1_555
Zn1 O1_2 1_555 1_555
N1_2 Zn1 1_555 1_555
C2_2 N1_2 1_555 1_555
H3_2 C2_2 1_555 1_555
O8_2 Zn1 1_555 1_555
O9 Zn1 1_555 1_555
O2_2 C22_2 1_555 1_555
H22_2 C20_2 1_555 1_555
S1_2 O9 1_555 1_555
O4_2 C19_2 1_555 1_555
O6_2 S1_2 1_555 1_555
O7_2 S1_2 1_555 1_555
C16_2 S1_2 1_555 1_555
C17_2 C16_2 1_555 1_555
H21_2 C17_2 1_555 1_555
C18_2 C17_2 1_555 1_555
C19_2 C18_2 1_555 1_555
C23_2 C16_2 1_555 1_555
H23_2 C23_2 1_555 1_555
C21_2 C23_2 1_555 1_555
N5 C14_2 1_555 1_555
H20_2 C15_2 1_555 1_555
C24_2 N5 1_555 1_555
H24_2 C24_2 1_555 1_555
C15_2 C24_2 1_555 1_555
S1_3 O5_2 1_555 1_555
O4_3 C19_3 1_555 1_555
O5_2 Zn3 1_555 1_555
O6_3 S1_3 1_555 1_555
O7_3 S1_3 1_555 1_555
C16_3 S1_3 1_555 1_555
C17_3 C16_3 1_555 1_555
H21_3 C17_3 1_555 1_555
C18_3 C17_3 1_555 1_555
C19_3 C18_3 1_555 1_555
C23_3 C16_3 1_555 1_555
H23_3 C23_3 1_555 1_555
C21_3 C23_3 1_555 1_555
O2_3 C22_3 1_555 1_555
H22_3 C20_3 1_555 1_555
Zn3 O3 1_555 1_555
Zn3 O1_3 1_555 1_555
N1_3 Zn3 1_555 1_555
C2_3 N1_3 1_555 1_555
H3_3 C2_3 1_555 1_555
O3_2 C19_4 1_555 1_555
O4_4 C19_4 1_555 1_555
Zn2 O3_2 1_555 1_555
Zn2 O1_4 1_555 1_555
O1_4 C22_4 1_555 1_555
O2_4 C22_4 1_555 1_555
N1_4 Zn2 1_555 1_555
N2_3 C6_3 1_555 1_555
C1_3 H2_3 1_555 1_555
C2_4 N1_4 1_555 1_555
H3_4 C2_4 1_555 1_555
C3_3 N1_4 1_555 1_555
H4_3 C3_3 1_555 1_555
C4_3 C3_3 1_555 1_555
H5_3 C4_3 1_555 1_555
C5_3 C1_3 1_555 1_555
C6_3 C5_3 1_555 1_555
H6_3 C6_3 1_555 1_555
H7_3 C6_3 1_555 1_555
C7_3 N2_3 1_555 1_555
H8_3 C7_3 1_555 1_555
H9_3 C7_3 1_555 1_555
C17_4 C16_4 1_555 1_555
H21_4 C17_4 1_555 1_555
C18_4 C17_4 1_555 1_555
C20_4 C18_4 1_555 1_555
H22_4 C20_4 1_555 1_555
C21_4 C20_4 1_555 1_555
C22_4 C21_4 1_555 1_555
C23_4 C16_4 1_555 1_555
H23_4 C23_4 1_555 1_555
O9_2 Zn2 1_555 1_555
N5_2 Zn2 1_555 1_555
C1_3 C2_4 1_555 1_555
C4_3 C5_3 1_555 1_555
C21_4 C23_4 1_555 1_555
N2_4 C6_4 1_555 1_555
N3_2 H1_2 1_555 1_555
N5_2 C14_3 1_555 1_555
C1_4 H2_4 1_555 1_555
H4_4 C3_4 1_555 1_555
C4_4 C3_4 1_555 1_555
H5_4 C4_4 1_555 1_555
C5_4 C1_4 1_555 1_555
C6_4 C5_4 1_555 1_555
H6_4 C6_4 1_555 1_555
H7_4 C6_4 1_555 1_555
C7_4 N2_4 1_555 1_555
H8_4 C7_4 1_555 1_555
H9_4 C7_4 1_555 1_555
C8_2 N3_2 1_555 1_555
H10_2 C8_2 1_555 1_555
H11_2 C8_2 1_555 1_555
C9_2 N2_4 1_555 1_555
H12_4 C9_2 1_555 1_555
H13_2 C9_2 1_555 1_555
C10_2 N3_2 1_555 1_555
H14_2 C10_2 1_555 1_555
H15_2 C10_2 1_555 1_555
C11_2 N3_2 1_555 1_555
H16_2 C11_2 1_555 1_555
H17_2 C11_2 1_555 1_555
C12_2 C11_2 1_555 1_555
C13_2 C12_2 1_555 1_555
H18_2 C13_2 1_555 1_555
C14_3 C13_2 1_555 1_555
H19_2 C14_3 1_555 1_555
C15_3 C12_2 1_555 1_555
H20_3 C15_3 1_555 1_555
C24_3 N5_2 1_555 1_555
H24_3 C24_3 1_555 1_555
C4_4 C5_4 1_555 1_555
C7_4 C8_2 1_555 1_555
C9_2 C10_2 1_555 1_555
C15_3 C24_3 1_555 1_555
S1_4 O9_2 1_555 1_555
O6_4 S1_4 1_555 1_555
O7_4 S1_4 1_555 1_555
N4_2 C14_4 1_555 1_555
H20_4 C15_4 1_555 1_555
C24_4 N4_2 1_555 1_555
H24_4 C24_4 1_555 1_555
C15_4 C24_4 1_555 1_555
N3_3 H1_3 1_555 1_555
C8_3 N3_3 1_555 1_555
H10_3 C8_3 1_555 1_555
H11_3 C8_3 1_555 1_555
H13_3 C9_3 1_555 1_555
C10_3 N3_3 1_555 1_555
H14_3 C10_3 1_555 1_555
H15_3 C10_3 1_555 1_555
C11_3 N3_3 1_555 1_555
H16_3 C11_3 1_555 1_555
H17_3 C11_3 1_555 1_555
C12_3 C11_3 1_555 1_555
C13_3 C12_3 1_555 1_555
H18_3 C13_3 1_555 1_555
C9_3 C10_3 1_555 1_555
N3_4 H1_4 1_555 1_555
C8_4 N3_4 1_555 1_555
H10_4 C8_4 1_555 1_555
H11_4 C8_4 1_555 1_555
H13_4 C9_4 1_555 1_555
C10_4 N3_4 1_555 1_555
H14_4 C10_4 1_555 1_555
H15_4 C10_4 1_555 1_555
C11_4 N3_4 1_555 1_555
H16_4 C11_4 1_555 1_555
H17_4 C11_4 1_555 1_555
C12_4 C11_4 1_555 1_555
C13_4 C12_4 1_555 1_555
H18_4 C13_4 1_555 1_555
C9_4 C10_4 1_555 1_555

#END
