
###############################################################################
#
# This file contains modified crystal structure data generated from the
# MOF subset of the Cambridge Structural Database (CSD) v543 
# hosted by the Cambridge Crystallographic Data Centre (CCDC).
#
# This work is licensed under the Creative Commons
# Attribution-NonCommercial-ShareAlike 4.0 International License.
# To view a copy of this license, visit
# http://creativecommons.org/licenses/by-nc-sa/4.0/
# or send a letter to
# Creative Commons, PO Box 1866, Mountain View, CA 94042, USA.
#
# CIF created using the CSD Python API on 29 September 2022
# The structure has been converted into the P1 space group
# The structure has a 3D framework
# The original CSD entry TAPMOQ is in the monoclinic crystal system
# The framework has been calculated to contain at least 10.0% void space
# The void calculation uses a probe of radius 1.32A, grid spacing 0.4
#
###############################################################################

data_TAPMOQ
_chemical_formula_moiety         '(C136 H152 Eu8 N24 O72)n'
_symmetry_cell_setting           triclinic
_symmetry_space_group_name_H-M   'P 1'
_symmetry_Int_Tables_number      1
_space_group_name_Hall           'P 1'
loop_
_symmetry_equiv_pos_site_id
_symmetry_equiv_pos_as_xyz
1 x,y,z
_cell_length_a                   25.0401(8)
_cell_length_b                   13.9581(4)
_cell_length_c                   14.3689(4)
_cell_angle_alpha                90
_cell_angle_beta                 102.2190(10)
_cell_angle_gamma                90
_cell_volume                     4908.33
loop_
_atom_site_label
_atom_site_type_symbol
_atom_site_fract_x
_atom_site_fract_y
_atom_site_fract_z
Eu3 Eu 0.82608(2) 0.19565(2) 0.04241(2)
O3 O 0.27496(18) 0.1673(3) 0.5632(3)
O4 O 0.20586(18) 0.0755(3) 0.5783(3)
C3 C 0.2929(3) 0.0372(5) 0.6719(5)
C4 C 0.3491(3) 0.0408(5) 0.6796(5)
H2 H 0.3641 0.0856 0.6425
C8 C 0.2556(3) 0.0968(5) 0.6007(5)
C10 C 0.4719(3) 0.0667(5) 0.7465(5)
H4 H 0.4526 0.1257 0.7420
O12 O 0.72504(18) 0.1673(3) 0.9368(3)
O13 O 0.79414(18) 0.0755(3) 0.9217(3)
C20 C 0.7071(3) 0.0372(5) 0.8281(5)
C21 C 0.6509(3) 0.0408(5) 0.8204(5)
H21 H 0.6359 0.0856 0.8575
C25 C 0.7444(3) 0.0968(5) 0.8993(5)
C27 C 0.5281(3) 0.0667(5) 0.7535(5)
H23 H 0.5474 0.1257 0.7580
Eu4 Eu 0.17392(2) 0.19565(2) 0.45759(2)
Eu5 Eu 0.67392(2) 0.30435(2) 0.95759(2)
Eu6 Eu 0.32608(2) 0.30435(2) 0.54241(2)
Eu1 Eu 0.32608(2) 0.69565(2) 0.04241(2)
N2 N 0.3595(5) 0.3987(8) 0.1750(8)
N3 N 0.4063(9) 0.6467(12) 0.3465(8)
O5 O 0.4096(2) 0.7992(4) 0.0443(4)
O8 O 0.3647(2) 0.5440(4) 0.1086(4)
O9 O 0.3722(2) 0.7271(4) 0.2038(3)
C12 C 0.3375(5) 0.4745(8) 0.1238(8)
H6 H 0.2993 0.4746 0.0980
C13 C 0.3236(6) 0.3154(9) 0.1837(11)
H7 H 0.3377 0.2581 0.1577
H8 H 0.2864 0.3286 0.1481
H9 H 0.3231 0.3049 0.2510
C14 C 0.4162(8) 0.3926(14) 0.2153(14)
H10 H 0.4347 0.3592 0.1710
H11 H 0.4217 0.3571 0.2754
H12 H 0.4314 0.4572 0.2273
C15 C 0.3641(5) 0.6974(10) 0.2796(9)
H13 H 0.3295 0.7077 0.2951
C16 C 0.3926(11) 0.611(2) 0.4287(19)
H14 H 0.4214 0.6267 0.4840
H15 H 0.3889 0.5408 0.4235
H16 H 0.3580 0.6387 0.4364
C17 C 0.4646(10) 0.6535(19) 0.3303(18)
H17 H 0.4639 0.6481 0.2621
H18 H 0.4867 0.6015 0.3646
H19 H 0.4805 0.7153 0.3539
O19 O 0.26600(18) 0.6367(4) 0.1349(4)
O24 O 0.27496(18) 0.8327(3) 0.0632(3)
N1 N 0.4301(2) 0.7442(5) 0.9920(5)
O1 O 0.31429(18) 0.7851(3) 0.9000(3)
O2 O 0.23400(18) 0.8633(4) 0.8651(4)
O6 O 0.4082(2) 0.6623(4) 0.9747(5)
O7 O 0.4691(3) 0.7691(5) 0.9574(6)
C1 C 0.2828(3) 0.8482(5) 0.8572(5)
C2 C 0.2713(2) 0.9746(5) 0.7296(5)
H1 H 0.2330 0.9733 0.7262
C5 C 0.3838(3) 0.9796(5) 0.7411(5)
C6 C 0.3611(3) 0.9160(5) 0.7968(5)
H3 H 0.3841 0.8732 0.8385
C7 C 0.3050(3) 0.9147(5) 0.7917(5)
C9 C 0.4440(3) 0.9814(5) 0.7462(5)
C11 C 0.4719(2) 0.8948(5) 0.7485(5)
H5 H 0.4528 0.8359 0.7480
O10 O 0.68571(18) 0.7851(3) 0.6000(3)
O11 O 0.76600(18) 0.8633(4) 0.6349(4)
C18 C 0.7172(3) 0.8482(5) 0.6428(5)
C19 C 0.7287(2) 0.9746(5) 0.7704(5)
H20 H 0.7670 0.9733 0.7738
C22 C 0.6162(3) 0.9796(5) 0.7589(5)
C23 C 0.6389(3) 0.9160(5) 0.7032(5)
H22 H 0.6159 0.8732 0.6615
C24 C 0.6950(3) 0.9147(5) 0.7083(5)
C26 C 0.5560(3) 0.9814(5) 0.7538(5)
C28 C 0.5281(2) 0.8948(5) 0.7515(5)
H24 H 0.5472 0.8359 0.7520
Eu2 Eu 0.67392(2) 0.69565(2) 0.45759(2)
N4 N 0.5699(2) 0.7442(5) 0.5080(5)
N5 N 0.6405(5) 0.3987(8) 0.3250(8)
N6 N 0.5937(9) 0.6467(12) 0.1535(8)
O14 O 0.5904(2) 0.7992(4) 0.4557(4)
O15 O 0.5918(2) 0.6623(4) 0.5253(5)
O16 O 0.5309(3) 0.7691(5) 0.5426(6)
O17 O 0.6353(2) 0.5440(4) 0.3914(4)
O18 O 0.6278(2) 0.7271(4) 0.2962(3)
C29 C 0.6625(5) 0.4745(8) 0.3762(8)
H25 H 0.7007 0.4746 0.4020
C30 C 0.6764(6) 0.3154(9) 0.3163(11)
H26 H 0.6623 0.2581 0.3423
H27 H 0.7136 0.3286 0.3519
H28 H 0.6769 0.3049 0.2490
C31 C 0.5838(8) 0.3926(14) 0.2847(14)
H29 H 0.5653 0.3592 0.3290
H30 H 0.5783 0.3571 0.2246
H31 H 0.5686 0.4572 0.2727
C32 C 0.6359(5) 0.6974(10) 0.2204(9)
H32 H 0.6705 0.7077 0.2049
C33 C 0.6074(11) 0.611(2) 0.0713(19)
H33 H 0.5786 0.6267 0.0160
H34 H 0.6111 0.5408 0.0765
H35 H 0.6420 0.6387 0.0636
C34 C 0.5354(10) 0.6535(19) 0.1697(18)
H36 H 0.5361 0.6481 0.2379
H37 H 0.5133 0.6015 0.1354
H38 H 0.5195 0.7153 0.1461
Eu7 Eu 0.17392(2) 0.80435(2) 0.95759(2)
Eu8 Eu 0.82608(2) 0.80435(2) 0.54241(2)
O20 O 0.73400(18) 0.6367(4) 0.3651(4)
O21 O 0.77496(18) 0.6673(3) 0.5632(3)
O22 O 0.22504(18) 0.6673(3) 0.9368(3)
O23 O 0.72504(18) 0.8327(3) 0.4368(3)
O25 O 0.70586(18) 0.5755(3) 0.5783(3)
O26 O 0.29414(18) 0.5755(3) 0.9217(3)
O10_2 O 0.18571(18) 0.2851(3) 0.6000(3)
O11_2 O 0.26600(18) 0.3633(4) 0.6349(4)
C18_2 C 0.2172(3) 0.3482(5) 0.6428(5)
C19_2 C 0.2287(2) 0.4746(5) 0.7704(5)
H20_2 H 0.2670 0.4733 0.7738
C20_2 C 0.2071(3) 0.5372(5) 0.8281(5)
C21_2 C 0.1509(3) 0.5408(5) 0.8204(5)
H21_2 H 0.1359 0.5856 0.8575
C22_2 C 0.1162(3) 0.4796(5) 0.7589(5)
C23_2 C 0.1389(3) 0.4160(5) 0.7032(5)
H22_2 H 0.1159 0.3732 0.6615
C24_2 C 0.1950(3) 0.4147(5) 0.7083(5)
C25_2 C 0.2444(3) 0.5968(5) 0.8993(5)
C26_2 C 0.0560(3) 0.4814(5) 0.7538(5)
C27_2 C 0.0281(3) 0.5667(5) 0.7535(5)
H23_2 H 0.0474 0.6257 0.7580
C28_2 C 0.0281(2) 0.3948(5) 0.7515(5)
H24_2 H 0.0472 0.3359 0.7520
N4_2 N 0.0699(2) 0.2442(5) 0.5080(5)
N6_2 N 0.0937(9) 0.1467(12) 0.1535(8)
O14_2 O 0.0904(2) 0.2992(4) 0.4557(4)
O15_2 O 0.0918(2) 0.1623(4) 0.5253(5)
O16_2 O 0.0309(3) 0.2691(5) 0.5426(6)
O17_2 O 0.1353(2) 0.0440(4) 0.3914(4)
O18_2 O 0.1278(2) 0.2271(4) 0.2962(3)
C32_2 C 0.1359(5) 0.1974(10) 0.2204(9)
H32_2 H 0.1705 0.2077 0.2049
C33_2 C 0.1074(11) 0.111(2) 0.0713(19)
H33_2 H 0.0786 0.1267 0.0160
H34_2 H 0.1111 0.0408 0.0765
H35_2 H 0.1420 0.1387 0.0636
C34_2 C 0.0354(10) 0.1535(19) 0.1697(18)
H36_2 H 0.0361 0.1481 0.2379
H37_2 H 0.0133 0.1015 0.1354
H38_2 H 0.0195 0.2153 0.1461
O20_2 O 0.23400(18) 0.1367(4) 0.3651(4)
O23_2 O 0.22504(18) 0.3327(3) 0.4368(3)
N3_2 N 0.9063(9) 0.1467(12) 0.3465(8)
O5_2 O 0.9096(2) 0.2992(4) 0.0443(4)
O8_2 O 0.8647(2) 0.0440(4) 0.1086(4)
O9_2 O 0.8722(2) 0.2271(4) 0.2038(3)
C15_2 C 0.8641(5) 0.1974(10) 0.2796(9)
H13_2 H 0.8295 0.2077 0.2951
C16_2 C 0.8926(11) 0.111(2) 0.4287(19)
H14_2 H 0.9214 0.1267 0.4840
H15_2 H 0.8889 0.0408 0.4235
H16_2 H 0.8580 0.1387 0.4364
C17_2 C 0.9646(10) 0.1535(19) 0.3303(18)
H17_2 H 0.9639 0.1481 0.2621
H18_2 H 0.9867 0.1015 0.3646
H19_2 H 0.9805 0.2153 0.3539
O19_2 O 0.76600(18) 0.1367(4) 0.1349(4)
O24_2 O 0.77496(18) 0.3327(3) 0.0632(3)
N1_2 N 0.9301(2) 0.2442(5) 0.9920(5)
O1_2 O 0.81429(18) 0.2851(3) 0.9000(3)
O2_2 O 0.73400(18) 0.3633(4) 0.8651(4)
O6_2 O 0.9082(2) 0.1623(4) 0.9747(5)
O7_2 O 0.9691(3) 0.2691(5) 0.9574(6)
C1_2 C 0.7828(3) 0.3482(5) 0.8572(5)
C2_2 C 0.7713(2) 0.4746(5) 0.7296(5)
H1_2 H 0.7330 0.4733 0.7262
C3_2 C 0.7929(3) 0.5372(5) 0.6719(5)
C4_2 C 0.8491(3) 0.5408(5) 0.6796(5)
H2_2 H 0.8641 0.5856 0.6425
C5_2 C 0.8838(3) 0.4796(5) 0.7411(5)
C6_2 C 0.8611(3) 0.4160(5) 0.7968(5)
H3_2 H 0.8841 0.3732 0.8385
C7_2 C 0.8050(3) 0.4147(5) 0.7917(5)
C8_2 C 0.7556(3) 0.5968(5) 0.6007(5)
C9_2 C 0.9440(3) 0.4814(5) 0.7462(5)
C10_2 C 0.9719(3) 0.5667(5) 0.7465(5)
H4_2 H 0.9526 0.6257 0.7420
C11_2 C 0.9719(2) 0.3948(5) 0.7485(5)
H5_2 H 0.9528 0.3359 0.7480
N1_3 N 0.5699(2) 0.2558(5) 0.0080(5)
O1_3 O 0.68571(18) 0.2149(3) 0.1000(3)
O6_3 O 0.5918(2) 0.3377(4) 0.0253(5)
O7_3 O 0.5309(3) 0.2309(5) 0.0426(6)
C1_3 C 0.7172(3) 0.1518(5) 0.1428(5)
C2_3 C 0.7287(2) 0.0254(5) 0.2704(5)
H1_3 H 0.7670 0.0267 0.2738
C5_3 C 0.6162(3) 0.0204(5) 0.2589(5)
C6_3 C 0.6389(3) 0.0840(5) 0.2032(5)
H3_3 H 0.6159 0.1268 0.1615
C7_3 C 0.6950(3) 0.0853(5) 0.2083(5)
C9_3 C 0.5560(3) 0.0186(5) 0.2538(5)
C11_3 C 0.5281(2) 0.1052(5) 0.2515(5)
H5_3 H 0.5472 0.1641 0.2520
O10_3 O 0.31429(18) 0.2149(3) 0.4000(3)
C18_3 C 0.2828(3) 0.1518(5) 0.3572(5)
C19_3 C 0.2713(2) 0.0254(5) 0.2296(5)
H20_3 H 0.2330 0.0267 0.2262
C22_3 C 0.3838(3) 0.0204(5) 0.2411(5)
C23_3 C 0.3611(3) 0.0840(5) 0.2968(5)
H22_3 H 0.3841 0.1268 0.3385
C24_3 C 0.3050(3) 0.0853(5) 0.2917(5)
C26_3 C 0.4440(3) 0.0186(5) 0.2462(5)
C28_3 C 0.4719(2) 0.1052(5) 0.2485(5)
H24_3 H 0.4528 0.1641 0.2480
N4_3 N 0.4301(2) 0.2558(5) 0.4920(5)
N5_2 N 0.3595(5) 0.6013(8) 0.6750(8)
N6_3 N 0.4063(9) 0.3533(12) 0.8465(8)
O14_3 O 0.4096(2) 0.2008(4) 0.5443(4)
O15_3 O 0.4082(2) 0.3377(4) 0.4747(5)
O16_3 O 0.4691(3) 0.2309(5) 0.4574(6)
O17_3 O 0.3647(2) 0.4560(4) 0.6086(4)
O18_3 O 0.3722(2) 0.2729(4) 0.7038(3)
C29_2 C 0.3375(5) 0.5255(8) 0.6238(8)
H25_2 H 0.2993 0.5254 0.5980
C30_2 C 0.3236(6) 0.6846(9) 0.6837(11)
H26_2 H 0.3377 0.7419 0.6577
H27_2 H 0.2864 0.6714 0.6481
H28_2 H 0.3231 0.6951 0.7510
C31_2 C 0.4162(8) 0.6074(14) 0.7153(14)
H29_2 H 0.4347 0.6408 0.6710
H30_2 H 0.4217 0.6429 0.7754
H31_2 H 0.4314 0.5428 0.7273
C32_3 C 0.3641(5) 0.3026(10) 0.7796(9)
H32_3 H 0.3295 0.2923 0.7951
C33_3 C 0.3926(11) 0.389(2) 0.9287(19)
H33_3 H 0.4214 0.3733 0.9840
H34_3 H 0.3889 0.4592 0.9235
H35_3 H 0.3580 0.3613 0.9364
C34_3 C 0.4646(10) 0.3465(19) 0.8303(18)
H36_3 H 0.4639 0.3519 0.7621
H37_3 H 0.4867 0.3985 0.8646
H38_3 H 0.4805 0.2847 0.8539
O25_2 O 0.29414(18) 0.4245(3) 0.4217(3)
O26_2 O 0.70586(18) 0.4245(3) 0.0783(3)
N2_2 N 0.6405(5) 0.6013(8) 0.8250(8)
N3_3 N 0.5937(9) 0.3533(12) 0.6535(8)
O5_3 O 0.5904(2) 0.2008(4) 0.9557(4)
O8_3 O 0.6353(2) 0.4560(4) 0.8914(4)
O9_3 O 0.6278(2) 0.2729(4) 0.7962(3)
C12_2 C 0.6625(5) 0.5255(8) 0.8762(8)
H6_2 H 0.7007 0.5254 0.9020
C13_2 C 0.6764(6) 0.6846(9) 0.8163(11)
H7_2 H 0.6623 0.7419 0.8423
H8_2 H 0.7136 0.6714 0.8519
H9_2 H 0.6769 0.6951 0.7490
C14_2 C 0.5838(8) 0.6074(14) 0.7847(14)
H10_2 H 0.5653 0.6408 0.8290
H11_2 H 0.5783 0.6429 0.7246
H12_2 H 0.5686 0.5428 0.7727
C15_3 C 0.6359(5) 0.3026(10) 0.7204(9)
H13_3 H 0.6705 0.2923 0.7049
C16_3 C 0.6074(11) 0.389(2) 0.5713(19)
H14_3 H 0.5786 0.3733 0.5160
H15_3 H 0.6111 0.4592 0.5765
H16_3 H 0.6420 0.3613 0.5636
C17_3 C 0.5354(10) 0.3465(19) 0.6697(18)
H17_3 H 0.5361 0.3519 0.7379
H18_3 H 0.5133 0.3985 0.6354
H19_3 H 0.5195 0.2847 0.6461
O4_2 O 0.79414(18) 0.9245(3) 0.4217(3)
C3_3 C 0.7071(3) 0.9628(5) 0.3281(5)
C4_3 C 0.6509(3) 0.9592(5) 0.3204(5)
H2_3 H 0.6359 0.9144 0.3575
C8_3 C 0.7444(3) 0.9032(5) 0.3993(5)
C10_3 C 0.5281(3) 0.9333(5) 0.2535(5)
H4_3 H 0.5474 0.8743 0.2580
O13_2 O 0.20586(18) 0.9245(3) 0.0783(3)
C20_3 C 0.2929(3) 0.9628(5) 0.1719(5)
C21_3 C 0.3491(3) 0.9592(5) 0.1796(5)
H21_3 H 0.3641 0.9144 0.1425
C25_3 C 0.2556(3) 0.9032(5) 0.1007(5)
C27_3 C 0.4719(3) 0.9333(5) 0.2465(5)
H23_3 H 0.4526 0.8743 0.2420
N1_4 N 0.0699(2) 0.7558(5) 0.0080(5)
O1_4 O 0.18571(18) 0.7149(3) 0.1000(3)
O6_4 O 0.0918(2) 0.8377(4) 0.0253(5)
O7_4 O 0.0309(3) 0.7309(5) 0.0426(6)
C1_4 C 0.2172(3) 0.6518(5) 0.1428(5)
C2_4 C 0.2287(2) 0.5254(5) 0.2704(5)
H1_4 H 0.2670 0.5267 0.2738
C3_4 C 0.2071(3) 0.4628(5) 0.3281(5)
C4_4 C 0.1509(3) 0.4592(5) 0.3204(5)
H2_4 H 0.1359 0.4144 0.3575
C5_4 C 0.1162(3) 0.5204(5) 0.2589(5)
C6_4 C 0.1389(3) 0.5840(5) 0.2032(5)
H3_4 H 0.1159 0.6268 0.1615
C7_4 C 0.1950(3) 0.5853(5) 0.2083(5)
C8_4 C 0.2444(3) 0.4032(5) 0.3993(5)
C9_4 C 0.0560(3) 0.5186(5) 0.2538(5)
C10_4 C 0.0281(3) 0.4333(5) 0.2535(5)
H4_4 H 0.0474 0.3743 0.2580
C11_4 C 0.0281(2) 0.6052(5) 0.2515(5)
H5_4 H 0.0472 0.6641 0.2520
N3_4 N 0.0937(9) 0.8533(12) 0.6535(8)
O5_4 O 0.0904(2) 0.7008(4) 0.9557(4)
O8_4 O 0.1353(2) 0.9560(4) 0.8914(4)
O9_4 O 0.1278(2) 0.7729(4) 0.7962(3)
C15_4 C 0.1359(5) 0.8026(10) 0.7204(9)
H13_4 H 0.1705 0.7923 0.7049
C16_4 C 0.1074(11) 0.889(2) 0.5713(19)
H14_4 H 0.0786 0.8733 0.5160
H15_4 H 0.1111 0.9592 0.5765
H16_4 H 0.1420 0.8613 0.5636
C17_4 C 0.0354(10) 0.8465(19) 0.6697(18)
H17_4 H 0.0361 0.8519 0.7379
H18_4 H 0.0133 0.8985 0.6354
H19_4 H 0.0195 0.7847 0.6461
O10_4 O 0.81429(18) 0.7149(3) 0.4000(3)
C18_4 C 0.7828(3) 0.6518(5) 0.3572(5)
C19_4 C 0.7713(2) 0.5254(5) 0.2296(5)
H20_4 H 0.7330 0.5267 0.2262
C20_4 C 0.7929(3) 0.4628(5) 0.1719(5)
C21_4 C 0.8491(3) 0.4592(5) 0.1796(5)
H21_4 H 0.8641 0.4144 0.1425
C22_4 C 0.8838(3) 0.5204(5) 0.2411(5)
C23_4 C 0.8611(3) 0.5840(5) 0.2968(5)
H22_4 H 0.8841 0.6268 0.3385
C24_4 C 0.8050(3) 0.5853(5) 0.2917(5)
C25_4 C 0.7556(3) 0.4032(5) 0.1007(5)
C26_4 C 0.9440(3) 0.5186(5) 0.2462(5)
C27_4 C 0.9719(3) 0.4333(5) 0.2465(5)
H23_4 H 0.9526 0.3743 0.2420
C28_4 C 0.9719(2) 0.6052(5) 0.2485(5)
H24_4 H 0.9528 0.6641 0.2480
N4_4 N 0.9301(2) 0.7558(5) 0.4920(5)
N6_4 N 0.9063(9) 0.8533(12) 0.8465(8)
O14_4 O 0.9096(2) 0.7008(4) 0.5443(4)
O15_4 O 0.9082(2) 0.8377(4) 0.4747(5)
O16_4 O 0.9691(3) 0.7309(5) 0.4574(6)
O17_4 O 0.8647(2) 0.9560(4) 0.6086(4)
O18_4 O 0.8722(2) 0.7729(4) 0.7038(3)
C32_4 C 0.8641(5) 0.8026(10) 0.7796(9)
H32_4 H 0.8295 0.7923 0.7951
C33_4 C 0.8926(11) 0.889(2) 0.9287(19)
H33_4 H 0.9214 0.8733 0.9840
H34_4 H 0.8889 0.9592 0.9235
H35_4 H 0.8580 0.8613 0.9364
C34_4 C 0.9646(10) 0.8465(19) 0.8303(18)
H36_4 H 0.9639 0.8519 0.7621
H37_4 H 0.9867 0.8985 0.8646
H38_4 H 0.9805 0.7847 0.8539
N5_3 N 0.1405(5) 0.8987(8) 0.3250(8)
C29_3 C 0.1625(5) 0.9745(8) 0.3762(8)
H25_3 H 0.2007 0.9746 0.4020
C30_3 C 0.1764(6) 0.8154(9) 0.3163(11)
H26_3 H 0.1623 0.7581 0.3423
H27_3 H 0.2136 0.8286 0.3519
H28_3 H 0.1769 0.8049 0.2490
C31_3 C 0.0838(8) 0.8926(14) 0.2847(14)
H29_3 H 0.0653 0.8592 0.3290
H30_3 H 0.0783 0.8571 0.2246
H31_3 H 0.0686 0.9572 0.2727
N2_3 N 0.8595(5) 0.8987(8) 0.1750(8)
C12_3 C 0.8375(5) 0.9745(8) 0.1238(8)
H6_3 H 0.7993 0.9746 0.0980
C13_3 C 0.8236(6) 0.8154(9) 0.1837(11)
H7_3 H 0.8377 0.7581 0.1577
H8_3 H 0.7864 0.8286 0.1481
H9_3 H 0.8231 0.8049 0.2510
C14_3 C 0.9162(8) 0.8926(14) 0.2153(14)
H10_3 H 0.9347 0.8592 0.1710
H11_3 H 0.9217 0.8571 0.2754
H12_3 H 0.9314 0.9572 0.2273
N2_4 N 0.1405(5) 0.1013(8) 0.8250(8)
C12_4 C 0.1625(5) 0.0255(8) 0.8762(8)
H6_4 H 0.2007 0.0254 0.9020
C13_4 C 0.1764(6) 0.1846(9) 0.8163(11)
H7_4 H 0.1623 0.2419 0.8423
H8_4 H 0.2136 0.1714 0.8519
H9_4 H 0.1769 0.1951 0.7490
C14_4 C 0.0838(8) 0.1074(14) 0.7847(14)
H10_4 H 0.0653 0.1408 0.8290
H11_4 H 0.0783 0.1429 0.7246
H12_4 H 0.0686 0.0428 0.7727
N5_4 N 0.8595(5) 0.1013(8) 0.6750(8)
C29_4 C 0.8375(5) 0.0255(8) 0.6238(8)
H25_4 H 0.7993 0.0254 0.5980
C30_4 C 0.8236(6) 0.1846(9) 0.6837(11)
H26_4 H 0.8377 0.2419 0.6577
H27_4 H 0.7864 0.1714 0.6481
H28_4 H 0.8231 0.1951 0.7510
C31_4 C 0.9162(8) 0.1074(14) 0.7153(14)
H29_4 H 0.9347 0.1408 0.6710
H30_4 H 0.9217 0.1429 0.7754
H31_4 H 0.9314 0.0428 0.7273
loop_
_geom_bond_atom_site_label_1
_geom_bond_atom_site_label_2
_geom_bond_site_symmetry_1
_geom_bond_site_symmetry_2
O3 C8 1_555 1_555
O4 C8 1_555 1_555
C4 C3 1_555 1_555
H2 C4 1_555 1_555
C8 C3 1_555 1_555
H4 C10 1_555 1_555
O12 C25 1_555 1_555
O13 C25 1_555 1_555
C21 C20 1_555 1_555
H21 C21 1_555 1_555
C25 C20 1_555 1_555
C27 C10 1_555 1_555
H23 C27 1_555 1_555
Eu4 O3 1_555 1_555
Eu5 O12 1_555 1_555
Eu6 O3 1_555 1_555
O4 Eu4 1_555 1_555
N2 C12 1_555 1_555
N3 C15 1_555 1_555
O5 Eu1 1_555 1_555
O8 Eu1 1_555 1_555
O9 Eu1 1_555 1_555
C12 O8 1_555 1_555
H6 C12 1_555 1_555
C13 N2 1_555 1_555
H7 C13 1_555 1_555
H8 C13 1_555 1_555
H9 C13 1_555 1_555
C14 N2 1_555 1_555
H10 C14 1_555 1_555
H11 C14 1_555 1_555
H12 C14 1_555 1_555
C15 O9 1_555 1_555
H13 C15 1_555 1_555
C16 N3 1_555 1_555
H14 C16 1_555 1_555
H15 C16 1_555 1_555
H16 C16 1_555 1_555
C17 N3 1_555 1_555
H17 C17 1_555 1_555
H18 C17 1_555 1_555
H19 C17 1_555 1_555
O19 Eu1 1_555 1_555
O24 Eu1 1_555 1_555
O1 C1 1_555 1_555
O2 C1 1_555 1_555
O7 N1 1_555 1_555
C1 C7 1_555 1_555
C2 H1 1_555 1_555
C6 C5 1_555 1_555
H3 C6 1_555 1_555
C7 C2 1_555 1_555
C9 C5 1_555 1_555
C11 C9 1_555 1_555
H5 C11 1_555 1_555
O10 C18 1_555 1_555
O11 C18 1_555 1_555
C18 C24 1_555 1_555
C19 H20 1_555 1_555
C23 C22 1_555 1_555
H22 C23 1_555 1_555
C24 C19 1_555 1_555
C26 C22 1_555 1_555
C28 C11 1_555 1_555
H24 C28 1_555 1_555
Eu2 O10 1_555 1_555
N4 O14 1_555 1_555
N5 C29 1_555 1_555
N6 C32 1_555 1_555
O14 Eu2 1_555 1_555
O15 Eu2 1_555 1_555
O16 N4 1_555 1_555
O17 Eu2 1_555 1_555
O18 Eu2 1_555 1_555
C29 O17 1_555 1_555
H25 C29 1_555 1_555
C30 N5 1_555 1_555
H26 C30 1_555 1_555
H27 C30 1_555 1_555
H28 C30 1_555 1_555
C31 N5 1_555 1_555
H29 C31 1_555 1_555
H30 C31 1_555 1_555
H31 C31 1_555 1_555
C32 O18 1_555 1_555
H32 C32 1_555 1_555
C33 N6 1_555 1_555
H33 C33 1_555 1_555
H34 C33 1_555 1_555
H35 C33 1_555 1_555
C34 N6 1_555 1_555
H36 C34 1_555 1_555
H37 C34 1_555 1_555
H38 C34 1_555 1_555
Eu7 O2 1_555 1_555
Eu8 O11 1_555 1_555
O20 Eu2 1_555 1_555
O21 Eu2 1_555 1_555
O23 Eu2 1_555 1_555
O25 Eu2 1_555 1_555
N1 O6 1_555 1_555
C6 C7 1_555 1_555
C23 C24 1_555 1_555
C26 C28 1_555 1_555
N4 O15 1_555 1_555
Eu7 O22 1_555 1_555
Eu8 O21 1_555 1_555
Eu8 O23 1_555 1_555
O10_2 C18_2 1_555 1_555
O11_2 C18_2 1_555 1_555
O22 C25_2 1_555 1_555
O26 C25_2 1_555 1_555
C18_2 C24_2 1_555 1_555
C19_2 H20_2 1_555 1_555
C20_2 C19_2 1_555 1_555
C21_2 C20_2 1_555 1_555
H21_2 C21_2 1_555 1_555
C22_2 C21_2 1_555 1_555
C23_2 C22_2 1_555 1_555
H22_2 C23_2 1_555 1_555
C24_2 C19_2 1_555 1_555
C25_2 C20_2 1_555 1_555
C26_2 C22_2 1_555 1_555
H23_2 C27_2 1_555 1_555
H24_2 C28_2 1_555 1_555
Eu4 O10_2 1_555 1_555
N4_2 O14_2 1_555 1_555
N6_2 C32_2 1_555 1_555
O14_2 Eu4 1_555 1_555
O15_2 Eu4 1_555 1_555
O16_2 N4_2 1_555 1_555
O17_2 Eu4 1_555 1_555
O18_2 Eu4 1_555 1_555
C32_2 O18_2 1_555 1_555
H32_2 C32_2 1_555 1_555
C33_2 N6_2 1_555 1_555
H33_2 C33_2 1_555 1_555
H34_2 C33_2 1_555 1_555
H35_2 C33_2 1_555 1_555
C34_2 N6_2 1_555 1_555
H36_2 C34_2 1_555 1_555
H37_2 C34_2 1_555 1_555
H38_2 C34_2 1_555 1_555
Eu6 O11_2 1_555 1_555
O20_2 Eu4 1_555 1_555
O23_2 Eu4 1_555 1_555
C23_2 C24_2 1_555 1_555
C26_2 C27_2 1_555 1_555
C26_2 C28_2 1_555 1_555
N4_2 O15_2 1_555 1_555
Eu6 O23_2 1_555 1_555
N3_2 C15_2 1_555 1_555
O5_2 Eu3 1_555 1_555
O8_2 Eu3 1_555 1_555
O9_2 Eu3 1_555 1_555
C15_2 O9_2 1_555 1_555
H13_2 C15_2 1_555 1_555
C16_2 N3_2 1_555 1_555
H14_2 C16_2 1_555 1_555
H15_2 C16_2 1_555 1_555
H16_2 C16_2 1_555 1_555
C17_2 N3_2 1_555 1_555
H17_2 C17_2 1_555 1_555
H18_2 C17_2 1_555 1_555
H19_2 C17_2 1_555 1_555
O19_2 Eu3 1_555 1_555
O24_2 Eu3 1_555 1_555
O1_2 C1_2 1_555 1_555
O2_2 C1_2 1_555 1_555
O21 C8_2 1_555 1_555
O25 C8_2 1_555 1_555
O7_2 N1_2 1_555 1_555
C1_2 C7_2 1_555 1_555
C2_2 H1_2 1_555 1_555
C3_2 C2_2 1_555 1_555
C4_2 C3_2 1_555 1_555
H2_2 C4_2 1_555 1_555
C5_2 C4_2 1_555 1_555
C6_2 C5_2 1_555 1_555
H3_2 C6_2 1_555 1_555
C7_2 C2_2 1_555 1_555
C8_2 C3_2 1_555 1_555
C9_2 C5_2 1_555 1_555
C10_2 C9_2 1_555 1_555
H4_2 C10_2 1_555 1_555
C11_2 C9_2 1_555 1_555
H5_2 C11_2 1_555 1_555
Eu5 O2_2 1_555 1_555
N1_2 O6_2 1_555 1_555
C6_2 C7_2 1_555 1_555
O1_3 C1_3 1_555 1_555
O19_2 C1_3 1_555 1_555
O7_3 N1_3 1_555 1_555
C1_3 C7_3 1_555 1_555
C2_3 H1_3 1_555 1_555
C6_3 C5_3 1_555 1_555
H3_3 C6_3 1_555 1_555
C7_3 C2_3 1_555 1_555
C9_3 C5_3 1_555 1_555
C11_3 C9_3 1_555 1_555
H5_3 C11_3 1_555 1_555
O10_3 C18_3 1_555 1_555
O20_2 C18_3 1_555 1_555
C18_3 C24_3 1_555 1_555
C19_3 H20_3 1_555 1_555
C23_3 C22_3 1_555 1_555
H22_3 C23_3 1_555 1_555
C24_3 C19_3 1_555 1_555
C26_3 C22_3 1_555 1_555
C28_3 C11_3 1_555 1_555
H24_3 C28_3 1_555 1_555
Eu6 O10_3 1_555 1_555
N4_3 O14_3 1_555 1_555
N5_2 C29_2 1_555 1_555
N6_3 C32_3 1_555 1_555
O14_3 Eu6 1_555 1_555
O15_3 Eu6 1_555 1_555
O16_3 N4_3 1_555 1_555
O17_3 Eu6 1_555 1_555
O18_3 Eu6 1_555 1_555
C29_2 O17_3 1_555 1_555
H25_2 C29_2 1_555 1_555
C30_2 N5_2 1_555 1_555
H26_2 C30_2 1_555 1_555
H27_2 C30_2 1_555 1_555
H28_2 C30_2 1_555 1_555
C31_2 N5_2 1_555 1_555
H29_2 C31_2 1_555 1_555
H30_2 C31_2 1_555 1_555
H31_2 C31_2 1_555 1_555
C32_3 O18_3 1_555 1_555
H32_3 C32_3 1_555 1_555
C33_3 N6_3 1_555 1_555
H33_3 C33_3 1_555 1_555
H34_3 C33_3 1_555 1_555
H35_3 C33_3 1_555 1_555
C34_3 N6_3 1_555 1_555
H36_3 C34_3 1_555 1_555
H37_3 C34_3 1_555 1_555
H38_3 C34_3 1_555 1_555
O25_2 Eu6 1_555 1_555
N1_3 O6_3 1_555 1_555
C6_3 C7_3 1_555 1_555
C23_3 C24_3 1_555 1_555
C26_3 C28_3 1_555 1_555
N4_3 O15_3 1_555 1_555
N2_2 C12_2 1_555 1_555
N3_3 C15_3 1_555 1_555
O5_3 Eu5 1_555 1_555
O8_3 Eu5 1_555 1_555
O9_3 Eu5 1_555 1_555
C12_2 O8_3 1_555 1_555
H6_2 C12_2 1_555 1_555
C13_2 N2_2 1_555 1_555
H7_2 C13_2 1_555 1_555
H8_2 C13_2 1_555 1_555
H9_2 C13_2 1_555 1_555
C14_2 N2_2 1_555 1_555
H10_2 C14_2 1_555 1_555
H11_2 C14_2 1_555 1_555
H12_2 C14_2 1_555 1_555
C15_3 O9_3 1_555 1_555
H13_3 C15_3 1_555 1_555
C16_3 N3_3 1_555 1_555
H14_3 C16_3 1_555 1_555
H15_3 C16_3 1_555 1_555
H16_3 C16_3 1_555 1_555
C17_3 N3_3 1_555 1_555
H17_3 C17_3 1_555 1_555
H18_3 C17_3 1_555 1_555
H19_3 C17_3 1_555 1_555
O23 C8_3 1_555 1_555
O4_2 C8_3 1_555 1_555
C4_3 C3_3 1_555 1_555
H2_3 C4_3 1_555 1_555
C8_3 C3_3 1_555 1_555
H4_3 C10_3 1_555 1_555
O24 C25_3 1_555 1_555
O13_2 C25_3 1_555 1_555
C21_3 C20_3 1_555 1_555
H21_3 C21_3 1_555 1_555
C25_3 C20_3 1_555 1_555
C27_3 C10_3 1_555 1_555
H23_3 C27_3 1_555 1_555
O4_2 Eu8 1_555 1_555
O1_4 C1_4 1_555 1_555
O19 C1_4 1_555 1_555
O23_2 C8_4 1_555 1_555
O25_2 C8_4 1_555 1_555
O7_4 N1_4 1_555 1_555
C1_4 C7_4 1_555 1_555
C2_4 H1_4 1_555 1_555
C3_4 C2_4 1_555 1_555
C4_4 C3_4 1_555 1_555
H2_4 C4_4 1_555 1_555
C5_4 C4_4 1_555 1_555
C6_4 C5_4 1_555 1_555
H3_4 C6_4 1_555 1_555
C7_4 C2_4 1_555 1_555
C8_4 C3_4 1_555 1_555
C9_4 C5_4 1_555 1_555
C10_4 C9_4 1_555 1_555
H4_4 C10_4 1_555 1_555
C11_4 C9_4 1_555 1_555
H5_4 C11_4 1_555 1_555
N1_4 O6_4 1_555 1_555
C6_4 C7_4 1_555 1_555
N3_4 C15_4 1_555 1_555
O5_4 Eu7 1_555 1_555
O8_4 Eu7 1_555 1_555
O9_4 Eu7 1_555 1_555
C15_4 O9_4 1_555 1_555
H13_4 C15_4 1_555 1_555
C16_4 N3_4 1_555 1_555
H14_4 C16_4 1_555 1_555
H15_4 C16_4 1_555 1_555
H16_4 C16_4 1_555 1_555
C17_4 N3_4 1_555 1_555
H17_4 C17_4 1_555 1_555
H18_4 C17_4 1_555 1_555
H19_4 C17_4 1_555 1_555
O10_4 C18_4 1_555 1_555
O20 C18_4 1_555 1_555
O24_2 C25_4 1_555 1_555
O26_2 C25_4 1_555 1_555
C18_4 C24_4 1_555 1_555
C19_4 H20_4 1_555 1_555
C20_4 C19_4 1_555 1_555
C21_4 C20_4 1_555 1_555
H21_4 C21_4 1_555 1_555
C22_4 C21_4 1_555 1_555
C23_4 C22_4 1_555 1_555
H22_4 C23_4 1_555 1_555
C24_4 C19_4 1_555 1_555
C25_4 C20_4 1_555 1_555
C26_4 C22_4 1_555 1_555
H23_4 C27_4 1_555 1_555
H24_4 C28_4 1_555 1_555
Eu8 O10_4 1_555 1_555
N4_4 O14_4 1_555 1_555
N6_4 C32_4 1_555 1_555
O14_4 Eu8 1_555 1_555
O15_4 Eu8 1_555 1_555
O16_4 N4_4 1_555 1_555
O17_4 Eu8 1_555 1_555
O18_4 Eu8 1_555 1_555
C32_4 O18_4 1_555 1_555
H32_4 C32_4 1_555 1_555
C33_4 N6_4 1_555 1_555
H33_4 C33_4 1_555 1_555
H34_4 C33_4 1_555 1_555
H35_4 C33_4 1_555 1_555
C34_4 N6_4 1_555 1_555
H36_4 C34_4 1_555 1_555
H37_4 C34_4 1_555 1_555
H38_4 C34_4 1_555 1_555
C23_4 C24_4 1_555 1_555
C26_4 C27_4 1_555 1_555
C26_4 C28_4 1_555 1_555
N4_4 O15_4 1_555 1_555
N5_3 C29_3 1_555 1_555
H25_3 C29_3 1_555 1_555
C30_3 N5_3 1_555 1_555
H26_3 C30_3 1_555 1_555
H27_3 C30_3 1_555 1_555
H28_3 C30_3 1_555 1_555
C31_3 N5_3 1_555 1_555
H29_3 C31_3 1_555 1_555
H30_3 C31_3 1_555 1_555
H31_3 C31_3 1_555 1_555
N2_3 C12_3 1_555 1_555
H6_3 C12_3 1_555 1_555
C13_3 N2_3 1_555 1_555
H7_3 C13_3 1_555 1_555
H8_3 C13_3 1_555 1_555
H9_3 C13_3 1_555 1_555
C14_3 N2_3 1_555 1_555
H10_3 C14_3 1_555 1_555
H11_3 C14_3 1_555 1_555
H12_3 C14_3 1_555 1_555
N2_4 C12_4 1_555 1_555
H6_4 C12_4 1_555 1_555
C13_4 N2_4 1_555 1_555
H7_4 C13_4 1_555 1_555
H8_4 C13_4 1_555 1_555
H9_4 C13_4 1_555 1_555
C14_4 N2_4 1_555 1_555
H10_4 C14_4 1_555 1_555
H11_4 C14_4 1_555 1_555
H12_4 C14_4 1_555 1_555
N5_4 C29_4 1_555 1_555
H25_4 C29_4 1_555 1_555
C30_4 N5_4 1_555 1_555
H26_4 C30_4 1_555 1_555
H27_4 C30_4 1_555 1_555
H28_4 C30_4 1_555 1_555
C31_4 N5_4 1_555 1_555
H29_4 C31_4 1_555 1_555
H30_4 C31_4 1_555 1_555
H31_4 C31_4 1_555 1_555

#END
