
###############################################################################
#
# This file contains modified crystal structure data generated from the
# MOF subset of the Cambridge Structural Database (CSD) v543 
# hosted by the Cambridge Crystallographic Data Centre (CCDC).
#
# This work is licensed under the Creative Commons
# Attribution-NonCommercial-ShareAlike 4.0 International License.
# To view a copy of this license, visit
# http://creativecommons.org/licenses/by-nc-sa/4.0/
# or send a letter to
# Creative Commons, PO Box 1866, Mountain View, CA 94042, USA.
#
# CIF created using the CSD Python API on 29 September 2022
# The structure has been converted into the P1 space group
# The structure has a 3D framework
# The original CSD entry TAPXIT is in the orthorhombic crystal system
# The framework has been calculated to contain at least 10.0% void space
# The void calculation uses a probe of radius 1.32A, grid spacing 0.4
#
###############################################################################

data_TAPXIT
_chemical_formula_moiety         '(C112 H64 Na3 O36 Yb6)n'
_symmetry_cell_setting           triclinic
_symmetry_space_group_name_H-M   'P 1'
_symmetry_Int_Tables_number      1
_space_group_name_Hall           'P 1'
loop_
_symmetry_equiv_pos_site_id
_symmetry_equiv_pos_as_xyz
1 x,y,z
_cell_length_a                   26.6753(16)
_cell_length_b                   15.5727(16)
_cell_length_c                   7.1782(5)
_cell_angle_alpha                90
_cell_angle_beta                 90
_cell_angle_gamma                90
_cell_volume                     2981.87
loop_
_atom_site_label
_atom_site_type_symbol
_atom_site_fract_x
_atom_site_fract_y
_atom_site_fract_z
Yb4 Yb 0.0000 0.62972(2) 0.2329(2)
Yb5 Yb 0.0000 0.37028(2) 0.7329(2)
Na3 Na 0.0000 0.3176(4) 0.2259(13)
Yb1 Yb 0.5000 0.12972(2) 0.2329(2)
Na1 Na 0.5000 0.1824(4) 0.7259(13)
O1 O 0.4412(3) 0.2436(5) 0.218(2)
O2 O 0.4548(3) 0.2031(6) 0.4723(13)
O3 O 0.2716(4) 0.4516(7) 0.6392(17)
O4 O 0.0539(3) 0.5302(6) 0.3287(14)
O5 O 0.0393(3) 0.4003(5) 0.4516(10)
C1 C 0.4296(4) 0.2478(7) 0.3584(15)
C2 C 0.3852(3) 0.2969(6) 0.4329(14)
C3 C 0.3541(6) 0.3390(11) 0.3049(19)
H1 H 0.3610 0.3362 0.1780
C4 C 0.3763(6) 0.3051(12) 0.624(3)
H2 H 0.3972 0.2743 0.7037
C5 C 0.3146(6) 0.3835(9) 0.367(2)
H3 H 0.2926 0.4093 0.2833
C6 C 0.3374(8) 0.3570(12) 0.710(3)
H4 H 0.3330 0.3670 0.8371
C7 C 0.3066(4) 0.3906(9) 0.559(2)
C8 C 0.2233(4) 0.4531(12) 0.546(2)
C9 C 0.2027(5) 0.5323(7) 0.5169(19)
H5 H 0.2218 0.5823 0.5210
C10 C 0.1954(5) 0.3732(7) 0.540(2)
H6 H 0.2102 0.3205 0.5662
C11 C 0.1510(5) 0.5338(7) 0.4806(17)
H7 H 0.1350 0.5866 0.4696
C12 C 0.1455(4) 0.3804(6) 0.4940(19)
H8 H 0.1263 0.3307 0.4850
C13 C 0.1229(4) 0.4588(7) 0.4603(16)
C14 C 0.0679(3) 0.4688(6) 0.4132(15)
Yb4_2 Yb 1.0000 0.62972(2) 0.2329(2)
Yb5_2 Yb 1.0000 0.37028(2) 0.7329(2)
Na3_2 Na 1.0000 0.3176(4) 0.2259(13)
O6 O 0.5588(3) 0.2436(5) 0.218(2)
O7 O 0.5452(3) 0.2031(6) 0.4723(13)
O8 O 0.7284(4) 0.4516(7) 0.6392(17)
O9 O 0.9461(3) 0.5302(6) 0.3287(14)
O10 O 0.5539(3) 0.0302(6) 0.3287(14)
O11 O 0.4461(3) 0.0302(6) 0.3287(14)
O12 O 0.9607(3) 0.4003(5) 0.4516(10)
O15 O 0.4607(3) 0.0997(5) 0.9516(10)
O16 O 0.5393(3) 0.0997(5) 0.9516(10)
C15 C 0.5704(4) 0.2478(7) 0.3584(15)
C16 C 0.6148(3) 0.2969(6) 0.4329(14)
C17 C 0.6459(6) 0.3390(11) 0.3049(19)
H9 H 0.6390 0.3362 0.1780
C18 C 0.6237(6) 0.3051(12) 0.624(3)
H10 H 0.6028 0.2743 0.7037
C19 C 0.6854(6) 0.3835(9) 0.367(2)
H11 H 0.7074 0.4093 0.2833
C20 C 0.6626(8) 0.3570(12) 0.710(3)
H12 H 0.6670 0.3670 0.8371
C21 C 0.6934(4) 0.3906(9) 0.559(2)
C22 C 0.7767(4) 0.4531(12) 0.546(2)
C23 C 0.7973(5) 0.5323(7) 0.5169(19)
H13 H 0.7782 0.5823 0.5210
C24 C 0.8046(5) 0.3732(7) 0.540(2)
H14 H 0.7898 0.3205 0.5662
C25 C 0.8490(5) 0.5338(7) 0.4806(17)
H15 H 0.8650 0.5866 0.4696
C26 C 0.8545(4) 0.3804(6) 0.4940(19)
H16 H 0.8737 0.3307 0.4850
C27 C 0.8771(4) 0.4588(7) 0.4603(16)
C28 C 0.9321(3) 0.4688(6) 0.4132(15)
Na2 Na 0.0000 0.6824(4) 0.7259(13)
Na1_2 Na 0.5000 0.8176(4) 0.2259(13)
O3_2 O 0.7284(4) 0.5484(7) 0.1392(17)
C4_2 C 0.6237(6) 0.6949(12) 0.124(3)
H2_2 H 0.6028 0.7257 0.2037
C6_2 C 0.6626(8) 0.6430(12) 0.210(3)
H4_2 H 0.6670 0.6330 0.3371
C7_2 C 0.6934(4) 0.6094(9) 0.059(2)
C8_2 C 0.7767(4) 0.5469(12) 0.046(2)
C9_2 C 0.7973(5) 0.4677(7) 0.0169(19)
H5_2 H 0.7782 0.4177 0.0210
C10_2 C 0.8046(5) 0.6268(7) 0.040(2)
H6_2 H 0.7898 0.6795 0.0662
O8_2 O 0.2716(4) 0.5484(7) 0.1392(17)
O15_2 O 0.5393(3) 0.9003(5) 0.4516(10)
O16_2 O 0.4607(3) 0.9003(5) 0.4516(10)
C18_2 C 0.3763(6) 0.6949(12) 0.124(3)
H10_2 H 0.3972 0.7257 0.2037
C20_2 C 0.3374(8) 0.6430(12) 0.210(3)
H12_2 H 0.3330 0.6330 0.3371
C21_2 C 0.3066(4) 0.6094(9) 0.059(2)
C22_2 C 0.2233(4) 0.5469(12) 0.046(2)
C23_2 C 0.2027(5) 0.4677(7) 0.0169(19)
H13_2 H 0.2218 0.4177 0.0210
C24_2 C 0.1954(5) 0.6268(7) 0.040(2)
H14_2 H 0.2102 0.6795 0.0662
Yb1_2 Yb 0.5000 0.87028(2) 0.7329(2)
O1_2 O 0.5588(3) 0.7564(5) 0.718(2)
O2_2 O 0.5452(3) 0.7969(6) 0.9723(13)
O4_2 O 0.9461(3) 0.4698(6) 0.8287(14)
O5_2 O 0.9607(3) 0.5997(5) 0.9516(10)
C1_2 C 0.5704(4) 0.7522(7) 0.8584(15)
C2_2 C 0.6148(3) 0.7031(6) 0.9329(14)
C3_2 C 0.6459(6) 0.6610(11) 0.8049(19)
H1_2 H 0.6390 0.6638 0.6780
C5_2 C 0.6854(6) 0.6165(9) 0.867(2)
H3_2 H 0.7074 0.5907 0.7833
C11_2 C 0.8490(5) 0.4662(7) 0.9806(17)
H7_2 H 0.8650 0.4134 0.9696
C12_2 C 0.8545(4) 0.6196(6) 0.9940(19)
H8_2 H 0.8737 0.6693 0.9850
C13_2 C 0.8771(4) 0.5412(7) 0.9603(16)
C14_2 C 0.9321(3) 0.5312(6) 0.9132(15)
Na2_2 Na 1.0000 0.6824(4) 0.7259(13)
O6_2 O 0.4412(3) 0.7564(5) 0.718(2)
O7_2 O 0.4548(3) 0.7969(6) 0.9723(13)
O9_2 O 0.0539(3) 0.4698(6) 0.8287(14)
O10_2 O 0.4461(3) 0.9698(6) 0.8287(14)
O11_2 O 0.5539(3) 0.9698(6) 0.8287(14)
O12_2 O 0.0393(3) 0.5997(5) 0.9516(10)
C15_2 C 0.4296(4) 0.7522(7) 0.8584(15)
C16_2 C 0.3852(3) 0.7031(6) 0.9329(14)
C17_2 C 0.3541(6) 0.6610(11) 0.8049(19)
H9_2 H 0.3610 0.6638 0.6780
C19_2 C 0.3146(6) 0.6165(9) 0.867(2)
H11_2 H 0.2926 0.5907 0.7833
C25_2 C 0.1510(5) 0.4662(7) 0.9806(17)
H15_2 H 0.1350 0.4134 0.9696
C26_2 C 0.1455(4) 0.6196(6) 0.9940(19)
H16_2 H 0.1263 0.6693 0.9850
C27_2 C 0.1229(4) 0.5412(7) 0.9603(16)
C28_2 C 0.0679(3) 0.5312(6) 0.9132(15)
C23_3 C 0.2973(5) 0.0323(7) 0.5169(19)
H13_3 H 0.2782 0.0823 0.5210
C25_3 C 0.3490(5) 0.0338(7) 0.4806(17)
H15_3 H 0.3650 0.0866 0.4696
O6_3 O 0.0588(3) 0.7436(5) 0.218(2)
O7_3 O 0.0452(3) 0.7031(6) 0.4723(13)
O8_3 O 0.2284(4) 0.9516(7) 0.6392(17)
C15_3 C 0.0704(4) 0.7478(7) 0.3584(15)
C16_3 C 0.1148(3) 0.7969(6) 0.4329(14)
C17_3 C 0.1459(6) 0.8390(11) 0.3049(19)
H9_3 H 0.1390 0.8362 0.1780
C18_3 C 0.1237(6) 0.8051(12) 0.624(3)
H10_3 H 0.1028 0.7743 0.7037
C19_3 C 0.1854(6) 0.8835(9) 0.367(2)
H11_3 H 0.2074 0.9093 0.2833
C20_3 C 0.1626(8) 0.8570(12) 0.710(3)
H12_3 H 0.1670 0.8670 0.8371
C21_3 C 0.1934(4) 0.8906(9) 0.559(2)
C22_3 C 0.2767(4) 0.9531(12) 0.546(2)
C24_3 C 0.3046(5) 0.8732(7) 0.540(2)
H14_3 H 0.2898 0.8205 0.5662
C26_3 C 0.3545(4) 0.8804(6) 0.4940(19)
H16_3 H 0.3737 0.8307 0.4850
C27_3 C 0.3771(4) 0.9588(7) 0.4603(16)
C28_3 C 0.4321(3) 0.9688(6) 0.4132(15)
C9_3 C 0.7027(5) 0.0323(7) 0.5169(19)
H5_3 H 0.7218 0.0823 0.5210
C11_3 C 0.6510(5) 0.0338(7) 0.4806(17)
H7_3 H 0.6350 0.0866 0.4696
O1_3 O 0.9412(3) 0.7436(5) 0.218(2)
O2_3 O 0.9548(3) 0.7031(6) 0.4723(13)
O3_3 O 0.7716(4) 0.9516(7) 0.6392(17)
C1_3 C 0.9296(4) 0.7478(7) 0.3584(15)
C2_3 C 0.8852(3) 0.7969(6) 0.4329(14)
C3_3 C 0.8541(6) 0.8390(11) 0.3049(19)
H1_3 H 0.8610 0.8362 0.1780
C4_3 C 0.8763(6) 0.8051(12) 0.624(3)
H2_3 H 0.8972 0.7743 0.7037
C5_3 C 0.8146(6) 0.8835(9) 0.367(2)
H3_3 H 0.7926 0.9093 0.2833
C6_3 C 0.8374(8) 0.8570(12) 0.710(3)
H4_3 H 0.8330 0.8670 0.8371
C7_3 C 0.8066(4) 0.8906(9) 0.559(2)
C8_3 C 0.7233(4) 0.9531(12) 0.546(2)
C10_3 C 0.6954(5) 0.8732(7) 0.540(2)
H6_3 H 0.7102 0.8205 0.5662
C12_3 C 0.6455(4) 0.8804(6) 0.4940(19)
H8_3 H 0.6263 0.8307 0.4850
C13_3 C 0.6229(4) 0.9588(7) 0.4603(16)
C14_3 C 0.5679(3) 0.9688(6) 0.4132(15)
O3_4 O 0.2284(4) 0.0484(7) 0.1392(17)
C4_4 C 0.1237(6) 0.1949(12) 0.124(3)
H2_4 H 0.1028 0.2257 0.2037
C6_4 C 0.1626(8) 0.1430(12) 0.210(3)
H4_4 H 0.1670 0.1330 0.3371
C7_4 C 0.1934(4) 0.1094(9) 0.059(2)
C8_4 C 0.2767(4) 0.0469(12) 0.046(2)
C10_4 C 0.3046(5) 0.1268(7) 0.040(2)
H6_4 H 0.2898 0.1795 0.0662
O1_4 O 0.0588(3) 0.2564(5) 0.718(2)
O2_4 O 0.0452(3) 0.2969(6) 0.9723(13)
C1_4 C 0.0704(4) 0.2522(7) 0.8584(15)
C2_4 C 0.1148(3) 0.2031(6) 0.9329(14)
C3_4 C 0.1459(6) 0.1610(11) 0.8049(19)
H1_4 H 0.1390 0.1638 0.6780
C5_4 C 0.1854(6) 0.1165(9) 0.867(2)
H3_4 H 0.2074 0.0907 0.7833
C12_4 C 0.3545(4) 0.1196(6) 0.9940(19)
H8_4 H 0.3737 0.1693 0.9850
C13_4 C 0.3771(4) 0.0412(7) 0.9603(16)
C14_4 C 0.4321(3) 0.0312(6) 0.9132(15)
C11_4 C 0.3490(5) 0.9662(7) 0.9806(17)
H7_4 H 0.3650 0.9134 0.9696
O8_4 O 0.7716(4) 0.0484(7) 0.1392(17)
C18_4 C 0.8763(6) 0.1949(12) 0.124(3)
H10_4 H 0.8972 0.2257 0.2037
C20_4 C 0.8374(8) 0.1430(12) 0.210(3)
H12_4 H 0.8330 0.1330 0.3371
C21_4 C 0.8066(4) 0.1094(9) 0.059(2)
C22_4 C 0.7233(4) 0.0469(12) 0.046(2)
C24_4 C 0.6954(5) 0.1268(7) 0.040(2)
H14_4 H 0.7102 0.1795 0.0662
O6_4 O 0.9412(3) 0.2564(5) 0.718(2)
O7_4 O 0.9548(3) 0.2969(6) 0.9723(13)
C15_4 C 0.9296(4) 0.2522(7) 0.8584(15)
C16_4 C 0.8852(3) 0.2031(6) 0.9329(14)
C17_4 C 0.8541(6) 0.1610(11) 0.8049(19)
H9_4 H 0.8610 0.1638 0.6780
C19_4 C 0.8146(6) 0.1165(9) 0.867(2)
H11_4 H 0.7926 0.0907 0.7833
C26_4 C 0.6455(4) 0.1196(6) 0.9940(19)
H16_4 H 0.6263 0.1693 0.9850
C27_4 C 0.6229(4) 0.0412(7) 0.9603(16)
C28_4 C 0.5679(3) 0.0312(6) 0.9132(15)
C25_4 C 0.6510(5) 0.9662(7) 0.9806(17)
H15_4 H 0.6350 0.9134 0.9696
C9_4 C 0.2973(5) 0.9677(7) 0.0169(19)
H5_4 H 0.2782 0.9177 0.0210
C23_4 C 0.7027(5) 0.9677(7) 0.0169(19)
H13_4 H 0.7218 0.9177 0.0210
loop_
_geom_bond_atom_site_label_1
_geom_bond_atom_site_label_2
_geom_bond_site_symmetry_1
_geom_bond_site_symmetry_2
Yb1 O1 1_555 1_555
Na1 O2 1_555 1_555
O1 C1 1_555 1_555
O2 Yb1 1_555 1_555
O3 C7 1_555 1_555
O4 C14 1_555 1_555
O5 C14 1_555 1_555
C1 O2 1_555 1_555
C2 C1 1_555 1_555
C3 C2 1_555 1_555
H1 C3 1_555 1_555
C4 C2 1_555 1_555
H2 C4 1_555 1_555
C5 C3 1_555 1_555
H3 C5 1_555 1_555
C6 C4 1_555 1_555
H4 C6 1_555 1_555
C7 C5 1_555 1_555
C8 O3 1_555 1_555
C9 C8 1_555 1_555
H5 C9 1_555 1_555
C10 C8 1_555 1_555
H6 C10 1_555 1_555
C11 C9 1_555 1_555
H7 C11 1_555 1_555
C12 C10 1_555 1_555
H8 C12 1_555 1_555
C13 C11 1_555 1_555
C14 C13 1_555 1_555
Yb4 O4 1_555 1_555
Yb5 O5 1_555 1_555
Yb4_2 O9 1_555 1_555
Yb5_2 O12 1_555 1_555
Na3 O5 1_555 1_555
Na3_2 O12 1_555 1_555
O6 Yb1 1_555 1_555
O7 Yb1 1_555 1_555
O8 C21 1_555 1_555
O9 C28 1_555 1_555
O10 Yb1 1_555 1_555
O11 Yb1 1_555 1_555
O12 C28 1_555 1_555
O15 Na1 1_555 1_555
O16 Na1 1_555 1_555
C15 O6 1_555 1_555
C16 C15 1_555 1_555
C17 C16 1_555 1_555
H9 C17 1_555 1_555
C18 C16 1_555 1_555
H10 C18 1_555 1_555
C19 C17 1_555 1_555
H11 C19 1_555 1_555
C20 C18 1_555 1_555
H12 C20 1_555 1_555
C21 C19 1_555 1_555
C22 O8 1_555 1_555
C23 C22 1_555 1_555
H13 C23 1_555 1_555
C24 C22 1_555 1_555
H14 C24 1_555 1_555
C25 C23 1_555 1_555
H15 C25 1_555 1_555
C26 C24 1_555 1_555
H16 C26 1_555 1_555
C27 C25 1_555 1_555
C28 C27 1_555 1_555
Na1 O7 1_555 1_555
C6 C7 1_555 1_555
C12 C13 1_555 1_555
O7 C15 1_555 1_555
C20 C21 1_555 1_555
C26 C27 1_555 1_555
O3_2 C7_2 1_555 1_555
H2_2 C4_2 1_555 1_555
C6_2 C4_2 1_555 1_555
H4_2 C6_2 1_555 1_555
C8_2 O3_2 1_555 1_555
C9_2 C8_2 1_555 1_555
H5_2 C9_2 1_555 1_555
C10_2 C8_2 1_555 1_555
H6_2 C10_2 1_555 1_555
O8_2 C21_2 1_555 1_555
O15_2 Na1_2 1_555 1_555
O16_2 Na1_2 1_555 1_555
H10_2 C18_2 1_555 1_555
C20_2 C18_2 1_555 1_555
H12_2 C20_2 1_555 1_555
C22_2 O8_2 1_555 1_555
C23_2 C22_2 1_555 1_555
H13_2 C23_2 1_555 1_555
C24_2 C22_2 1_555 1_555
H14_2 C24_2 1_555 1_555
C6_2 C7_2 1_555 1_555
C20_2 C21_2 1_555 1_555
Yb1_2 O1_2 1_555 1_555
O1_2 C1_2 1_555 1_555
O2_2 Yb1_2 1_555 1_555
O4_2 C14_2 1_555 1_555
O5_2 C14_2 1_555 1_555
C1_2 O2_2 1_555 1_555
C2_2 C1_2 1_555 1_555
C3_2 C2_2 1_555 1_555
H1_2 C3_2 1_555 1_555
C5_2 C3_2 1_555 1_555
H3_2 C5_2 1_555 1_555
H7_2 C11_2 1_555 1_555
H8_2 C12_2 1_555 1_555
C13_2 C11_2 1_555 1_555
C14_2 C13_2 1_555 1_555
Yb5_2 O4_2 1_555 1_555
Yb5 O9_2 1_555 1_555
Na2_2 O5_2 1_555 1_555
Na2 O12_2 1_555 1_555
O6_2 Yb1_2 1_555 1_555
O7_2 Yb1_2 1_555 1_555
O9_2 C28_2 1_555 1_555
O10_2 Yb1_2 1_555 1_555
O11_2 Yb1_2 1_555 1_555
O12_2 C28_2 1_555 1_555
O15_2 Yb1_2 1_555 1_555
O16_2 Yb1_2 1_555 1_555
C15_2 O6_2 1_555 1_555
C16_2 C15_2 1_555 1_555
C17_2 C16_2 1_555 1_555
H9_2 C17_2 1_555 1_555
C19_2 C17_2 1_555 1_555
H11_2 C19_2 1_555 1_555
H15_2 C25_2 1_555 1_555
H16_2 C26_2 1_555 1_555
C27_2 C25_2 1_555 1_555
C28_2 C27_2 1_555 1_555
C12_2 C13_2 1_555 1_555
O7_2 C15_2 1_555 1_555
C26_2 C27_2 1_555 1_555
H13_3 C23_3 1_555 1_555
C25_3 C23_3 1_555 1_555
H15_3 C25_3 1_555 1_555
O6_3 Yb4 1_555 1_555
O7_3 Yb4 1_555 1_555
O8_3 C21_3 1_555 1_555
O16_2 C28_3 1_555 1_555
C15_3 O6_3 1_555 1_555
C16_3 C15_3 1_555 1_555
C17_3 C16_3 1_555 1_555
H9_3 C17_3 1_555 1_555
C18_3 C16_3 1_555 1_555
H10_3 C18_3 1_555 1_555
C19_3 C17_3 1_555 1_555
H11_3 C19_3 1_555 1_555
C20_3 C18_3 1_555 1_555
H12_3 C20_3 1_555 1_555
C21_3 C19_3 1_555 1_555
C22_3 O8_3 1_555 1_555
C24_3 C22_3 1_555 1_555
H14_3 C24_3 1_555 1_555
C26_3 C24_3 1_555 1_555
H16_3 C26_3 1_555 1_555
C28_3 C27_3 1_555 1_555
Na2 O7_3 1_555 1_555
O7_3 C15_3 1_555 1_555
C20_3 C21_3 1_555 1_555
C26_3 C27_3 1_555 1_555
H5_3 C9_3 1_555 1_555
C11_3 C9_3 1_555 1_555
H7_3 C11_3 1_555 1_555
Yb4_2 O1_3 1_555 1_555
Na2_2 O2_3 1_555 1_555
O1_3 C1_3 1_555 1_555
O2_3 Yb4_2 1_555 1_555
O3_3 C7_3 1_555 1_555
O15_2 C14_3 1_555 1_555
C1_3 O2_3 1_555 1_555
C2_3 C1_3 1_555 1_555
C3_3 C2_3 1_555 1_555
H1_3 C3_3 1_555 1_555
C4_3 C2_3 1_555 1_555
H2_3 C4_3 1_555 1_555
C5_3 C3_3 1_555 1_555
H3_3 C5_3 1_555 1_555
C6_3 C4_3 1_555 1_555
H4_3 C6_3 1_555 1_555
C7_3 C5_3 1_555 1_555
C8_3 O3_3 1_555 1_555
C10_3 C8_3 1_555 1_555
H6_3 C10_3 1_555 1_555
C12_3 C10_3 1_555 1_555
H8_3 C12_3 1_555 1_555
C14_3 C13_3 1_555 1_555
C6_3 C7_3 1_555 1_555
C12_3 C13_3 1_555 1_555
O3_4 C7_4 1_555 1_555
H2_4 C4_4 1_555 1_555
C6_4 C4_4 1_555 1_555
H4_4 C6_4 1_555 1_555
C8_4 O3_4 1_555 1_555
C10_4 C8_4 1_555 1_555
H6_4 C10_4 1_555 1_555
C6_4 C7_4 1_555 1_555
Yb5 O1_4 1_555 1_555
O1_4 C1_4 1_555 1_555
O2_4 Yb5 1_555 1_555
O15 C14_4 1_555 1_555
C1_4 O2_4 1_555 1_555
C2_4 C1_4 1_555 1_555
C3_4 C2_4 1_555 1_555
H1_4 C3_4 1_555 1_555
C5_4 C3_4 1_555 1_555
H3_4 C5_4 1_555 1_555
H8_4 C12_4 1_555 1_555
C14_4 C13_4 1_555 1_555
C12_4 C13_4 1_555 1_555
H7_4 C11_4 1_555 1_555
O8_4 C21_4 1_555 1_555
H10_4 C18_4 1_555 1_555
C20_4 C18_4 1_555 1_555
H12_4 C20_4 1_555 1_555
C22_4 O8_4 1_555 1_555
C24_4 C22_4 1_555 1_555
H14_4 C24_4 1_555 1_555
C20_4 C21_4 1_555 1_555
O6_4 Yb5_2 1_555 1_555
O7_4 Yb5_2 1_555 1_555
O16 C28_4 1_555 1_555
C15_4 O6_4 1_555 1_555
C16_4 C15_4 1_555 1_555
C17_4 C16_4 1_555 1_555
H9_4 C17_4 1_555 1_555
C19_4 C17_4 1_555 1_555
H11_4 C19_4 1_555 1_555
H16_4 C26_4 1_555 1_555
C28_4 C27_4 1_555 1_555
O7_4 C15_4 1_555 1_555
C26_4 C27_4 1_555 1_555
H15_4 C25_4 1_555 1_555
H5_4 C9_4 1_555 1_555
H13_4 C23_4 1_555 1_555

#END
