
###############################################################################
#
# This file contains modified crystal structure data generated from the
# MOF subset of the Cambridge Structural Database (CSD) v543 
# hosted by the Cambridge Crystallographic Data Centre (CCDC).
#
# This work is licensed under the Creative Commons
# Attribution-NonCommercial-ShareAlike 4.0 International License.
# To view a copy of this license, visit
# http://creativecommons.org/licenses/by-nc-sa/4.0/
# or send a letter to
# Creative Commons, PO Box 1866, Mountain View, CA 94042, USA.
#
# CIF created using the CSD Python API on 29 September 2022
# The structure has been converted into the P1 space group
# The structure has a 3D framework
# The original CSD entry TAPXIT01 is in the orthorhombic crystal system
# The framework has been calculated to contain at least 10.0% void space
# The void calculation uses a probe of radius 1.32A, grid spacing 0.4
#
###############################################################################

data_TAPXIT01
_chemical_formula_moiety         '(C112 H64 Na6 O32 Yb4)n'
_symmetry_cell_setting           triclinic
_symmetry_space_group_name_H-M   'P 1'
_symmetry_Int_Tables_number      1
_space_group_name_Hall           'P 1'
loop_
_symmetry_equiv_pos_site_id
_symmetry_equiv_pos_as_xyz
1 x,y,z
_cell_length_a                   26.6753(16)
_cell_length_b                   15.5727(16)
_cell_length_c                   7.1782(5)
_cell_angle_alpha                90
_cell_angle_beta                 90
_cell_angle_gamma                90
_cell_volume                     2981.87
loop_
_atom_site_label
_atom_site_type_symbol
_atom_site_fract_x
_atom_site_fract_y
_atom_site_fract_z
Yb1 Yb 0.5000 0.13360(3) 0.2314(2)
Na1 Na 0.0000 0.3205(5) 0.2252(19)
O1 O 0.4397(3) 0.2483(5) 0.225(3)
O2 O 0.4568(4) 0.2091(8) 0.4708(15)
O3 O 0.2696(4) 0.4511(8) 0.6482(17)
O4 O 0.0537(3) 0.5328(7) 0.3314(15)
O5 O 0.0400(3) 0.3994(6) 0.4538(12)
O6 O 0.0000 0.1473(17) 0.268(7)
C1 C 0.4290(4) 0.2523(10) 0.3661(18)
C2 C 0.3871(4) 0.2997(8) 0.4337(17)
C3 C 0.3525(5) 0.3384(10) 0.3141(18)
H1 H 0.3568 0.3325 0.1862
C4 C 0.3792(7) 0.3144(16) 0.626(2)
H2 H 0.4027 0.2920 0.7083
C5 C 0.3122(5) 0.3848(11) 0.379(2)
H3 H 0.2895 0.4092 0.2959
C6 C 0.3384(6) 0.3603(13) 0.704(4)
H4 H 0.3336 0.3672 0.8312
C7 C 0.3061(4) 0.3944(10) 0.568(2)
C8 C 0.2218(6) 0.4530(12) 0.554(2)
C9 C 0.2018(5) 0.5353(9) 0.5291(19)
H5 H 0.2204 0.5853 0.5427
C10 C 0.1946(5) 0.3711(10) 0.548(2)
H6 H 0.2091 0.3182 0.5755
C11 C 0.1524(5) 0.5349(9) 0.483(2)
H7 H 0.1365 0.5872 0.4618
C12 C 0.1448(5) 0.3815(9) 0.496(2)
H8 H 0.1247 0.3330 0.4824
C13 C 0.1245(5) 0.4597(9) 0.4650(18)
C14 C 0.0685(4) 0.4676(7) 0.4093(16)
Yb3 Yb 0.0000 0.63360(3) 0.2314(2)
Yb4 Yb 0.0000 0.36640(3) 0.7314(2)
Na3 Na 0.5000 0.1795(5) 0.7252(19)
O8 O 0.5603(3) 0.2483(5) 0.225(3)
O10 O 0.5432(4) 0.2091(8) 0.4708(15)
O15 O 0.5537(3) 0.0328(7) 0.3314(15)
O16 O 0.4463(3) 0.0328(7) 0.3314(15)
C16 C 0.5710(4) 0.2523(10) 0.3661(18)
O11 O 0.0432(4) 0.2909(8) 0.9708(15)
O18 O 0.4600(3) 0.1006(6) 0.9538(12)
O19 O 0.5400(3) 0.1006(6) 0.9538(12)
Na1_2 Na 1.0000 0.3205(5) 0.2252(19)
O6_2 O 1.0000 0.1473(17) 0.268(7)
Yb3_2 Yb 1.0000 0.63360(3) 0.2314(2)
Yb4_2 Yb 1.0000 0.36640(3) 0.7314(2)
O13 O 0.7304(4) 0.4511(8) 0.6482(17)
O14 O 0.9463(3) 0.5328(7) 0.3314(15)
O17 O 0.9600(3) 0.3994(6) 0.4538(12)
C17 C 0.6129(4) 0.2997(8) 0.4337(17)
C18 C 0.6475(5) 0.3384(10) 0.3141(18)
H9 H 0.6432 0.3325 0.1862
C19 C 0.6208(7) 0.3144(16) 0.626(2)
H10 H 0.5973 0.2920 0.7083
C20 C 0.6878(5) 0.3848(11) 0.379(2)
H11 H 0.7105 0.4092 0.2959
C21 C 0.6616(6) 0.3603(13) 0.704(4)
H12 H 0.6664 0.3672 0.8312
C22 C 0.6939(4) 0.3944(10) 0.568(2)
C23 C 0.7782(6) 0.4530(12) 0.554(2)
C24 C 0.7982(5) 0.5353(9) 0.5291(19)
H13 H 0.7796 0.5853 0.5427
C25 C 0.8054(5) 0.3711(10) 0.548(2)
H14 H 0.7909 0.3182 0.5755
C26 C 0.8476(5) 0.5349(9) 0.483(2)
H15 H 0.8635 0.5872 0.4618
C27 C 0.8552(5) 0.3815(9) 0.496(2)
H16 H 0.8753 0.3330 0.4824
C28 C 0.8755(5) 0.4597(9) 0.4650(18)
C29 C 0.9315(4) 0.4676(7) 0.4093(16)
O12 O 0.9568(4) 0.2909(8) 0.9708(15)
Na2 Na 0.5000 0.8205(5) 0.2252(19)
O13_2 O 0.2696(4) 0.5489(8) 0.1482(17)
C19_2 C 0.3792(7) 0.6856(16) 0.126(2)
H10_2 H 0.4027 0.7080 0.2083
C21_2 C 0.3384(6) 0.6397(13) 0.204(4)
H12_2 H 0.3336 0.6328 0.3312
C22_2 C 0.3061(4) 0.6056(10) 0.068(2)
C23_2 C 0.2218(6) 0.5470(12) 0.054(2)
C24_2 C 0.2018(5) 0.4647(9) 0.0291(19)
H13_2 H 0.2204 0.4147 0.0427
C25_2 C 0.1946(5) 0.6289(10) 0.048(2)
H14_2 H 0.2091 0.6818 0.0755
Na1_3 Na -0.0000 0.6795(5) 0.7252(19)
O6_3 O 0.0000 0.8527(17) 0.768(7)
Yb2 Yb 0.5000 0.86640(3) 0.7314(2)
O7 O 0.4397(3) 0.7517(5) 0.725(3)
O9 O 0.4568(4) 0.7909(8) 0.9708(15)
O12_2 O 0.0432(4) 0.7091(8) 0.4708(15)
O14_2 O 0.0537(3) 0.4672(7) 0.8314(15)
O17_2 O 0.0400(3) 0.6006(6) 0.9538(12)
C15 C 0.4290(4) 0.7477(10) 0.8661(18)
C17_2 C 0.3871(4) 0.7003(8) 0.9337(17)
C18_2 C 0.3525(5) 0.6616(10) 0.8141(18)
H9_2 H 0.3568 0.6675 0.6862
C20_2 C 0.3122(5) 0.6152(11) 0.879(2)
H11_2 H 0.2895 0.5908 0.7959
C26_2 C 0.1524(5) 0.4651(9) 0.983(2)
H15_2 H 0.1365 0.4128 0.9618
C27_2 C 0.1448(5) 0.6185(9) 0.996(2)
H16_2 H 0.1247 0.6670 0.9824
C28_2 C 0.1245(5) 0.5403(9) 0.9650(18)
C29_2 C 0.0685(4) 0.5324(7) 0.9093(16)
O3_2 O 0.7304(4) 0.5489(8) 0.1482(17)
C4_2 C 0.6208(7) 0.6856(16) 0.126(2)
H2_2 H 0.5973 0.7080 0.2083
C6_2 C 0.6616(6) 0.6397(13) 0.204(4)
H4_2 H 0.6664 0.6328 0.3312
C7_2 C 0.6939(4) 0.6056(10) 0.068(2)
C8_2 C 0.7782(6) 0.5470(12) 0.054(2)
C9_2 C 0.7982(5) 0.4647(9) 0.0291(19)
H5_2 H 0.7796 0.4147 0.0427
C10_2 C 0.8054(5) 0.6289(10) 0.048(2)
H6_2 H 0.7909 0.6818 0.0755
Na1_4 Na 1.0000 0.6795(5) 0.7252(19)
O1_2 O 0.5603(3) 0.7517(5) 0.725(3)
O2_2 O 0.5432(4) 0.7909(8) 0.9708(15)
O4_2 O 0.9463(3) 0.4672(7) 0.8314(15)
O5_2 O 0.9600(3) 0.6006(6) 0.9538(12)
O6_4 O 1.0000 0.8527(17) 0.768(7)
C1_2 C 0.5710(4) 0.7477(10) 0.8661(18)
C2_2 C 0.6129(4) 0.7003(8) 0.9337(17)
C3_2 C 0.6475(5) 0.6616(10) 0.8141(18)
H1_2 H 0.6432 0.6675 0.6862
C5_2 C 0.6878(5) 0.6152(11) 0.879(2)
H3_2 H 0.7105 0.5908 0.7959
C11_2 C 0.8476(5) 0.4651(9) 0.983(2)
H7_2 H 0.8635 0.4128 0.9618
C12_2 C 0.8552(5) 0.6185(9) 0.996(2)
H8_2 H 0.8753 0.6670 0.9824
C13_2 C 0.8755(5) 0.5403(9) 0.9650(18)
C14_2 C 0.9315(4) 0.5324(7) 0.9093(16)
O11_2 O 0.9568(4) 0.7091(8) 0.4708(15)
O15_2 O 0.4463(3) 0.9672(7) 0.8314(15)
O16_2 O 0.5537(3) 0.9672(7) 0.8314(15)
O18_2 O 0.5400(3) 0.8994(6) 0.4538(12)
O19_2 O 0.4600(3) 0.8994(6) 0.4538(12)
O8_2 O 0.0603(3) 0.7483(5) 0.225(3)
C16_2 C 0.0710(4) 0.7523(10) 0.3661(18)
C9_3 C 0.7018(5) 0.0353(9) 0.5291(19)
H5_3 H 0.7204 0.0853 0.5427
C11_3 C 0.6524(5) 0.0349(9) 0.483(2)
H7_3 H 0.6365 0.0872 0.4618
C24_3 C 0.2982(5) 0.0353(9) 0.5291(19)
H13_3 H 0.2796 0.0853 0.5427
C26_3 C 0.3476(5) 0.0349(9) 0.483(2)
H15_3 H 0.3635 0.0872 0.4618
O1_3 O 0.9397(3) 0.7483(5) 0.225(3)
O3_3 O 0.7696(4) 0.9511(8) 0.6482(17)
O6_5 O 0.5000 0.6473(17) 0.268(7)
C1_3 C 0.9290(4) 0.7523(10) 0.3661(18)
C2_3 C 0.8871(4) 0.7997(8) 0.4337(17)
C3_3 C 0.8525(5) 0.8384(10) 0.3141(18)
H1_3 H 0.8568 0.8325 0.1862
C4_3 C 0.8792(7) 0.8144(16) 0.626(2)
H2_3 H 0.9027 0.7920 0.7083
C5_3 C 0.8122(5) 0.8848(11) 0.379(2)
H3_3 H 0.7895 0.9092 0.2959
C6_3 C 0.8384(6) 0.8603(13) 0.704(4)
H4_3 H 0.8336 0.8672 0.8312
C7_3 C 0.8061(4) 0.8944(10) 0.568(2)
C8_3 C 0.7218(6) 0.9530(12) 0.554(2)
C10_3 C 0.6946(5) 0.8711(10) 0.548(2)
H6_3 H 0.7091 0.8182 0.5755
C12_3 C 0.6448(5) 0.8815(9) 0.496(2)
H8_3 H 0.6247 0.8330 0.4824
C13_3 C 0.6245(5) 0.9597(9) 0.4650(18)
C14_3 C 0.5685(4) 0.9676(7) 0.4093(16)
O13_3 O 0.2304(4) 0.9511(8) 0.6482(17)
C17_3 C 0.1129(4) 0.7997(8) 0.4337(17)
C18_3 C 0.1475(5) 0.8384(10) 0.3141(18)
H9_3 H 0.1432 0.8325 0.1862
C19_3 C 0.1208(7) 0.8144(16) 0.626(2)
H10_3 H 0.0973 0.7920 0.7083
C20_3 C 0.1878(5) 0.8848(11) 0.379(2)
H11_3 H 0.2105 0.9092 0.2959
C21_3 C 0.1616(6) 0.8603(13) 0.704(4)
H12_3 H 0.1664 0.8672 0.8312
C22_3 C 0.1939(4) 0.8944(10) 0.568(2)
C23_3 C 0.2782(6) 0.9530(12) 0.554(2)
C25_3 C 0.3054(5) 0.8711(10) 0.548(2)
H14_3 H 0.2909 0.8182 0.5755
C27_3 C 0.3552(5) 0.8815(9) 0.496(2)
H16_3 H 0.3753 0.8330 0.4824
C28_3 C 0.3755(5) 0.9597(9) 0.4650(18)
C29_3 C 0.4315(4) 0.9676(7) 0.4093(16)
O3_4 O 0.2304(4) 0.0489(8) 0.1482(17)
C4_4 C 0.1208(7) 0.1856(16) 0.126(2)
H2_4 H 0.0973 0.2080 0.2083
C6_4 C 0.1616(6) 0.1397(13) 0.204(4)
H4_4 H 0.1664 0.1328 0.3312
C7_4 C 0.1939(4) 0.1056(10) 0.068(2)
C8_4 C 0.2782(6) 0.0470(12) 0.054(2)
C10_4 C 0.3054(5) 0.1289(10) 0.048(2)
H6_4 H 0.2909 0.1818 0.0755
O13_4 O 0.7696(4) 0.0489(8) 0.1482(17)
C19_4 C 0.8792(7) 0.1856(16) 0.126(2)
H10_4 H 0.9027 0.2080 0.2083
C21_4 C 0.8384(6) 0.1397(13) 0.204(4)
H12_4 H 0.8336 0.1328 0.3312
C22_4 C 0.8061(4) 0.1056(10) 0.068(2)
C23_4 C 0.7218(6) 0.0470(12) 0.054(2)
C25_4 C 0.6946(5) 0.1289(10) 0.048(2)
H14_4 H 0.7091 0.1818 0.0755
O1_4 O 0.0603(3) 0.2517(5) 0.725(3)
O6_6 O 0.5000 0.3527(17) 0.768(7)
C1_4 C 0.0710(4) 0.2477(10) 0.8661(18)
C2_4 C 0.1129(4) 0.2003(8) 0.9337(17)
C3_4 C 0.1475(5) 0.1616(10) 0.8141(18)
H1_4 H 0.1432 0.1675 0.6862
C5_4 C 0.1878(5) 0.1152(11) 0.879(2)
H3_4 H 0.2105 0.0908 0.7959
C12_4 C 0.3552(5) 0.1185(9) 0.996(2)
H8_4 H 0.3753 0.1670 0.9824
C13_4 C 0.3755(5) 0.0403(9) 0.9650(18)
C14_4 C 0.4315(4) 0.0324(7) 0.9093(16)
O7_2 O 0.9397(3) 0.2517(5) 0.725(3)
C15_2 C 0.9290(4) 0.2477(10) 0.8661(18)
C17_4 C 0.8871(4) 0.2003(8) 0.9337(17)
C18_4 C 0.8525(5) 0.1616(10) 0.8141(18)
H9_4 H 0.8568 0.1675 0.6862
C20_4 C 0.8122(5) 0.1152(11) 0.879(2)
H11_4 H 0.7895 0.0908 0.7959
C27_4 C 0.6448(5) 0.1185(9) 0.996(2)
H16_4 H 0.6247 0.1670 0.9824
C28_4 C 0.6245(5) 0.0403(9) 0.9650(18)
C29_4 C 0.5685(4) 0.0324(7) 0.9093(16)
C11_4 C 0.3476(5) 0.9651(9) 0.983(2)
H7_4 H 0.3635 0.9128 0.9618
C26_4 C 0.6524(5) 0.9651(9) 0.983(2)
H15_4 H 0.6365 0.9128 0.9618
C9_4 C 0.2982(5) 0.9647(9) 0.0291(19)
H5_4 H 0.2796 0.9147 0.0427
C24_4 C 0.7018(5) 0.9647(9) 0.0291(19)
H13_4 H 0.7204 0.9147 0.0427
loop_
_geom_bond_atom_site_label_1
_geom_bond_atom_site_label_2
_geom_bond_site_symmetry_1
_geom_bond_site_symmetry_2
Yb1 O1 1_555 1_555
Na1 O5 1_555 1_555
O1 C1 1_555 1_555
O2 Yb1 1_555 1_555
O3 C7 1_555 1_555
O4 C14 1_555 1_555
O5 C14 1_555 1_555
O6 Na1 1_555 1_555
C1 O2 1_555 1_555
C2 C1 1_555 1_555
C3 C2 1_555 1_555
H1 C3 1_555 1_555
C4 C2 1_555 1_555
H2 C4 1_555 1_555
C5 C3 1_555 1_555
H3 C5 1_555 1_555
C6 C4 1_555 1_555
H4 C6 1_555 1_555
C7 C5 1_555 1_555
C8 O3 1_555 1_555
C9 C8 1_555 1_555
H5 C9 1_555 1_555
C10 C8 1_555 1_555
H6 C10 1_555 1_555
C11 C9 1_555 1_555
H7 C11 1_555 1_555
C12 C10 1_555 1_555
H8 C12 1_555 1_555
C13 C11 1_555 1_555
C14 C13 1_555 1_555
Yb3 O4 1_555 1_555
Yb4 O5 1_555 1_555
Na3 O2 1_555 1_555
O8 Yb1 1_555 1_555
O10 Yb1 1_555 1_555
O15 Yb1 1_555 1_555
O16 Yb1 1_555 1_555
C16 O8 1_555 1_555
C6 C7 1_555 1_555
C12 C13 1_555 1_555
Na3 O10 1_555 1_555
O10 C16 1_555 1_555
O6_2 Na1_2 1_555 1_555
O13 C22 1_555 1_555
O14 Yb3_2 1_555 1_555
O17 Na1_2 1_555 1_555
C17 C16 1_555 1_555
C18 C17 1_555 1_555
H9 C18 1_555 1_555
C19 C17 1_555 1_555
H10 C19 1_555 1_555
C20 C18 1_555 1_555
H11 C20 1_555 1_555
C21 C19 1_555 1_555
H12 C21 1_555 1_555
C22 C20 1_555 1_555
C23 O13 1_555 1_555
C24 C23 1_555 1_555
H13 C24 1_555 1_555
C25 C23 1_555 1_555
H14 C25 1_555 1_555
C26 C24 1_555 1_555
H15 C26 1_555 1_555
C27 C25 1_555 1_555
H16 C27 1_555 1_555
C28 C26 1_555 1_555
C29 O14 1_555 1_555
Yb4_2 O17 1_555 1_555
O17 C29 1_555 1_555
C21 C22 1_555 1_555
C27 C28 1_555 1_555
C28 C29 1_555 1_555
O13_2 C22_2 1_555 1_555
H10_2 C19_2 1_555 1_555
C21_2 C19_2 1_555 1_555
H12_2 C21_2 1_555 1_555
C23_2 O13_2 1_555 1_555
C24_2 C23_2 1_555 1_555
H13_2 C24_2 1_555 1_555
C25_2 C23_2 1_555 1_555
H14_2 C25_2 1_555 1_555
C21_2 C22_2 1_555 1_555
O6_3 Na1_3 1_555 1_555
Yb2 O7 1_555 1_555
O7 C15 1_555 1_555
O9 Yb2 1_555 1_555
O12_2 Na1_3 1_555 1_555
O14_2 Yb4 1_555 1_555
O17_2 Na1_3 1_555 1_555
C15 O9 1_555 1_555
C17_2 C15 1_555 1_555
C18_2 C17_2 1_555 1_555
H9_2 C18_2 1_555 1_555
C20_2 C18_2 1_555 1_555
H11_2 C20_2 1_555 1_555
H15_2 C26_2 1_555 1_555
H16_2 C27_2 1_555 1_555
C28_2 C26_2 1_555 1_555
C29_2 O14_2 1_555 1_555
O17_2 C29_2 1_555 1_555
C27_2 C28_2 1_555 1_555
C28_2 C29_2 1_555 1_555
O3_2 C7_2 1_555 1_555
H2_2 C4_2 1_555 1_555
C6_2 C4_2 1_555 1_555
H4_2 C6_2 1_555 1_555
C8_2 O3_2 1_555 1_555
C9_2 C8_2 1_555 1_555
H5_2 C9_2 1_555 1_555
C10_2 C8_2 1_555 1_555
H6_2 C10_2 1_555 1_555
C6_2 C7_2 1_555 1_555
Yb2 O1_2 1_555 1_555
Na1_4 O5_2 1_555 1_555
O1_2 C1_2 1_555 1_555
O2_2 Yb2 1_555 1_555
O4_2 C14_2 1_555 1_555
O5_2 C14_2 1_555 1_555
O6_4 Na1_4 1_555 1_555
C1_2 O2_2 1_555 1_555
C2_2 C1_2 1_555 1_555
C3_2 C2_2 1_555 1_555
H1_2 C3_2 1_555 1_555
C5_2 C3_2 1_555 1_555
H3_2 C5_2 1_555 1_555
H7_2 C11_2 1_555 1_555
H8_2 C12_2 1_555 1_555
C13_2 C11_2 1_555 1_555
C14_2 C13_2 1_555 1_555
Yb4_2 O4_2 1_555 1_555
O11_2 Na1_4 1_555 1_555
O15_2 Yb2 1_555 1_555
O16_2 Yb2 1_555 1_555
O18_2 Yb2 1_555 1_555
O19_2 Yb2 1_555 1_555
C12_2 C13_2 1_555 1_555
O8_2 Yb3 1_555 1_555
O12_2 Yb3 1_555 1_555
C16_2 O8_2 1_555 1_555
O12_2 C16_2 1_555 1_555
H5_3 C9_3 1_555 1_555
C11_3 C9_3 1_555 1_555
H7_3 C11_3 1_555 1_555
H13_3 C24_3 1_555 1_555
C26_3 C24_3 1_555 1_555
H15_3 C26_3 1_555 1_555
Yb3_2 O1_3 1_555 1_555
Na2 O18_2 1_555 1_555
O1_3 C1_3 1_555 1_555
O11_2 Yb3_2 1_555 1_555
O3_3 C7_3 1_555 1_555
O18_2 C14_3 1_555 1_555
O6_5 Na2 1_555 1_555
C1_3 O11_2 1_555 1_555
C2_3 C1_3 1_555 1_555
C3_3 C2_3 1_555 1_555
H1_3 C3_3 1_555 1_555
C4_3 C2_3 1_555 1_555
H2_3 C4_3 1_555 1_555
C5_3 C3_3 1_555 1_555
H3_3 C5_3 1_555 1_555
C6_3 C4_3 1_555 1_555
H4_3 C6_3 1_555 1_555
C7_3 C5_3 1_555 1_555
C8_3 O3_3 1_555 1_555
C10_3 C8_3 1_555 1_555
H6_3 C10_3 1_555 1_555
C12_3 C10_3 1_555 1_555
H8_3 C12_3 1_555 1_555
C14_3 C13_3 1_555 1_555
O13_3 C22_3 1_555 1_555
O19_2 Na2 1_555 1_555
C17_3 C16_2 1_555 1_555
C18_3 C17_3 1_555 1_555
H9_3 C18_3 1_555 1_555
C19_3 C17_3 1_555 1_555
H10_3 C19_3 1_555 1_555
C20_3 C18_3 1_555 1_555
H11_3 C20_3 1_555 1_555
C21_3 C19_3 1_555 1_555
H12_3 C21_3 1_555 1_555
C22_3 C20_3 1_555 1_555
C23_3 O13_3 1_555 1_555
C25_3 C23_3 1_555 1_555
H14_3 C25_3 1_555 1_555
C27_3 C25_3 1_555 1_555
H16_3 C27_3 1_555 1_555
C6_3 C7_3 1_555 1_555
C12_3 C13_3 1_555 1_555
O19_2 C29_3 1_555 1_555
C21_3 C22_3 1_555 1_555
C27_3 C28_3 1_555 1_555
C28_3 C29_3 1_555 1_555
O3_4 C7_4 1_555 1_555
H2_4 C4_4 1_555 1_555
C6_4 C4_4 1_555 1_555
H4_4 C6_4 1_555 1_555
C8_4 O3_4 1_555 1_555
C10_4 C8_4 1_555 1_555
H6_4 C10_4 1_555 1_555
O13_4 C22_4 1_555 1_555
H10_4 C19_4 1_555 1_555
C21_4 C19_4 1_555 1_555
H12_4 C21_4 1_555 1_555
C23_4 O13_4 1_555 1_555
C25_4 C23_4 1_555 1_555
H14_4 C25_4 1_555 1_555
C6_4 C7_4 1_555 1_555
C21_4 C22_4 1_555 1_555
Yb4 O1_4 1_555 1_555
Na3 O18 1_555 1_555
O1_4 C1_4 1_555 1_555
O11 Yb4 1_555 1_555
O18 C14_4 1_555 1_555
O6_6 Na3 1_555 1_555
C1_4 O11 1_555 1_555
C2_4 C1_4 1_555 1_555
C3_4 C2_4 1_555 1_555
H1_4 C3_4 1_555 1_555
C5_4 C3_4 1_555 1_555
H3_4 C5_4 1_555 1_555
H8_4 C12_4 1_555 1_555
C14_4 C13_4 1_555 1_555
Yb4_2 O7_2 1_555 1_555
O7_2 C15_2 1_555 1_555
O12 Yb4_2 1_555 1_555
O19 Na3 1_555 1_555
C15_2 O12 1_555 1_555
C17_4 C15_2 1_555 1_555
C18_4 C17_4 1_555 1_555
H9_4 C18_4 1_555 1_555
C20_4 C18_4 1_555 1_555
H11_4 C20_4 1_555 1_555
H16_4 C27_4 1_555 1_555
C12_4 C13_4 1_555 1_555
O19 C29_4 1_555 1_555
C27_4 C28_4 1_555 1_555
C28_4 C29_4 1_555 1_555
H7_4 C11_4 1_555 1_555
H15_4 C26_4 1_555 1_555
H5_4 C9_4 1_555 1_555
H13_4 C24_4 1_555 1_555

#END
