
###############################################################################
#
# This file contains modified crystal structure data generated from the
# MOF subset of the Cambridge Structural Database (CSD) v543 
# hosted by the Cambridge Crystallographic Data Centre (CCDC).
#
# This work is licensed under the Creative Commons
# Attribution-NonCommercial-ShareAlike 4.0 International License.
# To view a copy of this license, visit
# http://creativecommons.org/licenses/by-nc-sa/4.0/
# or send a letter to
# Creative Commons, PO Box 1866, Mountain View, CA 94042, USA.
#
# CIF created using the CSD Python API on 29 September 2022
# The structure has been converted into the P1 space group
# The structure has a 3D framework
# The original CSD entry TAPXOZ is in the orthorhombic crystal system
# The framework has been calculated to contain at least 10.0% void space
# The void calculation uses a probe of radius 1.32A, grid spacing 0.4
#
###############################################################################

data_TAPXOZ
_chemical_formula_moiety         '(C112 H64 Na6 O32 Tb4)n'
_symmetry_cell_setting           triclinic
_symmetry_space_group_name_H-M   'P 1'
_symmetry_Int_Tables_number      1
_space_group_name_Hall           'P 1'
loop_
_symmetry_equiv_pos_site_id
_symmetry_equiv_pos_as_xyz
1 x,y,z
_cell_length_a                   26.9201(13)
_cell_length_b                   15.1196(5)
_cell_length_c                   7.2696(3)
_cell_angle_alpha                90
_cell_angle_beta                 90
_cell_angle_gamma                90
_cell_volume                     2958.88
loop_
_atom_site_label
_atom_site_type_symbol
_atom_site_fract_x
_atom_site_fract_y
_atom_site_fract_z
Tb1 Tb 0.5000 0.13659(3) 0.23029(11)
Na1 Na -0.0000 0.3206(5) 0.2192(12)
O1 O 0.4379(3) 0.2519(4) 0.2183(18)
O2 O 0.4579(4) 0.2175(7) 0.4808(11)
O3 O 0.2688(3) 0.4512(7) 0.6584(15)
O4 O 0.0545(2) 0.5322(5) 0.3334(13)
O5 O 0.0409(2) 0.3977(5) 0.4522(9)
C1 C 0.4293(4) 0.2538(7) 0.3752(12)
C2 C 0.3856(4) 0.3047(7) 0.4435(13)
C3 C 0.3515(5) 0.3393(10) 0.3279(16)
H1 H 0.3565 0.3339 0.2018
C4 C 0.3794(5) 0.3208(14) 0.636(2)
H2 H 0.4048 0.3009 0.7125
C5 C 0.3096(5) 0.3824(11) 0.390(2)
H3 H 0.2858 0.4044 0.3092
C6 C 0.3392(6) 0.3635(8) 0.725(4)
H4 H 0.3356 0.3720 0.8507
C7 C 0.3044(4) 0.3916(10) 0.582(2)
C8 C 0.2208(4) 0.4525(12) 0.5663(18)
C9 C 0.1998(4) 0.5361(7) 0.5357(16)
H5 H 0.2178 0.5883 0.5461
C10 C 0.1942(5) 0.3716(8) 0.556(2)
H6 H 0.2088 0.3174 0.5822
C11 C 0.1539(6) 0.5342(10) 0.4922(17)
H7 H 0.1381 0.5881 0.4734
C12 C 0.1445(5) 0.3794(8) 0.504(2)
H8 H 0.1248 0.3292 0.4917
C13 C 0.1257(5) 0.4584(6) 0.4709(13)
C14 C 0.0699(3) 0.4651(6) 0.4153(12)
Tb3 Tb 0.0000 0.63659(3) 0.23029(11)
Tb4 Tb 0.0000 0.36341(3) 0.73029(11)
Na3 Na 0.5000 0.1794(5) 0.7192(12)
O7 O 0.5621(3) 0.2519(4) 0.2183(18)
O9 O 0.5421(4) 0.2175(7) 0.4808(11)
O14 O 0.5545(2) 0.0322(5) 0.3334(13)
O15 O 0.4455(2) 0.0322(5) 0.3334(13)
C16 C 0.5707(4) 0.2538(7) 0.3752(12)
O10 O 0.0421(4) 0.2825(7) 0.9808(11)
O17 O 0.4591(2) 0.1023(5) 0.9522(9)
O18 O 0.5409(2) 0.1023(5) 0.9522(9)
Na1_2 Na 1.0000 0.3206(5) 0.2192(12)
Tb3_2 Tb 1.0000 0.63659(3) 0.23029(11)
Tb4_2 Tb 1.0000 0.36341(3) 0.73029(11)
O12 O 0.7312(3) 0.4512(7) 0.6584(15)
O13 O 0.9455(2) 0.5322(5) 0.3334(13)
O16 O 0.9591(2) 0.3977(5) 0.4522(9)
C17 C 0.6144(4) 0.3047(7) 0.4435(13)
C18 C 0.6485(5) 0.3393(10) 0.3279(16)
H9 H 0.6435 0.3339 0.2018
C19 C 0.6206(5) 0.3208(14) 0.636(2)
H10 H 0.5952 0.3009 0.7125
C20 C 0.6904(5) 0.3824(11) 0.390(2)
H11 H 0.7142 0.4044 0.3092
C21 C 0.6608(6) 0.3635(8) 0.725(4)
H12 H 0.6644 0.3720 0.8507
C22 C 0.6956(4) 0.3916(10) 0.582(2)
C23 C 0.7792(4) 0.4525(12) 0.5663(18)
C24 C 0.8002(4) 0.5361(7) 0.5357(16)
H13 H 0.7822 0.5883 0.5461
C25 C 0.8058(5) 0.3716(8) 0.556(2)
H14 H 0.7912 0.3174 0.5822
C26 C 0.8461(6) 0.5342(10) 0.4922(17)
H15 H 0.8619 0.5881 0.4734
C27 C 0.8555(5) 0.3794(8) 0.504(2)
H16 H 0.8752 0.3292 0.4917
C28 C 0.8743(5) 0.4584(6) 0.4709(13)
C29 C 0.9301(3) 0.4651(6) 0.4153(12)
O11 O 0.9579(4) 0.2825(7) 0.9808(11)
Na2 Na 0.5000 0.8206(5) 0.2192(12)
O12_2 O 0.2688(3) 0.5488(7) 0.1584(15)
C19_2 C 0.3794(5) 0.6792(14) 0.136(2)
H10_2 H 0.4048 0.6991 0.2125
C21_2 C 0.3392(6) 0.6365(8) 0.225(4)
H12_2 H 0.3356 0.6280 0.3507
C22_2 C 0.3044(4) 0.6084(10) 0.082(2)
C23_2 C 0.2208(4) 0.5475(12) 0.0663(18)
C24_2 C 0.1998(4) 0.4639(7) 0.0357(16)
H13_2 H 0.2178 0.4117 0.0461
C25_2 C 0.1942(5) 0.6284(8) 0.056(2)
H14_2 H 0.2088 0.6826 0.0822
C27_2 C 0.1445(5) 0.6206(8) 0.004(2)
Na1_3 Na 0.0000 0.6794(5) 0.7192(12)
Tb2 Tb 0.5000 0.86341(3) 0.73029(11)
O6 O 0.4379(3) 0.7481(4) 0.7183(18)
O8 O 0.4579(4) 0.7825(7) 0.9808(11)
O11_2 O 0.0421(4) 0.7175(7) 0.4808(11)
O13_2 O 0.0545(2) 0.4678(5) 0.8334(13)
O16_2 O 0.0409(2) 0.6023(5) 0.9522(9)
C15 C 0.4293(4) 0.7462(7) 0.8752(12)
C17_2 C 0.3856(4) 0.6953(7) 0.9435(13)
C18_2 C 0.3515(5) 0.6607(10) 0.8279(16)
H9_2 H 0.3565 0.6661 0.7018
C20_2 C 0.3096(5) 0.6176(11) 0.890(2)
H11_2 H 0.2858 0.5956 0.8092
C26_2 C 0.1539(6) 0.4658(10) 0.9922(17)
H15_2 H 0.1381 0.4119 0.9734
H16_2 H 0.1248 0.6708 0.9917
C28_2 C 0.1257(5) 0.5416(6) 0.9709(13)
C29_2 C 0.0699(3) 0.5349(6) 0.9153(12)
O3_2 O 0.7312(3) 0.5488(7) 0.1584(15)
C4_2 C 0.6206(5) 0.6792(14) 0.136(2)
H2_2 H 0.5952 0.6991 0.2125
C6_2 C 0.6608(6) 0.6365(8) 0.225(4)
H4_2 H 0.6644 0.6280 0.3507
C7_2 C 0.6956(4) 0.6084(10) 0.082(2)
C8_2 C 0.7792(4) 0.5475(12) 0.0663(18)
C9_2 C 0.8002(4) 0.4639(7) 0.0357(16)
H5_2 H 0.7822 0.4117 0.0461
C10_2 C 0.8058(5) 0.6284(8) 0.056(2)
H6_2 H 0.7912 0.6826 0.0822
C12_2 C 0.8555(5) 0.6206(8) 0.004(2)
Na1_4 Na 1.0000 0.6794(5) 0.7192(12)
O1_2 O 0.5621(3) 0.7481(4) 0.7183(18)
O2_2 O 0.5421(4) 0.7825(7) 0.9808(11)
O4_2 O 0.9455(2) 0.4678(5) 0.8334(13)
O5_2 O 0.9591(2) 0.6023(5) 0.9522(9)
C1_2 C 0.5707(4) 0.7462(7) 0.8752(12)
C2_2 C 0.6144(4) 0.6953(7) 0.9435(13)
C3_2 C 0.6485(5) 0.6607(10) 0.8279(16)
H1_2 H 0.6435 0.6661 0.7018
C5_2 C 0.6904(5) 0.6176(11) 0.890(2)
H3_2 H 0.7142 0.5956 0.8092
C11_2 C 0.8461(6) 0.4658(10) 0.9922(17)
H7_2 H 0.8619 0.4119 0.9734
H8_2 H 0.8752 0.6708 0.9917
C13_2 C 0.8743(5) 0.5416(6) 0.9709(13)
C14_2 C 0.9301(3) 0.5349(6) 0.9153(12)
O10_2 O 0.9579(4) 0.7175(7) 0.4808(11)
O14_2 O 0.4455(2) 0.9678(5) 0.8334(13)
O15_2 O 0.5545(2) 0.9678(5) 0.8334(13)
O17_2 O 0.5409(2) 0.8977(5) 0.4522(9)
O18_2 O 0.4591(2) 0.8977(5) 0.4522(9)
O7_2 O 0.0621(3) 0.7519(4) 0.2183(18)
C16_2 C 0.0707(4) 0.7538(7) 0.3752(12)
C9_3 C 0.6998(4) 0.0361(7) 0.5357(16)
H5_3 H 0.7178 0.0883 0.5461
C11_3 C 0.6539(6) 0.0342(10) 0.4922(17)
H7_3 H 0.6381 0.0881 0.4734
C24_3 C 0.3002(4) 0.0361(7) 0.5357(16)
H13_3 H 0.2822 0.0883 0.5461
C26_3 C 0.3461(6) 0.0342(10) 0.4922(17)
H15_3 H 0.3619 0.0881 0.4734
O1_3 O 0.9379(3) 0.7519(4) 0.2183(18)
O3_3 O 0.7688(3) 0.9512(7) 0.6584(15)
C1_3 C 0.9293(4) 0.7538(7) 0.3752(12)
C2_3 C 0.8856(4) 0.8047(7) 0.4435(13)
C3_3 C 0.8515(5) 0.8393(10) 0.3279(16)
H1_3 H 0.8565 0.8339 0.2018
C4_3 C 0.8794(5) 0.8208(14) 0.636(2)
H2_3 H 0.9048 0.8009 0.7125
C5_3 C 0.8096(5) 0.8824(11) 0.390(2)
H3_3 H 0.7858 0.9044 0.3092
C6_3 C 0.8392(6) 0.8635(8) 0.725(4)
H4_3 H 0.8356 0.8720 0.8507
C7_3 C 0.8044(4) 0.8916(10) 0.582(2)
C8_3 C 0.7208(4) 0.9525(12) 0.5663(18)
C10_3 C 0.6942(5) 0.8716(8) 0.556(2)
H6_3 H 0.7088 0.8174 0.5822
C12_3 C 0.6445(5) 0.8794(8) 0.504(2)
H8_3 H 0.6248 0.8292 0.4917
C13_3 C 0.6257(5) 0.9584(6) 0.4709(13)
C14_3 C 0.5699(3) 0.9651(6) 0.4153(12)
O12_3 O 0.2312(3) 0.9512(7) 0.6584(15)
C17_3 C 0.1144(4) 0.8047(7) 0.4435(13)
C18_3 C 0.1485(5) 0.8393(10) 0.3279(16)
H9_3 H 0.1435 0.8339 0.2018
C19_3 C 0.1206(5) 0.8208(14) 0.636(2)
H10_3 H 0.0952 0.8009 0.7125
C20_3 C 0.1904(5) 0.8824(11) 0.390(2)
H11_3 H 0.2142 0.9044 0.3092
C21_3 C 0.1608(6) 0.8635(8) 0.725(4)
H12_3 H 0.1644 0.8720 0.8507
C22_3 C 0.1956(4) 0.8916(10) 0.582(2)
C23_3 C 0.2792(4) 0.9525(12) 0.5663(18)
C25_3 C 0.3058(5) 0.8716(8) 0.556(2)
H14_3 H 0.2912 0.8174 0.5822
C27_3 C 0.3555(5) 0.8794(8) 0.504(2)
H16_3 H 0.3752 0.8292 0.4917
C28_3 C 0.3743(5) 0.9584(6) 0.4709(13)
C29_3 C 0.4301(3) 0.9651(6) 0.4153(12)
O3_4 O 0.2312(3) 0.0488(7) 0.1584(15)
C4_4 C 0.1206(5) 0.1792(14) 0.136(2)
H2_4 H 0.0952 0.1991 0.2125
C6_4 C 0.1608(6) 0.1365(8) 0.225(4)
H4_4 H 0.1644 0.1280 0.3507
C7_4 C 0.1956(4) 0.1084(10) 0.082(2)
C8_4 C 0.2792(4) 0.0475(12) 0.0663(18)
C10_4 C 0.3058(5) 0.1284(8) 0.056(2)
H6_4 H 0.2912 0.1826 0.0822
C12_4 C 0.3555(5) 0.1206(8) 0.004(2)
O12_4 O 0.7688(3) 0.0488(7) 0.1584(15)
C19_4 C 0.8794(5) 0.1792(14) 0.136(2)
H10_4 H 0.9048 0.1991 0.2125
C21_4 C 0.8392(6) 0.1365(8) 0.225(4)
H12_4 H 0.8356 0.1280 0.3507
C22_4 C 0.8044(4) 0.1084(10) 0.082(2)
C23_4 C 0.7208(4) 0.0475(12) 0.0663(18)
C25_4 C 0.6942(5) 0.1284(8) 0.056(2)
H14_4 H 0.7088 0.1826 0.0822
C27_4 C 0.6445(5) 0.1206(8) 0.004(2)
O1_4 O 0.0621(3) 0.2481(4) 0.7183(18)
C1_4 C 0.0707(4) 0.2462(7) 0.8752(12)
C2_4 C 0.1144(4) 0.1953(7) 0.9435(13)
C3_4 C 0.1485(5) 0.1607(10) 0.8279(16)
H1_4 H 0.1435 0.1661 0.7018
C5_4 C 0.1904(5) 0.1176(11) 0.890(2)
H3_4 H 0.2142 0.0956 0.8092
H8_4 H 0.3752 0.1708 0.9917
C13_4 C 0.3743(5) 0.0416(6) 0.9709(13)
C14_4 C 0.4301(3) 0.0349(6) 0.9153(12)
O6_2 O 0.9379(3) 0.2481(4) 0.7183(18)
C15_2 C 0.9293(4) 0.2462(7) 0.8752(12)
C17_4 C 0.8856(4) 0.1953(7) 0.9435(13)
C18_4 C 0.8515(5) 0.1607(10) 0.8279(16)
H9_4 H 0.8565 0.1661 0.7018
C20_4 C 0.8096(5) 0.1176(11) 0.890(2)
H11_4 H 0.7858 0.0956 0.8092
H16_4 H 0.6248 0.1708 0.9917
C28_4 C 0.6257(5) 0.0416(6) 0.9709(13)
C29_4 C 0.5699(3) 0.0349(6) 0.9153(12)
C11_4 C 0.3461(6) 0.9658(10) 0.9922(17)
H7_4 H 0.3619 0.9119 0.9734
C26_4 C 0.6539(6) 0.9658(10) 0.9922(17)
H15_4 H 0.6381 0.9119 0.9734
C9_4 C 0.3002(4) 0.9639(7) 0.0357(16)
H5_4 H 0.2822 0.9117 0.0461
C24_4 C 0.6998(4) 0.9639(7) 0.0357(16)
H13_4 H 0.7178 0.9117 0.0461
loop_
_geom_bond_atom_site_label_1
_geom_bond_atom_site_label_2
_geom_bond_site_symmetry_1
_geom_bond_site_symmetry_2
Tb1 O1 1_555 1_555
Na1 O5 1_555 1_555
O1 C1 1_555 1_555
O2 Tb1 1_555 1_555
O3 C7 1_555 1_555
O4 C14 1_555 1_555
O5 C14 1_555 1_555
C1 O2 1_555 1_555
C2 C1 1_555 1_555
C3 C2 1_555 1_555
H1 C3 1_555 1_555
C4 C2 1_555 1_555
H2 C4 1_555 1_555
C5 C3 1_555 1_555
H3 C5 1_555 1_555
C6 C4 1_555 1_555
H4 C6 1_555 1_555
C7 C5 1_555 1_555
C8 O3 1_555 1_555
C9 C8 1_555 1_555
H5 C9 1_555 1_555
C10 C8 1_555 1_555
H6 C10 1_555 1_555
C11 C9 1_555 1_555
H7 C11 1_555 1_555
C12 C10 1_555 1_555
H8 C12 1_555 1_555
C13 C11 1_555 1_555
C14 C13 1_555 1_555
Tb3 O4 1_555 1_555
Tb4 O5 1_555 1_555
Na3 O2 1_555 1_555
O7 Tb1 1_555 1_555
O9 Tb1 1_555 1_555
O14 Tb1 1_555 1_555
O15 Tb1 1_555 1_555
C16 O7 1_555 1_555
C6 C7 1_555 1_555
C12 C13 1_555 1_555
Na3 O9 1_555 1_555
O9 C16 1_555 1_555
O12 C22 1_555 1_555
O13 Tb3_2 1_555 1_555
O16 Na1_2 1_555 1_555
C17 C16 1_555 1_555
C18 C17 1_555 1_555
H9 C18 1_555 1_555
C19 C17 1_555 1_555
H10 C19 1_555 1_555
C20 C18 1_555 1_555
H11 C20 1_555 1_555
C21 C19 1_555 1_555
H12 C21 1_555 1_555
C22 C20 1_555 1_555
C23 O12 1_555 1_555
C24 C23 1_555 1_555
H13 C24 1_555 1_555
C25 C23 1_555 1_555
H14 C25 1_555 1_555
C26 C24 1_555 1_555
H15 C26 1_555 1_555
C27 C25 1_555 1_555
H16 C27 1_555 1_555
C28 C26 1_555 1_555
C29 O13 1_555 1_555
Tb4_2 O16 1_555 1_555
O16 C29 1_555 1_555
C21 C22 1_555 1_555
C27 C28 1_555 1_555
C28 C29 1_555 1_555
O12_2 C22_2 1_555 1_555
H10_2 C19_2 1_555 1_555
C21_2 C19_2 1_555 1_555
H12_2 C21_2 1_555 1_555
C23_2 O12_2 1_555 1_555
C24_2 C23_2 1_555 1_555
H13_2 C24_2 1_555 1_555
C25_2 C23_2 1_555 1_555
H14_2 C25_2 1_555 1_555
C27_2 C25_2 1_555 1_555
C21_2 C22_2 1_555 1_555
Tb2 O6 1_555 1_555
O6 C15 1_555 1_555
O8 Tb2 1_555 1_555
O11_2 Na1_3 1_555 1_555
O13_2 Tb4 1_555 1_555
O16_2 Na1_3 1_555 1_555
C15 O8 1_555 1_555
C17_2 C15 1_555 1_555
C18_2 C17_2 1_555 1_555
H9_2 C18_2 1_555 1_555
C20_2 C18_2 1_555 1_555
H11_2 C20_2 1_555 1_555
H15_2 C26_2 1_555 1_555
C28_2 C26_2 1_555 1_555
C29_2 O13_2 1_555 1_555
O16_2 C29_2 1_555 1_555
C28_2 C29_2 1_555 1_555
O3_2 C7_2 1_555 1_555
H2_2 C4_2 1_555 1_555
C6_2 C4_2 1_555 1_555
H4_2 C6_2 1_555 1_555
C8_2 O3_2 1_555 1_555
C9_2 C8_2 1_555 1_555
H5_2 C9_2 1_555 1_555
C10_2 C8_2 1_555 1_555
H6_2 C10_2 1_555 1_555
C12_2 C10_2 1_555 1_555
C6_2 C7_2 1_555 1_555
Tb2 O1_2 1_555 1_555
Na1_4 O5_2 1_555 1_555
O1_2 C1_2 1_555 1_555
O2_2 Tb2 1_555 1_555
O4_2 C14_2 1_555 1_555
O5_2 C14_2 1_555 1_555
C1_2 O2_2 1_555 1_555
C2_2 C1_2 1_555 1_555
C3_2 C2_2 1_555 1_555
H1_2 C3_2 1_555 1_555
C5_2 C3_2 1_555 1_555
H3_2 C5_2 1_555 1_555
H7_2 C11_2 1_555 1_555
C13_2 C11_2 1_555 1_555
C14_2 C13_2 1_555 1_555
Tb4_2 O4_2 1_555 1_555
O10_2 Na1_4 1_555 1_555
O14_2 Tb2 1_555 1_555
O15_2 Tb2 1_555 1_555
O17_2 Tb2 1_555 1_555
O18_2 Tb2 1_555 1_555
O7_2 Tb3 1_555 1_555
O11_2 Tb3 1_555 1_555
C16_2 O7_2 1_555 1_555
O11_2 C16_2 1_555 1_555
H5_3 C9_3 1_555 1_555
C11_3 C9_3 1_555 1_555
H7_3 C11_3 1_555 1_555
H13_3 C24_3 1_555 1_555
C26_3 C24_3 1_555 1_555
H15_3 C26_3 1_555 1_555
Tb3_2 O1_3 1_555 1_555
Na2 O17_2 1_555 1_555
O1_3 C1_3 1_555 1_555
O10_2 Tb3_2 1_555 1_555
O3_3 C7_3 1_555 1_555
O17_2 C14_3 1_555 1_555
C1_3 O10_2 1_555 1_555
C2_3 C1_3 1_555 1_555
C3_3 C2_3 1_555 1_555
H1_3 C3_3 1_555 1_555
C4_3 C2_3 1_555 1_555
H2_3 C4_3 1_555 1_555
C5_3 C3_3 1_555 1_555
H3_3 C5_3 1_555 1_555
C6_3 C4_3 1_555 1_555
H4_3 C6_3 1_555 1_555
C7_3 C5_3 1_555 1_555
C8_3 O3_3 1_555 1_555
C10_3 C8_3 1_555 1_555
H6_3 C10_3 1_555 1_555
C12_3 C10_3 1_555 1_555
H8_3 C12_3 1_555 1_555
C14_3 C13_3 1_555 1_555
O12_3 C22_3 1_555 1_555
O18_2 Na2 1_555 1_555
C17_3 C16_2 1_555 1_555
C18_3 C17_3 1_555 1_555
H9_3 C18_3 1_555 1_555
C19_3 C17_3 1_555 1_555
H10_3 C19_3 1_555 1_555
C20_3 C18_3 1_555 1_555
H11_3 C20_3 1_555 1_555
C21_3 C19_3 1_555 1_555
H12_3 C21_3 1_555 1_555
C22_3 C20_3 1_555 1_555
C23_3 O12_3 1_555 1_555
C25_3 C23_3 1_555 1_555
H14_3 C25_3 1_555 1_555
C27_3 C25_3 1_555 1_555
H16_3 C27_3 1_555 1_555
C6_3 C7_3 1_555 1_555
C12_3 C13_3 1_555 1_555
O18_2 C29_3 1_555 1_555
C21_3 C22_3 1_555 1_555
C27_3 C28_3 1_555 1_555
C28_3 C29_3 1_555 1_555
O3_4 C7_4 1_555 1_555
H2_4 C4_4 1_555 1_555
C6_4 C4_4 1_555 1_555
H4_4 C6_4 1_555 1_555
C8_4 O3_4 1_555 1_555
C10_4 C8_4 1_555 1_555
H6_4 C10_4 1_555 1_555
C12_4 C10_4 1_555 1_555
O12_4 C22_4 1_555 1_555
H10_4 C19_4 1_555 1_555
C21_4 C19_4 1_555 1_555
H12_4 C21_4 1_555 1_555
C23_4 O12_4 1_555 1_555
C25_4 C23_4 1_555 1_555
H14_4 C25_4 1_555 1_555
C27_4 C25_4 1_555 1_555
C6_4 C7_4 1_555 1_555
C21_4 C22_4 1_555 1_555
Tb4 O1_4 1_555 1_555
Na3 O17 1_555 1_555
O1_4 C1_4 1_555 1_555
O10 Tb4 1_555 1_555
O17 C14_4 1_555 1_555
C1_4 O10 1_555 1_555
C2_4 C1_4 1_555 1_555
C3_4 C2_4 1_555 1_555
H1_4 C3_4 1_555 1_555
C5_4 C3_4 1_555 1_555
H3_4 C5_4 1_555 1_555
C14_4 C13_4 1_555 1_555
Tb4_2 O6_2 1_555 1_555
O6_2 C15_2 1_555 1_555
O11 Tb4_2 1_555 1_555
O18 Na3 1_555 1_555
C15_2 O11 1_555 1_555
C17_4 C15_2 1_555 1_555
C18_4 C17_4 1_555 1_555
H9_4 C18_4 1_555 1_555
C20_4 C18_4 1_555 1_555
H11_4 C20_4 1_555 1_555
O18 C29_4 1_555 1_555
C28_4 C29_4 1_555 1_555
H7_4 C11_4 1_555 1_555
H15_4 C26_4 1_555 1_555
H5_4 C9_4 1_555 1_555
H13_4 C24_4 1_555 1_555

#END
