
###############################################################################
#
# This file contains modified crystal structure data generated from the
# MOF subset of the Cambridge Structural Database (CSD) v543 
# hosted by the Cambridge Crystallographic Data Centre (CCDC).
#
# This work is licensed under the Creative Commons
# Attribution-NonCommercial-ShareAlike 4.0 International License.
# To view a copy of this license, visit
# http://creativecommons.org/licenses/by-nc-sa/4.0/
# or send a letter to
# Creative Commons, PO Box 1866, Mountain View, CA 94042, USA.
#
# CIF created using the CSD Python API on 29 September 2022
# The structure has been converted into the P1 space group
# The structure has a 3D framework
# The original CSD entry TAQGOK is in the monoclinic crystal system
# The framework has been calculated to contain at least 10.0% void space
# The void calculation uses a probe of radius 1.32A, grid spacing 0.4
#
###############################################################################

data_TAQGOK
_chemical_formula_moiety         '(C144 H128 Co6 Cr8 N16 O26)n'
_symmetry_cell_setting           triclinic
_symmetry_space_group_name_H-M   'P 1'
_symmetry_Int_Tables_number      1
_space_group_name_Hall           'P 1'
loop_
_symmetry_equiv_pos_site_id
_symmetry_equiv_pos_as_xyz
1 x,y,z
_cell_length_a                   24.3226(10)
_cell_length_b                   18.4617(10)
_cell_length_c                   8.8768(4)
_cell_angle_alpha                90
_cell_angle_beta                 108.493(4)
_cell_angle_gamma                90
_cell_volume                     3780.18
loop_
_atom_site_label
_atom_site_type_symbol
_atom_site_fract_x
_atom_site_fract_y
_atom_site_fract_z
Co4 Co -0.000000 0.28312(11) 0.750000
C20 C 0.5798(5) 0.7051(6) 0.0351(12)
H18 H 0.561724 0.737756 0.087581
C22 C 0.6246(5) 0.6625(6) 0.1255(13)
C23 C 0.6533(4) 0.6175(6) 0.0550(12)
H20 H 0.635604 0.664596 0.238095
C24 C 0.7041(4) 0.5742(5) 0.1500(12)
C25 C 0.7049(4) 0.4994(6) 0.1224(12)
C26 C 0.7507(4) 0.6060(5) 0.2642(12)
H21 H 0.673249 0.478254 0.042192
C27 C 0.7503(4) 0.4549(5) 0.2084(11)
C28 C 0.7964(4) 0.5615(6) 0.3500(12)
C29 C 0.7565(5) 0.6880(6) 0.2933(15)
C30 C 0.7964(4) 0.4875(5) 0.3258(12)
C31 C 0.7483(6) 0.3758(6) 0.1763(15)
H22 H 0.828652 0.582778 0.427744
H23 H 0.746748 0.713399 0.191212
H24 H 0.796474 0.699593 0.356826
H25 H 0.730043 0.703473 0.350450
C32 C 0.8453(4) 0.4440(5) 0.4256(12)
H26 H 0.784964 0.360440 0.162569
H27 H 0.716293 0.365266 0.079254
H28 H 0.742280 0.349657 0.265815
C33 C 0.9029(4) 0.4558(5) 0.4280(12)
C34 C 0.8362(4) 0.3919(6) 0.5266(12)
C35 C 0.9473(4) 0.4125(5) 0.5305(12)
H29 H 0.911716 0.491840 0.362694
C36 C 0.8811(4) 0.3530(6) 0.6234(12)
H30 H 0.797955 0.383057 0.528666
N6 N 0.9374(3) 0.3607(5) 0.6253(9)
H31 H 0.986053 0.420492 0.532385
H32 H 0.873000 0.318712 0.693380
Co4_2 Co 1.000000 0.28312(11) 0.750000
Co1 Co 0.500000 0.78312(11) 0.750000
O1 O 0.4639(3) 0.7835(3) 0.9291(7)
N1 N 0.4394(3) 0.7022(4) 0.6244(9)
N2 N 0.5626(3) 0.8607(5) 0.8747(9)
C1 C 0.4137(4) 0.6560(5) 0.6950(12)
C2 C 0.4202(5) 0.7051(6) 0.4649(12)
Cr1 Cr 0.55656(8) 0.79404(13) 0.4166(2)
C3 C 0.3677(4) 0.6129(5) 0.6123(12)
H1 H 0.427514 0.652449 0.807589
H2 H 0.438276 0.737756 0.412419
C4 C 0.3754(5) 0.6625(6) 0.3745(13)
O2 O 0.6141(5) 0.7511(8) 0.4294(13)
O3 O 0.5667(5) 0.8826(7) 0.3956(12)
O4 O 0.500000 0.7625(10) 0.250000
H3 H 0.350401 0.580499 0.667180
C5 C 0.3467(4) 0.6175(6) 0.4450(12)
H4 H 0.364396 0.664596 0.261905
C6 C 0.2959(4) 0.5742(5) 0.3500(12)
C7 C 0.2951(4) 0.4994(6) 0.3776(12)
C8 C 0.2493(4) 0.6060(5) 0.2358(12)
H5 H 0.326751 0.478254 0.457808
C9 C 0.2497(4) 0.4549(5) 0.2916(11)
C10 C 0.2036(4) 0.5615(6) 0.1500(12)
C11 C 0.2435(5) 0.6880(6) 0.2067(15)
C12 C 0.2036(4) 0.4875(5) 0.1742(12)
C13 C 0.2517(6) 0.3758(6) 0.3237(15)
H6 H 0.171348 0.582778 0.072256
H7 H 0.253252 0.713399 0.308788
H8 H 0.203526 0.699593 0.143174
H9 H 0.269957 0.703473 0.149550
C14 C 0.1547(4) 0.4440(5) 0.0744(12)
H10 H 0.215036 0.360440 0.337431
H11 H 0.283707 0.365266 0.420746
H12 H 0.257720 0.349657 0.234185
C15 C 0.0971(4) 0.4558(5) 0.0720(12)
H13 H 0.088284 0.491840 0.137306
O5 O 0.5361(3) 0.7835(3) 0.5709(7)
N3 N 0.5606(3) 0.7022(4) 0.8756(9)
N4 N 0.4374(3) 0.8607(5) 0.6253(9)
C19 C 0.5863(4) 0.6560(5) 0.8050(12)
C21 C 0.6323(4) 0.6129(5) 0.8877(12)
H17 H 0.572486 0.652449 0.692411
Cr2 Cr 0.44344(8) 0.79404(13) 0.0834(2)
H19 H 0.649599 0.580499 0.832820
O7 O 0.4333(5) 0.8826(7) 0.1044(12)
O8 O 0.3859(5) 0.7511(8) 0.0706(13)
C16 C 0.1638(4) 0.3919(6) 0.9734(12)
C17 C 0.0527(4) 0.4125(5) 0.9695(12)
C18 C 0.1189(4) 0.3530(6) 0.8766(12)
H14 H 0.202045 0.383057 0.971334
H15 H 0.013947 0.420492 0.967615
H16 H 0.127000 0.318712 0.806620
N5 N 0.0626(3) 0.3607(5) 0.8747(9)
C20_2 C 0.0798(5) 0.2051(6) 0.0351(12)
H18_2 H 0.061724 0.237756 0.087581
C22_2 C 0.1246(5) 0.1625(6) 0.1255(13)
C23_2 C 0.1533(4) 0.1175(6) 0.0550(12)
H20_2 H 0.135604 0.164596 0.238095
C24_2 C 0.2041(4) 0.0742(5) 0.1500(12)
C26_2 C 0.2507(4) 0.1060(5) 0.2642(12)
C28_2 C 0.2964(4) 0.0615(6) 0.3500(12)
C29_2 C 0.2565(5) 0.1880(6) 0.2933(15)
H22_2 H 0.328652 0.082778 0.427744
H23_2 H 0.246748 0.213399 0.191212
H24_2 H 0.296474 0.199593 0.356826
H25_2 H 0.230043 0.203473 0.350450
Cr1_2 Cr 0.05656(8) 0.29404(13) 0.4166(2)
O2_2 O 0.1141(5) 0.2511(8) 0.4294(13)
O3_2 O 0.0667(5) 0.3826(7) 0.3956(12)
O4_2 O -0.000000 0.2625(10) 0.250000
O5_2 O 0.0361(3) 0.2835(3) 0.5709(7)
N3_2 N 0.0606(3) 0.2022(4) 0.8756(9)
C19_2 C 0.0863(4) 0.1560(5) 0.8050(12)
C21_2 C 0.1323(4) 0.1129(5) 0.8877(12)
H17_2 H 0.072486 0.152449 0.692411
H19_2 H 0.149599 0.080499 0.832820
C25_2 C 0.2049(4) 0.9994(6) 0.1224(12)
H21_2 H 0.173249 0.978254 0.042192
C27_2 C 0.2503(4) 0.9549(5) 0.2084(11)
C30_2 C 0.2964(4) 0.9875(5) 0.3258(12)
C31_2 C 0.2483(6) 0.8758(6) 0.1763(15)
C32_2 C 0.3453(4) 0.9440(5) 0.4256(12)
H26_2 H 0.284964 0.860440 0.162569
H27_2 H 0.216293 0.865266 0.079254
H28_2 H 0.242280 0.849657 0.265815
C33_2 C 0.4029(4) 0.9558(5) 0.4280(12)
C34_2 C 0.3362(4) 0.8919(6) 0.5266(12)
C35_2 C 0.4473(4) 0.9125(5) 0.5305(12)
H29_2 H 0.411716 0.991840 0.362694
C36_2 C 0.3811(4) 0.8530(6) 0.6234(12)
H30_2 H 0.297955 0.883057 0.528666
H31_2 H 0.486053 0.920492 0.532385
H32_2 H 0.373000 0.818712 0.693380
O1_2 O 0.9639(3) 0.2835(3) 0.9291(7)
N1_2 N 0.9394(3) 0.2022(4) 0.6244(9)
C1_2 C 0.9137(4) 0.1560(5) 0.6950(12)
C2_2 C 0.9202(5) 0.2051(6) 0.4649(12)
C3_2 C 0.8677(4) 0.1129(5) 0.6123(12)
H1_2 H 0.927514 0.152449 0.807589
H2_2 H 0.938276 0.237756 0.412419
C4_2 C 0.8754(5) 0.1625(6) 0.3745(13)
O4_3 O 1.000000 0.2625(10) 0.250000
H3_2 H 0.850401 0.080499 0.667180
C5_2 C 0.8467(4) 0.1175(6) 0.4450(12)
H4_2 H 0.864396 0.164596 0.261905
C6_2 C 0.7959(4) 0.0742(5) 0.3500(12)
C8_2 C 0.7493(4) 0.1060(5) 0.2358(12)
C10_2 C 0.7036(4) 0.0615(6) 0.1500(12)
C11_2 C 0.7435(5) 0.1880(6) 0.2067(15)
H6_2 H 0.671348 0.082778 0.072256
H7_2 H 0.753252 0.213399 0.308788
H8_2 H 0.703526 0.199593 0.143174
H9_2 H 0.769957 0.203473 0.149550
Cr2_2 Cr 0.94344(8) 0.29404(13) 0.0834(2)
O7_2 O 0.9333(5) 0.3826(7) 0.1044(12)
O8_2 O 0.8859(5) 0.2511(8) 0.0706(13)
C16_2 C 0.6638(4) 0.8919(6) 0.9734(12)
C17_2 C 0.5527(4) 0.9125(5) 0.9695(12)
C18_2 C 0.6189(4) 0.8530(6) 0.8766(12)
H14_2 H 0.702045 0.883057 0.971334
H15_2 H 0.513947 0.920492 0.967615
H16_2 H 0.627000 0.818712 0.806620
C7_2 C 0.7951(4) 0.9994(6) 0.3776(12)
H5_2 H 0.826751 0.978254 0.457808
C9_2 C 0.7497(4) 0.9549(5) 0.2916(11)
C12_2 C 0.7036(4) 0.9875(5) 0.1742(12)
C13_2 C 0.7517(6) 0.8758(6) 0.3237(15)
C14_2 C 0.6547(4) 0.9440(5) 0.0744(12)
H10_2 H 0.715036 0.860440 0.337431
H11_2 H 0.783707 0.865266 0.420746
H12_2 H 0.757720 0.849657 0.234185
C15_2 C 0.5971(4) 0.9558(5) 0.0720(12)
H13_2 H 0.588284 0.991840 0.137306
Co3 Co -0.000000 0.71688(11) 0.250000
C16_3 C 0.8362(4) 0.6081(6) 0.0266(12)
C17_3 C 0.9473(4) 0.5875(5) 0.0305(12)
C18_3 C 0.8811(4) 0.6470(6) 0.1234(12)
H14_3 H 0.797955 0.616943 0.028666
H15_3 H 0.986053 0.579508 0.032385
H16_3 H 0.873000 0.681288 0.193380
O6 O 0.5361(3) 0.2165(3) 0.0709(7)
Co2 Co 0.500000 0.21688(11) 0.250000
N5_2 N 0.9374(3) 0.6393(5) 0.1253(9)
Co3_2 Co 1.000000 0.71688(11) 0.250000
N1_3 N 0.5606(3) 0.2978(4) 0.3756(9)
N2_2 N 0.4374(3) 0.1393(5) 0.1253(9)
C1_3 C 0.5863(4) 0.3440(5) 0.3050(12)
C2_3 C 0.5798(5) 0.2949(6) 0.5351(12)
Cr1_3 Cr 0.44344(8) 0.20596(13) 0.5834(2)
C3_3 C 0.6323(4) 0.3871(5) 0.3877(12)
H1_3 H 0.572486 0.347551 0.192411
H2_3 H 0.561724 0.262244 0.587581
C4_3 C 0.6246(5) 0.3375(6) 0.6255(13)
O2_3 O 0.3859(5) 0.2489(8) 0.5706(13)
O3_3 O 0.4333(5) 0.1174(7) 0.6044(12)
O4_4 O 0.500000 0.2375(10) 0.750000
H3_3 H 0.649599 0.419501 0.332820
C5_3 C 0.6533(4) 0.3825(6) 0.5550(12)
H4_3 H 0.635604 0.335404 0.738095
C6_3 C 0.7041(4) 0.4258(5) 0.6500(12)
C7_3 C 0.7049(4) 0.5006(6) 0.6224(12)
C8_3 C 0.7507(4) 0.3940(5) 0.7642(12)
H5_3 H 0.673249 0.521746 0.542192
C9_3 C 0.7503(4) 0.5451(5) 0.7084(11)
C10_3 C 0.7964(4) 0.4385(6) 0.8500(12)
C11_3 C 0.7565(5) 0.3120(6) 0.7933(15)
C12_3 C 0.7964(4) 0.5125(5) 0.8258(12)
C13_3 C 0.7483(6) 0.6242(6) 0.6763(15)
H6_3 H 0.828652 0.417222 0.927744
H7_3 H 0.746748 0.286601 0.691212
H8_3 H 0.796474 0.300407 0.856826
H9_3 H 0.730043 0.296527 0.850450
C14_3 C 0.8453(4) 0.5560(5) 0.9256(12)
H10_3 H 0.784964 0.639560 0.662569
H11_3 H 0.716293 0.634734 0.579254
H12_3 H 0.742280 0.650343 0.765815
C15_3 C 0.9029(4) 0.5442(5) 0.9280(12)
H13_3 H 0.911716 0.508160 0.862694
O5_3 O 0.4639(3) 0.2165(3) 0.4291(7)
N3_3 N 0.4394(3) 0.2978(4) 0.1244(9)
N4_2 N 0.5626(3) 0.1393(5) 0.3747(9)
C19_3 C 0.4137(4) 0.3440(5) 0.1950(12)
C21_3 C 0.3677(4) 0.3871(5) 0.1123(12)
H17_3 H 0.427514 0.347551 0.307589
Cr2_3 Cr 0.55656(8) 0.20596(13) 0.9166(2)
H19_3 H 0.350401 0.419501 0.167180
O7_3 O 0.5667(5) 0.1174(7) 0.8956(12)
O8_3 O 0.6141(5) 0.2489(8) 0.9294(13)
C20_3 C 0.4202(5) 0.2949(6) 0.9649(12)
H18_3 H 0.438276 0.262244 0.912419
C22_3 C 0.3754(5) 0.3375(6) 0.8745(13)
C23_3 C 0.3467(4) 0.3825(6) 0.9450(12)
H20_3 H 0.364396 0.335404 0.761905
C24_3 C 0.2959(4) 0.4258(5) 0.8500(12)
C25_3 C 0.2951(4) 0.5006(6) 0.8776(12)
C26_3 C 0.2493(4) 0.3940(5) 0.7358(12)
H21_3 H 0.326751 0.521746 0.957808
C27_3 C 0.2497(4) 0.5451(5) 0.7916(11)
C28_3 C 0.2036(4) 0.4385(6) 0.6500(12)
C29_3 C 0.2435(5) 0.3120(6) 0.7067(15)
C30_3 C 0.2036(4) 0.5125(5) 0.6742(12)
C31_3 C 0.2517(6) 0.6242(6) 0.8237(15)
H22_3 H 0.171348 0.417222 0.572256
H23_3 H 0.253252 0.286601 0.808788
H24_3 H 0.203526 0.300407 0.643174
H25_3 H 0.269957 0.296527 0.649550
C32_3 C 0.1547(4) 0.5560(5) 0.5744(12)
H26_3 H 0.215036 0.639560 0.837431
H27_3 H 0.283707 0.634734 0.920746
H28_3 H 0.257720 0.650343 0.734185
C33_3 C 0.0971(4) 0.5442(5) 0.5720(12)
C34_3 C 0.1638(4) 0.6081(6) 0.4734(12)
C35_3 C 0.0527(4) 0.5875(5) 0.4695(12)
H29_3 H 0.088284 0.508160 0.637306
C36_3 C 0.1189(4) 0.6470(6) 0.3766(12)
H30_3 H 0.202045 0.616943 0.471334
N6_2 N 0.0626(3) 0.6393(5) 0.3747(9)
H31_3 H 0.013947 0.579508 0.467615
H32_3 H 0.127000 0.681288 0.306620
C16_4 C 0.3362(4) 0.1081(6) 0.0266(12)
C17_4 C 0.4473(4) 0.0875(5) 0.0305(12)
C18_4 C 0.3811(4) 0.1470(6) 0.1234(12)
H14_4 H 0.297955 0.116943 0.028666
H15_4 H 0.486053 0.079508 0.032385
H16_4 H 0.373000 0.181288 0.193380
O6_2 O 0.0361(3) 0.7165(3) 0.0709(7)
N1_4 N 0.0606(3) 0.7978(4) 0.3756(9)
C1_4 C 0.0863(4) 0.8440(5) 0.3050(12)
C2_4 C 0.0798(5) 0.7949(6) 0.5351(12)
C3_4 C 0.1323(4) 0.8871(5) 0.3877(12)
H1_4 H 0.072486 0.847551 0.192411
H2_4 H 0.061724 0.762244 0.587581
C4_4 C 0.1246(5) 0.8375(6) 0.6255(13)
O4_5 O 0.000000 0.7375(10) 0.750000
H3_4 H 0.149599 0.919501 0.332820
C5_4 C 0.1533(4) 0.8825(6) 0.5550(12)
H4_4 H 0.135604 0.835404 0.738095
C6_4 C 0.2041(4) 0.9258(5) 0.6500(12)
C8_4 C 0.2507(4) 0.8940(5) 0.7642(12)
C10_4 C 0.2964(4) 0.9385(6) 0.8500(12)
C11_4 C 0.2565(5) 0.8120(6) 0.7933(15)
H6_4 H 0.328652 0.917222 0.927744
H7_4 H 0.246748 0.786601 0.691212
H8_4 H 0.296474 0.800407 0.856826
H9_4 H 0.230043 0.796527 0.850450
Cr2_4 Cr 0.05656(8) 0.70596(13) 0.9166(2)
O7_4 O 0.0667(5) 0.6174(7) 0.8956(12)
O8_4 O 0.1141(5) 0.7489(8) 0.9294(13)
C25_4 C 0.7951(4) 0.0006(6) 0.8776(12)
H21_4 H 0.826751 0.021746 0.957808
C27_4 C 0.7497(4) 0.0451(5) 0.7916(11)
C30_4 C 0.7036(4) 0.0125(5) 0.6742(12)
C31_4 C 0.7517(6) 0.1242(6) 0.8237(15)
C32_4 C 0.6547(4) 0.0560(5) 0.5744(12)
H26_4 H 0.715036 0.139560 0.837431
H27_4 H 0.783707 0.134734 0.920746
H28_4 H 0.757720 0.150343 0.734185
C33_4 C 0.5971(4) 0.0442(5) 0.5720(12)
C34_4 C 0.6638(4) 0.1081(6) 0.4734(12)
C35_4 C 0.5527(4) 0.0875(5) 0.4695(12)
H29_4 H 0.588284 0.008160 0.637306
C36_4 C 0.6189(4) 0.1470(6) 0.3766(12)
H30_4 H 0.702045 0.116943 0.471334
H31_4 H 0.513947 0.079508 0.467615
H32_4 H 0.627000 0.181288 0.306620
Cr1_4 Cr 0.94344(8) 0.70596(13) 0.5834(2)
O2_4 O 0.8859(5) 0.7489(8) 0.5706(13)
O3_4 O 0.9333(5) 0.6174(7) 0.6044(12)
O4_6 O 1.000000 0.7375(10) 0.750000
O5_4 O 0.9639(3) 0.7165(3) 0.4291(7)
N3_4 N 0.9394(3) 0.7978(4) 0.1244(9)
C19_4 C 0.9137(4) 0.8440(5) 0.1950(12)
C21_4 C 0.8677(4) 0.8871(5) 0.1123(12)
H17_4 H 0.927514 0.847551 0.307589
H19_4 H 0.850401 0.919501 0.167180
C20_4 C 0.9202(5) 0.7949(6) 0.9649(12)
H18_4 H 0.938276 0.762244 0.912419
C22_4 C 0.8754(5) 0.8375(6) 0.8745(13)
C23_4 C 0.8467(4) 0.8825(6) 0.9450(12)
H20_4 H 0.864396 0.835404 0.761905
C24_4 C 0.7959(4) 0.9258(5) 0.8500(12)
C26_4 C 0.7493(4) 0.8940(5) 0.7358(12)
C28_4 C 0.7036(4) 0.9385(6) 0.6500(12)
C29_4 C 0.7435(5) 0.8120(6) 0.7067(15)
H22_4 H 0.671348 0.917222 0.572256
H23_4 H 0.753252 0.786601 0.808788
H24_4 H 0.703526 0.800407 0.643174
H25_4 H 0.769957 0.796527 0.649550
C7_4 C 0.2049(4) 0.0006(6) 0.6224(12)
H5_4 H 0.173249 0.021746 0.542192
C9_4 C 0.2503(4) 0.0451(5) 0.7084(11)
C12_4 C 0.2964(4) 0.0125(5) 0.8258(12)
C13_4 C 0.2483(6) 0.1242(6) 0.6763(15)
C14_4 C 0.3453(4) 0.0560(5) 0.9256(12)
H10_4 H 0.284964 0.139560 0.662569
H11_4 H 0.216293 0.134734 0.579254
H12_4 H 0.242280 0.150343 0.765815
C15_4 C 0.4029(4) 0.0442(5) 0.9280(12)
H13_4 H 0.411716 0.008160 0.862694
loop_
_geom_bond_atom_site_label_1
_geom_bond_atom_site_label_2
_geom_bond_site_symmetry_1
_geom_bond_site_symmetry_2
H18 C20 1_555 1_555
C22 C20 1_555 1_555
H20 C22 1_555 1_555
C24 C23 1_555 1_555
C25 C24 1_555 1_555
C26 C24 1_555 1_555
H21 C25 1_555 1_555
C27 C25 1_555 1_555
C28 C26 1_555 1_555
C29 C26 1_555 1_555
C30 C27 1_555 1_555
C31 C27 1_555 1_555
H22 C28 1_555 1_555
H23 C29 1_555 1_555
H24 C29 1_555 1_555
H25 C29 1_555 1_555
C32 C30 1_555 1_555
H26 C31 1_555 1_555
H27 C31 1_555 1_555
H28 C31 1_555 1_555
C33 C32 1_555 1_555
C34 C32 1_555 1_555
C35 C33 1_555 1_555
H29 C33 1_555 1_555
C36 C34 1_555 1_555
H30 C34 1_555 1_555
N6 C35 1_555 1_555
H31 C35 1_555 1_555
H32 C36 1_555 1_555
Co4_2 N6 1_555 1_555
C22 C23 1_555 1_555
C28 C30 1_555 1_555
C36 N6 1_555 1_555
Co1 O1 1_555 1_555
N1 Co1 1_555 1_555
N2 Co1 1_555 1_555
C1 N1 1_555 1_555
C2 N1 1_555 1_555
Cr1 O2 1_555 1_555
C3 C1 1_555 1_555
H1 C1 1_555 1_555
H2 C2 1_555 1_555
C4 C2 1_555 1_555
O3 Cr1 1_555 1_555
O4 Cr1 1_555 1_555
H3 C3 1_555 1_555
C5 C3 1_555 1_555
H4 C4 1_555 1_555
C6 C5 1_555 1_555
C7 C6 1_555 1_555
C8 C6 1_555 1_555
H5 C7 1_555 1_555
C9 C7 1_555 1_555
C10 C8 1_555 1_555
C11 C8 1_555 1_555
C12 C9 1_555 1_555
C13 C9 1_555 1_555
H6 C10 1_555 1_555
H7 C11 1_555 1_555
H8 C11 1_555 1_555
H9 C11 1_555 1_555
C14 C12 1_555 1_555
H10 C13 1_555 1_555
H11 C13 1_555 1_555
H12 C13 1_555 1_555
C15 C14 1_555 1_555
H13 C15 1_555 1_555
O5 Co1 1_555 1_555
N3 Co1 1_555 1_555
N4 Co1 1_555 1_555
C19 N3 1_555 1_555
C21 C19 1_555 1_555
H17 C19 1_555 1_555
Cr2 O4 1_555 1_555
H19 C21 1_555 1_555
O7 Cr2 1_555 1_555
O8 Cr2 1_555 1_555
Cr1 O5 1_555 1_555
C4 C5 1_555 1_555
C10 C12 1_555 1_555
C18 C16 1_555 1_555
H14 C16 1_555 1_555
H15 C17 1_555 1_555
H16 C18 1_555 1_555
N5 C17 1_555 1_555
Co4 N5 1_555 1_555
C18 N5 1_555 1_555
H18_2 C20_2 1_555 1_555
C22_2 C20_2 1_555 1_555
H20_2 C22_2 1_555 1_555
C24_2 C23_2 1_555 1_555
C26_2 C24_2 1_555 1_555
C28_2 C26_2 1_555 1_555
C29_2 C26_2 1_555 1_555
H22_2 C28_2 1_555 1_555
H23_2 C29_2 1_555 1_555
H24_2 C29_2 1_555 1_555
H25_2 C29_2 1_555 1_555
C22_2 C23_2 1_555 1_555
Cr1_2 O2_2 1_555 1_555
O3_2 Cr1_2 1_555 1_555
O4_2 Cr1_2 1_555 1_555
O5_2 Co4 1_555 1_555
N3_2 Co4 1_555 1_555
C19_2 N3_2 1_555 1_555
C21_2 C19_2 1_555 1_555
H17_2 C19_2 1_555 1_555
H19_2 C21_2 1_555 1_555
Cr1_2 O5_2 1_555 1_555
H21_2 C25_2 1_555 1_555
C27_2 C25_2 1_555 1_555
C30_2 C27_2 1_555 1_555
C31_2 C27_2 1_555 1_555
C32_2 C30_2 1_555 1_555
H26_2 C31_2 1_555 1_555
H27_2 C31_2 1_555 1_555
H28_2 C31_2 1_555 1_555
C33_2 C32_2 1_555 1_555
C34_2 C32_2 1_555 1_555
C35_2 C33_2 1_555 1_555
H29_2 C33_2 1_555 1_555
C36_2 C34_2 1_555 1_555
H30_2 C34_2 1_555 1_555
N4 C35_2 1_555 1_555
H31_2 C35_2 1_555 1_555
H32_2 C36_2 1_555 1_555
C36_2 N4 1_555 1_555
Co4_2 O1_2 1_555 1_555
N1_2 Co4_2 1_555 1_555
C1_2 N1_2 1_555 1_555
C2_2 N1_2 1_555 1_555
C3_2 C1_2 1_555 1_555
H1_2 C1_2 1_555 1_555
H2_2 C2_2 1_555 1_555
C4_2 C2_2 1_555 1_555
H3_2 C3_2 1_555 1_555
C5_2 C3_2 1_555 1_555
H4_2 C4_2 1_555 1_555
C6_2 C5_2 1_555 1_555
C8_2 C6_2 1_555 1_555
C10_2 C8_2 1_555 1_555
C11_2 C8_2 1_555 1_555
H6_2 C10_2 1_555 1_555
H7_2 C11_2 1_555 1_555
H8_2 C11_2 1_555 1_555
H9_2 C11_2 1_555 1_555
Cr2_2 O4_3 1_555 1_555
O7_2 Cr2_2 1_555 1_555
O8_2 Cr2_2 1_555 1_555
C4_2 C5_2 1_555 1_555
C18_2 C16_2 1_555 1_555
H14_2 C16_2 1_555 1_555
H15_2 C17_2 1_555 1_555
H16_2 C18_2 1_555 1_555
N2 C17_2 1_555 1_555
C18_2 N2 1_555 1_555
H5_2 C7_2 1_555 1_555
C9_2 C7_2 1_555 1_555
C12_2 C9_2 1_555 1_555
C13_2 C9_2 1_555 1_555
C14_2 C12_2 1_555 1_555
H10_2 C13_2 1_555 1_555
H11_2 C13_2 1_555 1_555
H12_2 C13_2 1_555 1_555
C15_2 C14_2 1_555 1_555
H13_2 C15_2 1_555 1_555
C18_3 C16_3 1_555 1_555
H14_3 C16_3 1_555 1_555
H15_3 C17_3 1_555 1_555
H16_3 C18_3 1_555 1_555
Co2 O6 1_555 1_555
N5_2 C17_3 1_555 1_555
Co3_2 N5_2 1_555 1_555
C18_3 N5_2 1_555 1_555
N1_3 Co2 1_555 1_555
N2_2 Co2 1_555 1_555
C1_3 N1_3 1_555 1_555
C2_3 N1_3 1_555 1_555
Cr1_3 O2_3 1_555 1_555
C3_3 C1_3 1_555 1_555
H1_3 C1_3 1_555 1_555
H2_3 C2_3 1_555 1_555
C4_3 C2_3 1_555 1_555
O3_3 Cr1_3 1_555 1_555
O4_4 Cr1_3 1_555 1_555
H3_3 C3_3 1_555 1_555
C5_3 C3_3 1_555 1_555
H4_3 C4_3 1_555 1_555
C6_3 C5_3 1_555 1_555
C7_3 C6_3 1_555 1_555
C8_3 C6_3 1_555 1_555
H5_3 C7_3 1_555 1_555
C9_3 C7_3 1_555 1_555
C10_3 C8_3 1_555 1_555
C11_3 C8_3 1_555 1_555
C12_3 C9_3 1_555 1_555
C13_3 C9_3 1_555 1_555
H6_3 C10_3 1_555 1_555
H7_3 C11_3 1_555 1_555
H8_3 C11_3 1_555 1_555
H9_3 C11_3 1_555 1_555
C14_3 C12_3 1_555 1_555
H10_3 C13_3 1_555 1_555
H11_3 C13_3 1_555 1_555
H12_3 C13_3 1_555 1_555
C15_3 C14_3 1_555 1_555
H13_3 C15_3 1_555 1_555
O5_3 Co2 1_555 1_555
N3_3 Co2 1_555 1_555
N4_2 Co2 1_555 1_555
C19_3 N3_3 1_555 1_555
C21_3 C19_3 1_555 1_555
H17_3 C19_3 1_555 1_555
Cr2_3 O4_4 1_555 1_555
H19_3 C21_3 1_555 1_555
O7_3 Cr2_3 1_555 1_555
O8_3 Cr2_3 1_555 1_555
Cr1_3 O5_3 1_555 1_555
C4_3 C5_3 1_555 1_555
C10_3 C12_3 1_555 1_555
H18_3 C20_3 1_555 1_555
C22_3 C20_3 1_555 1_555
H20_3 C22_3 1_555 1_555
C24_3 C23_3 1_555 1_555
C25_3 C24_3 1_555 1_555
C26_3 C24_3 1_555 1_555
H21_3 C25_3 1_555 1_555
C27_3 C25_3 1_555 1_555
C28_3 C26_3 1_555 1_555
C29_3 C26_3 1_555 1_555
C30_3 C27_3 1_555 1_555
C31_3 C27_3 1_555 1_555
H22_3 C28_3 1_555 1_555
H23_3 C29_3 1_555 1_555
H24_3 C29_3 1_555 1_555
H25_3 C29_3 1_555 1_555
C32_3 C30_3 1_555 1_555
H26_3 C31_3 1_555 1_555
H27_3 C31_3 1_555 1_555
H28_3 C31_3 1_555 1_555
C33_3 C32_3 1_555 1_555
C34_3 C32_3 1_555 1_555
C35_3 C33_3 1_555 1_555
H29_3 C33_3 1_555 1_555
C36_3 C34_3 1_555 1_555
H30_3 C34_3 1_555 1_555
N6_2 C35_3 1_555 1_555
H31_3 C35_3 1_555 1_555
H32_3 C36_3 1_555 1_555
Co3 N6_2 1_555 1_555
C22_3 C23_3 1_555 1_555
C28_3 C30_3 1_555 1_555
C36_3 N6_2 1_555 1_555
C18_4 C16_4 1_555 1_555
H14_4 C16_4 1_555 1_555
H15_4 C17_4 1_555 1_555
H16_4 C18_4 1_555 1_555
N2_2 C17_4 1_555 1_555
C18_4 N2_2 1_555 1_555
Co3 O6_2 1_555 1_555
N1_4 Co3 1_555 1_555
C1_4 N1_4 1_555 1_555
C2_4 N1_4 1_555 1_555
C3_4 C1_4 1_555 1_555
H1_4 C1_4 1_555 1_555
H2_4 C2_4 1_555 1_555
C4_4 C2_4 1_555 1_555
H3_4 C3_4 1_555 1_555
C5_4 C3_4 1_555 1_555
H4_4 C4_4 1_555 1_555
C6_4 C5_4 1_555 1_555
C8_4 C6_4 1_555 1_555
C10_4 C8_4 1_555 1_555
C11_4 C8_4 1_555 1_555
H6_4 C10_4 1_555 1_555
H7_4 C11_4 1_555 1_555
H8_4 C11_4 1_555 1_555
H9_4 C11_4 1_555 1_555
Cr2_4 O4_5 1_555 1_555
O7_4 Cr2_4 1_555 1_555
O8_4 Cr2_4 1_555 1_555
C4_4 C5_4 1_555 1_555
H21_4 C25_4 1_555 1_555
C27_4 C25_4 1_555 1_555
C30_4 C27_4 1_555 1_555
C31_4 C27_4 1_555 1_555
C32_4 C30_4 1_555 1_555
H26_4 C31_4 1_555 1_555
H27_4 C31_4 1_555 1_555
H28_4 C31_4 1_555 1_555
C33_4 C32_4 1_555 1_555
C34_4 C32_4 1_555 1_555
C35_4 C33_4 1_555 1_555
H29_4 C33_4 1_555 1_555
C36_4 C34_4 1_555 1_555
H30_4 C34_4 1_555 1_555
N4_2 C35_4 1_555 1_555
H31_4 C35_4 1_555 1_555
H32_4 C36_4 1_555 1_555
C36_4 N4_2 1_555 1_555
Cr1_4 O2_4 1_555 1_555
O3_4 Cr1_4 1_555 1_555
O4_6 Cr1_4 1_555 1_555
O5_4 Co3_2 1_555 1_555
N3_4 Co3_2 1_555 1_555
C19_4 N3_4 1_555 1_555
C21_4 C19_4 1_555 1_555
H17_4 C19_4 1_555 1_555
H19_4 C21_4 1_555 1_555
Cr1_4 O5_4 1_555 1_555
H18_4 C20_4 1_555 1_555
C22_4 C20_4 1_555 1_555
H20_4 C22_4 1_555 1_555
C24_4 C23_4 1_555 1_555
C26_4 C24_4 1_555 1_555
C28_4 C26_4 1_555 1_555
C29_4 C26_4 1_555 1_555
H22_4 C28_4 1_555 1_555
H23_4 C29_4 1_555 1_555
H24_4 C29_4 1_555 1_555
H25_4 C29_4 1_555 1_555
C22_4 C23_4 1_555 1_555
H5_4 C7_4 1_555 1_555
C9_4 C7_4 1_555 1_555
C12_4 C9_4 1_555 1_555
C13_4 C9_4 1_555 1_555
C14_4 C12_4 1_555 1_555
H10_4 C13_4 1_555 1_555
H11_4 C13_4 1_555 1_555
H12_4 C13_4 1_555 1_555
C15_4 C14_4 1_555 1_555
H13_4 C15_4 1_555 1_555

#END
