
###############################################################################
#
# This file contains modified crystal structure data generated from the
# MOF subset of the Cambridge Structural Database (CSD) v543 
# hosted by the Cambridge Crystallographic Data Centre (CCDC).
#
# This work is licensed under the Creative Commons
# Attribution-NonCommercial-ShareAlike 4.0 International License.
# To view a copy of this license, visit
# http://creativecommons.org/licenses/by-nc-sa/4.0/
# or send a letter to
# Creative Commons, PO Box 1866, Mountain View, CA 94042, USA.
#
# CIF created using the CSD Python API on 29 September 2022
# The structure has been converted into the P1 space group
# The structure has a 3D framework
# The original CSD entry TAQTUE01 is in the tetragonal crystal system
# The original CSD entry TAQTUE01 is in a Sohncke space group
# The framework has been calculated to contain at least 10.0% void space
# The void calculation uses a probe of radius 1.32A, grid spacing 0.4
# The framework is charged, counterions have been retained in the structure
# H atom positions have been added when not included in the experimental data
#
###############################################################################

data_TAQTUE01
_chemical_formula_moiety         '(C208 H120 N48 O88 Zn16 8-)n'
_symmetry_cell_setting           triclinic
_symmetry_space_group_name_H-M   'P 1'
_symmetry_Int_Tables_number      1
_space_group_name_Hall           'P 1'
loop_
_symmetry_equiv_pos_site_id
_symmetry_equiv_pos_as_xyz
1 x,y,z
_cell_length_a                   29.8612(8)
_cell_length_b                   29.8612(8)
_cell_length_c                   15.6308(7)
_cell_angle_alpha                90
_cell_angle_beta                 90
_cell_angle_gamma                90
_cell_volume                     13937.8
loop_
_atom_site_label
_atom_site_type_symbol
_atom_site_fract_x
_atom_site_fract_y
_atom_site_fract_z
Zn1 Zn 0.77028(2) 0.37213(2) 0.25524(3)
O1 O 0.73320(9) 0.42474(7) 0.23857(18)
O2 O 0.83205(8) 0.38764(9) 0.22625(17)
O3 O 0.76823(8) 0.34199(8) 0.36401(17)
O4 O 0.76002(8) 0.32974(8) 0.16307(17)
C1 C 0.79587(11) 0.34068(11) 0.4254(2)
O5 O 0.82535(9) 0.36907(9) 0.43977(19)
C2 C 0.79134(12) 0.30170(12) 0.4852(3)
Zn2 Zn 0.82337(2) 0.43308(2) 0.40728(3)
C3 C 0.82151(14) 0.29628(14) 0.5515(3)
C4 C 0.75639(12) 0.27195(12) 0.4731(2)
C5 C 0.81604(13) 0.26070(13) 0.6075(3)
H1 H 0.845675 0.316644 0.558511
C6 C 0.75024(11) 0.23598(11) 0.5288(2)
H2 H 0.736403 0.276064 0.426497
C7 C 0.78018(11) 0.23005(11) 0.5973(2)
H3 H 0.836568 0.256822 0.653378
N1 N 0.71492(10) 0.20631(10) 0.5193(2)
C8 C 0.77572(11) 0.19401(11) 0.6648(2)
H4 H 0.717967 0.181278 0.548431
C9 C 0.67623(12) 0.20887(11) 0.4730(2)
O6 O 0.80491(8) 0.18867(8) 0.71923(16)
N2 N 0.64555(11) 0.17887(10) 0.5022(2)
N3 N 0.67106(10) 0.23785(8) 0.4088(2)
C10 C 0.60600(12) 0.18226(11) 0.4624(2)
C11 C 0.62977(12) 0.23632(10) 0.3738(2)
N4 N 0.59637(10) 0.20985(9) 0.3968(2)
N5 N 0.57042(11) 0.15644(9) 0.4867(2)
N6 N 0.62345(10) 0.26596(9) 0.30959(19)
C12 C 0.63277(11) 0.09295(11) 0.7501(3)
H5 H 0.547861 0.155861 0.450454
C13 C 0.56466(11) 0.13063(11) 0.5612(2)
C14 C 0.58280(13) 0.27850(10) 0.2694(3)
H6 H 0.647750 0.279206 0.290226
C15 C 0.59376(12) 0.09730(11) 0.6901(2)
O7 O 0.62767(8) 0.07125(8) 0.81726(15)
C16 C 0.52168(12) 0.11370(11) 0.5803(2)
C17 C 0.59972(12) 0.12146(11) 0.6171(2)
C18 C 0.54144(12) 0.25970(11) 0.2901(2)
C19 C 0.58455(18) 0.31419(17) 0.2123(4)
C20 C 0.55122(13) 0.07898(12) 0.7089(3)
C21 C 0.51688(13) 0.08758(12) 0.6519(3)
C22 C 0.48043(12) 0.12308(12) 0.5273(2)
H7 H 0.628786 0.132410 0.603949
C23 C 0.50296(13) 0.27496(11) 0.2517(3)
H8 H 0.539869 0.236204 0.330948
C24 C 0.5454(2) 0.3268(2) 0.1689(4)
H9 H 0.611836 0.329775 0.202794
H10 H 0.546419 0.061427 0.758712
H11 H 0.488378 0.074702 0.662987
O8 O 0.48471(9) 0.15172(8) 0.46606(16)
O9 O 0.44421(12) 0.10648(9) 0.5475(2)
C25 C 0.45967(12) 0.25245(11) 0.2748(2)
C26 C 0.5038(2) 0.30970(19) 0.1915(4)
H12 H 0.547442 0.347548 0.122982
O10 O 0.46097(9) 0.22309(8) 0.32976(18)
H13 H 0.477031 0.321146 0.167146
O11 O 0.43278(14) 0.22934(16) 0.5056(3)
H14 H 0.401(17) 0.2300(5) 0.501(6)
O12 O 0.73998(8) 0.17026(8) 0.66307(17)
Zn3 Zn 0.72972(2) 0.12787(2) 0.75524(3)
O13 O 0.66795(8) 0.11236(9) 0.72625(17)
Zn4 Zn 0.67663(2) 0.06692(2) 0.90728(3)
Zn5 Zn 0.43308(2) 0.17663(2) 0.40728(3)
O14 O 0.42474(7) 0.26680(9) 0.23857(18)
O15 O 0.42875(8) 0.12767(8) 0.31726(15)
O16 O 0.36907(9) 0.17465(9) 0.43977(19)
Zn6 Zn 0.37213(2) 0.22972(2) 0.25524(3)
H15 H 0.444175 0.219687 0.562362
Zn1_2 Zn 0.22972(2) 0.62787(2) 0.25524(3)
O1_2 O 0.26680(9) 0.57526(7) 0.23857(18)
O2_2 O 0.16795(8) 0.61236(9) 0.22625(17)
O3_2 O 0.23177(8) 0.65801(8) 0.36401(17)
O4_2 O 0.23998(8) 0.67026(8) 0.16307(17)
C1_2 C 0.20413(11) 0.65932(11) 0.4254(2)
O5_2 O 0.17465(9) 0.63093(9) 0.43977(19)
C2_2 C 0.20866(12) 0.69830(12) 0.4852(3)
Zn2_2 Zn 0.17663(2) 0.56692(2) 0.40728(3)
C3_2 C 0.17849(14) 0.70372(14) 0.5515(3)
C4_2 C 0.24361(12) 0.72805(12) 0.4731(2)
C5_2 C 0.18396(13) 0.73930(13) 0.6075(3)
H1_2 H 0.154325 0.683356 0.558511
C6_2 C 0.24976(11) 0.76402(11) 0.5288(2)
H2_2 H 0.263597 0.723936 0.426497
C7_2 C 0.21982(11) 0.76995(11) 0.5973(2)
H3_2 H 0.163432 0.743178 0.653378
N1_2 N 0.28508(10) 0.79369(10) 0.5193(2)
C8_2 C 0.22428(11) 0.80599(11) 0.6648(2)
H4_2 H 0.282033 0.818722 0.548431
C9_2 C 0.32377(12) 0.79113(11) 0.4730(2)
O6_2 O 0.19509(8) 0.81133(8) 0.71923(16)
N2_2 N 0.35445(11) 0.82113(10) 0.5022(2)
N3_2 N 0.32894(10) 0.76215(8) 0.4088(2)
C10_2 C 0.39400(12) 0.81774(11) 0.4624(2)
C11_2 C 0.37023(12) 0.76368(10) 0.3738(2)
N4_2 N 0.40363(10) 0.79015(9) 0.3968(2)
N5_2 N 0.42958(11) 0.84356(9) 0.4867(2)
N6_2 N 0.37655(10) 0.73404(9) 0.30959(19)
C12_2 C 0.36723(11) 0.90705(11) 0.7501(3)
H5_2 H 0.452139 0.844139 0.450454
C13_2 C 0.43534(11) 0.86937(11) 0.5612(2)
C14_2 C 0.41720(13) 0.72150(10) 0.2694(3)
H6_2 H 0.352250 0.720794 0.290226
C15_2 C 0.40624(12) 0.90270(11) 0.6901(2)
O7_2 O 0.37233(8) 0.92875(8) 0.81726(15)
C16_2 C 0.47832(12) 0.88630(11) 0.5803(2)
C17_2 C 0.40028(12) 0.87854(11) 0.6171(2)
C18_2 C 0.45856(12) 0.74030(11) 0.2901(2)
C19_2 C 0.41545(18) 0.68581(17) 0.2123(4)
C20_2 C 0.44878(13) 0.92102(12) 0.7089(3)
C21_2 C 0.48312(13) 0.91242(12) 0.6519(3)
C22_2 C 0.51957(12) 0.87692(12) 0.5273(2)
H7_2 H 0.371214 0.867590 0.603949
C23_2 C 0.49704(13) 0.72504(11) 0.2517(3)
H8_2 H 0.460131 0.763796 0.330948
C24_2 C 0.4546(2) 0.6732(2) 0.1689(4)
H9_2 H 0.388164 0.670225 0.202794
H10_2 H 0.453581 0.938573 0.758712
H11_2 H 0.511622 0.925298 0.662987
O8_2 O 0.51529(9) 0.84828(8) 0.46606(16)
O9_2 O 0.55579(12) 0.89352(9) 0.5475(2)
C25_2 C 0.54033(12) 0.74755(11) 0.2748(2)
C26_2 C 0.4962(2) 0.69030(19) 0.1915(4)
H12_2 H 0.452558 0.652452 0.122982
O10_2 O 0.53903(9) 0.77691(8) 0.32976(18)
H13_2 H 0.522969 0.678854 0.167146
O11_2 O 0.56722(14) 0.77066(16) 0.5056(3)
H14_2 H 0.599(17) 0.7700(5) 0.501(6)
O12_2 O 0.26002(8) 0.82974(8) 0.66307(17)
Zn3_2 Zn 0.27028(2) 0.87213(2) 0.75524(3)
O13_2 O 0.33205(8) 0.88764(9) 0.72625(17)
Zn4_2 Zn 0.32337(2) 0.93308(2) 0.90728(3)
Zn5_2 Zn 0.56692(2) 0.82337(2) 0.40728(3)
O14_2 O 0.57526(7) 0.73320(9) 0.23857(18)
O15_2 O 0.57125(8) 0.87233(8) 0.31726(15)
O16_2 O 0.63093(9) 0.82535(9) 0.43977(19)
Zn6_2 Zn 0.62787(2) 0.77028(2) 0.25524(3)
H15_2 H 0.555825 0.780313 0.562362
O2_3 O 0.61236(9) 0.83205(8) 0.22625(17)
O3_3 O 0.65801(8) 0.76823(8) 0.36401(17)
O4_3 O 0.67026(8) 0.76002(8) 0.16307(17)
C1_3 C 0.65932(11) 0.79587(11) 0.4254(2)
C2_3 C 0.69830(12) 0.79134(12) 0.4852(3)
C3_3 C 0.70372(14) 0.82151(14) 0.5515(3)
C4_3 C 0.72805(12) 0.75639(12) 0.4731(2)
C5_3 C 0.73930(13) 0.81604(13) 0.6075(3)
H1_3 H 0.683356 0.845675 0.558511
C6_3 C 0.76402(11) 0.75024(11) 0.5288(2)
H2_3 H 0.723936 0.736403 0.426497
C7_3 C 0.76995(11) 0.78018(11) 0.5973(2)
H3_3 H 0.743178 0.836568 0.653378
N1_3 N 0.79369(10) 0.71492(10) 0.5193(2)
C8_3 C 0.80599(11) 0.77572(11) 0.6648(2)
H4_3 H 0.818722 0.717967 0.548431
C9_3 C 0.79113(11) 0.67623(12) 0.4730(2)
O6_3 O 0.81133(8) 0.80491(8) 0.71923(16)
N2_3 N 0.82113(10) 0.64555(11) 0.5022(2)
N3_3 N 0.76215(8) 0.67106(10) 0.4088(2)
C10_3 C 0.81774(11) 0.60600(12) 0.4624(2)
C11_3 C 0.76368(10) 0.62977(12) 0.3738(2)
N4_3 N 0.79015(9) 0.59637(10) 0.3968(2)
N5_3 N 0.84356(9) 0.57042(11) 0.4867(2)
N6_3 N 0.73404(9) 0.62345(10) 0.30959(19)
C12_3 C 0.90705(11) 0.63277(11) 0.7501(3)
H5_3 H 0.844139 0.547861 0.450454
C13_3 C 0.86937(11) 0.56466(11) 0.5612(2)
C14_3 C 0.72150(10) 0.58280(13) 0.2694(3)
H6_3 H 0.720794 0.647750 0.290226
C15_3 C 0.90270(11) 0.59376(12) 0.6901(2)
O7_3 O 0.92875(8) 0.62767(8) 0.81726(15)
C16_3 C 0.88630(11) 0.52168(12) 0.5803(2)
C17_3 C 0.87854(11) 0.59972(12) 0.6171(2)
C18_3 C 0.74030(11) 0.54144(12) 0.2901(2)
C19_3 C 0.68581(17) 0.58455(18) 0.2123(4)
C20_3 C 0.92102(12) 0.55122(13) 0.7089(3)
C21_3 C 0.91242(12) 0.51688(13) 0.6519(3)
C22_3 C 0.87692(12) 0.48043(12) 0.5273(2)
H7_3 H 0.867590 0.628786 0.603949
C23_3 C 0.72504(11) 0.50296(13) 0.2517(3)
H8_3 H 0.763796 0.539869 0.330948
C24_3 C 0.6732(2) 0.5454(2) 0.1689(4)
H9_3 H 0.670225 0.611836 0.202794
H10_3 H 0.938573 0.546419 0.758712
H11_3 H 0.925298 0.488378 0.662987
O8_3 O 0.84828(8) 0.48471(9) 0.46606(16)
O9_3 O 0.89352(9) 0.44421(12) 0.5475(2)
C25_3 C 0.74755(11) 0.45967(12) 0.2748(2)
C26_3 C 0.69030(19) 0.5038(2) 0.1915(4)
H12_3 H 0.652452 0.547442 0.122982
O10_3 O 0.77691(8) 0.46097(9) 0.32976(18)
H13_3 H 0.678854 0.477031 0.167146
O11_3 O 0.77066(16) 0.43278(14) 0.5056(3)
H14_3 H 0.7700(5) 0.401(17) 0.501(6)
O12_3 O 0.82974(8) 0.73998(8) 0.66307(17)
Zn3_3 Zn 0.87213(2) 0.72972(2) 0.75524(3)
O13_3 O 0.88764(9) 0.66795(8) 0.72625(17)
Zn4_3 Zn 0.93308(2) 0.67663(2) 0.90728(3)
O15_3 O 0.87233(8) 0.42875(8) 0.31726(15)
H15_3 H 0.780313 0.444175 0.562362
O2_4 O 0.38764(9) 0.16795(8) 0.22625(17)
O3_4 O 0.34199(8) 0.23177(8) 0.36401(17)
O4_4 O 0.32974(8) 0.23998(8) 0.16307(17)
C1_4 C 0.34068(11) 0.20413(11) 0.4254(2)
C2_4 C 0.30170(12) 0.20866(12) 0.4852(3)
C3_4 C 0.29628(14) 0.17849(14) 0.5515(3)
C4_4 C 0.27195(12) 0.24361(12) 0.4731(2)
C5_4 C 0.26070(13) 0.18396(13) 0.6075(3)
H1_4 H 0.316644 0.154325 0.558511
C6_4 C 0.23598(11) 0.24976(11) 0.5288(2)
H2_4 H 0.276064 0.263597 0.426497
C7_4 C 0.23005(11) 0.21982(11) 0.5973(2)
H3_4 H 0.256822 0.163432 0.653378
N1_4 N 0.20631(10) 0.28508(10) 0.5193(2)
C8_4 C 0.19401(11) 0.22428(11) 0.6648(2)
H4_4 H 0.181278 0.282033 0.548431
C9_4 C 0.20887(11) 0.32377(12) 0.4730(2)
O6_4 O 0.18867(8) 0.19509(8) 0.71923(16)
N2_4 N 0.17887(10) 0.35445(11) 0.5022(2)
N3_4 N 0.23785(8) 0.32894(10) 0.4088(2)
C10_4 C 0.18226(11) 0.39400(12) 0.4624(2)
C11_4 C 0.23632(10) 0.37023(12) 0.3738(2)
N4_4 N 0.20985(9) 0.40363(10) 0.3968(2)
N5_4 N 0.15644(9) 0.42958(11) 0.4867(2)
N6_4 N 0.26596(9) 0.37655(10) 0.30959(19)
C12_4 C 0.09295(11) 0.36723(11) 0.7501(3)
H5_4 H 0.155861 0.452139 0.450454
C13_4 C 0.13063(11) 0.43534(11) 0.5612(2)
C14_4 C 0.27850(10) 0.41720(13) 0.2694(3)
H6_4 H 0.279206 0.352250 0.290226
C15_4 C 0.09730(11) 0.40624(12) 0.6901(2)
O7_4 O 0.07125(8) 0.37233(8) 0.81726(15)
C16_4 C 0.11370(11) 0.47832(12) 0.5803(2)
C17_4 C 0.12146(11) 0.40028(12) 0.6171(2)
C18_4 C 0.25970(11) 0.45856(12) 0.2901(2)
C19_4 C 0.31419(17) 0.41545(18) 0.2123(4)
C20_4 C 0.07898(12) 0.44878(13) 0.7089(3)
C21_4 C 0.08758(12) 0.48312(13) 0.6519(3)
C22_4 C 0.12308(12) 0.51957(12) 0.5273(2)
H7_4 H 0.132410 0.371214 0.603949
C23_4 C 0.27496(11) 0.49704(13) 0.2517(3)
H8_4 H 0.236204 0.460131 0.330948
C24_4 C 0.3268(2) 0.4546(2) 0.1689(4)
H9_4 H 0.329775 0.388164 0.202794
H10_4 H 0.061427 0.453581 0.758712
H11_4 H 0.074702 0.511622 0.662987
O8_4 O 0.15172(8) 0.51529(9) 0.46606(16)
O9_4 O 0.10648(9) 0.55579(12) 0.5475(2)
C25_4 C 0.25245(11) 0.54033(12) 0.2748(2)
C26_4 C 0.30970(19) 0.4962(2) 0.1915(4)
H12_4 H 0.347548 0.452558 0.122982
O10_4 O 0.22309(8) 0.53903(9) 0.32976(18)
H13_4 H 0.321146 0.522969 0.167146
O11_4 O 0.22934(16) 0.56722(14) 0.5056(3)
H14_4 H 0.2300(5) 0.599(17) 0.501(6)
O12_4 O 0.17026(8) 0.26002(8) 0.66307(17)
Zn3_4 Zn 0.12787(2) 0.27028(2) 0.75524(3)
O13_4 O 0.11236(9) 0.33205(8) 0.72625(17)
Zn4_4 Zn 0.06692(2) 0.32337(2) 0.90728(3)
O15_4 O 0.12767(8) 0.57125(8) 0.31726(15)
H15_4 H 0.219687 0.555825 0.562362
C3_5 C 0.32151(14) 0.79628(14) 0.0515(3)
C5_5 C 0.31604(13) 0.76070(13) 0.1075(3)
H1_5 H 0.345675 0.816644 0.058511
C6_5 C 0.25024(11) 0.73598(11) 0.0288(2)
C7_5 C 0.28018(11) 0.73005(11) 0.0973(2)
H3_5 H 0.336568 0.756822 0.153378
N1_5 N 0.21492(10) 0.70631(10) 0.0193(2)
C8_5 C 0.27572(11) 0.69401(11) 0.1648(2)
H4_5 H 0.217967 0.681278 0.048431
O6_5 O 0.30491(8) 0.68867(8) 0.21923(16)
N2_5 N 0.14555(11) 0.67887(10) 0.0022(2)
C12_5 C 0.13277(11) 0.59295(11) 0.2501(3)
C13_5 C 0.06466(11) 0.63063(11) 0.0612(2)
C15_5 C 0.09376(12) 0.59730(11) 0.1901(2)
C16_5 C 0.02168(12) 0.61370(11) 0.0803(2)
C17_5 C 0.09972(12) 0.62146(11) 0.1171(2)
C20_5 C 0.05122(13) 0.57898(12) 0.2089(3)
C21_5 C 0.01688(13) 0.58758(12) 0.1519(3)
H7_5 H 0.128786 0.632410 0.103949
H10_5 H 0.046419 0.561427 0.258712
O1_3 O 0.23320(9) 0.92474(7) 0.73857(18)
O3_5 O 0.26823(8) 0.84199(8) 0.86401(17)
C1_5 C 0.29587(11) 0.84068(11) 0.9254(2)
O5_3 O 0.32535(9) 0.86907(9) 0.93977(19)
C2_5 C 0.29134(12) 0.80170(12) 0.9852(3)
C4_5 C 0.25639(12) 0.77195(12) 0.9731(2)
H2_5 H 0.236403 0.776064 0.926497
C9_5 C 0.17623(12) 0.70887(11) 0.9730(2)
N3_5 N 0.17106(10) 0.73785(8) 0.9088(2)
C10_5 C 0.10600(12) 0.68226(11) 0.9624(2)
C11_5 C 0.12977(12) 0.73632(10) 0.8738(2)
N4_5 N 0.09637(10) 0.70985(9) 0.8968(2)
N5_5 N 0.07042(11) 0.65644(9) 0.9867(2)
N6_5 N 0.12345(10) 0.76596(9) 0.80959(19)
H5_5 H 0.047861 0.655861 0.950454
C14_5 C 0.08280(13) 0.77850(10) 0.7694(3)
H6_5 H 0.147750 0.779206 0.790226
C18_5 C 0.04144(12) 0.75970(11) 0.7901(2)
C19_5 C 0.08455(18) 0.81419(17) 0.7123(4)
C23_5 C 0.00296(13) 0.77496(11) 0.7517(3)
H8_5 H 0.039869 0.736204 0.830948
C24_5 C 0.0454(2) 0.8268(2) 0.6689(4)
H9_5 H 0.111836 0.829775 0.702794
C26_5 C 0.0038(2) 0.80970(19) 0.6915(4)
H12_5 H 0.047442 0.847548 0.622982
O8_5 O 0.98471(9) 0.65172(8) 0.96606(16)
C25_5 C 0.95967(12) 0.75245(11) 0.7748(2)
O10_5 O 0.96097(9) 0.72309(8) 0.82976(18)
H13_5 H 0.977031 0.821146 0.667146
O14_3 O 0.92474(7) 0.76680(9) 0.73857(18)
O16_3 O 0.86907(9) 0.67465(9) 0.93977(19)
O8_6 O 0.01529(9) 0.34828(8) 0.96606(16)
C25_6 C 0.04033(12) 0.24755(11) 0.7748(2)
O10_6 O 0.03903(9) 0.27691(8) 0.82976(18)
H13_6 H 0.022969 0.178854 0.667146
O14_4 O 0.07526(7) 0.23320(9) 0.73857(18)
O16_4 O 0.13093(9) 0.32535(9) 0.93977(19)
C3_6 C 0.67849(14) 0.20372(14) 0.0515(3)
C5_6 C 0.68396(13) 0.23930(13) 0.1075(3)
H1_6 H 0.654325 0.183356 0.058511
C6_6 C 0.74976(11) 0.26402(11) 0.0288(2)
C7_6 C 0.71982(11) 0.26995(11) 0.0973(2)
H3_6 H 0.663432 0.243178 0.153378
N1_6 N 0.78508(10) 0.29369(10) 0.0193(2)
C8_6 C 0.72428(11) 0.30599(11) 0.1648(2)
H4_6 H 0.782033 0.318722 0.048431
O6_6 O 0.69509(8) 0.31133(8) 0.21923(16)
N2_6 N 0.85445(11) 0.32113(10) 0.0022(2)
C12_6 C 0.86723(11) 0.40705(11) 0.2501(3)
C13_6 C 0.93534(11) 0.36937(11) 0.0612(2)
C15_6 C 0.90624(12) 0.40270(11) 0.1901(2)
C16_6 C 0.97832(12) 0.38630(11) 0.0803(2)
C17_6 C 0.90028(12) 0.37854(11) 0.1171(2)
C20_6 C 0.94878(13) 0.42102(12) 0.2089(3)
C21_6 C 0.98312(13) 0.41242(12) 0.1519(3)
H7_6 H 0.871214 0.367590 0.103949
H10_6 H 0.953581 0.438573 0.258712
O1_4 O 0.76680(9) 0.07526(7) 0.73857(18)
O3_6 O 0.73177(8) 0.15801(8) 0.86401(17)
C1_6 C 0.70413(11) 0.15932(11) 0.9254(2)
O5_4 O 0.67465(9) 0.13093(9) 0.93977(19)
C2_6 C 0.70866(12) 0.19830(12) 0.9852(3)
C4_6 C 0.74361(12) 0.22805(12) 0.9731(2)
H2_6 H 0.763597 0.223936 0.926497
C9_6 C 0.82377(12) 0.29113(11) 0.9730(2)
N3_6 N 0.82894(10) 0.26215(8) 0.9088(2)
C10_6 C 0.89400(12) 0.31774(11) 0.9624(2)
C11_6 C 0.87023(12) 0.26368(10) 0.8738(2)
N4_6 N 0.90363(10) 0.29015(9) 0.8968(2)
N5_6 N 0.92958(11) 0.34356(9) 0.9867(2)
N6_6 N 0.87655(10) 0.23404(9) 0.80959(19)
H5_6 H 0.952139 0.344139 0.950454
C14_6 C 0.91720(13) 0.22150(10) 0.7694(3)
H6_6 H 0.852250 0.220794 0.790226
C18_6 C 0.95856(12) 0.24030(11) 0.7901(2)
C19_6 C 0.91545(18) 0.18581(17) 0.7123(4)
C23_6 C 0.99704(13) 0.22504(11) 0.7517(3)
H8_6 H 0.960131 0.263796 0.830948
C24_6 C 0.9546(2) 0.1732(2) 0.6689(4)
H9_6 H 0.888164 0.170225 0.702794
C26_6 C 0.9962(2) 0.19030(19) 0.6915(4)
H12_6 H 0.952558 0.152452 0.622982
C3_7 C 0.20372(14) 0.32151(14) 0.0515(3)
C5_7 C 0.23930(13) 0.31604(13) 0.1075(3)
H1_7 H 0.183356 0.345675 0.058511
C6_7 C 0.26402(11) 0.25024(11) 0.0288(2)
C7_7 C 0.26995(11) 0.28018(11) 0.0973(2)
H3_7 H 0.243178 0.336568 0.153378
N1_7 N 0.29369(10) 0.21492(10) 0.0193(2)
C8_7 C 0.30599(11) 0.27572(11) 0.1648(2)
H4_7 H 0.318722 0.217967 0.048431
O6_7 O 0.31133(8) 0.30491(8) 0.21923(16)
N2_7 N 0.32113(10) 0.14555(11) 0.0022(2)
C12_7 C 0.40705(11) 0.13277(11) 0.2501(3)
C13_7 C 0.36937(11) 0.06466(11) 0.0612(2)
C15_7 C 0.40270(11) 0.09376(12) 0.1901(2)
C16_7 C 0.38630(11) 0.02168(12) 0.0803(2)
C17_7 C 0.37854(11) 0.09972(12) 0.1171(2)
C20_7 C 0.42102(12) 0.05122(13) 0.2089(3)
C21_7 C 0.41242(12) 0.01688(13) 0.1519(3)
H7_7 H 0.367590 0.128786 0.103949
H10_7 H 0.438573 0.046419 0.258712
O3_7 O 0.15801(8) 0.26823(8) 0.86401(17)
C1_7 C 0.15932(11) 0.29587(11) 0.9254(2)
C2_7 C 0.19830(12) 0.29134(12) 0.9852(3)
C4_7 C 0.22805(12) 0.25639(12) 0.9731(2)
H2_7 H 0.223936 0.236403 0.926497
C9_7 C 0.29113(11) 0.17623(12) 0.9730(2)
N3_7 N 0.26215(8) 0.17106(10) 0.9088(2)
C10_7 C 0.31774(11) 0.10600(12) 0.9624(2)
C11_7 C 0.26368(10) 0.12977(12) 0.8738(2)
N4_7 N 0.29015(9) 0.09637(10) 0.8968(2)
N5_7 N 0.34356(9) 0.07042(11) 0.9867(2)
N6_7 N 0.23404(9) 0.12345(10) 0.80959(19)
H5_7 H 0.344139 0.047861 0.950454
C14_7 C 0.22150(10) 0.08280(13) 0.7694(3)
H6_7 H 0.220794 0.147750 0.790226
C18_7 C 0.24030(11) 0.04144(12) 0.7901(2)
C19_7 C 0.18581(17) 0.08455(18) 0.7123(4)
C23_7 C 0.22504(11) 0.00296(13) 0.7517(3)
H8_7 H 0.263796 0.039869 0.830948
C24_7 C 0.1732(2) 0.0454(2) 0.6689(4)
H9_7 H 0.170225 0.111836 0.702794
C26_7 C 0.19030(19) 0.0038(2) 0.6915(4)
H12_7 H 0.152452 0.047442 0.622982
O8_7 O 0.34828(8) 0.98471(9) 0.96606(16)
C25_7 C 0.24755(11) 0.95967(12) 0.7748(2)
O10_7 O 0.27691(8) 0.96097(9) 0.82976(18)
H13_7 H 0.178854 0.977031 0.667146
O8_8 O 0.65172(8) 0.01529(9) 0.96606(16)
C25_8 C 0.75245(11) 0.04033(12) 0.7748(2)
O10_8 O 0.72309(8) 0.03903(9) 0.82976(18)
H13_8 H 0.821146 0.022969 0.667146
C3_8 C 0.79628(14) 0.67849(14) 0.0515(3)
C5_8 C 0.76070(13) 0.68396(13) 0.1075(3)
H1_8 H 0.816644 0.654325 0.058511
C6_8 C 0.73598(11) 0.74976(11) 0.0288(2)
C7_8 C 0.73005(11) 0.71982(11) 0.0973(2)
H3_8 H 0.756822 0.663432 0.153378
N1_8 N 0.70631(10) 0.78508(10) 0.0193(2)
C8_8 C 0.69401(11) 0.72428(11) 0.1648(2)
H4_8 H 0.681278 0.782033 0.048431
O6_8 O 0.68867(8) 0.69509(8) 0.21923(16)
N2_8 N 0.67887(10) 0.85445(11) 0.0022(2)
C12_8 C 0.59295(11) 0.86723(11) 0.2501(3)
C13_8 C 0.63063(11) 0.93534(11) 0.0612(2)
C15_8 C 0.59730(11) 0.90624(12) 0.1901(2)
C16_8 C 0.61370(11) 0.97832(12) 0.0803(2)
C17_8 C 0.62146(11) 0.90028(12) 0.1171(2)
C20_8 C 0.57898(12) 0.94878(13) 0.2089(3)
C21_8 C 0.58758(12) 0.98312(13) 0.1519(3)
H7_8 H 0.632410 0.871214 0.103949
H10_8 H 0.561427 0.953581 0.258712
O3_8 O 0.84199(8) 0.73177(8) 0.86401(17)
C1_8 C 0.84068(11) 0.70413(11) 0.9254(2)
C2_8 C 0.80170(12) 0.70866(12) 0.9852(3)
C4_8 C 0.77195(12) 0.74361(12) 0.9731(2)
H2_8 H 0.776064 0.763597 0.926497
C9_8 C 0.70887(11) 0.82377(12) 0.9730(2)
N3_8 N 0.73785(8) 0.82894(10) 0.9088(2)
C10_8 C 0.68226(11) 0.89400(12) 0.9624(2)
C11_8 C 0.73632(10) 0.87023(12) 0.8738(2)
N4_8 N 0.70985(9) 0.90363(10) 0.8968(2)
N5_8 N 0.65644(9) 0.92958(11) 0.9867(2)
N6_8 N 0.76596(9) 0.87655(10) 0.80959(19)
H5_8 H 0.655861 0.952139 0.950454
C14_8 C 0.77850(10) 0.91720(13) 0.7694(3)
H6_8 H 0.779206 0.852250 0.790226
C18_8 C 0.75970(11) 0.95856(12) 0.7901(2)
C19_8 C 0.81419(17) 0.91545(18) 0.7123(4)
C23_8 C 0.77496(11) 0.99704(13) 0.7517(3)
H8_8 H 0.736204 0.960131 0.830948
C24_8 C 0.8268(2) 0.9546(2) 0.6689(4)
H9_8 H 0.829775 0.888164 0.702794
C26_8 C 0.80970(19) 0.9962(2) 0.6915(4)
H12_8 H 0.847548 0.952558 0.622982
C22_5 C 0.98043(12) 0.62308(12) 0.0273(2)
H11_5 H 0.988378 0.574702 0.162987
O9_5 O 0.94421(12) 0.60648(9) 0.0475(2)
O11_5 O 0.93278(14) 0.72934(16) 0.0056(3)
H14_5 H 0.901(17) 0.7300(5) 0.001(6)
H15_5 H 0.944175 0.719687 0.062362
C22_6 C 0.01957(12) 0.37692(12) 0.0273(2)
H11_6 H 0.011622 0.425298 0.162987
O9_6 O 0.05579(12) 0.39352(9) 0.0475(2)
O11_6 O 0.06722(14) 0.27066(16) 0.0056(3)
H14_6 H 0.099(17) 0.2700(5) 0.001(6)
H15_6 H 0.0558251 0.280313 0.062362
C22_7 C 0.37692(12) 0.98043(12) 0.0273(2)
H11_7 H 0.425298 0.988378 0.162987
O9_7 O 0.39352(9) 0.94421(12) 0.0475(2)
O11_7 O 0.27066(16) 0.93278(14) 0.0056(3)
H14_7 H 0.2700(5) 0.901(17) 0.001(6)
H15_7 H 0.280313 0.944175 0.062362
C22_8 C 0.62308(12) 0.01957(12) 0.0273(2)
H11_8 H 0.574702 0.011622 0.162987
O9_8 O 0.60648(9) 0.05579(12) 0.0475(2)
O11_8 O 0.72934(16) 0.06722(14) 0.0056(3)
H14_8 H 0.7300(5) 0.099(17) 0.001(6)
H15_8 H 0.719687 0.0558251 0.062362
loop_
_geom_bond_atom_site_label_1
_geom_bond_atom_site_label_2
_geom_bond_site_symmetry_1
_geom_bond_site_symmetry_2
Zn1 O1 1_555 1_555
O2 Zn1 1_555 1_555
O3 Zn1 1_555 1_555
O4 Zn1 1_555 1_555
C1 O3 1_555 1_555
O5 C1 1_555 1_555
C2 C1 1_555 1_555
Zn2 O5 1_555 1_555
C3 C2 1_555 1_555
C4 C2 1_555 1_555
C5 C3 1_555 1_555
H1 C3 1_555 1_555
C6 C4 1_555 1_555
H2 C4 1_555 1_555
C7 C5 1_555 1_555
H3 C5 1_555 1_555
N1 C6 1_555 1_555
C8 C7 1_555 1_555
H4 N1 1_555 1_555
C9 N1 1_555 1_555
O6 C8 1_555 1_555
N2 C9 1_555 1_555
N3 C9 1_555 1_555
C10 N2 1_555 1_555
C11 N3 1_555 1_555
N4 C10 1_555 1_555
N5 C10 1_555 1_555
N6 C11 1_555 1_555
C12 C15 1_555 1_555
H5 N5 1_555 1_555
C13 N5 1_555 1_555
C14 N6 1_555 1_555
H6 N6 1_555 1_555
C15 C17 1_555 1_555
O7 C12 1_555 1_555
C16 C13 1_555 1_555
C17 C13 1_555 1_555
C18 C14 1_555 1_555
C19 C14 1_555 1_555
C20 C15 1_555 1_555
C21 C16 1_555 1_555
C22 C16 1_555 1_555
H7 C17 1_555 1_555
C23 C18 1_555 1_555
H8 C18 1_555 1_555
C24 C19 1_555 1_555
H9 C19 1_555 1_555
H10 C20 1_555 1_555
H11 C21 1_555 1_555
O8 C22 1_555 1_555
O9 C22 1_555 1_555
C25 C23 1_555 1_555
C26 C23 1_555 1_555
H12 C24 1_555 1_555
O10 C25 1_555 1_555
H13 C26 1_555 1_555
O11 H14 1_555 1_555
O12 C8 1_555 1_555
Zn3 O12 1_555 1_555
O13 C12 1_555 1_555
Zn4 O7 1_555 1_555
Zn5 O8 1_555 1_555
O14 C25 1_555 1_555
O15 Zn5 1_555 1_555
O16 Zn5 1_555 1_555
Zn6 O14 1_555 1_555
C6 C7 1_555 1_555
C11 N4 1_555 1_555
C20 C21 1_555 1_555
C24 C26 1_555 1_555
O10 Zn5 1_555 1_555
O11 Zn5 1_555 1_555
Zn3 O13 1_555 1_555
O11 H15 1_555 1_555
Zn1_2 O1_2 1_555 1_555
O2_2 Zn1_2 1_555 1_555
O3_2 Zn1_2 1_555 1_555
O4_2 Zn1_2 1_555 1_555
C1_2 O3_2 1_555 1_555
O5_2 C1_2 1_555 1_555
C2_2 C1_2 1_555 1_555
Zn2_2 O5_2 1_555 1_555
C3_2 C2_2 1_555 1_555
C4_2 C2_2 1_555 1_555
C5_2 C3_2 1_555 1_555
H1_2 C3_2 1_555 1_555
C6_2 C4_2 1_555 1_555
H2_2 C4_2 1_555 1_555
C7_2 C5_2 1_555 1_555
H3_2 C5_2 1_555 1_555
N1_2 C6_2 1_555 1_555
C8_2 C7_2 1_555 1_555
H4_2 N1_2 1_555 1_555
C9_2 N1_2 1_555 1_555
O6_2 C8_2 1_555 1_555
N2_2 C9_2 1_555 1_555
N3_2 C9_2 1_555 1_555
C10_2 N2_2 1_555 1_555
C11_2 N3_2 1_555 1_555
N4_2 C10_2 1_555 1_555
N5_2 C10_2 1_555 1_555
N6_2 C11_2 1_555 1_555
C12_2 C15_2 1_555 1_555
H5_2 N5_2 1_555 1_555
C13_2 N5_2 1_555 1_555
C14_2 N6_2 1_555 1_555
H6_2 N6_2 1_555 1_555
C15_2 C17_2 1_555 1_555
O7_2 C12_2 1_555 1_555
C16_2 C13_2 1_555 1_555
C17_2 C13_2 1_555 1_555
C18_2 C14_2 1_555 1_555
C19_2 C14_2 1_555 1_555
C20_2 C15_2 1_555 1_555
C21_2 C16_2 1_555 1_555
C22_2 C16_2 1_555 1_555
H7_2 C17_2 1_555 1_555
C23_2 C18_2 1_555 1_555
H8_2 C18_2 1_555 1_555
C24_2 C19_2 1_555 1_555
H9_2 C19_2 1_555 1_555
H10_2 C20_2 1_555 1_555
H11_2 C21_2 1_555 1_555
O8_2 C22_2 1_555 1_555
O9_2 C22_2 1_555 1_555
C25_2 C23_2 1_555 1_555
C26_2 C23_2 1_555 1_555
H12_2 C24_2 1_555 1_555
O10_2 C25_2 1_555 1_555
H13_2 C26_2 1_555 1_555
O11_2 H14_2 1_555 1_555
O12_2 C8_2 1_555 1_555
Zn3_2 O12_2 1_555 1_555
O13_2 C12_2 1_555 1_555
Zn4_2 O7_2 1_555 1_555
Zn5_2 O8_2 1_555 1_555
O14_2 C25_2 1_555 1_555
O15_2 Zn5_2 1_555 1_555
O16_2 Zn5_2 1_555 1_555
Zn6_2 O14_2 1_555 1_555
C6_2 C7_2 1_555 1_555
C11_2 N4_2 1_555 1_555
C20_2 C21_2 1_555 1_555
C24_2 C26_2 1_555 1_555
O10_2 Zn5_2 1_555 1_555
O11_2 Zn5_2 1_555 1_555
Zn3_2 O13_2 1_555 1_555
O11_2 H15_2 1_555 1_555
O2_3 Zn6_2 1_555 1_555
O3_3 Zn6_2 1_555 1_555
O4_3 Zn6_2 1_555 1_555
C1_3 O3_3 1_555 1_555
O16_2 C1_3 1_555 1_555
C2_3 C1_3 1_555 1_555
C3_3 C2_3 1_555 1_555
C4_3 C2_3 1_555 1_555
C5_3 C3_3 1_555 1_555
H1_3 C3_3 1_555 1_555
C6_3 C4_3 1_555 1_555
H2_3 C4_3 1_555 1_555
C7_3 C5_3 1_555 1_555
H3_3 C5_3 1_555 1_555
N1_3 C6_3 1_555 1_555
C8_3 C7_3 1_555 1_555
H4_3 N1_3 1_555 1_555
C9_3 N1_3 1_555 1_555
O6_3 C8_3 1_555 1_555
N2_3 C9_3 1_555 1_555
N3_3 C9_3 1_555 1_555
C10_3 N2_3 1_555 1_555
C11_3 N3_3 1_555 1_555
N4_3 C10_3 1_555 1_555
N5_3 C10_3 1_555 1_555
N6_3 C11_3 1_555 1_555
C12_3 C15_3 1_555 1_555
H5_3 N5_3 1_555 1_555
C13_3 N5_3 1_555 1_555
C14_3 N6_3 1_555 1_555
H6_3 N6_3 1_555 1_555
C15_3 C17_3 1_555 1_555
O7_3 C12_3 1_555 1_555
C16_3 C13_3 1_555 1_555
C17_3 C13_3 1_555 1_555
C18_3 C14_3 1_555 1_555
C19_3 C14_3 1_555 1_555
C20_3 C15_3 1_555 1_555
C21_3 C16_3 1_555 1_555
C22_3 C16_3 1_555 1_555
H7_3 C17_3 1_555 1_555
C23_3 C18_3 1_555 1_555
H8_3 C18_3 1_555 1_555
C24_3 C19_3 1_555 1_555
H9_3 C19_3 1_555 1_555
H10_3 C20_3 1_555 1_555
H11_3 C21_3 1_555 1_555
O8_3 C22_3 1_555 1_555
O9_3 C22_3 1_555 1_555
C25_3 C23_3 1_555 1_555
C26_3 C23_3 1_555 1_555
H12_3 C24_3 1_555 1_555
O10_3 C25_3 1_555 1_555
H13_3 C26_3 1_555 1_555
O11_3 H14_3 1_555 1_555
O12_3 C8_3 1_555 1_555
Zn3_3 O12_3 1_555 1_555
O13_3 C12_3 1_555 1_555
Zn4_3 O7_3 1_555 1_555
Zn2 O8_3 1_555 1_555
O1 C25_3 1_555 1_555
O15_3 Zn2 1_555 1_555
C6_3 C7_3 1_555 1_555
C11_3 N4_3 1_555 1_555
C20_3 C21_3 1_555 1_555
C24_3 C26_3 1_555 1_555
O10_3 Zn2 1_555 1_555
O11_3 Zn2 1_555 1_555
Zn3_3 O13_3 1_555 1_555
O11_3 H15_3 1_555 1_555
O2_4 Zn6 1_555 1_555
O3_4 Zn6 1_555 1_555
O4_4 Zn6 1_555 1_555
C1_4 O3_4 1_555 1_555
O16 C1_4 1_555 1_555
C2_4 C1_4 1_555 1_555
C3_4 C2_4 1_555 1_555
C4_4 C2_4 1_555 1_555
C5_4 C3_4 1_555 1_555
H1_4 C3_4 1_555 1_555
C6_4 C4_4 1_555 1_555
H2_4 C4_4 1_555 1_555
C7_4 C5_4 1_555 1_555
H3_4 C5_4 1_555 1_555
N1_4 C6_4 1_555 1_555
C8_4 C7_4 1_555 1_555
H4_4 N1_4 1_555 1_555
C9_4 N1_4 1_555 1_555
O6_4 C8_4 1_555 1_555
N2_4 C9_4 1_555 1_555
N3_4 C9_4 1_555 1_555
C10_4 N2_4 1_555 1_555
C11_4 N3_4 1_555 1_555
N4_4 C10_4 1_555 1_555
N5_4 C10_4 1_555 1_555
N6_4 C11_4 1_555 1_555
C12_4 C15_4 1_555 1_555
H5_4 N5_4 1_555 1_555
C13_4 N5_4 1_555 1_555
C14_4 N6_4 1_555 1_555
H6_4 N6_4 1_555 1_555
C15_4 C17_4 1_555 1_555
O7_4 C12_4 1_555 1_555
C16_4 C13_4 1_555 1_555
C17_4 C13_4 1_555 1_555
C18_4 C14_4 1_555 1_555
C19_4 C14_4 1_555 1_555
C20_4 C15_4 1_555 1_555
C21_4 C16_4 1_555 1_555
C22_4 C16_4 1_555 1_555
H7_4 C17_4 1_555 1_555
C23_4 C18_4 1_555 1_555
H8_4 C18_4 1_555 1_555
C24_4 C19_4 1_555 1_555
H9_4 C19_4 1_555 1_555
H10_4 C20_4 1_555 1_555
H11_4 C21_4 1_555 1_555
O8_4 C22_4 1_555 1_555
O9_4 C22_4 1_555 1_555
C25_4 C23_4 1_555 1_555
C26_4 C23_4 1_555 1_555
H12_4 C24_4 1_555 1_555
O10_4 C25_4 1_555 1_555
H13_4 C26_4 1_555 1_555
O11_4 H14_4 1_555 1_555
O12_4 C8_4 1_555 1_555
Zn3_4 O12_4 1_555 1_555
O13_4 C12_4 1_555 1_555
Zn4_4 O7_4 1_555 1_555
Zn2_2 O8_4 1_555 1_555
O1_2 C25_4 1_555 1_555
O15_4 Zn2_2 1_555 1_555
C6_4 C7_4 1_555 1_555
C11_4 N4_4 1_555 1_555
C20_4 C21_4 1_555 1_555
C24_4 C26_4 1_555 1_555
O10_4 Zn2_2 1_555 1_555
O11_4 Zn2_2 1_555 1_555
Zn3_4 O13_4 1_555 1_555
O11_4 H15_4 1_555 1_555
C5_5 C3_5 1_555 1_555
H1_5 C3_5 1_555 1_555
C7_5 C5_5 1_555 1_555
H3_5 C5_5 1_555 1_555
N1_5 C6_5 1_555 1_555
C8_5 C7_5 1_555 1_555
H4_5 N1_5 1_555 1_555
O6_5 C8_5 1_555 1_555
C12_5 C15_5 1_555 1_555
C15_5 C17_5 1_555 1_555
O15_4 C12_5 1_555 1_555
C16_5 C13_5 1_555 1_555
C17_5 C13_5 1_555 1_555
C20_5 C15_5 1_555 1_555
C21_5 C16_5 1_555 1_555
H7_5 C17_5 1_555 1_555
H10_5 C20_5 1_555 1_555
O4_2 C8_5 1_555 1_555
O2_2 C12_5 1_555 1_555
C6_5 C7_5 1_555 1_555
C20_5 C21_5 1_555 1_555
Zn3_2 O1_3 1_555 1_555
O3_5 Zn3_2 1_555 1_555
C1_5 O3_5 1_555 1_555
O5_3 C1_5 1_555 1_555
C2_5 C1_5 1_555 1_555
Zn4_2 O5_3 1_555 1_555
C4_5 C2_5 1_555 1_555
H2_5 C4_5 1_555 1_555
N3_5 C9_5 1_555 1_555
C11_5 N3_5 1_555 1_555
N4_5 C10_5 1_555 1_555
N5_5 C10_5 1_555 1_555
N6_5 C11_5 1_555 1_555
H5_5 N5_5 1_555 1_555
C14_5 N6_5 1_555 1_555
H6_5 N6_5 1_555 1_555
C18_5 C14_5 1_555 1_555
C19_5 C14_5 1_555 1_555
C23_5 C18_5 1_555 1_555
H8_5 C18_5 1_555 1_555
C24_5 C19_5 1_555 1_555
H9_5 C19_5 1_555 1_555
C26_5 C23_5 1_555 1_555
H12_5 C24_5 1_555 1_555
C11_5 N4_5 1_555 1_555
C24_5 C26_5 1_555 1_555
O10_5 C25_5 1_555 1_555
Zn4_3 O8_5 1_555 1_555
O14_3 C25_5 1_555 1_555
O16_3 Zn4_3 1_555 1_555
Zn3_3 O14_3 1_555 1_555
O10_5 Zn4_3 1_555 1_555
O10_6 C25_6 1_555 1_555
Zn4_4 O8_6 1_555 1_555
O14_4 C25_6 1_555 1_555
O16_4 Zn4_4 1_555 1_555
Zn3_4 O14_4 1_555 1_555
O10_6 Zn4_4 1_555 1_555
C5_6 C3_6 1_555 1_555
H1_6 C3_6 1_555 1_555
C7_6 C5_6 1_555 1_555
H3_6 C5_6 1_555 1_555
N1_6 C6_6 1_555 1_555
C8_6 C7_6 1_555 1_555
H4_6 N1_6 1_555 1_555
O6_6 C8_6 1_555 1_555
C12_6 C15_6 1_555 1_555
C15_6 C17_6 1_555 1_555
O15_3 C12_6 1_555 1_555
C16_6 C13_6 1_555 1_555
C17_6 C13_6 1_555 1_555
C20_6 C15_6 1_555 1_555
C21_6 C16_6 1_555 1_555
H7_6 C17_6 1_555 1_555
H10_6 C20_6 1_555 1_555
O4 C8_6 1_555 1_555
O2 C12_6 1_555 1_555
C6_6 C7_6 1_555 1_555
C20_6 C21_6 1_555 1_555
Zn3 O1_4 1_555 1_555
O3_6 Zn3 1_555 1_555
C1_6 O3_6 1_555 1_555
O5_4 C1_6 1_555 1_555
C2_6 C1_6 1_555 1_555
Zn4 O5_4 1_555 1_555
C4_6 C2_6 1_555 1_555
H2_6 C4_6 1_555 1_555
N3_6 C9_6 1_555 1_555
C11_6 N3_6 1_555 1_555
N4_6 C10_6 1_555 1_555
N5_6 C10_6 1_555 1_555
N6_6 C11_6 1_555 1_555
H5_6 N5_6 1_555 1_555
C14_6 N6_6 1_555 1_555
H6_6 N6_6 1_555 1_555
C18_6 C14_6 1_555 1_555
C19_6 C14_6 1_555 1_555
C23_6 C18_6 1_555 1_555
H8_6 C18_6 1_555 1_555
C24_6 C19_6 1_555 1_555
H9_6 C19_6 1_555 1_555
C26_6 C23_6 1_555 1_555
H12_6 C24_6 1_555 1_555
C11_6 N4_6 1_555 1_555
C24_6 C26_6 1_555 1_555
C5_7 C3_7 1_555 1_555
H1_7 C3_7 1_555 1_555
C7_7 C5_7 1_555 1_555
H3_7 C5_7 1_555 1_555
N1_7 C6_7 1_555 1_555
C8_7 C7_7 1_555 1_555
H4_7 N1_7 1_555 1_555
O6_7 C8_7 1_555 1_555
C12_7 C15_7 1_555 1_555
C15_7 C17_7 1_555 1_555
O15 C12_7 1_555 1_555
C16_7 C13_7 1_555 1_555
C17_7 C13_7 1_555 1_555
C20_7 C15_7 1_555 1_555
C21_7 C16_7 1_555 1_555
H7_7 C17_7 1_555 1_555
H10_7 C20_7 1_555 1_555
O4_4 C8_7 1_555 1_555
O2_4 C12_7 1_555 1_555
C6_7 C7_7 1_555 1_555
C20_7 C21_7 1_555 1_555
O3_7 Zn3_4 1_555 1_555
C1_7 O3_7 1_555 1_555
O16_4 C1_7 1_555 1_555
C2_7 C1_7 1_555 1_555
C4_7 C2_7 1_555 1_555
H2_7 C4_7 1_555 1_555
N3_7 C9_7 1_555 1_555
C11_7 N3_7 1_555 1_555
N4_7 C10_7 1_555 1_555
N5_7 C10_7 1_555 1_555
N6_7 C11_7 1_555 1_555
H5_7 N5_7 1_555 1_555
C14_7 N6_7 1_555 1_555
H6_7 N6_7 1_555 1_555
C18_7 C14_7 1_555 1_555
C19_7 C14_7 1_555 1_555
C23_7 C18_7 1_555 1_555
H8_7 C18_7 1_555 1_555
C24_7 C19_7 1_555 1_555
H9_7 C19_7 1_555 1_555
C26_7 C23_7 1_555 1_555
H12_7 C24_7 1_555 1_555
C11_7 N4_7 1_555 1_555
C24_7 C26_7 1_555 1_555
O10_7 C25_7 1_555 1_555
Zn4_2 O8_7 1_555 1_555
O1_3 C25_7 1_555 1_555
O10_7 Zn4_2 1_555 1_555
O10_8 C25_8 1_555 1_555
Zn4 O8_8 1_555 1_555
O1_4 C25_8 1_555 1_555
O10_8 Zn4 1_555 1_555
C5_8 C3_8 1_555 1_555
H1_8 C3_8 1_555 1_555
C7_8 C5_8 1_555 1_555
H3_8 C5_8 1_555 1_555
N1_8 C6_8 1_555 1_555
C8_8 C7_8 1_555 1_555
H4_8 N1_8 1_555 1_555
O6_8 C8_8 1_555 1_555
C12_8 C15_8 1_555 1_555
C15_8 C17_8 1_555 1_555
O15_2 C12_8 1_555 1_555
C16_8 C13_8 1_555 1_555
C17_8 C13_8 1_555 1_555
C20_8 C15_8 1_555 1_555
C21_8 C16_8 1_555 1_555
H7_8 C17_8 1_555 1_555
H10_8 C20_8 1_555 1_555
O4_3 C8_8 1_555 1_555
O2_3 C12_8 1_555 1_555
C6_8 C7_8 1_555 1_555
C20_8 C21_8 1_555 1_555
O3_8 Zn3_3 1_555 1_555
C1_8 O3_8 1_555 1_555
O16_3 C1_8 1_555 1_555
C2_8 C1_8 1_555 1_555
C4_8 C2_8 1_555 1_555
H2_8 C4_8 1_555 1_555
N3_8 C9_8 1_555 1_555
C11_8 N3_8 1_555 1_555
N4_8 C10_8 1_555 1_555
N5_8 C10_8 1_555 1_555
N6_8 C11_8 1_555 1_555
H5_8 N5_8 1_555 1_555
C14_8 N6_8 1_555 1_555
H6_8 N6_8 1_555 1_555
C18_8 C14_8 1_555 1_555
C19_8 C14_8 1_555 1_555
C23_8 C18_8 1_555 1_555
H8_8 C18_8 1_555 1_555
C24_8 C19_8 1_555 1_555
H9_8 C19_8 1_555 1_555
C26_8 C23_8 1_555 1_555
H12_8 C24_8 1_555 1_555
C11_8 N4_8 1_555 1_555
C24_8 C26_8 1_555 1_555
O9_5 C22_5 1_555 1_555
O11_5 H14_5 1_555 1_555
O11_5 H15_5 1_555 1_555
O9_6 C22_6 1_555 1_555
O11_6 H14_6 1_555 1_555
O11_6 H15_6 1_555 1_555
O9_7 C22_7 1_555 1_555
O11_7 H14_7 1_555 1_555
O11_7 H15_7 1_555 1_555
O9_8 C22_8 1_555 1_555
O11_8 H14_8 1_555 1_555
O11_8 H15_8 1_555 1_555

#END
