
###############################################################################
#
# This file contains modified crystal structure data generated from the
# MOF subset of the Cambridge Structural Database (CSD) v543 
# hosted by the Cambridge Crystallographic Data Centre (CCDC).
#
# This work is licensed under the Creative Commons
# Attribution-NonCommercial-ShareAlike 4.0 International License.
# To view a copy of this license, visit
# http://creativecommons.org/licenses/by-nc-sa/4.0/
# or send a letter to
# Creative Commons, PO Box 1866, Mountain View, CA 94042, USA.
#
# CIF created using the CSD Python API on 29 September 2022
# The structure has been converted into the P1 space group
# The structure has a 3D framework
# The original CSD entry TAQTOY is in the tetragonal crystal system
# The original CSD entry TAQTOY is in a Sohncke space group
# The framework has been calculated to contain at least 10.0% void space
# The void calculation uses a probe of radius 1.32A, grid spacing 0.4
# The framework is charged, counterions have been retained in the structure
#
###############################################################################

data_TAQTOY
_chemical_formula_moiety         '(C208 H104 N48 O76 Zn16 8-)n'
_symmetry_cell_setting           triclinic
_symmetry_space_group_name_H-M   'P 1'
_symmetry_Int_Tables_number      1
_space_group_name_Hall           'P 1'
loop_
_symmetry_equiv_pos_site_id
_symmetry_equiv_pos_as_xyz
1 x,y,z
_cell_length_a                   29.590(6)
_cell_length_b                   29.590(6)
_cell_length_c                   16.196(5)
_cell_angle_alpha                90
_cell_angle_beta                 90
_cell_angle_gamma                90
_cell_volume                     14180.7
loop_
_atom_site_label
_atom_site_type_symbol
_atom_site_fract_x
_atom_site_fract_y
_atom_site_fract_z
Zn1 Zn 0.86747(2) 0.27553(2) 0.23447(2)
Zn2 Zn 0.56877(2) 0.16809(2) 0.59452(2)
O1 O 0.74301(9) 0.57700(7) 0.75418(16)
O2 O 0.78157(9) 0.54134(8) 0.65756(16)
O3 O 0.84718(9) 0.51991(7) 0.52282(14)
O4 O 0.89431(11) 0.55989(10) 0.4513(2)
O5 O 0.88149(9) 0.33915(8) 0.25649(15)
O6 O 0.82444(8) 0.26424(8) 0.32237(15)
O7 O 0.80527(8) 0.19846(8) 0.26932(14)
O8 O 0.62571(8) 0.17989(10) 0.54339(17)
N1 N 0.79205(10) 0.40532(8) 0.58964(19)
N2 N 0.81838(10) 0.35848(9) 0.48156(18)
N3 N 0.76297(9) 0.33013(8) 0.57697(17)
N4 N 0.73859(10) 0.37741(9) 0.67968(17)
H1 H 0.725090 0.353678 0.697891
N5 N 0.84188(10) 0.43331(9) 0.49737(18)
H2 H 0.842999 0.455120 0.532405
N6 N 0.79154(10) 0.28843(9) 0.46495(18)
H3 H 0.815701 0.285698 0.435873
O9 O 0.92401(9) 0.38108(8) 0.17361(15)
C1 C 0.76570(12) 0.37097(11) 0.61368(19)
C2 C 0.81718(12) 0.39684(11) 0.5226(2)
C3 C 0.78949(12) 0.32655(11) 0.5112(2)
C4 C 0.72951(12) 0.41740(10) 0.7224(2)
C5 C 0.70173(16) 0.41497(17) 0.7897(3)
H4 H 0.691557 0.386914 0.807780
C6 C 0.68839(19) 0.45394(19) 0.8319(4)
H5 H 0.668121 0.451818 0.875602
C7 C 0.70545(16) 0.49625(17) 0.8085(3)
H6 H 0.697417 0.522432 0.836674
C8 C 0.73442(12) 0.49751(10) 0.7426(2)
C9 C 0.74537(12) 0.45980(11) 0.7015(2)
H7 H 0.764725 0.462284 0.656523
C10 C 0.86529(12) 0.44099(11) 0.4253(2)
O10 O 0.66107(9) 0.22844(8) 0.62793(15)
C11 C 0.88249(12) 0.48414(11) 0.4085(2)
C12 C 0.90714(15) 0.49032(13) 0.3371(3)
H8 H 0.920096 0.518495 0.327763
C13 C 0.91367(15) 0.45670(13) 0.2783(3)
H9 H 0.929112 0.462433 0.229359
C14 C 0.89612(12) 0.41411(12) 0.2957(2)
C15 C 0.87332(13) 0.40598(12) 0.3680(2)
H10 H 0.863008 0.376956 0.379373
C16 C 0.76064(11) 0.25265(10) 0.4567(2)
C17 C 0.76474(11) 0.22388(10) 0.3871(2)
C18 C 0.73329(13) 0.18979(12) 0.3777(2)
H11 H 0.735719 0.170251 0.332917
C19 C 0.69826(13) 0.18401(14) 0.4332(2)
H12 H 0.676935 0.161395 0.424773
C20 C 0.69503(11) 0.21204(11) 0.5016(2)
C21 C 0.72620(11) 0.24545(11) 0.5127(2)
H13 H 0.724200 0.263834 0.559112
C22 C 0.75449(13) 0.54193(11) 0.7174(2)
C23 C 0.87486(14) 0.52430(12) 0.4647(2)
C24 C 0.90103(11) 0.37507(12) 0.2371(3)
C25 C 0.80019(10) 0.22802(11) 0.3207(2)
C26 C 0.65782(12) 0.20624(12) 0.5623(2)
Zn3 Zn 0.63253(2) 0.22447(2) 0.73447(2)
Zn4 Zn 0.77553(2) 0.63253(2) 0.73447(2)
Zn5 Zn 0.83191(2) 0.56877(2) 0.59452(2)
Zn6 Zn 0.93123(2) 0.33191(2) 0.09452(2)
O11 O 0.92300(7) 0.24301(9) 0.25418(16)
O12 O 0.54134(8) 0.21843(9) 0.65756(16)
O13 O 0.51991(7) 0.15282(9) 0.52282(14)
O14 O 0.57599(9) 0.11892(8) 0.67361(15)
O15 O 0.83893(9) 0.27156(8) 0.12793(15)
Zn1_2 Zn 0.13253(2) 0.72447(2) 0.23447(2)
Zn2_2 Zn 0.43123(2) 0.83191(2) 0.59452(2)
O1_2 O 0.25699(9) 0.42300(7) 0.75418(16)
O2_2 O 0.21843(9) 0.45866(8) 0.65756(16)
O3_2 O 0.15282(9) 0.48009(7) 0.52282(14)
O4_2 O 0.10569(11) 0.44011(10) 0.4513(2)
O5_2 O 0.11851(9) 0.66085(8) 0.25649(15)
O6_2 O 0.17556(8) 0.73576(8) 0.32237(15)
O7_2 O 0.19473(8) 0.80154(8) 0.26932(14)
O8_2 O 0.37429(8) 0.82011(10) 0.54339(17)
N1_2 N 0.20795(10) 0.59468(8) 0.58964(19)
N2_2 N 0.18162(10) 0.64152(9) 0.48156(18)
N3_2 N 0.23703(9) 0.66987(8) 0.57697(17)
N4_2 N 0.26141(10) 0.62259(9) 0.67968(17)
H1_2 H 0.274910 0.646322 0.697891
N5_2 N 0.15812(10) 0.56669(9) 0.49737(18)
H2_2 H 0.157001 0.544880 0.532405
N6_2 N 0.20846(10) 0.71157(9) 0.46495(18)
H3_2 H 0.184299 0.714302 0.435873
O9_2 O 0.07599(9) 0.61892(8) 0.17361(15)
C1_2 C 0.23430(12) 0.62903(11) 0.61368(19)
C2_2 C 0.18282(12) 0.60316(11) 0.5226(2)
C3_2 C 0.21051(12) 0.67345(11) 0.5112(2)
C4_2 C 0.27049(12) 0.58260(10) 0.7224(2)
C5_2 C 0.29827(16) 0.58503(17) 0.7897(3)
H4_2 H 0.308443 0.613086 0.807780
C6_2 C 0.31161(19) 0.54606(19) 0.8319(4)
H5_2 H 0.331879 0.548182 0.875602
C7_2 C 0.29455(16) 0.50375(17) 0.8085(3)
H6_2 H 0.302583 0.477568 0.836674
C8_2 C 0.26558(12) 0.50249(10) 0.7426(2)
C9_2 C 0.25463(12) 0.54020(11) 0.7015(2)
H7_2 H 0.235275 0.537716 0.656523
C10_2 C 0.13471(12) 0.55901(11) 0.4253(2)
O10_2 O 0.33893(9) 0.77156(8) 0.62793(15)
C11_2 C 0.11751(12) 0.51586(11) 0.4085(2)
C12_2 C 0.09286(15) 0.50968(13) 0.3371(3)
H8_2 H 0.079904 0.481505 0.327763
C13_2 C 0.08633(15) 0.54330(13) 0.2783(3)
H9_2 H 0.070888 0.537567 0.229359
C14_2 C 0.10388(12) 0.58589(12) 0.2957(2)
C15_2 C 0.12668(13) 0.59402(12) 0.3680(2)
H10_2 H 0.136992 0.623044 0.379373
C16_2 C 0.23936(11) 0.74735(10) 0.4567(2)
C17_2 C 0.23526(11) 0.77612(10) 0.3871(2)
C18_2 C 0.26671(13) 0.81021(12) 0.3777(2)
H11_2 H 0.264281 0.829749 0.332917
C19_2 C 0.30174(13) 0.81599(14) 0.4332(2)
H12_2 H 0.323065 0.838605 0.424773
C20_2 C 0.30497(11) 0.78796(11) 0.5016(2)
C21_2 C 0.27380(11) 0.75455(11) 0.5127(2)
H13_2 H 0.275800 0.736166 0.559112
C22_2 C 0.24551(13) 0.45807(11) 0.7174(2)
C23_2 C 0.12514(14) 0.47570(12) 0.4647(2)
C24_2 C 0.09897(11) 0.62493(12) 0.2371(3)
C25_2 C 0.19981(10) 0.77198(11) 0.3207(2)
C26_2 C 0.34218(12) 0.79376(12) 0.5623(2)
Zn3_2 Zn 0.36747(2) 0.77553(2) 0.73447(2)
Zn4_2 Zn 0.22447(2) 0.36747(2) 0.73447(2)
Zn5_2 Zn 0.16809(2) 0.43123(2) 0.59452(2)
Zn6_2 Zn 0.06877(2) 0.66809(2) 0.09452(2)
O11_2 O 0.07700(7) 0.75699(9) 0.25418(16)
O12_2 O 0.45866(8) 0.78157(9) 0.65756(16)
O13_2 O 0.48009(7) 0.84718(9) 0.52282(14)
O14_2 O 0.42401(9) 0.88108(8) 0.67361(15)
O15_2 O 0.16107(9) 0.72844(8) 0.12793(15)
Zn1_3 Zn 0.72447(2) 0.86747(2) 0.23447(2)
O1_3 O 0.42300(7) 0.74301(9) 0.75418(16)
O4_3 O 0.44011(10) 0.89431(11) 0.4513(2)
O5_3 O 0.66085(8) 0.88149(9) 0.25649(15)
O6_3 O 0.73576(8) 0.82444(8) 0.32237(15)
O7_3 O 0.80154(8) 0.80527(8) 0.26932(14)
O8_3 O 0.82011(10) 0.62571(8) 0.54339(17)
N1_3 N 0.59468(8) 0.79205(10) 0.58964(19)
N2_3 N 0.64152(9) 0.81838(10) 0.48156(18)
N3_3 N 0.66987(8) 0.76297(9) 0.57697(17)
N4_3 N 0.62259(9) 0.73859(10) 0.67968(17)
H1_3 H 0.646322 0.725090 0.697891
N5_3 N 0.56669(9) 0.84188(10) 0.49737(18)
H2_3 H 0.544880 0.842999 0.532405
N6_3 N 0.71157(9) 0.79154(10) 0.46495(18)
H3_3 H 0.714302 0.815701 0.435873
O9_3 O 0.61892(8) 0.92401(9) 0.17361(15)
C1_3 C 0.62903(11) 0.76570(12) 0.61368(19)
C2_3 C 0.60316(11) 0.81718(12) 0.5226(2)
C3_3 C 0.67345(11) 0.78949(12) 0.5112(2)
C4_3 C 0.58260(10) 0.72951(12) 0.7224(2)
C5_3 C 0.58503(17) 0.70173(16) 0.7897(3)
H4_3 H 0.613086 0.691557 0.807780
C6_3 C 0.54606(19) 0.68839(19) 0.8319(4)
H5_3 H 0.548182 0.668121 0.875602
C7_3 C 0.50375(17) 0.70545(16) 0.8085(3)
H6_3 H 0.477568 0.697417 0.836674
C8_3 C 0.50249(10) 0.73442(12) 0.7426(2)
C9_3 C 0.54020(11) 0.74537(12) 0.7015(2)
H7_3 H 0.537716 0.764725 0.656523
C10_3 C 0.55901(11) 0.86529(12) 0.4253(2)
O10_3 O 0.77156(8) 0.66107(9) 0.62793(15)
C11_3 C 0.51586(11) 0.88249(12) 0.4085(2)
C12_3 C 0.50968(13) 0.90714(15) 0.3371(3)
H8_3 H 0.481505 0.920096 0.327763
C13_3 C 0.54330(13) 0.91367(15) 0.2783(3)
H9_3 H 0.537567 0.929112 0.229359
C14_3 C 0.58589(12) 0.89612(12) 0.2957(2)
C15_3 C 0.59402(12) 0.87332(13) 0.3680(2)
H10_3 H 0.623044 0.863008 0.379373
C16_3 C 0.74735(10) 0.76064(11) 0.4567(2)
C17_3 C 0.77612(10) 0.76474(11) 0.3871(2)
C18_3 C 0.81021(12) 0.73329(13) 0.3777(2)
H11_3 H 0.829749 0.735719 0.332917
C19_3 C 0.81599(14) 0.69826(13) 0.4332(2)
H12_3 H 0.838605 0.676935 0.424773
C20_3 C 0.78796(11) 0.69503(11) 0.5016(2)
C21_3 C 0.75455(11) 0.72620(11) 0.5127(2)
H13_3 H 0.736166 0.724200 0.559112
C22_3 C 0.45807(11) 0.75449(13) 0.7174(2)
C23_3 C 0.47570(12) 0.87486(14) 0.4647(2)
C24_3 C 0.62493(12) 0.90103(11) 0.2371(3)
C25_3 C 0.77198(11) 0.80019(10) 0.3207(2)
C26_3 C 0.79376(12) 0.65782(12) 0.5623(2)
Zn6_3 Zn 0.66809(2) 0.93123(2) 0.09452(2)
O11_3 O 0.75699(9) 0.92300(7) 0.25418(16)
O14_3 O 0.88108(8) 0.57599(9) 0.67361(15)
O15_3 O 0.72844(8) 0.83893(9) 0.12793(15)
Zn1_4 Zn 0.27553(2) 0.13253(2) 0.23447(2)
O1_4 O 0.57700(7) 0.25699(9) 0.75418(16)
O4_4 O 0.55989(10) 0.10569(11) 0.4513(2)
O5_4 O 0.33915(8) 0.11851(9) 0.25649(15)
O6_4 O 0.26424(8) 0.17556(8) 0.32237(15)
O7_4 O 0.19846(8) 0.19473(8) 0.26932(14)
O8_4 O 0.17989(10) 0.37429(8) 0.54339(17)
N1_4 N 0.40532(8) 0.20795(10) 0.58964(19)
N2_4 N 0.35848(9) 0.18162(10) 0.48156(18)
N3_4 N 0.33013(8) 0.23703(9) 0.57697(17)
N4_4 N 0.37741(9) 0.26141(10) 0.67968(17)
H1_4 H 0.353678 0.274910 0.697891
N5_4 N 0.43331(9) 0.15812(10) 0.49737(18)
H2_4 H 0.455120 0.157001 0.532405
N6_4 N 0.28843(9) 0.20846(10) 0.46495(18)
H3_4 H 0.285698 0.184299 0.435873
O9_4 O 0.38108(8) 0.07599(9) 0.17361(15)
C1_4 C 0.37097(11) 0.23430(12) 0.61368(19)
C2_4 C 0.39684(11) 0.18282(12) 0.5226(2)
C3_4 C 0.32655(11) 0.21051(12) 0.5112(2)
C4_4 C 0.41740(10) 0.27049(12) 0.7224(2)
C5_4 C 0.41497(17) 0.29827(16) 0.7897(3)
H4_4 H 0.386914 0.308443 0.807780
C6_4 C 0.45394(19) 0.31161(19) 0.8319(4)
H5_4 H 0.451818 0.331879 0.875602
C7_4 C 0.49625(17) 0.29455(16) 0.8085(3)
H6_4 H 0.522432 0.302583 0.836674
C8_4 C 0.49751(10) 0.26558(12) 0.7426(2)
C9_4 C 0.45980(11) 0.25463(12) 0.7015(2)
H7_4 H 0.462284 0.235275 0.656523
C10_4 C 0.44099(11) 0.13471(12) 0.4253(2)
O10_4 O 0.22844(8) 0.33893(9) 0.62793(15)
C11_4 C 0.48414(11) 0.11751(12) 0.4085(2)
C12_4 C 0.49032(13) 0.09286(15) 0.3371(3)
H8_4 H 0.518495 0.079904 0.327763
C13_4 C 0.45670(13) 0.08633(15) 0.2783(3)
H9_4 H 0.462433 0.070888 0.229359
C14_4 C 0.41411(12) 0.10388(12) 0.2957(2)
C15_4 C 0.40598(12) 0.12668(13) 0.3680(2)
H10_4 H 0.376956 0.136992 0.379373
C16_4 C 0.25265(10) 0.23936(11) 0.4567(2)
C17_4 C 0.22388(10) 0.23526(11) 0.3871(2)
C18_4 C 0.18979(12) 0.26671(13) 0.3777(2)
H11_4 H 0.170251 0.264281 0.332917
C19_4 C 0.18401(14) 0.30174(13) 0.4332(2)
H12_4 H 0.161395 0.323065 0.424773
C20_4 C 0.21204(11) 0.30497(11) 0.5016(2)
C21_4 C 0.24545(11) 0.27380(11) 0.5127(2)
H13_4 H 0.263834 0.275800 0.559112
C22_4 C 0.54193(11) 0.24551(13) 0.7174(2)
C23_4 C 0.52430(12) 0.12514(14) 0.4647(2)
C24_4 C 0.37507(12) 0.09897(11) 0.2371(3)
C25_4 C 0.22802(11) 0.19981(10) 0.3207(2)
C26_4 C 0.20624(12) 0.34218(12) 0.5623(2)
Zn6_4 Zn 0.33191(2) 0.06877(2) 0.09452(2)
O11_4 O 0.24301(9) 0.07700(7) 0.25418(16)
O14_4 O 0.11892(8) 0.42401(9) 0.67361(15)
O15_4 O 0.27156(8) 0.16107(9) 0.12793(15)
O2_3 O 0.28157(9) 0.04134(8) 0.15756(16)
O3_3 O 0.34718(9) 0.01991(7) 0.02282(14)
H6_5 H 0.197417 0.022432 0.336674
C22_5 C 0.25449(13) 0.04193(11) 0.2174(2)
O8_5 O 0.12571(8) 0.67989(10) 0.04339(17)
N1_5 N 0.29205(10) 0.90532(8) 0.08964(19)
N3_5 N 0.26297(9) 0.83013(8) 0.07697(17)
N4_5 N 0.23859(10) 0.87741(9) 0.17968(17)
H1_5 H 0.225090 0.853678 0.197891
H2_5 H 0.342999 0.955120 0.032405
C1_5 C 0.26570(12) 0.87097(11) 0.11368(19)
C2_5 C 0.31718(12) 0.89684(11) 0.0226(2)
C3_5 C 0.28949(12) 0.82655(11) 0.0112(2)
C4_5 C 0.22951(12) 0.91740(10) 0.2224(2)
C5_5 C 0.20173(16) 0.91497(17) 0.2897(3)
H4_5 H 0.191557 0.886914 0.307780
C6_5 C 0.18839(19) 0.95394(19) 0.3319(4)
H5_5 H 0.168121 0.951818 0.375602
C7_5 C 0.20545(16) 0.99625(17) 0.3085(3)
C8_5 C 0.23442(12) 0.99751(10) 0.2426(2)
C9_5 C 0.24537(12) 0.95980(11) 0.2015(2)
H7_5 H 0.264725 0.962284 0.156523
C20_5 C 0.19503(11) 0.71204(11) 0.0016(2)
C21_5 C 0.22620(11) 0.74545(11) 0.0127(2)
H13_5 H 0.224200 0.763834 0.059112
C26_5 C 0.15782(12) 0.70624(12) 0.0623(2)
O12_3 O 0.04134(8) 0.71843(9) 0.15756(16)
O13_3 O 0.01991(7) 0.65282(9) 0.02282(14)
O5_5 O 0.38149(9) 0.83915(8) 0.75649(15)
O6_5 O 0.32444(8) 0.76424(8) 0.82237(15)
O7_5 O 0.30527(8) 0.69846(8) 0.76932(14)
N2_5 N 0.31838(10) 0.85848(9) 0.98156(18)
N5_5 N 0.34188(10) 0.93331(9) 0.99737(18)
N6_5 N 0.29154(10) 0.78843(9) 0.96495(18)
H3_5 H 0.315701 0.785698 0.935873
C10_5 C 0.36529(12) 0.94099(11) 0.9253(2)
C11_5 C 0.38249(12) 0.98414(11) 0.9085(2)
C12_5 C 0.40714(15) 0.99032(13) 0.8371(3)
C13_5 C 0.41367(15) 0.95670(13) 0.7783(3)
H9_5 H 0.429112 0.962433 0.729359
C14_5 C 0.39612(12) 0.91411(12) 0.7957(2)
C15_5 C 0.37332(13) 0.90598(12) 0.8680(2)
H10_5 H 0.363008 0.876956 0.879373
C16_5 C 0.26064(11) 0.75265(10) 0.9567(2)
C17_5 C 0.26474(11) 0.72388(10) 0.8871(2)
C18_5 C 0.23329(13) 0.68979(12) 0.8777(2)
H11_5 H 0.235719 0.670251 0.832917
C19_5 C 0.19826(13) 0.68401(14) 0.9332(2)
H12_5 H 0.176935 0.661395 0.924773
C24_5 C 0.40103(11) 0.87507(12) 0.7371(3)
C25_5 C 0.30019(10) 0.72802(11) 0.8207(2)
O8_6 O 0.87429(8) 0.32011(10) 0.04339(17)
N1_6 N 0.70795(10) 0.09468(8) 0.08964(19)
N3_6 N 0.73703(9) 0.16987(8) 0.07697(17)
N4_6 N 0.76141(10) 0.12259(9) 0.17968(17)
H1_6 H 0.774910 0.146322 0.197891
H2_6 H 0.657001 0.044880 0.032405
C1_6 C 0.73430(12) 0.12903(11) 0.11368(19)
C2_6 C 0.68282(12) 0.10316(11) 0.0226(2)
C3_6 C 0.71051(12) 0.17345(11) 0.0112(2)
C4_6 C 0.77049(12) 0.08260(10) 0.2224(2)
C5_6 C 0.79827(16) 0.08503(17) 0.2897(3)
H4_6 H 0.808443 0.113086 0.307780
C6_6 C 0.81161(19) 0.04606(19) 0.3319(4)
H5_6 H 0.831879 0.048182 0.375602
C7_6 C 0.79455(16) 0.00375(17) 0.3085(3)
C8_6 C 0.76558(12) 0.00249(10) 0.2426(2)
C9_6 C 0.75463(12) 0.04020(11) 0.2015(2)
H7_6 H 0.735275 0.037716 0.156523
C20_6 C 0.80497(11) 0.28796(11) 0.0016(2)
C21_6 C 0.77380(11) 0.25455(11) 0.0127(2)
H13_6 H 0.775800 0.236166 0.059112
C26_6 C 0.84218(12) 0.29376(12) 0.0623(2)
O12_4 O 0.95866(8) 0.28157(9) 0.15756(16)
O13_4 O 0.98009(7) 0.34718(9) 0.02282(14)
O5_6 O 0.61851(9) 0.16085(8) 0.75649(15)
O6_6 O 0.67556(8) 0.23576(8) 0.82237(15)
O7_6 O 0.69473(8) 0.30154(8) 0.76932(14)
N2_6 N 0.68162(10) 0.14152(9) 0.98156(18)
N5_6 N 0.65812(10) 0.06669(9) 0.99737(18)
N6_6 N 0.70846(10) 0.21157(9) 0.96495(18)
H3_6 H 0.684299 0.214302 0.935873
C10_6 C 0.63471(12) 0.05901(11) 0.9253(2)
C11_6 C 0.61751(12) 0.01586(11) 0.9085(2)
C12_6 C 0.59286(15) 0.00968(13) 0.8371(3)
C13_6 C 0.58633(15) 0.04330(13) 0.7783(3)
H9_6 H 0.570888 0.037567 0.729359
C14_6 C 0.60388(12) 0.08589(12) 0.7957(2)
C15_6 C 0.62668(13) 0.09402(12) 0.8680(2)
H10_6 H 0.636992 0.123044 0.879373
C16_6 C 0.73936(11) 0.24735(10) 0.9567(2)
C17_6 C 0.73526(11) 0.27612(10) 0.8871(2)
C18_6 C 0.76671(13) 0.31021(12) 0.8777(2)
H11_6 H 0.764281 0.329749 0.832917
C19_6 C 0.80174(13) 0.31599(14) 0.9332(2)
H12_6 H 0.823065 0.338605 0.924773
C24_6 C 0.59897(11) 0.12493(12) 0.7371(3)
C25_6 C 0.69981(10) 0.27198(11) 0.8207(2)
O2_4 O 0.71843(9) 0.95866(8) 0.15756(16)
O3_4 O 0.65282(9) 0.98009(7) 0.02282(14)
H6_6 H 0.802583 0.977568 0.336674
C22_6 C 0.74551(13) 0.95807(11) 0.2174(2)
O8_7 O 0.32011(10) 0.12571(8) 0.04339(17)
N1_7 N 0.09468(8) 0.29205(10) 0.08964(19)
N3_7 N 0.16987(8) 0.26297(9) 0.07697(17)
N4_7 N 0.12259(9) 0.23859(10) 0.17968(17)
H1_7 H 0.146322 0.225090 0.197891
H2_7 H 0.044880 0.342999 0.032405
C1_7 C 0.12903(11) 0.26570(12) 0.11368(19)
C2_7 C 0.10316(11) 0.31718(12) 0.0226(2)
C3_7 C 0.17345(11) 0.28949(12) 0.0112(2)
C4_7 C 0.08260(10) 0.22951(12) 0.2224(2)
C5_7 C 0.08503(17) 0.20173(16) 0.2897(3)
H4_7 H 0.113086 0.191557 0.307780
C6_7 C 0.04606(19) 0.18839(19) 0.3319(4)
H5_7 H 0.048182 0.168121 0.375602
C7_7 C 0.00375(17) 0.20545(16) 0.3085(3)
C8_7 C 0.00249(10) 0.23442(12) 0.2426(2)
C9_7 C 0.04020(11) 0.24537(12) 0.2015(2)
H7_7 H 0.037716 0.264725 0.156523
C20_7 C 0.28796(11) 0.19503(11) 0.0016(2)
C21_7 C 0.25455(11) 0.22620(11) 0.0127(2)
H13_7 H 0.236166 0.224200 0.059112
C26_7 C 0.29376(12) 0.15782(12) 0.0623(2)
O5_7 O 0.16085(8) 0.38149(9) 0.75649(15)
O6_7 O 0.23576(8) 0.32444(8) 0.82237(15)
O7_7 O 0.30154(8) 0.30527(8) 0.76932(14)
N2_7 N 0.14152(9) 0.31838(10) 0.98156(18)
N5_7 N 0.06669(9) 0.34188(10) 0.99737(18)
N6_7 N 0.21157(9) 0.29154(10) 0.96495(18)
H3_7 H 0.214302 0.315701 0.935873
C10_7 C 0.05901(11) 0.36529(12) 0.9253(2)
C11_7 C 0.01586(11) 0.38249(12) 0.9085(2)
C12_7 C 0.00968(13) 0.40714(15) 0.8371(3)
C13_7 C 0.04330(13) 0.41367(15) 0.7783(3)
H9_7 H 0.037567 0.429112 0.729359
C14_7 C 0.08589(12) 0.39612(12) 0.7957(2)
C15_7 C 0.09402(12) 0.37332(13) 0.8680(2)
H10_7 H 0.123044 0.363008 0.879373
C16_7 C 0.24735(10) 0.26064(11) 0.9567(2)
C17_7 C 0.27612(10) 0.26474(11) 0.8871(2)
C18_7 C 0.31021(12) 0.23329(13) 0.8777(2)
H11_7 H 0.329749 0.235719 0.832917
C19_7 C 0.31599(14) 0.19826(13) 0.9332(2)
H12_7 H 0.338605 0.176935 0.924773
C24_7 C 0.12493(12) 0.40103(11) 0.7371(3)
C25_7 C 0.27198(11) 0.30019(10) 0.8207(2)
H6_7 H 0.977568 0.197417 0.336674
C22_7 C 0.95807(11) 0.25449(13) 0.2174(2)
H6_8 H 0.022432 0.802583 0.336674
C22_8 C 0.04193(11) 0.74551(13) 0.2174(2)
O8_8 O 0.67989(10) 0.87429(8) 0.04339(17)
N1_8 N 0.90532(8) 0.70795(10) 0.08964(19)
N3_8 N 0.83013(8) 0.73703(9) 0.07697(17)
N4_8 N 0.87741(9) 0.76141(10) 0.17968(17)
H1_8 H 0.853678 0.774910 0.197891
H2_8 H 0.955120 0.657001 0.032405
C1_8 C 0.87097(11) 0.73430(12) 0.11368(19)
C2_8 C 0.89684(11) 0.68282(12) 0.0226(2)
C3_8 C 0.82655(11) 0.71051(12) 0.0112(2)
C4_8 C 0.91740(10) 0.77049(12) 0.2224(2)
C5_8 C 0.91497(17) 0.79827(16) 0.2897(3)
H4_8 H 0.886914 0.808443 0.307780
C6_8 C 0.95394(19) 0.81161(19) 0.3319(4)
H5_8 H 0.951818 0.831879 0.375602
C7_8 C 0.99625(17) 0.79455(16) 0.3085(3)
C8_8 C 0.99751(10) 0.76558(12) 0.2426(2)
C9_8 C 0.95980(11) 0.75463(12) 0.2015(2)
H7_8 H 0.962284 0.735275 0.156523
C20_8 C 0.71204(11) 0.80497(11) 0.0016(2)
C21_8 C 0.74545(11) 0.77380(11) 0.0127(2)
H13_8 H 0.763834 0.775800 0.059112
C26_8 C 0.70624(12) 0.84218(12) 0.0623(2)
O5_8 O 0.83915(8) 0.61851(9) 0.75649(15)
O6_8 O 0.76424(8) 0.67556(8) 0.82237(15)
O7_8 O 0.69846(8) 0.69473(8) 0.76932(14)
N2_8 N 0.85848(9) 0.68162(10) 0.98156(18)
N5_8 N 0.93331(9) 0.65812(10) 0.99737(18)
N6_8 N 0.78843(9) 0.70846(10) 0.96495(18)
H3_8 H 0.785698 0.684299 0.935873
C10_8 C 0.94099(11) 0.63471(12) 0.9253(2)
C11_8 C 0.98414(11) 0.61751(12) 0.9085(2)
C12_8 C 0.99032(13) 0.59286(15) 0.8371(3)
C13_8 C 0.95670(13) 0.58633(15) 0.7783(3)
H9_8 H 0.962433 0.570888 0.729359
C14_8 C 0.91411(12) 0.60388(12) 0.7957(2)
C15_8 C 0.90598(12) 0.62668(13) 0.8680(2)
H10_8 H 0.876956 0.636992 0.879373
C16_8 C 0.75265(10) 0.73936(11) 0.9567(2)
C17_8 C 0.72388(10) 0.73526(11) 0.8871(2)
C18_8 C 0.68979(12) 0.76671(13) 0.8777(2)
H11_8 H 0.670251 0.764281 0.832917
C19_8 C 0.68401(14) 0.80174(13) 0.9332(2)
H12_8 H 0.661395 0.823065 0.924773
C24_8 C 0.87507(12) 0.59897(11) 0.7371(3)
C25_8 C 0.72802(11) 0.69981(10) 0.8207(2)
O4_5 O 0.39431(11) 0.05989(10) 0.9513(2)
H8_5 H 0.420096 0.018495 0.827763
C23_5 C 0.37486(14) 0.02430(12) 0.9647(2)
O4_6 O 0.60569(11) 0.94011(10) 0.9513(2)
H8_6 H 0.579904 0.981505 0.827763
C23_6 C 0.62514(14) 0.97570(12) 0.9647(2)
O4_7 O 0.94011(10) 0.39431(11) 0.9513(2)
H8_7 H 0.981505 0.420096 0.827763
C23_7 C 0.97570(12) 0.37486(14) 0.9647(2)
O4_8 O 0.05989(10) 0.60569(11) 0.9513(2)
H8_8 H 0.018495 0.579904 0.827763
C23_8 C 0.02430(12) 0.62514(14) 0.9647(2)
loop_
_geom_bond_atom_site_label_1
_geom_bond_atom_site_label_2
_geom_bond_site_symmetry_1
_geom_bond_site_symmetry_2
Zn1 O5 1_555 1_555
Zn2 O8 1_555 1_555
O1 C22 1_555 1_555
O2 C22 1_555 1_555
O3 C23 1_555 1_555
O4 C23 1_555 1_555
O5 C24 1_555 1_555
O6 Zn1 1_555 1_555
O7 C25 1_555 1_555
O8 C26 1_555 1_555
N1 C1 1_555 1_555
N2 C2 1_555 1_555
N3 C1 1_555 1_555
N4 H1 1_555 1_555
N5 H2 1_555 1_555
N6 H3 1_555 1_555
O9 C24 1_555 1_555
C1 N4 1_555 1_555
C2 N1 1_555 1_555
C3 N2 1_555 1_555
C4 N4 1_555 1_555
C5 C4 1_555 1_555
H4 C5 1_555 1_555
C6 C5 1_555 1_555
H5 C6 1_555 1_555
C7 C6 1_555 1_555
H6 C7 1_555 1_555
C8 C7 1_555 1_555
C9 C4 1_555 1_555
H7 C9 1_555 1_555
C10 N5 1_555 1_555
O10 C26 1_555 1_555
C11 C10 1_555 1_555
C12 C11 1_555 1_555
H8 C12 1_555 1_555
C13 C12 1_555 1_555
H9 C13 1_555 1_555
C14 C13 1_555 1_555
C15 C10 1_555 1_555
H10 C15 1_555 1_555
C16 N6 1_555 1_555
C17 C16 1_555 1_555
C18 C17 1_555 1_555
H11 C18 1_555 1_555
C19 C18 1_555 1_555
H12 C19 1_555 1_555
C20 C19 1_555 1_555
C21 C16 1_555 1_555
H13 C21 1_555 1_555
C22 C8 1_555 1_555
C23 C11 1_555 1_555
C24 C14 1_555 1_555
C25 O6 1_555 1_555
C26 C20 1_555 1_555
Zn3 O10 1_555 1_555
Zn4 O1 1_555 1_555
Zn5 O2 1_555 1_555
Zn6 O9 1_555 1_555
O11 Zn1 1_555 1_555
O12 Zn2 1_555 1_555
O13 Zn2 1_555 1_555
O14 Zn2 1_555 1_555
O15 Zn1 1_555 1_555
O3 Zn5 1_555 1_555
N3 C3 1_555 1_555
N5 C2 1_555 1_555
N6 C3 1_555 1_555
C8 C9 1_555 1_555
C14 C15 1_555 1_555
C17 C25 1_555 1_555
C20 C21 1_555 1_555
Zn1_2 O5_2 1_555 1_555
Zn2_2 O8_2 1_555 1_555
O1_2 C22_2 1_555 1_555
O2_2 C22_2 1_555 1_555
O3_2 C23_2 1_555 1_555
O4_2 C23_2 1_555 1_555
O5_2 C24_2 1_555 1_555
O6_2 Zn1_2 1_555 1_555
O7_2 C25_2 1_555 1_555
O8_2 C26_2 1_555 1_555
N1_2 C1_2 1_555 1_555
N2_2 C2_2 1_555 1_555
N3_2 C1_2 1_555 1_555
N4_2 H1_2 1_555 1_555
N5_2 H2_2 1_555 1_555
N6_2 H3_2 1_555 1_555
O9_2 C24_2 1_555 1_555
C1_2 N4_2 1_555 1_555
C2_2 N1_2 1_555 1_555
C3_2 N2_2 1_555 1_555
C4_2 N4_2 1_555 1_555
C5_2 C4_2 1_555 1_555
H4_2 C5_2 1_555 1_555
C6_2 C5_2 1_555 1_555
H5_2 C6_2 1_555 1_555
C7_2 C6_2 1_555 1_555
H6_2 C7_2 1_555 1_555
C8_2 C7_2 1_555 1_555
C9_2 C4_2 1_555 1_555
H7_2 C9_2 1_555 1_555
C10_2 N5_2 1_555 1_555
O10_2 C26_2 1_555 1_555
C11_2 C10_2 1_555 1_555
C12_2 C11_2 1_555 1_555
H8_2 C12_2 1_555 1_555
C13_2 C12_2 1_555 1_555
H9_2 C13_2 1_555 1_555
C14_2 C13_2 1_555 1_555
C15_2 C10_2 1_555 1_555
H10_2 C15_2 1_555 1_555
C16_2 N6_2 1_555 1_555
C17_2 C16_2 1_555 1_555
C18_2 C17_2 1_555 1_555
H11_2 C18_2 1_555 1_555
C19_2 C18_2 1_555 1_555
H12_2 C19_2 1_555 1_555
C20_2 C19_2 1_555 1_555
C21_2 C16_2 1_555 1_555
H13_2 C21_2 1_555 1_555
C22_2 C8_2 1_555 1_555
C23_2 C11_2 1_555 1_555
C24_2 C14_2 1_555 1_555
C25_2 O6_2 1_555 1_555
C26_2 C20_2 1_555 1_555
Zn3_2 O10_2 1_555 1_555
Zn4_2 O1_2 1_555 1_555
Zn5_2 O2_2 1_555 1_555
Zn6_2 O9_2 1_555 1_555
O11_2 Zn1_2 1_555 1_555
O12_2 Zn2_2 1_555 1_555
O13_2 Zn2_2 1_555 1_555
O14_2 Zn2_2 1_555 1_555
O15_2 Zn1_2 1_555 1_555
O3_2 Zn5_2 1_555 1_555
N3_2 C3_2 1_555 1_555
N5_2 C2_2 1_555 1_555
N6_2 C3_2 1_555 1_555
C8_2 C9_2 1_555 1_555
C14_2 C15_2 1_555 1_555
C17_2 C25_2 1_555 1_555
C20_2 C21_2 1_555 1_555
Zn1_3 O5_3 1_555 1_555
Zn5 O8_3 1_555 1_555
O1_3 C22_3 1_555 1_555
O12_2 C22_3 1_555 1_555
O13_2 C23_3 1_555 1_555
O4_3 C23_3 1_555 1_555
O5_3 C24_3 1_555 1_555
O6_3 Zn1_3 1_555 1_555
O7_3 C25_3 1_555 1_555
O8_3 C26_3 1_555 1_555
N1_3 C1_3 1_555 1_555
N2_3 C2_3 1_555 1_555
N3_3 C1_3 1_555 1_555
N4_3 H1_3 1_555 1_555
N5_3 H2_3 1_555 1_555
N6_3 H3_3 1_555 1_555
O9_3 C24_3 1_555 1_555
C1_3 N4_3 1_555 1_555
C2_3 N1_3 1_555 1_555
C3_3 N2_3 1_555 1_555
C4_3 N4_3 1_555 1_555
C5_3 C4_3 1_555 1_555
H4_3 C5_3 1_555 1_555
C6_3 C5_3 1_555 1_555
H5_3 C6_3 1_555 1_555
C7_3 C6_3 1_555 1_555
H6_3 C7_3 1_555 1_555
C8_3 C7_3 1_555 1_555
C9_3 C4_3 1_555 1_555
H7_3 C9_3 1_555 1_555
C10_3 N5_3 1_555 1_555
O10_3 C26_3 1_555 1_555
C11_3 C10_3 1_555 1_555
C12_3 C11_3 1_555 1_555
H8_3 C12_3 1_555 1_555
C13_3 C12_3 1_555 1_555
H9_3 C13_3 1_555 1_555
C14_3 C13_3 1_555 1_555
C15_3 C10_3 1_555 1_555
H10_3 C15_3 1_555 1_555
C16_3 N6_3 1_555 1_555
C17_3 C16_3 1_555 1_555
C18_3 C17_3 1_555 1_555
H11_3 C18_3 1_555 1_555
C19_3 C18_3 1_555 1_555
H12_3 C19_3 1_555 1_555
C20_3 C19_3 1_555 1_555
C21_3 C16_3 1_555 1_555
H13_3 C21_3 1_555 1_555
C22_3 C8_3 1_555 1_555
C23_3 C11_3 1_555 1_555
C24_3 C14_3 1_555 1_555
C25_3 O6_3 1_555 1_555
C26_3 C20_3 1_555 1_555
Zn4 O10_3 1_555 1_555
Zn3_2 O1_3 1_555 1_555
Zn6_3 O9_3 1_555 1_555
O11_3 Zn1_3 1_555 1_555
O14_3 Zn5 1_555 1_555
O15_3 Zn1_3 1_555 1_555
N3_3 C3_3 1_555 1_555
N5_3 C2_3 1_555 1_555
N6_3 C3_3 1_555 1_555
C8_3 C9_3 1_555 1_555
C14_3 C15_3 1_555 1_555
C17_3 C25_3 1_555 1_555
C20_3 C21_3 1_555 1_555
Zn1_4 O5_4 1_555 1_555
Zn5_2 O8_4 1_555 1_555
O1_4 C22_4 1_555 1_555
O12 C22_4 1_555 1_555
O13 C23_4 1_555 1_555
O4_4 C23_4 1_555 1_555
O5_4 C24_4 1_555 1_555
O6_4 Zn1_4 1_555 1_555
O7_4 C25_4 1_555 1_555
O8_4 C26_4 1_555 1_555
N1_4 C1_4 1_555 1_555
N2_4 C2_4 1_555 1_555
N3_4 C1_4 1_555 1_555
N4_4 H1_4 1_555 1_555
N5_4 H2_4 1_555 1_555
N6_4 H3_4 1_555 1_555
O9_4 C24_4 1_555 1_555
C1_4 N4_4 1_555 1_555
C2_4 N1_4 1_555 1_555
C3_4 N2_4 1_555 1_555
C4_4 N4_4 1_555 1_555
C5_4 C4_4 1_555 1_555
H4_4 C5_4 1_555 1_555
C6_4 C5_4 1_555 1_555
H5_4 C6_4 1_555 1_555
C7_4 C6_4 1_555 1_555
H6_4 C7_4 1_555 1_555
C8_4 C7_4 1_555 1_555
C9_4 C4_4 1_555 1_555
H7_4 C9_4 1_555 1_555
C10_4 N5_4 1_555 1_555
O10_4 C26_4 1_555 1_555
C11_4 C10_4 1_555 1_555
C12_4 C11_4 1_555 1_555
H8_4 C12_4 1_555 1_555
C13_4 C12_4 1_555 1_555
H9_4 C13_4 1_555 1_555
C14_4 C13_4 1_555 1_555
C15_4 C10_4 1_555 1_555
H10_4 C15_4 1_555 1_555
C16_4 N6_4 1_555 1_555
C17_4 C16_4 1_555 1_555
C18_4 C17_4 1_555 1_555
H11_4 C18_4 1_555 1_555
C19_4 C18_4 1_555 1_555
H12_4 C19_4 1_555 1_555
C20_4 C19_4 1_555 1_555
C21_4 C16_4 1_555 1_555
H13_4 C21_4 1_555 1_555
C22_4 C8_4 1_555 1_555
C23_4 C11_4 1_555 1_555
C24_4 C14_4 1_555 1_555
C25_4 O6_4 1_555 1_555
C26_4 C20_4 1_555 1_555
Zn4_2 O10_4 1_555 1_555
Zn3 O1_4 1_555 1_555
Zn6_4 O9_4 1_555 1_555
O11_4 Zn1_4 1_555 1_555
O14_4 Zn5_2 1_555 1_555
O15_4 Zn1_4 1_555 1_555
N3_4 C3_4 1_555 1_555
N5_4 C2_4 1_555 1_555
N6_4 C3_4 1_555 1_555
C8_4 C9_4 1_555 1_555
C14_4 C15_4 1_555 1_555
C17_4 C25_4 1_555 1_555
C20_4 C21_4 1_555 1_555
O11_4 C22_5 1_555 1_555
O2_3 C22_5 1_555 1_555
Zn6_4 O2_3 1_555 1_555
O3_3 Zn6_4 1_555 1_555
Zn6_2 O8_5 1_555 1_555
O8_5 C26_5 1_555 1_555
N1_5 C1_5 1_555 1_555
N3_5 C1_5 1_555 1_555
N4_5 H1_5 1_555 1_555
C1_5 N4_5 1_555 1_555
C2_5 N1_5 1_555 1_555
C4_5 N4_5 1_555 1_555
C5_5 C4_5 1_555 1_555
H4_5 C5_5 1_555 1_555
C6_5 C5_5 1_555 1_555
H5_5 C6_5 1_555 1_555
C7_5 C6_5 1_555 1_555
C8_5 C7_5 1_555 1_555
C9_5 C4_5 1_555 1_555
H7_5 C9_5 1_555 1_555
O15_2 C26_5 1_555 1_555
H13_5 C21_5 1_555 1_555
C26_5 C20_5 1_555 1_555
O12_3 Zn6_2 1_555 1_555
O13_3 Zn6_2 1_555 1_555
N3_5 C3_5 1_555 1_555
C8_5 C9_5 1_555 1_555
C20_5 C21_5 1_555 1_555
Zn3_2 O5_5 1_555 1_555
O5_5 C24_5 1_555 1_555
O6_5 Zn3_2 1_555 1_555
O7_5 C25_5 1_555 1_555
N6_5 H3_5 1_555 1_555
O14_2 C24_5 1_555 1_555
C10_5 N5_5 1_555 1_555
C11_5 C10_5 1_555 1_555
C12_5 C11_5 1_555 1_555
C13_5 C12_5 1_555 1_555
H9_5 C13_5 1_555 1_555
C14_5 C13_5 1_555 1_555
C15_5 C10_5 1_555 1_555
H10_5 C15_5 1_555 1_555
C16_5 N6_5 1_555 1_555
C17_5 C16_5 1_555 1_555
C18_5 C17_5 1_555 1_555
H11_5 C18_5 1_555 1_555
C19_5 C18_5 1_555 1_555
H12_5 C19_5 1_555 1_555
C24_5 C14_5 1_555 1_555
C25_5 O6_5 1_555 1_555
C14_5 C15_5 1_555 1_555
C17_5 C25_5 1_555 1_555
Zn6 O8_6 1_555 1_555
O8_6 C26_6 1_555 1_555
N1_6 C1_6 1_555 1_555
N3_6 C1_6 1_555 1_555
N4_6 H1_6 1_555 1_555
C1_6 N4_6 1_555 1_555
C2_6 N1_6 1_555 1_555
C4_6 N4_6 1_555 1_555
C5_6 C4_6 1_555 1_555
H4_6 C5_6 1_555 1_555
C6_6 C5_6 1_555 1_555
H5_6 C6_6 1_555 1_555
C7_6 C6_6 1_555 1_555
C8_6 C7_6 1_555 1_555
C9_6 C4_6 1_555 1_555
H7_6 C9_6 1_555 1_555
O15 C26_6 1_555 1_555
H13_6 C21_6 1_555 1_555
C26_6 C20_6 1_555 1_555
O12_4 Zn6 1_555 1_555
O13_4 Zn6 1_555 1_555
N3_6 C3_6 1_555 1_555
C8_6 C9_6 1_555 1_555
C20_6 C21_6 1_555 1_555
Zn3 O5_6 1_555 1_555
O5_6 C24_6 1_555 1_555
O6_6 Zn3 1_555 1_555
O7_6 C25_6 1_555 1_555
N6_6 H3_6 1_555 1_555
O14 C24_6 1_555 1_555
C10_6 N5_6 1_555 1_555
C11_6 C10_6 1_555 1_555
C12_6 C11_6 1_555 1_555
C13_6 C12_6 1_555 1_555
H9_6 C13_6 1_555 1_555
C14_6 C13_6 1_555 1_555
C15_6 C10_6 1_555 1_555
H10_6 C15_6 1_555 1_555
C16_6 N6_6 1_555 1_555
C17_6 C16_6 1_555 1_555
C18_6 C17_6 1_555 1_555
H11_6 C18_6 1_555 1_555
C19_6 C18_6 1_555 1_555
H12_6 C19_6 1_555 1_555
C24_6 C14_6 1_555 1_555
C25_6 O6_6 1_555 1_555
C14_6 C15_6 1_555 1_555
C17_6 C25_6 1_555 1_555
O11_3 C22_6 1_555 1_555
O2_4 C22_6 1_555 1_555
Zn6_3 O2_4 1_555 1_555
O3_4 Zn6_3 1_555 1_555
Zn6_4 O8_7 1_555 1_555
O8_7 C26_7 1_555 1_555
N1_7 C1_7 1_555 1_555
N3_7 C1_7 1_555 1_555
N4_7 H1_7 1_555 1_555
C1_7 N4_7 1_555 1_555
C2_7 N1_7 1_555 1_555
C4_7 N4_7 1_555 1_555
C5_7 C4_7 1_555 1_555
H4_7 C5_7 1_555 1_555
C6_7 C5_7 1_555 1_555
H5_7 C6_7 1_555 1_555
C7_7 C6_7 1_555 1_555
C8_7 C7_7 1_555 1_555
C9_7 C4_7 1_555 1_555
H7_7 C9_7 1_555 1_555
O15_4 C26_7 1_555 1_555
H13_7 C21_7 1_555 1_555
C26_7 C20_7 1_555 1_555
N3_7 C3_7 1_555 1_555
C8_7 C9_7 1_555 1_555
C20_7 C21_7 1_555 1_555
Zn4_2 O5_7 1_555 1_555
O5_7 C24_7 1_555 1_555
O6_7 Zn4_2 1_555 1_555
O7_7 C25_7 1_555 1_555
N6_7 H3_7 1_555 1_555
O14_4 C24_7 1_555 1_555
C10_7 N5_7 1_555 1_555
C11_7 C10_7 1_555 1_555
C12_7 C11_7 1_555 1_555
C13_7 C12_7 1_555 1_555
H9_7 C13_7 1_555 1_555
C14_7 C13_7 1_555 1_555
C15_7 C10_7 1_555 1_555
H10_7 C15_7 1_555 1_555
C16_7 N6_7 1_555 1_555
C17_7 C16_7 1_555 1_555
C18_7 C17_7 1_555 1_555
H11_7 C18_7 1_555 1_555
C19_7 C18_7 1_555 1_555
H12_7 C19_7 1_555 1_555
C24_7 C14_7 1_555 1_555
C25_7 O6_7 1_555 1_555
C14_7 C15_7 1_555 1_555
C17_7 C25_7 1_555 1_555
O11 C22_7 1_555 1_555
O12_4 C22_7 1_555 1_555
O11_2 C22_8 1_555 1_555
O12_3 C22_8 1_555 1_555
Zn6_3 O8_8 1_555 1_555
O8_8 C26_8 1_555 1_555
N1_8 C1_8 1_555 1_555
N3_8 C1_8 1_555 1_555
N4_8 H1_8 1_555 1_555
C1_8 N4_8 1_555 1_555
C2_8 N1_8 1_555 1_555
C4_8 N4_8 1_555 1_555
C5_8 C4_8 1_555 1_555
H4_8 C5_8 1_555 1_555
C6_8 C5_8 1_555 1_555
H5_8 C6_8 1_555 1_555
C7_8 C6_8 1_555 1_555
C8_8 C7_8 1_555 1_555
C9_8 C4_8 1_555 1_555
H7_8 C9_8 1_555 1_555
O15_3 C26_8 1_555 1_555
H13_8 C21_8 1_555 1_555
C26_8 C20_8 1_555 1_555
N3_8 C3_8 1_555 1_555
C8_8 C9_8 1_555 1_555
C20_8 C21_8 1_555 1_555
Zn4 O5_8 1_555 1_555
O5_8 C24_8 1_555 1_555
O6_8 Zn4 1_555 1_555
O7_8 C25_8 1_555 1_555
N6_8 H3_8 1_555 1_555
O14_3 C24_8 1_555 1_555
C10_8 N5_8 1_555 1_555
C11_8 C10_8 1_555 1_555
C12_8 C11_8 1_555 1_555
C13_8 C12_8 1_555 1_555
H9_8 C13_8 1_555 1_555
C14_8 C13_8 1_555 1_555
C15_8 C10_8 1_555 1_555
H10_8 C15_8 1_555 1_555
C16_8 N6_8 1_555 1_555
C17_8 C16_8 1_555 1_555
C18_8 C17_8 1_555 1_555
H11_8 C18_8 1_555 1_555
C19_8 C18_8 1_555 1_555
H12_8 C19_8 1_555 1_555
C24_8 C14_8 1_555 1_555
C25_8 O6_8 1_555 1_555
C14_8 C15_8 1_555 1_555
C17_8 C25_8 1_555 1_555
O4_5 C23_5 1_555 1_555
O4_6 C23_6 1_555 1_555
O4_7 C23_7 1_555 1_555
O4_8 C23_8 1_555 1_555

#END
