
###############################################################################
#
# This file contains modified crystal structure data generated from the
# MOF subset of the Cambridge Structural Database (CSD) v543 
# hosted by the Cambridge Crystallographic Data Centre (CCDC).
#
# This work is licensed under the Creative Commons
# Attribution-NonCommercial-ShareAlike 4.0 International License.
# To view a copy of this license, visit
# http://creativecommons.org/licenses/by-nc-sa/4.0/
# or send a letter to
# Creative Commons, PO Box 1866, Mountain View, CA 94042, USA.
#
# CIF created using the CSD Python API on 29 September 2022
# The structure has been converted into the P1 space group
# The structure has a 3D framework
# The original CSD entry TAQTUE is in the tetragonal crystal system
# The original CSD entry TAQTUE is in a Sohncke space group
# The framework has been calculated to contain at least 10.0% void space
# The void calculation uses a probe of radius 1.32A, grid spacing 0.4
# The framework is charged, counterions have been retained in the structure
#
###############################################################################

data_TAQTUE
_chemical_formula_moiety         '(C208 H120 N48 O88 Zn16 8-)n'
_symmetry_cell_setting           triclinic
_symmetry_space_group_name_H-M   'P 1'
_symmetry_Int_Tables_number      1
_space_group_name_Hall           'P 1'
loop_
_symmetry_equiv_pos_site_id
_symmetry_equiv_pos_as_xyz
1 x,y,z
_cell_length_a                   30.530(3)
_cell_length_b                   30.530(3)
_cell_length_c                   14.607(3)
_cell_angle_alpha                90
_cell_angle_beta                 90
_cell_angle_gamma                90
_cell_volume                     13614.9
loop_
_atom_site_label
_atom_site_type_symbol
_atom_site_fract_x
_atom_site_fract_y
_atom_site_fract_z
Zn1 Zn 0.76471(4) 0.37673(4) 0.2274(2)
Zn2 Zn 0.43691(4) 0.18586(4) 0.3919(2)
O1 O 0.7626(3) 0.3475(3) 0.3458(8)
O2 O 0.4618(2) 0.2299(3) 0.3081(7)
O3 O 0.4885(2) 0.1597(3) 0.4519(7)
O4 O 0.8106(3) 0.1833(2) 0.6866(7)
O5 O 0.6379(3) 0.0682(3) 0.7994(8)
O6 O 0.7408(3) 0.1674(3) 0.6380(7)
O7 O 0.4281(3) 0.2726(3) 0.2055(7)
N1 N 0.6687(3) 0.2457(4) 0.3878(11)
O8 O 0.6740(3) 0.1082(3) 0.6967(7)
O9 O 0.8181(3) 0.3743(3) 0.4287(8)
N2 N 0.5955(3) 0.2169(4) 0.3718(10)
N3 N 0.6210(3) 0.2759(4) 0.2896(9)
H1 H 0.643769 0.292575 0.277804
N4 N 0.6456(4) 0.1856(4) 0.4817(9)
N5 N 0.7127(4) 0.2088(3) 0.4950(9)
H2 H 0.715267 0.183232 0.522423
C1 C 0.6033(5) 0.1217(4) 0.5956(13)
H3 H 0.631859 0.132199 0.581928
C2 C 0.7539(4) 0.2777(4) 0.4498(10)
H4 H 0.733903 0.282697 0.401031
C3 C 0.6283(5) 0.2461(5) 0.3457(12)
N6 N 0.5730(3) 0.1625(4) 0.4632(9)
H5 H 0.550051 0.162329 0.426867
C4 C 0.5703(5) 0.1355(5) 0.5348(14)
O10 O 0.4513(3) 0.1150(3) 0.5435(10)
C5 C 0.7801(4) 0.2301(4) 0.5696(11)
C6 C 0.6008(5) 0.0971(5) 0.6661(14)
C7 C 0.5267(4) 0.1193(5) 0.5645(12)
C8 C 0.7869(5) 0.3065(4) 0.4681(12)
C9 C 0.6748(5) 0.2154(5) 0.4472(12)
C10 C 0.6056(5) 0.1905(5) 0.4371(12)
C11 C 0.5415(4) 0.2678(4) 0.2651(10)
H6 H 0.540307 0.245306 0.309903
C12 C 0.7798(4) 0.1924(5) 0.6291(12)
C13 C 0.5013(4) 0.2825(4) 0.2194(12)
C14 C 0.8184(5) 0.2983(5) 0.5272(11)
H7 H 0.842374 0.317976 0.532887
C15 C 0.5827(5) 0.2877(5) 0.2416(12)
C16 C 0.7504(4) 0.2397(4) 0.5064(10)
C17 C 0.4850(5) 0.1334(5) 0.5101(12)
C18 C 0.6400(4) 0.0880(4) 0.7318(13)
C19 C 0.4633(4) 0.2590(4) 0.2461(10)
C20 C 0.5570(5) 0.0779(5) 0.6968(12)
H8 H 0.554327 0.058940 0.747963
C21 C 0.8167(4) 0.2598(5) 0.5829(11)
H9 H 0.838789 0.253829 0.627053
C22 C 0.7885(5) 0.3448(6) 0.4067(14)
C23 C 0.5217(6) 0.0905(5) 0.6438(14)
H10 H 0.493342 0.080072 0.659331
C24 C 0.5837(5) 0.3182(6) 0.1809(14)
H11 H 0.610262 0.333655 0.169939
C25 C 0.5471(7) 0.3287(6) 0.1320(19)
H12 H 0.550167 0.349086 0.083394
C26 C 0.5040(7) 0.3108(7) 0.1490(15)
H13 H 0.479233 0.318536 0.113068
O11 O 0.4424(4) 0.2382(4) 0.4957(8)
H14 H 0.4115(4) 0.2431(13) 0.491(3)
H15 H 0.4551(16) 0.2608(8) 0.4587(13)
Zn3 Zn 0.37673(4) 0.23529(4) 0.2274(2)
Zn4 Zn 0.73529(4) 0.12327(4) 0.7274(2)
Zn5 Zn 0.81414(4) 0.43691(4) 0.3919(2)
Zn6 Zn 0.68586(4) 0.06309(4) 0.8919(2)
O12 O 0.4318(3) 0.1379(3) 0.2994(8)
O13 O 0.7592(3) 0.3326(3) 0.1380(7)
O14 O 0.7274(3) 0.4281(3) 0.2055(7)
O15 O 0.8260(3) 0.3918(3) 0.1967(7)
O16 O 0.3743(3) 0.1819(3) 0.4287(8)
Zn1_2 Zn 0.23529(4) 0.62327(4) 0.2274(2)
Zn2_2 Zn 0.56309(4) 0.81414(4) 0.3919(2)
O1_2 O 0.2374(3) 0.6525(3) 0.3458(8)
O2_2 O 0.5382(2) 0.7701(3) 0.3081(7)
O3_2 O 0.5115(2) 0.8403(3) 0.4519(7)
O4_2 O 0.1894(3) 0.8167(2) 0.6866(7)
O5_2 O 0.3621(3) 0.9318(3) 0.7994(8)
O6_2 O 0.2592(3) 0.8326(3) 0.6380(7)
O7_2 O 0.5719(3) 0.7274(3) 0.2055(7)
N1_2 N 0.3313(3) 0.7543(4) 0.3878(11)
O8_2 O 0.3260(3) 0.8918(3) 0.6967(7)
O9_2 O 0.1819(3) 0.6257(3) 0.4287(8)
N2_2 N 0.4045(3) 0.7831(4) 0.3718(10)
N3_2 N 0.3790(3) 0.7241(4) 0.2896(9)
H1_2 H 0.356231 0.707425 0.277804
N4_2 N 0.3544(4) 0.8144(4) 0.4817(9)
N5_2 N 0.2873(4) 0.7912(3) 0.4950(9)
H2_2 H 0.284733 0.816768 0.522423
C1_2 C 0.3967(5) 0.8783(4) 0.5956(13)
H3_2 H 0.368141 0.867801 0.581928
C2_2 C 0.2461(4) 0.7223(4) 0.4498(10)
H4_2 H 0.266097 0.717303 0.401031
C3_2 C 0.3717(5) 0.7539(5) 0.3457(12)
N6_2 N 0.4270(3) 0.8375(4) 0.4632(9)
H5_2 H 0.449949 0.837671 0.426867
C4_2 C 0.4297(5) 0.8645(5) 0.5348(14)
O10_2 O 0.5487(3) 0.8850(3) 0.5435(10)
C5_2 C 0.2199(4) 0.7699(4) 0.5696(11)
C6_2 C 0.3992(5) 0.9029(5) 0.6661(14)
C7_2 C 0.4733(4) 0.8807(5) 0.5645(12)
C8_2 C 0.2131(5) 0.6935(4) 0.4681(12)
C9_2 C 0.3252(5) 0.7846(5) 0.4472(12)
C10_2 C 0.3944(5) 0.8095(5) 0.4371(12)
C11_2 C 0.4585(4) 0.7322(4) 0.2651(10)
H6_2 H 0.459693 0.754694 0.309903
C12_2 C 0.2202(4) 0.8076(5) 0.6291(12)
C13_2 C 0.4987(4) 0.7175(4) 0.2194(12)
C14_2 C 0.1816(5) 0.7017(5) 0.5272(11)
H7_2 H 0.157626 0.682024 0.532887
C15_2 C 0.4173(5) 0.7123(5) 0.2416(12)
C16_2 C 0.2496(4) 0.7603(4) 0.5064(10)
C17_2 C 0.5150(5) 0.8666(5) 0.5101(12)
C18_2 C 0.3600(4) 0.9120(4) 0.7318(13)
C19_2 C 0.5367(4) 0.7410(4) 0.2461(10)
C20_2 C 0.4430(5) 0.9221(5) 0.6968(12)
H8_2 H 0.445673 0.941060 0.747963
C21_2 C 0.1833(4) 0.7402(5) 0.5829(11)
H9_2 H 0.161211 0.746171 0.627053
C22_2 C 0.2115(5) 0.6552(6) 0.4067(14)
C23_2 C 0.4783(6) 0.9095(5) 0.6438(14)
H10_2 H 0.506658 0.919928 0.659331
C24_2 C 0.4163(5) 0.6818(6) 0.1809(14)
H11_2 H 0.389738 0.666345 0.169939
C25_2 C 0.4529(7) 0.6713(6) 0.1320(19)
H12_2 H 0.449833 0.650914 0.083394
C26_2 C 0.4960(7) 0.6892(7) 0.1490(15)
H13_2 H 0.520767 0.681464 0.113068
O11_2 O 0.5576(4) 0.7618(4) 0.4957(8)
H14_2 H 0.5885(4) 0.7569(13) 0.491(3)
H15_2 H 0.5449(16) 0.7392(8) 0.4587(13)
Zn3_2 Zn 0.62327(4) 0.76471(4) 0.2274(2)
Zn4_2 Zn 0.26471(4) 0.87673(4) 0.7274(2)
Zn5_2 Zn 0.18586(4) 0.56309(4) 0.3919(2)
Zn6_2 Zn 0.31414(4) 0.93691(4) 0.8919(2)
O12_2 O 0.5682(3) 0.8621(3) 0.2994(8)
O13_2 O 0.2408(3) 0.6674(3) 0.1380(7)
O14_2 O 0.2726(3) 0.5719(3) 0.2055(7)
O15_2 O 0.1740(3) 0.6082(3) 0.1967(7)
O16_2 O 0.6257(3) 0.8181(3) 0.4287(8)
O1_3 O 0.6525(3) 0.7626(3) 0.3458(8)
O2_3 O 0.7701(3) 0.4618(2) 0.3081(7)
O3_3 O 0.8403(3) 0.4885(2) 0.4519(7)
O4_3 O 0.8167(2) 0.8106(3) 0.6866(7)
O5_3 O 0.9318(3) 0.6379(3) 0.7994(8)
O6_3 O 0.8326(3) 0.7408(3) 0.6380(7)
N1_3 N 0.7543(4) 0.6687(3) 0.3878(11)
O8_3 O 0.8918(3) 0.6740(3) 0.6967(7)
N2_3 N 0.7831(4) 0.5955(3) 0.3718(10)
N3_3 N 0.7241(4) 0.6210(3) 0.2896(9)
H1_3 H 0.707425 0.643769 0.277804
N4_3 N 0.8144(4) 0.6456(4) 0.4817(9)
N5_3 N 0.7912(3) 0.7127(4) 0.4950(9)
H2_3 H 0.816768 0.715267 0.522423
C1_3 C 0.8783(4) 0.6033(5) 0.5956(13)
H3_3 H 0.867801 0.631859 0.581928
C2_3 C 0.7223(4) 0.7539(4) 0.4498(10)
H4_3 H 0.717303 0.733903 0.401031
C3_3 C 0.7539(5) 0.6283(5) 0.3457(12)
N6_3 N 0.8375(4) 0.5730(3) 0.4632(9)
H5_3 H 0.837671 0.550051 0.426867
C4_3 C 0.8645(5) 0.5703(5) 0.5348(14)
O10_3 O 0.8850(3) 0.4513(3) 0.5435(10)
C5_3 C 0.7699(4) 0.7801(4) 0.5696(11)
C6_3 C 0.9029(5) 0.6008(5) 0.6661(14)
C7_3 C 0.8807(5) 0.5267(4) 0.5645(12)
C8_3 C 0.6935(4) 0.7869(5) 0.4681(12)
C9_3 C 0.7846(5) 0.6748(5) 0.4472(12)
C10_3 C 0.8095(5) 0.6056(5) 0.4371(12)
C11_3 C 0.7322(4) 0.5415(4) 0.2651(10)
H6_3 H 0.754694 0.540307 0.309903
C12_3 C 0.8076(5) 0.7798(4) 0.6291(12)
C13_3 C 0.7175(4) 0.5013(4) 0.2194(12)
C14_3 C 0.7017(5) 0.8184(5) 0.5272(11)
H7_3 H 0.682024 0.842374 0.532887
C15_3 C 0.7123(5) 0.5827(5) 0.2416(12)
C16_3 C 0.7603(4) 0.7504(4) 0.5064(10)
C17_3 C 0.8666(5) 0.4850(5) 0.5101(12)
C18_3 C 0.9120(4) 0.6400(4) 0.7318(13)
C19_3 C 0.7410(4) 0.4633(4) 0.2461(10)
C20_3 C 0.9221(5) 0.5570(5) 0.6968(12)
H8_3 H 0.941060 0.554327 0.747963
C21_3 C 0.7402(5) 0.8167(4) 0.5829(11)
H9_3 H 0.746171 0.838789 0.627053
C22_3 C 0.6552(6) 0.7885(5) 0.4067(14)
C23_3 C 0.9095(5) 0.5217(6) 0.6438(14)
H10_3 H 0.919928 0.493342 0.659331
C24_3 C 0.6818(6) 0.5837(5) 0.1809(14)
H11_3 H 0.666345 0.610262 0.169939
C25_3 C 0.6713(6) 0.5471(7) 0.1320(19)
H12_3 H 0.650914 0.550167 0.083394
C26_3 C 0.6892(7) 0.5040(7) 0.1490(15)
H13_3 H 0.681464 0.479233 0.113068
O11_3 O 0.7618(4) 0.4424(4) 0.4957(8)
H14_3 H 0.7569(13) 0.4115(4) 0.491(3)
H15_3 H 0.7392(8) 0.4551(16) 0.4587(13)
Zn4_3 Zn 0.87673(4) 0.73529(4) 0.7274(2)
Zn6_3 Zn 0.93691(4) 0.68586(4) 0.8919(2)
O12_3 O 0.8621(3) 0.4318(3) 0.2994(8)
O13_3 O 0.6674(3) 0.7592(3) 0.1380(7)
O15_3 O 0.6082(3) 0.8260(3) 0.1967(7)
O1_4 O 0.3475(3) 0.2374(3) 0.3458(8)
O2_4 O 0.2299(3) 0.5382(2) 0.3081(7)
O3_4 O 0.1597(3) 0.5115(2) 0.4519(7)
O4_4 O 0.1833(2) 0.1894(3) 0.6866(7)
O5_4 O 0.0682(3) 0.3621(3) 0.7994(8)
O6_4 O 0.1674(3) 0.2592(3) 0.6380(7)
N1_4 N 0.2457(4) 0.3313(3) 0.3878(11)
O8_4 O 0.1082(3) 0.3260(3) 0.6967(7)
N2_4 N 0.2169(4) 0.4045(3) 0.3718(10)
N3_4 N 0.2759(4) 0.3790(3) 0.2896(9)
H1_4 H 0.292575 0.356231 0.277804
N4_4 N 0.1856(4) 0.3544(4) 0.4817(9)
N5_4 N 0.2088(3) 0.2873(4) 0.4950(9)
H2_4 H 0.183232 0.284733 0.522423
C1_4 C 0.1217(4) 0.3967(5) 0.5956(13)
H3_4 H 0.132199 0.368141 0.581928
C2_4 C 0.2777(4) 0.2461(4) 0.4498(10)
H4_4 H 0.282697 0.266097 0.401031
C3_4 C 0.2461(5) 0.3717(5) 0.3457(12)
N6_4 N 0.1625(4) 0.4270(3) 0.4632(9)
H5_4 H 0.162329 0.449949 0.426867
C4_4 C 0.1355(5) 0.4297(5) 0.5348(14)
O10_4 O 0.1150(3) 0.5487(3) 0.5435(10)
C5_4 C 0.2301(4) 0.2199(4) 0.5696(11)
C6_4 C 0.0971(5) 0.3992(5) 0.6661(14)
C7_4 C 0.1193(5) 0.4733(4) 0.5645(12)
C8_4 C 0.3065(4) 0.2131(5) 0.4681(12)
C9_4 C 0.2154(5) 0.3252(5) 0.4472(12)
C10_4 C 0.1905(5) 0.3944(5) 0.4371(12)
C11_4 C 0.2678(4) 0.4585(4) 0.2651(10)
H6_4 H 0.245306 0.459693 0.309903
C12_4 C 0.1924(5) 0.2202(4) 0.6291(12)
C13_4 C 0.2825(4) 0.4987(4) 0.2194(12)
C14_4 C 0.2983(5) 0.1816(5) 0.5272(11)
H7_4 H 0.317976 0.157626 0.532887
C15_4 C 0.2877(5) 0.4173(5) 0.2416(12)
C16_4 C 0.2397(4) 0.2496(4) 0.5064(10)
C17_4 C 0.1334(5) 0.5150(5) 0.5101(12)
C18_4 C 0.0880(4) 0.3600(4) 0.7318(13)
C19_4 C 0.2590(4) 0.5367(4) 0.2461(10)
C20_4 C 0.0779(5) 0.4430(5) 0.6968(12)
H8_4 H 0.058940 0.445673 0.747963
C21_4 C 0.2598(5) 0.1833(4) 0.5829(11)
H9_4 H 0.253829 0.161211 0.627053
C22_4 C 0.3448(6) 0.2115(5) 0.4067(14)
C23_4 C 0.0905(5) 0.4783(6) 0.6438(14)
H10_4 H 0.080072 0.506658 0.659331
C24_4 C 0.3182(6) 0.4163(5) 0.1809(14)
H11_4 H 0.333655 0.389738 0.169939
C25_4 C 0.3287(6) 0.4529(7) 0.1320(19)
H12_4 H 0.349086 0.449833 0.083394
C26_4 C 0.3108(7) 0.4960(7) 0.1490(15)
H13_4 H 0.318536 0.520767 0.113068
O11_4 O 0.2382(4) 0.5576(4) 0.4957(8)
H14_4 H 0.2431(13) 0.5885(4) 0.491(3)
H15_4 H 0.2608(8) 0.5449(16) 0.4587(13)
Zn4_4 Zn 0.12327(4) 0.26471(4) 0.7274(2)
Zn6_4 Zn 0.06309(4) 0.31414(4) 0.8919(2)
O12_4 O 0.1379(3) 0.5682(3) 0.2994(8)
O13_4 O 0.3326(3) 0.2408(3) 0.1380(7)
O15_4 O 0.3918(3) 0.1740(3) 0.1967(7)
O4_5 O 0.3106(3) 0.6833(2) 0.1866(7)
H2_5 H 0.215267 0.683232 0.022423
C1_5 C 0.1033(5) 0.6217(4) 0.0956(13)
H3_5 H 0.131859 0.632199 0.081928
C4_5 C 0.0703(5) 0.6355(5) 0.0348(14)
C5_5 C 0.2801(4) 0.7301(4) 0.0696(11)
C6_5 C 0.1008(5) 0.5971(5) 0.1661(14)
C7_5 C 0.0267(4) 0.6193(5) 0.0645(12)
C12_5 C 0.2798(4) 0.6924(5) 0.1291(12)
C14_5 C 0.3184(5) 0.7983(5) 0.0272(11)
H7_5 H 0.342374 0.817976 0.032887
C16_5 C 0.2504(4) 0.7397(4) 0.0064(10)
C18_5 C 0.1400(4) 0.5880(4) 0.2318(13)
C20_5 C 0.0570(5) 0.5779(5) 0.1968(12)
H8_5 H 0.054327 0.558940 0.247963
C21_5 C 0.3167(4) 0.7598(5) 0.0829(11)
H9_5 H 0.338789 0.753829 0.127053
C23_5 C 0.0217(6) 0.5905(5) 0.1438(14)
O1_5 O 0.2626(3) 0.8475(3) 0.8458(8)
N1_5 N 0.1687(3) 0.7457(4) 0.8878(11)
O9_3 O 0.3181(3) 0.8743(3) 0.9287(8)
N2_5 N 0.0955(3) 0.7169(4) 0.8718(10)
N3_5 N 0.1210(3) 0.7759(4) 0.7896(9)
H1_5 H 0.143769 0.792575 0.777804
N4_5 N 0.1456(4) 0.6856(4) 0.9817(9)
N5_5 N 0.2127(4) 0.7088(3) 0.9950(9)
C2_5 C 0.2539(4) 0.7777(4) 0.9498(10)
H4_5 H 0.233903 0.782697 0.901031
C3_5 C 0.1283(5) 0.7461(5) 0.8457(12)
N6_5 N 0.0730(3) 0.6625(4) 0.9632(9)
H5_5 H 0.050051 0.662329 0.926867
C8_5 C 0.2869(5) 0.8065(4) 0.9681(12)
C9_5 C 0.1748(5) 0.7154(5) 0.9472(12)
C10_5 C 0.1056(5) 0.6905(5) 0.9371(12)
C11_5 C 0.0415(4) 0.7678(4) 0.7651(10)
H6_5 H 0.040307 0.745306 0.809903
C13_5 C 0.0013(4) 0.7825(4) 0.7194(12)
C15_5 C 0.0827(5) 0.7877(5) 0.7416(12)
C22_5 C 0.2885(5) 0.8448(6) 0.9067(14)
C24_5 C 0.0837(5) 0.8182(6) 0.6809(14)
H11_5 H 0.110262 0.833655 0.669939
C25_5 C 0.0471(7) 0.8287(6) 0.6320(19)
H12_5 H 0.050167 0.849086 0.583394
C26_5 C 0.0040(7) 0.8108(7) 0.6490(15)
O14_3 O 0.2274(3) 0.9281(3) 0.7055(7)
O2_5 O 0.9618(2) 0.7299(3) 0.8081(7)
O3_5 O 0.9885(2) 0.6597(3) 0.9519(7)
O7_3 O 0.9281(3) 0.7726(3) 0.7055(7)
C19_5 C 0.9633(4) 0.7590(4) 0.7461(10)
H13_5 H 0.979233 0.818536 0.613068
O11_5 O 0.9424(4) 0.7382(4) 0.9957(8)
H14_5 H 0.9115(4) 0.7431(13) 0.991(3)
H15_5 H 0.9551(16) 0.7608(8) 0.9587(13)
O16_3 O 0.8743(3) 0.6819(3) 0.9287(8)
O2_6 O 0.0382(2) 0.2701(3) 0.8081(7)
O3_6 O 0.0115(2) 0.3403(3) 0.9519(7)
O7_4 O 0.0719(3) 0.2274(3) 0.7055(7)
C19_6 C 0.0367(4) 0.2410(4) 0.7461(10)
H13_6 H 0.020767 0.181464 0.613068
O11_6 O 0.0576(4) 0.2618(4) 0.9957(8)
H14_6 H 0.0885(4) 0.2569(13) 0.991(3)
H15_6 H 0.0449(16) 0.2392(8) 0.9587(13)
O16_4 O 0.1257(3) 0.3181(3) 0.9287(8)
O4_6 O 0.6894(3) 0.3167(2) 0.1866(7)
H2_6 H 0.784733 0.316768 0.022423
C1_6 C 0.8967(5) 0.3783(4) 0.0956(13)
H3_6 H 0.868141 0.367801 0.081928
C4_6 C 0.9297(5) 0.3645(5) 0.0348(14)
C5_6 C 0.7199(4) 0.2699(4) 0.0696(11)
C6_6 C 0.8992(5) 0.4029(5) 0.1661(14)
C7_6 C 0.9733(4) 0.3807(5) 0.0645(12)
C12_6 C 0.7202(4) 0.3076(5) 0.1291(12)
C14_6 C 0.6816(5) 0.2017(5) 0.0272(11)
H7_6 H 0.657626 0.182024 0.032887
C16_6 C 0.7496(4) 0.2603(4) 0.0064(10)
C18_6 C 0.8600(4) 0.4120(4) 0.2318(13)
C20_6 C 0.9430(5) 0.4221(5) 0.1968(12)
H8_6 H 0.945673 0.441060 0.247963
C21_6 C 0.6833(4) 0.2402(5) 0.0829(11)
H9_6 H 0.661211 0.246171 0.127053
C23_6 C 0.9783(6) 0.4095(5) 0.1438(14)
O1_6 O 0.7374(3) 0.1525(3) 0.8458(8)
N1_6 N 0.8313(3) 0.2543(4) 0.8878(11)
O9_4 O 0.6819(3) 0.1257(3) 0.9287(8)
N2_6 N 0.9045(3) 0.2831(4) 0.8718(10)
N3_6 N 0.8790(3) 0.2241(4) 0.7896(9)
H1_6 H 0.856231 0.207425 0.777804
N4_6 N 0.8544(4) 0.3144(4) 0.9817(9)
N5_6 N 0.7873(4) 0.2912(3) 0.9950(9)
C2_6 C 0.7461(4) 0.2223(4) 0.9498(10)
H4_6 H 0.766097 0.217303 0.901031
C3_6 C 0.8717(5) 0.2539(5) 0.8457(12)
N6_6 N 0.9270(3) 0.3375(4) 0.9632(9)
H5_6 H 0.949949 0.337671 0.926867
C8_6 C 0.7131(5) 0.1935(4) 0.9681(12)
C9_6 C 0.8252(5) 0.2846(5) 0.9472(12)
C10_6 C 0.8944(5) 0.3095(5) 0.9371(12)
C11_6 C 0.9585(4) 0.2322(4) 0.7651(10)
H6_6 H 0.959693 0.254694 0.809903
C13_6 C 0.9987(4) 0.2175(4) 0.7194(12)
C15_6 C 0.9173(5) 0.2123(5) 0.7416(12)
C22_6 C 0.7115(5) 0.1552(6) 0.9067(14)
C24_6 C 0.9163(5) 0.1818(6) 0.6809(14)
H11_6 H 0.889738 0.166345 0.669939
C25_6 C 0.9529(7) 0.1713(6) 0.6320(19)
H12_6 H 0.949833 0.150914 0.583394
C26_6 C 0.9960(7) 0.1892(7) 0.6490(15)
O14_4 O 0.7726(3) 0.0719(3) 0.7055(7)
O4_7 O 0.3167(2) 0.3106(3) 0.1866(7)
H2_7 H 0.316768 0.215267 0.022423
C1_7 C 0.3783(4) 0.1033(5) 0.0956(13)
H3_7 H 0.367801 0.131859 0.081928
C4_7 C 0.3645(5) 0.0703(5) 0.0348(14)
C5_7 C 0.2699(4) 0.2801(4) 0.0696(11)
C6_7 C 0.4029(5) 0.1008(5) 0.1661(14)
C7_7 C 0.3807(5) 0.0267(4) 0.0645(12)
C12_7 C 0.3076(5) 0.2798(4) 0.1291(12)
C14_7 C 0.2017(5) 0.3184(5) 0.0272(11)
H7_7 H 0.182024 0.342374 0.032887
C16_7 C 0.2603(4) 0.2504(4) 0.0064(10)
C18_7 C 0.4120(4) 0.1400(4) 0.2318(13)
C20_7 C 0.4221(5) 0.0570(5) 0.1968(12)
H8_7 H 0.441060 0.054327 0.247963
C21_7 C 0.2402(5) 0.3167(4) 0.0829(11)
H9_7 H 0.246171 0.338789 0.127053
C23_7 C 0.4095(5) 0.0217(6) 0.1438(14)
O1_7 O 0.1525(3) 0.2626(3) 0.8458(8)
N1_7 N 0.2543(4) 0.1687(3) 0.8878(11)
N2_7 N 0.2831(4) 0.0955(3) 0.8718(10)
N3_7 N 0.2241(4) 0.1210(3) 0.7896(9)
H1_7 H 0.207425 0.143769 0.777804
N4_7 N 0.3144(4) 0.1456(4) 0.9817(9)
N5_7 N 0.2912(3) 0.2127(4) 0.9950(9)
C2_7 C 0.2223(4) 0.2539(4) 0.9498(10)
H4_7 H 0.217303 0.233903 0.901031
C3_7 C 0.2539(5) 0.1283(5) 0.8457(12)
N6_7 N 0.3375(4) 0.0730(3) 0.9632(9)
H5_7 H 0.337671 0.050051 0.926867
C8_7 C 0.1935(4) 0.2869(5) 0.9681(12)
C9_7 C 0.2846(5) 0.1748(5) 0.9472(12)
C10_7 C 0.3095(5) 0.1056(5) 0.9371(12)
C11_7 C 0.2322(4) 0.0415(4) 0.7651(10)
H6_7 H 0.254694 0.040307 0.809903
C13_7 C 0.2175(4) 0.0013(4) 0.7194(12)
C15_7 C 0.2123(5) 0.0827(5) 0.7416(12)
C22_7 C 0.1552(6) 0.2885(5) 0.9067(14)
C24_7 C 0.1818(6) 0.0837(5) 0.6809(14)
H11_7 H 0.166345 0.110262 0.669939
C25_7 C 0.1713(6) 0.0471(7) 0.6320(19)
H12_7 H 0.150914 0.050167 0.583394
C26_7 C 0.1892(7) 0.0040(7) 0.6490(15)
O2_7 O 0.2701(3) 0.9618(2) 0.8081(7)
O3_7 O 0.3403(3) 0.9885(2) 0.9519(7)
C19_7 C 0.2410(4) 0.9633(4) 0.7461(10)
H13_7 H 0.181464 0.979233 0.613068
O11_7 O 0.2618(4) 0.9424(4) 0.9957(8)
H14_7 H 0.2569(13) 0.9115(4) 0.991(3)
H15_7 H 0.2392(8) 0.9551(16) 0.9587(13)
O2_8 O 0.7299(3) 0.0382(2) 0.8081(7)
O3_8 O 0.6597(3) 0.0115(2) 0.9519(7)
C19_8 C 0.7590(4) 0.0367(4) 0.7461(10)
H13_8 H 0.818536 0.020767 0.613068
O11_8 O 0.7382(4) 0.0576(4) 0.9957(8)
H14_8 H 0.7431(13) 0.0885(4) 0.991(3)
H15_8 H 0.7608(8) 0.0449(16) 0.9587(13)
O4_8 O 0.6833(2) 0.6894(3) 0.1866(7)
H2_8 H 0.683232 0.784733 0.022423
C1_8 C 0.6217(4) 0.8967(5) 0.0956(13)
H3_8 H 0.632199 0.868141 0.081928
C4_8 C 0.6355(5) 0.9297(5) 0.0348(14)
C5_8 C 0.7301(4) 0.7199(4) 0.0696(11)
C6_8 C 0.5971(5) 0.8992(5) 0.1661(14)
C7_8 C 0.6193(5) 0.9733(4) 0.0645(12)
C12_8 C 0.6924(5) 0.7202(4) 0.1291(12)
C14_8 C 0.7983(5) 0.6816(5) 0.0272(11)
H7_8 H 0.817976 0.657626 0.032887
C16_8 C 0.7397(4) 0.7496(4) 0.0064(10)
C18_8 C 0.5880(4) 0.8600(4) 0.2318(13)
C20_8 C 0.5779(5) 0.9430(5) 0.1968(12)
H8_8 H 0.558940 0.945673 0.247963
C21_8 C 0.7598(5) 0.6833(4) 0.0829(11)
H9_8 H 0.753829 0.661211 0.127053
C23_8 C 0.5905(5) 0.9783(6) 0.1438(14)
O1_8 O 0.8475(3) 0.7374(3) 0.8458(8)
N1_8 N 0.7457(4) 0.8313(3) 0.8878(11)
N2_8 N 0.7169(4) 0.9045(3) 0.8718(10)
N3_8 N 0.7759(4) 0.8790(3) 0.7896(9)
H1_8 H 0.792575 0.856231 0.777804
N4_8 N 0.6856(4) 0.8544(4) 0.9817(9)
N5_8 N 0.7088(3) 0.7873(4) 0.9950(9)
C2_8 C 0.7777(4) 0.7461(4) 0.9498(10)
H4_8 H 0.782697 0.766097 0.901031
C3_8 C 0.7461(5) 0.8717(5) 0.8457(12)
N6_8 N 0.6625(4) 0.9270(3) 0.9632(9)
H5_8 H 0.662329 0.949949 0.926867
C8_8 C 0.8065(4) 0.7131(5) 0.9681(12)
C9_8 C 0.7154(5) 0.8252(5) 0.9472(12)
C10_8 C 0.6905(5) 0.8944(5) 0.9371(12)
C11_8 C 0.7678(4) 0.9585(4) 0.7651(10)
H6_8 H 0.745306 0.959693 0.809903
C13_8 C 0.7825(4) 0.9987(4) 0.7194(12)
C15_8 C 0.7877(5) 0.9173(5) 0.7416(12)
C22_8 C 0.8448(6) 0.7115(5) 0.9067(14)
C24_8 C 0.8182(6) 0.9163(5) 0.6809(14)
H11_8 H 0.833655 0.889738 0.669939
C25_8 C 0.8287(6) 0.9529(7) 0.6320(19)
H12_8 H 0.849086 0.949833 0.583394
C26_8 C 0.8108(7) 0.9960(7) 0.6490(15)
O10_5 O 0.9513(3) 0.6150(3) 0.0435(10)
C17_5 C 0.9850(5) 0.6334(5) 0.0101(12)
H10_5 H 0.993342 0.580072 0.159331
O10_6 O 0.0487(3) 0.3850(3) 0.0435(10)
C17_6 C 0.0150(5) 0.3666(5) 0.0101(12)
H10_6 H 0.006658 0.419928 0.159331
O10_7 O 0.3850(3) 0.9513(3) 0.0435(10)
C17_7 C 0.3666(5) 0.9850(5) 0.0101(12)
H10_7 H 0.419928 0.993342 0.159331
O10_8 O 0.6150(3) 0.0487(3) 0.0435(10)
C17_8 C 0.6334(5) 0.0150(5) 0.0101(12)
H10_8 H 0.580072 0.006658 0.159331
loop_
_geom_bond_atom_site_label_1
_geom_bond_atom_site_label_2
_geom_bond_site_symmetry_1
_geom_bond_site_symmetry_2
Zn1 O1 1_555 1_555
Zn2 O2 1_555 1_555
O1 C22 1_555 1_555
O2 C19 1_555 1_555
O3 Zn2 1_555 1_555
O4 C12 1_555 1_555
O5 C18 1_555 1_555
O6 C12 1_555 1_555
O7 C19 1_555 1_555
N1 C3 1_555 1_555
O8 C18 1_555 1_555
O9 C22 1_555 1_555
N2 C3 1_555 1_555
N3 H1 1_555 1_555
N4 C9 1_555 1_555
N5 H2 1_555 1_555
C1 H3 1_555 1_555
C2 H4 1_555 1_555
C3 N3 1_555 1_555
N6 H5 1_555 1_555
C4 C1 1_555 1_555
O10 C17 1_555 1_555
C5 C12 1_555 1_555
C6 C1 1_555 1_555
C7 C4 1_555 1_555
C8 C2 1_555 1_555
C9 N1 1_555 1_555
C10 N2 1_555 1_555
C11 H6 1_555 1_555
C13 C11 1_555 1_555
C14 C8 1_555 1_555
H7 C14 1_555 1_555
C15 N3 1_555 1_555
C16 N5 1_555 1_555
C17 O3 1_555 1_555
C18 C6 1_555 1_555
C19 C13 1_555 1_555
C20 C6 1_555 1_555
H8 C20 1_555 1_555
C21 C5 1_555 1_555
H9 C21 1_555 1_555
C22 C8 1_555 1_555
C23 C7 1_555 1_555
H10 C23 1_555 1_555
C24 C15 1_555 1_555
H11 C24 1_555 1_555
C25 C24 1_555 1_555
H12 C25 1_555 1_555
C26 C13 1_555 1_555
H13 C26 1_555 1_555
O11 Zn2 1_555 1_555
H14 O11 1_555 1_555
H15 O11 1_555 1_555
Zn3 O7 1_555 1_555
Zn4 O6 1_555 1_555
Zn5 O9 1_555 1_555
Zn6 O5 1_555 1_555
O12 Zn2 1_555 1_555
O13 Zn1 1_555 1_555
O14 Zn1 1_555 1_555
O15 Zn1 1_555 1_555
O16 Zn2 1_555 1_555
O8 Zn4 1_555 1_555
N4 C10 1_555 1_555
N5 C9 1_555 1_555
C2 C16 1_555 1_555
N6 C4 1_555 1_555
N6 C10 1_555 1_555
C5 C16 1_555 1_555
C7 C17 1_555 1_555
C11 C15 1_555 1_555
C14 C21 1_555 1_555
C20 C23 1_555 1_555
C25 C26 1_555 1_555
Zn1_2 O1_2 1_555 1_555
Zn2_2 O2_2 1_555 1_555
O1_2 C22_2 1_555 1_555
O2_2 C19_2 1_555 1_555
O3_2 Zn2_2 1_555 1_555
O4_2 C12_2 1_555 1_555
O5_2 C18_2 1_555 1_555
O6_2 C12_2 1_555 1_555
O7_2 C19_2 1_555 1_555
N1_2 C3_2 1_555 1_555
O8_2 C18_2 1_555 1_555
O9_2 C22_2 1_555 1_555
N2_2 C3_2 1_555 1_555
N3_2 H1_2 1_555 1_555
N4_2 C9_2 1_555 1_555
N5_2 H2_2 1_555 1_555
C1_2 H3_2 1_555 1_555
C2_2 H4_2 1_555 1_555
C3_2 N3_2 1_555 1_555
N6_2 H5_2 1_555 1_555
C4_2 C1_2 1_555 1_555
O10_2 C17_2 1_555 1_555
C5_2 C12_2 1_555 1_555
C6_2 C1_2 1_555 1_555
C7_2 C4_2 1_555 1_555
C8_2 C2_2 1_555 1_555
C9_2 N1_2 1_555 1_555
C10_2 N2_2 1_555 1_555
C11_2 H6_2 1_555 1_555
C13_2 C11_2 1_555 1_555
C14_2 C8_2 1_555 1_555
H7_2 C14_2 1_555 1_555
C15_2 N3_2 1_555 1_555
C16_2 N5_2 1_555 1_555
C17_2 O3_2 1_555 1_555
C18_2 C6_2 1_555 1_555
C19_2 C13_2 1_555 1_555
C20_2 C6_2 1_555 1_555
H8_2 C20_2 1_555 1_555
C21_2 C5_2 1_555 1_555
H9_2 C21_2 1_555 1_555
C22_2 C8_2 1_555 1_555
C23_2 C7_2 1_555 1_555
H10_2 C23_2 1_555 1_555
C24_2 C15_2 1_555 1_555
H11_2 C24_2 1_555 1_555
C25_2 C24_2 1_555 1_555
H12_2 C25_2 1_555 1_555
C26_2 C13_2 1_555 1_555
H13_2 C26_2 1_555 1_555
O11_2 Zn2_2 1_555 1_555
H14_2 O11_2 1_555 1_555
H15_2 O11_2 1_555 1_555
Zn3_2 O7_2 1_555 1_555
Zn4_2 O6_2 1_555 1_555
Zn5_2 O9_2 1_555 1_555
Zn6_2 O5_2 1_555 1_555
O12_2 Zn2_2 1_555 1_555
O13_2 Zn1_2 1_555 1_555
O14_2 Zn1_2 1_555 1_555
O15_2 Zn1_2 1_555 1_555
O16_2 Zn2_2 1_555 1_555
O8_2 Zn4_2 1_555 1_555
N4_2 C10_2 1_555 1_555
N5_2 C9_2 1_555 1_555
C2_2 C16_2 1_555 1_555
N6_2 C4_2 1_555 1_555
N6_2 C10_2 1_555 1_555
C5_2 C16_2 1_555 1_555
C7_2 C17_2 1_555 1_555
C11_2 C15_2 1_555 1_555
C14_2 C21_2 1_555 1_555
C20_2 C23_2 1_555 1_555
C25_2 C26_2 1_555 1_555
Zn3_2 O1_3 1_555 1_555
Zn5 O2_3 1_555 1_555
O1_3 C22_3 1_555 1_555
O2_3 C19_3 1_555 1_555
O3_3 Zn5 1_555 1_555
O4_3 C12_3 1_555 1_555
O5_3 C18_3 1_555 1_555
O6_3 C12_3 1_555 1_555
O14 C19_3 1_555 1_555
N1_3 C3_3 1_555 1_555
O8_3 C18_3 1_555 1_555
O16_2 C22_3 1_555 1_555
N2_3 C3_3 1_555 1_555
N3_3 H1_3 1_555 1_555
N4_3 C9_3 1_555 1_555
N5_3 H2_3 1_555 1_555
C1_3 H3_3 1_555 1_555
C2_3 H4_3 1_555 1_555
C3_3 N3_3 1_555 1_555
N6_3 H5_3 1_555 1_555
C4_3 C1_3 1_555 1_555
O10_3 C17_3 1_555 1_555
C5_3 C12_3 1_555 1_555
C6_3 C1_3 1_555 1_555
C7_3 C4_3 1_555 1_555
C8_3 C2_3 1_555 1_555
C9_3 N1_3 1_555 1_555
C10_3 N2_3 1_555 1_555
C11_3 H6_3 1_555 1_555
C13_3 C11_3 1_555 1_555
C14_3 C8_3 1_555 1_555
H7_3 C14_3 1_555 1_555
C15_3 N3_3 1_555 1_555
C16_3 N5_3 1_555 1_555
C17_3 O3_3 1_555 1_555
C18_3 C6_3 1_555 1_555
C19_3 C13_3 1_555 1_555
C20_3 C6_3 1_555 1_555
H8_3 C20_3 1_555 1_555
C21_3 C5_3 1_555 1_555
H9_3 C21_3 1_555 1_555
C22_3 C8_3 1_555 1_555
C23_3 C7_3 1_555 1_555
H10_3 C23_3 1_555 1_555
C24_3 C15_3 1_555 1_555
H11_3 C24_3 1_555 1_555
C25_3 C24_3 1_555 1_555
H12_3 C25_3 1_555 1_555
C26_3 C13_3 1_555 1_555
H13_3 C26_3 1_555 1_555
O11_3 Zn5 1_555 1_555
H14_3 O11_3 1_555 1_555
H15_3 O11_3 1_555 1_555
Zn4_3 O6_3 1_555 1_555
Zn6_3 O5_3 1_555 1_555
O12_3 Zn5 1_555 1_555
O13_3 Zn3_2 1_555 1_555
O15_3 Zn3_2 1_555 1_555
O8_3 Zn4_3 1_555 1_555
N4_3 C10_3 1_555 1_555
N5_3 C9_3 1_555 1_555
C2_3 C16_3 1_555 1_555
N6_3 C4_3 1_555 1_555
N6_3 C10_3 1_555 1_555
C5_3 C16_3 1_555 1_555
C7_3 C17_3 1_555 1_555
C11_3 C15_3 1_555 1_555
C14_3 C21_3 1_555 1_555
C20_3 C23_3 1_555 1_555
C25_3 C26_3 1_555 1_555
Zn3 O1_4 1_555 1_555
Zn5_2 O2_4 1_555 1_555
O1_4 C22_4 1_555 1_555
O2_4 C19_4 1_555 1_555
O3_4 Zn5_2 1_555 1_555
O4_4 C12_4 1_555 1_555
O5_4 C18_4 1_555 1_555
O6_4 C12_4 1_555 1_555
O14_2 C19_4 1_555 1_555
N1_4 C3_4 1_555 1_555
O8_4 C18_4 1_555 1_555
O16 C22_4 1_555 1_555
N2_4 C3_4 1_555 1_555
N3_4 H1_4 1_555 1_555
N4_4 C9_4 1_555 1_555
N5_4 H2_4 1_555 1_555
C1_4 H3_4 1_555 1_555
C2_4 H4_4 1_555 1_555
C3_4 N3_4 1_555 1_555
N6_4 H5_4 1_555 1_555
C4_4 C1_4 1_555 1_555
O10_4 C17_4 1_555 1_555
C5_4 C12_4 1_555 1_555
C6_4 C1_4 1_555 1_555
C7_4 C4_4 1_555 1_555
C8_4 C2_4 1_555 1_555
C9_4 N1_4 1_555 1_555
C10_4 N2_4 1_555 1_555
C11_4 H6_4 1_555 1_555
C13_4 C11_4 1_555 1_555
C14_4 C8_4 1_555 1_555
H7_4 C14_4 1_555 1_555
C15_4 N3_4 1_555 1_555
C16_4 N5_4 1_555 1_555
C17_4 O3_4 1_555 1_555
C18_4 C6_4 1_555 1_555
C19_4 C13_4 1_555 1_555
C20_4 C6_4 1_555 1_555
H8_4 C20_4 1_555 1_555
C21_4 C5_4 1_555 1_555
H9_4 C21_4 1_555 1_555
C22_4 C8_4 1_555 1_555
C23_4 C7_4 1_555 1_555
H10_4 C23_4 1_555 1_555
C24_4 C15_4 1_555 1_555
H11_4 C24_4 1_555 1_555
C25_4 C24_4 1_555 1_555
H12_4 C25_4 1_555 1_555
C26_4 C13_4 1_555 1_555
H13_4 C26_4 1_555 1_555
O11_4 Zn5_2 1_555 1_555
H14_4 O11_4 1_555 1_555
H15_4 O11_4 1_555 1_555
Zn4_4 O6_4 1_555 1_555
Zn6_4 O5_4 1_555 1_555
O12_4 Zn5_2 1_555 1_555
O13_4 Zn3 1_555 1_555
O15_4 Zn3 1_555 1_555
O8_4 Zn4_4 1_555 1_555
N4_4 C10_4 1_555 1_555
N5_4 C9_4 1_555 1_555
C2_4 C16_4 1_555 1_555
N6_4 C4_4 1_555 1_555
N6_4 C10_4 1_555 1_555
C5_4 C16_4 1_555 1_555
C7_4 C17_4 1_555 1_555
C11_4 C15_4 1_555 1_555
C14_4 C21_4 1_555 1_555
C20_4 C23_4 1_555 1_555
C25_4 C26_4 1_555 1_555
O4_5 C12_5 1_555 1_555
O12_4 C18_5 1_555 1_555
O13_2 C12_5 1_555 1_555
O15_2 C18_5 1_555 1_555
C1_5 H3_5 1_555 1_555
C4_5 C1_5 1_555 1_555
C5_5 C12_5 1_555 1_555
C6_5 C1_5 1_555 1_555
C7_5 C4_5 1_555 1_555
H7_5 C14_5 1_555 1_555
C18_5 C6_5 1_555 1_555
C20_5 C6_5 1_555 1_555
H8_5 C20_5 1_555 1_555
C21_5 C5_5 1_555 1_555
H9_5 C21_5 1_555 1_555
C23_5 C7_5 1_555 1_555
C5_5 C16_5 1_555 1_555
C14_5 C21_5 1_555 1_555
C20_5 C23_5 1_555 1_555
Zn4_2 O1_5 1_555 1_555
O1_5 C22_5 1_555 1_555
N1_5 C3_5 1_555 1_555
O9_3 C22_5 1_555 1_555
N2_5 C3_5 1_555 1_555
N3_5 H1_5 1_555 1_555
N4_5 C9_5 1_555 1_555
C2_5 H4_5 1_555 1_555
C3_5 N3_5 1_555 1_555
N6_5 H5_5 1_555 1_555
C8_5 C2_5 1_555 1_555
C9_5 N1_5 1_555 1_555
C10_5 N2_5 1_555 1_555
C11_5 H6_5 1_555 1_555
C13_5 C11_5 1_555 1_555
C15_5 N3_5 1_555 1_555
C22_5 C8_5 1_555 1_555
C24_5 C15_5 1_555 1_555
H11_5 C24_5 1_555 1_555
C25_5 C24_5 1_555 1_555
H12_5 C25_5 1_555 1_555
C26_5 C13_5 1_555 1_555
Zn6_2 O9_3 1_555 1_555
O14_3 Zn4_2 1_555 1_555
N4_5 C10_5 1_555 1_555
N5_5 C9_5 1_555 1_555
N6_5 C10_5 1_555 1_555
C11_5 C15_5 1_555 1_555
C25_5 C26_5 1_555 1_555
Zn6_3 O2_5 1_555 1_555
O2_5 C19_5 1_555 1_555
O3_5 Zn6_3 1_555 1_555
O7_3 C19_5 1_555 1_555
O11_5 Zn6_3 1_555 1_555
H14_5 O11_5 1_555 1_555
H15_5 O11_5 1_555 1_555
Zn4_3 O7_3 1_555 1_555
O16_3 Zn6_3 1_555 1_555
Zn6_4 O2_6 1_555 1_555
O2_6 C19_6 1_555 1_555
O3_6 Zn6_4 1_555 1_555
O7_4 C19_6 1_555 1_555
O11_6 Zn6_4 1_555 1_555
H14_6 O11_6 1_555 1_555
H15_6 O11_6 1_555 1_555
Zn4_4 O7_4 1_555 1_555
O16_4 Zn6_4 1_555 1_555
O4_6 C12_6 1_555 1_555
O12_3 C18_6 1_555 1_555
O13 C12_6 1_555 1_555
O15 C18_6 1_555 1_555
C1_6 H3_6 1_555 1_555
C4_6 C1_6 1_555 1_555
C5_6 C12_6 1_555 1_555
C6_6 C1_6 1_555 1_555
C7_6 C4_6 1_555 1_555
H7_6 C14_6 1_555 1_555
C18_6 C6_6 1_555 1_555
C20_6 C6_6 1_555 1_555
H8_6 C20_6 1_555 1_555
C21_6 C5_6 1_555 1_555
H9_6 C21_6 1_555 1_555
C23_6 C7_6 1_555 1_555
C5_6 C16_6 1_555 1_555
C14_6 C21_6 1_555 1_555
C20_6 C23_6 1_555 1_555
Zn4 O1_6 1_555 1_555
O1_6 C22_6 1_555 1_555
N1_6 C3_6 1_555 1_555
O9_4 C22_6 1_555 1_555
N2_6 C3_6 1_555 1_555
N3_6 H1_6 1_555 1_555
N4_6 C9_6 1_555 1_555
C2_6 H4_6 1_555 1_555
C3_6 N3_6 1_555 1_555
N6_6 H5_6 1_555 1_555
C8_6 C2_6 1_555 1_555
C9_6 N1_6 1_555 1_555
C10_6 N2_6 1_555 1_555
C11_6 H6_6 1_555 1_555
C13_6 C11_6 1_555 1_555
C15_6 N3_6 1_555 1_555
C22_6 C8_6 1_555 1_555
C24_6 C15_6 1_555 1_555
H11_6 C24_6 1_555 1_555
C25_6 C24_6 1_555 1_555
H12_6 C25_6 1_555 1_555
C26_6 C13_6 1_555 1_555
Zn6 O9_4 1_555 1_555
O14_4 Zn4 1_555 1_555
N4_6 C10_6 1_555 1_555
N5_6 C9_6 1_555 1_555
N6_6 C10_6 1_555 1_555
C11_6 C15_6 1_555 1_555
C25_6 C26_6 1_555 1_555
O4_7 C12_7 1_555 1_555
O12 C18_7 1_555 1_555
O13_4 C12_7 1_555 1_555
O15_4 C18_7 1_555 1_555
C1_7 H3_7 1_555 1_555
C4_7 C1_7 1_555 1_555
C5_7 C12_7 1_555 1_555
C6_7 C1_7 1_555 1_555
C7_7 C4_7 1_555 1_555
H7_7 C14_7 1_555 1_555
C18_7 C6_7 1_555 1_555
C20_7 C6_7 1_555 1_555
H8_7 C20_7 1_555 1_555
C21_7 C5_7 1_555 1_555
H9_7 C21_7 1_555 1_555
C23_7 C7_7 1_555 1_555
C5_7 C16_7 1_555 1_555
C14_7 C21_7 1_555 1_555
C20_7 C23_7 1_555 1_555
Zn4_4 O1_7 1_555 1_555
O1_7 C22_7 1_555 1_555
N1_7 C3_7 1_555 1_555
O16_4 C22_7 1_555 1_555
N2_7 C3_7 1_555 1_555
N3_7 H1_7 1_555 1_555
N4_7 C9_7 1_555 1_555
C2_7 H4_7 1_555 1_555
C3_7 N3_7 1_555 1_555
N6_7 H5_7 1_555 1_555
C8_7 C2_7 1_555 1_555
C9_7 N1_7 1_555 1_555
C10_7 N2_7 1_555 1_555
C11_7 H6_7 1_555 1_555
C13_7 C11_7 1_555 1_555
C15_7 N3_7 1_555 1_555
C22_7 C8_7 1_555 1_555
C24_7 C15_7 1_555 1_555
H11_7 C24_7 1_555 1_555
C25_7 C24_7 1_555 1_555
H12_7 C25_7 1_555 1_555
C26_7 C13_7 1_555 1_555
N4_7 C10_7 1_555 1_555
N5_7 C9_7 1_555 1_555
N6_7 C10_7 1_555 1_555
C11_7 C15_7 1_555 1_555
C25_7 C26_7 1_555 1_555
Zn6_2 O2_7 1_555 1_555
O2_7 C19_7 1_555 1_555
O3_7 Zn6_2 1_555 1_555
O14_3 C19_7 1_555 1_555
O11_7 Zn6_2 1_555 1_555
H14_7 O11_7 1_555 1_555
H15_7 O11_7 1_555 1_555
Zn6 O2_8 1_555 1_555
O2_8 C19_8 1_555 1_555
O3_8 Zn6 1_555 1_555
O14_4 C19_8 1_555 1_555
O11_8 Zn6 1_555 1_555
H14_8 O11_8 1_555 1_555
H15_8 O11_8 1_555 1_555
O4_8 C12_8 1_555 1_555
O12_2 C18_8 1_555 1_555
O13_3 C12_8 1_555 1_555
O15_3 C18_8 1_555 1_555
C1_8 H3_8 1_555 1_555
C4_8 C1_8 1_555 1_555
C5_8 C12_8 1_555 1_555
C6_8 C1_8 1_555 1_555
C7_8 C4_8 1_555 1_555
H7_8 C14_8 1_555 1_555
C18_8 C6_8 1_555 1_555
C20_8 C6_8 1_555 1_555
H8_8 C20_8 1_555 1_555
C21_8 C5_8 1_555 1_555
H9_8 C21_8 1_555 1_555
C23_8 C7_8 1_555 1_555
C5_8 C16_8 1_555 1_555
C14_8 C21_8 1_555 1_555
C20_8 C23_8 1_555 1_555
Zn4_3 O1_8 1_555 1_555
O1_8 C22_8 1_555 1_555
N1_8 C3_8 1_555 1_555
O16_3 C22_8 1_555 1_555
N2_8 C3_8 1_555 1_555
N3_8 H1_8 1_555 1_555
N4_8 C9_8 1_555 1_555
C2_8 H4_8 1_555 1_555
C3_8 N3_8 1_555 1_555
N6_8 H5_8 1_555 1_555
C8_8 C2_8 1_555 1_555
C9_8 N1_8 1_555 1_555
C10_8 N2_8 1_555 1_555
C11_8 H6_8 1_555 1_555
C13_8 C11_8 1_555 1_555
C15_8 N3_8 1_555 1_555
C22_8 C8_8 1_555 1_555
C24_8 C15_8 1_555 1_555
H11_8 C24_8 1_555 1_555
C25_8 C24_8 1_555 1_555
H12_8 C25_8 1_555 1_555
C26_8 C13_8 1_555 1_555
N4_8 C10_8 1_555 1_555
N5_8 C9_8 1_555 1_555
N6_8 C10_8 1_555 1_555
C11_8 C15_8 1_555 1_555
C25_8 C26_8 1_555 1_555
O10_5 C17_5 1_555 1_555
O10_6 C17_6 1_555 1_555
O10_7 C17_7 1_555 1_555
O10_8 C17_8 1_555 1_555

#END
