
###############################################################################
#
# This file contains modified crystal structure data generated from the
# MOF subset of the Cambridge Structural Database (CSD) v543 
# hosted by the Cambridge Crystallographic Data Centre (CCDC).
#
# This work is licensed under the Creative Commons
# Attribution-NonCommercial-ShareAlike 4.0 International License.
# To view a copy of this license, visit
# http://creativecommons.org/licenses/by-nc-sa/4.0/
# or send a letter to
# Creative Commons, PO Box 1866, Mountain View, CA 94042, USA.
#
# CIF created using the CSD Python API on 29 September 2022
# The structure has been converted into the P1 space group
# The structure has a 3D framework
# The original CSD entry TARCUN is in the orthorhombic crystal system
# The original CSD entry TARCUN is in a Sohncke space group
# The framework has been calculated to contain at least 10.0% void space
# The void calculation uses a probe of radius 1.32A, grid spacing 0.4
# The framework is charged, counterions have been retained in the structure
# H atom positions have been added when not included in the experimental data
#
###############################################################################

data_TARCUN
_chemical_formula_moiety         '(C224 H200 Cu8 N32 O52 S16)n'
_symmetry_cell_setting           triclinic
_symmetry_space_group_name_H-M   'P 1'
_symmetry_Int_Tables_number      1
_space_group_name_Hall           'P 1'
loop_
_symmetry_equiv_pos_site_id
_symmetry_equiv_pos_as_xyz
1 x,y,z
_cell_length_a                   15.6139(12)
_cell_length_b                   15.7965(13)
_cell_length_c                   29.712(2)
_cell_angle_alpha                90
_cell_angle_beta                 90
_cell_angle_gamma                90
_cell_volume                     7328.32
loop_
_atom_site_label
_atom_site_type_symbol
_atom_site_fract_x
_atom_site_fract_y
_atom_site_fract_z
Cu1 Cu 0.07756(4) 0.19302(4) 0.61629(3)
O1 O 0.0714(3) 0.1907(3) 0.53694(15)
O2 O 0.1634(4) 0.2049(5) 0.4722(2)
O3 O 0.0668(5) 0.3151(4) 0.49224(19)
S3 S 0.08250(11) 0.22608(11) 0.49190(5)
H3 H 0.0316 0.3507 0.6637
H9 H 0.0228 0.0475 0.5610
O13 O 0.0756(4) 0.1989(4) 0.70234(18)
C41 C 0.0018(6) 0.1780(6) 0.4589(3)
H33 H 0.0118 0.1175 0.4577
H37 H 0.0457 0.2813 0.2601
H38 H 0.0057 0.3673 0.2756
C47 C 0.0415(6) 0.2018(6) 0.3334(3)
H39 H 0.0701 0.1720 0.3110
C48 C 0.0420(6) 0.1713(6) 0.3772(3)
H40 H 0.0716 0.1218 0.3838
N10 N 0.1709(3) 0.1037(3) 0.6157(2)
N11 N 0.1681(3) 0.2845(3) 0.61693(19)
H49 H 0.0284299 0.162764 0.71389
H50 H 0.131133 0.177985 0.714242
C38 C 0.2857(4) 0.0329(4) 0.5806(2)
H30 H 0.3200 0.0273 0.5552
C39 C 0.1818(5) 0.0520(5) 0.6506(3)
H31 H 0.1448 0.0569 0.6750
C40 C 0.2223(4) 0.0933(5) 0.5810(3)
H32 H 0.2155 0.1279 0.5560
N1 N 0.9827(3) 0.2797(3) 0.6170(2)
C1 C 0.9148(4) 0.2742(5) 0.5899(2)
H1 H 0.9115 0.2286 0.5702
S1 S 0.7307(2) 0.7239(2) 0.23716(9)
N2 N 0.6654(3) 0.5985(3) 0.6158(2)
Cu2 Cu 0.57810(4) 0.69281(4) 0.61593(3)
C2 C 0.8501(4) 0.3321(4) 0.5897(3)
H2 H 0.8034 0.3248 0.5706
S2 S 0.90257(10) 0.28264(11) 0.24549(5)
N3 N 0.9887(3) 0.0996(3) 0.6178(2)
C3 C 0.8540(4) 0.4023(4) 0.6181(3)
O4 O 0.8851(4) 0.1925(3) 0.25177(18)
C4 C 0.9853(5) 0.3460(5) 0.6441(3)
S4 S 0.56975(15) 0.72174(18) 0.48970(7)
O5 O 0.9219(3) 0.3032(3) 0.19946(13)
N5 N 0.4851(3) 0.6042(3) 0.6172(2)
C5 C 0.9227(5) 0.4093(5) 0.6452(3)
H4 H 0.9285 0.4556 0.6643
O6 O 0.8032(5) 0.7653(6) 0.2565(3)
C6 C 0.7760(6) 0.5219(6) 0.6530(3)
H5 H 0.8077 0.5141 0.6792
C7 C 0.7318(5) 0.4799(5) 0.5812(3)
H6 H 0.7337 0.4430 0.5568
N7 N 0.4886(3) 0.7854(3) 0.6162(2)
O7 O 0.7335(6) 0.6343(6) 0.2467(2)
C8 C 0.7883(4) 0.4677(4) 0.6175(2)
O8 O 0.8361(4) 0.3341(4) 0.2645(2)
C9 C 0.6744(5) 0.5448(5) 0.5809(3)
H7 H 0.6400 0.5523 0.5557
O9 O 0.7151(6) 0.7472(5) 0.1909(2)
C10 C 0.7182(5) 0.5874(5) 0.6510(3)
H8 H 0.7155 0.6254 0.6749
O10 O 0.4866(5) 0.6975(7) 0.4736(3)
C11 C 0.9835(5) 0.0436(4) 0.5844(3)
O11 O 0.5832(7) 0.8123(5) 0.4855(3)
C12 C 0.9340(5) 0.0917(5) 0.6509(3)
H10 H 0.9373 0.1299 0.6747
O12 O 0.5862(3) 0.6949(4) 0.53538(16)
C16 C 0.8703(5) 0.0284(5) 0.6526(3)
H12 H 0.8330 0.0249 0.6769
C21 C 0.4098(4) 0.4924(4) 0.6546(2)
H17 H 0.4023 0.4605 0.6806
C22 C 0.4328(5) 0.5913(5) 0.5815(3)
H18 H 0.4388 0.6268 0.5567
C23 C 0.4723(4) 0.5550(4) 0.6533(3)
H19 H 0.5066 0.5630 0.6785
C24 C 0.2931(4) 0.4124(4) 0.6167(2)
C25 C 0.3582(4) 0.4774(4) 0.6171(3)
C26 C 0.3723(5) 0.5299(5) 0.5797(3)
H20 H 0.3400 0.5226 0.5536
C27 C 0.2958(4) 0.3445(4) 0.6466(2)
H21 H 0.3397 0.3411 0.6677
C28 C 0.2336(4) 0.2821(4) 0.6453(2)
H22 H 0.2380 0.2367 0.6650
C29 C 0.2242(5) 0.4146(4) 0.5875(2)
H23 H 0.2180 0.4593 0.5674
C30 C 0.1640(4) 0.3496(4) 0.5883(2)
H24 H 0.1189 0.3515 0.5680
C31 C 0.4247(4) 0.7853(4) 0.6465(2)
H25 H 0.4216 0.7411 0.6671
C32 C 0.4910(5) 0.8491(4) 0.5861(3)
H26 H 0.5337 0.8496 0.5643
C33 C 0.3637(4) 0.8482(4) 0.6482(2)
H27 H 0.3212 0.8468 0.6701
C34 C 0.4319(5) 0.9131(4) 0.5870(2)
H28 H 0.4370 0.9573 0.5665
C35 C 0.3658(4) 0.9141(4) 0.6169(2)
C36 C 0.2993(4) 0.9811(4) 0.6165(2)
C37 C 0.2441(5) 0.9928(5) 0.6522(3)
H29 H 0.2498 0.9593 0.6777
H34 H 0.9466 0.1872 0.4730
C42 C 0.9995(5) 0.2133(6) 0.4108(3)
C43 C 0.9587(6) 0.2861(7) 0.4004(3)
H35 H 0.9307 0.3155 0.4232
C44 C 0.9568(6) 0.3193(6) 0.3566(2)
H36 H 0.9278 0.3694 0.3506
C45 C 0.9983(4) 0.2770(5) 0.3225(2)
C46 C 0.9975(5) 0.3064(5) 0.2757(2)
C49 C 0.6553(8) 0.6823(10) 0.4561(4)
H41 H 0.7091 0.7035 0.4680
H42 H 0.6564 0.6211 0.4582
C50 C 0.6480(8) 0.7072(9) 0.4082(4)
C51 C 0.5954(11) 0.6635(11) 0.3790(4)
H43 H 0.5586 0.6227 0.3907
C52 C 0.5948(10) 0.6780(10) 0.3317(4)
H44 H 0.5650 0.6421 0.3124
C53 C 0.6399(8) 0.7472(8) 0.3151(4)
C54 C 0.6403(7) 0.7665(8) 0.2657(3)
H45 H 0.6395 0.8274 0.2616
H46 H 0.5885 0.7438 0.2523
C55 C 0.6894(8) 0.7958(8) 0.3445(4)
H47 H 0.7188 0.8422 0.3330
C56 C 0.6975(9) 0.7766(10) 0.3935(4)
H48 H 0.7322 0.8079 0.4128
Cu6 Cu 0.92190(4) 0.30719(4) 0.11593(3)
N9 N 0.6728(3) 0.7807(3) 0.61730(19)
O14 O 0.5781(3) 0.6968(3) 0.69946(13)
C13 C 0.9237(5) 0.9811(5) 0.5829(3)
H11 H 0.9219 0.9440 0.5586
C14 C 0.7978(4) 0.9046(4) 0.6176(2)
C15 C 0.8649(4) 0.9731(4) 0.6182(2)
C17 C 0.8039(5) 0.8353(4) 0.5888(3)
H13 H 0.8498 0.8301 0.5691
C18 C 0.7285(5) 0.9100(4) 0.6455(2)
H14 H 0.7221 0.9560 0.6646
C19 C 0.6676(4) 0.8458(4) 0.6448(2)
H15 H 0.6214 0.8490 0.6646
C20 C 0.7406(4) 0.7749(5) 0.5901(2)
H16 H 0.7451 0.7281 0.5713
N5_2 N 0.0149(3) 0.3958(3) 0.1172(2)
N7_2 N 0.0114(3) 0.2146(3) 0.1162(2)
N8 N 0.3319(3) 0.7155(3) 0.11693(19)
C21_2 C 0.0902(4) 0.5076(4) 0.1546(2)
H17_2 H 0.0977 0.5395 0.1806
C22_2 C 0.0672(5) 0.4087(5) 0.0815(3)
H18_2 H 0.0612 0.3732 0.0567
C23_2 C 0.0277(4) 0.4450(4) 0.1533(3)
C24_2 C 0.2069(4) 0.5876(4) 0.1167(2)
C25_2 C 0.1418(4) 0.5226(4) 0.1171(3)
C26_2 C 0.1277(5) 0.4701(5) 0.0797(3)
H20_2 H 0.1600 0.4774 0.0536
C27_2 C 0.2042(4) 0.6555(4) 0.1466(2)
H21_2 H 0.1603 0.6589 0.1677
C28_2 C 0.2664(4) 0.7179(4) 0.1453(2)
H22_2 H 0.2620 0.7633 0.1650
C29_2 C 0.2758(5) 0.5854(4) 0.0875(2)
H23_2 H 0.2820 0.5407 0.0674
C30_2 C 0.3360(4) 0.6504(4) 0.0883(2)
H24_2 H 0.3811 0.6485 0.0680
C31_2 C 0.0753(4) 0.2147(4) 0.1465(2)
H25_2 H 0.0784 0.2589 0.1671
C32_2 C 0.0090(5) 0.1509(4) 0.0861(3)
C33_2 C 0.1363(4) 0.1518(4) 0.1482(2)
H27_2 H 0.1788 0.1532 0.1701
C34_2 C 0.0681(5) 0.0869(4) 0.0870(2)
H28_2 H 0.0630 0.0427 0.0665
C35_2 C 0.1342(4) 0.0859(4) 0.1169(2)
C36_2 C 0.2007(4) 0.0189(4) 0.1165(2)
C37_2 C 0.2559(5) 0.0072(5) 0.1522(3)
H29_2 H 0.2502 0.0407 0.1777
Cu3 Cu 0.42244(4) 0.80698(4) 0.11629(3)
N6 N 0.3291(3) 0.8963(3) 0.1157(2)
C38_2 C 0.2143(4) 0.9671(4) 0.0806(2)
H30_2 H 0.1800 0.9727 0.0552
C39_2 C 0.3182(5) 0.9480(5) 0.1506(3)
H31_2 H 0.3552 0.9431 0.1750
C40_2 C 0.2777(4) 0.9067(5) 0.0810(3)
H32_2 H 0.2845 0.8721 0.0560
N4 N 0.8272(3) 0.2193(3) 0.11730(19)
C13_2 C 0.5763(5) 0.0189(5) 0.0829(3)
H11_2 H 0.5781 0.0560 0.0586
C14_2 C 0.7022(4) 0.0954(4) 0.1176(2)
C15_2 C 0.6351(4) 0.0269(4) 0.1182(2)
C17_2 C 0.6961(5) 0.1647(4) 0.0888(3)
H13_2 H 0.6502 0.1699 0.0691
C18_2 C 0.7715(5) 0.0900(4) 0.1455(2)
H14_2 H 0.7779 0.0440 0.1646
C19_2 C 0.8324(4) 0.1542(4) 0.1448(2)
H15_2 H 0.8786 0.1510 0.1646
C20_2 C 0.7594(4) 0.2251(5) 0.0901(2)
H16_2 H 0.7549 0.2719 0.0713
O1_2 O 0.4286(3) 0.8093(3) 0.03694(15)
N1_2 N 0.5173(3) 0.7203(3) 0.1170(2)
C1_2 C 0.5852(4) 0.7258(5) 0.0899(2)
H1_2 H 0.5885 0.7714 0.0702
N2_2 N 0.8346(3) 0.4015(3) 0.1158(2)
C2_2 C 0.6499(4) 0.6679(4) 0.0897(3)
H2_2 H 0.6966 0.6752 0.0706
N3_2 N 0.5113(3) 0.9004(3) 0.1178(2)
C3_2 C 0.6460(4) 0.5977(4) 0.1181(3)
C4_2 C 0.5147(5) 0.6540(5) 0.1441(3)
H3_2 H 0.4684 0.6493 0.1637
C5_2 C 0.5773(5) 0.5907(5) 0.1452(3)
H4_2 H 0.5715 0.5444 0.1643
C6_2 C 0.7240(6) 0.4781(6) 0.1530(3)
H5_2 H 0.6923 0.4859 0.1792
C7_2 C 0.7682(5) 0.5201(5) 0.0812(3)
H6_2 H 0.7663 0.5570 0.0568
C8_2 C 0.7117(4) 0.5323(4) 0.1175(2)
C9_2 C 0.8256(5) 0.4552(5) 0.0809(3)
H7_2 H 0.8600 0.4477 0.0557
C10_2 C 0.7818(5) 0.4126(5) 0.1510(3)
H8_2 H 0.7845 0.3746 0.1749
C11_2 C 0.5165(5) 0.9564(4) 0.0844(3)
H9_2 H 0.4772 0.9525 0.0610
C12_2 C 0.5660(5) 0.9083(5) 0.1509(3)
H10_2 H 0.5627 0.8701 0.1747
O12_2 O 0.9138(3) 0.3051(4) 0.03538(16)
O13_2 O 0.4244(4) 0.8011(4) 0.20234(18)
C16_2 C 0.6297(5) 0.9716(5) 0.1526(3)
H12_2 H 0.6670 0.9751 0.1769
H19_2 H 0.9934 0.4370 0.1785
H26_2 H 0.9663 0.1504 0.0643
H49_2 H 0.47157 0.837236 0.21389
H50_2 H 0.368867 0.822015 0.214242
S1_2 S 0.7693(2) 0.2761(2) 0.73716(9)
O2_2 O 0.3366(4) 0.7951(5) 0.9722(2)
S2_2 S 0.59743(10) 0.71736(11) 0.74549(5)
O3_2 O 0.4332(5) 0.6849(4) 0.99224(19)
S3_2 S 0.41750(11) 0.77392(11) 0.99190(5)
O4_2 O 0.6149(4) 0.8075(3) 0.75177(18)
S4_2 S 0.93025(15) 0.27826(18) 0.98970(7)
O6_2 O 0.6968(5) 0.2347(6) 0.7565(3)
O7_2 O 0.7665(6) 0.3657(6) 0.7467(2)
O8_2 O 0.6639(4) 0.6659(4) 0.7645(2)
O9_2 O 0.7849(6) 0.2528(5) 0.6909(2)
O11_2 O 0.9168(7) 0.1877(5) 0.9855(3)
C41_2 C 0.4982(6) 0.8220(6) 0.9589(3)
H33_2 H 0.4882 0.8825 0.9577
H34_2 H 0.5534 0.8128 0.9730
C42_2 C 0.5005(5) 0.7867(6) 0.9108(3)
C43_2 C 0.5413(6) 0.7139(7) 0.9004(3)
H35_2 H 0.5693 0.6845 0.9232
C44_2 C 0.5432(6) 0.6807(6) 0.8566(2)
H36_2 H 0.5722 0.6306 0.8506
C45_2 C 0.5017(4) 0.7230(5) 0.8225(2)
C46_2 C 0.5025(5) 0.6936(5) 0.7757(2)
H37_2 H 0.4543 0.7187 0.7601
H38_2 H 0.4943 0.6327 0.7756
C47_2 C 0.4585(6) 0.7982(6) 0.8334(3)
H39_2 H 0.4299 0.8280 0.8110
C48_2 C 0.4580(6) 0.8287(6) 0.8772(3)
H40_2 H 0.4284 0.8782 0.8838
C49_2 C 0.8447(8) 0.3177(10) 0.9561(4)
H41_2 H 0.7909 0.2965 0.9680
H42_2 H 0.8436 0.3789 0.9582
C50_2 C 0.8520(8) 0.2928(9) 0.9082(4)
C51_2 C 0.9046(11) 0.3365(11) 0.8790(4)
H43_2 H 0.9414 0.3773 0.8907
C52_2 C 0.9052(10) 0.3220(10) 0.8317(4)
H44_2 H 0.9350 0.3579 0.8124
C53_2 C 0.8601(8) 0.2528(8) 0.8151(4)
C54_2 C 0.8597(7) 0.2335(8) 0.7657(3)
H45_2 H 0.8605 0.1726 0.7616
H46_2 H 0.9115 0.2562 0.7523
C55_2 C 0.8106(8) 0.2042(8) 0.8445(4)
H47_2 H 0.7812 0.1578 0.8330
C56_2 C 0.8025(9) 0.2234(10) 0.8935(4)
H48_2 H 0.7678 0.1921 0.9128
O10_2 O 0.0134(5) 0.3025(7) 0.9736(3)
S1_3 S 0.2693(2) 0.2239(2) 0.26284(9)
S4_3 S 0.43025(15) 0.22174(18) 0.01030(7)
O6_3 O 0.1968(5) 0.2653(6) 0.2435(3)
O7_3 O 0.2665(6) 0.1343(6) 0.2533(2)
O9_3 O 0.2849(6) 0.2472(5) 0.3091(2)
O10_3 O 0.5134(5) 0.1975(7) 0.0264(3)
O11_3 O 0.4168(7) 0.3123(5) 0.0145(3)
C49_3 C 0.3447(8) 0.1823(10) 0.0439(4)
H41_3 H 0.2909 0.2035 0.0320
H42_3 H 0.3436 0.1211 0.0418
C50_3 C 0.3520(8) 0.2072(9) 0.0918(4)
C51_3 C 0.4046(11) 0.1635(11) 0.1210(4)
H43_3 H 0.4414 0.1227 0.1093
C52_3 C 0.4052(10) 0.1780(10) 0.1683(4)
H44_3 H 0.4350 0.1421 0.1876
C53_3 C 0.3601(8) 0.2472(8) 0.1849(4)
C54_3 C 0.3597(7) 0.2665(8) 0.2343(3)
H45_3 H 0.3605 0.3274 0.2384
H46_3 H 0.4115 0.2438 0.2477
C55_3 C 0.3106(8) 0.2958(8) 0.1555(4)
H47_3 H 0.2812 0.3422 0.1670
C56_3 C 0.3025(9) 0.2766(10) 0.1065(4)
H48_3 H 0.2678 0.3079 0.0872
N2_3 N 0.3346(3) 0.0985(3) 0.8842(2)
Cu2_2 Cu 0.42190(4) 0.19281(4) 0.88407(3)
N5_3 N 0.5149(3) 0.1042(3) 0.8828(2)
N6_2 N 0.8291(3) 0.6037(3) 0.8843(2)
C6_3 C 0.2240(6) 0.0219(6) 0.8470(3)
H5_3 H 0.1923 0.0141 0.8208
N7_3 N 0.5114(3) 0.2854(3) 0.8838(2)
C9_3 C 0.3256(5) 0.0448(5) 0.9191(3)
H7_3 H 0.3600 0.0523 0.9443
C10_3 C 0.2818(5) 0.0874(5) 0.8490(3)
H8_3 H 0.2845 0.1254 0.8251
O12_3 O 0.4138(3) 0.1949(4) 0.96462(16)
C22_3 C 0.5672(5) 0.0913(5) 0.9185(3)
H18_3 H 0.5612 0.1268 0.9433
C23_3 C 0.5277(4) 0.0550(4) 0.8467(3)
H19_3 H 0.4934 0.0630 0.8215
C26_3 C 0.6277(5) 0.0299(5) 0.9203(3)
H20_3 H 0.6600 0.0226 0.9464
C31_3 C 0.5753(4) 0.2853(4) 0.8535(2)
H25_3 H 0.5784 0.2411 0.8329
C32_3 C 0.5090(5) 0.3491(4) 0.9139(3)
H26_3 H 0.4663 0.3496 0.9357
C33_3 C 0.6363(4) 0.3482(4) 0.8518(2)
H27_3 H 0.6788 0.3468 0.8299
C34_3 C 0.5681(5) 0.4131(4) 0.9130(2)
H28_3 H 0.5630 0.4573 0.9335
C35_3 C 0.6342(4) 0.4141(4) 0.8831(2)
C36_3 C 0.7007(4) 0.4811(4) 0.8835(2)
C37_3 C 0.7559(5) 0.4928(5) 0.8478(3)
H29_3 H 0.7502 0.4593 0.8223
C38_3 C 0.7143(4) 0.5329(4) 0.9194(2)
H30_3 H 0.6800 0.5273 0.9448
C39_3 C 0.8182(5) 0.5520(5) 0.8494(3)
H31_3 H 0.8552 0.5569 0.8250
C40_3 C 0.7777(4) 0.5933(5) 0.9190(3)
H32_3 H 0.7845 0.6279 0.9440
Cu4 Cu 0.92244(4) 0.69302(4) 0.88371(3)
N9_2 N 0.3272(3) 0.2807(3) 0.88270(19)
O14_2 O 0.4219(3) 0.1968(3) 0.80054(13)
S2_3 S 0.09743(10) 0.78264(11) 0.25451(5)
O4_3 O 0.1149(4) 0.6925(3) 0.24823(18)
O5_2 O 0.0781(3) 0.8032(3) 0.30054(13)
O8_3 O 0.1639(4) 0.8341(4) 0.2355(2)
H34_3 H 0.0534 0.6872 0.0270
C42_3 C 0.0005(5) 0.7133(6) 0.0892(3)
C43_3 C 0.0413(6) 0.7861(7) 0.0996(3)
H35_3 H 0.0693 0.8155 0.0768
C44_3 C 0.0432(6) 0.8193(6) 0.1434(2)
H36_3 H 0.0722 0.8694 0.1494
C45_3 C 0.0017(4) 0.7770(5) 0.1775(2)
C46_3 C 0.0025(5) 0.8064(5) 0.2243(2)
Cu6_2 Cu 0.07810(4) 0.80719(4) 0.38407(3)
N1_3 N 0.0173(3) 0.7797(3) 0.8830(2)
C1_3 C 0.0852(4) 0.7742(5) 0.9101(2)
H1_3 H 0.0885 0.7286 0.9298
C2_3 C 0.1499(4) 0.8321(4) 0.9103(3)
H2_3 H 0.1966 0.8248 0.9294
N3_3 N 0.0113(3) 0.5996(3) 0.8822(2)
C3_3 C 0.1460(4) 0.9023(4) 0.8819(3)
C4_3 C 0.0147(5) 0.8460(5) 0.8559(3)
C5_3 C 0.0773(5) 0.9093(5) 0.8548(3)
H4_3 H 0.0715 0.9556 0.8357
C7_3 C 0.2682(5) 0.9799(5) 0.9188(3)
H6_3 H 0.2663 0.9430 0.9432
C8_3 C 0.2117(4) 0.9677(4) 0.8825(2)
N8_2 N 0.8319(3) 0.7845(3) 0.88307(19)
C11_3 C 0.0165(5) 0.5436(4) 0.9156(3)
C12_3 C 0.0660(5) 0.5917(5) 0.8491(3)
H10_3 H 0.0627 0.6299 0.8253
C13_3 C 0.0763(5) 0.4811(5) 0.9171(3)
H11_3 H 0.0781 0.4440 0.9414
C14_3 C 0.2022(4) 0.4046(4) 0.8824(2)
C15_3 C 0.1351(4) 0.4731(4) 0.8818(2)
C16_3 C 0.1297(5) 0.5284(5) 0.8474(3)
H12_3 H 0.1670 0.5249 0.8231
C17_3 C 0.1961(5) 0.3353(4) 0.9112(3)
H13_3 H 0.1502 0.3301 0.9309
C18_3 C 0.2715(5) 0.4100(4) 0.8545(2)
H14_3 H 0.2779 0.4560 0.8354
C19_3 C 0.3324(4) 0.3458(4) 0.8552(2)
H15_3 H 0.3786 0.3490 0.8354
C20_3 C 0.2594(4) 0.2749(5) 0.9099(2)
H16_3 H 0.2549 0.2281 0.9287
C21_3 C 0.5902(4) 0.9924(4) 0.8454(2)
H17_3 H 0.5977 0.9605 0.8194
C24_3 C 0.7069(4) 0.9124(4) 0.8833(2)
C25_3 C 0.6418(4) 0.9774(4) 0.8829(3)
C27_3 C 0.7042(4) 0.8445(4) 0.8534(2)
H21_3 H 0.6603 0.8411 0.8323
C28_3 C 0.7664(4) 0.7821(4) 0.8547(2)
H22_3 H 0.7620 0.7367 0.8350
C29_3 C 0.7758(5) 0.9146(4) 0.9125(2)
H23_3 H 0.7820 0.9593 0.9326
C30_3 C 0.8360(4) 0.8496(4) 0.9117(2)
H24_3 H 0.8811 0.8515 0.9320
O1_3 O 0.9286(3) 0.6907(3) 0.96306(15)
H3_3 H 0.9684 0.8507 0.8363
H9_3 H 0.9772 0.5475 0.9390
O13_3 O 0.9244(4) 0.6989(4) 0.79766(18)
H49_3 H 0.97157 0.662764 0.78611
H50_3 H 0.868867 0.677985 0.785758
Cu1_2 Cu 0.57756(4) 0.30698(4) 0.38371(3)
O1_4 O 0.5714(3) 0.3093(3) 0.46306(15)
N1_4 N 0.4827(3) 0.2203(3) 0.3830(2)
C1_4 C 0.4148(4) 0.2258(5) 0.4101(2)
H1_4 H 0.4115 0.2714 0.4298
O2_3 O 0.6634(4) 0.2951(5) 0.5278(2)
C2_4 C 0.3501(4) 0.1679(4) 0.4103(3)
H2_4 H 0.3034 0.1752 0.4294
S2_4 S 0.40257(10) 0.21736(11) 0.75451(5)
O3_3 O 0.5668(5) 0.1849(4) 0.50776(19)
N3_4 N 0.4887(3) 0.4004(3) 0.3822(2)
C3_4 C 0.3540(4) 0.0977(4) 0.3819(3)
S3_3 S 0.58250(11) 0.27392(11) 0.50810(5)
O4_4 O 0.3851(4) 0.3075(3) 0.74823(18)
N4_2 N 0.1728(3) 0.7193(3) 0.38270(19)
C4_4 C 0.4853(5) 0.1540(5) 0.3559(3)
H3_4 H 0.5316 0.1493 0.3363
C5_4 C 0.4227(5) 0.0907(5) 0.3548(3)
H4_4 H 0.4285 0.0444 0.3357
C7_4 C 0.2318(5) 0.0201(5) 0.4188(3)
H6_4 H 0.2337 0.0570 0.4432
C8_4 C 0.2883(4) 0.0323(4) 0.3825(2)
O8_4 O 0.3361(4) 0.1659(4) 0.7355(2)
C11_4 C 0.4835(5) 0.4564(4) 0.4156(3)
H9_4 H 0.5228 0.4525 0.4390
C12_4 C 0.4340(5) 0.4083(5) 0.3491(3)
H10_4 H 0.4373 0.3701 0.3253
C13_4 C 0.4237(5) 0.5189(5) 0.4171(3)
H11_4 H 0.4219 0.5560 0.4414
O13_4 O 0.5756(4) 0.3011(4) 0.29766(18)
C14_4 C 0.2978(4) 0.5954(4) 0.3824(2)
C15_4 C 0.3649(4) 0.5269(4) 0.3818(2)
C16_4 C 0.3703(5) 0.4716(5) 0.3474(3)
H12_4 H 0.3330 0.4751 0.3231
C17_4 C 0.3039(5) 0.6647(4) 0.4112(3)
H13_4 H 0.3498 0.6699 0.4309
C18_4 C 0.2285(5) 0.5900(4) 0.3545(2)
H14_4 H 0.2221 0.5440 0.3354
C19_4 C 0.1676(4) 0.6542(4) 0.3552(2)
H15_4 H 0.1214 0.6510 0.3354
C20_4 C 0.2406(4) 0.7251(5) 0.4099(2)
H16_4 H 0.2451 0.7719 0.4287
C41_3 C 0.5018(6) 0.3220(6) 0.5411(3)
H33_3 H 0.5118 0.3825 0.5423
H34_4 H 0.4466 0.3128 0.5270
C42_4 C 0.4995(5) 0.2867(6) 0.5892(3)
C43_4 C 0.4587(6) 0.2139(7) 0.5996(3)
H35_4 H 0.4307 0.1845 0.5768
C44_4 C 0.4568(6) 0.1807(6) 0.6434(2)
H36_4 H 0.4278 0.1306 0.6494
C45_4 C 0.4983(4) 0.2230(5) 0.6775(2)
C46_4 C 0.4975(5) 0.1936(5) 0.7243(2)
H37_3 H 0.5457 0.2187 0.7399
H38_3 H 0.5057 0.1327 0.7244
C47_3 C 0.5415(6) 0.2982(6) 0.6666(3)
H39_3 H 0.5701 0.3280 0.6890
C48_3 C 0.5420(6) 0.3287(6) 0.6228(3)
H40_3 H 0.5716 0.3782 0.6162
N10_2 N 0.6709(3) 0.3963(3) 0.3843(2)
N11_2 N 0.6681(3) 0.2155(3) 0.38307(19)
H49_4 H 0.52843 0.337236 0.28611
H50_4 H 0.631133 0.322015 0.285758
S1_4 S 0.2307(2) 0.7761(2) 0.76284(9)
N2_4 N 0.1654(3) 0.9015(3) 0.3842(2)
S4_4 S 0.06975(15) 0.77826(18) 0.51030(7)
O6_4 O 0.3032(5) 0.7347(6) 0.7435(3)
C6_4 C 0.2760(6) 0.9781(6) 0.3470(3)
H5_4 H 0.3077 0.9859 0.3208
O7_4 O 0.2335(6) 0.8657(6) 0.7533(2)
C9_4 C 0.1744(5) 0.9552(5) 0.4191(3)
H7_4 H 0.1400 0.9477 0.4443
O9_4 O 0.2151(6) 0.7528(5) 0.8091(2)
C10_4 C 0.2182(5) 0.9126(5) 0.3490(3)
H8_4 H 0.2155 0.8746 0.3251
O11_4 O 0.0832(7) 0.6877(5) 0.5145(3)
O12_4 O 0.0862(3) 0.8051(4) 0.46462(16)
H19_4 H 0.0066 0.9370 0.3215
H26_4 H 0.0337 0.6504 0.4357
C49_4 C 0.1553(8) 0.8177(10) 0.5439(4)
H41_4 H 0.2091 0.7965 0.5320
H42_4 H 0.1564 0.8789 0.5418
C50_4 C 0.1480(8) 0.7928(9) 0.5918(4)
C51_4 C 0.0954(11) 0.8365(11) 0.6210(4)
H43_4 H 0.0586 0.8773 0.6093
C52_4 C 0.0948(10) 0.8220(10) 0.6683(4)
H44_4 H 0.0650 0.8579 0.6876
C53_4 C 0.1399(8) 0.7528(8) 0.6849(4)
C54_4 C 0.1403(7) 0.7335(8) 0.7343(3)
H45_4 H 0.1395 0.6726 0.7384
H46_4 H 0.0885 0.7562 0.7477
C55_4 C 0.1894(8) 0.7042(8) 0.6555(4)
H47_4 H 0.2188 0.6578 0.6670
C56_4 C 0.1975(9) 0.7234(10) 0.6065(4)
H48_4 H 0.2322 0.6921 0.5872
C21_4 C 0.9098(4) 0.0076(4) 0.3454(2)
H17_4 H 0.9023 0.0395 0.3194
C24_4 C 0.7931(4) 0.0876(4) 0.3833(2)
C25_4 C 0.8582(4) 0.0226(4) 0.3829(3)
C27_4 C 0.7958(4) 0.1555(4) 0.3534(2)
H21_4 H 0.8397 0.1589 0.3323
C28_4 C 0.7336(4) 0.2179(4) 0.3547(2)
H22_4 H 0.7380 0.2633 0.3350
C29_4 C 0.7242(5) 0.0854(4) 0.4125(2)
H23_4 H 0.7180 0.0407 0.4326
C30_4 C 0.6640(4) 0.1504(4) 0.4117(2)
H24_4 H 0.6189 0.1485 0.4320
N5_4 N 0.9851(3) 0.8958(3) 0.3828(2)
N7_4 N 0.9886(3) 0.7146(3) 0.3838(2)
O10_4 O 0.9866(5) 0.8025(7) 0.5264(3)
C22_4 C 0.9328(5) 0.9087(5) 0.4185(3)
H18_4 H 0.9388 0.8732 0.4433
C23_4 C 0.9723(4) 0.9450(4) 0.3467(3)
C26_4 C 0.8723(5) 0.9701(5) 0.4203(3)
H20_4 H 0.8400 0.9774 0.4464
C31_4 C 0.9247(4) 0.7147(4) 0.3535(2)
H25_4 H 0.9216 0.7589 0.3329
C32_4 C 0.9910(5) 0.6509(4) 0.4139(3)
C33_4 C 0.8637(4) 0.6518(4) 0.3518(2)
H27_4 H 0.8212 0.6532 0.3299
C34_4 C 0.9319(5) 0.5869(4) 0.4130(2)
H28_4 H 0.9370 0.5427 0.4335
C35_4 C 0.8658(4) 0.5859(4) 0.3831(2)
C36_4 C 0.7993(4) 0.5189(4) 0.3835(2)
C37_4 C 0.7441(5) 0.5072(5) 0.3478(3)
H29_4 H 0.7498 0.5407 0.3223
C38_4 C 0.7857(4) 0.4671(4) 0.4194(2)
H30_4 H 0.8200 0.4727 0.4448
C39_4 C 0.6818(5) 0.4480(5) 0.3494(3)
H31_4 H 0.6448 0.4431 0.3250
C40_4 C 0.7223(4) 0.4067(5) 0.4190(3)
H32_4 H 0.7155 0.3721 0.4440
O2_4 O 0.8366(4) 0.7049(5) 0.0278(2)
O3_4 O 0.9332(5) 0.8151(4) 0.00776(19)
S3_4 S 0.91750(11) 0.72608(11) 0.00810(5)
C41_4 C 0.9982(6) 0.6780(6) 0.0411(3)
H33_4 H 0.9882 0.6175 0.0423
H37_4 H 0.9543 0.7813 0.2399
H38_4 H 0.9943 0.8673 0.2244
C47_4 C 0.9585(6) 0.7018(6) 0.1666(3)
H39_4 H 0.9299 0.6720 0.1890
C48_4 C 0.9580(6) 0.6713(6) 0.1228(3)
H40_4 H 0.9284 0.6218 0.1162
loop_
_geom_bond_atom_site_label_1
_geom_bond_atom_site_label_2
_geom_bond_site_symmetry_1
_geom_bond_site_symmetry_2
Cu1 O1 1_555 1_555
O1 S3 1_555 1_555
O2 S3 1_555 1_555
O3 S3 1_555 1_555
S3 C41 1_555 1_555
O13 Cu1 1_555 1_555
C41 H33 1_555 1_555
H39 C47 1_555 1_555
H40 C48 1_555 1_555
N10 Cu1 1_555 1_555
N11 Cu1 1_555 1_555
C47 C48 1_555 1_555
O13 H49 1_555 1_555
O13 H50 1_555 1_555
N10 C39 1_555 1_555
H30 C38 1_555 1_555
H31 C39 1_555 1_555
C40 N10 1_555 1_555
H32 C40 1_555 1_555
C38 C40 1_555 1_555
C1 N1 1_555 1_555
H1 C1 1_555 1_555
S1 O6 1_555 1_555
N2 Cu2 1_555 1_555
Cu2 N5 1_555 1_555
C2 C1 1_555 1_555
H2 C2 1_555 1_555
S2 O4 1_555 1_555
C3 C2 1_555 1_555
C4 N1 1_555 1_555
S4 O10 1_555 1_555
O5 S2 1_555 1_555
N5 C22 1_555 1_555
C5 C3 1_555 1_555
H4 C5 1_555 1_555
C6 H5 1_555 1_555
C7 H6 1_555 1_555
N7 Cu2 1_555 1_555
O7 S1 1_555 1_555
C8 C3 1_555 1_555
N11 C28 1_555 1_555
O8 S2 1_555 1_555
C9 N2 1_555 1_555
H7 C9 1_555 1_555
O9 S1 1_555 1_555
C10 N2 1_555 1_555
H8 C10 1_555 1_555
C11 N3 1_555 1_555
O11 S4 1_555 1_555
C12 N3 1_555 1_555
H10 C12 1_555 1_555
O12 Cu2 1_555 1_555
C16 C12 1_555 1_555
H12 C16 1_555 1_555
C21 H17 1_555 1_555
C22 H18 1_555 1_555
C23 N5 1_555 1_555
H19 C23 1_555 1_555
C24 C25 1_555 1_555
C25 C21 1_555 1_555
C26 C22 1_555 1_555
H20 C26 1_555 1_555
C27 C24 1_555 1_555
H21 C27 1_555 1_555
C28 C27 1_555 1_555
H22 C28 1_555 1_555
C29 C24 1_555 1_555
H23 C29 1_555 1_555
C30 N11 1_555 1_555
H24 C30 1_555 1_555
C31 N7 1_555 1_555
H25 C31 1_555 1_555
C32 N7 1_555 1_555
H26 C32 1_555 1_555
C33 C31 1_555 1_555
H27 C33 1_555 1_555
C34 C32 1_555 1_555
H28 C34 1_555 1_555
C35 C33 1_555 1_555
C36 C35 1_555 1_555
C37 C36 1_555 1_555
H29 C37 1_555 1_555
C43 C42 1_555 1_555
H35 C43 1_555 1_555
C44 C43 1_555 1_555
H36 C44 1_555 1_555
C45 C44 1_555 1_555
C46 S2 1_555 1_555
C49 S4 1_555 1_555
H41 C49 1_555 1_555
H42 C49 1_555 1_555
C50 C49 1_555 1_555
C51 C50 1_555 1_555
H43 C51 1_555 1_555
C52 C51 1_555 1_555
H44 C52 1_555 1_555
C53 C52 1_555 1_555
C54 S1 1_555 1_555
H45 C54 1_555 1_555
H46 C54 1_555 1_555
C55 C53 1_555 1_555
H47 C55 1_555 1_555
C56 C50 1_555 1_555
H48 C56 1_555 1_555
Cu6 O5 1_555 1_555
N9 Cu2 1_555 1_555
O14 Cu2 1_555 1_555
C4 C5 1_555 1_555
S4 O12 1_555 1_555
C6 C8 1_555 1_555
C6 C10 1_555 1_555
C7 C8 1_555 1_555
C7 C9 1_555 1_555
C21 C23 1_555 1_555
C25 C26 1_555 1_555
C29 C30 1_555 1_555
C34 C35 1_555 1_555
C45 C46 1_555 1_555
C53 C54 1_555 1_555
C55 C56 1_555 1_555
N9 C19 1_555 1_555
H11 C13 1_555 1_555
C14 C15 1_555 1_555
C15 C13 1_555 1_555
C17 C14 1_555 1_555
H13 C17 1_555 1_555
C18 C14 1_555 1_555
H14 C18 1_555 1_555
C19 C18 1_555 1_555
H15 C19 1_555 1_555
C20 N9 1_555 1_555
H16 C20 1_555 1_555
C17 C20 1_555 1_555
N5_2 C22_2 1_555 1_555
N8 C28_2 1_555 1_555
C21_2 H17_2 1_555 1_555
C22_2 H18_2 1_555 1_555
C23_2 N5_2 1_555 1_555
C24_2 C25_2 1_555 1_555
C25_2 C21_2 1_555 1_555
C26_2 C22_2 1_555 1_555
H20_2 C26_2 1_555 1_555
C27_2 C24_2 1_555 1_555
H21_2 C27_2 1_555 1_555
C28_2 C27_2 1_555 1_555
H22_2 C28_2 1_555 1_555
C29_2 C24_2 1_555 1_555
H23_2 C29_2 1_555 1_555
C30_2 N8 1_555 1_555
H24_2 C30_2 1_555 1_555
C31_2 N7_2 1_555 1_555
H25_2 C31_2 1_555 1_555
C32_2 N7_2 1_555 1_555
C33_2 C31_2 1_555 1_555
H27_2 C33_2 1_555 1_555
C34_2 C32_2 1_555 1_555
H28_2 C34_2 1_555 1_555
C35_2 C33_2 1_555 1_555
C36_2 C35_2 1_555 1_555
C37_2 C36_2 1_555 1_555
H29_2 C37_2 1_555 1_555
Cu3 N8 1_555 1_555
C21_2 C23_2 1_555 1_555
C25_2 C26_2 1_555 1_555
C29_2 C30_2 1_555 1_555
C34_2 C35_2 1_555 1_555
N6 C39_2 1_555 1_555
H30_2 C38_2 1_555 1_555
H31_2 C39_2 1_555 1_555
C40_2 N6 1_555 1_555
H32_2 C40_2 1_555 1_555
Cu3 N6 1_555 1_555
C38_2 C40_2 1_555 1_555
N4 C19_2 1_555 1_555
H11_2 C13_2 1_555 1_555
C14_2 C15_2 1_555 1_555
C15_2 C13_2 1_555 1_555
C17_2 C14_2 1_555 1_555
H13_2 C17_2 1_555 1_555
C18_2 C14_2 1_555 1_555
H14_2 C18_2 1_555 1_555
C19_2 C18_2 1_555 1_555
H15_2 C19_2 1_555 1_555
C20_2 N4 1_555 1_555
H16_2 C20_2 1_555 1_555
Cu6 N4 1_555 1_555
C17_2 C20_2 1_555 1_555
Cu3 O1_2 1_555 1_555
N1_2 Cu3 1_555 1_555
C1_2 N1_2 1_555 1_555
H1_2 C1_2 1_555 1_555
N2_2 Cu6 1_555 1_555
C2_2 C1_2 1_555 1_555
H2_2 C2_2 1_555 1_555
N3_2 Cu3 1_555 1_555
C3_2 C2_2 1_555 1_555
C4_2 N1_2 1_555 1_555
H3_2 C4_2 1_555 1_555
C5_2 C3_2 1_555 1_555
H4_2 C5_2 1_555 1_555
C6_2 H5_2 1_555 1_555
C7_2 H6_2 1_555 1_555
C8_2 C3_2 1_555 1_555
C9_2 N2_2 1_555 1_555
H7_2 C9_2 1_555 1_555
C10_2 N2_2 1_555 1_555
H8_2 C10_2 1_555 1_555
C11_2 N3_2 1_555 1_555
H9_2 C11_2 1_555 1_555
C12_2 N3_2 1_555 1_555
H10_2 C12_2 1_555 1_555
O12_2 Cu6 1_555 1_555
O13_2 Cu3 1_555 1_555
C16_2 C12_2 1_555 1_555
H12_2 C16_2 1_555 1_555
C4_2 C5_2 1_555 1_555
C6_2 C8_2 1_555 1_555
C6_2 C10_2 1_555 1_555
C7_2 C8_2 1_555 1_555
C7_2 C9_2 1_555 1_555
O13_2 H49_2 1_555 1_555
O13_2 H50_2 1_555 1_555
S1_2 O6_2 1_555 1_555
O2_2 S3_2 1_555 1_555
S2_2 O4_2 1_555 1_555
O3_2 S3_2 1_555 1_555
S3_2 C41_2 1_555 1_555
O14 S2_2 1_555 1_555
O7_2 S1_2 1_555 1_555
O8_2 S2_2 1_555 1_555
O9_2 S1_2 1_555 1_555
O11_2 S4_2 1_555 1_555
C41_2 H33_2 1_555 1_555
H34_2 C41_2 1_555 1_555
C42_2 C41_2 1_555 1_555
C43_2 C42_2 1_555 1_555
H35_2 C43_2 1_555 1_555
C44_2 C43_2 1_555 1_555
H36_2 C44_2 1_555 1_555
C45_2 C44_2 1_555 1_555
C46_2 S2_2 1_555 1_555
H37_2 C46_2 1_555 1_555
H38_2 C46_2 1_555 1_555
C47_2 C45_2 1_555 1_555
H39_2 C47_2 1_555 1_555
C48_2 C42_2 1_555 1_555
H40_2 C48_2 1_555 1_555
C49_2 S4_2 1_555 1_555
H41_2 C49_2 1_555 1_555
H42_2 C49_2 1_555 1_555
C50_2 C49_2 1_555 1_555
C51_2 C50_2 1_555 1_555
H43_2 C51_2 1_555 1_555
C52_2 C51_2 1_555 1_555
H44_2 C52_2 1_555 1_555
C53_2 C52_2 1_555 1_555
C54_2 S1_2 1_555 1_555
H45_2 C54_2 1_555 1_555
H46_2 C54_2 1_555 1_555
C55_2 C53_2 1_555 1_555
H47_2 C55_2 1_555 1_555
C56_2 C50_2 1_555 1_555
H48_2 C56_2 1_555 1_555
C45_2 C46_2 1_555 1_555
C47_2 C48_2 1_555 1_555
C53_2 C54_2 1_555 1_555
C55_2 C56_2 1_555 1_555
S1_3 O6_3 1_555 1_555
S4_3 O10_3 1_555 1_555
O7_3 S1_3 1_555 1_555
O9_3 S1_3 1_555 1_555
O11_3 S4_3 1_555 1_555
C49_3 S4_3 1_555 1_555
H41_3 C49_3 1_555 1_555
H42_3 C49_3 1_555 1_555
C50_3 C49_3 1_555 1_555
C51_3 C50_3 1_555 1_555
H43_3 C51_3 1_555 1_555
C52_3 C51_3 1_555 1_555
H44_3 C52_3 1_555 1_555
C53_3 C52_3 1_555 1_555
C54_3 S1_3 1_555 1_555
H45_3 C54_3 1_555 1_555
H46_3 C54_3 1_555 1_555
C55_3 C53_3 1_555 1_555
H47_3 C55_3 1_555 1_555
C56_3 C50_3 1_555 1_555
H48_3 C56_3 1_555 1_555
C53_3 C54_3 1_555 1_555
C55_3 C56_3 1_555 1_555
N2_3 Cu2_2 1_555 1_555
Cu2_2 N5_3 1_555 1_555
N5_3 C22_3 1_555 1_555
N6_2 C39_3 1_555 1_555
C6_3 H5_3 1_555 1_555
N7_3 Cu2_2 1_555 1_555
C9_3 N2_3 1_555 1_555
H7_3 C9_3 1_555 1_555
C10_3 N2_3 1_555 1_555
H8_3 C10_3 1_555 1_555
O12_3 Cu2_2 1_555 1_555
C22_3 H18_3 1_555 1_555
C23_3 N5_3 1_555 1_555
H19_3 C23_3 1_555 1_555
C26_3 C22_3 1_555 1_555
H20_3 C26_3 1_555 1_555
C31_3 N7_3 1_555 1_555
H25_3 C31_3 1_555 1_555
C32_3 N7_3 1_555 1_555
H26_3 C32_3 1_555 1_555
C33_3 C31_3 1_555 1_555
H27_3 C33_3 1_555 1_555
C34_3 C32_3 1_555 1_555
H28_3 C34_3 1_555 1_555
C35_3 C33_3 1_555 1_555
C36_3 C35_3 1_555 1_555
C37_3 C36_3 1_555 1_555
H29_3 C37_3 1_555 1_555
C38_3 C36_3 1_555 1_555
H30_3 C38_3 1_555 1_555
C39_3 C37_3 1_555 1_555
H31_3 C39_3 1_555 1_555
C40_3 N6_2 1_555 1_555
H32_3 C40_3 1_555 1_555
Cu4 N6_2 1_555 1_555
N9_2 Cu2_2 1_555 1_555
O14_2 Cu2_2 1_555 1_555
C6_3 C10_3 1_555 1_555
C34_3 C35_3 1_555 1_555
C38_3 C40_3 1_555 1_555
S2_3 O4_3 1_555 1_555
O5_2 S2_3 1_555 1_555
O8_3 S2_3 1_555 1_555
C43_3 C42_3 1_555 1_555
H35_3 C43_3 1_555 1_555
C44_3 C43_3 1_555 1_555
H36_3 C44_3 1_555 1_555
C45_3 C44_3 1_555 1_555
C46_3 S2_3 1_555 1_555
Cu6_2 O5_2 1_555 1_555
C45_3 C46_3 1_555 1_555
C1_3 N1_3 1_555 1_555
H1_3 C1_3 1_555 1_555
C2_3 C1_3 1_555 1_555
H2_3 C2_3 1_555 1_555
C3_3 C2_3 1_555 1_555
N9_2 C19_3 1_555 1_555
C4_3 N1_3 1_555 1_555
C5_3 C3_3 1_555 1_555
H4_3 C5_3 1_555 1_555
C7_3 H6_3 1_555 1_555
C8_3 C3_3 1_555 1_555
N8_2 C28_3 1_555 1_555
C11_3 N3_3 1_555 1_555
C12_3 N3_3 1_555 1_555
H10_3 C12_3 1_555 1_555
C13_3 C11_3 1_555 1_555
H11_3 C13_3 1_555 1_555
C14_3 C15_3 1_555 1_555
C15_3 C13_3 1_555 1_555
C16_3 C12_3 1_555 1_555
H12_3 C16_3 1_555 1_555
C17_3 C14_3 1_555 1_555
H13_3 C17_3 1_555 1_555
C18_3 C14_3 1_555 1_555
H14_3 C18_3 1_555 1_555
C19_3 C18_3 1_555 1_555
H15_3 C19_3 1_555 1_555
C20_3 N9_2 1_555 1_555
H16_3 C20_3 1_555 1_555
C21_3 H17_3 1_555 1_555
C24_3 C25_3 1_555 1_555
C25_3 C21_3 1_555 1_555
C27_3 C24_3 1_555 1_555
H21_3 C27_3 1_555 1_555
C28_3 C27_3 1_555 1_555
H22_3 C28_3 1_555 1_555
C29_3 C24_3 1_555 1_555
H23_3 C29_3 1_555 1_555
C30_3 N8_2 1_555 1_555
H24_3 C30_3 1_555 1_555
Cu4 N8_2 1_555 1_555
C4_3 C5_3 1_555 1_555
C7_3 C8_3 1_555 1_555
C15_3 C16_3 1_555 1_555
C17_3 C20_3 1_555 1_555
C29_3 C30_3 1_555 1_555
Cu4 O1_3 1_555 1_555
O13_3 Cu4 1_555 1_555
O13_3 H49_3 1_555 1_555
O13_3 H50_3 1_555 1_555
Cu1_2 O1_4 1_555 1_555
O1_4 S3_3 1_555 1_555
N1_4 Cu1_2 1_555 1_555
C1_4 N1_4 1_555 1_555
H1_4 C1_4 1_555 1_555
O2_3 S3_3 1_555 1_555
C2_4 C1_4 1_555 1_555
H2_4 C2_4 1_555 1_555
S2_4 O4_4 1_555 1_555
O3_3 S3_3 1_555 1_555
N3_4 Cu1_2 1_555 1_555
C3_4 C2_4 1_555 1_555
S3_3 C41_3 1_555 1_555
N4_2 C19_4 1_555 1_555
C4_4 N1_4 1_555 1_555
H3_4 C4_4 1_555 1_555
O14_2 S2_4 1_555 1_555
C5_4 C3_4 1_555 1_555
H4_4 C5_4 1_555 1_555
C7_4 H6_4 1_555 1_555
C8_4 C3_4 1_555 1_555
O8_4 S2_4 1_555 1_555
C11_4 N3_4 1_555 1_555
H9_4 C11_4 1_555 1_555
C12_4 N3_4 1_555 1_555
H10_4 C12_4 1_555 1_555
C13_4 C11_4 1_555 1_555
H11_4 C13_4 1_555 1_555
O13_4 Cu1_2 1_555 1_555
C14_4 C15_4 1_555 1_555
C15_4 C13_4 1_555 1_555
C16_4 C12_4 1_555 1_555
H12_4 C16_4 1_555 1_555
C17_4 C14_4 1_555 1_555
H13_4 C17_4 1_555 1_555
C18_4 C14_4 1_555 1_555
H14_4 C18_4 1_555 1_555
C19_4 C18_4 1_555 1_555
H15_4 C19_4 1_555 1_555
C20_4 N4_2 1_555 1_555
H16_4 C20_4 1_555 1_555
C41_3 H33_3 1_555 1_555
H34_4 C41_3 1_555 1_555
C42_4 C41_3 1_555 1_555
C43_4 C42_4 1_555 1_555
H35_4 C43_4 1_555 1_555
C44_4 C43_4 1_555 1_555
H36_4 C44_4 1_555 1_555
C45_4 C44_4 1_555 1_555
C46_4 S2_4 1_555 1_555
H37_3 C46_4 1_555 1_555
H38_3 C46_4 1_555 1_555
C47_3 C45_4 1_555 1_555
H39_3 C47_3 1_555 1_555
C48_3 C42_4 1_555 1_555
H40_3 C48_3 1_555 1_555
Cu6_2 N4_2 1_555 1_555
N10_2 Cu1_2 1_555 1_555
N11_2 Cu1_2 1_555 1_555
C4_4 C5_4 1_555 1_555
C7_4 C8_4 1_555 1_555
C15_4 C16_4 1_555 1_555
C17_4 C20_4 1_555 1_555
C45_4 C46_4 1_555 1_555
C47_3 C48_3 1_555 1_555
O13_4 H49_4 1_555 1_555
O13_4 H50_4 1_555 1_555
S1_4 O6_4 1_555 1_555
N2_4 Cu6_2 1_555 1_555
C6_4 H5_4 1_555 1_555
O7_4 S1_4 1_555 1_555
C9_4 N2_4 1_555 1_555
H7_4 C9_4 1_555 1_555
O9_4 S1_4 1_555 1_555
C10_4 N2_4 1_555 1_555
H8_4 C10_4 1_555 1_555
O11_4 S4_4 1_555 1_555
O12_4 Cu6_2 1_555 1_555
C49_4 S4_4 1_555 1_555
H41_4 C49_4 1_555 1_555
H42_4 C49_4 1_555 1_555
C50_4 C49_4 1_555 1_555
C51_4 C50_4 1_555 1_555
H43_4 C51_4 1_555 1_555
C52_4 C51_4 1_555 1_555
H44_4 C52_4 1_555 1_555
C53_4 C52_4 1_555 1_555
C54_4 S1_4 1_555 1_555
H45_4 C54_4 1_555 1_555
H46_4 C54_4 1_555 1_555
C55_4 C53_4 1_555 1_555
H47_4 C55_4 1_555 1_555
C56_4 C50_4 1_555 1_555
H48_4 C56_4 1_555 1_555
S4_4 O12_4 1_555 1_555
C6_4 C10_4 1_555 1_555
C53_4 C54_4 1_555 1_555
C55_4 C56_4 1_555 1_555
N11_2 C28_4 1_555 1_555
C21_4 H17_4 1_555 1_555
C24_4 C25_4 1_555 1_555
C25_4 C21_4 1_555 1_555
C27_4 C24_4 1_555 1_555
H21_4 C27_4 1_555 1_555
C28_4 C27_4 1_555 1_555
H22_4 C28_4 1_555 1_555
C29_4 C24_4 1_555 1_555
H23_4 C29_4 1_555 1_555
C30_4 N11_2 1_555 1_555
H24_4 C30_4 1_555 1_555
C29_4 C30_4 1_555 1_555
N5_4 C22_4 1_555 1_555
N10_2 C39_4 1_555 1_555
C22_4 H18_4 1_555 1_555
C23_4 N5_4 1_555 1_555
C26_4 C22_4 1_555 1_555
H20_4 C26_4 1_555 1_555
C31_4 N7_4 1_555 1_555
H25_4 C31_4 1_555 1_555
C32_4 N7_4 1_555 1_555
C33_4 C31_4 1_555 1_555
H27_4 C33_4 1_555 1_555
C34_4 C32_4 1_555 1_555
H28_4 C34_4 1_555 1_555
C35_4 C33_4 1_555 1_555
C36_4 C35_4 1_555 1_555
C37_4 C36_4 1_555 1_555
H29_4 C37_4 1_555 1_555
C38_4 C36_4 1_555 1_555
H30_4 C38_4 1_555 1_555
C39_4 C37_4 1_555 1_555
H31_4 C39_4 1_555 1_555
C40_4 N10_2 1_555 1_555
H32_4 C40_4 1_555 1_555
C34_4 C35_4 1_555 1_555
C38_4 C40_4 1_555 1_555
O2_4 S3_4 1_555 1_555
O3_4 S3_4 1_555 1_555
S3_4 C41_4 1_555 1_555
C41_4 H33_4 1_555 1_555
H39_4 C47_4 1_555 1_555
H40_4 C48_4 1_555 1_555
C47_4 C48_4 1_555 1_555

#END
