
###############################################################################
#
# This file contains modified crystal structure data generated from the
# MOF subset of the Cambridge Structural Database (CSD) v543 
# hosted by the Cambridge Crystallographic Data Centre (CCDC).
#
# This work is licensed under the Creative Commons
# Attribution-NonCommercial-ShareAlike 4.0 International License.
# To view a copy of this license, visit
# http://creativecommons.org/licenses/by-nc-sa/4.0/
# or send a letter to
# Creative Commons, PO Box 1866, Mountain View, CA 94042, USA.
#
# CIF created using the CSD Python API on 29 September 2022
# The structure has been converted into the P1 space group
# The structure has a 3D framework
# The original CSD entry TASJUT is in the tetragonal crystal system
# The framework has been calculated to contain at least 10.0% void space
# The void calculation uses a probe of radius 1.32A, grid spacing 0.4
# The framework is charged, counterions have been retained in the structure
#
###############################################################################

data_TASJUT
_chemical_formula_moiety         '(C416 H352 Ag28 N160 O96 4-)n'
_symmetry_cell_setting           triclinic
_symmetry_space_group_name_H-M   'P 1'
_symmetry_Int_Tables_number      1
_space_group_name_Hall           'P 1'
loop_
_symmetry_equiv_pos_site_id
_symmetry_equiv_pos_as_xyz
1 x,y,z
_cell_length_a                   24.1253(16)
_cell_length_b                   24.1253(16)
_cell_length_c                   23.745(2)
_cell_angle_alpha                90
_cell_angle_beta                 90
_cell_angle_gamma                90
_cell_volume                     13820.3
loop_
_atom_site_label
_atom_site_type_symbol
_atom_site_fract_x
_atom_site_fract_y
_atom_site_fract_z
N5 N 0.3270(3) 0.1388(3) 0.0043(3)
N6 N 0.4203(3) 0.2030(3) 0.0032(3)
C14 C 0.3314(4) 0.1852(4) 0.0339(4)
H12 H 0.3013 0.1964 0.0556
C15 C 0.3779(4) 0.2172(4) 0.0339(4)
H13 H 0.3795 0.2491 0.0559
Ag3 Ag 0.2500 0.07851(4) -0.0000
Ag4 Ag 0.5000 0.2500 0.00519(6)
Ag1 Ag 0.32851(4) 0.0000 0.7500
Ag2 Ag 0.5000 0.2500 0.74481(6)
N1 N 0.3888(3) 0.0770(3) 0.7457(3)
N2 N 0.4530(3) 0.1703(3) 0.7468(3)
N3 N 0.2972(2) 0.0688(2) 0.8093(3)
N4 N 0.2438(2) 0.0681(3) 0.8350(3)
C1 C 0.4352(4) 0.0814(4) 0.7161(4)
H1 H 0.4464 0.0513 0.6944
C2 C 0.4672(4) 0.1279(4) 0.7161(4)
H2 H 0.4991 0.1295 0.6941
C3 C 0.4067(3) 0.1659(3) 0.7777(4)
H3 H 0.3969 0.1951 0.8014
C4 C 0.3736(3) 0.1205(3) 0.7758(3)
C5 C 0.3205(3) 0.1166(3) 0.8074(3)
C6 C 0.2990(4) 0.1675(3) 0.8396(4)
H4 H 0.2645 0.1585 0.8577
H5 H 0.2933 0.1976 0.8138
H6 H 0.3256 0.1783 0.8676
C7 C 0.2344(3) 0.0274(3) 0.8679(3)
C8 C 0.1802(3) 0.0232(3) 0.8930(3)
C9 C 0.1394(3) 0.0633(4) 0.8778(4)
H7 H 0.1482 0.0920 0.8532
C10 C 0.0874(4) 0.0591(5) 0.8999(5)
H8 H 0.0607 0.0853 0.8906
C11 C 0.0740(4) 0.0157(5) 0.9364(5)
H9 H 0.0377 0.0119 0.9492
N7 N 0.3188(2) 0.0472(2) 0.9407(3)
C16 C 0.4159(3) 0.1567(3) 0.9723(4)
H14 H 0.4451 0.1469 0.9486
C17 C 0.3705(3) 0.1236(3) 0.9742(3)
C18 C 0.3666(3) 0.0705(3) 0.9426(3)
C19 C 0.4175(3) 0.0490(4) 0.9104(4)
H15 H 0.4085 0.0145 0.8923
H16 H 0.4476 0.0433 0.9362
H17 H 0.4283 0.0756 0.8824
Ag3_2 Ag 0.2500 0.07851(4) 1.0000
N10 N 0.5470(3) 0.3297(3) 0.7468(3)
Ag1_2 Ag 0.32851(4) 1.0000 0.7500
C12 C 0.1139(4) 0.9784(5) 0.9536(4)
H10 H 0.1052 0.9512 0.9798
C13 C 0.1675(4) 0.9816(4) 0.9316(4)
H11 H 0.1945 0.9563 0.9426
N8 N 0.3181(3) 0.9938(2) 0.9150(3)
C20 C 0.2774(3) 0.9844(3) 0.8821(3)
C21 C 0.2732(3) 0.9302(3) 0.8570(3)
C22 C 0.3133(4) 0.8894(3) 0.8722(4)
H18 H 0.3420 0.8982 0.8968
C23 C 0.3091(5) 0.8374(4) 0.8501(5)
H19 H 0.3353 0.8107 0.8594
C24 C 0.2657(5) 0.8240(4) 0.8136(5)
H20 H 0.2619 0.7877 0.8008
C25 C 0.2284(5) 0.8639(4) 0.7964(4)
H21 H 0.2012 0.8552 0.7702
C26 C 0.2316(4) 0.9175(4) 0.8184(4)
H22 H 0.2063 0.9445 0.8074
N9 N 0.3888(3) 0.9230(3) 0.7543(3)
N11 N 0.2972(2) 0.9312(2) 0.6907(3)
N3_2 N 0.1812(2) 0.0472(2) 0.0593(3)
C3_2 C 0.0841(3) 0.1567(3) 0.0277(4)
H3_2 H 0.0549 0.1469 0.0514
C4_2 C 0.1295(3) 0.1236(3) 0.0258(3)
C5_2 C 0.1334(3) 0.0705(3) 0.0574(3)
C6_2 C 0.0825(3) 0.0490(4) 0.0896(4)
H4_2 H 0.0915 0.0145 0.1077
H5_2 H 0.0524 0.0433 0.0638
H6_2 H 0.0717 0.0756 0.1176
N5_2 N 0.1112(3) 0.0770(3) 0.2543(3)
N6_2 N 0.0470(3) 0.1703(3) 0.2532(3)
N7_2 N 0.2028(2) 0.0688(2) 0.1907(3)
N8_2 N 0.2562(2) 0.0681(3) 0.1650(3)
C14_2 C 0.0648(4) 0.0814(4) 0.2839(4)
H12_2 H 0.0536 0.0513 0.3056
C15_2 C 0.0328(4) 0.1279(4) 0.2839(4)
H13_2 H 0.0009 0.1295 0.3059
C16_2 C 0.0933(3) 0.1659(3) 0.2223(4)
H14_2 H 0.1031 0.1951 0.1986
C17_2 C 0.1264(3) 0.1205(3) 0.2242(3)
C18_2 C 0.1795(3) 0.1166(3) 0.1926(3)
C19_2 C 0.2010(4) 0.1675(3) 0.1604(4)
H15_2 H 0.2355 0.1585 0.1423
H16_2 H 0.2067 0.1976 0.1862
H17_2 H 0.1744 0.1783 0.1324
C20_2 C 0.2656(3) 0.0274(3) 0.1321(3)
C21_2 C 0.3198(3) 0.0232(3) 0.1070(3)
C22_2 C 0.3606(3) 0.0633(4) 0.1222(4)
H18_2 H 0.3518 0.0920 0.1468
C23_2 C 0.4126(4) 0.0591(5) 0.1001(5)
H19_2 H 0.4393 0.0853 0.1094
C24_2 C 0.4260(4) 0.0157(5) 0.0636(5)
H20_2 H 0.4623 0.0119 0.0508
Ag3_3 Ag 0.17149(4) 0.0000 0.2500
Ag4_2 Ag -0.0000 0.2500 0.25519(6)
Ag2_2 Ag 0.0000 0.2500 0.99481(6)
N1_2 N 0.1730(3) 0.1388(3) 0.9957(3)
N2_2 N 0.0797(3) 0.2030(3) 0.9968(3)
C1_2 C 0.1686(4) 0.1852(4) 0.9661(4)
H1_2 H 0.1987 0.1964 0.9444
C2_2 C 0.1221(4) 0.2172(4) 0.9661(4)
H2_2 H 0.1205 0.2491 0.9441
N4_2 N 0.1819(3) 0.9938(2) 0.0850(3)
C7_2 C 0.2226(3) 0.9844(3) 0.1179(3)
C8_2 C 0.2268(3) 0.9302(3) 0.1430(3)
C9_2 C 0.1867(4) 0.8894(3) 0.1278(4)
H7_2 H 0.1580 0.8982 0.1032
C10_2 C 0.1909(5) 0.8374(4) 0.1499(5)
H8_2 H 0.1647 0.8107 0.1406
C11_2 C 0.2343(5) 0.8240(4) 0.1864(5)
H9_2 H 0.2381 0.7877 0.1992
C12_2 C 0.2716(5) 0.8639(4) 0.2036(4)
H10_2 H 0.2988 0.8552 0.2298
C13_2 C 0.2684(4) 0.9175(4) 0.1816(4)
H11_2 H 0.2937 0.9445 0.1926
C25_2 C 0.3861(4) 0.9784(5) 0.0464(4)
H21_2 H 0.3948 0.9512 0.0202
C26_2 C 0.3325(4) 0.9816(4) 0.0684(4)
H22_2 H 0.3055 0.9563 0.0574
Ag3_4 Ag 0.17149(4) 1.0000 0.2500
Ag4_3 Ag 1.0000 0.2500 0.25519(6)
Ag2_3 Ag 1.0000 0.2500 0.99481(6)
N10_2 N 0.9203(3) 0.2970(3) 0.9968(3)
N4_3 N 0.3181(3) 0.0062(2) 0.5850(3)
C7_3 C 0.2774(3) 0.0156(3) 0.6179(3)
C8_3 C 0.2732(3) 0.0698(3) 0.6430(3)
C9_3 C 0.3133(4) 0.1106(3) 0.6278(4)
H7_3 H 0.3420 0.1018 0.6032
C10_3 C 0.3091(5) 0.1626(4) 0.6499(5)
H8_3 H 0.3353 0.1893 0.6406
C11_3 C 0.2657(5) 0.1760(4) 0.6864(5)
H9_3 H 0.2619 0.2123 0.6992
C12_3 C 0.2284(5) 0.1361(4) 0.7036(4)
H10_3 H 0.2012 0.1448 0.7298
C13_3 C 0.2316(4) 0.0825(4) 0.6816(4)
H11_3 H 0.2063 0.0555 0.6926
C25_3 C 0.1139(4) 0.0216(5) 0.5464(4)
H21_3 H 0.1052 0.0488 0.5202
C26_3 C 0.1675(4) 0.0184(4) 0.5684(4)
H22_3 H 0.1945 0.0437 0.5574
Ag1_3 Ag 0.2500 0.92149(4) 0.5000
Ag2_4 Ag 0.5000 0.7500 0.49481(6)
N1_3 N 0.3270(3) 0.8612(3) 0.4957(3)
N2_3 N 0.4203(3) 0.7970(3) 0.4968(3)
N3_3 N 0.3188(2) 0.9528(2) 0.5593(3)
C1_3 C 0.3314(4) 0.8148(4) 0.4661(4)
H1_3 H 0.3013 0.8036 0.4444
C2_3 C 0.3779(4) 0.7828(4) 0.4661(4)
H2_3 H 0.3795 0.7509 0.4441
C3_3 C 0.4159(3) 0.8433(3) 0.5277(4)
H3_3 H 0.4451 0.8531 0.5514
C4_3 C 0.3705(3) 0.8764(3) 0.5258(3)
C5_3 C 0.3666(3) 0.9295(3) 0.5574(3)
C6_3 C 0.4175(3) 0.9510(4) 0.5896(4)
H4_3 H 0.4085 0.9855 0.6077
H5_3 H 0.4476 0.9567 0.5638
H6_3 H 0.4283 0.9244 0.6176
N6_3 N 0.4530(3) 0.8297(3) 0.7532(3)
N8_3 N 0.2438(2) 0.9319(3) 0.6650(3)
C14_3 C 0.4352(4) 0.9186(4) 0.7839(4)
H12_3 H 0.4464 0.9487 0.8056
C15_3 C 0.4672(4) 0.8721(4) 0.7839(4)
H13_3 H 0.4991 0.8705 0.8059
C16_3 C 0.4067(3) 0.8341(3) 0.7223(4)
H14_3 H 0.3969 0.8049 0.6986
C17_3 C 0.3736(3) 0.8795(3) 0.7242(3)
C18_3 C 0.3205(3) 0.8834(3) 0.6926(3)
C19_3 C 0.2990(4) 0.8325(3) 0.6604(4)
H15_3 H 0.2645 0.8415 0.6423
H16_3 H 0.2933 0.8024 0.6862
H17_3 H 0.3256 0.8217 0.6324
C20_3 C 0.2344(3) 0.9726(3) 0.6321(3)
C21_3 C 0.1802(3) 0.9768(3) 0.6070(3)
C22_3 C 0.1394(3) 0.9367(4) 0.6222(4)
H18_3 H 0.1482 0.9080 0.6468
C23_3 C 0.0874(4) 0.9409(5) 0.6001(5)
H19_3 H 0.0607 0.9147 0.6094
C24_3 C 0.0740(4) 0.9843(5) 0.5636(5)
H20_3 H 0.0377 0.9881 0.5508
Ag4_4 Ag 0.5000 0.7500 0.75519(6)
N9_2 N 0.1730(3) 0.8612(3) 0.5043(3)
N10_3 N 0.5797(3) 0.7030(3) 0.4968(3)
N11_2 N 0.1812(2) 0.9528(2) 0.4407(3)
N10_4 N 0.5797(3) 0.2970(3) 0.0032(3)
N4_4 N 0.1819(3) 0.0062(2) 0.4150(3)
C7_4 C 0.2226(3) 0.0156(3) 0.3821(3)
C8_4 C 0.2268(3) 0.0698(3) 0.3570(3)
C9_4 C 0.1867(4) 0.1106(3) 0.3722(4)
H7_4 H 0.1580 0.1018 0.3968
C10_4 C 0.1909(5) 0.1626(4) 0.3501(5)
H8_4 H 0.1647 0.1893 0.3594
C11_4 C 0.2343(5) 0.1760(4) 0.3136(5)
H9_4 H 0.2381 0.2123 0.3008
C12_4 C 0.2716(5) 0.1361(4) 0.2964(4)
H10_4 H 0.2988 0.1448 0.2702
C13_4 C 0.2684(4) 0.0825(4) 0.3184(4)
H11_4 H 0.2937 0.0555 0.3074
C25_4 C 0.3861(4) 0.0216(5) 0.4536(4)
H21_4 H 0.3948 0.0488 0.4798
C26_4 C 0.3325(4) 0.0184(4) 0.4316(4)
H22_4 H 0.3055 0.0437 0.4426
Ag2_5 Ag 0.0000 0.7500 0.50519(6)
N2_4 N 0.0797(3) 0.7970(3) 0.5032(3)
C1_4 C 0.1686(4) 0.8148(4) 0.5339(4)
H1_4 H 0.1987 0.8036 0.5556
C2_4 C 0.1221(4) 0.7828(4) 0.5339(4)
H2_4 H 0.1205 0.7509 0.5559
C3_4 C 0.0841(3) 0.8433(3) 0.4723(4)
H3_4 H 0.0549 0.8531 0.4486
C4_4 C 0.1295(3) 0.8764(3) 0.4742(3)
C5_4 C 0.1334(3) 0.9295(3) 0.4426(3)
C6_4 C 0.0825(3) 0.9510(4) 0.4104(4)
H4_4 H 0.0915 0.9855 0.3923
H5_4 H 0.0524 0.9567 0.4362
H6_4 H 0.0717 0.9244 0.3824
N5_3 N 0.1112(3) 0.9230(3) 0.2457(3)
N6_4 N 0.0470(3) 0.8297(3) 0.2468(3)
N7_3 N 0.2028(2) 0.9312(2) 0.3093(3)
N8_4 N 0.2562(2) 0.9319(3) 0.3350(3)
C14_4 C 0.0648(4) 0.9186(4) 0.2161(4)
H12_4 H 0.0536 0.9487 0.1944
C15_4 C 0.0328(4) 0.8721(4) 0.2161(4)
H13_4 H 0.0009 0.8705 0.1941
C16_4 C 0.0933(3) 0.8341(3) 0.2777(4)
H14_4 H 0.1031 0.8049 0.3014
C17_4 C 0.1264(3) 0.8795(3) 0.2758(3)
C18_4 C 0.1795(3) 0.8834(3) 0.3074(3)
C19_4 C 0.2010(4) 0.8325(3) 0.3396(4)
H15_4 H 0.2355 0.8415 0.3577
H16_4 H 0.2067 0.8024 0.3138
H17_4 H 0.1744 0.8217 0.3676
C20_4 C 0.2656(3) 0.9726(3) 0.3679(3)
C21_4 C 0.3198(3) 0.9768(3) 0.3930(3)
C22_4 C 0.3606(3) 0.9367(4) 0.3778(4)
H18_4 H 0.3518 0.9080 0.3532
C23_4 C 0.4126(4) 0.9409(5) 0.3999(5)
H19_4 H 0.4393 0.9147 0.3906
C24_4 C 0.4260(4) 0.9843(5) 0.4364(5)
H20_4 H 0.4623 0.9881 0.4492
Ag4_5 Ag -0.0000 0.7500 0.24481(6)
Ag2_6 Ag 1.0000 0.7500 0.50519(6)
Ag4_6 Ag 1.0000 0.7500 0.24481(6)
N10_5 N 0.9203(3) 0.7030(3) 0.5032(3)
Ag1_4 Ag 0.82851(4) 0.5000 0.2500
N1_4 N 0.8888(3) 0.5770(3) 0.2457(3)
N2_5 N 0.9530(3) 0.6703(3) 0.2468(3)
N3_4 N 0.7972(2) 0.5688(2) 0.3093(3)
N4_5 N 0.7438(2) 0.5681(3) 0.3350(3)
C1_5 C 0.9352(4) 0.5814(4) 0.2161(4)
H1_5 H 0.9464 0.5513 0.1944
C2_5 C 0.9672(4) 0.6279(4) 0.2161(4)
H2_5 H 0.9991 0.6295 0.1941
C3_5 C 0.9067(3) 0.6659(3) 0.2777(4)
H3_5 H 0.8969 0.6951 0.3014
C4_5 C 0.8736(3) 0.6205(3) 0.2758(3)
C5_5 C 0.8205(3) 0.6166(3) 0.3074(3)
C6_5 C 0.7990(4) 0.6675(3) 0.3396(4)
H4_5 H 0.7645 0.6585 0.3577
H5_5 H 0.7933 0.6976 0.3138
H6_5 H 0.8256 0.6783 0.3676
C7_5 C 0.7344(3) 0.5274(3) 0.3679(3)
C8_5 C 0.6802(3) 0.5232(3) 0.3930(3)
C9_5 C 0.6394(3) 0.5633(4) 0.3778(4)
H7_5 H 0.6482 0.5920 0.3532
C10_5 C 0.5874(4) 0.5591(5) 0.3999(5)
H8_5 H 0.5607 0.5853 0.3906
C11_5 C 0.5740(4) 0.5157(5) 0.4364(5)
H9_5 H 0.5377 0.5119 0.4492
C12_5 C 0.6139(4) 0.4784(5) 0.4536(4)
H10_5 H 0.6052 0.4512 0.4798
C13_5 C 0.6675(4) 0.4816(4) 0.4316(4)
H11_5 H 0.6945 0.4563 0.4426
N5_4 N 0.8270(3) 0.6388(3) 0.5043(3)
N7_4 N 0.8188(2) 0.5472(2) 0.4407(3)
N8_5 N 0.8181(3) 0.4938(2) 0.4150(3)
C14_5 C 0.8314(4) 0.6852(4) 0.5339(4)
H12_5 H 0.8013 0.6964 0.5556
C15_5 C 0.8779(4) 0.7172(4) 0.5339(4)
H13_5 H 0.8795 0.7491 0.5559
C16_5 C 0.9159(3) 0.6567(3) 0.4723(4)
H14_5 H 0.9451 0.6469 0.4486
C17_5 C 0.8705(3) 0.6236(3) 0.4742(3)
C18_5 C 0.8666(3) 0.5705(3) 0.4426(3)
C19_5 C 0.9175(3) 0.5490(4) 0.4104(4)
H15_5 H 0.9085 0.5145 0.3923
H16_5 H 0.9476 0.5433 0.4362
H17_5 H 0.9283 0.5756 0.3824
C20_5 C 0.7774(3) 0.4844(3) 0.3821(3)
C21_5 C 0.7732(3) 0.4302(3) 0.3570(3)
C22_5 C 0.8133(4) 0.3894(3) 0.3722(4)
H18_5 H 0.8420 0.3982 0.3968
C23_5 C 0.8091(5) 0.3374(4) 0.3501(5)
H19_5 H 0.8353 0.3107 0.3594
C24_5 C 0.7657(5) 0.3240(4) 0.3136(5)
H20_5 H 0.7619 0.2877 0.3008
C25_5 C 0.7284(5) 0.3639(4) 0.2964(4)
H21_5 H 0.7012 0.3552 0.2702
C26_5 C 0.7316(4) 0.4175(4) 0.3184(4)
H22_5 H 0.7063 0.4445 0.3074
Ag3_5 Ag 0.7500 0.57851(4) 0.5000
N9_3 N 0.8888(3) 0.4230(3) 0.2543(3)
N11_3 N 0.7972(2) 0.4312(2) 0.1907(3)
N1_5 N 0.6730(3) 0.6388(3) 0.4957(3)
N3_5 N 0.6812(2) 0.5472(2) 0.5593(3)
N4_6 N 0.6819(3) 0.4938(2) 0.5850(3)
C1_6 C 0.6686(4) 0.6852(4) 0.4661(4)
H1_6 H 0.6987 0.6964 0.4444
C2_6 C 0.6221(4) 0.7172(4) 0.4661(4)
H2_6 H 0.6205 0.7491 0.4441
C3_6 C 0.5841(3) 0.6567(3) 0.5277(4)
H3_6 H 0.5549 0.6469 0.5514
C4_6 C 0.6295(3) 0.6236(3) 0.5258(3)
C5_6 C 0.6334(3) 0.5705(3) 0.5574(3)
C6_6 C 0.5825(3) 0.5490(4) 0.5896(4)
H4_6 H 0.5915 0.5145 0.6077
H5_6 H 0.5524 0.5433 0.5638
H6_6 H 0.5717 0.5756 0.6176
C7_6 C 0.7226(3) 0.4844(3) 0.6179(3)
C8_6 C 0.7268(3) 0.4302(3) 0.6430(3)
C9_6 C 0.6867(4) 0.3894(3) 0.6278(4)
H7_6 H 0.6580 0.3982 0.6032
C10_6 C 0.6909(5) 0.3374(4) 0.6499(5)
H8_6 H 0.6647 0.3107 0.6406
C11_6 C 0.7343(5) 0.3240(4) 0.6864(5)
H9_6 H 0.7381 0.2877 0.6992
C12_6 C 0.7716(5) 0.3639(4) 0.7036(4)
H10_6 H 0.7988 0.3552 0.7298
C13_6 C 0.7684(4) 0.4175(4) 0.6816(4)
H11_6 H 0.7937 0.4445 0.6926
N5_5 N 0.6112(3) 0.5770(3) 0.7543(3)
N6_5 N 0.5470(3) 0.6703(3) 0.7532(3)
N7_5 N 0.7028(2) 0.5688(2) 0.6907(3)
N8_6 N 0.7562(2) 0.5681(3) 0.6650(3)
C14_6 C 0.5648(4) 0.5814(4) 0.7839(4)
H12_6 H 0.5536 0.5513 0.8056
C15_6 C 0.5328(4) 0.6279(4) 0.7839(4)
H13_6 H 0.5009 0.6295 0.8059
C16_6 C 0.5933(3) 0.6659(3) 0.7223(4)
H14_6 H 0.6031 0.6951 0.6986
C17_6 C 0.6264(3) 0.6205(3) 0.7242(3)
C18_6 C 0.6795(3) 0.6166(3) 0.6926(3)
C19_6 C 0.7010(4) 0.6675(3) 0.6604(4)
H15_6 H 0.7355 0.6585 0.6423
H16_6 H 0.7067 0.6976 0.6862
H17_6 H 0.6744 0.6783 0.6324
C20_6 C 0.7656(3) 0.5274(3) 0.6321(3)
C21_6 C 0.8198(3) 0.5232(3) 0.6070(3)
C22_6 C 0.8606(3) 0.5633(4) 0.6222(4)
H18_6 H 0.8518 0.5920 0.6468
C23_6 C 0.9126(4) 0.5591(5) 0.6001(5)
H19_6 H 0.9393 0.5853 0.6094
C24_6 C 0.9260(4) 0.5157(5) 0.5636(5)
H20_6 H 0.9623 0.5119 0.5508
C25_6 C 0.8861(4) 0.4784(5) 0.5464(4)
H21_6 H 0.8948 0.4512 0.5202
C26_6 C 0.8325(4) 0.4816(4) 0.5684(4)
H22_6 H 0.8055 0.4563 0.5574
Ag3_6 Ag 0.67149(4) 0.5000 0.7500
Ag1_5 Ag 0.7500 0.42149(4) -0.0000
N3_6 N 0.8188(2) 0.4528(2) 0.0593(3)
N4_7 N 0.8181(3) 0.5062(2) 0.0850(3)
C3_7 C 0.9159(3) 0.3433(3) 0.0277(4)
H3_7 H 0.9451 0.3531 0.0514
C4_7 C 0.8705(3) 0.3764(3) 0.0258(3)
C5_7 C 0.8666(3) 0.4295(3) 0.0574(3)
C6_7 C 0.9175(3) 0.4510(4) 0.0896(4)
H4_7 H 0.9085 0.4855 0.1077
H5_7 H 0.9476 0.4567 0.0638
H6_7 H 0.9283 0.4244 0.1176
C7_7 C 0.7774(3) 0.5156(3) 0.1179(3)
C8_7 C 0.7732(3) 0.5698(3) 0.1430(3)
C9_7 C 0.8133(4) 0.6106(3) 0.1278(4)
H7_7 H 0.8420 0.6018 0.1032
C10_7 C 0.8091(5) 0.6626(4) 0.1499(5)
H8_7 H 0.8353 0.6893 0.1406
C11_7 C 0.7657(5) 0.6760(4) 0.1864(5)
H9_7 H 0.7619 0.7123 0.1992
C12_7 C 0.7284(5) 0.6361(4) 0.2036(4)
H10_7 H 0.7012 0.6448 0.2298
C13_7 C 0.7316(4) 0.5825(4) 0.1816(4)
H11_7 H 0.7063 0.5555 0.1926
N6_6 N 0.9530(3) 0.3297(3) 0.2532(3)
N8_7 N 0.7438(2) 0.4319(3) 0.1650(3)
C14_7 C 0.9352(4) 0.4186(4) 0.2839(4)
H12_7 H 0.9464 0.4487 0.3056
C15_7 C 0.9672(4) 0.3721(4) 0.2839(4)
H13_7 H 0.9991 0.3705 0.3059
C16_7 C 0.9067(3) 0.3341(3) 0.2223(4)
H14_7 H 0.8969 0.3049 0.1986
C17_7 C 0.8736(3) 0.3795(3) 0.2242(3)
C18_7 C 0.8205(3) 0.3834(3) 0.1926(3)
C19_7 C 0.7990(4) 0.3325(3) 0.1604(4)
H15_7 H 0.7645 0.3415 0.1423
H16_7 H 0.7933 0.3024 0.1862
H17_7 H 0.8256 0.3217 0.1324
C20_7 C 0.7344(3) 0.4726(3) 0.1321(3)
C21_7 C 0.6802(3) 0.4768(3) 0.1070(3)
C22_7 C 0.6394(3) 0.4367(4) 0.1222(4)
H18_7 H 0.6482 0.4080 0.1468
C23_7 C 0.5874(4) 0.4409(5) 0.1001(5)
H19_7 H 0.5607 0.4147 0.1094
C24_7 C 0.5740(4) 0.4843(5) 0.0636(5)
H20_7 H 0.5377 0.4881 0.0508
C25_7 C 0.6139(4) 0.5216(5) 0.0464(4)
H21_7 H 0.6052 0.5488 0.0202
C26_7 C 0.6675(4) 0.5184(4) 0.0684(4)
H22_7 H 0.6945 0.5437 0.0574
N9_4 N 0.6730(3) 0.3612(3) 0.0043(3)
Ag1_6 Ag 0.7500 0.42149(4) 1.0000
N1_6 N 0.8270(3) 0.3612(3) 0.9957(3)
C1_7 C 0.8314(4) 0.3148(4) 0.9661(4)
H1_7 H 0.8013 0.3036 0.9444
C2_7 C 0.8779(4) 0.2828(4) 0.9661(4)
H2_7 H 0.8795 0.2509 0.9441
N11_4 N 0.6812(2) 0.4528(2) 0.9407(3)
C14_8 C 0.6686(4) 0.3148(4) 0.0339(4)
H12_8 H 0.6987 0.3036 0.0556
C15_8 C 0.6221(4) 0.2828(4) 0.0339(4)
H13_8 H 0.6205 0.2509 0.0559
N1_7 N 0.6112(3) 0.4230(3) 0.7457(3)
N3_7 N 0.7028(2) 0.4312(2) 0.8093(3)
N4_8 N 0.7562(2) 0.4319(3) 0.8350(3)
C1_8 C 0.5648(4) 0.4186(4) 0.7161(4)
H1_8 H 0.5536 0.4487 0.6944
C2_8 C 0.5328(4) 0.3721(4) 0.7161(4)
H2_8 H 0.5009 0.3705 0.6941
C3_8 C 0.5933(3) 0.3341(3) 0.7777(4)
H3_8 H 0.6031 0.3049 0.8014
C4_8 C 0.6264(3) 0.3795(3) 0.7758(3)
C5_8 C 0.6795(3) 0.3834(3) 0.8074(3)
C6_8 C 0.7010(4) 0.3325(3) 0.8396(4)
H4_8 H 0.7355 0.3415 0.8577
H5_8 H 0.7067 0.3024 0.8138
H6_8 H 0.6744 0.3217 0.8676
C7_8 C 0.7656(3) 0.4726(3) 0.8679(3)
C8_8 C 0.8198(3) 0.4768(3) 0.8930(3)
C9_8 C 0.8606(3) 0.4367(4) 0.8778(4)
H7_8 H 0.8518 0.4080 0.8532
C10_8 C 0.9126(4) 0.4409(5) 0.8999(5)
H8_8 H 0.9393 0.4147 0.8906
C11_8 C 0.9260(4) 0.4843(5) 0.9364(5)
H9_8 H 0.9623 0.4881 0.9492
C12_8 C 0.8861(4) 0.5216(5) 0.9536(4)
H10_8 H 0.8948 0.5488 0.9798
C13_8 C 0.8325(4) 0.5184(4) 0.9316(4)
H11_8 H 0.8055 0.5437 0.9426
N8_8 N 0.6819(3) 0.5062(2) 0.9150(3)
C16_8 C 0.5841(3) 0.3433(3) 0.9723(4)
H14_8 H 0.5549 0.3531 0.9486
C17_8 C 0.6295(3) 0.3764(3) 0.9742(3)
C18_8 C 0.6334(3) 0.4295(3) 0.9426(3)
C19_8 C 0.5825(3) 0.4510(4) 0.9104(4)
H15_8 H 0.5915 0.4855 0.8923
H16_8 H 0.5524 0.4567 0.9362
H17_8 H 0.5717 0.4244 0.8824
C20_8 C 0.7226(3) 0.5156(3) 0.8821(3)
C21_8 C 0.7268(3) 0.5698(3) 0.8570(3)
C22_8 C 0.6867(4) 0.6106(3) 0.8722(4)
H18_8 H 0.6580 0.6018 0.8968
C23_8 C 0.6909(5) 0.6626(4) 0.8501(5)
H19_8 H 0.6647 0.6893 0.8594
C24_8 C 0.7343(5) 0.6760(4) 0.8136(5)
H20_8 H 0.7381 0.7123 0.8008
C25_8 C 0.7716(5) 0.6361(4) 0.7964(4)
H21_8 H 0.7988 0.6448 0.7702
C26_8 C 0.7684(4) 0.5825(4) 0.8184(4)
H22_8 H 0.7937 0.5555 0.8074
Ag1_7 Ag 0.67149(4) -0.0000 0.2500
C12_9 C 0.8861(4) 0.0216(5) 0.0464(4)
H10_9 H 0.8948 0.0488 0.0202
C13_9 C 0.8325(4) 0.0184(4) 0.0684(4)
H11_9 H 0.8055 0.0437 0.0574
N8_9 N 0.6819(3) 0.0062(2) 0.0850(3)
C20_9 C 0.7226(3) 0.0156(3) 0.1179(3)
C21_9 C 0.7268(3) 0.0698(3) 0.1430(3)
C22_9 C 0.6867(4) 0.1106(3) 0.1278(4)
H18_9 H 0.6580 0.1018 0.1032
C23_9 C 0.6909(5) 0.1626(4) 0.1499(5)
H19_9 H 0.6647 0.1893 0.1406
C24_9 C 0.7343(5) 0.1760(4) 0.1864(5)
H20_9 H 0.7381 0.2123 0.1992
C25_9 C 0.7716(5) 0.1361(4) 0.2036(4)
H21_9 H 0.7988 0.1448 0.2298
C26_9 C 0.7684(4) 0.0825(4) 0.1816(4)
H22_9 H 0.7937 0.0555 0.1926
N9_5 N 0.6112(3) 0.0770(3) 0.2457(3)
N11_5 N 0.7028(2) 0.0688(2) 0.3093(3)
Ag1_8 Ag 0.67149(4) 1.0000 0.2500
Ag2_7 Ag 0.5000 0.7500 0.25519(6)
N1_8 N 0.6112(3) 0.9230(3) 0.2543(3)
N2_6 N 0.5470(3) 0.8297(3) 0.2532(3)
N3_8 N 0.7028(2) 0.9312(2) 0.1907(3)
N4_9 N 0.7562(2) 0.9319(3) 0.1650(3)
C1_9 C 0.5648(4) 0.9186(4) 0.2839(4)
H1_9 H 0.5536 0.9487 0.3056
C2_9 C 0.5328(4) 0.8721(4) 0.2839(4)
H2_9 H 0.5009 0.8705 0.3059
C3_9 C 0.5933(3) 0.8341(3) 0.2223(4)
H3_9 H 0.6031 0.8049 0.1986
C4_9 C 0.6264(3) 0.8795(3) 0.2242(3)
C5_9 C 0.6795(3) 0.8834(3) 0.1926(3)
C6_9 C 0.7010(4) 0.8325(3) 0.1604(4)
H4_9 H 0.7355 0.8415 0.1423
H5_9 H 0.7067 0.8024 0.1862
H6_9 H 0.6744 0.8217 0.1324
C7_9 C 0.7656(3) 0.9726(3) 0.1321(3)
C8_9 C 0.8198(3) 0.9768(3) 0.1070(3)
C9_9 C 0.8606(3) 0.9367(4) 0.1222(4)
H7_9 H 0.8518 0.9080 0.1468
C10_9 C 0.9126(4) 0.9409(5) 0.1001(5)
H8_9 H 0.9393 0.9147 0.1094
C11_9 C 0.9260(4) 0.9843(5) 0.0636(5)
H9_9 H 0.9623 0.9881 0.0508
N7_6 N 0.6812(2) 0.9528(2) 0.0593(3)
C16_9 C 0.5841(3) 0.8433(3) 0.0277(4)
H14_9 H 0.5549 0.8531 0.0514
C17_9 C 0.6295(3) 0.8764(3) 0.0258(3)
C18_9 C 0.6334(3) 0.9295(3) 0.0574(3)
C19_9 C 0.5825(3) 0.9510(4) 0.0896(4)
H15_9 H 0.5915 0.9855 0.1077
H16_9 H 0.5524 0.9567 0.0638
H17_9 H 0.5717 0.9244 0.1176
Ag3_7 Ag 0.7500 0.92149(4) 0.0000
N10_6 N 0.4530(3) 0.6703(3) 0.2532(3)
N5_6 N 0.6730(3) 0.8612(3) 0.9957(3)
N6_7 N 0.5797(3) 0.7970(3) 0.9968(3)
C14_9 C 0.6686(4) 0.8148(4) 0.9661(4)
H12_9 H 0.6987 0.8036 0.9444
C15_9 C 0.6221(4) 0.7828(4) 0.9661(4)
H13_9 H 0.6205 0.7509 0.9441
Ag3_8 Ag 0.7500 0.92149(4) 1.0000
Ag4_7 Ag 0.5000 0.7500 0.99481(6)
Ag2_8 Ag -0.0000 0.7500 0.00519(6)
N10_7 N 0.0797(3) 0.7030(3) 0.0032(3)
Ag4_8 Ag 0.0000 0.7500 0.74481(6)
N4_10 N 0.8181(3) 0.0062(2) 0.9150(3)
C7_10 C 0.7774(3) 0.0156(3) 0.8821(3)
C8_10 C 0.7732(3) 0.0698(3) 0.8570(3)
C9_10 C 0.8133(4) 0.1106(3) 0.8722(4)
H7_10 H 0.8420 0.1018 0.8968
C10_10 C 0.8091(5) 0.1626(4) 0.8501(5)
H8_10 H 0.8353 0.1893 0.8594
C11_10 C 0.7657(5) 0.1760(4) 0.8136(5)
H9_10 H 0.7619 0.2123 0.8008
C12_10 C 0.7284(5) 0.1361(4) 0.7964(4)
H10_10 H 0.7012 0.1448 0.7702
C13_10 C 0.7316(4) 0.0825(4) 0.8184(4)
H11_10 H 0.7063 0.0555 0.8074
C25_10 C 0.6139(4) 0.0216(5) 0.9536(4)
H21_10 H 0.6052 0.0488 0.9798
C26_10 C 0.6675(4) 0.0184(4) 0.9316(4)
H22_10 H 0.6945 0.0437 0.9426
Ag3_9 Ag 0.82851(4) -0.0000 0.7500
Ag2_9 Ag 1.0000 0.7500 0.00519(6)
N1_9 N 0.8270(3) 0.8612(3) 0.0043(3)
N2_7 N 0.9203(3) 0.7970(3) 0.0032(3)
C1_10 C 0.8314(4) 0.8148(4) 0.0339(4)
H1_10 H 0.8013 0.8036 0.0556
C2_10 C 0.8779(4) 0.7828(4) 0.0339(4)
H2_10 H 0.8795 0.7509 0.0559
N3_9 N 0.8188(2) 0.9528(2) 0.9407(3)
C3_10 C 0.9159(3) 0.8433(3) 0.9723(4)
H3_10 H 0.9451 0.8531 0.9486
C4_10 C 0.8705(3) 0.8764(3) 0.9742(3)
C5_10 C 0.8666(3) 0.9295(3) 0.9426(3)
C6_10 C 0.9175(3) 0.9510(4) 0.9104(4)
H4_10 H 0.9085 0.9855 0.8923
H5_10 H 0.9476 0.9567 0.9362
H6_10 H 0.9283 0.9244 0.8824
N5_7 N 0.8888(3) 0.9230(3) 0.7457(3)
N6_8 N 0.9530(3) 0.8297(3) 0.7468(3)
N7_7 N 0.7972(2) 0.9312(2) 0.8093(3)
N8_10 N 0.7438(2) 0.9319(3) 0.8350(3)
C14_10 C 0.9352(4) 0.9186(4) 0.7161(4)
H12_10 H 0.9464 0.9487 0.6944
C15_10 C 0.9672(4) 0.8721(4) 0.7161(4)
H13_10 H 0.9991 0.8705 0.6941
C16_10 C 0.9067(3) 0.8341(3) 0.7777(4)
H14_10 H 0.8969 0.8049 0.8014
C17_10 C 0.8736(3) 0.8795(3) 0.7758(3)
C18_10 C 0.8205(3) 0.8834(3) 0.8074(3)
C19_10 C 0.7990(4) 0.8325(3) 0.8396(4)
H15_10 H 0.7645 0.8415 0.8577
H16_10 H 0.7933 0.8024 0.8138
H17_10 H 0.8256 0.8217 0.8676
C20_10 C 0.7344(3) 0.9726(3) 0.8679(3)
C21_10 C 0.6802(3) 0.9768(3) 0.8930(3)
C22_10 C 0.6394(3) 0.9367(4) 0.8778(4)
H18_10 H 0.6482 0.9080 0.8532
C23_10 C 0.5874(4) 0.9409(5) 0.8999(5)
H19_10 H 0.5607 0.9147 0.8906
C24_10 C 0.5740(4) 0.9843(5) 0.9364(5)
H20_10 H 0.5377 0.9881 0.9492
Ag3_10 Ag 0.82851(4) 1.0000 0.7500
Ag4_9 Ag 1.0000 0.7500 0.74481(6)
Ag1_9 Ag 0.7500 0.07851(4) 0.5000
Ag2_10 Ag 0.5000 0.2500 0.50519(6)
N1_10 N 0.6730(3) 0.1388(3) 0.5043(3)
N2_8 N 0.5797(3) 0.2030(3) 0.5032(3)
N3_10 N 0.6812(2) 0.0472(2) 0.4407(3)
C1_11 C 0.6686(4) 0.1852(4) 0.5339(4)
H1_11 H 0.6987 0.1964 0.5556
C2_11 C 0.6221(4) 0.2172(4) 0.5339(4)
H2_11 H 0.6205 0.2491 0.5559
C3_11 C 0.5841(3) 0.1567(3) 0.4723(4)
H3_11 H 0.5549 0.1469 0.4486
C4_11 C 0.6295(3) 0.1236(3) 0.4742(3)
C5_11 C 0.6334(3) 0.0705(3) 0.4426(3)
C6_11 C 0.5825(3) 0.0490(4) 0.4104(4)
H4_11 H 0.5915 0.0145 0.3923
H5_11 H 0.5524 0.0433 0.4362
H6_11 H 0.5717 0.0756 0.3824
N6_9 N 0.5470(3) 0.1703(3) 0.2468(3)
N8_11 N 0.7562(2) 0.0681(3) 0.3350(3)
C14_11 C 0.5648(4) 0.0814(4) 0.2161(4)
H12_11 H 0.5536 0.0513 0.1944
C15_11 C 0.5328(4) 0.1279(4) 0.2161(4)
H13_11 H 0.5009 0.1295 0.1941
C16_11 C 0.5933(3) 0.1659(3) 0.2777(4)
H14_11 H 0.6031 0.1951 0.3014
C17_11 C 0.6264(3) 0.1205(3) 0.2758(3)
C18_11 C 0.6795(3) 0.1166(3) 0.3074(3)
C19_11 C 0.7010(4) 0.1675(3) 0.3396(4)
H15_11 H 0.7355 0.1585 0.3577
H16_11 H 0.7067 0.1976 0.3138
H17_11 H 0.6744 0.1783 0.3676
C20_11 C 0.7656(3) 0.0274(3) 0.3679(3)
C21_11 C 0.8198(3) 0.0232(3) 0.3930(3)
C22_11 C 0.8606(3) 0.0633(4) 0.3778(4)
H18_11 H 0.8518 0.0920 0.3532
C23_11 C 0.9126(4) 0.0591(5) 0.3999(5)
H19_11 H 0.9393 0.0853 0.3906
C24_11 C 0.9260(4) 0.0157(5) 0.4364(5)
H20_11 H 0.9623 0.0119 0.4492
Ag4_10 Ag 0.5000 0.2500 0.24481(6)
N9_6 N 0.8270(3) 0.1388(3) 0.4957(3)
N10_8 N 0.4203(3) 0.2970(3) 0.5032(3)
N11_6 N 0.8188(2) 0.0472(2) 0.5593(3)
N4_11 N 0.6819(3) 0.9938(2) 0.4150(3)
C7_11 C 0.7226(3) 0.9844(3) 0.3821(3)
C8_11 C 0.7268(3) 0.9302(3) 0.3570(3)
C9_11 C 0.6867(4) 0.8894(3) 0.3722(4)
H7_11 H 0.6580 0.8982 0.3968
C10_11 C 0.6909(5) 0.8374(4) 0.3501(5)
H8_11 H 0.6647 0.8107 0.3594
C11_11 C 0.7343(5) 0.8240(4) 0.3136(5)
H9_11 H 0.7381 0.7877 0.3008
C12_11 C 0.7716(5) 0.8639(4) 0.2964(4)
H10_11 H 0.7988 0.8552 0.2702
C13_11 C 0.7684(4) 0.9175(4) 0.3184(4)
H11_11 H 0.7937 0.9445 0.3074
C25_11 C 0.8861(4) 0.9784(5) 0.4536(4)
H21_11 H 0.8948 0.9512 0.4798
C26_11 C 0.8325(4) 0.9816(4) 0.4316(4)
H22_11 H 0.8055 0.9563 0.4426
N10_9 N 0.4203(3) 0.7030(3) 0.9968(3)
Ag2_11 Ag 0.0000 0.2500 0.49481(6)
Ag4_11 Ag 0.0000 0.2500 0.75519(6)
N10_10 N 0.0797(3) 0.2970(3) 0.4968(3)
Ag2_12 Ag 1.0000 0.2500 0.49481(6)
N2_9 N 0.9203(3) 0.2030(3) 0.4968(3)
C1_12 C 0.8314(4) 0.1852(4) 0.4661(4)
H1_12 H 0.8013 0.1964 0.4444
C2_12 C 0.8779(4) 0.2172(4) 0.4661(4)
H2_12 H 0.8795 0.2491 0.4441
C3_12 C 0.9159(3) 0.1567(3) 0.5277(4)
H3_12 H 0.9451 0.1469 0.5514
C4_12 C 0.8705(3) 0.1236(3) 0.5258(3)
C5_12 C 0.8666(3) 0.0705(3) 0.5574(3)
C6_12 C 0.9175(3) 0.0490(4) 0.5896(4)
H4_12 H 0.9085 0.0145 0.6077
H5_12 H 0.9476 0.0433 0.5638
H6_12 H 0.9283 0.0756 0.6176
N5_8 N 0.8888(3) 0.0770(3) 0.7543(3)
N6_10 N 0.9530(3) 0.1703(3) 0.7532(3)
N7_8 N 0.7972(2) 0.0688(2) 0.6907(3)
N8_12 N 0.7438(2) 0.0681(3) 0.6650(3)
C14_12 C 0.9352(4) 0.0814(4) 0.7839(4)
H12_12 H 0.9464 0.0513 0.8056
C15_12 C 0.9672(4) 0.1279(4) 0.7839(4)
H13_12 H 0.9991 0.1295 0.8059
C16_12 C 0.9067(3) 0.1659(3) 0.7223(4)
H14_12 H 0.8969 0.1951 0.6986
C17_12 C 0.8736(3) 0.1205(3) 0.7242(3)
C18_12 C 0.8205(3) 0.1166(3) 0.6926(3)
C19_12 C 0.7990(4) 0.1675(3) 0.6604(4)
H15_12 H 0.7645 0.1585 0.6423
H16_12 H 0.7933 0.1976 0.6862
H17_12 H 0.8256 0.1783 0.6324
C20_12 C 0.7344(3) 0.0274(3) 0.6321(3)
C21_12 C 0.6802(3) 0.0232(3) 0.6070(3)
C22_12 C 0.6394(3) 0.0633(4) 0.6222(4)
H18_12 H 0.6482 0.0920 0.6468
C23_12 C 0.5874(4) 0.0591(5) 0.6001(5)
H19_12 H 0.5607 0.0853 0.6094
C24_12 C 0.5740(4) 0.0157(5) 0.5636(5)
H20_12 H 0.5377 0.0119 0.5508
Ag4_12 Ag 1.0000 0.2500 0.75519(6)
N4_12 N 0.8181(3) 0.9938(2) 0.5850(3)
C7_12 C 0.7774(3) 0.9844(3) 0.6179(3)
C8_12 C 0.7732(3) 0.9302(3) 0.6430(3)
C9_12 C 0.8133(4) 0.8894(3) 0.6278(4)
H7_12 H 0.8420 0.8982 0.6032
C10_12 C 0.8091(5) 0.8374(4) 0.6499(5)
H8_12 H 0.8353 0.8107 0.6406
C11_12 C 0.7657(5) 0.8240(4) 0.6864(5)
H9_12 H 0.7619 0.7877 0.6992
C12_12 C 0.7284(5) 0.8639(4) 0.7036(4)
H10_12 H 0.7012 0.8552 0.7298
C13_12 C 0.7316(4) 0.9175(4) 0.6816(4)
H11_12 H 0.7063 0.9445 0.6926
C25_12 C 0.6139(4) 0.9784(5) 0.5464(4)
H21_12 H 0.6052 0.9512 0.5202
C26_12 C 0.6675(4) 0.9816(4) 0.5684(4)
H22_12 H 0.6945 0.9563 0.5574
Ag1_10 Ag 0.17149(4) 0.5000 0.7500
N1_11 N 0.1112(3) 0.4230(3) 0.7543(3)
N2_10 N 0.0470(3) 0.3297(3) 0.7532(3)
N3_11 N 0.2028(2) 0.4312(2) 0.6907(3)
N4_13 N 0.2562(2) 0.4319(3) 0.6650(3)
C1_13 C 0.0648(4) 0.4186(4) 0.7839(4)
H1_13 H 0.0536 0.4487 0.8056
C2_13 C 0.0328(4) 0.3721(4) 0.7839(4)
H2_13 H 0.0009 0.3705 0.8059
C3_13 C 0.0933(3) 0.3341(3) 0.7223(4)
H3_13 H 0.1031 0.3049 0.6986
C4_13 C 0.1264(3) 0.3795(3) 0.7242(3)
C5_13 C 0.1795(3) 0.3834(3) 0.6926(3)
C6_13 C 0.2010(4) 0.3325(3) 0.6604(4)
H4_13 H 0.2355 0.3415 0.6423
H5_13 H 0.2067 0.3024 0.6862
H6_13 H 0.1744 0.3217 0.6324
C7_13 C 0.2656(3) 0.4726(3) 0.6321(3)
C8_13 C 0.3198(3) 0.4768(3) 0.6070(3)
C9_13 C 0.3606(3) 0.4367(4) 0.6222(4)
H7_13 H 0.3518 0.4080 0.6468
C10_13 C 0.4126(4) 0.4409(5) 0.6001(5)
H8_13 H 0.4393 0.4147 0.6094
C11_13 C 0.4260(4) 0.4843(5) 0.5636(5)
H9_13 H 0.4623 0.4881 0.5508
C12_13 C 0.3861(4) 0.5216(5) 0.5464(4)
H10_13 H 0.3948 0.5488 0.5202
C13_13 C 0.3325(4) 0.5184(4) 0.5684(4)
H11_13 H 0.3055 0.5437 0.5574
N5_9 N 0.1730(3) 0.3612(3) 0.4957(3)
N7_9 N 0.1812(2) 0.4528(2) 0.5593(3)
N8_13 N 0.1819(3) 0.5062(2) 0.5850(3)
C14_13 C 0.1686(4) 0.3148(4) 0.4661(4)
H12_13 H 0.1987 0.3036 0.4444
C15_13 C 0.1221(4) 0.2828(4) 0.4661(4)
H13_13 H 0.1205 0.2509 0.4441
C16_13 C 0.0841(3) 0.3433(3) 0.5277(4)
H14_13 H 0.0549 0.3531 0.5514
C17_13 C 0.1295(3) 0.3764(3) 0.5258(3)
C18_13 C 0.1334(3) 0.4295(3) 0.5574(3)
C19_13 C 0.0825(3) 0.4510(4) 0.5896(4)
H15_13 H 0.0915 0.4855 0.6077
H16_13 H 0.0524 0.4567 0.5638
H17_13 H 0.0717 0.4244 0.6176
C20_13 C 0.2226(3) 0.5156(3) 0.6179(3)
C21_13 C 0.2268(3) 0.5698(3) 0.6430(3)
C22_13 C 0.1867(4) 0.6106(3) 0.6278(4)
H18_13 H 0.1580 0.6018 0.6032
C23_13 C 0.1909(5) 0.6626(4) 0.6499(5)
H19_13 H 0.1647 0.6893 0.6406
C24_13 C 0.2343(5) 0.6760(4) 0.6864(5)
H20_13 H 0.2381 0.7123 0.6992
C25_13 C 0.2716(5) 0.6361(4) 0.7036(4)
H21_13 H 0.2988 0.6448 0.7298
C26_13 C 0.2684(4) 0.5825(4) 0.6816(4)
H22_13 H 0.2937 0.5555 0.6926
Ag3_11 Ag 0.2500 0.42149(4) 0.5000
N9_7 N 0.1112(3) 0.5770(3) 0.7457(3)
N11_7 N 0.2028(2) 0.5688(2) 0.8093(3)
N1_12 N 0.3270(3) 0.3612(3) 0.5043(3)
N3_12 N 0.3188(2) 0.4528(2) 0.4407(3)
N4_14 N 0.3181(3) 0.5062(2) 0.4150(3)
C1_14 C 0.3314(4) 0.3148(4) 0.5339(4)
H1_14 H 0.3013 0.3036 0.5556
C2_14 C 0.3779(4) 0.2828(4) 0.5339(4)
H2_14 H 0.3795 0.2509 0.5559
C3_14 C 0.4159(3) 0.3433(3) 0.4723(4)
H3_14 H 0.4451 0.3531 0.4486
C4_14 C 0.3705(3) 0.3764(3) 0.4742(3)
C5_14 C 0.3666(3) 0.4295(3) 0.4426(3)
C6_14 C 0.4175(3) 0.4510(4) 0.4104(4)
H4_14 H 0.4085 0.4855 0.3923
H5_14 H 0.4476 0.4567 0.4362
H6_14 H 0.4283 0.4244 0.3824
C7_14 C 0.2774(3) 0.5156(3) 0.3821(3)
C8_14 C 0.2732(3) 0.5698(3) 0.3570(3)
C9_14 C 0.3133(4) 0.6106(3) 0.3722(4)
H7_14 H 0.3420 0.6018 0.3968
C10_14 C 0.3091(5) 0.6626(4) 0.3501(5)
H8_14 H 0.3353 0.6893 0.3594
C11_14 C 0.2657(5) 0.6760(4) 0.3136(5)
H9_14 H 0.2619 0.7123 0.3008
C12_14 C 0.2284(5) 0.6361(4) 0.2964(4)
H10_14 H 0.2012 0.6448 0.2702
C13_14 C 0.2316(4) 0.5825(4) 0.3184(4)
H11_14 H 0.2063 0.5555 0.3074
N5_10 N 0.3888(3) 0.4230(3) 0.2457(3)
N6_11 N 0.4530(3) 0.3297(3) 0.2468(3)
N7_10 N 0.2972(2) 0.4312(2) 0.3093(3)
N8_14 N 0.2438(2) 0.4319(3) 0.3350(3)
C14_14 C 0.4352(4) 0.4186(4) 0.2161(4)
H12_14 H 0.4464 0.4487 0.1944
C15_14 C 0.4672(4) 0.3721(4) 0.2161(4)
H13_14 H 0.4991 0.3705 0.1941
C16_14 C 0.4067(3) 0.3341(3) 0.2777(4)
H14_14 H 0.3969 0.3049 0.3014
C17_14 C 0.3736(3) 0.3795(3) 0.2758(3)
C18_14 C 0.3205(3) 0.3834(3) 0.3074(3)
C19_14 C 0.2990(4) 0.3325(3) 0.3396(4)
H15_14 H 0.2645 0.3415 0.3577
H16_14 H 0.2933 0.3024 0.3138
H17_14 H 0.3256 0.3217 0.3676
C20_14 C 0.2344(3) 0.4726(3) 0.3679(3)
C21_14 C 0.1802(3) 0.4768(3) 0.3930(3)
C22_14 C 0.1394(3) 0.4367(4) 0.3778(4)
H18_14 H 0.1482 0.4080 0.3532
C23_14 C 0.0874(4) 0.4409(5) 0.3999(5)
H19_14 H 0.0607 0.4147 0.3906
C24_14 C 0.0740(4) 0.4843(5) 0.4364(5)
H20_14 H 0.0377 0.4881 0.4492
C25_14 C 0.1139(4) 0.5216(5) 0.4536(4)
H21_14 H 0.1052 0.5488 0.4798
C26_14 C 0.1675(4) 0.5184(4) 0.4316(4)
H22_14 H 0.1945 0.5437 0.4426
Ag3_12 Ag 0.32851(4) 0.5000 0.2500
Ag1_11 Ag 0.2500 0.57851(4) 0.0000
N1_13 N 0.1730(3) 0.6388(3) 0.0043(3)
C1_15 C 0.1686(4) 0.6852(4) 0.0339(4)
H1_15 H 0.1987 0.6964 0.0556
C2_15 C 0.1221(4) 0.7172(4) 0.0339(4)
H2_15 H 0.1205 0.7491 0.0559
N11_8 N 0.3188(2) 0.5472(2) 0.0593(3)
Ag1_12 Ag 0.2500 0.57851(4) 1.0000
N3_13 N 0.1812(2) 0.5472(2) 0.9407(3)
N4_15 N 0.1819(3) 0.4938(2) 0.9150(3)
C3_15 C 0.0841(3) 0.6567(3) 0.9723(4)
H3_15 H 0.0549 0.6469 0.9486
C4_15 C 0.1295(3) 0.6236(3) 0.9742(3)
C5_15 C 0.1334(3) 0.5705(3) 0.9426(3)
C6_15 C 0.0825(3) 0.5490(4) 0.9104(4)
H4_15 H 0.0915 0.5145 0.8923
H5_15 H 0.0524 0.5433 0.9362
H6_15 H 0.0717 0.5756 0.8824
C7_15 C 0.2226(3) 0.4844(3) 0.8821(3)
C8_15 C 0.2268(3) 0.4302(3) 0.8570(3)
C9_15 C 0.1867(4) 0.3894(3) 0.8722(4)
H7_15 H 0.1580 0.3982 0.8968
C10_15 C 0.1909(5) 0.3374(4) 0.8501(5)
H8_15 H 0.1647 0.3107 0.8594
C11_15 C 0.2343(5) 0.3240(4) 0.8136(5)
H9_15 H 0.2381 0.2877 0.8008
C12_15 C 0.2716(5) 0.3639(4) 0.7964(4)
H10_15 H 0.2988 0.3552 0.7702
C13_15 C 0.2684(4) 0.4175(4) 0.8184(4)
H11_15 H 0.2937 0.4445 0.8074
N6_12 N 0.0470(3) 0.6703(3) 0.7468(3)
N8_15 N 0.2562(2) 0.5681(3) 0.8350(3)
C14_15 C 0.0648(4) 0.5814(4) 0.7161(4)
H12_15 H 0.0536 0.5513 0.6944
C15_15 C 0.0328(4) 0.6279(4) 0.7161(4)
H13_15 H 0.0009 0.6295 0.6941
C16_15 C 0.0933(3) 0.6659(3) 0.7777(4)
H14_15 H 0.1031 0.6951 0.8014
C17_15 C 0.1264(3) 0.6205(3) 0.7758(3)
C18_15 C 0.1795(3) 0.6166(3) 0.8074(3)
C19_15 C 0.2010(4) 0.6675(3) 0.8396(4)
H15_15 H 0.2355 0.6585 0.8577
H16_15 H 0.2067 0.6976 0.8138
H17_15 H 0.1744 0.6783 0.8676
C20_15 C 0.2656(3) 0.5274(3) 0.8679(3)
C21_15 C 0.3198(3) 0.5232(3) 0.8930(3)
C22_15 C 0.3606(3) 0.5633(4) 0.8778(4)
H18_15 H 0.3518 0.5920 0.8532
C23_15 C 0.4126(4) 0.5591(5) 0.8999(5)
H19_15 H 0.4393 0.5853 0.8906
C24_15 C 0.4260(4) 0.5157(5) 0.9364(5)
H20_15 H 0.4623 0.5119 0.9492
C25_15 C 0.3861(4) 0.4784(5) 0.9536(4)
H21_15 H 0.3948 0.4512 0.9798
C26_15 C 0.3325(4) 0.4816(4) 0.9316(4)
H22_15 H 0.3055 0.4563 0.9426
N9_8 N 0.3270(3) 0.6388(3) 0.9957(3)
N1_14 N 0.3888(3) 0.5770(3) 0.2543(3)
N3_14 N 0.2972(2) 0.5688(2) 0.1907(3)
N4_16 N 0.2438(2) 0.5681(3) 0.1650(3)
C1_16 C 0.4352(4) 0.5814(4) 0.2839(4)
H1_16 H 0.4464 0.5513 0.3056
C2_16 C 0.4672(4) 0.6279(4) 0.2839(4)
H2_16 H 0.4991 0.6295 0.3059
C3_16 C 0.4067(3) 0.6659(3) 0.2223(4)
H3_16 H 0.3969 0.6951 0.1986
C4_16 C 0.3736(3) 0.6205(3) 0.2242(3)
C5_16 C 0.3205(3) 0.6166(3) 0.1926(3)
C6_16 C 0.2990(4) 0.6675(3) 0.1604(4)
H4_16 H 0.2645 0.6585 0.1423
H5_16 H 0.2933 0.6976 0.1862
H6_16 H 0.3256 0.6783 0.1324
C7_16 C 0.2344(3) 0.5274(3) 0.1321(3)
C8_16 C 0.1802(3) 0.5232(3) 0.1070(3)
C9_16 C 0.1394(3) 0.5633(4) 0.1222(4)
H7_16 H 0.1482 0.5920 0.1468
C10_16 C 0.0874(4) 0.5591(5) 0.1001(5)
H8_16 H 0.0607 0.5853 0.1094
C11_16 C 0.0740(4) 0.5157(5) 0.0636(5)
H9_16 H 0.0377 0.5119 0.0508
C12_16 C 0.1139(4) 0.4784(5) 0.0464(4)
H10_16 H 0.1052 0.4512 0.0202
C13_16 C 0.1675(4) 0.4816(4) 0.0684(4)
H11_16 H 0.1945 0.4563 0.0574
N8_16 N 0.3181(3) 0.4938(2) 0.0850(3)
C16_16 C 0.4159(3) 0.6567(3) 0.0277(4)
H14_16 H 0.4451 0.6469 0.0514
C17_16 C 0.3705(3) 0.6236(3) 0.0258(3)
C18_16 C 0.3666(3) 0.5705(3) 0.0574(3)
C19_16 C 0.4175(3) 0.5490(4) 0.0896(4)
H15_16 H 0.4085 0.5145 0.1077
H16_16 H 0.4476 0.5433 0.0638
H17_16 H 0.4283 0.5756 0.1176
C20_16 C 0.2774(3) 0.4844(3) 0.1179(3)
C21_16 C 0.2732(3) 0.4302(3) 0.1430(3)
C22_16 C 0.3133(4) 0.3894(3) 0.1278(4)
H18_16 H 0.3420 0.3982 0.1032
C23_16 C 0.3091(5) 0.3374(4) 0.1499(5)
H19_16 H 0.3353 0.3107 0.1406
C24_16 C 0.2657(5) 0.3240(4) 0.1864(5)
H20_16 H 0.2619 0.2877 0.1992
C25_16 C 0.2284(5) 0.3639(4) 0.2036(4)
H21_16 H 0.2012 0.3552 0.2298
C26_16 C 0.2316(4) 0.4175(4) 0.1816(4)
H22_16 H 0.2063 0.4445 0.1926
C14_16 C 0.3314(4) 0.6852(4) 0.9661(4)
H12_16 H 0.3013 0.6964 0.9444
C15_16 C 0.3779(4) 0.7172(4) 0.9661(4)
H13_16 H 0.3795 0.7491 0.9441
N12 N 0.5469(4) 0.13344(19) 0.0555(2)
O1 O 0.5606(7) 0.1765(4) 0.0777(6)
O2 O 0.5394(8) 0.1321(6) 0.0051(3)
O3 O 0.5518(8) 0.0908(4) 0.0817(6)
N12_2 N 0.11656(19) 0.2969(4) 0.3055(2)
O1_2 O 0.0735(4) 0.3106(7) 0.3277(6)
O2_2 O 0.1179(6) 0.2894(8) 0.2551(3)
O3_2 O 0.1592(4) 0.3018(8) 0.3317(6)
N12_3 N 0.38344(19) 0.7031(4) 0.8055(2)
O1_3 O 0.4265(4) 0.6894(7) 0.8277(6)
O2_3 O 0.3821(6) 0.7106(8) 0.7551(3)
O3_3 O 0.3408(4) 0.6982(8) 0.8317(6)
N12_4 N 0.38344(19) 0.2969(4) 0.6945(2)
O1_4 O 0.4265(4) 0.3106(7) 0.6723(6)
O2_4 O 0.3821(6) 0.2894(8) 0.7449(3)
O3_4 O 0.3408(4) 0.3018(8) 0.6683(6)
N12_5 N 0.11656(19) 0.7031(4) 0.1945(2)
O1_5 O 0.0735(4) 0.6894(7) 0.1723(6)
O2_5 O 0.1179(6) 0.7106(8) 0.2449(3)
O3_5 O 0.1592(4) 0.6982(8) 0.1683(6)
N12_6 N 0.0469(4) 0.63344(19) 0.5555(2)
O1_6 O 0.0606(7) 0.6765(4) 0.5777(6)
O2_6 O 0.0394(8) 0.6321(6) 0.5051(3)
O3_6 O 0.0518(8) 0.5908(4) 0.5817(6)
N12_7 N 0.61656(19) 0.7969(4) 0.8055(2)
O1_7 O 0.5735(4) 0.8106(7) 0.8277(6)
O2_7 O 0.6179(6) 0.7894(8) 0.7551(3)
O3_7 O 0.6592(4) 0.8018(8) 0.8317(6)
N12_8 N 0.88344(19) 0.2031(4) 0.3055(2)
O1_8 O 0.9265(4) 0.1894(7) 0.3277(6)
O2_8 O 0.8821(6) 0.2106(8) 0.2551(3)
O3_8 O 0.8408(4) 0.1982(8) 0.3317(6)
N12_9 N 0.88344(19) 0.7969(4) 0.1945(2)
O1_9 O 0.9265(4) 0.8106(7) 0.1723(6)
O2_9 O 0.8821(6) 0.7894(8) 0.2449(3)
O3_9 O 0.8408(4) 0.8018(8) 0.1683(6)
N12_10 N 0.9531(4) 0.86656(19) 0.5555(2)
O1_10 O 0.9394(7) 0.8235(4) 0.5777(6)
O2_10 O 0.9606(8) 0.8679(6) 0.5051(3)
O3_10 O 0.9482(8) 0.9092(4) 0.5817(6)
N12_11 N 0.9531(4) 0.13344(19) 0.9445(2)
O1_11 O 0.9394(7) 0.1765(4) 0.9223(6)
O2_11 O 0.9606(8) 0.1321(6) 0.9949(3)
O3_11 O 0.9482(8) 0.0908(4) 0.9183(6)
N12_12 N 0.5469(4) 0.86656(19) 0.4445(2)
O1_12 O 0.5606(7) 0.8235(4) 0.4223(6)
O2_12 O 0.5394(8) 0.8679(6) 0.4949(3)
O3_12 O 0.5518(8) 0.9092(4) 0.4183(6)
N12_13 N 0.4531(4) 0.36656(19) 0.0555(2)
O1_13 O 0.4394(7) 0.3235(4) 0.0777(6)
O2_13 O 0.4606(8) 0.3679(6) 0.0051(3)
O3_13 O 0.4482(8) 0.4092(4) 0.0817(6)
N12_14 N 0.4531(4) 0.63344(19) 0.4445(2)
O1_14 O 0.4394(7) 0.6765(4) 0.4223(6)
O2_14 O 0.4606(8) 0.6321(6) 0.4949(3)
O3_14 O 0.4482(8) 0.5908(4) 0.4183(6)
N12_15 N 0.0469(4) 0.36656(19) 0.9445(2)
O1_15 O 0.0606(7) 0.3235(4) 0.9223(6)
O2_15 O 0.0394(8) 0.3679(6) 0.9949(3)
O3_15 O 0.0518(8) 0.4092(4) 0.9183(6)
N12_16 N 0.61656(19) 0.2031(4) 0.6945(2)
O1_16 O 0.5735(4) 0.1894(7) 0.6723(6)
O2_16 O 0.6179(6) 0.2106(8) 0.7449(3)
O3_16 O 0.6592(4) 0.1982(8) 0.6683(6)
N12_17 N 0.4531(4) 0.86656(19) 0.9445(2)
O1_17 O 0.4394(7) 0.8235(4) 0.9223(6)
O2_17 O 0.4606(8) 0.8679(6) 0.9949(3)
O3_17 O 0.4482(8) 0.9092(4) 0.9183(6)
N12_18 N 0.88344(19) 0.7031(4) 0.6945(2)
O1_18 O 0.9265(4) 0.6894(7) 0.6723(6)
O2_18 O 0.8821(6) 0.7106(8) 0.7449(3)
O3_18 O 0.8408(4) 0.6982(8) 0.6683(6)
N12_19 N 0.61656(19) 0.2969(4) 0.1945(2)
O1_19 O 0.5735(4) 0.3106(7) 0.1723(6)
O2_19 O 0.6179(6) 0.2894(8) 0.2449(3)
O3_19 O 0.6592(4) 0.3018(8) 0.1683(6)
N12_20 N 0.61656(19) 0.7031(4) 0.3055(2)
O1_20 O 0.5735(4) 0.6894(7) 0.3277(6)
O2_20 O 0.6179(6) 0.7106(8) 0.2551(3)
O3_20 O 0.6592(4) 0.6982(8) 0.3317(6)
N12_21 N 0.88344(19) 0.2969(4) 0.8055(2)
O1_21 O 0.9265(4) 0.3106(7) 0.8277(6)
O2_21 O 0.8821(6) 0.2894(8) 0.7551(3)
O3_21 O 0.8408(4) 0.3018(8) 0.8317(6)
N12_22 N 0.9531(4) 0.36656(19) 0.4445(2)
O1_22 O 0.9394(7) 0.3235(4) 0.4223(6)
O2_22 O 0.9606(8) 0.3679(6) 0.4949(3)
O3_22 O 0.9482(8) 0.4092(4) 0.4183(6)
N12_23 N 0.38344(19) 0.2031(4) 0.1945(2)
O1_23 O 0.4265(4) 0.1894(7) 0.1723(6)
O2_23 O 0.3821(6) 0.2106(8) 0.2449(3)
O3_23 O 0.3408(4) 0.1982(8) 0.1683(6)
N12_24 N 0.11656(19) 0.7969(4) 0.6945(2)
O1_24 O 0.0735(4) 0.8106(7) 0.6723(6)
O2_24 O 0.1179(6) 0.7894(8) 0.7449(3)
O3_24 O 0.1592(4) 0.8018(8) 0.6683(6)
N12_25 N 0.11656(19) 0.2031(4) 0.8055(2)
O1_25 O 0.0735(4) 0.1894(7) 0.8277(6)
O2_25 O 0.1179(6) 0.2106(8) 0.7551(3)
O3_25 O 0.1592(4) 0.1982(8) 0.8317(6)
N12_26 N 0.0469(4) 0.13344(19) 0.4445(2)
O1_26 O 0.0606(7) 0.1765(4) 0.4223(6)
O2_26 O 0.0394(8) 0.1321(6) 0.4949(3)
O3_26 O 0.0518(8) 0.0908(4) 0.4183(6)
N12_27 N 0.0469(4) 0.86656(19) 0.0555(2)
O1_27 O 0.0606(7) 0.8235(4) 0.0777(6)
O2_27 O 0.0394(8) 0.8679(6) 0.0051(3)
O3_27 O 0.0518(8) 0.9092(4) 0.0817(6)
N12_28 N 0.4531(4) 0.13344(19) 0.5555(2)
O1_28 O 0.4394(7) 0.1765(4) 0.5777(6)
O2_28 O 0.4606(8) 0.1321(6) 0.5051(3)
O3_28 O 0.4482(8) 0.0908(4) 0.5817(6)
N12_29 N 0.5469(4) 0.63344(19) 0.9445(2)
O1_29 O 0.5606(7) 0.6765(4) 0.9223(6)
O2_29 O 0.5394(8) 0.6321(6) 0.9949(3)
O3_29 O 0.5518(8) 0.5908(4) 0.9183(6)
N12_30 N 0.5469(4) 0.36656(19) 0.5555(2)
O1_30 O 0.5606(7) 0.3235(4) 0.5777(6)
O2_30 O 0.5394(8) 0.3679(6) 0.5051(3)
O3_30 O 0.5518(8) 0.4092(4) 0.5817(6)
N12_31 N 0.9531(4) 0.63344(19) 0.0555(2)
O1_31 O 0.9394(7) 0.6765(4) 0.0777(6)
O2_31 O 0.9606(8) 0.6321(6) 0.0051(3)
O3_31 O 0.9482(8) 0.5908(4) 0.0817(6)
N12_32 N 0.38344(19) 0.7969(4) 0.3055(2)
O1_32 O 0.4265(4) 0.8106(7) 0.3277(6)
O2_32 O 0.3821(6) 0.7894(8) 0.2551(3)
O3_32 O 0.3408(4) 0.8018(8) 0.3317(6)
loop_
_geom_bond_atom_site_label_1
_geom_bond_atom_site_label_2
_geom_bond_site_symmetry_1
_geom_bond_site_symmetry_2
N5 C14 1_555 1_555
N6 C15 1_555 1_555
C14 H12 1_555 1_555
C15 C14 1_555 1_555
H13 C15 1_555 1_555
Ag3 N5 1_555 1_555
Ag4 N6 1_555 1_555
Ag1 N1 1_555 1_555
Ag2 N2 1_555 1_555
N1 C1 1_555 1_555
N2 C2 1_555 1_555
N3 Ag1 1_555 1_555
N4 N3 1_555 1_555
C1 H1 1_555 1_555
C2 C1 1_555 1_555
H2 C2 1_555 1_555
C3 N2 1_555 1_555
H3 C3 1_555 1_555
C4 N1 1_555 1_555
C5 N3 1_555 1_555
C6 C5 1_555 1_555
H4 C6 1_555 1_555
H5 C6 1_555 1_555
H6 C6 1_555 1_555
C7 N4 1_555 1_555
C8 C7 1_555 1_555
C9 C8 1_555 1_555
H7 C9 1_555 1_555
C10 C9 1_555 1_555
H8 C10 1_555 1_555
C11 C10 1_555 1_555
H9 C11 1_555 1_555
H14 C16 1_555 1_555
C18 N7 1_555 1_555
C19 C18 1_555 1_555
H15 C19 1_555 1_555
H16 C19 1_555 1_555
H17 C19 1_555 1_555
N10 Ag2 1_555 1_555
C3 C4 1_555 1_555
C4 C5 1_555 1_555
N7 Ag3_2 1_555 1_555
C16 C17 1_555 1_555
C17 C18 1_555 1_555
H10 C12 1_555 1_555
H11 C13 1_555 1_555
N8 C20 1_555 1_555
C21 C20 1_555 1_555
C22 C21 1_555 1_555
H18 C22 1_555 1_555
C23 C22 1_555 1_555
H19 C23 1_555 1_555
C24 C23 1_555 1_555
H20 C24 1_555 1_555
C25 C24 1_555 1_555
H21 C25 1_555 1_555
C26 C21 1_555 1_555
H22 C26 1_555 1_555
N9 Ag1_2 1_555 1_555
N11 Ag1_2 1_555 1_555
C12 C13 1_555 1_555
C25 C26 1_555 1_555
N3_2 Ag3 1_555 1_555
H3_2 C3_2 1_555 1_555
C5_2 N3_2 1_555 1_555
C6_2 C5_2 1_555 1_555
H4_2 C6_2 1_555 1_555
H5_2 C6_2 1_555 1_555
H6_2 C6_2 1_555 1_555
N5_2 C14_2 1_555 1_555
N6_2 C15_2 1_555 1_555
N7_2 N8_2 1_555 1_555
N8_2 C20_2 1_555 1_555
C14_2 H12_2 1_555 1_555
C15_2 C14_2 1_555 1_555
H13_2 C15_2 1_555 1_555
C16_2 N6_2 1_555 1_555
H14_2 C16_2 1_555 1_555
C17_2 N5_2 1_555 1_555
C18_2 N7_2 1_555 1_555
C19_2 C18_2 1_555 1_555
H15_2 C19_2 1_555 1_555
H16_2 C19_2 1_555 1_555
H17_2 C19_2 1_555 1_555
C21_2 C20_2 1_555 1_555
C22_2 C21_2 1_555 1_555
H18_2 C22_2 1_555 1_555
C23_2 C22_2 1_555 1_555
H19_2 C23_2 1_555 1_555
C24_2 C23_2 1_555 1_555
H20_2 C24_2 1_555 1_555
Ag3_3 N5_2 1_555 1_555
Ag4_2 N6_2 1_555 1_555
C3_2 C4_2 1_555 1_555
C4_2 C5_2 1_555 1_555
N7_2 Ag3_3 1_555 1_555
C16_2 C17_2 1_555 1_555
C17_2 C18_2 1_555 1_555
Ag3_2 N1_2 1_555 1_555
Ag2_2 N2_2 1_555 1_555
N1_2 C1_2 1_555 1_555
N2_2 C2_2 1_555 1_555
C1_2 H1_2 1_555 1_555
C2_2 C1_2 1_555 1_555
H2_2 C2_2 1_555 1_555
C7_2 N4_2 1_555 1_555
C8_2 C7_2 1_555 1_555
C9_2 C8_2 1_555 1_555
H7_2 C9_2 1_555 1_555
C10_2 C9_2 1_555 1_555
H8_2 C10_2 1_555 1_555
C11_2 C10_2 1_555 1_555
H9_2 C11_2 1_555 1_555
C12_2 C11_2 1_555 1_555
H10_2 C12_2 1_555 1_555
C13_2 C8_2 1_555 1_555
H11_2 C13_2 1_555 1_555
H21_2 C25_2 1_555 1_555
H22_2 C26_2 1_555 1_555
C12_2 C13_2 1_555 1_555
C25_2 C26_2 1_555 1_555
N10_2 Ag2_3 1_555 1_555
C7_3 N4_3 1_555 1_555
C8_3 C7_3 1_555 1_555
C9_3 C8_3 1_555 1_555
H7_3 C9_3 1_555 1_555
C10_3 C9_3 1_555 1_555
H8_3 C10_3 1_555 1_555
C11_3 C10_3 1_555 1_555
H9_3 C11_3 1_555 1_555
C12_3 C11_3 1_555 1_555
H10_3 C12_3 1_555 1_555
C13_3 C8_3 1_555 1_555
H11_3 C13_3 1_555 1_555
H21_3 C25_3 1_555 1_555
H22_3 C26_3 1_555 1_555
C12_3 C13_3 1_555 1_555
C25_3 C26_3 1_555 1_555
Ag1_3 N1_3 1_555 1_555
Ag2_4 N2_3 1_555 1_555
N1_3 C1_3 1_555 1_555
N2_3 C2_3 1_555 1_555
N3_3 Ag1_3 1_555 1_555
C1_3 H1_3 1_555 1_555
C2_3 C1_3 1_555 1_555
H2_3 C2_3 1_555 1_555
C3_3 N2_3 1_555 1_555
H3_3 C3_3 1_555 1_555
C4_3 N1_3 1_555 1_555
C5_3 N3_3 1_555 1_555
C6_3 C5_3 1_555 1_555
H4_3 C6_3 1_555 1_555
H5_3 C6_3 1_555 1_555
H6_3 C6_3 1_555 1_555
N9 C14_3 1_555 1_555
N6_3 C15_3 1_555 1_555
N11 N8_3 1_555 1_555
N8_3 C20_3 1_555 1_555
C14_3 H12_3 1_555 1_555
C15_3 C14_3 1_555 1_555
H13_3 C15_3 1_555 1_555
C16_3 N6_3 1_555 1_555
H14_3 C16_3 1_555 1_555
C17_3 N9 1_555 1_555
C18_3 N11 1_555 1_555
C19_3 C18_3 1_555 1_555
H15_3 C19_3 1_555 1_555
H16_3 C19_3 1_555 1_555
H17_3 C19_3 1_555 1_555
C21_3 C20_3 1_555 1_555
C22_3 C21_3 1_555 1_555
H18_3 C22_3 1_555 1_555
C23_3 C22_3 1_555 1_555
H19_3 C23_3 1_555 1_555
C24_3 C23_3 1_555 1_555
H20_3 C24_3 1_555 1_555
Ag4_4 N6_3 1_555 1_555
N9_2 Ag1_3 1_555 1_555
N10_3 Ag2_4 1_555 1_555
N11_2 Ag1_3 1_555 1_555
C3_3 C4_3 1_555 1_555
C4_3 C5_3 1_555 1_555
C16_3 C17_3 1_555 1_555
C17_3 C18_3 1_555 1_555
N10_4 Ag4 1_555 1_555
C7_4 N4_4 1_555 1_555
C8_4 C7_4 1_555 1_555
C9_4 C8_4 1_555 1_555
H7_4 C9_4 1_555 1_555
C10_4 C9_4 1_555 1_555
H8_4 C10_4 1_555 1_555
C11_4 C10_4 1_555 1_555
H9_4 C11_4 1_555 1_555
C12_4 C11_4 1_555 1_555
H10_4 C12_4 1_555 1_555
C13_4 C8_4 1_555 1_555
H11_4 C13_4 1_555 1_555
H21_4 C25_4 1_555 1_555
H22_4 C26_4 1_555 1_555
C12_4 C13_4 1_555 1_555
C25_4 C26_4 1_555 1_555
Ag2_5 N2_4 1_555 1_555
N9_2 C1_4 1_555 1_555
N2_4 C2_4 1_555 1_555
C1_4 H1_4 1_555 1_555
C2_4 C1_4 1_555 1_555
H2_4 C2_4 1_555 1_555
C3_4 N2_4 1_555 1_555
H3_4 C3_4 1_555 1_555
C4_4 N9_2 1_555 1_555
C5_4 N11_2 1_555 1_555
C6_4 C5_4 1_555 1_555
H4_4 C6_4 1_555 1_555
H5_4 C6_4 1_555 1_555
H6_4 C6_4 1_555 1_555
N5_3 C14_4 1_555 1_555
N6_4 C15_4 1_555 1_555
N7_3 N8_4 1_555 1_555
N8_4 C20_4 1_555 1_555
C14_4 H12_4 1_555 1_555
C15_4 C14_4 1_555 1_555
H13_4 C15_4 1_555 1_555
C16_4 N6_4 1_555 1_555
H14_4 C16_4 1_555 1_555
C17_4 N5_3 1_555 1_555
C18_4 N7_3 1_555 1_555
C19_4 C18_4 1_555 1_555
H15_4 C19_4 1_555 1_555
H16_4 C19_4 1_555 1_555
H17_4 C19_4 1_555 1_555
C21_4 C20_4 1_555 1_555
C22_4 C21_4 1_555 1_555
H18_4 C22_4 1_555 1_555
C23_4 C22_4 1_555 1_555
H19_4 C23_4 1_555 1_555
C24_4 C23_4 1_555 1_555
H20_4 C24_4 1_555 1_555
Ag3_4 N5_3 1_555 1_555
Ag4_5 N6_4 1_555 1_555
C3_4 C4_4 1_555 1_555
C4_4 C5_4 1_555 1_555
N7_3 Ag3_4 1_555 1_555
C16_4 C17_4 1_555 1_555
C17_4 C18_4 1_555 1_555
N10_5 Ag2_6 1_555 1_555
Ag1_4 N1_4 1_555 1_555
Ag4_6 N2_5 1_555 1_555
N1_4 C1_5 1_555 1_555
N2_5 C2_5 1_555 1_555
N3_4 Ag1_4 1_555 1_555
N4_5 N3_4 1_555 1_555
C1_5 H1_5 1_555 1_555
C2_5 C1_5 1_555 1_555
H2_5 C2_5 1_555 1_555
C3_5 N2_5 1_555 1_555
H3_5 C3_5 1_555 1_555
C4_5 N1_4 1_555 1_555
C5_5 N3_4 1_555 1_555
C6_5 C5_5 1_555 1_555
H4_5 C6_5 1_555 1_555
H5_5 C6_5 1_555 1_555
H6_5 C6_5 1_555 1_555
C7_5 N4_5 1_555 1_555
C8_5 C7_5 1_555 1_555
C9_5 C8_5 1_555 1_555
H7_5 C9_5 1_555 1_555
C10_5 C9_5 1_555 1_555
H8_5 C10_5 1_555 1_555
C11_5 C10_5 1_555 1_555
H9_5 C11_5 1_555 1_555
C12_5 C11_5 1_555 1_555
H10_5 C12_5 1_555 1_555
C13_5 C8_5 1_555 1_555
H11_5 C13_5 1_555 1_555
N5_4 C14_5 1_555 1_555
N10_5 C15_5 1_555 1_555
N7_4 N8_5 1_555 1_555
N8_5 C20_5 1_555 1_555
C14_5 H12_5 1_555 1_555
C15_5 C14_5 1_555 1_555
H13_5 C15_5 1_555 1_555
C16_5 N10_5 1_555 1_555
H14_5 C16_5 1_555 1_555
C17_5 N5_4 1_555 1_555
C18_5 N7_4 1_555 1_555
C19_5 C18_5 1_555 1_555
H15_5 C19_5 1_555 1_555
H16_5 C19_5 1_555 1_555
H17_5 C19_5 1_555 1_555
C20_5 C7_5 1_555 1_555
C21_5 C20_5 1_555 1_555
C22_5 C21_5 1_555 1_555
H18_5 C22_5 1_555 1_555
C23_5 C22_5 1_555 1_555
H19_5 C23_5 1_555 1_555
C24_5 C23_5 1_555 1_555
H20_5 C24_5 1_555 1_555
C25_5 C24_5 1_555 1_555
H21_5 C25_5 1_555 1_555
C26_5 C21_5 1_555 1_555
H22_5 C26_5 1_555 1_555
Ag3_5 N5_4 1_555 1_555
N9_3 Ag1_4 1_555 1_555
N11_3 Ag1_4 1_555 1_555
C3_5 C4_5 1_555 1_555
C4_5 C5_5 1_555 1_555
C12_5 C13_5 1_555 1_555
N7_4 Ag3_5 1_555 1_555
C16_5 C17_5 1_555 1_555
C17_5 C18_5 1_555 1_555
C25_5 C26_5 1_555 1_555
Ag3_5 N1_5 1_555 1_555
N1_5 C1_6 1_555 1_555
N10_3 C2_6 1_555 1_555
N3_5 Ag3_5 1_555 1_555
N4_6 N3_5 1_555 1_555
C1_6 H1_6 1_555 1_555
C2_6 C1_6 1_555 1_555
H2_6 C2_6 1_555 1_555
C3_6 N10_3 1_555 1_555
H3_6 C3_6 1_555 1_555
C4_6 N1_5 1_555 1_555
C5_6 N3_5 1_555 1_555
C6_6 C5_6 1_555 1_555
H4_6 C6_6 1_555 1_555
H5_6 C6_6 1_555 1_555
H6_6 C6_6 1_555 1_555
C7_6 N4_6 1_555 1_555
C8_6 C7_6 1_555 1_555
C9_6 C8_6 1_555 1_555
H7_6 C9_6 1_555 1_555
C10_6 C9_6 1_555 1_555
H8_6 C10_6 1_555 1_555
C11_6 C10_6 1_555 1_555
H9_6 C11_6 1_555 1_555
C12_6 C11_6 1_555 1_555
H10_6 C12_6 1_555 1_555
C13_6 C8_6 1_555 1_555
H11_6 C13_6 1_555 1_555
N5_5 C14_6 1_555 1_555
N6_5 C15_6 1_555 1_555
N7_5 N8_6 1_555 1_555
N8_6 C20_6 1_555 1_555
C14_6 H12_6 1_555 1_555
C15_6 C14_6 1_555 1_555
H13_6 C15_6 1_555 1_555
C16_6 N6_5 1_555 1_555
H14_6 C16_6 1_555 1_555
C17_6 N5_5 1_555 1_555
C18_6 N7_5 1_555 1_555
C19_6 C18_6 1_555 1_555
H15_6 C19_6 1_555 1_555
H16_6 C19_6 1_555 1_555
H17_6 C19_6 1_555 1_555
C20_6 C7_6 1_555 1_555
C21_6 C20_6 1_555 1_555
C22_6 C21_6 1_555 1_555
H18_6 C22_6 1_555 1_555
C23_6 C22_6 1_555 1_555
H19_6 C23_6 1_555 1_555
C24_6 C23_6 1_555 1_555
H20_6 C24_6 1_555 1_555
C25_6 C24_6 1_555 1_555
H21_6 C25_6 1_555 1_555
C26_6 C21_6 1_555 1_555
H22_6 C26_6 1_555 1_555
Ag3_6 N5_5 1_555 1_555
Ag4_4 N6_5 1_555 1_555
C3_6 C4_6 1_555 1_555
C4_6 C5_6 1_555 1_555
C12_6 C13_6 1_555 1_555
N7_5 Ag3_6 1_555 1_555
C16_6 C17_6 1_555 1_555
C17_6 C18_6 1_555 1_555
C25_6 C26_6 1_555 1_555
N3_6 Ag1_5 1_555 1_555
N4_7 N3_6 1_555 1_555
H3_7 C3_7 1_555 1_555
C5_7 N3_6 1_555 1_555
C6_7 C5_7 1_555 1_555
H4_7 C6_7 1_555 1_555
H5_7 C6_7 1_555 1_555
H6_7 C6_7 1_555 1_555
C7_7 N4_7 1_555 1_555
C8_7 C7_7 1_555 1_555
C9_7 C8_7 1_555 1_555
H7_7 C9_7 1_555 1_555
C10_7 C9_7 1_555 1_555
H8_7 C10_7 1_555 1_555
C11_7 C10_7 1_555 1_555
H9_7 C11_7 1_555 1_555
C12_7 C11_7 1_555 1_555
H10_7 C12_7 1_555 1_555
C13_7 C8_7 1_555 1_555
H11_7 C13_7 1_555 1_555
N9_3 C14_7 1_555 1_555
N6_6 C15_7 1_555 1_555
N11_3 N8_7 1_555 1_555
N8_7 C20_7 1_555 1_555
C14_7 H12_7 1_555 1_555
C15_7 C14_7 1_555 1_555
H13_7 C15_7 1_555 1_555
C16_7 N6_6 1_555 1_555
H14_7 C16_7 1_555 1_555
C17_7 N9_3 1_555 1_555
C18_7 N11_3 1_555 1_555
C19_7 C18_7 1_555 1_555
H15_7 C19_7 1_555 1_555
H16_7 C19_7 1_555 1_555
H17_7 C19_7 1_555 1_555
C20_7 C7_7 1_555 1_555
C21_7 C20_7 1_555 1_555
C22_7 C21_7 1_555 1_555
H18_7 C22_7 1_555 1_555
C23_7 C22_7 1_555 1_555
H19_7 C23_7 1_555 1_555
C24_7 C23_7 1_555 1_555
H20_7 C24_7 1_555 1_555
C25_7 C24_7 1_555 1_555
H21_7 C25_7 1_555 1_555
C26_7 C21_7 1_555 1_555
H22_7 C26_7 1_555 1_555
Ag4_3 N6_6 1_555 1_555
N9_4 Ag1_5 1_555 1_555
C3_7 C4_7 1_555 1_555
C4_7 C5_7 1_555 1_555
C12_7 C13_7 1_555 1_555
C16_7 C17_7 1_555 1_555
C17_7 C18_7 1_555 1_555
C25_7 C26_7 1_555 1_555
Ag1_6 N1_6 1_555 1_555
N1_6 C1_7 1_555 1_555
N10_2 C2_7 1_555 1_555
C1_7 H1_7 1_555 1_555
C2_7 C1_7 1_555 1_555
H2_7 C2_7 1_555 1_555
N11_4 Ag1_6 1_555 1_555
N9_4 C14_8 1_555 1_555
N10_4 C15_8 1_555 1_555
C14_8 H12_8 1_555 1_555
C15_8 C14_8 1_555 1_555
H13_8 C15_8 1_555 1_555
Ag3_6 N1_7 1_555 1_555
N1_7 C1_8 1_555 1_555
N10 C2_8 1_555 1_555
N3_7 Ag3_6 1_555 1_555
N4_8 N3_7 1_555 1_555
C1_8 H1_8 1_555 1_555
C2_8 C1_8 1_555 1_555
H2_8 C2_8 1_555 1_555
C3_8 N10 1_555 1_555
H3_8 C3_8 1_555 1_555
C4_8 N1_7 1_555 1_555
C5_8 N3_7 1_555 1_555
C6_8 C5_8 1_555 1_555
H4_8 C6_8 1_555 1_555
H5_8 C6_8 1_555 1_555
H6_8 C6_8 1_555 1_555
C7_8 N4_8 1_555 1_555
C8_8 C7_8 1_555 1_555
C9_8 C8_8 1_555 1_555
H7_8 C9_8 1_555 1_555
C10_8 C9_8 1_555 1_555
H8_8 C10_8 1_555 1_555
C11_8 C10_8 1_555 1_555
H9_8 C11_8 1_555 1_555
C12_8 C11_8 1_555 1_555
H10_8 C12_8 1_555 1_555
C13_8 C8_8 1_555 1_555
H11_8 C13_8 1_555 1_555
N11_4 N8_8 1_555 1_555
N8_8 C20_8 1_555 1_555
H14_8 C16_8 1_555 1_555
C18_8 N11_4 1_555 1_555
C19_8 C18_8 1_555 1_555
H15_8 C19_8 1_555 1_555
H16_8 C19_8 1_555 1_555
H17_8 C19_8 1_555 1_555
C20_8 C7_8 1_555 1_555
C21_8 C20_8 1_555 1_555
C22_8 C21_8 1_555 1_555
H18_8 C22_8 1_555 1_555
C23_8 C22_8 1_555 1_555
H19_8 C23_8 1_555 1_555
C24_8 C23_8 1_555 1_555
H20_8 C24_8 1_555 1_555
C25_8 C24_8 1_555 1_555
H21_8 C25_8 1_555 1_555
C26_8 C21_8 1_555 1_555
H22_8 C26_8 1_555 1_555
C3_8 C4_8 1_555 1_555
C4_8 C5_8 1_555 1_555
C12_8 C13_8 1_555 1_555
C16_8 C17_8 1_555 1_555
C17_8 C18_8 1_555 1_555
C25_8 C26_8 1_555 1_555
H10_9 C12_9 1_555 1_555
H11_9 C13_9 1_555 1_555
N8_9 C20_9 1_555 1_555
C21_9 C20_9 1_555 1_555
C22_9 C21_9 1_555 1_555
H18_9 C22_9 1_555 1_555
C23_9 C22_9 1_555 1_555
H19_9 C23_9 1_555 1_555
C24_9 C23_9 1_555 1_555
H20_9 C24_9 1_555 1_555
C25_9 C24_9 1_555 1_555
H21_9 C25_9 1_555 1_555
C26_9 C21_9 1_555 1_555
H22_9 C26_9 1_555 1_555
N9_5 Ag1_7 1_555 1_555
N11_5 Ag1_7 1_555 1_555
C12_9 C13_9 1_555 1_555
C25_9 C26_9 1_555 1_555
Ag1_8 N1_8 1_555 1_555
Ag2_7 N2_6 1_555 1_555
N1_8 C1_9 1_555 1_555
N2_6 C2_9 1_555 1_555
N3_8 Ag1_8 1_555 1_555
N4_9 N3_8 1_555 1_555
C1_9 H1_9 1_555 1_555
C2_9 C1_9 1_555 1_555
H2_9 C2_9 1_555 1_555
C3_9 N2_6 1_555 1_555
H3_9 C3_9 1_555 1_555
C4_9 N1_8 1_555 1_555
C5_9 N3_8 1_555 1_555
C6_9 C5_9 1_555 1_555
H4_9 C6_9 1_555 1_555
H5_9 C6_9 1_555 1_555
H6_9 C6_9 1_555 1_555
C7_9 N4_9 1_555 1_555
C8_9 C7_9 1_555 1_555
C9_9 C8_9 1_555 1_555
H7_9 C9_9 1_555 1_555
C10_9 C9_9 1_555 1_555
H8_9 C10_9 1_555 1_555
C11_9 C10_9 1_555 1_555
H9_9 C11_9 1_555 1_555
H14_9 C16_9 1_555 1_555
C18_9 N7_6 1_555 1_555
C19_9 C18_9 1_555 1_555
H15_9 C19_9 1_555 1_555
H16_9 C19_9 1_555 1_555
H17_9 C19_9 1_555 1_555
N10_6 Ag2_7 1_555 1_555
C3_9 C4_9 1_555 1_555
C4_9 C5_9 1_555 1_555
N7_6 Ag3_7 1_555 1_555
C16_9 C17_9 1_555 1_555
C17_9 C18_9 1_555 1_555
N5_6 C14_9 1_555 1_555
N6_7 C15_9 1_555 1_555
C14_9 H12_9 1_555 1_555
C15_9 C14_9 1_555 1_555
H13_9 C15_9 1_555 1_555
Ag3_8 N5_6 1_555 1_555
Ag4_7 N6_7 1_555 1_555
N10_7 Ag2_8 1_555 1_555
C7_10 N4_10 1_555 1_555
C8_10 C7_10 1_555 1_555
C9_10 C8_10 1_555 1_555
H7_10 C9_10 1_555 1_555
C10_10 C9_10 1_555 1_555
H8_10 C10_10 1_555 1_555
C11_10 C10_10 1_555 1_555
H9_10 C11_10 1_555 1_555
C12_10 C11_10 1_555 1_555
H10_10 C12_10 1_555 1_555
C13_10 C8_10 1_555 1_555
H11_10 C13_10 1_555 1_555
H21_10 C25_10 1_555 1_555
H22_10 C26_10 1_555 1_555
C12_10 C13_10 1_555 1_555
C25_10 C26_10 1_555 1_555
Ag3_7 N1_9 1_555 1_555
Ag2_9 N2_7 1_555 1_555
N1_9 C1_10 1_555 1_555
N2_7 C2_10 1_555 1_555
C1_10 H1_10 1_555 1_555
C2_10 C1_10 1_555 1_555
H2_10 C2_10 1_555 1_555
N3_9 Ag3_8 1_555 1_555
H3_10 C3_10 1_555 1_555
C5_10 N3_9 1_555 1_555
C6_10 C5_10 1_555 1_555
H4_10 C6_10 1_555 1_555
H5_10 C6_10 1_555 1_555
H6_10 C6_10 1_555 1_555
N5_7 C14_10 1_555 1_555
N6_8 C15_10 1_555 1_555
N7_7 N8_10 1_555 1_555
N8_10 C20_10 1_555 1_555
C14_10 H12_10 1_555 1_555
C15_10 C14_10 1_555 1_555
H13_10 C15_10 1_555 1_555
C16_10 N6_8 1_555 1_555
H14_10 C16_10 1_555 1_555
C17_10 N5_7 1_555 1_555
C18_10 N7_7 1_555 1_555
C19_10 C18_10 1_555 1_555
H15_10 C19_10 1_555 1_555
H16_10 C19_10 1_555 1_555
H17_10 C19_10 1_555 1_555
C21_10 C20_10 1_555 1_555
C22_10 C21_10 1_555 1_555
H18_10 C22_10 1_555 1_555
C23_10 C22_10 1_555 1_555
H19_10 C23_10 1_555 1_555
C24_10 C23_10 1_555 1_555
H20_10 C24_10 1_555 1_555
Ag3_10 N5_7 1_555 1_555
Ag4_9 N6_8 1_555 1_555
C3_10 C4_10 1_555 1_555
C4_10 C5_10 1_555 1_555
N7_7 Ag3_10 1_555 1_555
C16_10 C17_10 1_555 1_555
C17_10 C18_10 1_555 1_555
Ag1_9 N1_10 1_555 1_555
Ag2_10 N2_8 1_555 1_555
N1_10 C1_11 1_555 1_555
N2_8 C2_11 1_555 1_555
N3_10 Ag1_9 1_555 1_555
C1_11 H1_11 1_555 1_555
C2_11 C1_11 1_555 1_555
H2_11 C2_11 1_555 1_555
C3_11 N2_8 1_555 1_555
H3_11 C3_11 1_555 1_555
C4_11 N1_10 1_555 1_555
C5_11 N3_10 1_555 1_555
C6_11 C5_11 1_555 1_555
H4_11 C6_11 1_555 1_555
H5_11 C6_11 1_555 1_555
H6_11 C6_11 1_555 1_555
N9_5 C14_11 1_555 1_555
N6_9 C15_11 1_555 1_555
N11_5 N8_11 1_555 1_555
N8_11 C20_11 1_555 1_555
C14_11 H12_11 1_555 1_555
C15_11 C14_11 1_555 1_555
H13_11 C15_11 1_555 1_555
C16_11 N6_9 1_555 1_555
H14_11 C16_11 1_555 1_555
C17_11 N9_5 1_555 1_555
C18_11 N11_5 1_555 1_555
C19_11 C18_11 1_555 1_555
H15_11 C19_11 1_555 1_555
H16_11 C19_11 1_555 1_555
H17_11 C19_11 1_555 1_555
C21_11 C20_11 1_555 1_555
C22_11 C21_11 1_555 1_555
H18_11 C22_11 1_555 1_555
C23_11 C22_11 1_555 1_555
H19_11 C23_11 1_555 1_555
C24_11 C23_11 1_555 1_555
H20_11 C24_11 1_555 1_555
Ag4_10 N6_9 1_555 1_555
N9_6 Ag1_9 1_555 1_555
N10_8 Ag2_10 1_555 1_555
N11_6 Ag1_9 1_555 1_555
C3_11 C4_11 1_555 1_555
C4_11 C5_11 1_555 1_555
C16_11 C17_11 1_555 1_555
C17_11 C18_11 1_555 1_555
C7_11 N4_11 1_555 1_555
C8_11 C7_11 1_555 1_555
C9_11 C8_11 1_555 1_555
H7_11 C9_11 1_555 1_555
C10_11 C9_11 1_555 1_555
H8_11 C10_11 1_555 1_555
C11_11 C10_11 1_555 1_555
H9_11 C11_11 1_555 1_555
C12_11 C11_11 1_555 1_555
H10_11 C12_11 1_555 1_555
C13_11 C8_11 1_555 1_555
H11_11 C13_11 1_555 1_555
H21_11 C25_11 1_555 1_555
H22_11 C26_11 1_555 1_555
C12_11 C13_11 1_555 1_555
C25_11 C26_11 1_555 1_555
N10_9 Ag4_7 1_555 1_555
N10_10 Ag2_11 1_555 1_555
Ag2_12 N2_9 1_555 1_555
N9_6 C1_12 1_555 1_555
N2_9 C2_12 1_555 1_555
C1_12 H1_12 1_555 1_555
C2_12 C1_12 1_555 1_555
H2_12 C2_12 1_555 1_555
C3_12 N2_9 1_555 1_555
H3_12 C3_12 1_555 1_555
C4_12 N9_6 1_555 1_555
C5_12 N11_6 1_555 1_555
C6_12 C5_12 1_555 1_555
H4_12 C6_12 1_555 1_555
H5_12 C6_12 1_555 1_555
H6_12 C6_12 1_555 1_555
N5_8 C14_12 1_555 1_555
N6_10 C15_12 1_555 1_555
N7_8 N8_12 1_555 1_555
N8_12 C20_12 1_555 1_555
C14_12 H12_12 1_555 1_555
C15_12 C14_12 1_555 1_555
H13_12 C15_12 1_555 1_555
C16_12 N6_10 1_555 1_555
H14_12 C16_12 1_555 1_555
C17_12 N5_8 1_555 1_555
C18_12 N7_8 1_555 1_555
C19_12 C18_12 1_555 1_555
H15_12 C19_12 1_555 1_555
H16_12 C19_12 1_555 1_555
H17_12 C19_12 1_555 1_555
C21_12 C20_12 1_555 1_555
C22_12 C21_12 1_555 1_555
H18_12 C22_12 1_555 1_555
C23_12 C22_12 1_555 1_555
H19_12 C23_12 1_555 1_555
C24_12 C23_12 1_555 1_555
H20_12 C24_12 1_555 1_555
Ag3_9 N5_8 1_555 1_555
Ag4_12 N6_10 1_555 1_555
C3_12 C4_12 1_555 1_555
C4_12 C5_12 1_555 1_555
N7_8 Ag3_9 1_555 1_555
C16_12 C17_12 1_555 1_555
C17_12 C18_12 1_555 1_555
C7_12 N4_12 1_555 1_555
C8_12 C7_12 1_555 1_555
C9_12 C8_12 1_555 1_555
H7_12 C9_12 1_555 1_555
C10_12 C9_12 1_555 1_555
H8_12 C10_12 1_555 1_555
C11_12 C10_12 1_555 1_555
H9_12 C11_12 1_555 1_555
C12_12 C11_12 1_555 1_555
H10_12 C12_12 1_555 1_555
C13_12 C8_12 1_555 1_555
H11_12 C13_12 1_555 1_555
H21_12 C25_12 1_555 1_555
H22_12 C26_12 1_555 1_555
C12_12 C13_12 1_555 1_555
C25_12 C26_12 1_555 1_555
Ag1_10 N1_11 1_555 1_555
Ag4_11 N2_10 1_555 1_555
N1_11 C1_13 1_555 1_555
N2_10 C2_13 1_555 1_555
N3_11 Ag1_10 1_555 1_555
N4_13 N3_11 1_555 1_555
C1_13 H1_13 1_555 1_555
C2_13 C1_13 1_555 1_555
H2_13 C2_13 1_555 1_555
C3_13 N2_10 1_555 1_555
H3_13 C3_13 1_555 1_555
C4_13 N1_11 1_555 1_555
C5_13 N3_11 1_555 1_555
C6_13 C5_13 1_555 1_555
H4_13 C6_13 1_555 1_555
H5_13 C6_13 1_555 1_555
H6_13 C6_13 1_555 1_555
C7_13 N4_13 1_555 1_555
C8_13 C7_13 1_555 1_555
C9_13 C8_13 1_555 1_555
H7_13 C9_13 1_555 1_555
C10_13 C9_13 1_555 1_555
H8_13 C10_13 1_555 1_555
C11_13 C10_13 1_555 1_555
H9_13 C11_13 1_555 1_555
C12_13 C11_13 1_555 1_555
H10_13 C12_13 1_555 1_555
C13_13 C8_13 1_555 1_555
H11_13 C13_13 1_555 1_555
N5_9 C14_13 1_555 1_555
N10_10 C15_13 1_555 1_555
N7_9 N8_13 1_555 1_555
N8_13 C20_13 1_555 1_555
C14_13 H12_13 1_555 1_555
C15_13 C14_13 1_555 1_555
H13_13 C15_13 1_555 1_555
C16_13 N10_10 1_555 1_555
H14_13 C16_13 1_555 1_555
C17_13 N5_9 1_555 1_555
C18_13 N7_9 1_555 1_555
C19_13 C18_13 1_555 1_555
H15_13 C19_13 1_555 1_555
H16_13 C19_13 1_555 1_555
H17_13 C19_13 1_555 1_555
C20_13 C7_13 1_555 1_555
C21_13 C20_13 1_555 1_555
C22_13 C21_13 1_555 1_555
H18_13 C22_13 1_555 1_555
C23_13 C22_13 1_555 1_555
H19_13 C23_13 1_555 1_555
C24_13 C23_13 1_555 1_555
H20_13 C24_13 1_555 1_555
C25_13 C24_13 1_555 1_555
H21_13 C25_13 1_555 1_555
C26_13 C21_13 1_555 1_555
H22_13 C26_13 1_555 1_555
Ag3_11 N5_9 1_555 1_555
N9_7 Ag1_10 1_555 1_555
N11_7 Ag1_10 1_555 1_555
C3_13 C4_13 1_555 1_555
C4_13 C5_13 1_555 1_555
C12_13 C13_13 1_555 1_555
N7_9 Ag3_11 1_555 1_555
C16_13 C17_13 1_555 1_555
C17_13 C18_13 1_555 1_555
C25_13 C26_13 1_555 1_555
Ag3_11 N1_12 1_555 1_555
N1_12 C1_14 1_555 1_555
N10_8 C2_14 1_555 1_555
N3_12 Ag3_11 1_555 1_555
N4_14 N3_12 1_555 1_555
C1_14 H1_14 1_555 1_555
C2_14 C1_14 1_555 1_555
H2_14 C2_14 1_555 1_555
C3_14 N10_8 1_555 1_555
H3_14 C3_14 1_555 1_555
C4_14 N1_12 1_555 1_555
C5_14 N3_12 1_555 1_555
C6_14 C5_14 1_555 1_555
H4_14 C6_14 1_555 1_555
H5_14 C6_14 1_555 1_555
H6_14 C6_14 1_555 1_555
C7_14 N4_14 1_555 1_555
C8_14 C7_14 1_555 1_555
C9_14 C8_14 1_555 1_555
H7_14 C9_14 1_555 1_555
C10_14 C9_14 1_555 1_555
H8_14 C10_14 1_555 1_555
C11_14 C10_14 1_555 1_555
H9_14 C11_14 1_555 1_555
C12_14 C11_14 1_555 1_555
H10_14 C12_14 1_555 1_555
C13_14 C8_14 1_555 1_555
H11_14 C13_14 1_555 1_555
N5_10 C14_14 1_555 1_555
N6_11 C15_14 1_555 1_555
N7_10 N8_14 1_555 1_555
N8_14 C20_14 1_555 1_555
C14_14 H12_14 1_555 1_555
C15_14 C14_14 1_555 1_555
H13_14 C15_14 1_555 1_555
C16_14 N6_11 1_555 1_555
H14_14 C16_14 1_555 1_555
C17_14 N5_10 1_555 1_555
C18_14 N7_10 1_555 1_555
C19_14 C18_14 1_555 1_555
H15_14 C19_14 1_555 1_555
H16_14 C19_14 1_555 1_555
H17_14 C19_14 1_555 1_555
C20_14 C7_14 1_555 1_555
C21_14 C20_14 1_555 1_555
C22_14 C21_14 1_555 1_555
H18_14 C22_14 1_555 1_555
C23_14 C22_14 1_555 1_555
H19_14 C23_14 1_555 1_555
C24_14 C23_14 1_555 1_555
H20_14 C24_14 1_555 1_555
C25_14 C24_14 1_555 1_555
H21_14 C25_14 1_555 1_555
C26_14 C21_14 1_555 1_555
H22_14 C26_14 1_555 1_555
Ag3_12 N5_10 1_555 1_555
Ag4_10 N6_11 1_555 1_555
C3_14 C4_14 1_555 1_555
C4_14 C5_14 1_555 1_555
C12_14 C13_14 1_555 1_555
N7_10 Ag3_12 1_555 1_555
C16_14 C17_14 1_555 1_555
C17_14 C18_14 1_555 1_555
C25_14 C26_14 1_555 1_555
Ag1_11 N1_13 1_555 1_555
N1_13 C1_15 1_555 1_555
N10_7 C2_15 1_555 1_555
C1_15 H1_15 1_555 1_555
C2_15 C1_15 1_555 1_555
H2_15 C2_15 1_555 1_555
N11_8 Ag1_11 1_555 1_555
N3_13 Ag1_12 1_555 1_555
N4_15 N3_13 1_555 1_555
H3_15 C3_15 1_555 1_555
C5_15 N3_13 1_555 1_555
C6_15 C5_15 1_555 1_555
H4_15 C6_15 1_555 1_555
H5_15 C6_15 1_555 1_555
H6_15 C6_15 1_555 1_555
C7_15 N4_15 1_555 1_555
C8_15 C7_15 1_555 1_555
C9_15 C8_15 1_555 1_555
H7_15 C9_15 1_555 1_555
C10_15 C9_15 1_555 1_555
H8_15 C10_15 1_555 1_555
C11_15 C10_15 1_555 1_555
H9_15 C11_15 1_555 1_555
C12_15 C11_15 1_555 1_555
H10_15 C12_15 1_555 1_555
C13_15 C8_15 1_555 1_555
H11_15 C13_15 1_555 1_555
N9_7 C14_15 1_555 1_555
N6_12 C15_15 1_555 1_555
N11_7 N8_15 1_555 1_555
N8_15 C20_15 1_555 1_555
C14_15 H12_15 1_555 1_555
C15_15 C14_15 1_555 1_555
H13_15 C15_15 1_555 1_555
C16_15 N6_12 1_555 1_555
H14_15 C16_15 1_555 1_555
C17_15 N9_7 1_555 1_555
C18_15 N11_7 1_555 1_555
C19_15 C18_15 1_555 1_555
H15_15 C19_15 1_555 1_555
H16_15 C19_15 1_555 1_555
H17_15 C19_15 1_555 1_555
C20_15 C7_15 1_555 1_555
C21_15 C20_15 1_555 1_555
C22_15 C21_15 1_555 1_555
H18_15 C22_15 1_555 1_555
C23_15 C22_15 1_555 1_555
H19_15 C23_15 1_555 1_555
C24_15 C23_15 1_555 1_555
H20_15 C24_15 1_555 1_555
C25_15 C24_15 1_555 1_555
H21_15 C25_15 1_555 1_555
C26_15 C21_15 1_555 1_555
H22_15 C26_15 1_555 1_555
Ag4_8 N6_12 1_555 1_555
N9_8 Ag1_12 1_555 1_555
C3_15 C4_15 1_555 1_555
C4_15 C5_15 1_555 1_555
C12_15 C13_15 1_555 1_555
C16_15 C17_15 1_555 1_555
C17_15 C18_15 1_555 1_555
C25_15 C26_15 1_555 1_555
Ag3_12 N1_14 1_555 1_555
N1_14 C1_16 1_555 1_555
N10_6 C2_16 1_555 1_555
N3_14 Ag3_12 1_555 1_555
N4_16 N3_14 1_555 1_555
C1_16 H1_16 1_555 1_555
C2_16 C1_16 1_555 1_555
H2_16 C2_16 1_555 1_555
C3_16 N10_6 1_555 1_555
H3_16 C3_16 1_555 1_555
C4_16 N1_14 1_555 1_555
C5_16 N3_14 1_555 1_555
C6_16 C5_16 1_555 1_555
H4_16 C6_16 1_555 1_555
H5_16 C6_16 1_555 1_555
H6_16 C6_16 1_555 1_555
C7_16 N4_16 1_555 1_555
C8_16 C7_16 1_555 1_555
C9_16 C8_16 1_555 1_555
H7_16 C9_16 1_555 1_555
C10_16 C9_16 1_555 1_555
H8_16 C10_16 1_555 1_555
C11_16 C10_16 1_555 1_555
H9_16 C11_16 1_555 1_555
C12_16 C11_16 1_555 1_555
H10_16 C12_16 1_555 1_555
C13_16 C8_16 1_555 1_555
H11_16 C13_16 1_555 1_555
N11_8 N8_16 1_555 1_555
N8_16 C20_16 1_555 1_555
H14_16 C16_16 1_555 1_555
C18_16 N11_8 1_555 1_555
C19_16 C18_16 1_555 1_555
H15_16 C19_16 1_555 1_555
H16_16 C19_16 1_555 1_555
H17_16 C19_16 1_555 1_555
C20_16 C7_16 1_555 1_555
C21_16 C20_16 1_555 1_555
C22_16 C21_16 1_555 1_555
H18_16 C22_16 1_555 1_555
C23_16 C22_16 1_555 1_555
H19_16 C23_16 1_555 1_555
C24_16 C23_16 1_555 1_555
H20_16 C24_16 1_555 1_555
C25_16 C24_16 1_555 1_555
H21_16 C25_16 1_555 1_555
C26_16 C21_16 1_555 1_555
H22_16 C26_16 1_555 1_555
C3_16 C4_16 1_555 1_555
C4_16 C5_16 1_555 1_555
C12_16 C13_16 1_555 1_555
C16_16 C17_16 1_555 1_555
C17_16 C18_16 1_555 1_555
C25_16 C26_16 1_555 1_555
N9_8 C14_16 1_555 1_555
N10_9 C15_16 1_555 1_555
C14_16 H12_16 1_555 1_555
C15_16 C14_16 1_555 1_555
H13_16 C15_16 1_555 1_555
N12 O1 1_555 1_555
O2 N12 1_555 1_555
O3 N12 1_555 1_555
N12_2 O1_2 1_555 1_555
O2_2 N12_2 1_555 1_555
O3_2 N12_2 1_555 1_555
N12_3 O1_3 1_555 1_555
O2_3 N12_3 1_555 1_555
O3_3 N12_3 1_555 1_555
N12_4 O1_4 1_555 1_555
O2_4 N12_4 1_555 1_555
O3_4 N12_4 1_555 1_555
N12_5 O1_5 1_555 1_555
O2_5 N12_5 1_555 1_555
O3_5 N12_5 1_555 1_555
N12_6 O1_6 1_555 1_555
O2_6 N12_6 1_555 1_555
O3_6 N12_6 1_555 1_555
N12_7 O1_7 1_555 1_555
O2_7 N12_7 1_555 1_555
O3_7 N12_7 1_555 1_555
N12_8 O1_8 1_555 1_555
O2_8 N12_8 1_555 1_555
O3_8 N12_8 1_555 1_555
N12_9 O1_9 1_555 1_555
O2_9 N12_9 1_555 1_555
O3_9 N12_9 1_555 1_555
N12_10 O1_10 1_555 1_555
O2_10 N12_10 1_555 1_555
O3_10 N12_10 1_555 1_555
N12_11 O1_11 1_555 1_555
O2_11 N12_11 1_555 1_555
O3_11 N12_11 1_555 1_555
N12_12 O1_12 1_555 1_555
O2_12 N12_12 1_555 1_555
O3_12 N12_12 1_555 1_555
N12_13 O1_13 1_555 1_555
O2_13 N12_13 1_555 1_555
O3_13 N12_13 1_555 1_555
N12_14 O1_14 1_555 1_555
O2_14 N12_14 1_555 1_555
O3_14 N12_14 1_555 1_555
N12_15 O1_15 1_555 1_555
O2_15 N12_15 1_555 1_555
O3_15 N12_15 1_555 1_555
N12_16 O1_16 1_555 1_555
O2_16 N12_16 1_555 1_555
O3_16 N12_16 1_555 1_555
N12_17 O1_17 1_555 1_555
O2_17 N12_17 1_555 1_555
O3_17 N12_17 1_555 1_555
N12_18 O1_18 1_555 1_555
O2_18 N12_18 1_555 1_555
O3_18 N12_18 1_555 1_555
N12_19 O1_19 1_555 1_555
O2_19 N12_19 1_555 1_555
O3_19 N12_19 1_555 1_555
N12_20 O1_20 1_555 1_555
O2_20 N12_20 1_555 1_555
O3_20 N12_20 1_555 1_555
N12_21 O1_21 1_555 1_555
O2_21 N12_21 1_555 1_555
O3_21 N12_21 1_555 1_555
N12_22 O1_22 1_555 1_555
O2_22 N12_22 1_555 1_555
O3_22 N12_22 1_555 1_555
N12_23 O1_23 1_555 1_555
O2_23 N12_23 1_555 1_555
O3_23 N12_23 1_555 1_555
N12_24 O1_24 1_555 1_555
O2_24 N12_24 1_555 1_555
O3_24 N12_24 1_555 1_555
N12_25 O1_25 1_555 1_555
O2_25 N12_25 1_555 1_555
O3_25 N12_25 1_555 1_555
N12_26 O1_26 1_555 1_555
O2_26 N12_26 1_555 1_555
O3_26 N12_26 1_555 1_555
N12_27 O1_27 1_555 1_555
O2_27 N12_27 1_555 1_555
O3_27 N12_27 1_555 1_555
N12_28 O1_28 1_555 1_555
O2_28 N12_28 1_555 1_555
O3_28 N12_28 1_555 1_555
N12_29 O1_29 1_555 1_555
O2_29 N12_29 1_555 1_555
O3_29 N12_29 1_555 1_555
N12_30 O1_30 1_555 1_555
O2_30 N12_30 1_555 1_555
O3_30 N12_30 1_555 1_555
N12_31 O1_31 1_555 1_555
O2_31 N12_31 1_555 1_555
O3_31 N12_31 1_555 1_555
N12_32 O1_32 1_555 1_555
O2_32 N12_32 1_555 1_555
O3_32 N12_32 1_555 1_555

#END
