
###############################################################################
#
# This file contains modified crystal structure data generated from the
# MOF subset of the Cambridge Structural Database (CSD) v543 
# hosted by the Cambridge Crystallographic Data Centre (CCDC).
#
# This work is licensed under the Creative Commons
# Attribution-NonCommercial-ShareAlike 4.0 International License.
# To view a copy of this license, visit
# http://creativecommons.org/licenses/by-nc-sa/4.0/
# or send a letter to
# Creative Commons, PO Box 1866, Mountain View, CA 94042, USA.
#
# CIF created using the CSD Python API on 29 September 2022
# The structure has been converted into the P1 space group
# The structure has a 3D framework
# The original CSD entry TASVUG is in the orthorhombic crystal system
# The framework has been calculated to contain at least 10.0% void space
# The void calculation uses a probe of radius 1.32A, grid spacing 0.4
#
###############################################################################

data_TASVUG
_chemical_formula_moiety         '(C208 H120 Cl96 O72 Tb8)n'
_symmetry_cell_setting           triclinic
_symmetry_space_group_name_H-M   'P 1'
_symmetry_Int_Tables_number      1
_space_group_name_Hall           'P 1'
loop_
_symmetry_equiv_pos_site_id
_symmetry_equiv_pos_as_xyz
1 x,y,z
_cell_length_a                   25.73(2)
_cell_length_b                   26.94(3)
_cell_length_c                   15.188(13)
_cell_angle_alpha                90
_cell_angle_beta                 90
_cell_angle_gamma                90
_cell_volume                     10527.8
loop_
_atom_site_label
_atom_site_type_symbol
_atom_site_fract_x
_atom_site_fract_y
_atom_site_fract_z
Tb1 Tb 0.60286(2) 0.183664(19) 0.64990(5)
Cl1 Cl 0.36142(19) 0.37582(13) 0.2030(4)
O1 O 0.4742(5) 0.5577(4) 0.1423(10)
C1 C 0.3777(6) 0.3882(7) 0.4112(13)
H1 H 0.3637 0.4102 0.4567
Cl2 Cl 0.3857(2) 0.47088(18) 0.0852(4)
C2 C 0.3910(5) 0.4288(5) 0.3496(12)
Cl3 Cl 0.45454(15) 0.56709(12) 0.3845(3)
C3 C 0.3838(5) 0.4296(4) 0.2565(13)
Cl4 Cl 0.42174(18) 0.47808(16) 0.5058(3)
C4 C 0.3967(5) 0.4712(5) 0.2044(12)
O2 O 0.5496(3) 0.2532(3) 0.6366(6)
Cl5 Cl 0.4883(2) 0.3640(2) 0.3321(3)
O3 O 0.1618(3) 0.2509(3) 0.3945(6)
C5 C 0.4179(5) 0.5140(4) 0.2392(10)
C6 C 0.4248(5) 0.5154(4) 0.3321(11)
O4 O 0.4005(3) 0.5957(3) 0.1815(6)
Cl6 Cl 0.57008(15) 0.32190(16) 0.4667(3)
Cl7 Cl 0.42901(17) 0.31706(18) 0.7336(4)
O5 O 0.1589(4) 0.3059(4) 0.2741(7)
C7 C 0.4133(5) 0.4733(5) 0.3898(11)
Cl8 Cl 0.34751(14) 0.36484(17) 0.6067(4)
O6 O 0.5495(3) 0.3231(3) 0.7201(7)
C8 C 0.4318(6) 0.5598(4) 0.1841(11)
Cl9 Cl 0.28227(18) 0.44839(12) 0.4289(4)
C9 C 0.4197(5) 0.3633(4) 0.4738(12)
O7 O 0.5254(4) 0.1518(3) 0.5784(8)
H2 H 0.5204 0.1192 0.5890
Cl10 Cl 0.17724(16) 0.39666(15) 0.3979(4)
C10 C 0.4714(5) 0.3516(5) 0.4428(10)
O8 O 0.6075(6) 0.1906(6) 0.4868(12)
H3 H 0.6342 0.1765 0.4577
H4 H 0.5829 0.2072 0.4569
Cl11 Cl 0.27399(15) 0.21840(13) 0.3548(3)
C11 C 0.5072(5) 0.3307(4) 0.5031(10)
O9 O 0.6797(6) 0.1413(5) 0.5867(13)
H5 H 0.6944 0.1596 0.5437
Cl12 Cl 0.37941(14) 0.26894(16) 0.3763(3)
C12 C 0.4960(4) 0.3199(3) 0.5919(10)
C13 C 0.4448(5) 0.3293(4) 0.6221(9)
C14 C 0.4081(5) 0.3515(4) 0.5604(12)
C15 C 0.5353(4) 0.2966(4) 0.6554(9)
C16 C 0.3278(5) 0.3573(4) 0.4023(12)
C17 C 0.2815(5) 0.3855(4) 0.4039(11)
C18 C 0.2331(5) 0.3623(4) 0.3951(11)
C19 C 0.2298(5) 0.3112(4) 0.3689(10)
C20 C 0.2757(5) 0.2834(5) 0.3779(11)
C21 C 0.3244(5) 0.3058(5) 0.3859(11)
C22 C 0.1789(4) 0.2860(5) 0.3481(10)
C23 C 0.4880(9) 0.1725(8) 0.5192(17)
H6 H 0.4948 0.2079 0.5152
H7 H 0.4540 0.1686 0.5459
C24 C 0.4849(19) 0.1520(19) 0.425(2)
H8 H 0.4577 0.1689 0.3932
H9 H 0.4774 0.1171 0.4266
H10 H 0.5174 0.1573 0.3954
C25 C 0.7064(12) 0.0950(8) 0.593(5)
H11 H 0.7414 0.1084 0.5943
H12 H 0.7017 0.0847 0.5328
C26 C 0.720(3) 0.0434(15) 0.631(4)
H13 H 0.7568 0.0410 0.6392
H14 H 0.7086 0.0182 0.5905
H15 H 0.7026 0.0390 0.6864
Tb2 Tb 0.10286(2) 0.183664(19) 0.35010(5)
Tb3 Tb 0.39714(2) 0.683664(19) 0.14990(5)
Tb4 Tb 0.10286(2) 0.316336(19) 0.14990(5)
Tb5 Tb 0.60286(2) 0.316336(19) 0.85010(5)
O10 O 0.6618(3) 0.2509(3) 0.6055(6)
O11 O 0.5995(3) 0.0957(3) 0.6815(6)
O12 O 0.6589(4) 0.1941(4) 0.7741(7)
O13 O 0.5495(3) 0.1769(3) 0.7799(7)
Cl1_2 Cl 0.13858(19) 0.62418(13) 0.2030(4)
O1_2 O 0.0258(5) 0.4423(4) 0.1423(10)
C1_2 C 0.1223(6) 0.6118(7) 0.4112(13)
H1_2 H 0.1363 0.5898 0.4567
Cl2_2 Cl 0.1143(2) 0.52912(18) 0.0852(4)
C2_2 C 0.1090(5) 0.5712(5) 0.3496(12)
Cl3_2 Cl 0.04546(15) 0.43291(12) 0.3845(3)
C3_2 C 0.1162(5) 0.5704(4) 0.2565(13)
Cl4_2 Cl 0.07826(18) 0.52192(16) 0.5058(3)
C4_2 C 0.1033(5) 0.5288(5) 0.2044(12)
Cl5_2 Cl 0.0117(2) 0.6360(2) 0.3321(3)
O3_2 O 0.3382(3) 0.7491(3) 0.3945(6)
C5_2 C 0.0821(5) 0.4860(4) 0.2392(10)
C6_2 C 0.0752(5) 0.4846(4) 0.3321(11)
O4_2 O 0.0995(3) 0.4043(3) 0.1815(6)
Cl7_2 Cl 0.07099(17) 0.68294(18) 0.7336(4)
O5_2 O 0.3411(4) 0.6941(4) 0.2741(7)
C7_2 C 0.0867(5) 0.5267(5) 0.3898(11)
Cl8_2 Cl 0.15249(14) 0.63516(17) 0.6067(4)
C8_2 C 0.0682(6) 0.4402(4) 0.1841(11)
Cl9_2 Cl 0.21773(18) 0.55161(12) 0.4289(4)
C9_2 C 0.0803(5) 0.6367(4) 0.4738(12)
Cl10_2 Cl 0.32276(16) 0.60334(15) 0.3979(4)
C10_2 C 0.0286(5) 0.6484(5) 0.4428(10)
Cl11_2 Cl 0.22601(15) 0.78160(13) 0.3548(3)
Cl12_2 Cl 0.12059(14) 0.73106(16) 0.3763(3)
C12_2 C 0.0040(4) 0.6801(3) 0.5919(10)
C13_2 C 0.0552(5) 0.6707(4) 0.6221(9)
C14_2 C 0.0919(5) 0.6485(4) 0.5604(12)
C16_2 C 0.1722(5) 0.6427(4) 0.4023(12)
C17_2 C 0.2185(5) 0.6145(4) 0.4039(11)
C18_2 C 0.2669(5) 0.6377(4) 0.3951(11)
C19_2 C 0.2702(5) 0.6888(4) 0.3689(10)
C20_2 C 0.2243(5) 0.7166(5) 0.3779(11)
C21_2 C 0.1756(5) 0.6942(5) 0.3859(11)
C22_2 C 0.3211(4) 0.7140(5) 0.3481(10)
C23_2 C 0.0120(9) 0.8275(8) 0.5192(17)
H6_2 H 0.0052 0.7921 0.5152
H7_2 H 0.0460 0.8314 0.5459
C24_2 C 0.0151(19) 0.8480(19) 0.425(2)
H8_2 H 0.0423 0.8311 0.3932
H9_2 H 0.0226 0.8829 0.4266
Tb2_2 Tb 0.39714(2) 0.816336(19) 0.35010(5)
Tb1_2 Tb 0.89714(2) 0.816336(19) 0.64990(5)
O2_2 O 0.9504(3) 0.7468(3) 0.6366(6)
Cl6_2 Cl 0.92992(15) 0.67810(16) 0.4667(3)
O6_2 O 0.9505(3) 0.6769(3) 0.7201(7)
O7_2 O 0.9746(4) 0.8482(3) 0.5784(8)
H2_2 H 0.9796 0.8808 0.5890
O8_2 O 0.8925(6) 0.8094(6) 0.4868(12)
H3_2 H 0.8658 0.8235 0.4577
H4_2 H 0.9171 0.7928 0.4569
C11_2 C 0.9928(5) 0.6693(4) 0.5031(10)
O9_2 O 0.8203(6) 0.8587(5) 0.5867(13)
H5_2 H 0.8056 0.8404 0.5437
C15_2 C 0.9647(4) 0.7034(4) 0.6554(9)
H10_2 H 0.9826 0.8427 0.3954
C25_2 C 0.7936(12) 0.9050(8) 0.593(5)
H11_2 H 0.7586 0.8916 0.5943
H12_2 H 0.7983 0.9153 0.5328
C26_2 C 0.780(3) 0.9566(15) 0.631(4)
H13_2 H 0.7432 0.9590 0.6392
H14_2 H 0.7914 0.9818 0.5905
H15_2 H 0.7974 0.9610 0.6864
Tb5_2 Tb 0.89714(2) 0.683664(19) 0.85010(5)
O10_2 O 0.8382(3) 0.7491(3) 0.6055(6)
O11_2 O 0.9005(3) 0.9043(3) 0.6815(6)
O12_2 O 0.8411(4) 0.8059(4) 0.7741(7)
O13_2 O 0.9505(3) 0.8231(3) 0.7799(7)
O1_3 O 0.0258(5) 0.0577(4) 0.3577(10)
Cl3_3 Cl 0.04546(15) 0.06709(12) 0.1155(3)
C5_3 C 0.0821(5) 0.0140(4) 0.2608(10)
C6_3 C 0.0752(5) 0.0154(4) 0.1679(11)
O4_3 O 0.0995(3) 0.0957(3) 0.3185(6)
C8_3 C 0.0682(6) 0.0598(4) 0.3159(11)
Cl1_3 Cl 0.13858(19) 0.87582(13) 0.2970(4)
C1_3 C 0.1223(6) 0.8882(7) 0.0888(13)
H1_3 H 0.1363 0.9102 0.0433
Cl2_3 Cl 0.1143(2) 0.97088(18) 0.4148(4)
C2_3 C 0.1090(5) 0.9288(5) 0.1504(12)
C3_3 C 0.1162(5) 0.9296(4) 0.2435(13)
C4_3 C 0.1033(5) 0.9712(5) 0.2956(12)
Cl5_3 Cl 0.0117(2) 0.8640(2) 0.1679(3)
O3_3 O 0.3382(3) 0.7509(3) 0.1055(6)
O5_3 O 0.3411(4) 0.8059(4) 0.2259(7)
C7_3 C 0.0867(5) 0.9733(5) 0.1102(11)
Cl9_3 Cl 0.21773(18) 0.94839(12) 0.0711(4)
C9_3 C 0.0803(5) 0.8633(4) 0.0262(12)
Cl10_3 Cl 0.32276(16) 0.89666(15) 0.1021(4)
C10_3 C 0.0286(5) 0.8516(5) 0.0572(10)
Cl11_3 Cl 0.22601(15) 0.71840(13) 0.1452(3)
Cl12_3 Cl 0.12059(14) 0.76894(16) 0.1237(3)
C16_3 C 0.1722(5) 0.8573(4) 0.0977(12)
C17_3 C 0.2185(5) 0.8855(4) 0.0961(11)
C18_3 C 0.2669(5) 0.8623(4) 0.1049(11)
C19_3 C 0.2702(5) 0.8112(4) 0.1311(10)
C20_3 C 0.2243(5) 0.7834(5) 0.1221(11)
C21_3 C 0.1756(5) 0.8058(5) 0.1141(11)
C22_3 C 0.3211(4) 0.7860(5) 0.1519(10)
C24_3 C 0.0151(19) 0.6520(19) 0.075(2)
H8_3 H 0.0423 0.6689 0.1068
H9_3 H 0.0226 0.6171 0.0734
O2_3 O 0.9504(3) 0.7532(3) 0.8634(6)
O7_3 O 0.9746(4) 0.6518(3) 0.9216(8)
H2_3 H 0.9796 0.6192 0.9110
C11_3 C 0.9928(5) 0.8307(4) 0.9969(10)
O9_3 O 0.8203(6) 0.6413(5) 0.9133(13)
H5_3 H 0.8056 0.6596 0.9563
C15_3 C 0.9647(4) 0.7966(4) 0.8446(9)
C25_3 C 0.7936(12) 0.5950(8) 0.907(5)
H11_3 H 0.7586 0.6084 0.9057
H12_3 H 0.7983 0.5847 0.9672
C26_3 C 0.780(3) 0.5434(15) 0.869(4)
H13_3 H 0.7432 0.5410 0.8608
H14_3 H 0.7914 0.5182 0.9095
H15_3 H 0.7974 0.5390 0.8136
O10_3 O 0.8382(3) 0.7509(3) 0.8945(6)
O11_3 O 0.9005(3) 0.5957(3) 0.8185(6)
O12_3 O 0.8411(4) 0.6941(4) 0.7259(7)
Cl1_4 Cl 0.36142(19) 0.12418(13) 0.2970(4)
C1_4 C 0.3777(6) 0.1118(7) 0.0888(13)
H1_4 H 0.3637 0.0898 0.0433
Cl2_4 Cl 0.3857(2) 0.02912(18) 0.4148(4)
C2_4 C 0.3910(5) 0.0712(5) 0.1504(12)
C3_4 C 0.3838(5) 0.0704(4) 0.2435(13)
C4_4 C 0.3967(5) 0.0288(5) 0.2956(12)
Cl5_4 Cl 0.4883(2) 0.1360(2) 0.1679(3)
O3_4 O 0.1618(3) 0.2491(3) 0.1055(6)
Cl6_3 Cl 0.57008(15) 0.17810(16) 0.0333(3)
O5_4 O 0.1589(4) 0.1941(4) 0.2259(7)
C7_4 C 0.4133(5) 0.0267(5) 0.1102(11)
Cl9_4 Cl 0.28227(18) 0.05161(12) 0.0711(4)
C9_4 C 0.4197(5) 0.1367(4) 0.0262(12)
Cl10_4 Cl 0.17724(16) 0.10334(15) 0.1021(4)
C10_4 C 0.4714(5) 0.1484(5) 0.0572(10)
O8_3 O 0.6075(6) 0.3094(6) 0.0132(12)
H3_3 H 0.6342 0.3235 0.0423
H4_3 H 0.5829 0.2928 0.0431
Cl11_4 Cl 0.27399(15) 0.28160(13) 0.1452(3)
Cl12_4 Cl 0.37941(14) 0.23106(16) 0.1237(3)
C16_4 C 0.3278(5) 0.1427(4) 0.0977(12)
C17_4 C 0.2815(5) 0.1145(4) 0.0961(11)
C18_4 C 0.2331(5) 0.1377(4) 0.1049(11)
C19_4 C 0.2298(5) 0.1888(4) 0.1311(10)
C20_4 C 0.2757(5) 0.2166(5) 0.1221(11)
C21_4 C 0.3244(5) 0.1942(5) 0.1141(11)
C22_4 C 0.1789(4) 0.2140(5) 0.1519(10)
C24_4 C 0.4849(19) 0.3480(19) 0.075(2)
H8_4 H 0.4577 0.3311 0.1068
H9_4 H 0.4774 0.3829 0.0734
H10_3 H 0.5174 0.3427 0.1046
Cl4_3 Cl 0.42174(18) 0.02192(16) 0.9942(3)
O2_4 O 0.5496(3) 0.2468(3) 0.8634(6)
Cl7_3 Cl 0.42901(17) 0.18294(18) 0.7664(4)
Cl8_3 Cl 0.34751(14) 0.13516(17) 0.8933(4)
O7_4 O 0.5254(4) 0.3482(3) 0.9216(8)
H2_4 H 0.5204 0.3808 0.9110
C11_4 C 0.5072(5) 0.1693(4) 0.9969(10)
O9_4 O 0.6797(6) 0.3587(5) 0.9133(13)
H5_4 H 0.6944 0.3404 0.9563
C12_3 C 0.4960(4) 0.1801(3) 0.9081(10)
C13_3 C 0.4448(5) 0.1707(4) 0.8779(9)
C14_3 C 0.4081(5) 0.1485(4) 0.9396(12)
C15_4 C 0.5353(4) 0.2034(4) 0.8446(9)
C23_3 C 0.4880(9) 0.3275(8) 0.9808(17)
H6_3 H 0.4948 0.2921 0.9848
H7_3 H 0.4540 0.3314 0.9541
C25_4 C 0.7064(12) 0.4050(8) 0.907(5)
H11_4 H 0.7414 0.3916 0.9057
H12_4 H 0.7017 0.4153 0.9672
C26_4 C 0.720(3) 0.4566(15) 0.869(4)
H13_4 H 0.7568 0.4590 0.8608
H14_4 H 0.7086 0.4818 0.9095
H15_4 H 0.7026 0.4610 0.8136
O10_4 O 0.6618(3) 0.2491(3) 0.8945(6)
O11_4 O 0.5995(3) 0.4043(3) 0.8185(6)
O12_4 O 0.6589(4) 0.3059(4) 0.7259(7)
O1_4 O 0.4742(5) 0.9423(4) 0.3577(10)
Cl3_4 Cl 0.45454(15) 0.93291(12) 0.1155(3)
C5_4 C 0.4179(5) 0.9860(4) 0.2608(10)
C6_4 C 0.4248(5) 0.9846(4) 0.1679(11)
O4_4 O 0.4005(3) 0.9043(3) 0.3185(6)
C8_4 C 0.4318(6) 0.9402(4) 0.3159(11)
Cl1_5 Cl 0.63858(19) 0.62418(13) 0.7970(4)
O1_5 O 0.5258(5) 0.4423(4) 0.8577(10)
C1_5 C 0.6223(6) 0.6118(7) 0.5888(13)
H1_5 H 0.6363 0.5898 0.5433
Cl2_5 Cl 0.6143(2) 0.52912(18) 0.9148(4)
C2_5 C 0.6090(5) 0.5712(5) 0.6504(12)
Cl3_5 Cl 0.54546(15) 0.43291(12) 0.6155(3)
C3_5 C 0.6162(5) 0.5704(4) 0.7435(13)
Cl4_4 Cl 0.57826(18) 0.52192(16) 0.4942(3)
C4_5 C 0.6033(5) 0.5288(5) 0.7956(12)
O2_5 O 0.4504(3) 0.7468(3) 0.3634(6)
Cl5_5 Cl 0.5117(2) 0.6360(2) 0.6679(3)
C5_5 C 0.5821(5) 0.4860(4) 0.7608(10)
C6_5 C 0.5752(5) 0.4846(4) 0.6679(11)
Cl6_4 Cl 0.42992(15) 0.67810(16) 0.5333(3)
Cl7_4 Cl 0.57099(17) 0.68294(18) 0.2664(4)
C7_5 C 0.5867(5) 0.5267(5) 0.6102(11)
Cl8_4 Cl 0.65249(14) 0.63516(17) 0.3933(4)
O6_3 O 0.4505(3) 0.6769(3) 0.2799(7)
C8_5 C 0.5682(6) 0.4402(4) 0.8159(11)
Cl9_5 Cl 0.71773(18) 0.55161(12) 0.5711(4)
C9_5 C 0.5803(5) 0.6367(4) 0.5262(12)
O7_5 O 0.4746(4) 0.8482(3) 0.4216(8)
H2_5 H 0.4796 0.8808 0.4110
Cl10_5 Cl 0.82276(16) 0.60334(15) 0.6021(4)
C10_5 C 0.5286(5) 0.6484(5) 0.5572(10)
O8_4 O 0.3925(6) 0.8094(6) 0.5132(12)
H3_4 H 0.3658 0.8235 0.5423
H4_4 H 0.4171 0.7928 0.5431
Cl11_5 Cl 0.72601(15) 0.78160(13) 0.6452(3)
C11_5 C 0.4928(5) 0.6693(4) 0.4969(10)
O9_5 O 0.3203(6) 0.8587(5) 0.4133(13)
H5_5 H 0.3056 0.8404 0.4563
Cl12_5 Cl 0.62059(14) 0.73106(16) 0.6237(3)
C12_4 C 0.5040(4) 0.6801(3) 0.4081(10)
C13_4 C 0.5552(5) 0.6707(4) 0.3779(9)
C14_4 C 0.5919(5) 0.6485(4) 0.4396(12)
C15_5 C 0.4647(4) 0.7034(4) 0.3446(9)
C16_5 C 0.6722(5) 0.6427(4) 0.5977(12)
C17_5 C 0.7185(5) 0.6145(4) 0.5961(11)
C18_5 C 0.7669(5) 0.6377(4) 0.6049(11)
C19_5 C 0.7702(5) 0.6888(4) 0.6311(10)
C20_5 C 0.7243(5) 0.7166(5) 0.6221(11)
C21_5 C 0.6756(5) 0.6942(5) 0.6141(11)
C22_5 C 0.8211(4) 0.7140(5) 0.6519(10)
C23_4 C 0.5120(9) 0.8275(8) 0.4808(17)
H6_4 H 0.5052 0.7921 0.4848
H7_4 H 0.5460 0.8314 0.4541
C24_5 C 0.5151(19) 0.8480(19) 0.575(2)
H8_5 H 0.5423 0.8311 0.6068
H9_5 H 0.5226 0.8829 0.5734
H10_4 H 0.4826 0.8427 0.6046
C25_5 C 0.2936(12) 0.9050(8) 0.407(5)
H11_5 H 0.2586 0.8916 0.4057
H12_5 H 0.2983 0.9153 0.4672
C26_5 C 0.280(3) 0.9566(15) 0.369(4)
H13_5 H 0.2432 0.9590 0.3608
H14_5 H 0.2914 0.9818 0.4095
H15_5 H 0.2974 0.9610 0.3136
O13_3 O 0.4505(3) 0.8231(3) 0.2201(7)
O2_6 O 0.0496(3) 0.2532(3) 0.3634(6)
Cl6_5 Cl 0.07008(15) 0.32190(16) 0.5333(3)
O6_4 O 0.0495(3) 0.3231(3) 0.2799(7)
O7_6 O 0.0254(4) 0.1518(3) 0.4216(8)
H2_6 H 0.0204 0.1192 0.4110
O8_5 O 0.1075(6) 0.1906(6) 0.5132(12)
H3_5 H 0.1342 0.1765 0.5423
H4_5 H 0.0829 0.2072 0.5431
C11_6 C 0.0072(5) 0.3307(4) 0.4969(10)
O9_6 O 0.1797(6) 0.1413(5) 0.4133(13)
H5_6 H 0.1944 0.1596 0.4563
C15_6 C 0.0353(4) 0.2966(4) 0.3446(9)
H10_5 H 0.0174 0.1573 0.6046
C25_6 C 0.2064(12) 0.0950(8) 0.407(5)
H11_6 H 0.2414 0.1084 0.4057
H12_6 H 0.2017 0.0847 0.4672
C26_6 C 0.220(3) 0.0434(15) 0.369(4)
H13_6 H 0.2568 0.0410 0.3608
H14_6 H 0.2086 0.0182 0.4095
H15_6 H 0.2026 0.0390 0.3136
O13_4 O 0.0495(3) 0.1769(3) 0.2201(7)
Cl1_6 Cl 0.86142(19) 0.37582(13) 0.7970(4)
O1_6 O 0.9742(5) 0.5577(4) 0.8577(10)
C1_6 C 0.8777(6) 0.3882(7) 0.5888(13)
H1_6 H 0.8637 0.4102 0.5433
Cl2_6 Cl 0.8857(2) 0.47088(18) 0.9148(4)
C2_6 C 0.8910(5) 0.4288(5) 0.6504(12)
Cl3_6 Cl 0.95454(15) 0.56709(12) 0.6155(3)
C3_6 C 0.8838(5) 0.4296(4) 0.7435(13)
Cl4_5 Cl 0.92174(18) 0.47808(16) 0.4942(3)
C4_6 C 0.8967(5) 0.4712(5) 0.7956(12)
Cl5_6 Cl 0.9883(2) 0.3640(2) 0.6679(3)
C5_6 C 0.9179(5) 0.5140(4) 0.7608(10)
C6_6 C 0.9248(5) 0.5154(4) 0.6679(11)
Cl7_5 Cl 0.92901(17) 0.31706(18) 0.2664(4)
C7_6 C 0.9133(5) 0.4733(5) 0.6102(11)
Cl8_5 Cl 0.84751(14) 0.36484(17) 0.3933(4)
C8_6 C 0.9318(6) 0.5598(4) 0.8159(11)
Cl9_6 Cl 0.78227(18) 0.44839(12) 0.5711(4)
C9_6 C 0.9197(5) 0.3633(4) 0.5262(12)
Cl10_6 Cl 0.67724(16) 0.39666(15) 0.6021(4)
C10_6 C 0.9714(5) 0.3516(5) 0.5572(10)
Cl11_6 Cl 0.77399(15) 0.21840(13) 0.6452(3)
Cl12_6 Cl 0.87941(14) 0.26894(16) 0.6237(3)
C12_5 C 0.9960(4) 0.3199(3) 0.4081(10)
C13_5 C 0.9448(5) 0.3293(4) 0.3779(9)
C14_5 C 0.9081(5) 0.3515(4) 0.4396(12)
C16_6 C 0.8278(5) 0.3573(4) 0.5977(12)
C17_6 C 0.7815(5) 0.3855(4) 0.5961(11)
C18_6 C 0.7331(5) 0.3623(4) 0.6049(11)
C19_6 C 0.7298(5) 0.3112(4) 0.6311(10)
C20_6 C 0.7757(5) 0.2834(5) 0.6221(11)
C21_6 C 0.8244(5) 0.3058(5) 0.6141(11)
C22_6 C 0.6789(4) 0.2860(5) 0.6519(10)
C23_5 C 0.9880(9) 0.1725(8) 0.4808(17)
H6_5 H 0.9948 0.2079 0.4848
H7_5 H 0.9540 0.1686 0.4541
C24_6 C 0.9849(19) 0.1520(19) 0.575(2)
H8_6 H 0.9577 0.1689 0.6068
H9_6 H 0.9774 0.1171 0.5734
O2_7 O 0.0496(3) 0.2468(3) 0.1366(6)
O7_7 O 0.0254(4) 0.3482(3) 0.0784(8)
H2_7 H 0.0204 0.3808 0.0890
C11_7 C 0.0072(5) 0.1693(4) 0.0031(10)
O9_7 O 0.1797(6) 0.3587(5) 0.0867(13)
H5_7 H 0.1944 0.3404 0.0437
C15_7 C 0.0353(4) 0.2034(4) 0.1554(9)
C25_7 C 0.2064(12) 0.4050(8) 0.093(5)
H11_7 H 0.2414 0.3916 0.0943
H12_7 H 0.2017 0.4153 0.0328
C26_7 C 0.220(3) 0.4566(15) 0.131(4)
H13_7 H 0.2568 0.4590 0.1392
H14_7 H 0.2086 0.4818 0.0905
H15_7 H 0.2026 0.4610 0.1864
Cl1_7 Cl 0.86142(19) 0.12418(13) 0.7030(4)
C1_7 C 0.8777(6) 0.1118(7) 0.9112(13)
H1_7 H 0.8637 0.0898 0.9567
Cl2_7 Cl 0.8857(2) 0.02912(18) 0.5852(4)
C2_7 C 0.8910(5) 0.0712(5) 0.8496(12)
C3_7 C 0.8838(5) 0.0704(4) 0.7565(13)
C4_7 C 0.8967(5) 0.0288(5) 0.7044(12)
Cl5_7 Cl 0.9883(2) 0.1360(2) 0.8321(3)
C7_7 C 0.9133(5) 0.0267(5) 0.8898(11)
Cl9_7 Cl 0.78227(18) 0.05161(12) 0.9289(4)
C9_7 C 0.9197(5) 0.1367(4) 0.9738(12)
Cl10_7 Cl 0.67724(16) 0.10334(15) 0.8979(4)
C10_7 C 0.9714(5) 0.1484(5) 0.9428(10)
Cl11_7 Cl 0.77399(15) 0.28160(13) 0.8548(3)
Cl12_7 Cl 0.87941(14) 0.23106(16) 0.8763(3)
C16_7 C 0.8278(5) 0.1427(4) 0.9023(12)
C17_7 C 0.7815(5) 0.1145(4) 0.9039(11)
C18_7 C 0.7331(5) 0.1377(4) 0.8951(11)
C19_7 C 0.7298(5) 0.1888(4) 0.8689(10)
C20_7 C 0.7757(5) 0.2166(5) 0.8779(11)
C21_7 C 0.8244(5) 0.1942(5) 0.8859(11)
C22_7 C 0.6789(4) 0.2140(5) 0.8481(10)
C24_7 C 0.9849(19) 0.3480(19) 0.925(2)
H8_7 H 0.9577 0.3311 0.8932
H9_7 H 0.9774 0.3829 0.9266
O1_7 O 0.9742(5) 0.9423(4) 0.6423(10)
Cl3_7 Cl 0.95454(15) 0.93291(12) 0.8845(3)
C5_7 C 0.9179(5) 0.9860(4) 0.7392(10)
C6_7 C 0.9248(5) 0.9846(4) 0.8321(11)
C8_7 C 0.9318(6) 0.9402(4) 0.6841(11)
O1_8 O 0.5258(5) 0.0577(4) 0.6423(10)
Cl3_8 Cl 0.54546(15) 0.06709(12) 0.8845(3)
C5_8 C 0.5821(5) 0.0140(4) 0.7392(10)
C6_8 C 0.5752(5) 0.0154(4) 0.8321(11)
C8_8 C 0.5682(6) 0.0598(4) 0.6841(11)
Cl4_6 Cl 0.57826(18) 0.97808(16) 0.0058(3)
O2_8 O 0.4504(3) 0.7532(3) 0.1366(6)
Cl7_6 Cl 0.57099(17) 0.81706(18) 0.2336(4)
Cl8_6 Cl 0.65249(14) 0.86484(17) 0.1067(4)
O7_8 O 0.4746(4) 0.6518(3) 0.0784(8)
H2_8 H 0.4796 0.6192 0.0890
C11_8 C 0.4928(5) 0.8307(4) 0.0031(10)
O9_8 O 0.3203(6) 0.6413(5) 0.0867(13)
H5_8 H 0.3056 0.6596 0.0437
C12_6 C 0.5040(4) 0.8199(3) 0.0919(10)
C13_6 C 0.5552(5) 0.8293(4) 0.1221(9)
C14_6 C 0.5919(5) 0.8515(4) 0.0604(12)
C15_8 C 0.4647(4) 0.7966(4) 0.1554(9)
C23_6 C 0.5120(9) 0.6725(8) 0.0192(17)
H6_6 H 0.5052 0.7079 0.0152
H7_6 H 0.5460 0.6686 0.0459
C25_8 C 0.2936(12) 0.5950(8) 0.093(5)
H11_8 H 0.2586 0.6084 0.0943
H12_8 H 0.2983 0.5847 0.0328
C26_8 C 0.280(3) 0.5434(15) 0.131(4)
H13_8 H 0.2432 0.5410 0.1392
H14_8 H 0.2914 0.5182 0.0905
H15_8 H 0.2974 0.5390 0.1864
Cl1_8 Cl 0.63858(19) 0.87582(13) 0.7030(4)
C1_8 C 0.6223(6) 0.8882(7) 0.9112(13)
H1_8 H 0.6363 0.9102 0.9567
Cl2_8 Cl 0.6143(2) 0.97088(18) 0.5852(4)
C2_8 C 0.6090(5) 0.9288(5) 0.8496(12)
C3_8 C 0.6162(5) 0.9296(4) 0.7565(13)
C4_8 C 0.6033(5) 0.9712(5) 0.7044(12)
Cl5_8 Cl 0.5117(2) 0.8640(2) 0.8321(3)
Cl6_6 Cl 0.42992(15) 0.82190(16) 0.9667(3)
C7_8 C 0.5867(5) 0.9733(5) 0.8898(11)
Cl9_8 Cl 0.71773(18) 0.94839(12) 0.9289(4)
C9_8 C 0.5803(5) 0.8633(4) 0.9738(12)
Cl10_8 Cl 0.82276(16) 0.89666(15) 0.8979(4)
C10_8 C 0.5286(5) 0.8516(5) 0.9428(10)
O8_6 O 0.3925(6) 0.6906(6) 0.9868(12)
H3_6 H 0.3658 0.6765 0.9577
H4_6 H 0.4171 0.7072 0.9569
Cl11_8 Cl 0.72601(15) 0.71840(13) 0.8548(3)
Cl12_8 Cl 0.62059(14) 0.76894(16) 0.8763(3)
C16_8 C 0.6722(5) 0.8573(4) 0.9023(12)
C17_8 C 0.7185(5) 0.8855(4) 0.9039(11)
C18_8 C 0.7669(5) 0.8623(4) 0.8951(11)
C19_8 C 0.7702(5) 0.8112(4) 0.8689(10)
C20_8 C 0.7243(5) 0.7834(5) 0.8779(11)
C21_8 C 0.6756(5) 0.8058(5) 0.8859(11)
C22_8 C 0.8211(4) 0.7860(5) 0.8481(10)
C24_8 C 0.5151(19) 0.6520(19) 0.925(2)
H8_8 H 0.5423 0.6689 0.8932
H9_8 H 0.5226 0.6171 0.9266
H10_6 H 0.4826 0.6573 0.8954
Cl4_7 Cl 0.07826(18) 0.97808(16) 0.9942(3)
Cl7_7 Cl 0.07099(17) 0.81706(18) 0.7664(4)
Cl8_7 Cl 0.15249(14) 0.86484(17) 0.8933(4)
C12_7 C 0.0040(4) 0.8199(3) 0.9081(10)
C13_7 C 0.0552(5) 0.8293(4) 0.8779(9)
C14_7 C 0.0919(5) 0.8515(4) 0.9396(12)
C23_7 C 0.0120(9) 0.6725(8) 0.9808(17)
H6_7 H 0.0052 0.7079 0.9848
H7_7 H 0.0460 0.6686 0.9541
Cl6_7 Cl 0.92992(15) 0.82190(16) 0.0333(3)
O8_7 O 0.8925(6) 0.6906(6) 0.0132(12)
H3_7 H 0.8658 0.6765 0.0423
H4_7 H 0.9171 0.7072 0.0431
H10_7 H 0.9826 0.6573 0.1046
Cl6_8 Cl 0.07008(15) 0.17810(16) 0.9667(3)
O8_8 O 0.1075(6) 0.3094(6) 0.9868(12)
H3_8 H 0.1342 0.3235 0.9577
H4_8 H 0.0829 0.2928 0.9569
H10_8 H 0.0174 0.3427 0.8954
Cl4_8 Cl 0.92174(18) 0.02192(16) 0.0058(3)
Cl7_8 Cl 0.92901(17) 0.18294(18) 0.2336(4)
Cl8_8 Cl 0.84751(14) 0.13516(17) 0.1067(4)
C12_8 C 0.9960(4) 0.1801(3) 0.0919(10)
C13_8 C 0.9448(5) 0.1707(4) 0.1221(9)
C14_8 C 0.9081(5) 0.1485(4) 0.0604(12)
C23_8 C 0.9880(9) 0.3275(8) 0.0192(17)
H6_8 H 0.9948 0.2921 0.0152
H7_8 H 0.9540 0.3314 0.0459
loop_
_geom_bond_atom_site_label_1
_geom_bond_atom_site_label_2
_geom_bond_site_symmetry_1
_geom_bond_site_symmetry_2
Tb1 O2 1_555 1_555
Cl1 C3 1_555 1_555
O1 C8 1_555 1_555
C1 H1 1_555 1_555
Cl2 C4 1_555 1_555
C2 C1 1_555 1_555
Cl3 C6 1_555 1_555
C3 C2 1_555 1_555
Cl4 C7 1_555 1_555
C4 C3 1_555 1_555
O2 C15 1_555 1_555
Cl5 C10 1_555 1_555
O3 C22 1_555 1_555
C5 C4 1_555 1_555
C6 C5 1_555 1_555
O4 C8 1_555 1_555
Cl6 C11 1_555 1_555
Cl7 C13 1_555 1_555
O5 C22 1_555 1_555
C7 C2 1_555 1_555
Cl8 C14 1_555 1_555
O6 C15 1_555 1_555
C8 C5 1_555 1_555
Cl9 C17 1_555 1_555
C9 C1 1_555 1_555
O7 Tb1 1_555 1_555
H2 O7 1_555 1_555
Cl10 C18 1_555 1_555
C10 C9 1_555 1_555
O8 Tb1 1_555 1_555
H3 O8 1_555 1_555
H4 O8 1_555 1_555
Cl11 C20 1_555 1_555
C11 C10 1_555 1_555
O9 Tb1 1_555 1_555
H5 O9 1_555 1_555
Cl12 C21 1_555 1_555
C12 C11 1_555 1_555
C13 C12 1_555 1_555
C14 C9 1_555 1_555
C15 C12 1_555 1_555
C16 C1 1_555 1_555
C17 C16 1_555 1_555
C18 C17 1_555 1_555
C19 C18 1_555 1_555
C20 C19 1_555 1_555
C21 C16 1_555 1_555
C22 C19 1_555 1_555
C23 O7 1_555 1_555
H6 C23 1_555 1_555
H7 C23 1_555 1_555
C24 C23 1_555 1_555
H8 C24 1_555 1_555
H9 C24 1_555 1_555
H10 C24 1_555 1_555
C25 O9 1_555 1_555
H11 C25 1_555 1_555
H12 C25 1_555 1_555
C26 C25 1_555 1_555
H13 C26 1_555 1_555
H14 C26 1_555 1_555
H15 C26 1_555 1_555
Tb2 O3 1_555 1_555
Tb3 O4 1_555 1_555
Tb4 O5 1_555 1_555
Tb5 O6 1_555 1_555
O10 Tb1 1_555 1_555
O11 Tb1 1_555 1_555
O12 Tb1 1_555 1_555
O13 Tb1 1_555 1_555
C6 C7 1_555 1_555
C13 C14 1_555 1_555
C20 C21 1_555 1_555
Cl1_2 C3_2 1_555 1_555
O1_2 C8_2 1_555 1_555
C1_2 H1_2 1_555 1_555
Cl2_2 C4_2 1_555 1_555
C2_2 C1_2 1_555 1_555
Cl3_2 C6_2 1_555 1_555
C3_2 C2_2 1_555 1_555
Cl4_2 C7_2 1_555 1_555
C4_2 C3_2 1_555 1_555
Cl5_2 C10_2 1_555 1_555
O3_2 C22_2 1_555 1_555
C5_2 C4_2 1_555 1_555
C6_2 C5_2 1_555 1_555
O4_2 C8_2 1_555 1_555
Cl7_2 C13_2 1_555 1_555
O5_2 C22_2 1_555 1_555
C7_2 C2_2 1_555 1_555
Cl8_2 C14_2 1_555 1_555
C8_2 C5_2 1_555 1_555
Cl9_2 C17_2 1_555 1_555
C9_2 C1_2 1_555 1_555
Cl10_2 C18_2 1_555 1_555
C10_2 C9_2 1_555 1_555
Cl11_2 C20_2 1_555 1_555
Cl12_2 C21_2 1_555 1_555
C13_2 C12_2 1_555 1_555
C14_2 C9_2 1_555 1_555
C16_2 C1_2 1_555 1_555
C17_2 C16_2 1_555 1_555
C18_2 C17_2 1_555 1_555
C19_2 C18_2 1_555 1_555
C20_2 C19_2 1_555 1_555
C21_2 C16_2 1_555 1_555
C22_2 C19_2 1_555 1_555
H6_2 C23_2 1_555 1_555
H7_2 C23_2 1_555 1_555
C24_2 C23_2 1_555 1_555
H8_2 C24_2 1_555 1_555
H9_2 C24_2 1_555 1_555
Tb2_2 O3_2 1_555 1_555
Tb4 O4_2 1_555 1_555
Tb3 O5_2 1_555 1_555
C6_2 C7_2 1_555 1_555
C13_2 C14_2 1_555 1_555
C20_2 C21_2 1_555 1_555
Tb1_2 O2_2 1_555 1_555
O2_2 C15_2 1_555 1_555
Cl6_2 C11_2 1_555 1_555
O6_2 C15_2 1_555 1_555
O7_2 Tb1_2 1_555 1_555
H2_2 O7_2 1_555 1_555
O8_2 Tb1_2 1_555 1_555
H3_2 O8_2 1_555 1_555
H4_2 O8_2 1_555 1_555
O9_2 Tb1_2 1_555 1_555
H5_2 O9_2 1_555 1_555
C25_2 O9_2 1_555 1_555
H11_2 C25_2 1_555 1_555
H12_2 C25_2 1_555 1_555
C26_2 C25_2 1_555 1_555
H13_2 C26_2 1_555 1_555
H14_2 C26_2 1_555 1_555
H15_2 C26_2 1_555 1_555
Tb5_2 O6_2 1_555 1_555
O10_2 Tb1_2 1_555 1_555
O11_2 Tb1_2 1_555 1_555
O12_2 Tb1_2 1_555 1_555
O13_2 Tb1_2 1_555 1_555
O1_3 C8_3 1_555 1_555
Cl3_3 C6_3 1_555 1_555
C6_3 C5_3 1_555 1_555
O4_3 C8_3 1_555 1_555
C8_3 C5_3 1_555 1_555
Tb2 O4_3 1_555 1_555
Cl1_3 C3_3 1_555 1_555
C1_3 H1_3 1_555 1_555
Cl2_3 C4_3 1_555 1_555
C2_3 C1_3 1_555 1_555
C3_3 C2_3 1_555 1_555
C4_3 C3_3 1_555 1_555
Cl5_3 C10_3 1_555 1_555
O3_3 C22_3 1_555 1_555
O5_3 C22_3 1_555 1_555
C7_3 C2_3 1_555 1_555
Cl9_3 C17_3 1_555 1_555
C9_3 C1_3 1_555 1_555
Cl10_3 C18_3 1_555 1_555
C10_3 C9_3 1_555 1_555
Cl11_3 C20_3 1_555 1_555
Cl12_3 C21_3 1_555 1_555
C16_3 C1_3 1_555 1_555
C17_3 C16_3 1_555 1_555
C18_3 C17_3 1_555 1_555
C19_3 C18_3 1_555 1_555
C20_3 C19_3 1_555 1_555
C21_3 C16_3 1_555 1_555
C22_3 C19_3 1_555 1_555
H8_3 C24_3 1_555 1_555
H9_3 C24_3 1_555 1_555
Tb3 O3_3 1_555 1_555
Tb2_2 O5_3 1_555 1_555
C20_3 C21_3 1_555 1_555
Tb5_2 O2_3 1_555 1_555
O2_3 C15_3 1_555 1_555
O13_2 C15_3 1_555 1_555
O7_3 Tb5_2 1_555 1_555
H2_3 O7_3 1_555 1_555
O9_3 Tb5_2 1_555 1_555
H5_3 O9_3 1_555 1_555
C25_3 O9_3 1_555 1_555
H11_3 C25_3 1_555 1_555
H12_3 C25_3 1_555 1_555
C26_3 C25_3 1_555 1_555
H13_3 C26_3 1_555 1_555
H14_3 C26_3 1_555 1_555
H15_3 C26_3 1_555 1_555
O10_3 Tb5_2 1_555 1_555
O11_3 Tb5_2 1_555 1_555
O12_3 Tb5_2 1_555 1_555
Cl1_4 C3_4 1_555 1_555
C1_4 H1_4 1_555 1_555
Cl2_4 C4_4 1_555 1_555
C2_4 C1_4 1_555 1_555
C3_4 C2_4 1_555 1_555
C4_4 C3_4 1_555 1_555
Cl5_4 C10_4 1_555 1_555
O3_4 C22_4 1_555 1_555
O5_4 C22_4 1_555 1_555
C7_4 C2_4 1_555 1_555
Cl9_4 C17_4 1_555 1_555
C9_4 C1_4 1_555 1_555
Cl10_4 C18_4 1_555 1_555
C10_4 C9_4 1_555 1_555
H3_3 O8_3 1_555 1_555
H4_3 O8_3 1_555 1_555
Cl11_4 C20_4 1_555 1_555
Cl12_4 C21_4 1_555 1_555
C16_4 C1_4 1_555 1_555
C17_4 C16_4 1_555 1_555
C18_4 C17_4 1_555 1_555
C19_4 C18_4 1_555 1_555
C20_4 C19_4 1_555 1_555
C21_4 C16_4 1_555 1_555
C22_4 C19_4 1_555 1_555
H8_4 C24_4 1_555 1_555
H9_4 C24_4 1_555 1_555
H10_3 C24_4 1_555 1_555
Tb4 O3_4 1_555 1_555
Tb2 O5_4 1_555 1_555
C20_4 C21_4 1_555 1_555
Tb5 O2_4 1_555 1_555
O2_4 C15_4 1_555 1_555
Cl7_3 C13_3 1_555 1_555
Cl8_3 C14_3 1_555 1_555
O13 C15_4 1_555 1_555
O7_4 Tb5 1_555 1_555
H2_4 O7_4 1_555 1_555
O9_4 Tb5 1_555 1_555
H5_4 O9_4 1_555 1_555
C12_3 C11_4 1_555 1_555
C13_3 C12_3 1_555 1_555
C15_4 C12_3 1_555 1_555
C23_3 O7_4 1_555 1_555
H6_3 C23_3 1_555 1_555
H7_3 C23_3 1_555 1_555
C25_4 O9_4 1_555 1_555
H11_4 C25_4 1_555 1_555
H12_4 C25_4 1_555 1_555
C26_4 C25_4 1_555 1_555
H13_4 C26_4 1_555 1_555
H14_4 C26_4 1_555 1_555
H15_4 C26_4 1_555 1_555
O10_4 Tb5 1_555 1_555
O11_4 Tb5 1_555 1_555
O12_4 Tb5 1_555 1_555
C13_3 C14_3 1_555 1_555
O1_4 C8_4 1_555 1_555
Cl3_4 C6_4 1_555 1_555
C6_4 C5_4 1_555 1_555
O4_4 C8_4 1_555 1_555
C8_4 C5_4 1_555 1_555
Tb2_2 O4_4 1_555 1_555
Tb2_2 O2_5 1_555 1_555
Cl1_5 C3_5 1_555 1_555
O1_5 C8_5 1_555 1_555
C1_5 H1_5 1_555 1_555
Cl2_5 C4_5 1_555 1_555
C2_5 C1_5 1_555 1_555
Cl3_5 C6_5 1_555 1_555
C3_5 C2_5 1_555 1_555
Cl4_4 C7_5 1_555 1_555
C4_5 C3_5 1_555 1_555
O2_5 C15_5 1_555 1_555
Cl5_5 C10_5 1_555 1_555
O10_2 C22_5 1_555 1_555
C5_5 C4_5 1_555 1_555
C6_5 C5_5 1_555 1_555
O11_4 C8_5 1_555 1_555
Cl6_4 C11_5 1_555 1_555
Cl7_4 C13_4 1_555 1_555
O12_3 C22_5 1_555 1_555
C7_5 C2_5 1_555 1_555
Cl8_4 C14_4 1_555 1_555
O6_3 C15_5 1_555 1_555
C8_5 C5_5 1_555 1_555
Cl9_5 C17_5 1_555 1_555
C9_5 C1_5 1_555 1_555
O7_5 Tb2_2 1_555 1_555
H2_5 O7_5 1_555 1_555
Cl10_5 C18_5 1_555 1_555
C10_5 C9_5 1_555 1_555
O8_4 Tb2_2 1_555 1_555
H3_4 O8_4 1_555 1_555
H4_4 O8_4 1_555 1_555
Cl11_5 C20_5 1_555 1_555
C11_5 C10_5 1_555 1_555
O9_5 Tb2_2 1_555 1_555
H5_5 O9_5 1_555 1_555
Cl12_5 C21_5 1_555 1_555
C12_4 C11_5 1_555 1_555
C13_4 C12_4 1_555 1_555
C14_4 C9_5 1_555 1_555
C15_5 C12_4 1_555 1_555
C16_5 C1_5 1_555 1_555
C17_5 C16_5 1_555 1_555
C18_5 C17_5 1_555 1_555
C19_5 C18_5 1_555 1_555
C20_5 C19_5 1_555 1_555
C21_5 C16_5 1_555 1_555
C22_5 C19_5 1_555 1_555
C23_4 O7_5 1_555 1_555
H6_4 C23_4 1_555 1_555
H7_4 C23_4 1_555 1_555
C24_5 C23_4 1_555 1_555
H8_5 C24_5 1_555 1_555
H9_5 C24_5 1_555 1_555
H10_4 C24_5 1_555 1_555
C25_5 O9_5 1_555 1_555
H11_5 C25_5 1_555 1_555
H12_5 C25_5 1_555 1_555
C26_5 C25_5 1_555 1_555
H13_5 C26_5 1_555 1_555
H14_5 C26_5 1_555 1_555
H15_5 C26_5 1_555 1_555
Tb3 O6_3 1_555 1_555
O13_3 Tb2_2 1_555 1_555
C6_5 C7_5 1_555 1_555
C13_4 C14_4 1_555 1_555
C20_5 C21_5 1_555 1_555
Tb2 O2_6 1_555 1_555
O2_6 C15_6 1_555 1_555
Cl6_5 C11_6 1_555 1_555
O6_4 C15_6 1_555 1_555
O7_6 Tb2 1_555 1_555
H2_6 O7_6 1_555 1_555
O8_5 Tb2 1_555 1_555
H3_5 O8_5 1_555 1_555
H4_5 O8_5 1_555 1_555
O9_6 Tb2 1_555 1_555
H5_6 O9_6 1_555 1_555
C25_6 O9_6 1_555 1_555
H11_6 C25_6 1_555 1_555
H12_6 C25_6 1_555 1_555
C26_6 C25_6 1_555 1_555
H13_6 C26_6 1_555 1_555
H14_6 C26_6 1_555 1_555
H15_6 C26_6 1_555 1_555
Tb4 O6_4 1_555 1_555
O13_4 Tb2 1_555 1_555
Cl1_6 C3_6 1_555 1_555
O1_6 C8_6 1_555 1_555
C1_6 H1_6 1_555 1_555
Cl2_6 C4_6 1_555 1_555
C2_6 C1_6 1_555 1_555
Cl3_6 C6_6 1_555 1_555
C3_6 C2_6 1_555 1_555
Cl4_5 C7_6 1_555 1_555
C4_6 C3_6 1_555 1_555
Cl5_6 C10_6 1_555 1_555
O10 C22_6 1_555 1_555
C5_6 C4_6 1_555 1_555
C6_6 C5_6 1_555 1_555
O11_3 C8_6 1_555 1_555
Cl7_5 C13_5 1_555 1_555
O12_4 C22_6 1_555 1_555
C7_6 C2_6 1_555 1_555
Cl8_5 C14_5 1_555 1_555
C8_6 C5_6 1_555 1_555
Cl9_6 C17_6 1_555 1_555
C9_6 C1_6 1_555 1_555
Cl10_6 C18_6 1_555 1_555
C10_6 C9_6 1_555 1_555
Cl11_6 C20_6 1_555 1_555
Cl12_6 C21_6 1_555 1_555
C13_5 C12_5 1_555 1_555
C14_5 C9_6 1_555 1_555
C16_6 C1_6 1_555 1_555
C17_6 C16_6 1_555 1_555
C18_6 C17_6 1_555 1_555
C19_6 C18_6 1_555 1_555
C20_6 C19_6 1_555 1_555
C21_6 C16_6 1_555 1_555
C22_6 C19_6 1_555 1_555
H6_5 C23_5 1_555 1_555
H7_5 C23_5 1_555 1_555
C24_6 C23_5 1_555 1_555
H8_6 C24_6 1_555 1_555
H9_6 C24_6 1_555 1_555
C6_6 C7_6 1_555 1_555
C13_5 C14_5 1_555 1_555
C20_6 C21_6 1_555 1_555
Tb4 O2_7 1_555 1_555
O2_7 C15_7 1_555 1_555
O13_4 C15_7 1_555 1_555
O7_7 Tb4 1_555 1_555
H2_7 O7_7 1_555 1_555
O9_7 Tb4 1_555 1_555
H5_7 O9_7 1_555 1_555
C25_7 O9_7 1_555 1_555
H11_7 C25_7 1_555 1_555
H12_7 C25_7 1_555 1_555
C26_7 C25_7 1_555 1_555
H13_7 C26_7 1_555 1_555
H14_7 C26_7 1_555 1_555
H15_7 C26_7 1_555 1_555
Cl1_7 C3_7 1_555 1_555
C1_7 H1_7 1_555 1_555
Cl2_7 C4_7 1_555 1_555
C2_7 C1_7 1_555 1_555
C3_7 C2_7 1_555 1_555
C4_7 C3_7 1_555 1_555
Cl5_7 C10_7 1_555 1_555
O10_4 C22_7 1_555 1_555
O12 C22_7 1_555 1_555
C7_7 C2_7 1_555 1_555
Cl9_7 C17_7 1_555 1_555
C9_7 C1_7 1_555 1_555
Cl10_7 C18_7 1_555 1_555
C10_7 C9_7 1_555 1_555
Cl11_7 C20_7 1_555 1_555
Cl12_7 C21_7 1_555 1_555
C16_7 C1_7 1_555 1_555
C17_7 C16_7 1_555 1_555
C18_7 C17_7 1_555 1_555
C19_7 C18_7 1_555 1_555
C20_7 C19_7 1_555 1_555
C21_7 C16_7 1_555 1_555
C22_7 C19_7 1_555 1_555
H8_7 C24_7 1_555 1_555
H9_7 C24_7 1_555 1_555
C20_7 C21_7 1_555 1_555
O1_7 C8_7 1_555 1_555
Cl3_7 C6_7 1_555 1_555
C6_7 C5_7 1_555 1_555
O11_2 C8_7 1_555 1_555
C8_7 C5_7 1_555 1_555
O1_8 C8_8 1_555 1_555
Cl3_8 C6_8 1_555 1_555
C6_8 C5_8 1_555 1_555
O11 C8_8 1_555 1_555
C8_8 C5_8 1_555 1_555
Tb3 O2_8 1_555 1_555
O2_8 C15_8 1_555 1_555
Cl7_6 C13_6 1_555 1_555
Cl8_6 C14_6 1_555 1_555
O13_3 C15_8 1_555 1_555
O7_8 Tb3 1_555 1_555
H2_8 O7_8 1_555 1_555
O9_8 Tb3 1_555 1_555
H5_8 O9_8 1_555 1_555
C12_6 C11_8 1_555 1_555
C13_6 C12_6 1_555 1_555
C15_8 C12_6 1_555 1_555
C23_6 O7_8 1_555 1_555
H6_6 C23_6 1_555 1_555
H7_6 C23_6 1_555 1_555
C25_8 O9_8 1_555 1_555
H11_8 C25_8 1_555 1_555
H12_8 C25_8 1_555 1_555
C26_8 C25_8 1_555 1_555
H13_8 C26_8 1_555 1_555
H14_8 C26_8 1_555 1_555
H15_8 C26_8 1_555 1_555
C13_6 C14_6 1_555 1_555
Cl1_8 C3_8 1_555 1_555
C1_8 H1_8 1_555 1_555
Cl2_8 C4_8 1_555 1_555
C2_8 C1_8 1_555 1_555
C3_8 C2_8 1_555 1_555
C4_8 C3_8 1_555 1_555
Cl5_8 C10_8 1_555 1_555
O10_3 C22_8 1_555 1_555
O12_2 C22_8 1_555 1_555
C7_8 C2_8 1_555 1_555
Cl9_8 C17_8 1_555 1_555
C9_8 C1_8 1_555 1_555
Cl10_8 C18_8 1_555 1_555
C10_8 C9_8 1_555 1_555
H3_6 O8_6 1_555 1_555
H4_6 O8_6 1_555 1_555
Cl11_8 C20_8 1_555 1_555
Cl12_8 C21_8 1_555 1_555
C16_8 C1_8 1_555 1_555
C17_8 C16_8 1_555 1_555
C18_8 C17_8 1_555 1_555
C19_8 C18_8 1_555 1_555
C20_8 C19_8 1_555 1_555
C21_8 C16_8 1_555 1_555
C22_8 C19_8 1_555 1_555
H8_8 C24_8 1_555 1_555
H9_8 C24_8 1_555 1_555
H10_6 C24_8 1_555 1_555
C20_8 C21_8 1_555 1_555
Cl7_7 C13_7 1_555 1_555
Cl8_7 C14_7 1_555 1_555
C13_7 C12_7 1_555 1_555
H6_7 C23_7 1_555 1_555
H7_7 C23_7 1_555 1_555
C13_7 C14_7 1_555 1_555
H3_7 O8_7 1_555 1_555
H4_7 O8_7 1_555 1_555
H3_8 O8_8 1_555 1_555
H4_8 O8_8 1_555 1_555
Cl7_8 C13_8 1_555 1_555
Cl8_8 C14_8 1_555 1_555
C13_8 C12_8 1_555 1_555
H6_8 C23_8 1_555 1_555
H7_8 C23_8 1_555 1_555
C13_8 C14_8 1_555 1_555

#END
