
###############################################################################
#
# This file contains modified crystal structure data generated from the
# MOF subset of the Cambridge Structural Database (CSD) v543 
# hosted by the Cambridge Crystallographic Data Centre (CCDC).
#
# This work is licensed under the Creative Commons
# Attribution-NonCommercial-ShareAlike 4.0 International License.
# To view a copy of this license, visit
# http://creativecommons.org/licenses/by-nc-sa/4.0/
# or send a letter to
# Creative Commons, PO Box 1866, Mountain View, CA 94042, USA.
#
# CIF created using the CSD Python API on 29 September 2022
# The structure has been converted into the P1 space group
# The structure has a 3D framework
# The original CSD entry TASWIV is in the orthorhombic crystal system
# The framework has been calculated to contain at least 10.0% void space
# The void calculation uses a probe of radius 1.32A, grid spacing 0.4
# H atom positions have been added when not included in the experimental data
#
###############################################################################

data_TASWIV
_chemical_formula_moiety         '(C208 H104 Cl96 Eu8 O72)n'
_symmetry_cell_setting           triclinic
_symmetry_space_group_name_H-M   'P 1'
_symmetry_Int_Tables_number      1
_space_group_name_Hall           'P 1'
loop_
_symmetry_equiv_pos_site_id
_symmetry_equiv_pos_as_xyz
1 x,y,z
_cell_length_a                   25.128(5)
_cell_length_b                   26.704(5)
_cell_length_c                   14.850(3)
_cell_angle_alpha                90
_cell_angle_beta                 90
_cell_angle_gamma                90
_cell_volume                     9964.62
loop_
_atom_site_label
_atom_site_type_symbol
_atom_site_fract_x
_atom_site_fract_y
_atom_site_fract_z
Cl5 Cl 0.04173(10) 0.06711(7) 0.3811(2)
O3 O 0.0181(3) 0.0608(3) 0.1491(7)
O4 O 0.0956(2) 0.09604(19) 0.1804(4)
C2 C 0.0623(4) 0.0613(3) 0.1832(7)
C11 C 0.0779(3) 0.0158(3) 0.2397(7)
C12 C 0.0698(3) 0.0149(3) 0.3313(7)
Eu3 Eu 0.100674(16) 0.184223(13) 0.14956(3)
Cl1 Cl 0.08050(10) 0.81314(9) 0.71935(18)
Cl2 Cl 0.15804(9) 0.86565(9) 0.59030(18)
Cl3 Cl 0.00129(10) 0.87340(10) 0.33887(17)
Cl6 Cl 0.07766(10) 0.97872(7) 0.49988(17)
Cl7 Cl 0.13288(11) 0.87740(8) 0.19740(18)
Cl8 Cl 0.11071(13) 0.97330(10) 0.08558(19)
Cl9 Cl 0.21603(9) 0.95034(7) 0.4144(2)
Cl10 Cl 0.32363(9) 0.89815(8) 0.38470(19)
Cl11 Cl 0.22308(9) 0.72100(7) 0.35534(16)
Cl12 Cl 0.11560(8) 0.77286(7) 0.37091(18)
O5 O 0.3420(2) 0.80430(19) 0.2719(4)
O6 O 0.3374(2) 0.7525(2) 0.3914(4)
C3 C 0.3211(3) 0.7880(3) 0.3420(7)
C4 C 0.0073(3) 0.8213(2) 0.5900(6)
C5 C 0.0593(3) 0.8305(3) 0.6131(6)
C6 C 0.0942(3) 0.8525(3) 0.5522(6)
C7 C 0.0781(3) 0.8664(2) 0.4667(6)
C8 C 0.0247(3) 0.8584(3) 0.4449(6)
C10 C 0.1171(3) 0.8858(3) 0.4013(6)
C13 C 0.0843(3) 0.9742(3) 0.3859(6)
C14 C 0.1040(3) 0.9307(3) 0.3450(6)
C15 C 0.1117(3) 0.9314(3) 0.2522(6)
C16 C 0.1000(3) 0.9729(3) 0.2023(6)
C17 C 0.1687(3) 0.8605(3) 0.3899(6)
C18 C 0.2169(3) 0.8868(3) 0.3910(6)
C19 C 0.2657(3) 0.8637(3) 0.3790(6)
C20 C 0.2693(3) 0.8125(3) 0.3670(5)
C21 C 0.2218(3) 0.7852(2) 0.3702(5)
C22 C 0.1727(3) 0.8081(2) 0.3794(6)
C23 C 0.0253(6) 0.6763(5) 0.5364(13)
C24 C 0.0696(7) 0.6553(8) 0.5259(15)
Eu4 Eu 0.399326(16) 0.815777(13) 0.14956(3)
Eu5 Eu 0.399326(16) 0.684223(13) 0.35044(3)
H1 H 0.134153 0.909922 0.45291
H4 H 0.0642268 0.620605 0.48845
H5 H 0.0960821 0.680071 0.488677
H6 H 0.086896 0.647019 0.59147
H12 H 0.0333278 0.71112 0.572074
H13 H 0.0106587 0.684706 0.469054
Eu1 Eu 0.899326(16) 0.684223(13) 0.64956(3)
Cl4 Cl 0.92405(9) 0.82728(8) 0.47616(18)
O1 O 0.9541(2) 0.75408(19) 0.6393(4)
O2 O 0.9549(2) 0.82342(19) 0.7223(4)
O7 O 0.9816(2) 0.6527(2) 0.5835(5)
O8 O 0.8198(2) 0.6423(2) 0.5871(5)
O9 O 0.8960(3) 0.6948(3) 0.4853(5)
C1 C 0.9682(3) 0.7969(3) 0.6560(6)
C9 C 0.9907(3) 0.8360(3) 0.5048(6)
C25 C 0.7856(5) 0.6037(4) 0.6235(11)
C26 C 0.7625(10) 0.5708(8) 0.561(2)
Eu2 Eu 0.899326(16) 0.815777(13) 0.85044(3)
O10 O 0.9549(2) 0.67658(19) 0.7777(4)
O11 O 0.9044(2) 0.59604(19) 0.6804(4)
O12 O 0.8420(2) 0.69570(19) 0.7719(4)
O13 O 0.8374(2) 0.7525(2) 0.6086(4)
H2 H 0.932503 0.692059 0.460161
H3 H 0.873093 0.668364 0.458672
H7 H 0.753469 0.62211 0.659911
H8 H 0.809164 0.581424 0.670227
H9 H 0.793728 0.551268 0.524232
H10 H 0.737817 0.543654 0.596361
H11 H 0.738033 0.591953 0.513917
Eu1_2 Eu 0.600674(16) 0.315777(13) 0.64956(3)
Cl1_2 Cl 0.41950(10) 0.18686(9) 0.71935(18)
Cl2_2 Cl 0.34196(9) 0.13435(9) 0.59030(18)
Cl3_2 Cl 0.49871(10) 0.12660(10) 0.33887(17)
Cl4_2 Cl 0.57595(9) 0.17272(8) 0.47616(18)
Cl6_2 Cl 0.42234(10) 0.02128(7) 0.49988(17)
Cl7_2 Cl 0.36712(11) 0.12260(8) 0.19740(18)
Cl8_2 Cl 0.38929(13) 0.02670(10) 0.08558(19)
Cl9_2 Cl 0.28397(9) 0.04966(7) 0.4144(2)
Cl10_2 Cl 0.17637(9) 0.10185(8) 0.38470(19)
Cl11_2 Cl 0.27692(9) 0.27900(7) 0.35534(16)
Cl12_2 Cl 0.38440(8) 0.22714(7) 0.37091(18)
O1_2 O 0.5459(2) 0.24592(19) 0.6393(4)
O2_2 O 0.5451(2) 0.17658(19) 0.7223(4)
O5_2 O 0.1580(2) 0.19570(19) 0.2719(4)
O6_2 O 0.1626(2) 0.2475(2) 0.3914(4)
O7_2 O 0.5184(2) 0.3473(2) 0.5835(5)
O8_2 O 0.6802(2) 0.3577(2) 0.5871(5)
O9_2 O 0.6040(3) 0.3052(3) 0.4853(5)
C1_2 C 0.5318(3) 0.2031(3) 0.6560(6)
C3_2 C 0.1789(3) 0.2120(3) 0.3420(7)
C4_2 C 0.4927(3) 0.1787(2) 0.5900(6)
C5_2 C 0.4407(3) 0.1695(3) 0.6131(6)
C6_2 C 0.4058(3) 0.1475(3) 0.5522(6)
C7_2 C 0.4219(3) 0.1336(2) 0.4667(6)
C8_2 C 0.4753(3) 0.1416(3) 0.4449(6)
C9_2 C 0.5093(3) 0.1640(3) 0.5048(6)
C10_2 C 0.3829(3) 0.1142(3) 0.4013(6)
C13_2 C 0.4157(3) 0.0258(3) 0.3859(6)
C14_2 C 0.3960(3) 0.0693(3) 0.3450(6)
C15_2 C 0.3883(3) 0.0686(3) 0.2522(6)
C16_2 C 0.4000(3) 0.0271(3) 0.2023(6)
C17_2 C 0.3313(3) 0.1395(3) 0.3899(6)
C18_2 C 0.2831(3) 0.1132(3) 0.3910(6)
C19_2 C 0.2343(3) 0.1363(3) 0.3790(6)
C20_2 C 0.2307(3) 0.1875(3) 0.3670(5)
C21_2 C 0.2782(3) 0.2148(2) 0.3702(5)
C22_2 C 0.3273(3) 0.1919(2) 0.3794(6)
C23_2 C 0.4747(6) 0.3237(5) 0.5364(13)
C24_2 C 0.4304(7) 0.3447(8) 0.5259(15)
C25_2 C 0.7144(5) 0.3963(4) 0.6235(11)
C26_2 C 0.7375(10) 0.4292(8) 0.561(2)
Eu2_2 Eu 0.600674(16) 0.184223(13) 0.85044(3)
Eu5_2 Eu 0.100674(16) 0.315777(13) 0.35044(3)
O10_2 O 0.5451(2) 0.32342(19) 0.7777(4)
O11_2 O 0.5956(2) 0.40396(19) 0.6804(4)
O12_2 O 0.6580(2) 0.30430(19) 0.7719(4)
O13_2 O 0.6626(2) 0.2475(2) 0.6086(4)
H1_2 H 0.365847 0.0900784 0.45291
H2_2 H 0.567497 0.307941 0.460161
H3_2 H 0.626907 0.331636 0.458672
H4_2 H 0.435773 0.379395 0.48845
H5_2 H 0.403918 0.319929 0.488677
H6_2 H 0.413104 0.352981 0.59147
H7_2 H 0.746531 0.37789 0.659911
H8_2 H 0.690836 0.418576 0.670227
H9_2 H 0.706272 0.448732 0.524232
H10_2 H 0.762183 0.456346 0.596361
H11_2 H 0.761967 0.408047 0.513917
H12_2 H 0.466672 0.28888 0.572074
H13_2 H 0.489341 0.315294 0.469054
Cl5_2 Cl 0.45827(10) 0.93289(7) 0.3811(2)
O3_2 O 0.4819(3) 0.9392(3) 0.1491(7)
O4_2 O 0.4044(2) 0.90396(19) 0.1804(4)
C2_2 C 0.4377(4) 0.9387(3) 0.1832(7)
C11_2 C 0.4221(3) 0.9842(3) 0.2397(7)
C12_2 C 0.4302(3) 0.9851(3) 0.3313(7)
Cl3_3 Cl 0.49871(10) 0.37340(10) 0.16113(17)
Cl4_3 Cl 0.57595(9) 0.32728(8) 0.02384(18)
Cl5_3 Cl 0.45827(10) 0.56711(7) 0.1189(2)
Cl6_3 Cl 0.42234(10) 0.47872(7) 0.00012(17)
Cl7_3 Cl 0.36712(11) 0.37740(8) 0.30260(18)
Cl8_3 Cl 0.38929(13) 0.47330(10) 0.41442(19)
Cl9_3 Cl 0.28397(9) 0.45034(7) 0.0856(2)
Cl10_3 Cl 0.17637(9) 0.39815(8) 0.11530(19)
Cl11_3 Cl 0.27692(9) 0.22100(7) 0.14466(16)
Cl12_3 Cl 0.38440(8) 0.27286(7) 0.12909(18)
O3_3 O 0.4819(3) 0.5608(3) 0.3509(7)
O4_3 O 0.4044(2) 0.59604(19) 0.3196(4)
O5_3 O 0.1580(2) 0.30430(19) 0.2281(4)
O6_3 O 0.1626(2) 0.2525(2) 0.1086(4)
O9_3 O 0.6040(3) 0.1948(3) 0.0147(5)
C2_3 C 0.4377(4) 0.5613(3) 0.3168(7)
C3_3 C 0.1789(3) 0.2880(3) 0.1580(7)
C7_3 C 0.4219(3) 0.3664(2) 0.0333(6)
C8_3 C 0.4753(3) 0.3584(3) 0.0551(6)
C10_3 C 0.3829(3) 0.3858(3) 0.0987(6)
C11_3 C 0.4221(3) 0.5158(3) 0.2603(7)
C12_3 C 0.4302(3) 0.5149(3) 0.1687(7)
C13_3 C 0.4157(3) 0.4742(3) 0.1141(6)
C14_3 C 0.3960(3) 0.4307(3) 0.1550(6)
C15_3 C 0.3883(3) 0.4314(3) 0.2478(6)
C16_3 C 0.4000(3) 0.4729(3) 0.2977(6)
C17_3 C 0.3313(3) 0.3605(3) 0.1101(6)
C18_3 C 0.2831(3) 0.3868(3) 0.1090(6)
C19_3 C 0.2343(3) 0.3637(3) 0.1210(6)
C20_3 C 0.2307(3) 0.3125(3) 0.1330(5)
C21_3 C 0.2782(3) 0.2852(2) 0.1298(5)
C22_3 C 0.3273(3) 0.3081(2) 0.1206(6)
H1_3 H 0.365847 0.409922 0.0470904
H2_3 H 0.567497 0.192059 0.0398385
H3_3 H 0.626907 0.168364 0.041328
H4_3 H 0.435773 0.120605 0.0115502
H5_3 H 0.403918 0.180071 0.0113228
H13_3 H 0.489341 0.184706 0.0309461
Cl1_3 Cl 0.41950(10) 0.31314(9) 0.78065(18)
Cl2_3 Cl 0.34196(9) 0.36565(9) 0.90970(18)
O1_3 O 0.5459(2) 0.25408(19) 0.8607(4)
O7_3 O 0.5184(2) 0.1527(2) 0.9165(5)
O8_3 O 0.6802(2) 0.1423(2) 0.9129(5)
C1_3 C 0.5318(3) 0.2969(3) 0.8440(6)
C4_3 C 0.4927(3) 0.3213(2) 0.9100(6)
C5_3 C 0.4407(3) 0.3305(3) 0.8869(6)
C6_3 C 0.4058(3) 0.3525(3) 0.9478(6)
C9_3 C 0.5093(3) 0.3360(3) 0.9952(6)
C23_3 C 0.4747(6) 0.1763(5) 0.9636(13)
C24_3 C 0.4304(7) 0.1553(8) 0.9741(15)
C25_3 C 0.7144(5) 0.1037(4) 0.8765(11)
C26_3 C 0.7375(10) 0.0708(8) 0.939(2)
O11_3 O 0.5956(2) 0.09604(19) 0.8196(4)
O12_3 O 0.6580(2) 0.19570(19) 0.7281(4)
O13_3 O 0.6626(2) 0.2525(2) 0.8914(4)
H6_3 H 0.413104 0.147019 0.90853
H7_3 H 0.746531 0.12211 0.840089
H8_3 H 0.690836 0.0814242 0.829773
H9_3 H 0.706272 0.0512678 0.975768
H10_3 H 0.762183 0.0436541 0.903639
H11_3 H 0.761967 0.0919531 0.986083
H12_3 H 0.466672 0.21112 0.927926
Cl3_4 Cl 0.00129(10) 0.62660(10) 0.16113(17)
Cl5_4 Cl 0.04173(10) 0.43289(7) 0.1189(2)
Cl6_4 Cl 0.07766(10) 0.52128(7) 0.00012(17)
Cl7_4 Cl 0.13288(11) 0.62260(8) 0.30260(18)
Cl8_4 Cl 0.11071(13) 0.52670(10) 0.41442(19)
Cl9_4 Cl 0.21603(9) 0.54966(7) 0.0856(2)
Cl10_4 Cl 0.32363(9) 0.60185(8) 0.11530(19)
Cl11_4 Cl 0.22308(9) 0.77900(7) 0.14466(16)
Cl12_4 Cl 0.11560(8) 0.72714(7) 0.12909(18)
O3_4 O 0.0181(3) 0.4392(3) 0.3509(7)
O4_4 O 0.0956(2) 0.40396(19) 0.3196(4)
O5_4 O 0.3420(2) 0.69570(19) 0.2281(4)
O6_4 O 0.3374(2) 0.7475(2) 0.1086(4)
C2_4 C 0.0623(4) 0.4387(3) 0.3168(7)
C3_4 C 0.3211(3) 0.7120(3) 0.1580(7)
C7_4 C 0.0781(3) 0.6336(2) 0.0333(6)
C8_4 C 0.0247(3) 0.6416(3) 0.0551(6)
C10_4 C 0.1171(3) 0.6142(3) 0.0987(6)
C11_4 C 0.0779(3) 0.4842(3) 0.2603(7)
C12_4 C 0.0698(3) 0.4851(3) 0.1687(7)
C13_4 C 0.0843(3) 0.5258(3) 0.1141(6)
C14_4 C 0.1040(3) 0.5693(3) 0.1550(6)
C15_4 C 0.1117(3) 0.5686(3) 0.2478(6)
C16_4 C 0.1000(3) 0.5271(3) 0.2977(6)
C17_4 C 0.1687(3) 0.6395(3) 0.1101(6)
C18_4 C 0.2169(3) 0.6132(3) 0.1090(6)
C19_4 C 0.2657(3) 0.6363(3) 0.1210(6)
C20_4 C 0.2693(3) 0.6875(3) 0.1330(5)
C21_4 C 0.2218(3) 0.7148(2) 0.1298(5)
C22_4 C 0.1727(3) 0.6919(2) 0.1206(6)
H1_4 H 0.134153 0.590078 0.0470904
H4_4 H 0.0642268 0.879395 0.0115502
H5_4 H 0.0960821 0.819929 0.0113228
H13_4 H 0.0106587 0.815294 0.0309461
O1_4 O 0.9541(2) 0.74592(19) 0.8607(4)
O7_4 O 0.9816(2) 0.8473(2) 0.9165(5)
O8_4 O 0.8198(2) 0.8577(2) 0.9129(5)
C1_4 C 0.9682(3) 0.7031(3) 0.8440(6)
C9_4 C 0.9907(3) 0.6640(3) 0.9952(6)
C25_4 C 0.7856(5) 0.8963(4) 0.8765(11)
C26_4 C 0.7625(10) 0.9292(8) 0.939(2)
O11_4 O 0.9044(2) 0.90396(19) 0.8196(4)
O12_4 O 0.8420(2) 0.80430(19) 0.7281(4)
O13_4 O 0.8374(2) 0.7475(2) 0.8914(4)
H7_4 H 0.753469 0.87789 0.840089
H8_4 H 0.809164 0.918576 0.829773
H9_4 H 0.793728 0.948732 0.975768
H10_4 H 0.737817 0.956346 0.903639
H11_4 H 0.738033 0.908047 0.986083
Cl4_4 Cl 0.07595(9) 0.17272(8) 0.52384(18)
O1_5 O 0.0459(2) 0.24592(19) 0.3607(4)
O2_3 O 0.0451(2) 0.17658(19) 0.2777(4)
O7_5 O 0.0184(2) 0.3473(2) 0.4165(5)
O8_5 O 0.1802(2) 0.3577(2) 0.4129(5)
O9_4 O 0.1040(3) 0.3052(3) 0.5147(5)
C1_5 C 0.0318(3) 0.2031(3) 0.3440(6)
C9_5 C 0.0093(3) 0.1640(3) 0.4952(6)
C25_5 C 0.2144(5) 0.3963(4) 0.3765(11)
C26_5 C 0.2375(10) 0.4292(8) 0.439(2)
O10_3 O 0.0451(2) 0.32342(19) 0.2223(4)
H2_4 H 0.0674972 0.307941 0.539839
H3_4 H 0.126907 0.331636 0.541328
H7_5 H 0.246531 0.37789 0.340089
H8_5 H 0.190836 0.418576 0.329773
H9_5 H 0.206272 0.448732 0.475768
H10_5 H 0.262183 0.456346 0.403639
H11_5 H 0.261967 0.408047 0.486083
Cl1_4 Cl 0.91950(10) 0.18686(9) 0.28065(18)
Cl2_4 Cl 0.84196(9) 0.13435(9) 0.40970(18)
Cl3_5 Cl 0.99871(10) 0.12660(10) 0.66113(17)
Cl6_5 Cl 0.92234(10) 0.02128(7) 0.50012(17)
Cl7_5 Cl 0.86712(11) 0.12260(8) 0.80260(18)
Cl8_5 Cl 0.88929(13) 0.02670(10) 0.91442(19)
Cl9_5 Cl 0.78397(9) 0.04966(7) 0.5856(2)
Cl10_5 Cl 0.67637(9) 0.10185(8) 0.61530(19)
Cl11_5 Cl 0.77692(9) 0.27900(7) 0.64466(16)
Cl12_5 Cl 0.88440(8) 0.22714(7) 0.62909(18)
C3_5 C 0.6789(3) 0.2120(3) 0.6580(7)
C4_4 C 0.9927(3) 0.1787(2) 0.4100(6)
C5_4 C 0.9407(3) 0.1695(3) 0.3869(6)
C6_4 C 0.9058(3) 0.1475(3) 0.4478(6)
C7_5 C 0.9219(3) 0.1336(2) 0.5333(6)
C8_5 C 0.9753(3) 0.1416(3) 0.5551(6)
C10_5 C 0.8829(3) 0.1142(3) 0.5987(6)
C13_5 C 0.9157(3) 0.0258(3) 0.6141(6)
C14_5 C 0.8960(3) 0.0693(3) 0.6550(6)
C15_5 C 0.8883(3) 0.0686(3) 0.7478(6)
C16_5 C 0.9000(3) 0.0271(3) 0.7977(6)
C17_5 C 0.8313(3) 0.1395(3) 0.6101(6)
C18_5 C 0.7831(3) 0.1132(3) 0.6090(6)
C19_5 C 0.7343(3) 0.1363(3) 0.6210(6)
C20_5 C 0.7307(3) 0.1875(3) 0.6330(5)
C21_5 C 0.7782(3) 0.2148(2) 0.6298(5)
C22_5 C 0.8273(3) 0.1919(2) 0.6206(6)
C23_4 C 0.9747(6) 0.3237(5) 0.4636(13)
C24_4 C 0.9304(7) 0.3447(8) 0.4741(15)
H1_5 H 0.865847 0.0900784 0.54709
H4_5 H 0.935773 0.379395 0.51155
H5_5 H 0.903918 0.319929 0.511323
H6_4 H 0.913104 0.352981 0.40853
H12_4 H 0.966672 0.28888 0.427926
H13_5 H 0.989341 0.315294 0.530946
Cl5_5 Cl 0.95827(10) 0.93289(7) 0.6189(2)
O3_5 O 0.9819(3) 0.9392(3) 0.8509(7)
C2_5 C 0.9377(4) 0.9387(3) 0.8168(7)
C11_5 C 0.9221(3) 0.9842(3) 0.7603(7)
C12_5 C 0.9302(3) 0.9851(3) 0.6687(7)
Cl5_6 Cl 0.54173(10) 0.06711(7) 0.6189(2)
O3_6 O 0.5181(3) 0.0608(3) 0.8509(7)
C2_6 C 0.5623(4) 0.0613(3) 0.8168(7)
C11_6 C 0.5779(3) 0.0158(3) 0.7603(7)
C12_6 C 0.5698(3) 0.0149(3) 0.6687(7)
Cl1_5 Cl 0.58050(10) 0.81314(9) 0.28065(18)
Cl2_5 Cl 0.65804(9) 0.86565(9) 0.40970(18)
Cl3_6 Cl 0.50129(10) 0.87340(10) 0.66113(17)
Cl4_5 Cl 0.42405(9) 0.82728(8) 0.52384(18)
Cl6_6 Cl 0.57766(10) 0.97872(7) 0.50012(17)
Cl7_6 Cl 0.63288(11) 0.87740(8) 0.80260(18)
Cl8_6 Cl 0.61071(13) 0.97330(10) 0.91442(19)
Cl9_6 Cl 0.71603(9) 0.95034(7) 0.5856(2)
Cl10_6 Cl 0.82363(9) 0.89815(8) 0.61530(19)
Cl11_6 Cl 0.72308(9) 0.72100(7) 0.64466(16)
Cl12_6 Cl 0.61560(8) 0.77286(7) 0.62909(18)
O1_6 O 0.4541(2) 0.75408(19) 0.3607(4)
O2_4 O 0.4549(2) 0.82342(19) 0.2777(4)
O7_6 O 0.4816(2) 0.6527(2) 0.4165(5)
O8_6 O 0.3198(2) 0.6423(2) 0.4129(5)
O9_5 O 0.3960(3) 0.6948(3) 0.5147(5)
C1_6 C 0.4682(3) 0.7969(3) 0.3440(6)
C3_6 C 0.8211(3) 0.7880(3) 0.6580(7)
C4_5 C 0.5073(3) 0.8213(2) 0.4100(6)
C5_5 C 0.5593(3) 0.8305(3) 0.3869(6)
C6_5 C 0.5942(3) 0.8525(3) 0.4478(6)
C7_6 C 0.5781(3) 0.8664(2) 0.5333(6)
C8_6 C 0.5247(3) 0.8584(3) 0.5551(6)
C9_6 C 0.4907(3) 0.8360(3) 0.4952(6)
C10_6 C 0.6171(3) 0.8858(3) 0.5987(6)
C13_6 C 0.5843(3) 0.9742(3) 0.6141(6)
C14_6 C 0.6040(3) 0.9307(3) 0.6550(6)
C15_6 C 0.6117(3) 0.9314(3) 0.7478(6)
C16_6 C 0.6000(3) 0.9729(3) 0.7977(6)
C17_6 C 0.6687(3) 0.8605(3) 0.6101(6)
C18_6 C 0.7169(3) 0.8868(3) 0.6090(6)
C19_6 C 0.7657(3) 0.8637(3) 0.6210(6)
C20_6 C 0.7693(3) 0.8125(3) 0.6330(5)
C21_6 C 0.7218(3) 0.7852(2) 0.6298(5)
C22_6 C 0.6727(3) 0.8081(2) 0.6206(6)
C23_5 C 0.5253(6) 0.6763(5) 0.4636(13)
C24_5 C 0.5696(7) 0.6553(8) 0.4741(15)
C25_6 C 0.2856(5) 0.6037(4) 0.3765(11)
C26_6 C 0.2625(10) 0.5708(8) 0.439(2)
O10_4 O 0.4549(2) 0.67658(19) 0.2223(4)
H1_6 H 0.634153 0.909922 0.54709
H2_5 H 0.432503 0.692059 0.539839
H3_5 H 0.373093 0.668364 0.541328
H4_6 H 0.564227 0.620605 0.51155
H5_6 H 0.596082 0.680071 0.511323
H6_5 H 0.586896 0.647019 0.40853
H7_6 H 0.253469 0.62211 0.340089
H8_6 H 0.309164 0.581424 0.329773
H9_6 H 0.293728 0.551268 0.475768
H10_6 H 0.237817 0.543654 0.403639
H11_6 H 0.238033 0.591953 0.486083
H12_5 H 0.533328 0.71112 0.427926
H13_6 H 0.510659 0.684706 0.530946
Cl1_6 Cl 0.58050(10) 0.68686(9) 0.21935(18)
Cl2_6 Cl 0.65804(9) 0.63435(9) 0.09030(18)
O1_7 O 0.4541(2) 0.74592(19) 0.1393(4)
O7_7 O 0.4816(2) 0.8473(2) 0.0835(5)
O8_7 O 0.3198(2) 0.8577(2) 0.0871(5)
C1_7 C 0.4682(3) 0.7031(3) 0.1560(6)
C4_6 C 0.5073(3) 0.6787(2) 0.0900(6)
C5_6 C 0.5593(3) 0.6695(3) 0.1131(6)
C6_6 C 0.5942(3) 0.6475(3) 0.0522(6)
C9_7 C 0.4907(3) 0.6640(3) 0.0048(6)
C23_6 C 0.5253(6) 0.8237(5) 0.0364(13)
C24_6 C 0.5696(7) 0.8447(8) 0.0259(15)
C25_7 C 0.2856(5) 0.8963(4) 0.1235(11)
C26_7 C 0.2625(10) 0.9292(8) 0.061(2)
H6_6 H 0.586896 0.852981 0.0914702
H7_7 H 0.253469 0.87789 0.159911
H8_7 H 0.309164 0.918576 0.170227
H9_7 H 0.293728 0.948732 0.0242322
H10_7 H 0.237817 0.956346 0.0963611
H11_7 H 0.238033 0.908047 0.0139168
H12_6 H 0.533328 0.78888 0.0720743
Cl3_7 Cl 0.50129(10) 0.62660(10) 0.83887(17)
Cl4_6 Cl 0.42405(9) 0.67272(8) 0.97616(18)
Cl5_7 Cl 0.54173(10) 0.43289(7) 0.8811(2)
Cl6_7 Cl 0.57766(10) 0.52128(7) 0.99988(17)
Cl7_7 Cl 0.63288(11) 0.62260(8) 0.69740(18)
Cl8_7 Cl 0.61071(13) 0.52670(10) 0.58558(19)
Cl9_7 Cl 0.71603(9) 0.54966(7) 0.9144(2)
Cl10_7 Cl 0.82363(9) 0.60185(8) 0.88470(19)
Cl11_7 Cl 0.72308(9) 0.77900(7) 0.85534(16)
Cl12_7 Cl 0.61560(8) 0.72714(7) 0.87091(18)
O3_7 O 0.5181(3) 0.4392(3) 0.6491(7)
O9_6 O 0.3960(3) 0.8052(3) 0.9853(5)
C2_7 C 0.5623(4) 0.4387(3) 0.6832(7)
C3_7 C 0.8211(3) 0.7120(3) 0.8420(7)
C7_7 C 0.5781(3) 0.6336(2) 0.9667(6)
C8_7 C 0.5247(3) 0.6416(3) 0.9449(6)
C10_7 C 0.6171(3) 0.6142(3) 0.9013(6)
C11_7 C 0.5779(3) 0.4842(3) 0.7397(7)
C12_7 C 0.5698(3) 0.4851(3) 0.8313(7)
C13_7 C 0.5843(3) 0.5258(3) 0.8859(6)
C14_7 C 0.6040(3) 0.5693(3) 0.8450(6)
C15_7 C 0.6117(3) 0.5686(3) 0.7522(6)
C16_7 C 0.6000(3) 0.5271(3) 0.7023(6)
C17_7 C 0.6687(3) 0.6395(3) 0.8899(6)
C18_7 C 0.7169(3) 0.6132(3) 0.8910(6)
C19_7 C 0.7657(3) 0.6363(3) 0.8790(6)
C20_7 C 0.7693(3) 0.6875(3) 0.8670(5)
C21_7 C 0.7218(3) 0.7148(2) 0.8702(5)
C22_7 C 0.6727(3) 0.6919(2) 0.8794(6)
H1_7 H 0.634153 0.590078 0.95291
H2_6 H 0.432503 0.807941 0.960161
H3_6 H 0.373093 0.831636 0.958672
H4_7 H 0.564227 0.879395 0.98845
H5_7 H 0.596082 0.819929 0.988677
H13_7 H 0.510659 0.815294 0.969054
O1_8 O 0.0459(2) 0.25408(19) 0.1393(4)
O7_8 O 0.0184(2) 0.1527(2) 0.0835(5)
O8_8 O 0.1802(2) 0.1423(2) 0.0871(5)
C1_8 C 0.0318(3) 0.2969(3) 0.1560(6)
C9_8 C 0.0093(3) 0.3360(3) 0.0048(6)
C25_8 C 0.2144(5) 0.1037(4) 0.1235(11)
C26_8 C 0.2375(10) 0.0708(8) 0.061(2)
H7_8 H 0.246531 0.12211 0.159911
H8_8 H 0.190836 0.0814242 0.170227
H9_8 H 0.206272 0.0512678 0.0242322
H10_8 H 0.262183 0.0436541 0.0963611
H11_8 H 0.261967 0.0919531 0.0139168
Cl3_8 Cl 0.99871(10) 0.37340(10) 0.83887(17)
Cl5_8 Cl 0.95827(10) 0.56711(7) 0.8811(2)
Cl6_8 Cl 0.92234(10) 0.47872(7) 0.99988(17)
Cl7_8 Cl 0.86712(11) 0.37740(8) 0.69740(18)
Cl8_8 Cl 0.88929(13) 0.47330(10) 0.58558(19)
Cl9_8 Cl 0.78397(9) 0.45034(7) 0.9144(2)
Cl10_8 Cl 0.67637(9) 0.39815(8) 0.88470(19)
Cl11_8 Cl 0.77692(9) 0.22100(7) 0.85534(16)
Cl12_8 Cl 0.88440(8) 0.27286(7) 0.87091(18)
O3_8 O 0.9819(3) 0.5608(3) 0.6491(7)
C2_8 C 0.9377(4) 0.5613(3) 0.6832(7)
C3_8 C 0.6789(3) 0.2880(3) 0.8420(7)
C7_8 C 0.9219(3) 0.3664(2) 0.9667(6)
C8_8 C 0.9753(3) 0.3584(3) 0.9449(6)
C10_8 C 0.8829(3) 0.3858(3) 0.9013(6)
C11_8 C 0.9221(3) 0.5158(3) 0.7397(7)
C12_8 C 0.9302(3) 0.5149(3) 0.8313(7)
C13_8 C 0.9157(3) 0.4742(3) 0.8859(6)
C14_8 C 0.8960(3) 0.4307(3) 0.8450(6)
C15_8 C 0.8883(3) 0.4314(3) 0.7522(6)
C16_8 C 0.9000(3) 0.4729(3) 0.7023(6)
C17_8 C 0.8313(3) 0.3605(3) 0.8899(6)
C18_8 C 0.7831(3) 0.3868(3) 0.8910(6)
C19_8 C 0.7343(3) 0.3637(3) 0.8790(6)
C20_8 C 0.7307(3) 0.3125(3) 0.8670(5)
C21_8 C 0.7782(3) 0.2852(2) 0.8702(5)
C22_8 C 0.8273(3) 0.3081(2) 0.8794(6)
H1_8 H 0.865847 0.409922 0.95291
H4_8 H 0.935773 0.120605 0.98845
H5_8 H 0.903918 0.180071 0.988677
H13_8 H 0.989341 0.184706 0.969054
Cl1_7 Cl 0.08050(10) 0.68686(9) 0.78065(18)
Cl2_7 Cl 0.15804(9) 0.63435(9) 0.90970(18)
C4_7 C 0.0073(3) 0.6787(2) 0.9100(6)
C5_7 C 0.0593(3) 0.6695(3) 0.8869(6)
C6_7 C 0.0942(3) 0.6475(3) 0.9478(6)
C23_7 C 0.0253(6) 0.8237(5) 0.9636(13)
C24_7 C 0.0696(7) 0.8447(8) 0.9741(15)
H6_7 H 0.086896 0.852981 0.90853
H12_7 H 0.0333278 0.78888 0.927926
Cl4_7 Cl 0.92405(9) 0.67272(8) 0.02384(18)
O9_7 O 0.8960(3) 0.8052(3) 0.0147(5)
H2_7 H 0.932503 0.807941 0.0398385
H3_7 H 0.873093 0.831636 0.041328
Cl4_8 Cl 0.07595(9) 0.32728(8) 0.97616(18)
O9_8 O 0.1040(3) 0.1948(3) 0.9853(5)
H2_8 H 0.0674972 0.192059 0.960161
H3_8 H 0.126907 0.168364 0.958672
Cl1_8 Cl 0.91950(10) 0.31314(9) 0.21935(18)
Cl2_8 Cl 0.84196(9) 0.36565(9) 0.09030(18)
C4_8 C 0.9927(3) 0.3213(2) 0.0900(6)
C5_8 C 0.9407(3) 0.3305(3) 0.1131(6)
C6_8 C 0.9058(3) 0.3525(3) 0.0522(6)
C23_8 C 0.9747(6) 0.1763(5) 0.0364(13)
C24_8 C 0.9304(7) 0.1553(8) 0.0259(15)
H6_8 H 0.913104 0.147019 0.0914702
H12_8 H 0.966672 0.21112 0.0720743
loop_
_geom_bond_atom_site_label_1
_geom_bond_atom_site_label_2
_geom_bond_site_symmetry_1
_geom_bond_site_symmetry_2
Cl5 C12 1_555 1_555
O3 C2 1_555 1_555
O4 C2 1_555 1_555
C2 C11 1_555 1_555
C11 C12 1_555 1_555
Eu3 O4 1_555 1_555
Cl1 C5 1_555 1_555
Cl2 C6 1_555 1_555
Cl3 C8 1_555 1_555
Cl6 C13 1_555 1_555
Cl7 C15 1_555 1_555
Cl8 C16 1_555 1_555
Cl9 C18 1_555 1_555
Cl10 C19 1_555 1_555
Cl11 C21 1_555 1_555
Cl12 C22 1_555 1_555
O5 C3 1_555 1_555
O6 C3 1_555 1_555
C3 C20 1_555 1_555
C4 C5 1_555 1_555
C5 C6 1_555 1_555
C6 C7 1_555 1_555
C7 C8 1_555 1_555
C10 C7 1_555 1_555
C13 C14 1_555 1_555
C14 C10 1_555 1_555
C15 C14 1_555 1_555
C17 C10 1_555 1_555
C18 C17 1_555 1_555
C19 C18 1_555 1_555
C20 C19 1_555 1_555
C21 C20 1_555 1_555
C22 C17 1_555 1_555
C24 C23 1_555 1_555
Eu4 O5 1_555 1_555
Eu5 O6 1_555 1_555
C15 C16 1_555 1_555
C21 C22 1_555 1_555
C10 H1 1_555 1_555
C24 H4 1_555 1_555
C24 H5 1_555 1_555
C24 H6 1_555 1_555
C23 H12 1_555 1_555
C23 H13 1_555 1_555
Eu1 O1 1_555 1_555
Cl4 C9 1_555 1_555
O1 C1 1_555 1_555
O2 C1 1_555 1_555
O7 Eu1 1_555 1_555
O8 Eu1 1_555 1_555
O9 Eu1 1_555 1_555
C25 O8 1_555 1_555
C26 C25 1_555 1_555
Eu2 O2 1_555 1_555
O10 Eu1 1_555 1_555
O11 Eu1 1_555 1_555
O12 Eu1 1_555 1_555
O13 Eu1 1_555 1_555
O9 H2 1_555 1_555
O9 H3 1_555 1_555
C25 H7 1_555 1_555
C25 H8 1_555 1_555
C26 H9 1_555 1_555
C26 H10 1_555 1_555
C26 H11 1_555 1_555
Eu1_2 O1_2 1_555 1_555
Cl1_2 C5_2 1_555 1_555
Cl2_2 C6_2 1_555 1_555
Cl3_2 C8_2 1_555 1_555
Cl4_2 C9_2 1_555 1_555
Cl6_2 C13_2 1_555 1_555
Cl7_2 C15_2 1_555 1_555
Cl8_2 C16_2 1_555 1_555
Cl9_2 C18_2 1_555 1_555
Cl10_2 C19_2 1_555 1_555
Cl11_2 C21_2 1_555 1_555
Cl12_2 C22_2 1_555 1_555
O1_2 C1_2 1_555 1_555
O2_2 C1_2 1_555 1_555
O5_2 C3_2 1_555 1_555
O6_2 C3_2 1_555 1_555
O7_2 Eu1_2 1_555 1_555
O8_2 Eu1_2 1_555 1_555
O9_2 Eu1_2 1_555 1_555
C1_2 C4_2 1_555 1_555
C3_2 C20_2 1_555 1_555
C4_2 C5_2 1_555 1_555
C5_2 C6_2 1_555 1_555
C6_2 C7_2 1_555 1_555
C7_2 C8_2 1_555 1_555
C8_2 C9_2 1_555 1_555
C9_2 C4_2 1_555 1_555
C10_2 C7_2 1_555 1_555
C13_2 C14_2 1_555 1_555
C14_2 C10_2 1_555 1_555
C15_2 C14_2 1_555 1_555
C17_2 C10_2 1_555 1_555
C18_2 C17_2 1_555 1_555
C19_2 C18_2 1_555 1_555
C20_2 C19_2 1_555 1_555
C21_2 C20_2 1_555 1_555
C22_2 C17_2 1_555 1_555
C23_2 O7_2 1_555 1_555
C24_2 C23_2 1_555 1_555
C25_2 O8_2 1_555 1_555
C26_2 C25_2 1_555 1_555
Eu2_2 O2_2 1_555 1_555
Eu3 O5_2 1_555 1_555
Eu5_2 O6_2 1_555 1_555
O10_2 Eu1_2 1_555 1_555
O11_2 Eu1_2 1_555 1_555
O12_2 Eu1_2 1_555 1_555
O13_2 Eu1_2 1_555 1_555
C15_2 C16_2 1_555 1_555
C21_2 C22_2 1_555 1_555
C10_2 H1_2 1_555 1_555
O9_2 H2_2 1_555 1_555
O9_2 H3_2 1_555 1_555
C24_2 H4_2 1_555 1_555
C24_2 H5_2 1_555 1_555
C24_2 H6_2 1_555 1_555
C25_2 H7_2 1_555 1_555
C25_2 H8_2 1_555 1_555
C26_2 H9_2 1_555 1_555
C26_2 H10_2 1_555 1_555
C26_2 H11_2 1_555 1_555
C23_2 H12_2 1_555 1_555
C23_2 H13_2 1_555 1_555
Cl5_2 C12_2 1_555 1_555
O3_2 C2_2 1_555 1_555
O4_2 C2_2 1_555 1_555
C2_2 C11_2 1_555 1_555
C11_2 C12_2 1_555 1_555
Eu4 O4_2 1_555 1_555
Cl3_3 C8_3 1_555 1_555
Cl5_3 C12_3 1_555 1_555
Cl6_3 C13_3 1_555 1_555
Cl7_3 C15_3 1_555 1_555
Cl8_3 C16_3 1_555 1_555
Cl9_3 C18_3 1_555 1_555
Cl10_3 C19_3 1_555 1_555
Cl11_3 C21_3 1_555 1_555
Cl12_3 C22_3 1_555 1_555
O3_3 C2_3 1_555 1_555
O4_3 C2_3 1_555 1_555
O5_3 C3_3 1_555 1_555
O6_3 C3_3 1_555 1_555
C2_3 C11_3 1_555 1_555
C3_3 C20_3 1_555 1_555
C7_3 C8_3 1_555 1_555
C10_3 C7_3 1_555 1_555
C11_3 C12_3 1_555 1_555
C12_3 C13_3 1_555 1_555
C13_3 C14_3 1_555 1_555
C14_3 C10_3 1_555 1_555
C15_3 C14_3 1_555 1_555
C16_3 C11_3 1_555 1_555
C17_3 C10_3 1_555 1_555
C18_3 C17_3 1_555 1_555
C19_3 C18_3 1_555 1_555
C20_3 C19_3 1_555 1_555
C21_3 C20_3 1_555 1_555
C22_3 C17_3 1_555 1_555
Eu5 O4_3 1_555 1_555
Eu5_2 O5_3 1_555 1_555
Eu3 O6_3 1_555 1_555
C15_3 C16_3 1_555 1_555
C21_3 C22_3 1_555 1_555
C10_3 H1_3 1_555 1_555
O9_3 H2_3 1_555 1_555
O9_3 H3_3 1_555 1_555
Eu2_2 O1_3 1_555 1_555
Cl1_3 C5_3 1_555 1_555
Cl2_3 C6_3 1_555 1_555
O1_3 C1_3 1_555 1_555
O10_2 C1_3 1_555 1_555
O7_3 Eu2_2 1_555 1_555
O8_3 Eu2_2 1_555 1_555
C1_3 C4_3 1_555 1_555
C4_3 C5_3 1_555 1_555
C5_3 C6_3 1_555 1_555
C9_3 C4_3 1_555 1_555
C23_3 O7_3 1_555 1_555
C24_3 C23_3 1_555 1_555
C25_3 O8_3 1_555 1_555
C26_3 C25_3 1_555 1_555
O11_3 Eu2_2 1_555 1_555
O12_3 Eu2_2 1_555 1_555
O13_3 Eu2_2 1_555 1_555
C24_3 H6_3 1_555 1_555
C25_3 H7_3 1_555 1_555
C25_3 H8_3 1_555 1_555
C26_3 H9_3 1_555 1_555
C26_3 H10_3 1_555 1_555
C26_3 H11_3 1_555 1_555
C23_3 H12_3 1_555 1_555
Cl3_4 C8_4 1_555 1_555
Cl5_4 C12_4 1_555 1_555
Cl6_4 C13_4 1_555 1_555
Cl7_4 C15_4 1_555 1_555
Cl8_4 C16_4 1_555 1_555
Cl9_4 C18_4 1_555 1_555
Cl10_4 C19_4 1_555 1_555
Cl11_4 C21_4 1_555 1_555
Cl12_4 C22_4 1_555 1_555
O3_4 C2_4 1_555 1_555
O4_4 C2_4 1_555 1_555
O5_4 C3_4 1_555 1_555
O6_4 C3_4 1_555 1_555
C2_4 C11_4 1_555 1_555
C3_4 C20_4 1_555 1_555
C7_4 C8_4 1_555 1_555
C10_4 C7_4 1_555 1_555
C11_4 C12_4 1_555 1_555
C12_4 C13_4 1_555 1_555
C13_4 C14_4 1_555 1_555
C14_4 C10_4 1_555 1_555
C15_4 C14_4 1_555 1_555
C16_4 C11_4 1_555 1_555
C17_4 C10_4 1_555 1_555
C18_4 C17_4 1_555 1_555
C19_4 C18_4 1_555 1_555
C20_4 C19_4 1_555 1_555
C21_4 C20_4 1_555 1_555
C22_4 C17_4 1_555 1_555
Eu5_2 O4_4 1_555 1_555
Eu5 O5_4 1_555 1_555
Eu4 O6_4 1_555 1_555
C15_4 C16_4 1_555 1_555
C21_4 C22_4 1_555 1_555
C10_4 H1_4 1_555 1_555
Eu2 O1_4 1_555 1_555
O1_4 C1_4 1_555 1_555
O10 C1_4 1_555 1_555
O7_4 Eu2 1_555 1_555
O8_4 Eu2 1_555 1_555
C25_4 O8_4 1_555 1_555
C26_4 C25_4 1_555 1_555
O11_4 Eu2 1_555 1_555
O12_4 Eu2 1_555 1_555
O13_4 Eu2 1_555 1_555
C25_4 H7_4 1_555 1_555
C25_4 H8_4 1_555 1_555
C26_4 H9_4 1_555 1_555
C26_4 H10_4 1_555 1_555
C26_4 H11_4 1_555 1_555
Eu5_2 O1_5 1_555 1_555
Cl4_4 C9_5 1_555 1_555
O1_5 C1_5 1_555 1_555
O2_3 C1_5 1_555 1_555
O7_5 Eu5_2 1_555 1_555
O8_5 Eu5_2 1_555 1_555
O9_4 Eu5_2 1_555 1_555
C25_5 O8_5 1_555 1_555
C26_5 C25_5 1_555 1_555
Eu3 O2_3 1_555 1_555
O10_3 Eu5_2 1_555 1_555
O9_4 H2_4 1_555 1_555
O9_4 H3_4 1_555 1_555
C25_5 H7_5 1_555 1_555
C25_5 H8_5 1_555 1_555
C26_5 H9_5 1_555 1_555
C26_5 H10_5 1_555 1_555
C26_5 H11_5 1_555 1_555
Cl1_4 C5_4 1_555 1_555
Cl2_4 C6_4 1_555 1_555
Cl3_5 C8_5 1_555 1_555
Cl6_5 C13_5 1_555 1_555
Cl7_5 C15_5 1_555 1_555
Cl8_5 C16_5 1_555 1_555
Cl9_5 C18_5 1_555 1_555
Cl10_5 C19_5 1_555 1_555
Cl11_5 C21_5 1_555 1_555
Cl12_5 C22_5 1_555 1_555
O12_3 C3_5 1_555 1_555
O13_2 C3_5 1_555 1_555
C3_5 C20_5 1_555 1_555
C4_4 C5_4 1_555 1_555
C5_4 C6_4 1_555 1_555
C6_4 C7_5 1_555 1_555
C7_5 C8_5 1_555 1_555
C10_5 C7_5 1_555 1_555
C13_5 C14_5 1_555 1_555
C14_5 C10_5 1_555 1_555
C15_5 C14_5 1_555 1_555
C17_5 C10_5 1_555 1_555
C18_5 C17_5 1_555 1_555
C19_5 C18_5 1_555 1_555
C20_5 C19_5 1_555 1_555
C21_5 C20_5 1_555 1_555
C22_5 C17_5 1_555 1_555
C24_4 C23_4 1_555 1_555
C15_5 C16_5 1_555 1_555
C21_5 C22_5 1_555 1_555
C10_5 H1_5 1_555 1_555
C24_4 H4_5 1_555 1_555
C24_4 H5_5 1_555 1_555
C24_4 H6_4 1_555 1_555
C23_4 H12_4 1_555 1_555
C23_4 H13_5 1_555 1_555
Cl5_5 C12_5 1_555 1_555
O3_5 C2_5 1_555 1_555
O11_4 C2_5 1_555 1_555
C2_5 C11_5 1_555 1_555
C11_5 C12_5 1_555 1_555
Cl5_6 C12_6 1_555 1_555
O3_6 C2_6 1_555 1_555
O11_3 C2_6 1_555 1_555
C2_6 C11_6 1_555 1_555
C11_6 C12_6 1_555 1_555
Eu5 O1_6 1_555 1_555
Cl1_5 C5_5 1_555 1_555
Cl2_5 C6_5 1_555 1_555
Cl3_6 C8_6 1_555 1_555
Cl4_5 C9_6 1_555 1_555
Cl6_6 C13_6 1_555 1_555
Cl7_6 C15_6 1_555 1_555
Cl8_6 C16_6 1_555 1_555
Cl9_6 C18_6 1_555 1_555
Cl10_6 C19_6 1_555 1_555
Cl11_6 C21_6 1_555 1_555
Cl12_6 C22_6 1_555 1_555
O1_6 C1_6 1_555 1_555
O2_4 C1_6 1_555 1_555
O12_4 C3_6 1_555 1_555
O13 C3_6 1_555 1_555
O7_6 Eu5 1_555 1_555
O8_6 Eu5 1_555 1_555
O9_5 Eu5 1_555 1_555
C1_6 C4_5 1_555 1_555
C3_6 C20_6 1_555 1_555
C4_5 C5_5 1_555 1_555
C5_5 C6_5 1_555 1_555
C6_5 C7_6 1_555 1_555
C7_6 C8_6 1_555 1_555
C8_6 C9_6 1_555 1_555
C9_6 C4_5 1_555 1_555
C10_6 C7_6 1_555 1_555
C13_6 C14_6 1_555 1_555
C14_6 C10_6 1_555 1_555
C15_6 C14_6 1_555 1_555
C17_6 C10_6 1_555 1_555
C18_6 C17_6 1_555 1_555
C19_6 C18_6 1_555 1_555
C20_6 C19_6 1_555 1_555
C21_6 C20_6 1_555 1_555
C22_6 C17_6 1_555 1_555
C23_5 O7_6 1_555 1_555
C24_5 C23_5 1_555 1_555
C25_6 O8_6 1_555 1_555
C26_6 C25_6 1_555 1_555
Eu4 O2_4 1_555 1_555
O10_4 Eu5 1_555 1_555
C15_6 C16_6 1_555 1_555
C21_6 C22_6 1_555 1_555
C10_6 H1_6 1_555 1_555
O9_5 H2_5 1_555 1_555
O9_5 H3_5 1_555 1_555
C24_5 H4_6 1_555 1_555
C24_5 H5_6 1_555 1_555
C24_5 H6_5 1_555 1_555
C25_6 H7_6 1_555 1_555
C25_6 H8_6 1_555 1_555
C26_6 H9_6 1_555 1_555
C26_6 H10_6 1_555 1_555
C26_6 H11_6 1_555 1_555
C23_5 H12_5 1_555 1_555
C23_5 H13_6 1_555 1_555
Eu4 O1_7 1_555 1_555
Cl1_6 C5_6 1_555 1_555
Cl2_6 C6_6 1_555 1_555
O1_7 C1_7 1_555 1_555
O10_4 C1_7 1_555 1_555
O7_7 Eu4 1_555 1_555
O8_7 Eu4 1_555 1_555
C1_7 C4_6 1_555 1_555
C4_6 C5_6 1_555 1_555
C5_6 C6_6 1_555 1_555
C9_7 C4_6 1_555 1_555
C23_6 O7_7 1_555 1_555
C24_6 C23_6 1_555 1_555
C25_7 O8_7 1_555 1_555
C26_7 C25_7 1_555 1_555
C24_6 H6_6 1_555 1_555
C25_7 H7_7 1_555 1_555
C25_7 H8_7 1_555 1_555
C26_7 H9_7 1_555 1_555
C26_7 H10_7 1_555 1_555
C26_7 H11_7 1_555 1_555
C23_6 H12_6 1_555 1_555
Cl3_7 C8_7 1_555 1_555
Cl5_7 C12_7 1_555 1_555
Cl6_7 C13_7 1_555 1_555
Cl7_7 C15_7 1_555 1_555
Cl8_7 C16_7 1_555 1_555
Cl9_7 C18_7 1_555 1_555
Cl10_7 C19_7 1_555 1_555
Cl11_7 C21_7 1_555 1_555
Cl12_7 C22_7 1_555 1_555
O3_7 C2_7 1_555 1_555
O11_2 C2_7 1_555 1_555
O12 C3_7 1_555 1_555
O13_4 C3_7 1_555 1_555
C2_7 C11_7 1_555 1_555
C3_7 C20_7 1_555 1_555
C7_7 C8_7 1_555 1_555
C10_7 C7_7 1_555 1_555
C11_7 C12_7 1_555 1_555
C12_7 C13_7 1_555 1_555
C13_7 C14_7 1_555 1_555
C14_7 C10_7 1_555 1_555
C15_7 C14_7 1_555 1_555
C16_7 C11_7 1_555 1_555
C17_7 C10_7 1_555 1_555
C18_7 C17_7 1_555 1_555
C19_7 C18_7 1_555 1_555
C20_7 C19_7 1_555 1_555
C21_7 C20_7 1_555 1_555
C22_7 C17_7 1_555 1_555
C15_7 C16_7 1_555 1_555
C21_7 C22_7 1_555 1_555
C10_7 H1_7 1_555 1_555
O9_6 H2_6 1_555 1_555
O9_6 H3_6 1_555 1_555
Eu3 O1_8 1_555 1_555
O1_8 C1_8 1_555 1_555
O10_3 C1_8 1_555 1_555
O7_8 Eu3 1_555 1_555
O8_8 Eu3 1_555 1_555
C25_8 O8_8 1_555 1_555
C26_8 C25_8 1_555 1_555
C25_8 H7_8 1_555 1_555
C25_8 H8_8 1_555 1_555
C26_8 H9_8 1_555 1_555
C26_8 H10_8 1_555 1_555
C26_8 H11_8 1_555 1_555
Cl3_8 C8_8 1_555 1_555
Cl5_8 C12_8 1_555 1_555
Cl6_8 C13_8 1_555 1_555
Cl7_8 C15_8 1_555 1_555
Cl8_8 C16_8 1_555 1_555
Cl9_8 C18_8 1_555 1_555
Cl10_8 C19_8 1_555 1_555
Cl11_8 C21_8 1_555 1_555
Cl12_8 C22_8 1_555 1_555
O3_8 C2_8 1_555 1_555
O11 C2_8 1_555 1_555
O12_2 C3_8 1_555 1_555
O13_3 C3_8 1_555 1_555
C2_8 C11_8 1_555 1_555
C3_8 C20_8 1_555 1_555
C7_8 C8_8 1_555 1_555
C10_8 C7_8 1_555 1_555
C11_8 C12_8 1_555 1_555
C12_8 C13_8 1_555 1_555
C13_8 C14_8 1_555 1_555
C14_8 C10_8 1_555 1_555
C15_8 C14_8 1_555 1_555
C16_8 C11_8 1_555 1_555
C17_8 C10_8 1_555 1_555
C18_8 C17_8 1_555 1_555
C19_8 C18_8 1_555 1_555
C20_8 C19_8 1_555 1_555
C21_8 C20_8 1_555 1_555
C22_8 C17_8 1_555 1_555
C15_8 C16_8 1_555 1_555
C21_8 C22_8 1_555 1_555
C10_8 H1_8 1_555 1_555
Cl1_7 C5_7 1_555 1_555
Cl2_7 C6_7 1_555 1_555
C4_7 C5_7 1_555 1_555
C5_7 C6_7 1_555 1_555
C24_7 C23_7 1_555 1_555
C24_7 H6_7 1_555 1_555
C23_7 H12_7 1_555 1_555
O9_7 H2_7 1_555 1_555
O9_7 H3_7 1_555 1_555
O9_8 H2_8 1_555 1_555
O9_8 H3_8 1_555 1_555
Cl1_8 C5_8 1_555 1_555
Cl2_8 C6_8 1_555 1_555
C4_8 C5_8 1_555 1_555
C5_8 C6_8 1_555 1_555
C24_8 C23_8 1_555 1_555
C24_8 H6_8 1_555 1_555
C23_8 H12_8 1_555 1_555

#END
