
###############################################################################
#
# This file contains modified crystal structure data generated from the
# MOF subset of the Cambridge Structural Database (CSD) v543 
# hosted by the Cambridge Crystallographic Data Centre (CCDC).
#
# This work is licensed under the Creative Commons
# Attribution-NonCommercial-ShareAlike 4.0 International License.
# To view a copy of this license, visit
# http://creativecommons.org/licenses/by-nc-sa/4.0/
# or send a letter to
# Creative Commons, PO Box 1866, Mountain View, CA 94042, USA.
#
# CIF created using the CSD Python API on 29 September 2022
# The structure has been converted into the P1 space group
# The structure has a 3D framework
# The original CSD entry TASWOB is in the orthorhombic crystal system
# The framework has been calculated to contain at least 10.0% void space
# The void calculation uses a probe of radius 1.32A, grid spacing 0.4
# H atom positions have been added when not included in the experimental data
#
###############################################################################

data_TASWOB
_chemical_formula_moiety         '(C208 H120 Cl96 O72 Tb8)n'
_symmetry_cell_setting           triclinic
_symmetry_space_group_name_H-M   'P 1'
_symmetry_Int_Tables_number      1
_space_group_name_Hall           'P 1'
loop_
_symmetry_equiv_pos_site_id
_symmetry_equiv_pos_as_xyz
1 x,y,z
_cell_length_a                   25.63(2)
_cell_length_b                   26.60(3)
_cell_length_c                   14.517(14)
_cell_angle_alpha                90
_cell_angle_beta                 90
_cell_angle_gamma                90
_cell_volume                     9897.08
loop_
_atom_site_label
_atom_site_type_symbol
_atom_site_fract_x
_atom_site_fract_y
_atom_site_fract_z
Tb1 Tb 0.39725(2) 0.81573(2) 0.14849(4)
Cl1 Cl 0.57778(16) 0.52300(13) 0.0040(3)
Cl6 Cl 0.65344(14) 0.63466(16) 0.1021(3)
Cl8 Cl 0.57230(16) 0.68316(16) 0.2314(3)
O1 O 0.4508(3) 0.7458(3) 0.1352(6)
O3 O 0.3216(7) 0.8587(6) 0.0891(16)
H3 H 0.3051 0.8405 0.0428
O4 O 0.4502(3) 0.6776(3) 0.2209(7)
O6 O 0.4743(5) 0.8480(5) 0.0759(9)
H4 H 0.4779 0.8827 0.0802
C10 C 0.5156(8) 0.8240(6) 0.0275(13)
H5 H 0.5021 0.7926 0.0032
H6 H 0.5424 0.8154 0.0721
C11 C 0.4919(4) 0.6668(4) 0.0005(9)
C12 C 0.5046(5) 0.6792(4) 0.0916(9)
C13 C 0.5549(5) 0.6691(5) 0.1210(9)
C14 C 0.5917(4) 0.6488(4) 0.0591(9)
C21 C 0.4656(5) 0.7029(5) 0.1547(9)
C24 C 0.2959(10) 0.9053(7) 0.108(2)
H10 H 0.2632 0.8938 0.1342
H11 H 0.2868 0.9163 0.0462
C26 C 0.3032(11) 0.9560(8) 0.158(2)
H12 H 0.2788 0.9800 0.1336
H13 H 0.3381 0.9679 0.1477
H14 H 0.2973 0.9516 0.2223
Tb2 Tb 0.39725(2) 0.68427(2) 0.35151(4)
O10 O 0.4502(3) 0.8224(3) 0.2791(7)
O11 O 0.3994(3) 0.9040(3) 0.1803(6)
O12 O 0.3380(3) 0.7475(3) 0.1055(6)
O13 O 0.3411(3) 0.8057(4) 0.2709(7)
Cl2 Cl 0.50955(17) 0.63380(18) 0.8294(3)
Cl3 Cl 0.54519(16) 0.43373(12) 0.8821(3)
Cl4 Cl 0.42871(13) 0.67584(15) 0.9658(3)
Cl5 Cl 0.6156(2) 0.52894(17) 0.5822(3)
Cl7 Cl 0.63956(17) 0.62444(13) 0.6987(3)
Cl9 Cl 0.62005(14) 0.73120(13) 0.8760(3)
Cl10 Cl 0.71535(14) 0.55054(11) 0.9243(3)
Cl11 Cl 0.82191(14) 0.60168(14) 0.8941(3)
Cl12 Cl 0.72686(15) 0.78132(12) 0.8555(3)
O2 O 0.3927(6) 0.8057(7) 0.9879(11)
H1 H 0.3926 0.8327 0.9506
H2 H 0.3917 0.7745 0.9638
O5 O 0.6006(3) 0.4040(3) 0.6803(6)
O7 O 0.8380(3) 0.7475(3) 0.8945(6)
O8 O 0.8411(3) 0.6943(4) 0.7709(7)
C1 C 0.6200(5) 0.6155(4) 0.9035(10)
C2 C 0.6087(3) 0.5701(2) 0.8483(5)
C3 C 0.5876(3) 0.5273(3) 0.8888(4)
C4 C 0.5753(3) 0.4858(2) 0.8349(6)
C5 C 0.5840(3) 0.4871(2) 0.7404(6)
C6 C 0.6051(3) 0.5298(3) 0.6999(4)
C7 C 0.6174(3) 0.5713(2) 0.7538(5)
C8 C 0.5797(4) 0.6374(4) 0.9675(9)
C9 C 0.5278(5) 0.6456(4) 0.9405(9)
C15 C 0.5422(8) 0.8520(6) 0.9476(12)
H7 H 0.5708 0.8323 0.9247
H8 H 0.5550 0.8838 0.9692
H9 H 0.5174 0.8575 0.8990
O9 O 0.5254(5) 0.4425(4) 0.6386(9)
C16 C 0.6710(4) 0.6413(4) 0.8979(9)
C17 C 0.7155(4) 0.6130(4) 0.8996(10)
C18 C 0.6747(5) 0.6930(4) 0.8884(10)
C19 C 0.7661(5) 0.6360(4) 0.8881(10)
C20 C 0.7242(4) 0.7162(4) 0.8753(10)
C22 C 0.8217(5) 0.7133(5) 0.8439(10)
C23 C 0.5668(7) 0.4403(5) 0.6772(10)
C25 C 0.7700(6) 0.6885(5) 0.8687(9)
Tb3 Tb 0.60275(2) 0.31573(2) 0.64849(4)
Tb4 Tb 0.89725(2) 0.81573(2) 0.85151(4)
Tb5 Tb 0.89725(2) 0.68427(2) 0.64849(4)
H15 H 0.6347 0.592005 0.959182
Tb1_2 Tb 0.10275(2) 0.18427(2) 0.14849(4)
O1_2 O 0.0492(3) 0.2542(3) 0.1352(6)
O3_2 O 0.1784(7) 0.1413(6) 0.0891(16)
H3_2 H 0.1949 0.1595 0.0428
O4_2 O 0.0498(3) 0.3224(3) 0.2209(7)
O6_2 O 0.0257(5) 0.1520(5) 0.0759(9)
H4_2 H 0.0221 0.1173 0.0802
C11_2 C 0.0081(4) 0.3332(4) 0.0005(9)
C21_2 C 0.0344(5) 0.2971(5) 0.1547(9)
C24_2 C 0.2041(10) 0.0947(7) 0.108(2)
H10_2 H 0.2368 0.1062 0.1342
H11_2 H 0.2132 0.0837 0.0462
C26_2 C 0.1968(11) 0.0440(8) 0.158(2)
H12_2 H 0.2212 0.0200 0.1336
H13_2 H 0.1619 0.0321 0.1477
H14_2 H 0.2027 0.0484 0.2223
Tb2_2 Tb 0.10275(2) 0.31573(2) 0.35151(4)
O10_2 O 0.0498(3) 0.1776(3) 0.2791(7)
O11_2 O 0.1006(3) 0.0960(3) 0.1803(6)
O12_2 O 0.1620(3) 0.2525(3) 0.1055(6)
O13_2 O 0.1589(3) 0.1943(4) 0.2709(7)
Cl2_2 Cl 0.99045(17) 0.36620(18) 0.8294(3)
Cl3_2 Cl 0.95481(16) 0.56627(12) 0.8821(3)
Cl5_2 Cl 0.8844(2) 0.47106(17) 0.5822(3)
Cl7_2 Cl 0.86044(17) 0.37556(13) 0.6987(3)
Cl9_2 Cl 0.87995(14) 0.26880(13) 0.8760(3)
Cl10_2 Cl 0.78465(14) 0.44946(11) 0.9243(3)
Cl11_2 Cl 0.67809(14) 0.39832(14) 0.8941(3)
Cl12_2 Cl 0.77314(15) 0.21868(12) 0.8555(3)
O5_2 O 0.8994(3) 0.5960(3) 0.6803(6)
O7_2 O 0.6620(3) 0.2525(3) 0.8945(6)
O8_2 O 0.6589(3) 0.3057(4) 0.7709(7)
C1_2 C 0.8800(5) 0.3845(4) 0.9035(10)
C2_2 C 0.8913(3) 0.4299(2) 0.8483(5)
C3_2 C 0.9124(3) 0.4727(3) 0.8888(4)
C4_2 C 0.9247(3) 0.5142(2) 0.8349(6)
C5_2 C 0.9160(3) 0.5129(2) 0.7404(6)
C6_2 C 0.8949(3) 0.4702(3) 0.6999(4)
C7_2 C 0.8826(3) 0.4287(2) 0.7538(5)
C8_2 C 0.9203(4) 0.3626(4) 0.9675(9)
C9_2 C 0.9722(5) 0.3544(4) 0.9405(9)
C15_2 C 0.9578(8) 0.1480(6) 0.9476(12)
H7_2 H 0.9292 0.1677 0.9247
H8_2 H 0.9450 0.1162 0.9692
H9_2 H 0.9826 0.1425 0.8990
O9_2 O 0.9746(5) 0.5575(4) 0.6386(9)
C16_2 C 0.8290(4) 0.3587(4) 0.8979(9)
C17_2 C 0.7845(4) 0.3870(4) 0.8996(10)
C18_2 C 0.8253(5) 0.3070(4) 0.8884(10)
C19_2 C 0.7339(5) 0.3640(4) 0.8881(10)
C20_2 C 0.7758(4) 0.2838(4) 0.8753(10)
C22_2 C 0.6783(5) 0.2867(5) 0.8439(10)
C23_2 C 0.9332(7) 0.5597(5) 0.6772(10)
C25_2 C 0.7300(6) 0.3115(5) 0.8687(9)
Tb4_2 Tb 0.60275(2) 0.18427(2) 0.85151(4)
H15_2 H 0.8653 0.407995 0.959182
Cl3_3 Cl 0.54519(16) 0.06627(12) 0.6179(3)
O5_3 O 0.6006(3) 0.0960(3) 0.8197(6)
C4_3 C 0.5753(3) 0.0142(2) 0.6651(6)
C5_3 C 0.5840(3) 0.0129(2) 0.7596(6)
O9_3 O 0.5254(5) 0.0575(4) 0.8614(9)
C23_3 C 0.5668(7) 0.0597(5) 0.8228(10)
Cl1_2 Cl 0.57778(16) 0.97700(13) 0.4960(3)
Cl2_3 Cl 0.50955(17) 0.86620(18) 0.6706(3)
Cl4_2 Cl 0.42871(13) 0.82416(15) 0.5342(3)
Cl5_3 Cl 0.6156(2) 0.97106(17) 0.9178(3)
Cl6_2 Cl 0.65344(14) 0.86534(16) 0.3979(3)
Cl7_3 Cl 0.63956(17) 0.87556(13) 0.8013(3)
Cl8_2 Cl 0.57230(16) 0.81684(16) 0.2686(3)
Cl9_3 Cl 0.62005(14) 0.76880(13) 0.6240(3)
Cl10_3 Cl 0.71535(14) 0.94946(11) 0.5757(3)
Cl11_3 Cl 0.82191(14) 0.89832(14) 0.6059(3)
Cl12_3 Cl 0.72686(15) 0.71868(12) 0.6445(3)
O1_3 O 0.4508(3) 0.7542(3) 0.3648(6)
O2_2 O 0.3927(6) 0.6943(7) 0.5121(11)
H1_2 H 0.3926 0.6673 0.5494
H2_2 H 0.3917 0.7255 0.5362
O3_3 O 0.3216(7) 0.6413(6) 0.4109(16)
H3_3 H 0.3051 0.6595 0.4572
O6_3 O 0.4743(5) 0.6520(5) 0.4241(9)
H4_3 H 0.4779 0.6173 0.4198
O7_3 O 0.8380(3) 0.7525(3) 0.6055(6)
O8_3 O 0.8411(3) 0.8057(4) 0.7291(7)
C1_3 C 0.6200(5) 0.8845(4) 0.5965(10)
C2_3 C 0.6087(3) 0.9299(2) 0.6517(5)
C3_3 C 0.5876(3) 0.9727(3) 0.6112(4)
C6_3 C 0.6051(3) 0.9702(3) 0.8001(4)
C7_3 C 0.6174(3) 0.9287(2) 0.7462(5)
C8_3 C 0.5797(4) 0.8626(4) 0.5325(9)
C9_3 C 0.5278(5) 0.8544(4) 0.5595(9)
C10_2 C 0.5156(8) 0.6760(6) 0.4725(13)
H5_2 H 0.5021 0.7074 0.4968
H6_2 H 0.5424 0.6846 0.4279
C11_3 C 0.4919(4) 0.8332(4) 0.4995(9)
C12_2 C 0.5046(5) 0.8208(4) 0.4084(9)
C13_2 C 0.5549(5) 0.8309(5) 0.3790(9)
C14_2 C 0.5917(4) 0.8512(4) 0.4409(9)
C15_3 C 0.5422(8) 0.6480(6) 0.5524(12)
H7_3 H 0.5708 0.6677 0.5753
H8_3 H 0.5550 0.6162 0.5308
H9_3 H 0.5174 0.6425 0.6010
C16_3 C 0.6710(4) 0.8587(4) 0.6021(9)
C17_3 C 0.7155(4) 0.8870(4) 0.6004(10)
C18_3 C 0.6747(5) 0.8070(4) 0.6116(10)
C19_3 C 0.7661(5) 0.8640(4) 0.6119(10)
C20_3 C 0.7242(4) 0.7838(4) 0.6247(10)
C21_3 C 0.4656(5) 0.7971(5) 0.3453(9)
C22_3 C 0.8217(5) 0.7867(5) 0.6561(10)
C24_3 C 0.2959(10) 0.5947(7) 0.392(2)
H10_3 H 0.2632 0.6062 0.3658
H11_3 H 0.2868 0.5837 0.4538
C25_3 C 0.7700(6) 0.8115(5) 0.6313(9)
C26_3 C 0.3032(11) 0.5440(8) 0.342(2)
H12_3 H 0.2788 0.5200 0.3664
H13_3 H 0.3381 0.5321 0.3523
H14_3 H 0.2973 0.5484 0.2777
O11_3 O 0.3994(3) 0.5960(3) 0.3197(6)
O12_3 O 0.3380(3) 0.7525(3) 0.3945(6)
O13_3 O 0.3411(3) 0.6943(4) 0.2291(7)
H15_3 H 0.6347 0.907995 0.540818
Cl4_3 Cl 0.07129(13) 0.17584(15) 0.5342(3)
O1_4 O 0.0492(3) 0.2458(3) 0.3648(6)
O2_3 O 0.1073(6) 0.3057(7) 0.5121(11)
H1_3 H 0.1074 0.3327 0.5494
H2_3 H 0.1083 0.2745 0.5362
O3_4 O 0.1784(7) 0.3587(6) 0.4109(16)
H3_4 H 0.1949 0.3405 0.4572
O6_4 O 0.0257(5) 0.3480(5) 0.4241(9)
H4_4 H 0.0221 0.3827 0.4198
C11_4 C 0.0081(4) 0.1668(4) 0.4995(9)
C21_4 C 0.0344(5) 0.2029(5) 0.3453(9)
C24_4 C 0.2041(10) 0.4053(7) 0.392(2)
H10_4 H 0.2368 0.3938 0.3658
H11_4 H 0.2132 0.4163 0.4538
C26_4 C 0.1968(11) 0.4560(8) 0.342(2)
H12_4 H 0.2212 0.4800 0.3664
H13_4 H 0.1619 0.4679 0.3523
H14_4 H 0.2027 0.4516 0.2777
O11_4 O 0.1006(3) 0.4040(3) 0.3197(6)
O12_4 O 0.1620(3) 0.2475(3) 0.3945(6)
O13_4 O 0.1589(3) 0.3057(4) 0.2291(7)
Cl1_3 Cl 0.92222(16) 0.02300(13) 0.4960(3)
Cl2_4 Cl 0.99045(17) 0.13380(18) 0.6706(3)
Cl5_4 Cl 0.8844(2) 0.02894(17) 0.9178(3)
Cl6_3 Cl 0.84656(14) 0.13466(16) 0.3979(3)
Cl7_4 Cl 0.86044(17) 0.12444(13) 0.8013(3)
Cl8_3 Cl 0.92770(16) 0.18316(16) 0.2686(3)
Cl9_4 Cl 0.87995(14) 0.23120(13) 0.6240(3)
Cl10_4 Cl 0.78465(14) 0.05054(11) 0.5757(3)
Cl11_4 Cl 0.67809(14) 0.10168(14) 0.6059(3)
Cl12_4 Cl 0.77314(15) 0.28132(12) 0.6445(3)
O7_4 O 0.6620(3) 0.2475(3) 0.6055(6)
O8_4 O 0.6589(3) 0.1943(4) 0.7291(7)
C1_4 C 0.8800(5) 0.1155(4) 0.5965(10)
C2_4 C 0.8913(3) 0.0701(2) 0.6517(5)
C3_4 C 0.9124(3) 0.0273(3) 0.6112(4)
C6_4 C 0.8949(3) 0.0298(3) 0.8001(4)
C7_4 C 0.8826(3) 0.0713(2) 0.7462(5)
C8_4 C 0.9203(4) 0.1374(4) 0.5325(9)
C9_4 C 0.9722(5) 0.1456(4) 0.5595(9)
C10_3 C 0.9844(8) 0.3240(6) 0.4725(13)
H5_3 H 0.9979 0.2926 0.4968
H6_3 H 0.9576 0.3154 0.4279
C12_3 C 0.9954(5) 0.1792(4) 0.4084(9)
C13_3 C 0.9451(5) 0.1691(5) 0.3790(9)
C14_3 C 0.9083(4) 0.1488(4) 0.4409(9)
C15_4 C 0.9578(8) 0.3520(6) 0.5524(12)
H7_4 H 0.9292 0.3323 0.5753
H8_4 H 0.9450 0.3838 0.5308
H9_4 H 0.9826 0.3575 0.6010
C16_4 C 0.8290(4) 0.1413(4) 0.6021(9)
C17_4 C 0.7845(4) 0.1130(4) 0.6004(10)
C18_4 C 0.8253(5) 0.1930(4) 0.6116(10)
C19_4 C 0.7339(5) 0.1360(4) 0.6119(10)
C20_4 C 0.7758(4) 0.2162(4) 0.6247(10)
C22_4 C 0.6783(5) 0.2133(5) 0.6561(10)
C25_4 C 0.7300(6) 0.1885(5) 0.6313(9)
H15_4 H 0.8653 0.0920054 0.540818
Cl3_4 Cl 0.95481(16) 0.93373(12) 0.6179(3)
O5_4 O 0.8994(3) 0.9040(3) 0.8197(6)
C4_4 C 0.9247(3) 0.9858(2) 0.6651(6)
C5_4 C 0.9160(3) 0.9871(2) 0.7596(6)
O9_4 O 0.9746(5) 0.9425(4) 0.8614(9)
C23_4 C 0.9332(7) 0.9403(5) 0.8228(10)
Cl2_5 Cl 0.49045(17) 0.36620(18) 0.1706(3)
Cl3_5 Cl 0.45481(16) 0.56627(12) 0.1179(3)
Cl4_4 Cl 0.57129(13) 0.32416(15) 0.0342(3)
Cl5_5 Cl 0.3844(2) 0.47106(17) 0.4178(3)
Cl7_5 Cl 0.36044(17) 0.37556(13) 0.3013(3)
Cl9_5 Cl 0.37995(14) 0.26880(13) 0.1240(3)
Cl10_5 Cl 0.28465(14) 0.44946(11) 0.0757(3)
Cl11_5 Cl 0.17809(14) 0.39832(14) 0.1059(3)
Cl12_5 Cl 0.27314(15) 0.21868(12) 0.1445(3)
O2_4 O 0.6073(6) 0.1943(7) 0.0121(11)
H1_4 H 0.6074 0.1673 0.0494
H2_4 H 0.6083 0.2255 0.0362
C1_5 C 0.3800(5) 0.3845(4) 0.0965(10)
C2_5 C 0.3913(3) 0.4299(2) 0.1517(5)
C3_5 C 0.4124(3) 0.4727(3) 0.1112(4)
C4_5 C 0.4247(3) 0.5142(2) 0.1651(6)
C5_5 C 0.4160(3) 0.5129(2) 0.2596(6)
C6_5 C 0.3949(3) 0.4702(3) 0.3001(4)
C7_5 C 0.3826(3) 0.4287(2) 0.2462(5)
C8_5 C 0.4203(4) 0.3626(4) 0.0325(9)
C9_5 C 0.4722(5) 0.3544(4) 0.0595(9)
C15_5 C 0.4578(8) 0.1480(6) 0.0524(12)
H7_5 H 0.4292 0.1677 0.0753
H8_5 H 0.4450 0.1162 0.0308
H9_5 H 0.4826 0.1425 0.1010
O9_5 O 0.4746(5) 0.5575(4) 0.3614(9)
C16_5 C 0.3290(4) 0.3587(4) 0.1021(9)
C17_5 C 0.2845(4) 0.3870(4) 0.1004(10)
C18_5 C 0.3253(5) 0.3070(4) 0.1116(10)
C19_5 C 0.2339(5) 0.3640(4) 0.1119(10)
C20_5 C 0.2758(4) 0.2838(4) 0.1247(10)
C22_5 C 0.1783(5) 0.2867(5) 0.1561(10)
C23_5 C 0.4332(7) 0.5597(5) 0.3228(10)
C25_5 C 0.2300(6) 0.3115(5) 0.1313(9)
H15_5 H 0.3653 0.407995 0.0408178
Cl1_4 Cl 0.42222(16) 0.47700(13) 0.9960(3)
Cl6_4 Cl 0.34656(14) 0.36534(16) 0.8979(3)
Cl8_4 Cl 0.42770(16) 0.31684(16) 0.7686(3)
O1_5 O 0.5492(3) 0.2542(3) 0.8648(6)
O3_5 O 0.6784(7) 0.1413(6) 0.9109(16)
H3_5 H 0.6949 0.1595 0.9572
O4_3 O 0.5498(3) 0.3224(3) 0.7791(7)
O6_5 O 0.5257(5) 0.1520(5) 0.9241(9)
H4_5 H 0.5221 0.1173 0.9198
C10_4 C 0.4844(8) 0.1760(6) 0.9725(13)
H5_4 H 0.4979 0.2074 0.9968
H6_4 H 0.4576 0.1846 0.9279
C11_5 C 0.5081(4) 0.3332(4) 0.9995(9)
C12_4 C 0.4954(5) 0.3208(4) 0.9084(9)
C13_4 C 0.4451(5) 0.3309(5) 0.8790(9)
C14_4 C 0.4083(4) 0.3512(4) 0.9409(9)
C21_5 C 0.5344(5) 0.2971(5) 0.8453(9)
C24_5 C 0.7041(10) 0.0947(7) 0.892(2)
H10_5 H 0.7368 0.1062 0.8658
H11_5 H 0.7132 0.0837 0.9538
C26_5 C 0.6968(11) 0.0440(8) 0.842(2)
H12_5 H 0.7212 0.0200 0.8664
H13_5 H 0.6619 0.0321 0.8523
H14_5 H 0.7027 0.0484 0.7777
O10_3 O 0.5498(3) 0.1776(3) 0.7209(7)
Cl2_6 Cl 0.00955(17) 0.63380(18) 0.1706(3)
Cl3_6 Cl 0.04519(16) 0.43373(12) 0.1179(3)
Cl5_6 Cl 0.1156(2) 0.52894(17) 0.4178(3)
Cl7_6 Cl 0.13956(17) 0.62444(13) 0.3013(3)
Cl9_6 Cl 0.12005(14) 0.73120(13) 0.1240(3)
Cl10_6 Cl 0.21535(14) 0.55054(11) 0.0757(3)
Cl11_6 Cl 0.32191(14) 0.60168(14) 0.1059(3)
Cl12_6 Cl 0.22686(15) 0.78132(12) 0.1445(3)
C1_6 C 0.1200(5) 0.6155(4) 0.0965(10)
C2_6 C 0.1087(3) 0.5701(2) 0.1517(5)
C3_6 C 0.0876(3) 0.5273(3) 0.1112(4)
C4_6 C 0.0753(3) 0.4858(2) 0.1651(6)
C5_6 C 0.0840(3) 0.4871(2) 0.2596(6)
C6_6 C 0.1051(3) 0.5298(3) 0.3001(4)
C7_6 C 0.1174(3) 0.5713(2) 0.2462(5)
C8_6 C 0.0797(4) 0.6374(4) 0.0325(9)
C9_6 C 0.0278(5) 0.6456(4) 0.0595(9)
C15_6 C 0.0422(8) 0.8520(6) 0.0524(12)
H7_6 H 0.0708 0.8323 0.0753
H8_6 H 0.0550 0.8838 0.0308
H9_6 H 0.0174 0.8575 0.1010
O9_6 O 0.0254(5) 0.4425(4) 0.3614(9)
C16_6 C 0.1710(4) 0.6413(4) 0.1021(9)
C17_6 C 0.2155(4) 0.6130(4) 0.1004(10)
C18_6 C 0.1747(5) 0.6930(4) 0.1116(10)
C19_6 C 0.2661(5) 0.6360(4) 0.1119(10)
C20_6 C 0.2242(4) 0.7162(4) 0.1247(10)
C22_6 C 0.3217(5) 0.7133(5) 0.1561(10)
C23_6 C 0.0668(7) 0.4403(5) 0.3228(10)
C25_6 C 0.2700(6) 0.6885(5) 0.1313(9)
H15_6 H 0.1347 0.592005 0.0408178
O1_6 O 0.9508(3) 0.7458(3) 0.8648(6)
O3_6 O 0.8216(7) 0.8587(6) 0.9109(16)
H3_6 H 0.8051 0.8405 0.9572
O4_4 O 0.9502(3) 0.6776(3) 0.7791(7)
O6_6 O 0.9743(5) 0.8480(5) 0.9241(9)
H4_6 H 0.9779 0.8827 0.9198
C11_6 C 0.9919(4) 0.6668(4) 0.9995(9)
C21_6 C 0.9656(5) 0.7029(5) 0.8453(9)
C24_6 C 0.7959(10) 0.9053(7) 0.892(2)
H10_6 H 0.7632 0.8938 0.8658
H11_6 H 0.7868 0.9163 0.9538
C26_6 C 0.8032(11) 0.9560(8) 0.842(2)
H12_6 H 0.7788 0.9800 0.8664
H13_6 H 0.8381 0.9679 0.8523
H14_6 H 0.7973 0.9516 0.7777
O10_4 O 0.9502(3) 0.8224(3) 0.7209(7)
Cl1_5 Cl 0.42222(16) 0.02300(13) 0.5040(3)
Cl2_7 Cl 0.49045(17) 0.13380(18) 0.3294(3)
Cl4_5 Cl 0.57129(13) 0.17584(15) 0.4658(3)
Cl5_7 Cl 0.3844(2) 0.02894(17) 0.0822(3)
Cl6_5 Cl 0.34656(14) 0.13466(16) 0.6021(3)
Cl7_7 Cl 0.36044(17) 0.12444(13) 0.1987(3)
Cl8_5 Cl 0.42770(16) 0.18316(16) 0.7314(3)
Cl9_7 Cl 0.37995(14) 0.23120(13) 0.3760(3)
Cl10_7 Cl 0.28465(14) 0.05054(11) 0.4243(3)
Cl11_7 Cl 0.17809(14) 0.10168(14) 0.3941(3)
Cl12_7 Cl 0.27314(15) 0.28132(12) 0.3555(3)
O1_7 O 0.5492(3) 0.2458(3) 0.6352(6)
O2_5 O 0.6073(6) 0.3057(7) 0.4879(11)
H1_5 H 0.6074 0.3327 0.4506
H2_5 H 0.6083 0.2745 0.4638
O3_7 O 0.6784(7) 0.3587(6) 0.5891(16)
H3_7 H 0.6949 0.3405 0.5428
O6_7 O 0.5257(5) 0.3480(5) 0.5759(9)
H4_7 H 0.5221 0.3827 0.5802
C1_7 C 0.3800(5) 0.1155(4) 0.4035(10)
C2_7 C 0.3913(3) 0.0701(2) 0.3483(5)
C3_7 C 0.4124(3) 0.0273(3) 0.3888(4)
C6_7 C 0.3949(3) 0.0298(3) 0.1999(4)
C7_7 C 0.3826(3) 0.0713(2) 0.2538(5)
C8_7 C 0.4203(4) 0.1374(4) 0.4675(9)
C9_7 C 0.4722(5) 0.1456(4) 0.4405(9)
C10_5 C 0.4844(8) 0.3240(6) 0.5275(13)
H5_5 H 0.4979 0.2926 0.5032
H6_5 H 0.4576 0.3154 0.5721
C11_7 C 0.5081(4) 0.1668(4) 0.5005(9)
C12_5 C 0.4954(5) 0.1792(4) 0.5916(9)
C13_5 C 0.4451(5) 0.1691(5) 0.6210(9)
C14_5 C 0.4083(4) 0.1488(4) 0.5591(9)
C15_7 C 0.4578(8) 0.3520(6) 0.4476(12)
H7_7 H 0.4292 0.3323 0.4247
H8_7 H 0.4450 0.3838 0.4692
H9_7 H 0.4826 0.3575 0.3990
C16_7 C 0.3290(4) 0.1413(4) 0.3979(9)
C17_7 C 0.2845(4) 0.1130(4) 0.3996(10)
C18_7 C 0.3253(5) 0.1930(4) 0.3884(10)
C19_7 C 0.2339(5) 0.1360(4) 0.3881(10)
C20_7 C 0.2758(4) 0.2162(4) 0.3753(10)
C21_7 C 0.5344(5) 0.2029(5) 0.6547(9)
C22_7 C 0.1783(5) 0.2133(5) 0.3439(10)
C24_7 C 0.7041(10) 0.4053(7) 0.608(2)
H10_7 H 0.7368 0.3938 0.6342
H11_7 H 0.7132 0.4163 0.5462
C25_7 C 0.2300(6) 0.1885(5) 0.3687(9)
C26_7 C 0.6968(11) 0.4560(8) 0.658(2)
H12_7 H 0.7212 0.4800 0.6336
H13_7 H 0.6619 0.4679 0.6477
H14_7 H 0.7027 0.4516 0.7223
H15_7 H 0.3653 0.0920054 0.459182
Cl3_7 Cl 0.45481(16) 0.93373(12) 0.3821(3)
C4_7 C 0.4247(3) 0.9858(2) 0.3349(6)
C5_7 C 0.4160(3) 0.9871(2) 0.2404(6)
O9_7 O 0.4746(5) 0.9425(4) 0.1386(9)
C23_7 C 0.4332(7) 0.9403(5) 0.1772(10)
Cl3_8 Cl 0.04519(16) 0.06627(12) 0.3821(3)
C4_8 C 0.0753(3) 0.0142(2) 0.3349(6)
C5_8 C 0.0840(3) 0.0129(2) 0.2404(6)
O9_8 O 0.0254(5) 0.0575(4) 0.1386(9)
C23_8 C 0.0668(7) 0.0597(5) 0.1772(10)
Cl1_6 Cl 0.07778(16) 0.97700(13) 0.5040(3)
Cl2_8 Cl 0.00955(17) 0.86620(18) 0.3294(3)
Cl5_8 Cl 0.1156(2) 0.97106(17) 0.0822(3)
Cl6_6 Cl 0.15344(14) 0.86534(16) 0.6021(3)
Cl7_8 Cl 0.13956(17) 0.87556(13) 0.1987(3)
Cl8_6 Cl 0.07230(16) 0.81684(16) 0.7314(3)
Cl9_8 Cl 0.12005(14) 0.76880(13) 0.3760(3)
Cl10_8 Cl 0.21535(14) 0.94946(11) 0.4243(3)
Cl11_8 Cl 0.32191(14) 0.89832(14) 0.3941(3)
Cl12_8 Cl 0.22686(15) 0.71868(12) 0.3555(3)
C1_8 C 0.1200(5) 0.8845(4) 0.4035(10)
C2_8 C 0.1087(3) 0.9299(2) 0.3483(5)
C3_8 C 0.0876(3) 0.9727(3) 0.3888(4)
C6_8 C 0.1051(3) 0.9702(3) 0.1999(4)
C7_8 C 0.1174(3) 0.9287(2) 0.2538(5)
C8_8 C 0.0797(4) 0.8626(4) 0.4675(9)
C9_8 C 0.0278(5) 0.8544(4) 0.4405(9)
C10_6 C 0.0156(8) 0.6760(6) 0.5275(13)
H5_6 H 0.0021 0.7074 0.5032
H6_6 H 0.0424 0.6846 0.5721
C12_6 C 0.0046(5) 0.8208(4) 0.5916(9)
C13_6 C 0.0549(5) 0.8309(5) 0.6210(9)
C14_6 C 0.0917(4) 0.8512(4) 0.5591(9)
C15_8 C 0.0422(8) 0.6480(6) 0.4476(12)
H7_8 H 0.0708 0.6677 0.4247
H8_8 H 0.0550 0.6162 0.4692
H9_8 H 0.0174 0.6425 0.3990
C16_8 C 0.1710(4) 0.8587(4) 0.3979(9)
C17_8 C 0.2155(4) 0.8870(4) 0.3996(10)
C18_8 C 0.1747(5) 0.8070(4) 0.3884(10)
C19_8 C 0.2661(5) 0.8640(4) 0.3881(10)
C20_8 C 0.2242(4) 0.7838(4) 0.3753(10)
C22_8 C 0.3217(5) 0.7867(5) 0.3439(10)
C25_8 C 0.2700(6) 0.8115(5) 0.3687(9)
H15_8 H 0.1347 0.907995 0.459182
Cl4_6 Cl 0.92871(13) 0.82416(15) 0.4658(3)
O1_8 O 0.9508(3) 0.7542(3) 0.6352(6)
O2_6 O 0.8927(6) 0.6943(7) 0.4879(11)
H1_6 H 0.8926 0.6673 0.4506
H2_6 H 0.8917 0.7255 0.4638
O3_8 O 0.8216(7) 0.6413(6) 0.5891(16)
H3_8 H 0.8051 0.6595 0.5428
O6_8 O 0.9743(5) 0.6520(5) 0.5759(9)
H4_8 H 0.9779 0.6173 0.5802
C11_8 C 0.9919(4) 0.8332(4) 0.5005(9)
C21_8 C 0.9656(5) 0.7971(5) 0.6547(9)
C24_8 C 0.7959(10) 0.5947(7) 0.608(2)
H10_8 H 0.7632 0.6062 0.6342
H11_8 H 0.7868 0.5837 0.5462
C26_8 C 0.8032(11) 0.5440(8) 0.658(2)
H12_8 H 0.7788 0.5200 0.6336
H13_8 H 0.8381 0.5321 0.6477
H14_8 H 0.7973 0.5484 0.7223
Cl4_7 Cl 0.07129(13) 0.32416(15) 0.9658(3)
O2_7 O 0.1073(6) 0.1943(7) 0.9879(11)
H1_7 H 0.1074 0.1673 0.9506
H2_7 H 0.1083 0.2255 0.9638
Cl1_7 Cl 0.92222(16) 0.47700(13) 0.0040(3)
Cl6_7 Cl 0.84656(14) 0.36534(16) 0.1021(3)
Cl8_7 Cl 0.92770(16) 0.31684(16) 0.2314(3)
C10_7 C 0.9844(8) 0.1760(6) 0.0275(13)
H5_7 H 0.9979 0.2074 0.0032
H6_7 H 0.9576 0.1846 0.0721
C12_7 C 0.9954(5) 0.3208(4) 0.0916(9)
C13_7 C 0.9451(5) 0.3309(5) 0.1210(9)
C14_7 C 0.9083(4) 0.3512(4) 0.0591(9)
Cl1_8 Cl 0.07778(16) 0.52300(13) 0.9960(3)
Cl6_8 Cl 0.15344(14) 0.63466(16) 0.8979(3)
Cl8_8 Cl 0.07230(16) 0.68316(16) 0.7686(3)
C10_8 C 0.0156(8) 0.8240(6) 0.9725(13)
H5_8 H 0.0021 0.7926 0.9968
H6_8 H 0.0424 0.8154 0.9279
C12_8 C 0.0046(5) 0.6792(4) 0.9084(9)
C13_8 C 0.0549(5) 0.6691(5) 0.8790(9)
C14_8 C 0.0917(4) 0.6488(4) 0.9409(9)
Cl4_8 Cl 0.92871(13) 0.67584(15) 0.0342(3)
O2_8 O 0.8927(6) 0.8057(7) 0.0121(11)
H1_8 H 0.8926 0.8327 0.0494
H2_8 H 0.8917 0.7745 0.0362
loop_
_geom_bond_atom_site_label_1
_geom_bond_atom_site_label_2
_geom_bond_site_symmetry_1
_geom_bond_site_symmetry_2
Tb1 O1 1_555 1_555
Cl6 C14 1_555 1_555
Cl8 C13 1_555 1_555
O1 C21 1_555 1_555
O3 Tb1 1_555 1_555
H3 O3 1_555 1_555
O4 C21 1_555 1_555
O6 Tb1 1_555 1_555
H4 O6 1_555 1_555
C10 O6 1_555 1_555
H5 C10 1_555 1_555
H6 C10 1_555 1_555
C12 C11 1_555 1_555
C13 C12 1_555 1_555
C21 C12 1_555 1_555
C24 O3 1_555 1_555
H10 C24 1_555 1_555
H11 C24 1_555 1_555
C26 C24 1_555 1_555
H12 C26 1_555 1_555
H13 C26 1_555 1_555
H14 C26 1_555 1_555
Tb2 O4 1_555 1_555
O10 Tb1 1_555 1_555
O11 Tb1 1_555 1_555
O12 Tb1 1_555 1_555
O13 Tb1 1_555 1_555
C13 C14 1_555 1_555
Cl2 C9 1_555 1_555
Cl3 C4 1_555 1_555
Cl5 C6 1_555 1_555
Cl7 C7 1_555 1_555
Cl9 C18 1_555 1_555
Cl10 C17 1_555 1_555
Cl11 C19 1_555 1_555
Cl12 C20 1_555 1_555
H1 O2 1_555 1_555
H2 O2 1_555 1_555
O5 C23 1_555 1_555
O7 C22 1_555 1_555
O8 C22 1_555 1_555
C1 C2 1_555 1_555
C2 C3 1_555 1_555
C3 C4 1_555 1_555
C4 C5 1_555 1_555
C5 C6 1_555 1_555
C6 C7 1_555 1_555
C7 C2 1_555 1_555
C8 C1 1_555 1_555
C9 C8 1_555 1_555
H7 C15 1_555 1_555
H8 C15 1_555 1_555
H9 C15 1_555 1_555
O9 C23 1_555 1_555
C16 C1 1_555 1_555
C17 C16 1_555 1_555
C18 C16 1_555 1_555
C19 C17 1_555 1_555
C20 C18 1_555 1_555
C22 C25 1_555 1_555
C23 C5 1_555 1_555
C25 C19 1_555 1_555
Tb3 O5 1_555 1_555
Tb4 O7 1_555 1_555
Tb5 O8 1_555 1_555
C20 C25 1_555 1_555
C1 H15 1_555 1_555
Tb1_2 O1_2 1_555 1_555
O1_2 C21_2 1_555 1_555
O3_2 Tb1_2 1_555 1_555
H3_2 O3_2 1_555 1_555
O4_2 C21_2 1_555 1_555
O6_2 Tb1_2 1_555 1_555
H4_2 O6_2 1_555 1_555
C24_2 O3_2 1_555 1_555
H10_2 C24_2 1_555 1_555
H11_2 C24_2 1_555 1_555
C26_2 C24_2 1_555 1_555
H12_2 C26_2 1_555 1_555
H13_2 C26_2 1_555 1_555
H14_2 C26_2 1_555 1_555
Tb2_2 O4_2 1_555 1_555
O10_2 Tb1_2 1_555 1_555
O11_2 Tb1_2 1_555 1_555
O12_2 Tb1_2 1_555 1_555
O13_2 Tb1_2 1_555 1_555
Cl2_2 C9_2 1_555 1_555
Cl3_2 C4_2 1_555 1_555
Cl5_2 C6_2 1_555 1_555
Cl7_2 C7_2 1_555 1_555
Cl9_2 C18_2 1_555 1_555
Cl10_2 C17_2 1_555 1_555
Cl11_2 C19_2 1_555 1_555
Cl12_2 C20_2 1_555 1_555
O5_2 C23_2 1_555 1_555
O7_2 C22_2 1_555 1_555
O8_2 C22_2 1_555 1_555
C1_2 C2_2 1_555 1_555
C2_2 C3_2 1_555 1_555
C3_2 C4_2 1_555 1_555
C4_2 C5_2 1_555 1_555
C5_2 C6_2 1_555 1_555
C6_2 C7_2 1_555 1_555
C7_2 C2_2 1_555 1_555
C8_2 C1_2 1_555 1_555
C9_2 C8_2 1_555 1_555
H7_2 C15_2 1_555 1_555
H8_2 C15_2 1_555 1_555
H9_2 C15_2 1_555 1_555
O9_2 C23_2 1_555 1_555
C16_2 C1_2 1_555 1_555
C17_2 C16_2 1_555 1_555
C18_2 C16_2 1_555 1_555
C19_2 C17_2 1_555 1_555
C20_2 C18_2 1_555 1_555
C22_2 C25_2 1_555 1_555
C23_2 C5_2 1_555 1_555
C25_2 C19_2 1_555 1_555
Tb5 O5_2 1_555 1_555
Tb4_2 O7_2 1_555 1_555
Tb3 O8_2 1_555 1_555
C20_2 C25_2 1_555 1_555
C1_2 H15_2 1_555 1_555
Cl3_3 C4_3 1_555 1_555
O5_3 C23_3 1_555 1_555
C4_3 C5_3 1_555 1_555
O9_3 C23_3 1_555 1_555
C23_3 C5_3 1_555 1_555
Tb4_2 O5_3 1_555 1_555
Tb2 O1_3 1_555 1_555
Cl1_2 C3_3 1_555 1_555
Cl2_3 C9_3 1_555 1_555
Cl4_2 C11_3 1_555 1_555
Cl5_3 C6_3 1_555 1_555
Cl6_2 C14_2 1_555 1_555
Cl7_3 C7_3 1_555 1_555
Cl8_2 C13_2 1_555 1_555
Cl9_3 C18_3 1_555 1_555
Cl10_3 C17_3 1_555 1_555
Cl11_3 C19_3 1_555 1_555
Cl12_3 C20_3 1_555 1_555
O1_3 C21_3 1_555 1_555
O2_2 Tb2 1_555 1_555
H1_2 O2_2 1_555 1_555
H2_2 O2_2 1_555 1_555
O3_3 Tb2 1_555 1_555
H3_3 O3_3 1_555 1_555
O10 C21_3 1_555 1_555
O6_3 Tb2 1_555 1_555
H4_3 O6_3 1_555 1_555
O7_3 C22_3 1_555 1_555
O8_3 C22_3 1_555 1_555
C1_3 C2_3 1_555 1_555
C2_3 C3_3 1_555 1_555
C6_3 C7_3 1_555 1_555
C7_3 C2_3 1_555 1_555
C8_3 C1_3 1_555 1_555
C9_3 C8_3 1_555 1_555
C10_2 O6_3 1_555 1_555
H5_2 C10_2 1_555 1_555
H6_2 C10_2 1_555 1_555
C11_3 C9_3 1_555 1_555
C12_2 C11_3 1_555 1_555
C13_2 C12_2 1_555 1_555
C14_2 C8_3 1_555 1_555
C15_3 C10_2 1_555 1_555
H7_3 C15_3 1_555 1_555
H8_3 C15_3 1_555 1_555
H9_3 C15_3 1_555 1_555
C16_3 C1_3 1_555 1_555
C17_3 C16_3 1_555 1_555
C18_3 C16_3 1_555 1_555
C19_3 C17_3 1_555 1_555
C20_3 C18_3 1_555 1_555
C21_3 C12_2 1_555 1_555
C22_3 C25_3 1_555 1_555
C24_3 O3_3 1_555 1_555
H10_3 C24_3 1_555 1_555
H11_3 C24_3 1_555 1_555
C25_3 C19_3 1_555 1_555
C26_3 C24_3 1_555 1_555
H12_3 C26_3 1_555 1_555
H13_3 C26_3 1_555 1_555
H14_3 C26_3 1_555 1_555
Tb5 O7_3 1_555 1_555
Tb4 O8_3 1_555 1_555
O11_3 Tb2 1_555 1_555
O12_3 Tb2 1_555 1_555
O13_3 Tb2 1_555 1_555
C13_2 C14_2 1_555 1_555
C20_3 C25_3 1_555 1_555
C1_3 H15_3 1_555 1_555
Tb2_2 O1_4 1_555 1_555
Cl4_3 C11_4 1_555 1_555
O1_4 C21_4 1_555 1_555
O2_3 Tb2_2 1_555 1_555
H1_3 O2_3 1_555 1_555
H2_3 O2_3 1_555 1_555
O3_4 Tb2_2 1_555 1_555
H3_4 O3_4 1_555 1_555
O10_2 C21_4 1_555 1_555
O6_4 Tb2_2 1_555 1_555
H4_4 O6_4 1_555 1_555
C24_4 O3_4 1_555 1_555
H10_4 C24_4 1_555 1_555
H11_4 C24_4 1_555 1_555
C26_4 C24_4 1_555 1_555
H12_4 C26_4 1_555 1_555
H13_4 C26_4 1_555 1_555
H14_4 C26_4 1_555 1_555
O11_4 Tb2_2 1_555 1_555
O12_4 Tb2_2 1_555 1_555
O13_4 Tb2_2 1_555 1_555
Cl1_3 C3_4 1_555 1_555
Cl2_4 C9_4 1_555 1_555
Cl5_4 C6_4 1_555 1_555
Cl6_3 C14_3 1_555 1_555
Cl7_4 C7_4 1_555 1_555
Cl8_3 C13_3 1_555 1_555
Cl9_4 C18_4 1_555 1_555
Cl10_4 C17_4 1_555 1_555
Cl11_4 C19_4 1_555 1_555
Cl12_4 C20_4 1_555 1_555
O7_4 C22_4 1_555 1_555
O8_4 C22_4 1_555 1_555
C1_4 C2_4 1_555 1_555
C2_4 C3_4 1_555 1_555
C6_4 C7_4 1_555 1_555
C7_4 C2_4 1_555 1_555
C8_4 C1_4 1_555 1_555
C9_4 C8_4 1_555 1_555
H5_3 C10_3 1_555 1_555
H6_3 C10_3 1_555 1_555
C13_3 C12_3 1_555 1_555
C14_3 C8_4 1_555 1_555
C15_4 C10_3 1_555 1_555
H7_4 C15_4 1_555 1_555
H8_4 C15_4 1_555 1_555
H9_4 C15_4 1_555 1_555
C16_4 C1_4 1_555 1_555
C17_4 C16_4 1_555 1_555
C18_4 C16_4 1_555 1_555
C19_4 C17_4 1_555 1_555
C20_4 C18_4 1_555 1_555
C22_4 C25_4 1_555 1_555
C25_4 C19_4 1_555 1_555
Tb3 O7_4 1_555 1_555
Tb4_2 O8_4 1_555 1_555
C13_3 C14_3 1_555 1_555
C20_4 C25_4 1_555 1_555
C1_4 H15_4 1_555 1_555
Cl3_4 C4_4 1_555 1_555
O5_4 C23_4 1_555 1_555
C4_4 C5_4 1_555 1_555
O9_4 C23_4 1_555 1_555
C23_4 C5_4 1_555 1_555
Tb4 O5_4 1_555 1_555
Cl2_5 C9_5 1_555 1_555
Cl3_5 C4_5 1_555 1_555
Cl5_5 C6_5 1_555 1_555
Cl7_5 C7_5 1_555 1_555
Cl9_5 C18_5 1_555 1_555
Cl10_5 C17_5 1_555 1_555
Cl11_5 C19_5 1_555 1_555
Cl12_5 C20_5 1_555 1_555
H1_4 O2_4 1_555 1_555
H2_4 O2_4 1_555 1_555
O11_3 C23_5 1_555 1_555
O12_2 C22_5 1_555 1_555
O13_4 C22_5 1_555 1_555
C1_5 C2_5 1_555 1_555
C2_5 C3_5 1_555 1_555
C3_5 C4_5 1_555 1_555
C4_5 C5_5 1_555 1_555
C5_5 C6_5 1_555 1_555
C6_5 C7_5 1_555 1_555
C7_5 C2_5 1_555 1_555
C8_5 C1_5 1_555 1_555
C9_5 C8_5 1_555 1_555
H7_5 C15_5 1_555 1_555
H8_5 C15_5 1_555 1_555
H9_5 C15_5 1_555 1_555
O9_5 C23_5 1_555 1_555
C16_5 C1_5 1_555 1_555
C17_5 C16_5 1_555 1_555
C18_5 C16_5 1_555 1_555
C19_5 C17_5 1_555 1_555
C20_5 C18_5 1_555 1_555
C22_5 C25_5 1_555 1_555
C23_5 C5_5 1_555 1_555
C25_5 C19_5 1_555 1_555
C20_5 C25_5 1_555 1_555
C1_5 H15_5 1_555 1_555
Tb4_2 O1_5 1_555 1_555
Cl6_4 C14_4 1_555 1_555
Cl8_4 C13_4 1_555 1_555
O1_5 C21_5 1_555 1_555
O3_5 Tb4_2 1_555 1_555
H3_5 O3_5 1_555 1_555
O4_3 C21_5 1_555 1_555
O6_5 Tb4_2 1_555 1_555
H4_5 O6_5 1_555 1_555
C10_4 O6_5 1_555 1_555
H5_4 C10_4 1_555 1_555
H6_4 C10_4 1_555 1_555
C12_4 C11_5 1_555 1_555
C13_4 C12_4 1_555 1_555
C21_5 C12_4 1_555 1_555
C24_5 O3_5 1_555 1_555
H10_5 C24_5 1_555 1_555
H11_5 C24_5 1_555 1_555
C26_5 C24_5 1_555 1_555
H12_5 C26_5 1_555 1_555
H13_5 C26_5 1_555 1_555
H14_5 C26_5 1_555 1_555
Tb3 O4_3 1_555 1_555
O10_3 Tb4_2 1_555 1_555
C13_4 C14_4 1_555 1_555
Cl2_6 C9_6 1_555 1_555
Cl3_6 C4_6 1_555 1_555
Cl5_6 C6_6 1_555 1_555
Cl7_6 C7_6 1_555 1_555
Cl9_6 C18_6 1_555 1_555
Cl10_6 C17_6 1_555 1_555
Cl11_6 C19_6 1_555 1_555
Cl12_6 C20_6 1_555 1_555
O11_4 C23_6 1_555 1_555
O12 C22_6 1_555 1_555
O13_3 C22_6 1_555 1_555
C1_6 C2_6 1_555 1_555
C2_6 C3_6 1_555 1_555
C3_6 C4_6 1_555 1_555
C4_6 C5_6 1_555 1_555
C5_6 C6_6 1_555 1_555
C6_6 C7_6 1_555 1_555
C7_6 C2_6 1_555 1_555
C8_6 C1_6 1_555 1_555
C9_6 C8_6 1_555 1_555
H7_6 C15_6 1_555 1_555
H8_6 C15_6 1_555 1_555
H9_6 C15_6 1_555 1_555
O9_6 C23_6 1_555 1_555
C16_6 C1_6 1_555 1_555
C17_6 C16_6 1_555 1_555
C18_6 C16_6 1_555 1_555
C19_6 C17_6 1_555 1_555
C20_6 C18_6 1_555 1_555
C22_6 C25_6 1_555 1_555
C23_6 C5_6 1_555 1_555
C25_6 C19_6 1_555 1_555
C20_6 C25_6 1_555 1_555
C1_6 H15_6 1_555 1_555
Tb4 O1_6 1_555 1_555
O1_6 C21_6 1_555 1_555
O3_6 Tb4 1_555 1_555
H3_6 O3_6 1_555 1_555
O4_4 C21_6 1_555 1_555
O6_6 Tb4 1_555 1_555
H4_6 O6_6 1_555 1_555
C24_6 O3_6 1_555 1_555
H10_6 C24_6 1_555 1_555
H11_6 C24_6 1_555 1_555
C26_6 C24_6 1_555 1_555
H12_6 C26_6 1_555 1_555
H13_6 C26_6 1_555 1_555
H14_6 C26_6 1_555 1_555
Tb5 O4_4 1_555 1_555
O10_4 Tb4 1_555 1_555
Tb3 O1_7 1_555 1_555
Cl1_5 C3_7 1_555 1_555
Cl2_7 C9_7 1_555 1_555
Cl4_5 C11_7 1_555 1_555
Cl5_7 C6_7 1_555 1_555
Cl6_5 C14_5 1_555 1_555
Cl7_7 C7_7 1_555 1_555
Cl8_5 C13_5 1_555 1_555
Cl9_7 C18_7 1_555 1_555
Cl10_7 C17_7 1_555 1_555
Cl11_7 C19_7 1_555 1_555
Cl12_7 C20_7 1_555 1_555
O1_7 C21_7 1_555 1_555
O2_5 Tb3 1_555 1_555
H1_5 O2_5 1_555 1_555
H2_5 O2_5 1_555 1_555
O3_7 Tb3 1_555 1_555
H3_7 O3_7 1_555 1_555
O10_3 C21_7 1_555 1_555
O6_7 Tb3 1_555 1_555
H4_7 O6_7 1_555 1_555
O12_4 C22_7 1_555 1_555
O13_2 C22_7 1_555 1_555
C1_7 C2_7 1_555 1_555
C2_7 C3_7 1_555 1_555
C6_7 C7_7 1_555 1_555
C7_7 C2_7 1_555 1_555
C8_7 C1_7 1_555 1_555
C9_7 C8_7 1_555 1_555
C10_5 O6_7 1_555 1_555
H5_5 C10_5 1_555 1_555
H6_5 C10_5 1_555 1_555
C11_7 C9_7 1_555 1_555
C12_5 C11_7 1_555 1_555
C13_5 C12_5 1_555 1_555
C14_5 C8_7 1_555 1_555
C15_7 C10_5 1_555 1_555
H7_7 C15_7 1_555 1_555
H8_7 C15_7 1_555 1_555
H9_7 C15_7 1_555 1_555
C16_7 C1_7 1_555 1_555
C17_7 C16_7 1_555 1_555
C18_7 C16_7 1_555 1_555
C19_7 C17_7 1_555 1_555
C20_7 C18_7 1_555 1_555
C21_7 C12_5 1_555 1_555
C22_7 C25_7 1_555 1_555
C24_7 O3_7 1_555 1_555
H10_7 C24_7 1_555 1_555
H11_7 C24_7 1_555 1_555
C25_7 C19_7 1_555 1_555
C26_7 C24_7 1_555 1_555
H12_7 C26_7 1_555 1_555
H13_7 C26_7 1_555 1_555
H14_7 C26_7 1_555 1_555
C13_5 C14_5 1_555 1_555
C20_7 C25_7 1_555 1_555
C1_7 H15_7 1_555 1_555
Cl3_7 C4_7 1_555 1_555
O11 C23_7 1_555 1_555
C4_7 C5_7 1_555 1_555
O9_7 C23_7 1_555 1_555
C23_7 C5_7 1_555 1_555
Cl3_8 C4_8 1_555 1_555
O11_2 C23_8 1_555 1_555
C4_8 C5_8 1_555 1_555
O9_8 C23_8 1_555 1_555
C23_8 C5_8 1_555 1_555
Cl1_6 C3_8 1_555 1_555
Cl2_8 C9_8 1_555 1_555
Cl5_8 C6_8 1_555 1_555
Cl6_6 C14_6 1_555 1_555
Cl7_8 C7_8 1_555 1_555
Cl8_6 C13_6 1_555 1_555
Cl9_8 C18_8 1_555 1_555
Cl10_8 C17_8 1_555 1_555
Cl11_8 C19_8 1_555 1_555
Cl12_8 C20_8 1_555 1_555
O12_3 C22_8 1_555 1_555
O13 C22_8 1_555 1_555
C1_8 C2_8 1_555 1_555
C2_8 C3_8 1_555 1_555
C6_8 C7_8 1_555 1_555
C7_8 C2_8 1_555 1_555
C8_8 C1_8 1_555 1_555
C9_8 C8_8 1_555 1_555
H5_6 C10_6 1_555 1_555
H6_6 C10_6 1_555 1_555
C13_6 C12_6 1_555 1_555
C14_6 C8_8 1_555 1_555
C15_8 C10_6 1_555 1_555
H7_8 C15_8 1_555 1_555
H8_8 C15_8 1_555 1_555
H9_8 C15_8 1_555 1_555
C16_8 C1_8 1_555 1_555
C17_8 C16_8 1_555 1_555
C18_8 C16_8 1_555 1_555
C19_8 C17_8 1_555 1_555
C20_8 C18_8 1_555 1_555
C22_8 C25_8 1_555 1_555
C25_8 C19_8 1_555 1_555
C13_6 C14_6 1_555 1_555
C20_8 C25_8 1_555 1_555
C1_8 H15_8 1_555 1_555
Tb5 O1_8 1_555 1_555
Cl4_6 C11_8 1_555 1_555
O1_8 C21_8 1_555 1_555
O2_6 Tb5 1_555 1_555
H1_6 O2_6 1_555 1_555
H2_6 O2_6 1_555 1_555
O3_8 Tb5 1_555 1_555
H3_8 O3_8 1_555 1_555
O10_4 C21_8 1_555 1_555
O6_8 Tb5 1_555 1_555
H4_8 O6_8 1_555 1_555
C24_8 O3_8 1_555 1_555
H10_8 C24_8 1_555 1_555
H11_8 C24_8 1_555 1_555
C26_8 C24_8 1_555 1_555
H12_8 C26_8 1_555 1_555
H13_8 C26_8 1_555 1_555
H14_8 C26_8 1_555 1_555
H1_7 O2_7 1_555 1_555
H2_7 O2_7 1_555 1_555
Cl6_7 C14_7 1_555 1_555
Cl8_7 C13_7 1_555 1_555
H5_7 C10_7 1_555 1_555
H6_7 C10_7 1_555 1_555
C13_7 C12_7 1_555 1_555
C13_7 C14_7 1_555 1_555
Cl6_8 C14_8 1_555 1_555
Cl8_8 C13_8 1_555 1_555
H5_8 C10_8 1_555 1_555
H6_8 C10_8 1_555 1_555
C13_8 C12_8 1_555 1_555
C13_8 C14_8 1_555 1_555
H1_8 O2_8 1_555 1_555
H2_8 O2_8 1_555 1_555

#END
