
###############################################################################
#
# This file contains modified crystal structure data generated from the
# MOF subset of the Cambridge Structural Database (CSD) v543 
# hosted by the Cambridge Crystallographic Data Centre (CCDC).
#
# This work is licensed under the Creative Commons
# Attribution-NonCommercial-ShareAlike 4.0 International License.
# To view a copy of this license, visit
# http://creativecommons.org/licenses/by-nc-sa/4.0/
# or send a letter to
# Creative Commons, PO Box 1866, Mountain View, CA 94042, USA.
#
# CIF created using the CSD Python API on 29 September 2022
# The structure has been converted into the P1 space group
# The structure has a 3D framework
# The original CSD entry TASWER is in the orthorhombic crystal system
# The framework has been calculated to contain at least 10.0% void space
# The void calculation uses a probe of radius 1.32A, grid spacing 0.4
# H atom positions have been added when not included in the experimental data
#
###############################################################################

data_TASWER
_chemical_formula_moiety         '(C208 H104 Cl96 Gd8 O72)n'
_symmetry_cell_setting           triclinic
_symmetry_space_group_name_H-M   'P 1'
_symmetry_Int_Tables_number      1
_space_group_name_Hall           'P 1'
loop_
_symmetry_equiv_pos_site_id
_symmetry_equiv_pos_as_xyz
1 x,y,z
_cell_length_a                   25.3610(4)
_cell_length_b                   26.6184(5)
_cell_length_c                   14.5318(3)
_cell_angle_alpha                90
_cell_angle_beta                 90
_cell_angle_gamma                90
_cell_volume                     9809.97
loop_
_atom_site_label
_atom_site_type_symbol
_atom_site_fract_x
_atom_site_fract_y
_atom_site_fract_z
Gd1 Gd 0.397775(11) 0.815340(11) 0.14684(2)
Cl1 Cl 0.57644(8) 0.68503(9) 0.22612(16)
Cl2 Cl 0.65531(7) 0.63395(8) 0.09695(16)
Cl6 Cl 0.57769(8) 0.52128(7) 0.00158(15)
O1 O 0.45178(17) 0.74559(17) 0.1367(3)
O2 O 0.45282(18) 0.67671(17) 0.2234(4)
O7 O 0.4782(2) 0.8471(2) 0.0776(4)
O8 O 0.3187(2) 0.85741(19) 0.0854(4)
C1 C 0.4662(2) 0.7021(3) 0.1565(5)
C4 C 0.5053(2) 0.6785(2) 0.0908(5)
C5 C 0.5574(3) 0.6691(2) 0.1173(5)
C6 C 0.5924(2) 0.6471(2) 0.0561(5)
C9 C 0.4906(2) 0.6642(2) 0.0037(5)
C23 C 0.5219(5) 0.8217(5) 0.0309(11)
C24 C 0.5655(8) 0.8428(10) 0.0174(17)
C25 C 0.2857(4) 0.8956(4) 0.1231(10)
C26 C 0.2626(8) 0.9270(6) 0.0528(18)
Gd2 Gd 0.397775(11) 0.684660(11) 0.35316(2)
O10 O 0.45282(18) 0.82329(17) 0.2766(4)
O11 O 0.40236(17) 0.90359(16) 0.1769(4)
O12 O 0.34124(17) 0.80476(18) 0.2718(4)
O13 O 0.33716(16) 0.74719(17) 0.1057(3)
H3 H 0.238741 0.903999 0.00689704
H4 H 0.237846 0.955462 0.0849173
H5 H 0.293793 0.945218 0.0135723
H6 H 0.582789 0.853404 0.0831894
H9 H 0.309197 0.919049 0.16881
H10 H 0.254145 0.877831 0.162135
H13 H 0.530287 0.788074 0.0709987
Cl3 Cl 0.50447(8) 0.62798(9) 0.83274(16)
Cl4 Cl 0.42558(7) 0.67298(8) 0.97068(15)
Cl5 Cl 0.54282(8) 0.43303(7) 0.87966(17)
Cl7 Cl 0.63603(9) 0.62256(7) 0.69455(17)
Cl8 Cl 0.61286(12) 0.52691(9) 0.57972(17)
Cl9 Cl 0.71593(8) 0.54972(6) 0.9187(2)
Cl10 Cl 0.82270(7) 0.60138(7) 0.88873(17)
Cl11 Cl 0.72411(7) 0.77920(6) 0.85672(14)
Cl12 Cl 0.61697(7) 0.72787(7) 0.87215(16)
O3 O 0.5219(3) 0.4409(2) 0.6386(5)
O4 O 0.59764(17) 0.40359(16) 0.6769(4)
O5 O 0.84124(17) 0.69524(18) 0.7718(4)
O6 O 0.83716(16) 0.74719(17) 0.8943(3)
O9 O 0.3945(2) 0.8057(3) 0.9797(4)
C2 C 0.5649(3) 0.4391(3) 0.6771(6)
C3 C 0.8210(3) 0.7122(3) 0.8445(5)
C7 C 0.5784(2) 0.6343(2) 0.9666(5)
C8 C 0.5258(3) 0.6427(2) 0.9415(5)
C10 C 0.6182(3) 0.6144(3) 0.9012(6)
C11 C 0.5797(3) 0.4845(2) 0.7367(6)
C12 C 0.5713(3) 0.4849(2) 0.8306(6)
C13 C 0.5850(2) 0.5259(2) 0.8856(5)
C14 C 0.6063(2) 0.5696(2) 0.8447(5)
C15 C 0.6144(3) 0.5688(2) 0.7503(6)
C16 C 0.6020(3) 0.5271(3) 0.6971(5)
C17 C 0.6691(2) 0.6398(2) 0.8922(5)
C18 C 0.7173(2) 0.6128(2) 0.8951(6)
C19 C 0.7652(2) 0.6358(2) 0.8834(5)
C20 C 0.7688(3) 0.6874(2) 0.8693(5)
C21 C 0.7223(2) 0.7145(2) 0.8722(5)
C22 C 0.6734(2) 0.6918(2) 0.8820(5)
Gd3 Gd 0.602225(11) 0.315340(11) 0.64684(2)
Gd4 Gd 0.897775(11) 0.684660(11) 0.64684(2)
Gd5 Gd 0.897775(11) 0.815340(11) 0.85316(2)
H1 H 0.37965 0.772243 0.964143
H2 H 0.371845 0.832398 0.952968
H7 H 0.591872 0.817028 0.981776
H8 H 0.559654 0.876269 0.975526
H11 H 0.634309 0.590456 0.955069
H12 H 0.507152 0.810939 0.963336
Gd1_2 Gd 0.102225(11) 0.184660(11) 0.14684(2)
O1_2 O 0.04822(17) 0.25441(17) 0.1367(3)
O2_2 O 0.04718(18) 0.32329(17) 0.2234(4)
O7_2 O 0.0218(2) 0.1529(2) 0.0776(4)
O8_2 O 0.1813(2) 0.14259(19) 0.0854(4)
C1_2 C 0.0338(2) 0.2979(3) 0.1565(5)
C9_2 C 0.0094(2) 0.3358(2) 0.0037(5)
C25_2 C 0.2143(4) 0.1044(4) 0.1231(10)
C26_2 C 0.2374(8) 0.0730(6) 0.0528(18)
Gd2_2 Gd 0.102225(11) 0.315340(11) 0.35316(2)
O10_2 O 0.04718(18) 0.17671(17) 0.2766(4)
O11_2 O 0.09764(17) 0.09641(16) 0.1769(4)
O12_2 O 0.15876(17) 0.19524(18) 0.2718(4)
O13_2 O 0.16284(16) 0.25281(17) 0.1057(3)
H3_2 H 0.261259 0.0960007 0.00689704
H4_2 H 0.262154 0.0445381 0.0849173
H5_2 H 0.206207 0.0547825 0.0135723
H9_2 H 0.190803 0.0809509 0.16881
H10_2 H 0.245855 0.122169 0.162135
Cl3_2 Cl 0.99553(8) 0.37202(9) 0.83274(16)
Cl5_2 Cl 0.95718(8) 0.56697(7) 0.87966(17)
Cl7_2 Cl 0.86397(9) 0.37744(7) 0.69455(17)
Cl8_2 Cl 0.88714(12) 0.47309(9) 0.57972(17)
Cl9_2 Cl 0.78407(8) 0.45028(6) 0.9187(2)
Cl10_2 Cl 0.67730(7) 0.39862(7) 0.88873(17)
Cl11_2 Cl 0.77589(7) 0.22080(6) 0.85672(14)
Cl12_2 Cl 0.88303(7) 0.27213(7) 0.87215(16)
O3_2 O 0.9781(3) 0.5591(2) 0.6386(5)
O4_2 O 0.90236(17) 0.59641(16) 0.6769(4)
O5_2 O 0.65876(17) 0.30476(18) 0.7718(4)
O6_2 O 0.66284(16) 0.25281(17) 0.8943(3)
C2_2 C 0.9351(3) 0.5609(3) 0.6771(6)
C3_2 C 0.6790(3) 0.2878(3) 0.8445(5)
C7_2 C 0.9216(2) 0.3657(2) 0.9666(5)
C8_2 C 0.9742(3) 0.3573(2) 0.9415(5)
C10_2 C 0.8818(3) 0.3856(3) 0.9012(6)
C11_2 C 0.9203(3) 0.5155(2) 0.7367(6)
C12_2 C 0.9287(3) 0.5151(2) 0.8306(6)
C13_2 C 0.9150(2) 0.4741(2) 0.8856(5)
C14_2 C 0.8937(2) 0.4304(2) 0.8447(5)
C15_2 C 0.8856(3) 0.4312(2) 0.7503(6)
C16_2 C 0.8980(3) 0.4729(3) 0.6971(5)
C17_2 C 0.8309(2) 0.3602(2) 0.8922(5)
C18_2 C 0.7827(2) 0.3872(2) 0.8951(6)
C19_2 C 0.7348(2) 0.3642(2) 0.8834(5)
C20_2 C 0.7312(3) 0.3126(2) 0.8693(5)
C21_2 C 0.7777(2) 0.2855(2) 0.8722(5)
C22_2 C 0.8266(2) 0.3082(2) 0.8820(5)
Gd5_2 Gd 0.602225(11) 0.184660(11) 0.85316(2)
H7_2 H 0.908128 0.182972 0.981776
H8_2 H 0.940346 0.123731 0.975526
H11_2 H 0.865691 0.409544 0.955069
H12_2 H 0.992848 0.189061 0.963336
Cl4_2 Cl 0.07442(7) 0.17298(8) 0.52932(15)
O1_3 O 0.04822(17) 0.24559(17) 0.3633(3)
O7_3 O 0.0218(2) 0.3471(2) 0.4224(4)
O8_3 O 0.1813(2) 0.35741(19) 0.4146(4)
O9_2 O 0.1055(2) 0.3057(3) 0.5203(4)
C1_3 C 0.0338(2) 0.2021(3) 0.3435(5)
C9_3 C 0.0094(2) 0.1642(2) 0.4963(5)
C25_3 C 0.2143(4) 0.3956(4) 0.3769(10)
C26_3 C 0.2374(8) 0.4270(6) 0.4472(18)
O11_3 O 0.09764(17) 0.40359(16) 0.3231(4)
O12_3 O 0.15876(17) 0.30476(18) 0.2282(4)
O13_3 O 0.16284(16) 0.24719(17) 0.3943(3)
H1_2 H 0.12035 0.272243 0.535857
H2_2 H 0.128155 0.332398 0.547032
H3_3 H 0.261259 0.403999 0.493103
H4_3 H 0.262154 0.455462 0.415083
H5_3 H 0.206207 0.445218 0.486428
H9_3 H 0.190803 0.419049 0.33119
H10_3 H 0.245855 0.377831 0.337865
Cl1_2 Cl 0.92356(8) 0.18503(9) 0.27388(16)
Cl2_2 Cl 0.84469(7) 0.13395(8) 0.40305(16)
Cl3_3 Cl 0.99553(8) 0.12798(9) 0.66726(16)
Cl6_2 Cl 0.92231(8) 0.02128(7) 0.49842(15)
Cl7_3 Cl 0.86397(9) 0.12256(7) 0.80545(17)
Cl8_3 Cl 0.88714(12) 0.02691(9) 0.92028(17)
Cl9_3 Cl 0.78407(8) 0.04972(6) 0.5813(2)
Cl10_3 Cl 0.67730(7) 0.10138(7) 0.61127(17)
Cl11_3 Cl 0.77589(7) 0.27920(6) 0.64328(14)
Cl12_3 Cl 0.88303(7) 0.22787(7) 0.62785(16)
O5_3 O 0.65876(17) 0.19524(18) 0.7282(4)
O6_3 O 0.66284(16) 0.24719(17) 0.6057(3)
C3_3 C 0.6790(3) 0.2122(3) 0.6555(5)
C4_2 C 0.9947(2) 0.1785(2) 0.4092(5)
C5_2 C 0.9426(3) 0.1691(2) 0.3827(5)
C6_2 C 0.9076(2) 0.1471(2) 0.4439(5)
C7_3 C 0.9216(2) 0.1343(2) 0.5334(5)
C8_3 C 0.9742(3) 0.1427(2) 0.5585(5)
C10_3 C 0.8818(3) 0.1144(3) 0.5988(6)
C13_3 C 0.9150(2) 0.0259(2) 0.6144(5)
C14_3 C 0.8937(2) 0.0696(2) 0.6553(5)
C15_3 C 0.8856(3) 0.0688(2) 0.7497(6)
C16_3 C 0.8980(3) 0.0271(3) 0.8029(5)
C17_3 C 0.8309(2) 0.1398(2) 0.6078(5)
C18_3 C 0.7827(2) 0.1128(2) 0.6049(6)
C19_3 C 0.7348(2) 0.1358(2) 0.6166(5)
C20_3 C 0.7312(3) 0.1874(2) 0.6307(5)
C21_3 C 0.7777(2) 0.2145(2) 0.6278(5)
C22_3 C 0.8266(2) 0.1918(2) 0.6180(5)
C23_2 C 0.9781(5) 0.3217(5) 0.4691(11)
C24_2 C 0.9345(8) 0.3428(10) 0.4826(17)
H6_2 H 0.917211 0.353404 0.416811
H7_3 H 0.908128 0.317028 0.518224
H8_3 H 0.940346 0.376269 0.524474
H11_3 H 0.865691 0.0904561 0.544931
H12_3 H 0.992848 0.310939 0.536664
H13_2 H 0.969713 0.288074 0.429001
Cl5_3 Cl 0.95718(8) 0.93303(7) 0.62034(17)
O3_3 O 0.9781(3) 0.9409(2) 0.8614(5)
O4_3 O 0.90236(17) 0.90359(16) 0.8231(4)
C2_3 C 0.9351(3) 0.9391(3) 0.8229(6)
C11_3 C 0.9203(3) 0.9845(2) 0.7633(6)
C12_3 C 0.9287(3) 0.9849(2) 0.6694(6)
Cl5_4 Cl 0.54282(8) 0.06697(7) 0.62034(17)
O3_4 O 0.5219(3) 0.0591(2) 0.8614(5)
O4_4 O 0.59764(17) 0.09641(16) 0.8231(4)
C2_4 C 0.5649(3) 0.0609(3) 0.8229(6)
C11_4 C 0.5797(3) 0.0155(2) 0.7633(6)
C12_4 C 0.5713(3) 0.0151(2) 0.6694(6)
Cl1_3 Cl 0.57644(8) 0.81497(9) 0.27388(16)
Cl2_3 Cl 0.65531(7) 0.86605(8) 0.40305(16)
Cl3_4 Cl 0.50447(8) 0.87202(9) 0.66726(16)
Cl4_3 Cl 0.42558(7) 0.82702(8) 0.52932(15)
Cl6_3 Cl 0.57769(8) 0.97872(7) 0.49842(15)
Cl7_4 Cl 0.63603(9) 0.87744(7) 0.80545(17)
Cl8_4 Cl 0.61286(12) 0.97309(9) 0.92028(17)
Cl9_4 Cl 0.71593(8) 0.95028(6) 0.5813(2)
Cl10_4 Cl 0.82270(7) 0.89862(7) 0.61127(17)
Cl11_4 Cl 0.72411(7) 0.72080(6) 0.64328(14)
Cl12_4 Cl 0.61697(7) 0.77213(7) 0.62785(16)
O1_4 O 0.45178(17) 0.75441(17) 0.3633(3)
O5_4 O 0.84124(17) 0.80476(18) 0.7282(4)
O6_4 O 0.83716(16) 0.75281(17) 0.6057(3)
O7_4 O 0.4782(2) 0.6529(2) 0.4224(4)
O8_4 O 0.3187(2) 0.64259(19) 0.4146(4)
O9_3 O 0.3945(2) 0.6943(3) 0.5203(4)
C1_4 C 0.4662(2) 0.7979(3) 0.3435(5)
C3_4 C 0.8210(3) 0.7878(3) 0.6555(5)
C4_3 C 0.5053(2) 0.8215(2) 0.4092(5)
C5_3 C 0.5574(3) 0.8309(2) 0.3827(5)
C6_3 C 0.5924(2) 0.8529(2) 0.4439(5)
C7_4 C 0.5784(2) 0.8657(2) 0.5334(5)
C8_4 C 0.5258(3) 0.8573(2) 0.5585(5)
C9_4 C 0.4906(2) 0.8358(2) 0.4963(5)
C10_4 C 0.6182(3) 0.8856(3) 0.5988(6)
C13_4 C 0.5850(2) 0.9741(2) 0.6144(5)
C14_4 C 0.6063(2) 0.9304(2) 0.6553(5)
C15_4 C 0.6144(3) 0.9312(2) 0.7497(6)
C16_4 C 0.6020(3) 0.9729(3) 0.8029(5)
C17_4 C 0.6691(2) 0.8602(2) 0.6078(5)
C18_4 C 0.7173(2) 0.8872(2) 0.6049(6)
C19_4 C 0.7652(2) 0.8642(2) 0.6166(5)
C20_4 C 0.7688(3) 0.8126(2) 0.6307(5)
C21_4 C 0.7223(2) 0.7855(2) 0.6278(5)
C22_4 C 0.6734(2) 0.8082(2) 0.6180(5)
C23_3 C 0.5219(5) 0.6783(5) 0.4691(11)
C24_3 C 0.5655(8) 0.6572(10) 0.4826(17)
C25_4 C 0.2857(4) 0.6044(4) 0.3769(10)
C26_4 C 0.2626(8) 0.5730(6) 0.4472(18)
O11_4 O 0.40236(17) 0.59641(16) 0.3231(4)
O12_4 O 0.34124(17) 0.69524(18) 0.2282(4)
O13_4 O 0.33716(16) 0.75281(17) 0.3943(3)
H1_3 H 0.37965 0.727757 0.535857
H2_3 H 0.371845 0.667602 0.547032
H3_4 H 0.238741 0.596001 0.493103
H4_4 H 0.237846 0.544538 0.415083
H5_4 H 0.293793 0.554782 0.486428
H6_3 H 0.582789 0.646596 0.416811
H7_4 H 0.591872 0.682972 0.518224
H8_4 H 0.559654 0.623731 0.524474
H9_4 H 0.309197 0.580951 0.33119
H10_4 H 0.254145 0.622169 0.337865
H11_4 H 0.634309 0.909544 0.544931
H12_4 H 0.507152 0.689061 0.536664
H13_3 H 0.530287 0.711926 0.429001
Cl3_5 Cl 0.49553(8) 0.37202(9) 0.16726(16)
Cl4_4 Cl 0.57442(7) 0.32702(8) 0.02932(15)
Cl5_5 Cl 0.45718(8) 0.56697(7) 0.12034(17)
Cl7_5 Cl 0.36397(9) 0.37744(7) 0.30545(17)
Cl8_5 Cl 0.38714(12) 0.47309(9) 0.42028(17)
Cl9_5 Cl 0.28407(8) 0.45028(6) 0.0813(2)
Cl10_5 Cl 0.17730(7) 0.39862(7) 0.11127(17)
Cl11_5 Cl 0.27589(7) 0.22080(6) 0.14328(14)
Cl12_5 Cl 0.38303(7) 0.27213(7) 0.12785(16)
O3_5 O 0.4781(3) 0.5591(2) 0.3614(5)
O9_4 O 0.6055(2) 0.1943(3) 0.0203(4)
C2_5 C 0.4351(3) 0.5609(3) 0.3229(6)
C3_5 C 0.1790(3) 0.2878(3) 0.1555(5)
C7_5 C 0.4216(2) 0.3657(2) 0.0334(5)
C8_5 C 0.4742(3) 0.3573(2) 0.0585(5)
C10_5 C 0.3818(3) 0.3856(3) 0.0988(6)
C11_5 C 0.4203(3) 0.5155(2) 0.2633(6)
C12_5 C 0.4287(3) 0.5151(2) 0.1694(6)
C13_5 C 0.4150(2) 0.4741(2) 0.1144(5)
C14_5 C 0.3937(2) 0.4304(2) 0.1553(5)
C15_5 C 0.3856(3) 0.4312(2) 0.2497(6)
C16_5 C 0.3980(3) 0.4729(3) 0.3029(5)
C17_5 C 0.3309(2) 0.3602(2) 0.1078(5)
C18_5 C 0.2827(2) 0.3872(2) 0.1049(6)
C19_5 C 0.2348(2) 0.3642(2) 0.1166(5)
C20_5 C 0.2312(3) 0.3126(2) 0.1307(5)
C21_5 C 0.2777(2) 0.2855(2) 0.1278(5)
C22_5 C 0.3266(2) 0.3082(2) 0.1180(5)
H1_4 H 0.62035 0.227757 0.0358569
H2_4 H 0.628155 0.167602 0.0470321
H7_5 H 0.408128 0.182972 0.0182242
H8_5 H 0.440346 0.123731 0.0244737
H11_5 H 0.365691 0.409544 0.0449308
H12_5 H 0.492848 0.189061 0.0366644
Cl1_4 Cl 0.42356(8) 0.31497(9) 0.77388(16)
Cl2_4 Cl 0.34469(7) 0.36605(8) 0.90305(16)
Cl6_4 Cl 0.42231(8) 0.47872(7) 0.99842(15)
O1_5 O 0.54822(17) 0.25441(17) 0.8633(3)
O2_3 O 0.54718(18) 0.32329(17) 0.7766(4)
O7_5 O 0.5218(2) 0.1529(2) 0.9224(4)
O8_5 O 0.6813(2) 0.14259(19) 0.9146(4)
C1_5 C 0.5338(2) 0.2979(3) 0.8435(5)
C4_4 C 0.4947(2) 0.3215(2) 0.9092(5)
C5_4 C 0.4426(3) 0.3309(2) 0.8827(5)
C6_4 C 0.4076(2) 0.3529(2) 0.9439(5)
C9_5 C 0.5094(2) 0.3358(2) 0.9963(5)
C23_4 C 0.4781(5) 0.1783(5) 0.9691(11)
C24_4 C 0.4345(8) 0.1572(10) 0.9826(17)
C25_5 C 0.7143(4) 0.1044(4) 0.8769(10)
C26_5 C 0.7374(8) 0.0730(6) 0.9472(18)
O10_3 O 0.54718(18) 0.17671(17) 0.7234(4)
H3_5 H 0.761259 0.0960007 0.993103
H4_5 H 0.762154 0.0445381 0.915083
H5_5 H 0.706207 0.0547825 0.986428
H6_4 H 0.417211 0.146596 0.916811
H9_5 H 0.690803 0.0809509 0.83119
H10_5 H 0.745855 0.122169 0.837865
H13_4 H 0.469713 0.211926 0.929001
Cl3_6 Cl 0.00447(8) 0.62798(9) 0.16726(16)
Cl5_6 Cl 0.04282(8) 0.43303(7) 0.12034(17)
Cl7_6 Cl 0.13603(9) 0.62256(7) 0.30545(17)
Cl8_6 Cl 0.11286(12) 0.52691(9) 0.42028(17)
Cl9_6 Cl 0.21593(8) 0.54972(6) 0.0813(2)
Cl10_6 Cl 0.32270(7) 0.60138(7) 0.11127(17)
Cl11_6 Cl 0.22411(7) 0.77920(6) 0.14328(14)
Cl12_6 Cl 0.11697(7) 0.72787(7) 0.12785(16)
O3_6 O 0.0219(3) 0.4409(2) 0.3614(5)
C2_6 C 0.0649(3) 0.4391(3) 0.3229(6)
C3_6 C 0.3210(3) 0.7122(3) 0.1555(5)
C7_6 C 0.0784(2) 0.6343(2) 0.0334(5)
C8_6 C 0.0258(3) 0.6427(2) 0.0585(5)
C10_6 C 0.1182(3) 0.6144(3) 0.0988(6)
C11_6 C 0.0797(3) 0.4845(2) 0.2633(6)
C12_6 C 0.0713(3) 0.4849(2) 0.1694(6)
C13_6 C 0.0850(2) 0.5259(2) 0.1144(5)
C14_6 C 0.1063(2) 0.5696(2) 0.1553(5)
C15_6 C 0.1144(3) 0.5688(2) 0.2497(6)
C16_6 C 0.1020(3) 0.5271(3) 0.3029(5)
C17_6 C 0.1691(2) 0.6398(2) 0.1078(5)
C18_6 C 0.2173(2) 0.6128(2) 0.1049(6)
C19_6 C 0.2652(2) 0.6358(2) 0.1166(5)
C20_6 C 0.2688(3) 0.6874(2) 0.1307(5)
C21_6 C 0.2223(2) 0.7145(2) 0.1278(5)
C22_6 C 0.1734(2) 0.6918(2) 0.1180(5)
H7_6 H 0.0918717 0.817028 0.0182242
H8_6 H 0.0596538 0.876269 0.0244737
H11_6 H 0.134309 0.590456 0.0449308
H12_6 H 0.00715249 0.810939 0.0366644
O1_6 O 0.95178(17) 0.74559(17) 0.8633(3)
O2_4 O 0.95282(18) 0.67671(17) 0.7766(4)
O7_6 O 0.9782(2) 0.8471(2) 0.9224(4)
O8_6 O 0.8187(2) 0.85741(19) 0.9146(4)
C1_6 C 0.9662(2) 0.7021(3) 0.8435(5)
C9_6 C 0.9906(2) 0.6642(2) 0.9963(5)
C25_6 C 0.7857(4) 0.8956(4) 0.8769(10)
C26_6 C 0.7626(8) 0.9270(6) 0.9472(18)
O10_4 O 0.95282(18) 0.82329(17) 0.7234(4)
H3_6 H 0.738741 0.903999 0.993103
H4_6 H 0.737846 0.955462 0.915083
H5_6 H 0.793793 0.945218 0.986428
H9_6 H 0.809197 0.919049 0.83119
H10_6 H 0.754145 0.877831 0.837865
Cl5_7 Cl 0.04282(8) 0.06697(7) 0.37966(17)
O3_7 O 0.0219(3) 0.0591(2) 0.1386(5)
C2_7 C 0.0649(3) 0.0609(3) 0.1771(6)
C11_7 C 0.0797(3) 0.0155(2) 0.2367(6)
C12_7 C 0.0713(3) 0.0151(2) 0.3306(6)
Cl1_5 Cl 0.07644(8) 0.81497(9) 0.72612(16)
Cl2_5 Cl 0.15531(7) 0.86605(8) 0.59695(16)
Cl3_7 Cl 0.00447(8) 0.87202(9) 0.33274(16)
Cl6_5 Cl 0.07769(8) 0.97872(7) 0.50158(15)
Cl7_7 Cl 0.13603(9) 0.87744(7) 0.19455(17)
Cl8_7 Cl 0.11286(12) 0.97309(9) 0.07972(17)
Cl9_7 Cl 0.21593(8) 0.95028(6) 0.4187(2)
Cl10_7 Cl 0.32270(7) 0.89862(7) 0.38873(17)
Cl11_7 Cl 0.22411(7) 0.72080(6) 0.35672(14)
Cl12_7 Cl 0.11697(7) 0.77213(7) 0.37215(16)
C3_7 C 0.3210(3) 0.7878(3) 0.3445(5)
C4_5 C 0.0053(2) 0.8215(2) 0.5908(5)
C5_5 C 0.0574(3) 0.8309(2) 0.6173(5)
C6_5 C 0.0924(2) 0.8529(2) 0.5561(5)
C7_7 C 0.0784(2) 0.8657(2) 0.4666(5)
C8_7 C 0.0258(3) 0.8573(2) 0.4415(5)
C10_7 C 0.1182(3) 0.8856(3) 0.4012(6)
C13_7 C 0.0850(2) 0.9741(2) 0.3856(5)
C14_7 C 0.1063(2) 0.9304(2) 0.3447(5)
C15_7 C 0.1144(3) 0.9312(2) 0.2503(6)
C16_7 C 0.1020(3) 0.9729(3) 0.1971(5)
C17_7 C 0.1691(2) 0.8602(2) 0.3922(5)
C18_7 C 0.2173(2) 0.8872(2) 0.3951(6)
C19_7 C 0.2652(2) 0.8642(2) 0.3834(5)
C20_7 C 0.2688(3) 0.8126(2) 0.3693(5)
C21_7 C 0.2223(2) 0.7855(2) 0.3722(5)
C22_7 C 0.1734(2) 0.8082(2) 0.3820(5)
C23_5 C 0.0219(5) 0.6783(5) 0.5309(11)
C24_5 C 0.0655(8) 0.6572(10) 0.5174(17)
H6_5 H 0.0827887 0.646596 0.583189
H7_7 H 0.0918717 0.682972 0.481776
H8_7 H 0.0596538 0.623731 0.475526
H11_7 H 0.134309 0.909544 0.455069
H12_7 H 0.00715249 0.689061 0.463336
H13_5 H 0.0302874 0.711926 0.570999
Cl4_5 Cl 0.92558(7) 0.82702(8) 0.47068(15)
O1_7 O 0.95178(17) 0.75441(17) 0.6367(3)
O7_7 O 0.9782(2) 0.6529(2) 0.5776(4)
O8_7 O 0.8187(2) 0.64259(19) 0.5854(4)
O9_5 O 0.8945(2) 0.6943(3) 0.4797(4)
C1_7 C 0.9662(2) 0.7979(3) 0.6565(5)
C9_7 C 0.9906(2) 0.8358(2) 0.5037(5)
C25_7 C 0.7857(4) 0.6044(4) 0.6231(10)
C26_7 C 0.7626(8) 0.5730(6) 0.5528(18)
H1_5 H 0.87965 0.727757 0.464143
H2_5 H 0.871845 0.667602 0.452968
H3_7 H 0.738741 0.596001 0.506897
H4_7 H 0.737846 0.544538 0.584917
H5_7 H 0.793793 0.554782 0.513572
H9_7 H 0.809197 0.580951 0.66881
H10_7 H 0.754145 0.622169 0.662135
Cl1_6 Cl 0.42356(8) 0.18503(9) 0.72612(16)
Cl2_6 Cl 0.34469(7) 0.13395(8) 0.59695(16)
Cl3_8 Cl 0.49553(8) 0.12798(9) 0.33274(16)
Cl4_6 Cl 0.57442(7) 0.17298(8) 0.47068(15)
Cl6_6 Cl 0.42231(8) 0.02128(7) 0.50158(15)
Cl7_8 Cl 0.36397(9) 0.12256(7) 0.19455(17)
Cl8_8 Cl 0.38714(12) 0.02691(9) 0.07972(17)
Cl9_8 Cl 0.28407(8) 0.04972(6) 0.4187(2)
Cl10_8 Cl 0.17730(7) 0.10138(7) 0.38873(17)
Cl11_8 Cl 0.27589(7) 0.27920(6) 0.35672(14)
Cl12_8 Cl 0.38303(7) 0.22787(7) 0.37215(16)
O1_8 O 0.54822(17) 0.24559(17) 0.6367(3)
O7_8 O 0.5218(2) 0.3471(2) 0.5776(4)
O8_8 O 0.6813(2) 0.35741(19) 0.5854(4)
O9_6 O 0.6055(2) 0.3057(3) 0.4797(4)
C1_8 C 0.5338(2) 0.2021(3) 0.6565(5)
C3_8 C 0.1790(3) 0.2122(3) 0.3445(5)
C4_6 C 0.4947(2) 0.1785(2) 0.5908(5)
C5_6 C 0.4426(3) 0.1691(2) 0.6173(5)
C6_6 C 0.4076(2) 0.1471(2) 0.5561(5)
C7_8 C 0.4216(2) 0.1343(2) 0.4666(5)
C8_8 C 0.4742(3) 0.1427(2) 0.4415(5)
C9_8 C 0.5094(2) 0.1642(2) 0.5037(5)
C10_8 C 0.3818(3) 0.1144(3) 0.4012(6)
C13_8 C 0.4150(2) 0.0259(2) 0.3856(5)
C14_8 C 0.3937(2) 0.0696(2) 0.3447(5)
C15_8 C 0.3856(3) 0.0688(2) 0.2503(6)
C16_8 C 0.3980(3) 0.0271(3) 0.1971(5)
C17_8 C 0.3309(2) 0.1398(2) 0.3922(5)
C18_8 C 0.2827(2) 0.1128(2) 0.3951(6)
C19_8 C 0.2348(2) 0.1358(2) 0.3834(5)
C20_8 C 0.2312(3) 0.1874(2) 0.3693(5)
C21_8 C 0.2777(2) 0.2145(2) 0.3722(5)
C22_8 C 0.3266(2) 0.1918(2) 0.3820(5)
C23_6 C 0.4781(5) 0.3217(5) 0.5309(11)
C24_6 C 0.4345(8) 0.3428(10) 0.5174(17)
C25_8 C 0.7143(4) 0.3956(4) 0.6231(10)
C26_8 C 0.7374(8) 0.4270(6) 0.5528(18)
H1_6 H 0.62035 0.272243 0.464143
H2_6 H 0.628155 0.332398 0.452968
H3_8 H 0.761259 0.403999 0.506897
H4_8 H 0.762154 0.455462 0.584917
H5_8 H 0.706207 0.445218 0.513572
H6_6 H 0.417211 0.353404 0.583189
H7_8 H 0.408128 0.317028 0.481776
H8_8 H 0.440346 0.376269 0.475526
H9_8 H 0.690803 0.419049 0.66881
H10_8 H 0.745855 0.377831 0.662135
H11_8 H 0.365691 0.0904561 0.455069
H12_8 H 0.492848 0.310939 0.463336
H13_6 H 0.469713 0.288074 0.570999
Cl5_8 Cl 0.45718(8) 0.93303(7) 0.37966(17)
O3_8 O 0.4781(3) 0.9409(2) 0.1386(5)
C2_8 C 0.4351(3) 0.9391(3) 0.1771(6)
C11_8 C 0.4203(3) 0.9845(2) 0.2367(6)
C12_8 C 0.4287(3) 0.9849(2) 0.3306(6)
Cl4_7 Cl 0.07442(7) 0.32702(8) 0.97068(15)
O9_7 O 0.1055(2) 0.1943(3) 0.9797(4)
H1_7 H 0.12035 0.227757 0.964143
H2_7 H 0.128155 0.167602 0.952968
Cl1_7 Cl 0.92356(8) 0.31497(9) 0.22612(16)
Cl2_7 Cl 0.84469(7) 0.36605(8) 0.09695(16)
Cl6_7 Cl 0.92231(8) 0.47872(7) 0.00158(15)
C4_7 C 0.9947(2) 0.3215(2) 0.0908(5)
C5_7 C 0.9426(3) 0.3309(2) 0.1173(5)
C6_7 C 0.9076(2) 0.3529(2) 0.0561(5)
C23_7 C 0.9781(5) 0.1783(5) 0.0309(11)
C24_7 C 0.9345(8) 0.1572(10) 0.0174(17)
H6_7 H 0.917211 0.146596 0.0831894
H13_7 H 0.969713 0.211926 0.0709987
Cl1_8 Cl 0.07644(8) 0.68503(9) 0.77388(16)
Cl2_8 Cl 0.15531(7) 0.63395(8) 0.90305(16)
Cl6_8 Cl 0.07769(8) 0.52128(7) 0.99842(15)
C4_8 C 0.0053(2) 0.6785(2) 0.9092(5)
C5_8 C 0.0574(3) 0.6691(2) 0.8827(5)
C6_8 C 0.0924(2) 0.6471(2) 0.9439(5)
C23_8 C 0.0219(5) 0.8217(5) 0.9691(11)
C24_8 C 0.0655(8) 0.8428(10) 0.9826(17)
H6_8 H 0.0827887 0.853404 0.916811
H13_8 H 0.0302874 0.788074 0.929001
Cl4_8 Cl 0.92558(7) 0.67298(8) 0.02932(15)
O9_8 O 0.8945(2) 0.8057(3) 0.0203(4)
H1_8 H 0.87965 0.772243 0.0358569
H2_8 H 0.871845 0.832398 0.0470321
loop_
_geom_bond_atom_site_label_1
_geom_bond_atom_site_label_2
_geom_bond_site_symmetry_1
_geom_bond_site_symmetry_2
Gd1 O1 1_555 1_555
Cl1 C5 1_555 1_555
Cl2 C6 1_555 1_555
O1 C1 1_555 1_555
O2 C1 1_555 1_555
O7 Gd1 1_555 1_555
O8 Gd1 1_555 1_555
C1 C4 1_555 1_555
C4 C5 1_555 1_555
C5 C6 1_555 1_555
C9 C4 1_555 1_555
C23 O7 1_555 1_555
C24 C23 1_555 1_555
C25 O8 1_555 1_555
C26 C25 1_555 1_555
Gd2 O2 1_555 1_555
O10 Gd1 1_555 1_555
O11 Gd1 1_555 1_555
O12 Gd1 1_555 1_555
O13 Gd1 1_555 1_555
C26 H3 1_555 1_555
C26 H4 1_555 1_555
C26 H5 1_555 1_555
C24 H6 1_555 1_555
C25 H9 1_555 1_555
C25 H10 1_555 1_555
C23 H13 1_555 1_555
Cl3 C8 1_555 1_555
Cl5 C12 1_555 1_555
Cl7 C15 1_555 1_555
Cl8 C16 1_555 1_555
Cl9 C18 1_555 1_555
Cl10 C19 1_555 1_555
Cl11 C21 1_555 1_555
Cl12 C22 1_555 1_555
O3 C2 1_555 1_555
O4 C2 1_555 1_555
O5 C3 1_555 1_555
O6 C3 1_555 1_555
C2 C11 1_555 1_555
C3 C20 1_555 1_555
C7 C8 1_555 1_555
C10 C7 1_555 1_555
C11 C12 1_555 1_555
C12 C13 1_555 1_555
C13 C14 1_555 1_555
C14 C10 1_555 1_555
C15 C14 1_555 1_555
C16 C11 1_555 1_555
C17 C10 1_555 1_555
C18 C17 1_555 1_555
C19 C18 1_555 1_555
C20 C19 1_555 1_555
C21 C20 1_555 1_555
C22 C17 1_555 1_555
Gd3 O4 1_555 1_555
Gd4 O5 1_555 1_555
Gd5 O6 1_555 1_555
C15 C16 1_555 1_555
C21 C22 1_555 1_555
O9 H1 1_555 1_555
O9 H2 1_555 1_555
C10 H11 1_555 1_555
Gd1_2 O1_2 1_555 1_555
O1_2 C1_2 1_555 1_555
O2_2 C1_2 1_555 1_555
O7_2 Gd1_2 1_555 1_555
O8_2 Gd1_2 1_555 1_555
C25_2 O8_2 1_555 1_555
C26_2 C25_2 1_555 1_555
Gd2_2 O2_2 1_555 1_555
O10_2 Gd1_2 1_555 1_555
O11_2 Gd1_2 1_555 1_555
O12_2 Gd1_2 1_555 1_555
O13_2 Gd1_2 1_555 1_555
C26_2 H3_2 1_555 1_555
C26_2 H4_2 1_555 1_555
C26_2 H5_2 1_555 1_555
C25_2 H9_2 1_555 1_555
C25_2 H10_2 1_555 1_555
Cl3_2 C8_2 1_555 1_555
Cl5_2 C12_2 1_555 1_555
Cl7_2 C15_2 1_555 1_555
Cl8_2 C16_2 1_555 1_555
Cl9_2 C18_2 1_555 1_555
Cl10_2 C19_2 1_555 1_555
Cl11_2 C21_2 1_555 1_555
Cl12_2 C22_2 1_555 1_555
O3_2 C2_2 1_555 1_555
O4_2 C2_2 1_555 1_555
O5_2 C3_2 1_555 1_555
O6_2 C3_2 1_555 1_555
C2_2 C11_2 1_555 1_555
C3_2 C20_2 1_555 1_555
C7_2 C8_2 1_555 1_555
C10_2 C7_2 1_555 1_555
C11_2 C12_2 1_555 1_555
C12_2 C13_2 1_555 1_555
C13_2 C14_2 1_555 1_555
C14_2 C10_2 1_555 1_555
C15_2 C14_2 1_555 1_555
C16_2 C11_2 1_555 1_555
C17_2 C10_2 1_555 1_555
C18_2 C17_2 1_555 1_555
C19_2 C18_2 1_555 1_555
C20_2 C19_2 1_555 1_555
C21_2 C20_2 1_555 1_555
C22_2 C17_2 1_555 1_555
Gd4 O4_2 1_555 1_555
Gd3 O5_2 1_555 1_555
Gd5_2 O6_2 1_555 1_555
C15_2 C16_2 1_555 1_555
C21_2 C22_2 1_555 1_555
C10_2 H11_2 1_555 1_555
Gd2_2 O1_3 1_555 1_555
Cl4_2 C9_3 1_555 1_555
O1_3 C1_3 1_555 1_555
O10_2 C1_3 1_555 1_555
O7_3 Gd2_2 1_555 1_555
O8_3 Gd2_2 1_555 1_555
O9_2 Gd2_2 1_555 1_555
C25_3 O8_3 1_555 1_555
C26_3 C25_3 1_555 1_555
O11_3 Gd2_2 1_555 1_555
O12_3 Gd2_2 1_555 1_555
O13_3 Gd2_2 1_555 1_555
O9_2 H1_2 1_555 1_555
O9_2 H2_2 1_555 1_555
C26_3 H3_3 1_555 1_555
C26_3 H4_3 1_555 1_555
C26_3 H5_3 1_555 1_555
C25_3 H9_3 1_555 1_555
C25_3 H10_3 1_555 1_555
Cl1_2 C5_2 1_555 1_555
Cl2_2 C6_2 1_555 1_555
Cl3_3 C8_3 1_555 1_555
Cl6_2 C13_3 1_555 1_555
Cl7_3 C15_3 1_555 1_555
Cl8_3 C16_3 1_555 1_555
Cl9_3 C18_3 1_555 1_555
Cl10_3 C19_3 1_555 1_555
Cl11_3 C21_3 1_555 1_555
Cl12_3 C22_3 1_555 1_555
O5_3 C3_3 1_555 1_555
O6_3 C3_3 1_555 1_555
C3_3 C20_3 1_555 1_555
C4_2 C5_2 1_555 1_555
C5_2 C6_2 1_555 1_555
C6_2 C7_3 1_555 1_555
C7_3 C8_3 1_555 1_555
C10_3 C7_3 1_555 1_555
C13_3 C14_3 1_555 1_555
C14_3 C10_3 1_555 1_555
C15_3 C14_3 1_555 1_555
C17_3 C10_3 1_555 1_555
C18_3 C17_3 1_555 1_555
C19_3 C18_3 1_555 1_555
C20_3 C19_3 1_555 1_555
C21_3 C20_3 1_555 1_555
C22_3 C17_3 1_555 1_555
C24_2 C23_2 1_555 1_555
Gd5_2 O5_3 1_555 1_555
Gd3 O6_3 1_555 1_555
C15_3 C16_3 1_555 1_555
C21_3 C22_3 1_555 1_555
C24_2 H6_2 1_555 1_555
C24_2 H7_3 1_555 1_555
C24_2 H8_3 1_555 1_555
C10_3 H11_3 1_555 1_555
C23_2 H12_3 1_555 1_555
C23_2 H13_2 1_555 1_555
Cl5_3 C12_3 1_555 1_555
O3_3 C2_3 1_555 1_555
O4_3 C2_3 1_555 1_555
C2_3 C11_3 1_555 1_555
C11_3 C12_3 1_555 1_555
Gd5 O4_3 1_555 1_555
Cl5_4 C12_4 1_555 1_555
O3_4 C2_4 1_555 1_555
O4_4 C2_4 1_555 1_555
C2_4 C11_4 1_555 1_555
C11_4 C12_4 1_555 1_555
Gd5_2 O4_4 1_555 1_555
Gd2 O1_4 1_555 1_555
Cl1_3 C5_3 1_555 1_555
Cl2_3 C6_3 1_555 1_555
Cl3_4 C8_4 1_555 1_555
Cl4_3 C9_4 1_555 1_555
Cl6_3 C13_4 1_555 1_555
Cl7_4 C15_4 1_555 1_555
Cl8_4 C16_4 1_555 1_555
Cl9_4 C18_4 1_555 1_555
Cl10_4 C19_4 1_555 1_555
Cl11_4 C21_4 1_555 1_555
Cl12_4 C22_4 1_555 1_555
O1_4 C1_4 1_555 1_555
O10 C1_4 1_555 1_555
O5_4 C3_4 1_555 1_555
O6_4 C3_4 1_555 1_555
O7_4 Gd2 1_555 1_555
O8_4 Gd2 1_555 1_555
O9_3 Gd2 1_555 1_555
C1_4 C4_3 1_555 1_555
C3_4 C20_4 1_555 1_555
C4_3 C5_3 1_555 1_555
C5_3 C6_3 1_555 1_555
C6_3 C7_4 1_555 1_555
C7_4 C8_4 1_555 1_555
C8_4 C9_4 1_555 1_555
C9_4 C4_3 1_555 1_555
C10_4 C7_4 1_555 1_555
C13_4 C14_4 1_555 1_555
C14_4 C10_4 1_555 1_555
C15_4 C14_4 1_555 1_555
C17_4 C10_4 1_555 1_555
C18_4 C17_4 1_555 1_555
C19_4 C18_4 1_555 1_555
C20_4 C19_4 1_555 1_555
C21_4 C20_4 1_555 1_555
C22_4 C17_4 1_555 1_555
C23_3 O7_4 1_555 1_555
C24_3 C23_3 1_555 1_555
C25_4 O8_4 1_555 1_555
C26_4 C25_4 1_555 1_555
Gd5 O5_4 1_555 1_555
Gd4 O6_4 1_555 1_555
O11_4 Gd2 1_555 1_555
O12_4 Gd2 1_555 1_555
O13_4 Gd2 1_555 1_555
C15_4 C16_4 1_555 1_555
C21_4 C22_4 1_555 1_555
O9_3 H1_3 1_555 1_555
O9_3 H2_3 1_555 1_555
C26_4 H3_4 1_555 1_555
C26_4 H4_4 1_555 1_555
C26_4 H5_4 1_555 1_555
C24_3 H6_3 1_555 1_555
C24_3 H7_4 1_555 1_555
C24_3 H8_4 1_555 1_555
C25_4 H9_4 1_555 1_555
C25_4 H10_4 1_555 1_555
C10_4 H11_4 1_555 1_555
C23_3 H12_4 1_555 1_555
C23_3 H13_3 1_555 1_555
Cl3_5 C8_5 1_555 1_555
Cl5_5 C12_5 1_555 1_555
Cl7_5 C15_5 1_555 1_555
Cl8_5 C16_5 1_555 1_555
Cl9_5 C18_5 1_555 1_555
Cl10_5 C19_5 1_555 1_555
Cl11_5 C21_5 1_555 1_555
Cl12_5 C22_5 1_555 1_555
O3_5 C2_5 1_555 1_555
O11_4 C2_5 1_555 1_555
O12_3 C3_5 1_555 1_555
O13_2 C3_5 1_555 1_555
C2_5 C11_5 1_555 1_555
C3_5 C20_5 1_555 1_555
C7_5 C8_5 1_555 1_555
C10_5 C7_5 1_555 1_555
C11_5 C12_5 1_555 1_555
C12_5 C13_5 1_555 1_555
C13_5 C14_5 1_555 1_555
C14_5 C10_5 1_555 1_555
C15_5 C14_5 1_555 1_555
C16_5 C11_5 1_555 1_555
C17_5 C10_5 1_555 1_555
C18_5 C17_5 1_555 1_555
C19_5 C18_5 1_555 1_555
C20_5 C19_5 1_555 1_555
C21_5 C20_5 1_555 1_555
C22_5 C17_5 1_555 1_555
C15_5 C16_5 1_555 1_555
C21_5 C22_5 1_555 1_555
O9_4 H1_4 1_555 1_555
O9_4 H2_4 1_555 1_555
C10_5 H11_5 1_555 1_555
Gd5_2 O1_5 1_555 1_555
Cl1_4 C5_4 1_555 1_555
Cl2_4 C6_4 1_555 1_555
O1_5 C1_5 1_555 1_555
O2_3 C1_5 1_555 1_555
O7_5 Gd5_2 1_555 1_555
O8_5 Gd5_2 1_555 1_555
C1_5 C4_4 1_555 1_555
C4_4 C5_4 1_555 1_555
C5_4 C6_4 1_555 1_555
C9_5 C4_4 1_555 1_555
C23_4 O7_5 1_555 1_555
C24_4 C23_4 1_555 1_555
C25_5 O8_5 1_555 1_555
C26_5 C25_5 1_555 1_555
Gd3 O2_3 1_555 1_555
O10_3 Gd5_2 1_555 1_555
C26_5 H3_5 1_555 1_555
C26_5 H4_5 1_555 1_555
C26_5 H5_5 1_555 1_555
C24_4 H6_4 1_555 1_555
C25_5 H9_5 1_555 1_555
C25_5 H10_5 1_555 1_555
C23_4 H13_4 1_555 1_555
Cl3_6 C8_6 1_555 1_555
Cl5_6 C12_6 1_555 1_555
Cl7_6 C15_6 1_555 1_555
Cl8_6 C16_6 1_555 1_555
Cl9_6 C18_6 1_555 1_555
Cl10_6 C19_6 1_555 1_555
Cl11_6 C21_6 1_555 1_555
Cl12_6 C22_6 1_555 1_555
O3_6 C2_6 1_555 1_555
O11_3 C2_6 1_555 1_555
O12_4 C3_6 1_555 1_555
O13 C3_6 1_555 1_555
C2_6 C11_6 1_555 1_555
C3_6 C20_6 1_555 1_555
C7_6 C8_6 1_555 1_555
C10_6 C7_6 1_555 1_555
C11_6 C12_6 1_555 1_555
C12_6 C13_6 1_555 1_555
C13_6 C14_6 1_555 1_555
C14_6 C10_6 1_555 1_555
C15_6 C14_6 1_555 1_555
C16_6 C11_6 1_555 1_555
C17_6 C10_6 1_555 1_555
C18_6 C17_6 1_555 1_555
C19_6 C18_6 1_555 1_555
C20_6 C19_6 1_555 1_555
C21_6 C20_6 1_555 1_555
C22_6 C17_6 1_555 1_555
C15_6 C16_6 1_555 1_555
C21_6 C22_6 1_555 1_555
C10_6 H11_6 1_555 1_555
Gd5 O1_6 1_555 1_555
O1_6 C1_6 1_555 1_555
O2_4 C1_6 1_555 1_555
O7_6 Gd5 1_555 1_555
O8_6 Gd5 1_555 1_555
C25_6 O8_6 1_555 1_555
C26_6 C25_6 1_555 1_555
Gd4 O2_4 1_555 1_555
O10_4 Gd5 1_555 1_555
C26_6 H3_6 1_555 1_555
C26_6 H4_6 1_555 1_555
C26_6 H5_6 1_555 1_555
C25_6 H9_6 1_555 1_555
C25_6 H10_6 1_555 1_555
Cl5_7 C12_7 1_555 1_555
O3_7 C2_7 1_555 1_555
O11_2 C2_7 1_555 1_555
C2_7 C11_7 1_555 1_555
C11_7 C12_7 1_555 1_555
Cl1_5 C5_5 1_555 1_555
Cl2_5 C6_5 1_555 1_555
Cl3_7 C8_7 1_555 1_555
Cl6_5 C13_7 1_555 1_555
Cl7_7 C15_7 1_555 1_555
Cl8_7 C16_7 1_555 1_555
Cl9_7 C18_7 1_555 1_555
Cl10_7 C19_7 1_555 1_555
Cl11_7 C21_7 1_555 1_555
Cl12_7 C22_7 1_555 1_555
O12 C3_7 1_555 1_555
O13_4 C3_7 1_555 1_555
C3_7 C20_7 1_555 1_555
C4_5 C5_5 1_555 1_555
C5_5 C6_5 1_555 1_555
C6_5 C7_7 1_555 1_555
C7_7 C8_7 1_555 1_555
C10_7 C7_7 1_555 1_555
C13_7 C14_7 1_555 1_555
C14_7 C10_7 1_555 1_555
C15_7 C14_7 1_555 1_555
C17_7 C10_7 1_555 1_555
C18_7 C17_7 1_555 1_555
C19_7 C18_7 1_555 1_555
C20_7 C19_7 1_555 1_555
C21_7 C20_7 1_555 1_555
C22_7 C17_7 1_555 1_555
C24_5 C23_5 1_555 1_555
C15_7 C16_7 1_555 1_555
C21_7 C22_7 1_555 1_555
C24_5 H6_5 1_555 1_555
C24_5 H7_7 1_555 1_555
C24_5 H8_7 1_555 1_555
C10_7 H11_7 1_555 1_555
C23_5 H12_7 1_555 1_555
C23_5 H13_5 1_555 1_555
Gd4 O1_7 1_555 1_555
Cl4_5 C9_7 1_555 1_555
O1_7 C1_7 1_555 1_555
O10_4 C1_7 1_555 1_555
O7_7 Gd4 1_555 1_555
O8_7 Gd4 1_555 1_555
O9_5 Gd4 1_555 1_555
C25_7 O8_7 1_555 1_555
C26_7 C25_7 1_555 1_555
O9_5 H1_5 1_555 1_555
O9_5 H2_5 1_555 1_555
C26_7 H3_7 1_555 1_555
C26_7 H4_7 1_555 1_555
C26_7 H5_7 1_555 1_555
C25_7 H9_7 1_555 1_555
C25_7 H10_7 1_555 1_555
Gd3 O1_8 1_555 1_555
Cl1_6 C5_6 1_555 1_555
Cl2_6 C6_6 1_555 1_555
Cl3_8 C8_8 1_555 1_555
Cl4_6 C9_8 1_555 1_555
Cl6_6 C13_8 1_555 1_555
Cl7_8 C15_8 1_555 1_555
Cl8_8 C16_8 1_555 1_555
Cl9_8 C18_8 1_555 1_555
Cl10_8 C19_8 1_555 1_555
Cl11_8 C21_8 1_555 1_555
Cl12_8 C22_8 1_555 1_555
O1_8 C1_8 1_555 1_555
O10_3 C1_8 1_555 1_555
O12_2 C3_8 1_555 1_555
O13_3 C3_8 1_555 1_555
O7_8 Gd3 1_555 1_555
O8_8 Gd3 1_555 1_555
O9_6 Gd3 1_555 1_555
C1_8 C4_6 1_555 1_555
C3_8 C20_8 1_555 1_555
C4_6 C5_6 1_555 1_555
C5_6 C6_6 1_555 1_555
C6_6 C7_8 1_555 1_555
C7_8 C8_8 1_555 1_555
C8_8 C9_8 1_555 1_555
C9_8 C4_6 1_555 1_555
C10_8 C7_8 1_555 1_555
C13_8 C14_8 1_555 1_555
C14_8 C10_8 1_555 1_555
C15_8 C14_8 1_555 1_555
C17_8 C10_8 1_555 1_555
C18_8 C17_8 1_555 1_555
C19_8 C18_8 1_555 1_555
C20_8 C19_8 1_555 1_555
C21_8 C20_8 1_555 1_555
C22_8 C17_8 1_555 1_555
C23_6 O7_8 1_555 1_555
C24_6 C23_6 1_555 1_555
C25_8 O8_8 1_555 1_555
C26_8 C25_8 1_555 1_555
C15_8 C16_8 1_555 1_555
C21_8 C22_8 1_555 1_555
O9_6 H1_6 1_555 1_555
O9_6 H2_6 1_555 1_555
C26_8 H3_8 1_555 1_555
C26_8 H4_8 1_555 1_555
C26_8 H5_8 1_555 1_555
C24_6 H6_6 1_555 1_555
C24_6 H7_8 1_555 1_555
C24_6 H8_8 1_555 1_555
C25_8 H9_8 1_555 1_555
C25_8 H10_8 1_555 1_555
C10_8 H11_8 1_555 1_555
C23_6 H12_8 1_555 1_555
C23_6 H13_6 1_555 1_555
Cl5_8 C12_8 1_555 1_555
O3_8 C2_8 1_555 1_555
O11 C2_8 1_555 1_555
C2_8 C11_8 1_555 1_555
C11_8 C12_8 1_555 1_555
O9_7 H1_7 1_555 1_555
O9_7 H2_7 1_555 1_555
Cl1_7 C5_7 1_555 1_555
Cl2_7 C6_7 1_555 1_555
C4_7 C5_7 1_555 1_555
C5_7 C6_7 1_555 1_555
C24_7 C23_7 1_555 1_555
C24_7 H6_7 1_555 1_555
C23_7 H13_7 1_555 1_555
Cl1_8 C5_8 1_555 1_555
Cl2_8 C6_8 1_555 1_555
C4_8 C5_8 1_555 1_555
C5_8 C6_8 1_555 1_555
C24_8 C23_8 1_555 1_555
C24_8 H6_8 1_555 1_555
C23_8 H13_8 1_555 1_555
O9_8 H1_8 1_555 1_555
O9_8 H2_8 1_555 1_555

#END
