
###############################################################################
#
# This file contains modified crystal structure data generated from the
# MOF subset of the Cambridge Structural Database (CSD) v543 
# hosted by the Cambridge Crystallographic Data Centre (CCDC).
#
# This work is licensed under the Creative Commons
# Attribution-NonCommercial-ShareAlike 4.0 International License.
# To view a copy of this license, visit
# http://creativecommons.org/licenses/by-nc-sa/4.0/
# or send a letter to
# Creative Commons, PO Box 1866, Mountain View, CA 94042, USA.
#
# CIF created using the CSD Python API on 29 September 2022
# The structure has been converted into the P1 space group
# The structure has a 3D framework
# The original CSD entry TASXIW is in the monoclinic crystal system
# The framework has been calculated to contain at least 10.0% void space
# The void calculation uses a probe of radius 1.32A, grid spacing 0.4
# H atom positions have been added when not included in the experimental data
#
###############################################################################

data_TASXIW
_chemical_formula_moiety         '(C140 H88 N16 O77 Zn16)n'
_symmetry_cell_setting           triclinic
_symmetry_space_group_name_H-M   'P 1'
_symmetry_Int_Tables_number      1
_space_group_name_Hall           'P 1'
loop_
_symmetry_equiv_pos_site_id
_symmetry_equiv_pos_as_xyz
1 x,y,z
_cell_length_a                   20.5126(15)
_cell_length_b                   25.971(3)
_cell_length_c                   13.9517(9)
_cell_angle_alpha                90
_cell_angle_beta                 123.508(3)
_cell_angle_gamma                90
_cell_volume                     6197.31
loop_
_atom_site_label
_atom_site_type_symbol
_atom_site_fract_x
_atom_site_fract_y
_atom_site_fract_z
N2 N 0.0068(10) 0.1181(6) 0.2154(14)
C30 C 0.2008(10) 0.1010(7) 0.5383(15)
H13 H 0.2522 0.0968 0.5554
C31 C 0.1396(12) 0.1093(7) 0.4253(14)
H14 H 0.1477 0.1105 0.3646
C32 C 0.0662(11) 0.1158(7) 0.4055(17)
C33 C 0.0530(10) 0.1163(7) 0.4921(17)
H15 H 0.0030 0.1222 0.4789
C34 C 0.1165(13) 0.1077(7) 0.5955(15)
H16 H 0.1090 0.1081 0.6569
N3 N 0.1893(7) 0.0986(5) 0.6254(10)
O12 O 0.2485(7) 0.1297(4) 0.8652(10)
O16 O 0.1877(5) 0.0242(4) 0.7824(9)
H18 H 0.1442 0.0133 0.0071
O21 O 0.3562(5) 0.0390(4) 0.9403(7)
O24 O 0.3099(6) 0.0174(4) 0.7176(8)
O28 O 0.3613(7) 0.1246(5) 0.7990(11)
Zn3 Zn 0.27664(9) 0.07091(7) 0.78775(13)
Zn9 Zn 0.31897(9) 0.04035(8) 0.03922(13)
H21 H 0.342655 0.160369 0.794346
H22 H 0.41224 0.11971 0.873258
C22 C 0.1658(8) 0.0184(6) 0.8468(15)
C23 C 0.0800(8) 0.0129(6) 0.8007(14)
C24 C 0.0270(10) 0.0119(6) 0.6810(13)
H11 H 0.0468 0.0104 0.6334
C25 C 0.0511(9) 0.0129(6) 0.8688(12)
O17 O 0.2115(6) 0.0184(4) 0.9584(9)
O19 O 0.0970(5) 0.0125(4) 0.9853(8)
C14 C 0.8604(12) 0.1093(7) 0.0747(14)
H5 H 0.8523 0.1105 0.1354
C15 C 0.9338(11) 0.1158(7) 0.0945(17)
C16 C 0.9470(10) 0.1163(7) 0.0079(17)
H6 H 0.9970 0.1222 0.0211
N4 N 0.9932(10) 0.1181(6) 0.2846(14)
C1 C 0.7271(10) 0.1444(7) 0.5365(17)
C2 C 0.7387(10) 0.1990(7) 0.5181(16)
C3 C 0.7140(11) 0.2179(9) 0.4092(15)
H1 H 0.6890 0.1949 0.3456
C4 C 0.7761(12) 0.2336(9) 0.6088(15)
C5 C 0.8342(8) 0.0184(6) 0.6532(15)
C6 C 0.9200(8) 0.0129(6) 0.6993(14)
C7 C 0.9730(10) 0.0119(6) 0.8190(13)
H2 H 0.9532 0.0104 0.8666
C8 C 0.9489(9) 0.0129(6) 0.6312(12)
C10 C 0.5617(8) 0.0000(6) 0.6153(12)
C11 C 0.5751(9) 0.0205(6) 0.5318(13)
C13 C 0.7992(10) 0.1010(7) 0.9617(15)
H4 H 0.7478 0.0968 0.9446
C17 C 0.8835(13) 0.1077(7) 0.9045(15)
H7 H 0.8910 0.1081 0.8431
N1 N 0.8107(7) 0.0986(5) 0.8746(10)
O1 O 0.7515(7) 0.1297(4) 0.6348(10)
O2 O 0.6940(7) 0.1159(5) 0.4519(10)
O3 O 0.8041(10) 0.2195(6) 0.7200(11)
H8 H 0.7948 0.1881 0.7219
O4 O 0.8123(5) 0.0242(4) 0.7176(9)
O5 O 0.7885(6) 0.0184(4) 0.5416(9)
O6 O 0.9030(5) 0.0125(4) 0.5147(8)
H9 H 0.8558 0.0133 0.4929
O7 O 0.6438(5) 0.0390(4) 0.5597(7)
O8 O 0.6901(6) 0.0174(4) 0.7824(8)
O10 O 0.6387(7) 0.1246(5) 0.7010(11)
Zn1 Zn 0.72336(9) 0.07091(7) 0.71225(13)
Zn2 Zn 0.68103(9) 0.04035(8) 0.46078(13)
C18 C 0.7729(10) 0.3556(7) 0.4635(17)
C19 C 0.7613(10) 0.3010(7) 0.4819(16)
C20 C 0.7860(11) 0.2821(9) 0.5908(15)
H10 H 0.8110 0.3051 0.6544
C21 C 0.7239(12) 0.2664(9) 0.3912(15)
C26 C 0.3745(9) 0.0036(7) 0.2577(13)
C27 C 0.4383(8) 0.0000(6) 0.3847(12)
C29 C 0.5116(9) 0.0207(6) 0.4200(12)
H12 H 0.5176 0.0356 0.3631
O11 O 0.7485(7) 0.3703(4) 0.3652(10)
O13 O 0.8060(7) 0.3841(5) 0.5481(10)
O14 O 0.6959(10) 0.2805(6) 0.2800(11)
H17 H 0.7052 0.3119 0.2781
O18 O 0.7115(6) 0.4816(4) 0.4584(9)
O22 O 0.8562(5) 0.4610(4) 0.4403(7)
O25 O 0.3917(5) 0.0293(5) 0.1982(8)
O26 O 0.6083(5) 0.0293(5) 0.3018(8)
O27 O 0.8917(5) 0.4707(5) 0.6982(8)
Zn4 Zn 0.77664(9) 0.42909(7) 0.28775(13)
Zn7 Zn 0.81897(9) 0.45965(8) 0.53922(13)
H19 H 0.657345 0.160369 0.705654
H20 H 0.58776 0.11971 0.626742
C9 C 0.6255(9) 0.9964(7) 0.7423(13)
C10_2 C 0.5617(8) 1.0000(6) 0.6153(12)
C12 C 0.4884(9) 0.9793(6) 0.5800(12)
H3 H 0.4824 0.9644 0.6369
O9 O 0.6083(5) 0.9707(5) 0.8018(8)
C27_2 C 0.4383(8) 1.0000(6) 0.3847(12)
C28 C 0.4249(9) 0.9795(6) 0.4682(13)
O20 O 0.3562(5) 0.9610(4) 0.4403(7)
O23 O 0.3099(6) 0.9826(4) 0.2176(8)
Zn6 Zn 0.27664(9) 0.92909(7) 0.28775(13)
Zn8 Zn 0.68103(9) 0.95965(8) 0.96078(13)
Zn11 Zn 0.31897(9) 0.95965(8) 0.53922(13)
C3_2 C 0.2860(11) 0.2179(9) 0.0908(15)
H1_2 H 0.3110 0.1949 0.1544
O2_2 O 0.3060(7) 0.1159(5) 0.0481(10)
C18_2 C 0.2271(10) 0.3556(7) 0.0365(17)
C19_2 C 0.2387(10) 0.3010(7) 0.0181(16)
C21_2 C 0.2761(12) 0.2664(9) 0.1088(15)
C26_2 C 0.6255(9) 0.0036(7) 0.2423(13)
C27_3 C 0.5617(8) 0.0000(6) 0.1153(12)
C29_2 C 0.4884(9) 0.0207(6) 0.0800(12)
H12_2 H 0.4824 0.0356 0.1369
O11_2 O 0.2515(7) 0.3703(4) 0.1348(10)
O14_2 O 0.3041(10) 0.2805(6) 0.2200(11)
H17_2 H 0.2948 0.3119 0.2219
O18_2 O 0.2885(6) 0.4816(4) 0.0416(9)
O22_2 O 0.1438(5) 0.4610(4) 0.0597(7)
Zn4_2 Zn 0.22336(9) 0.42909(7) 0.21225(13)
C1_2 C 0.2729(10) 0.1444(7) 0.9635(17)
C2_2 C 0.2613(10) 0.1990(7) 0.9819(16)
C4_2 C 0.2239(12) 0.2336(9) 0.8912(15)
C10_3 C 0.4383(8) -0.0000(6) 0.8847(12)
C11_2 C 0.4249(9) 0.0205(6) 0.9682(13)
O3_2 O 0.1959(10) 0.2195(6) 0.7800(11)
H8_2 H 0.2052 0.1881 0.7781
C20_2 C 0.2140(11) 0.2821(9) 0.9092(15)
H10_2 H 0.1890 0.3051 0.8456
O13_2 O 0.1940(7) 0.3841(5) 0.9519(10)
O27_2 O 0.1083(5) 0.4707(5) 0.8018(8)
Zn7_2 Zn 0.18103(9) 0.45965(8) 0.96078(13)
C27_4 C 0.5617(8) 1.0000(6) 0.1153(12)
C28_2 C 0.5751(9) 0.9795(6) 0.0318(13)
O20_2 O 0.6438(5) 0.9610(4) 0.0597(7)
O23_2 O 0.6901(6) 0.9826(4) 0.2824(8)
Zn6_2 Zn 0.72336(9) 0.92909(7) 0.21225(13)
C9_2 C 0.3745(9) 0.9964(7) 0.7577(13)
C10_4 C 0.4383(8) 1.0000(6) 0.8847(12)
C12_2 C 0.5116(9) 0.9793(6) 0.9200(12)
H3_2 H 0.5176 0.9644 0.8631
O9_2 O 0.3917(5) 0.9707(5) 0.6982(8)
C14_2 C 0.3604(12) 0.6093(7) 0.0747(14)
H5_2 H 0.3523 0.6105 0.1354
C15_2 C 0.4338(11) 0.6158(7) 0.0945(17)
C16_2 C 0.4470(10) 0.6163(7) 0.0079(17)
H6_2 H 0.4970 0.6222 0.0211
N2_2 N 0.5068(10) 0.6181(6) 0.2154(14)
C30_2 C 0.7008(10) 0.6010(7) 0.5383(15)
H13_2 H 0.7522 0.5968 0.5554
C31_2 C 0.6396(12) 0.6093(7) 0.4253(14)
H14_2 H 0.6477 0.6105 0.3646
C32_2 C 0.5662(11) 0.6158(7) 0.4055(17)
C33_2 C 0.5530(10) 0.6163(7) 0.4921(17)
H15_2 H 0.5030 0.6222 0.4789
C34_2 C 0.6165(13) 0.6077(7) 0.5955(15)
H16_2 H 0.6090 0.6081 0.6569
N3_2 N 0.6893(7) 0.5986(5) 0.6254(10)
N4_2 N 0.4932(10) 0.6181(6) 0.2846(14)
O12_2 O 0.7485(7) 0.6297(4) 0.8652(10)
O16_2 O 0.6877(5) 0.5242(4) 0.7824(9)
H18_2 H 0.6442 0.5133 0.0071
O21_2 O 0.8562(5) 0.5390(4) 0.9403(7)
O24_2 O 0.8099(6) 0.5174(4) 0.7176(8)
O28_2 O 0.8613(7) 0.6246(5) 0.7990(11)
Zn3_2 Zn 0.77664(9) 0.57091(7) 0.78775(13)
Zn9_2 Zn 0.81897(9) 0.54035(8) 0.03922(13)
H21_2 H 0.842655 0.660369 0.794346
H22_2 H 0.91224 0.61971 0.873258
C1_3 C 0.2271(10) 0.6444(7) 0.5365(17)
C2_3 C 0.2387(10) 0.6990(7) 0.5181(16)
C3_3 C 0.2140(11) 0.7179(9) 0.4092(15)
H1_3 H 0.1890 0.6949 0.3456
C4_3 C 0.2761(12) 0.7336(9) 0.6088(15)
C5_2 C 0.3342(8) 0.5184(6) 0.6532(15)
C6_2 C 0.4200(8) 0.5129(6) 0.6993(14)
C7_2 C 0.4730(10) 0.5119(6) 0.8190(13)
H2_2 H 0.4532 0.5104 0.8666
C8_2 C 0.4489(9) 0.5129(6) 0.6312(12)
C9_3 C 0.1255(9) 0.4964(7) 0.7423(13)
C10_5 C 0.0617(8) 0.5000(6) 0.6153(12)
C11_3 C 0.0751(9) 0.5205(6) 0.5318(13)
C13_2 C 0.2992(10) 0.6010(7) 0.9617(15)
H4_2 H 0.2478 0.5968 0.9446
C17_2 C 0.3835(13) 0.6077(7) 0.9045(15)
H7_2 H 0.3910 0.6081 0.8431
N1_2 N 0.3107(7) 0.5986(5) 0.8746(10)
O1_2 O 0.2515(7) 0.6297(4) 0.6348(10)
O2_3 O 0.1940(7) 0.6159(5) 0.4519(10)
O3_3 O 0.3041(10) 0.7195(6) 0.7200(11)
H8_3 H 0.2948 0.6881 0.7219
O4_2 O 0.3123(5) 0.5242(4) 0.7176(9)
O5_2 O 0.2885(6) 0.5184(4) 0.5416(9)
O6_2 O 0.4030(5) 0.5125(4) 0.5147(8)
H9_2 H 0.3558 0.5133 0.4929
O7_2 O 0.1438(5) 0.5390(4) 0.5597(7)
O8_2 O 0.1901(6) 0.5174(4) 0.7824(8)
O10_2 O 0.1387(7) 0.6246(5) 0.7010(11)
Zn1_2 Zn 0.22336(9) 0.57091(7) 0.71225(13)
Zn2_2 Zn 0.18103(9) 0.54035(8) 0.46078(13)
C18_3 C 0.2729(10) 0.8556(7) 0.4635(17)
C19_3 C 0.2613(10) 0.8010(7) 0.4819(16)
C20_3 C 0.2860(11) 0.7821(9) 0.5908(15)
H10_3 H 0.3110 0.8051 0.6544
C21_3 C 0.2239(12) 0.7664(9) 0.3912(15)
C22_2 C 0.6658(8) 0.5184(6) 0.8468(15)
C23_2 C 0.5800(8) 0.5129(6) 0.8007(14)
C24_2 C 0.5270(10) 0.5119(6) 0.6810(13)
H11_2 H 0.5468 0.5104 0.6334
C25_2 C 0.5511(9) 0.5129(6) 0.8688(12)
C29_3 C 0.0116(9) 0.5207(6) 0.4200(12)
H12_3 H 0.0176 0.5356 0.3631
O11_3 O 0.2485(7) 0.8703(4) 0.3652(10)
O13_3 O 0.3060(7) 0.8841(5) 0.5481(10)
O14_3 O 0.1959(10) 0.7805(6) 0.2800(11)
H17_3 H 0.2052 0.8119 0.2781
O17_2 O 0.7115(6) 0.5184(4) 0.9584(9)
O18_3 O 0.2115(6) 0.9816(4) 0.4584(9)
O19_2 O 0.5970(5) 0.5125(4) 0.9853(8)
O26_2 O 0.1083(5) 0.5293(5) 0.3018(8)
H19_2 H 0.157345 0.660369 0.705654
H20_2 H 0.0877603 0.61971 0.626742
C12_3 C 0.9884(9) 0.4793(6) 0.5800(12)
H3_3 H 0.9824 0.4644 0.6369
C26_3 C 0.8745(9) 0.5036(7) 0.2577(13)
C27_5 C 0.9383(8) 0.5000(6) 0.3847(12)
C28_3 C 0.9249(9) 0.4795(6) 0.4682(13)
O23_3 O 0.8099(6) 0.4826(4) 0.2176(8)
O25_2 O 0.8917(5) 0.5293(5) 0.1982(8)
C26_4 C 0.1255(9) 0.5036(7) 0.2423(13)
C27_6 C 0.0617(8) 0.5000(6) 0.1153(12)
C28_4 C 0.0751(9) 0.4795(6) 0.0318(13)
O23_4 O 0.1901(6) 0.4826(4) 0.2824(8)
C12_4 C 0.0116(9) 0.4793(6) 0.9200(12)
H3_4 H 0.0176 0.4644 0.8631
C3_4 C 0.7860(11) 0.7179(9) 0.0908(15)
H1_4 H 0.8110 0.6949 0.1544
O2_4 O 0.8060(7) 0.6159(5) 0.0481(10)
C18_4 C 0.7271(10) 0.8556(7) 0.0365(17)
C19_4 C 0.7387(10) 0.8010(7) 0.0181(16)
C21_4 C 0.7761(12) 0.7664(9) 0.1088(15)
C29_4 C 0.9884(9) 0.5207(6) 0.0800(12)
H12_4 H 0.9824 0.5356 0.1369
O11_4 O 0.7515(7) 0.8703(4) 0.1348(10)
O14_4 O 0.8041(10) 0.7805(6) 0.2200(11)
H17_4 H 0.7948 0.8119 0.2219
O18_4 O 0.7885(6) 0.9816(4) 0.0416(9)
C1_4 C 0.7729(10) 0.6444(7) 0.9635(17)
C2_4 C 0.7613(10) 0.6990(7) 0.9819(16)
C4_4 C 0.7239(12) 0.7336(9) 0.8912(15)
C9_4 C 0.8745(9) 0.4964(7) 0.7577(13)
C10_6 C 0.9383(8) 0.5000(6) 0.8847(12)
C11_4 C 0.9249(9) 0.5205(6) 0.9682(13)
O3_4 O 0.6959(10) 0.7195(6) 0.7800(11)
H8_4 H 0.7052 0.6881 0.7781
C20_4 C 0.7140(11) 0.7821(9) 0.9092(15)
H10_4 H 0.6890 0.8051 0.8456
O13_4 O 0.6940(7) 0.8841(5) 0.9519(10)
C5_3 C 0.1658(8) 0.9816(6) 0.3468(15)
C6_3 C 0.0800(8) 0.9871(6) 0.3007(14)
C7_3 C 0.0270(10) 0.9881(6) 0.1810(13)
H2_3 H 0.0468 0.9896 0.1334
C8_3 C 0.0511(9) 0.9871(6) 0.3688(12)
C13_3 C 0.2008(10) 0.8990(7) 0.0383(15)
H4_3 H 0.2522 0.9032 0.0554
C17_3 C 0.1165(13) 0.8923(7) 0.0955(15)
H7_3 H 0.1090 0.8919 0.1569
N1_3 N 0.1893(7) 0.9014(5) 0.1254(10)
O4_3 O 0.1877(5) 0.9758(4) 0.2824(9)
O6_3 O 0.0970(5) 0.9875(4) 0.4853(8)
H9_3 H 0.1442 0.9867 0.5071
O10_3 O 0.3613(7) 0.8754(5) 0.2990(11)
H19_3 H 0.342655 0.839631 0.294346
H20_3 H 0.41224 0.88029 0.373258
C14_3 C 0.1396(12) 0.8907(7) 0.9253(14)
H5_3 H 0.1477 0.8895 0.8646
C15_3 C 0.0662(11) 0.8842(7) 0.9055(17)
C16_3 C 0.0530(10) 0.8837(7) 0.9921(17)
H6_3 H 0.0030 0.8778 0.9789
N4_3 N 0.0068(10) 0.8819(6) 0.7154(14)
C22_3 C 0.8342(8) 0.9816(6) 0.1532(15)
C23_3 C 0.9200(8) 0.9871(6) 0.1993(14)
C24_3 C 0.9730(10) 0.9881(6) 0.3190(13)
H11_3 H 0.9532 0.9896 0.3666
C25_3 C 0.9489(9) 0.9871(6) 0.1312(12)
O15 O 0.8123(5) 0.9758(4) 0.2176(9)
O19_3 O 0.9030(5) 0.9875(4) 0.0147(8)
N2_3 N 0.9932(10) 0.8819(6) 0.7846(14)
C30_3 C 0.7992(10) 0.8990(7) 0.4617(15)
H13_3 H 0.7478 0.9032 0.4446
C31_3 C 0.8604(12) 0.8907(7) 0.5747(14)
H14_3 H 0.8523 0.8895 0.6354
C32_3 C 0.9338(11) 0.8842(7) 0.5945(17)
C33_3 C 0.9470(10) 0.8837(7) 0.5079(17)
H15_3 H 0.9970 0.8778 0.5211
C34_3 C 0.8835(13) 0.8923(7) 0.4045(15)
H16_3 H 0.8910 0.8919 0.3431
N3_3 N 0.8107(7) 0.9014(5) 0.3746(10)
H18_3 H 0.8558 0.9867 0.9929
O28_3 O 0.6387(7) 0.8754(5) 0.2010(11)
H21_3 H 0.657345 0.839631 0.205654
H22_3 H 0.58776 0.88029 0.126742
C5_4 C 0.6658(8) 0.4816(6) 0.3468(15)
C6_4 C 0.5800(8) 0.4871(6) 0.3007(14)
C7_4 C 0.5270(10) 0.4881(6) 0.1810(13)
H2_4 H 0.5468 0.4896 0.1334
C8_4 C 0.5511(9) 0.4871(6) 0.3688(12)
C13_4 C 0.7008(10) 0.3990(7) 0.0383(15)
H4_4 H 0.7522 0.4032 0.0554
C17_4 C 0.6165(13) 0.3923(7) 0.0955(15)
H7_4 H 0.6090 0.3919 0.1569
N1_4 N 0.6893(7) 0.4014(5) 0.1254(10)
O4_4 O 0.6877(5) 0.4758(4) 0.2824(9)
O6_4 O 0.5970(5) 0.4875(4) 0.4853(8)
H9_4 H 0.6442 0.4867 0.5071
O10_4 O 0.8613(7) 0.3754(5) 0.2990(11)
C22_4 C 0.3342(8) 0.4816(6) 0.1532(15)
C23_4 C 0.4200(8) 0.4871(6) 0.1993(14)
C24_4 C 0.4730(10) 0.4881(6) 0.3190(13)
H11_4 H 0.4532 0.4896 0.3666
C25_4 C 0.4489(9) 0.4871(6) 0.1312(12)
O15_2 O 0.3123(5) 0.4758(4) 0.2176(9)
O19_4 O 0.4030(5) 0.4875(4) 0.0147(8)
H19_4 H 0.842655 0.339631 0.294346
H20_4 H 0.91224 0.38029 0.373258
C14_4 C 0.6396(12) 0.3907(7) 0.9253(14)
H5_4 H 0.6477 0.3895 0.8646
C15_4 C 0.5662(11) 0.3842(7) 0.9055(17)
C16_4 C 0.5530(10) 0.3837(7) 0.9921(17)
H6_4 H 0.5030 0.3778 0.9789
N2_4 N 0.4932(10) 0.3819(6) 0.7846(14)
C30_4 C 0.2992(10) 0.3990(7) 0.4617(15)
H13_4 H 0.2478 0.4032 0.4446
C31_4 C 0.3604(12) 0.3907(7) 0.5747(14)
H14_4 H 0.3523 0.3895 0.6354
C32_4 C 0.4338(11) 0.3842(7) 0.5945(17)
C33_4 C 0.4470(10) 0.3837(7) 0.5079(17)
H15_4 H 0.4970 0.3778 0.5211
C34_4 C 0.3835(13) 0.3923(7) 0.4045(15)
H16_4 H 0.3910 0.3919 0.3431
N3_4 N 0.3107(7) 0.4014(5) 0.3746(10)
N4_4 N 0.5068(10) 0.3819(6) 0.7154(14)
H18_4 H 0.3558 0.4867 0.9929
O28_4 O 0.1387(7) 0.3754(5) 0.2010(11)
H21_4 H 0.157345 0.339631 0.205654
H22_4 H 0.0877603 0.38029 0.126742
loop_
_geom_bond_atom_site_label_1
_geom_bond_atom_site_label_2
_geom_bond_site_symmetry_1
_geom_bond_site_symmetry_2
C30 H13 1_555 1_555
C31 C30 1_555 1_555
H14 C31 1_555 1_555
C32 C31 1_555 1_555
C33 C32 1_555 1_555
H15 C33 1_555 1_555
C34 C33 1_555 1_555
H16 C34 1_555 1_555
N3 C30 1_555 1_555
O12 Zn3 1_555 1_555
O16 Zn3 1_555 1_555
O21 Zn3 1_555 1_555
O24 Zn3 1_555 1_555
O28 Zn3 1_555 1_555
Zn3 N3 1_555 1_555
C34 N3 1_555 1_555
O28 H21 1_555 1_555
O28 H22 1_555 1_555
C22 C23 1_555 1_555
C23 C24 1_555 1_555
H11 C24 1_555 1_555
O16 C22 1_555 1_555
O17 C22 1_555 1_555
O19 C25 1_555 1_555
C23 C25 1_555 1_555
H5 C14 1_555 1_555
C15 C14 1_555 1_555
C16 C15 1_555 1_555
H6 C16 1_555 1_555
C1 C2 1_555 1_555
C2 C3 1_555 1_555
C3 H1 1_555 1_555
C4 C2 1_555 1_555
C5 C6 1_555 1_555
C6 C7 1_555 1_555
C7 H2 1_555 1_555
C8 C6 1_555 1_555
C10 C11 1_555 1_555
C11 O7 1_555 1_555
C13 H4 1_555 1_555
H7 C17 1_555 1_555
N1 C13 1_555 1_555
O1 C1 1_555 1_555
O2 C1 1_555 1_555
O3 C4 1_555 1_555
H8 O3 1_555 1_555
O4 C5 1_555 1_555
O5 C5 1_555 1_555
O6 C8 1_555 1_555
H9 O6 1_555 1_555
O7 Zn1 1_555 1_555
O10 Zn1 1_555 1_555
Zn1 N1 1_555 1_555
Zn2 O2 1_555 1_555
C18 C19 1_555 1_555
C19 C20 1_555 1_555
C20 C4 1_555 1_555
H10 C20 1_555 1_555
C21 C3 1_555 1_555
C26 C27 1_555 1_555
C29 C11 1_555 1_555
H12 C29 1_555 1_555
O11 C18 1_555 1_555
O13 C18 1_555 1_555
O14 C21 1_555 1_555
H17 O14 1_555 1_555
O18 Zn7 1_555 1_555
O22 Zn4 1_555 1_555
O25 C26 1_555 1_555
O26 Zn2 1_555 1_555
O27 Zn7 1_555 1_555
Zn4 O11 1_555 1_555
Zn7 O13 1_555 1_555
Zn9 O25 1_555 1_555
C17 N1 1_555 1_555
O1 Zn1 1_555 1_555
O4 Zn1 1_555 1_555
O5 Zn2 1_555 1_555
O7 Zn2 1_555 1_555
O8 Zn1 1_555 1_555
C19 C21 1_555 1_555
C27 C29 1_555 1_555
O22 Zn7 1_555 1_555
O10 H19 1_555 1_555
O10 H20 1_555 1_555
C9 C10_2 1_555 1_555
C12 C10_2 1_555 1_555
H3 C12 1_555 1_555
O9 C9 1_555 1_555
C27_2 C28 1_555 1_555
C28 C12 1_555 1_555
O20 C28 1_555 1_555
Zn6 O20 1_555 1_555
Zn8 O9 1_555 1_555
Zn11 O20 1_555 1_555
O23 Zn6 1_555 1_555
C3_2 H1_2 1_555 1_555
Zn9 O2_2 1_555 1_555
C18_2 C19_2 1_555 1_555
C21_2 C3_2 1_555 1_555
C26_2 C27_3 1_555 1_555
H12_2 C29_2 1_555 1_555
O11_2 C18_2 1_555 1_555
O14_2 C21_2 1_555 1_555
H17_2 O14_2 1_555 1_555
O22_2 Zn4_2 1_555 1_555
O26 C26_2 1_555 1_555
Zn4_2 O11_2 1_555 1_555
C19_2 C21_2 1_555 1_555
C27_3 C29_2 1_555 1_555
C1_2 C2_2 1_555 1_555
C4_2 C2_2 1_555 1_555
C10_3 C11_2 1_555 1_555
C11_2 O21 1_555 1_555
O12 C1_2 1_555 1_555
O3_2 C4_2 1_555 1_555
H8_2 O3_2 1_555 1_555
C20_2 C4_2 1_555 1_555
H10_2 C20_2 1_555 1_555
O27_2 Zn7_2 1_555 1_555
Zn7_2 O13_2 1_555 1_555
C27_4 C28_2 1_555 1_555
O20_2 C28_2 1_555 1_555
Zn6_2 O20_2 1_555 1_555
O23_2 Zn6_2 1_555 1_555
C9_2 C10_4 1_555 1_555
C12_2 C10_4 1_555 1_555
H3_2 C12_2 1_555 1_555
O9_2 C9_2 1_555 1_555
Zn11 O9_2 1_555 1_555
H5_2 C14_2 1_555 1_555
C15_2 C14_2 1_555 1_555
C16_2 C15_2 1_555 1_555
H6_2 C16_2 1_555 1_555
N2_2 C15_2 1_555 1_555
C30_2 H13_2 1_555 1_555
C31_2 C30_2 1_555 1_555
H14_2 C31_2 1_555 1_555
C32_2 C31_2 1_555 1_555
C33_2 C32_2 1_555 1_555
H15_2 C33_2 1_555 1_555
C34_2 C33_2 1_555 1_555
H16_2 C34_2 1_555 1_555
N3_2 C30_2 1_555 1_555
N4_2 N2_2 1_555 1_555
O12_2 Zn3_2 1_555 1_555
O16_2 Zn3_2 1_555 1_555
O21_2 Zn3_2 1_555 1_555
O24_2 Zn3_2 1_555 1_555
O28_2 Zn3_2 1_555 1_555
Zn3_2 N3_2 1_555 1_555
C32_2 N4_2 1_555 1_555
C34_2 N3_2 1_555 1_555
O28_2 H21_2 1_555 1_555
O28_2 H22_2 1_555 1_555
C1_3 C2_3 1_555 1_555
C2_3 C3_3 1_555 1_555
C3_3 H1_3 1_555 1_555
C4_3 C2_3 1_555 1_555
C5_2 C6_2 1_555 1_555
C6_2 C7_2 1_555 1_555
C7_2 H2_2 1_555 1_555
C8_2 C6_2 1_555 1_555
C9_3 C10_5 1_555 1_555
C10_5 C11_3 1_555 1_555
C11_3 O7_2 1_555 1_555
C13_2 H4_2 1_555 1_555
H7_2 C17_2 1_555 1_555
N1_2 C13_2 1_555 1_555
O1_2 C1_3 1_555 1_555
O2_3 C1_3 1_555 1_555
O3_3 C4_3 1_555 1_555
H8_3 O3_3 1_555 1_555
O4_2 C5_2 1_555 1_555
O5_2 C5_2 1_555 1_555
O6_2 C8_2 1_555 1_555
H9_2 O6_2 1_555 1_555
O7_2 Zn1_2 1_555 1_555
O8_2 C9_3 1_555 1_555
O27_2 C9_3 1_555 1_555
O10_2 Zn1_2 1_555 1_555
Zn1_2 N1_2 1_555 1_555
Zn2_2 O2_3 1_555 1_555
C18_3 C19_3 1_555 1_555
C19_3 C20_3 1_555 1_555
C20_3 C4_3 1_555 1_555
H10_3 C20_3 1_555 1_555
C21_3 C3_3 1_555 1_555
C22_2 C23_2 1_555 1_555
C23_2 C24_2 1_555 1_555
C24_2 C8_2 1_555 1_555
H11_2 C24_2 1_555 1_555
C25_2 C7_2 1_555 1_555
C29_3 C11_3 1_555 1_555
H12_3 C29_3 1_555 1_555
O11_3 C18_3 1_555 1_555
O13_3 C18_3 1_555 1_555
O14_3 C21_3 1_555 1_555
H17_3 O14_3 1_555 1_555
O16_2 C22_2 1_555 1_555
O17_2 C22_2 1_555 1_555
O18_3 Zn11 1_555 1_555
O19_2 C25_2 1_555 1_555
O26_2 Zn2_2 1_555 1_555
Zn6 O11_3 1_555 1_555
Zn11 O13_3 1_555 1_555
C17_2 N1_2 1_555 1_555
O1_2 Zn1_2 1_555 1_555
O4_2 Zn1_2 1_555 1_555
O5_2 Zn2_2 1_555 1_555
O7_2 Zn2_2 1_555 1_555
O8_2 Zn1_2 1_555 1_555
C19_3 C21_3 1_555 1_555
C23_2 C25_2 1_555 1_555
O10_2 H19_2 1_555 1_555
O10_2 H20_2 1_555 1_555
H3_3 C12_3 1_555 1_555
C26_3 C27_5 1_555 1_555
C27_5 C28_3 1_555 1_555
C28_3 C12_3 1_555 1_555
O22 C28_3 1_555 1_555
O23_3 C26_3 1_555 1_555
O25_2 C26_3 1_555 1_555
Zn9_2 O25_2 1_555 1_555
O23_3 Zn4 1_555 1_555
C26_4 C27_6 1_555 1_555
C27_6 C28_4 1_555 1_555
O22_2 C28_4 1_555 1_555
O23_4 C26_4 1_555 1_555
O26_2 C26_4 1_555 1_555
O23_4 Zn4_2 1_555 1_555
H3_4 C12_4 1_555 1_555
C3_4 H1_4 1_555 1_555
Zn9_2 O2_4 1_555 1_555
C18_4 C19_4 1_555 1_555
C21_4 C3_4 1_555 1_555
H12_4 C29_4 1_555 1_555
O11_4 C18_4 1_555 1_555
O14_4 C21_4 1_555 1_555
H17_4 O14_4 1_555 1_555
Zn6_2 O11_4 1_555 1_555
C19_4 C21_4 1_555 1_555
C1_4 C2_4 1_555 1_555
C4_4 C2_4 1_555 1_555
C9_4 C10_6 1_555 1_555
C10_6 C11_4 1_555 1_555
C11_4 O21_2 1_555 1_555
O12_2 C1_4 1_555 1_555
O3_4 C4_4 1_555 1_555
H8_4 O3_4 1_555 1_555
O24_2 C9_4 1_555 1_555
O27 C9_4 1_555 1_555
C20_4 C4_4 1_555 1_555
H10_4 C20_4 1_555 1_555
Zn8 O13_4 1_555 1_555
C5_3 C6_3 1_555 1_555
C6_3 C7_3 1_555 1_555
C7_3 H2_3 1_555 1_555
C8_3 C6_3 1_555 1_555
C13_3 H4_3 1_555 1_555
H7_3 C17_3 1_555 1_555
N1_3 C13_3 1_555 1_555
O4_3 C5_3 1_555 1_555
O18_3 C5_3 1_555 1_555
O6_3 C8_3 1_555 1_555
H9_3 O6_3 1_555 1_555
O10_3 Zn6 1_555 1_555
Zn6 N1_3 1_555 1_555
C17_3 N1_3 1_555 1_555
O4_3 Zn6 1_555 1_555
O10_3 H19_3 1_555 1_555
O10_3 H20_3 1_555 1_555
H5_3 C14_3 1_555 1_555
C15_3 C14_3 1_555 1_555
C16_3 C15_3 1_555 1_555
H6_3 C16_3 1_555 1_555
C22_3 C23_3 1_555 1_555
C23_3 C24_3 1_555 1_555
H11_3 C24_3 1_555 1_555
O15 C22_3 1_555 1_555
O18_4 C22_3 1_555 1_555
O19_3 C25_3 1_555 1_555
Zn6_2 O15 1_555 1_555
C23_3 C25_3 1_555 1_555
C30_3 H13_3 1_555 1_555
C31_3 C30_3 1_555 1_555
H14_3 C31_3 1_555 1_555
C32_3 C31_3 1_555 1_555
C33_3 C32_3 1_555 1_555
H15_3 C33_3 1_555 1_555
C34_3 C33_3 1_555 1_555
H16_3 C34_3 1_555 1_555
N3_3 C30_3 1_555 1_555
O28_3 Zn6_2 1_555 1_555
Zn6_2 N3_3 1_555 1_555
C34_3 N3_3 1_555 1_555
O28_3 H21_3 1_555 1_555
O28_3 H22_3 1_555 1_555
C5_4 C6_4 1_555 1_555
C6_4 C7_4 1_555 1_555
C7_4 H2_4 1_555 1_555
C8_4 C6_4 1_555 1_555
C13_4 H4_4 1_555 1_555
H7_4 C17_4 1_555 1_555
N1_4 C13_4 1_555 1_555
O4_4 C5_4 1_555 1_555
O18 C5_4 1_555 1_555
O6_4 C8_4 1_555 1_555
H9_4 O6_4 1_555 1_555
O10_4 Zn4 1_555 1_555
Zn4 N1_4 1_555 1_555
C22_4 C23_4 1_555 1_555
C23_4 C24_4 1_555 1_555
C24_4 C8_4 1_555 1_555
H11_4 C24_4 1_555 1_555
C25_4 C7_4 1_555 1_555
O15_2 C22_4 1_555 1_555
O18_2 C22_4 1_555 1_555
O19_4 C25_4 1_555 1_555
Zn4_2 O15_2 1_555 1_555
C17_4 N1_4 1_555 1_555
O4_4 Zn4 1_555 1_555
C23_4 C25_4 1_555 1_555
O10_4 H19_4 1_555 1_555
O10_4 H20_4 1_555 1_555
H5_4 C14_4 1_555 1_555
C15_4 C14_4 1_555 1_555
C16_4 C15_4 1_555 1_555
H6_4 C16_4 1_555 1_555
N2_4 C15_4 1_555 1_555
C30_4 H13_4 1_555 1_555
C31_4 C30_4 1_555 1_555
H14_4 C31_4 1_555 1_555
C32_4 C31_4 1_555 1_555
C33_4 C32_4 1_555 1_555
H15_4 C33_4 1_555 1_555
C34_4 C33_4 1_555 1_555
H16_4 C34_4 1_555 1_555
N3_4 C30_4 1_555 1_555
N4_4 N2_4 1_555 1_555
O28_4 Zn4_2 1_555 1_555
Zn4_2 N3_4 1_555 1_555
C32_4 N4_4 1_555 1_555
C34_4 N3_4 1_555 1_555
O28_4 H21_4 1_555 1_555
O28_4 H22_4 1_555 1_555

#END
