
###############################################################################
#
# This file contains modified crystal structure data generated from the
# MOF subset of the Cambridge Structural Database (CSD) v543 
# hosted by the Cambridge Crystallographic Data Centre (CCDC).
#
# This work is licensed under the Creative Commons
# Attribution-NonCommercial-ShareAlike 4.0 International License.
# To view a copy of this license, visit
# http://creativecommons.org/licenses/by-nc-sa/4.0/
# or send a letter to
# Creative Commons, PO Box 1866, Mountain View, CA 94042, USA.
#
# CIF created using the CSD Python API on 29 September 2022
# The structure has been converted into the P1 space group
# The structure has a 3D framework
# The original CSD entry TASYUJ is in the cubic crystal system
# The original CSD entry TASYUJ is in a Sohncke space group
# The framework has been calculated to contain at least 10.0% void space
# The void calculation uses a probe of radius 1.32A, grid spacing 0.4
# The framework is charged, counterions have been retained in the structure
# H atom positions have been added when not included in the experimental data
# Generated hydrogen atom positions removed from atoms on special positions
#
###############################################################################

data_TASYUJ
_chemical_formula_moiety         '(C528 H480 Cu38 N176 O174 44+)n'
_symmetry_cell_setting           triclinic
_symmetry_space_group_name_H-M   'P 1'
_symmetry_Int_Tables_number      1
_space_group_name_Hall           'P 1'
loop_
_symmetry_equiv_pos_site_id
_symmetry_equiv_pos_as_xyz
1 x,y,z
_cell_length_a                   32.452(2)
_cell_length_b                   32.452(2)
_cell_length_c                   32.452(2)
_cell_angle_alpha                90
_cell_angle_beta                 90
_cell_angle_gamma                90
_cell_volume                     34176.2
loop_
_atom_site_label
_atom_site_type_symbol
_atom_site_fract_x
_atom_site_fract_y
_atom_site_fract_z
Cu7 Cu -0.0000 -0.0000 0.76109(2)
Cu6 Cu -0.0000 0.76109(2) -0.0000
Cu6_2 Cu -0.0000 0.76109(2) 1.0000
Cu7_2 Cu -0.0000 1.0000 0.76109(2)
Cu2 Cu 0.76109(2) -0.0000 -0.0000
O1 O 0.83226(12) -0.0000 -0.0000
Cu4 Cu 0.7500 0.2500 0.2500
Cu13 Cu 0.73891(2) 0.5000 0.5000
N10 N 0.74887(6) 0.18515(6) 0.25690(6)
N14 N 0.75113(6) 0.24310(6) 0.31485(6)
O3 O 0.66774(12) 0.5000 0.5000
O10 O 0.70264(7) 0.06049(7) 0.20190(7)
O14 O 0.79736(7) 0.29810(7) 0.43951(7)
N24 N 0.75833(8) 0.02886(7) 0.05477(6)
N33 N 0.74167(8) 0.44523(6) 0.47114(7)
N34 N 0.74167(8) 0.52886(7) 0.44523(6)
N35 N 0.74167(8) 0.47114(7) 0.55477(6)
N36 N 0.74167(8) 0.55477(6) 0.52886(7)
C13 C 0.78662(10) 0.07666(9) 0.10267(8)
C22 C 0.71338(10) 0.39733(8) 0.42334(9)
H10 H 0.8081 0.0954 0.1094
H19 H 0.6919 0.3906 0.4046
N43 N 0.75436(6) 0.09200(6) 0.16655(6)
N47 N 0.74564(6) 0.33345(6) 0.40800(6)
H26 H 0.7732 0.1113 0.1692
H30 H 0.7268 0.3308 0.3887
C24 C 0.78759(9) 0.05605(7) 0.06573(8)
C33 C 0.71241(9) 0.43427(8) 0.44395(7)
H32 H 0.8097 0.0612 0.0473
H41 H 0.6903 0.4527 0.4388
C40 C 0.73187(10) 0.10387(8) 0.27435(9)
C44 C 0.76813(10) 0.22565(9) 0.39613(8)
H48 H 0.7245 0.0762 0.2802
H52 H 0.7755 0.2198 0.4238
C51 C 0.74661(8) 0.17186(8) 0.29651(7)
C55 C 0.75339(8) 0.20349(7) 0.32814(8)
C57 C 0.72391(9) 0.04143(9) 0.11925(9)
C66 C 0.77609(9) 0.38075(9) 0.45857(9)
H54 H 0.7015 0.0357 0.1372
H63 H 0.7985 0.3628 0.4643
C68 C 0.75440(9) 0.07038(8) 0.13042(8)
C77 C 0.74560(9) 0.36958(8) 0.42962(8)
C84 C 0.74341(8) 0.15818(8) 0.22673(7)
C88 C 0.75659(8) 0.27327(7) 0.34182(8)
H70 H 0.7450 0.1674 0.1990
H74 H 0.7550 0.3010 0.3326
C95 C 0.73896(9) 0.13093(8) 0.30561(8)
C99 C 0.76104(9) 0.19439(8) 0.36907(8)
H81 H 0.7387 0.1218 0.3334
H85 H 0.7613 0.1666 0.3782
C101 C 0.72718(10) 0.02194(9) 0.08226(9)
C110 C 0.77282(10) 0.41774(9) 0.47806(9)
H87 H 0.7066 0.0024 0.0751
H96 H 0.7934 0.4249 0.4976
C117 C 0.72827(9) 0.08678(9) 0.19878(8)
C121 C 0.77173(9) 0.30122(8) 0.41322(9)
C128 C 0.73547(9) 0.11681(8) 0.23443(8)
C132 C 0.76453(9) 0.26557(8) 0.38319(8)
H98 H 0.84246 0.0134486 0.0255226
Cu2_2 Cu 0.76109(2) -0.0000 1.0000
O1_2 O 0.83226(12) -0.0000 1.0000
Cu3 Cu 0.7500 0.2500 0.7500
Cu7_3 Cu 1.0000 -0.0000 0.76109(2)
N9 N 0.74887(6) 0.25690(6) 0.81485(6)
N13 N 0.75113(6) 0.31485(6) 0.75690(6)
N15 N 0.81485(6) 0.25113(6) 0.74310(6)
N16 N 0.74310(6) 0.18515(6) 0.74887(6)
N17 N 0.68515(6) 0.24310(6) 0.75113(6)
N18 N 0.75690(6) 0.24887(6) 0.68515(6)
O9 O 0.70264(7) 0.20190(7) 0.93951(7)
O13 O 0.79736(7) 0.43951(7) 0.70190(7)
N23 N 0.75833(8) 0.05477(6) 0.97114(7)
C12 C 0.78662(10) 0.10267(8) 0.92334(9)
C21 C 0.71338(10) 0.42334(9) 0.60267(8)
H9 H 0.8081 0.1094 0.9046
H18 H 0.6919 0.4046 0.6094
N42 N 0.75436(6) 0.16655(6) 0.90800(6)
N46 N 0.74564(6) 0.40800(6) 0.66655(6)
H25 H 0.7732 0.1692 0.8887
H29 H 0.7268 0.3887 0.6692
C23 C 0.78759(9) 0.06573(8) 0.94395(7)
C32 C 0.71241(9) 0.44395(7) 0.56573(8)
H31 H 0.8097 0.0473 0.9388
H40 H 0.6903 0.4388 0.5473
C39 C 0.73187(10) 0.27435(9) 0.89613(8)
C43 C 0.76813(10) 0.39613(8) 0.77435(9)
H47 H 0.7245 0.2802 0.9238
H51 H 0.7755 0.4238 0.7802
C50 C 0.74661(8) 0.29651(7) 0.82814(8)
C54 C 0.75339(8) 0.32814(8) 0.79651(7)
C56 C 0.72391(9) 0.11925(9) 0.95857(9)
C65 C 0.77609(9) 0.45857(9) 0.61925(9)
H53 H 0.7015 0.1372 0.9643
H62 H 0.7985 0.4643 0.6372
C67 C 0.75440(9) 0.13042(8) 0.92962(8)
C76 C 0.74560(9) 0.42962(8) 0.63042(8)
C83 C 0.74341(8) 0.22673(7) 0.84182(8)
C87 C 0.75659(8) 0.34182(8) 0.72673(7)
H69 H 0.7450 0.1990 0.8326
H73 H 0.7550 0.3326 0.6990
C94 C 0.73896(9) 0.30561(8) 0.86907(8)
C98 C 0.76104(9) 0.36907(8) 0.80561(8)
H80 H 0.7387 0.3334 0.8782
H84 H 0.7613 0.3782 0.8334
C100 C 0.72718(10) 0.08226(9) 0.97806(9)
C109 C 0.77282(10) 0.47806(9) 0.58226(9)
H86 H 0.7066 0.0751 0.9976
H95 H 0.7934 0.4976 0.5751
C116 C 0.72827(9) 0.19878(8) 0.91322(9)
C120 C 0.77173(9) 0.41322(9) 0.69878(8)
C127 C 0.73547(9) 0.23443(8) 0.88319(8)
C131 C 0.76453(9) 0.38319(8) 0.73443(8)
H97 H 0.84246 0.0153789 0.975592
Cu2_3 Cu 0.76109(2) 1.0000 -0.0000
O1_3 O 0.83226(12) 1.0000 -0.0000
Cu5 Cu 0.7500 0.7500 0.2500
Cu6_3 Cu 1.0000 0.76109(2) -0.0000
N11 N 0.74887(6) 0.74310(6) 0.18515(6)
N12 N 0.75113(6) 0.68515(6) 0.24310(6)
N19 N 0.74310(6) 0.81485(6) 0.25113(6)
N20 N 0.81485(6) 0.74887(6) 0.25690(6)
N21 N 0.68515(6) 0.75690(6) 0.24887(6)
N22 N 0.75690(6) 0.75113(6) 0.31485(6)
O11 O 0.70264(7) 0.79810(7) 0.06049(7)
O12 O 0.79736(7) 0.56049(7) 0.29810(7)
N25 N 0.75833(8) 0.94523(6) 0.02886(7)
C14 C 0.78662(10) 0.89733(8) 0.07666(9)
C20 C 0.71338(10) 0.57666(9) 0.39733(8)
H11 H 0.8081 0.8906 0.0954
H17 H 0.6919 0.5954 0.3906
N44 N 0.75436(6) 0.83345(6) 0.09200(6)
N45 N 0.74564(6) 0.59200(6) 0.33345(6)
H27 H 0.7732 0.8308 0.1113
H28 H 0.7268 0.6113 0.3308
C25 C 0.78759(9) 0.93427(8) 0.05605(7)
C31 C 0.71241(9) 0.55605(7) 0.43427(8)
H33 H 0.8097 0.9527 0.0612
H39 H 0.6903 0.5612 0.4527
C41 C 0.73187(10) 0.72565(9) 0.10387(8)
C42 C 0.76813(10) 0.60387(8) 0.22565(9)
H49 H 0.7245 0.7198 0.0762
H50 H 0.7755 0.5762 0.2198
C52 C 0.74661(8) 0.70349(7) 0.17186(8)
C53 C 0.75339(8) 0.67186(8) 0.20349(7)
C58 C 0.72391(9) 0.88075(9) 0.04143(9)
C64 C 0.77609(9) 0.54143(9) 0.38075(9)
H55 H 0.7015 0.8628 0.0357
H61 H 0.7985 0.5357 0.3628
C69 C 0.75440(9) 0.86958(8) 0.07038(8)
C75 C 0.74560(9) 0.57038(8) 0.36958(8)
C85 C 0.74341(8) 0.77327(7) 0.15818(8)
C86 C 0.75659(8) 0.65818(8) 0.27327(7)
H71 H 0.7450 0.8010 0.1674
H72 H 0.7550 0.6674 0.3010
C96 C 0.73896(9) 0.69439(8) 0.13093(8)
C97 C 0.76104(9) 0.63093(8) 0.19439(8)
H82 H 0.7387 0.6666 0.1218
H83 H 0.7613 0.6218 0.1666
C102 C 0.72718(10) 0.91774(9) 0.02194(9)
C108 C 0.77282(10) 0.52194(9) 0.41774(9)
H88 H 0.7066 0.9249 0.0024
H94 H 0.7934 0.5024 0.4249
C118 C 0.72827(9) 0.80122(8) 0.08678(9)
C119 C 0.77173(9) 0.58678(9) 0.30122(8)
C129 C 0.73547(9) 0.76557(8) 0.11681(8)
C130 C 0.76453(9) 0.61681(8) 0.26557(8)
Cu1 Cu 0.7500 0.7500 0.7500
Cu2_4 Cu 0.76109(2) 1.0000 1.0000
N1 N 0.74887(6) 0.81485(6) 0.74310(6)
O1_4 O 0.83226(12) 1.0000 1.0000
O2 O 0.70264(7) 0.93951(7) 0.79810(7)
N2 N 0.75833(8) 0.97114(7) 0.94523(6)
C1 C 0.78662(10) 0.92334(9) 0.89733(8)
H1 H 0.8081 0.9046 0.8906
N3 N 0.75436(6) 0.90800(6) 0.83345(6)
H2 H 0.7732 0.8887 0.8308
C2 C 0.78759(9) 0.94395(7) 0.93427(8)
H3 H 0.8097 0.9388 0.9527
C3 C 0.73187(10) 0.89613(8) 0.72565(9)
H4 H 0.7245 0.9238 0.7198
C4 C 0.74661(8) 0.82814(8) 0.70349(7)
C5 C 0.72391(9) 0.95857(9) 0.88075(9)
H5 H 0.7015 0.9643 0.8628
C6 C 0.75440(9) 0.92962(8) 0.86958(8)
C7 C 0.74341(8) 0.84182(8) 0.77327(7)
H6 H 0.7450 0.8326 0.8010
C8 C 0.73896(9) 0.86907(8) 0.69439(8)
H7 H 0.7387 0.8782 0.6666
C9 C 0.72718(10) 0.97806(9) 0.91774(9)
H8 H 0.7066 0.9976 0.9249
C10 C 0.72827(9) 0.91322(9) 0.80122(8)
C11 C 0.73547(9) 0.88319(8) 0.76557(8)
Cu6_4 Cu 1.0000 0.76109(2) 1.0000
Cu7_4 Cu 1.0000 1.0000 0.76109(2)
Cu8 Cu 0.5000 0.73891(2) 0.5000
Cu10 Cu 0.5000 0.5000 0.73891(2)
N4 N 0.74310(6) 0.74887(6) 0.81485(6)
N5 N 0.81485(6) 0.74310(6) 0.74887(6)
N6 N 0.68515(6) 0.75113(6) 0.75690(6)
N7 N 0.75113(6) 0.75690(6) 0.68515(6)
N8 N 0.75690(6) 0.68515(6) 0.75113(6)
O4 O 0.79810(7) 0.70264(7) 0.93951(7)
O5 O 0.93951(7) 0.79810(7) 0.70264(7)
O6 O 0.56049(7) 0.79736(7) 0.70190(7)
O7 O 0.79736(7) 0.70190(7) 0.56049(7)
O8 O 0.70190(7) 0.56049(7) 0.79736(7)
N26 N 0.94523(6) 0.75833(8) 0.97114(7)
N27 N 0.97114(7) 0.94523(6) 0.75833(8)
N28 N 0.52886(7) 0.74167(8) 0.55477(6)
N30 N 0.55477(6) 0.52886(7) 0.74167(8)
C15 C 0.89733(8) 0.78662(10) 0.92334(9)
C16 C 0.92334(9) 0.89733(8) 0.78662(10)
C17 C 0.57666(9) 0.71338(10) 0.60267(8)
C18 C 0.71338(10) 0.60267(8) 0.57666(9)
C19 C 0.60267(8) 0.57666(9) 0.71338(10)
H12 H 0.8906 0.8081 0.9046
H13 H 0.9046 0.8906 0.8081
H14 H 0.5954 0.6919 0.6094
H15 H 0.6919 0.6094 0.5954
H16 H 0.6094 0.5954 0.6919
N37 N 0.83345(6) 0.75436(6) 0.90800(6)
N38 N 0.90800(6) 0.83345(6) 0.75436(6)
N39 N 0.59200(6) 0.74564(6) 0.66655(6)
N40 N 0.74564(6) 0.66655(6) 0.59200(6)
N41 N 0.66655(6) 0.59200(6) 0.74564(6)
H20 H 0.8308 0.7732 0.8887
H21 H 0.8887 0.8308 0.7732
H22 H 0.6113 0.7268 0.6692
H23 H 0.7268 0.6692 0.6113
H24 H 0.6692 0.6113 0.7268
C26 C 0.93427(8) 0.78759(9) 0.94395(7)
C27 C 0.94395(7) 0.93427(8) 0.78759(9)
C28 C 0.55605(7) 0.71241(9) 0.56573(8)
C29 C 0.71241(9) 0.56573(8) 0.55605(7)
C30 C 0.56573(8) 0.55605(7) 0.71241(9)
H34 H 0.9527 0.8097 0.9388
H35 H 0.9388 0.9527 0.8097
H36 H 0.5612 0.6903 0.5473
H37 H 0.6903 0.5473 0.5612
H38 H 0.5473 0.5612 0.6903
C34 C 0.76813(10) 0.77435(9) 0.60387(8)
C35 C 0.72565(9) 0.73187(10) 0.89613(8)
C36 C 0.89613(8) 0.72565(9) 0.73187(10)
C37 C 0.60387(8) 0.76813(10) 0.77435(9)
C38 C 0.77435(9) 0.60387(8) 0.76813(10)
H42 H 0.7755 0.7802 0.5762
H43 H 0.7198 0.7245 0.9238
H44 H 0.9238 0.7198 0.7245
H45 H 0.5762 0.7755 0.7802
H46 H 0.7802 0.5762 0.7755
C45 C 0.75339(8) 0.79651(7) 0.67186(8)
C46 C 0.70349(7) 0.74661(8) 0.82814(8)
C47 C 0.82814(8) 0.70349(7) 0.74661(8)
C48 C 0.67186(8) 0.75339(8) 0.79651(7)
C49 C 0.79651(7) 0.67186(8) 0.75339(8)
C59 C 0.88075(9) 0.72391(9) 0.95857(9)
C60 C 0.95857(9) 0.88075(9) 0.72391(9)
C61 C 0.54143(9) 0.77609(9) 0.61925(9)
C62 C 0.77609(9) 0.61925(9) 0.54143(9)
C63 C 0.61925(9) 0.54143(9) 0.77609(9)
H56 H 0.8628 0.7015 0.9643
H57 H 0.9643 0.8628 0.7015
H58 H 0.5357 0.7985 0.6372
H59 H 0.7985 0.6372 0.5357
H60 H 0.6372 0.5357 0.7985
C70 C 0.86958(8) 0.75440(9) 0.92962(8)
C71 C 0.92962(8) 0.86958(8) 0.75440(9)
C72 C 0.57038(8) 0.74560(9) 0.63042(8)
C73 C 0.74560(9) 0.63042(8) 0.57038(8)
C74 C 0.63042(8) 0.57038(8) 0.74560(9)
C78 C 0.77327(7) 0.74341(8) 0.84182(8)
C79 C 0.84182(8) 0.77327(7) 0.74341(8)
C80 C 0.65818(8) 0.75659(8) 0.72673(7)
C81 C 0.75659(8) 0.72673(7) 0.65818(8)
C82 C 0.72673(7) 0.65818(8) 0.75659(8)
H64 H 0.8010 0.7450 0.8326
H65 H 0.8326 0.8010 0.7450
H66 H 0.6674 0.7550 0.6990
H67 H 0.7550 0.6990 0.6674
H68 H 0.6990 0.6674 0.7550
C89 C 0.76104(9) 0.80561(8) 0.63093(8)
C90 C 0.69439(8) 0.73896(9) 0.86907(8)
C91 C 0.86907(8) 0.69439(8) 0.73896(9)
C92 C 0.63093(8) 0.76104(9) 0.80561(8)
C93 C 0.80561(8) 0.63093(8) 0.76104(9)
H75 H 0.7613 0.8334 0.6218
H76 H 0.6666 0.7387 0.8782
H77 H 0.8782 0.6666 0.7387
H78 H 0.6218 0.7613 0.8334
H79 H 0.8334 0.6218 0.7613
C103 C 0.91774(9) 0.72718(10) 0.97806(9)
C104 C 0.97806(9) 0.91774(9) 0.72718(10)
C105 C 0.52194(9) 0.77282(10) 0.58226(9)
C106 C 0.77282(10) 0.58226(9) 0.52194(9)
C107 C 0.58226(9) 0.52194(9) 0.77282(10)
H89 H 0.9249 0.7066 0.9976
H90 H 0.9976 0.9249 0.7066
H91 H 0.5024 0.7934 0.5751
H92 H 0.7934 0.5751 0.5024
H93 H 0.5751 0.5024 0.7934
C111 C 0.80122(8) 0.72827(9) 0.91322(9)
C112 C 0.91322(9) 0.80122(8) 0.72827(9)
C113 C 0.58678(9) 0.77173(9) 0.69878(8)
C114 C 0.77173(9) 0.69878(8) 0.58678(9)
C115 C 0.69878(8) 0.58678(9) 0.77173(9)
C122 C 0.76557(8) 0.73547(9) 0.88319(8)
C123 C 0.88319(8) 0.76557(8) 0.73547(9)
C124 C 0.61681(8) 0.76453(9) 0.73443(8)
C125 C 0.76453(9) 0.73443(8) 0.61681(8)
C126 C 0.73443(8) 0.61681(8) 0.76453(9)
Cu6_5 Cu 0.23891(2) -0.0000 -0.0000
Cu6_6 Cu 0.23891(2) -0.0000 1.0000
O1_5 O 0.0000 0.83226(12) -0.0000
Cu5_2 Cu 0.2500 0.7500 0.2500
Cu6_7 Cu 0.23891(2) 1.0000 -0.0000
N11_2 N 0.25690(6) 0.74887(6) 0.18515(6)
N12_2 N 0.31485(6) 0.75113(6) 0.24310(6)
N19_2 N 0.18515(6) 0.74310(6) 0.25113(6)
N20_2 N 0.25113(6) 0.81485(6) 0.25690(6)
N21_2 N 0.24310(6) 0.68515(6) 0.24887(6)
N22_2 N 0.24887(6) 0.75690(6) 0.31485(6)
O11_2 O 0.20190(7) 0.70264(7) 0.06049(7)
O12_2 O 0.43951(7) 0.79736(7) 0.29810(7)
N25_2 N 0.05477(6) 0.75833(8) 0.02886(7)
N31 N 0.47114(7) 0.74167(8) 0.44523(6)
C14_2 C 0.10267(8) 0.78662(10) 0.07666(9)
C20_2 C 0.42334(9) 0.71338(10) 0.39733(8)
H11_2 H 0.1094 0.8081 0.0954
H17_2 H 0.4046 0.6919 0.3906
N44_2 N 0.16655(6) 0.75436(6) 0.09200(6)
N45_2 N 0.40800(6) 0.74564(6) 0.33345(6)
H27_2 H 0.1692 0.7732 0.1113
H28_2 H 0.3887 0.7268 0.3308
C25_2 C 0.06573(8) 0.78759(9) 0.05605(7)
C31_2 C 0.44395(7) 0.71241(9) 0.43427(8)
H33_2 H 0.0473 0.8097 0.0612
H39_2 H 0.4388 0.6903 0.4527
C41_2 C 0.27435(9) 0.73187(10) 0.10387(8)
C42_2 C 0.39613(8) 0.76813(10) 0.22565(9)
H49_2 H 0.2802 0.7245 0.0762
H50_2 H 0.4238 0.7755 0.2198
C52_2 C 0.29651(7) 0.74661(8) 0.17186(8)
C53_2 C 0.32814(8) 0.75339(8) 0.20349(7)
C58_2 C 0.11925(9) 0.72391(9) 0.04143(9)
C64_2 C 0.45857(9) 0.77609(9) 0.38075(9)
H55_2 H 0.1372 0.7015 0.0357
H61_2 H 0.4643 0.7985 0.3628
C69_2 C 0.13042(8) 0.75440(9) 0.07038(8)
C75_2 C 0.42962(8) 0.74560(9) 0.36958(8)
C85_2 C 0.22673(7) 0.74341(8) 0.15818(8)
C86_2 C 0.34182(8) 0.75659(8) 0.27327(7)
H71_2 H 0.1990 0.7450 0.1674
H72_2 H 0.3326 0.7550 0.3010
C96_2 C 0.30561(8) 0.73896(9) 0.13093(8)
C97_2 C 0.36907(8) 0.76104(9) 0.19439(8)
H82_2 H 0.3334 0.7387 0.1218
H83_2 H 0.3782 0.7613 0.1666
C102_2 C 0.08226(9) 0.72718(10) 0.02194(9)
C108_2 C 0.47806(9) 0.77282(10) 0.41774(9)
H88_2 H 0.0751 0.7066 0.0024
H94_2 H 0.4976 0.7934 0.4249
C118_2 C 0.19878(8) 0.72827(9) 0.08678(9)
C119_2 C 0.41322(9) 0.77173(9) 0.30122(8)
C129_2 C 0.23443(8) 0.73547(9) 0.11681(8)
C130_2 C 0.38319(8) 0.76453(9) 0.26557(8)
Cu1_2 Cu 0.2500 0.7500 0.7500
N1_2 N 0.18515(6) 0.74887(6) 0.74310(6)
O1_6 O 0.0000 0.83226(12) 1.0000
O2_2 O 0.06049(7) 0.70264(7) 0.79810(7)
N2_2 N 0.02886(7) 0.75833(8) 0.94523(6)
C1_2 C 0.07666(9) 0.78662(10) 0.89733(8)
H1_2 H 0.0954 0.8081 0.8906
N3_2 N 0.09200(6) 0.75436(6) 0.83345(6)
H2_2 H 0.1113 0.7732 0.8308
C2_2 C 0.05605(7) 0.78759(9) 0.93427(8)
H3_2 H 0.0612 0.8097 0.9527
C3_2 C 0.10387(8) 0.73187(10) 0.72565(9)
H4_2 H 0.0762 0.7245 0.7198
C4_2 C 0.17186(8) 0.74661(8) 0.70349(7)
C5_2 C 0.04143(9) 0.72391(9) 0.88075(9)
H5_2 H 0.0357 0.7015 0.8628
C6_2 C 0.07038(8) 0.75440(9) 0.86958(8)
C7_2 C 0.15818(8) 0.74341(8) 0.77327(7)
H6_2 H 0.1674 0.7450 0.8010
C8_2 C 0.13093(8) 0.73896(9) 0.69439(8)
H7_2 H 0.1218 0.7387 0.6666
C9_2 C 0.02194(9) 0.72718(10) 0.91774(9)
H8_2 H 0.0024 0.7066 0.9249
C10_2 C 0.08678(9) 0.72827(9) 0.80122(8)
C11_2 C 0.11681(8) 0.73547(9) 0.76557(8)
Cu6_8 Cu 0.23891(2) 1.0000 1.0000
Cu8_2 Cu 0.26109(2) 0.5000 0.5000
N4_2 N 0.25113(6) 0.74310(6) 0.81485(6)
N5_2 N 0.25690(6) 0.81485(6) 0.74887(6)
N6_2 N 0.24887(6) 0.68515(6) 0.75690(6)
N7_2 N 0.24310(6) 0.75113(6) 0.68515(6)
N8_2 N 0.31485(6) 0.75690(6) 0.75113(6)
O4_2 O 0.29736(7) 0.79810(7) 0.93951(7)
O5_2 O 0.20190(7) 0.93951(7) 0.70264(7)
O6_2 O 0.20264(7) 0.56049(7) 0.70190(7)
O7_2 O 0.29810(7) 0.79736(7) 0.56049(7)
O8_2 O 0.43951(7) 0.70190(7) 0.79736(7)
N26_2 N 0.24167(8) 0.94523(6) 0.97114(7)
N27_2 N 0.05477(6) 0.97114(7) 0.75833(8)
N28_2 N 0.25833(8) 0.52886(7) 0.55477(6)
N29 N 0.44523(6) 0.74167(8) 0.52886(7)
N30_2 N 0.47114(7) 0.55477(6) 0.74167(8)
C15_2 C 0.21338(10) 0.89733(8) 0.92334(9)
C16_2 C 0.10267(8) 0.92334(9) 0.78662(10)
C17_2 C 0.28662(10) 0.57666(9) 0.60267(8)
C18_2 C 0.39733(8) 0.71338(10) 0.57666(9)
C19_2 C 0.42334(9) 0.60267(8) 0.71338(10)
H12_2 H 0.1919 0.8906 0.9046
H13_2 H 0.1094 0.9046 0.8081
H14_2 H 0.3081 0.5954 0.6094
H15_2 H 0.3906 0.6919 0.5954
H16_2 H 0.4046 0.6094 0.6919
N37_2 N 0.24564(6) 0.83345(6) 0.90800(6)
N38_2 N 0.16655(6) 0.90800(6) 0.75436(6)
N39_2 N 0.25436(6) 0.59200(6) 0.66655(6)
N40_2 N 0.33345(6) 0.74564(6) 0.59200(6)
N41_2 N 0.40800(6) 0.66655(6) 0.74564(6)
H20_2 H 0.2268 0.8308 0.8887
H21_2 H 0.1692 0.8887 0.7732
H22_2 H 0.2732 0.6113 0.6692
H23_2 H 0.3308 0.7268 0.6113
H24_2 H 0.3887 0.6692 0.7268
C26_2 C 0.21241(9) 0.93427(8) 0.94395(7)
C27_2 C 0.06573(8) 0.94395(7) 0.78759(9)
C28_2 C 0.28759(9) 0.55605(7) 0.56573(8)
C29_2 C 0.43427(8) 0.71241(9) 0.55605(7)
C30_2 C 0.44395(7) 0.56573(8) 0.71241(9)
H34_2 H 0.1903 0.9527 0.9388
H35_2 H 0.0473 0.9388 0.8097
H36_2 H 0.3097 0.5612 0.5473
H37_2 H 0.4527 0.6903 0.5612
H38_2 H 0.4388 0.5473 0.6903
C34_2 C 0.22565(9) 0.76813(10) 0.60387(8)
C35_2 C 0.26813(10) 0.72565(9) 0.89613(8)
C36_2 C 0.27435(9) 0.89613(8) 0.73187(10)
C37_2 C 0.23187(10) 0.60387(8) 0.77435(9)
C38_2 C 0.39613(8) 0.77435(9) 0.76813(10)
H42_2 H 0.2198 0.7755 0.5762
H43_2 H 0.2755 0.7198 0.9238
H44_2 H 0.2802 0.9238 0.7245
H45_2 H 0.2245 0.5762 0.7802
H46_2 H 0.4238 0.7802 0.7755
C45_2 C 0.20349(7) 0.75339(8) 0.67186(8)
C46_2 C 0.25339(8) 0.70349(7) 0.82814(8)
C47_2 C 0.29651(7) 0.82814(8) 0.74661(8)
C48_2 C 0.24661(8) 0.67186(8) 0.79651(7)
C49_2 C 0.32814(8) 0.79651(7) 0.75339(8)
C59_2 C 0.27609(9) 0.88075(9) 0.95857(9)
C60_2 C 0.11925(9) 0.95857(9) 0.72391(9)
C61_2 C 0.22391(9) 0.54143(9) 0.61925(9)
C62_2 C 0.38075(9) 0.77609(9) 0.54143(9)
C63_2 C 0.45857(9) 0.61925(9) 0.77609(9)
H56_2 H 0.2985 0.8628 0.9643
H57_2 H 0.1372 0.9643 0.7015
H58_2 H 0.2015 0.5357 0.6372
H59_2 H 0.3628 0.7985 0.5357
H60_2 H 0.4643 0.6372 0.7985
C70_2 C 0.24560(9) 0.86958(8) 0.92962(8)
C71_2 C 0.13042(8) 0.92962(8) 0.75440(9)
C72_2 C 0.25440(9) 0.57038(8) 0.63042(8)
C73_2 C 0.36958(8) 0.74560(9) 0.57038(8)
C74_2 C 0.42962(8) 0.63042(8) 0.74560(9)
C78_2 C 0.25659(8) 0.77327(7) 0.84182(8)
C79_2 C 0.22673(7) 0.84182(8) 0.74341(8)
C80_2 C 0.24341(8) 0.65818(8) 0.72673(7)
C81_2 C 0.27327(7) 0.75659(8) 0.65818(8)
C82_2 C 0.34182(8) 0.72673(7) 0.75659(8)
H64_2 H 0.2550 0.8010 0.8326
H65_2 H 0.1990 0.8326 0.7450
H66_2 H 0.2450 0.6674 0.6990
H67_2 H 0.3010 0.7550 0.6674
H68_2 H 0.3326 0.6990 0.7550
C89_2 C 0.19439(8) 0.76104(9) 0.63093(8)
C90_2 C 0.26104(9) 0.69439(8) 0.86907(8)
C91_2 C 0.30561(8) 0.86907(8) 0.73896(9)
C92_2 C 0.23896(9) 0.63093(8) 0.80561(8)
C93_2 C 0.36907(8) 0.80561(8) 0.76104(9)
H75_2 H 0.1666 0.7613 0.6218
H76_2 H 0.2613 0.6666 0.8782
H77_2 H 0.3334 0.8782 0.7387
H78_2 H 0.2387 0.6218 0.8334
H79_2 H 0.3782 0.8334 0.7613
C103_2 C 0.27282(10) 0.91774(9) 0.97806(9)
C104_2 C 0.08226(9) 0.97806(9) 0.72718(10)
C105_2 C 0.22718(10) 0.52194(9) 0.58226(9)
C106_2 C 0.41774(9) 0.77282(10) 0.52194(9)
C107_2 C 0.47806(9) 0.58226(9) 0.77282(10)
H89_2 H 0.2934 0.9249 0.9976
H90_2 H 0.0751 0.9976 0.7066
H91_2 H 0.2066 0.5024 0.5751
H92_2 H 0.4249 0.7934 0.5024
H93_2 H 0.4976 0.5751 0.7934
C111_2 C 0.27173(9) 0.80122(8) 0.91322(9)
C112_2 C 0.19878(8) 0.91322(9) 0.72827(9)
C113_2 C 0.22827(9) 0.58678(9) 0.69878(8)
C114_2 C 0.30122(8) 0.77173(9) 0.58678(9)
C115_2 C 0.41322(9) 0.69878(8) 0.77173(9)
C122_2 C 0.26453(9) 0.76557(8) 0.88319(8)
C123_2 C 0.23443(8) 0.88319(8) 0.73547(9)
C124_2 C 0.23547(9) 0.61681(8) 0.73443(8)
C125_2 C 0.26557(8) 0.76453(9) 0.61681(8)
C126_2 C 0.38319(8) 0.73443(8) 0.76453(9)
O1_7 O 1.0000 0.83226(12) -0.0000
O3_2 O 0.5000 0.66774(12) 0.5000
O10_2 O 0.93951(7) 0.70264(7) 0.20190(7)
O14_2 O 0.70190(7) 0.79736(7) 0.43951(7)
N24_2 N 0.97114(7) 0.75833(8) 0.05477(6)
N33_2 N 0.55477(6) 0.74167(8) 0.47114(7)
C13_2 C 0.92334(9) 0.78662(10) 0.10267(8)
C22_2 C 0.60267(8) 0.71338(10) 0.42334(9)
H10_2 H 0.9046 0.8081 0.1094
H19_2 H 0.6094 0.6919 0.4046
N43_2 N 0.90800(6) 0.75436(6) 0.16655(6)
N47_2 N 0.66655(6) 0.74564(6) 0.40800(6)
H26_2 H 0.8887 0.7732 0.1692
H30_2 H 0.6692 0.7268 0.3887
C24_2 C 0.94395(7) 0.78759(9) 0.06573(8)
C33_2 C 0.56573(8) 0.71241(9) 0.44395(7)
H32_2 H 0.9388 0.8097 0.0473
H41_2 H 0.5473 0.6903 0.4388
C40_2 C 0.89613(8) 0.73187(10) 0.27435(9)
C44_2 C 0.77435(9) 0.76813(10) 0.39613(8)
H48_2 H 0.9238 0.7245 0.2802
H52_2 H 0.7802 0.7755 0.4238
C51_2 C 0.82814(8) 0.74661(8) 0.29651(7)
C55_2 C 0.79651(7) 0.75339(8) 0.32814(8)
C57_2 C 0.95857(9) 0.72391(9) 0.11925(9)
C66_2 C 0.61925(9) 0.77609(9) 0.45857(9)
H54_2 H 0.9643 0.7015 0.1372
H63_2 H 0.6372 0.7985 0.4643
C68_2 C 0.92962(8) 0.75440(9) 0.13042(8)
C77_2 C 0.63042(8) 0.74560(9) 0.42962(8)
C84_2 C 0.84182(8) 0.74341(8) 0.22673(7)
C88_2 C 0.72673(7) 0.75659(8) 0.34182(8)
H70_2 H 0.8326 0.7450 0.1990
H74_2 H 0.6990 0.7550 0.3326
C95_2 C 0.86907(8) 0.73896(9) 0.30561(8)
C99_2 C 0.80561(8) 0.76104(9) 0.36907(8)
H81_2 H 0.8782 0.7387 0.3334
H85_2 H 0.8334 0.7613 0.3782
C101_2 C 0.97806(9) 0.72718(10) 0.08226(9)
C110_2 C 0.58226(9) 0.77282(10) 0.47806(9)
H87_2 H 0.9976 0.7066 0.0751
H96_2 H 0.5751 0.7934 0.4976
C117_2 C 0.91322(9) 0.72827(9) 0.19878(8)
C121_2 C 0.69878(8) 0.77173(9) 0.41322(9)
C128_2 C 0.88319(8) 0.73547(9) 0.23443(8)
C132_2 C 0.73443(8) 0.76453(9) 0.38319(8)
H98_2 H 0.986551 0.84246 0.0255226
O1_8 O 1.0000 0.83226(12) 1.0000
H97_2 H 0.984621 0.84246 0.975592
O1_9 O 0.16774(12) 0.0000 -0.0000
Cu5_3 Cu 0.2500 0.2500 0.2500
Cu6_9 Cu 0.0000 0.23891(2) -0.0000
N11_3 N 0.25113(6) 0.25690(6) 0.18515(6)
N12_3 N 0.24887(6) 0.31485(6) 0.24310(6)
N19_3 N 0.25690(6) 0.18515(6) 0.25113(6)
N20_3 N 0.18515(6) 0.25113(6) 0.25690(6)
N21_3 N 0.31485(6) 0.24310(6) 0.24887(6)
N22_3 N 0.24310(6) 0.24887(6) 0.31485(6)
O11_3 O 0.29736(7) 0.20190(7) 0.06049(7)
O12_3 O 0.20264(7) 0.43951(7) 0.29810(7)
N25_3 N 0.24167(8) 0.05477(6) 0.02886(7)
N31_2 N 0.25833(8) 0.47114(7) 0.44523(6)
C14_3 C 0.21338(10) 0.10267(8) 0.07666(9)
C20_3 C 0.28662(10) 0.42334(9) 0.39733(8)
H11_3 H 0.1919 0.1094 0.0954
H17_3 H 0.3081 0.4046 0.3906
N44_3 N 0.24564(6) 0.16655(6) 0.09200(6)
N45_3 N 0.25436(6) 0.40800(6) 0.33345(6)
H27_3 H 0.2268 0.1692 0.1113
H28_3 H 0.2732 0.3887 0.3308
C25_3 C 0.21241(9) 0.06573(8) 0.05605(7)
C31_3 C 0.28759(9) 0.44395(7) 0.43427(8)
H33_3 H 0.1903 0.0473 0.0612
H39_3 H 0.3097 0.4388 0.4527
C41_3 C 0.26813(10) 0.27435(9) 0.10387(8)
C42_3 C 0.23187(10) 0.39613(8) 0.22565(9)
H49_3 H 0.2755 0.2802 0.0762
H50_3 H 0.2245 0.4238 0.2198
C52_3 C 0.25339(8) 0.29651(7) 0.17186(8)
C53_3 C 0.24661(8) 0.32814(8) 0.20349(7)
C58_3 C 0.27609(9) 0.11925(9) 0.04143(9)
C64_3 C 0.22391(9) 0.45857(9) 0.38075(9)
H55_3 H 0.2985 0.1372 0.0357
H61_3 H 0.2015 0.4643 0.3628
C69_3 C 0.24560(9) 0.13042(8) 0.07038(8)
C75_3 C 0.25440(9) 0.42962(8) 0.36958(8)
C85_3 C 0.25659(8) 0.22673(7) 0.15818(8)
C86_3 C 0.24341(8) 0.34182(8) 0.27327(7)
H71_3 H 0.2550 0.1990 0.1674
H72_3 H 0.2450 0.3326 0.3010
C96_3 C 0.26104(9) 0.30561(8) 0.13093(8)
C97_3 C 0.23896(9) 0.36907(8) 0.19439(8)
H82_3 H 0.2613 0.3334 0.1218
H83_3 H 0.2387 0.3782 0.1666
C102_3 C 0.27282(10) 0.08226(9) 0.02194(9)
C108_3 C 0.22718(10) 0.47806(9) 0.41774(9)
H88_3 H 0.2934 0.0751 0.0024
H94_3 H 0.2066 0.4976 0.4249
C118_3 C 0.27173(9) 0.19878(8) 0.08678(9)
C119_3 C 0.22827(9) 0.41322(9) 0.30122(8)
C129_3 C 0.26453(9) 0.23443(8) 0.11681(8)
C130_3 C 0.23547(9) 0.38319(8) 0.26557(8)
Cu1_3 Cu 0.2500 0.2500 0.7500
N1_3 N 0.25113(6) 0.18515(6) 0.74310(6)
O1_10 O 0.16774(12) 0.0000 1.0000
O2_3 O 0.29736(7) 0.06049(7) 0.79810(7)
N2_3 N 0.24167(8) 0.02886(7) 0.94523(6)
C1_3 C 0.21338(10) 0.07666(9) 0.89733(8)
H1_3 H 0.1919 0.0954 0.8906
N3_3 N 0.24564(6) 0.09200(6) 0.83345(6)
H2_3 H 0.2268 0.1113 0.8308
C2_3 C 0.21241(9) 0.05605(7) 0.93427(8)
H3_3 H 0.1903 0.0612 0.9527
C3_3 C 0.26813(10) 0.10387(8) 0.72565(9)
H4_3 H 0.2755 0.0762 0.7198
C4_3 C 0.25339(8) 0.17186(8) 0.70349(7)
C5_3 C 0.27609(9) 0.04143(9) 0.88075(9)
H5_3 H 0.2985 0.0357 0.8628
C6_3 C 0.24560(9) 0.07038(8) 0.86958(8)
C7_3 C 0.25659(8) 0.15818(8) 0.77327(7)
H6_3 H 0.2550 0.1674 0.8010
C8_3 C 0.26104(9) 0.13093(8) 0.69439(8)
H7_3 H 0.2613 0.1218 0.6666
C9_3 C 0.27282(10) 0.02194(9) 0.91774(9)
H8_3 H 0.2934 0.0024 0.9249
C10_3 C 0.27173(9) 0.08678(9) 0.80122(8)
C11_3 C 0.26453(9) 0.11681(8) 0.76557(8)
Cu6_10 Cu 0.0000 0.23891(2) 1.0000
Cu8_3 Cu 0.5000 0.26109(2) 0.5000
N4_3 N 0.25690(6) 0.25113(6) 0.81485(6)
N5_3 N 0.18515(6) 0.25690(6) 0.74887(6)
N6_3 N 0.31485(6) 0.24887(6) 0.75690(6)
N7_3 N 0.24887(6) 0.24310(6) 0.68515(6)
N8_3 N 0.24310(6) 0.31485(6) 0.75113(6)
O4_3 O 0.20190(7) 0.29736(7) 0.93951(7)
O5_3 O 0.06049(7) 0.20190(7) 0.70264(7)
O6_3 O 0.43951(7) 0.20264(7) 0.70190(7)
O7_3 O 0.20264(7) 0.29810(7) 0.56049(7)
O8_3 O 0.29810(7) 0.43951(7) 0.79736(7)
N26_3 N 0.05477(6) 0.24167(8) 0.97114(7)
N27_3 N 0.02886(7) 0.05477(6) 0.75833(8)
N28_3 N 0.47114(7) 0.25833(8) 0.55477(6)
N29_2 N 0.25833(8) 0.44523(6) 0.52886(7)
N30_3 N 0.44523(6) 0.47114(7) 0.74167(8)
C15_3 C 0.10267(8) 0.21338(10) 0.92334(9)
C16_3 C 0.07666(9) 0.10267(8) 0.78662(10)
C17_3 C 0.42334(9) 0.28662(10) 0.60267(8)
C18_3 C 0.28662(10) 0.39733(8) 0.57666(9)
C19_3 C 0.39733(8) 0.42334(9) 0.71338(10)
H12_3 H 0.1094 0.1919 0.9046
H13_3 H 0.0954 0.1094 0.8081
H14_3 H 0.4046 0.3081 0.6094
H15_3 H 0.3081 0.3906 0.5954
H16_3 H 0.3906 0.4046 0.6919
N37_3 N 0.16655(6) 0.24564(6) 0.90800(6)
N38_3 N 0.09200(6) 0.16655(6) 0.75436(6)
N39_3 N 0.40800(6) 0.25436(6) 0.66655(6)
N40_3 N 0.25436(6) 0.33345(6) 0.59200(6)
N41_3 N 0.33345(6) 0.40800(6) 0.74564(6)
H20_3 H 0.1692 0.2268 0.8887
H21_3 H 0.1113 0.1692 0.7732
H22_3 H 0.3887 0.2732 0.6692
H23_3 H 0.2732 0.3308 0.6113
H24_3 H 0.3308 0.3887 0.7268
C26_3 C 0.06573(8) 0.21241(9) 0.94395(7)
C27_3 C 0.05605(7) 0.06573(8) 0.78759(9)
C28_3 C 0.44395(7) 0.28759(9) 0.56573(8)
C29_3 C 0.28759(9) 0.43427(8) 0.55605(7)
C30_3 C 0.43427(8) 0.44395(7) 0.71241(9)
H34_3 H 0.0473 0.1903 0.9388
H35_3 H 0.0612 0.0473 0.8097
H36_3 H 0.4388 0.3097 0.5473
H37_3 H 0.3097 0.4527 0.5612
H38_3 H 0.4527 0.4388 0.6903
C34_3 C 0.23187(10) 0.22565(9) 0.60387(8)
C35_3 C 0.27435(9) 0.26813(10) 0.89613(8)
C36_3 C 0.10387(8) 0.27435(9) 0.73187(10)
C37_3 C 0.39613(8) 0.23187(10) 0.77435(9)
C38_3 C 0.22565(9) 0.39613(8) 0.76813(10)
H42_3 H 0.2245 0.2198 0.5762
H43_3 H 0.2802 0.2755 0.9238
H44_3 H 0.0762 0.2802 0.7245
H45_3 H 0.4238 0.2245 0.7802
H46_3 H 0.2198 0.4238 0.7755
C45_3 C 0.24661(8) 0.20349(7) 0.67186(8)
C46_3 C 0.29651(7) 0.25339(8) 0.82814(8)
C47_3 C 0.17186(8) 0.29651(7) 0.74661(8)
C48_3 C 0.32814(8) 0.24661(8) 0.79651(7)
C49_3 C 0.20349(7) 0.32814(8) 0.75339(8)
C59_3 C 0.11925(9) 0.27609(9) 0.95857(9)
C60_3 C 0.04143(9) 0.11925(9) 0.72391(9)
C61_3 C 0.45857(9) 0.22391(9) 0.61925(9)
C62_3 C 0.22391(9) 0.38075(9) 0.54143(9)
C63_3 C 0.38075(9) 0.45857(9) 0.77609(9)
H56_3 H 0.1372 0.2985 0.9643
H57_3 H 0.0357 0.1372 0.7015
H58_3 H 0.4643 0.2015 0.6372
H59_3 H 0.2015 0.3628 0.5357
H60_3 H 0.3628 0.4643 0.7985
C70_3 C 0.13042(8) 0.24560(9) 0.92962(8)
C71_3 C 0.07038(8) 0.13042(8) 0.75440(9)
C72_3 C 0.42962(8) 0.25440(9) 0.63042(8)
C73_3 C 0.25440(9) 0.36958(8) 0.57038(8)
C74_3 C 0.36958(8) 0.42962(8) 0.74560(9)
C78_3 C 0.22673(7) 0.25659(8) 0.84182(8)
C79_3 C 0.15818(8) 0.22673(7) 0.74341(8)
C80_3 C 0.34182(8) 0.24341(8) 0.72673(7)
C81_3 C 0.24341(8) 0.27327(7) 0.65818(8)
C82_3 C 0.27327(7) 0.34182(8) 0.75659(8)
H64_3 H 0.1990 0.2550 0.8326
H65_3 H 0.1674 0.1990 0.7450
H66_3 H 0.3326 0.2450 0.6990
H67_3 H 0.2450 0.3010 0.6674
H68_3 H 0.3010 0.3326 0.7550
C89_3 C 0.23896(9) 0.19439(8) 0.63093(8)
C90_3 C 0.30561(8) 0.26104(9) 0.86907(8)
C91_3 C 0.13093(8) 0.30561(8) 0.73896(9)
C92_3 C 0.36907(8) 0.23896(9) 0.80561(8)
C93_3 C 0.19439(8) 0.36907(8) 0.76104(9)
H75_3 H 0.2387 0.1666 0.6218
H76_3 H 0.3334 0.2613 0.8782
H77_3 H 0.1218 0.3334 0.7387
H78_3 H 0.3782 0.2387 0.8334
H79_3 H 0.1666 0.3782 0.7613
C103_3 C 0.08226(9) 0.27282(10) 0.97806(9)
C104_3 C 0.02194(9) 0.08226(9) 0.72718(10)
C105_3 C 0.47806(9) 0.22718(10) 0.58226(9)
C106_3 C 0.22718(10) 0.41774(9) 0.52194(9)
C107_3 C 0.41774(9) 0.47806(9) 0.77282(10)
H89_3 H 0.0751 0.2934 0.9976
H90_3 H 0.0024 0.0751 0.7066
H91_3 H 0.4976 0.2066 0.5751
H92_3 H 0.2066 0.4249 0.5024
H93_3 H 0.4249 0.4976 0.7934
C111_3 C 0.19878(8) 0.27173(9) 0.91322(9)
C112_3 C 0.08678(9) 0.19878(8) 0.72827(9)
C113_3 C 0.41322(9) 0.22827(9) 0.69878(8)
C114_3 C 0.22827(9) 0.30122(8) 0.58678(9)
C115_3 C 0.30122(8) 0.41322(9) 0.77173(9)
C122_3 C 0.23443(8) 0.26453(9) 0.88319(8)
C123_3 C 0.11681(8) 0.23443(8) 0.73547(9)
C124_3 C 0.38319(8) 0.23547(9) 0.73443(8)
C125_3 C 0.23547(9) 0.26557(8) 0.61681(8)
C126_3 C 0.26557(8) 0.38319(8) 0.76453(9)
O1_11 O 0.16774(12) 1.0000 -0.0000
O3_3 O 0.33226(12) 0.5000 0.5000
O10_3 O 0.29736(7) 0.93951(7) 0.20190(7)
O14_3 O 0.20264(7) 0.70190(7) 0.43951(7)
N24_3 N 0.24167(8) 0.97114(7) 0.05477(6)
N33_3 N 0.25833(8) 0.55477(6) 0.47114(7)
C13_3 C 0.21338(10) 0.92334(9) 0.10267(8)
C22_3 C 0.28662(10) 0.60267(8) 0.42334(9)
H10_3 H 0.1919 0.9046 0.1094
H19_3 H 0.3081 0.6094 0.4046
N43_3 N 0.24564(6) 0.90800(6) 0.16655(6)
N47_3 N 0.25436(6) 0.66655(6) 0.40800(6)
H26_3 H 0.2268 0.8887 0.1692
H30_3 H 0.2732 0.6692 0.3887
C24_3 C 0.21241(9) 0.94395(7) 0.06573(8)
C33_3 C 0.28759(9) 0.56573(8) 0.44395(7)
H32_3 H 0.1903 0.9388 0.0473
H41_3 H 0.3097 0.5473 0.4388
C40_3 C 0.26813(10) 0.89613(8) 0.27435(9)
C44_3 C 0.23187(10) 0.77435(9) 0.39613(8)
H48_3 H 0.2755 0.9238 0.2802
H52_3 H 0.2245 0.7802 0.4238
C51_3 C 0.25339(8) 0.82814(8) 0.29651(7)
C55_3 C 0.24661(8) 0.79651(7) 0.32814(8)
C57_3 C 0.27609(9) 0.95857(9) 0.11925(9)
C66_3 C 0.22391(9) 0.61925(9) 0.45857(9)
H54_3 H 0.2985 0.9643 0.1372
H63_3 H 0.2015 0.6372 0.4643
C68_3 C 0.24560(9) 0.92962(8) 0.13042(8)
C77_3 C 0.25440(9) 0.63042(8) 0.42962(8)
C84_3 C 0.25659(8) 0.84182(8) 0.22673(7)
C88_3 C 0.24341(8) 0.72673(7) 0.34182(8)
H70_3 H 0.2550 0.8326 0.1990
H74_3 H 0.2450 0.6990 0.3326
C95_3 C 0.26104(9) 0.86907(8) 0.30561(8)
C99_3 C 0.23896(9) 0.80561(8) 0.36907(8)
H81_3 H 0.2613 0.8782 0.3334
H85_3 H 0.2387 0.8334 0.3782
C101_3 C 0.27282(10) 0.97806(9) 0.08226(9)
C110_3 C 0.22718(10) 0.58226(9) 0.47806(9)
H87_3 H 0.2934 0.9976 0.0751
H96_3 H 0.2066 0.5751 0.4976
C117_3 C 0.27173(9) 0.91322(9) 0.19878(8)
C121_3 C 0.22827(9) 0.69878(8) 0.41322(9)
C128_3 C 0.26453(9) 0.88319(8) 0.23443(8)
C132_3 C 0.23547(9) 0.73443(8) 0.38319(8)
H98_3 H 0.15754 0.986551 0.0255226
O1_12 O 0.16774(12) 1.0000 1.0000
H97_3 H 0.15754 0.984621 0.975592
Cu6_11 Cu 1.0000 0.23891(2) -0.0000
Cu6_12 Cu 1.0000 0.23891(2) 1.0000
O1_13 O -0.0000 0.16774(12) -0.0000
O3_4 O 0.5000 0.33226(12) 0.5000
O10_4 O 0.06049(7) 0.29736(7) 0.20190(7)
O14_4 O 0.29810(7) 0.20264(7) 0.43951(7)
N24_4 N 0.02886(7) 0.24167(8) 0.05477(6)
N33_4 N 0.44523(6) 0.25833(8) 0.47114(7)
N34_2 N 0.52886(7) 0.25833(8) 0.44523(6)
N36_2 N 0.55477(6) 0.25833(8) 0.52886(7)
C13_4 C 0.07666(9) 0.21338(10) 0.10267(8)
C22_4 C 0.39733(8) 0.28662(10) 0.42334(9)
H10_4 H 0.0954 0.1919 0.1094
H19_4 H 0.3906 0.3081 0.4046
N43_4 N 0.09200(6) 0.24564(6) 0.16655(6)
N47_4 N 0.33345(6) 0.25436(6) 0.40800(6)
H26_4 H 0.1113 0.2268 0.1692
H30_4 H 0.3308 0.2732 0.3887
C24_4 C 0.05605(7) 0.21241(9) 0.06573(8)
C33_4 C 0.43427(8) 0.28759(9) 0.44395(7)
H32_4 H 0.0612 0.1903 0.0473
H41_4 H 0.4527 0.3097 0.4388
C40_4 C 0.10387(8) 0.26813(10) 0.27435(9)
C44_4 C 0.22565(9) 0.23187(10) 0.39613(8)
H48_4 H 0.0762 0.2755 0.2802
H52_4 H 0.2198 0.2245 0.4238
C51_4 C 0.17186(8) 0.25339(8) 0.29651(7)
C55_4 C 0.20349(7) 0.24661(8) 0.32814(8)
C57_4 C 0.04143(9) 0.27609(9) 0.11925(9)
C66_4 C 0.38075(9) 0.22391(9) 0.45857(9)
H54_4 H 0.0357 0.2985 0.1372
H63_4 H 0.3628 0.2015 0.4643
C68_4 C 0.07038(8) 0.24560(9) 0.13042(8)
C77_4 C 0.36958(8) 0.25440(9) 0.42962(8)
C84_4 C 0.15818(8) 0.25659(8) 0.22673(7)
C88_4 C 0.27327(7) 0.24341(8) 0.34182(8)
H70_4 H 0.1674 0.2550 0.1990
H74_4 H 0.3010 0.2450 0.3326
C95_4 C 0.13093(8) 0.26104(9) 0.30561(8)
C99_4 C 0.19439(8) 0.23896(9) 0.36907(8)
H81_4 H 0.1218 0.2613 0.3334
H85_4 H 0.1666 0.2387 0.3782
C101_4 C 0.02194(9) 0.27282(10) 0.08226(9)
C110_4 C 0.41774(9) 0.22718(10) 0.47806(9)
H87_4 H 0.0024 0.2934 0.0751
H96_4 H 0.4249 0.2066 0.4976
C117_4 C 0.08678(9) 0.27173(9) 0.19878(8)
C121_4 C 0.30122(8) 0.22827(9) 0.41322(9)
C128_4 C 0.11681(8) 0.26453(9) 0.23443(8)
C132_4 C 0.26557(8) 0.23547(9) 0.38319(8)
H98_4 H 0.0134486 0.15754 0.0255226
O1_14 O -0.0000 0.16774(12) 1.0000
H97_4 H 0.0153789 0.15754 0.975592
O1_15 O 1.0000 0.16774(12) -0.0000
N11_4 N 0.74310(6) 0.25113(6) 0.18515(6)
N12_4 N 0.68515(6) 0.24887(6) 0.24310(6)
N19_4 N 0.81485(6) 0.25690(6) 0.25113(6)
N21_4 N 0.75690(6) 0.31485(6) 0.24887(6)
O11_4 O 0.79810(7) 0.29736(7) 0.06049(7)
O12_4 O 0.56049(7) 0.20264(7) 0.29810(7)
N25_4 N 0.94523(6) 0.24167(8) 0.02886(7)
C14_4 C 0.89733(8) 0.21338(10) 0.07666(9)
C20_4 C 0.57666(9) 0.28662(10) 0.39733(8)
H11_4 H 0.8906 0.1919 0.0954
H17_4 H 0.5954 0.3081 0.3906
N44_4 N 0.83345(6) 0.24564(6) 0.09200(6)
N45_4 N 0.59200(6) 0.25436(6) 0.33345(6)
H27_4 H 0.8308 0.2268 0.1113
H28_4 H 0.6113 0.2732 0.3308
C25_4 C 0.93427(8) 0.21241(9) 0.05605(7)
C31_4 C 0.55605(7) 0.28759(9) 0.43427(8)
H33_4 H 0.9527 0.1903 0.0612
H39_4 H 0.5612 0.3097 0.4527
C41_4 C 0.72565(9) 0.26813(10) 0.10387(8)
C42_4 C 0.60387(8) 0.23187(10) 0.22565(9)
H49_4 H 0.7198 0.2755 0.0762
H50_4 H 0.5762 0.2245 0.2198
C52_4 C 0.70349(7) 0.25339(8) 0.17186(8)
C53_4 C 0.67186(8) 0.24661(8) 0.20349(7)
C58_4 C 0.88075(9) 0.27609(9) 0.04143(9)
C64_4 C 0.54143(9) 0.22391(9) 0.38075(9)
H55_4 H 0.8628 0.2985 0.0357
H61_4 H 0.5357 0.2015 0.3628
C69_4 C 0.86958(8) 0.24560(9) 0.07038(8)
C75_4 C 0.57038(8) 0.25440(9) 0.36958(8)
C85_4 C 0.77327(7) 0.25659(8) 0.15818(8)
C86_4 C 0.65818(8) 0.24341(8) 0.27327(7)
H71_4 H 0.8010 0.2550 0.1674
H72_4 H 0.6674 0.2450 0.3010
C96_4 C 0.69439(8) 0.26104(9) 0.13093(8)
C97_4 C 0.63093(8) 0.23896(9) 0.19439(8)
H82_4 H 0.6666 0.2613 0.1218
H83_4 H 0.6218 0.2387 0.1666
C102_4 C 0.91774(9) 0.27282(10) 0.02194(9)
C108_4 C 0.52194(9) 0.22718(10) 0.41774(9)
H88_4 H 0.9249 0.2934 0.0024
H94_4 H 0.5024 0.2066 0.4249
C118_4 C 0.80122(8) 0.27173(9) 0.08678(9)
C119_4 C 0.58678(9) 0.22827(9) 0.30122(8)
C129_4 C 0.76557(8) 0.26453(9) 0.11681(8)
C130_4 C 0.61681(8) 0.23547(9) 0.26557(8)
O1_16 O 1.0000 0.16774(12) 1.0000
O2_4 O 0.93951(7) 0.29736(7) 0.79810(7)
N2_4 N 0.97114(7) 0.24167(8) 0.94523(6)
C1_4 C 0.92334(9) 0.21338(10) 0.89733(8)
H1_4 H 0.9046 0.1919 0.8906
N3_4 N 0.90800(6) 0.24564(6) 0.83345(6)
H2_4 H 0.8887 0.2268 0.8308
C2_4 C 0.94395(7) 0.21241(9) 0.93427(8)
H3_4 H 0.9388 0.1903 0.9527
C3_4 C 0.89613(8) 0.26813(10) 0.72565(9)
H4_4 H 0.9238 0.2755 0.7198
C4_4 C 0.82814(8) 0.25339(8) 0.70349(7)
C5_4 C 0.95857(9) 0.27609(9) 0.88075(9)
H5_4 H 0.9643 0.2985 0.8628
C6_4 C 0.92962(8) 0.24560(9) 0.86958(8)
C7_4 C 0.84182(8) 0.25659(8) 0.77327(7)
H6_4 H 0.8326 0.2550 0.8010
C8_4 C 0.86907(8) 0.26104(9) 0.69439(8)
H7_4 H 0.8782 0.2613 0.6666
C9_4 C 0.97806(9) 0.27282(10) 0.91774(9)
H8_4 H 0.9976 0.2934 0.9249
C10_4 C 0.91322(9) 0.27173(9) 0.80122(8)
C11_4 C 0.88319(8) 0.26453(9) 0.76557(8)
O5_4 O 0.79810(7) 0.06049(7) 0.70264(7)
O7_4 O 0.70190(7) 0.20264(7) 0.56049(7)
O8_4 O 0.56049(7) 0.29810(7) 0.79736(7)
N27_4 N 0.94523(6) 0.02886(7) 0.75833(8)
N30_4 N 0.52886(7) 0.44523(6) 0.74167(8)
C16_4 C 0.89733(8) 0.07666(9) 0.78662(10)
C18_4 C 0.60267(8) 0.28662(10) 0.57666(9)
C19_4 C 0.57666(9) 0.39733(8) 0.71338(10)
H13_4 H 0.8906 0.0954 0.8081
H15_4 H 0.6094 0.3081 0.5954
H16_4 H 0.5954 0.3906 0.6919
N38_4 N 0.83345(6) 0.09200(6) 0.75436(6)
N40_4 N 0.66655(6) 0.25436(6) 0.59200(6)
N41_4 N 0.59200(6) 0.33345(6) 0.74564(6)
H21_4 H 0.8308 0.1113 0.7732
H23_4 H 0.6692 0.2732 0.6113
H24_4 H 0.6113 0.3308 0.7268
C27_4 C 0.93427(8) 0.05605(7) 0.78759(9)
C29_4 C 0.56573(8) 0.28759(9) 0.55605(7)
C30_4 C 0.55605(7) 0.43427(8) 0.71241(9)
H35_4 H 0.9527 0.0612 0.8097
H37_4 H 0.5473 0.3097 0.5612
H38_4 H 0.5612 0.4527 0.6903
C34_4 C 0.77435(9) 0.23187(10) 0.60387(8)
C36_4 C 0.72565(9) 0.10387(8) 0.73187(10)
C38_4 C 0.60387(8) 0.22565(9) 0.76813(10)
H42_4 H 0.7802 0.2245 0.5762
H44_4 H 0.7198 0.0762 0.7245
H46_4 H 0.5762 0.2198 0.7755
C45_4 C 0.79651(7) 0.24661(8) 0.67186(8)
C47_4 C 0.70349(7) 0.17186(8) 0.74661(8)
C49_4 C 0.67186(8) 0.20349(7) 0.75339(8)
C60_4 C 0.88075(9) 0.04143(9) 0.72391(9)
C62_4 C 0.61925(9) 0.22391(9) 0.54143(9)
C63_4 C 0.54143(9) 0.38075(9) 0.77609(9)
H57_4 H 0.8628 0.0357 0.7015
H59_4 H 0.6372 0.2015 0.5357
H60_4 H 0.5357 0.3628 0.7985
C71_4 C 0.86958(8) 0.07038(8) 0.75440(9)
C73_4 C 0.63042(8) 0.25440(9) 0.57038(8)
C74_4 C 0.57038(8) 0.36958(8) 0.74560(9)
C79_4 C 0.77327(7) 0.15818(8) 0.74341(8)
C81_4 C 0.72673(7) 0.24341(8) 0.65818(8)
C82_4 C 0.65818(8) 0.27327(7) 0.75659(8)
H65_4 H 0.8010 0.1674 0.7450
H67_4 H 0.6990 0.2450 0.6674
H68_4 H 0.6674 0.3010 0.7550
C89_4 C 0.80561(8) 0.23896(9) 0.63093(8)
C91_4 C 0.69439(8) 0.13093(8) 0.73896(9)
C93_4 C 0.63093(8) 0.19439(8) 0.76104(9)
H75_4 H 0.8334 0.2387 0.6218
H77_4 H 0.6666 0.1218 0.7387
H79_4 H 0.6218 0.1666 0.7613
C104_4 C 0.91774(9) 0.02194(9) 0.72718(10)
C106_4 C 0.58226(9) 0.22718(10) 0.52194(9)
C107_4 C 0.52194(9) 0.41774(9) 0.77282(10)
H90_4 H 0.9249 0.0024 0.7066
H92_4 H 0.5751 0.2066 0.5024
H93_4 H 0.5024 0.4249 0.7934
C112_4 C 0.80122(8) 0.08678(9) 0.72827(9)
C114_4 C 0.69878(8) 0.22827(9) 0.58678(9)
C115_4 C 0.58678(9) 0.30122(8) 0.77173(9)
C123_4 C 0.76557(8) 0.11681(8) 0.73547(9)
C125_4 C 0.73443(8) 0.23547(9) 0.61681(8)
C126_4 C 0.61681(8) 0.26557(8) 0.76453(9)
H97_5 H 0.84246 0.0244081 0.0153789
H98_5 H 0.84246 0.974477 0.0134486
Cu7_5 Cu -0.0000 0.0000 0.23891(2)
Cu7_6 Cu -0.0000 1.0000 0.23891(2)
Cu7_7 Cu 1.0000 0.0000 0.23891(2)
Cu10_2 Cu 0.5000 0.5000 0.26109(2)
O5_5 O 0.93951(7) 0.20190(7) 0.29736(7)
O8_5 O 0.70190(7) 0.43951(7) 0.20264(7)
N27_5 N 0.97114(7) 0.05477(6) 0.24167(8)
N30_5 N 0.55477(6) 0.47114(7) 0.25833(8)
C16_5 C 0.92334(9) 0.10267(8) 0.21338(10)
C19_5 C 0.60267(8) 0.42334(9) 0.28662(10)
H13_5 H 0.9046 0.1094 0.1919
H16_5 H 0.6094 0.4046 0.3081
N38_5 N 0.90800(6) 0.16655(6) 0.24564(6)
N41_5 N 0.66655(6) 0.40800(6) 0.25436(6)
H21_5 H 0.8887 0.1692 0.2268
H24_5 H 0.6692 0.3887 0.2732
C27_5 C 0.94395(7) 0.06573(8) 0.21241(9)
C30_5 C 0.56573(8) 0.44395(7) 0.28759(9)
H35_5 H 0.9388 0.0473 0.1903
H38_5 H 0.5473 0.4388 0.3097
C36_5 C 0.89613(8) 0.27435(9) 0.26813(10)
C38_5 C 0.77435(9) 0.39613(8) 0.23187(10)
H44_5 H 0.9238 0.2802 0.2755
H46_5 H 0.7802 0.4238 0.2245
C47_5 C 0.82814(8) 0.29651(7) 0.25339(8)
C49_5 C 0.79651(7) 0.32814(8) 0.24661(8)
C60_5 C 0.95857(9) 0.11925(9) 0.27609(9)
C63_5 C 0.61925(9) 0.45857(9) 0.22391(9)
H57_5 H 0.9643 0.1372 0.2985
H60_5 H 0.6372 0.4643 0.2015
C71_5 C 0.92962(8) 0.13042(8) 0.24560(9)
C74_5 C 0.63042(8) 0.42962(8) 0.25440(9)
C79_5 C 0.84182(8) 0.22673(7) 0.25659(8)
C82_5 C 0.72673(7) 0.34182(8) 0.24341(8)
H65_5 H 0.8326 0.1990 0.2550
H68_5 H 0.6990 0.3326 0.2450
C91_5 C 0.86907(8) 0.30561(8) 0.26104(9)
C93_5 C 0.80561(8) 0.36907(8) 0.23896(9)
H77_5 H 0.8782 0.3334 0.2613
H79_5 H 0.8334 0.3782 0.2387
C104_5 C 0.97806(9) 0.08226(9) 0.27282(10)
C107_5 C 0.58226(9) 0.47806(9) 0.22718(10)
H90_5 H 0.9976 0.0751 0.2934
H93_5 H 0.5751 0.4976 0.2066
C112_5 C 0.91322(9) 0.19878(8) 0.27173(9)
C115_5 C 0.69878(8) 0.41322(9) 0.22827(9)
C123_5 C 0.88319(8) 0.23443(8) 0.26453(9)
C126_5 C 0.73443(8) 0.38319(8) 0.23547(9)
Cu7_8 Cu 1.0000 1.0000 0.23891(2)
H97_6 H 0.84246 0.984621 0.0244081
H98_6 H 0.84246 0.986551 0.974477
H98_7 H 0.84246 0.0255226 0.986551
O4_4 O 0.79810(7) 0.93951(7) 0.29736(7)
O6_4 O 0.56049(7) 0.70190(7) 0.20264(7)
N26_4 N 0.94523(6) 0.97114(7) 0.24167(8)
N28_4 N 0.52886(7) 0.55477(6) 0.25833(8)
C15_4 C 0.89733(8) 0.92334(9) 0.21338(10)
C17_4 C 0.57666(9) 0.60267(8) 0.28662(10)
H12_4 H 0.8906 0.9046 0.1919
H14_4 H 0.5954 0.6094 0.3081
N37_4 N 0.83345(6) 0.90800(6) 0.24564(6)
N39_4 N 0.59200(6) 0.66655(6) 0.25436(6)
H20_4 H 0.8308 0.8887 0.2268
H22_4 H 0.6113 0.6692 0.2732
C26_4 C 0.93427(8) 0.94395(7) 0.21241(9)
C28_4 C 0.55605(7) 0.56573(8) 0.28759(9)
H34_4 H 0.9527 0.9388 0.1903
H36_4 H 0.5612 0.5473 0.3097
C35_4 C 0.72565(9) 0.89613(8) 0.26813(10)
C37_4 C 0.60387(8) 0.77435(9) 0.23187(10)
H43_4 H 0.7198 0.9238 0.2755
H45_4 H 0.5762 0.7802 0.2245
C46_4 C 0.70349(7) 0.82814(8) 0.25339(8)
C48_4 C 0.67186(8) 0.79651(7) 0.24661(8)
C59_4 C 0.88075(9) 0.95857(9) 0.27609(9)
C61_4 C 0.54143(9) 0.61925(9) 0.22391(9)
H56_4 H 0.8628 0.9643 0.2985
H58_4 H 0.5357 0.6372 0.2015
C70_4 C 0.86958(8) 0.92962(8) 0.24560(9)
C72_4 C 0.57038(8) 0.63042(8) 0.25440(9)
C78_4 C 0.77327(7) 0.84182(8) 0.25659(8)
C80_4 C 0.65818(8) 0.72673(7) 0.24341(8)
H64_4 H 0.8010 0.8326 0.2550
H66_4 H 0.6674 0.6990 0.2450
C90_4 C 0.69439(8) 0.86907(8) 0.26104(9)
C92_4 C 0.63093(8) 0.80561(8) 0.23896(9)
H76_4 H 0.6666 0.8782 0.2613
H78_4 H 0.6218 0.8334 0.2387
C103_4 C 0.91774(9) 0.97806(9) 0.27282(10)
C105_4 C 0.52194(9) 0.58226(9) 0.22718(10)
H89_4 H 0.9249 0.9976 0.2934
H91_4 H 0.5024 0.5751 0.2066
C111_4 C 0.80122(8) 0.91322(9) 0.27173(9)
C113_4 C 0.58678(9) 0.69878(8) 0.22827(9)
C122_4 C 0.76557(8) 0.88319(8) 0.26453(9)
C124_4 C 0.61681(8) 0.73443(8) 0.23547(9)
H97_7 H 0.84246 0.975592 0.984621
O1_17 O -0.0000 -0.0000 0.16774(12)
O3_5 O 0.5000 0.5000 0.33226(12)
O10_5 O 0.20190(7) 0.06049(7) 0.29736(7)
O14_5 O 0.43951(7) 0.29810(7) 0.20264(7)
N24_5 N 0.05477(6) 0.02886(7) 0.24167(8)
N33_5 N 0.47114(7) 0.44523(6) 0.25833(8)
N34_3 N 0.44523(6) 0.52886(7) 0.25833(8)
C13_5 C 0.10267(8) 0.07666(9) 0.21338(10)
C22_5 C 0.42334(9) 0.39733(8) 0.28662(10)
H10_5 H 0.1094 0.0954 0.1919
H19_5 H 0.4046 0.3906 0.3081
N43_5 N 0.16655(6) 0.09200(6) 0.24564(6)
N47_5 N 0.40800(6) 0.33345(6) 0.25436(6)
H26_5 H 0.1692 0.1113 0.2268
H30_5 H 0.3887 0.3308 0.2732
C24_5 C 0.06573(8) 0.05605(7) 0.21241(9)
C33_5 C 0.44395(7) 0.43427(8) 0.28759(9)
H32_5 H 0.0473 0.0612 0.1903
H41_5 H 0.4388 0.4527 0.3097
C40_5 C 0.27435(9) 0.10387(8) 0.26813(10)
C44_5 C 0.39613(8) 0.22565(9) 0.23187(10)
H48_5 H 0.2802 0.0762 0.2755
H52_5 H 0.4238 0.2198 0.2245
C51_5 C 0.29651(7) 0.17186(8) 0.25339(8)
C55_5 C 0.32814(8) 0.20349(7) 0.24661(8)
C57_5 C 0.11925(9) 0.04143(9) 0.27609(9)
C66_5 C 0.45857(9) 0.38075(9) 0.22391(9)
H54_5 H 0.1372 0.0357 0.2985
H63_5 H 0.4643 0.3628 0.2015
C68_5 C 0.13042(8) 0.07038(8) 0.24560(9)
C77_5 C 0.42962(8) 0.36958(8) 0.25440(9)
C84_5 C 0.22673(7) 0.15818(8) 0.25659(8)
C88_5 C 0.34182(8) 0.27327(7) 0.24341(8)
H70_5 H 0.1990 0.1674 0.2550
H74_5 H 0.3326 0.3010 0.2450
C95_5 C 0.30561(8) 0.13093(8) 0.26104(9)
C99_5 C 0.36907(8) 0.19439(8) 0.23896(9)
H81_5 H 0.3334 0.1218 0.2613
H85_5 H 0.3782 0.1666 0.2387
C101_5 C 0.08226(9) 0.02194(9) 0.27282(10)
C110_5 C 0.47806(9) 0.41774(9) 0.22718(10)
H87_5 H 0.0751 0.0024 0.2934
H96_5 H 0.4976 0.4249 0.2066
C117_5 C 0.19878(8) 0.08678(9) 0.27173(9)
C121_5 C 0.41322(9) 0.30122(8) 0.22827(9)
C128_5 C 0.23443(8) 0.11681(8) 0.26453(9)
C132_5 C 0.38319(8) 0.26557(8) 0.23547(9)
H98_8 H 0.0255226 0.0134486 0.15754
O1_18 O -0.0000 1.0000 0.16774(12)
O11_5 O 0.06049(7) 0.79810(7) 0.29736(7)
O12_5 O 0.29810(7) 0.56049(7) 0.20264(7)
N25_5 N 0.02886(7) 0.94523(6) 0.24167(8)
C14_5 C 0.07666(9) 0.89733(8) 0.21338(10)
C20_5 C 0.39733(8) 0.57666(9) 0.28662(10)
H11_5 H 0.0954 0.8906 0.1919
H17_5 H 0.3906 0.5954 0.3081
N44_5 N 0.09200(6) 0.83345(6) 0.24564(6)
N45_5 N 0.33345(6) 0.59200(6) 0.25436(6)
H27_5 H 0.1113 0.8308 0.2268
H28_5 H 0.3308 0.6113 0.2732
C25_5 C 0.05605(7) 0.93427(8) 0.21241(9)
C31_5 C 0.43427(8) 0.55605(7) 0.28759(9)
H33_5 H 0.0612 0.9527 0.1903
H39_5 H 0.4527 0.5612 0.3097
C41_5 C 0.10387(8) 0.72565(9) 0.26813(10)
C42_5 C 0.22565(9) 0.60387(8) 0.23187(10)
H49_5 H 0.0762 0.7198 0.2755
H50_5 H 0.2198 0.5762 0.2245
C52_5 C 0.17186(8) 0.70349(7) 0.25339(8)
C53_5 C 0.20349(7) 0.67186(8) 0.24661(8)
C58_5 C 0.04143(9) 0.88075(9) 0.27609(9)
C64_5 C 0.38075(9) 0.54143(9) 0.22391(9)
H55_5 H 0.0357 0.8628 0.2985
H61_5 H 0.3628 0.5357 0.2015
C69_5 C 0.07038(8) 0.86958(8) 0.24560(9)
C75_5 C 0.36958(8) 0.57038(8) 0.25440(9)
C85_5 C 0.15818(8) 0.77327(7) 0.25659(8)
C86_5 C 0.27327(7) 0.65818(8) 0.24341(8)
H71_5 H 0.1674 0.8010 0.2550
H72_5 H 0.3010 0.6674 0.2450
C96_5 C 0.13093(8) 0.69439(8) 0.26104(9)
C97_5 C 0.19439(8) 0.63093(8) 0.23896(9)
H82_5 H 0.1218 0.6666 0.2613
H83_5 H 0.1666 0.6218 0.2387
C102_5 C 0.02194(9) 0.91774(9) 0.27282(10)
C108_5 C 0.41774(9) 0.52194(9) 0.22718(10)
H88_5 H 0.0024 0.9249 0.2934
H94_5 H 0.4249 0.5024 0.2066
C118_5 C 0.08678(9) 0.80122(8) 0.27173(9)
C119_5 C 0.30122(8) 0.58678(9) 0.22827(9)
C129_5 C 0.11681(8) 0.76557(8) 0.26453(9)
C130_5 C 0.26557(8) 0.61681(8) 0.23547(9)
O1_19 O 1.0000 -0.0000 0.16774(12)
H97_8 H 0.975592 0.0153789 0.15754
O1_20 O 1.0000 1.0000 0.16774(12)
H97_9 H 0.15754 0.0153789 0.0244081
H98_9 H 0.15754 0.0134486 0.974477
O1_21 O 0.0000 -0.0000 0.83226(12)
H97_10 H 0.0244081 0.0153789 0.84246
O1_22 O 0.0000 1.0000 0.83226(12)
O1_23 O 1.0000 -0.0000 0.83226(12)
O3_6 O 0.5000 0.5000 0.66774(12)
H98_10 H 0.974477 0.0134486 0.84246
O1_24 O 1.0000 1.0000 0.83226(12)
H98_11 H 0.0255226 0.84246 0.0134486
H97_11 H 0.975592 0.84246 0.0153789
H98_12 H 0.0134486 0.0255226 0.84246
H97_12 H 0.0153789 0.975592 0.84246
H97_13 H 0.984621 0.0244081 0.84246
H98_13 H 0.986551 0.974477 0.84246
H98_14 H 0.0255226 0.15754 0.986551
H97_14 H 0.975592 0.15754 0.984621
H98_15 H 0.986551 0.0255226 0.15754
H97_15 H 0.984621 0.975592 0.15754
H97_16 H 0.0244081 0.15754 0.0153789
H98_16 H 0.974477 0.15754 0.0134486
H97_17 H 0.0244081 0.84246 0.984621
H98_17 H 0.974477 0.84246 0.986551
H97_18 H 0.0153789 0.0244081 0.15754
H98_18 H 0.0134486 0.974477 0.15754
H97_19 H 0.0153789 0.84246 0.0244081
H98_19 H 0.0134486 0.84246 0.974477
H97_20 H 0.984621 0.15754 0.0244081
H98_20 H 0.986551 0.15754 0.974477
H98_21 H 0.15754 0.0255226 0.0134486
H97_21 H 0.15754 0.975592 0.0153789
H97_22 H 0.15754 0.0244081 0.984621
H98_22 H 0.15754 0.974477 0.986551
H98_23 H 0.0255226 0.986551 0.84246
H97_23 H 0.975592 0.984621 0.84246
H97_24 H 0.0244081 0.984621 0.15754
H98_24 H 0.974477 0.986551 0.15754
N48 N 0.83306(5) 0.83306(5) 0.83306(5)
O15 O 0.82845(5) 0.86210(5) 0.80840(5)
O16 O 0.80840(5) 0.82845(5) 0.86210(5)
O17 O 0.86210(5) 0.80840(5) 0.82845(5)
N48_2 N 0.16694(5) 0.83306(5) 0.83306(5)
O15_2 O 0.13790(5) 0.82845(5) 0.80840(5)
O16_2 O 0.17155(5) 0.80840(5) 0.86210(5)
O17_2 O 0.19160(5) 0.86210(5) 0.82845(5)
N48_3 N 0.16694(5) 0.16694(5) 0.83306(5)
O15_3 O 0.17155(5) 0.13790(5) 0.80840(5)
O16_3 O 0.19160(5) 0.17155(5) 0.86210(5)
O17_3 O 0.13790(5) 0.19160(5) 0.82845(5)
N48_4 N 0.83306(5) 0.16694(5) 0.83306(5)
O15_4 O 0.86210(5) 0.17155(5) 0.80840(5)
O16_4 O 0.82845(5) 0.19160(5) 0.86210(5)
O17_4 O 0.80840(5) 0.13790(5) 0.82845(5)
N48_5 N 0.83306(5) 0.16694(5) 0.16694(5)
O15_5 O 0.82845(5) 0.13790(5) 0.19160(5)
O16_5 O 0.80840(5) 0.17155(5) 0.13790(5)
O17_5 O 0.86210(5) 0.19160(5) 0.17155(5)
N48_6 N 0.83306(5) 0.83306(5) 0.16694(5)
O15_6 O 0.82845(5) 0.80840(5) 0.13790(5)
O16_6 O 0.80840(5) 0.86210(5) 0.17155(5)
O17_6 O 0.86210(5) 0.82845(5) 0.19160(5)
N48_7 N 0.16694(5) 0.83306(5) 0.16694(5)
O15_7 O 0.17155(5) 0.86210(5) 0.19160(5)
O16_7 O 0.19160(5) 0.82845(5) 0.13790(5)
O17_7 O 0.13790(5) 0.80840(5) 0.17155(5)
N48_8 N 0.16694(5) 0.16694(5) 0.16694(5)
O15_8 O 0.13790(5) 0.17155(5) 0.19160(5)
O16_8 O 0.17155(5) 0.19160(5) 0.13790(5)
O17_8 O 0.19160(5) 0.13790(5) 0.17155(5)
N48_9 N 0.33306(5) 0.33306(5) 0.33306(5)
O15_9 O 0.32845(5) 0.36210(5) 0.30840(5)
O16_9 O 0.30840(5) 0.32845(5) 0.36210(5)
O17_9 O 0.36210(5) 0.30840(5) 0.32845(5)
N48_10 N 0.66694(5) 0.33306(5) 0.33306(5)
O15_10 O 0.63790(5) 0.32845(5) 0.30840(5)
O16_10 O 0.67155(5) 0.30840(5) 0.36210(5)
O17_10 O 0.69160(5) 0.36210(5) 0.32845(5)
N48_11 N 0.66694(5) 0.66694(5) 0.33306(5)
O15_11 O 0.67155(5) 0.63790(5) 0.30840(5)
O16_11 O 0.69160(5) 0.67155(5) 0.36210(5)
O17_11 O 0.63790(5) 0.69160(5) 0.32845(5)
N48_12 N 0.33306(5) 0.66694(5) 0.33306(5)
O15_12 O 0.36210(5) 0.67155(5) 0.30840(5)
O16_12 O 0.32845(5) 0.69160(5) 0.36210(5)
O17_12 O 0.30840(5) 0.63790(5) 0.32845(5)
N48_13 N 0.33306(5) 0.66694(5) 0.66694(5)
O15_13 O 0.32845(5) 0.63790(5) 0.69160(5)
O16_13 O 0.30840(5) 0.67155(5) 0.63790(5)
O17_13 O 0.36210(5) 0.69160(5) 0.67155(5)
N48_14 N 0.33306(5) 0.33306(5) 0.66694(5)
O15_14 O 0.32845(5) 0.30840(5) 0.63790(5)
O16_14 O 0.30840(5) 0.36210(5) 0.67155(5)
O17_14 O 0.36210(5) 0.32845(5) 0.69160(5)
N48_15 N 0.66694(5) 0.33306(5) 0.66694(5)
O15_15 O 0.67155(5) 0.36210(5) 0.69160(5)
O16_15 O 0.69160(5) 0.32845(5) 0.63790(5)
O17_15 O 0.63790(5) 0.30840(5) 0.67155(5)
N48_16 N 0.66694(5) 0.66694(5) 0.66694(5)
O15_16 O 0.63790(5) 0.67155(5) 0.69160(5)
O16_16 O 0.67155(5) 0.69160(5) 0.63790(5)
O17_16 O 0.69160(5) 0.63790(5) 0.67155(5)
N49 N 0.9028(2) 0.9028(2) 0.9028(2)
O18 O 0.8940(2) 0.93474(13) 0.88382(18)
O19 O 0.88382(18) 0.8940(2) 0.93474(13)
O20 O 0.93474(13) 0.88382(18) 0.8940(2)
N49_2 N 0.0972(2) 0.9028(2) 0.9028(2)
O18_2 O 0.06526(13) 0.8940(2) 0.88382(18)
O19_2 O 0.1060(2) 0.88382(18) 0.93474(13)
O20_2 O 0.11618(18) 0.93474(13) 0.8940(2)
N49_3 N 0.0972(2) 0.0972(2) 0.9028(2)
O18_3 O 0.1060(2) 0.06526(13) 0.88382(18)
O19_3 O 0.11618(18) 0.1060(2) 0.93474(13)
O20_3 O 0.06526(13) 0.11618(18) 0.8940(2)
N49_4 N 0.9028(2) 0.0972(2) 0.9028(2)
O18_4 O 0.93474(13) 0.1060(2) 0.88382(18)
O19_4 O 0.8940(2) 0.11618(18) 0.93474(13)
O20_4 O 0.88382(18) 0.06526(13) 0.8940(2)
N49_5 N 0.9028(2) 0.0972(2) 0.0972(2)
O18_5 O 0.8940(2) 0.06526(13) 0.11618(18)
O19_5 O 0.88382(18) 0.1060(2) 0.06526(13)
O20_5 O 0.93474(13) 0.11618(18) 0.1060(2)
N49_6 N 0.9028(2) 0.9028(2) 0.0972(2)
O18_6 O 0.8940(2) 0.88382(18) 0.06526(13)
O19_6 O 0.88382(18) 0.93474(13) 0.1060(2)
O20_6 O 0.93474(13) 0.8940(2) 0.11618(18)
N49_7 N 0.0972(2) 0.9028(2) 0.0972(2)
O18_7 O 0.1060(2) 0.93474(13) 0.11618(18)
O19_7 O 0.11618(18) 0.8940(2) 0.06526(13)
O20_7 O 0.06526(13) 0.88382(18) 0.1060(2)
N49_8 N 0.0972(2) 0.0972(2) 0.0972(2)
O18_8 O 0.06526(13) 0.1060(2) 0.11618(18)
O19_8 O 0.1060(2) 0.11618(18) 0.06526(13)
O20_8 O 0.11618(18) 0.06526(13) 0.1060(2)
N49_9 N 0.4028(2) 0.4028(2) 0.4028(2)
O18_9 O 0.3940(2) 0.43474(13) 0.38382(18)
O19_9 O 0.38382(18) 0.3940(2) 0.43474(13)
O20_9 O 0.43474(13) 0.38382(18) 0.3940(2)
N49_10 N 0.5972(2) 0.4028(2) 0.4028(2)
O18_10 O 0.56526(13) 0.3940(2) 0.38382(18)
O19_10 O 0.6060(2) 0.38382(18) 0.43474(13)
O20_10 O 0.61618(18) 0.43474(13) 0.3940(2)
N49_11 N 0.5972(2) 0.5972(2) 0.4028(2)
O18_11 O 0.6060(2) 0.56526(13) 0.38382(18)
O19_11 O 0.61618(18) 0.6060(2) 0.43474(13)
O20_11 O 0.56526(13) 0.61618(18) 0.3940(2)
N49_12 N 0.4028(2) 0.5972(2) 0.4028(2)
O18_12 O 0.43474(13) 0.6060(2) 0.38382(18)
O19_12 O 0.3940(2) 0.61618(18) 0.43474(13)
O20_12 O 0.38382(18) 0.56526(13) 0.3940(2)
N49_13 N 0.4028(2) 0.5972(2) 0.5972(2)
O18_13 O 0.3940(2) 0.56526(13) 0.61618(18)
O19_13 O 0.38382(18) 0.6060(2) 0.56526(13)
O20_13 O 0.43474(13) 0.61618(18) 0.6060(2)
N49_14 N 0.4028(2) 0.4028(2) 0.5972(2)
O18_14 O 0.3940(2) 0.38382(18) 0.56526(13)
O19_14 O 0.38382(18) 0.43474(13) 0.6060(2)
O20_14 O 0.43474(13) 0.3940(2) 0.61618(18)
N49_15 N 0.5972(2) 0.4028(2) 0.5972(2)
O18_15 O 0.6060(2) 0.43474(13) 0.61618(18)
O19_15 O 0.61618(18) 0.3940(2) 0.56526(13)
O20_15 O 0.56526(13) 0.38382(18) 0.6060(2)
N49_16 N 0.5972(2) 0.5972(2) 0.5972(2)
O18_16 O 0.56526(13) 0.6060(2) 0.61618(18)
O19_16 O 0.6060(2) 0.61618(18) 0.56526(13)
O20_16 O 0.61618(18) 0.56526(13) 0.6060(2)
loop_
_geom_bond_atom_site_label_1
_geom_bond_atom_site_label_2
_geom_bond_site_symmetry_1
_geom_bond_site_symmetry_2
Cu2 O1 1_555 1_555
Cu4 N10 1_555 1_555
Cu13 O3 1_555 1_555
N10 C51 1_555 1_555
N14 Cu4 1_555 1_555
O10 C117 1_555 1_555
O14 C121 1_555 1_555
N24 Cu2 1_555 1_555
N33 Cu13 1_555 1_555
N34 Cu13 1_555 1_555
N35 Cu13 1_555 1_555
N36 Cu13 1_555 1_555
C13 H10 1_555 1_555
C22 H19 1_555 1_555
N43 H26 1_555 1_555
N47 H30 1_555 1_555
C24 N24 1_555 1_555
C33 N33 1_555 1_555
H32 C24 1_555 1_555
H41 C33 1_555 1_555
C40 H48 1_555 1_555
C44 H52 1_555 1_555
C51 C55 1_555 1_555
C55 N14 1_555 1_555
C57 H54 1_555 1_555
C66 H63 1_555 1_555
C68 C13 1_555 1_555
C77 C22 1_555 1_555
C84 N10 1_555 1_555
C88 N14 1_555 1_555
H70 C84 1_555 1_555
H74 C88 1_555 1_555
C95 C40 1_555 1_555
C99 C44 1_555 1_555
H81 C95 1_555 1_555
H85 C99 1_555 1_555
C101 N24 1_555 1_555
C110 N33 1_555 1_555
H87 C101 1_555 1_555
H96 C110 1_555 1_555
C117 N43 1_555 1_555
C121 N47 1_555 1_555
C128 C40 1_555 1_555
C132 C44 1_555 1_555
C13 C24 1_555 1_555
C22 C33 1_555 1_555
N43 C68 1_555 1_555
N47 C77 1_555 1_555
C51 C95 1_555 1_555
C55 C99 1_555 1_555
C57 C68 1_555 1_555
C57 C101 1_555 1_555
C66 C77 1_555 1_555
C66 C110 1_555 1_555
C84 C128 1_555 1_555
C88 C132 1_555 1_555
C117 C128 1_555 1_555
C121 C132 1_555 1_555
O1 H98 1_555 1_555
Cu2_2 O1_2 1_555 1_555
Cu3 N9 1_555 1_555
N9 C50 1_555 1_555
N13 Cu3 1_555 1_555
N15 Cu3 1_555 1_555
N16 Cu3 1_555 1_555
N17 Cu3 1_555 1_555
N18 Cu3 1_555 1_555
O9 C116 1_555 1_555
O13 C120 1_555 1_555
N23 Cu2_2 1_555 1_555
N35 C32 1_555 1_555
C12 H9 1_555 1_555
C21 H18 1_555 1_555
N42 H25 1_555 1_555
N46 H29 1_555 1_555
C23 N23 1_555 1_555
C32 C21 1_555 1_555
H31 C23 1_555 1_555
H40 C32 1_555 1_555
C39 H47 1_555 1_555
C43 H51 1_555 1_555
C50 C54 1_555 1_555
C54 N13 1_555 1_555
C56 H53 1_555 1_555
C65 H62 1_555 1_555
C67 C12 1_555 1_555
C76 C21 1_555 1_555
C83 N9 1_555 1_555
C87 N13 1_555 1_555
H69 C83 1_555 1_555
H73 C87 1_555 1_555
C94 C39 1_555 1_555
C98 C43 1_555 1_555
H80 C94 1_555 1_555
H84 C98 1_555 1_555
C100 N23 1_555 1_555
C109 N35 1_555 1_555
H86 C100 1_555 1_555
H95 C109 1_555 1_555
C116 N42 1_555 1_555
C120 N46 1_555 1_555
C127 C39 1_555 1_555
C131 C43 1_555 1_555
C12 C23 1_555 1_555
N42 C67 1_555 1_555
N46 C76 1_555 1_555
C50 C94 1_555 1_555
C54 C98 1_555 1_555
C56 C67 1_555 1_555
C56 C100 1_555 1_555
C65 C76 1_555 1_555
C65 C109 1_555 1_555
C83 C127 1_555 1_555
C87 C131 1_555 1_555
C116 C127 1_555 1_555
C120 C131 1_555 1_555
O1_2 H97 1_555 1_555
Cu2_3 O1_3 1_555 1_555
Cu5 N11 1_555 1_555
N11 C52 1_555 1_555
N12 Cu5 1_555 1_555
N19 Cu5 1_555 1_555
N20 Cu5 1_555 1_555
N21 Cu5 1_555 1_555
N22 Cu5 1_555 1_555
O11 C118 1_555 1_555
O12 C119 1_555 1_555
N25 Cu2_3 1_555 1_555
N34 C31 1_555 1_555
C14 H11 1_555 1_555
C20 H17 1_555 1_555
N44 H27 1_555 1_555
N45 H28 1_555 1_555
C25 N25 1_555 1_555
C31 C20 1_555 1_555
H33 C25 1_555 1_555
H39 C31 1_555 1_555
C41 H49 1_555 1_555
C42 H50 1_555 1_555
C52 C53 1_555 1_555
C53 N12 1_555 1_555
C58 H55 1_555 1_555
C64 H61 1_555 1_555
C69 C14 1_555 1_555
C75 C20 1_555 1_555
C85 N11 1_555 1_555
C86 N12 1_555 1_555
H71 C85 1_555 1_555
H72 C86 1_555 1_555
C96 C41 1_555 1_555
C97 C42 1_555 1_555
H82 C96 1_555 1_555
H83 C97 1_555 1_555
C102 N25 1_555 1_555
C108 N34 1_555 1_555
H88 C102 1_555 1_555
H94 C108 1_555 1_555
C118 N44 1_555 1_555
C119 N45 1_555 1_555
C129 C41 1_555 1_555
C130 C42 1_555 1_555
C14 C25 1_555 1_555
N44 C69 1_555 1_555
N45 C75 1_555 1_555
C52 C96 1_555 1_555
C53 C97 1_555 1_555
C58 C69 1_555 1_555
C58 C102 1_555 1_555
C64 C75 1_555 1_555
C64 C108 1_555 1_555
C85 C129 1_555 1_555
C86 C130 1_555 1_555
C118 C129 1_555 1_555
C119 C130 1_555 1_555
Cu1 N1 1_555 1_555
Cu2_4 O1_4 1_555 1_555
N1 C4 1_555 1_555
O2 C10 1_555 1_555
N2 Cu2_4 1_555 1_555
C1 H1 1_555 1_555
N3 H2 1_555 1_555
C2 N2 1_555 1_555
H3 C2 1_555 1_555
C3 H4 1_555 1_555
C4 C8 1_555 1_555
C5 H5 1_555 1_555
C6 C1 1_555 1_555
C7 N1 1_555 1_555
H6 C7 1_555 1_555
C8 C3 1_555 1_555
H7 C8 1_555 1_555
C9 N2 1_555 1_555
H8 C9 1_555 1_555
C10 N3 1_555 1_555
C11 C3 1_555 1_555
Cu6_4 N26 1_555 1_555
Cu7_4 N27 1_555 1_555
Cu8 N28 1_555 1_555
Cu10 N30 1_555 1_555
N4 Cu1 1_555 1_555
N5 Cu1 1_555 1_555
N6 Cu1 1_555 1_555
N7 Cu1 1_555 1_555
N8 Cu1 1_555 1_555
O4 C111 1_555 1_555
O5 C112 1_555 1_555
O6 C113 1_555 1_555
O7 C114 1_555 1_555
O8 C115 1_555 1_555
N26 C26 1_555 1_555
N27 C27 1_555 1_555
N28 C28 1_555 1_555
N36 C29 1_555 1_555
N30 C30 1_555 1_555
C15 H12 1_555 1_555
C16 H13 1_555 1_555
C17 H14 1_555 1_555
C18 H15 1_555 1_555
C19 H16 1_555 1_555
N37 H20 1_555 1_555
N38 H21 1_555 1_555
N39 H22 1_555 1_555
N40 H23 1_555 1_555
N41 H24 1_555 1_555
C26 C15 1_555 1_555
C27 C16 1_555 1_555
C28 C17 1_555 1_555
C29 C18 1_555 1_555
C30 C19 1_555 1_555
H34 C26 1_555 1_555
H35 C27 1_555 1_555
H36 C28 1_555 1_555
H37 C29 1_555 1_555
H38 C30 1_555 1_555
C34 H42 1_555 1_555
C35 H43 1_555 1_555
C36 H44 1_555 1_555
C37 H45 1_555 1_555
C38 H46 1_555 1_555
C45 C4 1_555 1_555
C46 N4 1_555 1_555
C47 N5 1_555 1_555
C48 N6 1_555 1_555
C49 N8 1_555 1_555
C59 H56 1_555 1_555
C60 H57 1_555 1_555
C61 H58 1_555 1_555
C62 H59 1_555 1_555
C63 H60 1_555 1_555
C70 C15 1_555 1_555
C71 C16 1_555 1_555
C72 C17 1_555 1_555
C73 C18 1_555 1_555
C74 C19 1_555 1_555
C78 N4 1_555 1_555
C79 N5 1_555 1_555
C80 N6 1_555 1_555
C81 N7 1_555 1_555
C82 N8 1_555 1_555
H64 C78 1_555 1_555
H65 C79 1_555 1_555
H66 C80 1_555 1_555
H67 C81 1_555 1_555
H68 C82 1_555 1_555
C89 C34 1_555 1_555
C90 C35 1_555 1_555
C91 C36 1_555 1_555
C92 C37 1_555 1_555
C93 C38 1_555 1_555
H75 C89 1_555 1_555
H76 C90 1_555 1_555
H77 C91 1_555 1_555
H78 C92 1_555 1_555
H79 C93 1_555 1_555
C103 N26 1_555 1_555
C104 N27 1_555 1_555
C105 N28 1_555 1_555
C106 N36 1_555 1_555
C107 N30 1_555 1_555
H89 C103 1_555 1_555
H90 C104 1_555 1_555
H91 C105 1_555 1_555
H92 C106 1_555 1_555
H93 C107 1_555 1_555
C111 N37 1_555 1_555
C112 N38 1_555 1_555
C113 N39 1_555 1_555
C114 N40 1_555 1_555
C115 N41 1_555 1_555
C122 C35 1_555 1_555
C123 C36 1_555 1_555
C124 C37 1_555 1_555
C125 C34 1_555 1_555
C126 C38 1_555 1_555
C1 C2 1_555 1_555
N3 C6 1_555 1_555
C5 C6 1_555 1_555
C5 C9 1_555 1_555
C7 C11 1_555 1_555
C10 C11 1_555 1_555
N7 C45 1_555 1_555
N37 C70 1_555 1_555
N38 C71 1_555 1_555
N39 C72 1_555 1_555
N40 C73 1_555 1_555
N41 C74 1_555 1_555
C45 C89 1_555 1_555
C46 C48 1_555 1_555
C46 C90 1_555 1_555
C47 C49 1_555 1_555
C47 C91 1_555 1_555
C48 C92 1_555 1_555
C49 C93 1_555 1_555
C59 C70 1_555 1_555
C59 C103 1_555 1_555
C60 C71 1_555 1_555
C60 C104 1_555 1_555
C61 C72 1_555 1_555
C61 C105 1_555 1_555
C62 C73 1_555 1_555
C62 C106 1_555 1_555
C63 C74 1_555 1_555
C63 C107 1_555 1_555
C78 C122 1_555 1_555
C79 C123 1_555 1_555
C80 C124 1_555 1_555
C81 C125 1_555 1_555
C82 C126 1_555 1_555
C111 C122 1_555 1_555
C112 C123 1_555 1_555
C113 C124 1_555 1_555
C114 C125 1_555 1_555
C115 C126 1_555 1_555
Cu6 O1_5 1_555 1_555
Cu5_2 N11_2 1_555 1_555
Cu8 N31 1_555 1_555
N11_2 C52_2 1_555 1_555
N12_2 Cu5_2 1_555 1_555
N19_2 Cu5_2 1_555 1_555
N20_2 Cu5_2 1_555 1_555
N21_2 Cu5_2 1_555 1_555
N22_2 Cu5_2 1_555 1_555
O11_2 C118_2 1_555 1_555
O12_2 C119_2 1_555 1_555
N25_2 Cu6 1_555 1_555
N31 C31_2 1_555 1_555
C14_2 H11_2 1_555 1_555
C20_2 H17_2 1_555 1_555
N44_2 H27_2 1_555 1_555
N45_2 H28_2 1_555 1_555
C25_2 N25_2 1_555 1_555
C31_2 C20_2 1_555 1_555
H33_2 C25_2 1_555 1_555
H39_2 C31_2 1_555 1_555
C41_2 H49_2 1_555 1_555
C42_2 H50_2 1_555 1_555
C52_2 C53_2 1_555 1_555
C53_2 N12_2 1_555 1_555
C58_2 H55_2 1_555 1_555
C64_2 H61_2 1_555 1_555
C69_2 C14_2 1_555 1_555
C75_2 C20_2 1_555 1_555
C85_2 N11_2 1_555 1_555
C86_2 N12_2 1_555 1_555
H71_2 C85_2 1_555 1_555
H72_2 C86_2 1_555 1_555
C96_2 C41_2 1_555 1_555
C97_2 C42_2 1_555 1_555
H82_2 C96_2 1_555 1_555
H83_2 C97_2 1_555 1_555
C102_2 N25_2 1_555 1_555
C108_2 N31 1_555 1_555
H88_2 C102_2 1_555 1_555
H94_2 C108_2 1_555 1_555
C118_2 N44_2 1_555 1_555
C119_2 N45_2 1_555 1_555
C129_2 C41_2 1_555 1_555
C130_2 C42_2 1_555 1_555
C14_2 C25_2 1_555 1_555
N44_2 C69_2 1_555 1_555
N45_2 C75_2 1_555 1_555
C52_2 C96_2 1_555 1_555
C53_2 C97_2 1_555 1_555
C58_2 C69_2 1_555 1_555
C58_2 C102_2 1_555 1_555
C64_2 C75_2 1_555 1_555
C64_2 C108_2 1_555 1_555
C85_2 C129_2 1_555 1_555
C86_2 C130_2 1_555 1_555
C118_2 C129_2 1_555 1_555
C119_2 C130_2 1_555 1_555
Cu1_2 N1_2 1_555 1_555
Cu6_2 O1_6 1_555 1_555
N1_2 C4_2 1_555 1_555
O2_2 C10_2 1_555 1_555
N2_2 Cu6_2 1_555 1_555
C1_2 H1_2 1_555 1_555
N3_2 H2_2 1_555 1_555
C2_2 N2_2 1_555 1_555
H3_2 C2_2 1_555 1_555
C3_2 H4_2 1_555 1_555
C4_2 C8_2 1_555 1_555
C5_2 H5_2 1_555 1_555
C6_2 C1_2 1_555 1_555
C7_2 N1_2 1_555 1_555
H6_2 C7_2 1_555 1_555
C8_2 C3_2 1_555 1_555
H7_2 C8_2 1_555 1_555
C9_2 N2_2 1_555 1_555
H8_2 C9_2 1_555 1_555
C10_2 N3_2 1_555 1_555
C11_2 C3_2 1_555 1_555
Cu6_8 N26_2 1_555 1_555
Cu7_2 N27_2 1_555 1_555
Cu8_2 N28_2 1_555 1_555
Cu8 N29 1_555 1_555
Cu10 N30_2 1_555 1_555
N4_2 Cu1_2 1_555 1_555
N5_2 Cu1_2 1_555 1_555
N6_2 Cu1_2 1_555 1_555
N7_2 Cu1_2 1_555 1_555
N8_2 Cu1_2 1_555 1_555
O4_2 C111_2 1_555 1_555
O5_2 C112_2 1_555 1_555
O6_2 C113_2 1_555 1_555
O7_2 C114_2 1_555 1_555
O8_2 C115_2 1_555 1_555
N26_2 C26_2 1_555 1_555
N27_2 C27_2 1_555 1_555
N28_2 C28_2 1_555 1_555
N29 C29_2 1_555 1_555
N30_2 C30_2 1_555 1_555
C15_2 H12_2 1_555 1_555
C16_2 H13_2 1_555 1_555
C17_2 H14_2 1_555 1_555
C18_2 H15_2 1_555 1_555
C19_2 H16_2 1_555 1_555
N37_2 H20_2 1_555 1_555
N38_2 H21_2 1_555 1_555
N39_2 H22_2 1_555 1_555
N40_2 H23_2 1_555 1_555
N41_2 H24_2 1_555 1_555
C26_2 C15_2 1_555 1_555
C27_2 C16_2 1_555 1_555
C28_2 C17_2 1_555 1_555
C29_2 C18_2 1_555 1_555
C30_2 C19_2 1_555 1_555
H34_2 C26_2 1_555 1_555
H35_2 C27_2 1_555 1_555
H36_2 C28_2 1_555 1_555
H37_2 C29_2 1_555 1_555
H38_2 C30_2 1_555 1_555
C34_2 H42_2 1_555 1_555
C35_2 H43_2 1_555 1_555
C36_2 H44_2 1_555 1_555
C37_2 H45_2 1_555 1_555
C38_2 H46_2 1_555 1_555
C45_2 C4_2 1_555 1_555
C46_2 N4_2 1_555 1_555
C47_2 N5_2 1_555 1_555
C48_2 N6_2 1_555 1_555
C49_2 N8_2 1_555 1_555
C59_2 H56_2 1_555 1_555
C60_2 H57_2 1_555 1_555
C61_2 H58_2 1_555 1_555
C62_2 H59_2 1_555 1_555
C63_2 H60_2 1_555 1_555
C70_2 C15_2 1_555 1_555
C71_2 C16_2 1_555 1_555
C72_2 C17_2 1_555 1_555
C73_2 C18_2 1_555 1_555
C74_2 C19_2 1_555 1_555
C78_2 N4_2 1_555 1_555
C79_2 N5_2 1_555 1_555
C80_2 N6_2 1_555 1_555
C81_2 N7_2 1_555 1_555
C82_2 N8_2 1_555 1_555
H64_2 C78_2 1_555 1_555
H65_2 C79_2 1_555 1_555
H66_2 C80_2 1_555 1_555
H67_2 C81_2 1_555 1_555
H68_2 C82_2 1_555 1_555
C89_2 C34_2 1_555 1_555
C90_2 C35_2 1_555 1_555
C91_2 C36_2 1_555 1_555
C92_2 C37_2 1_555 1_555
C93_2 C38_2 1_555 1_555
H75_2 C89_2 1_555 1_555
H76_2 C90_2 1_555 1_555
H77_2 C91_2 1_555 1_555
H78_2 C92_2 1_555 1_555
H79_2 C93_2 1_555 1_555
C103_2 N26_2 1_555 1_555
C104_2 N27_2 1_555 1_555
C105_2 N28_2 1_555 1_555
C106_2 N29 1_555 1_555
C107_2 N30_2 1_555 1_555
H89_2 C103_2 1_555 1_555
H90_2 C104_2 1_555 1_555
H91_2 C105_2 1_555 1_555
H92_2 C106_2 1_555 1_555
H93_2 C107_2 1_555 1_555
C111_2 N37_2 1_555 1_555
C112_2 N38_2 1_555 1_555
C113_2 N39_2 1_555 1_555
C114_2 N40_2 1_555 1_555
C115_2 N41_2 1_555 1_555
C122_2 C35_2 1_555 1_555
C123_2 C36_2 1_555 1_555
C124_2 C37_2 1_555 1_555
C125_2 C34_2 1_555 1_555
C126_2 C38_2 1_555 1_555
C1_2 C2_2 1_555 1_555
N3_2 C6_2 1_555 1_555
C5_2 C6_2 1_555 1_555
C5_2 C9_2 1_555 1_555
C7_2 C11_2 1_555 1_555
C10_2 C11_2 1_555 1_555
N7_2 C45_2 1_555 1_555
N37_2 C70_2 1_555 1_555
N38_2 C71_2 1_555 1_555
N39_2 C72_2 1_555 1_555
N40_2 C73_2 1_555 1_555
N41_2 C74_2 1_555 1_555
C45_2 C89_2 1_555 1_555
C46_2 C48_2 1_555 1_555
C46_2 C90_2 1_555 1_555
C47_2 C49_2 1_555 1_555
C47_2 C91_2 1_555 1_555
C48_2 C92_2 1_555 1_555
C49_2 C93_2 1_555 1_555
C59_2 C70_2 1_555 1_555
C59_2 C103_2 1_555 1_555
C60_2 C71_2 1_555 1_555
C60_2 C104_2 1_555 1_555
C61_2 C72_2 1_555 1_555
C61_2 C105_2 1_555 1_555
C62_2 C73_2 1_555 1_555
C62_2 C106_2 1_555 1_555
C63_2 C74_2 1_555 1_555
C63_2 C107_2 1_555 1_555
C78_2 C122_2 1_555 1_555
C79_2 C123_2 1_555 1_555
C80_2 C124_2 1_555 1_555
C81_2 C125_2 1_555 1_555
C82_2 C126_2 1_555 1_555
C111_2 C122_2 1_555 1_555
C112_2 C123_2 1_555 1_555
C113_2 C124_2 1_555 1_555
C114_2 C125_2 1_555 1_555
C115_2 C126_2 1_555 1_555
Cu6_3 O1_7 1_555 1_555
Cu8 O3_2 1_555 1_555
N20 C51_2 1_555 1_555
O10_2 C117_2 1_555 1_555
O14_2 C121_2 1_555 1_555
N24_2 Cu6_3 1_555 1_555
N33_2 Cu8 1_555 1_555
C13_2 H10_2 1_555 1_555
C22_2 H19_2 1_555 1_555
N43_2 H26_2 1_555 1_555
N47_2 H30_2 1_555 1_555
C24_2 N24_2 1_555 1_555
C33_2 N33_2 1_555 1_555
H32_2 C24_2 1_555 1_555
H41_2 C33_2 1_555 1_555
C40_2 H48_2 1_555 1_555
C44_2 H52_2 1_555 1_555
C51_2 C55_2 1_555 1_555
C55_2 N22 1_555 1_555
C57_2 H54_2 1_555 1_555
C66_2 H63_2 1_555 1_555
C68_2 C13_2 1_555 1_555
C77_2 C22_2 1_555 1_555
C84_2 N20 1_555 1_555
C88_2 N22 1_555 1_555
H70_2 C84_2 1_555 1_555
H74_2 C88_2 1_555 1_555
C95_2 C40_2 1_555 1_555
C99_2 C44_2 1_555 1_555
H81_2 C95_2 1_555 1_555
H85_2 C99_2 1_555 1_555
C101_2 N24_2 1_555 1_555
C110_2 N33_2 1_555 1_555
H87_2 C101_2 1_555 1_555
H96_2 C110_2 1_555 1_555
C117_2 N43_2 1_555 1_555
C121_2 N47_2 1_555 1_555
C128_2 C40_2 1_555 1_555
C132_2 C44_2 1_555 1_555
C13_2 C24_2 1_555 1_555
C22_2 C33_2 1_555 1_555
N43_2 C68_2 1_555 1_555
N47_2 C77_2 1_555 1_555
C51_2 C95_2 1_555 1_555
C55_2 C99_2 1_555 1_555
C57_2 C68_2 1_555 1_555
C57_2 C101_2 1_555 1_555
C66_2 C77_2 1_555 1_555
C66_2 C110_2 1_555 1_555
C84_2 C128_2 1_555 1_555
C88_2 C132_2 1_555 1_555
C117_2 C128_2 1_555 1_555
C121_2 C132_2 1_555 1_555
O1_7 H98_2 1_555 1_555
Cu6_4 O1_8 1_555 1_555
O1_8 H97_2 1_555 1_555
Cu6_5 O1_9 1_555 1_555
Cu5_3 N11_3 1_555 1_555
Cu8_2 N31_2 1_555 1_555
N11_3 C52_3 1_555 1_555
N12_3 Cu5_3 1_555 1_555
N19_3 Cu5_3 1_555 1_555
N20_3 Cu5_3 1_555 1_555
N21_3 Cu5_3 1_555 1_555
N22_3 Cu5_3 1_555 1_555
O11_3 C118_3 1_555 1_555
O12_3 C119_3 1_555 1_555
N25_3 Cu6_5 1_555 1_555
N31_2 C31_3 1_555 1_555
C14_3 H11_3 1_555 1_555
C20_3 H17_3 1_555 1_555
N44_3 H27_3 1_555 1_555
N45_3 H28_3 1_555 1_555
C25_3 N25_3 1_555 1_555
C31_3 C20_3 1_555 1_555
H33_3 C25_3 1_555 1_555
H39_3 C31_3 1_555 1_555
C41_3 H49_3 1_555 1_555
C42_3 H50_3 1_555 1_555
C52_3 C53_3 1_555 1_555
C53_3 N12_3 1_555 1_555
C58_3 H55_3 1_555 1_555
C64_3 H61_3 1_555 1_555
C69_3 C14_3 1_555 1_555
C75_3 C20_3 1_555 1_555
C85_3 N11_3 1_555 1_555
C86_3 N12_3 1_555 1_555
H71_3 C85_3 1_555 1_555
H72_3 C86_3 1_555 1_555
C96_3 C41_3 1_555 1_555
C97_3 C42_3 1_555 1_555
H82_3 C96_3 1_555 1_555
H83_3 C97_3 1_555 1_555
C102_3 N25_3 1_555 1_555
C108_3 N31_2 1_555 1_555
H88_3 C102_3 1_555 1_555
H94_3 C108_3 1_555 1_555
C118_3 N44_3 1_555 1_555
C119_3 N45_3 1_555 1_555
C129_3 C41_3 1_555 1_555
C130_3 C42_3 1_555 1_555
C14_3 C25_3 1_555 1_555
N44_3 C69_3 1_555 1_555
N45_3 C75_3 1_555 1_555
C52_3 C96_3 1_555 1_555
C53_3 C97_3 1_555 1_555
C58_3 C69_3 1_555 1_555
C58_3 C102_3 1_555 1_555
C64_3 C75_3 1_555 1_555
C64_3 C108_3 1_555 1_555
C85_3 C129_3 1_555 1_555
C86_3 C130_3 1_555 1_555
C118_3 C129_3 1_555 1_555
C119_3 C130_3 1_555 1_555
Cu1_3 N1_3 1_555 1_555
Cu6_6 O1_10 1_555 1_555
N1_3 C4_3 1_555 1_555
O2_3 C10_3 1_555 1_555
N2_3 Cu6_6 1_555 1_555
C1_3 H1_3 1_555 1_555
N3_3 H2_3 1_555 1_555
C2_3 N2_3 1_555 1_555
H3_3 C2_3 1_555 1_555
C3_3 H4_3 1_555 1_555
C4_3 C8_3 1_555 1_555
C5_3 H5_3 1_555 1_555
C6_3 C1_3 1_555 1_555
C7_3 N1_3 1_555 1_555
H6_3 C7_3 1_555 1_555
C8_3 C3_3 1_555 1_555
H7_3 C8_3 1_555 1_555
C9_3 N2_3 1_555 1_555
H8_3 C9_3 1_555 1_555
C10_3 N3_3 1_555 1_555
C11_3 C3_3 1_555 1_555
Cu6_10 N26_3 1_555 1_555
Cu7 N27_3 1_555 1_555
Cu8_3 N28_3 1_555 1_555
Cu8_2 N29_2 1_555 1_555
Cu10 N30_3 1_555 1_555
N4_3 Cu1_3 1_555 1_555
N5_3 Cu1_3 1_555 1_555
N6_3 Cu1_3 1_555 1_555
N7_3 Cu1_3 1_555 1_555
N8_3 Cu1_3 1_555 1_555
O4_3 C111_3 1_555 1_555
O5_3 C112_3 1_555 1_555
O6_3 C113_3 1_555 1_555
O7_3 C114_3 1_555 1_555
O8_3 C115_3 1_555 1_555
N26_3 C26_3 1_555 1_555
N27_3 C27_3 1_555 1_555
N28_3 C28_3 1_555 1_555
N29_2 C29_3 1_555 1_555
N30_3 C30_3 1_555 1_555
C15_3 H12_3 1_555 1_555
C16_3 H13_3 1_555 1_555
C17_3 H14_3 1_555 1_555
C18_3 H15_3 1_555 1_555
C19_3 H16_3 1_555 1_555
N37_3 H20_3 1_555 1_555
N38_3 H21_3 1_555 1_555
N39_3 H22_3 1_555 1_555
N40_3 H23_3 1_555 1_555
N41_3 H24_3 1_555 1_555
C26_3 C15_3 1_555 1_555
C27_3 C16_3 1_555 1_555
C28_3 C17_3 1_555 1_555
C29_3 C18_3 1_555 1_555
C30_3 C19_3 1_555 1_555
H34_3 C26_3 1_555 1_555
H35_3 C27_3 1_555 1_555
H36_3 C28_3 1_555 1_555
H37_3 C29_3 1_555 1_555
H38_3 C30_3 1_555 1_555
C34_3 H42_3 1_555 1_555
C35_3 H43_3 1_555 1_555
C36_3 H44_3 1_555 1_555
C37_3 H45_3 1_555 1_555
C38_3 H46_3 1_555 1_555
C45_3 C4_3 1_555 1_555
C46_3 N4_3 1_555 1_555
C47_3 N5_3 1_555 1_555
C48_3 N6_3 1_555 1_555
C49_3 N8_3 1_555 1_555
C59_3 H56_3 1_555 1_555
C60_3 H57_3 1_555 1_555
C61_3 H58_3 1_555 1_555
C62_3 H59_3 1_555 1_555
C63_3 H60_3 1_555 1_555
C70_3 C15_3 1_555 1_555
C71_3 C16_3 1_555 1_555
C72_3 C17_3 1_555 1_555
C73_3 C18_3 1_555 1_555
C74_3 C19_3 1_555 1_555
C78_3 N4_3 1_555 1_555
C79_3 N5_3 1_555 1_555
C80_3 N6_3 1_555 1_555
C81_3 N7_3 1_555 1_555
C82_3 N8_3 1_555 1_555
H64_3 C78_3 1_555 1_555
H65_3 C79_3 1_555 1_555
H66_3 C80_3 1_555 1_555
H67_3 C81_3 1_555 1_555
H68_3 C82_3 1_555 1_555
C89_3 C34_3 1_555 1_555
C90_3 C35_3 1_555 1_555
C91_3 C36_3 1_555 1_555
C92_3 C37_3 1_555 1_555
C93_3 C38_3 1_555 1_555
H75_3 C89_3 1_555 1_555
H76_3 C90_3 1_555 1_555
H77_3 C91_3 1_555 1_555
H78_3 C92_3 1_555 1_555
H79_3 C93_3 1_555 1_555
C103_3 N26_3 1_555 1_555
C104_3 N27_3 1_555 1_555
C105_3 N28_3 1_555 1_555
C106_3 N29_2 1_555 1_555
C107_3 N30_3 1_555 1_555
H89_3 C103_3 1_555 1_555
H90_3 C104_3 1_555 1_555
H91_3 C105_3 1_555 1_555
H92_3 C106_3 1_555 1_555
H93_3 C107_3 1_555 1_555
C111_3 N37_3 1_555 1_555
C112_3 N38_3 1_555 1_555
C113_3 N39_3 1_555 1_555
C114_3 N40_3 1_555 1_555
C115_3 N41_3 1_555 1_555
C122_3 C35_3 1_555 1_555
C123_3 C36_3 1_555 1_555
C124_3 C37_3 1_555 1_555
C125_3 C34_3 1_555 1_555
C126_3 C38_3 1_555 1_555
C1_3 C2_3 1_555 1_555
N3_3 C6_3 1_555 1_555
C5_3 C6_3 1_555 1_555
C5_3 C9_3 1_555 1_555
C7_3 C11_3 1_555 1_555
C10_3 C11_3 1_555 1_555
N7_3 C45_3 1_555 1_555
N37_3 C70_3 1_555 1_555
N38_3 C71_3 1_555 1_555
N39_3 C72_3 1_555 1_555
N40_3 C73_3 1_555 1_555
N41_3 C74_3 1_555 1_555
C45_3 C89_3 1_555 1_555
C46_3 C48_3 1_555 1_555
C46_3 C90_3 1_555 1_555
C47_3 C49_3 1_555 1_555
C47_3 C91_3 1_555 1_555
C48_3 C92_3 1_555 1_555
C49_3 C93_3 1_555 1_555
C59_3 C70_3 1_555 1_555
C59_3 C103_3 1_555 1_555
C60_3 C71_3 1_555 1_555
C60_3 C104_3 1_555 1_555
C61_3 C72_3 1_555 1_555
C61_3 C105_3 1_555 1_555
C62_3 C73_3 1_555 1_555
C62_3 C106_3 1_555 1_555
C63_3 C74_3 1_555 1_555
C63_3 C107_3 1_555 1_555
C78_3 C122_3 1_555 1_555
C79_3 C123_3 1_555 1_555
C80_3 C124_3 1_555 1_555
C81_3 C125_3 1_555 1_555
C82_3 C126_3 1_555 1_555
C111_3 C122_3 1_555 1_555
C112_3 C123_3 1_555 1_555
C113_3 C124_3 1_555 1_555
C114_3 C125_3 1_555 1_555
C115_3 C126_3 1_555 1_555
Cu6_7 O1_11 1_555 1_555
Cu8_2 O3_3 1_555 1_555
N20_2 C51_3 1_555 1_555
O10_3 C117_3 1_555 1_555
O14_3 C121_3 1_555 1_555
N24_3 Cu6_7 1_555 1_555
N33_3 Cu8_2 1_555 1_555
C13_3 H10_3 1_555 1_555
C22_3 H19_3 1_555 1_555
N43_3 H26_3 1_555 1_555
N47_3 H30_3 1_555 1_555
C24_3 N24_3 1_555 1_555
C33_3 N33_3 1_555 1_555
H32_3 C24_3 1_555 1_555
H41_3 C33_3 1_555 1_555
C40_3 H48_3 1_555 1_555
C44_3 H52_3 1_555 1_555
C51_3 C55_3 1_555 1_555
C55_3 N22_2 1_555 1_555
C57_3 H54_3 1_555 1_555
C66_3 H63_3 1_555 1_555
C68_3 C13_3 1_555 1_555
C77_3 C22_3 1_555 1_555
C84_3 N20_2 1_555 1_555
C88_3 N22_2 1_555 1_555
H70_3 C84_3 1_555 1_555
H74_3 C88_3 1_555 1_555
C95_3 C40_3 1_555 1_555
C99_3 C44_3 1_555 1_555
H81_3 C95_3 1_555 1_555
H85_3 C99_3 1_555 1_555
C101_3 N24_3 1_555 1_555
C110_3 N33_3 1_555 1_555
H87_3 C101_3 1_555 1_555
H96_3 C110_3 1_555 1_555
C117_3 N43_3 1_555 1_555
C121_3 N47_3 1_555 1_555
C128_3 C40_3 1_555 1_555
C132_3 C44_3 1_555 1_555
C13_3 C24_3 1_555 1_555
C22_3 C33_3 1_555 1_555
N43_3 C68_3 1_555 1_555
N47_3 C77_3 1_555 1_555
C51_3 C95_3 1_555 1_555
C55_3 C99_3 1_555 1_555
C57_3 C68_3 1_555 1_555
C57_3 C101_3 1_555 1_555
C66_3 C77_3 1_555 1_555
C66_3 C110_3 1_555 1_555
C84_3 C128_3 1_555 1_555
C88_3 C132_3 1_555 1_555
C117_3 C128_3 1_555 1_555
C121_3 C132_3 1_555 1_555
O1_11 H98_3 1_555 1_555
Cu6_8 O1_12 1_555 1_555
O1_12 H97_3 1_555 1_555
Cu6_9 O1_13 1_555 1_555
Cu8_3 O3_4 1_555 1_555
N20_3 C51_4 1_555 1_555
O10_4 C117_4 1_555 1_555
O14_4 C121_4 1_555 1_555
N24_4 Cu6_9 1_555 1_555
N33_4 Cu8_3 1_555 1_555
N34_2 Cu8_3 1_555 1_555
N36_2 Cu8_3 1_555 1_555
C13_4 H10_4 1_555 1_555
C22_4 H19_4 1_555 1_555
N43_4 H26_4 1_555 1_555
N47_4 H30_4 1_555 1_555
C24_4 N24_4 1_555 1_555
C33_4 N33_4 1_555 1_555
H32_4 C24_4 1_555 1_555
H41_4 C33_4 1_555 1_555
C40_4 H48_4 1_555 1_555
C44_4 H52_4 1_555 1_555
C51_4 C55_4 1_555 1_555
C55_4 N22_3 1_555 1_555
C57_4 H54_4 1_555 1_555
C66_4 H63_4 1_555 1_555
C68_4 C13_4 1_555 1_555
C77_4 C22_4 1_555 1_555
C84_4 N20_3 1_555 1_555
C88_4 N22_3 1_555 1_555
H70_4 C84_4 1_555 1_555
H74_4 C88_4 1_555 1_555
C95_4 C40_4 1_555 1_555
C99_4 C44_4 1_555 1_555
H81_4 C95_4 1_555 1_555
H85_4 C99_4 1_555 1_555
C101_4 N24_4 1_555 1_555
C110_4 N33_4 1_555 1_555
H87_4 C101_4 1_555 1_555
H96_4 C110_4 1_555 1_555
C117_4 N43_4 1_555 1_555
C121_4 N47_4 1_555 1_555
C128_4 C40_4 1_555 1_555
C132_4 C44_4 1_555 1_555
C13_4 C24_4 1_555 1_555
C22_4 C33_4 1_555 1_555
N43_4 C68_4 1_555 1_555
N47_4 C77_4 1_555 1_555
C51_4 C95_4 1_555 1_555
C55_4 C99_4 1_555 1_555
C57_4 C68_4 1_555 1_555
C57_4 C101_4 1_555 1_555
C66_4 C77_4 1_555 1_555
C66_4 C110_4 1_555 1_555
C84_4 C128_4 1_555 1_555
C88_4 C132_4 1_555 1_555
C117_4 C128_4 1_555 1_555
C121_4 C132_4 1_555 1_555
O1_13 H98_4 1_555 1_555
Cu6_10 O1_14 1_555 1_555
O1_14 H97_4 1_555 1_555
Cu6_11 O1_15 1_555 1_555
Cu4 N11_4 1_555 1_555
N11_4 C52_4 1_555 1_555
N12_4 Cu4 1_555 1_555
N19_4 Cu4 1_555 1_555
N21_4 Cu4 1_555 1_555
O11_4 C118_4 1_555 1_555
O12_4 C119_4 1_555 1_555
N25_4 Cu6_11 1_555 1_555
N34_2 C31_4 1_555 1_555
C14_4 H11_4 1_555 1_555
C20_4 H17_4 1_555 1_555
N44_4 H27_4 1_555 1_555
N45_4 H28_4 1_555 1_555
C25_4 N25_4 1_555 1_555
C31_4 C20_4 1_555 1_555
H33_4 C25_4 1_555 1_555
H39_4 C31_4 1_555 1_555
C41_4 H49_4 1_555 1_555
C42_4 H50_4 1_555 1_555
C52_4 C53_4 1_555 1_555
C53_4 N12_4 1_555 1_555
C58_4 H55_4 1_555 1_555
C64_4 H61_4 1_555 1_555
C69_4 C14_4 1_555 1_555
C75_4 C20_4 1_555 1_555
C85_4 N11_4 1_555 1_555
C86_4 N12_4 1_555 1_555
H71_4 C85_4 1_555 1_555
H72_4 C86_4 1_555 1_555
C96_4 C41_4 1_555 1_555
C97_4 C42_4 1_555 1_555
H82_4 C96_4 1_555 1_555
H83_4 C97_4 1_555 1_555
C102_4 N25_4 1_555 1_555
C108_4 N34_2 1_555 1_555
H88_4 C102_4 1_555 1_555
H94_4 C108_4 1_555 1_555
C118_4 N44_4 1_555 1_555
C119_4 N45_4 1_555 1_555
C129_4 C41_4 1_555 1_555
C130_4 C42_4 1_555 1_555
C14_4 C25_4 1_555 1_555
N44_4 C69_4 1_555 1_555
N45_4 C75_4 1_555 1_555
C52_4 C96_4 1_555 1_555
C53_4 C97_4 1_555 1_555
C58_4 C69_4 1_555 1_555
C58_4 C102_4 1_555 1_555
C64_4 C75_4 1_555 1_555
C64_4 C108_4 1_555 1_555
C85_4 C129_4 1_555 1_555
C86_4 C130_4 1_555 1_555
C118_4 C129_4 1_555 1_555
C119_4 C130_4 1_555 1_555
Cu6_12 O1_16 1_555 1_555
N15 C4_4 1_555 1_555
O2_4 C10_4 1_555 1_555
N2_4 Cu6_12 1_555 1_555
C1_4 H1_4 1_555 1_555
N3_4 H2_4 1_555 1_555
C2_4 N2_4 1_555 1_555
H3_4 C2_4 1_555 1_555
C3_4 H4_4 1_555 1_555
C4_4 C8_4 1_555 1_555
C5_4 H5_4 1_555 1_555
C6_4 C1_4 1_555 1_555
C7_4 N15 1_555 1_555
H6_4 C7_4 1_555 1_555
C8_4 C3_4 1_555 1_555
H7_4 C8_4 1_555 1_555
C9_4 N2_4 1_555 1_555
H8_4 C9_4 1_555 1_555
C10_4 N3_4 1_555 1_555
C11_4 C3_4 1_555 1_555
Cu7_3 N27_4 1_555 1_555
Cu10 N30_4 1_555 1_555
O5_4 C112_4 1_555 1_555
O7_4 C114_4 1_555 1_555
O8_4 C115_4 1_555 1_555
N27_4 C27_4 1_555 1_555
N36_2 C29_4 1_555 1_555
N30_4 C30_4 1_555 1_555
C16_4 H13_4 1_555 1_555
C18_4 H15_4 1_555 1_555
C19_4 H16_4 1_555 1_555
N38_4 H21_4 1_555 1_555
N40_4 H23_4 1_555 1_555
N41_4 H24_4 1_555 1_555
C27_4 C16_4 1_555 1_555
C29_4 C18_4 1_555 1_555
C30_4 C19_4 1_555 1_555
H35_4 C27_4 1_555 1_555
H37_4 C29_4 1_555 1_555
H38_4 C30_4 1_555 1_555
C34_4 H42_4 1_555 1_555
C36_4 H44_4 1_555 1_555
C38_4 H46_4 1_555 1_555
C45_4 C4_4 1_555 1_555
C47_4 N16 1_555 1_555
C49_4 N17 1_555 1_555
C60_4 H57_4 1_555 1_555
C62_4 H59_4 1_555 1_555
C63_4 H60_4 1_555 1_555
C71_4 C16_4 1_555 1_555
C73_4 C18_4 1_555 1_555
C74_4 C19_4 1_555 1_555
C79_4 N16 1_555 1_555
C81_4 N18 1_555 1_555
C82_4 N17 1_555 1_555
H65_4 C79_4 1_555 1_555
H67_4 C81_4 1_555 1_555
H68_4 C82_4 1_555 1_555
C89_4 C34_4 1_555 1_555
C91_4 C36_4 1_555 1_555
C93_4 C38_4 1_555 1_555
H75_4 C89_4 1_555 1_555
H77_4 C91_4 1_555 1_555
H79_4 C93_4 1_555 1_555
C104_4 N27_4 1_555 1_555
C106_4 N36_2 1_555 1_555
C107_4 N30_4 1_555 1_555
H90_4 C104_4 1_555 1_555
H92_4 C106_4 1_555 1_555
H93_4 C107_4 1_555 1_555
C112_4 N38_4 1_555 1_555
C114_4 N40_4 1_555 1_555
C115_4 N41_4 1_555 1_555
C123_4 C36_4 1_555 1_555
C125_4 C34_4 1_555 1_555
C126_4 C38_4 1_555 1_555
C1_4 C2_4 1_555 1_555
N3_4 C6_4 1_555 1_555
C5_4 C6_4 1_555 1_555
C5_4 C9_4 1_555 1_555
C7_4 C11_4 1_555 1_555
C10_4 C11_4 1_555 1_555
N18 C45_4 1_555 1_555
N38_4 C71_4 1_555 1_555
N40_4 C73_4 1_555 1_555
N41_4 C74_4 1_555 1_555
C45_4 C89_4 1_555 1_555
C47_4 C49_4 1_555 1_555
C47_4 C91_4 1_555 1_555
C49_4 C93_4 1_555 1_555
C60_4 C71_4 1_555 1_555
C60_4 C104_4 1_555 1_555
C62_4 C73_4 1_555 1_555
C62_4 C106_4 1_555 1_555
C63_4 C74_4 1_555 1_555
C63_4 C107_4 1_555 1_555
C79_4 C123_4 1_555 1_555
C81_4 C125_4 1_555 1_555
C82_4 C126_4 1_555 1_555
C112_4 C123_4 1_555 1_555
C114_4 C125_4 1_555 1_555
C115_4 C126_4 1_555 1_555
O1 H97_5 1_555 1_555
O1_3 H98_5 1_555 1_555
Cu7_7 N27_5 1_555 1_555
Cu10_2 N30_5 1_555 1_555
O5_5 C112_5 1_555 1_555
O8_5 C115_5 1_555 1_555
N27_5 C27_5 1_555 1_555
N30_5 C30_5 1_555 1_555
C16_5 H13_5 1_555 1_555
C19_5 H16_5 1_555 1_555
N38_5 H21_5 1_555 1_555
N41_5 H24_5 1_555 1_555
C27_5 C16_5 1_555 1_555
C30_5 C19_5 1_555 1_555
H35_5 C27_5 1_555 1_555
H38_5 C30_5 1_555 1_555
C36_5 H44_5 1_555 1_555
C38_5 H46_5 1_555 1_555
C47_5 N19_4 1_555 1_555
C49_5 N21_4 1_555 1_555
C60_5 H57_5 1_555 1_555
C63_5 H60_5 1_555 1_555
C71_5 C16_5 1_555 1_555
C74_5 C19_5 1_555 1_555
C79_5 N19_4 1_555 1_555
C82_5 N21_4 1_555 1_555
H65_5 C79_5 1_555 1_555
H68_5 C82_5 1_555 1_555
C91_5 C36_5 1_555 1_555
C93_5 C38_5 1_555 1_555
H77_5 C91_5 1_555 1_555
H79_5 C93_5 1_555 1_555
C104_5 N27_5 1_555 1_555
C107_5 N30_5 1_555 1_555
H90_5 C104_5 1_555 1_555
H93_5 C107_5 1_555 1_555
C112_5 N38_5 1_555 1_555
C115_5 N41_5 1_555 1_555
C123_5 C36_5 1_555 1_555
C126_5 C38_5 1_555 1_555
N38_5 C71_5 1_555 1_555
N41_5 C74_5 1_555 1_555
C47_5 C49_5 1_555 1_555
C47_5 C91_5 1_555 1_555
C49_5 C93_5 1_555 1_555
C60_5 C71_5 1_555 1_555
C60_5 C104_5 1_555 1_555
C63_5 C74_5 1_555 1_555
C63_5 C107_5 1_555 1_555
C79_5 C123_5 1_555 1_555
C82_5 C126_5 1_555 1_555
C112_5 C123_5 1_555 1_555
C115_5 C126_5 1_555 1_555
O1_3 H97_6 1_555 1_555
O1_4 H98_6 1_555 1_555
O1_2 H98_7 1_555 1_555
Cu7_8 N26_4 1_555 1_555
Cu10_2 N28_4 1_555 1_555
O4_4 C111_4 1_555 1_555
O6_4 C113_4 1_555 1_555
N26_4 C26_4 1_555 1_555
N28_4 C28_4 1_555 1_555
C15_4 H12_4 1_555 1_555
C17_4 H14_4 1_555 1_555
N37_4 H20_4 1_555 1_555
N39_4 H22_4 1_555 1_555
C26_4 C15_4 1_555 1_555
C28_4 C17_4 1_555 1_555
H34_4 C26_4 1_555 1_555
H36_4 C28_4 1_555 1_555
C35_4 H43_4 1_555 1_555
C37_4 H45_4 1_555 1_555
C46_4 N19 1_555 1_555
C48_4 N21 1_555 1_555
C59_4 H56_4 1_555 1_555
C61_4 H58_4 1_555 1_555
C70_4 C15_4 1_555 1_555
C72_4 C17_4 1_555 1_555
C78_4 N19 1_555 1_555
C80_4 N21 1_555 1_555
H64_4 C78_4 1_555 1_555
H66_4 C80_4 1_555 1_555
C90_4 C35_4 1_555 1_555
C92_4 C37_4 1_555 1_555
H76_4 C90_4 1_555 1_555
H78_4 C92_4 1_555 1_555
C103_4 N26_4 1_555 1_555
C105_4 N28_4 1_555 1_555
H89_4 C103_4 1_555 1_555
H91_4 C105_4 1_555 1_555
C111_4 N37_4 1_555 1_555
C113_4 N39_4 1_555 1_555
C122_4 C35_4 1_555 1_555
C124_4 C37_4 1_555 1_555
N37_4 C70_4 1_555 1_555
N39_4 C72_4 1_555 1_555
C46_4 C48_4 1_555 1_555
C46_4 C90_4 1_555 1_555
C48_4 C92_4 1_555 1_555
C59_4 C70_4 1_555 1_555
C59_4 C103_4 1_555 1_555
C61_4 C72_4 1_555 1_555
C61_4 C105_4 1_555 1_555
C78_4 C122_4 1_555 1_555
C80_4 C124_4 1_555 1_555
C111_4 C122_4 1_555 1_555
C113_4 C124_4 1_555 1_555
O1_4 H97_7 1_555 1_555
Cu7_5 O1_17 1_555 1_555
Cu10_2 O3_5 1_555 1_555
N19_3 C51_5 1_555 1_555
O10_5 C117_5 1_555 1_555
O14_5 C121_5 1_555 1_555
N24_5 Cu7_5 1_555 1_555
N33_5 Cu10_2 1_555 1_555
N34_3 Cu10_2 1_555 1_555
C13_5 H10_5 1_555 1_555
C22_5 H19_5 1_555 1_555
N43_5 H26_5 1_555 1_555
N47_5 H30_5 1_555 1_555
C24_5 N24_5 1_555 1_555
C33_5 N33_5 1_555 1_555
H32_5 C24_5 1_555 1_555
H41_5 C33_5 1_555 1_555
C40_5 H48_5 1_555 1_555
C44_5 H52_5 1_555 1_555
C51_5 C55_5 1_555 1_555
C55_5 N21_3 1_555 1_555
C57_5 H54_5 1_555 1_555
C66_5 H63_5 1_555 1_555
C68_5 C13_5 1_555 1_555
C77_5 C22_5 1_555 1_555
C84_5 N19_3 1_555 1_555
C88_5 N21_3 1_555 1_555
H70_5 C84_5 1_555 1_555
H74_5 C88_5 1_555 1_555
C95_5 C40_5 1_555 1_555
C99_5 C44_5 1_555 1_555
H81_5 C95_5 1_555 1_555
H85_5 C99_5 1_555 1_555
C101_5 N24_5 1_555 1_555
C110_5 N33_5 1_555 1_555
H87_5 C101_5 1_555 1_555
H96_5 C110_5 1_555 1_555
C117_5 N43_5 1_555 1_555
C121_5 N47_5 1_555 1_555
C128_5 C40_5 1_555 1_555
C132_5 C44_5 1_555 1_555
C13_5 C24_5 1_555 1_555
C22_5 C33_5 1_555 1_555
N43_5 C68_5 1_555 1_555
N47_5 C77_5 1_555 1_555
C51_5 C95_5 1_555 1_555
C55_5 C99_5 1_555 1_555
C57_5 C68_5 1_555 1_555
C57_5 C101_5 1_555 1_555
C66_5 C77_5 1_555 1_555
C66_5 C110_5 1_555 1_555
C84_5 C128_5 1_555 1_555
C88_5 C132_5 1_555 1_555
C117_5 C128_5 1_555 1_555
C121_5 C132_5 1_555 1_555
O1_17 H98_8 1_555 1_555
Cu7_6 O1_18 1_555 1_555
N19_2 C52_5 1_555 1_555
O11_5 C118_5 1_555 1_555
O12_5 C119_5 1_555 1_555
N25_5 Cu7_6 1_555 1_555
N34_3 C31_5 1_555 1_555
C14_5 H11_5 1_555 1_555
C20_5 H17_5 1_555 1_555
N44_5 H27_5 1_555 1_555
N45_5 H28_5 1_555 1_555
C25_5 N25_5 1_555 1_555
C31_5 C20_5 1_555 1_555
H33_5 C25_5 1_555 1_555
H39_5 C31_5 1_555 1_555
C41_5 H49_5 1_555 1_555
C42_5 H50_5 1_555 1_555
C52_5 C53_5 1_555 1_555
C53_5 N21_2 1_555 1_555
C58_5 H55_5 1_555 1_555
C64_5 H61_5 1_555 1_555
C69_5 C14_5 1_555 1_555
C75_5 C20_5 1_555 1_555
C85_5 N19_2 1_555 1_555
C86_5 N21_2 1_555 1_555
H71_5 C85_5 1_555 1_555
H72_5 C86_5 1_555 1_555
C96_5 C41_5 1_555 1_555
C97_5 C42_5 1_555 1_555
H82_5 C96_5 1_555 1_555
H83_5 C97_5 1_555 1_555
C102_5 N25_5 1_555 1_555
C108_5 N34_3 1_555 1_555
H88_5 C102_5 1_555 1_555
H94_5 C108_5 1_555 1_555
C118_5 N44_5 1_555 1_555
C119_5 N45_5 1_555 1_555
C129_5 C41_5 1_555 1_555
C130_5 C42_5 1_555 1_555
C14_5 C25_5 1_555 1_555
N44_5 C69_5 1_555 1_555
N45_5 C75_5 1_555 1_555
C52_5 C96_5 1_555 1_555
C53_5 C97_5 1_555 1_555
C58_5 C69_5 1_555 1_555
C58_5 C102_5 1_555 1_555
C64_5 C75_5 1_555 1_555
C64_5 C108_5 1_555 1_555
C85_5 C129_5 1_555 1_555
C86_5 C130_5 1_555 1_555
C118_5 C129_5 1_555 1_555
C119_5 C130_5 1_555 1_555
Cu7_7 O1_19 1_555 1_555
O1_19 H97_8 1_555 1_555
Cu7_8 O1_20 1_555 1_555
O1_9 H97_9 1_555 1_555
O1_10 H98_9 1_555 1_555
Cu7 O1_21 1_555 1_555
O1_21 H97_10 1_555 1_555
Cu7_2 O1_22 1_555 1_555
Cu7_3 O1_23 1_555 1_555
Cu10 O3_6 1_555 1_555
O1_23 H98_10 1_555 1_555
Cu7_4 O1_24 1_555 1_555
O1_5 H98_11 1_555 1_555
O1_7 H97_11 1_555 1_555
O1_21 H98_12 1_555 1_555
O1_22 H97_12 1_555 1_555
O1_23 H97_13 1_555 1_555
O1_24 H98_13 1_555 1_555
O1_14 H98_14 1_555 1_555
O1_16 H97_14 1_555 1_555
O1_19 H98_15 1_555 1_555
O1_20 H97_15 1_555 1_555
O1_13 H97_16 1_555 1_555
O1_15 H98_16 1_555 1_555
O1_6 H97_17 1_555 1_555
O1_8 H98_17 1_555 1_555
O1_17 H97_18 1_555 1_555
O1_18 H98_18 1_555 1_555
O1_5 H97_19 1_555 1_555
O1_6 H98_19 1_555 1_555
O1_15 H97_20 1_555 1_555
O1_16 H98_20 1_555 1_555
O1_9 H98_21 1_555 1_555
O1_11 H97_21 1_555 1_555
O1_10 H97_22 1_555 1_555
O1_12 H98_22 1_555 1_555
O1_22 H98_23 1_555 1_555
O1_24 H97_23 1_555 1_555
O1_18 H97_24 1_555 1_555
O1_20 H98_24 1_555 1_555
N48 O15 1_555 1_555
O16 N48 1_555 1_555
O17 N48 1_555 1_555
N48_2 O15_2 1_555 1_555
O16_2 N48_2 1_555 1_555
O17_2 N48_2 1_555 1_555
N48_3 O15_3 1_555 1_555
O16_3 N48_3 1_555 1_555
O17_3 N48_3 1_555 1_555
N48_4 O15_4 1_555 1_555
O16_4 N48_4 1_555 1_555
O17_4 N48_4 1_555 1_555
N48_5 O15_5 1_555 1_555
O16_5 N48_5 1_555 1_555
O17_5 N48_5 1_555 1_555
N48_6 O15_6 1_555 1_555
O16_6 N48_6 1_555 1_555
O17_6 N48_6 1_555 1_555
N48_7 O15_7 1_555 1_555
O16_7 N48_7 1_555 1_555
O17_7 N48_7 1_555 1_555
N48_8 O15_8 1_555 1_555
O16_8 N48_8 1_555 1_555
O17_8 N48_8 1_555 1_555
N48_9 O15_9 1_555 1_555
O16_9 N48_9 1_555 1_555
O17_9 N48_9 1_555 1_555
N48_10 O15_10 1_555 1_555
O16_10 N48_10 1_555 1_555
O17_10 N48_10 1_555 1_555
N48_11 O15_11 1_555 1_555
O16_11 N48_11 1_555 1_555
O17_11 N48_11 1_555 1_555
N48_12 O15_12 1_555 1_555
O16_12 N48_12 1_555 1_555
O17_12 N48_12 1_555 1_555
N48_13 O15_13 1_555 1_555
O16_13 N48_13 1_555 1_555
O17_13 N48_13 1_555 1_555
N48_14 O15_14 1_555 1_555
O16_14 N48_14 1_555 1_555
O17_14 N48_14 1_555 1_555
N48_15 O15_15 1_555 1_555
O16_15 N48_15 1_555 1_555
O17_15 N48_15 1_555 1_555
N48_16 O15_16 1_555 1_555
O16_16 N48_16 1_555 1_555
O17_16 N48_16 1_555 1_555
N49 O18 1_555 1_555
O19 N49 1_555 1_555
O20 N49 1_555 1_555
N49_2 O18_2 1_555 1_555
O19_2 N49_2 1_555 1_555
O20_2 N49_2 1_555 1_555
N49_3 O18_3 1_555 1_555
O19_3 N49_3 1_555 1_555
O20_3 N49_3 1_555 1_555
N49_4 O18_4 1_555 1_555
O19_4 N49_4 1_555 1_555
O20_4 N49_4 1_555 1_555
N49_5 O18_5 1_555 1_555
O19_5 N49_5 1_555 1_555
O20_5 N49_5 1_555 1_555
N49_6 O18_6 1_555 1_555
O19_6 N49_6 1_555 1_555
O20_6 N49_6 1_555 1_555
N49_7 O18_7 1_555 1_555
O19_7 N49_7 1_555 1_555
O20_7 N49_7 1_555 1_555
N49_8 O18_8 1_555 1_555
O19_8 N49_8 1_555 1_555
O20_8 N49_8 1_555 1_555
N49_9 O18_9 1_555 1_555
O19_9 N49_9 1_555 1_555
O20_9 N49_9 1_555 1_555
N49_10 O18_10 1_555 1_555
O19_10 N49_10 1_555 1_555
O20_10 N49_10 1_555 1_555
N49_11 O18_11 1_555 1_555
O19_11 N49_11 1_555 1_555
O20_11 N49_11 1_555 1_555
N49_12 O18_12 1_555 1_555
O19_12 N49_12 1_555 1_555
O20_12 N49_12 1_555 1_555
N49_13 O18_13 1_555 1_555
O19_13 N49_13 1_555 1_555
O20_13 N49_13 1_555 1_555
N49_14 O18_14 1_555 1_555
O19_14 N49_14 1_555 1_555
O20_14 N49_14 1_555 1_555
N49_15 O18_15 1_555 1_555
O19_15 N49_15 1_555 1_555
O20_15 N49_15 1_555 1_555
N49_16 O18_16 1_555 1_555
O19_16 N49_16 1_555 1_555
O20_16 N49_16 1_555 1_555

#END
