
###############################################################################
#
# This file contains modified crystal structure data generated from the
# MOF subset of the Cambridge Structural Database (CSD) v543 
# hosted by the Cambridge Crystallographic Data Centre (CCDC).
#
# This work is licensed under the Creative Commons
# Attribution-NonCommercial-ShareAlike 4.0 International License.
# To view a copy of this license, visit
# http://creativecommons.org/licenses/by-nc-sa/4.0/
# or send a letter to
# Creative Commons, PO Box 1866, Mountain View, CA 94042, USA.
#
# CIF created using the CSD Python API on 29 September 2022
# The structure has been converted into the P1 space group
# The structure has a 3D framework
# The original CSD entry TASZEU is in the cubic crystal system
# The original CSD entry TASZEU is in a Sohncke space group
# The framework has been calculated to contain at least 10.0% void space
# The void calculation uses a probe of radius 1.32A, grid spacing 0.4
# The framework is charged, counterions have been retained in the structure
# H atom positions have been added when not included in the experimental data
# Generated hydrogen atom positions removed from atoms on special positions
#
###############################################################################

data_TASZEU
_chemical_formula_moiety         '(C528 H576 Cu30 Fe8 N160 O156 60+)n'
_symmetry_cell_setting           triclinic
_symmetry_space_group_name_H-M   'P 1'
_symmetry_Int_Tables_number      1
_space_group_name_Hall           'P 1'
loop_
_symmetry_equiv_pos_site_id
_symmetry_equiv_pos_as_xyz
1 x,y,z
_cell_length_a                   32.637(4)
_cell_length_b                   32.637(4)
_cell_length_c                   32.637(4)
_cell_angle_alpha                90
_cell_angle_beta                 90
_cell_angle_gamma                90
_cell_volume                     34764.1
loop_
_atom_site_label
_atom_site_type_symbol
_atom_site_fract_x
_atom_site_fract_y
_atom_site_fract_z
Fe1 Fe 0.2500 0.2500 0.2500
Cu1 Cu 0.24272(3) 0.0000 0.0000
N1 N 0.25145(5) 0.18558(5) 0.25671(5)
O1 O 0.16721(12) 0.0000 0.0000
C1 C 0.21590(9) 0.07674(8) 0.10156(8)
H1 H 0.1946 0.0948 0.1074
O2 O 0.29552(9) 0.06090(8) 0.20177(7)
C2 C 0.27784(10) 0.04369(8) 0.11819(8)
H2 H 0.3004 0.0395 0.1351
C3 C 0.25235(8) 0.17209(6) 0.29572(7)
N2 N 0.24638(7) 0.09272(6) 0.16578(5)
H3 H 0.2279 0.1114 0.1676
C4 C 0.24719(9) 0.07113(6) 0.12961(7)
C5 C 0.21616(10) 0.05606(7) 0.06581(8)
H4 H 0.1946 0.0606 0.0477
C6 C 0.26781(12) 0.10301(8) 0.27298(9)
H5 H 0.2748 0.0759 0.2783
C7 C 0.26413(8) 0.11748(7) 0.23294(7)
C8 C 0.25607(7) 0.15902(7) 0.22701(6)
H6 H 0.2538 0.1685 0.2002
C9 C 0.27044(9) 0.08840(9) 0.19831(8)
C10 C 0.26028(9) 0.13167(7) 0.30596(7)
H7 H 0.2608 0.1232 0.3332
C11 C 0.27460(10) 0.02331(8) 0.08240(8)
H8 H 0.2942 0.0035 0.0764
N3 N 0.24449(8) 0.03006(6) 0.05476(6)
O3 O 0.32620(16) 0.0000 0.0000
Cu5 Cu 0.25728(3) 0.5000 0.5000
Cu6 Cu 0.5000 0.5000 0.25728(3)
Cu7 Cu 0.5000 0.25728(3) 0.5000
Cu8 Cu 0.0000 0.24272(3) 0.0000
Cu9 Cu 0.0000 0.0000 0.24272(3)
N4 N 0.25671(5) 0.25145(5) 0.18558(5)
N5 N 0.18558(5) 0.25671(5) 0.25145(5)
N6 N 0.31442(5) 0.24855(5) 0.24329(5)
N7 N 0.24855(5) 0.24329(5) 0.31442(5)
N8 N 0.24329(5) 0.31442(5) 0.24855(5)
C18 C 0.28410(9) 0.39844(8) 0.42326(8)
C19 C 0.39844(8) 0.42326(8) 0.28410(9)
C20 C 0.42326(8) 0.28410(9) 0.39844(8)
C21 C 0.10156(8) 0.21590(9) 0.07674(8)
C22 C 0.07674(8) 0.10156(8) 0.21590(9)
H15 H 0.3054 0.3926 0.4052
H16 H 0.3926 0.4052 0.3054
H17 H 0.4052 0.3054 0.3926
H18 H 0.1074 0.1946 0.0948
H19 H 0.0948 0.1074 0.1946
O11 O 0.20448(9) 0.29823(7) 0.43910(8)
O12 O 0.43910(8) 0.20448(9) 0.29823(7)
O13 O 0.20177(7) 0.29552(9) 0.06090(8)
O14 O 0.29823(7) 0.43910(8) 0.20448(9)
O15 O 0.06090(8) 0.20177(7) 0.29552(9)
C29 C 0.22216(10) 0.38181(8) 0.45631(8)
C30 C 0.38181(8) 0.45631(8) 0.22216(10)
C31 C 0.45631(8) 0.22216(10) 0.38181(8)
C32 C 0.11819(8) 0.27784(10) 0.04369(8)
C33 C 0.04369(8) 0.11819(8) 0.27784(10)
H26 H 0.1996 0.3649 0.4605
H27 H 0.3649 0.4605 0.1996
H28 H 0.4605 0.1996 0.3649
H29 H 0.1351 0.3004 0.0395
H30 H 0.0395 0.1351 0.3004
C34 C 0.24765(8) 0.20428(7) 0.32791(6)
C41 C 0.20428(7) 0.32791(6) 0.24765(8)
C42 C 0.32791(6) 0.24765(8) 0.20428(7)
C43 C 0.29572(7) 0.25235(8) 0.17209(6)
C44 C 0.17209(6) 0.29572(7) 0.25235(8)
N29 N 0.25362(7) 0.33422(5) 0.40728(6)
N30 N 0.40728(6) 0.25362(7) 0.33422(5)
N31 N 0.16578(5) 0.24638(7) 0.09272(6)
N32 N 0.33422(5) 0.40728(6) 0.25362(7)
N33 N 0.09272(6) 0.16578(5) 0.24638(7)
H37 H 0.2721 0.3324 0.3886
H38 H 0.3324 0.3886 0.2721
H39 H 0.3886 0.2721 0.3324
H40 H 0.1676 0.2279 0.1114
H41 H 0.1114 0.1676 0.2279
C51 C 0.25281(9) 0.37039(7) 0.42887(6)
C52 C 0.37039(7) 0.42887(6) 0.25281(9)
C53 C 0.42887(6) 0.25281(9) 0.37039(7)
C54 C 0.12961(7) 0.24719(9) 0.07113(6)
C55 C 0.07113(6) 0.12961(7) 0.24719(9)
C62 C 0.28384(10) 0.43419(8) 0.44394(7)
C63 C 0.43419(8) 0.44394(7) 0.28384(10)
C64 C 0.44394(7) 0.28384(10) 0.43419(8)
C65 C 0.06581(8) 0.21616(10) 0.05606(7)
C66 C 0.05606(7) 0.06581(8) 0.21616(10)
H48 H 0.3054 0.4523 0.4394
H49 H 0.4523 0.4394 0.3054
H50 H 0.4394 0.3054 0.4523
H51 H 0.0477 0.1946 0.0606
H52 H 0.0606 0.0477 0.1946
C73 C 0.23219(12) 0.22702(9) 0.39699(8)
C74 C 0.22702(9) 0.39699(8) 0.23219(12)
C75 C 0.39699(8) 0.23219(12) 0.22702(9)
C76 C 0.27298(9) 0.26781(12) 0.10301(8)
C77 C 0.10301(8) 0.27298(9) 0.26781(12)
H59 H 0.2252 0.2217 0.4241
H60 H 0.2783 0.2748 0.0759
H61 H 0.4241 0.2252 0.2217
H62 H 0.2217 0.4241 0.2252
H63 H 0.0759 0.2783 0.2748
C84 C 0.23587(8) 0.26706(7) 0.38252(7)
C85 C 0.26706(7) 0.38252(7) 0.23587(8)
C86 C 0.38252(7) 0.23587(8) 0.26706(7)
C87 C 0.23294(7) 0.26413(8) 0.11748(7)
C88 C 0.11748(7) 0.23294(7) 0.26413(8)
C95 C 0.24393(7) 0.27299(6) 0.34098(7)
C96 C 0.27299(6) 0.34098(7) 0.24393(7)
C97 C 0.34098(7) 0.24393(7) 0.27299(6)
C98 C 0.22701(6) 0.25607(7) 0.15902(7)
C99 C 0.15902(7) 0.22701(6) 0.25607(7)
H70 H 0.2462 0.2998 0.3315
H71 H 0.2998 0.3315 0.2462
H72 H 0.3315 0.2462 0.2998
H73 H 0.2002 0.2538 0.1685
H74 H 0.1685 0.2002 0.2538
C106 C 0.22956(9) 0.30169(8) 0.41160(9)
C107 C 0.30169(8) 0.41160(9) 0.22956(9)
C108 C 0.19831(8) 0.27044(9) 0.08840(9)
C109 C 0.41160(9) 0.22956(9) 0.30169(8)
C110 C 0.08840(9) 0.19831(8) 0.27044(9)
C117 C 0.23972(9) 0.19404(7) 0.36833(7)
C118 C 0.19404(7) 0.36833(7) 0.23972(9)
C119 C 0.36833(7) 0.23972(9) 0.19404(7)
C120 C 0.30596(7) 0.26028(9) 0.13167(7)
C121 C 0.13167(7) 0.30596(7) 0.26028(9)
H81 H 0.2392 0.1668 0.3768
H82 H 0.1668 0.3768 0.2392
H83 H 0.3768 0.2392 0.1668
H84 H 0.3332 0.2608 0.1232
H85 H 0.1232 0.3332 0.2608
C128 C 0.22540(10) 0.41760(8) 0.47669(8)
C129 C 0.41760(8) 0.47669(8) 0.22540(10)
C130 C 0.47669(8) 0.22540(10) 0.41760(8)
C131 C 0.08240(8) 0.27460(10) 0.02331(8)
C132 C 0.02331(8) 0.08240(8) 0.27460(10)
H92 H 0.2058 0.4236 0.4965
H93 H 0.4236 0.4965 0.2058
H94 H 0.4965 0.2058 0.4236
H95 H 0.0764 0.2942 0.0035
H96 H 0.0035 0.0764 0.2942
N40 N 0.25551(8) 0.44524(6) 0.46994(6)
N41 N 0.44524(6) 0.46994(6) 0.25551(8)
N42 N 0.46994(6) 0.25551(8) 0.44524(6)
N43 N 0.05476(6) 0.24449(8) 0.03006(6)
N44 N 0.03006(6) 0.05476(6) 0.24449(8)
H101 H 0.157068 0.0286788 0.000618673
Cu1_2 Cu 0.24272(3) 0.0000 1.0000
O1_2 O 0.16721(12) 0.0000 1.0000
O3_2 O 0.32620(16) 0.0000 1.0000
Fe4 Fe 0.2500 0.2500 0.7500
Cu8_2 Cu -0.0000 0.24272(3) 1.0000
N11 N 0.25145(5) 0.25671(5) 0.81442(5)
N17 N 0.25671(5) 0.18558(5) 0.74855(5)
N18 N 0.18558(5) 0.25145(5) 0.74329(5)
N19 N 0.24855(5) 0.31442(5) 0.75671(5)
N20 N 0.31442(5) 0.24329(5) 0.75145(5)
N21 N 0.24329(5) 0.24855(5) 0.68558(5)
C12 C 0.21590(9) 0.10156(8) 0.92326(8)
C16 C 0.28410(9) 0.42326(8) 0.60156(8)
H10 H 0.1946 0.1074 0.9052
H13 H 0.3054 0.4052 0.6074
O7 O 0.29552(9) 0.20177(7) 0.93910(8)
O9 O 0.20448(9) 0.43910(8) 0.70177(7)
C23 C 0.27784(10) 0.11819(8) 0.95631(8)
C27 C 0.22216(10) 0.45631(8) 0.61819(8)
H22 H 0.3004 0.1351 0.9605
H24 H 0.1996 0.4605 0.6351
C37 C 0.25235(8) 0.29572(7) 0.82791(6)
C38 C 0.24765(8) 0.32791(6) 0.79572(7)
N25 N 0.24638(7) 0.16578(5) 0.90728(6)
N27 N 0.25362(7) 0.40728(6) 0.66578(5)
H33 H 0.2279 0.1676 0.8886
H34 H 0.2721 0.3886 0.6676
C47 C 0.24719(9) 0.12961(7) 0.92887(6)
C48 C 0.25281(9) 0.42887(6) 0.62961(7)
C56 C 0.21616(10) 0.06581(8) 0.94394(7)
C60 C 0.28384(10) 0.44394(7) 0.56581(8)
H42 H 0.1946 0.0477 0.9394
H46 H 0.3054 0.4394 0.5477
C69 C 0.26781(12) 0.27298(9) 0.89699(8)
C70 C 0.23219(12) 0.39699(8) 0.77298(9)
H55 H 0.2748 0.2783 0.9241
H57 H 0.2252 0.4241 0.7783
C80 C 0.26413(8) 0.23294(7) 0.88252(7)
C82 C 0.23587(8) 0.38252(7) 0.73294(7)
C91 C 0.25607(7) 0.22701(6) 0.84098(7)
C92 C 0.24393(7) 0.34098(7) 0.72701(6)
H66 H 0.2538 0.2002 0.8315
H68 H 0.2462 0.3315 0.7002
C102 C 0.27044(9) 0.19831(8) 0.91160(9)
C104 C 0.22956(9) 0.41160(9) 0.69831(8)
C113 C 0.26028(9) 0.30596(7) 0.86833(7)
C115 C 0.23972(9) 0.36833(7) 0.80596(7)
H77 H 0.2608 0.3332 0.8768
H78 H 0.2392 0.3768 0.8332
C122 C 0.27460(10) 0.08240(8) 0.97669(8)
C126 C 0.22540(10) 0.47669(8) 0.58240(8)
H86 H 0.2942 0.0764 0.9965
H90 H 0.2058 0.4965 0.5764
N36 N 0.24449(8) 0.05476(6) 0.96994(6)
N38 N 0.25551(8) 0.46994(6) 0.55476(6)
Cu1_3 Cu 0.24272(3) 1.0000 0.0000
O1_3 O 0.16721(12) 1.0000 0.0000
O3_3 O 0.32620(16) 1.0000 0.0000
Fe2 Fe 0.2500 0.7500 0.2500
Cu9_2 Cu -0.0000 1.0000 0.24272(3)
N9 N 0.25145(5) 0.74329(5) 0.18558(5)
N22 N 0.24855(5) 0.68558(5) 0.24329(5)
O4 O 0.33279(12) 0.5000 0.5000
C13 C 0.21590(9) 0.89844(8) 0.07674(8)
C17 C 0.28410(9) 0.57674(8) 0.39844(8)
H9 H 0.1946 0.8926 0.0948
H14 H 0.3054 0.5948 0.3926
O5 O 0.29552(9) 0.79823(7) 0.06090(8)
O10 O 0.20448(9) 0.56090(8) 0.29823(7)
C25 C 0.27784(10) 0.88181(8) 0.04369(8)
C28 C 0.22216(10) 0.54369(8) 0.38181(8)
H20 H 0.3004 0.8649 0.0395
H25 H 0.1996 0.5395 0.3649
C35 C 0.25235(8) 0.70428(7) 0.17209(6)
C39 C 0.24765(8) 0.67209(6) 0.20428(7)
N23 N 0.24638(7) 0.83422(5) 0.09272(6)
N28 N 0.25362(7) 0.59272(6) 0.33422(5)
H31 H 0.2279 0.8324 0.1114
H36 H 0.2721 0.6114 0.3324
C45 C 0.24719(9) 0.87039(7) 0.07113(6)
C50 C 0.25281(9) 0.57113(6) 0.37039(7)
C58 C 0.21616(10) 0.93419(8) 0.05606(7)
C61 C 0.28384(10) 0.55606(7) 0.43419(8)
H43 H 0.1946 0.9523 0.0606
H47 H 0.3054 0.5606 0.4523
C67 C 0.26781(12) 0.72702(9) 0.10301(8)
C72 C 0.23219(12) 0.60301(8) 0.22702(9)
H53 H 0.2748 0.7217 0.0759
H58 H 0.2252 0.5759 0.2217
C78 C 0.26413(8) 0.76706(7) 0.11748(7)
C83 C 0.23587(8) 0.61748(7) 0.26706(7)
C89 C 0.25607(7) 0.77299(6) 0.15902(7)
C94 C 0.24393(7) 0.65902(7) 0.27299(6)
H64 H 0.2538 0.7998 0.1685
H69 H 0.2462 0.6685 0.2998
C100 C 0.27044(9) 0.80169(8) 0.08840(9)
C105 C 0.22956(9) 0.58840(9) 0.30169(8)
C111 C 0.26028(9) 0.69404(7) 0.13167(7)
C116 C 0.23972(9) 0.63167(7) 0.19404(7)
H75 H 0.2608 0.6668 0.1232
H80 H 0.2392 0.6232 0.1668
C124 C 0.27460(10) 0.91760(8) 0.02331(8)
C127 C 0.22540(10) 0.52331(8) 0.41760(8)
H88 H 0.2942 0.9236 0.0035
H91 H 0.2058 0.5035 0.4236
N34 N 0.24449(8) 0.94524(6) 0.03006(6)
N39 N 0.25551(8) 0.53006(6) 0.44524(6)
N46 N 0.25551(8) 0.55476(6) 0.53006(6)
O16 O 0.17380(16) 0.5000 0.5000
H99 H 0.336342 0.985125 0.0245273
Cu1_4 Cu 0.24272(3) 1.0000 1.0000
O1_4 O 0.16721(12) 1.0000 1.0000
O3_4 O 0.32620(16) 1.0000 1.0000
Fe3 Fe 0.2500 0.7500 0.7500
N10 N 0.25145(5) 0.81442(5) 0.74329(5)
N12 N 0.25671(5) 0.74855(5) 0.81442(5)
N13 N 0.18558(5) 0.74329(5) 0.74855(5)
N14 N 0.31442(5) 0.75145(5) 0.75671(5)
N15 N 0.24329(5) 0.68558(5) 0.75145(5)
N16 N 0.24855(5) 0.75671(5) 0.68558(5)
C14 C 0.21590(9) 0.92326(8) 0.89844(8)
C15 C 0.28410(9) 0.60156(8) 0.57674(8)
H11 H 0.1946 0.9052 0.8926
H12 H 0.3054 0.6074 0.5948
O6 O 0.29552(9) 0.93910(8) 0.79823(7)
O8 O 0.20448(9) 0.70177(7) 0.56090(8)
C24 C 0.27784(10) 0.95631(8) 0.88181(8)
C26 C 0.22216(10) 0.61819(8) 0.54369(8)
H21 H 0.3004 0.9605 0.8649
H23 H 0.1996 0.6351 0.5395
C36 C 0.25235(8) 0.82791(6) 0.70428(7)
C40 C 0.24765(8) 0.79572(7) 0.67209(6)
N24 N 0.24638(7) 0.90728(6) 0.83422(5)
N26 N 0.25362(7) 0.66578(5) 0.59272(6)
H32 H 0.2279 0.8886 0.8324
H35 H 0.2721 0.6676 0.6114
C46 C 0.24719(9) 0.92887(6) 0.87039(7)
C49 C 0.25281(9) 0.62961(7) 0.57113(6)
C57 C 0.21616(10) 0.94394(7) 0.93419(8)
C59 C 0.28384(10) 0.56581(8) 0.55606(7)
H44 H 0.1946 0.9394 0.9523
H45 H 0.3054 0.5477 0.5606
C68 C 0.26781(12) 0.89699(8) 0.72702(9)
C71 C 0.23219(12) 0.77298(9) 0.60301(8)
H54 H 0.2748 0.9241 0.7217
H56 H 0.2252 0.7783 0.5759
C79 C 0.26413(8) 0.88252(7) 0.76706(7)
C81 C 0.23587(8) 0.73294(7) 0.61748(7)
C90 C 0.25607(7) 0.84098(7) 0.77299(6)
C93 C 0.24393(7) 0.72701(6) 0.65902(7)
H65 H 0.2538 0.8315 0.7998
H67 H 0.2462 0.7002 0.6685
C101 C 0.27044(9) 0.91160(9) 0.80169(8)
C103 C 0.22956(9) 0.69831(8) 0.58840(9)
C112 C 0.26028(9) 0.86833(7) 0.69404(7)
C114 C 0.23972(9) 0.80596(7) 0.63167(7)
H76 H 0.2608 0.8768 0.6668
H79 H 0.2392 0.8332 0.6232
C123 C 0.27460(10) 0.97669(8) 0.91760(8)
C125 C 0.22540(10) 0.58240(8) 0.52331(8)
H87 H 0.2942 0.9965 0.9236
H89 H 0.2058 0.5764 0.5035
N35 N 0.24449(8) 0.96994(6) 0.94524(6)
H100 H 0.336342 0.986196 0.974854
H102 H 0.157068 0.986196 0.974854
Cu8_3 Cu 1.0000 0.24272(3) 0.0000
Cu9_3 Cu 1.0000 0.0000 0.24272(3)
Cu8_4 Cu 1.0000 0.24272(3) 1.0000
Cu9_4 Cu 1.0000 1.0000 0.24272(3)
O1_5 O -0.0000 0.16721(12) 0.0000
O3_5 O 0.0000 0.32620(16) 0.0000
O4_2 O 0.5000 0.33279(12) 0.5000
N45 N 0.53006(6) 0.25551(8) 0.55476(6)
N46_2 N 0.44524(6) 0.25551(8) 0.53006(6)
N47 N 0.55476(6) 0.25551(8) 0.46994(6)
O16_2 O 0.5000 0.17380(16) 0.5000
H99_2 H 0.0148752 0.336342 0.0245273
O1_6 O 0.0000 0.16721(12) 1.0000
O3_6 O 0.0000 0.32620(16) 1.0000
C14_2 C 0.07674(8) 0.21590(9) 0.89844(8)
C15_2 C 0.39844(8) 0.28410(9) 0.57674(8)
H11_2 H 0.0948 0.1946 0.8926
H12_2 H 0.3926 0.3054 0.5948
O6_2 O 0.06090(8) 0.29552(9) 0.79823(7)
O8_2 O 0.29823(7) 0.20448(9) 0.56090(8)
C24_2 C 0.04369(8) 0.27784(10) 0.88181(8)
C26_2 C 0.38181(8) 0.22216(10) 0.54369(8)
H21_2 H 0.0395 0.3004 0.8649
H23_2 H 0.3649 0.1996 0.5395
C36_2 C 0.17209(6) 0.25235(8) 0.70428(7)
C40_2 C 0.20428(7) 0.24765(8) 0.67209(6)
N24_2 N 0.09272(6) 0.24638(7) 0.83422(5)
N26_2 N 0.33422(5) 0.25362(7) 0.59272(6)
H32_2 H 0.1114 0.2279 0.8324
H35_2 H 0.3324 0.2721 0.6114
C46_2 C 0.07113(6) 0.24719(9) 0.87039(7)
C49_2 C 0.37039(7) 0.25281(9) 0.57113(6)
C57_2 C 0.05606(7) 0.21616(10) 0.93419(8)
C59_2 C 0.43419(8) 0.28384(10) 0.55606(7)
H44_2 H 0.0606 0.1946 0.9523
H45_2 H 0.4523 0.3054 0.5606
C68_2 C 0.10301(8) 0.26781(12) 0.72702(9)
C71_2 C 0.22702(9) 0.23219(12) 0.60301(8)
H54_2 H 0.0759 0.2748 0.7217
H56_2 H 0.2217 0.2252 0.5759
C79_2 C 0.11748(7) 0.26413(8) 0.76706(7)
C81_2 C 0.26706(7) 0.23587(8) 0.61748(7)
C90_2 C 0.15902(7) 0.25607(7) 0.77299(6)
C93_2 C 0.27299(6) 0.24393(7) 0.65902(7)
H65_2 H 0.1685 0.2538 0.7998
H67_2 H 0.2998 0.2462 0.6685
C101_2 C 0.08840(9) 0.27044(9) 0.80169(8)
C103_2 C 0.30169(8) 0.22956(9) 0.58840(9)
C112_2 C 0.13167(7) 0.26028(9) 0.69404(7)
C114_2 C 0.19404(7) 0.23972(9) 0.63167(7)
H76_2 H 0.1232 0.2608 0.6668
H79_2 H 0.1668 0.2392 0.6232
C123_2 C 0.02331(8) 0.27460(10) 0.91760(8)
C125_2 C 0.41760(8) 0.22540(10) 0.52331(8)
H87_2 H 0.0035 0.2942 0.9236
H89_2 H 0.4236 0.2058 0.5035
N35_2 N 0.03006(6) 0.24449(8) 0.94524(6)
H100_2 H 0.0138036 0.336342 0.974854
H102_2 H 0.0138036 0.157068 0.974854
Fe1_2 Fe 0.7500 0.2500 0.2500
N1_2 N 0.81442(5) 0.25145(5) 0.25671(5)
O1_7 O 1.0000 0.16721(12) 0.0000
C1_2 C 0.92326(8) 0.21590(9) 0.10156(8)
H1_2 H 0.9052 0.1946 0.1074
O2_2 O 0.93910(8) 0.29552(9) 0.20177(7)
C2_2 C 0.95631(8) 0.27784(10) 0.11819(8)
H2_2 H 0.9605 0.3004 0.1351
C3_2 C 0.82791(6) 0.25235(8) 0.29572(7)
N2_2 N 0.90728(6) 0.24638(7) 0.16578(5)
H3_2 H 0.8886 0.2279 0.1676
C4_2 C 0.92887(6) 0.24719(9) 0.12961(7)
C5_2 C 0.94394(7) 0.21616(10) 0.06581(8)
H4_2 H 0.9394 0.1946 0.0477
C6_2 C 0.89699(8) 0.26781(12) 0.27298(9)
H5_2 H 0.9241 0.2748 0.2783
C7_2 C 0.88252(7) 0.26413(8) 0.23294(7)
C8_2 C 0.84098(7) 0.25607(7) 0.22701(6)
H6_2 H 0.8315 0.2538 0.2002
C9_2 C 0.91160(9) 0.27044(9) 0.19831(8)
C10_2 C 0.86833(7) 0.26028(9) 0.30596(7)
H7_2 H 0.8768 0.2608 0.3332
C11_2 C 0.97669(8) 0.27460(10) 0.08240(8)
H8_2 H 0.9965 0.2942 0.0764
N3_2 N 0.96994(6) 0.24449(8) 0.05476(6)
O3_7 O 1.0000 0.32620(16) 0.0000
Cu7_2 Cu 0.74272(3) 0.5000 0.5000
Cu8_5 Cu 0.75728(3) 0.0000 0.0000
N4_2 N 0.74855(5) 0.25671(5) 0.18558(5)
N5_2 N 0.74329(5) 0.18558(5) 0.25145(5)
N6_2 N 0.75145(5) 0.31442(5) 0.24329(5)
N7_2 N 0.75671(5) 0.24855(5) 0.31442(5)
N8_2 N 0.68558(5) 0.24329(5) 0.24855(5)
C18_2 C 0.60156(8) 0.28410(9) 0.42326(8)
C19_2 C 0.57674(8) 0.39844(8) 0.28410(9)
C20_2 C 0.71590(9) 0.42326(8) 0.39844(8)
C21_2 C 0.78410(9) 0.10156(8) 0.07674(8)
C22_2 C 0.89844(8) 0.07674(8) 0.21590(9)
H15_2 H 0.6074 0.3054 0.4052
H16_2 H 0.5948 0.3926 0.3054
H17_2 H 0.6946 0.4052 0.3926
H18_2 H 0.8054 0.1074 0.0948
H19_2 H 0.8926 0.0948 0.1946
O11_2 O 0.70177(7) 0.20448(9) 0.43910(8)
O12_2 O 0.79552(9) 0.43910(8) 0.29823(7)
O13_2 O 0.70448(9) 0.20177(7) 0.06090(8)
O14_2 O 0.56090(8) 0.29823(7) 0.20448(9)
O15_2 O 0.79823(7) 0.06090(8) 0.29552(9)
C29_2 C 0.61819(8) 0.22216(10) 0.45631(8)
C30_2 C 0.54369(8) 0.38181(8) 0.22216(10)
C31_2 C 0.77784(10) 0.45631(8) 0.38181(8)
C32_2 C 0.72216(10) 0.11819(8) 0.04369(8)
C33_2 C 0.88181(8) 0.04369(8) 0.27784(10)
H26_2 H 0.6351 0.1996 0.4605
H27_2 H 0.5395 0.3649 0.1996
H28_2 H 0.8004 0.4605 0.3649
H29_2 H 0.6996 0.1351 0.0395
H30_2 H 0.8649 0.0395 0.3004
C34_2 C 0.79572(7) 0.24765(8) 0.32791(6)
C41_2 C 0.67209(6) 0.20428(7) 0.24765(8)
C42_2 C 0.75235(8) 0.32791(6) 0.20428(7)
C43_2 C 0.74765(8) 0.29572(7) 0.17209(6)
C44_2 C 0.70428(7) 0.17209(6) 0.25235(8)
N29_2 N 0.66578(5) 0.25362(7) 0.40728(6)
N30_2 N 0.74638(7) 0.40728(6) 0.33422(5)
N31_2 N 0.75362(7) 0.16578(5) 0.09272(6)
N32_2 N 0.59272(6) 0.33422(5) 0.25362(7)
N33_2 N 0.83422(5) 0.09272(6) 0.24638(7)
H37_2 H 0.6676 0.2721 0.3886
H38_2 H 0.6114 0.3324 0.2721
H39_2 H 0.7279 0.3886 0.3324
H40_2 H 0.7721 0.1676 0.1114
H41_2 H 0.8324 0.1114 0.2279
C51_2 C 0.62961(7) 0.25281(9) 0.42887(6)
C52_2 C 0.57113(6) 0.37039(7) 0.25281(9)
C53_2 C 0.74719(9) 0.42887(6) 0.37039(7)
C54_2 C 0.75281(9) 0.12961(7) 0.07113(6)
C55_2 C 0.87039(7) 0.07113(6) 0.24719(9)
C62_2 C 0.56581(8) 0.28384(10) 0.44394(7)
C63_2 C 0.55606(7) 0.43419(8) 0.28384(10)
C64_2 C 0.71616(10) 0.44394(7) 0.43419(8)
C65_2 C 0.78384(10) 0.06581(8) 0.05606(7)
C66_2 C 0.93419(8) 0.05606(7) 0.21616(10)
H48_2 H 0.5477 0.3054 0.4394
H49_2 H 0.5606 0.4523 0.3054
H50_2 H 0.6946 0.4394 0.4523
H51_2 H 0.8054 0.0477 0.0606
H52_2 H 0.9523 0.0606 0.1946
C73_2 C 0.77298(9) 0.23219(12) 0.39699(8)
C74_2 C 0.60301(8) 0.22702(9) 0.23219(12)
C75_2 C 0.76781(12) 0.39699(8) 0.22702(9)
C76_2 C 0.73219(12) 0.27298(9) 0.10301(8)
C77_2 C 0.72702(9) 0.10301(8) 0.26781(12)
H59_2 H 0.7783 0.2252 0.4241
H60_2 H 0.7252 0.2783 0.0759
H61_2 H 0.7748 0.4241 0.2217
H62_2 H 0.5759 0.2217 0.2252
H63_2 H 0.7217 0.0759 0.2748
C84_2 C 0.73294(7) 0.23587(8) 0.38252(7)
C85_2 C 0.61748(7) 0.26706(7) 0.23587(8)
C86_2 C 0.76413(8) 0.38252(7) 0.26706(7)
C87_2 C 0.73587(8) 0.23294(7) 0.11748(7)
C88_2 C 0.76706(7) 0.11748(7) 0.26413(8)
C95_2 C 0.72701(6) 0.24393(7) 0.34098(7)
C96_2 C 0.65902(7) 0.27299(6) 0.24393(7)
C97_2 C 0.75607(7) 0.34098(7) 0.27299(6)
C98_2 C 0.74393(7) 0.22701(6) 0.15902(7)
C99_2 C 0.77299(6) 0.15902(7) 0.25607(7)
H70_2 H 0.7002 0.2462 0.3315
H71_2 H 0.6685 0.2998 0.2462
H72_2 H 0.7538 0.3315 0.2998
H73_2 H 0.7462 0.2002 0.1685
H74_2 H 0.7998 0.1685 0.2538
C106_2 C 0.69831(8) 0.22956(9) 0.41160(9)
C107_2 C 0.58840(9) 0.30169(8) 0.22956(9)
C108_2 C 0.72956(9) 0.19831(8) 0.08840(9)
C109_2 C 0.77044(9) 0.41160(9) 0.30169(8)
C110_2 C 0.80169(8) 0.08840(9) 0.27044(9)
C117_2 C 0.80596(7) 0.23972(9) 0.36833(7)
C118_2 C 0.63167(7) 0.19404(7) 0.23972(9)
C119_2 C 0.76028(9) 0.36833(7) 0.19404(7)
C120_2 C 0.73972(9) 0.30596(7) 0.13167(7)
C121_2 C 0.69404(7) 0.13167(7) 0.26028(9)
H81_2 H 0.8332 0.2392 0.3768
H82_2 H 0.6232 0.1668 0.2392
H83_2 H 0.7608 0.3768 0.1668
H84_2 H 0.7392 0.3332 0.1232
H85_2 H 0.6668 0.1232 0.2608
C128_2 C 0.58240(8) 0.22540(10) 0.47669(8)
C129_2 C 0.52331(8) 0.41760(8) 0.22540(10)
C130_2 C 0.77460(10) 0.47669(8) 0.41760(8)
C131_2 C 0.72540(10) 0.08240(8) 0.02331(8)
C132_2 C 0.91760(8) 0.02331(8) 0.27460(10)
H92_2 H 0.5764 0.2058 0.4965
H93_2 H 0.5035 0.4236 0.2058
H94_2 H 0.7942 0.4965 0.4236
H95_2 H 0.7058 0.0764 0.0035
H96_2 H 0.9236 0.0035 0.2942
N41_2 N 0.53006(6) 0.44524(6) 0.25551(8)
N42_2 N 0.74449(8) 0.46994(6) 0.44524(6)
N43_2 N 0.75551(8) 0.05476(6) 0.03006(6)
N44_2 N 0.94524(6) 0.03006(6) 0.24449(8)
H101_2 H 0.971321 0.157068 0.000618673
O1_8 O 1.0000 0.16721(12) 1.0000
O3_8 O 1.0000 0.32620(16) 1.0000
Fe4_2 Fe 0.7500 0.2500 0.7500
Cu8_6 Cu 0.75728(3) 0.0000 1.0000
N11_2 N 0.74329(5) 0.25145(5) 0.81442(5)
N17_2 N 0.81442(5) 0.25671(5) 0.74855(5)
N18_2 N 0.74855(5) 0.18558(5) 0.74329(5)
N19_2 N 0.68558(5) 0.24855(5) 0.75671(5)
N20_2 N 0.75671(5) 0.31442(5) 0.75145(5)
N21_2 N 0.75145(5) 0.24329(5) 0.68558(5)
C12_2 C 0.89844(8) 0.21590(9) 0.92326(8)
C16_2 C 0.57674(8) 0.28410(9) 0.60156(8)
H10_2 H 0.8926 0.1946 0.9052
H13_2 H 0.5948 0.3054 0.6074
O7_2 O 0.79823(7) 0.29552(9) 0.93910(8)
O9_2 O 0.56090(8) 0.20448(9) 0.70177(7)
C23_2 C 0.88181(8) 0.27784(10) 0.95631(8)
C27_2 C 0.54369(8) 0.22216(10) 0.61819(8)
H22_2 H 0.8649 0.3004 0.9605
H24_2 H 0.5395 0.1996 0.6351
C37_2 C 0.70428(7) 0.25235(8) 0.82791(6)
C38_2 C 0.67209(6) 0.24765(8) 0.79572(7)
N25_2 N 0.83422(5) 0.24638(7) 0.90728(6)
N27_2 N 0.59272(6) 0.25362(7) 0.66578(5)
H33_2 H 0.8324 0.2279 0.8886
H34_2 H 0.6114 0.2721 0.6676
C47_2 C 0.87039(7) 0.24719(9) 0.92887(6)
C48_2 C 0.57113(6) 0.25281(9) 0.62961(7)
C56_2 C 0.93419(8) 0.21616(10) 0.94394(7)
C60_2 C 0.55606(7) 0.28384(10) 0.56581(8)
H42_2 H 0.9523 0.1946 0.9394
H46_2 H 0.5606 0.3054 0.5477
C69_2 C 0.72702(9) 0.26781(12) 0.89699(8)
C70_2 C 0.60301(8) 0.23219(12) 0.77298(9)
H55_2 H 0.7217 0.2748 0.9241
H57_2 H 0.5759 0.2252 0.7783
C80_2 C 0.76706(7) 0.26413(8) 0.88252(7)
C82_2 C 0.61748(7) 0.23587(8) 0.73294(7)
C91_2 C 0.77299(6) 0.25607(7) 0.84098(7)
C92_2 C 0.65902(7) 0.24393(7) 0.72701(6)
H66_2 H 0.7998 0.2538 0.8315
H68_2 H 0.6685 0.2462 0.7002
C102_2 C 0.80169(8) 0.27044(9) 0.91160(9)
C104_2 C 0.58840(9) 0.22956(9) 0.69831(8)
C113_2 C 0.69404(7) 0.26028(9) 0.86833(7)
C115_2 C 0.63167(7) 0.23972(9) 0.80596(7)
H77_2 H 0.6668 0.2608 0.8768
H78_2 H 0.6232 0.2392 0.8332
C122_2 C 0.91760(8) 0.27460(10) 0.97669(8)
C126_2 C 0.52331(8) 0.22540(10) 0.58240(8)
H86_2 H 0.9236 0.2942 0.9965
H90_2 H 0.5035 0.2058 0.5764
N36_2 N 0.94524(6) 0.24449(8) 0.96994(6)
Cu8_7 Cu 0.75728(3) 1.0000 0.0000
Cu8_8 Cu 0.75728(3) 1.0000 1.0000
Cu8_9 Cu 0.0000 0.75728(3) 0.0000
Cu8_10 Cu -0.0000 0.75728(3) 1.0000
O1_9 O 0.83279(12) 0.0000 0.0000
O3_9 O 0.67380(16) 0.0000 0.0000
O4_3 O 0.66721(12) 0.5000 0.5000
N45_2 N 0.74449(8) 0.53006(6) 0.55476(6)
N46_3 N 0.74449(8) 0.44524(6) 0.53006(6)
N47_2 N 0.74449(8) 0.55476(6) 0.46994(6)
O16_3 O 0.82620(16) 0.5000 0.5000
H99_3 H 0.663658 0.0148752 0.0245273
O1_10 O 0.83279(12) 0.0000 1.0000
O3_10 O 0.67380(16) 0.0000 1.0000
C14_3 C 0.78410(9) 0.07674(8) 0.89844(8)
C15_3 C 0.71590(9) 0.39844(8) 0.57674(8)
H11_3 H 0.8054 0.0948 0.8926
H12_3 H 0.6946 0.3926 0.5948
O6_3 O 0.70448(9) 0.06090(8) 0.79823(7)
O8_3 O 0.79552(9) 0.29823(7) 0.56090(8)
C24_3 C 0.72216(10) 0.04369(8) 0.88181(8)
C26_3 C 0.77784(10) 0.38181(8) 0.54369(8)
H21_3 H 0.6996 0.0395 0.8649
H23_3 H 0.8004 0.3649 0.5395
C36_3 C 0.74765(8) 0.17209(6) 0.70428(7)
C40_3 C 0.75235(8) 0.20428(7) 0.67209(6)
N24_3 N 0.75362(7) 0.09272(6) 0.83422(5)
N26_3 N 0.74638(7) 0.33422(5) 0.59272(6)
H32_3 H 0.7721 0.1114 0.8324
H35_3 H 0.7279 0.3324 0.6114
C46_3 C 0.75281(9) 0.07113(6) 0.87039(7)
C49_3 C 0.74719(9) 0.37039(7) 0.57113(6)
C57_3 C 0.78384(10) 0.05606(7) 0.93419(8)
C59_3 C 0.71616(10) 0.43419(8) 0.55606(7)
H44_3 H 0.8054 0.0606 0.9523
H45_3 H 0.6946 0.4523 0.5606
C68_3 C 0.73219(12) 0.10301(8) 0.72702(9)
C71_3 C 0.76781(12) 0.22702(9) 0.60301(8)
H54_3 H 0.7252 0.0759 0.7217
H56_3 H 0.7748 0.2217 0.5759
C79_3 C 0.73587(8) 0.11748(7) 0.76706(7)
C81_3 C 0.76413(8) 0.26706(7) 0.61748(7)
C90_3 C 0.74393(7) 0.15902(7) 0.77299(6)
C93_3 C 0.75607(7) 0.27299(6) 0.65902(7)
H65_3 H 0.7462 0.1685 0.7998
H67_3 H 0.7538 0.2998 0.6685
C101_3 C 0.72956(9) 0.08840(9) 0.80169(8)
C103_3 C 0.77044(9) 0.30169(8) 0.58840(9)
C112_3 C 0.73972(9) 0.13167(7) 0.69404(7)
C114_3 C 0.76028(9) 0.19404(7) 0.63167(7)
H76_3 H 0.7392 0.1232 0.6668
H79_3 H 0.7608 0.1668 0.6232
C123_3 C 0.72540(10) 0.02331(8) 0.91760(8)
C125_3 C 0.77460(10) 0.41760(8) 0.52331(8)
H87_3 H 0.7058 0.0035 0.9236
H89_3 H 0.7942 0.4236 0.5035
N35_3 N 0.75551(8) 0.03006(6) 0.94524(6)
H100_3 H 0.663658 0.0138036 0.974854
H102_3 H 0.842932 0.0138036 0.974854
Fe1_3 Fe 0.7500 0.7500 0.2500
N1_3 N 0.74855(5) 0.81442(5) 0.25671(5)
O1_11 O 0.83279(12) 1.0000 0.0000
C1_3 C 0.78410(9) 0.92326(8) 0.10156(8)
H1_3 H 0.8054 0.9052 0.1074
O2_3 O 0.70448(9) 0.93910(8) 0.20177(7)
C2_3 C 0.72216(10) 0.95631(8) 0.11819(8)
H2_3 H 0.6996 0.9605 0.1351
C3_3 C 0.74765(8) 0.82791(6) 0.29572(7)
N2_3 N 0.75362(7) 0.90728(6) 0.16578(5)
H3_3 H 0.7721 0.8886 0.1676
C4_3 C 0.75281(9) 0.92887(6) 0.12961(7)
C5_3 C 0.78384(10) 0.94394(7) 0.06581(8)
H4_3 H 0.8054 0.9394 0.0477
C6_3 C 0.73219(12) 0.89699(8) 0.27298(9)
H5_3 H 0.7252 0.9241 0.2783
C7_3 C 0.73587(8) 0.88252(7) 0.23294(7)
C8_3 C 0.74393(7) 0.84098(7) 0.22701(6)
H6_3 H 0.7462 0.8315 0.2002
C9_3 C 0.72956(9) 0.91160(9) 0.19831(8)
C10_3 C 0.73972(9) 0.86833(7) 0.30596(7)
H7_3 H 0.7392 0.8768 0.3332
C11_3 C 0.72540(10) 0.97669(8) 0.08240(8)
H8_3 H 0.7058 0.9965 0.0764
N3_3 N 0.75551(8) 0.96994(6) 0.05476(6)
O3_11 O 0.67380(16) 1.0000 0.0000
Cu7_3 Cu 0.5000 0.74272(3) 0.5000
Cu8_11 Cu 1.0000 0.75728(3) 0.0000
N4_3 N 0.74329(5) 0.74855(5) 0.18558(5)
N5_3 N 0.81442(5) 0.74329(5) 0.25145(5)
N6_3 N 0.68558(5) 0.75145(5) 0.24329(5)
N7_3 N 0.75145(5) 0.75671(5) 0.31442(5)
N8_3 N 0.75671(5) 0.68558(5) 0.24855(5)
C18_3 C 0.71590(9) 0.60156(8) 0.42326(8)
C19_3 C 0.60156(8) 0.57674(8) 0.28410(9)
C20_3 C 0.57674(8) 0.71590(9) 0.39844(8)
C21_3 C 0.89844(8) 0.78410(9) 0.07674(8)
C22_3 C 0.92326(8) 0.89844(8) 0.21590(9)
H15_3 H 0.6946 0.6074 0.4052
H16_3 H 0.6074 0.5948 0.3054
H17_3 H 0.5948 0.6946 0.3926
H18_3 H 0.8926 0.8054 0.0948
H19_3 H 0.9052 0.8926 0.1946
O11_3 O 0.79552(9) 0.70177(7) 0.43910(8)
O12_3 O 0.56090(8) 0.79552(9) 0.29823(7)
O13_3 O 0.79823(7) 0.70448(9) 0.06090(8)
O14_3 O 0.70177(7) 0.56090(8) 0.20448(9)
O15_3 O 0.93910(8) 0.79823(7) 0.29552(9)
C29_3 C 0.77784(10) 0.61819(8) 0.45631(8)
C30_3 C 0.61819(8) 0.54369(8) 0.22216(10)
C31_3 C 0.54369(8) 0.77784(10) 0.38181(8)
C32_3 C 0.88181(8) 0.72216(10) 0.04369(8)
C33_3 C 0.95631(8) 0.88181(8) 0.27784(10)
H26_3 H 0.8004 0.6351 0.4605
H27_3 H 0.6351 0.5395 0.1996
H28_3 H 0.5395 0.8004 0.3649
H29_3 H 0.8649 0.6996 0.0395
H30_3 H 0.9605 0.8649 0.3004
C34_3 C 0.75235(8) 0.79572(7) 0.32791(6)
C41_3 C 0.79572(7) 0.67209(6) 0.24765(8)
C42_3 C 0.67209(6) 0.75235(8) 0.20428(7)
C43_3 C 0.70428(7) 0.74765(8) 0.17209(6)
C44_3 C 0.82791(6) 0.70428(7) 0.25235(8)
N29_3 N 0.74638(7) 0.66578(5) 0.40728(6)
N30_3 N 0.59272(6) 0.74638(7) 0.33422(5)
N31_3 N 0.83422(5) 0.75362(7) 0.09272(6)
N32_3 N 0.66578(5) 0.59272(6) 0.25362(7)
N33_3 N 0.90728(6) 0.83422(5) 0.24638(7)
H37_3 H 0.7279 0.6676 0.3886
H38_3 H 0.6676 0.6114 0.2721
H39_3 H 0.6114 0.7279 0.3324
H40_3 H 0.8324 0.7721 0.1114
H41_3 H 0.8886 0.8324 0.2279
C51_3 C 0.74719(9) 0.62961(7) 0.42887(6)
C52_3 C 0.62961(7) 0.57113(6) 0.25281(9)
C53_3 C 0.57113(6) 0.74719(9) 0.37039(7)
C54_3 C 0.87039(7) 0.75281(9) 0.07113(6)
C55_3 C 0.92887(6) 0.87039(7) 0.24719(9)
C62_3 C 0.71616(10) 0.56581(8) 0.44394(7)
C63_3 C 0.56581(8) 0.55606(7) 0.28384(10)
C64_3 C 0.55606(7) 0.71616(10) 0.43419(8)
C65_3 C 0.93419(8) 0.78384(10) 0.05606(7)
C66_3 C 0.94394(7) 0.93419(8) 0.21616(10)
H48_3 H 0.6946 0.5477 0.4394
H49_3 H 0.5477 0.5606 0.3054
H50_3 H 0.5606 0.6946 0.4523
H51_3 H 0.9523 0.8054 0.0606
H52_3 H 0.9394 0.9523 0.1946
C73_3 C 0.76781(12) 0.77298(9) 0.39699(8)
C74_3 C 0.77298(9) 0.60301(8) 0.23219(12)
C75_3 C 0.60301(8) 0.76781(12) 0.22702(9)
C76_3 C 0.72702(9) 0.73219(12) 0.10301(8)
C77_3 C 0.89699(8) 0.72702(9) 0.26781(12)
H59_3 H 0.7748 0.7783 0.4241
H60_3 H 0.7217 0.7252 0.0759
H61_3 H 0.5759 0.7748 0.2217
H62_3 H 0.7783 0.5759 0.2252
H63_3 H 0.9241 0.7217 0.2748
C84_3 C 0.76413(8) 0.73294(7) 0.38252(7)
C85_3 C 0.73294(7) 0.61748(7) 0.23587(8)
C86_3 C 0.61748(7) 0.76413(8) 0.26706(7)
C87_3 C 0.76706(7) 0.73587(8) 0.11748(7)
C88_3 C 0.88252(7) 0.76706(7) 0.26413(8)
C95_3 C 0.75607(7) 0.72701(6) 0.34098(7)
C96_3 C 0.72701(6) 0.65902(7) 0.24393(7)
C97_3 C 0.65902(7) 0.75607(7) 0.27299(6)
C98_3 C 0.77299(6) 0.74393(7) 0.15902(7)
C99_3 C 0.84098(7) 0.77299(6) 0.25607(7)
H70_3 H 0.7538 0.7002 0.3315
H71_3 H 0.7002 0.6685 0.2462
H72_3 H 0.6685 0.7538 0.2998
H73_3 H 0.7998 0.7462 0.1685
H74_3 H 0.8315 0.7998 0.2538
C106_3 C 0.77044(9) 0.69831(8) 0.41160(9)
C107_3 C 0.69831(8) 0.58840(9) 0.22956(9)
C108_3 C 0.80169(8) 0.72956(9) 0.08840(9)
C109_3 C 0.58840(9) 0.77044(9) 0.30169(8)
C110_3 C 0.91160(9) 0.80169(8) 0.27044(9)
C117_3 C 0.76028(9) 0.80596(7) 0.36833(7)
C118_3 C 0.80596(7) 0.63167(7) 0.23972(9)
C119_3 C 0.63167(7) 0.76028(9) 0.19404(7)
C120_3 C 0.69404(7) 0.73972(9) 0.13167(7)
C121_3 C 0.86833(7) 0.69404(7) 0.26028(9)
H81_3 H 0.7608 0.8332 0.3768
H82_3 H 0.8332 0.6232 0.2392
H83_3 H 0.6232 0.7608 0.1668
H84_3 H 0.6668 0.7392 0.1232
H85_3 H 0.8768 0.6668 0.2608
C128_3 C 0.77460(10) 0.58240(8) 0.47669(8)
C129_3 C 0.58240(8) 0.52331(8) 0.22540(10)
C130_3 C 0.52331(8) 0.77460(10) 0.41760(8)
C131_3 C 0.91760(8) 0.72540(10) 0.02331(8)
C132_3 C 0.97669(8) 0.91760(8) 0.27460(10)
H92_3 H 0.7942 0.5764 0.4965
H93_3 H 0.5764 0.5035 0.2058
H94_3 H 0.5035 0.7942 0.4236
H95_3 H 0.9236 0.7058 0.0035
H96_3 H 0.9965 0.9236 0.2942
N41_3 N 0.55476(6) 0.53006(6) 0.25551(8)
N42_3 N 0.53006(6) 0.74449(8) 0.44524(6)
N43_3 N 0.94524(6) 0.75551(8) 0.03006(6)
N44_3 N 0.96994(6) 0.94524(6) 0.24449(8)
H101_3 H 0.842932 0.971321 0.000618673
O1_12 O 0.83279(12) 1.0000 1.0000
O3_12 O 0.67380(16) 1.0000 1.0000
Fe4_3 Fe 0.7500 0.7500 0.7500
Cu8_12 Cu 1.0000 0.75728(3) 1.0000
N11_3 N 0.74855(5) 0.74329(5) 0.81442(5)
N17_3 N 0.74329(5) 0.81442(5) 0.74855(5)
N18_3 N 0.81442(5) 0.74855(5) 0.74329(5)
N19_3 N 0.75145(5) 0.68558(5) 0.75671(5)
N20_3 N 0.68558(5) 0.75671(5) 0.75145(5)
N21_3 N 0.75671(5) 0.75145(5) 0.68558(5)
C12_3 C 0.78410(9) 0.89844(8) 0.92326(8)
C16_3 C 0.71590(9) 0.57674(8) 0.60156(8)
H10_3 H 0.8054 0.8926 0.9052
H13_3 H 0.6946 0.5948 0.6074
O7_3 O 0.70448(9) 0.79823(7) 0.93910(8)
O9_3 O 0.79552(9) 0.56090(8) 0.70177(7)
C23_3 C 0.72216(10) 0.88181(8) 0.95631(8)
C27_3 C 0.77784(10) 0.54369(8) 0.61819(8)
H22_3 H 0.6996 0.8649 0.9605
H24_3 H 0.8004 0.5395 0.6351
C37_3 C 0.74765(8) 0.70428(7) 0.82791(6)
C38_3 C 0.75235(8) 0.67209(6) 0.79572(7)
N25_3 N 0.75362(7) 0.83422(5) 0.90728(6)
N27_3 N 0.74638(7) 0.59272(6) 0.66578(5)
H33_3 H 0.7721 0.8324 0.8886
H34_3 H 0.7279 0.6114 0.6676
C47_3 C 0.75281(9) 0.87039(7) 0.92887(6)
C48_3 C 0.74719(9) 0.57113(6) 0.62961(7)
C56_3 C 0.78384(10) 0.93419(8) 0.94394(7)
C60_3 C 0.71616(10) 0.55606(7) 0.56581(8)
H42_3 H 0.8054 0.9523 0.9394
H46_3 H 0.6946 0.5606 0.5477
C69_3 C 0.73219(12) 0.72702(9) 0.89699(8)
C70_3 C 0.76781(12) 0.60301(8) 0.77298(9)
H55_3 H 0.7252 0.7217 0.9241
H57_3 H 0.7748 0.5759 0.7783
C80_3 C 0.73587(8) 0.76706(7) 0.88252(7)
C82_3 C 0.76413(8) 0.61748(7) 0.73294(7)
C91_3 C 0.74393(7) 0.77299(6) 0.84098(7)
C92_3 C 0.75607(7) 0.65902(7) 0.72701(6)
H66_3 H 0.7462 0.7998 0.8315
H68_3 H 0.7538 0.6685 0.7002
C102_3 C 0.72956(9) 0.80169(8) 0.91160(9)
C104_3 C 0.77044(9) 0.58840(9) 0.69831(8)
C113_3 C 0.73972(9) 0.69404(7) 0.86833(7)
C115_3 C 0.76028(9) 0.63167(7) 0.80596(7)
H77_3 H 0.7392 0.6668 0.8768
H78_3 H 0.7608 0.6232 0.8332
C122_3 C 0.72540(10) 0.91760(8) 0.97669(8)
C126_3 C 0.77460(10) 0.52331(8) 0.58240(8)
H86_3 H 0.7058 0.9236 0.9965
H90_3 H 0.7942 0.5035 0.5764
N36_3 N 0.75551(8) 0.94524(6) 0.96994(6)
N1_4 N 0.18558(5) 0.74855(5) 0.25671(5)
O1_13 O 0.0000 0.83279(12) 0.0000
C1_4 C 0.07674(8) 0.78410(9) 0.10156(8)
H1_4 H 0.0948 0.8054 0.1074
O2_4 O 0.06090(8) 0.70448(9) 0.20177(7)
C2_4 C 0.04369(8) 0.72216(10) 0.11819(8)
H2_4 H 0.0395 0.6996 0.1351
C3_4 C 0.17209(6) 0.74765(8) 0.29572(7)
N2_4 N 0.09272(6) 0.75362(7) 0.16578(5)
H3_4 H 0.1114 0.7721 0.1676
C4_4 C 0.07113(6) 0.75281(9) 0.12961(7)
C5_4 C 0.05606(7) 0.78384(10) 0.06581(8)
H4_4 H 0.0606 0.8054 0.0477
C6_4 C 0.10301(8) 0.73219(12) 0.27298(9)
H5_4 H 0.0759 0.7252 0.2783
C7_4 C 0.11748(7) 0.73587(8) 0.23294(7)
C8_4 C 0.15902(7) 0.74393(7) 0.22701(6)
H6_4 H 0.1685 0.7462 0.2002
C9_4 C 0.08840(9) 0.72956(9) 0.19831(8)
C10_4 C 0.13167(7) 0.73972(9) 0.30596(7)
H7_4 H 0.1232 0.7392 0.3332
C11_4 C 0.02331(8) 0.72540(10) 0.08240(8)
H8_4 H 0.0035 0.7058 0.0764
N3_4 N 0.03006(6) 0.75551(8) 0.05476(6)
O3_13 O 0.0000 0.67380(16) 0.0000
N5_4 N 0.25671(5) 0.81442(5) 0.25145(5)
N7_4 N 0.24329(5) 0.75145(5) 0.31442(5)
N8_4 N 0.31442(5) 0.75671(5) 0.24855(5)
C18_4 C 0.39844(8) 0.71590(9) 0.42326(8)
C19_4 C 0.42326(8) 0.60156(8) 0.28410(9)
C22_4 C 0.10156(8) 0.92326(8) 0.21590(9)
H15_4 H 0.3926 0.6946 0.4052
H16_4 H 0.4052 0.6074 0.3054
H19_4 H 0.1074 0.9052 0.1946
O11_4 O 0.29823(7) 0.79552(9) 0.43910(8)
O14_4 O 0.43910(8) 0.70177(7) 0.20448(9)
O15_4 O 0.20177(7) 0.93910(8) 0.29552(9)
C29_4 C 0.38181(8) 0.77784(10) 0.45631(8)
C30_4 C 0.45631(8) 0.61819(8) 0.22216(10)
C33_4 C 0.11819(8) 0.95631(8) 0.27784(10)
H26_4 H 0.3649 0.8004 0.4605
H27_4 H 0.4605 0.6351 0.1996
H30_4 H 0.1351 0.9605 0.3004
C34_4 C 0.20428(7) 0.75235(8) 0.32791(6)
C41_4 C 0.32791(6) 0.79572(7) 0.24765(8)
C44_4 C 0.29572(7) 0.82791(6) 0.25235(8)
N29_4 N 0.33422(5) 0.74638(7) 0.40728(6)
N32_4 N 0.40728(6) 0.66578(5) 0.25362(7)
N33_4 N 0.16578(5) 0.90728(6) 0.24638(7)
H37_4 H 0.3324 0.7279 0.3886
H38_4 H 0.3886 0.6676 0.2721
H41_4 H 0.1676 0.8886 0.2279
C51_4 C 0.37039(7) 0.74719(9) 0.42887(6)
C52_4 C 0.42887(6) 0.62961(7) 0.25281(9)
C55_4 C 0.12961(7) 0.92887(6) 0.24719(9)
C62_4 C 0.43419(8) 0.71616(10) 0.44394(7)
C63_4 C 0.44394(7) 0.56581(8) 0.28384(10)
C66_4 C 0.06581(8) 0.94394(7) 0.21616(10)
H48_4 H 0.4523 0.6946 0.4394
H49_4 H 0.4394 0.5477 0.3054
H52_4 H 0.0477 0.9394 0.1946
C73_4 C 0.22702(9) 0.76781(12) 0.39699(8)
C74_4 C 0.39699(8) 0.77298(9) 0.23219(12)
C77_4 C 0.27298(9) 0.89699(8) 0.26781(12)
H59_4 H 0.2217 0.7748 0.4241
H62_4 H 0.4241 0.7783 0.2252
H63_4 H 0.2783 0.9241 0.2748
C84_4 C 0.26706(7) 0.76413(8) 0.38252(7)
C85_4 C 0.38252(7) 0.73294(7) 0.23587(8)
C88_4 C 0.23294(7) 0.88252(7) 0.26413(8)
C95_4 C 0.27299(6) 0.75607(7) 0.34098(7)
C96_4 C 0.34098(7) 0.72701(6) 0.24393(7)
C99_4 C 0.22701(6) 0.84098(7) 0.25607(7)
H70_4 H 0.2998 0.7538 0.3315
H71_4 H 0.3315 0.7002 0.2462
H74_4 H 0.2002 0.8315 0.2538
C106_4 C 0.30169(8) 0.77044(9) 0.41160(9)
C107_4 C 0.41160(9) 0.69831(8) 0.22956(9)
C110_4 C 0.19831(8) 0.91160(9) 0.27044(9)
C117_4 C 0.19404(7) 0.76028(9) 0.36833(7)
C118_4 C 0.36833(7) 0.80596(7) 0.23972(9)
C121_4 C 0.30596(7) 0.86833(7) 0.26028(9)
H81_4 H 0.1668 0.7608 0.3768
H82_4 H 0.3768 0.8332 0.2392
H85_4 H 0.3332 0.8768 0.2608
C128_4 C 0.41760(8) 0.77460(10) 0.47669(8)
C129_4 C 0.47669(8) 0.58240(8) 0.22540(10)
C132_4 C 0.08240(8) 0.97669(8) 0.27460(10)
H92_4 H 0.4236 0.7942 0.4965
H93_4 H 0.4965 0.5764 0.2058
H96_4 H 0.0764 0.9965 0.2942
N40_2 N 0.44524(6) 0.74449(8) 0.46994(6)
N41_4 N 0.46994(6) 0.55476(6) 0.25551(8)
N44_4 N 0.05476(6) 0.96994(6) 0.24449(8)
H101_4 H 0.0286788 0.842932 0.000618673
O1_14 O -0.0000 0.83279(12) 1.0000
O3_14 O -0.0000 0.67380(16) 1.0000
C12_4 C 0.10156(8) 0.78410(9) 0.92326(8)
C16_4 C 0.42326(8) 0.71590(9) 0.60156(8)
H10_4 H 0.1074 0.8054 0.9052
H13_4 H 0.4052 0.6946 0.6074
O7_4 O 0.20177(7) 0.70448(9) 0.93910(8)
O9_4 O 0.43910(8) 0.79552(9) 0.70177(7)
C23_4 C 0.11819(8) 0.72216(10) 0.95631(8)
C27_4 C 0.45631(8) 0.77784(10) 0.61819(8)
H22_4 H 0.1351 0.6996 0.9605
H24_4 H 0.4605 0.8004 0.6351
C37_4 C 0.29572(7) 0.74765(8) 0.82791(6)
C38_4 C 0.32791(6) 0.75235(8) 0.79572(7)
N25_4 N 0.16578(5) 0.75362(7) 0.90728(6)
N27_4 N 0.40728(6) 0.74638(7) 0.66578(5)
H33_4 H 0.1676 0.7721 0.8886
H34_4 H 0.3886 0.7279 0.6676
C47_4 C 0.12961(7) 0.75281(9) 0.92887(6)
C48_4 C 0.42887(6) 0.74719(9) 0.62961(7)
C56_4 C 0.06581(8) 0.78384(10) 0.94394(7)
C60_4 C 0.44394(7) 0.71616(10) 0.56581(8)
H42_4 H 0.0477 0.8054 0.9394
H46_4 H 0.4394 0.6946 0.5477
C69_4 C 0.27298(9) 0.73219(12) 0.89699(8)
C70_4 C 0.39699(8) 0.76781(12) 0.77298(9)
H55_4 H 0.2783 0.7252 0.9241
H57_4 H 0.4241 0.7748 0.7783
C80_4 C 0.23294(7) 0.73587(8) 0.88252(7)
C82_4 C 0.38252(7) 0.76413(8) 0.73294(7)
C91_4 C 0.22701(6) 0.74393(7) 0.84098(7)
C92_4 C 0.34098(7) 0.75607(7) 0.72701(6)
H66_4 H 0.2002 0.7462 0.8315
H68_4 H 0.3315 0.7538 0.7002
C102_4 C 0.19831(8) 0.72956(9) 0.91160(9)
C104_4 C 0.41160(9) 0.77044(9) 0.69831(8)
C113_4 C 0.30596(7) 0.73972(9) 0.86833(7)
C115_4 C 0.36833(7) 0.76028(9) 0.80596(7)
H77_4 H 0.3332 0.7392 0.8768
H78_4 H 0.3768 0.7608 0.8332
C122_4 C 0.08240(8) 0.72540(10) 0.97669(8)
C126_4 C 0.47669(8) 0.77460(10) 0.58240(8)
H86_4 H 0.0764 0.7058 0.9965
H90_4 H 0.4965 0.7942 0.5764
N36_4 N 0.05476(6) 0.75551(8) 0.96994(6)
N38_2 N 0.46994(6) 0.74449(8) 0.55476(6)
O1_15 O 1.0000 0.83279(12) 0.0000
O3_15 O 1.0000 0.67380(16) 0.0000
O4_4 O 0.5000 0.66721(12) 0.5000
N46_4 N 0.55476(6) 0.74449(8) 0.53006(6)
O16_4 O 0.5000 0.82620(16) 0.5000
H99_4 H 0.985125 0.663658 0.0245273
O1_16 O 1.0000 0.83279(12) 1.0000
O3_16 O 1.0000 0.67380(16) 1.0000
C14_4 C 0.92326(8) 0.78410(9) 0.89844(8)
C15_4 C 0.60156(8) 0.71590(9) 0.57674(8)
H11_4 H 0.9052 0.8054 0.8926
H12_4 H 0.6074 0.6946 0.5948
O6_4 O 0.93910(8) 0.70448(9) 0.79823(7)
O8_4 O 0.70177(7) 0.79552(9) 0.56090(8)
C24_4 C 0.95631(8) 0.72216(10) 0.88181(8)
C26_4 C 0.61819(8) 0.77784(10) 0.54369(8)
H21_4 H 0.9605 0.6996 0.8649
H23_4 H 0.6351 0.8004 0.5395
C36_4 C 0.82791(6) 0.74765(8) 0.70428(7)
C40_4 C 0.79572(7) 0.75235(8) 0.67209(6)
N24_4 N 0.90728(6) 0.75362(7) 0.83422(5)
N26_4 N 0.66578(5) 0.74638(7) 0.59272(6)
H32_4 H 0.8886 0.7721 0.8324
H35_4 H 0.6676 0.7279 0.6114
C46_4 C 0.92887(6) 0.75281(9) 0.87039(7)
C49_4 C 0.62961(7) 0.74719(9) 0.57113(6)
C57_4 C 0.94394(7) 0.78384(10) 0.93419(8)
C59_4 C 0.56581(8) 0.71616(10) 0.55606(7)
H44_4 H 0.9394 0.8054 0.9523
H45_4 H 0.5477 0.6946 0.5606
C68_4 C 0.89699(8) 0.73219(12) 0.72702(9)
C71_4 C 0.77298(9) 0.76781(12) 0.60301(8)
H54_4 H 0.9241 0.7252 0.7217
H56_4 H 0.7783 0.7748 0.5759
C79_4 C 0.88252(7) 0.73587(8) 0.76706(7)
C81_4 C 0.73294(7) 0.76413(8) 0.61748(7)
C90_4 C 0.84098(7) 0.74393(7) 0.77299(6)
C93_4 C 0.72701(6) 0.75607(7) 0.65902(7)
H65_4 H 0.8315 0.7462 0.7998
H67_4 H 0.7002 0.7538 0.6685
C101_4 C 0.91160(9) 0.72956(9) 0.80169(8)
C103_4 C 0.69831(8) 0.77044(9) 0.58840(9)
C112_4 C 0.86833(7) 0.73972(9) 0.69404(7)
C114_4 C 0.80596(7) 0.76028(9) 0.63167(7)
H76_4 H 0.8768 0.7392 0.6668
H79_4 H 0.8332 0.7608 0.6232
C123_4 C 0.97669(8) 0.72540(10) 0.91760(8)
C125_4 C 0.58240(8) 0.77460(10) 0.52331(8)
H87_4 H 0.9965 0.7058 0.9236
H89_4 H 0.5764 0.7942 0.5035
N35_4 N 0.96994(6) 0.75551(8) 0.94524(6)
H100_4 H 0.986196 0.663658 0.974854
H102_4 H 0.986196 0.842932 0.974854
H100_5 H 0.336342 0.0251459 0.986196
H102_5 H 0.157068 0.0251459 0.986196
H101_5 H 0.157068 0.999381 0.0286788
H99_5 H 0.336342 0.975473 0.985125
H100_6 H 0.336342 0.0138036 0.0251459
H102_6 H 0.157068 0.0138036 0.0251459
Cu9_5 Cu 0.0000 0.0000 0.75728(3)
H99_6 H 0.336342 0.0148752 0.975473
Cu6_2 Cu 0.5000 0.5000 0.74272(3)
Cu9_6 Cu -0.0000 1.0000 0.75728(3)
C19_5 C 0.39844(8) 0.57674(8) 0.71590(9)
C22_5 C 0.07674(8) 0.89844(8) 0.78410(9)
H16_5 H 0.3926 0.5948 0.6946
H19_5 H 0.0948 0.8926 0.8054
O14_5 O 0.29823(7) 0.56090(8) 0.79552(9)
O15_5 O 0.06090(8) 0.79823(7) 0.70448(9)
C30_5 C 0.38181(8) 0.54369(8) 0.77784(10)
C33_5 C 0.04369(8) 0.88181(8) 0.72216(10)
H27_5 H 0.3649 0.5395 0.8004
H30_5 H 0.0395 0.8649 0.6996
C41_5 C 0.20428(7) 0.67209(6) 0.75235(8)
C44_5 C 0.17209(6) 0.70428(7) 0.74765(8)
N32_5 N 0.33422(5) 0.59272(6) 0.74638(7)
N33_5 N 0.09272(6) 0.83422(5) 0.75362(7)
H38_5 H 0.3324 0.6114 0.7279
H41_5 H 0.1114 0.8324 0.7721
C52_5 C 0.37039(7) 0.57113(6) 0.74719(9)
C55_5 C 0.07113(6) 0.87039(7) 0.75281(9)
C63_5 C 0.43419(8) 0.55606(7) 0.71616(10)
C66_5 C 0.05606(7) 0.93419(8) 0.78384(10)
H49_5 H 0.4523 0.5606 0.6946
H52_5 H 0.0606 0.9523 0.8054
C74_5 C 0.22702(9) 0.60301(8) 0.76781(12)
C77_5 C 0.10301(8) 0.72702(9) 0.73219(12)
H62_5 H 0.2217 0.5759 0.7748
H63_5 H 0.0759 0.7217 0.7252
C85_5 C 0.26706(7) 0.61748(7) 0.76413(8)
C88_5 C 0.11748(7) 0.76706(7) 0.73587(8)
C96_5 C 0.27299(6) 0.65902(7) 0.75607(7)
C99_5 C 0.15902(7) 0.77299(6) 0.74393(7)
H71_5 H 0.2998 0.6685 0.7538
H74_5 H 0.1685 0.7998 0.7462
C107_5 C 0.30169(8) 0.58840(9) 0.77044(9)
C110_5 C 0.08840(9) 0.80169(8) 0.72956(9)
C118_5 C 0.19404(7) 0.63167(7) 0.76028(9)
C121_5 C 0.13167(7) 0.69404(7) 0.73972(9)
H82_5 H 0.1668 0.6232 0.7608
H85_5 H 0.1232 0.6668 0.7392
C129_5 C 0.41760(8) 0.52331(8) 0.77460(10)
C132_5 C 0.02331(8) 0.91760(8) 0.72540(10)
H93_5 H 0.4236 0.5035 0.7942
H96_5 H 0.0035 0.9236 0.7058
N41_5 N 0.44524(6) 0.53006(6) 0.74449(8)
N44_5 N 0.03006(6) 0.94524(6) 0.75551(8)
H101_6 H 0.157068 0.971321 0.999381
Cu9_7 Cu 1.0000 0.0000 0.75728(3)
Cu9_8 Cu 1.0000 1.0000 0.75728(3)
H99_7 H 0.336342 0.0245273 0.0148752
C20_4 C 0.42326(8) 0.39844(8) 0.71590(9)
C21_4 C 0.10156(8) 0.07674(8) 0.78410(9)
H17_4 H 0.4052 0.3926 0.6946
H18_4 H 0.1074 0.0948 0.8054
O12_4 O 0.43910(8) 0.29823(7) 0.79552(9)
O13_4 O 0.20177(7) 0.06090(8) 0.70448(9)
C31_4 C 0.45631(8) 0.38181(8) 0.77784(10)
C32_4 C 0.11819(8) 0.04369(8) 0.72216(10)
H28_4 H 0.4605 0.3649 0.8004
H29_4 H 0.1351 0.0395 0.6996
C42_4 C 0.32791(6) 0.20428(7) 0.75235(8)
C43_4 C 0.29572(7) 0.17209(6) 0.74765(8)
N30_4 N 0.40728(6) 0.33422(5) 0.74638(7)
N31_4 N 0.16578(5) 0.09272(6) 0.75362(7)
H39_4 H 0.3886 0.3324 0.7279
H40_4 H 0.1676 0.1114 0.7721
C53_4 C 0.42887(6) 0.37039(7) 0.74719(9)
C54_4 C 0.12961(7) 0.07113(6) 0.75281(9)
C64_4 C 0.44394(7) 0.43419(8) 0.71616(10)
C65_4 C 0.06581(8) 0.05606(7) 0.78384(10)
H50_4 H 0.4394 0.4523 0.6946
H51_4 H 0.0477 0.0606 0.8054
C75_4 C 0.39699(8) 0.22702(9) 0.76781(12)
C76_4 C 0.27298(9) 0.10301(8) 0.73219(12)
H60_4 H 0.2783 0.0759 0.7252
H61_4 H 0.4241 0.2217 0.7748
C86_4 C 0.38252(7) 0.26706(7) 0.76413(8)
C87_4 C 0.23294(7) 0.11748(7) 0.73587(8)
C97_4 C 0.34098(7) 0.27299(6) 0.75607(7)
C98_4 C 0.22701(6) 0.15902(7) 0.74393(7)
H72_4 H 0.3315 0.2998 0.7538
H73_4 H 0.2002 0.1685 0.7462
C108_4 C 0.19831(8) 0.08840(9) 0.72956(9)
C109_4 C 0.41160(9) 0.30169(8) 0.77044(9)
C119_4 C 0.36833(7) 0.19404(7) 0.76028(9)
C120_4 C 0.30596(7) 0.13167(7) 0.73972(9)
H83_4 H 0.3768 0.1668 0.7608
H84_4 H 0.3332 0.1232 0.7392
C130_4 C 0.47669(8) 0.41760(8) 0.77460(10)
C131_4 C 0.08240(8) 0.02331(8) 0.72540(10)
H94_4 H 0.4965 0.4236 0.7942
H95_4 H 0.0764 0.0035 0.7058
N42_4 N 0.46994(6) 0.44524(6) 0.74449(8)
N43_4 N 0.05476(6) 0.03006(6) 0.75551(8)
H101_7 H 0.157068 0.000618673 0.971321
H100_7 H 0.336342 0.974854 0.0138036
H102_7 H 0.157068 0.974854 0.0138036
O1_17 O -0.0000 0.0000 0.83279(12)
O3_17 O 0.0000 0.0000 0.67380(16)
H101_8 H 0.000618673 0.0286788 0.842932
O1_18 O -0.0000 1.0000 0.83279(12)
O3_18 O 0.0000 1.0000 0.67380(16)
O4_5 O 0.5000 0.5000 0.66721(12)
N45_3 N 0.55476(6) 0.46994(6) 0.74449(8)
N46_5 N 0.53006(6) 0.55476(6) 0.74449(8)
O16_5 O 0.5000 0.5000 0.82620(16)
H99_8 H 0.0245273 0.985125 0.663658
O1_19 O 1.0000 0.0000 0.83279(12)
O3_19 O 1.0000 0.0000 0.67380(16)
C12_5 C 0.92326(8) 0.10156(8) 0.78410(9)
C16_5 C 0.60156(8) 0.42326(8) 0.71590(9)
H10_5 H 0.9052 0.1074 0.8054
H13_5 H 0.6074 0.4052 0.6946
O7_5 O 0.93910(8) 0.20177(7) 0.70448(9)
O9_5 O 0.70177(7) 0.43910(8) 0.79552(9)
C23_5 C 0.95631(8) 0.11819(8) 0.72216(10)
C27_5 C 0.61819(8) 0.45631(8) 0.77784(10)
H22_5 H 0.9605 0.1351 0.6996
H24_5 H 0.6351 0.4605 0.8004
C37_5 C 0.82791(6) 0.29572(7) 0.74765(8)
C38_5 C 0.79572(7) 0.32791(6) 0.75235(8)
N25_5 N 0.90728(6) 0.16578(5) 0.75362(7)
N27_5 N 0.66578(5) 0.40728(6) 0.74638(7)
H33_5 H 0.8886 0.1676 0.7721
H34_5 H 0.6676 0.3886 0.7279
C47_5 C 0.92887(6) 0.12961(7) 0.75281(9)
C48_5 C 0.62961(7) 0.42887(6) 0.74719(9)
C56_5 C 0.94394(7) 0.06581(8) 0.78384(10)
C60_5 C 0.56581(8) 0.44394(7) 0.71616(10)
H42_5 H 0.9394 0.0477 0.8054
H46_5 H 0.5477 0.4394 0.6946
C69_5 C 0.89699(8) 0.27298(9) 0.73219(12)
C70_5 C 0.77298(9) 0.39699(8) 0.76781(12)
H55_5 H 0.9241 0.2783 0.7252
H57_5 H 0.7783 0.4241 0.7748
C80_5 C 0.88252(7) 0.23294(7) 0.73587(8)
C82_5 C 0.73294(7) 0.38252(7) 0.76413(8)
C91_5 C 0.84098(7) 0.22701(6) 0.74393(7)
C92_5 C 0.72701(6) 0.34098(7) 0.75607(7)
H66_5 H 0.8315 0.2002 0.7462
H68_5 H 0.7002 0.3315 0.7538
C102_5 C 0.91160(9) 0.19831(8) 0.72956(9)
C104_5 C 0.69831(8) 0.41160(9) 0.77044(9)
C113_5 C 0.86833(7) 0.30596(7) 0.73972(9)
C115_5 C 0.80596(7) 0.36833(7) 0.76028(9)
H77_5 H 0.8768 0.3332 0.7392
H78_5 H 0.8332 0.3768 0.7608
C122_5 C 0.97669(8) 0.08240(8) 0.72540(10)
C126_5 C 0.58240(8) 0.47669(8) 0.77460(10)
H86_5 H 0.9965 0.0764 0.7058
H90_5 H 0.5764 0.4965 0.7942
N36_5 N 0.96994(6) 0.05476(6) 0.75551(8)
O1_20 O 1.0000 1.0000 0.83279(12)
O3_20 O 1.0000 1.0000 0.67380(16)
C14_5 C 0.89844(8) 0.92326(8) 0.78410(9)
C15_5 C 0.57674(8) 0.60156(8) 0.71590(9)
H11_5 H 0.8926 0.9052 0.8054
H12_5 H 0.5948 0.6074 0.6946
O6_5 O 0.79823(7) 0.93910(8) 0.70448(9)
O8_5 O 0.56090(8) 0.70177(7) 0.79552(9)
C24_5 C 0.88181(8) 0.95631(8) 0.72216(10)
C26_5 C 0.54369(8) 0.61819(8) 0.77784(10)
H21_5 H 0.8649 0.9605 0.6996
H23_5 H 0.5395 0.6351 0.8004
C36_5 C 0.70428(7) 0.82791(6) 0.74765(8)
C40_5 C 0.67209(6) 0.79572(7) 0.75235(8)
N24_5 N 0.83422(5) 0.90728(6) 0.75362(7)
N26_5 N 0.59272(6) 0.66578(5) 0.74638(7)
H32_5 H 0.8324 0.8886 0.7721
H35_5 H 0.6114 0.6676 0.7279
C46_5 C 0.87039(7) 0.92887(6) 0.75281(9)
C49_5 C 0.57113(6) 0.62961(7) 0.74719(9)
C57_5 C 0.93419(8) 0.94394(7) 0.78384(10)
C59_5 C 0.55606(7) 0.56581(8) 0.71616(10)
H44_5 H 0.9523 0.9394 0.8054
H45_5 H 0.5606 0.5477 0.6946
C68_5 C 0.72702(9) 0.89699(8) 0.73219(12)
C71_5 C 0.60301(8) 0.77298(9) 0.76781(12)
H54_5 H 0.7217 0.9241 0.7252
H56_5 H 0.5759 0.7783 0.7748
C79_5 C 0.76706(7) 0.88252(7) 0.73587(8)
C81_5 C 0.61748(7) 0.73294(7) 0.76413(8)
C90_5 C 0.77299(6) 0.84098(7) 0.74393(7)
C93_5 C 0.65902(7) 0.72701(6) 0.75607(7)
H65_5 H 0.7998 0.8315 0.7462
H67_5 H 0.6685 0.7002 0.7538
C101_5 C 0.80169(8) 0.91160(9) 0.72956(9)
C103_5 C 0.58840(9) 0.69831(8) 0.77044(9)
C112_5 C 0.69404(7) 0.86833(7) 0.73972(9)
C114_5 C 0.63167(7) 0.80596(7) 0.76028(9)
H76_5 H 0.6668 0.8768 0.7392
H79_5 H 0.6232 0.8332 0.7608
C123_5 C 0.91760(8) 0.97669(8) 0.72540(10)
C125_5 C 0.52331(8) 0.58240(8) 0.77460(10)
H87_5 H 0.9236 0.9965 0.7058
H89_5 H 0.5035 0.5764 0.7942
N35_5 N 0.94524(6) 0.96994(6) 0.75551(8)
H100_8 H 0.974854 0.986196 0.663658
H102_8 H 0.974854 0.986196 0.842932
H101_9 H 0.842932 0.0286788 0.999381
H100_9 H 0.663658 0.986196 0.0251459
H102_9 H 0.842932 0.986196 0.0251459
H99_9 H 0.663658 0.985125 0.975473
O1_21 O -0.0000 -0.0000 0.16721(12)
O3_21 O 0.0000 0.0000 0.32620(16)
O1_22 O 0.0000 1.0000 0.16721(12)
O3_22 O 0.0000 1.0000 0.32620(16)
H100_10 H 0.0251459 0.986196 0.336342
H102_10 H 0.0251459 0.986196 0.157068
O1_23 O 1.0000 -0.0000 0.16721(12)
O3_23 O 1.0000 0.0000 0.32620(16)
H101_10 H 0.999381 0.0286788 0.157068
O1_24 O 1.0000 1.0000 0.16721(12)
O3_24 O 1.0000 1.0000 0.32620(16)
O4_6 O 0.5000 0.5000 0.33279(12)
O16_6 O 0.5000 0.5000 0.17380(16)
H99_10 H 0.975473 0.985125 0.336342
H101_11 H 0.000618673 0.157068 0.0286788
H99_11 H 0.0245273 0.336342 0.985125
H100_11 H 0.974854 0.336342 0.986196
H102_11 H 0.974854 0.157068 0.986196
H101_12 H 0.0286788 0.000618673 0.157068
H99_12 H 0.985125 0.0245273 0.336342
H100_12 H 0.986196 0.974854 0.336342
H102_12 H 0.986196 0.974854 0.157068
H100_13 H 0.0138036 0.0251459 0.336342
H102_13 H 0.0138036 0.0251459 0.157068
H99_13 H 0.0148752 0.975473 0.336342
H101_13 H 0.971321 0.999381 0.157068
H99_14 H 0.0245273 0.663658 0.0148752
H101_14 H 0.000618673 0.842932 0.971321
H100_14 H 0.974854 0.663658 0.0138036
H102_14 H 0.974854 0.842932 0.0138036
H99_15 H 0.0148752 0.0245273 0.663658
H100_15 H 0.0138036 0.974854 0.663658
H102_15 H 0.0138036 0.974854 0.842932
H101_15 H 0.971321 0.000618673 0.842932
H100_16 H 0.0251459 0.663658 0.986196
H102_16 H 0.0251459 0.842932 0.986196
H101_16 H 0.999381 0.842932 0.0286788
H99_16 H 0.975473 0.663658 0.985125
H100_17 H 0.0251459 0.336342 0.0138036
H102_17 H 0.0251459 0.157068 0.0138036
H99_17 H 0.975473 0.336342 0.0148752
H101_17 H 0.999381 0.157068 0.971321
H101_18 H 0.0286788 0.999381 0.842932
H100_18 H 0.986196 0.0251459 0.663658
H102_18 H 0.986196 0.0251459 0.842932
H99_18 H 0.985125 0.975473 0.663658
H101_19 H 0.0286788 0.157068 0.999381
H100_19 H 0.986196 0.336342 0.0251459
H102_19 H 0.986196 0.157068 0.0251459
H99_19 H 0.985125 0.336342 0.975473
H100_20 H 0.0138036 0.663658 0.0251459
H102_20 H 0.0138036 0.842932 0.0251459
H99_20 H 0.0148752 0.663658 0.975473
H101_20 H 0.971321 0.842932 0.999381
H101_21 H 0.842932 0.000618673 0.0286788
H99_21 H 0.663658 0.0245273 0.985125
H100_21 H 0.663658 0.974854 0.986196
H102_21 H 0.842932 0.974854 0.986196
H100_22 H 0.663658 0.0251459 0.0138036
H102_22 H 0.842932 0.0251459 0.0138036
H99_22 H 0.663658 0.975473 0.0148752
H101_22 H 0.842932 0.999381 0.971321
H99_23 H 0.0245273 0.0148752 0.336342
H101_23 H 0.000618673 0.971321 0.157068
H100_23 H 0.974854 0.0138036 0.336342
H102_23 H 0.974854 0.0138036 0.157068
H100_24 H 0.0251459 0.0138036 0.663658
H102_24 H 0.0251459 0.0138036 0.842932
H99_24 H 0.975473 0.0148752 0.663658
H101_24 H 0.999381 0.971321 0.842932
N48 N 0.16667(5) 0.16667(5) 0.16667(5)
O17 O 0.17063(5) 0.13891(6) 0.19341(6)
O18 O 0.19341(6) 0.17063(5) 0.13891(6)
O19 O 0.13891(6) 0.19341(6) 0.17063(5)
N48_2 N 0.83333(5) 0.16667(5) 0.16667(5)
O17_2 O 0.86109(6) 0.17063(5) 0.19341(6)
O18_2 O 0.82937(5) 0.19341(6) 0.13891(6)
O19_2 O 0.80659(6) 0.13891(6) 0.17063(5)
N48_3 N 0.83333(5) 0.83333(5) 0.16667(5)
O17_3 O 0.82937(5) 0.86109(6) 0.19341(6)
O18_3 O 0.80659(6) 0.82937(5) 0.13891(6)
O19_3 O 0.86109(6) 0.80659(6) 0.17063(5)
N48_4 N 0.16667(5) 0.83333(5) 0.16667(5)
O17_4 O 0.13891(6) 0.82937(5) 0.19341(6)
O18_4 O 0.17063(5) 0.80659(6) 0.13891(6)
O19_4 O 0.19341(6) 0.86109(6) 0.17063(5)
N48_5 N 0.16667(5) 0.83333(5) 0.83333(5)
O17_5 O 0.17063(5) 0.86109(6) 0.80659(6)
O18_5 O 0.19341(6) 0.82937(5) 0.86109(6)
O19_5 O 0.13891(6) 0.80659(6) 0.82937(5)
N48_6 N 0.16667(5) 0.16667(5) 0.83333(5)
O17_6 O 0.17063(5) 0.19341(6) 0.86109(6)
O18_6 O 0.19341(6) 0.13891(6) 0.82937(5)
O19_6 O 0.13891(6) 0.17063(5) 0.80659(6)
N48_7 N 0.83333(5) 0.16667(5) 0.83333(5)
O17_7 O 0.82937(5) 0.13891(6) 0.80659(6)
O18_7 O 0.80659(6) 0.17063(5) 0.86109(6)
O19_7 O 0.86109(6) 0.19341(6) 0.82937(5)
N48_8 N 0.83333(5) 0.83333(5) 0.83333(5)
O17_8 O 0.86109(6) 0.82937(5) 0.80659(6)
O18_8 O 0.82937(5) 0.80659(6) 0.86109(6)
O19_8 O 0.80659(6) 0.86109(6) 0.82937(5)
N48_9 N 0.66667(5) 0.66667(5) 0.66667(5)
O17_9 O 0.67063(5) 0.63891(6) 0.69341(6)
O18_9 O 0.69341(6) 0.67063(5) 0.63891(6)
O19_9 O 0.63891(6) 0.69341(6) 0.67063(5)
N48_10 N 0.33333(5) 0.66667(5) 0.66667(5)
O17_10 O 0.36109(6) 0.67063(5) 0.69341(6)
O18_10 O 0.32937(5) 0.69341(6) 0.63891(6)
O19_10 O 0.30659(6) 0.63891(6) 0.67063(5)
N48_11 N 0.33333(5) 0.33333(5) 0.66667(5)
O17_11 O 0.32937(5) 0.36109(6) 0.69341(6)
O18_11 O 0.30659(6) 0.32937(5) 0.63891(6)
O19_11 O 0.36109(6) 0.30659(6) 0.67063(5)
N48_12 N 0.66667(5) 0.33333(5) 0.66667(5)
O17_12 O 0.63891(6) 0.32937(5) 0.69341(6)
O18_12 O 0.67063(5) 0.30659(6) 0.63891(6)
O19_12 O 0.69341(6) 0.36109(6) 0.67063(5)
N48_13 N 0.66667(5) 0.33333(5) 0.33333(5)
O17_13 O 0.67063(5) 0.36109(6) 0.30659(6)
O18_13 O 0.69341(6) 0.32937(5) 0.36109(6)
O19_13 O 0.63891(6) 0.30659(6) 0.32937(5)
N48_14 N 0.66667(5) 0.66667(5) 0.33333(5)
O17_14 O 0.67063(5) 0.69341(6) 0.36109(6)
O18_14 O 0.69341(6) 0.63891(6) 0.32937(5)
O19_14 O 0.63891(6) 0.67063(5) 0.30659(6)
N48_15 N 0.33333(5) 0.66667(5) 0.33333(5)
O17_15 O 0.32937(5) 0.63891(6) 0.30659(6)
O18_15 O 0.30659(6) 0.67063(5) 0.36109(6)
O19_15 O 0.36109(6) 0.69341(6) 0.32937(5)
N48_16 N 0.33333(5) 0.33333(5) 0.33333(5)
O17_16 O 0.36109(6) 0.32937(5) 0.30659(6)
O18_16 O 0.32937(5) 0.30659(6) 0.36109(6)
O19_16 O 0.30659(6) 0.36109(6) 0.32937(5)
loop_
_geom_bond_atom_site_label_1
_geom_bond_atom_site_label_2
_geom_bond_site_symmetry_1
_geom_bond_site_symmetry_2
Fe1 N1 1_555 1_555
Cu1 O1 1_555 1_555
N1 C3 1_555 1_555
C1 H1 1_555 1_555
O2 C9 1_555 1_555
C2 H2 1_555 1_555
C3 C10 1_555 1_555
N2 H3 1_555 1_555
C4 C1 1_555 1_555
C5 C1 1_555 1_555
H4 C5 1_555 1_555
C6 H5 1_555 1_555
C7 C6 1_555 1_555
C8 N1 1_555 1_555
H6 C8 1_555 1_555
C9 N2 1_555 1_555
C10 C6 1_555 1_555
H7 C10 1_555 1_555
C11 C2 1_555 1_555
H8 C11 1_555 1_555
N3 Cu1 1_555 1_555
O3 Cu1 1_555 1_555
Cu5 N40 1_555 1_555
Cu6 N41 1_555 1_555
Cu7 N42 1_555 1_555
Cu8 N43 1_555 1_555
Cu9 N44 1_555 1_555
N4 Fe1 1_555 1_555
N5 Fe1 1_555 1_555
N6 Fe1 1_555 1_555
N7 Fe1 1_555 1_555
N8 Fe1 1_555 1_555
C18 H15 1_555 1_555
C19 H16 1_555 1_555
C20 H17 1_555 1_555
C21 H18 1_555 1_555
C22 H19 1_555 1_555
O11 C106 1_555 1_555
O12 C109 1_555 1_555
O13 C108 1_555 1_555
O14 C107 1_555 1_555
O15 C110 1_555 1_555
C29 H26 1_555 1_555
C30 H27 1_555 1_555
C31 H28 1_555 1_555
C32 H29 1_555 1_555
C33 H30 1_555 1_555
C34 C3 1_555 1_555
C41 N8 1_555 1_555
C42 N6 1_555 1_555
C43 N4 1_555 1_555
C44 N5 1_555 1_555
N29 H37 1_555 1_555
N30 H39 1_555 1_555
N31 H40 1_555 1_555
N32 H38 1_555 1_555
N33 H41 1_555 1_555
C51 C18 1_555 1_555
C52 C19 1_555 1_555
C53 C20 1_555 1_555
C54 C21 1_555 1_555
C55 C22 1_555 1_555
C62 C18 1_555 1_555
C63 C19 1_555 1_555
C64 C20 1_555 1_555
C65 C21 1_555 1_555
C66 C22 1_555 1_555
H48 C62 1_555 1_555
H49 C63 1_555 1_555
H50 C64 1_555 1_555
H51 C65 1_555 1_555
H52 C66 1_555 1_555
C73 H59 1_555 1_555
C74 H62 1_555 1_555
C75 H61 1_555 1_555
C76 H60 1_555 1_555
C77 H63 1_555 1_555
C84 C73 1_555 1_555
C85 C74 1_555 1_555
C86 C75 1_555 1_555
C87 C76 1_555 1_555
C88 C77 1_555 1_555
C95 N7 1_555 1_555
C96 N8 1_555 1_555
C97 N6 1_555 1_555
C98 N4 1_555 1_555
C99 N5 1_555 1_555
H70 C95 1_555 1_555
H71 C96 1_555 1_555
H72 C97 1_555 1_555
H73 C98 1_555 1_555
H74 C99 1_555 1_555
C106 N29 1_555 1_555
C107 N32 1_555 1_555
C108 N31 1_555 1_555
C109 N30 1_555 1_555
C110 N33 1_555 1_555
C117 C34 1_555 1_555
C118 C41 1_555 1_555
C119 C42 1_555 1_555
C120 C43 1_555 1_555
C121 C44 1_555 1_555
H81 C117 1_555 1_555
H82 C118 1_555 1_555
H83 C119 1_555 1_555
H84 C120 1_555 1_555
H85 C121 1_555 1_555
C128 C29 1_555 1_555
C129 C30 1_555 1_555
C130 C31 1_555 1_555
C131 C32 1_555 1_555
C132 C33 1_555 1_555
H92 C128 1_555 1_555
H93 C129 1_555 1_555
H94 C130 1_555 1_555
H95 C131 1_555 1_555
H96 C132 1_555 1_555
N40 C62 1_555 1_555
N41 C63 1_555 1_555
N42 C64 1_555 1_555
N43 C65 1_555 1_555
N44 C66 1_555 1_555
C2 C4 1_555 1_555
N2 C4 1_555 1_555
C5 N3 1_555 1_555
C7 C8 1_555 1_555
C7 C9 1_555 1_555
C11 N3 1_555 1_555
N7 C34 1_555 1_555
C29 C51 1_555 1_555
C30 C52 1_555 1_555
C31 C53 1_555 1_555
C32 C54 1_555 1_555
C33 C55 1_555 1_555
C41 C44 1_555 1_555
C42 C43 1_555 1_555
N29 C51 1_555 1_555
N30 C53 1_555 1_555
N31 C54 1_555 1_555
N32 C52 1_555 1_555
N33 C55 1_555 1_555
C73 C117 1_555 1_555
C74 C118 1_555 1_555
C75 C119 1_555 1_555
C76 C120 1_555 1_555
C77 C121 1_555 1_555
C84 C95 1_555 1_555
C84 C106 1_555 1_555
C85 C96 1_555 1_555
C85 C107 1_555 1_555
C86 C97 1_555 1_555
C86 C109 1_555 1_555
C87 C98 1_555 1_555
C87 C108 1_555 1_555
C88 C99 1_555 1_555
C88 C110 1_555 1_555
C128 N40 1_555 1_555
C129 N41 1_555 1_555
C130 N42 1_555 1_555
C131 N43 1_555 1_555
C132 N44 1_555 1_555
O1 H101 1_555 1_555
Cu1_2 O1_2 1_555 1_555
O3_2 Cu1_2 1_555 1_555
Fe4 N11 1_555 1_555
Cu5 N38 1_555 1_555
N11 C37 1_555 1_555
N17 Fe4 1_555 1_555
N18 Fe4 1_555 1_555
N19 Fe4 1_555 1_555
N20 Fe4 1_555 1_555
N21 Fe4 1_555 1_555
C12 H10 1_555 1_555
C16 H13 1_555 1_555
O7 C102 1_555 1_555
O9 C104 1_555 1_555
C23 H22 1_555 1_555
C27 H24 1_555 1_555
C37 C38 1_555 1_555
C38 N19 1_555 1_555
N25 H33 1_555 1_555
N27 H34 1_555 1_555
C47 C12 1_555 1_555
C48 C16 1_555 1_555
C56 C12 1_555 1_555
C60 C16 1_555 1_555
H42 C56 1_555 1_555
H46 C60 1_555 1_555
C69 H55 1_555 1_555
C70 H57 1_555 1_555
C80 C69 1_555 1_555
C82 C70 1_555 1_555
C91 N11 1_555 1_555
C92 N19 1_555 1_555
H66 C91 1_555 1_555
H68 C92 1_555 1_555
C102 N25 1_555 1_555
C104 N27 1_555 1_555
C113 C37 1_555 1_555
C115 C38 1_555 1_555
H77 C113 1_555 1_555
H78 C115 1_555 1_555
C122 C23 1_555 1_555
C126 C27 1_555 1_555
H86 C122 1_555 1_555
H90 C126 1_555 1_555
N36 Cu1_2 1_555 1_555
N38 C60 1_555 1_555
C23 C47 1_555 1_555
C27 C48 1_555 1_555
N25 C47 1_555 1_555
N27 C48 1_555 1_555
C56 N36 1_555 1_555
C69 C113 1_555 1_555
C70 C115 1_555 1_555
C80 C91 1_555 1_555
C80 C102 1_555 1_555
C82 C92 1_555 1_555
C82 C104 1_555 1_555
C122 N36 1_555 1_555
C126 N38 1_555 1_555
Cu1_3 O1_3 1_555 1_555
O3_3 Cu1_3 1_555 1_555
Fe2 N9 1_555 1_555
Cu5 O4 1_555 1_555
N9 C35 1_555 1_555
N22 Fe2 1_555 1_555
C13 H9 1_555 1_555
C17 H14 1_555 1_555
O5 C100 1_555 1_555
O10 C105 1_555 1_555
C25 H20 1_555 1_555
C28 H25 1_555 1_555
C35 C39 1_555 1_555
C39 N22 1_555 1_555
N23 H31 1_555 1_555
N28 H36 1_555 1_555
C45 C13 1_555 1_555
C50 C17 1_555 1_555
C58 C13 1_555 1_555
C61 C17 1_555 1_555
H43 C58 1_555 1_555
H47 C61 1_555 1_555
C67 H53 1_555 1_555
C72 H58 1_555 1_555
C78 C67 1_555 1_555
C83 C72 1_555 1_555
C89 N9 1_555 1_555
C94 N22 1_555 1_555
H64 C89 1_555 1_555
H69 C94 1_555 1_555
C100 N23 1_555 1_555
C105 N28 1_555 1_555
C111 C35 1_555 1_555
C116 C39 1_555 1_555
H75 C111 1_555 1_555
H80 C116 1_555 1_555
C124 C25 1_555 1_555
C127 C28 1_555 1_555
H88 C124 1_555 1_555
H91 C127 1_555 1_555
N34 Cu1_3 1_555 1_555
N39 Cu5 1_555 1_555
N46 Cu5 1_555 1_555
O16 Cu5 1_555 1_555
C25 C45 1_555 1_555
C28 C50 1_555 1_555
N23 C45 1_555 1_555
N28 C50 1_555 1_555
C58 N34 1_555 1_555
C61 N39 1_555 1_555
C67 C111 1_555 1_555
C72 C116 1_555 1_555
C78 C89 1_555 1_555
C78 C100 1_555 1_555
C83 C94 1_555 1_555
C83 C105 1_555 1_555
C124 N34 1_555 1_555
C127 N39 1_555 1_555
O3_3 H99 1_555 1_555
Cu1_4 O1_4 1_555 1_555
O3_4 Cu1_4 1_555 1_555
Fe3 N10 1_555 1_555
N10 C36 1_555 1_555
N12 Fe3 1_555 1_555
N13 Fe3 1_555 1_555
N14 Fe3 1_555 1_555
N15 Fe3 1_555 1_555
N16 Fe3 1_555 1_555
C14 H11 1_555 1_555
C15 H12 1_555 1_555
O6 C101 1_555 1_555
O8 C103 1_555 1_555
C24 H21 1_555 1_555
C26 H23 1_555 1_555
C36 C40 1_555 1_555
C40 N16 1_555 1_555
N24 H32 1_555 1_555
N26 H35 1_555 1_555
C46 C14 1_555 1_555
C49 C15 1_555 1_555
C57 C14 1_555 1_555
C59 C15 1_555 1_555
H44 C57 1_555 1_555
H45 C59 1_555 1_555
C68 H54 1_555 1_555
C71 H56 1_555 1_555
C79 C68 1_555 1_555
C81 C71 1_555 1_555
C90 N10 1_555 1_555
C93 N16 1_555 1_555
H65 C90 1_555 1_555
H67 C93 1_555 1_555
C101 N24 1_555 1_555
C103 N26 1_555 1_555
C112 C36 1_555 1_555
C114 C40 1_555 1_555
H76 C112 1_555 1_555
H79 C114 1_555 1_555
C123 C24 1_555 1_555
C125 C26 1_555 1_555
H87 C123 1_555 1_555
H89 C125 1_555 1_555
N35 Cu1_4 1_555 1_555
N46 C59 1_555 1_555
C24 C46 1_555 1_555
C26 C49 1_555 1_555
N24 C46 1_555 1_555
N26 C49 1_555 1_555
C57 N35 1_555 1_555
C68 C112 1_555 1_555
C71 C114 1_555 1_555
C79 C90 1_555 1_555
C79 C101 1_555 1_555
C81 C93 1_555 1_555
C81 C103 1_555 1_555
C123 N35 1_555 1_555
C125 N46 1_555 1_555
O3_4 H100 1_555 1_555
O1_4 H102 1_555 1_555
Cu8 O1_5 1_555 1_555
O3_5 Cu8 1_555 1_555
Cu7 O4_2 1_555 1_555
N45 Cu7 1_555 1_555
N46_2 Cu7 1_555 1_555
N47 Cu7 1_555 1_555
O16_2 Cu7 1_555 1_555
O3_5 H99_2 1_555 1_555
Cu8_2 O1_6 1_555 1_555
O3_6 Cu8_2 1_555 1_555
N18 C36_2 1_555 1_555
C14_2 H11_2 1_555 1_555
C15_2 H12_2 1_555 1_555
O6_2 C101_2 1_555 1_555
O8_2 C103_2 1_555 1_555
C24_2 H21_2 1_555 1_555
C26_2 H23_2 1_555 1_555
C36_2 C40_2 1_555 1_555
C40_2 N21 1_555 1_555
N24_2 H32_2 1_555 1_555
N26_2 H35_2 1_555 1_555
C46_2 C14_2 1_555 1_555
C49_2 C15_2 1_555 1_555
C57_2 C14_2 1_555 1_555
C59_2 C15_2 1_555 1_555
H44_2 C57_2 1_555 1_555
H45_2 C59_2 1_555 1_555
C68_2 H54_2 1_555 1_555
C71_2 H56_2 1_555 1_555
C79_2 C68_2 1_555 1_555
C81_2 C71_2 1_555 1_555
C90_2 N18 1_555 1_555
C93_2 N21 1_555 1_555
H65_2 C90_2 1_555 1_555
H67_2 C93_2 1_555 1_555
C101_2 N24_2 1_555 1_555
C103_2 N26_2 1_555 1_555
C112_2 C36_2 1_555 1_555
C114_2 C40_2 1_555 1_555
H76_2 C112_2 1_555 1_555
H79_2 C114_2 1_555 1_555
C123_2 C24_2 1_555 1_555
C125_2 C26_2 1_555 1_555
H87_2 C123_2 1_555 1_555
H89_2 C125_2 1_555 1_555
N35_2 Cu8_2 1_555 1_555
N46_2 C59_2 1_555 1_555
C24_2 C46_2 1_555 1_555
C26_2 C49_2 1_555 1_555
N24_2 C46_2 1_555 1_555
N26_2 C49_2 1_555 1_555
C57_2 N35_2 1_555 1_555
C68_2 C112_2 1_555 1_555
C71_2 C114_2 1_555 1_555
C79_2 C90_2 1_555 1_555
C79_2 C101_2 1_555 1_555
C81_2 C93_2 1_555 1_555
C81_2 C103_2 1_555 1_555
C123_2 N35_2 1_555 1_555
C125_2 N46_2 1_555 1_555
O3_6 H100_2 1_555 1_555
O1_6 H102_2 1_555 1_555
Fe1_2 N1_2 1_555 1_555
Cu8_3 O1_7 1_555 1_555
N1_2 C3_2 1_555 1_555
C1_2 H1_2 1_555 1_555
O2_2 C9_2 1_555 1_555
C2_2 H2_2 1_555 1_555
C3_2 C10_2 1_555 1_555
N2_2 H3_2 1_555 1_555
C4_2 C1_2 1_555 1_555
C5_2 C1_2 1_555 1_555
H4_2 C5_2 1_555 1_555
C6_2 H5_2 1_555 1_555
C7_2 C6_2 1_555 1_555
C8_2 N1_2 1_555 1_555
H6_2 C8_2 1_555 1_555
C9_2 N2_2 1_555 1_555
C10_2 C6_2 1_555 1_555
H7_2 C10_2 1_555 1_555
C11_2 C2_2 1_555 1_555
H8_2 C11_2 1_555 1_555
N3_2 Cu8_3 1_555 1_555
O3_7 Cu8_3 1_555 1_555
Cu6 N41_2 1_555 1_555
Cu7_2 N42_2 1_555 1_555
Cu8_5 N43_2 1_555 1_555
Cu9_3 N44_2 1_555 1_555
N4_2 Fe1_2 1_555 1_555
N5_2 Fe1_2 1_555 1_555
N6_2 Fe1_2 1_555 1_555
N7_2 Fe1_2 1_555 1_555
N8_2 Fe1_2 1_555 1_555
C18_2 H15_2 1_555 1_555
C19_2 H16_2 1_555 1_555
C20_2 H17_2 1_555 1_555
C21_2 H18_2 1_555 1_555
C22_2 H19_2 1_555 1_555
O11_2 C106_2 1_555 1_555
O12_2 C109_2 1_555 1_555
O13_2 C108_2 1_555 1_555
O14_2 C107_2 1_555 1_555
O15_2 C110_2 1_555 1_555
C29_2 H26_2 1_555 1_555
C30_2 H27_2 1_555 1_555
C31_2 H28_2 1_555 1_555
C32_2 H29_2 1_555 1_555
C33_2 H30_2 1_555 1_555
C34_2 C3_2 1_555 1_555
C41_2 N8_2 1_555 1_555
C42_2 N6_2 1_555 1_555
C43_2 N4_2 1_555 1_555
C44_2 N5_2 1_555 1_555
N29_2 H37_2 1_555 1_555
N30_2 H39_2 1_555 1_555
N31_2 H40_2 1_555 1_555
N32_2 H38_2 1_555 1_555
N33_2 H41_2 1_555 1_555
C51_2 C18_2 1_555 1_555
C52_2 C19_2 1_555 1_555
C53_2 C20_2 1_555 1_555
C54_2 C21_2 1_555 1_555
C55_2 C22_2 1_555 1_555
C62_2 C18_2 1_555 1_555
C63_2 C19_2 1_555 1_555
C64_2 C20_2 1_555 1_555
C65_2 C21_2 1_555 1_555
C66_2 C22_2 1_555 1_555
H48_2 C62_2 1_555 1_555
H49_2 C63_2 1_555 1_555
H50_2 C64_2 1_555 1_555
H51_2 C65_2 1_555 1_555
H52_2 C66_2 1_555 1_555
C73_2 H59_2 1_555 1_555
C74_2 H62_2 1_555 1_555
C75_2 H61_2 1_555 1_555
C76_2 H60_2 1_555 1_555
C77_2 H63_2 1_555 1_555
C84_2 C73_2 1_555 1_555
C85_2 C74_2 1_555 1_555
C86_2 C75_2 1_555 1_555
C87_2 C76_2 1_555 1_555
C88_2 C77_2 1_555 1_555
C95_2 N7_2 1_555 1_555
C96_2 N8_2 1_555 1_555
C97_2 N6_2 1_555 1_555
C98_2 N4_2 1_555 1_555
C99_2 N5_2 1_555 1_555
H70_2 C95_2 1_555 1_555
H71_2 C96_2 1_555 1_555
H72_2 C97_2 1_555 1_555
H73_2 C98_2 1_555 1_555
H74_2 C99_2 1_555 1_555
C106_2 N29_2 1_555 1_555
C107_2 N32_2 1_555 1_555
C108_2 N31_2 1_555 1_555
C109_2 N30_2 1_555 1_555
C110_2 N33_2 1_555 1_555
C117_2 C34_2 1_555 1_555
C118_2 C41_2 1_555 1_555
C119_2 C42_2 1_555 1_555
C120_2 C43_2 1_555 1_555
C121_2 C44_2 1_555 1_555
H81_2 C117_2 1_555 1_555
H82_2 C118_2 1_555 1_555
H83_2 C119_2 1_555 1_555
H84_2 C120_2 1_555 1_555
H85_2 C121_2 1_555 1_555
C128_2 C29_2 1_555 1_555
C129_2 C30_2 1_555 1_555
C130_2 C31_2 1_555 1_555
C131_2 C32_2 1_555 1_555
C132_2 C33_2 1_555 1_555
H92_2 C128_2 1_555 1_555
H93_2 C129_2 1_555 1_555
H94_2 C130_2 1_555 1_555
H95_2 C131_2 1_555 1_555
H96_2 C132_2 1_555 1_555
N47 C62_2 1_555 1_555
N41_2 C63_2 1_555 1_555
N42_2 C64_2 1_555 1_555
N43_2 C65_2 1_555 1_555
N44_2 C66_2 1_555 1_555
C2_2 C4_2 1_555 1_555
N2_2 C4_2 1_555 1_555
C5_2 N3_2 1_555 1_555
C7_2 C8_2 1_555 1_555
C7_2 C9_2 1_555 1_555
C11_2 N3_2 1_555 1_555
N7_2 C34_2 1_555 1_555
C29_2 C51_2 1_555 1_555
C30_2 C52_2 1_555 1_555
C31_2 C53_2 1_555 1_555
C32_2 C54_2 1_555 1_555
C33_2 C55_2 1_555 1_555
C41_2 C44_2 1_555 1_555
C42_2 C43_2 1_555 1_555
N29_2 C51_2 1_555 1_555
N30_2 C53_2 1_555 1_555
N31_2 C54_2 1_555 1_555
N32_2 C52_2 1_555 1_555
N33_2 C55_2 1_555 1_555
C73_2 C117_2 1_555 1_555
C74_2 C118_2 1_555 1_555
C75_2 C119_2 1_555 1_555
C76_2 C120_2 1_555 1_555
C77_2 C121_2 1_555 1_555
C84_2 C95_2 1_555 1_555
C84_2 C106_2 1_555 1_555
C85_2 C96_2 1_555 1_555
C85_2 C107_2 1_555 1_555
C86_2 C97_2 1_555 1_555
C86_2 C109_2 1_555 1_555
C87_2 C98_2 1_555 1_555
C87_2 C108_2 1_555 1_555
C88_2 C99_2 1_555 1_555
C88_2 C110_2 1_555 1_555
C128_2 N47 1_555 1_555
C129_2 N41_2 1_555 1_555
C130_2 N42_2 1_555 1_555
C131_2 N43_2 1_555 1_555
C132_2 N44_2 1_555 1_555
O1_7 H101_2 1_555 1_555
Cu8_4 O1_8 1_555 1_555
O3_8 Cu8_4 1_555 1_555
Fe4_2 N11_2 1_555 1_555
N11_2 C37_2 1_555 1_555
N17_2 Fe4_2 1_555 1_555
N18_2 Fe4_2 1_555 1_555
N19_2 Fe4_2 1_555 1_555
N20_2 Fe4_2 1_555 1_555
N21_2 Fe4_2 1_555 1_555
C12_2 H10_2 1_555 1_555
C16_2 H13_2 1_555 1_555
O7_2 C102_2 1_555 1_555
O9_2 C104_2 1_555 1_555
C23_2 H22_2 1_555 1_555
C27_2 H24_2 1_555 1_555
C37_2 C38_2 1_555 1_555
C38_2 N19_2 1_555 1_555
N25_2 H33_2 1_555 1_555
N27_2 H34_2 1_555 1_555
C47_2 C12_2 1_555 1_555
C48_2 C16_2 1_555 1_555
C56_2 C12_2 1_555 1_555
C60_2 C16_2 1_555 1_555
H42_2 C56_2 1_555 1_555
H46_2 C60_2 1_555 1_555
C69_2 H55_2 1_555 1_555
C70_2 H57_2 1_555 1_555
C80_2 C69_2 1_555 1_555
C82_2 C70_2 1_555 1_555
C91_2 N11_2 1_555 1_555
C92_2 N19_2 1_555 1_555
H66_2 C91_2 1_555 1_555
H68_2 C92_2 1_555 1_555
C102_2 N25_2 1_555 1_555
C104_2 N27_2 1_555 1_555
C113_2 C37_2 1_555 1_555
C115_2 C38_2 1_555 1_555
H77_2 C113_2 1_555 1_555
H78_2 C115_2 1_555 1_555
C122_2 C23_2 1_555 1_555
C126_2 C27_2 1_555 1_555
H86_2 C122_2 1_555 1_555
H90_2 C126_2 1_555 1_555
N36_2 Cu8_4 1_555 1_555
N45 C60_2 1_555 1_555
C23_2 C47_2 1_555 1_555
C27_2 C48_2 1_555 1_555
N25_2 C47_2 1_555 1_555
N27_2 C48_2 1_555 1_555
C56_2 N36_2 1_555 1_555
C69_2 C113_2 1_555 1_555
C70_2 C115_2 1_555 1_555
C80_2 C91_2 1_555 1_555
C80_2 C102_2 1_555 1_555
C82_2 C92_2 1_555 1_555
C82_2 C104_2 1_555 1_555
C122_2 N36_2 1_555 1_555
C126_2 N45 1_555 1_555
Cu8_5 O1_9 1_555 1_555
O3_9 Cu8_5 1_555 1_555
Cu7_2 O4_3 1_555 1_555
N45_2 Cu7_2 1_555 1_555
N46_3 Cu7_2 1_555 1_555
N47_2 Cu7_2 1_555 1_555
O16_3 Cu7_2 1_555 1_555
O3_9 H99_3 1_555 1_555
Cu8_6 O1_10 1_555 1_555
O3_10 Cu8_6 1_555 1_555
N18_2 C36_3 1_555 1_555
C14_3 H11_3 1_555 1_555
C15_3 H12_3 1_555 1_555
O6_3 C101_3 1_555 1_555
O8_3 C103_3 1_555 1_555
C24_3 H21_3 1_555 1_555
C26_3 H23_3 1_555 1_555
C36_3 C40_3 1_555 1_555
C40_3 N21_2 1_555 1_555
N24_3 H32_3 1_555 1_555
N26_3 H35_3 1_555 1_555
C46_3 C14_3 1_555 1_555
C49_3 C15_3 1_555 1_555
C57_3 C14_3 1_555 1_555
C59_3 C15_3 1_555 1_555
H44_3 C57_3 1_555 1_555
H45_3 C59_3 1_555 1_555
C68_3 H54_3 1_555 1_555
C71_3 H56_3 1_555 1_555
C79_3 C68_3 1_555 1_555
C81_3 C71_3 1_555 1_555
C90_3 N18_2 1_555 1_555
C93_3 N21_2 1_555 1_555
H65_3 C90_3 1_555 1_555
H67_3 C93_3 1_555 1_555
C101_3 N24_3 1_555 1_555
C103_3 N26_3 1_555 1_555
C112_3 C36_3 1_555 1_555
C114_3 C40_3 1_555 1_555
H76_3 C112_3 1_555 1_555
H79_3 C114_3 1_555 1_555
C123_3 C24_3 1_555 1_555
C125_3 C26_3 1_555 1_555
H87_3 C123_3 1_555 1_555
H89_3 C125_3 1_555 1_555
N35_3 Cu8_6 1_555 1_555
N46_3 C59_3 1_555 1_555
C24_3 C46_3 1_555 1_555
C26_3 C49_3 1_555 1_555
N24_3 C46_3 1_555 1_555
N26_3 C49_3 1_555 1_555
C57_3 N35_3 1_555 1_555
C68_3 C112_3 1_555 1_555
C71_3 C114_3 1_555 1_555
C79_3 C90_3 1_555 1_555
C79_3 C101_3 1_555 1_555
C81_3 C93_3 1_555 1_555
C81_3 C103_3 1_555 1_555
C123_3 N35_3 1_555 1_555
C125_3 N46_3 1_555 1_555
O3_10 H100_3 1_555 1_555
O1_10 H102_3 1_555 1_555
Fe1_3 N1_3 1_555 1_555
Cu8_7 O1_11 1_555 1_555
N1_3 C3_3 1_555 1_555
C1_3 H1_3 1_555 1_555
O2_3 C9_3 1_555 1_555
C2_3 H2_3 1_555 1_555
C3_3 C10_3 1_555 1_555
N2_3 H3_3 1_555 1_555
C4_3 C1_3 1_555 1_555
C5_3 C1_3 1_555 1_555
H4_3 C5_3 1_555 1_555
C6_3 H5_3 1_555 1_555
C7_3 C6_3 1_555 1_555
C8_3 N1_3 1_555 1_555
H6_3 C8_3 1_555 1_555
C9_3 N2_3 1_555 1_555
C10_3 C6_3 1_555 1_555
H7_3 C10_3 1_555 1_555
C11_3 C2_3 1_555 1_555
H8_3 C11_3 1_555 1_555
N3_3 Cu8_7 1_555 1_555
O3_11 Cu8_7 1_555 1_555
Cu6 N41_3 1_555 1_555
Cu7_3 N42_3 1_555 1_555
Cu8_11 N43_3 1_555 1_555
Cu9_4 N44_3 1_555 1_555
N4_3 Fe1_3 1_555 1_555
N5_3 Fe1_3 1_555 1_555
N6_3 Fe1_3 1_555 1_555
N7_3 Fe1_3 1_555 1_555
N8_3 Fe1_3 1_555 1_555
C18_3 H15_3 1_555 1_555
C19_3 H16_3 1_555 1_555
C20_3 H17_3 1_555 1_555
C21_3 H18_3 1_555 1_555
C22_3 H19_3 1_555 1_555
O11_3 C106_3 1_555 1_555
O12_3 C109_3 1_555 1_555
O13_3 C108_3 1_555 1_555
O14_3 C107_3 1_555 1_555
O15_3 C110_3 1_555 1_555
C29_3 H26_3 1_555 1_555
C30_3 H27_3 1_555 1_555
C31_3 H28_3 1_555 1_555
C32_3 H29_3 1_555 1_555
C33_3 H30_3 1_555 1_555
C34_3 C3_3 1_555 1_555
C41_3 N8_3 1_555 1_555
C42_3 N6_3 1_555 1_555
C43_3 N4_3 1_555 1_555
C44_3 N5_3 1_555 1_555
N29_3 H37_3 1_555 1_555
N30_3 H39_3 1_555 1_555
N31_3 H40_3 1_555 1_555
N32_3 H38_3 1_555 1_555
N33_3 H41_3 1_555 1_555
C51_3 C18_3 1_555 1_555
C52_3 C19_3 1_555 1_555
C53_3 C20_3 1_555 1_555
C54_3 C21_3 1_555 1_555
C55_3 C22_3 1_555 1_555
C62_3 C18_3 1_555 1_555
C63_3 C19_3 1_555 1_555
C64_3 C20_3 1_555 1_555
C65_3 C21_3 1_555 1_555
C66_3 C22_3 1_555 1_555
H48_3 C62_3 1_555 1_555
H49_3 C63_3 1_555 1_555
H50_3 C64_3 1_555 1_555
H51_3 C65_3 1_555 1_555
H52_3 C66_3 1_555 1_555
C73_3 H59_3 1_555 1_555
C74_3 H62_3 1_555 1_555
C75_3 H61_3 1_555 1_555
C76_3 H60_3 1_555 1_555
C77_3 H63_3 1_555 1_555
C84_3 C73_3 1_555 1_555
C85_3 C74_3 1_555 1_555
C86_3 C75_3 1_555 1_555
C87_3 C76_3 1_555 1_555
C88_3 C77_3 1_555 1_555
C95_3 N7_3 1_555 1_555
C96_3 N8_3 1_555 1_555
C97_3 N6_3 1_555 1_555
C98_3 N4_3 1_555 1_555
C99_3 N5_3 1_555 1_555
H70_3 C95_3 1_555 1_555
H71_3 C96_3 1_555 1_555
H72_3 C97_3 1_555 1_555
H73_3 C98_3 1_555 1_555
H74_3 C99_3 1_555 1_555
C106_3 N29_3 1_555 1_555
C107_3 N32_3 1_555 1_555
C108_3 N31_3 1_555 1_555
C109_3 N30_3 1_555 1_555
C110_3 N33_3 1_555 1_555
C117_3 C34_3 1_555 1_555
C118_3 C41_3 1_555 1_555
C119_3 C42_3 1_555 1_555
C120_3 C43_3 1_555 1_555
C121_3 C44_3 1_555 1_555
H81_3 C117_3 1_555 1_555
H82_3 C118_3 1_555 1_555
H83_3 C119_3 1_555 1_555
H84_3 C120_3 1_555 1_555
H85_3 C121_3 1_555 1_555
C128_3 C29_3 1_555 1_555
C129_3 C30_3 1_555 1_555
C130_3 C31_3 1_555 1_555
C131_3 C32_3 1_555 1_555
C132_3 C33_3 1_555 1_555
H92_3 C128_3 1_555 1_555
H93_3 C129_3 1_555 1_555
H94_3 C130_3 1_555 1_555
H95_3 C131_3 1_555 1_555
H96_3 C132_3 1_555 1_555
N47_2 C62_3 1_555 1_555
N41_3 C63_3 1_555 1_555
N42_3 C64_3 1_555 1_555
N43_3 C65_3 1_555 1_555
N44_3 C66_3 1_555 1_555
C2_3 C4_3 1_555 1_555
N2_3 C4_3 1_555 1_555
C5_3 N3_3 1_555 1_555
C7_3 C8_3 1_555 1_555
C7_3 C9_3 1_555 1_555
C11_3 N3_3 1_555 1_555
N7_3 C34_3 1_555 1_555
C29_3 C51_3 1_555 1_555
C30_3 C52_3 1_555 1_555
C31_3 C53_3 1_555 1_555
C32_3 C54_3 1_555 1_555
C33_3 C55_3 1_555 1_555
C41_3 C44_3 1_555 1_555
C42_3 C43_3 1_555 1_555
N29_3 C51_3 1_555 1_555
N30_3 C53_3 1_555 1_555
N31_3 C54_3 1_555 1_555
N32_3 C52_3 1_555 1_555
N33_3 C55_3 1_555 1_555
C73_3 C117_3 1_555 1_555
C74_3 C118_3 1_555 1_555
C75_3 C119_3 1_555 1_555
C76_3 C120_3 1_555 1_555
C77_3 C121_3 1_555 1_555
C84_3 C95_3 1_555 1_555
C84_3 C106_3 1_555 1_555
C85_3 C96_3 1_555 1_555
C85_3 C107_3 1_555 1_555
C86_3 C97_3 1_555 1_555
C86_3 C109_3 1_555 1_555
C87_3 C98_3 1_555 1_555
C87_3 C108_3 1_555 1_555
C88_3 C99_3 1_555 1_555
C88_3 C110_3 1_555 1_555
C128_3 N47_2 1_555 1_555
C129_3 N41_3 1_555 1_555
C130_3 N42_3 1_555 1_555
C131_3 N43_3 1_555 1_555
C132_3 N44_3 1_555 1_555
O1_11 H101_3 1_555 1_555
Cu8_8 O1_12 1_555 1_555
O3_12 Cu8_8 1_555 1_555
Fe4_3 N11_3 1_555 1_555
N11_3 C37_3 1_555 1_555
N17_3 Fe4_3 1_555 1_555
N18_3 Fe4_3 1_555 1_555
N19_3 Fe4_3 1_555 1_555
N20_3 Fe4_3 1_555 1_555
N21_3 Fe4_3 1_555 1_555
C12_3 H10_3 1_555 1_555
C16_3 H13_3 1_555 1_555
O7_3 C102_3 1_555 1_555
O9_3 C104_3 1_555 1_555
C23_3 H22_3 1_555 1_555
C27_3 H24_3 1_555 1_555
C37_3 C38_3 1_555 1_555
C38_3 N19_3 1_555 1_555
N25_3 H33_3 1_555 1_555
N27_3 H34_3 1_555 1_555
C47_3 C12_3 1_555 1_555
C48_3 C16_3 1_555 1_555
C56_3 C12_3 1_555 1_555
C60_3 C16_3 1_555 1_555
H42_3 C56_3 1_555 1_555
H46_3 C60_3 1_555 1_555
C69_3 H55_3 1_555 1_555
C70_3 H57_3 1_555 1_555
C80_3 C69_3 1_555 1_555
C82_3 C70_3 1_555 1_555
C91_3 N11_3 1_555 1_555
C92_3 N19_3 1_555 1_555
H66_3 C91_3 1_555 1_555
H68_3 C92_3 1_555 1_555
C102_3 N25_3 1_555 1_555
C104_3 N27_3 1_555 1_555
C113_3 C37_3 1_555 1_555
C115_3 C38_3 1_555 1_555
H77_3 C113_3 1_555 1_555
H78_3 C115_3 1_555 1_555
C122_3 C23_3 1_555 1_555
C126_3 C27_3 1_555 1_555
H86_3 C122_3 1_555 1_555
H90_3 C126_3 1_555 1_555
N36_3 Cu8_8 1_555 1_555
N45_2 C60_3 1_555 1_555
C23_3 C47_3 1_555 1_555
C27_3 C48_3 1_555 1_555
N25_3 C47_3 1_555 1_555
N27_3 C48_3 1_555 1_555
C56_3 N36_3 1_555 1_555
C69_3 C113_3 1_555 1_555
C70_3 C115_3 1_555 1_555
C80_3 C91_3 1_555 1_555
C80_3 C102_3 1_555 1_555
C82_3 C92_3 1_555 1_555
C82_3 C104_3 1_555 1_555
C122_3 N36_3 1_555 1_555
C126_3 N45_2 1_555 1_555
Fe2 N1_4 1_555 1_555
Cu8_9 O1_13 1_555 1_555
N1_4 C3_4 1_555 1_555
C1_4 H1_4 1_555 1_555
O2_4 C9_4 1_555 1_555
C2_4 H2_4 1_555 1_555
C3_4 C10_4 1_555 1_555
N2_4 H3_4 1_555 1_555
C4_4 C1_4 1_555 1_555
C5_4 C1_4 1_555 1_555
H4_4 C5_4 1_555 1_555
C6_4 H5_4 1_555 1_555
C7_4 C6_4 1_555 1_555
C8_4 N1_4 1_555 1_555
H6_4 C8_4 1_555 1_555
C9_4 N2_4 1_555 1_555
C10_4 C6_4 1_555 1_555
H7_4 C10_4 1_555 1_555
C11_4 C2_4 1_555 1_555
H8_4 C11_4 1_555 1_555
N3_4 Cu8_9 1_555 1_555
O3_13 Cu8_9 1_555 1_555
Cu7_3 N40_2 1_555 1_555
Cu6 N41_4 1_555 1_555
Cu9_2 N44_4 1_555 1_555
N5_4 Fe2 1_555 1_555
N7_4 Fe2 1_555 1_555
N8_4 Fe2 1_555 1_555
C18_4 H15_4 1_555 1_555
C19_4 H16_4 1_555 1_555
C22_4 H19_4 1_555 1_555
O11_4 C106_4 1_555 1_555
O14_4 C107_4 1_555 1_555
O15_4 C110_4 1_555 1_555
C29_4 H26_4 1_555 1_555
C30_4 H27_4 1_555 1_555
C33_4 H30_4 1_555 1_555
C34_4 C3_4 1_555 1_555
C41_4 N8_4 1_555 1_555
C44_4 N5_4 1_555 1_555
N29_4 H37_4 1_555 1_555
N32_4 H38_4 1_555 1_555
N33_4 H41_4 1_555 1_555
C51_4 C18_4 1_555 1_555
C52_4 C19_4 1_555 1_555
C55_4 C22_4 1_555 1_555
C62_4 C18_4 1_555 1_555
C63_4 C19_4 1_555 1_555
C66_4 C22_4 1_555 1_555
H48_4 C62_4 1_555 1_555
H49_4 C63_4 1_555 1_555
H52_4 C66_4 1_555 1_555
C73_4 H59_4 1_555 1_555
C74_4 H62_4 1_555 1_555
C77_4 H63_4 1_555 1_555
C84_4 C73_4 1_555 1_555
C85_4 C74_4 1_555 1_555
C88_4 C77_4 1_555 1_555
C95_4 N7_4 1_555 1_555
C96_4 N8_4 1_555 1_555
C99_4 N5_4 1_555 1_555
H70_4 C95_4 1_555 1_555
H71_4 C96_4 1_555 1_555
H74_4 C99_4 1_555 1_555
C106_4 N29_4 1_555 1_555
C107_4 N32_4 1_555 1_555
C110_4 N33_4 1_555 1_555
C117_4 C34_4 1_555 1_555
C118_4 C41_4 1_555 1_555
C121_4 C44_4 1_555 1_555
H81_4 C117_4 1_555 1_555
H82_4 C118_4 1_555 1_555
H85_4 C121_4 1_555 1_555
C128_4 C29_4 1_555 1_555
C129_4 C30_4 1_555 1_555
C132_4 C33_4 1_555 1_555
H92_4 C128_4 1_555 1_555
H93_4 C129_4 1_555 1_555
H96_4 C132_4 1_555 1_555
N40_2 C62_4 1_555 1_555
N41_4 C63_4 1_555 1_555
N44_4 C66_4 1_555 1_555
C2_4 C4_4 1_555 1_555
N2_4 C4_4 1_555 1_555
C5_4 N3_4 1_555 1_555
C7_4 C8_4 1_555 1_555
C7_4 C9_4 1_555 1_555
C11_4 N3_4 1_555 1_555
N7_4 C34_4 1_555 1_555
C29_4 C51_4 1_555 1_555
C30_4 C52_4 1_555 1_555
C33_4 C55_4 1_555 1_555
C41_4 C44_4 1_555 1_555
N29_4 C51_4 1_555 1_555
N32_4 C52_4 1_555 1_555
N33_4 C55_4 1_555 1_555
C73_4 C117_4 1_555 1_555
C74_4 C118_4 1_555 1_555
C77_4 C121_4 1_555 1_555
C84_4 C95_4 1_555 1_555
C84_4 C106_4 1_555 1_555
C85_4 C96_4 1_555 1_555
C85_4 C107_4 1_555 1_555
C88_4 C99_4 1_555 1_555
C88_4 C110_4 1_555 1_555
C128_4 N40_2 1_555 1_555
C129_4 N41_4 1_555 1_555
C132_4 N44_4 1_555 1_555
O1_13 H101_4 1_555 1_555
Cu8_10 O1_14 1_555 1_555
O3_14 Cu8_10 1_555 1_555
Cu7_3 N38_2 1_555 1_555
N12 C37_4 1_555 1_555
C12_4 H10_4 1_555 1_555
C16_4 H13_4 1_555 1_555
O7_4 C102_4 1_555 1_555
O9_4 C104_4 1_555 1_555
C23_4 H22_4 1_555 1_555
C27_4 H24_4 1_555 1_555
C37_4 C38_4 1_555 1_555
C38_4 N14 1_555 1_555
N25_4 H33_4 1_555 1_555
N27_4 H34_4 1_555 1_555
C47_4 C12_4 1_555 1_555
C48_4 C16_4 1_555 1_555
C56_4 C12_4 1_555 1_555
C60_4 C16_4 1_555 1_555
H42_4 C56_4 1_555 1_555
H46_4 C60_4 1_555 1_555
C69_4 H55_4 1_555 1_555
C70_4 H57_4 1_555 1_555
C80_4 C69_4 1_555 1_555
C82_4 C70_4 1_555 1_555
C91_4 N12 1_555 1_555
C92_4 N14 1_555 1_555
H66_4 C91_4 1_555 1_555
H68_4 C92_4 1_555 1_555
C102_4 N25_4 1_555 1_555
C104_4 N27_4 1_555 1_555
C113_4 C37_4 1_555 1_555
C115_4 C38_4 1_555 1_555
H77_4 C113_4 1_555 1_555
H78_4 C115_4 1_555 1_555
C122_4 C23_4 1_555 1_555
C126_4 C27_4 1_555 1_555
H86_4 C122_4 1_555 1_555
H90_4 C126_4 1_555 1_555
N36_4 Cu8_10 1_555 1_555
N38_2 C60_4 1_555 1_555
C23_4 C47_4 1_555 1_555
C27_4 C48_4 1_555 1_555
N25_4 C47_4 1_555 1_555
N27_4 C48_4 1_555 1_555
C56_4 N36_4 1_555 1_555
C69_4 C113_4 1_555 1_555
C70_4 C115_4 1_555 1_555
C80_4 C91_4 1_555 1_555
C80_4 C102_4 1_555 1_555
C82_4 C92_4 1_555 1_555
C82_4 C104_4 1_555 1_555
C122_4 N36_4 1_555 1_555
C126_4 N38_2 1_555 1_555
Cu8_11 O1_15 1_555 1_555
O3_15 Cu8_11 1_555 1_555
Cu7_3 O4_4 1_555 1_555
N46_4 Cu7_3 1_555 1_555
O16_4 Cu7_3 1_555 1_555
O3_15 H99_4 1_555 1_555
Cu8_12 O1_16 1_555 1_555
O3_16 Cu8_12 1_555 1_555
N18_3 C36_4 1_555 1_555
C14_4 H11_4 1_555 1_555
C15_4 H12_4 1_555 1_555
O6_4 C101_4 1_555 1_555
O8_4 C103_4 1_555 1_555
C24_4 H21_4 1_555 1_555
C26_4 H23_4 1_555 1_555
C36_4 C40_4 1_555 1_555
C40_4 N21_3 1_555 1_555
N24_4 H32_4 1_555 1_555
N26_4 H35_4 1_555 1_555
C46_4 C14_4 1_555 1_555
C49_4 C15_4 1_555 1_555
C57_4 C14_4 1_555 1_555
C59_4 C15_4 1_555 1_555
H44_4 C57_4 1_555 1_555
H45_4 C59_4 1_555 1_555
C68_4 H54_4 1_555 1_555
C71_4 H56_4 1_555 1_555
C79_4 C68_4 1_555 1_555
C81_4 C71_4 1_555 1_555
C90_4 N18_3 1_555 1_555
C93_4 N21_3 1_555 1_555
H65_4 C90_4 1_555 1_555
H67_4 C93_4 1_555 1_555
C101_4 N24_4 1_555 1_555
C103_4 N26_4 1_555 1_555
C112_4 C36_4 1_555 1_555
C114_4 C40_4 1_555 1_555
H76_4 C112_4 1_555 1_555
H79_4 C114_4 1_555 1_555
C123_4 C24_4 1_555 1_555
C125_4 C26_4 1_555 1_555
H87_4 C123_4 1_555 1_555
H89_4 C125_4 1_555 1_555
N35_4 Cu8_12 1_555 1_555
N46_4 C59_4 1_555 1_555
C24_4 C46_4 1_555 1_555
C26_4 C49_4 1_555 1_555
N24_4 C46_4 1_555 1_555
N26_4 C49_4 1_555 1_555
C57_4 N35_4 1_555 1_555
C68_4 C112_4 1_555 1_555
C71_4 C114_4 1_555 1_555
C79_4 C90_4 1_555 1_555
C79_4 C101_4 1_555 1_555
C81_4 C93_4 1_555 1_555
C81_4 C103_4 1_555 1_555
C123_4 N35_4 1_555 1_555
C125_4 N46_4 1_555 1_555
O3_16 H100_4 1_555 1_555
O1_16 H102_4 1_555 1_555
O3_2 H100_5 1_555 1_555
O1_2 H102_5 1_555 1_555
O1_3 H101_5 1_555 1_555
O3_4 H99_5 1_555 1_555
O3 H100_6 1_555 1_555
O1 H102_6 1_555 1_555
O3_2 H99_6 1_555 1_555
Cu6_2 N41_5 1_555 1_555
Cu9_6 N44_5 1_555 1_555
C19_5 H16_5 1_555 1_555
C22_5 H19_5 1_555 1_555
O14_5 C107_5 1_555 1_555
O15_5 C110_5 1_555 1_555
C30_5 H27_5 1_555 1_555
C33_5 H30_5 1_555 1_555
C41_5 N15 1_555 1_555
C44_5 N13 1_555 1_555
N32_5 H38_5 1_555 1_555
N33_5 H41_5 1_555 1_555
C52_5 C19_5 1_555 1_555
C55_5 C22_5 1_555 1_555
C63_5 C19_5 1_555 1_555
C66_5 C22_5 1_555 1_555
H49_5 C63_5 1_555 1_555
H52_5 C66_5 1_555 1_555
C74_5 H62_5 1_555 1_555
C77_5 H63_5 1_555 1_555
C85_5 C74_5 1_555 1_555
C88_5 C77_5 1_555 1_555
C96_5 N15 1_555 1_555
C99_5 N13 1_555 1_555
H71_5 C96_5 1_555 1_555
H74_5 C99_5 1_555 1_555
C107_5 N32_5 1_555 1_555
C110_5 N33_5 1_555 1_555
C118_5 C41_5 1_555 1_555
C121_5 C44_5 1_555 1_555
H82_5 C118_5 1_555 1_555
H85_5 C121_5 1_555 1_555
C129_5 C30_5 1_555 1_555
C132_5 C33_5 1_555 1_555
H93_5 C129_5 1_555 1_555
H96_5 C132_5 1_555 1_555
N41_5 C63_5 1_555 1_555
N44_5 C66_5 1_555 1_555
C30_5 C52_5 1_555 1_555
C33_5 C55_5 1_555 1_555
C41_5 C44_5 1_555 1_555
N32_5 C52_5 1_555 1_555
N33_5 C55_5 1_555 1_555
C74_5 C118_5 1_555 1_555
C77_5 C121_5 1_555 1_555
C85_5 C96_5 1_555 1_555
C85_5 C107_5 1_555 1_555
C88_5 C99_5 1_555 1_555
C88_5 C110_5 1_555 1_555
C129_5 N41_5 1_555 1_555
C132_5 N44_5 1_555 1_555
O1_4 H101_6 1_555 1_555
O3 H99_7 1_555 1_555
Cu6_2 N42_4 1_555 1_555
Cu9_5 N43_4 1_555 1_555
C20_4 H17_4 1_555 1_555
C21_4 H18_4 1_555 1_555
O12_4 C109_4 1_555 1_555
O13_4 C108_4 1_555 1_555
C31_4 H28_4 1_555 1_555
C32_4 H29_4 1_555 1_555
C42_4 N20 1_555 1_555
C43_4 N17 1_555 1_555
N30_4 H39_4 1_555 1_555
N31_4 H40_4 1_555 1_555
C53_4 C20_4 1_555 1_555
C54_4 C21_4 1_555 1_555
C64_4 C20_4 1_555 1_555
C65_4 C21_4 1_555 1_555
H50_4 C64_4 1_555 1_555
H51_4 C65_4 1_555 1_555
C75_4 H61_4 1_555 1_555
C76_4 H60_4 1_555 1_555
C86_4 C75_4 1_555 1_555
C87_4 C76_4 1_555 1_555
C97_4 N20 1_555 1_555
C98_4 N17 1_555 1_555
H72_4 C97_4 1_555 1_555
H73_4 C98_4 1_555 1_555
C108_4 N31_4 1_555 1_555
C109_4 N30_4 1_555 1_555
C119_4 C42_4 1_555 1_555
C120_4 C43_4 1_555 1_555
H83_4 C119_4 1_555 1_555
H84_4 C120_4 1_555 1_555
C130_4 C31_4 1_555 1_555
C131_4 C32_4 1_555 1_555
H94_4 C130_4 1_555 1_555
H95_4 C131_4 1_555 1_555
N42_4 C64_4 1_555 1_555
N43_4 C65_4 1_555 1_555
C31_4 C53_4 1_555 1_555
C32_4 C54_4 1_555 1_555
C42_4 C43_4 1_555 1_555
N30_4 C53_4 1_555 1_555
N31_4 C54_4 1_555 1_555
C75_4 C119_4 1_555 1_555
C76_4 C120_4 1_555 1_555
C86_4 C97_4 1_555 1_555
C86_4 C109_4 1_555 1_555
C87_4 C98_4 1_555 1_555
C87_4 C108_4 1_555 1_555
C130_4 N42_4 1_555 1_555
C131_4 N43_4 1_555 1_555
O1_2 H101_7 1_555 1_555
O3_3 H100_7 1_555 1_555
O1_3 H102_7 1_555 1_555
Cu9_5 O1_17 1_555 1_555
O3_17 Cu9_5 1_555 1_555
O1_17 H101_8 1_555 1_555
Cu9_6 O1_18 1_555 1_555
O3_18 Cu9_6 1_555 1_555
Cu6_2 O4_5 1_555 1_555
N45_3 Cu6_2 1_555 1_555
N46_5 Cu6_2 1_555 1_555
O16_5 Cu6_2 1_555 1_555
O3_18 H99_8 1_555 1_555
Cu9_7 O1_19 1_555 1_555
O3_19 Cu9_7 1_555 1_555
N17_2 C37_5 1_555 1_555
C12_5 H10_5 1_555 1_555
C16_5 H13_5 1_555 1_555
O7_5 C102_5 1_555 1_555
O9_5 C104_5 1_555 1_555
C23_5 H22_5 1_555 1_555
C27_5 H24_5 1_555 1_555
C37_5 C38_5 1_555 1_555
C38_5 N20_2 1_555 1_555
N25_5 H33_5 1_555 1_555
N27_5 H34_5 1_555 1_555
C47_5 C12_5 1_555 1_555
C48_5 C16_5 1_555 1_555
C56_5 C12_5 1_555 1_555
C60_5 C16_5 1_555 1_555
H42_5 C56_5 1_555 1_555
H46_5 C60_5 1_555 1_555
C69_5 H55_5 1_555 1_555
C70_5 H57_5 1_555 1_555
C80_5 C69_5 1_555 1_555
C82_5 C70_5 1_555 1_555
C91_5 N17_2 1_555 1_555
C92_5 N20_2 1_555 1_555
H66_5 C91_5 1_555 1_555
H68_5 C92_5 1_555 1_555
C102_5 N25_5 1_555 1_555
C104_5 N27_5 1_555 1_555
C113_5 C37_5 1_555 1_555
C115_5 C38_5 1_555 1_555
H77_5 C113_5 1_555 1_555
H78_5 C115_5 1_555 1_555
C122_5 C23_5 1_555 1_555
C126_5 C27_5 1_555 1_555
H86_5 C122_5 1_555 1_555
H90_5 C126_5 1_555 1_555
N36_5 Cu9_7 1_555 1_555
N45_3 C60_5 1_555 1_555
C23_5 C47_5 1_555 1_555
C27_5 C48_5 1_555 1_555
N25_5 C47_5 1_555 1_555
N27_5 C48_5 1_555 1_555
C56_5 N36_5 1_555 1_555
C69_5 C113_5 1_555 1_555
C70_5 C115_5 1_555 1_555
C80_5 C91_5 1_555 1_555
C80_5 C102_5 1_555 1_555
C82_5 C92_5 1_555 1_555
C82_5 C104_5 1_555 1_555
C122_5 N36_5 1_555 1_555
C126_5 N45_3 1_555 1_555
Cu9_8 O1_20 1_555 1_555
O3_20 Cu9_8 1_555 1_555
N17_3 C36_5 1_555 1_555
C14_5 H11_5 1_555 1_555
C15_5 H12_5 1_555 1_555
O6_5 C101_5 1_555 1_555
O8_5 C103_5 1_555 1_555
C24_5 H21_5 1_555 1_555
C26_5 H23_5 1_555 1_555
C36_5 C40_5 1_555 1_555
C40_5 N20_3 1_555 1_555
N24_5 H32_5 1_555 1_555
N26_5 H35_5 1_555 1_555
C46_5 C14_5 1_555 1_555
C49_5 C15_5 1_555 1_555
C57_5 C14_5 1_555 1_555
C59_5 C15_5 1_555 1_555
H44_5 C57_5 1_555 1_555
H45_5 C59_5 1_555 1_555
C68_5 H54_5 1_555 1_555
C71_5 H56_5 1_555 1_555
C79_5 C68_5 1_555 1_555
C81_5 C71_5 1_555 1_555
C90_5 N17_3 1_555 1_555
C93_5 N20_3 1_555 1_555
H65_5 C90_5 1_555 1_555
H67_5 C93_5 1_555 1_555
C101_5 N24_5 1_555 1_555
C103_5 N26_5 1_555 1_555
C112_5 C36_5 1_555 1_555
C114_5 C40_5 1_555 1_555
H76_5 C112_5 1_555 1_555
H79_5 C114_5 1_555 1_555
C123_5 C24_5 1_555 1_555
C125_5 C26_5 1_555 1_555
H87_5 C123_5 1_555 1_555
H89_5 C125_5 1_555 1_555
N35_5 Cu9_8 1_555 1_555
N46_5 C59_5 1_555 1_555
C24_5 C46_5 1_555 1_555
C26_5 C49_5 1_555 1_555
N24_5 C46_5 1_555 1_555
N26_5 C49_5 1_555 1_555
C57_5 N35_5 1_555 1_555
C68_5 C112_5 1_555 1_555
C71_5 C114_5 1_555 1_555
C79_5 C90_5 1_555 1_555
C79_5 C101_5 1_555 1_555
C81_5 C93_5 1_555 1_555
C81_5 C103_5 1_555 1_555
C123_5 N35_5 1_555 1_555
C125_5 N46_5 1_555 1_555
O3_20 H100_8 1_555 1_555
O1_20 H102_8 1_555 1_555
O1_10 H101_9 1_555 1_555
O3_11 H100_9 1_555 1_555
O1_11 H102_9 1_555 1_555
O3_12 H99_9 1_555 1_555
Cu9 O1_21 1_555 1_555
O3_21 Cu9 1_555 1_555
Cu9_2 O1_22 1_555 1_555
O3_22 Cu9_2 1_555 1_555
O3_22 H100_10 1_555 1_555
O1_22 H102_10 1_555 1_555
Cu9_3 O1_23 1_555 1_555
O3_23 Cu9_3 1_555 1_555
O1_23 H101_10 1_555 1_555
Cu9_4 O1_24 1_555 1_555
O3_24 Cu9_4 1_555 1_555
Cu6 O4_6 1_555 1_555
O16_6 Cu6 1_555 1_555
O3_24 H99_10 1_555 1_555
O1_5 H101_11 1_555 1_555
O3_6 H99_11 1_555 1_555
O3_8 H100_11 1_555 1_555
O1_8 H102_11 1_555 1_555
O1_21 H101_12 1_555 1_555
O3_23 H99_12 1_555 1_555
O3_24 H100_12 1_555 1_555
O1_24 H102_12 1_555 1_555
O3_21 H100_13 1_555 1_555
O1_21 H102_13 1_555 1_555
O3_22 H99_13 1_555 1_555
O1_24 H101_13 1_555 1_555
O3_13 H99_14 1_555 1_555
O1_14 H101_14 1_555 1_555
O3_15 H100_14 1_555 1_555
O1_15 H102_14 1_555 1_555
O3_17 H99_15 1_555 1_555
O3_18 H100_15 1_555 1_555
O1_18 H102_15 1_555 1_555
O1_19 H101_15 1_555 1_555
O3_14 H100_16 1_555 1_555
O1_14 H102_16 1_555 1_555
O1_15 H101_16 1_555 1_555
O3_16 H99_16 1_555 1_555
O3_5 H100_17 1_555 1_555
O1_5 H102_17 1_555 1_555
O3_7 H99_17 1_555 1_555
O1_8 H101_17 1_555 1_555
O1_18 H101_18 1_555 1_555
O3_19 H100_18 1_555 1_555
O1_19 H102_18 1_555 1_555
O3_20 H99_18 1_555 1_555
O1_6 H101_19 1_555 1_555
O3_7 H100_19 1_555 1_555
O1_7 H102_19 1_555 1_555
O3_8 H99_19 1_555 1_555
O3_13 H100_20 1_555 1_555
O1_13 H102_20 1_555 1_555
O3_14 H99_20 1_555 1_555
O1_16 H101_20 1_555 1_555
O1_9 H101_21 1_555 1_555
O3_10 H99_21 1_555 1_555
O3_12 H100_21 1_555 1_555
O1_12 H102_21 1_555 1_555
O3_9 H100_22 1_555 1_555
O1_9 H102_22 1_555 1_555
O3_11 H99_22 1_555 1_555
O1_12 H101_22 1_555 1_555
O3_21 H99_23 1_555 1_555
O1_22 H101_23 1_555 1_555
O3_23 H100_23 1_555 1_555
O1_23 H102_23 1_555 1_555
O3_17 H100_24 1_555 1_555
O1_17 H102_24 1_555 1_555
O3_19 H99_24 1_555 1_555
O1_20 H101_24 1_555 1_555
N48 O17 1_555 1_555
O18 N48 1_555 1_555
O19 N48 1_555 1_555
N48_2 O17_2 1_555 1_555
O18_2 N48_2 1_555 1_555
O19_2 N48_2 1_555 1_555
N48_3 O17_3 1_555 1_555
O18_3 N48_3 1_555 1_555
O19_3 N48_3 1_555 1_555
N48_4 O17_4 1_555 1_555
O18_4 N48_4 1_555 1_555
O19_4 N48_4 1_555 1_555
N48_5 O17_5 1_555 1_555
O18_5 N48_5 1_555 1_555
O19_5 N48_5 1_555 1_555
N48_6 O17_6 1_555 1_555
O18_6 N48_6 1_555 1_555
O19_6 N48_6 1_555 1_555
N48_7 O17_7 1_555 1_555
O18_7 N48_7 1_555 1_555
O19_7 N48_7 1_555 1_555
N48_8 O17_8 1_555 1_555
O18_8 N48_8 1_555 1_555
O19_8 N48_8 1_555 1_555
N48_9 O17_9 1_555 1_555
O18_9 N48_9 1_555 1_555
O19_9 N48_9 1_555 1_555
N48_10 O17_10 1_555 1_555
O18_10 N48_10 1_555 1_555
O19_10 N48_10 1_555 1_555
N48_11 O17_11 1_555 1_555
O18_11 N48_11 1_555 1_555
O19_11 N48_11 1_555 1_555
N48_12 O17_12 1_555 1_555
O18_12 N48_12 1_555 1_555
O19_12 N48_12 1_555 1_555
N48_13 O17_13 1_555 1_555
O18_13 N48_13 1_555 1_555
O19_13 N48_13 1_555 1_555
N48_14 O17_14 1_555 1_555
O18_14 N48_14 1_555 1_555
O19_14 N48_14 1_555 1_555
N48_15 O17_15 1_555 1_555
O18_15 N48_15 1_555 1_555
O19_15 N48_15 1_555 1_555
N48_16 O17_16 1_555 1_555
O18_16 N48_16 1_555 1_555
O19_16 N48_16 1_555 1_555

#END
