
###############################################################################
#
# This file contains modified crystal structure data generated from the
# MOF subset of the Cambridge Structural Database (CSD) v543 
# hosted by the Cambridge Crystallographic Data Centre (CCDC).
#
# This work is licensed under the Creative Commons
# Attribution-NonCommercial-ShareAlike 4.0 International License.
# To view a copy of this license, visit
# http://creativecommons.org/licenses/by-nc-sa/4.0/
# or send a letter to
# Creative Commons, PO Box 1866, Mountain View, CA 94042, USA.
#
# CIF created using the CSD Python API on 29 September 2022
# The structure has been converted into the P1 space group
# The structure has a 3D framework
# The original CSD entry TASZAQ is in the cubic crystal system
# The original CSD entry TASZAQ is in a Sohncke space group
# The framework has been calculated to contain at least 10.0% void space
# The void calculation uses a probe of radius 1.32A, grid spacing 0.4
# The framework is charged, counterions have been retained in the structure
# H atom positions have been added when not included in the experimental data
# Generated hydrogen atom positions removed from atoms on special positions
#
###############################################################################

data_TASZAQ
_chemical_formula_moiety         '(C528 H576 N196 O240 Zn38 24+)n'
_symmetry_cell_setting           triclinic
_symmetry_space_group_name_H-M   'P 1'
_symmetry_Int_Tables_number      1
_space_group_name_Hall           'P 1'
loop_
_symmetry_equiv_pos_site_id
_symmetry_equiv_pos_as_xyz
1 x,y,z
_cell_length_a                   33.0880(12)
_cell_length_b                   33.0880(12)
_cell_length_c                   33.0880(12)
_cell_angle_alpha                90
_cell_angle_beta                 90
_cell_angle_gamma                90
_cell_volume                     36225.3
loop_
_atom_site_label
_atom_site_type_symbol
_atom_site_fract_x
_atom_site_fract_y
_atom_site_fract_z
Zn2 Zn 0.2453 0.00000(4) 0.0000
O1 O 0.3128 0.00000(19) 0.0000
O2 O 0.1786 0.0000(2) 0.0000
Zn5 Zn 0.2500 0.2500 0.2500
Zn11 Zn 0.2547 0.50000(4) 0.5000
N11 N 0.25061(8) 0.25752(9) 0.18524(8)
N13 N 0.24939(8) 0.31476(8) 0.24248(9)
O4 O 0.1872 0.50000(19) 0.5000
O5 O 0.3214 0.5000(2) 0.5000
N29 N 0.24518(10) 0.16776(9) 0.09334(9)
N32 N 0.25482(10) 0.40666(9) 0.33224(9)
H15 H 0.2266 0.1697 0.1122
H17 H 0.2734 0.3878 0.3303
C18 C 0.24654(14) 0.13095(11) 0.07186(10)
C20 C 0.25346(14) 0.42814(10) 0.36905(11)
O12 O 0.29433(13) 0.20468(10) 0.06127(10)
O15 O 0.20567(13) 0.43873(10) 0.29532(10)
C29 C 0.21772(14) 0.10348(12) 0.07990(12)
C31 C 0.28228(14) 0.42010(12) 0.39652(12)
H26 H 0.1981 0.1087 0.1002
H29 H 0.3019 0.3998 0.3913
C41 C 0.25246(12) 0.29576(11) 0.17272(10)
C44 C 0.24754(12) 0.32728(10) 0.20424(11)
C51 C 0.27631(15) 0.12248(13) 0.04251(14)
C53 C 0.22369(15) 0.45749(14) 0.37752(13)
H37 H 0.2971 0.1413 0.0362
H40 H 0.2029 0.4638 0.3587
C63 C 0.25499(11) 0.22729(10) 0.15861(11)
C65 C 0.24501(11) 0.34139(11) 0.27271(10)
H49 H 0.2531 0.2001 0.1678
H51 H 0.2469 0.3322 0.2999
N36 N 0.24661(14) 0.05818(9) 0.03106(9)
N43 N 0.25339(14) 0.46894(9) 0.44182(9)
N45 N 0.25339(14) 0.55818(9) 0.46894(9)
N46 N 0.25339(14) 0.44182(9) 0.53106(9)
N47 N 0.25339(14) 0.53106(9) 0.55818(9)
C74 C 0.25929(15) 0.30543(12) 0.13185(13)
C76 C 0.24071(15) 0.36815(13) 0.19457(12)
H60 H 0.2592 0.3327 0.1229
H62 H 0.2408 0.3771 0.1673
C84 C 0.26906(16) 0.20001(14) 0.08815(14)
C87 C 0.23094(16) 0.41185(14) 0.29999(14)
C95 C 0.26216(12) 0.23468(11) 0.11816(11)
C98 C 0.23784(12) 0.38184(11) 0.26532(11)
C107 C 0.26625(18) 0.27375(14) 0.10498(12)
C109 C 0.23375(18) 0.39502(12) 0.22625(14)
H67 H 0.2737 0.2792 0.0778
H69 H 0.2263 0.4222 0.2208
C117 C 0.21676(15) 0.06701(13) 0.05814(13)
C120 C 0.28324(15) 0.44186(13) 0.43299(13)
H81 H 0.1953 0.0484 0.0623
H84 H 0.3047 0.4377 0.4516
C128 C 0.27376(15) 0.08545(13) 0.02333(13)
C131 C 0.22624(15) 0.47667(13) 0.41455(13)
H92 H 0.2932 0.0795 0.0031
H95 H 0.2068 0.4969 0.4205
H98 H 0.322804 0.0249603 0.0133253
H100 H 0.168596 0.0249603 0.0133253
Zn2_2 Zn 0.2453 0.00000(4) 1.0000
O1_2 O 0.3128 0.00000(19) 1.0000
O2_2 O 0.1786 0.0000(2) 1.0000
Zn3 Zn 0.2500 0.2500 0.7500
Zn8 Zn 0.0000 0.00000(4) 0.7547
N10 N 0.25061(8) 0.18524(8) 0.74248(9)
N12 N 0.24939(8) 0.24248(9) 0.68524(8)
N15 N 0.25752(9) 0.25061(8) 0.81476(8)
N16 N 0.18524(8) 0.25752(9) 0.74939(8)
N17 N 0.24248(9) 0.31476(8) 0.75061(8)
N18 N 0.31476(8) 0.24939(8) 0.75752(9)
N28 N 0.24518(10) 0.09334(9) 0.83224(9)
N31 N 0.25482(10) 0.33224(9) 0.59334(9)
H14 H 0.2266 0.1122 0.8303
H18 H 0.2734 0.3303 0.6122
C17 C 0.24654(14) 0.07186(10) 0.86905(11)
C21 C 0.25346(14) 0.36905(11) 0.57186(10)
O11 O 0.29433(13) 0.06127(10) 0.79532(10)
O14 O 0.20567(13) 0.29532(10) 0.56127(10)
C28 C 0.21772(14) 0.07990(12) 0.89652(12)
C32 C 0.28228(14) 0.39652(12) 0.57990(12)
H25 H 0.1981 0.1002 0.8913
H28 H 0.3019 0.3913 0.6002
C39 C 0.25246(12) 0.17272(10) 0.70424(11)
C42 C 0.24754(12) 0.20424(11) 0.67272(10)
C50 C 0.27631(15) 0.04251(14) 0.87752(13)
C54 C 0.22369(15) 0.37752(13) 0.54251(14)
H36 H 0.2971 0.0362 0.8587
H39 H 0.2029 0.3587 0.5362
C61 C 0.25499(11) 0.15861(11) 0.77271(10)
C64 C 0.24501(11) 0.27271(10) 0.65861(11)
H48 H 0.2531 0.1678 0.7999
H52 H 0.2469 0.2999 0.6678
N35 N 0.24661(14) 0.03106(9) 0.94182(9)
C73 C 0.25929(15) 0.13185(13) 0.69457(12)
C75 C 0.24071(15) 0.19457(12) 0.63185(13)
H58 H 0.2592 0.1229 0.6673
H61 H 0.2408 0.1673 0.6229
C83 C 0.26906(16) 0.08815(14) 0.79999(14)
C86 C 0.23094(16) 0.29999(14) 0.58815(14)
C94 C 0.26216(12) 0.11816(11) 0.76532(11)
C99 C 0.23784(12) 0.26532(11) 0.61816(11)
C105 C 0.26625(18) 0.10498(12) 0.72625(14)
C108 C 0.23375(18) 0.22625(14) 0.60498(12)
H66 H 0.2737 0.0778 0.7208
H70 H 0.2263 0.2208 0.5778
C116 C 0.21676(15) 0.05814(13) 0.93299(13)
C119 C 0.28324(15) 0.43299(13) 0.55814(13)
H80 H 0.1953 0.0623 0.9516
H83 H 0.3047 0.4516 0.5623
C127 C 0.27376(15) 0.02333(13) 0.91455(13)
C130 C 0.22624(15) 0.41455(13) 0.52333(13)
H91 H 0.2932 0.0031 0.9205
H94 H 0.2068 0.4205 0.5031
Zn2_3 Zn 0.2453 1.00000(4) 0.0000
O1_3 O 0.3128 1.00000(19) 0.0000
O2_3 O 0.1786 1.0000(2) 0.0000
Zn4 Zn 0.2500 0.7500 0.2500
Zn7 Zn 0.00000(4) 0.7547 0.0000
N9 N 0.25061(8) 0.81476(8) 0.25752(9)
N14 N 0.24939(8) 0.75752(9) 0.31476(8)
N19 N 0.18524(8) 0.74248(9) 0.25061(8)
N20 N 0.25752(9) 0.74939(8) 0.18524(8)
N21 N 0.31476(8) 0.75061(8) 0.24248(9)
N22 N 0.24248(9) 0.68524(8) 0.24939(8)
N30 N 0.24518(10) 0.90666(9) 0.16776(9)
N33 N 0.25482(10) 0.66776(9) 0.40666(9)
H16 H 0.2266 0.8878 0.1697
H19 H 0.2734 0.6697 0.3878
C19 C 0.24654(14) 0.92814(10) 0.13095(11)
C22 C 0.25346(14) 0.63095(11) 0.42814(10)
O13 O 0.29433(13) 0.93873(10) 0.20468(10)
O16 O 0.20567(13) 0.70468(10) 0.43873(10)
C30 C 0.21772(14) 0.92010(12) 0.10348(12)
C33 C 0.28228(14) 0.60348(12) 0.42010(12)
H27 H 0.1981 0.8998 0.1087
H30 H 0.3019 0.6087 0.3998
C40 C 0.25246(12) 0.82728(10) 0.29576(11)
C43 C 0.24754(12) 0.79576(11) 0.32728(10)
C52 C 0.27631(15) 0.95749(14) 0.12248(13)
C55 C 0.22369(15) 0.62248(13) 0.45749(14)
H38 H 0.2971 0.9638 0.1413
H41 H 0.2029 0.6413 0.4638
C62 C 0.25499(11) 0.84139(11) 0.22729(10)
C66 C 0.24501(11) 0.72729(10) 0.34139(11)
H47 H 0.2531 0.8322 0.2001
H50 H 0.2469 0.7001 0.3322
N34 N 0.24661(14) 0.96894(9) 0.05818(9)
C72 C 0.25929(15) 0.86815(13) 0.30543(12)
C77 C 0.24071(15) 0.80543(12) 0.36815(13)
H59 H 0.2592 0.8771 0.3327
H63 H 0.2408 0.8327 0.3771
C85 C 0.26906(16) 0.91185(14) 0.20001(14)
C88 C 0.23094(16) 0.70001(14) 0.41185(14)
C96 C 0.26216(12) 0.88184(11) 0.23468(11)
C97 C 0.23784(12) 0.73468(11) 0.38184(11)
C106 C 0.26625(18) 0.89502(12) 0.27375(14)
C110 C 0.23375(18) 0.77375(14) 0.39502(12)
H65 H 0.2737 0.9222 0.2792
H68 H 0.2263 0.7792 0.4222
C118 C 0.21676(15) 0.94186(13) 0.06701(13)
C121 C 0.28324(15) 0.56701(13) 0.44186(13)
H82 H 0.1953 0.9377 0.0484
H85 H 0.3047 0.5484 0.4377
C129 C 0.27376(15) 0.97667(13) 0.08545(13)
C132 C 0.22624(15) 0.58545(13) 0.47667(13)
H93 H 0.2932 0.9969 0.0795
H96 H 0.2068 0.5795 0.4969
H99 H 0.168596 0.97598 0.0149536
Zn1 Zn 0.2500 0.7500 0.7500
Zn2_4 Zn 0.2453 1.00000(4) 1.0000
N1 N 0.25061(8) 0.74248(9) 0.81476(8)
O1_4 O 0.3128 1.00000(19) 1.0000
O2_4 O 0.1786 1.0000(2) 1.0000
N2 N 0.24518(10) 0.83224(9) 0.90666(9)
H1 H 0.2266 0.8303 0.8878
C1 C 0.24654(14) 0.86905(11) 0.92814(10)
O3 O 0.29433(13) 0.79532(10) 0.93873(10)
C2 C 0.21772(14) 0.89652(12) 0.92010(12)
H2 H 0.1981 0.8913 0.8998
C3 C 0.25246(12) 0.70424(11) 0.82728(10)
C4 C 0.27631(15) 0.87752(13) 0.95749(14)
H3 H 0.2971 0.8587 0.9638
C5 C 0.25499(11) 0.77271(10) 0.84139(11)
H4 H 0.2531 0.7999 0.8322
N3 N 0.24661(14) 0.94182(9) 0.96894(9)
C6 C 0.25929(15) 0.69457(12) 0.86815(13)
H5 H 0.2592 0.6673 0.8771
C7 C 0.26906(16) 0.79999(14) 0.91185(14)
C8 C 0.26216(12) 0.76532(11) 0.88184(11)
C9 C 0.26625(18) 0.72625(14) 0.89502(12)
H6 H 0.2737 0.7208 0.9222
C10 C 0.21676(15) 0.93299(13) 0.94186(13)
H7 H 0.1953 0.9516 0.9377
C11 C 0.27376(15) 0.91455(13) 0.97667(13)
H8 H 0.2932 0.9205 0.9969
Zn7_2 Zn 0.00000(4) 0.7547 1.0000
Zn8_2 Zn 0.0000 1.00000(4) 0.7547
Zn9 Zn 0.5000 0.50000(4) 0.7453
Zn13 Zn 0.50000(4) 0.7453 0.5000
N4 N 0.25752(9) 0.81476(8) 0.74939(8)
N5 N 0.18524(8) 0.74939(8) 0.74248(9)
N6 N 0.24939(8) 0.68524(8) 0.75752(9)
N7 N 0.31476(8) 0.75752(9) 0.75061(8)
N8 N 0.24248(9) 0.75061(8) 0.68524(8)
N23 N 0.25482(10) 0.59334(9) 0.66776(9)
N24 N 0.09334(9) 0.75482(10) 0.83224(9)
N25 N 0.33224(9) 0.74518(10) 0.59334(9)
N26 N 0.16776(9) 0.90666(9) 0.75482(10)
N27 N 0.40666(9) 0.66776(9) 0.74518(10)
H9 H 0.2734 0.6122 0.6697
H10 H 0.1122 0.7734 0.8303
H11 H 0.3303 0.7266 0.6122
H12 H 0.1697 0.8878 0.7734
H13 H 0.3878 0.6697 0.7266
C12 C 0.25346(14) 0.57186(10) 0.63095(11)
C13 C 0.07186(10) 0.75346(14) 0.86905(11)
C14 C 0.36905(11) 0.74654(14) 0.57186(10)
C15 C 0.13095(11) 0.92814(10) 0.75346(14)
C16 C 0.42814(10) 0.63095(11) 0.74654(14)
O6 O 0.20567(13) 0.56127(10) 0.70468(10)
O7 O 0.06127(10) 0.70567(13) 0.79532(10)
O8 O 0.29532(10) 0.79433(13) 0.56127(10)
O9 O 0.20468(10) 0.93873(10) 0.70567(13)
O10 O 0.43873(10) 0.70468(10) 0.79433(13)
C23 C 0.28228(14) 0.57990(12) 0.60348(12)
C24 C 0.07990(12) 0.78228(14) 0.89652(12)
C25 C 0.39652(12) 0.71772(14) 0.57990(12)
C26 C 0.42010(12) 0.60348(12) 0.71772(14)
C27 C 0.10348(12) 0.92010(12) 0.78228(14)
H20 H 0.3019 0.6002 0.6087
H21 H 0.1002 0.8019 0.8913
H22 H 0.3913 0.6981 0.6002
H23 H 0.1087 0.8998 0.8019
H24 H 0.3998 0.6087 0.6981
C34 C 0.24754(12) 0.67272(10) 0.79576(11)
C35 C 0.29576(11) 0.82728(10) 0.74754(12)
C36 C 0.17272(10) 0.74754(12) 0.70424(11)
C37 C 0.32728(10) 0.79576(11) 0.75246(12)
C38 C 0.20424(11) 0.75246(12) 0.67272(10)
C45 C 0.22369(15) 0.54251(14) 0.62248(13)
C46 C 0.04251(14) 0.72369(15) 0.87752(13)
C47 C 0.37752(13) 0.77631(15) 0.54251(14)
C48 C 0.45749(14) 0.62248(13) 0.77631(15)
C49 C 0.12248(13) 0.95749(14) 0.72369(15)
H31 H 0.2029 0.5362 0.6413
H32 H 0.0362 0.7029 0.8587
H33 H 0.3587 0.7971 0.5362
H34 H 0.1413 0.9638 0.7029
H35 H 0.4638 0.6413 0.7971
C56 C 0.24501(11) 0.65861(11) 0.72729(10)
C57 C 0.22729(10) 0.84139(11) 0.74501(11)
C58 C 0.15861(11) 0.74501(11) 0.77271(10)
C59 C 0.34139(11) 0.72729(10) 0.75499(11)
C60 C 0.27271(10) 0.75499(11) 0.65861(11)
H42 H 0.2469 0.6678 0.7001
H43 H 0.1678 0.7469 0.7999
H44 H 0.2999 0.7531 0.6678
H45 H 0.3322 0.7001 0.7531
H46 H 0.2001 0.8322 0.7469
N38 N 0.44182(9) 0.74661(14) 0.53106(9)
N39 N 0.03106(9) 0.75339(14) 0.94182(9)
N40 N 0.05818(9) 0.96894(9) 0.75339(14)
N41 N 0.46894(9) 0.55818(9) 0.74661(14)
C67 C 0.24071(15) 0.63185(13) 0.80543(12)
C68 C 0.13185(13) 0.74071(15) 0.69457(12)
C69 C 0.19457(12) 0.75929(15) 0.63185(13)
C70 C 0.36815(13) 0.80543(12) 0.75929(15)
C71 C 0.30543(12) 0.86815(13) 0.74071(15)
H53 H 0.2408 0.6229 0.8327
H54 H 0.1229 0.7408 0.6673
H55 H 0.1673 0.7592 0.6229
H56 H 0.3771 0.8327 0.7592
H57 H 0.3327 0.8771 0.7408
C78 C 0.23094(16) 0.58815(14) 0.70001(14)
C79 C 0.08815(14) 0.73094(16) 0.79999(14)
C80 C 0.29999(14) 0.76906(16) 0.58815(14)
C81 C 0.41185(14) 0.70001(14) 0.76906(16)
C82 C 0.20001(14) 0.91185(14) 0.73094(16)
C89 C 0.23784(12) 0.61816(11) 0.73468(11)
C90 C 0.11816(11) 0.73784(12) 0.76532(11)
C91 C 0.26532(11) 0.76216(12) 0.61816(11)
C92 C 0.38184(11) 0.73468(11) 0.76216(12)
C93 C 0.23468(11) 0.88184(11) 0.73784(12)
C100 C 0.23375(18) 0.60498(12) 0.77375(14)
C101 C 0.10498(12) 0.73375(18) 0.72625(14)
C102 C 0.22625(14) 0.76625(18) 0.60498(12)
C103 C 0.39502(12) 0.77375(14) 0.76625(18)
C104 C 0.27375(14) 0.89502(12) 0.73375(18)
H64 H 0.2263 0.5778 0.7792
H71 H 0.0778 0.7263 0.7208
H72 H 0.2208 0.7737 0.5778
H73 H 0.4222 0.7792 0.7737
H74 H 0.2792 0.9222 0.7263
C111 C 0.28324(15) 0.55814(13) 0.56701(13)
C112 C 0.05814(13) 0.78324(15) 0.93299(13)
C113 C 0.43299(13) 0.71676(15) 0.55814(13)
C114 C 0.06701(13) 0.94186(13) 0.78324(15)
C115 C 0.44186(13) 0.56701(13) 0.71676(15)
H75 H 0.3047 0.5623 0.5484
H76 H 0.4516 0.6953 0.5623
H77 H 0.0623 0.8047 0.9516
H78 H 0.0484 0.9377 0.8047
H79 H 0.4377 0.5484 0.6953
C122 C 0.22624(15) 0.52333(13) 0.58545(13)
C123 C 0.02333(13) 0.72624(15) 0.91455(13)
C124 C 0.41455(13) 0.77376(15) 0.52333(13)
C125 C 0.08545(13) 0.97667(13) 0.72624(15)
C126 C 0.47667(13) 0.58545(13) 0.77376(15)
H86 H 0.2068 0.5031 0.5795
H87 H 0.4205 0.7932 0.5031
H88 H 0.0031 0.7068 0.9205
H89 H 0.0795 0.9969 0.7068
H90 H 0.4969 0.5795 0.7932
H97 H 0.322804 0.99906 0.971721
Zn8_3 Zn 1.0000 0.00000(4) 0.7547
Zn7_3 Zn 1.00000(4) 0.7547 0.0000
Zn7_4 Zn 1.00000(4) 0.7547 1.0000
Zn8_4 Zn 1.0000 1.00000(4) 0.7547
Zn2_5 Zn 0.00000(4) 0.2453 0.0000
O1_5 O 0.00000(19) 0.3128 0.0000
O2_5 O -0.0000(2) 0.1786 0.0000
Zn12 Zn 0.50000(4) 0.2547 0.5000
N9_2 N 0.18524(8) 0.25061(8) 0.25752(9)
N14_2 N 0.24248(9) 0.24939(8) 0.31476(8)
N19_2 N 0.25752(9) 0.18524(8) 0.25061(8)
N22_2 N 0.31476(8) 0.24248(9) 0.24939(8)
N30_2 N 0.09334(9) 0.24518(10) 0.16776(9)
N33_2 N 0.33224(9) 0.25482(10) 0.40666(9)
H16_2 H 0.1122 0.2266 0.1697
H19_2 H 0.3303 0.2734 0.3878
C19_2 C 0.07186(10) 0.24654(14) 0.13095(11)
C22_2 C 0.36905(11) 0.25346(14) 0.42814(10)
O13_2 O 0.06127(10) 0.29433(13) 0.20468(10)
O16_2 O 0.29532(10) 0.20567(13) 0.43873(10)
C30_2 C 0.07990(12) 0.21772(14) 0.10348(12)
C33_2 C 0.39652(12) 0.28228(14) 0.42010(12)
H27_2 H 0.1002 0.1981 0.1087
H30_2 H 0.3913 0.3019 0.3998
C40_2 C 0.17272(10) 0.25246(12) 0.29576(11)
C43_2 C 0.20424(11) 0.24754(12) 0.32728(10)
C52_2 C 0.04251(14) 0.27631(15) 0.12248(13)
C55_2 C 0.37752(13) 0.22369(15) 0.45749(14)
H38_2 H 0.0362 0.2971 0.1413
H41_2 H 0.3587 0.2029 0.4638
C62_2 C 0.15861(11) 0.25499(11) 0.22729(10)
C66_2 C 0.27271(10) 0.24501(11) 0.34139(11)
H47_2 H 0.1678 0.2531 0.2001
H50_2 H 0.2999 0.2469 0.3322
N34_2 N 0.03106(9) 0.24661(14) 0.05818(9)
N44 N 0.44182(9) 0.25339(14) 0.46894(9)
C72_2 C 0.13185(13) 0.25929(15) 0.30543(12)
C77_2 C 0.19457(12) 0.24071(15) 0.36815(13)
H59_2 H 0.1229 0.2592 0.3327
H63_2 H 0.1673 0.2408 0.3771
C85_2 C 0.08815(14) 0.26906(16) 0.20001(14)
C88_2 C 0.29999(14) 0.23094(16) 0.41185(14)
C96_2 C 0.11816(11) 0.26216(12) 0.23468(11)
C97_2 C 0.26532(11) 0.23784(12) 0.38184(11)
C106_2 C 0.10498(12) 0.26625(18) 0.27375(14)
C110_2 C 0.22625(14) 0.23375(18) 0.39502(12)
H65_2 H 0.0778 0.2737 0.2792
H68_2 H 0.2208 0.2263 0.4222
C118_2 C 0.05814(13) 0.21676(15) 0.06701(13)
C121_2 C 0.43299(13) 0.28324(15) 0.44186(13)
H82_2 H 0.0623 0.1953 0.0484
H85_2 H 0.4516 0.3047 0.4377
C129_2 C 0.02333(13) 0.27376(15) 0.08545(13)
C132_2 C 0.41455(13) 0.22624(15) 0.47667(13)
H93_2 H 0.0031 0.2932 0.0795
H96_2 H 0.4205 0.2068 0.4969
H99_2 H 0.0240202 0.168596 0.0149536
Zn2_6 Zn 0.00000(4) 0.2453 1.0000
O1_6 O 0.00000(19) 0.3128 1.0000
O2_6 O 0.0000(2) 0.1786 1.0000
N2_2 N 0.16776(9) 0.24518(10) 0.90666(9)
H1_2 H 0.1697 0.2266 0.8878
C1_2 C 0.13095(11) 0.24654(14) 0.92814(10)
O3_2 O 0.20468(10) 0.29433(13) 0.93873(10)
C2_2 C 0.10348(12) 0.21772(14) 0.92010(12)
H2_2 H 0.1087 0.1981 0.8998
C3_2 C 0.29576(11) 0.25246(12) 0.82728(10)
C4_2 C 0.12248(13) 0.27631(15) 0.95749(14)
H3_2 H 0.1413 0.2971 0.9638
C5_2 C 0.22729(10) 0.25499(11) 0.84139(11)
H4_2 H 0.2001 0.2531 0.8322
N3_2 N 0.05818(9) 0.24661(14) 0.96894(9)
C6_2 C 0.30543(12) 0.25929(15) 0.86815(13)
H5_2 H 0.3327 0.2592 0.8771
C7_2 C 0.20001(14) 0.26906(16) 0.91185(14)
C8_2 C 0.23468(11) 0.26216(12) 0.88184(11)
C9_2 C 0.27375(14) 0.26625(18) 0.89502(12)
H6_2 H 0.2792 0.2737 0.9222
C10_2 C 0.06701(13) 0.21676(15) 0.94186(13)
H7_2 H 0.0484 0.1953 0.9377
C11_2 C 0.08545(13) 0.27376(15) 0.97667(13)
H8_2 H 0.0795 0.2932 0.9969
N23_2 N 0.40666(9) 0.25482(10) 0.66776(9)
N26_2 N 0.09334(9) 0.16776(9) 0.75482(10)
N27_2 N 0.33224(9) 0.40666(9) 0.74518(10)
H9_2 H 0.3878 0.2734 0.6697
H12_2 H 0.1122 0.1697 0.7734
H13_2 H 0.3303 0.3878 0.7266
C12_2 C 0.42814(10) 0.25346(14) 0.63095(11)
C15_2 C 0.07186(10) 0.13095(11) 0.75346(14)
C16_2 C 0.36905(11) 0.42814(10) 0.74654(14)
O6_2 O 0.43873(10) 0.20567(13) 0.70468(10)
O9_2 O 0.06127(10) 0.20468(10) 0.70567(13)
O10_2 O 0.29532(10) 0.43873(10) 0.79433(13)
C23_2 C 0.42010(12) 0.28228(14) 0.60348(12)
C26_2 C 0.39652(12) 0.42010(12) 0.71772(14)
C27_2 C 0.07990(12) 0.10348(12) 0.78228(14)
H20_2 H 0.3998 0.3019 0.6087
H23_2 H 0.1002 0.1087 0.8019
H24_2 H 0.3913 0.3998 0.6981
C34_2 C 0.32728(10) 0.24754(12) 0.79576(11)
C35_2 C 0.17272(10) 0.29576(11) 0.74754(12)
C37_2 C 0.20424(11) 0.32728(10) 0.75246(12)
C45_2 C 0.45749(14) 0.22369(15) 0.62248(13)
C48_2 C 0.37752(13) 0.45749(14) 0.77631(15)
C49_2 C 0.04251(14) 0.12248(13) 0.72369(15)
H31_2 H 0.4638 0.2029 0.6413
H34_2 H 0.0362 0.1413 0.7029
H35_2 H 0.3587 0.4638 0.7971
C56_2 C 0.34139(11) 0.24501(11) 0.72729(10)
C57_2 C 0.15861(11) 0.22729(10) 0.74501(11)
C59_2 C 0.27271(10) 0.34139(11) 0.75499(11)
H42_2 H 0.3322 0.2469 0.7001
H45_2 H 0.2999 0.3322 0.7531
H46_2 H 0.1678 0.2001 0.7469
N37 N 0.46894(9) 0.25339(14) 0.55818(9)
N40_2 N 0.03106(9) 0.05818(9) 0.75339(14)
N41_2 N 0.44182(9) 0.46894(9) 0.74661(14)
C67_2 C 0.36815(13) 0.24071(15) 0.80543(12)
C70_2 C 0.19457(12) 0.36815(13) 0.75929(15)
C71_2 C 0.13185(13) 0.30543(12) 0.74071(15)
H53_2 H 0.3771 0.2408 0.8327
H56_2 H 0.1673 0.3771 0.7592
H57_2 H 0.1229 0.3327 0.7408
C78_2 C 0.41185(14) 0.23094(16) 0.70001(14)
C81_2 C 0.29999(14) 0.41185(14) 0.76906(16)
C82_2 C 0.08815(14) 0.20001(14) 0.73094(16)
C89_2 C 0.38184(11) 0.23784(12) 0.73468(11)
C92_2 C 0.26532(11) 0.38184(11) 0.76216(12)
C93_2 C 0.11816(11) 0.23468(11) 0.73784(12)
C100_2 C 0.39502(12) 0.23375(18) 0.77375(14)
C103_2 C 0.22625(14) 0.39502(12) 0.76625(18)
C104_2 C 0.10498(12) 0.27375(14) 0.73375(18)
H64_2 H 0.4222 0.2263 0.7792
H73_2 H 0.2208 0.4222 0.7737
H74_2 H 0.0778 0.2792 0.7263
C111_2 C 0.44186(13) 0.28324(15) 0.56701(13)
C114_2 C 0.05814(13) 0.06701(13) 0.78324(15)
C115_2 C 0.43299(13) 0.44186(13) 0.71676(15)
H75_2 H 0.4377 0.3047 0.5484
H78_2 H 0.0623 0.0484 0.8047
H79_2 H 0.4516 0.4377 0.6953
C122_2 C 0.47667(13) 0.22624(15) 0.58545(13)
C125_2 C 0.02333(13) 0.08545(13) 0.72624(15)
C126_2 C 0.41455(13) 0.47667(13) 0.77376(15)
H86_2 H 0.4969 0.2068 0.5795
H89_2 H 0.0031 0.0795 0.7068
H90_2 H 0.4205 0.4969 0.7932
H97_2 H 0.000940087 0.322804 0.971721
Zn2_7 Zn 1.00000(4) 0.2453 0.0000
O1_7 O 1.00000(19) 0.3128 0.0000
O2_7 O 1.0000(2) 0.1786 0.0000
Zn5_2 Zn 0.7500 0.2500 0.2500
N11_2 N 0.74248(9) 0.25061(8) 0.18524(8)
N13_2 N 0.68524(8) 0.24939(8) 0.24248(9)
O4_2 O 0.50000(19) 0.1872 0.5000
O5_2 O 0.5000(2) 0.3214 0.5000
N29_2 N 0.83224(9) 0.24518(10) 0.09334(9)
N32_2 N 0.59334(9) 0.25482(10) 0.33224(9)
H15_2 H 0.8303 0.2266 0.1122
H17_2 H 0.6122 0.2734 0.3303
C18_2 C 0.86905(11) 0.24654(14) 0.07186(10)
C20_2 C 0.57186(10) 0.25346(14) 0.36905(11)
O12_2 O 0.79532(10) 0.29433(13) 0.06127(10)
O15_2 O 0.56127(10) 0.20567(13) 0.29532(10)
C29_2 C 0.89652(12) 0.21772(14) 0.07990(12)
C31_2 C 0.57990(12) 0.28228(14) 0.39652(12)
H26_2 H 0.8913 0.1981 0.1002
H29_2 H 0.6002 0.3019 0.3913
C41_2 C 0.70424(11) 0.25246(12) 0.17272(10)
C44_2 C 0.67272(10) 0.24754(12) 0.20424(11)
C51_2 C 0.87752(13) 0.27631(15) 0.04251(14)
C53_2 C 0.54251(14) 0.22369(15) 0.37752(13)
H37_2 H 0.8587 0.2971 0.0362
H40_2 H 0.5362 0.2029 0.3587
C63_2 C 0.77271(10) 0.25499(11) 0.15861(11)
C65_2 C 0.65861(11) 0.24501(11) 0.27271(10)
H49_2 H 0.7999 0.2531 0.1678
H51_2 H 0.6678 0.2469 0.2999
N36_2 N 0.94182(9) 0.24661(14) 0.03106(9)
N43_2 N 0.53106(9) 0.25339(14) 0.44182(9)
N46_2 N 0.55818(9) 0.25339(14) 0.53106(9)
C74_2 C 0.69457(12) 0.25929(15) 0.13185(13)
C76_2 C 0.63185(13) 0.24071(15) 0.19457(12)
H60_2 H 0.6673 0.2592 0.1229
H62_2 H 0.6229 0.2408 0.1673
C84_2 C 0.79999(14) 0.26906(16) 0.08815(14)
C87_2 C 0.58815(14) 0.23094(16) 0.29999(14)
C95_2 C 0.76532(11) 0.26216(12) 0.11816(11)
C98_2 C 0.61816(11) 0.23784(12) 0.26532(11)
C107_2 C 0.72625(14) 0.26625(18) 0.10498(12)
C109_2 C 0.60498(12) 0.23375(18) 0.22625(14)
H67_2 H 0.7208 0.2737 0.0778
H69_2 H 0.5778 0.2263 0.2208
C117_2 C 0.93299(13) 0.21676(15) 0.05814(13)
C120_2 C 0.55814(13) 0.28324(15) 0.43299(13)
H81_2 H 0.9516 0.1953 0.0623
H84_2 H 0.5623 0.3047 0.4516
C128_2 C 0.91455(13) 0.27376(15) 0.02333(13)
C131_2 C 0.52333(13) 0.22624(15) 0.41455(13)
H92_2 H 0.9205 0.2932 0.0031
H95_2 H 0.5031 0.2068 0.4205
H98_2 H 0.97504 0.322804 0.0133253
H100_2 H 0.97504 0.168596 0.0133253
Zn2_8 Zn 1.00000(4) 0.2453 1.0000
O1_8 O 1.00000(19) 0.3128 1.0000
O2_8 O 1.0000(2) 0.1786 1.0000
Zn3_2 Zn 0.7500 0.2500 0.7500
N10_2 N 0.81476(8) 0.25061(8) 0.74248(9)
N12_2 N 0.75752(9) 0.24939(8) 0.68524(8)
N15_2 N 0.74939(8) 0.25752(9) 0.81476(8)
N16_2 N 0.74248(9) 0.18524(8) 0.74939(8)
N17_2 N 0.68524(8) 0.24248(9) 0.75061(8)
N18_2 N 0.75061(8) 0.31476(8) 0.75752(9)
N28_2 N 0.90666(9) 0.24518(10) 0.83224(9)
N31_2 N 0.66776(9) 0.25482(10) 0.59334(9)
H14_2 H 0.8878 0.2266 0.8303
H18_2 H 0.6697 0.2734 0.6122
C17_2 C 0.92814(10) 0.24654(14) 0.86905(11)
C21_2 C 0.63095(11) 0.25346(14) 0.57186(10)
O11_2 O 0.93873(10) 0.29433(13) 0.79532(10)
O14_2 O 0.70468(10) 0.20567(13) 0.56127(10)
C28_2 C 0.92010(12) 0.21772(14) 0.89652(12)
C32_2 C 0.60348(12) 0.28228(14) 0.57990(12)
H25_2 H 0.8998 0.1981 0.8913
H28_2 H 0.6087 0.3019 0.6002
C39_2 C 0.82728(10) 0.25246(12) 0.70424(11)
C42_2 C 0.79576(11) 0.24754(12) 0.67272(10)
C50_2 C 0.95749(14) 0.27631(15) 0.87752(13)
C54_2 C 0.62248(13) 0.22369(15) 0.54251(14)
H36_2 H 0.9638 0.2971 0.8587
H39_2 H 0.6413 0.2029 0.5362
C61_2 C 0.84139(11) 0.25499(11) 0.77271(10)
C64_2 C 0.72729(10) 0.24501(11) 0.65861(11)
H48_2 H 0.8322 0.2531 0.7999
H52_2 H 0.7001 0.2469 0.6678
N35_2 N 0.96894(9) 0.24661(14) 0.94182(9)
C73_2 C 0.86815(13) 0.25929(15) 0.69457(12)
C75_2 C 0.80543(12) 0.24071(15) 0.63185(13)
H58_2 H 0.8771 0.2592 0.6673
H61_2 H 0.8327 0.2408 0.6229
C83_2 C 0.91185(14) 0.26906(16) 0.79999(14)
C86_2 C 0.70001(14) 0.23094(16) 0.58815(14)
C94_2 C 0.88184(11) 0.26216(12) 0.76532(11)
C99_2 C 0.73468(11) 0.23784(12) 0.61816(11)
C105_2 C 0.89502(12) 0.26625(18) 0.72625(14)
C108_2 C 0.77375(14) 0.23375(18) 0.60498(12)
H66_2 H 0.9222 0.2737 0.7208
H70_2 H 0.7792 0.2263 0.5778
C116_2 C 0.94186(13) 0.21676(15) 0.93299(13)
C119_2 C 0.56701(13) 0.28324(15) 0.55814(13)
H80_2 H 0.9377 0.1953 0.9516
H83_2 H 0.5484 0.3047 0.5623
C127_2 C 0.97667(13) 0.27376(15) 0.91455(13)
C130_2 C 0.58545(13) 0.22624(15) 0.52333(13)
H91_2 H 0.9969 0.2932 0.9205
H94_2 H 0.5795 0.2068 0.5031
Zn2_9 Zn 0.7547 0.00000(4) 0.0000
O1_9 O 0.6872 0.00000(19) 0.0000
O2_9 O 0.8214 0.0000(2) 0.0000
Zn12_2 Zn 0.7453 0.50000(4) 0.5000
N9_3 N 0.74939(8) 0.18524(8) 0.25752(9)
N14_3 N 0.75061(8) 0.24248(9) 0.31476(8)
N19_3 N 0.81476(8) 0.25752(9) 0.25061(8)
N22_3 N 0.75752(9) 0.31476(8) 0.24939(8)
N30_3 N 0.75482(10) 0.09334(9) 0.16776(9)
N33_3 N 0.74518(10) 0.33224(9) 0.40666(9)
H16_3 H 0.7734 0.1122 0.1697
H19_3 H 0.7266 0.3303 0.3878
C19_3 C 0.75346(14) 0.07186(10) 0.13095(11)
C22_3 C 0.74654(14) 0.36905(11) 0.42814(10)
O13_3 O 0.70567(13) 0.06127(10) 0.20468(10)
O16_3 O 0.79433(13) 0.29532(10) 0.43873(10)
C30_3 C 0.78228(14) 0.07990(12) 0.10348(12)
C33_3 C 0.71772(14) 0.39652(12) 0.42010(12)
H27_3 H 0.8019 0.1002 0.1087
H30_3 H 0.6981 0.3913 0.3998
C40_3 C 0.74754(12) 0.17272(10) 0.29576(11)
C43_3 C 0.75246(12) 0.20424(11) 0.32728(10)
C52_3 C 0.72369(15) 0.04251(14) 0.12248(13)
C55_3 C 0.77631(15) 0.37752(13) 0.45749(14)
H38_3 H 0.7029 0.0362 0.1413
H41_3 H 0.7971 0.3587 0.4638
C62_3 C 0.74501(11) 0.15861(11) 0.22729(10)
C66_3 C 0.75499(11) 0.27271(10) 0.34139(11)
H47_3 H 0.7469 0.1678 0.2001
H50_3 H 0.7531 0.2999 0.3322
N34_3 N 0.75339(14) 0.03106(9) 0.05818(9)
N44_2 N 0.74661(14) 0.44182(9) 0.46894(9)
C72_3 C 0.74071(15) 0.13185(13) 0.30543(12)
C77_3 C 0.75929(15) 0.19457(12) 0.36815(13)
H59_3 H 0.7408 0.1229 0.3327
H63_3 H 0.7592 0.1673 0.3771
C85_3 C 0.73094(16) 0.08815(14) 0.20001(14)
C88_3 C 0.76906(16) 0.29999(14) 0.41185(14)
C96_3 C 0.73784(12) 0.11816(11) 0.23468(11)
C97_3 C 0.76216(12) 0.26532(11) 0.38184(11)
C106_3 C 0.73375(18) 0.10498(12) 0.27375(14)
C110_3 C 0.76625(18) 0.22625(14) 0.39502(12)
H65_3 H 0.7263 0.0778 0.2792
H68_3 H 0.7737 0.2208 0.4222
C118_3 C 0.78324(15) 0.05814(13) 0.06701(13)
C121_3 C 0.71676(15) 0.43299(13) 0.44186(13)
H82_3 H 0.8047 0.0623 0.0484
H85_3 H 0.6953 0.4516 0.4377
C129_3 C 0.72624(15) 0.02333(13) 0.08545(13)
C132_3 C 0.77376(15) 0.41455(13) 0.47667(13)
H93_3 H 0.7068 0.0031 0.0795
H96_3 H 0.7932 0.4205 0.4969
H99_3 H 0.831404 0.0240202 0.0149536
Zn2_10 Zn 0.7547 0.00000(4) 1.0000
O1_10 O 0.6872 0.00000(19) 1.0000
O2_10 O 0.8214 0.0000(2) 1.0000
N2_3 N 0.75482(10) 0.16776(9) 0.90666(9)
H1_3 H 0.7734 0.1697 0.8878
C1_3 C 0.75346(14) 0.13095(11) 0.92814(10)
O3_3 O 0.70567(13) 0.20468(10) 0.93873(10)
C2_3 C 0.78228(14) 0.10348(12) 0.92010(12)
H2_3 H 0.8019 0.1087 0.8998
C3_3 C 0.74754(12) 0.29576(11) 0.82728(10)
C4_3 C 0.72369(15) 0.12248(13) 0.95749(14)
H3_3 H 0.7029 0.1413 0.9638
C5_3 C 0.74501(11) 0.22729(10) 0.84139(11)
H4_3 H 0.7469 0.2001 0.8322
N3_3 N 0.75339(14) 0.05818(9) 0.96894(9)
C6_3 C 0.74071(15) 0.30543(12) 0.86815(13)
H5_3 H 0.7408 0.3327 0.8771
C7_3 C 0.73094(16) 0.20001(14) 0.91185(14)
C8_3 C 0.73784(12) 0.23468(11) 0.88184(11)
C9_3 C 0.73375(18) 0.27375(14) 0.89502(12)
H6_3 H 0.7263 0.2792 0.9222
C10_3 C 0.78324(15) 0.06701(13) 0.94186(13)
H7_3 H 0.8047 0.0484 0.9377
C11_3 C 0.72624(15) 0.08545(13) 0.97667(13)
H8_3 H 0.7068 0.0795 0.9969
N23_3 N 0.74518(10) 0.40666(9) 0.66776(9)
N26_3 N 0.83224(9) 0.09334(9) 0.75482(10)
N27_3 N 0.59334(9) 0.33224(9) 0.74518(10)
H9_3 H 0.7266 0.3878 0.6697
H12_3 H 0.8303 0.1122 0.7734
H13_3 H 0.6122 0.3303 0.7266
C12_3 C 0.74654(14) 0.42814(10) 0.63095(11)
C15_3 C 0.86905(11) 0.07186(10) 0.75346(14)
C16_3 C 0.57186(10) 0.36905(11) 0.74654(14)
O6_3 O 0.79433(13) 0.43873(10) 0.70468(10)
O9_3 O 0.79532(10) 0.06127(10) 0.70567(13)
O10_3 O 0.56127(10) 0.29532(10) 0.79433(13)
C23_3 C 0.71772(14) 0.42010(12) 0.60348(12)
C26_3 C 0.57990(12) 0.39652(12) 0.71772(14)
C27_3 C 0.89652(12) 0.07990(12) 0.78228(14)
H20_3 H 0.6981 0.3998 0.6087
H23_3 H 0.8913 0.1002 0.8019
H24_3 H 0.6002 0.3913 0.6981
C34_3 C 0.75246(12) 0.32728(10) 0.79576(11)
C35_3 C 0.70424(11) 0.17272(10) 0.74754(12)
C37_3 C 0.67272(10) 0.20424(11) 0.75246(12)
C45_3 C 0.77631(15) 0.45749(14) 0.62248(13)
C48_3 C 0.54251(14) 0.37752(13) 0.77631(15)
C49_3 C 0.87752(13) 0.04251(14) 0.72369(15)
H31_3 H 0.7971 0.4638 0.6413
H34_3 H 0.8587 0.0362 0.7029
H35_3 H 0.5362 0.3587 0.7971
C56_3 C 0.75499(11) 0.34139(11) 0.72729(10)
C57_3 C 0.77271(10) 0.15861(11) 0.74501(11)
C59_3 C 0.65861(11) 0.27271(10) 0.75499(11)
H42_3 H 0.7531 0.3322 0.7001
H45_3 H 0.6678 0.2999 0.7531
H46_3 H 0.7999 0.1678 0.7469
N37_2 N 0.74661(14) 0.46894(9) 0.55818(9)
N40_3 N 0.94182(9) 0.03106(9) 0.75339(14)
N41_3 N 0.53106(9) 0.44182(9) 0.74661(14)
C67_3 C 0.75929(15) 0.36815(13) 0.80543(12)
C70_3 C 0.63185(13) 0.19457(12) 0.75929(15)
C71_3 C 0.69457(12) 0.13185(13) 0.74071(15)
H53_3 H 0.7592 0.3771 0.8327
H56_3 H 0.6229 0.1673 0.7592
H57_3 H 0.6673 0.1229 0.7408
C78_3 C 0.76906(16) 0.41185(14) 0.70001(14)
C81_3 C 0.58815(14) 0.29999(14) 0.76906(16)
C82_3 C 0.79999(14) 0.08815(14) 0.73094(16)
C89_3 C 0.76216(12) 0.38184(11) 0.73468(11)
C92_3 C 0.61816(11) 0.26532(11) 0.76216(12)
C93_3 C 0.76532(11) 0.11816(11) 0.73784(12)
C100_3 C 0.76625(18) 0.39502(12) 0.77375(14)
C103_3 C 0.60498(12) 0.22625(14) 0.76625(18)
C104_3 C 0.72625(14) 0.10498(12) 0.73375(18)
H64_3 H 0.7737 0.4222 0.7792
H73_3 H 0.5778 0.2208 0.7737
H74_3 H 0.7208 0.0778 0.7263
C111_3 C 0.71676(15) 0.44186(13) 0.56701(13)
C114_3 C 0.93299(13) 0.05814(13) 0.78324(15)
C115_3 C 0.55814(13) 0.43299(13) 0.71676(15)
H75_3 H 0.6953 0.4377 0.5484
H78_3 H 0.9516 0.0623 0.8047
H79_3 H 0.5623 0.4516 0.6953
C122_3 C 0.77376(15) 0.47667(13) 0.58545(13)
C125_3 C 0.91455(13) 0.02333(13) 0.72624(15)
C126_3 C 0.52333(13) 0.41455(13) 0.77376(15)
H86_3 H 0.7932 0.4969 0.5795
H89_3 H 0.9205 0.0031 0.7068
H90_3 H 0.5031 0.4205 0.7932
H97_3 H 0.677196 0.000940087 0.971721
Zn2_11 Zn 0.7547 1.00000(4) 0.0000
O1_11 O 0.6872 1.00000(19) 0.0000
O2_11 O 0.8214 1.0000(2) 0.0000
Zn5_3 Zn 0.7500 0.7500 0.2500
N11_3 N 0.74939(8) 0.74248(9) 0.18524(8)
N13_3 N 0.75061(8) 0.68524(8) 0.24248(9)
O4_3 O 0.8128 0.50000(19) 0.5000
O5_3 O 0.6786 0.5000(2) 0.5000
N29_3 N 0.75482(10) 0.83224(9) 0.09334(9)
N32_3 N 0.74518(10) 0.59334(9) 0.33224(9)
H15_3 H 0.7734 0.8303 0.1122
H17_3 H 0.7266 0.6122 0.3303
C18_3 C 0.75346(14) 0.86905(11) 0.07186(10)
C20_3 C 0.74654(14) 0.57186(10) 0.36905(11)
O12_3 O 0.70567(13) 0.79532(10) 0.06127(10)
O15_3 O 0.79433(13) 0.56127(10) 0.29532(10)
C29_3 C 0.78228(14) 0.89652(12) 0.07990(12)
C31_3 C 0.71772(14) 0.57990(12) 0.39652(12)
H26_3 H 0.8019 0.8913 0.1002
H29_3 H 0.6981 0.6002 0.3913
C41_3 C 0.74754(12) 0.70424(11) 0.17272(10)
C44_3 C 0.75246(12) 0.67272(10) 0.20424(11)
C51_3 C 0.72369(15) 0.87752(13) 0.04251(14)
C53_3 C 0.77631(15) 0.54251(14) 0.37752(13)
H37_3 H 0.7029 0.8587 0.0362
H40_3 H 0.7971 0.5362 0.3587
C63_3 C 0.74501(11) 0.77271(10) 0.15861(11)
C65_3 C 0.75499(11) 0.65861(11) 0.27271(10)
H49_3 H 0.7469 0.7999 0.1678
H51_3 H 0.7531 0.6678 0.2999
N36_3 N 0.75339(14) 0.94182(9) 0.03106(9)
N43_3 N 0.74661(14) 0.53106(9) 0.44182(9)
N46_3 N 0.74661(14) 0.55818(9) 0.53106(9)
C74_3 C 0.74071(15) 0.69457(12) 0.13185(13)
C76_3 C 0.75929(15) 0.63185(13) 0.19457(12)
H60_3 H 0.7408 0.6673 0.1229
H62_3 H 0.7592 0.6229 0.1673
C84_3 C 0.73094(16) 0.79999(14) 0.08815(14)
C87_3 C 0.76906(16) 0.58815(14) 0.29999(14)
C95_3 C 0.73784(12) 0.76532(11) 0.11816(11)
C98_3 C 0.76216(12) 0.61816(11) 0.26532(11)
C107_3 C 0.73375(18) 0.72625(14) 0.10498(12)
C109_3 C 0.76625(18) 0.60498(12) 0.22625(14)
H67_3 H 0.7263 0.7208 0.0778
H69_3 H 0.7737 0.5778 0.2208
C117_3 C 0.78324(15) 0.93299(13) 0.05814(13)
C120_3 C 0.71676(15) 0.55814(13) 0.43299(13)
H81_3 H 0.8047 0.9516 0.0623
H84_3 H 0.6953 0.5623 0.4516
C128_3 C 0.72624(15) 0.91455(13) 0.02333(13)
C131_3 C 0.77376(15) 0.52333(13) 0.41455(13)
H92_3 H 0.7068 0.9205 0.0031
H95_3 H 0.7932 0.5031 0.4205
H98_3 H 0.677196 0.97504 0.0133253
H100_3 H 0.831404 0.97504 0.0133253
Zn2_12 Zn 0.7547 1.00000(4) 1.0000
O1_12 O 0.6872 1.00000(19) 1.0000
O2_12 O 0.8214 1.0000(2) 1.0000
Zn3_3 Zn 0.7500 0.7500 0.7500
N10_3 N 0.74939(8) 0.81476(8) 0.74248(9)
N12_3 N 0.75061(8) 0.75752(9) 0.68524(8)
N15_3 N 0.74248(9) 0.74939(8) 0.81476(8)
N16_3 N 0.81476(8) 0.74248(9) 0.74939(8)
N17_3 N 0.75752(9) 0.68524(8) 0.75061(8)
N18_3 N 0.68524(8) 0.75061(8) 0.75752(9)
N28_3 N 0.75482(10) 0.90666(9) 0.83224(9)
N31_3 N 0.74518(10) 0.66776(9) 0.59334(9)
H14_3 H 0.7734 0.8878 0.8303
H18_3 H 0.7266 0.6697 0.6122
C17_3 C 0.75346(14) 0.92814(10) 0.86905(11)
C21_3 C 0.74654(14) 0.63095(11) 0.57186(10)
O11_3 O 0.70567(13) 0.93873(10) 0.79532(10)
O14_3 O 0.79433(13) 0.70468(10) 0.56127(10)
C28_3 C 0.78228(14) 0.92010(12) 0.89652(12)
C32_3 C 0.71772(14) 0.60348(12) 0.57990(12)
H25_3 H 0.8019 0.8998 0.8913
H28_3 H 0.6981 0.6087 0.6002
C39_3 C 0.74754(12) 0.82728(10) 0.70424(11)
C42_3 C 0.75246(12) 0.79576(11) 0.67272(10)
C50_3 C 0.72369(15) 0.95749(14) 0.87752(13)
C54_3 C 0.77631(15) 0.62248(13) 0.54251(14)
H36_3 H 0.7029 0.9638 0.8587
H39_3 H 0.7971 0.6413 0.5362
C61_3 C 0.74501(11) 0.84139(11) 0.77271(10)
C64_3 C 0.75499(11) 0.72729(10) 0.65861(11)
H48_3 H 0.7469 0.8322 0.7999
H52_3 H 0.7531 0.7001 0.6678
N35_3 N 0.75339(14) 0.96894(9) 0.94182(9)
C73_3 C 0.74071(15) 0.86815(13) 0.69457(12)
C75_3 C 0.75929(15) 0.80543(12) 0.63185(13)
H58_3 H 0.7408 0.8771 0.6673
H61_3 H 0.7592 0.8327 0.6229
C83_3 C 0.73094(16) 0.91185(14) 0.79999(14)
C86_3 C 0.76906(16) 0.70001(14) 0.58815(14)
C94_3 C 0.73784(12) 0.88184(11) 0.76532(11)
C99_3 C 0.76216(12) 0.73468(11) 0.61816(11)
C105_3 C 0.73375(18) 0.89502(12) 0.72625(14)
C108_3 C 0.76625(18) 0.77375(14) 0.60498(12)
H66_3 H 0.7263 0.9222 0.7208
H70_3 H 0.7737 0.7792 0.5778
C116_3 C 0.78324(15) 0.94186(13) 0.93299(13)
C119_3 C 0.71676(15) 0.56701(13) 0.55814(13)
H80_3 H 0.8047 0.9377 0.9516
H83_3 H 0.6953 0.5484 0.5623
C127_3 C 0.72624(15) 0.97667(13) 0.91455(13)
C130_3 C 0.77376(15) 0.58545(13) 0.52333(13)
H91_3 H 0.7068 0.9969 0.9205
H94_3 H 0.7932 0.5795 0.5031
O1_13 O -0.00000(19) 0.6872 0.0000
O2_13 O 0.0000(2) 0.8214 0.0000
O4_4 O 0.50000(19) 0.8128 0.5000
O5_4 O 0.5000(2) 0.6786 0.5000
N29_4 N 0.16776(9) 0.75482(10) 0.09334(9)
N32_4 N 0.40666(9) 0.74518(10) 0.33224(9)
H15_4 H 0.1697 0.7734 0.1122
H17_4 H 0.3878 0.7266 0.3303
C18_4 C 0.13095(11) 0.75346(14) 0.07186(10)
C20_4 C 0.42814(10) 0.74654(14) 0.36905(11)
O12_4 O 0.20468(10) 0.70567(13) 0.06127(10)
O15_4 O 0.43873(10) 0.79433(13) 0.29532(10)
C29_4 C 0.10348(12) 0.78228(14) 0.07990(12)
C31_4 C 0.42010(12) 0.71772(14) 0.39652(12)
H26_4 H 0.1087 0.8019 0.1002
H29_4 H 0.3998 0.6981 0.3913
C41_4 C 0.29576(11) 0.74754(12) 0.17272(10)
C44_4 C 0.32728(10) 0.75246(12) 0.20424(11)
C51_4 C 0.12248(13) 0.72369(15) 0.04251(14)
C53_4 C 0.45749(14) 0.77631(15) 0.37752(13)
H37_4 H 0.1413 0.7029 0.0362
H40_4 H 0.4638 0.7971 0.3587
C63_4 C 0.22729(10) 0.74501(11) 0.15861(11)
C65_4 C 0.34139(11) 0.75499(11) 0.27271(10)
H49_4 H 0.2001 0.7469 0.1678
H51_4 H 0.3322 0.7531 0.2999
N36_4 N 0.05818(9) 0.75339(14) 0.03106(9)
N43_4 N 0.46894(9) 0.74661(14) 0.44182(9)
N45_2 N 0.55818(9) 0.74661(14) 0.46894(9)
N47_2 N 0.53106(9) 0.74661(14) 0.55818(9)
C74_4 C 0.30543(12) 0.74071(15) 0.13185(13)
C76_4 C 0.36815(13) 0.75929(15) 0.19457(12)
H60_4 H 0.3327 0.7408 0.1229
H62_4 H 0.3771 0.7592 0.1673
C84_4 C 0.20001(14) 0.73094(16) 0.08815(14)
C87_4 C 0.41185(14) 0.76906(16) 0.29999(14)
C95_4 C 0.23468(11) 0.73784(12) 0.11816(11)
C98_4 C 0.38184(11) 0.76216(12) 0.26532(11)
C107_4 C 0.27375(14) 0.73375(18) 0.10498(12)
C109_4 C 0.39502(12) 0.76625(18) 0.22625(14)
H67_4 H 0.2792 0.7263 0.0778
H69_4 H 0.4222 0.7737 0.2208
C117_4 C 0.06701(13) 0.78324(15) 0.05814(13)
C120_4 C 0.44186(13) 0.71676(15) 0.43299(13)
H81_4 H 0.0484 0.8047 0.0623
H84_4 H 0.4377 0.6953 0.4516
C128_4 C 0.08545(13) 0.72624(15) 0.02333(13)
C131_4 C 0.47667(13) 0.77376(15) 0.41455(13)
H92_4 H 0.0795 0.7068 0.0031
H95_4 H 0.4969 0.7932 0.4205
H98_4 H 0.0249603 0.677196 0.0133253
H100_4 H 0.0249603 0.831404 0.0133253
O1_14 O -0.00000(19) 0.6872 1.0000
O2_14 O 0.0000(2) 0.8214 1.0000
O1_15 O 1.00000(19) 0.6872 0.0000
O2_15 O 1.0000(2) 0.8214 0.0000
N9_4 N 0.81476(8) 0.74939(8) 0.25752(9)
N14_4 N 0.75752(9) 0.75061(8) 0.31476(8)
N19_4 N 0.74248(9) 0.81476(8) 0.25061(8)
N22_4 N 0.68524(8) 0.75752(9) 0.24939(8)
N30_4 N 0.90666(9) 0.75482(10) 0.16776(9)
N33_4 N 0.66776(9) 0.74518(10) 0.40666(9)
H16_4 H 0.8878 0.7734 0.1697
H19_4 H 0.6697 0.7266 0.3878
C19_4 C 0.92814(10) 0.75346(14) 0.13095(11)
C22_4 C 0.63095(11) 0.74654(14) 0.42814(10)
O13_4 O 0.93873(10) 0.70567(13) 0.20468(10)
O16_4 O 0.70468(10) 0.79433(13) 0.43873(10)
C30_4 C 0.92010(12) 0.78228(14) 0.10348(12)
C33_4 C 0.60348(12) 0.71772(14) 0.42010(12)
H27_4 H 0.8998 0.8019 0.1087
H30_4 H 0.6087 0.6981 0.3998
C40_4 C 0.82728(10) 0.74754(12) 0.29576(11)
C43_4 C 0.79576(11) 0.75246(12) 0.32728(10)
C52_4 C 0.95749(14) 0.72369(15) 0.12248(13)
C55_4 C 0.62248(13) 0.77631(15) 0.45749(14)
H38_4 H 0.9638 0.7029 0.1413
H41_4 H 0.6413 0.7971 0.4638
C62_4 C 0.84139(11) 0.74501(11) 0.22729(10)
C66_4 C 0.72729(10) 0.75499(11) 0.34139(11)
H47_4 H 0.8322 0.7469 0.2001
H50_4 H 0.7001 0.7531 0.3322
N34_4 N 0.96894(9) 0.75339(14) 0.05818(9)
C72_4 C 0.86815(13) 0.74071(15) 0.30543(12)
C77_4 C 0.80543(12) 0.75929(15) 0.36815(13)
H59_4 H 0.8771 0.7408 0.3327
H63_4 H 0.8327 0.7592 0.3771
C85_4 C 0.91185(14) 0.73094(16) 0.20001(14)
C88_4 C 0.70001(14) 0.76906(16) 0.41185(14)
C96_4 C 0.88184(11) 0.73784(12) 0.23468(11)
C97_4 C 0.73468(11) 0.76216(12) 0.38184(11)
C106_4 C 0.89502(12) 0.73375(18) 0.27375(14)
C110_4 C 0.77375(14) 0.76625(18) 0.39502(12)
H65_4 H 0.9222 0.7263 0.2792
H68_4 H 0.7792 0.7737 0.4222
C118_4 C 0.94186(13) 0.78324(15) 0.06701(13)
C121_4 C 0.56701(13) 0.71676(15) 0.44186(13)
H82_4 H 0.9377 0.8047 0.0484
H85_4 H 0.5484 0.6953 0.4377
C129_4 C 0.97667(13) 0.72624(15) 0.08545(13)
C132_4 C 0.58545(13) 0.77376(15) 0.47667(13)
H93_4 H 0.9969 0.7068 0.0795
H96_4 H 0.5795 0.7932 0.4969
H99_4 H 0.97598 0.831404 0.0149536
O1_16 O 1.00000(19) 0.6872 1.0000
O2_16 O 1.0000(2) 0.8214 1.0000
N2_4 N 0.83224(9) 0.75482(10) 0.90666(9)
H1_4 H 0.8303 0.7734 0.8878
C1_4 C 0.86905(11) 0.75346(14) 0.92814(10)
O3_4 O 0.79532(10) 0.70567(13) 0.93873(10)
C2_4 C 0.89652(12) 0.78228(14) 0.92010(12)
H2_4 H 0.8913 0.8019 0.8998
C3_4 C 0.70424(11) 0.74754(12) 0.82728(10)
C4_4 C 0.87752(13) 0.72369(15) 0.95749(14)
H3_4 H 0.8587 0.7029 0.9638
C5_4 C 0.77271(10) 0.74501(11) 0.84139(11)
H4_4 H 0.7999 0.7469 0.8322
N3_4 N 0.94182(9) 0.75339(14) 0.96894(9)
C6_4 C 0.69457(12) 0.74071(15) 0.86815(13)
H5_4 H 0.6673 0.7408 0.8771
C7_4 C 0.79999(14) 0.73094(16) 0.91185(14)
C8_4 C 0.76532(11) 0.73784(12) 0.88184(11)
C9_4 C 0.72625(14) 0.73375(18) 0.89502(12)
H6_4 H 0.7208 0.7263 0.9222
C10_4 C 0.93299(13) 0.78324(15) 0.94186(13)
H7_4 H 0.9516 0.8047 0.9377
C11_4 C 0.91455(13) 0.72624(15) 0.97667(13)
H8_4 H 0.9205 0.7068 0.9969
N23_4 N 0.59334(9) 0.74518(10) 0.66776(9)
N26_4 N 0.90666(9) 0.83224(9) 0.75482(10)
N27_4 N 0.66776(9) 0.59334(9) 0.74518(10)
H9_4 H 0.6122 0.7266 0.6697
H12_4 H 0.8878 0.8303 0.7734
H13_4 H 0.6697 0.6122 0.7266
C12_4 C 0.57186(10) 0.74654(14) 0.63095(11)
C15_4 C 0.92814(10) 0.86905(11) 0.75346(14)
C16_4 C 0.63095(11) 0.57186(10) 0.74654(14)
O6_4 O 0.56127(10) 0.79433(13) 0.70468(10)
O9_4 O 0.93873(10) 0.79532(10) 0.70567(13)
O10_4 O 0.70468(10) 0.56127(10) 0.79433(13)
C23_4 C 0.57990(12) 0.71772(14) 0.60348(12)
C26_4 C 0.60348(12) 0.57990(12) 0.71772(14)
C27_4 C 0.92010(12) 0.89652(12) 0.78228(14)
H20_4 H 0.6002 0.6981 0.6087
H23_4 H 0.8998 0.8913 0.8019
H24_4 H 0.6087 0.6002 0.6981
C34_4 C 0.67272(10) 0.75246(12) 0.79576(11)
C35_4 C 0.82728(10) 0.70424(11) 0.74754(12)
C37_4 C 0.79576(11) 0.67272(10) 0.75246(12)
C45_4 C 0.54251(14) 0.77631(15) 0.62248(13)
C48_4 C 0.62248(13) 0.54251(14) 0.77631(15)
C49_4 C 0.95749(14) 0.87752(13) 0.72369(15)
H31_4 H 0.5362 0.7971 0.6413
H34_4 H 0.9638 0.8587 0.7029
H35_4 H 0.6413 0.5362 0.7971
C56_4 C 0.65861(11) 0.75499(11) 0.72729(10)
C57_4 C 0.84139(11) 0.77271(10) 0.74501(11)
C59_4 C 0.72729(10) 0.65861(11) 0.75499(11)
H42_4 H 0.6678 0.7531 0.7001
H45_4 H 0.7001 0.6678 0.7531
H46_4 H 0.8322 0.7999 0.7469
N40_4 N 0.96894(9) 0.94182(9) 0.75339(14)
N41_4 N 0.55818(9) 0.53106(9) 0.74661(14)
C67_4 C 0.63185(13) 0.75929(15) 0.80543(12)
C70_4 C 0.80543(12) 0.63185(13) 0.75929(15)
C71_4 C 0.86815(13) 0.69457(12) 0.74071(15)
H53_4 H 0.6229 0.7592 0.8327
H56_4 H 0.8327 0.6229 0.7592
H57_4 H 0.8771 0.6673 0.7408
C78_4 C 0.58815(14) 0.76906(16) 0.70001(14)
C81_4 C 0.70001(14) 0.58815(14) 0.76906(16)
C82_4 C 0.91185(14) 0.79999(14) 0.73094(16)
C89_4 C 0.61816(11) 0.76216(12) 0.73468(11)
C92_4 C 0.73468(11) 0.61816(11) 0.76216(12)
C93_4 C 0.88184(11) 0.76532(11) 0.73784(12)
C100_4 C 0.60498(12) 0.76625(18) 0.77375(14)
C103_4 C 0.77375(14) 0.60498(12) 0.76625(18)
C104_4 C 0.89502(12) 0.72625(14) 0.73375(18)
H64_4 H 0.5778 0.7737 0.7792
H73_4 H 0.7792 0.5778 0.7737
H74_4 H 0.9222 0.7208 0.7263
C111_4 C 0.55814(13) 0.71676(15) 0.56701(13)
C114_4 C 0.94186(13) 0.93299(13) 0.78324(15)
C115_4 C 0.56701(13) 0.55814(13) 0.71676(15)
H75_4 H 0.5623 0.6953 0.5484
H78_4 H 0.9377 0.9516 0.8047
H79_4 H 0.5484 0.5623 0.6953
C122_4 C 0.52333(13) 0.77376(15) 0.58545(13)
C125_4 C 0.97667(13) 0.91455(13) 0.72624(15)
C126_4 C 0.58545(13) 0.52333(13) 0.77376(15)
H86_4 H 0.5031 0.7932 0.5795
H89_4 H 0.9969 0.9205 0.7068
H90_4 H 0.5795 0.5031 0.7932
H97_4 H 0.99906 0.677196 0.971721
H97_5 H 0.322804 0.0282789 0.99906
H98_5 H 0.322804 0.986675 0.0249603
H100_5 H 0.168596 0.986675 0.0249603
H99_5 H 0.168596 0.985046 0.97598
Zn8_5 Zn 0.0000 0.00000(4) 0.2453
Zn9_2 Zn 0.5000 0.50000(4) 0.2547
N26_5 N 0.16776(9) 0.09334(9) 0.24518(10)
N27_5 N 0.40666(9) 0.33224(9) 0.25482(10)
H12_5 H 0.1697 0.1122 0.2266
H13_5 H 0.3878 0.3303 0.2734
C15_5 C 0.13095(11) 0.07186(10) 0.24654(14)
C16_5 C 0.42814(10) 0.36905(11) 0.25346(14)
O9_5 O 0.20468(10) 0.06127(10) 0.29433(13)
O10_5 O 0.43873(10) 0.29532(10) 0.20567(13)
C26_5 C 0.42010(12) 0.39652(12) 0.28228(14)
C27_5 C 0.10348(12) 0.07990(12) 0.21772(14)
H23_5 H 0.1087 0.1002 0.1981
H24_5 H 0.3998 0.3913 0.3019
C35_5 C 0.29576(11) 0.17272(10) 0.25246(12)
C37_5 C 0.32728(10) 0.20424(11) 0.24754(12)
C48_5 C 0.45749(14) 0.37752(13) 0.22369(15)
C49_5 C 0.12248(13) 0.04251(14) 0.27631(15)
H34_5 H 0.1413 0.0362 0.2971
H35_5 H 0.4638 0.3587 0.2029
C57_5 C 0.22729(10) 0.15861(11) 0.25499(11)
C59_5 C 0.34139(11) 0.27271(10) 0.24501(11)
H45_5 H 0.3322 0.2999 0.2469
H46_5 H 0.2001 0.1678 0.2531
N40_5 N 0.05818(9) 0.03106(9) 0.24661(14)
N41_5 N 0.46894(9) 0.44182(9) 0.25339(14)
C70_5 C 0.36815(13) 0.19457(12) 0.24071(15)
C71_5 C 0.30543(12) 0.13185(13) 0.25929(15)
H56_5 H 0.3771 0.1673 0.2408
H57_5 H 0.3327 0.1229 0.2592
C81_5 C 0.41185(14) 0.29999(14) 0.23094(16)
C82_5 C 0.20001(14) 0.08815(14) 0.26906(16)
C92_5 C 0.38184(11) 0.26532(11) 0.23784(12)
C93_5 C 0.23468(11) 0.11816(11) 0.26216(12)
C103_5 C 0.39502(12) 0.22625(14) 0.23375(18)
C104_5 C 0.27375(14) 0.10498(12) 0.26625(18)
H73_5 H 0.4222 0.2208 0.2263
H74_5 H 0.2792 0.0778 0.2737
C114_5 C 0.06701(13) 0.05814(13) 0.21676(15)
C115_5 C 0.44186(13) 0.43299(13) 0.28324(15)
H78_5 H 0.0484 0.0623 0.1953
H79_5 H 0.4377 0.4516 0.3047
C125_5 C 0.08545(13) 0.02333(13) 0.27376(15)
C126_5 C 0.47667(13) 0.41455(13) 0.22624(15)
H89_5 H 0.0795 0.0031 0.2932
H90_5 H 0.4969 0.4205 0.2068
H97_6 H 0.322804 0.000940087 0.0282789
H99_6 H 0.168596 0.0240202 0.985046
Zn8_6 Zn 0.0000 1.00000(4) 0.2453
H98_6 H 0.322804 0.97504 0.986675
H100_6 H 0.168596 0.97504 0.986675
Zn8_7 Zn 1.0000 0.00000(4) 0.2453
Zn8_8 Zn 1.0000 1.00000(4) 0.2453
H99_7 H 0.168596 0.0149536 0.0240202
H98_7 H 0.322804 0.0133253 0.97504
H100_7 H 0.168596 0.0133253 0.97504
N24_2 N 0.09334(9) 0.83224(9) 0.24518(10)
N25_2 N 0.33224(9) 0.59334(9) 0.25482(10)
H10_2 H 0.1122 0.8303 0.2266
H11_2 H 0.3303 0.6122 0.2734
C13_2 C 0.07186(10) 0.86905(11) 0.24654(14)
C14_2 C 0.36905(11) 0.57186(10) 0.25346(14)
O7_2 O 0.06127(10) 0.79532(10) 0.29433(13)
O8_2 O 0.29532(10) 0.56127(10) 0.20567(13)
C24_2 C 0.07990(12) 0.89652(12) 0.21772(14)
C25_2 C 0.39652(12) 0.57990(12) 0.28228(14)
H21_2 H 0.1002 0.8913 0.1981
H22_2 H 0.3913 0.6002 0.3019
C36_2 C 0.17272(10) 0.70424(11) 0.25246(12)
C38_2 C 0.20424(11) 0.67272(10) 0.24754(12)
C46_2 C 0.04251(14) 0.87752(13) 0.27631(15)
C47_2 C 0.37752(13) 0.54251(14) 0.22369(15)
H32_2 H 0.0362 0.8587 0.2971
H33_2 H 0.3587 0.5362 0.2029
C58_2 C 0.15861(11) 0.77271(10) 0.25499(11)
C60_2 C 0.27271(10) 0.65861(11) 0.24501(11)
H43_2 H 0.1678 0.7999 0.2531
H44_2 H 0.2999 0.6678 0.2469
N38_2 N 0.44182(9) 0.53106(9) 0.25339(14)
N39_2 N 0.03106(9) 0.94182(9) 0.24661(14)
C68_2 C 0.13185(13) 0.69457(12) 0.25929(15)
C69_2 C 0.19457(12) 0.63185(13) 0.24071(15)
H54_2 H 0.1229 0.6673 0.2592
H55_2 H 0.1673 0.6229 0.2408
C79_2 C 0.08815(14) 0.79999(14) 0.26906(16)
C80_2 C 0.29999(14) 0.58815(14) 0.23094(16)
C90_2 C 0.11816(11) 0.76532(11) 0.26216(12)
C91_2 C 0.26532(11) 0.61816(11) 0.23784(12)
C101_2 C 0.10498(12) 0.72625(14) 0.26625(18)
C102_2 C 0.22625(14) 0.60498(12) 0.23375(18)
H71_2 H 0.0778 0.7208 0.2737
H72_2 H 0.2208 0.5778 0.2263
C112_2 C 0.05814(13) 0.93299(13) 0.21676(15)
C113_2 C 0.43299(13) 0.55814(13) 0.28324(15)
H76_2 H 0.4516 0.5623 0.3047
H77_2 H 0.0623 0.9516 0.1953
C123_2 C 0.02333(13) 0.91455(13) 0.27376(15)
C124_2 C 0.41455(13) 0.52333(13) 0.22624(15)
H87_2 H 0.4205 0.5031 0.2068
H88_2 H 0.0031 0.9205 0.2932
H97_7 H 0.322804 0.971721 0.000940087
O1_17 O -0.0000 -0.00000(19) 0.6872
O2_17 O 0.0000 0.0000(2) 0.8214
O4_5 O 0.5000 0.50000(19) 0.8128
O5_5 O 0.5000 0.5000(2) 0.6786
H98_8 H 0.0133253 0.0249603 0.677196
H100_8 H 0.0133253 0.0249603 0.831404
O1_18 O -0.0000 1.00000(19) 0.6872
O2_18 O 0.0000 1.0000(2) 0.8214
H99_8 H 0.0149536 0.97598 0.831404
O1_19 O 1.0000 -0.00000(19) 0.6872
O2_19 O 1.0000 0.0000(2) 0.8214
O1_20 O 1.0000 1.00000(19) 0.6872
O2_20 O 1.0000 1.0000(2) 0.8214
H97_8 H 0.971721 0.99906 0.677196
H98_9 H 0.677196 0.0249603 0.986675
H100_9 H 0.831404 0.0249603 0.986675
N26_6 N 0.83224(9) 0.90666(9) 0.24518(10)
N27_6 N 0.59334(9) 0.66776(9) 0.25482(10)
H12_6 H 0.8303 0.8878 0.2266
H13_6 H 0.6122 0.6697 0.2734
C15_6 C 0.86905(11) 0.92814(10) 0.24654(14)
C16_6 C 0.57186(10) 0.63095(11) 0.25346(14)
O9_6 O 0.79532(10) 0.93873(10) 0.29433(13)
O10_6 O 0.56127(10) 0.70468(10) 0.20567(13)
C26_6 C 0.57990(12) 0.60348(12) 0.28228(14)
C27_6 C 0.89652(12) 0.92010(12) 0.21772(14)
H23_6 H 0.8913 0.8998 0.1981
H24_6 H 0.6002 0.6087 0.3019
C35_6 C 0.70424(11) 0.82728(10) 0.25246(12)
C37_6 C 0.67272(10) 0.79576(11) 0.24754(12)
C48_6 C 0.54251(14) 0.62248(13) 0.22369(15)
C49_6 C 0.87752(13) 0.95749(14) 0.27631(15)
H34_6 H 0.8587 0.9638 0.2971
H35_6 H 0.5362 0.6413 0.2029
C57_6 C 0.77271(10) 0.84139(11) 0.25499(11)
C59_6 C 0.65861(11) 0.72729(10) 0.24501(11)
H45_6 H 0.6678 0.7001 0.2469
H46_6 H 0.7999 0.8322 0.2531
N40_6 N 0.94182(9) 0.96894(9) 0.24661(14)
N41_6 N 0.53106(9) 0.55818(9) 0.25339(14)
C70_6 C 0.63185(13) 0.80543(12) 0.24071(15)
C71_6 C 0.69457(12) 0.86815(13) 0.25929(15)
H56_6 H 0.6229 0.8327 0.2408
H57_6 H 0.6673 0.8771 0.2592
C81_6 C 0.58815(14) 0.70001(14) 0.23094(16)
C82_6 C 0.79999(14) 0.91185(14) 0.26906(16)
C92_6 C 0.61816(11) 0.73468(11) 0.23784(12)
C93_6 C 0.76532(11) 0.88184(11) 0.26216(12)
C103_6 C 0.60498(12) 0.77375(14) 0.23375(18)
C104_6 C 0.72625(14) 0.89502(12) 0.26625(18)
H73_6 H 0.5778 0.7792 0.2263
H74_6 H 0.7208 0.9222 0.2737
C114_6 C 0.93299(13) 0.94186(13) 0.21676(15)
C115_6 C 0.55814(13) 0.56701(13) 0.28324(15)
H78_6 H 0.9516 0.9377 0.1953
H79_6 H 0.5623 0.5484 0.3047
C125_6 C 0.91455(13) 0.97667(13) 0.27376(15)
C126_6 C 0.52333(13) 0.58545(13) 0.22624(15)
H89_6 H 0.9205 0.9969 0.2932
H90_6 H 0.5031 0.5795 0.2068
H97_9 H 0.677196 0.99906 0.0282789
H99_9 H 0.831404 0.97598 0.985046
O1_21 O 0.0000 0.00000(19) 0.3128
O2_21 O -0.0000 -0.0000(2) 0.1786
O1_22 O 0.0000 1.00000(19) 0.3128
O2_22 O 0.0000 1.0000(2) 0.1786
H97_10 H 0.0282789 0.99906 0.322804
O1_23 O 1.0000 0.00000(19) 0.3128
O2_23 O 1.0000 -0.0000(2) 0.1786
O4_6 O 0.5000 0.50000(19) 0.1872
O5_6 O 0.5000 0.5000(2) 0.3214
N29_5 N 0.90666(9) 0.16776(9) 0.24518(10)
N32_5 N 0.66776(9) 0.40666(9) 0.25482(10)
H15_5 H 0.8878 0.1697 0.2266
H17_5 H 0.6697 0.3878 0.2734
C18_5 C 0.92814(10) 0.13095(11) 0.24654(14)
C20_5 C 0.63095(11) 0.42814(10) 0.25346(14)
O12_5 O 0.93873(10) 0.20468(10) 0.29433(13)
O15_5 O 0.70468(10) 0.43873(10) 0.20567(13)
C29_5 C 0.92010(12) 0.10348(12) 0.21772(14)
C31_5 C 0.60348(12) 0.42010(12) 0.28228(14)
H26_5 H 0.8998 0.1087 0.1981
H29_5 H 0.6087 0.3998 0.3019
C41_5 C 0.82728(10) 0.29576(11) 0.25246(12)
C44_5 C 0.79576(11) 0.32728(10) 0.24754(12)
C51_5 C 0.95749(14) 0.12248(13) 0.27631(15)
C53_5 C 0.62248(13) 0.45749(14) 0.22369(15)
H37_5 H 0.9638 0.1413 0.2971
H40_5 H 0.6413 0.4638 0.2029
C63_5 C 0.84139(11) 0.22729(10) 0.25499(11)
C65_5 C 0.72729(10) 0.34139(11) 0.24501(11)
H49_5 H 0.8322 0.2001 0.2531
H51_5 H 0.7001 0.3322 0.2469
N36_5 N 0.96894(9) 0.05818(9) 0.24661(14)
N43_5 N 0.55818(9) 0.46894(9) 0.25339(14)
C74_5 C 0.86815(13) 0.30543(12) 0.25929(15)
C76_5 C 0.80543(12) 0.36815(13) 0.24071(15)
H60_5 H 0.8771 0.3327 0.2592
H62_5 H 0.8327 0.3771 0.2408
C84_5 C 0.91185(14) 0.20001(14) 0.26906(16)
C87_5 C 0.70001(14) 0.41185(14) 0.23094(16)
C95_5 C 0.88184(11) 0.23468(11) 0.26216(12)
C98_5 C 0.73468(11) 0.38184(11) 0.23784(12)
C107_5 C 0.89502(12) 0.27375(14) 0.26625(18)
C109_5 C 0.77375(14) 0.39502(12) 0.23375(18)
H67_5 H 0.9222 0.2792 0.2737
H69_5 H 0.7792 0.4222 0.2263
C117_5 C 0.94186(13) 0.06701(13) 0.21676(15)
C120_5 C 0.56701(13) 0.44186(13) 0.28324(15)
H81_5 H 0.9377 0.0484 0.1953
H84_5 H 0.5484 0.4377 0.3047
C128_5 C 0.97667(13) 0.08545(13) 0.27376(15)
C131_5 C 0.58545(13) 0.47667(13) 0.22624(15)
H92_5 H 0.9969 0.0795 0.2932
H95_5 H 0.5795 0.4969 0.2068
H98_10 H 0.986675 0.0249603 0.322804
H100_10 H 0.986675 0.0249603 0.168596
O1_24 O 1.0000 1.00000(19) 0.3128
O2_24 O 1.0000 1.0000(2) 0.1786
H99_10 H 0.985046 0.97598 0.168596
H98_11 H 0.0133253 0.322804 0.0249603
H100_11 H 0.0133253 0.168596 0.0249603
H99_11 H 0.0149536 0.168596 0.97598
H97_11 H 0.971721 0.322804 0.99906
H98_12 H 0.0249603 0.0133253 0.322804
H100_12 H 0.0249603 0.0133253 0.168596
H99_12 H 0.97598 0.0149536 0.168596
H97_12 H 0.99906 0.971721 0.322804
H97_13 H 0.000940087 0.0282789 0.322804
H99_13 H 0.0240202 0.985046 0.168596
H98_13 H 0.97504 0.986675 0.322804
H100_13 H 0.97504 0.986675 0.168596
H99_14 H 0.0149536 0.831404 0.0240202
H98_14 H 0.0133253 0.677196 0.97504
H100_14 H 0.0133253 0.831404 0.97504
H97_14 H 0.971721 0.677196 0.000940087
H99_15 H 0.0240202 0.0149536 0.831404
H97_15 H 0.000940087 0.971721 0.677196
H98_15 H 0.97504 0.0133253 0.677196
H100_15 H 0.97504 0.0133253 0.831404
H97_16 H 0.0282789 0.677196 0.99906
H98_16 H 0.986675 0.677196 0.0249603
H100_16 H 0.986675 0.831404 0.0249603
H99_16 H 0.985046 0.831404 0.97598
H97_17 H 0.0282789 0.322804 0.000940087
H99_17 H 0.985046 0.168596 0.0240202
H98_17 H 0.986675 0.322804 0.97504
H100_17 H 0.986675 0.168596 0.97504
H98_18 H 0.0249603 0.986675 0.677196
H100_18 H 0.0249603 0.986675 0.831404
H97_18 H 0.99906 0.0282789 0.677196
H99_18 H 0.97598 0.985046 0.831404
H98_19 H 0.0249603 0.322804 0.986675
H100_19 H 0.0249603 0.168596 0.986675
H97_19 H 0.99906 0.322804 0.0282789
H99_19 H 0.97598 0.168596 0.985046
H97_20 H 0.000940087 0.677196 0.0282789
H99_20 H 0.0240202 0.831404 0.985046
H98_20 H 0.97504 0.677196 0.986675
H100_20 H 0.97504 0.831404 0.986675
H98_21 H 0.677196 0.0133253 0.0249603
H100_21 H 0.831404 0.0133253 0.0249603
H99_21 H 0.831404 0.0149536 0.97598
H97_21 H 0.677196 0.971721 0.99906
H97_22 H 0.677196 0.0282789 0.000940087
H99_22 H 0.831404 0.985046 0.0240202
H98_22 H 0.677196 0.986675 0.97504
H100_22 H 0.831404 0.986675 0.97504
H99_23 H 0.0149536 0.0240202 0.168596
H98_23 H 0.0133253 0.97504 0.322804
H100_23 H 0.0133253 0.97504 0.168596
H97_23 H 0.971721 0.000940087 0.322804
H97_24 H 0.0282789 0.000940087 0.677196
H99_24 H 0.985046 0.0240202 0.831404
H98_24 H 0.986675 0.97504 0.677196
H100_24 H 0.986675 0.97504 0.831404
N48 N 0.16805(8) 0.16805(8) 0.16805(8)
O17 O 0.19389(9) 0.14064(9) 0.17052(8)
O18 O 0.17052(8) 0.19389(9) 0.14064(9)
O19 O 0.14064(9) 0.17052(8) 0.19389(9)
N48_2 N 0.83195(8) 0.16805(8) 0.16805(8)
O17_2 O 0.85936(9) 0.19389(9) 0.17052(8)
O18_2 O 0.80611(9) 0.17052(8) 0.14064(9)
O19_2 O 0.82948(8) 0.14064(9) 0.19389(9)
N48_3 N 0.83195(8) 0.83195(8) 0.16805(8)
O17_3 O 0.80611(9) 0.85936(9) 0.17052(8)
O18_3 O 0.82948(8) 0.80611(9) 0.14064(9)
O19_3 O 0.85936(9) 0.82948(8) 0.19389(9)
N48_4 N 0.16805(8) 0.83195(8) 0.16805(8)
O17_4 O 0.14064(9) 0.80611(9) 0.17052(8)
O18_4 O 0.19389(9) 0.82948(8) 0.14064(9)
O19_4 O 0.17052(8) 0.85936(9) 0.19389(9)
N48_5 N 0.16805(8) 0.83195(8) 0.83195(8)
O17_5 O 0.19389(9) 0.85936(9) 0.82948(8)
O18_5 O 0.17052(8) 0.80611(9) 0.85936(9)
O19_5 O 0.14064(9) 0.82948(8) 0.80611(9)
N48_6 N 0.16805(8) 0.16805(8) 0.83195(8)
O17_6 O 0.19389(9) 0.17052(8) 0.85936(9)
O18_6 O 0.17052(8) 0.14064(9) 0.80611(9)
O19_6 O 0.14064(9) 0.19389(9) 0.82948(8)
N48_7 N 0.83195(8) 0.16805(8) 0.83195(8)
O17_7 O 0.80611(9) 0.14064(9) 0.82948(8)
O18_7 O 0.82948(8) 0.19389(9) 0.85936(9)
O19_7 O 0.85936(9) 0.17052(8) 0.80611(9)
N48_8 N 0.83195(8) 0.83195(8) 0.83195(8)
O17_8 O 0.85936(9) 0.80611(9) 0.82948(8)
O18_8 O 0.80611(9) 0.82948(8) 0.85936(9)
O19_8 O 0.82948(8) 0.85936(9) 0.80611(9)
N48_9 N 0.66805(8) 0.66805(8) 0.66805(8)
O17_9 O 0.69389(9) 0.64064(9) 0.67052(8)
O18_9 O 0.67052(8) 0.69389(9) 0.64064(9)
O19_9 O 0.64064(9) 0.67052(8) 0.69389(9)
N48_10 N 0.33195(8) 0.66805(8) 0.66805(8)
O17_10 O 0.35936(9) 0.69389(9) 0.67052(8)
O18_10 O 0.30611(9) 0.67052(8) 0.64064(9)
O19_10 O 0.32948(8) 0.64064(9) 0.69389(9)
N48_11 N 0.33195(8) 0.33195(8) 0.66805(8)
O17_11 O 0.30611(9) 0.35936(9) 0.67052(8)
O18_11 O 0.32948(8) 0.30611(9) 0.64064(9)
O19_11 O 0.35936(9) 0.32948(8) 0.69389(9)
N48_12 N 0.66805(8) 0.33195(8) 0.66805(8)
O17_12 O 0.64064(9) 0.30611(9) 0.67052(8)
O18_12 O 0.69389(9) 0.32948(8) 0.64064(9)
O19_12 O 0.67052(8) 0.35936(9) 0.69389(9)
N48_13 N 0.66805(8) 0.33195(8) 0.33195(8)
O17_13 O 0.69389(9) 0.35936(9) 0.32948(8)
O18_13 O 0.67052(8) 0.30611(9) 0.35936(9)
O19_13 O 0.64064(9) 0.32948(8) 0.30611(9)
N48_14 N 0.66805(8) 0.66805(8) 0.33195(8)
O17_14 O 0.69389(9) 0.67052(8) 0.35936(9)
O18_14 O 0.67052(8) 0.64064(9) 0.30611(9)
O19_14 O 0.64064(9) 0.69389(9) 0.32948(8)
N48_15 N 0.33195(8) 0.66805(8) 0.33195(8)
O17_15 O 0.30611(9) 0.64064(9) 0.32948(8)
O18_15 O 0.32948(8) 0.69389(9) 0.35936(9)
O19_15 O 0.35936(9) 0.67052(8) 0.30611(9)
N48_16 N 0.33195(8) 0.33195(8) 0.33195(8)
O17_16 O 0.35936(9) 0.30611(9) 0.32948(8)
O18_16 O 0.30611(9) 0.32948(8) 0.35936(9)
O19_16 O 0.32948(8) 0.35936(9) 0.30611(9)
N49 N 0.1913(2) 0.0000 0.1913(2)
O20 O 0.2188(3) 0.0000 0.2188(3)
O22 O 0.1960(5) 0.0261(3) 0.1619(3)
N49_2 N 0.1913(2) 1.0000 0.1913(2)
O20_2 O 0.2188(3) 1.0000 0.2188(3)
O21 O 0.1619(3) 0.9739(3) 0.1960(5)
N49_3 N 0.0000 0.1913(2) 0.1913(2)
O20_3 O 0.0000 0.2188(3) 0.2188(3)
O21_2 O 0.0261(3) 0.1619(3) 0.1960(5)
N49_4 N 1.0000 0.1913(2) 0.1913(2)
O20_4 O 1.0000 0.2188(3) 0.2188(3)
O22_2 O 0.9739(3) 0.1960(5) 0.1619(3)
N49_5 N 0.8087(2) 0.0000 0.1913(2)
O20_5 O 0.7812(3) 0.0000 0.2188(3)
O21_3 O 0.8381(3) 0.0261(3) 0.1960(5)
N49_6 N 0.8087(2) 1.0000 0.1913(2)
O20_6 O 0.7812(3) 1.0000 0.2188(3)
O22_3 O 0.8040(5) 0.9739(3) 0.1619(3)
N49_7 N -0.0000 0.8087(2) 0.1913(2)
O20_7 O -0.0000 0.7812(3) 0.2188(3)
O22_4 O 0.0261(3) 0.8040(5) 0.1619(3)
N49_8 N 1.0000 0.8087(2) 0.1913(2)
O20_8 O 1.0000 0.7812(3) 0.2188(3)
O21_4 O 0.9739(3) 0.8381(3) 0.1960(5)
N49_9 N 0.1913(2) 0.8087(2) 0.0000
O20_9 O 0.2188(3) 0.7812(3) 0.0000
O22_5 O 0.1960(5) 0.8381(3) 0.0261(3)
N49_10 N 0.1913(2) 0.8087(2) 1.0000
O20_10 O 0.2188(3) 0.7812(3) 1.0000
O21_5 O 0.1619(3) 0.8040(5) 0.9739(3)
N49_11 N 0.1913(2) -0.0000 0.8087(2)
O20_11 O 0.2188(3) 0.0000 0.7812(3)
O21_6 O 0.1619(3) 0.0261(3) 0.8040(5)
N49_12 N 0.1913(2) 1.0000 0.8087(2)
O20_12 O 0.2188(3) 1.0000 0.7812(3)
O22_6 O 0.1960(5) 0.9739(3) 0.8381(3)
N49_13 N 0.1913(2) 0.1913(2) 0.0000
O20_13 O 0.2188(3) 0.2188(3) 0.0000
O21_7 O 0.1619(3) 0.1960(5) 0.0261(3)
N49_14 N 0.1913(2) 0.1913(2) 1.0000
O20_14 O 0.2188(3) 0.2188(3) 1.0000
O22_7 O 0.1960(5) 0.1619(3) 0.9739(3)
N49_15 N 0.8087(2) -0.0000 0.8087(2)
O20_15 O 0.7812(3) 0.0000 0.7812(3)
O22_8 O 0.8040(5) 0.0261(3) 0.8381(3)
N49_16 N 0.8087(2) 1.0000 0.8087(2)
O20_16 O 0.7812(3) 1.0000 0.7812(3)
O21_8 O 0.8381(3) 0.9739(3) 0.8040(5)
N49_17 N -0.0000 0.1913(2) 0.8087(2)
O20_17 O -0.0000 0.2188(3) 0.7812(3)
O21_9 O 0.0261(3) 0.1960(5) 0.8381(3)
N49_18 N 1.0000 0.1913(2) 0.8087(2)
O20_18 O 1.0000 0.2188(3) 0.7812(3)
O22_9 O 0.9739(3) 0.1619(3) 0.8040(5)
N49_19 N 0.8087(2) 0.8087(2) 0.0000
O20_19 O 0.7812(3) 0.7812(3) 0.0000
O22_10 O 0.8381(3) 0.8040(5) 0.0261(3)
N49_20 N 0.8087(2) 0.8087(2) 1.0000
O20_20 O 0.7812(3) 0.7812(3) 1.0000
O21_10 O 0.8040(5) 0.8381(3) 0.9739(3)
N49_21 N 0.8087(2) 0.1913(2) 0.0000
O20_21 O 0.7812(3) 0.2188(3) 0.0000
O21_11 O 0.8040(5) 0.1619(3) 0.0261(3)
N49_22 N 0.8087(2) 0.1913(2) 1.0000
O20_22 O 0.7812(3) 0.2188(3) 1.0000
O22_11 O 0.8381(3) 0.1960(5) 0.9739(3)
N49_23 N -0.0000 0.8087(2) 0.8087(2)
O20_23 O 0.0000 0.7812(3) 0.7812(3)
O22_12 O 0.0261(3) 0.8381(3) 0.8040(5)
N49_24 N 1.0000 0.8087(2) 0.8087(2)
O20_24 O 1.0000 0.7812(3) 0.7812(3)
O21_12 O 0.9739(3) 0.8040(5) 0.8381(3)
N49_25 N 0.6913(2) 0.5000 0.6913(2)
O20_25 O 0.7188(3) 0.5000 0.7188(3)
O21_13 O 0.6619(3) 0.4739(3) 0.6960(5)
O22_13 O 0.6960(5) 0.5261(3) 0.6619(3)
N49_26 N 0.5000 0.6913(2) 0.6913(2)
O20_26 O 0.5000 0.7188(3) 0.7188(3)
O21_14 O 0.5261(3) 0.6619(3) 0.6960(5)
O22_14 O 0.4739(3) 0.6960(5) 0.6619(3)
N49_27 N 0.3087(2) 0.5000 0.6913(2)
O20_27 O 0.2812(3) 0.5000 0.7188(3)
O21_15 O 0.3381(3) 0.5261(3) 0.6960(5)
O22_15 O 0.3040(5) 0.4739(3) 0.6619(3)
N49_28 N 0.5000 0.3087(2) 0.6913(2)
O20_28 O 0.5000 0.2812(3) 0.7188(3)
O21_16 O 0.4739(3) 0.3381(3) 0.6960(5)
O22_16 O 0.5261(3) 0.3040(5) 0.6619(3)
N49_29 N 0.6913(2) 0.3087(2) 0.5000
O20_29 O 0.7188(3) 0.2812(3) 0.5000
O21_17 O 0.6619(3) 0.3040(5) 0.4739(3)
O22_17 O 0.6960(5) 0.3381(3) 0.5261(3)
N49_30 N 0.6913(2) 0.5000 0.3087(2)
O20_30 O 0.7188(3) 0.5000 0.2812(3)
O21_18 O 0.6619(3) 0.5261(3) 0.3040(5)
O22_18 O 0.6960(5) 0.4739(3) 0.3381(3)
N49_31 N 0.6913(2) 0.6913(2) 0.5000
O20_31 O 0.7188(3) 0.7188(3) 0.5000
O21_19 O 0.6619(3) 0.6960(5) 0.5261(3)
O22_19 O 0.6960(5) 0.6619(3) 0.4739(3)
N49_32 N 0.3087(2) 0.5000 0.3087(2)
O20_32 O 0.2812(3) 0.5000 0.2812(3)
O21_20 O 0.3381(3) 0.4739(3) 0.3040(5)
O22_20 O 0.3040(5) 0.5261(3) 0.3381(3)
N49_33 N 0.5000 0.6913(2) 0.3087(2)
O20_33 O 0.5000 0.7188(3) 0.2812(3)
O21_21 O 0.5261(3) 0.6960(5) 0.3381(3)
O22_21 O 0.4739(3) 0.6619(3) 0.3040(5)
N49_34 N 0.3087(2) 0.3087(2) 0.5000
O20_34 O 0.2812(3) 0.2812(3) 0.5000
O21_22 O 0.3040(5) 0.3381(3) 0.4739(3)
O22_22 O 0.3381(3) 0.3040(5) 0.5261(3)
N49_35 N 0.3087(2) 0.6913(2) 0.5000
O20_35 O 0.2812(3) 0.7188(3) 0.5000
O21_23 O 0.3040(5) 0.6619(3) 0.5261(3)
O22_23 O 0.3381(3) 0.6960(5) 0.4739(3)
N49_36 N 0.5000 0.3087(2) 0.3087(2)
O20_36 O 0.5000 0.2812(3) 0.2812(3)
O21_24 O 0.4739(3) 0.3040(5) 0.3381(3)
O22_24 O 0.5261(3) 0.3381(3) 0.3040(5)
loop_
_geom_bond_atom_site_label_1
_geom_bond_atom_site_label_2
_geom_bond_site_symmetry_1
_geom_bond_site_symmetry_2
Zn2 O1 1_555 1_555
O2 Zn2 1_555 1_555
Zn5 N11 1_555 1_555
Zn11 O4 1_555 1_555
N11 C41 1_555 1_555
N13 Zn5 1_555 1_555
O5 Zn11 1_555 1_555
N29 H15 1_555 1_555
N32 H17 1_555 1_555
C18 N29 1_555 1_555
C20 N32 1_555 1_555
O12 C84 1_555 1_555
O15 C87 1_555 1_555
C29 C18 1_555 1_555
C31 C20 1_555 1_555
H26 C29 1_555 1_555
H29 C31 1_555 1_555
C41 C44 1_555 1_555
C44 N13 1_555 1_555
C51 C18 1_555 1_555
C53 C20 1_555 1_555
H37 C51 1_555 1_555
H40 C53 1_555 1_555
C63 N11 1_555 1_555
C65 N13 1_555 1_555
H49 C63 1_555 1_555
H51 C65 1_555 1_555
N36 Zn2 1_555 1_555
N43 Zn11 1_555 1_555
N45 Zn11 1_555 1_555
N46 Zn11 1_555 1_555
N47 Zn11 1_555 1_555
C74 C41 1_555 1_555
C76 C44 1_555 1_555
H60 C74 1_555 1_555
H62 C76 1_555 1_555
C84 N29 1_555 1_555
C87 N32 1_555 1_555
C95 C63 1_555 1_555
C98 C65 1_555 1_555
C107 C74 1_555 1_555
C109 C76 1_555 1_555
H67 C107 1_555 1_555
H69 C109 1_555 1_555
C117 C29 1_555 1_555
C120 C31 1_555 1_555
H81 C117 1_555 1_555
H84 C120 1_555 1_555
C128 C51 1_555 1_555
C131 C53 1_555 1_555
H92 C128 1_555 1_555
H95 C131 1_555 1_555
N36 C117 1_555 1_555
N36 C128 1_555 1_555
N43 C120 1_555 1_555
N43 C131 1_555 1_555
C84 C95 1_555 1_555
C87 C98 1_555 1_555
C95 C107 1_555 1_555
C98 C109 1_555 1_555
O1 H98 1_555 1_555
O2 H100 1_555 1_555
Zn2_2 O1_2 1_555 1_555
O2_2 Zn2_2 1_555 1_555
Zn3 N10 1_555 1_555
N10 C39 1_555 1_555
N12 Zn3 1_555 1_555
N15 Zn3 1_555 1_555
N16 Zn3 1_555 1_555
N17 Zn3 1_555 1_555
N18 Zn3 1_555 1_555
N28 H14 1_555 1_555
N31 H18 1_555 1_555
C17 N28 1_555 1_555
C21 N31 1_555 1_555
O11 C83 1_555 1_555
O14 C86 1_555 1_555
C28 C17 1_555 1_555
C32 C21 1_555 1_555
H25 C28 1_555 1_555
H28 C32 1_555 1_555
C39 C42 1_555 1_555
C42 N12 1_555 1_555
C50 C17 1_555 1_555
C54 C21 1_555 1_555
H36 C50 1_555 1_555
H39 C54 1_555 1_555
C61 N10 1_555 1_555
C64 N12 1_555 1_555
H48 C61 1_555 1_555
H52 C64 1_555 1_555
N35 Zn2_2 1_555 1_555
N46 C119 1_555 1_555
C73 C39 1_555 1_555
C75 C42 1_555 1_555
H58 C73 1_555 1_555
H61 C75 1_555 1_555
C83 N28 1_555 1_555
C86 N31 1_555 1_555
C94 C61 1_555 1_555
C99 C64 1_555 1_555
C105 C73 1_555 1_555
C108 C75 1_555 1_555
H66 C105 1_555 1_555
H70 C108 1_555 1_555
C116 C28 1_555 1_555
C119 C32 1_555 1_555
H80 C116 1_555 1_555
H83 C119 1_555 1_555
C127 C50 1_555 1_555
C130 C54 1_555 1_555
H91 C127 1_555 1_555
H94 C130 1_555 1_555
N35 C116 1_555 1_555
N35 C127 1_555 1_555
N46 C130 1_555 1_555
C83 C94 1_555 1_555
C86 C99 1_555 1_555
C94 C105 1_555 1_555
C99 C108 1_555 1_555
Zn2_3 O1_3 1_555 1_555
O2_3 Zn2_3 1_555 1_555
Zn4 N9 1_555 1_555
N9 C40 1_555 1_555
N14 Zn4 1_555 1_555
N19 Zn4 1_555 1_555
N20 Zn4 1_555 1_555
N21 Zn4 1_555 1_555
N22 Zn4 1_555 1_555
N30 H16 1_555 1_555
N33 H19 1_555 1_555
C19 N30 1_555 1_555
C22 N33 1_555 1_555
O13 C85 1_555 1_555
O16 C88 1_555 1_555
C30 C19 1_555 1_555
C33 C22 1_555 1_555
H27 C30 1_555 1_555
H30 C33 1_555 1_555
C40 C43 1_555 1_555
C43 N14 1_555 1_555
C52 C19 1_555 1_555
C55 C22 1_555 1_555
H38 C52 1_555 1_555
H41 C55 1_555 1_555
C62 N9 1_555 1_555
C66 N14 1_555 1_555
H47 C62 1_555 1_555
H50 C66 1_555 1_555
N34 Zn2_3 1_555 1_555
N45 C121 1_555 1_555
C72 C40 1_555 1_555
C77 C43 1_555 1_555
H59 C72 1_555 1_555
H63 C77 1_555 1_555
C85 N30 1_555 1_555
C88 N33 1_555 1_555
C96 C62 1_555 1_555
C97 C66 1_555 1_555
C106 C72 1_555 1_555
C110 C77 1_555 1_555
H65 C106 1_555 1_555
H68 C110 1_555 1_555
C118 C30 1_555 1_555
C121 C33 1_555 1_555
H82 C118 1_555 1_555
H85 C121 1_555 1_555
C129 C52 1_555 1_555
C132 C55 1_555 1_555
H93 C129 1_555 1_555
H96 C132 1_555 1_555
N34 C118 1_555 1_555
N34 C129 1_555 1_555
N45 C132 1_555 1_555
C85 C96 1_555 1_555
C88 C97 1_555 1_555
C96 C106 1_555 1_555
C97 C110 1_555 1_555
O2_3 H99 1_555 1_555
Zn1 N1 1_555 1_555
Zn2_4 O1_4 1_555 1_555
N1 C3 1_555 1_555
O2_4 Zn2_4 1_555 1_555
N2 H1 1_555 1_555
C1 N2 1_555 1_555
O3 C7 1_555 1_555
C2 C1 1_555 1_555
H2 C2 1_555 1_555
C3 C6 1_555 1_555
C4 C1 1_555 1_555
H3 C4 1_555 1_555
C5 N1 1_555 1_555
H4 C5 1_555 1_555
N3 Zn2_4 1_555 1_555
C6 H5 1_555 1_555
C7 N2 1_555 1_555
C8 C5 1_555 1_555
C9 C6 1_555 1_555
H6 C9 1_555 1_555
C10 C2 1_555 1_555
H7 C10 1_555 1_555
C11 C4 1_555 1_555
H8 C11 1_555 1_555
Zn7_2 N39 1_555 1_555
Zn8_2 N40 1_555 1_555
Zn9 N41 1_555 1_555
Zn13 N38 1_555 1_555
N4 Zn1 1_555 1_555
N5 Zn1 1_555 1_555
N6 Zn1 1_555 1_555
N7 Zn1 1_555 1_555
N8 Zn1 1_555 1_555
N23 H9 1_555 1_555
N24 H10 1_555 1_555
N25 H11 1_555 1_555
N26 H12 1_555 1_555
N27 H13 1_555 1_555
C12 N23 1_555 1_555
C13 N24 1_555 1_555
C14 N25 1_555 1_555
C15 N26 1_555 1_555
C16 N27 1_555 1_555
O6 C78 1_555 1_555
O7 C79 1_555 1_555
O8 C80 1_555 1_555
O9 C82 1_555 1_555
O10 C81 1_555 1_555
C23 C12 1_555 1_555
C24 C13 1_555 1_555
C25 C14 1_555 1_555
C26 C16 1_555 1_555
C27 C15 1_555 1_555
H20 C23 1_555 1_555
H21 C24 1_555 1_555
H22 C25 1_555 1_555
H23 C27 1_555 1_555
H24 C26 1_555 1_555
C34 C3 1_555 1_555
C35 N4 1_555 1_555
C36 N5 1_555 1_555
C37 N7 1_555 1_555
C38 N8 1_555 1_555
C45 C12 1_555 1_555
C46 C13 1_555 1_555
C47 C14 1_555 1_555
C48 C16 1_555 1_555
C49 C15 1_555 1_555
H31 C45 1_555 1_555
H32 C46 1_555 1_555
H33 C47 1_555 1_555
H34 C49 1_555 1_555
H35 C48 1_555 1_555
C56 N6 1_555 1_555
C57 N4 1_555 1_555
C58 N5 1_555 1_555
C59 N7 1_555 1_555
C60 N8 1_555 1_555
H42 C56 1_555 1_555
H43 C58 1_555 1_555
H44 C60 1_555 1_555
H45 C59 1_555 1_555
H46 C57 1_555 1_555
N47 C111 1_555 1_555
N38 C113 1_555 1_555
N39 C112 1_555 1_555
N40 C114 1_555 1_555
N41 C115 1_555 1_555
C67 C34 1_555 1_555
C68 C36 1_555 1_555
C69 C38 1_555 1_555
C70 C37 1_555 1_555
C71 C35 1_555 1_555
H53 C67 1_555 1_555
H54 C68 1_555 1_555
H55 C69 1_555 1_555
H56 C70 1_555 1_555
H57 C71 1_555 1_555
C78 N23 1_555 1_555
C79 N24 1_555 1_555
C80 N25 1_555 1_555
C81 N27 1_555 1_555
C82 N26 1_555 1_555
C89 C56 1_555 1_555
C90 C58 1_555 1_555
C91 C60 1_555 1_555
C92 C59 1_555 1_555
C93 C57 1_555 1_555
C100 C67 1_555 1_555
C101 C68 1_555 1_555
C102 C69 1_555 1_555
C103 C70 1_555 1_555
C104 C71 1_555 1_555
H64 C100 1_555 1_555
H71 C101 1_555 1_555
H72 C102 1_555 1_555
H73 C103 1_555 1_555
H74 C104 1_555 1_555
C111 C23 1_555 1_555
C112 C24 1_555 1_555
C113 C25 1_555 1_555
C114 C27 1_555 1_555
C115 C26 1_555 1_555
H75 C111 1_555 1_555
H76 C113 1_555 1_555
H77 C112 1_555 1_555
H78 C114 1_555 1_555
H79 C115 1_555 1_555
C122 C45 1_555 1_555
C123 C46 1_555 1_555
C124 C47 1_555 1_555
C125 C49 1_555 1_555
C126 C48 1_555 1_555
H86 C122 1_555 1_555
H87 C124 1_555 1_555
H88 C123 1_555 1_555
H89 C125 1_555 1_555
H90 C126 1_555 1_555
N3 C10 1_555 1_555
N3 C11 1_555 1_555
C7 C8 1_555 1_555
C8 C9 1_555 1_555
N6 C34 1_555 1_555
C35 C37 1_555 1_555
C36 C38 1_555 1_555
N47 C122 1_555 1_555
N38 C124 1_555 1_555
N39 C123 1_555 1_555
N40 C125 1_555 1_555
N41 C126 1_555 1_555
C78 C89 1_555 1_555
C79 C90 1_555 1_555
C80 C91 1_555 1_555
C81 C92 1_555 1_555
C82 C93 1_555 1_555
C89 C100 1_555 1_555
C90 C101 1_555 1_555
C91 C102 1_555 1_555
C92 C103 1_555 1_555
C93 C104 1_555 1_555
O1_4 H97 1_555 1_555
Zn2_5 O1_5 1_555 1_555
O2_5 Zn2_5 1_555 1_555
Zn5 N9_2 1_555 1_555
Zn12 N44 1_555 1_555
N9_2 C40_2 1_555 1_555
N14_2 Zn5 1_555 1_555
N19_2 Zn5 1_555 1_555
N22_2 Zn5 1_555 1_555
N30_2 H16_2 1_555 1_555
N33_2 H19_2 1_555 1_555
C19_2 N30_2 1_555 1_555
C22_2 N33_2 1_555 1_555
O13_2 C85_2 1_555 1_555
O16_2 C88_2 1_555 1_555
C30_2 C19_2 1_555 1_555
C33_2 C22_2 1_555 1_555
H27_2 C30_2 1_555 1_555
H30_2 C33_2 1_555 1_555
C40_2 C43_2 1_555 1_555
C43_2 N14_2 1_555 1_555
C52_2 C19_2 1_555 1_555
C55_2 C22_2 1_555 1_555
H38_2 C52_2 1_555 1_555
H41_2 C55_2 1_555 1_555
C62_2 N9_2 1_555 1_555
C66_2 N14_2 1_555 1_555
H47_2 C62_2 1_555 1_555
H50_2 C66_2 1_555 1_555
N34_2 Zn2_5 1_555 1_555
N44 C121_2 1_555 1_555
C72_2 C40_2 1_555 1_555
C77_2 C43_2 1_555 1_555
H59_2 C72_2 1_555 1_555
H63_2 C77_2 1_555 1_555
C85_2 N30_2 1_555 1_555
C88_2 N33_2 1_555 1_555
C96_2 C62_2 1_555 1_555
C97_2 C66_2 1_555 1_555
C106_2 C72_2 1_555 1_555
C110_2 C77_2 1_555 1_555
H65_2 C106_2 1_555 1_555
H68_2 C110_2 1_555 1_555
C118_2 C30_2 1_555 1_555
C121_2 C33_2 1_555 1_555
H82_2 C118_2 1_555 1_555
H85_2 C121_2 1_555 1_555
C129_2 C52_2 1_555 1_555
C132_2 C55_2 1_555 1_555
H93_2 C129_2 1_555 1_555
H96_2 C132_2 1_555 1_555
N34_2 C118_2 1_555 1_555
N34_2 C129_2 1_555 1_555
N44 C132_2 1_555 1_555
C85_2 C96_2 1_555 1_555
C88_2 C97_2 1_555 1_555
C96_2 C106_2 1_555 1_555
C97_2 C110_2 1_555 1_555
O2_5 H99_2 1_555 1_555
Zn2_6 O1_6 1_555 1_555
N15 C3_2 1_555 1_555
O2_6 Zn2_6 1_555 1_555
N2_2 H1_2 1_555 1_555
C1_2 N2_2 1_555 1_555
O3_2 C7_2 1_555 1_555
C2_2 C1_2 1_555 1_555
H2_2 C2_2 1_555 1_555
C3_2 C6_2 1_555 1_555
C4_2 C1_2 1_555 1_555
H3_2 C4_2 1_555 1_555
C5_2 N15 1_555 1_555
H4_2 C5_2 1_555 1_555
N3_2 Zn2_6 1_555 1_555
C6_2 H5_2 1_555 1_555
C7_2 N2_2 1_555 1_555
C8_2 C5_2 1_555 1_555
C9_2 C6_2 1_555 1_555
H6_2 C9_2 1_555 1_555
C10_2 C2_2 1_555 1_555
H7_2 C10_2 1_555 1_555
C11_2 C4_2 1_555 1_555
H8_2 C11_2 1_555 1_555
Zn12 N37 1_555 1_555
Zn8 N40_2 1_555 1_555
Zn9 N41_2 1_555 1_555
N23_2 H9_2 1_555 1_555
N26_2 H12_2 1_555 1_555
N27_2 H13_2 1_555 1_555
C12_2 N23_2 1_555 1_555
C15_2 N26_2 1_555 1_555
C16_2 N27_2 1_555 1_555
O6_2 C78_2 1_555 1_555
O9_2 C82_2 1_555 1_555
O10_2 C81_2 1_555 1_555
C23_2 C12_2 1_555 1_555
C26_2 C16_2 1_555 1_555
C27_2 C15_2 1_555 1_555
H20_2 C23_2 1_555 1_555
H23_2 C27_2 1_555 1_555
H24_2 C26_2 1_555 1_555
C34_2 C3_2 1_555 1_555
C35_2 N16 1_555 1_555
C37_2 N17 1_555 1_555
C45_2 C12_2 1_555 1_555
C48_2 C16_2 1_555 1_555
C49_2 C15_2 1_555 1_555
H31_2 C45_2 1_555 1_555
H34_2 C49_2 1_555 1_555
H35_2 C48_2 1_555 1_555
C56_2 N18 1_555 1_555
C57_2 N16 1_555 1_555
C59_2 N17 1_555 1_555
H42_2 C56_2 1_555 1_555
H45_2 C59_2 1_555 1_555
H46_2 C57_2 1_555 1_555
N37 C111_2 1_555 1_555
N40_2 C114_2 1_555 1_555
N41_2 C115_2 1_555 1_555
C67_2 C34_2 1_555 1_555
C70_2 C37_2 1_555 1_555
C71_2 C35_2 1_555 1_555
H53_2 C67_2 1_555 1_555
H56_2 C70_2 1_555 1_555
H57_2 C71_2 1_555 1_555
C78_2 N23_2 1_555 1_555
C81_2 N27_2 1_555 1_555
C82_2 N26_2 1_555 1_555
C89_2 C56_2 1_555 1_555
C92_2 C59_2 1_555 1_555
C93_2 C57_2 1_555 1_555
C100_2 C67_2 1_555 1_555
C103_2 C70_2 1_555 1_555
C104_2 C71_2 1_555 1_555
H64_2 C100_2 1_555 1_555
H73_2 C103_2 1_555 1_555
H74_2 C104_2 1_555 1_555
C111_2 C23_2 1_555 1_555
C114_2 C27_2 1_555 1_555
C115_2 C26_2 1_555 1_555
H75_2 C111_2 1_555 1_555
H78_2 C114_2 1_555 1_555
H79_2 C115_2 1_555 1_555
C122_2 C45_2 1_555 1_555
C125_2 C49_2 1_555 1_555
C126_2 C48_2 1_555 1_555
H86_2 C122_2 1_555 1_555
H89_2 C125_2 1_555 1_555
H90_2 C126_2 1_555 1_555
N3_2 C10_2 1_555 1_555
N3_2 C11_2 1_555 1_555
C7_2 C8_2 1_555 1_555
C8_2 C9_2 1_555 1_555
N18 C34_2 1_555 1_555
C35_2 C37_2 1_555 1_555
N37 C122_2 1_555 1_555
N40_2 C125_2 1_555 1_555
N41_2 C126_2 1_555 1_555
C78_2 C89_2 1_555 1_555
C81_2 C92_2 1_555 1_555
C82_2 C93_2 1_555 1_555
C89_2 C100_2 1_555 1_555
C92_2 C103_2 1_555 1_555
C93_2 C104_2 1_555 1_555
O1_6 H97_2 1_555 1_555
Zn2_7 O1_7 1_555 1_555
O2_7 Zn2_7 1_555 1_555
Zn5_2 N11_2 1_555 1_555
Zn12 O4_2 1_555 1_555
N11_2 C41_2 1_555 1_555
N13_2 Zn5_2 1_555 1_555
O5_2 Zn12 1_555 1_555
N29_2 H15_2 1_555 1_555
N32_2 H17_2 1_555 1_555
C18_2 N29_2 1_555 1_555
C20_2 N32_2 1_555 1_555
O12_2 C84_2 1_555 1_555
O15_2 C87_2 1_555 1_555
C29_2 C18_2 1_555 1_555
C31_2 C20_2 1_555 1_555
H26_2 C29_2 1_555 1_555
H29_2 C31_2 1_555 1_555
C41_2 C44_2 1_555 1_555
C44_2 N13_2 1_555 1_555
C51_2 C18_2 1_555 1_555
C53_2 C20_2 1_555 1_555
H37_2 C51_2 1_555 1_555
H40_2 C53_2 1_555 1_555
C63_2 N11_2 1_555 1_555
C65_2 N13_2 1_555 1_555
H49_2 C63_2 1_555 1_555
H51_2 C65_2 1_555 1_555
N36_2 Zn2_7 1_555 1_555
N43_2 Zn12 1_555 1_555
N46_2 Zn12 1_555 1_555
C74_2 C41_2 1_555 1_555
C76_2 C44_2 1_555 1_555
H60_2 C74_2 1_555 1_555
H62_2 C76_2 1_555 1_555
C84_2 N29_2 1_555 1_555
C87_2 N32_2 1_555 1_555
C95_2 C63_2 1_555 1_555
C98_2 C65_2 1_555 1_555
C107_2 C74_2 1_555 1_555
C109_2 C76_2 1_555 1_555
H67_2 C107_2 1_555 1_555
H69_2 C109_2 1_555 1_555
C117_2 C29_2 1_555 1_555
C120_2 C31_2 1_555 1_555
H81_2 C117_2 1_555 1_555
H84_2 C120_2 1_555 1_555
C128_2 C51_2 1_555 1_555
C131_2 C53_2 1_555 1_555
H92_2 C128_2 1_555 1_555
H95_2 C131_2 1_555 1_555
N36_2 C117_2 1_555 1_555
N36_2 C128_2 1_555 1_555
N43_2 C120_2 1_555 1_555
N43_2 C131_2 1_555 1_555
C84_2 C95_2 1_555 1_555
C87_2 C98_2 1_555 1_555
C95_2 C107_2 1_555 1_555
C98_2 C109_2 1_555 1_555
O1_7 H98_2 1_555 1_555
O2_7 H100_2 1_555 1_555
Zn2_8 O1_8 1_555 1_555
O2_8 Zn2_8 1_555 1_555
Zn3_2 N10_2 1_555 1_555
N10_2 C39_2 1_555 1_555
N12_2 Zn3_2 1_555 1_555
N15_2 Zn3_2 1_555 1_555
N16_2 Zn3_2 1_555 1_555
N17_2 Zn3_2 1_555 1_555
N18_2 Zn3_2 1_555 1_555
N28_2 H14_2 1_555 1_555
N31_2 H18_2 1_555 1_555
C17_2 N28_2 1_555 1_555
C21_2 N31_2 1_555 1_555
O11_2 C83_2 1_555 1_555
O14_2 C86_2 1_555 1_555
C28_2 C17_2 1_555 1_555
C32_2 C21_2 1_555 1_555
H25_2 C28_2 1_555 1_555
H28_2 C32_2 1_555 1_555
C39_2 C42_2 1_555 1_555
C42_2 N12_2 1_555 1_555
C50_2 C17_2 1_555 1_555
C54_2 C21_2 1_555 1_555
H36_2 C50_2 1_555 1_555
H39_2 C54_2 1_555 1_555
C61_2 N10_2 1_555 1_555
C64_2 N12_2 1_555 1_555
H48_2 C61_2 1_555 1_555
H52_2 C64_2 1_555 1_555
N35_2 Zn2_8 1_555 1_555
N46_2 C119_2 1_555 1_555
C73_2 C39_2 1_555 1_555
C75_2 C42_2 1_555 1_555
H58_2 C73_2 1_555 1_555
H61_2 C75_2 1_555 1_555
C83_2 N28_2 1_555 1_555
C86_2 N31_2 1_555 1_555
C94_2 C61_2 1_555 1_555
C99_2 C64_2 1_555 1_555
C105_2 C73_2 1_555 1_555
C108_2 C75_2 1_555 1_555
H66_2 C105_2 1_555 1_555
H70_2 C108_2 1_555 1_555
C116_2 C28_2 1_555 1_555
C119_2 C32_2 1_555 1_555
H80_2 C116_2 1_555 1_555
H83_2 C119_2 1_555 1_555
C127_2 C50_2 1_555 1_555
C130_2 C54_2 1_555 1_555
H91_2 C127_2 1_555 1_555
H94_2 C130_2 1_555 1_555
N35_2 C116_2 1_555 1_555
N35_2 C127_2 1_555 1_555
N46_2 C130_2 1_555 1_555
C83_2 C94_2 1_555 1_555
C86_2 C99_2 1_555 1_555
C94_2 C105_2 1_555 1_555
C99_2 C108_2 1_555 1_555
Zn2_9 O1_9 1_555 1_555
O2_9 Zn2_9 1_555 1_555
Zn5_2 N9_3 1_555 1_555
Zn12_2 N44_2 1_555 1_555
N9_3 C40_3 1_555 1_555
N14_3 Zn5_2 1_555 1_555
N19_3 Zn5_2 1_555 1_555
N22_3 Zn5_2 1_555 1_555
N30_3 H16_3 1_555 1_555
N33_3 H19_3 1_555 1_555
C19_3 N30_3 1_555 1_555
C22_3 N33_3 1_555 1_555
O13_3 C85_3 1_555 1_555
O16_3 C88_3 1_555 1_555
C30_3 C19_3 1_555 1_555
C33_3 C22_3 1_555 1_555
H27_3 C30_3 1_555 1_555
H30_3 C33_3 1_555 1_555
C40_3 C43_3 1_555 1_555
C43_3 N14_3 1_555 1_555
C52_3 C19_3 1_555 1_555
C55_3 C22_3 1_555 1_555
H38_3 C52_3 1_555 1_555
H41_3 C55_3 1_555 1_555
C62_3 N9_3 1_555 1_555
C66_3 N14_3 1_555 1_555
H47_3 C62_3 1_555 1_555
H50_3 C66_3 1_555 1_555
N34_3 Zn2_9 1_555 1_555
N44_2 C121_3 1_555 1_555
C72_3 C40_3 1_555 1_555
C77_3 C43_3 1_555 1_555
H59_3 C72_3 1_555 1_555
H63_3 C77_3 1_555 1_555
C85_3 N30_3 1_555 1_555
C88_3 N33_3 1_555 1_555
C96_3 C62_3 1_555 1_555
C97_3 C66_3 1_555 1_555
C106_3 C72_3 1_555 1_555
C110_3 C77_3 1_555 1_555
H65_3 C106_3 1_555 1_555
H68_3 C110_3 1_555 1_555
C118_3 C30_3 1_555 1_555
C121_3 C33_3 1_555 1_555
H82_3 C118_3 1_555 1_555
H85_3 C121_3 1_555 1_555
C129_3 C52_3 1_555 1_555
C132_3 C55_3 1_555 1_555
H93_3 C129_3 1_555 1_555
H96_3 C132_3 1_555 1_555
N34_3 C118_3 1_555 1_555
N34_3 C129_3 1_555 1_555
N44_2 C132_3 1_555 1_555
C85_3 C96_3 1_555 1_555
C88_3 C97_3 1_555 1_555
C96_3 C106_3 1_555 1_555
C97_3 C110_3 1_555 1_555
O2_9 H99_3 1_555 1_555
Zn2_10 O1_10 1_555 1_555
N15_2 C3_3 1_555 1_555
O2_10 Zn2_10 1_555 1_555
N2_3 H1_3 1_555 1_555
C1_3 N2_3 1_555 1_555
O3_3 C7_3 1_555 1_555
C2_3 C1_3 1_555 1_555
H2_3 C2_3 1_555 1_555
C3_3 C6_3 1_555 1_555
C4_3 C1_3 1_555 1_555
H3_3 C4_3 1_555 1_555
C5_3 N15_2 1_555 1_555
H4_3 C5_3 1_555 1_555
N3_3 Zn2_10 1_555 1_555
C6_3 H5_3 1_555 1_555
C7_3 N2_3 1_555 1_555
C8_3 C5_3 1_555 1_555
C9_3 C6_3 1_555 1_555
H6_3 C9_3 1_555 1_555
C10_3 C2_3 1_555 1_555
H7_3 C10_3 1_555 1_555
C11_3 C4_3 1_555 1_555
H8_3 C11_3 1_555 1_555
Zn12_2 N37_2 1_555 1_555
Zn8_3 N40_3 1_555 1_555
Zn9 N41_3 1_555 1_555
N23_3 H9_3 1_555 1_555
N26_3 H12_3 1_555 1_555
N27_3 H13_3 1_555 1_555
C12_3 N23_3 1_555 1_555
C15_3 N26_3 1_555 1_555
C16_3 N27_3 1_555 1_555
O6_3 C78_3 1_555 1_555
O9_3 C82_3 1_555 1_555
O10_3 C81_3 1_555 1_555
C23_3 C12_3 1_555 1_555
C26_3 C16_3 1_555 1_555
C27_3 C15_3 1_555 1_555
H20_3 C23_3 1_555 1_555
H23_3 C27_3 1_555 1_555
H24_3 C26_3 1_555 1_555
C34_3 C3_3 1_555 1_555
C35_3 N16_2 1_555 1_555
C37_3 N17_2 1_555 1_555
C45_3 C12_3 1_555 1_555
C48_3 C16_3 1_555 1_555
C49_3 C15_3 1_555 1_555
H31_3 C45_3 1_555 1_555
H34_3 C49_3 1_555 1_555
H35_3 C48_3 1_555 1_555
C56_3 N18_2 1_555 1_555
C57_3 N16_2 1_555 1_555
C59_3 N17_2 1_555 1_555
H42_3 C56_3 1_555 1_555
H45_3 C59_3 1_555 1_555
H46_3 C57_3 1_555 1_555
N37_2 C111_3 1_555 1_555
N40_3 C114_3 1_555 1_555
N41_3 C115_3 1_555 1_555
C67_3 C34_3 1_555 1_555
C70_3 C37_3 1_555 1_555
C71_3 C35_3 1_555 1_555
H53_3 C67_3 1_555 1_555
H56_3 C70_3 1_555 1_555
H57_3 C71_3 1_555 1_555
C78_3 N23_3 1_555 1_555
C81_3 N27_3 1_555 1_555
C82_3 N26_3 1_555 1_555
C89_3 C56_3 1_555 1_555
C92_3 C59_3 1_555 1_555
C93_3 C57_3 1_555 1_555
C100_3 C67_3 1_555 1_555
C103_3 C70_3 1_555 1_555
C104_3 C71_3 1_555 1_555
H64_3 C100_3 1_555 1_555
H73_3 C103_3 1_555 1_555
H74_3 C104_3 1_555 1_555
C111_3 C23_3 1_555 1_555
C114_3 C27_3 1_555 1_555
C115_3 C26_3 1_555 1_555
H75_3 C111_3 1_555 1_555
H78_3 C114_3 1_555 1_555
H79_3 C115_3 1_555 1_555
C122_3 C45_3 1_555 1_555
C125_3 C49_3 1_555 1_555
C126_3 C48_3 1_555 1_555
H86_3 C122_3 1_555 1_555
H89_3 C125_3 1_555 1_555
H90_3 C126_3 1_555 1_555
N3_3 C10_3 1_555 1_555
N3_3 C11_3 1_555 1_555
C7_3 C8_3 1_555 1_555
C8_3 C9_3 1_555 1_555
N18_2 C34_3 1_555 1_555
C35_3 C37_3 1_555 1_555
N37_2 C122_3 1_555 1_555
N40_3 C125_3 1_555 1_555
N41_3 C126_3 1_555 1_555
C78_3 C89_3 1_555 1_555
C81_3 C92_3 1_555 1_555
C82_3 C93_3 1_555 1_555
C89_3 C100_3 1_555 1_555
C92_3 C103_3 1_555 1_555
C93_3 C104_3 1_555 1_555
O1_10 H97_3 1_555 1_555
Zn2_11 O1_11 1_555 1_555
O2_11 Zn2_11 1_555 1_555
Zn5_3 N11_3 1_555 1_555
Zn12_2 O4_3 1_555 1_555
N11_3 C41_3 1_555 1_555
N13_3 Zn5_3 1_555 1_555
O5_3 Zn12_2 1_555 1_555
N29_3 H15_3 1_555 1_555
N32_3 H17_3 1_555 1_555
C18_3 N29_3 1_555 1_555
C20_3 N32_3 1_555 1_555
O12_3 C84_3 1_555 1_555
O15_3 C87_3 1_555 1_555
C29_3 C18_3 1_555 1_555
C31_3 C20_3 1_555 1_555
H26_3 C29_3 1_555 1_555
H29_3 C31_3 1_555 1_555
C41_3 C44_3 1_555 1_555
C44_3 N13_3 1_555 1_555
C51_3 C18_3 1_555 1_555
C53_3 C20_3 1_555 1_555
H37_3 C51_3 1_555 1_555
H40_3 C53_3 1_555 1_555
C63_3 N11_3 1_555 1_555
C65_3 N13_3 1_555 1_555
H49_3 C63_3 1_555 1_555
H51_3 C65_3 1_555 1_555
N36_3 Zn2_11 1_555 1_555
N43_3 Zn12_2 1_555 1_555
N46_3 Zn12_2 1_555 1_555
C74_3 C41_3 1_555 1_555
C76_3 C44_3 1_555 1_555
H60_3 C74_3 1_555 1_555
H62_3 C76_3 1_555 1_555
C84_3 N29_3 1_555 1_555
C87_3 N32_3 1_555 1_555
C95_3 C63_3 1_555 1_555
C98_3 C65_3 1_555 1_555
C107_3 C74_3 1_555 1_555
C109_3 C76_3 1_555 1_555
H67_3 C107_3 1_555 1_555
H69_3 C109_3 1_555 1_555
C117_3 C29_3 1_555 1_555
C120_3 C31_3 1_555 1_555
H81_3 C117_3 1_555 1_555
H84_3 C120_3 1_555 1_555
C128_3 C51_3 1_555 1_555
C131_3 C53_3 1_555 1_555
H92_3 C128_3 1_555 1_555
H95_3 C131_3 1_555 1_555
N36_3 C117_3 1_555 1_555
N36_3 C128_3 1_555 1_555
N43_3 C120_3 1_555 1_555
N43_3 C131_3 1_555 1_555
C84_3 C95_3 1_555 1_555
C87_3 C98_3 1_555 1_555
C95_3 C107_3 1_555 1_555
C98_3 C109_3 1_555 1_555
O1_11 H98_3 1_555 1_555
O2_11 H100_3 1_555 1_555
Zn2_12 O1_12 1_555 1_555
O2_12 Zn2_12 1_555 1_555
Zn3_3 N10_3 1_555 1_555
N10_3 C39_3 1_555 1_555
N12_3 Zn3_3 1_555 1_555
N15_3 Zn3_3 1_555 1_555
N16_3 Zn3_3 1_555 1_555
N17_3 Zn3_3 1_555 1_555
N18_3 Zn3_3 1_555 1_555
N28_3 H14_3 1_555 1_555
N31_3 H18_3 1_555 1_555
C17_3 N28_3 1_555 1_555
C21_3 N31_3 1_555 1_555
O11_3 C83_3 1_555 1_555
O14_3 C86_3 1_555 1_555
C28_3 C17_3 1_555 1_555
C32_3 C21_3 1_555 1_555
H25_3 C28_3 1_555 1_555
H28_3 C32_3 1_555 1_555
C39_3 C42_3 1_555 1_555
C42_3 N12_3 1_555 1_555
C50_3 C17_3 1_555 1_555
C54_3 C21_3 1_555 1_555
H36_3 C50_3 1_555 1_555
H39_3 C54_3 1_555 1_555
C61_3 N10_3 1_555 1_555
C64_3 N12_3 1_555 1_555
H48_3 C61_3 1_555 1_555
H52_3 C64_3 1_555 1_555
N35_3 Zn2_12 1_555 1_555
N46_3 C119_3 1_555 1_555
C73_3 C39_3 1_555 1_555
C75_3 C42_3 1_555 1_555
H58_3 C73_3 1_555 1_555
H61_3 C75_3 1_555 1_555
C83_3 N28_3 1_555 1_555
C86_3 N31_3 1_555 1_555
C94_3 C61_3 1_555 1_555
C99_3 C64_3 1_555 1_555
C105_3 C73_3 1_555 1_555
C108_3 C75_3 1_555 1_555
H66_3 C105_3 1_555 1_555
H70_3 C108_3 1_555 1_555
C116_3 C28_3 1_555 1_555
C119_3 C32_3 1_555 1_555
H80_3 C116_3 1_555 1_555
H83_3 C119_3 1_555 1_555
C127_3 C50_3 1_555 1_555
C130_3 C54_3 1_555 1_555
H91_3 C127_3 1_555 1_555
H94_3 C130_3 1_555 1_555
N35_3 C116_3 1_555 1_555
N35_3 C127_3 1_555 1_555
N46_3 C130_3 1_555 1_555
C83_3 C94_3 1_555 1_555
C86_3 C99_3 1_555 1_555
C94_3 C105_3 1_555 1_555
C99_3 C108_3 1_555 1_555
Zn7 O1_13 1_555 1_555
O2_13 Zn7 1_555 1_555
Zn13 O4_4 1_555 1_555
N20 C41_4 1_555 1_555
O5_4 Zn13 1_555 1_555
N29_4 H15_4 1_555 1_555
N32_4 H17_4 1_555 1_555
C18_4 N29_4 1_555 1_555
C20_4 N32_4 1_555 1_555
O12_4 C84_4 1_555 1_555
O15_4 C87_4 1_555 1_555
C29_4 C18_4 1_555 1_555
C31_4 C20_4 1_555 1_555
H26_4 C29_4 1_555 1_555
H29_4 C31_4 1_555 1_555
C41_4 C44_4 1_555 1_555
C44_4 N21 1_555 1_555
C51_4 C18_4 1_555 1_555
C53_4 C20_4 1_555 1_555
H37_4 C51_4 1_555 1_555
H40_4 C53_4 1_555 1_555
C63_4 N20 1_555 1_555
C65_4 N21 1_555 1_555
H49_4 C63_4 1_555 1_555
H51_4 C65_4 1_555 1_555
N36_4 Zn7 1_555 1_555
N43_4 Zn13 1_555 1_555
N45_2 Zn13 1_555 1_555
N47_2 Zn13 1_555 1_555
C74_4 C41_4 1_555 1_555
C76_4 C44_4 1_555 1_555
H60_4 C74_4 1_555 1_555
H62_4 C76_4 1_555 1_555
C84_4 N29_4 1_555 1_555
C87_4 N32_4 1_555 1_555
C95_4 C63_4 1_555 1_555
C98_4 C65_4 1_555 1_555
C107_4 C74_4 1_555 1_555
C109_4 C76_4 1_555 1_555
H67_4 C107_4 1_555 1_555
H69_4 C109_4 1_555 1_555
C117_4 C29_4 1_555 1_555
C120_4 C31_4 1_555 1_555
H81_4 C117_4 1_555 1_555
H84_4 C120_4 1_555 1_555
C128_4 C51_4 1_555 1_555
C131_4 C53_4 1_555 1_555
H92_4 C128_4 1_555 1_555
H95_4 C131_4 1_555 1_555
N36_4 C117_4 1_555 1_555
N36_4 C128_4 1_555 1_555
N43_4 C120_4 1_555 1_555
N43_4 C131_4 1_555 1_555
C84_4 C95_4 1_555 1_555
C87_4 C98_4 1_555 1_555
C95_4 C107_4 1_555 1_555
C98_4 C109_4 1_555 1_555
O1_13 H98_4 1_555 1_555
O2_13 H100_4 1_555 1_555
Zn7_2 O1_14 1_555 1_555
O2_14 Zn7_2 1_555 1_555
Zn7_3 O1_15 1_555 1_555
O2_15 Zn7_3 1_555 1_555
Zn5_3 N9_4 1_555 1_555
N9_4 C40_4 1_555 1_555
N14_4 Zn5_3 1_555 1_555
N19_4 Zn5_3 1_555 1_555
N22_4 Zn5_3 1_555 1_555
N30_4 H16_4 1_555 1_555
N33_4 H19_4 1_555 1_555
C19_4 N30_4 1_555 1_555
C22_4 N33_4 1_555 1_555
O13_4 C85_4 1_555 1_555
O16_4 C88_4 1_555 1_555
C30_4 C19_4 1_555 1_555
C33_4 C22_4 1_555 1_555
H27_4 C30_4 1_555 1_555
H30_4 C33_4 1_555 1_555
C40_4 C43_4 1_555 1_555
C43_4 N14_4 1_555 1_555
C52_4 C19_4 1_555 1_555
C55_4 C22_4 1_555 1_555
H38_4 C52_4 1_555 1_555
H41_4 C55_4 1_555 1_555
C62_4 N9_4 1_555 1_555
C66_4 N14_4 1_555 1_555
H47_4 C62_4 1_555 1_555
H50_4 C66_4 1_555 1_555
N34_4 Zn7_3 1_555 1_555
N45_2 C121_4 1_555 1_555
C72_4 C40_4 1_555 1_555
C77_4 C43_4 1_555 1_555
H59_4 C72_4 1_555 1_555
H63_4 C77_4 1_555 1_555
C85_4 N30_4 1_555 1_555
C88_4 N33_4 1_555 1_555
C96_4 C62_4 1_555 1_555
C97_4 C66_4 1_555 1_555
C106_4 C72_4 1_555 1_555
C110_4 C77_4 1_555 1_555
H65_4 C106_4 1_555 1_555
H68_4 C110_4 1_555 1_555
C118_4 C30_4 1_555 1_555
C121_4 C33_4 1_555 1_555
H82_4 C118_4 1_555 1_555
H85_4 C121_4 1_555 1_555
C129_4 C52_4 1_555 1_555
C132_4 C55_4 1_555 1_555
H93_4 C129_4 1_555 1_555
H96_4 C132_4 1_555 1_555
N34_4 C118_4 1_555 1_555
N34_4 C129_4 1_555 1_555
N45_2 C132_4 1_555 1_555
C85_4 C96_4 1_555 1_555
C88_4 C97_4 1_555 1_555
C96_4 C106_4 1_555 1_555
C97_4 C110_4 1_555 1_555
O2_15 H99_4 1_555 1_555
Zn7_4 O1_16 1_555 1_555
N15_3 C3_4 1_555 1_555
O2_16 Zn7_4 1_555 1_555
N2_4 H1_4 1_555 1_555
C1_4 N2_4 1_555 1_555
O3_4 C7_4 1_555 1_555
C2_4 C1_4 1_555 1_555
H2_4 C2_4 1_555 1_555
C3_4 C6_4 1_555 1_555
C4_4 C1_4 1_555 1_555
H3_4 C4_4 1_555 1_555
C5_4 N15_3 1_555 1_555
H4_4 C5_4 1_555 1_555
N3_4 Zn7_4 1_555 1_555
C6_4 H5_4 1_555 1_555
C7_4 N2_4 1_555 1_555
C8_4 C5_4 1_555 1_555
C9_4 C6_4 1_555 1_555
H6_4 C9_4 1_555 1_555
C10_4 C2_4 1_555 1_555
H7_4 C10_4 1_555 1_555
C11_4 C4_4 1_555 1_555
H8_4 C11_4 1_555 1_555
Zn8_4 N40_4 1_555 1_555
Zn9 N41_4 1_555 1_555
N23_4 H9_4 1_555 1_555
N26_4 H12_4 1_555 1_555
N27_4 H13_4 1_555 1_555
C12_4 N23_4 1_555 1_555
C15_4 N26_4 1_555 1_555
C16_4 N27_4 1_555 1_555
O6_4 C78_4 1_555 1_555
O9_4 C82_4 1_555 1_555
O10_4 C81_4 1_555 1_555
C23_4 C12_4 1_555 1_555
C26_4 C16_4 1_555 1_555
C27_4 C15_4 1_555 1_555
H20_4 C23_4 1_555 1_555
H23_4 C27_4 1_555 1_555
H24_4 C26_4 1_555 1_555
C34_4 C3_4 1_555 1_555
C35_4 N16_3 1_555 1_555
C37_4 N17_3 1_555 1_555
C45_4 C12_4 1_555 1_555
C48_4 C16_4 1_555 1_555
C49_4 C15_4 1_555 1_555
H31_4 C45_4 1_555 1_555
H34_4 C49_4 1_555 1_555
H35_4 C48_4 1_555 1_555
C56_4 N18_3 1_555 1_555
C57_4 N16_3 1_555 1_555
C59_4 N17_3 1_555 1_555
H42_4 C56_4 1_555 1_555
H45_4 C59_4 1_555 1_555
H46_4 C57_4 1_555 1_555
N47_2 C111_4 1_555 1_555
N40_4 C114_4 1_555 1_555
N41_4 C115_4 1_555 1_555
C67_4 C34_4 1_555 1_555
C70_4 C37_4 1_555 1_555
C71_4 C35_4 1_555 1_555
H53_4 C67_4 1_555 1_555
H56_4 C70_4 1_555 1_555
H57_4 C71_4 1_555 1_555
C78_4 N23_4 1_555 1_555
C81_4 N27_4 1_555 1_555
C82_4 N26_4 1_555 1_555
C89_4 C56_4 1_555 1_555
C92_4 C59_4 1_555 1_555
C93_4 C57_4 1_555 1_555
C100_4 C67_4 1_555 1_555
C103_4 C70_4 1_555 1_555
C104_4 C71_4 1_555 1_555
H64_4 C100_4 1_555 1_555
H73_4 C103_4 1_555 1_555
H74_4 C104_4 1_555 1_555
C111_4 C23_4 1_555 1_555
C114_4 C27_4 1_555 1_555
C115_4 C26_4 1_555 1_555
H75_4 C111_4 1_555 1_555
H78_4 C114_4 1_555 1_555
H79_4 C115_4 1_555 1_555
C122_4 C45_4 1_555 1_555
C125_4 C49_4 1_555 1_555
C126_4 C48_4 1_555 1_555
H86_4 C122_4 1_555 1_555
H89_4 C125_4 1_555 1_555
H90_4 C126_4 1_555 1_555
N3_4 C10_4 1_555 1_555
N3_4 C11_4 1_555 1_555
C7_4 C8_4 1_555 1_555
C8_4 C9_4 1_555 1_555
N18_3 C34_4 1_555 1_555
C35_4 C37_4 1_555 1_555
N47_2 C122_4 1_555 1_555
N40_4 C125_4 1_555 1_555
N41_4 C126_4 1_555 1_555
C78_4 C89_4 1_555 1_555
C81_4 C92_4 1_555 1_555
C82_4 C93_4 1_555 1_555
C89_4 C100_4 1_555 1_555
C92_4 C103_4 1_555 1_555
C93_4 C104_4 1_555 1_555
O1_16 H97_4 1_555 1_555
O1_2 H97_5 1_555 1_555
O1_3 H98_5 1_555 1_555
O2_3 H100_5 1_555 1_555
O2_4 H99_5 1_555 1_555
Zn8_5 N40_5 1_555 1_555
Zn9_2 N41_5 1_555 1_555
N26_5 H12_5 1_555 1_555
N27_5 H13_5 1_555 1_555
C15_5 N26_5 1_555 1_555
C16_5 N27_5 1_555 1_555
O9_5 C82_5 1_555 1_555
O10_5 C81_5 1_555 1_555
C26_5 C16_5 1_555 1_555
C27_5 C15_5 1_555 1_555
H23_5 C27_5 1_555 1_555
H24_5 C26_5 1_555 1_555
C35_5 N19_2 1_555 1_555
C37_5 N22_2 1_555 1_555
C48_5 C16_5 1_555 1_555
C49_5 C15_5 1_555 1_555
H34_5 C49_5 1_555 1_555
H35_5 C48_5 1_555 1_555
C57_5 N19_2 1_555 1_555
C59_5 N22_2 1_555 1_555
H45_5 C59_5 1_555 1_555
H46_5 C57_5 1_555 1_555
N40_5 C114_5 1_555 1_555
N41_5 C115_5 1_555 1_555
C70_5 C37_5 1_555 1_555
C71_5 C35_5 1_555 1_555
H56_5 C70_5 1_555 1_555
H57_5 C71_5 1_555 1_555
C81_5 N27_5 1_555 1_555
C82_5 N26_5 1_555 1_555
C92_5 C59_5 1_555 1_555
C93_5 C57_5 1_555 1_555
C103_5 C70_5 1_555 1_555
C104_5 C71_5 1_555 1_555
H73_5 C103_5 1_555 1_555
H74_5 C104_5 1_555 1_555
C114_5 C27_5 1_555 1_555
C115_5 C26_5 1_555 1_555
H78_5 C114_5 1_555 1_555
H79_5 C115_5 1_555 1_555
C125_5 C49_5 1_555 1_555
C126_5 C48_5 1_555 1_555
H89_5 C125_5 1_555 1_555
H90_5 C126_5 1_555 1_555
C35_5 C37_5 1_555 1_555
N40_5 C125_5 1_555 1_555
N41_5 C126_5 1_555 1_555
C81_5 C92_5 1_555 1_555
C82_5 C93_5 1_555 1_555
C92_5 C103_5 1_555 1_555
C93_5 C104_5 1_555 1_555
O1 H97_6 1_555 1_555
O2_2 H99_6 1_555 1_555
O1_4 H98_6 1_555 1_555
O2_4 H100_6 1_555 1_555
O2 H99_7 1_555 1_555
O1_2 H98_7 1_555 1_555
O2_2 H100_7 1_555 1_555
Zn8_6 N39_2 1_555 1_555
Zn9_2 N38_2 1_555 1_555
N24_2 H10_2 1_555 1_555
N25_2 H11_2 1_555 1_555
C13_2 N24_2 1_555 1_555
C14_2 N25_2 1_555 1_555
O7_2 C79_2 1_555 1_555
O8_2 C80_2 1_555 1_555
C24_2 C13_2 1_555 1_555
C25_2 C14_2 1_555 1_555
H21_2 C24_2 1_555 1_555
H22_2 C25_2 1_555 1_555
C36_2 N19 1_555 1_555
C38_2 N22 1_555 1_555
C46_2 C13_2 1_555 1_555
C47_2 C14_2 1_555 1_555
H32_2 C46_2 1_555 1_555
H33_2 C47_2 1_555 1_555
C58_2 N19 1_555 1_555
C60_2 N22 1_555 1_555
H43_2 C58_2 1_555 1_555
H44_2 C60_2 1_555 1_555
N38_2 C113_2 1_555 1_555
N39_2 C112_2 1_555 1_555
C68_2 C36_2 1_555 1_555
C69_2 C38_2 1_555 1_555
H54_2 C68_2 1_555 1_555
H55_2 C69_2 1_555 1_555
C79_2 N24_2 1_555 1_555
C80_2 N25_2 1_555 1_555
C90_2 C58_2 1_555 1_555
C91_2 C60_2 1_555 1_555
C101_2 C68_2 1_555 1_555
C102_2 C69_2 1_555 1_555
H71_2 C101_2 1_555 1_555
H72_2 C102_2 1_555 1_555
C112_2 C24_2 1_555 1_555
C113_2 C25_2 1_555 1_555
H76_2 C113_2 1_555 1_555
H77_2 C112_2 1_555 1_555
C123_2 C46_2 1_555 1_555
C124_2 C47_2 1_555 1_555
H87_2 C124_2 1_555 1_555
H88_2 C123_2 1_555 1_555
C36_2 C38_2 1_555 1_555
N38_2 C124_2 1_555 1_555
N39_2 C123_2 1_555 1_555
C79_2 C90_2 1_555 1_555
C80_2 C91_2 1_555 1_555
C90_2 C101_2 1_555 1_555
C91_2 C102_2 1_555 1_555
O1_3 H97_7 1_555 1_555
Zn8 O1_17 1_555 1_555
O2_17 Zn8 1_555 1_555
Zn9 O4_5 1_555 1_555
O5_5 Zn9 1_555 1_555
O1_17 H98_8 1_555 1_555
O2_17 H100_8 1_555 1_555
Zn8_2 O1_18 1_555 1_555
O2_18 Zn8_2 1_555 1_555
O2_18 H99_8 1_555 1_555
Zn8_3 O1_19 1_555 1_555
O2_19 Zn8_3 1_555 1_555
Zn8_4 O1_20 1_555 1_555
O2_20 Zn8_4 1_555 1_555
O1_20 H97_8 1_555 1_555
O1_10 H98_9 1_555 1_555
O2_10 H100_9 1_555 1_555
Zn8_8 N40_6 1_555 1_555
Zn9_2 N41_6 1_555 1_555
N26_6 H12_6 1_555 1_555
N27_6 H13_6 1_555 1_555
C15_6 N26_6 1_555 1_555
C16_6 N27_6 1_555 1_555
O9_6 C82_6 1_555 1_555
O10_6 C81_6 1_555 1_555
C26_6 C16_6 1_555 1_555
C27_6 C15_6 1_555 1_555
H23_6 C27_6 1_555 1_555
H24_6 C26_6 1_555 1_555
C35_6 N19_4 1_555 1_555
C37_6 N22_4 1_555 1_555
C48_6 C16_6 1_555 1_555
C49_6 C15_6 1_555 1_555
H34_6 C49_6 1_555 1_555
H35_6 C48_6 1_555 1_555
C57_6 N19_4 1_555 1_555
C59_6 N22_4 1_555 1_555
H45_6 C59_6 1_555 1_555
H46_6 C57_6 1_555 1_555
N40_6 C114_6 1_555 1_555
N41_6 C115_6 1_555 1_555
C70_6 C37_6 1_555 1_555
C71_6 C35_6 1_555 1_555
H56_6 C70_6 1_555 1_555
H57_6 C71_6 1_555 1_555
C81_6 N27_6 1_555 1_555
C82_6 N26_6 1_555 1_555
C92_6 C59_6 1_555 1_555
C93_6 C57_6 1_555 1_555
C103_6 C70_6 1_555 1_555
C104_6 C71_6 1_555 1_555
H73_6 C103_6 1_555 1_555
H74_6 C104_6 1_555 1_555
C114_6 C27_6 1_555 1_555
C115_6 C26_6 1_555 1_555
H78_6 C114_6 1_555 1_555
H79_6 C115_6 1_555 1_555
C125_6 C49_6 1_555 1_555
C126_6 C48_6 1_555 1_555
H89_6 C125_6 1_555 1_555
H90_6 C126_6 1_555 1_555
C35_6 C37_6 1_555 1_555
N40_6 C125_6 1_555 1_555
N41_6 C126_6 1_555 1_555
C81_6 C92_6 1_555 1_555
C82_6 C93_6 1_555 1_555
C92_6 C103_6 1_555 1_555
C93_6 C104_6 1_555 1_555
O1_11 H97_9 1_555 1_555
O2_12 H99_9 1_555 1_555
Zn8_5 O1_21 1_555 1_555
O2_21 Zn8_5 1_555 1_555
Zn8_6 O1_22 1_555 1_555
O2_22 Zn8_6 1_555 1_555
O1_22 H97_10 1_555 1_555
Zn8_7 O1_23 1_555 1_555
O2_23 Zn8_7 1_555 1_555
Zn9_2 O4_6 1_555 1_555
N19_3 C41_5 1_555 1_555
O5_6 Zn9_2 1_555 1_555
N29_5 H15_5 1_555 1_555
N32_5 H17_5 1_555 1_555
C18_5 N29_5 1_555 1_555
C20_5 N32_5 1_555 1_555
O12_5 C84_5 1_555 1_555
O15_5 C87_5 1_555 1_555
C29_5 C18_5 1_555 1_555
C31_5 C20_5 1_555 1_555
H26_5 C29_5 1_555 1_555
H29_5 C31_5 1_555 1_555
C41_5 C44_5 1_555 1_555
C44_5 N22_3 1_555 1_555
C51_5 C18_5 1_555 1_555
C53_5 C20_5 1_555 1_555
H37_5 C51_5 1_555 1_555
H40_5 C53_5 1_555 1_555
C63_5 N19_3 1_555 1_555
C65_5 N22_3 1_555 1_555
H49_5 C63_5 1_555 1_555
H51_5 C65_5 1_555 1_555
N36_5 Zn8_7 1_555 1_555
N43_5 Zn9_2 1_555 1_555
C74_5 C41_5 1_555 1_555
C76_5 C44_5 1_555 1_555
H60_5 C74_5 1_555 1_555
H62_5 C76_5 1_555 1_555
C84_5 N29_5 1_555 1_555
C87_5 N32_5 1_555 1_555
C95_5 C63_5 1_555 1_555
C98_5 C65_5 1_555 1_555
C107_5 C74_5 1_555 1_555
C109_5 C76_5 1_555 1_555
H67_5 C107_5 1_555 1_555
H69_5 C109_5 1_555 1_555
C117_5 C29_5 1_555 1_555
C120_5 C31_5 1_555 1_555
H81_5 C117_5 1_555 1_555
H84_5 C120_5 1_555 1_555
C128_5 C51_5 1_555 1_555
C131_5 C53_5 1_555 1_555
H92_5 C128_5 1_555 1_555
H95_5 C131_5 1_555 1_555
N36_5 C117_5 1_555 1_555
N36_5 C128_5 1_555 1_555
N43_5 C120_5 1_555 1_555
N43_5 C131_5 1_555 1_555
C84_5 C95_5 1_555 1_555
C87_5 C98_5 1_555 1_555
C95_5 C107_5 1_555 1_555
C98_5 C109_5 1_555 1_555
O1_23 H98_10 1_555 1_555
O2_23 H100_10 1_555 1_555
Zn8_8 O1_24 1_555 1_555
O2_24 Zn8_8 1_555 1_555
O2_24 H99_10 1_555 1_555
O1_5 H98_11 1_555 1_555
O2_5 H100_11 1_555 1_555
O2_6 H99_11 1_555 1_555
O1_8 H97_11 1_555 1_555
O1_21 H98_12 1_555 1_555
O2_21 H100_12 1_555 1_555
O2_23 H99_12 1_555 1_555
O1_24 H97_12 1_555 1_555
O1_21 H97_13 1_555 1_555
O2_22 H99_13 1_555 1_555
O1_24 H98_13 1_555 1_555
O2_24 H100_13 1_555 1_555
O2_13 H99_14 1_555 1_555
O1_14 H98_14 1_555 1_555
O2_14 H100_14 1_555 1_555
O1_15 H97_14 1_555 1_555
O2_17 H99_15 1_555 1_555
O1_18 H97_15 1_555 1_555
O1_19 H98_15 1_555 1_555
O2_19 H100_15 1_555 1_555
O1_14 H97_16 1_555 1_555
O1_15 H98_16 1_555 1_555
O2_15 H100_16 1_555 1_555
O2_16 H99_16 1_555 1_555
O1_5 H97_17 1_555 1_555
O2_7 H99_17 1_555 1_555
O1_8 H98_17 1_555 1_555
O2_8 H100_17 1_555 1_555
O1_18 H98_18 1_555 1_555
O2_18 H100_18 1_555 1_555
O1_19 H97_18 1_555 1_555
O2_20 H99_18 1_555 1_555
O1_6 H98_19 1_555 1_555
O2_6 H100_19 1_555 1_555
O1_7 H97_19 1_555 1_555
O2_8 H99_19 1_555 1_555
O1_13 H97_20 1_555 1_555
O2_14 H99_20 1_555 1_555
O1_16 H98_20 1_555 1_555
O2_16 H100_20 1_555 1_555
O1_9 H98_21 1_555 1_555
O2_9 H100_21 1_555 1_555
O2_10 H99_21 1_555 1_555
O1_12 H97_21 1_555 1_555
O1_9 H97_22 1_555 1_555
O2_11 H99_22 1_555 1_555
O1_12 H98_22 1_555 1_555
O2_12 H100_22 1_555 1_555
O2_21 H99_23 1_555 1_555
O1_22 H98_23 1_555 1_555
O2_22 H100_23 1_555 1_555
O1_23 H97_23 1_555 1_555
O1_17 H97_24 1_555 1_555
O2_19 H99_24 1_555 1_555
O1_20 H98_24 1_555 1_555
O2_20 H100_24 1_555 1_555
N48 O17 1_555 1_555
O18 N48 1_555 1_555
O19 N48 1_555 1_555
N48_2 O17_2 1_555 1_555
O18_2 N48_2 1_555 1_555
O19_2 N48_2 1_555 1_555
N48_3 O17_3 1_555 1_555
O18_3 N48_3 1_555 1_555
O19_3 N48_3 1_555 1_555
N48_4 O17_4 1_555 1_555
O18_4 N48_4 1_555 1_555
O19_4 N48_4 1_555 1_555
N48_5 O17_5 1_555 1_555
O18_5 N48_5 1_555 1_555
O19_5 N48_5 1_555 1_555
N48_6 O17_6 1_555 1_555
O18_6 N48_6 1_555 1_555
O19_6 N48_6 1_555 1_555
N48_7 O17_7 1_555 1_555
O18_7 N48_7 1_555 1_555
O19_7 N48_7 1_555 1_555
N48_8 O17_8 1_555 1_555
O18_8 N48_8 1_555 1_555
O19_8 N48_8 1_555 1_555
N48_9 O17_9 1_555 1_555
O18_9 N48_9 1_555 1_555
O19_9 N48_9 1_555 1_555
N48_10 O17_10 1_555 1_555
O18_10 N48_10 1_555 1_555
O19_10 N48_10 1_555 1_555
N48_11 O17_11 1_555 1_555
O18_11 N48_11 1_555 1_555
O19_11 N48_11 1_555 1_555
N48_12 O17_12 1_555 1_555
O18_12 N48_12 1_555 1_555
O19_12 N48_12 1_555 1_555
N48_13 O17_13 1_555 1_555
O18_13 N48_13 1_555 1_555
O19_13 N48_13 1_555 1_555
N48_14 O17_14 1_555 1_555
O18_14 N48_14 1_555 1_555
O19_14 N48_14 1_555 1_555
N48_15 O17_15 1_555 1_555
O18_15 N48_15 1_555 1_555
O19_15 N48_15 1_555 1_555
N48_16 O17_16 1_555 1_555
O18_16 N48_16 1_555 1_555
O19_16 N48_16 1_555 1_555
N49 O20 1_555 1_555
O22 N49 1_555 1_555
N49_2 O20_2 1_555 1_555
O21 N49_2 1_555 1_555
N49_3 O20_3 1_555 1_555
O21_2 N49_3 1_555 1_555
N49_4 O20_4 1_555 1_555
O22_2 N49_4 1_555 1_555
N49_5 O20_5 1_555 1_555
O21_3 N49_5 1_555 1_555
N49_6 O20_6 1_555 1_555
O22_3 N49_6 1_555 1_555
N49_7 O20_7 1_555 1_555
O22_4 N49_7 1_555 1_555
N49_8 O20_8 1_555 1_555
O21_4 N49_8 1_555 1_555
N49_9 O20_9 1_555 1_555
O22_5 N49_9 1_555 1_555
N49_10 O20_10 1_555 1_555
O21_5 N49_10 1_555 1_555
N49_11 O20_11 1_555 1_555
O21_6 N49_11 1_555 1_555
N49_12 O20_12 1_555 1_555
O22_6 N49_12 1_555 1_555
N49_13 O20_13 1_555 1_555
O21_7 N49_13 1_555 1_555
N49_14 O20_14 1_555 1_555
O22_7 N49_14 1_555 1_555
N49_15 O20_15 1_555 1_555
O22_8 N49_15 1_555 1_555
N49_16 O20_16 1_555 1_555
O21_8 N49_16 1_555 1_555
N49_17 O20_17 1_555 1_555
O21_9 N49_17 1_555 1_555
N49_18 O20_18 1_555 1_555
O22_9 N49_18 1_555 1_555
N49_19 O20_19 1_555 1_555
O22_10 N49_19 1_555 1_555
N49_20 O20_20 1_555 1_555
O21_10 N49_20 1_555 1_555
N49_21 O20_21 1_555 1_555
O21_11 N49_21 1_555 1_555
N49_22 O20_22 1_555 1_555
O22_11 N49_22 1_555 1_555
N49_23 O20_23 1_555 1_555
O22_12 N49_23 1_555 1_555
N49_24 O20_24 1_555 1_555
O21_12 N49_24 1_555 1_555
N49_25 O20_25 1_555 1_555
O21_13 N49_25 1_555 1_555
O22_13 N49_25 1_555 1_555
N49_26 O20_26 1_555 1_555
O21_14 N49_26 1_555 1_555
O22_14 N49_26 1_555 1_555
N49_27 O20_27 1_555 1_555
O21_15 N49_27 1_555 1_555
O22_15 N49_27 1_555 1_555
N49_28 O20_28 1_555 1_555
O21_16 N49_28 1_555 1_555
O22_16 N49_28 1_555 1_555
N49_29 O20_29 1_555 1_555
O21_17 N49_29 1_555 1_555
O22_17 N49_29 1_555 1_555
N49_30 O20_30 1_555 1_555
O21_18 N49_30 1_555 1_555
O22_18 N49_30 1_555 1_555
N49_31 O20_31 1_555 1_555
O21_19 N49_31 1_555 1_555
O22_19 N49_31 1_555 1_555
N49_32 O20_32 1_555 1_555
O21_20 N49_32 1_555 1_555
O22_20 N49_32 1_555 1_555
N49_33 O20_33 1_555 1_555
O21_21 N49_33 1_555 1_555
O22_21 N49_33 1_555 1_555
N49_34 O20_34 1_555 1_555
O21_22 N49_34 1_555 1_555
O22_22 N49_34 1_555 1_555
N49_35 O20_35 1_555 1_555
O21_23 N49_35 1_555 1_555
O22_23 N49_35 1_555 1_555
N49_36 O20_36 1_555 1_555
O21_24 N49_36 1_555 1_555
O22_24 N49_36 1_555 1_555

#END
