
###############################################################################
#
# This file contains modified crystal structure data generated from the
# MOF subset of the Cambridge Structural Database (CSD) v543 
# hosted by the Cambridge Crystallographic Data Centre (CCDC).
#
# This work is licensed under the Creative Commons
# Attribution-NonCommercial-ShareAlike 4.0 International License.
# To view a copy of this license, visit
# http://creativecommons.org/licenses/by-nc-sa/4.0/
# or send a letter to
# Creative Commons, PO Box 1866, Mountain View, CA 94042, USA.
#
# CIF created using the CSD Python API on 29 September 2022
# The structure has been converted into the P1 space group
# The structure has a 3D framework
# The original CSD entry TATDIF is in the monoclinic crystal system
# The framework has been calculated to contain at least 10.0% void space
# The void calculation uses a probe of radius 1.32A, grid spacing 0.4
#
###############################################################################

data_TATDIF
_chemical_formula_moiety         '(C256 H176 Cd8 F12 N20 O36)n'
_symmetry_cell_setting           triclinic
_symmetry_space_group_name_H-M   'P 1'
_symmetry_Int_Tables_number      1
_space_group_name_Hall           'P 1'
loop_
_symmetry_equiv_pos_site_id
_symmetry_equiv_pos_as_xyz
1 x,y,z
_cell_length_a                   23.5625(10)
_cell_length_b                   14.0464(4)
_cell_length_c                   22.7936(9)
_cell_angle_alpha                90
_cell_angle_beta                 108.374(4)
_cell_angle_gamma                90
_cell_volume                     7159.36
loop_
_atom_site_label
_atom_site_type_symbol
_atom_site_fract_x
_atom_site_fract_y
_atom_site_fract_z
N3 N 0.3332(3) 0.2276(5) 0.2336(3)
C46 C 0.3416(4) 0.0278(5) 0.2266(4)
C47 C 0.3676(5) 0.0867(6) 0.1975(5)
H29 H 0.391090 0.061873 0.175108
C54 C 0.3606(5) 0.1854(7) 0.1997(5)
H35 H 0.376591 0.223175 0.175323
C55 C 0.3043(5) 0.1704(7) 0.2578(5)
H36 H 0.280134 0.197513 0.278569
C56 C 0.3060(5) 0.0729(7) 0.2557(5)
H37 H 0.283042 0.037010 0.274120
Cd6 Cd 0.31833(2) 0.39295(3) 0.23535(2)
Cd1 Cd 0.49947(2) 0.42926(3) 0.37996(2)
F1 F 0.3405(2) 0.3926(4) 0.0065(3)
N1 N 0.4866(3) 0.2644(5) 0.3842(3)
C1 C 0.2844(4) 0.3942(6) 0.1055(4)
C2 C 0.2533(4) 0.3938(6) 0.0372(4)
O3 O 0.2508(3) 0.3852(4) 0.1386(3)
O4 O 0.3388(3) 0.4055(5) 0.1264(3)
N4 N 0.3136(3) 0.5604(5) 0.2321(3)
O7 O 0.4277(2) 0.4422(4) 0.4268(2)
H3 H 0.392787 0.439511 0.400774
H4 H 0.431467 0.492901 0.448004
C7 C 0.1908(4) 0.3943(7) 0.0154(4)
H5 H 0.170272 0.397657 0.044153
O8 O 0.5089(3) 0.4264(5) 0.2748(3)
O9 O 0.4195(3) 0.4180(4) 0.2801(3)
C39 C 0.2878(4) 0.6082(6) 0.2666(4)
H23 H 0.269223 0.573770 0.290196
C40 C 0.2869(4) 0.7048(6) 0.2696(4)
H24 H 0.267370 0.734542 0.294307
C41 C 0.3148(4) 0.7592(5) 0.2361(3)
C42 C 0.3408(4) 0.7114(6) 0.2005(4)
H25 H 0.359853 0.744425 0.176650
C43 C 0.3393(4) 0.6137(6) 0.1993(4)
H26 H 0.357487 0.582711 0.173912
C44 C 0.3138(4) 0.8648(6) 0.2416(4)
H27 H 0.288001 0.890201 0.261045
C45 C 0.3460(4) 0.9255(5) 0.2215(4)
H28 H 0.372988 0.901407 0.203022
C57 C 0.4521(5) 0.2211(8) 0.4087(5)
H38 H 0.430747 0.258198 0.428285
C58 C 0.5140(5) 0.2077(7) 0.3593(5)
H39 H 0.538438 0.234673 0.338766
C59 C 0.5109(6) 0.1060(7) 0.3600(6)
H40 H 0.532406 0.069847 0.340177
C60 C 0.4776(5) 0.0641(7) 0.3887(5)
C61 C 0.4437(6) 0.1227(8) 0.4085(6)
H41 H 0.413684 0.097987 0.422588
C63 C 0.4539(4) 0.4174(6) 0.2525(4)
H43 H 0.438471 0.409354 0.209899
O10 O 0.5802(2) 0.4269(4) 0.4843(2)
O11 O 0.5999(3) 0.4040(4) 0.3981(3)
N6 N 0.5020(3) 0.5958(5) 0.3822(3)
O12 O 0.3253(3) 0.3815(4) 0.3443(3)
O13 O 0.2373(3) 0.3790(4) 0.2766(3)
C3 C 0.2799(4) 0.3936(6) 0.9913(4)
C4 C 0.2493(4) 0.3884(6) 0.9300(4)
H1 H 0.270213 0.385217 0.901601
N5 N 0.0597(3) 0.3685(5) 0.6512(3)
C5 C 0.1872(4) 0.3879(6) 0.9091(4)
C6 C 0.1582(4) 0.3899(7) 0.9538(4)
H2 H 0.116668 0.388386 0.941875
C8 C 0.1536(4) 0.3848(6) 0.8419(4)
C9 C 0.1717(4) 0.4363(7) 0.7992(4)
H6 H 0.205645 0.474278 0.812590
C10 C 0.1398(4) 0.4320(7) 0.7369(4)
H7 H 0.151644 0.469113 0.709024
C11 C 0.0910(4) 0.3734(7) 0.7157(3)
C12 C 0.0717(4) 0.3233(7) 0.7577(3)
H8 H 0.037884 0.285062 0.743844
C13 C 0.1021(4) 0.3290(7) 0.8204(4)
H9 H 0.088204 0.295530 0.848265
C15 C 0.0716(4) 0.4273(7) 0.5556(4)
H10 H 0.037179 0.463727 0.549177
C16 C 0.0932(3) 0.3716(7) 0.6083(3)
C17 C 0.1443(4) 0.3218(7) 0.6185(3)
H11 H 0.158712 0.285830 0.654362
C18 C 0.2700(4) 0.3775(5) 0.3313(4)
C19 C 0.2419(4) 0.3706(6) 0.3823(3)
C20 C 0.2731(4) 0.3625(6) 0.4436(4)
C21 C 0.2463(4) 0.3626(6) 0.4887(4)
H12 H 0.269664 0.356781 0.529893
C22 C 0.1844(3) 0.3713(6) 0.4739(3)
C23 C 0.1525(4) 0.3772(6) 0.4122(3)
H13 H 0.111078 0.381015 0.400695
C24 C 0.1556(4) 0.3743(6) 0.5219(4)
C25 C 0.1758(4) 0.3235(6) 0.5761(3)
H14 H 0.211345 0.289531 0.584635
F3 F 0.3336(2) 0.3521(5) 0.4643(3)
C26 C 0.1026(4) 0.4278(6) 0.5124(4)
H15 H 0.088044 0.464035 0.476653
C64 C 0.1795(4) 0.3777(6) 0.3661(4)
H44 H 0.156351 0.382803 0.324828
C48 C 0.5496(5) 0.6431(7) 0.4118(5)
H30 H 0.583264 0.608259 0.433496
C49 C 0.5547(5) 0.7432(7) 0.4139(5)
H31 H 0.590911 0.773595 0.432739
C50 C 0.5012(4) 0.7950(6) 0.3855(5)
C51 C 0.4554(5) 0.7475(8) 0.3683(5)
H32 H 0.418807 0.778800 0.357594
C52 C 0.4558(5) 0.6466(7) 0.3641(5)
H33 H 0.419348 0.616008 0.346864
C53 C 0.5056(5) 0.8981(7) 0.3891(5)
H34 H 0.544135 0.920538 0.395010
C62 C 0.4710(6) 0.9586(8) 0.3862(5)
H42 H 0.432420 0.937212 0.381403
C14 C 0.9971(4) 0.3625(7) 0.6288(3)
F2 F 0.6706(2) 0.3876(5) 0.5888(2)
C27 C 0.6167(3) 0.4090(6) 0.4567(4)
C28 C 0.6823(3) 0.3961(6) 0.4900(3)
C29 C 0.7228(4) 0.3932(6) 0.4565(4)
H16 H 0.708648 0.400046 0.413738
C30 C 0.7818(4) 0.3809(6) 0.4845(4)
H17 H 0.807248 0.379354 0.460561
C31 C 0.8057(3) 0.3704(6) 0.5480(4)
C32 C 0.7664(3) 0.3741(6) 0.5825(4)
H18 H 0.780592 0.368181 0.625288
C33 C 0.7070(4) 0.3866(6) 0.5528(4)
C34 C 0.8713(4) 0.3622(6) 0.5781(4)
C35 C 0.9071(4) 0.3141(7) 0.5498(4)
H19 H 0.888797 0.280745 0.513465
C36 C 0.9686(4) 0.3138(7) 0.5731(4)
H20 H 0.991177 0.281888 0.552382
C37 C 0.9612(4) 0.4068(6) 0.6587(4)
H21 H 0.978614 0.438627 0.695777
C38 C 0.8999(4) 0.4037(6) 0.6337(4)
H22 H 0.876986 0.431281 0.655657
O1 O 0.4198(2) 0.9269(4) 0.0157(2)
O2 O 0.4001(3) 0.9040(4) 0.1019(3)
C27_2 C 0.3833(3) 0.9090(6) 0.0433(4)
C28_2 C 0.3177(3) 0.8961(6) 0.0100(3)
C29_2 C 0.2772(4) 0.8932(6) 0.0435(4)
H16_2 H 0.291352 0.900046 0.086262
C30_2 C 0.2182(4) 0.8809(6) 0.0155(4)
H17_2 H 0.192752 0.879354 0.039439
Cd3 Cd 0.50053(2) 0.92926(3) 0.12004(2)
N3_2 N 0.6668(3) 0.7276(5) 0.2664(3)
N4_2 N 0.6864(3) 0.0604(5) 0.2679(3)
C39_2 C 0.7122(4) 0.1082(6) 0.2334(4)
H23_2 H 0.730777 0.073770 0.209804
C40_2 C 0.7131(4) 0.2048(6) 0.2304(4)
H24_2 H 0.732630 0.234542 0.205693
C41_2 C 0.6852(4) 0.2592(5) 0.2639(3)
C42_2 C 0.6592(4) 0.2114(6) 0.2995(4)
H25_2 H 0.640147 0.244425 0.323350
C43_2 C 0.6607(4) 0.1137(6) 0.3007(4)
H26_2 H 0.642513 0.082711 0.326088
C44_2 C 0.6862(4) 0.3648(6) 0.2584(4)
H27_2 H 0.711999 0.390201 0.238955
C45_2 C 0.6540(4) 0.4255(5) 0.2785(4)
H28_2 H 0.627012 0.401407 0.296978
C46_2 C 0.6584(4) 0.5278(5) 0.2734(4)
C47_2 C 0.6324(5) 0.5867(6) 0.3025(5)
H29_2 H 0.608910 0.561873 0.324892
C54_2 C 0.6394(5) 0.6854(7) 0.3003(5)
H35_2 H 0.623409 0.723175 0.324677
C55_2 C 0.6957(5) 0.6704(7) 0.2422(5)
H36_2 H 0.719866 0.697513 0.221431
C56_2 C 0.6940(5) 0.5729(7) 0.2443(5)
H37_2 H 0.716958 0.537010 0.225880
Cd6_2 Cd 0.68167(2) 0.89295(3) 0.26465(2)
N6_2 N 0.4980(3) 0.0958(5) 0.1178(3)
O5 O 0.6747(3) 0.8815(4) 0.1557(3)
O6 O 0.7627(3) 0.8790(4) 0.2234(3)
C18_2 C 0.7300(4) 0.8775(5) 0.1687(4)
C19_2 C 0.7581(4) 0.8706(6) 0.1177(3)
C20_2 C 0.7269(4) 0.8625(6) 0.0564(4)
C21_2 C 0.7537(4) 0.8626(6) 0.0113(4)
C22_2 C 0.8156(3) 0.8713(6) 0.0261(3)
C23_2 C 0.8475(4) 0.8772(6) 0.0878(3)
H13_2 H 0.888922 0.881015 0.099305
F3_2 F 0.6664(2) 0.8521(5) 0.0357(3)
H15_2 H 0.911956 0.964035 0.023347
C64_2 C 0.8205(4) 0.8777(6) 0.1339(4)
H44_2 H 0.843649 0.882803 0.175172
F1_2 F 0.6595(2) 0.8926(4) 0.4935(3)
N1_2 N 0.5134(3) 0.7644(5) 0.1158(3)
C1_2 C 0.7156(4) 0.8942(6) 0.3945(4)
C2_2 C 0.7467(4) 0.8938(6) 0.4628(4)
O3_2 O 0.7492(3) 0.8852(4) 0.3614(3)
C3_2 C 0.7201(4) 0.8936(6) 0.5087(4)
O4_2 O 0.6612(3) 0.9055(5) 0.3736(3)
C4_2 C 0.7507(4) 0.8884(6) 0.5700(4)
H1_2 H 0.729787 0.885217 0.598399
N5_2 N 0.9403(3) 0.8685(5) 0.8488(3)
C5_2 C 0.8128(4) 0.8879(6) 0.5909(4)
C6_2 C 0.8418(4) 0.8899(7) 0.5462(4)
H2_2 H 0.883332 0.888386 0.558125
O7_2 O 0.5723(2) 0.9422(4) 0.0732(2)
H3_2 H 0.607213 0.939511 0.099226
H4_2 H 0.568533 0.992901 0.051996
C7_2 C 0.8092(4) 0.8943(7) 0.4846(4)
H5_2 H 0.829728 0.897657 0.455847
O8_2 O 0.4911(3) 0.9264(5) 0.2252(3)
C8_2 C 0.8464(4) 0.8848(6) 0.6581(4)
O9_2 O 0.5805(3) 0.9180(4) 0.2199(3)
C9_2 C 0.8283(4) 0.9363(7) 0.7008(4)
H6_2 H 0.794355 0.974278 0.687410
C10_2 C 0.8602(4) 0.9320(7) 0.7631(4)
H7_2 H 0.848356 0.969113 0.790976
C11_2 C 0.9090(4) 0.8734(7) 0.7843(3)
C12_2 C 0.9283(4) 0.8233(7) 0.7423(3)
H8_2 H 0.962116 0.785062 0.756156
C13_2 C 0.8979(4) 0.8290(7) 0.6796(4)
H9_2 H 0.911796 0.795530 0.651735
C15_2 C 0.9284(4) 0.9273(7) 0.9444(4)
H10_2 H 0.962821 0.963727 0.950823
C16_2 C 0.9068(3) 0.8716(7) 0.8917(3)
C17_2 C 0.8557(4) 0.8218(7) 0.8815(3)
H11_2 H 0.841288 0.785830 0.845638
H12_2 H 0.730336 0.856781 0.970107
C24_2 C 0.8444(4) 0.8743(6) 0.9781(4)
C25_2 C 0.8242(4) 0.8235(6) 0.9239(3)
H14_2 H 0.788655 0.789531 0.915365
C26_2 C 0.8974(4) 0.9278(6) 0.9876(4)
C48_2 C 0.4504(5) 0.1431(7) 0.0882(5)
H30_2 H 0.416736 0.108259 0.066504
C49_2 C 0.4453(5) 0.2432(7) 0.0861(5)
H31_2 H 0.409089 0.273595 0.067261
C50_2 C 0.4988(4) 0.2950(6) 0.1145(5)
C51_2 C 0.5446(5) 0.2475(8) 0.1317(5)
H32_2 H 0.581193 0.278800 0.142406
C52_2 C 0.5442(5) 0.1466(7) 0.1359(5)
H33_2 H 0.580652 0.116008 0.153136
C53_2 C 0.4944(5) 0.3981(7) 0.1109(5)
H34_2 H 0.455865 0.420538 0.104990
C57_2 C 0.5479(5) 0.7211(8) 0.0913(5)
H38_2 H 0.569253 0.758198 0.071715
C58_2 C 0.4860(5) 0.7077(7) 0.1407(5)
H39_2 H 0.461562 0.734673 0.161234
C59_2 C 0.4891(6) 0.6060(7) 0.1400(6)
H40_2 H 0.467594 0.569847 0.159823
C60_2 C 0.5224(5) 0.5641(7) 0.1113(5)
C61_2 C 0.5563(6) 0.6227(8) 0.0915(6)
H41_2 H 0.586316 0.597987 0.077412
C62_2 C 0.5290(6) 0.4586(8) 0.1138(5)
H42_2 H 0.567580 0.437212 0.118597
C63_2 C 0.5461(4) 0.9174(6) 0.2475(4)
H43_2 H 0.561529 0.909354 0.290101
C14_2 C 0.0029(4) 0.8625(7) 0.8712(3)
F2_2 F 0.3294(2) 0.8876(5) 0.9112(2)
C31_2 C 0.1943(3) 0.8704(6) 0.9520(4)
C32_2 C 0.2336(3) 0.8741(6) 0.9175(4)
H18_2 H 0.219408 0.868181 0.874712
C33_2 C 0.2930(4) 0.8866(6) 0.9472(4)
C34_2 C 0.1287(4) 0.8622(6) 0.9219(4)
C35_2 C 0.0929(4) 0.8141(7) 0.9502(4)
H19_2 H 0.111203 0.780745 0.986535
C36_2 C 0.0314(4) 0.8138(7) 0.9269(4)
H20_2 H 0.008823 0.781888 0.947618
C37_2 C 0.0388(4) 0.9068(6) 0.8413(4)
H21_2 H 0.021386 0.938627 0.804223
C38_2 C 0.1001(4) 0.9037(6) 0.8663(4)
H22_2 H 0.123014 0.931281 0.844343
O1_2 O 0.4198(2) 0.5731(4) 0.5157(2)
O2_2 O 0.4001(3) 0.5960(4) 0.6019(3)
C14_3 C 0.0029(4) 0.6375(7) 0.3712(3)
F2_3 F 0.3294(2) 0.6124(5) 0.4112(2)
C27_3 C 0.3833(3) 0.5910(6) 0.5433(4)
C28_3 C 0.3177(3) 0.6039(6) 0.5100(3)
C29_3 C 0.2772(4) 0.6068(6) 0.5435(4)
H16_3 H 0.291352 0.599954 0.586262
C30_3 C 0.2182(4) 0.6191(6) 0.5155(4)
H17_3 H 0.192752 0.620646 0.539439
C31_3 C 0.1943(3) 0.6296(6) 0.4520(4)
C32_3 C 0.2336(3) 0.6259(6) 0.4175(4)
H18_3 H 0.219408 0.631819 0.374712
C33_3 C 0.2930(4) 0.6134(6) 0.4472(4)
C34_3 C 0.1287(4) 0.6378(6) 0.4219(4)
C35_3 C 0.0929(4) 0.6859(7) 0.4502(4)
H19_3 H 0.111203 0.719255 0.486535
C36_3 C 0.0314(4) 0.6862(7) 0.4269(4)
H20_3 H 0.008823 0.718112 0.447618
C37_3 C 0.0388(4) 0.5932(6) 0.3413(4)
H21_3 H 0.021386 0.561373 0.304223
C38_3 C 0.1001(4) 0.5963(6) 0.3663(4)
H22_3 H 0.123014 0.568719 0.344343
Cd3_2 Cd 0.50053(2) 0.57074(3) 0.62004(2)
N2 N 0.4980(3) 0.4042(5) 0.6178(3)
C48_3 C 0.4504(5) 0.3569(7) 0.5882(5)
H30_3 H 0.416736 0.391741 0.566504
C49_3 C 0.4453(5) 0.2568(7) 0.5861(5)
H31_3 H 0.409089 0.226405 0.567261
C50_3 C 0.4988(4) 0.2050(6) 0.6145(5)
C51_3 C 0.5446(5) 0.2525(8) 0.6317(5)
H32_3 H 0.581193 0.221200 0.642406
C52_3 C 0.5442(5) 0.3534(7) 0.6359(5)
H33_3 H 0.580652 0.383992 0.653136
C53_3 C 0.4944(5) 0.1019(7) 0.6109(5)
H34_3 H 0.455865 0.079462 0.604990
C62_3 C 0.5290(6) 0.0414(8) 0.6138(5)
H42_3 H 0.567580 0.062788 0.618597
C3_3 C 0.7201(4) 0.6064(6) 0.0087(4)
C4_3 C 0.7507(4) 0.6116(6) 0.0700(4)
H1_3 H 0.729787 0.614783 0.098399
O5_2 O 0.6747(3) 0.6185(4) 0.6557(3)
N5_3 N 0.9403(3) 0.6315(5) 0.3488(3)
C5_3 C 0.8128(4) 0.6121(6) 0.0909(4)
O6_2 O 0.7627(3) 0.6210(4) 0.7234(3)
C6_3 C 0.8418(4) 0.6101(7) 0.0462(4)
H2_3 H 0.883332 0.611614 0.058125
C8_3 C 0.8464(4) 0.6152(6) 0.1581(4)
C9_3 C 0.8283(4) 0.5637(7) 0.2008(4)
H6_3 H 0.794355 0.525722 0.187410
C10_3 C 0.8602(4) 0.5680(7) 0.2631(4)
H7_3 H 0.848356 0.530887 0.290976
C11_3 C 0.9090(4) 0.6266(7) 0.2843(3)
C12_3 C 0.9283(4) 0.6767(7) 0.2423(3)
H8_3 H 0.962116 0.714938 0.256156
C13_3 C 0.8979(4) 0.6710(7) 0.1796(4)
H9_3 H 0.911796 0.704470 0.151735
C15_3 C 0.9284(4) 0.5727(7) 0.4444(4)
H10_3 H 0.962821 0.536273 0.450823
C16_3 C 0.9068(3) 0.6284(7) 0.3917(3)
C17_3 C 0.8557(4) 0.6782(7) 0.3815(3)
H11_3 H 0.841288 0.714170 0.345638
C18_3 C 0.7300(4) 0.6225(5) 0.6687(4)
C19_3 C 0.7581(4) 0.6294(6) 0.6177(3)
C20_3 C 0.7269(4) 0.6375(6) 0.5564(4)
C21_3 C 0.7537(4) 0.6374(6) 0.5113(4)
H12_3 H 0.730336 0.643219 0.470107
C22_3 C 0.8156(3) 0.6287(6) 0.5261(3)
C23_3 C 0.8475(4) 0.6228(6) 0.5878(3)
H13_3 H 0.888922 0.618985 0.599305
C24_3 C 0.8444(4) 0.6257(6) 0.4781(4)
C25_3 C 0.8242(4) 0.6765(6) 0.4239(3)
H14_3 H 0.788655 0.710469 0.415365
F3_3 F 0.6664(2) 0.6479(5) 0.5357(3)
C26_3 C 0.8974(4) 0.5722(6) 0.4876(4)
H15_3 H 0.911956 0.535965 0.523347
C64_3 C 0.8205(4) 0.6223(6) 0.6339(4)
H44_3 H 0.843649 0.617197 0.675172
Cd5 Cd 0.68167(2) 0.60705(3) 0.76465(2)
F1_3 F 0.6595(2) 0.6074(4) 0.9935(3)
N1_3 N 0.5134(3) 0.7356(5) 0.6158(3)
C1_3 C 0.7156(4) 0.6058(6) 0.8945(4)
C2_3 C 0.7467(4) 0.6062(6) 0.9628(4)
O3_3 O 0.7492(3) 0.6148(4) 0.8614(3)
O4_3 O 0.6612(3) 0.5945(5) 0.8736(3)
N4_3 N 0.6864(3) 0.4396(5) 0.7679(3)
O7_3 O 0.5723(2) 0.5578(4) 0.5732(2)
H3_3 H 0.607213 0.560489 0.599226
H4_3 H 0.568533 0.507099 0.551996
C7_3 C 0.8092(4) 0.6057(7) 0.9846(4)
H5_3 H 0.829728 0.602343 0.955847
O8_3 O 0.4911(3) 0.5736(5) 0.7252(3)
O9_3 O 0.5805(3) 0.5820(4) 0.7199(3)
C39_3 C 0.7122(4) 0.3918(6) 0.7334(4)
H23_3 H 0.730777 0.426230 0.709804
C40_3 C 0.7131(4) 0.2952(6) 0.7304(4)
H24_3 H 0.732630 0.265458 0.705693
C41_3 C 0.6852(4) 0.2408(5) 0.7639(3)
C42_3 C 0.6592(4) 0.2886(6) 0.7995(4)
H25_3 H 0.640147 0.255575 0.823350
C43_3 C 0.6607(4) 0.3863(6) 0.8007(4)
H26_3 H 0.642513 0.417289 0.826088
C44_3 C 0.6862(4) 0.1352(6) 0.7584(4)
H27_3 H 0.711999 0.109799 0.738955
C45_3 C 0.6540(4) 0.0745(5) 0.7785(4)
H28_3 H 0.627012 0.098593 0.796978
C57_3 C 0.5479(5) 0.7789(8) 0.5913(5)
H38_3 H 0.569253 0.741802 0.571715
C58_3 C 0.4860(5) 0.7923(7) 0.6407(5)
H39_3 H 0.461562 0.765327 0.661234
C59_3 C 0.4891(6) 0.8940(7) 0.6400(6)
H40_3 H 0.467594 0.930153 0.659823
C60_3 C 0.5224(5) 0.9359(7) 0.6113(5)
C61_3 C 0.5563(6) 0.8773(8) 0.5915(6)
H41_3 H 0.586316 0.902013 0.577412
C63_3 C 0.5461(4) 0.5826(6) 0.7475(4)
H43_3 H 0.561529 0.590646 0.790101
N7 N 0.6668(3) 0.7724(5) 0.7664(3)
C46_3 C 0.6584(4) 0.9722(5) 0.7734(4)
C47_3 C 0.6324(5) 0.9133(6) 0.8025(5)
H29_3 H 0.608910 0.938127 0.824892
C54_3 C 0.6394(5) 0.8146(7) 0.8003(5)
H35_3 H 0.623409 0.776825 0.824677
C55_3 C 0.6957(5) 0.8296(7) 0.7422(5)
H36_3 H 0.719866 0.802487 0.721431
C56_3 C 0.6940(5) 0.9271(7) 0.7443(5)
H37_3 H 0.716958 0.962990 0.725880
Cd4 Cd 0.49947(2) 0.07074(3) 0.87996(2)
F1_4 F 0.3405(2) 0.1074(4) 0.5065(3)
N1_4 N 0.4866(3) 0.2356(5) 0.8842(3)
C1_4 C 0.2844(4) 0.1058(6) 0.6055(4)
Cd2 Cd 0.31833(2) 0.10705(3) 0.73535(2)
N2_2 N 0.5020(3) 0.9042(5) 0.8822(3)
C2_4 C 0.2533(4) 0.1062(6) 0.5372(4)
O3_4 O 0.2508(3) 0.1148(4) 0.6386(3)
C3_4 C 0.2799(4) 0.1064(6) 0.4913(4)
O4_4 O 0.3388(3) 0.0945(5) 0.6264(3)
C4_4 C 0.2493(4) 0.1116(6) 0.4300(4)
H1_4 H 0.270213 0.114783 0.401601
N5_4 N 0.0597(3) 0.1315(5) 0.1512(3)
C5_4 C 0.1872(4) 0.1121(6) 0.4091(4)
C6_4 C 0.1582(4) 0.1101(7) 0.4538(4)
H2_4 H 0.116668 0.111614 0.441875
O7_4 O 0.4277(2) 0.0578(4) 0.9268(2)
H3_4 H 0.392787 0.060489 0.900774
H4_4 H 0.431467 0.007099 0.948004
C7_4 C 0.1908(4) 0.1057(7) 0.5154(4)
H5_4 H 0.170272 0.102343 0.544153
O8_4 O 0.5089(3) 0.0736(5) 0.7748(3)
C8_4 C 0.1536(4) 0.1152(6) 0.3419(4)
O9_4 O 0.4195(3) 0.0820(4) 0.7801(3)
C9_4 C 0.1717(4) 0.0637(7) 0.2992(4)
H6_4 H 0.205645 0.025722 0.312590
C10_4 C 0.1398(4) 0.0680(7) 0.2369(4)
H7_4 H 0.151644 0.030887 0.209024
C11_4 C 0.0910(4) 0.1266(7) 0.2157(3)
C12_4 C 0.0717(4) 0.1767(7) 0.2577(3)
H8_4 H 0.037884 0.214938 0.243844
C13_4 C 0.1021(4) 0.1710(7) 0.3204(4)
H9_4 H 0.088204 0.204470 0.348265
C15_4 C 0.0716(4) 0.0727(7) 0.0556(4)
H10_4 H 0.037179 0.036273 0.049177
C16_4 C 0.0932(3) 0.1284(7) 0.1083(3)
C17_4 C 0.1443(4) 0.1782(7) 0.1185(3)
H11_4 H 0.158712 0.214170 0.154362
H12_4 H 0.269664 0.143219 0.029893
C24_4 C 0.1556(4) 0.1257(6) 0.0219(4)
C25_4 C 0.1758(4) 0.1765(6) 0.0761(3)
H14_4 H 0.211345 0.210469 0.084635
C26_4 C 0.1026(4) 0.0722(6) 0.0124(4)
C48_4 C 0.5496(5) 0.8569(7) 0.9118(5)
H30_4 H 0.583264 0.891741 0.933496
C49_4 C 0.5547(5) 0.7568(7) 0.9139(5)
H31_4 H 0.590911 0.726405 0.932739
C50_4 C 0.5012(4) 0.7050(6) 0.8855(5)
C51_4 C 0.4554(5) 0.7525(8) 0.8683(5)
H32_4 H 0.418807 0.721200 0.857594
C52_4 C 0.4558(5) 0.8534(7) 0.8641(5)
H33_4 H 0.419348 0.883992 0.846864
C53_4 C 0.5056(5) 0.6019(7) 0.8891(5)
H34_4 H 0.544135 0.579462 0.895010
C57_4 C 0.4521(5) 0.2789(8) 0.9087(5)
H38_4 H 0.430747 0.241802 0.928285
C58_4 C 0.5140(5) 0.2923(7) 0.8593(5)
H39_4 H 0.538438 0.265327 0.838766
C59_4 C 0.5109(6) 0.3940(7) 0.8600(6)
H40_4 H 0.532406 0.430153 0.840177
C60_4 C 0.4776(5) 0.4359(7) 0.8887(5)
C61_4 C 0.4437(6) 0.3773(8) 0.9085(6)
H41_4 H 0.413684 0.402013 0.922588
C62_4 C 0.4710(6) 0.5414(8) 0.8862(5)
H42_4 H 0.432420 0.562788 0.881403
C63_4 C 0.4539(4) 0.0826(6) 0.7525(4)
H43_4 H 0.438471 0.090646 0.709899
O10_2 O 0.5802(2) 0.0731(4) 0.9843(2)
O11_2 O 0.5999(3) 0.0960(4) 0.8981(3)
N7_2 N 0.3332(3) 0.2724(5) 0.7336(3)
O12_2 O 0.3253(3) 0.1185(4) 0.8443(3)
O13_2 O 0.2373(3) 0.1210(4) 0.7766(3)
C18_4 C 0.2700(4) 0.1225(5) 0.8313(4)
C19_4 C 0.2419(4) 0.1294(6) 0.8823(3)
C20_4 C 0.2731(4) 0.1375(6) 0.9436(4)
C21_4 C 0.2463(4) 0.1374(6) 0.9887(4)
C22_4 C 0.1844(3) 0.1287(6) 0.9739(3)
C23_4 C 0.1525(4) 0.1228(6) 0.9122(3)
H13_4 H 0.111078 0.118985 0.900695
F3_4 F 0.3336(2) 0.1479(5) 0.9643(3)
H15_4 H 0.088044 0.035965 0.976653
C64_4 C 0.1795(4) 0.1223(6) 0.8661(4)
H44_4 H 0.156351 0.117197 0.824828
N4_4 N 0.3136(3) 0.9396(5) 0.7321(3)
C39_4 C 0.2878(4) 0.8918(6) 0.7666(4)
H23_4 H 0.269223 0.926230 0.790196
C40_4 C 0.2869(4) 0.7952(6) 0.7696(4)
H24_4 H 0.267370 0.765458 0.794307
C41_4 C 0.3148(4) 0.7408(5) 0.7361(3)
C42_4 C 0.3408(4) 0.7886(6) 0.7005(4)
H25_4 H 0.359853 0.755575 0.676650
C43_4 C 0.3393(4) 0.8863(6) 0.6993(4)
H26_4 H 0.357487 0.917289 0.673912
C44_4 C 0.3138(4) 0.6352(6) 0.7416(4)
H27_4 H 0.288001 0.609799 0.761045
C45_4 C 0.3460(4) 0.5745(5) 0.7215(4)
H28_4 H 0.372988 0.598593 0.703022
C46_4 C 0.3416(4) 0.4722(5) 0.7266(4)
C47_4 C 0.3676(5) 0.4133(6) 0.6975(5)
H29_4 H 0.391090 0.438127 0.675108
C54_4 C 0.3606(5) 0.3146(7) 0.6997(5)
H35_4 H 0.376591 0.276825 0.675323
C55_4 C 0.3043(5) 0.3296(7) 0.7578(5)
H36_4 H 0.280134 0.302487 0.778569
C56_4 C 0.3060(5) 0.4271(7) 0.7557(5)
H37_4 H 0.283042 0.462990 0.774120
C27_4 C 0.6167(3) 0.0910(6) 0.9567(4)
C28_4 C 0.6823(3) 0.1039(6) 0.9900(3)
C29_4 C 0.7228(4) 0.1068(6) 0.9565(4)
H16_4 H 0.708648 0.099954 0.913738
C30_4 C 0.7818(4) 0.1191(6) 0.9845(4)
H17_4 H 0.807248 0.120646 0.960561
C14_4 C 0.9971(4) 0.1375(7) 0.1288(3)
F2_4 F 0.6706(2) 0.1124(5) 0.0888(2)
C31_4 C 0.8057(3) 0.1296(6) 0.0480(4)
C32_4 C 0.7664(3) 0.1259(6) 0.0825(4)
H18_4 H 0.780592 0.131819 0.125288
C33_4 C 0.7070(4) 0.1134(6) 0.0528(4)
C34_4 C 0.8713(4) 0.1378(6) 0.0781(4)
C35_4 C 0.9071(4) 0.1859(7) 0.0498(4)
H19_4 H 0.888797 0.219255 0.013465
C36_4 C 0.9686(4) 0.1862(7) 0.0731(4)
H20_4 H 0.991177 0.218112 0.052382
C37_4 C 0.9612(4) 0.0932(6) 0.1587(4)
H21_4 H 0.978614 0.061373 0.195777
C38_4 C 0.8999(4) 0.0963(6) 0.1337(4)
H22_4 H 0.876986 0.068719 0.155657
loop_
_geom_bond_atom_site_label_1
_geom_bond_atom_site_label_2
_geom_bond_site_symmetry_1
_geom_bond_site_symmetry_2
N3 C54 1_555 1_555
C47 C46 1_555 1_555
H29 C47 1_555 1_555
C54 C47 1_555 1_555
H35 C54 1_555 1_555
C55 N3 1_555 1_555
H36 C55 1_555 1_555
C56 C46 1_555 1_555
H37 C56 1_555 1_555
Cd6 N3 1_555 1_555
C55 C56 1_555 1_555
Cd1 N1 1_555 1_555
N1 C57 1_555 1_555
C1 C2 1_555 1_555
Cd6 O3 1_555 1_555
O3 C1 1_555 1_555
O4 C1 1_555 1_555
N4 Cd6 1_555 1_555
O7 Cd1 1_555 1_555
H3 O7 1_555 1_555
H4 O7 1_555 1_555
C7 C2 1_555 1_555
H5 C7 1_555 1_555
O8 Cd1 1_555 1_555
O9 Cd1 1_555 1_555
C39 N4 1_555 1_555
H23 C39 1_555 1_555
C40 C39 1_555 1_555
H24 C40 1_555 1_555
C41 C40 1_555 1_555
C42 C41 1_555 1_555
H25 C42 1_555 1_555
C43 N4 1_555 1_555
H26 C43 1_555 1_555
C44 C41 1_555 1_555
H27 C44 1_555 1_555
C45 C44 1_555 1_555
H28 C45 1_555 1_555
C57 H38 1_555 1_555
C58 N1 1_555 1_555
H39 C58 1_555 1_555
C59 C58 1_555 1_555
H40 C59 1_555 1_555
C60 C59 1_555 1_555
C61 C57 1_555 1_555
H41 C61 1_555 1_555
C63 O8 1_555 1_555
H43 C63 1_555 1_555
O10 Cd1 1_555 1_555
O11 Cd1 1_555 1_555
N6 Cd1 1_555 1_555
O12 Cd6 1_555 1_555
O13 Cd6 1_555 1_555
Cd6 O4 1_555 1_555
Cd6 O9 1_555 1_555
O9 C63 1_555 1_555
C42 C43 1_555 1_555
C60 C61 1_555 1_555
C3 C4 1_555 1_555
C4 H1 1_555 1_555
O12 C18 1_555 1_555
N5 C11 1_555 1_555
C5 C4 1_555 1_555
O13 C18 1_555 1_555
C6 C5 1_555 1_555
H2 C6 1_555 1_555
C8 C5 1_555 1_555
C9 C8 1_555 1_555
H6 C9 1_555 1_555
C10 C9 1_555 1_555
H7 C10 1_555 1_555
C11 C10 1_555 1_555
C12 C11 1_555 1_555
H8 C12 1_555 1_555
C13 C8 1_555 1_555
H9 C13 1_555 1_555
C15 H10 1_555 1_555
C16 N5 1_555 1_555
C17 C16 1_555 1_555
H11 C17 1_555 1_555
C18 C19 1_555 1_555
C19 C20 1_555 1_555
C20 C21 1_555 1_555
C21 H12 1_555 1_555
C22 C21 1_555 1_555
C23 C22 1_555 1_555
H13 C23 1_555 1_555
C24 C22 1_555 1_555
C25 C17 1_555 1_555
H14 C25 1_555 1_555
F3 C20 1_555 1_555
C26 C15 1_555 1_555
H15 C26 1_555 1_555
C64 C19 1_555 1_555
H44 C64 1_555 1_555
C12 C13 1_555 1_555
C15 C16 1_555 1_555
C23 C64 1_555 1_555
C24 C25 1_555 1_555
C24 C26 1_555 1_555
N6 C48 1_555 1_555
C48 H30 1_555 1_555
C49 C48 1_555 1_555
H31 C49 1_555 1_555
C50 C49 1_555 1_555
C51 C50 1_555 1_555
H32 C51 1_555 1_555
C52 N6 1_555 1_555
H33 C52 1_555 1_555
C53 C50 1_555 1_555
H34 C53 1_555 1_555
C62 C53 1_555 1_555
H42 C62 1_555 1_555
C51 C52 1_555 1_555
O10 C27 1_555 1_555
O11 C27 1_555 1_555
F2 C33 1_555 1_555
C27 C28 1_555 1_555
C28 C29 1_555 1_555
C29 H16 1_555 1_555
C30 C29 1_555 1_555
H17 C30 1_555 1_555
C31 C30 1_555 1_555
C32 C31 1_555 1_555
H18 C32 1_555 1_555
C33 C28 1_555 1_555
C34 C31 1_555 1_555
C35 C34 1_555 1_555
H19 C35 1_555 1_555
C36 C14 1_555 1_555
H20 C36 1_555 1_555
C37 C14 1_555 1_555
H21 C37 1_555 1_555
C38 C34 1_555 1_555
H22 C38 1_555 1_555
C32 C33 1_555 1_555
C35 C36 1_555 1_555
C37 C38 1_555 1_555
O1 C27_2 1_555 1_555
O2 C27_2 1_555 1_555
C27_2 C28_2 1_555 1_555
C28_2 C29_2 1_555 1_555
C29_2 H16_2 1_555 1_555
C30_2 C29_2 1_555 1_555
H17_2 C30_2 1_555 1_555
Cd3 O1 1_555 1_555
O2 Cd3 1_555 1_555
N3_2 C54_2 1_555 1_555
C39_2 N4_2 1_555 1_555
H23_2 C39_2 1_555 1_555
C40_2 C39_2 1_555 1_555
H24_2 C40_2 1_555 1_555
C41_2 C40_2 1_555 1_555
C42_2 C41_2 1_555 1_555
H25_2 C42_2 1_555 1_555
C43_2 N4_2 1_555 1_555
H26_2 C43_2 1_555 1_555
C44_2 C41_2 1_555 1_555
H27_2 C44_2 1_555 1_555
C45_2 C44_2 1_555 1_555
H28_2 C45_2 1_555 1_555
C46_2 C45_2 1_555 1_555
C47_2 C46_2 1_555 1_555
H29_2 C47_2 1_555 1_555
C54_2 C47_2 1_555 1_555
H35_2 C54_2 1_555 1_555
C55_2 N3_2 1_555 1_555
H36_2 C55_2 1_555 1_555
C56_2 C46_2 1_555 1_555
H37_2 C56_2 1_555 1_555
Cd6_2 N3_2 1_555 1_555
C42_2 C43_2 1_555 1_555
C55_2 C56_2 1_555 1_555
O5 C18_2 1_555 1_555
O6 C18_2 1_555 1_555
C18_2 C19_2 1_555 1_555
C19_2 C20_2 1_555 1_555
C20_2 C21_2 1_555 1_555
C22_2 C21_2 1_555 1_555
C23_2 C22_2 1_555 1_555
H13_2 C23_2 1_555 1_555
F3_2 C20_2 1_555 1_555
C64_2 C19_2 1_555 1_555
H44_2 C64_2 1_555 1_555
Cd6_2 O5 1_555 1_555
O6 Cd6_2 1_555 1_555
C23_2 C64_2 1_555 1_555
Cd3 N1_2 1_555 1_555
F1_2 C3_2 1_555 1_555
N1_2 C57_2 1_555 1_555
C1_2 C2_2 1_555 1_555
Cd6_2 O3_2 1_555 1_555
N6_2 C48_2 1_555 1_555
C2_2 C3_2 1_555 1_555
O3_2 C1_2 1_555 1_555
C3_2 C4_2 1_555 1_555
O4_2 C1_2 1_555 1_555
C4_2 H1_2 1_555 1_555
N5_2 C11_2 1_555 1_555
C5_2 C4_2 1_555 1_555
C6_2 C5_2 1_555 1_555
H2_2 C6_2 1_555 1_555
O7_2 Cd3 1_555 1_555
H3_2 O7_2 1_555 1_555
H4_2 O7_2 1_555 1_555
C7_2 C2_2 1_555 1_555
H5_2 C7_2 1_555 1_555
O8_2 Cd3 1_555 1_555
C8_2 C5_2 1_555 1_555
O9_2 Cd3 1_555 1_555
C9_2 C8_2 1_555 1_555
H6_2 C9_2 1_555 1_555
C10_2 C9_2 1_555 1_555
H7_2 C10_2 1_555 1_555
C11_2 C10_2 1_555 1_555
C12_2 C11_2 1_555 1_555
H8_2 C12_2 1_555 1_555
C13_2 C8_2 1_555 1_555
H9_2 C13_2 1_555 1_555
C15_2 H10_2 1_555 1_555
C16_2 N5_2 1_555 1_555
C17_2 C16_2 1_555 1_555
H11_2 C17_2 1_555 1_555
C25_2 C17_2 1_555 1_555
H14_2 C25_2 1_555 1_555
C26_2 C15_2 1_555 1_555
C48_2 H30_2 1_555 1_555
C49_2 C48_2 1_555 1_555
H31_2 C49_2 1_555 1_555
C50_2 C49_2 1_555 1_555
C51_2 C50_2 1_555 1_555
H32_2 C51_2 1_555 1_555
C52_2 N6_2 1_555 1_555
H33_2 C52_2 1_555 1_555
C53_2 C50_2 1_555 1_555
H34_2 C53_2 1_555 1_555
C57_2 H38_2 1_555 1_555
C58_2 N1_2 1_555 1_555
H39_2 C58_2 1_555 1_555
C59_2 C58_2 1_555 1_555
H40_2 C59_2 1_555 1_555
C60_2 C59_2 1_555 1_555
C61_2 C57_2 1_555 1_555
H41_2 C61_2 1_555 1_555
C62_2 C53_2 1_555 1_555
H42_2 C62_2 1_555 1_555
C63_2 O8_2 1_555 1_555
H43_2 C63_2 1_555 1_555
Cd6_2 O4_2 1_555 1_555
Cd6_2 O9_2 1_555 1_555
C6_2 C7_2 1_555 1_555
O9_2 C63_2 1_555 1_555
C12_2 C13_2 1_555 1_555
C15_2 C16_2 1_555 1_555
C24_2 C25_2 1_555 1_555
C24_2 C26_2 1_555 1_555
C51_2 C52_2 1_555 1_555
C60_2 C61_2 1_555 1_555
C60_2 C62_2 1_555 1_555
F2_2 C33_2 1_555 1_555
C32_2 C31_2 1_555 1_555
H18_2 C32_2 1_555 1_555
C34_2 C31_2 1_555 1_555
C35_2 C34_2 1_555 1_555
H19_2 C35_2 1_555 1_555
C36_2 C14_2 1_555 1_555
H20_2 C36_2 1_555 1_555
C37_2 C14_2 1_555 1_555
H21_2 C37_2 1_555 1_555
C38_2 C34_2 1_555 1_555
H22_2 C38_2 1_555 1_555
C32_2 C33_2 1_555 1_555
C35_2 C36_2 1_555 1_555
C37_2 C38_2 1_555 1_555
O1_2 C27_3 1_555 1_555
O2_2 C27_3 1_555 1_555
F2_3 C33_3 1_555 1_555
C27_3 C28_3 1_555 1_555
C28_3 C29_3 1_555 1_555
C29_3 H16_3 1_555 1_555
C30_3 C29_3 1_555 1_555
H17_3 C30_3 1_555 1_555
C31_3 C30_3 1_555 1_555
C32_3 C31_3 1_555 1_555
H18_3 C32_3 1_555 1_555
C33_3 C28_3 1_555 1_555
C34_3 C31_3 1_555 1_555
C35_3 C34_3 1_555 1_555
H19_3 C35_3 1_555 1_555
C36_3 C14_3 1_555 1_555
H20_3 C36_3 1_555 1_555
C37_3 C14_3 1_555 1_555
H21_3 C37_3 1_555 1_555
C38_3 C34_3 1_555 1_555
H22_3 C38_3 1_555 1_555
Cd3_2 O1_2 1_555 1_555
O2_2 Cd3_2 1_555 1_555
C32_3 C33_3 1_555 1_555
C35_3 C36_3 1_555 1_555
C37_3 C38_3 1_555 1_555
N2 C48_3 1_555 1_555
C48_3 H30_3 1_555 1_555
C49_3 C48_3 1_555 1_555
H31_3 C49_3 1_555 1_555
C50_3 C49_3 1_555 1_555
C51_3 C50_3 1_555 1_555
H32_3 C51_3 1_555 1_555
C52_3 N2 1_555 1_555
H33_3 C52_3 1_555 1_555
C53_3 C50_3 1_555 1_555
H34_3 C53_3 1_555 1_555
C62_3 C53_3 1_555 1_555
H42_3 C62_3 1_555 1_555
Cd3_2 N2 1_555 1_555
C51_3 C52_3 1_555 1_555
C3_3 C4_3 1_555 1_555
C4_3 H1_3 1_555 1_555
O5_2 C18_3 1_555 1_555
N5_3 C11_3 1_555 1_555
C5_3 C4_3 1_555 1_555
O6_2 C18_3 1_555 1_555
C6_3 C5_3 1_555 1_555
H2_3 C6_3 1_555 1_555
C8_3 C5_3 1_555 1_555
C9_3 C8_3 1_555 1_555
H6_3 C9_3 1_555 1_555
C10_3 C9_3 1_555 1_555
H7_3 C10_3 1_555 1_555
C11_3 C10_3 1_555 1_555
C12_3 C11_3 1_555 1_555
H8_3 C12_3 1_555 1_555
C13_3 C8_3 1_555 1_555
H9_3 C13_3 1_555 1_555
C15_3 H10_3 1_555 1_555
C16_3 N5_3 1_555 1_555
C17_3 C16_3 1_555 1_555
H11_3 C17_3 1_555 1_555
C18_3 C19_3 1_555 1_555
C19_3 C20_3 1_555 1_555
C20_3 C21_3 1_555 1_555
C21_3 H12_3 1_555 1_555
C22_3 C21_3 1_555 1_555
C23_3 C22_3 1_555 1_555
H13_3 C23_3 1_555 1_555
C24_3 C22_3 1_555 1_555
C25_3 C17_3 1_555 1_555
H14_3 C25_3 1_555 1_555
F3_3 C20_3 1_555 1_555
C26_3 C15_3 1_555 1_555
H15_3 C26_3 1_555 1_555
C64_3 C19_3 1_555 1_555
H44_3 C64_3 1_555 1_555
Cd5 O5_2 1_555 1_555
O6_2 Cd5 1_555 1_555
C12_3 C13_3 1_555 1_555
C15_3 C16_3 1_555 1_555
C23_3 C64_3 1_555 1_555
C24_3 C25_3 1_555 1_555
C24_3 C26_3 1_555 1_555
Cd3_2 N1_3 1_555 1_555
N1_3 C57_3 1_555 1_555
C1_3 C2_3 1_555 1_555
Cd5 O3_3 1_555 1_555
O3_3 C1_3 1_555 1_555
O4_3 C1_3 1_555 1_555
N4_3 Cd5 1_555 1_555
O7_3 Cd3_2 1_555 1_555
H3_3 O7_3 1_555 1_555
H4_3 O7_3 1_555 1_555
C7_3 C2_3 1_555 1_555
H5_3 C7_3 1_555 1_555
O8_3 Cd3_2 1_555 1_555
O9_3 Cd3_2 1_555 1_555
C39_3 N4_3 1_555 1_555
H23_3 C39_3 1_555 1_555
C40_3 C39_3 1_555 1_555
H24_3 C40_3 1_555 1_555
C41_3 C40_3 1_555 1_555
C42_3 C41_3 1_555 1_555
H25_3 C42_3 1_555 1_555
C43_3 N4_3 1_555 1_555
H26_3 C43_3 1_555 1_555
C44_3 C41_3 1_555 1_555
H27_3 C44_3 1_555 1_555
C45_3 C44_3 1_555 1_555
H28_3 C45_3 1_555 1_555
C57_3 H38_3 1_555 1_555
C58_3 N1_3 1_555 1_555
H39_3 C58_3 1_555 1_555
C59_3 C58_3 1_555 1_555
H40_3 C59_3 1_555 1_555
C60_3 C59_3 1_555 1_555
C61_3 C57_3 1_555 1_555
H41_3 C61_3 1_555 1_555
C63_3 O8_3 1_555 1_555
H43_3 C63_3 1_555 1_555
N7 Cd5 1_555 1_555
Cd5 O4_3 1_555 1_555
Cd5 O9_3 1_555 1_555
O9_3 C63_3 1_555 1_555
C42_3 C43_3 1_555 1_555
C60_3 C61_3 1_555 1_555
N7 C54_3 1_555 1_555
C47_3 C46_3 1_555 1_555
H29_3 C47_3 1_555 1_555
C54_3 C47_3 1_555 1_555
H35_3 C54_3 1_555 1_555
C55_3 N7 1_555 1_555
H36_3 C55_3 1_555 1_555
C56_3 C46_3 1_555 1_555
H37_3 C56_3 1_555 1_555
C55_3 C56_3 1_555 1_555
Cd4 N1_4 1_555 1_555
F1_4 C3_4 1_555 1_555
N1_4 C57_4 1_555 1_555
C1_4 C2_4 1_555 1_555
Cd2 O3_4 1_555 1_555
N2_2 C48_4 1_555 1_555
C2_4 C3_4 1_555 1_555
O3_4 C1_4 1_555 1_555
C3_4 C4_4 1_555 1_555
O4_4 C1_4 1_555 1_555
C4_4 H1_4 1_555 1_555
N5_4 C11_4 1_555 1_555
C5_4 C4_4 1_555 1_555
C6_4 C5_4 1_555 1_555
H2_4 C6_4 1_555 1_555
O7_4 Cd4 1_555 1_555
H3_4 O7_4 1_555 1_555
H4_4 O7_4 1_555 1_555
C7_4 C2_4 1_555 1_555
H5_4 C7_4 1_555 1_555
O8_4 Cd4 1_555 1_555
C8_4 C5_4 1_555 1_555
O9_4 Cd4 1_555 1_555
C9_4 C8_4 1_555 1_555
H6_4 C9_4 1_555 1_555
C10_4 C9_4 1_555 1_555
H7_4 C10_4 1_555 1_555
C11_4 C10_4 1_555 1_555
C12_4 C11_4 1_555 1_555
H8_4 C12_4 1_555 1_555
C13_4 C8_4 1_555 1_555
H9_4 C13_4 1_555 1_555
C15_4 H10_4 1_555 1_555
C16_4 N5_4 1_555 1_555
C17_4 C16_4 1_555 1_555
H11_4 C17_4 1_555 1_555
C25_4 C17_4 1_555 1_555
H14_4 C25_4 1_555 1_555
C26_4 C15_4 1_555 1_555
C48_4 H30_4 1_555 1_555
C49_4 C48_4 1_555 1_555
H31_4 C49_4 1_555 1_555
C50_4 C49_4 1_555 1_555
C51_4 C50_4 1_555 1_555
H32_4 C51_4 1_555 1_555
C52_4 N2_2 1_555 1_555
H33_4 C52_4 1_555 1_555
C53_4 C50_4 1_555 1_555
H34_4 C53_4 1_555 1_555
C57_4 H38_4 1_555 1_555
C58_4 N1_4 1_555 1_555
H39_4 C58_4 1_555 1_555
C59_4 C58_4 1_555 1_555
H40_4 C59_4 1_555 1_555
C60_4 C59_4 1_555 1_555
C61_4 C57_4 1_555 1_555
H41_4 C61_4 1_555 1_555
C62_4 C53_4 1_555 1_555
H42_4 C62_4 1_555 1_555
C63_4 O8_4 1_555 1_555
H43_4 C63_4 1_555 1_555
O10_2 Cd4 1_555 1_555
O11_2 Cd4 1_555 1_555
N7_2 Cd2 1_555 1_555
O12_2 Cd2 1_555 1_555
O13_2 Cd2 1_555 1_555
Cd2 O4_4 1_555 1_555
Cd2 O9_4 1_555 1_555
C6_4 C7_4 1_555 1_555
O9_4 C63_4 1_555 1_555
C12_4 C13_4 1_555 1_555
C15_4 C16_4 1_555 1_555
C24_4 C25_4 1_555 1_555
C24_4 C26_4 1_555 1_555
C51_4 C52_4 1_555 1_555
C60_4 C61_4 1_555 1_555
C60_4 C62_4 1_555 1_555
O12_2 C18_4 1_555 1_555
O13_2 C18_4 1_555 1_555
C18_4 C19_4 1_555 1_555
C19_4 C20_4 1_555 1_555
C20_4 C21_4 1_555 1_555
C22_4 C21_4 1_555 1_555
C23_4 C22_4 1_555 1_555
H13_4 C23_4 1_555 1_555
F3_4 C20_4 1_555 1_555
C64_4 C19_4 1_555 1_555
H44_4 C64_4 1_555 1_555
C23_4 C64_4 1_555 1_555
N7_2 C54_4 1_555 1_555
C39_4 N4_4 1_555 1_555
H23_4 C39_4 1_555 1_555
C40_4 C39_4 1_555 1_555
H24_4 C40_4 1_555 1_555
C41_4 C40_4 1_555 1_555
C42_4 C41_4 1_555 1_555
H25_4 C42_4 1_555 1_555
C43_4 N4_4 1_555 1_555
H26_4 C43_4 1_555 1_555
C44_4 C41_4 1_555 1_555
H27_4 C44_4 1_555 1_555
C45_4 C44_4 1_555 1_555
H28_4 C45_4 1_555 1_555
C46_4 C45_4 1_555 1_555
C47_4 C46_4 1_555 1_555
H29_4 C47_4 1_555 1_555
C54_4 C47_4 1_555 1_555
H35_4 C54_4 1_555 1_555
C55_4 N7_2 1_555 1_555
H36_4 C55_4 1_555 1_555
C56_4 C46_4 1_555 1_555
H37_4 C56_4 1_555 1_555
C42_4 C43_4 1_555 1_555
C55_4 C56_4 1_555 1_555
O10_2 C27_4 1_555 1_555
O11_2 C27_4 1_555 1_555
C27_4 C28_4 1_555 1_555
C28_4 C29_4 1_555 1_555
C29_4 H16_4 1_555 1_555
C30_4 C29_4 1_555 1_555
H17_4 C30_4 1_555 1_555
F2_4 C33_4 1_555 1_555
C32_4 C31_4 1_555 1_555
H18_4 C32_4 1_555 1_555
C34_4 C31_4 1_555 1_555
C35_4 C34_4 1_555 1_555
H19_4 C35_4 1_555 1_555
C36_4 C14_4 1_555 1_555
H20_4 C36_4 1_555 1_555
C37_4 C14_4 1_555 1_555
H21_4 C37_4 1_555 1_555
C38_4 C34_4 1_555 1_555
H22_4 C38_4 1_555 1_555
C32_4 C33_4 1_555 1_555
C35_4 C36_4 1_555 1_555
C37_4 C38_4 1_555 1_555

#END
