
###############################################################################
#
# This file contains modified crystal structure data generated from the
# MOF subset of the Cambridge Structural Database (CSD) v543 
# hosted by the Cambridge Crystallographic Data Centre (CCDC).
#
# This work is licensed under the Creative Commons
# Attribution-NonCommercial-ShareAlike 4.0 International License.
# To view a copy of this license, visit
# http://creativecommons.org/licenses/by-nc-sa/4.0/
# or send a letter to
# Creative Commons, PO Box 1866, Mountain View, CA 94042, USA.
#
# CIF created using the CSD Python API on 29 September 2022
# The structure has been converted into the P1 space group
# The structure has a 3D framework
# The original CSD entry TATPEM is in the orthorhombic crystal system
# The original CSD entry TATPEM is in a Sohncke space group
# The framework has been calculated to contain at least 10.0% void space
# The void calculation uses a probe of radius 1.32A, grid spacing 0.4
# H atom positions have been added when not included in the experimental data
#
###############################################################################

data_TATPEM
_chemical_formula_moiety         '(C200 H168 Cd12 N16 O64)n'
_symmetry_cell_setting           triclinic
_symmetry_space_group_name_H-M   'P 1'
_symmetry_Int_Tables_number      1
_space_group_name_Hall           'P 1'
loop_
_symmetry_equiv_pos_site_id
_symmetry_equiv_pos_as_xyz
1 x,y,z
_cell_length_a                   11.6974(15)
_cell_length_b                   20.580(3)
_cell_length_c                   23.668(3)
_cell_angle_alpha                90
_cell_angle_beta                 90
_cell_angle_gamma                90
_cell_volume                     5697.66
loop_
_atom_site_label
_atom_site_type_symbol
_atom_site_fract_x
_atom_site_fract_y
_atom_site_fract_z
Cd4 Cd 0.05553(3) 0.125183(16) 0.958808(14)
Cd5 Cd 0.00494(3) 0.999492(16) 0.084677(14)
C3 C 0.2616(6) 0.0453(3) 0.1157(3)
H1 H 0.2214 0.0810 0.1292
O9 O 0.0627(3) 0.18659(18) 0.03547(15)
C4 C 0.0057(5) 0.2111(2) 0.12893(19)
C7 C 0.0241(4) 0.1649(2) 0.0812(2)
H5 H 0.2698 0.1937 0.0101
C15 C 0.6794(5) 0.1528(3) 0.0078(3)
H7 H 0.6421 0.1783 0.0345
C17 C 0.7524(6) 0.0270(4) 0.1303(4)
H10 H 0.7949 0.0484 0.1578
H16 H 0.0222 0.4224 0.2262
C30 C 0.7982(5) 0.1575(3) 0.0014(3)
H20 H 0.8374 0.1869 0.0241
C33 C 0.0495(6) 0.2753(3) 0.1242(2)
H22 H 0.0916 0.2869 0.0925
H26 H 0.4690 0.1927 0.0151
C38 C 0.0307(6) 0.3204(3) 0.1659(2)
H27 H 0.0573 0.3627 0.1621
C41 C 0.3795(5) 0.0471(4) 0.1198(3)
H28 H 0.4164 0.0831 0.1349
C42 C 0.6343(6) 0.0286(4) 0.1350(3)
H29 H 0.5999 0.0533 0.1632
Cd7 Cd 0.03214(4) 0.300448(19) 0.351308(17)
O19 O 0.0170(4) 0.00193(17) 0.18827(16)
N1 N 0.8592(4) 0.1216(2) 0.9641(2)
O5 O 0.0630(4) 0.13026(18) 0.85927(16)
N2 N 0.2534(4) 0.1097(2) 0.9706(2)
O7 O 0.0380(4) 0.01510(15) 0.97908(15)
O8 O 0.0861(4) 0.2214(2) 0.90593(16)
C6 C 0.1099(5) 0.2247(3) 0.8069(2)
C8 C 0.6174(5) 0.1102(2) 0.9741(2)
C9 C 0.3128(5) 0.0573(3) 0.9518(3)
H2 H 0.2740 0.0216 0.9372
C12 C 0.1630(5) 0.2945(3) 0.7082(2)
C13 C 0.3102(5) 0.1590(3) 0.9950(3)
O11 O 0.1919(4) 0.3336(2) 0.66284(17)
C16 C 0.6806(5) 0.0732(3) 0.9363(3)
H9 H 0.6436 0.0438 0.9127
O13 O 0.3926(4) 0.2696(2) 0.64411(19)
C19 C 0.1184(5) 0.1949(3) 0.7554(2)
H12 H 0.1056 0.1503 0.7535
C21 C 0.4909(5) 0.1086(2) 0.9756(2)
C22 C 0.7984(5) 0.0798(3) 0.9336(3)
H13 H 0.8378 0.0531 0.9086
C23 C 0.2102(6) 0.3010(3) 0.6091(2)
H14 H 0.1412 0.2768 0.5986
H15 H 0.0755 0.0037 0.8691
C28 C 0.1519(6) 0.3285(3) 0.7586(3)
H18 H 0.1596 0.3735 0.7596
C31 C 0.1289(6) 0.2932(3) 0.8081(2)
H21 H 0.1259 0.3150 0.8424
C34 C 0.4306(5) 0.0569(3) 0.9542(3)
H23 H 0.4702 0.0207 0.9411
C35 C 0.1451(6) 0.2277(3) 0.7062(2)
H24 H 0.1510 0.2054 0.6721
O16 O 0.3116(5) 0.2105(3) 0.5743(2)
C37 C 0.4308(5) 0.1584(3) 0.9978(3)
C39 C 0.0843(5) 0.1895(3) 0.8602(2)
C45 C 0.3113(6) 0.2555(3) 0.6100(3)
C50 C 0.2286(8) 0.3530(5) 0.5691(4)
H39 H 0.2414 0.3349 0.5322
H40 H 0.2941 0.3779 0.5803
H41 H 0.1625 0.3806 0.5681
Cd8 Cd 0.53214(4) 0.199552(19) 0.648692(17)
O1 O 0.0103(4) 0.91859(16) 0.01508(14)
N3 N 0.8069(4) 0.9981(2) 0.09099(19)
N4 N 0.2038(4) 0.9988(2) 0.0949(2)
C5 C 0.4409(5) 0.9946(3) 0.1010(2)
C10 C 0.2613(5) 0.9456(3) 0.0769(3)
H3 H 0.2198 0.9113 0.0616
C24 C 0.5693(5) 0.9941(3) 0.0984(2)
C27 C 0.3789(5) 0.9400(3) 0.0802(3)
H17 H 0.4160 0.9021 0.0692
C29 C 0.7465(6) 0.9691(4) 0.0532(3)
H19 H 0.7838 0.9504 0.0225
C43 C 0.6300(6) 0.9645(4) 0.0562(3)
H30 H 0.5911 0.9407 0.0289
O18 O 0.0086(4) 0.90551(17) 0.14655(14)
Cd3 Cd 0.46786(4) 0.699552(19) 0.851308(17)
C1 C 0.0361(4) 0.9536(2) 0.97335(19)
O10 O 0.1646(4) 0.8401(2) 0.76677(17)
C11 C 0.0815(5) 0.8548(3) 0.9164(3)
H4 H 0.0693 0.8301 0.9488
C14 C 0.1152(6) 0.9306(3) 0.8210(2)
H6 H 0.1272 0.9558 0.7889
O12 O 0.4014(4) 0.6875(2) 0.94035(17)
H8 H 0.4320 0.6559 0.9551
C25 C 0.0853(6) 0.9588(3) 0.8685(2)
O14 O 0.2852(6) 0.6842(3) 0.8000(3)
C32 C 0.0676(5) 0.9229(2) 0.9186(2)
O15 O 0.3523(4) 0.7796(3) 0.8124(2)
C40 C 0.1295(5) 0.8630(3) 0.8182(2)
C44 C 0.2784(6) 0.7420(3) 0.7931(3)
C46 C 0.1812(6) 0.7695(3) 0.7604(3)
H31 H 0.1108 0.7472 0.7714
C47 C 0.1130(6) 0.8248(3) 0.8668(3)
H32 H 0.1232 0.7801 0.8655
C48 C 0.1987(6) 0.7614(4) 0.6964(3)
H33 H 0.2104 0.7163 0.6878
H34 H 0.2643 0.7859 0.6847
H35 H 0.1322 0.7768 0.6768
O17 O 0.5086(4) 0.59449(17) 0.85345(14)
O20 O 0.5452(5) 0.65904(17) 0.76006(14)
O21 O 0.6074(4) 0.7696(2) 0.85589(19)
H42 H 0.317342 0.680859 0.939338
O2 O 0.9914(4) 0.40551(17) 0.35345(14)
O3 O 0.9830(4) 0.50193(17) 0.31173(16)
O4 O 0.9548(5) 0.34096(17) 0.26006(14)
O6 O 0.9973(4) 0.10587(17) 0.08915(17)
C2 C 0.9708(5) 0.3013(2) 0.2140(2)
C18 C 0.9340(7) 0.2406(3) 0.2200(2)
H11 H 0.8958 0.2288 0.2528
C20 C 0.9809(5) 0.4419(2) 0.3094(2)
C26 C 0.9585(7) 0.4118(3) 0.2515(2)
C36 C 0.9521(6) 0.1938(3) 0.1772(2)
H25 H 0.9271 0.1513 0.1823
C49 C 0.8478(8) 0.4353(4) 0.2251(3)
H36 H 0.8513 0.4814 0.2198
H37 H 0.7850 0.4248 0.2496
H38 H 0.8370 0.4143 0.1893
Cd6 Cd 0.99506(3) 0.499492(16) 0.415323(14)
Cd2 Cd 0.49506(3) 0.000508(16) 0.584677(14)
O1_2 O 0.4897(4) 0.08141(16) 0.51508(14)
C1_2 C 0.4639(4) 0.0464(2) 0.47335(19)
N4_2 N 0.2962(4) 0.0012(2) 0.5949(2)
C5_2 C 0.0591(5) 0.0054(3) 0.6010(2)
O10_2 O 0.3354(4) 0.1599(2) 0.26677(17)
C10_2 C 0.2387(5) 0.0544(3) 0.5769(3)
H3_2 H 0.2802 0.0887 0.5616
C11_2 C 0.4185(5) 0.1452(3) 0.4164(3)
H4_2 H 0.4307 0.1699 0.4488
C14_2 C 0.3848(6) 0.0694(3) 0.3210(2)
H6_2 H 0.3728 0.0442 0.2889
O12_2 O 0.0986(4) 0.3125(2) 0.44035(17)
H8_2 H 0.0680 0.3441 0.4551
C25_2 C 0.4147(6) 0.0412(3) 0.3685(2)
O14_2 O 0.2148(6) 0.3158(3) 0.3000(3)
C27_2 C 0.1211(5) 0.0600(3) 0.5802(3)
H17_2 H 0.0840 0.0979 0.5692
C32_2 C 0.4324(5) 0.0771(2) 0.4186(2)
O15_2 O 0.1477(4) 0.2204(3) 0.3124(2)
C40_2 C 0.3705(5) 0.1370(3) 0.3182(2)
C44_2 C 0.2216(6) 0.2580(3) 0.2931(3)
C46_2 C 0.3188(6) 0.2305(3) 0.2604(3)
H31_2 H 0.3892 0.2528 0.2714
C47_2 C 0.3870(6) 0.1752(3) 0.3668(3)
H32_2 H 0.3768 0.2199 0.3655
C48_2 C 0.3013(6) 0.2386(4) 0.1964(3)
H33_2 H 0.2896 0.2837 0.1878
H34_2 H 0.2357 0.2141 0.1847
H35_2 H 0.3678 0.2232 0.1768
O18_2 O 0.4914(4) 0.09449(17) 0.64655(14)
N6 N 0.6931(4) 0.0019(2) 0.59099(19)
H42_2 H 0.182658 0.319141 0.439338
Cd1 Cd 0.44447(3) 0.874817(16) 0.458808(14)
O3_2 O 0.5170(4) 0.49807(17) 0.81173(16)
O5_2 O 0.4370(4) 0.86974(18) 0.35927(16)
N2_2 N 0.2466(4) 0.8903(2) 0.4706(2)
O6_2 O 0.5027(4) 0.89413(17) 0.58915(17)
O7_2 O 0.4620(4) 0.98490(15) 0.47908(15)
C2_2 C 0.5292(5) 0.6987(2) 0.7140(2)
O8_2 O 0.4139(4) 0.7786(2) 0.40593(16)
C3_2 C 0.2384(6) 0.9547(3) 0.6157(3)
H1_2 H 0.2786 0.9190 0.6292
O9_2 O 0.4373(3) 0.81341(18) 0.53547(15)
C4_2 C 0.4943(5) 0.7889(2) 0.62893(19)
C6_2 C 0.3901(5) 0.7753(3) 0.3069(2)
C7_2 C 0.4759(4) 0.8351(2) 0.5812(2)
C9_2 C 0.1872(5) 0.9427(3) 0.4518(3)
H2_2 H 0.2260 0.9784 0.4372
C12_2 C 0.3370(5) 0.7055(3) 0.2082(2)
C13_2 C 0.1898(5) 0.8410(3) 0.4950(3)
H5_2 H 0.2302 0.8063 0.5101
O11_2 O 0.3081(4) 0.6664(2) 0.16284(17)
O13_2 O 0.1074(4) 0.7304(2) 0.14411(19)
C18_2 C 0.5660(7) 0.7594(3) 0.7200(2)
H11_2 H 0.6042 0.7712 0.7528
C19_2 C 0.3816(5) 0.8051(3) 0.2554(2)
H12_2 H 0.3944 0.8497 0.2535
C20_2 C 0.5191(5) 0.5581(2) 0.8094(2)
C21_2 C 0.0091(5) 0.8914(2) 0.4756(2)
C23_2 C 0.2898(6) 0.6990(3) 0.1091(2)
H14_2 H 0.3588 0.7232 0.0986
H15_2 H 0.4245 0.9963 0.3691
C26_2 C 0.5415(7) 0.5882(3) 0.7515(2)
H16_2 H 0.4778 0.5776 0.7262
C28_2 C 0.3481(6) 0.6715(3) 0.2586(3)
H18_2 H 0.3404 0.6265 0.2596
C31_2 C 0.3711(6) 0.7068(3) 0.3081(2)
H21_2 H 0.3741 0.6850 0.3424
C33_2 C 0.4505(6) 0.7247(3) 0.6242(2)
H22_2 H 0.4084 0.7131 0.5925
C34_2 C 0.0694(5) 0.9431(3) 0.4542(3)
H23_2 H 0.0298 0.9793 0.4411
C35_2 C 0.3549(6) 0.7723(3) 0.2062(2)
H24_2 H 0.3490 0.7946 0.1721
C36_2 C 0.5479(6) 0.8062(3) 0.6772(2)
H25_2 H 0.5729 0.8487 0.6823
O16_2 O 0.1884(5) 0.7895(3) 0.0743(2)
C37_2 C 0.0692(5) 0.8416(3) 0.4978(3)
H26_2 H 0.0310 0.8073 0.5151
C38_2 C 0.4693(6) 0.6796(3) 0.6659(2)
H27_2 H 0.4427 0.6373 0.6621
C39_2 C 0.4157(5) 0.8105(3) 0.3602(2)
C41_2 C 0.1205(5) 0.9529(4) 0.6198(3)
H28_2 H 0.0836 0.9169 0.6349
C45_2 C 0.1887(6) 0.7445(3) 0.1100(3)
C49_2 C 0.6522(8) 0.5647(4) 0.7251(3)
H36_2 H 0.6487 0.5186 0.7198
H37_2 H 0.7150 0.5752 0.7496
H38_2 H 0.6630 0.5857 0.6893
C50_2 C 0.2714(8) 0.6470(5) 0.0691(4)
H39_2 H 0.2586 0.6651 0.0322
H40_2 H 0.2059 0.6221 0.0803
H41_2 H 0.3375 0.6194 0.0681
Cd6_2 Cd 0.50494(3) 0.500508(16) 0.915323(14)
N5 N 0.6408(4) 0.8784(2) 0.4641(2)
O19_2 O 0.4830(4) 0.99807(17) 0.68827(16)
C24_2 C 0.9307(5) 0.0059(3) 0.5984(2)
C29_2 C 0.7535(6) 0.0309(4) 0.5532(3)
H19_2 H 0.7162 0.0496 0.5225
C43_2 C 0.8700(6) 0.0355(4) 0.5562(3)
H30_2 H 0.9089 0.0593 0.5289
O21_2 O 0.8926(4) 0.2304(2) 0.35589(19)
C8_2 C 0.8826(5) 0.8898(2) 0.4741(2)
C15_2 C 0.8206(5) 0.8472(3) 0.5078(3)
H7_2 H 0.8579 0.8217 0.5345
C16_2 C 0.8194(5) 0.9268(3) 0.4363(3)
H9_2 H 0.8564 0.9562 0.4127
C17_2 C 0.7476(6) 0.9730(4) 0.6303(4)
H10_2 H 0.7051 0.9516 0.6578
C22_2 C 0.7016(5) 0.9202(3) 0.4336(3)
H13_2 H 0.6622 0.9469 0.4086
C30_2 C 0.7018(5) 0.8425(3) 0.5014(3)
H20_2 H 0.6626 0.8131 0.5241
C42_2 C 0.8657(6) 0.9714(4) 0.6350(3)
H29_2 H 0.9001 0.9467 0.6632
Cd8_2 Cd 0.96786(4) 0.800448(19) 0.148692(17)
O4_2 O 0.0452(5) 0.84096(17) 0.23994(14)
O6_3 O 0.0027(4) 0.60587(17) 0.41085(17)
C2_3 C 0.0292(5) 0.8013(2) 0.2860(2)
C18_3 C 0.0660(7) 0.7406(3) 0.2800(2)
H11_3 H 0.1042 0.7288 0.2472
C20_3 C 0.0191(5) 0.9419(2) 0.1906(2)
C26_3 C 0.0415(7) 0.9118(3) 0.2485(2)
C36_3 C 0.0479(6) 0.6938(3) 0.3228(2)
H25_3 H 0.0729 0.6513 0.3177
C49_3 C 0.1522(8) 0.9353(4) 0.2749(3)
H36_3 H 0.1487 0.9814 0.2802
H37_3 H 0.2150 0.9248 0.2504
H38_3 H 0.1630 0.9143 0.3107
N5_2 N 0.1408(4) 0.6216(2) 0.5359(2)
N6_2 N 0.1931(4) 0.4981(2) 0.40901(19)
Cd1_2 Cd 0.94447(3) 0.625183(16) 0.541192(14)
O1_3 O 0.9897(4) 0.41859(16) 0.48492(14)
O5_3 O 0.9370(4) 0.63026(18) 0.64073(16)
N2_3 N 0.7466(4) 0.6097(2) 0.5294(2)
O7_3 O 0.9620(4) 0.51510(15) 0.52092(15)
C1_3 C 0.9639(4) 0.4536(2) 0.52665(19)
N4_3 N 0.7962(4) 0.4988(2) 0.4051(2)
O8_3 O 0.9139(4) 0.7214(2) 0.59407(16)
C3_3 C 0.7384(6) 0.5453(3) 0.3843(3)
H1_3 H 0.7786 0.5810 0.3708
O9_3 O 0.9373(3) 0.68659(18) 0.46453(15)
C4_3 C 0.9943(5) 0.7111(2) 0.37107(19)
C5_3 C 0.5591(5) 0.4946(3) 0.3990(2)
C6_3 C 0.8901(5) 0.7247(3) 0.6931(2)
O10_3 O 0.8354(4) 0.3401(2) 0.73323(17)
C7_3 C 0.9759(4) 0.6649(2) 0.4188(2)
C8_3 C 0.3826(5) 0.6102(2) 0.5259(2)
C9_3 C 0.6872(5) 0.5573(3) 0.5482(3)
H2_3 H 0.7260 0.5216 0.5628
C10_3 C 0.7387(5) 0.4456(3) 0.4231(3)
H3_3 H 0.7802 0.4113 0.4384
C11_3 C 0.9185(5) 0.3548(3) 0.5836(3)
H4_3 H 0.9307 0.3301 0.5512
C12_3 C 0.8370(5) 0.7945(3) 0.7918(2)
C13_3 C 0.6898(5) 0.6590(3) 0.5050(3)
H5_3 H 0.7302 0.6937 0.4899
O11_3 O 0.8081(4) 0.8336(2) 0.83716(17)
C14_3 C 0.8848(6) 0.4306(3) 0.6790(2)
H6_3 H 0.8728 0.4558 0.7111
C15_3 C 0.3206(5) 0.6528(3) 0.4922(3)
H7_3 H 0.3579 0.6783 0.4655
O12_3 O 0.5986(4) 0.1875(2) 0.55965(17)
H8_3 H 0.5680 0.1559 0.5449
C16_3 C 0.3194(5) 0.5732(3) 0.5637(3)
H9_3 H 0.3564 0.5438 0.5873
C17_3 C 0.2476(6) 0.5270(4) 0.3697(4)
H10_3 H 0.2051 0.5484 0.3422
C19_3 C 0.8816(5) 0.6949(3) 0.7446(2)
H12_3 H 0.8944 0.6503 0.7465
C21_3 C 0.5091(5) 0.6086(2) 0.5244(2)
C22_3 C 0.2016(5) 0.5798(3) 0.5664(3)
H13_3 H 0.1622 0.5531 0.5914
C23_3 C 0.7898(6) 0.8010(3) 0.8909(2)
H14_3 H 0.8588 0.7768 0.9014
C24_3 C 0.4307(5) 0.4941(3) 0.4016(2)
C25_3 C 0.9147(6) 0.4588(3) 0.6315(2)
H15_3 H 0.9245 0.5037 0.6309
O14_3 O 0.7148(6) 0.1842(3) 0.7000(3)
H16_3 H 0.9778 0.9224 0.2738
C27_3 C 0.6211(5) 0.4400(3) 0.4198(3)
H17_3 H 0.5840 0.4021 0.4308
C28_3 C 0.8481(6) 0.8285(3) 0.7414(3)
H18_3 H 0.8404 0.8735 0.7404
C29_3 C 0.2535(6) 0.4691(4) 0.4468(3)
H19_3 H 0.2162 0.4504 0.4775
C30_3 C 0.2018(5) 0.6575(3) 0.4986(3)
H20_3 H 0.1626 0.6869 0.4759
C31_3 C 0.8711(6) 0.7932(3) 0.6919(2)
H21_3 H 0.8741 0.8150 0.6576
C32_3 C 0.9324(5) 0.4229(2) 0.5814(2)
C33_3 C 0.9505(6) 0.7753(3) 0.3758(2)
H22_3 H 0.9084 0.7869 0.4075
O15_3 O 0.6477(4) 0.2796(3) 0.6876(2)
C34_3 C 0.5694(5) 0.5569(3) 0.5458(3)
H23_3 H 0.5298 0.5207 0.5589
C35_3 C 0.8549(6) 0.7277(3) 0.7938(2)
H24_3 H 0.8490 0.7054 0.8279
O16_3 O 0.6884(5) 0.7105(3) 0.9257(2)
C37_3 C 0.5692(5) 0.6584(3) 0.5022(3)
H26_3 H 0.5310 0.6927 0.4849
C38_3 C 0.9693(6) 0.8204(3) 0.3341(2)
H27_3 H 0.9427 0.8627 0.3379
C39_3 C 0.9157(5) 0.6895(3) 0.6398(2)
C40_3 C 0.8705(5) 0.3630(3) 0.6818(2)
C41_3 C 0.6205(5) 0.5471(4) 0.3802(3)
H28_3 H 0.5836 0.5831 0.3651
C42_3 C 0.3657(6) 0.5286(4) 0.3650(3)
H29_3 H 0.4001 0.5533 0.3368
C43_3 C 0.3700(6) 0.4645(4) 0.4438(3)
H30_3 H 0.4089 0.4407 0.4711
C44_3 C 0.7216(6) 0.2420(3) 0.7069(3)
C45_3 C 0.6887(6) 0.7555(3) 0.8900(3)
C46_3 C 0.8188(6) 0.2695(3) 0.7396(3)
H31_3 H 0.8892 0.2472 0.7286
C47_3 C 0.8870(6) 0.3248(3) 0.6332(3)
H32_3 H 0.8768 0.2801 0.6345
C48_3 C 0.8013(6) 0.2614(4) 0.8036(3)
H33_3 H 0.7896 0.2163 0.8122
H34_3 H 0.7357 0.2859 0.8153
H35_3 H 0.8678 0.2768 0.8232
C50_3 C 0.7714(8) 0.8530(5) 0.9309(4)
H39_3 H 0.7586 0.8349 0.9678
H40_3 H 0.7059 0.8779 0.9197
H41_3 H 0.8375 0.8806 0.9319
O20_2 O 0.4548(5) 0.15904(17) 0.73994(14)
H42_3 H 0.682658 0.180859 0.560662
N1_2 N 0.3592(4) 0.3784(2) 0.0359(2)
C8_4 C 0.1174(5) 0.3898(2) 0.0259(2)
C16_4 C 0.1806(5) 0.4268(3) 0.0637(3)
H9_4 H 0.1436 0.4562 0.0873
C22_4 C 0.2984(5) 0.4202(3) 0.0664(3)
H13_4 H 0.3378 0.4469 0.0914
Cd4_2 Cd 0.55553(3) 0.374817(16) 0.041192(14)
N3_2 N 0.3069(4) 0.5019(2) 0.90901(19)
C15_4 C 0.1794(5) 0.3472(3) 0.9922(3)
H7_4 H 0.1421 0.3217 0.9655
C17_4 C 0.2524(6) 0.4730(4) 0.8697(4)
H10_4 H 0.2949 0.4516 0.8422
C24_4 C 0.0693(5) 0.5059(3) 0.9016(2)
C29_4 C 0.2465(6) 0.5309(4) 0.9468(3)
H19_4 H 0.2838 0.5496 0.9775
C30_4 C 0.2982(5) 0.3425(3) 0.9986(3)
H20_4 H 0.3374 0.3131 0.9759
C42_4 C 0.1343(6) 0.4714(4) 0.8650(3)
H29_4 H 0.0999 0.4467 0.8368
C43_4 C 0.1300(6) 0.5355(4) 0.9438(3)
H30_4 H 0.0911 0.5593 0.9711
O5_4 O 0.5630(4) 0.36974(18) 0.14073(16)
N2_4 N 0.7534(4) 0.3903(2) 0.0294(2)
O7_4 O 0.5380(4) 0.48490(15) 0.02092(15)
C1_4 C 0.5361(4) 0.5464(2) 0.02665(19)
O8_4 O 0.5861(4) 0.2786(2) 0.09407(16)
C6_4 C 0.6099(5) 0.2753(3) 0.1931(2)
O10_4 O 0.6646(4) 0.6599(2) 0.23323(17)
C9_4 C 0.8128(5) 0.4427(3) 0.0482(3)
H2_4 H 0.7740 0.4784 0.0628
C11_4 C 0.5815(5) 0.6452(3) 0.0836(3)
H4_4 H 0.5693 0.6699 0.0512
C12_4 C 0.6630(5) 0.2055(3) 0.2918(2)
C13_4 C 0.8102(5) 0.3410(3) 0.0050(3)
O11_4 O 0.6919(4) 0.1664(2) 0.33716(17)
C14_4 C 0.6152(6) 0.5694(3) 0.1790(2)
H6_4 H 0.6272 0.5442 0.2111
O12_4 O 0.9014(4) 0.8125(2) 0.05965(17)
H8_4 H 0.9320 0.8441 0.0449
C19_4 C 0.6184(5) 0.3051(3) 0.2446(2)
H12_4 H 0.6056 0.3497 0.2465
C21_4 C 0.9909(5) 0.3914(2) 0.0244(2)
C23_4 C 0.7102(6) 0.1990(3) 0.3909(2)
H14_4 H 0.6412 0.2232 0.4014
C25_4 C 0.5853(6) 0.5412(3) 0.1315(2)
H15_4 H 0.5755 0.4963 0.1309
O14_4 O 0.7852(6) 0.8158(3) 0.2000(3)
C28_4 C 0.6519(6) 0.1715(3) 0.2414(3)
H18_4 H 0.6596 0.1265 0.2404
C31_4 C 0.6289(6) 0.2068(3) 0.1919(2)
H21_4 H 0.6259 0.1850 0.1576
C32_4 C 0.5676(5) 0.5771(2) 0.0814(2)
O15_4 O 0.8523(4) 0.7204(3) 0.1876(2)
C34_4 C 0.9306(5) 0.4431(3) 0.0458(3)
H23_4 H 0.9702 0.4793 0.0589
C35_4 C 0.6451(6) 0.2723(3) 0.2938(2)
H24_4 H 0.6510 0.2946 0.3279
O16_4 O 0.8116(5) 0.2895(3) 0.4257(2)
C37_4 C 0.9308(5) 0.3416(3) 0.0022(3)
C39_4 C 0.5843(5) 0.3105(3) 0.1398(2)
C40_4 C 0.6295(5) 0.6370(3) 0.1818(2)
C44_4 C 0.7784(6) 0.7580(3) 0.2069(3)
C45_4 C 0.8113(6) 0.2445(3) 0.3900(3)
C46_4 C 0.6812(6) 0.7305(3) 0.2396(3)
H31_4 H 0.6108 0.7528 0.2286
C47_4 C 0.6130(6) 0.6752(3) 0.1332(3)
H32_4 H 0.6232 0.7199 0.1345
C48_4 C 0.6987(6) 0.7386(4) 0.3036(3)
H33_4 H 0.7104 0.7837 0.3122
H34_4 H 0.7643 0.7141 0.3153
H35_4 H 0.6322 0.7232 0.3232
C50_4 C 0.7286(8) 0.1470(5) 0.4309(4)
H39_4 H 0.7414 0.1651 0.4678
H40_4 H 0.7941 0.1221 0.4197
H41_4 H 0.6625 0.1194 0.4319
H42_4 H 0.817342 0.819141 0.0606625
O1_4 O 0.5103(4) 0.58141(16) 0.98492(14)
O6_4 O 0.4973(4) 0.39413(17) 0.91085(17)
C2_4 C 0.4708(5) 0.1987(2) 0.7860(2)
N4_4 N 0.7038(4) 0.5012(2) 0.9051(2)
C3_4 C 0.7616(6) 0.4547(3) 0.8843(3)
H1_4 H 0.7214 0.4190 0.8708
O9_4 O 0.5627(3) 0.31341(18) 0.96453(15)
C4_4 C 0.5057(5) 0.2889(2) 0.87107(19)
C5_4 C 0.9409(5) 0.5054(3) 0.8990(2)
C7_4 C 0.5241(4) 0.3351(2) 0.9188(2)
C10_4 C 0.7613(5) 0.5544(3) 0.9231(3)
H3_4 H 0.7198 0.5887 0.9384
H5_4 H 0.7698 0.3063 0.9899
C18_4 C 0.4340(7) 0.2594(3) 0.7800(2)
H11_4 H 0.3958 0.2712 0.7472
C20_4 C 0.4809(5) 0.0581(2) 0.6906(2)
C26_4 C 0.4585(7) 0.0882(3) 0.7485(2)
H16_4 H 0.5222 0.0776 0.7738
C27_4 C 0.8789(5) 0.5600(3) 0.9198(3)
H17_4 H 0.9160 0.5979 0.9308
C33_4 C 0.5495(6) 0.2247(3) 0.8758(2)
H22_4 H 0.5916 0.2131 0.9075
C36_4 C 0.4521(6) 0.3062(3) 0.8228(2)
H25_4 H 0.4271 0.3487 0.8177
H26_4 H 0.9690 0.3073 0.9849
C38_4 C 0.5307(6) 0.1796(3) 0.8341(2)
H27_4 H 0.5573 0.1373 0.8379
C41_4 C 0.8795(5) 0.4529(4) 0.8802(3)
H28_4 H 0.9164 0.4169 0.8651
C49_4 C 0.3478(8) 0.0647(4) 0.7749(3)
H36_4 H 0.3513 0.0186 0.7802
H37_4 H 0.2850 0.0752 0.7504
H38_4 H 0.3370 0.0857 0.8107
loop_
_geom_bond_atom_site_label_1
_geom_bond_atom_site_label_2
_geom_bond_site_symmetry_1
_geom_bond_site_symmetry_2
H1 C3 1_555 1_555
C4 C7 1_555 1_555
C15 H7 1_555 1_555
C17 H10 1_555 1_555
H20 C30 1_555 1_555
C33 C4 1_555 1_555
H22 C33 1_555 1_555
H27 C38 1_555 1_555
C41 C3 1_555 1_555
H28 C41 1_555 1_555
C42 C17 1_555 1_555
H29 C42 1_555 1_555
O9 C7 1_555 1_555
C15 C30 1_555 1_555
C33 C38 1_555 1_555
Cd4 O5 1_555 1_555
N1 C22 1_555 1_555
O5 C39 1_555 1_555
N2 Cd4 1_555 1_555
O7 Cd4 1_555 1_555
O8 Cd4 1_555 1_555
C6 C19 1_555 1_555
C9 N2 1_555 1_555
H2 C9 1_555 1_555
C12 O11 1_555 1_555
C13 N2 1_555 1_555
O11 C23 1_555 1_555
C16 C8 1_555 1_555
H9 C16 1_555 1_555
O13 C45 1_555 1_555
C19 H12 1_555 1_555
C21 C8 1_555 1_555
C22 C16 1_555 1_555
H13 C22 1_555 1_555
C23 H14 1_555 1_555
C28 C12 1_555 1_555
H18 C28 1_555 1_555
C31 C6 1_555 1_555
H21 C31 1_555 1_555
C34 C9 1_555 1_555
H23 C34 1_555 1_555
C35 C12 1_555 1_555
H24 C35 1_555 1_555
O16 C45 1_555 1_555
C37 C13 1_555 1_555
C39 O8 1_555 1_555
C45 C23 1_555 1_555
C50 C23 1_555 1_555
H39 C50 1_555 1_555
H40 C50 1_555 1_555
H41 C50 1_555 1_555
Cd8 O13 1_555 1_555
C6 C39 1_555 1_555
C19 C35 1_555 1_555
C21 C34 1_555 1_555
C21 C37 1_555 1_555
C28 C31 1_555 1_555
Cd5 O1 1_555 1_555
N4 Cd5 1_555 1_555
C5 C24 1_555 1_555
C10 N4 1_555 1_555
H3 C10 1_555 1_555
C27 C5 1_555 1_555
H17 C27 1_555 1_555
C29 N3 1_555 1_555
H19 C29 1_555 1_555
C43 C24 1_555 1_555
H30 C43 1_555 1_555
O18 Cd5 1_555 1_555
C10 C27 1_555 1_555
C29 C43 1_555 1_555
Cd3 O12 1_555 1_555
O10 C40 1_555 1_555
C11 H4 1_555 1_555
C14 H6 1_555 1_555
O12 H8 1_555 1_555
C25 C14 1_555 1_555
O14 Cd3 1_555 1_555
C32 C1 1_555 1_555
O15 Cd3 1_555 1_555
C40 C14 1_555 1_555
C44 O14 1_555 1_555
C46 O10 1_555 1_555
H31 C46 1_555 1_555
C47 C11 1_555 1_555
H32 C47 1_555 1_555
C48 C46 1_555 1_555
H33 C48 1_555 1_555
H34 C48 1_555 1_555
H35 C48 1_555 1_555
O17 Cd3 1_555 1_555
O20 Cd3 1_555 1_555
O21 Cd3 1_555 1_555
C11 C32 1_555 1_555
C25 C32 1_555 1_555
O15 C44 1_555 1_555
C40 C47 1_555 1_555
C44 C46 1_555 1_555
O12 H42 1_555 1_555
O2 C20 1_555 1_555
O3 C20 1_555 1_555
O4 C2 1_555 1_555
C2 C18 1_555 1_555
C18 H11 1_555 1_555
C20 C26 1_555 1_555
C26 O4 1_555 1_555
H25 C36 1_555 1_555
C49 C26 1_555 1_555
H36 C49 1_555 1_555
H37 C49 1_555 1_555
H38 C49 1_555 1_555
Cd6 O2 1_555 1_555
O3 Cd6 1_555 1_555
C18 C36 1_555 1_555
Cd2 O1_2 1_555 1_555
Cd7 O12_2 1_555 1_555
O1_2 C1_2 1_555 1_555
N4_2 Cd2 1_555 1_555
O10_2 C40_2 1_555 1_555
C10_2 N4_2 1_555 1_555
H3_2 C10_2 1_555 1_555
C11_2 H4_2 1_555 1_555
C14_2 H6_2 1_555 1_555
O12_2 H8_2 1_555 1_555
C25_2 C14_2 1_555 1_555
O14_2 Cd7 1_555 1_555
C27_2 C5_2 1_555 1_555
H17_2 C27_2 1_555 1_555
C32_2 C1_2 1_555 1_555
O15_2 Cd7 1_555 1_555
C40_2 C14_2 1_555 1_555
C44_2 O14_2 1_555 1_555
C46_2 O10_2 1_555 1_555
H31_2 C46_2 1_555 1_555
C47_2 C11_2 1_555 1_555
H32_2 C47_2 1_555 1_555
C48_2 C46_2 1_555 1_555
H33_2 C48_2 1_555 1_555
H34_2 C48_2 1_555 1_555
H35_2 C48_2 1_555 1_555
O18_2 Cd2 1_555 1_555
N6 Cd2 1_555 1_555
C10_2 C27_2 1_555 1_555
C11_2 C32_2 1_555 1_555
C25_2 C32_2 1_555 1_555
O15_2 C44_2 1_555 1_555
C40_2 C47_2 1_555 1_555
C44_2 C46_2 1_555 1_555
O12_2 H42_2 1_555 1_555
Cd1 O5_2 1_555 1_555
O17 C20_2 1_555 1_555
O3_2 C20_2 1_555 1_555
O20 C2_2 1_555 1_555
O5_2 C39_2 1_555 1_555
N2_2 Cd1 1_555 1_555
O7_2 Cd1 1_555 1_555
C2_2 C18_2 1_555 1_555
O8_2 Cd1 1_555 1_555
H1_2 C3_2 1_555 1_555
O9_2 Cd1 1_555 1_555
C4_2 C7_2 1_555 1_555
C6_2 C19_2 1_555 1_555
C7_2 O6_2 1_555 1_555
C9_2 N2_2 1_555 1_555
H2_2 C9_2 1_555 1_555
C12_2 O11_2 1_555 1_555
C13_2 N2_2 1_555 1_555
H5_2 C13_2 1_555 1_555
O11_2 C23_2 1_555 1_555
O13_2 C45_2 1_555 1_555
C18_2 H11_2 1_555 1_555
C19_2 H12_2 1_555 1_555
C20_2 C26_2 1_555 1_555
C23_2 H14_2 1_555 1_555
C26_2 O20 1_555 1_555
H16_2 C26_2 1_555 1_555
C28_2 C12_2 1_555 1_555
H18_2 C28_2 1_555 1_555
C31_2 C6_2 1_555 1_555
H21_2 C31_2 1_555 1_555
C33_2 C4_2 1_555 1_555
H22_2 C33_2 1_555 1_555
C34_2 C9_2 1_555 1_555
H23_2 C34_2 1_555 1_555
C35_2 C12_2 1_555 1_555
H24_2 C35_2 1_555 1_555
C36_2 C4_2 1_555 1_555
H25_2 C36_2 1_555 1_555
O16_2 C45_2 1_555 1_555
C37_2 C13_2 1_555 1_555
H26_2 C37_2 1_555 1_555
C38_2 C2_2 1_555 1_555
H27_2 C38_2 1_555 1_555
C39_2 O8_2 1_555 1_555
C41_2 C3_2 1_555 1_555
H28_2 C41_2 1_555 1_555
C45_2 C23_2 1_555 1_555
C49_2 C26_2 1_555 1_555
H36_2 C49_2 1_555 1_555
H37_2 C49_2 1_555 1_555
H38_2 C49_2 1_555 1_555
C50_2 C23_2 1_555 1_555
H39_2 C50_2 1_555 1_555
H40_2 C50_2 1_555 1_555
H41_2 C50_2 1_555 1_555
Cd6_2 O17 1_555 1_555
N5 Cd1 1_555 1_555
O3_2 Cd6_2 1_555 1_555
O9_2 C7_2 1_555 1_555
C6_2 C39_2 1_555 1_555
C18_2 C36_2 1_555 1_555
C19_2 C35_2 1_555 1_555
C21_2 C34_2 1_555 1_555
C21_2 C37_2 1_555 1_555
C28_2 C31_2 1_555 1_555
C33_2 C38_2 1_555 1_555
C29_2 N6 1_555 1_555
H19_2 C29_2 1_555 1_555
C43_2 C24_2 1_555 1_555
H30_2 C43_2 1_555 1_555
C29_2 C43_2 1_555 1_555
N5 C22_2 1_555 1_555
C8_2 C15_2 1_555 1_555
C15_2 H7_2 1_555 1_555
C16_2 C8_2 1_555 1_555
H9_2 C16_2 1_555 1_555
C17_2 H10_2 1_555 1_555
C22_2 C16_2 1_555 1_555
H13_2 C22_2 1_555 1_555
C30_2 N5 1_555 1_555
H20_2 C30_2 1_555 1_555
C42_2 C17_2 1_555 1_555
H29_2 C42_2 1_555 1_555
C15_2 C30_2 1_555 1_555
O18 C20_3 1_555 1_555
O4_2 C2_3 1_555 1_555
C2_3 C18_3 1_555 1_555
C18_3 H11_3 1_555 1_555
C20_3 C26_3 1_555 1_555
C26_3 O4_2 1_555 1_555
H25_3 C36_3 1_555 1_555
C49_3 C26_3 1_555 1_555
H36_3 C49_3 1_555 1_555
H37_3 C49_3 1_555 1_555
H38_3 C49_3 1_555 1_555
C18_3 C36_3 1_555 1_555
Cd1_2 O5_3 1_555 1_555
Cd6 O1_3 1_555 1_555
Cd8 O12_3 1_555 1_555
N5_2 C22_3 1_555 1_555
O1_3 C1_3 1_555 1_555
O5_3 C39_3 1_555 1_555
N2_3 Cd1_2 1_555 1_555
O7_3 Cd1_2 1_555 1_555
C1_3 O7_3 1_555 1_555
N6_2 C17_3 1_555 1_555
N4_3 Cd6 1_555 1_555
O8_3 Cd1_2 1_555 1_555
C3_3 N4_3 1_555 1_555
H1_3 C3_3 1_555 1_555
O9_3 Cd1_2 1_555 1_555
C4_3 C7_3 1_555 1_555
C5_3 C24_3 1_555 1_555
C6_3 C19_3 1_555 1_555
O10_3 C40_3 1_555 1_555
C8_3 C15_3 1_555 1_555
C9_3 N2_3 1_555 1_555
H2_3 C9_3 1_555 1_555
C10_3 N4_3 1_555 1_555
H3_3 C10_3 1_555 1_555
C11_3 H4_3 1_555 1_555
C12_3 O11_3 1_555 1_555
C13_3 N2_3 1_555 1_555
H5_3 C13_3 1_555 1_555
O11_3 C23_3 1_555 1_555
C14_3 H6_3 1_555 1_555
C15_3 H7_3 1_555 1_555
O12_3 H8_3 1_555 1_555
C16_3 C8_3 1_555 1_555
H9_3 C16_3 1_555 1_555
O21 C45_3 1_555 1_555
C17_3 H10_3 1_555 1_555
C19_3 H12_3 1_555 1_555
C21_3 C8_3 1_555 1_555
C22_3 C16_3 1_555 1_555
H13_3 C22_3 1_555 1_555
C23_3 H14_3 1_555 1_555
C24_3 C42_3 1_555 1_555
C25_3 C14_3 1_555 1_555
H15_3 C25_3 1_555 1_555
O14_3 Cd8 1_555 1_555
C27_3 C5_3 1_555 1_555
H17_3 C27_3 1_555 1_555
C28_3 C12_3 1_555 1_555
H18_3 C28_3 1_555 1_555
C29_3 N6_2 1_555 1_555
H19_3 C29_3 1_555 1_555
C30_3 N5_2 1_555 1_555
H20_3 C30_3 1_555 1_555
C31_3 C6_3 1_555 1_555
H21_3 C31_3 1_555 1_555
C32_3 C1_3 1_555 1_555
C33_3 C4_3 1_555 1_555
H22_3 C33_3 1_555 1_555
O15_3 Cd8 1_555 1_555
C34_3 C9_3 1_555 1_555
H23_3 C34_3 1_555 1_555
C35_3 C12_3 1_555 1_555
H24_3 C35_3 1_555 1_555
O16_3 C45_3 1_555 1_555
C37_3 C13_3 1_555 1_555
H26_3 C37_3 1_555 1_555
H27_3 C38_3 1_555 1_555
C39_3 O8_3 1_555 1_555
C40_3 C14_3 1_555 1_555
C41_3 C3_3 1_555 1_555
H28_3 C41_3 1_555 1_555
C42_3 C17_3 1_555 1_555
H29_3 C42_3 1_555 1_555
C43_3 C24_3 1_555 1_555
H30_3 C43_3 1_555 1_555
C44_3 O14_3 1_555 1_555
C45_3 C23_3 1_555 1_555
C46_3 O10_3 1_555 1_555
H31_3 C46_3 1_555 1_555
C47_3 C11_3 1_555 1_555
H32_3 C47_3 1_555 1_555
C48_3 C46_3 1_555 1_555
H33_3 C48_3 1_555 1_555
H34_3 C48_3 1_555 1_555
H35_3 C48_3 1_555 1_555
C50_3 C23_3 1_555 1_555
H39_3 C50_3 1_555 1_555
H40_3 C50_3 1_555 1_555
H41_3 C50_3 1_555 1_555
O18_2 Cd8 1_555 1_555
O20_2 Cd8 1_555 1_555
Cd6 O7_3 1_555 1_555
O9_3 C7_3 1_555 1_555
C5_3 C41_3 1_555 1_555
C6_3 C39_3 1_555 1_555
C10_3 C27_3 1_555 1_555
C11_3 C32_3 1_555 1_555
C15_3 C30_3 1_555 1_555
C19_3 C35_3 1_555 1_555
C21_3 C34_3 1_555 1_555
C21_3 C37_3 1_555 1_555
C25_3 C32_3 1_555 1_555
C28_3 C31_3 1_555 1_555
C29_3 C43_3 1_555 1_555
C33_3 C38_3 1_555 1_555
O15_3 C44_3 1_555 1_555
C40_3 C47_3 1_555 1_555
C44_3 C46_3 1_555 1_555
O12_3 H42_3 1_555 1_555
N1_2 C22_4 1_555 1_555
C16_4 C8_4 1_555 1_555
H9_4 C16_4 1_555 1_555
C22_4 C16_4 1_555 1_555
H13_4 C22_4 1_555 1_555
Cd4_2 N1_2 1_555 1_555
N3_2 C17_4 1_555 1_555
C15_4 H7_4 1_555 1_555
C17_4 H10_4 1_555 1_555
C24_4 C42_4 1_555 1_555
C29_4 N3_2 1_555 1_555
H19_4 C29_4 1_555 1_555
H20_4 C30_4 1_555 1_555
C42_4 C17_4 1_555 1_555
H29_4 C42_4 1_555 1_555
C43_4 C24_4 1_555 1_555
H30_4 C43_4 1_555 1_555
Cd6_2 N3_2 1_555 1_555
C15_4 C30_4 1_555 1_555
C29_4 C43_4 1_555 1_555
Cd4_2 O5_4 1_555 1_555
Cd8_2 O12_4 1_555 1_555
O5_4 C39_4 1_555 1_555
N2_4 Cd4_2 1_555 1_555
O7_4 Cd4_2 1_555 1_555
C1_4 O7_4 1_555 1_555
O8_4 Cd4_2 1_555 1_555
C6_4 C19_4 1_555 1_555
O10_4 C40_4 1_555 1_555
C9_4 N2_4 1_555 1_555
H2_4 C9_4 1_555 1_555
C11_4 H4_4 1_555 1_555
C12_4 O11_4 1_555 1_555
C13_4 N2_4 1_555 1_555
O11_4 C23_4 1_555 1_555
C14_4 H6_4 1_555 1_555
O12_4 H8_4 1_555 1_555
O21_2 C45_4 1_555 1_555
C19_4 H12_4 1_555 1_555
C23_4 H14_4 1_555 1_555
C25_4 C14_4 1_555 1_555
H15_4 C25_4 1_555 1_555
O14_4 Cd8_2 1_555 1_555
C28_4 C12_4 1_555 1_555
H18_4 C28_4 1_555 1_555
C31_4 C6_4 1_555 1_555
H21_4 C31_4 1_555 1_555
C32_4 C1_4 1_555 1_555
O15_4 Cd8_2 1_555 1_555
C34_4 C9_4 1_555 1_555
H23_4 C34_4 1_555 1_555
C35_4 C12_4 1_555 1_555
H24_4 C35_4 1_555 1_555
O16_4 C45_4 1_555 1_555
C37_4 C13_4 1_555 1_555
C39_4 O8_4 1_555 1_555
C40_4 C14_4 1_555 1_555
C44_4 O14_4 1_555 1_555
C45_4 C23_4 1_555 1_555
C46_4 O10_4 1_555 1_555
H31_4 C46_4 1_555 1_555
C47_4 C11_4 1_555 1_555
H32_4 C47_4 1_555 1_555
C48_4 C46_4 1_555 1_555
H33_4 C48_4 1_555 1_555
H34_4 C48_4 1_555 1_555
H35_4 C48_4 1_555 1_555
C50_4 C23_4 1_555 1_555
H39_4 C50_4 1_555 1_555
H40_4 C50_4 1_555 1_555
H41_4 C50_4 1_555 1_555
C6_4 C39_4 1_555 1_555
C11_4 C32_4 1_555 1_555
C19_4 C35_4 1_555 1_555
C21_4 C34_4 1_555 1_555
C21_4 C37_4 1_555 1_555
C25_4 C32_4 1_555 1_555
C28_4 C31_4 1_555 1_555
O15_4 C44_4 1_555 1_555
C40_4 C47_4 1_555 1_555
C44_4 C46_4 1_555 1_555
O12_4 H42_4 1_555 1_555
Cd6_2 O1_4 1_555 1_555
O18_2 C20_4 1_555 1_555
O20_2 C2_4 1_555 1_555
O6_4 Cd6_2 1_555 1_555
C2_4 C18_4 1_555 1_555
N4_4 Cd6_2 1_555 1_555
C3_4 N4_4 1_555 1_555
H1_4 C3_4 1_555 1_555
C4_4 C7_4 1_555 1_555
C7_4 O6_4 1_555 1_555
C10_4 N4_4 1_555 1_555
H3_4 C10_4 1_555 1_555
C18_4 H11_4 1_555 1_555
C20_4 C26_4 1_555 1_555
C26_4 O20_2 1_555 1_555
H16_4 C26_4 1_555 1_555
C27_4 C5_4 1_555 1_555
H17_4 C27_4 1_555 1_555
C33_4 C4_4 1_555 1_555
H22_4 C33_4 1_555 1_555
C36_4 C4_4 1_555 1_555
H25_4 C36_4 1_555 1_555
C38_4 C2_4 1_555 1_555
H27_4 C38_4 1_555 1_555
C41_4 C3_4 1_555 1_555
H28_4 C41_4 1_555 1_555
C49_4 C26_4 1_555 1_555
H36_4 C49_4 1_555 1_555
H37_4 C49_4 1_555 1_555
H38_4 C49_4 1_555 1_555
O9_4 C7_4 1_555 1_555
C5_4 C41_4 1_555 1_555
C10_4 C27_4 1_555 1_555
C18_4 C36_4 1_555 1_555
C33_4 C38_4 1_555 1_555

#END
