
###############################################################################
#
# This file contains modified crystal structure data generated from the
# MOF subset of the Cambridge Structural Database (CSD) v543 
# hosted by the Cambridge Crystallographic Data Centre (CCDC).
#
# This work is licensed under the Creative Commons
# Attribution-NonCommercial-ShareAlike 4.0 International License.
# To view a copy of this license, visit
# http://creativecommons.org/licenses/by-nc-sa/4.0/
# or send a letter to
# Creative Commons, PO Box 1866, Mountain View, CA 94042, USA.
#
# CIF created using the CSD Python API on 29 September 2022
# The structure has been converted into the P1 space group
# The structure has a 3D framework
# The original CSD entry TATPAI is in the orthorhombic crystal system
# The original CSD entry TATPAI is in a Sohncke space group
# The framework has been calculated to contain at least 10.0% void space
# The void calculation uses a probe of radius 1.32A, grid spacing 0.4
# H atom positions have been added when not included in the experimental data
#
###############################################################################

data_TATPAI
_chemical_formula_moiety         '(C200 H168 Cd12 N16 O64)n'
_symmetry_cell_setting           triclinic
_symmetry_space_group_name_H-M   'P 1'
_symmetry_Int_Tables_number      1
_space_group_name_Hall           'P 1'
loop_
_symmetry_equiv_pos_site_id
_symmetry_equiv_pos_as_xyz
1 x,y,z
_cell_length_a                   11.6875(2)
_cell_length_b                   20.7157(4)
_cell_length_c                   23.6214(3)
_cell_angle_alpha                90
_cell_angle_beta                 90
_cell_angle_gamma                90
_cell_volume                     5719.09
loop_
_atom_site_label
_atom_site_type_symbol
_atom_site_fract_x
_atom_site_fract_y
_atom_site_fract_z
Cd6 Cd 0.06049(3) 0.874688(17) 0.959861(12)
Cd1 Cd 0.01168(3) 0.000301(16) 0.085490(12)
O1 O 0.0172(4) 0.07903(18) 0.01625(14)
O20 O 0.0188(4) 0.09397(19) 0.14719(14)
N6 N 0.2099(4) 0.0016(3) 0.09413(19)
Cd3 Cd 0.48038(4) 0.29987(2) 0.852200(14)
C1 C 0.1241(6) 0.1740(3) 0.8683(2)
H1 H 0.1336 0.2186 0.8674
C2 C 0.0452(4) 0.0450(3) 0.97402(19)
C4 C 0.0771(5) 0.0765(3) 0.9196(2)
C10 C 0.1221(6) 0.0704(3) 0.8208(2)
H6 H 0.1307 0.0463 0.7878
C11 C 0.0935(6) 0.1430(3) 0.9183(2)
H7 H 0.0839 0.1670 0.9513
O12 O 0.1743(4) 0.1612(3) 0.76828(16)
C25 C 0.0920(6) 0.0409(3) 0.8702(2)
O13 O 0.4103(5) 0.3128(2) 0.94052(16)
H16 H 0.4397 0.3446 0.9552
O14 O 0.3664(5) 0.2162(3) 0.8133(2)
O15 O 0.3041(6) 0.3136(3) 0.8031(3)
C43 C 0.1402(6) 0.1377(3) 0.8201(2)
C44 C 0.1892(6) 0.2310(4) 0.7634(3)
H30 H 0.1204 0.2534 0.7767
C46 C 0.2926(7) 0.2543(4) 0.7956(3)
C49 C 0.2044(7) 0.2413(5) 0.6998(3)
H36 H 0.1375 0.2263 0.6802
H37 H 0.2701 0.2176 0.6869
H38 H 0.2153 0.2864 0.6922
O18 O 0.5551(4) 0.34048(18) 0.76057(14)
O19 O 0.5188(4) 0.40603(19) 0.85281(14)
O21 O 0.6202(5) 0.2303(3) 0.85676(18)
H42 H 0.428024 0.273921 0.963492
C3 C 0.0049(5) 0.7886(3) 0.13020(18)
C5 C 0.6854(5) 0.8462(3) 0.0083(2)
H2 H 0.6484 0.8212 0.0353
O7 O 0.0013(5) 0.8931(2) 0.09207(18)
O9 O 0.0668(4) 0.8143(2) 0.03775(14)
H3 H 0.2744 0.8054 0.0084
H4 H 0.4714 0.8049 0.0144
C9 C 0.8010(5) 0.8427(3) 0.0021(2)
H5 H 0.8403 0.8139 0.0252
H8 H 0.0126 0.5801 0.2265
C19 C 0.0265(5) 0.8364(3) 0.0835(2)
C32 C 0.0432(6) 0.7258(3) 0.1245(2)
H21 H 0.0834 0.7138 0.0922
C34 C 0.0226(7) 0.6809(3) 0.1661(2)
H22 H 0.0479 0.6386 0.1619
Cd7 Cd 0.01962(4) 0.70013(2) 0.352200(14)
O17 O 0.0254(4) 0.9997(2) 0.18884(15)
N1 N 0.8625(4) 0.8776(2) 0.96549(18)
O2 O 0.0657(4) 0.8684(2) 0.86006(15)
N3 N 0.2559(4) 0.8891(2) 0.9713(2)
O6 O 0.0439(4) 0.98466(17) 0.97867(15)
O8 O 0.0859(5) 0.7785(2) 0.90813(15)
C6 C 0.6229(5) 0.8878(3) 0.9734(2)
C7 C 0.3148(5) 0.8404(3) 0.9940(3)
C8 C 0.4341(6) 0.8395(3) 0.9974(3)
O10 O 0.1821(5) 0.6662(2) 0.66334(16)
C14 C 0.6848(6) 0.9251(3) 0.9350(3)
H9 H 0.6474 0.9544 0.9117
O11 O 0.3798(5) 0.7303(3) 0.64324(18)
C15 C 0.4348(5) 0.9422(3) 0.9529(3)
H10 H 0.4731 0.9781 0.9387
C20 C 0.1076(6) 0.7722(3) 0.8081(2)
C22 C 0.8025(5) 0.9181(3) 0.9319(3)
H13 H 0.8422 0.9425 0.9053
C23 C 0.4964(5) 0.8902(3) 0.9752(2)
H14 H 0.0812 0.9964 0.8710
C27 C 0.3004(6) 0.7433(3) 0.6097(2)
C30 C 0.3171(5) 0.9401(3) 0.9522(3)
H19 H 0.2776 0.9754 0.9378
C31 C 0.1133(6) 0.8029(3) 0.7563(2)
H20 H 0.1027 0.8473 0.7550
C33 C 0.1537(6) 0.7038(3) 0.7088(2)
C35 C 0.2015(6) 0.6963(4) 0.6094(2)
H23 H 0.1318 0.7189 0.5976
C36 C 0.0845(5) 0.8082(3) 0.8615(2)
C37 C 0.1488(7) 0.6721(3) 0.7599(2)
H24 H 0.1611 0.6278 0.7616
C39 C 0.1339(6) 0.7707(3) 0.7066(2)
H26 H 0.1348 0.7927 0.6723
C40 C 0.1254(7) 0.7065(3) 0.8089(2)
H27 H 0.1216 0.6846 0.8433
O16 O 0.2990(6) 0.7892(3) 0.5751(2)
C47 C 0.2254(7) 0.6422(4) 0.5690(3)
H32 H 0.1623 0.6126 0.5690
H33 H 0.2937 0.6200 0.5804
H34 H 0.2356 0.6594 0.5316
Cd8 Cd 0.51962(4) 0.79987(2) 0.647800(14)
N2 N 0.8151(4) 0.0012(3) 0.09156(19)
C17 C 0.4491(5) 0.0037(3) 0.0989(2)
C21 C 0.2699(6) 0.0538(3) 0.0762(3)
H12 H 0.2302 0.0892 0.0621
C24 C 0.5748(5) 0.0040(3) 0.0969(2)
C26 C 0.7520(6) 0.0288(4) 0.0511(3)
H15 H 0.7896 0.0474 0.0205
C41 C 0.3861(5) 0.0559(3) 0.0781(3)
H28 H 0.4242 0.0926 0.0655
C48 C 0.6338(6) 0.0314(4) 0.0524(3)
H35 H 0.5940 0.0515 0.0232
O3 O 0.9746(4) 0.4997(2) 0.31116(15)
O4 O 0.9449(4) 0.65952(18) 0.26057(14)
O5 O 0.9812(4) 0.59397(19) 0.35281(14)
C12 C 0.9643(5) 0.6991(3) 0.21412(18)
C13 C 0.9487(7) 0.5903(3) 0.2518(2)
C16 C 0.2686(6) 0.9524(4) 0.1153(3)
H11 H 0.2285 0.9164 0.1279
C18 C 0.9708(5) 0.5595(3) 0.3090(2)
C28 C 0.9260(7) 0.7623(3) 0.2204(2)
H17 H 0.8864 0.7745 0.2528
C29 C 0.6414(6) 0.9731(4) 0.1380(3)
H18 H 0.6066 0.9519 0.1681
C38 C 0.9471(6) 0.8065(3) 0.1784(2)
H25 H 0.9222 0.8488 0.1825
C42 C 0.7587(6) 0.9742(5) 0.1335(3)
H29 H 0.8010 0.9546 0.1621
C45 C 0.3860(6) 0.9521(4) 0.1195(3)
H31 H 0.4231 0.9172 0.1362
C50 C 0.8380(10) 0.5674(5) 0.2246(4)
H39 H 0.8285 0.5882 0.1886
H40 H 0.7747 0.5781 0.2487
H41 H 0.8410 0.5215 0.2193
Cd5 Cd 0.98832(3) 0.500301(16) 0.414510(12)
N4 N 0.2901(4) 0.9984(3) 0.59413(19)
C17_2 C 0.0509(5) 0.9963(3) 0.5989(2)
C21_2 C 0.2301(6) 0.9462(3) 0.5762(3)
H12_2 H 0.2698 0.9108 0.5621
C41_2 C 0.1139(5) 0.9441(3) 0.5781(3)
H28_2 H 0.0758 0.9074 0.5655
Cd4 Cd 0.48832(3) 0.999699(16) 0.585490(12)
Cd2 Cd 0.43951(3) 0.125312(17) 0.459861(12)
O2_2 O 0.4343(4) 0.1316(2) 0.36006(15)
O3_2 O 0.5254(4) 0.5003(2) 0.81116(15)
N3_2 N 0.2441(4) 0.1109(2) 0.4713(2)
O6_2 O 0.4561(4) 0.01534(17) 0.47867(15)
C3_2 C 0.4951(5) 0.2114(3) 0.63020(18)
O7_2 O 0.4987(5) 0.1069(2) 0.59207(18)
O8_2 O 0.4141(5) 0.2215(2) 0.40813(15)
O9_2 O 0.4332(4) 0.1857(2) 0.53775(14)
C7_2 C 0.1852(5) 0.1596(3) 0.4940(3)
H3_2 H 0.2256 0.1946 0.5084
C8_2 C 0.0659(6) 0.1605(3) 0.4974(3)
H4_2 H 0.0286 0.1951 0.5144
O10_2 O 0.3179(5) 0.3338(2) 0.16334(16)
C12_2 C 0.5357(5) 0.3009(3) 0.71412(18)
C13_2 C 0.5513(7) 0.4097(3) 0.7518(2)
H8_2 H 0.4874 0.4199 0.7265
O11_2 O 0.1202(5) 0.2697(3) 0.14324(18)
C15_2 C 0.0652(5) 0.0578(3) 0.4529(3)
H10_2 H 0.0269 0.0219 0.4387
C18_2 C 0.5292(5) 0.4405(3) 0.8090(2)
C19_2 C 0.4735(5) 0.1636(3) 0.5835(2)
C20_2 C 0.3924(6) 0.2278(3) 0.3081(2)
C23_2 C 0.0036(5) 0.1098(3) 0.4752(2)
H14_2 H 0.4188 0.0036 0.3710
C27_2 C 0.1996(6) 0.2567(3) 0.1097(2)
C28_2 C 0.5740(7) 0.2377(3) 0.7204(2)
H17_2 H 0.6136 0.2255 0.7528
C29_2 C 0.8586(6) 0.0269(4) 0.6380(3)
H18_2 H 0.8934 0.0481 0.6681
C30_2 C 0.1829(5) 0.0599(3) 0.4522(3)
H19_2 H 0.2224 0.0246 0.4378
C31_2 C 0.3867(6) 0.1971(3) 0.2563(2)
H20_2 H 0.3973 0.1527 0.2550
C32_2 C 0.4568(6) 0.2742(3) 0.6245(2)
H21_2 H 0.4166 0.2862 0.5922
C33_2 C 0.3463(6) 0.2962(3) 0.2088(2)
C34_2 C 0.4774(7) 0.3191(3) 0.6661(2)
H22_2 H 0.4521 0.3614 0.6619
C35_2 C 0.2985(6) 0.3037(4) 0.1094(2)
H23_2 H 0.3682 0.2811 0.0976
C36_2 C 0.4155(5) 0.1918(3) 0.3615(2)
C37_2 C 0.3512(7) 0.3279(3) 0.2599(2)
H24_2 H 0.3389 0.3722 0.2616
C38_2 C 0.5529(6) 0.1935(3) 0.6784(2)
H25_2 H 0.5778 0.1512 0.6825
C39_2 C 0.3661(6) 0.2293(3) 0.2066(2)
H26_2 H 0.3652 0.2073 0.1723
C40_2 C 0.3746(7) 0.2935(3) 0.3089(2)
H27_2 H 0.3784 0.3154 0.3433
O16_2 O 0.2010(6) 0.2108(3) 0.0751(2)
C42_2 C 0.7413(6) 0.0258(5) 0.6335(3)
H29_2 H 0.6990 0.0454 0.6621
C47_2 C 0.2746(7) 0.3578(4) 0.0690(3)
H32_2 H 0.3377 0.3874 0.0690
H33_2 H 0.2063 0.3800 0.0804
H34_2 H 0.2644 0.3406 0.0316
C50_2 C 0.6620(10) 0.4326(5) 0.7246(4)
H39_2 H 0.6715 0.4118 0.6886
H40_2 H 0.7253 0.4219 0.7487
H41_2 H 0.6590 0.4785 0.7193
Cd5_2 Cd 0.51168(3) 0.499699(16) 0.914510(12)
N5 N 0.6375(4) 0.1224(2) 0.46549(18)
O17_2 O 0.4746(4) 0.0003(2) 0.68884(15)
O1_2 O 0.4828(4) 0.92097(18) 0.51625(14)
N2_2 N 0.6849(4) 0.9988(3) 0.59156(19)
C1_2 C 0.3759(6) 0.8260(3) 0.3683(2)
H1_2 H 0.3664 0.7814 0.3674
C2_2 C 0.4548(4) 0.9550(3) 0.47402(19)
C4_2 C 0.4229(5) 0.9235(3) 0.4196(2)
C10_2 C 0.3779(6) 0.9296(3) 0.3208(2)
H6_2 H 0.3693 0.9537 0.2878
C11_2 C 0.4065(6) 0.8570(3) 0.4183(2)
H7_2 H 0.4161 0.8330 0.4513
O12_2 O 0.3257(4) 0.8388(3) 0.26828(16)
C24_2 C 0.9252(5) 0.9960(3) 0.5969(2)
C25_2 C 0.4080(6) 0.9591(3) 0.3702(2)
C26_2 C 0.7480(6) 0.9712(4) 0.5511(3)
H15_2 H 0.7104 0.9526 0.5205
O13_2 O 0.0897(5) 0.6872(2) 0.44052(16)
H16_2 H 0.0603 0.6554 0.4552
O14_2 O 0.1336(5) 0.7838(3) 0.3133(2)
O15_2 O 0.1959(6) 0.6864(3) 0.3031(3)
C43_2 C 0.3598(6) 0.8623(3) 0.3201(2)
C44_2 C 0.3108(6) 0.7690(4) 0.2634(3)
H30_2 H 0.3796 0.7466 0.2767
C46_2 C 0.2074(7) 0.7457(4) 0.2956(3)
C48_2 C 0.8662(6) 0.9686(4) 0.5524(3)
H35_2 H 0.9060 0.9485 0.5232
C49_2 C 0.2956(7) 0.7587(5) 0.1998(3)
H36_2 H 0.3625 0.7737 0.1802
H37_2 H 0.2299 0.7824 0.1869
H38_2 H 0.2847 0.7136 0.1922
O20_2 O 0.4812(4) 0.90603(19) 0.64719(14)
H42_2 H 0.0719763 0.726079 0.463492
C5_2 C 0.8146(5) 0.1538(3) 0.5083(2)
H2_2 H 0.8516 0.1788 0.5353
C6_2 C 0.8771(5) 0.1122(3) 0.4734(2)
C9_2 C 0.6990(5) 0.1573(3) 0.5021(2)
H5_2 H 0.6597 0.1861 0.5252
C14_2 C 0.8152(6) 0.0749(3) 0.4350(3)
H9_2 H 0.8526 0.0456 0.4117
C22_2 C 0.6975(5) 0.0819(3) 0.4319(3)
H13_2 H 0.6578 0.0575 0.4053
Cd8_2 Cd 0.98038(4) 0.20013(2) 0.147800(14)
O21_2 O 0.8798(5) 0.7697(3) 0.35676(18)
N2_3 N 0.1849(4) 0.5012(3) 0.40844(19)
O4_2 O 0.0551(4) 0.15952(18) 0.23943(14)
N4_2 N 0.7901(4) 0.5016(3) 0.40587(19)
C12_3 C 0.0357(5) 0.1991(3) 0.28588(18)
C13_3 C 0.0513(7) 0.0903(3) 0.2482(2)
C16_2 C 0.7314(6) 0.4524(4) 0.3847(3)
H11_2 H 0.7715 0.4164 0.3721
C17_3 C 0.5509(5) 0.5037(3) 0.4011(2)
C18_3 C 0.0292(5) 0.0595(3) 0.1910(2)
C21_3 C 0.7301(6) 0.5538(3) 0.4238(3)
H12_3 H 0.7698 0.5892 0.4379
C24_3 C 0.4252(5) 0.5040(3) 0.4031(2)
C26_3 C 0.2480(6) 0.5288(4) 0.4489(3)
H15_3 H 0.2104 0.5474 0.4795
C28_3 C 0.0740(7) 0.2623(3) 0.2796(2)
H17_3 H 0.1136 0.2745 0.2472
C29_3 C 0.3586(6) 0.4731(4) 0.3620(3)
H18_3 H 0.3934 0.4519 0.3319
C38_3 C 0.0529(6) 0.3065(3) 0.3216(2)
H25_3 H 0.0778 0.3488 0.3175
C41_3 C 0.6139(5) 0.5559(3) 0.4219(3)
H28_3 H 0.5758 0.5926 0.4345
C42_3 C 0.2413(6) 0.4742(5) 0.3665(3)
H29_3 H 0.1990 0.4546 0.3379
C45_2 C 0.6140(6) 0.4521(4) 0.3805(3)
H31_2 H 0.5769 0.4172 0.3638
C48_3 C 0.3662(6) 0.5314(4) 0.4476(3)
H35_3 H 0.4060 0.5515 0.4768
C50_3 C 0.1620(10) 0.0674(5) 0.2754(4)
H39_3 H 0.1715 0.0882 0.3114
H40_3 H 0.2253 0.0781 0.2513
H41_3 H 0.1590 0.0215 0.2807
N5_2 N 0.1375(4) 0.3776(2) 0.53451(18)
Cd2_2 Cd 0.93951(3) 0.374688(17) 0.540139(12)
O1_3 O 0.9828(4) 0.57903(18) 0.48375(14)
O2_3 O 0.9343(4) 0.3684(2) 0.63994(15)
C1_3 C 0.8759(6) 0.6740(3) 0.6317(2)
H1_3 H 0.8664 0.7186 0.6326
N3_3 N 0.7441(4) 0.3891(2) 0.5287(2)
O6_3 O 0.9561(4) 0.48466(17) 0.52133(15)
C2_3 C 0.9548(4) 0.5450(3) 0.52598(19)
C3_3 C 0.9951(5) 0.2886(3) 0.36980(18)
C4_3 C 0.9229(5) 0.5765(3) 0.5804(2)
C5_3 C 0.3146(5) 0.3462(3) 0.4917(2)
H2_3 H 0.3516 0.3212 0.4647
O7_3 O 0.9987(5) 0.3931(2) 0.40793(18)
O8_3 O 0.9141(5) 0.2785(2) 0.59187(15)
C6_3 C 0.3771(5) 0.3878(3) 0.5266(2)
O9_3 O 0.9332(4) 0.3143(2) 0.46225(14)
C7_3 C 0.6852(5) 0.3404(3) 0.5060(3)
H3_3 H 0.7256 0.3054 0.4916
C8_3 C 0.5659(6) 0.3395(3) 0.5026(3)
H4_3 H 0.5286 0.3049 0.4856
C9_3 C 0.1990(5) 0.3427(3) 0.4979(2)
H5_3 H 0.1597 0.3139 0.4748
O10_3 O 0.8179(5) 0.1662(2) 0.83666(16)
C10_3 C 0.8779(6) 0.5704(3) 0.6792(2)
H6_3 H 0.8693 0.5463 0.7122
C11_3 C 0.9065(6) 0.6430(3) 0.5817(2)
H7_3 H 0.9161 0.6670 0.5487
H8_3 H 0.9874 0.0801 0.2735
C14_3 C 0.3152(6) 0.4251(3) 0.5650(3)
H9_3 H 0.3526 0.4544 0.5883
C15_3 C 0.5652(5) 0.4422(3) 0.5471(3)
H10_3 H 0.5269 0.4781 0.5613
C19_3 C 0.9735(5) 0.3364(3) 0.4165(2)
O12_3 O 0.8257(4) 0.6612(3) 0.73172(16)
C20_3 C 0.8924(6) 0.2722(3) 0.6919(2)
C22_3 C 0.1975(5) 0.4181(3) 0.5681(3)
H13_3 H 0.1578 0.4425 0.5947
C23_3 C 0.5036(5) 0.3902(3) 0.5248(2)
C25_3 C 0.9080(6) 0.5409(3) 0.6298(2)
H14_3 H 0.9188 0.4964 0.6290
C27_3 C 0.6996(6) 0.2433(3) 0.8903(2)
O13_3 O 0.5897(5) 0.8128(2) 0.55948(16)
H16_3 H 0.5603 0.8446 0.5448
C30_3 C 0.6829(5) 0.4401(3) 0.5478(3)
H19_3 H 0.7224 0.4754 0.5622
O14_3 O 0.6336(5) 0.7162(3) 0.6867(2)
C31_3 C 0.8867(6) 0.3029(3) 0.7437(2)
H20_3 H 0.8973 0.3473 0.7450
C32_3 C 0.9568(6) 0.2258(3) 0.3755(2)
H21_3 H 0.9166 0.2138 0.4078
C33_3 C 0.8463(6) 0.2038(3) 0.7912(2)
O15_3 O 0.6959(6) 0.8136(3) 0.6969(3)
C34_3 C 0.9774(7) 0.1809(3) 0.3339(2)
H22_3 H 0.9521 0.1386 0.3381
C35_3 C 0.7985(6) 0.1963(4) 0.8906(2)
H23_3 H 0.8682 0.2189 0.9024
C36_3 C 0.9155(5) 0.3082(3) 0.6385(2)
C37_3 C 0.8512(7) 0.1721(3) 0.7401(2)
H24_3 H 0.8389 0.1278 0.7384
C39_3 C 0.8661(6) 0.2707(3) 0.7934(2)
H26_3 H 0.8652 0.2927 0.8277
C40_3 C 0.8746(7) 0.2065(3) 0.6911(2)
H27_3 H 0.8784 0.1846 0.6567
O16_3 O 0.7010(6) 0.2892(3) 0.9249(2)
C43_3 C 0.8598(6) 0.6377(3) 0.6799(2)
C44_3 C 0.8108(6) 0.7310(4) 0.7366(3)
H30_3 H 0.8796 0.7534 0.7233
C46_3 C 0.7074(7) 0.7543(4) 0.7044(3)
C47_3 C 0.7746(7) 0.1422(4) 0.9310(3)
H32_3 H 0.8377 0.1126 0.9310
H33_3 H 0.7063 0.1200 0.9196
H34_3 H 0.7644 0.1594 0.9684
C49_3 C 0.7956(7) 0.7413(5) 0.8002(3)
H36_3 H 0.8625 0.7263 0.8198
H37_3 H 0.7299 0.7176 0.8131
H38_3 H 0.7847 0.7864 0.8078
O18_2 O 0.4449(4) 0.84048(18) 0.73943(14)
H42_3 H 0.571976 0.773921 0.536508
N1_2 N 0.3625(4) 0.6224(2) 0.03451(18)
C6_4 C 0.1229(5) 0.6122(3) 0.0266(2)
C14_4 C 0.1848(6) 0.5749(3) 0.0650(3)
H9_4 H 0.1474 0.5456 0.0883
C22_4 C 0.3025(5) 0.5819(3) 0.0681(3)
H13_4 H 0.3422 0.5575 0.0947
Cd6_2 Cd 0.56049(3) 0.625312(17) 0.040139(12)
O2_4 O 0.5657(4) 0.6316(2) 0.13994(15)
C1_4 C 0.6241(6) 0.3260(3) 0.1317(2)
H1_4 H 0.6336 0.2814 0.1326
N3_4 N 0.7559(4) 0.6109(2) 0.0287(2)
O6_4 O 0.5439(4) 0.51534(17) 0.02133(15)
C2_4 C 0.5452(4) 0.4550(3) 0.02598(19)
C4_4 C 0.5771(5) 0.4235(3) 0.0804(2)
O8_4 O 0.5859(5) 0.7215(2) 0.09187(15)
C7_4 C 0.8148(5) 0.6596(3) 0.0060(3)
C8_4 C 0.9341(6) 0.6605(3) 0.0026(3)
O10_4 O 0.6821(5) 0.8338(2) 0.33666(16)
C10_4 C 0.6221(6) 0.4296(3) 0.1792(2)
H6_4 H 0.6307 0.4537 0.2122
C11_4 C 0.5935(6) 0.3570(3) 0.0817(2)
H7_4 H 0.5839 0.3330 0.0487
C15_4 C 0.9348(5) 0.5578(3) 0.0471(3)
H10_4 H 0.9731 0.5219 0.0613
O12_4 O 0.6743(4) 0.3388(3) 0.23172(16)
C20_4 C 0.6076(6) 0.7278(3) 0.1919(2)
C23_4 C 0.9964(5) 0.6098(3) 0.0248(2)
C25_4 C 0.5920(6) 0.4591(3) 0.1298(2)
H14_4 H 0.5812 0.5036 0.1290
C27_4 C 0.8004(6) 0.7567(3) 0.3903(2)
O13_4 O 0.9103(5) 0.1872(2) 0.05948(16)
H16_4 H 0.9397 0.1554 0.0448
C30_4 C 0.8171(5) 0.5599(3) 0.0478(3)
H19_4 H 0.7776 0.5246 0.0622
O14_4 O 0.8664(5) 0.2838(3) 0.1867(2)
C31_4 C 0.6133(6) 0.6971(3) 0.2437(2)
H20_4 H 0.6027 0.6527 0.2450
C33_4 C 0.6537(6) 0.7962(3) 0.2912(2)
O15_4 O 0.8041(6) 0.1864(3) 0.1969(3)
C35_4 C 0.7015(6) 0.8037(4) 0.3906(2)
H23_4 H 0.6318 0.7811 0.4024
C36_4 C 0.5845(5) 0.6918(3) 0.1385(2)
C37_4 C 0.6488(7) 0.8279(3) 0.2401(2)
H24_4 H 0.6611 0.8722 0.2384
C39_4 C 0.6339(6) 0.7293(3) 0.2934(2)
H26_4 H 0.6348 0.7073 0.3277
C40_4 C 0.6254(7) 0.7935(3) 0.1911(2)
H27_4 H 0.6216 0.8154 0.1567
O16_4 O 0.7990(6) 0.7108(3) 0.4249(2)
C43_4 C 0.6402(6) 0.3623(3) 0.1799(2)
C44_4 C 0.6892(6) 0.2690(4) 0.2366(3)
H30_4 H 0.6204 0.2466 0.2233
C46_4 C 0.7926(7) 0.2457(4) 0.2044(3)
C47_4 C 0.7254(7) 0.8578(4) 0.4310(3)
H32_4 H 0.6623 0.8874 0.4310
H33_4 H 0.7937 0.8800 0.4196
H34_4 H 0.7356 0.8406 0.4684
C49_4 C 0.7044(7) 0.2587(5) 0.3002(3)
H36_4 H 0.6375 0.2737 0.3198
H37_4 H 0.7701 0.2824 0.3131
H38_4 H 0.7153 0.2136 0.3078
H42_4 H 0.928024 0.226079 0.0365077
O1_4 O 0.5172(4) 0.42097(18) 0.98375(14)
N2_4 N 0.3151(4) 0.4988(3) 0.90844(19)
C3_4 C 0.5049(5) 0.7114(3) 0.86980(18)
O7_4 O 0.5013(5) 0.6069(2) 0.90793(18)
O9_4 O 0.5668(4) 0.6857(2) 0.96225(14)
H3_4 H 0.7744 0.6946 0.9916
H4_4 H 0.9714 0.6951 0.9856
C12_4 C 0.4643(5) 0.8009(3) 0.78588(18)
C13_4 C 0.4487(7) 0.9097(3) 0.7482(2)
H8_4 H 0.5126 0.9199 0.7735
C18_4 C 0.4708(5) 0.9405(3) 0.6910(2)
C19_4 C 0.5265(5) 0.6636(3) 0.9165(2)
C24_4 C 0.0748(5) 0.4960(3) 0.9031(2)
C26_4 C 0.2520(6) 0.4712(4) 0.9489(3)
H15_4 H 0.2896 0.4526 0.9795
C28_4 C 0.4260(7) 0.7377(3) 0.7796(2)
H17_4 H 0.3864 0.7255 0.7472
C29_4 C 0.1414(6) 0.5269(4) 0.8620(3)
H18_4 H 0.1066 0.5481 0.8319
C32_4 C 0.5432(6) 0.7742(3) 0.8755(2)
H21_4 H 0.5834 0.7862 0.9078
C34_4 C 0.5226(7) 0.8191(3) 0.8339(2)
H22_4 H 0.5479 0.8614 0.8381
C38_4 C 0.4471(6) 0.6935(3) 0.8216(2)
H25_4 H 0.4222 0.6512 0.8175
C42_4 C 0.2587(6) 0.5258(5) 0.8665(3)
H29_4 H 0.3010 0.5454 0.8379
C48_4 C 0.1338(6) 0.4686(4) 0.9476(3)
H35_4 H 0.0940 0.4485 0.9768
C50_4 C 0.3380(10) 0.9326(5) 0.7754(4)
H39_4 H 0.3285 0.9118 0.8114
H40_4 H 0.2747 0.9219 0.7513
H41_4 H 0.3410 0.9785 0.7807
N6_2 N 0.7099(4) 0.4984(3) 0.90587(19)
C16_3 C 0.7686(6) 0.5476(4) 0.8847(3)
H11_3 H 0.7285 0.5836 0.8721
C17_4 C 0.9491(5) 0.4963(3) 0.9011(2)
C21_4 C 0.7699(6) 0.4462(3) 0.9238(3)
H12_4 H 0.7302 0.4108 0.9379
C41_4 C 0.8861(5) 0.4441(3) 0.9219(3)
H28_4 H 0.9242 0.4074 0.9345
C45_3 C 0.8860(6) 0.5479(4) 0.8805(3)
H31_3 H 0.9231 0.5828 0.8638
C16_4 C 0.2314(6) 0.0476(4) 0.6153(3)
H11_4 H 0.2715 0.0836 0.6279
C45_4 C 0.1140(6) 0.0479(4) 0.6195(3)
H31_4 H 0.0769 0.0828 0.6362
C5_4 C 0.1854(5) 0.6538(3) 0.9917(2)
H2_4 H 0.1484 0.6788 0.9647
C9_4 C 0.3010(5) 0.6573(3) 0.9979(2)
H5_4 H 0.3403 0.6861 0.9748
loop_
_geom_bond_atom_site_label_1
_geom_bond_atom_site_label_2
_geom_bond_site_symmetry_1
_geom_bond_site_symmetry_2
Cd1 O1 1_555 1_555
O20 Cd1 1_555 1_555
N6 Cd1 1_555 1_555
Cd3 O13 1_555 1_555
C1 H1 1_555 1_555
C4 C2 1_555 1_555
C10 H6 1_555 1_555
C11 C1 1_555 1_555
H7 C11 1_555 1_555
O12 C43 1_555 1_555
C25 C4 1_555 1_555
O13 H16 1_555 1_555
O14 Cd3 1_555 1_555
O15 Cd3 1_555 1_555
C43 C1 1_555 1_555
C44 O12 1_555 1_555
H30 C44 1_555 1_555
C46 O14 1_555 1_555
C49 C44 1_555 1_555
H36 C49 1_555 1_555
H37 C49 1_555 1_555
H38 C49 1_555 1_555
O18 Cd3 1_555 1_555
O19 Cd3 1_555 1_555
O21 Cd3 1_555 1_555
C4 C11 1_555 1_555
C10 C25 1_555 1_555
C10 C43 1_555 1_555
O15 C46 1_555 1_555
C44 C46 1_555 1_555
O13 H42 1_555 1_555
C3 C19 1_555 1_555
C5 H2 1_555 1_555
C9 C5 1_555 1_555
H5 C9 1_555 1_555
C19 O7 1_555 1_555
C32 C3 1_555 1_555
H21 C32 1_555 1_555
H22 C34 1_555 1_555
O9 C19 1_555 1_555
C32 C34 1_555 1_555
Cd6 O2 1_555 1_555
O2 C36 1_555 1_555
N3 Cd6 1_555 1_555
O8 Cd6 1_555 1_555
C7 N3 1_555 1_555
C8 C7 1_555 1_555
O10 C33 1_555 1_555
C14 C6 1_555 1_555
H9 C14 1_555 1_555
O11 C27 1_555 1_555
C15 H10 1_555 1_555
C20 C31 1_555 1_555
C22 N1 1_555 1_555
H13 C22 1_555 1_555
C23 C6 1_555 1_555
C27 C35 1_555 1_555
C30 N3 1_555 1_555
H19 C30 1_555 1_555
C31 H20 1_555 1_555
C33 C37 1_555 1_555
C35 O10 1_555 1_555
H23 C35 1_555 1_555
C36 O8 1_555 1_555
C37 H24 1_555 1_555
C39 C31 1_555 1_555
H26 C39 1_555 1_555
C40 C20 1_555 1_555
H27 C40 1_555 1_555
O16 C27 1_555 1_555
C47 C35 1_555 1_555
H32 C47 1_555 1_555
H33 C47 1_555 1_555
H34 C47 1_555 1_555
Cd8 O11 1_555 1_555
Cd6 O6 1_555 1_555
C8 C23 1_555 1_555
C14 C22 1_555 1_555
C15 C23 1_555 1_555
C15 C30 1_555 1_555
C20 C36 1_555 1_555
C33 C39 1_555 1_555
C37 C40 1_555 1_555
C17 C24 1_555 1_555
C21 N6 1_555 1_555
H12 C21 1_555 1_555
C26 N2 1_555 1_555
H15 C26 1_555 1_555
C41 C17 1_555 1_555
H28 C41 1_555 1_555
C48 C24 1_555 1_555
H35 C48 1_555 1_555
C21 C41 1_555 1_555
C26 C48 1_555 1_555
O3 C18 1_555 1_555
O4 C12 1_555 1_555
O5 C18 1_555 1_555
C12 C28 1_555 1_555
C13 O4 1_555 1_555
C16 H11 1_555 1_555
C18 C13 1_555 1_555
C28 H17 1_555 1_555
C29 H18 1_555 1_555
H25 C38 1_555 1_555
H29 C42 1_555 1_555
C45 C16 1_555 1_555
H31 C45 1_555 1_555
C50 C13 1_555 1_555
H39 C50 1_555 1_555
H40 C50 1_555 1_555
H41 C50 1_555 1_555
Cd5 O3 1_555 1_555
O5 Cd5 1_555 1_555
C28 C38 1_555 1_555
C29 C42 1_555 1_555
C21_2 N4 1_555 1_555
H12_2 C21_2 1_555 1_555
C41_2 C17_2 1_555 1_555
H28_2 C41_2 1_555 1_555
Cd4 N4 1_555 1_555
C21_2 C41_2 1_555 1_555
Cd2 O2_2 1_555 1_555
O2_2 C36_2 1_555 1_555
O3_2 C18_2 1_555 1_555
N3_2 Cd2 1_555 1_555
O18 C12_2 1_555 1_555
O19 C18_2 1_555 1_555
C3_2 C19_2 1_555 1_555
O8_2 Cd2 1_555 1_555
O9_2 Cd2 1_555 1_555
C7_2 N3_2 1_555 1_555
H3_2 C7_2 1_555 1_555
C8_2 C7_2 1_555 1_555
H4_2 C8_2 1_555 1_555
O10_2 C33_2 1_555 1_555
C12_2 C28_2 1_555 1_555
C13_2 O18 1_555 1_555
H8_2 C13_2 1_555 1_555
O11_2 C27_2 1_555 1_555
C15_2 H10_2 1_555 1_555
C18_2 C13_2 1_555 1_555
C19_2 O7_2 1_555 1_555
C20_2 C31_2 1_555 1_555
C27_2 C35_2 1_555 1_555
C28_2 H17_2 1_555 1_555
C29_2 H18_2 1_555 1_555
C30_2 N3_2 1_555 1_555
H19_2 C30_2 1_555 1_555
C31_2 H20_2 1_555 1_555
C32_2 C3_2 1_555 1_555
H21_2 C32_2 1_555 1_555
C33_2 C37_2 1_555 1_555
C34_2 C12_2 1_555 1_555
H22_2 C34_2 1_555 1_555
C35_2 O10_2 1_555 1_555
H23_2 C35_2 1_555 1_555
C36_2 O8_2 1_555 1_555
C37_2 H24_2 1_555 1_555
C38_2 C3_2 1_555 1_555
H25_2 C38_2 1_555 1_555
C39_2 C31_2 1_555 1_555
H26_2 C39_2 1_555 1_555
C40_2 C20_2 1_555 1_555
H27_2 C40_2 1_555 1_555
O16_2 C27_2 1_555 1_555
H29_2 C42_2 1_555 1_555
C47_2 C35_2 1_555 1_555
H32_2 C47_2 1_555 1_555
H33_2 C47_2 1_555 1_555
H34_2 C47_2 1_555 1_555
C50_2 C13_2 1_555 1_555
H39_2 C50_2 1_555 1_555
H40_2 C50_2 1_555 1_555
H41_2 C50_2 1_555 1_555
Cd5_2 O3_2 1_555 1_555
N5 Cd2 1_555 1_555
Cd2 O6_2 1_555 1_555
O19 Cd5_2 1_555 1_555
O9_2 C19_2 1_555 1_555
C8_2 C23_2 1_555 1_555
C15_2 C23_2 1_555 1_555
C15_2 C30_2 1_555 1_555
C20_2 C36_2 1_555 1_555
C28_2 C38_2 1_555 1_555
C29_2 C42_2 1_555 1_555
C32_2 C34_2 1_555 1_555
C33_2 C39_2 1_555 1_555
C37_2 C40_2 1_555 1_555
Cd4 O1_2 1_555 1_555
Cd7 O13_2 1_555 1_555
O1_2 C2_2 1_555 1_555
N2_2 Cd4 1_555 1_555
C1_2 H1_2 1_555 1_555
C4_2 C2_2 1_555 1_555
C10_2 H6_2 1_555 1_555
C11_2 C1_2 1_555 1_555
H7_2 C11_2 1_555 1_555
O12_2 C43_2 1_555 1_555
C25_2 C4_2 1_555 1_555
C26_2 N2_2 1_555 1_555
H15_2 C26_2 1_555 1_555
O13_2 H16_2 1_555 1_555
O14_2 Cd7 1_555 1_555
O15_2 Cd7 1_555 1_555
C43_2 C1_2 1_555 1_555
C44_2 O12_2 1_555 1_555
H30_2 C44_2 1_555 1_555
C46_2 O14_2 1_555 1_555
C48_2 C24_2 1_555 1_555
H35_2 C48_2 1_555 1_555
C49_2 C44_2 1_555 1_555
H36_2 C49_2 1_555 1_555
H37_2 C49_2 1_555 1_555
H38_2 C49_2 1_555 1_555
O20_2 Cd4 1_555 1_555
C4_2 C11_2 1_555 1_555
C10_2 C25_2 1_555 1_555
C10_2 C43_2 1_555 1_555
C26_2 C48_2 1_555 1_555
O15_2 C46_2 1_555 1_555
C44_2 C46_2 1_555 1_555
O13_2 H42_2 1_555 1_555
N5 C9_2 1_555 1_555
C5_2 H2_2 1_555 1_555
C6_2 C5_2 1_555 1_555
C9_2 C5_2 1_555 1_555
H5_2 C9_2 1_555 1_555
C14_2 C6_2 1_555 1_555
H9_2 C14_2 1_555 1_555
C22_2 N5 1_555 1_555
H13_2 C22_2 1_555 1_555
C14_2 C22_2 1_555 1_555
O4_2 C12_3 1_555 1_555
O20 C18_3 1_555 1_555
N4_2 C16_2 1_555 1_555
C12_3 C28_3 1_555 1_555
C13_3 O4_2 1_555 1_555
C16_2 H11_2 1_555 1_555
C17_3 C24_3 1_555 1_555
C18_3 C13_3 1_555 1_555
C21_3 N4_2 1_555 1_555
H12_3 C21_3 1_555 1_555
C24_3 C29_3 1_555 1_555
C26_3 N2_3 1_555 1_555
H15_3 C26_3 1_555 1_555
C28_3 H17_3 1_555 1_555
C29_3 H18_3 1_555 1_555
H25_3 C38_3 1_555 1_555
C41_3 C17_3 1_555 1_555
H28_3 C41_3 1_555 1_555
C42_3 N2_3 1_555 1_555
H29_3 C42_3 1_555 1_555
C45_2 C16_2 1_555 1_555
H31_2 C45_2 1_555 1_555
C48_3 C24_3 1_555 1_555
H35_3 C48_3 1_555 1_555
C50_3 C13_3 1_555 1_555
H39_3 C50_3 1_555 1_555
H40_3 C50_3 1_555 1_555
H41_3 C50_3 1_555 1_555
Cd5 N4_2 1_555 1_555
C17_3 C45_2 1_555 1_555
C21_3 C41_3 1_555 1_555
C26_3 C48_3 1_555 1_555
C28_3 C38_3 1_555 1_555
C29_3 C42_3 1_555 1_555
Cd5 O1_3 1_555 1_555
Cd2_2 O2_3 1_555 1_555
Cd8 O13_3 1_555 1_555
N5_2 C9_3 1_555 1_555
O1_3 C2_3 1_555 1_555
O2_3 C36_3 1_555 1_555
C1_3 H1_3 1_555 1_555
N3_3 Cd2_2 1_555 1_555
O6_3 Cd5 1_555 1_555
C2_3 O6_3 1_555 1_555
C3_3 C19_3 1_555 1_555
C4_3 C2_3 1_555 1_555
C5_3 H2_3 1_555 1_555
O7_3 Cd5 1_555 1_555
O8_3 Cd2_2 1_555 1_555
C6_3 C5_3 1_555 1_555
O9_3 Cd2_2 1_555 1_555
C7_3 N3_3 1_555 1_555
H3_3 C7_3 1_555 1_555
C8_3 C7_3 1_555 1_555
H4_3 C8_3 1_555 1_555
C9_3 C5_3 1_555 1_555
H5_3 C9_3 1_555 1_555
O10_3 C33_3 1_555 1_555
C10_3 H6_3 1_555 1_555
C11_3 C1_3 1_555 1_555
H7_3 C11_3 1_555 1_555
C14_3 C6_3 1_555 1_555
H9_3 C14_3 1_555 1_555
O21 C27_3 1_555 1_555
C15_3 H10_3 1_555 1_555
C19_3 O7_3 1_555 1_555
O12_3 C43_3 1_555 1_555
C20_3 C31_3 1_555 1_555
C22_3 N5_2 1_555 1_555
H13_3 C22_3 1_555 1_555
C23_3 C6_3 1_555 1_555
C25_3 C4_3 1_555 1_555
H14_3 C25_3 1_555 1_555
C27_3 C35_3 1_555 1_555
O13_3 H16_3 1_555 1_555
C30_3 N3_3 1_555 1_555
H19_3 C30_3 1_555 1_555
O14_3 Cd8 1_555 1_555
C31_3 H20_3 1_555 1_555
C32_3 C3_3 1_555 1_555
H21_3 C32_3 1_555 1_555
C33_3 C37_3 1_555 1_555
O15_3 Cd8 1_555 1_555
H22_3 C34_3 1_555 1_555
C35_3 O10_3 1_555 1_555
H23_3 C35_3 1_555 1_555
C36_3 O8_3 1_555 1_555
C37_3 H24_3 1_555 1_555
C39_3 C31_3 1_555 1_555
H26_3 C39_3 1_555 1_555
C40_3 C20_3 1_555 1_555
H27_3 C40_3 1_555 1_555
O16_3 C27_3 1_555 1_555
C43_3 C1_3 1_555 1_555
C44_3 O12_3 1_555 1_555
H30_3 C44_3 1_555 1_555
C46_3 O14_3 1_555 1_555
C47_3 C35_3 1_555 1_555
H32_3 C47_3 1_555 1_555
H33_3 C47_3 1_555 1_555
H34_3 C47_3 1_555 1_555
C49_3 C44_3 1_555 1_555
H36_3 C49_3 1_555 1_555
H37_3 C49_3 1_555 1_555
H38_3 C49_3 1_555 1_555
O18_2 Cd8 1_555 1_555
O20_2 Cd8 1_555 1_555
Cd2_2 O6_3 1_555 1_555
C4_3 C11_3 1_555 1_555
O9_3 C19_3 1_555 1_555
C8_3 C23_3 1_555 1_555
C10_3 C25_3 1_555 1_555
C10_3 C43_3 1_555 1_555
C14_3 C22_3 1_555 1_555
C15_3 C23_3 1_555 1_555
C15_3 C30_3 1_555 1_555
C20_3 C36_3 1_555 1_555
C32_3 C34_3 1_555 1_555
C33_3 C39_3 1_555 1_555
O15_3 C46_3 1_555 1_555
C37_3 C40_3 1_555 1_555
C44_3 C46_3 1_555 1_555
O13_3 H42_3 1_555 1_555
C14_4 C6_4 1_555 1_555
H9_4 C14_4 1_555 1_555
C22_4 N1_2 1_555 1_555
H13_4 C22_4 1_555 1_555
Cd6_2 N1_2 1_555 1_555
C14_4 C22_4 1_555 1_555
Cd6_2 O2_4 1_555 1_555
Cd8_2 O13_4 1_555 1_555
O2_4 C36_4 1_555 1_555
C1_4 H1_4 1_555 1_555
N3_4 Cd6_2 1_555 1_555
C2_4 O6_4 1_555 1_555
C4_4 C2_4 1_555 1_555
O8_4 Cd6_2 1_555 1_555
C7_4 N3_4 1_555 1_555
C8_4 C7_4 1_555 1_555
O10_4 C33_4 1_555 1_555
C10_4 H6_4 1_555 1_555
C11_4 C1_4 1_555 1_555
H7_4 C11_4 1_555 1_555
O21_2 C27_4 1_555 1_555
C15_4 H10_4 1_555 1_555
O12_4 C43_4 1_555 1_555
C20_4 C31_4 1_555 1_555
C25_4 C4_4 1_555 1_555
H14_4 C25_4 1_555 1_555
C27_4 C35_4 1_555 1_555
O13_4 H16_4 1_555 1_555
C30_4 N3_4 1_555 1_555
H19_4 C30_4 1_555 1_555
O14_4 Cd8_2 1_555 1_555
C31_4 H20_4 1_555 1_555
C33_4 C37_4 1_555 1_555
O15_4 Cd8_2 1_555 1_555
C35_4 O10_4 1_555 1_555
H23_4 C35_4 1_555 1_555
C36_4 O8_4 1_555 1_555
C37_4 H24_4 1_555 1_555
C39_4 C31_4 1_555 1_555
H26_4 C39_4 1_555 1_555
C40_4 C20_4 1_555 1_555
H27_4 C40_4 1_555 1_555
O16_4 C27_4 1_555 1_555
C43_4 C1_4 1_555 1_555
C44_4 O12_4 1_555 1_555
H30_4 C44_4 1_555 1_555
C46_4 O14_4 1_555 1_555
C47_4 C35_4 1_555 1_555
H32_4 C47_4 1_555 1_555
H33_4 C47_4 1_555 1_555
H34_4 C47_4 1_555 1_555
C49_4 C44_4 1_555 1_555
H36_4 C49_4 1_555 1_555
H37_4 C49_4 1_555 1_555
H38_4 C49_4 1_555 1_555
Cd6_2 O6_4 1_555 1_555
C4_4 C11_4 1_555 1_555
C8_4 C23_4 1_555 1_555
C10_4 C25_4 1_555 1_555
C10_4 C43_4 1_555 1_555
C15_4 C23_4 1_555 1_555
C15_4 C30_4 1_555 1_555
C20_4 C36_4 1_555 1_555
C33_4 C39_4 1_555 1_555
O15_4 C46_4 1_555 1_555
C37_4 C40_4 1_555 1_555
C44_4 C46_4 1_555 1_555
O13_4 H42_4 1_555 1_555
Cd5_2 O1_4 1_555 1_555
N2_4 Cd5_2 1_555 1_555
O18_2 C12_4 1_555 1_555
O20_2 C18_4 1_555 1_555
C3_4 C19_4 1_555 1_555
O7_4 Cd5_2 1_555 1_555
C12_4 C28_4 1_555 1_555
C13_4 O18_2 1_555 1_555
H8_4 C13_4 1_555 1_555
C18_4 C13_4 1_555 1_555
C19_4 O7_4 1_555 1_555
C24_4 C29_4 1_555 1_555
C26_4 N2_4 1_555 1_555
H15_4 C26_4 1_555 1_555
C28_4 H17_4 1_555 1_555
C29_4 H18_4 1_555 1_555
C32_4 C3_4 1_555 1_555
H21_4 C32_4 1_555 1_555
C34_4 C12_4 1_555 1_555
H22_4 C34_4 1_555 1_555
C38_4 C3_4 1_555 1_555
H25_4 C38_4 1_555 1_555
C42_4 N2_4 1_555 1_555
H29_4 C42_4 1_555 1_555
C48_4 C24_4 1_555 1_555
H35_4 C48_4 1_555 1_555
C50_4 C13_4 1_555 1_555
H39_4 C50_4 1_555 1_555
H40_4 C50_4 1_555 1_555
H41_4 C50_4 1_555 1_555
N6_2 Cd5_2 1_555 1_555
O9_4 C19_4 1_555 1_555
C26_4 C48_4 1_555 1_555
C28_4 C38_4 1_555 1_555
C29_4 C42_4 1_555 1_555
C32_4 C34_4 1_555 1_555
N6_2 C16_3 1_555 1_555
C16_3 H11_3 1_555 1_555
C21_4 N6_2 1_555 1_555
H12_4 C21_4 1_555 1_555
C41_4 C17_4 1_555 1_555
H28_4 C41_4 1_555 1_555
C45_3 C16_3 1_555 1_555
H31_3 C45_3 1_555 1_555
C17_4 C45_3 1_555 1_555
C21_4 C41_4 1_555 1_555
C16_4 H11_4 1_555 1_555
C45_4 C16_4 1_555 1_555
H31_4 C45_4 1_555 1_555
C5_4 H2_4 1_555 1_555
C9_4 C5_4 1_555 1_555
H5_4 C9_4 1_555 1_555

#END
