
###############################################################################
#
# This file contains modified crystal structure data generated from the
# MOF subset of the Cambridge Structural Database (CSD) v543 
# hosted by the Cambridge Crystallographic Data Centre (CCDC).
#
# This work is licensed under the Creative Commons
# Attribution-NonCommercial-ShareAlike 4.0 International License.
# To view a copy of this license, visit
# http://creativecommons.org/licenses/by-nc-sa/4.0/
# or send a letter to
# Creative Commons, PO Box 1866, Mountain View, CA 94042, USA.
#
# CIF created using the CSD Python API on 29 September 2022
# The structure has been converted into the P1 space group
# The structure has a 3D framework
# The original CSD entry TATSIS is in the monoclinic crystal system
# The original CSD entry TATSIS is in a Sohncke space group
# The framework has been calculated to contain at least 10.0% void space
# The void calculation uses a probe of radius 1.32A, grid spacing 0.4
#
###############################################################################

data_TATSIS
_chemical_formula_moiety         '(C48 H32 Co4 N8 O14)n'
_symmetry_cell_setting           triclinic
_symmetry_space_group_name_H-M   'P 1'
_symmetry_Int_Tables_number      1
_space_group_name_Hall           'P 1'
loop_
_symmetry_equiv_pos_site_id
_symmetry_equiv_pos_as_xyz
1 x,y,z
_cell_length_a                   9.819(2)
_cell_length_b                   12.6499(13)
_cell_length_c                   11.0731(15)
_cell_angle_alpha                90
_cell_angle_beta                 99.852(17)
_cell_angle_gamma                90
_cell_volume                     1355.1
loop_
_atom_site_label
_atom_site_type_symbol
_atom_site_fract_x
_atom_site_fract_y
_atom_site_fract_z
C1 C 0.3479(13) 0.3352(10) 0.1022(11)
C2 C 0.3479(11) 0.2459(9) 0.0108(10)
C4 C 0.1469(10) 0.5530(7) 0.0143(7)
C7 C 0.5926(11) 0.0331(8) 0.6018(9)
C9 C 0.6025(12) 0.1250(10) 0.5131(11)
C11 C 0.4815(8) 0.1798(7) 0.4667(8)
H5 H 0.3971 0.1606 0.4874
C16 C 0.7228(9) 0.2363(8) 0.3983(9)
H10 H 0.8053 0.2542 0.3728
C17 C 0.4917(9) 0.2637(7) 0.3887(8)
H11 H 0.4121 0.3018 0.3582
C19 C 0.1359(9) 0.7510(7) 0.0987(8)
H13 H 0.1284 0.8181 0.1312
C20 C 0.1337(9) 0.6661(7) 0.1723(8)
H14 H 0.1282 0.6768 0.2544
C21 C 0.7257(9) 0.1546(7) 0.4768(8)
H15 H 0.8077 0.1191 0.5058
Co1 Co 0.1272(2) 0.43368(14) 0.24923(17)
Co2 Co 0.6236(2) 0.43564(13) 0.25188(17)
N2 N 0.6121(9) 0.2930(7) 0.3546(8)
N3 N 0.1393(9) 0.5650(7) 0.1303(8)
O1 O 0.4448(8) 0.3945(6) 0.1248(7)
O3 O 0.0152(8) 0.5256(6) 0.3544(7)
O4 O 0.4818(9) 0.0192(6) 0.6353(7)
O8 O 0.2323(8) 0.3355(6) 0.1484(7)
N5 N 0.1154(9) 0.2980(7) 0.3652(8)
N6 N 0.6418(9) 0.5749(7) 0.1457(8)
O9 O 0.2990(8) 0.4792(6) 0.3709(7)
O10 O 0.5182(9) 0.5192(6) 0.3647(7)
O11 O 0.8062(8) 0.4677(6) 0.3743(7)
O12 O 0.7340(9) 0.3404(6) 0.1472(8)
H2 H 0.1485 0.4845 0.9841
C5 C 0.4677(9) 0.2230(7) 0.9700(9)
H3 H 0.5456 0.2650 0.9922
C13 C 0.4716(10) 0.1336(7) 0.8929(9)
H7 H 0.5546 0.1152 0.8686
C14 C 0.1526(9) 0.6360(8) 0.9333(8)
H8 H 0.1589 0.6230 0.8518
C18 C 0.2314(9) 0.1843(7) 0.9685(8)
H12 H 0.1472 0.1999 0.9922
C22 C 0.1534(13) 0.8324(10) 0.8910(10)
C23 C 0.2420(9) 0.1006(7) 0.8917(8)
H16 H 0.1635 0.0602 0.8647
C24 C 0.1487(12) 0.7417(10) 0.9774(10)
N4 N 0.3582(9) 0.0749(7) 0.8543(8)
O6 O 0.2660(9) 0.8404(6) 0.8528(8)
O7 O 0.0525(9) 0.8911(6) 0.8737(8)
Co9 Co 0.3764(2) 0.93564(13) 0.74812(17)
O2 O 0.7010(8) 0.9792(6) 0.6291(7)
Co5 Co 0.8728(2) 0.93368(14) 0.75077(17)
C3 C 0.8954(10) 0.6093(7) 0.6003(8)
H1 H 0.8966 0.5414 0.6326
C6 C 0.8928(10) 0.6984(8) 0.6751(8)
H4 H 0.8971 0.6873 0.7587
C8 C 0.9071(10) 0.5335(8) 0.3952(9)
C10 C 0.8961(12) 0.6259(10) 0.4761(12)
C12 C 0.8921(10) 0.7276(7) 0.4352(8)
H6 H 0.8945 0.7412 0.3531
C15 C 0.8846(9) 0.8087(7) 0.5131(8)
H9 H 0.8791 0.8767 0.4808
N1 N 0.8846(9) 0.7980(7) 0.6348(8)
O13 O 0.9475(9) 0.3911(6) 0.1263(8)
C3_2 C 0.1046(10) 0.1093(7) 0.3997(8)
H1_2 H 0.1034 0.0414 0.3674
C6_2 C 0.1072(10) 0.1984(8) 0.3249(8)
H4_2 H 0.1029 0.1873 0.2413
C8_2 C 0.0929(10) 0.0335(8) 0.6048(9)
C10_2 C 0.1039(12) 0.1259(10) 0.5239(12)
C12_2 C 0.1079(10) 0.2276(7) 0.5648(8)
H6_2 H 0.1055 0.2412 0.6469
C15_2 C 0.1154(9) 0.3087(7) 0.4869(8)
H9_2 H 0.1209 0.3767 0.5192
O5 O 0.1938(8) 0.9677(6) 0.6257(7)
C14_2 C 0.8474(9) 0.1360(8) 0.0667(8)
H8_2 H 0.8411 0.1230 0.1482
C22_2 C 0.8466(13) 0.3324(10) 0.1090(10)
C24_2 C 0.8513(12) 0.2417(10) 0.0226(10)
C4_2 C 0.8531(10) 0.0530(7) 0.9857(7)
C19_2 C 0.8641(9) 0.2510(7) 0.9013(8)
H13_2 H 0.8716 0.3181 0.8688
C20_2 C 0.8663(9) 0.1661(7) 0.8277(8)
H14_2 H 0.8718 0.1768 0.7456
N3_2 N 0.8607(9) 0.0650(7) 0.8697(8)
O3_2 O 0.9848(8) 0.0256(6) 0.6456(7)
H2_2 H 0.8515 0.9845 0.0159
C5_2 C 0.5323(9) 0.7230(7) 0.0300(9)
H3_2 H 0.4544 0.7650 0.0078
C13_2 C 0.5284(10) 0.6336(7) 0.1071(9)
H7_2 H 0.4454 0.6152 0.1314
C18_2 C 0.7686(9) 0.6843(7) 0.0315(8)
H12_2 H 0.8528 0.6999 0.0078
C23_2 C 0.7580(9) 0.6006(7) 0.1083(8)
H16_2 H 0.8365 0.5602 0.1353
C1_2 C 0.6521(13) 0.8352(10) 0.8978(11)
C2_2 C 0.6521(11) 0.7459(9) 0.9892(10)
C7_2 C 0.4074(11) 0.5331(8) 0.3982(9)
C9_2 C 0.3975(12) 0.6250(10) 0.4869(11)
C11_2 C 0.5185(8) 0.6798(7) 0.5333(8)
H5_2 H 0.6029 0.6606 0.5126
C16_2 C 0.2772(9) 0.7363(8) 0.6017(9)
H10_2 H 0.1947 0.7542 0.6272
C17_2 C 0.5083(9) 0.7637(7) 0.6113(8)
H11_2 H 0.5879 0.8018 0.6418
C21_2 C 0.2743(9) 0.6546(7) 0.5232(8)
H15_2 H 0.1923 0.6191 0.4942
N2_2 N 0.3879(9) 0.7930(7) 0.6454(8)
O1_2 O 0.5552(8) 0.8945(6) 0.8752(7)
O8_2 O 0.7677(8) 0.8355(6) 0.8516(7)
loop_
_geom_bond_atom_site_label_1
_geom_bond_atom_site_label_2
_geom_bond_site_symmetry_1
_geom_bond_site_symmetry_2
C1 C2 1_555 1_555
C7 C9 1_555 1_555
C9 C11 1_555 1_555
C11 H5 1_555 1_555
C16 H10 1_555 1_555
C17 C11 1_555 1_555
H11 C17 1_555 1_555
C19 H13 1_555 1_555
C20 C19 1_555 1_555
H14 C20 1_555 1_555
C21 C9 1_555 1_555
H15 C21 1_555 1_555
Co1 N3 1_555 1_555
Co2 N2 1_555 1_555
N2 C16 1_555 1_555
N3 C4 1_555 1_555
O1 C1 1_555 1_555
O4 C7 1_555 1_555
O8 C1 1_555 1_555
N5 Co1 1_555 1_555
N6 Co2 1_555 1_555
O9 Co1 1_555 1_555
O10 Co2 1_555 1_555
O11 Co2 1_555 1_555
O12 Co2 1_555 1_555
C16 C21 1_555 1_555
C17 N2 1_555 1_555
C20 N3 1_555 1_555
Co1 O3 1_555 1_555
Co1 O8 1_555 1_555
Co2 O1 1_555 1_555
C5 H3 1_555 1_555
C13 C5 1_555 1_555
H7 C13 1_555 1_555
H8 C14 1_555 1_555
H12 C18 1_555 1_555
C22 C24 1_555 1_555
C23 C18 1_555 1_555
H16 C23 1_555 1_555
C24 C14 1_555 1_555
N4 C13 1_555 1_555
O6 C22 1_555 1_555
O7 C22 1_555 1_555
Co9 O6 1_555 1_555
C23 N4 1_555 1_555
Co5 O2 1_555 1_555
C3 H1 1_555 1_555
C6 C3 1_555 1_555
H4 C6 1_555 1_555
C8 C10 1_555 1_555
C10 C3 1_555 1_555
C12 C10 1_555 1_555
H6 C12 1_555 1_555
C15 C12 1_555 1_555
H9 C15 1_555 1_555
N1 C6 1_555 1_555
O11 C8 1_555 1_555
Co5 N1 1_555 1_555
C15 N1 1_555 1_555
C3_2 H1_2 1_555 1_555
C6_2 C3_2 1_555 1_555
H4_2 C6_2 1_555 1_555
C8_2 C10_2 1_555 1_555
C10_2 C3_2 1_555 1_555
C12_2 C10_2 1_555 1_555
H6_2 C12_2 1_555 1_555
C15_2 C12_2 1_555 1_555
H9_2 C15_2 1_555 1_555
N5 C6_2 1_555 1_555
C15_2 N5 1_555 1_555
Co9 O5 1_555 1_555
H8_2 C14_2 1_555 1_555
C22_2 C24_2 1_555 1_555
C24_2 C14_2 1_555 1_555
O12 C22_2 1_555 1_555
O13 C22_2 1_555 1_555
C19_2 H13_2 1_555 1_555
C20_2 C19_2 1_555 1_555
H14_2 C20_2 1_555 1_555
N3_2 C4_2 1_555 1_555
C20_2 N3_2 1_555 1_555
C5_2 H3_2 1_555 1_555
C13_2 C5_2 1_555 1_555
H7_2 C13_2 1_555 1_555
H12_2 C18_2 1_555 1_555
C23_2 C18_2 1_555 1_555
H16_2 C23_2 1_555 1_555
N6 C13_2 1_555 1_555
C23_2 N6 1_555 1_555
C1_2 C2_2 1_555 1_555
C7_2 C9_2 1_555 1_555
C9_2 C11_2 1_555 1_555
C11_2 H5_2 1_555 1_555
C16_2 H10_2 1_555 1_555
C17_2 C11_2 1_555 1_555
H11_2 C17_2 1_555 1_555
C21_2 C9_2 1_555 1_555
H15_2 C21_2 1_555 1_555
Co9 N2_2 1_555 1_555
N2_2 C16_2 1_555 1_555
O1_2 C1_2 1_555 1_555
O9 C7_2 1_555 1_555
O10 C7_2 1_555 1_555
O8_2 C1_2 1_555 1_555
C16_2 C21_2 1_555 1_555
C17_2 N2_2 1_555 1_555
Co5 O8_2 1_555 1_555
Co9 O1_2 1_555 1_555

#END
