
###############################################################################
#
# This file contains modified crystal structure data generated from the
# MOF subset of the Cambridge Structural Database (CSD) v543 
# hosted by the Cambridge Crystallographic Data Centre (CCDC).
#
# This work is licensed under the Creative Commons
# Attribution-NonCommercial-ShareAlike 4.0 International License.
# To view a copy of this license, visit
# http://creativecommons.org/licenses/by-nc-sa/4.0/
# or send a letter to
# Creative Commons, PO Box 1866, Mountain View, CA 94042, USA.
#
# CIF created using the CSD Python API on 29 September 2022
# The structure has been converted into the P1 space group
# The structure has a 3D framework
# The original CSD entry TATYUL is in the orthorhombic crystal system
# The framework has been calculated to contain at least 10.0% void space
# The void calculation uses a probe of radius 1.32A, grid spacing 0.4
# The framework is charged, counterions have been retained in the structure
#
###############################################################################

data_TATYUL
_chemical_formula_moiety         '(C56 H16 Ca8 K8 O40 4+)n'
_symmetry_cell_setting           triclinic
_symmetry_space_group_name_H-M   'P 1'
_symmetry_Int_Tables_number      1
_space_group_name_Hall           'P 1'
loop_
_symmetry_equiv_pos_site_id
_symmetry_equiv_pos_as_xyz
1 x,y,z
_cell_length_a                   17.3088(16)
_cell_length_b                   17.4277(15)
_cell_length_c                   7.8949(7)
_cell_angle_alpha                90
_cell_angle_beta                 90
_cell_angle_gamma                90
_cell_volume                     2381.52
loop_
_atom_site_label
_atom_site_type_symbol
_atom_site_fract_x
_atom_site_fract_y
_atom_site_fract_z
O13 O 0.0218(2) 0.3897(2) 0.1959(4)
Ca6 Ca 0.08049(5) 0.69618(5) 0.82041(10)
Ca1 Ca 0.91951(5) 0.30382(5) 0.17959(10)
Ca3 Ca 0.58049(5) 0.19618(5) 0.17959(10)
O14 O 0.4782(2) 0.1103(2) 0.1959(4)
O15 O 0.82114(19) 0.21392(18) 0.1846(3)
O16 O 0.67886(19) 0.28608(18) 0.1846(3)
O17 O 0.84481(18) 0.35802(17) 0.3831(4)
O18 O 0.65519(18) 0.14198(17) 0.3831(4)
O21 O 0.9924(2) 0.24490(18) 0.4266(4)
O22 O 0.5076(2) 0.25510(18) 0.4266(4)
Ca2 Ca 0.7500 0.2500 0.93378(13)
O1 O 0.9275(2) 0.6277(2) 0.5477(5)
O2 O 0.9782(2) 0.6103(2) 0.8041(4)
O3 O 0.84327(18) 0.36129(17) 0.9834(4)
O4 O 0.82114(19) 0.28608(18) 0.6846(3)
C1 C 0.9412(3) 0.5857(3) 0.6780(5)
C2 C 0.9102(3) 0.5063(3) 0.6800(5)
C3 C 0.8956(3) 0.4699(3) 0.8356(6)
H1 H 0.9076 0.4947 0.9365
C4 C 0.8630(2) 0.3963(3) 0.8387(5)
C5 C 0.8492(2) 0.3584(2) 0.6822(5)
C6 C 0.8633(2) 0.3947(2) 0.5268(5)
C7 C 0.8943(3) 0.4690(3) 0.5279(6)
H2 H 0.9044 0.4937 0.4259
O6 O 0.9924(2) 0.25510(18) 0.9266(4)
O9 O 0.65673(18) 0.13871(17) 0.9834(4)
O10 O 0.67886(19) 0.21392(18) 0.6846(3)
C10 C 0.6044(3) 0.0301(3) 0.8356(6)
H3 H 0.5924 0.0053 0.9365
C11 C 0.6370(2) 0.1037(3) 0.8387(5)
C12 C 0.6508(2) 0.1416(2) 0.6822(5)
C13 C 0.6367(2) 0.1053(2) 0.5268(5)
C14 C 0.6057(3) 0.0310(3) 0.5279(6)
H4 H 0.5956 0.0063 0.4259
O12 O 0.5076(2) 0.24490(18) 0.9266(4)
Ca8 Ca 0.91951(5) 0.19618(5) 0.67959(10)
Ca9 Ca 0.58049(5) 0.30382(5) 0.67959(10)
Ca10 Ca 0.7500 0.2500 0.43378(13)
O19 O 0.84481(18) 0.14198(17) 0.8831(4)
O20 O 0.65519(18) 0.35802(17) 0.8831(4)
O7 O 0.5725(2) 0.8723(2) 0.5477(5)
O8 O 0.5218(2) 0.8897(2) 0.8041(4)
C8 C 0.5588(3) 0.9143(3) 0.6780(5)
C9 C 0.5898(3) 0.9937(3) 0.6800(5)
Ca7 Ca 0.41951(5) 0.80382(5) 0.82041(10)
O5 O 0.15519(18) 0.85802(17) 0.1169(4)
H2_2 H 0.0956 0.9937 0.0741
O11 O 0.34481(18) 0.64198(17) 0.1169(4)
H4_2 H 0.4044 0.5063 0.0741
Ca4 Ca 0.08049(5) 0.80382(5) 0.32041(10)
Ca5 Ca 0.41951(5) 0.69618(5) 0.32041(10)
Ca10_2 Ca 0.2500 0.7500 0.06622(13)
Ca2_2 Ca 0.2500 0.7500 0.56622(13)
O3_2 O 0.15673(18) 0.86129(17) 0.5166(4)
O4_2 O 0.17886(19) 0.78608(18) 0.8154(3)
C3_2 C 0.1044(3) 0.9699(3) 0.6644(6)
H1_2 H 0.0924 0.9947 0.5635
C4_2 C 0.1370(2) 0.8963(3) 0.6613(5)
C5_2 C 0.1508(2) 0.8584(2) 0.8178(5)
C6_2 C 0.1367(2) 0.8947(2) 0.9732(5)
C7_2 C 0.1057(3) 0.9690(3) 0.9721(6)
O6_2 O 0.0076(2) 0.75510(18) 0.5734(4)
O7_2 O 0.4275(2) 0.3723(2) 0.9523(5)
O8_2 O 0.4782(2) 0.3897(2) 0.6959(4)
O9_2 O 0.34327(18) 0.63871(17) 0.5166(4)
O10_2 O 0.32114(19) 0.71392(18) 0.8154(3)
C8_2 C 0.4412(3) 0.4143(3) 0.8220(5)
C9_2 C 0.4102(3) 0.4937(3) 0.8200(5)
C10_2 C 0.3956(3) 0.5301(3) 0.6644(6)
H3_2 H 0.4076 0.5053 0.5635
C11_2 C 0.3630(2) 0.6037(3) 0.6613(5)
C12_2 C 0.3492(2) 0.6416(2) 0.8178(5)
C13_2 C 0.3633(2) 0.6053(2) 0.9732(5)
C14_2 C 0.3943(3) 0.5310(3) 0.9721(6)
O12_2 O 0.4924(2) 0.74490(18) 0.5734(4)
O14_2 O 0.5218(2) 0.6103(2) 0.3041(4)
O15_2 O 0.17886(19) 0.71392(18) 0.3154(3)
O16_2 O 0.32114(19) 0.78608(18) 0.3154(3)
O19_2 O 0.15519(18) 0.64198(17) 0.6169(4)
O20_2 O 0.34481(18) 0.85802(17) 0.6169(4)
O21_2 O 0.0076(2) 0.74490(18) 0.0734(4)
O22_2 O 0.4924(2) 0.75510(18) 0.0734(4)
O7_3 O 0.4275(2) 0.1277(2) 0.4523(5)
C8_3 C 0.4412(3) 0.0857(3) 0.3220(5)
C9_3 C 0.4102(3) 0.0063(3) 0.3200(5)
O1_2 O 0.0725(2) 0.3723(2) 0.4523(5)
O3_3 O 0.15673(18) 0.63871(17) 0.0166(4)
C1_2 C 0.0588(3) 0.4143(3) 0.3220(5)
C2_2 C 0.0898(3) 0.4937(3) 0.3200(5)
C3_3 C 0.1044(3) 0.5301(3) 0.1644(6)
H1_3 H 0.0924 0.5053 0.0635
C4_3 C 0.1370(2) 0.6037(3) 0.1613(5)
C5_3 C 0.1508(2) 0.6416(2) 0.3178(5)
C6_3 C 0.1367(2) 0.6053(2) 0.4732(5)
C7_3 C 0.1057(3) 0.5310(3) 0.4721(6)
H2_3 H 0.0956 0.5063 0.5741
O9_3 O 0.34327(18) 0.86129(17) 0.0166(4)
C10_3 C 0.3956(3) 0.9699(3) 0.1644(6)
H3_3 H 0.4076 0.9947 0.0635
C11_3 C 0.3630(2) 0.8963(3) 0.1613(5)
C12_3 C 0.3492(2) 0.8584(2) 0.3178(5)
C13_3 C 0.3633(2) 0.8947(2) 0.4732(5)
C14_3 C 0.3943(3) 0.9690(3) 0.4721(6)
H4_3 H 0.4044 0.9937 0.5741
O3_4 O 0.84327(18) 0.13871(17) 0.4834(4)
C3_4 C 0.8956(3) 0.0301(3) 0.3356(6)
H1_4 H 0.9076 0.0053 0.4365
C4_4 C 0.8630(2) 0.1037(3) 0.3387(5)
C5_4 C 0.8492(2) 0.1416(2) 0.1822(5)
C6_4 C 0.8633(2) 0.1053(2) 0.0268(5)
C7_4 C 0.8943(3) 0.0310(3) 0.0279(6)
O7_4 O 0.5725(2) 0.6277(2) 0.0477(5)
O9_4 O 0.65673(18) 0.36129(17) 0.4834(4)
C8_4 C 0.5588(3) 0.5857(3) 0.1780(5)
C9_4 C 0.5898(3) 0.5063(3) 0.1800(5)
C10_4 C 0.6044(3) 0.4699(3) 0.3356(6)
H3_4 H 0.5924 0.4947 0.4365
C11_4 C 0.6370(2) 0.3963(3) 0.3387(5)
C12_4 C 0.6508(2) 0.3584(2) 0.1822(5)
C13_4 C 0.6367(2) 0.3947(2) 0.0268(5)
C14_4 C 0.6057(3) 0.4690(3) 0.0279(6)
H2_4 H 0.9044 0.0063 0.9259
H4_4 H 0.5956 0.4937 0.9259
O1_3 O 0.0725(2) 0.1277(2) 0.9523(5)
O2_2 O 0.0218(2) 0.1103(2) 0.6959(4)
C1_3 C 0.0588(3) 0.0857(3) 0.8220(5)
C2_3 C 0.0898(3) 0.0063(3) 0.8200(5)
O13_2 O 0.9782(2) 0.8897(2) 0.3041(4)
O1_4 O 0.9275(2) 0.8723(2) 0.0477(5)
C1_4 C 0.9412(3) 0.9143(3) 0.1780(5)
C2_4 C 0.9102(3) 0.9937(3) 0.1800(5)
K1 K 0.78394(8) 0.48207(7) 0.18251(14)
K1_2 K 0.71606(8) 0.01793(7) 0.18251(14)
K1_3 K 0.21606(8) 0.98207(7) 0.31749(14)
K1_4 K 0.28394(8) 0.51793(7) 0.31749(14)
K1_5 K 0.21606(8) 0.51793(7) 0.81749(14)
K1_6 K 0.28394(8) 0.98207(7) 0.81749(14)
K1_7 K 0.78394(8) 0.01793(7) 0.68251(14)
K1_8 K 0.71606(8) 0.48207(7) 0.68251(14)
loop_
_geom_bond_atom_site_label_1
_geom_bond_atom_site_label_2
_geom_bond_site_symmetry_1
_geom_bond_site_symmetry_2
O14 Ca3 1_555 1_555
O15 Ca1 1_555 1_555
O17 Ca1 1_555 1_555
O18 Ca3 1_555 1_555
O21 Ca1 1_555 1_555
O22 Ca3 1_555 1_555
Ca3 O16 1_555 1_555
Ca2 O3 1_555 1_555
O1 C1 1_555 1_555
O2 C1 1_555 1_555
O3 C4 1_555 1_555
O4 Ca2 1_555 1_555
O17 C6 1_555 1_555
C1 C2 1_555 1_555
C2 C3 1_555 1_555
C3 H1 1_555 1_555
C4 C3 1_555 1_555
C5 O4 1_555 1_555
C6 C5 1_555 1_555
C7 C2 1_555 1_555
H2 C7 1_555 1_555
O9 Ca2 1_555 1_555
O10 Ca2 1_555 1_555
O18 C13 1_555 1_555
C10 H3 1_555 1_555
C11 O9 1_555 1_555
C12 O10 1_555 1_555
C13 C12 1_555 1_555
H4 C14 1_555 1_555
Ca8 O4 1_555 1_555
Ca9 O10 1_555 1_555
Ca10 O4 1_555 1_555
O19 Ca2 1_555 1_555
O20 Ca2 1_555 1_555
O17 Ca10 1_555 1_555
C4 C5 1_555 1_555
C6 C7 1_555 1_555
O6 Ca8 1_555 1_555
O10 Ca10 1_555 1_555
O18 Ca10 1_555 1_555
C10 C11 1_555 1_555
C11 C12 1_555 1_555
C13 C14 1_555 1_555
O12 Ca9 1_555 1_555
Ca8 O19 1_555 1_555
Ca9 O20 1_555 1_555
O7 C8 1_555 1_555
O8 C8 1_555 1_555
C8 C9 1_555 1_555
Ca7 O8 1_555 1_555
Ca4 O5 1_555 1_555
Ca5 O11 1_555 1_555
O5 Ca10_2 1_555 1_555
O11 Ca10_2 1_555 1_555
Ca4 O3_2 1_555 1_555
Ca2_2 O3_2 1_555 1_555
O3_2 C4_2 1_555 1_555
O4_2 Ca2_2 1_555 1_555
C3_2 H1_2 1_555 1_555
C4_2 C3_2 1_555 1_555
C5_2 O4_2 1_555 1_555
C6_2 C5_2 1_555 1_555
O6_2 Ca4 1_555 1_555
Ca5 O9_2 1_555 1_555
O7_2 C8_2 1_555 1_555
O8_2 C8_2 1_555 1_555
O9_2 Ca2_2 1_555 1_555
O10_2 Ca2_2 1_555 1_555
C8_2 C9_2 1_555 1_555
C9_2 C10_2 1_555 1_555
C10_2 H3_2 1_555 1_555
C11_2 O9_2 1_555 1_555
C12_2 O10_2 1_555 1_555
C13_2 C12_2 1_555 1_555
C14_2 C9_2 1_555 1_555
O12_2 Ca5 1_555 1_555
Ca9 O8_2 1_555 1_555
Ca6 O4_2 1_555 1_555
Ca7 O10_2 1_555 1_555
O14_2 Ca5 1_555 1_555
O15_2 Ca4 1_555 1_555
O16_2 Ca2_2 1_555 1_555
O19_2 Ca2_2 1_555 1_555
O20_2 Ca2_2 1_555 1_555
O21_2 Ca4 1_555 1_555
O22_2 Ca5 1_555 1_555
Ca2_2 O15_2 1_555 1_555
C4_2 C5_2 1_555 1_555
C6_2 C7_2 1_555 1_555
O6_2 Ca6 1_555 1_555
Ca5 O16_2 1_555 1_555
C10_2 C11_2 1_555 1_555
C11_2 C12_2 1_555 1_555
C13_2 C14_2 1_555 1_555
O12_2 Ca7 1_555 1_555
Ca6 O19_2 1_555 1_555
Ca7 O20_2 1_555 1_555
O7_3 C8_3 1_555 1_555
O14 C8_3 1_555 1_555
C8_3 C9_3 1_555 1_555
Ca10_2 O3_3 1_555 1_555
O1_2 C1_2 1_555 1_555
O13 C1_2 1_555 1_555
O3_3 C4_3 1_555 1_555
O15_2 Ca10_2 1_555 1_555
O19_2 C6_3 1_555 1_555
C1_2 C2_2 1_555 1_555
C2_2 C3_3 1_555 1_555
C3_3 H1_3 1_555 1_555
C4_3 C3_3 1_555 1_555
C5_3 O15_2 1_555 1_555
C6_3 C5_3 1_555 1_555
C7_3 C2_2 1_555 1_555
H2_3 C7_3 1_555 1_555
O9_3 Ca10_2 1_555 1_555
O16_2 Ca10_2 1_555 1_555
O20_2 C13_3 1_555 1_555
C10_3 H3_3 1_555 1_555
C11_3 O9_3 1_555 1_555
C12_3 O16_2 1_555 1_555
C13_3 C12_3 1_555 1_555
H4_3 C14_3 1_555 1_555
C4_3 C5_3 1_555 1_555
C6_3 C7_3 1_555 1_555
C10_3 C11_3 1_555 1_555
C11_3 C12_3 1_555 1_555
C13_3 C14_3 1_555 1_555
Ca8 O3_4 1_555 1_555
Ca10 O3_4 1_555 1_555
O3_4 C4_4 1_555 1_555
O15 Ca10 1_555 1_555
C3_4 H1_4 1_555 1_555
C4_4 C3_4 1_555 1_555
C5_4 O15 1_555 1_555
C6_4 C5_4 1_555 1_555
O21 Ca8 1_555 1_555
Ca9 O9_4 1_555 1_555
O7_4 C8_4 1_555 1_555
O14_2 C8_4 1_555 1_555
O9_4 Ca10 1_555 1_555
O16 Ca10 1_555 1_555
C8_4 C9_4 1_555 1_555
C9_4 C10_4 1_555 1_555
C10_4 H3_4 1_555 1_555
C11_4 O9_4 1_555 1_555
C12_4 O16 1_555 1_555
C13_4 C12_4 1_555 1_555
C14_4 C9_4 1_555 1_555
O22 Ca9 1_555 1_555
C4_4 C5_4 1_555 1_555
C6_4 C7_4 1_555 1_555
C10_4 C11_4 1_555 1_555
C11_4 C12_4 1_555 1_555
C13_4 C14_4 1_555 1_555
O1_3 C1_3 1_555 1_555
O2_2 C1_3 1_555 1_555
C1_3 C2_3 1_555 1_555
O1_4 C1_4 1_555 1_555
O13_2 C1_4 1_555 1_555
C1_4 C2_4 1_555 1_555

#END
