
###############################################################################
#
# This file contains modified crystal structure data generated from the
# MOF subset of the Cambridge Structural Database (CSD) v543 
# hosted by the Cambridge Crystallographic Data Centre (CCDC).
#
# This work is licensed under the Creative Commons
# Attribution-NonCommercial-ShareAlike 4.0 International License.
# To view a copy of this license, visit
# http://creativecommons.org/licenses/by-nc-sa/4.0/
# or send a letter to
# Creative Commons, PO Box 1866, Mountain View, CA 94042, USA.
#
# CIF created using the CSD Python API on 29 September 2022
# The structure has been converted into the P1 space group
# The structure has a 3D framework
# The original CSD entry TAWYUO is in the monoclinic crystal system
# The framework has been calculated to contain at least 10.0% void space
# The void calculation uses a probe of radius 1.32A, grid spacing 0.4
# The framework is charged, counterions have been retained in the structure
# H atom positions have been added when not included in the experimental data
#
###############################################################################

data_TAWYUO
_chemical_formula_moiety         '(C164 H188 N4 O46 Zn8)n'
_symmetry_cell_setting           triclinic
_symmetry_space_group_name_H-M   'P 1'
_symmetry_Int_Tables_number      1
_space_group_name_Hall           'P 1'
loop_
_symmetry_equiv_pos_site_id
_symmetry_equiv_pos_as_xyz
1 x,y,z
_cell_length_a                   18.777(2)
_cell_length_b                   8.7423(12)
_cell_length_c                   29.733(4)
_cell_angle_alpha                90
_cell_angle_beta                 90.225(4)
_cell_angle_gamma                90
_cell_volume                     4880.76
loop_
_atom_site_label
_atom_site_type_symbol
_atom_site_fract_x
_atom_site_fract_y
_atom_site_fract_z
Zn1 Zn 0.18267(4) 0.72069(8) 0.24934(2)
O1 O 0.1089(2) 0.4188(5) 0.23759(15)
N1 N 0.0357(3) 0.1432(7) 0.4094(2)
C1 C 0.1277(3) 0.4744(8) 0.2021(2)
Zn2 Zn 0.17125(14) 0.3746(3) 0.30499(8)
O2 O 0.1472(2) 0.6131(5) 0.19594(15)
C2 C 0.1306(4) 0.3785(8) 0.1592(2)
H1 H 0.1061 0.4329 0.1353
H2 H 0.1799 0.3662 0.1503
O3 O 0.0991(2) 0.2312(5) 0.16432(16)
C3 C 0.0259(3) 0.2259(8) 0.1648(2)
H3 H 0.0002 0.4493 0.1610
O10 O 0.0780(3) 0.3043(6) 0.35538(17)
O11 O 0.2537(3) 0.2914(7) 0.36186(18)
H11 H 0.2822 0.2062 0.3569
H12 H 0.2571 0.3444 0.3889
H37 H 0.0337 0.0077 0.4646
C39 C 0.0822(4) 0.1870(9) 0.3780(2)
H41 H 0.1211 0.1234 0.3729
H44 H 0.0236 0.4235 0.4464
H45 H 0.0034 0.3033 0.4834
O12 O 0.2887(2) 0.6704(5) 0.23904(15)
O13 O 0.2113(2) 0.1704(5) 0.26096(15)
O14 O 0.2850(2) 0.4308(5) 0.26437(13)
O15 O 0.2150(2) 0.9308(5) 0.23563(13)
O16 O 0.0808(2) 0.8822(5) 0.25406(14)
O17 O 0.1659(2) 0.6433(5) 0.30962(14)
C4 C 0.9812(3) 0.3511(7) 0.1615(2)
C5 C 0.9076(4) 0.3310(8) 0.1590(2)
O6 O 0.4192(2) 0.3822(5) 0.24594(14)
C6 C 0.8789(3) 0.1840(7) 0.1609(2)
C7 C 0.9234(3) 0.0569(7) 0.1675(2)
C8 C 0.9970(3) 0.0790(8) 0.1688(2)
C9 C 0.8613(4) 0.4688(9) 0.1532(3)
H5 H 0.8906 0.5571 0.1481
H6 H 0.8335 0.4838 0.1798
H7 H 0.8302 0.4538 0.1279
C11 C 0.8013(3) 0.1587(7) 0.1502(2)
C12 C 0.7450(3) 0.2047(7) 0.1775(2)
H13 H 0.7549 0.2498 0.2052
C13 C 0.6751(3) 0.1849(7) 0.1644(2)
C14 C 0.6607(3) 0.1125(7) 0.1228(2)
H14 H 0.6138 0.0959 0.1140
C15 C 0.7164(3) 0.0656(7) 0.0949(2)
C16 C 0.7863(3) 0.0881(8) 0.1089(2)
H15 H 0.8236 0.0560 0.0907
C17 C 0.6125(3) 0.2389(7) 0.1909(2)
C18 C 0.5982(3) 0.3953(7) 0.1934(2)
C19 C 0.5331(3) 0.4470(7) 0.2124(2)
H16 H 0.5229 0.5510 0.2139
C20 C 0.4856(3) 0.3414(7) 0.2286(2)
C21 C 0.5005(3) 0.1859(7) 0.2283(2)
H17 H 0.4683 0.1166 0.2404
C22 C 0.5644(3) 0.1341(7) 0.2096(2)
C24 C 0.6487(4) 0.5134(8) 0.1750(3)
H21 H 0.6598 0.4893 0.1443
H22 H 0.6917 0.5137 0.1926
H23 H 0.6268 0.6126 0.1764
C25 C 0.3951(3) 0.5319(6) 0.2357(2)
H24 H 0.4020 0.5530 0.2040
H25 H 0.4220 0.6064 0.2529
C26 C 0.3163(3) 0.5435(7) 0.2473(2)
C32 C 0.6844(3) 0.0820(8) 0.0133(2)
C33 C 0.6785(4) 0.2545(7) 0.0167(2)
H29 H 0.7233 0.2961 0.0265
H30 H 0.6422 0.2806 0.0380
C40 C 0.9736(4) 0.2333(9) 0.4195(2)
H42 H 0.9356 0.1659 0.4293
H43 H 0.9577 0.2849 0.3924
C41 C 0.9876(4) 0.3535(9) 0.4564(2)
H46 H 0.9444 0.4087 0.4624
Zn4 Zn 0.31733(4) 0.22069(8) 0.25066(2)
Zn7 Zn 0.32875(14) 0.8746(3) 0.19501(8)
C31 C 0.6739(3) 0.0145(7) 0.9709(2)
H27 H 0.6618 0.0748 0.9463
H28 H 0.6663 0.2961 0.9878
Zn8 Zn 0.67125(14) 0.1254(3) 0.80499(8)
O7 O 0.6737(3) 0.7809(5) 0.92648(14)
O8 O 0.6826(2) 0.6359(5) 0.84646(15)
O9 O 0.6659(2) 0.8567(5) 0.80962(14)
H26 H 0.7036 0.6610 0.9995
C30 C 0.6816(4) 0.8573(7) 0.9659(2)
C35 C 0.6634(4) 0.8729(8) 0.8869(2)
H34 H 0.6984 0.9545 0.8863
H35 H 0.6164 0.9188 0.8874
C36 C 0.6711(3) 0.7742(7) 0.8452(2)
Zn5 Zn 0.68267(4) 0.77931(8) 0.74934(2)
C25_2 C 0.1049(3) 0.0319(6) 0.2643(2)
H24_2 H 0.0980 0.0530 0.2960
H25_2 H 0.0780 0.1064 0.2471
C26_2 C 0.1837(3) 0.0435(7) 0.2527(2)
C20_2 C 0.0144(3) 0.8414(7) 0.2714(2)
H17_2 H 0.0317 0.6166 0.2596
O2_2 O 0.3528(2) 0.1131(5) 0.30406(15)
H5_2 H 0.6094 0.0571 0.3519
H16_2 H 0.9771 0.0510 0.2861
C24_2 C 0.8513(4) 0.0134(8) 0.3250(3)
H22_2 H 0.8083 0.0137 0.3074
H23_2 H 0.8732 0.1126 0.3236
O17_2 O 0.3341(2) 0.1433(5) 0.19038(14)
O1_2 O 0.3911(2) 0.9188(5) 0.26241(15)
N1_2 N 0.4643(3) 0.6432(7) 0.0906(2)
C1_2 C 0.3723(3) 0.9744(8) 0.2979(2)
C2_2 C 0.3694(4) 0.8785(8) 0.3408(2)
H1_2 H 0.3939 0.9329 0.3647
H2_2 H 0.3201 0.8662 0.3497
O3_2 O 0.4009(2) 0.7312(5) 0.33568(16)
C3_2 C 0.4741(3) 0.7259(8) 0.3352(2)
C4_2 C 0.5188(3) 0.8511(7) 0.3385(2)
H3_2 H 0.4998 0.9493 0.3390
C5_2 C 0.5924(4) 0.8310(8) 0.3410(2)
C6_2 C 0.6211(3) 0.6840(7) 0.3391(2)
O7_2 O 0.8263(3) 0.2809(5) 0.57352(14)
C7_2 C 0.5766(3) 0.5569(7) 0.3325(2)
O8_2 O 0.8174(2) 0.1359(5) 0.65354(15)
C8_2 C 0.5030(3) 0.5790(8) 0.3312(2)
H4 H 0.4729 0.4954 0.3277
O9_2 O 0.8341(2) 0.3567(5) 0.69038(14)
C9_2 C 0.6387(4) 0.9688(9) 0.3468(3)
H6_2 H 0.6665 0.9838 0.3202
H7_2 H 0.6698 0.9538 0.3721
O10_2 O 0.4220(3) 0.8043(6) 0.14462(17)
C10 C 0.6050(4) 0.3952(9) 0.3280(3)
H8 H 0.6199 0.3585 0.3570
H9 H 0.6449 0.3947 0.3079
H10 H 0.5683 0.3298 0.3163
C11_2 C 0.6987(3) 0.6587(7) 0.3498(2)
O11_2 O 0.2463(3) 0.7914(7) 0.13814(18)
H11_2 H 0.2178 0.7062 0.1431
H12_2 H 0.2429 0.8444 0.1111
C12_2 C 0.7550(3) 0.7047(7) 0.3225(2)
H13_2 H 0.7451 0.7498 0.2948
C13_2 C 0.8249(3) 0.6849(7) 0.3356(2)
C14_2 C 0.8393(3) 0.6125(7) 0.3772(2)
H14_2 H 0.8862 0.5959 0.3860
C15_2 C 0.7836(3) 0.5656(7) 0.4051(2)
C16_2 C 0.7137(3) 0.5881(8) 0.3911(2)
H15_2 H 0.6764 0.5560 0.4093
C17_2 C 0.8875(3) 0.7389(7) 0.3091(2)
C18_2 C 0.9018(3) 0.8953(7) 0.3066(2)
C19_2 C 0.9669(3) 0.9470(7) 0.2876(2)
C21_2 C 0.9995(3) 0.6859(7) 0.2717(2)
C22_2 C 0.9356(3) 0.6341(7) 0.2904(2)
C23 C 0.9219(4) 0.4622(7) 0.2908(2)
H18 H 0.9412 0.4186 0.3178
H19 H 0.9443 0.4162 0.2652
H20 H 0.8715 0.4436 0.2895
H21_2 H 0.8402 0.9893 0.3557
C27 C 0.7972(3) 0.4921(7) 0.4501(2)
C28 C 0.7907(3) 0.3319(7) 0.4552(2)
C29 C 0.8010(4) 0.2662(8) 0.4970(2)
H26_2 H 0.7964 0.1610 0.5005
C30_2 C 0.8184(4) 0.3573(7) 0.5341(2)
C31_2 C 0.8261(3) 0.5145(7) 0.5291(2)
H27_2 H 0.8382 0.5748 0.5537
C32_2 C 0.8156(3) 0.5820(8) 0.4867(2)
C33_2 C 0.8215(4) 0.7545(7) 0.4833(2)
H28_2 H 0.8337 0.7961 0.5122
H29_2 H 0.7767 0.7961 0.4735
H30_2 H 0.8578 0.7806 0.4620
C34 C 0.7695(4) 0.2344(8) 0.4153(2)
H31 H 0.7714 0.1283 0.4236
H32 H 0.8018 0.2528 0.3909
H33 H 0.7220 0.2603 0.4060
C35_2 C 0.8366(4) 0.3729(8) 0.6131(2)
H34_2 H 0.8016 0.4545 0.6137
H35_2 H 0.8836 0.4188 0.6126
C36_2 C 0.8289(3) 0.2742(7) 0.6548(2)
C37 C 0.4534(4) 0.4951(8) 0.0668(2)
H36 H 0.4033 0.4685 0.0678
H37_2 H 0.4663 0.5077 0.0354
C38 C 0.4957(4) 0.3673(8) 0.0862(2)
H38 H 0.4776 0.3422 0.1154
H39 H 0.5447 0.3978 0.0888
H40 H 0.4922 0.2795 0.0670
C39_2 C 0.4178(4) 0.6870(9) 0.1220(2)
H41_2 H 0.3789 0.6234 0.1271
C40_2 C 0.5264(4) 0.7333(9) 0.0805(2)
H42_2 H 0.5644 0.6659 0.0707
H43_2 H 0.5423 0.7849 0.1076
C41_2 C 0.5124(4) 0.8535(9) 0.0436(2)
H44_2 H 0.4764 0.9235 0.0536
H45_2 H 0.4966 0.8033 0.0166
H46_2 H 0.5556 0.9087 0.0376
Zn5_2 Zn 0.81733(4) 0.27931(8) 0.75066(2)
Zn8_2 Zn 0.82875(14) 0.6254(3) 0.69501(8)
O7_3 O 0.3263(3) 0.2191(5) 0.07352(14)
O8_3 O 0.3174(2) 0.3641(5) 0.15354(15)
H26_3 H 0.2964 0.3390 0.0005
C30_3 C 0.3184(4) 0.1427(7) 0.0341(2)
C35_3 C 0.3366(4) 0.1271(8) 0.1131(2)
H34_3 H 0.3016 0.0455 0.1137
H35_3 H 0.3836 0.0812 0.1126
C36_3 C 0.3289(3) 0.2258(7) 0.1548(2)
C31_3 C 0.3261(3) 0.9855(7) 0.0291(2)
H27_3 H 0.3382 0.9252 0.0537
H28_3 H 0.3337 0.7039 0.0122
O4 O 0.7113(2) 0.3296(5) 0.76096(15)
C4_3 C 0.0188(3) 0.6489(7) 0.8385(2)
O5 O 0.7150(2) 0.5692(5) 0.73563(13)
C5_3 C 0.0924(4) 0.6690(8) 0.8410(2)
O6_2 O 0.5808(2) 0.6178(5) 0.75406(14)
C6_3 C 0.1211(3) 0.8160(7) 0.8391(2)
C7_3 C 0.0766(3) 0.9431(7) 0.8325(2)
C8_3 C 0.0030(3) 0.9210(8) 0.8312(2)
C9_3 C 0.1387(4) 0.5312(9) 0.8468(3)
H5_3 H 0.1094 0.4429 0.8519
H6_3 H 0.1665 0.5162 0.8202
H7_3 H 0.1698 0.5462 0.8721
C11_3 C 0.1987(3) 0.8413(7) 0.8498(2)
C12_3 C 0.2550(3) 0.7953(7) 0.8225(2)
H13_3 H 0.2451 0.7502 0.7948
C13_3 C 0.3249(3) 0.8151(7) 0.8356(2)
C14_3 C 0.3393(3) 0.8875(7) 0.8772(2)
H14_3 H 0.3862 0.9041 0.8860
C15_3 C 0.2836(3) 0.9344(7) 0.9051(2)
C16_3 C 0.2137(3) 0.9119(8) 0.8911(2)
H15_3 H 0.1764 0.9440 0.9093
C17_3 C 0.3875(3) 0.7611(7) 0.8091(2)
C18_3 C 0.4018(3) 0.6047(7) 0.8066(2)
C19_3 C 0.4669(3) 0.5530(7) 0.7876(2)
H16_3 H 0.4771 0.4490 0.7861
C20_3 C 0.5144(3) 0.6586(7) 0.7714(2)
C21_3 C 0.4995(3) 0.8141(7) 0.7717(2)
H17_3 H 0.5317 0.8834 0.7596
C22_3 C 0.4356(3) 0.8659(7) 0.7904(2)
C24_3 C 0.3513(4) 0.4866(8) 0.8250(3)
H21_3 H 0.3402 0.5107 0.8557
H22_3 H 0.3083 0.4863 0.8074
H23_3 H 0.3732 0.3874 0.8236
C25_3 C 0.6049(3) 0.4681(6) 0.7643(2)
H24_3 H 0.5980 0.4470 0.7960
H25_3 H 0.5780 0.3936 0.7471
C26_3 C 0.6837(3) 0.4565(7) 0.7527(2)
C32_3 C 0.3156(3) 0.9180(8) 0.9867(2)
C33_3 C 0.3215(4) 0.7455(7) 0.9833(2)
H29_3 H 0.2767 0.7039 0.9735
H30_3 H 0.3578 0.7194 0.9620
C40_3 C 0.0264(4) 0.7667(9) 0.5805(2)
H42_3 H 0.0644 0.8341 0.5707
H43_3 H 0.0423 0.7151 0.6076
C41_3 C 0.0124(4) 0.6465(9) 0.5436(2)
H46_3 H 0.0556 0.5913 0.5376
O1_3 O 0.8911(2) 0.5812(5) 0.76241(15)
N1_3 N 0.9643(3) 0.8568(7) 0.5906(2)
C1_3 C 0.8723(3) 0.5256(8) 0.7979(2)
O2_3 O 0.8528(2) 0.3869(5) 0.80406(15)
C2_3 C 0.8694(4) 0.6215(8) 0.8408(2)
H1_3 H 0.8939 0.5671 0.8647
H2_3 H 0.8201 0.6338 0.8497
O3_3 O 0.9009(2) 0.7688(5) 0.83568(16)
C3_3 C 0.9741(3) 0.7741(8) 0.8352(2)
H3_3 H 0.9998 0.5507 0.8390
O10_3 O 0.9220(3) 0.6957(6) 0.64462(17)
O11_3 O 0.7463(3) 0.7086(7) 0.63814(18)
H11_3 H 0.7178 0.7938 0.6431
H12_3 H 0.7429 0.6556 0.6111
H37_3 H 0.9663 0.9923 0.5354
C39_3 C 0.9178(4) 0.8130(9) 0.6220(2)
H41_3 H 0.8789 0.8766 0.6271
H44_3 H 0.9764 0.5765 0.5536
H45_3 H 0.9966 0.6967 0.5166
O13_2 O 0.7887(2) 0.8296(5) 0.73904(15)
O15_2 O 0.7850(2) 0.0692(5) 0.76437(13)
O16_2 O 0.9192(2) 0.1178(5) 0.74594(14)
O1_4 O 0.6089(2) 0.0812(5) 0.73759(15)
N1_4 N 0.5357(3) 0.3568(7) 0.9094(2)
C1_4 C 0.6277(3) 0.0256(8) 0.7021(2)
C2_4 C 0.6306(4) 0.1215(8) 0.6592(2)
H1_4 H 0.6061 0.0671 0.6353
H2_4 H 0.6799 0.1338 0.6503
O3_4 O 0.5991(2) 0.2688(5) 0.66432(16)
C3_4 C 0.5259(3) 0.2741(8) 0.6648(2)
C4_4 C 0.4812(3) 0.1489(7) 0.6615(2)
H3_4 H 0.5002 0.0507 0.6610
C5_4 C 0.4076(4) 0.1690(8) 0.6590(2)
C6_4 C 0.3789(3) 0.3160(7) 0.6609(2)
O7_4 O 0.1737(3) 0.7191(5) 0.42648(14)
C7_4 C 0.4234(3) 0.4431(7) 0.6675(2)
O8_4 O 0.1826(2) 0.8641(5) 0.34646(15)
C8_4 C 0.4970(3) 0.4210(8) 0.6688(2)
H4_2 H 0.5271 0.5046 0.6723
C9_4 C 0.3613(4) 0.0312(9) 0.6532(3)
H6_4 H 0.3335 0.0162 0.6798
H7_4 H 0.3302 0.0462 0.6279
O10_4 O 0.5780(3) 0.1957(6) 0.85538(17)
C10_2 C 0.3950(4) 0.6048(9) 0.6720(3)
H8_2 H 0.3801 0.6415 0.6430
H9_2 H 0.3551 0.6053 0.6921
H10_2 H 0.4317 0.6702 0.6837
C11_4 C 0.3013(3) 0.3413(7) 0.6502(2)
O11_4 O 0.7537(3) 0.2086(7) 0.86186(18)
H11_4 H 0.7822 0.2938 0.8569
H12_4 H 0.7571 0.1556 0.8889
C12_4 C 0.2450(3) 0.2953(7) 0.6775(2)
H13_4 H 0.2549 0.2502 0.7052
C13_4 C 0.1751(3) 0.3151(7) 0.6644(2)
C14_4 C 0.1607(3) 0.3875(7) 0.6228(2)
H14_4 H 0.1138 0.4041 0.6140
C15_4 C 0.2164(3) 0.4344(7) 0.5949(2)
C16_4 C 0.2863(3) 0.4119(8) 0.6089(2)
H15_4 H 0.3236 0.4440 0.5907
C17_4 C 0.1125(3) 0.2611(7) 0.6909(2)
C18_4 C 0.0982(3) 0.1047(7) 0.6934(2)
C19_4 C 0.0331(3) 0.0530(7) 0.7124(2)
C21_4 C 0.0005(3) 0.3141(7) 0.7283(2)
C22_4 C 0.0644(3) 0.3659(7) 0.7096(2)
C23_2 C 0.0781(4) 0.5378(7) 0.7092(2)
H18_2 H 0.0588 0.5814 0.6822
H19_2 H 0.0557 0.5838 0.7348
H20_2 H 0.1285 0.5564 0.7105
H21_4 H 0.1598 0.0107 0.6443
C27_2 C 0.2028(3) 0.5079(7) 0.5499(2)
C28_2 C 0.2093(3) 0.6681(7) 0.5448(2)
C29_2 C 0.1990(4) 0.7338(8) 0.5030(2)
H26_4 H 0.2036 0.8390 0.4995
C30_4 C 0.1816(4) 0.6427(7) 0.4659(2)
C31_4 C 0.1739(3) 0.4855(7) 0.4709(2)
H27_4 H 0.1618 0.4252 0.4463
C32_4 C 0.1844(3) 0.4180(8) 0.5133(2)
C33_4 C 0.1785(4) 0.2455(7) 0.5167(2)
H28_4 H 0.1663 0.2039 0.4878
H29_4 H 0.2233 0.2039 0.5265
H30_4 H 0.1422 0.2194 0.5380
C34_2 C 0.2305(4) 0.7656(8) 0.5847(2)
H31_2 H 0.2286 0.8717 0.5764
H32_2 H 0.1982 0.7472 0.6091
H33_2 H 0.2780 0.7397 0.5940
C35_4 C 0.1634(4) 0.6271(8) 0.3869(2)
H34_4 H 0.1984 0.5455 0.3863
H35_4 H 0.1164 0.5812 0.3874
C36_4 C 0.1711(3) 0.7258(7) 0.3452(2)
C37_2 C 0.5466(4) 0.5049(8) 0.9332(2)
H36_2 H 0.5967 0.5315 0.9322
H37_4 H 0.5337 0.4923 0.9646
C38_2 C 0.5043(4) 0.6327(8) 0.9138(2)
H38_2 H 0.5224 0.6578 0.8846
H39_2 H 0.4553 0.6022 0.9112
H40_2 H 0.5078 0.7205 0.9330
C39_4 C 0.5822(4) 0.3130(9) 0.8780(2)
H41_4 H 0.6211 0.3766 0.8729
C40_4 C 0.4736(4) 0.2667(9) 0.9195(2)
H42_4 H 0.4356 0.3341 0.9293
H43_4 H 0.4577 0.2151 0.8924
C41_4 C 0.4876(4) 0.1465(9) 0.9564(2)
H44_4 H 0.5236 0.0765 0.9464
H45_4 H 0.5034 0.1967 0.9834
H46_4 H 0.4444 0.0913 0.9624
O2_4 O 0.6472(2) 0.8869(5) 0.69594(15)
H5_4 H 0.3906 0.9429 0.6481
H16_4 H 0.0229 0.9490 0.7139
C24_4 C 0.1487(4) 0.9866(8) 0.6750(3)
H22_4 H 0.1917 0.9863 0.6926
H23_4 H 0.1268 0.8874 0.6764
C20_4 C 0.9856(3) 0.1586(7) 0.7286(2)
H17_4 H 0.9683 0.3834 0.7404
C25_4 C 0.8951(3) 0.9681(6) 0.7357(2)
H24_4 H 0.9020 0.9470 0.7040
H25_4 H 0.9220 0.8936 0.7529
C26_4 C 0.8163(3) 0.9565(7) 0.7473(2)
H4_3 H 0.0271 0.9954 0.1723
C37_3 C 0.0466(4) 0.9951(8) 0.4332(2)
H36_3 H 0.0967 0.9685 0.4322
C38_3 C 0.0043(4) 0.8673(8) 0.4138(2)
H38_3 H 0.0224 0.8422 0.3846
H40_3 H 0.0078 0.7795 0.4330
C10_3 C 0.8950(4) 0.8952(9) 0.1720(3)
H8_3 H 0.8801 0.8585 0.1430
H9_3 H 0.8551 0.8947 0.1921
H10_3 H 0.9317 0.8298 0.1837
C23_3 C 0.5781(4) 0.9622(7) 0.2092(2)
H18_3 H 0.5588 0.9186 0.1822
H19_3 H 0.5557 0.9162 0.2348
H20_3 H 0.6285 0.9436 0.2105
C27_3 C 0.7028(3) 0.9921(7) 0.0499(2)
C28_3 C 0.7093(3) 0.8319(7) 0.0448(2)
C29_3 C 0.6990(4) 0.7662(8) 0.0030(2)
C34_3 C 0.7305(4) 0.7344(8) 0.0847(2)
H31_3 H 0.7286 0.6283 0.0764
H32_3 H 0.6982 0.7528 0.1091
H33_3 H 0.7780 0.7603 0.0940
H39_3 H 0.9553 0.8978 0.4112
C10_4 C 0.1050(4) 0.1048(9) 0.8280(3)
H8_4 H 0.1199 0.1415 0.8570
H9_4 H 0.1449 0.1053 0.8079
H10_4 H 0.0683 0.1702 0.8163
C23_4 C 0.4219(4) 0.0378(7) 0.7908(2)
H18_4 H 0.4412 0.0814 0.8178
H19_4 H 0.4443 0.0838 0.7652
H20_4 H 0.3715 0.0564 0.7895
C27_4 C 0.2972(3) 0.0079(7) 0.9501(2)
C28_4 C 0.2907(3) 0.1681(7) 0.9552(2)
C29_4 C 0.3010(4) 0.2338(8) 0.9970(2)
C34_4 C 0.2695(4) 0.2656(8) 0.9153(2)
H31_4 H 0.2714 0.3717 0.9236
H32_4 H 0.3018 0.2472 0.8909
H33_4 H 0.2220 0.2397 0.9060
H39_4 H 0.0447 0.1022 0.5888
H4_4 H 0.9729 0.0046 0.8277
C37_4 C 0.9534(4) 0.0049(8) 0.5668(2)
H36_4 H 0.9033 0.0315 0.5678
C38_4 C 0.9957(4) 0.1327(8) 0.5862(2)
H38_4 H 0.9776 0.1578 0.6154
H40_4 H 0.9922 0.2205 0.5670
O18 O 0.2610(3) 0.5443(7) 0.0788(2)
H47 H 0.313884 0.5443 0.0788
O18_2 O 0.2390(3) 0.0443(7) 0.4212(2)
H47_2 H 0.186116 0.0443 0.4212
O18_3 O 0.7390(3) 0.4557(7) 0.9212(2)
H47_3 H 0.686116 0.4557 0.9212
O18_4 O 0.7610(3) 0.9557(7) 0.5788(2)
H47_4 H 0.813884 0.9557 0.5788
loop_
_geom_bond_atom_site_label_1
_geom_bond_atom_site_label_2
_geom_bond_site_symmetry_1
_geom_bond_site_symmetry_2
Zn1 O2 1_555 1_555
O1 C1 1_555 1_555
C1 O2 1_555 1_555
Zn2 O1 1_555 1_555
C2 C1 1_555 1_555
H1 C2 1_555 1_555
H2 C2 1_555 1_555
O3 C2 1_555 1_555
C3 O3 1_555 1_555
O10 Zn2 1_555 1_555
O11 Zn2 1_555 1_555
H11 O11 1_555 1_555
H12 O11 1_555 1_555
C39 N1 1_555 1_555
H41 C39 1_555 1_555
O12 Zn1 1_555 1_555
O13 Zn2 1_555 1_555
O14 Zn2 1_555 1_555
O15 Zn1 1_555 1_555
O16 Zn1 1_555 1_555
O17 Zn1 1_555 1_555
Zn2 O17 1_555 1_555
O10 C39 1_555 1_555
O12 C26 1_555 1_555
O14 C26 1_555 1_555
C5 C4 1_555 1_555
O6 C20 1_555 1_555
C6 C5 1_555 1_555
C7 C6 1_555 1_555
C9 C5 1_555 1_555
H5 C9 1_555 1_555
H6 C9 1_555 1_555
H7 C9 1_555 1_555
C11 C6 1_555 1_555
C12 C11 1_555 1_555
H13 C12 1_555 1_555
C13 C12 1_555 1_555
C14 C13 1_555 1_555
H14 C14 1_555 1_555
C15 C14 1_555 1_555
C16 C11 1_555 1_555
H15 C16 1_555 1_555
C17 C13 1_555 1_555
C18 C17 1_555 1_555
C19 C18 1_555 1_555
H16 C19 1_555 1_555
C20 C19 1_555 1_555
C21 C20 1_555 1_555
H17 C21 1_555 1_555
C22 C17 1_555 1_555
C24 C18 1_555 1_555
H21 C24 1_555 1_555
H22 C24 1_555 1_555
H23 C24 1_555 1_555
C25 O6 1_555 1_555
H24 C25 1_555 1_555
H25 C25 1_555 1_555
C26 C25 1_555 1_555
C33 C32 1_555 1_555
H29 C33 1_555 1_555
H30 C33 1_555 1_555
H42 C40 1_555 1_555
H43 C40 1_555 1_555
C41 C40 1_555 1_555
H46 C41 1_555 1_555
Zn4 O14 1_555 1_555
Zn7 O12 1_555 1_555
O6 Zn4 1_555 1_555
C7 C8 1_555 1_555
C15 C16 1_555 1_555
C21 C22 1_555 1_555
H27 C31 1_555 1_555
O7 C30 1_555 1_555
O8 C36 1_555 1_555
O9 C36 1_555 1_555
C35 O7 1_555 1_555
H34 C35 1_555 1_555
H35 C35 1_555 1_555
C36 C35 1_555 1_555
Zn5 O9 1_555 1_555
O13 C26_2 1_555 1_555
H24_2 C25_2 1_555 1_555
H25_2 C25_2 1_555 1_555
C26_2 C25_2 1_555 1_555
Zn4 O13 1_555 1_555
O16 C20_2 1_555 1_555
Zn7 O15 1_555 1_555
Zn4 O2_2 1_555 1_555
H22_2 C24_2 1_555 1_555
H23_2 C24_2 1_555 1_555
O17_2 Zn4 1_555 1_555
O1_2 C1_2 1_555 1_555
N1_2 C37 1_555 1_555
Zn7 O1_2 1_555 1_555
C2_2 C1_2 1_555 1_555
H1_2 C2_2 1_555 1_555
H2_2 C2_2 1_555 1_555
O3_2 C2_2 1_555 1_555
C3_2 O3_2 1_555 1_555
C4_2 C3_2 1_555 1_555
H3_2 C4_2 1_555 1_555
C5_2 C4_2 1_555 1_555
C6_2 C5_2 1_555 1_555
O7_2 C30_2 1_555 1_555
C7_2 C6_2 1_555 1_555
O8_2 C36_2 1_555 1_555
C8_2 C3_2 1_555 1_555
H4 C8_2 1_555 1_555
O9_2 C36_2 1_555 1_555
C9_2 C5_2 1_555 1_555
H6_2 C9_2 1_555 1_555
H7_2 C9_2 1_555 1_555
O10_2 Zn7 1_555 1_555
C10 C7_2 1_555 1_555
H8 C10 1_555 1_555
H9 C10 1_555 1_555
H10 C10 1_555 1_555
C11_2 C6_2 1_555 1_555
O11_2 Zn7 1_555 1_555
H11_2 O11_2 1_555 1_555
H12_2 O11_2 1_555 1_555
C12_2 C11_2 1_555 1_555
H13_2 C12_2 1_555 1_555
C13_2 C12_2 1_555 1_555
C14_2 C13_2 1_555 1_555
H14_2 C14_2 1_555 1_555
C15_2 C14_2 1_555 1_555
C16_2 C11_2 1_555 1_555
H15_2 C16_2 1_555 1_555
C17_2 C13_2 1_555 1_555
C18_2 C17_2 1_555 1_555
C19_2 C18_2 1_555 1_555
C22_2 C17_2 1_555 1_555
C23 C22_2 1_555 1_555
H18 C23 1_555 1_555
H19 C23 1_555 1_555
H20 C23 1_555 1_555
C27 C15_2 1_555 1_555
C28 C27 1_555 1_555
C29 C28 1_555 1_555
H26_2 C29 1_555 1_555
C30_2 C29 1_555 1_555
C31_2 C30_2 1_555 1_555
H27_2 C31_2 1_555 1_555
C32_2 C27 1_555 1_555
C33_2 C32_2 1_555 1_555
H28_2 C33_2 1_555 1_555
H29_2 C33_2 1_555 1_555
H30_2 C33_2 1_555 1_555
C34 C28 1_555 1_555
H31 C34 1_555 1_555
H32 C34 1_555 1_555
H33 C34 1_555 1_555
C35_2 O7_2 1_555 1_555
H34_2 C35_2 1_555 1_555
H35_2 C35_2 1_555 1_555
C36_2 C35_2 1_555 1_555
C37 H36 1_555 1_555
H37_2 C37 1_555 1_555
C38 C37 1_555 1_555
H38 C38 1_555 1_555
H39 C38 1_555 1_555
H40 C38 1_555 1_555
C39_2 N1_2 1_555 1_555
H41_2 C39_2 1_555 1_555
C40_2 N1_2 1_555 1_555
H42_2 C40_2 1_555 1_555
H43_2 C40_2 1_555 1_555
C41_2 C40_2 1_555 1_555
H44_2 C41_2 1_555 1_555
H45_2 C41_2 1_555 1_555
H46_2 C41_2 1_555 1_555
Zn5_2 O9_2 1_555 1_555
Zn8_2 O9_2 1_555 1_555
C7_2 C8_2 1_555 1_555
O10_2 C39_2 1_555 1_555
C15_2 C16_2 1_555 1_555
C21_2 C22_2 1_555 1_555
C31_2 C32_2 1_555 1_555
O7_3 C30_3 1_555 1_555
O8_3 C36_3 1_555 1_555
O17_2 C36_3 1_555 1_555
C35_3 O7_3 1_555 1_555
H34_3 C35_3 1_555 1_555
H35_3 C35_3 1_555 1_555
C36_3 C35_3 1_555 1_555
H27_3 C31_3 1_555 1_555
O4 C26_3 1_555 1_555
O5 C26_3 1_555 1_555
C5_3 C4_3 1_555 1_555
O6_2 C20_3 1_555 1_555
C6_3 C5_3 1_555 1_555
C7_3 C6_3 1_555 1_555
C9_3 C5_3 1_555 1_555
H5_3 C9_3 1_555 1_555
H6_3 C9_3 1_555 1_555
H7_3 C9_3 1_555 1_555
C11_3 C6_3 1_555 1_555
C12_3 C11_3 1_555 1_555
H13_3 C12_3 1_555 1_555
C13_3 C12_3 1_555 1_555
C14_3 C13_3 1_555 1_555
H14_3 C14_3 1_555 1_555
C15_3 C14_3 1_555 1_555
C16_3 C11_3 1_555 1_555
H15_3 C16_3 1_555 1_555
C17_3 C13_3 1_555 1_555
C18_3 C17_3 1_555 1_555
C19_3 C18_3 1_555 1_555
H16_3 C19_3 1_555 1_555
C20_3 C19_3 1_555 1_555
C21_3 C20_3 1_555 1_555
H17_3 C21_3 1_555 1_555
C22_3 C17_3 1_555 1_555
C24_3 C18_3 1_555 1_555
H21_3 C24_3 1_555 1_555
H22_3 C24_3 1_555 1_555
H23_3 C24_3 1_555 1_555
C25_3 O6_2 1_555 1_555
H24_3 C25_3 1_555 1_555
H25_3 C25_3 1_555 1_555
C26_3 C25_3 1_555 1_555
C33_3 C32_3 1_555 1_555
H29_3 C33_3 1_555 1_555
H30_3 C33_3 1_555 1_555
H42_3 C40_3 1_555 1_555
H43_3 C40_3 1_555 1_555
C41_3 C40_3 1_555 1_555
H46_3 C41_3 1_555 1_555
Zn5_2 O4 1_555 1_555
Zn5 O5 1_555 1_555
Zn8_2 O5 1_555 1_555
Zn8 O4 1_555 1_555
O6_2 Zn5 1_555 1_555
C7_3 C8_3 1_555 1_555
C15_3 C16_3 1_555 1_555
C21_3 C22_3 1_555 1_555
Zn5_2 O2_3 1_555 1_555
O1_3 C1_3 1_555 1_555
C1_3 O2_3 1_555 1_555
Zn8_2 O1_3 1_555 1_555
C2_3 C1_3 1_555 1_555
H1_3 C2_3 1_555 1_555
H2_3 C2_3 1_555 1_555
O3_3 C2_3 1_555 1_555
C3_3 O3_3 1_555 1_555
O10_3 Zn8_2 1_555 1_555
O11_3 Zn8_2 1_555 1_555
H11_3 O11_3 1_555 1_555
H12_3 O11_3 1_555 1_555
C39_3 N1_3 1_555 1_555
H41_3 C39_3 1_555 1_555
O13_2 Zn8_2 1_555 1_555
O15_2 Zn5_2 1_555 1_555
O16_2 Zn5_2 1_555 1_555
O10_3 C39_3 1_555 1_555
O1_4 C1_4 1_555 1_555
N1_4 C37_2 1_555 1_555
Zn8 O1_4 1_555 1_555
C2_4 C1_4 1_555 1_555
H1_4 C2_4 1_555 1_555
H2_4 C2_4 1_555 1_555
O3_4 C2_4 1_555 1_555
C3_4 O3_4 1_555 1_555
C4_4 C3_4 1_555 1_555
H3_4 C4_4 1_555 1_555
C5_4 C4_4 1_555 1_555
C6_4 C5_4 1_555 1_555
O7_4 C30_4 1_555 1_555
C7_4 C6_4 1_555 1_555
O8_4 C36_4 1_555 1_555
C8_4 C3_4 1_555 1_555
H4_2 C8_4 1_555 1_555
O17 C36_4 1_555 1_555
C9_4 C5_4 1_555 1_555
H6_4 C9_4 1_555 1_555
H7_4 C9_4 1_555 1_555
O10_4 Zn8 1_555 1_555
C10_2 C7_4 1_555 1_555
H8_2 C10_2 1_555 1_555
H9_2 C10_2 1_555 1_555
H10_2 C10_2 1_555 1_555
C11_4 C6_4 1_555 1_555
O11_4 Zn8 1_555 1_555
H11_4 O11_4 1_555 1_555
H12_4 O11_4 1_555 1_555
C12_4 C11_4 1_555 1_555
H13_4 C12_4 1_555 1_555
C13_4 C12_4 1_555 1_555
C14_4 C13_4 1_555 1_555
H14_4 C14_4 1_555 1_555
C15_4 C14_4 1_555 1_555
C16_4 C11_4 1_555 1_555
H15_4 C16_4 1_555 1_555
C17_4 C13_4 1_555 1_555
C18_4 C17_4 1_555 1_555
C19_4 C18_4 1_555 1_555
C22_4 C17_4 1_555 1_555
C23_2 C22_4 1_555 1_555
H18_2 C23_2 1_555 1_555
H19_2 C23_2 1_555 1_555
H20_2 C23_2 1_555 1_555
C27_2 C15_4 1_555 1_555
C28_2 C27_2 1_555 1_555
C29_2 C28_2 1_555 1_555
H26_4 C29_2 1_555 1_555
C30_4 C29_2 1_555 1_555
C31_4 C30_4 1_555 1_555
H27_4 C31_4 1_555 1_555
C32_4 C27_2 1_555 1_555
C33_4 C32_4 1_555 1_555
H28_4 C33_4 1_555 1_555
H29_4 C33_4 1_555 1_555
H30_4 C33_4 1_555 1_555
C34_2 C28_2 1_555 1_555
H31_2 C34_2 1_555 1_555
H32_2 C34_2 1_555 1_555
H33_2 C34_2 1_555 1_555
C35_4 O7_4 1_555 1_555
H34_4 C35_4 1_555 1_555
H35_4 C35_4 1_555 1_555
C36_4 C35_4 1_555 1_555
C37_2 H36_2 1_555 1_555
H37_4 C37_2 1_555 1_555
C38_2 C37_2 1_555 1_555
H38_2 C38_2 1_555 1_555
H39_2 C38_2 1_555 1_555
H40_2 C38_2 1_555 1_555
C39_4 N1_4 1_555 1_555
H41_4 C39_4 1_555 1_555
C40_4 N1_4 1_555 1_555
H42_4 C40_4 1_555 1_555
H43_4 C40_4 1_555 1_555
C41_4 C40_4 1_555 1_555
H44_4 C41_4 1_555 1_555
H45_4 C41_4 1_555 1_555
H46_4 C41_4 1_555 1_555
O15_2 Zn8 1_555 1_555
C7_4 C8_4 1_555 1_555
O10_4 C39_4 1_555 1_555
C15_4 C16_4 1_555 1_555
C21_4 C22_4 1_555 1_555
C31_4 C32_4 1_555 1_555
Zn5 O2_4 1_555 1_555
H22_4 C24_4 1_555 1_555
H23_4 C24_4 1_555 1_555
O13_2 Zn5 1_555 1_555
O16_2 C20_4 1_555 1_555
O13_2 C26_4 1_555 1_555
H24_4 C25_4 1_555 1_555
H25_4 C25_4 1_555 1_555
C26_4 C25_4 1_555 1_555
C37_3 H36_3 1_555 1_555
C38_3 C37_3 1_555 1_555
H38_3 C38_3 1_555 1_555
H40_3 C38_3 1_555 1_555
H8_3 C10_3 1_555 1_555
H9_3 C10_3 1_555 1_555
H10_3 C10_3 1_555 1_555
H18_3 C23_3 1_555 1_555
H19_3 C23_3 1_555 1_555
H20_3 C23_3 1_555 1_555
C28_3 C27_3 1_555 1_555
C29_3 C28_3 1_555 1_555
C34_3 C28_3 1_555 1_555
H31_3 C34_3 1_555 1_555
H32_3 C34_3 1_555 1_555
H33_3 C34_3 1_555 1_555
H8_4 C10_4 1_555 1_555
H9_4 C10_4 1_555 1_555
H10_4 C10_4 1_555 1_555
H18_4 C23_4 1_555 1_555
H19_4 C23_4 1_555 1_555
H20_4 C23_4 1_555 1_555
C28_4 C27_4 1_555 1_555
C29_4 C28_4 1_555 1_555
C34_4 C28_4 1_555 1_555
H31_4 C34_4 1_555 1_555
H32_4 C34_4 1_555 1_555
H33_4 C34_4 1_555 1_555
C37_4 H36_4 1_555 1_555
C38_4 C37_4 1_555 1_555
H38_4 C38_4 1_555 1_555
H40_4 C38_4 1_555 1_555
O18 H47 1_555 1_555
O18_2 H47_2 1_555 1_555
O18_3 H47_3 1_555 1_555
O18_4 H47_4 1_555 1_555

#END
