
###############################################################################
#
# This file contains modified crystal structure data generated from the
# MOF subset of the Cambridge Structural Database (CSD) v543 
# hosted by the Cambridge Crystallographic Data Centre (CCDC).
#
# This work is licensed under the Creative Commons
# Attribution-NonCommercial-ShareAlike 4.0 International License.
# To view a copy of this license, visit
# http://creativecommons.org/licenses/by-nc-sa/4.0/
# or send a letter to
# Creative Commons, PO Box 1866, Mountain View, CA 94042, USA.
#
# CIF created using the CSD Python API on 29 September 2022
# The structure has been converted into the P1 space group
# The structure has a 3D framework
# The original CSD entry TAXLIQ01 is in the monoclinic crystal system
# The framework has been calculated to contain at least 10.0% void space
# The void calculation uses a probe of radius 1.32A, grid spacing 0.4
# The framework is charged, counterions have been retained in the structure
#
###############################################################################

data_TAXLIQ01
_chemical_formula_moiety         '(C224 H96 N16 O92 Zn20 12-)n'
_symmetry_cell_setting           triclinic
_symmetry_space_group_name_H-M   'P 1'
_symmetry_Int_Tables_number      1
_space_group_name_Hall           'P 1'
loop_
_symmetry_equiv_pos_site_id
_symmetry_equiv_pos_as_xyz
1 x,y,z
_cell_length_a                   25.386(3)
_cell_length_b                   25.150(3)
_cell_length_c                   17.6282(17)
_cell_angle_alpha                90
_cell_angle_beta                 114.178(3)
_cell_angle_gamma                90
_cell_volume                     10267.6
loop_
_atom_site_label
_atom_site_type_symbol
_atom_site_fract_x
_atom_site_fract_y
_atom_site_fract_z
Zn2 Zn -0.000000 0.44679(5) 0.250000
Zn3 Zn -0.000000 0.15772(5) 0.750000
C1 C 0.1572(3) 0.2923(4) 0.7143(5)
C2 C 0.0965(3) 0.2678(3) 0.6702(5)
C3 C 0.0601(3) 0.2820(3) 0.5900(5)
H1 H 0.072358 0.306196 0.559213
C4 C 0.0044(4) 0.2596(3) 0.5551(5)
C6 C 0.0781(4) 0.2325(3) 0.7143(5)
H3 H 0.103904 0.223183 0.769196
H6 H 0.001678 0.338635 0.452400
N1 N 0.0252(2) 0.2110(2) 0.6825(4)
O1 O 0.1715(2) 0.3248(2) 0.6715(3)
O2 O 0.1878(3) 0.2786(3) 0.7850(4)
Zn4 Zn 0.25175(3) 0.14361(4) 0.25727(5)
C35 C 0.0364(3) 0.2716(3) 0.0316(5)
C36 C 0.0841(4) 0.2380(3) 0.0730(5)
H16 H 0.090008 0.208160 0.044281
C37 C 0.1227(3) 0.2474(4) 0.1549(5)
C38 C 0.1138(3) 0.2903(3) 0.1960(5)
H17 H 0.139674 0.296473 0.252146
C39 C 0.0680(3) 0.3248(3) 0.1579(5)
C40 C 0.0296(3) 0.3149(3) 0.0746(5)
C41 C 0.1711(4) 0.2097(4) 0.1980(7)
C42 C 0.0590(4) 0.3704(4) 0.2057(5)
C43 C 0.4125(4) 0.0125(3) 0.2212(6)
C44 C 0.3532(3) 0.0387(3) 0.1778(5)
C45 C 0.3199(3) 0.0294(3) 0.0941(5)
H19 H 0.334631 0.009001 0.061694
C46 C 0.2625(3) 0.0512(3) 0.0574(5)
C47 C 0.2463(3) 0.0834(3) 0.1063(4)
H20 H 0.209094 0.099200 0.082566
C48 C 0.3320(3) 0.0717(3) 0.2206(5)
H21 H 0.355499 0.078770 0.277422
N4 N 0.2804(3) 0.0942(3) 0.1868(4)
O15 O 0.0122(2) 0.3970(2) 0.1697(3)
O16 O 0.0948(3) 0.3788(3) 0.2751(4)
O17 O 0.1990(3) 0.2110(3) 0.2747(4)
O18 O 0.1826(2) 0.1759(2) 0.1529(4)
O20 O 0.4366(3) 0.0168(3) 0.2982(4)
Zn8 Zn 0.24825(3) 0.35639(4) 0.74273(5)
O25 O 0.3285(2) 0.1752(2) 0.3285(3)
O27 O 0.0683(2) 0.4877(2) 0.3257(3)
O29 O 0.2452(2) 0.0904(2) 0.3368(3)
O31 O 0.0532(2) 0.0908(2) 0.7299(3)
O32 O 0.0796(2) 0.1385(2) 0.8454(3)
C33 C 0.0103(3) 0.2257(3) 0.8960(5)
H14 H 0.048184 0.211257 0.918784
C49 C 0.2241(3) 0.0412(3) 0.9673(4)
C50 C 0.1773(3) 0.0747(3) 0.9270(5)
H22 H 0.171471 0.104771 0.955287
C51 C 0.1390(3) 0.0644(3) 0.8453(5)
C52 C 0.1478(3) 0.0212(3) 0.8040(5)
H23 H 0.120838 0.013603 0.748969
C55 C 0.0885(3) 0.1003(3) 0.8043(5)
O19 O 0.4317(2) 0.9877(2) 0.1743(3)
Zn10 Zn 0.500000 0.94679(5) 0.250000
C53 C 0.1958(3) 0.9884(3) 0.8419(5)
C54 C 0.2325(3) 0.9981(3) 0.9263(5)
H24 H 0.263463 0.974373 0.954756
C56 C 0.2043(4) 0.9404(4) 0.7970(6)
O21 O 0.2452(2) 0.9096(2) 0.8368(3)
O22 O 0.1712(3) 0.9344(3) 0.7236(4)
Zn5 Zn 0.25175(3) 0.85639(4) 0.75727(5)
Zn1 Zn 0.74825(3) 0.14361(4) 0.24273(5)
Zn2_2 Zn 1.000000 0.44679(5) 0.250000
Zn3_2 Zn 1.000000 0.15772(5) 0.750000
C5 C 0.9897(3) 0.2257(3) 0.6040(5)
H2 H 0.951816 0.211257 0.581216
C7 C 0.9636(3) 0.2716(3) 0.4684(5)
C8 C 0.9159(4) 0.2380(3) 0.4270(5)
H4 H 0.909992 0.208160 0.455719
C9 C 0.8773(3) 0.2474(4) 0.3451(5)
C10 C 0.8862(3) 0.2903(3) 0.3040(5)
H5 H 0.860326 0.296473 0.247854
C11 C 0.9320(3) 0.3248(3) 0.3421(5)
C12 C 0.9704(3) 0.3149(3) 0.4254(5)
C13 C 0.8289(4) 0.2097(4) 0.3020(7)
C14 C 0.9410(4) 0.3704(4) 0.2943(5)
C15 C 0.5875(4) 0.0125(3) 0.2788(6)
C16 C 0.6468(3) 0.0387(3) 0.3222(5)
C17 C 0.6801(3) 0.0294(3) 0.4059(5)
H7 H 0.665369 0.009001 0.438306
C18 C 0.7375(3) 0.0512(3) 0.4426(5)
C19 C 0.7537(3) 0.0834(3) 0.3937(4)
H8 H 0.790906 0.099200 0.417434
C20 C 0.6680(3) 0.0717(3) 0.2794(5)
H9 H 0.644501 0.078770 0.222578
C21 C 0.7759(3) 0.0412(3) 0.5327(4)
C22 C 0.8227(3) 0.0747(3) 0.5730(5)
H10 H 0.828529 0.104771 0.544713
C23 C 0.8610(3) 0.0644(3) 0.6547(5)
C24 C 0.8522(3) 0.0212(3) 0.6960(5)
H11 H 0.879162 0.013603 0.751031
C27 C 0.9115(3) 0.1003(3) 0.6957(5)
N2 N 0.7196(3) 0.0942(3) 0.3132(4)
O3 O 0.9878(2) 0.3970(2) 0.3303(3)
O4 O 0.9052(3) 0.3788(3) 0.2249(4)
O5 O 0.8010(3) 0.2110(3) 0.2253(4)
O6 O 0.8174(2) 0.1759(2) 0.3471(4)
O8 O 0.5634(3) 0.0168(3) 0.2018(4)
O11 O 0.9468(2) 0.0908(2) 0.7701(3)
O12 O 0.9204(2) 0.1385(2) 0.6546(3)
H18 H 0.998322 0.338635 0.047600
N5 N 0.9748(2) 0.2110(2) 0.8175(4)
O26 O 0.6715(2) 0.1752(2) 0.1715(3)
O28 O 0.9317(2) 0.4877(2) 0.1743(3)
O30 O 0.7548(2) 0.0904(2) 0.1632(3)
C29 C 0.8428(3) 0.2923(4) 0.7857(5)
C30 C 0.9035(3) 0.2678(3) 0.8298(5)
C31 C 0.9399(3) 0.2820(3) 0.9100(5)
H13 H 0.927642 0.306196 0.940787
C32 C 0.9956(4) 0.2596(3) 0.9449(5)
C34 C 0.9219(4) 0.2325(3) 0.7857(5)
H15 H 0.896096 0.223183 0.730804
O13 O 0.8285(2) 0.3248(2) 0.8285(3)
O14 O 0.8122(3) 0.2786(3) 0.7150(4)
Zn7 Zn 0.75175(3) 0.35639(4) 0.75727(5)
C25 C 0.8042(3) 0.9884(3) 0.6581(5)
C26 C 0.7675(3) 0.9981(3) 0.5737(5)
H12 H 0.736537 0.974373 0.545244
C28 C 0.7957(4) 0.9404(4) 0.7030(6)
O7 O 0.5683(2) 0.9877(2) 0.3257(3)
O9 O 0.7548(2) 0.9096(2) 0.6632(3)
O10 O 0.8288(3) 0.9344(3) 0.7764(4)
Zn6 Zn 0.74825(3) 0.85639(4) 0.74273(5)
Zn1_2 Zn 0.24825(3) 0.64361(4) 0.24273(5)
Zn3_3 Zn 0.500000 0.65772(5) 0.750000
C1_2 C 0.6572(3) 0.7923(4) 0.7143(5)
C2_2 C 0.5965(3) 0.7678(3) 0.6702(5)
C3_2 C 0.5601(3) 0.7820(3) 0.5900(5)
H1_2 H 0.572358 0.806196 0.559213
C4_2 C 0.5044(4) 0.7596(3) 0.5551(5)
C5_2 C 0.4897(3) 0.7257(3) 0.6040(5)
H2_2 H 0.451816 0.711257 0.581216
C6_2 C 0.5781(4) 0.7325(3) 0.7143(5)
H3_2 H 0.603904 0.723183 0.769196
C7_2 C 0.4636(3) 0.7716(3) 0.4684(5)
C8_2 C 0.4159(4) 0.7380(3) 0.4270(5)
H4_2 H 0.409992 0.708160 0.455719
C9_2 C 0.3773(3) 0.7474(4) 0.3451(5)
C10_2 C 0.3862(3) 0.7903(3) 0.3040(5)
H5_2 H 0.360326 0.796473 0.247854
C11_2 C 0.4320(3) 0.8248(3) 0.3421(5)
C12_2 C 0.4704(3) 0.8149(3) 0.4254(5)
H6_2 H 0.501678 0.838635 0.452400
C13_2 C 0.3289(4) 0.7097(4) 0.3020(7)
C14_2 C 0.4410(4) 0.8704(4) 0.2943(5)
C15_2 C 0.0875(4) 0.5125(3) 0.2788(6)
C16_2 C 0.1468(3) 0.5387(3) 0.3222(5)
C17_2 C 0.1801(3) 0.5294(3) 0.4059(5)
H7_2 H 0.165369 0.509001 0.438306
C18_2 C 0.2375(3) 0.5512(3) 0.4426(5)
C19_2 C 0.2537(3) 0.5834(3) 0.3937(4)
H8_2 H 0.290906 0.599200 0.417434
C20_2 C 0.1680(3) 0.5717(3) 0.2794(5)
H9_2 H 0.144501 0.578770 0.222578
C21_2 C 0.2759(3) 0.5412(3) 0.5327(4)
C22_2 C 0.3227(3) 0.5747(3) 0.5730(5)
H10_2 H 0.328529 0.604771 0.544713
C23_2 C 0.3610(3) 0.5644(3) 0.6547(5)
C24_2 C 0.3522(3) 0.5212(3) 0.6960(5)
H11_2 H 0.379162 0.513603 0.751031
C25_2 C 0.3042(3) 0.4884(3) 0.6581(5)
C26_2 C 0.2675(3) 0.4981(3) 0.5737(5)
H12_2 H 0.236537 0.474373 0.545244
C27_2 C 0.4115(3) 0.6003(3) 0.6957(5)
C28_2 C 0.2957(4) 0.4404(4) 0.7030(6)
N1_2 N 0.5252(2) 0.7110(2) 0.6825(4)
N2_2 N 0.2196(3) 0.5942(3) 0.3132(4)
O1_2 O 0.6715(2) 0.8248(2) 0.6715(3)
O2_2 O 0.6878(3) 0.7786(3) 0.7850(4)
O3_2 O 0.4878(2) 0.8970(2) 0.3303(3)
O4_2 O 0.4052(3) 0.8788(3) 0.2249(4)
O5_2 O 0.3010(3) 0.7110(3) 0.2253(4)
O6_2 O 0.3174(2) 0.6759(2) 0.3471(4)
O8_2 O 0.0634(3) 0.5168(3) 0.2018(4)
O9_2 O 0.2548(2) 0.4096(2) 0.6632(3)
O10_2 O 0.3288(3) 0.4344(3) 0.7764(4)
O11_2 O 0.4468(2) 0.5908(2) 0.7701(3)
O12_2 O 0.4204(2) 0.6385(2) 0.6546(3)
Zn4_2 Zn 0.75175(3) 0.64361(4) 0.25727(5)
C35_2 C 0.5364(3) 0.7716(3) 0.0316(5)
C36_2 C 0.5841(4) 0.7380(3) 0.0730(5)
H16_2 H 0.590008 0.708160 0.044281
C37_2 C 0.6227(3) 0.7474(4) 0.1549(5)
C38_2 C 0.6138(3) 0.7903(3) 0.1960(5)
H17_2 H 0.639674 0.796473 0.252146
C39_2 C 0.5680(3) 0.8248(3) 0.1579(5)
C40_2 C 0.5296(3) 0.8149(3) 0.0746(5)
H18_2 H 0.498322 0.838635 0.047600
C41_2 C 0.6711(4) 0.7097(4) 0.1980(7)
C42_2 C 0.5590(4) 0.8704(4) 0.2057(5)
C43_2 C 0.9125(4) 0.5125(3) 0.2212(6)
C44_2 C 0.8532(3) 0.5387(3) 0.1778(5)
C45_2 C 0.8199(3) 0.5294(3) 0.0941(5)
H19_2 H 0.834631 0.509001 0.061694
C46_2 C 0.7625(3) 0.5512(3) 0.0574(5)
C47_2 C 0.7463(3) 0.5834(3) 0.1063(4)
H20_2 H 0.709094 0.599200 0.082566
C48_2 C 0.8320(3) 0.5717(3) 0.2206(5)
H21_2 H 0.855499 0.578770 0.277422
N4_2 N 0.7804(3) 0.5942(3) 0.1868(4)
O15_2 O 0.5122(2) 0.8970(2) 0.1697(3)
O16_2 O 0.5948(3) 0.8788(3) 0.2751(4)
O17_2 O 0.6990(3) 0.7110(3) 0.2747(4)
O18_2 O 0.6826(2) 0.6759(2) 0.1529(4)
O20_2 O 0.9366(3) 0.5168(3) 0.2982(4)
N5_2 N 0.4748(2) 0.7110(2) 0.8175(4)
O25_2 O 0.8285(2) 0.6752(2) 0.3285(3)
O26_2 O 0.1715(2) 0.6752(2) 0.1715(3)
O29_2 O 0.7452(2) 0.5904(2) 0.3368(3)
O30_2 O 0.2548(2) 0.5904(2) 0.1632(3)
O31_2 O 0.5532(2) 0.5908(2) 0.7299(3)
O32_2 O 0.5796(2) 0.6385(2) 0.8454(3)
C29_2 C 0.3428(3) 0.7923(4) 0.7857(5)
C30_2 C 0.4035(3) 0.7678(3) 0.8298(5)
C31_2 C 0.4399(3) 0.7820(3) 0.9100(5)
H13_2 H 0.427642 0.806196 0.940787
C32_2 C 0.4956(4) 0.7596(3) 0.9449(5)
C33_2 C 0.5103(3) 0.7257(3) 0.8960(5)
H14_2 H 0.548184 0.711257 0.918784
C34_2 C 0.4219(4) 0.7325(3) 0.7857(5)
H15_2 H 0.396096 0.723183 0.730804
C49_2 C 0.7241(3) 0.5412(3) 0.9673(4)
C50_2 C 0.6773(3) 0.5747(3) 0.9270(5)
H22_2 H 0.671471 0.604771 0.955287
C51_2 C 0.6390(3) 0.5644(3) 0.8453(5)
C52_2 C 0.6478(3) 0.5212(3) 0.8040(5)
H23_2 H 0.620838 0.513603 0.748969
C53_2 C 0.6958(3) 0.4884(3) 0.8419(5)
C54_2 C 0.7325(3) 0.4981(3) 0.9263(5)
H24_2 H 0.763463 0.474373 0.954756
C55_2 C 0.5885(3) 0.6003(3) 0.8043(5)
C56_2 C 0.7043(4) 0.4404(4) 0.7970(6)
O13_2 O 0.3285(2) 0.8248(2) 0.8285(3)
O14_2 O 0.3122(3) 0.7786(3) 0.7150(4)
O21_2 O 0.7452(2) 0.4096(2) 0.8368(3)
O22_2 O 0.6712(3) 0.4344(3) 0.7236(4)
C25_3 C 0.1958(3) 0.0116(3) 0.3419(5)
C26_3 C 0.2325(3) 0.0019(3) 0.4263(5)
H12_3 H 0.263463 0.025627 0.454756
C28_3 C 0.2043(4) 0.0596(4) 0.2970(6)
O7_2 O 0.4317(2) 0.0123(2) 0.6743(3)
O10_3 O 0.1712(3) 0.0656(3) 0.2236(4)
Zn9 Zn 0.500000 0.05321(5) 0.750000
C29_3 C 0.1572(3) 0.7077(4) 0.2143(5)
C30_3 C 0.0965(3) 0.7322(3) 0.1702(5)
C31_3 C 0.0601(3) 0.7180(3) 0.0900(5)
H13_3 H 0.072358 0.693804 0.059213
C32_3 C 0.0044(4) 0.7404(3) 0.0551(5)
C34_3 C 0.0781(4) 0.7675(3) 0.2143(5)
H15_3 H 0.103904 0.776817 0.269196
N3 N 0.0252(2) 0.7890(2) 0.1825(4)
O14_3 O 0.1878(3) 0.7214(3) 0.2850(4)
Zn11 Zn -0.000000 0.84228(5) 0.250000
Zn2_3 Zn -0.000000 0.55321(5) 0.750000
C5_3 C 0.0103(3) 0.7743(3) 0.3960(5)
H2_3 H 0.048184 0.788743 0.418784
C7_3 C 0.0364(3) 0.7284(3) 0.5316(5)
C8_3 C 0.0841(4) 0.7620(3) 0.5730(5)
H4_3 H 0.090008 0.791840 0.544281
C9_3 C 0.1227(3) 0.7526(4) 0.6549(5)
C10_3 C 0.1138(3) 0.7097(3) 0.6960(5)
H5_3 H 0.139674 0.703527 0.752146
C11_3 C 0.0680(3) 0.6752(3) 0.6579(5)
C12_3 C 0.0296(3) 0.6851(3) 0.5746(5)
C13_3 C 0.1711(4) 0.7903(4) 0.6980(7)
C14_3 C 0.0590(4) 0.6296(4) 0.7057(5)
C15_3 C 0.4125(4) 0.9875(3) 0.7212(6)
C16_3 C 0.3532(3) 0.9613(3) 0.6778(5)
C17_3 C 0.3199(3) 0.9706(3) 0.5941(5)
H7_3 H 0.334631 0.990999 0.561694
C18_3 C 0.2625(3) 0.9488(3) 0.5574(5)
C19_3 C 0.2463(3) 0.9166(3) 0.6063(4)
H8_3 H 0.209094 0.900800 0.582566
C20_3 C 0.3320(3) 0.9283(3) 0.7206(5)
H9_3 H 0.355499 0.921230 0.777422
C21_3 C 0.2241(3) 0.9588(3) 0.4673(4)
C22_3 C 0.1773(3) 0.9253(3) 0.4270(5)
H10_3 H 0.171471 0.895229 0.455287
C23_3 C 0.1390(3) 0.9356(3) 0.3453(5)
C24_3 C 0.1478(3) 0.9788(3) 0.3040(5)
H11_3 H 0.120838 0.986397 0.248969
C27_3 C 0.0885(3) 0.8997(3) 0.3043(5)
N2_3 N 0.2804(3) 0.9058(3) 0.6868(4)
O3_3 O 0.0122(2) 0.6030(2) 0.6697(3)
O4_3 O 0.0948(3) 0.6212(3) 0.7751(4)
O5_3 O 0.1990(3) 0.7890(3) 0.7747(4)
O6_3 O 0.1826(2) 0.8241(2) 0.6529(4)
O8_3 O 0.4366(3) 0.9832(3) 0.7982(4)
O11_3 O 0.0532(2) 0.9092(2) 0.2299(3)
O12_3 O 0.0796(2) 0.8615(2) 0.3454(3)
H18_3 H 0.001678 0.661365 0.952400
O28_2 O 0.0683(2) 0.5123(2) 0.8257(3)
C53_3 C 0.8042(3) 0.0116(3) 0.1581(5)
C54_3 C 0.7675(3) 0.0019(3) 0.0737(5)
H24_3 H 0.736537 0.025627 0.045244
C56_3 C 0.7957(4) 0.0596(4) 0.2030(6)
O22_3 O 0.8288(3) 0.0656(3) 0.2764(4)
O19_2 O 0.5683(2) 0.0123(2) 0.8257(3)
C33_3 C 0.9897(3) 0.7743(3) 0.1040(5)
H14_3 H 0.951816 0.788743 0.081216
C49_3 C 0.7759(3) 0.9588(3) 0.0327(4)
C50_3 C 0.8227(3) 0.9253(3) 0.0730(5)
H22_3 H 0.828529 0.895229 0.044713
C51_3 C 0.8610(3) 0.9356(3) 0.1547(5)
C52_3 C 0.8522(3) 0.9788(3) 0.1960(5)
H23_3 H 0.879162 0.986397 0.251031
C55_3 C 0.9115(3) 0.8997(3) 0.1957(5)
O23 O 0.9468(2) 0.9092(2) 0.2701(3)
O24 O 0.9204(2) 0.8615(2) 0.1546(3)
Zn11_2 Zn 1.000000 0.84228(5) 0.250000
Zn2_4 Zn 1.000000 0.55321(5) 0.750000
C1_3 C 0.8428(3) 0.7077(4) 0.2857(5)
C2_3 C 0.9035(3) 0.7322(3) 0.3298(5)
C3_3 C 0.9399(3) 0.7180(3) 0.4100(5)
H1_3 H 0.927642 0.693804 0.440787
C4_3 C 0.9956(4) 0.7404(3) 0.4449(5)
C6_3 C 0.9219(4) 0.7675(3) 0.2857(5)
H3_3 H 0.896096 0.776817 0.230804
H6_3 H 0.998322 0.661365 0.547600
N1_3 N 0.9748(2) 0.7890(2) 0.3175(4)
O2_3 O 0.8122(3) 0.7214(3) 0.2150(4)
C35_3 C 0.9636(3) 0.7284(3) 0.9684(5)
C36_3 C 0.9159(4) 0.7620(3) 0.9270(5)
H16_3 H 0.909992 0.791840 0.955719
C37_3 C 0.8773(3) 0.7526(4) 0.8451(5)
C38_3 C 0.8862(3) 0.7097(3) 0.8040(5)
H17_3 H 0.860326 0.703527 0.747854
C39_3 C 0.9320(3) 0.6752(3) 0.8421(5)
C40_3 C 0.9704(3) 0.6851(3) 0.9254(5)
C41_3 C 0.8289(4) 0.7903(4) 0.8020(7)
C42_3 C 0.9410(4) 0.6296(4) 0.7943(5)
C43_3 C 0.5875(4) 0.9875(3) 0.7788(6)
C44_3 C 0.6468(3) 0.9613(3) 0.8222(5)
C45_3 C 0.6801(3) 0.9706(3) 0.9059(5)
H19_3 H 0.665369 0.990999 0.938306
C46_3 C 0.7375(3) 0.9488(3) 0.9426(5)
C47_3 C 0.7537(3) 0.9166(3) 0.8937(4)
H20_3 H 0.790906 0.900800 0.917434
C48_3 C 0.6680(3) 0.9283(3) 0.7794(5)
H21_3 H 0.644501 0.921230 0.722578
N4_3 N 0.7196(3) 0.9058(3) 0.8132(4)
O15_3 O 0.9878(2) 0.6030(2) 0.8303(3)
O16_3 O 0.9052(3) 0.6212(3) 0.7249(4)
O17_3 O 0.8010(3) 0.7890(3) 0.7253(4)
O18_3 O 0.8174(2) 0.8241(2) 0.8471(4)
O20_3 O 0.5634(3) 0.9832(3) 0.7018(4)
O27_2 O 0.9317(2) 0.5123(2) 0.6743(3)
C29_4 C 0.6572(3) 0.2077(4) 0.2143(5)
C30_4 C 0.5965(3) 0.2322(3) 0.1702(5)
C31_4 C 0.5601(3) 0.2180(3) 0.0900(5)
H13_4 H 0.572358 0.193804 0.059213
C32_4 C 0.5044(4) 0.2404(3) 0.0551(5)
C33_4 C 0.4897(3) 0.2743(3) 0.1040(5)
H14_4 H 0.451816 0.288743 0.081216
C34_4 C 0.5781(4) 0.2675(3) 0.2143(5)
H15_4 H 0.603904 0.276817 0.269196
C49_4 C 0.2759(3) 0.4588(3) 0.0327(4)
C50_4 C 0.3227(3) 0.4253(3) 0.0730(5)
H22_4 H 0.328529 0.395229 0.044713
C51_4 C 0.3610(3) 0.4356(3) 0.1547(5)
C52_4 C 0.3522(3) 0.4788(3) 0.1960(5)
H23_4 H 0.379162 0.486397 0.251031
C53_4 C 0.3042(3) 0.5116(3) 0.1581(5)
C54_4 C 0.2675(3) 0.5019(3) 0.0737(5)
H24_4 H 0.236537 0.525627 0.045244
C55_4 C 0.4115(3) 0.3997(3) 0.1957(5)
C56_4 C 0.2957(4) 0.5596(4) 0.2030(6)
N3_2 N 0.5252(2) 0.2890(2) 0.1825(4)
O14_4 O 0.6878(3) 0.2214(3) 0.2850(4)
O22_4 O 0.3288(3) 0.5656(3) 0.2764(4)
O23_2 O 0.4468(2) 0.4092(2) 0.2701(3)
O24_2 O 0.4204(2) 0.3615(2) 0.1546(3)
Zn11_3 Zn 0.500000 0.34228(5) 0.250000
C1_4 C 0.3428(3) 0.2077(4) 0.2857(5)
C2_4 C 0.4035(3) 0.2322(3) 0.3298(5)
C3_4 C 0.4399(3) 0.2180(3) 0.4100(5)
H1_4 H 0.427642 0.193804 0.440787
C4_4 C 0.4956(4) 0.2404(3) 0.4449(5)
C5_4 C 0.5103(3) 0.2743(3) 0.3960(5)
H2_4 H 0.548184 0.288743 0.418784
C6_4 C 0.4219(4) 0.2675(3) 0.2857(5)
H3_4 H 0.396096 0.276817 0.230804
C7_4 C 0.5364(3) 0.2284(3) 0.5316(5)
C8_4 C 0.5841(4) 0.2620(3) 0.5730(5)
H4_4 H 0.590008 0.291840 0.544281
C9_4 C 0.6227(3) 0.2526(4) 0.6549(5)
C10_4 C 0.6138(3) 0.2097(3) 0.6960(5)
H5_4 H 0.639674 0.203527 0.752146
C11_4 C 0.5680(3) 0.1752(3) 0.6579(5)
C12_4 C 0.5296(3) 0.1851(3) 0.5746(5)
H6_4 H 0.498322 0.161365 0.547600
C13_4 C 0.6711(4) 0.2903(4) 0.6980(7)
C14_4 C 0.5590(4) 0.1296(4) 0.7057(5)
C15_4 C 0.9125(4) 0.4875(3) 0.7212(6)
C16_4 C 0.8532(3) 0.4613(3) 0.6778(5)
C17_4 C 0.8199(3) 0.4706(3) 0.5941(5)
H7_4 H 0.834631 0.490999 0.561694
C18_4 C 0.7625(3) 0.4488(3) 0.5574(5)
C19_4 C 0.7463(3) 0.4166(3) 0.6063(4)
H8_4 H 0.709094 0.400800 0.582566
C20_4 C 0.8320(3) 0.4283(3) 0.7206(5)
H9_4 H 0.855499 0.421230 0.777422
C21_4 C 0.7241(3) 0.4588(3) 0.4673(4)
C22_4 C 0.6773(3) 0.4253(3) 0.4270(5)
H10_4 H 0.671471 0.395229 0.455287
C23_4 C 0.6390(3) 0.4356(3) 0.3453(5)
C24_4 C 0.6478(3) 0.4788(3) 0.3040(5)
H11_4 H 0.620838 0.486397 0.248969
C25_4 C 0.6958(3) 0.5116(3) 0.3419(5)
C26_4 C 0.7325(3) 0.5019(3) 0.4263(5)
H12_4 H 0.763463 0.525627 0.454756
C27_4 C 0.5885(3) 0.3997(3) 0.3043(5)
C28_4 C 0.7043(4) 0.5596(4) 0.2970(6)
N1_4 N 0.4748(2) 0.2890(2) 0.3175(4)
N2_4 N 0.7804(3) 0.4058(3) 0.6868(4)
O2_4 O 0.3122(3) 0.2214(3) 0.2150(4)
O3_4 O 0.5122(2) 0.1030(2) 0.6697(3)
O4_4 O 0.5948(3) 0.1212(3) 0.7751(4)
O5_4 O 0.6990(3) 0.2890(3) 0.7747(4)
O6_4 O 0.6826(2) 0.3241(2) 0.6529(4)
O8_4 O 0.9366(3) 0.4832(3) 0.7982(4)
O10_4 O 0.6712(3) 0.5656(3) 0.2236(4)
O11_4 O 0.5532(2) 0.4092(2) 0.2299(3)
O12_4 O 0.5796(2) 0.3615(2) 0.3454(3)
C35_4 C 0.4636(3) 0.2284(3) 0.9684(5)
C36_4 C 0.4159(4) 0.2620(3) 0.9270(5)
H16_4 H 0.409992 0.291840 0.955719
C37_4 C 0.3773(3) 0.2526(4) 0.8451(5)
C38_4 C 0.3862(3) 0.2097(3) 0.8040(5)
H17_4 H 0.360326 0.203527 0.747854
C39_4 C 0.4320(3) 0.1752(3) 0.8421(5)
C40_4 C 0.4704(3) 0.1851(3) 0.9254(5)
H18_4 H 0.501678 0.161365 0.952400
C41_4 C 0.3289(4) 0.2903(4) 0.8020(7)
C42_4 C 0.4410(4) 0.1296(4) 0.7943(5)
C43_4 C 0.0875(4) 0.4875(3) 0.7788(6)
C44_4 C 0.1468(3) 0.4613(3) 0.8222(5)
C45_4 C 0.1801(3) 0.4706(3) 0.9059(5)
H19_4 H 0.165369 0.490999 0.938306
C46_4 C 0.2375(3) 0.4488(3) 0.9426(5)
C47_4 C 0.2537(3) 0.4166(3) 0.8937(4)
H20_4 H 0.290906 0.400800 0.917434
C48_4 C 0.1680(3) 0.4283(3) 0.7794(5)
H21_4 H 0.144501 0.421230 0.722578
N4_4 N 0.2196(3) 0.4058(3) 0.8132(4)
O15_4 O 0.4878(2) 0.1030(2) 0.8303(3)
O16_4 O 0.4052(3) 0.1212(3) 0.7249(4)
O17_4 O 0.3010(3) 0.2890(3) 0.7253(4)
O18_4 O 0.3174(2) 0.3241(2) 0.8471(4)
O20_4 O 0.0634(3) 0.4832(3) 0.7018(4)
loop_
_geom_bond_atom_site_label_1
_geom_bond_atom_site_label_2
_geom_bond_site_symmetry_1
_geom_bond_site_symmetry_2
Zn3 N1 1_555 1_555
C1 C2 1_555 1_555
C2 C3 1_555 1_555
C3 H1 1_555 1_555
C4 C3 1_555 1_555
C6 C2 1_555 1_555
H3 C6 1_555 1_555
O1 C1 1_555 1_555
O2 C1 1_555 1_555
Zn4 N4 1_555 1_555
C36 C35 1_555 1_555
H16 C36 1_555 1_555
C37 C36 1_555 1_555
C38 C37 1_555 1_555
H17 C38 1_555 1_555
C39 C38 1_555 1_555
C40 C35 1_555 1_555
C41 C37 1_555 1_555
C42 C39 1_555 1_555
C43 C44 1_555 1_555
C44 C45 1_555 1_555
C45 H19 1_555 1_555
C46 C45 1_555 1_555
C47 C46 1_555 1_555
H20 C47 1_555 1_555
C48 C44 1_555 1_555
H21 C48 1_555 1_555
N4 C47 1_555 1_555
O15 Zn2 1_555 1_555
O16 C42 1_555 1_555
O17 Zn4 1_555 1_555
O18 Zn4 1_555 1_555
O20 C43 1_555 1_555
Zn8 O1 1_555 1_555
O25 Zn4 1_555 1_555
O27 Zn2 1_555 1_555
O29 Zn4 1_555 1_555
O31 Zn3 1_555 1_555
O32 Zn3 1_555 1_555
C6 N1 1_555 1_555
C39 C40 1_555 1_555
C41 O17 1_555 1_555
C41 O18 1_555 1_555
C42 O15 1_555 1_555
C48 N4 1_555 1_555
H14 C33 1_555 1_555
C50 C49 1_555 1_555
H22 C50 1_555 1_555
C51 C50 1_555 1_555
C52 C51 1_555 1_555
H23 C52 1_555 1_555
C55 C51 1_555 1_555
O31 C55 1_555 1_555
O32 C55 1_555 1_555
Zn10 O19 1_555 1_555
H24 C54 1_555 1_555
C56 C53 1_555 1_555
O21 C56 1_555 1_555
O22 C56 1_555 1_555
Zn5 O21 1_555 1_555
C53 C54 1_555 1_555
Zn1 N2 1_555 1_555
Zn2_2 O3 1_555 1_555
H2 C5 1_555 1_555
C8 C7 1_555 1_555
H4 C8 1_555 1_555
C9 C8 1_555 1_555
C10 C9 1_555 1_555
H5 C10 1_555 1_555
C11 C10 1_555 1_555
C12 C7 1_555 1_555
C13 C9 1_555 1_555
C14 C11 1_555 1_555
C15 C16 1_555 1_555
C16 C17 1_555 1_555
C17 H7 1_555 1_555
C18 C17 1_555 1_555
C19 C18 1_555 1_555
H8 C19 1_555 1_555
C20 C16 1_555 1_555
H9 C20 1_555 1_555
C21 C18 1_555 1_555
C22 C21 1_555 1_555
H10 C22 1_555 1_555
C23 C22 1_555 1_555
C24 C23 1_555 1_555
H11 C24 1_555 1_555
C27 C23 1_555 1_555
N2 C19 1_555 1_555
O3 C14 1_555 1_555
O4 C14 1_555 1_555
O5 Zn1 1_555 1_555
O6 Zn1 1_555 1_555
O8 C15 1_555 1_555
O11 Zn3_2 1_555 1_555
O12 Zn3_2 1_555 1_555
N5 Zn3_2 1_555 1_555
O26 Zn1 1_555 1_555
O28 Zn2_2 1_555 1_555
O30 Zn1 1_555 1_555
C11 C12 1_555 1_555
C13 O5 1_555 1_555
C13 O6 1_555 1_555
C20 N2 1_555 1_555
C27 O11 1_555 1_555
C27 O12 1_555 1_555
C29 C30 1_555 1_555
C30 C31 1_555 1_555
C31 H13 1_555 1_555
C32 C31 1_555 1_555
C34 C30 1_555 1_555
H15 C34 1_555 1_555
O13 C29 1_555 1_555
O14 C29 1_555 1_555
Zn7 O13 1_555 1_555
C34 N5 1_555 1_555
H12 C26 1_555 1_555
C28 C25 1_555 1_555
O9 C28 1_555 1_555
O10 C28 1_555 1_555
Zn6 O9 1_555 1_555
Zn10 O7 1_555 1_555
C25 C26 1_555 1_555
Zn1_2 N2_2 1_555 1_555
Zn10 O3_2 1_555 1_555
Zn3_3 N1_2 1_555 1_555
C1_2 C2_2 1_555 1_555
C2_2 C3_2 1_555 1_555
C3_2 H1_2 1_555 1_555
C4_2 C3_2 1_555 1_555
C5_2 C4_2 1_555 1_555
H2_2 C5_2 1_555 1_555
C6_2 C2_2 1_555 1_555
H3_2 C6_2 1_555 1_555
C7_2 C4_2 1_555 1_555
C8_2 C7_2 1_555 1_555
H4_2 C8_2 1_555 1_555
C9_2 C8_2 1_555 1_555
C10_2 C9_2 1_555 1_555
H5_2 C10_2 1_555 1_555
C11_2 C10_2 1_555 1_555
C12_2 C7_2 1_555 1_555
H6_2 C12_2 1_555 1_555
C13_2 C9_2 1_555 1_555
C14_2 C11_2 1_555 1_555
C15_2 C16_2 1_555 1_555
C16_2 C17_2 1_555 1_555
C17_2 H7_2 1_555 1_555
C18_2 C17_2 1_555 1_555
C19_2 C18_2 1_555 1_555
H8_2 C19_2 1_555 1_555
C20_2 C16_2 1_555 1_555
H9_2 C20_2 1_555 1_555
C21_2 C18_2 1_555 1_555
C22_2 C21_2 1_555 1_555
H10_2 C22_2 1_555 1_555
C23_2 C22_2 1_555 1_555
C24_2 C23_2 1_555 1_555
H11_2 C24_2 1_555 1_555
C25_2 C24_2 1_555 1_555
C26_2 C21_2 1_555 1_555
H12_2 C26_2 1_555 1_555
C27_2 C23_2 1_555 1_555
C28_2 C25_2 1_555 1_555
N1_2 C5_2 1_555 1_555
N2_2 C19_2 1_555 1_555
O1_2 C1_2 1_555 1_555
O2_2 C1_2 1_555 1_555
O3_2 C14_2 1_555 1_555
O4_2 C14_2 1_555 1_555
O5_2 Zn1_2 1_555 1_555
O6_2 Zn1_2 1_555 1_555
O27 C15_2 1_555 1_555
O8_2 C15_2 1_555 1_555
O9_2 C28_2 1_555 1_555
O10_2 C28_2 1_555 1_555
O11_2 Zn3_3 1_555 1_555
O12_2 Zn3_3 1_555 1_555
Zn4_2 N4_2 1_555 1_555
C36_2 C35_2 1_555 1_555
H16_2 C36_2 1_555 1_555
C37_2 C36_2 1_555 1_555
C38_2 C37_2 1_555 1_555
H17_2 C38_2 1_555 1_555
C39_2 C38_2 1_555 1_555
C40_2 C35_2 1_555 1_555
H18_2 C40_2 1_555 1_555
C41_2 C37_2 1_555 1_555
C42_2 C39_2 1_555 1_555
C43_2 C44_2 1_555 1_555
C44_2 C45_2 1_555 1_555
C45_2 H19_2 1_555 1_555
C46_2 C45_2 1_555 1_555
C47_2 C46_2 1_555 1_555
H20_2 C47_2 1_555 1_555
C48_2 C44_2 1_555 1_555
H21_2 C48_2 1_555 1_555
N4_2 C47_2 1_555 1_555
O15_2 Zn10 1_555 1_555
O16_2 C42_2 1_555 1_555
O17_2 Zn4_2 1_555 1_555
O18_2 Zn4_2 1_555 1_555
O28 C43_2 1_555 1_555
O20_2 C43_2 1_555 1_555
Zn8 O9_2 1_555 1_555
Zn6 O1_2 1_555 1_555
N5_2 Zn3_3 1_555 1_555
O25_2 Zn4_2 1_555 1_555
O26_2 Zn1_2 1_555 1_555
O29_2 Zn4_2 1_555 1_555
O30_2 Zn1_2 1_555 1_555
O31_2 Zn3_3 1_555 1_555
O32_2 Zn3_3 1_555 1_555
C6_2 N1_2 1_555 1_555
C11_2 C12_2 1_555 1_555
C13_2 O5_2 1_555 1_555
C13_2 O6_2 1_555 1_555
C20_2 N2_2 1_555 1_555
C25_2 C26_2 1_555 1_555
C27_2 O11_2 1_555 1_555
C27_2 O12_2 1_555 1_555
C39_2 C40_2 1_555 1_555
C41_2 O17_2 1_555 1_555
C41_2 O18_2 1_555 1_555
C42_2 O15_2 1_555 1_555
C48_2 N4_2 1_555 1_555
C29_2 C30_2 1_555 1_555
C30_2 C31_2 1_555 1_555
C31_2 H13_2 1_555 1_555
C32_2 C31_2 1_555 1_555
C33_2 C32_2 1_555 1_555
H14_2 C33_2 1_555 1_555
C34_2 C30_2 1_555 1_555
H15_2 C34_2 1_555 1_555
C50_2 C49_2 1_555 1_555
H22_2 C50_2 1_555 1_555
C51_2 C50_2 1_555 1_555
C52_2 C51_2 1_555 1_555
H23_2 C52_2 1_555 1_555
C53_2 C52_2 1_555 1_555
C54_2 C49_2 1_555 1_555
H24_2 C54_2 1_555 1_555
C55_2 C51_2 1_555 1_555
C56_2 C53_2 1_555 1_555
N5_2 C33_2 1_555 1_555
O13_2 C29_2 1_555 1_555
O14_2 C29_2 1_555 1_555
O21_2 C56_2 1_555 1_555
O22_2 C56_2 1_555 1_555
O31_2 C55_2 1_555 1_555
O32_2 C55_2 1_555 1_555
Zn7 O21_2 1_555 1_555
Zn5 O13_2 1_555 1_555
C34_2 N5_2 1_555 1_555
C53_2 C54_2 1_555 1_555
H12_3 C26_3 1_555 1_555
C28_3 C25_3 1_555 1_555
O29 C28_3 1_555 1_555
O10_3 C28_3 1_555 1_555
Zn9 O7_2 1_555 1_555
C25_3 C26_3 1_555 1_555
C29_3 C30_3 1_555 1_555
C30_3 C31_3 1_555 1_555
C31_3 H13_3 1_555 1_555
C32_3 C31_3 1_555 1_555
C34_3 C30_3 1_555 1_555
H15_3 C34_3 1_555 1_555
O26_2 C29_3 1_555 1_555
O14_3 C29_3 1_555 1_555
Zn11 N3 1_555 1_555
C34_3 N3 1_555 1_555
Zn5 N2_3 1_555 1_555
Zn2_3 O3_3 1_555 1_555
H2_3 C5_3 1_555 1_555
C8_3 C7_3 1_555 1_555
H4_3 C8_3 1_555 1_555
C9_3 C8_3 1_555 1_555
C10_3 C9_3 1_555 1_555
H5_3 C10_3 1_555 1_555
C11_3 C10_3 1_555 1_555
C12_3 C7_3 1_555 1_555
C13_3 C9_3 1_555 1_555
C14_3 C11_3 1_555 1_555
C15_3 C16_3 1_555 1_555
C16_3 C17_3 1_555 1_555
C17_3 H7_3 1_555 1_555
C18_3 C17_3 1_555 1_555
C19_3 C18_3 1_555 1_555
H8_3 C19_3 1_555 1_555
C20_3 C16_3 1_555 1_555
H9_3 C20_3 1_555 1_555
C21_3 C18_3 1_555 1_555
C22_3 C21_3 1_555 1_555
H10_3 C22_3 1_555 1_555
C23_3 C22_3 1_555 1_555
C24_3 C23_3 1_555 1_555
H11_3 C24_3 1_555 1_555
C27_3 C23_3 1_555 1_555
N2_3 C19_3 1_555 1_555
O3_3 C14_3 1_555 1_555
O4_3 C14_3 1_555 1_555
O5_3 Zn5 1_555 1_555
O6_3 Zn5 1_555 1_555
O8_3 C15_3 1_555 1_555
O11_3 Zn11 1_555 1_555
O12_3 Zn11 1_555 1_555
O28_2 Zn2_3 1_555 1_555
C11_3 C12_3 1_555 1_555
C13_3 O5_3 1_555 1_555
C13_3 O6_3 1_555 1_555
C20_3 N2_3 1_555 1_555
C27_3 O11_3 1_555 1_555
C27_3 O12_3 1_555 1_555
H24_3 C54_3 1_555 1_555
C56_3 C53_3 1_555 1_555
O30 C56_3 1_555 1_555
O22_3 C56_3 1_555 1_555
C53_3 C54_3 1_555 1_555
Zn9 O19_2 1_555 1_555
H14_3 C33_3 1_555 1_555
C50_3 C49_3 1_555 1_555
H22_3 C50_3 1_555 1_555
C51_3 C50_3 1_555 1_555
C52_3 C51_3 1_555 1_555
H23_3 C52_3 1_555 1_555
C55_3 C51_3 1_555 1_555
O23 C55_3 1_555 1_555
O24 C55_3 1_555 1_555
O23 Zn11_2 1_555 1_555
O24 Zn11_2 1_555 1_555
Zn11_2 N1_3 1_555 1_555
C1_3 C2_3 1_555 1_555
C2_3 C3_3 1_555 1_555
C3_3 H1_3 1_555 1_555
C4_3 C3_3 1_555 1_555
C6_3 C2_3 1_555 1_555
H3_3 C6_3 1_555 1_555
O25_2 C1_3 1_555 1_555
O2_3 C1_3 1_555 1_555
Zn6 N4_3 1_555 1_555
C36_3 C35_3 1_555 1_555
H16_3 C36_3 1_555 1_555
C37_3 C36_3 1_555 1_555
C38_3 C37_3 1_555 1_555
H17_3 C38_3 1_555 1_555
C39_3 C38_3 1_555 1_555
C40_3 C35_3 1_555 1_555
C41_3 C37_3 1_555 1_555
C42_3 C39_3 1_555 1_555
C43_3 C44_3 1_555 1_555
C44_3 C45_3 1_555 1_555
C45_3 H19_3 1_555 1_555
C46_3 C45_3 1_555 1_555
C47_3 C46_3 1_555 1_555
H20_3 C47_3 1_555 1_555
C48_3 C44_3 1_555 1_555
H21_3 C48_3 1_555 1_555
N4_3 C47_3 1_555 1_555
O15_3 Zn2_4 1_555 1_555
O16_3 C42_3 1_555 1_555
O17_3 Zn6 1_555 1_555
O18_3 Zn6 1_555 1_555
O20_3 C43_3 1_555 1_555
O27_2 Zn2_4 1_555 1_555
C6_3 N1_3 1_555 1_555
C39_3 C40_3 1_555 1_555
C41_3 O17_3 1_555 1_555
C41_3 O18_3 1_555 1_555
C42_3 O15_3 1_555 1_555
C48_3 N4_3 1_555 1_555
C29_4 C30_4 1_555 1_555
C30_4 C31_4 1_555 1_555
C31_4 H13_4 1_555 1_555
C32_4 C31_4 1_555 1_555
C33_4 C32_4 1_555 1_555
H14_4 C33_4 1_555 1_555
C34_4 C30_4 1_555 1_555
H15_4 C34_4 1_555 1_555
C50_4 C49_4 1_555 1_555
H22_4 C50_4 1_555 1_555
C51_4 C50_4 1_555 1_555
C52_4 C51_4 1_555 1_555
H23_4 C52_4 1_555 1_555
C53_4 C52_4 1_555 1_555
C54_4 C49_4 1_555 1_555
H24_4 C54_4 1_555 1_555
C55_4 C51_4 1_555 1_555
C56_4 C53_4 1_555 1_555
N3_2 C33_4 1_555 1_555
O26 C29_4 1_555 1_555
O14_4 C29_4 1_555 1_555
O30_2 C56_4 1_555 1_555
O22_4 C56_4 1_555 1_555
O23_2 C55_4 1_555 1_555
O24_2 C55_4 1_555 1_555
Zn11_3 N3_2 1_555 1_555
C34_4 N3_2 1_555 1_555
C53_4 C54_4 1_555 1_555
O23_2 Zn11_3 1_555 1_555
O24_2 Zn11_3 1_555 1_555
Zn7 N2_4 1_555 1_555
Zn9 O3_4 1_555 1_555
Zn11_3 N1_4 1_555 1_555
C1_4 C2_4 1_555 1_555
C2_4 C3_4 1_555 1_555
C3_4 H1_4 1_555 1_555
C4_4 C3_4 1_555 1_555
C5_4 C4_4 1_555 1_555
H2_4 C5_4 1_555 1_555
C6_4 C2_4 1_555 1_555
H3_4 C6_4 1_555 1_555
C7_4 C4_4 1_555 1_555
C8_4 C7_4 1_555 1_555
H4_4 C8_4 1_555 1_555
C9_4 C8_4 1_555 1_555
C10_4 C9_4 1_555 1_555
H5_4 C10_4 1_555 1_555
C11_4 C10_4 1_555 1_555
C12_4 C7_4 1_555 1_555
H6_4 C12_4 1_555 1_555
C13_4 C9_4 1_555 1_555
C14_4 C11_4 1_555 1_555
C15_4 C16_4 1_555 1_555
C16_4 C17_4 1_555 1_555
C17_4 H7_4 1_555 1_555
C18_4 C17_4 1_555 1_555
C19_4 C18_4 1_555 1_555
H8_4 C19_4 1_555 1_555
C20_4 C16_4 1_555 1_555
H9_4 C20_4 1_555 1_555
C21_4 C18_4 1_555 1_555
C22_4 C21_4 1_555 1_555
H10_4 C22_4 1_555 1_555
C23_4 C22_4 1_555 1_555
C24_4 C23_4 1_555 1_555
H11_4 C24_4 1_555 1_555
C25_4 C24_4 1_555 1_555
C26_4 C21_4 1_555 1_555
H12_4 C26_4 1_555 1_555
C27_4 C23_4 1_555 1_555
C28_4 C25_4 1_555 1_555
N1_4 C5_4 1_555 1_555
N2_4 C19_4 1_555 1_555
O25 C1_4 1_555 1_555
O2_4 C1_4 1_555 1_555
O3_4 C14_4 1_555 1_555
O4_4 C14_4 1_555 1_555
O5_4 Zn7 1_555 1_555
O6_4 Zn7 1_555 1_555
O27_2 C15_4 1_555 1_555
O8_4 C15_4 1_555 1_555
O29_2 C28_4 1_555 1_555
O10_4 C28_4 1_555 1_555
O11_4 Zn11_3 1_555 1_555
O12_4 Zn11_3 1_555 1_555
Zn8 N4_4 1_555 1_555
C36_4 C35_4 1_555 1_555
H16_4 C36_4 1_555 1_555
C37_4 C36_4 1_555 1_555
C38_4 C37_4 1_555 1_555
H17_4 C38_4 1_555 1_555
C39_4 C38_4 1_555 1_555
C40_4 C35_4 1_555 1_555
H18_4 C40_4 1_555 1_555
C41_4 C37_4 1_555 1_555
C42_4 C39_4 1_555 1_555
C43_4 C44_4 1_555 1_555
C44_4 C45_4 1_555 1_555
C45_4 H19_4 1_555 1_555
C46_4 C45_4 1_555 1_555
C47_4 C46_4 1_555 1_555
H20_4 C47_4 1_555 1_555
C48_4 C44_4 1_555 1_555
H21_4 C48_4 1_555 1_555
N4_4 C47_4 1_555 1_555
O15_4 Zn9 1_555 1_555
O16_4 C42_4 1_555 1_555
O17_4 Zn8 1_555 1_555
O18_4 Zn8 1_555 1_555
O28_2 C43_4 1_555 1_555
O20_4 C43_4 1_555 1_555
C6_4 N1_4 1_555 1_555
C11_4 C12_4 1_555 1_555
C13_4 O5_4 1_555 1_555
C13_4 O6_4 1_555 1_555
C20_4 N2_4 1_555 1_555
C25_4 C26_4 1_555 1_555
C27_4 O11_4 1_555 1_555
C27_4 O12_4 1_555 1_555
C39_4 C40_4 1_555 1_555
C41_4 O17_4 1_555 1_555
C41_4 O18_4 1_555 1_555
C42_4 O15_4 1_555 1_555
C48_4 N4_4 1_555 1_555

#END
