
###############################################################################
#
# This file contains modified crystal structure data generated from the
# MOF subset of the Cambridge Structural Database (CSD) v543 
# hosted by the Cambridge Crystallographic Data Centre (CCDC).
#
# This work is licensed under the Creative Commons
# Attribution-NonCommercial-ShareAlike 4.0 International License.
# To view a copy of this license, visit
# http://creativecommons.org/licenses/by-nc-sa/4.0/
# or send a letter to
# Creative Commons, PO Box 1866, Mountain View, CA 94042, USA.
#
# CIF created using the CSD Python API on 29 September 2022
# The structure has been converted into the P1 space group
# The structure has a 3D framework
# The original CSD entry TAXNUF is in the monoclinic crystal system
# The framework has been calculated to contain at least 10.0% void space
# The void calculation uses a probe of radius 1.32A, grid spacing 0.4
# H atom positions have been added when not included in the experimental data
# Generated hydrogen atom positions removed from atoms on special positions
#
###############################################################################

data_TAXNUF
_chemical_formula_moiety         '(C264 H256 Dy8 O96)n'
_symmetry_cell_setting           triclinic
_symmetry_space_group_name_H-M   'P 1'
_symmetry_Int_Tables_number      1
_space_group_name_Hall           'P 1'
loop_
_symmetry_equiv_pos_site_id
_symmetry_equiv_pos_as_xyz
1 x,y,z
_cell_length_a                   36.381(2)
_cell_length_b                   10.5197(7)
_cell_length_c                   19.9818(12)
_cell_angle_alpha                90
_cell_angle_beta                 100.006(2)
_cell_angle_gamma                90
_cell_volume                     7531.06
loop_
_atom_site_label
_atom_site_type_symbol
_atom_site_fract_x
_atom_site_fract_y
_atom_site_fract_z
Dy3 Dy 0.00133(2) 0.04476(4) 0.62290(2)
Dy1 Dy 0.50133(2) 0.54476(4) 0.62290(2)
O1 O 0.53079(14) 0.4151(6) 0.5589(3)
O2 O 0.95397(13) 0.0458(6) 0.6836(3)
O3 O 0.94873(14) 0.0374(7) 0.7913(3)
O4 O 0.53618(14) 0.3356(6) 0.4593(3)
O5 O 0.50100(14) 0.7518(6) 0.6772(3)
H1 H 0.519611 0.810650 0.673455
H2 H 0.482275 0.772006 0.701684
O6 O 0.54715(14) 0.6701(6) 0.5786(3)
O7 O 0.45351(16) 0.4029(7) 0.5601(3)
H3 H 0.454739 0.321991 0.577287
H4 H 0.457299 0.389071 0.516701
C1 C 0.89447(17) 0.0749(7) 0.7109(3)
C2 C 0.93533(16) 0.0503(7) 0.7299(3)
O8 O 0.56259(18) 0.8413(7) 0.6412(4)
C3 C 0.54841(17) 0.3565(8) 0.5210(3)
C4 C 0.87707(18) 0.0816(8) 0.6441(3)
H5 H 0.890577 0.064150 0.609664
C5 C 0.58664(17) 0.3102(7) 0.5500(3)
O9 O 0.5025(2) 0.3333(8) 0.6796(3)
C6 C 0.75191(18) 0.1073(8) 0.6909(4)
H6 H 0.759816 0.046265 0.723957
C7 C 0.6077(2) 0.7567(8) 0.5808(4)
C8 C 0.5698(2) 0.7572(9) 0.6014(4)
C9 C 0.66110(18) 0.2470(8) 0.5993(4)
O10 O 0.68875(18) 0.0681(7) 0.7046(4)
C10 C 0.81835(17) 0.1370(7) 0.6781(4)
C11 C 0.87313(17) 0.0970(8) 0.7615(3)
H7 H 0.884301 0.091281 0.806930
C12 C 0.77833(18) 0.1707(7) 0.6597(4)
C13 C 0.7151(2) 0.7521(8) 0.5209(4)
C14 C 0.83552(17) 0.1275(8) 0.7450(3)
H8 H 0.821787 0.141556 0.779471
O11 O 0.79086(18) 0.3342(8) 0.5851(4)
C15 C 0.60903(19) 0.2595(8) 0.5068(4)
H9 H 0.599324 0.246935 0.461036
C16 C 0.70156(17) 0.2234(8) 0.6241(4)
C17 C 0.83958(17) 0.1141(8) 0.6273(3)
H10 H 0.828480 0.120726 0.581906
C18 C 0.6015(2) 0.3252(9) 0.6175(4)
H11 H 0.586652 0.356860 0.647087
C19 C 0.71398(18) 0.1345(8) 0.6732(4)
C20 C 0.7821(2) 0.7739(9) 0.5458(4)
C21 C 0.76592(19) 0.2605(9) 0.6113(4)
C22 C 0.64577(19) 0.2279(9) 0.5320(4)
H12 H 0.660423 0.193109 0.502848
C23 C 0.72676(19) 0.2864(8) 0.5935(4)
H13 H 0.718477 0.347298 0.560547
C24 C 0.6201(2) 0.6502(9) 0.5523(4)
H14 H 0.605016 0.578373 0.545388
C25 C 0.7482(2) 0.7756(9) 0.5678(4)
H15 H 0.747161 0.792031 0.613145
C26 C 0.6781(2) 0.7533(8) 0.5442(4)
C27 C 0.6382(2) 0.2940(9) 0.6419(4)
H16 H 0.647636 0.304695 0.687903
C28 C 0.6551(2) 0.6488(9) 0.5337(4)
H17 H 0.663165 0.576270 0.513881
C29 C 0.6311(2) 0.8602(9) 0.5920(4)
H18 H 0.623182 0.932398 0.612294
C30 C 0.6660(2) 0.8595(9) 0.5740(5)
H19 H 0.681274 0.930776 0.581913
C31 C 0.7776(4) 0.4469(12) 0.5428(8)
H20 H 0.758270 0.421558 0.506196
H21 H 0.798021 0.482866 0.524565
H22 H 0.767933 0.509191 0.570298
O12 O 0.8137(2) 0.7889(10) 0.5921(4)
C33 C 0.8036(5) 0.798(2) 0.6676(9)
H26 H 0.785581 0.864564 0.668714
H27 H 0.825773 0.816884 0.699647
H28 H 0.793355 0.718699 0.679161
O13 O 0.95285(14) 0.8299(6) 0.4214(3)
O14 O 0.93741(18) 0.6587(7) 0.3588(4)
C34 C 0.8923(2) 0.7433(8) 0.4192(4)
C35 C 0.9302(2) 0.7428(9) 0.3986(4)
C36 C 0.7849(2) 0.7479(8) 0.4791(4)
C37 C 0.7179(2) 0.7261(9) 0.4542(4)
C38 C 0.8799(2) 0.8498(9) 0.4477(4)
H29 H 0.894984 0.921627 0.454612
C39 C 0.7518(2) 0.7244(9) 0.4322(4)
H30 H 0.752839 0.707969 0.386855
C40 C 0.8219(2) 0.7467(8) 0.4558(4)
C41 C 0.8449(2) 0.8512(9) 0.4663(4)
H31 H 0.836835 0.923730 0.486119
C42 C 0.8689(2) 0.6398(9) 0.4080(4)
H32 H 0.876818 0.567602 0.387706
C43 C 0.8340(2) 0.6405(9) 0.4260(5)
H33 H 0.818726 0.569224 0.418087
O15 O 0.6863(2) 0.7111(10) 0.4079(4)
C44 C 0.6964(5) 0.702(2) 0.3324(9)
H34 H 0.714419 0.635436 0.331286
H35 H 0.674227 0.683116 0.300353
H36 H 0.706645 0.781301 0.320839
Dy2 Dy 0.49867(2) 0.45524(4) 0.37710(2)
O16 O 0.46921(14) 0.5849(6) 0.4411(3)
O17 O 0.04603(13) 0.9542(6) 0.3164(3)
O18 O 0.05127(14) 0.9626(7) 0.2087(3)
O19 O 0.46382(14) 0.6644(6) 0.5407(3)
O20 O 0.49900(14) 0.2482(6) 0.3228(3)
H37 H 0.480389 0.189350 0.326545
H38 H 0.517725 0.227994 0.298316
O21 O 0.54649(16) 0.5971(7) 0.4399(3)
H39 H 0.545261 0.678009 0.422713
H40 H 0.542701 0.610929 0.483299
C45 C 0.10553(17) 0.9251(7) 0.2891(3)
C46 C 0.06467(16) 0.9497(7) 0.2701(3)
C47 C 0.45159(17) 0.6435(8) 0.4790(3)
C48 C 0.12293(18) 0.9184(8) 0.3559(3)
H41 H 0.109423 0.935850 0.390336
C49 C 0.41336(17) 0.6898(7) 0.4500(3)
O22 O 0.4975(2) 0.6667(8) 0.3204(3)
C50 C 0.24809(18) 0.8927(8) 0.3091(4)
H42 H 0.240184 0.953735 0.276043
C51 C 0.33890(18) 0.7530(8) 0.4007(4)
O23 O 0.31125(18) 0.9319(7) 0.2954(4)
C52 C 0.18165(17) 0.8630(7) 0.3219(4)
C53 C 0.12687(17) 0.9030(8) 0.2385(3)
H43 H 0.115699 0.908719 0.193070
C54 C 0.22167(18) 0.8293(7) 0.3403(4)
C55 C 0.16448(17) 0.8725(8) 0.2550(3)
H44 H 0.178213 0.858444 0.220529
O24 O 0.20914(18) 0.6658(8) 0.4149(4)
C56 C 0.39097(19) 0.7405(8) 0.4932(4)
H45 H 0.400676 0.753065 0.538964
C57 C 0.29844(17) 0.7766(8) 0.3759(4)
C58 C 0.16042(17) 0.8859(8) 0.3727(3)
H46 H 0.171520 0.879274 0.418094
C59 C 0.3985(2) 0.6748(9) 0.3825(4)
H47 H 0.413348 0.643140 0.352913
C60 C 0.28602(18) 0.8655(8) 0.3268(4)
C61 C 0.23408(19) 0.7395(9) 0.3887(4)
C62 C 0.35423(19) 0.7721(9) 0.4680(4)
H48 H 0.339577 0.806891 0.497152
C63 C 0.27324(19) 0.7136(8) 0.4065(4)
H49 H 0.281523 0.652702 0.439453
C64 C 0.3618(2) 0.7060(9) 0.3581(4)
H50 H 0.352364 0.695305 0.312097
C65 C 0.2224(4) 0.5531(12) 0.4572(8)
H51 H 0.241730 0.578442 0.493804
H52 H 0.201979 0.517134 0.475435
H53 H 0.232067 0.490809 0.429702
Dy4 Dy 0.99867(2) 0.04476(4) 0.87710(2)
Dy6 Dy 0.99867(2) 0.95524(4) 0.37710(2)
Dy7 Dy 0.00133(2) 0.95524(4) 0.12290(2)
O25 O 0.45397(13) 0.5458(6) 0.6836(3)
O26 O 0.54603(13) 0.4542(6) 0.3164(3)
O27 O 0.55127(14) 0.5374(7) 0.7087(3)
O28 O 0.44873(14) 0.4626(7) 0.2913(3)
O29 O 0.45285(14) 0.3299(6) 0.4214(3)
O4_2 O 0.46382(14) 0.3356(6) 0.0407(3)
H9_2 H 0.400676 0.246935 0.038964
O13_2 O 0.04715(14) 0.8299(6) 0.0786(3)
O14_2 O 0.06259(18) 0.6587(7) 0.1412(4)
C34_2 C 0.1077(2) 0.7433(8) 0.0808(4)
C35_2 C 0.0698(2) 0.7428(9) 0.1014(4)
C36_2 C 0.2151(2) 0.7479(8) 0.0209(4)
C37_2 C 0.2821(2) 0.7261(9) 0.0458(4)
C38_2 C 0.1201(2) 0.8498(9) 0.0523(4)
H29_2 H 0.105016 0.921627 0.045388
C39_2 C 0.2482(2) 0.7244(9) 0.0678(4)
H30_2 H 0.247161 0.707969 0.113145
C40_2 C 0.1781(2) 0.7467(8) 0.0442(4)
C41_2 C 0.1551(2) 0.8512(9) 0.0337(4)
H31_2 H 0.163165 0.923730 0.013881
C42_2 C 0.1311(2) 0.6398(9) 0.0920(4)
H32_2 H 0.123182 0.567602 0.112294
C43_2 C 0.1660(2) 0.6405(9) 0.0740(5)
H33_2 H 0.181274 0.569224 0.081913
O15_2 O 0.3137(2) 0.7111(10) 0.0921(4)
C44_2 C 0.3036(5) 0.702(2) 0.1676(9)
H34_2 H 0.285581 0.635436 0.168714
H35_2 H 0.325773 0.683116 0.199647
H36_2 H 0.293355 0.781301 0.179161
Dy2_2 Dy 0.50133(2) 0.45524(4) 0.12290(2)
O16_2 O 0.53079(14) 0.5849(6) 0.0589(3)
O17_2 O 0.95397(13) 0.9542(6) 0.1836(3)
O18_2 O 0.94873(14) 0.9626(7) 0.2913(3)
O20_2 O 0.50100(14) 0.2482(6) 0.1772(3)
H37_2 H 0.519611 0.189350 0.173455
H38_2 H 0.482275 0.227994 0.201684
O21_2 O 0.45351(16) 0.5971(7) 0.0601(3)
H39_2 H 0.454739 0.678009 0.077287
H40_2 H 0.457299 0.610929 0.016701
C45_2 C 0.89447(17) 0.9251(7) 0.2109(3)
C46_2 C 0.93533(16) 0.9497(7) 0.2299(3)
C47_2 C 0.54841(17) 0.6435(8) 0.0210(3)
C48_2 C 0.87707(18) 0.9184(8) 0.1441(3)
H41_2 H 0.890577 0.935850 0.109664
C49_2 C 0.58664(17) 0.6898(7) 0.0500(3)
O22_2 O 0.5025(2) 0.6667(8) 0.1796(3)
C50_2 C 0.75191(18) 0.8927(8) 0.1909(4)
H42_2 H 0.759816 0.953735 0.223957
C51_2 C 0.66110(18) 0.7530(8) 0.0993(4)
O23_2 O 0.68875(18) 0.9319(7) 0.2046(4)
C52_2 C 0.81835(17) 0.8630(7) 0.1781(4)
C53_2 C 0.87313(17) 0.9030(8) 0.2615(3)
H43_2 H 0.884301 0.908719 0.306930
C54_2 C 0.77833(18) 0.8293(7) 0.1597(4)
C55_2 C 0.83552(17) 0.8725(8) 0.2450(3)
H44_2 H 0.821787 0.858444 0.279471
O24_2 O 0.79086(18) 0.6658(8) 0.0851(4)
C56_2 C 0.60903(19) 0.7405(8) 0.0068(4)
C57_2 C 0.70156(17) 0.7766(8) 0.1241(4)
C58_2 C 0.83958(17) 0.8859(8) 0.1273(3)
H46_2 H 0.828480 0.879274 0.081906
C59_2 C 0.6015(2) 0.6748(9) 0.1175(4)
H47_2 H 0.586652 0.643140 0.147087
C60_2 C 0.71398(18) 0.8655(8) 0.1732(4)
C61_2 C 0.76592(19) 0.7395(9) 0.1113(4)
C62_2 C 0.64577(19) 0.7721(9) 0.0320(4)
H48_2 H 0.660423 0.806891 0.002848
C63_2 C 0.72676(19) 0.7136(8) 0.0935(4)
H49_2 H 0.718477 0.652702 0.060547
C64_2 C 0.6382(2) 0.7060(9) 0.1419(4)
H50_2 H 0.647636 0.695305 0.187903
C65_2 C 0.7776(4) 0.5531(12) 0.0428(8)
H51_2 H 0.758270 0.578442 0.006196
H52_2 H 0.798021 0.517134 0.024565
H53_2 H 0.767933 0.490809 0.070298
O26_2 O 0.45397(13) 0.4542(6) 0.1836(3)
O28_2 O 0.55127(14) 0.4626(7) 0.2087(3)
O29_2 O 0.54715(14) 0.3299(6) 0.0786(3)
Dy1_2 Dy 0.49867(2) 0.54476(4) 0.87710(2)
O1_2 O 0.46921(14) 0.4151(6) 0.9411(3)
O2_2 O 0.04603(13) 0.0458(6) 0.8164(3)
O3_2 O 0.05127(14) 0.0374(7) 0.7087(3)
O5_2 O 0.49900(14) 0.7518(6) 0.8228(3)
H1_2 H 0.480389 0.810650 0.826545
H2_2 H 0.517725 0.772006 0.798316
O6_2 O 0.45285(14) 0.6701(6) 0.9214(3)
O7_2 O 0.54649(16) 0.4029(7) 0.9399(3)
H3_2 H 0.545261 0.321991 0.922713
H4_2 H 0.542701 0.389071 0.983299
C1_2 C 0.10553(17) 0.0749(7) 0.7891(3)
C2_2 C 0.06467(16) 0.0503(7) 0.7701(3)
O8_2 O 0.43741(18) 0.8413(7) 0.8588(4)
C3_2 C 0.45159(17) 0.3565(8) 0.9790(3)
C4_2 C 0.12293(18) 0.0816(8) 0.8559(3)
H5_2 H 0.109423 0.064150 0.890336
C5_2 C 0.41336(17) 0.3102(7) 0.9500(3)
O9_2 O 0.4975(2) 0.3333(8) 0.8204(3)
C6_2 C 0.24809(18) 0.1073(8) 0.8091(4)
H6_2 H 0.240184 0.046265 0.776043
C7_2 C 0.3923(2) 0.7567(8) 0.9192(4)
C8_2 C 0.4302(2) 0.7572(9) 0.8986(4)
C9_2 C 0.33890(18) 0.2470(8) 0.9007(4)
O10_2 O 0.31125(18) 0.0681(7) 0.7954(4)
C10_2 C 0.18165(17) 0.1370(7) 0.8219(4)
C11_2 C 0.12687(17) 0.0970(8) 0.7385(3)
H7_2 H 0.115699 0.091281 0.693070
C12_2 C 0.22167(18) 0.1707(7) 0.8403(4)
C13_2 C 0.2849(2) 0.7521(8) 0.9791(4)
C14_2 C 0.16448(17) 0.1275(8) 0.7550(3)
H8_2 H 0.178213 0.141556 0.720529
O11_2 O 0.20914(18) 0.3342(8) 0.9149(4)
C15_2 C 0.39097(19) 0.2595(8) 0.9932(4)
C16_2 C 0.29844(17) 0.2234(8) 0.8759(4)
C17_2 C 0.16042(17) 0.1141(8) 0.8727(3)
H10_2 H 0.171520 0.120726 0.918094
C18_2 C 0.3985(2) 0.3252(9) 0.8825(4)
H11_2 H 0.413348 0.356860 0.852913
C19_2 C 0.28602(18) 0.1345(8) 0.8268(4)
C20_2 C 0.2179(2) 0.7739(9) 0.9542(4)
C21_2 C 0.23408(19) 0.2605(9) 0.8887(4)
C22_2 C 0.35423(19) 0.2279(9) 0.9680(4)
H12_2 H 0.339577 0.193109 0.997152
C23_2 C 0.27324(19) 0.2864(8) 0.9065(4)
H13_2 H 0.281523 0.347298 0.939453
C24_2 C 0.3799(2) 0.6502(9) 0.9477(4)
H14_2 H 0.394984 0.578373 0.954612
C25_2 C 0.2518(2) 0.7756(9) 0.9322(4)
H15_2 H 0.252839 0.792031 0.886855
C26_2 C 0.3219(2) 0.7533(8) 0.9558(4)
C27_2 C 0.3618(2) 0.2940(9) 0.8581(4)
H16_2 H 0.352364 0.304695 0.812097
C28_2 C 0.3449(2) 0.6488(9) 0.9663(4)
H17_2 H 0.336835 0.576270 0.986119
C29_2 C 0.3689(2) 0.8602(9) 0.9080(4)
H18_2 H 0.376818 0.932398 0.887706
C30_2 C 0.3340(2) 0.8595(9) 0.9260(5)
H19_2 H 0.318726 0.930776 0.918087
C31_2 C 0.2224(4) 0.4469(12) 0.9572(8)
H20_2 H 0.241730 0.421558 0.993804
H21_2 H 0.201979 0.482866 0.975435
H22_2 H 0.232067 0.509191 0.929702
O12_2 O 0.1863(2) 0.7889(10) 0.9079(4)
C33_2 C 0.1964(5) 0.798(2) 0.8324(9)
H26_2 H 0.214419 0.864564 0.831286
H27_2 H 0.174227 0.816884 0.800353
H28_2 H 0.206645 0.718699 0.820839
O19_2 O 0.53618(14) 0.6644(6) 0.9593(3)
H45_2 H 0.599324 0.753065 0.961036
O25_2 O 0.54603(13) 0.5458(6) 0.8164(3)
O27_2 O 0.44873(14) 0.5374(7) 0.7913(3)
O5_3 O 0.00100(14) 0.2518(6) 0.6772(3)
H1_3 H 0.019611 0.310650 0.673455
O6_3 O 0.04715(14) 0.1701(6) 0.5786(3)
O8_3 O 0.06259(18) 0.3413(7) 0.6412(4)
C7_3 C 0.1077(2) 0.2567(8) 0.5808(4)
C8_3 C 0.0698(2) 0.2572(9) 0.6014(4)
C13_3 C 0.2151(2) 0.2521(8) 0.5209(4)
C20_3 C 0.2821(2) 0.2739(9) 0.5458(4)
C24_3 C 0.1201(2) 0.1502(9) 0.5523(4)
H14_3 H 0.105016 0.078373 0.545388
C25_3 C 0.2482(2) 0.2756(9) 0.5678(4)
H15_3 H 0.247161 0.292031 0.613145
C26_3 C 0.1781(2) 0.2533(8) 0.5442(4)
C28_3 C 0.1551(2) 0.1488(9) 0.5337(4)
H17_3 H 0.163165 0.076270 0.513881
C29_3 C 0.1311(2) 0.3602(9) 0.5920(4)
H18_3 H 0.123182 0.432398 0.612294
C30_3 C 0.1660(2) 0.3595(9) 0.5740(5)
H19_3 H 0.181274 0.430776 0.581913
H22_3 H 0.267933 0.009191 0.570298
O12_3 O 0.3137(2) 0.2889(10) 0.5921(4)
C33_3 C 0.3036(5) 0.298(2) 0.6676(9)
H26_3 H 0.285581 0.364564 0.668714
H27_3 H 0.325773 0.316884 0.699647
H28_3 H 0.293355 0.218699 0.679161
O14_3 O 0.43741(18) 0.1587(7) 0.3588(4)
C34_3 C 0.3923(2) 0.2433(8) 0.4192(4)
C35_3 C 0.4302(2) 0.2428(9) 0.3986(4)
C36_3 C 0.2849(2) 0.2479(8) 0.4791(4)
C37_3 C 0.2179(2) 0.2261(9) 0.4542(4)
C38_3 C 0.3799(2) 0.3498(9) 0.4477(4)
H29_3 H 0.394984 0.421627 0.454612
C39_3 C 0.2518(2) 0.2244(9) 0.4322(4)
H30_3 H 0.252839 0.207969 0.386855
C40_3 C 0.3219(2) 0.2467(8) 0.4558(4)
C41_3 C 0.3449(2) 0.3512(9) 0.4663(4)
H31_3 H 0.336835 0.423730 0.486119
C42_3 C 0.3689(2) 0.1398(9) 0.4080(4)
H32_3 H 0.376818 0.067602 0.387706
C43_3 C 0.3340(2) 0.1405(9) 0.4260(5)
H33_3 H 0.318726 0.069224 0.418087
O15_3 O 0.1863(2) 0.2111(10) 0.4079(4)
C44_3 C 0.1964(5) 0.202(2) 0.3324(9)
H34_3 H 0.214419 0.135436 0.331286
H35_3 H 0.174227 0.183116 0.300353
H36_3 H 0.206645 0.281301 0.320839
O21_3 O 0.04649(16) 0.0971(7) 0.4399(3)
H39_3 H 0.045261 0.178009 0.422713
H40_3 H 0.042701 0.110929 0.483299
H59 H 0.0193942 0.174343 0.297121
O1_3 O 0.03079(14) 0.9151(6) 0.5589(3)
O4_3 O 0.03618(14) 0.8356(6) 0.4593(3)
C1_3 C 0.39447(17) 0.5749(7) 0.7109(3)
C2_3 C 0.43533(16) 0.5503(7) 0.7299(3)
C3_3 C 0.04841(17) 0.8565(8) 0.5210(3)
C4_3 C 0.37707(18) 0.5816(8) 0.6441(3)
H5_3 H 0.390577 0.564150 0.609664
C5_3 C 0.08664(17) 0.8102(7) 0.5500(3)
O9_3 O 0.0025(2) 0.8333(8) 0.6796(3)
C6_3 C 0.25191(18) 0.6073(8) 0.6909(4)
H6_3 H 0.259816 0.546265 0.723957
C9_3 C 0.16110(18) 0.7470(8) 0.5993(4)
O10_3 O 0.18875(18) 0.5681(7) 0.7046(4)
C10_3 C 0.31835(17) 0.6370(7) 0.6781(4)
C11_3 C 0.37313(17) 0.5970(8) 0.7615(3)
H7_3 H 0.384301 0.591281 0.806930
C12_3 C 0.27833(18) 0.6707(7) 0.6597(4)
C14_3 C 0.33552(17) 0.6275(8) 0.7450(3)
H8_3 H 0.321787 0.641556 0.779471
O11_3 O 0.29086(18) 0.8342(8) 0.5851(4)
C15_3 C 0.10903(19) 0.7595(8) 0.5068(4)
H9_3 H 0.099324 0.746935 0.461036
C16_3 C 0.20156(17) 0.7234(8) 0.6241(4)
C17_3 C 0.33958(17) 0.6141(8) 0.6273(3)
H10_3 H 0.328480 0.620726 0.581906
C18_3 C 0.1015(2) 0.8252(9) 0.6175(4)
H11_3 H 0.086652 0.856860 0.647087
C19_3 C 0.21398(18) 0.6345(8) 0.6732(4)
C21_3 C 0.26592(19) 0.7605(9) 0.6113(4)
C22_3 C 0.14577(19) 0.7279(9) 0.5320(4)
H12_3 H 0.160423 0.693109 0.502848
C23_3 C 0.22676(19) 0.7864(8) 0.5935(4)
H13_3 H 0.218477 0.847298 0.560547
C27_3 C 0.1382(2) 0.7940(9) 0.6419(4)
H16_3 H 0.147636 0.804695 0.687903
C31_3 C 0.2776(4) 0.9469(12) 0.5428(8)
H20_3 H 0.258270 0.921558 0.506196
H21_3 H 0.298021 0.982866 0.524565
C32 C 0.2033(5) 0.4623(13) 0.7494(7)
H23 H 0.217812 0.406921 0.726066
H24 H 0.182884 0.415710 0.762045
H25 H 0.218778 0.495227 0.789545
H38_3 H 0.017725 0.727994 0.298316
H57 H 0.0287741 0.805541 0.693971
H2_3 H 0.982275 0.272006 0.701684
O16_3 O 0.96921(14) 0.0849(6) 0.4411(3)
O19_3 O 0.96382(14) 0.1644(6) 0.5407(3)
C45_3 C 0.60553(17) 0.4251(7) 0.2891(3)
C46_3 C 0.56467(16) 0.4497(7) 0.2701(3)
C47_3 C 0.95159(17) 0.1435(8) 0.4790(3)
C48_3 C 0.62293(18) 0.4184(8) 0.3559(3)
H41_3 H 0.609423 0.435850 0.390336
C49_3 C 0.91336(17) 0.1898(7) 0.4500(3)
O22_3 O 0.9975(2) 0.1667(8) 0.3204(3)
C50_3 C 0.74809(18) 0.3927(8) 0.3091(4)
H42_3 H 0.740184 0.453735 0.276043
C51_3 C 0.83890(18) 0.2530(8) 0.4007(4)
O23_3 O 0.81125(18) 0.4319(7) 0.2954(4)
C52_3 C 0.68165(17) 0.3630(7) 0.3219(4)
C53_3 C 0.62687(17) 0.4030(8) 0.2385(3)
H43_3 H 0.615699 0.408719 0.193070
C54_3 C 0.72167(18) 0.3293(7) 0.3403(4)
C55_3 C 0.66448(17) 0.3725(8) 0.2550(3)
H44_3 H 0.678213 0.358444 0.220529
O24_3 O 0.70914(18) 0.1658(8) 0.4149(4)
C56_3 C 0.89097(19) 0.2405(8) 0.4932(4)
H45_3 H 0.900676 0.253065 0.538964
C57_3 C 0.79844(17) 0.2766(8) 0.3759(4)
C58_3 C 0.66042(17) 0.3859(8) 0.3727(3)
H46_3 H 0.671520 0.379274 0.418094
C59_3 C 0.8985(2) 0.1748(9) 0.3825(4)
H47_3 H 0.913348 0.143140 0.352913
C60_3 C 0.78602(18) 0.3655(8) 0.3268(4)
C61_3 C 0.73408(19) 0.2395(9) 0.3887(4)
C62_3 C 0.85423(19) 0.2721(9) 0.4680(4)
H48_3 H 0.839577 0.306891 0.497152
C63_3 C 0.77324(19) 0.2136(8) 0.4065(4)
H49_3 H 0.781523 0.152702 0.439453
C64_3 C 0.8618(2) 0.2060(9) 0.3581(4)
H50_3 H 0.852364 0.195305 0.312097
C65_3 C 0.7224(4) 0.0531(12) 0.4572(8)
H51_3 H 0.741730 0.078442 0.493804
H52_3 H 0.701979 0.017134 0.475435
C66 C 0.7967(5) 0.5377(13) 0.2506(7)
H54 H 0.782188 0.593079 0.273934
H55 H 0.817116 0.584290 0.237955
H56 H 0.781222 0.504773 0.210455
H60 H 0.974182 0.174999 0.28652
O7_3 O 0.95351(16) 0.9029(7) 0.5601(3)
H3_3 H 0.954739 0.821991 0.577287
H4_3 H 0.957299 0.889071 0.516701
O20_3 O 0.99900(14) 0.7482(6) 0.3228(3)
H37_3 H 0.980389 0.689350 0.326545
H53_3 H 0.732067 0.990809 0.429702
H58 H 0.990171 0.839887 0.720073
O16_4 O 0.03079(14) 0.0849(6) 0.0589(3)
C45_4 C 0.39447(17) 0.4251(7) 0.2109(3)
C46_4 C 0.43533(16) 0.4497(7) 0.2299(3)
C47_4 C 0.04841(17) 0.1435(8) 0.0210(3)
C48_4 C 0.37707(18) 0.4184(8) 0.1441(3)
H41_4 H 0.390577 0.435850 0.109664
C49_4 C 0.08664(17) 0.1898(7) 0.0500(3)
O22_4 O 0.0025(2) 0.1667(8) 0.1796(3)
C50_4 C 0.25191(18) 0.3927(8) 0.1909(4)
H42_4 H 0.259816 0.453735 0.223957
C51_4 C 0.16110(18) 0.2530(8) 0.0993(4)
O23_4 O 0.18875(18) 0.4319(7) 0.2046(4)
C52_4 C 0.31835(17) 0.3630(7) 0.1781(4)
C53_4 C 0.37313(17) 0.4030(8) 0.2615(3)
H43_4 H 0.384301 0.408719 0.306930
C54_4 C 0.27833(18) 0.3293(7) 0.1597(4)
C55_4 C 0.33552(17) 0.3725(8) 0.2450(3)
H44_4 H 0.321787 0.358444 0.279471
O24_4 O 0.29086(18) 0.1658(8) 0.0851(4)
C56_4 C 0.10903(19) 0.2405(8) 0.0068(4)
C57_4 C 0.20156(17) 0.2766(8) 0.1241(4)
C58_4 C 0.33958(17) 0.3859(8) 0.1273(3)
H46_4 H 0.328480 0.379274 0.081906
C59_4 C 0.1015(2) 0.1748(9) 0.1175(4)
H47_4 H 0.086652 0.143140 0.147087
C60_4 C 0.21398(18) 0.3655(8) 0.1732(4)
C61_4 C 0.26592(19) 0.2395(9) 0.1113(4)
C62_4 C 0.14577(19) 0.2721(9) 0.0320(4)
H48_4 H 0.160423 0.306891 0.002848
C63_4 C 0.22676(19) 0.2136(8) 0.0935(4)
H49_4 H 0.218477 0.152702 0.060547
C64_4 C 0.1382(2) 0.2060(9) 0.1419(4)
H50_4 H 0.147636 0.195305 0.187903
C65_4 C 0.2776(4) 0.0531(12) 0.0428(8)
H51_4 H 0.258270 0.078442 0.006196
H52_4 H 0.298021 0.017134 0.024565
C66_2 C 0.2033(5) 0.5377(13) 0.2494(7)
H54_2 H 0.217812 0.593079 0.226066
H55_2 H 0.182884 0.584290 0.262045
H56_2 H 0.218778 0.504773 0.289545
H60_2 H 0.0258184 0.174999 0.21348
H2_4 H 0.017725 0.272006 0.798316
O19_4 O 0.03618(14) 0.1644(6) 0.9593(3)
H45_4 H 0.099324 0.253065 0.961036
O20_4 O 0.00100(14) 0.7482(6) 0.1772(3)
H37_4 H 0.019611 0.689350 0.173455
H53_4 H 0.267933 0.990809 0.070298
O7_4 O 0.04649(16) 0.9029(7) 0.9399(3)
H3_4 H 0.045261 0.821991 0.922713
H4_4 H 0.042701 0.889071 0.983299
H58_2 H 0.00982863 0.839887 0.779927
O14_4 O 0.56259(18) 0.1587(7) 0.1412(4)
C34_4 C 0.6077(2) 0.2433(8) 0.0808(4)
C35_4 C 0.5698(2) 0.2428(9) 0.1014(4)
C36_4 C 0.7151(2) 0.2479(8) 0.0209(4)
C37_4 C 0.7821(2) 0.2261(9) 0.0458(4)
C38_4 C 0.6201(2) 0.3498(9) 0.0523(4)
H29_4 H 0.605016 0.421627 0.045388
C39_4 C 0.7482(2) 0.2244(9) 0.0678(4)
H30_4 H 0.747161 0.207969 0.113145
C40_4 C 0.6781(2) 0.2467(8) 0.0442(4)
C41_4 C 0.6551(2) 0.3512(9) 0.0337(4)
H31_4 H 0.663165 0.423730 0.013881
C42_4 C 0.6311(2) 0.1398(9) 0.0920(4)
H32_4 H 0.623182 0.067602 0.112294
C43_4 C 0.6660(2) 0.1405(9) 0.0740(5)
H33_4 H 0.681274 0.069224 0.081913
O15_4 O 0.8137(2) 0.2111(10) 0.0921(4)
C44_4 C 0.8036(5) 0.202(2) 0.1676(9)
H34_4 H 0.785581 0.135436 0.168714
H35_4 H 0.825773 0.183116 0.199647
H36_4 H 0.793355 0.281301 0.179161
O21_4 O 0.95351(16) 0.0971(7) 0.0601(3)
H39_4 H 0.954739 0.178009 0.077287
H40_4 H 0.957299 0.110929 0.016701
H59_2 H 0.980606 0.174343 0.202879
O5_4 O 0.99900(14) 0.2518(6) 0.8228(3)
H1_4 H 0.980389 0.310650 0.826545
O6_4 O 0.95285(14) 0.1701(6) 0.9214(3)
O8_4 O 0.93741(18) 0.3413(7) 0.8588(4)
C7_4 C 0.8923(2) 0.2567(8) 0.9192(4)
C8_4 C 0.9302(2) 0.2572(9) 0.8986(4)
C13_4 C 0.7849(2) 0.2521(8) 0.9791(4)
C20_4 C 0.7179(2) 0.2739(9) 0.9542(4)
C24_4 C 0.8799(2) 0.1502(9) 0.9477(4)
H14_4 H 0.894984 0.078373 0.954612
C25_4 C 0.7518(2) 0.2756(9) 0.9322(4)
H15_4 H 0.752839 0.292031 0.886855
C26_4 C 0.8219(2) 0.2533(8) 0.9558(4)
C28_4 C 0.8449(2) 0.1488(9) 0.9663(4)
H17_4 H 0.836835 0.076270 0.986119
C29_4 C 0.8689(2) 0.3602(9) 0.9080(4)
H18_4 H 0.876818 0.432398 0.887706
C30_4 C 0.8340(2) 0.3595(9) 0.9260(5)
H19_4 H 0.818726 0.430776 0.918087
H22_4 H 0.732067 0.009191 0.929702
O12_4 O 0.6863(2) 0.2889(10) 0.9079(4)
C33_4 C 0.6964(5) 0.298(2) 0.8324(9)
H26_4 H 0.714419 0.364564 0.831286
H27_4 H 0.674227 0.316884 0.800353
H28_4 H 0.706645 0.218699 0.820839
O4_4 O 0.96382(14) 0.8356(6) 0.0407(3)
H9_4 H 0.900676 0.746935 0.038964
H38_4 H 0.982275 0.727994 0.201684
O1_4 O 0.96921(14) 0.9151(6) 0.9411(3)
C1_4 C 0.60553(17) 0.5749(7) 0.7891(3)
C2_4 C 0.56467(16) 0.5503(7) 0.7701(3)
C3_4 C 0.95159(17) 0.8565(8) 0.9790(3)
C4_4 C 0.62293(18) 0.5816(8) 0.8559(3)
H5_4 H 0.609423 0.564150 0.890336
C5_4 C 0.91336(17) 0.8102(7) 0.9500(3)
O9_4 O 0.9975(2) 0.8333(8) 0.8204(3)
C6_4 C 0.74809(18) 0.6073(8) 0.8091(4)
H6_4 H 0.740184 0.546265 0.776043
C9_4 C 0.83890(18) 0.7470(8) 0.9007(4)
O10_4 O 0.81125(18) 0.5681(7) 0.7954(4)
C10_4 C 0.68165(17) 0.6370(7) 0.8219(4)
C11_4 C 0.62687(17) 0.5970(8) 0.7385(3)
H7_4 H 0.615699 0.591281 0.693070
C12_4 C 0.72167(18) 0.6707(7) 0.8403(4)
C14_4 C 0.66448(17) 0.6275(8) 0.7550(3)
H8_4 H 0.678213 0.641556 0.720529
O11_4 O 0.70914(18) 0.8342(8) 0.9149(4)
C15_4 C 0.89097(19) 0.7595(8) 0.9932(4)
C16_4 C 0.79844(17) 0.7234(8) 0.8759(4)
C17_4 C 0.66042(17) 0.6141(8) 0.8727(3)
H10_4 H 0.671520 0.620726 0.918094
C18_4 C 0.8985(2) 0.8252(9) 0.8825(4)
H11_4 H 0.913348 0.856860 0.852913
C19_4 C 0.78602(18) 0.6345(8) 0.8268(4)
C21_4 C 0.73408(19) 0.7605(9) 0.8887(4)
C22_4 C 0.85423(19) 0.7279(9) 0.9680(4)
H12_4 H 0.839577 0.693109 0.997152
C23_4 C 0.77324(19) 0.7864(8) 0.9065(4)
H13_4 H 0.781523 0.847298 0.939453
C27_4 C 0.8618(2) 0.7940(9) 0.8581(4)
H16_4 H 0.852364 0.804695 0.812097
C31_4 C 0.7224(4) 0.9469(12) 0.9572(8)
H20_4 H 0.741730 0.921558 0.993804
H21_4 H 0.701979 0.982866 0.975435
C32_2 C 0.7967(5) 0.4623(13) 0.7506(7)
H23_2 H 0.782188 0.406921 0.773934
H24_2 H 0.817116 0.415710 0.737955
H25_2 H 0.781222 0.495227 0.710455
H57_2 H 0.971226 0.805541 0.806029
H58_3 H 0.00982863 0.160113 0.279927
H60_3 H 0.0258184 0.825001 0.71348
H57_3 H 0.971226 0.194459 0.306029
H59_3 H 0.980606 0.825657 0.702879
H57_4 H 0.0287741 0.194459 0.193971
H59_4 H 0.0193942 0.825657 0.797121
H58_4 H 0.990171 0.160113 0.220073
H60_4 H 0.974182 0.825001 0.78652
C66_3 C 0.2967(5) 0.0377(13) 0.2506(7)
H54_3 H 0.282188 0.093079 0.273934
H55_3 H 0.317116 0.084290 0.237955
H56_3 H 0.281222 0.004773 0.210455
C32_3 C 0.7033(5) 0.9623(13) 0.7494(7)
H23_3 H 0.717812 0.906921 0.726066
H24_3 H 0.682884 0.915710 0.762045
H25_3 H 0.718778 0.995227 0.789545
C66_4 C 0.7033(5) 0.0377(13) 0.2494(7)
H54_4 H 0.717812 0.093079 0.226066
H55_4 H 0.682884 0.084290 0.262045
H56_4 H 0.718778 0.004773 0.289545
C32_4 C 0.2967(5) 0.9623(13) 0.7506(7)
H23_4 H 0.282188 0.906921 0.773934
H24_4 H 0.317116 0.915710 0.737955
H25_4 H 0.281222 0.995227 0.710455
loop_
_geom_bond_atom_site_label_1
_geom_bond_atom_site_label_2
_geom_bond_site_symmetry_1
_geom_bond_site_symmetry_2
Dy1 O1 1_555 1_555
O1 C3 1_555 1_555
O2 C2 1_555 1_555
O3 C2 1_555 1_555
O4 C3 1_555 1_555
O5 Dy1 1_555 1_555
H1 O5 1_555 1_555
H2 O5 1_555 1_555
O6 Dy1 1_555 1_555
O7 Dy1 1_555 1_555
H3 O7 1_555 1_555
H4 O7 1_555 1_555
C1 C2 1_555 1_555
O8 C8 1_555 1_555
C3 C5 1_555 1_555
C4 C1 1_555 1_555
H5 C4 1_555 1_555
C5 C15 1_555 1_555
O9 Dy1 1_555 1_555
C6 H6 1_555 1_555
C7 C8 1_555 1_555
C8 O6 1_555 1_555
C9 C16 1_555 1_555
O10 C19 1_555 1_555
C10 C12 1_555 1_555
C11 C1 1_555 1_555
H7 C11 1_555 1_555
C12 C6 1_555 1_555
C13 C25 1_555 1_555
C14 C10 1_555 1_555
H8 C14 1_555 1_555
O11 C21 1_555 1_555
C15 H9 1_555 1_555
C16 C19 1_555 1_555
C17 C4 1_555 1_555
H10 C17 1_555 1_555
C18 C5 1_555 1_555
H11 C18 1_555 1_555
C19 C6 1_555 1_555
C20 C25 1_555 1_555
C21 C12 1_555 1_555
C22 C9 1_555 1_555
H12 C22 1_555 1_555
C23 C16 1_555 1_555
H13 C23 1_555 1_555
C24 C7 1_555 1_555
H14 C24 1_555 1_555
C25 H15 1_555 1_555
C26 C13 1_555 1_555
C27 C9 1_555 1_555
H16 C27 1_555 1_555
C28 C24 1_555 1_555
H17 C28 1_555 1_555
C29 C7 1_555 1_555
H18 C29 1_555 1_555
C30 C26 1_555 1_555
H19 C30 1_555 1_555
C31 O11 1_555 1_555
H20 C31 1_555 1_555
H21 C31 1_555 1_555
H22 C31 1_555 1_555
O12 C20 1_555 1_555
C33 O12 1_555 1_555
H26 C33 1_555 1_555
H27 C33 1_555 1_555
H28 C33 1_555 1_555
O13 C35 1_555 1_555
O14 C35 1_555 1_555
C34 C35 1_555 1_555
C36 C20 1_555 1_555
C37 C13 1_555 1_555
C38 C34 1_555 1_555
H29 C38 1_555 1_555
C39 C36 1_555 1_555
H30 C39 1_555 1_555
C40 C36 1_555 1_555
C41 C38 1_555 1_555
H31 C41 1_555 1_555
C42 C34 1_555 1_555
H32 C42 1_555 1_555
C43 C40 1_555 1_555
H33 C43 1_555 1_555
O15 C37 1_555 1_555
C44 O15 1_555 1_555
H34 C44 1_555 1_555
H35 C44 1_555 1_555
H36 C44 1_555 1_555
Dy2 O4 1_555 1_555
O16 Dy2 1_555 1_555
O17 C46 1_555 1_555
O18 C46 1_555 1_555
O19 Dy1 1_555 1_555
O20 Dy2 1_555 1_555
H37 O20 1_555 1_555
H38 O20 1_555 1_555
O21 Dy2 1_555 1_555
H39 O21 1_555 1_555
H40 O21 1_555 1_555
C45 C46 1_555 1_555
C47 O16 1_555 1_555
C48 C45 1_555 1_555
H41 C48 1_555 1_555
C49 C47 1_555 1_555
O22 Dy2 1_555 1_555
C50 H42 1_555 1_555
C51 C57 1_555 1_555
O23 C60 1_555 1_555
C52 C54 1_555 1_555
C53 C45 1_555 1_555
H43 C53 1_555 1_555
C54 C50 1_555 1_555
C55 C52 1_555 1_555
H44 C55 1_555 1_555
O24 C61 1_555 1_555
C56 C49 1_555 1_555
H45 C56 1_555 1_555
C57 C60 1_555 1_555
C58 C48 1_555 1_555
H46 C58 1_555 1_555
C59 C49 1_555 1_555
H47 C59 1_555 1_555
C60 C50 1_555 1_555
C61 C54 1_555 1_555
C62 C51 1_555 1_555
H48 C62 1_555 1_555
C63 C57 1_555 1_555
H49 C63 1_555 1_555
C64 C51 1_555 1_555
H50 C64 1_555 1_555
C65 O24 1_555 1_555
H51 C65 1_555 1_555
H52 C65 1_555 1_555
H53 C65 1_555 1_555
Dy4 O3 1_555 1_555
Dy6 O13 1_555 1_555
Dy7 O18 1_555 1_555
O25 Dy1 1_555 1_555
O26 Dy2 1_555 1_555
O27 Dy1 1_555 1_555
O28 Dy2 1_555 1_555
O29 Dy2 1_555 1_555
C10 C17 1_555 1_555
C11 C14 1_555 1_555
C15 C22 1_555 1_555
C18 C27 1_555 1_555
C21 C23 1_555 1_555
C26 C28 1_555 1_555
C29 C30 1_555 1_555
C37 C39 1_555 1_555
C40 C41 1_555 1_555
C42 C43 1_555 1_555
O19 C47 1_555 1_555
C52 C58 1_555 1_555
C53 C55 1_555 1_555
C56 C62 1_555 1_555
C59 C64 1_555 1_555
C61 C63 1_555 1_555
O13_2 C35_2 1_555 1_555
O14_2 C35_2 1_555 1_555
C34_2 C35_2 1_555 1_555
C38_2 C34_2 1_555 1_555
H29_2 C38_2 1_555 1_555
C39_2 C36_2 1_555 1_555
H30_2 C39_2 1_555 1_555
C40_2 C36_2 1_555 1_555
C41_2 C38_2 1_555 1_555
H31_2 C41_2 1_555 1_555
C42_2 C34_2 1_555 1_555
H32_2 C42_2 1_555 1_555
C43_2 C40_2 1_555 1_555
H33_2 C43_2 1_555 1_555
O15_2 C37_2 1_555 1_555
C44_2 O15_2 1_555 1_555
H34_2 C44_2 1_555 1_555
H35_2 C44_2 1_555 1_555
H36_2 C44_2 1_555 1_555
Dy2_2 O4_2 1_555 1_555
O16_2 Dy2_2 1_555 1_555
O17_2 C46_2 1_555 1_555
O18_2 C46_2 1_555 1_555
O20_2 Dy2_2 1_555 1_555
H37_2 O20_2 1_555 1_555
H38_2 O20_2 1_555 1_555
O21_2 Dy2_2 1_555 1_555
H39_2 O21_2 1_555 1_555
H40_2 O21_2 1_555 1_555
C45_2 C46_2 1_555 1_555
C47_2 O16_2 1_555 1_555
C48_2 C45_2 1_555 1_555
H41_2 C48_2 1_555 1_555
C49_2 C47_2 1_555 1_555
O22_2 Dy2_2 1_555 1_555
C50_2 H42_2 1_555 1_555
C51_2 C57_2 1_555 1_555
O23_2 C60_2 1_555 1_555
C52_2 C54_2 1_555 1_555
C53_2 C45_2 1_555 1_555
H43_2 C53_2 1_555 1_555
C54_2 C50_2 1_555 1_555
C55_2 C52_2 1_555 1_555
H44_2 C55_2 1_555 1_555
O24_2 C61_2 1_555 1_555
C56_2 C49_2 1_555 1_555
C57_2 C60_2 1_555 1_555
C58_2 C48_2 1_555 1_555
H46_2 C58_2 1_555 1_555
C59_2 C49_2 1_555 1_555
H47_2 C59_2 1_555 1_555
C60_2 C50_2 1_555 1_555
C61_2 C54_2 1_555 1_555
C62_2 C51_2 1_555 1_555
H48_2 C62_2 1_555 1_555
C63_2 C57_2 1_555 1_555
H49_2 C63_2 1_555 1_555
C64_2 C51_2 1_555 1_555
H50_2 C64_2 1_555 1_555
C65_2 O24_2 1_555 1_555
H51_2 C65_2 1_555 1_555
H52_2 C65_2 1_555 1_555
H53_2 C65_2 1_555 1_555
Dy7 O13_2 1_555 1_555
Dy6 O18_2 1_555 1_555
O26_2 Dy2_2 1_555 1_555
O28_2 Dy2_2 1_555 1_555
O29_2 Dy2_2 1_555 1_555
C37_2 C39_2 1_555 1_555
C40_2 C41_2 1_555 1_555
C42_2 C43_2 1_555 1_555
C52_2 C58_2 1_555 1_555
C53_2 C55_2 1_555 1_555
C56_2 C62_2 1_555 1_555
C59_2 C64_2 1_555 1_555
C61_2 C63_2 1_555 1_555
Dy1_2 O1_2 1_555 1_555
O1_2 C3_2 1_555 1_555
O2_2 C2_2 1_555 1_555
O3_2 C2_2 1_555 1_555
O5_2 Dy1_2 1_555 1_555
H1_2 O5_2 1_555 1_555
H2_2 O5_2 1_555 1_555
O6_2 Dy1_2 1_555 1_555
O7_2 Dy1_2 1_555 1_555
H3_2 O7_2 1_555 1_555
H4_2 O7_2 1_555 1_555
C1_2 C2_2 1_555 1_555
O8_2 C8_2 1_555 1_555
C3_2 C5_2 1_555 1_555
C4_2 C1_2 1_555 1_555
H5_2 C4_2 1_555 1_555
C5_2 C15_2 1_555 1_555
O9_2 Dy1_2 1_555 1_555
C6_2 H6_2 1_555 1_555
C7_2 C8_2 1_555 1_555
C8_2 O6_2 1_555 1_555
C9_2 C16_2 1_555 1_555
O10_2 C19_2 1_555 1_555
C10_2 C12_2 1_555 1_555
C11_2 C1_2 1_555 1_555
H7_2 C11_2 1_555 1_555
C12_2 C6_2 1_555 1_555
C13_2 C25_2 1_555 1_555
C14_2 C10_2 1_555 1_555
H8_2 C14_2 1_555 1_555
O11_2 C21_2 1_555 1_555
C16_2 C19_2 1_555 1_555
C17_2 C4_2 1_555 1_555
H10_2 C17_2 1_555 1_555
C18_2 C5_2 1_555 1_555
H11_2 C18_2 1_555 1_555
C19_2 C6_2 1_555 1_555
C20_2 C25_2 1_555 1_555
C21_2 C12_2 1_555 1_555
C22_2 C9_2 1_555 1_555
H12_2 C22_2 1_555 1_555
C23_2 C16_2 1_555 1_555
H13_2 C23_2 1_555 1_555
C24_2 C7_2 1_555 1_555
H14_2 C24_2 1_555 1_555
C25_2 H15_2 1_555 1_555
C26_2 C13_2 1_555 1_555
C27_2 C9_2 1_555 1_555
H16_2 C27_2 1_555 1_555
C28_2 C24_2 1_555 1_555
H17_2 C28_2 1_555 1_555
C29_2 C7_2 1_555 1_555
H18_2 C29_2 1_555 1_555
C30_2 C26_2 1_555 1_555
H19_2 C30_2 1_555 1_555
C31_2 O11_2 1_555 1_555
H20_2 C31_2 1_555 1_555
H21_2 C31_2 1_555 1_555
H22_2 C31_2 1_555 1_555
O12_2 C20_2 1_555 1_555
C33_2 O12_2 1_555 1_555
H26_2 C33_2 1_555 1_555
H27_2 C33_2 1_555 1_555
H28_2 C33_2 1_555 1_555
O19_2 Dy1_2 1_555 1_555
Dy3 O3_2 1_555 1_555
O25_2 Dy1_2 1_555 1_555
O27_2 Dy1_2 1_555 1_555
C10_2 C17_2 1_555 1_555
C11_2 C14_2 1_555 1_555
C15_2 C22_2 1_555 1_555
C18_2 C27_2 1_555 1_555
C21_2 C23_2 1_555 1_555
C26_2 C28_2 1_555 1_555
C29_2 C30_2 1_555 1_555
O5_3 Dy3 1_555 1_555
H1_3 O5_3 1_555 1_555
O6_3 Dy3 1_555 1_555
O8_3 C8_3 1_555 1_555
C7_3 C8_3 1_555 1_555
C8_3 O6_3 1_555 1_555
C13_3 C25_3 1_555 1_555
C20_3 C25_3 1_555 1_555
C24_3 C7_3 1_555 1_555
H14_3 C24_3 1_555 1_555
C25_3 H15_3 1_555 1_555
C26_3 C13_3 1_555 1_555
C28_3 C24_3 1_555 1_555
H17_3 C28_3 1_555 1_555
C29_3 C7_3 1_555 1_555
H18_3 C29_3 1_555 1_555
C30_3 C26_3 1_555 1_555
H19_3 C30_3 1_555 1_555
O12_3 C20_3 1_555 1_555
C33_3 O12_3 1_555 1_555
H26_3 C33_3 1_555 1_555
H27_3 C33_3 1_555 1_555
H28_3 C33_3 1_555 1_555
O29 C35_3 1_555 1_555
O14_3 C35_3 1_555 1_555
C34_3 C35_3 1_555 1_555
C36_3 C20_3 1_555 1_555
C37_3 C13_3 1_555 1_555
C38_3 C34_3 1_555 1_555
H29_3 C38_3 1_555 1_555
C39_3 C36_3 1_555 1_555
H30_3 C39_3 1_555 1_555
C40_3 C36_3 1_555 1_555
C41_3 C38_3 1_555 1_555
H31_3 C41_3 1_555 1_555
C42_3 C34_3 1_555 1_555
H32_3 C42_3 1_555 1_555
C43_3 C40_3 1_555 1_555
H33_3 C43_3 1_555 1_555
O15_3 C37_3 1_555 1_555
C44_3 O15_3 1_555 1_555
H34_3 C44_3 1_555 1_555
H35_3 C44_3 1_555 1_555
H36_3 C44_3 1_555 1_555
H39_3 O21_3 1_555 1_555
H40_3 O21_3 1_555 1_555
C26_3 C28_3 1_555 1_555
C29_3 C30_3 1_555 1_555
C37_3 C39_3 1_555 1_555
C40_3 C41_3 1_555 1_555
C42_3 C43_3 1_555 1_555
O1_3 C3_3 1_555 1_555
O25 C2_3 1_555 1_555
O27_2 C2_3 1_555 1_555
O4_3 C3_3 1_555 1_555
C1_3 C2_3 1_555 1_555
C3_3 C5_3 1_555 1_555
C4_3 C1_3 1_555 1_555
H5_3 C4_3 1_555 1_555
C5_3 C15_3 1_555 1_555
C6_3 H6_3 1_555 1_555
C9_3 C16_3 1_555 1_555
O10_3 C19_3 1_555 1_555
C10_3 C12_3 1_555 1_555
C11_3 C1_3 1_555 1_555
H7_3 C11_3 1_555 1_555
C12_3 C6_3 1_555 1_555
C14_3 C10_3 1_555 1_555
H8_3 C14_3 1_555 1_555
O11_3 C21_3 1_555 1_555
C15_3 H9_3 1_555 1_555
C16_3 C19_3 1_555 1_555
C17_3 C4_3 1_555 1_555
H10_3 C17_3 1_555 1_555
C18_3 C5_3 1_555 1_555
H11_3 C18_3 1_555 1_555
C19_3 C6_3 1_555 1_555
C21_3 C12_3 1_555 1_555
C22_3 C9_3 1_555 1_555
H12_3 C22_3 1_555 1_555
C23_3 C16_3 1_555 1_555
H13_3 C23_3 1_555 1_555
C27_3 C9_3 1_555 1_555
H16_3 C27_3 1_555 1_555
C31_3 O11_3 1_555 1_555
H20_3 C31_3 1_555 1_555
H21_3 C31_3 1_555 1_555
C32 O10_3 1_555 1_555
H23 C32 1_555 1_555
H24 C32 1_555 1_555
H25 C32 1_555 1_555
C10_3 C17_3 1_555 1_555
C11_3 C14_3 1_555 1_555
C15_3 C22_3 1_555 1_555
C18_3 C27_3 1_555 1_555
C21_3 C23_3 1_555 1_555
O9_3 H57 1_555 1_555
O26 C46_3 1_555 1_555
O28_2 C46_3 1_555 1_555
C45_3 C46_3 1_555 1_555
C47_3 O16_3 1_555 1_555
C48_3 C45_3 1_555 1_555
H41_3 C48_3 1_555 1_555
C49_3 C47_3 1_555 1_555
C50_3 H42_3 1_555 1_555
C51_3 C57_3 1_555 1_555
O23_3 C60_3 1_555 1_555
C52_3 C54_3 1_555 1_555
C53_3 C45_3 1_555 1_555
H43_3 C53_3 1_555 1_555
C54_3 C50_3 1_555 1_555
C55_3 C52_3 1_555 1_555
H44_3 C55_3 1_555 1_555
O24_3 C61_3 1_555 1_555
C56_3 C49_3 1_555 1_555
H45_3 C56_3 1_555 1_555
C57_3 C60_3 1_555 1_555
C58_3 C48_3 1_555 1_555
H46_3 C58_3 1_555 1_555
C59_3 C49_3 1_555 1_555
H47_3 C59_3 1_555 1_555
C60_3 C50_3 1_555 1_555
C61_3 C54_3 1_555 1_555
C62_3 C51_3 1_555 1_555
H48_3 C62_3 1_555 1_555
C63_3 C57_3 1_555 1_555
H49_3 C63_3 1_555 1_555
C64_3 C51_3 1_555 1_555
H50_3 C64_3 1_555 1_555
C65_3 O24_3 1_555 1_555
H51_3 C65_3 1_555 1_555
H52_3 C65_3 1_555 1_555
C66 O23_3 1_555 1_555
H54 C66 1_555 1_555
H55 C66 1_555 1_555
H56 C66 1_555 1_555
O19_3 C47_3 1_555 1_555
C52_3 C58_3 1_555 1_555
C53_3 C55_3 1_555 1_555
C56_3 C62_3 1_555 1_555
C59_3 C64_3 1_555 1_555
C61_3 C63_3 1_555 1_555
O22_3 H60 1_555 1_555
H3_3 O7_3 1_555 1_555
H4_3 O7_3 1_555 1_555
O20_3 Dy6 1_555 1_555
H37_3 O20_3 1_555 1_555
O26_2 C46_4 1_555 1_555
O28 C46_4 1_555 1_555
C45_4 C46_4 1_555 1_555
C47_4 O16_4 1_555 1_555
C48_4 C45_4 1_555 1_555
H41_4 C48_4 1_555 1_555
C49_4 C47_4 1_555 1_555
C50_4 H42_4 1_555 1_555
C51_4 C57_4 1_555 1_555
O23_4 C60_4 1_555 1_555
C52_4 C54_4 1_555 1_555
C53_4 C45_4 1_555 1_555
H43_4 C53_4 1_555 1_555
C54_4 C50_4 1_555 1_555
C55_4 C52_4 1_555 1_555
H44_4 C55_4 1_555 1_555
O24_4 C61_4 1_555 1_555
C56_4 C49_4 1_555 1_555
C57_4 C60_4 1_555 1_555
C58_4 C48_4 1_555 1_555
H46_4 C58_4 1_555 1_555
C59_4 C49_4 1_555 1_555
H47_4 C59_4 1_555 1_555
C60_4 C50_4 1_555 1_555
C61_4 C54_4 1_555 1_555
C62_4 C51_4 1_555 1_555
H48_4 C62_4 1_555 1_555
C63_4 C57_4 1_555 1_555
H49_4 C63_4 1_555 1_555
C64_4 C51_4 1_555 1_555
H50_4 C64_4 1_555 1_555
C65_4 O24_4 1_555 1_555
H51_4 C65_4 1_555 1_555
H52_4 C65_4 1_555 1_555
C66_2 O23_4 1_555 1_555
H54_2 C66_2 1_555 1_555
H55_2 C66_2 1_555 1_555
H56_2 C66_2 1_555 1_555
C52_4 C58_4 1_555 1_555
C53_4 C55_4 1_555 1_555
C56_4 C62_4 1_555 1_555
C59_4 C64_4 1_555 1_555
C61_4 C63_4 1_555 1_555
O22_4 H60_2 1_555 1_555
O20_4 Dy7 1_555 1_555
H37_4 O20_4 1_555 1_555
H3_4 O7_4 1_555 1_555
H4_4 O7_4 1_555 1_555
O29_2 C35_4 1_555 1_555
O14_4 C35_4 1_555 1_555
C34_4 C35_4 1_555 1_555
C38_4 C34_4 1_555 1_555
H29_4 C38_4 1_555 1_555
C39_4 C36_4 1_555 1_555
H30_4 C39_4 1_555 1_555
C40_4 C36_4 1_555 1_555
C41_4 C38_4 1_555 1_555
H31_4 C41_4 1_555 1_555
C42_4 C34_4 1_555 1_555
H32_4 C42_4 1_555 1_555
C43_4 C40_4 1_555 1_555
H33_4 C43_4 1_555 1_555
O15_4 C37_4 1_555 1_555
C44_4 O15_4 1_555 1_555
H34_4 C44_4 1_555 1_555
H35_4 C44_4 1_555 1_555
H36_4 C44_4 1_555 1_555
H39_4 O21_4 1_555 1_555
H40_4 O21_4 1_555 1_555
C37_4 C39_4 1_555 1_555
C40_4 C41_4 1_555 1_555
C42_4 C43_4 1_555 1_555
O5_4 Dy4 1_555 1_555
H1_4 O5_4 1_555 1_555
O6_4 Dy4 1_555 1_555
O8_4 C8_4 1_555 1_555
C7_4 C8_4 1_555 1_555
C8_4 O6_4 1_555 1_555
C13_4 C25_4 1_555 1_555
C20_4 C25_4 1_555 1_555
C24_4 C7_4 1_555 1_555
H14_4 C24_4 1_555 1_555
C25_4 H15_4 1_555 1_555
C26_4 C13_4 1_555 1_555
C28_4 C24_4 1_555 1_555
H17_4 C28_4 1_555 1_555
C29_4 C7_4 1_555 1_555
H18_4 C29_4 1_555 1_555
C30_4 C26_4 1_555 1_555
H19_4 C30_4 1_555 1_555
O12_4 C20_4 1_555 1_555
C33_4 O12_4 1_555 1_555
H26_4 C33_4 1_555 1_555
H27_4 C33_4 1_555 1_555
H28_4 C33_4 1_555 1_555
C26_4 C28_4 1_555 1_555
C29_4 C30_4 1_555 1_555
O1_4 C3_4 1_555 1_555
O25_2 C2_4 1_555 1_555
O27 C2_4 1_555 1_555
C1_4 C2_4 1_555 1_555
C3_4 C5_4 1_555 1_555
C4_4 C1_4 1_555 1_555
H5_4 C4_4 1_555 1_555
C5_4 C15_4 1_555 1_555
C6_4 H6_4 1_555 1_555
C9_4 C16_4 1_555 1_555
O10_4 C19_4 1_555 1_555
C10_4 C12_4 1_555 1_555
C11_4 C1_4 1_555 1_555
H7_4 C11_4 1_555 1_555
C12_4 C6_4 1_555 1_555
C14_4 C10_4 1_555 1_555
H8_4 C14_4 1_555 1_555
O11_4 C21_4 1_555 1_555
C16_4 C19_4 1_555 1_555
C17_4 C4_4 1_555 1_555
H10_4 C17_4 1_555 1_555
C18_4 C5_4 1_555 1_555
H11_4 C18_4 1_555 1_555
C19_4 C6_4 1_555 1_555
C21_4 C12_4 1_555 1_555
C22_4 C9_4 1_555 1_555
H12_4 C22_4 1_555 1_555
C23_4 C16_4 1_555 1_555
H13_4 C23_4 1_555 1_555
C27_4 C9_4 1_555 1_555
H16_4 C27_4 1_555 1_555
C31_4 O11_4 1_555 1_555
H20_4 C31_4 1_555 1_555
H21_4 C31_4 1_555 1_555
C32_2 O10_4 1_555 1_555
H23_2 C32_2 1_555 1_555
H24_2 C32_2 1_555 1_555
H25_2 C32_2 1_555 1_555
C10_4 C17_4 1_555 1_555
C11_4 C14_4 1_555 1_555
C15_4 C22_4 1_555 1_555
C18_4 C27_4 1_555 1_555
C21_4 C23_4 1_555 1_555
O9_4 H57_2 1_555 1_555
O9_3 H60_3 1_555 1_555
O22_3 H57_3 1_555 1_555
O22_4 H57_4 1_555 1_555
O9_4 H60_4 1_555 1_555
H54_3 C66_3 1_555 1_555
H55_3 C66_3 1_555 1_555
H56_3 C66_3 1_555 1_555
H23_3 C32_3 1_555 1_555
H24_3 C32_3 1_555 1_555
H25_3 C32_3 1_555 1_555
H54_4 C66_4 1_555 1_555
H55_4 C66_4 1_555 1_555
H56_4 C66_4 1_555 1_555
H23_4 C32_4 1_555 1_555
H24_4 C32_4 1_555 1_555
H25_4 C32_4 1_555 1_555

#END
