
###############################################################################
#
# This file contains modified crystal structure data generated from the
# MOF subset of the Cambridge Structural Database (CSD) v543 
# hosted by the Cambridge Crystallographic Data Centre (CCDC).
#
# This work is licensed under the Creative Commons
# Attribution-NonCommercial-ShareAlike 4.0 International License.
# To view a copy of this license, visit
# http://creativecommons.org/licenses/by-nc-sa/4.0/
# or send a letter to
# Creative Commons, PO Box 1866, Mountain View, CA 94042, USA.
#
# CIF created using the CSD Python API on 29 September 2022
# The structure has been converted into the P1 space group
# The structure has a 3D framework
# The original CSD entry TAYNEN is in the monoclinic crystal system
# The framework has been calculated to contain at least 10.0% void space
# The void calculation uses a probe of radius 1.32A, grid spacing 0.4
# H atom positions have been added when not included in the experimental data
#
###############################################################################

data_TAYNEN
_chemical_formula_moiety         '(C168 H160 Cd8 N16 O44)n'
_symmetry_cell_setting           triclinic
_symmetry_space_group_name_H-M   'P 1'
_symmetry_Int_Tables_number      1
_space_group_name_Hall           'P 1'
loop_
_symmetry_equiv_pos_site_id
_symmetry_equiv_pos_as_xyz
1 x,y,z
_cell_length_a                   16.6695(11)
_cell_length_b                   17.1742(11)
_cell_length_c                   19.0262(12)
_cell_angle_alpha                90
_cell_angle_beta                 108.0280(10)
_cell_angle_gamma                90
_cell_volume                     5179.51
loop_
_atom_site_label
_atom_site_type_symbol
_atom_site_fract_x
_atom_site_fract_y
_atom_site_fract_z
C12 C 0.0286(5) 0.4989(6) 0.6097(5)
H6 H 0.0304 0.4509 0.5813
H7 H 0.0552 0.5413 0.5895
C13 C 0.0778(5) 0.4860(6) 0.6893(6)
H8 H 0.0487 0.4468 0.7108
H9 H 0.0805 0.5353 0.7170
C14 C 0.1695(5) 0.4574(5) 0.6975(6)
H10 H 0.1958 0.4925 0.6697
H11 H 0.2039 0.4588 0.7502
C15 C 0.1676(5) 0.3751(5) 0.6682(5)
C16 C 0.1602(6) 0.3153(6) 0.7071(5)
H12 H 0.1591 0.3237 0.7562
C17 C 0.1536(6) 0.2376(5) 0.6801(4)
H13 H 0.1475 0.1960 0.7110
C18 C 0.1706(5) 0.2857(4) 0.5739(4)
H14 H 0.1777 0.2778 0.5268
C19 C 0.1755(5) 0.3587(4) 0.6006(5)
H15 H 0.1848 0.4004 0.5712
Cd2 Cd 0.12766(3) 0.10027(3) 0.55640(2)
N3 N 0.2686(3) 0.0627(3) 0.5799(3)
N5 N 0.1558(4) 0.2220(3) 0.6120(3)
O10 O 0.1117(4) 0.0560(3) 0.6774(3)
O12 O 0.1089(4) 0.0393(4) 0.4264(3)
O14 O 0.1104(4) 0.1636(4) 0.4471(3)
O7 O 0.1119(3) 0.9711(3) 0.5914(2)
C32 C 0.4367(5) 0.0200(4) 0.5998(4)
H26 H 0.5552 0.0413 0.5895
H28 H 0.5805 0.0353 0.7170
C41 C 0.4161(6) 0.0929(5) 0.6222(7)
H35 H 0.4587 0.1299 0.6445
C42 C 0.3325(6) 0.1094(4) 0.6111(6)
H36 H 0.3195 0.1589 0.6273
Cd3 Cd 0.62766(3) 0.39973(3) 0.05640(2)
Cd1 Cd 0.62766(3) 0.60027(3) 0.55640(2)
C1 C 0.6110(4) 0.4867(4) 0.6558(4)
C2 C 0.6081(4) 0.3915(5) 0.9052(4)
C3 C 0.6100(4) 0.4227(4) 0.7073(3)
C4 C 0.6085(4) 0.4383(4) 0.7791(3)
H1 H 0.6082 0.4906 0.7953
C5 C 0.6076(4) 0.3769(4) 0.8270(3)
C6 C 0.6043(4) 0.3003(4) 0.8020(4)
H2 H 0.6001 0.2587 0.8336
C7 C 0.6073(5) 0.2846(4) 0.7316(4)
C8 C 0.6106(4) 0.3450(4) 0.6839(3)
H3 H 0.6132 0.3339 0.6357
C9 C 0.7895(5) 0.4952(5) 0.5576(5)
H4 H 0.7455 0.4603 0.5333
C10 C 0.8704(5) 0.4728(5) 0.5675(6)
H5 H 0.8808 0.4226 0.5513
C11 C 0.9367(5) 0.5200(4) 0.5998(4)
C20 C 0.9161(6) 0.5929(5) 0.6222(7)
H16 H 0.9587 0.6299 0.6445
C21 C 0.8325(6) 0.6094(4) 0.6111(6)
H17 H 0.8195 0.6589 0.6273
N1 N 0.7686(3) 0.5627(3) 0.5799(3)
N2 N 0.6558(4) 0.7220(3) 0.6120(3)
O1 O 0.6119(3) 0.4711(3) 0.5914(2)
O2 O 0.4786(4) 0.6117(4) 0.5256(3)
H18 H 0.4554 0.5841 0.4884
O3 O 0.6117(4) 0.5560(3) 0.6774(3)
O4 O 0.6089(4) 0.5393(4) 0.4264(3)
O5 O 0.6104(4) 0.6636(4) 0.4471(3)
O6 O 0.6047(4) 0.2089(3) 0.7095(3)
H19 H 0.6025 0.1796 0.7442
C22 C 0.6110(4) 0.5133(4) 0.1558(4)
C23 C 0.6081(4) 0.6085(5) 0.4052(4)
C24 C 0.6100(4) 0.5773(4) 0.2073(3)
C25 C 0.6085(4) 0.5617(4) 0.2791(3)
H20 H 0.6082 0.5094 0.2953
C26 C 0.6076(4) 0.6231(4) 0.3270(3)
C27 C 0.6043(4) 0.6997(4) 0.3020(4)
H21 H 0.6001 0.7413 0.3336
C28 C 0.6073(5) 0.7154(4) 0.2316(4)
C29 C 0.6106(4) 0.6550(4) 0.1839(3)
H22 H 0.6132 0.6661 0.1357
C30 C 0.2895(5) 0.9952(5) 0.5576(5)
H23 H 0.2455 0.9603 0.5333
C31 C 0.3704(5) 0.9728(5) 0.5675(6)
H24 H 0.3808 0.9226 0.5513
C33 C 0.5286(5) 0.9989(6) 0.6097(5)
H25 H 0.5304 0.9509 0.5813
C34 C 0.5778(5) 0.9860(6) 0.6893(6)
H27 H 0.5487 0.9468 0.7108
C35 C 0.6695(5) 0.9574(5) 0.6975(6)
H29 H 0.6958 0.9925 0.6697
H30 H 0.7039 0.9588 0.7502
C36 C 0.6676(5) 0.8751(5) 0.6682(5)
C37 C 0.6602(6) 0.8153(6) 0.7071(5)
H31 H 0.6591 0.8237 0.7562
C38 C 0.6536(6) 0.7376(5) 0.6801(4)
H32 H 0.6475 0.6960 0.7110
C39 C 0.6706(5) 0.7857(4) 0.5739(4)
H33 H 0.6777 0.7778 0.5268
C40 C 0.6755(5) 0.8587(4) 0.6006(5)
H34 H 0.6848 0.9004 0.5712
O8 O 0.6119(3) 0.5289(3) 0.0914(2)
O9 O 0.9786(4) 0.1117(4) 0.5256(3)
H37 H 0.9554 0.0841 0.4884
O11 O 0.6117(4) 0.4440(3) 0.1774(3)
O13 O 0.6089(4) 0.4607(4) 0.9264(3)
O15 O 0.6104(4) 0.3364(4) 0.9471(3)
O16 O 0.6047(4) 0.7911(3) 0.2095(3)
H38 H 0.6025 0.8204 0.2442
H39 H 0.461953 0.666945 0.514395
H40 H 0.961953 0.166945 0.514395
C22_2 C 0.1110(4) 0.0133(4) 0.1558(4)
C23_2 C 0.1081(4) 0.1085(5) 0.4052(4)
C24_2 C 0.1100(4) 0.0773(4) 0.2073(3)
C25_2 C 0.1085(4) 0.0617(4) 0.2791(3)
H20_2 H 0.1082 0.0094 0.2953
C26_2 C 0.1076(4) 0.1231(4) 0.3270(3)
C27_2 C 0.1043(4) 0.1997(4) 0.3020(4)
H21_2 H 0.1001 0.2413 0.3336
C28_2 C 0.1073(5) 0.2154(4) 0.2316(4)
C29_2 C 0.1106(4) 0.1550(4) 0.1839(3)
H22_2 H 0.1132 0.1661 0.1357
O8_2 O 0.1119(3) 0.0289(3) 0.0914(2)
O16_2 O 0.1047(4) 0.2911(3) 0.2095(3)
H38_2 H 0.1025 0.3204 0.2442
Cd3_2 Cd 0.12766(3) 0.89973(3) 0.05640(2)
C1_2 C 0.1110(4) 0.9867(4) 0.6558(4)
C2_2 C 0.1081(4) 0.8915(5) 0.9052(4)
C3_2 C 0.1100(4) 0.9227(4) 0.7073(3)
C4_2 C 0.1085(4) 0.9383(4) 0.7791(3)
H1_2 H 0.1082 0.9906 0.7953
C5_2 C 0.1076(4) 0.8769(4) 0.8270(3)
C6_2 C 0.1043(4) 0.8003(4) 0.8020(4)
H2_2 H 0.1001 0.7587 0.8336
C7_2 C 0.1073(5) 0.7846(4) 0.7316(4)
C8_2 C 0.1106(4) 0.8450(4) 0.6839(3)
H3_2 H 0.1132 0.8339 0.6357
O6_2 O 0.1047(4) 0.7089(3) 0.7095(3)
H19_2 H 0.1025 0.6796 0.7442
O11_2 O 0.1117(4) 0.9440(3) 0.1774(3)
O13_2 O 0.1089(4) 0.9607(4) 0.9264(3)
O15_2 O 0.1104(4) 0.8364(4) 0.9471(3)
C12_2 C 0.0286(5) 0.5011(6) 0.1097(5)
H6_2 H 0.0304 0.5491 0.0813
H7_2 H 0.0552 0.4587 0.0895
C13_2 C 0.0778(5) 0.5140(6) 0.1893(6)
H8_2 H 0.0487 0.5532 0.2108
H9_2 H 0.0805 0.4647 0.2170
C14_2 C 0.1695(5) 0.5426(5) 0.1975(6)
H10_2 H 0.1958 0.5075 0.1697
H11_2 H 0.2039 0.5412 0.2502
C15_2 C 0.1676(5) 0.6249(5) 0.1682(5)
C16_2 C 0.1602(6) 0.6847(6) 0.2071(5)
H12_2 H 0.1591 0.6763 0.2562
C17_2 C 0.1536(6) 0.7624(5) 0.1801(4)
H13_2 H 0.1475 0.8040 0.2110
C18_2 C 0.1706(5) 0.7143(4) 0.0739(4)
H14_2 H 0.1777 0.7222 0.0268
C19_2 C 0.1755(5) 0.6413(4) 0.1006(5)
H15_2 H 0.1848 0.5996 0.0712
N3_2 N 0.2686(3) 0.9373(3) 0.0799(3)
N5_2 N 0.1558(4) 0.7780(3) 0.1120(3)
C9_2 C 0.7895(5) 0.5048(5) 0.0576(5)
H4_2 H 0.7455 0.5397 0.0333
C10_2 C 0.8704(5) 0.5272(5) 0.0675(6)
H5_2 H 0.8808 0.5774 0.0513
C11_2 C 0.9367(5) 0.4800(4) 0.0998(4)
C20_2 C 0.9161(6) 0.4071(5) 0.1222(7)
H16_2 H 0.9587 0.3701 0.1445
C21_2 C 0.8325(6) 0.3906(4) 0.1111(6)
H17_2 H 0.8195 0.3411 0.1273
N1_2 N 0.7686(3) 0.4373(3) 0.0799(3)
N2_2 N 0.6558(4) 0.2780(3) 0.1120(3)
O2_2 O 0.4786(4) 0.3883(4) 0.0256(3)
C30_2 C 0.2895(5) 0.0048(5) 0.0576(5)
H23_2 H 0.2455 0.0397 0.0333
C31_2 C 0.3704(5) 0.0272(5) 0.0675(6)
H24_2 H 0.3808 0.0774 0.0513
C33_2 C 0.5286(5) 0.0011(6) 0.1097(5)
H25_2 H 0.5304 0.0491 0.0813
C34_2 C 0.5778(5) 0.0140(6) 0.1893(6)
H27_2 H 0.5487 0.0532 0.2108
C35_2 C 0.6695(5) 0.0426(5) 0.1975(6)
H29_2 H 0.6958 0.0075 0.1697
H30_2 H 0.7039 0.0412 0.2502
C36_2 C 0.6676(5) 0.1249(5) 0.1682(5)
C37_2 C 0.6602(6) 0.1847(6) 0.2071(5)
H31_2 H 0.6591 0.1763 0.2562
C38_2 C 0.6536(6) 0.2624(5) 0.1801(4)
H32_2 H 0.6475 0.3040 0.2110
C39_2 C 0.6706(5) 0.2143(4) 0.0739(4)
H33_2 H 0.6777 0.2222 0.0268
C40_2 C 0.6755(5) 0.1413(4) 0.1006(5)
H34_2 H 0.6848 0.0996 0.0712
O9_2 O 0.9786(4) 0.8883(4) 0.0256(3)
H39_2 H 0.461953 0.333055 0.0143949
H40_2 H 0.961953 0.833055 0.0143949
H18_2 H 0.4554 0.4159 0.9884
H37_2 H 0.9554 0.9159 0.9884
C32_2 C 0.4367(5) 0.9800(4) 0.0998(4)
H26_2 H 0.5552 0.9587 0.0895
H28_2 H 0.5805 0.9647 0.2170
C41_2 C 0.4161(6) 0.9071(5) 0.1222(7)
H35_2 H 0.4587 0.8701 0.1445
C42_2 C 0.3325(6) 0.8906(4) 0.1111(6)
H36_2 H 0.3195 0.8411 0.1273
Cd5 Cd 0.87234(3) 0.10027(3) 0.94360(2)
C32_3 C 0.5633(5) 0.0200(4) 0.9002(4)
H26_3 H 0.4448 0.0413 0.9105
H28_3 H 0.4195 0.0353 0.7830
C41_3 C 0.5839(6) 0.0929(5) 0.8778(7)
H35_3 H 0.5413 0.1299 0.8555
C42_3 C 0.6675(6) 0.1094(4) 0.8889(6)
H36_3 H 0.6805 0.1589 0.8727
N4 N 0.7314(3) 0.0627(3) 0.9201(3)
H18_3 H 0.5446 0.5841 0.0116
O4_2 O 0.3911(4) 0.5393(4) 0.0736(3)
O5_2 O 0.3896(4) 0.6636(4) 0.0529(3)
Cd4 Cd 0.37234(3) 0.39973(3) 0.44360(2)
C22_3 C 0.3890(4) 0.5133(4) 0.3442(4)
C23_3 C 0.3919(4) 0.6085(5) 0.0948(4)
C24_3 C 0.3900(4) 0.5773(4) 0.2927(3)
C25_3 C 0.3915(4) 0.5617(4) 0.2209(3)
H20_3 H 0.3918 0.5094 0.2047
C26_3 C 0.3924(4) 0.6231(4) 0.1730(3)
C27_3 C 0.3957(4) 0.6997(4) 0.1980(4)
H21_3 H 0.3999 0.7413 0.1664
C28_3 C 0.3927(5) 0.7154(4) 0.2684(4)
C29_3 C 0.3894(4) 0.6550(4) 0.3161(3)
H22_3 H 0.3868 0.6661 0.3643
O8_3 O 0.3881(3) 0.5289(3) 0.4086(2)
H37_3 H 0.0446 0.0841 0.0116
O11_3 O 0.3883(4) 0.4440(3) 0.3226(3)
O16_3 O 0.3953(4) 0.7911(3) 0.2905(3)
H38_3 H 0.3975 0.8204 0.2558
Cd1_2 Cd 0.37234(3) 0.60027(3) 0.94360(2)
C1_3 C 0.3890(4) 0.4867(4) 0.8442(4)
C2_3 C 0.3919(4) 0.3915(5) 0.5948(4)
C3_3 C 0.3900(4) 0.4227(4) 0.7927(3)
C4_3 C 0.3915(4) 0.4383(4) 0.7209(3)
H1_3 H 0.3918 0.4906 0.7047
C5_3 C 0.3924(4) 0.3769(4) 0.6730(3)
C6_3 C 0.3957(4) 0.3003(4) 0.6980(4)
H2_3 H 0.3999 0.2587 0.6664
C7_3 C 0.3927(5) 0.2846(4) 0.7684(4)
C8_3 C 0.3894(4) 0.3450(4) 0.8161(3)
H3_3 H 0.3868 0.3339 0.8643
C9_3 C 0.2105(5) 0.4952(5) 0.9424(5)
H4_3 H 0.2545 0.4603 0.9667
C10_3 C 0.1296(5) 0.4728(5) 0.9325(6)
H5_3 H 0.1192 0.4226 0.9487
C11_3 C 0.0633(5) 0.5200(4) 0.9002(4)
C20_3 C 0.0839(6) 0.5929(5) 0.8778(7)
H16_3 H 0.0413 0.6299 0.8555
C21_3 C 0.1675(6) 0.6094(4) 0.8889(6)
H17_3 H 0.1805 0.6589 0.8727
N1_3 N 0.2314(3) 0.5627(3) 0.9201(3)
N2_3 N 0.3442(4) 0.7220(3) 0.8880(3)
O1_2 O 0.3881(3) 0.4711(3) 0.9086(2)
O2_3 O 0.5214(4) 0.6117(4) 0.9744(3)
O3_2 O 0.3883(4) 0.5560(3) 0.8226(3)
O6_3 O 0.3953(4) 0.2089(3) 0.7905(3)
H19_3 H 0.3975 0.1796 0.7558
C30_3 C 0.7105(5) 0.9952(5) 0.9424(5)
H23_3 H 0.7545 0.9603 0.9667
C31_3 C 0.6296(5) 0.9728(5) 0.9325(6)
H24_3 H 0.6192 0.9226 0.9487
C33_3 C 0.4714(5) 0.9989(6) 0.8903(5)
H25_3 H 0.4696 0.9509 0.9187
C34_3 C 0.4222(5) 0.9860(6) 0.8107(6)
H27_3 H 0.4513 0.9468 0.7892
C35_3 C 0.3305(5) 0.9574(5) 0.8025(6)
H29_3 H 0.3042 0.9925 0.8303
H30_3 H 0.2961 0.9588 0.7498
C36_3 C 0.3324(5) 0.8751(5) 0.8318(5)
C37_3 C 0.3398(6) 0.8153(6) 0.7929(5)
H31_3 H 0.3409 0.8237 0.7438
C38_3 C 0.3464(6) 0.7376(5) 0.8199(4)
H32_3 H 0.3525 0.6960 0.7890
C39_3 C 0.3294(5) 0.7857(4) 0.9261(4)
H33_3 H 0.3223 0.7778 0.9732
C40_3 C 0.3245(5) 0.8587(4) 0.8994(5)
H34_3 H 0.3152 0.9004 0.9288
O9_3 O 0.0214(4) 0.1117(4) 0.9744(3)
O13_3 O 0.3911(4) 0.4607(4) 0.5736(3)
O15_3 O 0.3896(4) 0.3364(4) 0.5529(3)
H39_3 H 0.538047 0.666945 0.985605
H40_3 H 0.0380467 0.166945 0.985605
O12_2 O 0.8911(4) 0.0393(4) 0.0736(3)
O14_2 O 0.8896(4) 0.1636(4) 0.0529(3)
C12_3 C 0.9714(5) 0.4989(6) 0.8903(5)
H6_3 H 0.9696 0.4509 0.9187
H7_3 H 0.9448 0.5413 0.9105
C13_3 C 0.9222(5) 0.4860(6) 0.8107(6)
H8_3 H 0.9513 0.4468 0.7892
H9_3 H 0.9195 0.5353 0.7830
C14_3 C 0.8305(5) 0.4574(5) 0.8025(6)
H10_3 H 0.8042 0.4925 0.8303
H11_3 H 0.7961 0.4588 0.7498
C15_3 C 0.8324(5) 0.3751(5) 0.8318(5)
C16_3 C 0.8398(6) 0.3153(6) 0.7929(5)
H12_3 H 0.8409 0.3237 0.7438
C17_3 C 0.8464(6) 0.2376(5) 0.8199(4)
H13_3 H 0.8525 0.1960 0.7890
C18_3 C 0.8294(5) 0.2857(4) 0.9261(4)
H14_3 H 0.8223 0.2778 0.9732
C19_3 C 0.8245(5) 0.3587(4) 0.8994(5)
H15_3 H 0.8152 0.4004 0.9288
N5_3 N 0.8442(4) 0.2220(3) 0.8880(3)
O10_2 O 0.8883(4) 0.0560(3) 0.8226(3)
O7_2 O 0.8881(3) 0.9711(3) 0.9086(2)
C22_4 C 0.8890(4) 0.0133(4) 0.3442(4)
C23_4 C 0.8919(4) 0.1085(5) 0.0948(4)
C24_4 C 0.8900(4) 0.0773(4) 0.2927(3)
C25_4 C 0.8915(4) 0.0617(4) 0.2209(3)
H20_4 H 0.8918 0.0094 0.2047
C26_4 C 0.8924(4) 0.1231(4) 0.1730(3)
C27_4 C 0.8957(4) 0.1997(4) 0.1980(4)
H21_4 H 0.8999 0.2413 0.1664
C28_4 C 0.8927(5) 0.2154(4) 0.2684(4)
C29_4 C 0.8894(4) 0.1550(4) 0.3161(3)
H22_4 H 0.8868 0.1661 0.3643
O8_4 O 0.8881(3) 0.0289(3) 0.4086(2)
O16_4 O 0.8953(4) 0.2911(3) 0.2905(3)
H38_4 H 0.8975 0.3204 0.2558
Cd4_2 Cd 0.87234(3) 0.89973(3) 0.44360(2)
O11_4 O 0.8883(4) 0.9440(3) 0.3226(3)
C1_4 C 0.8890(4) 0.9867(4) 0.8442(4)
C2_4 C 0.8919(4) 0.8915(5) 0.5948(4)
C3_4 C 0.8900(4) 0.9227(4) 0.7927(3)
C4_4 C 0.8915(4) 0.9383(4) 0.7209(3)
H1_4 H 0.8918 0.9906 0.7047
C5_4 C 0.8924(4) 0.8769(4) 0.6730(3)
C6_4 C 0.8957(4) 0.8003(4) 0.6980(4)
H2_4 H 0.8999 0.7587 0.6664
C7_4 C 0.8927(5) 0.7846(4) 0.7684(4)
C8_4 C 0.8894(4) 0.8450(4) 0.8161(3)
H3_4 H 0.8868 0.8339 0.8643
O6_4 O 0.8953(4) 0.7089(3) 0.7905(3)
H19_4 H 0.8975 0.6796 0.7558
O13_4 O 0.8911(4) 0.9607(4) 0.5736(3)
O15_4 O 0.8896(4) 0.8364(4) 0.5529(3)
C9_4 C 0.2105(5) 0.5048(5) 0.4424(5)
H4_4 H 0.2545 0.5397 0.4667
C10_4 C 0.1296(5) 0.5272(5) 0.4325(6)
H5_4 H 0.1192 0.5774 0.4487
C11_4 C 0.0633(5) 0.4800(4) 0.4002(4)
C20_4 C 0.0839(6) 0.4071(5) 0.3778(7)
H16_4 H 0.0413 0.3701 0.3555
C21_4 C 0.1675(6) 0.3906(4) 0.3889(6)
H17_4 H 0.1805 0.3411 0.3727
N1_4 N 0.2314(3) 0.4373(3) 0.4201(3)
N2_4 N 0.3442(4) 0.2780(3) 0.3880(3)
O2_4 O 0.5214(4) 0.3883(4) 0.4744(3)
H18_4 H 0.5446 0.4159 0.5116
C30_4 C 0.7105(5) 0.0048(5) 0.4424(5)
H23_4 H 0.7545 0.0397 0.4667
C31_4 C 0.6296(5) 0.0272(5) 0.4325(6)
H24_4 H 0.6192 0.0774 0.4487
C33_4 C 0.4714(5) 0.0011(6) 0.3903(5)
H25_4 H 0.4696 0.0491 0.4187
C34_4 C 0.4222(5) 0.0140(6) 0.3107(6)
H27_4 H 0.4513 0.0532 0.2892
C35_4 C 0.3305(5) 0.0426(5) 0.3025(6)
H29_4 H 0.3042 0.0075 0.3303
H30_4 H 0.2961 0.0412 0.2498
C36_4 C 0.3324(5) 0.1249(5) 0.3318(5)
C37_4 C 0.3398(6) 0.1847(6) 0.2929(5)
H31_4 H 0.3409 0.1763 0.2438
C38_4 C 0.3464(6) 0.2624(5) 0.3199(4)
H32_4 H 0.3525 0.3040 0.2890
C39_4 C 0.3294(5) 0.2143(4) 0.4261(4)
H33_4 H 0.3223 0.2222 0.4732
C40_4 C 0.3245(5) 0.1413(4) 0.3994(5)
H34_4 H 0.3152 0.0996 0.4288
O9_4 O 0.0214(4) 0.8883(4) 0.4744(3)
H37_4 H 0.0446 0.9159 0.5116
H39_4 H 0.538047 0.333055 0.485605
H40_4 H 0.0380467 0.833055 0.485605
C32_4 C 0.5633(5) 0.9800(4) 0.4002(4)
H26_4 H 0.4448 0.9587 0.4105
H28_4 H 0.4195 0.9647 0.2830
C41_4 C 0.5839(6) 0.9071(5) 0.3778(7)
H35_4 H 0.5413 0.8701 0.3555
C42_4 C 0.6675(6) 0.8906(4) 0.3889(6)
H36_4 H 0.6805 0.8411 0.3727
N4_2 N 0.7314(3) 0.9373(3) 0.4201(3)
C12_4 C 0.9714(5) 0.5011(6) 0.3903(5)
H6_4 H 0.9696 0.5491 0.4187
H7_4 H 0.9448 0.4587 0.4105
C13_4 C 0.9222(5) 0.5140(6) 0.3107(6)
H8_4 H 0.9513 0.5532 0.2892
H9_4 H 0.9195 0.4647 0.2830
C14_4 C 0.8305(5) 0.5426(5) 0.3025(6)
H10_4 H 0.8042 0.5075 0.3303
H11_4 H 0.7961 0.5412 0.2498
C15_4 C 0.8324(5) 0.6249(5) 0.3318(5)
C16_4 C 0.8398(6) 0.6847(6) 0.2929(5)
H12_4 H 0.8409 0.6763 0.2438
C17_4 C 0.8464(6) 0.7624(5) 0.3199(4)
H13_4 H 0.8525 0.8040 0.2890
C18_4 C 0.8294(5) 0.7143(4) 0.4261(4)
H14_4 H 0.8223 0.7222 0.4732
C19_4 C 0.8245(5) 0.6413(4) 0.3994(5)
H15_4 H 0.8152 0.5996 0.4288
N5_4 N 0.8442(4) 0.7780(3) 0.3880(3)
loop_
_geom_bond_atom_site_label_1
_geom_bond_atom_site_label_2
_geom_bond_site_symmetry_1
_geom_bond_site_symmetry_2
H6 C12 1_555 1_555
H7 C12 1_555 1_555
C13 C12 1_555 1_555
H8 C13 1_555 1_555
H9 C13 1_555 1_555
C14 C13 1_555 1_555
H10 C14 1_555 1_555
H11 C14 1_555 1_555
C15 C14 1_555 1_555
C16 C15 1_555 1_555
H12 C16 1_555 1_555
C17 C16 1_555 1_555
H13 C17 1_555 1_555
C18 H14 1_555 1_555
C19 C15 1_555 1_555
H15 C19 1_555 1_555
Cd2 N3 1_555 1_555
N5 C17 1_555 1_555
O10 Cd2 1_555 1_555
O12 Cd2 1_555 1_555
O14 Cd2 1_555 1_555
C18 C19 1_555 1_555
C18 N5 1_555 1_555
Cd2 N5 1_555 1_555
C41 C32 1_555 1_555
H35 C41 1_555 1_555
C42 C41 1_555 1_555
H36 C42 1_555 1_555
C42 N3 1_555 1_555
Cd1 N1 1_555 1_555
C1 C3 1_555 1_555
C2 C5 1_555 1_555
C3 C4 1_555 1_555
C4 H1 1_555 1_555
C5 C4 1_555 1_555
C6 C5 1_555 1_555
H2 C6 1_555 1_555
C7 C6 1_555 1_555
C8 C3 1_555 1_555
H3 C8 1_555 1_555
C9 H4 1_555 1_555
C10 C9 1_555 1_555
H5 C10 1_555 1_555
C11 C10 1_555 1_555
C20 C11 1_555 1_555
H16 C20 1_555 1_555
C21 C20 1_555 1_555
H17 C21 1_555 1_555
N1 C9 1_555 1_555
N2 Cd1 1_555 1_555
O1 Cd1 1_555 1_555
O2 Cd1 1_555 1_555
H18 O2 1_555 1_555
O3 Cd1 1_555 1_555
O4 Cd1 1_555 1_555
O5 Cd1 1_555 1_555
O6 C7 1_555 1_555
H19 O6 1_555 1_555
Cd3 O8 1_555 1_555
C22 C24 1_555 1_555
C23 O4 1_555 1_555
C24 C25 1_555 1_555
C25 H20 1_555 1_555
C26 C23 1_555 1_555
C27 C26 1_555 1_555
H21 C27 1_555 1_555
C28 C27 1_555 1_555
C29 C24 1_555 1_555
H22 C29 1_555 1_555
C30 H23 1_555 1_555
C31 C30 1_555 1_555
H24 C31 1_555 1_555
H25 C33 1_555 1_555
C34 C33 1_555 1_555
H27 C34 1_555 1_555
C35 C34 1_555 1_555
H29 C35 1_555 1_555
H30 C35 1_555 1_555
C36 C35 1_555 1_555
C37 C36 1_555 1_555
H31 C37 1_555 1_555
C38 N2 1_555 1_555
H32 C38 1_555 1_555
C39 N2 1_555 1_555
H33 C39 1_555 1_555
C40 C36 1_555 1_555
H34 C40 1_555 1_555
O8 C22 1_555 1_555
H37 O9 1_555 1_555
O11 Cd3 1_555 1_555
O13 C2 1_555 1_555
O15 C2 1_555 1_555
O16 C28 1_555 1_555
H38 O16 1_555 1_555
C1 O1 1_555 1_555
C1 O3 1_555 1_555
C7 C8 1_555 1_555
C21 N1 1_555 1_555
O5 C23 1_555 1_555
C22 O11 1_555 1_555
C25 C26 1_555 1_555
C28 C29 1_555 1_555
C37 C38 1_555 1_555
C39 C40 1_555 1_555
O2 H39 1_555 1_555
O9 H40 1_555 1_555
C22_2 C24_2 1_555 1_555
C23_2 O12 1_555 1_555
C24_2 C25_2 1_555 1_555
C25_2 H20_2 1_555 1_555
C26_2 C23_2 1_555 1_555
C27_2 C26_2 1_555 1_555
H21_2 C27_2 1_555 1_555
C28_2 C27_2 1_555 1_555
C29_2 C24_2 1_555 1_555
H22_2 C29_2 1_555 1_555
O8_2 C22_2 1_555 1_555
O16_2 C28_2 1_555 1_555
H38_2 O16_2 1_555 1_555
O14 C23_2 1_555 1_555
C25_2 C26_2 1_555 1_555
C28_2 C29_2 1_555 1_555
C1_2 C3_2 1_555 1_555
C2_2 C5_2 1_555 1_555
C3_2 C4_2 1_555 1_555
C4_2 H1_2 1_555 1_555
C5_2 C4_2 1_555 1_555
C6_2 C5_2 1_555 1_555
H2_2 C6_2 1_555 1_555
C7_2 C6_2 1_555 1_555
C8_2 C3_2 1_555 1_555
H3_2 C8_2 1_555 1_555
O6_2 C7_2 1_555 1_555
H19_2 O6_2 1_555 1_555
O11_2 Cd3_2 1_555 1_555
O13_2 C2_2 1_555 1_555
O15_2 C2_2 1_555 1_555
C1_2 O7 1_555 1_555
C7_2 C8_2 1_555 1_555
H6_2 C12_2 1_555 1_555
H7_2 C12_2 1_555 1_555
C13_2 C12_2 1_555 1_555
H8_2 C13_2 1_555 1_555
H9_2 C13_2 1_555 1_555
C14_2 C13_2 1_555 1_555
H10_2 C14_2 1_555 1_555
H11_2 C14_2 1_555 1_555
C15_2 C14_2 1_555 1_555
C16_2 C15_2 1_555 1_555
H12_2 C16_2 1_555 1_555
C17_2 C16_2 1_555 1_555
H13_2 C17_2 1_555 1_555
C18_2 H14_2 1_555 1_555
C19_2 C15_2 1_555 1_555
H15_2 C19_2 1_555 1_555
Cd3_2 N3_2 1_555 1_555
N5_2 C17_2 1_555 1_555
C18_2 C19_2 1_555 1_555
C18_2 N5_2 1_555 1_555
Cd3_2 N5_2 1_555 1_555
Cd3 N1_2 1_555 1_555
C9_2 H4_2 1_555 1_555
C10_2 C9_2 1_555 1_555
H5_2 C10_2 1_555 1_555
C11_2 C10_2 1_555 1_555
C20_2 C11_2 1_555 1_555
H16_2 C20_2 1_555 1_555
C21_2 C20_2 1_555 1_555
H17_2 C21_2 1_555 1_555
N1_2 C9_2 1_555 1_555
N2_2 Cd3 1_555 1_555
O2_2 Cd3 1_555 1_555
C30_2 H23_2 1_555 1_555
C31_2 C30_2 1_555 1_555
H24_2 C31_2 1_555 1_555
H25_2 C33_2 1_555 1_555
C34_2 C33_2 1_555 1_555
H27_2 C34_2 1_555 1_555
C35_2 C34_2 1_555 1_555
H29_2 C35_2 1_555 1_555
H30_2 C35_2 1_555 1_555
C36_2 C35_2 1_555 1_555
C37_2 C36_2 1_555 1_555
H31_2 C37_2 1_555 1_555
C38_2 N2_2 1_555 1_555
H32_2 C38_2 1_555 1_555
C39_2 N2_2 1_555 1_555
H33_2 C39_2 1_555 1_555
C40_2 C36_2 1_555 1_555
H34_2 C40_2 1_555 1_555
C21_2 N1_2 1_555 1_555
C37_2 C38_2 1_555 1_555
C39_2 C40_2 1_555 1_555
O2_2 H39_2 1_555 1_555
O9_2 H40_2 1_555 1_555
C41_2 C32_2 1_555 1_555
H35_2 C41_2 1_555 1_555
C42_2 C41_2 1_555 1_555
H36_2 C42_2 1_555 1_555
C42_2 N3_2 1_555 1_555
Cd5 N4 1_555 1_555
C41_3 C32_3 1_555 1_555
H35_3 C41_3 1_555 1_555
C42_3 C41_3 1_555 1_555
H36_3 C42_3 1_555 1_555
C42_3 N4 1_555 1_555
Cd4 O8_3 1_555 1_555
C22_3 C24_3 1_555 1_555
C23_3 O4_2 1_555 1_555
C24_3 C25_3 1_555 1_555
C25_3 H20_3 1_555 1_555
C26_3 C23_3 1_555 1_555
C27_3 C26_3 1_555 1_555
H21_3 C27_3 1_555 1_555
C28_3 C27_3 1_555 1_555
C29_3 C24_3 1_555 1_555
H22_3 C29_3 1_555 1_555
O8_3 C22_3 1_555 1_555
O11_3 Cd4 1_555 1_555
O16_3 C28_3 1_555 1_555
H38_3 O16_3 1_555 1_555
O5_2 C23_3 1_555 1_555
C22_3 O11_3 1_555 1_555
C25_3 C26_3 1_555 1_555
C28_3 C29_3 1_555 1_555
Cd1_2 N1_3 1_555 1_555
C1_3 C3_3 1_555 1_555
C2_3 C5_3 1_555 1_555
C3_3 C4_3 1_555 1_555
C4_3 H1_3 1_555 1_555
C5_3 C4_3 1_555 1_555
C6_3 C5_3 1_555 1_555
H2_3 C6_3 1_555 1_555
C7_3 C6_3 1_555 1_555
C8_3 C3_3 1_555 1_555
H3_3 C8_3 1_555 1_555
C9_3 H4_3 1_555 1_555
C10_3 C9_3 1_555 1_555
H5_3 C10_3 1_555 1_555
C11_3 C10_3 1_555 1_555
C20_3 C11_3 1_555 1_555
H16_3 C20_3 1_555 1_555
C21_3 C20_3 1_555 1_555
H17_3 C21_3 1_555 1_555
N1_3 C9_3 1_555 1_555
N2_3 Cd1_2 1_555 1_555
O1_2 Cd1_2 1_555 1_555
O2_3 Cd1_2 1_555 1_555
O3_2 Cd1_2 1_555 1_555
O6_3 C7_3 1_555 1_555
H19_3 O6_3 1_555 1_555
Cd4 O13_3 1_555 1_555
C30_3 H23_3 1_555 1_555
C31_3 C30_3 1_555 1_555
H24_3 C31_3 1_555 1_555
H25_3 C33_3 1_555 1_555
C34_3 C33_3 1_555 1_555
H27_3 C34_3 1_555 1_555
C35_3 C34_3 1_555 1_555
H29_3 C35_3 1_555 1_555
H30_3 C35_3 1_555 1_555
C36_3 C35_3 1_555 1_555
C37_3 C36_3 1_555 1_555
H31_3 C37_3 1_555 1_555
C38_3 N2_3 1_555 1_555
H32_3 C38_3 1_555 1_555
C39_3 N2_3 1_555 1_555
H33_3 C39_3 1_555 1_555
C40_3 C36_3 1_555 1_555
H34_3 C40_3 1_555 1_555
O13_3 C2_3 1_555 1_555
O15_3 C2_3 1_555 1_555
C1_3 O1_2 1_555 1_555
C1_3 O3_2 1_555 1_555
C7_3 C8_3 1_555 1_555
C21_3 N1_3 1_555 1_555
Cd4 O15_3 1_555 1_555
C37_3 C38_3 1_555 1_555
C39_3 C40_3 1_555 1_555
O2_3 H39_3 1_555 1_555
O9_3 H40_3 1_555 1_555
H6_3 C12_3 1_555 1_555
H7_3 C12_3 1_555 1_555
C13_3 C12_3 1_555 1_555
H8_3 C13_3 1_555 1_555
H9_3 C13_3 1_555 1_555
C14_3 C13_3 1_555 1_555
H10_3 C14_3 1_555 1_555
H11_3 C14_3 1_555 1_555
C15_3 C14_3 1_555 1_555
C16_3 C15_3 1_555 1_555
H12_3 C16_3 1_555 1_555
C17_3 C16_3 1_555 1_555
H13_3 C17_3 1_555 1_555
C18_3 H14_3 1_555 1_555
C19_3 C15_3 1_555 1_555
H15_3 C19_3 1_555 1_555
N5_3 C17_3 1_555 1_555
O10_2 Cd5 1_555 1_555
C18_3 C19_3 1_555 1_555
C18_3 N5_3 1_555 1_555
Cd5 N5_3 1_555 1_555
C22_4 C24_4 1_555 1_555
C23_4 O12_2 1_555 1_555
C24_4 C25_4 1_555 1_555
C25_4 H20_4 1_555 1_555
C26_4 C23_4 1_555 1_555
C27_4 C26_4 1_555 1_555
H21_4 C27_4 1_555 1_555
C28_4 C27_4 1_555 1_555
C29_4 C24_4 1_555 1_555
H22_4 C29_4 1_555 1_555
O8_4 C22_4 1_555 1_555
O16_4 C28_4 1_555 1_555
H38_4 O16_4 1_555 1_555
O14_2 C23_4 1_555 1_555
C25_4 C26_4 1_555 1_555
C28_4 C29_4 1_555 1_555
O11_4 Cd4_2 1_555 1_555
C1_4 C3_4 1_555 1_555
C2_4 C5_4 1_555 1_555
C3_4 C4_4 1_555 1_555
C4_4 H1_4 1_555 1_555
C5_4 C4_4 1_555 1_555
C6_4 C5_4 1_555 1_555
H2_4 C6_4 1_555 1_555
C7_4 C6_4 1_555 1_555
C8_4 C3_4 1_555 1_555
H3_4 C8_4 1_555 1_555
O6_4 C7_4 1_555 1_555
H19_4 O6_4 1_555 1_555
Cd4_2 O13_4 1_555 1_555
O13_4 C2_4 1_555 1_555
O15_4 C2_4 1_555 1_555
C1_4 O7_2 1_555 1_555
C7_4 C8_4 1_555 1_555
Cd4_2 O15_4 1_555 1_555
Cd4 N1_4 1_555 1_555
C9_4 H4_4 1_555 1_555
C10_4 C9_4 1_555 1_555
H5_4 C10_4 1_555 1_555
C11_4 C10_4 1_555 1_555
C20_4 C11_4 1_555 1_555
H16_4 C20_4 1_555 1_555
C21_4 C20_4 1_555 1_555
H17_4 C21_4 1_555 1_555
N1_4 C9_4 1_555 1_555
N2_4 Cd4 1_555 1_555
O2_4 Cd4 1_555 1_555
H18_4 O2_4 1_555 1_555
C30_4 H23_4 1_555 1_555
C31_4 C30_4 1_555 1_555
H24_4 C31_4 1_555 1_555
H25_4 C33_4 1_555 1_555
C34_4 C33_4 1_555 1_555
H27_4 C34_4 1_555 1_555
C35_4 C34_4 1_555 1_555
H29_4 C35_4 1_555 1_555
H30_4 C35_4 1_555 1_555
C36_4 C35_4 1_555 1_555
C37_4 C36_4 1_555 1_555
H31_4 C37_4 1_555 1_555
C38_4 N2_4 1_555 1_555
H32_4 C38_4 1_555 1_555
C39_4 N2_4 1_555 1_555
H33_4 C39_4 1_555 1_555
C40_4 C36_4 1_555 1_555
H34_4 C40_4 1_555 1_555
H37_4 O9_4 1_555 1_555
C21_4 N1_4 1_555 1_555
C37_4 C38_4 1_555 1_555
C39_4 C40_4 1_555 1_555
O2_4 H39_4 1_555 1_555
O9_4 H40_4 1_555 1_555
Cd4_2 N4_2 1_555 1_555
C41_4 C32_4 1_555 1_555
H35_4 C41_4 1_555 1_555
C42_4 C41_4 1_555 1_555
H36_4 C42_4 1_555 1_555
C42_4 N4_2 1_555 1_555
H6_4 C12_4 1_555 1_555
H7_4 C12_4 1_555 1_555
C13_4 C12_4 1_555 1_555
H8_4 C13_4 1_555 1_555
H9_4 C13_4 1_555 1_555
C14_4 C13_4 1_555 1_555
H10_4 C14_4 1_555 1_555
H11_4 C14_4 1_555 1_555
C15_4 C14_4 1_555 1_555
C16_4 C15_4 1_555 1_555
H12_4 C16_4 1_555 1_555
C17_4 C16_4 1_555 1_555
H13_4 C17_4 1_555 1_555
C18_4 H14_4 1_555 1_555
C19_4 C15_4 1_555 1_555
H15_4 C19_4 1_555 1_555
N5_4 C17_4 1_555 1_555
C18_4 C19_4 1_555 1_555
C18_4 N5_4 1_555 1_555
Cd4_2 N5_4 1_555 1_555

#END
