
###############################################################################
#
# This file contains modified crystal structure data generated from the
# MOF subset of the Cambridge Structural Database (CSD) v543 
# hosted by the Cambridge Crystallographic Data Centre (CCDC).
#
# This work is licensed under the Creative Commons
# Attribution-NonCommercial-ShareAlike 4.0 International License.
# To view a copy of this license, visit
# http://creativecommons.org/licenses/by-nc-sa/4.0/
# or send a letter to
# Creative Commons, PO Box 1866, Mountain View, CA 94042, USA.
#
# CIF created using the CSD Python API on 29 September 2022
# The structure has been converted into the P1 space group
# The structure has a 3D framework
# The original CSD entry TAYXUQ is in the orthorhombic crystal system
# The original CSD entry TAYXUQ is in a Sohncke space group
# The framework has been calculated to contain at least 10.0% void space
# The void calculation uses a probe of radius 1.32A, grid spacing 0.4
#
###############################################################################

data_TAYXUQ
_chemical_formula_moiety         '(C184 H156 Cd4 N20 O36)n'
_symmetry_cell_setting           triclinic
_symmetry_space_group_name_H-M   'P 1'
_symmetry_Int_Tables_number      1
_space_group_name_Hall           'P 1'
loop_
_symmetry_equiv_pos_site_id
_symmetry_equiv_pos_as_xyz
1 x,y,z
_cell_length_a                   16.5211(12)
_cell_length_b                   25.850(2)
_cell_length_c                   11.7081(8)
_cell_angle_alpha                90
_cell_angle_beta                 90
_cell_angle_gamma                90
_cell_volume                     5000.18
loop_
_atom_site_label
_atom_site_type_symbol
_atom_site_fract_x
_atom_site_fract_y
_atom_site_fract_z
H9 H 0.634738 0.010167 0.353953
H13 H 0.640689 0.011696 0.156048
Cd3 Cd 0.42289(2) 0.05531(2) 0.56849(2)
O12 O 0.5660(2) 0.03548(14) 0.5773(4)
C1 C 0.5784(3) 0.9446(2) 0.1305(4)
N2 N 0.5741(3) 0.94518(17) 0.3703(3)
C2 C 0.5780(3) 0.9446(2) 0.0045(4)
C4 C 0.5394(4) 0.9070(2) 0.3112(5)
H1 H 0.513371 0.880004 0.352072
C6 C 0.5397(4) 0.9050(2) 0.1919(5)
H3 H 0.513980 0.877294 0.152875
C13 C 0.6102(4) 0.9828(2) 0.3124(4)
C17 C 0.6139(4) 0.9840(2) 0.1937(4)
Cd2 Cd 0.57711(2) 0.94469(2) 0.56849(2)
N1 N 0.5790(3) 0.94347(17) 0.7659(3)
O1 O 0.2196(3) 0.54220(15) 0.4385(5)
C3 C 0.3126(4) 0.8640(2) 0.3777(4)
C5 C 0.3239(3) 0.90450(19) 0.5615(4)
H2 H 0.293701 0.934244 0.527328
O2 O 0.1773(2) 0.62289(15) 0.4513(4)
C7 C 0.5151(4) 0.9254(3) 0.8252(4)
H4 H 0.470010 0.912072 0.784180
C8 C 0.3192(3) 0.7659(2) 0.3493(4)
H5 H 0.308763 0.760206 0.428108
C9 C 0.6415(4) 0.9610(3) 0.8249(5)
H6 H 0.687430 0.972765 0.783526
N3 N 0.3101(3) 0.85840(18) 0.4917(4)
H7 H 0.300579 0.828104 0.523212
C10 C 0.2325(3) 0.5893(2) 0.4504(4)
C11 C 0.3469(4) 0.7820(2) 0.1165(4)
C12 C 0.3210(3) 0.8160(2) 0.3067(4)
O3 O 0.3094(5) 0.9072(2) 0.3320(4)
C14 C 0.5124(3) 0.9253(2) 0.9440(4)
H10 H 0.466322 0.912240 0.983112
C15 C 0.3450(4) 0.7323(2) 0.1616(5)
H11 H 0.352251 0.703557 0.111983
C16 C 0.6442(4) 0.9634(3) 0.9419(5)
H12 H 0.690084 0.977390 0.979762
C18 C 0.3348(4) 0.8235(2) 0.1897(4)
H14 H 0.335926 0.857694 0.159967
C20 C 0.3328(3) 0.7235(2) 0.2768(4)
O5 O 0.4340(2) 0.96452(14) 0.5773(4)
C22 C 0.4143(3) 0.91775(17) 0.5652(4)
O6 O 0.4656(2) 0.88300(14) 0.5610(4)
N5 N 0.3340(3) 0.65949(18) 0.4307(5)
H16 H 0.343792 0.684842 0.478881
O8 O 0.3255(4) 0.63296(19) 0.2482(5)
C23 C 0.3309(3) 0.6681(2) 0.3167(5)
C24 C 0.3205(4) 0.6069(2) 0.4710(6)
H18 H 0.356345 0.583596 0.425271
C25 C 0.2955(3) 0.8967(3) 0.6847(5)
H19 H 0.315499 0.862772 0.712150
H20 H 0.320166 0.923774 0.733208
C26 C 0.2041(4) 0.8984(3) 0.7000(6)
C29 C 0.3415(5) 0.5993(4) 0.5936(7)
H21 H 0.321784 0.564494 0.615505
H22 H 0.309427 0.624606 0.637935
C31 C 0.1613(6) 0.9412(5) 0.6719(14)
H25 H 0.187996 0.970753 0.641928
H26 H 0.526429 0.717201 0.001200
C34 C 0.0777(7) 0.9413(6) 0.6876(16)
H28 H 0.047735 0.970387 0.661303
C35 C 0.1637(7) 0.8559(4) 0.7464(11)
H29 H 0.192349 0.825200 0.764929
C37 C 0.0804(8) 0.8593(6) 0.7651(12)
H31 H 0.052866 0.830658 0.797853
H32 H 0.705977 0.820053 0.039983
C39 C 0.6191(8) 0.7655(6) 0.0358(10)
H33 H 0.628093 0.753197 0.111173
C40 C 0.0376(7) 0.9026(7) 0.7377(14)
C41 C 0.4915(4) 0.6205(3) 0.5656(8)
H35 H 0.480580 0.631043 0.489421
C42 C 0.4287(4) 0.6034(4) 0.6352(11)
C43 C 0.4447(7) 0.5880(5) 0.7467(10)
H36 H 0.401810 0.576324 0.794189
C44 C 0.5233(9) 0.5898(6) 0.7887(8)
H37 H 0.534199 0.579292 0.864919
C45 C 0.5860(6) 0.6069(5) 0.7192(10)
H38 H 0.639780 0.608135 0.747901
C46 C 0.5701(4) 0.6223(4) 0.6077(9)
H39 H 0.612971 0.634012 0.560152
Cd4 Cd 0.07711(2) 0.55531(2) 0.43151(2)
O10 O 0.7196(3) 0.95780(15) 0.5615(5)
O11 O 0.6773(2) 0.87711(15) 0.5487(4)
C1_2 C 0.4216(3) 0.0554(2) 0.1305(4)
N2_2 N 0.4259(3) 0.05482(17) 0.3703(3)
C2_2 C 0.4220(3) 0.0554(2) 0.0045(4)
C4_2 C 0.4606(4) 0.0930(2) 0.3112(5)
H1_2 H 0.486629 0.119996 0.352072
C6_2 C 0.4603(4) 0.0950(2) 0.1919(5)
H3_2 H 0.486020 0.122706 0.152875
C13_2 C 0.3898(4) 0.0172(2) 0.3124(4)
C17_2 C 0.3861(4) 0.0160(2) 0.1937(4)
N1_2 N 0.4210(3) 0.05653(17) 0.7659(3)
O1_2 O 0.7804(3) 0.45780(15) 0.4385(5)
C3_2 C 0.6874(4) 0.1360(2) 0.3777(4)
C5_2 C 0.6761(3) 0.09550(19) 0.5615(4)
H2_2 H 0.706299 0.065756 0.527328
O2_2 O 0.8227(2) 0.37711(15) 0.4513(4)
C7_2 C 0.4849(4) 0.0746(3) 0.8252(4)
H4_2 H 0.529990 0.087928 0.784180
C8_2 C 0.6808(3) 0.2341(2) 0.3493(4)
H5_2 H 0.691237 0.239794 0.428108
C9_2 C 0.3585(4) 0.0390(3) 0.8249(5)
H6_2 H 0.312570 0.027235 0.783526
N3_2 N 0.6899(3) 0.14160(18) 0.4917(4)
H7_2 H 0.699421 0.171896 0.523212
C10_2 C 0.7675(3) 0.4107(2) 0.4504(4)
C11_2 C 0.6531(4) 0.2180(2) 0.1165(4)
C12_2 C 0.6790(3) 0.1840(2) 0.3067(4)
O3_2 O 0.6906(5) 0.0928(2) 0.3320(4)
C14_2 C 0.4876(3) 0.0747(2) 0.9440(4)
H10_2 H 0.533678 0.087760 0.983112
C15_2 C 0.6550(4) 0.2677(2) 0.1616(5)
H11_2 H 0.647749 0.296443 0.111983
C16_2 C 0.3558(4) 0.0366(3) 0.9419(5)
H12_2 H 0.309916 0.022610 0.979762
C18_2 C 0.6652(4) 0.1765(2) 0.1897(4)
H14_2 H 0.664074 0.142306 0.159967
C20_2 C 0.6672(3) 0.2765(2) 0.2768(4)
C22_2 C 0.5857(3) 0.08225(17) 0.5652(4)
O6_2 O 0.5344(2) 0.11700(14) 0.5610(4)
N5_2 N 0.6660(3) 0.34051(18) 0.4307(5)
H16_2 H 0.656208 0.315158 0.478881
O8_2 O 0.6745(4) 0.36704(19) 0.2482(5)
C23_2 C 0.6691(3) 0.3319(2) 0.3167(5)
C24_2 C 0.6795(4) 0.3931(2) 0.4710(6)
H18_2 H 0.643655 0.416404 0.425271
C25_2 C 0.7045(3) 0.1033(3) 0.6847(5)
H19_2 H 0.684501 0.137228 0.712150
H20_2 H 0.679834 0.076226 0.733208
C26_2 C 0.7959(4) 0.1016(3) 0.7000(6)
C29_2 C 0.6585(5) 0.4007(4) 0.5936(7)
H21_2 H 0.678216 0.435506 0.615505
H22_2 H 0.690573 0.375394 0.637935
C31_2 C 0.8387(6) 0.0588(5) 0.6719(14)
H25_2 H 0.812004 0.029247 0.641928
H26_2 H 0.473571 0.282799 0.001200
C34_2 C 0.9223(7) 0.0587(6) 0.6876(16)
H28_2 H 0.952265 0.029613 0.661303
C35_2 C 0.8363(7) 0.1441(4) 0.7464(11)
H29_2 H 0.807651 0.174800 0.764929
C37_2 C 0.9196(8) 0.1407(6) 0.7651(12)
H31_2 H 0.947134 0.169342 0.797853
H32_2 H 0.294023 0.179947 0.039983
C39_2 C 0.3809(8) 0.2345(6) 0.0358(10)
H33_2 H 0.371907 0.246803 0.111173
C40_2 C 0.9624(7) 0.0974(7) 0.7377(14)
C41_2 C 0.5085(4) 0.3795(3) 0.5656(8)
H35_2 H 0.519420 0.368957 0.489421
C42_2 C 0.5713(4) 0.3966(4) 0.6352(11)
C43_2 C 0.5553(7) 0.4120(5) 0.7467(10)
H36_2 H 0.598190 0.423676 0.794189
C44_2 C 0.4767(9) 0.4102(6) 0.7887(8)
H37_2 H 0.465801 0.420708 0.864919
C45_2 C 0.4140(6) 0.3931(5) 0.7192(10)
H38_2 H 0.360220 0.391865 0.747901
C46_2 C 0.4299(4) 0.3777(4) 0.6077(9)
H39_2 H 0.387029 0.365988 0.560152
Cd4_2 Cd 0.92289(2) 0.44469(2) 0.43151(2)
O10_2 O 0.2804(3) 0.04220(15) 0.5615(5)
O11_2 O 0.3227(2) 0.12289(15) 0.5487(4)
N1_3 N 0.0790(3) 0.55653(17) 0.2341(3)
C7_3 C 0.0151(4) 0.5746(3) 0.1748(4)
C9_3 C 0.1415(4) 0.5390(3) 0.1751(5)
H6_3 H 0.187430 0.527235 0.216474
C14_3 C 0.0124(3) 0.5747(2) 0.0560(4)
C16_3 C 0.1442(4) 0.5366(3) 0.0581(5)
H12_3 H 0.190084 0.522610 0.020238
H26_3 H 0.026429 0.782799 0.998800
H32_3 H 0.205977 0.679947 0.960017
C39_3 C 0.1191(8) 0.7345(6) 0.9642(10)
H33_3 H 0.128093 0.746803 0.888827
C44_3 C 0.0233(9) 0.9102(6) 0.2113(8)
H37_3 H 0.034199 0.920708 0.135081
C45_3 C 0.0860(6) 0.8931(5) 0.2808(10)
H38_3 H 0.139780 0.891865 0.252099
C46_3 C 0.0701(4) 0.8777(4) 0.3923(9)
H39_3 H 0.112971 0.865988 0.439848
N6 N 0.0741(3) 0.55482(17) 0.6297(3)
O12_2 O 0.0660(2) 0.46452(14) 0.4227(4)
C1_3 C 0.0784(3) 0.5554(2) 0.8695(4)
C2_3 C 0.0780(3) 0.5554(2) 0.9955(4)
C4_3 C 0.0394(4) 0.5930(2) 0.6888(5)
H1_3 H 0.013371 0.619996 0.647928
C6_3 C 0.0397(4) 0.5950(2) 0.8081(5)
H3_3 H 0.013980 0.622706 0.847125
C13_3 C 0.1102(4) 0.5172(2) 0.6876(4)
H9_2 H 0.134738 0.489833 0.646047
C17_3 C 0.1139(4) 0.5160(2) 0.8063(4)
H13_2 H 0.140689 0.488304 0.843952
C3_3 C 0.8126(4) 0.6360(2) 0.6223(4)
C5_3 C 0.8239(3) 0.59550(19) 0.4385(4)
H2_3 H 0.793701 0.565756 0.472672
H4_3 H 0.970010 0.587928 0.215820
C8_3 C 0.8192(3) 0.7341(2) 0.6507(4)
H5_3 H 0.808763 0.739794 0.571892
N3_3 N 0.8101(3) 0.64160(18) 0.5083(4)
H7_3 H 0.800579 0.671896 0.476788
C10_3 C 0.7325(3) 0.9107(2) 0.5496(4)
C11_3 C 0.8469(4) 0.7180(2) 0.8835(4)
C12_3 C 0.8210(3) 0.6840(2) 0.6933(4)
O3_3 O 0.8094(5) 0.5928(2) 0.6680(4)
H10_3 H 0.966322 0.587760 0.016888
C15_3 C 0.8450(4) 0.7677(2) 0.8384(5)
H11_3 H 0.852251 0.796443 0.888017
C18_3 C 0.8348(4) 0.6765(2) 0.8103(4)
H14_3 H 0.835926 0.642306 0.840033
C20_3 C 0.8328(3) 0.7765(2) 0.7232(4)
O5_2 O 0.9340(2) 0.53548(14) 0.4227(4)
C22_3 C 0.9143(3) 0.58225(17) 0.4348(4)
O6_3 O 0.9656(2) 0.61700(14) 0.4390(4)
N5_3 N 0.8340(3) 0.84051(18) 0.5693(5)
H16_3 H 0.843792 0.815158 0.521119
O8_3 O 0.8255(4) 0.86704(19) 0.7518(5)
C23_3 C 0.8309(3) 0.8319(2) 0.6833(5)
C24_3 C 0.8205(4) 0.8931(2) 0.5290(6)
H18_3 H 0.856345 0.916404 0.574729
C25_3 C 0.7955(3) 0.6033(3) 0.3153(5)
H19_3 H 0.815499 0.637228 0.287850
H20_3 H 0.820166 0.576226 0.266792
C26_3 C 0.7041(4) 0.6016(3) 0.3000(6)
C29_3 C 0.8415(5) 0.9007(4) 0.4064(7)
H21_3 H 0.821784 0.935506 0.384495
H22_3 H 0.809427 0.875394 0.362065
C31_3 C 0.6613(6) 0.5588(5) 0.3281(14)
H25_3 H 0.687996 0.529247 0.358072
C34_3 C 0.5777(7) 0.5587(6) 0.3124(16)
H28_3 H 0.547735 0.529613 0.338697
C35_3 C 0.6637(7) 0.6441(4) 0.2536(11)
H29_3 H 0.692349 0.674800 0.235071
C37_3 C 0.5804(8) 0.6407(6) 0.2349(12)
H31_3 H 0.552866 0.669342 0.202147
C40_3 C 0.5376(7) 0.5974(7) 0.2623(14)
H34 H 0.481338 0.594785 0.246267
C41_3 C 0.9915(4) 0.8795(3) 0.4344(8)
H35_3 H 0.980580 0.868957 0.510579
C42_3 C 0.9287(4) 0.8966(4) 0.3648(11)
C43_3 C 0.9447(7) 0.9120(5) 0.2533(10)
H36_3 H 0.901810 0.923676 0.205811
C3_4 C 0.1874(4) 0.3640(2) 0.6223(4)
C5_4 C 0.1761(3) 0.40450(19) 0.4385(4)
H2_4 H 0.206299 0.434244 0.472672
H4_4 H 0.029990 0.412072 0.215820
C8_4 C 0.1808(3) 0.2659(2) 0.6507(4)
H5_4 H 0.191237 0.260206 0.571892
N3_4 N 0.1899(3) 0.35840(18) 0.5083(4)
H7_4 H 0.199421 0.328104 0.476788
C10_4 C 0.2675(3) 0.0893(2) 0.5496(4)
C11_4 C 0.1531(4) 0.2820(2) 0.8835(4)
C12_4 C 0.1790(3) 0.3160(2) 0.6933(4)
O3_4 O 0.1906(5) 0.4072(2) 0.6680(4)
H10_4 H 0.033678 0.412240 0.016888
C15_4 C 0.1550(4) 0.2323(2) 0.8384(5)
H11_4 H 0.147749 0.203557 0.888017
C18_4 C 0.1652(4) 0.3235(2) 0.8103(4)
H14_4 H 0.164074 0.357694 0.840033
C20_4 C 0.1672(3) 0.2235(2) 0.7232(4)
C22_4 C 0.0857(3) 0.41775(17) 0.4348(4)
O6_4 O 0.0344(2) 0.38300(14) 0.4390(4)
N5_4 N 0.1660(3) 0.15949(18) 0.5693(5)
H16_4 H 0.156208 0.184842 0.521119
O8_4 O 0.1745(4) 0.13296(19) 0.7518(5)
C23_4 C 0.1691(3) 0.1681(2) 0.6833(5)
C24_4 C 0.1795(4) 0.1069(2) 0.5290(6)
H18_4 H 0.143655 0.083596 0.574729
C25_4 C 0.2045(3) 0.3967(3) 0.3153(5)
H19_4 H 0.184501 0.362772 0.287850
H20_4 H 0.179834 0.423774 0.266792
C26_4 C 0.2959(4) 0.3984(3) 0.3000(6)
C29_4 C 0.1585(5) 0.0993(4) 0.4064(7)
H21_4 H 0.178216 0.064494 0.384495
H22_4 H 0.190573 0.124606 0.362065
C31_4 C 0.3387(6) 0.4412(5) 0.3281(14)
H25_4 H 0.312004 0.470753 0.358072
C34_4 C 0.4223(7) 0.4413(6) 0.3124(16)
H28_4 H 0.452265 0.470387 0.338697
C35_4 C 0.3363(7) 0.3559(4) 0.2536(11)
H29_4 H 0.307651 0.325200 0.235071
C37_4 C 0.4196(8) 0.3593(6) 0.2349(12)
H31_4 H 0.447134 0.330658 0.202147
C40_4 C 0.4624(7) 0.4026(7) 0.2623(14)
H34_2 H 0.518662 0.405215 0.246267
C41_4 C 0.0085(4) 0.1205(3) 0.4344(8)
H35_4 H 0.019420 0.131043 0.510579
C42_4 C 0.0713(4) 0.1034(4) 0.3648(11)
C43_4 C 0.0553(7) 0.0880(5) 0.2533(10)
H36_4 H 0.098190 0.076324 0.205811
N1_4 N 0.9210(3) 0.44347(17) 0.2341(3)
C7_4 C 0.9849(4) 0.4254(3) 0.1748(4)
C9_4 C 0.8585(4) 0.4610(3) 0.1751(5)
H6_4 H 0.812570 0.472765 0.216474
C14_4 C 0.9876(3) 0.4253(2) 0.0560(4)
C16_4 C 0.8558(4) 0.4634(3) 0.0581(5)
H12_4 H 0.809916 0.477390 0.020238
H26_4 H 0.973571 0.217201 0.998800
H32_4 H 0.794023 0.320053 0.960017
C39_4 C 0.8809(8) 0.2655(6) 0.9642(10)
H33_4 H 0.871907 0.253197 0.888827
C44_4 C 0.9767(9) 0.0898(6) 0.2113(8)
H37_4 H 0.965801 0.079292 0.135081
C45_4 C 0.9140(6) 0.1069(5) 0.2808(10)
H38_4 H 0.860220 0.108135 0.252099
C46_4 C 0.9299(4) 0.1223(4) 0.3923(9)
H39_4 H 0.887029 0.134012 0.439848
N6_2 N 0.9259(3) 0.44518(17) 0.6297(3)
C1_4 C 0.9216(3) 0.4446(2) 0.8695(4)
C2_4 C 0.9220(3) 0.4446(2) 0.9955(4)
C4_4 C 0.9606(4) 0.4070(2) 0.6888(5)
H1_4 H 0.986629 0.380004 0.647928
C6_4 C 0.9603(4) 0.4050(2) 0.8081(5)
H3_4 H 0.986020 0.377294 0.847125
C13_4 C 0.8898(4) 0.4828(2) 0.6876(4)
H9_3 H 0.865262 0.510167 0.646047
C17_4 C 0.8861(4) 0.4840(2) 0.8063(4)
H13_3 H 0.859311 0.511696 0.843952
N4 N 0.3699(4) 0.75433(19) 0.9204(4)
H8 H 0.356401 0.723125 0.943629
O4 O 0.3680(5) 0.8397(2) 0.9607(4)
C19 C 0.3995(4) 0.7610(2) 0.8051(4)
H15 H 0.407482 0.798996 0.793563
C21 C 0.3626(4) 0.7936(2) 0.9923(5)
O7 O 0.2695(3) 0.7242(3) 0.7540(5)
H17 H 0.258162 0.697166 0.717404
O9 O 0.3525(5) 0.7492(3) 0.6168(4)
C27 C 0.3381(4) 0.7435(2) 0.7159(5)
C28 C 0.5465(5) 0.7592(3) 0.8564(6)
C30 C 0.4804(5) 0.7357(3) 0.7849(6)
H23 H 0.476229 0.698346 0.802748
H24 H 0.494921 0.739037 0.703163
C32 C 0.5596(7) 0.7436(5) 0.9695(9)
C33 C 0.5945(5) 0.7990(3) 0.8182(8)
H27 H 0.587658 0.811619 0.742628
C36 C 0.6538(6) 0.8214(4) 0.8896(11)
H30 H 0.685953 0.849128 0.861366
C38 C 0.6653(6) 0.8048(5) 0.9936(12)
H34_3 H 0.981338 0.905215 0.753733
H34_4 H 0.018662 0.094785 0.753733
N4_2 N 0.6301(4) 0.24567(19) 0.9204(4)
H8_2 H 0.643599 0.276875 0.943629
O4_2 O 0.6320(5) 0.1603(2) 0.9607(4)
C19_2 C 0.6005(4) 0.2390(2) 0.8051(4)
H15_2 H 0.592518 0.201004 0.793563
C21_2 C 0.6374(4) 0.2064(2) 0.9923(5)
O7_2 O 0.7305(3) 0.2758(3) 0.7540(5)
H17_2 H 0.741838 0.302834 0.717404
O9_2 O 0.6475(5) 0.2508(3) 0.6168(4)
C27_2 C 0.6619(4) 0.2565(2) 0.7159(5)
C28_2 C 0.4535(5) 0.2408(3) 0.8564(6)
C30_2 C 0.5196(5) 0.2643(3) 0.7849(6)
H23_2 H 0.523771 0.301654 0.802748
H24_2 H 0.505079 0.260963 0.703163
C32_2 C 0.4404(7) 0.2564(5) 0.9695(9)
C33_2 C 0.4055(5) 0.2010(3) 0.8182(8)
H27_2 H 0.412342 0.188381 0.742628
C36_2 C 0.3462(6) 0.1786(4) 0.8896(11)
H30_2 H 0.314047 0.150872 0.861366
C38_2 C 0.3347(6) 0.1952(5) 0.9936(12)
H9_4 H 0.365262 0.989833 0.353953
H13_4 H 0.359311 0.988304 0.156048
C28_3 C 0.0465(5) 0.7408(3) 0.1436(6)
C32_3 C 0.0596(7) 0.7564(5) 0.0305(9)
C33_3 C 0.0945(5) 0.7010(3) 0.1818(8)
H27_3 H 0.087658 0.688381 0.257372
C36_3 C 0.1538(6) 0.6786(4) 0.1104(11)
H30_3 H 0.185953 0.650872 0.138634
C38_3 C 0.1653(6) 0.6952(5) 0.0064(12)
N4_3 N 0.8699(4) 0.74567(19) 0.0796(4)
H8_3 H 0.856401 0.776875 0.056371
O4_3 O 0.8680(5) 0.6603(2) 0.0393(4)
C19_3 C 0.8995(4) 0.7390(2) 0.1949(4)
H15_3 H 0.907482 0.701004 0.206437
C21_3 C 0.8626(4) 0.7064(2) 0.0077(5)
O7_3 O 0.7695(3) 0.7758(3) 0.2460(5)
H17_3 H 0.758162 0.802834 0.282596
O9_3 O 0.8525(5) 0.7508(3) 0.3832(4)
C27_3 C 0.8381(4) 0.7565(2) 0.2841(5)
C30_3 C 0.9804(5) 0.7643(3) 0.2151(6)
H23_3 H 0.976229 0.801654 0.197252
H24_3 H 0.994921 0.760963 0.296837
N4_4 N 0.1301(4) 0.25433(19) 0.0796(4)
H8_4 H 0.143599 0.223125 0.056371
O4_4 O 0.1320(5) 0.3397(2) 0.0393(4)
C19_4 C 0.1005(4) 0.2610(2) 0.1949(4)
H15_4 H 0.092518 0.298996 0.206437
C21_4 C 0.1374(4) 0.2936(2) 0.0077(5)
O7_4 O 0.2305(3) 0.2242(3) 0.2460(5)
H17_4 H 0.241838 0.197166 0.282596
O9_4 O 0.1475(5) 0.2492(3) 0.3832(4)
C27_4 C 0.1619(4) 0.2435(2) 0.2841(5)
C30_4 C 0.0196(5) 0.2357(3) 0.2151(6)
H23_4 H 0.023771 0.198346 0.197252
H24_4 H 0.005079 0.239037 0.296837
C28_4 C 0.9535(5) 0.2592(3) 0.1436(6)
C32_4 C 0.9404(7) 0.2436(5) 0.0305(9)
C33_4 C 0.9055(5) 0.2990(3) 0.1818(8)
H27_4 H 0.912342 0.311619 0.257372
C36_4 C 0.8462(6) 0.3214(4) 0.1104(11)
H30_4 H 0.814047 0.349128 0.138634
C38_4 C 0.8347(6) 0.3048(5) 0.0064(12)
loop_
_geom_bond_atom_site_label_1
_geom_bond_atom_site_label_2
_geom_bond_site_symmetry_1
_geom_bond_site_symmetry_2
Cd3 O12 1_555 1_555
C1 C2 1_555 1_555
N2 C4 1_555 1_555
C4 H1 1_555 1_555
C6 C1 1_555 1_555
H3 C6 1_555 1_555
C13 N2 1_555 1_555
C17 C1 1_555 1_555
Cd2 N2 1_555 1_555
C4 C6 1_555 1_555
C13 C17 1_555 1_555
Cd2 N1 1_555 1_555
N1 C7 1_555 1_555
O1 C10 1_555 1_555
C3 N3 1_555 1_555
C5 H2 1_555 1_555
O2 C10 1_555 1_555
C7 H4 1_555 1_555
C8 H5 1_555 1_555
C9 N1 1_555 1_555
H6 C9 1_555 1_555
N3 C5 1_555 1_555
H7 N3 1_555 1_555
C10 C24 1_555 1_555
C11 C15 1_555 1_555
C12 C3 1_555 1_555
O3 C3 1_555 1_555
C14 C7 1_555 1_555
H10 C14 1_555 1_555
C15 H11 1_555 1_555
H12 C16 1_555 1_555
C18 C11 1_555 1_555
H14 C18 1_555 1_555
C20 C8 1_555 1_555
O5 Cd2 1_555 1_555
C22 C5 1_555 1_555
O6 Cd2 1_555 1_555
N5 H16 1_555 1_555
O8 C23 1_555 1_555
C23 C20 1_555 1_555
C24 N5 1_555 1_555
H18 C24 1_555 1_555
C25 C5 1_555 1_555
H19 C25 1_555 1_555
H20 C25 1_555 1_555
C26 C25 1_555 1_555
C29 C24 1_555 1_555
H21 C29 1_555 1_555
H22 C29 1_555 1_555
C31 C26 1_555 1_555
H25 C31 1_555 1_555
C34 C31 1_555 1_555
H28 C34 1_555 1_555
C35 C26 1_555 1_555
H29 C35 1_555 1_555
C37 C35 1_555 1_555
H31 C37 1_555 1_555
H33 C39 1_555 1_555
C40 C34 1_555 1_555
C41 H35 1_555 1_555
C42 C29 1_555 1_555
C43 C42 1_555 1_555
H36 C43 1_555 1_555
C44 C43 1_555 1_555
H37 C44 1_555 1_555
C45 C44 1_555 1_555
H38 C45 1_555 1_555
C46 C41 1_555 1_555
H39 C46 1_555 1_555
Cd4 O1 1_555 1_555
O10 Cd2 1_555 1_555
O11 Cd2 1_555 1_555
O2 Cd4 1_555 1_555
C8 C12 1_555 1_555
C9 C16 1_555 1_555
C12 C18 1_555 1_555
C15 C20 1_555 1_555
O5 C22 1_555 1_555
C22 O6 1_555 1_555
N5 C23 1_555 1_555
C37 C40 1_555 1_555
C41 C42 1_555 1_555
C45 C46 1_555 1_555
C1_2 C2_2 1_555 1_555
N2_2 C4_2 1_555 1_555
C4_2 H1_2 1_555 1_555
C6_2 C1_2 1_555 1_555
H3_2 C6_2 1_555 1_555
C13_2 N2_2 1_555 1_555
C17_2 C1_2 1_555 1_555
Cd3 N2_2 1_555 1_555
C4_2 C6_2 1_555 1_555
C13_2 C17_2 1_555 1_555
Cd3 N1_2 1_555 1_555
N1_2 C7_2 1_555 1_555
O1_2 C10_2 1_555 1_555
C3_2 N3_2 1_555 1_555
C5_2 H2_2 1_555 1_555
O2_2 C10_2 1_555 1_555
C7_2 H4_2 1_555 1_555
C8_2 H5_2 1_555 1_555
C9_2 N1_2 1_555 1_555
H6_2 C9_2 1_555 1_555
N3_2 C5_2 1_555 1_555
H7_2 N3_2 1_555 1_555
C10_2 C24_2 1_555 1_555
C11_2 C15_2 1_555 1_555
C12_2 C3_2 1_555 1_555
O3_2 C3_2 1_555 1_555
C14_2 C7_2 1_555 1_555
H10_2 C14_2 1_555 1_555
C15_2 H11_2 1_555 1_555
H12_2 C16_2 1_555 1_555
C18_2 C11_2 1_555 1_555
H14_2 C18_2 1_555 1_555
C20_2 C8_2 1_555 1_555
C22_2 C5_2 1_555 1_555
O6_2 Cd3 1_555 1_555
N5_2 H16_2 1_555 1_555
O8_2 C23_2 1_555 1_555
C23_2 C20_2 1_555 1_555
C24_2 N5_2 1_555 1_555
H18_2 C24_2 1_555 1_555
C25_2 C5_2 1_555 1_555
H19_2 C25_2 1_555 1_555
H20_2 C25_2 1_555 1_555
C26_2 C25_2 1_555 1_555
C29_2 C24_2 1_555 1_555
H21_2 C29_2 1_555 1_555
H22_2 C29_2 1_555 1_555
C31_2 C26_2 1_555 1_555
H25_2 C31_2 1_555 1_555
C34_2 C31_2 1_555 1_555
H28_2 C34_2 1_555 1_555
C35_2 C26_2 1_555 1_555
H29_2 C35_2 1_555 1_555
C37_2 C35_2 1_555 1_555
H31_2 C37_2 1_555 1_555
H33_2 C39_2 1_555 1_555
C40_2 C34_2 1_555 1_555
C41_2 H35_2 1_555 1_555
C42_2 C29_2 1_555 1_555
C43_2 C42_2 1_555 1_555
H36_2 C43_2 1_555 1_555
C44_2 C43_2 1_555 1_555
H37_2 C44_2 1_555 1_555
C45_2 C44_2 1_555 1_555
H38_2 C45_2 1_555 1_555
C46_2 C41_2 1_555 1_555
H39_2 C46_2 1_555 1_555
Cd4_2 O1_2 1_555 1_555
O10_2 Cd3 1_555 1_555
O11_2 Cd3 1_555 1_555
O2_2 Cd4_2 1_555 1_555
C8_2 C12_2 1_555 1_555
C9_2 C16_2 1_555 1_555
C12_2 C18_2 1_555 1_555
C15_2 C20_2 1_555 1_555
O12 C22_2 1_555 1_555
C22_2 O6_2 1_555 1_555
N5_2 C23_2 1_555 1_555
C37_2 C40_2 1_555 1_555
C41_2 C42_2 1_555 1_555
C45_2 C46_2 1_555 1_555
Cd4 N1_3 1_555 1_555
N1_3 C7_3 1_555 1_555
C9_3 N1_3 1_555 1_555
H6_3 C9_3 1_555 1_555
C14_3 C7_3 1_555 1_555
H12_3 C16_3 1_555 1_555
H33_3 C39_3 1_555 1_555
H37_3 C44_3 1_555 1_555
C45_3 C44_3 1_555 1_555
H38_3 C45_3 1_555 1_555
H39_3 C46_3 1_555 1_555
N6 Cd4 1_555 1_555
O12_2 Cd4 1_555 1_555
C9_3 C16_3 1_555 1_555
C45_3 C46_3 1_555 1_555
C1_3 C2_3 1_555 1_555
N6 C4_3 1_555 1_555
C4_3 H1_3 1_555 1_555
C6_3 C1_3 1_555 1_555
H3_3 C6_3 1_555 1_555
C13_3 N6 1_555 1_555
H9_2 C13_3 1_555 1_555
C17_3 C1_3 1_555 1_555
H13_2 C17_3 1_555 1_555
C4_3 C6_3 1_555 1_555
C13_3 C17_3 1_555 1_555
O10 C10_3 1_555 1_555
C3_3 N3_3 1_555 1_555
C5_3 H2_3 1_555 1_555
O11 C10_3 1_555 1_555
C8_3 H5_3 1_555 1_555
N3_3 C5_3 1_555 1_555
H7_3 N3_3 1_555 1_555
C10_3 C24_3 1_555 1_555
C11_3 C15_3 1_555 1_555
C12_3 C3_3 1_555 1_555
O3_3 C3_3 1_555 1_555
C15_3 H11_3 1_555 1_555
C18_3 C11_3 1_555 1_555
H14_3 C18_3 1_555 1_555
C20_3 C8_3 1_555 1_555
C22_3 C5_3 1_555 1_555
N5_3 H16_3 1_555 1_555
O8_3 C23_3 1_555 1_555
C23_3 C20_3 1_555 1_555
C24_3 N5_3 1_555 1_555
H18_3 C24_3 1_555 1_555
C25_3 C5_3 1_555 1_555
H19_3 C25_3 1_555 1_555
H20_3 C25_3 1_555 1_555
C26_3 C25_3 1_555 1_555
C29_3 C24_3 1_555 1_555
H21_3 C29_3 1_555 1_555
H22_3 C29_3 1_555 1_555
C31_3 C26_3 1_555 1_555
H25_3 C31_3 1_555 1_555
C34_3 C31_3 1_555 1_555
H28_3 C34_3 1_555 1_555
C35_3 C26_3 1_555 1_555
H29_3 C35_3 1_555 1_555
C37_3 C35_3 1_555 1_555
H31_3 C37_3 1_555 1_555
C40_3 C34_3 1_555 1_555
H34 C40_3 1_555 1_555
C41_3 H35_3 1_555 1_555
C42_3 C29_3 1_555 1_555
C43_3 C42_3 1_555 1_555
H36_3 C43_3 1_555 1_555
Cd4_2 O5_2 1_555 1_555
C8_3 C12_3 1_555 1_555
C12_3 C18_3 1_555 1_555
C15_3 C20_3 1_555 1_555
O5_2 C22_3 1_555 1_555
C22_3 O6_3 1_555 1_555
N5_3 C23_3 1_555 1_555
C37_3 C40_3 1_555 1_555
C41_3 C42_3 1_555 1_555
O10_2 C10_4 1_555 1_555
C3_4 N3_4 1_555 1_555
C5_4 H2_4 1_555 1_555
O11_2 C10_4 1_555 1_555
C8_4 H5_4 1_555 1_555
N3_4 C5_4 1_555 1_555
H7_4 N3_4 1_555 1_555
C10_4 C24_4 1_555 1_555
C11_4 C15_4 1_555 1_555
C12_4 C3_4 1_555 1_555
O3_4 C3_4 1_555 1_555
C15_4 H11_4 1_555 1_555
C18_4 C11_4 1_555 1_555
H14_4 C18_4 1_555 1_555
C20_4 C8_4 1_555 1_555
C22_4 C5_4 1_555 1_555
N5_4 H16_4 1_555 1_555
O8_4 C23_4 1_555 1_555
C23_4 C20_4 1_555 1_555
C24_4 N5_4 1_555 1_555
H18_4 C24_4 1_555 1_555
C25_4 C5_4 1_555 1_555
H19_4 C25_4 1_555 1_555
H20_4 C25_4 1_555 1_555
C26_4 C25_4 1_555 1_555
C29_4 C24_4 1_555 1_555
H21_4 C29_4 1_555 1_555
H22_4 C29_4 1_555 1_555
C31_4 C26_4 1_555 1_555
H25_4 C31_4 1_555 1_555
C34_4 C31_4 1_555 1_555
H28_4 C34_4 1_555 1_555
C35_4 C26_4 1_555 1_555
H29_4 C35_4 1_555 1_555
C37_4 C35_4 1_555 1_555
H31_4 C37_4 1_555 1_555
C40_4 C34_4 1_555 1_555
H34_2 C40_4 1_555 1_555
C41_4 H35_4 1_555 1_555
C42_4 C29_4 1_555 1_555
C43_4 C42_4 1_555 1_555
H36_4 C43_4 1_555 1_555
C8_4 C12_4 1_555 1_555
C12_4 C18_4 1_555 1_555
C15_4 C20_4 1_555 1_555
O12_2 C22_4 1_555 1_555
C22_4 O6_4 1_555 1_555
N5_4 C23_4 1_555 1_555
C37_4 C40_4 1_555 1_555
C41_4 C42_4 1_555 1_555
Cd4_2 N1_4 1_555 1_555
N1_4 C7_4 1_555 1_555
C9_4 N1_4 1_555 1_555
H6_4 C9_4 1_555 1_555
C14_4 C7_4 1_555 1_555
H12_4 C16_4 1_555 1_555
H33_4 C39_4 1_555 1_555
H37_4 C44_4 1_555 1_555
C45_4 C44_4 1_555 1_555
H38_4 C45_4 1_555 1_555
H39_4 C46_4 1_555 1_555
N6_2 Cd4_2 1_555 1_555
C9_4 C16_4 1_555 1_555
C45_4 C46_4 1_555 1_555
C1_4 C2_4 1_555 1_555
N6_2 C4_4 1_555 1_555
C4_4 H1_4 1_555 1_555
C6_4 C1_4 1_555 1_555
H3_4 C6_4 1_555 1_555
C13_4 N6_2 1_555 1_555
H9_3 C13_4 1_555 1_555
C17_4 C1_4 1_555 1_555
H13_3 C17_4 1_555 1_555
C4_4 C6_4 1_555 1_555
C13_4 C17_4 1_555 1_555
N4 H8 1_555 1_555
O4 C21 1_555 1_555
C19 N4 1_555 1_555
H15 C19 1_555 1_555
O7 H17 1_555 1_555
O9 C27 1_555 1_555
C27 C19 1_555 1_555
C28 C30 1_555 1_555
C30 C19 1_555 1_555
H23 C30 1_555 1_555
H24 C30 1_555 1_555
C32 C28 1_555 1_555
C33 C28 1_555 1_555
H27 C33 1_555 1_555
C36 C33 1_555 1_555
H30 C36 1_555 1_555
C38 C36 1_555 1_555
N4 C21 1_555 1_555
O7 C27 1_555 1_555
N4_2 H8_2 1_555 1_555
O4_2 C21_2 1_555 1_555
C19_2 N4_2 1_555 1_555
H15_2 C19_2 1_555 1_555
O7_2 H17_2 1_555 1_555
O9_2 C27_2 1_555 1_555
C27_2 C19_2 1_555 1_555
C28_2 C30_2 1_555 1_555
C30_2 C19_2 1_555 1_555
H23_2 C30_2 1_555 1_555
H24_2 C30_2 1_555 1_555
C32_2 C28_2 1_555 1_555
C33_2 C28_2 1_555 1_555
H27_2 C33_2 1_555 1_555
C36_2 C33_2 1_555 1_555
H30_2 C36_2 1_555 1_555
C38_2 C36_2 1_555 1_555
N4_2 C21_2 1_555 1_555
O7_2 C27_2 1_555 1_555
C32_3 C28_3 1_555 1_555
C33_3 C28_3 1_555 1_555
H27_3 C33_3 1_555 1_555
C36_3 C33_3 1_555 1_555
H30_3 C36_3 1_555 1_555
C38_3 C36_3 1_555 1_555
N4_3 H8_3 1_555 1_555
O4_3 C21_3 1_555 1_555
C19_3 N4_3 1_555 1_555
H15_3 C19_3 1_555 1_555
O7_3 H17_3 1_555 1_555
O9_3 C27_3 1_555 1_555
C27_3 C19_3 1_555 1_555
C30_3 C19_3 1_555 1_555
H23_3 C30_3 1_555 1_555
H24_3 C30_3 1_555 1_555
N4_3 C21_3 1_555 1_555
O7_3 C27_3 1_555 1_555
N4_4 H8_4 1_555 1_555
O4_4 C21_4 1_555 1_555
C19_4 N4_4 1_555 1_555
H15_4 C19_4 1_555 1_555
O7_4 H17_4 1_555 1_555
O9_4 C27_4 1_555 1_555
C27_4 C19_4 1_555 1_555
C30_4 C19_4 1_555 1_555
H23_4 C30_4 1_555 1_555
H24_4 C30_4 1_555 1_555
N4_4 C21_4 1_555 1_555
O7_4 C27_4 1_555 1_555
C32_4 C28_4 1_555 1_555
C33_4 C28_4 1_555 1_555
H27_4 C33_4 1_555 1_555
C36_4 C33_4 1_555 1_555
H30_4 C36_4 1_555 1_555
C38_4 C36_4 1_555 1_555

#END
