
###############################################################################
#
# This file contains modified crystal structure data generated from the
# MOF subset of the Cambridge Structural Database (CSD) v543 
# hosted by the Cambridge Crystallographic Data Centre (CCDC).
#
# This work is licensed under the Creative Commons
# Attribution-NonCommercial-ShareAlike 4.0 International License.
# To view a copy of this license, visit
# http://creativecommons.org/licenses/by-nc-sa/4.0/
# or send a letter to
# Creative Commons, PO Box 1866, Mountain View, CA 94042, USA.
#
# CIF created using the CSD Python API on 29 September 2022
# The structure has been converted into the P1 space group
# The structure has a 3D framework
# The original CSD entry TAZLUD is in the tetragonal crystal system
# The framework has been calculated to contain at least 10.0% void space
# The void calculation uses a probe of radius 1.32A, grid spacing 0.4
# H atom positions have been added when not included in the experimental data
# Generated hydrogen atom positions removed from atoms on special positions
#
###############################################################################

data_TAZLUD
_chemical_formula_moiety         '(C192 H256 Cd14 Gd8 N16 O122)n'
_symmetry_cell_setting           triclinic
_symmetry_space_group_name_H-M   'P 1'
_symmetry_Int_Tables_number      1
_space_group_name_Hall           'P 1'
loop_
_symmetry_equiv_pos_site_id
_symmetry_equiv_pos_as_xyz
1 x,y,z
_cell_length_a                   19.4687(2)
_cell_length_b                   19.4687(2)
_cell_length_c                   26.3746(7)
_cell_angle_alpha                90
_cell_angle_beta                 90
_cell_angle_gamma                90
_cell_volume                     9996.77
loop_
_atom_site_label
_atom_site_type_symbol
_atom_site_fract_x
_atom_site_fract_y
_atom_site_fract_z
Gd8 Gd 0.05614(3) 0.44386(3) 0.19764(3)
Cd6 Cd 0.03260(4) 0.03260(4) 0.19573(4)
Gd2 Gd 0.05614(3) 0.05614(3) 0.69764(3)
Cd5 Cd 0.03260(4) 0.46740(4) 0.69573(4)
O16 O 0.0181(5) 0.1200(5) 0.7674(3)
O20 O 0.1200(5) 0.0181(5) 0.7674(3)
O31 O 0.0170(5) 0.3697(5) 0.7407(3)
H16 H 0.0118 0.2482 0.7683
O41 O 0.0364(9) 0.0364(9) 0.6096(5)
O42 O 0.1426(5) 0.1426(5) 0.6995(6)
O44 O 0.0059(6) 0.1608(6) 0.6630(4)
O45 O 0.1608(6) 0.0059(6) 0.6630(4)
H20 H 0.0002 0.2360 0.6161
H21 H 0.2360 0.0002 0.6161
O15 O 0.0756(4) 0.9608(5) 0.8307(4)
O29 O 0.0385(6) 0.9373(5) 0.7056(4)
N4 N 0.2465(9) 0.9266(13) 0.6596(9)
C42 C 0.1889(10) 0.9514(11) 0.6784(11)
C45 C 0.2629(17) 0.9590(15) 0.6187(10)
H24 H 0.3108 0.9708 0.6198
H27 H 0.2543 0.9303 0.5899
C48 C 0.2715(16) 0.859(2) 0.6870(16)
H30 H 0.3136 0.8432 0.6718
H33 H 0.2791 0.8679 0.7223
H36 H 0.2371 0.8237 0.6835
H49 H 0.164131 0.923192 0.709011
Cd2 Cd 0.7500 0.2500 0.0000
Gd6 Gd 0.44386(3) 0.05614(3) 0.19764(3)
Gd7 Gd 0.55614(3) 0.55614(3) 0.30236(3)
Cd8 Cd 0.46740(4) 0.46740(4) 0.19573(4)
Cd9 Cd 0.96740(4) 0.53260(4) 0.30427(4)
O12 O 0.9244(4) 0.0392(5) 0.1693(4)
O13 O 0.5756(4) 0.4608(5) 0.1693(4)
O18 O 0.6200(5) 0.5181(5) 0.2326(3)
O22 O 0.7794(5) 0.1649(5) 0.0516(3)
O23 O 0.7206(5) 0.3351(5) 0.0516(3)
O25 O 0.5627(5) 0.0385(6) 0.2056(4)
O26 O 0.9373(5) 0.4615(6) 0.2056(4)
O33 O 0.8697(5) 0.5170(5) 0.2593(3)
O39 O 0.6682(6) 0.1715(6) 0.0641(3)
O40 O 0.8318(6) 0.3285(6) 0.0641(3)
C14 C 0.8747(6) 0.0166(7) 0.1941(4)
C15 C 0.6253(6) 0.4834(7) 0.1941(4)
C17 C 0.6748(6) 0.0784(6) 0.1460(4)
C18 C 0.8252(6) 0.4216(6) 0.1460(4)
H11 H 0.6312 0.0919 0.1356
H12 H 0.8688 0.4081 0.1356
C20 C 0.7958(6) 0.0769(6) 0.1344(4)
C21 C 0.7042(6) 0.4231(6) 0.1344(4)
H14 H 0.8345 0.0901 0.1161
H15 H 0.6655 0.4099 0.1161
C23 C 0.7320(6) 0.0992(6) 0.1189(4)
C24 C 0.7680(6) 0.4008(6) 0.1189(4)
C26 C 0.6197(6) 0.0171(7) 0.2191(5)
C27 C 0.8803(6) 0.4829(7) 0.2191(5)
C29 C 0.7246(7) 0.1482(6) 0.0757(5)
C30 C 0.7754(7) 0.3518(6) 0.0757(5)
C32 C 0.6824(6) 0.0375(6) 0.1886(4)
C33 C 0.8176(6) 0.4625(6) 0.1886(4)
C35 C 0.8035(5) 0.0358(6) 0.1759(4)
C36 C 0.6965(5) 0.4642(6) 0.1759(4)
C38 C 0.7467(6) 0.0160(6) 0.2033(4)
C39 C 0.7533(6) 0.4840(6) 0.2033(4)
H18 H 0.7482 0.5118 0.2317
Gd1 Gd 0.44386(3) 0.44386(3) 0.69764(3)
Cd1 Cd 0.53260(4) 0.53260(4) 0.80427(4)
Cd2_2 Cd 0.7500 0.2500 1.0000
O1 O 0.5392(5) 0.4244(4) 0.8307(4)
O2 O 0.4819(5) 0.3800(5) 0.7674(3)
O3 O 0.6649(5) 0.2794(5) 0.9484(3)
O4 O 0.5385(6) 0.0627(5) 0.7944(4)
O5 O 0.4830(5) 0.1303(5) 0.7407(3)
O6 O 0.6715(6) 0.1682(6) 0.9359(3)
C1 C 0.5166(7) 0.3747(6) 0.8059(4)
C2 C 0.5784(6) 0.1748(6) 0.8540(4)
H1 H 0.5919 0.1312 0.8644
C3 C 0.5769(6) 0.2958(6) 0.8656(4)
H2 H 0.5901 0.3345 0.8839
C4 C 0.5992(6) 0.2320(6) 0.8811(4)
C5 C 0.5171(7) 0.1197(6) 0.7809(5)
C6 C 0.6482(6) 0.2246(7) 0.9243(5)
C7 C 0.5375(6) 0.1824(6) 0.8114(4)
C8 C 0.5358(6) 0.3035(5) 0.8241(4)
C9 C 0.5160(6) 0.2467(6) 0.7967(4)
H3 H 0.4882 0.2518 0.7683
O7 O 0.4636(9) 0.4636(9) 0.6096(5)
O8 O 0.3574(5) 0.3574(5) 0.6995(6)
O9 O 0.4941(6) 0.3392(6) 0.6630(4)
N1 N 0.5734(13) 0.2535(9) 0.6596(9)
C10 C 0.5486(11) 0.3111(10) 0.6784(11)
C11 C 0.5410(15) 0.2371(17) 0.6187(10)
H4 H 0.4998 0.2640 0.6161
H5 H 0.5292 0.1892 0.6198
H6 H 0.5697 0.2457 0.5899
C12 C 0.641(2) 0.2285(16) 0.6870(16)
H7 H 0.6568 0.1864 0.6718
H8 H 0.6321 0.2209 0.7223
H9 H 0.6763 0.2629 0.6835
O10 O 0.5889(10) 0.5889(10) 0.8680(9)
Gd4 Gd 0.94386(3) 0.55614(3) 0.80236(3)
Cd4 Cd 0.46740(4) 0.03260(4) 0.69573(4)
O11 O 0.9608(5) 0.0756(4) 0.8307(4)
O14 O 0.4244(4) 0.5392(5) 0.8307(4)
O19 O 0.3800(5) 0.4819(5) 0.7674(3)
O21 O 0.8351(5) 0.2206(5) 0.9484(3)
O24 O 0.9615(6) 0.4373(5) 0.7944(4)
O27 O 0.4615(6) 0.5627(5) 0.7056(4)
O28 O 0.5627(5) 0.4615(6) 0.7056(4)
O30 O 0.9373(5) 0.0385(6) 0.7056(4)
O34 O 0.5170(5) 0.6303(5) 0.7593(3)
O35 O 0.6303(5) 0.5170(5) 0.7593(3)
O38 O 0.8285(6) 0.3318(6) 0.9359(3)
C13 C 0.9834(7) 0.1253(6) 0.8059(4)
C16 C 0.9216(6) 0.3252(6) 0.8540(4)
H10 H 0.9081 0.3688 0.8644
C19 C 0.9231(6) 0.2042(6) 0.8656(4)
H13 H 0.9099 0.1655 0.8839
C22 C 0.9008(6) 0.2680(6) 0.8811(4)
C25 C 0.9829(7) 0.3803(6) 0.7809(5)
C28 C 0.8518(6) 0.2754(7) 0.9243(5)
C31 C 0.9625(6) 0.3176(6) 0.8114(4)
C34 C 0.9642(6) 0.1965(5) 0.8241(4)
C37 C 0.9840(6) 0.2533(6) 0.7967(4)
O43 O 0.3392(6) 0.4941(6) 0.6630(4)
N2 N 0.2535(9) 0.5734(13) 0.6596(9)
N3 N 0.9266(13) 0.2465(9) 0.6596(9)
C40 C 0.3111(10) 0.5486(11) 0.6784(11)
C41 C 0.9514(11) 0.1889(10) 0.6784(11)
C43 C 0.2371(17) 0.5410(15) 0.6187(10)
C44 C 0.9590(15) 0.2629(17) 0.6187(10)
H19 H 0.2640 0.4998 0.6161
H22 H 0.1892 0.5292 0.6198
H23 H 0.9708 0.3108 0.6198
H25 H 0.2457 0.5697 0.5899
H26 H 0.9303 0.2543 0.5899
C46 C 0.2285(16) 0.641(2) 0.6870(16)
C47 C 0.859(2) 0.2715(16) 0.6870(16)
H28 H 0.1864 0.6568 0.6718
H29 H 0.8432 0.3136 0.6718
H31 H 0.2209 0.6321 0.7223
H32 H 0.8679 0.2791 0.7223
H34 H 0.2629 0.6763 0.6835
H35 H 0.8237 0.2371 0.6835
H37 H 0.576808 0.335869 0.709011
H46 H 0.335869 0.576808 0.709011
H50 H 0.923192 0.164131 0.709011
Gd5 Gd 0.94386(3) 0.94386(3) 0.30236(3)
Cd7 Cd 0.53260(4) 0.96740(4) 0.30427(4)
O17 O 0.8800(5) 0.9819(5) 0.2326(3)
O32 O 0.6303(5) 0.9830(5) 0.2593(3)
H17 H 0.7518 0.9882 0.2317
Gd3 Gd 0.55614(3) 0.94386(3) 0.80236(3)
Cd3 Cd 0.96740(4) 0.96740(4) 0.80427(4)
O36 O 0.9830(5) 0.8697(5) 0.7593(3)
O37 O 0.8697(5) 0.9830(5) 0.7593(3)
O46 O 0.9111(10) 0.9111(10) 0.8680(9)
O15_2 O 0.5392(5) 0.0756(4) 0.3307(4)
O16_2 O 0.3800(5) 0.0181(5) 0.2674(3)
O20_2 O 0.4819(5) 0.1200(5) 0.2674(3)
O31_2 O 0.1303(5) 0.0170(5) 0.2407(3)
H16_2 H 0.2518 0.0118 0.2683
O41_2 O 0.4636(9) 0.0364(9) 0.1096(5)
O42_2 O 0.3574(5) 0.1426(5) 0.1995(6)
O44_2 O 0.3392(6) 0.0059(6) 0.1630(4)
O45_2 O 0.4941(6) 0.1608(6) 0.1630(4)
N4_2 N 0.5734(13) 0.2465(9) 0.1596(9)
C42_2 C 0.5486(11) 0.1889(10) 0.1784(11)
C45_2 C 0.5410(15) 0.2629(17) 0.1187(10)
H20_2 H 0.2640 0.0002 0.1161
H21_2 H 0.4998 0.2360 0.1161
H24_2 H 0.5292 0.3108 0.1198
H27_2 H 0.5697 0.2543 0.0899
C48_2 C 0.641(2) 0.2715(16) 0.1870(16)
H30_2 H 0.6568 0.3136 0.1718
H33_2 H 0.6321 0.2791 0.2223
H36_2 H 0.6763 0.2371 0.1835
H49_2 H 0.576808 0.164131 0.209011
Cd2_3 Cd 0.2500 0.7500 0.5000
O1_2 O 0.0756(4) 0.5392(5) 0.3307(4)
O2_2 O 0.1200(5) 0.4819(5) 0.2674(3)
O3_2 O 0.2206(5) 0.6649(5) 0.4484(3)
O4_2 O 0.4373(5) 0.5385(6) 0.2944(4)
O5_2 O 0.3697(5) 0.4830(5) 0.2407(3)
O6_2 O 0.3318(6) 0.6715(6) 0.4359(3)
C1_2 C 0.1253(6) 0.5166(7) 0.3059(4)
C2_2 C 0.3252(6) 0.5784(6) 0.3540(4)
H1_2 H 0.3688 0.5919 0.3644
C3_2 C 0.2042(6) 0.5769(6) 0.3656(4)
H2_2 H 0.1655 0.5901 0.3839
C4_2 C 0.2680(6) 0.5992(6) 0.3811(4)
C5_2 C 0.3803(6) 0.5171(7) 0.2809(5)
C6_2 C 0.2754(7) 0.6482(6) 0.4243(5)
C7_2 C 0.3176(6) 0.5375(6) 0.3114(4)
C8_2 C 0.1965(5) 0.5358(6) 0.3241(4)
C9_2 C 0.2533(6) 0.5160(6) 0.2967(4)
H3_2 H 0.2482 0.4882 0.2683
O7_2 O 0.0364(9) 0.4636(9) 0.1096(5)
O8_2 O 0.1426(5) 0.3574(5) 0.1995(6)
O9_2 O 0.1608(6) 0.4941(6) 0.1630(4)
N1_2 N 0.2465(9) 0.5734(13) 0.1596(9)
C10_2 C 0.1889(10) 0.5486(11) 0.1784(11)
C11_2 C 0.2629(17) 0.5410(15) 0.1187(10)
H4_2 H 0.2360 0.4998 0.1161
H5_2 H 0.3108 0.5292 0.1198
H6_2 H 0.2543 0.5697 0.0899
C12_2 C 0.2715(16) 0.641(2) 0.1870(16)
H7_2 H 0.3136 0.6568 0.1718
H8_2 H 0.2791 0.6321 0.2223
H9_2 H 0.2371 0.6763 0.1835
O11_2 O 0.4244(4) 0.9608(5) 0.3307(4)
O12_2 O 0.4608(5) 0.9244(4) 0.6693(4)
O13_2 O 0.0392(5) 0.5756(4) 0.6693(4)
O17_2 O 0.5181(5) 0.8800(5) 0.7326(3)
O19_2 O 0.0181(5) 0.3800(5) 0.2674(3)
O21_2 O 0.2794(5) 0.8351(5) 0.4484(3)
O22_2 O 0.3351(5) 0.7794(5) 0.5516(3)
O23_2 O 0.1649(5) 0.7206(5) 0.5516(3)
O24_2 O 0.0627(5) 0.9615(6) 0.2944(4)
O28_2 O 0.0385(6) 0.5627(5) 0.2056(4)
O30_2 O 0.4615(6) 0.9373(5) 0.2056(4)
O37_2 O 0.5170(5) 0.8697(5) 0.2593(3)
O38_2 O 0.1682(6) 0.8285(6) 0.4359(3)
O39_2 O 0.3285(6) 0.6682(6) 0.5641(3)
O40_2 O 0.1715(6) 0.8318(6) 0.5641(3)
C13_2 C 0.3747(6) 0.9834(7) 0.3059(4)
C14_2 C 0.4834(7) 0.8747(6) 0.6941(4)
C15_2 C 0.0166(7) 0.6253(6) 0.6941(4)
C16_2 C 0.1748(6) 0.9216(6) 0.3540(4)
C17_2 C 0.4216(6) 0.6748(6) 0.6460(4)
C18_2 C 0.0784(6) 0.8252(6) 0.6460(4)
H10_2 H 0.1312 0.9081 0.3644
H11_2 H 0.4081 0.6312 0.6356
H12_2 H 0.0919 0.8688 0.6356
C19_2 C 0.2958(6) 0.9231(6) 0.3656(4)
C20_2 C 0.4231(6) 0.7958(6) 0.6344(4)
C21_2 C 0.0769(6) 0.7042(6) 0.6344(4)
H13_2 H 0.3345 0.9099 0.3839
H14_2 H 0.4099 0.8345 0.6161
H15_2 H 0.0901 0.6655 0.6161
C22_2 C 0.2320(6) 0.9008(6) 0.3811(4)
C23_2 C 0.4008(6) 0.7320(6) 0.6189(4)
C24_2 C 0.0992(6) 0.7680(6) 0.6189(4)
C25_2 C 0.1197(6) 0.9829(7) 0.2809(5)
C26_2 C 0.4829(7) 0.6197(6) 0.7191(5)
C27_2 C 0.0171(7) 0.8803(6) 0.7191(5)
C28_2 C 0.2246(7) 0.8518(6) 0.4243(5)
C29_2 C 0.3518(6) 0.7246(7) 0.5757(5)
C30_2 C 0.1482(6) 0.7754(7) 0.5757(5)
C31_2 C 0.1824(6) 0.9625(6) 0.3114(4)
C32_2 C 0.4625(6) 0.6824(6) 0.6886(4)
C33_2 C 0.0375(6) 0.8176(6) 0.6886(4)
C34_2 C 0.3035(5) 0.9642(6) 0.3241(4)
C35_2 C 0.4642(6) 0.8035(5) 0.6759(4)
C36_2 C 0.0358(6) 0.6965(5) 0.6759(4)
C37_2 C 0.2467(6) 0.9840(6) 0.2967(4)
C38_2 C 0.4840(6) 0.7467(6) 0.7033(4)
C39_2 C 0.0160(6) 0.7533(6) 0.7033(4)
H17_2 H 0.5118 0.7518 0.7317
O43_2 O 0.0059(6) 0.3392(6) 0.1630(4)
N3_2 N 0.2535(9) 0.9266(13) 0.1596(9)
C41_2 C 0.3111(10) 0.9514(11) 0.1784(11)
C44_2 C 0.2371(17) 0.9590(15) 0.1187(10)
H19_2 H 0.0002 0.2640 0.1161
H23_2 H 0.1892 0.9708 0.1198
H26_2 H 0.2457 0.9303 0.0899
C47_2 C 0.2285(16) 0.859(2) 0.1870(16)
H29_2 H 0.1864 0.8432 0.1718
H32_2 H 0.2209 0.8679 0.2223
H35_2 H 0.2629 0.8237 0.1835
O46_2 O 0.5889(10) 0.9111(10) 0.3680(9)
H37_2 H 0.164131 0.576808 0.209011
H50_2 H 0.335869 0.923192 0.209011
O10_2 O 0.9111(10) 0.5889(10) 0.3680(9)
O14_2 O 0.9608(5) 0.4244(4) 0.3307(4)
O18_2 O 0.9819(5) 0.6200(5) 0.7326(3)
O35_2 O 0.9830(5) 0.6303(5) 0.2593(3)
H18_2 H 0.9882 0.7482 0.7317
N2_2 N 0.9266(13) 0.2535(9) 0.1596(9)
C40_2 C 0.9514(11) 0.3111(10) 0.1784(11)
C43_2 C 0.9590(15) 0.2371(17) 0.1187(10)
H22_2 H 0.9708 0.1892 0.1198
H25_2 H 0.9303 0.2457 0.0899
C46_2 C 0.859(2) 0.2285(16) 0.1870(16)
H28_2 H 0.8432 0.1864 0.1718
H31_2 H 0.8679 0.2209 0.2223
H34_2 H 0.8237 0.2629 0.1835
H46_2 H 0.923192 0.335869 0.209011
O10_3 O 0.4111(10) 0.0889(10) 0.6320(9)
O14_3 O 0.5756(4) 0.0392(5) 0.6693(4)
O35_3 O 0.3697(5) 0.0170(5) 0.7407(3)
N2_3 N 0.7465(9) 0.0734(13) 0.8404(9)
C40_3 C 0.6889(10) 0.0486(11) 0.8216(11)
C43_3 C 0.7629(17) 0.0410(15) 0.8813(10)
H22_3 H 0.8108 0.0292 0.8802
H25_3 H 0.7543 0.0697 0.9101
C46_3 C 0.7715(16) 0.141(2) 0.8130(16)
H28_3 H 0.8136 0.1568 0.8282
H31_3 H 0.7791 0.1321 0.7777
H34_3 H 0.7371 0.1763 0.8165
H46_3 H 0.664131 0.0768076 0.790989
O7_3 O 0.5364(9) 0.9636(9) 0.8904(5)
O8_3 O 0.6426(5) 0.8574(5) 0.8005(6)
O9_3 O 0.5059(6) 0.8392(6) 0.8370(4)
N1_3 N 0.4266(13) 0.7535(9) 0.8404(9)
C10_3 C 0.4514(11) 0.8111(10) 0.8216(11)
C11_3 C 0.4590(15) 0.7371(17) 0.8813(10)
H4_3 H 0.5002 0.7640 0.8839
H5_3 H 0.4708 0.6892 0.8802
H6_3 H 0.4303 0.7457 0.9101
C12_3 C 0.359(2) 0.7285(16) 0.8130(16)
H7_3 H 0.3432 0.6864 0.8282
H8_3 H 0.3679 0.7209 0.7777
H9_3 H 0.3237 0.7629 0.8165
O19_3 O 0.6200(5) 0.9819(5) 0.7326(3)
O28_3 O 0.4373(5) 0.9615(6) 0.7944(4)
O30_3 O 0.0627(5) 0.5385(6) 0.7944(4)
O37_3 O 0.1303(5) 0.4830(5) 0.7407(3)
O43_3 O 0.6608(6) 0.9941(6) 0.8370(4)
N3_3 N 0.0734(13) 0.7465(9) 0.8404(9)
C41_3 C 0.0486(11) 0.6889(10) 0.8216(11)
C44_3 C 0.0410(15) 0.7629(17) 0.8813(10)
H19_3 H 0.7360 0.9998 0.8839
H23_3 H 0.0292 0.8108 0.8802
H26_3 H 0.0697 0.7543 0.9101
C47_3 C 0.141(2) 0.7715(16) 0.8130(16)
H29_3 H 0.1568 0.8136 0.8282
H32_3 H 0.1321 0.7791 0.7777
H35_3 H 0.1763 0.7371 0.8165
O46_3 O 0.0889(10) 0.4111(10) 0.6320(9)
H37_3 H 0.423192 0.835869 0.790989
H50_3 H 0.0768076 0.664131 0.790989
O15_3 O 0.9244(4) 0.4608(5) 0.6693(4)
O20_3 O 0.8800(5) 0.5181(5) 0.7326(3)
O41_3 O 0.9636(9) 0.5364(9) 0.8904(5)
O42_3 O 0.8574(5) 0.6426(5) 0.8005(6)
O44_3 O 0.9941(6) 0.6608(6) 0.8370(4)
O45_3 O 0.8392(6) 0.5059(6) 0.8370(4)
N4_3 N 0.7535(9) 0.4266(13) 0.8404(9)
C42_3 C 0.8111(10) 0.4514(11) 0.8216(11)
C45_3 C 0.7371(17) 0.4590(15) 0.8813(10)
H20_3 H 0.9998 0.7360 0.8839
H21_3 H 0.7640 0.5002 0.8839
H24_3 H 0.6892 0.4708 0.8802
H27_3 H 0.7457 0.4303 0.9101
C48_3 C 0.7285(16) 0.359(2) 0.8130(16)
H30_3 H 0.6864 0.3432 0.8282
H33_3 H 0.7209 0.3679 0.7777
H36_3 H 0.7629 0.3237 0.8165
H49_3 H 0.835869 0.423192 0.790989
O10_4 O 0.0889(10) 0.0889(10) 0.1320(9)
O35_4 O 0.0170(5) 0.1303(5) 0.2407(3)
O14_4 O 0.0392(5) 0.9244(4) 0.1693(4)
N2_4 N 0.0734(13) 0.7535(9) 0.3404(9)
C40_4 C 0.0486(11) 0.8111(10) 0.3216(11)
C43_4 C 0.0410(15) 0.7371(17) 0.3813(10)
H22_4 H 0.0292 0.6892 0.3802
H25_4 H 0.0697 0.7457 0.4101
C46_4 C 0.141(2) 0.7285(16) 0.3130(16)
H28_4 H 0.1568 0.6864 0.3282
H31_4 H 0.1321 0.7209 0.2777
H34_4 H 0.1763 0.7629 0.3165
H46_4 H 0.0768076 0.835869 0.290989
N1_4 N 0.7535(9) 0.0734(13) 0.3404(9)
C10_4 C 0.8111(10) 0.0486(11) 0.3216(11)
C11_4 C 0.7371(17) 0.0410(15) 0.3813(10)
H5_4 H 0.6892 0.0292 0.3802
H6_4 H 0.7457 0.0697 0.4101
C12_4 C 0.7285(16) 0.141(2) 0.3130(16)
H7_4 H 0.6864 0.1568 0.3282
H8_4 H 0.7209 0.1321 0.2777
H9_4 H 0.7629 0.1763 0.3165
O15_4 O 0.4608(5) 0.5756(4) 0.1693(4)
O20_4 O 0.5181(5) 0.6200(5) 0.2326(3)
O28_4 O 0.9615(6) 0.0627(5) 0.2944(4)
O30_4 O 0.5385(6) 0.4373(5) 0.2944(4)
O37_4 O 0.4830(5) 0.3697(5) 0.2407(3)
O41_4 O 0.5364(9) 0.5364(9) 0.3904(5)
O42_4 O 0.6426(5) 0.6426(5) 0.3005(6)
O44_4 O 0.6608(6) 0.5059(6) 0.3370(4)
O45_4 O 0.5059(6) 0.6608(6) 0.3370(4)
N3_4 N 0.7465(9) 0.4266(13) 0.3404(9)
N4_4 N 0.4266(13) 0.7465(9) 0.3404(9)
C41_4 C 0.6889(10) 0.4514(11) 0.3216(11)
C42_4 C 0.4514(11) 0.6889(10) 0.3216(11)
C44_4 C 0.7629(17) 0.4590(15) 0.3813(10)
C45_4 C 0.4590(15) 0.7629(17) 0.3813(10)
H20_4 H 0.7360 0.5002 0.3839
H21_4 H 0.5002 0.7360 0.3839
H23_4 H 0.8108 0.4708 0.3802
H24_4 H 0.4708 0.8108 0.3802
H26_4 H 0.7543 0.4303 0.4101
H27_4 H 0.4303 0.7543 0.4101
C47_4 C 0.7715(16) 0.359(2) 0.3130(16)
C48_4 C 0.359(2) 0.7715(16) 0.3130(16)
H29_4 H 0.8136 0.3432 0.3282
H30_4 H 0.3432 0.8136 0.3282
H32_4 H 0.7791 0.3679 0.2777
H33_4 H 0.3679 0.7791 0.2777
H35_4 H 0.7371 0.3237 0.3165
H36_4 H 0.3237 0.7371 0.3165
O46_4 O 0.4111(10) 0.4111(10) 0.1320(9)
H37_4 H 0.835869 0.0768076 0.290989
H49_4 H 0.423192 0.664131 0.290989
H50_4 H 0.664131 0.423192 0.290989
O7_4 O 0.9636(9) 0.9636(9) 0.3904(5)
O8_4 O 0.8574(5) 0.8574(5) 0.3005(6)
O9_4 O 0.8392(6) 0.9941(6) 0.3370(4)
H4_4 H 0.7640 0.9998 0.3839
O19_4 O 0.9819(5) 0.8800(5) 0.2326(3)
O43_4 O 0.9941(6) 0.8392(6) 0.3370(4)
H19_4 H 0.9998 0.7640 0.3839
H17_3 H 0.2482 0.0118 0.7683
Cd2_4 Cd 0.2500 0.7500 0.0000
O3_3 O 0.3351(5) 0.7206(5) 0.0516(3)
O6_3 O 0.3285(6) 0.8318(6) 0.0641(3)
C1_3 C 0.4834(7) 0.6253(6) 0.1941(4)
C2_3 C 0.4216(6) 0.8252(6) 0.1460(4)
H1_3 H 0.4081 0.8688 0.1356
C3_3 C 0.4231(6) 0.7042(6) 0.1344(4)
H2_3 H 0.4099 0.6655 0.1161
C4_3 C 0.4008(6) 0.7680(6) 0.1189(4)
C5_3 C 0.4829(7) 0.8803(6) 0.2191(5)
C6_3 C 0.3518(6) 0.7754(7) 0.0757(5)
C7_3 C 0.4625(6) 0.8176(6) 0.1886(4)
C8_3 C 0.4642(6) 0.6965(5) 0.1759(4)
C9_3 C 0.4840(6) 0.7533(6) 0.2033(4)
H3_3 H 0.5118 0.7482 0.2317
O21_3 O 0.1649(5) 0.7794(5) 0.0516(3)
O38_3 O 0.1715(6) 0.6682(6) 0.0641(3)
C13_3 C 0.0166(7) 0.8747(6) 0.1941(4)
C16_3 C 0.0784(6) 0.6748(6) 0.1460(4)
H10_3 H 0.0919 0.6312 0.1356
C19_3 C 0.0769(6) 0.7958(6) 0.1344(4)
H13_3 H 0.0901 0.8345 0.1161
C22_3 C 0.0992(6) 0.7320(6) 0.1189(4)
C25_3 C 0.0171(7) 0.6197(6) 0.2191(5)
C28_3 C 0.1482(6) 0.7246(7) 0.0757(5)
C31_3 C 0.0375(6) 0.6824(6) 0.1886(4)
C34_3 C 0.0358(6) 0.8035(5) 0.1759(4)
C37_3 C 0.0160(6) 0.7467(6) 0.2033(4)
Cd2_5 Cd 0.2500 0.7500 1.0000
O22_3 O 0.2206(5) 0.8351(5) 0.9484(3)
O23_3 O 0.2794(5) 0.6649(5) 0.9484(3)
O39_3 O 0.3318(6) 0.8285(6) 0.9359(3)
O40_3 O 0.1682(6) 0.6715(6) 0.9359(3)
C14_3 C 0.1253(6) 0.9834(7) 0.8059(4)
C15_3 C 0.3747(6) 0.5166(7) 0.8059(4)
C17_3 C 0.3252(6) 0.9216(6) 0.8540(4)
C18_3 C 0.1748(6) 0.5784(6) 0.8540(4)
H11_3 H 0.3688 0.9081 0.8644
H12_3 H 0.1312 0.5919 0.8644
C20_3 C 0.2042(6) 0.9231(6) 0.8656(4)
C21_3 C 0.2958(6) 0.5769(6) 0.8656(4)
H14_3 H 0.1655 0.9099 0.8839
H15_3 H 0.3345 0.5901 0.8839
C23_3 C 0.2680(6) 0.9008(6) 0.8811(4)
C24_3 C 0.2320(6) 0.5992(6) 0.8811(4)
C26_3 C 0.3803(6) 0.9829(7) 0.7809(5)
C27_3 C 0.1197(6) 0.5171(7) 0.7809(5)
C29_3 C 0.2754(7) 0.8518(6) 0.9243(5)
C30_3 C 0.2246(7) 0.6482(6) 0.9243(5)
C32_3 C 0.3176(6) 0.9625(6) 0.8114(4)
C33_3 C 0.1824(6) 0.5375(6) 0.8114(4)
C35_3 C 0.1965(5) 0.9642(6) 0.8241(4)
C36_3 C 0.3035(5) 0.5358(6) 0.8241(4)
C38_3 C 0.2533(6) 0.9840(6) 0.7967(4)
C39_3 C 0.2467(6) 0.5160(6) 0.7967(4)
H18_3 H 0.2518 0.4882 0.7683
H16_3 H 0.9882 0.7518 0.2317
H18_4 H 0.0118 0.2518 0.2683
Cd2_6 Cd 0.7500 0.2500 0.5000
O3_4 O 0.7794(5) 0.3351(5) 0.5516(3)
O6_4 O 0.6682(6) 0.3285(6) 0.5641(3)
C1_4 C 0.8747(6) 0.4834(7) 0.6941(4)
C2_4 C 0.6748(6) 0.4216(6) 0.6460(4)
H1_4 H 0.6312 0.4081 0.6356
C3_4 C 0.7958(6) 0.4231(6) 0.6344(4)
H2_4 H 0.8345 0.4099 0.6161
C4_4 C 0.7320(6) 0.4008(6) 0.6189(4)
C5_4 C 0.6197(6) 0.4829(7) 0.7191(5)
C6_4 C 0.7246(7) 0.3518(6) 0.5757(5)
C7_4 C 0.6824(6) 0.4625(6) 0.6886(4)
C8_4 C 0.8035(5) 0.4642(6) 0.6759(4)
C9_4 C 0.7467(6) 0.4840(6) 0.7033(4)
H3_4 H 0.7518 0.5118 0.7317
O21_4 O 0.7206(5) 0.1649(5) 0.5516(3)
O22_4 O 0.6649(5) 0.2206(5) 0.4484(3)
O23_4 O 0.8351(5) 0.2794(5) 0.4484(3)
O38_4 O 0.8318(6) 0.1715(6) 0.5641(3)
O39_4 O 0.6715(6) 0.3318(6) 0.4359(3)
O40_4 O 0.8285(6) 0.1682(6) 0.4359(3)
C13_4 C 0.6253(6) 0.0166(7) 0.6941(4)
C14_4 C 0.5166(7) 0.1253(6) 0.3059(4)
C15_4 C 0.9834(7) 0.3747(6) 0.3059(4)
C16_4 C 0.8252(6) 0.0784(6) 0.6460(4)
C17_4 C 0.5784(6) 0.3252(6) 0.3540(4)
C18_4 C 0.9216(6) 0.1748(6) 0.3540(4)
H10_4 H 0.8688 0.0919 0.6356
H11_4 H 0.5919 0.3688 0.3644
H12_4 H 0.9081 0.1312 0.3644
C19_4 C 0.7042(6) 0.0769(6) 0.6344(4)
C20_4 C 0.5769(6) 0.2042(6) 0.3656(4)
C21_4 C 0.9231(6) 0.2958(6) 0.3656(4)
H13_4 H 0.6655 0.0901 0.6161
H14_4 H 0.5901 0.1655 0.3839
H15_4 H 0.9099 0.3345 0.3839
C22_4 C 0.7680(6) 0.0992(6) 0.6189(4)
C23_4 C 0.5992(6) 0.2680(6) 0.3811(4)
C24_4 C 0.9008(6) 0.2320(6) 0.3811(4)
C25_4 C 0.8803(6) 0.0171(7) 0.7191(5)
C26_4 C 0.5171(7) 0.3803(6) 0.2809(5)
C27_4 C 0.9829(7) 0.1197(6) 0.2809(5)
C28_4 C 0.7754(7) 0.1482(6) 0.5757(5)
C29_4 C 0.6482(6) 0.2754(7) 0.4243(5)
C30_4 C 0.8518(6) 0.2246(7) 0.4243(5)
C31_4 C 0.8176(6) 0.0375(6) 0.6886(4)
C32_4 C 0.5375(6) 0.3176(6) 0.3114(4)
C33_4 C 0.9625(6) 0.1824(6) 0.3114(4)
C34_4 C 0.6965(5) 0.0358(6) 0.6759(4)
C35_4 C 0.5358(6) 0.1965(5) 0.3241(4)
C36_4 C 0.9642(6) 0.3035(5) 0.3241(4)
C37_4 C 0.7533(6) 0.0160(6) 0.7033(4)
C38_4 C 0.5160(6) 0.2533(6) 0.2967(4)
C39_4 C 0.9840(6) 0.2467(6) 0.2967(4)
H17_4 H 0.4882 0.2482 0.2683
H16_4 H 0.7482 0.9882 0.7317
loop_
_geom_bond_atom_site_label_1
_geom_bond_atom_site_label_2
_geom_bond_site_symmetry_1
_geom_bond_site_symmetry_2
Gd2 O16 1_555 1_555
Cd5 O31 1_555 1_555
O20 Gd2 1_555 1_555
O41 Gd2 1_555 1_555
O42 Gd2 1_555 1_555
O44 Gd2 1_555 1_555
O45 Gd2 1_555 1_555
N4 C42 1_555 1_555
C45 N4 1_555 1_555
H24 C45 1_555 1_555
H27 C45 1_555 1_555
C48 N4 1_555 1_555
H30 C48 1_555 1_555
H33 C48 1_555 1_555
H36 C48 1_555 1_555
C42 H49 1_555 1_555
Gd6 O25 1_555 1_555
Gd7 O18 1_555 1_555
Cd8 O13 1_555 1_555
Cd9 O33 1_555 1_555
O12 C14 1_555 1_555
O13 C15 1_555 1_555
O18 C15 1_555 1_555
O22 Cd2 1_555 1_555
O23 Cd2 1_555 1_555
O25 C26 1_555 1_555
O26 C27 1_555 1_555
O33 C27 1_555 1_555
O39 Cd2 1_555 1_555
O40 Cd2 1_555 1_555
C14 C35 1_555 1_555
C15 C36 1_555 1_555
C17 H11 1_555 1_555
C18 H12 1_555 1_555
C20 H14 1_555 1_555
C21 H15 1_555 1_555
C23 C17 1_555 1_555
C24 C18 1_555 1_555
C26 C32 1_555 1_555
C27 C33 1_555 1_555
C29 O22 1_555 1_555
C30 O23 1_555 1_555
C32 C17 1_555 1_555
C33 C18 1_555 1_555
C35 C20 1_555 1_555
C36 C21 1_555 1_555
C38 C32 1_555 1_555
C39 C33 1_555 1_555
H18 C39 1_555 1_555
O39 C29 1_555 1_555
O40 C30 1_555 1_555
C20 C23 1_555 1_555
C21 C24 1_555 1_555
C23 C29 1_555 1_555
C24 C30 1_555 1_555
C35 C38 1_555 1_555
C36 C39 1_555 1_555
Gd1 O2 1_555 1_555
Cd1 O1 1_555 1_555
Cd2_2 O3 1_555 1_555
O1 C1 1_555 1_555
O2 C1 1_555 1_555
O3 C6 1_555 1_555
O4 C5 1_555 1_555
O5 C5 1_555 1_555
O6 Cd2_2 1_555 1_555
C1 C8 1_555 1_555
C2 H1 1_555 1_555
C3 H2 1_555 1_555
C4 C2 1_555 1_555
C5 C7 1_555 1_555
C6 O6 1_555 1_555
C7 C2 1_555 1_555
C8 C3 1_555 1_555
C9 C7 1_555 1_555
H3 C9 1_555 1_555
O7 Gd1 1_555 1_555
O8 Gd1 1_555 1_555
O9 Gd1 1_555 1_555
N1 C10 1_555 1_555
C10 O9 1_555 1_555
C11 N1 1_555 1_555
H4 C11 1_555 1_555
H5 C11 1_555 1_555
H6 C11 1_555 1_555
C12 N1 1_555 1_555
H7 C12 1_555 1_555
H8 C12 1_555 1_555
H9 C12 1_555 1_555
O10 Cd1 1_555 1_555
Gd4 O24 1_555 1_555
Cd4 O5 1_555 1_555
O11 C13 1_555 1_555
O14 Cd1 1_555 1_555
O19 Gd1 1_555 1_555
O21 Cd2_2 1_555 1_555
O24 C25 1_555 1_555
O27 Gd1 1_555 1_555
O28 Gd1 1_555 1_555
O34 Cd1 1_555 1_555
O35 Cd1 1_555 1_555
O38 Cd2_2 1_555 1_555
C13 C34 1_555 1_555
C16 H10 1_555 1_555
C19 H13 1_555 1_555
C22 C16 1_555 1_555
C25 C31 1_555 1_555
C28 O21 1_555 1_555
C31 C16 1_555 1_555
C34 C19 1_555 1_555
C37 C31 1_555 1_555
O43 Gd1 1_555 1_555
N2 C40 1_555 1_555
N3 C41 1_555 1_555
C40 O43 1_555 1_555
C43 N2 1_555 1_555
C44 N3 1_555 1_555
H19 C43 1_555 1_555
H22 C43 1_555 1_555
H23 C44 1_555 1_555
H25 C43 1_555 1_555
H26 C44 1_555 1_555
C46 N2 1_555 1_555
C47 N3 1_555 1_555
H28 C46 1_555 1_555
H29 C47 1_555 1_555
H31 C46 1_555 1_555
H32 C47 1_555 1_555
H34 C46 1_555 1_555
H35 C47 1_555 1_555
C3 C4 1_555 1_555
C4 C6 1_555 1_555
C8 C9 1_555 1_555
O38 C28 1_555 1_555
C19 C22 1_555 1_555
C22 C28 1_555 1_555
C34 C37 1_555 1_555
C10 H37 1_555 1_555
C40 H46 1_555 1_555
C41 H50 1_555 1_555
Gd5 O17 1_555 1_555
Cd7 O32 1_555 1_555
O36 Cd3 1_555 1_555
O37 Cd3 1_555 1_555
O46 Cd3 1_555 1_555
Gd6 O16_2 1_555 1_555
Cd6 O31_2 1_555 1_555
O20_2 Gd6 1_555 1_555
O41_2 Gd6 1_555 1_555
O42_2 Gd6 1_555 1_555
O44_2 Gd6 1_555 1_555
O45_2 Gd6 1_555 1_555
N4_2 C42_2 1_555 1_555
C42_2 O45_2 1_555 1_555
C45_2 N4_2 1_555 1_555
H21_2 C45_2 1_555 1_555
H24_2 C45_2 1_555 1_555
H27_2 C45_2 1_555 1_555
C48_2 N4_2 1_555 1_555
H30_2 C48_2 1_555 1_555
H33_2 C48_2 1_555 1_555
H36_2 C48_2 1_555 1_555
C42_2 H49_2 1_555 1_555
Gd8 O2_2 1_555 1_555
Cd2_3 O3_2 1_555 1_555
O1_2 C1_2 1_555 1_555
O2_2 C1_2 1_555 1_555
O3_2 C6_2 1_555 1_555
O4_2 C5_2 1_555 1_555
O5_2 C5_2 1_555 1_555
O6_2 Cd2_3 1_555 1_555
C1_2 C8_2 1_555 1_555
C2_2 H1_2 1_555 1_555
C3_2 H2_2 1_555 1_555
C4_2 C2_2 1_555 1_555
C5_2 C7_2 1_555 1_555
C6_2 O6_2 1_555 1_555
C7_2 C2_2 1_555 1_555
C8_2 C3_2 1_555 1_555
C9_2 C7_2 1_555 1_555
H3_2 C9_2 1_555 1_555
O7_2 Gd8 1_555 1_555
O8_2 Gd8 1_555 1_555
O9_2 Gd8 1_555 1_555
N1_2 C10_2 1_555 1_555
C10_2 O9_2 1_555 1_555
C11_2 N1_2 1_555 1_555
H4_2 C11_2 1_555 1_555
H5_2 C11_2 1_555 1_555
H6_2 C11_2 1_555 1_555
C12_2 N1_2 1_555 1_555
H7_2 C12_2 1_555 1_555
H8_2 C12_2 1_555 1_555
H9_2 C12_2 1_555 1_555
Gd7 O4_2 1_555 1_555
Gd3 O17_2 1_555 1_555
Cd7 O11_2 1_555 1_555
Cd8 O5_2 1_555 1_555
Cd5 O13_2 1_555 1_555
O11_2 C13_2 1_555 1_555
O12_2 C14_2 1_555 1_555
O13_2 C15_2 1_555 1_555
O17_2 C14_2 1_555 1_555
O19_2 Gd8 1_555 1_555
O21_2 Cd2_3 1_555 1_555
O22_2 Cd2_3 1_555 1_555
O23_2 Cd2_3 1_555 1_555
O24_2 C25_2 1_555 1_555
O27 C26_2 1_555 1_555
O29 C27_2 1_555 1_555
O28_2 Gd8 1_555 1_555
O34 C26_2 1_555 1_555
O37_2 Cd7 1_555 1_555
O38_2 Cd2_3 1_555 1_555
O39_2 Cd2_3 1_555 1_555
O40_2 Cd2_3 1_555 1_555
C13_2 C34_2 1_555 1_555
C14_2 C35_2 1_555 1_555
C15_2 C36_2 1_555 1_555
C16_2 H10_2 1_555 1_555
C17_2 H11_2 1_555 1_555
C18_2 H12_2 1_555 1_555
C19_2 H13_2 1_555 1_555
C20_2 H14_2 1_555 1_555
C21_2 H15_2 1_555 1_555
C22_2 C16_2 1_555 1_555
C23_2 C17_2 1_555 1_555
C24_2 C18_2 1_555 1_555
C25_2 C31_2 1_555 1_555
C26_2 C32_2 1_555 1_555
C27_2 C33_2 1_555 1_555
C28_2 O21_2 1_555 1_555
C29_2 O22_2 1_555 1_555
C30_2 O23_2 1_555 1_555
C31_2 C16_2 1_555 1_555
C32_2 C17_2 1_555 1_555
C33_2 C18_2 1_555 1_555
C34_2 C19_2 1_555 1_555
C35_2 C20_2 1_555 1_555
C36_2 C21_2 1_555 1_555
C37_2 C31_2 1_555 1_555
C38_2 C32_2 1_555 1_555
C39_2 C33_2 1_555 1_555
H17_2 C38_2 1_555 1_555
O43_2 Gd8 1_555 1_555
N3_2 C41_2 1_555 1_555
C44_2 N3_2 1_555 1_555
H23_2 C44_2 1_555 1_555
H26_2 C44_2 1_555 1_555
C47_2 N3_2 1_555 1_555
H29_2 C47_2 1_555 1_555
H32_2 C47_2 1_555 1_555
H35_2 C47_2 1_555 1_555
O46_2 Cd7 1_555 1_555
C3_2 C4_2 1_555 1_555
C4_2 C6_2 1_555 1_555
C8_2 C9_2 1_555 1_555
O38_2 C28_2 1_555 1_555
O39_2 C29_2 1_555 1_555
O40_2 C30_2 1_555 1_555
C19_2 C22_2 1_555 1_555
C20_2 C23_2 1_555 1_555
C21_2 C24_2 1_555 1_555
C22_2 C28_2 1_555 1_555
C23_2 C29_2 1_555 1_555
C24_2 C30_2 1_555 1_555
C34_2 C37_2 1_555 1_555
C35_2 C38_2 1_555 1_555
C36_2 C39_2 1_555 1_555
C10_2 H37_2 1_555 1_555
C41_2 H50_2 1_555 1_555
O10_2 Cd9 1_555 1_555
Gd4 O18_2 1_555 1_555
O14_2 Cd9 1_555 1_555
O35_2 Cd9 1_555 1_555
N2_2 C40_2 1_555 1_555
C43_2 N2_2 1_555 1_555
H22_2 C43_2 1_555 1_555
H25_2 C43_2 1_555 1_555
C46_2 N2_2 1_555 1_555
H28_2 C46_2 1_555 1_555
H31_2 C46_2 1_555 1_555
H34_2 C46_2 1_555 1_555
C40_2 H46_2 1_555 1_555
O10_3 Cd4 1_555 1_555
O14_3 Cd4 1_555 1_555
O35_3 Cd4 1_555 1_555
N2_3 C40_3 1_555 1_555
C43_3 N2_3 1_555 1_555
H22_3 C43_3 1_555 1_555
H25_3 C43_3 1_555 1_555
C46_3 N2_3 1_555 1_555
H28_3 C46_3 1_555 1_555
H31_3 C46_3 1_555 1_555
H34_3 C46_3 1_555 1_555
C40_3 H46_3 1_555 1_555
O7_3 Gd3 1_555 1_555
O8_3 Gd3 1_555 1_555
O9_3 Gd3 1_555 1_555
N1_3 C10_3 1_555 1_555
C10_3 O9_3 1_555 1_555
C11_3 N1_3 1_555 1_555
H4_3 C11_3 1_555 1_555
H5_3 C11_3 1_555 1_555
H6_3 C11_3 1_555 1_555
C12_3 N1_3 1_555 1_555
H7_3 C12_3 1_555 1_555
H8_3 C12_3 1_555 1_555
H9_3 C12_3 1_555 1_555
O19_3 Gd3 1_555 1_555
O28_3 Gd3 1_555 1_555
O37_3 Cd5 1_555 1_555
O43_3 Gd3 1_555 1_555
N3_3 C41_3 1_555 1_555
C44_3 N3_3 1_555 1_555
H23_3 C44_3 1_555 1_555
H26_3 C44_3 1_555 1_555
C47_3 N3_3 1_555 1_555
H29_3 C47_3 1_555 1_555
H32_3 C47_3 1_555 1_555
H35_3 C47_3 1_555 1_555
O46_3 Cd5 1_555 1_555
C10_3 H37_3 1_555 1_555
C41_3 H50_3 1_555 1_555
O20_3 Gd4 1_555 1_555
O41_3 Gd4 1_555 1_555
O42_3 Gd4 1_555 1_555
O44_3 Gd4 1_555 1_555
O45_3 Gd4 1_555 1_555
N4_3 C42_3 1_555 1_555
C42_3 O45_3 1_555 1_555
C45_3 N4_3 1_555 1_555
H21_3 C45_3 1_555 1_555
H24_3 C45_3 1_555 1_555
H27_3 C45_3 1_555 1_555
C48_3 N4_3 1_555 1_555
H30_3 C48_3 1_555 1_555
H33_3 C48_3 1_555 1_555
H36_3 C48_3 1_555 1_555
C42_3 H49_3 1_555 1_555
O10_4 Cd6 1_555 1_555
O35_4 Cd6 1_555 1_555
N2_4 C40_4 1_555 1_555
C43_4 N2_4 1_555 1_555
H22_4 C43_4 1_555 1_555
H25_4 C43_4 1_555 1_555
C46_4 N2_4 1_555 1_555
H28_4 C46_4 1_555 1_555
H31_4 C46_4 1_555 1_555
H34_4 C46_4 1_555 1_555
C40_4 H46_4 1_555 1_555
N1_4 C10_4 1_555 1_555
C11_4 N1_4 1_555 1_555
H5_4 C11_4 1_555 1_555
H6_4 C11_4 1_555 1_555
C12_4 N1_4 1_555 1_555
H7_4 C12_4 1_555 1_555
H8_4 C12_4 1_555 1_555
H9_4 C12_4 1_555 1_555
O15_4 Cd8 1_555 1_555
O20_4 Gd7 1_555 1_555
O30_4 Gd7 1_555 1_555
O37_4 Cd8 1_555 1_555
O41_4 Gd7 1_555 1_555
O42_4 Gd7 1_555 1_555
O44_4 Gd7 1_555 1_555
O45_4 Gd7 1_555 1_555
N3_4 C41_4 1_555 1_555
N4_4 C42_4 1_555 1_555
C41_4 O44_4 1_555 1_555
C42_4 O45_4 1_555 1_555
C44_4 N3_4 1_555 1_555
C45_4 N4_4 1_555 1_555
H20_4 C44_4 1_555 1_555
H21_4 C45_4 1_555 1_555
H23_4 C44_4 1_555 1_555
H24_4 C45_4 1_555 1_555
H26_4 C44_4 1_555 1_555
H27_4 C45_4 1_555 1_555
C47_4 N3_4 1_555 1_555
C48_4 N4_4 1_555 1_555
H29_4 C47_4 1_555 1_555
H30_4 C48_4 1_555 1_555
H32_4 C47_4 1_555 1_555
H33_4 C48_4 1_555 1_555
H35_4 C47_4 1_555 1_555
H36_4 C48_4 1_555 1_555
O46_4 Cd8 1_555 1_555
C10_4 H37_4 1_555 1_555
C42_4 H49_4 1_555 1_555
C41_4 H50_4 1_555 1_555
O7_4 Gd5 1_555 1_555
O8_4 Gd5 1_555 1_555
O9_4 Gd5 1_555 1_555
O19_4 Gd5 1_555 1_555
O43_4 Gd5 1_555 1_555
Cd2_4 O3_3 1_555 1_555
O15_4 C1_3 1_555 1_555
O20_4 C1_3 1_555 1_555
O3_3 C6_3 1_555 1_555
O30_2 C5_3 1_555 1_555
O37_2 C5_3 1_555 1_555
O6_3 Cd2_4 1_555 1_555
C1_3 C8_3 1_555 1_555
C2_3 H1_3 1_555 1_555
C3_3 H2_3 1_555 1_555
C4_3 C2_3 1_555 1_555
C5_3 C7_3 1_555 1_555
C6_3 O6_3 1_555 1_555
C7_3 C2_3 1_555 1_555
C8_3 C3_3 1_555 1_555
C9_3 C7_3 1_555 1_555
H3_3 C9_3 1_555 1_555
O14_4 C13_3 1_555 1_555
O21_3 Cd2_4 1_555 1_555
O28_2 C25_3 1_555 1_555
O38_3 Cd2_4 1_555 1_555
C13_3 C34_3 1_555 1_555
C16_3 H10_3 1_555 1_555
C19_3 H13_3 1_555 1_555
C22_3 C16_3 1_555 1_555
C25_3 C31_3 1_555 1_555
C28_3 O21_3 1_555 1_555
C31_3 C16_3 1_555 1_555
C34_3 C19_3 1_555 1_555
C37_3 C31_3 1_555 1_555
C3_3 C4_3 1_555 1_555
C4_3 C6_3 1_555 1_555
C8_3 C9_3 1_555 1_555
O38_3 C28_3 1_555 1_555
C19_3 C22_3 1_555 1_555
C22_3 C28_3 1_555 1_555
C34_3 C37_3 1_555 1_555
O15 C14_3 1_555 1_555
O14 C15_3 1_555 1_555
O19 C15_3 1_555 1_555
O22_3 Cd2_5 1_555 1_555
O23_3 Cd2_5 1_555 1_555
O28_3 C26_3 1_555 1_555
O30_3 C27_3 1_555 1_555
O37_3 C27_3 1_555 1_555
O39_3 Cd2_5 1_555 1_555
O40_3 Cd2_5 1_555 1_555
C14_3 C35_3 1_555 1_555
C15_3 C36_3 1_555 1_555
C17_3 H11_3 1_555 1_555
C18_3 H12_3 1_555 1_555
C20_3 H14_3 1_555 1_555
C21_3 H15_3 1_555 1_555
C23_3 C17_3 1_555 1_555
C24_3 C18_3 1_555 1_555
C26_3 C32_3 1_555 1_555
C27_3 C33_3 1_555 1_555
C29_3 O22_3 1_555 1_555
C30_3 O23_3 1_555 1_555
C32_3 C17_3 1_555 1_555
C33_3 C18_3 1_555 1_555
C35_3 C20_3 1_555 1_555
C36_3 C21_3 1_555 1_555
C38_3 C32_3 1_555 1_555
C39_3 C33_3 1_555 1_555
H18_3 C39_3 1_555 1_555
O39_3 C29_3 1_555 1_555
O40_3 C30_3 1_555 1_555
C20_3 C23_3 1_555 1_555
C21_3 C24_3 1_555 1_555
C23_3 C29_3 1_555 1_555
C24_3 C30_3 1_555 1_555
C35_3 C38_3 1_555 1_555
C36_3 C39_3 1_555 1_555
Cd2_6 O3_4 1_555 1_555
O15_3 C1_4 1_555 1_555
O20_3 C1_4 1_555 1_555
O3_4 C6_4 1_555 1_555
O28 C5_4 1_555 1_555
O35 C5_4 1_555 1_555
O6_4 Cd2_6 1_555 1_555
C1_4 C8_4 1_555 1_555
C2_4 H1_4 1_555 1_555
C3_4 H2_4 1_555 1_555
C4_4 C2_4 1_555 1_555
C5_4 C7_4 1_555 1_555
C6_4 O6_4 1_555 1_555
C7_4 C2_4 1_555 1_555
C8_4 C3_4 1_555 1_555
C9_4 C7_4 1_555 1_555
H3_4 C9_4 1_555 1_555
O14_3 C13_4 1_555 1_555
O15_2 C14_4 1_555 1_555
O14_2 C15_4 1_555 1_555
O20_2 C14_4 1_555 1_555
O21_4 Cd2_6 1_555 1_555
O22_4 Cd2_6 1_555 1_555
O23_4 Cd2_6 1_555 1_555
O30 C25_4 1_555 1_555
O30_4 C26_4 1_555 1_555
O28_4 C27_4 1_555 1_555
O37_4 C26_4 1_555 1_555
O38_4 Cd2_6 1_555 1_555
O39_4 Cd2_6 1_555 1_555
O40_4 Cd2_6 1_555 1_555
C13_4 C34_4 1_555 1_555
C14_4 C35_4 1_555 1_555
C15_4 C36_4 1_555 1_555
C16_4 H10_4 1_555 1_555
C17_4 H11_4 1_555 1_555
C18_4 H12_4 1_555 1_555
C19_4 H13_4 1_555 1_555
C20_4 H14_4 1_555 1_555
C21_4 H15_4 1_555 1_555
C22_4 C16_4 1_555 1_555
C23_4 C17_4 1_555 1_555
C24_4 C18_4 1_555 1_555
C25_4 C31_4 1_555 1_555
C26_4 C32_4 1_555 1_555
C27_4 C33_4 1_555 1_555
C28_4 O21_4 1_555 1_555
C29_4 O22_4 1_555 1_555
C30_4 O23_4 1_555 1_555
C31_4 C16_4 1_555 1_555
C32_4 C17_4 1_555 1_555
C33_4 C18_4 1_555 1_555
C34_4 C19_4 1_555 1_555
C35_4 C20_4 1_555 1_555
C36_4 C21_4 1_555 1_555
C37_4 C31_4 1_555 1_555
C38_4 C32_4 1_555 1_555
C39_4 C33_4 1_555 1_555
H17_4 C38_4 1_555 1_555
C3_4 C4_4 1_555 1_555
C4_4 C6_4 1_555 1_555
C8_4 C9_4 1_555 1_555
O38_4 C28_4 1_555 1_555
O39_4 C29_4 1_555 1_555
O40_4 C30_4 1_555 1_555
C19_4 C22_4 1_555 1_555
C20_4 C23_4 1_555 1_555
C21_4 C24_4 1_555 1_555
C22_4 C28_4 1_555 1_555
C23_4 C29_4 1_555 1_555
C24_4 C30_4 1_555 1_555
C34_4 C37_4 1_555 1_555
C35_4 C38_4 1_555 1_555
C36_4 C39_4 1_555 1_555

#END
