
###############################################################################
#
# This file contains modified crystal structure data generated from the
# MOF subset of the Cambridge Structural Database (CSD) v543 
# hosted by the Cambridge Crystallographic Data Centre (CCDC).
#
# This work is licensed under the Creative Commons
# Attribution-NonCommercial-ShareAlike 4.0 International License.
# To view a copy of this license, visit
# http://creativecommons.org/licenses/by-nc-sa/4.0/
# or send a letter to
# Creative Commons, PO Box 1866, Mountain View, CA 94042, USA.
#
# CIF created using the CSD Python API on 29 September 2022
# The structure has been converted into the P1 space group
# The structure has a 3D framework
# The original CSD entry TAZLOX is in the tetragonal crystal system
# The framework has been calculated to contain at least 10.0% void space
# The void calculation uses a probe of radius 1.32A, grid spacing 0.4
# H atom positions have been added when not included in the experimental data
# Generated hydrogen atom positions removed from atoms on special positions
#
###############################################################################

data_TAZLOX
_chemical_formula_moiety         '(C192 H256 Cd14 Eu8 N16 O122)n'
_symmetry_cell_setting           triclinic
_symmetry_space_group_name_H-M   'P 1'
_symmetry_Int_Tables_number      1
_space_group_name_Hall           'P 1'
loop_
_symmetry_equiv_pos_site_id
_symmetry_equiv_pos_as_xyz
1 x,y,z
_cell_length_a                   19.4911(4)
_cell_length_b                   19.4911(4)
_cell_length_c                   26.2995(14)
_cell_angle_alpha                90
_cell_angle_beta                 90
_cell_angle_gamma                90
_cell_volume                     9991.26
loop_
_atom_site_label
_atom_site_type_symbol
_atom_site_fract_x
_atom_site_fract_y
_atom_site_fract_z
Eu5 Eu 0.44347(3) 0.05653(3) 0.19741(3)
Cd9 Cd 0.03243(4) 0.03243(4) 0.19633(4)
Eu4 Eu 0.05653(3) 0.05653(3) 0.69741(3)
Cd3 Cd 0.46757(4) 0.03243(4) 0.69633(4)
H13 H 0.2481 0.0111 0.7682
C41 C 0.7717(16) 0.1427(17) 0.8115(14)
H20 H 0.7447 0.1510 0.7816
H23 H 0.8188 0.1361 0.8020
H26 H 0.7682 0.1813 0.8340
C44 C 0.7667(16) 0.0435(14) 0.8811(11)
H29 H 0.7393 0.0029 0.8852
H32 H 0.7615 0.0724 0.9104
H35 H 0.8140 0.0309 0.8774
C47 C 0.6880(11) 0.0486(14) 0.8217(11)
O21 O 0.5381(5) 0.0636(4) 0.7947(4)
O22 O 0.3704(5) 0.0161(5) 0.7407(4)
O26 O 0.4839(5) 0.1296(5) 0.7407(4)
O32 O 0.5761(4) 0.0405(5) 0.6695(4)
O34 O 0.1199(4) 0.0183(5) 0.7678(3)
N3 N 0.7453(9) 0.0786(12) 0.8383(9)
O46 O 0.4143(11) 0.0857(11) 0.6304(11)
H45 H 0.661878 0.0741864 0.790391
Cd2 Cd 0.2500 0.7500 0.0000
Eu6 Eu 0.55653(3) 0.55653(3) 0.30259(3)
Eu7 Eu 0.05653(3) 0.44347(3) 0.19741(3)
Cd6 Cd 0.53243(4) 0.96757(4) 0.30367(4)
Cd7 Cd 0.46757(4) 0.46757(4) 0.19633(4)
C14 C 0.4821(6) 0.6259(6) 0.1943(4)
C15 C 0.0179(6) 0.8741(6) 0.1943(4)
C17 C 0.4622(6) 0.8179(6) 0.1882(4)
C18 C 0.0378(6) 0.6821(6) 0.1882(4)
C20 C 0.4638(5) 0.6969(5) 0.1760(4)
C21 C 0.0362(5) 0.8031(5) 0.1760(4)
C23 C 0.4230(6) 0.7035(6) 0.1339(5)
C24 C 0.0770(6) 0.7965(6) 0.1339(5)
H11 H 0.4102 0.6648 0.1154
H12 H 0.0898 0.8352 0.1154
C26 C 0.4828(6) 0.8802(5) 0.2190(6)
C27 C 0.0172(6) 0.6198(5) 0.2190(6)
C29 C 0.4835(6) 0.7532(6) 0.2032(4)
C30 C 0.0165(6) 0.7468(6) 0.2032(4)
H14 H 0.5111 0.7481 0.2318
C32 C 0.3526(6) 0.7749(7) 0.0747(5)
C33 C 0.1474(6) 0.7251(7) 0.0747(5)
C35 C 0.4215(6) 0.8252(6) 0.1461(4)
C36 C 0.0785(6) 0.6748(6) 0.1461(4)
H17 H 0.4076 0.8687 0.1359
H18 H 0.0924 0.6313 0.1359
C38 C 0.4009(6) 0.7681(6) 0.1188(5)
C39 C 0.0991(6) 0.7319(6) 0.1188(5)
O12 O 0.3280(5) 0.8320(6) 0.0640(3)
O13 O 0.1720(5) 0.6680(6) 0.0640(3)
O15 O 0.3351(6) 0.7206(5) 0.0516(4)
O16 O 0.1649(6) 0.7794(5) 0.0516(4)
O18 O 0.4619(5) 0.9364(4) 0.2053(4)
O19 O 0.0381(5) 0.5636(4) 0.2053(4)
O23 O 0.5161(5) 0.8704(5) 0.2593(4)
O28 O 0.4595(5) 0.5761(4) 0.1695(4)
O29 O 0.0405(5) 0.9239(4) 0.1695(4)
O35 O 0.5183(5) 0.6199(4) 0.2322(3)
Cd1 Cd 0.03243(4) 0.46757(4) 0.69633(4)
C1 C 0.3741(6) 0.5179(6) 0.8057(4)
C2 C 0.1821(6) 0.5378(6) 0.8118(4)
C3 C 0.3031(5) 0.5362(5) 0.8240(4)
C4 C 0.2965(6) 0.5770(6) 0.8661(5)
H1 H 0.3352 0.5898 0.8846
C5 C 0.1198(5) 0.5172(6) 0.7810(6)
C6 C 0.2468(6) 0.5165(6) 0.7968(4)
H2 H 0.2519 0.4889 0.7682
C7 C 0.2251(7) 0.6474(6) 0.9253(5)
C8 C 0.1748(6) 0.5785(6) 0.8539(4)
H3 H 0.1313 0.5924 0.8641
C9 C 0.2319(6) 0.5991(6) 0.8812(5)
O1 O 0.1680(6) 0.6720(5) 0.9360(3)
O2 O 0.2794(5) 0.6649(6) 0.9484(4)
O3 O 0.0636(4) 0.5381(5) 0.7947(4)
O4 O 0.1296(5) 0.4839(5) 0.7407(4)
O5 O 0.4239(4) 0.5405(5) 0.8305(4)
O6 O 0.3801(4) 0.4817(5) 0.7678(3)
Cd2_2 Cd 0.2500 0.7500 1.0000
O10 O 0.0857(11) 0.4143(11) 0.6304(11)
Eu2 Eu 0.55653(3) 0.94347(3) 0.80259(3)
Eu3 Eu 0.44347(3) 0.44347(3) 0.69741(3)
Cd4 Cd 0.53243(4) 0.53243(4) 0.80367(4)
C13 C 0.1259(6) 0.9821(6) 0.8057(4)
C16 C 0.3179(6) 0.9622(6) 0.8118(4)
C19 C 0.1969(5) 0.9638(5) 0.8240(4)
C22 C 0.2035(6) 0.9230(6) 0.8661(5)
H10 H 0.1648 0.9102 0.8846
C25 C 0.3802(5) 0.9828(6) 0.7810(6)
C28 C 0.2532(6) 0.9835(6) 0.7968(4)
C31 C 0.2749(7) 0.8526(6) 0.9253(5)
C34 C 0.3252(6) 0.9215(6) 0.8539(4)
H16 H 0.3687 0.9076 0.8641
C37 C 0.2681(6) 0.9009(6) 0.8812(5)
C40 C 0.1427(17) 0.7717(16) 0.8115(14)
C42 C 0.3573(17) 0.7283(16) 0.8115(14)
H19 H 0.1510 0.7447 0.7816
H21 H 0.3490 0.7553 0.7816
H22 H 0.1361 0.8188 0.8020
H24 H 0.3639 0.6812 0.8020
H25 H 0.1813 0.7682 0.8340
H27 H 0.3187 0.7318 0.8340
C43 C 0.0435(14) 0.7667(16) 0.8811(11)
C45 C 0.4565(14) 0.7333(16) 0.8811(11)
H28 H 0.0029 0.7393 0.8852
H30 H 0.4971 0.7607 0.8852
H31 H 0.0724 0.7615 0.9104
H33 H 0.4276 0.7385 0.9104
H34 H 0.0309 0.8140 0.8774
H36 H 0.4691 0.6860 0.8774
C46 C 0.0486(14) 0.6880(11) 0.8217(11)
C48 C 0.4514(14) 0.8120(11) 0.8217(11)
O11 O 0.3320(6) 0.8280(5) 0.9360(3)
O14 O 0.2206(5) 0.8351(6) 0.9484(4)
O17 O 0.4364(4) 0.9619(5) 0.7947(4)
O25 O 0.0161(5) 0.3704(5) 0.7407(4)
O27 O 0.0761(4) 0.9595(5) 0.8305(4)
O31 O 0.0405(5) 0.5761(4) 0.6695(4)
O33 O 0.4595(5) 0.9239(4) 0.6695(4)
O39 O 0.6199(4) 0.9817(5) 0.7322(3)
O40 O 0.5183(5) 0.8801(4) 0.7322(3)
O42 O 0.6603(5) 0.9942(6) 0.8378(4)
O43 O 0.5058(6) 0.8397(5) 0.8378(4)
O44 O 0.6431(5) 0.8569(5) 0.7999(6)
O45 O 0.5380(7) 0.9620(7) 0.8905(5)
N2 N 0.0786(12) 0.7453(9) 0.8383(9)
N4 N 0.4214(12) 0.7547(9) 0.8383(9)
H44 H 0.425814 0.838122 0.790391
H46 H 0.0741864 0.661878 0.790391
Eu8 Eu 0.94347(3) 0.94347(3) 0.30259(3)
Cd8 Cd 0.96757(4) 0.53243(4) 0.30367(4)
H15 H 0.9889 0.7519 0.2318
O24 O 0.9839(5) 0.6296(5) 0.2593(4)
O36 O 0.9817(5) 0.8801(4) 0.2322(3)
Eu1 Eu 0.94347(3) 0.55653(3) 0.80259(3)
C10 C 0.7283(16) 0.3573(17) 0.8115(14)
H4 H 0.7553 0.3490 0.7816
H5 H 0.6812 0.3639 0.8020
H6 H 0.7318 0.3187 0.8340
C11 C 0.7333(16) 0.4565(14) 0.8811(11)
H7 H 0.7607 0.4971 0.8852
H8 H 0.7385 0.4276 0.9104
H9 H 0.6860 0.4691 0.8774
C12 C 0.8120(11) 0.4514(14) 0.8217(11)
O7 O 0.8397(5) 0.5058(6) 0.8378(4)
O8 O 0.8569(5) 0.6431(5) 0.7999(6)
O9 O 0.9620(7) 0.5380(7) 0.8905(5)
N1 N 0.7547(9) 0.4214(12) 0.8383(9)
Cd5 Cd 0.96757(4) 0.96757(4) 0.80367(4)
O20 O 0.9619(5) 0.4364(4) 0.7947(4)
O30 O 0.9239(4) 0.4595(5) 0.6695(4)
O37 O 0.8801(4) 0.5183(5) 0.7322(3)
O38 O 0.9817(5) 0.6199(4) 0.7322(3)
O41 O 0.9942(6) 0.6603(5) 0.8378(4)
H41 H 0.838122 0.425814 0.790391
H2_2 H 0.0111 0.2519 0.2682
O4_2 O 0.0161(5) 0.1296(5) 0.2407(4)
O6_2 O 0.0183(5) 0.3801(4) 0.2678(3)
O10_2 O 0.0857(11) 0.0857(11) 0.1304(11)
O25_2 O 0.1296(5) 0.0161(5) 0.2407(4)
C10_2 C 0.1427(17) 0.7283(16) 0.3115(14)
H4_2 H 0.1510 0.7553 0.2816
H5_2 H 0.1361 0.6812 0.3020
H6_2 H 0.1813 0.7318 0.3340
C11_2 C 0.0435(14) 0.7333(16) 0.3811(11)
H7_2 H 0.0029 0.7607 0.3852
H8_2 H 0.0724 0.7385 0.4104
H9_2 H 0.0309 0.6860 0.3774
C12_2 C 0.0486(14) 0.8120(11) 0.3217(11)
N1_2 N 0.0786(12) 0.7547(9) 0.3383(9)
O20_2 O 0.0636(4) 0.9619(5) 0.2947(4)
H41_2 H 0.0741864 0.838122 0.290391
C1_2 C 0.9821(6) 0.3741(6) 0.3057(4)
C2_2 C 0.9622(6) 0.1821(6) 0.3118(4)
C3_2 C 0.9638(5) 0.3031(5) 0.3240(4)
C4_2 C 0.9230(6) 0.2965(6) 0.3661(5)
H1_2 H 0.9102 0.3352 0.3846
C5_2 C 0.9828(6) 0.1198(5) 0.2810(6)
C6_2 C 0.9835(6) 0.2468(6) 0.2968(4)
C7_2 C 0.8526(6) 0.2251(7) 0.4253(5)
C8_2 C 0.9215(6) 0.1748(6) 0.3539(4)
H3_2 H 0.9076 0.1313 0.3641
C9_2 C 0.9009(6) 0.2319(6) 0.3812(5)
O1_2 O 0.8280(5) 0.1680(6) 0.4360(3)
O2_2 O 0.8351(6) 0.2794(5) 0.4484(4)
O3_2 O 0.9619(5) 0.0636(4) 0.2947(4)
O5_2 O 0.9595(5) 0.4239(4) 0.3305(4)
Cd2_3 Cd 0.7500 0.2500 0.5000
C13_2 C 0.5179(6) 0.1259(6) 0.3057(4)
C14_2 C 0.8741(6) 0.4821(6) 0.6943(4)
C15_2 C 0.6259(6) 0.0179(6) 0.6943(4)
C16_2 C 0.5378(6) 0.3179(6) 0.3118(4)
C17_2 C 0.6821(6) 0.4622(6) 0.6882(4)
C18_2 C 0.8179(6) 0.0378(6) 0.6882(4)
C19_2 C 0.5362(5) 0.1969(5) 0.3240(4)
C20_2 C 0.8031(5) 0.4638(5) 0.6760(4)
C21_2 C 0.6969(5) 0.0362(5) 0.6760(4)
C22_2 C 0.5770(6) 0.2035(6) 0.3661(5)
C23_2 C 0.7965(6) 0.4230(6) 0.6339(5)
C24_2 C 0.7035(6) 0.0770(6) 0.6339(5)
H10_2 H 0.5898 0.1648 0.3846
H11_2 H 0.8352 0.4102 0.6154
H12_2 H 0.6648 0.0898 0.6154
C25_2 C 0.5172(6) 0.3802(5) 0.2810(6)
C26_2 C 0.6198(5) 0.4828(6) 0.7190(6)
C27_2 C 0.8802(5) 0.0172(6) 0.7190(6)
C28_2 C 0.5165(6) 0.2532(6) 0.2968(4)
C29_2 C 0.7468(6) 0.4835(6) 0.7032(4)
C30_2 C 0.7532(6) 0.0165(6) 0.7032(4)
H13_2 H 0.4889 0.2481 0.2682
H14_2 H 0.7519 0.5111 0.7318
C31_2 C 0.6474(6) 0.2749(7) 0.4253(5)
C32_2 C 0.7251(7) 0.3526(6) 0.5747(5)
C33_2 C 0.7749(7) 0.1474(6) 0.5747(5)
C34_2 C 0.5785(6) 0.3252(6) 0.3539(4)
C35_2 C 0.6748(6) 0.4215(6) 0.6461(4)
C36_2 C 0.8252(6) 0.0785(6) 0.6461(4)
H16_2 H 0.5924 0.3687 0.3641
H17_2 H 0.6313 0.4076 0.6359
H18_2 H 0.8687 0.0924 0.6359
C37_2 C 0.5991(6) 0.2681(6) 0.3812(5)
C38_2 C 0.7319(6) 0.4009(6) 0.6188(5)
C39_2 C 0.7681(6) 0.0991(6) 0.6188(5)
C40_2 C 0.7283(16) 0.1427(17) 0.3115(14)
C41_2 C 0.3573(17) 0.7717(16) 0.3115(14)
C42_2 C 0.7717(16) 0.3573(17) 0.3115(14)
H19_2 H 0.7553 0.1510 0.2816
H20_2 H 0.3490 0.7447 0.2816
H21_2 H 0.7447 0.3490 0.2816
H22_2 H 0.6812 0.1361 0.3020
H23_2 H 0.3639 0.8188 0.3020
H24_2 H 0.8188 0.3639 0.3020
H25_2 H 0.7318 0.1813 0.3340
H26_2 H 0.3187 0.7682 0.3340
H27_2 H 0.7682 0.3187 0.3340
C43_2 C 0.7333(16) 0.0435(14) 0.3811(11)
C44_2 C 0.4565(14) 0.7667(16) 0.3811(11)
C45_2 C 0.7667(16) 0.4565(14) 0.3811(11)
H28_2 H 0.7607 0.0029 0.3852
H29_2 H 0.4971 0.7393 0.3852
H30_2 H 0.7393 0.4971 0.3852
H31_2 H 0.7385 0.0724 0.4104
H32_2 H 0.4276 0.7615 0.4104
H33_2 H 0.7615 0.4276 0.4104
H34_2 H 0.6860 0.0309 0.3774
H35_2 H 0.4691 0.8140 0.3774
H36_2 H 0.8140 0.4691 0.3774
C46_2 C 0.8120(11) 0.0486(14) 0.3217(11)
C47_2 C 0.4514(14) 0.6880(11) 0.3217(11)
C48_2 C 0.6880(11) 0.4514(14) 0.3217(11)
O11_2 O 0.6720(5) 0.3320(6) 0.4360(3)
O12_2 O 0.6680(6) 0.3280(5) 0.5640(3)
O13_2 O 0.8320(6) 0.1720(5) 0.5640(3)
O14_2 O 0.6649(6) 0.2206(5) 0.4484(4)
O15_2 O 0.7794(5) 0.3351(6) 0.5516(4)
O16_2 O 0.7206(5) 0.1649(6) 0.5516(4)
O17_2 O 0.5381(5) 0.4364(4) 0.2947(4)
O18_2 O 0.5636(4) 0.4619(5) 0.7053(4)
O19_2 O 0.9364(4) 0.0381(5) 0.7053(4)
O21_2 O 0.4364(4) 0.5381(5) 0.2947(4)
O22_2 O 0.4839(5) 0.3704(5) 0.2407(4)
O23_2 O 0.6296(5) 0.5161(5) 0.7593(4)
O26_2 O 0.3704(5) 0.4839(5) 0.2407(4)
O27_2 O 0.5405(5) 0.0761(4) 0.3305(4)
O31_2 O 0.9239(4) 0.0405(5) 0.1695(4)
O33_2 O 0.5761(4) 0.4595(5) 0.1695(4)
O34_2 O 0.4817(5) 0.1199(4) 0.2678(3)
O40_2 O 0.6199(4) 0.5183(5) 0.2322(3)
O42_2 O 0.5058(6) 0.6603(5) 0.3378(4)
O43_2 O 0.6603(5) 0.5058(6) 0.3378(4)
O44_2 O 0.6431(5) 0.6431(5) 0.2999(6)
O45_2 O 0.5380(7) 0.5380(7) 0.3905(5)
N2_2 N 0.7547(9) 0.0786(12) 0.3383(9)
N3_2 N 0.4214(12) 0.7453(9) 0.3383(9)
N4_2 N 0.7453(9) 0.4214(12) 0.3383(9)
O46_2 O 0.4143(11) 0.4143(11) 0.1304(11)
H44_2 H 0.661878 0.425814 0.290391
H45_2 H 0.425814 0.661878 0.290391
H46_2 H 0.838122 0.0741864 0.290391
O7_2 O 0.9942(6) 0.8397(5) 0.3378(4)
O8_2 O 0.8569(5) 0.8569(5) 0.2999(6)
O9_2 O 0.9620(7) 0.9620(7) 0.3905(5)
H15_2 H 0.7481 0.9889 0.7318
O24_2 O 0.8704(5) 0.9839(5) 0.7593(4)
O38_2 O 0.8801(4) 0.9817(5) 0.2322(3)
O41_2 O 0.8397(5) 0.9942(6) 0.3378(4)
O7_3 O 0.1603(5) 0.0058(6) 0.6622(4)
O8_3 O 0.1431(5) 0.1431(5) 0.7001(6)
O9_3 O 0.0380(7) 0.0380(7) 0.6095(5)
O38_3 O 0.0183(5) 0.1199(4) 0.7678(3)
O41_3 O 0.0058(6) 0.1603(5) 0.6622(4)
C10_3 C 0.2717(16) 0.8573(17) 0.6885(14)
H4_3 H 0.2447 0.8490 0.7184
H5_3 H 0.3188 0.8639 0.6980
H6_3 H 0.2682 0.8187 0.6660
C11_3 C 0.2667(16) 0.9565(14) 0.6189(11)
H7_3 H 0.2393 0.9971 0.6148
H8_3 H 0.2615 0.9276 0.5896
H9_3 H 0.3140 0.9691 0.6226
C12_3 C 0.1880(11) 0.9514(14) 0.6783(11)
N1_3 N 0.2453(9) 0.9214(12) 0.6617(9)
O20_3 O 0.0381(5) 0.9364(4) 0.7053(4)
H41_3 H 0.161878 0.925814 0.709609
C40_3 C 0.8573(17) 0.2717(16) 0.6885(14)
C41_3 C 0.2283(16) 0.6427(17) 0.6885(14)
C42_3 C 0.6427(17) 0.2283(16) 0.6885(14)
H19_3 H 0.8490 0.2447 0.7184
H20_3 H 0.2553 0.6510 0.7184
H21_3 H 0.6510 0.2553 0.7184
H22_3 H 0.8639 0.3188 0.6980
H23_3 H 0.1812 0.6361 0.6980
H24_3 H 0.6361 0.1812 0.6980
H25_3 H 0.8187 0.2682 0.6660
H26_3 H 0.2318 0.6813 0.6660
H27_3 H 0.6813 0.2318 0.6660
C43_3 C 0.9565(14) 0.2667(16) 0.6189(11)
C44_3 C 0.2333(16) 0.5435(14) 0.6189(11)
C45_3 C 0.5435(14) 0.2333(16) 0.6189(11)
H28_3 H 0.9971 0.2393 0.6148
H29_3 H 0.2607 0.5029 0.6148
H30_3 H 0.5029 0.2607 0.6148
H31_3 H 0.9276 0.2615 0.5896
H32_3 H 0.2385 0.5724 0.5896
H33_3 H 0.5724 0.2385 0.5896
H34_3 H 0.9691 0.3140 0.6226
H35_3 H 0.1860 0.5309 0.6226
H36_3 H 0.5309 0.1860 0.6226
C46_3 C 0.9514(14) 0.1880(11) 0.6783(11)
C47_3 C 0.3120(11) 0.5486(14) 0.6783(11)
C48_3 C 0.5486(14) 0.3120(11) 0.6783(11)
O21_3 O 0.4619(5) 0.5636(4) 0.7053(4)
O26_3 O 0.5161(5) 0.6296(5) 0.7593(4)
O31_3 O 0.9595(5) 0.0761(4) 0.8305(4)
O33_3 O 0.5405(5) 0.4239(4) 0.8305(4)
O40_3 O 0.4817(5) 0.3801(4) 0.7678(3)
O42_3 O 0.3397(5) 0.4942(6) 0.6622(4)
O43_3 O 0.4942(6) 0.3397(5) 0.6622(4)
O44_3 O 0.3569(5) 0.3569(5) 0.7001(6)
O45_3 O 0.4620(7) 0.4620(7) 0.6095(5)
N2_3 N 0.9214(12) 0.2453(9) 0.6617(9)
N3_3 N 0.2547(9) 0.5786(12) 0.6617(9)
N4_3 N 0.5786(12) 0.2547(9) 0.6617(9)
O46_3 O 0.5857(11) 0.5857(11) 0.8696(11)
H44_3 H 0.574186 0.338122 0.709609
H45_3 H 0.338122 0.574186 0.709609
H46_3 H 0.925814 0.161878 0.709609
O10_3 O 0.9143(11) 0.9143(11) 0.8696(11)
O25_3 O 0.9839(5) 0.8704(5) 0.7593(4)
C41_4 C 0.6427(17) 0.2717(16) 0.1885(14)
H20_4 H 0.6510 0.2447 0.2184
H23_4 H 0.6361 0.3188 0.1980
H26_4 H 0.6813 0.2682 0.1660
C44_4 C 0.5435(14) 0.2667(16) 0.1189(11)
H29_4 H 0.5029 0.2393 0.1148
H32_4 H 0.5724 0.2615 0.0896
H35_4 H 0.5309 0.3140 0.1226
C47_4 C 0.5486(14) 0.1880(11) 0.1783(11)
O21_4 O 0.5636(4) 0.0381(5) 0.2053(4)
O40_4 O 0.3801(4) 0.0183(5) 0.2678(3)
O42_4 O 0.4942(6) 0.1603(5) 0.1622(4)
O43_4 O 0.3397(5) 0.0058(6) 0.1622(4)
O44_4 O 0.3569(5) 0.1431(5) 0.2001(6)
O45_4 O 0.4620(7) 0.0380(7) 0.1095(5)
N3_4 N 0.5786(12) 0.2453(9) 0.1617(9)
H45_4 H 0.574186 0.161878 0.209609
O7_4 O 0.0058(6) 0.3397(5) 0.1622(4)
O8_4 O 0.1431(5) 0.3569(5) 0.2001(6)
O9_4 O 0.0380(7) 0.4620(7) 0.1095(5)
C40_4 C 0.2717(16) 0.6427(17) 0.1885(14)
C42_4 C 0.2283(16) 0.8573(17) 0.1885(14)
H19_4 H 0.2447 0.6510 0.2184
H21_4 H 0.2553 0.8490 0.2184
H22_4 H 0.3188 0.6361 0.1980
H24_4 H 0.1812 0.8639 0.1980
H25_4 H 0.2682 0.6813 0.1660
H27_4 H 0.2318 0.8187 0.1660
C43_4 C 0.2667(16) 0.5435(14) 0.1189(11)
C45_4 C 0.2333(16) 0.9565(14) 0.1189(11)
H28_4 H 0.2393 0.5029 0.1148
H30_4 H 0.2607 0.9971 0.1148
H31_4 H 0.2615 0.5724 0.0896
H33_4 H 0.2385 0.9276 0.0896
H34_4 H 0.3140 0.5309 0.1226
H36_4 H 0.1860 0.9691 0.1226
C46_4 C 0.1880(11) 0.5486(14) 0.1783(11)
C48_4 C 0.3120(11) 0.9514(14) 0.1783(11)
O26_4 O 0.6296(5) 0.9839(5) 0.2593(4)
O31_4 O 0.0761(4) 0.5405(5) 0.3305(4)
O33_4 O 0.4239(4) 0.9595(5) 0.3305(4)
O38_4 O 0.1199(4) 0.4817(5) 0.2678(3)
O41_4 O 0.1603(5) 0.4942(6) 0.1622(4)
N2_4 N 0.2453(9) 0.5786(12) 0.1617(9)
N4_4 N 0.2547(9) 0.9214(12) 0.1617(9)
O46_4 O 0.5857(11) 0.9143(11) 0.3696(11)
H44_4 H 0.338122 0.925814 0.209609
H46_4 H 0.161878 0.574186 0.209609
C10_4 C 0.8573(17) 0.2283(16) 0.1885(14)
H4_4 H 0.8490 0.2553 0.2184
H5_4 H 0.8639 0.1812 0.1980
H6_4 H 0.8187 0.2318 0.1660
C11_4 C 0.9565(14) 0.2333(16) 0.1189(11)
H7_4 H 0.9971 0.2607 0.1148
H8_4 H 0.9276 0.2385 0.0896
H9_4 H 0.9691 0.1860 0.1226
C12_4 C 0.9514(14) 0.3120(11) 0.1783(11)
N1_4 N 0.9214(12) 0.2547(9) 0.1617(9)
O10_4 O 0.9143(11) 0.5857(11) 0.3696(11)
O20_4 O 0.9364(4) 0.4619(5) 0.2053(4)
O25_4 O 0.8704(5) 0.5161(5) 0.2593(4)
H41_4 H 0.925814 0.338122 0.209609
H15_3 H 0.0111 0.2481 0.7682
C1_3 C 0.6259(6) 0.4821(6) 0.1943(4)
C2_3 C 0.8179(6) 0.4622(6) 0.1882(4)
C3_3 C 0.6969(5) 0.4638(5) 0.1760(4)
C4_3 C 0.7035(6) 0.4230(6) 0.1339(5)
H1_3 H 0.6648 0.4102 0.1154
C5_3 C 0.8802(5) 0.4828(6) 0.2190(6)
C6_3 C 0.7532(6) 0.4835(6) 0.2032(4)
H2_3 H 0.7481 0.5111 0.2318
C7_3 C 0.7749(7) 0.3526(6) 0.0747(5)
C8_3 C 0.8252(6) 0.4215(6) 0.1461(4)
H3_3 H 0.8687 0.4076 0.1359
C9_3 C 0.7681(6) 0.4009(6) 0.1188(5)
O1_3 O 0.8320(6) 0.3280(5) 0.0640(3)
O2_3 O 0.7206(5) 0.3351(6) 0.0516(4)
Cd2_4 Cd 0.7500 0.2500 -0.0000
C13_3 C 0.8741(6) 0.0179(6) 0.1943(4)
C16_3 C 0.6821(6) 0.0378(6) 0.1882(4)
C19_3 C 0.8031(5) 0.0362(5) 0.1760(4)
C22_3 C 0.7965(6) 0.0770(6) 0.1339(5)
H10_3 H 0.8352 0.0898 0.1154
C25_3 C 0.6198(5) 0.0172(6) 0.2190(6)
C28_3 C 0.7468(6) 0.0165(6) 0.2032(4)
C31_3 C 0.7251(7) 0.1474(6) 0.0747(5)
C34_3 C 0.6748(6) 0.0785(6) 0.1461(4)
H16_3 H 0.6313 0.0924 0.1359
C37_3 C 0.7319(6) 0.0991(6) 0.1188(5)
O11_3 O 0.6680(6) 0.1720(5) 0.0640(3)
O14_3 O 0.7794(5) 0.1649(6) 0.0516(4)
Cd2_5 Cd 0.7500 0.2500 1.0000
C14_3 C 0.5179(6) 0.3741(6) 0.8057(4)
C15_3 C 0.9821(6) 0.1259(6) 0.8057(4)
C17_3 C 0.5378(6) 0.1821(6) 0.8118(4)
C18_3 C 0.9622(6) 0.3179(6) 0.8118(4)
C20_3 C 0.5362(5) 0.3031(5) 0.8240(4)
C21_3 C 0.9638(5) 0.1969(5) 0.8240(4)
C23_3 C 0.5770(6) 0.2965(6) 0.8661(5)
C24_3 C 0.9230(6) 0.2035(6) 0.8661(5)
H11_3 H 0.5898 0.3352 0.8846
H12_3 H 0.9102 0.1648 0.8846
C26_3 C 0.5172(6) 0.1198(5) 0.7810(6)
C27_3 C 0.9828(6) 0.3802(5) 0.7810(6)
C29_3 C 0.5165(6) 0.2468(6) 0.7968(4)
C30_3 C 0.9835(6) 0.2532(6) 0.7968(4)
H14_3 H 0.4889 0.2519 0.7682
C32_3 C 0.6474(6) 0.2251(7) 0.9253(5)
C33_3 C 0.8526(6) 0.2749(7) 0.9253(5)
C35_3 C 0.5785(6) 0.1748(6) 0.8539(4)
C36_3 C 0.9215(6) 0.3252(6) 0.8539(4)
H17_3 H 0.5924 0.1313 0.8641
H18_3 H 0.9076 0.3687 0.8641
C38_3 C 0.5991(6) 0.2319(6) 0.8812(5)
C39_3 C 0.9009(6) 0.2681(6) 0.8812(5)
O12_3 O 0.6720(5) 0.1680(6) 0.9360(3)
O13_3 O 0.8280(5) 0.3320(6) 0.9360(3)
O15_3 O 0.6649(6) 0.2794(5) 0.9484(4)
O16_3 O 0.8351(6) 0.2206(5) 0.9484(4)
H13_3 H 0.7519 0.9889 0.2318
H15_4 H 0.2519 0.0111 0.2682
C1_4 C 0.0179(6) 0.6259(6) 0.6943(4)
C2_4 C 0.0378(6) 0.8179(6) 0.6882(4)
C3_4 C 0.0362(5) 0.6969(5) 0.6760(4)
C4_4 C 0.0770(6) 0.7035(6) 0.6339(5)
H1_4 H 0.0898 0.6648 0.6154
C5_4 C 0.0172(6) 0.8802(5) 0.7190(6)
C6_4 C 0.0165(6) 0.7532(6) 0.7032(4)
C7_4 C 0.1474(6) 0.7749(7) 0.5747(5)
C8_4 C 0.0785(6) 0.8252(6) 0.6461(4)
H3_4 H 0.0924 0.8687 0.6359
C9_4 C 0.0991(6) 0.7681(6) 0.6188(5)
O1_4 O 0.1720(5) 0.8320(6) 0.5640(3)
O2_4 O 0.1649(6) 0.7206(5) 0.5516(4)
Cd2_6 Cd 0.2500 0.7500 0.5000
C13_4 C 0.4821(6) 0.8741(6) 0.6943(4)
C14_4 C 0.1259(6) 0.5179(6) 0.3057(4)
C15_4 C 0.3741(6) 0.9821(6) 0.3057(4)
C16_4 C 0.4622(6) 0.6821(6) 0.6882(4)
C17_4 C 0.3179(6) 0.5378(6) 0.3118(4)
C18_4 C 0.1821(6) 0.9622(6) 0.3118(4)
C19_4 C 0.4638(5) 0.8031(5) 0.6760(4)
C20_4 C 0.1969(5) 0.5362(5) 0.3240(4)
C21_4 C 0.3031(5) 0.9638(5) 0.3240(4)
C22_4 C 0.4230(6) 0.7965(6) 0.6339(5)
C23_4 C 0.2035(6) 0.5770(6) 0.3661(5)
C24_4 C 0.2965(6) 0.9230(6) 0.3661(5)
H10_4 H 0.4102 0.8352 0.6154
H11_4 H 0.1648 0.5898 0.3846
H12_4 H 0.3352 0.9102 0.3846
C25_4 C 0.4828(6) 0.6198(5) 0.7190(6)
C26_4 C 0.3802(5) 0.5172(6) 0.2810(6)
C27_4 C 0.1198(5) 0.9828(6) 0.2810(6)
C28_4 C 0.4835(6) 0.7468(6) 0.7032(4)
C29_4 C 0.2532(6) 0.5165(6) 0.2968(4)
C30_4 C 0.2468(6) 0.9835(6) 0.2968(4)
H13_4 H 0.5111 0.7519 0.7318
H14_4 H 0.2481 0.4889 0.2682
C31_4 C 0.3526(6) 0.7251(7) 0.5747(5)
C32_4 C 0.2749(7) 0.6474(6) 0.4253(5)
C33_4 C 0.2251(7) 0.8526(6) 0.4253(5)
C34_4 C 0.4215(6) 0.6748(6) 0.6461(4)
C35_4 C 0.3252(6) 0.5785(6) 0.3539(4)
C36_4 C 0.1748(6) 0.9215(6) 0.3539(4)
H16_4 H 0.4076 0.6313 0.6359
H17_4 H 0.3687 0.5924 0.3641
H18_4 H 0.1313 0.9076 0.3641
C37_4 C 0.4009(6) 0.7319(6) 0.6188(5)
C38_4 C 0.2681(6) 0.5991(6) 0.3812(5)
C39_4 C 0.2319(6) 0.9009(6) 0.3812(5)
O11_4 O 0.3280(5) 0.6680(6) 0.5640(3)
O12_4 O 0.3320(6) 0.6720(5) 0.4360(3)
O13_4 O 0.1680(6) 0.8280(5) 0.4360(3)
O14_4 O 0.3351(6) 0.7794(5) 0.5516(4)
O15_4 O 0.2206(5) 0.6649(6) 0.4484(4)
O16_4 O 0.2794(5) 0.8351(6) 0.4484(4)
H2_4 H 0.9889 0.7481 0.7318
loop_
_geom_bond_atom_site_label_1
_geom_bond_atom_site_label_2
_geom_bond_site_symmetry_1
_geom_bond_site_symmetry_2
Eu4 O34 1_555 1_555
Cd3 O22 1_555 1_555
C41 H20 1_555 1_555
H23 C41 1_555 1_555
H26 C41 1_555 1_555
C44 H29 1_555 1_555
H32 C44 1_555 1_555
H35 C44 1_555 1_555
O26 Cd3 1_555 1_555
O32 Cd3 1_555 1_555
N3 C41 1_555 1_555
O46 Cd3 1_555 1_555
C44 N3 1_555 1_555
C47 N3 1_555 1_555
C47 H45 1_555 1_555
Eu6 O35 1_555 1_555
Eu7 O19 1_555 1_555
Cd6 O23 1_555 1_555
Cd7 O28 1_555 1_555
C14 C20 1_555 1_555
C15 C21 1_555 1_555
C17 C26 1_555 1_555
C18 C27 1_555 1_555
C20 C23 1_555 1_555
C21 C24 1_555 1_555
C23 H11 1_555 1_555
C24 H12 1_555 1_555
C26 O18 1_555 1_555
C27 O19 1_555 1_555
C29 C17 1_555 1_555
C30 C18 1_555 1_555
H14 C29 1_555 1_555
C32 C38 1_555 1_555
C33 C39 1_555 1_555
C35 C17 1_555 1_555
C36 C18 1_555 1_555
H17 C35 1_555 1_555
H18 C36 1_555 1_555
C38 C23 1_555 1_555
C39 C24 1_555 1_555
O12 Cd2 1_555 1_555
O13 Cd2 1_555 1_555
O15 Cd2 1_555 1_555
O16 Cd2 1_555 1_555
O23 C26 1_555 1_555
O28 C14 1_555 1_555
O29 C15 1_555 1_555
O35 C14 1_555 1_555
C20 C29 1_555 1_555
C21 C30 1_555 1_555
C32 O12 1_555 1_555
C32 O15 1_555 1_555
C33 O13 1_555 1_555
C33 O16 1_555 1_555
C35 C38 1_555 1_555
C36 C39 1_555 1_555
Cd1 O4 1_555 1_555
C1 C3 1_555 1_555
C2 C5 1_555 1_555
C3 C4 1_555 1_555
C4 H1 1_555 1_555
C5 O3 1_555 1_555
C6 C2 1_555 1_555
H2 C6 1_555 1_555
C7 C9 1_555 1_555
C8 C2 1_555 1_555
H3 C8 1_555 1_555
C9 C4 1_555 1_555
O1 C7 1_555 1_555
O2 C7 1_555 1_555
O4 C5 1_555 1_555
O5 C1 1_555 1_555
O6 C1 1_555 1_555
Cd2_2 O1 1_555 1_555
O10 Cd1 1_555 1_555
Eu2 O17 1_555 1_555
Eu3 O6 1_555 1_555
Cd4 O5 1_555 1_555
C13 C19 1_555 1_555
C16 C25 1_555 1_555
C19 C22 1_555 1_555
C22 H10 1_555 1_555
C25 O17 1_555 1_555
C28 C16 1_555 1_555
C31 C37 1_555 1_555
C34 C16 1_555 1_555
H16 C34 1_555 1_555
C37 C22 1_555 1_555
C40 H19 1_555 1_555
C42 H21 1_555 1_555
H22 C40 1_555 1_555
H24 C42 1_555 1_555
H25 C40 1_555 1_555
H27 C42 1_555 1_555
C43 H28 1_555 1_555
C45 H30 1_555 1_555
H31 C43 1_555 1_555
H33 C45 1_555 1_555
H34 C43 1_555 1_555
H36 C45 1_555 1_555
C48 O43 1_555 1_555
O11 Cd2_2 1_555 1_555
O14 Cd2_2 1_555 1_555
O25 Cd1 1_555 1_555
O27 C13 1_555 1_555
O31 Cd1 1_555 1_555
O39 Eu2 1_555 1_555
O40 Eu2 1_555 1_555
O42 Eu2 1_555 1_555
O43 Eu2 1_555 1_555
O44 Eu2 1_555 1_555
O45 Eu2 1_555 1_555
N2 C40 1_555 1_555
N4 C42 1_555 1_555
C3 C6 1_555 1_555
C8 C9 1_555 1_555
O2 Cd2_2 1_555 1_555
C19 C28 1_555 1_555
C31 O11 1_555 1_555
C31 O14 1_555 1_555
C34 C37 1_555 1_555
C43 N2 1_555 1_555
C45 N4 1_555 1_555
C46 N2 1_555 1_555
C48 N4 1_555 1_555
C48 H44 1_555 1_555
C46 H46 1_555 1_555
Eu8 O36 1_555 1_555
Cd8 O24 1_555 1_555
C10 H4 1_555 1_555
H5 C10 1_555 1_555
H6 C10 1_555 1_555
C11 H7 1_555 1_555
H8 C11 1_555 1_555
H9 C11 1_555 1_555
C12 O7 1_555 1_555
O7 Eu1 1_555 1_555
O8 Eu1 1_555 1_555
O9 Eu1 1_555 1_555
N1 C10 1_555 1_555
O20 Eu1 1_555 1_555
O37 Eu1 1_555 1_555
O38 Eu1 1_555 1_555
O41 Eu1 1_555 1_555
C11 N1 1_555 1_555
C12 N1 1_555 1_555
C12 H41 1_555 1_555
Cd9 O4_2 1_555 1_555
O10_2 Cd9 1_555 1_555
Eu7 O6_2 1_555 1_555
O25_2 Cd9 1_555 1_555
C10_2 H4_2 1_555 1_555
H5_2 C10_2 1_555 1_555
H6_2 C10_2 1_555 1_555
C11_2 H7_2 1_555 1_555
H8_2 C11_2 1_555 1_555
H9_2 C11_2 1_555 1_555
N1_2 C10_2 1_555 1_555
C11_2 N1_2 1_555 1_555
C12_2 N1_2 1_555 1_555
C12_2 H41_2 1_555 1_555
C1_2 C3_2 1_555 1_555
C2_2 C5_2 1_555 1_555
C3_2 C4_2 1_555 1_555
C4_2 H1_2 1_555 1_555
C5_2 O3_2 1_555 1_555
C6_2 C2_2 1_555 1_555
C7_2 C9_2 1_555 1_555
C8_2 C2_2 1_555 1_555
H3_2 C8_2 1_555 1_555
C9_2 C4_2 1_555 1_555
O1_2 C7_2 1_555 1_555
O2_2 C7_2 1_555 1_555
O5_2 C1_2 1_555 1_555
Cd2_3 O1_2 1_555 1_555
Eu6 O17_2 1_555 1_555
Eu5 O34_2 1_555 1_555
Eu3 O18_2 1_555 1_555
Cd7 O22_2 1_555 1_555
Cd8 O5_2 1_555 1_555
Cd4 O23_2 1_555 1_555
C13_2 C19_2 1_555 1_555
C14_2 C20_2 1_555 1_555
C15_2 C21_2 1_555 1_555
C16_2 C25_2 1_555 1_555
C17_2 C26_2 1_555 1_555
C18_2 C27_2 1_555 1_555
C19_2 C22_2 1_555 1_555
C20_2 C23_2 1_555 1_555
C21_2 C24_2 1_555 1_555
C22_2 H10_2 1_555 1_555
C23_2 H11_2 1_555 1_555
C24_2 H12_2 1_555 1_555
C25_2 O17_2 1_555 1_555
C26_2 O18_2 1_555 1_555
C27_2 O19_2 1_555 1_555
C28_2 C16_2 1_555 1_555
C29_2 C17_2 1_555 1_555
C30_2 C18_2 1_555 1_555
H13_2 C28_2 1_555 1_555
H14_2 C29_2 1_555 1_555
C31_2 C37_2 1_555 1_555
C32_2 C38_2 1_555 1_555
C33_2 C39_2 1_555 1_555
C34_2 C16_2 1_555 1_555
C35_2 C17_2 1_555 1_555
C36_2 C18_2 1_555 1_555
H16_2 C34_2 1_555 1_555
H17_2 C35_2 1_555 1_555
H18_2 C36_2 1_555 1_555
C37_2 C22_2 1_555 1_555
C38_2 C23_2 1_555 1_555
C39_2 C24_2 1_555 1_555
C40_2 H19_2 1_555 1_555
C41_2 H20_2 1_555 1_555
C42_2 H21_2 1_555 1_555
H22_2 C40_2 1_555 1_555
H23_2 C41_2 1_555 1_555
H24_2 C42_2 1_555 1_555
H25_2 C40_2 1_555 1_555
H26_2 C41_2 1_555 1_555
H27_2 C42_2 1_555 1_555
C43_2 H28_2 1_555 1_555
C44_2 H29_2 1_555 1_555
C45_2 H30_2 1_555 1_555
H31_2 C43_2 1_555 1_555
H32_2 C44_2 1_555 1_555
H33_2 C45_2 1_555 1_555
H34_2 C43_2 1_555 1_555
H35_2 C44_2 1_555 1_555
H36_2 C45_2 1_555 1_555
C47_2 O42_2 1_555 1_555
C48_2 O43_2 1_555 1_555
O11_2 Cd2_3 1_555 1_555
O12_2 Cd2_3 1_555 1_555
O13_2 Cd2_3 1_555 1_555
O14_2 Cd2_3 1_555 1_555
O15_2 Cd2_3 1_555 1_555
O16_2 Cd2_3 1_555 1_555
O21_2 Eu6 1_555 1_555
O22_2 C25_2 1_555 1_555
O23_2 C26_2 1_555 1_555
O26_2 Cd7 1_555 1_555
O27_2 C13_2 1_555 1_555
O30 C14_2 1_555 1_555
O32 C15_2 1_555 1_555
O33_2 Cd7 1_555 1_555
O34_2 C13_2 1_555 1_555
O37 C14_2 1_555 1_555
O40_2 Eu6 1_555 1_555
O42_2 Eu6 1_555 1_555
O43_2 Eu6 1_555 1_555
O44_2 Eu6 1_555 1_555
O45_2 Eu6 1_555 1_555
N2_2 C40_2 1_555 1_555
N3_2 C41_2 1_555 1_555
N4_2 C42_2 1_555 1_555
O46_2 Cd7 1_555 1_555
C3_2 C6_2 1_555 1_555
C8_2 C9_2 1_555 1_555
O2_2 Cd2_3 1_555 1_555
C19_2 C28_2 1_555 1_555
C20_2 C29_2 1_555 1_555
C21_2 C30_2 1_555 1_555
C31_2 O11_2 1_555 1_555
C31_2 O14_2 1_555 1_555
C32_2 O12_2 1_555 1_555
C32_2 O15_2 1_555 1_555
C33_2 O13_2 1_555 1_555
C33_2 O16_2 1_555 1_555
C34_2 C37_2 1_555 1_555
C35_2 C38_2 1_555 1_555
C36_2 C39_2 1_555 1_555
C43_2 N2_2 1_555 1_555
C44_2 N3_2 1_555 1_555
C45_2 N4_2 1_555 1_555
C46_2 N2_2 1_555 1_555
C47_2 N3_2 1_555 1_555
C48_2 N4_2 1_555 1_555
C48_2 H44_2 1_555 1_555
C47_2 H45_2 1_555 1_555
C46_2 H46_2 1_555 1_555
O7_2 Eu8 1_555 1_555
O8_2 Eu8 1_555 1_555
O9_2 Eu8 1_555 1_555
Cd5 O24_2 1_555 1_555
O38_2 Eu8 1_555 1_555
O41_2 Eu8 1_555 1_555
O7_3 Eu4 1_555 1_555
O8_3 Eu4 1_555 1_555
O9_3 Eu4 1_555 1_555
O38_3 Eu4 1_555 1_555
O41_3 Eu4 1_555 1_555
C10_3 H4_3 1_555 1_555
H5_3 C10_3 1_555 1_555
H6_3 C10_3 1_555 1_555
C11_3 H7_3 1_555 1_555
H8_3 C11_3 1_555 1_555
H9_3 C11_3 1_555 1_555
N1_3 C10_3 1_555 1_555
C11_3 N1_3 1_555 1_555
C12_3 N1_3 1_555 1_555
C12_3 H41_3 1_555 1_555
C40_3 H19_3 1_555 1_555
C41_3 H20_3 1_555 1_555
C42_3 H21_3 1_555 1_555
H22_3 C40_3 1_555 1_555
H23_3 C41_3 1_555 1_555
H24_3 C42_3 1_555 1_555
H25_3 C40_3 1_555 1_555
H26_3 C41_3 1_555 1_555
H27_3 C42_3 1_555 1_555
C43_3 H28_3 1_555 1_555
C44_3 H29_3 1_555 1_555
C45_3 H30_3 1_555 1_555
H31_3 C43_3 1_555 1_555
H32_3 C44_3 1_555 1_555
H33_3 C45_3 1_555 1_555
H34_3 C43_3 1_555 1_555
H35_3 C44_3 1_555 1_555
H36_3 C45_3 1_555 1_555
C47_3 O42_3 1_555 1_555
C48_3 O43_3 1_555 1_555
O21_3 Eu3 1_555 1_555
O26_3 Cd4 1_555 1_555
O33_3 Cd4 1_555 1_555
O40_3 Eu3 1_555 1_555
O42_3 Eu3 1_555 1_555
O43_3 Eu3 1_555 1_555
O44_3 Eu3 1_555 1_555
O45_3 Eu3 1_555 1_555
N2_3 C40_3 1_555 1_555
N3_3 C41_3 1_555 1_555
N4_3 C42_3 1_555 1_555
O46_3 Cd4 1_555 1_555
C43_3 N2_3 1_555 1_555
C44_3 N3_3 1_555 1_555
C45_3 N4_3 1_555 1_555
C46_3 N2_3 1_555 1_555
C47_3 N3_3 1_555 1_555
C48_3 N4_3 1_555 1_555
C48_3 H44_3 1_555 1_555
C47_3 H45_3 1_555 1_555
C46_3 H46_3 1_555 1_555
O10_3 Cd5 1_555 1_555
O25_3 Cd5 1_555 1_555
C41_4 H20_4 1_555 1_555
H23_4 C41_4 1_555 1_555
H26_4 C41_4 1_555 1_555
C44_4 H29_4 1_555 1_555
H32_4 C44_4 1_555 1_555
H35_4 C44_4 1_555 1_555
C47_4 O42_4 1_555 1_555
O21_4 Eu5 1_555 1_555
O40_4 Eu5 1_555 1_555
O42_4 Eu5 1_555 1_555
O43_4 Eu5 1_555 1_555
O44_4 Eu5 1_555 1_555
O45_4 Eu5 1_555 1_555
N3_4 C41_4 1_555 1_555
C44_4 N3_4 1_555 1_555
C47_4 N3_4 1_555 1_555
C47_4 H45_4 1_555 1_555
O7_4 Eu7 1_555 1_555
O8_4 Eu7 1_555 1_555
O9_4 Eu7 1_555 1_555
C40_4 H19_4 1_555 1_555
C42_4 H21_4 1_555 1_555
H22_4 C40_4 1_555 1_555
H24_4 C42_4 1_555 1_555
H25_4 C40_4 1_555 1_555
H27_4 C42_4 1_555 1_555
C43_4 H28_4 1_555 1_555
C45_4 H30_4 1_555 1_555
H31_4 C43_4 1_555 1_555
H33_4 C45_4 1_555 1_555
H34_4 C43_4 1_555 1_555
H36_4 C45_4 1_555 1_555
C46_4 O41_4 1_555 1_555
O26_4 Cd6 1_555 1_555
O33_4 Cd6 1_555 1_555
O38_4 Eu7 1_555 1_555
O41_4 Eu7 1_555 1_555
N2_4 C40_4 1_555 1_555
N4_4 C42_4 1_555 1_555
O46_4 Cd6 1_555 1_555
C43_4 N2_4 1_555 1_555
C45_4 N4_4 1_555 1_555
C46_4 N2_4 1_555 1_555
C48_4 N4_4 1_555 1_555
C48_4 H44_4 1_555 1_555
C46_4 H46_4 1_555 1_555
C10_4 H4_4 1_555 1_555
H5_4 C10_4 1_555 1_555
H6_4 C10_4 1_555 1_555
C11_4 H7_4 1_555 1_555
H8_4 C11_4 1_555 1_555
H9_4 C11_4 1_555 1_555
N1_4 C10_4 1_555 1_555
O10_4 Cd8 1_555 1_555
O25_4 Cd8 1_555 1_555
C11_4 N1_4 1_555 1_555
C12_4 N1_4 1_555 1_555
C12_4 H41_4 1_555 1_555
C1_3 C3_3 1_555 1_555
C2_3 C5_3 1_555 1_555
C3_3 C4_3 1_555 1_555
C4_3 H1_3 1_555 1_555
C5_3 O20_4 1_555 1_555
C6_3 C2_3 1_555 1_555
H2_3 C6_3 1_555 1_555
C7_3 C9_3 1_555 1_555
C8_3 C2_3 1_555 1_555
H3_3 C8_3 1_555 1_555
C9_3 C4_3 1_555 1_555
O1_3 C7_3 1_555 1_555
O2_3 C7_3 1_555 1_555
O25_4 C5_3 1_555 1_555
O33_2 C1_3 1_555 1_555
O40_2 C1_3 1_555 1_555
Cd2_4 O1_3 1_555 1_555
C13_3 C19_3 1_555 1_555
C16_3 C25_3 1_555 1_555
C19_3 C22_3 1_555 1_555
C22_3 H10_3 1_555 1_555
C25_3 O21_4 1_555 1_555
C28_3 C16_3 1_555 1_555
C31_3 C37_3 1_555 1_555
C34_3 C16_3 1_555 1_555
H16_3 C34_3 1_555 1_555
C37_3 C22_3 1_555 1_555
O11_3 Cd2_4 1_555 1_555
O14_3 Cd2_4 1_555 1_555
O31_2 C13_3 1_555 1_555
C3_3 C6_3 1_555 1_555
C8_3 C9_3 1_555 1_555
O2_3 Cd2_4 1_555 1_555
C19_3 C28_3 1_555 1_555
C31_3 O11_3 1_555 1_555
C31_3 O14_3 1_555 1_555
C34_3 C37_3 1_555 1_555
C14_3 C20_3 1_555 1_555
C15_3 C21_3 1_555 1_555
C17_3 C26_3 1_555 1_555
C18_3 C27_3 1_555 1_555
C20_3 C23_3 1_555 1_555
C21_3 C24_3 1_555 1_555
C23_3 H11_3 1_555 1_555
C24_3 H12_3 1_555 1_555
C26_3 O21 1_555 1_555
C27_3 O20 1_555 1_555
C29_3 C17_3 1_555 1_555
C30_3 C18_3 1_555 1_555
H14_3 C29_3 1_555 1_555
C32_3 C38_3 1_555 1_555
C33_3 C39_3 1_555 1_555
C35_3 C17_3 1_555 1_555
C36_3 C18_3 1_555 1_555
H17_3 C35_3 1_555 1_555
H18_3 C36_3 1_555 1_555
C38_3 C23_3 1_555 1_555
C39_3 C24_3 1_555 1_555
O12_3 Cd2_5 1_555 1_555
O13_3 Cd2_5 1_555 1_555
O15_3 Cd2_5 1_555 1_555
O16_3 Cd2_5 1_555 1_555
O26 C26_3 1_555 1_555
O33_3 C14_3 1_555 1_555
O31_3 C15_3 1_555 1_555
O40_3 C14_3 1_555 1_555
C20_3 C29_3 1_555 1_555
C21_3 C30_3 1_555 1_555
C32_3 O12_3 1_555 1_555
C32_3 O15_3 1_555 1_555
C33_3 O13_3 1_555 1_555
C33_3 O16_3 1_555 1_555
C35_3 C38_3 1_555 1_555
C36_3 C39_3 1_555 1_555
C1_4 C3_4 1_555 1_555
C2_4 C5_4 1_555 1_555
C3_4 C4_4 1_555 1_555
C4_4 H1_4 1_555 1_555
C5_4 O20_3 1_555 1_555
C6_4 C2_4 1_555 1_555
C7_4 C9_4 1_555 1_555
C8_4 C2_4 1_555 1_555
H3_4 C8_4 1_555 1_555
C9_4 C4_4 1_555 1_555
O1_4 C7_4 1_555 1_555
O2_4 C7_4 1_555 1_555
O31 C1_4 1_555 1_555
Cd2_6 O1_4 1_555 1_555
C13_4 C19_4 1_555 1_555
C14_4 C20_4 1_555 1_555
C15_4 C21_4 1_555 1_555
C16_4 C25_4 1_555 1_555
C17_4 C26_4 1_555 1_555
C18_4 C27_4 1_555 1_555
C19_4 C22_4 1_555 1_555
C20_4 C23_4 1_555 1_555
C21_4 C24_4 1_555 1_555
C22_4 H10_4 1_555 1_555
C23_4 H11_4 1_555 1_555
C24_4 H12_4 1_555 1_555
C25_4 O21_3 1_555 1_555
C26_4 O21_2 1_555 1_555
C27_4 O20_2 1_555 1_555
C28_4 C16_4 1_555 1_555
C29_4 C17_4 1_555 1_555
C30_4 C18_4 1_555 1_555
H13_4 C28_4 1_555 1_555
H14_4 C29_4 1_555 1_555
C31_4 C37_4 1_555 1_555
C32_4 C38_4 1_555 1_555
C33_4 C39_4 1_555 1_555
C34_4 C16_4 1_555 1_555
C35_4 C17_4 1_555 1_555
C36_4 C18_4 1_555 1_555
H16_4 C34_4 1_555 1_555
H17_4 C35_4 1_555 1_555
H18_4 C36_4 1_555 1_555
C37_4 C22_4 1_555 1_555
C38_4 C23_4 1_555 1_555
C39_4 C24_4 1_555 1_555
O11_4 Cd2_6 1_555 1_555
O12_4 Cd2_6 1_555 1_555
O13_4 Cd2_6 1_555 1_555
O14_4 Cd2_6 1_555 1_555
O15_4 Cd2_6 1_555 1_555
O16_4 Cd2_6 1_555 1_555
O26_3 C25_4 1_555 1_555
O26_2 C26_4 1_555 1_555
O33 C13_4 1_555 1_555
O31_4 C14_4 1_555 1_555
O33_4 C15_4 1_555 1_555
O40 C13_4 1_555 1_555
O38_4 C14_4 1_555 1_555
C3_4 C6_4 1_555 1_555
C8_4 C9_4 1_555 1_555
O2_4 Cd2_6 1_555 1_555
C19_4 C28_4 1_555 1_555
C20_4 C29_4 1_555 1_555
C21_4 C30_4 1_555 1_555
C31_4 O11_4 1_555 1_555
C31_4 O14_4 1_555 1_555
C32_4 O12_4 1_555 1_555
C32_4 O15_4 1_555 1_555
C33_4 O13_4 1_555 1_555
C33_4 O16_4 1_555 1_555
C34_4 C37_4 1_555 1_555
C35_4 C38_4 1_555 1_555
C36_4 C39_4 1_555 1_555

#END
