
###############################################################################
#
# This file contains modified crystal structure data generated from the
# MOF subset of the Cambridge Structural Database (CSD) v543 
# hosted by the Cambridge Crystallographic Data Centre (CCDC).
#
# This work is licensed under the Creative Commons
# Attribution-NonCommercial-ShareAlike 4.0 International License.
# To view a copy of this license, visit
# http://creativecommons.org/licenses/by-nc-sa/4.0/
# or send a letter to
# Creative Commons, PO Box 1866, Mountain View, CA 94042, USA.
#
# CIF created using the CSD Python API on 29 September 2022
# The structure has been converted into the P1 space group
# The structure has a 3D framework
# The original CSD entry TAZLIR is in the tetragonal crystal system
# The framework has been calculated to contain at least 10.0% void space
# The void calculation uses a probe of radius 1.32A, grid spacing 0.4
# H atom positions have been added when not included in the experimental data
# Generated hydrogen atom positions removed from atoms on special positions
#
###############################################################################

data_TAZLIR
_chemical_formula_moiety         '(C192 H256 Cd14 N16 O122 Sm8)n'
_symmetry_cell_setting           triclinic
_symmetry_space_group_name_H-M   'P 1'
_symmetry_Int_Tables_number      1
_space_group_name_Hall           'P 1'
loop_
_symmetry_equiv_pos_site_id
_symmetry_equiv_pos_as_xyz
1 x,y,z
_cell_length_a                   19.4876(2)
_cell_length_b                   19.4876(2)
_cell_length_c                   26.3770(4)
_cell_angle_alpha                90
_cell_angle_beta                 90
_cell_angle_gamma                90
_cell_volume                     10017.1
loop_
_atom_site_label
_atom_site_type_symbol
_atom_site_fract_x
_atom_site_fract_y
_atom_site_fract_z
Cd1 Cd 0.47010(4) 0.02990(4) 0.30393(4)
O9 O 0.4208(13) 0.0792(13) 0.3728(12)
Cd7 Cd 0.02990(4) 0.02990(4) 0.80393(4)
Sm4 Sm 0.05899(3) 0.05899(3) 0.30287(3)
Sm5 Sm 0.44101(3) 0.05899(3) 0.80287(3)
H11 H 0.2488 0.0127 0.7308
C37 C 0.6914(11) 0.0441(16) 0.1756(12)
C40 C 0.7715(17) 0.0433(14) 0.1180(11)
H19 H 0.7452 0.0022 0.1128
H22 H 0.7666 0.0728 0.0891
H25 H 0.8190 0.0317 0.1224
C43 C 0.7657(18) 0.147(2) 0.1924(18)
H28 H 0.7353 0.1520 0.2209
H31 H 0.8123 0.1454 0.2042
H34 H 0.7603 0.1863 0.1703
O12 O 0.3767(4) 0.0209(4) 0.7325(3)
O19 O 0.5397(5) 0.0623(4) 0.2060(4)
O32 O 0.5787(4) 0.0377(5) 0.3302(3)
O38 O 0.1264(5) 0.0132(5) 0.7598(3)
O40 O 0.4868(5) 0.1264(5) 0.2598(3)
O41 O 0.3736(5) 0.0132(5) 0.2598(3)
N2 N 0.7475(9) 0.0775(11) 0.1616(9)
H44 H 0.664955 0.0686347 0.207131
Cd2 Cd 0.2500 0.7500 0.5000
Sm1 Sm 0.55899(3) 0.94101(3) 0.19713(3)
C1 C 0.4836(6) 0.8714(5) 0.3064(4)
C2 C 0.4620(5) 0.6797(6) 0.3119(4)
C3 C 0.3524(6) 0.7250(6) 0.4255(4)
C4 C 0.4653(5) 0.8009(5) 0.3246(4)
C5 C 0.4012(5) 0.7304(5) 0.3816(4)
C6 C 0.4845(5) 0.7441(5) 0.2974(4)
H1 H 0.5127 0.7488 0.2692
C7 C 0.4232(5) 0.7942(5) 0.3668(4)
H2 H 0.4100 0.8329 0.3849
C8 C 0.4199(5) 0.6727(5) 0.3544(4)
H3 H 0.4045 0.6296 0.3643
C9 C 0.4559(16) 0.8086(11) 0.1756(12)
C10 C 0.4567(14) 0.7285(17) 0.1180(11)
H4 H 0.4978 0.7548 0.1128
H5 H 0.4272 0.7334 0.0891
H6 H 0.4683 0.6810 0.1224
C11 C 0.353(2) 0.7343(18) 0.1924(18)
H7 H 0.3480 0.7647 0.2209
H8 H 0.3546 0.6877 0.2042
H9 H 0.3137 0.7397 0.1703
C12 C 0.4805(6) 0.6182(6) 0.2803(5)
O1 O 0.5209(4) 0.8767(4) 0.2675(3)
O2 O 0.4603(5) 0.5623(4) 0.2940(4)
O3 O 0.3365(5) 0.7786(5) 0.4489(3)
O4 O 0.3272(5) 0.6677(5) 0.4361(3)
O5 O 0.4623(5) 0.9213(4) 0.3302(3)
O6 O 0.5069(6) 0.8367(5) 0.1614(4)
O7 O 0.5132(5) 0.6264(5) 0.2402(3)
O8 O 0.6465(5) 0.8535(5) 0.2010(6)
O10 O 0.5389(6) 0.9611(6) 0.1084(6)
N1 N 0.4225(11) 0.7525(9) 0.1616(9)
Cd3 Cd 0.02990(4) 0.47010(4) 0.30393(4)
Cd4 Cd 0.52990(4) 0.52990(4) 0.19607(4)
Cd6 Cd 0.52990(4) 0.97010(4) 0.69607(4)
Cd9 Cd 0.47010(4) 0.47010(4) 0.80393(4)
Sm3 Sm 0.44101(3) 0.44101(3) 0.30287(3)
Sm7 Sm 0.05899(3) 0.44101(3) 0.80287(3)
Sm8 Sm 0.55899(3) 0.55899(3) 0.69713(3)
C13 C 0.0164(6) 0.6286(5) 0.3064(4)
C14 C 0.3714(5) 0.9836(6) 0.6936(4)
C15 C 0.1286(5) 0.5164(6) 0.6936(4)
C16 C 0.0380(5) 0.8203(6) 0.3119(4)
C17 C 0.1797(6) 0.9620(5) 0.6881(4)
C18 C 0.3203(6) 0.5380(5) 0.6881(4)
C19 C 0.1476(6) 0.7750(6) 0.4255(4)
C20 C 0.2250(6) 0.8524(6) 0.5745(4)
C21 C 0.2750(6) 0.6476(6) 0.5745(4)
C22 C 0.0347(5) 0.6991(5) 0.3246(4)
C23 C 0.3009(5) 0.9653(5) 0.6754(4)
C24 C 0.1991(5) 0.5347(5) 0.6754(4)
C25 C 0.0988(5) 0.7696(5) 0.3816(4)
C26 C 0.2304(5) 0.9012(5) 0.6184(4)
C27 C 0.2696(5) 0.5988(5) 0.6184(4)
C28 C 0.0155(5) 0.7559(5) 0.2974(4)
C29 C 0.2441(5) 0.9845(5) 0.7026(4)
C30 C 0.2559(5) 0.5155(5) 0.7026(4)
H12 H 0.2512 0.4873 0.7308
C31 C 0.0768(5) 0.7058(5) 0.3668(4)
C32 C 0.2942(5) 0.9232(5) 0.6332(4)
C33 C 0.2058(5) 0.5768(5) 0.6332(4)
H13 H 0.0900 0.6671 0.3849
H14 H 0.3329 0.9100 0.6151
H15 H 0.1671 0.5900 0.6151
C34 C 0.0801(5) 0.8273(5) 0.3544(4)
C35 C 0.1727(5) 0.9199(5) 0.6456(4)
C36 C 0.3273(5) 0.5801(5) 0.6456(4)
H16 H 0.0955 0.8704 0.3643
H17 H 0.1296 0.9045 0.6357
H18 H 0.3704 0.5955 0.6357
C38 C 0.0441(16) 0.6914(11) 0.1756(12)
C41 C 0.0433(14) 0.7715(17) 0.1180(11)
H20 H 0.0022 0.7452 0.1128
H23 H 0.0728 0.7666 0.0891
H26 H 0.0317 0.8190 0.1224
C44 C 0.147(2) 0.7657(18) 0.1924(18)
H29 H 0.1520 0.7353 0.2209
H32 H 0.1454 0.8123 0.2042
H35 H 0.1863 0.7603 0.1703
C46 C 0.0195(6) 0.8818(6) 0.2803(5)
C47 C 0.1182(6) 0.9805(6) 0.7197(5)
C48 C 0.3818(6) 0.5195(6) 0.7197(5)
O13 O 0.1233(4) 0.4791(4) 0.7325(3)
O14 O 0.6233(4) 0.9791(4) 0.2675(3)
O16 O 0.0397(5) 0.9377(4) 0.2940(4)
O17 O 0.0623(4) 0.9603(5) 0.7060(4)
O18 O 0.4377(4) 0.5397(5) 0.7060(4)
O20 O 0.4377(4) 0.9603(5) 0.2060(4)
O22 O 0.0623(4) 0.5397(5) 0.2060(4)
O23 O 0.1635(5) 0.7214(5) 0.4489(3)
O24 O 0.2786(5) 0.8365(5) 0.5511(3)
O25 O 0.2214(5) 0.6635(5) 0.5511(3)
O26 O 0.1728(5) 0.8323(5) 0.4361(3)
O27 O 0.1677(5) 0.8272(5) 0.5639(3)
O28 O 0.3323(5) 0.6728(5) 0.5639(3)
O29 O 0.0377(5) 0.5787(4) 0.3302(3)
O30 O 0.4213(4) 0.9623(5) 0.6698(3)
O31 O 0.0787(4) 0.5377(5) 0.6698(3)
O34 O 0.6633(5) 0.9931(6) 0.1614(4)
O39 O 0.3736(5) 0.4868(5) 0.7598(3)
O42 O 0.0132(5) 0.3736(5) 0.2598(3)
O43 O 0.1264(5) 0.4868(5) 0.2598(3)
O45 O 0.0792(13) 0.4208(13) 0.3728(12)
N3 N 0.0775(11) 0.7475(9) 0.1616(9)
H37 H 0.431365 0.835045 0.207131
H46 H 0.0686347 0.664955 0.207131
H51 H 0.00872291 0.522046 0.103473
Cd5 Cd 0.97010(4) 0.97010(4) 0.19607(4)
Cd8 Cd 0.97010(4) 0.52990(4) 0.69607(4)
Sm2 Sm 0.94101(3) 0.55899(3) 0.19713(3)
Sm6 Sm 0.94101(3) 0.94101(3) 0.69713(3)
H10 H 0.9873 0.7512 0.2692
C39 C 0.8086(11) 0.4559(16) 0.1756(12)
C42 C 0.7285(17) 0.4567(14) 0.1180(11)
H21 H 0.7548 0.4978 0.1128
H24 H 0.7334 0.4272 0.0891
H27 H 0.6810 0.4683 0.1224
C45 C 0.7343(18) 0.353(2) 0.1924(18)
H30 H 0.7647 0.3480 0.2209
H33 H 0.6877 0.3546 0.2042
H36 H 0.7397 0.3137 0.1703
O11 O 0.9791(4) 0.6233(4) 0.2675(3)
O15 O 0.8767(4) 0.5209(4) 0.2675(3)
O21 O 0.9603(5) 0.4377(4) 0.2060(4)
O33 O 0.9213(4) 0.4623(5) 0.3302(3)
O35 O 0.9931(6) 0.6633(5) 0.1614(4)
O36 O 0.8367(5) 0.5069(6) 0.1614(4)
O37 O 0.9868(5) 0.8736(5) 0.2402(3)
O44 O 0.8535(5) 0.6465(5) 0.2010(6)
O46 O 0.9611(6) 0.5389(6) 0.1084(6)
N4 N 0.7525(9) 0.4225(11) 0.1616(9)
H45 H 0.835045 0.431365 0.207131
H12_2 H 0.0127 0.2512 0.2308
O13_2 O 0.0209(4) 0.1233(4) 0.2325(3)
O43_2 O 0.0132(5) 0.1264(5) 0.7598(3)
O45_2 O 0.0792(13) 0.0792(13) 0.8728(12)
C39_2 C 0.0441(16) 0.8086(11) 0.6756(12)
C42_2 C 0.0433(14) 0.7285(17) 0.6180(11)
H21_2 H 0.0022 0.7548 0.6128
H24_2 H 0.0728 0.7334 0.5891
H27_2 H 0.0317 0.6810 0.6224
C45_2 C 0.147(2) 0.7343(18) 0.6924(18)
H30_2 H 0.1520 0.7647 0.7209
H33_2 H 0.1454 0.6877 0.7042
H36_2 H 0.1863 0.7397 0.6703
O33_2 O 0.0377(5) 0.9213(4) 0.8302(3)
N4_2 N 0.0775(11) 0.7525(9) 0.6616(9)
H45_2 H 0.0686347 0.835045 0.707131
Cd2_2 Cd 0.7500 0.2500 -0.0000
C14_2 C 0.5164(6) 0.3714(5) 0.1936(4)
C15_2 C 0.9836(6) 0.1286(5) 0.1936(4)
C17_2 C 0.5380(5) 0.1797(6) 0.1881(4)
C18_2 C 0.9620(5) 0.3203(6) 0.1881(4)
C20_2 C 0.6476(6) 0.2250(6) 0.0745(4)
C21_2 C 0.8524(6) 0.2750(6) 0.0745(4)
C23_2 C 0.5347(5) 0.3009(5) 0.1754(4)
C24_2 C 0.9653(5) 0.1991(5) 0.1754(4)
C26_2 C 0.5988(5) 0.2304(5) 0.1184(4)
C27_2 C 0.9012(5) 0.2696(5) 0.1184(4)
C29_2 C 0.5155(5) 0.2441(5) 0.2026(4)
C30_2 C 0.9845(5) 0.2559(5) 0.2026(4)
H11_2 H 0.4873 0.2488 0.2308
C32_2 C 0.5768(5) 0.2942(5) 0.1332(4)
C33_2 C 0.9232(5) 0.2058(5) 0.1332(4)
H14_2 H 0.5900 0.3329 0.1151
H15_2 H 0.9100 0.1671 0.1151
C35_2 C 0.5801(5) 0.1727(5) 0.1456(4)
C36_2 C 0.9199(5) 0.3273(5) 0.1456(4)
H17_2 H 0.5955 0.1296 0.1357
H18_2 H 0.9045 0.3704 0.1357
C47_2 C 0.5195(6) 0.1182(6) 0.2197(5)
C48_2 C 0.9805(6) 0.3818(6) 0.2197(5)
O12_2 O 0.4791(4) 0.3767(4) 0.2325(3)
O24_2 O 0.6635(5) 0.2786(5) 0.0511(3)
O25_2 O 0.8365(5) 0.2214(5) 0.0511(3)
O27_2 O 0.6728(5) 0.1677(5) 0.0639(3)
O28_2 O 0.8272(5) 0.3323(5) 0.0639(3)
O30_2 O 0.5377(5) 0.4213(4) 0.1698(3)
O31_2 O 0.9623(5) 0.0787(4) 0.1698(3)
Cd2_3 Cd 0.7500 0.2500 1.0000
C1_2 C 0.6286(5) 0.4836(6) 0.8064(4)
C2_2 C 0.8203(6) 0.4620(5) 0.8119(4)
C3_2 C 0.7750(6) 0.3524(6) 0.9255(4)
C4_2 C 0.6991(5) 0.4653(5) 0.8246(4)
C5_2 C 0.7696(5) 0.4012(5) 0.8816(4)
C6_2 C 0.7559(5) 0.4845(5) 0.7974(4)
H1_2 H 0.7512 0.5127 0.7692
C7_2 C 0.7058(5) 0.4232(5) 0.8668(4)
H2_2 H 0.6671 0.4100 0.8849
C8_2 C 0.8273(5) 0.4199(5) 0.8544(4)
H3_2 H 0.8704 0.4045 0.8643
C9_2 C 0.6914(11) 0.4559(16) 0.6756(12)
C10_2 C 0.7715(17) 0.4567(14) 0.6180(11)
H4_2 H 0.7452 0.4978 0.6128
H5_2 H 0.7666 0.4272 0.5891
H6_2 H 0.8190 0.4683 0.6224
C11_2 C 0.7657(18) 0.353(2) 0.6924(18)
H7_2 H 0.7353 0.3480 0.7209
H8_2 H 0.8123 0.3546 0.7042
H9_2 H 0.7603 0.3137 0.6703
C12_2 C 0.8818(6) 0.4805(6) 0.7803(5)
O1_2 O 0.6233(4) 0.5209(4) 0.7675(3)
O2_2 O 0.9377(4) 0.4603(5) 0.7940(4)
O3_2 O 0.7214(5) 0.3365(5) 0.9489(3)
O4_2 O 0.8323(5) 0.3272(5) 0.9361(3)
O5_2 O 0.5787(4) 0.4623(5) 0.8302(3)
O6_2 O 0.6633(5) 0.5069(6) 0.6614(4)
O7_2 O 0.8736(5) 0.5132(5) 0.7402(3)
O8_2 O 0.6465(5) 0.6465(5) 0.7010(6)
O9_2 O 0.4208(13) 0.4208(13) 0.8728(12)
O10_2 O 0.5389(6) 0.5389(6) 0.6084(6)
N1_2 N 0.7475(9) 0.4225(11) 0.6616(9)
C13_2 C 0.8714(5) 0.0164(6) 0.8064(4)
C16_2 C 0.6797(6) 0.0380(5) 0.8119(4)
C19_2 C 0.7250(6) 0.1476(6) 0.9255(4)
C22_2 C 0.8009(5) 0.0347(5) 0.8246(4)
C25_2 C 0.7304(5) 0.0988(5) 0.8816(4)
C28_2 C 0.7441(5) 0.0155(5) 0.7974(4)
C31_2 C 0.7942(5) 0.0768(5) 0.8668(4)
H13_2 H 0.8329 0.0900 0.8849
C34_2 C 0.6727(5) 0.0801(5) 0.8544(4)
H16_2 H 0.6296 0.0955 0.8643
C37_2 C 0.4559(16) 0.6914(11) 0.6756(12)
C38_2 C 0.8086(11) 0.0441(16) 0.6756(12)
C40_2 C 0.4567(14) 0.7715(17) 0.6180(11)
C41_2 C 0.7285(17) 0.0433(14) 0.6180(11)
H19_2 H 0.4978 0.7452 0.6128
H20_2 H 0.7548 0.0022 0.6128
H22_2 H 0.4272 0.7666 0.5891
H23_2 H 0.7334 0.0728 0.5891
H25_2 H 0.4683 0.8190 0.6224
H26_2 H 0.6810 0.0317 0.6224
C43_2 C 0.353(2) 0.7657(18) 0.6924(18)
C44_2 C 0.7343(18) 0.147(2) 0.6924(18)
H28_2 H 0.3480 0.7353 0.7209
H29_2 H 0.7647 0.1520 0.7209
H31_2 H 0.3546 0.8123 0.7042
H32_2 H 0.6877 0.1454 0.7042
H34_2 H 0.3137 0.7603 0.6703
H35_2 H 0.7397 0.1863 0.6703
C46_2 C 0.6182(6) 0.0195(6) 0.7803(5)
O14_2 O 0.5209(4) 0.6233(4) 0.7675(3)
O16_2 O 0.5623(4) 0.0397(5) 0.7940(4)
O20_2 O 0.5397(5) 0.4377(4) 0.7060(4)
O22_2 O 0.9603(5) 0.0623(4) 0.7060(4)
O23_2 O 0.7786(5) 0.1635(5) 0.9489(3)
O26_2 O 0.6677(5) 0.1728(5) 0.9361(3)
O29_2 O 0.9213(4) 0.0377(5) 0.8302(3)
O32_2 O 0.4623(5) 0.5787(4) 0.8302(3)
O34_2 O 0.5069(6) 0.6633(5) 0.6614(4)
O41_2 O 0.4868(5) 0.3736(5) 0.7598(3)
N2_2 N 0.4225(11) 0.7475(9) 0.6616(9)
N3_2 N 0.7525(9) 0.0775(11) 0.6616(9)
H37_2 H 0.664955 0.431365 0.707131
H44_2 H 0.431365 0.664955 0.707131
H46_2 H 0.835045 0.0686347 0.707131
H51_2 H 0.977954 0.00872291 0.603473
H10_2 H 0.7488 0.9873 0.7692
O11_2 O 0.8767(4) 0.9791(4) 0.7675(3)
O15_2 O 0.9791(4) 0.8767(4) 0.7675(3)
O35_2 O 0.8367(5) 0.9931(6) 0.6614(4)
O36_2 O 0.9931(6) 0.8367(5) 0.6614(4)
O37_2 O 0.6264(5) 0.9868(5) 0.7402(3)
O44_2 O 0.8535(5) 0.8535(5) 0.7010(6)
O46_2 O 0.9611(6) 0.9611(6) 0.6084(6)
H52 H 0.996015 0.928172 0.59575
O15_3 O 0.1233(4) 0.0209(4) 0.2325(3)
O35_3 O 0.0069(6) 0.1633(5) 0.3386(4)
O36_3 O 0.1633(5) 0.0069(6) 0.3386(4)
O44_3 O 0.1465(5) 0.1465(5) 0.2990(6)
O46_3 O 0.0389(6) 0.0389(6) 0.3916(6)
H52_2 H 0.0718278 0.00398471 0.40425
C39_3 C 0.1914(11) 0.9559(16) 0.3244(12)
C42_3 C 0.2715(17) 0.9567(14) 0.3820(11)
H21_3 H 0.2452 0.9978 0.3872
H24_3 H 0.2666 0.9272 0.4109
H27_3 H 0.3190 0.9683 0.3776
C45_3 C 0.2657(18) 0.853(2) 0.3076(18)
H30_3 H 0.2353 0.8480 0.2791
H33_3 H 0.3123 0.8546 0.2958
H36_3 H 0.2603 0.8137 0.3297
O33_3 O 0.0787(4) 0.9623(5) 0.1698(3)
N4_3 N 0.2475(9) 0.9225(11) 0.3384(9)
H45_3 H 0.164955 0.931365 0.292869
C9_3 C 0.5441(16) 0.3086(11) 0.3244(12)
C10_3 C 0.5433(14) 0.2285(17) 0.3820(11)
H4_3 H 0.5022 0.2548 0.3872
H5_3 H 0.5728 0.2334 0.4109
H6_3 H 0.5317 0.1810 0.3776
C11_3 C 0.647(2) 0.2343(18) 0.3076(18)
H7_3 H 0.6520 0.2647 0.2791
H8_3 H 0.6454 0.1877 0.2958
H9_3 H 0.6863 0.2397 0.3297
O6_3 O 0.4931(6) 0.3367(5) 0.3386(4)
O8_3 O 0.3535(5) 0.3535(5) 0.2990(6)
O9_3 O 0.5792(13) 0.5792(13) 0.1272(12)
O10_3 O 0.4611(6) 0.4611(6) 0.3916(6)
N1_3 N 0.5775(11) 0.2525(9) 0.3384(9)
C37_3 C 0.3086(11) 0.5441(16) 0.3244(12)
C38_3 C 0.9559(16) 0.1914(11) 0.3244(12)
C40_3 C 0.2285(17) 0.5433(14) 0.3820(11)
C41_3 C 0.9567(14) 0.2715(17) 0.3820(11)
H19_3 H 0.2548 0.5022 0.3872
H20_3 H 0.9978 0.2452 0.3872
H22_3 H 0.2334 0.5728 0.4109
H23_3 H 0.9272 0.2666 0.4109
H25_3 H 0.1810 0.5317 0.3776
H26_3 H 0.9683 0.3190 0.3776
C43_3 C 0.2343(18) 0.647(2) 0.3076(18)
C44_3 C 0.853(2) 0.2657(18) 0.3076(18)
H28_3 H 0.2647 0.6520 0.2791
H29_3 H 0.8480 0.2353 0.2791
H31_3 H 0.1877 0.6454 0.2958
H32_3 H 0.8546 0.3123 0.2958
H34_3 H 0.2397 0.6863 0.3297
H35_3 H 0.8137 0.2603 0.3297
O14_3 O 0.3767(4) 0.4791(4) 0.2325(3)
O20_3 O 0.5623(4) 0.4603(5) 0.2940(4)
O22_3 O 0.9377(4) 0.0397(5) 0.2940(4)
O32_3 O 0.4213(4) 0.5377(5) 0.1698(3)
O34_3 O 0.3367(5) 0.4931(6) 0.3386(4)
O41_3 O 0.6264(5) 0.5132(5) 0.2402(3)
N2_3 N 0.2525(9) 0.5775(11) 0.3384(9)
N3_3 N 0.9225(11) 0.2475(9) 0.3384(9)
H37_3 H 0.568635 0.335045 0.292869
H44_3 H 0.335045 0.568635 0.292869
H46_3 H 0.931365 0.164955 0.292869
H51_3 H 0.991277 0.0220462 0.396527
O43_3 O 0.8736(5) 0.9868(5) 0.2402(3)
O45_3 O 0.9208(13) 0.9208(13) 0.1272(12)
O6_4 O 0.3367(5) 0.0069(6) 0.8386(4)
O8_4 O 0.3535(5) 0.1465(5) 0.7990(6)
O10_4 O 0.4611(6) 0.0389(6) 0.8916(6)
C37_4 C 0.5441(16) 0.1914(11) 0.8244(12)
C40_4 C 0.5433(14) 0.2715(17) 0.8820(11)
H19_4 H 0.5022 0.2452 0.8872
H22_4 H 0.5728 0.2666 0.9109
H25_4 H 0.5317 0.3190 0.8776
C43_4 C 0.647(2) 0.2657(18) 0.8076(18)
H28_4 H 0.6520 0.2353 0.7791
H31_4 H 0.6454 0.3123 0.7958
H34_4 H 0.6863 0.2603 0.8297
O14_4 O 0.4791(4) 0.1233(4) 0.7325(3)
O32_4 O 0.5377(5) 0.0787(4) 0.6698(3)
O34_4 O 0.4931(6) 0.1633(5) 0.8386(4)
N2_4 N 0.5775(11) 0.2475(9) 0.8384(9)
H44_4 H 0.568635 0.164955 0.792869
C9_4 C 0.3086(11) 0.9559(16) 0.8244(12)
C10_4 C 0.2285(17) 0.9567(14) 0.8820(11)
H4_4 H 0.2548 0.9978 0.8872
H5_4 H 0.2334 0.9272 0.9109
H6_4 H 0.1810 0.9683 0.8776
C11_4 C 0.2343(18) 0.853(2) 0.8076(18)
H7_4 H 0.2647 0.8480 0.7791
H8_4 H 0.1877 0.8546 0.7958
H9_4 H 0.2397 0.8137 0.8297
O9_4 O 0.5792(13) 0.9208(13) 0.6272(12)
N1_4 N 0.2525(9) 0.9225(11) 0.8384(9)
C38_4 C 0.1914(11) 0.5441(16) 0.8244(12)
C41_4 C 0.2715(17) 0.5433(14) 0.8820(11)
H20_4 H 0.2452 0.5022 0.8872
H23_4 H 0.2666 0.5728 0.9109
H26_4 H 0.3190 0.5317 0.8776
C44_4 C 0.2657(18) 0.647(2) 0.8076(18)
H29_4 H 0.2353 0.6520 0.7791
H32_4 H 0.3123 0.6454 0.7958
H35_4 H 0.2603 0.6863 0.8297
O15_4 O 0.0209(4) 0.3767(4) 0.7325(3)
O20_4 O 0.4603(5) 0.9377(4) 0.7940(4)
O22_4 O 0.0397(5) 0.5623(4) 0.7940(4)
O35_4 O 0.1633(5) 0.4931(6) 0.8386(4)
O36_4 O 0.0069(6) 0.3367(5) 0.8386(4)
O41_4 O 0.5132(5) 0.8736(5) 0.7402(3)
O44_4 O 0.1465(5) 0.3535(5) 0.7990(6)
O46_4 O 0.0389(6) 0.4611(6) 0.8916(6)
N3_4 N 0.2475(9) 0.5775(11) 0.8384(9)
H37_4 H 0.335045 0.931365 0.792869
H40 H 0.477954 0.991277 0.896527
H46_4 H 0.164955 0.568635 0.792869
C39_4 C 0.9559(16) 0.3086(11) 0.8244(12)
C42_4 C 0.9567(14) 0.2285(17) 0.8820(11)
H21_4 H 0.9978 0.2548 0.8872
H24_4 H 0.9272 0.2334 0.9109
H27_4 H 0.9683 0.1810 0.8776
C45_4 C 0.853(2) 0.2343(18) 0.8076(18)
H30_4 H 0.8480 0.2647 0.7791
H33_4 H 0.8546 0.1877 0.7958
H36_4 H 0.8137 0.2397 0.8297
O33_4 O 0.9623(5) 0.4213(4) 0.6698(3)
O43_4 O 0.9868(5) 0.6264(5) 0.7402(3)
O45_4 O 0.9208(13) 0.5792(13) 0.6272(12)
N4_4 N 0.9225(11) 0.2525(9) 0.8384(9)
H45_4 H 0.931365 0.335045 0.792869
H10_3 H 0.0127 0.2488 0.7308
Cd2_4 Cd 0.7500 0.2500 0.5000
C1_3 C 0.5164(6) 0.1286(5) 0.6936(4)
C2_3 C 0.5380(5) 0.3203(6) 0.6881(4)
C3_3 C 0.6476(6) 0.2750(6) 0.5745(4)
C4_3 C 0.5347(5) 0.1991(5) 0.6754(4)
C5_3 C 0.5988(5) 0.2696(5) 0.6184(4)
C6_3 C 0.5155(5) 0.2559(5) 0.7026(4)
H1_3 H 0.4873 0.2512 0.7308
C7_3 C 0.5768(5) 0.2058(5) 0.6332(4)
H2_3 H 0.5900 0.1671 0.6151
C8_3 C 0.5801(5) 0.3273(5) 0.6456(4)
H3_3 H 0.5955 0.3704 0.6357
C12_3 C 0.5195(6) 0.3818(6) 0.7197(5)
O3_3 O 0.6635(5) 0.2214(5) 0.5511(3)
O4_3 O 0.6728(5) 0.3323(5) 0.5639(3)
C13_3 C 0.9836(6) 0.3714(5) 0.6936(4)
C14_3 C 0.6286(5) 0.0164(6) 0.3064(4)
C15_3 C 0.8714(5) 0.4836(6) 0.3064(4)
C16_3 C 0.9620(5) 0.1797(6) 0.6881(4)
C17_3 C 0.8203(6) 0.0380(5) 0.3119(4)
C18_3 C 0.6797(6) 0.4620(5) 0.3119(4)
C19_3 C 0.8524(6) 0.2250(6) 0.5745(4)
C20_3 C 0.7750(6) 0.1476(6) 0.4255(4)
C21_3 C 0.7250(6) 0.3524(6) 0.4255(4)
C22_3 C 0.9653(5) 0.3009(5) 0.6754(4)
C23_3 C 0.6991(5) 0.0347(5) 0.3246(4)
C24_3 C 0.8009(5) 0.4653(5) 0.3246(4)
C25_3 C 0.9012(5) 0.2304(5) 0.6184(4)
C26_3 C 0.7696(5) 0.0988(5) 0.3816(4)
C27_3 C 0.7304(5) 0.4012(5) 0.3816(4)
C28_3 C 0.9845(5) 0.2441(5) 0.7026(4)
C29_3 C 0.7559(5) 0.0155(5) 0.2974(4)
C30_3 C 0.7441(5) 0.4845(5) 0.2974(4)
H12_3 H 0.7488 0.5127 0.2692
C31_3 C 0.9232(5) 0.2942(5) 0.6332(4)
C32_3 C 0.7058(5) 0.0768(5) 0.3668(4)
C33_3 C 0.7942(5) 0.4232(5) 0.3668(4)
H13_3 H 0.9100 0.3329 0.6151
H14_3 H 0.6671 0.0900 0.3849
H15_3 H 0.8329 0.4100 0.3849
C34_3 C 0.9199(5) 0.1727(5) 0.6456(4)
C35_3 C 0.8273(5) 0.0801(5) 0.3544(4)
C36_3 C 0.6727(5) 0.4199(5) 0.3544(4)
H16_3 H 0.9045 0.1296 0.6357
H17_3 H 0.8704 0.0955 0.3643
H18_3 H 0.6296 0.4045 0.3643
C46_3 C 0.9805(6) 0.1182(6) 0.7197(5)
C47_3 C 0.8818(6) 0.0195(6) 0.2803(5)
C48_3 C 0.6182(6) 0.4805(6) 0.2803(5)
O23_3 O 0.8365(5) 0.2786(5) 0.5511(3)
O24_3 O 0.7214(5) 0.1635(5) 0.4489(3)
O25_3 O 0.7786(5) 0.3365(5) 0.4489(3)
O26_3 O 0.8272(5) 0.1677(5) 0.5639(3)
O27_3 O 0.8323(5) 0.1728(5) 0.4361(3)
O28_3 O 0.6677(5) 0.3272(5) 0.4361(3)
H51_4 H 0.991277 0.477954 0.896527
H11_3 H 0.7512 0.9873 0.2692
H10_4 H 0.2512 0.0127 0.2308
H52_3 H 0.00398471 0.0718278 0.40425
Cd2_5 Cd 0.2500 0.7500 0.0000
C1_4 C 0.3714(5) 0.5164(6) 0.1936(4)
C2_4 C 0.1797(6) 0.5380(5) 0.1881(4)
C3_4 C 0.2250(6) 0.6476(6) 0.0745(4)
C4_4 C 0.3009(5) 0.5347(5) 0.1754(4)
C5_4 C 0.2304(5) 0.5988(5) 0.1184(4)
C6_4 C 0.2441(5) 0.5155(5) 0.2026(4)
H1_4 H 0.2488 0.4873 0.2308
C7_4 C 0.2942(5) 0.5768(5) 0.1332(4)
H2_4 H 0.3329 0.5900 0.1151
C8_4 C 0.1727(5) 0.5801(5) 0.1456(4)
H3_4 H 0.1296 0.5955 0.1357
C12_4 C 0.1182(6) 0.5195(6) 0.2197(5)
O3_4 O 0.2786(5) 0.6635(5) 0.0511(3)
O4_4 O 0.1677(5) 0.6728(5) 0.0639(3)
C13_4 C 0.1286(5) 0.9836(6) 0.1936(4)
C16_4 C 0.3203(6) 0.9620(5) 0.1881(4)
C19_4 C 0.2750(6) 0.8524(6) 0.0745(4)
C22_4 C 0.1991(5) 0.9653(5) 0.1754(4)
C25_4 C 0.2696(5) 0.9012(5) 0.1184(4)
C28_4 C 0.2559(5) 0.9845(5) 0.2026(4)
C31_4 C 0.2058(5) 0.9232(5) 0.1332(4)
H13_4 H 0.1671 0.9100 0.1151
C34_4 C 0.3273(5) 0.9199(5) 0.1456(4)
H16_4 H 0.3704 0.9045 0.1357
C46_4 C 0.3818(6) 0.9805(6) 0.2197(5)
O23_4 O 0.2214(5) 0.8365(5) 0.0511(3)
O26_4 O 0.3323(5) 0.8272(5) 0.0639(3)
H51_5 H 0.0220462 0.991277 0.396527
Cd2_6 Cd 0.2500 0.7500 1.0000
C14_4 C 0.4836(6) 0.6286(5) 0.8064(4)
C15_4 C 0.0164(6) 0.8714(5) 0.8064(4)
C17_4 C 0.4620(5) 0.8203(6) 0.8119(4)
C18_4 C 0.0380(5) 0.6797(6) 0.8119(4)
C20_4 C 0.3524(6) 0.7750(6) 0.9255(4)
C21_4 C 0.1476(6) 0.7250(6) 0.9255(4)
C23_4 C 0.4653(5) 0.6991(5) 0.8246(4)
C24_4 C 0.0347(5) 0.8009(5) 0.8246(4)
C26_4 C 0.4012(5) 0.7696(5) 0.8816(4)
C27_4 C 0.0988(5) 0.7304(5) 0.8816(4)
C29_4 C 0.4845(5) 0.7559(5) 0.7974(4)
C30_4 C 0.0155(5) 0.7441(5) 0.7974(4)
H11_4 H 0.5127 0.7512 0.7692
C32_4 C 0.4232(5) 0.7058(5) 0.8668(4)
C33_4 C 0.0768(5) 0.7942(5) 0.8668(4)
H14_4 H 0.4100 0.6671 0.8849
H15_4 H 0.0900 0.8329 0.8849
C35_4 C 0.4199(5) 0.8273(5) 0.8544(4)
C36_4 C 0.0801(5) 0.6727(5) 0.8544(4)
H17_4 H 0.4045 0.8704 0.8643
H18_4 H 0.0955 0.6296 0.8643
C47_4 C 0.4805(6) 0.8818(6) 0.7803(5)
C48_4 C 0.0195(6) 0.6182(6) 0.7803(5)
O24_4 O 0.3365(5) 0.7214(5) 0.9489(3)
O25_4 O 0.1635(5) 0.7786(5) 0.9489(3)
O27_4 O 0.3272(5) 0.8323(5) 0.9361(3)
O28_4 O 0.1728(5) 0.6677(5) 0.9361(3)
H12_4 H 0.9873 0.7488 0.7692
H51_6 H 0.00872291 0.977954 0.603473
H52_4 H 0.928172 0.996015 0.59575
H40_2 H 0.522046 0.00872291 0.103473
loop_
_geom_bond_atom_site_label_1
_geom_bond_atom_site_label_2
_geom_bond_site_symmetry_1
_geom_bond_site_symmetry_2
O9 Cd1 1_555 1_555
Cd7 O38 1_555 1_555
Sm5 O12 1_555 1_555
C40 H19 1_555 1_555
H22 C40 1_555 1_555
H25 C40 1_555 1_555
C43 H28 1_555 1_555
H31 C43 1_555 1_555
H34 C43 1_555 1_555
O32 Cd1 1_555 1_555
O40 Cd1 1_555 1_555
O41 Cd1 1_555 1_555
N2 C37 1_555 1_555
C40 N2 1_555 1_555
C43 N2 1_555 1_555
C37 H44 1_555 1_555
Cd2 O3 1_555 1_555
Sm1 O1 1_555 1_555
C1 C4 1_555 1_555
C2 C6 1_555 1_555
C3 C5 1_555 1_555
C4 C6 1_555 1_555
C5 C7 1_555 1_555
C6 H1 1_555 1_555
C7 C4 1_555 1_555
H2 C7 1_555 1_555
C8 C2 1_555 1_555
H3 C8 1_555 1_555
C9 O6 1_555 1_555
C10 H4 1_555 1_555
H5 C10 1_555 1_555
H6 C10 1_555 1_555
C11 H7 1_555 1_555
H8 C11 1_555 1_555
H9 C11 1_555 1_555
C12 C2 1_555 1_555
O1 C1 1_555 1_555
O2 C12 1_555 1_555
O3 C3 1_555 1_555
O4 Cd2 1_555 1_555
O5 C1 1_555 1_555
O6 Sm1 1_555 1_555
O7 C12 1_555 1_555
O8 Sm1 1_555 1_555
O10 Sm1 1_555 1_555
N1 C9 1_555 1_555
Cd3 O29 1_555 1_555
Cd4 O7 1_555 1_555
Cd6 O30 1_555 1_555
Cd9 O39 1_555 1_555
Sm3 O2 1_555 1_555
Sm7 O13 1_555 1_555
Sm8 O18 1_555 1_555
C13 C22 1_555 1_555
C14 C23 1_555 1_555
C15 C24 1_555 1_555
C16 C28 1_555 1_555
C17 C29 1_555 1_555
C18 C30 1_555 1_555
C19 C25 1_555 1_555
C20 C26 1_555 1_555
C21 C27 1_555 1_555
C22 C28 1_555 1_555
C23 C29 1_555 1_555
C24 C30 1_555 1_555
C25 C31 1_555 1_555
C26 C32 1_555 1_555
C27 C33 1_555 1_555
C30 H12 1_555 1_555
C31 C22 1_555 1_555
C32 C23 1_555 1_555
C33 C24 1_555 1_555
H13 C31 1_555 1_555
H14 C32 1_555 1_555
H15 C33 1_555 1_555
C34 C16 1_555 1_555
C35 C17 1_555 1_555
C36 C18 1_555 1_555
H16 C34 1_555 1_555
H17 C35 1_555 1_555
H18 C36 1_555 1_555
C41 H20 1_555 1_555
H23 C41 1_555 1_555
H26 C41 1_555 1_555
C44 H29 1_555 1_555
H32 C44 1_555 1_555
H35 C44 1_555 1_555
C46 C16 1_555 1_555
C47 C17 1_555 1_555
C48 C18 1_555 1_555
O13 C15 1_555 1_555
O14 Sm1 1_555 1_555
O16 C46 1_555 1_555
O17 C47 1_555 1_555
O18 C48 1_555 1_555
O20 Sm1 1_555 1_555
O23 Cd2 1_555 1_555
O24 Cd2 1_555 1_555
O25 Cd2 1_555 1_555
O26 Cd2 1_555 1_555
O27 Cd2 1_555 1_555
O28 Cd2 1_555 1_555
O29 C13 1_555 1_555
O30 C14 1_555 1_555
O31 C15 1_555 1_555
O34 Sm1 1_555 1_555
O39 C48 1_555 1_555
O42 Cd3 1_555 1_555
O43 Cd3 1_555 1_555
O45 Cd3 1_555 1_555
N3 C38 1_555 1_555
C3 O4 1_555 1_555
C5 C8 1_555 1_555
C10 N1 1_555 1_555
C11 N1 1_555 1_555
C19 O23 1_555 1_555
C19 O26 1_555 1_555
C20 O24 1_555 1_555
C20 O27 1_555 1_555
C21 O25 1_555 1_555
C21 O28 1_555 1_555
C25 C34 1_555 1_555
C26 C35 1_555 1_555
C27 C36 1_555 1_555
C41 N3 1_555 1_555
C44 N3 1_555 1_555
C9 H37 1_555 1_555
C38 H46 1_555 1_555
Cd5 O37 1_555 1_555
Sm2 O11 1_555 1_555
C39 O36 1_555 1_555
C42 H21 1_555 1_555
H24 C42 1_555 1_555
H27 C42 1_555 1_555
C45 H30 1_555 1_555
H33 C45 1_555 1_555
H36 C45 1_555 1_555
O15 Sm2 1_555 1_555
O21 Sm2 1_555 1_555
O35 Sm2 1_555 1_555
O36 Sm2 1_555 1_555
O44 Sm2 1_555 1_555
O46 Sm2 1_555 1_555
N4 C39 1_555 1_555
C42 N4 1_555 1_555
C45 N4 1_555 1_555
C39 H45 1_555 1_555
Sm4 O13_2 1_555 1_555
O43_2 Cd7 1_555 1_555
O45_2 Cd7 1_555 1_555
C42_2 H21_2 1_555 1_555
H24_2 C42_2 1_555 1_555
H27_2 C42_2 1_555 1_555
C45_2 H30_2 1_555 1_555
H33_2 C45_2 1_555 1_555
H36_2 C45_2 1_555 1_555
N4_2 C39_2 1_555 1_555
C42_2 N4_2 1_555 1_555
C45_2 N4_2 1_555 1_555
C39_2 H45_2 1_555 1_555
Cd4 O30_2 1_555 1_555
Sm3 O12_2 1_555 1_555
C14_2 C23_2 1_555 1_555
C15_2 C24_2 1_555 1_555
C17_2 C29_2 1_555 1_555
C18_2 C30_2 1_555 1_555
C20_2 C26_2 1_555 1_555
C21_2 C27_2 1_555 1_555
C23_2 C29_2 1_555 1_555
C24_2 C30_2 1_555 1_555
C26_2 C32_2 1_555 1_555
C27_2 C33_2 1_555 1_555
C29_2 H11_2 1_555 1_555
C32_2 C23_2 1_555 1_555
C33_2 C24_2 1_555 1_555
H14_2 C32_2 1_555 1_555
H15_2 C33_2 1_555 1_555
C35_2 C17_2 1_555 1_555
C36_2 C18_2 1_555 1_555
H17_2 C35_2 1_555 1_555
H18_2 C36_2 1_555 1_555
C47_2 C17_2 1_555 1_555
C48_2 C18_2 1_555 1_555
O12_2 C14_2 1_555 1_555
O19 C47_2 1_555 1_555
O21 C48_2 1_555 1_555
O24_2 Cd2_2 1_555 1_555
O25_2 Cd2_2 1_555 1_555
O27_2 Cd2_2 1_555 1_555
O28_2 Cd2_2 1_555 1_555
O30_2 C14_2 1_555 1_555
O31_2 C15_2 1_555 1_555
O40 C47_2 1_555 1_555
C20_2 O24_2 1_555 1_555
C20_2 O27_2 1_555 1_555
C21_2 O25_2 1_555 1_555
C21_2 O28_2 1_555 1_555
C26_2 C35_2 1_555 1_555
C27_2 C36_2 1_555 1_555
Cd9 O5_2 1_555 1_555
Cd2_3 O3_2 1_555 1_555
Sm8 O1_2 1_555 1_555
C1_2 C4_2 1_555 1_555
C2_2 C6_2 1_555 1_555
C3_2 C5_2 1_555 1_555
C4_2 C6_2 1_555 1_555
C5_2 C7_2 1_555 1_555
C6_2 H1_2 1_555 1_555
C7_2 C4_2 1_555 1_555
H2_2 C7_2 1_555 1_555
C8_2 C2_2 1_555 1_555
H3_2 C8_2 1_555 1_555
C9_2 O6_2 1_555 1_555
C10_2 H4_2 1_555 1_555
H5_2 C10_2 1_555 1_555
H6_2 C10_2 1_555 1_555
C11_2 H7_2 1_555 1_555
H8_2 C11_2 1_555 1_555
H9_2 C11_2 1_555 1_555
C12_2 C2_2 1_555 1_555
O1_2 C1_2 1_555 1_555
O2_2 C12_2 1_555 1_555
O3_2 C3_2 1_555 1_555
O4_2 Cd2_3 1_555 1_555
O5_2 C1_2 1_555 1_555
O6_2 Sm8 1_555 1_555
O7_2 C12_2 1_555 1_555
O8_2 Sm8 1_555 1_555
O9_2 Cd9 1_555 1_555
O10_2 Sm8 1_555 1_555
N1_2 C9_2 1_555 1_555
Cd8 O7_2 1_555 1_555
Sm5 O16_2 1_555 1_555
C13_2 C22_2 1_555 1_555
C16_2 C28_2 1_555 1_555
C19_2 C25_2 1_555 1_555
C22_2 C28_2 1_555 1_555
C25_2 C31_2 1_555 1_555
C31_2 C22_2 1_555 1_555
H13_2 C31_2 1_555 1_555
C34_2 C16_2 1_555 1_555
H16_2 C34_2 1_555 1_555
C37_2 O34_2 1_555 1_555
C40_2 H19_2 1_555 1_555
C41_2 H20_2 1_555 1_555
H22_2 C40_2 1_555 1_555
H23_2 C41_2 1_555 1_555
H25_2 C40_2 1_555 1_555
H26_2 C41_2 1_555 1_555
C43_2 H28_2 1_555 1_555
C44_2 H29_2 1_555 1_555
H31_2 C43_2 1_555 1_555
H32_2 C44_2 1_555 1_555
H34_2 C43_2 1_555 1_555
H35_2 C44_2 1_555 1_555
C46_2 C16_2 1_555 1_555
O14_2 Sm8 1_555 1_555
O16_2 C46_2 1_555 1_555
O20_2 Sm8 1_555 1_555
O23_2 Cd2_3 1_555 1_555
O26_2 Cd2_3 1_555 1_555
O29_2 C13_2 1_555 1_555
O32_2 Cd9 1_555 1_555
O34_2 Sm8 1_555 1_555
O41_2 Cd9 1_555 1_555
N2_2 C37_2 1_555 1_555
N3_2 C38_2 1_555 1_555
C3_2 O4_2 1_555 1_555
C5_2 C8_2 1_555 1_555
C10_2 N1_2 1_555 1_555
C11_2 N1_2 1_555 1_555
C19_2 O23_2 1_555 1_555
C19_2 O26_2 1_555 1_555
C25_2 C34_2 1_555 1_555
C40_2 N2_2 1_555 1_555
C41_2 N3_2 1_555 1_555
C43_2 N2_2 1_555 1_555
C44_2 N3_2 1_555 1_555
C9_2 H37_2 1_555 1_555
C37_2 H44_2 1_555 1_555
C38_2 H46_2 1_555 1_555
Cd6 O37_2 1_555 1_555
Sm6 O11_2 1_555 1_555
O15_2 Sm6 1_555 1_555
O35_2 Sm6 1_555 1_555
O36_2 Sm6 1_555 1_555
O44_2 Sm6 1_555 1_555
O46_2 Sm6 1_555 1_555
O46_2 H52 1_555 1_555
O15_3 Sm4 1_555 1_555
O35_3 Sm4 1_555 1_555
O36_3 Sm4 1_555 1_555
O44_3 Sm4 1_555 1_555
O46_3 Sm4 1_555 1_555
O46_3 H52_2 1_555 1_555
C42_3 H21_3 1_555 1_555
H24_3 C42_3 1_555 1_555
H27_3 C42_3 1_555 1_555
C45_3 H30_3 1_555 1_555
H33_3 C45_3 1_555 1_555
H36_3 C45_3 1_555 1_555
N4_3 C39_3 1_555 1_555
C42_3 N4_3 1_555 1_555
C45_3 N4_3 1_555 1_555
C39_3 H45_3 1_555 1_555
C9_3 O6_3 1_555 1_555
C10_3 H4_3 1_555 1_555
H5_3 C10_3 1_555 1_555
H6_3 C10_3 1_555 1_555
C11_3 H7_3 1_555 1_555
H8_3 C11_3 1_555 1_555
H9_3 C11_3 1_555 1_555
O6_3 Sm3 1_555 1_555
O8_3 Sm3 1_555 1_555
O9_3 Cd4 1_555 1_555
O10_3 Sm3 1_555 1_555
N1_3 C9_3 1_555 1_555
C37_3 O34_3 1_555 1_555
C40_3 H19_3 1_555 1_555
C41_3 H20_3 1_555 1_555
H22_3 C40_3 1_555 1_555
H23_3 C41_3 1_555 1_555
H25_3 C40_3 1_555 1_555
H26_3 C41_3 1_555 1_555
C43_3 H28_3 1_555 1_555
C44_3 H29_3 1_555 1_555
H31_3 C43_3 1_555 1_555
H32_3 C44_3 1_555 1_555
H34_3 C43_3 1_555 1_555
H35_3 C44_3 1_555 1_555
O14_3 Sm3 1_555 1_555
O20_3 Sm3 1_555 1_555
O32_3 Cd4 1_555 1_555
O34_3 Sm3 1_555 1_555
O41_3 Cd4 1_555 1_555
N2_3 C37_3 1_555 1_555
N3_3 C38_3 1_555 1_555
C10_3 N1_3 1_555 1_555
C11_3 N1_3 1_555 1_555
C40_3 N2_3 1_555 1_555
C41_3 N3_3 1_555 1_555
C43_3 N2_3 1_555 1_555
C44_3 N3_3 1_555 1_555
C9_3 H37_3 1_555 1_555
C37_3 H44_3 1_555 1_555
C38_3 H46_3 1_555 1_555
O43_3 Cd5 1_555 1_555
O45_3 Cd5 1_555 1_555
O6_4 Sm5 1_555 1_555
O8_4 Sm5 1_555 1_555
O10_4 Sm5 1_555 1_555
C37_4 O34_4 1_555 1_555
C40_4 H19_4 1_555 1_555
H22_4 C40_4 1_555 1_555
H25_4 C40_4 1_555 1_555
C43_4 H28_4 1_555 1_555
H31_4 C43_4 1_555 1_555
H34_4 C43_4 1_555 1_555
O14_4 Sm5 1_555 1_555
O34_4 Sm5 1_555 1_555
N2_4 C37_4 1_555 1_555
C40_4 N2_4 1_555 1_555
C43_4 N2_4 1_555 1_555
C37_4 H44_4 1_555 1_555
C10_4 H4_4 1_555 1_555
H5_4 C10_4 1_555 1_555
H6_4 C10_4 1_555 1_555
C11_4 H7_4 1_555 1_555
H8_4 C11_4 1_555 1_555
H9_4 C11_4 1_555 1_555
O9_4 Cd6 1_555 1_555
N1_4 C9_4 1_555 1_555
C38_4 O35_4 1_555 1_555
C41_4 H20_4 1_555 1_555
H23_4 C41_4 1_555 1_555
H26_4 C41_4 1_555 1_555
C44_4 H29_4 1_555 1_555
H32_4 C44_4 1_555 1_555
H35_4 C44_4 1_555 1_555
O15_4 Sm7 1_555 1_555
O22_4 Sm7 1_555 1_555
O35_4 Sm7 1_555 1_555
O36_4 Sm7 1_555 1_555
O41_4 Cd6 1_555 1_555
O44_4 Sm7 1_555 1_555
O46_4 Sm7 1_555 1_555
N3_4 C38_4 1_555 1_555
C10_4 N1_4 1_555 1_555
C11_4 N1_4 1_555 1_555
C41_4 N3_4 1_555 1_555
C44_4 N3_4 1_555 1_555
C9_4 H37_4 1_555 1_555
C38_4 H46_4 1_555 1_555
C42_4 H21_4 1_555 1_555
H24_4 C42_4 1_555 1_555
H27_4 C42_4 1_555 1_555
C45_4 H30_4 1_555 1_555
H33_4 C45_4 1_555 1_555
H36_4 C45_4 1_555 1_555
O33_4 Cd8 1_555 1_555
O43_4 Cd8 1_555 1_555
O45_4 Cd8 1_555 1_555
N4_4 C39_4 1_555 1_555
C42_4 N4_4 1_555 1_555
C45_4 N4_4 1_555 1_555
C39_4 H45_4 1_555 1_555
Cd2_4 O3_3 1_555 1_555
C1_3 C4_3 1_555 1_555
C2_3 C6_3 1_555 1_555
C3_3 C5_3 1_555 1_555
C4_3 C6_3 1_555 1_555
C5_3 C7_3 1_555 1_555
C6_3 H1_3 1_555 1_555
C7_3 C4_3 1_555 1_555
H2_3 C7_3 1_555 1_555
C8_3 C2_3 1_555 1_555
H3_3 C8_3 1_555 1_555
C12_3 C2_3 1_555 1_555
O14_4 C1_3 1_555 1_555
O20_2 C12_3 1_555 1_555
O3_3 C3_3 1_555 1_555
O4_3 Cd2_4 1_555 1_555
O32_4 C1_3 1_555 1_555
O41_2 C12_3 1_555 1_555
C13_3 C22_3 1_555 1_555
C14_3 C23_3 1_555 1_555
C15_3 C24_3 1_555 1_555
C16_3 C28_3 1_555 1_555
C17_3 C29_3 1_555 1_555
C18_3 C30_3 1_555 1_555
C19_3 C25_3 1_555 1_555
C20_3 C26_3 1_555 1_555
C21_3 C27_3 1_555 1_555
C22_3 C28_3 1_555 1_555
C23_3 C29_3 1_555 1_555
C24_3 C30_3 1_555 1_555
C25_3 C31_3 1_555 1_555
C26_3 C32_3 1_555 1_555
C27_3 C33_3 1_555 1_555
C30_3 H12_3 1_555 1_555
C31_3 C22_3 1_555 1_555
C32_3 C23_3 1_555 1_555
C33_3 C24_3 1_555 1_555
H13_3 C31_3 1_555 1_555
H14_3 C32_3 1_555 1_555
H15_3 C33_3 1_555 1_555
C34_3 C16_3 1_555 1_555
C35_3 C17_3 1_555 1_555
C36_3 C18_3 1_555 1_555
H16_3 C34_3 1_555 1_555
H17_3 C35_3 1_555 1_555
H18_3 C36_3 1_555 1_555
C46_3 C16_3 1_555 1_555
C47_3 C17_3 1_555 1_555
C48_3 C18_3 1_555 1_555
O15 C15_3 1_555 1_555
O22_2 C46_3 1_555 1_555
O22_3 C47_3 1_555 1_555
O20_3 C48_3 1_555 1_555
O23_3 Cd2_4 1_555 1_555
O24_3 Cd2_4 1_555 1_555
O25_3 Cd2_4 1_555 1_555
O26_3 Cd2_4 1_555 1_555
O27_3 Cd2_4 1_555 1_555
O28_3 Cd2_4 1_555 1_555
O33_4 C13_3 1_555 1_555
O32 C14_3 1_555 1_555
O33 C15_3 1_555 1_555
O41_3 C48_3 1_555 1_555
C3_3 O4_3 1_555 1_555
C5_3 C8_3 1_555 1_555
C19_3 O23_3 1_555 1_555
C19_3 O26_3 1_555 1_555
C20_3 O24_3 1_555 1_555
C20_3 O27_3 1_555 1_555
C21_3 O25_3 1_555 1_555
C21_3 O28_3 1_555 1_555
C25_3 C34_3 1_555 1_555
C26_3 C35_3 1_555 1_555
C27_3 C36_3 1_555 1_555
O46_3 H52_3 1_555 1_555
Cd2_5 O3_4 1_555 1_555
C1_4 C4_4 1_555 1_555
C2_4 C6_4 1_555 1_555
C3_4 C5_4 1_555 1_555
C4_4 C6_4 1_555 1_555
C5_4 C7_4 1_555 1_555
C6_4 H1_4 1_555 1_555
C7_4 C4_4 1_555 1_555
H2_4 C7_4 1_555 1_555
C8_4 C2_4 1_555 1_555
H3_4 C8_4 1_555 1_555
C12_4 C2_4 1_555 1_555
O14_3 C1_4 1_555 1_555
O22 C12_4 1_555 1_555
O3_4 C3_4 1_555 1_555
O4_4 Cd2_5 1_555 1_555
O32_3 C1_4 1_555 1_555
O43 C12_4 1_555 1_555
C13_4 C22_4 1_555 1_555
C16_4 C28_4 1_555 1_555
C19_4 C25_4 1_555 1_555
C22_4 C28_4 1_555 1_555
C25_4 C31_4 1_555 1_555
C31_4 C22_4 1_555 1_555
H13_4 C31_4 1_555 1_555
C34_4 C16_4 1_555 1_555
H16_4 C34_4 1_555 1_555
C46_4 C16_4 1_555 1_555
O20 C46_4 1_555 1_555
O23_4 Cd2_5 1_555 1_555
O26_4 Cd2_5 1_555 1_555
O33_3 C13_4 1_555 1_555
C3_4 O4_4 1_555 1_555
C5_4 C8_4 1_555 1_555
C19_4 O23_4 1_555 1_555
C19_4 O26_4 1_555 1_555
C25_4 C34_4 1_555 1_555
C14_4 C23_4 1_555 1_555
C15_4 C24_4 1_555 1_555
C17_4 C29_4 1_555 1_555
C18_4 C30_4 1_555 1_555
C20_4 C26_4 1_555 1_555
C21_4 C27_4 1_555 1_555
C23_4 C29_4 1_555 1_555
C24_4 C30_4 1_555 1_555
C26_4 C32_4 1_555 1_555
C27_4 C33_4 1_555 1_555
C29_4 H11_4 1_555 1_555
C32_4 C23_4 1_555 1_555
C33_4 C24_4 1_555 1_555
H14_4 C32_4 1_555 1_555
H15_4 C33_4 1_555 1_555
C35_4 C17_4 1_555 1_555
C36_4 C18_4 1_555 1_555
H17_4 C35_4 1_555 1_555
H18_4 C36_4 1_555 1_555
C47_4 C17_4 1_555 1_555
C48_4 C18_4 1_555 1_555
O14_2 C14_4 1_555 1_555
O20_4 C47_4 1_555 1_555
O22_4 C48_4 1_555 1_555
O24_4 Cd2_6 1_555 1_555
O25_4 Cd2_6 1_555 1_555
O27_4 Cd2_6 1_555 1_555
O28_4 Cd2_6 1_555 1_555
O32_2 C14_4 1_555 1_555
O33_2 C15_4 1_555 1_555
O41_4 C47_4 1_555 1_555
C20_4 O24_4 1_555 1_555
C20_4 O27_4 1_555 1_555
C21_4 O25_4 1_555 1_555
C21_4 O28_4 1_555 1_555
C26_4 C35_4 1_555 1_555
C27_4 C36_4 1_555 1_555
O46_2 H52_4 1_555 1_555

#END
