
###############################################################################
#
# This file contains modified crystal structure data generated from the
# MOF subset of the Cambridge Structural Database (CSD) v543 
# hosted by the Cambridge Crystallographic Data Centre (CCDC).
#
# This work is licensed under the Creative Commons
# Attribution-NonCommercial-ShareAlike 4.0 International License.
# To view a copy of this license, visit
# http://creativecommons.org/licenses/by-nc-sa/4.0/
# or send a letter to
# Creative Commons, PO Box 1866, Mountain View, CA 94042, USA.
#
# CIF created using the CSD Python API on 29 September 2022
# The structure has been converted into the P1 space group
# The structure has a 3D framework
# The original CSD entry TAZSAP02 is in the triclinic crystal system
# The framework has been calculated to contain at least 10.0% void space
# The void calculation uses a probe of radius 1.32A, grid spacing 0.4
# H atom positions have been added when not included in the experimental data
#
###############################################################################

data_TAZSAP02
_chemical_formula_moiety         '(C24 H32 O26 Pr4)n'
_symmetry_cell_setting           triclinic
_symmetry_space_group_name_H-M   'P 1'
_symmetry_Int_Tables_number      1
_space_group_name_Hall           'P 1'
loop_
_symmetry_equiv_pos_site_id
_symmetry_equiv_pos_as_xyz
1 x,y,z
_cell_length_a                   7.877(10)
_cell_length_b                   12.06(3)
_cell_length_c                   12.275(13)
_cell_angle_alpha                112.12(4)
_cell_angle_beta                 89.98(3)
_cell_angle_gamma                99.95(5)
_cell_volume                     1061.33
loop_
_atom_site_label
_atom_site_type_symbol
_atom_site_fract_x
_atom_site_fract_y
_atom_site_fract_z
O4 O 0.010(2) 0.0736(15) 0.1784(15)
O14 O 0.1698(18) 0.1765(15) 0.0324(13)
H13 H 0.1874 0.1025 0.0359
H14 H 0.1219 0.2167 0.1040
O18 O 0.238(2) 0.0178(14) 0.7913(15)
O20 O 0.2735(19) 0.2777(13) 0.8553(13)
O21 O 0.0103(18) 0.1551(13) 0.6510(13)
Pr1 Pr 0.99088(14) 0.14557(11) 0.85426(10)
Pr2 Pr 0.49083(15) 0.14516(11) 0.75199(10)
C7 C 0.245(4) 0.473(2) 0.866(2)
H7 H 0.1208 0.4502 0.8492
H8 H 0.2891 0.5239 0.8231
C8 C 0.320(3) 0.363(2) 0.823(2)
C11 C 0.285(3) 0.544(2) 0.996(2)
O2 O 0.052(2) 0.6472(15) 0.9951(15)
O5 O 0.453(2) 0.3583(15) 0.7552(16)
O7 O 0.511(2) 0.1488(15) 0.9643(15)
O8 O 0.7714(19) 0.1024(15) 0.9800(14)
O11 O 0.7360(19) 0.0173(13) 0.7211(12)
O13 O 0.6789(19) 0.1744(16) 0.5962(13)
H11 H 0.6368 0.1233 0.5144
H12 H 0.7946 0.1590 0.6007
O15 O 0.7731(19) 0.2783(14) 0.8459(12)
O22 O 0.276(2) 0.1095(16) 0.6002(14)
C5 C 0.355(3) 0.070(2) 0.352(2)
C6 C 0.285(3) 0.189(2) 0.415(2)
H5 H 0.3723 0.2471 0.4739
H6 H 0.2651 0.2239 0.3574
C9 C 0.137(2) 0.145(2) 0.5790(19)
C10 C 0.102(4) 0.169(2) 0.4789(19)
H9 H 0.0208 0.1007 0.4240
H10 H 0.0513 0.2409 0.5014
O12 O 0.510(2) 0.0725(15) 0.3801(15)
C1 C 0.362(3) 0.862(2) 0.9786(19)
C2 C 0.385(3) 0.833(2) 0.852(2)
H1 H 0.4666 0.8986 0.8442
H2 H 0.4345 0.7597 0.8213
C3 C 0.218(3) 0.8127(19) 0.7779(18)
H3 H 0.1327 0.7525 0.7925
H4 H 0.2412 0.7788 0.6953
C4 C 0.143(3) 0.922(3) 0.799(2)
C12 C 0.817(3) 0.359(2) 0.955(2)
H15 H 0.578419 0.414597 0.988626
H16 H 0.74232 0.518583 0.958656
Pr6 Pr 0.00912(14) 0.85443(11) 0.14574(10)
C1_2 C 0.638(3) 0.138(2) 0.0214(19)
C2_2 C 0.615(3) 0.167(2) 0.148(2)
H1_2 H 0.5334 0.1014 0.1558
H2_2 H 0.5655 0.2403 0.1787
C3_2 C 0.782(3) 0.1873(19) 0.2221(18)
H3_2 H 0.8673 0.2475 0.2075
H4_2 H 0.7588 0.2212 0.3047
C4_2 C 0.857(3) 0.078(3) 0.201(2)
C12_2 C 0.183(3) 0.641(2) 0.045(2)
O1 O 0.2269(19) 0.7217(14) 0.1541(12)
Pr9 Pr 0.50917(15) 0.85484(11) 0.24801(10)
O16 O 0.948(2) 0.3528(15) 0.0049(15)
H15_2 H 0.421581 0.585403 0.0113736
H16_2 H 0.25768 0.481417 0.0413443
O3 O 0.762(2) 0.9822(14) 0.2087(15)
C5_2 C 0.645(3) 0.930(2) 0.648(2)
C6_2 C 0.715(3) 0.811(2) 0.585(2)
H5_2 H 0.6277 0.7529 0.5261
H6_2 H 0.7349 0.7761 0.6426
C9_2 C 0.863(2) 0.855(2) 0.4210(19)
C10_2 C 0.898(4) 0.831(2) 0.5211(19)
H9_2 H 0.9792 0.8993 0.5760
H10_2 H 0.9487 0.7591 0.4986
O9 O 0.9897(18) 0.8449(13) 0.3490(13)
O10 O 0.724(2) 0.8905(16) 0.3998(14)
O12_2 O 0.490(2) 0.9275(15) 0.6199(15)
O19 O 0.990(2) 0.9264(15) 0.8216(15)
C7_2 C 0.755(4) 0.527(2) 0.134(2)
H7_2 H 0.8792 0.5498 0.1508
H8_2 H 0.7109 0.4761 0.1769
C8_2 C 0.680(3) 0.637(2) 0.177(2)
C11_2 C 0.715(3) 0.456(2) 0.004(2)
O5_2 O 0.547(2) 0.6417(15) 0.2448(16)
O6 O 0.7265(19) 0.7223(13) 0.1447(13)
O7_2 O 0.489(2) 0.8512(15) 0.0357(15)
O8_2 O 0.2286(19) 0.8976(15) 0.0200(14)
O11_2 O 0.2640(19) 0.9827(13) 0.2789(12)
O13_2 O 0.3211(19) 0.8256(16) 0.4038(13)
H11_2 H 0.3632 0.8767 0.4856
H12_2 H 0.2054 0.8410 0.3993
O14_2 O 0.8302(18) 0.8235(15) 0.9676(13)
H13_2 H 0.8126 0.8975 0.9641
H14_2 H 0.8781 0.7833 0.8960
loop_
_geom_bond_atom_site_label_1
_geom_bond_atom_site_label_2
_geom_bond_site_symmetry_1
_geom_bond_site_symmetry_2
H13 O14 1_555 1_555
H14 O14 1_555 1_555
Pr1 O8 1_555 1_555
Pr2 O5 1_555 1_555
C7 H7 1_555 1_555
H8 C7 1_555 1_555
C8 C7 1_555 1_555
C11 C7 1_555 1_555
O5 C8 1_555 1_555
O20 Pr2 1_555 1_555
O7 Pr2 1_555 1_555
O11 Pr1 1_555 1_555
O13 Pr2 1_555 1_555
H11 O13 1_555 1_555
H12 O13 1_555 1_555
O15 Pr1 1_555 1_555
O18 Pr2 1_555 1_555
O22 Pr2 1_555 1_555
Pr2 O11 1_555 1_555
Pr2 O15 1_555 1_555
C8 O20 1_555 1_555
C5 C6 1_555 1_555
C6 H5 1_555 1_555
H6 C6 1_555 1_555
C9 C10 1_555 1_555
C10 C6 1_555 1_555
H9 C10 1_555 1_555
H10 C10 1_555 1_555
O21 C9 1_555 1_555
O22 C9 1_555 1_555
C5 O12 1_555 1_555
C1 C2 1_555 1_555
C2 H1 1_555 1_555
H2 C2 1_555 1_555
C3 C2 1_555 1_555
H3 C3 1_555 1_555
H4 C3 1_555 1_555
C4 C3 1_555 1_555
O15 C12 1_555 1_555
C1_2 C2_2 1_555 1_555
C2_2 H1_2 1_555 1_555
H2_2 C2_2 1_555 1_555
C3_2 C2_2 1_555 1_555
H3_2 C3_2 1_555 1_555
H4_2 C3_2 1_555 1_555
C4_2 C3_2 1_555 1_555
O1 C12_2 1_555 1_555
Pr6 O1 1_555 1_555
Pr9 O1 1_555 1_555
Pr9 O3 1_555 1_555
C5_2 C6_2 1_555 1_555
C6_2 H5_2 1_555 1_555
H6_2 C6_2 1_555 1_555
C9_2 C10_2 1_555 1_555
C10_2 C6_2 1_555 1_555
H9_2 C10_2 1_555 1_555
H10_2 C10_2 1_555 1_555
O9 C9_2 1_555 1_555
O10 C9_2 1_555 1_555
Pr9 O10 1_555 1_555
C5_2 O12_2 1_555 1_555
Pr6 O8_2 1_555 1_555
Pr9 O5_2 1_555 1_555
C7_2 H7_2 1_555 1_555
H8_2 C7_2 1_555 1_555
C8_2 C7_2 1_555 1_555
C11_2 C7_2 1_555 1_555
O5_2 C8_2 1_555 1_555
O6 Pr9 1_555 1_555
O7_2 Pr9 1_555 1_555
O11_2 Pr6 1_555 1_555
O13_2 Pr9 1_555 1_555
H11_2 O13_2 1_555 1_555
H12_2 O13_2 1_555 1_555
Pr9 O11_2 1_555 1_555
C8_2 O6 1_555 1_555
H13_2 O14_2 1_555 1_555
H14_2 O14_2 1_555 1_555

#END
