
###############################################################################
#
# This file contains modified crystal structure data generated from the
# MOF subset of the Cambridge Structural Database (CSD) v543 
# hosted by the Cambridge Crystallographic Data Centre (CCDC).
#
# This work is licensed under the Creative Commons
# Attribution-NonCommercial-ShareAlike 4.0 International License.
# To view a copy of this license, visit
# http://creativecommons.org/licenses/by-nc-sa/4.0/
# or send a letter to
# Creative Commons, PO Box 1866, Mountain View, CA 94042, USA.
#
# CIF created using the CSD Python API on 29 September 2022
# The structure has been converted into the P1 space group
# The structure has a 3D framework
# The original CSD entry TEBKOD is in the orthorhombic crystal system
# The original CSD entry TEBKOD is in a Sohncke space group
# The framework has been calculated to contain at least 10.0% void space
# The void calculation uses a probe of radius 1.32A, grid spacing 0.4
#
###############################################################################

data_TEBKOD
_chemical_formula_moiety         '(C200 H184 Ce6 Cu16 I12 N36 O64)n'
_symmetry_cell_setting           triclinic
_symmetry_space_group_name_H-M   'P 1'
_symmetry_Int_Tables_number      1
_space_group_name_Hall           'P 1'
loop_
_symmetry_equiv_pos_site_id
_symmetry_equiv_pos_as_xyz
1 x,y,z
_cell_length_a                   9.416(8)
_cell_length_b                   23.011(18)
_cell_length_c                   31.37(3)
_cell_angle_alpha                90
_cell_angle_beta                 90
_cell_angle_gamma                90
_cell_volume                     6796.99
loop_
_atom_site_label
_atom_site_type_symbol
_atom_site_fract_x
_atom_site_fract_y
_atom_site_fract_z
Cu6 Cu 0.0391(4) 0.38325(16) 0.77461(8)
Cu2 Cu 0.5391(4) 0.11675(16) 0.22539(8)
C1 C 0.248(3) 0.0567(11) 0.0264(6)
O8 O 0.356(2) 0.0263(9) 0.0226(6)
N4 N 0.221(2) 0.1727(9) 0.1341(7)
C8 C 0.698(3) 0.0166(10) 0.0968(6)
O15 O 0.346(2) 0.0629(12) 0.2317(6)
O16 O 0.137(2) 0.0497(8) 0.0038(5)
N6 N 0.613(2) 0.0730(11) 0.1734(6)
C16 C 0.340(3) 0.1461(15) 0.1230(8)
H5 H 0.4201 0.1527 0.1395
C29 C 0.710(3) 0.0974(17) 0.1476(9)
H16 H 0.7483 0.1332 0.1551
C35 C 0.219(3) 0.0693(12) 0.2448(10)
C36 C 0.755(4) 0.0704(16) 0.1093(11)
H22 H 0.8227 0.0885 0.0923
C38 C 0.190(4) 0.1047(15) 0.2866(10)
H26 H 0.1514 0.0794 0.3080
H27 H 0.1242 0.1354 0.2808
H28 H 0.2779 0.1210 0.2967
C40 C 0.100(3) 0.1610(13) 0.1095(8)
H30 H 0.0149 0.1772 0.1183
N9 N 0.106(4) 0.0527(15) 0.2196(10)
C45 C 0.564(4) 0.0240(13) 0.1623(11)
H40 H 0.4955 0.0079 0.1802
C47 C 0.125(6) 0.025(2) 0.1820(15)
H42 H 0.2223 0.0125 0.1798
H43 H 0.1031 0.0507 0.1590
C48 C 0.237(3) 0.0939(11) 0.0636(7)
C49 C 0.098(4) 0.1259(17) 0.0717(10)
H45 H 0.0195 0.1230 0.0539
C50 C 0.352(3) 0.1090(15) 0.0883(8)
H46 H 0.4408 0.0939 0.0815
I4 I 0.4728(2) 0.22930(8) 0.21816(4)
Cu7 Cu 0.2156(4) 0.23405(14) 0.18215(8)
N12 N 0.622(2) 0.1062(11) 0.2834(5)
I1 I 0.48588(19) 0.25460(7) 0.76994(4)
I2 I 0.9728(2) 0.27070(8) 0.78184(4)
I3 I 0.7904(2) 0.10509(8) 0.74580(5)
Cu1 Cu 0.5146(4) 0.13923(14) 0.74859(7)
Cu3 Cu 0.7156(4) 0.26595(14) 0.81785(8)
Cu4 Cu 0.7438(4) 0.21585(16) 0.73900(9)
O1 O 0.0779(18) 0.0191(8) 0.9104(5)
O3 O 0.818(2) 0.0462(8) 0.9664(6)
O5 O 0.1391(18) 0.0978(8) 0.5538(5)
O9 O 0.5763(19) 0.0298(8) 0.9575(5)
N1 N 0.705(3) 0.1912(9) 0.8551(5)
C3 C 0.270(3) 0.0958(11) 0.5600(6)
C4 C 0.516(3) 0.1113(15) 0.6550(7)
H2 H 0.6111 0.1037 0.6612
O12 O 0.3609(18) 0.0771(8) 0.5330(4)
N3 N 0.417(2) 0.0931(10) 0.7959(5)
C12 C 0.212(3) 0.0092(12) 0.9040(7)
N5 N 0.436(3) 0.1346(10) 0.6871(5)
C13 C 0.588(3) 0.1788(12) 0.8781(8)
H4 H 0.5076 0.2013 0.8731
C14 C 0.697(2) 0.0554(10) 0.9509(7)
C15 C 0.697(3) 0.1010(11) 0.9173(6)
C18 C 0.577(3) 0.1356(12) 0.9084(7)
H7 H 0.4922 0.1293 0.9227
C19 C 0.203(4) 0.0751(14) 0.8382(8)
H8 H 0.1082 0.0833 0.8433
C23 C 0.815(3) 0.1575(12) 0.8636(7)
H11 H 0.8961 0.1633 0.8472
C25 C 0.250(3) 0.1395(12) 0.6350(7)
H13 H 0.1596 0.1531 0.6284
C26 C 0.271(3) 0.0995(16) 0.8049(8)
H14 H 0.2177 0.1223 0.7865
C28 C 0.279(3) 0.0369(11) 0.8654(6)
C30 C 0.422(2) 0.0282(13) 0.8555(6)
H17 H 0.4785 0.0040 0.8723
C32 C 0.299(3) 0.1476(13) 0.6759(8)
H19 H 0.2369 0.1622 0.6964
C34 C 0.480(3) 0.0568(11) 0.8197(6)
H21 H 0.5741 0.0482 0.8129
C39 C 0.469(3) 0.0979(13) 0.6138(7)
H29 H 0.5282 0.0800 0.5940
C43 C 0.325(3) 0.1132(13) 0.6035(8)
C46 C 0.821(3) 0.1149(16) 0.8941(8)
H41 H 0.9062 0.0956 0.8995
Ce3 Ce 0.03702(13) 0.05856(6) 0.48507(3)
Ce5 Ce 0.50643(13) 0.02877(5) 0.47814(3)
N10 N 0.763(2) 0.2545(11) 0.6797(5)
N11 N 0.721(2) 0.3273(9) 0.8659(7)
O6 O 0.6467(19) 0.9588(8) 0.0376(4)
O13 O 0.875(2) 0.9884(11) 0.0467(5)
C5 C 0.684(3) 0.8270(12) 0.0208(9)
C7 C 0.744(2) 0.9862(11) 0.0576(6)
C21 C 0.601(3) 0.9906(12) 0.1257(8)
H9 H 0.5640 0.9537 0.1211
C37 C 0.918(4) 0.7813(16) 0.0283(10)
H23 H 0.9233 0.8066 0.0526
H25 H 0.9102 0.7418 0.0378
N8 N 0.787(4) 0.7971(13) 0.0015(10)
C41 C 0.697(3) 0.8328(12) 0.0699(8)
H31 H 0.7745 0.8580 0.0769
H32 H 0.7129 0.7951 0.0822
H33 H 0.6102 0.8487 0.0812
H44 H 0.0640 0.9915 0.1807
O18 O 0.3609(18) 0.9022(8) 0.0538(5)
O19 O 0.1391(18) 0.9229(8) 0.0330(4)
Ce1 Ce 0.46298(13) 0.94144(6) 0.98507(3)
O2 O 0.3029(19) 0.8648(7) 0.9580(4)
O4 O 0.587(2) 0.8456(8) 0.9989(4)
O7 O 0.075(2) 0.8814(8) 0.9420(5)
C2 C 0.341(3) 0.8028(11) 0.8812(6)
H1 H 0.4213 0.8096 0.8980
O10 O 0.287(2) 0.9816(8) 0.9306(4)
N2 N 0.237(2) 0.7545(11) 0.8203(5)
O11 O 0.5720(19) 0.9109(8) 0.9148(4)
C6 C 0.760(2) 0.9079(11) 0.8666(6)
O14 O 0.7879(19) 0.9300(9) 0.9401(5)
C9 C 0.199(3) 0.8570(10) 0.9353(6)
C10 C 0.911(3) 0.9386(14) 0.8080(7)
H3 H 0.9763 0.9654 0.7977
C11 C 0.209(3) 0.8249(11) 0.8937(6)
C17 C 0.856(3) 0.9477(14) 0.8468(7)
H6 H 0.8809 0.9813 0.8614
N7 N 0.878(2) 0.8938(11) 0.7834(5)
C20 C 0.699(3) 0.9151(11) 0.9107(7)
C22 C 0.098(3) 0.8053(12) 0.8700(7)
H10 H 0.0074 0.8167 0.8779
C24 C 0.779(3) 0.8546(12) 0.8011(7)
H12 H 0.7554 0.8216 0.7856
C27 C 0.112(3) 0.7699(14) 0.8351(6)
H15 H 0.0308 0.7564 0.8216
C31 C 0.717(3) 0.8622(14) 0.8383(7)
H18 H 0.6439 0.8374 0.8464
C33 C 0.354(3) 0.7701(13) 0.8430(6)
H20 H 0.4432 0.7591 0.8334
C42 C 0.786(4) 0.7825(16) 0.9568(12)
H34 H 0.6907 0.7828 0.9463
H35 H 0.8265 0.7445 0.9530
H36 H 0.8419 0.8105 0.9414
Ce4 Ce 0.99357(13) 0.97123(5) 0.97814(3)
Cu5 Cu 0.9609(4) 0.88325(16) 0.72539(8)
Cu8 Cu 0.2562(4) 0.71585(16) 0.76100(9)
O2_2 O 0.1971(19) 0.1352(7) 0.4580(4)
O7_2 O 0.425(2) 0.1186(8) 0.4420(5)
C2_2 C 0.159(3) 0.1972(11) 0.3812(6)
H1_2 H 0.0787 0.1904 0.3980
O10_2 O 0.213(2) 0.0184(8) 0.4306(4)
N2_2 N 0.263(2) 0.2455(11) 0.3203(5)
C9_2 C 0.301(3) 0.1430(10) 0.4353(6)
C11_2 C 0.291(3) 0.1751(11) 0.3937(6)
C22_2 C 0.402(3) 0.1947(12) 0.3700(7)
H10_2 H 0.4926 0.1833 0.3779
C27_2 C 0.388(3) 0.2301(14) 0.3351(6)
H15_2 H 0.4692 0.2436 0.3216
C33_2 C 0.146(3) 0.2299(13) 0.3430(6)
H20_2 H 0.0568 0.2409 0.3334
H44_2 H 0.4360 0.0085 0.6807
Cu8_2 Cu 0.2438(4) 0.28415(16) 0.26100(9)
O20 O 0.625(2) 0.0116(11) 0.5467(5)
O21 O 0.7121(19) 0.0700(9) 0.4401(5)
I1_2 I 0.01412(19) 0.74540(7) 0.26994(4)
O1_2 O 0.4221(18) 0.9809(8) 0.4104(5)
C1_2 C 0.252(3) 0.9433(11) 0.5264(6)
O8_2 O 0.144(2) 0.9737(9) 0.5226(6)
C3_2 C 0.230(3) 0.9042(11) 0.0600(6)
N3_2 N 0.083(2) 0.9069(10) 0.2959(5)
N4_2 N 0.279(2) 0.8273(9) 0.6341(7)
O15_2 O 0.154(2) 0.9371(12) 0.7317(6)
C12_2 C 0.288(3) 0.9908(12) 0.4040(7)
N5_2 N 0.064(3) 0.8654(10) 0.1871(5)
O16_2 O 0.363(2) 0.9503(8) 0.5038(5)
C16_2 C 0.160(3) 0.8539(15) 0.6230(8)
H5_2 H 0.0799 0.8473 0.6395
H7_2 H 0.0078 0.8707 0.4227
C19_2 C 0.297(4) 0.9249(14) 0.3382(8)
H8_2 H 0.3918 0.9167 0.3433
C25_2 C 0.250(3) 0.8605(12) 0.1350(7)
H13_2 H 0.3404 0.8469 0.1284
C26_2 C 0.229(3) 0.9005(16) 0.3049(8)
H14_2 H 0.2823 0.8777 0.2865
C28_2 C 0.221(3) 0.9631(11) 0.3654(6)
C30_2 C 0.078(2) 0.9718(13) 0.3555(6)
H17_2 H 0.0215 0.9960 0.3723
C32_2 C 0.201(3) 0.8524(13) 0.1759(8)
H19_2 H 0.2631 0.8378 0.1964
C34_2 C 0.020(3) 0.9432(11) 0.3197(6)
C35_2 C 0.281(3) 0.9307(12) 0.7448(10)
C38_2 C 0.310(4) 0.8953(15) 0.7866(10)
H26_2 H 0.3486 0.9206 0.8080
H27_2 H 0.3758 0.8646 0.7808
H28_2 H 0.2221 0.8790 0.7967
C39_2 C 0.031(3) 0.9021(13) 0.1138(7)
C40_2 C 0.400(3) 0.8390(13) 0.6095(8)
H30_2 H 0.4851 0.8228 0.6183
N9_2 N 0.394(4) 0.9473(15) 0.7196(10)
C43_2 C 0.175(3) 0.8868(13) 0.1035(8)
C44 C 0.544(5) 0.941(2) 0.7380(13)
H37 H 0.5878 0.9782 0.7402
H38 H 0.5994 0.9163 0.7195
H39 H 0.5384 0.9233 0.7657
H40_2 H 0.0045 0.9921 0.6802
C47_2 C 0.375(6) 0.975(2) 0.6820(15)
H42_2 H 0.2777 0.9875 0.6798
H43_2 H 0.3969 0.9493 0.6590
C48_2 C 0.263(3) 0.9061(11) 0.5636(7)
C49_2 C 0.402(4) 0.8741(17) 0.5717(10)
H45_2 H 0.4805 0.8770 0.5539
C50_2 C 0.148(3) 0.8910(15) 0.5883(8)
H46_2 H 0.0592 0.9061 0.5815
I4_2 I 0.0272(2) 0.77070(8) 0.71816(4)
Cu7_2 Cu 0.2844(4) 0.76595(14) 0.68215(8)
O17 O 0.682(2) 0.9538(8) 0.4664(6)
O4_2 O 0.913(2) 0.1544(8) 0.4989(4)
O6_2 O 0.8533(19) 0.0412(8) 0.5376(4)
O11_2 O 0.9280(19) 0.0891(8) 0.4148(4)
C5_2 C 0.816(3) 0.1730(12) 0.5208(9)
C6_2 C 0.740(2) 0.0921(11) 0.3666(6)
C7_2 C 0.756(2) 0.0138(11) 0.5576(6)
C10_2 C 0.589(3) 0.0614(14) 0.3080(7)
H3_2 H 0.5237 0.0346 0.2977
C17_2 C 0.644(3) 0.0523(14) 0.3468(7)
H6_2 H 0.6191 0.0187 0.3614
C20_2 C 0.801(3) 0.0849(11) 0.4107(7)
C21_2 C 0.899(3) 0.0094(12) 0.6257(8)
H9_2 H 0.9360 0.0463 0.6211
C24_2 C 0.721(3) 0.1454(12) 0.3011(7)
H12_2 H 0.7446 0.1784 0.2856
C31_2 C 0.783(3) 0.1378(14) 0.3383(7)
H18_2 H 0.8561 0.1626 0.3464
C37_2 C 0.582(4) 0.2187(16) 0.5283(10)
H23_2 H 0.5767 0.1934 0.5526
H24 H 0.4980 0.2143 0.5114
H25_2 H 0.5898 0.2582 0.5378
N8_2 N 0.713(4) 0.2029(13) 0.5015(10)
C41_2 C 0.803(3) 0.1672(12) 0.5699(8)
H31_2 H 0.7255 0.1420 0.5769
H32_2 H 0.7871 0.2049 0.5822
H33_2 H 0.8898 0.1513 0.5812
C42_2 C 0.714(4) 0.2175(16) 0.4568(12)
H34_2 H 0.8093 0.2172 0.4463
H35_2 H 0.6735 0.2555 0.4530
H36_2 H 0.6581 0.1895 0.4414
I2_2 I 0.5272(2) 0.72930(8) 0.28184(4)
I3_2 I 0.7096(2) 0.89491(8) 0.24580(5)
Cu1_2 Cu 0.9854(4) 0.86077(14) 0.24859(7)
Cu3_2 Cu 0.7844(4) 0.73405(14) 0.31785(8)
Cu4_2 Cu 0.7562(4) 0.78415(16) 0.23900(9)
O9_2 O 0.9237(19) 0.9702(8) 0.4575(5)
N1_2 N 0.795(3) 0.8088(9) 0.3551(5)
C4_2 C 0.984(3) 0.8887(15) 0.1550(7)
H2_2 H 0.8889 0.8963 0.1612
C8_2 C 0.802(3) 0.9834(10) 0.5968(6)
C13_2 C 0.912(3) 0.8212(12) 0.3781(8)
H4_2 H 0.9924 0.7987 0.3731
C14_2 C 0.803(2) 0.9446(10) 0.4509(7)
N6_2 N 0.887(2) 0.9270(11) 0.6734(6)
C15_2 C 0.803(3) 0.8990(11) 0.4173(6)
C18_2 C 0.923(3) 0.8644(12) 0.4084(7)
C23_2 C 0.685(3) 0.8425(12) 0.3636(7)
H11_2 H 0.6039 0.8367 0.3472
C29_2 C 0.790(3) 0.9026(17) 0.6476(9)
H16_2 H 0.7517 0.8668 0.6551
H21_2 H 0.9259 0.9518 0.3129
C36_2 C 0.745(4) 0.9296(16) 0.6093(11)
H22_2 H 0.6773 0.9115 0.5923
H29_2 H 0.9718 0.9200 0.0940
C45_2 C 0.936(4) 0.9760(13) 0.6623(11)
C46_2 C 0.679(3) 0.8851(16) 0.3941(8)
H41_2 H 0.5938 0.9044 0.3995
Cu6_2 Cu 0.4609(4) 0.61675(16) 0.27461(8)
N10_2 N 0.737(2) 0.7455(11) 0.1797(5)
N11_2 N 0.779(2) 0.6727(9) 0.3659(7)
I3_3 I 0.2904(2) 0.39491(8) 0.25420(5)
Cu1_3 Cu 0.0146(4) 0.36077(14) 0.25141(7)
O3_2 O 0.318(2) 0.4538(8) 0.0336(6)
O4_3 O 0.087(2) 0.6544(8) 0.0011(4)
O9_3 O 0.0763(19) 0.4702(8) 0.0425(5)
N1_3 N 0.205(3) 0.3088(9) 0.1449(5)
C4_3 C 0.016(3) 0.3887(15) 0.3450(7)
H2_3 H 0.1111 0.3963 0.3388
O11_3 O 0.0720(19) 0.5891(8) 0.0852(4)
C6_3 C 0.260(2) 0.5921(11) 0.1334(6)
O14_2 O 0.2879(19) 0.5700(9) 0.0599(5)
C10_3 C 0.411(3) 0.5614(14) 0.1920(7)
H3_3 H 0.4763 0.5346 0.2023
C13_3 C 0.088(3) 0.3212(12) 0.1219(8)
H4_3 H 0.0076 0.2987 0.1269
C14_3 C 0.197(2) 0.4446(10) 0.0491(7)
C15_3 C 0.197(3) 0.3990(11) 0.0827(6)
C17_3 C 0.356(3) 0.5523(14) 0.1532(7)
H6_3 H 0.3809 0.5187 0.1386
C18_3 C 0.077(3) 0.3644(12) 0.0916(7)
N7_2 N 0.378(2) 0.6062(11) 0.2166(5)
C20_3 C 0.199(3) 0.5849(11) 0.0893(7)
C23_3 C 0.315(3) 0.3425(12) 0.1364(7)
H11_3 H 0.3961 0.3367 0.1528
C24_3 C 0.279(3) 0.6454(12) 0.1989(7)
H12_3 H 0.2554 0.6784 0.2144
C31_3 C 0.217(3) 0.6378(14) 0.1617(7)
H18_3 H 0.1439 0.6626 0.1536
H21_3 H 0.0741 0.4518 0.1871
H29_3 H 0.0282 0.4200 0.4060
C42_3 C 0.286(4) 0.7175(16) 0.0432(12)
H34_3 H 0.1907 0.7172 0.0537
H35_3 H 0.3265 0.7555 0.0470
H36_3 H 0.3419 0.6895 0.0586
C46_3 C 0.321(3) 0.3851(16) 0.1059(8)
H41_3 H 0.4062 0.4044 0.1005
Ce4_2 Ce 0.49357(13) 0.52877(5) 0.02186(3)
Ce5_2 Ce 0.00643(13) 0.47123(5) 0.52186(3)
O6_3 O 0.1467(19) 0.5412(8) 0.9624(4)
O13_2 O 0.375(2) 0.5116(11) 0.9533(5)
C5_3 C 0.184(3) 0.6730(12) 0.9792(9)
C7_3 C 0.244(2) 0.5138(11) 0.9424(6)
C8_3 C 0.198(3) 0.4834(10) 0.9032(6)
N6_3 N 0.113(2) 0.4270(11) 0.8266(6)
C21_3 C 0.101(3) 0.5094(12) 0.8743(8)
H9_3 H 0.0640 0.5463 0.8789
C29_3 C 0.210(3) 0.4026(17) 0.8524(9)
H16_3 H 0.2483 0.3668 0.8449
C36_3 C 0.255(4) 0.4296(16) 0.8907(11)
H22_3 H 0.3227 0.4115 0.9077
C37_3 C 0.418(4) 0.7187(16) 0.9717(10)
H23_3 H 0.4233 0.6934 0.9474
H24_2 H 0.5020 0.7143 0.9886
H25_3 H 0.4102 0.7582 0.9622
N8_3 N 0.287(4) 0.7029(13) 0.9985(10)
C41_3 C 0.197(3) 0.6672(12) 0.9301(8)
H31_3 H 0.2745 0.6420 0.9231
H32_3 H 0.2129 0.7049 0.9178
H33_3 H 0.1102 0.6513 0.9188
C45_3 C 0.064(4) 0.4760(13) 0.8377(11)
N12_2 N 0.122(2) 0.3938(11) 0.7166(5)
Ce1_2 Ce 0.96298(13) 0.55856(6) 0.01493(3)
I1_3 I 0.98588(19) 0.24540(7) 0.23006(4)
O1_3 O 0.5779(18) 0.4809(8) 0.0896(5)
O2_3 O 0.8029(19) 0.6352(7) 0.0420(4)
O5_2 O 0.6391(18) 0.4022(8) 0.4462(5)
O7_3 O 0.575(2) 0.6186(8) 0.0580(5)
C2_3 C 0.841(3) 0.6972(11) 0.1188(6)
H1_3 H 0.9213 0.6904 0.1020
O10_3 O 0.787(2) 0.5184(8) 0.0694(4)
C3_3 C 0.770(3) 0.4042(11) 0.4400(6)
O12_2 O 0.8609(18) 0.4229(8) 0.4670(4)
N3_3 N 0.917(2) 0.4069(10) 0.2041(5)
C9_3 C 0.699(3) 0.6430(10) 0.0647(6)
C11_3 C 0.709(3) 0.6751(11) 0.1063(6)
C12_3 C 0.712(3) 0.4908(12) 0.0960(7)
N5_3 N 0.936(3) 0.3654(10) 0.3129(5)
H7_3 H 0.9922 0.3707 0.0773
C19_3 C 0.703(4) 0.4249(14) 0.1618(8)
H8_3 H 0.6082 0.4167 0.1567
C22_3 C 0.598(3) 0.6947(12) 0.1300(7)
H10_3 H 0.5074 0.6833 0.1221
C25_3 C 0.750(3) 0.3605(12) 0.3650(7)
H13_3 H 0.6596 0.3469 0.3716
C26_3 C 0.771(3) 0.4005(16) 0.1951(8)
H14_3 H 0.7177 0.3777 0.2135
C27_3 C 0.612(3) 0.7301(14) 0.1649(6)
H15_3 H 0.5308 0.7436 0.1784
C28_3 C 0.779(3) 0.4631(11) 0.1346(6)
C30_3 C 0.922(2) 0.4718(13) 0.1445(6)
H17_3 H 0.9785 0.4960 0.1277
C32_3 C 0.799(3) 0.3524(13) 0.3241(8)
H19_3 H 0.7369 0.3378 0.3036
C33_3 C 0.854(3) 0.7299(13) 0.1570(6)
H20_3 H 0.9432 0.7409 0.1666
C34_3 C 0.980(3) 0.4432(11) 0.1803(6)
C39_3 C 0.969(3) 0.4021(13) 0.3862(7)
C43_3 C 0.825(3) 0.3868(13) 0.3965(8)
Ce3_2 Ce 0.53702(13) 0.44144(6) 0.51493(3)
C1_3 C 0.748(3) 0.4433(11) 0.9736(6)
O8_3 O 0.856(2) 0.4737(9) 0.9774(6)
O15_3 O 0.846(2) 0.4371(12) 0.7683(6)
O16_3 O 0.637(2) 0.4503(8) 0.9962(5)
C16_3 C 0.840(3) 0.3539(15) 0.8770(8)
H5_3 H 0.9201 0.3473 0.8605
C35_3 C 0.719(3) 0.4307(12) 0.7552(10)
C38_3 C 0.690(4) 0.3953(15) 0.7134(10)
H26_3 H 0.6514 0.4206 0.6920
H27_3 H 0.6242 0.3646 0.7192
H28_3 H 0.7779 0.3790 0.7033
C40_3 C 0.600(3) 0.3390(13) 0.8905(8)
H30_3 H 0.5149 0.3228 0.8817
N9_3 N 0.606(4) 0.4473(15) 0.7804(10)
C44_2 C 0.456(5) 0.441(2) 0.7620(13)
H37_2 H 0.4122 0.4782 0.7598
H38_2 H 0.4006 0.4163 0.7805
H39_2 H 0.4616 0.4233 0.7343
H40_3 H 0.9955 0.4921 0.8198
C47_3 C 0.625(6) 0.475(2) 0.8180(15)
H42_3 H 0.7223 0.4875 0.8202
H43_3 H 0.6031 0.4493 0.8410
H44_3 H 0.5640 0.5085 0.8193
C48_3 C 0.737(3) 0.4061(11) 0.9364(7)
C49_3 C 0.598(4) 0.3741(17) 0.9283(10)
H45_3 H 0.5195 0.3770 0.9461
C50_3 C 0.852(3) 0.3910(15) 0.9117(8)
H46_3 H 0.9408 0.4061 0.9185
O18_2 O 0.8609(18) 0.5978(8) 0.9462(5)
O19_2 O 0.6391(18) 0.5771(8) 0.9670(4)
C44_3 C 0.044(5) 0.559(2) 0.2620(13)
H37_3 H 0.0878 0.5218 0.2598
H38_3 H 0.0994 0.5837 0.2805
H39_3 H 0.0384 0.5767 0.2343
O17_2 O 0.182(2) 0.5462(8) 0.5336(6)
O20_2 O 0.125(2) 0.4884(11) 0.4533(5)
O21_2 O 0.2121(19) 0.4300(9) 0.5599(5)
I1_4 I 0.51412(19) 0.75460(7) 0.73006(4)
I3_4 I 0.2096(2) 0.60509(8) 0.75420(5)
Cu1_4 Cu 0.4854(4) 0.63923(14) 0.75141(7)
O1_4 O 0.9221(18) 0.5191(8) 0.5896(5)
O2_4 O 0.6971(19) 0.3648(7) 0.5420(4)
O4_4 O 0.413(2) 0.3456(8) 0.5011(4)
O6_4 O 0.3533(19) 0.4588(8) 0.4624(4)
O7_4 O 0.925(2) 0.3814(8) 0.5580(5)
C1_4 C 0.752(3) 0.5567(11) 0.4736(6)
O8_4 O 0.644(2) 0.5263(9) 0.4774(6)
C2_4 C 0.659(3) 0.3028(11) 0.6188(6)
H1_4 H 0.5787 0.3096 0.6020
O9_4 O 0.4237(19) 0.5298(8) 0.5425(5)
O10_4 O 0.713(2) 0.4816(8) 0.5694(4)
N1_4 N 0.295(3) 0.6912(9) 0.6449(5)
C3_4 C 0.730(3) 0.5958(11) 0.9400(6)
C4_4 C 0.484(3) 0.6113(15) 0.8450(7)
H2_4 H 0.3889 0.6037 0.8388
O11_4 O 0.4280(19) 0.4109(8) 0.5852(4)
C5_4 C 0.316(3) 0.3270(12) 0.4792(9)
C6_4 C 0.240(2) 0.4079(11) 0.6334(6)
N3_4 N 0.583(2) 0.5931(10) 0.7041(5)
C7_4 C 0.256(2) 0.4862(11) 0.4424(6)
C8_4 C 0.302(3) 0.5166(10) 0.4032(6)
C9_4 C 0.801(3) 0.3570(10) 0.5647(6)
C10_4 C 0.089(3) 0.4386(14) 0.6920(7)
H3_4 H 0.0237 0.4654 0.7023
O15_4 O 0.654(2) 0.5629(12) 0.2683(6)
C11_4 C 0.791(3) 0.3249(11) 0.6063(6)
C12_4 C 0.788(3) 0.5092(12) 0.5960(7)
N5_4 N 0.564(3) 0.6346(10) 0.8129(5)
C13_4 C 0.412(3) 0.6788(12) 0.6219(8)
H4_4 H 0.4924 0.7013 0.6269
C14_4 C 0.303(2) 0.5554(10) 0.5491(7)
O16_4 O 0.863(2) 0.5497(8) 0.4962(5)
N6_4 N 0.387(2) 0.5730(11) 0.3266(6)
C15_4 C 0.303(3) 0.6010(11) 0.5827(6)
C16_4 C 0.660(3) 0.6461(15) 0.3770(8)
H5_4 H 0.5799 0.6527 0.3605
C17_4 C 0.144(3) 0.4477(14) 0.6532(7)
H6_4 H 0.1191 0.4813 0.6386
C18_4 C 0.423(3) 0.6356(12) 0.5916(7)
H7_4 H 0.5078 0.6293 0.5773
C19_4 C 0.797(4) 0.5751(14) 0.6618(8)
H8_4 H 0.8918 0.5833 0.6567
C20_4 C 0.301(3) 0.4151(11) 0.5893(7)
C21_4 C 0.399(3) 0.4906(12) 0.3743(8)
H9_4 H 0.4360 0.4537 0.3789
C22_4 C 0.902(3) 0.3053(12) 0.6300(7)
H10_4 H 0.9926 0.3167 0.6221
C23_4 C 0.185(3) 0.6575(12) 0.6364(7)
H11_4 H 0.1039 0.6633 0.6528
C24_4 C 0.221(3) 0.3546(12) 0.6989(7)
H12_4 H 0.2446 0.3216 0.7144
C25_4 C 0.750(3) 0.6395(12) 0.8650(7)
H13_4 H 0.8404 0.6531 0.8716
C26_4 C 0.729(3) 0.5995(16) 0.6951(8)
H14_4 H 0.7823 0.6223 0.7135
C27_4 C 0.888(3) 0.2699(14) 0.6649(6)
H15_4 H 0.9692 0.2564 0.6784
C28_4 C 0.721(3) 0.5369(11) 0.6346(6)
C29_4 C 0.290(3) 0.5974(17) 0.3524(9)
H16_4 H 0.2517 0.6332 0.3449
C30_4 C 0.578(2) 0.5282(13) 0.6445(6)
H17_4 H 0.5215 0.5040 0.6277
C31_4 C 0.283(3) 0.3622(14) 0.6617(7)
H18_4 H 0.3561 0.3374 0.6536
C32_4 C 0.701(3) 0.6476(13) 0.8241(8)
H19_4 H 0.7631 0.6622 0.8036
C33_4 C 0.646(3) 0.2701(13) 0.6570(6)
H20_4 H 0.5568 0.2591 0.6666
C34_4 C 0.520(3) 0.5568(11) 0.6803(6)
H21_4 H 0.4259 0.5482 0.6871
C35_4 C 0.781(3) 0.5693(12) 0.2552(10)
C36_4 C 0.245(4) 0.5704(16) 0.3907(11)
H22_4 H 0.1773 0.5885 0.4077
C37_4 C 0.082(4) 0.2813(16) 0.4717(10)
H23_4 H 0.0767 0.3066 0.4474
H25_4 H 0.0898 0.2418 0.4622
C38_4 C 0.810(4) 0.6047(15) 0.2134(10)
H26_4 H 0.8486 0.5794 0.1920
H27_4 H 0.8758 0.6354 0.2192
H28_4 H 0.7221 0.6210 0.2033
C39_4 C 0.531(3) 0.5979(13) 0.8862(7)
H29_4 H 0.4718 0.5800 0.9060
C40_4 C 0.900(3) 0.6610(13) 0.3905(8)
H30_4 H 0.9851 0.6772 0.3817
N8_4 N 0.213(4) 0.2971(13) 0.4985(10)
C41_4 C 0.303(3) 0.3328(12) 0.4301(8)
H31_4 H 0.2255 0.3580 0.4231
H32_4 H 0.2871 0.2951 0.4178
H33_4 H 0.3898 0.3487 0.4188
N9_4 N 0.894(4) 0.5527(15) 0.2804(10)
C42_4 C 0.214(4) 0.2825(16) 0.5432(12)
H34_4 H 0.3093 0.2828 0.5537
H35_4 H 0.1735 0.2445 0.5470
H36_4 H 0.1581 0.3105 0.5586
C43_4 C 0.675(3) 0.6132(13) 0.8965(8)
C45_4 C 0.436(4) 0.5240(13) 0.3377(11)
H40_4 H 0.5045 0.5079 0.3198
C46_4 C 0.179(3) 0.6149(16) 0.6059(8)
H41_4 H 0.0938 0.5956 0.6005
C47_4 C 0.875(6) 0.525(2) 0.3180(15)
H42_4 H 0.7777 0.5125 0.3202
H43_4 H 0.8969 0.5507 0.3410
H44_4 H 0.9360 0.4915 0.3193
C48_4 C 0.763(3) 0.5939(11) 0.4364(7)
C49_4 C 0.902(4) 0.6259(17) 0.4283(10)
H45_4 H 0.9805 0.6230 0.4461
C50_4 C 0.648(3) 0.6090(15) 0.4117(8)
H46_4 H 0.5592 0.5939 0.4185
H24_3 H 0.9980 0.2857 0.4886
H24_4 H 0.0020 0.7857 0.0114
C44_4 C 0.956(5) 0.059(2) 0.2380(13)
H37_4 H 0.9122 0.0218 0.2402
H38_4 H 0.9006 0.0837 0.2195
H39_4 H 0.9616 0.0767 0.2657
loop_
_geom_bond_atom_site_label_1
_geom_bond_atom_site_label_2
_geom_bond_site_symmetry_1
_geom_bond_site_symmetry_2
Cu2 O15 1_555 1_555
C1 O8 1_555 1_555
N4 C16 1_555 1_555
O15 C35 1_555 1_555
N6 Cu2 1_555 1_555
C16 H5 1_555 1_555
C29 N6 1_555 1_555
H16 C29 1_555 1_555
C35 C38 1_555 1_555
C36 C8 1_555 1_555
H22 C36 1_555 1_555
C38 H26 1_555 1_555
H27 C38 1_555 1_555
H28 C38 1_555 1_555
C40 N4 1_555 1_555
H30 C40 1_555 1_555
N9 C35 1_555 1_555
C45 N6 1_555 1_555
H40 C45 1_555 1_555
C47 N9 1_555 1_555
H42 C47 1_555 1_555
H43 C47 1_555 1_555
C48 C1 1_555 1_555
C49 C40 1_555 1_555
H45 C49 1_555 1_555
C50 C16 1_555 1_555
H46 C50 1_555 1_555
I4 Cu2 1_555 1_555
Cu7 N4 1_555 1_555
N12 Cu2 1_555 1_555
C1 O16 1_555 1_555
C29 C36 1_555 1_555
C48 C49 1_555 1_555
C48 C50 1_555 1_555
I4 Cu7 1_555 1_555
I1 Cu1 1_555 1_555
I2 Cu3 1_555 1_555
I3 Cu1 1_555 1_555
Cu1 N3 1_555 1_555
Cu3 I1 1_555 1_555
Cu4 I1 1_555 1_555
O1 C12 1_555 1_555
O3 C14 1_555 1_555
O5 C3 1_555 1_555
N1 Cu3 1_555 1_555
C3 O12 1_555 1_555
C4 H2 1_555 1_555
O12 Ce5 1_555 1_555
N3 C26 1_555 1_555
N5 Cu1 1_555 1_555
C13 N1 1_555 1_555
H4 C13 1_555 1_555
C14 O9 1_555 1_555
C15 C14 1_555 1_555
C18 C13 1_555 1_555
H7 C18 1_555 1_555
C19 H8 1_555 1_555
C23 N1 1_555 1_555
H11 C23 1_555 1_555
C25 H13 1_555 1_555
C26 C19 1_555 1_555
H14 C26 1_555 1_555
C28 C12 1_555 1_555
C30 C28 1_555 1_555
H17 C30 1_555 1_555
C32 N5 1_555 1_555
H19 C32 1_555 1_555
C34 N3 1_555 1_555
H21 C34 1_555 1_555
C39 C4 1_555 1_555
H29 C39 1_555 1_555
C43 C3 1_555 1_555
C46 C15 1_555 1_555
H41 C46 1_555 1_555
Ce3 O5 1_555 1_555
N10 Cu4 1_555 1_555
N11 Cu3 1_555 1_555
I2 Cu4 1_555 1_555
I3 Cu4 1_555 1_555
C4 N5 1_555 1_555
C15 C18 1_555 1_555
C19 C28 1_555 1_555
C23 C46 1_555 1_555
C25 C32 1_555 1_555
C25 C43 1_555 1_555
C30 C34 1_555 1_555
C39 C43 1_555 1_555
O13 C7 1_555 1_555
C7 O6 1_555 1_555
H9 C21 1_555 1_555
C37 H23 1_555 1_555
H25 C37 1_555 1_555
N8 C5 1_555 1_555
C41 C5 1_555 1_555
H31 C41 1_555 1_555
H32 C41 1_555 1_555
H33 C41 1_555 1_555
C37 N8 1_555 1_555
Ce1 O2 1_555 1_555
O2 C9 1_555 1_555
O4 Ce1 1_555 1_555
C2 H1 1_555 1_555
O10 Ce1 1_555 1_555
N2 C27 1_555 1_555
O11 Ce1 1_555 1_555
C6 C17 1_555 1_555
O14 C20 1_555 1_555
C9 O7 1_555 1_555
C10 H3 1_555 1_555
C11 C2 1_555 1_555
C17 C10 1_555 1_555
H6 C17 1_555 1_555
N7 C10 1_555 1_555
C20 O11 1_555 1_555
C22 C11 1_555 1_555
H10 C22 1_555 1_555
C24 N7 1_555 1_555
H12 C24 1_555 1_555
C27 C22 1_555 1_555
H15 C27 1_555 1_555
C31 C6 1_555 1_555
H18 C31 1_555 1_555
C33 C2 1_555 1_555
H20 C33 1_555 1_555
H34 C42 1_555 1_555
H35 C42 1_555 1_555
H36 C42 1_555 1_555
Cu5 N7 1_555 1_555
Cu8 N2 1_555 1_555
N2 C33 1_555 1_555
C6 C20 1_555 1_555
O14 Ce4 1_555 1_555
C9 C11 1_555 1_555
C24 C31 1_555 1_555
Ce3 O2_2 1_555 1_555
O2_2 C9_2 1_555 1_555
O7_2 Ce5 1_555 1_555
C2_2 H1_2 1_555 1_555
O10_2 Ce3 1_555 1_555
N2_2 C27_2 1_555 1_555
C9_2 O7_2 1_555 1_555
C11_2 C2_2 1_555 1_555
C22_2 C11_2 1_555 1_555
H10_2 C22_2 1_555 1_555
C27_2 C22_2 1_555 1_555
H15_2 C27_2 1_555 1_555
C33_2 C2_2 1_555 1_555
H20_2 C33_2 1_555 1_555
Cu8_2 N2_2 1_555 1_555
O20 Ce5 1_555 1_555
O21 Ce5 1_555 1_555
N2_2 C33_2 1_555 1_555
C9_2 C11_2 1_555 1_555
O1_2 C12_2 1_555 1_555
O18 C3_2 1_555 1_555
C1_2 O8_2 1_555 1_555
C3_2 O19 1_555 1_555
N3_2 C26_2 1_555 1_555
N4_2 C16_2 1_555 1_555
O15_2 C35_2 1_555 1_555
C16_2 H5_2 1_555 1_555
C19_2 H8_2 1_555 1_555
C25_2 H13_2 1_555 1_555
C26_2 C19_2 1_555 1_555
H14_2 C26_2 1_555 1_555
C28_2 C12_2 1_555 1_555
C30_2 C28_2 1_555 1_555
H17_2 C30_2 1_555 1_555
C32_2 N5_2 1_555 1_555
H19_2 C32_2 1_555 1_555
C34_2 N3_2 1_555 1_555
C35_2 C38_2 1_555 1_555
C38_2 H26_2 1_555 1_555
H27_2 C38_2 1_555 1_555
H28_2 C38_2 1_555 1_555
C40_2 N4_2 1_555 1_555
H30_2 C40_2 1_555 1_555
N9_2 C35_2 1_555 1_555
C43_2 C3_2 1_555 1_555
C44 N9_2 1_555 1_555
H37 C44 1_555 1_555
H38 C44 1_555 1_555
H39 C44 1_555 1_555
C47_2 N9_2 1_555 1_555
H42_2 C47_2 1_555 1_555
H43_2 C47_2 1_555 1_555
C48_2 C1_2 1_555 1_555
C49_2 C40_2 1_555 1_555
H45_2 C49_2 1_555 1_555
C50_2 C16_2 1_555 1_555
H46_2 C50_2 1_555 1_555
Cu7_2 N4_2 1_555 1_555
C1_2 O16_2 1_555 1_555
C19_2 C28_2 1_555 1_555
C25_2 C32_2 1_555 1_555
C25_2 C43_2 1_555 1_555
C30_2 C34_2 1_555 1_555
C39_2 C43_2 1_555 1_555
C48_2 C49_2 1_555 1_555
C48_2 C50_2 1_555 1_555
I4_2 Cu7_2 1_555 1_555
O20 C7_2 1_555 1_555
C5_2 O4_2 1_555 1_555
C6_2 C17_2 1_555 1_555
O21 C20_2 1_555 1_555
C7_2 O6_2 1_555 1_555
C10_2 H3_2 1_555 1_555
C17_2 C10_2 1_555 1_555
H6_2 C17_2 1_555 1_555
N12 C10_2 1_555 1_555
C20_2 O11_2 1_555 1_555
H9_2 C21_2 1_555 1_555
C24_2 N12 1_555 1_555
H12_2 C24_2 1_555 1_555
C31_2 C6_2 1_555 1_555
H18_2 C31_2 1_555 1_555
C37_2 H23_2 1_555 1_555
H24 C37_2 1_555 1_555
H25_2 C37_2 1_555 1_555
N8_2 C5_2 1_555 1_555
C41_2 C5_2 1_555 1_555
H31_2 C41_2 1_555 1_555
H32_2 C41_2 1_555 1_555
H33_2 C41_2 1_555 1_555
C42_2 N8_2 1_555 1_555
H34_2 C42_2 1_555 1_555
H35_2 C42_2 1_555 1_555
H36_2 C42_2 1_555 1_555
C6_2 C20_2 1_555 1_555
C24_2 C31_2 1_555 1_555
C37_2 N8_2 1_555 1_555
I2_2 Cu3_2 1_555 1_555
I3_2 Cu1_2 1_555 1_555
O17 C14_2 1_555 1_555
N1_2 Cu3_2 1_555 1_555
C4_2 H2_2 1_555 1_555
C13_2 N1_2 1_555 1_555
H4_2 C13_2 1_555 1_555
C14_2 O9_2 1_555 1_555
N6_2 Cu5 1_555 1_555
C15_2 C14_2 1_555 1_555
C18_2 C13_2 1_555 1_555
C23_2 N1_2 1_555 1_555
H11_2 C23_2 1_555 1_555
C29_2 N6_2 1_555 1_555
H16_2 C29_2 1_555 1_555
C36_2 C8_2 1_555 1_555
H22_2 C36_2 1_555 1_555
C45_2 N6_2 1_555 1_555
C46_2 C15_2 1_555 1_555
H41_2 C46_2 1_555 1_555
Cu6_2 I2_2 1_555 1_555
N10_2 Cu4_2 1_555 1_555
N11_2 Cu3_2 1_555 1_555
I2_2 Cu4_2 1_555 1_555
I3_2 Cu4_2 1_555 1_555
C15_2 C18_2 1_555 1_555
C23_2 C46_2 1_555 1_555
C29_2 C36_2 1_555 1_555
I3_3 Cu1_3 1_555 1_555
O3_2 C14_3 1_555 1_555
N1_3 Cu7 1_555 1_555
C4_3 H2_3 1_555 1_555
C6_3 C17_3 1_555 1_555
O14_2 C20_3 1_555 1_555
C10_3 H3_3 1_555 1_555
C13_3 N1_3 1_555 1_555
H4_3 C13_3 1_555 1_555
C14_3 O9_3 1_555 1_555
C15_3 C14_3 1_555 1_555
C17_3 C10_3 1_555 1_555
H6_3 C17_3 1_555 1_555
C18_3 C13_3 1_555 1_555
N7_2 C10_3 1_555 1_555
C20_3 O11_3 1_555 1_555
C23_3 N1_3 1_555 1_555
H11_3 C23_3 1_555 1_555
C24_3 N7_2 1_555 1_555
H12_3 C24_3 1_555 1_555
C31_3 C6_3 1_555 1_555
H18_3 C31_3 1_555 1_555
H34_3 C42_3 1_555 1_555
H35_3 C42_3 1_555 1_555
H36_3 C42_3 1_555 1_555
C46_3 C15_3 1_555 1_555
H41_3 C46_3 1_555 1_555
Ce4_2 O3_2 1_555 1_555
Cu6_2 N7_2 1_555 1_555
I4 Cu8_2 1_555 1_555
I3_3 Cu8_2 1_555 1_555
C6_3 C20_3 1_555 1_555
O14_2 Ce4_2 1_555 1_555
C15_3 C18_3 1_555 1_555
C23_3 C46_3 1_555 1_555
C24_3 C31_3 1_555 1_555
O13_2 C7_3 1_555 1_555
C7_3 O6_3 1_555 1_555
C8_3 C7_3 1_555 1_555
N6_3 Cu6 1_555 1_555
C21_3 C8_3 1_555 1_555
H9_3 C21_3 1_555 1_555
C29_3 N6_3 1_555 1_555
H16_3 C29_3 1_555 1_555
C36_3 C8_3 1_555 1_555
H22_3 C36_3 1_555 1_555
C37_3 H23_3 1_555 1_555
H24_2 C37_3 1_555 1_555
H25_3 C37_3 1_555 1_555
N8_3 C5_3 1_555 1_555
C41_3 C5_3 1_555 1_555
H31_3 C41_3 1_555 1_555
H32_3 C41_3 1_555 1_555
H33_3 C41_3 1_555 1_555
C45_3 N6_3 1_555 1_555
N12_2 Cu6 1_555 1_555
C21_3 C45_3 1_555 1_555
C29_3 C36_3 1_555 1_555
C37_3 N8_3 1_555 1_555
Ce1_2 O2_3 1_555 1_555
Ce4_2 O1_3 1_555 1_555
O1_3 C12_3 1_555 1_555
O2_3 C9_3 1_555 1_555
O5_2 C3_3 1_555 1_555
O7_3 Ce4_2 1_555 1_555
C2_3 H1_3 1_555 1_555
O10_3 Ce1_2 1_555 1_555
N10_2 C27_3 1_555 1_555
C3_3 O12_2 1_555 1_555
N3_3 C26_3 1_555 1_555
C9_3 O7_3 1_555 1_555
C11_3 C2_3 1_555 1_555
C12_3 O10_3 1_555 1_555
C19_3 H8_3 1_555 1_555
C22_3 C11_3 1_555 1_555
H10_3 C22_3 1_555 1_555
C25_3 H13_3 1_555 1_555
C26_3 C19_3 1_555 1_555
H14_3 C26_3 1_555 1_555
C27_3 C22_3 1_555 1_555
H15_3 C27_3 1_555 1_555
C28_3 C12_3 1_555 1_555
C30_3 C28_3 1_555 1_555
H17_3 C30_3 1_555 1_555
C32_3 N5_3 1_555 1_555
H19_3 C32_3 1_555 1_555
C33_3 C2_3 1_555 1_555
H20_3 C33_3 1_555 1_555
C34_3 N3_3 1_555 1_555
C43_3 C3_3 1_555 1_555
Ce3_2 O5_2 1_555 1_555
N10_2 C33_3 1_555 1_555
C9_3 C11_3 1_555 1_555
C19_3 C28_3 1_555 1_555
C25_3 C32_3 1_555 1_555
C25_3 C43_3 1_555 1_555
C30_3 C34_3 1_555 1_555
C39_3 C43_3 1_555 1_555
C1_3 O8_3 1_555 1_555
N11 C16_3 1_555 1_555
O15_3 C35_3 1_555 1_555
C16_3 H5_3 1_555 1_555
C35_3 C38_3 1_555 1_555
C38_3 H26_3 1_555 1_555
H27_3 C38_3 1_555 1_555
H28_3 C38_3 1_555 1_555
C40_3 N11 1_555 1_555
H30_3 C40_3 1_555 1_555
N9_3 C35_3 1_555 1_555
C44_2 N9_3 1_555 1_555
H37_2 C44_2 1_555 1_555
H38_2 C44_2 1_555 1_555
H39_2 C44_2 1_555 1_555
C47_3 N9_3 1_555 1_555
H42_3 C47_3 1_555 1_555
H43_3 C47_3 1_555 1_555
H44_3 C47_3 1_555 1_555
C48_3 C1_3 1_555 1_555
C49_3 C40_3 1_555 1_555
H45_3 C49_3 1_555 1_555
C50_3 C16_3 1_555 1_555
H46_3 C50_3 1_555 1_555
C1_3 O16_3 1_555 1_555
C48_3 C49_3 1_555 1_555
C48_3 C50_3 1_555 1_555
H37_3 C44_3 1_555 1_555
H38_3 C44_3 1_555 1_555
H39_3 C44_3 1_555 1_555
O17_2 Ce5_2 1_555 1_555
O20_2 Ce5_2 1_555 1_555
O21_2 Ce5_2 1_555 1_555
Ce3_2 O2_4 1_555 1_555
I1_4 Cu1_4 1_555 1_555
I3_4 Cu1_4 1_555 1_555
Cu1_4 N3_4 1_555 1_555
Cu6_2 O15_4 1_555 1_555
Cu7_2 I1_4 1_555 1_555
Cu8 I1_4 1_555 1_555
O1_4 C12_4 1_555 1_555
O2_4 C9_4 1_555 1_555
O17_2 C14_4 1_555 1_555
O4_4 Ce3_2 1_555 1_555
O18_2 C3_4 1_555 1_555
O6_4 Ce3_2 1_555 1_555
C1_4 O8_4 1_555 1_555
O8_4 Ce3_2 1_555 1_555
C2_4 H1_4 1_555 1_555
O9_4 Ce3_2 1_555 1_555
O10_4 Ce3_2 1_555 1_555
N1_4 Cu7_2 1_555 1_555
N10 C27_4 1_555 1_555
C3_4 O19_2 1_555 1_555
C4_4 H2_4 1_555 1_555
O11_4 Ce3_2 1_555 1_555
O20_2 C7_4 1_555 1_555
C5_4 O4_4 1_555 1_555
C6_4 C17_4 1_555 1_555
O21_2 C20_4 1_555 1_555
N3_4 C26_4 1_555 1_555
C7_4 O6_4 1_555 1_555
N11_2 C16_4 1_555 1_555
C8_4 C7_4 1_555 1_555
C9_4 O7_4 1_555 1_555
C10_4 H3_4 1_555 1_555
O15_4 C35_4 1_555 1_555
C11_4 C2_4 1_555 1_555
C12_4 O10_4 1_555 1_555
N5_4 Cu1_4 1_555 1_555
C13_4 N1_4 1_555 1_555
H4_4 C13_4 1_555 1_555
C14_4 O9_4 1_555 1_555
N6_4 Cu6_2 1_555 1_555
C15_4 C14_4 1_555 1_555
C16_4 H5_4 1_555 1_555
C17_4 C10_4 1_555 1_555
H6_4 C17_4 1_555 1_555
C18_4 C13_4 1_555 1_555
H7_4 C18_4 1_555 1_555
C19_4 H8_4 1_555 1_555
N12_2 C10_4 1_555 1_555
C20_4 O11_4 1_555 1_555
C21_4 C8_4 1_555 1_555
H9_4 C21_4 1_555 1_555
C22_4 C11_4 1_555 1_555
H10_4 C22_4 1_555 1_555
C23_4 N1_4 1_555 1_555
H11_4 C23_4 1_555 1_555
C24_4 N12_2 1_555 1_555
H12_4 C24_4 1_555 1_555
C25_4 H13_4 1_555 1_555
C26_4 C19_4 1_555 1_555
H14_4 C26_4 1_555 1_555
C27_4 C22_4 1_555 1_555
H15_4 C27_4 1_555 1_555
C28_4 C12_4 1_555 1_555
C29_4 N6_4 1_555 1_555
H16_4 C29_4 1_555 1_555
C30_4 C28_4 1_555 1_555
H17_4 C30_4 1_555 1_555
C31_4 C6_4 1_555 1_555
H18_4 C31_4 1_555 1_555
C32_4 N5_4 1_555 1_555
H19_4 C32_4 1_555 1_555
C33_4 C2_4 1_555 1_555
H20_4 C33_4 1_555 1_555
C34_4 N3_4 1_555 1_555
H21_4 C34_4 1_555 1_555
C35_4 C38_4 1_555 1_555
C36_4 C8_4 1_555 1_555
H22_4 C36_4 1_555 1_555
C37_4 H23_4 1_555 1_555
H25_4 C37_4 1_555 1_555
C38_4 H26_4 1_555 1_555
H27_4 C38_4 1_555 1_555
H28_4 C38_4 1_555 1_555
C39_4 C4_4 1_555 1_555
H29_4 C39_4 1_555 1_555
C40_4 N11_2 1_555 1_555
H30_4 C40_4 1_555 1_555
N8_4 C5_4 1_555 1_555
C41_4 C5_4 1_555 1_555
H31_4 C41_4 1_555 1_555
H32_4 C41_4 1_555 1_555
H33_4 C41_4 1_555 1_555
N9_4 C35_4 1_555 1_555
C42_4 N8_4 1_555 1_555
H34_4 C42_4 1_555 1_555
H35_4 C42_4 1_555 1_555
H36_4 C42_4 1_555 1_555
C43_4 C3_4 1_555 1_555
C45_4 N6_4 1_555 1_555
H40_4 C45_4 1_555 1_555
C46_4 C15_4 1_555 1_555
H41_4 C46_4 1_555 1_555
C47_4 N9_4 1_555 1_555
H42_4 C47_4 1_555 1_555
H43_4 C47_4 1_555 1_555
H44_4 C47_4 1_555 1_555
C48_4 C1_4 1_555 1_555
C49_4 C40_4 1_555 1_555
H45_4 C49_4 1_555 1_555
C50_4 C16_4 1_555 1_555
H46_4 C50_4 1_555 1_555
I4_2 Cu8 1_555 1_555
I3_4 Cu8 1_555 1_555
C1_4 O16_4 1_555 1_555
N10 C33_4 1_555 1_555
C4_4 N5_4 1_555 1_555
C6_4 C20_4 1_555 1_555
C9_4 C11_4 1_555 1_555
C15_4 C18_4 1_555 1_555
C19_4 C28_4 1_555 1_555
C21_4 C45_4 1_555 1_555
C23_4 C46_4 1_555 1_555
C24_4 C31_4 1_555 1_555
C25_4 C32_4 1_555 1_555
C25_4 C43_4 1_555 1_555
C29_4 C36_4 1_555 1_555
C30_4 C34_4 1_555 1_555
C37_4 N8_4 1_555 1_555
C39_4 C43_4 1_555 1_555
C48_4 C49_4 1_555 1_555
C48_4 C50_4 1_555 1_555
H37_4 C44_4 1_555 1_555
H38_4 C44_4 1_555 1_555
H39_4 C44_4 1_555 1_555

#END
