
###############################################################################
#
# This file contains modified crystal structure data generated from the
# MOF subset of the Cambridge Structural Database (CSD) v543 
# hosted by the Cambridge Crystallographic Data Centre (CCDC).
#
# This work is licensed under the Creative Commons
# Attribution-NonCommercial-ShareAlike 4.0 International License.
# To view a copy of this license, visit
# http://creativecommons.org/licenses/by-nc-sa/4.0/
# or send a letter to
# Creative Commons, PO Box 1866, Mountain View, CA 94042, USA.
#
# CIF created using the CSD Python API on 29 September 2022
# The structure has been converted into the P1 space group
# The structure has a 3D framework
# The original CSD entry TEBKUJ is in the orthorhombic crystal system
# The original CSD entry TEBKUJ is in a Sohncke space group
# The framework has been calculated to contain at least 10.0% void space
# The void calculation uses a probe of radius 1.32A, grid spacing 0.4
#
###############################################################################

data_TEBKUJ
_chemical_formula_moiety         '(C200 H184 Cu14 I12 N36 O64 Pr6)n'
_symmetry_cell_setting           triclinic
_symmetry_space_group_name_H-M   'P 1'
_symmetry_Int_Tables_number      1
_space_group_name_Hall           'P 1'
loop_
_symmetry_equiv_pos_site_id
_symmetry_equiv_pos_as_xyz
1 x,y,z
_cell_length_a                   9.357(4)
_cell_length_b                   22.932(10)
_cell_length_c                   31.089(13)
_cell_angle_alpha                90
_cell_angle_beta                 90
_cell_angle_gamma                90
_cell_volume                     6670.91
loop_
_atom_site_label
_atom_site_type_symbol
_atom_site_fract_x
_atom_site_fract_y
_atom_site_fract_z
H20 H 0.0076 0.2890 0.4891
Cu8 Cu 0.0404(3) 0.88333(13) 0.72503(7)
N12 N 0.1264(16) 0.8933(8) 0.7831(5)
N13 N 0.1091(17) 0.9252(9) 0.6727(5)
Pr4 Pr 0.03862(9) 0.55850(4) 0.01521(3)
Pr5 Pr 0.50754(9) 0.52915(4) 0.02209(3)
O1 O 0.1312(15) 0.5488(7) 0.4963(4)
O2 O 0.0737(12) 0.3831(6) 0.5587(4)
O3 O 0.0797(12) 0.5167(6) 0.5900(4)
O7 O 0.1348(13) 0.4223(6) 0.4678(4)
C1 C 0.2427(18) 0.5542(8) 0.4740(5)
C2 C 0.1987(19) 0.3595(8) 0.5646(5)
C3 C 0.211(2) 0.5094(9) 0.5960(7)
O8 O 0.3523(12) 0.5235(6) 0.4771(5)
C4 C 0.235(2) 0.5945(10) 0.4365(6)
O9 O 0.3048(14) 0.3636(6) 0.5427(4)
C5 C 0.210(2) 0.3221(9) 0.6065(5)
C6 C 0.280(2) 0.5374(9) 0.6343(6)
O10 O 0.2883(13) 0.4819(6) 0.5686(3)
O11 O 0.3580(13) 0.4017(6) 0.4468(4)
Pr2 Pr 0.46138(9) 0.44150(4) 0.51521(3)
C7 C 0.349(2) 0.6071(10) 0.4128(7)
C8 C 0.107(2) 0.6249(10) 0.4303(7)
C9 C 0.091(2) 0.3065(9) 0.6301(6)
C10 C 0.3425(19) 0.3030(9) 0.6188(5)
C11 C 0.204(2) 0.5741(9) 0.6628(6)
C12 C 0.4217(19) 0.5275(10) 0.6449(6)
O12 O 0.5834(14) 0.3467(6) 0.5011(4)
O13 O 0.6431(13) 0.4587(6) 0.4641(4)
O14 O 0.5702(13) 0.4107(6) 0.5852(4)
O15 O 0.5792(12) 0.5298(6) 0.5430(4)
C13 C 0.338(2) 0.6420(10) 0.3769(7)
H1 H 0.4381 0.5922 0.4206
C14 C 0.104(2) 0.6615(11) 0.3904(7)
H2 H 0.0309 0.6227 0.4494
H3 H 0.0006 0.3196 0.6226
C15 C 0.1121(19) 0.2709(9) 0.6650(5)
H4 H 0.4225 0.3117 0.6023
C16 C 0.356(2) 0.2704(9) 0.6566(5)
H5 H 0.1056 0.5794 0.6596
C17 C 0.274(2) 0.6011(10) 0.6943(6)
C18 C 0.481(2) 0.5545(9) 0.6807(6)
H6 H 0.4773 0.5029 0.6280
C19 C 0.686(2) 0.3269(10) 0.4808(9)
C20 C 0.7367(19) 0.4863(7) 0.4428(5)
C21 C 0.7011(16) 0.4168(8) 0.5893(6)
C22 C 0.6973(19) 0.5558(9) 0.5498(6)
H7 H 0.4164 0.6452 0.3587
N1 N 0.215(2) 0.6723(8) 0.3668(5)
H8 H 0.0168 0.6774 0.3820
N2 N 0.2402(16) 0.2530(7) 0.6799(4)
H9 H 0.0313 0.2581 0.6796
H10 H 0.4468 0.2602 0.6661
N3 N 0.4099(16) 0.5916(8) 0.7041(5)
H11 H 0.2245 0.6285 0.7105
H12 H 0.5747 0.5458 0.6883
N4 N 0.791(2) 0.2965(9) 0.4984(7)
C23 C 0.684(2) 0.3354(11) 0.4312(8)
C24 C 0.698(2) 0.5157(10) 0.4035(6)
C25 C 0.762(2) 0.4101(9) 0.6327(6)
C26 C 0.6957(19) 0.6017(9) 0.5824(6)
Cu1 Cu 0.2159(3) 0.73412(11) 0.31825(7)
Cu2 Cu 0.2564(3) 0.21629(12) 0.73936(8)
Cu3 Cu 0.5129(3) 0.63974(11) 0.75139(7)
C27 C 0.778(3) 0.2810(10) 0.5436(8)
C28 C 0.924(2) 0.2795(10) 0.4728(8)
H13 H 0.5872 0.3380 0.4213
H14 H 0.7304 0.3029 0.4176
H15 H 0.7341 0.3707 0.4240
C29 C 0.598(2) 0.4905(10) 0.3751(7)
C30 C 0.754(2) 0.5702(10) 0.3910(7)
C31 C 0.857(2) 0.4470(10) 0.6542(6)
C32 C 0.725(2) 0.3621(10) 0.6615(6)
C33 C 0.575(2) 0.6360(9) 0.5916(6)
C34 C 0.8188(19) 0.6126(9) 0.6065(6)
I1 I 0.79031(14) 0.60525(6) 0.75398(4)
I2 I 0.48575(13) 0.75487(6) 0.72983(4)
N5 N 0.4380(15) 0.6353(8) 0.8130(5)
H16 H 0.8094 0.3132 0.5610
H17 H 0.8371 0.2476 0.5495
H18 H 0.6806 0.2721 0.5501
H19 H 0.9219 0.2384 0.4671
H21 H 0.9247 0.3005 0.4460
C35 C 0.565(3) 0.5236(9) 0.3389(8)
H22 H 0.5564 0.4544 0.3802
C36 C 0.705(2) 0.5967(10) 0.3544(6)
H23 H 0.8245 0.5881 0.4076
C37 C 0.913(2) 0.4414(10) 0.6926(6)
H24 H 0.8838 0.4803 0.6392
H25 H 0.6573 0.3353 0.6521
C38 C 0.780(2) 0.3541(10) 0.6992(6)
H26 H 0.4885 0.6286 0.5777
C39 C 0.584(2) 0.6806(9) 0.6211(6)
C40 C 0.816(2) 0.6578(9) 0.6365(6)
H27 H 0.9008 0.5903 0.6026
C41 C 0.519(2) 0.6129(10) 0.8440(5)
C42 C 0.299(2) 0.6466(11) 0.8251(6)
N6 N 0.6091(17) 0.5748(9) 0.3273(5)
H28 H 0.5012 0.5061 0.3199
H29 H 0.7425 0.6333 0.3479
N7 N 0.8736(16) 0.3933(8) 0.7169(5)
H30 H 0.9766 0.4688 0.7033
H31 H 0.7555 0.3209 0.7148
N8 N 0.7017(17) 0.6922(7) 0.6445(5)
H32 H 0.5040 0.7041 0.6252
H33 H 0.8985 0.6647 0.6522
I3 I 0.97313(14) 0.77080(6) 0.71778(4)
C43 C 0.4737(18) 0.5987(9) 0.8855(6)
H34 H 0.6143 0.6060 0.8374
C44 C 0.246(2) 0.6349(10) 0.8646(6)
H35 H 0.2381 0.6632 0.8049
Cu4 Cu 0.5404(3) 0.61667(13) 0.27497(7)
H36 H 0.5350 0.5807 0.9049
C45 C 0.3324(19) 0.6125(9) 0.8967(6)
H37 H 0.1503 0.6421 0.8704
O16 O 0.8435(18) 0.9377(8) 0.7308(6)
C46 C 0.2729(19) 0.5953(7) 0.9413(6)
C47 C 0.719(2) 0.9282(10) 0.7442(8)
N9 N 0.609(3) 0.9467(13) 0.7223(10)
C48 C 0.695(3) 0.8958(12) 0.7869(9)
C49 C 0.461(2) 0.9434(12) 0.7383(9)
C50 C 0.630(3) 0.9723(13) 0.6828(9)
H38 H 0.6651 0.9230 0.8086
H39 H 0.7819 0.8772 0.7957
H40 H 0.6218 0.8668 0.7831
H41 H 0.4584 0.9201 0.7640
H42 H 0.4012 0.9260 0.7168
H43 H 0.4271 0.9819 0.7447
H45 H 0.5394 0.9811 0.6699
H46 H 0.6819 0.9460 0.6645
O17 O 0.8689(14) 0.4857(7) 0.4531(4)
O18 O 0.7859(13) 0.4297(6) 0.5593(4)
O19 O 0.8163(12) 0.5450(6) 0.5337(4)
Pr3 Pr 0.99246(9) 0.47085(4) 0.52209(3)
Cu5 Cu 0.7436(3) 0.71629(12) 0.76064(8)
Cu6 Cu 0.7159(3) 0.76588(11) 0.68175(7)
N10 N 0.7598(16) 0.7530(7) 0.8201(4)
N11 N 0.715(2) 0.8277(8) 0.6332(5)
Cu7 Cu 0.9596(3) 0.38333(13) 0.77497(7)
O20 O 0.1420(13) 0.5983(6) 0.9468(4)
O21 O 0.3652(13) 0.5777(6) 0.9678(4)
O2_2 O 0.4263(12) 0.6169(6) 0.0587(4)
O3_2 O 0.4203(12) 0.4833(6) 0.0900(4)
O4 O 0.6837(12) 0.4550(6) 0.0337(4)
O6 O 0.7141(13) 0.5703(6) 0.0593(4)
C2_2 C 0.3013(19) 0.6405(8) 0.0646(5)
C3_2 C 0.289(2) 0.4906(9) 0.0960(7)
O9_2 O 0.1952(14) 0.6364(6) 0.0427(4)
C5_2 C 0.290(2) 0.6779(9) 0.1065(5)
C6_2 C 0.220(2) 0.4626(9) 0.1343(6)
O10_2 O 0.2117(13) 0.5181(6) 0.0686(3)
C9_2 C 0.409(2) 0.6935(9) 0.1301(6)
C10_2 C 0.1575(19) 0.6970(9) 0.1188(5)
C11_2 C 0.296(2) 0.4259(9) 0.1628(6)
C12_2 C 0.0783(19) 0.4725(10) 0.1449(6)
H3_2 H 0.4994 0.6804 0.1226
C15_2 C 0.3879(19) 0.7291(9) 0.1650(5)
H4_2 H 0.0775 0.6883 0.1023
C16_2 C 0.144(2) 0.7296(9) 0.1566(5)
H5_2 H 0.3944 0.4206 0.1596
C17_2 C 0.226(2) 0.3989(10) 0.1943(6)
C18_2 C 0.019(2) 0.4455(9) 0.1807(6)
H6_2 H 0.0227 0.4971 0.1280
N2_2 N 0.2598(16) 0.7470(7) 0.1799(4)
H9_2 H 0.4687 0.7419 0.1796
H10_2 H 0.0532 0.7398 0.1661
N3_2 N 0.0901(16) 0.4084(8) 0.2041(5)
H11_2 H 0.2755 0.3715 0.2105
Cu2_2 Cu 0.2436(3) 0.78371(12) 0.23936(8)
I2_2 I 0.01425(13) 0.24513(6) 0.22983(4)
N5_2 N 0.0620(15) 0.3647(8) 0.3130(5)
H26_2 H 0.0115 0.3714 0.0777
C42_2 C 0.201(2) 0.3534(11) 0.3251(6)
C43_2 C 0.0263(18) 0.4013(9) 0.3855(6)
C44_2 C 0.254(2) 0.3651(10) 0.3646(6)
H35_2 H 0.2619 0.3368 0.3049
C45_2 C 0.1676(19) 0.3875(9) 0.3967(6)
H37_2 H 0.3497 0.3579 0.3704
C46_2 C 0.2271(19) 0.4047(7) 0.4413(6)
C49_2 C 0.039(2) 0.0566(12) 0.2383(9)
H41_2 H 0.0416 0.0799 0.2640
H42_2 H 0.0988 0.0740 0.2168
H43_2 H 0.0729 0.0181 0.2447
O1_2 O 0.3688(15) 0.4512(7) 0.9963(4)
O5 O 0.6311(14) 0.5143(7) 0.9531(4)
C1_2 C 0.2573(18) 0.4458(8) 0.9740(5)
O8_2 O 0.1477(12) 0.4765(6) 0.9771(5)
C4_2 C 0.265(2) 0.4055(10) 0.9365(6)
C7_2 C 0.151(2) 0.3929(10) 0.9128(7)
C8_2 C 0.393(2) 0.3751(10) 0.9303(7)
C13_2 C 0.162(2) 0.3580(10) 0.8769(7)
H1_2 H 0.0619 0.4078 0.9206
C14_2 C 0.396(2) 0.3385(11) 0.8904(7)
H2_2 H 0.4691 0.3773 0.9494
H7_2 H 0.0836 0.3548 0.8587
N1_2 N 0.285(2) 0.3277(8) 0.8668(5)
H8_2 H 0.4832 0.3226 0.8820
Cu1_2 Cu 0.2841(3) 0.26588(11) 0.81825(7)
O12_2 O 0.9166(14) 0.6533(6) 0.0011(4)
O14_2 O 0.9298(13) 0.5893(6) 0.0852(4)
O15_2 O 0.9208(12) 0.4702(6) 0.0430(4)
C21_2 C 0.7989(16) 0.5832(8) 0.0893(6)
C22_2 C 0.8027(19) 0.4442(9) 0.0498(6)
H12_2 H 0.9253 0.4542 0.1883
C25_2 C 0.738(2) 0.5899(9) 0.1327(6)
C26_2 C 0.8043(19) 0.3983(9) 0.0824(6)
Cu3_2 Cu 0.9871(3) 0.36026(11) 0.25139(7)
C27_2 C 0.722(3) 0.7190(10) 0.0436(8)
C31_2 C 0.643(2) 0.5530(10) 0.1542(6)
C32_2 C 0.775(2) 0.6379(10) 0.1615(6)
C33_2 C 0.925(2) 0.3640(9) 0.0916(6)
C34_2 C 0.6812(19) 0.3874(9) 0.1065(6)
I1_2 I 0.70969(14) 0.39475(6) 0.25398(4)
H16_2 H 0.6906 0.6868 0.0610
H17_2 H 0.6629 0.7524 0.0495
H18_2 H 0.8194 0.7279 0.0501
C37_2 C 0.587(2) 0.5586(10) 0.1926(6)
H24_2 H 0.6162 0.5197 0.1392
H25_2 H 0.8427 0.6647 0.1521
C38_2 C 0.720(2) 0.6459(10) 0.1992(6)
C39_2 C 0.916(2) 0.3194(9) 0.1211(6)
C40_2 C 0.684(2) 0.3422(9) 0.1365(6)
H27_2 H 0.5992 0.4097 0.1026
C41_2 C 0.981(2) 0.3871(10) 0.3440(5)
N7_2 N 0.6264(16) 0.6067(8) 0.2169(5)
H30_2 H 0.5234 0.5312 0.2033
H31_2 H 0.7445 0.6791 0.2148
N8_2 N 0.7983(17) 0.3078(7) 0.1445(5)
H32_2 H 0.9960 0.2959 0.1252
H33_2 H 0.6015 0.3353 0.1522
I3_2 I 0.52687(14) 0.22920(6) 0.21778(4)
H34_2 H 0.8857 0.3940 0.3374
H36_2 H 0.9650 0.4193 0.4049
O16_2 O 0.6565(18) 0.0623(8) 0.2308(6)
C47_2 C 0.781(2) 0.0718(10) 0.2442(8)
N9_2 N 0.891(3) 0.0533(13) 0.2223(10)
C48_2 C 0.805(3) 0.1042(12) 0.2869(9)
C50_2 C 0.870(3) 0.0277(13) 0.1828(9)
H38_2 H 0.8349 0.0770 0.3086
H39_2 H 0.7181 0.1228 0.2957
H40_2 H 0.8782 0.1332 0.2831
H45_2 H 0.9606 0.0189 0.1699
H46_2 H 0.8181 0.0540 0.1645
Cu5_2 Cu 0.7564(3) 0.28371(12) 0.26064(8)
Cu6_2 Cu 0.7841(3) 0.23412(11) 0.18175(7)
N10_2 N 0.7402(16) 0.2470(7) 0.3201(4)
N11_2 N 0.785(2) 0.1723(8) 0.1332(5)
Cu8_2 Cu 0.4596(3) 0.11667(13) 0.22503(7)
N12_2 N 0.3736(16) 0.1067(8) 0.2831(5)
N13_2 N 0.3909(17) 0.0748(9) 0.1727(5)
O13_2 O 0.8569(13) 0.5413(6) 0.9641(4)
C19_2 C 0.814(2) 0.6731(10) 0.9808(9)
C20_2 C 0.7633(19) 0.5137(7) 0.9428(5)
N4_2 N 0.709(2) 0.7035(9) 0.9984(7)
C23_2 C 0.816(2) 0.6646(11) 0.9312(8)
C24_2 C 0.802(2) 0.4843(10) 0.9035(6)
C28_2 C 0.576(2) 0.7205(10) 0.9728(8)
H13_2 H 0.9128 0.6620 0.9213
H14_2 H 0.7696 0.6971 0.9176
H15_2 H 0.7659 0.6293 0.9240
C29_2 C 0.902(2) 0.5095(10) 0.8751(7)
C30_2 C 0.746(2) 0.4298(10) 0.8910(7)
H19_2 H 0.5781 0.7616 0.9671
H20_2 H 0.4924 0.7110 0.9891
H21_2 H 0.5753 0.6995 0.9460
C35_2 C 0.935(3) 0.4764(9) 0.8389(8)
H22_2 H 0.9436 0.5456 0.8802
C36_2 C 0.795(2) 0.4033(10) 0.8544(6)
H23_2 H 0.6755 0.4119 0.9076
N6_2 N 0.8909(17) 0.4252(9) 0.8273(5)
H28_2 H 0.9988 0.4939 0.8199
H29_2 H 0.7575 0.3667 0.8479
O12_3 O 0.0834(14) 0.1533(6) 0.4989(4)
O13_3 O 0.1431(13) 0.0413(6) 0.5359(4)
O14_3 O 0.0702(13) 0.0893(6) 0.4148(4)
C19_3 C 0.186(2) 0.1731(10) 0.5192(9)
C20_3 C 0.2367(19) 0.0137(7) 0.5572(5)
C21_3 C 0.2011(16) 0.0832(8) 0.4107(6)
N4_3 N 0.291(2) 0.2035(9) 0.5016(7)
C23_3 C 0.184(2) 0.1646(11) 0.5688(8)
C25_3 C 0.262(2) 0.0899(9) 0.3673(6)
C27_3 C 0.278(3) 0.2190(10) 0.4564(8)
C28_3 C 0.424(2) 0.2205(10) 0.5272(8)
H13_3 H 0.0872 0.1620 0.5787
H14_3 H 0.2304 0.1971 0.5824
H15_3 H 0.2341 0.1293 0.5760
C29_3 C 0.098(2) 0.0095(10) 0.6249(7)
C31_3 C 0.357(2) 0.0530(10) 0.3458(6)
C32_3 C 0.225(2) 0.1379(10) 0.3385(6)
H16_3 H 0.3094 0.1868 0.4390
H17_3 H 0.3371 0.2524 0.4505
H18_3 H 0.1806 0.2279 0.4499
H19_3 H 0.4219 0.2616 0.5329
H20_3 H 0.5076 0.2110 0.5109
H21_3 H 0.4247 0.1995 0.5540
H22_3 H 0.0564 0.0456 0.6198
C37_3 C 0.413(2) 0.0586(10) 0.3074(6)
H24_3 H 0.3838 0.0197 0.3608
H25_3 H 0.1573 0.1647 0.3479
C38_3 C 0.280(2) 0.1459(10) 0.3008(6)
H30_3 H 0.4766 0.0312 0.2967
H31_3 H 0.2555 0.1791 0.2852
O17_2 O 0.3689(14) 0.0143(7) 0.5469(4)
O18_2 O 0.2859(13) 0.0703(6) 0.4407(4)
Pr3_2 Pr 0.49246(9) 0.02915(4) 0.47791(3)
O15_3 O 0.0792(12) 0.9702(6) 0.4570(4)
C22_3 C 0.1973(19) 0.9442(9) 0.4502(6)
H12_3 H 0.0747 0.9542 0.3117
C24_3 C 0.198(2) 0.9843(10) 0.5965(6)
C26_3 C 0.1957(19) 0.8983(9) 0.4176(6)
Cu3_3 Cu 0.0129(3) 0.86026(11) 0.24861(7)
C30_3 C 0.254(2) 0.9298(10) 0.6090(7)
C33_3 C 0.075(2) 0.8640(9) 0.4084(6)
C34_3 C 0.3188(19) 0.8874(9) 0.3935(6)
I1_3 I 0.29031(14) 0.89475(6) 0.24602(4)
C35_3 C 0.065(3) 0.9764(9) 0.6611(8)
C36_3 C 0.205(2) 0.9033(10) 0.6456(6)
H23_3 H 0.3245 0.9119 0.5924
C39_3 C 0.084(2) 0.8194(9) 0.3789(6)
C40_3 C 0.316(2) 0.8422(9) 0.3635(6)
H27_3 H 0.4008 0.9097 0.3974
C41_3 C 0.019(2) 0.8871(10) 0.1560(5)
H28_3 H 0.0012 0.9939 0.6801
H29_3 H 0.2425 0.8667 0.6521
N8_3 N 0.2017(17) 0.8078(7) 0.3555(5)
H32_3 H 0.0040 0.7959 0.3748
H33_3 H 0.3985 0.8353 0.3478
I3_3 I 0.47313(14) 0.72920(6) 0.28222(4)
H34_3 H 0.1143 0.8940 0.1626
H36_3 H 0.0350 0.9193 0.0951
O16_3 O 0.3435(18) 0.5623(8) 0.2692(6)
C47_3 C 0.219(2) 0.5718(10) 0.2558(8)
N9_3 N 0.109(3) 0.5533(13) 0.2777(10)
C48_3 C 0.195(3) 0.6042(12) 0.2131(9)
C50_3 C 0.130(3) 0.5277(13) 0.3172(9)
H38_3 H 0.1651 0.5770 0.1914
H39_3 H 0.2819 0.6228 0.2043
H40_3 H 0.1218 0.6332 0.2169
H44 H 0.1839 0.4924 0.3136
H45_3 H 0.0394 0.5189 0.3301
H46_3 H 0.1819 0.5540 0.3355
O19_2 O 0.3163(12) 0.9550(6) 0.4663(4)
Pr5_2 Pr 0.00754(9) 0.97085(4) 0.97791(3)
O2_3 O 0.5737(12) 0.1169(6) 0.4413(4)
O7_2 O 0.6348(13) 0.0777(6) 0.5322(4)
C2_3 C 0.6987(19) 0.1405(8) 0.4354(5)
O9_3 O 0.8048(14) 0.1364(6) 0.4573(4)
C5_3 C 0.710(2) 0.1779(9) 0.3935(5)
O10_3 O 0.7883(13) 0.0181(6) 0.4314(3)
O11_2 O 0.8580(13) 0.0983(6) 0.5532(4)
Pr2_2 Pr 0.96138(9) 0.05850(4) 0.48479(3)
C9_3 C 0.591(2) 0.1935(9) 0.3699(6)
C10_3 C 0.8425(19) 0.1970(9) 0.3812(5)
H3_3 H 0.5006 0.1804 0.3774
C15_3 C 0.6121(19) 0.2291(9) 0.3350(5)
H4_3 H 0.9225 0.1883 0.3977
C16_3 C 0.856(2) 0.2296(9) 0.3434(5)
H9_3 H 0.5313 0.2419 0.3204
H10_3 H 0.9468 0.2398 0.3339
O1_3 O 0.6312(15) 0.9512(7) 0.5037(4)
O3_3 O 0.5797(12) 0.9833(6) 0.4100(4)
C1_3 C 0.7427(18) 0.9458(8) 0.5260(5)
C3_3 C 0.711(2) 0.9906(9) 0.4040(7)
O8_3 O 0.8523(12) 0.9765(6) 0.5229(5)
C4_3 C 0.735(2) 0.9055(10) 0.5635(6)
C6_3 C 0.780(2) 0.9626(9) 0.3657(6)
C7_3 C 0.849(2) 0.8929(10) 0.5872(7)
C8_3 C 0.607(2) 0.8751(10) 0.5697(7)
C11_3 C 0.704(2) 0.9259(9) 0.3372(6)
C12_3 C 0.9217(19) 0.9725(10) 0.3551(6)
C13_3 C 0.838(2) 0.8580(10) 0.6231(7)
H1_3 H 0.9381 0.9078 0.5794
C14_3 C 0.604(2) 0.8385(11) 0.6096(7)
H2_3 H 0.5309 0.8773 0.5506
H5_3 H 0.6056 0.9206 0.3404
C17_3 C 0.774(2) 0.8989(10) 0.3057(6)
C18_3 C 0.981(2) 0.9455(9) 0.3193(6)
H6_3 H 0.9773 0.9971 0.3720
H7_3 H 0.9164 0.8548 0.6413
H8_3 H 0.5168 0.8226 0.6180
N3_3 N 0.9099(16) 0.9084(8) 0.2959(5)
H11_3 H 0.7245 0.8715 0.2895
I2_3 I 0.98575(13) 0.74513(6) 0.27017(4)
N5_3 N 0.9380(15) 0.8647(8) 0.1870(5)
H26_3 H 0.9885 0.8714 0.4223
C42_3 C 0.799(2) 0.8534(11) 0.1749(6)
C43_3 C 0.9737(18) 0.9013(9) 0.1145(6)
C44_3 C 0.746(2) 0.8651(10) 0.1354(6)
H35_3 H 0.7381 0.8368 0.1951
C45_3 C 0.8324(19) 0.8875(9) 0.1033(6)
H37_3 H 0.6503 0.8579 0.1296
C46_3 C 0.7729(19) 0.9047(7) 0.0587(6)
C49_3 C 0.961(2) 0.5566(12) 0.2617(9)
H41_3 H 0.9584 0.5799 0.2360
H42_3 H 0.9012 0.5740 0.2832
H43_3 H 0.9271 0.5181 0.2553
O20_2 O 0.6420(13) 0.9017(6) 0.0532(4)
O21_2 O 0.8652(13) 0.9223(6) 0.0322(4)
Pr4_2 Pr 0.53862(9) 0.94150(4) 0.98479(3)
O4_2 O 0.1837(12) 0.0450(6) 0.9663(4)
O5_2 O 0.1311(14) 0.9857(7) 0.0469(4)
O6_2 O 0.2141(13) 0.9297(6) 0.9407(4)
O1_4 O 0.8688(15) 0.0488(7) 0.0037(4)
C1_4 C 0.7573(18) 0.0542(8) 0.0260(5)
O8_4 O 0.6477(12) 0.0235(6) 0.0229(5)
C4_4 C 0.765(2) 0.0945(10) 0.0635(6)
C7_4 C 0.651(2) 0.1071(10) 0.0872(7)
C8_4 C 0.893(2) 0.1249(10) 0.0697(7)
C13_4 C 0.662(2) 0.1420(10) 0.1231(7)
H1_4 H 0.5619 0.0922 0.0794
C14_4 C 0.896(2) 0.1615(11) 0.1096(7)
H2_4 H 0.9691 0.1227 0.0506
H7_4 H 0.5836 0.1452 0.1413
H8_4 H 0.9832 0.1774 0.1180
C24_4 C 0.302(2) 0.0157(10) 0.0965(6)
C30_4 C 0.246(2) 0.0702(10) 0.1090(7)
C35_4 C 0.435(3) 0.0236(9) 0.1611(8)
C36_4 C 0.295(2) 0.0967(10) 0.1456(6)
H23_4 H 0.1755 0.0881 0.0924
H28_4 H 0.4988 0.0061 0.1801
H29_4 H 0.2575 0.1333 0.1521
O3_4 O 0.9203(12) 0.0167(6) 0.9100(4)
C3_4 C 0.789(2) 0.0094(9) 0.9040(7)
C6_4 C 0.720(2) 0.0374(9) 0.8657(6)
C11_4 C 0.796(2) 0.0741(9) 0.8372(6)
C12_4 C 0.5783(19) 0.0275(10) 0.8551(6)
O15_4 O 0.4208(12) 0.0298(6) 0.9570(4)
H5_4 H 0.8944 0.0794 0.8404
C17_4 C 0.726(2) 0.1011(10) 0.8057(6)
C18_4 C 0.519(2) 0.0545(9) 0.8193(6)
H6_4 H 0.5227 0.0029 0.8720
C22_4 C 0.3027(19) 0.0558(9) 0.9502(6)
N3_4 N 0.5901(16) 0.0916(8) 0.7959(5)
H11_4 H 0.7755 0.1285 0.7895
H12_4 H 0.4253 0.0458 0.8117
C26_4 C 0.3043(19) 0.1017(9) 0.9176(6)
Cu3_4 Cu 0.4871(3) 0.13974(11) 0.74861(7)
C33_4 C 0.425(2) 0.1360(9) 0.9084(6)
C34_4 C 0.1812(19) 0.1126(9) 0.8935(6)
I1_4 I 0.20969(14) 0.10525(6) 0.74602(4)
I2_4 I 0.51425(13) 0.25487(6) 0.77017(4)
N5_4 N 0.5620(15) 0.1353(8) 0.6870(5)
H26_4 H 0.5115 0.1286 0.9223
C39_4 C 0.416(2) 0.1806(9) 0.8789(6)
C40_4 C 0.184(2) 0.1578(9) 0.8635(6)
H27_4 H 0.0992 0.0903 0.8974
C41_4 C 0.481(2) 0.1129(10) 0.6560(5)
C42_4 C 0.701(2) 0.1466(11) 0.6749(6)
N8_4 N 0.2983(17) 0.1922(7) 0.8555(5)
H32_4 H 0.4960 0.2041 0.8748
H33_4 H 0.1015 0.1647 0.8478
I3_4 I 0.02687(14) 0.27080(6) 0.78222(4)
C43_4 C 0.5263(18) 0.0987(9) 0.6145(6)
H34_4 H 0.3857 0.1060 0.6626
C44_4 C 0.754(2) 0.1349(10) 0.6354(6)
H35_4 H 0.7619 0.1632 0.6951
H36_4 H 0.4650 0.0807 0.5951
C45_4 C 0.6676(19) 0.1125(9) 0.6033(6)
H37_4 H 0.8497 0.1421 0.6296
O16_4 O 0.1565(18) 0.4377(8) 0.7692(6)
C46_4 C 0.7271(19) 0.0953(7) 0.5587(6)
C47_4 C 0.281(2) 0.4282(10) 0.7558(8)
N9_4 N 0.391(3) 0.4467(13) 0.7777(10)
C48_4 C 0.305(3) 0.3958(12) 0.7131(9)
C49_4 C 0.539(2) 0.4434(12) 0.7617(9)
C50_4 C 0.370(3) 0.4723(13) 0.8172(9)
H38_4 H 0.3349 0.4230 0.6914
H39_4 H 0.2181 0.3772 0.7043
H40_4 H 0.3782 0.3668 0.7169
H41_4 H 0.5416 0.4201 0.7360
H42_4 H 0.5988 0.4260 0.7832
H43_4 H 0.5729 0.4819 0.7553
H44_2 H 0.3161 0.5076 0.8136
H45_4 H 0.4606 0.4811 0.8301
H46_4 H 0.3181 0.4460 0.8355
O13_4 O 0.3569(13) 0.9587(6) 0.0359(4)
C19_4 C 0.314(2) 0.8269(10) 0.0192(9)
C20_4 C 0.2633(19) 0.9863(7) 0.0572(5)
N4_4 N 0.209(2) 0.7965(9) 0.0016(7)
C23_4 C 0.316(2) 0.8354(11) 0.0688(8)
C28_4 C 0.076(2) 0.7795(10) 0.0272(8)
H13_4 H 0.4128 0.8380 0.0787
H14_4 H 0.2696 0.8029 0.0824
H15_4 H 0.2659 0.8707 0.0760
C29_4 C 0.402(2) 0.9905(10) 0.1249(7)
H19_4 H 0.0781 0.7384 0.0329
H21_4 H 0.0753 0.8005 0.0540
H22_4 H 0.4436 0.9544 0.1198
O2_4 O 0.9263(12) 0.8831(6) 0.9413(4)
C2_4 C 0.8013(19) 0.8595(8) 0.9354(5)
O9_4 O 0.6952(14) 0.8636(6) 0.9573(4)
C5_4 C 0.790(2) 0.8221(9) 0.8935(5)
O10_4 O 0.7117(13) 0.9819(6) 0.9314(3)
C9_4 C 0.909(2) 0.8065(9) 0.8699(6)
C10_4 C 0.6575(19) 0.8030(9) 0.8812(5)
O12_4 O 0.4166(14) 0.8467(6) 0.9989(4)
O14_4 O 0.4298(13) 0.9107(6) 0.9148(4)
H3_4 H 0.9994 0.8196 0.8774
C15_4 C 0.8879(19) 0.7709(9) 0.8350(5)
H4_4 H 0.5775 0.8117 0.8977
C16_4 C 0.644(2) 0.7704(9) 0.8434(5)
C21_4 C 0.2989(16) 0.9168(8) 0.9107(6)
H9_4 H 0.9687 0.7581 0.8204
H10_4 H 0.5532 0.7602 0.8339
C25_4 C 0.238(2) 0.9101(9) 0.8673(6)
C27_4 C 0.222(3) 0.7810(10) 0.9564(8)
C31_4 C 0.143(2) 0.9470(10) 0.8458(6)
C32_4 C 0.275(2) 0.8621(10) 0.8385(6)
H16_4 H 0.1906 0.8132 0.9390
H17_4 H 0.1629 0.7476 0.9505
H18_4 H 0.3194 0.7721 0.9499
C37_4 C 0.087(2) 0.9414(10) 0.8074(6)
H24_4 H 0.1162 0.9803 0.8608
H25_4 H 0.3427 0.8353 0.8479
C38_4 C 0.220(2) 0.8541(10) 0.8008(6)
H30_4 H 0.0234 0.9688 0.7967
H31_4 H 0.2445 0.8209 0.7852
H44_3 H 0.6839 0.0076 0.6864
H44_4 H 0.8161 0.9924 0.1864
H20_4 H 0.9924 0.7890 0.0109
loop_
_geom_bond_atom_site_label_1
_geom_bond_atom_site_label_2
_geom_bond_site_symmetry_1
_geom_bond_site_symmetry_2
N12 Cu8 1_555 1_555
N13 Cu8 1_555 1_555
O1 C1 1_555 1_555
C1 O8 1_555 1_555
C2 O2 1_555 1_555
C3 O3 1_555 1_555
O8 Pr2 1_555 1_555
C4 C1 1_555 1_555
O9 C2 1_555 1_555
C5 C2 1_555 1_555
C6 C3 1_555 1_555
O10 C3 1_555 1_555
O11 Pr2 1_555 1_555
Pr2 O9 1_555 1_555
C7 C4 1_555 1_555
C8 C4 1_555 1_555
C9 C5 1_555 1_555
C10 C5 1_555 1_555
C11 C6 1_555 1_555
C12 C6 1_555 1_555
O12 Pr2 1_555 1_555
O13 Pr2 1_555 1_555
O14 Pr2 1_555 1_555
O15 Pr2 1_555 1_555
C13 C7 1_555 1_555
H1 C7 1_555 1_555
C14 C8 1_555 1_555
H2 C8 1_555 1_555
H3 C9 1_555 1_555
C15 C9 1_555 1_555
H4 C10 1_555 1_555
C16 C10 1_555 1_555
H5 C11 1_555 1_555
C17 C11 1_555 1_555
C18 C12 1_555 1_555
H6 C12 1_555 1_555
C19 O12 1_555 1_555
C20 O13 1_555 1_555
C21 O14 1_555 1_555
C22 O15 1_555 1_555
H7 C13 1_555 1_555
N1 C13 1_555 1_555
H8 C14 1_555 1_555
N2 C15 1_555 1_555
H9 C15 1_555 1_555
H10 C16 1_555 1_555
N3 C17 1_555 1_555
H11 C17 1_555 1_555
H12 C18 1_555 1_555
N4 C19 1_555 1_555
C23 C19 1_555 1_555
C24 C20 1_555 1_555
C25 C21 1_555 1_555
C26 C22 1_555 1_555
Cu1 N1 1_555 1_555
Cu2 N2 1_555 1_555
Cu3 N3 1_555 1_555
C27 N4 1_555 1_555
C28 N4 1_555 1_555
H13 C23 1_555 1_555
H14 C23 1_555 1_555
H15 C23 1_555 1_555
C29 C24 1_555 1_555
C30 C24 1_555 1_555
C31 C25 1_555 1_555
C32 C25 1_555 1_555
C33 C26 1_555 1_555
C34 C26 1_555 1_555
I1 Cu3 1_555 1_555
I2 Cu3 1_555 1_555
N5 Cu3 1_555 1_555
H16 C27 1_555 1_555
H17 C27 1_555 1_555
H18 C27 1_555 1_555
H19 C28 1_555 1_555
H21 C28 1_555 1_555
C35 C29 1_555 1_555
H22 C29 1_555 1_555
C36 C30 1_555 1_555
H23 C30 1_555 1_555
C37 C31 1_555 1_555
H24 C31 1_555 1_555
H25 C32 1_555 1_555
C38 C32 1_555 1_555
H26 C33 1_555 1_555
C39 C33 1_555 1_555
C40 C34 1_555 1_555
H27 C34 1_555 1_555
C41 N5 1_555 1_555
C42 N5 1_555 1_555
N6 C35 1_555 1_555
H28 C35 1_555 1_555
H29 C36 1_555 1_555
N7 C37 1_555 1_555
H30 C37 1_555 1_555
H31 C38 1_555 1_555
N8 C39 1_555 1_555
H32 C39 1_555 1_555
H33 C40 1_555 1_555
I3 Cu5 1_555 1_555
C43 C41 1_555 1_555
H34 C41 1_555 1_555
C44 C42 1_555 1_555
H35 C42 1_555 1_555
Cu4 N6 1_555 1_555
H36 C43 1_555 1_555
C45 C43 1_555 1_555
H37 C44 1_555 1_555
O16 C47 1_555 1_555
C46 C45 1_555 1_555
C47 N9 1_555 1_555
N9 C49 1_555 1_555
C48 C47 1_555 1_555
C49 H41 1_555 1_555
C50 N9 1_555 1_555
H38 C48 1_555 1_555
H39 C48 1_555 1_555
H40 C48 1_555 1_555
H42 C49 1_555 1_555
H43 C49 1_555 1_555
H45 C50 1_555 1_555
H46 C50 1_555 1_555
O17 C20 1_555 1_555
O18 C21 1_555 1_555
O19 C22 1_555 1_555
Pr3 O17 1_555 1_555
Cu5 I1 1_555 1_555
Cu6 I2 1_555 1_555
N10 Cu5 1_555 1_555
N11 Cu6 1_555 1_555
Cu7 N7 1_555 1_555
O20 C46 1_555 1_555
O21 C46 1_555 1_555
O10 Pr2 1_555 1_555
C14 N1 1_555 1_555
C16 N2 1_555 1_555
C18 N3 1_555 1_555
I2 Cu5 1_555 1_555
C36 N6 1_555 1_555
C38 N7 1_555 1_555
C40 N8 1_555 1_555
N8 Cu6 1_555 1_555
I3 Cu6 1_555 1_555
C44 C45 1_555 1_555
O18 Pr3 1_555 1_555
O19 Pr3 1_555 1_555
O2_2 Pr5 1_555 1_555
O3_2 Pr5 1_555 1_555
O4 Pr5 1_555 1_555
O6 Pr5 1_555 1_555
C2_2 O2_2 1_555 1_555
C3_2 O3_2 1_555 1_555
O9_2 C2_2 1_555 1_555
C5_2 C2_2 1_555 1_555
C6_2 C3_2 1_555 1_555
O10_2 C3_2 1_555 1_555
Pr4 O9_2 1_555 1_555
C9_2 C5_2 1_555 1_555
C10_2 C5_2 1_555 1_555
C11_2 C6_2 1_555 1_555
C12_2 C6_2 1_555 1_555
H3_2 C9_2 1_555 1_555
C15_2 C9_2 1_555 1_555
H4_2 C10_2 1_555 1_555
C16_2 C10_2 1_555 1_555
H5_2 C11_2 1_555 1_555
C17_2 C11_2 1_555 1_555
C18_2 C12_2 1_555 1_555
H6_2 C12_2 1_555 1_555
N2_2 C15_2 1_555 1_555
H9_2 C15_2 1_555 1_555
H10_2 C16_2 1_555 1_555
N3_2 C17_2 1_555 1_555
H11_2 C17_2 1_555 1_555
Cu2_2 N2_2 1_555 1_555
C42_2 N5_2 1_555 1_555
C44_2 C42_2 1_555 1_555
H35_2 C42_2 1_555 1_555
C45_2 C43_2 1_555 1_555
H37_2 C44_2 1_555 1_555
C46_2 C45_2 1_555 1_555
C49_2 H41_2 1_555 1_555
H42_2 C49_2 1_555 1_555
H43_2 C49_2 1_555 1_555
O11 C46_2 1_555 1_555
O7 C46_2 1_555 1_555
O10_2 Pr4 1_555 1_555
C16_2 N2_2 1_555 1_555
C18_2 N3_2 1_555 1_555
C44_2 C45_2 1_555 1_555
O1_2 C1_2 1_555 1_555
C1_2 O8_2 1_555 1_555
C4_2 C1_2 1_555 1_555
C7_2 C4_2 1_555 1_555
C8_2 C4_2 1_555 1_555
C13_2 C7_2 1_555 1_555
H1_2 C7_2 1_555 1_555
C14_2 C8_2 1_555 1_555
H2_2 C8_2 1_555 1_555
H7_2 C13_2 1_555 1_555
N1_2 C13_2 1_555 1_555
H8_2 C14_2 1_555 1_555
Cu1_2 N1_2 1_555 1_555
C14_2 N1_2 1_555 1_555
C21_2 O14_2 1_555 1_555
C22_2 O15_2 1_555 1_555
C25_2 C21_2 1_555 1_555
C26_2 C22_2 1_555 1_555
C31_2 C25_2 1_555 1_555
C32_2 C25_2 1_555 1_555
C33_2 C26_2 1_555 1_555
C34_2 C26_2 1_555 1_555
I1_2 Cu3_2 1_555 1_555
H16_2 C27_2 1_555 1_555
H17_2 C27_2 1_555 1_555
H18_2 C27_2 1_555 1_555
C37_2 C31_2 1_555 1_555
H24_2 C31_2 1_555 1_555
H25_2 C32_2 1_555 1_555
C38_2 C32_2 1_555 1_555
C39_2 C33_2 1_555 1_555
C40_2 C34_2 1_555 1_555
H27_2 C34_2 1_555 1_555
N7_2 C37_2 1_555 1_555
H30_2 C37_2 1_555 1_555
H31_2 C38_2 1_555 1_555
N8_2 C39_2 1_555 1_555
H32_2 C39_2 1_555 1_555
H33_2 C40_2 1_555 1_555
I3_2 Cu5_2 1_555 1_555
H34_2 C41_2 1_555 1_555
O16_2 C47_2 1_555 1_555
C47_2 N9_2 1_555 1_555
C48_2 C47_2 1_555 1_555
C50_2 N9_2 1_555 1_555
H38_2 C48_2 1_555 1_555
H39_2 C48_2 1_555 1_555
H40_2 C48_2 1_555 1_555
H45_2 C50_2 1_555 1_555
H46_2 C50_2 1_555 1_555
O6 C21_2 1_555 1_555
O4 C22_2 1_555 1_555
Cu5_2 I1_2 1_555 1_555
N10_2 Cu5_2 1_555 1_555
N11_2 Cu6_2 1_555 1_555
Cu4 N7_2 1_555 1_555
Cu8_2 I3_2 1_555 1_555
N12_2 Cu8_2 1_555 1_555
N13_2 Cu8_2 1_555 1_555
C38_2 N7_2 1_555 1_555
C40_2 N8_2 1_555 1_555
N8_2 Cu6_2 1_555 1_555
I3_2 Cu6_2 1_555 1_555
O16_2 Cu8_2 1_555 1_555
C20_2 O13_2 1_555 1_555
N4_2 C19_2 1_555 1_555
C23_2 C19_2 1_555 1_555
C24_2 C20_2 1_555 1_555
C28_2 N4_2 1_555 1_555
H13_2 C23_2 1_555 1_555
H14_2 C23_2 1_555 1_555
H15_2 C23_2 1_555 1_555
C29_2 C24_2 1_555 1_555
C30_2 C24_2 1_555 1_555
H19_2 C28_2 1_555 1_555
H20_2 C28_2 1_555 1_555
H21_2 C28_2 1_555 1_555
C35_2 C29_2 1_555 1_555
H22_2 C29_2 1_555 1_555
C36_2 C30_2 1_555 1_555
H23_2 C30_2 1_555 1_555
N6_2 C35_2 1_555 1_555
H28_2 C35_2 1_555 1_555
H29_2 C36_2 1_555 1_555
Cu7 N6_2 1_555 1_555
O5 C20_2 1_555 1_555
C36_2 N6_2 1_555 1_555
C19_3 O12_3 1_555 1_555
C20_3 O13_3 1_555 1_555
C21_3 O14_3 1_555 1_555
N4_3 C19_3 1_555 1_555
C23_3 C19_3 1_555 1_555
C25_3 C21_3 1_555 1_555
C27_3 N4_3 1_555 1_555
C28_3 N4_3 1_555 1_555
H13_3 C23_3 1_555 1_555
H14_3 C23_3 1_555 1_555
H15_3 C23_3 1_555 1_555
C31_3 C25_3 1_555 1_555
C32_3 C25_3 1_555 1_555
H16_3 C27_3 1_555 1_555
H17_3 C27_3 1_555 1_555
H18_3 C27_3 1_555 1_555
H19_3 C28_3 1_555 1_555
H20_3 C28_3 1_555 1_555
H21_3 C28_3 1_555 1_555
H22_3 C29_3 1_555 1_555
C37_3 C31_3 1_555 1_555
H24_3 C31_3 1_555 1_555
H25_3 C32_3 1_555 1_555
C38_3 C32_3 1_555 1_555
N12_2 C37_3 1_555 1_555
H30_3 C37_3 1_555 1_555
H31_3 C38_3 1_555 1_555
O17_2 C20_3 1_555 1_555
O18_2 C21_3 1_555 1_555
Pr3_2 O17_2 1_555 1_555
C38_3 N12_2 1_555 1_555
O18_2 Pr3_2 1_555 1_555
C22_3 O15_3 1_555 1_555
C26_3 C22_3 1_555 1_555
C30_3 C24_3 1_555 1_555
C33_3 C26_3 1_555 1_555
C34_3 C26_3 1_555 1_555
I1_3 Cu3_3 1_555 1_555
C36_3 C30_3 1_555 1_555
H23_3 C30_3 1_555 1_555
C39_3 C33_3 1_555 1_555
C40_3 C34_3 1_555 1_555
H27_3 C34_3 1_555 1_555
N13 C35_3 1_555 1_555
H28_3 C35_3 1_555 1_555
H29_3 C36_3 1_555 1_555
N8_3 C39_3 1_555 1_555
H32_3 C39_3 1_555 1_555
H33_3 C40_3 1_555 1_555
I3_3 Cu2_2 1_555 1_555
H34_3 C41_3 1_555 1_555
O16_3 C47_3 1_555 1_555
C47_3 N9_3 1_555 1_555
C48_3 C47_3 1_555 1_555
C50_3 N9_3 1_555 1_555
H38_3 C48_3 1_555 1_555
H39_3 C48_3 1_555 1_555
H40_3 C48_3 1_555 1_555
H44 C50_3 1_555 1_555
H45_3 C50_3 1_555 1_555
H46_3 C50_3 1_555 1_555
O19_2 C22_3 1_555 1_555
Cu2_2 I1_3 1_555 1_555
Cu4 I3_3 1_555 1_555
C36_3 N13 1_555 1_555
C40_3 N8_3 1_555 1_555
N8_3 Cu1 1_555 1_555
I3_3 Cu1 1_555 1_555
O16_3 Cu4 1_555 1_555
O2_3 Pr3_2 1_555 1_555
O7_2 Pr3_2 1_555 1_555
C2_3 O2_3 1_555 1_555
O9_3 C2_3 1_555 1_555
C5_3 C2_3 1_555 1_555
O11_2 Pr2_2 1_555 1_555
Pr2_2 O9_3 1_555 1_555
C9_3 C5_3 1_555 1_555
C10_3 C5_3 1_555 1_555
H3_3 C9_3 1_555 1_555
C15_3 C9_3 1_555 1_555
H4_3 C10_3 1_555 1_555
C16_3 C10_3 1_555 1_555
N10_2 C15_3 1_555 1_555
H9_3 C15_3 1_555 1_555
H10_3 C16_3 1_555 1_555
O10_3 Pr2_2 1_555 1_555
C16_3 N10_2 1_555 1_555
O1_3 C1_3 1_555 1_555
C1_3 O8_3 1_555 1_555
C3_3 O3_3 1_555 1_555
C4_3 C1_3 1_555 1_555
C6_3 C3_3 1_555 1_555
C7_3 C4_3 1_555 1_555
C8_3 C4_3 1_555 1_555
C11_3 C6_3 1_555 1_555
C12_3 C6_3 1_555 1_555
C13_3 C7_3 1_555 1_555
H1_3 C7_3 1_555 1_555
C14_3 C8_3 1_555 1_555
H2_3 C8_3 1_555 1_555
H5_3 C11_3 1_555 1_555
C17_3 C11_3 1_555 1_555
C18_3 C12_3 1_555 1_555
H6_3 C12_3 1_555 1_555
H7_3 C13_3 1_555 1_555
N11 C13_3 1_555 1_555
H8_3 C14_3 1_555 1_555
N3_3 C17_3 1_555 1_555
H11_3 C17_3 1_555 1_555
C42_3 N5_3 1_555 1_555
C44_3 C42_3 1_555 1_555
H35_3 C42_3 1_555 1_555
C45_3 C43_3 1_555 1_555
H37_3 C44_3 1_555 1_555
C46_3 C45_3 1_555 1_555
C49_3 H41_3 1_555 1_555
H42_3 C49_3 1_555 1_555
H43_3 C49_3 1_555 1_555
O20_2 C46_3 1_555 1_555
O21_2 C46_3 1_555 1_555
C14_3 N11 1_555 1_555
C18_3 N3_3 1_555 1_555
C44_3 C45_3 1_555 1_555
O6_2 Pr5_2 1_555 1_555
O1_4 C1_4 1_555 1_555
C1_4 O8_4 1_555 1_555
C4_4 C1_4 1_555 1_555
C7_4 C4_4 1_555 1_555
C8_4 C4_4 1_555 1_555
C13_4 C7_4 1_555 1_555
H1_4 C7_4 1_555 1_555
C14_4 C8_4 1_555 1_555
H2_4 C8_4 1_555 1_555
H7_4 C13_4 1_555 1_555
N11_2 C13_4 1_555 1_555
H8_4 C14_4 1_555 1_555
C30_4 C24_4 1_555 1_555
C36_4 C30_4 1_555 1_555
H23_4 C30_4 1_555 1_555
N13_2 C35_4 1_555 1_555
H28_4 C35_4 1_555 1_555
H29_4 C36_4 1_555 1_555
C14_4 N11_2 1_555 1_555
C36_4 N13_2 1_555 1_555
C3_4 O3_4 1_555 1_555
C6_4 C3_4 1_555 1_555
C11_4 C6_4 1_555 1_555
C12_4 C6_4 1_555 1_555
H5_4 C11_4 1_555 1_555
C17_4 C11_4 1_555 1_555
C18_4 C12_4 1_555 1_555
H6_4 C12_4 1_555 1_555
C22_4 O15_4 1_555 1_555
N3_4 C17_4 1_555 1_555
H11_4 C17_4 1_555 1_555
H12_4 C18_4 1_555 1_555
C26_4 C22_4 1_555 1_555
Cu3_4 N3_4 1_555 1_555
C33_4 C26_4 1_555 1_555
C34_4 C26_4 1_555 1_555
I1_4 Cu3_4 1_555 1_555
I2_4 Cu3_4 1_555 1_555
N5_4 Cu3_4 1_555 1_555
H26_4 C33_4 1_555 1_555
C39_4 C33_4 1_555 1_555
C40_4 C34_4 1_555 1_555
H27_4 C34_4 1_555 1_555
C41_4 N5_4 1_555 1_555
C42_4 N5_4 1_555 1_555
N8_4 C39_4 1_555 1_555
H32_4 C39_4 1_555 1_555
H33_4 C40_4 1_555 1_555
I3_4 Cu2 1_555 1_555
C43_4 C41_4 1_555 1_555
H34_4 C41_4 1_555 1_555
C44_4 C42_4 1_555 1_555
H35_4 C42_4 1_555 1_555
H36_4 C43_4 1_555 1_555
C45_4 C43_4 1_555 1_555
H37_4 C44_4 1_555 1_555
O16_4 C47_4 1_555 1_555
C46_4 C45_4 1_555 1_555
C47_4 N9_4 1_555 1_555
N9_4 C49_4 1_555 1_555
C48_4 C47_4 1_555 1_555
C49_4 H41_4 1_555 1_555
C50_4 N9_4 1_555 1_555
H38_4 C48_4 1_555 1_555
H39_4 C48_4 1_555 1_555
H40_4 C48_4 1_555 1_555
H42_4 C49_4 1_555 1_555
H43_4 C49_4 1_555 1_555
H44_2 C50_4 1_555 1_555
H45_4 C50_4 1_555 1_555
H46_4 C50_4 1_555 1_555
O4_2 C22_4 1_555 1_555
Cu2 I1_4 1_555 1_555
Cu1_2 I2_4 1_555 1_555
O11_2 C46_4 1_555 1_555
O7_2 C46_4 1_555 1_555
C18_4 N3_4 1_555 1_555
I2_4 Cu2 1_555 1_555
C40_4 N8_4 1_555 1_555
N8_4 Cu1_2 1_555 1_555
I3_4 Cu1_2 1_555 1_555
C44_4 C45_4 1_555 1_555
C20_4 O13_4 1_555 1_555
N4_4 C19_4 1_555 1_555
C23_4 C19_4 1_555 1_555
C28_4 N4_4 1_555 1_555
H13_4 C23_4 1_555 1_555
H14_4 C23_4 1_555 1_555
H15_4 C23_4 1_555 1_555
H19_4 C28_4 1_555 1_555
H21_4 C28_4 1_555 1_555
H22_4 C29_4 1_555 1_555
O5_2 C20_4 1_555 1_555
C2_4 O2_4 1_555 1_555
O9_4 C2_4 1_555 1_555
C5_4 C2_4 1_555 1_555
Pr4_2 O9_4 1_555 1_555
C9_4 C5_4 1_555 1_555
C10_4 C5_4 1_555 1_555
O12_4 Pr4_2 1_555 1_555
O14_4 Pr4_2 1_555 1_555
H3_4 C9_4 1_555 1_555
C15_4 C9_4 1_555 1_555
H4_4 C10_4 1_555 1_555
C16_4 C10_4 1_555 1_555
C21_4 O14_4 1_555 1_555
N10 C15_4 1_555 1_555
H9_4 C15_4 1_555 1_555
H10_4 C16_4 1_555 1_555
C25_4 C21_4 1_555 1_555
C31_4 C25_4 1_555 1_555
C32_4 C25_4 1_555 1_555
H16_4 C27_4 1_555 1_555
H17_4 C27_4 1_555 1_555
H18_4 C27_4 1_555 1_555
C37_4 C31_4 1_555 1_555
H24_4 C31_4 1_555 1_555
H25_4 C32_4 1_555 1_555
C38_4 C32_4 1_555 1_555
N12 C37_4 1_555 1_555
H30_4 C37_4 1_555 1_555
H31_4 C38_4 1_555 1_555
O6_2 C21_4 1_555 1_555
O10_4 Pr4_2 1_555 1_555
C16_4 N10 1_555 1_555
C38_4 N12 1_555 1_555

#END
