
###############################################################################
#
# This file contains modified crystal structure data generated from the
# MOF subset of the Cambridge Structural Database (CSD) v543 
# hosted by the Cambridge Crystallographic Data Centre (CCDC).
#
# This work is licensed under the Creative Commons
# Attribution-NonCommercial-ShareAlike 4.0 International License.
# To view a copy of this license, visit
# http://creativecommons.org/licenses/by-nc-sa/4.0/
# or send a letter to
# Creative Commons, PO Box 1866, Mountain View, CA 94042, USA.
#
# CIF created using the CSD Python API on 29 September 2022
# The structure has been converted into the P1 space group
# The structure has a 3D framework
# The original CSD entry TEBKAP is in the orthorhombic crystal system
# The original CSD entry TEBKAP is in a Sohncke space group
# The framework has been calculated to contain at least 10.0% void space
# The void calculation uses a probe of radius 1.32A, grid spacing 0.4
#
###############################################################################

data_TEBKAP
_chemical_formula_moiety         '(C200 H184 Cu16 Er8 I12 N36 O64)n'
_symmetry_cell_setting           triclinic
_symmetry_space_group_name_H-M   'P 1'
_symmetry_Int_Tables_number      1
_space_group_name_Hall           'P 1'
loop_
_symmetry_equiv_pos_site_id
_symmetry_equiv_pos_as_xyz
1 x,y,z
_cell_length_a                   9.254(3)
_cell_length_b                   23.199(8)
_cell_length_c                   30.538(10)
_cell_angle_alpha                90
_cell_angle_beta                 90
_cell_angle_gamma                90
_cell_volume                     6556.01
loop_
_atom_site_label
_atom_site_type_symbol
_atom_site_fract_x
_atom_site_fract_y
_atom_site_fract_z
Er3 Er 0.01157(5) 0.965061(17) 0.478007(12)
O3 O 0.1763(8) 0.0369(3) 0.4682(3)
N1 N 0.3773(12) 0.0747(4) 0.6698(3)
O6 O 0.4158(8) 0.0252(3) 0.4616(3)
O7 O 0.9203(8) 0.0100(3) 0.4137(2)
C7 C 0.7815(12) 0.0063(4) 0.4082(3)
N5 N 0.2954(11) 0.1937(4) 0.3649(3)
C11 C 0.2961(11) 0.0493(5) 0.4534(3)
C12 C 0.3037(11) 0.0105(5) 0.5953(3)
C15 C 0.5177(12) 0.0606(5) 0.3239(4)
H8 H 0.4195 0.0567 0.3182
C17 C 0.3007(12) 0.1018(4) 0.4237(3)
N6 N 0.5942(10) 0.0949(4) 0.2974(3)
C20 C 0.1776(12) 0.1138(5) 0.3983(4)
H10 H 0.0958 0.0908 0.4008
C22 C 0.8035(14) 0.0682(7) 0.3407(4)
H11 H 0.9029 0.0705 0.3447
C31 C 0.7193(11) 0.0362(5) 0.3678(3)
C33 C 0.2603(15) 0.0674(6) 0.6000(4)
H20 H 0.2046 0.0852 0.5786
C34 C 0.7335(16) 0.0981(7) 0.3062(4)
H21 H 0.7899 0.1216 0.2884
C35 C 0.5742(13) 0.0308(6) 0.3588(4)
H22 H 0.5155 0.0074 0.3760
C36 C 0.4172(15) 0.1374(6) 0.4172(5)
H23 H 0.5033 0.1308 0.4321
C37 C 0.3025(14) 0.0974(6) 0.6378(4)
H24 H 0.2754 0.1358 0.6403
C43 C 0.416(2) 0.0192(6) 0.6652(4)
H33 H 0.4673 0.0016 0.6878
C45 C 0.1786(15) 0.1598(6) 0.3698(4)
H35 H 0.0961 0.1676 0.3534
C47 C 0.4058(16) 0.1811(6) 0.3897(5)
H39 H 0.4853 0.2055 0.3877
Cu6 Cu 0.27891(17) 0.26523(6) 0.32440(4)
Cu8 Cu 0.49478(19) 0.14387(6) 0.25044(4)
Cu9 Cu 0.4517(2) 0.11910(7) 0.72196(4)
O19 O 0.6449(8) 0.0158(3) 0.5226(2)
Er2 Er 0.54321(4) 0.939939(18) 0.484318(13)
Cu3 Cu 0.0483(2) 0.88090(7) 0.22196(4)
O2 O 0.2055(9) 0.9256(4) 0.4420(2)
O5 O 0.4297(8) 0.9154(3) 0.4181(2)
H1 H 0.0438 0.9058 0.5934
C3 C 0.2695(12) 0.9761(5) 0.5546(3)
H2 H 0.0039 0.8207 0.3766
N4 N 0.1311(11) 0.8937(5) 0.2819(3)
O9 O 0.4253(9) 0.8479(3) 0.4950(3)
C9 C 0.2403(11) 0.9102(4) 0.3665(3)
O11 O 0.3728(9) 0.9536(4) 0.5366(2)
O12 O 0.1417(8) 0.9743(4) 0.5428(2)
C13 C 0.3350(18) 0.8326(6) 0.5678(4)
H4 H 0.4338 0.8368 0.5768
H5 H 0.2944 0.7989 0.5813
H6 H 0.2810 0.8660 0.5767
C14 C 0.1391(14) 0.9458(6) 0.3486(4)
H7 H 0.1008 0.9758 0.3651
C18 C 0.0215(13) 0.8818(6) 0.6569(4)
H9 H 0.1157 0.8909 0.6650
C19 C 0.3282(14) 0.8264(5) 0.5179(4)
O15 O 0.6990(8) 0.9826(3) 0.4336(2)
N7 N 0.2224(13) 0.7943(5) 0.4999(4)
C25 C 0.0944(16) 0.9378(5) 0.3071(4)
H14 H 0.0329 0.9653 0.2952
C28 C 0.2272(13) 0.8575(6) 0.2998(4)
H16 H 0.2549 0.8257 0.2832
C29 C 0.2881(15) 0.8634(6) 0.3406(4)
H17 H 0.3578 0.8378 0.3507
C38 C 0.0955(17) 0.7761(8) 0.5237(7)
H25 H 0.0925 0.7348 0.5249
H26 H 0.0106 0.7902 0.5092
H27 H 0.0991 0.7913 0.5529
C39 C 0.2970(12) 0.9177(5) 0.4122(3)
C46 C 0.231(2) 0.7828(6) 0.4534(5)
H36 H 0.3163 0.8007 0.4416
H37 H 0.1472 0.7980 0.4391
H38 H 0.2360 0.7419 0.4487
C48 C 0.3844(19) 0.9881(6) 0.6291(5)
H40 H 0.4180 0.9504 0.6271
Cu7 Cu 0.00522(19) 0.85613(6) 0.75044(4)
O17 O 0.6909(8) 0.8688(3) 0.4556(2)
N10 N 0.1227(12) 0.9253(4) 0.1698(3)
O20 O 0.6522(8) 0.8991(4) 0.5480(2)
O1 O 0.8763(8) 0.0353(3) 0.5080(2)
N3 N 0.7776(11) 0.1681(4) 0.6323(3)
C5 C 0.7661(13) 0.0415(4) 0.5277(3)
C10 C 0.6428(14) 0.1030(6) 0.5864(5)
H3 H 0.5542 0.0866 0.5792
C16 C 0.7677(12) 0.0872(4) 0.5641(3)
C26 C 0.8969(13) 0.1154(6) 0.5743(5)
H15 H 0.9805 0.1082 0.5582
C30 C 0.6528(15) 0.1434(6) 0.6192(4)
H18 H 0.5681 0.1544 0.6333
C41 C 0.8977(15) 0.1541(6) 0.6086(4)
H29 H 0.9847 0.1717 0.6160
H41 H 0.7060 0.0177 0.1874
Cu5 Cu 0.77891(17) 0.23477(6) 0.67560(4)
I1 I 0.97947(9) 0.77075(3) 0.21404(2)
I2 I 0.48664(9) 0.75569(3) 0.22395(2)
I3 I 0.79045(9) 0.60868(3) 0.25132(2)
Cu1 Cu 0.72109(17) 0.76523(6) 0.17560(4)
Cu2 Cu 0.50522(19) 0.64387(6) 0.24956(4)
Cu4 Cu 0.74489(18) 0.71848(6) 0.25697(5)
C1 C 0.8020(11) 0.8634(4) 0.4326(3)
N2 N 0.7662(12) 0.7557(4) 0.3182(3)
C2 C 0.9776(12) 0.8924(6) 0.6139(3)
C4 C 0.9125(11) 0.8082(5) 0.3683(3)
O8 O 0.8845(9) 0.9133(4) 0.5289(2)
C6 C 0.7905(11) 0.8238(4) 0.3925(3)
C8 C 0.7879(14) 0.9011(5) 0.5560(3)
O13 O 0.9248(8) 0.8862(4) 0.4386(2)
C21 C 0.8354(12) 0.8828(4) 0.6018(3)
C23 C 0.6484(11) 0.7705(5) 0.3413(3)
H12 H 0.5586 0.7576 0.3318
N8 N 0.9335(12) 0.8593(4) 0.6867(3)
C24 C 0.6551(13) 0.8051(5) 0.3797(3)
H13 H 0.5724 0.8146 0.3954
C27 C 0.7230(17) 0.9309(7) 0.2409(5)
C32 C 0.8949(13) 0.7741(5) 0.3320(3)
H19 H 0.9766 0.7633 0.3163
O16 O 0.8503(12) 0.9376(5) 0.2292(4)
C40 C 0.7439(12) 0.8600(6) 0.6321(4)
H28 H 0.6480 0.8526 0.6249
N9 N 0.6138(18) 0.9525(5) 0.2193(6)
C42 C 0.692(2) 0.8970(7) 0.2835(6)
H30 H 0.6484 0.8606 0.2764
H31 H 0.6269 0.9188 0.3017
H32 H 0.7806 0.8905 0.2990
C44 C 0.7955(16) 0.8477(6) 0.6743(4)
H34 H 0.7330 0.8310 0.6946
C49 C 0.650(3) 0.9844(10) 0.1798(7)
H42 H 0.5626 0.9963 0.1655
H43 H 0.7047 0.9601 0.1605
C50 C 0.463(2) 0.9473(11) 0.2339(10)
H44 H 0.4210 0.9130 0.2217
H45 H 0.4089 0.9803 0.2243
H46 H 0.4598 0.9451 0.2653
N11 N 0.7224(11) 0.8319(4) 0.1323(3)
N12 N 0.7046(11) 0.6937(4) 0.1351(3)
N13 N 0.4058(10) 0.5949(4) 0.2026(3)
N14 N 0.4335(12) 0.6407(4) 0.3133(3)
I2_2 I 0.01336(9) 0.24431(3) 0.72395(2)
C50_2 C 0.037(2) 0.0527(11) 0.7339(10)
H44_2 H 0.0790 0.0870 0.7217
H45_2 H 0.0911 0.0197 0.7243
H46_2 H 0.0402 0.0549 0.7653
N13_2 N 0.0942(10) 0.4051(4) 0.7026(3)
N14_2 N 0.0665(12) 0.3593(4) 0.8133(3)
C2_2 C 0.5224(12) 0.1076(6) 0.1139(3)
H1_2 H 0.4562 0.0942 0.0934
C3_2 C 0.2305(12) 0.0239(5) 0.0546(3)
O8_2 O 0.6155(9) 0.0867(4) 0.0289(2)
C8_2 C 0.7121(14) 0.0989(5) 0.0560(3)
O11_2 O 0.1272(9) 0.0464(4) 0.0366(2)
O12_2 O 0.3583(8) 0.0257(4) 0.0428(2)
C13_2 C 0.1650(18) 0.1674(6) 0.0678(4)
H4_2 H 0.0662 0.1632 0.0768
H5_2 H 0.2056 0.2011 0.0813
H6_2 H 0.2190 0.1340 0.0767
O14 O 0.8478(8) 0.1009(4) 0.0480(2)
C18_2 C 0.4785(13) 0.1182(6) 0.1569(4)
H9_2 H 0.3843 0.1091 0.1650
C19_2 C 0.1718(14) 0.1736(5) 0.0179(4)
C21_2 C 0.6646(12) 0.1172(4) 0.1018(3)
N8_2 N 0.5665(12) 0.1407(4) 0.1867(3)
C38_2 C 0.4045(17) 0.2239(8) 0.0237(7)
H25_2 H 0.4075 0.2652 0.0249
H26_2 H 0.4894 0.2098 0.0092
H27_2 H 0.4009 0.2087 0.0529
C40_2 C 0.7561(12) 0.1400(6) 0.1321(4)
H28_2 H 0.8520 0.1474 0.1249
C44_2 C 0.7045(16) 0.1523(6) 0.1743(4)
H34_2 H 0.7670 0.1690 0.1946
C48_2 C 0.1156(19) 0.0119(6) 0.1291(5)
H40_2 H 0.0820 0.0496 0.1271
Er1 Er 0.48843(5) 0.034939(17) 0.978007(12)
I1_2 I 0.52053(9) 0.22925(3) 0.71404(2)
I3_2 I 0.70955(9) 0.39132(3) 0.75132(2)
Cu2_2 Cu 0.99478(19) 0.35613(6) 0.74956(4)
Cu4_2 Cu 0.75511(18) 0.28152(6) 0.75697(5)
O2_2 O 0.2945(9) 0.0744(4) 0.9420(2)
O4 O 0.8091(8) 0.1312(3) 0.9556(2)
O5_2 O 0.0703(8) 0.0846(3) 0.9181(2)
C1_2 C 0.6980(11) 0.1366(4) 0.9326(3)
N2_2 N 0.7338(12) 0.2443(4) 0.8182(3)
C4_2 C 0.5875(11) 0.1918(5) 0.8683(3)
H2_2 H 0.4961 0.1793 0.8766
N4_2 N 0.3689(11) 0.1063(5) 0.7819(3)
C6_2 C 0.7095(11) 0.1762(4) 0.8925(3)
O9_2 O 0.0747(9) 0.1521(3) 0.9950(3)
C9_2 C 0.2597(11) 0.0898(4) 0.8665(3)
C14_2 C 0.3609(14) 0.0542(6) 0.8486(4)
H7_2 H 0.3992 0.0242 0.8651
O13_2 O 0.5752(8) 0.1138(4) 0.9386(2)
N7_2 N 0.2776(13) 0.2057(5) 0.9999(4)
C23_2 C 0.8516(11) 0.2295(5) 0.8413(3)
H12_2 H 0.9414 0.2424 0.8318
C24_2 C 0.8449(13) 0.1949(5) 0.8797(3)
H13_2 H 0.9276 0.1854 0.8954
C25_2 C 0.4056(16) 0.0622(5) 0.8071(4)
H14_2 H 0.4671 0.0347 0.7952
C27_2 C 0.7770(17) 0.0691(7) 0.7409(5)
C28_2 C 0.2728(13) 0.1425(6) 0.7998(4)
H16_2 H 0.2451 0.1743 0.7832
C29_2 C 0.2119(15) 0.1366(6) 0.8406(4)
H17_2 H 0.1422 0.1622 0.8507
C32_2 C 0.6051(13) 0.2259(5) 0.8320(3)
H19_2 H 0.5234 0.2367 0.8163
O16_2 O 0.6497(12) 0.0624(5) 0.7292(4)
C39_2 C 0.2030(12) 0.0823(5) 0.9122(3)
N9_2 N 0.8862(18) 0.0475(5) 0.7193(6)
C42_2 C 0.808(2) 0.1030(7) 0.7835(6)
H30_2 H 0.8516 0.1394 0.7764
H31_2 H 0.8731 0.0812 0.8017
H32_2 H 0.7194 0.1095 0.7990
C46_2 C 0.269(2) 0.2172(6) 0.9534(5)
H36_2 H 0.1837 0.1993 0.9416
H37_2 H 0.3528 0.2020 0.9391
H38_2 H 0.2640 0.2581 0.9487
C49_2 C 0.850(3) 0.0156(10) 0.6798(7)
H42_2 H 0.9374 0.0037 0.6655
H43_2 H 0.7953 0.0399 0.6605
Er4 Er 0.95679(4) 0.060061(18) 0.984318(13)
N12_2 N 0.7954(11) 0.3063(4) 0.6351(3)
O1_2 O 0.6237(8) 0.9647(3) 0.0080(2)
C5_2 C 0.7339(13) 0.9585(4) 0.0277(3)
O10 O 0.8551(8) 0.9842(3) 0.0226(2)
C10_2 C 0.8572(14) 0.8970(6) 0.0864(5)
H3_2 H 0.9458 0.9134 0.0792
C12_2 C 0.1963(11) 0.9895(5) 0.0953(3)
C16_2 C 0.7323(12) 0.9128(4) 0.0641(3)
C26_2 C 0.6031(13) 0.8846(6) 0.0743(5)
H15_2 H 0.5195 0.8918 0.0582
C30_2 C 0.8472(15) 0.8566(6) 0.1192(4)
H18_2 H 0.9319 0.8456 0.1333
C33_2 C 0.2397(15) 0.9326(6) 0.1000(4)
H20_2 H 0.2954 0.9148 0.0786
C37_2 C 0.1975(14) 0.9026(6) 0.1378(4)
H24_2 H 0.2246 0.8642 0.1403
C41_2 C 0.6023(15) 0.8459(6) 0.1086(4)
H29_2 H 0.5153 0.8283 0.1160
C43_2 C 0.084(2) 0.9808(6) 0.1652(4)
H33_2 H 0.0327 0.9984 0.1878
O3_2 O 0.3237(8) 0.9631(3) 0.9682(3)
O6_2 O 0.0842(8) 0.9748(3) 0.9616(3)
N5_2 N 0.2046(11) 0.8063(4) 0.8649(3)
C11_2 C 0.2039(11) 0.9507(5) 0.9534(3)
H8_2 H 0.0805 0.9433 0.8182
C17_2 C 0.1993(12) 0.8982(4) 0.9237(3)
C20_2 C 0.3224(12) 0.8862(5) 0.8983(4)
H10_2 H 0.4042 0.9092 0.9008
C36_2 C 0.0828(15) 0.8626(6) 0.9172(5)
C45_2 C 0.3214(15) 0.8402(6) 0.8698(4)
H35_2 H 0.4039 0.8324 0.8534
C47_2 C 0.0942(16) 0.8189(6) 0.8897(5)
H39_2 H 0.0147 0.7945 0.8877
H41_2 H 0.7940 0.9823 0.6874
Cu6_2 Cu 0.22109(17) 0.73477(6) 0.82440(4)
O18 O 0.5797(8) 0.9900(3) 0.9137(2)
O15_2 O 0.8010(8) 0.0174(3) 0.9336(2)
C7_2 C 0.7185(12) 0.9937(4) 0.9082(3)
C15_2 C 0.9823(12) 0.9394(5) 0.8239(4)
N6_2 N 0.9058(10) 0.9051(4) 0.7974(3)
C22_2 C 0.6965(14) 0.9318(7) 0.8407(4)
H11_2 H 0.5971 0.9295 0.8447
C31_2 C 0.7807(11) 0.9638(5) 0.8678(3)
C34_2 C 0.7665(16) 0.9019(7) 0.8062(4)
H21_2 H 0.7101 0.8784 0.7884
C35_2 C 0.9258(13) 0.9692(6) 0.8588(4)
H22_2 H 0.9845 0.9926 0.8760
H23_2 H 0.9967 0.8692 0.9321
Er2_2 Er 0.04321(4) 0.560061(18) 0.515682(13)
O7_2 O 0.4203(8) 0.4900(3) 0.5863(2)
C7_3 C 0.2815(12) 0.4937(4) 0.5918(3)
C15_3 C 0.0177(12) 0.4394(5) 0.6761(4)
C22_3 C 0.3035(14) 0.4318(7) 0.6593(4)
H11_3 H 0.4029 0.4295 0.6553
O15_3 O 0.1990(8) 0.5174(3) 0.5664(2)
C31_3 C 0.2193(11) 0.4638(5) 0.6322(3)
C34_3 C 0.2335(16) 0.4019(7) 0.6938(4)
H21_3 H 0.2899 0.3784 0.7116
C35_3 C 0.0742(13) 0.4692(6) 0.6412(4)
H22_3 H 0.0155 0.4926 0.6240
H23_3 H 0.0033 0.3692 0.5679
Er3_2 Er 0.51157(5) 0.534939(17) 0.521993(12)
O17_2 O 0.1909(8) 0.6312(3) 0.5444(2)
O19_2 O 0.1449(8) 0.4842(3) 0.4774(2)
O20_2 O 0.1522(8) 0.6009(4) 0.4520(2)
I1_3 I 0.47947(9) 0.72925(3) 0.78596(2)
I3_3 I 0.29045(9) 0.89132(3) 0.74868(2)
Cu3_2 Cu 0.5483(2) 0.61910(7) 0.77804(4)
Cu4_3 Cu 0.24489(18) 0.78152(6) 0.74303(5)
O1_3 O 0.3763(8) 0.4647(3) 0.4920(2)
O2_3 O 0.7055(9) 0.5744(4) 0.5580(2)
O3_3 O 0.6763(8) 0.4631(3) 0.5318(3)
N1_2 N 0.8773(12) 0.4253(4) 0.3302(3)
O5_3 O 0.9297(8) 0.5846(3) 0.5819(2)
O6_3 O 0.9158(8) 0.4748(3) 0.5384(3)
C1_3 C 0.3020(11) 0.6366(4) 0.5674(3)
N2_3 N 0.2662(12) 0.7443(4) 0.6818(3)
C2_3 C 0.4776(12) 0.6076(6) 0.3861(3)
H1_3 H 0.5438 0.5942 0.4066
C3_3 C 0.7695(12) 0.5239(5) 0.4454(3)
C4_3 C 0.4125(11) 0.6918(5) 0.6317(3)
H2_3 H 0.5039 0.6793 0.6234
N3_2 N 0.2776(11) 0.3319(4) 0.3677(3)
C5_3 C 0.2661(13) 0.4585(4) 0.4723(3)
O8_3 O 0.3845(9) 0.5867(4) 0.4711(2)
N4_3 N 0.6311(11) 0.6063(5) 0.7181(3)
C6_3 C 0.2905(11) 0.6762(4) 0.6075(3)
C8_3 C 0.2879(14) 0.5989(5) 0.4440(3)
O9_3 O 0.9253(9) 0.6521(3) 0.5050(3)
C9_3 C 0.7403(11) 0.5898(4) 0.6335(3)
C10_3 C 0.1428(14) 0.3970(6) 0.4136(5)
H3_3 H 0.0542 0.4134 0.4208
C11_3 C 0.7961(11) 0.4507(5) 0.5466(3)
O11_3 O 0.8728(9) 0.5464(4) 0.4634(2)
C12_3 C 0.8037(11) 0.4895(5) 0.4047(3)
O12_3 O 0.6417(8) 0.5257(4) 0.4572(2)
C13_3 C 0.8350(18) 0.6674(6) 0.4322(4)
H4_3 H 0.9338 0.6632 0.4232
H5_3 H 0.7944 0.7011 0.4187
H6_3 H 0.7810 0.6340 0.4233
C14_3 C 0.6391(14) 0.5542(6) 0.6514(4)
H7_3 H 0.6008 0.5242 0.6349
O13_3 O 0.4248(8) 0.6138(4) 0.5614(2)
H8_3 H 0.9195 0.4433 0.6818
C16_3 C 0.2677(12) 0.4128(4) 0.4359(3)
C17_3 C 0.8007(12) 0.3982(4) 0.5763(3)
C18_3 C 0.5215(13) 0.6182(6) 0.3431(4)
H9_3 H 0.6157 0.6091 0.3350
C19_3 C 0.8282(14) 0.6736(5) 0.4821(4)
C20_3 C 0.6776(12) 0.3862(5) 0.6017(4)
H10_3 H 0.5958 0.4092 0.5992
C21_3 C 0.3354(12) 0.6172(4) 0.3982(3)
N7_3 N 0.7224(13) 0.7057(5) 0.5001(4)
C23_3 C 0.1484(11) 0.7295(5) 0.6587(3)
H12_3 H 0.0586 0.7424 0.6682
C24_3 C 0.1551(13) 0.6949(5) 0.6203(3)
H13_3 H 0.0724 0.6854 0.6046
C25_3 C 0.5944(16) 0.5622(5) 0.6929(4)
H14_3 H 0.5329 0.5347 0.7048
C26_3 C 0.3969(13) 0.3846(6) 0.4257(5)
H15_3 H 0.4805 0.3918 0.4418
C27_3 C 0.2230(17) 0.5691(7) 0.7591(5)
C28_3 C 0.7272(13) 0.6425(6) 0.7002(4)
H16_3 H 0.7549 0.6743 0.7168
C29_3 C 0.7881(15) 0.6366(6) 0.6594(4)
H17_3 H 0.8578 0.6622 0.6493
C30_3 C 0.1528(15) 0.3566(6) 0.3808(4)
H18_3 H 0.0681 0.3456 0.3667
C32_3 C 0.3949(13) 0.7259(5) 0.6680(3)
H19_3 H 0.4766 0.7367 0.6837
O16_3 O 0.3503(12) 0.5624(5) 0.7708(4)
C33_3 C 0.7603(15) 0.4326(6) 0.4000(4)
H20_3 H 0.7046 0.4148 0.4214
C36_3 C 0.9172(15) 0.3626(6) 0.5828(5)
C37_3 C 0.8025(14) 0.4026(6) 0.3622(4)
H24_3 H 0.7754 0.3642 0.3597
C38_3 C 0.5955(17) 0.7239(8) 0.4763(7)
H25_3 H 0.5925 0.7652 0.4751
H26_3 H 0.5106 0.7098 0.4908
H27_3 H 0.5991 0.7087 0.4471
C39_3 C 0.7970(12) 0.5823(5) 0.5878(3)
C40_3 C 0.2439(12) 0.6400(6) 0.3679(4)
H28_3 H 0.1480 0.6474 0.3751
N9_3 N 0.1138(18) 0.5475(5) 0.7807(6)
C41_3 C 0.3977(15) 0.3459(6) 0.3914(4)
H29_3 H 0.4847 0.3283 0.3840
C42_3 C 0.192(2) 0.6030(7) 0.7165(6)
H30_3 H 0.1484 0.6394 0.7236
H31_3 H 0.1269 0.5812 0.6983
H32_3 H 0.2806 0.6095 0.7010
C43_3 C 0.916(2) 0.4808(6) 0.3348(4)
H33_3 H 0.9673 0.4984 0.3122
C44_3 C 0.2955(16) 0.6523(6) 0.3257(4)
H34_3 H 0.2330 0.6690 0.3054
C45_3 C 0.6786(15) 0.3402(6) 0.6302(4)
H35_3 H 0.5961 0.3324 0.6466
C46_3 C 0.731(2) 0.7172(6) 0.5466(5)
H36_3 H 0.8163 0.6993 0.5584
H37_3 H 0.6472 0.7020 0.5609
H38_3 H 0.7360 0.7581 0.5513
C47_3 C 0.9058(16) 0.3189(6) 0.6103(5)
H39_3 H 0.9853 0.2945 0.6123
C48_3 C 0.8844(19) 0.5119(6) 0.3709(5)
H40_3 H 0.9180 0.5496 0.3729
C49_3 C 0.150(3) 0.5156(10) 0.8202(7)
H41_3 H 0.2060 0.4823 0.8126
H42_3 H 0.0626 0.5037 0.8345
H43_3 H 0.2047 0.5399 0.8395
Cu9_2 Cu 0.9517(2) 0.38090(7) 0.27804(4)
N10_2 N 0.6227(12) 0.5747(4) 0.8302(3)
N11_2 N 0.2224(11) 0.6681(4) 0.8677(3)
I2_3 I 0.98664(9) 0.74431(3) 0.77605(2)
C50_3 C 0.963(2) 0.5527(11) 0.7661(10)
H44_3 H 0.9210 0.5870 0.7783
H45_3 H 0.9089 0.5197 0.7757
H46_3 H 0.9598 0.5549 0.7347
I1_4 I 0.02053(9) 0.27075(3) 0.28596(2)
I2_4 I 0.51336(9) 0.25569(3) 0.27605(2)
I3_4 I 0.20955(9) 0.10868(3) 0.24868(2)
Cu4_4 Cu 0.25511(18) 0.21848(6) 0.24303(5)
O4_2 O 0.3091(8) 0.3688(3) 0.0444(2)
C1_4 C 0.1980(11) 0.3634(4) 0.0674(3)
N2_4 N 0.2338(12) 0.2557(4) 0.1818(3)
C4_4 C 0.0875(11) 0.3082(5) 0.1317(3)
C6_4 C 0.2095(11) 0.3238(4) 0.1075(3)
O13_4 O 0.0752(8) 0.3862(4) 0.0614(2)
C23_4 C 0.3516(11) 0.2705(5) 0.1587(3)
H12_4 H 0.4414 0.2576 0.1682
C24_4 C 0.3449(13) 0.3051(5) 0.1203(3)
H13_4 H 0.4276 0.3146 0.1046
C27_4 C 0.2770(17) 0.4309(7) 0.2591(5)
C32_4 C 0.1051(13) 0.2741(5) 0.1680(3)
H19_4 H 0.0234 0.2633 0.1837
O16_4 O 0.1497(12) 0.4376(5) 0.2708(4)
N9_4 N 0.3862(18) 0.4525(5) 0.2807(6)
C42_4 C 0.308(2) 0.3970(7) 0.2165(6)
H30_4 H 0.3516 0.3606 0.2236
H31_4 H 0.3731 0.4188 0.1983
H32_4 H 0.2194 0.3905 0.2010
C49_4 C 0.350(3) 0.4844(10) 0.3202(7)
H41_4 H 0.2940 0.5177 0.3126
H42_4 H 0.4374 0.4963 0.3345
H43_4 H 0.2953 0.4601 0.3395
C50_4 C 0.537(2) 0.4473(11) 0.2661(10)
H44_4 H 0.5790 0.4130 0.2783
H45_4 H 0.5911 0.4803 0.2757
H46_4 H 0.5402 0.4451 0.2347
Er4_2 Er 0.45679(4) 0.439939(18) 0.015682(13)
O18_2 O 0.0797(8) 0.5100(3) 0.0863(2)
O1_4 O 0.1237(8) 0.5353(3) 0.9920(2)
C2_4 C 0.0224(12) 0.3924(6) 0.8861(3)
C5_4 C 0.2339(13) 0.5415(4) 0.9723(3)
O8_4 O 0.1155(9) 0.4133(4) 0.9711(2)
C8_4 C 0.2121(14) 0.4011(5) 0.9440(3)
O10_2 O 0.3551(8) 0.5158(3) 0.9774(2)
C10_4 C 0.3572(14) 0.6030(6) 0.9136(5)
H3_4 H 0.4458 0.5866 0.9208
O14_2 O 0.3478(8) 0.3991(4) 0.9520(2)
C16_4 C 0.2323(12) 0.5872(4) 0.9359(3)
C21_4 C 0.1646(12) 0.3828(4) 0.8982(3)
C26_4 C 0.1031(13) 0.6154(6) 0.9257(5)
H15_4 H 0.0195 0.6082 0.9418
C30_4 C 0.3472(15) 0.6434(6) 0.8808(4)
H18_4 H 0.4319 0.6544 0.8667
C40_4 C 0.2561(12) 0.3600(6) 0.8679(4)
H28_4 H 0.3520 0.3526 0.8751
C41_4 C 0.1023(15) 0.6541(6) 0.8914(4)
H29_4 H 0.0153 0.6717 0.8840
C44_4 C 0.2045(16) 0.3477(6) 0.8257(4)
H34_4 H 0.2670 0.3310 0.8054
Er1_2 Er 0.98843(5) 0.465061(17) 0.021993(12)
O2_4 O 0.7945(9) 0.4256(4) 0.0580(2)
O3_4 O 0.8237(8) 0.5369(3) 0.0318(3)
O5_4 O 0.5703(8) 0.4154(3) 0.0819(2)
O6_4 O 0.5842(8) 0.5252(3) 0.0384(3)
H2_4 H 0.9961 0.3207 0.1234
N4_4 N 0.8689(11) 0.3937(5) 0.2181(3)
C7_4 C 0.2185(12) 0.5063(4) 0.0918(3)
O9_4 O 0.5747(9) 0.3479(3) 0.0050(3)
C9_4 C 0.7597(11) 0.4102(4) 0.1335(3)
C11_4 C 0.7039(11) 0.5493(5) 0.0466(3)
C14_4 C 0.8609(14) 0.4458(6) 0.1514(4)
H7_4 H 0.8992 0.4758 0.1349
C15_4 C 0.4823(12) 0.5606(5) 0.1761(4)
H8_4 H 0.5805 0.5567 0.1818
C17_4 C 0.6993(12) 0.6018(4) 0.0763(3)
C20_4 C 0.8224(12) 0.6138(5) 0.1017(4)
H10_4 H 0.9042 0.5908 0.0992
C22_4 C 0.1965(14) 0.5682(7) 0.1593(4)
H11_4 H 0.0971 0.5705 0.1553
O15_4 O 0.3010(8) 0.4826(3) 0.0664(2)
N7_4 N 0.7776(13) 0.2943(5) 0.0001(4)
C25_4 C 0.9056(16) 0.4378(5) 0.1929(4)
H14_4 H 0.9671 0.4653 0.2048
C28_4 C 0.7728(13) 0.3575(6) 0.2002(4)
H16_4 H 0.7451 0.3257 0.2168
C29_4 C 0.7119(15) 0.3634(6) 0.1594(4)
H17_4 H 0.6422 0.3378 0.1493
C31_4 C 0.2807(11) 0.5362(5) 0.1322(3)
C34_4 C 0.2665(16) 0.5981(7) 0.1938(4)
H21_4 H 0.2101 0.6216 0.2116
C35_4 C 0.4258(13) 0.5308(6) 0.1412(4)
H22_4 H 0.4845 0.5074 0.1240
C36_4 C 0.5828(15) 0.6374(6) 0.0828(5)
H23_4 H 0.4967 0.6308 0.0679
C39_4 C 0.7030(12) 0.4177(5) 0.0878(3)
C45_4 C 0.8214(15) 0.6598(6) 0.1302(4)
H35_4 H 0.9039 0.6676 0.1466
C46_4 C 0.769(2) 0.2828(6) 0.0466(5)
H36_4 H 0.6837 0.3007 0.0584
H37_4 H 0.8528 0.2980 0.0609
H38_4 H 0.7640 0.2419 0.0513
C47_4 C 0.5942(16) 0.6811(6) 0.1103(5)
H39_4 H 0.5147 0.7055 0.1123
H1_4 H 0.9562 0.4058 0.9066
C3_4 C 0.7305(12) 0.4761(5) 0.9454(3)
O11_4 O 0.6272(9) 0.4536(4) 0.9634(2)
C12_4 C 0.6963(11) 0.5105(5) 0.9047(3)
O12_4 O 0.8583(8) 0.4743(4) 0.9572(2)
C13_4 C 0.6650(18) 0.3326(6) 0.9322(4)
H4_4 H 0.5662 0.3368 0.9232
H5_4 H 0.7056 0.2989 0.9187
H6_4 H 0.7190 0.3660 0.9233
C18_4 C 0.9785(13) 0.3818(6) 0.8431(4)
H9_4 H 0.8843 0.3909 0.8350
C19_4 C 0.6718(14) 0.3264(5) 0.9821(4)
C33_4 C 0.7397(15) 0.5674(6) 0.9000(4)
H20_4 H 0.7954 0.5852 0.9214
C37_4 C 0.6975(14) 0.5974(6) 0.8622(4)
H24_4 H 0.7246 0.6358 0.8597
C38_4 C 0.9045(17) 0.2761(8) 0.9763(7)
H25_4 H 0.9075 0.2348 0.9751
H26_4 H 0.9894 0.2902 0.9908
H27_4 H 0.9009 0.2913 0.9471
C43_4 C 0.584(2) 0.5192(6) 0.8348(4)
H33_4 H 0.5327 0.5016 0.8122
C48_4 C 0.6156(19) 0.4881(6) 0.8709(5)
H40_4 H 0.5820 0.4504 0.8729
loop_
_geom_bond_atom_site_label_1
_geom_bond_atom_site_label_2
_geom_bond_site_symmetry_1
_geom_bond_site_symmetry_2
N1 C37 1_555 1_555
O7 C7 1_555 1_555
N5 C45 1_555 1_555
C11 O3 1_555 1_555
C15 H8 1_555 1_555
C17 C11 1_555 1_555
N6 C15 1_555 1_555
C20 C17 1_555 1_555
H10 C20 1_555 1_555
C22 H11 1_555 1_555
C31 C7 1_555 1_555
C33 C12 1_555 1_555
H20 C33 1_555 1_555
C34 N6 1_555 1_555
H21 C34 1_555 1_555
C35 C15 1_555 1_555
H22 C35 1_555 1_555
C36 C17 1_555 1_555
H23 C36 1_555 1_555
C37 C33 1_555 1_555
H24 C37 1_555 1_555
C43 N1 1_555 1_555
H33 C43 1_555 1_555
C45 C20 1_555 1_555
H35 C45 1_555 1_555
C47 N5 1_555 1_555
H39 C47 1_555 1_555
Cu6 N5 1_555 1_555
Cu8 N6 1_555 1_555
Cu9 N1 1_555 1_555
O6 C11 1_555 1_555
C22 C31 1_555 1_555
C22 C34 1_555 1_555
C31 C35 1_555 1_555
C36 C47 1_555 1_555
Er2 O5 1_555 1_555
O2 Er3 1_555 1_555
O5 C39 1_555 1_555
C3 O11 1_555 1_555
N4 Cu3 1_555 1_555
O9 Er2 1_555 1_555
C9 C14 1_555 1_555
O11 Er2 1_555 1_555
O12 Er3 1_555 1_555
C13 H4 1_555 1_555
H5 C13 1_555 1_555
H6 C13 1_555 1_555
C14 H7 1_555 1_555
H9 C18 1_555 1_555
C19 O9 1_555 1_555
O15 Er2 1_555 1_555
N7 C19 1_555 1_555
C25 N4 1_555 1_555
H14 C25 1_555 1_555
C28 N4 1_555 1_555
H16 C28 1_555 1_555
C29 C9 1_555 1_555
H17 C29 1_555 1_555
C38 N7 1_555 1_555
H25 C38 1_555 1_555
H26 C38 1_555 1_555
H27 C38 1_555 1_555
C39 O2 1_555 1_555
C46 N7 1_555 1_555
H36 C46 1_555 1_555
H37 C46 1_555 1_555
H38 C46 1_555 1_555
H40 C48 1_555 1_555
O17 Er2 1_555 1_555
N10 Cu3 1_555 1_555
O20 Er2 1_555 1_555
C3 O12 1_555 1_555
C9 C39 1_555 1_555
C13 C19 1_555 1_555
C14 C25 1_555 1_555
C28 C29 1_555 1_555
O1 C5 1_555 1_555
N3 C30 1_555 1_555
C5 O19 1_555 1_555
C10 H3 1_555 1_555
C16 C5 1_555 1_555
C26 C16 1_555 1_555
H15 C26 1_555 1_555
C30 C10 1_555 1_555
H18 C30 1_555 1_555
C41 N3 1_555 1_555
H29 C41 1_555 1_555
Cu5 N3 1_555 1_555
C10 C16 1_555 1_555
C26 C41 1_555 1_555
I1 Cu1 1_555 1_555
I2 Cu1 1_555 1_555
I3 Cu2 1_555 1_555
Cu1 N11 1_555 1_555
Cu2 I2 1_555 1_555
Cu4 I1 1_555 1_555
O17 C1 1_555 1_555
C1 C6 1_555 1_555
N2 Cu4 1_555 1_555
C6 C4 1_555 1_555
C8 O8 1_555 1_555
O20 C8 1_555 1_555
C21 C2 1_555 1_555
C23 N2 1_555 1_555
H12 C23 1_555 1_555
C24 C6 1_555 1_555
H13 C24 1_555 1_555
C27 O16 1_555 1_555
C32 N2 1_555 1_555
H19 C32 1_555 1_555
C40 C21 1_555 1_555
H28 C40 1_555 1_555
N9 C27 1_555 1_555
C42 C27 1_555 1_555
H30 C42 1_555 1_555
H31 C42 1_555 1_555
H32 C42 1_555 1_555
C44 N8 1_555 1_555
H34 C44 1_555 1_555
C49 N9 1_555 1_555
H42 C49 1_555 1_555
H43 C49 1_555 1_555
C50 N9 1_555 1_555
H44 C50 1_555 1_555
H45 C50 1_555 1_555
H46 C50 1_555 1_555
N12 Cu1 1_555 1_555
N13 Cu2 1_555 1_555
N14 Cu2 1_555 1_555
I2 Cu4 1_555 1_555
I3 Cu4 1_555 1_555
C1 O13 1_555 1_555
C4 C32 1_555 1_555
C8 C21 1_555 1_555
C23 C24 1_555 1_555
C40 C44 1_555 1_555
H44_2 C50_2 1_555 1_555
H45_2 C50_2 1_555 1_555
H46_2 C50_2 1_555 1_555
C2_2 H1_2 1_555 1_555
C3_2 O11_2 1_555 1_555
C8_2 O8_2 1_555 1_555
C13_2 H4_2 1_555 1_555
H5_2 C13_2 1_555 1_555
H6_2 C13_2 1_555 1_555
O14 C8_2 1_555 1_555
C18_2 C2_2 1_555 1_555
H9_2 C18_2 1_555 1_555
C21_2 C2_2 1_555 1_555
N8_2 C18_2 1_555 1_555
H25_2 C38_2 1_555 1_555
H26_2 C38_2 1_555 1_555
H27_2 C38_2 1_555 1_555
C40_2 C21_2 1_555 1_555
H28_2 C40_2 1_555 1_555
C44_2 N8_2 1_555 1_555
H34_2 C44_2 1_555 1_555
H40_2 C48_2 1_555 1_555
Cu8 N8_2 1_555 1_555
C3_2 O12_2 1_555 1_555
C8_2 C21_2 1_555 1_555
C13_2 C19_2 1_555 1_555
C40_2 C44_2 1_555 1_555
I1_2 Cu5 1_555 1_555
I3_2 Cu2_2 1_555 1_555
Cu9 I1_2 1_555 1_555
Cu4_2 I1_2 1_555 1_555
O2_2 Er1 1_555 1_555
O4 C1_2 1_555 1_555
O5_2 C39_2 1_555 1_555
C1_2 C6_2 1_555 1_555
N2_2 Cu4_2 1_555 1_555
C4_2 H2_2 1_555 1_555
N4_2 Cu9 1_555 1_555
C6_2 C4_2 1_555 1_555
C9_2 C14_2 1_555 1_555
C14_2 H7_2 1_555 1_555
O13_2 Er1 1_555 1_555
C23_2 N2_2 1_555 1_555
H12_2 C23_2 1_555 1_555
C24_2 C6_2 1_555 1_555
H13_2 C24_2 1_555 1_555
C25_2 N4_2 1_555 1_555
H14_2 C25_2 1_555 1_555
C27_2 O16_2 1_555 1_555
C28_2 N4_2 1_555 1_555
H16_2 C28_2 1_555 1_555
C29_2 C9_2 1_555 1_555
H17_2 C29_2 1_555 1_555
C32_2 N2_2 1_555 1_555
H19_2 C32_2 1_555 1_555
O16_2 Cu9 1_555 1_555
C39_2 O2_2 1_555 1_555
N9_2 C27_2 1_555 1_555
C42_2 C27_2 1_555 1_555
H30_2 C42_2 1_555 1_555
H31_2 C42_2 1_555 1_555
H32_2 C42_2 1_555 1_555
C46_2 N7_2 1_555 1_555
H36_2 C46_2 1_555 1_555
H37_2 C46_2 1_555 1_555
H38_2 C46_2 1_555 1_555
C49_2 N9_2 1_555 1_555
H42_2 C49_2 1_555 1_555
H43_2 C49_2 1_555 1_555
Er4 O4 1_555 1_555
N12_2 Cu5 1_555 1_555
I3_2 Cu4_2 1_555 1_555
C1_2 O13_2 1_555 1_555
C4_2 C32_2 1_555 1_555
C9_2 C39_2 1_555 1_555
C14_2 C25_2 1_555 1_555
C23_2 C24_2 1_555 1_555
C28_2 C29_2 1_555 1_555
O1_2 C5_2 1_555 1_555
N10 C37_2 1_555 1_555
N11 C30_2 1_555 1_555
C5_2 O10 1_555 1_555
C10_2 H3_2 1_555 1_555
C16_2 C5_2 1_555 1_555
C26_2 C16_2 1_555 1_555
H15_2 C26_2 1_555 1_555
C30_2 C10_2 1_555 1_555
H18_2 C30_2 1_555 1_555
C33_2 C12_2 1_555 1_555
H20_2 C33_2 1_555 1_555
C37_2 C33_2 1_555 1_555
H24_2 C37_2 1_555 1_555
C41_2 N11 1_555 1_555
H29_2 C41_2 1_555 1_555
C43_2 N10 1_555 1_555
H33_2 C43_2 1_555 1_555
C10_2 C16_2 1_555 1_555
C26_2 C41_2 1_555 1_555
N5_2 C45_2 1_555 1_555
C11_2 O3_2 1_555 1_555
C17_2 C11_2 1_555 1_555
C20_2 C17_2 1_555 1_555
H10_2 C20_2 1_555 1_555
C36_2 C17_2 1_555 1_555
C45_2 C20_2 1_555 1_555
H35_2 C45_2 1_555 1_555
C47_2 N5_2 1_555 1_555
H39_2 C47_2 1_555 1_555
Cu6_2 N5_2 1_555 1_555
O6_2 C11_2 1_555 1_555
C36_2 C47_2 1_555 1_555
O15_2 Er4 1_555 1_555
O18 C7_2 1_555 1_555
N6_2 C15_2 1_555 1_555
C22_2 H11_2 1_555 1_555
C31_2 C7_2 1_555 1_555
C34_2 N6_2 1_555 1_555
H21_2 C34_2 1_555 1_555
C35_2 C15_2 1_555 1_555
H22_2 C35_2 1_555 1_555
C22_2 C31_2 1_555 1_555
C22_2 C34_2 1_555 1_555
C31_2 C35_2 1_555 1_555
O7_2 C7_3 1_555 1_555
C7_3 O15_3 1_555 1_555
N13_2 C15_3 1_555 1_555
C22_3 H11_3 1_555 1_555
O15_3 Er2_2 1_555 1_555
C31_3 C7_3 1_555 1_555
C34_3 N13_2 1_555 1_555
H21_3 C34_3 1_555 1_555
C35_3 C15_3 1_555 1_555
H22_3 C35_3 1_555 1_555
Er3_2 O7_2 1_555 1_555
O17_2 Er2_2 1_555 1_555
O19_2 Er2_2 1_555 1_555
O20_2 Er2_2 1_555 1_555
C22_3 C31_3 1_555 1_555
C22_3 C34_3 1_555 1_555
C31_3 C35_3 1_555 1_555
Er3_2 O1_3 1_555 1_555
I1_3 Cu6_2 1_555 1_555
I3_3 Cu7 1_555 1_555
Cu6_2 N11_2 1_555 1_555
Cu3_2 I1_3 1_555 1_555
Cu4_3 I1_3 1_555 1_555
O1_3 C5_3 1_555 1_555
O2_3 Er3_2 1_555 1_555
O3_3 Er3_2 1_555 1_555
O17_2 C1_3 1_555 1_555
N1_2 C37_3 1_555 1_555
O5_3 C39_3 1_555 1_555
C1_3 C6_3 1_555 1_555
N2_3 Cu4_3 1_555 1_555
C2_3 H1_3 1_555 1_555
C3_3 O11_3 1_555 1_555
C4_3 H2_3 1_555 1_555
N3_2 C30_3 1_555 1_555
C5_3 O19_2 1_555 1_555
O8_3 Er3_2 1_555 1_555
N4_3 Cu3_2 1_555 1_555
C6_3 C4_3 1_555 1_555
C8_3 O8_3 1_555 1_555
C9_3 C14_3 1_555 1_555
C10_3 H3_3 1_555 1_555
N12_2 C45_3 1_555 1_555
C11_3 O3_3 1_555 1_555
C12_3 C3_3 1_555 1_555
O12_3 Er3_2 1_555 1_555
C13_3 H4_3 1_555 1_555
H5_3 C13_3 1_555 1_555
H6_3 C13_3 1_555 1_555
C14_3 H7_3 1_555 1_555
O13_3 Er3_2 1_555 1_555
O20_2 C8_3 1_555 1_555
C16_3 C5_3 1_555 1_555
C17_3 C11_3 1_555 1_555
C18_3 C2_3 1_555 1_555
H9_3 C18_3 1_555 1_555
C19_3 O9_3 1_555 1_555
C20_3 C17_3 1_555 1_555
H10_3 C20_3 1_555 1_555
C21_3 C2_3 1_555 1_555
N7_3 C19_3 1_555 1_555
C23_3 N2_3 1_555 1_555
H12_3 C23_3 1_555 1_555
N14 C18_3 1_555 1_555
C24_3 C6_3 1_555 1_555
H13_3 C24_3 1_555 1_555
C25_3 N4_3 1_555 1_555
H14_3 C25_3 1_555 1_555
C26_3 C16_3 1_555 1_555
H15_3 C26_3 1_555 1_555
C27_3 O16_3 1_555 1_555
C28_3 N4_3 1_555 1_555
H16_3 C28_3 1_555 1_555
C29_3 C9_3 1_555 1_555
H17_3 C29_3 1_555 1_555
C30_3 C10_3 1_555 1_555
H18_3 C30_3 1_555 1_555
C32_3 N2_3 1_555 1_555
H19_3 C32_3 1_555 1_555
O16_3 Cu3_2 1_555 1_555
C33_3 C12_3 1_555 1_555
H20_3 C33_3 1_555 1_555
C36_3 C17_3 1_555 1_555
C37_3 C33_3 1_555 1_555
H24_3 C37_3 1_555 1_555
C38_3 N7_3 1_555 1_555
H25_3 C38_3 1_555 1_555
H26_3 C38_3 1_555 1_555
H27_3 C38_3 1_555 1_555
C39_3 O2_3 1_555 1_555
C40_3 C21_3 1_555 1_555
H28_3 C40_3 1_555 1_555
N9_3 C27_3 1_555 1_555
C41_3 N3_2 1_555 1_555
H29_3 C41_3 1_555 1_555
C42_3 C27_3 1_555 1_555
H30_3 C42_3 1_555 1_555
H31_3 C42_3 1_555 1_555
H32_3 C42_3 1_555 1_555
C43_3 N1_2 1_555 1_555
H33_3 C43_3 1_555 1_555
C44_3 N14 1_555 1_555
H34_3 C44_3 1_555 1_555
C45_3 C20_3 1_555 1_555
H35_3 C45_3 1_555 1_555
C46_3 N7_3 1_555 1_555
H36_3 C46_3 1_555 1_555
H37_3 C46_3 1_555 1_555
H38_3 C46_3 1_555 1_555
C47_3 N12_2 1_555 1_555
H39_3 C47_3 1_555 1_555
C48_3 C12_3 1_555 1_555
H40_3 C48_3 1_555 1_555
C49_3 N9_3 1_555 1_555
H41_3 C49_3 1_555 1_555
H42_3 C49_3 1_555 1_555
H43_3 C49_3 1_555 1_555
Cu6 N3_2 1_555 1_555
Cu9_2 N1_2 1_555 1_555
N10_2 Cu3_2 1_555 1_555
I3_3 Cu4_3 1_555 1_555
O6_3 C11_3 1_555 1_555
C1_3 O13_3 1_555 1_555
C3_3 O12_3 1_555 1_555
C4_3 C32_3 1_555 1_555
C8_3 C21_3 1_555 1_555
C9_3 C39_3 1_555 1_555
C10_3 C16_3 1_555 1_555
C13_3 C19_3 1_555 1_555
C14_3 C25_3 1_555 1_555
C23_3 C24_3 1_555 1_555
C26_3 C41_3 1_555 1_555
C28_3 C29_3 1_555 1_555
C36_3 C47_3 1_555 1_555
C40_3 C44_3 1_555 1_555
C43_3 C48_3 1_555 1_555
H44_3 C50_3 1_555 1_555
H45_3 C50_3 1_555 1_555
H46_3 C50_3 1_555 1_555
I1_4 Cu6 1_555 1_555
I2_4 Cu6 1_555 1_555
I3_4 Cu8 1_555 1_555
Cu8 I2_4 1_555 1_555
Cu4_4 I1_4 1_555 1_555
O4_2 C1_4 1_555 1_555
C1_4 C6_4 1_555 1_555
N2_4 Cu4_4 1_555 1_555
C6_4 C4_4 1_555 1_555
C23_4 N2_4 1_555 1_555
H12_4 C23_4 1_555 1_555
C24_4 C6_4 1_555 1_555
H13_4 C24_4 1_555 1_555
C27_4 O16_4 1_555 1_555
C32_4 N2_4 1_555 1_555
H19_4 C32_4 1_555 1_555
N9_4 C27_4 1_555 1_555
C42_4 C27_4 1_555 1_555
H30_4 C42_4 1_555 1_555
H31_4 C42_4 1_555 1_555
H32_4 C42_4 1_555 1_555
C49_4 N9_4 1_555 1_555
H41_4 C49_4 1_555 1_555
H42_4 C49_4 1_555 1_555
H43_4 C49_4 1_555 1_555
C50_4 N9_4 1_555 1_555
H44_4 C50_4 1_555 1_555
H45_4 C50_4 1_555 1_555
H46_4 C50_4 1_555 1_555
Er4_2 O4_2 1_555 1_555
I2_4 Cu4_4 1_555 1_555
I3_4 Cu4_4 1_555 1_555
C1_4 O13_4 1_555 1_555
C4_4 C32_4 1_555 1_555
C23_4 C24_4 1_555 1_555
O1_4 C5_4 1_555 1_555
N11_2 C30_4 1_555 1_555
C5_4 O10_2 1_555 1_555
C8_4 O8_4 1_555 1_555
C10_4 H3_4 1_555 1_555
O14_2 C8_4 1_555 1_555
C16_4 C5_4 1_555 1_555
C21_4 C2_4 1_555 1_555
C26_4 C16_4 1_555 1_555
H15_4 C26_4 1_555 1_555
C30_4 C10_4 1_555 1_555
H18_4 C30_4 1_555 1_555
C40_4 C21_4 1_555 1_555
H28_4 C40_4 1_555 1_555
C41_4 N11_2 1_555 1_555
H29_4 C41_4 1_555 1_555
C44_4 N14_2 1_555 1_555
H34_4 C44_4 1_555 1_555
C8_4 C21_4 1_555 1_555
C10_4 C16_4 1_555 1_555
C26_4 C41_4 1_555 1_555
C40_4 C44_4 1_555 1_555
Er4_2 O5_4 1_555 1_555
O2_4 Er1_2 1_555 1_555
O3_4 Er1_2 1_555 1_555
O5_4 C39_4 1_555 1_555
O6_4 Er4_2 1_555 1_555
O18_2 C7_4 1_555 1_555
N4_4 Cu9_2 1_555 1_555
C7_4 O15_4 1_555 1_555
O9_4 Er4_2 1_555 1_555
C9_4 C14_4 1_555 1_555
N12 C45_4 1_555 1_555
C11_4 O3_4 1_555 1_555
C14_4 H7_4 1_555 1_555
C15_4 H8_4 1_555 1_555
C17_4 C11_4 1_555 1_555
N13 C15_4 1_555 1_555
C20_4 C17_4 1_555 1_555
H10_4 C20_4 1_555 1_555
C22_4 H11_4 1_555 1_555
O15_4 Er4_2 1_555 1_555
C25_4 N4_4 1_555 1_555
H14_4 C25_4 1_555 1_555
C28_4 N4_4 1_555 1_555
H16_4 C28_4 1_555 1_555
C29_4 C9_4 1_555 1_555
H17_4 C29_4 1_555 1_555
C31_4 C7_4 1_555 1_555
C34_4 N13 1_555 1_555
H21_4 C34_4 1_555 1_555
C35_4 C15_4 1_555 1_555
H22_4 C35_4 1_555 1_555
C36_4 C17_4 1_555 1_555
H23_4 C36_4 1_555 1_555
C39_4 O2_4 1_555 1_555
C45_4 C20_4 1_555 1_555
H35_4 C45_4 1_555 1_555
C46_4 N7_4 1_555 1_555
H36_4 C46_4 1_555 1_555
H37_4 C46_4 1_555 1_555
H38_4 C46_4 1_555 1_555
C47_4 N12 1_555 1_555
H39_4 C47_4 1_555 1_555
O6_4 C11_4 1_555 1_555
C9_4 C39_4 1_555 1_555
C14_4 C25_4 1_555 1_555
C22_4 C31_4 1_555 1_555
C22_4 C34_4 1_555 1_555
C28_4 C29_4 1_555 1_555
C31_4 C35_4 1_555 1_555
C36_4 C47_4 1_555 1_555
N10_2 C37_4 1_555 1_555
C3_4 O11_4 1_555 1_555
C12_4 C3_4 1_555 1_555
C13_4 H4_4 1_555 1_555
H5_4 C13_4 1_555 1_555
H6_4 C13_4 1_555 1_555
H9_4 C18_4 1_555 1_555
C33_4 C12_4 1_555 1_555
H20_4 C33_4 1_555 1_555
C37_4 C33_4 1_555 1_555
H24_4 C37_4 1_555 1_555
H25_4 C38_4 1_555 1_555
H26_4 C38_4 1_555 1_555
H27_4 C38_4 1_555 1_555
C43_4 N10_2 1_555 1_555
H33_4 C43_4 1_555 1_555
C48_4 C12_4 1_555 1_555
H40_4 C48_4 1_555 1_555
C3_4 O12_4 1_555 1_555
C13_4 C19_4 1_555 1_555
C43_4 C48_4 1_555 1_555

#END
