
###############################################################################
#
# This file contains modified crystal structure data generated from the
# MOF subset of the Cambridge Structural Database (CSD) v543 
# hosted by the Cambridge Crystallographic Data Centre (CCDC).
#
# This work is licensed under the Creative Commons
# Attribution-NonCommercial-ShareAlike 4.0 International License.
# To view a copy of this license, visit
# http://creativecommons.org/licenses/by-nc-sa/4.0/
# or send a letter to
# Creative Commons, PO Box 1866, Mountain View, CA 94042, USA.
#
# CIF created using the CSD Python API on 29 September 2022
# The structure has been converted into the P1 space group
# The structure has a 3D framework
# The original CSD entry TEBKET is in the orthorhombic crystal system
# The original CSD entry TEBKET is in a Sohncke space group
# The framework has been calculated to contain at least 10.0% void space
# The void calculation uses a probe of radius 1.32A, grid spacing 0.4
#
###############################################################################

data_TEBKET
_chemical_formula_moiety         '(C200 H184 Cu14 I12 N36 O64 Yb7)n'
_symmetry_cell_setting           triclinic
_symmetry_space_group_name_H-M   'P 1'
_symmetry_Int_Tables_number      1
_space_group_name_Hall           'P 1'
loop_
_symmetry_equiv_pos_site_id
_symmetry_equiv_pos_as_xyz
1 x,y,z
_cell_length_a                   9.266(3)
_cell_length_b                   23.183(8)
_cell_length_c                   30.570(10)
_cell_angle_alpha                90
_cell_angle_beta                 90
_cell_angle_gamma                90
_cell_volume                     6566.85
loop_
_atom_site_label
_atom_site_type_symbol
_atom_site_fract_x
_atom_site_fract_y
_atom_site_fract_z
Yb1 Yb 0.01223(5) 0.53491(2) 0.521789(16)
H1 H 0.0013 0.6802 0.6217
O2 O 0.3730(9) 0.5460(4) 0.4632(3)
O6 O 0.1403(9) 0.5251(5) 0.4556(3)
N1 N 0.3812(13) 0.4252(5) 0.3297(3)
H2 H 0.0465 0.5936 0.4061
C5 C 0.2699(12) 0.5225(5) 0.4440(4)
C6 C 0.3030(12) 0.4879(5) 0.4043(4)
C12 C 0.0201(17) 0.6188(7) 0.3439(4)
H4 H 0.1149 0.6108 0.3360
C29 C 0.2981(14) 0.4014(7) 0.3606(5)
H17 H 0.2641 0.3640 0.3569
C32 C 0.2621(17) 0.4318(7) 0.3980(5)
H19 H 0.2084 0.4134 0.4196
C41 C 0.421(2) 0.4804(7) 0.3347(5)
H30 H 0.4738 0.4981 0.3125
C47 C 0.387(2) 0.5118(7) 0.3716(6)
H37 H 0.4211 0.5494 0.3745
Yb4 Yb 0.54248(5) 0.56058(2) 0.515600(16)
Cu5 Cu 0.4552(2) 0.38048(8) 0.27772(5)
Cu8 Cu 0.0057(2) 0.64335(7) 0.24929(5)
O18 O 0.1762(9) 0.4620(4) 0.5309(3)
O19 O 0.2063(10) 0.5736(4) 0.5585(3)
I1 I 0.21060(10) 0.39174(4) 0.75100(3)
I2 I 0.02191(10) 0.22966(4) 0.71415(3)
I3 I 0.51372(10) 0.24446(4) 0.72432(3)
Cu2 Cu 0.2798(2) 0.23477(7) 0.67590(5)
Cu3 Cu 0.4943(2) 0.35665(7) 0.74929(5)
Cu4 Cu 0.2558(2) 0.28189(8) 0.75709(6)
O1 O 0.4242(9) 0.6524(4) 0.5047(3)
C1 C 0.9100(15) 0.6920(6) 0.6306(4)
O4 O 0.9257(9) 0.6146(4) 0.5611(3)
O5 O 0.6929(9) 0.6328(4) 0.5442(3)
C2 C 0.2396(13) 0.5904(5) 0.6339(4)
O7 O 0.4308(9) 0.5855(4) 0.5834(3)
O8 O 0.4164(9) 0.4740(4) 0.5393(3)
C3 C 0.9797(14) 0.6074(7) 0.3859(4)
N2 N 0.1296(12) 0.6069(5) 0.7185(3)
O9 O 0.8766(9) 0.4643(4) 0.4927(3)
C4 C 0.7904(13) 0.6765(5) 0.6079(4)
N3 N 0.7790(13) 0.3311(5) 0.3674(3)
O10 O 0.6468(9) 0.4838(4) 0.4772(3)
O11 O 0.9205(9) 0.4890(4) 0.5866(3)
C7 C 0.7636(13) 0.4579(5) 0.4719(4)
O12 O 0.6525(9) 0.6008(4) 0.4513(3)
O13 O 0.7022(9) 0.5182(4) 0.5665(3)
C8 C 0.7852(13) 0.5998(5) 0.4434(4)
N4 N 0.7639(12) 0.7447(5) 0.6820(4)
C9 C 0.8030(13) 0.6380(5) 0.5666(4)
C10 C 0.3020(12) 0.3984(5) 0.5763(4)
N5 N 0.5946(12) 0.4050(5) 0.7022(4)
C11 C 0.5208(14) 0.4403(6) 0.6765(4)
H3 H 0.4235 0.4456 0.6828
C13 C 0.3265(14) 0.6743(5) 0.4822(5)
C14 C 0.6557(13) 0.6947(5) 0.6209(4)
H5 H 0.5734 0.6847 0.6052
C15 C 0.7661(14) 0.4126(5) 0.4359(4)
C16 C 0.8013(16) 0.4300(8) 0.6598(5)
H6 H 0.9000 0.4260 0.6552
O15 O 0.8838(10) 0.5857(4) 0.4702(3)
N6 N 0.2938(13) 0.3062(5) 0.6355(4)
C17 C 0.6471(13) 0.7299(6) 0.6593(4)
H7 H 0.5572 0.7427 0.6687
C18 C 0.8362(13) 0.6168(6) 0.3983(4)
C19 C 0.6442(14) 0.3953(7) 0.4142(5)
H8 H 0.5546 0.4098 0.4223
C20 C 0.0909(16) 0.5619(7) 0.6937(5)
H9 H 0.0275 0.5351 0.7057
N7 N 0.9330(13) 0.6405(5) 0.3137(4)
C21 C 0.283(2) 0.0687(9) 0.7422(7)
N8 N 0.2202(14) 0.7054(6) 0.4992(5)
C22 C 0.2849(15) 0.6372(7) 0.6602(4)
H10 H 0.3547 0.6626 0.6499
C23 C 0.1784(14) 0.3875(6) 0.6018(5)
H11 H 0.0976 0.4111 0.5998
C24 C 0.2258(15) 0.6448(7) 0.7006(4)
H12 H 0.2520 0.6772 0.7167
C25 C 0.5753(14) 0.4694(7) 0.6419(5)
H13 H 0.5161 0.4927 0.6248
C26 C 0.4185(16) 0.3629(7) 0.5823(5)
H14 H 0.5038 0.3689 0.5669
C27 C 0.6548(15) 0.3569(8) 0.3807(5)
H15 H 0.5706 0.3475 0.3657
C28 C 0.7395(17) 0.4022(8) 0.6940(5)
H16 H 0.7977 0.3804 0.7125
O16 O 0.1547(13) 0.0631(6) 0.7292(4)
C30 C 0.8909(15) 0.7268(6) 0.6682(4)
H18 H 0.9723 0.7376 0.6840
C31 C 0.2968(13) 0.5835(6) 0.5873(4)
C33 C 0.7975(15) 0.6516(7) 0.3250(4)
H20 H 0.7350 0.6673 0.3044
N9 N 0.3860(17) 0.0486(7) 0.7196(6)
C34 C 0.7844(14) 0.4935(5) 0.5917(4)
C35 C 0.7239(13) 0.4638(6) 0.6320(4)
C36 C 0.7468(15) 0.6402(7) 0.3671(5)
H21 H 0.6514 0.6486 0.3741
C37 C 0.309(2) 0.1046(9) 0.7839(7)
H22 H 0.2186 0.1181 0.7951
H23 H 0.3697 0.1370 0.7770
H24 H 0.3559 0.0811 0.8055
C38 C 0.8984(16) 0.3859(7) 0.4254(6)
H25 H 0.9825 0.3950 0.4405
C39 C 0.8993(17) 0.3454(7) 0.3917(5)
H26 H 0.9859 0.3270 0.3852
C40 C 0.0917(18) 0.7241(8) 0.4761(7)
H27 H 0.0950 0.7652 0.4721
H28 H 0.0077 0.7142 0.4929
H29 H 0.0873 0.7054 0.4481
C42 C 0.2973(14) 0.4498(5) 0.5465(4)
C43 C 0.4065(17) 0.3180(7) 0.6117(5)
H31 H 0.4862 0.2940 0.6149
C44 C 0.1385(16) 0.5530(6) 0.6521(4)
H32 H 0.1035 0.5221 0.6359
C45 C 0.225(2) 0.7186(8) 0.5463(5)
H33 H 0.1489 0.6985 0.5610
H34 H 0.2141 0.7593 0.5506
H35 H 0.3166 0.7065 0.5581
C46 C 0.1803(15) 0.3409(7) 0.6300(5)
H36 H 0.0974 0.3333 0.6462
C48 C 0.328(2) 0.6678(7) 0.4322(5)
H38 H 0.4164 0.6500 0.4232
H39 H 0.3196 0.7051 0.4189
H40 H 0.2479 0.6441 0.4233
C49 C 0.538(2) 0.0528(9) 0.7347(7)
H41 H 0.5646 0.0927 0.7376
H42 H 0.6005 0.0346 0.7137
H43 H 0.5482 0.0339 0.7625
C50 C 0.356(2) 0.0157(9) 0.6801(7)
H45 H 0.4457 0.0045 0.6667
H46 H 0.3018 0.0390 0.6601
Cu6 Cu 0.0448(2) 0.61952(8) 0.77772(5)
Cu7 Cu 0.7798(2) 0.26523(7) 0.32410(5)
Cu9 Cu 0.7442(2) 0.78189(8) 0.74291(6)
N12 N 0.2790(13) 0.1689(5) 0.6326(3)
N13 N 0.2361(12) 0.2447(5) 0.8180(4)
N14 N 0.5670(13) 0.3595(5) 0.8137(4)
Cu1 Cu 0.9552(2) 0.11952(8) 0.72228(5)
N10 N 0.8812(13) 0.0748(5) 0.6703(3)
N11 N 0.8704(12) 0.1069(5) 0.7815(3)
I1_2 I 0.28940(10) 0.60826(4) 0.25100(3)
I2_2 I 0.47809(10) 0.77034(4) 0.21415(3)
Cu1_2 Cu 0.5448(2) 0.88048(8) 0.22228(5)
Cu2_2 Cu 0.2202(2) 0.76523(7) 0.17590(5)
Cu4_2 Cu 0.2442(2) 0.71811(8) 0.25709(6)
O1_2 O 0.0758(9) 0.3476(4) 0.0047(3)
O3 O 0.3238(9) 0.5380(4) 0.0309(3)
C2_2 C 0.2604(13) 0.4096(5) 0.1339(4)
O7_2 O 0.0692(9) 0.4145(4) 0.0834(3)
O8_2 O 0.0836(9) 0.5260(4) 0.0393(3)
N2_2 N 0.3704(12) 0.3931(5) 0.2185(3)
O14 O 0.2937(10) 0.4264(4) 0.0585(3)
C10_2 C 0.1980(12) 0.6016(5) 0.0763(4)
H3_2 H 0.0765 0.5544 0.1828
N6_2 N 0.2062(13) 0.6938(5) 0.1355(4)
C20_2 C 0.4091(16) 0.4381(7) 0.1937(5)
H9_2 H 0.4725 0.4649 0.2057
C21_2 C 0.217(2) 0.9313(9) 0.2422(7)
C22_2 C 0.2151(15) 0.3628(7) 0.1602(4)
H10_2 H 0.1453 0.3374 0.1499
C23_2 C 0.3216(14) 0.6125(6) 0.1018(5)
H11_2 H 0.4024 0.5889 0.0998
C24_2 C 0.2742(15) 0.3552(7) 0.2006(4)
H12_2 H 0.2480 0.3228 0.2167
C26_2 C 0.0815(16) 0.6371(7) 0.0823(5)
O16_2 O 0.3453(13) 0.9369(6) 0.2292(4)
C31_2 C 0.2032(13) 0.4165(6) 0.0873(4)
N9_2 N 0.1140(17) 0.9514(7) 0.2196(6)
C37_2 C 0.191(2) 0.8954(9) 0.2839(7)
H22_2 H 0.2814 0.8819 0.2951
H23_2 H 0.1303 0.8630 0.2770
H24_2 H 0.1441 0.9189 0.3055
C42_2 C 0.2027(14) 0.5502(5) 0.0465(4)
C43_2 C 0.0935(17) 0.6820(7) 0.1117(5)
H31_2 H 0.0138 0.7060 0.1149
C44_2 C 0.3615(16) 0.4470(6) 0.1521(4)
H32_2 H 0.3965 0.4779 0.1359
C45_2 C 0.275(2) 0.2814(8) 0.0463(5)
H33_2 H 0.3511 0.3015 0.0610
H34_2 H 0.2859 0.2407 0.0506
H35_2 H 0.1834 0.2935 0.0581
C46_2 C 0.3197(15) 0.6591(7) 0.1300(5)
H36_2 H 0.4026 0.6667 0.1462
C50_2 C 0.144(2) 0.9843(9) 0.1801(7)
H45_2 H 0.0543 0.9955 0.1667
H46_2 H 0.1982 0.9610 0.1601
Yb3 Yb 0.48777(5) 0.46509(2) 0.021789(16)
N10_2 N 0.6188(13) 0.9252(5) 0.1703(3)
N11_2 N 0.6296(12) 0.8931(5) 0.2815(3)
N12_2 N 0.2210(13) 0.8311(5) 0.1326(3)
N13_2 N 0.2639(12) 0.7553(5) 0.3180(4)
C13_2 C 0.1735(14) 0.3257(5) 0.9822(5)
N8_2 N 0.2798(14) 0.2946(6) 0.9992(5)
C40_2 C 0.4083(18) 0.2759(8) 0.9761(7)
H27_2 H 0.4050 0.2348 0.9721
H28_2 H 0.4923 0.2858 0.9929
H29_2 H 0.4127 0.2946 0.9481
C48_2 C 0.172(2) 0.3322(7) 0.9322(5)
H38_2 H 0.0836 0.3500 0.9232
H39_2 H 0.1804 0.2949 0.9189
H40_2 H 0.2521 0.3559 0.9233
O17 O 0.1270(9) 0.4540(4) 0.9632(3)
Yb2 Yb 0.95752(5) 0.43942(2) 0.015600(16)
I3_2 I 0.98628(10) 0.75554(4) 0.22432(3)
C1_2 C 0.5900(15) 0.3080(6) 0.1306(4)
H1_2 H 0.4987 0.3198 0.1217
O4_2 O 0.5743(9) 0.3854(4) 0.0611(3)
O5_2 O 0.8071(9) 0.3672(4) 0.0442(3)
C4_2 C 0.7096(13) 0.3235(5) 0.1079(4)
O11_2 O 0.5795(9) 0.5110(4) 0.0866(3)
O13_2 O 0.7978(9) 0.4818(4) 0.0665(3)
N4_2 N 0.7361(12) 0.2553(5) 0.1820(4)
C9_2 C 0.6970(13) 0.3620(5) 0.0666(4)
N5_2 N 0.9054(12) 0.5950(5) 0.2022(4)
C11_2 C 0.9792(14) 0.5597(6) 0.1765(4)
C14_2 C 0.8443(13) 0.3053(5) 0.1209(4)
H5_2 H 0.9266 0.3153 0.1052
C16_2 C 0.6987(16) 0.5700(8) 0.1598(5)
H6_2 H 0.6000 0.5740 0.1552
C17_2 C 0.8529(13) 0.2701(6) 0.1593(4)
H7_2 H 0.9428 0.2573 0.1687
C25_2 C 0.9247(14) 0.5306(7) 0.1419(5)
H13_2 H 0.9839 0.5073 0.1248
H14_2 H 0.9962 0.6311 0.0669
C28_2 C 0.7605(17) 0.5978(8) 0.1940(5)
H16_2 H 0.7023 0.6196 0.2125
C30_2 C 0.6091(15) 0.2732(6) 0.1682(4)
H18_2 H 0.5277 0.2624 0.1840
C34_2 C 0.7156(14) 0.5065(5) 0.0917(4)
C35_2 C 0.7761(13) 0.5362(6) 0.1320(4)
C49_2 C 0.962(2) 0.9472(9) 0.2347(7)
H41_2 H 0.9354 0.9073 0.2376
H42_2 H 0.8995 0.9654 0.2137
H43_2 H 0.9518 0.9661 0.2625
Cu9_2 Cu 0.7558(2) 0.21811(8) 0.24291(6)
O6_2 O 0.3597(9) 0.4749(5) 0.9556(3)
N1_2 N 0.1188(13) 0.5748(5) 0.8297(3)
C3_2 C 0.5203(14) 0.3926(7) 0.8859(4)
H2_2 H 0.4535 0.4064 0.9061
O9_2 O 0.6234(9) 0.5357(4) 0.9927(3)
N3_2 N 0.7210(13) 0.6689(5) 0.8674(3)
C5_2 C 0.2301(12) 0.4775(5) 0.9440(4)
O10_2 O 0.8532(9) 0.5162(4) 0.9772(3)
C6_2 C 0.1970(12) 0.5121(5) 0.9043(4)
C7_2 C 0.7364(13) 0.5421(5) 0.9719(4)
O12_2 O 0.8475(9) 0.3992(4) 0.9513(3)
C8_2 C 0.7148(13) 0.4002(5) 0.9434(4)
C12_2 C 0.4799(17) 0.3812(7) 0.8439(4)
H4_2 H 0.3851 0.3892 0.8360
C15_2 C 0.7339(14) 0.5874(5) 0.9359(4)
O15_2 O 0.6162(10) 0.4143(4) 0.9702(3)
C18_2 C 0.6638(13) 0.3832(6) 0.8983(4)
C19_2 C 0.8558(14) 0.6047(7) 0.9142(5)
H8_2 H 0.9454 0.5902 0.9223
C27_2 C 0.8452(15) 0.6431(8) 0.8807(5)
H15_2 H 0.9294 0.6525 0.8657
C29_2 C 0.2019(14) 0.5986(7) 0.8606(5)
H17_2 H 0.2359 0.6360 0.8569
C32_2 C 0.2379(17) 0.5682(7) 0.8980(5)
H19_2 H 0.2916 0.5866 0.9196
C33_2 C 0.7025(15) 0.3484(7) 0.8250(4)
H20_2 H 0.7650 0.3327 0.8044
C36_2 C 0.7532(15) 0.3598(7) 0.8671(5)
H21_2 H 0.8486 0.3514 0.8741
C38_2 C 0.6016(16) 0.6141(7) 0.9254(6)
H25_2 H 0.5175 0.6050 0.9405
C39_2 C 0.6007(17) 0.6546(7) 0.8917(5)
H26_2 H 0.5141 0.6730 0.8852
C41_2 C 0.079(2) 0.5196(7) 0.8347(5)
H30_2 H 0.0262 0.5019 0.8125
C47_2 C 0.113(2) 0.4882(7) 0.8716(6)
H37_2 H 0.0789 0.4506 0.8745
Cu7_2 Cu 0.7202(2) 0.73477(7) 0.82410(5)
Yb4_2 Yb 0.04248(5) 0.93942(2) 0.484400(16)
I3_3 I 0.01372(10) 0.25554(4) 0.27568(3)
O9_3 O 0.3766(9) 0.0357(4) 0.5073(3)
O10_3 O 0.1468(9) 0.0162(4) 0.5228(3)
O11_3 O 0.4205(9) 0.0110(4) 0.4134(3)
C6_3 C 0.8030(12) 0.0121(5) 0.5957(4)
C7_3 C 0.2636(13) 0.0421(5) 0.5281(4)
N5_3 N 0.0946(12) 0.0950(5) 0.2978(4)
C11_3 C 0.0208(14) 0.0597(6) 0.3235(4)
C15_3 C 0.2661(14) 0.0874(5) 0.5641(4)
C16_3 C 0.3013(16) 0.0700(8) 0.3402(5)
H6_3 H 0.4000 0.0740 0.3448
C19_3 C 0.1442(14) 0.1047(7) 0.5858(5)
H8_3 H 0.0546 0.0902 0.5777
C25_3 C 0.0753(14) 0.0306(7) 0.3581(5)
H13_3 H 0.0161 0.0073 0.3752
H14_3 H 0.0038 0.1311 0.4331
C27_3 C 0.1548(15) 0.1431(8) 0.6193(5)
H15_3 H 0.0706 0.1525 0.6343
C28_3 C 0.2395(17) 0.0978(8) 0.3060(5)
H16_3 H 0.2977 0.1196 0.2875
C29_3 C 0.7981(14) 0.0986(7) 0.6394(5)
H17_3 H 0.7641 0.1360 0.6431
C32_3 C 0.7621(17) 0.0682(7) 0.6020(5)
H19_3 H 0.7084 0.0866 0.5804
C34_3 C 0.2844(14) 0.0065(5) 0.4083(4)
C35_3 C 0.2239(13) 0.0362(6) 0.3680(4)
C38_3 C 0.3984(16) 0.1141(7) 0.5746(6)
H25_3 H 0.4825 0.1050 0.5595
C39_3 C 0.3993(17) 0.1546(7) 0.6083(5)
H26_3 H 0.4859 0.1730 0.6148
C41_3 C 0.921(2) 0.0196(7) 0.6653(5)
H30_3 H 0.9738 0.0019 0.6875
C49_3 C 0.038(2) 0.4472(9) 0.2653(7)
H41_3 H 0.0646 0.4073 0.2624
H42_3 H 0.1005 0.4654 0.2863
H43_3 H 0.0482 0.4661 0.2375
O18_2 O 0.6762(9) 0.0380(4) 0.4691(3)
N14_2 N 0.0670(13) 0.1405(5) 0.1863(4)
Yb1_2 Yb 0.51223(5) 0.96509(2) 0.478211(16)
C1_3 C 0.4100(15) 0.8080(6) 0.3694(4)
H1_3 H 0.5013 0.8198 0.3783
O2_2 O 0.8730(9) 0.9540(4) 0.5368(3)
O4_3 O 0.4257(9) 0.8854(4) 0.4389(3)
O5_3 O 0.1929(9) 0.8672(4) 0.4558(3)
O6_3 O 0.6403(9) 0.9749(5) 0.5444(3)
C3_3 C 0.4797(14) 0.8926(7) 0.6141(4)
H2_3 H 0.5465 0.9064 0.5939
C4_3 C 0.2904(13) 0.8235(5) 0.3921(4)
C5_3 C 0.7699(12) 0.9775(5) 0.5560(4)
O12_3 O 0.1525(9) 0.8992(4) 0.5487(3)
O13_3 O 0.2022(9) 0.9818(4) 0.4335(3)
C8_3 C 0.2852(13) 0.9002(5) 0.5566(4)
C9_3 C 0.3030(13) 0.8620(5) 0.4334(4)
C12_3 C 0.5201(17) 0.8812(7) 0.6561(4)
H4_3 H 0.6149 0.8892 0.6640
C14_3 C 0.1557(13) 0.8053(5) 0.3791(4)
H5_3 H 0.0734 0.8153 0.3948
O15_3 O 0.3838(10) 0.9143(4) 0.5298(3)
C17_3 C 0.1471(13) 0.7701(6) 0.3407(4)
H7_3 H 0.0572 0.7573 0.3313
C18_3 C 0.3362(13) 0.8832(6) 0.6017(4)
N7_2 N 0.4330(13) 0.8595(5) 0.6863(4)
C30_3 C 0.3909(15) 0.7732(6) 0.3318(4)
H18_3 H 0.4723 0.7624 0.3160
C33_3 C 0.2975(15) 0.8484(7) 0.6750(4)
H20_3 H 0.2350 0.8327 0.6956
C36_3 C 0.2468(15) 0.8598(7) 0.6329(5)
H21_3 H 0.1514 0.8514 0.6259
C47_3 C 0.887(2) 0.9882(7) 0.6284(6)
H37_3 H 0.9211 0.9506 0.6255
Cu8_2 Cu 0.5057(2) 0.85665(7) 0.75071(5)
O19_2 O 0.7063(10) 0.9264(4) 0.4415(3)
I1_3 I 0.71060(10) 0.10826(4) 0.24900(3)
I2_3 I 0.52191(10) 0.27034(4) 0.28585(3)
Cu3_2 Cu 0.9943(2) 0.14335(7) 0.25071(5)
O8_3 O 0.9164(9) 0.0260(4) 0.4607(3)
C10_3 C 0.8020(12) 0.1016(5) 0.4237(4)
H3_3 H 0.9235 0.0544 0.3172
N6_3 N 0.7938(13) 0.1938(5) 0.3645(4)
C21_3 C 0.783(2) 0.4313(9) 0.2578(7)
C23_3 C 0.6784(14) 0.1125(6) 0.3982(5)
H11_3 H 0.5976 0.0889 0.4002
C26_3 C 0.9185(16) 0.1371(7) 0.4177(5)
O16_3 O 0.6547(13) 0.4369(6) 0.2708(4)
N9_3 N 0.8860(17) 0.4514(7) 0.2804(6)
C37_3 C 0.809(2) 0.3954(9) 0.2161(7)
H22_3 H 0.7186 0.3819 0.2049
H23_3 H 0.8697 0.3630 0.2230
H24_3 H 0.8559 0.4189 0.1945
C42_3 C 0.7973(14) 0.0502(5) 0.4535(4)
C43_3 C 0.9065(17) 0.1820(7) 0.3883(5)
H31_3 H 0.9862 0.2060 0.3851
C46_3 C 0.6803(15) 0.1591(7) 0.3700(5)
H36_3 H 0.5974 0.1667 0.3538
C50_3 C 0.856(2) 0.4843(9) 0.3199(7)
H44 H 0.8018 0.5182 0.3125
H45_3 H 0.9457 0.4955 0.3333
H46_3 H 0.8018 0.4610 0.3399
O1_3 O 0.9242(9) 0.8476(4) 0.4953(3)
C2_3 C 0.7396(13) 0.9096(5) 0.3661(4)
O7_3 O 0.9308(9) 0.9145(4) 0.4166(3)
C13_3 C 0.8265(14) 0.8257(5) 0.5178(5)
C20_3 C 0.5909(16) 0.9381(7) 0.3063(5)
H9_3 H 0.5275 0.9649 0.2943
N8_3 N 0.7202(14) 0.7946(6) 0.5008(5)
C22_3 C 0.7849(15) 0.8628(7) 0.3398(4)
H10_3 H 0.8547 0.8374 0.3501
C24_3 C 0.7258(15) 0.8552(7) 0.2994(4)
H12_3 H 0.7520 0.8228 0.2833
C31_3 C 0.7968(13) 0.9165(6) 0.4127(4)
C40_3 C 0.5917(18) 0.7759(8) 0.5239(7)
H27_3 H 0.5950 0.7348 0.5279
H28_3 H 0.5077 0.7858 0.5071
H29_3 H 0.5873 0.7946 0.5519
C44_3 C 0.6385(16) 0.9470(6) 0.3479(4)
H32_3 H 0.6035 0.9779 0.3641
C45_3 C 0.725(2) 0.7814(8) 0.4537(5)
H33_3 H 0.6489 0.8015 0.4390
H34_3 H 0.7141 0.7407 0.4494
H35_3 H 0.8166 0.7935 0.4419
C48_3 C 0.828(2) 0.8322(7) 0.5678(5)
H38_3 H 0.9164 0.8500 0.5768
H39_3 H 0.8196 0.7949 0.5811
H40_3 H 0.7479 0.8559 0.5767
C3_4 C 0.0203(14) 0.1074(7) 0.1141(4)
O12_4 O 0.3475(9) 0.1008(4) 0.0487(3)
C8_4 C 0.2148(13) 0.0998(5) 0.0566(4)
C13_4 C 0.6735(14) 0.1743(5) 0.0178(5)
O15_4 O 0.1162(10) 0.0857(4) 0.0298(3)
C18_4 C 0.1638(13) 0.1168(6) 0.1017(4)
N8_4 N 0.7798(14) 0.2054(6) 0.0008(5)
C33_4 C 0.2025(15) 0.1516(7) 0.1750(4)
H20_4 H 0.2650 0.1673 0.1956
C36_4 C 0.2532(15) 0.1402(7) 0.1329(5)
H21_4 H 0.3486 0.1486 0.1259
C40_4 C 0.9083(18) 0.2241(8) 0.0239(7)
H27_4 H 0.9050 0.2652 0.0279
H28_4 H 0.9923 0.2142 0.0071
H29_4 H 0.9127 0.2054 0.0519
C48_4 C 0.672(2) 0.1678(7) 0.0678(5)
H38_4 H 0.5836 0.1500 0.0768
H39_4 H 0.6804 0.2051 0.0811
H40_4 H 0.7521 0.1441 0.0767
O17_2 O 0.6270(9) 0.0460(4) 0.0368(3)
Yb2_2 Yb 0.45752(5) 0.06058(2) 0.984400(16)
O1_4 O 0.5758(9) 0.1524(4) 0.9953(3)
C1_4 C 0.0900(15) 0.1920(6) 0.8694(4)
O4_4 O 0.0743(9) 0.1146(4) 0.9389(3)
O5_4 O 0.3071(9) 0.1328(4) 0.9558(3)
C2_4 C 0.7604(13) 0.0904(5) 0.8661(4)
O7_4 O 0.5692(9) 0.0855(4) 0.9166(3)
C4_4 C 0.2096(13) 0.1765(5) 0.8921(4)
O13_4 O 0.2978(9) 0.0182(4) 0.9335(3)
O14_2 O 0.7937(10) 0.0736(4) 0.9415(3)
C9_4 C 0.1970(13) 0.1380(5) 0.9334(4)
C14_4 C 0.3443(13) 0.1947(5) 0.8791(4)
H5_4 H 0.4266 0.1847 0.8948
C17_4 C 0.3529(13) 0.2299(6) 0.8407(4)
H7_4 H 0.4428 0.2427 0.8313
C20_4 C 0.9091(16) 0.0619(7) 0.8063(5)
H9_4 H 0.9725 0.0351 0.7943
C22_4 C 0.7151(15) 0.1372(7) 0.8398(4)
H10_4 H 0.6453 0.1626 0.8501
C24_4 C 0.7742(15) 0.1448(7) 0.7994(4)
H12_4 H 0.7480 0.1772 0.7833
C30_4 C 0.1091(15) 0.2268(6) 0.8318(4)
H18_4 H 0.0277 0.2376 0.8160
C31_4 C 0.7032(13) 0.0835(6) 0.9127(4)
C44_4 C 0.8615(16) 0.0530(6) 0.8479(4)
H32_4 H 0.8965 0.0221 0.8641
C45_4 C 0.775(2) 0.2186(8) 0.9537(5)
H33_4 H 0.8511 0.1985 0.9390
H34_4 H 0.7859 0.2593 0.9494
H35_4 H 0.6834 0.2065 0.9419
Yb3_2 Yb 0.98777(5) 0.03491(2) 0.978211(16)
O9_4 O 0.1234(9) 0.9643(4) 0.0073(3)
O10_4 O 0.3532(9) 0.9838(4) 0.0228(3)
C7_4 C 0.2364(13) 0.9579(5) 0.0281(4)
C15_4 C 0.2339(14) 0.9126(5) 0.0641(4)
C19_4 C 0.3558(14) 0.8953(7) 0.0858(5)
H8_4 H 0.4454 0.9098 0.0777
C27_4 C 0.3452(15) 0.8569(8) 0.1193(5)
H15_4 H 0.4294 0.8475 0.1343
C38_4 C 0.1016(16) 0.8859(7) 0.0746(6)
H25_4 H 0.0175 0.8950 0.0595
C39_4 C 0.1007(17) 0.8454(7) 0.1083(5)
H26_4 H 0.0141 0.8270 0.1148
I1_4 I 0.78940(10) 0.89174(4) 0.74900(3)
I2_4 I 0.97809(10) 0.72966(4) 0.78585(3)
I3_4 I 0.48628(10) 0.74446(4) 0.77568(3)
O3_2 O 0.8238(9) 0.9620(4) 0.9691(3)
O8_4 O 0.5836(9) 0.9740(4) 0.9607(3)
O11_4 O 0.0795(9) 0.9890(4) 0.9134(3)
C10_4 C 0.6980(12) 0.8984(5) 0.9237(4)
N5_4 N 0.4054(12) 0.9050(5) 0.7978(4)
C11_4 C 0.4792(14) 0.9403(6) 0.8235(4)
H3_4 H 0.5765 0.9456 0.8172
C16_4 C 0.1987(16) 0.9300(8) 0.8402(5)
H6_4 H 0.1000 0.9260 0.8448
N6_4 N 0.7062(13) 0.8062(5) 0.8645(4)
C21_4 C 0.717(2) 0.5687(9) 0.7578(7)
C23_4 C 0.8216(14) 0.8875(6) 0.8982(5)
H11_4 H 0.9024 0.9111 0.9002
C25_4 C 0.4247(14) 0.9694(7) 0.8581(5)
H13_4 H 0.4839 0.9927 0.8752
C26_4 C 0.5815(16) 0.8629(7) 0.9177(5)
H14_4 H 0.4962 0.8689 0.9331
C28_4 C 0.2605(17) 0.9022(8) 0.8060(5)
H16_4 H 0.2023 0.8804 0.7875
O16_4 O 0.8453(13) 0.5631(6) 0.7708(4)
N9_4 N 0.6140(17) 0.5486(7) 0.7804(6)
C34_4 C 0.2156(14) 0.9935(5) 0.9083(4)
C35_4 C 0.2761(13) 0.9638(6) 0.8680(4)
C37_4 C 0.691(2) 0.6046(9) 0.7161(7)
H22_4 H 0.7814 0.6181 0.7049
H23_4 H 0.6303 0.6370 0.7230
H24_4 H 0.6441 0.5811 0.6945
C42_4 C 0.7027(14) 0.9498(5) 0.9535(4)
C43_4 C 0.5935(17) 0.8180(7) 0.8883(5)
H31_4 H 0.5138 0.7940 0.8851
C46_4 C 0.8197(15) 0.8409(7) 0.8700(5)
H36_4 H 0.9026 0.8333 0.8538
C49_4 C 0.462(2) 0.5528(9) 0.7653(7)
H41_4 H 0.4354 0.5927 0.7624
H42_4 H 0.3995 0.5346 0.7863
H43_4 H 0.4518 0.5339 0.7375
C50_4 C 0.644(2) 0.5157(9) 0.8199(7)
H44_2 H 0.6982 0.4818 0.8125
H45_4 H 0.5543 0.5045 0.8333
H46_4 H 0.6982 0.5390 0.8399
O6_4 O 0.8597(9) 0.0251(5) 0.0444(3)
H2_4 H 0.9535 0.0936 0.0939
C5_4 C 0.7301(12) 0.0225(5) 0.0560(4)
C12_4 C 0.9799(17) 0.1188(7) 0.1561(4)
H4_4 H 0.8851 0.1108 0.1640
C47_4 C 0.613(2) 0.0118(7) 0.1284(6)
H37_4 H 0.5789 0.0494 0.1255
H1_4 H 0.9987 0.1802 0.8783
C6_4 C 0.6970(12) 0.9879(5) 0.0957(4)
C29_4 C 0.7019(14) 0.9014(7) 0.1394(5)
H17_4 H 0.7359 0.8640 0.1431
C32_4 C 0.7379(17) 0.9318(7) 0.1020(5)
H19_4 H 0.7916 0.9134 0.0804
C41_4 C 0.579(2) 0.9804(7) 0.1653(5)
H30_4 H 0.5262 0.9981 0.1875
H44_3 H 0.3018 0.9818 0.6875
H44_4 H 0.1982 0.0182 0.1875
loop_
_geom_bond_atom_site_label_1
_geom_bond_atom_site_label_2
_geom_bond_site_symmetry_1
_geom_bond_site_symmetry_2
O2 C5 1_555 1_555
O6 Yb1 1_555 1_555
N1 C29 1_555 1_555
C5 O6 1_555 1_555
C6 C5 1_555 1_555
H4 C12 1_555 1_555
C29 H17 1_555 1_555
C32 C6 1_555 1_555
H19 C32 1_555 1_555
C41 N1 1_555 1_555
H30 C41 1_555 1_555
C47 C6 1_555 1_555
H37 C47 1_555 1_555
Yb4 O2 1_555 1_555
Cu5 N1 1_555 1_555
O18 Yb1 1_555 1_555
O19 Yb1 1_555 1_555
C29 C32 1_555 1_555
C41 C47 1_555 1_555
Yb4 O1 1_555 1_555
I1 Cu3 1_555 1_555
I3 Cu2 1_555 1_555
Cu2 I2 1_555 1_555
Cu3 I3 1_555 1_555
Cu4 I1 1_555 1_555
O1 C13 1_555 1_555
O18 C42 1_555 1_555
O4 C9 1_555 1_555
O5 Yb4 1_555 1_555
C2 C22 1_555 1_555
O7 Yb4 1_555 1_555
O8 Yb4 1_555 1_555
N2 C20 1_555 1_555
C4 C1 1_555 1_555
N3 C27 1_555 1_555
O10 Yb4 1_555 1_555
C7 O9 1_555 1_555
O12 Yb4 1_555 1_555
O13 Yb4 1_555 1_555
O19 C31 1_555 1_555
C8 O12 1_555 1_555
N4 C17 1_555 1_555
C9 O5 1_555 1_555
C10 C23 1_555 1_555
N5 Cu3 1_555 1_555
C11 N5 1_555 1_555
H3 C11 1_555 1_555
C13 N8 1_555 1_555
C14 C4 1_555 1_555
H5 C14 1_555 1_555
C15 C7 1_555 1_555
C16 H6 1_555 1_555
N6 Cu2 1_555 1_555
C17 C14 1_555 1_555
H7 C17 1_555 1_555
C18 C3 1_555 1_555
C19 C15 1_555 1_555
H8 C19 1_555 1_555
C20 H9 1_555 1_555
C21 O16 1_555 1_555
N8 C40 1_555 1_555
C22 H10 1_555 1_555
C23 H11 1_555 1_555
C24 N2 1_555 1_555
H12 C24 1_555 1_555
C25 C11 1_555 1_555
H13 C25 1_555 1_555
C26 C10 1_555 1_555
H14 C26 1_555 1_555
C27 C19 1_555 1_555
H15 C27 1_555 1_555
C28 N5 1_555 1_555
H16 C28 1_555 1_555
C30 C1 1_555 1_555
H18 C30 1_555 1_555
C31 C2 1_555 1_555
C33 N7 1_555 1_555
H20 C33 1_555 1_555
N9 C21 1_555 1_555
C34 O11 1_555 1_555
C35 C16 1_555 1_555
C36 C18 1_555 1_555
H21 C36 1_555 1_555
C37 C21 1_555 1_555
H22 C37 1_555 1_555
H23 C37 1_555 1_555
H24 C37 1_555 1_555
C38 C15 1_555 1_555
H25 C38 1_555 1_555
C39 N3 1_555 1_555
H26 C39 1_555 1_555
C40 H27 1_555 1_555
H28 C40 1_555 1_555
H29 C40 1_555 1_555
C42 O8 1_555 1_555
C43 N6 1_555 1_555
H31 C43 1_555 1_555
C44 C2 1_555 1_555
H32 C44 1_555 1_555
C45 N8 1_555 1_555
H33 C45 1_555 1_555
H34 C45 1_555 1_555
H35 C45 1_555 1_555
C46 N6 1_555 1_555
H36 C46 1_555 1_555
C48 C13 1_555 1_555
H38 C48 1_555 1_555
H39 C48 1_555 1_555
H40 C48 1_555 1_555
C49 N9 1_555 1_555
H41 C49 1_555 1_555
H42 C49 1_555 1_555
H43 C49 1_555 1_555
C50 N9 1_555 1_555
H45 C50 1_555 1_555
H46 C50 1_555 1_555
Cu6 N2 1_555 1_555
Cu7 N3 1_555 1_555
Cu9 N4 1_555 1_555
N12 Cu2 1_555 1_555
N13 Cu4 1_555 1_555
N14 Cu3 1_555 1_555
I2 Cu4 1_555 1_555
I3 Cu4 1_555 1_555
O7 C31 1_555 1_555
C4 C9 1_555 1_555
O10 C7 1_555 1_555
O13 C34 1_555 1_555
C8 O15 1_555 1_555
C8 C18 1_555 1_555
N4 C30 1_555 1_555
C10 C42 1_555 1_555
C16 C28 1_555 1_555
C20 C44 1_555 1_555
C22 C24 1_555 1_555
C23 C46 1_555 1_555
C25 C35 1_555 1_555
C26 C43 1_555 1_555
C33 C36 1_555 1_555
C34 C35 1_555 1_555
C38 C39 1_555 1_555
N10 Cu1 1_555 1_555
N11 Cu1 1_555 1_555
I1_2 Cu8 1_555 1_555
I2_2 Cu1_2 1_555 1_555
Cu1_2 O16_2 1_555 1_555
Cu2_2 I2_2 1_555 1_555
Cu4_2 I1_2 1_555 1_555
O3 C42_2 1_555 1_555
C2_2 C22_2 1_555 1_555
N2_2 C20_2 1_555 1_555
O14 C31_2 1_555 1_555
C10_2 C23_2 1_555 1_555
N6_2 Cu2_2 1_555 1_555
C20_2 H9_2 1_555 1_555
C21_2 O16_2 1_555 1_555
C22_2 H10_2 1_555 1_555
C23_2 H11_2 1_555 1_555
C24_2 N2_2 1_555 1_555
H12_2 C24_2 1_555 1_555
C26_2 C10_2 1_555 1_555
C31_2 C2_2 1_555 1_555
N9_2 C21_2 1_555 1_555
C37_2 C21_2 1_555 1_555
H22_2 C37_2 1_555 1_555
H23_2 C37_2 1_555 1_555
H24_2 C37_2 1_555 1_555
C42_2 O8_2 1_555 1_555
C43_2 N6_2 1_555 1_555
H31_2 C43_2 1_555 1_555
C44_2 C2_2 1_555 1_555
H32_2 C44_2 1_555 1_555
H33_2 C45_2 1_555 1_555
H34_2 C45_2 1_555 1_555
H35_2 C45_2 1_555 1_555
C46_2 N6_2 1_555 1_555
H36_2 C46_2 1_555 1_555
C50_2 N9_2 1_555 1_555
H45_2 C50_2 1_555 1_555
H46_2 C50_2 1_555 1_555
Yb3 O3 1_555 1_555
Cu5 N2_2 1_555 1_555
N10_2 Cu1_2 1_555 1_555
N11_2 Cu1_2 1_555 1_555
N12_2 Cu2_2 1_555 1_555
N13_2 Cu4_2 1_555 1_555
I2_2 Cu4_2 1_555 1_555
O7_2 C31_2 1_555 1_555
O14 Yb3 1_555 1_555
C10_2 C42_2 1_555 1_555
C20_2 C44_2 1_555 1_555
C22_2 C24_2 1_555 1_555
C23_2 C46_2 1_555 1_555
C26_2 C43_2 1_555 1_555
C13_2 N8_2 1_555 1_555
N8_2 C40_2 1_555 1_555
C40_2 H27_2 1_555 1_555
H28_2 C40_2 1_555 1_555
H29_2 C40_2 1_555 1_555
C48_2 C13_2 1_555 1_555
H38_2 C48_2 1_555 1_555
H39_2 C48_2 1_555 1_555
H40_2 C48_2 1_555 1_555
Yb3 O4_2 1_555 1_555
C1_2 H1_2 1_555 1_555
O4_2 C9_2 1_555 1_555
O5_2 Yb2 1_555 1_555
C4_2 C1_2 1_555 1_555
O11_2 Yb3 1_555 1_555
O13_2 Yb2 1_555 1_555
N4_2 C17_2 1_555 1_555
C9_2 O5_2 1_555 1_555
C11_2 N5_2 1_555 1_555
C14_2 C4_2 1_555 1_555
H5_2 C14_2 1_555 1_555
C16_2 H6_2 1_555 1_555
C17_2 C14_2 1_555 1_555
H7_2 C17_2 1_555 1_555
C25_2 C11_2 1_555 1_555
H13_2 C25_2 1_555 1_555
C28_2 N5_2 1_555 1_555
H16_2 C28_2 1_555 1_555
C30_2 C1_2 1_555 1_555
H18_2 C30_2 1_555 1_555
C34_2 O11_2 1_555 1_555
C35_2 C16_2 1_555 1_555
H41_2 C49_2 1_555 1_555
H42_2 C49_2 1_555 1_555
H43_2 C49_2 1_555 1_555
Cu9_2 N4_2 1_555 1_555
C4_2 C9_2 1_555 1_555
O13_2 C34_2 1_555 1_555
N4_2 C30_2 1_555 1_555
C16_2 C28_2 1_555 1_555
C25_2 C35_2 1_555 1_555
C34_2 C35_2 1_555 1_555
O17 C5_2 1_555 1_555
N1_2 C29_2 1_555 1_555
C3_2 H2_2 1_555 1_555
N3_2 C27_2 1_555 1_555
C5_2 O6_2 1_555 1_555
C6_2 C5_2 1_555 1_555
C7_2 O9_2 1_555 1_555
C8_2 O12_2 1_555 1_555
C12_2 C3_2 1_555 1_555
H4_2 C12_2 1_555 1_555
C15_2 C7_2 1_555 1_555
C18_2 C3_2 1_555 1_555
C19_2 C15_2 1_555 1_555
H8_2 C19_2 1_555 1_555
N14 C12_2 1_555 1_555
C27_2 C19_2 1_555 1_555
H15_2 C27_2 1_555 1_555
C29_2 H17_2 1_555 1_555
C32_2 C6_2 1_555 1_555
H19_2 C32_2 1_555 1_555
C33_2 N14 1_555 1_555
H20_2 C33_2 1_555 1_555
C36_2 C18_2 1_555 1_555
H21_2 C36_2 1_555 1_555
C38_2 C15_2 1_555 1_555
H25_2 C38_2 1_555 1_555
C39_2 N3_2 1_555 1_555
H26_2 C39_2 1_555 1_555
C41_2 N1_2 1_555 1_555
H30_2 C41_2 1_555 1_555
C47_2 C6_2 1_555 1_555
H37_2 C47_2 1_555 1_555
Cu6 N1_2 1_555 1_555
Cu7_2 N3_2 1_555 1_555
O10_2 C7_2 1_555 1_555
C8_2 O15_2 1_555 1_555
C8_2 C18_2 1_555 1_555
C29_2 C32_2 1_555 1_555
C33_2 C36_2 1_555 1_555
C38_2 C39_2 1_555 1_555
C41_2 C47_2 1_555 1_555
N10 C29_3 1_555 1_555
N12 C27_3 1_555 1_555
C7_3 O9_3 1_555 1_555
C11_3 N5_3 1_555 1_555
C15_3 C7_3 1_555 1_555
C16_3 H6_3 1_555 1_555
C19_3 C15_3 1_555 1_555
H8_3 C19_3 1_555 1_555
C25_3 C11_3 1_555 1_555
H13_3 C25_3 1_555 1_555
C27_3 C19_3 1_555 1_555
H15_3 C27_3 1_555 1_555
C28_3 N5_3 1_555 1_555
H16_3 C28_3 1_555 1_555
C29_3 H17_3 1_555 1_555
C32_3 C6_3 1_555 1_555
H19_3 C32_3 1_555 1_555
C34_3 O11_3 1_555 1_555
C35_3 C16_3 1_555 1_555
C38_3 C15_3 1_555 1_555
H25_3 C38_3 1_555 1_555
C39_3 N12 1_555 1_555
H26_3 C39_3 1_555 1_555
C41_3 N10 1_555 1_555
H30_3 C41_3 1_555 1_555
H41_3 C49_3 1_555 1_555
H42_3 C49_3 1_555 1_555
H43_3 C49_3 1_555 1_555
O10_3 C7_3 1_555 1_555
C16_3 C28_3 1_555 1_555
C25_3 C35_3 1_555 1_555
C29_3 C32_3 1_555 1_555
C34_3 C35_3 1_555 1_555
C38_3 C39_3 1_555 1_555
Yb1_2 O4_3 1_555 1_555
C1_3 H1_3 1_555 1_555
O2_2 C5_3 1_555 1_555
O4_3 C9_3 1_555 1_555
O5_3 Yb4_2 1_555 1_555
O6_3 Yb1_2 1_555 1_555
C3_3 H2_3 1_555 1_555
C4_3 C1_3 1_555 1_555
C5_3 O6_3 1_555 1_555
O12_3 Yb4_2 1_555 1_555
O13_3 Yb4_2 1_555 1_555
C8_3 O12_3 1_555 1_555
N13_2 C17_3 1_555 1_555
C9_3 O5_3 1_555 1_555
C12_3 C3_3 1_555 1_555
H4_3 C12_3 1_555 1_555
C14_3 C4_3 1_555 1_555
H5_3 C14_3 1_555 1_555
O15_3 Yb1_2 1_555 1_555
C17_3 C14_3 1_555 1_555
H7_3 C17_3 1_555 1_555
C18_3 C3_3 1_555 1_555
N7_2 C12_3 1_555 1_555
C30_3 C1_3 1_555 1_555
H18_3 C30_3 1_555 1_555
C33_3 N7_2 1_555 1_555
H20_3 C33_3 1_555 1_555
C36_3 C18_3 1_555 1_555
H21_3 C36_3 1_555 1_555
H37_3 C47_3 1_555 1_555
Cu8_2 N7_2 1_555 1_555
O19_2 Yb1_2 1_555 1_555
C4_3 C9_3 1_555 1_555
C8_3 O15_3 1_555 1_555
C8_3 C18_3 1_555 1_555
N13_2 C30_3 1_555 1_555
C33_3 C36_3 1_555 1_555
I1_3 Cu3_2 1_555 1_555
I2_3 Cu5 1_555 1_555
Cu5 O16_3 1_555 1_555
Cu7 I2_3 1_555 1_555
Cu9_2 I1_3 1_555 1_555
O18_2 C42_3 1_555 1_555
C10_3 C23_3 1_555 1_555
N6_3 Cu7 1_555 1_555
C21_3 O16_3 1_555 1_555
C23_3 H11_3 1_555 1_555
C26_3 C10_3 1_555 1_555
N9_3 C21_3 1_555 1_555
C37_3 C21_3 1_555 1_555
H22_3 C37_3 1_555 1_555
H23_3 C37_3 1_555 1_555
H24_3 C37_3 1_555 1_555
C42_3 O8_3 1_555 1_555
C43_3 N6_3 1_555 1_555
H31_3 C43_3 1_555 1_555
C46_3 N6_3 1_555 1_555
H36_3 C46_3 1_555 1_555
C50_3 N9_3 1_555 1_555
H44 C50_3 1_555 1_555
H45_3 C50_3 1_555 1_555
H46_3 C50_3 1_555 1_555
I2_3 Cu9_2 1_555 1_555
C10_3 C42_3 1_555 1_555
C23_3 C46_3 1_555 1_555
C26_3 C43_3 1_555 1_555
O1_3 C13_3 1_555 1_555
C2_3 C22_3 1_555 1_555
N11_2 C20_3 1_555 1_555
O19_2 C31_3 1_555 1_555
C13_3 N8_3 1_555 1_555
C20_3 H9_3 1_555 1_555
N8_3 C40_3 1_555 1_555
C22_3 H10_3 1_555 1_555
C24_3 N11_2 1_555 1_555
H12_3 C24_3 1_555 1_555
C31_3 C2_3 1_555 1_555
C40_3 H27_3 1_555 1_555
H28_3 C40_3 1_555 1_555
H29_3 C40_3 1_555 1_555
C44_3 C2_3 1_555 1_555
H32_3 C44_3 1_555 1_555
C45_3 N8_3 1_555 1_555
H33_3 C45_3 1_555 1_555
H34_3 C45_3 1_555 1_555
H35_3 C45_3 1_555 1_555
C48_3 C13_3 1_555 1_555
H38_3 C48_3 1_555 1_555
H39_3 C48_3 1_555 1_555
H40_3 C48_3 1_555 1_555
O7_3 C31_3 1_555 1_555
C20_3 C44_3 1_555 1_555
C22_3 C24_3 1_555 1_555
C8_4 O12_4 1_555 1_555
C13_4 N8_4 1_555 1_555
C18_4 C3_4 1_555 1_555
N8_4 C40_4 1_555 1_555
C33_4 N14_2 1_555 1_555
H20_4 C33_4 1_555 1_555
C36_4 C18_4 1_555 1_555
H21_4 C36_4 1_555 1_555
C40_4 H27_4 1_555 1_555
H28_4 C40_4 1_555 1_555
H29_4 C40_4 1_555 1_555
C48_4 C13_4 1_555 1_555
H38_4 C48_4 1_555 1_555
H39_4 C48_4 1_555 1_555
H40_4 C48_4 1_555 1_555
C8_4 O15_4 1_555 1_555
C8_4 C18_4 1_555 1_555
C33_4 C36_4 1_555 1_555
Yb2_2 O1_4 1_555 1_555
O4_4 C9_4 1_555 1_555
O5_4 Yb2_2 1_555 1_555
C2_4 C22_4 1_555 1_555
O7_4 Yb2_2 1_555 1_555
N11 C20_4 1_555 1_555
C4_4 C1_4 1_555 1_555
O13_4 Yb2_2 1_555 1_555
O14_2 C31_4 1_555 1_555
N13 C17_4 1_555 1_555
C9_4 O5_4 1_555 1_555
C14_4 C4_4 1_555 1_555
H5_4 C14_4 1_555 1_555
C17_4 C14_4 1_555 1_555
H7_4 C17_4 1_555 1_555
C20_4 H9_4 1_555 1_555
C22_4 H10_4 1_555 1_555
C24_4 N11 1_555 1_555
H12_4 C24_4 1_555 1_555
C30_4 C1_4 1_555 1_555
H18_4 C30_4 1_555 1_555
C31_4 C2_4 1_555 1_555
C44_4 C2_4 1_555 1_555
H32_4 C44_4 1_555 1_555
H33_4 C45_4 1_555 1_555
H34_4 C45_4 1_555 1_555
H35_4 C45_4 1_555 1_555
O7_4 C31_4 1_555 1_555
C4_4 C9_4 1_555 1_555
O14_2 Yb3_2 1_555 1_555
N13 C30_4 1_555 1_555
C20_4 C44_4 1_555 1_555
C22_4 C24_4 1_555 1_555
N12_2 C27_4 1_555 1_555
C7_4 O9_4 1_555 1_555
C15_4 C7_4 1_555 1_555
C19_4 C15_4 1_555 1_555
H8_4 C19_4 1_555 1_555
C27_4 C19_4 1_555 1_555
H15_4 C27_4 1_555 1_555
C38_4 C15_4 1_555 1_555
H25_4 C38_4 1_555 1_555
C39_4 N12_2 1_555 1_555
H26_4 C39_4 1_555 1_555
O10_4 C7_4 1_555 1_555
C38_4 C39_4 1_555 1_555
I1_4 Cu8_2 1_555 1_555
I3_4 Cu7_2 1_555 1_555
Cu7_2 I2_4 1_555 1_555
Cu8_2 I3_4 1_555 1_555
Cu9 I1_4 1_555 1_555
O3_2 C42_4 1_555 1_555
C10_4 C23_4 1_555 1_555
N5_4 Cu8_2 1_555 1_555
C11_4 N5_4 1_555 1_555
H3_4 C11_4 1_555 1_555
C16_4 H6_4 1_555 1_555
N6_4 Cu7_2 1_555 1_555
C21_4 O16_4 1_555 1_555
C23_4 H11_4 1_555 1_555
C25_4 C11_4 1_555 1_555
H13_4 C25_4 1_555 1_555
C26_4 C10_4 1_555 1_555
H14_4 C26_4 1_555 1_555
C28_4 N5_4 1_555 1_555
H16_4 C28_4 1_555 1_555
N9_4 C21_4 1_555 1_555
C34_4 O11_4 1_555 1_555
C35_4 C16_4 1_555 1_555
C37_4 C21_4 1_555 1_555
H22_4 C37_4 1_555 1_555
H23_4 C37_4 1_555 1_555
H24_4 C37_4 1_555 1_555
C42_4 O8_4 1_555 1_555
C43_4 N6_4 1_555 1_555
H31_4 C43_4 1_555 1_555
C46_4 N6_4 1_555 1_555
H36_4 C46_4 1_555 1_555
C49_4 N9_4 1_555 1_555
H41_4 C49_4 1_555 1_555
H42_4 C49_4 1_555 1_555
H43_4 C49_4 1_555 1_555
C50_4 N9_4 1_555 1_555
H44_2 C50_4 1_555 1_555
H45_4 C50_4 1_555 1_555
H46_4 C50_4 1_555 1_555
I2_4 Cu9 1_555 1_555
I3_4 Cu9 1_555 1_555
C10_4 C42_4 1_555 1_555
C16_4 C28_4 1_555 1_555
C23_4 C46_4 1_555 1_555
C25_4 C35_4 1_555 1_555
C26_4 C43_4 1_555 1_555
C34_4 C35_4 1_555 1_555
O17_2 C5_4 1_555 1_555
C5_4 O6_4 1_555 1_555
H4_4 C12_4 1_555 1_555
H37_4 C47_4 1_555 1_555
N10_2 C29_4 1_555 1_555
C29_4 H17_4 1_555 1_555
C32_4 C6_4 1_555 1_555
H19_4 C32_4 1_555 1_555
C41_4 N10_2 1_555 1_555
H30_4 C41_4 1_555 1_555
C29_4 C32_4 1_555 1_555

#END
