
###############################################################################
#
# This file contains modified crystal structure data generated from the
# MOF subset of the Cambridge Structural Database (CSD) v543 
# hosted by the Cambridge Crystallographic Data Centre (CCDC).
#
# This work is licensed under the Creative Commons
# Attribution-NonCommercial-ShareAlike 4.0 International License.
# To view a copy of this license, visit
# http://creativecommons.org/licenses/by-nc-sa/4.0/
# or send a letter to
# Creative Commons, PO Box 1866, Mountain View, CA 94042, USA.
#
# CIF created using the CSD Python API on 29 September 2022
# The structure has been converted into the P1 space group
# The structure has a 3D framework
# The original CSD entry TEBKIX is in the orthorhombic crystal system
# The original CSD entry TEBKIX is in a Sohncke space group
# The framework has been calculated to contain at least 10.0% void space
# The void calculation uses a probe of radius 1.32A, grid spacing 0.4
#
###############################################################################

data_TEBKIX
_chemical_formula_moiety         '(C200 H186 Cu16 I12 La6 N36 O64)n'
_symmetry_cell_setting           triclinic
_symmetry_space_group_name_H-M   'P 1'
_symmetry_Int_Tables_number      1
_space_group_name_Hall           'P 1'
loop_
_symmetry_equiv_pos_site_id
_symmetry_equiv_pos_as_xyz
1 x,y,z
_cell_length_a                   9.3276(12)
_cell_length_b                   22.879(3)
_cell_length_c                   31.057(4)
_cell_angle_alpha                90
_cell_angle_beta                 90
_cell_angle_gamma                90
_cell_volume                     6627.76
loop_
_atom_site_label
_atom_site_type_symbol
_atom_site_fract_x
_atom_site_fract_y
_atom_site_fract_z
H40 H 0.0146 0.7096 0.4857
La3 La 0.03733(11) 0.44125(5) 0.01494(3)
La1 La 0.46267(11) 0.55875(5) 0.51494(3)
I1 I 0.29019(16) 0.10481(7) 0.24604(5)
I3 I 0.47180(15) 0.27062(6) 0.28165(4)
Cu1 Cu 0.5379(3) 0.38325(13) 0.27454(7)
Cu2 Cu 0.2151(3) 0.26608(12) 0.31761(8)
Cu3 Cu 0.0140(3) 0.13903(12) 0.24879(7)
Cu4 Cu 0.2440(3) 0.21553(13) 0.23914(8)
C1 C 0.590(2) 0.4402(12) 0.1919(6)
H1 H 0.5290 0.4687 0.2028
O1 O 0.340(2) 0.4379(9) 0.2676(7)
C2 C 0.207(2) 0.4253(10) 0.6630(7)
H2 H 0.1093 0.4194 0.6593
O2 O 0.5855(15) 0.6557(6) 0.5013(4)
C3 C 0.108(3) 0.3384(11) 0.3909(7)
H3 H 0.0217 0.3203 0.3841
C4 C 0.6216(17) 0.3925(9) 0.2161(5)
O3 O 0.9313(14) 0.4084(7) 0.0864(5)
C5 C 0.645(2) 0.4466(12) 0.1533(6)
H4 H 0.6201 0.4801 0.1381
O4 O 0.8732(16) 0.5098(8) 0.4522(4)
O5 O 0.8136(13) 0.4528(6) 0.5342(5)
O6 O 0.6481(16) 0.5400(7) 0.4625(4)
O7 O 0.1342(18) 0.4487(8) 0.4970(5)
O8 O 0.3526(16) 0.4739(7) 0.4753(5)
N1 N 0.108(3) 0.4462(11) 0.2775(9)
O9 O 0.5798(15) 0.4693(7) 0.5429(5)
C6 C 0.106(2) 0.7298(10) 0.6639(6)
H5 H 0.0231 0.7417 0.6782
C7 C 0.338(2) 0.6974(10) 0.6186(6)
H6 H 0.4172 0.6884 0.6019
O10 O 0.3629(15) 0.5990(7) 0.4448(4)
N2 N 0.607(2) 0.4250(9) 0.3276(5)
C8 C 0.277(2) 0.4619(10) 0.6352(6)
O11 O 0.0773(13) 0.4820(7) 0.5907(4)
C9 C 0.233(2) 0.4044(10) 0.4361(7)
C10 C 0.094(2) 0.6958(10) 0.6292(6)
H7 H 0.0026 0.6839 0.6209
C11 C 0.563(3) 0.4767(11) 0.3388(9)
H8 H 0.4975 0.4941 0.3202
C12 C 0.027(2) 0.5991(11) 0.3847(7)
N3 N 0.212(2) 0.3272(8) 0.3651(6)
C13 C 0.480(2) 0.4442(10) 0.6788(6)
H10 H 0.5758 0.4516 0.6845
N4 N 0.737(2) 0.4077(9) 0.1331(6)
N5 N 0.7008(19) 0.3078(7) 0.6441(5)
O12 O 0.3013(15) 0.6370(7) 0.5417(4)
O13 O 0.1414(14) 0.5762(7) 0.4665(4)
C14 C 0.355(2) 0.7309(11) 0.6567(6)
H11 H 0.4464 0.7411 0.6662
O14 O 0.0744(15) 0.6185(7) 0.5581(5)
O15 O 0.2850(14) 0.5170(6) 0.5689(4)
N6 N 0.2372(18) 0.7477(8) 0.6792(5)
C15 C 0.695(2) 0.3974(9) 0.5828(6)
O16 O 0.7165(15) 0.4304(7) 0.0613(5)
C16 C 0.699(2) 0.4822(9) 0.4020(6)
N7 N 0.0641(18) 0.6347(8) 0.3126(5)
C17 C 0.232(2) 0.5948(8) 0.4394(6)
C18 C 0.193(2) 0.6412(8) 0.5649(6)
C19 C 0.814(2) 0.3409(10) 0.6372(7)
H12 H 0.8950 0.3348 0.6541
N8 N 0.4149(19) 0.4084(9) 0.7041(5)
C20 C 0.689(3) 0.6738(11) 0.4801(10)
C21 C 0.218(3) 0.4294(13) 0.2556(11)
C22 C 0.243(2) 0.4415(11) 0.4734(7)
C23 C 0.697(2) 0.4415(9) 0.5501(6)
C24 C 0.778(2) 0.3620(11) 0.1608(7)
H13 H 0.8495 0.3363 0.1522
C25 C 0.212(2) 0.4908(10) 0.5962(8)
C26 C 0.716(2) 0.3546(10) 0.1995(6)
H14 H 0.7397 0.3217 0.2154
N9 N 0.796(2) 0.7030(9) 0.4975(7)
C27 C 0.576(2) 0.3637(9) 0.5928(6)
H15 H 0.4894 0.3707 0.5788
C29 C 0.736(2) 0.5117(9) 0.4413(6)
C30 C 0.706(2) 0.4041(11) 0.3525(7)
H17 H 0.7485 0.3691 0.3442
C31 C 0.783(3) 0.7181(11) 0.5432(9)
H18 H 0.6834 0.7212 0.5506
H19 H 0.8298 0.7548 0.5485
H20 H 0.8271 0.6882 0.5604
C32 C 0.584(2) 0.3205(12) 0.6229(7)
H21 H 0.5021 0.2989 0.6287
C33 C 0.252(3) 0.6356(14) 0.3640(7)
H22 H 0.3468 0.6450 0.3703
C34 C 0.422(2) 0.4718(11) 0.6451(6)
H23 H 0.4774 0.4972 0.6285
C35 C 0.754(3) 0.4289(12) 0.3900(9)
H24 H 0.8215 0.4101 0.4070
C36 C 0.8024(19) 0.4179(9) 0.0909(7)
C37 C 0.204(2) 0.6465(11) 0.3239(7)
H25 H 0.2656 0.6622 0.3035
C38 C 0.272(2) 0.3984(11) 0.6948(6)
H26 H 0.2212 0.3718 0.7114
C39 C 0.169(2) 0.6112(10) 0.3963(6)
C40 C 0.105(2) 0.3745(11) 0.4285(7)
H27 H 0.0252 0.3779 0.4462
C41 C 0.819(2) 0.3855(10) 0.6053(7)
H28 H 0.9034 0.4059 0.5997
C42 C 0.193(3) 0.3947(14) 0.2142(10)
H29 H 0.2814 0.3924 0.1983
H30 H 0.1218 0.4139 0.1970
H31 H 0.1613 0.3560 0.2212
C44 C 0.205(2) 0.6782(10) 0.6060(6)
C45 C 0.599(3) 0.5091(11) 0.3739(9)
H35 H 0.5611 0.5460 0.3791
C46 C 0.691(3) 0.6632(11) 0.4302(9)
H36 H 0.7461 0.6288 0.4239
H37 H 0.7334 0.6963 0.4161
H38 H 0.5947 0.6581 0.4200
C47 C 0.929(3) 0.7187(11) 0.4700(9)
H39 H 0.9271 0.6966 0.4437
H41 H 0.9272 0.7597 0.4634
C48 C 0.331(3) 0.3556(11) 0.3749(7)
H42 H 0.4089 0.3516 0.3564
C49 C 0.349(2) 0.3920(11) 0.4118(7)
H43 H 0.4382 0.4069 0.4190
C50 C 0.142(3) 0.4762(14) 0.3178(11)
H44 H 0.1614 0.4478 0.3398
H45 H 0.0621 0.5000 0.3264
H46 H 0.2248 0.5005 0.3137
La4 La 0.99333(11) 0.52865(5) 0.52196(3)
La5 La 0.50667(11) 0.47135(5) 0.02196(3)
Cu5 Cu 0.7151(3) 0.23392(12) 0.68239(8)
Cu6 Cu 0.5140(3) 0.36097(12) 0.75121(7)
Cu8 Cu 0.2560(3) 0.78447(13) 0.73914(8)
O17 O 0.5687(14) 0.5916(7) 0.5864(5)
N10 N 0.2008(19) 0.1922(7) 0.3559(5)
N11 N 0.2628(18) 0.2523(8) 0.1792(5)
I2 I 0.98605(15) 0.25444(6) 0.26957(4)
H9 H 0.9645 0.5820 0.4044
C28 C 0.982(3) 0.6126(11) 0.3442(6)
H16 H 0.8859 0.6060 0.3378
C43 C 0.962(3) 0.4380(13) 0.2609(11)
H32 H 0.9297 0.4736 0.2479
H33 H 0.8997 0.4276 0.2842
H34 H 0.9625 0.4073 0.2398
Cu7 Cu 0.9860(3) 0.63903(12) 0.25121(7)
O20 O 0.7835(15) 0.5696(7) 0.5613(5)
N12 N 0.9359(18) 0.1347(8) 0.1874(5)
N13 N 0.9149(19) 0.0916(9) 0.2959(5)
C2_2 C 0.293(2) 0.5747(10) 0.1630(7)
H2_2 H 0.3907 0.5806 0.1593
C6_2 C 0.394(2) 0.2702(10) 0.1639(6)
H5_2 H 0.4769 0.2583 0.1782
C7_2 C 0.162(2) 0.3026(10) 0.1186(6)
H6_2 H 0.0828 0.3116 0.1019
C8_2 C 0.223(2) 0.5381(10) 0.1352(6)
O11_2 O 0.4227(13) 0.5180(7) 0.0907(4)
C10_2 C 0.406(2) 0.3042(10) 0.1292(6)
H7_2 H 0.4974 0.3161 0.1209
C13_2 C 0.020(2) 0.5558(10) 0.1788(6)
O12_2 O 0.1987(15) 0.3630(7) 0.0417(4)
C14_2 C 0.145(2) 0.2691(11) 0.1567(6)
H11_2 H 0.0536 0.2589 0.1662
O14_2 O 0.4256(15) 0.3815(7) 0.0581(5)
O15_2 O 0.2150(14) 0.4830(6) 0.0689(4)
C18_2 C 0.307(2) 0.3588(8) 0.0649(6)
N8_2 N 0.0851(19) 0.5916(9) 0.2041(5)
C25_2 C 0.288(2) 0.5092(10) 0.0962(8)
H15_2 H 0.0106 0.6293 0.0788
C34_2 C 0.078(2) 0.5282(11) 0.1451(6)
H23_2 H 0.0226 0.5028 0.1285
C38_2 C 0.228(2) 0.6016(11) 0.1948(6)
H26_2 H 0.2788 0.6282 0.2114
C44_2 C 0.295(2) 0.3218(10) 0.1060(6)
O19 O 0.6864(13) 0.5472(6) 0.0342(5)
I1_2 I 0.20981(16) 0.89519(7) 0.74604(5)
I2_2 I 0.51395(15) 0.74556(6) 0.76957(4)
I3_2 I 0.02820(15) 0.72938(6) 0.78165(4)
Cu2_2 Cu 0.2849(3) 0.73392(12) 0.81761(8)
Cu3_2 Cu 0.4860(3) 0.86097(12) 0.74879(7)
O1_2 O 0.160(2) 0.5621(9) 0.7676(7)
C3_2 C 0.392(3) 0.6616(11) 0.8909(7)
H3_2 H 0.4783 0.6797 0.8841
O7_2 O 0.3658(18) 0.5513(8) 0.9970(5)
O8_2 O 0.1474(16) 0.5261(7) 0.9753(5)
N1_2 N 0.392(3) 0.5538(11) 0.7775(9)
O10_2 O 0.1371(15) 0.4010(7) 0.9448(4)
C9_2 C 0.267(2) 0.5956(10) 0.9361(7)
H8_2 H 0.0025 0.5059 0.8202
C12_2 C 0.473(2) 0.4009(11) 0.8847(7)
H9_2 H 0.5355 0.4180 0.9044
N3_2 N 0.288(2) 0.6728(8) 0.8651(6)
O13_2 O 0.3586(14) 0.4238(7) 0.9665(4)
N7_2 N 0.4359(18) 0.3653(8) 0.8126(5)
C17_2 C 0.268(2) 0.4052(8) 0.9394(6)
C21_2 C 0.282(3) 0.5706(13) 0.7556(11)
C22_2 C 0.257(2) 0.5585(11) 0.9734(7)
C28_2 C 0.518(3) 0.3874(11) 0.8442(6)
H16_2 H 0.6141 0.3940 0.8378
C33_2 C 0.248(3) 0.3644(14) 0.8640(7)
H22_2 H 0.1532 0.3550 0.8703
C37_2 C 0.296(2) 0.3535(11) 0.8239(7)
H25_2 H 0.2344 0.3378 0.8035
C39_2 C 0.331(2) 0.3888(10) 0.8963(6)
C40_2 C 0.395(2) 0.6255(11) 0.9285(7)
H27_2 H 0.4748 0.6221 0.9462
C42_2 C 0.307(3) 0.6053(14) 0.7142(10)
H29_2 H 0.2186 0.6076 0.6983
H30_2 H 0.3782 0.5861 0.6970
H31_2 H 0.3387 0.6440 0.7212
C43_2 C 0.538(3) 0.5620(13) 0.7609(11)
H32_2 H 0.5703 0.5264 0.7479
H33_2 H 0.6003 0.5724 0.7842
H34_2 H 0.5375 0.5927 0.7398
C48_2 C 0.169(3) 0.6444(11) 0.8749(7)
H42_2 H 0.0911 0.6484 0.8564
C49_2 C 0.151(2) 0.6080(11) 0.9118(7)
H43_2 H 0.0618 0.5931 0.9190
C50_2 C 0.358(3) 0.5238(14) 0.8178(11)
H44_2 H 0.3386 0.5522 0.8398
H45_2 H 0.4379 0.5000 0.8264
H46_2 H 0.2752 0.4995 0.8137
O18 O 0.6268(16) 0.4902(8) 0.9522(4)
N10_2 N 0.2992(19) 0.8078(7) 0.8559(5)
N12_2 N 0.5641(18) 0.8653(8) 0.6874(5)
N13_2 N 0.5851(19) 0.9084(9) 0.7959(5)
O2_2 O 0.9145(15) 0.3443(6) 0.0013(4)
O9_2 O 0.9202(15) 0.5307(7) 0.0429(5)
H10_2 H 0.9242 0.5484 0.1845
N5_2 N 0.7992(19) 0.6922(7) 0.1441(5)
C15_2 C 0.805(2) 0.6026(9) 0.0828(6)
C19_2 C 0.686(2) 0.6591(10) 0.1372(7)
H12_2 H 0.6050 0.6652 0.1541
C23_2 C 0.803(2) 0.5585(9) 0.0501(6)
C27_2 C 0.924(2) 0.6363(9) 0.0928(6)
C31_2 C 0.717(3) 0.2819(11) 0.0432(9)
H18_2 H 0.8166 0.2788 0.0506
H19_2 H 0.6702 0.2452 0.0485
H20_2 H 0.6729 0.3118 0.0604
C32_2 C 0.916(2) 0.6795(12) 0.1229(7)
H21_2 H 0.9979 0.7011 0.1287
C41_2 C 0.681(2) 0.6145(10) 0.1053(7)
H28_2 H 0.5966 0.5941 0.0997
Cu5_2 Cu 0.7849(3) 0.76608(12) 0.18239(8)
Cu1_2 Cu 0.9621(3) 0.61675(13) 0.77454(7)
C1_2 C 0.910(2) 0.5598(12) 0.6919(6)
H1_2 H 0.9710 0.5313 0.7028
C4_2 C 0.8784(17) 0.6075(9) 0.7161(5)
C5_2 C 0.855(2) 0.5534(12) 0.6533(6)
H4_2 H 0.8799 0.5199 0.6381
O6_2 O 0.8519(16) 0.4600(7) 0.9625(4)
N2_2 N 0.893(2) 0.5750(9) 0.8276(5)
C11_2 C 0.937(3) 0.5233(11) 0.8388(9)
N4_2 N 0.763(2) 0.5923(9) 0.6331(6)
C16_2 C 0.801(2) 0.5178(9) 0.9020(6)
C20_2 C 0.811(3) 0.3262(11) 0.9801(10)
C24_2 C 0.722(2) 0.6380(11) 0.6608(7)
H13_2 H 0.6505 0.6637 0.6522
C26_2 C 0.784(2) 0.6454(10) 0.6995(6)
H14_2 H 0.7603 0.6783 0.7154
N9_2 N 0.704(2) 0.2970(9) 0.9975(7)
C29_2 C 0.764(2) 0.4883(9) 0.9413(6)
C30_2 C 0.794(2) 0.5959(11) 0.8525(7)
H17_2 H 0.7515 0.6309 0.8442
C35_2 C 0.746(3) 0.5711(12) 0.8900(9)
H24_2 H 0.6785 0.5899 0.9070
C36_2 C 0.6976(19) 0.5821(9) 0.5909(7)
C45_2 C 0.901(3) 0.4909(11) 0.8739(9)
H35_2 H 0.9389 0.4540 0.8791
C46_2 C 0.809(3) 0.3368(11) 0.9302(9)
H36_2 H 0.7539 0.3712 0.9239
H37_2 H 0.7666 0.3037 0.9161
H38_2 H 0.9053 0.3419 0.9200
C47_2 C 0.571(3) 0.2813(11) 0.9700(9)
H39_2 H 0.5729 0.3034 0.9437
H40_2 H 0.4854 0.2904 0.9857
H41_2 H 0.5728 0.2403 0.9634
Cu1_3 Cu 0.0379(3) 0.11675(13) 0.72546(7)
C1_3 C 0.090(2) 0.0598(12) 0.8081(6)
H1_3 H 0.0290 0.0313 0.7972
C4_3 C 0.1216(17) 0.1075(9) 0.7839(5)
O3_2 O 0.4313(14) 0.0916(7) 0.9136(5)
C5_3 C 0.145(2) 0.0534(12) 0.8467(6)
H4_3 H 0.1201 0.0199 0.8619
O5_2 O 0.3136(13) 0.0472(6) 0.4658(5)
O9_3 O 0.0798(15) 0.0307(7) 0.4571(5)
N2_3 N 0.107(2) 0.0750(9) 0.6724(5)
C11_3 C 0.063(3) 0.0233(11) 0.6612(9)
H10_3 H 0.0758 0.0484 0.3155
N4_3 N 0.237(2) 0.0923(9) 0.8669(6)
C15_3 C 0.195(2) 0.1026(9) 0.4172(6)
O16_2 O 0.2165(15) 0.0696(7) 0.9387(5)
C16_3 C 0.199(2) 0.0178(9) 0.5980(6)
C19_3 C 0.314(2) 0.1591(10) 0.3628(7)
H12_3 H 0.3950 0.1652 0.3459
C23_3 C 0.197(2) 0.0585(9) 0.4499(6)
C24_3 C 0.278(2) 0.1380(11) 0.8392(7)
H13_3 H 0.3495 0.1637 0.8478
C26_3 C 0.216(2) 0.1454(10) 0.8005(6)
H14_3 H 0.2397 0.1783 0.7846
C27_3 C 0.076(2) 0.1363(9) 0.4072(6)
C30_3 C 0.206(2) 0.0959(11) 0.6475(7)
H17_3 H 0.2485 0.1309 0.6558
C32_3 C 0.084(2) 0.1795(12) 0.3771(7)
H21_3 H 0.0021 0.2011 0.3713
C35_3 C 0.254(3) 0.0711(12) 0.6100(9)
H24_3 H 0.3215 0.0899 0.5930
C36_3 C 0.3024(19) 0.0821(9) 0.9091(7)
C41_3 C 0.319(2) 0.1145(10) 0.3947(7)
H28_3 H 0.4034 0.0941 0.4003
La3_2 La 0.53733(11) 0.05875(5) 0.98506(3)
La5_2 La 0.00667(11) 0.02865(5) 0.97804(3)
O2_3 O 0.0855(15) 0.8443(6) 0.4987(4)
O4_2 O 0.3732(16) 0.9902(8) 0.5478(4)
O6_3 O 0.1481(16) 0.9600(7) 0.5375(4)
C20_3 C 0.189(3) 0.8262(11) 0.5199(10)
N9_3 N 0.296(2) 0.7970(9) 0.5025(7)
C29_3 C 0.236(2) 0.9883(9) 0.5587(6)
C31_3 C 0.283(3) 0.7819(11) 0.4568(9)
H18_3 H 0.1834 0.7788 0.4494
H19_3 H 0.3298 0.7452 0.4515
H20_3 H 0.3271 0.8118 0.4396
C45_3 C 0.099(3) 0.9909(11) 0.6261(9)
H35_3 H 0.0611 0.9540 0.6209
C46_3 C 0.191(3) 0.8368(11) 0.5698(9)
H36_3 H 0.2461 0.8712 0.5761
H37_3 H 0.2334 0.8037 0.5839
H38_3 H 0.0947 0.8419 0.5800
C47_3 C 0.429(3) 0.7813(11) 0.5300(9)
H39_3 H 0.4271 0.8034 0.5563
H40_3 H 0.5146 0.7904 0.5143
H41_3 H 0.4272 0.7403 0.5366
La4_2 La 0.49333(11) 0.97135(5) 0.47804(3)
O17_2 O 0.0687(14) 0.9084(7) 0.4136(5)
I1_3 I 0.79019(16) 0.39519(7) 0.75396(5)
I2_3 I 0.48605(15) 0.24556(6) 0.73043(4)
I3_3 I 0.97180(15) 0.22938(6) 0.71835(4)
Cu4_2 Cu 0.7440(3) 0.28447(13) 0.76086(8)
O1_3 O 0.840(2) 0.0621(9) 0.7324(7)
C2_3 C 0.707(2) 0.0747(10) 0.3370(7)
H2_3 H 0.6093 0.0806 0.3407
C3_3 C 0.608(3) 0.1616(11) 0.6091(7)
H3_3 H 0.5217 0.1797 0.6159
O7_3 O 0.6342(18) 0.0513(8) 0.5030(5)
O8_3 O 0.8526(16) 0.0261(7) 0.5247(5)
N1_3 N 0.608(3) 0.0538(11) 0.7225(9)
C8_3 C 0.777(2) 0.0381(10) 0.3648(6)
O11_3 O 0.5773(13) 0.0180(7) 0.4093(4)
C9_3 C 0.733(2) 0.0956(10) 0.5639(7)
H8_3 H 0.9975 0.0059 0.6798
N3_3 N 0.712(2) 0.1728(8) 0.6349(6)
C13_3 C 0.980(2) 0.0558(10) 0.3212(6)
C21_3 C 0.718(3) 0.0706(13) 0.7444(11)
C22_3 C 0.743(2) 0.0585(11) 0.5266(7)
C25_3 C 0.712(2) 0.0092(10) 0.4038(8)
H15_3 H 0.9894 0.1293 0.4212
C34_3 C 0.922(2) 0.0282(11) 0.3549(6)
H23_3 H 0.9774 0.0028 0.3715
C38_3 C 0.772(2) 0.1016(11) 0.3052(6)
H26_3 H 0.7212 0.1282 0.2886
C40_3 C 0.605(2) 0.1255(11) 0.5715(7)
H27_3 H 0.5252 0.1221 0.5538
C42_3 C 0.693(3) 0.1053(14) 0.7858(10)
H29_3 H 0.7814 0.1076 0.8017
H30_3 H 0.6218 0.0861 0.8030
H31_3 H 0.6613 0.1440 0.7788
C43_3 C 0.462(3) 0.0620(13) 0.7391(11)
H32_3 H 0.4297 0.0264 0.7521
H33_3 H 0.3997 0.0724 0.7158
H34_3 H 0.4625 0.0927 0.7602
C48_3 C 0.831(3) 0.1444(11) 0.6251(7)
H42_3 H 0.9089 0.1484 0.6436
C49_3 C 0.849(2) 0.1080(11) 0.5882(7)
H43_3 H 0.9382 0.0931 0.5810
C50_3 C 0.642(3) 0.0238(14) 0.6822(11)
H44_3 H 0.6614 0.0522 0.6602
H45_3 H 0.5621 0.0000 0.6736
N11_2 N 0.7628(18) 0.2477(8) 0.8208(5)
La1_2 La 0.96267(11) 0.94125(5) 0.48506(3)
C6_3 C 0.606(2) 0.7702(10) 0.3361(6)
H5_3 H 0.5231 0.7583 0.3218
C7_3 C 0.838(2) 0.8026(10) 0.3814(6)
H6_3 H 0.9172 0.8116 0.3981
O10_3 O 0.8629(15) 0.9010(7) 0.5552(4)
C10_3 C 0.594(2) 0.8042(10) 0.3708(6)
H7_3 H 0.5026 0.8161 0.3791
C12_3 C 0.527(2) 0.9009(11) 0.6153(7)
H9_3 H 0.4645 0.9180 0.5956
O12_3 O 0.8013(15) 0.8630(7) 0.4583(4)
O13_3 O 0.6414(14) 0.9238(7) 0.5335(4)
C14_3 C 0.855(2) 0.7691(11) 0.3433(6)
H11_3 H 0.9464 0.7589 0.3338
O14_3 O 0.5744(15) 0.8815(7) 0.4419(5)
O15_3 O 0.7850(14) 0.9830(6) 0.4311(4)
N6_2 N 0.7372(18) 0.7523(8) 0.3208(5)
C17_3 C 0.732(2) 0.9052(8) 0.5606(6)
C18_3 C 0.693(2) 0.8588(8) 0.4351(6)
C28_3 C 0.482(3) 0.8874(11) 0.6558(6)
H16_3 H 0.3859 0.8940 0.6622
C33_3 C 0.752(3) 0.8644(14) 0.6360(7)
H22_3 H 0.8468 0.8550 0.6297
C37_3 C 0.704(2) 0.8535(11) 0.6761(7)
H25_3 H 0.7656 0.8378 0.6965
C39_3 C 0.669(2) 0.8888(10) 0.6037(6)
C44_3 C 0.705(2) 0.8218(10) 0.3940(6)
H45_4 H 0.5621 1.0000 0.6736
H46_3 H 0.7248 0.9995 0.6863
Cu8_2 Cu 0.7560(3) 0.71553(13) 0.26086(8)
O20_2 O 0.2835(15) 0.9304(7) 0.4387(5)
H9_4 H 0.0355 0.0820 0.0956
C28_4 C 0.018(3) 0.1126(11) 0.1558(6)
H16_4 H 0.1141 0.1060 0.1622
O18_2 O 0.1268(16) 0.0098(8) 0.0478(4)
I2_4 I 0.01395(15) 0.75444(6) 0.23043(4)
C43_4 C 0.038(3) 0.9380(13) 0.2391(11)
H32_4 H 0.0703 0.9736 0.2521
H33_4 H 0.1003 0.9276 0.2158
H34_4 H 0.0375 0.9073 0.2602
O19_2 O 0.1864(13) 0.9528(6) 0.9658(5)
O6_4 O 0.3519(16) 0.0400(7) 0.0375(4)
O10_4 O 0.6371(15) 0.0990(7) 0.0552(4)
C12_4 C 0.973(2) 0.0991(11) 0.1153(7)
O13_4 O 0.8586(14) 0.0762(7) 0.0335(4)
C17_4 C 0.768(2) 0.0948(8) 0.0606(6)
C20_4 C 0.311(3) 0.1738(11) 0.0199(10)
N9_4 N 0.204(2) 0.2030(9) 0.0025(7)
C29_4 C 0.264(2) 0.0117(9) 0.0587(6)
C33_4 C 0.748(3) 0.1356(14) 0.1360(7)
H22_4 H 0.6532 0.1450 0.1297
C37_4 C 0.796(2) 0.1465(11) 0.1761(7)
H25_4 H 0.7344 0.1622 0.1965
C39_4 C 0.831(2) 0.1112(10) 0.1037(6)
C45_4 C 0.401(3) 0.0091(11) 0.1261(9)
H35_4 H 0.4389 0.0460 0.1209
C46_4 C 0.309(3) 0.1632(11) 0.0698(9)
H36_4 H 0.2539 0.1288 0.0761
H37_4 H 0.2666 0.1963 0.0839
H38_4 H 0.4053 0.1581 0.0800
C47_4 C 0.071(3) 0.2187(11) 0.0300(9)
H39_4 H 0.0729 0.1966 0.0563
H41_4 H 0.0728 0.2597 0.0366
H45_5 H 0.9379 0.0000 0.1736
H46_4 H 0.7752 0.0005 0.1863
O2_4 O 0.4145(15) 0.1557(6) 0.9987(4)
C6_4 C 0.894(2) 0.2298(10) 0.8361(6)
H5_4 H 0.9769 0.2417 0.8218
C7_4 C 0.662(2) 0.1974(10) 0.8814(6)
H6_4 H 0.5828 0.1884 0.8981
C10_4 C 0.906(2) 0.1958(10) 0.8708(6)
H7_4 H 0.9974 0.1839 0.8791
O12_4 O 0.6987(15) 0.1370(7) 0.9583(4)
C14_4 C 0.645(2) 0.2309(11) 0.8433(6)
H11_4 H 0.5536 0.2411 0.8338
O14_4 O 0.9256(15) 0.1185(7) 0.9419(5)
O15_4 O 0.7150(14) 0.0170(6) 0.9311(4)
C18_4 C 0.807(2) 0.1412(8) 0.9351(6)
C31_4 C 0.217(3) 0.2181(11) 0.9568(9)
H18_4 H 0.3166 0.2212 0.9494
H19_4 H 0.1702 0.2548 0.9515
H20_4 H 0.1729 0.1882 0.9396
C44_4 C 0.795(2) 0.1782(10) 0.8940(6)
I1_4 I 0.70981(16) 0.60481(7) 0.25396(5)
I3_4 I 0.52820(15) 0.77062(6) 0.21835(4)
Cu1_4 Cu 0.4621(3) 0.88325(13) 0.22546(7)
C1_4 C 0.410(2) 0.9402(12) 0.3081(6)
H1_4 H 0.4710 0.9687 0.2972
O1_4 O 0.660(2) 0.9379(9) 0.2324(7)
C3_4 C 0.892(3) 0.8384(11) 0.1091(7)
H3_4 H 0.9783 0.8203 0.1159
C4_4 C 0.3784(17) 0.8925(9) 0.2839(5)
C5_4 C 0.355(2) 0.9466(12) 0.3467(6)
H4_4 H 0.3799 0.9801 0.3619
O7_4 O 0.8658(18) 0.9487(8) 0.0030(5)
O8_4 O 0.6474(16) 0.9739(7) 0.0247(5)
N1_4 N 0.892(3) 0.9462(11) 0.2225(9)
N2_4 N 0.393(2) 0.9250(9) 0.1724(5)
C9_4 C 0.767(2) 0.9044(10) 0.0639(7)
C11_4 C 0.437(3) 0.9767(11) 0.1612(9)
H8_4 H 0.5025 0.9941 0.1798
N3_4 N 0.788(2) 0.8272(8) 0.1349(6)
N4_4 N 0.263(2) 0.9077(9) 0.3669(6)
C16_4 C 0.301(2) 0.9822(9) 0.0980(6)
C21_4 C 0.782(3) 0.9294(13) 0.2444(11)
C22_4 C 0.757(2) 0.9415(11) 0.0266(7)
C24_4 C 0.222(2) 0.8620(11) 0.3392(7)
H13_4 H 0.1505 0.8363 0.3478
C26_4 C 0.284(2) 0.8546(10) 0.3005(6)
H14_4 H 0.2603 0.8217 0.2846
C30_4 C 0.294(2) 0.9041(11) 0.1475(7)
H17_4 H 0.2515 0.8691 0.1558
C35_4 C 0.246(3) 0.9289(12) 0.1100(9)
H24_4 H 0.1785 0.9101 0.0930
C36_4 C 0.1976(19) 0.9179(9) 0.4091(7)
C40_4 C 0.895(2) 0.8745(11) 0.0715(7)
H27_4 H 0.9748 0.8779 0.0538
C42_4 C 0.807(3) 0.8947(14) 0.2858(10)
H29_4 H 0.7186 0.8924 0.3017
H30_4 H 0.8782 0.9139 0.3030
H31_4 H 0.8387 0.8560 0.2788
C48_4 C 0.669(3) 0.8556(11) 0.1251(7)
H42_4 H 0.5911 0.8516 0.1436
C49_4 C 0.651(2) 0.8920(11) 0.0882(7)
H43_4 H 0.5618 0.9069 0.0810
C50_4 C 0.858(3) 0.9762(14) 0.1822(11)
H44_4 H 0.8386 0.9478 0.1602
H45_6 H 0.9379 1.0000 0.1736
C2_4 C 0.793(2) 0.9253(10) 0.8370(7)
H2_4 H 0.8907 0.9194 0.8407
O9_4 O 0.4202(15) 0.9693(7) 0.9571(5)
C8_4 C 0.723(2) 0.9619(10) 0.8648(6)
O11_4 O 0.9227(13) 0.9820(7) 0.9093(4)
C13_4 C 0.520(2) 0.9442(10) 0.8212(6)
H10_4 H 0.4242 0.9516 0.8155
C15_4 C 0.305(2) 0.8974(9) 0.9172(6)
C19_4 C 0.186(2) 0.8409(10) 0.8628(7)
H12_4 H 0.1050 0.8348 0.8459
C23_4 C 0.303(2) 0.9415(9) 0.9499(6)
C25_4 C 0.788(2) 0.9908(10) 0.9038(8)
C27_4 C 0.424(2) 0.8637(9) 0.9072(6)
H15_4 H 0.5106 0.8707 0.9212
C32_4 C 0.416(2) 0.8205(12) 0.8771(7)
H21_4 H 0.4979 0.7989 0.8713
C34_4 C 0.578(2) 0.9718(11) 0.8549(6)
H23_4 H 0.5226 0.9972 0.8715
C38_4 C 0.728(2) 0.8984(11) 0.8052(6)
H26_4 H 0.7788 0.8718 0.7886
C41_4 C 0.181(2) 0.8855(10) 0.8947(7)
H28_4 H 0.0966 0.9059 0.9003
H40_4 H 0.9854 0.2096 0.0143
loop_
_geom_bond_atom_site_label_1
_geom_bond_atom_site_label_2
_geom_bond_site_symmetry_1
_geom_bond_site_symmetry_2
La1 O2 1_555 1_555
I1 Cu3 1_555 1_555
I3 Cu1 1_555 1_555
Cu1 O1 1_555 1_555
Cu2 I3 1_555 1_555
Cu4 I1 1_555 1_555
C1 H1 1_555 1_555
O1 C21 1_555 1_555
C2 H2 1_555 1_555
O2 C20 1_555 1_555
C3 H3 1_555 1_555
C4 Cu1 1_555 1_555
O3 C36 1_555 1_555
C5 C1 1_555 1_555
H4 C5 1_555 1_555
O4 C29 1_555 1_555
O5 C23 1_555 1_555
O6 La1 1_555 1_555
O7 C22 1_555 1_555
O8 La1 1_555 1_555
N1 C21 1_555 1_555
O9 La1 1_555 1_555
C6 H5 1_555 1_555
C7 H6 1_555 1_555
O10 La1 1_555 1_555
N2 Cu1 1_555 1_555
C8 C2 1_555 1_555
C9 C22 1_555 1_555
C10 C6 1_555 1_555
H7 C10 1_555 1_555
C11 N2 1_555 1_555
H8 C11 1_555 1_555
N3 Cu2 1_555 1_555
C13 H10 1_555 1_555
N4 C5 1_555 1_555
N5 C19 1_555 1_555
O12 La1 1_555 1_555
C14 C7 1_555 1_555
H11 C14 1_555 1_555
O15 La1 1_555 1_555
N6 C6 1_555 1_555
C15 C23 1_555 1_555
O16 C36 1_555 1_555
C16 C29 1_555 1_555
C17 O10 1_555 1_555
C18 O12 1_555 1_555
C19 H12 1_555 1_555
N8 C13 1_555 1_555
C20 N9 1_555 1_555
C21 C42 1_555 1_555
C22 O8 1_555 1_555
C23 O9 1_555 1_555
C24 N4 1_555 1_555
H13 C24 1_555 1_555
C25 C8 1_555 1_555
C26 C4 1_555 1_555
H14 C26 1_555 1_555
N9 C31 1_555 1_555
C27 C15 1_555 1_555
H15 C27 1_555 1_555
C29 O6 1_555 1_555
C30 N2 1_555 1_555
H17 C30 1_555 1_555
C31 H18 1_555 1_555
H19 C31 1_555 1_555
H20 C31 1_555 1_555
C32 N5 1_555 1_555
H21 C32 1_555 1_555
C33 H22 1_555 1_555
C34 C8 1_555 1_555
H23 C34 1_555 1_555
C35 C16 1_555 1_555
H24 C35 1_555 1_555
C36 N4 1_555 1_555
C37 N7 1_555 1_555
H25 C37 1_555 1_555
C38 C2 1_555 1_555
H26 C38 1_555 1_555
C39 C12 1_555 1_555
C40 C3 1_555 1_555
H27 C40 1_555 1_555
C41 C15 1_555 1_555
H28 C41 1_555 1_555
C42 H29 1_555 1_555
H30 C42 1_555 1_555
H31 C42 1_555 1_555
C44 C7 1_555 1_555
C45 C11 1_555 1_555
H35 C45 1_555 1_555
C46 C20 1_555 1_555
H36 C46 1_555 1_555
H37 C46 1_555 1_555
H38 C46 1_555 1_555
C47 N9 1_555 1_555
H39 C47 1_555 1_555
H41 C47 1_555 1_555
C48 N3 1_555 1_555
H42 C48 1_555 1_555
C49 C9 1_555 1_555
H43 C49 1_555 1_555
C50 N1 1_555 1_555
H44 C50 1_555 1_555
H45 C50 1_555 1_555
H46 C50 1_555 1_555
La4 O4 1_555 1_555
La5 O16 1_555 1_555
Cu5 N5 1_555 1_555
Cu6 N8 1_555 1_555
Cu8 N6 1_555 1_555
O17 La1 1_555 1_555
N10 Cu2 1_555 1_555
N11 Cu4 1_555 1_555
I3 Cu4 1_555 1_555
C1 C4 1_555 1_555
C3 N3 1_555 1_555
O5 La4 1_555 1_555
O11 C25 1_555 1_555
C9 C40 1_555 1_555
C10 C44 1_555 1_555
C13 C34 1_555 1_555
O13 C17 1_555 1_555
C14 N6 1_555 1_555
O14 C18 1_555 1_555
O15 C25 1_555 1_555
C16 C45 1_555 1_555
C17 C39 1_555 1_555
C18 C44 1_555 1_555
C19 C41 1_555 1_555
N8 C38 1_555 1_555
C24 C26 1_555 1_555
C27 C32 1_555 1_555
C30 C35 1_555 1_555
C33 C37 1_555 1_555
C33 C39 1_555 1_555
C48 C49 1_555 1_555
H16 C28 1_555 1_555
H32 C43 1_555 1_555
H33 C43 1_555 1_555
H34 C43 1_555 1_555
O20 La4 1_555 1_555
C2_2 H2_2 1_555 1_555
C6_2 H5_2 1_555 1_555
C7_2 H6_2 1_555 1_555
C8_2 C2_2 1_555 1_555
O11_2 La5 1_555 1_555
C10_2 C6_2 1_555 1_555
H7_2 C10_2 1_555 1_555
O12_2 La3 1_555 1_555
C14_2 C7_2 1_555 1_555
H11_2 C14_2 1_555 1_555
O14_2 La5 1_555 1_555
O15_2 La3 1_555 1_555
N11 C6_2 1_555 1_555
C18_2 O12_2 1_555 1_555
N8_2 C13_2 1_555 1_555
C25_2 C8_2 1_555 1_555
C34_2 C8_2 1_555 1_555
H23_2 C34_2 1_555 1_555
C38_2 C2_2 1_555 1_555
H26_2 C38_2 1_555 1_555
C44_2 C7_2 1_555 1_555
O19 La5 1_555 1_555
O11_2 C25_2 1_555 1_555
C10_2 C44_2 1_555 1_555
C13_2 C34_2 1_555 1_555
C14_2 N11 1_555 1_555
O14_2 C18_2 1_555 1_555
O15_2 C25_2 1_555 1_555
C18_2 C44_2 1_555 1_555
N8_2 C38_2 1_555 1_555
I1_2 Cu3_2 1_555 1_555
I2_2 Cu2_2 1_555 1_555
Cu2_2 I3_2 1_555 1_555
Cu3_2 I2_2 1_555 1_555
Cu8 I1_2 1_555 1_555
O1_2 C21_2 1_555 1_555
C3_2 H3_2 1_555 1_555
O7_2 C22_2 1_555 1_555
N1_2 C21_2 1_555 1_555
C9_2 C22_2 1_555 1_555
C12_2 H9_2 1_555 1_555
N3_2 Cu2_2 1_555 1_555
N7_2 C28_2 1_555 1_555
C17_2 O10_2 1_555 1_555
C21_2 C42_2 1_555 1_555
C22_2 O8_2 1_555 1_555
C28_2 C12_2 1_555 1_555
H16_2 C28_2 1_555 1_555
C33_2 H22_2 1_555 1_555
C37_2 N7_2 1_555 1_555
H25_2 C37_2 1_555 1_555
C39_2 C12_2 1_555 1_555
C40_2 C3_2 1_555 1_555
H27_2 C40_2 1_555 1_555
C42_2 H29_2 1_555 1_555
H30_2 C42_2 1_555 1_555
H31_2 C42_2 1_555 1_555
C43_2 N1_2 1_555 1_555
H32_2 C43_2 1_555 1_555
H33_2 C43_2 1_555 1_555
H34_2 C43_2 1_555 1_555
C48_2 N3_2 1_555 1_555
H42_2 C48_2 1_555 1_555
C49_2 C9_2 1_555 1_555
H43_2 C49_2 1_555 1_555
C50_2 N1_2 1_555 1_555
H44_2 C50_2 1_555 1_555
H45_2 C50_2 1_555 1_555
H46_2 C50_2 1_555 1_555
Cu6 N7_2 1_555 1_555
N10_2 Cu2_2 1_555 1_555
N12_2 Cu3_2 1_555 1_555
N13_2 Cu3_2 1_555 1_555
I2_2 Cu8 1_555 1_555
I3_2 Cu8 1_555 1_555
C3_2 N3_2 1_555 1_555
C9_2 C40_2 1_555 1_555
O13_2 C17_2 1_555 1_555
C17_2 C39_2 1_555 1_555
C33_2 C37_2 1_555 1_555
C33_2 C39_2 1_555 1_555
C48_2 C49_2 1_555 1_555
O19 C23_2 1_555 1_555
N5_2 C19_2 1_555 1_555
C15_2 C23_2 1_555 1_555
C19_2 H12_2 1_555 1_555
C23_2 O9_2 1_555 1_555
C27_2 C15_2 1_555 1_555
C31_2 H18_2 1_555 1_555
H19_2 C31_2 1_555 1_555
H20_2 C31_2 1_555 1_555
C32_2 N5_2 1_555 1_555
H21_2 C32_2 1_555 1_555
C41_2 C15_2 1_555 1_555
H28_2 C41_2 1_555 1_555
Cu5_2 N5_2 1_555 1_555
C19_2 C41_2 1_555 1_555
C27_2 C32_2 1_555 1_555
C1_2 H1_2 1_555 1_555
C4_2 Cu1_2 1_555 1_555
O17 C36_2 1_555 1_555
C5_2 C1_2 1_555 1_555
H4_2 C5_2 1_555 1_555
O18 C29_2 1_555 1_555
N2_2 Cu1_2 1_555 1_555
C11_2 N2_2 1_555 1_555
N4_2 C5_2 1_555 1_555
O20 C36_2 1_555 1_555
C16_2 C29_2 1_555 1_555
C20_2 N9_2 1_555 1_555
C24_2 N4_2 1_555 1_555
H13_2 C24_2 1_555 1_555
C26_2 C4_2 1_555 1_555
H14_2 C26_2 1_555 1_555
C29_2 O6_2 1_555 1_555
C30_2 N2_2 1_555 1_555
H17_2 C30_2 1_555 1_555
C35_2 C16_2 1_555 1_555
H24_2 C35_2 1_555 1_555
C36_2 N4_2 1_555 1_555
C45_2 C11_2 1_555 1_555
H35_2 C45_2 1_555 1_555
C46_2 C20_2 1_555 1_555
H36_2 C46_2 1_555 1_555
H37_2 C46_2 1_555 1_555
H38_2 C46_2 1_555 1_555
C47_2 N9_2 1_555 1_555
H39_2 C47_2 1_555 1_555
H40_2 C47_2 1_555 1_555
H41_2 C47_2 1_555 1_555
C1_2 C4_2 1_555 1_555
C16_2 C45_2 1_555 1_555
C24_2 C26_2 1_555 1_555
C30_2 C35_2 1_555 1_555
C1_3 H1_3 1_555 1_555
C4_3 Cu1_3 1_555 1_555
O3_2 C36_3 1_555 1_555
C5_3 C1_3 1_555 1_555
H4_3 C5_3 1_555 1_555
O5_2 C23_3 1_555 1_555
N2_3 Cu1_3 1_555 1_555
C11_3 N2_3 1_555 1_555
N4_3 C5_3 1_555 1_555
N10 C19_3 1_555 1_555
C15_3 C23_3 1_555 1_555
O16_2 C36_3 1_555 1_555
C19_3 H12_3 1_555 1_555
C23_3 O9_3 1_555 1_555
C24_3 N4_3 1_555 1_555
H13_3 C24_3 1_555 1_555
C26_3 C4_3 1_555 1_555
H14_3 C26_3 1_555 1_555
C27_3 C15_3 1_555 1_555
C30_3 N2_3 1_555 1_555
H17_3 C30_3 1_555 1_555
C32_3 N10 1_555 1_555
H21_3 C32_3 1_555 1_555
C35_3 C16_3 1_555 1_555
H24_3 C35_3 1_555 1_555
C36_3 N4_3 1_555 1_555
C41_3 C15_3 1_555 1_555
H28_3 C41_3 1_555 1_555
La3_2 O3_2 1_555 1_555
La5_2 O16_2 1_555 1_555
C1_3 C4_3 1_555 1_555
C19_3 C41_3 1_555 1_555
C24_3 C26_3 1_555 1_555
C27_3 C32_3 1_555 1_555
C30_3 C35_3 1_555 1_555
O2_3 C20_3 1_555 1_555
O4_2 C29_3 1_555 1_555
C20_3 N9_3 1_555 1_555
N9_3 C31_3 1_555 1_555
C29_3 O6_3 1_555 1_555
C31_3 H18_3 1_555 1_555
H19_3 C31_3 1_555 1_555
H20_3 C31_3 1_555 1_555
H35_3 C45_3 1_555 1_555
C46_3 C20_3 1_555 1_555
H36_3 C46_3 1_555 1_555
H37_3 C46_3 1_555 1_555
H38_3 C46_3 1_555 1_555
C47_3 N9_3 1_555 1_555
H39_3 C47_3 1_555 1_555
H40_3 C47_3 1_555 1_555
H41_3 C47_3 1_555 1_555
La4_2 O4_2 1_555 1_555
I1_3 Cu6 1_555 1_555
I2_3 Cu5 1_555 1_555
Cu5 I3_3 1_555 1_555
Cu6 I2_3 1_555 1_555
Cu4_2 I1_3 1_555 1_555
O1_3 C21_3 1_555 1_555
C2_3 H2_3 1_555 1_555
C3_3 H3_3 1_555 1_555
O7_3 C22_3 1_555 1_555
N1_3 C21_3 1_555 1_555
C8_3 C2_3 1_555 1_555
C9_3 C22_3 1_555 1_555
N3_3 Cu5 1_555 1_555
N13 C13_3 1_555 1_555
C21_3 C42_3 1_555 1_555
C22_3 O8_3 1_555 1_555
C25_3 C8_3 1_555 1_555
C34_3 C8_3 1_555 1_555
H23_3 C34_3 1_555 1_555
C38_3 C2_3 1_555 1_555
H26_3 C38_3 1_555 1_555
C40_3 C3_3 1_555 1_555
H27_3 C40_3 1_555 1_555
C42_3 H29_3 1_555 1_555
H30_3 C42_3 1_555 1_555
H31_3 C42_3 1_555 1_555
C43_3 N1_3 1_555 1_555
H32_3 C43_3 1_555 1_555
H33_3 C43_3 1_555 1_555
H34_3 C43_3 1_555 1_555
C48_3 N3_3 1_555 1_555
H42_3 C48_3 1_555 1_555
C49_3 C9_3 1_555 1_555
H43_3 C49_3 1_555 1_555
C50_3 N1_3 1_555 1_555
H44_3 C50_3 1_555 1_555
H45_3 C50_3 1_555 1_555
N11_2 Cu4_2 1_555 1_555
I2_3 Cu4_2 1_555 1_555
I3_3 Cu4_2 1_555 1_555
C3_3 N3_3 1_555 1_555
O11_3 C25_3 1_555 1_555
C9_3 C40_3 1_555 1_555
C13_3 C34_3 1_555 1_555
N13 C38_3 1_555 1_555
C48_3 C49_3 1_555 1_555
C6_3 H5_3 1_555 1_555
C7_3 H6_3 1_555 1_555
O10_3 La1_2 1_555 1_555
C10_3 C6_3 1_555 1_555
H7_3 C10_3 1_555 1_555
C12_3 H9_3 1_555 1_555
O12_3 La1_2 1_555 1_555
O13_3 La4_2 1_555 1_555
C14_3 C7_3 1_555 1_555
H11_3 C14_3 1_555 1_555
O14_3 La4_2 1_555 1_555
O15_3 La1_2 1_555 1_555
N6_2 C6_3 1_555 1_555
N12_2 C28_3 1_555 1_555
C17_3 O10_3 1_555 1_555
C18_3 O12_3 1_555 1_555
C28_3 C12_3 1_555 1_555
H16_3 C28_3 1_555 1_555
C33_3 H22_3 1_555 1_555
C37_3 N12_2 1_555 1_555
H25_3 C37_3 1_555 1_555
C39_3 C12_3 1_555 1_555
C44_3 C7_3 1_555 1_555
Cu8_2 N6_2 1_555 1_555
O20_2 La4_2 1_555 1_555
C10_3 C44_3 1_555 1_555
O13_3 C17_3 1_555 1_555
C14_3 N6_2 1_555 1_555
O14_3 C18_3 1_555 1_555
C17_3 C39_3 1_555 1_555
C18_3 C44_3 1_555 1_555
C33_3 C37_3 1_555 1_555
C33_3 C39_3 1_555 1_555
H16_4 C28_4 1_555 1_555
H32_4 C43_4 1_555 1_555
H33_4 C43_4 1_555 1_555
H34_4 C43_4 1_555 1_555
O18_2 C29_4 1_555 1_555
C17_4 O10_4 1_555 1_555
C20_4 N9_4 1_555 1_555
C29_4 O6_4 1_555 1_555
C33_4 H22_4 1_555 1_555
C37_4 N12 1_555 1_555
H25_4 C37_4 1_555 1_555
C39_4 C12_4 1_555 1_555
H35_4 C45_4 1_555 1_555
C46_4 C20_4 1_555 1_555
H36_4 C46_4 1_555 1_555
H37_4 C46_4 1_555 1_555
H38_4 C46_4 1_555 1_555
C47_4 N9_4 1_555 1_555
H39_4 C47_4 1_555 1_555
H41_4 C47_4 1_555 1_555
O13_4 C17_4 1_555 1_555
C17_4 C39_4 1_555 1_555
C33_4 C37_4 1_555 1_555
C33_4 C39_4 1_555 1_555
La3_2 O2_4 1_555 1_555
C6_4 H5_4 1_555 1_555
C7_4 H6_4 1_555 1_555
C10_4 C6_4 1_555 1_555
H7_4 C10_4 1_555 1_555
O12_4 La3_2 1_555 1_555
C14_4 C7_4 1_555 1_555
H11_4 C14_4 1_555 1_555
O15_4 La3_2 1_555 1_555
N11_2 C6_4 1_555 1_555
C18_4 O12_4 1_555 1_555
C31_4 H18_4 1_555 1_555
H19_4 C31_4 1_555 1_555
H20_4 C31_4 1_555 1_555
C44_4 C7_4 1_555 1_555
C10_4 C44_4 1_555 1_555
C14_4 N11_2 1_555 1_555
O14_4 C18_4 1_555 1_555
C18_4 C44_4 1_555 1_555
I1_4 Cu7 1_555 1_555
I3_4 Cu1_4 1_555 1_555
Cu1_4 O1_4 1_555 1_555
Cu5_2 I3_4 1_555 1_555
Cu8_2 I1_4 1_555 1_555
C1_4 H1_4 1_555 1_555
O1_4 C21_4 1_555 1_555
C3_4 H3_4 1_555 1_555
C4_4 Cu1_4 1_555 1_555
O17_2 C36_4 1_555 1_555
C5_4 C1_4 1_555 1_555
H4_4 C5_4 1_555 1_555
O7_4 C22_4 1_555 1_555
N1_4 C21_4 1_555 1_555
N2_4 Cu1_4 1_555 1_555
C9_4 C22_4 1_555 1_555
C11_4 N2_4 1_555 1_555
H8_4 C11_4 1_555 1_555
N3_4 Cu5_2 1_555 1_555
N4_4 C5_4 1_555 1_555
O20_2 C36_4 1_555 1_555
C21_4 C42_4 1_555 1_555
C22_4 O8_4 1_555 1_555
C24_4 N4_4 1_555 1_555
H13_4 C24_4 1_555 1_555
C26_4 C4_4 1_555 1_555
H14_4 C26_4 1_555 1_555
C30_4 N2_4 1_555 1_555
H17_4 C30_4 1_555 1_555
C35_4 C16_4 1_555 1_555
H24_4 C35_4 1_555 1_555
C36_4 N4_4 1_555 1_555
C40_4 C3_4 1_555 1_555
H27_4 C40_4 1_555 1_555
C42_4 H29_4 1_555 1_555
H30_4 C42_4 1_555 1_555
H31_4 C42_4 1_555 1_555
C48_4 N3_4 1_555 1_555
H42_4 C48_4 1_555 1_555
C49_4 C9_4 1_555 1_555
H43_4 C49_4 1_555 1_555
C50_4 N1_4 1_555 1_555
H44_4 C50_4 1_555 1_555
H45_6 C50_4 1_555 1_555
I3_4 Cu8_2 1_555 1_555
C1_4 C4_4 1_555 1_555
C3_4 N3_4 1_555 1_555
C9_4 C40_4 1_555 1_555
C24_4 C26_4 1_555 1_555
C30_4 C35_4 1_555 1_555
C48_4 C49_4 1_555 1_555
C2_4 H2_4 1_555 1_555
O19_2 C23_4 1_555 1_555
C8_4 C2_4 1_555 1_555
C13_4 H10_4 1_555 1_555
N10_2 C19_4 1_555 1_555
C15_4 C23_4 1_555 1_555
C19_4 H12_4 1_555 1_555
N13_2 C13_4 1_555 1_555
C23_4 O9_4 1_555 1_555
C25_4 C8_4 1_555 1_555
C27_4 C15_4 1_555 1_555
H15_4 C27_4 1_555 1_555
C32_4 N10_2 1_555 1_555
H21_4 C32_4 1_555 1_555
C34_4 C8_4 1_555 1_555
H23_4 C34_4 1_555 1_555
C38_4 C2_4 1_555 1_555
H26_4 C38_4 1_555 1_555
C41_4 C15_4 1_555 1_555
H28_4 C41_4 1_555 1_555
O11_4 C25_4 1_555 1_555
C13_4 C34_4 1_555 1_555
C19_4 C41_4 1_555 1_555
N13_2 C38_4 1_555 1_555
C27_4 C32_4 1_555 1_555

#END
