
###############################################################################
#
# This file contains modified crystal structure data generated from the
# MOF subset of the Cambridge Structural Database (CSD) v543 
# hosted by the Cambridge Crystallographic Data Centre (CCDC).
#
# This work is licensed under the Creative Commons
# Attribution-NonCommercial-ShareAlike 4.0 International License.
# To view a copy of this license, visit
# http://creativecommons.org/licenses/by-nc-sa/4.0/
# or send a letter to
# Creative Commons, PO Box 1866, Mountain View, CA 94042, USA.
#
# CIF created using the CSD Python API on 29 September 2022
# The structure has been converted into the P1 space group
# The structure has a 3D framework
# The original CSD entry TEBLOE01 is in the orthorhombic crystal system
# The original CSD entry TEBLOE01 is in a Sohncke space group
# The framework has been calculated to contain at least 10.0% void space
# The void calculation uses a probe of radius 1.32A, grid spacing 0.4
#
###############################################################################

data_TEBLOE01
_chemical_formula_moiety         '(C200 H184 Cu16 Gd7 I12 N36 O64)n'
_symmetry_cell_setting           triclinic
_symmetry_space_group_name_H-M   'P 1'
_symmetry_Int_Tables_number      1
_space_group_name_Hall           'P 1'
loop_
_symmetry_equiv_pos_site_id
_symmetry_equiv_pos_as_xyz
1 x,y,z
_cell_length_a                   9.2454(5)
_cell_length_b                   22.5900(14)
_cell_length_c                   30.9778(14)
_cell_angle_alpha                90
_cell_angle_beta                 90
_cell_angle_gamma                90
_cell_volume                     6469.82
loop_
_atom_site_label
_atom_site_type_symbol
_atom_site_fract_x
_atom_site_fract_y
_atom_site_fract_z
Gd2 Gd 0.49419(8) 0.02903(3) 0.47863(2)
O3 O 0.1373(11) 0.0408(5) 0.5362(3)
O4 O 0.3697(11) 0.0149(5) 0.5449(3)
O15 O 0.0803(12) 0.1545(5) 0.4983(3)
N8 N 0.2914(15) 0.2017(7) 0.5045(5)
C7 C 0.2374(18) 0.0149(7) 0.5565(4)
C12 C 0.0979(19) 0.0085(7) 0.6254(5)
H8 H 0.052777 0.045219 0.618909
C43 C 0.1828(15) 0.1727(6) 0.5213(5)
C44 C 0.1802(19) 0.1642(8) 0.5703(5)
H29 H 0.259851 0.138046 0.578888
H30 H 0.087945 0.146335 0.578844
H31 H 0.191280 0.202629 0.584539
C45 C 0.4247(17) 0.2197(8) 0.5283(6)
H32 H 0.509651 0.202401 0.514216
H33 H 0.419075 0.205513 0.558181
H34 H 0.432953 0.262939 0.528214
C46 C 0.2970(18) 0.2179(8) 0.4588(5)
H35 H 0.297959 0.261135 0.456055
H36 H 0.211857 0.201947 0.443990
H37 H 0.384845 0.201505 0.445781
O18 O 0.0747(10) 0.0903(5) 0.4183(3)
O19 O 0.2954(12) 0.0715(5) 0.4427(3)
O20 O 0.5779(10) 0.1154(5) 0.4424(3)
O21 O 0.6317(11) 0.0769(5) 0.5313(3)
Cu1 Cu 0.0439(2) 0.88353(9) 0.72563(6)
O5 O 0.4253(10) 0.9097(5) 0.9183(3)
O6 O 0.2046(12) 0.9285(5) 0.9427(3)
O13 O 0.0832(11) 0.9727(5) 0.4584(3)
O14 O 0.3221(11) 0.9545(5) 0.4673(3)
N2 N 0.1161(14) 0.9254(6) 0.6730(4)
N3 N 0.1266(14) 0.8929(7) 0.7852(4)
N7 N 0.2019(14) 0.8104(6) 0.3549(4)
C8 C 0.2003(16) 0.9843(7) 0.5974(5)
C9 C 0.2594(17) 0.9303(8) 0.6079(5)
H5 H 0.329379 0.912594 0.589565
C10 C 0.2163(19) 0.9018(8) 0.6455(5)
H6 H 0.257914 0.864465 0.652264
C11 C 0.0631(19) 0.9782(8) 0.6627(5)
C13 C 0.2914(18) 0.9160(7) 0.9128(4)
C14 C 0.2349(16) 0.9085(8) 0.8676(4)
C15 C 0.2776(18) 0.8617(8) 0.8427(5)
H9 H 0.346550 0.834297 0.853417
C16 C 0.2203(18) 0.8543(8) 0.8016(5)
H10 H 0.248484 0.821017 0.784907
C17 C 0.0879(17) 0.9405(7) 0.8086(4)
H11 H 0.024827 0.969067 0.796206
C18 C 0.1383(16) 0.9491(7) 0.8507(5)
H12 H 0.106906 0.981979 0.867344
H22 H 0.084199 0.955885 0.314422
C37 C 0.2012(16) 0.9468(6) 0.4500(4)
C38 C 0.1979(16) 0.8978(7) 0.4169(4)
C39 C 0.3207(16) 0.8876(7) 0.3929(5)
H25 H 0.405338 0.910626 0.397247
C40 C 0.3183(18) 0.8431(8) 0.3622(5)
H26 H 0.403194 0.835700 0.345803
C41 C 0.0789(17) 0.8215(8) 0.3777(5)
C42 C 0.0726(16) 0.8649(7) 0.4079(5)
Gd3 Gd 0.53752(7) 0.94050(3) 0.98532(2)
Gd5 Gd 0.00581(8) 0.97097(3) 0.97863(2)
Cu5 Cu 0.2185(2) 0.73435(9) 0.31731(6)
Cu7 Cu 0.0147(2) 0.86146(8) 0.24850(5)
O17 O 0.6306(11) 0.9510(5) 0.5028(3)
O22 O 0.5839(11) 0.9859(5) 0.4122(3)
Gd1 Gd 0.96248(7) 0.05950(3) 0.48532(2)
O8 O 0.8073(10) 0.1354(4) 0.4598(3)
O10 O 0.8569(11) 0.0978(5) 0.5519(3)
O12 O 0.7964(11) 0.0199(5) 0.4329(3)
N4 N 0.7360(13) 0.2465(5) 0.3212(4)
N5 N 0.5657(13) 0.1341(6) 0.6868(4)
C19 C 0.6991(17) 0.1399(7) 0.4364(5)
C20 C 0.7118(17) 0.1770(7) 0.3956(4)
C21 C 0.5892(16) 0.1937(8) 0.3715(5)
H13 H 0.495468 0.180748 0.379750
C22 C 0.6072(16) 0.2289(7) 0.3359(4)
H14 H 0.523276 0.241535 0.320846
C23 C 0.8510(17) 0.2305(7) 0.3444(5)
H15 H 0.943310 0.243452 0.334863
C24 C 0.8453(16) 0.1961(7) 0.3816(5)
H16 H 0.930902 0.185988 0.396868
C25 C 0.7221(17) 0.0941(7) 0.5584(5)
C26 C 0.6687(15) 0.1114(7) 0.6034(4)
C27 C 0.5279(17) 0.0995(7) 0.6143(5)
H17 H 0.463534 0.084094 0.593198
C28 C 0.4796(18) 0.1098(7) 0.6553(4)
H18 H 0.382574 0.099762 0.662315
C29 C 0.7014(19) 0.1465(9) 0.6751(5)
H19 H 0.763316 0.164128 0.695950
C30 C 0.7570(17) 0.1352(8) 0.6347(5)
H20 H 0.855400 0.143738 0.628411
H21 H 0.983658 0.002153 0.373031
H41 H 0.659198 0.013610 0.682922
Cu6 Cu 0.7559(2) 0.28382(9) 0.26085(6)
Cu8 Cu 0.4853(2) 0.13854(8) 0.74850(5)
I1 I 0.97702(11) 0.76963(4) 0.71858(3)
I2 I 0.48434(11) 0.75506(4) 0.73004(3)
I3 I 0.79357(11) 0.60318(5) 0.75430(3)
Cu2 Cu 0.7185(2) 0.76565(9) 0.68269(6)
Cu3 Cu 0.7441(2) 0.71618(9) 0.76085(6)
Cu4 Cu 0.5147(2) 0.63854(8) 0.75150(5)
O1 O 0.8560(10) 0.9765(5) 0.5220(3)
O16 O 0.8464(13) 0.9364(6) 0.7297(4)
N1 N 0.7184(15) 0.8268(6) 0.6341(4)
N6 N 0.9141(15) 0.9100(5) 0.2959(4)
N9 N 0.6066(16) 0.9466(7) 0.7223(5)
C1 C 0.7423(15) 0.9462(7) 0.5255(4)
C2 C 0.7385(17) 0.9018(7) 0.5617(5)
C3 C 0.8556(19) 0.8932(8) 0.5881(6)
H1 H 0.944335 0.912926 0.582429
C4 C 0.8428(19) 0.8544(8) 0.6239(6)
H2 H 0.925470 0.847714 0.641493
C5 C 0.6060(17) 0.8342(8) 0.6075(5)
H3 H 0.519055 0.813253 0.613249
C6 C 0.6115(16) 0.8722(7) 0.5712(5)
H4 H 0.528589 0.877326 0.553486
H7 H 0.997334 0.996326 0.682261
C31 C 0.7176(17) 0.9924(7) 0.4067(4)
C32 C 0.7839(16) 0.9656(7) 0.3676(5)
C33 C 0.9265(16) 0.9757(8) 0.3564(5)
C34 C 0.9859(16) 0.9478(7) 0.3212(4)
C35 C 0.7733(18) 0.9010(8) 0.3055(5)
H23 H 0.718819 0.874344 0.288274
C36 C 0.7060(18) 0.9291(7) 0.3394(5)
H24 H 0.605118 0.923642 0.343666
H27 H 0.995264 0.798210 0.372218
H28 H 0.984809 0.872977 0.422763
C47 C 0.700(2) 0.8990(9) 0.7870(6)
H38 H 0.674638 0.928707 0.808792
H39 H 0.788613 0.878485 0.795737
H40 H 0.620926 0.870236 0.784424
C48 C 0.7237(17) 0.9291(6) 0.7439(5)
C49 C 0.627(2) 0.9724(10) 0.6798(7)
H42 H 0.536084 0.971260 0.663817
H43 H 0.701122 0.949902 0.664108
C50 C 0.4581(18) 0.9403(9) 0.7377(7)
H44 H 0.406122 0.912187 0.719209
H45 H 0.409602 0.978827 0.736706
H46 H 0.458894 0.925570 0.767433
N10 N 0.7640(13) 0.7535(5) 0.8212(4)
N11 N 0.4343(13) 0.6341(6) 0.8132(4)
N12 N 0.4141(15) 0.5900(5) 0.7041(4)
N13 N 0.7019(14) 0.6896(6) 0.6451(4)
I2_2 I 0.01566(11) 0.24494(4) 0.23004(3)
C50_2 C 0.0419(18) 0.0597(9) 0.2377(7)
H44_2 H 0.093878 0.087813 0.219209
H45_2 H 0.090398 0.021173 0.236706
H46_2 H 0.041106 0.074430 0.267433
N11_2 N 0.0657(13) 0.3659(6) 0.3132(4)
N12_2 N 0.0859(15) 0.4100(5) 0.2041(4)
H17_2 H 0.036466 0.915906 0.093198
C28_2 C 0.0204(18) 0.8902(7) 0.1553(4)
H18_2 H 0.117426 0.900238 0.162315
H13_2 H 0.004532 0.819252 0.879750
I1_2 I 0.52298(11) 0.23037(4) 0.21858(3)
I3_2 I 0.70643(11) 0.39682(5) 0.25430(3)
Cu1_2 Cu 0.4561(2) 0.11647(9) 0.22563(6)
Cu2_2 Cu 0.7815(2) 0.23435(9) 0.18269(6)
Cu4_2 Cu 0.9853(2) 0.36146(8) 0.25150(5)
O1_2 O 0.6440(10) 0.0235(5) 0.0220(3)
O2 O 0.8694(11) 0.0490(5) 0.0028(3)
O16_2 O 0.6536(13) 0.0636(6) 0.2297(4)
N1_2 N 0.7816(15) 0.1732(6) 0.1341(4)
N2_2 N 0.3839(14) 0.0746(6) 0.1730(4)
N3_2 N 0.3734(14) 0.1071(7) 0.2852(4)
N9_2 N 0.8934(16) 0.0534(7) 0.2223(5)
C1_2 C 0.7577(15) 0.0538(7) 0.0255(4)
C2_2 C 0.7615(17) 0.0982(7) 0.0617(5)
C3_2 C 0.6444(19) 0.1068(8) 0.0881(6)
H1_2 H 0.555665 0.087074 0.082429
C4_2 C 0.6572(19) 0.1456(8) 0.1239(6)
H2_2 H 0.574530 0.152286 0.141493
C5_2 C 0.8940(17) 0.1658(8) 0.1075(5)
H3_2 H 0.980945 0.186747 0.113249
C6_2 C 0.8885(16) 0.1278(7) 0.0712(5)
H4_2 H 0.971411 0.122674 0.053486
C8_2 C 0.2997(16) 0.0157(7) 0.0974(5)
C9_2 C 0.2406(17) 0.0697(8) 0.1079(5)
H5_2 H 0.170621 0.087406 0.089565
C10_2 C 0.2837(19) 0.0982(8) 0.1455(5)
H6_2 H 0.242086 0.135535 0.152264
C11_2 C 0.4369(19) 0.0218(8) 0.1627(5)
H7_2 H 0.502666 0.003674 0.182261
C13_2 C 0.2086(18) 0.0840(7) 0.4128(4)
C14_2 C 0.2651(16) 0.0915(8) 0.3676(4)
C15_2 C 0.2224(18) 0.1383(8) 0.3427(5)
H9_2 H 0.153450 0.165703 0.353417
C16_2 C 0.2797(18) 0.1457(8) 0.3016(5)
H10_2 H 0.251516 0.178983 0.284907
C17_2 C 0.4121(17) 0.0595(7) 0.3086(4)
H11_2 H 0.475173 0.030933 0.296206
C18_2 C 0.3617(16) 0.0509(7) 0.3507(5)
H12_2 H 0.393094 0.018021 0.367344
C47_2 C 0.800(2) 0.1010(9) 0.2870(6)
H38_2 H 0.825362 0.071293 0.308792
H39_2 H 0.711387 0.121515 0.295737
H40_2 H 0.879074 0.129764 0.284424
C48_2 C 0.7763(17) 0.0709(6) 0.2439(5)
C49_2 C 0.873(2) 0.0276(10) 0.1798(7)
H42_2 H 0.963916 0.028740 0.163817
H43_2 H 0.798878 0.050098 0.164108
N13_2 N 0.7981(14) 0.3104(6) 0.1451(4)
O11 O 0.9161(11) 0.0141(5) 0.9122(3)
O13_2 O 0.4168(11) 0.0273(5) 0.9584(3)
O14_2 O 0.1779(11) 0.0455(5) 0.9673(3)
N6_2 N 0.5859(15) 0.0900(5) 0.7959(4)
N7_2 N 0.2981(14) 0.1896(6) 0.8549(4)
C31_2 C 0.7824(17) 0.0076(7) 0.9067(4)
C32_2 C 0.7161(16) 0.0344(7) 0.8676(5)
C33_2 C 0.5735(16) 0.0243(8) 0.8564(5)
C34_2 C 0.5141(16) 0.0522(7) 0.8212(4)
H22_2 H 0.415801 0.044115 0.814422
C35_2 C 0.7267(18) 0.0990(8) 0.8055(5)
H23_2 H 0.781181 0.125656 0.788274
C36_2 C 0.7940(18) 0.0709(7) 0.8394(5)
H24_2 H 0.894882 0.076358 0.843666
C37_2 C 0.2988(16) 0.0532(6) 0.9500(4)
C38_2 C 0.3021(16) 0.1022(7) 0.9169(4)
C39_2 C 0.1793(16) 0.1124(7) 0.8929(5)
H25_2 H 0.094662 0.089374 0.897247
C40_2 C 0.1817(18) 0.1569(8) 0.8622(5)
H26_2 H 0.096806 0.164300 0.845803
C41_2 C 0.4211(17) 0.1785(8) 0.8777(5)
H27_2 H 0.504736 0.201790 0.872218
C42_2 C 0.4274(16) 0.1351(7) 0.9079(5)
H28_2 H 0.515191 0.127023 0.922763
Cu5_2 Cu 0.2815(2) 0.26565(9) 0.81731(6)
O3_2 O 0.3627(11) 0.9592(5) 0.0362(3)
O4_2 O 0.1303(11) 0.9851(5) 0.0449(3)
O9 O 0.8683(11) 0.9231(5) 0.0313(3)
O10_2 O 0.6431(11) 0.9022(5) 0.0519(3)
N5_2 N 0.9343(13) 0.8659(6) 0.1868(4)
N8_2 N 0.2086(15) 0.7983(7) 0.0045(5)
C7_2 C 0.2626(18) 0.9851(7) 0.0565(4)
C12_2 C 0.4021(19) 0.9915(7) 0.1254(5)
H8_2 H 0.447223 0.954781 0.118909
C25_2 C 0.7779(17) 0.9059(7) 0.0584(5)
C26_2 C 0.8313(15) 0.8886(7) 0.1034(4)
C27_2 C 0.9721(17) 0.9005(7) 0.1143(5)
C29_2 C 0.7986(19) 0.8535(9) 0.1751(5)
H19_2 H 0.736684 0.835872 0.195950
C30_2 C 0.7430(17) 0.8648(8) 0.1347(5)
H20_2 H 0.644600 0.856262 0.128411
C43_2 C 0.3172(15) 0.8273(6) 0.0213(5)
C44_2 C 0.3198(19) 0.8358(8) 0.0703(5)
H29_2 H 0.240149 0.861954 0.078888
H30_2 H 0.412055 0.853665 0.078844
H31_2 H 0.308720 0.797371 0.084539
C45_2 C 0.0753(17) 0.7803(8) 0.0283(6)
H33_2 H 0.080925 0.794487 0.058181
H34_2 H 0.067047 0.737061 0.028214
H41_2 H 0.840802 0.986390 0.182922
O7 O 0.9221(10) 0.8846(5) 0.9424(3)
O8_2 O 0.6927(10) 0.8646(4) 0.9598(3)
O12_2 O 0.7036(11) 0.9801(5) 0.9329(3)
O15_2 O 0.4197(12) 0.8455(5) 0.9983(3)
C19_2 C 0.8009(17) 0.8601(7) 0.9364(5)
C20_2 C 0.7882(17) 0.8230(7) 0.8956(4)
C21_2 C 0.9108(16) 0.8063(8) 0.8715(5)
C22_2 C 0.8928(16) 0.7711(7) 0.8359(4)
H14_2 H 0.976724 0.758465 0.820846
C23_2 C 0.6490(17) 0.7695(7) 0.8444(5)
H15_2 H 0.556690 0.756548 0.834863
C24_2 C 0.6547(16) 0.8039(7) 0.8816(5)
H16_2 H 0.569098 0.814012 0.896868
H21_2 H 0.516342 0.997847 0.873031
C46_2 C 0.2030(18) 0.7821(8) 0.9588(5)
H35_2 H 0.202041 0.738865 0.956055
H36_2 H 0.288143 0.798053 0.943990
H37_2 H 0.115155 0.798495 0.945781
H32_2 H 0.990349 0.797599 0.014216
H32_3 H 0.009651 0.297599 0.485784
Gd3_2 Gd 0.03752(7) 0.55950(3) 0.01468(2)
O17_2 O 0.1306(11) 0.5490(5) 0.4972(3)
O20_2 O 0.0779(10) 0.3846(5) 0.5576(3)
O21_2 O 0.1317(11) 0.4231(5) 0.4687(3)
O22_2 O 0.0839(11) 0.5141(5) 0.5878(3)
Gd1_2 Gd 0.46248(7) 0.44050(3) 0.51468(2)
Gd2_2 Gd 0.99419(8) 0.47097(3) 0.52137(2)
I1_3 I 0.47702(11) 0.73037(4) 0.28142(3)
I3_3 I 0.29357(11) 0.89682(5) 0.24570(3)
Cu1_3 Cu 0.5439(2) 0.61647(9) 0.27437(6)
Cu3_2 Cu 0.2441(2) 0.78382(9) 0.23915(6)
O1_3 O 0.3560(10) 0.5235(5) 0.4780(3)
O3_3 O 0.6373(11) 0.4592(5) 0.4638(3)
O4_3 O 0.8697(11) 0.4851(5) 0.4551(3)
O5_2 O 0.9253(10) 0.5903(5) 0.0817(3)
O6_2 O 0.7046(12) 0.5715(5) 0.0573(3)
O8_3 O 0.3073(10) 0.3646(4) 0.5402(3)
O10_3 O 0.3569(11) 0.4022(5) 0.4481(3)
O12_3 O 0.2964(11) 0.4801(5) 0.5671(3)
O13_3 O 0.5832(11) 0.5273(5) 0.5416(3)
O14_3 O 0.8221(11) 0.5455(5) 0.5327(3)
O15_3 O 0.5803(12) 0.3455(5) 0.5017(3)
O16_3 O 0.3464(13) 0.5636(6) 0.2703(4)
N1_3 N 0.2184(15) 0.6732(6) 0.3659(4)
N2_3 N 0.6161(14) 0.5746(6) 0.3270(4)
N3_3 N 0.6266(14) 0.6071(7) 0.2148(4)
N4_2 N 0.2360(13) 0.2535(5) 0.6788(4)
N8_3 N 0.7914(15) 0.2983(7) 0.4955(5)
N9_3 N 0.1066(16) 0.5534(7) 0.2777(5)
C1_3 C 0.2423(15) 0.5538(7) 0.4745(4)
C2_3 C 0.2385(17) 0.5982(7) 0.4383(5)
C3_3 C 0.3556(19) 0.6068(8) 0.4119(6)
H1_3 H 0.444335 0.587074 0.417571
C4_3 C 0.3428(19) 0.6456(8) 0.3761(6)
H2_3 H 0.425470 0.652286 0.358507
C5_3 C 0.1060(17) 0.6658(8) 0.3925(5)
H3_3 H 0.019055 0.686747 0.386751
C6_3 C 0.1115(16) 0.6278(7) 0.4288(5)
H4_3 H 0.028589 0.622674 0.446514
C7_3 C 0.7374(18) 0.4851(7) 0.4435(4)
C8_3 C 0.7003(16) 0.5157(7) 0.4026(5)
C9_3 C 0.7594(17) 0.5697(8) 0.3921(5)
H5_3 H 0.829379 0.587406 0.410435
C10_3 C 0.7163(19) 0.5982(8) 0.3545(5)
H6_3 H 0.757914 0.635535 0.347736
C11_3 C 0.5631(19) 0.5218(8) 0.3373(5)
H7_3 H 0.497334 0.503674 0.317739
C12_3 C 0.5979(19) 0.4915(7) 0.3746(5)
H8_3 H 0.552777 0.454781 0.381091
C13_3 C 0.7914(18) 0.5840(7) 0.0872(4)
C14_3 C 0.7349(16) 0.5915(8) 0.1324(4)
C15_3 C 0.7776(18) 0.6383(8) 0.1573(5)
H9_3 H 0.846550 0.665703 0.146583
C16_3 C 0.7203(18) 0.6457(8) 0.1984(5)
H10_3 H 0.748484 0.678983 0.215093
C17_3 C 0.5879(17) 0.5595(7) 0.1914(4)
H11_3 H 0.524827 0.530933 0.203794
C18_3 C 0.6383(16) 0.5509(7) 0.1493(5)
H12_3 H 0.606906 0.518021 0.132656
C19_3 C 0.1991(17) 0.3601(7) 0.5636(5)
C20_3 C 0.2118(17) 0.3230(7) 0.6044(4)
C21_3 C 0.0892(16) 0.3063(8) 0.6285(5)
C22_3 C 0.1072(16) 0.2711(7) 0.6641(4)
H14_3 H 0.023276 0.258465 0.679154
C23_3 C 0.3510(17) 0.2695(7) 0.6556(5)
H15_3 H 0.443310 0.256548 0.665137
C24_3 C 0.3453(16) 0.3039(7) 0.6184(5)
H16_3 H 0.430902 0.314012 0.603132
C25_3 C 0.2221(17) 0.4059(7) 0.4416(5)
C26_3 C 0.1687(15) 0.3886(7) 0.3966(4)
C27_3 C 0.0279(17) 0.4005(7) 0.3857(5)
C29_3 C 0.2014(19) 0.3535(9) 0.3249(5)
H19_3 H 0.263316 0.335872 0.304050
C30_3 C 0.2570(17) 0.3648(8) 0.3653(5)
H20_3 H 0.355400 0.356262 0.371589
C31_3 C 0.2176(17) 0.5076(7) 0.5933(4)
C32_3 C 0.2839(16) 0.5344(7) 0.6324(5)
C33_3 C 0.4265(16) 0.5243(8) 0.6436(5)
H21_3 H 0.483658 0.497847 0.626969
C34_3 C 0.4859(16) 0.5522(7) 0.6788(4)
H22_3 H 0.584199 0.544115 0.685578
C35_3 C 0.2733(18) 0.5990(8) 0.6945(5)
H23_3 H 0.218819 0.625656 0.711726
C36_3 C 0.2060(18) 0.5709(7) 0.6606(5)
H24_3 H 0.105118 0.576358 0.656334
C37_3 C 0.7012(16) 0.5532(6) 0.5500(4)
C38_3 C 0.6979(16) 0.6022(7) 0.5831(4)
C39_3 C 0.8207(16) 0.6124(7) 0.6071(5)
H25_3 H 0.905338 0.589374 0.602753
C40_3 C 0.8183(18) 0.6569(8) 0.6378(5)
H26_3 H 0.903194 0.664300 0.654197
C41_3 C 0.5789(17) 0.6785(8) 0.6223(5)
H27_3 H 0.495264 0.701790 0.627782
C42_3 C 0.5726(16) 0.6351(7) 0.5921(5)
H28_3 H 0.484809 0.627023 0.577237
C43_3 C 0.6828(15) 0.3273(6) 0.4787(5)
C44_3 C 0.6802(19) 0.3358(8) 0.4297(5)
H29_3 H 0.759851 0.361954 0.421112
H30_3 H 0.587945 0.353665 0.421156
H31_3 H 0.691280 0.297371 0.415461
C45_3 C 0.9247(17) 0.2803(8) 0.4717(6)
H33_3 H 0.919075 0.294487 0.441819
H34_3 H 0.932953 0.237061 0.471786
C46_3 C 0.7970(18) 0.2821(8) 0.5412(5)
H35_3 H 0.797959 0.238865 0.543945
H36_3 H 0.711857 0.298053 0.556010
H37_3 H 0.884845 0.298495 0.554219
C47_3 C 0.200(2) 0.6010(9) 0.2130(6)
H38_3 H 0.174638 0.571293 0.191208
H39_3 H 0.288613 0.621515 0.204263
H40_3 H 0.120926 0.629764 0.215576
C48_3 C 0.2237(17) 0.5709(6) 0.2561(5)
C49_3 C 0.127(2) 0.5276(10) 0.3202(7)
H41_3 H 0.159198 0.486390 0.317078
H42_3 H 0.036084 0.528740 0.336183
H43_3 H 0.201122 0.550098 0.335892
Gd5_2 Gd 0.50581(8) 0.52903(3) 0.02137(2)
Cu6_2 Cu 0.2559(2) 0.21618(9) 0.73915(6)
O18_2 O 0.5747(10) 0.4097(5) 0.5817(3)
O19_2 O 0.7954(12) 0.4285(5) 0.5573(3)
N10_2 N 0.2640(13) 0.7465(5) 0.1788(4)
I2_3 I 0.98434(11) 0.74494(4) 0.26996(3)
H13_3 H 0.995468 0.319252 0.620250
H17_3 H 0.963534 0.415906 0.406802
C28_3 C 0.9796(18) 0.3902(7) 0.3447(4)
H18_3 H 0.882574 0.400238 0.337685
C50_3 C 0.9581(18) 0.5597(9) 0.2623(7)
H44_3 H 0.906122 0.587813 0.280791
H45_3 H 0.909602 0.521173 0.263294
H46_3 H 0.958894 0.574430 0.232567
O7_2 O 0.4221(10) 0.6154(5) 0.0576(3)
O8_4 O 0.1927(10) 0.6354(4) 0.0402(3)
O11_2 O 0.4161(11) 0.4859(5) 0.0878(3)
O12_4 O 0.2036(11) 0.5199(5) 0.0671(3)
C19_4 C 0.3009(17) 0.6399(7) 0.0636(5)
C20_4 C 0.2882(17) 0.6770(7) 0.1044(4)
C21_4 C 0.4108(16) 0.6937(8) 0.1285(5)
H13_4 H 0.504532 0.680748 0.120250
C22_4 C 0.3928(16) 0.7289(7) 0.1641(4)
H14_4 H 0.476724 0.741535 0.179154
C23_4 C 0.1490(17) 0.7305(7) 0.1556(5)
H15_4 H 0.056690 0.743452 0.165137
C24_4 C 0.1547(16) 0.6961(7) 0.1184(5)
H16_4 H 0.069098 0.685988 0.103132
C31_4 C 0.2824(17) 0.4924(7) 0.0933(4)
C32_4 C 0.2161(16) 0.4656(7) 0.1324(5)
C33_4 C 0.0735(16) 0.4757(8) 0.1436(5)
H21_4 H 0.016342 0.502153 0.126969
C34_4 C 0.0141(16) 0.4478(7) 0.1788(4)
C35_4 C 0.2267(18) 0.4010(8) 0.1945(5)
H23_4 H 0.281181 0.374344 0.211726
C36_4 C 0.2940(18) 0.4291(7) 0.1606(5)
H24_4 H 0.394882 0.423642 0.156334
H27_4 H 0.004736 0.298210 0.127782
H28_4 H 0.015191 0.372977 0.077237
I1_4 I 0.02298(11) 0.26963(4) 0.78142(3)
I2_4 I 0.51566(11) 0.25506(4) 0.76996(3)
I3_4 I 0.20643(11) 0.10318(5) 0.74570(3)
O1_4 O 0.1440(10) 0.4765(5) 0.9780(3)
O2_2 O 0.3694(11) 0.4510(5) 0.9972(3)
O9_2 O 0.3683(11) 0.5769(5) 0.9687(3)
O10_4 O 0.1431(11) 0.5978(5) 0.9481(3)
O16_4 O 0.1536(13) 0.4364(6) 0.7703(4)
N1_4 N 0.2816(15) 0.3268(6) 0.8659(4)
N9_4 N 0.3934(16) 0.4466(7) 0.7777(5)
C1_4 C 0.2577(15) 0.4462(7) 0.9745(4)
C2_4 C 0.2615(17) 0.4018(7) 0.9383(5)
C3_4 C 0.1444(19) 0.3932(8) 0.9119(6)
H1_4 H 0.055665 0.412926 0.917571
C4_4 C 0.1572(19) 0.3544(8) 0.8761(6)
H2_4 H 0.074530 0.347714 0.858507
C5_4 C 0.3940(17) 0.3342(8) 0.8925(5)
H3_4 H 0.480945 0.313253 0.886751
C6_4 C 0.3885(16) 0.3722(7) 0.9288(5)
H4_4 H 0.471411 0.377326 0.946514
H7_4 H 0.002666 0.496326 0.817739
C25_4 C 0.2779(17) 0.5941(7) 0.9416(5)
C26_4 C 0.3313(15) 0.6114(7) 0.8966(4)
C27_4 C 0.4721(17) 0.5995(7) 0.8857(5)
H17_4 H 0.536466 0.584094 0.906802
C28_4 C 0.5204(18) 0.6098(7) 0.8447(4)
H18_4 H 0.617426 0.599762 0.837685
C29_4 C 0.2986(19) 0.6465(9) 0.8249(5)
H19_4 H 0.236684 0.664128 0.804050
C30_4 C 0.2430(17) 0.6352(8) 0.8653(5)
H20_4 H 0.144600 0.643738 0.871589
C47_4 C 0.300(2) 0.3990(9) 0.7130(6)
H38_4 H 0.325362 0.428707 0.691208
H39_4 H 0.211387 0.378485 0.704263
H40_4 H 0.379074 0.370236 0.715576
C48_4 C 0.2763(17) 0.4291(6) 0.7561(5)
C49_4 C 0.373(2) 0.4724(10) 0.8202(7)
H41_4 H 0.340802 0.513610 0.817078
H42_4 H 0.463916 0.471260 0.836183
H43_4 H 0.298878 0.449902 0.835892
C50_4 C 0.5419(18) 0.4403(9) 0.7623(7)
H44_4 H 0.593878 0.412187 0.780791
H45_4 H 0.590398 0.478827 0.763294
H46_4 H 0.541106 0.425570 0.732567
O13_4 O 0.9168(11) 0.4727(5) 0.0416(3)
O14_4 O 0.6779(11) 0.4545(5) 0.0327(3)
O15_4 O 0.9197(12) 0.6545(5) 0.0017(3)
H22_4 H 0.915801 0.455885 0.185578
C37_4 C 0.7988(16) 0.4468(6) 0.0500(4)
C38_4 C 0.8021(16) 0.3978(7) 0.0831(4)
C39_4 C 0.6793(16) 0.3876(7) 0.1071(5)
H25_4 H 0.594662 0.410626 0.102753
C40_4 C 0.6817(18) 0.3431(8) 0.1378(5)
H26_4 H 0.596806 0.335700 0.154197
C41_4 C 0.9211(17) 0.3215(8) 0.1223(5)
C42_4 C 0.9274(16) 0.3649(7) 0.0921(5)
C46_4 C 0.7030(18) 0.7179(8) 0.0412(5)
H35_4 H 0.702041 0.761135 0.043945
H36_4 H 0.788143 0.701947 0.056010
H37_4 H 0.615155 0.701505 0.054219
Cu1_4 Cu 0.9561(2) 0.38353(9) 0.77437(6)
O3_4 O 0.8627(11) 0.5408(5) 0.9638(3)
O4_4 O 0.6303(11) 0.5149(5) 0.9551(3)
N2_4 N 0.8839(14) 0.4254(6) 0.8270(4)
N3_4 N 0.8734(14) 0.3929(7) 0.7148(4)
N8_4 N 0.7086(15) 0.7017(7) 0.9955(5)
C7_4 C 0.7626(18) 0.5149(7) 0.9435(4)
C8_4 C 0.7997(16) 0.4843(7) 0.9026(5)
C9_4 C 0.7406(17) 0.4303(8) 0.8921(5)
H5_4 H 0.670621 0.412594 0.910435
C10_4 C 0.7837(19) 0.4018(8) 0.8545(5)
H6_4 H 0.742086 0.364465 0.847736
C11_4 C 0.9369(19) 0.4782(8) 0.8373(5)
C12_4 C 0.9021(19) 0.5085(7) 0.8746(5)
H8_4 H 0.947223 0.545219 0.881091
C13_4 C 0.7086(18) 0.4160(7) 0.5872(4)
C14_4 C 0.7651(16) 0.4085(8) 0.6324(4)
C15_4 C 0.7224(18) 0.3617(8) 0.6573(5)
H9_4 H 0.653450 0.334297 0.646583
C16_4 C 0.7797(18) 0.3543(8) 0.6984(5)
H10_4 H 0.751516 0.321017 0.715093
C17_4 C 0.9121(17) 0.4405(7) 0.6914(4)
H11_4 H 0.975173 0.469067 0.703794
C18_4 C 0.8617(16) 0.4491(7) 0.6493(5)
H12_4 H 0.893094 0.481979 0.632656
C43_4 C 0.8172(15) 0.6727(6) 0.9787(5)
C44_4 C 0.8198(19) 0.6642(8) 0.9297(5)
H29_4 H 0.740149 0.638046 0.921112
H30_4 H 0.912055 0.646335 0.921156
H31_4 H 0.808720 0.702629 0.915461
C45_4 C 0.5753(17) 0.7197(8) 0.9717(6)
H32_4 H 0.490349 0.702401 0.985784
H33_4 H 0.580925 0.705513 0.941819
H34_4 H 0.567047 0.762939 0.971786
loop_
_geom_bond_atom_site_label_1
_geom_bond_atom_site_label_2
_geom_bond_site_symmetry_1
_geom_bond_site_symmetry_2
Gd2 O4 1_555 1_555
O4 C7 1_555 1_555
N8 C43 1_555 1_555
C7 O3 1_555 1_555
H8 C12 1_555 1_555
C43 O15 1_555 1_555
C44 C43 1_555 1_555
H29 C44 1_555 1_555
H30 C44 1_555 1_555
H31 C44 1_555 1_555
C45 N8 1_555 1_555
H32 C45 1_555 1_555
H33 C45 1_555 1_555
H34 C45 1_555 1_555
C46 N8 1_555 1_555
H35 C46 1_555 1_555
H36 C46 1_555 1_555
H37 C46 1_555 1_555
O19 Gd2 1_555 1_555
O20 Gd2 1_555 1_555
O21 Gd2 1_555 1_555
O5 C13 1_555 1_555
O6 C13 1_555 1_555
N2 Cu1 1_555 1_555
N3 Cu1 1_555 1_555
N7 C40 1_555 1_555
C9 C8 1_555 1_555
H5 C9 1_555 1_555
C10 N2 1_555 1_555
H6 C10 1_555 1_555
C11 N2 1_555 1_555
C13 C14 1_555 1_555
C14 C15 1_555 1_555
C15 H9 1_555 1_555
C16 N3 1_555 1_555
H10 C16 1_555 1_555
C17 N3 1_555 1_555
H11 C17 1_555 1_555
C18 C14 1_555 1_555
H12 C18 1_555 1_555
C37 O13 1_555 1_555
C38 C37 1_555 1_555
C39 C38 1_555 1_555
H25 C39 1_555 1_555
C40 C39 1_555 1_555
H26 C40 1_555 1_555
C41 N7 1_555 1_555
C42 C38 1_555 1_555
Gd3 O5 1_555 1_555
Gd5 O6 1_555 1_555
Cu5 N7 1_555 1_555
O14 C37 1_555 1_555
C9 C10 1_555 1_555
C15 C16 1_555 1_555
C17 C18 1_555 1_555
C41 C42 1_555 1_555
O20 C19 1_555 1_555
O8 Gd1 1_555 1_555
O21 C25 1_555 1_555
O10 Gd1 1_555 1_555
O12 Gd1 1_555 1_555
N4 C22 1_555 1_555
N5 C28 1_555 1_555
C19 O8 1_555 1_555
C20 C19 1_555 1_555
C21 C20 1_555 1_555
H13 C21 1_555 1_555
C22 C21 1_555 1_555
H14 C22 1_555 1_555
C23 N4 1_555 1_555
H15 C23 1_555 1_555
C24 C20 1_555 1_555
H16 C24 1_555 1_555
C25 O10 1_555 1_555
C26 C25 1_555 1_555
C27 C26 1_555 1_555
H17 C27 1_555 1_555
C28 C27 1_555 1_555
H18 C28 1_555 1_555
C29 N5 1_555 1_555
H19 C29 1_555 1_555
C30 C26 1_555 1_555
H20 C30 1_555 1_555
Cu6 N4 1_555 1_555
Cu8 N5 1_555 1_555
C23 C24 1_555 1_555
C29 C30 1_555 1_555
I2 Cu2 1_555 1_555
I3 Cu3 1_555 1_555
Cu2 I1 1_555 1_555
Cu3 I1 1_555 1_555
Cu4 I2 1_555 1_555
O1 C1 1_555 1_555
O17 C1 1_555 1_555
O22 C31 1_555 1_555
O16 C48 1_555 1_555
N1 Cu2 1_555 1_555
N6 C34 1_555 1_555
N9 C48 1_555 1_555
C1 C2 1_555 1_555
C2 C3 1_555 1_555
C3 H1 1_555 1_555
C4 N1 1_555 1_555
H2 C4 1_555 1_555
C5 N1 1_555 1_555
H3 C5 1_555 1_555
C6 C2 1_555 1_555
H4 C6 1_555 1_555
C32 C31 1_555 1_555
C33 C32 1_555 1_555
C34 C33 1_555 1_555
C35 N6 1_555 1_555
H23 C35 1_555 1_555
C36 C32 1_555 1_555
H24 C36 1_555 1_555
C47 H38 1_555 1_555
H39 C47 1_555 1_555
H40 C47 1_555 1_555
C48 C47 1_555 1_555
C49 N9 1_555 1_555
H42 C49 1_555 1_555
H43 C49 1_555 1_555
C50 N9 1_555 1_555
H44 C50 1_555 1_555
H45 C50 1_555 1_555
H46 C50 1_555 1_555
N10 Cu3 1_555 1_555
N11 Cu4 1_555 1_555
N12 Cu4 1_555 1_555
N13 Cu2 1_555 1_555
I2 Cu3 1_555 1_555
I3 Cu4 1_555 1_555
C3 C4 1_555 1_555
C5 C6 1_555 1_555
C35 C36 1_555 1_555
H44_2 C50_2 1_555 1_555
H45_2 C50_2 1_555 1_555
H46_2 C50_2 1_555 1_555
H18_2 C28_2 1_555 1_555
I1_2 Cu1_2 1_555 1_555
I3_2 Cu6 1_555 1_555
Cu1_2 O16_2 1_555 1_555
Cu2_2 I1_2 1_555 1_555
Cu6 I1_2 1_555 1_555
O1_2 C1_2 1_555 1_555
O2 C1_2 1_555 1_555
O18 C13_2 1_555 1_555
O19 C13_2 1_555 1_555
O16_2 C48_2 1_555 1_555
N1_2 Cu2_2 1_555 1_555
N2_2 Cu1_2 1_555 1_555
N3_2 Cu1_2 1_555 1_555
N9_2 C48_2 1_555 1_555
C1_2 C2_2 1_555 1_555
C2_2 C3_2 1_555 1_555
C3_2 H1_2 1_555 1_555
C4_2 N1_2 1_555 1_555
H2_2 C4_2 1_555 1_555
C5_2 N1_2 1_555 1_555
H3_2 C5_2 1_555 1_555
C6_2 C2_2 1_555 1_555
H4_2 C6_2 1_555 1_555
C9_2 C8_2 1_555 1_555
H5_2 C9_2 1_555 1_555
C10_2 N2_2 1_555 1_555
H6_2 C10_2 1_555 1_555
C11_2 N2_2 1_555 1_555
H7_2 C11_2 1_555 1_555
C13_2 C14_2 1_555 1_555
C14_2 C15_2 1_555 1_555
C15_2 H9_2 1_555 1_555
C16_2 N3_2 1_555 1_555
H10_2 C16_2 1_555 1_555
C17_2 N3_2 1_555 1_555
H11_2 C17_2 1_555 1_555
C18_2 C14_2 1_555 1_555
H12_2 C18_2 1_555 1_555
C47_2 H38_2 1_555 1_555
H39_2 C47_2 1_555 1_555
H40_2 C47_2 1_555 1_555
C48_2 C47_2 1_555 1_555
C49_2 N9_2 1_555 1_555
H42_2 C49_2 1_555 1_555
H43_2 C49_2 1_555 1_555
N13_2 Cu2_2 1_555 1_555
I3_2 Cu4_2 1_555 1_555
C3_2 C4_2 1_555 1_555
C5_2 C6_2 1_555 1_555
C9_2 C10_2 1_555 1_555
C15_2 C16_2 1_555 1_555
C17_2 C18_2 1_555 1_555
O11 C31_2 1_555 1_555
N6_2 C34_2 1_555 1_555
N7_2 C40_2 1_555 1_555
C32_2 C31_2 1_555 1_555
C33_2 C32_2 1_555 1_555
C34_2 C33_2 1_555 1_555
H22_2 C34_2 1_555 1_555
C35_2 N6_2 1_555 1_555
H23_2 C35_2 1_555 1_555
C36_2 C32_2 1_555 1_555
H24_2 C36_2 1_555 1_555
C37_2 O13_2 1_555 1_555
C38_2 C37_2 1_555 1_555
C39_2 C38_2 1_555 1_555
H25_2 C39_2 1_555 1_555
C40_2 C39_2 1_555 1_555
H26_2 C40_2 1_555 1_555
C41_2 N7_2 1_555 1_555
H27_2 C41_2 1_555 1_555
C42_2 C38_2 1_555 1_555
H28_2 C42_2 1_555 1_555
Cu5_2 N7_2 1_555 1_555
Cu8 N6_2 1_555 1_555
O14_2 C37_2 1_555 1_555
C35_2 C36_2 1_555 1_555
C41_2 C42_2 1_555 1_555
O4_2 C7_2 1_555 1_555
O9 C25_2 1_555 1_555
N8_2 C43_2 1_555 1_555
C7_2 O3_2 1_555 1_555
H8_2 C12_2 1_555 1_555
C25_2 O10_2 1_555 1_555
C26_2 C25_2 1_555 1_555
C27_2 C26_2 1_555 1_555
C29_2 N5_2 1_555 1_555
H19_2 C29_2 1_555 1_555
C30_2 C26_2 1_555 1_555
H20_2 C30_2 1_555 1_555
C44_2 C43_2 1_555 1_555
H29_2 C44_2 1_555 1_555
H30_2 C44_2 1_555 1_555
H31_2 C44_2 1_555 1_555
C45_2 N8_2 1_555 1_555
H33_2 C45_2 1_555 1_555
H34_2 C45_2 1_555 1_555
C29_2 C30_2 1_555 1_555
O7 C19_2 1_555 1_555
O8_2 Gd3 1_555 1_555
O12_2 Gd3 1_555 1_555
O15_2 Gd3 1_555 1_555
N10 C22_2 1_555 1_555
C19_2 O8_2 1_555 1_555
C20_2 C19_2 1_555 1_555
C21_2 C20_2 1_555 1_555
C22_2 C21_2 1_555 1_555
H14_2 C22_2 1_555 1_555
C23_2 N10 1_555 1_555
H15_2 C23_2 1_555 1_555
C24_2 C20_2 1_555 1_555
H16_2 C24_2 1_555 1_555
H35_2 C46_2 1_555 1_555
H36_2 C46_2 1_555 1_555
H37_2 C46_2 1_555 1_555
C23_2 C24_2 1_555 1_555
Gd1_2 O1_3 1_555 1_555
Gd2_2 O4_3 1_555 1_555
I1_3 Cu1_3 1_555 1_555
I3_3 Cu3_2 1_555 1_555
Cu1_3 O16_3 1_555 1_555
Cu5 I1_3 1_555 1_555
Cu3_2 I1_3 1_555 1_555
O1_3 C1_3 1_555 1_555
O17_2 C1_3 1_555 1_555
O3_3 Gd1_2 1_555 1_555
O4_3 C7_3 1_555 1_555
O5_2 C13_3 1_555 1_555
O6_2 C13_3 1_555 1_555
O20_2 C19_3 1_555 1_555
O8_3 Gd1_2 1_555 1_555
O21_2 C25_3 1_555 1_555
O10_3 Gd1_2 1_555 1_555
O22_2 C31_3 1_555 1_555
O12_3 Gd1_2 1_555 1_555
O13_3 Gd1_2 1_555 1_555
O14_3 Gd2_2 1_555 1_555
O15_3 Gd1_2 1_555 1_555
O16_3 C48_3 1_555 1_555
N1_3 Cu5 1_555 1_555
N2_3 Cu1_3 1_555 1_555
N3_3 Cu1_3 1_555 1_555
N4_2 C22_3 1_555 1_555
N12 C34_3 1_555 1_555
N13 C40_3 1_555 1_555
N8_3 C43_3 1_555 1_555
N9_3 C48_3 1_555 1_555
C1_3 C2_3 1_555 1_555
C2_3 C3_3 1_555 1_555
C3_3 H1_3 1_555 1_555
C4_3 N1_3 1_555 1_555
H2_3 C4_3 1_555 1_555
C5_3 N1_3 1_555 1_555
H3_3 C5_3 1_555 1_555
C6_3 C2_3 1_555 1_555
H4_3 C6_3 1_555 1_555
C7_3 O3_3 1_555 1_555
C8_3 C7_3 1_555 1_555
C9_3 C8_3 1_555 1_555
H5_3 C9_3 1_555 1_555
C10_3 N2_3 1_555 1_555
H6_3 C10_3 1_555 1_555
C11_3 N2_3 1_555 1_555
H7_3 C11_3 1_555 1_555
C12_3 C8_3 1_555 1_555
H8_3 C12_3 1_555 1_555
C13_3 C14_3 1_555 1_555
C14_3 C15_3 1_555 1_555
C15_3 H9_3 1_555 1_555
C16_3 N3_3 1_555 1_555
H10_3 C16_3 1_555 1_555
C17_3 N3_3 1_555 1_555
H11_3 C17_3 1_555 1_555
C18_3 C14_3 1_555 1_555
H12_3 C18_3 1_555 1_555
C19_3 O8_3 1_555 1_555
C20_3 C19_3 1_555 1_555
C21_3 C20_3 1_555 1_555
C22_3 C21_3 1_555 1_555
H14_3 C22_3 1_555 1_555
C23_3 N4_2 1_555 1_555
H15_3 C23_3 1_555 1_555
C24_3 C20_3 1_555 1_555
H16_3 C24_3 1_555 1_555
C25_3 O10_3 1_555 1_555
C26_3 C25_3 1_555 1_555
C27_3 C26_3 1_555 1_555
C29_3 N11_2 1_555 1_555
H19_3 C29_3 1_555 1_555
C30_3 C26_3 1_555 1_555
H20_3 C30_3 1_555 1_555
C31_3 O12_3 1_555 1_555
C32_3 C31_3 1_555 1_555
C33_3 C32_3 1_555 1_555
H21_3 C33_3 1_555 1_555
C34_3 C33_3 1_555 1_555
H22_3 C34_3 1_555 1_555
C35_3 N12 1_555 1_555
H23_3 C35_3 1_555 1_555
C36_3 C32_3 1_555 1_555
H24_3 C36_3 1_555 1_555
C37_3 O13_3 1_555 1_555
C38_3 C37_3 1_555 1_555
C39_3 C38_3 1_555 1_555
H25_3 C39_3 1_555 1_555
C40_3 C39_3 1_555 1_555
H26_3 C40_3 1_555 1_555
C41_3 N13 1_555 1_555
H27_3 C41_3 1_555 1_555
C42_3 C38_3 1_555 1_555
H28_3 C42_3 1_555 1_555
C43_3 O15_3 1_555 1_555
C44_3 C43_3 1_555 1_555
H29_3 C44_3 1_555 1_555
H30_3 C44_3 1_555 1_555
H31_3 C44_3 1_555 1_555
C45_3 N8_3 1_555 1_555
H33_3 C45_3 1_555 1_555
H34_3 C45_3 1_555 1_555
C46_3 N8_3 1_555 1_555
H35_3 C46_3 1_555 1_555
H36_3 C46_3 1_555 1_555
H37_3 C46_3 1_555 1_555
C47_3 H38_3 1_555 1_555
H39_3 C47_3 1_555 1_555
H40_3 C47_3 1_555 1_555
C48_3 C47_3 1_555 1_555
C49_3 N9_3 1_555 1_555
H41_3 C49_3 1_555 1_555
H42_3 C49_3 1_555 1_555
H43_3 C49_3 1_555 1_555
Gd5_2 O6_2 1_555 1_555
Cu6_2 N4_2 1_555 1_555
O18_2 Gd1_2 1_555 1_555
O19_2 Gd2_2 1_555 1_555
N10_2 Cu3_2 1_555 1_555
I3_3 Cu7 1_555 1_555
O14_3 C37_3 1_555 1_555
C3_3 C4_3 1_555 1_555
C5_3 C6_3 1_555 1_555
C9_3 C10_3 1_555 1_555
C11_3 C12_3 1_555 1_555
C15_3 C16_3 1_555 1_555
C17_3 C18_3 1_555 1_555
C23_3 C24_3 1_555 1_555
C29_3 C30_3 1_555 1_555
C35_3 C36_3 1_555 1_555
C41_3 C42_3 1_555 1_555
H18_3 C28_3 1_555 1_555
H44_3 C50_3 1_555 1_555
H45_3 C50_3 1_555 1_555
H46_3 C50_3 1_555 1_555
O7_2 C19_4 1_555 1_555
O8_4 Gd3_2 1_555 1_555
O11_2 C31_4 1_555 1_555
O12_4 Gd3_2 1_555 1_555
N10_2 C22_4 1_555 1_555
N12_2 C34_4 1_555 1_555
C19_4 O8_4 1_555 1_555
C20_4 C19_4 1_555 1_555
C21_4 C20_4 1_555 1_555
H13_4 C21_4 1_555 1_555
C22_4 C21_4 1_555 1_555
H14_4 C22_4 1_555 1_555
C23_4 N10_2 1_555 1_555
H15_4 C23_4 1_555 1_555
C24_4 C20_4 1_555 1_555
H16_4 C24_4 1_555 1_555
C31_4 O12_4 1_555 1_555
C32_4 C31_4 1_555 1_555
C33_4 C32_4 1_555 1_555
H21_4 C33_4 1_555 1_555
C34_4 C33_4 1_555 1_555
C35_4 N12_2 1_555 1_555
H23_4 C35_4 1_555 1_555
C36_4 C32_4 1_555 1_555
H24_4 C36_4 1_555 1_555
O7_2 Gd5_2 1_555 1_555
O11_2 Gd5_2 1_555 1_555
C23_4 C24_4 1_555 1_555
C35_4 C36_4 1_555 1_555
I2_4 Cu5_2 1_555 1_555
I3_4 Cu6_2 1_555 1_555
Cu5_2 I1_4 1_555 1_555
Cu6_2 I1_4 1_555 1_555
Cu8 I2_4 1_555 1_555
O1_4 C1_4 1_555 1_555
O2_2 C1_4 1_555 1_555
O9_2 C25_4 1_555 1_555
O16_4 C48_4 1_555 1_555
N1_4 Cu5_2 1_555 1_555
N11 C28_4 1_555 1_555
N9_4 C48_4 1_555 1_555
C1_4 C2_4 1_555 1_555
C2_4 C3_4 1_555 1_555
C3_4 H1_4 1_555 1_555
C4_4 N1_4 1_555 1_555
H2_4 C4_4 1_555 1_555
C5_4 N1_4 1_555 1_555
H3_4 C5_4 1_555 1_555
C6_4 C2_4 1_555 1_555
H4_4 C6_4 1_555 1_555
C25_4 O10_4 1_555 1_555
C26_4 C25_4 1_555 1_555
C27_4 C26_4 1_555 1_555
H17_4 C27_4 1_555 1_555
C28_4 C27_4 1_555 1_555
H18_4 C28_4 1_555 1_555
C29_4 N11 1_555 1_555
H19_4 C29_4 1_555 1_555
C30_4 C26_4 1_555 1_555
H20_4 C30_4 1_555 1_555
C47_4 H38_4 1_555 1_555
H39_4 C47_4 1_555 1_555
H40_4 C47_4 1_555 1_555
C48_4 C47_4 1_555 1_555
C49_4 N9_4 1_555 1_555
H41_4 C49_4 1_555 1_555
H42_4 C49_4 1_555 1_555
H43_4 C49_4 1_555 1_555
C50_4 N9_4 1_555 1_555
H44_4 C50_4 1_555 1_555
H45_4 C50_4 1_555 1_555
H46_4 C50_4 1_555 1_555
I2_4 Cu6_2 1_555 1_555
I3_4 Cu8 1_555 1_555
C3_4 C4_4 1_555 1_555
C5_4 C6_4 1_555 1_555
C29_4 C30_4 1_555 1_555
O14_4 Gd5_2 1_555 1_555
N13_2 C40_4 1_555 1_555
C37_4 O13_4 1_555 1_555
C38_4 C37_4 1_555 1_555
C39_4 C38_4 1_555 1_555
H25_4 C39_4 1_555 1_555
C40_4 C39_4 1_555 1_555
H26_4 C40_4 1_555 1_555
C41_4 N13_2 1_555 1_555
C42_4 C38_4 1_555 1_555
H35_4 C46_4 1_555 1_555
H36_4 C46_4 1_555 1_555
H37_4 C46_4 1_555 1_555
O14_4 C37_4 1_555 1_555
C41_4 C42_4 1_555 1_555
O4_4 C7_4 1_555 1_555
O18_2 C13_4 1_555 1_555
O19_2 C13_4 1_555 1_555
N2_4 Cu1_4 1_555 1_555
N3_4 Cu1_4 1_555 1_555
N8_4 C43_4 1_555 1_555
C7_4 O3_4 1_555 1_555
C8_4 C7_4 1_555 1_555
C9_4 C8_4 1_555 1_555
H5_4 C9_4 1_555 1_555
C10_4 N2_4 1_555 1_555
H6_4 C10_4 1_555 1_555
C11_4 N2_4 1_555 1_555
C12_4 C8_4 1_555 1_555
H8_4 C12_4 1_555 1_555
C13_4 C14_4 1_555 1_555
C14_4 C15_4 1_555 1_555
C15_4 H9_4 1_555 1_555
C16_4 N3_4 1_555 1_555
H10_4 C16_4 1_555 1_555
C17_4 N3_4 1_555 1_555
H11_4 C17_4 1_555 1_555
C18_4 C14_4 1_555 1_555
H12_4 C18_4 1_555 1_555
C44_4 C43_4 1_555 1_555
H29_4 C44_4 1_555 1_555
H30_4 C44_4 1_555 1_555
H31_4 C44_4 1_555 1_555
C45_4 N8_4 1_555 1_555
H32_4 C45_4 1_555 1_555
H33_4 C45_4 1_555 1_555
H34_4 C45_4 1_555 1_555
C9_4 C10_4 1_555 1_555
C11_4 C12_4 1_555 1_555
C15_4 C16_4 1_555 1_555
C17_4 C18_4 1_555 1_555

#END
