
###############################################################################
#
# This file contains modified crystal structure data generated from the
# MOF subset of the Cambridge Structural Database (CSD) v543 
# hosted by the Cambridge Crystallographic Data Centre (CCDC).
#
# This work is licensed under the Creative Commons
# Attribution-NonCommercial-ShareAlike 4.0 International License.
# To view a copy of this license, visit
# http://creativecommons.org/licenses/by-nc-sa/4.0/
# or send a letter to
# Creative Commons, PO Box 1866, Mountain View, CA 94042, USA.
#
# CIF created using the CSD Python API on 29 September 2022
# The structure has been converted into the P1 space group
# The structure has a 3D framework
# The original CSD entry TEBLUK is in the orthorhombic crystal system
# The original CSD entry TEBLUK is in a Sohncke space group
# The framework has been calculated to contain at least 10.0% void space
# The void calculation uses a probe of radius 1.32A, grid spacing 0.4
#
###############################################################################

data_TEBLUK
_chemical_formula_moiety         '(C200 H184 Cu16 I12 N36 O62 Tb7)n'
_symmetry_cell_setting           triclinic
_symmetry_space_group_name_H-M   'P 1'
_symmetry_Int_Tables_number      1
_space_group_name_Hall           'P 1'
loop_
_symmetry_equiv_pos_site_id
_symmetry_equiv_pos_as_xyz
1 x,y,z
_cell_length_a                   9.294(3)
_cell_length_b                   23.233(7)
_cell_length_c                   30.705(9)
_cell_angle_alpha                90
_cell_angle_beta                 90
_cell_angle_gamma                90
_cell_volume                     6630.05
loop_
_atom_site_label
_atom_site_type_symbol
_atom_site_fract_x
_atom_site_fract_y
_atom_site_fract_z
I3 I 0.01306(11) 0.74467(4) 0.27535(3)
H1 H 0.0023 0.3202 0.6218
C10 C 0.2152(16) 0.9011(6) 0.0569(5)
O15 O 0.3499(10) 0.8993(5) 0.0492(3)
N8 N 0.0659(13) 0.8609(5) 0.1868(4)
C22 C 0.1637(14) 0.8840(6) 0.1026(4)
C31 C 0.0244(14) 0.8938(7) 0.1136(4)
C34 C 0.2035(17) 0.8495(8) 0.1748(5)
H20 H 0.2661 0.8345 0.1955
C36 C 0.2553(16) 0.8592(8) 0.1331(5)
H22 H 0.3491 0.8494 0.1257
C49 C 0.039(2) 0.5544(11) 0.2652(8)
H41 H 0.0427 0.5779 0.2395
H42 H 0.0767 0.5169 0.2587
H43 H 0.0962 0.5719 0.2877
O16 O 0.1193(11) 0.9144(5) 0.0303(3)
Tb6 Tb 0.01162(6) 0.46537(2) 0.521663(17)
N12 N 0.0928(14) 0.9063(6) 0.2974(4)
Tb5 Tb 0.45788(6) 0.93932(2) 0.984499(18)
Tb1 Tb 0.54212(6) 0.43932(2) 0.515501(18)
I1 I 0.71056(11) 0.89228(4) 0.24883(4)
I2 I 0.52197(11) 0.73002(4) 0.28565(3)
Cu1 Cu 0.4560(2) 0.61948(9) 0.27746(6)
Cu2 Cu 0.7795(2) 0.73501(8) 0.32359(6)
Cu3 Cu 0.9932(2) 0.85711(8) 0.25081(6)
Cu4 Cu 0.7555(2) 0.78234(9) 0.24275(6)
O1 O 0.4231(10) 0.3474(4) 0.5039(3)
O2 O 0.1777(10) 0.5384(4) 0.5310(4)
O3 O 0.4180(10) 0.5257(4) 0.5399(4)
C2 C 0.9116(15) 0.3078(7) 0.6305(5)
O4 O 0.9239(10) 0.3847(4) 0.5605(3)
O5 O 0.6933(10) 0.3662(4) 0.5436(3)
O6 O 0.6547(15) 0.5636(7) 0.2701(5)
O7 O 0.1390(10) 0.4741(6) 0.4555(3)
C3 C 0.2618(15) 0.5904(6) 0.1341(5)
N1 N 0.7797(14) 0.6688(5) 0.3673(4)
N2 N 0.3829(15) 0.5748(6) 0.3298(4)
O8 O 0.8752(11) 0.5362(5) 0.4932(3)
O9 O 0.0695(9) 0.5858(4) 0.0836(3)
N3 N 0.3705(13) 0.6072(6) 0.2182(4)
C4 C 0.3047(13) 0.5131(6) 0.4038(4)
C5 C 0.7687(15) 0.5880(5) 0.4359(4)
N4 N 0.2940(14) 0.6935(5) 0.6358(4)
C6 C 0.2685(14) 0.4790(6) 0.4442(4)
O11 O 0.6478(10) 0.5171(4) 0.4770(3)
O13 O 0.3712(11) 0.4541(5) 0.4628(3)
O14 O 0.2929(10) 0.5728(5) 0.0585(4)
N5 N 0.7632(13) 0.2556(5) 0.6821(4)
C7 C 0.6564(16) 0.3037(6) 0.6200(5)
H2 H 0.5748 0.3123 0.6037
C8 C 0.3019(14) 0.6020(5) 0.5774(4)
C9 C 0.8029(14) 0.3618(6) 0.5668(4)
C12 C 0.3248(16) 0.3261(6) 0.4815(6)
C13 C 0.7594(15) 0.5438(6) 0.4721(5)
C14 C 0.9785(17) 0.8826(7) 0.1568(5)
H4 H 0.8838 0.8907 0.1644
C15 C 0.6481(14) 0.2698(7) 0.6591(4)
H5 H 0.5583 0.2573 0.6686
N7 N 0.2172(16) 0.2947(6) 0.4993(6)
C16 C 0.4061(18) 0.5617(8) 0.1943(6)
H6 H 0.4656 0.5341 0.2070
C17 C 0.2745(17) 0.6459(8) 0.2009(6)
H7 H 0.2481 0.6783 0.2168
C18 C 0.2999(18) 0.5981(8) 0.3601(6)
H8 H 0.2674 0.6356 0.3564
C19 C 0.8956(17) 0.6149(8) 0.4248(7)
H9 H 0.9792 0.6067 0.4402
C20 C 0.6422(17) 0.6055(8) 0.4143(6)
H10 H 0.5534 0.5904 0.4223
C21 C 0.1776(15) 0.6124(7) 0.6023(6)
H11 H 0.0966 0.5892 0.5995
C24 C 0.2607(18) 0.5686(8) 0.3967(6)
H13 H 0.2027 0.5866 0.4173
C25 C 0.6519(17) 0.6458(8) 0.3808(6)
H14 H 0.5678 0.6576 0.3670
C28 C 0.2170(18) 0.6370(8) 0.1599(5)
H17 H 0.1476 0.6622 0.1493
C29 C 0.7911(15) 0.3231(6) 0.6077(5)
C30 C 0.4188(18) 0.6376(7) 0.5830(6)
H18 H 0.5026 0.6324 0.5669
H19 H 0.9597 0.9077 0.0931
C32 C 0.2015(14) 0.5829(6) 0.0877(5)
C35 C 0.4077(17) 0.6817(8) 0.6135(6)
H21 H 0.4886 0.7044 0.6182
N9 N 0.8865(18) 0.5491(8) 0.2803(10)
C37 C 0.785(3) 0.5701(11) 0.2571(8)
C38 C 0.088(2) 0.2754(9) 0.4762(10)
H23 H 0.0878 0.2914 0.4474
H24 H 0.0043 0.2879 0.4916
H25 H 0.0887 0.2341 0.4744
C39 C 0.808(2) 0.6065(11) 0.2159(8)
H26 H 0.7175 0.6120 0.2014
H27 H 0.8733 0.5870 0.1966
H28 H 0.8476 0.6432 0.2237
C40 C 0.1791(16) 0.6583(7) 0.6309(5)
H29 H 0.0975 0.6652 0.6476
C41 C 0.8938(16) 0.2725(7) 0.6678(5)
H30 H 0.9752 0.2606 0.6829
C42 C 0.422(3) 0.5205(8) 0.3361(7)
H31 H 0.4759 0.5029 0.3142
C43 C 0.227(2) 0.2821(8) 0.5472(6)
H32 H 0.3233 0.2889 0.5571
H33 H 0.2017 0.2426 0.5523
H34 H 0.1616 0.3066 0.5627
C44 C 0.900(2) 0.6541(8) 0.3909(7)
H35 H 0.9870 0.6711 0.3838
C45 C 0.3608(18) 0.5525(8) 0.1523(5)
H36 H 0.3957 0.5215 0.1363
C46 C 0.2985(15) 0.5510(6) 0.5469(4)
C47 C 0.390(3) 0.4879(7) 0.3727(7)
H37 H 0.4250 0.4506 0.3760
C48 C 0.326(2) 0.3336(9) 0.4321(6)
H38 H 0.4040 0.3582 0.4239
H39 H 0.2364 0.3506 0.4229
H40 H 0.3368 0.2967 0.4184
C50 C 0.851(3) 0.5155(11) 0.3203(9)
H44 H 0.7566 0.5264 0.3304
H45 H 0.9203 0.5235 0.3425
H46 H 0.8515 0.4752 0.3136
Tb7 Tb 0.48838(6) 0.53463(2) 0.021663(17)
Cu5 Cu 0.2795(2) 0.76499(8) 0.67641(6)
Cu7 Cu 0.7445(2) 0.21766(9) 0.74275(6)
O19 O 0.4305(9) 0.4142(4) 0.5836(3)
N10 N 0.7940(14) 0.8065(5) 0.3642(4)
O20 O 0.7039(10) 0.4815(4) 0.5663(3)
O21 O 0.2071(10) 0.4272(5) 0.5585(4)
N11 N 0.7368(13) 0.7444(5) 0.1821(4)
O22 O 0.6501(10) 0.3993(5) 0.4508(3)
Tb8 Tb 0.98838(6) 0.96537(2) 0.978337(17)
C1 C 0.7229(14) 0.5361(6) 0.6320(4)
O10 O 0.9204(10) 0.5107(5) 0.5871(3)
C11 C 0.5201(16) 0.5598(7) 0.6765(5)
H3 H 0.4219 0.5562 0.6818
N6 N 0.5928(14) 0.5937(6) 0.7026(4)
C23 C 0.8021(18) 0.5707(9) 0.6597(6)
H12 H 0.9007 0.5746 0.6554
C26 C 0.7385(19) 0.5988(8) 0.6930(6)
H15 H 0.7947 0.6228 0.7102
C27 C 0.5748(14) 0.5291(8) 0.6423(5)
H16 H 0.5168 0.5044 0.6262
C33 C 0.7859(15) 0.5060(6) 0.5922(4)
Tb4 Tb 0.95788(6) 0.56068(2) 0.015501(18)
Cu6 Cu 0.4932(2) 0.64289(8) 0.74919(6)
O23 O 0.8807(11) 0.4144(5) 0.4697(3)
H3_2 H 0.0781 0.4438 0.1818
Cu6_2 Cu 0.0068(2) 0.35711(8) 0.24919(6)
O1_2 O 0.0769(10) 0.6526(4) 0.0039(3)
O2_2 O 0.3223(10) 0.4616(4) 0.0310(4)
O3_2 O 0.0820(10) 0.4743(4) 0.0399(4)
C1_2 C 0.7771(14) 0.4639(6) 0.1320(4)
N4_2 N 0.2060(14) 0.3065(5) 0.1358(4)
O10_2 O 0.5796(10) 0.4893(5) 0.0871(3)
O12 O 0.7961(10) 0.5185(4) 0.0663(3)
C8_2 C 0.1981(14) 0.3980(5) 0.0774(4)
C11_2 C 0.9799(16) 0.4402(7) 0.1765(5)
N6_2 N 0.9072(14) 0.4063(6) 0.2026(4)
C21_2 C 0.3224(15) 0.3876(7) 0.1023(6)
H11_2 H 0.4034 0.4108 0.0995
C23_2 C 0.6979(18) 0.4293(9) 0.1597(6)
H12_2 H 0.5993 0.4254 0.1554
C26_2 C 0.7615(19) 0.4012(8) 0.1930(6)
H15_2 H 0.7053 0.3772 0.2102
C27_2 C 0.9252(14) 0.4709(8) 0.1423(5)
H16_2 H 0.9832 0.4956 0.1262
C30_2 C 0.0812(18) 0.3624(7) 0.0830(6)
C33_2 C 0.7141(15) 0.4940(6) 0.0922(4)
C35_2 C 0.0923(17) 0.3183(8) 0.1135(6)
H21_2 H 0.0114 0.2956 0.1182
C40_2 C 0.3209(16) 0.3417(7) 0.1309(5)
H29_2 H 0.4025 0.3348 0.1476
C43_2 C 0.273(2) 0.7179(8) 0.0472(6)
H32_2 H 0.1767 0.7111 0.0571
H33_2 H 0.2983 0.7574 0.0523
H34_2 H 0.3384 0.6934 0.0627
C46_2 C 0.2015(15) 0.4490(6) 0.0469(4)
Cu5_2 Cu 0.2205(2) 0.23501(8) 0.17641(6)
O17 O 0.5761(10) 0.6153(4) 0.0605(3)
Cu1_2 Cu 0.0440(2) 0.38052(9) 0.77746(6)
O7_2 O 0.3610(10) 0.5259(6) 0.9555(3)
C3_2 C 0.2382(15) 0.4096(6) 0.6341(5)
N2_2 N 0.1171(15) 0.4252(6) 0.8298(4)
N3_2 N 0.1295(13) 0.3928(6) 0.7182(4)
C4_2 C 0.1953(13) 0.4869(6) 0.9038(4)
C6_2 C 0.2315(14) 0.5210(6) 0.9442(4)
O13_2 O 0.1288(11) 0.5459(5) 0.9628(3)
C12_2 C 0.1752(16) 0.6739(6) 0.9815(6)
N7_2 N 0.2828(16) 0.7053(6) 0.9993(6)
C16_2 C 0.0939(18) 0.4383(8) 0.6943(6)
H6_2 H 0.0344 0.4659 0.7070
C17_2 C 0.2255(17) 0.3541(8) 0.7009(6)
H7_2 H 0.2519 0.3217 0.7168
C18_2 C 0.2001(18) 0.4019(8) 0.8601(6)
H8_2 H 0.2326 0.3644 0.8564
C24_2 C 0.2393(18) 0.4314(8) 0.8967(6)
H13_2 H 0.2973 0.4134 0.9173
C28_2 C 0.2830(18) 0.3630(8) 0.6599(5)
H17_2 H 0.3524 0.3378 0.6493
C32_2 C 0.2985(14) 0.4171(6) 0.5877(5)
C38_2 C 0.412(2) 0.7246(9) 0.9762(10)
H23_2 H 0.4122 0.7086 0.9474
H24_2 H 0.4957 0.7121 0.9916
H25_2 H 0.4113 0.7659 0.9744
C42_2 C 0.078(3) 0.4795(8) 0.8361(7)
H31_2 H 0.0241 0.4971 0.8142
C45_2 C 0.1392(18) 0.4475(8) 0.6523(5)
H36_2 H 0.1043 0.4785 0.6363
C47_2 C 0.110(3) 0.5121(7) 0.8727(7)
H37_2 H 0.0750 0.5494 0.8760
C48_2 C 0.174(2) 0.6664(9) 0.9321(6)
H38_2 H 0.0960 0.6418 0.9239
H39_2 H 0.2636 0.6494 0.9229
H40_2 H 0.1632 0.7033 0.9184
O18 O 0.6248(11) 0.4638(5) 0.9932(3)
O23_2 O 0.6193(11) 0.5856(5) 0.9697(3)
C2_2 C 0.5884(15) 0.6922(7) 0.1305(5)
H1_2 H 0.4977 0.6798 0.1218
O5_2 O 0.8067(10) 0.6338(4) 0.0436(3)
C7_2 C 0.8436(16) 0.6963(6) 0.1200(5)
H2_2 H 0.9252 0.6877 0.1037
C9_2 C 0.6971(14) 0.6382(6) 0.0668(4)
C15_2 C 0.8519(14) 0.7302(7) 0.1591(4)
H5_2 H 0.9417 0.7427 0.1686
C29_2 C 0.7089(15) 0.6769(6) 0.1077(5)
H18_2 H 0.9974 0.3676 0.0669
C41_2 C 0.6062(16) 0.7275(7) 0.1678(5)
H30_2 H 0.5248 0.7394 0.1829
I1_2 I 0.78944(11) 0.10772(4) 0.74883(4)
I2_2 I 0.97803(11) 0.26998(4) 0.78565(3)
I3_2 I 0.48694(11) 0.25533(4) 0.77535(3)
Cu2_2 Cu 0.7205(2) 0.26499(8) 0.82359(6)
Cu3_2 Cu 0.5068(2) 0.14289(8) 0.75081(6)
O6_2 O 0.8453(15) 0.4364(7) 0.7701(5)
N1_2 N 0.7203(14) 0.3312(5) 0.8673(4)
C5_2 C 0.7313(15) 0.4120(5) 0.9359(4)
O11_2 O 0.8522(10) 0.4829(4) 0.9770(3)
C10_2 C 0.2848(16) 0.0989(6) 0.5569(5)
C13_2 C 0.7406(15) 0.4562(6) 0.9721(5)
C14_2 C 0.5215(17) 0.1174(7) 0.6568(5)
H4_2 H 0.6162 0.1093 0.6644
O15_2 O 0.1501(10) 0.1007(5) 0.5492(3)
N8_2 N 0.4341(13) 0.1391(5) 0.6868(4)
C19_2 C 0.6044(17) 0.3851(8) 0.9248(7)
H9_2 H 0.5208 0.3933 0.9402
C20_2 C 0.8578(17) 0.3945(8) 0.9143(6)
H10_2 H 0.9466 0.4096 0.9223
C22_2 C 0.3363(14) 0.1160(6) 0.6026(4)
C25_2 C 0.8481(17) 0.3542(8) 0.8808(6)
H14_2 H 0.9322 0.3424 0.8670
C31_2 C 0.4756(14) 0.1062(7) 0.6136(4)
H19_2 H 0.5403 0.0923 0.5931
C34_2 C 0.2965(17) 0.1505(8) 0.6748(5)
H20_2 H 0.2339 0.1655 0.6955
C36_2 C 0.2447(16) 0.1408(8) 0.6331(5)
H22_2 H 0.1509 0.1506 0.6257
N9_2 N 0.6135(18) 0.4509(8) 0.7803(10)
C37_2 C 0.715(3) 0.4299(11) 0.7571(8)
C39_2 C 0.692(2) 0.3935(11) 0.7159(8)
H26_2 H 0.7825 0.3880 0.7014
H27_2 H 0.6267 0.4130 0.6966
H28_2 H 0.6524 0.3568 0.7237
C44_2 C 0.600(2) 0.3459(8) 0.8909(7)
H35_2 H 0.5130 0.3289 0.8838
C49_2 C 0.461(2) 0.4456(11) 0.7652(8)
H41_2 H 0.4573 0.4221 0.7395
H42_2 H 0.4233 0.4831 0.7587
H43_2 H 0.4038 0.4281 0.7877
C50_2 C 0.649(3) 0.4845(11) 0.8203(9)
H44_2 H 0.7434 0.4736 0.8304
H45_2 H 0.5797 0.4765 0.8425
H46_2 H 0.6485 0.5248 0.8136
O16_2 O 0.3807(11) 0.0856(5) 0.5303(3)
Tb5_2 Tb 0.04212(6) 0.06068(2) 0.484499(18)
Tb8_2 Tb 0.51162(6) 0.03463(2) 0.478337(17)
N10_2 N 0.7060(14) 0.1935(5) 0.8642(4)
N12_2 N 0.4072(14) 0.0937(6) 0.7974(4)
O22_2 O 0.8499(10) 0.6007(5) 0.9508(3)
C2_3 C 0.4116(15) 0.1922(7) 0.3695(5)
H1_3 H 0.5023 0.1798 0.3782
O4_2 O 0.4239(10) 0.1153(4) 0.4395(3)
O5_3 O 0.1933(10) 0.1338(4) 0.4564(3)
N5_2 N 0.2632(13) 0.2444(5) 0.3179(4)
C7_3 C 0.1564(16) 0.1963(6) 0.3800(5)
H2_3 H 0.0748 0.1877 0.3963
C9_3 C 0.3029(14) 0.1382(6) 0.4332(4)
C15_3 C 0.1481(14) 0.2302(7) 0.3409(4)
H5_3 H 0.0583 0.2427 0.3314
C29_3 C 0.2911(15) 0.1769(6) 0.3923(5)
C41_3 C 0.3938(16) 0.2275(7) 0.3322(5)
H30_3 H 0.4752 0.2394 0.3171
H46_3 H 0.3515 0.0248 0.6864
Cu7_2 Cu 0.2445(2) 0.28234(9) 0.25725(6)
O20_2 O 0.2039(10) 0.0185(4) 0.4337(3)
I1_3 I 0.21056(11) 0.60772(4) 0.75117(4)
I2_3 I 0.02197(11) 0.76998(4) 0.71435(3)
I3_3 I 0.51306(11) 0.75533(4) 0.72465(3)
Cu4_2 Cu 0.2555(2) 0.71766(9) 0.75725(6)
O6_3 O 0.1547(15) 0.9364(7) 0.7299(5)
N1_3 N 0.2797(14) 0.8312(5) 0.6327(4)
O8_2 O 0.3752(11) 0.9638(5) 0.5068(3)
C5_3 C 0.2687(15) 0.9120(5) 0.5641(4)
O11_3 O 0.1478(10) 0.9829(4) 0.5230(3)
C10_3 C 0.7152(16) 0.5989(6) 0.9431(5)
C13_3 C 0.2594(15) 0.9562(6) 0.5279(5)
C14_3 C 0.4785(17) 0.6174(7) 0.8432(5)
H4_3 H 0.3838 0.6093 0.8356
N8_3 N 0.5659(13) 0.6391(5) 0.8132(4)
C19_3 C 0.3956(17) 0.8851(8) 0.5752(7)
H9_3 H 0.4792 0.8933 0.5598
C20_3 C 0.1422(17) 0.8945(8) 0.5857(6)
H10_3 H 0.0534 0.9096 0.5777
C22_3 C 0.6637(14) 0.6160(6) 0.8974(4)
C25_3 C 0.1519(17) 0.8542(8) 0.6192(6)
H14_3 H 0.0678 0.8424 0.6330
H18_3 H 0.0026 0.8676 0.4331
C31_3 C 0.5244(14) 0.6062(7) 0.8864(4)
H19_3 H 0.4597 0.5923 0.9069
C34_3 C 0.7035(17) 0.6505(8) 0.8252(5)
H20_3 H 0.7661 0.6655 0.8045
C36_3 C 0.7553(16) 0.6408(8) 0.8669(5)
H22_3 H 0.8491 0.6506 0.8743
N9_3 N 0.3865(18) 0.9509(8) 0.7197(10)
C37_3 C 0.285(3) 0.9299(11) 0.7429(8)
C39_3 C 0.308(2) 0.8935(11) 0.7841(8)
H26_3 H 0.2175 0.8880 0.7986
H27_3 H 0.3733 0.9130 0.8034
H28_3 H 0.3476 0.8568 0.7763
C44_3 C 0.400(2) 0.8459(8) 0.6091(7)
H35_3 H 0.4870 0.8289 0.6162
C49_3 C 0.539(2) 0.9456(11) 0.7348(8)
H41_3 H 0.5427 0.9221 0.7605
H42_3 H 0.5767 0.9831 0.7413
H43_3 H 0.5962 0.9281 0.7123
C50_3 C 0.351(3) 0.9845(11) 0.6797(9)
H44_3 H 0.2566 0.9736 0.6696
H45_3 H 0.4203 0.9765 0.6575
N11_2 N 0.2368(13) 0.7556(5) 0.8179(4)
O1_3 O 0.9231(10) 0.1526(4) 0.4961(3)
O7_3 O 0.6390(10) 0.0259(6) 0.5445(3)
C6_3 C 0.7685(14) 0.0210(6) 0.5558(4)
O13_3 O 0.8712(11) 0.0459(5) 0.5372(3)
C12_3 C 0.8248(16) 0.1739(6) 0.5185(6)
N7_3 N 0.7172(16) 0.2053(6) 0.5007(6)
C38_3 C 0.588(2) 0.2246(9) 0.5238(10)
H23_3 H 0.5878 0.2086 0.5526
H24_3 H 0.5043 0.2121 0.5084
H25_3 H 0.5887 0.2659 0.5256
C43_3 C 0.727(2) 0.2179(8) 0.4528(6)
H32_3 H 0.8233 0.2111 0.4429
H33_3 H 0.7017 0.2574 0.4477
H34_3 H 0.6616 0.1934 0.4373
C47_3 C 0.890(3) 0.0121(7) 0.6273(7)
H37_3 H 0.9250 0.0494 0.6240
C48_3 C 0.826(2) 0.1664(9) 0.5679(6)
H38_3 H 0.9040 0.1418 0.5761
H39_3 H 0.7364 0.1494 0.5771
H40_3 H 0.8368 0.2033 0.5816
O19_2 O 0.9305(9) 0.0858(4) 0.4164(3)
O21_2 O 0.7071(10) 0.0728(5) 0.4415(4)
Cu1_3 Cu 0.9560(2) 0.88052(9) 0.72254(6)
O2_3 O 0.6777(10) 0.9616(4) 0.4690(4)
O3_3 O 0.9180(10) 0.9743(4) 0.4601(4)
C1_3 C 0.2229(14) 0.9639(6) 0.3680(4)
C3_3 C 0.7618(15) 0.9096(6) 0.8659(5)
N2_3 N 0.8829(15) 0.9252(6) 0.6702(4)
O9_2 O 0.5695(9) 0.9142(4) 0.9164(3)
N3_3 N 0.8705(13) 0.8928(6) 0.7818(4)
C4_3 C 0.8047(13) 0.9869(6) 0.5962(4)
O10_3 O 0.4204(10) 0.9893(5) 0.4129(3)
O14_2 O 0.7929(10) 0.9272(5) 0.9415(4)
C8_3 C 0.8019(14) 0.8980(5) 0.4226(4)
C11_3 C 0.0201(16) 0.9402(7) 0.3235(5)
C16_3 C 0.9061(18) 0.9383(8) 0.8057(6)
H6_3 H 0.9656 0.9659 0.7930
C17_3 C 0.7745(17) 0.8541(8) 0.7991(6)
H7_3 H 0.7481 0.8217 0.7832
C18_3 C 0.7999(18) 0.9019(8) 0.6399(6)
H8_3 H 0.7674 0.8644 0.6436
C21_3 C 0.6776(15) 0.8876(7) 0.3977(6)
H11_3 H 0.5966 0.9108 0.4005
C23_3 C 0.3021(18) 0.9293(9) 0.3403(6)
H12_3 H 0.4007 0.9254 0.3446
C24_3 C 0.7607(18) 0.9314(8) 0.6033(6)
H13_3 H 0.7027 0.9134 0.5827
C26_3 C 0.2385(19) 0.9012(8) 0.3070(6)
H15_3 H 0.2947 0.8772 0.2898
C27_3 C 0.0748(14) 0.9709(8) 0.3577(5)
H16_3 H 0.0168 0.9956 0.3738
C28_3 C 0.7170(18) 0.8630(8) 0.8401(5)
H17_3 H 0.6476 0.8378 0.8507
C30_3 C 0.9188(18) 0.8624(7) 0.4170(6)
C32_3 C 0.7015(14) 0.9171(6) 0.9123(5)
C33_3 C 0.2859(15) 0.9940(6) 0.4078(4)
C35_3 C 0.9077(17) 0.8183(8) 0.3865(6)
H21_3 H 0.9886 0.7956 0.3818
C40_3 C 0.6791(16) 0.8417(7) 0.3691(5)
H29_3 H 0.5975 0.8348 0.3524
C42_3 C 0.922(3) 0.9795(8) 0.6639(7)
H31_3 H 0.9759 0.9971 0.6858
C45_3 C 0.8608(18) 0.9475(8) 0.8477(5)
H36_3 H 0.8957 0.9785 0.8637
C46_3 C 0.7985(15) 0.9490(6) 0.4531(4)
H3_3 H 0.9219 0.9438 0.3182
O18_2 O 0.1248(11) 0.0362(5) 0.0068(3)
C1_4 C 0.2771(14) 0.0361(6) 0.8680(4)
O10_4 O 0.0796(10) 0.0107(5) 0.9129(3)
C11_4 C 0.4799(16) 0.0598(7) 0.8235(5)
H3_4 H 0.5781 0.0562 0.8182
C23_4 C 0.1979(18) 0.0707(9) 0.8403(6)
H12_4 H 0.0993 0.0746 0.8446
C26_4 C 0.2615(19) 0.0988(8) 0.8070(6)
H15_4 H 0.2053 0.1228 0.7898
C27_4 C 0.4252(14) 0.0291(8) 0.8577(5)
H16_4 H 0.4832 0.0044 0.8738
C33_4 C 0.2141(15) 0.0060(6) 0.9078(4)
O12_2 O 0.2961(10) 0.9815(4) 0.9337(3)
O17_2 O 0.0761(10) 0.8847(4) 0.9395(3)
I1_4 I 0.28944(11) 0.39228(4) 0.25117(4)
I2_4 I 0.47803(11) 0.23002(4) 0.21435(3)
Cu1_4 Cu 0.5440(2) 0.11948(9) 0.22254(6)
O6_4 O 0.3453(15) 0.0636(7) 0.2299(5)
C3_4 C 0.7382(15) 0.0904(6) 0.3659(5)
N1_4 N 0.2203(14) 0.1688(5) 0.1327(4)
N2_4 N 0.6171(15) 0.0748(6) 0.1702(4)
N3_4 N 0.6295(13) 0.1072(6) 0.2818(4)
C4_4 C 0.6953(13) 0.0131(6) 0.0962(4)
C5_4 C 0.2313(15) 0.0880(5) 0.0641(4)
O11_4 O 0.3522(10) 0.0171(4) 0.0230(3)
C13_4 C 0.2406(15) 0.0438(6) 0.0279(5)
C14_4 C 0.0215(17) 0.3826(7) 0.3432(5)
H4_4 H 0.1162 0.3907 0.3356
C16_4 C 0.5939(18) 0.0617(8) 0.3057(6)
H6_4 H 0.5344 0.0341 0.2930
C17_4 C 0.7255(17) 0.1459(8) 0.2991(6)
H7_4 H 0.7519 0.1783 0.2832
C18_4 C 0.7001(18) 0.0981(8) 0.1399(6)
H8_4 H 0.7326 0.1356 0.1436
C19_4 C 0.1044(17) 0.1149(8) 0.0752(7)
H9_4 H 0.0208 0.1067 0.0598
C20_4 C 0.3578(17) 0.1055(8) 0.0857(6)
H10_4 H 0.4466 0.0904 0.0777
C24_4 C 0.7393(18) 0.0686(8) 0.1033(6)
H13_4 H 0.7973 0.0866 0.0827
C25_4 C 0.3481(17) 0.1458(8) 0.1192(6)
H14_4 H 0.4322 0.1576 0.1330
C28_4 C 0.7830(18) 0.1370(8) 0.3401(5)
H17_4 H 0.8524 0.1622 0.3507
H19_4 H 0.0403 0.4077 0.4069
C32_4 C 0.7985(14) 0.0829(6) 0.4123(5)
N9_4 N 0.1135(18) 0.0491(8) 0.2197(10)
C37_4 C 0.215(3) 0.0701(11) 0.2429(8)
C39_4 C 0.192(2) 0.1065(11) 0.2841(8)
H26_4 H 0.2825 0.1120 0.2986
H27_4 H 0.1267 0.0870 0.3034
H28_4 H 0.1524 0.1432 0.2763
C42_4 C 0.578(3) 0.0205(8) 0.1639(7)
H31_4 H 0.5241 0.0029 0.1858
C44_4 C 0.100(2) 0.1541(8) 0.1091(7)
H35_4 H 0.0130 0.1711 0.1162
C45_4 C 0.6392(18) 0.0525(8) 0.3477(5)
H36_4 H 0.6043 0.0215 0.3637
C50_4 C 0.149(3) 0.0155(11) 0.1797(9)
H44_4 H 0.2434 0.0264 0.1696
H45_4 H 0.0797 0.0235 0.1575
O2_4 O 0.8223(10) 0.0384(4) 0.9690(4)
O3_4 O 0.5820(10) 0.0257(4) 0.9601(4)
C8_4 C 0.6981(14) 0.1020(5) 0.9226(4)
C21_4 C 0.8224(15) 0.1124(7) 0.8977(6)
H11_4 H 0.9034 0.0892 0.9005
C30_4 C 0.5812(18) 0.1376(7) 0.9170(6)
H18_4 H 0.4974 0.1324 0.9331
C35_4 C 0.5923(17) 0.1817(8) 0.8865(6)
H21_4 H 0.5114 0.2044 0.8818
C40_4 C 0.8209(16) 0.1583(7) 0.8691(5)
H29_4 H 0.9025 0.1652 0.8524
C46_4 C 0.7015(15) 0.0510(6) 0.9531(4)
O7_4 O 0.8610(10) 0.9741(6) 0.0445(3)
C6_4 C 0.7315(14) 0.9790(6) 0.0558(4)
O13_4 O 0.6288(11) 0.9541(5) 0.0372(3)
C12_4 C 0.6752(16) 0.8261(6) 0.0185(6)
N7_4 N 0.7828(16) 0.7947(6) 0.0007(6)
C38_4 C 0.912(2) 0.7754(9) 0.0238(10)
H23_4 H 0.9122 0.7914 0.0526
H24_4 H 0.9957 0.7879 0.0084
H25_4 H 0.9113 0.7341 0.0256
C47_4 C 0.610(3) 0.9879(7) 0.1273(7)
H37_4 H 0.5750 0.9506 0.1240
C48_4 C 0.674(2) 0.8336(9) 0.0679(6)
H38_4 H 0.5960 0.8582 0.0761
H39_4 H 0.7636 0.8506 0.0771
H40_4 H 0.6632 0.7967 0.0816
H46_4 H 0.1485 0.9752 0.1864
O1_4 O 0.5769(10) 0.8474(4) 0.9961(3)
C2_4 C 0.0884(15) 0.8078(7) 0.8695(5)
O5_4 O 0.3067(10) 0.8662(4) 0.9564(3)
C7_4 C 0.3436(16) 0.8037(6) 0.8800(5)
H2_4 H 0.4252 0.8123 0.8963
C9_4 C 0.1971(14) 0.8618(6) 0.9332(4)
C15_4 C 0.3519(14) 0.7698(7) 0.8409(4)
H5_4 H 0.4417 0.7573 0.8314
C29_4 C 0.2089(15) 0.8231(6) 0.8923(5)
C41_4 C 0.1062(16) 0.7725(7) 0.8322(5)
H30_4 H 0.0248 0.7606 0.8171
C43_4 C 0.773(2) 0.7821(8) 0.9528(6)
H32_4 H 0.6767 0.7889 0.9429
H33_4 H 0.7983 0.7426 0.9477
H34_4 H 0.8384 0.8066 0.9373
I3_4 I 0.98694(11) 0.24467(4) 0.22465(3)
C10_4 C 0.7848(16) 0.4011(6) 0.4431(5)
N8_4 N 0.9341(13) 0.3609(5) 0.3132(4)
C22_4 C 0.8363(14) 0.3840(6) 0.3974(4)
C31_4 C 0.9756(14) 0.3938(7) 0.3864(4)
C34_4 C 0.7965(17) 0.3495(8) 0.3252(5)
H20_4 H 0.7339 0.3345 0.3045
C36_4 C 0.7447(16) 0.3592(8) 0.3669(5)
H22_4 H 0.6509 0.3494 0.3743
C49_4 C 0.961(2) 0.0544(11) 0.2348(8)
H41_4 H 0.9573 0.0779 0.2605
H42_4 H 0.9233 0.0169 0.2413
H43_4 H 0.9038 0.0719 0.2123
H1_4 H 0.9977 0.8202 0.8782
loop_
_geom_bond_atom_site_label_1
_geom_bond_atom_site_label_2
_geom_bond_site_symmetry_1
_geom_bond_site_symmetry_2
C10 O15 1_555 1_555
C22 C10 1_555 1_555
C34 N8 1_555 1_555
H20 C34 1_555 1_555
C36 C22 1_555 1_555
H22 C36 1_555 1_555
H41 C49 1_555 1_555
H42 C49 1_555 1_555
H43 C49 1_555 1_555
O16 C10 1_555 1_555
C22 C31 1_555 1_555
C34 C36 1_555 1_555
Tb1 O1 1_555 1_555
Tb6 O2 1_555 1_555
I1 Cu3 1_555 1_555
I2 Cu1 1_555 1_555
Cu1 O6 1_555 1_555
Cu2 I2 1_555 1_555
Cu4 I1 1_555 1_555
O1 C12 1_555 1_555
O2 C46 1_555 1_555
O3 Tb1 1_555 1_555
O4 C9 1_555 1_555
O5 Tb1 1_555 1_555
O6 C37 1_555 1_555
O7 Tb6 1_555 1_555
C3 C28 1_555 1_555
N1 Cu2 1_555 1_555
N2 Cu1 1_555 1_555
O8 C13 1_555 1_555
O9 C32 1_555 1_555
N3 Cu1 1_555 1_555
C4 C6 1_555 1_555
C5 C13 1_555 1_555
N4 C35 1_555 1_555
C6 O7 1_555 1_555
O11 Tb1 1_555 1_555
O13 Tb1 1_555 1_555
O14 C32 1_555 1_555
N5 C15 1_555 1_555
C7 H2 1_555 1_555
C8 C21 1_555 1_555
C9 O5 1_555 1_555
C12 N7 1_555 1_555
C13 O11 1_555 1_555
C14 H4 1_555 1_555
C15 C7 1_555 1_555
H5 C15 1_555 1_555
N7 C38 1_555 1_555
C16 N3 1_555 1_555
H6 C16 1_555 1_555
C17 N3 1_555 1_555
H7 C17 1_555 1_555
C18 N2 1_555 1_555
H8 C18 1_555 1_555
C19 C5 1_555 1_555
H9 C19 1_555 1_555
C20 C5 1_555 1_555
H10 C20 1_555 1_555
C21 H11 1_555 1_555
C24 C4 1_555 1_555
H13 C24 1_555 1_555
C25 N1 1_555 1_555
H14 C25 1_555 1_555
C28 C17 1_555 1_555
H17 C28 1_555 1_555
C29 C2 1_555 1_555
C30 C8 1_555 1_555
H18 C30 1_555 1_555
C32 C3 1_555 1_555
C35 C30 1_555 1_555
H21 C35 1_555 1_555
N9 C37 1_555 1_555
C37 C39 1_555 1_555
C38 H23 1_555 1_555
H24 C38 1_555 1_555
H25 C38 1_555 1_555
C39 H26 1_555 1_555
H27 C39 1_555 1_555
H28 C39 1_555 1_555
C40 N4 1_555 1_555
H29 C40 1_555 1_555
C41 C2 1_555 1_555
H30 C41 1_555 1_555
C42 N2 1_555 1_555
H31 C42 1_555 1_555
C43 N7 1_555 1_555
H32 C43 1_555 1_555
H33 C43 1_555 1_555
H34 C43 1_555 1_555
C44 N1 1_555 1_555
H35 C44 1_555 1_555
C45 C3 1_555 1_555
H36 C45 1_555 1_555
C46 O3 1_555 1_555
C47 C4 1_555 1_555
H37 C47 1_555 1_555
C48 C12 1_555 1_555
H38 C48 1_555 1_555
H39 C48 1_555 1_555
H40 C48 1_555 1_555
C50 N9 1_555 1_555
H44 C50 1_555 1_555
H45 C50 1_555 1_555
H46 C50 1_555 1_555
Tb7 O14 1_555 1_555
Cu5 N4 1_555 1_555
Cu7 N5 1_555 1_555
O19 Tb1 1_555 1_555
N10 Cu2 1_555 1_555
O20 Tb1 1_555 1_555
O21 Tb6 1_555 1_555
N11 Cu4 1_555 1_555
O22 Tb1 1_555 1_555
I2 Cu4 1_555 1_555
C6 O13 1_555 1_555
N5 C41 1_555 1_555
C7 C29 1_555 1_555
C8 C46 1_555 1_555
C9 C29 1_555 1_555
C16 C45 1_555 1_555
C18 C24 1_555 1_555
C19 C44 1_555 1_555
C20 C25 1_555 1_555
C21 C40 1_555 1_555
C42 C47 1_555 1_555
C1 C23 1_555 1_555
O20 C33 1_555 1_555
C11 H3 1_555 1_555
N6 C11 1_555 1_555
C23 H12 1_555 1_555
C26 N6 1_555 1_555
H15 C26 1_555 1_555
C27 C1 1_555 1_555
H16 C27 1_555 1_555
C33 C1 1_555 1_555
Cu6 N6 1_555 1_555
O10 C33 1_555 1_555
C11 C27 1_555 1_555
C23 C26 1_555 1_555
Tb7 O2_2 1_555 1_555
O2_2 C46_2 1_555 1_555
C1_2 C23_2 1_555 1_555
N4_2 C35_2 1_555 1_555
O10_2 Tb7 1_555 1_555
O12 C33_2 1_555 1_555
C8_2 C21_2 1_555 1_555
N6_2 C11_2 1_555 1_555
C21_2 H11_2 1_555 1_555
C23_2 H12_2 1_555 1_555
C26_2 N6_2 1_555 1_555
H15_2 C26_2 1_555 1_555
C27_2 C1_2 1_555 1_555
H16_2 C27_2 1_555 1_555
C30_2 C8_2 1_555 1_555
C33_2 C1_2 1_555 1_555
C35_2 C30_2 1_555 1_555
H21_2 C35_2 1_555 1_555
C40_2 N4_2 1_555 1_555
H29_2 C40_2 1_555 1_555
H32_2 C43_2 1_555 1_555
H33_2 C43_2 1_555 1_555
H34_2 C43_2 1_555 1_555
C46_2 O3_2 1_555 1_555
Tb4 O12 1_555 1_555
Cu5_2 N4_2 1_555 1_555
O17 Tb7 1_555 1_555
O10_2 C33_2 1_555 1_555
C8_2 C46_2 1_555 1_555
C11_2 C27_2 1_555 1_555
C21_2 C40_2 1_555 1_555
C23_2 C26_2 1_555 1_555
C3_2 C28_2 1_555 1_555
N2_2 Cu1_2 1_555 1_555
O19 C32_2 1_555 1_555
N3_2 Cu1_2 1_555 1_555
C4_2 C6_2 1_555 1_555
C6_2 O7_2 1_555 1_555
O21 C32_2 1_555 1_555
C12_2 N7_2 1_555 1_555
N7_2 C38_2 1_555 1_555
C16_2 N3_2 1_555 1_555
H6_2 C16_2 1_555 1_555
C17_2 N3_2 1_555 1_555
H7_2 C17_2 1_555 1_555
C18_2 N2_2 1_555 1_555
H8_2 C18_2 1_555 1_555
C24_2 C4_2 1_555 1_555
H13_2 C24_2 1_555 1_555
C28_2 C17_2 1_555 1_555
H17_2 C28_2 1_555 1_555
C32_2 C3_2 1_555 1_555
C38_2 H23_2 1_555 1_555
H24_2 C38_2 1_555 1_555
H25_2 C38_2 1_555 1_555
C42_2 N2_2 1_555 1_555
H31_2 C42_2 1_555 1_555
C45_2 C3_2 1_555 1_555
H36_2 C45_2 1_555 1_555
C47_2 C4_2 1_555 1_555
H37_2 C47_2 1_555 1_555
C48_2 C12_2 1_555 1_555
H38_2 C48_2 1_555 1_555
H39_2 C48_2 1_555 1_555
H40_2 C48_2 1_555 1_555
C6_2 O13_2 1_555 1_555
C16_2 C45_2 1_555 1_555
C18_2 C24_2 1_555 1_555
C42_2 C47_2 1_555 1_555
C2_2 H1_2 1_555 1_555
O17 C9_2 1_555 1_555
O5_2 Tb4 1_555 1_555
N11 C15_2 1_555 1_555
C7_2 H2_2 1_555 1_555
C9_2 O5_2 1_555 1_555
C15_2 C7_2 1_555 1_555
H5_2 C15_2 1_555 1_555
C29_2 C2_2 1_555 1_555
C41_2 C2_2 1_555 1_555
H30_2 C41_2 1_555 1_555
N11 C41_2 1_555 1_555
C7_2 C29_2 1_555 1_555
C9_2 C29_2 1_555 1_555
I1_2 Cu3_2 1_555 1_555
I3_2 Cu2_2 1_555 1_555
Cu2_2 I2_2 1_555 1_555
Cu3_2 I3_2 1_555 1_555
Cu7 I1_2 1_555 1_555
O6_2 C37_2 1_555 1_555
N1_2 Cu2_2 1_555 1_555
O18 C13_2 1_555 1_555
C5_2 C13_2 1_555 1_555
C10_2 O15_2 1_555 1_555
C13_2 O11_2 1_555 1_555
C14_2 H4_2 1_555 1_555
O15_2 Tb5_2 1_555 1_555
N8_2 Cu3_2 1_555 1_555
C19_2 C5_2 1_555 1_555
H9_2 C19_2 1_555 1_555
C20_2 C5_2 1_555 1_555
H10_2 C20_2 1_555 1_555
C22_2 C10_2 1_555 1_555
C25_2 N1_2 1_555 1_555
H14_2 C25_2 1_555 1_555
C31_2 C14_2 1_555 1_555
H19_2 C31_2 1_555 1_555
C34_2 N8_2 1_555 1_555
H20_2 C34_2 1_555 1_555
C36_2 C22_2 1_555 1_555
H22_2 C36_2 1_555 1_555
N9_2 C37_2 1_555 1_555
C37_2 C39_2 1_555 1_555
C39_2 H26_2 1_555 1_555
H27_2 C39_2 1_555 1_555
H28_2 C39_2 1_555 1_555
C44_2 N1_2 1_555 1_555
H35_2 C44_2 1_555 1_555
C49_2 N9_2 1_555 1_555
H41_2 C49_2 1_555 1_555
H42_2 C49_2 1_555 1_555
H43_2 C49_2 1_555 1_555
C50_2 N9_2 1_555 1_555
H44_2 C50_2 1_555 1_555
H45_2 C50_2 1_555 1_555
H46_2 C50_2 1_555 1_555
O16_2 C10_2 1_555 1_555
Tb8_2 O16_2 1_555 1_555
N10_2 Cu2_2 1_555 1_555
N12_2 Cu3_2 1_555 1_555
I2_2 Cu7 1_555 1_555
I3_2 Cu7 1_555 1_555
C14_2 N8_2 1_555 1_555
C19_2 C44_2 1_555 1_555
C20_2 C25_2 1_555 1_555
C22_2 C31_2 1_555 1_555
C34_2 C36_2 1_555 1_555
C2_3 H1_3 1_555 1_555
O4_2 C9_3 1_555 1_555
O5_3 Tb5_2 1_555 1_555
N5_2 C15_3 1_555 1_555
C7_3 H2_3 1_555 1_555
C9_3 O5_3 1_555 1_555
C15_3 C7_3 1_555 1_555
H5_3 C15_3 1_555 1_555
C29_3 C2_3 1_555 1_555
C41_3 C2_3 1_555 1_555
H30_3 C41_3 1_555 1_555
Tb8_2 O4_2 1_555 1_555
Cu7_2 N5_2 1_555 1_555
O20_2 Tb5_2 1_555 1_555
N5_2 C41_3 1_555 1_555
C7_3 C29_3 1_555 1_555
C9_3 C29_3 1_555 1_555
I1_3 Cu6 1_555 1_555
I3_3 Cu5 1_555 1_555
Cu5 I2_3 1_555 1_555
Cu6 I3_3 1_555 1_555
Cu4_2 I1_3 1_555 1_555
O6_3 C37_3 1_555 1_555
N1_3 Cu5 1_555 1_555
O8_2 C13_3 1_555 1_555
C5_3 C13_3 1_555 1_555
C10_3 O22_2 1_555 1_555
C13_3 O11_3 1_555 1_555
C14_3 H4_3 1_555 1_555
N8_3 Cu6 1_555 1_555
C19_3 C5_3 1_555 1_555
H9_3 C19_3 1_555 1_555
C20_3 C5_3 1_555 1_555
H10_3 C20_3 1_555 1_555
C22_3 C10_3 1_555 1_555
C25_3 N1_3 1_555 1_555
H14_3 C25_3 1_555 1_555
C31_3 C14_3 1_555 1_555
H19_3 C31_3 1_555 1_555
C34_3 N8_3 1_555 1_555
H20_3 C34_3 1_555 1_555
C36_3 C22_3 1_555 1_555
H22_3 C36_3 1_555 1_555
N9_3 C37_3 1_555 1_555
C37_3 C39_3 1_555 1_555
C39_3 H26_3 1_555 1_555
H27_3 C39_3 1_555 1_555
H28_3 C39_3 1_555 1_555
C44_3 N1_3 1_555 1_555
H35_3 C44_3 1_555 1_555
C49_3 N9_3 1_555 1_555
H41_3 C49_3 1_555 1_555
H42_3 C49_3 1_555 1_555
H43_3 C49_3 1_555 1_555
C50_3 N9_3 1_555 1_555
H44_3 C50_3 1_555 1_555
H45_3 C50_3 1_555 1_555
O23_2 C10_3 1_555 1_555
N11_2 Cu4_2 1_555 1_555
I2_3 Cu4_2 1_555 1_555
I3_3 Cu4_2 1_555 1_555
C14_3 N8_3 1_555 1_555
C19_3 C44_3 1_555 1_555
C20_3 C25_3 1_555 1_555
C22_3 C31_3 1_555 1_555
C34_3 C36_3 1_555 1_555
O1_3 C12_3 1_555 1_555
O7_3 Tb8_2 1_555 1_555
C6_3 O7_3 1_555 1_555
C12_3 N7_3 1_555 1_555
N7_3 C38_3 1_555 1_555
C38_3 H23_3 1_555 1_555
H24_3 C38_3 1_555 1_555
H25_3 C38_3 1_555 1_555
C43_3 N7_3 1_555 1_555
H32_3 C43_3 1_555 1_555
H33_3 C43_3 1_555 1_555
H34_3 C43_3 1_555 1_555
H37_3 C47_3 1_555 1_555
C48_3 C12_3 1_555 1_555
H38_3 C48_3 1_555 1_555
H39_3 C48_3 1_555 1_555
H40_3 C48_3 1_555 1_555
O21_2 Tb8_2 1_555 1_555
C6_3 O13_3 1_555 1_555
O2_3 C46_3 1_555 1_555
C1_3 C23_3 1_555 1_555
C3_3 C28_3 1_555 1_555
N2_3 Cu1_3 1_555 1_555
O9_2 C32_3 1_555 1_555
N3_3 Cu1_3 1_555 1_555
N10 C35_3 1_555 1_555
O14_2 C32_3 1_555 1_555
C8_3 C21_3 1_555 1_555
N12 C11_3 1_555 1_555
C16_3 N3_3 1_555 1_555
H6_3 C16_3 1_555 1_555
C17_3 N3_3 1_555 1_555
H7_3 C17_3 1_555 1_555
C18_3 N2_3 1_555 1_555
H8_3 C18_3 1_555 1_555
C21_3 H11_3 1_555 1_555
C23_3 H12_3 1_555 1_555
C24_3 C4_3 1_555 1_555
H13_3 C24_3 1_555 1_555
C26_3 N12 1_555 1_555
H15_3 C26_3 1_555 1_555
C27_3 C1_3 1_555 1_555
H16_3 C27_3 1_555 1_555
C28_3 C17_3 1_555 1_555
H17_3 C28_3 1_555 1_555
C30_3 C8_3 1_555 1_555
C32_3 C3_3 1_555 1_555
C33_3 C1_3 1_555 1_555
C35_3 C30_3 1_555 1_555
H21_3 C35_3 1_555 1_555
C40_3 N10 1_555 1_555
H29_3 C40_3 1_555 1_555
C42_3 N2_3 1_555 1_555
H31_3 C42_3 1_555 1_555
C45_3 C3_3 1_555 1_555
H36_3 C45_3 1_555 1_555
C46_3 O3_3 1_555 1_555
Tb5 O9_2 1_555 1_555
Tb8 O14_2 1_555 1_555
O10_3 C33_3 1_555 1_555
C8_3 C46_3 1_555 1_555
C11_3 C27_3 1_555 1_555
C16_3 C45_3 1_555 1_555
C18_3 C24_3 1_555 1_555
C21_3 C40_3 1_555 1_555
C23_3 C26_3 1_555 1_555
C1_4 C23_4 1_555 1_555
C11_4 H3_4 1_555 1_555
N12_2 C11_4 1_555 1_555
C23_4 H12_4 1_555 1_555
C26_4 N12_2 1_555 1_555
H15_4 C26_4 1_555 1_555
C27_4 C1_4 1_555 1_555
H16_4 C27_4 1_555 1_555
C33_4 C1_4 1_555 1_555
O10_4 C33_4 1_555 1_555
C11_4 C27_4 1_555 1_555
C23_4 C26_4 1_555 1_555
Tb5 O12_2 1_555 1_555
I1_4 Cu6_2 1_555 1_555
I2_4 Cu1_4 1_555 1_555
Cu1_4 O6_4 1_555 1_555
Cu5_2 I2_4 1_555 1_555
Cu7_2 I1_4 1_555 1_555
O6_4 C37_4 1_555 1_555
C3_4 C28_4 1_555 1_555
N1_4 Cu5_2 1_555 1_555
N2_4 Cu1_4 1_555 1_555
O18_2 C13_4 1_555 1_555
O19_2 C32_4 1_555 1_555
N3_4 Cu1_4 1_555 1_555
C5_4 C13_4 1_555 1_555
O21_2 C32_4 1_555 1_555
C13_4 O11_4 1_555 1_555
C14_4 H4_4 1_555 1_555
C16_4 N3_4 1_555 1_555
H6_4 C16_4 1_555 1_555
C17_4 N3_4 1_555 1_555
H7_4 C17_4 1_555 1_555
C18_4 N2_4 1_555 1_555
H8_4 C18_4 1_555 1_555
C19_4 C5_4 1_555 1_555
H9_4 C19_4 1_555 1_555
C20_4 C5_4 1_555 1_555
H10_4 C20_4 1_555 1_555
C24_4 C4_4 1_555 1_555
H13_4 C24_4 1_555 1_555
C25_4 N1_4 1_555 1_555
H14_4 C25_4 1_555 1_555
C28_4 C17_4 1_555 1_555
H17_4 C28_4 1_555 1_555
C32_4 C3_4 1_555 1_555
N9_4 C37_4 1_555 1_555
C37_4 C39_4 1_555 1_555
C39_4 H26_4 1_555 1_555
H27_4 C39_4 1_555 1_555
H28_4 C39_4 1_555 1_555
C42_4 N2_4 1_555 1_555
H31_4 C42_4 1_555 1_555
C44_4 N1_4 1_555 1_555
H35_4 C44_4 1_555 1_555
C45_4 C3_4 1_555 1_555
H36_4 C45_4 1_555 1_555
C50_4 N9_4 1_555 1_555
H44_4 C50_4 1_555 1_555
H45_4 C50_4 1_555 1_555
I2_4 Cu7_2 1_555 1_555
C16_4 C45_4 1_555 1_555
C18_4 C24_4 1_555 1_555
C19_4 C44_4 1_555 1_555
C20_4 C25_4 1_555 1_555
O2_4 C46_4 1_555 1_555
N10_2 C35_4 1_555 1_555
C8_4 C21_4 1_555 1_555
C21_4 H11_4 1_555 1_555
C30_4 C8_4 1_555 1_555
H18_4 C30_4 1_555 1_555
C35_4 C30_4 1_555 1_555
H21_4 C35_4 1_555 1_555
C40_4 N10_2 1_555 1_555
H29_4 C40_4 1_555 1_555
C46_4 O3_4 1_555 1_555
C8_4 C46_4 1_555 1_555
C21_4 C40_4 1_555 1_555
C6_4 O7_4 1_555 1_555
C12_4 N7_4 1_555 1_555
N7_4 C38_4 1_555 1_555
C38_4 H23_4 1_555 1_555
H24_4 C38_4 1_555 1_555
H25_4 C38_4 1_555 1_555
H37_4 C47_4 1_555 1_555
C48_4 C12_4 1_555 1_555
H38_4 C48_4 1_555 1_555
H39_4 C48_4 1_555 1_555
H40_4 C48_4 1_555 1_555
C6_4 O13_4 1_555 1_555
Tb5 O1_4 1_555 1_555
O17_2 C9_4 1_555 1_555
O5_4 Tb5 1_555 1_555
N11_2 C15_4 1_555 1_555
C7_4 H2_4 1_555 1_555
C9_4 O5_4 1_555 1_555
C15_4 C7_4 1_555 1_555
H5_4 C15_4 1_555 1_555
C29_4 C2_4 1_555 1_555
C41_4 C2_4 1_555 1_555
H30_4 C41_4 1_555 1_555
H32_4 C43_4 1_555 1_555
H33_4 C43_4 1_555 1_555
H34_4 C43_4 1_555 1_555
N11_2 C41_4 1_555 1_555
C7_4 C29_4 1_555 1_555
C9_4 C29_4 1_555 1_555
C10_4 O22 1_555 1_555
C22_4 C10_4 1_555 1_555
C34_4 N8_4 1_555 1_555
H20_4 C34_4 1_555 1_555
C36_4 C22_4 1_555 1_555
H22_4 C36_4 1_555 1_555
H41_4 C49_4 1_555 1_555
H42_4 C49_4 1_555 1_555
H43_4 C49_4 1_555 1_555
O23 C10_4 1_555 1_555
C22_4 C31_4 1_555 1_555
C34_4 C36_4 1_555 1_555

#END
