
###############################################################################
#
# This file contains modified crystal structure data generated from the
# MOF subset of the Cambridge Structural Database (CSD) v543 
# hosted by the Cambridge Crystallographic Data Centre (CCDC).
#
# This work is licensed under the Creative Commons
# Attribution-NonCommercial-ShareAlike 4.0 International License.
# To view a copy of this license, visit
# http://creativecommons.org/licenses/by-nc-sa/4.0/
# or send a letter to
# Creative Commons, PO Box 1866, Mountain View, CA 94042, USA.
#
# CIF created using the CSD Python API on 29 September 2022
# The structure has been converted into the P1 space group
# The structure has a 3D framework
# The original CSD entry TEBLUK01 is in the orthorhombic crystal system
# The original CSD entry TEBLUK01 is in a Sohncke space group
# The framework has been calculated to contain at least 10.0% void space
# The void calculation uses a probe of radius 1.32A, grid spacing 0.4
#
###############################################################################

data_TEBLUK01
_chemical_formula_moiety         '(C200 H184 Cu16 I12 N36 O62 Tb6)n'
_symmetry_cell_setting           triclinic
_symmetry_space_group_name_H-M   'P 1'
_symmetry_Int_Tables_number      1
_space_group_name_Hall           'P 1'
loop_
_symmetry_equiv_pos_site_id
_symmetry_equiv_pos_as_xyz
1 x,y,z
_cell_length_a                   9.2117(4)
_cell_length_b                   22.5446(11)
_cell_length_c                   30.9635(14)
_cell_angle_alpha                90
_cell_angle_beta                 90
_cell_angle_gamma                90
_cell_volume                     6430.32
loop_
_atom_site_label
_atom_site_type_symbol
_atom_site_fract_x
_atom_site_fract_y
_atom_site_fract_z
I1 I 0.02261(8) 0.23018(3) 0.78135(2)
I2 I 0.51594(8) 0.24470(3) 0.77003(2)
I3 I 0.20637(8) 0.39657(3) 0.74537(2)
Cu2 Cu 0.28141(16) 0.23442(7) 0.81746(4)
Cu3 Cu 0.25617(16) 0.28366(7) 0.73906(5)
Cu4 Cu 0.48642(16) 0.36124(6) 0.74827(4)
O5 O 0.0794(8) 0.1147(4) 0.5575(2)
O6 O 0.3091(8) 0.1350(3) 0.5404(2)
O7 O 0.1297(9) 0.0773(4) 0.4690(2)
O8 O 0.3570(8) 0.0972(4) 0.4488(2)
O13 O 0.3004(8) 0.0192(3) 0.5669(2)
O16 O 0.1530(10) 0.0634(4) 0.7707(3)
N3 N 0.2375(11) 0.2462(4) 0.6789(3)
N4 N 0.0647(11) 0.1348(5) 0.3137(3)
N9 N 0.3922(12) 0.0536(5) 0.7780(4)
C13 C 0.1996(12) 0.1392(5) 0.5641(4)
C14 C 0.2122(13) 0.1763(5) 0.6044(3)
C15 C 0.0908(12) 0.1925(5) 0.6283(4)
C16 C 0.1087(13) 0.2283(5) 0.6642(3)
H10 H 0.024270 0.240750 0.679344
C17 C 0.3523(13) 0.2307(6) 0.6552(4)
H11 H 0.445023 0.244254 0.664361
C18 C 0.3461(12) 0.1962(6) 0.6184(4)
H12 H 0.432054 0.186406 0.603033
C19 C 0.2236(14) 0.0945(5) 0.4414(4)
C20 C 0.1699(12) 0.1109(6) 0.3972(4)
C21 C 0.0285(13) 0.0996(5) 0.3862(3)
C23 C 0.2019(14) 0.1468(6) 0.3254(4)
H15 H 0.264289 0.164246 0.304568
C24 C 0.2579(13) 0.1355(6) 0.3660(4)
H16 H 0.356324 0.144551 0.372385
H19 H 0.003329 0.003395 0.818136
H25 H 0.486381 0.002978 0.627430
H36 H 0.010823 0.201262 0.485035
C47 C 0.2984(15) 0.1024(6) 0.7131(4)
H38 H 0.369493 0.134365 0.716600
H39 H 0.205837 0.119079 0.703299
H40 H 0.334017 0.073916 0.691645
C48 C 0.2761(13) 0.0705(5) 0.7568(4)
C49 C 0.5423(14) 0.0597(7) 0.7621(5)
H41 H 0.540766 0.070349 0.731432
H42 H 0.593654 0.021973 0.765828
H43 H 0.592187 0.090788 0.778505
C50 C 0.372(2) 0.0259(8) 0.8203(5)
H44 H 0.294192 0.046497 0.835928
H45 H 0.462153 0.028403 0.836852
Tb4 Tb 0.46325(5) 0.05922(2) 0.51468(2)
N10 N 0.2987(10) 0.3104(4) 0.8543(3)
N11 N 0.5647(11) 0.3652(5) 0.6863(3)
N12 N 0.2799(11) 0.1732(4) 0.8663(3)
N13 N 0.5875(10) 0.4098(4) 0.7956(3)
Tb5 Tb 0.03675(5) 0.94078(2) 0.01468(2)
O11 O 0.3584(8) 0.9768(4) 0.4779(3)
O12 O 0.1304(8) 0.9521(4) 0.4970(2)
O14 O 0.0836(8) 0.9860(4) 0.5872(2)
N6 N 0.2201(11) 0.8268(4) 0.3663(3)
N7 N 0.4125(10) 0.9098(4) 0.7044(3)
C31 C 0.2441(11) 0.9474(5) 0.4745(3)
C32 C 0.2389(12) 0.9018(5) 0.4378(4)
C33 C 0.3562(13) 0.8929(6) 0.4116(4)
H21 H 0.446109 0.911821 0.417709
C34 C 0.3430(14) 0.8562(6) 0.3760(4)
H22 H 0.424647 0.851561 0.357584
C35 C 0.1058(13) 0.8347(6) 0.3928(4)
H23 H 0.017709 0.814518 0.386564
C36 C 0.1120(12) 0.8715(5) 0.4293(4)
H24 H 0.030205 0.875549 0.447748
C37 C 0.2183(13) 0.9925(5) 0.5924(4)
C38 C 0.2844(12) 0.9651(6) 0.6324(3)
C39 C 0.4290(12) 0.9761(6) 0.6438(4)
C40 C 0.4862(13) 0.9473(5) 0.6789(3)
H26 H 0.585288 0.954413 0.685726
C41 C 0.2719(14) 0.9016(6) 0.6944(4)
H27 H 0.216175 0.875446 0.711797
C42 C 0.2053(14) 0.9291(5) 0.6605(4)
H28 H 0.104104 0.923677 0.656034
H46 H 0.345014 0.984136 0.816407
Cu5 Cu 0.21859(16) 0.76558(7) 0.31746(4)
Cu8 Cu 0.51358(16) 0.86124(6) 0.75173(4)
Tb1 Tb 0.99441(5) 0.02897(2) 0.52132(2)
Cu1 Cu 0.95505(16) 0.11626(7) 0.77444(4)
O3 O 0.7970(9) 0.0712(4) 0.5569(2)
O4 O 0.5747(8) 0.0894(4) 0.5814(2)
O15 O 0.5810(9) 0.1536(4) 0.5020(2)
N2 N 0.8734(10) 0.1064(5) 0.7151(3)
N5 N 0.8822(11) 0.0745(5) 0.8273(3)
N8 N 0.7919(11) 0.2019(5) 0.4955(3)
C7 C 0.7072(13) 0.0833(5) 0.5869(4)
C8 C 0.7648(12) 0.0905(5) 0.6319(3)
C9 C 0.8626(12) 0.0514(6) 0.6495(4)
H5 H 0.895876 0.018648 0.632945
C10 C 0.9138(13) 0.0593(6) 0.6916(3)
H6 H 0.978023 0.030861 0.703709
C11 C 0.7800(13) 0.1446(6) 0.6982(4)
H7 H 0.750844 0.177822 0.714933
C12 C 0.7238(13) 0.1381(6) 0.6577(4)
H8 H 0.656198 0.166323 0.647012
H9 H 0.996862 0.179232 0.620038
H13 H 0.963959 0.083856 0.407254
C22 C 0.9788(14) 0.1107(5) 0.3450(3)
H14 H 0.881061 0.101204 0.338117
C26 C 0.7986(11) 0.0153(5) 0.9025(3)
C27 C 0.7407(13) 0.0697(6) 0.8926(4)
H17 H 0.672134 0.087920 0.911321
C28 C 0.7844(15) 0.0978(6) 0.8547(4)
H18 H 0.742878 0.135186 0.847887
C29 C 0.9361(15) 0.0212(6) 0.8374(4)
C43 C 0.6791(14) 0.1644(5) 0.4301(4)
H29 H 0.752670 0.135172 0.421734
H30 H 0.700176 0.202397 0.416112
H31 H 0.583016 0.150427 0.421067
C44 C 0.6812(12) 0.1723(5) 0.4787(4)
C45 C 0.7953(15) 0.2176(6) 0.5408(4)
H32 H 0.795966 0.260849 0.543707
H33 H 0.882917 0.201077 0.554105
H34 H 0.709229 0.201404 0.555198
C46 C 0.9259(13) 0.2200(6) 0.4717(4)
H35 H 0.918451 0.207304 0.441484
H37 H 0.936398 0.263198 0.472893
Cu7 Cu 0.98642(16) 0.13876(6) 0.25173(4)
O19 O 0.8701(8) 0.0152(4) 0.4550(2)
O20 O 0.6379(8) 0.0406(4) 0.4640(2)
Tb3 Tb 0.50559(5) 0.97103(2) 0.02132(2)
O1 O 0.8242(8) 0.9551(3) 0.5324(2)
O2 O 0.5847(8) 0.9723(4) 0.5410(2)
O9 O 0.6299(8) 0.9848(4) 0.9550(2)
O10 O 0.8621(8) 0.9594(4) 0.9640(2)
N1 N 0.7013(10) 0.8104(4) 0.6457(3)
C1 C 0.7029(12) 0.9472(5) 0.5497(3)
C2 C 0.6983(13) 0.8981(5) 0.5834(4)
C3 C 0.5736(12) 0.8653(5) 0.5921(4)
H1 H 0.485466 0.873439 0.577318
C4 C 0.5803(13) 0.8210(5) 0.6224(4)
H2 H 0.497002 0.796984 0.627161
C5 C 0.8180(13) 0.8442(6) 0.6379(4)
H3 H 0.902774 0.837736 0.654744
C6 C 0.8213(13) 0.8877(6) 0.6070(4)
H4 H 0.907108 0.910121 0.602030
C25 C 0.7624(13) 0.9848(5) 0.9440(4)
C30 C 0.8990(14) 0.9910(5) 0.8743(4)
H20 H 0.941993 0.953600 0.880453
Cu6 Cu 0.71859(16) 0.73442(7) 0.68254(4)
O21 O 0.1416(8) 0.0232(4) 0.9779(3)
O17 O 0.1909(8) 0.8650(3) 0.0404(2)
O22 O 0.1996(8) 0.9808(3) 0.0669(2)
O18 O 0.1430(8) 0.9028(4) 0.9488(2)
O1_2 O 0.6758(8) 0.0449(3) 0.0324(2)
O2_2 O 0.9153(8) 0.0277(4) 0.0410(2)
O14_2 O 0.4164(8) 0.0140(4) 0.0872(2)
N1_2 N 0.7987(10) 0.1896(4) 0.1457(3)
N7_2 N 0.0875(10) 0.0902(4) 0.2044(3)
C1_2 C 0.7971(12) 0.0528(5) 0.0497(3)
C2_2 C 0.8017(13) 0.1019(5) 0.0834(4)
C3_2 C 0.9264(12) 0.1347(5) 0.0921(4)
C4_2 C 0.9197(13) 0.1790(5) 0.1224(4)
C5_2 C 0.6820(13) 0.1558(6) 0.1379(4)
H3_2 H 0.597226 0.162264 0.154744
C6_2 C 0.6787(13) 0.1123(6) 0.1070(4)
H4_2 H 0.592892 0.089879 0.102030
C25_2 C 0.7376(13) 0.0152(5) 0.4440(4)
C30_2 C 0.6010(14) 0.0090(5) 0.3743(4)
H20_2 H 0.558007 0.046400 0.380453
C37_2 C 0.2817(13) 0.0075(5) 0.0924(4)
C38_2 C 0.2156(12) 0.0349(6) 0.1324(3)
C39_2 C 0.0710(12) 0.0239(6) 0.1438(4)
C40_2 C 0.0138(13) 0.0527(5) 0.1789(3)
C41_2 C 0.2281(14) 0.0984(6) 0.1944(4)
H27_2 H 0.283825 0.124554 0.211797
C42_2 C 0.2947(14) 0.0709(5) 0.1605(4)
H28_2 H 0.395896 0.076323 0.156034
H46_2 H 0.154986 0.015864 0.316407
Cu6_2 Cu 0.78141(16) 0.26558(7) 0.18254(4)
O12_2 O 0.3696(8) 0.0479(4) 0.9970(2)
C31_2 C 0.2559(11) 0.0526(5) 0.9745(3)
C32_2 C 0.2611(12) 0.0982(5) 0.9378(4)
C33_2 C 0.1438(13) 0.1071(6) 0.9116(4)
H21_2 H 0.053891 0.088179 0.917709
C34_2 C 0.1570(14) 0.1438(6) 0.8760(4)
H22_2 H 0.075353 0.148439 0.857584
C35_2 C 0.3942(13) 0.1653(6) 0.8928(4)
H23_2 H 0.482291 0.185482 0.886564
C36_2 C 0.3880(12) 0.1285(5) 0.9293(4)
H24_2 H 0.469795 0.124451 0.947748
I1_2 I 0.47739(8) 0.76982(3) 0.28135(2)
I3_2 I 0.29363(8) 0.60343(3) 0.24537(2)
Cu1_2 Cu 0.54495(16) 0.88374(7) 0.27444(4)
Cu3_2 Cu 0.24383(16) 0.71634(7) 0.23906(5)
Cu4_2 Cu 0.01358(16) 0.63876(6) 0.24827(4)
O3_2 O 0.7030(9) 0.9288(4) 0.0569(2)
O4_2 O 0.9253(8) 0.9106(4) 0.0814(2)
O5_2 O 0.4206(8) 0.8853(4) 0.0575(2)
O15_2 O 0.9190(9) 0.8464(4) 0.0020(2)
O16_2 O 0.3470(10) 0.9366(4) 0.2707(3)
N2_2 N 0.6266(10) 0.8936(5) 0.2151(3)
N3_2 N 0.2625(11) 0.7538(4) 0.1789(3)
N5_2 N 0.6178(11) 0.9255(5) 0.3273(3)
N9_2 N 0.1078(12) 0.9464(5) 0.2780(4)
C7_2 C 0.7928(13) 0.9167(5) 0.0869(4)
C8_2 C 0.7352(12) 0.9095(5) 0.1319(3)
C9_2 C 0.6374(12) 0.9486(6) 0.1495(4)
H5_2 H 0.604124 0.981352 0.132945
C10_2 C 0.5862(13) 0.9407(6) 0.1916(3)
H6_2 H 0.521977 0.969139 0.203709
C11_2 C 0.7200(13) 0.8554(6) 0.1982(4)
H7_2 H 0.749156 0.822178 0.214933
C12_2 C 0.7762(13) 0.8619(6) 0.1577(4)
H8_2 H 0.843802 0.833677 0.147012
C13_2 C 0.3004(12) 0.8608(5) 0.0641(4)
C14_2 C 0.2878(13) 0.8237(5) 0.1044(3)
C15_2 C 0.4092(12) 0.8075(5) 0.1283(4)
H9_2 H 0.503138 0.820768 0.120038
C16_2 C 0.3913(13) 0.7717(5) 0.1642(3)
H10_2 H 0.475730 0.759250 0.179344
C17_2 C 0.1477(13) 0.7693(6) 0.1552(4)
H11_2 H 0.054977 0.755746 0.164361
C18_2 C 0.1539(12) 0.8038(6) 0.1184(4)
H12_2 H 0.067946 0.813594 0.103033
C26_2 C 0.7014(11) 0.9847(5) 0.4025(3)
C27_2 C 0.7593(13) 0.9303(6) 0.3926(4)
H17_2 H 0.827866 0.912080 0.411321
C28_2 C 0.7156(15) 0.9022(6) 0.3547(4)
H18_2 H 0.757122 0.864814 0.347887
C29_2 C 0.5639(15) 0.9788(6) 0.3374(4)
H19_2 H 0.496671 0.996605 0.318136
H25_2 H 0.013619 0.997022 0.127430
C45_2 C 0.7047(15) 0.7824(6) 0.0408(4)
H32_2 H 0.704034 0.739151 0.043707
H33_2 H 0.617083 0.798923 0.054105
H34_2 H 0.790771 0.798596 0.055198
C47_2 C 0.2016(15) 0.8976(6) 0.2131(4)
H38_2 H 0.130507 0.865635 0.216600
H39_2 H 0.294163 0.880921 0.203299
H40_2 H 0.165983 0.926084 0.191645
C48_2 C 0.2239(13) 0.9295(5) 0.2568(4)
C50_2 C 0.128(2) 0.9741(8) 0.3203(5)
H44_2 H 0.205808 0.953503 0.335928
H45_2 H 0.037847 0.971597 0.336852
N10_2 N 0.2013(10) 0.6896(4) 0.3543(3)
O7_2 O 0.3703(9) 0.9227(4) 0.9690(2)
N4_2 N 0.4353(11) 0.8652(5) 0.8137(3)
N8_2 N 0.7081(11) 0.7981(5) 0.9955(3)
C19_2 C 0.2764(14) 0.9055(5) 0.9414(4)
C20_2 C 0.3301(12) 0.8891(6) 0.8972(4)
C21_2 C 0.4715(13) 0.9004(5) 0.8862(3)
H13_2 H 0.536041 0.916144 0.907254
C22_2 C 0.5212(14) 0.8893(5) 0.8450(3)
H14_2 H 0.618939 0.898796 0.838117
C23_2 C 0.2981(14) 0.8532(6) 0.8254(4)
H15_2 H 0.235711 0.835754 0.804568
C24_2 C 0.2421(13) 0.8645(6) 0.8660(4)
H16_2 H 0.143676 0.855449 0.872385
C43_2 C 0.8209(14) 0.8356(5) 0.9301(4)
H29_2 H 0.747330 0.864828 0.921734
H30_2 H 0.799824 0.797603 0.916112
H31_2 H 0.916984 0.849573 0.921067
C44_2 C 0.8188(12) 0.8277(5) 0.9787(4)
C46_2 C 0.5741(13) 0.7800(6) 0.9717(4)
H35_2 H 0.581549 0.792696 0.941484
H36_2 H 0.489177 0.798738 0.985035
H37_2 H 0.563602 0.736802 0.972893
H26_2 H 0.914712 0.045587 0.185726
I2_2 I 0.98406(8) 0.75530(3) 0.27003(2)
C49_2 C 0.9577(14) 0.9403(7) 0.2621(5)
H41_2 H 0.959234 0.929651 0.231432
H42_2 H 0.906346 0.978027 0.265828
H43_2 H 0.907813 0.909212 0.278505
N11_2 N 0.9353(11) 0.6348(5) 0.1863(3)
N13_2 N 0.9125(10) 0.5902(4) 0.2956(3)
I2_3 I 0.01594(8) 0.25530(3) 0.22997(2)
H26_3 H 0.085288 0.545587 0.314274
C49_3 C 0.0423(14) 0.4403(7) 0.2379(5)
H41_3 H 0.040766 0.429651 0.268568
H42_3 H 0.093654 0.478027 0.234172
H43_3 H 0.092187 0.409212 0.221495
Tb1_2 Tb 0.49441(5) 0.47103(2) 0.47868(2)
I1_3 I 0.52261(8) 0.26982(3) 0.21865(2)
I3_3 I 0.70637(8) 0.10343(3) 0.25463(2)
Cu1_3 Cu 0.45505(16) 0.38374(7) 0.22556(4)
Cu3_3 Cu 0.75617(16) 0.21634(7) 0.26094(5)
O1_3 O 0.3242(8) 0.5449(3) 0.4676(2)
O2_3 O 0.0847(8) 0.5277(4) 0.4590(2)
O3_3 O 0.2970(9) 0.4288(4) 0.4431(2)
O4_3 O 0.0747(8) 0.4106(4) 0.4186(2)
O5_3 O 0.5794(8) 0.3853(4) 0.4425(2)
O6_2 O 0.8091(8) 0.3650(3) 0.4596(2)
O7_3 O 0.6297(9) 0.4227(4) 0.5310(2)
O8_2 O 0.8570(8) 0.4028(4) 0.5512(2)
O9_2 O 0.1299(8) 0.5152(4) 0.0450(2)
O10_2 O 0.3621(8) 0.5406(4) 0.0360(2)
O11_2 O 0.8584(8) 0.5232(4) 0.5221(3)
O12_3 O 0.6304(8) 0.5479(4) 0.5030(2)
O13_2 O 0.8004(8) 0.4808(3) 0.4331(2)
O14_3 O 0.5836(8) 0.5140(4) 0.4128(2)
O15_3 O 0.0810(9) 0.3464(4) 0.4980(2)
O16_3 O 0.6530(10) 0.4366(4) 0.2293(3)
N2_3 N 0.3734(10) 0.3936(5) 0.2849(3)
N3_3 N 0.7375(11) 0.2538(4) 0.3211(3)
N5_3 N 0.3822(11) 0.4255(5) 0.1727(3)
N6_2 N 0.7201(11) 0.6732(4) 0.6337(3)
N8_3 N 0.2919(11) 0.2981(5) 0.5045(3)
N9_3 N 0.8922(12) 0.4464(5) 0.2220(4)
C1_3 C 0.2029(12) 0.5528(5) 0.4503(3)
C2_3 C 0.1983(13) 0.6019(5) 0.4166(4)
C3_3 C 0.0736(12) 0.6347(5) 0.4079(4)
C4_3 C 0.0803(13) 0.6790(5) 0.3776(4)
C5_3 C 0.3180(13) 0.6558(6) 0.3621(4)
H3_3 H 0.402774 0.662264 0.345256
C6_3 C 0.3213(13) 0.6123(6) 0.3930(4)
H4_3 H 0.407108 0.589879 0.397970
C7_3 C 0.2072(13) 0.4167(5) 0.4131(4)
C8_3 C 0.2648(12) 0.4095(5) 0.3681(3)
C9_3 C 0.3626(12) 0.4486(6) 0.3505(4)
H5_3 H 0.395876 0.481352 0.367055
C10_3 C 0.4138(13) 0.4407(6) 0.3084(3)
H6_3 H 0.478023 0.469139 0.296291
C11_3 C 0.2800(13) 0.3554(6) 0.3018(4)
H7_3 H 0.250844 0.322178 0.285067
C12_3 C 0.2238(13) 0.3619(6) 0.3423(4)
H8_3 H 0.156198 0.333677 0.352988
C13_3 C 0.6996(12) 0.3608(5) 0.4359(4)
C14_3 C 0.7122(13) 0.3237(5) 0.3956(3)
C15_3 C 0.5908(12) 0.3075(5) 0.3717(4)
H9_3 H 0.496862 0.320768 0.379962
C16_3 C 0.6087(13) 0.2717(5) 0.3358(3)
H10_3 H 0.524270 0.259250 0.320656
C17_3 C 0.8523(13) 0.2693(6) 0.3448(4)
H11_3 H 0.945023 0.255746 0.335639
C18_3 C 0.8461(12) 0.3038(6) 0.3816(4)
H12_3 H 0.932054 0.313594 0.396967
C19_3 C 0.7236(14) 0.4055(5) 0.5586(4)
C20_3 C 0.6699(12) 0.3891(6) 0.6028(4)
C21_3 C 0.5285(13) 0.4004(5) 0.6138(3)
H13_3 H 0.463959 0.416144 0.592746
C22_3 C 0.4788(14) 0.3893(5) 0.6550(3)
H14_3 H 0.381061 0.398796 0.661883
C23_3 C 0.7019(14) 0.3532(6) 0.6746(4)
H15_3 H 0.764289 0.335754 0.695432
C24_3 C 0.7579(13) 0.3645(6) 0.6340(4)
H16_3 H 0.856324 0.355449 0.627615
C25_3 C 0.2624(13) 0.5152(5) 0.0560(4)
C26_3 C 0.2986(11) 0.4847(5) 0.0975(3)
C27_3 C 0.2407(13) 0.4303(6) 0.1074(4)
H17_3 H 0.172134 0.412080 0.088679
C28_3 C 0.2844(15) 0.4022(6) 0.1453(4)
H18_3 H 0.242878 0.364814 0.152113
C29_3 C 0.4361(15) 0.4788(6) 0.1626(4)
H19_3 H 0.503329 0.496605 0.181864
C30_3 C 0.3990(14) 0.5090(5) 0.1257(4)
H20_3 H 0.441993 0.546400 0.119547
C31_3 C 0.7441(11) 0.5526(5) 0.5255(3)
C32_3 C 0.7389(12) 0.5982(5) 0.5622(4)
C33_3 C 0.8562(13) 0.6071(6) 0.5884(4)
H21_3 H 0.946109 0.588179 0.582291
C34_3 C 0.8430(14) 0.6438(6) 0.6240(4)
H22_3 H 0.924647 0.648439 0.642416
C35_3 C 0.6058(13) 0.6653(6) 0.6072(4)
H23_3 H 0.517709 0.685482 0.613436
C36_3 C 0.6120(12) 0.6285(5) 0.5707(4)
H24_3 H 0.530205 0.624451 0.552252
C37_3 C 0.7183(13) 0.5075(5) 0.4076(4)
C38_3 C 0.7844(12) 0.5349(6) 0.3676(3)
C39_3 C 0.9290(12) 0.5239(6) 0.3562(4)
H25_3 H 0.986381 0.497022 0.372570
C40_3 C 0.9862(13) 0.5527(5) 0.3211(3)
C41_3 C 0.7719(14) 0.5984(6) 0.3056(4)
H27_3 H 0.716175 0.624554 0.288203
C42_3 C 0.7053(14) 0.5709(5) 0.3395(4)
H28_3 H 0.604104 0.576323 0.343966
C43_3 C 0.1791(14) 0.3356(5) 0.5699(4)
H29_3 H 0.252670 0.364828 0.578266
H30_3 H 0.200176 0.297603 0.583888
H31_3 H 0.083016 0.349573 0.578933
C44_3 C 0.1812(12) 0.3277(5) 0.5213(4)
C45_3 C 0.2953(15) 0.2824(6) 0.4592(4)
H32_3 H 0.295966 0.239151 0.456293
H33_3 H 0.382917 0.298923 0.445895
H34_3 H 0.209229 0.298596 0.444802
C46_3 C 0.4259(13) 0.2800(6) 0.5283(4)
H35_3 H 0.418451 0.292696 0.558516
H36_3 H 0.510823 0.298738 0.514965
H37_3 H 0.436398 0.236802 0.527107
C47_3 C 0.7984(15) 0.3976(6) 0.2869(4)
H38_3 H 0.869493 0.365635 0.283400
H39_3 H 0.705837 0.380921 0.296701
H40_3 H 0.834017 0.426084 0.308355
C48_3 C 0.7761(13) 0.4295(5) 0.2432(4)
C50_3 C 0.872(2) 0.4741(8) 0.1797(5)
H44_3 H 0.794192 0.453503 0.164072
H45_3 H 0.962153 0.471597 0.163148
H46_3 H 0.845014 0.515864 0.183593
Tb4_2 Tb 0.96325(5) 0.44078(2) 0.48532(2)
O19_2 O 0.3701(8) 0.4848(4) 0.5450(2)
O20_2 O 0.1379(8) 0.4594(4) 0.5360(2)
N12_2 N 0.7799(11) 0.3268(4) 0.1337(3)
Tb3_2 Tb 0.00559(5) 0.52897(2) 0.97868(2)
Tb5_2 Tb 0.53675(5) 0.55922(2) 0.98532(2)
H1_2 H 0.985466 0.626561 0.422682
H2_2 H 0.997002 0.703016 0.372839
N8_4 N 0.2081(11) 0.7019(5) 0.0045(3)
H13_4 H 0.036041 0.583856 0.092746
C22_4 C 0.0212(14) 0.6107(5) 0.1550(3)
H14_4 H 0.118939 0.601204 0.161883
C43_4 C 0.3209(14) 0.6644(5) 0.0699(4)
H29_4 H 0.247330 0.635172 0.078266
H30_4 H 0.299824 0.702397 0.083888
H31_4 H 0.416984 0.650427 0.078933
C44_4 C 0.3188(12) 0.6723(5) 0.0213(4)
C46_4 C 0.0741(13) 0.7200(6) 0.0283(4)
H35_4 H 0.081549 0.707304 0.058516
H37_4 H 0.063602 0.763198 0.027107
O18_2 O 0.6430(8) 0.5972(4) 0.0512(2)
O21_2 O 0.6416(8) 0.4768(4) 0.0221(3)
Cu1_4 Cu 0.04495(16) 0.61626(7) 0.72556(4)
O1_4 O 0.1758(8) 0.4551(3) 0.9676(2)
O2_4 O 0.4153(8) 0.4723(4) 0.9590(2)
O3_4 O 0.2030(9) 0.5712(4) 0.9431(2)
O4_4 O 0.4253(8) 0.5894(4) 0.9186(2)
O15_4 O 0.4190(9) 0.6536(4) 0.9980(2)
N2_4 N 0.1266(10) 0.6064(5) 0.7849(3)
N5_4 N 0.1178(11) 0.5745(5) 0.6727(3)
C1_4 C 0.2971(12) 0.4472(5) 0.9503(3)
C2_4 C 0.3017(13) 0.3981(5) 0.9166(4)
C3_4 C 0.4264(12) 0.3653(5) 0.9079(4)
H1_3 H 0.514534 0.373439 0.922682
C4_4 C 0.4197(13) 0.3210(5) 0.8776(4)
H2_3 H 0.502998 0.296984 0.872839
C5_4 C 0.1820(13) 0.3442(6) 0.8621(4)
H3_4 H 0.097226 0.337736 0.845256
C6_4 C 0.1787(13) 0.3877(6) 0.8930(4)
H4_4 H 0.092892 0.410121 0.897970
C7_4 C 0.2928(13) 0.5833(5) 0.9131(4)
C8_4 C 0.2352(12) 0.5905(5) 0.8681(3)
C9_4 C 0.1374(12) 0.5514(6) 0.8505(4)
H5_4 H 0.104124 0.518648 0.867055
C10_4 C 0.0862(13) 0.5593(6) 0.8084(3)
H6_4 H 0.021977 0.530861 0.796291
C11_4 C 0.2200(13) 0.6446(6) 0.8018(4)
H7_4 H 0.249156 0.677822 0.785067
C12_4 C 0.2762(13) 0.6381(6) 0.8423(4)
H8_4 H 0.343802 0.666323 0.852988
H9_4 H 0.003138 0.679232 0.879962
C25_4 C 0.2376(13) 0.4848(5) 0.5560(4)
C26_4 C 0.2014(11) 0.5153(5) 0.5975(3)
C27_4 C 0.2593(13) 0.5697(6) 0.6074(4)
H17_4 H 0.327866 0.587920 0.588679
C28_4 C 0.2156(15) 0.5978(6) 0.6453(4)
H18_4 H 0.257122 0.635186 0.652113
C29_4 C 0.0639(15) 0.5212(6) 0.6626(4)
C30_4 C 0.1010(14) 0.4910(5) 0.6257(4)
H20_4 H 0.058007 0.453600 0.619547
C45_4 C 0.2047(15) 0.7176(6) 0.9592(4)
H32_4 H 0.204034 0.760849 0.956293
H33_4 H 0.117083 0.701077 0.945895
H34_4 H 0.290771 0.701404 0.944802
O17_2 O 0.6909(8) 0.6350(3) 0.9596(2)
O22_2 O 0.6996(8) 0.5192(3) 0.9331(2)
O7_4 O 0.8703(9) 0.5773(4) 0.0310(2)
O12_4 O 0.8696(8) 0.4521(4) 0.0030(2)
C19_4 C 0.7764(14) 0.5945(5) 0.0586(4)
C20_4 C 0.8301(12) 0.6109(6) 0.1028(4)
C21_4 C 0.9715(13) 0.5996(5) 0.1138(3)
C23_4 C 0.7981(14) 0.6468(6) 0.1746(4)
H15_4 H 0.735711 0.664246 0.195432
C24_4 C 0.7421(13) 0.6355(6) 0.1340(4)
H16_4 H 0.643676 0.644551 0.127615
C31_4 C 0.7559(11) 0.4474(5) 0.0255(3)
C32_4 C 0.7611(12) 0.4018(5) 0.0622(4)
C33_4 C 0.6438(13) 0.3929(6) 0.0884(4)
H21_4 H 0.553891 0.411821 0.082291
C34_4 C 0.6570(14) 0.3562(6) 0.1240(4)
H22_4 H 0.575353 0.351561 0.142416
C35_4 C 0.8942(13) 0.3347(6) 0.1072(4)
H23_4 H 0.982291 0.314518 0.113436
C36_4 C 0.8880(12) 0.3715(5) 0.0707(4)
H24_4 H 0.969795 0.375549 0.052252
H36_4 H 0.989177 0.701262 0.014965
I1_4 I 0.97739(8) 0.73018(3) 0.71865(2)
I2_4 I 0.48406(8) 0.74470(3) 0.72997(2)
I3_4 I 0.79363(8) 0.89657(3) 0.75463(2)
Cu3_4 Cu 0.74383(16) 0.78366(7) 0.76094(5)
O5_4 O 0.9206(8) 0.6147(4) 0.9425(2)
O14_4 O 0.9164(8) 0.4860(4) 0.9128(2)
O16_4 O 0.8470(10) 0.5634(4) 0.7293(3)
N3_4 N 0.7625(11) 0.7462(4) 0.8211(3)
N9_4 N 0.6078(12) 0.5536(5) 0.7220(4)
C13_4 C 0.8004(12) 0.6392(5) 0.9359(4)
C14_4 C 0.7878(13) 0.6763(5) 0.8956(3)
C15_4 C 0.9092(12) 0.6925(5) 0.8717(4)
C16_4 C 0.8913(13) 0.7283(5) 0.8358(3)
H10_4 H 0.975730 0.740750 0.820656
C17_4 C 0.6477(13) 0.7307(6) 0.8448(4)
H11_4 H 0.554977 0.744254 0.835639
C18_4 C 0.6539(12) 0.6962(6) 0.8816(4)
H12_4 H 0.567946 0.686406 0.896967
H19_4 H 0.996671 0.503395 0.681864
C37_4 C 0.7817(13) 0.4925(5) 0.9076(4)
C38_4 C 0.7156(12) 0.4651(6) 0.8676(3)
C39_4 C 0.5710(12) 0.4761(6) 0.8562(4)
H25_4 H 0.513619 0.502978 0.872570
C40_4 C 0.5138(13) 0.4473(5) 0.8211(3)
H26_4 H 0.414712 0.454413 0.814274
C41_4 C 0.7281(14) 0.4016(6) 0.8056(4)
H27_4 H 0.783825 0.375446 0.788203
C42_4 C 0.7947(14) 0.4291(5) 0.8395(4)
H28_4 H 0.895896 0.423677 0.843966
C47_4 C 0.7016(15) 0.6024(6) 0.7869(4)
H38_4 H 0.630507 0.634365 0.783400
H39_4 H 0.794163 0.619079 0.796701
H40_4 H 0.665983 0.573916 0.808355
C48_4 C 0.7239(13) 0.5705(5) 0.7432(4)
C49_4 C 0.4577(14) 0.5597(7) 0.7379(5)
H41_4 H 0.459234 0.570349 0.768568
H42_4 H 0.406346 0.521973 0.734172
H43_4 H 0.407813 0.590788 0.721495
C50_4 C 0.628(2) 0.5259(8) 0.6797(5)
H44_4 H 0.705808 0.546497 0.664072
H45_4 H 0.537847 0.528403 0.663148
H46_4 H 0.654986 0.484136 0.683593
H1_4 H 0.014534 0.126561 0.077318
H2_4 H 0.002998 0.203016 0.127161
loop_
_geom_bond_atom_site_label_1
_geom_bond_atom_site_label_2
_geom_bond_site_symmetry_1
_geom_bond_site_symmetry_2
I2 Cu2 1_555 1_555
I3 Cu3 1_555 1_555
Cu2 I1 1_555 1_555
Cu3 I1 1_555 1_555
Cu4 I2 1_555 1_555
O6 C13 1_555 1_555
O8 C19 1_555 1_555
O16 C48 1_555 1_555
N3 Cu3 1_555 1_555
N9 C48 1_555 1_555
C13 O5 1_555 1_555
C14 C13 1_555 1_555
C15 C14 1_555 1_555
C16 N3 1_555 1_555
H10 C16 1_555 1_555
C17 N3 1_555 1_555
H11 C17 1_555 1_555
C18 C14 1_555 1_555
H12 C18 1_555 1_555
C19 O7 1_555 1_555
C20 C19 1_555 1_555
C21 C20 1_555 1_555
C23 N4 1_555 1_555
H15 C23 1_555 1_555
C24 C20 1_555 1_555
H16 C24 1_555 1_555
C47 H38 1_555 1_555
H39 C47 1_555 1_555
H40 C47 1_555 1_555
C48 C47 1_555 1_555
C49 N9 1_555 1_555
H41 C49 1_555 1_555
H42 C49 1_555 1_555
H43 C49 1_555 1_555
C50 N9 1_555 1_555
H44 C50 1_555 1_555
H45 C50 1_555 1_555
Tb4 O6 1_555 1_555
N10 Cu2 1_555 1_555
N11 Cu4 1_555 1_555
N12 Cu2 1_555 1_555
N13 Cu4 1_555 1_555
I2 Cu3 1_555 1_555
I3 Cu4 1_555 1_555
O8 Tb4 1_555 1_555
O13 Tb4 1_555 1_555
C15 C16 1_555 1_555
C17 C18 1_555 1_555
C23 C24 1_555 1_555
O11 C31 1_555 1_555
N6 C34 1_555 1_555
N7 C40 1_555 1_555
C31 O12 1_555 1_555
C32 C31 1_555 1_555
C33 C32 1_555 1_555
H21 C33 1_555 1_555
C34 C33 1_555 1_555
H22 C34 1_555 1_555
C35 N6 1_555 1_555
H23 C35 1_555 1_555
C36 C32 1_555 1_555
H24 C36 1_555 1_555
C37 O14 1_555 1_555
C38 C37 1_555 1_555
C39 C38 1_555 1_555
C40 C39 1_555 1_555
H26 C40 1_555 1_555
C41 N7 1_555 1_555
H27 C41 1_555 1_555
C42 C38 1_555 1_555
H28 C42 1_555 1_555
Cu5 N6 1_555 1_555
Cu8 N7 1_555 1_555
C35 C36 1_555 1_555
C41 C42 1_555 1_555
O3 Tb1 1_555 1_555
O4 Tb4 1_555 1_555
O15 Tb4 1_555 1_555
N2 Cu1 1_555 1_555
N5 Cu1 1_555 1_555
N8 C44 1_555 1_555
C7 O3 1_555 1_555
C8 C7 1_555 1_555
C9 C8 1_555 1_555
H5 C9 1_555 1_555
C10 N2 1_555 1_555
H6 C10 1_555 1_555
C11 N2 1_555 1_555
H7 C11 1_555 1_555
C12 C8 1_555 1_555
H8 C12 1_555 1_555
H14 C22 1_555 1_555
C26 C27 1_555 1_555
C27 H17 1_555 1_555
C28 N5 1_555 1_555
H18 C28 1_555 1_555
C29 N5 1_555 1_555
C43 H29 1_555 1_555
H30 C43 1_555 1_555
H31 C43 1_555 1_555
C44 O15 1_555 1_555
C45 N8 1_555 1_555
H32 C45 1_555 1_555
H33 C45 1_555 1_555
H34 C45 1_555 1_555
C46 N8 1_555 1_555
H35 C46 1_555 1_555
H37 C46 1_555 1_555
O19 Tb1 1_555 1_555
O20 Tb4 1_555 1_555
O4 C7 1_555 1_555
C9 C10 1_555 1_555
C11 C12 1_555 1_555
C27 C28 1_555 1_555
C43 C44 1_555 1_555
O1 C1 1_555 1_555
O2 C1 1_555 1_555
O9 C25 1_555 1_555
O10 C25 1_555 1_555
N1 C4 1_555 1_555
C1 C2 1_555 1_555
C2 C3 1_555 1_555
C3 H1 1_555 1_555
C4 C3 1_555 1_555
H2 C4 1_555 1_555
C5 N1 1_555 1_555
H3 C5 1_555 1_555
C6 C2 1_555 1_555
H4 C6 1_555 1_555
H20 C30 1_555 1_555
Cu6 N1 1_555 1_555
C5 C6 1_555 1_555
O17 Tb5 1_555 1_555
O22 Tb5 1_555 1_555
O1_2 C1_2 1_555 1_555
O2_2 C1_2 1_555 1_555
O19 C25_2 1_555 1_555
O20 C25_2 1_555 1_555
N1_2 C4_2 1_555 1_555
N7_2 C40_2 1_555 1_555
C1_2 C2_2 1_555 1_555
C2_2 C3_2 1_555 1_555
C4_2 C3_2 1_555 1_555
C5_2 N1_2 1_555 1_555
H3_2 C5_2 1_555 1_555
C6_2 C2_2 1_555 1_555
H4_2 C6_2 1_555 1_555
H20_2 C30_2 1_555 1_555
C37_2 O14_2 1_555 1_555
C38_2 C37_2 1_555 1_555
C39_2 C38_2 1_555 1_555
C40_2 C39_2 1_555 1_555
C41_2 N7_2 1_555 1_555
H27_2 C41_2 1_555 1_555
C42_2 C38_2 1_555 1_555
H28_2 C42_2 1_555 1_555
Cu6_2 N1_2 1_555 1_555
C5_2 C6_2 1_555 1_555
C41_2 C42_2 1_555 1_555
O21 C31_2 1_555 1_555
N12 C34_2 1_555 1_555
C31_2 O12_2 1_555 1_555
C32_2 C31_2 1_555 1_555
C33_2 C32_2 1_555 1_555
H21_2 C33_2 1_555 1_555
C34_2 C33_2 1_555 1_555
H22_2 C34_2 1_555 1_555
C35_2 N12 1_555 1_555
H23_2 C35_2 1_555 1_555
C36_2 C32_2 1_555 1_555
H24_2 C36_2 1_555 1_555
C35_2 C36_2 1_555 1_555
I1_2 Cu1_2 1_555 1_555
I3_2 Cu3_2 1_555 1_555
Cu1_2 O16_2 1_555 1_555
Cu5 I1_2 1_555 1_555
Cu3_2 I1_2 1_555 1_555
O3_2 Tb3 1_555 1_555
O5_2 Tb3 1_555 1_555
O17 C13_2 1_555 1_555
O16_2 C48_2 1_555 1_555
N2_2 Cu1_2 1_555 1_555
N3_2 Cu3_2 1_555 1_555
N5_2 Cu1_2 1_555 1_555
N9_2 C48_2 1_555 1_555
C7_2 O3_2 1_555 1_555
C8_2 C7_2 1_555 1_555
C9_2 C8_2 1_555 1_555
H5_2 C9_2 1_555 1_555
C10_2 N2_2 1_555 1_555
H6_2 C10_2 1_555 1_555
C11_2 N2_2 1_555 1_555
H7_2 C11_2 1_555 1_555
C12_2 C8_2 1_555 1_555
H8_2 C12_2 1_555 1_555
C13_2 O5_2 1_555 1_555
C14_2 C13_2 1_555 1_555
C15_2 C14_2 1_555 1_555
H9_2 C15_2 1_555 1_555
C16_2 N3_2 1_555 1_555
H10_2 C16_2 1_555 1_555
C17_2 N3_2 1_555 1_555
H11_2 C17_2 1_555 1_555
C18_2 C14_2 1_555 1_555
H12_2 C18_2 1_555 1_555
C26_2 C27_2 1_555 1_555
C27_2 H17_2 1_555 1_555
C28_2 N5_2 1_555 1_555
H18_2 C28_2 1_555 1_555
C29_2 N5_2 1_555 1_555
H19_2 C29_2 1_555 1_555
H32_2 C45_2 1_555 1_555
H33_2 C45_2 1_555 1_555
H34_2 C45_2 1_555 1_555
C47_2 H38_2 1_555 1_555
H39_2 C47_2 1_555 1_555
H40_2 C47_2 1_555 1_555
C48_2 C47_2 1_555 1_555
C50_2 N9_2 1_555 1_555
H44_2 C50_2 1_555 1_555
H45_2 C50_2 1_555 1_555
N10_2 Cu5 1_555 1_555
I3_2 Cu4_2 1_555 1_555
O4_2 C7_2 1_555 1_555
C9_2 C10_2 1_555 1_555
C11_2 C12_2 1_555 1_555
C15_2 C16_2 1_555 1_555
C17_2 C18_2 1_555 1_555
C27_2 C28_2 1_555 1_555
O18 C19_2 1_555 1_555
N4_2 C22_2 1_555 1_555
N8_2 C44_2 1_555 1_555
C19_2 O7_2 1_555 1_555
C20_2 C19_2 1_555 1_555
C21_2 C20_2 1_555 1_555
H13_2 C21_2 1_555 1_555
C22_2 C21_2 1_555 1_555
H14_2 C22_2 1_555 1_555
C23_2 N4_2 1_555 1_555
H15_2 C23_2 1_555 1_555
C24_2 C20_2 1_555 1_555
H16_2 C24_2 1_555 1_555
C43_2 H29_2 1_555 1_555
H30_2 C43_2 1_555 1_555
H31_2 C43_2 1_555 1_555
C46_2 N8_2 1_555 1_555
H35_2 C46_2 1_555 1_555
H36_2 C46_2 1_555 1_555
H37_2 C46_2 1_555 1_555
Cu8 N4_2 1_555 1_555
C23_2 C24_2 1_555 1_555
C43_2 C44_2 1_555 1_555
H41_2 C49_2 1_555 1_555
H42_2 C49_2 1_555 1_555
H43_2 C49_2 1_555 1_555
H41_3 C49_3 1_555 1_555
H42_3 C49_3 1_555 1_555
H43_3 C49_3 1_555 1_555
Tb1_2 O1_3 1_555 1_555
I1_3 Cu1_3 1_555 1_555
I3_3 Cu3_3 1_555 1_555
Cu1_3 O16_3 1_555 1_555
Cu6_2 I1_3 1_555 1_555
Cu3_3 I1_3 1_555 1_555
O1_3 C1_3 1_555 1_555
O2_3 C1_3 1_555 1_555
O3_3 Tb1_2 1_555 1_555
O5_3 Tb1_2 1_555 1_555
O6_2 C13_3 1_555 1_555
O7_3 Tb1_2 1_555 1_555
O8_2 C19_3 1_555 1_555
O9_2 C25_3 1_555 1_555
O10_2 C25_3 1_555 1_555
O11_2 C31_3 1_555 1_555
O12_3 Tb1_2 1_555 1_555
O13_2 C37_3 1_555 1_555
O14_3 Tb1_2 1_555 1_555
O16_3 C48_3 1_555 1_555
N10_2 C4_3 1_555 1_555
N2_3 Cu1_3 1_555 1_555
N3_3 Cu3_3 1_555 1_555
N11 C22_3 1_555 1_555
N5_3 Cu1_3 1_555 1_555
N6_2 C34_3 1_555 1_555
N13_2 C40_3 1_555 1_555
N8_3 C44_3 1_555 1_555
N9_3 C48_3 1_555 1_555
C1_3 C2_3 1_555 1_555
C2_3 C3_3 1_555 1_555
C4_3 C3_3 1_555 1_555
C5_3 N10_2 1_555 1_555
H3_3 C5_3 1_555 1_555
C6_3 C2_3 1_555 1_555
H4_3 C6_3 1_555 1_555
C7_3 O3_3 1_555 1_555
C8_3 C7_3 1_555 1_555
C9_3 C8_3 1_555 1_555
H5_3 C9_3 1_555 1_555
C10_3 N2_3 1_555 1_555
H6_3 C10_3 1_555 1_555
C11_3 N2_3 1_555 1_555
H7_3 C11_3 1_555 1_555
C12_3 C8_3 1_555 1_555
H8_3 C12_3 1_555 1_555
C13_3 O5_3 1_555 1_555
C14_3 C13_3 1_555 1_555
C15_3 C14_3 1_555 1_555
H9_3 C15_3 1_555 1_555
C16_3 N3_3 1_555 1_555
H10_3 C16_3 1_555 1_555
C17_3 N3_3 1_555 1_555
H11_3 C17_3 1_555 1_555
C18_3 C14_3 1_555 1_555
H12_3 C18_3 1_555 1_555
C19_3 O7_3 1_555 1_555
C20_3 C19_3 1_555 1_555
C21_3 C20_3 1_555 1_555
H13_3 C21_3 1_555 1_555
C22_3 C21_3 1_555 1_555
H14_3 C22_3 1_555 1_555
C23_3 N11 1_555 1_555
H15_3 C23_3 1_555 1_555
C24_3 C20_3 1_555 1_555
H16_3 C24_3 1_555 1_555
C25_3 C26_3 1_555 1_555
C26_3 C27_3 1_555 1_555
C27_3 H17_3 1_555 1_555
C28_3 N5_3 1_555 1_555
H18_3 C28_3 1_555 1_555
C29_3 N5_3 1_555 1_555
H19_3 C29_3 1_555 1_555
C30_3 C26_3 1_555 1_555
H20_3 C30_3 1_555 1_555
C31_3 O12_3 1_555 1_555
C32_3 C31_3 1_555 1_555
C33_3 C32_3 1_555 1_555
H21_3 C33_3 1_555 1_555
C34_3 C33_3 1_555 1_555
H22_3 C34_3 1_555 1_555
C35_3 N6_2 1_555 1_555
H23_3 C35_3 1_555 1_555
C36_3 C32_3 1_555 1_555
H24_3 C36_3 1_555 1_555
C37_3 O14_3 1_555 1_555
C38_3 C37_3 1_555 1_555
C39_3 C38_3 1_555 1_555
H25_3 C39_3 1_555 1_555
C40_3 C39_3 1_555 1_555
C41_3 N13_2 1_555 1_555
H27_3 C41_3 1_555 1_555
C42_3 C38_3 1_555 1_555
H28_3 C42_3 1_555 1_555
C43_3 H29_3 1_555 1_555
H30_3 C43_3 1_555 1_555
H31_3 C43_3 1_555 1_555
C44_3 O15_3 1_555 1_555
C45_3 N8_3 1_555 1_555
H32_3 C45_3 1_555 1_555
H33_3 C45_3 1_555 1_555
H34_3 C45_3 1_555 1_555
C46_3 N8_3 1_555 1_555
H35_3 C46_3 1_555 1_555
H36_3 C46_3 1_555 1_555
H37_3 C46_3 1_555 1_555
C47_3 H38_3 1_555 1_555
H39_3 C47_3 1_555 1_555
H40_3 C47_3 1_555 1_555
C48_3 C47_3 1_555 1_555
C50_3 N9_3 1_555 1_555
H44_3 C50_3 1_555 1_555
H45_3 C50_3 1_555 1_555
H46_3 C50_3 1_555 1_555
Tb4_2 O6_2 1_555 1_555
Cu6 N6_2 1_555 1_555
O19_2 Tb1_2 1_555 1_555
N12_2 Cu6_2 1_555 1_555
I3_3 Cu7 1_555 1_555
O4_3 C7_3 1_555 1_555
O8_2 Tb4_2 1_555 1_555
O11_2 Tb4_2 1_555 1_555
O13_2 Tb4_2 1_555 1_555
C5_3 C6_3 1_555 1_555
C9_3 C10_3 1_555 1_555
C11_3 C12_3 1_555 1_555
C15_3 C16_3 1_555 1_555
C17_3 C18_3 1_555 1_555
C23_3 C24_3 1_555 1_555
C27_3 C28_3 1_555 1_555
C29_3 C30_3 1_555 1_555
C35_3 C36_3 1_555 1_555
C41_3 C42_3 1_555 1_555
C43_3 C44_3 1_555 1_555
N8_4 C44_4 1_555 1_555
H14_4 C22_4 1_555 1_555
C43_4 H29_4 1_555 1_555
H30_4 C43_4 1_555 1_555
H31_4 C43_4 1_555 1_555
C46_4 N8_4 1_555 1_555
H35_4 C46_4 1_555 1_555
H37_4 C46_4 1_555 1_555
C43_4 C44_4 1_555 1_555
Tb3_2 O1_4 1_555 1_555
Tb5_2 O2_4 1_555 1_555
O1_4 C1_4 1_555 1_555
O2_4 C1_4 1_555 1_555
O3_4 Tb3_2 1_555 1_555
O4_4 Tb5_2 1_555 1_555
O19_2 C25_4 1_555 1_555
O20_2 C25_4 1_555 1_555
O15_4 Tb5_2 1_555 1_555
N10 C4_4 1_555 1_555
N2_4 Cu1_4 1_555 1_555
N5_4 Cu1_4 1_555 1_555
C1_4 C2_4 1_555 1_555
C2_4 C3_4 1_555 1_555
C3_4 H1_3 1_555 1_555
C4_4 C3_4 1_555 1_555
H2_3 C4_4 1_555 1_555
C5_4 N10 1_555 1_555
H3_4 C5_4 1_555 1_555
C6_4 C2_4 1_555 1_555
H4_4 C6_4 1_555 1_555
C7_4 O3_4 1_555 1_555
C8_4 C7_4 1_555 1_555
C9_4 C8_4 1_555 1_555
H5_4 C9_4 1_555 1_555
C10_4 N2_4 1_555 1_555
H6_4 C10_4 1_555 1_555
C11_4 N2_4 1_555 1_555
H7_4 C11_4 1_555 1_555
C12_4 C8_4 1_555 1_555
H8_4 C12_4 1_555 1_555
C25_4 C26_4 1_555 1_555
C26_4 C27_4 1_555 1_555
C27_4 H17_4 1_555 1_555
C28_4 N5_4 1_555 1_555
H18_4 C28_4 1_555 1_555
C29_4 N5_4 1_555 1_555
C30_4 C26_4 1_555 1_555
H20_4 C30_4 1_555 1_555
H32_4 C45_4 1_555 1_555
H33_4 C45_4 1_555 1_555
H34_4 C45_4 1_555 1_555
O17_2 Tb5_2 1_555 1_555
O22_2 Tb5_2 1_555 1_555
O4_4 C7_4 1_555 1_555
C5_4 C6_4 1_555 1_555
C9_4 C10_4 1_555 1_555
C11_4 C12_4 1_555 1_555
C27_4 C28_4 1_555 1_555
C29_4 C30_4 1_555 1_555
O18_2 C19_4 1_555 1_555
O21_2 C31_4 1_555 1_555
N12_2 C34_4 1_555 1_555
C19_4 O7_4 1_555 1_555
C20_4 C19_4 1_555 1_555
C21_4 C20_4 1_555 1_555
C23_4 N11_2 1_555 1_555
H15_4 C23_4 1_555 1_555
C24_4 C20_4 1_555 1_555
H16_4 C24_4 1_555 1_555
C31_4 O12_4 1_555 1_555
C32_4 C31_4 1_555 1_555
C33_4 C32_4 1_555 1_555
H21_4 C33_4 1_555 1_555
C34_4 C33_4 1_555 1_555
H22_4 C34_4 1_555 1_555
C35_4 N12_2 1_555 1_555
H23_4 C35_4 1_555 1_555
C36_4 C32_4 1_555 1_555
H24_4 C36_4 1_555 1_555
C23_4 C24_4 1_555 1_555
C35_4 C36_4 1_555 1_555
I2_4 Cu6 1_555 1_555
I3_4 Cu3_4 1_555 1_555
Cu6 I1_4 1_555 1_555
Cu3_4 I1_4 1_555 1_555
Cu8 I2_4 1_555 1_555
O17_2 C13_4 1_555 1_555
O22_2 C37_4 1_555 1_555
O16_4 C48_4 1_555 1_555
N3_4 Cu3_4 1_555 1_555
N13 C40_4 1_555 1_555
N9_4 C48_4 1_555 1_555
C13_4 O5_4 1_555 1_555
C14_4 C13_4 1_555 1_555
C15_4 C14_4 1_555 1_555
C16_4 N3_4 1_555 1_555
H10_4 C16_4 1_555 1_555
C17_4 N3_4 1_555 1_555
H11_4 C17_4 1_555 1_555
C18_4 C14_4 1_555 1_555
H12_4 C18_4 1_555 1_555
C37_4 O14_4 1_555 1_555
C38_4 C37_4 1_555 1_555
C39_4 C38_4 1_555 1_555
H25_4 C39_4 1_555 1_555
C40_4 C39_4 1_555 1_555
H26_4 C40_4 1_555 1_555
C41_4 N13 1_555 1_555
H27_4 C41_4 1_555 1_555
C42_4 C38_4 1_555 1_555
H28_4 C42_4 1_555 1_555
C47_4 H38_4 1_555 1_555
H39_4 C47_4 1_555 1_555
H40_4 C47_4 1_555 1_555
C48_4 C47_4 1_555 1_555
C49_4 N9_4 1_555 1_555
H41_4 C49_4 1_555 1_555
H42_4 C49_4 1_555 1_555
H43_4 C49_4 1_555 1_555
C50_4 N9_4 1_555 1_555
H44_4 C50_4 1_555 1_555
H45_4 C50_4 1_555 1_555
H46_4 C50_4 1_555 1_555
I2_4 Cu3_4 1_555 1_555
I3_4 Cu8 1_555 1_555
C15_4 C16_4 1_555 1_555
C17_4 C18_4 1_555 1_555
C41_4 C42_4 1_555 1_555

#END
