
###############################################################################
#
# This file contains modified crystal structure data generated from the
# MOF subset of the Cambridge Structural Database (CSD) v543 
# hosted by the Cambridge Crystallographic Data Centre (CCDC).
#
# This work is licensed under the Creative Commons
# Attribution-NonCommercial-ShareAlike 4.0 International License.
# To view a copy of this license, visit
# http://creativecommons.org/licenses/by-nc-sa/4.0/
# or send a letter to
# Creative Commons, PO Box 1866, Mountain View, CA 94042, USA.
#
# CIF created using the CSD Python API on 29 September 2022
# The structure has been converted into the P1 space group
# The structure has a 3D framework
# The original CSD entry TEBLEU is in the orthorhombic crystal system
# The original CSD entry TEBLEU is in a Sohncke space group
# The framework has been calculated to contain at least 10.0% void space
# The void calculation uses a probe of radius 1.32A, grid spacing 0.4
#
###############################################################################

data_TEBLEU
_chemical_formula_moiety         '(C200 H184 Cu14 I12 N36 O64 Sm8)n'
_symmetry_cell_setting           triclinic
_symmetry_space_group_name_H-M   'P 1'
_symmetry_Int_Tables_number      1
_space_group_name_Hall           'P 1'
loop_
_symmetry_equiv_pos_site_id
_symmetry_equiv_pos_as_xyz
1 x,y,z
_cell_length_a                   9.321(3)
_cell_length_b                   22.934(7)
_cell_length_c                   31.037(10)
_cell_angle_alpha                90
_cell_angle_beta                 90
_cell_angle_gamma                90
_cell_volume                     6634.71
loop_
_atom_site_label
_atom_site_type_symbol
_atom_site_fract_x
_atom_site_fract_y
_atom_site_fract_z
H2 H 0.0014 0.6802 0.3783
Sm5 Sm 0.00873(5) 0.52988(2) 0.477626(16)
Sm1 Sm 0.54015(5) 0.55829(2) 0.484374(16)
I1 I 0.51505(8) 0.24483(3) 0.27097(2)
I2 I 0.20991(8) 0.39416(3) 0.24612(3)
I3 I 0.02542(8) 0.22912(3) 0.28294(2)
Cu1 Cu 0.28362(16) 0.23400(6) 0.31934(5)
Cu2 Cu 0.48966(16) 0.35964(6) 0.24853(5)
Cu4 Cu 0.25642(16) 0.28313(7) 0.23984(5)
O1 O 0.9255(7) 0.6153(4) 0.4405(3)
O2 O 0.6947(7) 0.6339(3) 0.4573(3)
N1 N 0.2979(10) 0.3075(4) 0.3564(4)
O3 O 0.4176(7) 0.4710(3) 0.4580(3)
O4 O 0.2089(7) 0.5704(4) 0.4412(3)
O5 O 0.1474(7) 0.0232(3) 0.4783(3)
N2 N 0.1271(9) 0.6062(5) 0.2835(3)
C1 C 0.3018(10) 0.4456(4) 0.4499(3)
O6 O 0.4296(7) 0.5880(4) 0.4160(3)
C2 C 0.8035(11) 0.6390(4) 0.4343(4)
O7 O 0.7088(7) 0.5181(3) 0.4318(2)
O8 O 0.4198(7) 0.6522(3) 0.4967(3)
N3 N 0.7646(10) 0.7464(4) 0.3200(3)
N4 N 0.2841(10) 0.1711(4) 0.3663(3)
C3 C 0.1438(12) 0.5514(6) 0.3480(4)
H1 H 0.1144 0.5191 0.3638
C4 C 0.9104(11) 0.6930(5) 0.3705(4)
O9 O 0.8535(8) 0.4023(4) 0.0508(3)
C5 C 0.5270(11) 0.3986(6) 0.1135(4)
H3 H 0.4646 0.4150 0.0935
N5 N 0.3821(10) 0.4253(5) 0.6718(3)
N6 N 0.5652(10) 0.3642(4) 0.1859(3)
C6 C 0.5195(11) 0.4446(6) 0.3206(4)
H4 H 0.4238 0.4517 0.3140
O10 O 0.1533(9) 0.0612(5) 0.2702(4)
C7 C 0.2379(10) 0.5901(4) 0.3662(3)
C8 C 0.2609(11) 0.0527(5) 0.4743(4)
C9 C 0.5763(10) 0.4731(6) 0.3554(4)
H5 H 0.5199 0.4982 0.3717
C10 C 0.3194(12) 0.6732(4) 0.5185(5)
O11 O 0.6295(8) 0.4205(3) 0.0310(3)
C11 C 0.7208(10) 0.4057(5) 0.0576(3)
C12 C 0.1500(13) 0.1052(6) 0.4119(5)
H6 H 0.0625 0.0875 0.4179
C13 C 0.2642(10) 0.5166(5) 0.5557(3)
C14 C 0.1814(12) 0.3857(6) 0.3935(4)
H7 H 0.0981 0.4072 0.3980
C15 C 0.2660(11) 0.0950(5) 0.4373(4)
C16 C 0.2963(10) 0.5826(5) 0.4109(3)
O12 O 0.3713(8) 0.0470(4) 0.4964(3)
O13 O 0.1350(7) 0.5170(4) 0.5451(2)
C17 C 0.7841(10) 0.4909(5) 0.4055(4)
N7 N 0.5901(9) 0.4078(4) 0.2958(3)
O14 O 0.3634(8) 0.5411(4) 0.5371(3)
O15 O 0.9195(7) 0.4846(4) 0.4110(3)
C18 C 0.4245(11) 0.3647(5) 0.4084(5)
H8 H 0.5102 0.3727 0.4225
C19 C 0.7910(11) 0.6769(4) 0.3942(4)
O16 O 0.1802(7) 0.4556(3) 0.4665(3)
C20 C 0.3039(10) 0.3981(4) 0.4171(4)
C21 C 0.7222(10) 0.4638(5) 0.3662(3)
C22 C 0.0918(12) 0.5593(6) 0.3069(4)
H9 H 0.0308 0.5314 0.2951
C23 C 0.3016(10) 0.4843(5) 0.5972(4)
C24 C 0.4789(12) 0.3852(6) 0.1548(4)
H10 H 0.3826 0.3911 0.1612
C25 C 0.3957(12) 0.1622(7) 0.3932(5)
H11 H 0.4810 0.1814 0.3869
C26 C 0.8918(11) 0.7282(5) 0.3355(3)
H12 H 0.9739 0.7407 0.3211
C27 C 0.2785(13) 0.6373(6) 0.3410(4)
H13 H 0.3457 0.6638 0.3513
C28 C 0.6583(11) 0.6962(5) 0.3811(3)
H14 H 0.5768 0.6870 0.3969
N8 N 0.2142(11) 0.7033(5) 0.5005(4)
C29 C 0.6472(11) 0.7301(5) 0.3434(4)
H15 H 0.5568 0.7418 0.3341
C30 C 0.7540(12) 0.3637(7) 0.1323(4)
H16 H 0.8488 0.3551 0.1254
C31 C 0.1827(12) 0.3415(5) 0.3633(4)
H17 H 0.1005 0.3350 0.3471
C32 C 0.7992(13) 0.4272(6) 0.3385(5)
H18 H 0.8972 0.4221 0.3426
C33 C 0.1635(16) 0.1422(7) 0.3769(5)
H19 H 0.0835 0.1475 0.3594
C34 C 0.2931(14) 0.4025(6) 0.6443(5)
H20 H 0.2574 0.3654 0.6499
C35 C 0.7319(13) 0.3988(6) 0.3054(4)
H21 H 0.7842 0.3725 0.2888
C36 C 0.4184(12) 0.3209(6) 0.3797(4)
H22 H 0.5003 0.2985 0.3754
C37 C 0.6661(10) 0.3874(5) 0.1025(4)
C38 C 0.3245(14) 0.6659(6) 0.5674(5)
H23 H 0.2745 0.6309 0.5754
H24 H 0.2795 0.6988 0.5809
H25 H 0.4225 0.6633 0.5767
C39 C 0.7013(13) 0.3519(6) 0.1741(4)
H26 H 0.7625 0.3352 0.1943
C40 C 0.2197(12) 0.6448(6) 0.3010(4)
H27 H 0.2446 0.6778 0.2853
C41 C 0.2998(18) 0.1038(8) 0.2137(6)
H28 H 0.2079 0.1126 0.2013
H29 H 0.3538 0.0801 0.1940
H30 H 0.3508 0.1394 0.2191
C42 C 0.4324(16) 0.4783(6) 0.6616(5)
H31 H 0.4963 0.4953 0.6809
N9 N 0.3913(13) 0.0524(6) 0.2771(5)
C43 C 0.2196(16) 0.7174(7) 0.4564(6)
H32 H 0.3163 0.7133 0.4462
H33 H 0.1883 0.7569 0.4523
H34 H 0.1579 0.6915 0.4406
C44 C 0.3991(15) 0.5094(6) 0.6260(5)
H35 H 0.4393 0.5459 0.6209
C45 C 0.0857(13) 0.7210(7) 0.5252(7)
H36 H 0.0816 0.6994 0.5516
H37 H 0.0013 0.7131 0.5084
H38 H 0.0907 0.7619 0.5314
C46 C 0.2476(13) 0.4312(6) 0.6062(5)
H39 H 0.1818 0.4136 0.5877
C47 C 0.2783(15) 0.0702(5) 0.2569(6)
C48 C 0.3944(12) 0.1264(6) 0.4298(5)
H40 H 0.4731 0.1234 0.4481
C49 C 0.5405(14) 0.0593(9) 0.2629(8)
H41 H 0.5424 0.0781 0.2352
H42 H 0.5852 0.0217 0.2608
H43 H 0.5917 0.0828 0.2834
C50 C 0.364(3) 0.0210(12) 0.3189(7)
H44 H 0.3433 0.0489 0.3411
Cu5 Cu 0.45569(16) 0.38307(7) 0.72436(5)
Cu6 Cu 0.04431(16) 0.61693(7) 0.22436(5)
Cu7 Cu 0.74358(16) 0.78313(7) 0.26016(5)
O18 O 0.6474(7) 0.4768(3) 0.5217(3)
N11 N 0.2354(10) 0.2464(4) 0.1800(3)
O19 O 0.6465(8) 0.5977(4) 0.5508(3)
Sm3 Sm 0.95985(5) 0.44171(2) 0.984374(16)
Sm6 Sm 0.49127(5) 0.47012(2) 0.977626(16)
H45 H 0.4477 0.9990 0.3268
H46 H 0.2840 0.9951 0.3156
Sm4 Sm 0.04015(5) 0.94171(2) 0.515626(16)
Sm7 Sm 0.50873(5) 0.97012(2) 0.522374(16)
Cu3 Cu 0.95569(16) 0.11693(7) 0.27564(5)
N10 N 0.8729(9) 0.1062(5) 0.2165(3)
N12 N 0.8821(10) 0.0747(5) 0.3282(3)
O20 O 0.8705(8) 0.5795(3) 0.5310(3)
O21 O 0.8713(8) 0.4530(4) 0.5036(3)
Sm4_2 Sm 0.45985(5) 0.05829(2) 0.015626(16)
N5_2 N 0.1179(10) 0.5747(5) 0.1718(3)
C10_2 C 0.1806(12) 0.3268(4) 0.0185(5)
C13_2 C 0.2358(10) 0.4834(5) 0.0557(3)
O13_2 O 0.3650(7) 0.4830(4) 0.0451(2)
O14_2 O 0.1366(8) 0.4589(4) 0.0371(3)
C23_2 C 0.1984(10) 0.5157(5) 0.0972(4)
N8_2 N 0.2858(11) 0.2967(5) 0.0005(4)
C34_2 C 0.2069(14) 0.5975(6) 0.1443(5)
H20_2 H 0.2426 0.6346 0.1499
C38_2 C 0.1755(14) 0.3341(6) 0.0674(5)
H23_2 H 0.2255 0.3691 0.0754
H24_2 H 0.2205 0.3012 0.0809
H25_2 H 0.0775 0.3367 0.0767
C42_2 C 0.0676(16) 0.5217(6) 0.1616(5)
H31_2 H 0.0037 0.5047 0.1809
C44_2 C 0.1009(15) 0.4906(6) 0.1260(5)
H35_2 H 0.0607 0.4541 0.1209
C45_2 C 0.4143(13) 0.2790(7) 0.0252(7)
H36_2 H 0.4184 0.3006 0.0516
H37_2 H 0.4987 0.2869 0.0084
H38_2 H 0.4093 0.2381 0.0314
C46_2 C 0.2524(13) 0.5688(6) 0.1062(5)
H39_2 H 0.3182 0.5864 0.0877
O21_2 O 0.6287(8) 0.5470(4) 0.0036(3)
I2_2 I 0.29009(8) 0.60584(3) 0.74612(3)
I3_2 I 0.47458(8) 0.77088(3) 0.78294(2)
Cu1_2 Cu 0.21638(16) 0.76600(6) 0.81934(5)
Cu2_2 Cu 0.01034(16) 0.64036(6) 0.74853(5)
Cu3_2 Cu 0.54431(16) 0.88307(7) 0.77564(5)
Cu4_2 Cu 0.24358(16) 0.71687(7) 0.73984(5)
N1_2 N 0.2021(10) 0.6925(4) 0.8564(4)
O3_2 O 0.0824(7) 0.5290(3) 0.9580(3)
O4_2 O 0.2911(7) 0.4296(4) 0.9412(3)
O5_2 O 0.3526(7) 0.9768(3) 0.9783(3)
N2_2 N 0.3729(9) 0.3938(5) 0.7835(3)
C1_2 C 0.1982(10) 0.5544(4) 0.9499(3)
O6_2 O 0.0704(7) 0.4120(4) 0.9160(3)
O8_2 O 0.0802(7) 0.3478(3) 0.9967(3)
N4_2 N 0.2159(10) 0.8289(4) 0.8663(3)
C3_2 C 0.3562(12) 0.4486(6) 0.8480(4)
H1_2 H 0.3856 0.4809 0.8638
H3_2 H 0.0354 0.5850 0.5935
H4_2 H 0.0762 0.5483 0.8140
O10_2 O 0.3467(9) 0.9388(5) 0.7702(4)
C7_2 C 0.2621(10) 0.4099(4) 0.8662(3)
C8_2 C 0.2391(11) 0.9473(5) 0.9743(4)
C12_2 C 0.3500(13) 0.8948(6) 0.9119(5)
H6_2 H 0.4375 0.9125 0.9179
C14_2 C 0.3186(12) 0.6143(6) 0.8935(4)
H7_2 H 0.4019 0.5928 0.8980
C15_2 C 0.2340(11) 0.9050(5) 0.9373(4)
C16_2 C 0.2037(10) 0.4174(5) 0.9109(3)
O12_2 O 0.1287(8) 0.9530(4) 0.9964(3)
C18_2 C 0.0755(11) 0.6353(5) 0.9084(5)
O16_2 O 0.3198(7) 0.5444(3) 0.9665(3)
C20_2 C 0.1961(10) 0.6019(4) 0.9171(4)
C22_2 C 0.4082(12) 0.4407(6) 0.8069(4)
H9_2 H 0.4692 0.4686 0.7951
C24_2 C 0.0211(12) 0.6148(6) 0.6548(4)
H10_2 H 0.1174 0.6089 0.6612
C25_2 C 0.1043(12) 0.8378(7) 0.8932(5)
H11_2 H 0.0190 0.8186 0.8869
C27_2 C 0.2215(13) 0.3627(6) 0.8410(4)
H13_2 H 0.1543 0.3362 0.8513
C31_2 C 0.3173(12) 0.6585(5) 0.8633(4)
H17_2 H 0.3995 0.6650 0.8471
C33_2 C 0.3365(16) 0.8578(7) 0.8769(5)
H19_2 H 0.4165 0.8525 0.8594
C36_2 C 0.0816(12) 0.6791(6) 0.8797(4)
C40_2 C 0.2803(12) 0.3552(6) 0.8010(4)
H27_2 H 0.2554 0.3222 0.7853
C41_2 C 0.2002(18) 0.8962(8) 0.7137(6)
H28_2 H 0.2921 0.8874 0.7013
H29_2 H 0.1462 0.9199 0.6940
H30_2 H 0.1492 0.8606 0.7191
N9_2 N 0.1087(13) 0.9476(6) 0.7771(5)
C43_2 C 0.2804(16) 0.2826(7) 0.9564(6)
H32_2 H 0.1837 0.2867 0.9462
H33_2 H 0.3117 0.2431 0.9523
H34_2 H 0.3421 0.3085 0.9406
C47_2 C 0.2217(15) 0.9298(5) 0.7569(6)
C48_2 C 0.1056(12) 0.8736(6) 0.9298(5)
H40_2 H 0.0269 0.8766 0.9481
C50_2 C 0.136(3) 0.9790(12) 0.8189(7)
H44_2 H 0.1567 0.9511 0.8411
O17 O 0.5745(7) 0.3847(4) 0.9405(3)
N10_2 N 0.6271(9) 0.8938(5) 0.7165(3)
N11_2 N 0.2646(10) 0.7536(4) 0.6800(3)
N12_2 N 0.6179(10) 0.9253(5) 0.8282(3)
O22 O 0.5805(7) 0.5154(4) 0.9110(3)
Sm7_2 Sm 0.99127(5) 0.02988(2) 0.022374(16)
O18_2 O 0.8526(7) 0.5232(3) 0.0217(3)
I1_2 I 0.98495(8) 0.75517(3) 0.77097(2)
O2_2 O 0.8053(7) 0.3661(3) 0.9573(3)
C2_2 C 0.6965(11) 0.3610(4) 0.9343(4)
O7_2 O 0.7912(7) 0.4819(3) 0.9318(2)
N3_2 N 0.7354(10) 0.2536(4) 0.8200(3)
C4_2 C 0.5896(11) 0.3070(5) 0.8705(4)
H2_2 H 0.4986 0.3198 0.8783
C5_2 C 0.9730(11) 0.6014(6) 0.6135(4)
N6_2 N 0.9348(10) 0.6358(4) 0.6859(3)
C6_2 C 0.9805(11) 0.5554(6) 0.8206(4)
C9_2 C 0.9237(10) 0.5269(6) 0.8554(4)
H5_2 H 0.9801 0.5018 0.8717
C11_2 C 0.7792(10) 0.5943(5) 0.5576(3)
C17_2 C 0.7159(10) 0.5091(5) 0.9055(4)
N7_2 N 0.9099(9) 0.5922(4) 0.7958(3)
H8_2 H 0.9898 0.6273 0.9225
C19_2 C 0.7090(11) 0.3231(4) 0.8942(4)
C21_2 C 0.7778(10) 0.5362(5) 0.8662(3)
C26_2 C 0.6082(11) 0.2718(5) 0.8355(3)
H12_2 H 0.5261 0.2593 0.8211
C28_2 C 0.8417(11) 0.3038(5) 0.8811(3)
H14_2 H 0.9232 0.3130 0.8969
C29_2 C 0.8528(11) 0.2699(5) 0.8434(4)
H15_2 H 0.9432 0.2582 0.8341
C30_2 C 0.7460(12) 0.6363(7) 0.6323(4)
H16_2 H 0.6512 0.6449 0.6254
C32_2 C 0.7008(13) 0.5728(6) 0.8385(5)
H18_2 H 0.6028 0.5779 0.8426
C35_2 C 0.7681(13) 0.6012(6) 0.8054(4)
H21_2 H 0.7158 0.6275 0.7888
H22_2 H 0.9997 0.7015 0.8754
C37_2 C 0.8339(10) 0.6126(5) 0.6025(4)
C39_2 C 0.7987(13) 0.6481(6) 0.6741(4)
H26_2 H 0.7375 0.6648 0.6943
C49_2 C 0.9595(14) 0.9407(9) 0.7629(8)
H41_2 H 0.9576 0.9219 0.7352
H42_2 H 0.9148 0.9783 0.7608
H43_2 H 0.9083 0.9172 0.7834
Cu7_2 Cu 0.75642(16) 0.21687(7) 0.76016(5)
I1_3 I 0.01505(8) 0.25517(3) 0.72903(2)
O9_2 O 0.3535(8) 0.0977(4) 0.9492(3)
C5_3 C 0.0270(11) 0.1014(6) 0.8865(4)
N6_3 N 0.0652(10) 0.1358(4) 0.8141(3)
C6_3 C 0.0195(11) 0.0554(6) 0.6794(4)
C9_3 C 0.0763(10) 0.0269(6) 0.6446(4)
H5_3 H 0.0199 0.0018 0.6283
O11_2 O 0.1295(8) 0.0795(3) 0.9690(3)
C11_3 C 0.2208(10) 0.0943(5) 0.9424(3)
C17_3 C 0.2841(10) 0.0091(5) 0.5945(4)
N7_3 N 0.0901(9) 0.0922(4) 0.7042(3)
O15_2 O 0.4195(7) 0.0154(4) 0.5890(3)
H8_3 H 0.0102 0.1273 0.5775
C21_3 C 0.2222(10) 0.0362(5) 0.6338(3)
C30_3 C 0.2540(12) 0.1363(7) 0.8677(4)
H16_3 H 0.3488 0.1449 0.8746
C32_3 C 0.2992(13) 0.0728(6) 0.6615(5)
H18_3 H 0.3972 0.0779 0.6574
C35_3 C 0.2319(13) 0.1012(6) 0.6946(4)
H21_3 H 0.2842 0.1275 0.7112
H22_3 H 0.0003 0.2015 0.6246
C37_3 C 0.1661(10) 0.1126(5) 0.8975(4)
C39_3 C 0.2013(13) 0.1481(6) 0.8259(4)
H26_3 H 0.2625 0.1648 0.8057
C49_3 C 0.0405(14) 0.4407(9) 0.7371(8)
H41_3 H 0.0424 0.4219 0.7648
H42_3 H 0.0852 0.4783 0.7392
H43_3 H 0.0917 0.4172 0.7166
O1_2 O 0.4255(7) 0.8847(4) 0.5595(3)
O2_3 O 0.1947(7) 0.8661(3) 0.5427(3)
C2_3 C 0.3035(11) 0.8610(4) 0.5657(4)
O7_3 O 0.2088(7) 0.9819(3) 0.5682(2)
C4_3 C 0.4104(11) 0.8070(5) 0.6295(4)
H2_3 H 0.5014 0.8198 0.6217
C19_3 C 0.2910(11) 0.8231(4) 0.6058(4)
C26_3 C 0.3918(11) 0.7718(5) 0.6645(3)
H12_3 H 0.4739 0.7593 0.6789
C28_3 C 0.1583(11) 0.8038(5) 0.6189(3)
H14_3 H 0.0768 0.8130 0.6031
C29_3 C 0.1472(11) 0.7699(5) 0.6566(4)
H15_3 H 0.0568 0.7582 0.6659
O19_2 O 0.1465(8) 0.9023(4) 0.4492(3)
I2_3 I 0.70991(8) 0.10584(3) 0.75388(3)
I3_3 I 0.52542(8) 0.27088(3) 0.71706(2)
Cu1_3 Cu 0.78362(16) 0.26600(6) 0.68066(5)
Cu2_3 Cu 0.98966(16) 0.14036(6) 0.75147(5)
N1_3 N 0.7979(10) 0.1925(4) 0.6436(4)
O3_3 O 0.9176(7) 0.0290(3) 0.5420(3)
C1_3 C 0.8018(10) 0.0544(4) 0.5501(3)
N4_3 N 0.7841(10) 0.3289(4) 0.6337(3)
H3_3 H 0.9646 0.0850 0.9065
H4_3 H 0.9238 0.0483 0.6860
O10_3 O 0.6533(9) 0.4388(5) 0.7298(4)
C8_3 C 0.7609(11) 0.4473(5) 0.5257(4)
C12_3 C 0.6500(13) 0.3948(6) 0.5881(5)
H6_3 H 0.5625 0.4125 0.5821
C14_3 C 0.6814(12) 0.1143(6) 0.6065(4)
H7_3 H 0.5981 0.0928 0.6020
C15_3 C 0.7660(11) 0.4050(5) 0.5627(4)
C18_3 C 0.9245(11) 0.1353(5) 0.5916(5)
O16_3 O 0.6802(7) 0.0444(3) 0.5335(3)
C20_3 C 0.8039(10) 0.1019(4) 0.5829(4)
C23_3 C 0.8016(10) 0.0157(5) 0.4028(4)
C24_3 C 0.9789(12) 0.1148(6) 0.8452(4)
H10_3 H 0.8826 0.1089 0.8388
C25_3 C 0.8957(12) 0.3378(7) 0.6068(5)
H11_3 H 0.9810 0.3186 0.6131
C31_3 C 0.6827(12) 0.1585(5) 0.6367(4)
H17_3 H 0.6005 0.1650 0.6529
C33_3 C 0.6635(16) 0.3578(7) 0.6231(5)
H19_3 H 0.5835 0.3525 0.6406
C34_3 C 0.7931(14) 0.0975(6) 0.3557(5)
H20_3 H 0.7574 0.1346 0.3501
C36_3 C 0.9184(12) 0.1791(6) 0.6203(4)
C41_3 C 0.7998(18) 0.3962(8) 0.7863(6)
H28_3 H 0.7079 0.3874 0.7987
H29_3 H 0.8538 0.4199 0.8060
H30_3 H 0.8508 0.3606 0.7809
C42_3 C 0.9324(16) 0.0217(6) 0.3384(5)
H31_3 H 0.9963 0.0047 0.3191
N9_3 N 0.8913(13) 0.4476(6) 0.7229(5)
C46_3 C 0.7476(13) 0.0688(6) 0.3938(5)
H39_3 H 0.6818 0.0864 0.4123
C47_3 C 0.7783(15) 0.4298(5) 0.7431(6)
C48_3 C 0.8944(12) 0.3736(6) 0.5702(5)
H40_3 H 0.9731 0.3766 0.5519
C50_3 C 0.864(3) 0.4790(12) 0.6811(7)
H44_3 H 0.8433 0.4511 0.6589
H45_2 H 0.9477 0.5010 0.6732
H46_2 H 0.7840 0.5049 0.6844
O4_3 O 0.7089(7) 0.9296(4) 0.5588(3)
O6_3 O 0.9296(7) 0.9120(4) 0.5840(3)
O8_3 O 0.9198(7) 0.8478(3) 0.5033(3)
C3_3 C 0.6438(12) 0.9486(6) 0.6520(4)
H1_3 H 0.6144 0.9809 0.6362
C7_3 C 0.7379(10) 0.9099(4) 0.6338(3)
C10_3 C 0.8194(12) 0.8268(4) 0.4815(5)
C13_3 C 0.7642(10) 0.9834(5) 0.4443(3)
C16_3 C 0.7963(10) 0.9174(5) 0.5891(3)
O13_3 O 0.6350(7) 0.9830(4) 0.4549(2)
O14_3 O 0.8634(8) 0.9589(4) 0.4629(3)
C22_3 C 0.5918(12) 0.9407(6) 0.6931(4)
H9_3 H 0.5308 0.9686 0.7049
C27_3 C 0.7785(13) 0.8627(6) 0.6590(4)
H13_3 H 0.8457 0.8362 0.6487
N8_3 N 0.7142(11) 0.7967(5) 0.4995(4)
C38_3 C 0.8245(14) 0.8341(6) 0.4326(5)
H23_3 H 0.7745 0.8691 0.4246
H24_3 H 0.7795 0.8012 0.4191
H25_3 H 0.9225 0.8367 0.4233
C40_3 C 0.7197(12) 0.8552(6) 0.6990(4)
H27_3 H 0.7446 0.8222 0.7147
C43_3 C 0.7196(16) 0.7826(7) 0.5436(6)
H32_3 H 0.8163 0.7867 0.5538
H33_3 H 0.6883 0.7431 0.5477
H34_3 H 0.6579 0.8085 0.5594
C44_3 C 0.8991(15) 0.9906(6) 0.3740(5)
H35_3 H 0.9393 0.9541 0.3791
C45_3 C 0.5857(13) 0.7790(7) 0.4748(7)
H36_3 H 0.5816 0.8006 0.4484
H37_3 H 0.5013 0.7869 0.4916
H38_3 H 0.5907 0.7381 0.4686
O20_2 O 0.3705(8) 0.9205(3) 0.4690(3)
O17_2 O 0.0745(7) 0.1153(4) 0.0595(3)
O22_2 O 0.0805(7) 0.9846(4) 0.0890(3)
O2_4 O 0.3053(7) 0.1339(3) 0.0427(3)
O4_4 O 0.7911(7) 0.0704(4) 0.0588(3)
O6_4 O 0.5704(7) 0.0880(4) 0.0840(3)
C2_4 C 0.1965(11) 0.1390(4) 0.0657(4)
O7_4 O 0.2912(7) 0.0181(3) 0.0682(2)
O8_4 O 0.5802(7) 0.1522(3) 0.0033(3)
C3_4 C 0.8562(12) 0.0514(6) 0.1520(4)
H1_4 H 0.8856 0.0191 0.1362
C4_4 C 0.0896(11) 0.1930(5) 0.1295(4)
C7_4 C 0.7621(10) 0.0901(4) 0.1338(3)
C16_4 C 0.7037(10) 0.0826(5) 0.0891(3)
C19_4 C 0.2090(11) 0.1769(4) 0.1058(4)
C22_4 C 0.9082(12) 0.0593(6) 0.1931(4)
H9_4 H 0.9692 0.0314 0.2049
C26_4 C 0.1082(11) 0.2282(5) 0.1645(3)
H12_4 H 0.0261 0.2407 0.1789
C27_4 C 0.7215(13) 0.1373(6) 0.1590(4)
H13_4 H 0.6543 0.1638 0.1487
C28_4 C 0.3417(11) 0.1962(5) 0.1189(3)
H14_4 H 0.4232 0.1870 0.1031
C29_4 C 0.3528(11) 0.2301(5) 0.1566(4)
H15_4 H 0.4432 0.2418 0.1659
C40_4 C 0.7803(12) 0.1448(6) 0.1990(4)
H27_4 H 0.7554 0.1778 0.2147
C43_4 C 0.7804(16) 0.2174(7) 0.0436(6)
H32_4 H 0.6837 0.2133 0.0538
H33_4 H 0.8117 0.2569 0.0477
H34_4 H 0.8421 0.1915 0.0594
C10_4 C 0.6806(12) 0.1732(4) 0.9815(5)
C13_4 C 0.7358(10) 0.0166(5) 0.9443(3)
O13_4 O 0.8650(7) 0.0170(4) 0.9549(2)
O14_4 O 0.6366(8) 0.0411(4) 0.9629(3)
N8_4 N 0.7858(11) 0.2033(5) 0.9995(4)
C38_4 C 0.6755(14) 0.1659(6) 0.9326(5)
H23_4 H 0.7255 0.1309 0.9246
H24_4 H 0.7205 0.1988 0.9191
H25_4 H 0.5775 0.1633 0.9233
C44_4 C 0.6009(15) 0.0094(6) 0.8740(5)
H35_4 H 0.5607 0.0459 0.8791
C45_4 C 0.9143(13) 0.2210(7) 0.9748(7)
H36_4 H 0.9184 0.1994 0.9484
H37_4 H 0.9987 0.2131 0.9916
H38_4 H 0.9093 0.2619 0.9686
I1_4 I 0.48495(8) 0.74483(3) 0.22903(2)
I2_4 I 0.79009(8) 0.89416(3) 0.25388(3)
I3_4 I 0.97458(8) 0.72912(3) 0.21706(2)
Cu1_4 Cu 0.71638(16) 0.73400(6) 0.18066(5)
Cu2_4 Cu 0.51034(16) 0.85964(6) 0.25147(5)
N1_4 N 0.7021(10) 0.8075(4) 0.1436(4)
O3_4 O 0.5824(7) 0.9710(3) 0.0420(3)
C1_4 C 0.6982(10) 0.9456(4) 0.0501(3)
N4_4 N 0.7159(10) 0.6711(4) 0.1337(3)
C5_4 C 0.4730(11) 0.8986(6) 0.3865(4)
H3_4 H 0.5354 0.9150 0.4065
N6_4 N 0.4348(10) 0.8642(4) 0.3141(3)
C6_4 C 0.4805(11) 0.9446(6) 0.1794(4)
H4_4 H 0.5762 0.9517 0.1860
O10_4 O 0.8467(9) 0.5612(5) 0.2298(4)
C8_4 C 0.7391(11) 0.5527(5) 0.0257(4)
C9_4 C 0.4237(10) 0.9731(6) 0.1446(4)
H5_4 H 0.4801 0.9982 0.1283
C11_4 C 0.2792(10) 0.9057(5) 0.4424(3)
C12_4 C 0.8500(13) 0.6052(6) 0.0881(5)
H6_4 H 0.9375 0.5875 0.0821
C14_4 C 0.8186(12) 0.8857(6) 0.1065(4)
H7_4 H 0.9019 0.9072 0.1020
C15_4 C 0.7340(11) 0.5950(5) 0.0627(4)
C17_4 C 0.2159(10) 0.9909(5) 0.0945(4)
N7_4 N 0.4099(9) 0.9078(4) 0.2042(3)
C18_4 C 0.5755(11) 0.8647(5) 0.0916(5)
H8_4 H 0.4898 0.8727 0.0775
O16_4 O 0.8198(7) 0.9556(3) 0.0335(3)
C20_4 C 0.6961(10) 0.8981(4) 0.0829(4)
C21_4 C 0.2778(10) 0.9638(5) 0.1338(3)
C24_4 C 0.5211(12) 0.8852(6) 0.3452(4)
H10_4 H 0.6174 0.8911 0.3388
C25_4 C 0.6043(12) 0.6622(7) 0.1068(5)
H11_4 H 0.5190 0.6814 0.1131
C30_4 C 0.2460(12) 0.8637(7) 0.3677(4)
H16_4 H 0.1512 0.8551 0.3746
C31_4 C 0.8173(12) 0.8415(5) 0.1367(4)
H17_4 H 0.8995 0.8350 0.1529
C32_4 C 0.2008(13) 0.9272(6) 0.1615(5)
H18_4 H 0.1028 0.9221 0.1574
C33_4 C 0.8365(16) 0.6422(7) 0.1231(5)
H19_4 H 0.9165 0.6475 0.1406
C35_4 C 0.2681(13) 0.8988(6) 0.1946(4)
H21_4 H 0.2158 0.8725 0.2112
C36_4 C 0.5816(12) 0.8209(6) 0.1203(4)
H22_4 H 0.4997 0.7985 0.1246
C37_4 C 0.3339(10) 0.8874(5) 0.3975(4)
C39_4 C 0.2987(13) 0.8519(6) 0.3259(4)
H26_4 H 0.2375 0.8352 0.3057
C41_4 C 0.7002(18) 0.6038(8) 0.2863(6)
H28_4 H 0.7921 0.6126 0.2987
H29_4 H 0.6462 0.5801 0.3060
H30_4 H 0.6492 0.6394 0.2809
N9_4 N 0.6087(13) 0.5524(6) 0.2229(5)
C47_4 C 0.7217(15) 0.5702(5) 0.2431(6)
C48_4 C 0.6056(12) 0.6264(6) 0.0702(5)
H40_4 H 0.5269 0.6234 0.0519
C49_4 C 0.4595(14) 0.5593(9) 0.2371(8)
H41_4 H 0.4576 0.5781 0.2648
H42_4 H 0.4148 0.5217 0.2392
H43_4 H 0.4083 0.5828 0.2166
C50_4 C 0.636(3) 0.5210(12) 0.1811(7)
H44_4 H 0.6567 0.5489 0.1589
H45_3 H 0.5523 0.4990 0.1732
H46_3 H 0.7160 0.4951 0.1844
C23_4 C 0.6984(10) 0.9843(5) 0.9028(4)
C34_4 C 0.7069(14) 0.9025(6) 0.8557(5)
H20_4 H 0.7426 0.8654 0.8501
C42_4 C 0.5676(16) 0.9783(6) 0.8384(5)
H31_4 H 0.5037 0.9953 0.8191
C46_4 C 0.7524(13) 0.9312(6) 0.8938(5)
H39_4 H 0.8182 0.9136 0.9123
H2_4 H 0.9986 0.1802 0.1217
H45_4 H 0.0523 0.0010 0.8268
H46_4 H 0.2160 0.0049 0.8156
loop_
_geom_bond_atom_site_label_1
_geom_bond_atom_site_label_2
_geom_bond_site_symmetry_1
_geom_bond_site_symmetry_2
Sm1 O2 1_555 1_555
Sm5 O4 1_555 1_555
I1 Cu1 1_555 1_555
I2 Cu2 1_555 1_555
I3 Cu1 1_555 1_555
Cu1 N1 1_555 1_555
Cu2 I1 1_555 1_555
Cu4 I1 1_555 1_555
O1 C2 1_555 1_555
O2 C2 1_555 1_555
N1 C31 1_555 1_555
O3 Sm1 1_555 1_555
O4 C16 1_555 1_555
O5 C8 1_555 1_555
N2 C22 1_555 1_555
C1 O3 1_555 1_555
O6 Sm1 1_555 1_555
C2 C19 1_555 1_555
O7 Sm1 1_555 1_555
O8 Sm1 1_555 1_555
N3 C26 1_555 1_555
N4 Cu1 1_555 1_555
C3 H1 1_555 1_555
O9 C11 1_555 1_555
C5 H3 1_555 1_555
N5 C34 1_555 1_555
N6 Cu2 1_555 1_555
C6 H4 1_555 1_555
C7 C3 1_555 1_555
C8 C15 1_555 1_555
C9 C6 1_555 1_555
H5 C9 1_555 1_555
C10 O8 1_555 1_555
O11 C11 1_555 1_555
C11 C37 1_555 1_555
C12 H6 1_555 1_555
C13 O13 1_555 1_555
C14 H7 1_555 1_555
C15 C12 1_555 1_555
C16 O6 1_555 1_555
O12 C8 1_555 1_555
O13 Sm5 1_555 1_555
C17 O7 1_555 1_555
N7 Cu2 1_555 1_555
O14 Sm1 1_555 1_555
O15 C17 1_555 1_555
C18 H8 1_555 1_555
C19 C4 1_555 1_555
O16 Sm5 1_555 1_555
C20 C1 1_555 1_555
C21 C9 1_555 1_555
C22 C3 1_555 1_555
H9 C22 1_555 1_555
C23 C13 1_555 1_555
C24 C5 1_555 1_555
H10 C24 1_555 1_555
C25 N4 1_555 1_555
H11 C25 1_555 1_555
C26 C4 1_555 1_555
H12 C26 1_555 1_555
C27 C7 1_555 1_555
H13 C27 1_555 1_555
C28 C19 1_555 1_555
H14 C28 1_555 1_555
N8 C10 1_555 1_555
C29 N3 1_555 1_555
H15 C29 1_555 1_555
C30 H16 1_555 1_555
C31 C14 1_555 1_555
H17 C31 1_555 1_555
C32 C21 1_555 1_555
H18 C32 1_555 1_555
C33 N4 1_555 1_555
H19 C33 1_555 1_555
C34 H20 1_555 1_555
C35 N7 1_555 1_555
H21 C35 1_555 1_555
C36 N1 1_555 1_555
H22 C36 1_555 1_555
C37 C5 1_555 1_555
C38 C10 1_555 1_555
H23 C38 1_555 1_555
H24 C38 1_555 1_555
H25 C38 1_555 1_555
C39 N6 1_555 1_555
H26 C39 1_555 1_555
C40 N2 1_555 1_555
H27 C40 1_555 1_555
C41 H28 1_555 1_555
H29 C41 1_555 1_555
H30 C41 1_555 1_555
C42 N5 1_555 1_555
H31 C42 1_555 1_555
N9 C47 1_555 1_555
C43 N8 1_555 1_555
H32 C43 1_555 1_555
H33 C43 1_555 1_555
H34 C43 1_555 1_555
C44 C23 1_555 1_555
H35 C44 1_555 1_555
C45 N8 1_555 1_555
H36 C45 1_555 1_555
H37 C45 1_555 1_555
H38 C45 1_555 1_555
C46 C23 1_555 1_555
H39 C46 1_555 1_555
C47 O10 1_555 1_555
C48 C15 1_555 1_555
H40 C48 1_555 1_555
C49 N9 1_555 1_555
H41 C49 1_555 1_555
H42 C49 1_555 1_555
H43 C49 1_555 1_555
C50 N9 1_555 1_555
H44 C50 1_555 1_555
Cu5 N5 1_555 1_555
Cu6 N2 1_555 1_555
Cu7 N3 1_555 1_555
O18 Sm1 1_555 1_555
N11 Cu4 1_555 1_555
O19 Sm1 1_555 1_555
I2 Cu4 1_555 1_555
I3 Cu4 1_555 1_555
C1 O16 1_555 1_555
N6 C24 1_555 1_555
C6 N7 1_555 1_555
C7 C16 1_555 1_555
C12 C33 1_555 1_555
C13 O14 1_555 1_555
C14 C20 1_555 1_555
C17 C21 1_555 1_555
C18 C20 1_555 1_555
C18 C36 1_555 1_555
C25 C48 1_555 1_555
C27 C40 1_555 1_555
C28 C29 1_555 1_555
C30 C37 1_555 1_555
C30 C39 1_555 1_555
C32 C35 1_555 1_555
C34 C46 1_555 1_555
C41 C47 1_555 1_555
C42 C44 1_555 1_555
N10 Cu3 1_555 1_555
N12 Cu3 1_555 1_555
N5_2 C34_2 1_555 1_555
C13_2 O13_2 1_555 1_555
C23_2 C13_2 1_555 1_555
N8_2 C10_2 1_555 1_555
C34_2 H20_2 1_555 1_555
C38_2 C10_2 1_555 1_555
H23_2 C38_2 1_555 1_555
H24_2 C38_2 1_555 1_555
H25_2 C38_2 1_555 1_555
C42_2 N5_2 1_555 1_555
H31_2 C42_2 1_555 1_555
C44_2 C23_2 1_555 1_555
H35_2 C44_2 1_555 1_555
C45_2 N8_2 1_555 1_555
H36_2 C45_2 1_555 1_555
H37_2 C45_2 1_555 1_555
H38_2 C45_2 1_555 1_555
C46_2 C23_2 1_555 1_555
H39_2 C46_2 1_555 1_555
Cu6 N5_2 1_555 1_555
C13_2 O14_2 1_555 1_555
C34_2 C46_2 1_555 1_555
C42_2 C44_2 1_555 1_555
Sm6 O4_2 1_555 1_555
I2_2 Cu2_2 1_555 1_555
I3_2 Cu1_2 1_555 1_555
Cu1_2 N1_2 1_555 1_555
Cu3_2 I3_2 1_555 1_555
N1_2 C31_2 1_555 1_555
O4_2 C16_2 1_555 1_555
O5_2 C8_2 1_555 1_555
N2_2 C22_2 1_555 1_555
C1_2 O3_2 1_555 1_555
N4_2 Cu1_2 1_555 1_555
C3_2 H1_2 1_555 1_555
O10_2 Cu3_2 1_555 1_555
C7_2 C3_2 1_555 1_555
C8_2 C15_2 1_555 1_555
C12_2 H6_2 1_555 1_555
C14_2 H7_2 1_555 1_555
C15_2 C12_2 1_555 1_555
C16_2 O6_2 1_555 1_555
O12_2 C8_2 1_555 1_555
O16_2 Sm6 1_555 1_555
C20_2 C1_2 1_555 1_555
C22_2 C3_2 1_555 1_555
H9_2 C22_2 1_555 1_555
H10_2 C24_2 1_555 1_555
C25_2 N4_2 1_555 1_555
H11_2 C25_2 1_555 1_555
C27_2 C7_2 1_555 1_555
H13_2 C27_2 1_555 1_555
C31_2 C14_2 1_555 1_555
H17_2 C31_2 1_555 1_555
C33_2 N4_2 1_555 1_555
H19_2 C33_2 1_555 1_555
C36_2 N1_2 1_555 1_555
C40_2 N2_2 1_555 1_555
H27_2 C40_2 1_555 1_555
C41_2 H28_2 1_555 1_555
H29_2 C41_2 1_555 1_555
H30_2 C41_2 1_555 1_555
N9_2 C47_2 1_555 1_555
H32_2 C43_2 1_555 1_555
H33_2 C43_2 1_555 1_555
H34_2 C43_2 1_555 1_555
C47_2 O10_2 1_555 1_555
C48_2 C15_2 1_555 1_555
H40_2 C48_2 1_555 1_555
C50_2 N9_2 1_555 1_555
H44_2 C50_2 1_555 1_555
Cu5 N2_2 1_555 1_555
O17 Sm6 1_555 1_555
N10_2 Cu3_2 1_555 1_555
N11_2 Cu4_2 1_555 1_555
N12_2 Cu3_2 1_555 1_555
O22 Sm6 1_555 1_555
I2_2 Cu4_2 1_555 1_555
I3_2 Cu4_2 1_555 1_555
C1_2 O16_2 1_555 1_555
C7_2 C16_2 1_555 1_555
C12_2 C33_2 1_555 1_555
C14_2 C20_2 1_555 1_555
C18_2 C20_2 1_555 1_555
C18_2 C36_2 1_555 1_555
C25_2 C48_2 1_555 1_555
C27_2 C40_2 1_555 1_555
C41_2 C47_2 1_555 1_555
Sm3 O2_2 1_555 1_555
O17 C2_2 1_555 1_555
O2_2 C2_2 1_555 1_555
C2_2 C19_2 1_555 1_555
O7_2 Sm3 1_555 1_555
N3_2 C26_2 1_555 1_555
C4_2 H2_2 1_555 1_555
O19 C11_2 1_555 1_555
C9_2 C6_2 1_555 1_555
H5_2 C9_2 1_555 1_555
O20 C11_2 1_555 1_555
C11_2 C37_2 1_555 1_555
C17_2 O7_2 1_555 1_555
O22 C17_2 1_555 1_555
C19_2 C4_2 1_555 1_555
C21_2 C9_2 1_555 1_555
C26_2 C4_2 1_555 1_555
H12_2 C26_2 1_555 1_555
C28_2 C19_2 1_555 1_555
H14_2 C28_2 1_555 1_555
C29_2 N3_2 1_555 1_555
H15_2 C29_2 1_555 1_555
C30_2 H16_2 1_555 1_555
C32_2 C21_2 1_555 1_555
H18_2 C32_2 1_555 1_555
C35_2 N7_2 1_555 1_555
H21_2 C35_2 1_555 1_555
C37_2 C5_2 1_555 1_555
C39_2 N6_2 1_555 1_555
H26_2 C39_2 1_555 1_555
H41_2 C49_2 1_555 1_555
H42_2 C49_2 1_555 1_555
H43_2 C49_2 1_555 1_555
Cu7_2 N3_2 1_555 1_555
C6_2 N7_2 1_555 1_555
C17_2 C21_2 1_555 1_555
C28_2 C29_2 1_555 1_555
C30_2 C37_2 1_555 1_555
C30_2 C39_2 1_555 1_555
C32_2 C35_2 1_555 1_555
O9_2 C11_3 1_555 1_555
C9_3 C6_3 1_555 1_555
H5_3 C9_3 1_555 1_555
O11_2 C11_3 1_555 1_555
C11_3 C37_3 1_555 1_555
O15_2 C17_3 1_555 1_555
C21_3 C9_3 1_555 1_555
C30_3 H16_3 1_555 1_555
C32_3 C21_3 1_555 1_555
H18_3 C32_3 1_555 1_555
C35_3 N7_3 1_555 1_555
H21_3 C35_3 1_555 1_555
C37_3 C5_3 1_555 1_555
C39_3 N6_3 1_555 1_555
H26_3 C39_3 1_555 1_555
H41_3 C49_3 1_555 1_555
H42_3 C49_3 1_555 1_555
H43_3 C49_3 1_555 1_555
C6_3 N7_3 1_555 1_555
C17_3 C21_3 1_555 1_555
C30_3 C37_3 1_555 1_555
C30_3 C39_3 1_555 1_555
C32_3 C35_3 1_555 1_555
Sm4 O2_3 1_555 1_555
O1_2 C2_3 1_555 1_555
O2_3 C2_3 1_555 1_555
C2_3 C19_3 1_555 1_555
O7_3 Sm4 1_555 1_555
N11_2 C26_3 1_555 1_555
C4_3 H2_3 1_555 1_555
C19_3 C4_3 1_555 1_555
C26_3 C4_3 1_555 1_555
H12_3 C26_3 1_555 1_555
C28_3 C19_3 1_555 1_555
H14_3 C28_3 1_555 1_555
C29_3 N11_2 1_555 1_555
H15_3 C29_3 1_555 1_555
Sm7 O1_2 1_555 1_555
O19_2 Sm4 1_555 1_555
C28_3 C29_3 1_555 1_555
I2_3 Cu2_3 1_555 1_555
I3_3 Cu1_3 1_555 1_555
Cu1_3 N1_3 1_555 1_555
Cu5 I3_3 1_555 1_555
N1_3 C31_3 1_555 1_555
O18 C8_3 1_555 1_555
C1_3 O3_3 1_555 1_555
N4_3 Cu1_3 1_555 1_555
N12 C34_3 1_555 1_555
O10_3 Cu5 1_555 1_555
C8_3 C15_3 1_555 1_555
C12_3 H6_3 1_555 1_555
C14_3 H7_3 1_555 1_555
C15_3 C12_3 1_555 1_555
O21 C8_3 1_555 1_555
C20_3 C1_3 1_555 1_555
H10_3 C24_3 1_555 1_555
C25_3 N4_3 1_555 1_555
H11_3 C25_3 1_555 1_555
C31_3 C14_3 1_555 1_555
H17_3 C31_3 1_555 1_555
C33_3 N4_3 1_555 1_555
H19_3 C33_3 1_555 1_555
C34_3 H20_3 1_555 1_555
C36_3 N1_3 1_555 1_555
C41_3 H28_3 1_555 1_555
H29_3 C41_3 1_555 1_555
H30_3 C41_3 1_555 1_555
C42_3 N12 1_555 1_555
H31_3 C42_3 1_555 1_555
N9_3 C47_3 1_555 1_555
C46_3 C23_3 1_555 1_555
H39_3 C46_3 1_555 1_555
C47_3 O10_3 1_555 1_555
C48_3 C15_3 1_555 1_555
H40_3 C48_3 1_555 1_555
C50_3 N9_3 1_555 1_555
H44_3 C50_3 1_555 1_555
H45_2 C50_3 1_555 1_555
H46_2 C50_3 1_555 1_555
I2_3 Cu7_2 1_555 1_555
I3_3 Cu7_2 1_555 1_555
C1_3 O16_3 1_555 1_555
C12_3 C33_3 1_555 1_555
C14_3 C20_3 1_555 1_555
C18_3 C20_3 1_555 1_555
C18_3 C36_3 1_555 1_555
C25_3 C48_3 1_555 1_555
C34_3 C46_3 1_555 1_555
C41_3 C47_3 1_555 1_555
Sm7 O4_3 1_555 1_555
O4_3 C16_3 1_555 1_555
N10_2 C22_3 1_555 1_555
C3_3 H1_3 1_555 1_555
C7_3 C3_3 1_555 1_555
C10_3 O8_3 1_555 1_555
C13_3 O13_3 1_555 1_555
C16_3 O6_3 1_555 1_555
O13_3 Sm7 1_555 1_555
C22_3 C3_3 1_555 1_555
H9_3 C22_3 1_555 1_555
C27_3 C7_3 1_555 1_555
H13_3 C27_3 1_555 1_555
N8_3 C10_3 1_555 1_555
C38_3 C10_3 1_555 1_555
H23_3 C38_3 1_555 1_555
H24_3 C38_3 1_555 1_555
H25_3 C38_3 1_555 1_555
C40_3 N10_2 1_555 1_555
H27_3 C40_3 1_555 1_555
C43_3 N8_3 1_555 1_555
H32_3 C43_3 1_555 1_555
H33_3 C43_3 1_555 1_555
H34_3 C43_3 1_555 1_555
H35_3 C44_3 1_555 1_555
C45_3 N8_3 1_555 1_555
H36_3 C45_3 1_555 1_555
H37_3 C45_3 1_555 1_555
H38_3 C45_3 1_555 1_555
O20_2 Sm7 1_555 1_555
C7_3 C16_3 1_555 1_555
C13_3 O14_3 1_555 1_555
C27_3 C40_3 1_555 1_555
Sm4_2 O2_4 1_555 1_555
Sm7_2 O4_4 1_555 1_555
O17_2 C2_4 1_555 1_555
O2_4 C2_4 1_555 1_555
O4_4 C16_4 1_555 1_555
N10 C22_4 1_555 1_555
O6_4 Sm4_2 1_555 1_555
C2_4 C19_4 1_555 1_555
O7_4 Sm4_2 1_555 1_555
O8_4 Sm4_2 1_555 1_555
N11 C26_4 1_555 1_555
C3_4 H1_4 1_555 1_555
C7_4 C3_4 1_555 1_555
C16_4 O6_4 1_555 1_555
C19_4 C4_4 1_555 1_555
C22_4 C3_4 1_555 1_555
H9_4 C22_4 1_555 1_555
C26_4 C4_4 1_555 1_555
H12_4 C26_4 1_555 1_555
C27_4 C7_4 1_555 1_555
H13_4 C27_4 1_555 1_555
C28_4 C19_4 1_555 1_555
H14_4 C28_4 1_555 1_555
C29_4 N11 1_555 1_555
H15_4 C29_4 1_555 1_555
C40_4 N10 1_555 1_555
H27_4 C40_4 1_555 1_555
H32_4 C43_4 1_555 1_555
H33_4 C43_4 1_555 1_555
H34_4 C43_4 1_555 1_555
C7_4 C16_4 1_555 1_555
C27_4 C40_4 1_555 1_555
C28_4 C29_4 1_555 1_555
C13_4 O13_4 1_555 1_555
N8_4 C10_4 1_555 1_555
C38_4 C10_4 1_555 1_555
H23_4 C38_4 1_555 1_555
H24_4 C38_4 1_555 1_555
H25_4 C38_4 1_555 1_555
H35_4 C44_4 1_555 1_555
C45_4 N8_4 1_555 1_555
H36_4 C45_4 1_555 1_555
H37_4 C45_4 1_555 1_555
H38_4 C45_4 1_555 1_555
C13_4 O14_4 1_555 1_555
I1_4 Cu1_4 1_555 1_555
I2_4 Cu2_4 1_555 1_555
I3_4 Cu1_4 1_555 1_555
Cu1_4 N1_4 1_555 1_555
Cu2_4 I1_4 1_555 1_555
Cu7 I1_4 1_555 1_555
N1_4 C31_4 1_555 1_555
O18_2 C8_4 1_555 1_555
C1_4 O3_4 1_555 1_555
N4_4 Cu1_4 1_555 1_555
O19_2 C11_4 1_555 1_555
C5_4 H3_4 1_555 1_555
N6_4 Cu2_4 1_555 1_555
C6_4 H4_4 1_555 1_555
C8_4 C15_4 1_555 1_555
C9_4 C6_4 1_555 1_555
H5_4 C9_4 1_555 1_555
O20_2 C11_4 1_555 1_555
C11_4 C37_4 1_555 1_555
C12_4 H6_4 1_555 1_555
C14_4 H7_4 1_555 1_555
C15_4 C12_4 1_555 1_555
O21_2 C8_4 1_555 1_555
N7_4 Cu2_4 1_555 1_555
O22_2 C17_4 1_555 1_555
C18_4 H8_4 1_555 1_555
C20_4 C1_4 1_555 1_555
C21_4 C9_4 1_555 1_555
C24_4 C5_4 1_555 1_555
H10_4 C24_4 1_555 1_555
C25_4 N4_4 1_555 1_555
H11_4 C25_4 1_555 1_555
C30_4 H16_4 1_555 1_555
C31_4 C14_4 1_555 1_555
H17_4 C31_4 1_555 1_555
C32_4 C21_4 1_555 1_555
H18_4 C32_4 1_555 1_555
C33_4 N4_4 1_555 1_555
H19_4 C33_4 1_555 1_555
C35_4 N7_4 1_555 1_555
H21_4 C35_4 1_555 1_555
C36_4 N1_4 1_555 1_555
H22_4 C36_4 1_555 1_555
C37_4 C5_4 1_555 1_555
C39_4 N6_4 1_555 1_555
H26_4 C39_4 1_555 1_555
C41_4 H28_4 1_555 1_555
H29_4 C41_4 1_555 1_555
H30_4 C41_4 1_555 1_555
N9_4 C47_4 1_555 1_555
C47_4 O10_4 1_555 1_555
C48_4 C15_4 1_555 1_555
H40_4 C48_4 1_555 1_555
C49_4 N9_4 1_555 1_555
H41_4 C49_4 1_555 1_555
H42_4 C49_4 1_555 1_555
H43_4 C49_4 1_555 1_555
C50_4 N9_4 1_555 1_555
H44_4 C50_4 1_555 1_555
H45_3 C50_4 1_555 1_555
H46_3 C50_4 1_555 1_555
I2_4 Cu7 1_555 1_555
I3_4 Cu7 1_555 1_555
C1_4 O16_4 1_555 1_555
N6_4 C24_4 1_555 1_555
C6_4 N7_4 1_555 1_555
C12_4 C33_4 1_555 1_555
C14_4 C20_4 1_555 1_555
C17_4 C21_4 1_555 1_555
C18_4 C20_4 1_555 1_555
C18_4 C36_4 1_555 1_555
C25_4 C48_4 1_555 1_555
C30_4 C37_4 1_555 1_555
C30_4 C39_4 1_555 1_555
C32_4 C35_4 1_555 1_555
C41_4 C47_4 1_555 1_555
N12_2 C34_4 1_555 1_555
C34_4 H20_4 1_555 1_555
C42_4 N12_2 1_555 1_555
H31_4 C42_4 1_555 1_555
C46_4 C23_4 1_555 1_555
H39_4 C46_4 1_555 1_555
C34_4 C46_4 1_555 1_555

#END
