
###############################################################################
#
# This file contains modified crystal structure data generated from the
# MOF subset of the Cambridge Structural Database (CSD) v543 
# hosted by the Cambridge Crystallographic Data Centre (CCDC).
#
# This work is licensed under the Creative Commons
# Attribution-NonCommercial-ShareAlike 4.0 International License.
# To view a copy of this license, visit
# http://creativecommons.org/licenses/by-nc-sa/4.0/
# or send a letter to
# Creative Commons, PO Box 1866, Mountain View, CA 94042, USA.
#
# CIF created using the CSD Python API on 29 September 2022
# The structure has been converted into the P1 space group
# The structure has a 3D framework
# The original CSD entry TEBLOE is in the orthorhombic crystal system
# The original CSD entry TEBLOE is in a Sohncke space group
# The framework has been calculated to contain at least 10.0% void space
# The void calculation uses a probe of radius 1.32A, grid spacing 0.4
#
###############################################################################

data_TEBLOE
_chemical_formula_moiety         '(C200 H184 Cu16 Gd6 I12 N36 O62)n'
_symmetry_cell_setting           triclinic
_symmetry_space_group_name_H-M   'P 1'
_symmetry_Int_Tables_number      1
_space_group_name_Hall           'P 1'
loop_
_symmetry_equiv_pos_site_id
_symmetry_equiv_pos_as_xyz
1 x,y,z
_cell_length_a                   9.297(6)
_cell_length_b                   23.198(14)
_cell_length_c                   30.672(18)
_cell_angle_alpha                90
_cell_angle_beta                 90
_cell_angle_gamma                90
_cell_volume                     6615.09
loop_
_atom_site_label
_atom_site_type_symbol
_atom_site_fract_x
_atom_site_fract_y
_atom_site_fract_z
H2 H 0.0752 0.0549 0.8165
Gd6 Gd 0.01265(10) 0.03441(4) 0.47813(3)
Cu5 Cu 0.0067(4) 0.14281(12) 0.75085(8)
Gd5 Gd 0.45690(9) 0.56081(4) 0.01568(3)
I1 I 0.01341(16) 0.75538(6) 0.72492(4)
O9 O 0.3500(15) 0.6018(7) 0.9504(5)
O13 O 0.1190(16) 0.5855(6) 0.9704(4)
N2 N 0.065(2) 0.6389(8) 0.8130(5)
C7 C 0.022(2) 0.6085(10) 0.8857(6)
C11 C 0.213(3) 0.6014(10) 0.9435(7)
C19 C 0.165(2) 0.6169(11) 0.8968(7)
C27 C 0.205(3) 0.6495(11) 0.8249(7)
H13 H 0.2678 0.6635 0.8037
C36 C 0.257(3) 0.6409(10) 0.8655(7)
H24 H 0.3511 0.6506 0.8725
C49 C 0.038(3) 0.9457(17) 0.7356(11)
H41 H 0.0535 0.9725 0.7589
H42 H 0.1026 0.9542 0.7120
H43 H 0.0548 0.9072 0.7458
N12 N 0.0970(19) 0.5934(8) 0.7019(6)
N3 N 0.117(2) 0.0749(9) 0.1714(6)
C13 C 0.199(2) 0.0148(11) 0.0961(7)
C16 C 0.200(2) 0.0997(11) 0.1398(7)
H7 H 0.2307 0.1376 0.1431
C33 C 0.075(3) 0.0228(11) 0.1653(7)
H19 H 0.0188 0.0068 0.1872
C35 C 0.239(3) 0.0692(11) 0.1030(7)
H23 H 0.2955 0.0874 0.0822
Cu7 Cu 0.0432(4) 0.11939(14) 0.22246(8)
O17 O 0.6235(15) 0.0366(8) 0.0072(5)
O4 O 0.3192(15) 0.0390(7) 0.9697(5)
O5 O 0.0823(15) 0.0255(7) 0.9588(5)
O14 O 0.5781(15) 0.0118(7) 0.9126(5)
C6 C 0.978(3) 0.0595(11) 0.8229(8)
N6 N 0.204(2) 0.1942(9) 0.8626(7)
C8 C 0.195(2) 0.1002(10) 0.9231(8)
N7 N 0.9030(19) 0.0934(8) 0.7981(6)
C18 C 0.775(2) 0.0366(10) 0.8676(6)
C22 C 0.711(3) 0.0082(10) 0.9065(7)
C24 C 0.760(3) 0.0982(12) 0.8058(8)
H11 H 0.7037 0.1207 0.7873
C30 C 0.197(2) 0.0520(10) 0.9519(8)
C37 C 0.321(2) 0.1126(10) 0.8981(8)
H25 H 0.4033 0.0901 0.9006
C38 C 0.923(2) 0.0296(12) 0.8583(8)
H26 H 0.9816 0.0059 0.8752
C39 C 0.316(2) 0.1600(10) 0.8696(8)
H27 H 0.3999 0.1682 0.8541
C43 C 0.080(2) 0.1372(10) 0.9159(8)
C44 C 0.090(2) 0.1818(10) 0.8850(8)
H34 H 0.0084 0.2041 0.8803
C45 C 0.696(2) 0.0709(10) 0.8401(7)
H35 H 0.5980 0.0756 0.8449
H46 H 0.7939 0.0170 0.6856
Gd4 Gd 0.54310(9) 0.06081(4) 0.48432(3)
Cu6 Cu 0.2195(3) 0.26527(12) 0.82324(8)
O2 O 0.1302(16) 0.9549(7) 0.0373(5)
O10 O 0.3611(16) 0.9745(7) 0.0454(5)
C2 C 0.229(3) 0.9799(11) 0.0561(7)
C21 C 0.172(3) 0.8266(10) 0.0198(9)
N8 N 0.281(2) 0.7950(9) 0.0011(7)
C29 C 0.174(3) 0.8333(11) 0.0681(8)
H15 H 0.1466 0.8719 0.0757
H16 H 0.2697 0.8259 0.0787
H17 H 0.1084 0.8065 0.0810
C41 C 0.106(3) 0.9860(11) 0.1288(7)
H31 H 0.0714 0.9486 0.1259
C47 C 0.409(3) 0.7748(11) 0.0211(9)
H37 H 0.4909 0.7915 0.0067
H38 H 0.4138 0.7336 0.0188
H39 H 0.4097 0.7856 0.0513
Gd7 Gd 0.98735(10) 0.53441(4) 0.02187(3)
O22 O 0.6190(16) 0.9145(6) 0.0296(4)
Gd2 Gd 0.48735(10) 0.96559(4) 0.97813(3)
I2 I 0.52270(17) 0.77004(7) 0.71440(4)
I3 I 0.71124(17) 0.60762(7) 0.75094(5)
Cu1 Cu 0.9933(4) 0.64281(12) 0.74915(8)
Cu2 Cu 0.7805(3) 0.76527(12) 0.67676(8)
Cu3 Cu 0.4568(4) 0.88061(14) 0.72246(8)
Cu4 Cu 0.7552(3) 0.71740(13) 0.75716(9)
O1 O 0.8765(15) 0.9634(8) 0.5072(5)
O3 O 0.8048(14) 0.8660(6) 0.9563(4)
O6 O 0.0677(16) 0.9126(7) 0.9164(4)
O7 O 0.6504(16) 0.9826(7) 0.5231(4)
O8 O 0.5723(15) 0.8854(7) 0.9387(5)
C1 C 0.698(2) 0.8620(9) 0.9337(7)
O11 O 0.0759(18) 0.8465(7) 0.9970(5)
O12 O 0.7937(15) 0.9825(7) 0.9330(5)
N1 N 0.7362(19) 0.7532(10) 0.8176(6)
O15 O 0.2879(15) 0.9262(7) 0.9421(5)
N4 N 0.779(2) 0.8311(8) 0.6341(5)
C3 C 0.841(2) 0.8063(10) 0.8793(6)
H1 H 0.9234 0.8184 0.8940
C4 C 0.259(2) 0.9094(8) 0.8661(6)
N5 N 0.369(2) 0.8926(9) 0.7816(5)
C5 C 0.709(2) 0.8231(10) 0.8928(7)
H3 H 0.9543 0.5961 0.9061
C9 C 0.769(2) 0.9137(9) 0.5653(6)
C10 C 0.899(3) 0.8441(14) 0.6096(8)
H4 H 0.9855 0.8261 0.6161
C12 C 0.406(3) 0.9364(12) 0.8077(8)
H5 H 0.4721 0.9621 0.7959
C14 C 0.764(2) 0.9545(9) 0.5273(6)
C15 C 0.588(2) 0.8066(10) 0.8700(7)
H6 H 0.4972 0.8181 0.8791
C17 C 0.984(3) 0.6193(10) 0.8433(6)
H8 H 0.8888 0.6117 0.8358
C20 C 0.215(3) 0.8620(10) 0.8402(7)
H9 H 0.1467 0.8365 0.8508
C23 C 0.853(2) 0.7690(9) 0.8414(7)
H10 H 0.9432 0.7554 0.8332
C25 C 0.201(2) 0.9168(9) 0.9112(6)
O16 O 0.657(2) 0.9365(12) 0.7291(8)
C26 C 0.647(3) 0.8936(11) 0.5867(8)
H12 H 0.5570 0.9074 0.5784
C28 C 0.605(2) 0.7719(10) 0.8325(7)
H14 H 0.5230 0.7612 0.8171
C31 C 0.274(2) 0.8531(12) 0.7992(7)
H18 H 0.2489 0.8203 0.7834
C32 C 0.785(3) 0.9288(12) 0.7437(10)
C34 C 0.276(3) 0.7833(11) 0.9537(8)
H20 H 0.1808 0.7908 0.9429
H21 H 0.3003 0.7437 0.9484
H22 H 0.3435 0.8078 0.9390
C40 C 0.808(3) 0.8956(17) 0.7854(11)
H28 H 0.7178 0.8913 0.8003
H29 H 0.8742 0.9161 0.8037
H30 H 0.8466 0.8582 0.7787
C42 C 0.362(3) 0.9489(11) 0.8490(7)
H32 H 0.3950 0.9806 0.8646
C46 C 0.894(3) 0.8859(12) 0.5734(10)
H36 H 0.9748 0.8929 0.5565
N9 N 0.886(3) 0.9508(15) 0.7198(10)
C48 C 0.656(3) 0.8545(15) 0.6194(11)
H40 H 0.5707 0.8429 0.6327
C50 C 0.847(4) 0.9828(17) 0.6784(12)
H44 H 0.7891 0.9584 0.6601
H45 H 0.9333 0.9932 0.6631
Gd3 Gd 0.95690(9) 0.93919(4) 0.98432(3)
N10 N 0.383(2) 0.9251(9) 0.6714(6)
N11 N 0.796(2) 0.6942(9) 0.6374(7)
O19 O 0.8496(16) 0.0174(7) 0.0231(4)
O20 O 0.8500(15) 0.8982(7) 0.0496(5)
O2_2 O 0.3698(16) 0.0451(7) 0.5373(5)
O6_2 O 0.4323(16) 0.0874(7) 0.4164(4)
O10_2 O 0.1389(16) 0.0255(7) 0.5454(5)
O11_2 O 0.4241(18) 0.1535(7) 0.4970(5)
C2_2 C 0.271(3) 0.0201(11) 0.5561(7)
O15_2 O 0.2121(15) 0.0738(7) 0.4421(5)
C4_2 C 0.241(2) 0.0906(8) 0.3661(6)
N5_2 N 0.131(2) 0.1074(9) 0.2816(5)
C12_2 C 0.094(3) 0.0636(12) 0.3077(8)
H5_2 H 0.0279 0.0379 0.2959
H6_2 H 0.0028 0.1819 0.3791
C20_2 C 0.285(3) 0.1380(10) 0.3402(7)
H9_2 H 0.3533 0.1635 0.3508
C21_2 C 0.328(3) 0.1734(10) 0.5198(9)
C25_2 C 0.299(2) 0.0832(9) 0.4112(6)
N8_2 N 0.219(2) 0.2050(9) 0.5011(7)
C29_2 C 0.326(3) 0.1667(11) 0.5681(8)
H15_2 H 0.3534 0.1281 0.5757
H16_2 H 0.2303 0.1741 0.5787
H17_2 H 0.3916 0.1935 0.5810
C31_2 C 0.226(2) 0.1469(12) 0.2992(7)
H18_2 H 0.2511 0.1797 0.2834
C34_2 C 0.224(3) 0.2167(11) 0.4537(8)
H20_2 H 0.3192 0.2092 0.4429
H21_2 H 0.1997 0.2563 0.4484
H22_2 H 0.1565 0.1922 0.4390
C41_2 C 0.394(3) 0.0140(11) 0.6288(7)
H31_2 H 0.4286 0.0514 0.6259
C42_2 C 0.138(3) 0.0511(11) 0.3490(7)
H32_2 H 0.1050 0.0194 0.3646
C47_2 C 0.091(3) 0.2252(11) 0.5211(9)
H37_2 H 0.0091 0.2085 0.5067
H38_2 H 0.0862 0.2664 0.5188
H39_2 H 0.0903 0.2144 0.5513
O18 O 0.6952(14) 0.1340(6) 0.4563(4)
O20_2 O 0.6500(15) 0.1018(7) 0.5496(5)
O21 O 0.7063(15) 0.0175(7) 0.4330(5)
O4_2 O 0.1808(15) 0.9610(7) 0.4697(5)
O5_2 O 0.4177(15) 0.9745(7) 0.4588(5)
N6_2 N 0.296(2) 0.8058(9) 0.3626(7)
C8_2 C 0.305(2) 0.8998(10) 0.4231(8)
C13_2 C 0.301(2) 0.9852(11) 0.5961(7)
C16_2 C 0.300(2) 0.9003(11) 0.6398(7)
H7_2 H 0.2693 0.8624 0.6431
C30_2 C 0.303(2) 0.9480(10) 0.4519(8)
C33_2 C 0.425(3) 0.9772(11) 0.6653(7)
H19_2 H 0.4812 0.9932 0.6872
C35_2 C 0.261(3) 0.9308(11) 0.6030(7)
H23_2 H 0.2045 0.9126 0.5822
C37_2 C 0.179(2) 0.8874(10) 0.3981(8)
H25_2 H 0.0967 0.9099 0.4006
C39_2 C 0.184(2) 0.8400(10) 0.3696(8)
H27_2 H 0.1001 0.8318 0.3541
C43_2 C 0.420(2) 0.8628(10) 0.4159(8)
H33 H 0.5039 0.8675 0.4318
C44_2 C 0.410(2) 0.8182(10) 0.3850(8)
H34_2 H 0.4916 0.7959 0.3803
Cu6_2 Cu 0.2805(3) 0.73473(12) 0.32324(8)
I1_2 I 0.48659(16) 0.24462(6) 0.22492(4)
I2_2 I 0.97730(17) 0.22996(7) 0.21440(4)
I3_2 I 0.78876(17) 0.39238(7) 0.25094(5)
Cu1_2 Cu 0.5067(4) 0.35719(12) 0.24915(8)
Cu2_2 Cu 0.7195(3) 0.23473(12) 0.17676(8)
Cu4_2 Cu 0.7448(3) 0.28260(13) 0.25716(9)
O8_2 O 0.9277(15) 0.1146(7) 0.4387(5)
O9_2 O 0.1500(15) 0.3982(7) 0.4504(5)
C1_2 C 0.802(2) 0.1380(9) 0.4337(7)
N1_2 N 0.7638(19) 0.2468(10) 0.3176(6)
O13_2 O 0.3810(16) 0.4145(6) 0.4704(4)
N2_2 N 0.435(2) 0.3611(8) 0.3130(5)
N4_2 N 0.721(2) 0.1689(8) 0.1341(5)
C3_2 C 0.659(2) 0.1937(10) 0.3793(6)
H1_2 H 0.5766 0.1816 0.3940
C5_2 C 0.791(2) 0.1769(10) 0.3928(7)
C7_2 C 0.478(2) 0.3915(10) 0.3857(6)
H3_2 H 0.5457 0.4039 0.4061
C9_2 C 0.731(2) 0.0863(9) 0.0653(6)
C10_2 C 0.601(3) 0.1559(14) 0.1096(8)
H4_2 H 0.5145 0.1739 0.1161
C11_2 C 0.287(3) 0.3986(10) 0.4435(7)
C14_2 C 0.736(2) 0.0455(9) 0.0273(6)
C15_2 C 0.912(2) 0.1934(10) 0.3700(7)
C17_2 C 0.516(3) 0.3807(10) 0.3433(6)
H8_2 H 0.6112 0.3883 0.3358
C19_2 C 0.335(2) 0.3831(11) 0.3968(7)
C23_2 C 0.647(2) 0.2310(9) 0.3414(7)
H10_2 H 0.5568 0.2446 0.3332
O16_2 O 0.843(2) 0.0635(12) 0.2291(8)
C26_2 C 0.853(3) 0.1064(11) 0.0867(8)
H12_2 H 0.9430 0.0926 0.0784
C27_2 C 0.295(3) 0.3505(11) 0.3249(7)
H13_2 H 0.2322 0.3365 0.3037
C28_2 C 0.895(2) 0.2281(10) 0.3325(7)
H14_2 H 0.9770 0.2388 0.3171
C32_2 C 0.715(3) 0.0712(12) 0.2437(10)
C36_2 C 0.243(3) 0.3591(10) 0.3655(7)
H24_2 H 0.1489 0.3494 0.3725
C40_2 C 0.692(3) 0.1044(17) 0.2854(11)
H28_2 H 0.7822 0.1087 0.3003
H29_2 H 0.6258 0.0839 0.3037
H30_2 H 0.6534 0.1418 0.2787
C46_2 C 0.606(3) 0.1141(12) 0.0734(10)
H36_2 H 0.5252 0.1071 0.0565
N9_2 N 0.614(3) 0.0492(15) 0.2198(10)
C48_2 C 0.844(3) 0.1455(15) 0.1194(11)
H40_2 H 0.9293 0.1571 0.1327
C49_2 C 0.462(3) 0.0543(17) 0.2356(11)
H41_2 H 0.4465 0.0275 0.2589
H42_2 H 0.3974 0.0458 0.2120
H43_2 H 0.4452 0.0928 0.2458
C50_2 C 0.653(4) 0.0172(17) 0.1784(12)
H44_2 H 0.7109 0.0416 0.1601
H45_2 H 0.5667 0.0068 0.1631
Gd5_2 Gd 0.04310(9) 0.43919(4) 0.51568(3)
Gd7_2 Gd 0.51265(10) 0.46559(4) 0.52187(3)
O22_2 O 0.8810(16) 0.0855(6) 0.5296(4)
N11_2 N 0.704(2) 0.3058(9) 0.1374(7)
N12_2 N 0.4030(19) 0.4066(8) 0.2019(6)
O14_2 O 0.9219(15) 0.9882(7) 0.4126(5)
C6_2 C 0.522(3) 0.9405(11) 0.3229(8)
H2_2 H 0.4248 0.9451 0.3165
N7_2 N 0.5970(19) 0.9066(8) 0.2981(6)
C18_2 C 0.725(2) 0.9634(10) 0.3676(6)
C22_2 C 0.789(3) 0.9918(10) 0.4065(7)
C24_2 C 0.740(3) 0.9018(12) 0.3058(8)
H11_2 H 0.7963 0.8793 0.2873
C38_2 C 0.577(2) 0.9704(12) 0.3583(8)
H26_2 H 0.5184 0.9941 0.3752
C45_2 C 0.804(2) 0.9291(10) 0.3401(7)
H35_2 H 0.9020 0.9244 0.3449
H46_2 H 0.7061 0.9830 0.1856
Cu5_2 Cu 0.4933(4) 0.85719(12) 0.25085(8)
I1_3 I 0.51341(16) 0.74462(6) 0.27508(4)
I2_3 I 0.02270(17) 0.72996(7) 0.28560(4)
I3_3 I 0.21124(17) 0.89238(7) 0.24906(5)
Cu4_3 Cu 0.2552(3) 0.78260(13) 0.24284(9)
O1_2 O 0.3765(15) 0.5366(8) 0.4928(5)
O3_2 O 0.3048(14) 0.6340(6) 0.0437(4)
O7_2 O 0.1504(16) 0.5174(7) 0.4769(4)
O8_3 O 0.0723(15) 0.6146(7) 0.0613(5)
C1_3 C 0.198(2) 0.6380(9) 0.0663(7)
O12_2 O 0.2937(15) 0.5175(7) 0.0670(5)
N1_3 N 0.2362(19) 0.7468(10) 0.1824(6)
N2_3 N 0.565(2) 0.8611(8) 0.1870(5)
O14_3 O 0.0781(15) 0.4882(7) 0.0874(5)
N4_3 N 0.279(2) 0.6689(8) 0.3659(5)
C3_3 C 0.341(2) 0.6937(10) 0.1207(6)
H1_3 H 0.4234 0.6816 0.1060
C5_3 C 0.209(2) 0.6769(10) 0.1072(7)
C6_3 C 0.478(3) 0.4405(11) 0.1771(8)
H2_3 H 0.5752 0.4451 0.1835
C7_3 C 0.522(2) 0.8915(10) 0.1143(6)
H3_3 H 0.4543 0.9039 0.0939
C9_3 C 0.269(2) 0.5863(9) 0.4347(6)
C10_3 C 0.399(3) 0.6559(14) 0.3904(8)
H4_3 H 0.4855 0.6739 0.3839
C11_3 C 0.713(3) 0.8986(10) 0.0565(7)
C14_3 C 0.264(2) 0.5455(9) 0.4727(6)
C15_3 C 0.088(2) 0.6934(10) 0.1300(7)
C17_3 C 0.484(3) 0.8807(10) 0.1567(6)
H8_3 H 0.3888 0.8883 0.1642
C18_3 C 0.275(2) 0.4634(10) 0.1324(6)
C19_3 C 0.665(2) 0.8831(11) 0.1032(7)
C22_3 C 0.211(3) 0.4918(10) 0.0935(7)
C23_3 C 0.353(2) 0.7310(9) 0.1586(7)
H10_3 H 0.4432 0.7446 0.1668
C24_3 C 0.260(3) 0.4018(12) 0.1942(8)
H11_3 H 0.2037 0.3793 0.2127
O16_3 O 0.157(2) 0.5635(12) 0.2709(8)
C26_3 C 0.147(3) 0.6064(11) 0.4133(8)
H12_3 H 0.0570 0.5926 0.4216
C27_3 C 0.705(3) 0.8505(11) 0.1751(7)
H13_3 H 0.7678 0.8365 0.1963
C28_3 C 0.105(2) 0.7281(10) 0.1675(7)
H14_3 H 0.0230 0.7388 0.1829
C32_3 C 0.285(3) 0.5712(12) 0.2563(10)
C36_3 C 0.757(3) 0.8591(10) 0.1345(7)
H24_3 H 0.8511 0.8494 0.1275
C38_3 C 0.423(2) 0.4704(12) 0.1417(8)
H26_3 H 0.4816 0.4941 0.1248
C40_3 C 0.308(3) 0.6044(17) 0.2146(11)
H28_3 H 0.2178 0.6087 0.1997
H29_3 H 0.3742 0.5839 0.1963
H30_3 H 0.3466 0.6418 0.2213
C45_3 C 0.196(2) 0.4291(10) 0.1599(7)
H35_3 H 0.0980 0.4244 0.1551
C46_3 C 0.394(3) 0.6141(12) 0.4266(10)
H36_3 H 0.4748 0.6071 0.4435
N9_3 N 0.386(3) 0.5492(15) 0.2802(10)
C48_3 C 0.156(3) 0.6455(15) 0.3806(11)
H40_3 H 0.0707 0.6571 0.3673
C49_3 C 0.538(3) 0.5543(17) 0.2644(11)
H41_3 H 0.5535 0.5275 0.2411
H42_3 H 0.6026 0.5458 0.2880
H43_3 H 0.5548 0.5928 0.2542
C50_3 C 0.347(4) 0.5172(17) 0.3216(12)
H44_3 H 0.2891 0.5416 0.3399
H45_3 H 0.4333 0.5068 0.3369
H46_3 H 0.2939 0.4830 0.3144
O17_2 O 0.1235(15) 0.4634(8) 0.9928(5)
Cu3_2 Cu 0.9568(4) 0.61939(14) 0.27754(8)
O4_3 O 0.8192(15) 0.4610(7) 0.0303(5)
O5_3 O 0.5823(15) 0.4745(7) 0.0412(5)
O6_3 O 0.5677(16) 0.5874(7) 0.0836(4)
O11_3 O 0.5759(18) 0.6535(7) 0.0030(5)
O15_3 O 0.7879(15) 0.5738(7) 0.0579(5)
C4_3 C 0.759(2) 0.5906(8) 0.1339(6)
N5_3 N 0.869(2) 0.6074(9) 0.2184(5)
C8_3 C 0.695(2) 0.3998(10) 0.0769(8)
C12_3 C 0.906(3) 0.5636(12) 0.1923(8)
H5_3 H 0.9721 0.5379 0.2041
H6_3 H 0.9972 0.6819 0.1209
C20_3 C 0.715(3) 0.6380(10) 0.1598(7)
H9_3 H 0.6467 0.6635 0.1492
C25_3 C 0.701(2) 0.5832(9) 0.0888(6)
C30_3 C 0.697(2) 0.4480(10) 0.0481(8)
C31_3 C 0.774(2) 0.6469(12) 0.2008(7)
H18_3 H 0.7489 0.6797 0.2166
C34_3 C 0.776(3) 0.7167(11) 0.0463(8)
H20_3 H 0.6808 0.7092 0.0571
H21_3 H 0.8003 0.7563 0.0516
H22_3 H 0.8435 0.6922 0.0610
C37_3 C 0.821(2) 0.3874(10) 0.1019(8)
H25_3 H 0.9033 0.4099 0.0994
C39_3 C 0.816(2) 0.3400(10) 0.1304(8)
H27_3 H 0.8999 0.3318 0.1459
C42_3 C 0.862(3) 0.5511(11) 0.1510(7)
H32_3 H 0.8950 0.5194 0.1354
C43_3 C 0.580(2) 0.3628(10) 0.0841(8)
H33_2 H 0.4961 0.3675 0.0682
C44_3 C 0.590(2) 0.3182(10) 0.1150(8)
H34_3 H 0.5084 0.2959 0.1197
N10_2 N 0.883(2) 0.5749(9) 0.3286(6)
O2_3 O 0.6302(16) 0.5451(7) 0.9627(5)
O10_3 O 0.8611(16) 0.5255(7) 0.9546(5)
C2_3 C 0.729(3) 0.5201(11) 0.9439(7)
N3_2 N 0.617(2) 0.4251(9) 0.8286(6)
C13_3 C 0.699(2) 0.4852(11) 0.9039(7)
C16_3 C 0.700(2) 0.4003(11) 0.8602(7)
H7_3 H 0.7307 0.3624 0.8569
C21_3 C 0.672(3) 0.6734(10) 0.9802(9)
N8_3 N 0.781(2) 0.7050(9) 0.9989(7)
C29_3 C 0.674(3) 0.6667(11) 0.9319(8)
H15_3 H 0.6466 0.6281 0.9243
H16_3 H 0.7697 0.6741 0.9213
H17_3 H 0.6084 0.6935 0.9190
C33_3 C 0.575(3) 0.4772(11) 0.8347(7)
H19_3 H 0.5188 0.4932 0.8128
C35_3 C 0.739(3) 0.4308(11) 0.8970(7)
H23_3 H 0.7955 0.4126 0.9178
C41_3 C 0.606(3) 0.5140(11) 0.8712(7)
H31_3 H 0.5714 0.5514 0.8741
C47_3 C 0.909(3) 0.7252(11) 0.9789(9)
H37_3 H 0.9909 0.7085 0.9933
H38_3 H 0.9138 0.7664 0.9812
H39_3 H 0.9097 0.7144 0.9487
Cu7_2 Cu 0.5432(4) 0.38061(14) 0.77754(8)
O19_2 O 0.3496(16) 0.4826(7) 0.9769(4)
H33_3 H 0.0039 0.6325 0.5682
O18_2 O 0.1952(14) 0.3660(6) 0.5437(4)
O21_2 O 0.2063(15) 0.4825(7) 0.5670(5)
I2_4 I 0.47730(17) 0.27004(7) 0.78560(4)
I3_4 I 0.28876(17) 0.10762(7) 0.74906(5)
Cu4_4 Cu 0.2448(3) 0.21740(13) 0.74284(9)
O2_4 O 0.8698(16) 0.4549(7) 0.4627(5)
O4_4 O 0.6808(15) 0.5390(7) 0.5303(5)
O5_4 O 0.9177(15) 0.5255(7) 0.5412(5)
O6_4 O 0.9323(16) 0.4126(7) 0.5836(4)
O8_4 O 0.4277(15) 0.3854(7) 0.5613(5)
O10_4 O 0.6389(16) 0.4745(7) 0.4546(5)
C1_4 C 0.302(2) 0.3620(9) 0.5663(7)
O11_4 O 0.9241(18) 0.3465(7) 0.5030(5)
N1_4 N 0.2638(19) 0.2532(10) 0.6824(6)
C2_4 C 0.771(3) 0.4799(11) 0.4439(7)
O14_4 O 0.4219(15) 0.5118(7) 0.5874(5)
O15_4 O 0.7121(15) 0.4262(7) 0.5579(5)
N4_4 N 0.221(2) 0.3311(8) 0.8659(5)
C3_4 C 0.159(2) 0.3063(10) 0.6207(6)
H1_4 H 0.0766 0.3184 0.6060
C4_4 C 0.741(2) 0.4094(8) 0.6339(6)
N5_4 N 0.631(2) 0.3926(9) 0.7184(5)
C5_4 C 0.291(2) 0.3231(10) 0.6072(7)
C6_4 C 0.022(3) 0.5595(11) 0.6771(8)
H3_4 H 0.0457 0.0961 0.5939
C8_4 C 0.805(2) 0.6002(10) 0.5769(8)
C9_4 C 0.231(2) 0.4137(9) 0.9347(6)
C10_4 C 0.101(3) 0.3441(14) 0.8904(8)
H4_4 H 0.0145 0.3261 0.8839
C12_4 C 0.594(3) 0.4364(12) 0.6923(8)
H5_4 H 0.5279 0.4621 0.7041
C13_4 C 0.801(2) 0.5148(11) 0.4039(7)
C14_4 C 0.236(2) 0.4545(9) 0.9727(6)
C15_4 C 0.412(2) 0.3066(10) 0.6300(7)
H6_4 H 0.5028 0.3181 0.6209
C16_4 C 0.800(2) 0.5997(11) 0.3602(7)
H7_4 H 0.7693 0.6376 0.3569
C17_4 C 0.016(3) 0.1193(10) 0.6567(6)
H8_4 H 0.1112 0.1117 0.6642
C18_4 C 0.225(2) 0.5366(10) 0.6324(6)
C20_4 C 0.785(3) 0.3620(10) 0.6598(7)
H9_4 H 0.8533 0.3365 0.6492
C21_4 C 0.828(3) 0.3266(10) 0.4802(9)
C22_4 C 0.289(3) 0.5082(10) 0.5935(7)
C23_4 C 0.147(2) 0.2690(9) 0.6586(7)
H10_4 H 0.0568 0.2554 0.6668
C24_4 C 0.240(3) 0.5982(12) 0.6942(8)
H11_4 H 0.2963 0.6207 0.7127
C25_4 C 0.799(2) 0.4168(9) 0.5888(6)
N8_4 N 0.719(2) 0.2950(9) 0.4989(7)
O16_4 O 0.343(2) 0.4365(12) 0.7709(8)
C26_4 C 0.353(3) 0.3936(11) 0.9133(8)
H12_4 H 0.4430 0.4074 0.9216
C28_4 C 0.395(2) 0.2719(10) 0.6675(7)
H14_4 H 0.4770 0.2612 0.6829
C29_4 C 0.826(3) 0.3333(11) 0.4319(8)
H15_4 H 0.8534 0.3719 0.4243
H16_4 H 0.7303 0.3259 0.4213
H17_4 H 0.8916 0.3065 0.4190
C30_4 C 0.803(2) 0.5520(10) 0.5481(8)
C31_4 C 0.726(2) 0.3531(12) 0.7008(7)
H18_4 H 0.7511 0.3203 0.7166
C32_4 C 0.215(3) 0.4288(12) 0.7563(10)
C33_4 C 0.925(3) 0.5228(11) 0.3347(7)
H19_4 H 0.9812 0.5068 0.3128
C34_4 C 0.724(3) 0.2833(11) 0.5463(8)
H20_4 H 0.8192 0.2908 0.5571
H21_4 H 0.6997 0.2437 0.5516
H22_4 H 0.6565 0.3078 0.5610
C35_4 C 0.761(3) 0.5692(11) 0.3970(7)
H23_4 H 0.7045 0.5874 0.4178
C37_4 C 0.679(2) 0.6126(10) 0.6019(8)
H25_4 H 0.5967 0.5901 0.5994
C38_4 C 0.077(2) 0.5296(12) 0.6417(8)
H26_4 H 0.0184 0.5059 0.6248
C39_4 C 0.684(2) 0.6600(10) 0.6304(8)
H27_4 H 0.6001 0.6682 0.6459
C40_4 C 0.192(3) 0.3956(17) 0.7146(11)
H28_4 H 0.2822 0.3913 0.6997
H29_4 H 0.1258 0.4161 0.6963
H30_4 H 0.1534 0.3582 0.7213
C41_4 C 0.894(3) 0.4860(11) 0.3712(7)
H31_4 H 0.9286 0.4486 0.3741
C42_4 C 0.638(3) 0.4489(11) 0.6510(7)
H32_4 H 0.6050 0.4806 0.6354
C43_4 C 0.920(2) 0.6372(10) 0.5841(8)
C44_4 C 0.910(2) 0.6818(10) 0.6150(8)
H34_4 H 0.9916 0.7041 0.6197
C45_4 C 0.304(2) 0.5709(10) 0.6599(7)
H35_4 H 0.4020 0.5756 0.6551
C46_4 C 0.106(3) 0.3859(12) 0.9266(10)
H36_4 H 0.0252 0.3929 0.9435
N9_4 N 0.114(3) 0.4508(15) 0.7802(10)
C47_4 C 0.591(3) 0.2748(11) 0.4789(9)
H37_4 H 0.5091 0.2915 0.4933
H38_4 H 0.5862 0.2336 0.4812
H39_4 H 0.5903 0.2856 0.4487
C48_4 C 0.344(3) 0.3545(15) 0.8806(11)
H40_4 H 0.4293 0.3429 0.8673
C50_4 C 0.153(4) 0.4828(17) 0.8216(12)
H44_4 H 0.2109 0.4584 0.8399
H45_4 H 0.0667 0.4932 0.8369
H46_4 H 0.2061 0.5170 0.8144
I1_4 I 0.98659(16) 0.25538(6) 0.77508(4)
N2_4 N 0.935(2) 0.1389(8) 0.6870(5)
H2_4 H 0.9248 0.5549 0.6835
C7_4 C 0.978(2) 0.1085(10) 0.6143(6)
C11_4 C 0.787(3) 0.1014(10) 0.5565(7)
C19_4 C 0.835(2) 0.1169(11) 0.6032(7)
C27_4 C 0.795(3) 0.1495(11) 0.6751(7)
H13_4 H 0.7322 0.1635 0.6963
C36_4 C 0.743(3) 0.1409(10) 0.6345(7)
H24_4 H 0.6489 0.1506 0.6275
C49_4 C 0.962(3) 0.4457(17) 0.7644(11)
H41_4 H 0.9465 0.4725 0.7411
H42_4 H 0.8974 0.4542 0.7880
H43_4 H 0.9452 0.4072 0.7542
H33_4 H 0.9961 0.1325 0.9318
loop_
_geom_bond_atom_site_label_1
_geom_bond_atom_site_label_2
_geom_bond_site_symmetry_1
_geom_bond_site_symmetry_2
O9 C11 1_555 1_555
O13 C11 1_555 1_555
C11 C19 1_555 1_555
C19 C7 1_555 1_555
C27 N2 1_555 1_555
H13 C27 1_555 1_555
C36 C19 1_555 1_555
H24 C36 1_555 1_555
H41 C49 1_555 1_555
H42 C49 1_555 1_555
H43 C49 1_555 1_555
C27 C36 1_555 1_555
N3 C16 1_555 1_555
C16 H7 1_555 1_555
C33 N3 1_555 1_555
H19 C33 1_555 1_555
C35 C13 1_555 1_555
H23 C35 1_555 1_555
Cu7 N3 1_555 1_555
C16 C35 1_555 1_555
O4 C30 1_555 1_555
N6 C39 1_555 1_555
C8 C30 1_555 1_555
N7 C6 1_555 1_555
C18 C22 1_555 1_555
C22 O14 1_555 1_555
C24 N7 1_555 1_555
H11 C24 1_555 1_555
C30 O5 1_555 1_555
C37 C8 1_555 1_555
H25 C37 1_555 1_555
C38 C6 1_555 1_555
H26 C38 1_555 1_555
C39 C37 1_555 1_555
H27 C39 1_555 1_555
C43 C8 1_555 1_555
C44 N6 1_555 1_555
H34 C44 1_555 1_555
C45 C18 1_555 1_555
H35 C45 1_555 1_555
Cu6 N6 1_555 1_555
C18 C38 1_555 1_555
C24 C45 1_555 1_555
C43 C44 1_555 1_555
O2 C2 1_555 1_555
C2 O10 1_555 1_555
N8 C21 1_555 1_555
C29 C21 1_555 1_555
H15 C29 1_555 1_555
H16 C29 1_555 1_555
H17 C29 1_555 1_555
H31 C41 1_555 1_555
C47 N8 1_555 1_555
H37 C47 1_555 1_555
H38 C47 1_555 1_555
H39 C47 1_555 1_555
I2 Cu2 1_555 1_555
I3 Cu1 1_555 1_555
Cu3 I2 1_555 1_555
O1 C14 1_555 1_555
O3 C1 1_555 1_555
O7 C14 1_555 1_555
O8 Gd2 1_555 1_555
C1 O8 1_555 1_555
N1 Cu4 1_555 1_555
O15 Gd2 1_555 1_555
N4 Cu2 1_555 1_555
C3 H1 1_555 1_555
C4 C20 1_555 1_555
N5 Cu3 1_555 1_555
C5 C1 1_555 1_555
C9 C14 1_555 1_555
C10 N4 1_555 1_555
H4 C10 1_555 1_555
C12 N5 1_555 1_555
H5 C12 1_555 1_555
C15 C5 1_555 1_555
H6 C15 1_555 1_555
H8 C17 1_555 1_555
C20 H9 1_555 1_555
C23 N1 1_555 1_555
H10 C23 1_555 1_555
C25 O6 1_555 1_555
O16 Cu3 1_555 1_555
C26 C9 1_555 1_555
H12 C26 1_555 1_555
C28 N1 1_555 1_555
H14 C28 1_555 1_555
C31 N5 1_555 1_555
H18 C31 1_555 1_555
C32 O16 1_555 1_555
H20 C34 1_555 1_555
H21 C34 1_555 1_555
H22 C34 1_555 1_555
C40 C32 1_555 1_555
H28 C40 1_555 1_555
H29 C40 1_555 1_555
H30 C40 1_555 1_555
C42 C4 1_555 1_555
H32 C42 1_555 1_555
C46 C9 1_555 1_555
H36 C46 1_555 1_555
N9 C32 1_555 1_555
C48 N4 1_555 1_555
H40 C48 1_555 1_555
C50 N9 1_555 1_555
H44 C50 1_555 1_555
H45 C50 1_555 1_555
Gd3 O3 1_555 1_555
N10 Cu3 1_555 1_555
N11 Cu2 1_555 1_555
I2 Cu4 1_555 1_555
I3 Cu4 1_555 1_555
O12 Gd3 1_555 1_555
O15 C25 1_555 1_555
C3 C5 1_555 1_555
C3 C23 1_555 1_555
C4 C25 1_555 1_555
C10 C46 1_555 1_555
C12 C42 1_555 1_555
C15 C28 1_555 1_555
C20 C31 1_555 1_555
C26 C48 1_555 1_555
Gd4 O2_2 1_555 1_555
O2_2 C2_2 1_555 1_555
O6_2 Gd4 1_555 1_555
O10_2 Gd6 1_555 1_555
O11_2 Gd4 1_555 1_555
C2_2 O10_2 1_555 1_555
O15_2 Gd6 1_555 1_555
C4_2 C20_2 1_555 1_555
N5_2 Cu7 1_555 1_555
C12_2 N5_2 1_555 1_555
H5_2 C12_2 1_555 1_555
C20_2 H9_2 1_555 1_555
C21_2 O11_2 1_555 1_555
C25_2 O6_2 1_555 1_555
N8_2 C21_2 1_555 1_555
C29_2 C21_2 1_555 1_555
H15_2 C29_2 1_555 1_555
H16_2 C29_2 1_555 1_555
H17_2 C29_2 1_555 1_555
C31_2 N5_2 1_555 1_555
H18_2 C31_2 1_555 1_555
C34_2 N8_2 1_555 1_555
H20_2 C34_2 1_555 1_555
H21_2 C34_2 1_555 1_555
H22_2 C34_2 1_555 1_555
H31_2 C41_2 1_555 1_555
C42_2 C4_2 1_555 1_555
H32_2 C42_2 1_555 1_555
C47_2 N8_2 1_555 1_555
H37_2 C47_2 1_555 1_555
H38_2 C47_2 1_555 1_555
H39_2 C47_2 1_555 1_555
O18 Gd4 1_555 1_555
O20_2 Gd4 1_555 1_555
O21 Gd4 1_555 1_555
O15_2 C25_2 1_555 1_555
C4_2 C25_2 1_555 1_555
C12_2 C42_2 1_555 1_555
C20_2 C31_2 1_555 1_555
O4_2 C30_2 1_555 1_555
N10 C16_2 1_555 1_555
N6_2 C39_2 1_555 1_555
C8_2 C30_2 1_555 1_555
C16_2 H7_2 1_555 1_555
C30_2 O5_2 1_555 1_555
C33_2 N10 1_555 1_555
H19_2 C33_2 1_555 1_555
C35_2 C13_2 1_555 1_555
H23_2 C35_2 1_555 1_555
C37_2 C8_2 1_555 1_555
H25_2 C37_2 1_555 1_555
C39_2 C37_2 1_555 1_555
H27_2 C39_2 1_555 1_555
C43_2 C8_2 1_555 1_555
H33 C43_2 1_555 1_555
C44_2 N6_2 1_555 1_555
H34_2 C44_2 1_555 1_555
Cu6_2 N6_2 1_555 1_555
C16_2 C35_2 1_555 1_555
C43_2 C44_2 1_555 1_555
I1_2 Cu1_2 1_555 1_555
I2_2 Cu2_2 1_555 1_555
I3_2 Cu1_2 1_555 1_555
Cu1_2 N2_2 1_555 1_555
Cu2_2 I1_2 1_555 1_555
Cu4_2 I1_2 1_555 1_555
O17 C14_2 1_555 1_555
O18 C1_2 1_555 1_555
O19 C14_2 1_555 1_555
O9_2 C11_2 1_555 1_555
C1_2 O8_2 1_555 1_555
N1_2 Cu4_2 1_555 1_555
O13_2 C11_2 1_555 1_555
N2_2 C17_2 1_555 1_555
N4_2 Cu2_2 1_555 1_555
C3_2 H1_2 1_555 1_555
C5_2 C1_2 1_555 1_555
C7_2 H3_2 1_555 1_555
C9_2 C14_2 1_555 1_555
C10_2 N4_2 1_555 1_555
H4_2 C10_2 1_555 1_555
C11_2 C19_2 1_555 1_555
C15_2 C5_2 1_555 1_555
C17_2 C7_2 1_555 1_555
H8_2 C17_2 1_555 1_555
C19_2 C7_2 1_555 1_555
C23_2 N1_2 1_555 1_555
H10_2 C23_2 1_555 1_555
C26_2 C9_2 1_555 1_555
H12_2 C26_2 1_555 1_555
C27_2 N2_2 1_555 1_555
H13_2 C27_2 1_555 1_555
C28_2 N1_2 1_555 1_555
H14_2 C28_2 1_555 1_555
C32_2 O16_2 1_555 1_555
C36_2 C19_2 1_555 1_555
H24_2 C36_2 1_555 1_555
C40_2 C32_2 1_555 1_555
H28_2 C40_2 1_555 1_555
H29_2 C40_2 1_555 1_555
H30_2 C40_2 1_555 1_555
C46_2 C9_2 1_555 1_555
H36_2 C46_2 1_555 1_555
N9_2 C32_2 1_555 1_555
C48_2 N4_2 1_555 1_555
H40_2 C48_2 1_555 1_555
C49_2 N9_2 1_555 1_555
H41_2 C49_2 1_555 1_555
H42_2 C49_2 1_555 1_555
H43_2 C49_2 1_555 1_555
C50_2 N9_2 1_555 1_555
H44_2 C50_2 1_555 1_555
H45_2 C50_2 1_555 1_555
Gd5_2 O9_2 1_555 1_555
Gd7_2 O13_2 1_555 1_555
N11_2 Cu2_2 1_555 1_555
N12_2 Cu1_2 1_555 1_555
I2_2 Cu4_2 1_555 1_555
I3_2 Cu4_2 1_555 1_555
C3_2 C5_2 1_555 1_555
C3_2 C23_2 1_555 1_555
C10_2 C46_2 1_555 1_555
C15_2 C28_2 1_555 1_555
C26_2 C48_2 1_555 1_555
C27_2 C36_2 1_555 1_555
C6_2 H2_2 1_555 1_555
N7_2 C6_2 1_555 1_555
C18_2 C22_2 1_555 1_555
C22_2 O14_2 1_555 1_555
C24_2 N7_2 1_555 1_555
H11_2 C24_2 1_555 1_555
C38_2 C6_2 1_555 1_555
H26_2 C38_2 1_555 1_555
C45_2 C18_2 1_555 1_555
H35_2 C45_2 1_555 1_555
Cu5_2 N7_2 1_555 1_555
C18_2 C38_2 1_555 1_555
C24_2 C45_2 1_555 1_555
I1_3 Cu5_2 1_555 1_555
I2_3 Cu6_2 1_555 1_555
I3_3 Cu5_2 1_555 1_555
Cu5_2 N2_3 1_555 1_555
Cu6_2 I1_3 1_555 1_555
Cu4_3 I1_3 1_555 1_555
O1_2 C14_3 1_555 1_555
O3_2 C1_3 1_555 1_555
O7_2 C14_3 1_555 1_555
O20 C11_3 1_555 1_555
C1_3 O8_3 1_555 1_555
O12_2 C22_3 1_555 1_555
N1_3 Cu4_3 1_555 1_555
O22 C11_3 1_555 1_555
N2_3 C17_3 1_555 1_555
N4_3 Cu6_2 1_555 1_555
C3_3 H1_3 1_555 1_555
C5_3 C1_3 1_555 1_555
C6_3 H2_3 1_555 1_555
C7_3 H3_3 1_555 1_555
C9_3 C14_3 1_555 1_555
C10_3 N4_3 1_555 1_555
H4_3 C10_3 1_555 1_555
C11_3 C19_3 1_555 1_555
N12_2 C6_3 1_555 1_555
C15_3 C5_3 1_555 1_555
C17_3 C7_3 1_555 1_555
H8_3 C17_3 1_555 1_555
C18_3 C22_3 1_555 1_555
C19_3 C7_3 1_555 1_555
C22_3 O14_3 1_555 1_555
C23_3 N1_3 1_555 1_555
H10_3 C23_3 1_555 1_555
C24_3 N12_2 1_555 1_555
H11_3 C24_3 1_555 1_555
C26_3 C9_3 1_555 1_555
H12_3 C26_3 1_555 1_555
C27_3 N2_3 1_555 1_555
H13_3 C27_3 1_555 1_555
C28_3 N1_3 1_555 1_555
H14_3 C28_3 1_555 1_555
C32_3 O16_3 1_555 1_555
C36_3 C19_3 1_555 1_555
H24_3 C36_3 1_555 1_555
C38_3 C6_3 1_555 1_555
H26_3 C38_3 1_555 1_555
C40_3 C32_3 1_555 1_555
H28_3 C40_3 1_555 1_555
H29_3 C40_3 1_555 1_555
H30_3 C40_3 1_555 1_555
C45_3 C18_3 1_555 1_555
H35_3 C45_3 1_555 1_555
C46_3 C9_3 1_555 1_555
H36_3 C46_3 1_555 1_555
N9_3 C32_3 1_555 1_555
C48_3 N4_3 1_555 1_555
H40_3 C48_3 1_555 1_555
C49_3 N9_3 1_555 1_555
H41_3 C49_3 1_555 1_555
H42_3 C49_3 1_555 1_555
H43_3 C49_3 1_555 1_555
C50_3 N9_3 1_555 1_555
H44_3 C50_3 1_555 1_555
H45_3 C50_3 1_555 1_555
H46_3 C50_3 1_555 1_555
Gd5 O3_2 1_555 1_555
Gd5_2 O7_2 1_555 1_555
Gd7_2 O1_2 1_555 1_555
I2_3 Cu4_3 1_555 1_555
I3_3 Cu4_3 1_555 1_555
O12_2 Gd5 1_555 1_555
C3_3 C5_3 1_555 1_555
C3_3 C23_3 1_555 1_555
C10_3 C46_3 1_555 1_555
C15_3 C28_3 1_555 1_555
C18_3 C38_3 1_555 1_555
C24_3 C45_3 1_555 1_555
C26_3 C48_3 1_555 1_555
C27_3 C36_3 1_555 1_555
Gd7 O4_3 1_555 1_555
O4_3 C30_3 1_555 1_555
O5_3 Gd5 1_555 1_555
O6_3 Gd5 1_555 1_555
O11_3 Gd5 1_555 1_555
O15_3 Gd7 1_555 1_555
C4_3 C20_3 1_555 1_555
N5_3 Cu3_2 1_555 1_555
N11_2 C39_3 1_555 1_555
C8_3 C30_3 1_555 1_555
C12_3 N5_3 1_555 1_555
H5_3 C12_3 1_555 1_555
C20_3 H9_3 1_555 1_555
C25_3 O6_3 1_555 1_555
C30_3 O5_3 1_555 1_555
C31_3 N5_3 1_555 1_555
H18_3 C31_3 1_555 1_555
H20_3 C34_3 1_555 1_555
H21_3 C34_3 1_555 1_555
H22_3 C34_3 1_555 1_555
C37_3 C8_3 1_555 1_555
H25_3 C37_3 1_555 1_555
C39_3 C37_3 1_555 1_555
H27_3 C39_3 1_555 1_555
C42_3 C4_3 1_555 1_555
H32_3 C42_3 1_555 1_555
C43_3 C8_3 1_555 1_555
H33_2 C43_3 1_555 1_555
C44_3 N11_2 1_555 1_555
H34_3 C44_3 1_555 1_555
N10_2 Cu3_2 1_555 1_555
O15_3 C25_3 1_555 1_555
C4_3 C25_3 1_555 1_555
C12_3 C42_3 1_555 1_555
C20_3 C31_3 1_555 1_555
C43_3 C44_3 1_555 1_555
O2_3 C2_3 1_555 1_555
C2_3 O10_3 1_555 1_555
N3_2 C16_3 1_555 1_555
C13_3 C2_3 1_555 1_555
C16_3 H7_3 1_555 1_555
N8_3 C21_3 1_555 1_555
C29_3 C21_3 1_555 1_555
H15_3 C29_3 1_555 1_555
H16_3 C29_3 1_555 1_555
H17_3 C29_3 1_555 1_555
C33_3 N3_2 1_555 1_555
H19_3 C33_3 1_555 1_555
C35_3 C13_3 1_555 1_555
H23_3 C35_3 1_555 1_555
C41_3 C13_3 1_555 1_555
H31_3 C41_3 1_555 1_555
C47_3 N8_3 1_555 1_555
H37_3 C47_3 1_555 1_555
H38_3 C47_3 1_555 1_555
H39_3 C47_3 1_555 1_555
Cu7_2 N3_2 1_555 1_555
C16_3 C35_3 1_555 1_555
C33_3 C41_3 1_555 1_555
O18_2 Gd5_2 1_555 1_555
O21_2 Gd5_2 1_555 1_555
Gd7_2 O4_4 1_555 1_555
I2_4 Cu6 1_555 1_555
I3_4 Cu5 1_555 1_555
Cu7_2 I2_4 1_555 1_555
O17_2 C14_4 1_555 1_555
O2_4 C2_4 1_555 1_555
O18_2 C1_4 1_555 1_555
O4_4 C30_4 1_555 1_555
O19_2 C14_4 1_555 1_555
O8_4 Gd7_2 1_555 1_555
O10_4 Gd7_2 1_555 1_555
C1_4 O8_4 1_555 1_555
O21_2 C22_4 1_555 1_555
N1_4 Cu4_4 1_555 1_555
C2_4 O10_4 1_555 1_555
N10_2 C16_4 1_555 1_555
O14_4 Gd7_2 1_555 1_555
O15_4 Gd7_2 1_555 1_555
N4_4 Cu6 1_555 1_555
C3_4 H1_4 1_555 1_555
C4_4 C20_4 1_555 1_555
N5_4 Cu7_2 1_555 1_555
C5_4 C1_4 1_555 1_555
N11 C39_4 1_555 1_555
C8_4 C30_4 1_555 1_555
C9_4 C14_4 1_555 1_555
C10_4 N4_4 1_555 1_555
H4_4 C10_4 1_555 1_555
C12_4 N5_4 1_555 1_555
H5_4 C12_4 1_555 1_555
C13_4 C2_4 1_555 1_555
N12 C6_4 1_555 1_555
C15_4 C5_4 1_555 1_555
H6_4 C15_4 1_555 1_555
C16_4 H7_4 1_555 1_555
H8_4 C17_4 1_555 1_555
C18_4 C22_4 1_555 1_555
C20_4 H9_4 1_555 1_555
C21_4 O11_4 1_555 1_555
C22_4 O14_4 1_555 1_555
C23_4 N1_4 1_555 1_555
H10_4 C23_4 1_555 1_555
C24_4 N12 1_555 1_555
H11_4 C24_4 1_555 1_555
C25_4 O6_4 1_555 1_555
N8_4 C21_4 1_555 1_555
O16_4 Cu7_2 1_555 1_555
C26_4 C9_4 1_555 1_555
H12_4 C26_4 1_555 1_555
C28_4 N1_4 1_555 1_555
H14_4 C28_4 1_555 1_555
C29_4 C21_4 1_555 1_555
H15_4 C29_4 1_555 1_555
H16_4 C29_4 1_555 1_555
H17_4 C29_4 1_555 1_555
C30_4 O5_4 1_555 1_555
C31_4 N5_4 1_555 1_555
H18_4 C31_4 1_555 1_555
C32_4 O16_4 1_555 1_555
C33_4 N10_2 1_555 1_555
H19_4 C33_4 1_555 1_555
C34_4 N8_4 1_555 1_555
H20_4 C34_4 1_555 1_555
H21_4 C34_4 1_555 1_555
H22_4 C34_4 1_555 1_555
C35_4 C13_4 1_555 1_555
H23_4 C35_4 1_555 1_555
C37_4 C8_4 1_555 1_555
H25_4 C37_4 1_555 1_555
C38_4 C6_4 1_555 1_555
H26_4 C38_4 1_555 1_555
C39_4 C37_4 1_555 1_555
H27_4 C39_4 1_555 1_555
C40_4 C32_4 1_555 1_555
H28_4 C40_4 1_555 1_555
H29_4 C40_4 1_555 1_555
H30_4 C40_4 1_555 1_555
C41_4 C13_4 1_555 1_555
H31_4 C41_4 1_555 1_555
C42_4 C4_4 1_555 1_555
H32_4 C42_4 1_555 1_555
C43_4 C8_4 1_555 1_555
C44_4 N11 1_555 1_555
H34_4 C44_4 1_555 1_555
C45_4 C18_4 1_555 1_555
H35_4 C45_4 1_555 1_555
C46_4 C9_4 1_555 1_555
H36_4 C46_4 1_555 1_555
N9_4 C32_4 1_555 1_555
C47_4 N8_4 1_555 1_555
H37_4 C47_4 1_555 1_555
H38_4 C47_4 1_555 1_555
H39_4 C47_4 1_555 1_555
C48_4 N4_4 1_555 1_555
H40_4 C48_4 1_555 1_555
C50_4 N9_4 1_555 1_555
H44_4 C50_4 1_555 1_555
H45_4 C50_4 1_555 1_555
H46_4 C50_4 1_555 1_555
I2_4 Cu4_4 1_555 1_555
I3_4 Cu4_4 1_555 1_555
O15_4 C25_4 1_555 1_555
C3_4 C5_4 1_555 1_555
C3_4 C23_4 1_555 1_555
C4_4 C25_4 1_555 1_555
C10_4 C46_4 1_555 1_555
C12_4 C42_4 1_555 1_555
C15_4 C28_4 1_555 1_555
C16_4 C35_4 1_555 1_555
C18_4 C38_4 1_555 1_555
C20_4 C31_4 1_555 1_555
C24_4 C45_4 1_555 1_555
C26_4 C48_4 1_555 1_555
C33_4 C41_4 1_555 1_555
C43_4 C44_4 1_555 1_555
O20_2 C11_4 1_555 1_555
O22_2 C11_4 1_555 1_555
C11_4 C19_4 1_555 1_555
C19_4 C7_4 1_555 1_555
C27_4 N2_4 1_555 1_555
H13_4 C27_4 1_555 1_555
C36_4 C19_4 1_555 1_555
H24_4 C36_4 1_555 1_555
H41_4 C49_4 1_555 1_555
H42_4 C49_4 1_555 1_555
H43_4 C49_4 1_555 1_555
C27_4 C36_4 1_555 1_555

#END
