
###############################################################################
#
# This file contains modified crystal structure data generated from the
# MOF subset of the Cambridge Structural Database (CSD) v543 
# hosted by the Cambridge Crystallographic Data Centre (CCDC).
#
# This work is licensed under the Creative Commons
# Attribution-NonCommercial-ShareAlike 4.0 International License.
# To view a copy of this license, visit
# http://creativecommons.org/licenses/by-nc-sa/4.0/
# or send a letter to
# Creative Commons, PO Box 1866, Mountain View, CA 94042, USA.
#
# CIF created using the CSD Python API on 29 September 2022
# The structure has been converted into the P1 space group
# The structure has a 3D framework
# The original CSD entry TEBLIY is in the orthorhombic crystal system
# The original CSD entry TEBLIY is in a Sohncke space group
# The framework has been calculated to contain at least 10.0% void space
# The void calculation uses a probe of radius 1.32A, grid spacing 0.4
#
###############################################################################

data_TEBLIY
_chemical_formula_moiety         '(C200 H184 Cu14 Eu6 I12 N36 O64)n'
_symmetry_cell_setting           triclinic
_symmetry_space_group_name_H-M   'P 1'
_symmetry_Int_Tables_number      1
_space_group_name_Hall           'P 1'
loop_
_symmetry_equiv_pos_site_id
_symmetry_equiv_pos_as_xyz
1 x,y,z
_cell_length_a                   9.2909(5)
_cell_length_b                   22.8967(11)
_cell_length_c                   30.9233(18)
_cell_angle_alpha                90
_cell_angle_beta                 90
_cell_angle_gamma                90
_cell_volume                     6578.34
loop_
_atom_site_label
_atom_site_type_symbol
_atom_site_fract_x
_atom_site_fract_y
_atom_site_fract_z
Cu1 Cu 0.04462(13) 0.11714(5) 0.27579(3)
N10 N 0.1278(8) 0.1062(3) 0.2168(2)
N12 N 0.1189(9) 0.0742(3) 0.3278(2)
Eu1 Eu 0.45992(3) 0.558549(14) 0.484406(11)
I1 I 0.79011(6) 0.39397(2) 0.246357(19)
I2 I 0.48616(6) 0.24466(2) 0.271648(17)
I3 I 0.97600(6) 0.22913(2) 0.283296(17)
Cu2 Cu 0.50950(13) 0.35931(4) 0.24872(3)
Cu3 Cu 0.71770(12) 0.23425(4) 0.32007(3)
Cu4 Cu 0.74429(13) 0.28300(5) 0.24012(4)
C1 C 0.2002(10) 0.4279(4) 0.3394(3)
H1 H 0.1023 0.4225 0.3442
C2 C 0.8582(10) 0.5520(4) 0.3489(3)
H2 H 0.8898 0.5204 0.3652
O1 O 0.5785(6) 0.6521(2) 0.49681(19)
C3 C 0.9094(10) 0.5592(4) 0.3071(3)
H3 H 0.9704 0.5312 0.2954
O2 O 0.8221(6) 0.4572(2) 0.4676(2)
O3 O 0.8648(6) 0.5188(3) 0.54499(18)
N1 N 0.8722(8) 0.6062(3) 0.2832(2)
C4 C 0.0901(9) 0.6931(4) 0.3706(3)
C5 C 0.2324(9) 0.4059(3) 0.5622(3)
O4 O 0.3539(6) 0.4771(2) 0.5220(2)
C6 C 0.7220(9) 0.0694(4) 0.2567(3)
C7 C 0.7621(8) 0.5903(3) 0.3663(2)
O5 O 0.5836(5) 0.4715(2) 0.4587(2)
O6 O 0.8468(8) 0.0622(4) 0.2696(3)
N2 N 0.7047(8) 0.3083(3) 0.3571(2)
N3 N 0.2172(8) 0.3288(3) 0.6329(2)
O7 O 0.0762(6) 0.6149(3) 0.4408(2)
O8 O 0.1285(6) 0.4545(3) 0.5043(2)
O9 O 0.3071(5) 0.6339(2) 0.45751(18)
C8 C 0.3529(10) 0.3951(5) 0.5884(3)
H5 H 0.4401 0.4136 0.5829
N4 N 0.6189(9) 0.4258(3) 0.6722(2)
O10 O 0.1471(6) 0.4015(3) 0.05039(18)
N5 N 0.4085(8) 0.4069(3) 0.2956(2)
C9 C 0.2806(8) 0.4640(3) 0.3665(2)
C10 C 0.2091(8) 0.6762(3) 0.3943(2)
C11 C 0.7340(8) 0.5179(3) 0.5557(2)
O11 O 0.3733(6) 0.4200(3) 0.03086(17)
O12 O 0.0800(6) 0.4861(3) 0.41206(18)
C12 C 0.6976(8) 0.4854(3) 0.5968(2)
C13 C 0.7009(8) 0.4466(3) 0.4503(2)
C14 C 0.4245(9) 0.4730(4) 0.3558(3)
H6 H 0.4814 0.4984 0.3719
C15 C 0.2378(9) 0.4492(3) 0.5264(3)
O13 O 0.7934(6) 0.5712(3) 0.44112(19)
N6 N 0.2342(8) 0.7459(3) 0.3202(2)
O14 O 0.2951(6) 0.5179(3) 0.43203(17)
C16 C 0.4808(9) 0.4434(4) 0.3208(3)
H7 H 0.5774 0.4496 0.3144
C17 C 0.6977(8) 0.3978(3) 0.4180(3)
C18 C 0.1944(8) 0.6389(3) 0.4345(2)
C19 C 0.2799(9) 0.4046(3) 0.0577(2)
C20 C 0.6786(9) 0.6735(3) 0.5193(3)
C21 C 0.3437(8) 0.6961(4) 0.3808(3)
H8 H 0.4261 0.6869 0.3964
C22 C 0.3531(9) 0.7298(4) 0.3436(3)
H9 H 0.4433 0.7419 0.3342
C23 C 0.8157(9) 0.3422(4) 0.3647(3)
H10 H 0.8986 0.3355 0.3486
N7 N 0.7843(9) 0.7036(4) 0.5015(3)
C24 C 0.1073(9) 0.7278(4) 0.3346(3)
H11 H 0.0254 0.7392 0.3195
C25 C 0.4742(9) 0.3971(4) 0.1139(3)
H12 H 0.5374 0.4130 0.0938
N8 N 0.4332(8) 0.3631(3) 0.1862(2)
C26 C 0.3401(12) 0.3568(5) 0.6225(4)
H13 H 0.4211 0.3497 0.6393
C27 C 0.5226(9) 0.3839(4) 0.1548(3)
H14 H 0.6194 0.3894 0.1613
C28 C 0.7782(10) 0.6442(4) 0.3010(3)
H15 H 0.7510 0.6767 0.2849
C29 C 0.7090(12) 0.4033(5) 0.6441(3)
H16 H 0.7465 0.3663 0.6496
C30 C 0.7205(9) 0.6375(4) 0.3416(3)
H17 H 0.6543 0.6644 0.3522
C31 C 0.5842(10) 0.3207(4) 0.3803(3)
H18 H 0.5028 0.2979 0.3759
C32 C 0.2679(11) 0.4003(5) 0.3051(3)
H19 H 0.2133 0.3757 0.2876
C33 C 0.2155(8) 0.4915(3) 0.4062(3)
C34 C 0.8195(9) 0.3858(4) 0.3938(3)
H20 H 0.9030 0.4076 0.3976
C35 C 0.5689(14) 0.4782(5) 0.6631(3)
H21 H 0.5080 0.4956 0.6832
C36 C 0.3328(9) 0.3871(4) 0.1025(3)
N9 N 0.6107(10) 0.0507(4) 0.2776(4)
C37 C 0.7016(14) 0.1031(5) 0.2139(4)
H22 H 0.7938 0.1151 0.2030
H23 H 0.6428 0.1369 0.2189
H24 H 0.6555 0.0783 0.1931
C38 C 0.2445(9) 0.3633(5) 0.1335(3)
H25 H 0.1491 0.3548 0.1270
C39 C 0.7782(13) 0.7166(5) 0.4562(4)
H26 H 0.8690 0.7073 0.4431
H27 H 0.7579 0.7573 0.4523
H28 H 0.7036 0.6938 0.4429
C40 C 0.7056(8) 0.5820(3) 0.4114(3)
C41 C 0.9123(11) 0.7224(5) 0.5250(5)
H29 H 0.9115 0.7642 0.5278
H30 H 0.9968 0.7106 0.5094
H31 H 0.9129 0.7049 0.5532
C42 C 0.5764(9) 0.3651(4) 0.4100(3)
H32 H 0.4906 0.3729 0.4244
C43 C 0.7515(11) 0.4320(5) 0.6065(3)
H33 H 0.8172 0.4144 0.5879
C44 C 0.1058(10) 0.3387(5) 0.6077(4)
H34 H 0.0198 0.3200 0.6145
C45 C 0.2976(11) 0.3520(5) 0.1745(3)
H35 H 0.2356 0.3359 0.1949
C46 C 0.1074(10) 0.3750(5) 0.5719(4)
H36 H 0.0262 0.3787 0.5545
C47 C 0.4612(11) 0.0586(7) 0.2625(7)
H37 H 0.4065 0.0786 0.2843
H38 H 0.4187 0.0212 0.2570
H39 H 0.4611 0.0813 0.2364
C48 C 0.5997(12) 0.5096(4) 0.6260(3)
H40 H 0.5566 0.5456 0.6206
C49 C 0.6783(12) 0.6661(5) 0.5680(3)
H41 H 0.5840 0.6547 0.5774
H42 H 0.7042 0.7024 0.5815
H43 H 0.7466 0.6366 0.5760
C50 C 0.631(2) 0.0206(9) 0.3197(6)
H45 H 0.5389 0.0118 0.3320
H46 H 0.6840 0.0454 0.3389
O15 O 0.6348(7) 0.5412(3) 0.53686(18)
O16 O 0.5708(6) 0.5876(3) 0.41642(18)
Eu4 Eu 0.99107(4) 0.530646(14) 0.477888(11)
Cu5 Cu 0.54462(13) 0.38286(5) 0.72421(3)
Cu6 Cu 0.95538(13) 0.61714(5) 0.22421(3)
Cu7 Cu 0.21770(12) 0.26575(4) 0.67993(3)
Cu8 Cu 0.25571(13) 0.78300(5) 0.25988(4)
N11 N 0.7172(8) 0.1712(3) 0.3671(2)
O19 O 0.3529(6) 0.5985(3) 0.55039(18)
O20 O 0.1267(6) 0.5800(3) 0.53086(17)
N13 N 0.7658(8) 0.2459(3) 0.1798(2)
Eu3 Eu 0.04008(3) 0.441451(14) 0.984406(11)
Eu5 Eu 0.50893(4) 0.469354(14) 0.977888(11)
H4 H 0.9986 0.6811 0.3790
C5_2 C 0.2676(9) 0.5941(3) 0.0622(3)
O4_2 O 0.1461(6) 0.5229(2) 0.0220(2)
N3_2 N 0.2828(8) 0.6712(3) 0.1329(2)
O8_2 O 0.3715(6) 0.5455(3) 0.0043(2)
C8_2 C 0.1471(10) 0.6049(5) 0.0884(3)
H5_2 H 0.0599 0.5864 0.0829
C15_2 C 0.2622(9) 0.5508(3) 0.0264(3)
C26_2 C 0.1599(12) 0.6432(5) 0.1225(4)
H13_2 H 0.0789 0.6503 0.1393
C44_2 C 0.3942(10) 0.6613(5) 0.1077(4)
H34_2 H 0.4802 0.6800 0.1145
C46_2 C 0.3926(10) 0.6250(5) 0.0719(4)
H36_2 H 0.4738 0.6213 0.0545
Cu7_2 Cu 0.28230(12) 0.73425(4) 0.17993(3)
O18 O 0.6352(6) 0.4812(3) 0.04499(18)
I2_2 I 0.01384(6) 0.75534(2) 0.771648(17)
C1_2 C 0.2998(10) 0.5721(4) 0.8394(3)
H1_2 H 0.3977 0.5775 0.8442
C4_2 C 0.4099(9) 0.3069(4) 0.8706(3)
H4_2 H 0.5014 0.3189 0.8790
O7_2 O 0.4238(6) 0.3851(3) 0.9408(2)
O9_2 O 0.1929(5) 0.3661(2) 0.95751(18)
N5_2 N 0.0915(8) 0.5931(3) 0.7956(2)
C9_2 C 0.2194(8) 0.5360(3) 0.8665(2)
C10_2 C 0.2909(8) 0.3238(3) 0.8943(2)
O12_2 O 0.4200(6) 0.5139(3) 0.91206(18)
C14_2 C 0.0755(9) 0.5270(4) 0.8558(3)
H6_2 H 0.0186 0.5016 0.8719
N6_2 N 0.2658(8) 0.2541(3) 0.8202(2)
O14_2 O 0.2049(6) 0.4821(3) 0.93203(17)
C16_2 C 0.0192(9) 0.5566(4) 0.8208(3)
C18_2 C 0.3056(8) 0.3611(3) 0.9345(2)
C19_2 C 0.2201(9) 0.5954(3) 0.5577(2)
C21_2 C 0.1563(8) 0.3039(4) 0.8808(3)
H8_2 H 0.0739 0.3131 0.8964
C22_2 C 0.1469(9) 0.2702(4) 0.8436(3)
H9_2 H 0.0567 0.2581 0.8342
C24_2 C 0.3927(9) 0.2722(4) 0.8346(3)
H11_2 H 0.4746 0.2608 0.8195
C25_2 C 0.0258(9) 0.6029(4) 0.6139(3)
N8_2 N 0.0668(8) 0.6369(3) 0.6862(2)
C32_2 C 0.2321(11) 0.5997(5) 0.8051(3)
H19_2 H 0.2867 0.6243 0.7876
C33_2 C 0.2845(8) 0.5085(3) 0.9062(3)
C36_2 C 0.1672(9) 0.6129(4) 0.6025(3)
C38_2 C 0.2555(9) 0.6367(5) 0.6335(3)
H25_2 H 0.3509 0.6452 0.6270
H32_2 H 0.0094 0.6271 0.9244
C45_2 C 0.2024(11) 0.6480(5) 0.6745(3)
H35_2 H 0.2644 0.6641 0.6949
C47_2 C 0.0388(11) 0.9414(7) 0.7625(7)
H37_2 H 0.0935 0.9214 0.7843
H38_2 H 0.0813 0.9788 0.7570
H39_2 H 0.0389 0.9187 0.7364
Cu8_2 Cu 0.24429(13) 0.21700(5) 0.75988(4)
O17 O 0.6779(6) 0.5428(2) 0.9676(2)
O21 O 0.7066(6) 0.4288(3) 0.94112(19)
N4_2 N 0.8811(9) 0.5742(3) 0.1722(2)
C11_2 C 0.7660(8) 0.4821(3) 0.0557(2)
C12_2 C 0.8024(8) 0.5146(3) 0.0968(2)
C20_2 C 0.8214(9) 0.3265(3) 0.0193(3)
N7_2 N 0.7157(9) 0.2964(4) 0.0015(3)
C29_2 C 0.7910(12) 0.5967(5) 0.1441(3)
H16_2 H 0.7535 0.6337 0.1496
C35_2 C 0.9311(14) 0.5218(5) 0.1631(3)
H21_2 H 0.9920 0.5044 0.1832
C41_2 C 0.5877(11) 0.2776(5) 0.0250(5)
H29_2 H 0.5885 0.2358 0.0278
H30_2 H 0.5032 0.2894 0.0094
H31_2 H 0.5871 0.2951 0.0532
C43_2 C 0.7485(11) 0.5680(5) 0.1065(3)
H33_2 H 0.6828 0.5856 0.0879
C48_2 C 0.9003(12) 0.4904(4) 0.1260(3)
H40_2 H 0.9434 0.4544 0.1206
C49_2 C 0.8217(12) 0.3339(5) 0.0680(3)
H41_2 H 0.9160 0.3453 0.0774
H42_2 H 0.7958 0.2976 0.0815
H43_2 H 0.7534 0.3634 0.0760
O15_2 O 0.8652(7) 0.4588(3) 0.03686(18)
I1_2 I 0.70989(6) 0.60603(2) 0.746357(19)
I3_2 I 0.52400(6) 0.77087(2) 0.783296(17)
Cu1_2 Cu 0.45538(13) 0.88286(5) 0.77579(3)
Cu2_2 Cu 0.99050(13) 0.64069(4) 0.74872(3)
Cu3_2 Cu 0.78230(12) 0.76575(4) 0.82007(3)
Cu4_2 Cu 0.75571(13) 0.71700(5) 0.74012(4)
C2_2 C 0.6418(10) 0.4480(4) 0.8489(3)
H2_2 H 0.6102 0.4796 0.8652
O1_2 O 0.9215(6) 0.3479(2) 0.99681(19)
C3_2 C 0.5906(10) 0.4408(4) 0.8071(3)
H3_2 H 0.5296 0.4688 0.7954
N1_2 N 0.6278(8) 0.3938(3) 0.7832(2)
C6_2 C 0.7780(9) 0.9306(4) 0.7567(3)
C7_2 C 0.7379(8) 0.4097(3) 0.8663(2)
O5_2 O 0.9164(5) 0.5285(2) 0.9587(2)
O6_2 O 0.6532(8) 0.9378(4) 0.7696(3)
N2_2 N 0.7953(8) 0.6917(3) 0.8571(2)
C13_2 C 0.7991(8) 0.5534(3) 0.9503(2)
H7_2 H 0.9226 0.5504 0.8144
C17_2 C 0.8023(8) 0.6022(3) 0.9180(3)
C23_2 C 0.6843(9) 0.6578(4) 0.8647(3)
H10_2 H 0.6014 0.6645 0.8486
H12_2 H 0.9626 0.5870 0.5938
C27_2 C 0.9774(9) 0.6161(4) 0.6548(3)
H14_2 H 0.8806 0.6106 0.6613
C28_2 C 0.7218(10) 0.3558(4) 0.8010(3)
H15_2 H 0.7490 0.3233 0.7849
C30_2 C 0.7795(9) 0.3625(4) 0.8416(3)
H17_2 H 0.8457 0.3356 0.8522
C31_2 C 0.9158(10) 0.6793(4) 0.8803(3)
H18_2 H 0.9972 0.7021 0.8759
C34_2 C 0.6805(9) 0.6142(4) 0.8938(3)
H20_2 H 0.5970 0.5924 0.8976
N9_2 N 0.8893(10) 0.9493(4) 0.7776(4)
C37_2 C 0.7984(14) 0.8969(5) 0.7139(4)
H22_2 H 0.7062 0.8849 0.7030
H23_2 H 0.8572 0.8631 0.7189
H24_2 H 0.8445 0.9217 0.6931
C39_2 C 0.7218(13) 0.2834(5) 0.9562(4)
H26_2 H 0.6310 0.2927 0.9431
H27_2 H 0.7421 0.2427 0.9523
H28_2 H 0.7964 0.3062 0.9429
C40_2 C 0.7944(8) 0.4180(3) 0.9114(3)
C42_2 C 0.9236(9) 0.6349(4) 0.9100(3)
C50_2 C 0.869(2) 0.9794(9) 0.8197(6)
H45_2 H 0.9611 0.9882 0.8320
H46_2 H 0.8160 0.9546 0.8389
O16_2 O 0.9292(6) 0.4124(3) 0.91642(18)
N10_2 N 0.3722(8) 0.8938(3) 0.7168(2)
N11_2 N 0.7828(8) 0.8288(3) 0.8671(2)
N12_2 N 0.3811(9) 0.9258(3) 0.8278(2)
N13_2 N 0.7342(8) 0.7541(3) 0.6798(2)
Eu5_2 Eu 0.00893(4) 0.030646(14) 0.022112(11)
I1_3 I 0.29011(6) 0.10603(2) 0.753643(19)
I3_3 I 0.47600(6) 0.27087(2) 0.716704(17)
Cu2_3 Cu 0.00950(13) 0.14069(4) 0.75128(3)
O2_2 O 0.3221(6) 0.0428(2) 0.5324(2)
C6_3 C 0.2220(9) 0.4306(4) 0.7433(3)
O5_3 O 0.0836(5) 0.0285(2) 0.5413(2)
O6_3 O 0.3468(8) 0.4378(4) 0.7304(3)
N2_3 N 0.2047(8) 0.1917(3) 0.6429(2)
C12_3 C 0.1976(8) 0.0146(3) 0.4032(2)
C13_3 C 0.2009(8) 0.0534(3) 0.5497(2)
H7_3 H 0.0774 0.0504 0.6856
C17_3 C 0.1977(8) 0.1022(3) 0.5820(3)
C23_3 C 0.3157(9) 0.1578(4) 0.6353(3)
H10_3 H 0.3986 0.1645 0.6514
H12_3 H 0.0374 0.0870 0.9062
C27_3 C 0.0226(9) 0.1161(4) 0.8452(3)
H14_3 H 0.1194 0.1106 0.8387
C29_3 C 0.2090(12) 0.0967(5) 0.3559(3)
H16_3 H 0.2465 0.1337 0.3504
C31_3 C 0.0842(10) 0.1793(4) 0.6197(3)
H18_3 H 0.0028 0.2021 0.6241
C34_3 C 0.3195(9) 0.1142(4) 0.6062(3)
H20_3 H 0.4030 0.0924 0.6024
C35_3 C 0.0689(14) 0.0218(5) 0.3369(3)
H21_3 H 0.0080 0.0044 0.3168
N9_3 N 0.1107(10) 0.4493(4) 0.7224(4)
C37_3 C 0.2016(14) 0.3969(5) 0.7861(4)
H22_3 H 0.2938 0.3849 0.7970
H23_3 H 0.1428 0.3631 0.7811
H24_3 H 0.1555 0.4217 0.8069
C42_3 C 0.0764(9) 0.1349(4) 0.5900(3)
C43_3 C 0.2515(11) 0.0680(5) 0.3935(3)
H33_3 H 0.3172 0.0856 0.4121
C50_3 C 0.131(2) 0.4794(9) 0.6803(6)
H44 H 0.1836 0.5150 0.6848
H45_3 H 0.0389 0.4882 0.6680
H46_3 H 0.1840 0.4546 0.6611
C2_3 C 0.3582(10) 0.9480(4) 0.6511(3)
H2_3 H 0.3898 0.9796 0.6348
O1_3 O 0.0785(6) 0.8479(2) 0.50319(19)
C3_3 C 0.4094(10) 0.9408(4) 0.6929(3)
H3_3 H 0.4704 0.9688 0.7046
O3_2 O 0.3648(6) 0.9812(3) 0.45501(18)
C7_3 C 0.2621(8) 0.9097(3) 0.6337(2)
C11_3 C 0.2340(8) 0.9821(3) 0.4443(2)
O13_2 O 0.2934(6) 0.9288(3) 0.55888(19)
C20_3 C 0.1786(9) 0.8265(3) 0.4807(3)
N7_3 N 0.2843(9) 0.7964(4) 0.4985(3)
C28_3 C 0.2782(10) 0.8558(4) 0.6990(3)
H15_3 H 0.2510 0.8233 0.7151
C30_3 C 0.2205(9) 0.8625(4) 0.6584(3)
H17_3 H 0.1543 0.8356 0.6478
C39_3 C 0.2782(13) 0.7834(5) 0.5438(4)
H26_3 H 0.3690 0.7927 0.5569
H27_3 H 0.2579 0.7427 0.5477
H28_3 H 0.2036 0.8062 0.5571
C40_3 C 0.2056(8) 0.9180(3) 0.5886(3)
C41_3 C 0.4123(11) 0.7776(5) 0.4750(5)
H29_3 H 0.4115 0.7358 0.4722
H30_3 H 0.4968 0.7894 0.4906
H31_3 H 0.4129 0.7951 0.4468
C48_3 C 0.0997(12) 0.9904(4) 0.3740(3)
H40_3 H 0.0566 0.9544 0.3794
C49_3 C 0.1783(12) 0.8339(5) 0.4320(3)
H41_3 H 0.0840 0.8453 0.4226
H42_3 H 0.2042 0.7976 0.4185
H43_3 H 0.2466 0.8634 0.4240
O15_3 O 0.1348(7) 0.9588(3) 0.46314(18)
O16_3 O 0.0708(6) 0.9124(3) 0.58358(18)
Eu4_2 Eu 0.49107(4) 0.969354(14) 0.522112(11)
Eu3_2 Eu 0.54008(3) 0.058549(14) 0.015594(11)
I2_3 I 0.98616(6) 0.25534(2) 0.728352(17)
C1_3 C 0.7002(10) 0.0721(4) 0.6606(3)
H1_3 H 0.6023 0.0775 0.6558
C5_3 C 0.7324(9) 0.0941(3) 0.4378(3)
O4_3 O 0.8539(6) 0.0229(2) 0.4780(2)
O8_3 O 0.6285(6) 0.0455(3) 0.4957(2)
C8_3 C 0.8529(10) 0.1049(5) 0.4116(3)
H5_3 H 0.9401 0.0864 0.4171
O10_2 O 0.6471(6) 0.0985(3) 0.94961(18)
N5_3 N 0.9085(8) 0.0931(3) 0.7044(2)
C9_3 C 0.7806(8) 0.0360(3) 0.6335(2)
O11_2 O 0.8733(6) 0.0800(3) 0.96914(17)
O12_3 O 0.5800(6) 0.0139(3) 0.58794(18)
C14_3 C 0.9245(9) 0.0270(4) 0.6442(3)
H6_3 H 0.9814 0.0016 0.6281
C15_3 C 0.7378(9) 0.0508(3) 0.4736(3)
C16_3 C 0.9808(9) 0.0566(4) 0.6792(3)
C19_3 C 0.7799(9) 0.0954(3) 0.9423(2)
C25_3 C 0.9742(9) 0.1029(4) 0.8861(3)
N8_3 N 0.9332(8) 0.1369(3) 0.8138(2)
C26_3 C 0.8401(12) 0.1432(5) 0.3775(4)
H13_3 H 0.9211 0.1503 0.3607
C32_3 C 0.7679(11) 0.0997(5) 0.6949(3)
H19_3 H 0.7133 0.1243 0.7124
C33_3 C 0.7155(8) 0.0085(3) 0.5938(3)
C36_3 C 0.8328(9) 0.1129(4) 0.8975(3)
C38_3 C 0.7445(9) 0.1367(5) 0.8665(3)
H25_3 H 0.6491 0.1452 0.8730
H32_3 H 0.9906 0.1271 0.5756
C44_3 C 0.6058(10) 0.1613(5) 0.3923(4)
H34_3 H 0.5198 0.1800 0.3855
C45_3 C 0.7976(11) 0.1480(5) 0.8255(3)
H35_3 H 0.7356 0.1641 0.8051
C46_3 C 0.6074(10) 0.1250(5) 0.4281(4)
H36_3 H 0.5262 0.1213 0.4455
C47_3 C 0.9612(11) 0.4414(7) 0.7375(7)
H37_3 H 0.9065 0.4214 0.7157
H38_3 H 0.9187 0.4788 0.7430
H39_3 H 0.9611 0.4187 0.7636
Eu1_2 Eu 0.95992(3) 0.941451(14) 0.515594(11)
C4_3 C 0.5901(9) 0.8069(4) 0.6294(3)
H4_3 H 0.4986 0.8189 0.6210
O7_3 O 0.5762(6) 0.8851(3) 0.5592(2)
O9_3 O 0.8071(5) 0.8661(2) 0.54249(18)
C10_3 C 0.7091(8) 0.8238(3) 0.6057(2)
O14_3 O 0.7951(6) 0.9821(3) 0.56797(17)
C18_3 C 0.6944(8) 0.8611(3) 0.5655(2)
C21_3 C 0.8437(8) 0.8039(4) 0.6192(3)
H8_3 H 0.9261 0.8131 0.6036
C22_3 C 0.8531(9) 0.7702(4) 0.6564(3)
H9_3 H 0.9433 0.7581 0.6658
C24_3 C 0.6073(9) 0.7722(4) 0.6654(3)
H11_3 H 0.5254 0.7608 0.6805
O19_2 O 0.8529(6) 0.9015(3) 0.44961(18)
O20_2 O 0.6267(6) 0.9200(3) 0.46914(17)
H4_4 H 0.0014 0.1811 0.1210
O21_2 O 0.2066(6) 0.0712(3) 0.05888(19)
O18_2 O 0.1352(6) 0.0188(3) 0.95501(18)
O17_2 O 0.1779(6) 0.9572(2) 0.0324(2)
C2_4 C 0.1418(10) 0.0520(4) 0.1511(3)
H2_4 H 0.1102 0.0204 0.1348
O1_4 O 0.4215(6) 0.1521(2) 0.00319(19)
C3_4 C 0.0906(10) 0.0592(4) 0.1929(3)
H3_4 H 0.0296 0.0312 0.2046
C4_4 C 0.9099(9) 0.1931(4) 0.1294(3)
C7_4 C 0.2379(8) 0.0903(3) 0.1337(2)
O7_4 O 0.9238(6) 0.1149(3) 0.0592(2)
O9_4 O 0.6929(5) 0.1339(2) 0.04249(18)
C10_4 C 0.7909(8) 0.1762(3) 0.1057(2)
O14_4 O 0.7049(6) 0.0179(3) 0.06797(17)
C18_4 C 0.8056(8) 0.1389(3) 0.0655(2)
C21_4 C 0.6563(8) 0.1961(4) 0.1192(3)
H8_4 H 0.5739 0.1869 0.1036
C22_4 C 0.6469(9) 0.2298(4) 0.1564(3)
H9_4 H 0.5567 0.2419 0.1658
C24_4 C 0.8927(9) 0.2278(4) 0.1654(3)
H11_4 H 0.9746 0.2392 0.1805
C28_4 C 0.2218(10) 0.1442(4) 0.1990(3)
H15_4 H 0.2490 0.1767 0.2151
C30_4 C 0.2795(9) 0.1375(4) 0.1584(3)
H17_4 H 0.3457 0.1644 0.1478
C39_4 C 0.2218(13) 0.2166(5) 0.0438(4)
H26_4 H 0.1310 0.2073 0.0569
H27_4 H 0.2421 0.2573 0.0477
H28_4 H 0.2964 0.1938 0.0571
C40_4 C 0.2944(8) 0.0820(3) 0.0886(3)
O16_4 O 0.4292(6) 0.0876(3) 0.08358(18)
C11_4 C 0.2660(8) 0.0179(3) 0.9443(2)
C20_4 C 0.3214(9) 0.1735(3) 0.9807(3)
N7_4 N 0.2157(9) 0.2036(4) 0.9985(3)
C41_4 C 0.0877(11) 0.2224(5) 0.9750(5)
H29_4 H 0.0885 0.2642 0.9722
H30_4 H 0.0032 0.2106 0.9906
H31_4 H 0.0871 0.2049 0.9468
C48_4 C 0.4003(12) 0.0096(4) 0.8740(3)
H40_4 H 0.4434 0.0456 0.8794
C49_4 C 0.3217(12) 0.1661(5) 0.9320(3)
H41_4 H 0.4160 0.1547 0.9226
H42_4 H 0.2958 0.2024 0.9185
H43_4 H 0.2534 0.1366 0.9240
O15_4 O 0.3652(7) 0.0412(3) 0.96314(18)
I1_4 I 0.20989(6) 0.89397(2) 0.253643(19)
I2_4 I 0.51384(6) 0.74466(2) 0.228352(17)
I3_4 I 0.02400(6) 0.72913(2) 0.216704(17)
Cu2_4 Cu 0.49050(13) 0.85931(4) 0.25128(3)
C1_4 C 0.7998(10) 0.9279(4) 0.1606(3)
H1_4 H 0.8977 0.9225 0.1558
C6_4 C 0.2780(9) 0.5694(4) 0.2433(3)
O5_4 O 0.4164(5) 0.9715(2) 0.0413(2)
O6_4 O 0.1532(8) 0.5622(4) 0.2304(3)
N2_4 N 0.2953(8) 0.8083(3) 0.1429(2)
N5_4 N 0.5915(8) 0.9069(3) 0.2044(2)
C9_4 C 0.7194(8) 0.9640(3) 0.1335(2)
O12_4 O 0.9200(6) 0.9861(3) 0.08794(18)
C13_4 C 0.2991(8) 0.9466(3) 0.0497(2)
C14_4 C 0.5755(9) 0.9730(4) 0.1442(3)
H6_4 H 0.5186 0.9984 0.1281
C16_4 C 0.5192(9) 0.9434(4) 0.1792(3)
H7_4 H 0.4226 0.9496 0.1856
C17_4 C 0.3023(8) 0.8978(3) 0.0820(3)
C19_4 C 0.7201(9) 0.9046(3) 0.4423(2)
C23_4 C 0.1843(9) 0.8422(4) 0.1353(3)
H10_4 H 0.1014 0.8355 0.1514
C25_4 C 0.5258(9) 0.8971(4) 0.3861(3)
H12_4 H 0.4626 0.9130 0.4062
N8_4 N 0.5668(8) 0.8631(3) 0.3138(2)
C27_4 C 0.4774(9) 0.8839(4) 0.3452(3)
H14_4 H 0.3806 0.8894 0.3387
C31_4 C 0.4158(10) 0.8207(4) 0.1197(3)
H18_4 H 0.4972 0.7979 0.1241
C32_4 C 0.7321(11) 0.9003(5) 0.1949(3)
H19_4 H 0.7867 0.8757 0.2124
C33_4 C 0.7845(8) 0.9915(3) 0.0938(3)
C34_4 C 0.1805(9) 0.8858(4) 0.1062(3)
H20_4 H 0.0970 0.9076 0.1024
C36_4 C 0.6672(9) 0.8871(4) 0.3975(3)
N9_4 N 0.3893(10) 0.5507(4) 0.2224(4)
C37_4 C 0.2984(14) 0.6031(5) 0.2861(4)
H22_4 H 0.2062 0.6151 0.2970
H23_4 H 0.3572 0.6369 0.2811
H24_4 H 0.3445 0.5783 0.3069
C38_4 C 0.7555(9) 0.8633(5) 0.3665(3)
H25_4 H 0.8509 0.8548 0.3730
C42_4 C 0.4236(9) 0.8651(4) 0.0900(3)
H32_4 H 0.5094 0.8729 0.0756
C45_4 C 0.7024(11) 0.8520(5) 0.3255(3)
H35_4 H 0.7644 0.8359 0.3051
C47_4 C 0.5388(11) 0.5586(7) 0.2375(7)
H37_4 H 0.5935 0.5786 0.2157
H38_4 H 0.5813 0.5212 0.2430
H39_4 H 0.5389 0.5813 0.2636
C50_4 C 0.369(2) 0.5206(9) 0.1803(6)
H44_2 H 0.3164 0.4850 0.1848
H45_4 H 0.4611 0.5118 0.1680
H46_4 H 0.3160 0.5454 0.1611
C5_4 C 0.7676(9) 0.9059(3) 0.9378(3)
O4_4 O 0.6461(6) 0.9771(2) 0.9780(2)
O8_4 O 0.8715(6) 0.9545(3) 0.9957(2)
C8_4 C 0.6471(10) 0.8951(5) 0.9116(3)
H5_4 H 0.5599 0.9136 0.9171
C12_4 C 0.3024(8) 0.9854(3) 0.9032(2)
C15_4 C 0.7622(9) 0.9492(3) 0.9736(3)
C26_4 C 0.6599(12) 0.8568(5) 0.8775(4)
H13_4 H 0.5789 0.8497 0.8607
C29_4 C 0.2910(12) 0.9033(5) 0.8559(3)
H16_4 H 0.2535 0.8663 0.8504
C35_4 C 0.4311(14) 0.9782(5) 0.8369(3)
H21_4 H 0.4920 0.9956 0.8168
C43_4 C 0.2485(11) 0.9320(5) 0.8935(3)
H33_4 H 0.1828 0.9144 0.9121
C44_4 C 0.8942(10) 0.8387(5) 0.8923(4)
H34_4 H 0.9802 0.8200 0.8855
C46_4 C 0.8926(10) 0.8750(5) 0.9281(4)
H36_4 H 0.9738 0.8787 0.9455
H44_3 H 0.6836 0.9850 0.3152
H44_4 H 0.8164 0.0150 0.8152
loop_
_geom_bond_atom_site_label_1
_geom_bond_atom_site_label_2
_geom_bond_site_symmetry_1
_geom_bond_site_symmetry_2
N10 Cu1 1_555 1_555
N12 Cu1 1_555 1_555
Eu1 O1 1_555 1_555
I1 Cu2 1_555 1_555
I2 Cu2 1_555 1_555
Cu2 N5 1_555 1_555
Cu3 I2 1_555 1_555
Cu4 I1 1_555 1_555
C1 H1 1_555 1_555
C2 H2 1_555 1_555
O1 C20 1_555 1_555
C3 C2 1_555 1_555
H3 C3 1_555 1_555
O2 C13 1_555 1_555
O3 C11 1_555 1_555
N1 C3 1_555 1_555
C5 C8 1_555 1_555
O4 Eu1 1_555 1_555
C6 O6 1_555 1_555
C7 C2 1_555 1_555
O5 Eu1 1_555 1_555
N2 Cu3 1_555 1_555
N3 C26 1_555 1_555
O7 C18 1_555 1_555
O9 Eu1 1_555 1_555
C8 H5 1_555 1_555
N4 C29 1_555 1_555
O10 C19 1_555 1_555
N5 C16 1_555 1_555
C9 C1 1_555 1_555
C10 C4 1_555 1_555
C11 C12 1_555 1_555
O11 C19 1_555 1_555
C12 C43 1_555 1_555
C13 O5 1_555 1_555
C14 C9 1_555 1_555
H6 C14 1_555 1_555
C15 C5 1_555 1_555
O13 C40 1_555 1_555
N6 C22 1_555 1_555
O14 Eu1 1_555 1_555
C16 C14 1_555 1_555
H7 C16 1_555 1_555
C17 C13 1_555 1_555
C18 O9 1_555 1_555
C19 C36 1_555 1_555
C20 N7 1_555 1_555
C21 C10 1_555 1_555
H8 C21 1_555 1_555
C22 C21 1_555 1_555
H9 C22 1_555 1_555
C23 N2 1_555 1_555
H10 C23 1_555 1_555
N7 C39 1_555 1_555
C24 C4 1_555 1_555
H11 C24 1_555 1_555
C25 H12 1_555 1_555
N8 Cu2 1_555 1_555
C26 C8 1_555 1_555
H13 C26 1_555 1_555
C27 C25 1_555 1_555
H14 C27 1_555 1_555
C28 N1 1_555 1_555
H15 C28 1_555 1_555
C29 H16 1_555 1_555
C30 C7 1_555 1_555
H17 C30 1_555 1_555
C31 N2 1_555 1_555
H18 C31 1_555 1_555
C32 C1 1_555 1_555
H19 C32 1_555 1_555
C33 C9 1_555 1_555
C34 C17 1_555 1_555
H20 C34 1_555 1_555
C35 N4 1_555 1_555
H21 C35 1_555 1_555
C36 C25 1_555 1_555
N9 C6 1_555 1_555
C37 C6 1_555 1_555
H22 C37 1_555 1_555
H23 C37 1_555 1_555
H24 C37 1_555 1_555
C38 C36 1_555 1_555
H25 C38 1_555 1_555
C39 H26 1_555 1_555
H27 C39 1_555 1_555
H28 C39 1_555 1_555
C40 C7 1_555 1_555
C41 N7 1_555 1_555
H29 C41 1_555 1_555
H30 C41 1_555 1_555
H31 C41 1_555 1_555
C42 C17 1_555 1_555
H32 C42 1_555 1_555
C43 C29 1_555 1_555
H33 C43 1_555 1_555
C44 N3 1_555 1_555
H34 C44 1_555 1_555
C45 N8 1_555 1_555
H35 C45 1_555 1_555
C46 C5 1_555 1_555
H36 C46 1_555 1_555
C47 N9 1_555 1_555
H37 C47 1_555 1_555
H38 C47 1_555 1_555
H39 C47 1_555 1_555
C48 C12 1_555 1_555
H40 C48 1_555 1_555
C49 C20 1_555 1_555
H41 C49 1_555 1_555
H42 C49 1_555 1_555
H43 C49 1_555 1_555
C50 N9 1_555 1_555
H45 C50 1_555 1_555
H46 C50 1_555 1_555
O15 Eu1 1_555 1_555
O16 Eu1 1_555 1_555
Eu4 O2 1_555 1_555
Cu5 N4 1_555 1_555
Cu6 N1 1_555 1_555
Cu7 N3 1_555 1_555
Cu8 N6 1_555 1_555
N11 Cu3 1_555 1_555
O19 Eu1 1_555 1_555
N13 Cu4 1_555 1_555
I2 Cu4 1_555 1_555
I3 Cu3 1_555 1_555
I3 Cu4 1_555 1_555
O3 Eu4 1_555 1_555
O4 C15 1_555 1_555
O8 C15 1_555 1_555
N5 C32 1_555 1_555
C10 C18 1_555 1_555
C11 O15 1_555 1_555
O12 C33 1_555 1_555
O13 Eu4 1_555 1_555
N6 C24 1_555 1_555
O14 C33 1_555 1_555
C23 C34 1_555 1_555
N8 C27 1_555 1_555
C28 C30 1_555 1_555
C31 C42 1_555 1_555
C35 C48 1_555 1_555
C38 C45 1_555 1_555
C40 O16 1_555 1_555
C44 C46 1_555 1_555
C5_2 C8_2 1_555 1_555
N3_2 C26_2 1_555 1_555
C8_2 H5_2 1_555 1_555
C15_2 C5_2 1_555 1_555
C26_2 C8_2 1_555 1_555
H13_2 C26_2 1_555 1_555
C44_2 N3_2 1_555 1_555
H34_2 C44_2 1_555 1_555
C46_2 C5_2 1_555 1_555
H36_2 C46_2 1_555 1_555
Cu7_2 N3_2 1_555 1_555
O4_2 C15_2 1_555 1_555
O8_2 C15_2 1_555 1_555
C44_2 C46_2 1_555 1_555
Eu5 O7_2 1_555 1_555
C1_2 H1_2 1_555 1_555
C4_2 H4_2 1_555 1_555
O7_2 C18_2 1_555 1_555
O9_2 Eu3 1_555 1_555
O19 C19_2 1_555 1_555
N5_2 C16_2 1_555 1_555
C9_2 C1_2 1_555 1_555
C10_2 C4_2 1_555 1_555
O20 C19_2 1_555 1_555
O12_2 Eu5 1_555 1_555
C14_2 C9_2 1_555 1_555
H6_2 C14_2 1_555 1_555
N6_2 C22_2 1_555 1_555
O14_2 Eu3 1_555 1_555
C16_2 C14_2 1_555 1_555
C18_2 O9_2 1_555 1_555
C19_2 C36_2 1_555 1_555
C21_2 C10_2 1_555 1_555
H8_2 C21_2 1_555 1_555
C22_2 C21_2 1_555 1_555
H9_2 C22_2 1_555 1_555
C24_2 C4_2 1_555 1_555
H11_2 C24_2 1_555 1_555
C32_2 C1_2 1_555 1_555
H19_2 C32_2 1_555 1_555
C33_2 C9_2 1_555 1_555
C36_2 C25_2 1_555 1_555
C38_2 C36_2 1_555 1_555
H25_2 C38_2 1_555 1_555
C45_2 N8_2 1_555 1_555
H35_2 C45_2 1_555 1_555
H37_2 C47_2 1_555 1_555
H38_2 C47_2 1_555 1_555
H39_2 C47_2 1_555 1_555
Cu8_2 N6_2 1_555 1_555
O17 Eu5 1_555 1_555
O21 Eu5 1_555 1_555
N5_2 C32_2 1_555 1_555
C10_2 C18_2 1_555 1_555
O12_2 C33_2 1_555 1_555
N6_2 C24_2 1_555 1_555
O14_2 C33_2 1_555 1_555
C38_2 C45_2 1_555 1_555
O18 C11_2 1_555 1_555
N4_2 C29_2 1_555 1_555
C11_2 C12_2 1_555 1_555
C12_2 C43_2 1_555 1_555
C20_2 N7_2 1_555 1_555
C29_2 H16_2 1_555 1_555
C35_2 N4_2 1_555 1_555
H21_2 C35_2 1_555 1_555
C41_2 N7_2 1_555 1_555
H29_2 C41_2 1_555 1_555
H30_2 C41_2 1_555 1_555
H31_2 C41_2 1_555 1_555
C43_2 C29_2 1_555 1_555
H33_2 C43_2 1_555 1_555
C48_2 C12_2 1_555 1_555
H40_2 C48_2 1_555 1_555
C49_2 C20_2 1_555 1_555
H41_2 C49_2 1_555 1_555
H42_2 C49_2 1_555 1_555
H43_2 C49_2 1_555 1_555
Cu6 N4_2 1_555 1_555
C11_2 O15_2 1_555 1_555
C35_2 C48_2 1_555 1_555
I1_2 Cu2_2 1_555 1_555
I3_2 Cu1_2 1_555 1_555
Cu1_2 O6_2 1_555 1_555
Cu4_2 I1_2 1_555 1_555
C2_2 H2_2 1_555 1_555
C3_2 C2_2 1_555 1_555
H3_2 C3_2 1_555 1_555
O17 C13_2 1_555 1_555
N1_2 C3_2 1_555 1_555
C6_2 O6_2 1_555 1_555
C7_2 C2_2 1_555 1_555
N2_2 Cu3_2 1_555 1_555
C13_2 O5_2 1_555 1_555
O21 C40_2 1_555 1_555
C17_2 C13_2 1_555 1_555
C23_2 N2_2 1_555 1_555
H10_2 C23_2 1_555 1_555
H14_2 C27_2 1_555 1_555
C28_2 N1_2 1_555 1_555
H15_2 C28_2 1_555 1_555
C30_2 C7_2 1_555 1_555
H17_2 C30_2 1_555 1_555
C31_2 N2_2 1_555 1_555
H18_2 C31_2 1_555 1_555
C34_2 C17_2 1_555 1_555
H20_2 C34_2 1_555 1_555
N9_2 C6_2 1_555 1_555
C37_2 C6_2 1_555 1_555
H22_2 C37_2 1_555 1_555
H23_2 C37_2 1_555 1_555
H24_2 C37_2 1_555 1_555
C39_2 H26_2 1_555 1_555
H27_2 C39_2 1_555 1_555
H28_2 C39_2 1_555 1_555
C40_2 C7_2 1_555 1_555
C42_2 C17_2 1_555 1_555
C50_2 N9_2 1_555 1_555
H45_2 C50_2 1_555 1_555
H46_2 C50_2 1_555 1_555
Cu5 N1_2 1_555 1_555
N10_2 Cu1_2 1_555 1_555
N11_2 Cu3_2 1_555 1_555
N12_2 Cu1_2 1_555 1_555
N13_2 Cu4_2 1_555 1_555
I3_2 Cu3_2 1_555 1_555
I3_2 Cu4_2 1_555 1_555
C23_2 C34_2 1_555 1_555
C28_2 C30_2 1_555 1_555
C31_2 C42_2 1_555 1_555
C40_2 O16_2 1_555 1_555
I1_3 Cu2_3 1_555 1_555
I3_3 Cu5 1_555 1_555
Cu5 O6_3 1_555 1_555
Cu8_2 I1_3 1_555 1_555
O2_2 C13_3 1_555 1_555
C6_3 O6_3 1_555 1_555
N2_3 Cu7 1_555 1_555
N12 C29_3 1_555 1_555
C12_3 C43_3 1_555 1_555
C13_3 O5_3 1_555 1_555
C17_3 C13_3 1_555 1_555
C23_3 N2_3 1_555 1_555
H10_3 C23_3 1_555 1_555
H14_3 C27_3 1_555 1_555
C29_3 H16_3 1_555 1_555
C31_3 N2_3 1_555 1_555
H18_3 C31_3 1_555 1_555
C34_3 C17_3 1_555 1_555
H20_3 C34_3 1_555 1_555
C35_3 N12 1_555 1_555
H21_3 C35_3 1_555 1_555
N9_3 C6_3 1_555 1_555
C37_3 C6_3 1_555 1_555
H22_3 C37_3 1_555 1_555
H23_3 C37_3 1_555 1_555
H24_3 C37_3 1_555 1_555
C42_3 C17_3 1_555 1_555
C43_3 C29_3 1_555 1_555
H33_3 C43_3 1_555 1_555
C50_3 N9_3 1_555 1_555
H44 C50_3 1_555 1_555
H45_3 C50_3 1_555 1_555
H46_3 C50_3 1_555 1_555
I3_3 Cu7 1_555 1_555
I3_3 Cu8_2 1_555 1_555
C23_3 C34_3 1_555 1_555
C31_3 C42_3 1_555 1_555
C2_3 H2_3 1_555 1_555
O1_3 C20_3 1_555 1_555
C3_3 C2_3 1_555 1_555
H3_3 C3_3 1_555 1_555
O3_2 C11_3 1_555 1_555
N10_2 C3_3 1_555 1_555
C7_3 C2_3 1_555 1_555
O13_2 C40_3 1_555 1_555
C20_3 N7_3 1_555 1_555
N7_3 C39_3 1_555 1_555
C28_3 N10_2 1_555 1_555
H15_3 C28_3 1_555 1_555
C30_3 C7_3 1_555 1_555
H17_3 C30_3 1_555 1_555
C39_3 H26_3 1_555 1_555
H27_3 C39_3 1_555 1_555
H28_3 C39_3 1_555 1_555
C40_3 C7_3 1_555 1_555
C41_3 N7_3 1_555 1_555
H29_3 C41_3 1_555 1_555
H30_3 C41_3 1_555 1_555
H31_3 C41_3 1_555 1_555
H40_3 C48_3 1_555 1_555
C49_3 C20_3 1_555 1_555
H41_3 C49_3 1_555 1_555
H42_3 C49_3 1_555 1_555
H43_3 C49_3 1_555 1_555
O3_2 Eu4_2 1_555 1_555
C11_3 O15_3 1_555 1_555
O13_2 Eu4_2 1_555 1_555
C28_3 C30_3 1_555 1_555
C40_3 O16_3 1_555 1_555
C1_3 H1_3 1_555 1_555
C5_3 C8_3 1_555 1_555
N11 C26_3 1_555 1_555
C8_3 H5_3 1_555 1_555
O10_2 C19_3 1_555 1_555
N5_3 C16_3 1_555 1_555
C9_3 C1_3 1_555 1_555
O11_2 C19_3 1_555 1_555
C14_3 C9_3 1_555 1_555
H6_3 C14_3 1_555 1_555
C15_3 C5_3 1_555 1_555
C16_3 C14_3 1_555 1_555
C19_3 C36_3 1_555 1_555
C26_3 C8_3 1_555 1_555
H13_3 C26_3 1_555 1_555
C32_3 C1_3 1_555 1_555
H19_3 C32_3 1_555 1_555
C33_3 C9_3 1_555 1_555
C36_3 C25_3 1_555 1_555
C38_3 C36_3 1_555 1_555
H25_3 C38_3 1_555 1_555
C44_3 N11 1_555 1_555
H34_3 C44_3 1_555 1_555
C45_3 N8_3 1_555 1_555
H35_3 C45_3 1_555 1_555
C46_3 C5_3 1_555 1_555
H36_3 C46_3 1_555 1_555
H37_3 C47_3 1_555 1_555
H38_3 C47_3 1_555 1_555
H39_3 C47_3 1_555 1_555
O4_3 C15_3 1_555 1_555
O8_3 C15_3 1_555 1_555
N5_3 C32_3 1_555 1_555
O12_3 C33_3 1_555 1_555
C38_3 C45_3 1_555 1_555
C44_3 C46_3 1_555 1_555
Eu4_2 O7_3 1_555 1_555
C4_3 H4_3 1_555 1_555
O7_3 C18_3 1_555 1_555
O9_3 Eu1_2 1_555 1_555
C10_3 C4_3 1_555 1_555
N13_2 C22_3 1_555 1_555
O14_3 Eu1_2 1_555 1_555
C18_3 O9_3 1_555 1_555
C21_3 C10_3 1_555 1_555
H8_3 C21_3 1_555 1_555
C22_3 C21_3 1_555 1_555
H9_3 C22_3 1_555 1_555
C24_3 C4_3 1_555 1_555
H11_3 C24_3 1_555 1_555
O19_2 Eu1_2 1_555 1_555
O20_2 Eu4_2 1_555 1_555
C10_3 C18_3 1_555 1_555
N13_2 C24_3 1_555 1_555
O21_2 Eu5_2 1_555 1_555
Eu3_2 O1_4 1_555 1_555
C2_4 H2_4 1_555 1_555
C3_4 C2_4 1_555 1_555
H3_4 C3_4 1_555 1_555
N10 C3_4 1_555 1_555
C7_4 C2_4 1_555 1_555
O7_4 C18_4 1_555 1_555
O9_4 Eu3_2 1_555 1_555
C10_4 C4_4 1_555 1_555
O21_2 C40_4 1_555 1_555
N13 C22_4 1_555 1_555
O14_4 Eu3_2 1_555 1_555
C18_4 O9_4 1_555 1_555
C21_4 C10_4 1_555 1_555
H8_4 C21_4 1_555 1_555
C22_4 C21_4 1_555 1_555
H9_4 C22_4 1_555 1_555
C24_4 C4_4 1_555 1_555
H11_4 C24_4 1_555 1_555
C28_4 N10 1_555 1_555
H15_4 C28_4 1_555 1_555
C30_4 C7_4 1_555 1_555
H17_4 C30_4 1_555 1_555
C39_4 H26_4 1_555 1_555
H27_4 C39_4 1_555 1_555
H28_4 C39_4 1_555 1_555
C40_4 C7_4 1_555 1_555
O16_4 Eu3_2 1_555 1_555
C10_4 C18_4 1_555 1_555
N13 C24_4 1_555 1_555
C28_4 C30_4 1_555 1_555
C40_4 O16_4 1_555 1_555
O18_2 C11_4 1_555 1_555
C20_4 N7_4 1_555 1_555
C41_4 N7_4 1_555 1_555
H29_4 C41_4 1_555 1_555
H30_4 C41_4 1_555 1_555
H31_4 C41_4 1_555 1_555
H40_4 C48_4 1_555 1_555
C49_4 C20_4 1_555 1_555
H41_4 C49_4 1_555 1_555
H42_4 C49_4 1_555 1_555
H43_4 C49_4 1_555 1_555
C11_4 O15_4 1_555 1_555
I1_4 Cu2_4 1_555 1_555
I2_4 Cu2_4 1_555 1_555
Cu2_4 N5_4 1_555 1_555
Cu7_2 I2_4 1_555 1_555
Cu8 I1_4 1_555 1_555
C1_4 H1_4 1_555 1_555
O17_2 C13_4 1_555 1_555
C6_4 O6_4 1_555 1_555
N2_4 Cu7_2 1_555 1_555
O19_2 C19_4 1_555 1_555
N5_4 C16_4 1_555 1_555
C9_4 C1_4 1_555 1_555
O20_2 C19_4 1_555 1_555
C13_4 O5_4 1_555 1_555
C14_4 C9_4 1_555 1_555
H6_4 C14_4 1_555 1_555
C16_4 C14_4 1_555 1_555
H7_4 C16_4 1_555 1_555
C17_4 C13_4 1_555 1_555
C19_4 C36_4 1_555 1_555
C23_4 N2_4 1_555 1_555
H10_4 C23_4 1_555 1_555
C25_4 H12_4 1_555 1_555
N8_4 Cu2_4 1_555 1_555
C27_4 C25_4 1_555 1_555
H14_4 C27_4 1_555 1_555
C31_4 N2_4 1_555 1_555
H18_4 C31_4 1_555 1_555
C32_4 C1_4 1_555 1_555
H19_4 C32_4 1_555 1_555
C33_4 C9_4 1_555 1_555
C34_4 C17_4 1_555 1_555
H20_4 C34_4 1_555 1_555
C36_4 C25_4 1_555 1_555
N9_4 C6_4 1_555 1_555
C37_4 C6_4 1_555 1_555
H22_4 C37_4 1_555 1_555
H23_4 C37_4 1_555 1_555
H24_4 C37_4 1_555 1_555
C38_4 C36_4 1_555 1_555
H25_4 C38_4 1_555 1_555
C42_4 C17_4 1_555 1_555
H32_4 C42_4 1_555 1_555
C45_4 N8_4 1_555 1_555
H35_4 C45_4 1_555 1_555
C47_4 N9_4 1_555 1_555
H37_4 C47_4 1_555 1_555
H38_4 C47_4 1_555 1_555
H39_4 C47_4 1_555 1_555
C50_4 N9_4 1_555 1_555
H44_2 C50_4 1_555 1_555
H45_4 C50_4 1_555 1_555
H46_4 C50_4 1_555 1_555
I2_4 Cu8 1_555 1_555
I3_4 Cu7_2 1_555 1_555
I3_4 Cu8 1_555 1_555
N5_4 C32_4 1_555 1_555
O12_4 C33_4 1_555 1_555
C23_4 C34_4 1_555 1_555
N8_4 C27_4 1_555 1_555
C31_4 C42_4 1_555 1_555
C38_4 C45_4 1_555 1_555
C5_4 C8_4 1_555 1_555
N11_2 C26_4 1_555 1_555
C8_4 H5_4 1_555 1_555
N12_2 C29_4 1_555 1_555
C12_4 C43_4 1_555 1_555
C15_4 C5_4 1_555 1_555
C26_4 C8_4 1_555 1_555
H13_4 C26_4 1_555 1_555
C29_4 H16_4 1_555 1_555
C35_4 N12_2 1_555 1_555
H21_4 C35_4 1_555 1_555
C43_4 C29_4 1_555 1_555
H33_4 C43_4 1_555 1_555
C44_4 N11_2 1_555 1_555
H34_4 C44_4 1_555 1_555
C46_4 C5_4 1_555 1_555
H36_4 C46_4 1_555 1_555
O4_4 C15_4 1_555 1_555
O8_4 C15_4 1_555 1_555
C44_4 C46_4 1_555 1_555

#END
