
###############################################################################
#
# This file contains modified crystal structure data generated from the
# MOF subset of the Cambridge Structural Database (CSD) v543 
# hosted by the Cambridge Crystallographic Data Centre (CCDC).
#
# This work is licensed under the Creative Commons
# Attribution-NonCommercial-ShareAlike 4.0 International License.
# To view a copy of this license, visit
# http://creativecommons.org/licenses/by-nc-sa/4.0/
# or send a letter to
# Creative Commons, PO Box 1866, Mountain View, CA 94042, USA.
#
# CIF created using the CSD Python API on 29 September 2022
# The structure has been converted into the P1 space group
# The structure has a 3D framework
# The original CSD entry TEBLAQ is in the orthorhombic crystal system
# The original CSD entry TEBLAQ is in a Sohncke space group
# The framework has been calculated to contain at least 10.0% void space
# The void calculation uses a probe of radius 1.32A, grid spacing 0.4
#
###############################################################################

data_TEBLAQ
_chemical_formula_moiety         '(C200 H184 Cu16 I12 N36 Nd7 O62)n'
_symmetry_cell_setting           triclinic
_symmetry_space_group_name_H-M   'P 1'
_symmetry_Int_Tables_number      1
_space_group_name_Hall           'P 1'
loop_
_symmetry_equiv_pos_site_id
_symmetry_equiv_pos_as_xyz
1 x,y,z
_cell_length_a                   9.375(5)
_cell_length_b                   22.981(14)
_cell_length_c                   31.160(18)
_cell_angle_alpha                90
_cell_angle_beta                 90
_cell_angle_gamma                90
_cell_volume                     6713.32
loop_
_atom_site_label
_atom_site_type_symbol
_atom_site_fract_x
_atom_site_fract_y
_atom_site_fract_z
C8 C 0.0186(19) 0.3854(8) 0.1552(4)
H3 H 0.1147 0.3909 0.1615
H16 H 0.0354 0.4150 0.0945
Cu5 Cu 0.0124(2) 0.36003(8) 0.24875(5)
Nd5 Nd 0.00733(7) 0.47050(3) 0.97797(2)
O1 O 0.6427(11) 0.4017(5) 0.0524(3)
N3 N 0.9351(14) 0.3647(6) 0.1866(4)
C2 C 0.7749(16) 0.4055(6) 0.0588(5)
N5 N 0.2084(16) 0.2964(6) 0.0021(5)
C27 C 0.9726(15) 0.3990(8) 0.1144(5)
O15 O 0.8667(11) 0.4219(5) 0.0319(3)
C40 C 0.7458(17) 0.3640(9) 0.1351(5)
H28 H 0.6509 0.3556 0.1291
C41 C 0.8313(15) 0.3887(7) 0.1034(4)
C42 C 0.3114(18) 0.3266(7) 0.0200(6)
C44 C 0.0801(17) 0.2805(8) 0.0262(5)
H33 H 0.0777 0.3019 0.0527
H34 H 0.0815 0.2396 0.0323
C46 C 0.7992(19) 0.3516(8) 0.1752(5)
H36 H 0.7401 0.3337 0.1952
C49 C 0.316(2) 0.3355(8) 0.0682(6)
H41 H 0.2378 0.3598 0.0768
H42 H 0.4043 0.3537 0.0760
H43 H 0.3084 0.2985 0.0824
O19 O 0.3594(11) 0.4591(5) 0.0370(3)
O20 O 0.6451(11) 0.5241(5) 0.0225(4)
O22 O 0.1304(11) 0.4853(5) 0.0466(3)
Nd1 Nd 0.53864(7) 0.44129(3) 0.98475(2)
Cu2 Cu 0.0404(2) 0.38337(10) 0.72485(6)
N2 N 0.2974(14) 0.6919(6) 0.8565(4)
O3 O 0.4300(10) 0.4104(5) 0.9152(3)
C3 C 0.2359(14) 0.5152(6) 0.5574(4)
O5 O 0.1819(10) 0.5445(5) 0.9668(4)
O7 O 0.1406(11) 0.5409(5) 0.5370(3)
O8 O 0.4180(10) 0.5292(5) 0.9575(4)
H2 H 0.0011 0.3196 0.8784
C9 C 0.1983(14) 0.4834(6) 0.5971(4)
C11 C 0.3016(14) 0.5552(6) 0.9505(4)
C12 C 0.1808(16) 0.6136(8) 0.8940(5)
H5 H 0.0989 0.5913 0.8979
C13 C 0.2383(14) 0.4091(6) 0.8671(4)
C14 C 0.4152(18) 0.6802(8) 0.8785(5)
H6 H 0.4954 0.7031 0.8737
C16 C 0.2968(13) 0.4177(6) 0.9105(4)
O10 O 0.4178(11) 0.3468(5) 0.9985(4)
C17 C 0.1417(19) 0.4483(8) 0.8479(5)
H8 H 0.1116 0.4803 0.8639
C18 C 0.0905(18) 0.4420(7) 0.8077(4)
H9 H 0.0313 0.4705 0.7962
C20 C 0.101(2) 0.5100(8) 0.6258(6)
H10 H 0.0631 0.5468 0.6207
C22 C 0.2163(15) 0.2821(7) 0.9571(4)
H12 H 0.1721 0.3124 0.9406
H13 H 0.1676 0.2460 0.9520
H14 H 0.3144 0.2783 0.9488
O13 O 0.2097(11) 0.4304(5) 0.9407(3)
C26 C 0.3035(15) 0.6024(6) 0.9176(4)
O14 O 0.3696(11) 0.5147(5) 0.5466(3)
N7 N 0.1246(13) 0.3940(6) 0.7836(4)
C30 C 0.2749(16) 0.3614(9) 0.8405(5)
H19 H 0.3394 0.3337 0.8503
C31 C 0.1835(16) 0.6589(7) 0.8642(5)
H20 H 0.1006 0.6665 0.8488
C32 C 0.2063(17) 0.4031(8) 0.6454(5)
H21 H 0.2449 0.3669 0.6519
N8 N 0.1122(15) 0.4258(6) 0.6727(4)
C33 C 0.064(2) 0.4772(8) 0.6623(6)
C34 C 0.2171(18) 0.3556(7) 0.8009(5)
H23 H 0.2426 0.3233 0.7846
C35 C 0.4248(17) 0.6356(6) 0.9084(5)
H24 H 0.5108 0.6280 0.9222
C45 C 0.2501(19) 0.4302(8) 0.6080(6)
H35 H 0.3157 0.4118 0.5902
Nd7 Nd 0.49267(7) 0.52950(3) 0.47797(2)
Cu7 Cu 0.2832(2) 0.76593(9) 0.81872(6)
O17 O 0.6954(10) 0.3648(5) 0.9576(3)
O18 O 0.7090(10) 0.4818(5) 0.9317(3)
H32 H 0.9970 0.2898 0.0096
O21 O 0.8691(11) 0.5477(5) 0.0037(4)
I1 I 0.48584(11) 0.25502(4) 0.72939(3)
I2 I 0.97431(11) 0.27069(4) 0.71749(3)
I3 I 0.79049(11) 0.10528(5) 0.75384(3)
Cu1 Cu 0.5124(2) 0.13997(8) 0.75125(5)
Cu3 Cu 0.7168(2) 0.26593(9) 0.68128(6)
Cu4 Cu 0.7440(2) 0.21625(9) 0.76040(6)
N1 N 0.5896(13) 0.5914(6) 0.7957(4)
C1 C 0.8032(17) 0.3602(6) 0.9353(5)
O4 O 0.9256(10) 0.3829(5) 0.9414(3)
C4 C 0.7419(14) 0.4464(6) 0.5264(4)
C5 C 0.7334(18) 0.4054(6) 0.5634(5)
C6 C 0.6609(14) 0.3034(6) 0.8812(4)
H1 H 0.5809 0.3115 0.8978
N4 N 0.7169(15) 0.3282(6) 0.6336(4)
C7 C 0.9105(16) 0.3070(7) 0.8706(5)
C10 C 0.7270(17) 0.6006(8) 0.8057(5)
H4 H 0.7775 0.6279 0.7896
N6 N 0.7642(14) 0.2534(6) 0.8206(4)
C15 C 0.7976(18) 0.5722(8) 0.8382(5)
H7 H 0.8955 0.5765 0.8417
O9 O 0.9195(10) 0.5153(5) 0.9105(3)
O11 O 0.8549(11) 0.4759(5) 0.5225(4)
C19 C 0.722(2) 0.4277(8) 0.7444(7)
C21 C 0.8903(16) 0.2714(7) 0.8358(4)
H11 H 0.9715 0.2586 0.8214
C23 C 0.7211(15) 0.5373(7) 0.8655(5)
O12 O 0.6309(11) 0.4523(5) 0.5037(4)
C24 C 0.5766(15) 0.5271(7) 0.8552(5)
H15 H 0.5222 0.5011 0.8713
C25 C 0.7919(16) 0.3234(7) 0.8937(5)
C28 C 0.6470(16) 0.2702(7) 0.8429(5)
H17 H 0.5568 0.2600 0.8330
C29 C 0.5185(17) 0.5563(7) 0.8212(4)
H18 H 0.4219 0.5509 0.8157
H22 H 0.9991 0.4940 0.6811
N9 N 0.6098(19) 0.4481(8) 0.7231(7)
C36 C 0.840(2) 0.3555(9) 0.6231(6)
H25 H 0.9205 0.3490 0.6400
C37 C 0.7874(16) 0.5087(6) 0.9054(5)
C38 C 0.8520(19) 0.3929(8) 0.5882(6)
H26 H 0.9396 0.4096 0.5815
C39 C 0.6037(17) 0.3382(9) 0.6080(6)
H27 H 0.5179 0.3201 0.6148
O16 O 0.8436(14) 0.4382(7) 0.7305(5)
C43 C 0.696(2) 0.3958(9) 0.7860(7)
H29 H 0.6290 0.4173 0.8031
H30 H 0.7843 0.3920 0.8014
H31 H 0.6583 0.3579 0.7800
C47 C 0.460(2) 0.4410(12) 0.7373(10)
H37 H 0.4546 0.4098 0.7578
H38 H 0.4012 0.4321 0.7130
H39 H 0.4278 0.4764 0.7504
C48 C 0.6072(19) 0.3746(9) 0.5712(6)
H40 H 0.5289 0.3779 0.5530
C50 C 0.629(4) 0.4767(15) 0.6816(9)
H44 H 0.6887 0.5103 0.6852
H45 H 0.5380 0.4884 0.6706
H46 H 0.6733 0.4501 0.6619
Nd4 Nd 0.96136(7) 0.55871(3) 0.48475(2)
Cu6 Cu 0.4876(2) 0.63997(8) 0.74875(5)
N10 N 0.4104(13) 0.0914(6) 0.7043(4)
N11 N 0.7026(14) 0.1919(6) 0.6435(4)
N12 N 0.4351(14) 0.1353(6) 0.8134(4)
I1_2 I 0.01416(11) 0.74498(4) 0.22939(3)
H18_2 H 0.0781 0.4491 0.3157
C47_2 C 0.040(2) 0.5590(12) 0.2373(10)
H37_2 H 0.0454 0.5902 0.2578
H38_2 H 0.0988 0.5679 0.2130
H39_2 H 0.0722 0.5236 0.2504
N10_2 N 0.0896(13) 0.9086(6) 0.2043(4)
N12_2 N 0.0649(14) 0.8647(6) 0.3134(4)
I2_2 I 0.52569(11) 0.72931(4) 0.21749(3)
I3_2 I 0.70951(11) 0.89472(5) 0.25384(3)
Cu1_2 Cu 0.9876(2) 0.86003(8) 0.25125(5)
Cu2_2 Cu 0.4596(2) 0.61663(10) 0.22485(6)
Cu3_2 Cu 0.7832(2) 0.73407(9) 0.18128(6)
Cu4_2 Cu 0.7560(2) 0.78375(9) 0.26040(6)
N1_2 N 0.9104(13) 0.4086(6) 0.2957(4)
O2 O 0.8046(10) 0.6352(5) 0.4576(3)
C1_2 C 0.6968(17) 0.6398(6) 0.4353(5)
N2_2 N 0.2026(14) 0.3081(6) 0.3565(4)
O3_2 O 0.0700(10) 0.5896(5) 0.4152(3)
C3_2 C 0.2641(14) 0.4848(6) 0.0574(4)
O4_2 O 0.5744(10) 0.6171(5) 0.4414(3)
O5_2 O 0.3181(10) 0.4555(5) 0.4668(4)
O6 O 0.7910(10) 0.5182(5) 0.4317(3)
C4_2 C 0.7581(14) 0.5536(6) 0.0264(4)
C5_2 C 0.7666(18) 0.5946(6) 0.0634(5)
C6_2 C 0.8391(14) 0.6966(6) 0.3812(4)
H1_2 H 0.9191 0.6885 0.3978
O8_2 O 0.0820(10) 0.4708(5) 0.4575(4)
N4_2 N 0.7831(15) 0.6718(6) 0.1336(4)
C7_2 C 0.5895(16) 0.6930(7) 0.3706(5)
H2_2 H 0.4989 0.6804 0.3784
N5_2 N 0.2916(16) 0.7036(6) 0.5021(5)
C9_2 C 0.3017(14) 0.5166(6) 0.0971(4)
C10_2 C 0.7730(17) 0.3994(8) 0.3057(5)
H4_2 H 0.7225 0.3721 0.2896
C11_2 C 0.1984(14) 0.4448(6) 0.4505(4)
C12_2 C 0.3192(16) 0.3864(8) 0.3940(5)
H5_2 H 0.4011 0.4087 0.3979
C13_2 C 0.2617(14) 0.5909(6) 0.3671(4)
N6_2 N 0.7358(14) 0.7466(6) 0.3206(4)
C14_2 C 0.0848(18) 0.3198(8) 0.3785(5)
H6_2 H 0.0046 0.2969 0.3737
C15_2 C 0.7024(18) 0.4278(8) 0.3382(5)
H7_2 H 0.6045 0.4235 0.3417
O9_2 O 0.5805(10) 0.4847(5) 0.4105(3)
C16_2 C 0.2032(13) 0.5823(6) 0.4105(4)
O10_2 O 0.0822(11) 0.6532(5) 0.4985(4)
C17_2 C 0.3583(19) 0.5517(8) 0.3479(5)
H8_2 H 0.3884 0.5197 0.3639
C18_2 C 0.4095(18) 0.5580(7) 0.3077(4)
H9_2 H 0.4687 0.5295 0.2962
C19_2 C 0.778(2) 0.5723(8) 0.2444(7)
C20_2 C 0.399(2) 0.4900(8) 0.1258(6)
H10_2 H 0.4369 0.4532 0.1207
C21_2 C 0.6097(16) 0.7286(7) 0.3358(4)
H11_2 H 0.5285 0.7414 0.3214
C22_2 C 0.2837(15) 0.7179(7) 0.4571(4)
H12_2 H 0.3279 0.6876 0.4406
H13_2 H 0.3324 0.7540 0.4520
H14_2 H 0.1856 0.7217 0.4488
C23_2 C 0.7789(15) 0.4627(7) 0.3655(5)
C24_2 C 0.9234(15) 0.4729(7) 0.3552(5)
H15_2 H 0.9778 0.4989 0.3713
C25_2 C 0.7081(16) 0.6766(7) 0.3937(5)
O13_2 O 0.2903(11) 0.5696(5) 0.4407(3)
C26_2 C 0.1965(15) 0.3976(6) 0.4176(4)
C28_2 C 0.8530(16) 0.7298(7) 0.3429(5)
H17_2 H 0.9432 0.7400 0.3330
N7_2 N 0.3754(13) 0.6060(6) 0.2836(4)
C29_2 C 0.9815(17) 0.4437(7) 0.3212(4)
C30_2 C 0.2251(16) 0.6386(9) 0.3405(5)
H19_2 H 0.1606 0.6663 0.3503
C31_2 C 0.3165(16) 0.3411(7) 0.3642(5)
H20_2 H 0.3994 0.3335 0.3488
C32_2 C 0.2937(17) 0.5969(8) 0.1454(5)
H21_2 H 0.2551 0.6331 0.1519
N8_2 N 0.3878(15) 0.5742(6) 0.1727(4)
C33_2 C 0.436(2) 0.5228(8) 0.1623(6)
H22_2 H 0.5009 0.5060 0.1811
C34_2 C 0.2829(18) 0.6444(7) 0.3009(5)
H23_2 H 0.2574 0.6767 0.2846
N9_2 N 0.8902(19) 0.5519(8) 0.2231(7)
C35_2 C 0.0752(17) 0.3644(6) 0.4084(5)
C36_2 C 0.660(2) 0.6445(9) 0.1231(6)
H25_2 H 0.5795 0.6510 0.1400
C37_2 C 0.7126(16) 0.4913(6) 0.4054(5)
C38_2 C 0.6480(19) 0.6071(8) 0.0882(6)
H26_2 H 0.5604 0.5904 0.0815
C39_2 C 0.8963(17) 0.6618(9) 0.1080(6)
H27_2 H 0.9821 0.6799 0.1148
O16_2 O 0.6564(14) 0.5618(7) 0.2305(5)
C42_2 C 0.1886(18) 0.6734(7) 0.5200(6)
C43_2 C 0.804(2) 0.6042(9) 0.2860(7)
H29_2 H 0.8710 0.5827 0.3031
H30_2 H 0.7157 0.6080 0.3014
H31_2 H 0.8417 0.6421 0.2800
C44_2 C 0.4199(17) 0.7195(8) 0.5262(5)
H32_2 H 0.5030 0.7102 0.5096
H33_2 H 0.4223 0.6981 0.5527
H34_2 H 0.4185 0.7604 0.5323
C45_2 C 0.2499(19) 0.5698(8) 0.1080(6)
H35_2 H 0.1843 0.5882 0.0902
C48_2 C 0.8928(19) 0.6254(9) 0.0712(6)
H40_2 H 0.9711 0.6221 0.0530
C49_2 C 0.184(2) 0.6645(8) 0.5682(6)
H41_2 H 0.2622 0.6402 0.5768
H42_2 H 0.0957 0.6463 0.5760
H43_2 H 0.1916 0.7015 0.5824
C50_2 C 0.871(4) 0.5233(15) 0.1816(9)
H44_2 H 0.8113 0.4897 0.1852
H45_2 H 0.9620 0.5116 0.1706
H46_2 H 0.8267 0.5499 0.1619
Cu7_2 Cu 0.2168(2) 0.23407(9) 0.31872(6)
N11_2 N 0.7974(14) 0.8081(6) 0.1435(4)
O23 O 0.6333(11) 0.5781(5) 0.5319(3)
O1_2 O 0.8573(11) 0.5983(5) 0.5524(3)
N3_2 N 0.5649(14) 0.6353(6) 0.6866(4)
C2_2 C 0.7251(16) 0.5945(6) 0.5588(5)
C8_2 C 0.4814(19) 0.6146(8) 0.6552(4)
H3_2 H 0.3853 0.6091 0.6615
C27_2 C 0.5274(15) 0.6010(8) 0.6144(5)
H16_2 H 0.4646 0.5850 0.5945
H24_2 H 0.9892 0.3720 0.4222
C40_2 C 0.7542(17) 0.6360(9) 0.6351(5)
H28_2 H 0.8491 0.6444 0.6291
C41_2 C 0.6687(15) 0.6113(7) 0.6034(4)
C46_2 C 0.7008(19) 0.6484(8) 0.6752(5)
H36_2 H 0.7599 0.6663 0.6952
Nd1_2 Nd 0.03864(7) 0.05871(3) 0.01525(2)
Nd5_2 Nd 0.50733(7) 0.02950(3) 0.02203(2)
O17_2 O 0.1954(10) 0.1352(5) 0.0424(3)
O18_2 O 0.2090(10) 0.0182(5) 0.0683(3)
O1_3 O 0.1427(11) 0.0983(5) 0.9476(3)
C2_3 C 0.2749(16) 0.0945(6) 0.9412(5)
C8_3 C 0.5186(19) 0.1146(8) 0.8448(4)
H3_3 H 0.6147 0.1091 0.8385
C27_3 C 0.4726(15) 0.1010(8) 0.8856(5)
H16_3 H 0.5354 0.0850 0.9055
O15_2 O 0.3667(11) 0.0781(5) 0.9681(3)
C40_3 C 0.2458(17) 0.1360(9) 0.8649(5)
H28_3 H 0.1509 0.1444 0.8709
C41_3 C 0.3313(15) 0.1113(7) 0.8966(4)
C46_3 C 0.2992(19) 0.1484(8) 0.8248(5)
H36_3 H 0.2401 0.1663 0.8048
O20_2 O 0.1451(11) 0.9759(5) 0.9775(4)
I2_3 I 0.47431(11) 0.22931(4) 0.28251(3)
I3_3 I 0.29049(11) 0.39472(5) 0.24616(3)
Cu2_3 Cu 0.5404(2) 0.11663(10) 0.27515(6)
Cu4_3 Cu 0.2440(2) 0.28375(9) 0.23960(6)
C1_3 C 0.3032(17) 0.1398(6) 0.0647(5)
O3_3 O 0.9300(10) 0.0896(5) 0.0848(3)
O4_3 O 0.4256(10) 0.1171(5) 0.0586(3)
C4_3 C 0.2419(14) 0.0536(6) 0.4736(4)
C5_3 C 0.2334(18) 0.0946(6) 0.4366(5)
C6_3 C 0.1609(14) 0.1966(6) 0.1188(4)
H1_3 H 0.0809 0.1885 0.1022
N4_3 N 0.2169(15) 0.1718(6) 0.3664(4)
C7_3 C 0.4105(16) 0.1930(7) 0.1294(5)
H2_3 H 0.5011 0.1804 0.1216
C9_3 C 0.6983(14) 0.0166(6) 0.4029(4)
C13_3 C 0.7383(14) 0.0909(6) 0.1329(4)
N6_3 N 0.2642(14) 0.2466(6) 0.1794(4)
C16_3 C 0.7968(13) 0.0823(6) 0.0895(4)
O10_3 O 0.9178(11) 0.1532(5) 0.0015(4)
C17_3 C 0.6417(19) 0.0517(8) 0.1521(5)
H8_3 H 0.6116 0.0197 0.1361
C18_3 C 0.5905(18) 0.0580(7) 0.1923(4)
H9_3 H 0.5313 0.0295 0.2038
O11_2 O 0.3549(11) 0.0241(5) 0.4775(4)
C19_3 C 0.222(2) 0.0723(8) 0.2556(7)
C21_3 C 0.3903(16) 0.2286(7) 0.1642(4)
H11_3 H 0.4715 0.2414 0.1786
C22_3 C 0.7163(15) 0.2179(7) 0.0429(4)
H12_3 H 0.6721 0.1876 0.0594
H13_3 H 0.6676 0.2540 0.0480
H14_3 H 0.8144 0.2217 0.0512
O12_2 O 0.1309(11) 0.0477(5) 0.4963(4)
C25_3 C 0.2919(16) 0.1766(7) 0.1063(5)
O13_3 O 0.7097(11) 0.0696(5) 0.0593(3)
C28_3 C 0.1470(16) 0.2298(7) 0.1571(5)
H17_3 H 0.0568 0.2400 0.1670
N7_3 N 0.6246(13) 0.1060(6) 0.2164(4)
C30_3 C 0.7749(16) 0.1386(9) 0.1595(5)
H19_3 H 0.8394 0.1663 0.1497
C32_3 C 0.7063(17) 0.0969(8) 0.3546(5)
H21_3 H 0.7449 0.1331 0.3481
N8_3 N 0.6122(15) 0.0742(6) 0.3273(4)
C33_3 C 0.564(2) 0.0228(8) 0.3377(6)
H22_3 H 0.4991 0.0060 0.3189
C34_3 C 0.7171(18) 0.1444(7) 0.1991(5)
H23_3 H 0.7426 0.1767 0.2154
N9_3 N 0.1098(19) 0.0519(8) 0.2769(7)
C36_3 C 0.340(2) 0.1445(9) 0.3769(6)
H25_3 H 0.4205 0.1510 0.3600
C38_3 C 0.3520(19) 0.1071(8) 0.4118(6)
H26_3 H 0.4396 0.0904 0.4185
C39_3 C 0.1037(17) 0.1618(9) 0.3920(6)
H27_3 H 0.0179 0.1799 0.3852
O16_3 O 0.3436(14) 0.0618(7) 0.2695(5)
C43_3 C 0.196(2) 0.1042(9) 0.2140(7)
H29_3 H 0.1290 0.0827 0.1969
H30_3 H 0.2843 0.1080 0.1986
H31_3 H 0.1583 0.1421 0.2200
C45_3 C 0.7501(19) 0.0698(8) 0.3920(6)
H35_3 H 0.8157 0.0882 0.4098
C48_3 C 0.1072(19) 0.1254(9) 0.4288(6)
H40_3 H 0.0289 0.1221 0.4470
C50_3 C 0.129(4) 0.0233(15) 0.3184(9)
H45_3 H 0.0380 0.0116 0.3294
H46_3 H 0.1733 0.0499 0.3381
N5_3 N 0.7084(16) 0.2036(6) 0.9979(5)
C42_3 C 0.8114(18) 0.1734(7) 0.9800(6)
C44_3 C 0.5801(17) 0.2195(8) 0.9738(5)
H32_3 H 0.4970 0.2102 0.9904
H33_3 H 0.5777 0.1981 0.9473
H34_3 H 0.5815 0.2604 0.9677
C49_3 C 0.816(2) 0.1645(8) 0.9318(6)
H41_3 H 0.7378 0.1402 0.9232
H42_3 H 0.9043 0.1463 0.9240
H43_3 H 0.8084 0.2015 0.9176
O19_2 O 0.8594(11) 0.0409(5) 0.9630(3)
O22_2 O 0.6304(11) 0.0147(5) 0.9534(3)
C3_3 C 0.7359(14) 0.9848(6) 0.4426(4)
O5_3 O 0.6819(10) 0.9555(5) 0.0332(4)
O7_2 O 0.6406(11) 0.9591(5) 0.4630(3)
O8_3 O 0.9180(10) 0.9708(5) 0.0425(4)
C10_3 C 0.2270(17) 0.8994(8) 0.1943(5)
H4_3 H 0.2775 0.8721 0.2104
C11_3 C 0.8016(14) 0.9448(6) 0.0495(4)
C12_3 C 0.6808(16) 0.8864(8) 0.1060(5)
H5_3 H 0.5989 0.9087 0.1021
C14_3 C 0.9152(18) 0.8198(8) 0.1215(5)
H6_3 H 0.9954 0.7969 0.1263
C15_3 C 0.2976(18) 0.9278(8) 0.1618(5)
H7_3 H 0.3955 0.9235 0.1583
O9_3 O 0.4195(10) 0.9847(5) 0.0895(3)
C20_3 C 0.601(2) 0.9900(8) 0.3742(6)
H10_3 H 0.5631 0.9532 0.3793
C23_3 C 0.2211(15) 0.9627(7) 0.1345(5)
C24_3 C 0.0766(15) 0.9729(7) 0.1448(5)
H15_3 H 0.0222 0.9989 0.1287
C26_3 C 0.8035(15) 0.8976(6) 0.0824(4)
O14_2 O 0.8696(11) 0.9853(5) 0.4534(3)
C29_3 C 0.0185(17) 0.9437(7) 0.1788(4)
C31_3 C 0.6835(16) 0.8411(7) 0.1358(5)
H20_3 H 0.6006 0.8335 0.1512
C35_3 C 0.9248(17) 0.8644(6) 0.0916(5)
C37_3 C 0.2874(16) 0.9913(6) 0.0946(5)
H44_3 H 0.1887 0.9897 0.3148
Nd4_2 Nd 0.46136(7) 0.94129(3) 0.51525(2)
Nd7_2 Nd 0.99267(7) 0.97050(3) 0.52203(2)
O21_2 O 0.3691(11) 0.9523(5) 0.9963(4)
I1_3 I 0.98584(11) 0.24498(4) 0.27061(3)
C47_3 C 0.960(2) 0.0590(12) 0.2627(10)
H37_3 H 0.9546 0.0902 0.2422
H38_3 H 0.9012 0.0679 0.2870
H39_3 H 0.9278 0.0236 0.2496
H18_3 H 0.9219 0.9491 0.1843
C10_4 C 0.2730(17) 0.1006(8) 0.6943(5)
H4_4 H 0.2225 0.1279 0.7104
C15_4 C 0.2024(18) 0.0722(8) 0.6618(5)
H7_4 H 0.1045 0.0765 0.6583
O9_4 O 0.0805(10) 0.0153(5) 0.5895(3)
C23_4 C 0.2789(15) 0.0373(7) 0.6345(5)
C24_4 C 0.4234(15) 0.0271(7) 0.6448(5)
H15_4 H 0.4778 0.0011 0.6287
C29_4 C 0.4815(17) 0.0563(7) 0.6788(4)
H18_4 H 0.5781 0.0509 0.6843
C37_4 C 0.2126(16) 0.0087(6) 0.5946(5)
H44_4 H 0.3113 0.0103 0.8148
I1_4 I 0.51416(11) 0.75502(4) 0.77061(3)
I2_4 I 0.02569(11) 0.77069(4) 0.78251(3)
I3_4 I 0.20951(11) 0.60528(5) 0.74616(3)
Cu4_4 Cu 0.2560(2) 0.71625(9) 0.73960(6)
O2_2 O 0.3046(10) 0.8648(5) 0.5424(3)
C1_4 C 0.1968(17) 0.8602(6) 0.5647(5)
O4_4 O 0.0744(10) 0.8829(5) 0.5586(3)
O6_2 O 0.2910(10) 0.9818(5) 0.5683(3)
C4_4 C 0.2581(14) 0.9464(6) 0.9736(4)
C5_4 C 0.2666(18) 0.9054(6) 0.9366(5)
C6_4 C 0.3391(14) 0.8034(6) 0.6188(4)
H1_4 H 0.4191 0.8115 0.6022
N4_4 N 0.2831(15) 0.8282(6) 0.8664(4)
C7_4 C 0.0895(16) 0.8070(7) 0.6294(5)
N6_4 N 0.2358(14) 0.7534(6) 0.6794(4)
C19_4 C 0.278(2) 0.9277(8) 0.7556(7)
C21_4 C 0.1097(16) 0.7714(7) 0.6642(4)
H11_4 H 0.0285 0.7586 0.6786
C25_4 C 0.2081(16) 0.8234(7) 0.6063(5)
C28_4 C 0.3530(16) 0.7702(7) 0.6571(5)
H17_4 H 0.4432 0.7600 0.6670
H22_4 H 0.0009 0.9940 0.8189
N9_4 N 0.3902(19) 0.9481(8) 0.7769(7)
C36_4 C 0.160(2) 0.8555(9) 0.8769(6)
H25_4 H 0.0795 0.8490 0.8600
C38_4 C 0.1480(19) 0.8929(8) 0.9118(6)
H26_4 H 0.0604 0.9096 0.9185
C39_4 C 0.3963(17) 0.8382(9) 0.8920(6)
H27_4 H 0.4821 0.8201 0.8852
O16_4 O 0.1564(14) 0.9382(7) 0.7695(5)
C43_4 C 0.304(2) 0.8958(9) 0.7140(7)
H29_4 H 0.3710 0.9173 0.6969
H30_4 H 0.2157 0.8920 0.6986
H31_4 H 0.3417 0.8579 0.7200
H32_4 H 0.0030 0.7898 0.4904
C47_4 C 0.540(2) 0.9410(12) 0.7627(10)
H37_4 H 0.5454 0.9098 0.7422
H38_4 H 0.5988 0.9321 0.7870
H39_4 H 0.5722 0.9764 0.7496
C48_4 C 0.3928(19) 0.8746(9) 0.9288(6)
H40_4 H 0.4711 0.8779 0.9470
C50_4 C 0.371(4) 0.9767(15) 0.8184(9)
H45_4 H 0.4620 0.9884 0.8294
H46_4 H 0.3267 0.9501 0.8381
O23_2 O 0.1333(11) 0.9219(5) 0.4681(3)
C3_4 C 0.7641(14) 0.0152(6) 0.9426(4)
O5_4 O 0.8181(10) 0.0445(5) 0.5332(4)
O8_4 O 0.5820(10) 0.0292(5) 0.5425(4)
C11_4 C 0.6984(14) 0.0552(6) 0.5495(4)
C12_4 C 0.8192(16) 0.1136(8) 0.6060(5)
H5_4 H 0.9011 0.0913 0.6021
C14_4 C 0.5848(18) 0.1802(8) 0.6215(5)
H6_4 H 0.5046 0.2031 0.6263
C20_4 C 0.899(2) 0.0100(8) 0.8742(6)
H10_4 H 0.9369 0.0468 0.8793
C26_4 C 0.6965(15) 0.1024(6) 0.5824(4)
C31_4 C 0.8165(16) 0.1589(7) 0.6358(5)
H20_4 H 0.8994 0.1665 0.6512
C35_4 C 0.5752(17) 0.1356(6) 0.5916(5)
H24_3 H 0.4892 0.1280 0.5778
Cu2_4 Cu 0.9596(2) 0.88337(10) 0.77515(6)
O1_4 O 0.3573(11) 0.9017(5) 0.4476(3)
O3_4 O 0.5700(10) 0.9104(5) 0.5848(3)
C2_4 C 0.2251(16) 0.9055(6) 0.4412(5)
H2_4 H 0.9989 0.8196 0.6216
N5_4 N 0.7916(16) 0.7964(6) 0.4979(5)
C9_4 C 0.8017(14) 0.9834(6) 0.9029(4)
C13_4 C 0.7617(14) 0.9091(6) 0.6329(4)
C16_4 C 0.7032(13) 0.9177(6) 0.5895(4)
O10_4 O 0.5822(11) 0.8468(5) 0.5015(4)
C17_4 C 0.8583(19) 0.9483(8) 0.6521(5)
H8_4 H 0.8884 0.9803 0.6361
C18_4 C 0.9095(18) 0.9420(7) 0.6923(4)
H9_4 H 0.9687 0.9705 0.7038
C22_4 C 0.7837(15) 0.7821(7) 0.5429(4)
H12_4 H 0.8279 0.8124 0.5594
H13_4 H 0.8324 0.7460 0.5480
H14_4 H 0.6856 0.7783 0.5512
O13_4 O 0.7903(11) 0.9304(5) 0.5593(3)
C27_4 C 0.0274(15) 0.8990(8) 0.3856(5)
N7_4 N 0.8754(13) 0.8940(6) 0.7164(4)
C30_4 C 0.7251(16) 0.8614(9) 0.6595(5)
H19_4 H 0.6606 0.8337 0.6497
C32_4 C 0.7937(17) 0.9031(8) 0.8546(5)
H21_4 H 0.7551 0.8669 0.8481
N8_4 N 0.8878(15) 0.9258(6) 0.8273(4)
C33_4 C 0.936(2) 0.9772(8) 0.8377(6)
C34_4 C 0.7829(18) 0.8556(7) 0.6991(5)
H23_4 H 0.7574 0.8233 0.7154
C40_4 C 0.2542(17) 0.8640(9) 0.3649(5)
H28_4 H 0.3491 0.8556 0.3709
C41_4 C 0.1687(15) 0.8887(7) 0.3966(4)
C42_4 C 0.6886(18) 0.8266(7) 0.4800(6)
C44_4 C 0.9199(17) 0.7805(8) 0.4738(5)
H33_4 H 0.9223 0.8019 0.4473
H34_4 H 0.9185 0.7396 0.4677
C45_4 C 0.7499(19) 0.9302(8) 0.8920(6)
H35_4 H 0.6843 0.9118 0.9098
C46_4 C 0.2008(19) 0.8516(8) 0.3248(5)
H36_4 H 0.2599 0.8337 0.3048
C49_4 C 0.684(2) 0.8355(8) 0.4318(6)
H41_4 H 0.7622 0.8598 0.4232
H42_4 H 0.5957 0.8537 0.4240
H43_4 H 0.6916 0.7985 0.4176
C8_4 C 0.9814(19) 0.8854(8) 0.3448(4)
H3_4 H 0.8853 0.8909 0.3385
H16_4 H 0.9646 0.9150 0.4055
H24_4 H 0.0108 0.8720 0.0778
loop_
_geom_bond_atom_site_label_1
_geom_bond_atom_site_label_2
_geom_bond_site_symmetry_1
_geom_bond_site_symmetry_2
C8 H3 1_555 1_555
O1 C2 1_555 1_555
C2 O15 1_555 1_555
C40 H28 1_555 1_555
C41 C2 1_555 1_555
C42 N5 1_555 1_555
C44 N5 1_555 1_555
H33 C44 1_555 1_555
H34 C44 1_555 1_555
C46 N3 1_555 1_555
H36 C46 1_555 1_555
C49 C42 1_555 1_555
H41 C49 1_555 1_555
H42 C49 1_555 1_555
H43 C49 1_555 1_555
C27 C41 1_555 1_555
C40 C41 1_555 1_555
C40 C46 1_555 1_555
Cu2 N7 1_555 1_555
N2 C14 1_555 1_555
O3 Nd1 1_555 1_555
C3 O7 1_555 1_555
O5 Nd5 1_555 1_555
O8 Nd1 1_555 1_555
C9 C3 1_555 1_555
C11 O5 1_555 1_555
C12 H5 1_555 1_555
C13 C16 1_555 1_555
C14 H6 1_555 1_555
C16 O3 1_555 1_555
O10 Nd1 1_555 1_555
C17 C13 1_555 1_555
H8 C17 1_555 1_555
C18 C17 1_555 1_555
H9 C18 1_555 1_555
C20 C9 1_555 1_555
H10 C20 1_555 1_555
C22 H12 1_555 1_555
H13 C22 1_555 1_555
H14 C22 1_555 1_555
O13 Nd5 1_555 1_555
C26 C11 1_555 1_555
O14 C3 1_555 1_555
N7 C18 1_555 1_555
C30 C13 1_555 1_555
H19 C30 1_555 1_555
C31 N2 1_555 1_555
H20 C31 1_555 1_555
C32 H21 1_555 1_555
N8 Cu2 1_555 1_555
C33 C20 1_555 1_555
C34 N7 1_555 1_555
H23 C34 1_555 1_555
C35 C14 1_555 1_555
H24 C35 1_555 1_555
C45 C9 1_555 1_555
H35 C45 1_555 1_555
Nd7 O14 1_555 1_555
Cu7 N2 1_555 1_555
O17 Nd1 1_555 1_555
O18 Nd1 1_555 1_555
O8 C11 1_555 1_555
C12 C26 1_555 1_555
C12 C31 1_555 1_555
C16 O13 1_555 1_555
C26 C35 1_555 1_555
C30 C34 1_555 1_555
C32 N8 1_555 1_555
C32 C45 1_555 1_555
N8 C33 1_555 1_555
I1 Cu1 1_555 1_555
I3 Cu1 1_555 1_555
Cu1 N10 1_555 1_555
Cu3 I1 1_555 1_555
Cu4 I1 1_555 1_555
N1 C10 1_555 1_555
O17 C1 1_555 1_555
C1 O4 1_555 1_555
O18 C37 1_555 1_555
C4 C5 1_555 1_555
C5 C38 1_555 1_555
C6 H1 1_555 1_555
N4 Cu3 1_555 1_555
C10 H4 1_555 1_555
N6 Cu4 1_555 1_555
C15 C10 1_555 1_555
H7 C15 1_555 1_555
O11 C4 1_555 1_555
C19 N9 1_555 1_555
C21 C7 1_555 1_555
H11 C21 1_555 1_555
C23 C15 1_555 1_555
O12 C4 1_555 1_555
C24 C23 1_555 1_555
H15 C24 1_555 1_555
C25 C1 1_555 1_555
C28 C6 1_555 1_555
H17 C28 1_555 1_555
C29 N1 1_555 1_555
H18 C29 1_555 1_555
N9 C47 1_555 1_555
C36 N4 1_555 1_555
H25 C36 1_555 1_555
C37 O9 1_555 1_555
C38 C36 1_555 1_555
H26 C38 1_555 1_555
C39 N4 1_555 1_555
H27 C39 1_555 1_555
C43 C19 1_555 1_555
H29 C43 1_555 1_555
H30 C43 1_555 1_555
H31 C43 1_555 1_555
C47 H37 1_555 1_555
H38 C47 1_555 1_555
H39 C47 1_555 1_555
C48 C5 1_555 1_555
H40 C48 1_555 1_555
C50 N9 1_555 1_555
H44 C50 1_555 1_555
H45 C50 1_555 1_555
H46 C50 1_555 1_555
Nd4 O11 1_555 1_555
Nd7 O12 1_555 1_555
Cu6 N1 1_555 1_555
N11 Cu3 1_555 1_555
N12 Cu1 1_555 1_555
I2 Cu3 1_555 1_555
I2 Cu4 1_555 1_555
I3 Cu4 1_555 1_555
C6 C25 1_555 1_555
C7 C25 1_555 1_555
N6 C21 1_555 1_555
N6 C28 1_555 1_555
C19 O16 1_555 1_555
C23 C37 1_555 1_555
C24 C29 1_555 1_555
C39 C48 1_555 1_555
C47_2 H37_2 1_555 1_555
H38_2 C47_2 1_555 1_555
H39_2 C47_2 1_555 1_555
Nd7 O4_2 1_555 1_555
I2_2 Cu2_2 1_555 1_555
I3_2 Cu1_2 1_555 1_555
Cu2_2 N7_2 1_555 1_555
N1_2 C10_2 1_555 1_555
O2 C1_2 1_555 1_555
C1_2 O4_2 1_555 1_555
N2_2 C14_2 1_555 1_555
C3_2 O19 1_555 1_555
O5_2 Nd7 1_555 1_555
O6 C37_2 1_555 1_555
C4_2 C5_2 1_555 1_555
C5_2 C38_2 1_555 1_555
C6_2 H1_2 1_555 1_555
N4_2 Cu3_2 1_555 1_555
C7_2 H2_2 1_555 1_555
N5_2 C22_2 1_555 1_555
C9_2 C3_2 1_555 1_555
C10_2 H4_2 1_555 1_555
C11_2 O5_2 1_555 1_555
C12_2 H5_2 1_555 1_555
C13_2 C16_2 1_555 1_555
N6_2 Cu4_2 1_555 1_555
C14_2 H6_2 1_555 1_555
C15_2 C10_2 1_555 1_555
H7_2 C15_2 1_555 1_555
O9_2 Nd7 1_555 1_555
C16_2 O3_2 1_555 1_555
C17_2 C13_2 1_555 1_555
H8_2 C17_2 1_555 1_555
C18_2 C17_2 1_555 1_555
H9_2 C18_2 1_555 1_555
O20 C4_2 1_555 1_555
C19_2 N9_2 1_555 1_555
C20_2 C9_2 1_555 1_555
H10_2 C20_2 1_555 1_555
C21_2 C7_2 1_555 1_555
H11_2 C21_2 1_555 1_555
C22_2 H12_2 1_555 1_555
H13_2 C22_2 1_555 1_555
H14_2 C22_2 1_555 1_555
C23_2 C15_2 1_555 1_555
O21 C4_2 1_555 1_555
C24_2 C23_2 1_555 1_555
H15_2 C24_2 1_555 1_555
C25_2 C1_2 1_555 1_555
O13_2 Nd7 1_555 1_555
C26_2 C11_2 1_555 1_555
O22 C3_2 1_555 1_555
C28_2 C6_2 1_555 1_555
H17_2 C28_2 1_555 1_555
N7_2 C18_2 1_555 1_555
C29_2 N1_2 1_555 1_555
C30_2 C13_2 1_555 1_555
H19_2 C30_2 1_555 1_555
C31_2 N2_2 1_555 1_555
H20_2 C31_2 1_555 1_555
C32_2 H21_2 1_555 1_555
N8_2 Cu2_2 1_555 1_555
C33_2 C20_2 1_555 1_555
H22_2 C33_2 1_555 1_555
C34_2 N7_2 1_555 1_555
H23_2 C34_2 1_555 1_555
C35_2 C14_2 1_555 1_555
C36_2 N4_2 1_555 1_555
H25_2 C36_2 1_555 1_555
C37_2 O9_2 1_555 1_555
C38_2 C36_2 1_555 1_555
H26_2 C38_2 1_555 1_555
C39_2 N4_2 1_555 1_555
H27_2 C39_2 1_555 1_555
O16_2 Cu2_2 1_555 1_555
C42_2 N5_2 1_555 1_555
C43_2 C19_2 1_555 1_555
H29_2 C43_2 1_555 1_555
H30_2 C43_2 1_555 1_555
H31_2 C43_2 1_555 1_555
C44_2 N5_2 1_555 1_555
H32_2 C44_2 1_555 1_555
H33_2 C44_2 1_555 1_555
H34_2 C44_2 1_555 1_555
C45_2 C9_2 1_555 1_555
H35_2 C45_2 1_555 1_555
C48_2 C5_2 1_555 1_555
H40_2 C48_2 1_555 1_555
C49_2 C42_2 1_555 1_555
H41_2 C49_2 1_555 1_555
H42_2 C49_2 1_555 1_555
H43_2 C49_2 1_555 1_555
C50_2 N9_2 1_555 1_555
H44_2 C50_2 1_555 1_555
H45_2 C50_2 1_555 1_555
H46_2 C50_2 1_555 1_555
Nd4 O2 1_555 1_555
Cu7_2 N2_2 1_555 1_555
N11_2 Cu3_2 1_555 1_555
O23 Nd7 1_555 1_555
I2_2 Cu3_2 1_555 1_555
I2_2 Cu4_2 1_555 1_555
I3_2 Cu4_2 1_555 1_555
O6 Nd4 1_555 1_555
C6_2 C25_2 1_555 1_555
O8_2 C11_2 1_555 1_555
C7_2 C25_2 1_555 1_555
C12_2 C26_2 1_555 1_555
C12_2 C31_2 1_555 1_555
N6_2 C21_2 1_555 1_555
N6_2 C28_2 1_555 1_555
C16_2 O13_2 1_555 1_555
O10_2 C42_2 1_555 1_555
C19_2 O16_2 1_555 1_555
C23_2 C37_2 1_555 1_555
C24_2 C29_2 1_555 1_555
C26_2 C35_2 1_555 1_555
C30_2 C34_2 1_555 1_555
C32_2 N8_2 1_555 1_555
C32_2 C45_2 1_555 1_555
N8_2 C33_2 1_555 1_555
C39_2 C48_2 1_555 1_555
Nd4 O1_2 1_555 1_555
O1_2 C2_2 1_555 1_555
N3_2 C8_2 1_555 1_555
C2_2 O23 1_555 1_555
C8_2 H3_2 1_555 1_555
C27_2 C8_2 1_555 1_555
H16_2 C27_2 1_555 1_555
C40_2 H28_2 1_555 1_555
C41_2 C2_2 1_555 1_555
C46_2 N3_2 1_555 1_555
H36_2 C46_2 1_555 1_555
Cu6 N3_2 1_555 1_555
C27_2 C41_2 1_555 1_555
C40_2 C41_2 1_555 1_555
C40_2 C46_2 1_555 1_555
O17_2 Nd1_2 1_555 1_555
O18_2 Nd1_2 1_555 1_555
O1_3 C2_3 1_555 1_555
N12 C8_3 1_555 1_555
C2_3 O15_2 1_555 1_555
C8_3 H3_3 1_555 1_555
C27_3 C8_3 1_555 1_555
H16_3 C27_3 1_555 1_555
C40_3 H28_3 1_555 1_555
C41_3 C2_3 1_555 1_555
C46_3 N12 1_555 1_555
H36_3 C46_3 1_555 1_555
C27_3 C41_3 1_555 1_555
C40_3 C41_3 1_555 1_555
C40_3 C46_3 1_555 1_555
Nd5_2 O4_3 1_555 1_555
I2_3 Cu2_3 1_555 1_555
I3_3 Cu5 1_555 1_555
Cu2_3 N7_3 1_555 1_555
O17_2 C1_3 1_555 1_555
C1_3 O4_3 1_555 1_555
C4_3 C5_3 1_555 1_555
C5_3 C38_3 1_555 1_555
C6_3 H1_3 1_555 1_555
N4_3 Cu7_2 1_555 1_555
C7_3 H2_3 1_555 1_555
C13_3 C16_3 1_555 1_555
N6_3 Cu4_3 1_555 1_555
C16_3 O3_3 1_555 1_555
C17_3 C13_3 1_555 1_555
H8_3 C17_3 1_555 1_555
C18_3 C17_3 1_555 1_555
H9_3 C18_3 1_555 1_555
O11_2 C4_3 1_555 1_555
C19_3 N9_3 1_555 1_555
C21_3 C7_3 1_555 1_555
H11_3 C21_3 1_555 1_555
C22_3 H12_3 1_555 1_555
H13_3 C22_3 1_555 1_555
H14_3 C22_3 1_555 1_555
O12_2 C4_3 1_555 1_555
C25_3 C1_3 1_555 1_555
O13_3 Nd5_2 1_555 1_555
C28_3 C6_3 1_555 1_555
H17_3 C28_3 1_555 1_555
N7_3 C18_3 1_555 1_555
C30_3 C13_3 1_555 1_555
H19_3 C30_3 1_555 1_555
C32_3 H21_3 1_555 1_555
N8_3 Cu2_3 1_555 1_555
H22_3 C33_3 1_555 1_555
C34_3 N7_3 1_555 1_555
H23_3 C34_3 1_555 1_555
C36_3 N4_3 1_555 1_555
H25_3 C36_3 1_555 1_555
C38_3 C36_3 1_555 1_555
H26_3 C38_3 1_555 1_555
C39_3 N4_3 1_555 1_555
H27_3 C39_3 1_555 1_555
O16_3 Cu2_3 1_555 1_555
C43_3 C19_3 1_555 1_555
H29_3 C43_3 1_555 1_555
H30_3 C43_3 1_555 1_555
H31_3 C43_3 1_555 1_555
C45_3 C9_3 1_555 1_555
H35_3 C45_3 1_555 1_555
C48_3 C5_3 1_555 1_555
H40_3 C48_3 1_555 1_555
C50_3 N9_3 1_555 1_555
H45_3 C50_3 1_555 1_555
H46_3 C50_3 1_555 1_555
I2_3 Cu7_2 1_555 1_555
I2_3 Cu4_3 1_555 1_555
I3_3 Cu4_3 1_555 1_555
C6_3 C25_3 1_555 1_555
C7_3 C25_3 1_555 1_555
N6_3 C21_3 1_555 1_555
N6_3 C28_3 1_555 1_555
C16_3 O13_3 1_555 1_555
C19_3 O16_3 1_555 1_555
C30_3 C34_3 1_555 1_555
C32_3 N8_3 1_555 1_555
C32_3 C45_3 1_555 1_555
N8_3 C33_3 1_555 1_555
C39_3 C48_3 1_555 1_555
C42_3 N5_3 1_555 1_555
C44_3 N5_3 1_555 1_555
H32_3 C44_3 1_555 1_555
H33_3 C44_3 1_555 1_555
H34_3 C44_3 1_555 1_555
C49_3 C42_3 1_555 1_555
H41_3 C49_3 1_555 1_555
H42_3 C49_3 1_555 1_555
H43_3 C49_3 1_555 1_555
N10_2 C10_3 1_555 1_555
N11_2 C14_3 1_555 1_555
C3_3 O7_2 1_555 1_555
O7_2 Nd4_2 1_555 1_555
C10_3 H4_3 1_555 1_555
C11_3 O5_3 1_555 1_555
C12_3 H5_3 1_555 1_555
C14_3 H6_3 1_555 1_555
C15_3 C10_3 1_555 1_555
H7_3 C15_3 1_555 1_555
H10_3 C20_3 1_555 1_555
C23_3 C15_3 1_555 1_555
C24_3 C23_3 1_555 1_555
H15_3 C24_3 1_555 1_555
C26_3 C11_3 1_555 1_555
O14_2 C3_3 1_555 1_555
C29_3 N10_2 1_555 1_555
C31_3 N11_2 1_555 1_555
H20_3 C31_3 1_555 1_555
C35_3 C14_3 1_555 1_555
C37_3 O9_3 1_555 1_555
Nd7_2 O14_2 1_555 1_555
O8_3 C11_3 1_555 1_555
C12_3 C26_3 1_555 1_555
C12_3 C31_3 1_555 1_555
C23_3 C37_3 1_555 1_555
C24_3 C29_3 1_555 1_555
C26_3 C35_3 1_555 1_555
C47_3 H37_3 1_555 1_555
H38_3 C47_3 1_555 1_555
H39_3 C47_3 1_555 1_555
N10 C10_4 1_555 1_555
C10_4 H4_4 1_555 1_555
C15_4 C10_4 1_555 1_555
H7_4 C15_4 1_555 1_555
C23_4 C15_4 1_555 1_555
C24_4 C23_4 1_555 1_555
H15_4 C24_4 1_555 1_555
C29_4 N10 1_555 1_555
H18_4 C29_4 1_555 1_555
C37_4 O9_4 1_555 1_555
C23_4 C37_4 1_555 1_555
C24_4 C29_4 1_555 1_555
I1_4 Cu6 1_555 1_555
I3_4 Cu6 1_555 1_555
Cu7 I1_4 1_555 1_555
Cu4_4 I1_4 1_555 1_555
O2_2 C1_4 1_555 1_555
C1_4 O4_4 1_555 1_555
C4_4 C5_4 1_555 1_555
C5_4 C38_4 1_555 1_555
C6_4 H1_4 1_555 1_555
N4_4 Cu7 1_555 1_555
N6_4 Cu4_4 1_555 1_555
O20_2 C4_4 1_555 1_555
C19_4 N9_4 1_555 1_555
C21_4 C7_4 1_555 1_555
H11_4 C21_4 1_555 1_555
O21_2 C4_4 1_555 1_555
C25_4 C1_4 1_555 1_555
C28_4 C6_4 1_555 1_555
H17_4 C28_4 1_555 1_555
N9_4 C47_4 1_555 1_555
C36_4 N4_4 1_555 1_555
H25_4 C36_4 1_555 1_555
C38_4 C36_4 1_555 1_555
H26_4 C38_4 1_555 1_555
C39_4 N4_4 1_555 1_555
H27_4 C39_4 1_555 1_555
C43_4 C19_4 1_555 1_555
H29_4 C43_4 1_555 1_555
H30_4 C43_4 1_555 1_555
H31_4 C43_4 1_555 1_555
C47_4 H37_4 1_555 1_555
H38_4 C47_4 1_555 1_555
H39_4 C47_4 1_555 1_555
C48_4 C5_4 1_555 1_555
H40_4 C48_4 1_555 1_555
C50_4 N9_4 1_555 1_555
H45_4 C50_4 1_555 1_555
H46_4 C50_4 1_555 1_555
Nd4_2 O2_2 1_555 1_555
I2_4 Cu7 1_555 1_555
I2_4 Cu4_4 1_555 1_555
I3_4 Cu4_4 1_555 1_555
O6_2 Nd4_2 1_555 1_555
C6_4 C25_4 1_555 1_555
C7_4 C25_4 1_555 1_555
N6_4 C21_4 1_555 1_555
N6_4 C28_4 1_555 1_555
C19_4 O16_4 1_555 1_555
C39_4 C48_4 1_555 1_555
N11 C14_4 1_555 1_555
C3_4 O19_2 1_555 1_555
C11_4 O5_4 1_555 1_555
C12_4 H5_4 1_555 1_555
C14_4 H6_4 1_555 1_555
H10_4 C20_4 1_555 1_555
C26_4 C11_4 1_555 1_555
O22_2 C3_4 1_555 1_555
C31_4 N11 1_555 1_555
H20_4 C31_4 1_555 1_555
C35_4 C14_4 1_555 1_555
H24_3 C35_4 1_555 1_555
O8_4 C11_4 1_555 1_555
C12_4 C26_4 1_555 1_555
C12_4 C31_4 1_555 1_555
C26_4 C35_4 1_555 1_555
Nd4_2 O1_4 1_555 1_555
Cu2_4 N7_4 1_555 1_555
O1_4 C2_4 1_555 1_555
O3_4 Nd4_2 1_555 1_555
C2_4 O23_2 1_555 1_555
N5_4 C22_4 1_555 1_555
C13_4 C16_4 1_555 1_555
C16_4 O3_4 1_555 1_555
O10_4 Nd4_2 1_555 1_555
C17_4 C13_4 1_555 1_555
H8_4 C17_4 1_555 1_555
C18_4 C17_4 1_555 1_555
H9_4 C18_4 1_555 1_555
C22_4 H12_4 1_555 1_555
H13_4 C22_4 1_555 1_555
H14_4 C22_4 1_555 1_555
O13_4 Nd7_2 1_555 1_555
N7_4 C18_4 1_555 1_555
C30_4 C13_4 1_555 1_555
H19_4 C30_4 1_555 1_555
C32_4 H21_4 1_555 1_555
N8_4 Cu2_4 1_555 1_555
C34_4 N7_4 1_555 1_555
H23_4 C34_4 1_555 1_555
C40_4 H28_4 1_555 1_555
C41_4 C2_4 1_555 1_555
C42_4 N5_4 1_555 1_555
C44_4 N5_4 1_555 1_555
H33_4 C44_4 1_555 1_555
H34_4 C44_4 1_555 1_555
C45_4 C9_4 1_555 1_555
H35_4 C45_4 1_555 1_555
C46_4 N12_2 1_555 1_555
H36_4 C46_4 1_555 1_555
C49_4 C42_4 1_555 1_555
H41_4 C49_4 1_555 1_555
H42_4 C49_4 1_555 1_555
H43_4 C49_4 1_555 1_555
C16_4 O13_4 1_555 1_555
O10_4 C42_4 1_555 1_555
C27_4 C41_4 1_555 1_555
C30_4 C34_4 1_555 1_555
C32_4 N8_4 1_555 1_555
C32_4 C45_4 1_555 1_555
N8_4 C33_4 1_555 1_555
C40_4 C41_4 1_555 1_555
C40_4 C46_4 1_555 1_555
C8_4 H3_4 1_555 1_555

#END
