
###############################################################################
#
# This file contains modified crystal structure data generated from the
# MOF subset of the Cambridge Structural Database (CSD) v543 
# hosted by the Cambridge Crystallographic Data Centre (CCDC).
#
# This work is licensed under the Creative Commons
# Attribution-NonCommercial-ShareAlike 4.0 International License.
# To view a copy of this license, visit
# http://creativecommons.org/licenses/by-nc-sa/4.0/
# or send a letter to
# Creative Commons, PO Box 1866, Mountain View, CA 94042, USA.
#
# CIF created using the CSD Python API on 29 September 2022
# The structure has been converted into the P1 space group
# The structure has a 3D framework
# The original CSD entry TEBMAR is in the orthorhombic crystal system
# The original CSD entry TEBMAR is in a Sohncke space group
# The framework has been calculated to contain at least 10.0% void space
# The void calculation uses a probe of radius 1.32A, grid spacing 0.4
#
###############################################################################

data_TEBMAR
_chemical_formula_moiety         '(C200 H184 Cu14 Dy8 I12 N36 O64)n'
_symmetry_cell_setting           triclinic
_symmetry_space_group_name_H-M   'P 1'
_symmetry_Int_Tables_number      1
_space_group_name_Hall           'P 1'
loop_
_symmetry_equiv_pos_site_id
_symmetry_equiv_pos_as_xyz
1 x,y,z
_cell_length_a                   9.287(3)
_cell_length_b                   23.164(6)
_cell_length_c                   30.643(8)
_cell_angle_alpha                90
_cell_angle_beta                 90
_cell_angle_gamma                90
_cell_volume                     6592.05
loop_
_atom_site_label
_atom_site_type_symbol
_atom_site_fract_x
_atom_site_fract_y
_atom_site_fract_z
Dy5 Dy 0.01182(3) 0.534645(11) 0.521648(8)
Dy1 Dy 0.54209(3) 0.560647(12) 0.515501(8)
I1 I 0.28945(5) 0.60774(2) 0.251148(15)
I2 I 0.47821(5) 0.770058(19) 0.214431(13)
Cu1 Cu 0.54428(11) 0.88055(4) 0.22259(3)
Cu2 Cu 0.22043(10) 0.76500(4) 0.17632(3)
Cu3 Cu 0.00645(11) 0.64286(4) 0.24924(3)
Cu4 Cu 0.24454(10) 0.71763(4) 0.25730(3)
C1 C 0.4123(7) 0.8070(3) 0.3695(2)
H1 H 0.5035 0.8188 0.3783
O1 O 0.4232(5) 0.65285(19) 0.50433(15)
C2 C 0.0907(9) 0.5622(4) 0.6934(2)
H2 H 0.0280 0.5353 0.7054
O2 O 0.1783(5) 0.4614(2) 0.53042(16)
O3 O 0.1935(4) 0.86644(19) 0.45607(14)
O4 O 0.3708(5) 0.5457(2) 0.46252(14)
C3 C 0.2386(6) 0.5905(3) 0.63447(18)
O5 O 0.1385(5) 0.5248(3) 0.45533(14)
C4 C 0.7225(7) 0.4636(3) 0.63233(19)
N1 N 0.7794(7) 0.3312(3) 0.36758(19)
O6 O 0.4167(4) 0.4738(2) 0.53991(16)
O7 O 0.4312(4) 0.5861(2) 0.58375(14)
H3 H 0.0416 0.5930 0.4060
C6 C 0.8970(8) 0.3460(4) 0.3910(3)
H4 H 0.9845 0.3290 0.3837
O8 O 0.4258(5) 0.8847(2) 0.43879(14)
N2 N 0.1303(6) 0.6079(3) 0.71762(17)
N3 N 0.3828(7) 0.4251(3) 0.32918(19)
C7 C 0.2900(7) 0.8229(3) 0.39250(19)
O9 O 0.8747(5) 0.4628(2) 0.49313(15)
C8 C 0.2682(6) 0.5215(3) 0.44440(18)
C9 C 0.7624(6) 0.4564(3) 0.47203(18)
N4 N 0.2925(6) 0.3056(2) 0.63597(19)
C10 C 0.3033(6) 0.4879(3) 0.40359(19)
C11 C 0.2984(7) 0.4495(3) 0.5467(2)
O10 O 0.9218(4) 0.4890(2) 0.58694(14)
O11 O 0.6475(5) 0.4826(2) 0.47658(15)
O12 O 0.2081(5) 0.5732(2) 0.55864(15)
O13 O 0.7031(4) 0.5188(2) 0.56675(14)
N5 N 0.2651(6) 0.7554(2) 0.31837(17)
N6 N 0.5948(6) 0.4056(3) 0.70257(17)
C13 C 0.3007(7) 0.3978(3) 0.5776(2)
C14 C 0.5192(7) 0.4408(3) 0.6765(2)
H5 H 0.4216 0.4456 0.6822
C15 C 0.3033(6) 0.8612(3) 0.43298(19)
C16 C 0.0200(8) 0.6177(3) 0.3431(2)
H6 H 0.1146 0.6094 0.3354
C17 C 0.1564(7) 0.8043(3) 0.3789(2)
H7 H 0.0738 0.8140 0.3944
C18 C 0.7674(7) 0.4113(3) 0.43562(19)
C19 C 0.3261(8) 0.6739(3) 0.4816(3)
C20 C 0.2236(8) 0.6445(3) 0.7007(2)
H8 H 0.2503 0.6767 0.7170
C21 C 0.6433(7) 0.3957(4) 0.4134(3)
H9 H 0.5545 0.4116 0.4206
C22 C 0.1480(7) 0.7704(3) 0.3414(2)
H10 H 0.0582 0.7577 0.3320
N7 N 0.2180(7) 0.7048(3) 0.4987(2)
C24 C 0.2838(8) 0.6370(4) 0.6594(2)
H11 H 0.3526 0.6626 0.6489
C25 C 0.1771(7) 0.3869(3) 0.6013(2)
H12 H 0.0949 0.4094 0.5976
C26 C 0.4185(8) 0.3634(3) 0.5835(3)
H13 H 0.5034 0.3699 0.5682
C27 C 0.2193(9) 0.9300(4) 0.2419(3)
C28 C 0.8030(8) 0.4303(4) 0.6596(3)
H14 H 0.9019 0.4270 0.6556
C29 C 0.6557(9) 0.3557(4) 0.3801(3)
H15 H 0.5722 0.3450 0.3655
C31 C 0.2603(9) 0.4318(4) 0.3976(3)
H17 H 0.2053 0.4134 0.4189
O16 O 0.3475(7) 0.9368(3) 0.2294(2)
C32 C 0.5771(7) 0.4703(4) 0.6416(2)
H18 H 0.5197 0.4942 0.6245
C33 C 0.7350(9) 0.4011(4) 0.6938(2)
H19 H 0.7907 0.3772 0.7114
C34 C 0.2987(9) 0.4027(4) 0.3601(3)
H20 H 0.2640 0.3654 0.3561
C35 C 0.2978(7) 0.5832(3) 0.5885(2)
N9 N 0.1130(9) 0.9518(4) 0.2208(3)
C36 C 0.7864(7) 0.4928(3) 0.59241(19)
C37 C 0.8951(8) 0.3848(3) 0.4254(3)
H21 H 0.9784 0.3927 0.4411
C38 C 0.3927(8) 0.7723(3) 0.3322(2)
H22 H 0.4736 0.7607 0.3166
C40 C 0.2245(10) 0.7170(4) 0.5461(3)
H24 H 0.1542 0.6940 0.5610
H25 H 0.2048 0.7572 0.5510
H26 H 0.3188 0.7079 0.5569
C41 C 0.1918(11) 0.8954(4) 0.2830(3)
H27 H 0.1568 0.8578 0.2753
H28 H 0.1214 0.9149 0.3006
H29 H 0.2799 0.8917 0.2992
C42 C 0.4076(8) 0.3187(4) 0.6131(3)
H30 H 0.4887 0.2958 0.6171
C43 C 0.1793(8) 0.3413(3) 0.6311(2)
H31 H 0.0985 0.3352 0.6485
C44 C 0.4247(12) 0.4796(3) 0.3352(3)
H32 H 0.4788 0.4972 0.3135
C45 C 0.0921(10) 0.7252(4) 0.4763(4)
H33 H 0.0873 0.7665 0.4784
H34 H 0.0077 0.7086 0.4893
H35 H 0.0972 0.7140 0.4461
C46 C 0.1389(8) 0.5539(3) 0.6518(2)
H36 H 0.1039 0.5232 0.6353
C47 C 0.3916(11) 0.5112(4) 0.3724(3)
H37 H 0.4292 0.5481 0.3761
C48 C 0.3274(11) 0.6681(4) 0.4321(3)
H38 H 0.4057 0.6436 0.4234
H39 H 0.3391 0.7056 0.4191
H40 H 0.2381 0.6515 0.4225
C49 C 0.1505(18) 0.9833(6) 0.1793(4)
H42 H 0.0722 0.9801 0.1590
H43 H 0.2356 0.9666 0.1668
Dy4 Dy 0.04209(3) 0.939353(12) 0.484499(8)
Dy6 Dy 0.51182(3) 0.965355(11) 0.478352(8)
Cu5 Cu 0.04428(11) 0.61945(4) 0.77741(3)
Cu6 Cu 0.45572(11) 0.38055(4) 0.27741(3)
Cu7 Cu 0.27957(10) 0.23500(4) 0.67632(3)
Cu8 Cu 0.77957(10) 0.26500(4) 0.32368(3)
Cu9 Cu 0.49355(11) 0.35714(4) 0.74924(3)
O17 O 0.6935(4) 0.63356(19) 0.54393(14)
N10 N 0.2206(7) 0.8312(3) 0.13242(19)
N11 N 0.6303(6) 0.8921(3) 0.28238(17)
N12 N 0.6172(7) 0.9251(3) 0.17082(19)
N13 N 0.2075(6) 0.6944(2) 0.13597(19)
O21 O 0.6521(5) 0.6015(2) 0.45048(14)
I3 I 0.98694(5) 0.755312(19) 0.224641(14)
C5 C 0.9759(7) 0.6068(3) 0.38562(19)
C12 C 0.7821(7) 0.5999(3) 0.44301(19)
O14 O 0.8808(5) 0.5851(2) 0.46975(13)
C23 C 0.8344(7) 0.6165(3) 0.39764(19)
N8 N 0.9327(6) 0.6393(3) 0.31303(18)
C30 C 0.7435(8) 0.6405(4) 0.3665(2)
H16 H 0.6485 0.6495 0.3733
C39 C 0.7975(9) 0.6509(4) 0.3248(2)
H23 H 0.7360 0.6668 0.3041
C50 C 0.9619(11) 0.9461(6) 0.2362(5)
H44 H 0.9385 0.9059 0.2394
H45 H 0.8981 0.9634 0.2153
H46 H 0.9516 0.9651 0.2638
O18 O 0.9258(5) 0.6153(2) 0.56121(14)
N14 N 0.9052(6) 0.5944(3) 0.20257(17)
Dy2 Dy 0.48818(3) 0.465355(11) 0.021648(8)
O1_2 O 0.0768(5) 0.34715(19) 0.00433(15)
C2_2 C 0.4093(9) 0.4378(4) 0.1934(2)
H2_2 H 0.4720 0.4647 0.2054
O2_2 O 0.3217(5) 0.5386(2) 0.03042(16)
C3_2 C 0.2614(6) 0.4095(3) 0.13447(18)
O6_2 O 0.0833(4) 0.5262(2) 0.03991(16)
O7_2 O 0.0688(4) 0.4139(2) 0.08375(14)
N2_2 N 0.3697(6) 0.3921(3) 0.21762(17)
C11_2 C 0.2016(7) 0.5505(3) 0.0467(2)
O12_2 O 0.2919(5) 0.4268(2) 0.05864(15)
C13_2 C 0.1993(7) 0.6022(3) 0.0776(2)
H5_2 H 0.0784 0.5544 0.1822
C20_2 C 0.2764(8) 0.3555(3) 0.2007(2)
H8_2 H 0.2497 0.3233 0.2170
C24_2 C 0.2162(8) 0.3630(4) 0.1594(2)
H11_2 H 0.1474 0.3374 0.1489
C25_2 C 0.3229(7) 0.6131(3) 0.1013(2)
H12_2 H 0.4051 0.5906 0.0976
C26_2 C 0.0815(8) 0.6366(3) 0.0835(3)
C35_2 C 0.2022(7) 0.4168(3) 0.0885(2)
C40_2 C 0.2755(10) 0.2830(4) 0.0461(3)
H24_2 H 0.3458 0.3060 0.0610
H25_2 H 0.2952 0.2428 0.0510
H26_2 H 0.1812 0.2921 0.0569
C42_2 C 0.0924(8) 0.6813(4) 0.1131(3)
H30_2 H 0.0113 0.7042 0.1171
C43_2 C 0.3207(8) 0.6587(3) 0.1311(2)
H31_2 H 0.4015 0.6648 0.1485
C46_2 C 0.3611(8) 0.4461(3) 0.1518(2)
H36_2 H 0.3961 0.4768 0.1353
Dy3 Dy 0.95791(3) 0.439353(12) 0.015501(8)
O18_2 O 0.5742(5) 0.3847(2) 0.06121(14)
O20 O 0.5782(4) 0.5110(2) 0.08694(14)
I1_2 I 0.21055(5) 0.39226(2) 0.751148(15)
I2_2 I 0.02179(5) 0.229942(19) 0.714431(13)
I3_2 I 0.51306(5) 0.244688(19) 0.724641(14)
Cu4_2 Cu 0.25546(10) 0.28237(4) 0.75730(3)
C1_2 C 0.0877(7) 0.1930(3) 0.8695(2)
O3_2 O 0.3065(4) 0.13356(19) 0.95607(14)
O4_2 O 0.1292(5) 0.4543(2) 0.96252(14)
O5_2 O 0.3615(5) 0.4752(3) 0.95533(14)
C5_2 C 0.5241(7) 0.3932(3) 0.88562(19)
H3_2 H 0.4584 0.4070 0.9060
O8_2 O 0.0742(5) 0.1153(2) 0.93879(14)
N3_2 N 0.1172(7) 0.5749(3) 0.82918(19)
C7_2 C 0.2100(7) 0.1771(3) 0.89250(19)
C8_2 C 0.2318(6) 0.4785(3) 0.94440(18)
C10_2 C 0.1967(6) 0.5121(3) 0.90359(19)
N5_2 N 0.2349(6) 0.2446(2) 0.81837(17)
C12_2 C 0.7179(7) 0.4001(3) 0.94301(19)
O14_2 O 0.6192(5) 0.4149(2) 0.96975(13)
C15_2 C 0.1967(6) 0.1388(3) 0.93298(19)
C16_2 C 0.4800(8) 0.3823(3) 0.8431(2)
H6_2 H 0.3854 0.3906 0.8354
O15 O 0.8479(5) 0.3985(2) 0.95048(14)
C17_2 C 0.3436(7) 0.1957(3) 0.8789(2)
H7_2 H 0.4262 0.1860 0.8944
C19_2 C 0.1739(8) 0.3261(3) 0.9816(3)
C22_2 C 0.3520(7) 0.2296(3) 0.8414(2)
H10_2 H 0.4418 0.2423 0.8320
N7_2 N 0.2820(7) 0.2952(3) 0.9987(2)
C23_2 C 0.6656(7) 0.3835(3) 0.89764(19)
N8_2 N 0.5673(6) 0.3607(3) 0.81303(18)
C27_2 C 0.2807(9) 0.0700(4) 0.7419(3)
C30_2 C 0.7565(8) 0.3595(4) 0.8665(2)
H16_2 H 0.8515 0.3505 0.8733
C31_2 C 0.2397(9) 0.5682(4) 0.8976(3)
H17_2 H 0.2947 0.5866 0.9189
O16_2 O 0.1525(7) 0.0632(3) 0.7294(2)
C34_2 C 0.2013(9) 0.5973(4) 0.8601(3)
H20_2 H 0.2360 0.6346 0.8561
N9_2 N 0.3870(9) 0.0482(4) 0.7208(3)
C38_2 C 0.1073(8) 0.2277(3) 0.8322(2)
H22_2 H 0.0264 0.2393 0.8166
C39_2 C 0.7025(9) 0.3491(4) 0.8248(2)
H23_2 H 0.7640 0.3332 0.8041
C41_2 C 0.3082(11) 0.1046(4) 0.7830(3)
H27_2 H 0.3432 0.1422 0.7753
H28_2 H 0.3786 0.0851 0.8006
H29_2 H 0.2201 0.1083 0.7992
C44_2 C 0.0753(12) 0.5204(3) 0.8352(3)
H32_2 H 0.0212 0.5028 0.8135
C45_2 C 0.4079(10) 0.2748(4) 0.9763(4)
H33_2 H 0.4127 0.2335 0.9784
H34_2 H 0.4923 0.2914 0.9893
H35_2 H 0.4028 0.2860 0.9461
C47_2 C 0.1084(11) 0.4888(4) 0.8724(3)
H37_2 H 0.0708 0.4519 0.8761
C48_2 C 0.1726(11) 0.3319(4) 0.9321(3)
H38_2 H 0.0943 0.3564 0.9234
H39_2 H 0.1609 0.2944 0.9191
H40_2 H 0.2619 0.3485 0.9225
C49_2 C 0.3495(18) 0.0167(6) 0.6793(4)
H42_2 H 0.4278 0.0199 0.6590
H43_2 H 0.2644 0.0334 0.6668
C50_2 C 0.5381(11) 0.0539(6) 0.7362(5)
H44_2 H 0.5615 0.0941 0.7394
H45_2 H 0.6019 0.0366 0.7153
H46_2 H 0.5484 0.0349 0.7638
Dy4_2 Dy 0.45791(3) 0.060647(12) 0.984499(8)
N10_2 N 0.2794(7) 0.1688(3) 0.63242(19)
O19 O 0.6253(5) 0.5372(2) 0.99313(15)
C4_2 C 0.7775(7) 0.5364(3) 0.13233(19)
O13_2 O 0.7969(4) 0.4812(2) 0.06675(14)
C14_2 C 0.9808(7) 0.5592(3) 0.1765(2)
H13_2 H 0.9966 0.6301 0.0682
C28_2 C 0.6970(8) 0.5697(4) 0.1596(3)
H14_2 H 0.5981 0.5730 0.1556
C32_2 C 0.9229(7) 0.5297(4) 0.1416(2)
H18_2 H 0.9803 0.5058 0.1245
C33_2 C 0.7650(9) 0.5989(4) 0.1938(2)
H19_2 H 0.7093 0.6228 0.2114
C36_2 C 0.7136(7) 0.5072(3) 0.09241(19)
O17_2 O 0.8065(4) 0.36644(19) 0.04393(14)
Cu1_2 Cu 0.95572(11) 0.11945(4) 0.72259(3)
H1_2 H 0.9965 0.1812 0.8783
N1_2 N 0.7206(7) 0.6688(3) 0.86758(19)
C6_2 C 0.6030(8) 0.6540(4) 0.8910(3)
H4_2 H 0.5155 0.6710 0.8837
C9_2 C 0.7376(6) 0.5436(3) 0.97203(18)
O11_2 O 0.8525(5) 0.5174(2) 0.97658(15)
C18_2 C 0.7326(7) 0.5887(3) 0.93562(19)
C21_2 C 0.8567(7) 0.6043(4) 0.9134(3)
H9_2 H 0.9455 0.5884 0.9206
C29_2 C 0.8443(9) 0.6443(4) 0.8801(3)
H15_2 H 0.9278 0.6550 0.8655
C37_2 C 0.6049(8) 0.6152(3) 0.9254(3)
H21_2 H 0.5216 0.6073 0.9411
Dy6_2 Dy 0.98818(3) 0.034645(11) 0.978352(8)
Cu8_2 Cu 0.72043(10) 0.73500(4) 0.82368(3)
N11_2 N 0.8697(6) 0.1079(3) 0.78238(17)
N12_2 N 0.8828(7) 0.0749(3) 0.67082(19)
C4_3 C 0.2225(7) 0.0364(3) 0.36767(19)
C6_3 C 0.3970(8) 0.1540(4) 0.6090(3)
H4_3 H 0.4845 0.1710 0.6163
O9_2 O 0.3747(5) 0.0372(2) 0.50687(15)
C9_3 C 0.2624(6) 0.0436(3) 0.52797(18)
O10_2 O 0.4218(4) 0.0110(2) 0.41306(14)
O11_3 O 0.1475(5) 0.0174(2) 0.52342(15)
N6_2 N 0.0948(6) 0.0944(3) 0.29743(17)
C14_3 C 0.0192(7) 0.0592(3) 0.3235(2)
C18_3 C 0.2674(7) 0.0887(3) 0.56438(19)
C21_3 C 0.1433(7) 0.1043(4) 0.5866(3)
H9_3 H 0.0545 0.0884 0.5794
H13_3 H 0.0034 0.1301 0.4318
C28_3 C 0.3030(8) 0.0697(4) 0.3404(3)
H14_3 H 0.4019 0.0730 0.3444
C29_3 C 0.1557(9) 0.1443(4) 0.6199(3)
H15_3 H 0.0722 0.1550 0.6345
C32_3 C 0.0771(7) 0.0297(4) 0.3584(2)
H18_3 H 0.0197 0.0058 0.3755
C33_3 C 0.2350(9) 0.0989(4) 0.3062(2)
H19_3 H 0.2907 0.1228 0.2886
C36_3 C 0.2864(7) 0.0072(3) 0.40759(19)
C37_3 C 0.3951(8) 0.1152(3) 0.5746(3)
H21_3 H 0.4784 0.1073 0.5589
H1_3 H 0.0035 0.6812 0.6217
O13_3 O 0.2031(4) 0.9812(2) 0.43325(14)
O21_2 O 0.1521(5) 0.8985(2) 0.54952(14)
O2_3 O 0.6783(5) 0.0386(2) 0.46958(16)
O6_3 O 0.9167(4) 0.0262(2) 0.46009(16)
N4_2 N 0.7925(6) 0.1944(2) 0.36403(19)
C10_3 C 0.8033(6) 0.0121(3) 0.59641(19)
C11_3 C 0.7984(7) 0.0505(3) 0.4533(2)
C13_3 C 0.8007(7) 0.1022(3) 0.4224(2)
H5_3 H 0.9216 0.0544 0.3178
C25_3 C 0.6771(7) 0.1131(3) 0.3987(2)
H12_3 H 0.5949 0.0906 0.4024
C26_3 C 0.9185(8) 0.1366(3) 0.4165(3)
C31_3 C 0.7603(9) 0.0682(4) 0.6024(3)
H17_3 H 0.7053 0.0866 0.5811
C34_3 C 0.7987(9) 0.0973(4) 0.6399(3)
H20_3 H 0.7640 0.1346 0.6439
C42_3 C 0.9076(8) 0.1813(4) 0.3869(3)
H30_3 H 0.9887 0.2042 0.3829
C43_3 C 0.6793(8) 0.1587(3) 0.3689(2)
H31_3 H 0.5985 0.1648 0.3515
C44_3 C 0.9247(12) 0.0204(3) 0.6648(3)
H32_3 H 0.9788 0.0028 0.6865
Cu9_2 Cu 0.99355(11) 0.14286(4) 0.25076(3)
I1_3 I 0.78945(5) 0.89226(2) 0.748852(15)
I2_3 I 0.97821(5) 0.729942(19) 0.785569(13)
I3_3 I 0.48694(5) 0.744688(19) 0.775359(14)
Cu3_2 Cu 0.50645(11) 0.85714(4) 0.75076(3)
Cu4_3 Cu 0.74454(10) 0.78237(4) 0.74270(3)
C1_3 C 0.9123(7) 0.6930(3) 0.6305(2)
O1_3 O 0.9232(5) 0.84715(19) 0.49567(15)
C2_3 C 0.5907(9) 0.9378(4) 0.3066(2)
H2_3 H 0.5280 0.9647 0.2946
O4_3 O 0.8708(5) 0.9543(2) 0.53748(14)
C3_3 C 0.7386(6) 0.9095(3) 0.36553(18)
O5_3 O 0.6385(5) 0.9752(3) 0.54467(14)
O7_3 O 0.9312(4) 0.9139(2) 0.41625(14)
C5_3 C 0.4759(7) 0.8932(3) 0.61438(19)
H3_3 H 0.5416 0.9070 0.5940
C7_3 C 0.7900(7) 0.6771(3) 0.60750(19)
C8_3 C 0.7682(6) 0.9785(3) 0.55560(18)
O12_3 O 0.7081(5) 0.9268(2) 0.44136(15)
N5_3 N 0.7651(6) 0.7446(2) 0.68163(17)
C12_3 C 0.2821(7) 0.9001(3) 0.55699(19)
O14_3 O 0.3808(5) 0.9149(2) 0.53025(13)
C15_3 C 0.8033(6) 0.6388(3) 0.56702(19)
C16_3 C 0.5200(8) 0.8823(3) 0.6569(2)
H6_3 H 0.6146 0.8906 0.6646
C17_3 C 0.6564(7) 0.6957(3) 0.6211(2)
H7_3 H 0.5738 0.6860 0.6056
C19_3 C 0.8261(8) 0.8261(3) 0.5184(3)
C20_3 C 0.7236(8) 0.8555(3) 0.2993(2)
H8_3 H 0.7503 0.8233 0.2830
C22_3 C 0.6480(7) 0.7296(3) 0.6586(2)
H10_3 H 0.5582 0.7423 0.6680
N7_3 N 0.7180(7) 0.7952(3) 0.5013(2)
C23_3 C 0.3344(7) 0.8835(3) 0.60236(19)
N8_3 N 0.4327(6) 0.8607(3) 0.68697(18)
C24_3 C 0.7838(8) 0.8630(4) 0.3406(2)
H11_3 H 0.8526 0.8374 0.3511
C27_3 C 0.7193(9) 0.5700(4) 0.7581(3)
C30_3 C 0.2435(8) 0.8595(4) 0.6335(2)
H16_3 H 0.1485 0.8505 0.6267
O16_3 O 0.8475(7) 0.5632(3) 0.7706(2)
C35_3 C 0.7978(7) 0.9168(3) 0.4115(2)
N9_3 N 0.6130(9) 0.5482(4) 0.7792(3)
C38_3 C 0.8927(8) 0.7277(3) 0.6678(2)
H22_3 H 0.9736 0.7393 0.6834
C39_3 C 0.2975(9) 0.8491(4) 0.6752(2)
H23_3 H 0.2360 0.8332 0.6959
C40_3 C 0.7245(10) 0.7830(4) 0.4539(3)
H24_3 H 0.6542 0.8060 0.4390
H25_3 H 0.7048 0.7428 0.4490
H26_3 H 0.8188 0.7921 0.4431
C41_3 C 0.6918(11) 0.6046(4) 0.7170(3)
H27_3 H 0.6568 0.6422 0.7247
H28_3 H 0.6214 0.5851 0.6994
H29_3 H 0.7799 0.6083 0.7008
C45_3 C 0.5921(10) 0.7748(4) 0.5237(4)
H33_3 H 0.5873 0.7335 0.5216
H34_3 H 0.5077 0.7914 0.5107
H35_3 H 0.5972 0.7860 0.5539
C46_3 C 0.6389(8) 0.9461(3) 0.3482(2)
H36_3 H 0.6039 0.9768 0.3647
C47_3 C 0.8916(11) 0.9888(4) 0.6276(3)
H37_3 H 0.9292 0.9519 0.6239
C48_3 C 0.8274(11) 0.8319(4) 0.5679(3)
H38_3 H 0.9057 0.8564 0.5766
H39_3 H 0.8391 0.7944 0.5809
H40_3 H 0.7381 0.8485 0.5775
C49_3 C 0.6505(18) 0.5167(6) 0.8207(4)
H41 H 0.6678 0.4768 0.8143
H42_3 H 0.5722 0.5199 0.8410
H43_3 H 0.7356 0.5334 0.8332
C50_3 C 0.4619(11) 0.5539(6) 0.7638(5)
H44_3 H 0.4385 0.5941 0.7606
H45_3 H 0.3981 0.5366 0.7847
H46_3 H 0.4516 0.5349 0.7362
N13_2 N 0.7075(6) 0.8056(2) 0.86403(19)
N14_2 N 0.4052(6) 0.9056(3) 0.79743(17)
I3_4 I 0.01306(5) 0.255312(19) 0.275359(14)
C5_4 C 0.0241(7) 0.1068(3) 0.11438(19)
C12_4 C 0.2179(7) 0.0999(3) 0.05699(19)
O14_4 O 0.1192(5) 0.0851(2) 0.03025(13)
O15_2 O 0.3479(5) 0.1015(2) 0.04952(14)
C23_4 C 0.1656(7) 0.1165(3) 0.10236(19)
N8_4 N 0.0673(6) 0.1393(3) 0.18697(18)
C30_4 C 0.2565(8) 0.1405(4) 0.1335(2)
H16_4 H 0.3515 0.1495 0.1267
C39_4 C 0.2025(9) 0.1509(4) 0.1752(2)
H23_4 H 0.2640 0.1668 0.1959
C50_4 C 0.0381(11) 0.4461(6) 0.2638(5)
H44_4 H 0.0615 0.4059 0.2606
H45_4 H 0.1019 0.4634 0.2847
H46_4 H 0.0484 0.4651 0.2362
O19_2 O 0.1253(5) 0.9628(2) 0.00687(15)
O20_2 O 0.0782(4) 0.9890(2) 0.91306(14)
I1_4 I 0.71055(5) 0.10774(2) 0.248852(15)
I2_4 I 0.52179(5) 0.270058(19) 0.285569(13)
Cu4_4 Cu 0.75546(10) 0.21763(4) 0.24270(3)
C1_4 C 0.5877(7) 0.3070(3) 0.1305(2)
H1_4 H 0.4965 0.3188 0.1217
O4_4 O 0.6292(5) 0.0457(2) 0.03748(14)
O5_4 O 0.8615(5) 0.0248(3) 0.04467(14)
H3_4 H 0.9584 0.0930 0.0940
C7_4 C 0.7100(7) 0.3229(3) 0.10750(19)
C8_4 C 0.7318(6) 0.0215(3) 0.05560(18)
N5_4 N 0.7349(6) 0.2554(2) 0.18163(17)
C15_4 C 0.6967(6) 0.3612(3) 0.06702(19)
C16_4 C 0.9800(8) 0.1177(3) 0.1569(2)
H6_4 H 0.8854 0.1094 0.1646
C17_4 C 0.8436(7) 0.3043(3) 0.1211(2)
H7_4 H 0.9262 0.3140 0.1056
C19_4 C 0.6739(8) 0.1739(3) 0.0184(3)
C22_4 C 0.8520(7) 0.2704(3) 0.1586(2)
H10_4 H 0.9418 0.2577 0.1680
N7_4 N 0.7820(7) 0.2048(3) 0.0013(2)
C27_4 C 0.7807(9) 0.4300(4) 0.2581(3)
O16_4 O 0.6525(7) 0.4368(3) 0.2706(2)
N9_4 N 0.8870(9) 0.4518(4) 0.2792(3)
C38_4 C 0.6073(8) 0.2723(3) 0.1678(2)
H22_4 H 0.5264 0.2607 0.1834
C41_4 C 0.8082(11) 0.3954(4) 0.2170(3)
H27_4 H 0.8432 0.3578 0.2247
H28_4 H 0.8786 0.4149 0.1994
H29_4 H 0.7201 0.3917 0.2008
C45_4 C 0.9079(10) 0.2252(4) 0.0237(4)
H33_4 H 0.9127 0.2665 0.0216
H34_4 H 0.9923 0.2086 0.0107
H35_4 H 0.9028 0.2140 0.0539
C47_4 C 0.6084(11) 0.0112(4) 0.1276(3)
H37_4 H 0.5708 0.0481 0.1239
C48_4 C 0.6726(11) 0.1681(4) 0.0679(3)
H38_4 H 0.5943 0.1436 0.0766
H39_4 H 0.6609 0.2056 0.0809
H40_4 H 0.7619 0.1515 0.0775
C49_4 C 0.8495(18) 0.4833(6) 0.3207(4)
H41_2 H 0.8322 0.5232 0.3143
H42_4 H 0.9278 0.4801 0.3410
H43_4 H 0.7644 0.4666 0.3332
O1_4 O 0.5768(5) 0.15285(19) 0.99567(15)
C2_4 C 0.9093(9) 0.0622(4) 0.8066(2)
H2_4 H 0.9720 0.0353 0.7946
C3_4 C 0.7614(6) 0.0905(3) 0.86553(18)
O7_4 O 0.5688(4) 0.0861(2) 0.91625(14)
O12_4 O 0.7919(5) 0.0732(2) 0.94136(15)
O13_4 O 0.2969(4) 0.0188(2) 0.93325(14)
C20_4 C 0.7764(8) 0.1445(3) 0.7993(2)
H8_4 H 0.7497 0.1767 0.7830
C24_4 C 0.7162(8) 0.1370(4) 0.8406(2)
H11_4 H 0.6474 0.1626 0.8511
C35_4 C 0.7022(7) 0.0832(3) 0.9115(2)
C40_4 C 0.7755(10) 0.2170(4) 0.9539(3)
H24_4 H 0.8458 0.1940 0.9390
H25_4 H 0.7952 0.2572 0.9490
H26_4 H 0.6812 0.2079 0.9431
C46_4 C 0.8611(8) 0.0539(3) 0.8482(2)
H36_4 H 0.8961 0.0232 0.8647
C6_4 C 0.1030(8) 0.8460(4) 0.1090(3)
H4_4 H 0.0155 0.8290 0.1163
C9_4 C 0.2376(6) 0.9564(3) 0.02797(18)
C10_4 C 0.6967(6) 0.9879(3) 0.09641(19)
O11_4 O 0.3525(5) 0.9826(2) 0.02342(15)
C18_4 C 0.2326(7) 0.9113(3) 0.06438(19)
C21_4 C 0.3567(7) 0.8957(4) 0.0866(3)
H9_4 H 0.4455 0.9116 0.0794
C29_4 C 0.3443(9) 0.8557(4) 0.1199(3)
H15_4 H 0.4278 0.8450 0.1345
C31_4 C 0.7397(9) 0.9318(4) 0.1024(3)
H17_4 H 0.7947 0.9134 0.0811
C34_4 C 0.7013(9) 0.9027(4) 0.1399(3)
H20_4 H 0.7360 0.8654 0.1439
C37_4 C 0.1049(8) 0.8848(3) 0.0746(3)
H21_4 H 0.0216 0.8927 0.0589
C44_4 C 0.5753(12) 0.9796(3) 0.1648(3)
H32_4 H 0.5212 0.9972 0.1865
O2_4 O 0.8217(5) 0.9614(2) 0.96958(16)
C4_4 C 0.2775(7) 0.9636(3) 0.86767(19)
O6_4 O 0.5833(4) 0.9738(2) 0.96009(16)
C11_4 C 0.7016(7) 0.9495(3) 0.9533(2)
C13_4 C 0.6993(7) 0.8978(3) 0.9224(2)
C14_4 C 0.4808(7) 0.9408(3) 0.8235(2)
H5_4 H 0.5784 0.9456 0.8178
C25_4 C 0.8229(7) 0.8869(3) 0.8987(2)
H12_4 H 0.9051 0.9094 0.9024
C26_4 C 0.5815(8) 0.8634(3) 0.9165(3)
H13_4 H 0.4966 0.8699 0.9318
C28_4 C 0.1970(8) 0.9303(4) 0.8404(3)
H14_4 H 0.0981 0.9270 0.8444
C32_4 C 0.4229(7) 0.9703(4) 0.8584(2)
H18_4 H 0.4803 0.9942 0.8755
C33_4 C 0.2650(9) 0.9011(4) 0.8062(2)
H19_4 H 0.2093 0.8772 0.7886
C36_4 C 0.2136(7) 0.9928(3) 0.90759(19)
C42_4 C 0.5924(8) 0.8187(4) 0.8869(3)
H30_4 H 0.5113 0.7958 0.8829
C43_4 C 0.8207(8) 0.8413(3) 0.8689(2)
H31_4 H 0.9015 0.8352 0.8515
H41_3 H 0.1678 0.0232 0.1857
H41_4 H 0.3322 0.9768 0.6857
loop_
_geom_bond_atom_site_label_1
_geom_bond_atom_site_label_2
_geom_bond_site_symmetry_1
_geom_bond_site_symmetry_2
Dy1 O1 1_555 1_555
Dy5 O2 1_555 1_555
I1 Cu3 1_555 1_555
I2 Cu1 1_555 1_555
Cu1 O16 1_555 1_555
Cu2 I2 1_555 1_555
Cu4 I1 1_555 1_555
C1 H1 1_555 1_555
O1 C19 1_555 1_555
C2 H2 1_555 1_555
O2 C11 1_555 1_555
O3 C15 1_555 1_555
O4 Dy1 1_555 1_555
C3 C24 1_555 1_555
O5 Dy5 1_555 1_555
C4 C28 1_555 1_555
N1 C6 1_555 1_555
O6 Dy1 1_555 1_555
O7 Dy1 1_555 1_555
C6 H4 1_555 1_555
O8 C15 1_555 1_555
N2 C2 1_555 1_555
N3 C34 1_555 1_555
C7 C1 1_555 1_555
O9 C9 1_555 1_555
C8 O4 1_555 1_555
C9 O11 1_555 1_555
N4 C42 1_555 1_555
C10 C8 1_555 1_555
C11 O6 1_555 1_555
O10 C36 1_555 1_555
O11 Dy1 1_555 1_555
O12 Dy5 1_555 1_555
O13 Dy1 1_555 1_555
N5 Cu4 1_555 1_555
N6 C14 1_555 1_555
C13 C11 1_555 1_555
C14 H5 1_555 1_555
C15 C7 1_555 1_555
H6 C16 1_555 1_555
C17 C7 1_555 1_555
H7 C17 1_555 1_555
C18 C9 1_555 1_555
C19 N7 1_555 1_555
C20 N2 1_555 1_555
H8 C20 1_555 1_555
C21 C18 1_555 1_555
H9 C21 1_555 1_555
C22 N5 1_555 1_555
H10 C22 1_555 1_555
N7 C40 1_555 1_555
C24 C20 1_555 1_555
H11 C24 1_555 1_555
C25 C13 1_555 1_555
H12 C25 1_555 1_555
C26 C13 1_555 1_555
H13 C26 1_555 1_555
C27 O16 1_555 1_555
C28 H14 1_555 1_555
C29 N1 1_555 1_555
H15 C29 1_555 1_555
C31 C10 1_555 1_555
H17 C31 1_555 1_555
C32 C4 1_555 1_555
H18 C32 1_555 1_555
C33 N6 1_555 1_555
H19 C33 1_555 1_555
C34 C31 1_555 1_555
H20 C34 1_555 1_555
C35 C3 1_555 1_555
N9 C27 1_555 1_555
C36 C4 1_555 1_555
C37 C6 1_555 1_555
H21 C37 1_555 1_555
C38 C1 1_555 1_555
H22 C38 1_555 1_555
C40 H24 1_555 1_555
H25 C40 1_555 1_555
H26 C40 1_555 1_555
C41 C27 1_555 1_555
H27 C41 1_555 1_555
H28 C41 1_555 1_555
H29 C41 1_555 1_555
C42 C26 1_555 1_555
H30 C42 1_555 1_555
C43 N4 1_555 1_555
H31 C43 1_555 1_555
C44 N3 1_555 1_555
H32 C44 1_555 1_555
C45 N7 1_555 1_555
H33 C45 1_555 1_555
H34 C45 1_555 1_555
H35 C45 1_555 1_555
C46 C2 1_555 1_555
H36 C46 1_555 1_555
C47 C10 1_555 1_555
H37 C47 1_555 1_555
C48 C19 1_555 1_555
H38 C48 1_555 1_555
H39 C48 1_555 1_555
H40 C48 1_555 1_555
C49 N9 1_555 1_555
H42 C49 1_555 1_555
H43 C49 1_555 1_555
Dy4 O3 1_555 1_555
Dy6 O8 1_555 1_555
Cu5 N2 1_555 1_555
Cu6 N3 1_555 1_555
Cu7 N4 1_555 1_555
Cu8 N1 1_555 1_555
Cu9 N6 1_555 1_555
O17 Dy1 1_555 1_555
N10 Cu2 1_555 1_555
N11 Cu1 1_555 1_555
N12 Cu1 1_555 1_555
N13 Cu2 1_555 1_555
O21 Dy1 1_555 1_555
I2 Cu4 1_555 1_555
C3 C46 1_555 1_555
O5 C8 1_555 1_555
O7 C35 1_555 1_555
O12 C35 1_555 1_555
O13 C36 1_555 1_555
N5 C38 1_555 1_555
C14 C32 1_555 1_555
C17 C22 1_555 1_555
C18 C37 1_555 1_555
C21 C29 1_555 1_555
C25 C43 1_555 1_555
C28 C33 1_555 1_555
C44 C47 1_555 1_555
C12 O14 1_555 1_555
O21 C12 1_555 1_555
C23 C5 1_555 1_555
C30 C23 1_555 1_555
H16 C30 1_555 1_555
C39 N8 1_555 1_555
H23 C39 1_555 1_555
H44 C50 1_555 1_555
H45 C50 1_555 1_555
H46 C50 1_555 1_555
C12 C23 1_555 1_555
C30 C39 1_555 1_555
Dy2 O2_2 1_555 1_555
C2_2 H2_2 1_555 1_555
O2_2 C11_2 1_555 1_555
C3_2 C24_2 1_555 1_555
N2_2 C2_2 1_555 1_555
N13 C42_2 1_555 1_555
C11_2 O6_2 1_555 1_555
O12_2 Dy2 1_555 1_555
C13_2 C11_2 1_555 1_555
C20_2 N2_2 1_555 1_555
H8_2 C20_2 1_555 1_555
C24_2 C20_2 1_555 1_555
H11_2 C24_2 1_555 1_555
C25_2 C13_2 1_555 1_555
H12_2 C25_2 1_555 1_555
C26_2 C13_2 1_555 1_555
C35_2 C3_2 1_555 1_555
C40_2 H24_2 1_555 1_555
H25_2 C40_2 1_555 1_555
H26_2 C40_2 1_555 1_555
C42_2 C26_2 1_555 1_555
H30_2 C42_2 1_555 1_555
C43_2 N13 1_555 1_555
H31_2 C43_2 1_555 1_555
C46_2 C2_2 1_555 1_555
H36_2 C46_2 1_555 1_555
Cu6 N2_2 1_555 1_555
O18_2 Dy2 1_555 1_555
O20 Dy2 1_555 1_555
C3_2 C46_2 1_555 1_555
O7_2 C35_2 1_555 1_555
O12_2 C35_2 1_555 1_555
C25_2 C43_2 1_555 1_555
I1_2 Cu9 1_555 1_555
I3_2 Cu7 1_555 1_555
Cu7 I2_2 1_555 1_555
Cu9 I3_2 1_555 1_555
Cu4_2 I1_2 1_555 1_555
O3_2 C15_2 1_555 1_555
C5_2 H3_2 1_555 1_555
O8_2 C15_2 1_555 1_555
N3_2 C34_2 1_555 1_555
C7_2 C1_2 1_555 1_555
C8_2 O4_2 1_555 1_555
C10_2 C8_2 1_555 1_555
N5_2 Cu4_2 1_555 1_555
C12_2 O14_2 1_555 1_555
C15_2 C7_2 1_555 1_555
C16_2 C5_2 1_555 1_555
H6_2 C16_2 1_555 1_555
O15 C12_2 1_555 1_555
C17_2 C7_2 1_555 1_555
H7_2 C17_2 1_555 1_555
C19_2 N7_2 1_555 1_555
C22_2 N5_2 1_555 1_555
H10_2 C22_2 1_555 1_555
C23_2 C5_2 1_555 1_555
N8_2 Cu9 1_555 1_555
C27_2 O16_2 1_555 1_555
C30_2 C23_2 1_555 1_555
H16_2 C30_2 1_555 1_555
C31_2 C10_2 1_555 1_555
H17_2 C31_2 1_555 1_555
C34_2 C31_2 1_555 1_555
H20_2 C34_2 1_555 1_555
N9_2 C27_2 1_555 1_555
C38_2 C1_2 1_555 1_555
H22_2 C38_2 1_555 1_555
C39_2 N8_2 1_555 1_555
H23_2 C39_2 1_555 1_555
C41_2 C27_2 1_555 1_555
H27_2 C41_2 1_555 1_555
H28_2 C41_2 1_555 1_555
H29_2 C41_2 1_555 1_555
C44_2 N3_2 1_555 1_555
H32_2 C44_2 1_555 1_555
C45_2 N7_2 1_555 1_555
H33_2 C45_2 1_555 1_555
H34_2 C45_2 1_555 1_555
H35_2 C45_2 1_555 1_555
C47_2 C10_2 1_555 1_555
H37_2 C47_2 1_555 1_555
C48_2 C19_2 1_555 1_555
H38_2 C48_2 1_555 1_555
H39_2 C48_2 1_555 1_555
H40_2 C48_2 1_555 1_555
C49_2 N9_2 1_555 1_555
H42_2 C49_2 1_555 1_555
H43_2 C49_2 1_555 1_555
C50_2 N9_2 1_555 1_555
H44_2 C50_2 1_555 1_555
H45_2 C50_2 1_555 1_555
H46_2 C50_2 1_555 1_555
Dy4_2 O3_2 1_555 1_555
Cu5 N3_2 1_555 1_555
N10_2 Cu7 1_555 1_555
I2_2 Cu4_2 1_555 1_555
I3_2 Cu4_2 1_555 1_555
O5_2 C8_2 1_555 1_555
N5_2 C38_2 1_555 1_555
C12_2 C23_2 1_555 1_555
C16_2 N8_2 1_555 1_555
C17_2 C22_2 1_555 1_555
C30_2 C39_2 1_555 1_555
C44_2 C47_2 1_555 1_555
C4_2 C28_2 1_555 1_555
O20 C36_2 1_555 1_555
O13_2 Dy3 1_555 1_555
N14 C14_2 1_555 1_555
C28_2 H14_2 1_555 1_555
C32_2 C4_2 1_555 1_555
H18_2 C32_2 1_555 1_555
C33_2 N14 1_555 1_555
H19_2 C33_2 1_555 1_555
C36_2 C4_2 1_555 1_555
O17_2 Dy3 1_555 1_555
O13_2 C36_2 1_555 1_555
C14_2 C32_2 1_555 1_555
C28_2 C33_2 1_555 1_555
N1_2 C6_2 1_555 1_555
C6_2 H4_2 1_555 1_555
O19 C9_2 1_555 1_555
C9_2 O11_2 1_555 1_555
C18_2 C9_2 1_555 1_555
C21_2 C18_2 1_555 1_555
H9_2 C21_2 1_555 1_555
C29_2 N1_2 1_555 1_555
H15_2 C29_2 1_555 1_555
C37_2 C6_2 1_555 1_555
H21_2 C37_2 1_555 1_555
Cu8_2 N1_2 1_555 1_555
N11_2 Cu1_2 1_555 1_555
N12_2 Cu1_2 1_555 1_555
C18_2 C37_2 1_555 1_555
C21_2 C29_2 1_555 1_555
C4_3 C28_3 1_555 1_555
N10_2 C6_3 1_555 1_555
C6_3 H4_3 1_555 1_555
O9_2 C9_3 1_555 1_555
C9_3 O11_3 1_555 1_555
O10_2 C36_3 1_555 1_555
N6_2 C14_3 1_555 1_555
C18_3 C9_3 1_555 1_555
C21_3 C18_3 1_555 1_555
H9_3 C21_3 1_555 1_555
C28_3 H14_3 1_555 1_555
C29_3 N10_2 1_555 1_555
H15_3 C29_3 1_555 1_555
C32_3 C4_3 1_555 1_555
H18_3 C32_3 1_555 1_555
C33_3 N6_2 1_555 1_555
H19_3 C33_3 1_555 1_555
C36_3 C4_3 1_555 1_555
C37_3 C6_3 1_555 1_555
H21_3 C37_3 1_555 1_555
C14_3 C32_3 1_555 1_555
C18_3 C37_3 1_555 1_555
C21_3 C29_3 1_555 1_555
C28_3 C33_3 1_555 1_555
O13_3 Dy4 1_555 1_555
O21_2 Dy4 1_555 1_555
O2_3 C11_3 1_555 1_555
N12_2 C34_3 1_555 1_555
N4_2 C42_3 1_555 1_555
C11_3 O6_3 1_555 1_555
C13_3 C11_3 1_555 1_555
C25_3 C13_3 1_555 1_555
H12_3 C25_3 1_555 1_555
C26_3 C13_3 1_555 1_555
C31_3 C10_3 1_555 1_555
H17_3 C31_3 1_555 1_555
C34_3 C31_3 1_555 1_555
H20_3 C34_3 1_555 1_555
C42_3 C26_3 1_555 1_555
H30_3 C42_3 1_555 1_555
C43_3 N4_2 1_555 1_555
H31_3 C43_3 1_555 1_555
C44_3 N12_2 1_555 1_555
H32_3 C44_3 1_555 1_555
Cu8 N4_2 1_555 1_555
C25_3 C43_3 1_555 1_555
I1_3 Cu3_2 1_555 1_555
I3_3 Cu8_2 1_555 1_555
Cu8_2 I2_3 1_555 1_555
Cu3_2 I3_3 1_555 1_555
Cu4_3 I1_3 1_555 1_555
O1_3 C19_3 1_555 1_555
C2_3 H2_3 1_555 1_555
O17 C15_3 1_555 1_555
C3_3 C24_3 1_555 1_555
O5_3 Dy6 1_555 1_555
C5_3 H3_3 1_555 1_555
O18 C15_3 1_555 1_555
N11 C2_3 1_555 1_555
C7_3 C1_3 1_555 1_555
C8_3 O4_3 1_555 1_555
O12_3 Dy6 1_555 1_555
N5_3 Cu4_3 1_555 1_555
C12_3 O14_3 1_555 1_555
O14_3 Dy6 1_555 1_555
C15_3 C7_3 1_555 1_555
C16_3 C5_3 1_555 1_555
H6_3 C16_3 1_555 1_555
O21_2 C12_3 1_555 1_555
C17_3 C7_3 1_555 1_555
H7_3 C17_3 1_555 1_555
C19_3 N7_3 1_555 1_555
C20_3 N11 1_555 1_555
H8_3 C20_3 1_555 1_555
C22_3 N5_3 1_555 1_555
H10_3 C22_3 1_555 1_555
N7_3 C40_3 1_555 1_555
C23_3 C5_3 1_555 1_555
N8_3 Cu3_2 1_555 1_555
C24_3 C20_3 1_555 1_555
H11_3 C24_3 1_555 1_555
C27_3 O16_3 1_555 1_555
C30_3 C23_3 1_555 1_555
H16_3 C30_3 1_555 1_555
C35_3 C3_3 1_555 1_555
N9_3 C27_3 1_555 1_555
C38_3 C1_3 1_555 1_555
H22_3 C38_3 1_555 1_555
C39_3 N8_3 1_555 1_555
H23_3 C39_3 1_555 1_555
C40_3 H24_3 1_555 1_555
H25_3 C40_3 1_555 1_555
H26_3 C40_3 1_555 1_555
C41_3 C27_3 1_555 1_555
H27_3 C41_3 1_555 1_555
H28_3 C41_3 1_555 1_555
H29_3 C41_3 1_555 1_555
C45_3 N7_3 1_555 1_555
H33_3 C45_3 1_555 1_555
H34_3 C45_3 1_555 1_555
H35_3 C45_3 1_555 1_555
C46_3 C2_3 1_555 1_555
H36_3 C46_3 1_555 1_555
H37_3 C47_3 1_555 1_555
C48_3 C19_3 1_555 1_555
H38_3 C48_3 1_555 1_555
H39_3 C48_3 1_555 1_555
H40_3 C48_3 1_555 1_555
C49_3 N9_3 1_555 1_555
H41 C49_3 1_555 1_555
H42_3 C49_3 1_555 1_555
H43_3 C49_3 1_555 1_555
C50_3 N9_3 1_555 1_555
H44_3 C50_3 1_555 1_555
H45_3 C50_3 1_555 1_555
H46_3 C50_3 1_555 1_555
N13_2 Cu8_2 1_555 1_555
N14_2 Cu3_2 1_555 1_555
I2_3 Cu4_3 1_555 1_555
I3_3 Cu4_3 1_555 1_555
C3_3 C46_3 1_555 1_555
O5_3 C8_3 1_555 1_555
O7_3 C35_3 1_555 1_555
O12_3 C35_3 1_555 1_555
N5_3 C38_3 1_555 1_555
C12_3 C23_3 1_555 1_555
C16_3 N8_3 1_555 1_555
C17_3 C22_3 1_555 1_555
C30_3 C39_3 1_555 1_555
C12_4 O14_4 1_555 1_555
O15_2 C12_4 1_555 1_555
C23_4 C5_4 1_555 1_555
C30_4 C23_4 1_555 1_555
H16_4 C30_4 1_555 1_555
C39_4 N8_4 1_555 1_555
H23_4 C39_4 1_555 1_555
H44_4 C50_4 1_555 1_555
H45_4 C50_4 1_555 1_555
H46_4 C50_4 1_555 1_555
C12_4 C23_4 1_555 1_555
C30_4 C39_4 1_555 1_555
I1_4 Cu9_2 1_555 1_555
I2_4 Cu6 1_555 1_555
Cu6 O16_4 1_555 1_555
Cu8 I2_4 1_555 1_555
Cu4_4 I1_4 1_555 1_555
C1_4 H1_4 1_555 1_555
O17_2 C15_4 1_555 1_555
O18_2 C15_4 1_555 1_555
C7_4 C1_4 1_555 1_555
C8_4 O4_4 1_555 1_555
N5_4 Cu4_4 1_555 1_555
C15_4 C7_4 1_555 1_555
H6_4 C16_4 1_555 1_555
C17_4 C7_4 1_555 1_555
H7_4 C17_4 1_555 1_555
C19_4 N7_4 1_555 1_555
C22_4 N5_4 1_555 1_555
H10_4 C22_4 1_555 1_555
C27_4 O16_4 1_555 1_555
N9_4 C27_4 1_555 1_555
C38_4 C1_4 1_555 1_555
H22_4 C38_4 1_555 1_555
C41_4 C27_4 1_555 1_555
H27_4 C41_4 1_555 1_555
H28_4 C41_4 1_555 1_555
H29_4 C41_4 1_555 1_555
C45_4 N7_4 1_555 1_555
H33_4 C45_4 1_555 1_555
H34_4 C45_4 1_555 1_555
H35_4 C45_4 1_555 1_555
H37_4 C47_4 1_555 1_555
C48_4 C19_4 1_555 1_555
H38_4 C48_4 1_555 1_555
H39_4 C48_4 1_555 1_555
H40_4 C48_4 1_555 1_555
C49_4 N9_4 1_555 1_555
H41_2 C49_4 1_555 1_555
H42_4 C49_4 1_555 1_555
H43_4 C49_4 1_555 1_555
I2_4 Cu4_4 1_555 1_555
O5_4 C8_4 1_555 1_555
N5_4 C38_4 1_555 1_555
C17_4 C22_4 1_555 1_555
Dy4_2 O1_4 1_555 1_555
C2_4 H2_4 1_555 1_555
C3_4 C24_4 1_555 1_555
O7_4 Dy4_2 1_555 1_555
N11_2 C2_4 1_555 1_555
O12_4 Dy6_2 1_555 1_555
O13_4 Dy4_2 1_555 1_555
C20_4 N11_2 1_555 1_555
H8_4 C20_4 1_555 1_555
C24_4 C20_4 1_555 1_555
H11_4 C24_4 1_555 1_555
C35_4 C3_4 1_555 1_555
C40_4 H24_4 1_555 1_555
H25_4 C40_4 1_555 1_555
H26_4 C40_4 1_555 1_555
C46_4 C2_4 1_555 1_555
H36_4 C46_4 1_555 1_555
C3_4 C46_4 1_555 1_555
O7_4 C35_4 1_555 1_555
O12_4 C35_4 1_555 1_555
N10 C6_4 1_555 1_555
C6_4 H4_4 1_555 1_555
N12 C34_4 1_555 1_555
O19_2 C9_4 1_555 1_555
C9_4 O11_4 1_555 1_555
C18_4 C9_4 1_555 1_555
C21_4 C18_4 1_555 1_555
H9_4 C21_4 1_555 1_555
C29_4 N10 1_555 1_555
H15_4 C29_4 1_555 1_555
C31_4 C10_4 1_555 1_555
H17_4 C31_4 1_555 1_555
C34_4 C31_4 1_555 1_555
H20_4 C34_4 1_555 1_555
C37_4 C6_4 1_555 1_555
H21_4 C37_4 1_555 1_555
C44_4 N12 1_555 1_555
H32_4 C44_4 1_555 1_555
C18_4 C37_4 1_555 1_555
C21_4 C29_4 1_555 1_555
O2_4 C11_4 1_555 1_555
C4_4 C28_4 1_555 1_555
N13_2 C42_4 1_555 1_555
C11_4 O6_4 1_555 1_555
O20_2 C36_4 1_555 1_555
N14_2 C14_4 1_555 1_555
C13_4 C11_4 1_555 1_555
C14_4 H5_4 1_555 1_555
C25_4 C13_4 1_555 1_555
H12_4 C25_4 1_555 1_555
C26_4 C13_4 1_555 1_555
H13_4 C26_4 1_555 1_555
C28_4 H14_4 1_555 1_555
C32_4 C4_4 1_555 1_555
H18_4 C32_4 1_555 1_555
C33_4 N14_2 1_555 1_555
H19_4 C33_4 1_555 1_555
C36_4 C4_4 1_555 1_555
C42_4 C26_4 1_555 1_555
H30_4 C42_4 1_555 1_555
C43_4 N13_2 1_555 1_555
H31_4 C43_4 1_555 1_555
C14_4 C32_4 1_555 1_555
C25_4 C43_4 1_555 1_555
C28_4 C33_4 1_555 1_555

#END
