
###############################################################################
#
# This file contains modified crystal structure data generated from the
# MOF subset of the Cambridge Structural Database (CSD) v543 
# hosted by the Cambridge Crystallographic Data Centre (CCDC).
#
# This work is licensed under the Creative Commons
# Attribution-NonCommercial-ShareAlike 4.0 International License.
# To view a copy of this license, visit
# http://creativecommons.org/licenses/by-nc-sa/4.0/
# or send a letter to
# Creative Commons, PO Box 1866, Mountain View, CA 94042, USA.
#
# CIF created using the CSD Python API on 29 September 2022
# The structure has been converted into the P1 space group
# The structure has a 3D framework
# The original CSD entry TEBMEV is in the orthorhombic crystal system
# The original CSD entry TEBMEV is in a Sohncke space group
# The framework has been calculated to contain at least 10.0% void space
# The void calculation uses a probe of radius 1.32A, grid spacing 0.4
#
###############################################################################

data_TEBMEV
_chemical_formula_moiety         '(C200 H184 Cu16 Ho6 I12 N36 O64)n'
_symmetry_cell_setting           triclinic
_symmetry_space_group_name_H-M   'P 1'
_symmetry_Int_Tables_number      1
_space_group_name_Hall           'P 1'
loop_
_symmetry_equiv_pos_site_id
_symmetry_equiv_pos_as_xyz
1 x,y,z
_cell_length_a                   9.264(3)
_cell_length_b                   23.203(8)
_cell_length_c                   30.606(11)
_cell_angle_alpha                90
_cell_angle_beta                 90
_cell_angle_gamma                90
_cell_volume                     6578.84
loop_
_atom_site_label
_atom_site_type_symbol
_atom_site_fract_x
_atom_site_fract_y
_atom_site_fract_z
Ho1 Ho 0.04230(5) 0.43933(2) 0.484459(16)
O12 O 0.4211(9) 0.5105(4) 0.4133(3)
C5 C 0.2880(14) 0.3996(6) 0.5563(4)
O13 O 0.2027(10) 0.4813(4) 0.4336(3)
C7 C 0.0220(14) 0.5597(6) 0.3237(4)
N4 N 0.0955(13) 0.5944(5) 0.2973(4)
C9 C 0.5216(17) 0.3815(6) 0.6562(4)
H3 H 0.6164 0.3896 0.6640
O14 O 0.1517(10) 0.3987(4) 0.5490(3)
O15 O 0.3811(10) 0.4134(4) 0.5297(3)
C17 C 0.3364(13) 0.3830(5) 0.6020(4)
H9 H 0.0041 0.6317 0.4334
C23 C 0.2403(16) 0.5987(7) 0.3069(4)
H11 H 0.2977 0.6222 0.2895
C24 C 0.0748(14) 0.5305(6) 0.3584(5)
H12 H 0.0155 0.5072 0.3754
N7 N 0.4345(13) 0.3597(5) 0.6867(4)
C25 C 0.2239(14) 0.5365(6) 0.3680(4)
C31 C 0.2437(16) 0.3597(7) 0.6336(5)
H18 H 0.1479 0.3515 0.6270
C32 C 0.3027(18) 0.5706(8) 0.3403(5)
H19 H 0.4015 0.5743 0.3448
C35 C 0.4803(14) 0.3930(6) 0.6136(4)
H22 H 0.5463 0.4069 0.5933
C36 C 0.2841(14) 0.5062(5) 0.4081(4)
C42 C 0.2971(18) 0.3494(7) 0.6742(4)
H33 H 0.2344 0.3341 0.6949
Ho7 Ho 0.51186(5) 0.46506(2) 0.478292(15)
Cu5 Cu 0.5060(2) 0.35667(7) 0.75081(5)
O17 O 0.1461(9) 0.5163(4) 0.5232(3)
O19 O 0.1907(9) 0.3673(4) 0.4561(3)
O22 O 0.1249(9) 0.4642(4) 0.0071(3)
O25 O 0.1189(10) 0.5866(4) 0.0297(3)
O18 O 0.0755(9) 0.6146(4) 0.9387(3)
O24 O 0.0789(9) 0.4895(4) 0.9133(3)
I1 I 0.28955(10) 0.10812(4) 0.25104(3)
I2 I 0.47835(10) 0.27022(4) 0.21417(3)
Cu1 Cu 0.5446(2) 0.38069(8) 0.22234(5)
Cu2 Cu 0.0060(2) 0.14333(7) 0.24919(5)
Cu3 Cu 0.2202(2) 0.26513(7) 0.17594(5)
Cu4 Cu 0.2443(2) 0.21799(8) 0.25706(5)
O1 O 0.3539(9) 0.4837(4) 0.0232(3)
O2 O 0.9161(9) 0.5258(4) 0.4600(3)
O3 O 0.4245(9) 0.3854(4) 0.4387(3)
O5 O 0.9313(9) 0.4138(4) 0.4165(3)
O6 O 0.9253(10) 0.3476(4) 0.4957(3)
O7 O 0.8601(10) 0.5259(5) 0.0441(3)
O8 O 0.6293(10) 0.5468(4) 0.0376(3)
O9 O 0.6768(10) 0.5376(4) 0.4690(4)
N1 N 0.2639(12) 0.2555(5) 0.3178(3)
C1 C 0.3037(13) 0.3620(5) 0.4333(4)
O11 O 0.7069(9) 0.4263(4) 0.4418(3)
N2 N 0.6288(12) 0.3930(5) 0.2819(3)
C2 C 0.2381(13) 0.4568(5) 0.0274(4)
C3 C 0.7300(13) 0.5221(5) 0.0552(4)
C4 C 0.1567(13) 0.3049(5) 0.3798(4)
H1 H 0.0749 0.3146 0.3958
C6 C 0.8005(12) 0.6021(5) 0.4231(4)
H2 H 0.9243 0.5551 0.3177
C8 C 0.2324(14) 0.4125(6) 0.0643(4)
N3 N 0.7920(12) 0.6948(5) 0.3651(4)
C10 C 0.7383(13) 0.4093(6) 0.3659(4)
N5 N 0.2204(12) 0.3308(5) 0.1328(4)
C11 C 0.6963(13) 0.4878(5) 0.0957(4)
C12 C 0.8252(15) 0.3260(5) 0.5182(5)
C13 C 0.2926(13) 0.3237(5) 0.3923(4)
N6 N 0.7193(14) 0.2947(5) 0.5007(5)
C14 C 0.6776(14) 0.6132(6) 0.3984(5)
H4 H 0.5955 0.5904 0.4014
C15 C 0.1034(15) 0.3862(6) 0.0744(5)
H5 H 0.0195 0.3950 0.0591
C16 C 0.1469(13) 0.2702(6) 0.3415(4)
H6 H 0.0567 0.2572 0.3325
C18 C 0.7818(16) 0.3625(6) 0.3396(4)
H7 H 0.8494 0.3364 0.3501
C19 C 0.7254(15) 0.3554(6) 0.2987(4)
H8 H 0.7542 0.3240 0.2820
C20 C 0.216(2) 0.4304(7) 0.2419(6)
C21 C 0.9197(16) 0.6374(7) 0.4175(6)
C22 C 0.3443(16) 0.3565(6) 0.1189(5)
H10 H 0.4283 0.3462 0.1336
C26 C 0.3904(15) 0.2733(6) 0.3318(5)
H13 H 0.4718 0.2625 0.3160
C27 C 0.7391(15) 0.4321(6) 0.1025(5)
H14 H 0.7974 0.4143 0.0818
C28 C 0.6985(15) 0.4013(7) 0.1394(5)
H15 H 0.7275 0.3631 0.1422
C29 C 0.1023(16) 0.3456(6) 0.1087(5)
H16 H 0.0151 0.3277 0.1153
C30 C 0.3593(15) 0.3957(6) 0.0857(5)
H17 H 0.4490 0.4104 0.0779
C33 C 0.5909(16) 0.4373(7) 0.3069(5)
H20 H 0.5247 0.4634 0.2955
C34 C 0.4103(15) 0.3074(6) 0.3688(4)
H21 H 0.5024 0.3188 0.3772
C37 C 0.725(2) 0.2823(7) 0.4528(6)
H23 H 0.6576 0.3064 0.4378
H24 H 0.7017 0.2425 0.4478
H25 H 0.8210 0.2898 0.4422
N8 N 0.6187(14) 0.4253(5) 0.1710(3)
O16 O 0.3465(14) 0.4363(6) 0.2292(4)
N9 N 0.1125(16) 0.4523(6) 0.2182(6)
C38 C 0.7989(12) 0.5507(5) 0.4535(4)
C39 C 0.5918(18) 0.2762(8) 0.5232(9)
H26 H 0.5924 0.2349 0.5257
H27 H 0.5079 0.2881 0.5071
H28 H 0.5896 0.2930 0.5518
C40 C 0.191(2) 0.3953(8) 0.2830(7)
H29 H 0.1412 0.3603 0.2757
H30 H 0.1333 0.4172 0.3032
H31 H 0.2819 0.3861 0.2963
C41 C 0.579(2) 0.4794(7) 0.1640(5)
H32 H 0.5234 0.4967 0.1855
C43 C 0.7935(16) 0.4156(6) 0.4126(4)
C44 C 0.6801(15) 0.6588(6) 0.3696(5)
H34 H 0.5993 0.6649 0.3521
C45 C 0.9081(16) 0.6810(7) 0.3876(5)
H35 H 0.9902 0.7031 0.3828
C46 C 0.6407(17) 0.4474(6) 0.3474(5)
H36 H 0.6100 0.4797 0.3629
C47 C 0.612(2) 0.5124(7) 0.1283(6)
H37 H 0.5792 0.5501 0.1260
C48 C 0.830(2) 0.3329(7) 0.5681(5)
H38 H 0.8405 0.2958 0.5815
H39 H 0.7417 0.3504 0.5780
H40 H 0.9100 0.3569 0.5761
C49 C 0.157(3) 0.4857(12) 0.1802(9)
H41 H 0.1601 0.5258 0.1877
H42 H 0.0892 0.4799 0.1569
H43 H 0.2511 0.4733 0.1710
Cu6 Cu 0.9940(2) 0.64333(7) 0.25081(5)
Cu7 Cu 0.7798(2) 0.76513(7) 0.32406(5)
O20 O 0.8707(10) 0.4532(4) 0.5376(3)
N10 N 0.2080(12) 0.1948(5) 0.1349(4)
Ho2 Ho 0.98814(5) 0.53494(2) 0.978292(15)
Ho4 Ho 0.45770(5) 0.56067(2) 0.984459(16)
O21 O 0.8232(10) 0.4624(4) 0.9690(4)
O23 O 0.7931(9) 0.5737(4) 0.9418(3)
I3 I 0.98689(10) 0.25548(4) 0.22428(3)
C50 C 0.962(3) 0.4482(10) 0.2355(9)
H44 H 0.9635 0.4294 0.2634
H45 H 0.9038 0.4263 0.2156
H46 H 0.9224 0.4861 0.2386
N11 N 0.9045(13) 0.0944(5) 0.2027(4)
N12 N 0.9345(13) 0.1403(5) 0.3133(4)
I1_2 I 0.21045(10) 0.89188(4) 0.75104(3)
I2_2 I 0.02165(10) 0.72978(4) 0.71417(3)
I3_2 I 0.51311(10) 0.74452(4) 0.72428(3)
Cu2_2 Cu 0.4940(2) 0.85667(7) 0.74919(5)
Cu3_2 Cu 0.2798(2) 0.73487(7) 0.67594(5)
Cu4_2 Cu 0.2557(2) 0.78201(8) 0.75706(5)
O4 O 0.3093(9) 0.6327(4) 0.9561(3)
O10 O 0.3751(9) 0.5358(4) 0.5071(3)
N1_2 N 0.2361(12) 0.7445(5) 0.8178(3)
C1_2 C 0.1963(13) 0.6380(5) 0.9333(4)
C2_2 C 0.2619(13) 0.5432(5) 0.5274(4)
C4_2 C 0.3433(13) 0.6951(5) 0.8798(4)
H1_2 H 0.4251 0.6854 0.8958
C8_2 C 0.2676(14) 0.5875(6) 0.5643(4)
N5_2 N 0.2796(12) 0.6692(5) 0.6328(4)
C13_2 C 0.2074(13) 0.6763(5) 0.8923(4)
C15_2 C 0.3966(15) 0.6138(6) 0.5744(5)
H5_2 H 0.4805 0.6050 0.5591
C16_2 C 0.3531(13) 0.7298(6) 0.8415(4)
H6_2 H 0.4433 0.7428 0.8325
C20_2 C 0.284(2) 0.5696(7) 0.7419(6)
C22_2 C 0.1557(16) 0.6435(6) 0.6189(5)
H10_2 H 0.0717 0.6538 0.6336
C26_2 C 0.1096(15) 0.7267(6) 0.8318(5)
H13_2 H 0.0282 0.7375 0.8160
C29_2 C 0.3977(16) 0.6544(6) 0.6087(5)
H16_2 H 0.4849 0.6723 0.6153
C30_2 C 0.1407(15) 0.6043(6) 0.5857(5)
H17_2 H 0.0510 0.5896 0.5779
C34_2 C 0.0897(15) 0.6926(6) 0.8688(4)
O16_2 O 0.1535(14) 0.5637(6) 0.7292(4)
N9_2 N 0.3875(16) 0.5477(6) 0.7182(6)
C40_2 C 0.309(2) 0.6047(8) 0.7830(7)
H29_2 H 0.3588 0.6397 0.7757
H30_2 H 0.3667 0.5828 0.8032
H31_2 H 0.2181 0.6139 0.7963
C49_2 C 0.343(3) 0.5143(12) 0.6802(9)
H41_2 H 0.3399 0.4742 0.6877
H42_2 H 0.4108 0.5201 0.6569
H43_2 H 0.2489 0.5267 0.6710
C50_2 C 0.538(3) 0.5518(10) 0.7355(9)
H44_2 H 0.5365 0.5706 0.7634
H45_2 H 0.5962 0.5737 0.7156
H46_2 H 0.5776 0.5139 0.7386
N10_2 N 0.2920(12) 0.8052(5) 0.6349(4)
N11_2 N 0.5955(13) 0.9056(5) 0.7027(4)
N12_2 N 0.5655(13) 0.8597(5) 0.8133(4)
C5_2 C 0.2120(14) 0.6004(6) 0.0563(4)
O14_2 O 0.3483(10) 0.6013(4) 0.0490(3)
C12_2 C 0.6748(15) 0.6740(5) 0.0182(5)
N6_2 N 0.7807(14) 0.7053(5) 0.0007(5)
C17_2 C 0.1636(13) 0.6170(5) 0.1020(4)
N7_2 N 0.0655(13) 0.6403(5) 0.1867(4)
C31_2 C 0.2563(16) 0.6403(7) 0.1336(5)
H18_2 H 0.3521 0.6485 0.1270
C35_2 C 0.0197(14) 0.6070(6) 0.1136(4)
C39_2 C 0.9082(18) 0.7238(8) 0.0232(9)
H26_2 H 0.9076 0.7651 0.0257
H27_2 H 0.9921 0.7119 0.0071
H28_2 H 0.9104 0.7070 0.0518
C42_2 C 0.2029(18) 0.6506(7) 0.1742(4)
H33_2 H 0.2656 0.6659 0.1949
C48_2 C 0.670(2) 0.6671(7) 0.0681(5)
H38_2 H 0.6595 0.7042 0.0815
H39_2 H 0.7583 0.6496 0.0780
H40_2 H 0.5900 0.6431 0.0761
Cu1_2 Cu 0.9554(2) 0.61931(8) 0.72234(5)
O2_2 O 0.5839(9) 0.4742(4) 0.9600(3)
O5_2 O 0.5687(9) 0.5862(4) 0.9165(3)
O6_2 O 0.5747(10) 0.6524(4) 0.9957(3)
O7_2 O 0.6399(10) 0.4741(5) 0.5441(3)
N2_2 N 0.8712(12) 0.6070(5) 0.7819(3)
C3_2 C 0.7700(13) 0.4779(5) 0.5552(4)
C6_2 C 0.6995(12) 0.3979(5) 0.9231(4)
O13_2 O 0.2973(10) 0.5187(4) 0.9336(3)
C7_2 C 0.4780(14) 0.4403(6) 0.8237(4)
H2_2 H 0.5757 0.4449 0.8177
N3_2 N 0.7080(12) 0.3052(5) 0.8651(4)
N4_2 N 0.4045(13) 0.4056(5) 0.7973(4)
C10_2 C 0.7617(13) 0.5907(6) 0.8659(4)
C11_2 C 0.8037(13) 0.5122(5) 0.5957(4)
C14_2 C 0.8224(14) 0.3868(6) 0.8984(5)
H4_2 H 0.9045 0.4096 0.9014
C18_2 C 0.7182(16) 0.6375(6) 0.8396(4)
H7_2 H 0.6506 0.6636 0.8501
C19_2 C 0.7746(15) 0.6446(6) 0.7987(4)
H8_2 H 0.7458 0.6760 0.7820
C21_2 C 0.5803(16) 0.3626(7) 0.9175(6)
H9_2 H 0.4959 0.3683 0.9334
C23_2 C 0.2597(16) 0.4013(7) 0.8069(4)
H11_2 H 0.2023 0.3778 0.7895
C24_2 C 0.4252(14) 0.4695(6) 0.8584(5)
H12_2 H 0.4845 0.4928 0.8754
C25_2 C 0.2761(14) 0.4635(6) 0.8680(4)
C27_2 C 0.7609(15) 0.5679(6) 0.6025(5)
H14_2 H 0.7026 0.5857 0.5818
C28_2 C 0.8015(15) 0.5987(7) 0.6394(5)
H15_2 H 0.7725 0.6369 0.6422
C32_2 C 0.1973(18) 0.4294(8) 0.8403(5)
H19_2 H 0.0985 0.4257 0.8448
C33_2 C 0.9091(16) 0.5627(7) 0.8069(5)
H20_2 H 0.9753 0.5366 0.7955
H21_2 H 0.9976 0.6812 0.8772
C36_2 C 0.2159(14) 0.4938(5) 0.9081(4)
C37_2 C 0.775(2) 0.7177(7) 0.9528(6)
H23_2 H 0.8424 0.6936 0.9378
H24_2 H 0.7983 0.7575 0.9478
H25_2 H 0.6790 0.7102 0.9422
N8_2 N 0.8813(14) 0.5747(5) 0.6710(3)
C38_2 C 0.7011(12) 0.4493(5) 0.9535(4)
C41_2 C 0.921(2) 0.5206(7) 0.6640(5)
H32_2 H 0.9766 0.5033 0.6855
C43_2 C 0.7065(16) 0.5844(6) 0.9126(4)
C44_2 C 0.8199(15) 0.3412(6) 0.8696(5)
H34_2 H 0.9007 0.3351 0.8521
C45_2 C 0.5919(16) 0.3190(7) 0.8876(5)
H35_2 H 0.5098 0.2969 0.8828
C46_2 C 0.8593(17) 0.5526(6) 0.8474(5)
H36_2 H 0.8900 0.5203 0.8629
C47_2 C 0.888(2) 0.4876(7) 0.6283(6)
H37_2 H 0.9208 0.4499 0.6260
Cu7_2 Cu 0.7202(2) 0.23487(7) 0.82406(5)
C9_2 C 0.9784(17) 0.6185(6) 0.1562(4)
H3_2 H 0.8836 0.6104 0.1640
H22_2 H 0.9537 0.5931 0.0933
C9_3 C 0.0216(17) 0.1185(6) 0.3438(4)
H3_3 H 0.1164 0.1104 0.3360
H22_3 H 0.0463 0.0931 0.4067
Ho7_2 Ho 0.01186(5) 0.03494(2) 0.521708(15)
O21_2 O 0.3232(10) 0.0376(4) 0.0310(4)
O24_2 O 0.5789(9) 0.0105(4) 0.0867(3)
Ho1_2 Ho 0.54230(5) 0.06067(2) 0.515541(16)
Cu1_3 Cu 0.0446(2) 0.11931(8) 0.77766(5)
O5_3 O 0.4313(9) 0.0862(4) 0.5835(3)
O6_3 O 0.4253(10) 0.1524(4) 0.5043(3)
O11_2 O 0.2069(9) 0.0737(4) 0.5582(3)
N2_3 N 0.1288(12) 0.1070(5) 0.7181(3)
C5_3 C 0.7880(14) 0.1004(6) 0.4437(4)
O13_3 O 0.7027(10) 0.0187(4) 0.5664(3)
O14_3 O 0.6517(10) 0.1013(4) 0.4510(3)
C10_3 C 0.2383(13) 0.0907(6) 0.6341(4)
C11_3 C 0.1963(13) 0.0122(5) 0.9043(4)
C12_3 C 0.3252(15) 0.1740(5) 0.4818(5)
O15_2 O 0.8811(10) 0.0866(4) 0.4703(3)
N6_3 N 0.2193(14) 0.2053(5) 0.4993(5)
C17_3 C 0.8364(13) 0.1170(5) 0.3980(4)
C18_3 C 0.2818(16) 0.1375(6) 0.6604(4)
H7_3 H 0.3494 0.1636 0.6499
C19_3 C 0.2254(15) 0.1446(6) 0.7013(4)
H8_3 H 0.2542 0.1760 0.7180
C27_3 C 0.2391(15) 0.0679(6) 0.8975(5)
H14_3 H 0.2974 0.0857 0.9182
C28_3 C 0.1985(15) 0.0987(7) 0.8606(5)
H15_3 H 0.2275 0.1369 0.8578
C31_3 C 0.7437(16) 0.1403(7) 0.3664(5)
H18_3 H 0.6479 0.1485 0.3730
C33_3 C 0.0909(16) 0.0627(7) 0.6931(5)
H20_3 H 0.0247 0.0366 0.7045
H21_3 H 0.0024 0.1812 0.6228
C35_3 C 0.9803(14) 0.1070(6) 0.3864(4)
C37_3 C 0.225(2) 0.2177(7) 0.5472(6)
H23_3 H 0.1576 0.1936 0.5622
H24_3 H 0.2017 0.2575 0.5522
H25_3 H 0.3210 0.2102 0.5578
N8_3 N 0.1187(14) 0.0747(5) 0.8290(3)
C39_3 C 0.0918(18) 0.2238(8) 0.4768(9)
H26_3 H 0.0924 0.2651 0.4743
H27_3 H 0.0079 0.2119 0.4929
H28_3 H 0.0896 0.2070 0.4482
C41_3 C 0.079(2) 0.0206(7) 0.8360(5)
H32_3 H 0.0234 0.0033 0.8145
C42_3 C 0.7971(18) 0.1506(7) 0.3258(4)
H33_3 H 0.7344 0.1659 0.3051
C43_3 C 0.2935(16) 0.0844(6) 0.5874(4)
C46_3 C 0.1407(17) 0.0526(6) 0.6526(5)
H36_3 H 0.1100 0.0203 0.6371
C48_3 C 0.330(2) 0.1671(7) 0.4319(5)
H38_3 H 0.3405 0.2042 0.4185
H39_3 H 0.2417 0.1496 0.4220
H40_3 H 0.4100 0.1431 0.4239
O19_2 O 0.6907(9) 0.1327(4) 0.5439(3)
O20_2 O 0.3707(10) 0.0468(4) 0.4624(3)
O22_2 O 0.6249(9) 0.0358(4) 0.9929(3)
Ho2_2 Ho 0.48814(5) 0.96506(2) 0.021708(15)
O18_2 O 0.5755(9) 0.8854(4) 0.0613(3)
O23_2 O 0.2931(9) 0.9263(4) 0.0582(3)
O2_3 O 0.4161(9) 0.9742(4) 0.5400(3)
O7_3 O 0.3601(10) 0.9741(5) 0.9559(3)
O8_2 O 0.1293(10) 0.9532(4) 0.9624(3)
O9_2 O 0.1768(10) 0.9624(4) 0.5310(4)
C3_3 C 0.2300(13) 0.9779(5) 0.9448(4)
O12_2 O 0.9211(9) 0.9895(4) 0.5867(3)
C6_3 C 0.3005(12) 0.8979(5) 0.5769(4)
C7_3 C 0.5220(14) 0.9403(6) 0.6763(4)
H2_3 H 0.4243 0.9449 0.6823
C14_3 C 0.1776(14) 0.8868(6) 0.6016(5)
H4_3 H 0.0955 0.9096 0.5986
C21_3 C 0.4197(16) 0.8626(7) 0.5825(6)
H9_3 H 0.5041 0.8683 0.5666
C23_3 C 0.7403(16) 0.9013(7) 0.6931(4)
H11_3 H 0.7977 0.8778 0.7105
C24_3 C 0.5748(14) 0.9695(6) 0.6416(5)
H12_3 H 0.5155 0.9928 0.6246
C25_3 C 0.7239(14) 0.9635(6) 0.6320(4)
C32_3 C 0.8027(18) 0.9294(8) 0.6597(5)
H19_3 H 0.9015 0.9257 0.6552
C36_3 C 0.7841(14) 0.9938(5) 0.5919(4)
C38_3 C 0.2989(12) 0.9493(5) 0.5465(4)
C44_3 C 0.1801(15) 0.8412(6) 0.6304(5)
H34_3 H 0.0993 0.8351 0.6479
C45_3 C 0.4081(16) 0.8190(7) 0.6124(5)
H35_3 H 0.4902 0.7969 0.6172
C47_3 C 0.112(2) 0.9876(7) 0.8717(6)
H37_3 H 0.0792 0.9499 0.8740
O17_2 O 0.6461(9) 0.9837(4) 0.4768(3)
O25_2 O 0.6189(10) 0.9134(4) 0.9703(3)
I1_3 I 0.78955(10) 0.39188(4) 0.74896(3)
I2_3 I 0.97835(10) 0.22978(4) 0.78583(3)
I3_3 I 0.48689(10) 0.24452(4) 0.77572(3)
Cu4_3 Cu 0.7443(2) 0.28201(8) 0.74294(5)
O1_2 O 0.8539(9) 0.0163(4) 0.9768(3)
O3_2 O 0.9245(9) 0.1146(4) 0.5613(3)
N1_3 N 0.7639(12) 0.2445(5) 0.6822(3)
C1_3 C 0.8037(13) 0.1380(5) 0.5667(4)
C2_3 C 0.7381(13) 0.0432(5) 0.9726(4)
C4_3 C 0.6567(13) 0.1951(5) 0.6202(4)
H1_3 H 0.5749 0.1854 0.6042
C8_3 C 0.7324(14) 0.0875(6) 0.9357(4)
N5_3 N 0.7204(12) 0.1692(5) 0.8672(4)
C13_3 C 0.7926(13) 0.1763(5) 0.6077(4)
C15_3 C 0.6034(15) 0.1138(6) 0.9256(5)
H5_3 H 0.5195 0.1050 0.9409
C16_3 C 0.6469(13) 0.2298(6) 0.6585(4)
H6_3 H 0.5567 0.2428 0.6675
C20_3 C 0.716(2) 0.0696(7) 0.7581(6)
C22_3 C 0.8443(16) 0.1435(6) 0.8811(5)
H10_3 H 0.9283 0.1538 0.8664
C26_3 C 0.8904(15) 0.2267(6) 0.6682(5)
H13_3 H 0.9718 0.2375 0.6840
C29_3 C 0.6023(16) 0.1544(6) 0.8913(5)
H16_3 H 0.5151 0.1723 0.8847
C30_3 C 0.8593(15) 0.1043(6) 0.9143(5)
H17_3 H 0.9490 0.0896 0.9221
C34_3 C 0.9103(15) 0.1926(6) 0.6312(4)
O16_3 O 0.8465(14) 0.0637(6) 0.7708(4)
N9_3 N 0.6125(16) 0.0477(6) 0.7818(6)
C40_3 C 0.691(2) 0.1047(8) 0.7170(7)
H29_3 H 0.6412 0.1397 0.7243
H30_3 H 0.6333 0.0828 0.6968
H31_3 H 0.7819 0.1139 0.7037
C49_3 C 0.657(3) 0.0143(12) 0.8198(9)
H42_3 H 0.5892 0.0201 0.8431
H43_3 H 0.7511 0.0267 0.8290
C50_3 C 0.462(3) 0.0518(10) 0.7645(9)
H44_3 H 0.4635 0.0706 0.7366
H45_3 H 0.4038 0.0737 0.7844
H46_3 H 0.4224 0.0139 0.7614
Ho4_2 Ho 0.95770(5) 0.93933(2) 0.015541(16)
I3_4 I 0.01311(10) 0.75548(4) 0.27572(3)
C50_4 C 0.038(3) 0.9482(10) 0.2645(9)
H44_4 H 0.0365 0.9294 0.2366
H45_4 H 0.0962 0.9263 0.2844
H46_4 H 0.0776 0.9861 0.2614
O2_4 O 0.0839(9) 0.0258(4) 0.0400(3)
O7_4 O 0.1399(10) 0.0259(5) 0.4559(3)
C3_4 C 0.2700(13) 0.0221(5) 0.4448(4)
C6_4 C 0.1995(12) 0.1021(5) 0.0769(4)
H2_4 H 0.0757 0.0551 0.1823
C14_4 C 0.3224(14) 0.1132(6) 0.1016(5)
H4_4 H 0.4045 0.0904 0.0986
C21_4 C 0.0803(16) 0.1374(7) 0.0825(6)
C38_4 C 0.2011(12) 0.0507(5) 0.0465(4)
C44_4 C 0.3199(15) 0.1588(6) 0.1304(5)
H34_4 H 0.4007 0.1649 0.1479
C45_4 C 0.0919(16) 0.1810(7) 0.1124(5)
H35_4 H 0.0098 0.2031 0.1172
C47_4 C 0.388(2) 0.0124(7) 0.3717(6)
H37_4 H 0.4208 0.0501 0.3740
H41_3 H 0.8399 0.0258 0.3123
I1_4 I 0.71045(10) 0.60812(4) 0.24896(3)
I2_4 I 0.52165(10) 0.77022(4) 0.28583(3)
Cu1_4 Cu 0.4554(2) 0.88069(8) 0.27766(5)
Cu4_4 Cu 0.7557(2) 0.71799(8) 0.24294(5)
O4_2 O 0.8093(9) 0.8673(4) 0.0439(3)
O5_4 O 0.0687(9) 0.9138(4) 0.0835(3)
O6_4 O 0.0747(10) 0.8476(4) 0.0043(3)
O10_2 O 0.8751(9) 0.9642(4) 0.4929(3)
N1_4 N 0.7361(12) 0.7555(5) 0.1822(3)
C1_4 C 0.6963(13) 0.8620(5) 0.0667(4)
N2_4 N 0.3712(12) 0.8930(5) 0.2181(3)
C2_4 C 0.7619(13) 0.9568(5) 0.4726(4)
C4_4 C 0.8433(13) 0.8049(5) 0.1202(4)
H1_4 H 0.9251 0.8146 0.1042
C8_4 C 0.7676(14) 0.9125(6) 0.4357(4)
C10_4 C 0.2617(13) 0.9093(6) 0.1341(4)
N5_4 N 0.7796(12) 0.8308(5) 0.3672(4)
C11_4 C 0.3037(13) 0.9878(5) 0.4043(4)
C13_4 C 0.7074(13) 0.8237(5) 0.1077(4)
C15_4 C 0.8966(15) 0.8862(6) 0.4256(5)
H5_4 H 0.9805 0.8950 0.4409
C16_4 C 0.8531(13) 0.7702(6) 0.1585(4)
H6_4 H 0.9433 0.7572 0.1675
C18_4 C 0.2182(16) 0.8625(6) 0.1604(4)
H7_4 H 0.1506 0.8364 0.1499
C19_4 C 0.2746(15) 0.8554(6) 0.2013(4)
H8_4 H 0.2458 0.8240 0.2180
C20_4 C 0.784(2) 0.9304(7) 0.2581(6)
C22_4 C 0.6557(16) 0.8565(6) 0.3811(5)
H10_4 H 0.5717 0.8462 0.3664
C26_4 C 0.6096(15) 0.7733(6) 0.1682(5)
H13_4 H 0.5282 0.7625 0.1840
C27_4 C 0.2609(15) 0.9321(6) 0.3975(5)
H14_4 H 0.2026 0.9143 0.4182
C28_4 C 0.3015(15) 0.9013(7) 0.3606(5)
H15_4 H 0.2725 0.8631 0.3578
C29_4 C 0.8977(16) 0.8456(6) 0.3913(5)
H16_4 H 0.9849 0.8277 0.3847
C30_4 C 0.6407(15) 0.8957(6) 0.4143(5)
H17_4 H 0.5510 0.9104 0.4221
C33_4 C 0.4091(16) 0.9373(7) 0.1931(5)
H20_4 H 0.4753 0.9634 0.2045
C34_4 C 0.5897(15) 0.8074(6) 0.1312(4)
H21_4 H 0.4976 0.8188 0.1228
C37_4 C 0.275(2) 0.7823(7) 0.0472(6)
H23_4 H 0.3424 0.8064 0.0622
H24_4 H 0.2983 0.7425 0.0522
H25_4 H 0.1790 0.7898 0.0578
N8_4 N 0.3813(14) 0.9253(5) 0.3290(3)
O16_4 O 0.6535(14) 0.9363(6) 0.2708(4)
N9_4 N 0.8875(16) 0.9523(6) 0.2818(6)
C40_4 C 0.809(2) 0.8953(8) 0.2170(7)
H29_4 H 0.8588 0.8603 0.2243
H30_4 H 0.8667 0.9172 0.1968
H31_4 H 0.7181 0.8861 0.2037
C41_4 C 0.421(2) 0.9794(7) 0.3360(5)
H32_4 H 0.4766 0.9967 0.3145
C43_4 C 0.2065(16) 0.9156(6) 0.0874(4)
C46_4 C 0.3593(17) 0.9474(6) 0.1526(5)
H36_4 H 0.3900 0.9797 0.1371
C49_4 C 0.843(3) 0.9857(12) 0.3198(9)
H42_4 H 0.9108 0.9799 0.3431
H43_4 H 0.7489 0.9733 0.3290
C12_4 C 0.1748(15) 0.8260(5) 0.9818(5)
N6_4 N 0.2807(14) 0.7947(5) 0.9993(5)
C39_4 C 0.4082(18) 0.7762(8) 0.9768(9)
H26_4 H 0.4076 0.7349 0.9743
H27_4 H 0.4921 0.7881 0.9929
H28_4 H 0.4104 0.7930 0.9482
C48_4 C 0.170(2) 0.8329(7) 0.9319(5)
H38_4 H 0.1595 0.7958 0.9185
H39_4 H 0.2583 0.8504 0.9220
H40_4 H 0.0900 0.8569 0.9239
C7_4 C 0.9780(14) 0.0597(6) 0.1763(4)
H9_4 H 0.9959 0.1317 0.0666
C23_4 C 0.7597(16) 0.0987(7) 0.1931(4)
H11_4 H 0.7023 0.1222 0.2105
C24_4 C 0.9252(14) 0.0305(6) 0.1416(5)
H12_4 H 0.9845 0.0072 0.1246
C25_4 C 0.7761(14) 0.0365(6) 0.1320(4)
C32_4 C 0.6973(18) 0.0706(8) 0.1597(5)
H19_4 H 0.5985 0.0743 0.1552
C36_4 C 0.7159(14) 0.0062(5) 0.0919(4)
O13_4 O 0.7973(10) 0.9813(4) 0.0664(3)
C5_4 C 0.7120(14) 0.8996(6) 0.9437(4)
C9_4 C 0.4784(17) 0.8815(6) 0.8438(4)
H3_4 H 0.3836 0.8896 0.8360
O14_4 O 0.8483(10) 0.8987(4) 0.9510(3)
C17_4 C 0.6636(13) 0.8830(5) 0.8980(4)
C31_4 C 0.7563(16) 0.8597(7) 0.8664(5)
H18_4 H 0.8521 0.8515 0.8730
C35_4 C 0.5197(14) 0.8930(6) 0.8864(4)
H22_4 H 0.4537 0.9069 0.9067
C42_4 C 0.7029(18) 0.8494(7) 0.8258(4)
H33_4 H 0.7656 0.8341 0.8051
H41_4 H 0.6601 0.9742 0.8123
loop_
_geom_bond_atom_site_label_1
_geom_bond_atom_site_label_2
_geom_bond_site_symmetry_1
_geom_bond_site_symmetry_2
O12 C36 1_555 1_555
C5 O14 1_555 1_555
O13 Ho1 1_555 1_555
N4 C7 1_555 1_555
C9 H3 1_555 1_555
O14 Ho1 1_555 1_555
O15 C5 1_555 1_555
C17 C5 1_555 1_555
C23 N4 1_555 1_555
H11 C23 1_555 1_555
C24 C7 1_555 1_555
H12 C24 1_555 1_555
N7 C9 1_555 1_555
C25 C24 1_555 1_555
C31 C17 1_555 1_555
H18 C31 1_555 1_555
C32 C23 1_555 1_555
H19 C32 1_555 1_555
C35 C9 1_555 1_555
H22 C35 1_555 1_555
C36 O13 1_555 1_555
C42 N7 1_555 1_555
H33 C42 1_555 1_555
Ho7 O12 1_555 1_555
Cu5 N7 1_555 1_555
O17 Ho1 1_555 1_555
O19 Ho1 1_555 1_555
O15 Ho7 1_555 1_555
C17 C35 1_555 1_555
C25 C32 1_555 1_555
C25 C36 1_555 1_555
C31 C42 1_555 1_555
I1 Cu2 1_555 1_555
I2 Cu1 1_555 1_555
Cu1 N2 1_555 1_555
Cu3 I2 1_555 1_555
Cu4 I1 1_555 1_555
O1 C2 1_555 1_555
O2 C38 1_555 1_555
O3 C1 1_555 1_555
O19 C1 1_555 1_555
O7 C3 1_555 1_555
O8 C3 1_555 1_555
O9 C38 1_555 1_555
O22 C2 1_555 1_555
N1 Cu4 1_555 1_555
C1 C13 1_555 1_555
O11 C43 1_555 1_555
N2 C19 1_555 1_555
C2 C8 1_555 1_555
C3 C11 1_555 1_555
C4 H1 1_555 1_555
C6 C14 1_555 1_555
C8 C15 1_555 1_555
N3 C44 1_555 1_555
C10 C18 1_555 1_555
N5 Cu3 1_555 1_555
C11 C27 1_555 1_555
C12 O6 1_555 1_555
C13 C4 1_555 1_555
N6 C12 1_555 1_555
C14 H4 1_555 1_555
C15 H5 1_555 1_555
C16 N1 1_555 1_555
H6 C16 1_555 1_555
C18 H7 1_555 1_555
C19 C18 1_555 1_555
H8 C19 1_555 1_555
C20 O16 1_555 1_555
C21 C6 1_555 1_555
C22 N5 1_555 1_555
H10 C22 1_555 1_555
C26 N1 1_555 1_555
H13 C26 1_555 1_555
C27 H14 1_555 1_555
C28 C27 1_555 1_555
H15 C28 1_555 1_555
C29 N5 1_555 1_555
H16 C29 1_555 1_555
C30 C8 1_555 1_555
H17 C30 1_555 1_555
C33 N2 1_555 1_555
H20 C33 1_555 1_555
C34 C13 1_555 1_555
H21 C34 1_555 1_555
C37 N6 1_555 1_555
H23 C37 1_555 1_555
H24 C37 1_555 1_555
H25 C37 1_555 1_555
N8 Cu1 1_555 1_555
O16 Cu1 1_555 1_555
N9 C20 1_555 1_555
C38 C6 1_555 1_555
C39 N6 1_555 1_555
H26 C39 1_555 1_555
H27 C39 1_555 1_555
H28 C39 1_555 1_555
C40 C20 1_555 1_555
H29 C40 1_555 1_555
H30 C40 1_555 1_555
H31 C40 1_555 1_555
C41 N8 1_555 1_555
H32 C41 1_555 1_555
C43 O5 1_555 1_555
C44 C14 1_555 1_555
H34 C44 1_555 1_555
C45 N3 1_555 1_555
H35 C45 1_555 1_555
C46 C10 1_555 1_555
H36 C46 1_555 1_555
C47 C11 1_555 1_555
H37 C47 1_555 1_555
C48 C12 1_555 1_555
H38 C48 1_555 1_555
H39 C48 1_555 1_555
H40 C48 1_555 1_555
C49 N9 1_555 1_555
H41 C49 1_555 1_555
H42 C49 1_555 1_555
H43 C49 1_555 1_555
Ho7 O3 1_555 1_555
Cu7 N3 1_555 1_555
N10 Cu3 1_555 1_555
I2 Cu4 1_555 1_555
O9 Ho7 1_555 1_555
O11 Ho7 1_555 1_555
C4 C16 1_555 1_555
C10 C43 1_555 1_555
C15 C29 1_555 1_555
C21 C45 1_555 1_555
C22 C30 1_555 1_555
C26 C34 1_555 1_555
C28 N8 1_555 1_555
C33 C46 1_555 1_555
C41 C47 1_555 1_555
O21 Ho2 1_555 1_555
O23 Ho2 1_555 1_555
H44 C50 1_555 1_555
H45 C50 1_555 1_555
H46 C50 1_555 1_555
I1_2 Cu2_2 1_555 1_555
I3_2 Cu2_2 1_555 1_555
Cu2_2 N11_2 1_555 1_555
Cu3_2 I2_2 1_555 1_555
Cu4_2 I1_2 1_555 1_555
O17 C2_2 1_555 1_555
O18 C1_2 1_555 1_555
O4 C1_2 1_555 1_555
O10 C2_2 1_555 1_555
N1_2 Cu4_2 1_555 1_555
C1_2 C13_2 1_555 1_555
C2_2 C8_2 1_555 1_555
C4_2 H1_2 1_555 1_555
C8_2 C15_2 1_555 1_555
N5_2 Cu3_2 1_555 1_555
C13_2 C4_2 1_555 1_555
C15_2 H5_2 1_555 1_555
C16_2 N1_2 1_555 1_555
H6_2 C16_2 1_555 1_555
C20_2 O16_2 1_555 1_555
C22_2 N5_2 1_555 1_555
H10_2 C22_2 1_555 1_555
C26_2 N1_2 1_555 1_555
H13_2 C26_2 1_555 1_555
C29_2 N5_2 1_555 1_555
H16_2 C29_2 1_555 1_555
C30_2 C8_2 1_555 1_555
H17_2 C30_2 1_555 1_555
C34_2 C13_2 1_555 1_555
N9_2 C20_2 1_555 1_555
C40_2 C20_2 1_555 1_555
H29_2 C40_2 1_555 1_555
H30_2 C40_2 1_555 1_555
H31_2 C40_2 1_555 1_555
C49_2 N9_2 1_555 1_555
H41_2 C49_2 1_555 1_555
H42_2 C49_2 1_555 1_555
H43_2 C49_2 1_555 1_555
C50_2 N9_2 1_555 1_555
H44_2 C50_2 1_555 1_555
H45_2 C50_2 1_555 1_555
H46_2 C50_2 1_555 1_555
Ho4 O4 1_555 1_555
Ho7 O10 1_555 1_555
N10_2 Cu3_2 1_555 1_555
N12_2 Cu2_2 1_555 1_555
I2_2 Cu4_2 1_555 1_555
I3_2 Cu3_2 1_555 1_555
I3_2 Cu4_2 1_555 1_555
C4_2 C16_2 1_555 1_555
C15_2 C29_2 1_555 1_555
C22_2 C30_2 1_555 1_555
C26_2 C34_2 1_555 1_555
C5_2 O14_2 1_555 1_555
O25 C5_2 1_555 1_555
N6_2 C12_2 1_555 1_555
C17_2 C5_2 1_555 1_555
C31_2 C17_2 1_555 1_555
H18_2 C31_2 1_555 1_555
C39_2 N6_2 1_555 1_555
H26_2 C39_2 1_555 1_555
H27_2 C39_2 1_555 1_555
H28_2 C39_2 1_555 1_555
C42_2 N7_2 1_555 1_555
H33_2 C42_2 1_555 1_555
C48_2 C12_2 1_555 1_555
H38_2 C48_2 1_555 1_555
H39_2 C48_2 1_555 1_555
H40_2 C48_2 1_555 1_555
C17_2 C35_2 1_555 1_555
C31_2 C42_2 1_555 1_555
Ho4 O2_2 1_555 1_555
Ho7 O7_2 1_555 1_555
Cu1_2 N2_2 1_555 1_555
O2_2 C38_2 1_555 1_555
O5_2 Ho4 1_555 1_555
O6_2 Ho4 1_555 1_555
O7_2 C3_2 1_555 1_555
O20 C3_2 1_555 1_555
O21 C38_2 1_555 1_555
O23 C43_2 1_555 1_555
N2_2 C19_2 1_555 1_555
C3_2 C11_2 1_555 1_555
O24 C36_2 1_555 1_555
C6_2 C14_2 1_555 1_555
O13_2 Ho4 1_555 1_555
C7_2 H2_2 1_555 1_555
N3_2 C44_2 1_555 1_555
N4_2 C7_2 1_555 1_555
C10_2 C18_2 1_555 1_555
C11_2 C27_2 1_555 1_555
C14_2 H4_2 1_555 1_555
C18_2 H7_2 1_555 1_555
C19_2 C18_2 1_555 1_555
H8_2 C19_2 1_555 1_555
C21_2 C6_2 1_555 1_555
H9_2 C21_2 1_555 1_555
C23_2 N4_2 1_555 1_555
H11_2 C23_2 1_555 1_555
C24_2 C7_2 1_555 1_555
H12_2 C24_2 1_555 1_555
C25_2 C24_2 1_555 1_555
C27_2 H14_2 1_555 1_555
C28_2 C27_2 1_555 1_555
H15_2 C28_2 1_555 1_555
C32_2 C23_2 1_555 1_555
H19_2 C32_2 1_555 1_555
C33_2 N2_2 1_555 1_555
H20_2 C33_2 1_555 1_555
C36_2 O13_2 1_555 1_555
H23_2 C37_2 1_555 1_555
H24_2 C37_2 1_555 1_555
H25_2 C37_2 1_555 1_555
N8_2 Cu1_2 1_555 1_555
C38_2 C6_2 1_555 1_555
C41_2 N8_2 1_555 1_555
H32_2 C41_2 1_555 1_555
C43_2 O5_2 1_555 1_555
C44_2 C14_2 1_555 1_555
H34_2 C44_2 1_555 1_555
C45_2 N3_2 1_555 1_555
H35_2 C45_2 1_555 1_555
C46_2 C10_2 1_555 1_555
H36_2 C46_2 1_555 1_555
C47_2 C11_2 1_555 1_555
H37_2 C47_2 1_555 1_555
Cu5 N4_2 1_555 1_555
Cu7_2 N3_2 1_555 1_555
C10_2 C43_2 1_555 1_555
C21_2 C45_2 1_555 1_555
C25_2 C32_2 1_555 1_555
C25_2 C36_2 1_555 1_555
C28_2 N8_2 1_555 1_555
C33_2 C46_2 1_555 1_555
C41_2 C47_2 1_555 1_555
C9_2 H3_2 1_555 1_555
C9_3 H3_3 1_555 1_555
Cu1_3 N2_3 1_555 1_555
O5_3 Ho1_2 1_555 1_555
O6_3 Ho1_2 1_555 1_555
O11_2 C43_3 1_555 1_555
N2_3 C19_3 1_555 1_555
C5_3 O14_3 1_555 1_555
O13_3 Ho1_2 1_555 1_555
O14_3 Ho1_2 1_555 1_555
C10_3 C18_3 1_555 1_555
C11_3 C27_3 1_555 1_555
C12_3 O6_3 1_555 1_555
O15_2 C5_3 1_555 1_555
N6_3 C12_3 1_555 1_555
C17_3 C5_3 1_555 1_555
C18_3 H7_3 1_555 1_555
C19_3 C18_3 1_555 1_555
H8_3 C19_3 1_555 1_555
C27_3 H14_3 1_555 1_555
C28_3 C27_3 1_555 1_555
H15_3 C28_3 1_555 1_555
C31_3 C17_3 1_555 1_555
H18_3 C31_3 1_555 1_555
C33_3 N2_3 1_555 1_555
H20_3 C33_3 1_555 1_555
C37_3 N6_3 1_555 1_555
H23_3 C37_3 1_555 1_555
H24_3 C37_3 1_555 1_555
H25_3 C37_3 1_555 1_555
N8_3 Cu1_3 1_555 1_555
C39_3 N6_3 1_555 1_555
H26_3 C39_3 1_555 1_555
H27_3 C39_3 1_555 1_555
H28_3 C39_3 1_555 1_555
C41_3 N8_3 1_555 1_555
H32_3 C41_3 1_555 1_555
C42_3 N12 1_555 1_555
H33_3 C42_3 1_555 1_555
C43_3 O5_3 1_555 1_555
C46_3 C10_3 1_555 1_555
H36_3 C46_3 1_555 1_555
C48_3 C12_3 1_555 1_555
H38_3 C48_3 1_555 1_555
H39_3 C48_3 1_555 1_555
H40_3 C48_3 1_555 1_555
O19_2 Ho1_2 1_555 1_555
O20_2 Ho1_2 1_555 1_555
O11_2 Ho7_2 1_555 1_555
C10_3 C43_3 1_555 1_555
C17_3 C35_3 1_555 1_555
C28_3 N8_3 1_555 1_555
C31_3 C42_3 1_555 1_555
C33_3 C46_3 1_555 1_555
O18_2 Ho2_2 1_555 1_555
O23_2 Ho2_2 1_555 1_555
O2_3 C38_3 1_555 1_555
O7_3 C3_3 1_555 1_555
O8_2 C3_3 1_555 1_555
O9_2 C38_3 1_555 1_555
O12_2 C36_3 1_555 1_555
C6_3 C14_3 1_555 1_555
C7_3 H2_3 1_555 1_555
N10_2 C44_3 1_555 1_555
N11_2 C7_3 1_555 1_555
C14_3 H4_3 1_555 1_555
C21_3 C6_3 1_555 1_555
H9_3 C21_3 1_555 1_555
C23_3 N11_2 1_555 1_555
H11_3 C23_3 1_555 1_555
C24_3 C7_3 1_555 1_555
H12_3 C24_3 1_555 1_555
C25_3 C24_3 1_555 1_555
C32_3 C23_3 1_555 1_555
H19_3 C32_3 1_555 1_555
C38_3 C6_3 1_555 1_555
C44_3 C14_3 1_555 1_555
H34_3 C44_3 1_555 1_555
C45_3 N10_2 1_555 1_555
H35_3 C45_3 1_555 1_555
H37_3 C47_3 1_555 1_555
C21_3 C45_3 1_555 1_555
C25_3 C32_3 1_555 1_555
C25_3 C36_3 1_555 1_555
I1_3 Cu5 1_555 1_555
I3_3 Cu5 1_555 1_555
Cu7_2 I2_3 1_555 1_555
Cu4_3 I1_3 1_555 1_555
O1_2 C2_3 1_555 1_555
O3_2 C1_3 1_555 1_555
O19_2 C1_3 1_555 1_555
O22_2 C2_3 1_555 1_555
N1_3 Cu4_3 1_555 1_555
C1_3 C13_3 1_555 1_555
C2_3 C8_3 1_555 1_555
C4_3 H1_3 1_555 1_555
C8_3 C15_3 1_555 1_555
N5_3 Cu7_2 1_555 1_555
C13_3 C4_3 1_555 1_555
C15_3 H5_3 1_555 1_555
C16_3 N1_3 1_555 1_555
H6_3 C16_3 1_555 1_555
C20_3 O16_3 1_555 1_555
C22_3 N5_3 1_555 1_555
H10_3 C22_3 1_555 1_555
C26_3 N1_3 1_555 1_555
H13_3 C26_3 1_555 1_555
C29_3 N5_3 1_555 1_555
H16_3 C29_3 1_555 1_555
C30_3 C8_3 1_555 1_555
H17_3 C30_3 1_555 1_555
C34_3 C13_3 1_555 1_555
N9_3 C20_3 1_555 1_555
C40_3 C20_3 1_555 1_555
H29_3 C40_3 1_555 1_555
H30_3 C40_3 1_555 1_555
H31_3 C40_3 1_555 1_555
C49_3 N9_3 1_555 1_555
H42_3 C49_3 1_555 1_555
H43_3 C49_3 1_555 1_555
C50_3 N9_3 1_555 1_555
H44_3 C50_3 1_555 1_555
H45_3 C50_3 1_555 1_555
H46_3 C50_3 1_555 1_555
I2_3 Cu4_3 1_555 1_555
I3_3 Cu7_2 1_555 1_555
I3_3 Cu4_3 1_555 1_555
C4_3 C16_3 1_555 1_555
C15_3 C29_3 1_555 1_555
C22_3 C30_3 1_555 1_555
C26_3 C34_3 1_555 1_555
H44_4 C50_4 1_555 1_555
H45_4 C50_4 1_555 1_555
H46_4 C50_4 1_555 1_555
Ho7_2 O7_4 1_555 1_555
O2_4 C38_4 1_555 1_555
O7_4 C3_4 1_555 1_555
O20_2 C3_4 1_555 1_555
O21_2 C38_4 1_555 1_555
C6_4 C14_4 1_555 1_555
N10 C44_4 1_555 1_555
C14_4 H4_4 1_555 1_555
C21_4 C6_4 1_555 1_555
C38_4 C6_4 1_555 1_555
C44_4 C14_4 1_555 1_555
H34_4 C44_4 1_555 1_555
C45_4 N10 1_555 1_555
H35_4 C45_4 1_555 1_555
H37_4 C47_4 1_555 1_555
C21_4 C45_4 1_555 1_555
I1_4 Cu6 1_555 1_555
I2_4 Cu1_4 1_555 1_555
Cu1_4 N2_4 1_555 1_555
Cu7 I2_4 1_555 1_555
Cu4_4 I1_4 1_555 1_555
O17_2 C2_4 1_555 1_555
O18_2 C1_4 1_555 1_555
O4_2 C1_4 1_555 1_555
O10_2 C2_4 1_555 1_555
N1_4 Cu4_4 1_555 1_555
C1_4 C13_4 1_555 1_555
O23_2 C43_4 1_555 1_555
N2_4 C19_4 1_555 1_555
C2_4 C8_4 1_555 1_555
C4_4 H1_4 1_555 1_555
C8_4 C15_4 1_555 1_555
C10_4 C18_4 1_555 1_555
N5_4 Cu7 1_555 1_555
C11_4 C27_4 1_555 1_555
C13_4 C4_4 1_555 1_555
C15_4 H5_4 1_555 1_555
C16_4 N1_4 1_555 1_555
H6_4 C16_4 1_555 1_555
C18_4 H7_4 1_555 1_555
C19_4 C18_4 1_555 1_555
H8_4 C19_4 1_555 1_555
C20_4 O16_4 1_555 1_555
C22_4 N5_4 1_555 1_555
H10_4 C22_4 1_555 1_555
C26_4 N1_4 1_555 1_555
H13_4 C26_4 1_555 1_555
C27_4 H14_4 1_555 1_555
C28_4 C27_4 1_555 1_555
H15_4 C28_4 1_555 1_555
C29_4 N5_4 1_555 1_555
H16_4 C29_4 1_555 1_555
C30_4 C8_4 1_555 1_555
H17_4 C30_4 1_555 1_555
C33_4 N2_4 1_555 1_555
H20_4 C33_4 1_555 1_555
C34_4 C13_4 1_555 1_555
H21_4 C34_4 1_555 1_555
H23_4 C37_4 1_555 1_555
H24_4 C37_4 1_555 1_555
H25_4 C37_4 1_555 1_555
N8_4 Cu1_4 1_555 1_555
O16_4 Cu1_4 1_555 1_555
N9_4 C20_4 1_555 1_555
C40_4 C20_4 1_555 1_555
H29_4 C40_4 1_555 1_555
H30_4 C40_4 1_555 1_555
H31_4 C40_4 1_555 1_555
C41_4 N8_4 1_555 1_555
H32_4 C41_4 1_555 1_555
C43_4 O5_4 1_555 1_555
C46_4 C10_4 1_555 1_555
H36_4 C46_4 1_555 1_555
C49_4 N9_4 1_555 1_555
H42_4 C49_4 1_555 1_555
H43_4 C49_4 1_555 1_555
Ho4_2 O4_2 1_555 1_555
I2_4 Cu4_4 1_555 1_555
C4_4 C16_4 1_555 1_555
C10_4 C43_4 1_555 1_555
C15_4 C29_4 1_555 1_555
C22_4 C30_4 1_555 1_555
C26_4 C34_4 1_555 1_555
C28_4 N8_4 1_555 1_555
C33_4 C46_4 1_555 1_555
N6_4 C12_4 1_555 1_555
C39_4 N6_4 1_555 1_555
H26_4 C39_4 1_555 1_555
H27_4 C39_4 1_555 1_555
H28_4 C39_4 1_555 1_555
C48_4 C12_4 1_555 1_555
H38_4 C48_4 1_555 1_555
H39_4 C48_4 1_555 1_555
H40_4 C48_4 1_555 1_555
O24_2 C36_4 1_555 1_555
N11 C7_4 1_555 1_555
C23_4 N11 1_555 1_555
H11_4 C23_4 1_555 1_555
C24_4 C7_4 1_555 1_555
H12_4 C24_4 1_555 1_555
C25_4 C24_4 1_555 1_555
C32_4 C23_4 1_555 1_555
H19_4 C32_4 1_555 1_555
C25_4 C32_4 1_555 1_555
C25_4 C36_4 1_555 1_555
O13_4 Ho4_2 1_555 1_555
C5_4 O14_4 1_555 1_555
C9_4 H3_4 1_555 1_555
O25_2 C5_4 1_555 1_555
C17_4 C5_4 1_555 1_555
N12_2 C9_4 1_555 1_555
C31_4 C17_4 1_555 1_555
H18_4 C31_4 1_555 1_555
C35_4 C9_4 1_555 1_555
H22_4 C35_4 1_555 1_555
C42_4 N12_2 1_555 1_555
H33_4 C42_4 1_555 1_555
C17_4 C35_4 1_555 1_555
C31_4 C42_4 1_555 1_555

#END
