
###############################################################################
#
# This file contains modified crystal structure data generated from the
# MOF subset of the Cambridge Structural Database (CSD) v543 
# hosted by the Cambridge Crystallographic Data Centre (CCDC).
#
# This work is licensed under the Creative Commons
# Attribution-NonCommercial-ShareAlike 4.0 International License.
# To view a copy of this license, visit
# http://creativecommons.org/licenses/by-nc-sa/4.0/
# or send a letter to
# Creative Commons, PO Box 1866, Mountain View, CA 94042, USA.
#
# CIF created using the CSD Python API on 29 September 2022
# The structure has been converted into the P1 space group
# The structure has a 3D framework
# The original CSD entry TEBMAR01 is in the orthorhombic crystal system
# The original CSD entry TEBMAR01 is in a Sohncke space group
# The framework has been calculated to contain at least 10.0% void space
# The void calculation uses a probe of radius 1.32A, grid spacing 0.4
#
###############################################################################

data_TEBMAR01
_chemical_formula_moiety         '(C200 H184 Cu16 Dy4 I12 N36 O62)n'
_symmetry_cell_setting           triclinic
_symmetry_space_group_name_H-M   'P 1'
_symmetry_Int_Tables_number      1
_space_group_name_Hall           'P 1'
loop_
_symmetry_equiv_pos_site_id
_symmetry_equiv_pos_as_xyz
1 x,y,z
_cell_length_a                   9.2050(4)
_cell_length_b                   22.5567(10)
_cell_length_c                   30.9452(13)
_cell_angle_alpha                90
_cell_angle_beta                 90
_cell_angle_gamma                90
_cell_volume                     6425.29
loop_
_atom_site_label
_atom_site_type_symbol
_atom_site_fract_x
_atom_site_fract_y
_atom_site_fract_z
C6 C 0.1820(9) 0.6723(4) 0.5212(3)
O15 O 0.0802(6) 0.6531(3) 0.49778(18)
N8 N 0.2909(8) 0.7023(4) 0.5040(2)
C43 C 0.2937(11) 0.7173(4) 0.4585(3)
H34 H 0.202216 0.705088 0.444965
H35 H 0.374872 0.696801 0.444467
H36 H 0.305977 0.760243 0.455232
C44 C 0.4229(9) 0.7202(4) 0.5281(3)
H37 H 0.413585 0.708098 0.558425
H38 H 0.434226 0.763342 0.526563
H39 H 0.508213 0.701010 0.515351
C47 C 0.1754(11) 0.6640(4) 0.5696(3)
H42 H 0.082385 0.645893 0.577440
H43 H 0.184432 0.702666 0.583802
H44 H 0.255157 0.638216 0.578819
Dy4 Dy 0.00633(4) 0.47092(2) 0.97849(2)
O18 O 0.1351(6) 0.5410(3) 0.53600(18)
O22 O 0.0855(6) 0.4726(3) 0.45907(19)
O26 O 0.0738(6) 0.5891(3) 0.41889(18)
Dy7 Dy 0.50633(4) 0.02908(2) 0.02151(2)
Dy11 Dy 0.03767(4) 0.05917(2) 0.01483(2)
Dy1 Dy 0.49367(4) 0.52908(2) 0.47849(2)
Dy2 Dy 0.96233(4) 0.55917(2) 0.48517(2)
I1 I 0.20632(6) 0.60357(3) 0.74543(2)
I2 I 0.02222(6) 0.76999(2) 0.78159(2)
I3 I 0.51581(6) 0.75539(2) 0.77017(2)
Cu1 Cu 0.48675(12) 0.63903(4) 0.74816(3)
Cu3 Cu 0.28125(12) 0.76590(5) 0.81765(3)
Cu4 Cu 0.25577(12) 0.71643(5) 0.73916(3)
O1 O 0.1745(6) 0.5443(3) 0.96711(19)
O3 O 0.0787(6) 0.8860(3) 0.55768(18)
O4 O 0.1430(6) 0.9772(3) 0.97815(18)
O6 O 0.4145(6) 0.5274(3) 0.95907(19)
O7 O 0.3709(6) 0.9528(3) 0.99685(18)
O8 O 0.6276(6) 0.5776(3) 0.53057(18)
O9 O 0.3093(6) 0.8653(2) 0.54035(17)
N1 N 0.2978(8) 0.6899(3) 0.8545(2)
O12 O 0.9154(6) 0.5139(3) 0.91319(17)
O13 O 0.8557(6) 0.5972(3) 0.55068(18)
O14 O 0.1522(7) 0.9371(3) 0.7710(2)
N3 N 0.2800(9) 0.8273(3) 0.8666(2)
N5 N 0.2361(8) 0.7539(3) 0.6789(2)
C1 C 0.0899(9) 0.8077(4) 0.6282(3)
C3 C 0.2976(9) 0.5528(4) 0.9508(3)
C4 C 0.1083(9) 0.7726(4) 0.6643(3)
H3 H 0.023781 0.760981 0.679766
N6 N 0.5649(8) 0.6351(3) 0.6859(2)
C5 C 0.7812(9) 0.5080(4) 0.9076(3)
C7 C 0.1991(9) 0.8615(4) 0.5638(3)
N7 N 0.5870(8) 0.5902(3) 0.7953(2)
C8 C 0.7226(10) 0.5951(4) 0.5576(3)
C9 C 0.2754(10) 0.9283(4) 0.7570(3)
C11 C 0.4788(10) 0.6119(4) 0.6550(2)
H4 H 0.380549 0.603275 0.662030
C13 C 0.1574(11) 0.8565(4) 0.8763(3)
H5 H 0.075586 0.851151 0.858036
C14 C 0.3917(10) 0.8353(4) 0.8933(3)
H6 H 0.479414 0.814668 0.887287
C15 C 0.5267(9) 0.6000(4) 0.6133(3)
H7 H 0.461802 0.583835 0.592563
C16 C 0.2572(9) 0.9475(4) 0.9745(3)
C17 C 0.3448(9) 0.8035(4) 0.6182(3)
H8 H 0.430587 0.812568 0.602433
C18 C 0.2619(9) 0.9026(4) 0.9377(3)
O16 O 0.6988(6) 0.4809(3) 0.93314(18)
C19 C 0.7013(10) 0.6471(4) 0.6743(3)
H9 H 0.763558 0.664886 0.695056
C20 C 0.5132(9) 0.5528(4) 0.8210(2)
H10 H 0.414106 0.545407 0.814312
C21 C 0.1820(9) 0.6561(4) 0.8622(3)
H11 H 0.097655 0.662432 0.845139
H12 H 0.001425 0.996763 0.817614
C24 C 0.3018(9) 0.6012(4) 0.9165(3)
C26 C 0.7951(10) 0.5712(4) 0.8398(3)
H14 H 0.895541 0.577613 0.845055
C27 C 0.7151(9) 0.5346(4) 0.8670(3)
C28 C 0.5715(9) 0.5246(4) 0.8565(3)
H15 H 0.513595 0.498668 0.873432
C29 C 0.6682(9) 0.6116(4) 0.6023(3)
C31 C 0.2120(10) 0.8237(4) 0.6043(3)
N9 N 0.3929(9) 0.9473(4) 0.7778(3)
C33 C 0.1771(9) 0.6130(4) 0.8931(3)
H18 H 0.090069 0.591569 0.898448
C34 C 0.4250(9) 0.6343(4) 0.9083(3)
H19 H 0.512674 0.626759 0.923567
C35 C 0.4185(10) 0.6783(4) 0.8777(3)
H20 H 0.502770 0.701551 0.872618
C36 C 0.7575(10) 0.6354(4) 0.6338(3)
H21 H 0.856643 0.643599 0.627664
C37 C 0.3520(9) 0.7696(4) 0.6555(3)
H22 H 0.444921 0.756734 0.664985
C39 C 0.5421(10) 0.9408(5) 0.7624(4)
H24 H 0.592187 0.910806 0.779833
H25 H 0.592874 0.978780 0.765019
H26 H 0.541182 0.928327 0.732072
C40 C 0.2985(12) 0.8973(5) 0.7135(3)
H27 H 0.205843 0.881346 0.703139
H28 H 0.368466 0.864938 0.716973
H29 H 0.336114 0.925969 0.692421
C41 C 0.3718(15) 0.9746(6) 0.8205(4)
H31 H 0.466523 0.984107 0.833132
H32 H 0.320200 0.946763 0.839376
C42 C 0.3883(9) 0.8715(4) 0.9292(3)
H33 H 0.470532 0.874956 0.947636
C46 C 0.1431(10) 0.8943(5) 0.9116(3)
H41 H 0.053796 0.913825 0.917414
C48 C 0.7273(10) 0.5982(5) 0.8051(3)
H45 H 0.783233 0.623746 0.787307
Dy8 Dy 0.53767(4) 0.44083(2) 0.98517(2)
Dy10 Dy 0.46233(4) 0.94083(2) 0.51483(2)
O17 O 0.3255(6) 0.4557(3) 0.46711(19)
O19 O 0.5787(6) 0.6140(3) 0.44232(18)
O20 O 0.8570(6) 0.4772(3) 0.52185(18)
O21 O 0.2979(6) 0.5714(3) 0.44312(18)
O23 O 0.6291(6) 0.4528(3) 0.50315(18)
O24 O 0.8093(6) 0.6347(2) 0.45965(17)
O25 O 0.3687(6) 0.5163(3) 0.54408(18)
O27 O 0.5846(6) 0.4861(3) 0.41319(17)
O28 O 0.8012(6) 0.5191(3) 0.43314(18)
O2 O 0.8649(6) 0.0410(3) 0.96400(18)
O10 O 0.6313(6) 0.0163(3) 0.95592(18)
C10 C 0.7629(9) 0.0160(4) 0.9444(2)
C30 C 0.8995(10) 0.0093(4) 0.8746(3)
H16 H 0.943422 0.046391 0.880914
Cu2 Cu 0.95399(12) 0.88394(5) 0.77454(3)
O5 O 0.7979(6) 0.9286(3) 0.55688(18)
O11 O 0.5738(6) 0.9109(3) 0.58111(18)
N2 N 0.8723(7) 0.8939(4) 0.7148(2)
N4 N 0.8808(8) 0.9260(3) 0.8272(2)
H1 H 0.995840 0.820736 0.619762
C2 C 0.9128(9) 0.9406(4) 0.6909(3)
H2 H 0.977721 0.968814 0.702993
C12 C 0.7648(9) 0.9093(4) 0.6318(3)
C22 C 0.7994(9) 0.9849(4) 0.9028(3)
C23 C 0.9350(11) 0.9789(4) 0.8372(3)
C25 C 0.7210(10) 0.8617(4) 0.6571(3)
H13 H 0.652795 0.833744 0.646275
C32 C 0.7849(10) 0.9026(4) 0.8549(3)
H17 H 0.744948 0.864861 0.848332
C38 C 0.7779(10) 0.8554(4) 0.6980(3)
H23 H 0.748728 0.822381 0.714965
C45 C 0.8627(9) 0.9488(4) 0.6490(3)
H40 H 0.895879 0.981528 0.632305
C49 C 0.7403(10) 0.9305(4) 0.8927(3)
H46 H 0.670616 0.912436 0.911090
C50 C 0.7083(9) 0.9166(4) 0.5863(3)
Dy5 Dy 0.99367(4) 0.97092(2) 0.52151(2)
I1_2 I 0.29368(6) 0.39643(3) 0.24543(2)
I2_2 I 0.47778(6) 0.23001(2) 0.28159(2)
Cu1_2 Cu 0.01325(12) 0.36097(4) 0.24816(3)
Cu2_2 Cu 0.54601(12) 0.11606(5) 0.27454(3)
Cu3_2 Cu 0.21875(12) 0.23410(5) 0.31765(3)
Cu4_2 Cu 0.24423(12) 0.28357(5) 0.23916(3)
O3_2 O 0.4213(6) 0.1140(3) 0.05768(18)
O4_2 O 0.3570(6) 0.0228(3) 0.47815(18)
O5_2 O 0.7021(6) 0.0714(3) 0.05688(18)
O7_2 O 0.1291(6) 0.0472(3) 0.49685(18)
O9_2 O 0.1907(6) 0.1347(2) 0.04035(17)
N1_2 N 0.2022(8) 0.3101(3) 0.3545(2)
O11_2 O 0.9262(6) 0.0891(3) 0.08111(18)
N2_2 N 0.6277(7) 0.1061(4) 0.2148(2)
O14_2 O 0.3478(7) 0.0629(3) 0.2710(2)
N3_2 N 0.2200(9) 0.1727(3) 0.3666(2)
N4_2 N 0.6192(8) 0.0740(3) 0.3272(2)
N5_2 N 0.2639(8) 0.2461(3) 0.1789(2)
C1_2 C 0.4101(9) 0.1923(4) 0.1282(3)
H1_2 H 0.504160 0.179264 0.119762
C2_2 C 0.5872(9) 0.0594(4) 0.1909(3)
H2_2 H 0.522279 0.031186 0.202993
C3_2 C 0.2024(9) 0.4472(4) 0.4508(3)
C4_2 C 0.3917(9) 0.2274(4) 0.1643(3)
H3_2 H 0.476219 0.239019 0.179766
C7_2 C 0.3009(9) 0.1385(4) 0.0638(3)
C9_2 C 0.2246(10) 0.0717(4) 0.2570(3)
C11_2 C 0.0212(10) 0.3881(4) 0.1550(2)
H4_2 H 0.119451 0.396725 0.162030
C12_2 C 0.7352(9) 0.0907(4) 0.1318(3)
C13_2 C 0.3426(11) 0.1435(4) 0.3763(3)
H5_2 H 0.424414 0.148849 0.358036
C14_2 C 0.1083(10) 0.1647(4) 0.3933(3)
H6_2 H 0.020586 0.185332 0.387287
H7_2 H 0.038198 0.416165 0.092563
C16_2 C 0.2428(9) 0.0525(4) 0.4745(3)
C17_2 C 0.1552(9) 0.1965(4) 0.1182(3)
H8_2 H 0.069413 0.187432 0.102433
C18_2 C 0.2381(9) 0.0974(4) 0.4377(3)
H10_2 H 0.085894 0.454593 0.314312
C21_2 C 0.3180(9) 0.3439(4) 0.3622(3)
H11_2 H 0.402345 0.337568 0.345139
C22_2 C 0.7006(9) 0.0151(4) 0.4028(3)
C23_2 C 0.5650(11) 0.0211(4) 0.3372(3)
H12_2 H 0.498575 0.003237 0.317614
C24_2 C 0.1982(9) 0.3988(4) 0.4165(3)
C25_2 C 0.7790(10) 0.1383(4) 0.1571(3)
H13_2 H 0.847205 0.166256 0.146275
C31_2 C 0.2880(10) 0.1763(4) 0.1043(3)
C32_2 C 0.7151(10) 0.0974(4) 0.3549(3)
H17_2 H 0.755052 0.135139 0.348332
N9_2 N 0.1071(9) 0.0527(4) 0.2778(3)
C33_2 C 0.3229(9) 0.3870(4) 0.3931(3)
H18_2 H 0.409931 0.408431 0.398448
C34_2 C 0.0750(9) 0.3657(4) 0.4083(3)
C35_2 C 0.0815(10) 0.3217(4) 0.3777(3)
C37_2 C 0.1480(9) 0.2304(4) 0.1555(3)
H22_2 H 0.055079 0.243266 0.164985
C38_2 C 0.7221(10) 0.1446(4) 0.1980(3)
H23_2 H 0.751272 0.177619 0.214965
C40_2 C 0.2015(12) 0.1027(5) 0.2135(3)
H27_2 H 0.294157 0.118654 0.203139
H28_2 H 0.131534 0.135062 0.216973
H29_2 H 0.163886 0.074031 0.192421
C41_2 C 0.1282(15) 0.0254(6) 0.3205(4)
H31_2 H 0.033477 0.015893 0.333132
H32_2 H 0.179800 0.053237 0.339376
C42_2 C 0.1117(9) 0.1285(4) 0.4292(3)
H33_2 H 0.029468 0.125044 0.447636
C45_2 C 0.6373(9) 0.0512(4) 0.1490(3)
H40_2 H 0.604121 0.018472 0.132305
C46_2 C 0.3569(10) 0.1057(5) 0.4116(3)
H41_2 H 0.446204 0.086175 0.417414
C49_2 C 0.7597(10) 0.0695(4) 0.3927(3)
H46_2 H 0.829384 0.087564 0.411090
C50_2 C 0.7917(9) 0.0834(4) 0.0863(3)
O25_2 O 0.1313(6) 0.4837(3) 0.04408(18)
O21_2 O 0.2021(6) 0.4286(3) 0.94312(18)
O2_2 O 0.6351(6) 0.9590(3) 0.46400(18)
O10_2 O 0.8687(6) 0.9837(3) 0.45592(18)
C10_2 C 0.7371(9) 0.9840(4) 0.4444(2)
C30_2 C 0.6005(10) 0.9907(4) 0.3746(3)
H16_2 H 0.556578 0.953609 0.380914
H30 H 0.185469 0.989066 0.317385
I3_2 I 0.98419(6) 0.24461(2) 0.27017(2)
O8_2 O 0.8724(6) 0.4224(3) 0.03057(18)
O13_2 O 0.6443(6) 0.4028(3) 0.05068(18)
N6_2 N 0.9351(8) 0.3649(3) 0.1859(2)
C5_2 C 0.7188(9) 0.4920(4) 0.4076(3)
C6_2 C 0.3180(9) 0.3277(4) 0.0212(3)
N7_2 N 0.9130(8) 0.4098(3) 0.2953(2)
C8_2 C 0.7774(10) 0.4049(4) 0.0576(3)
C15_2 C 0.9733(9) 0.4000(4) 0.1133(3)
C19_2 C 0.7987(10) 0.3529(4) 0.1743(3)
H9_2 H 0.736442 0.335114 0.195056
C20_2 C 0.9868(9) 0.4472(4) 0.3210(2)
C26_2 C 0.7049(10) 0.4288(4) 0.3398(3)
H14_2 H 0.604459 0.422387 0.345055
C27_2 C 0.7849(9) 0.4654(4) 0.3670(3)
C28_2 C 0.9285(9) 0.4754(4) 0.3565(3)
H15_2 H 0.986405 0.501332 0.373432
C29_2 C 0.8318(9) 0.3884(4) 0.1023(3)
N8_2 N 0.2091(8) 0.2977(4) 0.0040(2)
H19_2 H 0.987326 0.373241 0.423567
H20_2 H 0.997230 0.298449 0.372618
C36_2 C 0.7425(10) 0.3646(4) 0.1338(3)
H21_2 H 0.643357 0.356401 0.127664
C39_2 C 0.9579(10) 0.0592(5) 0.2624(4)
H24_2 H 0.907813 0.089194 0.279833
H25_2 H 0.907126 0.021220 0.265019
H26_2 H 0.958818 0.071673 0.232072
C44_2 C 0.0771(9) 0.2798(4) 0.0281(3)
H37_2 H 0.086415 0.291902 0.058425
H38_2 H 0.065774 0.236658 0.026563
C47_2 C 0.3246(11) 0.3360(4) 0.0696(3)
H42_2 H 0.417615 0.354107 0.077440
H43_2 H 0.315568 0.297334 0.083802
H44_2 H 0.244843 0.361784 0.078819
C48_2 C 0.7727(10) 0.4018(5) 0.3051(3)
H45_2 H 0.716767 0.376254 0.287307
O18_2 O 0.3649(6) 0.4590(3) 0.03600(18)
O20_2 O 0.6430(6) 0.5228(3) 0.02185(18)
O23_2 O 0.8709(6) 0.5472(3) 0.00315(18)
O15_2 O 0.4198(6) 0.3469(3) 0.99778(18)
C43_2 C 0.2063(11) 0.2827(4) 0.9585(3)
H34_2 H 0.297784 0.294912 0.944965
H35_2 H 0.125128 0.303199 0.944467
H36_2 H 0.194023 0.239757 0.955232
O19_2 O 0.9213(6) 0.3860(3) 0.94232(18)
O24_2 O 0.6907(6) 0.3653(2) 0.95965(17)
O26_2 O 0.4262(6) 0.4109(3) 0.91889(18)
O16_2 O 0.1988(6) 0.0191(3) 0.06686(18)
H15_3 H 0.013595 0.001332 0.126568
O22_2 O 0.5855(6) 0.0274(3) 0.54093(19)
O27_2 O 0.0846(6) 0.0139(3) 0.58681(17)
I3_3 I 0.01581(6) 0.74461(2) 0.22983(2)
O8_3 O 0.1276(6) 0.9224(3) 0.46943(18)
O12_2 O 0.4154(6) 0.9861(3) 0.08681(17)
O13_3 O 0.3557(6) 0.9028(3) 0.44932(18)
N6_3 N 0.0649(8) 0.8649(3) 0.3141(2)
C5_3 C 0.2812(9) 0.9920(4) 0.0924(3)
C6_3 C 0.6820(9) 0.8277(4) 0.4788(3)
N7_3 N 0.0870(8) 0.9098(3) 0.2047(2)
C8_3 C 0.2226(10) 0.9049(4) 0.4424(3)
O15_3 O 0.5802(6) 0.8469(3) 0.50222(18)
C15_3 C 0.0267(9) 0.9000(4) 0.3867(3)
C19_3 C 0.2013(10) 0.8529(4) 0.3257(3)
H9_3 H 0.263558 0.835114 0.304944
C20_3 C 0.0132(9) 0.9472(4) 0.1790(2)
C26_3 C 0.2951(10) 0.9288(4) 0.1602(3)
H14_3 H 0.395541 0.922387 0.154945
C27_3 C 0.2151(9) 0.9654(4) 0.1330(3)
C28_3 C 0.0715(9) 0.9754(4) 0.1435(3)
C29_3 C 0.1682(9) 0.8884(4) 0.3977(3)
N8_3 N 0.7909(8) 0.7977(4) 0.4960(2)
H19_3 H 0.012674 0.873241 0.076433
H20_3 H 0.002770 0.798449 0.127382
C36_3 C 0.2575(10) 0.8646(4) 0.3662(3)
H21_3 H 0.356643 0.856401 0.372336
C39_3 C 0.0421(10) 0.5592(5) 0.2376(4)
H24_3 H 0.092187 0.589194 0.220167
H25_3 H 0.092874 0.521220 0.234981
H26_3 H 0.041182 0.571673 0.267928
C43_3 C 0.7937(11) 0.7827(4) 0.5415(3)
H34_3 H 0.702216 0.794912 0.555035
H35_3 H 0.874872 0.803199 0.555533
H36_3 H 0.805977 0.739757 0.544768
C44_3 C 0.9229(9) 0.7798(4) 0.4719(3)
H37_3 H 0.913585 0.791902 0.441575
H38_3 H 0.934226 0.736658 0.473437
C47_3 C 0.6754(11) 0.8360(4) 0.4304(3)
H42_3 H 0.582385 0.854107 0.422560
H43_3 H 0.684432 0.797334 0.416198
H44_3 H 0.755157 0.861784 0.421181
C48_3 C 0.2273(10) 0.9018(5) 0.1949(3)
H45_3 H 0.283233 0.876254 0.212693
O28_2 O 0.3012(6) 0.9809(3) 0.56686(18)
O17_2 O 0.8255(6) 0.0443(3) 0.53289(19)
I1_3 I 0.70632(6) 0.89643(3) 0.25457(2)
I2_3 I 0.52222(6) 0.73001(2) 0.21841(2)
Cu1_3 Cu 0.98675(12) 0.86097(4) 0.25184(3)
Cu2_3 Cu 0.45399(12) 0.61606(5) 0.22546(3)
Cu3_3 Cu 0.78125(12) 0.73410(5) 0.18235(3)
Cu4_3 Cu 0.75577(12) 0.78357(5) 0.26084(3)
O1_2 O 0.6745(6) 0.9557(3) 0.03289(19)
O6_2 O 0.9145(6) 0.9726(3) 0.04093(19)
N1_3 N 0.7978(8) 0.8101(3) 0.1455(2)
N2_3 N 0.3723(7) 0.6061(4) 0.2852(2)
O14_3 O 0.6522(7) 0.5629(3) 0.2290(2)
N3_3 N 0.7800(9) 0.6727(3) 0.1334(2)
N4_3 N 0.3808(8) 0.5740(3) 0.1728(2)
N5_3 N 0.7361(8) 0.7461(3) 0.3211(2)
C1_3 C 0.5899(9) 0.6923(4) 0.3718(3)
H1_3 H 0.495840 0.679264 0.380238
C2_3 C 0.4128(9) 0.5594(4) 0.3091(3)
H2_3 H 0.477721 0.531186 0.297007
C3_3 C 0.7976(9) 0.9472(4) 0.0492(3)
C4_3 C 0.6083(9) 0.7274(4) 0.3357(3)
H3_3 H 0.523781 0.739019 0.320234
C7_3 C 0.6991(9) 0.6385(4) 0.4362(3)
C9_3 C 0.7754(10) 0.5717(4) 0.2430(3)
C10_3 C 0.2629(9) 0.4840(4) 0.0556(2)
C11_3 C 0.9788(10) 0.8881(4) 0.3450(2)
H4_3 H 0.880549 0.896725 0.337970
C12_3 C 0.2648(9) 0.5907(4) 0.3682(3)
C13_3 C 0.6574(11) 0.6435(4) 0.1237(3)
H5_3 H 0.575586 0.648849 0.141964
C14_3 C 0.8917(10) 0.6647(4) 0.1067(3)
H6_3 H 0.979414 0.685332 0.112713
H7_3 H 0.961802 0.916165 0.407437
C16_3 C 0.7572(9) 0.5525(4) 0.0255(3)
C17_3 C 0.8448(9) 0.6965(4) 0.3818(3)
H8_3 H 0.930587 0.687432 0.397567
C18_3 C 0.7619(9) 0.5974(4) 0.0623(3)
H10_3 H 0.914106 0.954593 0.185688
C21_3 C 0.6820(9) 0.8439(4) 0.1378(3)
H11_3 H 0.597655 0.837568 0.154861
C22_3 C 0.2994(9) 0.5151(4) 0.0972(3)
C23_3 C 0.4350(11) 0.5211(4) 0.1628(3)
H12_3 H 0.501425 0.503237 0.182386
C24_3 C 0.8018(9) 0.8988(4) 0.0835(3)
C25_3 C 0.2210(10) 0.6383(4) 0.3429(3)
H13_3 H 0.152795 0.666256 0.353725
C30_3 C 0.3995(10) 0.4907(4) 0.1254(3)
H16_3 H 0.443422 0.453609 0.119086
C31_3 C 0.7120(10) 0.6763(4) 0.3957(3)
C32_3 C 0.2849(10) 0.5974(4) 0.1451(3)
H17_3 H 0.244948 0.635139 0.151668
N9_3 N 0.8929(9) 0.5527(4) 0.2222(3)
C33_3 C 0.6771(9) 0.8870(4) 0.1069(3)
H18_3 H 0.590069 0.908431 0.101552
C34_3 C 0.9250(9) 0.8657(4) 0.0917(3)
C35_3 C 0.9185(10) 0.8217(4) 0.1223(3)
C37_3 C 0.8520(9) 0.7304(4) 0.3445(3)
H22_3 H 0.944921 0.743266 0.335015
C38_3 C 0.2779(10) 0.6446(4) 0.3020(3)
H23_3 H 0.248728 0.677619 0.285035
C40_3 C 0.7985(12) 0.6027(5) 0.2865(3)
H27_3 H 0.705843 0.618654 0.296861
H28_3 H 0.868466 0.635062 0.283027
H29_3 H 0.836114 0.574031 0.307579
C41_3 C 0.8718(15) 0.5254(6) 0.1795(4)
H30_2 H 0.814531 0.489066 0.182615
H31_3 H 0.966523 0.515893 0.166868
H32_3 H 0.820200 0.553237 0.160624
C42_3 C 0.8883(9) 0.6285(4) 0.0708(3)
H33_3 H 0.970532 0.625044 0.052364
C45_3 C 0.3627(9) 0.5512(4) 0.3510(3)
H40_3 H 0.395879 0.518472 0.367695
C46_3 C 0.6431(10) 0.6057(5) 0.0884(3)
H41_3 H 0.553796 0.586175 0.082586
C49_3 C 0.2403(10) 0.5695(4) 0.1073(3)
H46_3 H 0.170616 0.587564 0.088910
C50_3 C 0.2083(9) 0.5834(4) 0.4137(3)
Cu2_4 Cu 0.04601(12) 0.38394(5) 0.72546(3)
N2_4 N 0.1277(7) 0.3939(4) 0.7852(2)
N4_4 N 0.1192(8) 0.4260(3) 0.6728(2)
H1_4 H 0.004160 0.320736 0.880238
C2_4 C 0.0872(9) 0.4406(4) 0.8091(3)
H2_4 H 0.022279 0.468814 0.797007
C10_4 C 0.2371(9) 0.5160(4) 0.5556(2)
C12_4 C 0.2352(9) 0.4093(4) 0.8682(3)
C22_4 C 0.2006(9) 0.4849(4) 0.5972(3)
C23_4 C 0.0650(11) 0.4789(4) 0.6628(3)
C25_4 C 0.2790(10) 0.3617(4) 0.8429(3)
H13_4 H 0.347205 0.333744 0.853725
C30_4 C 0.1005(10) 0.5093(4) 0.6254(3)
H16_4 H 0.056578 0.546391 0.619086
C32_4 C 0.2151(10) 0.4026(4) 0.6451(3)
H17_4 H 0.255052 0.364861 0.651668
C38_4 C 0.2221(10) 0.3554(4) 0.8020(3)
H23_4 H 0.251272 0.322381 0.785035
C45_4 C 0.1373(9) 0.4488(4) 0.8510(3)
H40_4 H 0.104121 0.481528 0.867695
C49_4 C 0.2597(10) 0.4305(4) 0.6073(3)
H46_4 H 0.329384 0.412436 0.588910
C50_4 C 0.2917(9) 0.4166(4) 0.9137(3)
I1_4 I 0.79368(6) 0.10357(3) 0.75457(2)
I2_4 I 0.97778(6) 0.26999(2) 0.71841(2)
I3_4 I 0.48419(6) 0.25539(2) 0.72983(2)
Cu1_4 Cu 0.51325(12) 0.13903(4) 0.75184(3)
Cu3_4 Cu 0.71875(12) 0.26590(5) 0.68235(3)
Cu4_4 Cu 0.74423(12) 0.21643(5) 0.76084(3)
O8_4 O 0.3724(6) 0.0776(3) 0.96943(18)
N1_4 N 0.7022(8) 0.1899(3) 0.6455(2)
O13_4 O 0.1443(6) 0.0972(3) 0.94932(18)
O14_4 O 0.8478(7) 0.4371(3) 0.7290(2)
N3_4 N 0.7200(9) 0.3273(3) 0.6334(2)
N5_4 N 0.7639(8) 0.2539(3) 0.8211(2)
C1_4 C 0.9101(9) 0.3077(4) 0.8718(3)
C3_4 C 0.7024(9) 0.0528(4) 0.5492(3)
C4_4 C 0.8917(9) 0.2726(4) 0.8357(3)
H3_4 H 0.976219 0.260981 0.820234
N6_4 N 0.4351(8) 0.1351(3) 0.8141(2)
C5_4 C 0.2188(9) 0.0080(4) 0.5924(3)
C7_4 C 0.8009(9) 0.3615(4) 0.9362(3)
N7_4 N 0.4130(8) 0.0902(3) 0.7047(2)
C8_4 C 0.2774(10) 0.0951(4) 0.9424(3)
C9_4 C 0.7246(10) 0.4283(4) 0.7430(3)
C11_4 C 0.5212(10) 0.1119(4) 0.8450(2)
H4_4 H 0.619451 0.103275 0.837970
C13_4 C 0.8426(11) 0.3565(4) 0.6237(3)
H5_4 H 0.924414 0.351151 0.641964
C14_4 C 0.6083(10) 0.3353(4) 0.6067(3)
H6_4 H 0.520586 0.314668 0.612713
C15_4 C 0.4733(9) 0.1000(4) 0.8867(3)
H7_4 H 0.538198 0.083835 0.907437
C16_4 C 0.7428(9) 0.4475(4) 0.5255(3)
C17_4 C 0.6552(9) 0.3035(4) 0.8818(3)
H8_4 H 0.569413 0.312568 0.897567
C18_4 C 0.7381(9) 0.4026(4) 0.5623(3)
C19_4 C 0.2987(10) 0.1471(4) 0.8257(3)
H9_4 H 0.236442 0.164886 0.804944
C20_4 C 0.4868(9) 0.0528(4) 0.6790(2)
H10_4 H 0.585894 0.045407 0.685688
C21_4 C 0.8180(9) 0.1561(4) 0.6378(3)
H11_4 H 0.902345 0.162432 0.654861
H12_4 H 0.998575 0.496763 0.682386
C24_4 C 0.6982(9) 0.1012(4) 0.5835(3)
C26_4 C 0.2049(10) 0.0712(4) 0.6602(3)
H14_4 H 0.104459 0.077613 0.654945
C27_4 C 0.2849(9) 0.0346(4) 0.6330(3)
C28_4 C 0.4285(9) 0.0246(4) 0.6435(3)
C29_4 C 0.3318(9) 0.1116(4) 0.8977(3)
C31_4 C 0.7880(10) 0.3237(4) 0.8957(3)
N9_4 N 0.6071(9) 0.4473(4) 0.7222(3)
C33_4 C 0.8229(9) 0.1130(4) 0.6069(3)
H18_4 H 0.909931 0.091569 0.601552
C34_4 C 0.5750(9) 0.1343(4) 0.5917(3)
H19_4 H 0.487326 0.126759 0.576433
C35_4 C 0.5815(10) 0.1783(4) 0.6223(3)
H20_4 H 0.497230 0.201551 0.627382
C36_4 C 0.2425(10) 0.1354(4) 0.8662(3)
H21_4 H 0.143357 0.143599 0.872336
C37_4 C 0.6480(9) 0.2696(4) 0.8445(3)
H22_4 H 0.555079 0.256734 0.835015
C39_4 C 0.4579(10) 0.4408(5) 0.7376(4)
H24_4 H 0.407813 0.410806 0.720167
H25_4 H 0.407126 0.478780 0.734981
H26_4 H 0.458818 0.428327 0.767928
C40_4 C 0.7015(12) 0.3973(5) 0.7865(3)
H27_4 H 0.794157 0.381346 0.796861
H28_4 H 0.631534 0.364938 0.783027
H29_4 H 0.663886 0.425969 0.807579
C41_4 C 0.6282(15) 0.4746(6) 0.6795(4)
H30_3 H 0.685469 0.510934 0.682615
H31_4 H 0.533477 0.484107 0.666868
H32_4 H 0.679800 0.446763 0.660624
C42_4 C 0.6117(9) 0.3715(4) 0.5708(3)
H33_4 H 0.529468 0.374956 0.552364
C46_4 C 0.8569(10) 0.3943(5) 0.5884(3)
H41_4 H 0.946204 0.413825 0.582586
C48_4 C 0.2727(10) 0.0982(5) 0.6949(3)
H45_4 H 0.216767 0.123746 0.712693
H15_4 H 0.486405 0.998668 0.626568
O15_4 O 0.9198(6) 0.1531(3) 0.00222(18)
C43_4 C 0.7063(11) 0.2173(4) 0.0415(3)
H34_4 H 0.797784 0.205088 0.055035
H35_4 H 0.625128 0.196801 0.055533
H36_4 H 0.694023 0.260243 0.044768
C6_4 C 0.8180(9) 0.1723(4) 0.9788(3)
N8_4 N 0.7091(8) 0.2023(4) 0.9960(2)
C44_4 C 0.5771(9) 0.2202(4) 0.9719(3)
H37_4 H 0.586415 0.208098 0.941575
H38_4 H 0.565774 0.263342 0.973437
H39_2 H 0.491787 0.201010 0.984649
C47_4 C 0.8246(11) 0.1640(4) 0.9304(3)
H42_4 H 0.917615 0.145893 0.922560
H43_4 H 0.815568 0.202666 0.916198
H44_4 H 0.744843 0.138216 0.921181
H30_4 H 0.314531 0.010934 0.817385
H39_3 H 0.991787 0.298990 0.015351
H39_4 H 0.008213 0.798990 0.484649
loop_
_geom_bond_atom_site_label_1
_geom_bond_atom_site_label_2
_geom_bond_site_symmetry_1
_geom_bond_site_symmetry_2
C6 O15 1_555 1_555
N8 C6 1_555 1_555
C43 N8 1_555 1_555
H34 C43 1_555 1_555
H35 C43 1_555 1_555
H36 C43 1_555 1_555
C44 N8 1_555 1_555
H37 C44 1_555 1_555
H38 C44 1_555 1_555
H39 C44 1_555 1_555
C47 C6 1_555 1_555
H42 C47 1_555 1_555
H43 C47 1_555 1_555
H44 C47 1_555 1_555
Dy1 O8 1_555 1_555
Dy2 O13 1_555 1_555
I1 Cu1 1_555 1_555
I3 Cu1 1_555 1_555
Cu1 Cu4 1_555 1_555
Cu3 I2 1_555 1_555
Cu4 I1 1_555 1_555
O1 C3 1_555 1_555
O3 C7 1_555 1_555
O4 C16 1_555 1_555
O6 C3 1_555 1_555
O7 C16 1_555 1_555
O8 C8 1_555 1_555
O9 C7 1_555 1_555
N1 Cu3 1_555 1_555
O12 C5 1_555 1_555
O13 C8 1_555 1_555
N3 Cu3 1_555 1_555
N5 Cu4 1_555 1_555
C3 C24 1_555 1_555
C4 N5 1_555 1_555
H3 C4 1_555 1_555
N6 Cu1 1_555 1_555
C5 O16 1_555 1_555
C7 C31 1_555 1_555
N7 Cu1 1_555 1_555
C8 C29 1_555 1_555
C9 O14 1_555 1_555
C11 N6 1_555 1_555
H4 C11 1_555 1_555
C13 N3 1_555 1_555
H5 C13 1_555 1_555
C14 N3 1_555 1_555
H6 C14 1_555 1_555
C15 C11 1_555 1_555
H7 C15 1_555 1_555
C16 C18 1_555 1_555
C17 H8 1_555 1_555
C18 C42 1_555 1_555
O16 Dy8 1_555 1_555
C19 N6 1_555 1_555
H9 C19 1_555 1_555
C20 N7 1_555 1_555
H10 C20 1_555 1_555
C21 N1 1_555 1_555
H11 C21 1_555 1_555
C24 C33 1_555 1_555
C26 H14 1_555 1_555
C27 C5 1_555 1_555
C28 C20 1_555 1_555
H15 C28 1_555 1_555
C29 C15 1_555 1_555
C31 C1 1_555 1_555
N9 C9 1_555 1_555
C33 C21 1_555 1_555
H18 C33 1_555 1_555
C34 C24 1_555 1_555
H19 C34 1_555 1_555
C35 N1 1_555 1_555
H20 C35 1_555 1_555
C36 C19 1_555 1_555
H21 C36 1_555 1_555
C37 N5 1_555 1_555
H22 C37 1_555 1_555
C39 N9 1_555 1_555
H24 C39 1_555 1_555
H25 C39 1_555 1_555
H26 C39 1_555 1_555
C40 C9 1_555 1_555
H27 C40 1_555 1_555
H28 C40 1_555 1_555
H29 C40 1_555 1_555
C41 N9 1_555 1_555
H31 C41 1_555 1_555
H32 C41 1_555 1_555
C42 C14 1_555 1_555
H33 C42 1_555 1_555
C46 C13 1_555 1_555
H41 C46 1_555 1_555
C48 N7 1_555 1_555
H45 C48 1_555 1_555
Dy4 O1 1_555 1_555
Dy8 O6 1_555 1_555
Dy10 O9 1_555 1_555
O17 Dy1 1_555 1_555
O19 Dy1 1_555 1_555
O20 Dy2 1_555 1_555
O21 Dy1 1_555 1_555
O23 Dy1 1_555 1_555
O24 Dy2 1_555 1_555
O25 Dy1 1_555 1_555
O27 Dy1 1_555 1_555
O28 Dy2 1_555 1_555
I2 Cu4 1_555 1_555
I3 Cu3 1_555 1_555
I3 Cu4 1_555 1_555
Cu3 Cu4 1_555 1_555
C1 C4 1_555 1_555
C17 C31 1_555 1_555
C17 C37 1_555 1_555
C18 C46 1_555 1_555
C26 C27 1_555 1_555
C26 C48 1_555 1_555
C27 C28 1_555 1_555
C29 C36 1_555 1_555
C34 C35 1_555 1_555
O2 C10 1_555 1_555
O10 C10 1_555 1_555
H16 C30 1_555 1_555
Cu2 N2 1_555 1_555
O5 C50 1_555 1_555
O11 C50 1_555 1_555
N2 C2 1_555 1_555
N4 Cu2 1_555 1_555
C2 H2 1_555 1_555
C12 C25 1_555 1_555
C23 N4 1_555 1_555
C25 H13 1_555 1_555
C32 N4 1_555 1_555
H17 C32 1_555 1_555
C38 N2 1_555 1_555
H23 C38 1_555 1_555
C45 C2 1_555 1_555
H40 C45 1_555 1_555
C49 C22 1_555 1_555
H46 C49 1_555 1_555
C50 C12 1_555 1_555
Dy10 O11 1_555 1_555
O5 Dy5 1_555 1_555
C12 C45 1_555 1_555
C25 C38 1_555 1_555
C32 C49 1_555 1_555
I1_2 Cu1_2 1_555 1_555
I2_2 Cu2_2 1_555 1_555
Cu1_2 Cu4_2 1_555 1_555
Cu2_2 N2_2 1_555 1_555
Cu3_2 I2_2 1_555 1_555
Cu4_2 I1_2 1_555 1_555
O17 C3_2 1_555 1_555
O3_2 C7_2 1_555 1_555
O4_2 C16_2 1_555 1_555
O5_2 C50_2 1_555 1_555
O22 C3_2 1_555 1_555
O7_2 C16_2 1_555 1_555
O9_2 C7_2 1_555 1_555
N1_2 Cu3_2 1_555 1_555
O11_2 C50_2 1_555 1_555
N2_2 C2_2 1_555 1_555
O14_2 Cu2_2 1_555 1_555
N3_2 Cu3_2 1_555 1_555
N4_2 Cu2_2 1_555 1_555
N5_2 Cu4_2 1_555 1_555
C1_2 H1_2 1_555 1_555
C2_2 H2_2 1_555 1_555
C3_2 C24_2 1_555 1_555
C4_2 N5_2 1_555 1_555
H3_2 C4_2 1_555 1_555
C7_2 C31_2 1_555 1_555
C9_2 O14_2 1_555 1_555
H4_2 C11_2 1_555 1_555
C12_2 C25_2 1_555 1_555
C13_2 N3_2 1_555 1_555
H5_2 C13_2 1_555 1_555
C14_2 N3_2 1_555 1_555
H6_2 C14_2 1_555 1_555
C16_2 C18_2 1_555 1_555
C17_2 H8_2 1_555 1_555
C18_2 C42_2 1_555 1_555
C21_2 N1_2 1_555 1_555
H11_2 C21_2 1_555 1_555
C23_2 N4_2 1_555 1_555
H12_2 C23_2 1_555 1_555
C24_2 C33_2 1_555 1_555
C25_2 H13_2 1_555 1_555
C31_2 C1_2 1_555 1_555
C32_2 N4_2 1_555 1_555
H17_2 C32_2 1_555 1_555
N9_2 C9_2 1_555 1_555
C33_2 C21_2 1_555 1_555
H18_2 C33_2 1_555 1_555
C34_2 C24_2 1_555 1_555
C35_2 N1_2 1_555 1_555
C37_2 N5_2 1_555 1_555
H22_2 C37_2 1_555 1_555
C38_2 N2_2 1_555 1_555
H23_2 C38_2 1_555 1_555
C40_2 C9_2 1_555 1_555
H27_2 C40_2 1_555 1_555
H28_2 C40_2 1_555 1_555
H29_2 C40_2 1_555 1_555
C41_2 N9_2 1_555 1_555
H31_2 C41_2 1_555 1_555
H32_2 C41_2 1_555 1_555
C42_2 C14_2 1_555 1_555
H33_2 C42_2 1_555 1_555
C45_2 C2_2 1_555 1_555
H40_2 C45_2 1_555 1_555
C46_2 C13_2 1_555 1_555
H41_2 C46_2 1_555 1_555
C49_2 C22_2 1_555 1_555
H46_2 C49_2 1_555 1_555
C50_2 C12_2 1_555 1_555
Dy7 O3_2 1_555 1_555
Dy11 O9_2 1_555 1_555
I2_2 Cu4_2 1_555 1_555
Cu3_2 Cu4_2 1_555 1_555
O5_2 Dy7 1_555 1_555
C1_2 C4_2 1_555 1_555
C12_2 C45_2 1_555 1_555
C17_2 C31_2 1_555 1_555
C17_2 C37_2 1_555 1_555
C18_2 C46_2 1_555 1_555
C25_2 C38_2 1_555 1_555
C32_2 C49_2 1_555 1_555
C34_2 C35_2 1_555 1_555
O21_2 Dy4 1_555 1_555
O2_2 C10_2 1_555 1_555
O10_2 C10_2 1_555 1_555
H16_2 C30_2 1_555 1_555
Dy5 O10_2 1_555 1_555
Dy10 O2_2 1_555 1_555
O8_2 C8_2 1_555 1_555
O27 C5_2 1_555 1_555
O13_2 C8_2 1_555 1_555
C5_2 O28 1_555 1_555
C8_2 C29_2 1_555 1_555
C19_2 N6_2 1_555 1_555
H9_2 C19_2 1_555 1_555
C20_2 N7_2 1_555 1_555
C26_2 H14_2 1_555 1_555
C27_2 C5_2 1_555 1_555
C28_2 C20_2 1_555 1_555
H15_2 C28_2 1_555 1_555
C29_2 C15_2 1_555 1_555
N8_2 C6_2 1_555 1_555
C36_2 C19_2 1_555 1_555
H21_2 C36_2 1_555 1_555
H24_2 C39_2 1_555 1_555
H25_2 C39_2 1_555 1_555
H26_2 C39_2 1_555 1_555
C44_2 N8_2 1_555 1_555
H37_2 C44_2 1_555 1_555
H38_2 C44_2 1_555 1_555
C47_2 C6_2 1_555 1_555
H42_2 C47_2 1_555 1_555
H43_2 C47_2 1_555 1_555
H44_2 C47_2 1_555 1_555
C48_2 N7_2 1_555 1_555
H45_2 C48_2 1_555 1_555
C26_2 C27_2 1_555 1_555
C26_2 C48_2 1_555 1_555
C27_2 C28_2 1_555 1_555
C29_2 C36_2 1_555 1_555
O15_2 Dy8 1_555 1_555
H34_2 C43_2 1_555 1_555
H35_2 C43_2 1_555 1_555
H36_2 C43_2 1_555 1_555
O24_2 Dy8 1_555 1_555
O26_2 Dy8 1_555 1_555
O16_2 Dy11 1_555 1_555
Dy10 O13_3 1_555 1_555
O8_3 C8_3 1_555 1_555
O12_2 C5_3 1_555 1_555
O13_3 C8_3 1_555 1_555
C6_3 O15_3 1_555 1_555
C8_3 C29_3 1_555 1_555
O15_3 Dy10 1_555 1_555
C19_3 N6_3 1_555 1_555
H9_3 C19_3 1_555 1_555
C20_3 N7_3 1_555 1_555
C26_3 H14_3 1_555 1_555
C27_3 C5_3 1_555 1_555
C28_3 C20_3 1_555 1_555
C29_3 C15_3 1_555 1_555
N8_3 C6_3 1_555 1_555
C36_3 C19_3 1_555 1_555
H21_3 C36_3 1_555 1_555
H24_3 C39_3 1_555 1_555
H25_3 C39_3 1_555 1_555
H26_3 C39_3 1_555 1_555
C43_3 N8_3 1_555 1_555
H34_3 C43_3 1_555 1_555
H35_3 C43_3 1_555 1_555
H36_3 C43_3 1_555 1_555
C44_3 N8_3 1_555 1_555
H37_3 C44_3 1_555 1_555
H38_3 C44_3 1_555 1_555
C47_3 C6_3 1_555 1_555
H42_3 C47_3 1_555 1_555
H43_3 C47_3 1_555 1_555
H44_3 C47_3 1_555 1_555
C48_3 N7_3 1_555 1_555
H45_3 C48_3 1_555 1_555
O28_2 Dy10 1_555 1_555
C26_3 C27_3 1_555 1_555
C26_3 C48_3 1_555 1_555
C27_3 C28_3 1_555 1_555
C29_3 C36_3 1_555 1_555
I1_3 Cu1_3 1_555 1_555
I2_3 Cu2_3 1_555 1_555
Cu1_3 Cu4_3 1_555 1_555
Cu2_3 N2_3 1_555 1_555
Cu3_3 I2_3 1_555 1_555
Cu4_3 I1_3 1_555 1_555
O1_2 C3_3 1_555 1_555
O18_2 C10_3 1_555 1_555
O19 C7_3 1_555 1_555
O20_2 C16_3 1_555 1_555
O21 C50_3 1_555 1_555
O6_2 C3_3 1_555 1_555
O23_2 C16_3 1_555 1_555
O24 C7_3 1_555 1_555
O25_2 C10_3 1_555 1_555
N1_3 Cu3_3 1_555 1_555
O26 C50_3 1_555 1_555
N2_3 C2_3 1_555 1_555
O14_3 Cu2_3 1_555 1_555
N3_3 Cu3_3 1_555 1_555
N4_3 Cu2_3 1_555 1_555
N5_3 Cu4_3 1_555 1_555
C1_3 H1_3 1_555 1_555
C2_3 H2_3 1_555 1_555
C3_3 C24_3 1_555 1_555
C4_3 N5_3 1_555 1_555
H3_3 C4_3 1_555 1_555
C7_3 C31_3 1_555 1_555
C9_3 O14_3 1_555 1_555
C10_3 C22_3 1_555 1_555
H4_3 C11_3 1_555 1_555
C12_3 C25_3 1_555 1_555
C13_3 N3_3 1_555 1_555
H5_3 C13_3 1_555 1_555
C14_3 N3_3 1_555 1_555
H6_3 C14_3 1_555 1_555
C16_3 C18_3 1_555 1_555
C17_3 H8_3 1_555 1_555
C18_3 C42_3 1_555 1_555
C21_3 N1_3 1_555 1_555
H11_3 C21_3 1_555 1_555
C22_3 C30_3 1_555 1_555
C23_3 N4_3 1_555 1_555
H12_3 C23_3 1_555 1_555
C24_3 C33_3 1_555 1_555
C25_3 H13_3 1_555 1_555
C30_3 C23_3 1_555 1_555
H16_3 C30_3 1_555 1_555
C31_3 C1_3 1_555 1_555
C32_3 N4_3 1_555 1_555
H17_3 C32_3 1_555 1_555
N9_3 C9_3 1_555 1_555
C33_3 C21_3 1_555 1_555
H18_3 C33_3 1_555 1_555
C34_3 C24_3 1_555 1_555
C35_3 N1_3 1_555 1_555
C37_3 N5_3 1_555 1_555
H22_3 C37_3 1_555 1_555
C38_3 N2_3 1_555 1_555
H23_3 C38_3 1_555 1_555
C40_3 C9_3 1_555 1_555
H27_3 C40_3 1_555 1_555
H28_3 C40_3 1_555 1_555
H29_3 C40_3 1_555 1_555
C41_3 N9_3 1_555 1_555
H30_2 C41_3 1_555 1_555
H31_3 C41_3 1_555 1_555
H32_3 C41_3 1_555 1_555
C42_3 C14_3 1_555 1_555
H33_3 C42_3 1_555 1_555
C45_3 C2_3 1_555 1_555
H40_3 C45_3 1_555 1_555
C46_3 C13_3 1_555 1_555
H41_3 C46_3 1_555 1_555
C49_3 C22_3 1_555 1_555
H46_3 C49_3 1_555 1_555
C50_3 C12_3 1_555 1_555
I2_3 Cu4_3 1_555 1_555
Cu3_3 Cu4_3 1_555 1_555
C1_3 C4_3 1_555 1_555
C12_3 C45_3 1_555 1_555
C17_3 C31_3 1_555 1_555
C17_3 C37_3 1_555 1_555
C18_3 C46_3 1_555 1_555
C25_3 C38_3 1_555 1_555
C32_3 C49_3 1_555 1_555
C34_3 C35_3 1_555 1_555
Cu2_4 N2_4 1_555 1_555
O18 C10_4 1_555 1_555
O21_2 C50_4 1_555 1_555
O25 C10_4 1_555 1_555
O26_2 C50_4 1_555 1_555
N2_4 C2_4 1_555 1_555
N4_4 Cu2_4 1_555 1_555
C2_4 H2_4 1_555 1_555
C10_4 C22_4 1_555 1_555
C12_4 C25_4 1_555 1_555
C22_4 C30_4 1_555 1_555
C23_4 N4_4 1_555 1_555
C25_4 H13_4 1_555 1_555
C30_4 C23_4 1_555 1_555
H16_4 C30_4 1_555 1_555
C32_4 N4_4 1_555 1_555
H17_4 C32_4 1_555 1_555
C38_4 N2_4 1_555 1_555
H23_4 C38_4 1_555 1_555
C45_4 C2_4 1_555 1_555
H40_4 C45_4 1_555 1_555
C49_4 C22_4 1_555 1_555
H46_4 C49_4 1_555 1_555
C50_4 C12_4 1_555 1_555
C12_4 C45_4 1_555 1_555
C25_4 C38_4 1_555 1_555
C32_4 C49_4 1_555 1_555
I1_4 Cu1_4 1_555 1_555
I3_4 Cu1_4 1_555 1_555
Cu1_4 Cu4_4 1_555 1_555
Cu3_4 I2_4 1_555 1_555
Cu4_4 I1_4 1_555 1_555
O17_2 C3_4 1_555 1_555
O19_2 C7_4 1_555 1_555
O20 C16_4 1_555 1_555
O22_2 C3_4 1_555 1_555
O23 C16_4 1_555 1_555
O8_4 C8_4 1_555 1_555
O24_2 C7_4 1_555 1_555
N1_4 Cu3_4 1_555 1_555
O27_2 C5_4 1_555 1_555
O13_4 C8_4 1_555 1_555
N3_4 Cu3_4 1_555 1_555
N5_4 Cu4_4 1_555 1_555
C3_4 C24_4 1_555 1_555
C4_4 N5_4 1_555 1_555
H3_4 C4_4 1_555 1_555
N6_4 Cu1_4 1_555 1_555
C7_4 C31_4 1_555 1_555
N7_4 Cu1_4 1_555 1_555
C8_4 C29_4 1_555 1_555
C9_4 O14_4 1_555 1_555
C11_4 N6_4 1_555 1_555
H4_4 C11_4 1_555 1_555
C13_4 N3_4 1_555 1_555
H5_4 C13_4 1_555 1_555
C14_4 N3_4 1_555 1_555
H6_4 C14_4 1_555 1_555
C15_4 C11_4 1_555 1_555
H7_4 C15_4 1_555 1_555
C16_4 C18_4 1_555 1_555
C17_4 H8_4 1_555 1_555
C18_4 C42_4 1_555 1_555
C19_4 N6_4 1_555 1_555
H9_4 C19_4 1_555 1_555
C20_4 N7_4 1_555 1_555
H10_4 C20_4 1_555 1_555
C21_4 N1_4 1_555 1_555
H11_4 C21_4 1_555 1_555
C24_4 C33_4 1_555 1_555
C26_4 H14_4 1_555 1_555
C27_4 C5_4 1_555 1_555
C28_4 C20_4 1_555 1_555
C29_4 C15_4 1_555 1_555
C31_4 C1_4 1_555 1_555
N9_4 C9_4 1_555 1_555
C33_4 C21_4 1_555 1_555
H18_4 C33_4 1_555 1_555
C34_4 C24_4 1_555 1_555
H19_4 C34_4 1_555 1_555
C35_4 N1_4 1_555 1_555
H20_4 C35_4 1_555 1_555
C36_4 C19_4 1_555 1_555
H21_4 C36_4 1_555 1_555
C37_4 N5_4 1_555 1_555
H22_4 C37_4 1_555 1_555
C39_4 N9_4 1_555 1_555
H24_4 C39_4 1_555 1_555
H25_4 C39_4 1_555 1_555
H26_4 C39_4 1_555 1_555
C40_4 C9_4 1_555 1_555
H27_4 C40_4 1_555 1_555
H28_4 C40_4 1_555 1_555
H29_4 C40_4 1_555 1_555
C41_4 N9_4 1_555 1_555
H30_3 C41_4 1_555 1_555
H31_4 C41_4 1_555 1_555
H32_4 C41_4 1_555 1_555
C42_4 C14_4 1_555 1_555
H33_4 C42_4 1_555 1_555
C46_4 C13_4 1_555 1_555
H41_4 C46_4 1_555 1_555
C48_4 N7_4 1_555 1_555
H45_4 C48_4 1_555 1_555
I2_4 Cu4_4 1_555 1_555
I3_4 Cu3_4 1_555 1_555
I3_4 Cu4_4 1_555 1_555
Cu3_4 Cu4_4 1_555 1_555
C1_4 C4_4 1_555 1_555
C17_4 C31_4 1_555 1_555
C17_4 C37_4 1_555 1_555
C18_4 C46_4 1_555 1_555
C26_4 C27_4 1_555 1_555
C26_4 C48_4 1_555 1_555
C27_4 C28_4 1_555 1_555
C29_4 C36_4 1_555 1_555
C34_4 C35_4 1_555 1_555
H34_4 C43_4 1_555 1_555
H35_4 C43_4 1_555 1_555
H36_4 C43_4 1_555 1_555
N8_4 C6_4 1_555 1_555
C44_4 N8_4 1_555 1_555
H37_4 C44_4 1_555 1_555
H38_4 C44_4 1_555 1_555
H39_2 C44_4 1_555 1_555
C47_4 C6_4 1_555 1_555
H42_4 C47_4 1_555 1_555
H43_4 C47_4 1_555 1_555
H44_4 C47_4 1_555 1_555

#END
