
###############################################################################
#
# This file contains modified crystal structure data generated from the
# MOF subset of the Cambridge Structural Database (CSD) v543 
# hosted by the Cambridge Crystallographic Data Centre (CCDC).
#
# This work is licensed under the Creative Commons
# Attribution-NonCommercial-ShareAlike 4.0 International License.
# To view a copy of this license, visit
# http://creativecommons.org/licenses/by-nc-sa/4.0/
# or send a letter to
# Creative Commons, PO Box 1866, Mountain View, CA 94042, USA.
#
# CIF created using the CSD Python API on 29 September 2022
# The structure has been converted into the P1 space group
# The structure has a 3D framework
# The original CSD entry TEBYIK is in the monoclinic crystal system
# The framework has been calculated to contain at least 10.0% void space
# The void calculation uses a probe of radius 1.32A, grid spacing 0.4
#
###############################################################################

data_TEBYIK
_chemical_formula_moiety         '(C76 H48 Co3 N8 O20)n'
_symmetry_cell_setting           triclinic
_symmetry_space_group_name_H-M   'P 1'
_symmetry_Int_Tables_number      1
_space_group_name_Hall           'P 1'
loop_
_symmetry_equiv_pos_site_id
_symmetry_equiv_pos_as_xyz
1 x,y,z
_cell_length_a                   16.2527(16)
_cell_length_b                   6.0705(6)
_cell_length_c                   21.847(2)
_cell_angle_alpha                90
_cell_angle_beta                 96.496(2)
_cell_angle_gamma                90
_cell_volume                     2141.63
loop_
_atom_site_label
_atom_site_type_symbol
_atom_site_fract_x
_atom_site_fract_y
_atom_site_fract_z
H3 H 0.1066 0.0131 0.1468
H14 H 0.0373 0.1149 0.7212
H16 H 0.0922 0.1020 0.8814
H24 H 0.1549 0.0318 0.9804
Co1 Co 0.24055(5) 0.61615(13) 0.15152(3)
N1 N 0.3332(3) 0.4440(8) 0.1117(2)
N2 N 0.1385(3) 0.7427(8) 0.1931(2)
O1 O 0.2241(3) 0.3749(7) 0.21430(19)
C1 C 0.1761(4) 0.4216(9) 0.2539(3)
C2 C 0.1202(4) 0.6160(10) 0.2401(3)
C3 C 0.0539(4) 0.6641(11) 0.2730(3)
H1 H 0.0415 0.5730 0.3050
C4 C 0.0072(4) 0.8490(12) 0.2574(3)
C5 C 0.0268(4) 0.9785(11) 0.2102(3)
C6 C 0.0933(4) 0.9230(10) 0.1786(3)
C10 C 0.4078(4) 0.5252(11) 0.1047(3)
H6 H 0.4215 0.6639 0.1208
C11 C 0.4657(4) 0.4144(11) 0.0747(3)
H7 H 0.5172 0.4772 0.0713
C12 C 0.4459(4) 0.2064(11) 0.0495(3)
C13 C 0.5068(5) 0.0918(11) 0.0163(4)
H8 H 0.5594 0.1531 0.0182
C14 C 0.3699(4) 0.1210(11) 0.0579(3)
C15 C 0.3152(4) 0.2425(11) 0.0890(3)
H10 H 0.2640 0.1813 0.0943
O5 O 0.1719(3) 0.3187(7) 0.30286(19)
Co4 Co 0.25945(5) 0.11615(13) 0.34848(3)
O9 O 0.2107(3) 0.8131(7) 0.07273(19)
O11 O 0.1513(3) 0.4879(8) 0.0726(2)
C38 C 0.1628(4) 0.6672(10) 0.0466(3)
O14 O 0.3281(3) 0.8187(7) 0.19714(19)
Co2 Co 0.75945(5) 0.38385(13) 0.84848(3)
N3 N 0.6668(3) 0.5560(8) 0.8883(2)
N5 N 0.8615(3) 0.2573(8) 0.8069(2)
O7 O 0.7759(3) 0.6251(7) 0.78570(19)
C29 C 0.5922(4) 0.4748(11) 0.8953(3)
H18 H 0.5785 0.3361 0.8792
C30 C 0.5343(4) 0.5856(11) 0.9253(3)
H19 H 0.4828 0.5228 0.9287
C31 C 0.5541(4) 0.7936(11) 0.9505(3)
C32 C 0.4932(5) 0.9082(11) 0.9837(4)
H20 H 0.4406 0.8469 0.9818
C33 C 0.6301(4) 0.8790(11) 0.9421(3)
C34 C 0.6848(4) 0.7575(11) 0.9110(3)
H22 H 0.7360 0.8187 0.9057
O10 O 0.7893(3) 0.1869(7) 0.92727(19)
O12 O 0.8487(3) 0.5121(8) 0.9274(2)
O15 O 0.6719(3) 0.1813(7) 0.80286(19)
C19 C 0.8372(4) 0.3328(10) 0.9534(3)
Co5 Co 0.74055(5) 0.88385(13) 0.65152(3)
C20 C 0.8239(4) 0.5784(9) 0.7461(3)
C21 C 0.8798(4) 0.3840(10) 0.7599(3)
C22 C 0.9461(4) 0.3359(11) 0.7270(3)
H13 H 0.9585 0.4270 0.6950
C23 C 0.9928(4) 0.1510(12) 0.7426(3)
C24 C 0.9732(4) 0.0215(11) 0.7898(3)
C25 C 0.9067(4) 0.0770(10) 0.8214(3)
O13 O 0.8281(3) 0.6813(7) 0.69714(19)
H5 H 0.5124 0.0179 0.3674
O4 O 0.6513(3) 0.0121(8) 0.5726(2)
H11 H 0.5713 0.0878 0.4674
O6 O 0.7241(3) 0.1251(7) 0.71430(19)
C20_2 C 0.6761(4) 0.0784(9) 0.7539(3)
N2_2 N 0.3615(3) 0.2427(8) 0.3069(2)
O2 O 0.5154(3) 0.6726(8) 0.3039(2)
C2_2 C 0.3798(4) 0.1160(10) 0.2599(3)
C3_2 C 0.4461(4) 0.1641(11) 0.2270(3)
H1_2 H 0.4585 0.0730 0.1950
C4_2 C 0.4928(4) 0.3490(12) 0.2426(3)
H2 H 0.5373 0.3851 0.2212
C5_2 C 0.4732(4) 0.4785(11) 0.2898(3)
C6_2 C 0.4067(4) 0.4230(10) 0.3214(3)
H3_2 H 0.3934 0.5131 0.3532
C7 C 0.5494(4) 0.7017(11) 0.3651(3)
C8 C 0.5894(5) 0.5380(13) 0.3983(3)
H4 H 0.5922 0.3980 0.3814
C9 C 0.5414(5) 0.9077(12) 0.3903(3)
C10_2 C 0.0922(4) 0.0252(11) 0.3953(3)
H6_2 H 0.0785 0.1639 0.3792
O3 O 0.7107(3) 0.6869(7) 0.57273(19)
C16 C 0.5769(4) 0.9496(12) 0.4499(3)
C17 C 0.6206(4) 0.7859(10) 0.4834(3)
C18 C 0.6263(5) 0.5797(12) 0.4578(3)
H12 H 0.6549 0.4682 0.4804
C19_2 C 0.6628(4) 0.8328(10) 0.5466(3)
N4 N 0.6385(3) 0.7573(8) 0.6931(2)
O8 O 0.4846(3) 0.3274(8) 0.6961(2)
C21_2 C 0.6202(4) 0.8840(10) 0.7401(3)
C22_2 C 0.5539(4) 0.8359(11) 0.7730(3)
H13_2 H 0.5415 0.9270 0.8050
C23_2 C 0.5072(4) 0.6510(12) 0.7574(3)
H14_2 H 0.4627 0.6149 0.7788
C24_2 C 0.5268(4) 0.5215(11) 0.7102(3)
C25_2 C 0.5933(4) 0.5770(10) 0.6786(3)
H15 H 0.6066 0.4869 0.6468
C26 C 0.4506(4) 0.2983(11) 0.6349(3)
C27 C 0.4106(5) 0.4620(13) 0.6017(3)
H16_2 H 0.4078 0.6020 0.6186
C28 C 0.4586(5) 0.0923(12) 0.6097(3)
O9_2 O 0.2893(3) 0.3131(7) 0.42727(19)
C35 C 0.4231(4) 0.0504(12) 0.5501(3)
C36 C 0.3794(4) 0.2141(10) 0.5166(3)
C37 C 0.3737(5) 0.4203(12) 0.5422(3)
H24_2 H 0.3451 0.5318 0.5196
C38_2 C 0.3372(4) 0.1672(10) 0.4534(3)
N1_2 N 0.1668(3) 0.9440(8) 0.3883(2)
O1_2 O 0.2759(3) 0.8749(7) 0.28570(19)
C1_2 C 0.3239(4) 0.9216(9) 0.2461(3)
C11_2 C 0.0343(4) 0.9144(11) 0.4253(3)
C12_2 C 0.0541(4) 0.7064(11) 0.4505(3)
C14_2 C 0.1301(4) 0.6210(11) 0.4421(3)
H9 H 0.1451 0.4818 0.4573
C15_2 C 0.1848(4) 0.7425(11) 0.4110(3)
H10_2 H 0.2360 0.6813 0.4057
H17 H 0.4876 0.9821 0.6326
H19_2 H 0.0172 0.0228 0.5713
C32_2 C 0.0068(5) 0.4082(11) 0.5163(4)
H20_2 H 0.0594 0.3469 0.5182
O11_2 O 0.3487(3) 0.9879(8) 0.4274(2)
H23 H 0.4287 0.9122 0.5326
H7_2 H 0.9828 0.9772 0.4287
C13_2 C 0.9932(5) 0.5918(11) 0.4837(4)
H8_2 H 0.9406 0.6531 0.4818
N3_2 N 0.8332(3) 0.0560(8) 0.6117(2)
C30_2 C 0.9657(4) 0.0856(11) 0.5747(3)
C31_2 C 0.9459(4) 0.2936(11) 0.5495(3)
C33_2 C 0.8699(4) 0.3790(11) 0.5579(3)
H21 H 0.8549 0.5182 0.5427
C34_2 C 0.8152(4) 0.2575(11) 0.5890(3)
H22_2 H 0.7640 0.3187 0.5943
C29_2 C 0.9078(4) 0.9748(11) 0.6047(3)
H18_2 H 0.9215 0.8361 0.6208
O8_2 O 0.0154(3) 0.8274(8) 0.8039(2)
C26_2 C 0.0494(4) 0.7983(11) 0.8651(3)
C27_2 C 0.0894(5) 0.9620(13) 0.8983(3)
C28_2 C 0.0414(5) 0.5923(12) 0.8903(3)
H17_2 H 0.0124 0.4821 0.8674
H21_2 H 0.6451 0.0182 0.9573
C35_2 C 0.0769(4) 0.5504(12) 0.9499(3)
H23_2 H 0.0713 0.4122 0.9674
C36_2 C 0.1206(4) 0.7141(10) 0.9834(3)
C37_2 C 0.1263(5) 0.9203(12) 0.9578(3)
H9_2 H 0.3549 0.9818 0.0427
O2_2 O 0.9846(3) 0.1726(8) 0.1961(2)
C7_2 C 0.9506(4) 0.2017(11) 0.1349(3)
C8_2 C 0.9106(5) 0.0380(13) 0.1017(3)
C9_2 C 0.9586(5) 0.4077(12) 0.1097(3)
H5_2 H 0.9876 0.5179 0.1326
C16_2 C 0.9231(4) 0.4496(12) 0.0501(3)
H11_2 H 0.9287 0.5878 0.0326
C17_2 C 0.8794(4) 0.2859(10) 0.0166(3)
C18_2 C 0.8737(5) 0.0797(12) 0.0422(3)
H2_2 H 0.9627 0.8851 0.2788
H4_2 H 0.9078 0.8980 0.1186
H12_2 H 0.8451 0.9682 0.0196
H15_2 H 0.8934 0.9869 0.8532
loop_
_geom_bond_atom_site_label_1
_geom_bond_atom_site_label_2
_geom_bond_site_symmetry_1
_geom_bond_site_symmetry_2
Co1 N1 1_555 1_555
N1 C10 1_555 1_555
N2 Co1 1_555 1_555
O1 Co1 1_555 1_555
C1 O1 1_555 1_555
C2 N2 1_555 1_555
C3 C2 1_555 1_555
H1 C3 1_555 1_555
C4 C3 1_555 1_555
C5 C4 1_555 1_555
C6 N2 1_555 1_555
C10 H6 1_555 1_555
C11 C10 1_555 1_555
H7 C11 1_555 1_555
C12 C11 1_555 1_555
C13 C12 1_555 1_555
H8 C13 1_555 1_555
C14 C12 1_555 1_555
C15 N1 1_555 1_555
H10 C15 1_555 1_555
O5 C1 1_555 1_555
Co4 O5 1_555 1_555
O9 Co1 1_555 1_555
O11 Co1 1_555 1_555
C38 O9 1_555 1_555
O14 Co1 1_555 1_555
C1 C2 1_555 1_555
C5 C6 1_555 1_555
C14 C15 1_555 1_555
O11 C38 1_555 1_555
Co2 N3 1_555 1_555
N3 C29 1_555 1_555
N5 Co2 1_555 1_555
O7 Co2 1_555 1_555
C29 H18 1_555 1_555
C30 C29 1_555 1_555
H19 C30 1_555 1_555
C31 C30 1_555 1_555
H20 C32 1_555 1_555
C33 C31 1_555 1_555
C34 N3 1_555 1_555
H22 C34 1_555 1_555
O10 Co2 1_555 1_555
O12 Co2 1_555 1_555
O15 Co2 1_555 1_555
C31 C32 1_555 1_555
C33 C34 1_555 1_555
O10 C19 1_555 1_555
O12 C19 1_555 1_555
Co5 O13 1_555 1_555
C20 O7 1_555 1_555
C21 N5 1_555 1_555
C22 C21 1_555 1_555
H13 C22 1_555 1_555
C23 C22 1_555 1_555
C24 C23 1_555 1_555
C25 N5 1_555 1_555
O13 C20 1_555 1_555
C20 C21 1_555 1_555
C24 C25 1_555 1_555
C20_2 O6 1_555 1_555
O15 C20_2 1_555 1_555
N2_2 Co4 1_555 1_555
O2 C5_2 1_555 1_555
C2_2 N2_2 1_555 1_555
C3_2 C2_2 1_555 1_555
H1_2 C3_2 1_555 1_555
C4_2 C3_2 1_555 1_555
H2 C4_2 1_555 1_555
C5_2 C4_2 1_555 1_555
C6_2 N2_2 1_555 1_555
H3_2 C6_2 1_555 1_555
C7 O2 1_555 1_555
C8 C7 1_555 1_555
H4 C8 1_555 1_555
C9 C7 1_555 1_555
C10_2 H6_2 1_555 1_555
O3 C19_2 1_555 1_555
C16 C9 1_555 1_555
C17 C16 1_555 1_555
C18 C8 1_555 1_555
H12 C18 1_555 1_555
C19_2 C17 1_555 1_555
Co5 O3 1_555 1_555
N4 Co5 1_555 1_555
O8 C24_2 1_555 1_555
C21_2 N4 1_555 1_555
C22_2 C21_2 1_555 1_555
H13_2 C22_2 1_555 1_555
C23_2 C22_2 1_555 1_555
H14_2 C23_2 1_555 1_555
C24_2 C23_2 1_555 1_555
C25_2 N4 1_555 1_555
H15 C25_2 1_555 1_555
C26 O8 1_555 1_555
C27 C26 1_555 1_555
H16_2 C27 1_555 1_555
C28 C26 1_555 1_555
O9_2 Co4 1_555 1_555
C35 C28 1_555 1_555
C36 C35 1_555 1_555
C37 C27 1_555 1_555
H24_2 C37 1_555 1_555
C38_2 O9_2 1_555 1_555
C5_2 C6_2 1_555 1_555
C17 C18 1_555 1_555
C24_2 C25_2 1_555 1_555
C36 C37 1_555 1_555
C36 C38_2 1_555 1_555
C1_2 O1_2 1_555 1_555
C12_2 C11_2 1_555 1_555
C14_2 C12_2 1_555 1_555
H9 C14_2 1_555 1_555
C15_2 N1_2 1_555 1_555
H10_2 C15_2 1_555 1_555
O14 C1_2 1_555 1_555
H20_2 C32_2 1_555 1_555
C14_2 C15_2 1_555 1_555
H8_2 C13_2 1_555 1_555
C31_2 C30_2 1_555 1_555
C33_2 C31_2 1_555 1_555
H21 C33_2 1_555 1_555
C34_2 N3_2 1_555 1_555
H22_2 C34_2 1_555 1_555
C33_2 C34_2 1_555 1_555
C29_2 H18_2 1_555 1_555
C26_2 O8_2 1_555 1_555
C27_2 C26_2 1_555 1_555
C28_2 C26_2 1_555 1_555
H17_2 C28_2 1_555 1_555
C35_2 C28_2 1_555 1_555
H23_2 C35_2 1_555 1_555
C36_2 C35_2 1_555 1_555
C37_2 C27_2 1_555 1_555
C36_2 C37_2 1_555 1_555
C7_2 O2_2 1_555 1_555
C8_2 C7_2 1_555 1_555
C9_2 C7_2 1_555 1_555
H5_2 C9_2 1_555 1_555
C16_2 C9_2 1_555 1_555
H11_2 C16_2 1_555 1_555
C17_2 C16_2 1_555 1_555
C18_2 C8_2 1_555 1_555
C17_2 C18_2 1_555 1_555

#END
