
###############################################################################
#
# This file contains modified crystal structure data generated from the
# MOF subset of the Cambridge Structural Database (CSD) v543 
# hosted by the Cambridge Crystallographic Data Centre (CCDC).
#
# This work is licensed under the Creative Commons
# Attribution-NonCommercial-ShareAlike 4.0 International License.
# To view a copy of this license, visit
# http://creativecommons.org/licenses/by-nc-sa/4.0/
# or send a letter to
# Creative Commons, PO Box 1866, Mountain View, CA 94042, USA.
#
# CIF created using the CSD Python API on 29 September 2022
# The structure has been converted into the P1 space group
# The structure has a 3D framework
# The original CSD entry TECWUX is in the trigonal crystal system
# The original CSD entry TECWUX is in a Sohncke space group
# The framework has been calculated to contain at least 10.0% void space
# The void calculation uses a probe of radius 1.32A, grid spacing 0.4
#
###############################################################################

data_TECWUX
_chemical_formula_moiety         '(C156 H192 B6 N36 O30 Zn12)n'
_symmetry_cell_setting           triclinic
_symmetry_space_group_name_H-M   'P 1'
_symmetry_Int_Tables_number      1
_space_group_name_Hall           'P 1'
loop_
_symmetry_equiv_pos_site_id
_symmetry_equiv_pos_as_xyz
1 x,y,z
_cell_length_a                   12.56168(13)
_cell_length_b                   12.56168(13)
_cell_length_c                   48.2428(4)
_cell_angle_alpha                90
_cell_angle_beta                 90
_cell_angle_gamma                120
_cell_volume                     6592.63
loop_
_atom_site_label
_atom_site_type_symbol
_atom_site_fract_x
_atom_site_fract_y
_atom_site_fract_z
O2 O 0.0574(2) 0.5252(2) 0.61506(5)
O4 O 0.1831(3) 0.7025(2) 0.59437(5)
C3 C 0.0506(3) 0.7012(3) 0.62840(6)
C10 C 0.1004(3) 0.6378(3) 0.61136(6)
C14 C 0.0831(5) 0.8226(4) 0.62283(8)
H7 H 0.137063 0.864765 0.608406
C19 C 0.0360(5) 0.8797(4) 0.63853(9)
H12 H 0.057971 0.960752 0.634702
Zn4 Zn 0.10158(6) 0.40553(4) 0.59932(2)
Zn5 Zn 0.26455(6) 0.65364(4) 0.56594(2)
Zn1 Zn 0.69605(5) 0.59447(4) 0.73401(2)
Zn2 Zn 0.61091(5) 0.34636(4) 0.76739(2)
O1 O 0.7469(2) 0.5038(2) 0.75781(5)
O3 O 0.8019(3) 0.6897(3) 0.70389(5)
N2 N 0.6382(3) 0.0339(2) 0.78183(5)
N6 N 0.6239(3) 0.1946(2) 0.76851(5)
C2 C 0.6739(3) 0.1534(3) 0.78662(6)
C5 C 0.5604(4) 0.0011(3) 0.75907(6)
C8 C 0.5509(4) 0.0963(4) 0.75135(6)
H4 H 0.503067 0.097559 0.736781
C9 C 0.9712(4) 0.6412(3) 0.64951(6)
H5 H 0.947619 0.559646 0.653118
C12 C 0.8372(5) 0.6294(4) 0.68952(8)
C13 C 0.9243(4) 0.7002(3) 0.66587(6)
C15 C 0.7631(4) 0.2303(4) 0.80857(10)
H8 H 0.810526 0.188920 0.811897
O5 O 0.8065(5) 0.5244(3) 0.69379(9)
C18 C 0.9576(5) 0.8196(4) 0.65959(8)
H11 H 0.925731 0.859589 0.669970
H15 H 0.721921 0.016605 0.883715
H16 H 0.806221 0.030791 0.858386
H23 H 0.855688 0.045909 0.745388
C25 C 0.7014(8) 0.2191(6) 0.83568(9)
H27 H 0.630687 0.228217 0.832866
H28 H 0.757640 0.282092 0.848037
H29 H 0.676077 0.139855 0.843588
C26 C 0.8502(11) 0.3472(11) 0.8033(3)
H30 H 0.925550 0.349816 0.798366
H31 H 0.863133 0.396689 0.819449
H32 H 0.824060 0.378550 0.788173
O6 O 0.5322(3) 0.4748(2) 0.71827(5)
N7 N 0.6468(3) 0.6961(2) 0.75736(5)
N8 N 0.5422(3) 0.3714(4) 0.80274(5)
O7 O 0.4806(4) 0.2975(2) 0.73896(5)
N1 N 0.5601(3) 0.9049(2) 0.82480(5)
N4 N 0.6277(2) 0.8284(2) 0.78395(5)
N5 N 0.4578(3) 0.8292(3) 0.86393(5)
C1 C 0.5626(3) 0.8618(3) 0.85039(6)
C4 C 0.7039(3) 0.8057(3) 0.76879(6)
H1 H 0.521378 0.924192 0.750643
C6 C 0.5255(3) 0.6444(3) 0.76509(7)
H2 H 0.462692 0.566737 0.759967
C7 C 0.5125(3) 0.7247(3) 0.78136(8)
H3 H 0.439881 0.712717 0.789331
C11 C 0.3867(3) 0.8539(3) 0.84669(7)
H6 H 0.309504 0.842587 0.850901
C16 C 0.4466(4) 0.8971(4) 0.82273(6)
H9 H 0.416914 0.918315 0.807277
C17 C 0.6662(4) 0.8542(4) 0.86351(7)
H10 H 0.631103 0.804648 0.880265
B1 B 0.6550(4) 0.9437(4) 0.80070(7)
H13 H 0.738872 0.983405 0.808092
C20 C 0.8373(4) 0.8962(4) 0.76521(12)
H14 H 0.859981 0.951995 0.781092
C21 C 0.7617(5) 0.9798(5) 0.87386(10)
H17 H 0.817755 0.971748 0.886034
C22 C 0.7150(5) 0.7877(5) 0.84723(11)
H18 H 0.650828 0.726952 0.835787
H19 H 0.744224 0.748228 0.859632
H20 H 0.781427 0.845001 0.835731
C23 C 0.8601(10) 0.9743(8) 0.7404(3)
H21 H 0.799020 0.928532 0.726543
H22 H 0.940195 0.998845 0.733062
C24 C 0.9171(6) 0.8418(9) 0.7669(2)
H24 H 0.903280 0.790275 0.751025
H25 H 0.898646 0.793513 0.783472
Zn6 Zn 0.38909(5) 0.73545(6) 0.89928(2)
N1_2 N 0.0951(2) 0.6552(4) 0.49147(5)
N3 N 0.3039(2) 0.9507(4) 0.42403(5)
N4_2 N 0.1716(2) 0.7993(3) 0.45062(5)
N5_2 N 0.1708(3) 0.6286(4) 0.53060(5)
C1_2 C 0.1382(3) 0.7008(4) 0.51706(6)
C4_2 C 0.1943(3) 0.8982(4) 0.43546(6)
H1_2 H 0.075808 0.597186 0.417310
C6_2 C 0.3556(3) 0.8811(4) 0.43176(7)
H2_2 H 0.433263 0.895955 0.426634
C7_2 C 0.2753(3) 0.7878(4) 0.44803(8)
H3_2 H 0.287283 0.727164 0.455998
C11_2 C 0.1461(3) 0.5328(4) 0.51336(7)
H6_2 H 0.157413 0.466917 0.517568
C16_2 C 0.1029(4) 0.5495(6) 0.48940(6)
H9_2 H 0.081685 0.498599 0.473944
C17_2 C 0.1458(4) 0.8120(6) 0.53018(7)
H10_2 H 0.195352 0.826455 0.546932
B1_2 B 0.0563(4) 0.7113(6) 0.46737(7)
H13_2 H 0.016595 0.755467 0.474759
C20_2 C 0.1038(4) 0.9411(6) 0.43188(12)
H14_2 H 0.048005 0.907986 0.447759
C21_2 C 0.0202(5) 0.7819(7) 0.54053(10)
H17_2 H 0.028252 0.846007 0.552701
C22_2 C 0.2123(5) 0.9273(7) 0.51390(11)
H18_2 H 0.273048 0.923876 0.502454
H19_2 H 0.251772 0.995996 0.526299
H20_2 H 0.154999 0.936426 0.502398
C23_2 C 0.0257(8) 0.8858(13) 0.4071(3)
H21_2 H 0.071468 0.870488 0.393210
H22_2 H 0.001155 0.941350 0.399729
O2_2 O 0.4678(3) 0.9426(2) 0.94839(5)
O4_2 O 0.5194(4) 0.8169(3) 0.92770(5)
C3_2 C 0.6506(4) 0.9494(3) 0.96173(6)
C10_2 C 0.5374(4) 0.8996(3) 0.94469(6)
C14_2 C 0.7395(6) 0.9169(5) 0.95616(8)
H7_2 H 0.727702 0.862937 0.941739
C19_2 C 0.8437(6) 0.9640(5) 0.97186(9)
H12_2 H 0.902781 0.942029 0.968035
Zn4_2 Zn 0.30395(7) 0.89842(6) 0.93266(2)
C24_2 C 0.0753(11) 0.1582(9) 0.5664(2)
H24_2 H 0.113005 0.209725 0.582308
H25_2 H 0.105133 0.206487 0.549861
H26 H 0.095491 0.093880 0.566095
O1_2 O 0.2431(3) 0.4962(2) 0.57552(5)
O3_2 O 0.1122(4) 0.3103(3) 0.62944(5)
N2_2 N 0.6043(4) 0.9661(2) 0.55150(5)
N6_2 N 0.4293(4) 0.8054(2) 0.56482(5)
C2_2 C 0.5205(4) 0.8466(3) 0.54671(6)
C3_3 C 0.3494(4) 0.2988(3) 0.70493(6)
C5_2 C 0.5593(5) 0.9989(3) 0.57426(6)
C8_2 C 0.4546(6) 0.9037(4) 0.58198(6)
H4_2 H 0.405508 0.902441 0.596552
C9_2 C 0.3300(5) 0.3588(3) 0.68382(6)
H5_2 H 0.387973 0.440354 0.680215
C10_3 C 0.4626(4) 0.3622(3) 0.72197(6)
C12_2 C 0.2078(6) 0.3706(4) 0.64381(8)
C13_2 C 0.2241(5) 0.2998(3) 0.66746(6)
C14_3 C 0.2605(6) 0.1774(4) 0.71050(8)
H7_3 H 0.272298 0.135235 0.724927
C15_2 C 0.5328(6) 0.7697(4) 0.52476(10)
H8_2 H 0.621606 0.811080 0.521436
O5_2 O 0.2821(6) 0.4756(3) 0.63954(9)
C18_2 C 0.1380(6) 0.1804(4) 0.67374(8)
H11_2 H 0.066142 0.140411 0.663363
C19_3 C 0.1563(6) 0.1203(4) 0.69480(9)
H12_3 H 0.097219 0.039248 0.698631
H15_2 H 0.705316 0.983395 0.449618
H16_2 H 0.775430 0.969209 0.474947
H23_2 H 0.809779 0.954091 0.587945
C25_2 C 0.4823(10) 0.7809(6) 0.49765(9)
H27_2 H 0.402470 0.771783 0.500467
H28_2 H 0.475548 0.717908 0.485296
H29_2 H 0.536222 0.860145 0.489745
C26_2 C 0.5030(16) 0.6528(11) 0.5300(3)
H30_2 H 0.575734 0.650184 0.534967
H31_2 H 0.466444 0.603311 0.513884
H32_2 H 0.445510 0.621450 0.545160
N7_2 N 0.3532(3) 0.0493(4) 0.90931(5)
O1_3 O 0.2531(2) 0.7569(3) 0.90886(5)
N1_3 N 0.4399(3) 0.3448(4) 0.84187(5)
O3_3 O 0.1981(3) 0.8878(4) 0.96278(5)
N2_3 N 0.3618(3) 0.3957(4) 0.88484(5)
N4_3 N 0.3723(2) 0.2007(3) 0.88272(5)
N6_3 N 0.3761(3) 0.5707(4) 0.89816(5)
C1_3 C 0.4374(3) 0.2992(4) 0.81628(6)
C2_3 C 0.3261(3) 0.4795(4) 0.88005(6)
C4_3 C 0.2961(3) 0.1018(4) 0.89788(6)
C5_3 C 0.4396(4) 0.4407(5) 0.90760(6)
H1_3 H 0.478622 0.402814 0.916024
C6_3 C 0.4745(3) 0.1189(4) 0.90158(7)
H2_3 H 0.537308 0.104045 0.906700
C7_3 C 0.4875(3) 0.2122(4) 0.88531(8)
H3_3 H 0.560119 0.272836 0.877336
C8_3 C 0.4491(4) 0.5454(6) 0.91532(6)
H4_3 H 0.496933 0.594492 0.929886
C11_3 C 0.6133(3) 0.4672(4) 0.81998(7)
H6_3 H 0.690496 0.533083 0.815766
C12_3 C 0.1628(5) 0.7922(6) 0.97715(8)
C15_3 C 0.2369(4) 0.4672(6) 0.85810(10)
H8_3 H 0.189474 0.378394 0.854770
C16_3 C 0.5534(4) 0.4505(6) 0.84394(6)
H9_3 H 0.583086 0.501401 0.859390
O5_3 O 0.1935(5) 0.7179(6) 0.97288(9)
C17_3 C 0.3338(4) 0.1880(6) 0.80316(7)
H10_3 H 0.368897 0.173545 0.786402
H11_3 H 0.074269 0.933858 0.996697
B1_3 B 0.3450(4) 0.2887(6) 0.86597(7)
H13_3 H 0.261128 0.244533 0.858575
C20_3 C 0.1627(4) 0.0589(6) 0.90146(12)
H14_3 H 0.140019 0.092014 0.885575
C21_3 C 0.2383(5) 0.2181(7) 0.79281(10)
H15_3 H 0.278079 0.294684 0.782952
H16_3 H 0.193779 0.224570 0.808281
H17_3 H 0.182245 0.153993 0.780633
C22_3 C 0.2850(5) 0.0727(7) 0.81944(11)
H18_3 H 0.349172 0.076124 0.830880
H19_3 H 0.255776 0.004004 0.807035
H20_3 H 0.218573 0.063574 0.830936
C23_3 C 0.1399(10) 0.1142(13) 0.9263(3)
H21_3 H 0.200980 0.129512 0.940124
H22_3 H 0.059805 0.058650 0.933605
H23_3 H 0.144312 0.190221 0.921279
C25_3 C 0.2986(8) 0.5177(10) 0.83099(9)
H27_3 H 0.369313 0.597530 0.833801
H28_3 H 0.242360 0.524452 0.818630
H29_3 H 0.323923 0.463778 0.823079
C26_3 C 0.1498(11) 0.4970(16) 0.8634(3)
H30_3 H 0.074450 0.424266 0.868301
H31_3 H 0.136867 0.533556 0.847218
H32_3 H 0.175940 0.554490 0.878494
C24_3 C 0.0829(6) 0.9247(11) 0.8998(2)
H24_3 H 0.096720 0.886995 0.915642
H25_3 H 0.101354 0.894867 0.883195
H26_2 H 0.001611 0.906120 0.767238
C24_4 C 0.1582(9) 0.0753(11) 0.4336(2)
H24_4 H 0.209725 0.113005 0.417692
H25_4 H 0.206487 0.105133 0.450139
H26_3 H 0.093880 0.095491 0.433905
Zn3 Zn 0.40553(4) 0.10158(6) 0.40068(2)
Zn2_2 Zn 0.65364(4) 0.26455(6) 0.43406(2)
O1_4 O 0.4962(2) 0.2431(3) 0.42448(5)
O2_3 O 0.4748(2) 0.5322(3) 0.28173(5)
O3_4 O 0.3103(3) 0.1122(4) 0.37056(5)
N2_4 N 0.9661(2) 0.6043(4) 0.44850(5)
O4_3 O 0.2975(2) 0.4806(4) 0.26104(5)
N6_4 N 0.8054(2) 0.4293(4) 0.43518(5)
C2_4 C 0.8466(3) 0.5205(4) 0.45329(6)
C3_4 C 0.2988(3) 0.3494(4) 0.29507(6)
C5_4 C 0.9989(3) 0.5593(5) 0.42574(6)
C8_4 C 0.9037(4) 0.4546(6) 0.41802(6)
H4_4 H 0.902441 0.405508 0.403448
C9_3 C 0.3588(3) 0.3300(5) 0.31618(6)
H5_3 H 0.440354 0.387973 0.319785
C10_4 C 0.3622(3) 0.4626(4) 0.27803(6)
C12_4 C 0.3706(4) 0.2078(6) 0.35619(8)
C13_3 C 0.2998(3) 0.2241(5) 0.33254(6)
C14_4 C 0.1774(4) 0.2605(6) 0.28950(8)
H7_4 H 0.135235 0.272298 0.275073
C15_4 C 0.7697(4) 0.5328(6) 0.47524(10)
H8_4 H 0.811080 0.621606 0.478564
O5_4 O 0.4756(3) 0.2821(6) 0.36046(9)
C18_3 C 0.1804(4) 0.1380(6) 0.32626(8)
H11_4 H 0.140411 0.066142 0.336637
C19_4 C 0.1203(4) 0.1563(6) 0.30520(9)
H12_4 H 0.039248 0.097219 0.301369
H15_4 H 0.983395 0.705316 0.550382
H16_4 H 0.969209 0.775430 0.525053
H23_4 H 0.954091 0.809779 0.412055
C25_4 C 0.7809(6) 0.4823(10) 0.50235(9)
H27_4 H 0.771783 0.402470 0.499533
H28_4 H 0.717908 0.475548 0.514704
H29_4 H 0.860145 0.536222 0.510255
C26_4 C 0.6528(11) 0.5030(16) 0.4700(3)
H30_4 H 0.650184 0.575734 0.465033
H31_4 H 0.603311 0.466444 0.486116
H32_4 H 0.621450 0.445510 0.454840
Zn4_3 Zn 0.59447(4) 0.69605(7) 0.26599(2)
Zn5_2 Zn 0.34636(4) 0.61091(7) 0.23261(2)
O6_2 O 0.5252(2) 0.0574(4) 0.38494(5)
N8_2 N 0.6286(4) 0.1708(5) 0.46940(5)
O7_2 O 0.7025(2) 0.1831(4) 0.40563(5)
N7_3 N 0.0493(4) 0.3532(3) 0.09069(5)
Zn1_2 Zn 0.89842(6) 0.30395(5) 0.06734(2)
Zn2_3 Zn 0.73545(6) 0.38909(5) 0.10072(2)
O1_5 O 0.7569(3) 0.2531(2) 0.09114(5)
N1_4 N 0.3448(4) 0.4399(3) 0.15813(5)
O3_5 O 0.8878(4) 0.1981(3) 0.03722(5)
N2_5 N 0.3957(4) 0.3618(3) 0.11516(5)
N4_4 N 0.2007(3) 0.3723(2) 0.11728(5)
N5_3 N 0.3714(4) 0.5422(3) 0.19726(5)
N6_5 N 0.5707(4) 0.3761(3) 0.10184(5)
C1_4 C 0.2992(4) 0.4374(3) 0.18372(6)
C2_5 C 0.4795(4) 0.3261(3) 0.11995(6)
C4_4 C 0.1018(4) 0.2961(3) 0.10212(6)
C5_5 C 0.4407(5) 0.4396(4) 0.09240(6)
H1_4 H 0.402814 0.478622 0.083976
C6_4 C 0.1189(4) 0.4745(3) 0.09842(7)
H2_4 H 0.104045 0.537308 0.093300
C7_4 C 0.2122(4) 0.4875(3) 0.11469(8)
H3_4 H 0.272836 0.560119 0.122664
C8_5 C 0.5454(6) 0.4491(4) 0.08468(6)
H4_5 H 0.594492 0.496933 0.070114
C11_4 C 0.4672(4) 0.6133(3) 0.18002(7)
H6_4 H 0.533083 0.690496 0.184234
C12_5 C 0.7922(6) 0.1628(5) 0.02285(8)
C15_5 C 0.4672(6) 0.2369(4) 0.14190(10)
H8_5 H 0.378394 0.189474 0.145230
C16_4 C 0.4505(6) 0.5534(4) 0.15606(6)
H9_4 H 0.501401 0.583086 0.140610
O5_5 O 0.7179(6) 0.1935(5) 0.02712(9)
C17_4 C 0.1880(6) 0.3338(4) 0.19684(7)
H10_4 H 0.173545 0.368897 0.213598
H11_5 H 0.933858 0.074269 0.003303
B1_4 B 0.2887(6) 0.3450(4) 0.13403(7)
H13_4 H 0.244533 0.261128 0.141425
C20_4 C 0.0589(6) 0.1627(4) 0.09854(12)
H14_4 H 0.092014 0.140019 0.114425
C21_4 C 0.2181(7) 0.2383(5) 0.20719(10)
H15_5 H 0.294684 0.278079 0.217048
H16_5 H 0.224570 0.193779 0.191719
H17_4 H 0.153993 0.182245 0.219367
C22_4 C 0.0727(7) 0.2850(5) 0.18056(11)
H18_4 H 0.076124 0.349172 0.169120
H19_4 H 0.004004 0.255776 0.192965
H20_4 H 0.063574 0.218573 0.169064
C23_4 C 0.1142(13) 0.1399(10) 0.0737(3)
H21_4 H 0.129512 0.200980 0.059876
H22_4 H 0.058650 0.059805 0.066395
H23_5 H 0.190221 0.144312 0.078721
C25_5 C 0.5177(10) 0.2986(8) 0.16901(9)
H27_5 H 0.597530 0.369313 0.166199
H28_5 H 0.524452 0.242360 0.181370
H29_5 H 0.463778 0.323923 0.176921
C26_5 C 0.4970(16) 0.1498(11) 0.1366(3)
H30_5 H 0.424266 0.074450 0.131699
H31_5 H 0.533556 0.136867 0.152782
H32_5 H 0.554490 0.175940 0.121506
O6_3 O 0.9426(4) 0.4678(3) 0.05161(5)
N8_3 N 0.8292(5) 0.4578(3) 0.13607(5)
O7_3 O 0.8169(4) 0.5194(4) 0.07230(5)
C24_5 C 0.9247(11) 0.0829(6) 0.1002(2)
H24_5 H 0.886995 0.096720 0.084358
H25_5 H 0.894867 0.101354 0.116805
C3_5 C 0.7012(3) 0.0506(3) 0.37160(6)
C10_5 C 0.6378(3) 0.1004(3) 0.38864(6)
C14_5 C 0.8226(4) 0.0831(5) 0.37717(8)
H7_5 H 0.864765 0.137063 0.391594
C19_5 C 0.8797(4) 0.0360(5) 0.36147(9)
H12_5 H 0.960752 0.057971 0.365298
O1_6 O 0.5038(2) 0.7469(2) 0.24219(5)
O3_6 O 0.6897(3) 0.8019(3) 0.29611(5)
N2_6 N 0.0339(2) 0.6382(3) 0.21817(5)
N6_6 N 0.1946(2) 0.6239(3) 0.23149(5)
C2_6 C 0.1534(3) 0.6739(3) 0.21338(6)
C5_6 C 0.0011(3) 0.5604(4) 0.24093(6)
C8_6 C 0.0963(4) 0.5509(4) 0.24865(6)
H4_6 H 0.097559 0.503067 0.263219
C9_4 C 0.6412(3) 0.9712(4) 0.35049(6)
H5_4 H 0.559646 0.947619 0.346882
C12_6 C 0.6294(4) 0.8372(5) 0.31048(8)
C13_4 C 0.7002(3) 0.9243(4) 0.33413(6)
C15_6 C 0.2303(4) 0.7631(4) 0.19143(10)
H8_6 H 0.188920 0.810526 0.188103
O5_6 O 0.5244(3) 0.8065(5) 0.30621(9)
C18_4 C 0.8196(4) 0.9576(5) 0.34041(8)
H11_6 H 0.859589 0.925731 0.330030
H15_6 H 0.016605 0.721921 0.116285
H16_6 H 0.030791 0.806221 0.141614
H23_6 H 0.045909 0.855688 0.254612
C25_6 C 0.2191(6) 0.7014(8) 0.16432(9)
H27_6 H 0.228217 0.630687 0.167134
H28_6 H 0.282092 0.757640 0.151963
H29_6 H 0.139855 0.676077 0.156412
C26_6 C 0.3472(11) 0.8502(11) 0.1967(3)
H30_6 H 0.349816 0.925550 0.201634
H31_6 H 0.396689 0.863133 0.180551
H32_6 H 0.378550 0.824060 0.211827
N7_4 N 0.6961(2) 0.6468(3) 0.24264(5)
N1_5 N 0.9049(2) 0.5601(3) 0.17520(5)
N4_5 N 0.8284(2) 0.6277(2) 0.21605(5)
C1_5 C 0.8618(3) 0.5626(3) 0.14961(6)
C4_5 C 0.8057(3) 0.7039(3) 0.23121(6)
H1_5 H 0.924192 0.521378 0.249357
C6_5 C 0.6444(3) 0.5255(3) 0.23491(7)
H2_5 H 0.566737 0.462692 0.240033
C7_5 C 0.7247(3) 0.5125(3) 0.21864(8)
H3_5 H 0.712717 0.439881 0.210669
C11_5 C 0.8539(3) 0.3867(3) 0.15331(7)
H6_5 H 0.842587 0.309504 0.149099
C16_5 C 0.8971(4) 0.4466(4) 0.17727(6)
H9_5 H 0.918315 0.416914 0.192723
C17_5 C 0.8542(4) 0.6662(4) 0.13649(7)
H10_5 H 0.804648 0.631103 0.119735
B1_5 B 0.9437(4) 0.6550(4) 0.19930(7)
H13_5 H 0.983405 0.738872 0.191908
C20_5 C 0.8962(4) 0.8373(4) 0.23479(12)
H14_5 H 0.951995 0.859981 0.218908
C21_5 C 0.9798(5) 0.7617(5) 0.12614(10)
H17_5 H 0.971748 0.817755 0.113966
C22_5 C 0.7877(5) 0.7150(5) 0.15277(11)
H18_5 H 0.726952 0.650828 0.164213
H19_5 H 0.748228 0.744224 0.140368
H20_5 H 0.845001 0.781427 0.164269
C23_5 C 0.9743(8) 0.8601(10) 0.2596(3)
H21_5 H 0.928532 0.799020 0.273457
H22_5 H 0.998845 0.940195 0.266938
C24_6 C 0.8418(9) 0.9171(6) 0.2331(2)
H24_6 H 0.790275 0.903280 0.248975
H25_6 H 0.793513 0.898646 0.216528
N1_6 N 0.6552(4) 0.0951(2) 0.50853(5)
N3_2 N 0.9507(4) 0.3039(2) 0.57597(5)
N4_6 N 0.7993(3) 0.1716(2) 0.54938(5)
C1_6 C 0.7008(4) 0.1382(3) 0.48294(6)
C4_6 C 0.8982(4) 0.1943(3) 0.56454(6)
H1_6 H 0.597186 0.075808 0.582690
C6_6 C 0.8811(4) 0.3556(3) 0.56824(7)
H2_6 H 0.895955 0.433263 0.573366
C7_6 C 0.7878(4) 0.2753(3) 0.55197(8)
H3_6 H 0.727164 0.287283 0.544002
C11_6 C 0.5328(4) 0.1461(3) 0.48664(7)
H6_6 H 0.466917 0.157413 0.482432
C16_6 C 0.5495(6) 0.1029(4) 0.51060(6)
H9_6 H 0.498599 0.081685 0.526056
C17_6 C 0.8120(6) 0.1458(4) 0.46982(7)
H10_6 H 0.826455 0.195352 0.453068
B1_6 B 0.7113(6) 0.0563(4) 0.53263(7)
H13_6 H 0.755467 0.016595 0.525241
C20_6 C 0.9411(6) 0.1038(4) 0.56812(12)
H14_6 H 0.907986 0.048005 0.552241
C21_6 C 0.7819(7) 0.0202(5) 0.45947(10)
H17_6 H 0.846007 0.028252 0.447299
C22_6 C 0.9273(7) 0.2123(5) 0.48610(11)
H18_6 H 0.923876 0.273048 0.497546
H19_6 H 0.995996 0.251772 0.473701
H20_6 H 0.936426 0.154999 0.497602
C23_6 C 0.8858(13) 0.0257(8) 0.5929(3)
H21_6 H 0.870488 0.071468 0.606790
H22_6 H 0.941350 0.001155 0.600271
C3_6 C 0.9494(3) 0.6506(4) 0.03827(6)
C10_6 C 0.8996(3) 0.5374(4) 0.05531(6)
C14_6 C 0.9169(5) 0.7395(6) 0.04384(8)
H7_6 H 0.862937 0.727702 0.058261
C19_6 C 0.9640(5) 0.8437(6) 0.02814(9)
H12_6 H 0.942029 0.902781 0.031965
C9_5 C 0.6700(5) 0.0288(4) 0.98284(6)
H5_5 H 0.612027 0.052381 0.986451
C13_5 C 0.7759(5) 0.0757(4) 0.99920(6)
C18_5 C 0.8620(6) 0.0424(5) 0.99292(8)
H26_4 H 0.904509 0.998389 0.100571
H26_5 H 0.906120 0.001611 0.232762
C9_6 C 0.0288(4) 0.6700(5) 0.01716(6)
H5_6 H 0.052381 0.612027 0.013549
C13_6 C 0.0757(4) 0.7759(5) 0.00080(6)
C18_6 C 0.0424(5) 0.8620(6) 0.00708(8)
H26_6 H 0.998389 0.904509 0.899429
loop_
_geom_bond_atom_site_label_1
_geom_bond_atom_site_label_2
_geom_bond_site_symmetry_1
_geom_bond_site_symmetry_2
O2 C10 1_555 1_555
O4 C10 1_555 1_555
C10 C3 1_555 1_555
C14 C3 1_555 1_555
H7 C14 1_555 1_555
C19 C14 1_555 1_555
H12 C19 1_555 1_555
Zn4 O2 1_555 1_555
Zn5 O4 1_555 1_555
Zn1 O1 1_555 1_555
Zn2 O1 1_555 1_555
O3 Zn1 1_555 1_555
N2 C2 1_555 1_555
N6 Zn2 1_555 1_555
C2 N6 1_555 1_555
C5 N2 1_555 1_555
C8 N6 1_555 1_555
H4 C8 1_555 1_555
C9 H5 1_555 1_555
C12 O3 1_555 1_555
C13 C9 1_555 1_555
C15 C2 1_555 1_555
H8 C15 1_555 1_555
O5 C12 1_555 1_555
C18 C13 1_555 1_555
H11 C18 1_555 1_555
C25 C15 1_555 1_555
H27 C25 1_555 1_555
H28 C25 1_555 1_555
H29 C25 1_555 1_555
C26 C15 1_555 1_555
H30 C26 1_555 1_555
H31 C26 1_555 1_555
H32 C26 1_555 1_555
O6 Zn1 1_555 1_555
N7 Zn1 1_555 1_555
N8 Zn2 1_555 1_555
O7 Zn2 1_555 1_555
C5 C8 1_555 1_555
C12 C13 1_555 1_555
N1 C1 1_555 1_555
N7 C4 1_555 1_555
N4 C4 1_555 1_555
N5 C1 1_555 1_555
C1 C17 1_555 1_555
C4 C20 1_555 1_555
C6 N7 1_555 1_555
H2 C6 1_555 1_555
C7 N4 1_555 1_555
H3 C7 1_555 1_555
C11 N5 1_555 1_555
H6 C11 1_555 1_555
C16 N1 1_555 1_555
H9 C16 1_555 1_555
C17 H10 1_555 1_555
B1 N1 1_555 1_555
H13 B1 1_555 1_555
C20 H14 1_555 1_555
C21 C17 1_555 1_555
H17 C21 1_555 1_555
C22 C17 1_555 1_555
H18 C22 1_555 1_555
H19 C22 1_555 1_555
H20 C22 1_555 1_555
C23 C20 1_555 1_555
H21 C23 1_555 1_555
H22 C23 1_555 1_555
C24 C20 1_555 1_555
H24 C24 1_555 1_555
H25 C24 1_555 1_555
Zn6 N5 1_555 1_555
N4 B1 1_555 1_555
C6 C7 1_555 1_555
C11 C16 1_555 1_555
N1_2 C1_2 1_555 1_555
N3 C4_2 1_555 1_555
N4_2 C4_2 1_555 1_555
N5_2 C1_2 1_555 1_555
C1_2 C17_2 1_555 1_555
C4_2 C20_2 1_555 1_555
C6_2 N3 1_555 1_555
H2_2 C6_2 1_555 1_555
C7_2 N4_2 1_555 1_555
H3_2 C7_2 1_555 1_555
C11_2 N5_2 1_555 1_555
H6_2 C11_2 1_555 1_555
C16_2 N1_2 1_555 1_555
H9_2 C16_2 1_555 1_555
C17_2 H10_2 1_555 1_555
B1_2 N1_2 1_555 1_555
H13_2 B1_2 1_555 1_555
C20_2 H14_2 1_555 1_555
C21_2 C17_2 1_555 1_555
H17_2 C21_2 1_555 1_555
C22_2 C17_2 1_555 1_555
H18_2 C22_2 1_555 1_555
H19_2 C22_2 1_555 1_555
H20_2 C22_2 1_555 1_555
C23_2 C20_2 1_555 1_555
H21_2 C23_2 1_555 1_555
H22_2 C23_2 1_555 1_555
Zn5 N5_2 1_555 1_555
N4_2 B1_2 1_555 1_555
C6_2 C7_2 1_555 1_555
C11_2 C16_2 1_555 1_555
O2_2 C10_2 1_555 1_555
O4_2 C10_2 1_555 1_555
C10_2 C3_2 1_555 1_555
C14_2 C3_2 1_555 1_555
H7_2 C14_2 1_555 1_555
C19_2 C14_2 1_555 1_555
H12_2 C19_2 1_555 1_555
Zn4_2 O2_2 1_555 1_555
Zn6 O4_2 1_555 1_555
H24_2 C24_2 1_555 1_555
H25_2 C24_2 1_555 1_555
H26 C24_2 1_555 1_555
Zn4 O1_2 1_555 1_555
Zn5 O1_2 1_555 1_555
O6 C10_3 1_555 1_555
O3_2 Zn4 1_555 1_555
N2_2 C2_2 1_555 1_555
O7 C10_3 1_555 1_555
N6_2 Zn5 1_555 1_555
C2_2 N6_2 1_555 1_555
C3_3 C9_2 1_555 1_555
C5_2 N2_2 1_555 1_555
C8_2 N6_2 1_555 1_555
H4_2 C8_2 1_555 1_555
C9_2 H5_2 1_555 1_555
C10_3 C3_3 1_555 1_555
C12_2 O3_2 1_555 1_555
C13_2 C9_2 1_555 1_555
C14_3 C3_3 1_555 1_555
H7_3 C14_3 1_555 1_555
C15_2 C2_2 1_555 1_555
H8_2 C15_2 1_555 1_555
O5_2 C12_2 1_555 1_555
C18_2 C13_2 1_555 1_555
H11_2 C18_2 1_555 1_555
C19_3 C14_3 1_555 1_555
H12_3 C19_3 1_555 1_555
C25_2 C15_2 1_555 1_555
H27_2 C25_2 1_555 1_555
H28_2 C25_2 1_555 1_555
H29_2 C25_2 1_555 1_555
C26_2 C15_2 1_555 1_555
H30_2 C26_2 1_555 1_555
H31_2 C26_2 1_555 1_555
H32_2 C26_2 1_555 1_555
C5_2 C8_2 1_555 1_555
C12_2 C13_2 1_555 1_555
C18_2 C19_3 1_555 1_555
Zn4_2 O1_3 1_555 1_555
Zn6 O1_3 1_555 1_555
N1_3 C1_3 1_555 1_555
O3_3 Zn4_2 1_555 1_555
N2_3 C2_3 1_555 1_555
N7_2 C4_3 1_555 1_555
N4_3 C4_3 1_555 1_555
N8 C1_3 1_555 1_555
N6_3 Zn6 1_555 1_555
C1_3 C17_3 1_555 1_555
C2_3 N6_3 1_555 1_555
C4_3 C20_3 1_555 1_555
C5_3 N2_3 1_555 1_555
H1_3 C5_3 1_555 1_555
C6_3 N7_2 1_555 1_555
H2_3 C6_3 1_555 1_555
C7_3 N4_3 1_555 1_555
H3_3 C7_3 1_555 1_555
C8_3 N6_3 1_555 1_555
H4_3 C8_3 1_555 1_555
C11_3 N8 1_555 1_555
H6_3 C11_3 1_555 1_555
C12_3 O3_3 1_555 1_555
C15_3 C2_3 1_555 1_555
H8_3 C15_3 1_555 1_555
C16_3 N1_3 1_555 1_555
H9_3 C16_3 1_555 1_555
O5_3 C12_3 1_555 1_555
C17_3 H10_3 1_555 1_555
B1_3 N1_3 1_555 1_555
H13_3 B1_3 1_555 1_555
C20_3 H14_3 1_555 1_555
C21_3 C17_3 1_555 1_555
H15_3 C21_3 1_555 1_555
H16_3 C21_3 1_555 1_555
H17_3 C21_3 1_555 1_555
C22_3 C17_3 1_555 1_555
H18_3 C22_3 1_555 1_555
H19_3 C22_3 1_555 1_555
H20_3 C22_3 1_555 1_555
C23_3 C20_3 1_555 1_555
H21_3 C23_3 1_555 1_555
H22_3 C23_3 1_555 1_555
H23_3 C23_3 1_555 1_555
C25_3 C15_3 1_555 1_555
H27_3 C25_3 1_555 1_555
H28_3 C25_3 1_555 1_555
H29_3 C25_3 1_555 1_555
C26_3 C15_3 1_555 1_555
H30_3 C26_3 1_555 1_555
H31_3 C26_3 1_555 1_555
H32_3 C26_3 1_555 1_555
N2_3 B1_3 1_555 1_555
N4_3 B1_3 1_555 1_555
C5_3 C8_3 1_555 1_555
C6_3 C7_3 1_555 1_555
C11_3 C16_3 1_555 1_555
H24_3 C24_3 1_555 1_555
H25_3 C24_3 1_555 1_555
H24_4 C24_4 1_555 1_555
H25_4 C24_4 1_555 1_555
H26_3 C24_4 1_555 1_555
Zn3 O1_4 1_555 1_555
Zn2_2 O1_4 1_555 1_555
O2_3 C10_4 1_555 1_555
O3_4 Zn3 1_555 1_555
N2_4 C2_4 1_555 1_555
O4_3 C10_4 1_555 1_555
N6_4 Zn2_2 1_555 1_555
C2_4 N6_4 1_555 1_555
C3_4 C9_3 1_555 1_555
C5_4 N2_4 1_555 1_555
C8_4 N6_4 1_555 1_555
H4_4 C8_4 1_555 1_555
C9_3 H5_3 1_555 1_555
C10_4 C3_4 1_555 1_555
C12_4 O3_4 1_555 1_555
C13_3 C9_3 1_555 1_555
C14_4 C3_4 1_555 1_555
H7_4 C14_4 1_555 1_555
C15_4 C2_4 1_555 1_555
H8_4 C15_4 1_555 1_555
O5_4 C12_4 1_555 1_555
C18_3 C13_3 1_555 1_555
H11_4 C18_3 1_555 1_555
C19_4 C14_4 1_555 1_555
H12_4 C19_4 1_555 1_555
C25_4 C15_4 1_555 1_555
H27_4 C25_4 1_555 1_555
H28_4 C25_4 1_555 1_555
H29_4 C25_4 1_555 1_555
C26_4 C15_4 1_555 1_555
H30_4 C26_4 1_555 1_555
H31_4 C26_4 1_555 1_555
H32_4 C26_4 1_555 1_555
Zn4_3 O2_3 1_555 1_555
Zn5_2 O4_3 1_555 1_555
O6_2 Zn3 1_555 1_555
N8_2 Zn2_2 1_555 1_555
O7_2 Zn2_2 1_555 1_555
C5_4 C8_4 1_555 1_555
C12_4 C13_3 1_555 1_555
C18_3 C19_4 1_555 1_555
Zn1_2 O1_5 1_555 1_555
Zn2_3 O1_5 1_555 1_555
N1_4 C1_4 1_555 1_555
O3_5 Zn1_2 1_555 1_555
N2_5 C2_5 1_555 1_555
N7_3 C4_4 1_555 1_555
N4_4 C4_4 1_555 1_555
N5_3 C1_4 1_555 1_555
N6_5 Zn2_3 1_555 1_555
C1_4 C17_4 1_555 1_555
C2_5 N6_5 1_555 1_555
C4_4 C20_4 1_555 1_555
C5_5 N2_5 1_555 1_555
H1_4 C5_5 1_555 1_555
C6_4 N7_3 1_555 1_555
H2_4 C6_4 1_555 1_555
C7_4 N4_4 1_555 1_555
H3_4 C7_4 1_555 1_555
C8_5 N6_5 1_555 1_555
H4_5 C8_5 1_555 1_555
C11_4 N5_3 1_555 1_555
H6_4 C11_4 1_555 1_555
C12_5 O3_5 1_555 1_555
C15_5 C2_5 1_555 1_555
H8_5 C15_5 1_555 1_555
C16_4 N1_4 1_555 1_555
H9_4 C16_4 1_555 1_555
O5_5 C12_5 1_555 1_555
C17_4 H10_4 1_555 1_555
B1_4 N1_4 1_555 1_555
H13_4 B1_4 1_555 1_555
C20_4 H14_4 1_555 1_555
C21_4 C17_4 1_555 1_555
H15_5 C21_4 1_555 1_555
H16_5 C21_4 1_555 1_555
H17_4 C21_4 1_555 1_555
C22_4 C17_4 1_555 1_555
H18_4 C22_4 1_555 1_555
H19_4 C22_4 1_555 1_555
H20_4 C22_4 1_555 1_555
C23_4 C20_4 1_555 1_555
H21_4 C23_4 1_555 1_555
H22_4 C23_4 1_555 1_555
H23_5 C23_4 1_555 1_555
C25_5 C15_5 1_555 1_555
H27_5 C25_5 1_555 1_555
H28_5 C25_5 1_555 1_555
H29_5 C25_5 1_555 1_555
C26_5 C15_5 1_555 1_555
H30_5 C26_5 1_555 1_555
H31_5 C26_5 1_555 1_555
H32_5 C26_5 1_555 1_555
Zn5_2 N5_3 1_555 1_555
O6_3 Zn1_2 1_555 1_555
N8_3 Zn2_3 1_555 1_555
O7_3 Zn2_3 1_555 1_555
N2_5 B1_4 1_555 1_555
N4_4 B1_4 1_555 1_555
C5_5 C8_5 1_555 1_555
C6_4 C7_4 1_555 1_555
C11_4 C16_4 1_555 1_555
H24_5 C24_5 1_555 1_555
H25_5 C24_5 1_555 1_555
O6_2 C10_5 1_555 1_555
O7_2 C10_5 1_555 1_555
C10_5 C3_5 1_555 1_555
C14_5 C3_5 1_555 1_555
H7_5 C14_5 1_555 1_555
C19_5 C14_5 1_555 1_555
H12_5 C19_5 1_555 1_555
Zn4_3 O1_6 1_555 1_555
Zn5_2 O1_6 1_555 1_555
O3_6 Zn4_3 1_555 1_555
N2_6 C2_6 1_555 1_555
N6_6 Zn5_2 1_555 1_555
C2_6 N6_6 1_555 1_555
C5_6 N2_6 1_555 1_555
C8_6 N6_6 1_555 1_555
H4_6 C8_6 1_555 1_555
C9_4 H5_4 1_555 1_555
C12_6 O3_6 1_555 1_555
C13_4 C9_4 1_555 1_555
C15_6 C2_6 1_555 1_555
H8_6 C15_6 1_555 1_555
O5_6 C12_6 1_555 1_555
C18_4 C13_4 1_555 1_555
H11_6 C18_4 1_555 1_555
C25_6 C15_6 1_555 1_555
H27_6 C25_6 1_555 1_555
H28_6 C25_6 1_555 1_555
H29_6 C25_6 1_555 1_555
C26_6 C15_6 1_555 1_555
H30_6 C26_6 1_555 1_555
H31_6 C26_6 1_555 1_555
H32_6 C26_6 1_555 1_555
N7_4 Zn4_3 1_555 1_555
C5_6 C8_6 1_555 1_555
C12_6 C13_4 1_555 1_555
N1_5 C1_5 1_555 1_555
N7_4 C4_5 1_555 1_555
N4_5 C4_5 1_555 1_555
N8_3 C1_5 1_555 1_555
C1_5 C17_5 1_555 1_555
C4_5 C20_5 1_555 1_555
C6_5 N7_4 1_555 1_555
H2_5 C6_5 1_555 1_555
C7_5 N4_5 1_555 1_555
H3_5 C7_5 1_555 1_555
C11_5 N8_3 1_555 1_555
H6_5 C11_5 1_555 1_555
C16_5 N1_5 1_555 1_555
H9_5 C16_5 1_555 1_555
C17_5 H10_5 1_555 1_555
B1_5 N1_5 1_555 1_555
H13_5 B1_5 1_555 1_555
C20_5 H14_5 1_555 1_555
C21_5 C17_5 1_555 1_555
H17_5 C21_5 1_555 1_555
C22_5 C17_5 1_555 1_555
H18_5 C22_5 1_555 1_555
H19_5 C22_5 1_555 1_555
H20_5 C22_5 1_555 1_555
C23_5 C20_5 1_555 1_555
H21_5 C23_5 1_555 1_555
H22_5 C23_5 1_555 1_555
C24_6 C20_5 1_555 1_555
H24_6 C24_6 1_555 1_555
H25_6 C24_6 1_555 1_555
N4_5 B1_5 1_555 1_555
C6_5 C7_5 1_555 1_555
C11_5 C16_5 1_555 1_555
N1_6 C1_6 1_555 1_555
N3_2 C4_6 1_555 1_555
N4_6 C4_6 1_555 1_555
N8_2 C1_6 1_555 1_555
C1_6 C17_6 1_555 1_555
C4_6 C20_6 1_555 1_555
C6_6 N3_2 1_555 1_555
H2_6 C6_6 1_555 1_555
C7_6 N4_6 1_555 1_555
H3_6 C7_6 1_555 1_555
C11_6 N8_2 1_555 1_555
H6_6 C11_6 1_555 1_555
C16_6 N1_6 1_555 1_555
H9_6 C16_6 1_555 1_555
C17_6 H10_6 1_555 1_555
B1_6 N1_6 1_555 1_555
H13_6 B1_6 1_555 1_555
C20_6 H14_6 1_555 1_555
C21_6 C17_6 1_555 1_555
H17_6 C21_6 1_555 1_555
C22_6 C17_6 1_555 1_555
H18_6 C22_6 1_555 1_555
H19_6 C22_6 1_555 1_555
H20_6 C22_6 1_555 1_555
C23_6 C20_6 1_555 1_555
H21_6 C23_6 1_555 1_555
H22_6 C23_6 1_555 1_555
N4_6 B1_6 1_555 1_555
C6_6 C7_6 1_555 1_555
C11_6 C16_6 1_555 1_555
O6_3 C10_6 1_555 1_555
O7_3 C10_6 1_555 1_555
C10_6 C3_6 1_555 1_555
C14_6 C3_6 1_555 1_555
H7_6 C14_6 1_555 1_555
C19_6 C14_6 1_555 1_555
H12_6 C19_6 1_555 1_555
C9_5 H5_5 1_555 1_555
C13_5 C9_5 1_555 1_555
C18_5 C13_5 1_555 1_555
C9_6 H5_6 1_555 1_555
C13_6 C9_6 1_555 1_555
C18_6 C13_6 1_555 1_555

#END
