
###############################################################################
#
# This file contains modified crystal structure data generated from the
# MOF subset of the Cambridge Structural Database (CSD) v543 
# hosted by the Cambridge Crystallographic Data Centre (CCDC).
#
# This work is licensed under the Creative Commons
# Attribution-NonCommercial-ShareAlike 4.0 International License.
# To view a copy of this license, visit
# http://creativecommons.org/licenses/by-nc-sa/4.0/
# or send a letter to
# Creative Commons, PO Box 1866, Mountain View, CA 94042, USA.
#
# CIF created using the CSD Python API on 29 September 2022
# The structure has been converted into the P1 space group
# The structure has a 3D framework
# The original CSD entry TECXAE is in the trigonal crystal system
# The original CSD entry TECXAE is in a Sohncke space group
# The framework has been calculated to contain at least 10.0% void space
# The void calculation uses a probe of radius 1.32A, grid spacing 0.4
#
###############################################################################

data_TECXAE
_chemical_formula_moiety         '(C156 H192 B6 N32 O30 Zn12)n'
_symmetry_cell_setting           triclinic
_symmetry_space_group_name_H-M   'P 1'
_symmetry_Int_Tables_number      1
_space_group_name_Hall           'P 1'
loop_
_symmetry_equiv_pos_site_id
_symmetry_equiv_pos_as_xyz
1 x,y,z
_cell_length_a                   12.6417(6)
_cell_length_b                   12.6417(6)
_cell_length_c                   46.479(2)
_cell_angle_alpha                90
_cell_angle_beta                 90
_cell_angle_gamma                120
_cell_volume                     6432.78
loop_
_atom_site_label
_atom_site_type_symbol
_atom_site_fract_x
_atom_site_fract_y
_atom_site_fract_z
N3 N 0.0116(4) 0.3400(4) 0.54971(8)
N5 N 0.1795(4) 0.5119(5) 0.56080(7)
C8 C 0.1220(5) 0.4239(5) 0.54089(9)
C10 C 0.0953(5) 0.4773(6) 0.58304(10)
H4 H 0.108284 0.521224 0.600493
C14 C 0.1792(5) 0.4195(6) 0.51287(10)
H8 H 0.138983 0.332593 0.506317
C23 C 0.1560(6) 0.4971(6) 0.48908(12)
H21 H 0.067974 0.463217 0.486487
H22 H 0.192634 0.493230 0.470801
H23 H 0.193293 0.582299 0.495356
C24 C 0.3169(7) 0.4689(6) 0.51469(14)
H24 H 0.357298 0.552479 0.522224
H25 H 0.348713 0.468872 0.495465
H26 H 0.332807 0.416970 0.527536
Zn5 Zn 0.32938(6) 0.67445(7) 0.56069(2)
N6 N 0.6765(4) 0.9855(4) 0.57560(8)
C19 C 0.8681(6) 0.9924(6) 0.55917(12)
H14 H 0.717118 0.971150 0.468855
H29 H 0.899052 0.995759 0.602956
C26 C 0.8079(9) 0.8566(10) 0.5507(2)
H30 H 0.757931 0.805876 0.566780
H31 H 0.871458 0.836196 0.546317
H32 H 0.756147 0.841256 0.533795
Zn3 Zn 0.57859(6) 0.82174(7) 0.59510(2)
N6_2 N 0.0145(4) 0.6910(6) 0.90893(8)
C19_2 C 0.0076(6) 0.8757(8) 0.89250(12)
H14_2 H 0.028850 0.745968 0.802188
H29_2 H 0.004241 0.903293 0.936289
C26_2 C 0.1434(10) 0.9513(13) 0.8840(2)
H30_2 H 0.194124 0.952055 0.900113
H32_2 H 0.158744 0.914891 0.867128
Zn3_2 Zn 0.17826(7) 0.75685(9) 0.92843(2)
Zn1 Zn 0.42141(6) 0.24315(9) 0.73823(2)
Zn2 Zn 0.67062(6) 0.34507(9) 0.77264(2)
O3 O 0.3200(3) 0.1285(5) 0.70914(7)
O4 O 0.5103(4) 0.2080(6) 0.76637(8)
N1 N 0.8515(4) 0.6536(6) 0.88336(9)
N2 N 0.7002(4) 0.5601(6) 0.84317(8)
N3_2 N 0.6600(4) 0.6716(6) 0.88304(8)
N4 N 0.6570(4) 0.4339(6) 0.80616(8)
N5_2 N 0.4881(5) 0.6676(6) 0.89413(7)
C2 C 0.9620(5) 0.7437(7) 0.89478(10)
C3 C 0.5666(5) 0.3772(7) 0.82727(10)
H1 H 0.497065 0.297662 0.825951
C4 C 0.7350(4) 0.5444(6) 0.81697(10)
C7 C 0.6268(6) 0.6201(8) 0.90973(10)
H3 H 0.669246 0.591475 0.921308
C8_2 C 0.5761(5) 0.6981(7) 0.87422(9)
C9 C 0.3046(4) 0.0029(6) 0.67003(9)
O5 O 0.4807(4) 0.1065(6) 0.69960(11)
C10_2 C 0.5227(6) 0.6180(8) 0.91637(10)
H4_2 H 0.478776 0.587060 0.933826
C11 C 0.8402(5) 0.5432(7) 0.89131(11)
H5 H 0.773671 0.464965 0.886564
H6 H 0.153710 0.020757 0.674217
C13 C 0.5945(5) 0.4541(7) 0.84976(10)
H7 H 0.549033 0.437672 0.867095
C14_2 C 0.5805(6) 0.7597(8) 0.84620(10)
H8_2 H 0.667407 0.806390 0.839650
C15 C 0.3739(6) 0.0844(8) 0.69415(13)
C16 C 0.9371(6) 0.5640(8) 0.90664(11)
H9 H 0.951747 0.503393 0.914697
C18 C 0.8410(5) 0.6363(7) 0.79924(11)
H11 H 0.850074 0.590665 0.782754
H12 H 0.961575 0.885050 0.876132
C20 C 0.9621(5) 0.6960(8) 0.81550(13)
H13 H 0.959811 0.747916 0.830870
H15 H 0.975529 0.632560 0.823893
C22 C 0.8149(6) 0.7328(8) 0.78624(12)
H17 H 0.730073 0.693163 0.779544
H18 H 0.870055 0.772821 0.769982
H19 H 0.827919 0.793856 0.800899
B1 B 0.7617(5) 0.6720(7) 0.86410(12)
H20 H 0.806260 0.749994 0.853025
C23_2 C 0.5029(6) 0.6589(8) 0.82241(12)
H21_2 H 0.536783 0.604757 0.819820
H22_2 H 0.506770 0.699404 0.804134
H23_2 H 0.417701 0.610994 0.828689
C24_2 C 0.5311(6) 0.8480(9) 0.84802(14)
H24_2 H 0.447521 0.804819 0.855557
H25_2 H 0.531128 0.879841 0.828798
H26_2 H 0.583030 0.915837 0.860869
C25 C 0.9697(13) 0.9194(16) 0.9190(2)
H27 H 0.880452 0.875682 0.920530
Zn5_2 Zn 0.32555(7) 0.65493(9) 0.89402(2)
O6 O 0.5372(3) 0.3930(6) 0.71688(7)
O7 O 0.7136(3) 0.4618(6) 0.74009(7)
N7 N 0.8205(4) 0.3324(6) 0.77253(7)
N8 N 0.3235(4) 0.3090(6) 0.75773(8)
O1 O 0.4628(3) 0.8558(5) 0.61645(7)
O2 O 0.2864(3) 0.7482(5) 0.59324(7)
C1 C 0.2953(4) 0.8774(6) 0.63063(9)
C5 C 0.3508(4) 0.8214(6) 0.61194(8)
C6 C 0.3575(4) 0.9504(6) 0.65305(9)
H2 H 0.437562 0.966003 0.657284
C12 C 0.1890(5) 0.9830(8) 0.66320(10)
C17 C 0.1757(5) 0.8549(7) 0.62426(9)
H10 H 0.131909 0.802602 0.608690
C21 C 0.1238(5) 0.9058(8) 0.63966(11)
H16 H 0.044316 0.890742 0.634976
O1_2 O 0.1442(5) 0.6070(4) 0.94979(7)
O2_2 O 0.2518(5) 0.5382(4) 0.92658(7)
C1_2 C 0.1226(6) 0.4179(5) 0.96397(9)
C5_2 C 0.1786(6) 0.5294(5) 0.94528(8)
C6_2 C 0.0496(6) 0.4071(5) 0.98639(9)
H2_2 H 0.033997 0.471559 0.990618
C12_2 C 0.0170(8) 0.2060(6) 0.99654(10)
C17_2 C 0.1451(7) 0.3208(5) 0.95760(9)
H10_2 H 0.197398 0.329307 0.942024
C21_2 C 0.0942(8) 0.2180(6) 0.97300(11)
H16_2 H 0.109258 0.153574 0.968310
O3_2 O 0.6800(3) 0.8085(4) 0.62419(7)
O4_2 O 0.4897(4) 0.6977(4) 0.56696(8)
N1_2 N 0.1485(4) 0.8021(4) 0.44997(9)
N2_2 N 0.2998(4) 0.8599(4) 0.49016(8)
N4_2 N 0.3430(4) 0.7769(4) 0.52717(8)
C1_3 C 0.7047(4) 0.5821(5) 0.70270(9)
C2_2 C 0.0380(5) 0.7817(5) 0.43855(10)
C3_2 C 0.4334(5) 0.8106(5) 0.50606(10)
H1_2 H 0.502935 0.800597 0.507382
C4_2 C 0.2650(4) 0.8094(5) 0.51636(10)
C5_3 C 0.6492(4) 0.4706(5) 0.72139(8)
C6_3 C 0.6425(4) 0.5929(5) 0.68028(9)
H2_3 H 0.562438 0.528441 0.676049
C7_2 C 0.3732(6) 0.9933(6) 0.42360(10)
H3_2 H 0.330754 0.922229 0.412025
C9_2 C 0.6954(4) 0.6983(5) 0.66330(9)
O5_2 O 0.5193(4) 0.6258(5) 0.63373(11)
C11_2 C 0.1598(5) 0.7030(5) 0.44202(11)
H5_2 H 0.226329 0.691294 0.446769
C12_3 C 0.8110(5) 0.7940(6) 0.67013(10)
H6_2 H 0.846290 0.867047 0.659116
C13_2 C 0.4055(5) 0.8596(5) 0.48357(10)
H7_2 H 0.450967 0.888639 0.466238
C15_2 C 0.6261(6) 0.7105(6) 0.63918(13)
C16_2 C 0.0629(6) 0.6269(6) 0.42669(11)
H9_2 H 0.048253 0.551646 0.418636
C17_3 C 0.8243(5) 0.6792(5) 0.70907(9)
H10_3 H 0.868091 0.670693 0.724643
C18_2 C 0.1590(5) 0.7953(5) 0.53409(11)
H11_2 H 0.149926 0.740591 0.550579
H12_2 H 0.038425 0.923475 0.457201
C20_2 C 0.0379(5) 0.7339(6) 0.51783(13)
H13_2 H 0.040189 0.788105 0.502463
H15_2 H 0.024471 0.657031 0.509440
C21_3 C 0.8762(5) 0.7820(6) 0.69367(11)
H16_3 H 0.955684 0.846426 0.698357
C22_2 C 0.1851(6) 0.9179(6) 0.54709(12)
H17_2 H 0.269927 0.963090 0.553789
H18_2 H 0.129945 0.902766 0.563351
H19_2 H 0.172081 0.965937 0.532434
B1_2 B 0.2383(5) 0.9103(5) 0.46923(12)
H20_2 H 0.193740 0.943734 0.480308
C25_2 C 0.0303(13) 0.9497(10) 0.4143(2)
H27_2 H 0.119548 0.995230 0.412803
O3_3 O 0.1915(4) 0.8715(5) 0.95752(7)
O4_3 O 0.3023(4) 0.7920(6) 0.90029(8)
N1_3 N 0.1979(4) 0.3464(6) 0.78330(9)
N2_3 N 0.1401(4) 0.4399(6) 0.82349(8)
N4_3 N 0.2231(4) 0.5661(6) 0.86050(8)
C2_3 C 0.2183(5) 0.2563(7) 0.77188(10)
C3_3 C 0.1894(5) 0.6228(7) 0.83939(10)
H1_3 H 0.199403 0.702338 0.840715
C4_3 C 0.1906(5) 0.4556(6) 0.84969(10)
C7_3 C 0.0067(6) 0.3799(8) 0.75693(10)
H3_3 H 0.077771 0.408525 0.745358
C9_3 C 0.3017(5) 0.9971(6) 0.99663(9)
O5_3 O 0.3742(5) 0.8935(6) 0.96706(11)
C11_3 C 0.2970(5) 0.4568(7) 0.77535(11)
H5_3 H 0.308706 0.535035 0.780102
H6_3 H 0.132953 0.979243 0.992449
C13_3 C 0.1404(5) 0.5459(7) 0.81690(10)
H7_3 H 0.111361 0.562328 0.799571
C15_3 C 0.2895(6) 0.9156(8) 0.97251(13)
C16_3 C 0.3731(6) 0.4360(8) 0.76002(11)
H9_3 H 0.448354 0.496607 0.751969
C18_3 C 0.2047(5) 0.3637(7) 0.86742(11)
H11_3 H 0.259409 0.409335 0.883912
C19_3 C 0.1319(6) 0.1243(8) 0.77416(12)
H12_3 H 0.076525 0.114950 0.790534
C20_3 C 0.2661(6) 0.3040(8) 0.85116(13)
H13_3 H 0.211895 0.252084 0.835796
H14_3 H 0.282882 0.254032 0.864478
H15_3 H 0.342969 0.367440 0.842773
C22_3 C 0.0821(6) 0.2672(8) 0.88042(12)
H17_3 H 0.036910 0.306837 0.887122
H18_3 H 0.097234 0.227179 0.896684
H19_3 H 0.034063 0.206144 0.865767
B1_3 B 0.0897(5) 0.3280(7) 0.80256(12)
H20_3 H 0.056266 0.250006 0.813641
C25_3 C 0.0503(10) 0.0806(16) 0.7476(2)
H27_3 H 0.004770 0.124318 0.746136
H29_3 H 0.100948 0.096707 0.730377
C26_3 C 0.1921(9) 0.0487(13) 0.7826(2)
H30_3 H 0.242069 0.047945 0.766553
H32_3 H 0.243853 0.085109 0.799538
N3_3 N 0.9884(4) 0.3284(6) 0.78362(8)
C8_3 C 0.8780(5) 0.3019(7) 0.79244(9)
C10_3 C 0.9047(5) 0.3820(8) 0.75029(10)
H4_3 H 0.891716 0.412940 0.732840
C14_3 C 0.8208(5) 0.2403(8) 0.82046(10)
H8_3 H 0.861017 0.193610 0.827016
C23_3 C 0.8440(6) 0.3411(8) 0.84425(12)
H21_3 H 0.932026 0.395243 0.846846
H22_3 H 0.807366 0.300596 0.862532
H23_3 H 0.806707 0.389006 0.837977
C24_3 C 0.6831(7) 0.1520(9) 0.81864(14)
H24_3 H 0.642702 0.195181 0.811109
H25_3 H 0.651287 0.120159 0.837868
H26_3 H 0.667193 0.084163 0.805797
H28 H 0.007088 0.999796 0.584165
Zn1_2 Zn 0.82174(7) 0.57859(6) 0.40490(2)
Zn2_2 Zn 0.67445(7) 0.32938(6) 0.43931(2)
O1_3 O 0.3930(4) 0.5372(3) 0.28312(7)
O2_3 O 0.4618(4) 0.7136(3) 0.25991(7)
O3_4 O 0.8085(4) 0.6800(3) 0.37581(7)
O4_4 O 0.6977(4) 0.4897(4) 0.43304(8)
N1_4 N 0.8021(4) 0.1485(4) 0.55003(9)
N2_4 N 0.8599(4) 0.2998(4) 0.50984(8)
N4_4 N 0.7769(4) 0.3430(4) 0.47283(8)
C1_4 C 0.5821(5) 0.7047(4) 0.29730(9)
C2_4 C 0.7817(5) 0.0380(5) 0.56145(10)
C3_4 C 0.8106(5) 0.4334(5) 0.49394(10)
H1_4 H 0.800597 0.502935 0.492618
C4_4 C 0.8094(5) 0.2650(4) 0.48364(10)
C5_4 C 0.4706(5) 0.6492(4) 0.27861(8)
C6_4 C 0.5929(5) 0.6425(4) 0.31972(9)
H2_4 H 0.528441 0.562438 0.323951
C7_4 C 0.9933(6) 0.3732(6) 0.57640(10)
H3_4 H 0.922229 0.330754 0.587975
C9_4 C 0.6983(5) 0.6954(4) 0.33670(9)
O5_4 O 0.6258(5) 0.5193(4) 0.36627(11)
C11_4 C 0.7030(5) 0.1598(5) 0.55798(11)
H5_4 H 0.691294 0.226329 0.553231
C12_4 C 0.7940(6) 0.8110(5) 0.32987(10)
H6_4 H 0.867047 0.846290 0.340884
C13_4 C 0.8596(5) 0.4055(5) 0.51643(10)
H7_4 H 0.888639 0.450967 0.533762
C15_4 C 0.7105(6) 0.6261(6) 0.36082(13)
C16_4 C 0.6269(6) 0.0629(6) 0.57331(11)
H9_4 H 0.551646 0.048253 0.581364
C17_4 C 0.6792(5) 0.8243(5) 0.29093(9)
H10_4 H 0.670693 0.868091 0.275357
C18_4 C 0.7953(5) 0.1590(5) 0.46591(11)
H11_4 H 0.740591 0.149926 0.449421
H12_4 H 0.923475 0.038425 0.542799
C20_4 C 0.7339(6) 0.0379(5) 0.48217(13)
H13_4 H 0.788105 0.040189 0.497537
H15_4 H 0.657031 0.024471 0.490560
C21_4 C 0.7820(6) 0.8762(5) 0.30633(11)
H16_4 H 0.846426 0.955684 0.301643
C22_4 C 0.9179(6) 0.1851(6) 0.45291(12)
H17_4 H 0.963090 0.269927 0.446211
H18_4 H 0.902766 0.129945 0.436649
H19_4 H 0.965937 0.172081 0.467566
B1_4 B 0.9103(5) 0.2383(5) 0.53077(12)
H20_4 H 0.943734 0.193740 0.519692
C25_4 C 0.9497(10) 0.0303(13) 0.5857(2)
H27_4 H 0.995230 0.119548 0.587197
Zn4 Zn 0.24315(9) 0.42141(6) 0.26177(2)
Zn6 Zn 0.34507(9) 0.67062(6) 0.22736(2)
O6_2 O 0.8558(5) 0.4628(3) 0.38355(7)
O7_2 O 0.7482(5) 0.2864(3) 0.40676(7)
N7_2 N 0.5119(5) 0.1795(4) 0.43920(7)
N8_2 N 0.9855(4) 0.6765(4) 0.42440(8)
Zn1_3 Zn 0.75685(9) 0.17826(7) 0.07157(2)
Zn2_3 Zn 0.65493(9) 0.32555(7) 0.10598(2)
O3_5 O 0.8715(5) 0.1915(4) 0.04248(7)
O4_5 O 0.7920(6) 0.3023(4) 0.09971(8)
N1_5 N 0.3464(6) 0.1979(4) 0.21670(9)
N2_5 N 0.4399(6) 0.1401(4) 0.17651(8)
N4_5 N 0.5661(6) 0.2231(4) 0.13950(8)
N6_3 N 0.3090(6) 0.3235(4) 0.24227(8)
C2_5 C 0.2563(7) 0.2183(5) 0.22812(10)
C3_5 C 0.6228(7) 0.1894(5) 0.16061(10)
H1_5 H 0.702338 0.199403 0.159285
C4_5 C 0.4556(6) 0.1906(5) 0.15031(10)
C7_5 C 0.3799(8) 0.0067(6) 0.24307(10)
H3_5 H 0.408525 0.077771 0.254642
C9_5 C 0.9971(6) 0.3017(5) 0.00337(9)
O5_5 O 0.8935(6) 0.3742(5) 0.03294(11)
C11_5 C 0.4568(7) 0.2970(5) 0.22465(11)
H5_5 H 0.535035 0.308706 0.219898
H6_5 H 0.979243 0.132953 0.007551
C13_5 C 0.5459(7) 0.1404(5) 0.18310(10)
H7_5 H 0.562328 0.111361 0.200429
C15_5 C 0.9156(8) 0.2895(6) 0.02749(13)
C16_5 C 0.4360(8) 0.3731(6) 0.23998(11)
H9_5 H 0.496607 0.448354 0.248031
C18_5 C 0.3637(7) 0.2047(5) 0.13258(11)
H11_5 H 0.409335 0.259409 0.116088
C19_4 C 0.1243(8) 0.1319(6) 0.22584(12)
H12_5 H 0.114950 0.076525 0.209466
C20_5 C 0.3040(8) 0.2661(6) 0.14884(13)
H13_5 H 0.252084 0.211895 0.164204
H14_4 H 0.254032 0.282882 0.135522
H15_5 H 0.367440 0.342969 0.157227
C22_5 C 0.2672(8) 0.0821(6) 0.11958(12)
H17_5 H 0.306837 0.036910 0.112878
H18_5 H 0.227179 0.097234 0.103316
H19_5 H 0.206144 0.034063 0.134233
B1_5 B 0.3280(7) 0.0897(5) 0.19744(12)
H20_5 H 0.250006 0.056266 0.186359
C25_5 C 0.0806(16) 0.0503(10) 0.2524(2)
H27_5 H 0.124318 0.004770 0.253864
H29_4 H 0.096707 0.100948 0.269623
C26_4 C 0.0487(13) 0.1921(9) 0.2174(2)
H30_4 H 0.047945 0.242069 0.233447
H32_4 H 0.085109 0.243853 0.200462
O6_3 O 0.6070(6) 0.1442(5) 0.05021(7)
O7_3 O 0.5382(6) 0.2518(5) 0.07342(7)
N7_3 N 0.6676(6) 0.4881(5) 0.10587(7)
N8_3 N 0.6910(6) 0.0145(4) 0.09107(8)
N3_4 N 0.3284(6) 0.9884(4) 0.21638(8)
N5_3 N 0.3324(6) 0.8205(4) 0.22747(7)
C8_4 C 0.3019(7) 0.8780(5) 0.20756(9)
C10_4 C 0.3820(8) 0.9047(5) 0.24971(10)
H4_4 H 0.412940 0.891716 0.267160
C14_4 C 0.2403(8) 0.8208(5) 0.17954(10)
H8_4 H 0.193610 0.861017 0.172984
C23_4 C 0.3411(8) 0.8440(6) 0.15575(12)
H21_4 H 0.395243 0.932026 0.153154
H22_4 H 0.300596 0.807366 0.137468
H23_4 H 0.389006 0.806707 0.162023
C24_4 C 0.1520(9) 0.6831(7) 0.18136(14)
H24_4 H 0.195181 0.642702 0.188891
H25_4 H 0.120159 0.651287 0.162132
H26_4 H 0.084163 0.667193 0.194203
N3_5 N 0.3400(4) 0.0116(4) 0.45029(8)
C8_5 C 0.4239(5) 0.1220(5) 0.45911(9)
C10_5 C 0.4773(6) 0.0953(5) 0.41696(10)
H4_5 H 0.521224 0.108284 0.399507
C14_5 C 0.4195(6) 0.1792(5) 0.48713(10)
H8_5 H 0.332593 0.138983 0.493683
C23_5 C 0.4971(6) 0.1560(6) 0.51092(12)
H21_5 H 0.463217 0.067974 0.513513
H22_5 H 0.493230 0.192634 0.529199
H23_5 H 0.582299 0.193293 0.504644
C24_5 C 0.4689(6) 0.3169(7) 0.48531(14)
H24_5 H 0.552479 0.357298 0.477776
H25_5 H 0.468872 0.348713 0.504535
H26_5 H 0.416970 0.332807 0.472464
C19_5 C 0.9924(6) 0.8681(6) 0.44083(12)
H14_5 H 0.971150 0.717118 0.531145
H29_5 H 0.995759 0.899052 0.397044
C26_5 C 0.8566(10) 0.8079(9) 0.4493(2)
H30_5 H 0.805876 0.757931 0.433220
H31_2 H 0.836196 0.871458 0.453683
H32_5 H 0.841256 0.756147 0.466205
C19_6 C 0.8757(8) 0.0076(6) 0.10750(12)
H14_6 H 0.745968 0.028850 0.197812
H29_6 H 0.903293 0.004241 0.063711
C26_6 C 0.9513(13) 0.1434(10) 0.1160(2)
H30_6 H 0.952055 0.194124 0.099887
H32_6 H 0.914891 0.158744 0.132872
O3_6 O 0.1285(5) 0.3200(3) 0.29086(7)
O4_6 O 0.2080(6) 0.5103(4) 0.23363(8)
N1_6 N 0.6536(6) 0.8515(4) 0.11664(9)
N2_6 N 0.5601(6) 0.7002(4) 0.15683(8)
N3_6 N 0.6716(6) 0.6600(4) 0.11696(8)
N4_6 N 0.4339(6) 0.6570(4) 0.19384(8)
C2_6 C 0.7437(7) 0.9620(5) 0.10522(10)
C3_6 C 0.3772(7) 0.5666(5) 0.17273(10)
H1_6 H 0.297662 0.497065 0.174049
C4_6 C 0.5444(6) 0.7350(4) 0.18303(10)
C7_6 C 0.6201(8) 0.6268(6) 0.09027(10)
H3_6 H 0.591475 0.669246 0.078692
C8_6 C 0.6981(7) 0.5761(5) 0.12578(9)
C9_6 C 0.0029(6) 0.3046(4) 0.32997(9)
O5_6 O 0.1065(6) 0.4807(4) 0.30040(11)
C10_6 C 0.6180(8) 0.5227(6) 0.08363(10)
H4_6 H 0.587060 0.478776 0.066174
C11_6 C 0.5432(7) 0.8402(5) 0.10869(11)
H5_6 H 0.464965 0.773671 0.113436
H6_6 H 0.020757 0.153710 0.325783
C13_6 C 0.4541(7) 0.5945(5) 0.15024(10)
H7_6 H 0.437672 0.549033 0.132905
C14_6 C 0.7597(8) 0.5805(6) 0.15380(10)
H8_6 H 0.806390 0.667407 0.160350
C15_6 C 0.0844(8) 0.3739(6) 0.30585(13)
C16_6 C 0.5640(8) 0.9371(6) 0.09336(11)
H9_6 H 0.503393 0.951747 0.085303
C18_6 C 0.6363(7) 0.8410(5) 0.20076(11)
H11_6 H 0.590665 0.850074 0.217246
H12_6 H 0.885050 0.961575 0.123868
C20_6 C 0.6960(8) 0.9621(5) 0.18450(13)
H13_6 H 0.747916 0.959811 0.169130
H15_6 H 0.632560 0.975529 0.176107
C22_6 C 0.7328(8) 0.8149(6) 0.21376(12)
H17_6 H 0.693163 0.730073 0.220456
H18_6 H 0.772821 0.870055 0.230018
H19_6 H 0.793856 0.827919 0.199101
B1_6 B 0.6720(7) 0.7617(5) 0.13590(12)
H20_6 H 0.749994 0.806260 0.146975
C23_6 C 0.6589(8) 0.5029(6) 0.17759(12)
H21_6 H 0.604757 0.536783 0.180180
H22_6 H 0.699404 0.506770 0.195866
H23_6 H 0.610994 0.417701 0.171311
C24_6 C 0.8480(9) 0.5311(6) 0.15198(14)
H24_6 H 0.804819 0.447521 0.144443
H25_6 H 0.879841 0.531128 0.171202
H26_6 H 0.915837 0.583030 0.139131
C25_6 C 0.9194(16) 0.9697(13) 0.0810(2)
H27_6 H 0.875682 0.880452 0.079470
C1_5 C 0.8774(6) 0.2953(4) 0.36937(9)
C5_5 C 0.8214(6) 0.3508(4) 0.38806(8)
C6_5 C 0.9504(6) 0.3575(4) 0.34695(9)
H2_5 H 0.966003 0.437562 0.342716
C12_5 C 0.9830(8) 0.1890(5) 0.33680(10)
C17_5 C 0.8549(7) 0.1757(5) 0.37574(9)
H10_5 H 0.802602 0.131909 0.391310
C21_5 C 0.9058(8) 0.1238(5) 0.36034(11)
H16_5 H 0.890742 0.044316 0.365024
C1_6 C 0.4179(5) 0.1226(6) 0.03603(9)
C5_6 C 0.5294(5) 0.1786(6) 0.05472(8)
C6_6 C 0.4071(5) 0.0496(6) 0.01361(9)
H2_6 H 0.471559 0.033997 0.009382
C12_6 C 0.2060(6) 0.0170(8) 0.00346(10)
C17_6 C 0.3208(5) 0.1451(7) 0.04240(9)
H10_6 H 0.329307 0.197398 0.057976
C21_6 C 0.2180(6) 0.0942(8) 0.02700(11)
H16_6 H 0.153574 0.109258 0.031690
H28_2 H 0.000204 0.007292 0.917498
H31_3 H 0.163804 0.035262 0.879650
H31_4 H 0.964738 0.128542 0.212984
H28_3 H 0.992708 0.992912 0.250832
H28_4 H 0.999796 0.007088 0.415835
H28_5 H 0.007292 0.000204 0.082502
H31_5 H 0.035262 0.163804 0.120350
H31_6 H 0.128542 0.964738 0.787016
H28_6 H 0.992912 0.992708 0.749168
loop_
_geom_bond_atom_site_label_1
_geom_bond_atom_site_label_2
_geom_bond_site_symmetry_1
_geom_bond_site_symmetry_2
N5 C8 1_555 1_555
C8 N3 1_555 1_555
C10 N5 1_555 1_555
H4 C10 1_555 1_555
C14 C8 1_555 1_555
H8 C14 1_555 1_555
C23 C14 1_555 1_555
H21 C23 1_555 1_555
H22 C23 1_555 1_555
H23 C23 1_555 1_555
C24 C14 1_555 1_555
H24 C24 1_555 1_555
H25 C24 1_555 1_555
H26 C24 1_555 1_555
Zn5 N5 1_555 1_555
C26 C19 1_555 1_555
H30 C26 1_555 1_555
H31 C26 1_555 1_555
H32 C26 1_555 1_555
Zn3 N6 1_555 1_555
C26_2 C19_2 1_555 1_555
H30_2 C26_2 1_555 1_555
H32_2 C26_2 1_555 1_555
Zn3_2 N6_2 1_555 1_555
Zn1 O3 1_555 1_555
Zn2 O4 1_555 1_555
O3 C15 1_555 1_555
O4 Zn1 1_555 1_555
N1 C2 1_555 1_555
N2 C4 1_555 1_555
N3_2 C7 1_555 1_555
N4 Zn2 1_555 1_555
N5_2 C8_2 1_555 1_555
C3 N4 1_555 1_555
H1 C3 1_555 1_555
C4 N4 1_555 1_555
C7 H3 1_555 1_555
C8_2 N3_2 1_555 1_555
O5 C15 1_555 1_555
C10_2 N5_2 1_555 1_555
H4_2 C10_2 1_555 1_555
C11 N1 1_555 1_555
H5 C11 1_555 1_555
C13 N2 1_555 1_555
H7 C13 1_555 1_555
C14_2 C8_2 1_555 1_555
H8_2 C14_2 1_555 1_555
C15 C9 1_555 1_555
H9 C16 1_555 1_555
C18 C4 1_555 1_555
H11 C18 1_555 1_555
C20 C18 1_555 1_555
H13 C20 1_555 1_555
H15 C20 1_555 1_555
C22 C18 1_555 1_555
H17 C22 1_555 1_555
H18 C22 1_555 1_555
H19 C22 1_555 1_555
B1 N1 1_555 1_555
H20 B1 1_555 1_555
C23_2 C14_2 1_555 1_555
H21_2 C23_2 1_555 1_555
H22_2 C23_2 1_555 1_555
H23_2 C23_2 1_555 1_555
C24_2 C14_2 1_555 1_555
H24_2 C24_2 1_555 1_555
H25_2 C24_2 1_555 1_555
H26_2 C24_2 1_555 1_555
H27 C25 1_555 1_555
Zn5_2 N5_2 1_555 1_555
O6 Zn1 1_555 1_555
O7 Zn2 1_555 1_555
N7 Zn2 1_555 1_555
N8 Zn1 1_555 1_555
N2 B1 1_555 1_555
N3_2 B1 1_555 1_555
C3 C13 1_555 1_555
C7 C10_2 1_555 1_555
C11 C16 1_555 1_555
O1 C5 1_555 1_555
O2 C5 1_555 1_555
C1 C5 1_555 1_555
C6 C1 1_555 1_555
H2 C6 1_555 1_555
C17 C1 1_555 1_555
H10 C17 1_555 1_555
C21 C12 1_555 1_555
H16 C21 1_555 1_555
Zn3 O1 1_555 1_555
Zn5 O2 1_555 1_555
C17 C21 1_555 1_555
O1_2 C5_2 1_555 1_555
O2_2 C5_2 1_555 1_555
C1_2 C5_2 1_555 1_555
C6_2 C1_2 1_555 1_555
H2_2 C6_2 1_555 1_555
C17_2 C1_2 1_555 1_555
H10_2 C17_2 1_555 1_555
C21_2 C12_2 1_555 1_555
H16_2 C21_2 1_555 1_555
Zn3_2 O1_2 1_555 1_555
Zn5_2 O2_2 1_555 1_555
C17_2 C21_2 1_555 1_555
Zn3 O3_2 1_555 1_555
Zn5 O4_2 1_555 1_555
O6 C5_3 1_555 1_555
O7 C5_3 1_555 1_555
O3_2 C15_2 1_555 1_555
O4_2 Zn3 1_555 1_555
N1_2 C2_2 1_555 1_555
N2_2 C4_2 1_555 1_555
N4_2 Zn5 1_555 1_555
C1_3 C5_3 1_555 1_555
C3_2 N4_2 1_555 1_555
H1_2 C3_2 1_555 1_555
C4_2 N4_2 1_555 1_555
C6_3 C1_3 1_555 1_555
H2_3 C6_3 1_555 1_555
C7_2 H3_2 1_555 1_555
C9_2 C6_3 1_555 1_555
O5_2 C15_2 1_555 1_555
C11_2 N1_2 1_555 1_555
H5_2 C11_2 1_555 1_555
C12_3 C9_2 1_555 1_555
H6_2 C12_3 1_555 1_555
C13_2 N2_2 1_555 1_555
H7_2 C13_2 1_555 1_555
C15_2 C9_2 1_555 1_555
H9_2 C16_2 1_555 1_555
C17_3 C1_3 1_555 1_555
H10_3 C17_3 1_555 1_555
C18_2 C4_2 1_555 1_555
H11_2 C18_2 1_555 1_555
C20_2 C18_2 1_555 1_555
H13_2 C20_2 1_555 1_555
H15_2 C20_2 1_555 1_555
C21_3 C12_3 1_555 1_555
H16_3 C21_3 1_555 1_555
C22_2 C18_2 1_555 1_555
H17_2 C22_2 1_555 1_555
H18_2 C22_2 1_555 1_555
H19_2 C22_2 1_555 1_555
B1_2 N1_2 1_555 1_555
H20_2 B1_2 1_555 1_555
H27_2 C25_2 1_555 1_555
N2_2 B1_2 1_555 1_555
C3_2 C13_2 1_555 1_555
C11_2 C16_2 1_555 1_555
C17_3 C21_3 1_555 1_555
Zn3_2 O3_3 1_555 1_555
Zn5_2 O4_3 1_555 1_555
O3_3 C15_3 1_555 1_555
O4_3 Zn3_2 1_555 1_555
N1_3 C2_3 1_555 1_555
N2_3 C4_3 1_555 1_555
N4_3 Zn5_2 1_555 1_555
N8 C2_3 1_555 1_555
C2_3 C19_3 1_555 1_555
C3_3 N4_3 1_555 1_555
H1_3 C3_3 1_555 1_555
C4_3 N4_3 1_555 1_555
C7_3 H3_3 1_555 1_555
O5_3 C15_3 1_555 1_555
C11_3 N1_3 1_555 1_555
H5_3 C11_3 1_555 1_555
C13_3 N2_3 1_555 1_555
H7_3 C13_3 1_555 1_555
C15_3 C9_3 1_555 1_555
C16_3 N8 1_555 1_555
H9_3 C16_3 1_555 1_555
C18_3 C4_3 1_555 1_555
H11_3 C18_3 1_555 1_555
C19_3 H12_3 1_555 1_555
C20_3 C18_3 1_555 1_555
H13_3 C20_3 1_555 1_555
H14_3 C20_3 1_555 1_555
H15_3 C20_3 1_555 1_555
C22_3 C18_3 1_555 1_555
H17_3 C22_3 1_555 1_555
H18_3 C22_3 1_555 1_555
H19_3 C22_3 1_555 1_555
B1_3 N1_3 1_555 1_555
H20_3 B1_3 1_555 1_555
C25_3 C19_3 1_555 1_555
H27_3 C25_3 1_555 1_555
H29_3 C25_3 1_555 1_555
C26_3 C19_3 1_555 1_555
H30_3 C26_3 1_555 1_555
H32_3 C26_3 1_555 1_555
N2_3 B1_3 1_555 1_555
C3_3 C13_3 1_555 1_555
C11_3 C16_3 1_555 1_555
N7 C8_3 1_555 1_555
C8_3 N3_3 1_555 1_555
C10_3 N7 1_555 1_555
H4_3 C10_3 1_555 1_555
C14_3 C8_3 1_555 1_555
H8_3 C14_3 1_555 1_555
C23_3 C14_3 1_555 1_555
H21_3 C23_3 1_555 1_555
H22_3 C23_3 1_555 1_555
H23_3 C23_3 1_555 1_555
C24_3 C14_3 1_555 1_555
H24_3 C24_3 1_555 1_555
H25_3 C24_3 1_555 1_555
H26_3 C24_3 1_555 1_555
Zn1_2 O3_4 1_555 1_555
Zn2_2 O4_4 1_555 1_555
O1_3 C5_4 1_555 1_555
O2_3 C5_4 1_555 1_555
O3_4 C15_4 1_555 1_555
O4_4 Zn1_2 1_555 1_555
N1_4 C2_4 1_555 1_555
N2_4 C4_4 1_555 1_555
N4_4 Zn2_2 1_555 1_555
C1_4 C5_4 1_555 1_555
C3_4 N4_4 1_555 1_555
H1_4 C3_4 1_555 1_555
C4_4 N4_4 1_555 1_555
C6_4 C1_4 1_555 1_555
H2_4 C6_4 1_555 1_555
C7_4 H3_4 1_555 1_555
C9_4 C6_4 1_555 1_555
O5_4 C15_4 1_555 1_555
C11_4 N1_4 1_555 1_555
H5_4 C11_4 1_555 1_555
C12_4 C9_4 1_555 1_555
H6_4 C12_4 1_555 1_555
C13_4 N2_4 1_555 1_555
H7_4 C13_4 1_555 1_555
C15_4 C9_4 1_555 1_555
H9_4 C16_4 1_555 1_555
C17_4 C1_4 1_555 1_555
H10_4 C17_4 1_555 1_555
C18_4 C4_4 1_555 1_555
H11_4 C18_4 1_555 1_555
C20_4 C18_4 1_555 1_555
H13_4 C20_4 1_555 1_555
H15_4 C20_4 1_555 1_555
C21_4 C12_4 1_555 1_555
H16_4 C21_4 1_555 1_555
C22_4 C18_4 1_555 1_555
H17_4 C22_4 1_555 1_555
H18_4 C22_4 1_555 1_555
H19_4 C22_4 1_555 1_555
B1_4 N1_4 1_555 1_555
H20_4 B1_4 1_555 1_555
H27_4 C25_4 1_555 1_555
Zn4 O1_3 1_555 1_555
Zn6 O2_3 1_555 1_555
O6_2 Zn1_2 1_555 1_555
O7_2 Zn2_2 1_555 1_555
N7_2 Zn2_2 1_555 1_555
N8_2 Zn1_2 1_555 1_555
N2_4 B1_4 1_555 1_555
C3_4 C13_4 1_555 1_555
C11_4 C16_4 1_555 1_555
C17_4 C21_4 1_555 1_555
Zn1_3 O3_5 1_555 1_555
Zn2_3 O4_5 1_555 1_555
O3_5 C15_5 1_555 1_555
O4_5 Zn1_3 1_555 1_555
N1_5 C2_5 1_555 1_555
N2_5 C4_5 1_555 1_555
N4_5 Zn2_3 1_555 1_555
N6_3 C2_5 1_555 1_555
C2_5 C19_4 1_555 1_555
C3_5 N4_5 1_555 1_555
H1_5 C3_5 1_555 1_555
C4_5 N4_5 1_555 1_555
C7_5 H3_5 1_555 1_555
O5_5 C15_5 1_555 1_555
C11_5 N1_5 1_555 1_555
H5_5 C11_5 1_555 1_555
C13_5 N2_5 1_555 1_555
H7_5 C13_5 1_555 1_555
C15_5 C9_5 1_555 1_555
C16_5 N6_3 1_555 1_555
H9_5 C16_5 1_555 1_555
C18_5 C4_5 1_555 1_555
H11_5 C18_5 1_555 1_555
C19_4 H12_5 1_555 1_555
C20_5 C18_5 1_555 1_555
H13_5 C20_5 1_555 1_555
H14_4 C20_5 1_555 1_555
H15_5 C20_5 1_555 1_555
C22_5 C18_5 1_555 1_555
H17_5 C22_5 1_555 1_555
H18_5 C22_5 1_555 1_555
H19_5 C22_5 1_555 1_555
B1_5 N1_5 1_555 1_555
H20_5 B1_5 1_555 1_555
C25_5 C19_4 1_555 1_555
H27_5 C25_5 1_555 1_555
H29_4 C25_5 1_555 1_555
C26_4 C19_4 1_555 1_555
H30_4 C26_4 1_555 1_555
H32_4 C26_4 1_555 1_555
Zn4 N6_3 1_555 1_555
O6_3 Zn1_3 1_555 1_555
O7_3 Zn2_3 1_555 1_555
N7_3 Zn2_3 1_555 1_555
N8_3 Zn1_3 1_555 1_555
N2_5 B1_5 1_555 1_555
C3_5 C13_5 1_555 1_555
C11_5 C16_5 1_555 1_555
N5_3 C8_4 1_555 1_555
C8_4 N3_4 1_555 1_555
C10_4 N5_3 1_555 1_555
H4_4 C10_4 1_555 1_555
C14_4 C8_4 1_555 1_555
H8_4 C14_4 1_555 1_555
C23_4 C14_4 1_555 1_555
H21_4 C23_4 1_555 1_555
H22_4 C23_4 1_555 1_555
H23_4 C23_4 1_555 1_555
C24_4 C14_4 1_555 1_555
H24_4 C24_4 1_555 1_555
H25_4 C24_4 1_555 1_555
H26_4 C24_4 1_555 1_555
Zn6 N5_3 1_555 1_555
N7_2 C8_5 1_555 1_555
C8_5 N3_5 1_555 1_555
C10_5 N7_2 1_555 1_555
H4_5 C10_5 1_555 1_555
C14_5 C8_5 1_555 1_555
H8_5 C14_5 1_555 1_555
C23_5 C14_5 1_555 1_555
H21_5 C23_5 1_555 1_555
H22_5 C23_5 1_555 1_555
H23_5 C23_5 1_555 1_555
C24_5 C14_5 1_555 1_555
H24_5 C24_5 1_555 1_555
H25_5 C24_5 1_555 1_555
H26_5 C24_5 1_555 1_555
C26_5 C19_5 1_555 1_555
H30_5 C26_5 1_555 1_555
H31_2 C26_5 1_555 1_555
H32_5 C26_5 1_555 1_555
C26_6 C19_6 1_555 1_555
H30_6 C26_6 1_555 1_555
H32_6 C26_6 1_555 1_555
Zn4 O3_6 1_555 1_555
Zn6 O4_6 1_555 1_555
O3_6 C15_6 1_555 1_555
O4_6 Zn4 1_555 1_555
N1_6 C2_6 1_555 1_555
N2_6 C4_6 1_555 1_555
N3_6 C7_6 1_555 1_555
N4_6 Zn6 1_555 1_555
N7_3 C8_6 1_555 1_555
C3_6 N4_6 1_555 1_555
H1_6 C3_6 1_555 1_555
C4_6 N4_6 1_555 1_555
C7_6 H3_6 1_555 1_555
C8_6 N3_6 1_555 1_555
O5_6 C15_6 1_555 1_555
C10_6 N7_3 1_555 1_555
H4_6 C10_6 1_555 1_555
C11_6 N1_6 1_555 1_555
H5_6 C11_6 1_555 1_555
C13_6 N2_6 1_555 1_555
H7_6 C13_6 1_555 1_555
C14_6 C8_6 1_555 1_555
H8_6 C14_6 1_555 1_555
C15_6 C9_6 1_555 1_555
H9_6 C16_6 1_555 1_555
C18_6 C4_6 1_555 1_555
H11_6 C18_6 1_555 1_555
C20_6 C18_6 1_555 1_555
H13_6 C20_6 1_555 1_555
H15_6 C20_6 1_555 1_555
C22_6 C18_6 1_555 1_555
H17_6 C22_6 1_555 1_555
H18_6 C22_6 1_555 1_555
H19_6 C22_6 1_555 1_555
B1_6 N1_6 1_555 1_555
H20_6 B1_6 1_555 1_555
C23_6 C14_6 1_555 1_555
H21_6 C23_6 1_555 1_555
H22_6 C23_6 1_555 1_555
H23_6 C23_6 1_555 1_555
C24_6 C14_6 1_555 1_555
H24_6 C24_6 1_555 1_555
H25_6 C24_6 1_555 1_555
H26_6 C24_6 1_555 1_555
H27_6 C25_6 1_555 1_555
N2_6 B1_6 1_555 1_555
N3_6 B1_6 1_555 1_555
C3_6 C13_6 1_555 1_555
C7_6 C10_6 1_555 1_555
C11_6 C16_6 1_555 1_555
O6_2 C5_5 1_555 1_555
O7_2 C5_5 1_555 1_555
C1_5 C5_5 1_555 1_555
C6_5 C1_5 1_555 1_555
H2_5 C6_5 1_555 1_555
C17_5 C1_5 1_555 1_555
H10_5 C17_5 1_555 1_555
C21_5 C12_5 1_555 1_555
H16_5 C21_5 1_555 1_555
C17_5 C21_5 1_555 1_555
O6_3 C5_6 1_555 1_555
O7_3 C5_6 1_555 1_555
C1_6 C5_6 1_555 1_555
C6_6 C1_6 1_555 1_555
H2_6 C6_6 1_555 1_555
C17_6 C1_6 1_555 1_555
H10_6 C17_6 1_555 1_555
C21_6 C12_6 1_555 1_555
H16_6 C21_6 1_555 1_555
C17_6 C21_6 1_555 1_555

#END
