
###############################################################################
#
# This file contains modified crystal structure data generated from the
# MOF subset of the Cambridge Structural Database (CSD) v543 
# hosted by the Cambridge Crystallographic Data Centre (CCDC).
#
# This work is licensed under the Creative Commons
# Attribution-NonCommercial-ShareAlike 4.0 International License.
# To view a copy of this license, visit
# http://creativecommons.org/licenses/by-nc-sa/4.0/
# or send a letter to
# Creative Commons, PO Box 1866, Mountain View, CA 94042, USA.
#
# CIF created using the CSD Python API on 29 September 2022
# The structure has been converted into the P1 space group
# The structure has a 3D framework
# The original CSD entry TEDGUG is in the rhombohedral crystal system
# The framework has been calculated to contain at least 10.0% void space
# The void calculation uses a probe of radius 1.32A, grid spacing 0.4
# H atom positions have been added when not included in the experimental data
#
###############################################################################

data_TEDGUG
_chemical_formula_moiety         '(C234 H252 N234 O18 Zn30 6+)n'
_symmetry_cell_setting           triclinic
_symmetry_space_group_name_H-M   'P 1'
_symmetry_Int_Tables_number      1
_space_group_name_Hall           'P 1'
loop_
_symmetry_equiv_pos_site_id
_symmetry_equiv_pos_as_xyz
1 x,y,z
_cell_length_a                   29.667(4)
_cell_length_b                   29.667(4)
_cell_length_c                   22.161(6)
_cell_angle_alpha                90
_cell_angle_beta                 90
_cell_angle_gamma                120
_cell_volume                     16891.5
loop_
_atom_site_label
_atom_site_type_symbol
_atom_site_fract_x
_atom_site_fract_y
_atom_site_fract_z
Zn1 Zn 0.6667 0.3333 0.8333
O1 O 0.7026(6) 0.2985(6) 0.7800(7)
N1 N 0.7385(9) 0.2701(8) 0.7238(8)
C1 C 0.714(3) 0.2620(17) 0.770(2)
C2 C 0.672(3) 0.212(3) 0.744(3)
H1 H 0.6406 0.2000 0.7679
H2 H 0.6822 0.1860 0.7455
H3 H 0.6648 0.2169 0.7033
C3 C 0.7585(12) 0.2375(11) 0.6969(11)
H4 H 0.7900 0.2593 0.6751
H5 H 0.7330 0.2125 0.6699
H6 H 0.7655 0.2197 0.7285
C4 C 0.783(4) 0.323(2) 0.707(4)
H7 H 0.8043 0.3190 0.6768
H8 H 0.8039 0.3395 0.7419
H9 H 0.7698 0.3441 0.6908
O2 O 0.7015(6) 0.4041(8) 0.7800(7)
O3 O 0.5959(8) 0.2974(6) 0.7800(7)
O4 O 0.6307(6) 0.3682(6) 0.8867(7)
O5 O 0.6318(6) 0.2626(8) 0.8867(7)
O6 O 0.7374(8) 0.3693(6) 0.8867(7)
N2 N 0.7299(8) 0.4684(12) 0.7238(8)
N3 N 0.5316(12) 0.2615(9) 0.7238(8)
N4 N 0.5948(9) 0.3966(8) 0.9429(8)
N5 N 0.6034(8) 0.1983(12) 0.9429(8)
N6 N 0.8017(12) 0.4052(9) 0.9429(8)
C5 C 0.7380(17) 0.4520(34) 0.770(2)
C6 C 0.5480(34) 0.286(3) 0.770(2)
C7 C 0.619(3) 0.4047(17) 0.897(2)
C8 C 0.5953(17) 0.2147(34) 0.897(2)
C9 C 0.7853(34) 0.381(3) 0.897(2)
C10 C 0.788(3) 0.460(4) 0.744(3)
C11 C 0.540(4) 0.328(3) 0.744(3)
C12 C 0.661(3) 0.455(3) 0.923(3)
C13 C 0.545(3) 0.207(4) 0.923(3)
C14 C 0.793(4) 0.339(3) 0.923(3)
H10 H 0.8000 0.4406 0.7679
H11 H 0.5594 0.3594 0.7679
H12 H 0.6927 0.4667 0.8988
H13 H 0.5333 0.2261 0.8988
H14 H 0.7739 0.3073 0.8988
H15 H 0.8140 0.4962 0.7455
H16 H 0.5038 0.3178 0.7455
H17 H 0.6511 0.4807 0.9212
H18 H 0.5193 0.1705 0.9212
H19 H 0.8295 0.3489 0.9212
H20 H 0.7831 0.4479 0.7033
H21 H 0.5521 0.3352 0.7033
H22 H 0.6685 0.4498 0.9634
H23 H 0.5502 0.2188 0.9634
H24 H 0.7812 0.3315 0.9634
C15 C 0.7625(11) 0.5210(16) 0.6969(11)
C16 C 0.4790(16) 0.2415(12) 0.6969(11)
C17 C 0.5748(12) 0.4292(11) 0.9698(11)
C18 C 0.5708(11) 0.1457(16) 0.9698(11)
C19 C 0.8543(16) 0.4252(12) 0.9698(11)
H25 H 0.7407 0.5307 0.6751
H26 H 0.4693 0.2100 0.6751
H27 H 0.5433 0.4074 0.9916
H28 H 0.5926 0.1360 0.9916
H29 H 0.8640 0.4567 0.9916
H30 H 0.7875 0.5205 0.6699
H31 H 0.4795 0.2670 0.6699
H32 H 0.6003 0.4542 0.9968
H33 H 0.5458 0.1462 0.9968
H34 H 0.8538 0.3997 0.9968
H35 H 0.7803 0.5458 0.7285
H36 H 0.4542 0.2345 0.7285
H37 H 0.5678 0.4470 0.9382
H38 H 0.5530 0.1209 0.9382
H39 H 0.8791 0.4322 0.9382
C20 C 0.677(2) 0.460(4) 0.707(4)
C21 C 0.540(4) 0.217(4) 0.707(4)
C22 C 0.550(4) 0.344(2) 0.960(4)
C23 C 0.656(2) 0.207(4) 0.960(4)
C24 C 0.793(4) 0.450(4) 0.960(4)
H40 H 0.6810 0.4853 0.6768
H41 H 0.5147 0.1957 0.6768
H42 H 0.5290 0.3477 0.9899
H43 H 0.6523 0.1814 0.9899
H44 H 0.8186 0.4710 0.9899
H45 H 0.6605 0.4644 0.7419
H46 H 0.5356 0.1961 0.7419
H47 H 0.5294 0.3272 0.9248
H48 H 0.6728 0.2023 0.9248
H49 H 0.7977 0.4706 0.9248
H50 H 0.6559 0.4257 0.6908
H51 H 0.5743 0.2302 0.6908
H52 H 0.5635 0.3226 0.9759
H53 H 0.6774 0.2410 0.9759
H54 H 0.7590 0.4365 0.9759
Zn1_2 Zn 0.3334 0.6666 0.1666
O1_2 O 0.3693(6) 0.6318(6) 0.1133(7)
N1_2 N 0.4052(9) 0.6034(8) 0.0571(8)
C1_2 C 0.381(3) 0.5953(17) 0.103(2)
C2_2 C 0.339(3) 0.545(3) 0.077(3)
H1_2 H 0.3073 0.5333 0.1012
H2_2 H 0.3489 0.5193 0.0788
H3_2 H 0.3315 0.5502 0.0366
C3_2 C 0.4252(12) 0.5708(11) 0.0302(11)
H4_2 H 0.4567 0.5926 0.0084
H5_2 H 0.3997 0.5458 0.0032
H6_2 H 0.4322 0.5530 0.0618
C4_2 C 0.450(4) 0.656(2) 0.040(4)
H7_2 H 0.4710 0.6523 0.0101
H8_2 H 0.4706 0.6728 0.0752
H9_2 H 0.4365 0.6774 0.0241
O2_2 O 0.3682(6) 0.7374(8) 0.1133(7)
O3_2 O 0.2626(8) 0.6307(6) 0.1133(7)
O4_2 O 0.2974(6) 0.7015(6) 0.2200(7)
O5_2 O 0.2985(6) 0.5959(8) 0.2200(7)
O6_2 O 0.4041(8) 0.7026(6) 0.2200(7)
N2_2 N 0.3966(8) 0.8017(12) 0.0571(8)
N3_2 N 0.1983(12) 0.5948(9) 0.0571(8)
N4_2 N 0.2615(9) 0.7299(8) 0.2762(8)
N5_2 N 0.2701(8) 0.5316(12) 0.2762(8)
N6_2 N 0.4684(12) 0.7385(9) 0.2762(8)
C5_2 C 0.4047(17) 0.7853(34) 0.103(2)
C6_2 C 0.2147(34) 0.619(3) 0.103(2)
C7_2 C 0.286(3) 0.7380(17) 0.230(2)
C8_2 C 0.2620(17) 0.5480(34) 0.230(2)
C9_2 C 0.4520(34) 0.714(3) 0.230(2)
C10_2 C 0.455(3) 0.793(4) 0.077(3)
C11_2 C 0.207(4) 0.661(3) 0.077(3)
C12_2 C 0.328(3) 0.788(3) 0.256(3)
C13_2 C 0.212(3) 0.540(4) 0.256(3)
C14_2 C 0.460(4) 0.672(3) 0.256(3)
H10_2 H 0.4667 0.7739 0.1012
H11_2 H 0.2261 0.6927 0.1012
H12_2 H 0.3594 0.8000 0.2321
H13_2 H 0.2000 0.5594 0.2321
H14_2 H 0.4406 0.6406 0.2321
H15_2 H 0.4807 0.8295 0.0788
H16_2 H 0.1705 0.6511 0.0788
H17_2 H 0.3178 0.8140 0.2545
H18_2 H 0.1860 0.5038 0.2545
H19_2 H 0.4962 0.6822 0.2545
H20_2 H 0.4498 0.7812 0.0366
H21_2 H 0.2188 0.6685 0.0366
H22_2 H 0.3352 0.7831 0.2967
H23_2 H 0.2169 0.5521 0.2967
H24_2 H 0.4479 0.6648 0.2967
C15_2 C 0.4292(11) 0.8543(16) 0.0302(11)
C16_2 C 0.1457(16) 0.5748(12) 0.0302(11)
C17_2 C 0.2415(12) 0.7625(11) 0.3031(11)
C18_2 C 0.2375(11) 0.4790(16) 0.3031(11)
C19_2 C 0.5210(16) 0.7585(12) 0.3031(11)
H25_2 H 0.4074 0.8640 0.0084
H26_2 H 0.1360 0.5433 0.0084
H27_2 H 0.2100 0.7407 0.3249
H28_2 H 0.2593 0.4693 0.3249
H29_2 H 0.5307 0.7900 0.3249
H30_2 H 0.4542 0.8538 0.0032
H31_2 H 0.1462 0.6003 0.0032
H32_2 H 0.2670 0.7875 0.3301
H33_2 H 0.2125 0.4795 0.3301
H34_2 H 0.5205 0.7330 0.3301
H35_2 H 0.4470 0.8791 0.0618
H36_2 H 0.1209 0.5678 0.0618
H37_2 H 0.2345 0.7803 0.2715
H38_2 H 0.2197 0.4542 0.2715
H39_2 H 0.5458 0.7655 0.2715
C20_2 C 0.344(2) 0.793(4) 0.040(4)
C21_2 C 0.207(4) 0.550(4) 0.040(4)
C22_2 C 0.217(4) 0.677(2) 0.293(4)
C23_2 C 0.323(2) 0.540(4) 0.293(4)
C24_2 C 0.460(4) 0.783(4) 0.293(4)
H40_2 H 0.3477 0.8186 0.0101
H41_2 H 0.1814 0.5290 0.0101
H42_2 H 0.1957 0.6810 0.3232
H43_2 H 0.3190 0.5147 0.3232
H44_2 H 0.4853 0.8043 0.3232
H45_2 H 0.3272 0.7977 0.0752
H46_2 H 0.2023 0.5294 0.0752
H47_2 H 0.1961 0.6605 0.2581
H48_2 H 0.3395 0.5356 0.2581
H49_2 H 0.4644 0.8039 0.2581
H50_2 H 0.3226 0.7590 0.0241
H51_2 H 0.2410 0.5635 0.0241
H52_2 H 0.2302 0.6559 0.3092
H53_2 H 0.3441 0.5743 0.3092
H54_2 H 0.4257 0.7698 0.3092
Zn1_3 Zn 0.0000 -0.0000 0.5000
H8_3 H 0.1372 0.0062 0.4086
H9_3 H 0.1031 0.0108 0.3575
O2_3 O 0.0348(6) 0.0708(8) 0.4467(7)
O6_3 O 0.0708(8) 0.0359(6) 0.5533(7)
N2_3 N 0.0632(8) 0.1351(12) 0.3905(8)
N6_3 N 0.1351(12) 0.0718(9) 0.6095(8)
C5_3 C 0.0713(17) 0.1187(34) 0.437(2)
C9_3 C 0.1187(34) 0.047(3) 0.563(2)
C10_3 C 0.121(3) 0.127(4) 0.411(3)
C14_3 C 0.127(4) 0.005(3) 0.589(3)
H10_3 H 0.1333 0.1073 0.4346
H12_3 H 0.0261 0.1333 0.5654
H15_3 H 0.1473 0.1629 0.4122
H19_3 H 0.1629 0.0155 0.5878
H20_3 H 0.1164 0.1146 0.3700
H22_3 H 0.0019 0.1164 0.6300
C15_3 C 0.0958(11) 0.1877(16) 0.3636(11)
C19_3 C 0.1877(16) 0.0918(12) 0.6364(11)
H25_3 H 0.0740 0.1974 0.3418
H29_3 H 0.1974 0.1233 0.6582
H30_3 H 0.1208 0.1872 0.3366
H34_3 H 0.1872 0.0663 0.6634
H35_3 H 0.1136 0.2125 0.3952
H39_3 H 0.2125 0.0988 0.6048
C20_3 C 0.010(2) 0.127(4) 0.374(4)
C24_3 C 0.127(4) 0.116(4) 0.626(4)
H40_3 H 0.0143 0.1520 0.3435
H44_3 H 0.1520 0.1376 0.6565
H49_3 H 0.1311 0.1372 0.5914
H54_3 H 0.0924 0.1031 0.6425
Zn1_4 Zn 0.0000 1.0000 0.5000
O1_3 O 0.0359(6) 0.9652(6) 0.4467(7)
N1_3 N 0.0718(9) 0.9368(8) 0.3905(8)
C1_3 C 0.047(3) 0.9287(17) 0.437(2)
C2_3 C 0.005(3) 0.879(3) 0.411(3)
H2_3 H 0.0155 0.8527 0.4122
C3_3 C 0.0918(12) 0.9042(11) 0.3636(11)
H4_3 H 0.1233 0.9260 0.3418
H5_3 H 0.0663 0.8792 0.3366
H6_3 H 0.0988 0.8864 0.3952
C4_3 C 0.116(4) 0.990(2) 0.374(4)
H7_3 H 0.1376 0.9857 0.3435
H14_3 H 0.1073 0.9739 0.5654
H24_3 H 0.1146 0.9981 0.6300
H48_3 H 0.0062 0.8689 0.5914
H53_3 H 0.0108 0.9076 0.6425
Zn1_5 Zn 1.0000 -0.0000 0.5000
O4_3 O 0.9641(6) 0.0348(6) 0.5533(7)
N4_3 N 0.9282(9) 0.0632(8) 0.6095(8)
C7_3 C 0.953(3) 0.0713(17) 0.563(2)
C12_3 C 0.995(3) 0.121(3) 0.589(3)
H11_3 H 0.8927 0.0261 0.4346
H17_3 H 0.9845 0.1473 0.5878
H21_3 H 0.8854 0.0019 0.3700
C17_3 C 0.9082(12) 0.0958(11) 0.6364(11)
H27_3 H 0.8767 0.0740 0.6582
H32_3 H 0.9337 0.1208 0.6634
H37_3 H 0.9012 0.1136 0.6048
C22_3 C 0.884(4) 0.010(2) 0.626(4)
H42_3 H 0.8624 0.0143 0.6565
H45_3 H 0.9938 0.1311 0.4086
H50_3 H 0.9892 0.0924 0.3575
Zn1_6 Zn 1.0000 1.0000 0.5000
H1_3 H 0.9739 0.8667 0.4346
H3_3 H 0.9981 0.8836 0.3700
O3_3 O 0.9292(8) 0.9641(6) 0.4467(7)
O5_3 O 0.9652(6) 0.9292(8) 0.5533(7)
N3_3 N 0.8649(12) 0.9282(9) 0.3905(8)
N5_3 N 0.9368(8) 0.8649(12) 0.6095(8)
C6_3 C 0.8813(34) 0.953(3) 0.437(2)
C8_3 C 0.9287(17) 0.8813(34) 0.563(2)
C11_3 C 0.873(4) 0.995(3) 0.411(3)
C13_3 C 0.879(3) 0.873(4) 0.589(3)
H13_3 H 0.8667 0.8927 0.5654
H16_3 H 0.8371 0.9845 0.4122
H18_3 H 0.8527 0.8371 0.5878
H23_3 H 0.8836 0.8854 0.6300
C16_3 C 0.8123(16) 0.9082(12) 0.3636(11)
C18_3 C 0.9042(11) 0.8123(16) 0.6364(11)
H26_3 H 0.8026 0.8767 0.3418
H28_3 H 0.9260 0.8026 0.6582
H31_3 H 0.8128 0.9337 0.3366
H33_3 H 0.8792 0.8128 0.6634
H36_3 H 0.7875 0.9012 0.3952
H38_3 H 0.8864 0.7875 0.6048
C21_3 C 0.873(4) 0.884(4) 0.374(4)
C23_3 C 0.990(2) 0.873(4) 0.626(4)
H41_3 H 0.8480 0.8624 0.3435
H43_3 H 0.9857 0.8480 0.6565
H46_3 H 0.8689 0.8628 0.4086
H47_3 H 0.8628 0.9938 0.5914
H51_3 H 0.9076 0.8969 0.3575
H52_3 H 0.8969 0.9892 0.6425
Zn2 Zn 0.43538(4) 0.00002(4) 0.00000(5)
N8 N 0.4316(3) 0.0627(3) 0.0191(4)
C31 C 0.4241(4) 0.2118(4) 0.0032(4)
H57 H 0.4363 0.2178 0.0427
N13 N 0.4444(5) 0.1335(4) 0.0585(4)
C32 C 0.4251(5) 0.1280(4) 0.0038(5)
N14 N 0.4489(5) 0.0920(4) 0.0674(4)
C33 C 0.4247(4) 0.2971(4) 0.0033(4)
N16 N 0.4448(4) 0.3112(4) 0.0585(4)
N17 N 0.4311(3) 0.3691(3) 0.0187(4)
N18 N 0.4486(4) 0.3570(4) 0.0675(5)
Zn4 Zn 0.43536(6) 0.43538(4) 0.00000(5)
Zn5 Zn -0.00002(4) 0.43536(6) 0.00000(5)
Zn8 Zn 0.10205(4) 0.33335(4) 0.33333(5)
Zn14 Zn 0.23129(4) 0.33331(4) 0.33333(5)
N20 N 0.1442(4) 0.3635(3) 0.2109(3)
C35 C 0.1942(6) 0.3890(5) 0.1153(4)
C40 C 0.2481(6) 0.4151(4) 0.0266(4)
C45 C 0.1668(6) 0.4149(4) 0.0265(4)
N30 N 0.3307(4) 0.4155(3) 0.0225(4)
N35 N 0.2198(4) 0.3642(3) 0.2111(3)
C50 C 0.2397(6) 0.3981(5) 0.0859(4)
H59 H 0.2642 0.3928 0.1061
N40 N 0.1969(4) 0.3487(3) 0.2644(3)
N44 N 0.0154(3) 0.4851(3) 0.0689(3)
C55 C 0.1586(6) 0.3980(4) 0.0855(5)
H64 H 0.1288 0.3926 0.1055
N51 N 0.1516(4) 0.3485(3) 0.2646(3)
N56 N 0.4698(3) 0.4849(4) 0.0687(3)
C60 C 0.1860(6) 0.3722(4) 0.1796(5)
N72 N 0.0848(4) 0.4156(3) 0.0225(3)
H73 H 0.463235 0.0841135 0.105022
Zn2_2 Zn 0.43538(4) 0.00002(4) 1.00000(5)
N7 N 0.3635(3) 0.2193(3) 0.7891(3)
C25 C 0.3890(5) 0.1948(4) 0.8847(4)
C26 C 0.4151(4) 0.1670(4) 0.9734(4)
C27 C 0.4149(4) 0.2481(4) 0.9735(4)
N9 N 0.4155(3) 0.0848(3) 0.9775(4)
N10 N 0.3642(3) 0.1444(3) 0.7889(3)
C28 C 0.3981(5) 0.1584(4) 0.9141(4)
H55 H 0.3928 0.1286 0.8939
N11 N 0.3487(3) 0.1518(3) 0.7356(3)
C29 C 0.3980(4) 0.2394(4) 0.9145(5)
H56 H 0.3926 0.2638 0.8945
N12 N 0.3485(3) 0.1969(3) 0.7354(3)
C30 C 0.3722(4) 0.1862(4) 0.8204(5)
N15 N 0.4156(3) 0.3308(3) 0.9775(3)
Zn4_2 Zn 0.43536(6) 0.43538(4) 1.00000(5)
Zn5_2 Zn -0.00002(4) 0.43536(6) 1.00000(5)
Zn12 Zn 0.33331(4) 0.10203(6) 0.66667(5)
Zn18 Zn 0.33335(4) 0.23131(6) 0.66667(5)
N25 N 0.3689(4) 0.4316(3) 0.9809(4)
N48 N 0.4851(3) 0.4698(4) 0.9311(3)
N60 N 0.4849(4) 0.0152(3) 0.9313(3)
C65 C 0.2123(6) 0.4241(4) 0.9968(4)
H69 H 0.2185 0.4363 0.9573
N62 N 0.3109(6) 0.4444(5) 0.9415(4)
C70 C 0.2971(6) 0.4251(5) 0.9962(5)
N67 N 0.3569(6) 0.4489(5) 0.9326(4)
C75 C 0.1276(6) 0.4247(4) 0.9967(4)
N77 N 0.1336(6) 0.4448(4) 0.9415(4)
N82 N 0.0620(4) 0.4311(3) 0.9813(4)
N87 N 0.0916(6) 0.4486(4) 0.9325(5)
H76 H 0.08343 0.462521 0.894725
Zn2_3 Zn 0.43538(4) 1.00002(4) 0.00000(5)
Zn3 Zn 0.00002(4) 0.56464(6) 0.00000(5)
Zn10 Zn 0.23131(6) 0.89795(4) 0.33333(5)
Zn16 Zn 0.10203(6) 0.76871(4) 0.33333(5)
N19 N 0.2193(3) 0.8558(4) 0.2109(3)
C34 C 0.1948(4) 0.8058(6) 0.1153(4)
C39 C 0.1670(4) 0.7519(6) 0.0266(4)
C44 C 0.2481(4) 0.8332(6) 0.0265(4)
N29 N 0.0848(3) 0.6693(4) 0.0225(4)
N34 N 0.1444(3) 0.7802(4) 0.2111(3)
C49 C 0.1584(4) 0.7603(6) 0.0859(4)
H58 H 0.1286 0.7358 0.1061
N39 N 0.1518(3) 0.8031(4) 0.2644(3)
N46 N 0.4698(4) 0.9846(3) 0.0689(3)
C54 C 0.2394(4) 0.8414(6) 0.0855(5)
H63 H 0.2638 0.8712 0.1055
N50 N 0.1969(3) 0.8484(4) 0.2646(3)
N55 N 0.0152(3) 0.5302(3) 0.0687(3)
C59 C 0.1862(4) 0.8140(6) 0.1796(5)
N71 N 0.3308(3) 0.9152(4) 0.0225(3)
Zn2_4 Zn 0.43538(4) 1.00002(4) 1.00000(5)
Zn3_2 Zn 0.00002(4) 0.56464(6) 1.00000(5)
N24 N 0.0627(3) 0.6311(4) 0.9809(4)
C64 C 0.2118(4) 0.7877(6) 0.9968(4)
H68 H 0.2178 0.7815 0.9573
N61 N 0.1335(4) 0.6891(6) 0.9415(4)
C69 C 0.1280(4) 0.7029(6) 0.9962(5)
N66 N 0.0920(4) 0.6431(6) 0.9326(4)
C74 C 0.2971(4) 0.8724(6) 0.9967(4)
N76 N 0.3112(4) 0.8664(6) 0.9415(4)
N81 N 0.3691(3) 0.9380(4) 0.9813(4)
N86 N 0.3570(4) 0.9084(6) 0.9325(5)
H75 H 0.0841135 0.620879 0.894978
Zn5_3 Zn 0.99998(4) 0.43536(6) 0.00000(5)
Zn7 Zn 0.56462(4) -0.00002(4) 0.00000(5)
N26 N 0.9373(3) 0.3689(4) 0.0191(4)
C66 C 0.7882(4) 0.2123(6) 0.0032(4)
H70 H 0.7822 0.2185 0.0427
N63 N 0.8665(4) 0.3109(6) 0.0585(4)
C71 C 0.8720(4) 0.2971(6) 0.0038(5)
N68 N 0.9080(4) 0.3569(6) 0.0674(4)
C76 C 0.7029(4) 0.1276(6) 0.0033(4)
N78 N 0.6888(4) 0.1336(6) 0.0585(4)
N83 N 0.6309(3) 0.0620(4) 0.0187(4)
N88 N 0.6430(4) 0.0916(6) 0.0675(5)
Zn5_4 Zn 0.99998(4) 0.43536(6) 1.00000(5)
Zn7_2 Zn 0.56462(4) -0.00002(4) 1.00000(5)
Zn13 Zn 0.89797(6) 0.23129(4) 0.66667(5)
Zn19 Zn 0.76869(6) 0.10205(4) 0.66667(5)
N21 N 0.7807(3) 0.1442(4) 0.7891(3)
C36 C 0.8052(4) 0.1942(6) 0.8847(4)
C41 C 0.8330(4) 0.2481(6) 0.9734(4)
C46 C 0.7519(4) 0.1668(6) 0.9735(4)
N31 N 0.9152(3) 0.3307(4) 0.9775(4)
N36 N 0.8556(3) 0.2198(4) 0.7889(3)
C51 C 0.8416(4) 0.2397(6) 0.9141(4)
H60 H 0.8714 0.2642 0.8939
N41 N 0.8482(3) 0.1969(4) 0.7356(3)
N49 N 0.5302(4) 0.0154(3) 0.9311(3)
C56 C 0.7606(4) 0.1586(6) 0.9145(5)
H65 H 0.7362 0.1288 0.8945
N52 N 0.8031(3) 0.1516(4) 0.7354(3)
N58 N 0.9848(3) 0.4698(3) 0.9313(3)
C61 C 0.8138(4) 0.1860(6) 0.8204(5)
N73 N 0.6692(3) 0.0848(4) 0.9775(3)
Zn3_3 Zn 1.00002(4) 0.56464(6) 0.00000(5)
Zn6 Zn 0.56464(6) 0.56462(4) 0.00000(5)
Zn7_3 Zn 0.56462(4) 0.99998(4) 0.00000(5)
Zn9 Zn 0.66665(4) 0.76869(6) 0.33333(5)
Zn15 Zn 0.66669(4) 0.89797(6) 0.33333(5)
N23 N 0.6365(3) 0.7807(3) 0.2109(3)
C38 C 0.6110(5) 0.8052(4) 0.1153(4)
C43 C 0.5849(4) 0.8330(4) 0.0266(4)
C48 C 0.5851(4) 0.7519(4) 0.0265(4)
N27 N 0.6311(4) 0.5684(3) 0.0191(4)
N33 N 0.5845(3) 0.9152(3) 0.0225(4)
N38 N 0.6358(3) 0.8556(3) 0.2111(3)
C53 C 0.6019(5) 0.8416(4) 0.0859(4)
H62 H 0.6072 0.8714 0.1061
N43 N 0.6513(3) 0.8482(3) 0.2644(3)
N45 N 0.5149(3) 0.5302(4) 0.0689(3)
C58 C 0.6020(4) 0.7606(4) 0.0855(5)
H67 H 0.6074 0.7362 0.1055
N54 N 0.6515(3) 0.8031(3) 0.2646(3)
N57 N 0.5151(4) 0.9848(3) 0.0687(3)
C63 C 0.6278(4) 0.8138(4) 0.1796(5)
C67 C 0.7877(6) 0.5759(4) 0.0032(4)
H71 H 0.7815 0.5637 0.0427
N64 N 0.6891(6) 0.5556(5) 0.0585(4)
C72 C 0.7029(6) 0.5749(5) 0.0038(5)
N69 N 0.6431(6) 0.5511(5) 0.0674(4)
N75 N 0.5844(3) 0.6692(3) 0.0225(3)
C77 C 0.8724(6) 0.5753(4) 0.0033(4)
N79 N 0.8664(6) 0.5552(4) 0.0585(4)
N84 N 0.9380(4) 0.5689(3) 0.0187(4)
N89 N 0.9084(6) 0.5514(4) 0.0675(5)
Zn3_4 Zn 1.00002(4) 0.56464(6) 1.00000(5)
Zn6_2 Zn 0.56464(6) 0.56462(4) 1.00000(5)
Zn7_4 Zn 0.56462(4) 0.99998(4) 1.00000(5)
Zn11 Zn 0.76871(4) 0.66669(4) 0.66667(5)
Zn17 Zn 0.89795(4) 0.66665(4) 0.66667(5)
N22 N 0.8558(4) 0.6365(3) 0.7891(3)
C37 C 0.8058(6) 0.6110(5) 0.8847(4)
C42 C 0.7519(6) 0.5849(4) 0.9734(4)
C47 C 0.8332(6) 0.5851(4) 0.9735(4)
N28 N 0.5684(3) 0.9373(3) 0.9809(4)
N32 N 0.6693(4) 0.5845(3) 0.9775(4)
N37 N 0.7802(4) 0.6358(3) 0.7889(3)
C52 C 0.7603(6) 0.6019(5) 0.9141(4)
H61 H 0.7358 0.6072 0.8939
N42 N 0.8031(4) 0.6513(3) 0.7356(3)
N47 N 0.9846(3) 0.5149(3) 0.9311(3)
C57 C 0.8414(6) 0.6020(4) 0.9145(5)
H66 H 0.8712 0.6074 0.8945
N53 N 0.8484(4) 0.6515(3) 0.7354(3)
N59 N 0.5302(3) 0.5151(4) 0.9313(3)
C62 C 0.8140(6) 0.6278(4) 0.8204(5)
C68 C 0.5759(4) 0.7882(4) 0.9968(4)
H72 H 0.5637 0.7822 0.9573
N65 N 0.5556(5) 0.8665(4) 0.9415(4)
C73 C 0.5749(5) 0.8720(4) 0.9962(5)
N70 N 0.5511(5) 0.9080(4) 0.9326(4)
N74 N 0.9152(4) 0.5844(3) 0.9775(3)
C78 C 0.5753(4) 0.7029(4) 0.9967(4)
N80 N 0.5552(4) 0.6888(4) 0.9415(4)
N85 N 0.5689(3) 0.6309(3) 0.9813(4)
N90 N 0.5514(4) 0.6430(4) 0.9325(5)
H74 H 0.536765 0.915886 0.894978
H75_2 H 0.379121 0.463235 0.894978
H73_2 H 0.915886 0.379121 0.105022
H76_2 H 0.537479 0.620909 0.894725
H76_3 H 0.379091 0.91657 0.894725
H73_3 H 0.620879 0.536765 0.105022
N7_2 N 0.0302(3) 0.5526(3) 0.1224(3)
C25_2 C 0.0557(5) 0.5281(4) 0.2180(4)
C26_2 C 0.0818(4) 0.5003(4) 0.3067(4)
C27_2 C 0.0816(4) 0.5814(4) 0.3068(4)
N8_2 N 0.0983(3) 0.3960(3) 0.3524(4)
N9_2 N 0.0822(3) 0.4181(3) 0.3108(4)
N10_2 N 0.0309(3) 0.4777(3) 0.1222(3)
C28_2 C 0.0648(5) 0.4917(4) 0.2474(4)
H55_2 H 0.0595 0.4619 0.2272
C29_2 C 0.0647(4) 0.5727(4) 0.2478(5)
H56_2 H 0.0593 0.5971 0.2278
C30_2 C 0.0389(4) 0.5195(4) 0.1537(5)
C31_2 C 0.0908(4) 0.5451(4) 0.3365(4)
H57_2 H 0.1030 0.5511 0.3760
N13_2 N 0.1111(5) 0.4668(4) 0.3918(4)
C32_2 C 0.0918(5) 0.4613(4) 0.3371(5)
N14_2 N 0.1156(5) 0.4253(4) 0.4007(4)
N15_2 N 0.0823(3) 0.6641(3) 0.3108(3)
C33_2 C 0.0914(4) 0.6304(4) 0.3366(4)
N16_2 N 0.1115(4) 0.6445(4) 0.3918(4)
N17_2 N 0.0978(3) 0.7024(3) 0.3520(4)
N18_2 N 0.1153(4) 0.6903(4) 0.4008(5)
N25_2 N 0.0356(4) 0.7649(3) 0.3142(4)
N46_2 N 0.1364(4) 0.3180(3) 0.4023(3)
N56_2 N 0.1364(3) 0.8183(4) 0.4021(3)
N67_2 N 0.0236(6) 0.7822(5) 0.2659(4)
N81_2 N 0.0358(3) 0.2713(4) 0.3146(4)
N86_2 N 0.0237(4) 0.2417(6) 0.2658(5)
H73_4 H 0.129901 0.417447 0.438356
N19_2 N 0.8860(3) 0.1891(4) 0.5442(3)
N20_2 N 0.8109(4) 0.6968(3) 0.5442(3)
N21_2 N 0.4474(3) 0.4775(4) 0.1224(3)
N23_2 N 0.3032(3) 0.1140(3) 0.5442(3)
C34_2 C 0.8615(4) 0.1391(6) 0.4486(4)
C35_2 C 0.8609(6) 0.7223(5) 0.4486(4)
C36_2 C 0.4719(4) 0.5275(6) 0.2180(4)
C38_2 C 0.2777(5) 0.1385(4) 0.4486(4)
C39_2 C 0.8337(4) 0.0852(6) 0.3599(4)
C40_2 C 0.9148(6) 0.7484(4) 0.3599(4)
C41_2 C 0.4997(4) 0.5814(6) 0.3067(4)
C43_2 C 0.2516(4) 0.1663(4) 0.3599(4)
C44_2 C 0.9148(4) 0.1665(6) 0.3598(4)
C45_2 C 0.8335(6) 0.7482(4) 0.3598(4)
C46_2 C 0.4186(4) 0.5001(6) 0.3068(4)
C48_2 C 0.2518(4) 0.0852(4) 0.3598(4)
N26_2 N 0.6040(3) 0.7022(4) 0.3524(4)
N28_2 N 0.2351(3) 0.2706(3) 0.3142(4)
N29_2 N 0.7515(3) 0.0026(4) 0.3558(4)
N30_2 N 0.9974(4) 0.7488(3) 0.3558(4)
N31_2 N 0.5819(3) 0.6640(4) 0.3108(4)
N33_2 N 0.2512(3) 0.2485(3) 0.3558(4)
N34_2 N 0.8111(3) 0.1135(4) 0.5444(3)
N35_2 N 0.8865(4) 0.6975(3) 0.5444(3)
N36_2 N 0.5223(3) 0.5531(4) 0.1222(3)
N38_2 N 0.3025(3) 0.1889(3) 0.5444(3)
C49_2 C 0.8251(4) 0.0936(6) 0.4192(4)
C50_2 C 0.9064(6) 0.7314(5) 0.4192(4)
C51_2 C 0.5083(4) 0.5730(6) 0.2474(4)
C53_2 C 0.2686(5) 0.1749(4) 0.4192(4)
H58_2 H 0.7953 0.0691 0.4394
H59_2 H 0.9309 0.7261 0.4394
H60_2 H 0.5381 0.5975 0.2272
H62_2 H 0.2739 0.2047 0.4394
N39_2 N 0.8185(3) 0.1364(4) 0.5977(3)
N40_2 N 0.8636(4) 0.6820(3) 0.5977(3)
N43_2 N 0.3180(3) 0.1815(3) 0.5977(3)
N44_2 N 0.6820(3) 0.8185(3) 0.4023(3)
C54_2 C 0.9061(4) 0.1747(6) 0.4188(5)
C55_2 C 0.8253(6) 0.7313(4) 0.4188(5)
C56_2 C 0.4273(4) 0.4919(6) 0.2478(5)
C58_2 C 0.2687(4) 0.0939(4) 0.4188(5)
H63_2 H 0.9305 0.2045 0.4388
H64_2 H 0.7955 0.7259 0.4388
H65_2 H 0.4029 0.4621 0.2278
H67_2 H 0.2741 0.0695 0.4388
N50_2 N 0.8636(3) 0.1817(4) 0.5979(3)
N51_2 N 0.8183(4) 0.6818(3) 0.5979(3)
N54_2 N 0.3182(3) 0.1364(3) 0.5979(3)
N57_2 N 0.1817(4) 0.3182(3) 0.4021(3)
C59_2 C 0.8529(4) 0.1473(6) 0.5129(5)
C60_2 C 0.8527(6) 0.7055(4) 0.5129(5)
C61_2 C 0.4805(4) 0.5193(6) 0.1537(5)
C63_2 C 0.2945(4) 0.1471(4) 0.5129(5)
C64_2 C 0.8785(4) 0.1210(6) 0.3301(4)
C65_2 C 0.8790(6) 0.7574(4) 0.3301(4)
C66_2 C 0.4549(4) 0.5456(6) 0.3365(4)
C68_2 C 0.2426(4) 0.1215(4) 0.3301(4)
H68_2 H 0.8845 0.1148 0.2906
H69_2 H 0.8852 0.7696 0.2906
H70_2 H 0.4489 0.5518 0.3760
H72_2 H 0.2304 0.1155 0.2906
N61_2 N 0.8002(4) 0.0224(6) 0.2748(4)
N62_2 N 0.9776(6) 0.7777(5) 0.2748(4)
N63_2 N 0.5332(4) 0.6442(6) 0.3918(4)
N65_2 N 0.2223(5) 0.1998(4) 0.2748(4)
C69_2 C 0.7947(4) 0.0362(6) 0.3295(5)
C70_2 C 0.9638(6) 0.7584(5) 0.3295(5)
C71_2 C 0.5387(4) 0.6304(6) 0.3371(5)
C73_2 C 0.2416(5) 0.2053(4) 0.3295(5)
N68_2 N 0.5747(4) 0.6902(6) 0.4007(4)
N70_2 N 0.2178(5) 0.2413(4) 0.2659(4)
N71_2 N 0.9975(3) 0.2485(4) 0.3558(3)
N72_2 N 0.7515(4) 0.7489(3) 0.3558(3)
N73_2 N 0.3359(3) 0.4181(4) 0.3108(3)
N75_2 N 0.2511(3) 0.0025(3) 0.3558(3)
C74_2 C 0.9638(4) 0.2057(6) 0.3300(4)
C75_2 C 0.7943(6) 0.7580(4) 0.3300(4)
C76_2 C 0.3696(4) 0.4609(6) 0.3366(4)
C78_2 C 0.2420(4) 0.0362(4) 0.3300(4)
N76_2 N 0.9779(4) 0.1997(6) 0.2748(4)
N77_2 N 0.8003(6) 0.7781(4) 0.2748(4)
N78_2 N 0.3555(4) 0.4669(6) 0.3918(4)
N80_2 N 0.2219(4) 0.0221(4) 0.2748(4)
N82_2 N 0.7287(4) 0.7644(3) 0.3146(4)
N83_2 N 0.2976(3) 0.3953(4) 0.3520(4)
N87_2 N 0.7583(6) 0.7819(4) 0.2658(5)
N88_2 N 0.3097(4) 0.4249(6) 0.4008(5)
H74_2 H 0.203432 0.24922 0.228311
H76_4 H 0.750097 0.795855 0.228058
N22_2 N 0.5225(4) 0.9698(3) 0.1224(3)
C37_2 C 0.4725(6) 0.9443(5) 0.2180(4)
C42_2 C 0.4186(6) 0.9182(4) 0.3067(4)
C47_2 C 0.4999(6) 0.9184(4) 0.3068(4)
N24_2 N 0.7294(3) 0.9644(4) 0.3142(4)
N27_2 N 0.2978(4) 0.9017(3) 0.3524(4)
N32_2 N 0.3360(4) 0.9178(3) 0.3108(4)
N37_2 N 0.4469(4) 0.9691(3) 0.1222(3)
C52_2 C 0.4270(6) 0.9352(5) 0.2474(4)
H61_2 H 0.4025 0.9405 0.2272
N45_2 N 0.1815(3) 0.8636(4) 0.4023(3)
C57_2 C 0.5081(6) 0.9353(4) 0.2478(5)
H66_2 H 0.5379 0.9407 0.2278
N55_2 N 0.6818(3) 0.8636(3) 0.4021(3)
C62_2 C 0.4807(6) 0.9611(4) 0.1537(5)
C67_2 C 0.4544(6) 0.9092(4) 0.3365(4)
H71_2 H 0.4482 0.8970 0.3760
N64_2 N 0.3558(6) 0.8889(5) 0.3918(4)
C72_2 C 0.3696(6) 0.9082(5) 0.3371(5)
N66_2 N 0.7587(4) 0.9764(6) 0.2659(4)
N69_2 N 0.3098(6) 0.8844(5) 0.4007(4)
N74_2 N 0.5819(4) 0.9177(3) 0.3108(3)
C77_2 C 0.5391(6) 0.9086(4) 0.3366(4)
N79_2 N 0.5331(6) 0.8885(4) 0.3918(4)
N84_2 N 0.6047(4) 0.9022(3) 0.3520(4)
N85_2 N 0.2356(3) 0.9642(3) 0.3146(4)
N89_2 N 0.5751(6) 0.8847(4) 0.4008(5)
N90_2 N 0.2181(4) 0.9763(4) 0.2658(5)
H75_3 H 0.75078 0.954212 0.228311
H75_4 H 0.0457878 0.796568 0.228311
H73_5 H 0.582553 0.712454 0.438356
H76_5 H 0.204145 0.954242 0.228058
H76_6 H 0.0457581 0.249903 0.228058
H73_6 H 0.287546 0.870099 0.438356
N17_3 N 0.7644(3) 0.0358(3) 0.6854(4)
N18_3 N 0.7819(4) 0.0237(4) 0.7342(5)
N20_3 N 0.4775(4) 0.0302(3) 0.8776(3)
C35_3 C 0.5275(6) 0.0557(5) 0.7820(4)
C40_3 C 0.5814(6) 0.0818(4) 0.6933(4)
C45_3 C 0.5001(6) 0.0816(4) 0.6932(4)
N25_3 N 0.7022(4) 0.0983(3) 0.6476(4)
N26_3 N 0.2706(3) 0.0356(4) 0.6858(4)
N30_3 N 0.6640(4) 0.0822(3) 0.6892(4)
N35_3 N 0.5531(4) 0.0309(3) 0.8778(3)
C50_3 C 0.5730(6) 0.0648(5) 0.7526(4)
H59_3 H 0.5975 0.0595 0.7728
C55_3 C 0.4919(6) 0.0647(4) 0.7522(5)
H64_3 H 0.4621 0.0593 0.7722
C60_3 C 0.5193(6) 0.0389(4) 0.8463(5)
C65_3 C 0.5456(6) 0.0908(4) 0.6635(4)
H69_3 H 0.5518 0.1030 0.6240
N62_3 N 0.6442(6) 0.1111(5) 0.6082(4)
C70_3 C 0.6304(6) 0.0918(5) 0.6629(5)
N67_3 N 0.6902(6) 0.1156(5) 0.5993(4)
N68_3 N 0.2413(4) 0.0236(6) 0.7341(4)
N72_3 N 0.4181(4) 0.0823(3) 0.6892(3)
C75_3 C 0.4609(6) 0.0914(4) 0.6634(4)
N77_3 N 0.4669(6) 0.1115(4) 0.6082(4)
N82_3 N 0.3953(4) 0.0978(3) 0.6480(4)
N87_3 N 0.4249(6) 0.1153(4) 0.5992(5)
H76_7 H 0.416763 0.129188 0.561391
N7_3 N 0.6968(3) 0.8860(3) 0.4558(3)
C25_3 C 0.7223(5) 0.8615(4) 0.5514(4)
C26_3 C 0.7484(4) 0.8337(4) 0.6401(4)
C27_3 C 0.7482(4) 0.9148(4) 0.6402(4)
N8_3 N 0.7649(3) 0.7294(3) 0.6858(4)
N9_3 N 0.7488(3) 0.7515(3) 0.6442(4)
N10_3 N 0.6975(3) 0.8111(3) 0.4556(3)
C28_3 C 0.7314(5) 0.8251(4) 0.5808(4)
H55_3 H 0.7261 0.7953 0.5606
C29_3 C 0.7313(4) 0.9061(4) 0.5812(5)
H56_3 H 0.7259 0.9305 0.5612
C30_3 C 0.7055(4) 0.8529(4) 0.4871(5)
C31_3 C 0.7574(4) 0.8785(4) 0.6699(4)
H57_3 H 0.7696 0.8845 0.7094
N13_3 N 0.7777(5) 0.8002(4) 0.7252(4)
C32_3 C 0.7584(5) 0.7947(4) 0.6705(5)
N14_3 N 0.7822(5) 0.7587(4) 0.7341(4)
N15_3 N 0.7489(3) 0.9975(3) 0.6442(3)
C33_3 C 0.7580(4) 0.9638(4) 0.6700(4)
N16_3 N 0.7781(4) 0.9779(4) 0.7252(4)
N19_3 N 0.5526(3) 0.5225(4) 0.8776(3)
N21_3 N 0.1140(3) 0.8109(4) 0.4558(3)
N22_3 N 0.1891(4) 0.3032(3) 0.4558(3)
C34_3 C 0.5281(4) 0.4725(6) 0.7820(4)
C36_3 C 0.1385(4) 0.8609(6) 0.5514(4)
C37_3 C 0.1391(6) 0.2777(5) 0.5514(4)
C39_3 C 0.5003(4) 0.4186(6) 0.6933(4)
C41_3 C 0.1663(4) 0.9148(6) 0.6401(4)
C42_3 C 0.0852(6) 0.2516(4) 0.6401(4)
C44_3 C 0.5814(4) 0.4999(6) 0.6932(4)
C46_3 C 0.0852(4) 0.8335(6) 0.6402(4)
C47_3 C 0.1665(6) 0.2518(4) 0.6402(4)
N24_3 N 0.3960(3) 0.2978(4) 0.6476(4)
N29_3 N 0.4181(3) 0.3360(4) 0.6892(4)
N31_3 N 0.2485(3) 0.9974(4) 0.6442(4)
N32_3 N 0.0026(4) 0.2512(3) 0.6442(4)
N34_3 N 0.4777(3) 0.4469(4) 0.8778(3)
N36_3 N 0.1889(3) 0.8865(4) 0.4556(3)
N37_3 N 0.1135(4) 0.3025(3) 0.4556(3)
C49_3 C 0.4917(4) 0.4270(6) 0.7526(4)
C51_3 C 0.1749(4) 0.9064(6) 0.5808(4)
C52_3 C 0.0936(6) 0.2686(5) 0.5808(4)
H58_3 H 0.4619 0.4025 0.7728
H60_3 H 0.2047 0.9309 0.5606
H61_3 H 0.0691 0.2739 0.5606
C54_3 C 0.5727(4) 0.5081(6) 0.7522(5)
C56_3 C 0.0939(4) 0.8253(6) 0.5812(5)
C57_3 C 0.1747(6) 0.2687(4) 0.5812(5)
H63_3 H 0.5971 0.5379 0.7722
H65_3 H 0.0695 0.7955 0.5612
H66_3 H 0.2045 0.2741 0.5612
C59_3 C 0.5195(4) 0.4807(6) 0.8463(5)
C61_3 C 0.1471(4) 0.8527(6) 0.4871(5)
C62_3 C 0.1473(6) 0.2945(4) 0.4871(5)
C64_3 C 0.5451(4) 0.4544(6) 0.6635(4)
C66_3 C 0.1215(4) 0.8790(6) 0.6699(4)
C67_3 C 0.1210(6) 0.2426(4) 0.6699(4)
H68_3 H 0.5511 0.4482 0.6240
H70_3 H 0.1155 0.8852 0.7094
H71_3 H 0.1148 0.2304 0.7094
N61_3 N 0.4668(4) 0.3558(6) 0.6082(4)
N63_3 N 0.1998(4) 0.9776(6) 0.7252(4)
N64_3 N 0.0224(6) 0.2223(5) 0.7252(4)
C69_3 C 0.4613(4) 0.3696(6) 0.6629(5)
C71_3 C 0.2053(4) 0.9638(6) 0.6705(5)
C72_3 C 0.0362(6) 0.2416(5) 0.6705(5)
N66_3 N 0.4253(4) 0.3098(6) 0.5993(4)
N71_3 N 0.6641(3) 0.5819(4) 0.6892(3)
N73_3 N 0.0025(3) 0.7515(4) 0.6442(3)
N74_3 N 0.2485(4) 0.2511(3) 0.6442(3)
C74_3 C 0.6304(4) 0.5391(6) 0.6634(4)
C76_3 C 0.0362(4) 0.7943(6) 0.6700(4)
C77_3 C 0.2057(6) 0.2420(4) 0.6700(4)
N76_3 N 0.6445(4) 0.5331(6) 0.6082(4)
N78_3 N 0.0221(4) 0.8003(6) 0.7252(4)
N79_3 N 0.1997(6) 0.2219(4) 0.7252(4)
N81_3 N 0.7024(3) 0.6047(4) 0.6480(4)
N84_3 N 0.2713(4) 0.2356(3) 0.6854(4)
N86_3 N 0.6903(4) 0.5751(6) 0.5992(5)
N89_3 N 0.2417(6) 0.2181(4) 0.7342(5)
H73_7 H 0.796568 0.75078 0.771689
H75_5 H 0.417447 0.287546 0.561644
N23_3 N 0.9698(3) 0.4474(3) 0.8776(3)
C38_3 C 0.9443(5) 0.4719(4) 0.7820(4)
C43_3 C 0.9182(4) 0.4997(4) 0.6933(4)
C48_3 C 0.9184(4) 0.4186(4) 0.6932(4)
N27_3 N 0.9644(4) 0.2351(3) 0.6858(4)
N28_3 N 0.9017(3) 0.6040(3) 0.6476(4)
N33_3 N 0.9178(3) 0.5819(3) 0.6892(4)
N38_3 N 0.9691(3) 0.5223(3) 0.8778(3)
C53_3 C 0.9352(5) 0.5083(4) 0.7526(4)
H62_3 H 0.9405 0.5381 0.7728
C58_3 C 0.9353(4) 0.4273(4) 0.7522(5)
H67_3 H 0.9407 0.4029 0.7722
C63_3 C 0.9611(4) 0.4805(4) 0.8463(5)
C68_3 C 0.9092(4) 0.4549(4) 0.6635(4)
H72_3 H 0.8970 0.4489 0.6240
N65_3 N 0.8889(5) 0.5332(4) 0.6082(4)
C73_3 C 0.9082(5) 0.5387(4) 0.6629(5)
N69_3 N 0.9764(6) 0.2178(5) 0.7341(4)
N70_3 N 0.8844(5) 0.5747(4) 0.5993(4)
N75_3 N 0.9177(3) 0.3359(3) 0.6892(3)
C78_3 C 0.9086(4) 0.3696(4) 0.6634(4)
N80_3 N 0.8885(4) 0.3555(4) 0.6082(4)
N83_3 N 0.9642(3) 0.7287(4) 0.6854(4)
N85_3 N 0.9022(3) 0.2976(3) 0.6480(4)
N88_3 N 0.9763(4) 0.7583(6) 0.7342(5)
N90_3 N 0.8847(4) 0.3097(4) 0.5992(5)
H74_3 H 0.870099 0.582553 0.561644
H73_8 H 0.24922 0.0457878 0.771689
H75_6 H 0.712454 0.129901 0.561644
H76_8 H 0.870812 0.287575 0.561391
H76_9 H 0.712425 0.583237 0.561391
H73_9 H 0.954212 0.203432 0.771689
H76_10 H 0.91657 0.537479 0.105275
H76_11 H 0.462521 0.379091 0.105275
H76_12 H 0.620909 0.08343 0.105275
H76_13 H 0.249903 0.204145 0.771942
H76_14 H 0.795855 0.0457581 0.771942
H76_15 H 0.954242 0.750097 0.771942
H76_16 H 0.583237 0.870812 0.438609
H76_17 H 0.129188 0.712425 0.438609
H76_18 H 0.287575 0.416763 0.438609
loop_
_geom_bond_atom_site_label_1
_geom_bond_atom_site_label_2
_geom_bond_site_symmetry_1
_geom_bond_site_symmetry_2
Zn1 O1 1_555 1_555
O1 C1 1_555 1_555
N1 C1 1_555 1_555
C1 C2 1_555 1_555
C2 H1 1_555 1_555
H2 C2 1_555 1_555
H3 C2 1_555 1_555
C3 N1 1_555 1_555
H4 C3 1_555 1_555
H5 C3 1_555 1_555
H6 C3 1_555 1_555
C4 N1 1_555 1_555
H7 C4 1_555 1_555
H8 C4 1_555 1_555
H9 C4 1_555 1_555
O2 Zn1 1_555 1_555
O3 Zn1 1_555 1_555
O4 Zn1 1_555 1_555
O5 Zn1 1_555 1_555
O6 Zn1 1_555 1_555
N2 C5 1_555 1_555
N3 C6 1_555 1_555
N4 C7 1_555 1_555
N5 C8 1_555 1_555
N6 C9 1_555 1_555
C5 O2 1_555 1_555
C6 O3 1_555 1_555
C7 O4 1_555 1_555
C8 O5 1_555 1_555
C9 O6 1_555 1_555
C10 C5 1_555 1_555
C11 C6 1_555 1_555
C12 C7 1_555 1_555
C13 C8 1_555 1_555
C14 C9 1_555 1_555
H10 C10 1_555 1_555
H11 C11 1_555 1_555
H12 C12 1_555 1_555
H13 C13 1_555 1_555
H14 C14 1_555 1_555
H15 C10 1_555 1_555
H16 C11 1_555 1_555
H17 C12 1_555 1_555
H18 C13 1_555 1_555
H19 C14 1_555 1_555
H20 C10 1_555 1_555
H21 C11 1_555 1_555
H22 C12 1_555 1_555
H23 C13 1_555 1_555
H24 C14 1_555 1_555
C15 N2 1_555 1_555
C16 N3 1_555 1_555
C17 N4 1_555 1_555
C18 N5 1_555 1_555
C19 N6 1_555 1_555
H25 C15 1_555 1_555
H26 C16 1_555 1_555
H27 C17 1_555 1_555
H28 C18 1_555 1_555
H29 C19 1_555 1_555
H30 C15 1_555 1_555
H31 C16 1_555 1_555
H32 C17 1_555 1_555
H33 C18 1_555 1_555
H34 C19 1_555 1_555
H35 C15 1_555 1_555
H36 C16 1_555 1_555
H37 C17 1_555 1_555
H38 C18 1_555 1_555
H39 C19 1_555 1_555
C20 N2 1_555 1_555
C21 N3 1_555 1_555
C22 N4 1_555 1_555
C23 N5 1_555 1_555
C24 N6 1_555 1_555
H40 C20 1_555 1_555
H41 C21 1_555 1_555
H42 C22 1_555 1_555
H43 C23 1_555 1_555
H44 C24 1_555 1_555
H45 C20 1_555 1_555
H46 C21 1_555 1_555
H47 C22 1_555 1_555
H48 C23 1_555 1_555
H49 C24 1_555 1_555
H50 C20 1_555 1_555
H51 C21 1_555 1_555
H52 C22 1_555 1_555
H53 C23 1_555 1_555
H54 C24 1_555 1_555
Zn1_2 O1_2 1_555 1_555
O1_2 C1_2 1_555 1_555
N1_2 C1_2 1_555 1_555
C1_2 C2_2 1_555 1_555
C2_2 H1_2 1_555 1_555
H2_2 C2_2 1_555 1_555
H3_2 C2_2 1_555 1_555
C3_2 N1_2 1_555 1_555
H4_2 C3_2 1_555 1_555
H5_2 C3_2 1_555 1_555
H6_2 C3_2 1_555 1_555
C4_2 N1_2 1_555 1_555
H7_2 C4_2 1_555 1_555
H8_2 C4_2 1_555 1_555
H9_2 C4_2 1_555 1_555
O2_2 Zn1_2 1_555 1_555
O3_2 Zn1_2 1_555 1_555
O4_2 Zn1_2 1_555 1_555
O5_2 Zn1_2 1_555 1_555
O6_2 Zn1_2 1_555 1_555
N2_2 C5_2 1_555 1_555
N3_2 C6_2 1_555 1_555
N4_2 C7_2 1_555 1_555
N5_2 C8_2 1_555 1_555
N6_2 C9_2 1_555 1_555
C5_2 O2_2 1_555 1_555
C6_2 O3_2 1_555 1_555
C7_2 O4_2 1_555 1_555
C8_2 O5_2 1_555 1_555
C9_2 O6_2 1_555 1_555
C10_2 C5_2 1_555 1_555
C11_2 C6_2 1_555 1_555
C12_2 C7_2 1_555 1_555
C13_2 C8_2 1_555 1_555
C14_2 C9_2 1_555 1_555
H10_2 C10_2 1_555 1_555
H11_2 C11_2 1_555 1_555
H12_2 C12_2 1_555 1_555
H13_2 C13_2 1_555 1_555
H14_2 C14_2 1_555 1_555
H15_2 C10_2 1_555 1_555
H16_2 C11_2 1_555 1_555
H17_2 C12_2 1_555 1_555
H18_2 C13_2 1_555 1_555
H19_2 C14_2 1_555 1_555
H20_2 C10_2 1_555 1_555
H21_2 C11_2 1_555 1_555
H22_2 C12_2 1_555 1_555
H23_2 C13_2 1_555 1_555
H24_2 C14_2 1_555 1_555
C15_2 N2_2 1_555 1_555
C16_2 N3_2 1_555 1_555
C17_2 N4_2 1_555 1_555
C18_2 N5_2 1_555 1_555
C19_2 N6_2 1_555 1_555
H25_2 C15_2 1_555 1_555
H26_2 C16_2 1_555 1_555
H27_2 C17_2 1_555 1_555
H28_2 C18_2 1_555 1_555
H29_2 C19_2 1_555 1_555
H30_2 C15_2 1_555 1_555
H31_2 C16_2 1_555 1_555
H32_2 C17_2 1_555 1_555
H33_2 C18_2 1_555 1_555
H34_2 C19_2 1_555 1_555
H35_2 C15_2 1_555 1_555
H36_2 C16_2 1_555 1_555
H37_2 C17_2 1_555 1_555
H38_2 C18_2 1_555 1_555
H39_2 C19_2 1_555 1_555
C20_2 N2_2 1_555 1_555
C21_2 N3_2 1_555 1_555
C22_2 N4_2 1_555 1_555
C23_2 N5_2 1_555 1_555
C24_2 N6_2 1_555 1_555
H40_2 C20_2 1_555 1_555
H41_2 C21_2 1_555 1_555
H42_2 C22_2 1_555 1_555
H43_2 C23_2 1_555 1_555
H44_2 C24_2 1_555 1_555
H45_2 C20_2 1_555 1_555
H46_2 C21_2 1_555 1_555
H47_2 C22_2 1_555 1_555
H48_2 C23_2 1_555 1_555
H49_2 C24_2 1_555 1_555
H50_2 C20_2 1_555 1_555
H51_2 C21_2 1_555 1_555
H52_2 C22_2 1_555 1_555
H53_2 C23_2 1_555 1_555
H54_2 C24_2 1_555 1_555
O2_3 Zn1_3 1_555 1_555
O6_3 Zn1_3 1_555 1_555
N2_3 C5_3 1_555 1_555
N6_3 C9_3 1_555 1_555
C5_3 O2_3 1_555 1_555
C9_3 O6_3 1_555 1_555
C10_3 C5_3 1_555 1_555
C14_3 C9_3 1_555 1_555
H10_3 C10_3 1_555 1_555
H15_3 C10_3 1_555 1_555
H19_3 C14_3 1_555 1_555
H20_3 C10_3 1_555 1_555
C15_3 N2_3 1_555 1_555
C19_3 N6_3 1_555 1_555
H25_3 C15_3 1_555 1_555
H29_3 C19_3 1_555 1_555
H30_3 C15_3 1_555 1_555
H34_3 C19_3 1_555 1_555
H35_3 C15_3 1_555 1_555
H39_3 C19_3 1_555 1_555
C20_3 N2_3 1_555 1_555
C24_3 N6_3 1_555 1_555
H40_3 C20_3 1_555 1_555
H44_3 C24_3 1_555 1_555
H49_3 C24_3 1_555 1_555
H54_3 C24_3 1_555 1_555
Zn1_4 O1_3 1_555 1_555
O1_3 C1_3 1_555 1_555
N1_3 C1_3 1_555 1_555
C1_3 C2_3 1_555 1_555
H2_3 C2_3 1_555 1_555
C3_3 N1_3 1_555 1_555
H4_3 C3_3 1_555 1_555
H5_3 C3_3 1_555 1_555
H6_3 C3_3 1_555 1_555
C4_3 N1_3 1_555 1_555
H7_3 C4_3 1_555 1_555
O4_3 Zn1_5 1_555 1_555
N4_3 C7_3 1_555 1_555
C7_3 O4_3 1_555 1_555
C12_3 C7_3 1_555 1_555
H17_3 C12_3 1_555 1_555
C17_3 N4_3 1_555 1_555
H27_3 C17_3 1_555 1_555
H32_3 C17_3 1_555 1_555
H37_3 C17_3 1_555 1_555
C22_3 N4_3 1_555 1_555
H42_3 C22_3 1_555 1_555
O3_3 Zn1_6 1_555 1_555
O5_3 Zn1_6 1_555 1_555
N3_3 C6_3 1_555 1_555
N5_3 C8_3 1_555 1_555
C6_3 O3_3 1_555 1_555
C8_3 O5_3 1_555 1_555
C11_3 C6_3 1_555 1_555
C13_3 C8_3 1_555 1_555
H13_3 C13_3 1_555 1_555
H16_3 C11_3 1_555 1_555
H18_3 C13_3 1_555 1_555
H23_3 C13_3 1_555 1_555
C16_3 N3_3 1_555 1_555
C18_3 N5_3 1_555 1_555
H26_3 C16_3 1_555 1_555
H28_3 C18_3 1_555 1_555
H31_3 C16_3 1_555 1_555
H33_3 C18_3 1_555 1_555
H36_3 C16_3 1_555 1_555
H38_3 C18_3 1_555 1_555
C21_3 N3_3 1_555 1_555
C23_3 N5_3 1_555 1_555
H41_3 C21_3 1_555 1_555
H43_3 C23_3 1_555 1_555
H46_3 C21_3 1_555 1_555
H51_3 C21_3 1_555 1_555
Zn2 N8 1_555 1_555
H57 C31 1_555 1_555
N13 C32 1_555 1_555
N14 N8 1_555 1_555
N16 C33 1_555 1_555
N18 N16 1_555 1_555
Zn4 N17 1_555 1_555
Zn8 N51 1_555 1_555
Zn14 N40 1_555 1_555
N20 N51 1_555 1_555
C35 C50 1_555 1_555
C40 C50 1_555 1_555
C45 C55 1_555 1_555
N35 N40 1_555 1_555
C50 H59 1_555 1_555
N40 N51 1_555 1_555
N44 Zn5 1_555 1_555
C55 C35 1_555 1_555
H64 C55 1_555 1_555
N56 Zn4 1_555 1_555
C60 N20 1_555 1_555
N13 N14 1_555 1_555
N17 N18 1_555 1_555
C35 C60 1_555 1_555
N35 C60 1_555 1_555
N14 H73 1_555 1_555
N7 N12 1_555 1_555
C25 C28 1_555 1_555
C26 C28 1_555 1_555
C27 C29 1_555 1_555
N10 N11 1_555 1_555
C28 H55 1_555 1_555
N11 N12 1_555 1_555
C29 C25 1_555 1_555
H56 C29 1_555 1_555
N12 Zn18 1_555 1_555
C30 N7 1_555 1_555
Zn12 N11 1_555 1_555
N25 Zn4_2 1_555 1_555
N48 Zn4_2 1_555 1_555
N60 Zn2_2 1_555 1_555
H69 C65 1_555 1_555
N62 C70 1_555 1_555
N67 N25 1_555 1_555
N77 C75 1_555 1_555
N82 Zn5_2 1_555 1_555
N87 N77 1_555 1_555
C25 C30 1_555 1_555
N10 C30 1_555 1_555
N62 N67 1_555 1_555
N82 N87 1_555 1_555
N87 H76 1_555 1_555
Zn10 N50 1_555 1_555
Zn16 N39 1_555 1_555
N19 N50 1_555 1_555
C34 C49 1_555 1_555
C39 C49 1_555 1_555
C44 C54 1_555 1_555
N34 N39 1_555 1_555
C49 H58 1_555 1_555
N39 N50 1_555 1_555
N46 Zn2_3 1_555 1_555
C54 C34 1_555 1_555
H63 C54 1_555 1_555
N55 Zn3 1_555 1_555
C59 N19 1_555 1_555
C34 C59 1_555 1_555
N34 C59 1_555 1_555
Zn3_2 N24 1_555 1_555
H68 C64 1_555 1_555
N61 C69 1_555 1_555
N66 N24 1_555 1_555
N76 C74 1_555 1_555
N81 Zn2_4 1_555 1_555
N86 N76 1_555 1_555
N61 N66 1_555 1_555
N81 N86 1_555 1_555
N66 H75 1_555 1_555
Zn5_3 N26 1_555 1_555
H70 C66 1_555 1_555
N63 C71 1_555 1_555
N68 N26 1_555 1_555
N78 C76 1_555 1_555
N83 Zn7 1_555 1_555
N88 N78 1_555 1_555
N63 N68 1_555 1_555
N83 N88 1_555 1_555
Zn13 N41 1_555 1_555
Zn19 N52 1_555 1_555
N21 N52 1_555 1_555
C36 C51 1_555 1_555
C41 C51 1_555 1_555
C46 C56 1_555 1_555
N36 N41 1_555 1_555
C51 H60 1_555 1_555
N41 N52 1_555 1_555
N49 Zn7_2 1_555 1_555
C56 C36 1_555 1_555
H65 C56 1_555 1_555
N58 Zn5_4 1_555 1_555
C61 N21 1_555 1_555
C36 C61 1_555 1_555
N36 C61 1_555 1_555
Zn6 N27 1_555 1_555
Zn9 N54 1_555 1_555
Zn15 N43 1_555 1_555
N23 N54 1_555 1_555
C38 C53 1_555 1_555
C43 C53 1_555 1_555
C48 C58 1_555 1_555
N38 N43 1_555 1_555
C53 H62 1_555 1_555
N43 N54 1_555 1_555
N45 Zn6 1_555 1_555
C58 C38 1_555 1_555
H67 C58 1_555 1_555
N57 Zn7_3 1_555 1_555
C63 N23 1_555 1_555
H71 C67 1_555 1_555
N64 C72 1_555 1_555
N69 N27 1_555 1_555
N79 C77 1_555 1_555
N84 Zn3_3 1_555 1_555
N89 N79 1_555 1_555
C38 C63 1_555 1_555
N38 C63 1_555 1_555
N64 N69 1_555 1_555
N84 N89 1_555 1_555
Zn7_4 N28 1_555 1_555
Zn11 N42 1_555 1_555
Zn17 N53 1_555 1_555
N22 N53 1_555 1_555
C37 C52 1_555 1_555
C42 C52 1_555 1_555
C47 C57 1_555 1_555
N37 N42 1_555 1_555
C52 H61 1_555 1_555
N42 N53 1_555 1_555
N47 Zn3_4 1_555 1_555
C57 C37 1_555 1_555
H66 C57 1_555 1_555
N59 Zn6_2 1_555 1_555
C62 N22 1_555 1_555
H72 C68 1_555 1_555
N65 C73 1_555 1_555
N70 N28 1_555 1_555
N80 C78 1_555 1_555
N85 Zn6_2 1_555 1_555
N90 N80 1_555 1_555
C37 C62 1_555 1_555
N37 C62 1_555 1_555
N65 N70 1_555 1_555
N85 N90 1_555 1_555
N70 H74 1_555 1_555
N67 H75_2 1_555 1_555
N68 H73_2 1_555 1_555
N90 H76_2 1_555 1_555
N86 H76_3 1_555 1_555
N69 H73_3 1_555 1_555
Zn8 N8_2 1_555 1_555
N7_2 N55 1_555 1_555
C25_2 C28_2 1_555 1_555
C26_2 C28_2 1_555 1_555
C27_2 C29_2 1_555 1_555
N8_2 N9_2 1_555 1_555
N9_2 C32_2 1_555 1_555
N10_2 N44 1_555 1_555
C28_2 H55_2 1_555 1_555
N44 N55 1_555 1_555
C29_2 C25_2 1_555 1_555
H56_2 C29_2 1_555 1_555
C30_2 N7_2 1_555 1_555
C31_2 C26_2 1_555 1_555
H57_2 C31_2 1_555 1_555
N13_2 C32_2 1_555 1_555
C32_2 C26_2 1_555 1_555
N14_2 N8_2 1_555 1_555
N15_2 C33_2 1_555 1_555
C33_2 C27_2 1_555 1_555
N16_2 C33_2 1_555 1_555
N17_2 N15_2 1_555 1_555
N18_2 N16_2 1_555 1_555
Zn16 N17_2 1_555 1_555
N25_2 Zn16 1_555 1_555
N46_2 Zn8 1_555 1_555
N56_2 Zn16 1_555 1_555
N67_2 N25_2 1_555 1_555
N81_2 Zn8 1_555 1_555
C25_2 C30_2 1_555 1_555
C27_2 C31_2 1_555 1_555
N10_2 C30_2 1_555 1_555
N13_2 N14_2 1_555 1_555
N17_2 N18_2 1_555 1_555
N81_2 N86_2 1_555 1_555
N14_2 H73_4 1_555 1_555
Zn9 N26_2 1_555 1_555
Zn14 N28_2 1_555 1_555
Zn11 N51_2 1_555 1_555
Zn12 N54_2 1_555 1_555
Zn13 N50_2 1_555 1_555
Zn17 N40_2 1_555 1_555
Zn18 N43_2 1_555 1_555
Zn19 N39_2 1_555 1_555
N19_2 N50_2 1_555 1_555
N20_2 N51_2 1_555 1_555
N21_2 N56 1_555 1_555
N23_2 N54_2 1_555 1_555
C34_2 C49_2 1_555 1_555
C35_2 C50_2 1_555 1_555
C36_2 C51_2 1_555 1_555
C38_2 C53_2 1_555 1_555
C39_2 C49_2 1_555 1_555
C40_2 C50_2 1_555 1_555
C41_2 C51_2 1_555 1_555
C43_2 C53_2 1_555 1_555
C44_2 C54_2 1_555 1_555
C45_2 C55_2 1_555 1_555
C46_2 C56_2 1_555 1_555
C48_2 C58_2 1_555 1_555
N26_2 N31_2 1_555 1_555
N28_2 N33_2 1_555 1_555
N29_2 C69_2 1_555 1_555
N31_2 C71_2 1_555 1_555
N33_2 C73_2 1_555 1_555
N34_2 N39_2 1_555 1_555
N35_2 N40_2 1_555 1_555
N36_2 N45 1_555 1_555
N38_2 N43_2 1_555 1_555
C49_2 H58_2 1_555 1_555
C50_2 H59_2 1_555 1_555
C51_2 H60_2 1_555 1_555
C53_2 H62_2 1_555 1_555
N39_2 N50_2 1_555 1_555
N40_2 N51_2 1_555 1_555
N45 N56 1_555 1_555
N43_2 N54_2 1_555 1_555
N44_2 Zn9 1_555 1_555
C54_2 C34_2 1_555 1_555
C55_2 C35_2 1_555 1_555
C56_2 C36_2 1_555 1_555
C58_2 C38_2 1_555 1_555
H63_2 C54_2 1_555 1_555
H64_2 C55_2 1_555 1_555
H65_2 C56_2 1_555 1_555
H67_2 C58_2 1_555 1_555
N57_2 Zn14 1_555 1_555
C59_2 N19_2 1_555 1_555
C60_2 N20_2 1_555 1_555
C61_2 N21_2 1_555 1_555
C63_2 N23_2 1_555 1_555
C64_2 C39_2 1_555 1_555
C65_2 C40_2 1_555 1_555
C66_2 C41_2 1_555 1_555
C68_2 C43_2 1_555 1_555
H68_2 C64_2 1_555 1_555
H69_2 C65_2 1_555 1_555
H70_2 C66_2 1_555 1_555
H72_2 C68_2 1_555 1_555
N61_2 C69_2 1_555 1_555
N62_2 C70_2 1_555 1_555
N63_2 C71_2 1_555 1_555
N65_2 C73_2 1_555 1_555
C69_2 C39_2 1_555 1_555
C70_2 C40_2 1_555 1_555
C71_2 C41_2 1_555 1_555
C73_2 C43_2 1_555 1_555
N68_2 N26_2 1_555 1_555
N70_2 N28_2 1_555 1_555
N71_2 C74_2 1_555 1_555
N72_2 C75_2 1_555 1_555
N73_2 C76_2 1_555 1_555
N75_2 C78_2 1_555 1_555
C74_2 C44_2 1_555 1_555
C75_2 C45_2 1_555 1_555
C76_2 C46_2 1_555 1_555
C78_2 C48_2 1_555 1_555
N76_2 C74_2 1_555 1_555
N77_2 C75_2 1_555 1_555
N78_2 C76_2 1_555 1_555
N80_2 C78_2 1_555 1_555
N82_2 Zn9 1_555 1_555
N83_2 Zn14 1_555 1_555
N87_2 N77_2 1_555 1_555
N88_2 N78_2 1_555 1_555
C34_2 C59_2 1_555 1_555
C35_2 C60_2 1_555 1_555
C36_2 C61_2 1_555 1_555
C38_2 C63_2 1_555 1_555
C44_2 C64_2 1_555 1_555
C45_2 C65_2 1_555 1_555
C46_2 C66_2 1_555 1_555
C48_2 C68_2 1_555 1_555
N30_2 C70_2 1_555 1_555
N34_2 C59_2 1_555 1_555
N35_2 C60_2 1_555 1_555
N36_2 C61_2 1_555 1_555
N38_2 C63_2 1_555 1_555
N63_2 N68_2 1_555 1_555
N65_2 N70_2 1_555 1_555
N72_2 N82_2 1_555 1_555
N73_2 N83_2 1_555 1_555
N82_2 N87_2 1_555 1_555
N83_2 N88_2 1_555 1_555
N70_2 H74_2 1_555 1_555
N87_2 H76_4 1_555 1_555
Zn15 N24_2 1_555 1_555
Zn10 N27_2 1_555 1_555
N22_2 N57 1_555 1_555
C37_2 C52_2 1_555 1_555
C42_2 C52_2 1_555 1_555
C47_2 C57_2 1_555 1_555
N27_2 N32_2 1_555 1_555
N32_2 C72_2 1_555 1_555
N37_2 N46 1_555 1_555
C52_2 H61_2 1_555 1_555
N46 N57 1_555 1_555
N45_2 Zn10 1_555 1_555
C57_2 C37_2 1_555 1_555
H66_2 C57_2 1_555 1_555
N55_2 Zn15 1_555 1_555
C62_2 N22_2 1_555 1_555
C67_2 C42_2 1_555 1_555
H71_2 C67_2 1_555 1_555
N64_2 C72_2 1_555 1_555
C72_2 C42_2 1_555 1_555
N66_2 N24_2 1_555 1_555
N69_2 N27_2 1_555 1_555
N74_2 C77_2 1_555 1_555
C77_2 C47_2 1_555 1_555
N79_2 C77_2 1_555 1_555
N84_2 Zn15 1_555 1_555
N85_2 Zn10 1_555 1_555
N89_2 N79_2 1_555 1_555
C37_2 C62_2 1_555 1_555
C47_2 C67_2 1_555 1_555
N37_2 C62_2 1_555 1_555
N64_2 N69_2 1_555 1_555
N74_2 N84_2 1_555 1_555
N84_2 N89_2 1_555 1_555
N85_2 N90_2 1_555 1_555
N66_2 H75_3 1_555 1_555
N67_2 H75_4 1_555 1_555
N68_2 H73_5 1_555 1_555
N90_2 H76_5 1_555 1_555
N86_2 H76_6 1_555 1_555
N69_2 H73_6 1_555 1_555
Zn19 N17_3 1_555 1_555
Zn12 N26_3 1_555 1_555
N20_3 N60 1_555 1_555
C35_3 C50_3 1_555 1_555
C40_3 C50_3 1_555 1_555
C45_3 C55_3 1_555 1_555
N25_3 Zn19 1_555 1_555
N30_3 N25_3 1_555 1_555
N35_3 N49 1_555 1_555
C50_3 H59_3 1_555 1_555
N49 N60 1_555 1_555
C55_3 C35_3 1_555 1_555
H64_3 C55_3 1_555 1_555
C60_3 N20_3 1_555 1_555
C65_3 C40_3 1_555 1_555
H69_3 C65_3 1_555 1_555
N62_3 C70_3 1_555 1_555
C70_3 C40_3 1_555 1_555
N67_3 N25_3 1_555 1_555
N68_3 N26_3 1_555 1_555
N72_3 C75_3 1_555 1_555
C75_3 C45_3 1_555 1_555
N77_3 C75_3 1_555 1_555
N82_3 Zn12 1_555 1_555
N87_3 N77_3 1_555 1_555
N17_3 N18_3 1_555 1_555
C35_3 C60_3 1_555 1_555
C45_3 C65_3 1_555 1_555
N30_3 C70_3 1_555 1_555
N35_3 C60_3 1_555 1_555
N62_3 N67_3 1_555 1_555
N72_3 N82_3 1_555 1_555
N82_3 N87_3 1_555 1_555
N87_3 H76_7 1_555 1_555
Zn11 N8_3 1_555 1_555
N7_3 N55_2 1_555 1_555
C25_3 C28_3 1_555 1_555
C26_3 C28_3 1_555 1_555
C27_3 C29_3 1_555 1_555
N8_3 N9_3 1_555 1_555
N9_3 C32_3 1_555 1_555
N10_3 N44_2 1_555 1_555
C28_3 H55_3 1_555 1_555
N44_2 N55_2 1_555 1_555
C29_3 C25_3 1_555 1_555
H56_3 C29_3 1_555 1_555
C30_3 N7_3 1_555 1_555
C31_3 C26_3 1_555 1_555
H57_3 C31_3 1_555 1_555
N13_3 C32_3 1_555 1_555
C32_3 C26_3 1_555 1_555
N14_3 N8_3 1_555 1_555
N15_3 C33_3 1_555 1_555
C33_3 C27_3 1_555 1_555
N16_3 C33_3 1_555 1_555
Zn18 N24_3 1_555 1_555
N19_3 N59 1_555 1_555
N21_3 N56_2 1_555 1_555
N22_3 N57_2 1_555 1_555
C34_3 C49_3 1_555 1_555
C36_3 C51_3 1_555 1_555
C37_3 C52_3 1_555 1_555
C39_3 C49_3 1_555 1_555
C41_3 C51_3 1_555 1_555
C42_3 C52_3 1_555 1_555
C44_3 C54_3 1_555 1_555
C46_3 C56_3 1_555 1_555
C47_3 C57_3 1_555 1_555
N24_3 N29_3 1_555 1_555
N29_3 C69_3 1_555 1_555
N31_3 C71_3 1_555 1_555
N32_3 C72_3 1_555 1_555
N34_3 N48 1_555 1_555
N36_3 N45_2 1_555 1_555
N37_3 N46_2 1_555 1_555
C49_3 H58_3 1_555 1_555
C51_3 H60_3 1_555 1_555
C52_3 H61_3 1_555 1_555
N48 N59 1_555 1_555
N45_2 N56_2 1_555 1_555
N46_2 N57_2 1_555 1_555
C54_3 C34_3 1_555 1_555
C56_3 C36_3 1_555 1_555
C57_3 C37_3 1_555 1_555
H63_3 C54_3 1_555 1_555
H65_3 C56_3 1_555 1_555
H66_3 C57_3 1_555 1_555
C59_3 N19_3 1_555 1_555
C61_3 N21_3 1_555 1_555
C62_3 N22_3 1_555 1_555
C64_3 C39_3 1_555 1_555
C66_3 C41_3 1_555 1_555
C67_3 C42_3 1_555 1_555
H68_3 C64_3 1_555 1_555
H70_3 C66_3 1_555 1_555
H71_3 C67_3 1_555 1_555
N61_3 C69_3 1_555 1_555
N63_3 C71_3 1_555 1_555
N64_3 C72_3 1_555 1_555
C69_3 C39_3 1_555 1_555
C71_3 C41_3 1_555 1_555
C72_3 C42_3 1_555 1_555
N66_3 N24_3 1_555 1_555
N71_3 C74_3 1_555 1_555
N73_3 C76_3 1_555 1_555
N74_3 C77_3 1_555 1_555
C74_3 C44_3 1_555 1_555
C76_3 C46_3 1_555 1_555
C77_3 C47_3 1_555 1_555
N76_3 C74_3 1_555 1_555
N78_3 C76_3 1_555 1_555
N79_3 C77_3 1_555 1_555
N81_3 Zn11 1_555 1_555
N84_3 Zn18 1_555 1_555
N86_3 N76_3 1_555 1_555
N89_3 N79_3 1_555 1_555
C25_3 C30_3 1_555 1_555
C27_3 C31_3 1_555 1_555
N10_3 C30_3 1_555 1_555
N13_3 N14_3 1_555 1_555
C34_3 C59_3 1_555 1_555
C36_3 C61_3 1_555 1_555
C37_3 C62_3 1_555 1_555
C44_3 C64_3 1_555 1_555
C46_3 C66_3 1_555 1_555
C47_3 C67_3 1_555 1_555
N34_3 C59_3 1_555 1_555
N36_3 C61_3 1_555 1_555
N37_3 C62_3 1_555 1_555
N61_3 N66_3 1_555 1_555
N71_3 N81_3 1_555 1_555
N74_3 N84_3 1_555 1_555
N81_3 N86_3 1_555 1_555
N84_3 N89_3 1_555 1_555
N14_3 H73_7 1_555 1_555
N66_3 H75_5 1_555 1_555
Zn13 N27_3 1_555 1_555
Zn17 N28_3 1_555 1_555
N23_3 N58 1_555 1_555
C38_3 C53_3 1_555 1_555
C43_3 C53_3 1_555 1_555
C48_3 C58_3 1_555 1_555
N28_3 N33_3 1_555 1_555
N33_3 C73_3 1_555 1_555
N38_3 N47 1_555 1_555
C53_3 H62_3 1_555 1_555
N47 N58 1_555 1_555
C58_3 C38_3 1_555 1_555
H67_3 C58_3 1_555 1_555
C63_3 N23_3 1_555 1_555
C68_3 C43_3 1_555 1_555
H72_3 C68_3 1_555 1_555
N65_3 C73_3 1_555 1_555
C73_3 C43_3 1_555 1_555
N69_3 N27_3 1_555 1_555
N70_3 N28_3 1_555 1_555
N75_3 C78_3 1_555 1_555
C78_3 C48_3 1_555 1_555
N80_3 C78_3 1_555 1_555
N83_3 Zn17 1_555 1_555
N85_3 Zn13 1_555 1_555
N90_3 N80_3 1_555 1_555
C38_3 C63_3 1_555 1_555
C48_3 C68_3 1_555 1_555
N38_3 C63_3 1_555 1_555
N65_3 N70_3 1_555 1_555
N75_3 N85_3 1_555 1_555
N83_3 N88_3 1_555 1_555
N85_3 N90_3 1_555 1_555
N70_3 H74_3 1_555 1_555
N68_3 H73_8 1_555 1_555
N67_3 H75_6 1_555 1_555
N90_3 H76_8 1_555 1_555
N86_3 H76_9 1_555 1_555
N69_3 H73_9 1_555 1_555
N89 H76_10 1_555 1_555
N18 H76_11 1_555 1_555
N88 H76_12 1_555 1_555
N89_3 H76_13 1_555 1_555
N18_3 H76_14 1_555 1_555
N88_3 H76_15 1_555 1_555
N89_2 H76_16 1_555 1_555
N18_2 H76_17 1_555 1_555
N88_2 H76_18 1_555 1_555

#END
