
###############################################################################
#
# This file contains modified crystal structure data generated from the
# MOF subset of the Cambridge Structural Database (CSD) v543 
# hosted by the Cambridge Crystallographic Data Centre (CCDC).
#
# This work is licensed under the Creative Commons
# Attribution-NonCommercial-ShareAlike 4.0 International License.
# To view a copy of this license, visit
# http://creativecommons.org/licenses/by-nc-sa/4.0/
# or send a letter to
# Creative Commons, PO Box 1866, Mountain View, CA 94042, USA.
#
# CIF created using the CSD Python API on 29 September 2022
# The structure has been converted into the P1 space group
# The structure has a 3D framework
# The original CSD entry TEDGOA is in the tetragonal crystal system
# The framework has been calculated to contain at least 10.0% void space
# The void calculation uses a probe of radius 1.32A, grid spacing 0.4
# H atom positions have been added when not included in the experimental data
#
###############################################################################

data_TEDGOA
_chemical_formula_moiety         '(C42 H22 N48 Zn6)n'
_symmetry_cell_setting           triclinic
_symmetry_space_group_name_H-M   'P 1'
_symmetry_Int_Tables_number      1
_space_group_name_Hall           'P 1'
loop_
_symmetry_equiv_pos_site_id
_symmetry_equiv_pos_as_xyz
1 x,y,z
_cell_length_a                   15.605(3)
_cell_length_b                   15.605(3)
_cell_length_c                   13.601(4)
_cell_angle_alpha                90
_cell_angle_beta                 90
_cell_angle_gamma                90
_cell_volume                     3312.06
loop_
_atom_site_label
_atom_site_type_symbol
_atom_site_fract_x
_atom_site_fract_y
_atom_site_fract_z
Zn1 Zn 0.0000 0.0000 0.35876(5)
Zn2 Zn 0.0000 0.0000 0.64124(5)
N16 N 0.07620(19) 0.07620(19) 0.7135(3)
N19 N 0.07620(19) 0.07620(19) 0.2865(3)
Zn1_2 Zn -0.0000 1.0000 0.35876(5)
C7 C 0.1612(3) 0.8388(3) 0.5000
C8 C 0.2285(3) 0.7715(3) 0.5000
C10 C 0.2590(2) 0.7410(2) 0.5883(3)
C11 C 0.2590(2) 0.7410(2) 0.4117(3)
H4 H 0.2379 0.7621 0.6475
H5 H 0.2379 0.7621 0.3525
C13 C 0.3218(2) 0.6782(2) 0.5873(4)
C14 C 0.3218(2) 0.6782(2) 0.4127(4)
C15 C 0.3522(3) 0.6478(3) 0.5000
H6 H 0.3944 0.6056 0.5000
N8 N 0.07117(16) 0.92883(16) 0.4514(2)
N9 N 0.07117(16) 0.92883(16) 0.5486(2)
N11 N 0.12829(18) 0.87171(18) 0.4184(3)
N12 N 0.12829(18) 0.87171(18) 0.5816(3)
Zn2_2 Zn 0.0000 1.0000 0.64124(5)
Zn4 Zn 0.5000 0.5000 0.14124(5)
Zn6 Zn 0.5000 0.5000 0.85876(5)
N14 N 0.42380(19) 0.57620(19) 0.7865(3)
N15 N 0.42380(19) 0.57620(19) 0.2135(3)
N21 N 0.41444(17) 0.58556(17) 0.6909(3)
N22 N 0.41444(17) 0.58556(17) 0.3091(3)
N24 N 0.3280(3) 0.6720(3) 0.7685(4)
N25 N 0.3280(3) 0.6720(3) 0.2315(4)
N27 N 0.3744(3) 0.6256(3) 0.8324(4)
N28 N 0.3744(3) 0.6256(3) 0.1676(4)
C17 C 0.3558(3) 0.6442(3) 0.6822(5)
C18 C 0.3558(3) 0.6442(3) 0.3178(5)
H8 H 0.370181 0.629819 0.906712
C1 C 0.8388(3) 0.1612(3) 0.5000
C2 C 0.7715(3) 0.2285(3) 0.5000
C3 C 0.7410(2) 0.2590(2) 0.5883(3)
H1 H 0.7621 0.2379 0.6475
C4 C 0.6782(2) 0.3218(2) 0.5873(4)
C5 C 0.6478(3) 0.3522(3) 0.5000
H2 H 0.6056 0.3944 0.5000
N1 N 0.92883(16) 0.07117(16) 0.4514(2)
N2 N 0.87171(18) 0.12829(18) 0.4184(3)
Zn1_3 Zn 1.0000 0.0000 0.35876(5)
N3 N 0.57620(19) 0.42380(19) 0.7865(3)
N4 N 0.58556(17) 0.41444(17) 0.6909(3)
N5 N 0.6720(3) 0.3280(3) 0.7685(4)
N6 N 0.6256(3) 0.3744(3) 0.8324(4)
C6 C 0.6442(3) 0.3558(3) 0.6822(5)
C9 C 0.7410(2) 0.2590(2) 0.4117(3)
H3 H 0.7621 0.2379 0.3525
C12 C 0.6782(2) 0.3218(2) 0.4127(4)
N7 N 0.92883(16) 0.07117(16) 0.5486(2)
N10 N 0.87171(18) 0.12829(18) 0.5816(3)
Zn2_3 Zn 1.0000 0.0000 0.64124(5)
N13 N 0.57620(19) 0.42380(19) 0.2135(3)
N20 N 0.58556(17) 0.41444(17) 0.3091(3)
N23 N 0.6720(3) 0.3280(3) 0.2315(4)
N26 N 0.6256(3) 0.3744(3) 0.1676(4)
C16 C 0.6442(3) 0.3558(3) 0.3178(5)
H7 H 0.629819 0.370181 0.906712
Zn1_4 Zn 1.0000 1.0000 0.35876(5)
Zn2_4 Zn 1.0000 1.0000 0.64124(5)
N17 N 0.92380(19) 0.92380(19) 0.7135(3)
N18 N 0.92380(19) 0.92380(19) 0.2865(3)
C1_2 C 0.3388(3) 0.3388(3) 0.0000
C2_2 C 0.2715(3) 0.2715(3) 0.0000
C5_2 C 0.1478(3) 0.1478(3) 0.0000
H2_2 H 0.1056 0.1056 0.0000
N1_2 N 0.42883(16) 0.42883(16) 0.0486(2)
N2_2 N 0.37171(18) 0.37171(18) 0.0816(3)
C7_2 C 0.6612(3) 0.6612(3) 0.0000
C8_2 C 0.7285(3) 0.7285(3) 0.0000
C9_2 C 0.2410(2) 0.2410(2) 0.0883(3)
C11_2 C 0.7590(2) 0.7590(2) 0.0883(3)
H3_2 H 0.2621 0.2621 0.1475
H5_2 H 0.7379 0.7379 0.1475
C12_2 C 0.1782(2) 0.1782(2) 0.0873(4)
C14_2 C 0.8218(2) 0.8218(2) 0.0873(4)
C15_2 C 0.8522(3) 0.8522(3) 0.0000
H6_2 H 0.8944 0.8944 0.0000
N8_2 N 0.57117(16) 0.57117(16) 0.0486(2)
N11_2 N 0.62829(18) 0.62829(18) 0.0816(3)
N20_2 N 0.08556(17) 0.08556(17) 0.1909(3)
N22_2 N 0.91444(17) 0.91444(17) 0.1909(3)
N23_2 N 0.1720(3) 0.1720(3) 0.2685(4)
N25_2 N 0.8280(3) 0.8280(3) 0.2685(4)
N26_2 N 0.1256(3) 0.1256(3) 0.3324(4)
N28_2 N 0.8744(3) 0.8744(3) 0.3324(4)
C16_2 C 0.1442(3) 0.1442(3) 0.1822(5)
C18_2 C 0.8558(3) 0.8558(3) 0.1822(5)
C1_3 C 0.3388(3) 0.3388(3) 1.0000
C2_3 C 0.2715(3) 0.2715(3) 1.0000
C3_2 C 0.2410(2) 0.2410(2) 0.9117(3)
H1_2 H 0.2621 0.2621 0.8525
C4_2 C 0.1782(2) 0.1782(2) 0.9127(4)
C5_3 C 0.1478(3) 0.1478(3) 1.0000
H2_3 H 0.1056 0.1056 1.0000
N4_2 N 0.08556(17) 0.08556(17) 0.8091(3)
N5_2 N 0.1720(3) 0.1720(3) 0.7315(4)
N6_2 N 0.1256(3) 0.1256(3) 0.6676(4)
C6_2 C 0.1442(3) 0.1442(3) 0.8178(5)
C7_3 C 0.6612(3) 0.6612(3) 1.0000
C8_3 C 0.7285(3) 0.7285(3) 1.0000
C10_2 C 0.7590(2) 0.7590(2) 0.9117(3)
H4_2 H 0.7379 0.7379 0.8525
C13_2 C 0.8218(2) 0.8218(2) 0.9127(4)
C15_3 C 0.8522(3) 0.8522(3) 1.0000
H6_3 H 0.8944 0.8944 1.0000
N7_2 N 0.42883(16) 0.42883(16) 0.9514(2)
N9_2 N 0.57117(16) 0.57117(16) 0.9514(2)
N10_2 N 0.37171(18) 0.37171(18) 0.9184(3)
N12_2 N 0.62829(18) 0.62829(18) 0.9184(3)
N21_2 N 0.91444(17) 0.91444(17) 0.8091(3)
N24_2 N 0.8280(3) 0.8280(3) 0.7315(4)
N27_2 N 0.8744(3) 0.8744(3) 0.6676(4)
C17_2 C 0.8558(3) 0.8558(3) 0.8178(5)
H7_2 H 0.129819 0.129819 0.593288
H8_2 H 0.870181 0.870181 0.593288
H8_3 H 0.370181 0.629819 0.0932877
H7_3 H 0.629819 0.370181 0.0932877
H7_4 H 0.870181 0.870181 0.406712
H8_4 H 0.129819 0.129819 0.406712
loop_
_geom_bond_atom_site_label_1
_geom_bond_atom_site_label_2
_geom_bond_site_symmetry_1
_geom_bond_site_symmetry_2
N16 Zn2 1_555 1_555
N19 Zn1 1_555 1_555
C7 C8 1_555 1_555
C8 C10 1_555 1_555
C10 H4 1_555 1_555
C11 C8 1_555 1_555
H5 C11 1_555 1_555
C13 C10 1_555 1_555
C14 C11 1_555 1_555
C15 C13 1_555 1_555
H6 C15 1_555 1_555
N8 Zn1_2 1_555 1_555
N9 N8 1_555 1_555
N11 C7 1_555 1_555
N12 C7 1_555 1_555
Zn4 N15 1_555 1_555
Zn6 N14 1_555 1_555
N14 N21 1_555 1_555
N15 N22 1_555 1_555
N21 C17 1_555 1_555
N22 C18 1_555 1_555
N24 N27 1_555 1_555
N25 N28 1_555 1_555
N27 N14 1_555 1_555
N28 N15 1_555 1_555
C17 C13 1_555 1_555
C18 C14 1_555 1_555
C14 C15 1_555 1_555
N8 N11 1_555 1_555
N9 N12 1_555 1_555
N9 Zn2_2 1_555 1_555
N24 C17 1_555 1_555
N25 C18 1_555 1_555
N27 H8 1_555 1_555
C1 C2 1_555 1_555
C2 C3 1_555 1_555
C3 H1 1_555 1_555
C4 C3 1_555 1_555
C5 C4 1_555 1_555
H2 C5 1_555 1_555
N1 N2 1_555 1_555
N2 C1 1_555 1_555
Zn1_3 N1 1_555 1_555
N3 N4 1_555 1_555
N4 C6 1_555 1_555
N5 N6 1_555 1_555
N6 N3 1_555 1_555
C6 C4 1_555 1_555
C9 C2 1_555 1_555
H3 C9 1_555 1_555
C12 C5 1_555 1_555
N7 N1 1_555 1_555
N10 C1 1_555 1_555
Zn2_3 N7 1_555 1_555
Zn4 N13 1_555 1_555
Zn6 N3 1_555 1_555
N13 N20 1_555 1_555
N20 C16 1_555 1_555
N23 N26 1_555 1_555
N26 N13 1_555 1_555
C16 C12 1_555 1_555
N5 C6 1_555 1_555
C9 C12 1_555 1_555
N7 N10 1_555 1_555
N23 C16 1_555 1_555
N6 H7 1_555 1_555
N17 Zn2_4 1_555 1_555
N18 Zn1_4 1_555 1_555
C1_2 C2_2 1_555 1_555
H2_2 C5_2 1_555 1_555
N1_2 N2_2 1_555 1_555
N2_2 C1_2 1_555 1_555
Zn4 N1_2 1_555 1_555
C7_2 C8_2 1_555 1_555
C9_2 C2_2 1_555 1_555
C11_2 C8_2 1_555 1_555
H3_2 C9_2 1_555 1_555
H5_2 C11_2 1_555 1_555
C12_2 C5_2 1_555 1_555
C14_2 C11_2 1_555 1_555
H6_2 C15_2 1_555 1_555
N8_2 Zn4 1_555 1_555
N11_2 C7_2 1_555 1_555
N19 N20_2 1_555 1_555
N18 N22_2 1_555 1_555
N20_2 C16_2 1_555 1_555
N22_2 C18_2 1_555 1_555
N23_2 N26_2 1_555 1_555
N25_2 N28_2 1_555 1_555
N26_2 N19 1_555 1_555
N28_2 N18 1_555 1_555
C16_2 C12_2 1_555 1_555
C18_2 C14_2 1_555 1_555
C9_2 C12_2 1_555 1_555
C14_2 C15_2 1_555 1_555
N8_2 N11_2 1_555 1_555
N23_2 C16_2 1_555 1_555
N25_2 C18_2 1_555 1_555
C1_3 C2_3 1_555 1_555
C2_3 C3_2 1_555 1_555
C3_2 H1_2 1_555 1_555
C4_2 C3_2 1_555 1_555
C5_3 C4_2 1_555 1_555
H2_3 C5_3 1_555 1_555
N16 N4_2 1_555 1_555
N4_2 C6_2 1_555 1_555
N5_2 N6_2 1_555 1_555
N6_2 N16 1_555 1_555
C6_2 C4_2 1_555 1_555
C7_3 C8_3 1_555 1_555
C8_3 C10_2 1_555 1_555
C10_2 H4_2 1_555 1_555
C13_2 C10_2 1_555 1_555
C15_3 C13_2 1_555 1_555
H6_3 C15_3 1_555 1_555
N10_2 C1_3 1_555 1_555
N12_2 C7_3 1_555 1_555
Zn6 N7_2 1_555 1_555
N17 N21_2 1_555 1_555
N21_2 C17_2 1_555 1_555
N24_2 N27_2 1_555 1_555
N27_2 N17 1_555 1_555
C17_2 C13_2 1_555 1_555
N5_2 C6_2 1_555 1_555
N7_2 N10_2 1_555 1_555
N9_2 N12_2 1_555 1_555
N9_2 Zn6 1_555 1_555
N24_2 C17_2 1_555 1_555
N6_2 H7_2 1_555 1_555
N27_2 H8_2 1_555 1_555
N28 H8_3 1_555 1_555
N26 H7_3 1_555 1_555
N28_2 H7_4 1_555 1_555
N26_2 H8_4 1_555 1_555

#END
