
###############################################################################
#
# This file contains modified crystal structure data generated from the
# MOF subset of the Cambridge Structural Database (CSD) v543 
# hosted by the Cambridge Crystallographic Data Centre (CCDC).
#
# This work is licensed under the Creative Commons
# Attribution-NonCommercial-ShareAlike 4.0 International License.
# To view a copy of this license, visit
# http://creativecommons.org/licenses/by-nc-sa/4.0/
# or send a letter to
# Creative Commons, PO Box 1866, Mountain View, CA 94042, USA.
#
# CIF created using the CSD Python API on 29 September 2022
# The structure has been converted into the P1 space group
# The structure has a 3D framework
# The original CSD entry TEDHAN is in the rhombohedral crystal system
# The framework has been calculated to contain at least 10.0% void space
# The void calculation uses a probe of radius 1.32A, grid spacing 0.4
# H atom positions have been added when not included in the experimental data
#
###############################################################################

data_TEDHAN
_chemical_formula_moiety         '(C174 H94 Cl36 N216 Zn36)n'
_symmetry_cell_setting           triclinic
_symmetry_space_group_name_H-M   'P 1'
_symmetry_Int_Tables_number      1
_space_group_name_Hall           'P 1'
loop_
_symmetry_equiv_pos_site_id
_symmetry_equiv_pos_as_xyz
1 x,y,z
_cell_length_a                   28.993(3)
_cell_length_b                   28.993(3)
_cell_length_c                   21.958(3)
_cell_angle_alpha                90
_cell_angle_beta                 90
_cell_angle_gamma                120
_cell_volume                     15984.9
loop_
_atom_site_label
_atom_site_type_symbol
_atom_site_fract_x
_atom_site_fract_y
_atom_site_fract_z
C1 C 0.7652(2) 0.6590(2) 0.0288(3)
H1 H 0.6756 0.6548 0.0068
N1 N 0.81958(15) 0.65612(14) 0.09123(15)
N2 N 0.78208(15) 0.65976(15) 0.12246(14)
N3 N 0.74852(18) 0.66192(17) 0.08258(17)
N4 N 0.80920(19) 0.65604(18) 0.03206(18)
Zn4 Zn 0.77381(3) 0.65858(4) 0.21404(3)
Zn6 Zn 0.89285(3) 0.67476(4) 0.11930(3)
N12 N 0.55125(15) 0.54435(21) 0.04421(14)
Zn1 Zn 0.55952(3) 0.55143(3) 0.95263(3)
C2 C 0.6211(3) 0.6667 0.9167
C3 C 0.6724(3) 0.6667 0.9167
C4 C 0.6941(3) 0.6604(3) 0.9705(3)
C5 C 0.7421(2) 0.6622(2) 0.9709(3)
C6 C 0.7677(3) 0.6667 0.9167
H2 H 0.7998 0.6667 0.9167
N5 N 0.57651(19) 0.6259(2) 0.9306(2)
N6 N 0.5397(2) 0.6430(2) 0.9252(3)
Cl1 Cl 0.61489(11) 0.52721(11) 0.91727(13)
Zn2 Zn 0.67476(4) 0.78190(3) 0.88070(3)
Zn3 Zn 0.78190(3) 0.67476(4) 0.61930(3)
Zn5 Zn 0.88476(3) 0.65858(4) 0.71404(3)
C7 C 0.7729(3) 0.6743(2) 0.8045(3)
C8 C 0.7004(4) 0.6729(3) 0.8628(3)
H3 H 0.6875 0.6785 0.8265
C9 C 0.7466(3) 0.6711(2) 0.8624(3)
N7 N 0.83013(21) 0.67721(14) 0.74210(15)
N8 N 0.65612(14) 0.83654(21) 0.90877(15)
N9 N 0.48625(15) 0.49679(21) 0.92456(15)
N10 N 0.78899(21) 0.67357(15) 0.71087(14)
N11 N 0.67357(15) 0.78899(21) 0.78913(14)
N13 N 0.75327(25) 0.67141(17) 0.75075(17)
N14 N 0.81983(26) 0.67729(18) 0.80127(18)
N15 N 0.61728(28) 0.7074(2) 0.9027(2)
N16 N 0.5634(3) 0.6903(2) 0.9081(3)
Cl2 Cl 0.75435(16) 0.80612(11) 0.91606(13)
H4 H 0.546096 0.712683 0.899595
C1_2 C 0.3410(2) 0.1062(3) 0.0288(3)
H1_2 H 0.3452 0.0208 0.0068
N1_2 N 0.34388(14) 0.16346(21) 0.09123(15)
N2_2 N 0.34024(15) 0.12232(21) 0.12246(14)
N3_2 N 0.33808(17) 0.08660(25) 0.08258(17)
N4_2 N 0.34396(18) 0.15316(26) 0.03206(18)
Zn4_2 Zn 0.34142(4) 0.11524(5) 0.21404(3)
Zn6_2 Zn 0.32524(4) 0.21810(5) 0.11930(3)
N12_2 N 0.45565(21) 0.00691(26) 0.04421(14)
Zn1_2 Zn 0.44857(3) 0.00809(4) 0.95263(3)
C3_2 C 0.3333 0.0057(3) 0.9167
C4_2 C 0.3396(3) 0.0337(4) 0.9705(3)
C5_2 C 0.3378(2) 0.0799(3) 0.9709(3)
C6_2 C 0.3333 0.1010(3) 0.9167
H2_2 H 0.3333 0.1331 0.9167
Cl1_2 Cl 0.47279(11) 0.08768(16) 0.91727(13)
Zn3_2 Zn 0.32524(4) 0.10715(5) 0.61930(3)
Zn5_2 Zn 0.34142(4) 0.22619(5) 0.71404(3)
C7_2 C 0.3257(2) 0.0985(4) 0.8045(3)
C8_2 C 0.3271(3) 0.0274(5) 0.8628(3)
H3_2 H 0.3215 0.0089 0.8265
C9_2 C 0.3289(2) 0.0754(4) 0.8624(3)
N7_2 N 0.32279(14) 0.15291(25) 0.74210(15)
N10_2 N 0.32643(15) 0.11541(26) 0.71087(14)
N13_2 N 0.32859(17) 0.08185(30) 0.75075(17)
N14_2 N 0.32271(18) 0.14253(32) 0.80127(18)
C2_2 C 0.3333 0.9544(3) 0.9167
N5_2 N 0.3741(2) 0.95061(28) 0.9306(2)
N6_2 N 0.3570(2) 0.8967(3) 0.9252(3)
Zn2_2 Zn 0.21810(3) 0.89285(5) 0.88070(3)
N8_2 N 0.16346(21) 0.81958(25) 0.90877(15)
N9_2 N 0.50321(21) 0.98945(26) 0.92456(15)
N11_2 N 0.21101(21) 0.88459(26) 0.78913(14)
N15_2 N 0.2926(2) 0.90984(34) 0.9027(2)
N16_2 N 0.3097(2) 0.8730(4) 0.9081(3)
Cl2_2 Cl 0.19388(11) 0.94822(19) 0.91606(13)
H4_2 H 0.287317 0.833413 0.899595
C2_3 C 0.0456(3) 0.3789(3) 0.9167
N5_3 N 0.04939(28) 0.42349(19) 0.9306(2)
N6_3 N 0.1033(3) 0.4603(2) 0.9252(3)
Zn2_3 Zn 0.10715(5) 0.32524(4) 0.88070(3)
N8_3 N 0.18042(25) 0.34388(14) 0.90877(15)
N9_3 N 0.01055(26) 0.51375(15) 0.92456(15)
N11_3 N 0.11541(26) 0.32643(15) 0.78913(14)
N15_3 N 0.09016(34) 0.38272(28) 0.9027(2)
N16_3 N 0.1270(4) 0.4366(3) 0.9081(3)
Cl2_3 Cl 0.05178(19) 0.24565(16) 0.91606(13)
H4_3 H 0.166587 0.453904 0.899595
C1_3 C 0.8938(3) 0.2348(2) 0.0288(3)
H1_3 H 0.9792 0.3244 0.0068
N1_3 N 0.83654(21) 0.18042(15) 0.09123(15)
N2_3 N 0.87768(21) 0.21792(15) 0.12246(14)
N3_3 N 0.91340(25) 0.25148(18) 0.08258(17)
N4_3 N 0.84684(26) 0.19080(19) 0.03206(18)
Zn4_3 Zn 0.88476(5) 0.22619(3) 0.21404(3)
Zn6_3 Zn 0.78190(5) 0.10715(3) 0.11930(3)
N12_3 N 0.99309(26) 0.44875(15) 0.04421(14)
Zn1_3 Zn 0.99191(4) 0.44048(3) 0.95263(3)
C3_3 C 0.9943(3) 0.3276(3) 0.9167
C4_3 C 0.9663(4) 0.3059(3) 0.9705(3)
C5_3 C 0.9201(3) 0.2579(2) 0.9709(3)
C6_3 C 0.8990(3) 0.2323(3) 0.9167
H2_3 H 0.8669 0.2002 0.9167
Cl1_3 Cl 0.91232(16) 0.38511(11) 0.91727(13)
Zn3_3 Zn 0.89285(5) 0.21810(3) 0.61930(3)
Zn5_3 Zn 0.77381(5) 0.11524(3) 0.71404(3)
C7_3 C 0.9015(4) 0.2271(3) 0.8045(3)
C8_3 C 0.9726(5) 0.2996(4) 0.8628(3)
H3_3 H 0.9911 0.3125 0.8265
C9_3 C 0.9246(4) 0.2534(3) 0.8624(3)
N7_3 N 0.84709(25) 0.16987(21) 0.74210(15)
N10_3 N 0.88459(26) 0.21101(21) 0.71087(14)
N13_3 N 0.91815(30) 0.24673(25) 0.75075(17)
N14_3 N 0.85747(32) 0.18017(26) 0.80127(18)
Zn1_4 Zn 0.55143(3) 0.55952(3) 0.54737(3)
C1_4 C 0.6590(2) 0.7652(2) 0.4712(3)
C2_4 C 0.6667 0.6211(3) 0.5833
C3_4 C 0.6667 0.6724(3) 0.5833
C4_4 C 0.6604(3) 0.6941(3) 0.5295(3)
H1_4 H 0.6548 0.6756 0.4932
C5_4 C 0.6622(2) 0.7421(2) 0.5291(3)
C6_4 C 0.6667 0.7677(3) 0.5833
H2_4 H 0.6667 0.7998 0.5833
N1_4 N 0.65612(14) 0.81958(15) 0.40877(15)
N2_4 N 0.65976(15) 0.78208(15) 0.37754(14)
N3_4 N 0.66192(17) 0.74852(18) 0.41742(17)
N4_4 N 0.65604(18) 0.80920(19) 0.46794(18)
N5_4 N 0.6259(2) 0.57651(19) 0.5694(2)
N6_4 N 0.6430(2) 0.5397(2) 0.5748(3)
Cl1_4 Cl 0.52721(11) 0.61489(11) 0.58273(13)
Zn4_4 Zn 0.65858(4) 0.77381(3) 0.28596(3)
Zn5_4 Zn 0.65858(4) 0.88476(3) 0.78596(3)
Zn6_4 Zn 0.67476(4) 0.89285(3) 0.38070(3)
C7_4 C 0.6743(2) 0.7729(3) 0.6955(3)
C8_4 C 0.6729(3) 0.7004(4) 0.6372(3)
H3_4 H 0.6785 0.6875 0.6735
C9_4 C 0.6711(2) 0.7466(3) 0.6376(3)
N7_4 N 0.67721(14) 0.83013(21) 0.75790(15)
N8_4 N 0.83654(21) 0.65612(14) 0.59123(15)
N9_4 N 0.49679(21) 0.48625(15) 0.57544(15)
N12_4 N 0.54435(21) 0.55125(15) 0.45579(14)
N13_4 N 0.67141(17) 0.75327(25) 0.74925(17)
N14_4 N 0.67729(18) 0.81983(26) 0.69873(18)
N15_4 N 0.7074(2) 0.61728(28) 0.5973(2)
N16_4 N 0.6903(2) 0.5634(3) 0.5919(3)
Cl2_4 Cl 0.80612(11) 0.75435(16) 0.58394(13)
H4_4 H 0.712683 0.546096 0.600405
Zn1_5 Zn 0.00809(4) 0.44857(3) 0.54737(3)
C1_5 C 0.1062(3) 0.3410(2) 0.4712(3)
C3_5 C 0.0057(3) 0.3333 0.5833
C4_5 C 0.0337(4) 0.3396(3) 0.5295(3)
H1_5 H 0.0208 0.3452 0.4932
C5_5 C 0.0799(3) 0.3378(2) 0.5291(3)
C6_5 C 0.1010(3) 0.3333 0.5833
H2_5 H 0.1331 0.3333 0.5833
N1_5 N 0.16346(21) 0.34388(14) 0.40877(15)
N2_5 N 0.12232(21) 0.34024(15) 0.37754(14)
N3_5 N 0.08660(25) 0.33808(17) 0.41742(17)
N4_5 N 0.15316(26) 0.34396(18) 0.46794(18)
Cl1_5 Cl 0.08768(16) 0.47279(11) 0.58273(13)
Zn4_5 Zn 0.11524(5) 0.34142(4) 0.28596(3)
Zn5_5 Zn 0.22619(5) 0.34142(4) 0.78596(3)
Zn6_5 Zn 0.21810(5) 0.32524(4) 0.38070(3)
C7_5 C 0.0985(4) 0.3257(2) 0.6955(3)
C8_5 C 0.0274(5) 0.3271(3) 0.6372(3)
H3_5 H 0.0089 0.3215 0.6735
C9_5 C 0.0754(4) 0.3289(2) 0.6376(3)
N7_5 N 0.15291(25) 0.32279(14) 0.75790(15)
N12_5 N 0.00691(26) 0.45565(21) 0.45579(14)
N13_5 N 0.08185(30) 0.32859(17) 0.74925(17)
N14_5 N 0.14253(32) 0.32271(18) 0.69873(18)
C2_5 C 0.9544(3) 0.3333 0.5833
N5_5 N 0.95061(28) 0.3741(2) 0.5694(2)
N6_5 N 0.8967(3) 0.3570(2) 0.5748(3)
N8_5 N 0.81958(25) 0.16346(21) 0.59123(15)
N9_5 N 0.98945(26) 0.50321(21) 0.57544(15)
N15_5 N 0.90984(34) 0.2926(2) 0.5973(2)
N16_5 N 0.8730(4) 0.3097(2) 0.5919(3)
Cl2_5 Cl 0.94822(19) 0.19388(11) 0.58394(13)
H4_5 H 0.833413 0.287317 0.600405
C2_6 C 0.3789(3) 0.0456(3) 0.5833
N5_6 N 0.42349(19) 0.04939(28) 0.5694(2)
N6_6 N 0.4603(2) 0.1033(3) 0.5748(3)
N8_6 N 0.34388(14) 0.18042(25) 0.59123(15)
N9_6 N 0.51375(15) 0.01055(26) 0.57544(15)
N15_6 N 0.38272(28) 0.09016(34) 0.5973(2)
N16_6 N 0.4366(3) 0.1270(4) 0.5919(3)
Cl2_6 Cl 0.24565(16) 0.05178(19) 0.58394(13)
H4_6 H 0.453904 0.166587 0.600405
Zn1_6 Zn 0.44048(3) 0.99191(4) 0.54737(3)
C1_6 C 0.2348(2) 0.8938(3) 0.4712(3)
C3_6 C 0.3276(3) 0.9943(3) 0.5833
C4_6 C 0.3059(3) 0.9663(4) 0.5295(3)
H1_6 H 0.3244 0.9792 0.4932
C5_6 C 0.2579(2) 0.9201(3) 0.5291(3)
C6_6 C 0.2323(3) 0.8990(3) 0.5833
H2_6 H 0.2002 0.8669 0.5833
N1_6 N 0.18042(15) 0.83654(21) 0.40877(15)
N2_6 N 0.21792(15) 0.87768(21) 0.37754(14)
N3_6 N 0.25148(18) 0.91340(25) 0.41742(17)
N4_6 N 0.19080(19) 0.84684(26) 0.46794(18)
Cl1_6 Cl 0.38511(11) 0.91232(16) 0.58273(13)
Zn4_6 Zn 0.22619(3) 0.88476(5) 0.28596(3)
Zn5_6 Zn 0.11524(3) 0.77381(5) 0.78596(3)
Zn6_6 Zn 0.10715(3) 0.78190(5) 0.38070(3)
C7_6 C 0.2271(3) 0.9015(4) 0.6955(3)
C8_6 C 0.2996(4) 0.9726(5) 0.6372(3)
H3_6 H 0.3125 0.9911 0.6735
C9_6 C 0.2534(3) 0.9246(4) 0.6376(3)
N7_6 N 0.16987(21) 0.84709(25) 0.75790(15)
N12_6 N 0.44875(15) 0.99309(26) 0.45579(14)
N13_6 N 0.24673(25) 0.91815(30) 0.74925(17)
N14_6 N 0.18017(26) 0.85747(32) 0.69873(18)
C2_7 C 0.2878(3) 0.0000 0.2500
C3_7 C 0.3391(3) 0.0000 0.2500
C6_7 C 0.4344(3) 0.0000 0.2500
H2_7 H 0.4665 0.0000 0.2500
Zn6_7 Zn 0.55952(3) 0.00809(4) 0.45263(3)
C7_7 C 0.4395(3) 0.0077(2) 0.1379(3)
C8_7 C 0.3670(4) 0.0063(3) 0.1962(3)
H3_7 H 0.3541 0.0119 0.1599
C9_7 C 0.4132(3) 0.0045(2) 0.1958(3)
N7_7 N 0.49679(21) 0.01055(14) 0.07544(15)
N8_7 N 0.32279(14) 0.16987(21) 0.24210(15)
N13_7 N 0.41993(25) 0.00475(17) 0.08409(17)
N14_7 N 0.48649(26) 0.01063(18) 0.13461(18)
N15_7 N 0.28394(28) 0.0408(2) 0.2361(2)
N16_7 N 0.2300(3) 0.0237(2) 0.2415(3)
Cl2_7 Cl 0.42101(16) 0.13946(11) 0.24940(13)
H4_7 H 0.212763 0.0460166 0.232928
C1_7 C 0.4319(2) 0.9923(2) 0.3621(3)
C2_8 C 0.2878(3) 1.0000 0.2500
C3_8 C 0.3391(3) 1.0000 0.2500
C4_7 C 0.3608(3) 0.9937(3) 0.3038(3)
H1_7 H 0.3423 0.9881 0.3401
C5_7 C 0.4088(2) 0.9955(2) 0.3042(3)
C6_8 C 0.4344(3) 1.0000 0.2500
H2_8 H 0.4665 1.0000 0.2500
N1_7 N 0.48625(15) 0.98945(14) 0.42456(15)
N3_7 N 0.41519(18) 0.99525(17) 0.41591(17)
N4_7 N 0.47587(19) 0.98937(18) 0.36539(18)
N5_7 N 0.24318(19) 0.9592(2) 0.2639(2)
N6_7 N 0.2064(2) 0.9763(2) 0.2585(3)
Cl1_7 Cl 0.28156(11) 0.86054(11) 0.25060(13)
Zn5_7 Zn 0.55143(3) 0.99191(4) 0.04737(3)
N9_7 N 0.15291(15) 0.83013(21) 0.25790(15)
C1_8 C 0.0077(2) 0.4395(3) 0.3621(3)
C2_9 C -0.0000 0.2877(3) 0.2500
C3_9 C -0.0000 0.3390(3) 0.2500
C4_8 C 0.0063(3) 0.3670(4) 0.3038(3)
H1_8 H 0.0119 0.3541 0.3401
C5_8 C 0.0045(2) 0.4132(3) 0.3042(3)
C6_9 C -0.0000 0.4343(3) 0.2500
H2_9 H -0.0000 0.4664 0.2500
N1_8 N 0.01055(14) 0.49679(21) 0.42456(15)
N3_8 N 0.00475(17) 0.41993(25) 0.41591(17)
N4_8 N 0.01063(18) 0.48649(26) 0.36539(18)
N5_8 N 0.0408(2) 0.28394(28) 0.2639(2)
N6_8 N 0.0237(2) 0.2300(3) 0.2585(3)
Cl1_8 Cl 0.13946(11) 0.42101(16) 0.25060(13)
Zn5_8 Zn 0.00809(4) 0.55952(5) 0.04737(3)
N9_8 N 0.16987(21) 0.32279(26) 0.25790(15)
C2_10 C 1.0000 0.2877(3) 0.2500
C3_10 C 1.0000 0.3390(3) 0.2500
C6_10 C 1.0000 0.4343(3) 0.2500
H2_10 H 1.0000 0.4664 0.2500
Zn6_8 Zn 0.99191(4) 0.55143(5) 0.45263(3)
C7_8 C 0.9923(2) 0.4319(4) 0.1379(3)
C8_8 C 0.9937(3) 0.3608(5) 0.1962(3)
H3_8 H 0.9881 0.3423 0.1599
C9_8 C 0.9955(2) 0.4088(4) 0.1958(3)
N7_8 N 0.98945(14) 0.48625(25) 0.07544(15)
N8_8 N 0.83013(21) 0.15291(25) 0.24210(15)
N13_8 N 0.99525(17) 0.41519(30) 0.08409(17)
N14_8 N 0.98937(18) 0.47587(32) 0.13461(18)
N15_8 N 0.9592(2) 0.24318(34) 0.2361(2)
N16_8 N 0.9763(2) 0.2064(4) 0.2415(3)
Cl2_8 Cl 0.86054(11) 0.28156(19) 0.24940(13)
H4_8 H 0.953983 0.166746 0.232928
C1_9 C 0.5605(3) 0.5681(2) 0.3621(3)
C2_11 C 0.7123(3) 0.7122(3) 0.2500
C3_11 C 0.6610(3) 0.6609(3) 0.2500
C4_9 C 0.6330(4) 0.6392(3) 0.3038(3)
H1_9 H 0.6459 0.6577 0.3401
C5_9 C 0.5868(3) 0.5912(2) 0.3042(3)
C6_11 C 0.5657(3) 0.5656(3) 0.2500
H2_11 H 0.5336 0.5335 0.2500
N1_9 N 0.50321(21) 0.51375(15) 0.42456(15)
N3_9 N 0.58007(25) 0.58481(18) 0.41591(17)
N4_9 N 0.51351(26) 0.52413(19) 0.36539(18)
N5_9 N 0.71606(28) 0.75682(19) 0.2639(2)
N6_9 N 0.7700(3) 0.7936(2) 0.2585(3)
Cl1_9 Cl 0.57899(16) 0.71844(11) 0.25060(13)
Zn5_9 Zn 0.44048(5) 0.44857(3) 0.04737(3)
Zn6_9 Zn 0.44857(5) 0.44048(3) 0.45263(3)
C7_9 C 0.5681(4) 0.5605(3) 0.1379(3)
C8_9 C 0.6392(5) 0.6330(4) 0.1962(3)
H3_9 H 0.6577 0.6459 0.1599
C9_9 C 0.5912(4) 0.5868(3) 0.1958(3)
N7_9 N 0.51375(25) 0.50321(21) 0.07544(15)
N8_9 N 0.84709(25) 0.67721(14) 0.24210(15)
N9_9 N 0.67721(26) 0.84709(15) 0.25790(15)
N13_9 N 0.58481(30) 0.58007(25) 0.08409(17)
N14_9 N 0.52413(32) 0.51351(26) 0.13461(18)
N15_9 N 0.75682(34) 0.71606(28) 0.2361(2)
N16_9 N 0.7936(4) 0.7700(3) 0.2415(3)
Cl2_9 Cl 0.71844(19) 0.57899(16) 0.24940(13)
H4_9 H 0.833254 0.787237 0.232928
H4_10 H 0.37935 0.87943 0.933739
H4_11 H 0.50008 0.62065 0.933739
H4_12 H 0.12057 0.49992 0.933739
H4_13 H 0.87943 0.37935 0.566261
H4_14 H 0.62065 0.50008 0.566261
H4_15 H 0.49992 0.12057 0.566261
H4_16 H 0.0460166 0.212763 0.267072
H4_17 H 0.166746 0.953983 0.267072
H4_18 H 0.787237 0.833254 0.267072
C2_12 C 0.3789(3) 0.3333 0.0833
C3_12 C 0.3276(3) 0.3333 0.0833
C4_10 C 0.3059(3) 0.3396(3) 0.0295(3)
C5_10 C 0.2579(2) 0.3378(2) 0.0291(3)
C6_12 C 0.2323(3) 0.3333 0.0833
H2_12 H 0.2002 0.3333 0.0833
N5_10 N 0.42349(19) 0.3741(2) 0.0694(2)
N6_10 N 0.4603(2) 0.3570(2) 0.0748(3)
Cl1_10 Cl 0.38511(11) 0.47279(11) 0.08273(13)
C7_10 C 0.2271(3) 0.3257(2) 0.1955(3)
C8_10 C 0.2996(4) 0.3271(3) 0.1372(3)
H3_10 H 0.3125 0.3215 0.1735
C9_10 C 0.2534(3) 0.3289(2) 0.1376(3)
N10_4 N 0.21101(21) 0.32643(15) 0.28913(14)
N11_4 N 0.32643(15) 0.21101(21) 0.21087(14)
N13_10 N 0.24673(25) 0.32859(17) 0.24925(17)
N14_10 N 0.18017(26) 0.32271(18) 0.19873(18)
N15_10 N 0.38272(28) 0.2926(2) 0.0973(2)
N16_10 N 0.4366(3) 0.3097(2) 0.0919(3)
Cl2_10 Cl 0.24565(16) 0.19388(11) 0.08394(13)
H4_19 H 0.453904 0.287317 0.100405
C1_10 C 0.2348(2) 0.3410(2) 0.9712(3)
H1_10 H 0.3244 0.3452 0.9932
N2_7 N 0.21792(15) 0.34024(15) 0.87754(14)
N3_10 N 0.25148(18) 0.33808(17) 0.91742(17)
N4_10 N 0.19080(19) 0.34396(18) 0.96794(18)
N12_7 N 0.44875(15) 0.45565(21) 0.95579(14)
C2_13 C 0.6667 0.0456(3) 0.0833
N5_11 N 0.6259(2) 0.04939(28) 0.0694(2)
N6_11 N 0.6430(2) 0.1033(3) 0.0748(3)
N11_5 N 0.78899(21) 0.11541(26) 0.21087(14)
N15_11 N 0.7074(2) 0.09016(34) 0.0973(2)
N16_11 N 0.6903(2) 0.1270(4) 0.0919(3)
Cl2_11 Cl 0.80612(11) 0.05178(19) 0.08394(13)
H4_20 H 0.712683 0.166587 0.100405
C3_13 C 0.6667 0.9943(3) 0.0833
C4_11 C 0.6604(3) 0.9663(4) 0.0295(3)
C5_11 C 0.6622(2) 0.9201(3) 0.0291(3)
C6_13 C 0.6667 0.8990(3) 0.0833
H2_13 H 0.6667 0.8669 0.0833
Cl1_11 Cl 0.52721(11) 0.91232(16) 0.08273(13)
C7_11 C 0.6743(2) 0.9015(4) 0.1955(3)
C8_11 C 0.6729(3) 0.9726(5) 0.1372(3)
H3_11 H 0.6785 0.9911 0.1735
C9_11 C 0.6711(2) 0.9246(4) 0.1376(3)
N10_5 N 0.67357(15) 0.88459(26) 0.28913(14)
N13_11 N 0.67141(17) 0.91815(30) 0.24925(17)
N14_11 N 0.67729(18) 0.85747(32) 0.19873(18)
C1_11 C 0.6590(2) 0.8938(3) 0.9712(3)
H1_11 H 0.6548 0.9792 0.9932
N2_8 N 0.65976(15) 0.87768(21) 0.87754(14)
N3_11 N 0.66192(17) 0.91340(25) 0.91742(17)
N4_11 N 0.65604(18) 0.84684(26) 0.96794(18)
N12_8 N 0.54435(21) 0.99309(26) 0.95579(14)
C3_14 C 0.0057(3) 0.6724(3) 0.0833
C4_12 C 0.0337(4) 0.6941(3) 0.0295(3)
C5_12 C 0.0799(3) 0.7421(2) 0.0291(3)
C6_14 C 0.1010(3) 0.7677(3) 0.0833
H2_14 H 0.1331 0.7998 0.0833
Cl1_12 Cl 0.08768(16) 0.61489(11) 0.08273(13)
C7_12 C 0.0985(4) 0.7729(3) 0.1955(3)
C8_12 C 0.0274(5) 0.7004(4) 0.1372(3)
H3_12 H 0.0089 0.6875 0.1735
C9_12 C 0.0754(4) 0.7466(3) 0.1376(3)
N10_6 N 0.11541(26) 0.78899(21) 0.28913(14)
N13_12 N 0.08185(30) 0.75327(25) 0.24925(17)
N14_12 N 0.14253(32) 0.81983(26) 0.19873(18)
C1_12 C 0.1062(3) 0.7652(2) 0.9712(3)
H1_12 H 0.0208 0.6756 0.9932
N2_9 N 0.12232(21) 0.78208(15) 0.87754(14)
N3_12 N 0.08660(25) 0.74852(18) 0.91742(17)
N4_12 N 0.15316(26) 0.80920(19) 0.96794(18)
N12_9 N 0.00691(26) 0.55125(15) 0.95579(14)
C2_14 C 0.9544(3) 0.6211(3) 0.0833
N5_12 N 0.95061(28) 0.57651(19) 0.0694(2)
N6_12 N 0.8967(3) 0.5397(2) 0.0748(3)
N11_6 N 0.88459(26) 0.67357(15) 0.21087(14)
N15_12 N 0.90984(34) 0.61728(28) 0.0973(2)
N16_12 N 0.8730(4) 0.5634(3) 0.0919(3)
Cl2_12 Cl 0.94822(19) 0.75435(16) 0.08394(13)
H4_21 H 0.833413 0.546096 0.100405
C1_13 C 0.3410(2) 0.2348(2) 0.5288(3)
C2_15 C 0.3333 0.3789(3) 0.4167
C3_15 C 0.3333 0.3276(3) 0.4167
C4_13 C 0.3396(3) 0.3059(3) 0.4705(3)
H1_13 H 0.3452 0.3244 0.5068
C5_13 C 0.3378(2) 0.2579(2) 0.4709(3)
C6_15 C 0.3333 0.2323(3) 0.4167
H2_15 H 0.3333 0.2002 0.4167
N2_10 N 0.34024(15) 0.21792(15) 0.62246(14)
N3_13 N 0.33808(17) 0.25148(18) 0.58258(17)
N4_13 N 0.34396(18) 0.19080(19) 0.53206(18)
N5_13 N 0.3741(2) 0.42349(19) 0.4306(2)
N6_13 N 0.3570(2) 0.4603(2) 0.4252(3)
Cl1_13 Cl 0.47279(11) 0.38511(11) 0.41727(13)
C7_13 C 0.3257(2) 0.2271(3) 0.3045(3)
C8_13 C 0.3271(3) 0.2996(4) 0.3628(3)
H3_13 H 0.3215 0.3125 0.3265
C9_13 C 0.3289(2) 0.2534(3) 0.3624(3)
N12_10 N 0.45565(21) 0.44875(15) 0.54421(14)
N13_13 N 0.32859(17) 0.24673(25) 0.25075(17)
N14_13 N 0.32271(18) 0.18017(26) 0.30127(18)
N15_13 N 0.2926(2) 0.38272(28) 0.4027(2)
N16_13 N 0.3097(2) 0.4366(3) 0.4081(3)
Cl2_13 Cl 0.19388(11) 0.24565(16) 0.41606(13)
H4_22 H 0.287317 0.453904 0.399595
C2_16 C 0.0456(3) 0.6667 0.4167
N5_14 N 0.04939(28) 0.6259(2) 0.4306(2)
N6_14 N 0.1033(3) 0.6430(2) 0.4252(3)
N15_14 N 0.09016(34) 0.7074(2) 0.4027(2)
N16_14 N 0.1270(4) 0.6903(2) 0.4081(3)
Cl2_14 Cl 0.05178(19) 0.80612(11) 0.41606(13)
H4_23 H 0.166587 0.712683 0.399595
C1_14 C 0.8938(3) 0.6590(2) 0.5288(3)
C3_16 C 0.9943(3) 0.6667 0.4167
C4_14 C 0.9663(4) 0.6604(3) 0.4705(3)
H1_14 H 0.9792 0.6548 0.5068
C5_14 C 0.9201(3) 0.6622(2) 0.4709(3)
C6_16 C 0.8990(3) 0.6667 0.4167
H2_16 H 0.8669 0.6667 0.4167
N2_11 N 0.87768(21) 0.65976(15) 0.62246(14)
N3_14 N 0.91340(25) 0.66192(17) 0.58258(17)
N4_14 N 0.84684(26) 0.65604(18) 0.53206(18)
Cl1_14 Cl 0.91232(16) 0.52721(11) 0.41727(13)
C7_14 C 0.9015(4) 0.6743(2) 0.3045(3)
C8_14 C 0.9726(5) 0.6729(3) 0.3628(3)
H3_14 H 0.9911 0.6785 0.3265
C9_14 C 0.9246(4) 0.6711(2) 0.3624(3)
N12_11 N 0.99309(26) 0.54435(21) 0.54421(14)
N13_14 N 0.91815(30) 0.67141(17) 0.25075(17)
N14_14 N 0.85747(32) 0.67729(18) 0.30127(18)
C1_15 C 0.7652(2) 0.1062(3) 0.5288(3)
C3_17 C 0.6724(3) 0.0057(3) 0.4167
C4_15 C 0.6941(3) 0.0337(4) 0.4705(3)
H1_15 H 0.6756 0.0208 0.5068
C5_15 C 0.7421(2) 0.0799(3) 0.4709(3)
C6_17 C 0.7677(3) 0.1010(3) 0.4167
H2_17 H 0.7998 0.1331 0.4167
N2_12 N 0.78208(15) 0.12232(21) 0.62246(14)
N3_15 N 0.74852(18) 0.08660(25) 0.58258(17)
N4_15 N 0.80920(19) 0.15316(26) 0.53206(18)
Cl1_15 Cl 0.61489(11) 0.08768(16) 0.41727(13)
C7_15 C 0.7729(3) 0.0985(4) 0.3045(3)
C8_15 C 0.7004(4) 0.0274(5) 0.3628(3)
H3_15 H 0.6875 0.0089 0.3265
C9_15 C 0.7466(3) 0.0754(4) 0.3624(3)
N12_12 N 0.55125(15) 0.00691(26) 0.54421(14)
N13_15 N 0.75327(25) 0.08185(30) 0.25075(17)
N14_15 N 0.81983(26) 0.14253(32) 0.30127(18)
C2_17 C 0.6211(3) 0.9544(3) 0.4167
N5_15 N 0.57651(19) 0.95061(28) 0.4306(2)
N6_15 N 0.5397(2) 0.8967(3) 0.4252(3)
N15_15 N 0.61728(28) 0.90984(34) 0.4027(2)
N16_15 N 0.5634(3) 0.8730(4) 0.4081(3)
Cl2_15 Cl 0.75435(16) 0.94822(19) 0.41606(13)
H4_24 H 0.546096 0.833413 0.399595
C1_16 C 0.5681(2) 0.0077(2) 0.6379(3)
C2_18 C 0.7122(3) -0.0000 0.7500
C3_18 C 0.6609(3) -0.0000 0.7500
C4_16 C 0.6392(3) 0.0063(3) 0.6962(3)
H1_16 H 0.6577 0.0119 0.6599
C5_16 C 0.5912(2) 0.0045(2) 0.6958(3)
C6_18 C 0.5656(3) -0.0000 0.7500
H2_18 H 0.5335 -0.0000 0.7500
N3_16 N 0.58481(18) 0.00475(17) 0.58409(17)
N4_16 N 0.52413(19) 0.01063(18) 0.63461(18)
N5_16 N 0.75682(19) 0.0408(2) 0.7361(2)
N6_16 N 0.7936(2) 0.0237(2) 0.7415(3)
Cl1_16 Cl 0.71844(11) 0.13946(11) 0.74940(13)
C2_19 C 0.7122(3) 1.0000 0.7500
C3_19 C 0.6609(3) 1.0000 0.7500
C6_19 C 0.5656(3) 1.0000 0.7500
H2_19 H 0.5335 1.0000 0.7500
C7_16 C 0.5605(3) 0.9923(2) 0.8621(3)
C8_16 C 0.6330(4) 0.9937(3) 0.8038(3)
H3_16 H 0.6459 0.9881 0.8401
C9_16 C 0.5868(3) 0.9955(2) 0.8042(3)
N13_16 N 0.58007(25) 0.99525(17) 0.91591(17)
N14_16 N 0.51351(26) 0.98937(18) 0.86539(18)
N15_16 N 0.71606(28) 0.9592(2) 0.7639(2)
N16_16 N 0.7700(3) 0.9763(2) 0.7585(3)
Cl2_16 Cl 0.57899(16) 0.86054(11) 0.75060(13)
H4_25 H 0.787237 0.953983 0.767072
C2_20 C 0.0000 0.7123(3) 0.7500
C3_20 C 0.0000 0.6610(3) 0.7500
C6_20 C 0.0000 0.5657(3) 0.7500
H2_20 H 0.0000 0.5336 0.7500
C7_17 C 0.0077(2) 0.5681(4) 0.8621(3)
C8_17 C 0.0063(3) 0.6392(5) 0.8038(3)
H3_17 H 0.0119 0.6577 0.8401
C9_17 C 0.0045(2) 0.5912(4) 0.8042(3)
N13_17 N 0.00475(17) 0.58481(30) 0.91591(17)
N14_17 N 0.01063(18) 0.52413(32) 0.86539(18)
N15_17 N 0.0408(2) 0.75682(34) 0.7639(2)
N16_17 N 0.0237(2) 0.7936(4) 0.7585(3)
Cl2_17 Cl 0.13946(11) 0.71844(19) 0.75060(13)
H4_26 H 0.0460166 0.833254 0.767072
C1_17 C 0.9923(2) 0.5605(3) 0.6379(3)
C2_21 C 1.0000 0.7123(3) 0.7500
C3_21 C 1.0000 0.6610(3) 0.7500
C4_17 C 0.9937(3) 0.6330(4) 0.6962(3)
H1_17 H 0.9881 0.6459 0.6599
C5_17 C 0.9955(2) 0.5868(3) 0.6958(3)
C6_21 C 1.0000 0.5657(3) 0.7500
H2_21 H 1.0000 0.5336 0.7500
N3_17 N 0.99525(17) 0.58007(25) 0.58409(17)
N4_17 N 0.98937(18) 0.51351(26) 0.63461(18)
N5_17 N 0.9592(2) 0.71606(28) 0.7361(2)
N6_17 N 0.9763(2) 0.7700(3) 0.7415(3)
Cl1_17 Cl 0.86054(11) 0.57899(16) 0.74940(13)
C1_18 C 0.4395(3) 0.4319(2) 0.6379(3)
C2_22 C 0.2877(3) 0.2878(3) 0.7500
C3_22 C 0.3390(3) 0.3391(3) 0.7500
C4_18 C 0.3670(4) 0.3608(3) 0.6962(3)
H1_18 H 0.3541 0.3423 0.6599
C5_18 C 0.4132(3) 0.4088(2) 0.6958(3)
C6_22 C 0.4343(3) 0.4344(3) 0.7500
H2_22 H 0.4664 0.4665 0.7500
N3_18 N 0.41993(25) 0.41519(18) 0.58409(17)
N4_18 N 0.48649(26) 0.47587(19) 0.63461(18)
N5_18 N 0.28394(28) 0.24318(19) 0.7361(2)
N6_18 N 0.2300(3) 0.2064(2) 0.7415(3)
Cl1_18 Cl 0.42101(16) 0.28156(11) 0.74940(13)
C7_18 C 0.4319(4) 0.4395(3) 0.8621(3)
C8_18 C 0.3608(5) 0.3670(4) 0.8038(3)
H3_18 H 0.3423 0.3541 0.8401
C9_18 C 0.4088(4) 0.4132(3) 0.8042(3)
N13_18 N 0.41519(30) 0.41993(25) 0.91591(17)
N14_18 N 0.47587(32) 0.48649(26) 0.86539(18)
N15_18 N 0.24318(34) 0.28394(28) 0.7639(2)
N16_18 N 0.2064(4) 0.2300(3) 0.7585(3)
Cl2_18 Cl 0.28156(19) 0.42101(16) 0.75060(13)
H4_27 H 0.166746 0.212763 0.767072
H4_28 H 0.62065 0.12057 0.0662613
H4_29 H 0.49992 0.37935 0.0662613
H4_30 H 0.87943 0.50008 0.0662613
H4_31 H 0.12057 0.62065 0.433739
H4_32 H 0.37935 0.49992 0.433739
H4_33 H 0.50008 0.87943 0.433739
H4_34 H 0.953983 0.787237 0.732928
H4_35 H 0.833254 0.0460166 0.732928
H4_36 H 0.212763 0.166746 0.732928
loop_
_geom_bond_atom_site_label_1
_geom_bond_atom_site_label_2
_geom_bond_site_symmetry_1
_geom_bond_site_symmetry_2
N1 N2 1_555 1_555
N2 N3 1_555 1_555
N3 C1 1_555 1_555
N4 C1 1_555 1_555
Zn4 N2 1_555 1_555
Zn6 N1 1_555 1_555
N1 N4 1_555 1_555
Zn1 N5 1_555 1_555
C2 C3 1_555 1_555
C3 C4 1_555 1_555
C5 C4 1_555 1_555
C6 C5 1_555 1_555
H2 C6 1_555 1_555
N5 C2 1_555 1_555
N6 N5 1_555 1_555
Cl1 Zn1 1_555 1_555
Zn2 N8 1_555 1_555
Zn3 N10 1_555 1_555
Zn5 N7 1_555 1_555
C7 C9 1_555 1_555
C8 C3 1_555 1_555
H3 C8 1_555 1_555
C9 C6 1_555 1_555
N7 N10 1_555 1_555
N9 Zn1 1_555 1_555
N10 N13 1_555 1_555
N11 Zn2 1_555 1_555
N13 C7 1_555 1_555
N14 C7 1_555 1_555
N15 C2 1_555 1_555
N16 N6 1_555 1_555
Cl2 Zn2 1_555 1_555
Zn2 N15 1_555 1_555
C8 C9 1_555 1_555
N7 N14 1_555 1_555
N15 N16 1_555 1_555
N16 H4 1_555 1_555
N1_2 N2_2 1_555 1_555
N2_2 N3_2 1_555 1_555
N3_2 C1_2 1_555 1_555
N4_2 C1_2 1_555 1_555
Zn4_2 N2_2 1_555 1_555
Zn6_2 N1_2 1_555 1_555
N1_2 N4_2 1_555 1_555
C3_2 C4_2 1_555 1_555
C5_2 C4_2 1_555 1_555
C6_2 C5_2 1_555 1_555
H2_2 C6_2 1_555 1_555
Cl1_2 Zn1_2 1_555 1_555
Zn3_2 N10_2 1_555 1_555
Zn5_2 N7_2 1_555 1_555
C7_2 C9_2 1_555 1_555
C8_2 C3_2 1_555 1_555
H3_2 C8_2 1_555 1_555
C9_2 C6_2 1_555 1_555
N7_2 N10_2 1_555 1_555
N10_2 N13_2 1_555 1_555
N13_2 C7_2 1_555 1_555
N14_2 C7_2 1_555 1_555
C8_2 C9_2 1_555 1_555
N7_2 N14_2 1_555 1_555
N5_2 C2_2 1_555 1_555
N6_2 N5_2 1_555 1_555
Zn2_2 N8_2 1_555 1_555
N11_2 Zn2_2 1_555 1_555
N15_2 C2_2 1_555 1_555
N16_2 N6_2 1_555 1_555
Cl2_2 Zn2_2 1_555 1_555
Zn2_2 N15_2 1_555 1_555
N15_2 N16_2 1_555 1_555
N16_2 H4_2 1_555 1_555
N5_3 C2_3 1_555 1_555
N6_3 N5_3 1_555 1_555
Zn2_3 N8_3 1_555 1_555
N11_3 Zn2_3 1_555 1_555
N15_3 C2_3 1_555 1_555
N16_3 N6_3 1_555 1_555
Cl2_3 Zn2_3 1_555 1_555
Zn2_3 N15_3 1_555 1_555
N15_3 N16_3 1_555 1_555
N16_3 H4_3 1_555 1_555
N1_3 N2_3 1_555 1_555
N2_3 N3_3 1_555 1_555
N3_3 C1_3 1_555 1_555
N4_3 C1_3 1_555 1_555
Zn4_3 N2_3 1_555 1_555
Zn6_3 N1_3 1_555 1_555
N1_3 N4_3 1_555 1_555
C3_3 C4_3 1_555 1_555
C5_3 C4_3 1_555 1_555
C6_3 C5_3 1_555 1_555
H2_3 C6_3 1_555 1_555
Cl1_3 Zn1_3 1_555 1_555
Zn3_3 N10_3 1_555 1_555
Zn5_3 N7_3 1_555 1_555
C7_3 C9_3 1_555 1_555
C8_3 C3_3 1_555 1_555
H3_3 C8_3 1_555 1_555
C9_3 C6_3 1_555 1_555
N7_3 N10_3 1_555 1_555
N10_3 N13_3 1_555 1_555
N13_3 C7_3 1_555 1_555
N14_3 C7_3 1_555 1_555
C8_3 C9_3 1_555 1_555
N7_3 N14_3 1_555 1_555
Zn1_4 N5_4 1_555 1_555
C1_4 C5_4 1_555 1_555
C2_4 C3_4 1_555 1_555
C3_4 C4_4 1_555 1_555
C4_4 H1_4 1_555 1_555
C5_4 C4_4 1_555 1_555
C6_4 C5_4 1_555 1_555
H2_4 C6_4 1_555 1_555
N1_4 N2_4 1_555 1_555
N2_4 N3_4 1_555 1_555
N3_4 C1_4 1_555 1_555
N4_4 C1_4 1_555 1_555
N5_4 C2_4 1_555 1_555
N6_4 N5_4 1_555 1_555
Cl1_4 Zn1_4 1_555 1_555
Zn3 N8_4 1_555 1_555
Zn4_4 N2_4 1_555 1_555
Zn5_4 N7_4 1_555 1_555
Zn6_4 N1_4 1_555 1_555
C7_4 C9_4 1_555 1_555
C8_4 C3_4 1_555 1_555
H3_4 C8_4 1_555 1_555
C9_4 C6_4 1_555 1_555
N7_4 N11 1_555 1_555
N9_4 Zn1_4 1_555 1_555
N11 N13_4 1_555 1_555
N12_4 Zn1_4 1_555 1_555
N13_4 C7_4 1_555 1_555
N14_4 C7_4 1_555 1_555
N15_4 C2_4 1_555 1_555
N16_4 N6_4 1_555 1_555
Cl2_4 Zn3 1_555 1_555
N1_4 N4_4 1_555 1_555
Zn3 N15_4 1_555 1_555
C8_4 C9_4 1_555 1_555
N7_4 N14_4 1_555 1_555
N15_4 N16_4 1_555 1_555
N16_4 H4_4 1_555 1_555
C1_5 C5_5 1_555 1_555
C3_5 C4_5 1_555 1_555
C4_5 H1_5 1_555 1_555
C5_5 C4_5 1_555 1_555
C6_5 C5_5 1_555 1_555
H2_5 C6_5 1_555 1_555
N1_5 N2_5 1_555 1_555
N2_5 N3_5 1_555 1_555
N3_5 C1_5 1_555 1_555
N4_5 C1_5 1_555 1_555
Cl1_5 Zn1_5 1_555 1_555
Zn4_5 N2_5 1_555 1_555
Zn5_5 N7_5 1_555 1_555
Zn6_5 N1_5 1_555 1_555
C7_5 C9_5 1_555 1_555
C8_5 C3_5 1_555 1_555
H3_5 C8_5 1_555 1_555
C9_5 C6_5 1_555 1_555
N7_5 N11_3 1_555 1_555
N11_3 N13_5 1_555 1_555
N12_5 Zn1_5 1_555 1_555
N13_5 C7_5 1_555 1_555
N14_5 C7_5 1_555 1_555
N1_5 N4_5 1_555 1_555
C8_5 C9_5 1_555 1_555
N7_5 N14_5 1_555 1_555
N5_5 C2_5 1_555 1_555
N6_5 N5_5 1_555 1_555
Zn3_3 N8_5 1_555 1_555
N15_5 C2_5 1_555 1_555
N16_5 N6_5 1_555 1_555
Cl2_5 Zn3_3 1_555 1_555
Zn3_3 N15_5 1_555 1_555
N15_5 N16_5 1_555 1_555
N16_5 H4_5 1_555 1_555
N5_6 C2_6 1_555 1_555
N6_6 N5_6 1_555 1_555
Zn3_2 N8_6 1_555 1_555
N15_6 C2_6 1_555 1_555
N16_6 N6_6 1_555 1_555
Cl2_6 Zn3_2 1_555 1_555
Zn3_2 N15_6 1_555 1_555
N15_6 N16_6 1_555 1_555
N16_6 H4_6 1_555 1_555
C1_6 C5_6 1_555 1_555
C3_6 C4_6 1_555 1_555
C4_6 H1_6 1_555 1_555
C5_6 C4_6 1_555 1_555
C6_6 C5_6 1_555 1_555
H2_6 C6_6 1_555 1_555
N1_6 N2_6 1_555 1_555
N2_6 N3_6 1_555 1_555
N3_6 C1_6 1_555 1_555
N4_6 C1_6 1_555 1_555
Cl1_6 Zn1_6 1_555 1_555
Zn4_6 N2_6 1_555 1_555
Zn5_6 N7_6 1_555 1_555
Zn6_6 N1_6 1_555 1_555
C7_6 C9_6 1_555 1_555
C8_6 C3_6 1_555 1_555
H3_6 C8_6 1_555 1_555
C9_6 C6_6 1_555 1_555
N7_6 N11_2 1_555 1_555
N11_2 N13_6 1_555 1_555
N12_6 Zn1_6 1_555 1_555
N13_6 C7_6 1_555 1_555
N14_6 C7_6 1_555 1_555
N1_6 N4_6 1_555 1_555
C8_6 C9_6 1_555 1_555
N7_6 N14_6 1_555 1_555
C2_7 C3_7 1_555 1_555
H2_7 C6_7 1_555 1_555
Zn4_2 N8_7 1_555 1_555
C7_7 C9_7 1_555 1_555
C8_7 C3_7 1_555 1_555
H3_7 C8_7 1_555 1_555
C9_7 C6_7 1_555 1_555
N7_7 N12_2 1_555 1_555
N12_2 N13_7 1_555 1_555
N13_7 C7_7 1_555 1_555
N14_7 C7_7 1_555 1_555
N15_7 C2_7 1_555 1_555
Cl2_7 Zn4_2 1_555 1_555
Zn4_2 N15_7 1_555 1_555
C8_7 C9_7 1_555 1_555
N7_7 N14_7 1_555 1_555
N15_7 N16_7 1_555 1_555
N16_7 H4_7 1_555 1_555
Zn4_6 N5_7 1_555 1_555
C1_7 C5_7 1_555 1_555
C2_8 C3_8 1_555 1_555
C3_8 C4_7 1_555 1_555
C4_7 H1_7 1_555 1_555
C5_7 C4_7 1_555 1_555
C6_8 C5_7 1_555 1_555
H2_8 C6_8 1_555 1_555
N1_7 N12_6 1_555 1_555
N12_6 N3_7 1_555 1_555
N3_7 C1_7 1_555 1_555
N4_7 C1_7 1_555 1_555
N5_7 C2_8 1_555 1_555
N6_7 N5_7 1_555 1_555
Cl1_7 Zn4_6 1_555 1_555
N9_7 Zn4_6 1_555 1_555
N1_7 N4_7 1_555 1_555
Zn4_5 N5_8 1_555 1_555
C1_8 C5_8 1_555 1_555
C2_9 C3_9 1_555 1_555
C3_9 C4_8 1_555 1_555
C4_8 H1_8 1_555 1_555
C5_8 C4_8 1_555 1_555
C6_9 C5_8 1_555 1_555
H2_9 C6_9 1_555 1_555
N1_8 N12_5 1_555 1_555
N12_5 N3_8 1_555 1_555
N3_8 C1_8 1_555 1_555
N4_8 C1_8 1_555 1_555
N5_8 C2_9 1_555 1_555
N6_8 N5_8 1_555 1_555
Cl1_8 Zn4_5 1_555 1_555
N9_8 Zn4_5 1_555 1_555
N1_8 N4_8 1_555 1_555
C2_10 C3_10 1_555 1_555
H2_10 C6_10 1_555 1_555
Zn4_3 N8_8 1_555 1_555
C7_8 C9_8 1_555 1_555
C8_8 C3_10 1_555 1_555
H3_8 C8_8 1_555 1_555
C9_8 C6_10 1_555 1_555
N7_8 N12_3 1_555 1_555
N12_3 N13_8 1_555 1_555
N13_8 C7_8 1_555 1_555
N14_8 C7_8 1_555 1_555
N15_8 C2_10 1_555 1_555
Cl2_8 Zn4_3 1_555 1_555
Zn4_3 N15_8 1_555 1_555
C8_8 C9_8 1_555 1_555
N7_8 N14_8 1_555 1_555
N15_8 N16_8 1_555 1_555
N16_8 H4_8 1_555 1_555
Zn4_4 N5_9 1_555 1_555
C1_9 C5_9 1_555 1_555
C2_11 C3_11 1_555 1_555
C3_11 C4_9 1_555 1_555
C4_9 H1_9 1_555 1_555
C5_9 C4_9 1_555 1_555
C6_11 C5_9 1_555 1_555
H2_11 C6_11 1_555 1_555
N1_9 N12_4 1_555 1_555
N12_4 N3_9 1_555 1_555
N3_9 C1_9 1_555 1_555
N4_9 C1_9 1_555 1_555
N5_9 C2_11 1_555 1_555
N6_9 N5_9 1_555 1_555
Cl1_9 Zn4_4 1_555 1_555
Zn4 N8_9 1_555 1_555
Zn5_9 N7_9 1_555 1_555
Zn6_9 N1_9 1_555 1_555
C7_9 C9_9 1_555 1_555
C8_9 C3_11 1_555 1_555
H3_9 C8_9 1_555 1_555
C9_9 C6_11 1_555 1_555
N7_9 N12 1_555 1_555
N9_9 Zn4_4 1_555 1_555
N12 N13_9 1_555 1_555
N13_9 C7_9 1_555 1_555
N14_9 C7_9 1_555 1_555
N15_9 C2_11 1_555 1_555
N16_9 N6_9 1_555 1_555
Cl2_9 Zn4 1_555 1_555
N1_9 N4_9 1_555 1_555
Zn4 N15_9 1_555 1_555
C8_9 C9_9 1_555 1_555
N7_9 N14_9 1_555 1_555
N15_9 N16_9 1_555 1_555
N16_9 H4_9 1_555 1_555
N6_2 H4_10 1_555 1_555
N6 H4_11 1_555 1_555
N6_3 H4_12 1_555 1_555
N6_5 H4_13 1_555 1_555
N6_4 H4_14 1_555 1_555
N6_6 H4_15 1_555 1_555
N6_8 H4_16 1_555 1_555
N6_7 H4_17 1_555 1_555
N6_9 H4_18 1_555 1_555
Zn5_9 N5_10 1_555 1_555
C2_12 C3_12 1_555 1_555
C3_12 C4_10 1_555 1_555
C5_10 C4_10 1_555 1_555
C6_12 C5_10 1_555 1_555
H2_12 C6_12 1_555 1_555
N5_10 C2_12 1_555 1_555
N6_10 N5_10 1_555 1_555
Cl1_10 Zn5_9 1_555 1_555
Zn6_5 N10_4 1_555 1_555
C7_10 C9_10 1_555 1_555
C8_10 C3_12 1_555 1_555
H3_10 C8_10 1_555 1_555
C9_10 C6_12 1_555 1_555
N9_8 N10_4 1_555 1_555
N10_4 N13_10 1_555 1_555
N11_4 Zn6_2 1_555 1_555
N13_10 C7_10 1_555 1_555
N14_10 C7_10 1_555 1_555
N15_10 C2_12 1_555 1_555
N16_10 N6_10 1_555 1_555
Cl2_10 Zn6_2 1_555 1_555
Zn6_2 N15_10 1_555 1_555
C8_10 C9_10 1_555 1_555
N9_8 N14_10 1_555 1_555
N15_10 N16_10 1_555 1_555
N16_10 H4_19 1_555 1_555
N8_3 N2_7 1_555 1_555
N2_7 N3_10 1_555 1_555
N3_10 C1_10 1_555 1_555
N4_10 C1_10 1_555 1_555
Zn5_5 N2_7 1_555 1_555
N8_3 N4_10 1_555 1_555
N5_11 C2_13 1_555 1_555
N6_11 N5_11 1_555 1_555
N11_5 Zn6_3 1_555 1_555
N15_11 C2_13 1_555 1_555
N16_11 N6_11 1_555 1_555
Cl2_11 Zn6_3 1_555 1_555
Zn6_3 N15_11 1_555 1_555
N15_11 N16_11 1_555 1_555
N16_11 H4_20 1_555 1_555
C3_13 C4_11 1_555 1_555
C5_11 C4_11 1_555 1_555
C6_13 C5_11 1_555 1_555
H2_13 C6_13 1_555 1_555
Cl1_11 Zn5_7 1_555 1_555
Zn6_4 N10_5 1_555 1_555
C7_11 C9_11 1_555 1_555
C8_11 C3_13 1_555 1_555
H3_11 C8_11 1_555 1_555
C9_11 C6_13 1_555 1_555
N9_9 N10_5 1_555 1_555
N10_5 N13_11 1_555 1_555
N13_11 C7_11 1_555 1_555
N14_11 C7_11 1_555 1_555
C8_11 C9_11 1_555 1_555
N9_9 N14_11 1_555 1_555
N8 N2_8 1_555 1_555
N2_8 N3_11 1_555 1_555
N3_11 C1_11 1_555 1_555
N4_11 C1_11 1_555 1_555
Zn5_4 N2_8 1_555 1_555
N8 N4_11 1_555 1_555
C3_14 C4_12 1_555 1_555
C5_12 C4_12 1_555 1_555
C6_14 C5_12 1_555 1_555
H2_14 C6_14 1_555 1_555
Cl1_12 Zn5_8 1_555 1_555
Zn6_6 N10_6 1_555 1_555
C7_12 C9_12 1_555 1_555
C8_12 C3_14 1_555 1_555
H3_12 C8_12 1_555 1_555
C9_12 C6_14 1_555 1_555
N9_7 N10_6 1_555 1_555
N10_6 N13_12 1_555 1_555
N13_12 C7_12 1_555 1_555
N14_12 C7_12 1_555 1_555
C8_12 C9_12 1_555 1_555
N9_7 N14_12 1_555 1_555
N8_2 N2_9 1_555 1_555
N2_9 N3_12 1_555 1_555
N3_12 C1_12 1_555 1_555
N4_12 C1_12 1_555 1_555
Zn5_6 N2_9 1_555 1_555
N8_2 N4_12 1_555 1_555
N5_12 C2_14 1_555 1_555
N6_12 N5_12 1_555 1_555
N11_6 Zn6 1_555 1_555
N15_12 C2_14 1_555 1_555
N16_12 N6_12 1_555 1_555
Cl2_12 Zn6 1_555 1_555
Zn6 N15_12 1_555 1_555
N15_12 N16_12 1_555 1_555
N16_12 H4_21 1_555 1_555
Zn6_9 N5_13 1_555 1_555
C1_13 C5_13 1_555 1_555
C2_15 C3_15 1_555 1_555
C3_15 C4_13 1_555 1_555
C4_13 H1_13 1_555 1_555
C5_13 C4_13 1_555 1_555
C6_15 C5_13 1_555 1_555
H2_15 C6_15 1_555 1_555
N8_6 N2_10 1_555 1_555
N2_10 N3_13 1_555 1_555
N3_13 C1_13 1_555 1_555
N4_13 C1_13 1_555 1_555
N5_13 C2_15 1_555 1_555
N6_13 N5_13 1_555 1_555
Cl1_13 Zn6_9 1_555 1_555
Zn5_2 N2_10 1_555 1_555
C7_13 C9_13 1_555 1_555
C8_13 C3_15 1_555 1_555
H3_13 C8_13 1_555 1_555
C9_13 C6_15 1_555 1_555
N8_7 N11_4 1_555 1_555
N11_4 N13_13 1_555 1_555
N12_10 Zn6_9 1_555 1_555
N13_13 C7_13 1_555 1_555
N14_13 C7_13 1_555 1_555
N15_13 C2_15 1_555 1_555
N16_13 N6_13 1_555 1_555
Cl2_13 Zn6_5 1_555 1_555
N8_6 N4_13 1_555 1_555
Zn6_5 N15_13 1_555 1_555
C8_13 C9_13 1_555 1_555
N8_7 N14_13 1_555 1_555
N15_13 N16_13 1_555 1_555
N16_13 H4_22 1_555 1_555
N5_14 C2_16 1_555 1_555
N6_14 N5_14 1_555 1_555
N15_14 C2_16 1_555 1_555
N16_14 N6_14 1_555 1_555
Cl2_14 Zn6_6 1_555 1_555
Zn6_6 N15_14 1_555 1_555
N15_14 N16_14 1_555 1_555
N16_14 H4_23 1_555 1_555
C1_14 C5_14 1_555 1_555
C3_16 C4_14 1_555 1_555
C4_14 H1_14 1_555 1_555
C5_14 C4_14 1_555 1_555
C6_16 C5_14 1_555 1_555
H2_16 C6_16 1_555 1_555
N8_4 N2_11 1_555 1_555
N2_11 N3_14 1_555 1_555
N3_14 C1_14 1_555 1_555
N4_14 C1_14 1_555 1_555
Cl1_14 Zn6_8 1_555 1_555
Zn5 N2_11 1_555 1_555
C7_14 C9_14 1_555 1_555
C8_14 C3_16 1_555 1_555
H3_14 C8_14 1_555 1_555
C9_14 C6_16 1_555 1_555
N8_9 N11_6 1_555 1_555
N11_6 N13_14 1_555 1_555
N12_11 Zn6_8 1_555 1_555
N13_14 C7_14 1_555 1_555
N14_14 C7_14 1_555 1_555
N8_4 N4_14 1_555 1_555
C8_14 C9_14 1_555 1_555
N8_9 N14_14 1_555 1_555
C1_15 C5_15 1_555 1_555
C3_17 C4_15 1_555 1_555
C4_15 H1_15 1_555 1_555
C5_15 C4_15 1_555 1_555
C6_17 C5_15 1_555 1_555
H2_17 C6_17 1_555 1_555
N8_5 N2_12 1_555 1_555
N2_12 N3_15 1_555 1_555
N3_15 C1_15 1_555 1_555
N4_15 C1_15 1_555 1_555
Cl1_15 Zn6_7 1_555 1_555
Zn5_3 N2_12 1_555 1_555
C7_15 C9_15 1_555 1_555
C8_15 C3_17 1_555 1_555
H3_15 C8_15 1_555 1_555
C9_15 C6_17 1_555 1_555
N8_8 N11_5 1_555 1_555
N11_5 N13_15 1_555 1_555
N12_12 Zn6_7 1_555 1_555
N13_15 C7_15 1_555 1_555
N14_15 C7_15 1_555 1_555
N8_5 N4_15 1_555 1_555
C8_15 C9_15 1_555 1_555
N8_8 N14_15 1_555 1_555
N5_15 C2_17 1_555 1_555
N6_15 N5_15 1_555 1_555
N15_15 C2_17 1_555 1_555
N16_15 N6_15 1_555 1_555
Cl2_15 Zn6_4 1_555 1_555
Zn6_4 N15_15 1_555 1_555
N15_15 N16_15 1_555 1_555
N16_15 H4_24 1_555 1_555
Zn5_3 N5_16 1_555 1_555
C1_16 C5_16 1_555 1_555
C2_18 C3_18 1_555 1_555
C3_18 C4_16 1_555 1_555
C4_16 H1_16 1_555 1_555
C5_16 C4_16 1_555 1_555
C6_18 C5_16 1_555 1_555
H2_18 C6_18 1_555 1_555
N9_6 N12_12 1_555 1_555
N12_12 N3_16 1_555 1_555
N3_16 C1_16 1_555 1_555
N4_16 C1_16 1_555 1_555
N5_16 C2_18 1_555 1_555
N6_16 N5_16 1_555 1_555
Cl1_16 Zn5_3 1_555 1_555
N9_6 N4_16 1_555 1_555
C2_19 C3_19 1_555 1_555
H2_19 C6_19 1_555 1_555
C7_16 C9_16 1_555 1_555
C8_16 C3_19 1_555 1_555
H3_16 C8_16 1_555 1_555
C9_16 C6_19 1_555 1_555
N9_2 N12_8 1_555 1_555
N12_8 N13_16 1_555 1_555
N13_16 C7_16 1_555 1_555
N14_16 C7_16 1_555 1_555
N15_16 C2_19 1_555 1_555
Cl2_16 Zn5_4 1_555 1_555
Zn5_4 N15_16 1_555 1_555
C8_16 C9_16 1_555 1_555
N9_2 N14_16 1_555 1_555
N15_16 N16_16 1_555 1_555
N16_16 H4_25 1_555 1_555
C2_20 C3_20 1_555 1_555
H2_20 C6_20 1_555 1_555
C7_17 C9_17 1_555 1_555
C8_17 C3_20 1_555 1_555
H3_17 C8_17 1_555 1_555
C9_17 C6_20 1_555 1_555
N9_3 N12_9 1_555 1_555
N12_9 N13_17 1_555 1_555
N13_17 C7_17 1_555 1_555
N14_17 C7_17 1_555 1_555
N15_17 C2_20 1_555 1_555
Cl2_17 Zn5_6 1_555 1_555
Zn5_6 N15_17 1_555 1_555
C8_17 C9_17 1_555 1_555
N9_3 N14_17 1_555 1_555
N15_17 N16_17 1_555 1_555
N16_17 H4_26 1_555 1_555
Zn5 N5_17 1_555 1_555
C1_17 C5_17 1_555 1_555
C2_21 C3_21 1_555 1_555
C3_21 C4_17 1_555 1_555
C4_17 H1_17 1_555 1_555
C5_17 C4_17 1_555 1_555
C6_21 C5_17 1_555 1_555
H2_21 C6_21 1_555 1_555
N9_5 N12_11 1_555 1_555
N12_11 N3_17 1_555 1_555
N3_17 C1_17 1_555 1_555
N4_17 C1_17 1_555 1_555
N5_17 C2_21 1_555 1_555
N6_17 N5_17 1_555 1_555
Cl1_17 Zn5 1_555 1_555
N9_5 N4_17 1_555 1_555
Zn5_2 N5_18 1_555 1_555
C1_18 C5_18 1_555 1_555
C2_22 C3_22 1_555 1_555
C3_22 C4_18 1_555 1_555
C4_18 H1_18 1_555 1_555
C5_18 C4_18 1_555 1_555
C6_22 C5_18 1_555 1_555
H2_22 C6_22 1_555 1_555
N9_4 N12_10 1_555 1_555
N12_10 N3_18 1_555 1_555
N3_18 C1_18 1_555 1_555
N4_18 C1_18 1_555 1_555
N5_18 C2_22 1_555 1_555
N6_18 N5_18 1_555 1_555
Cl1_18 Zn5_2 1_555 1_555
C7_18 C9_18 1_555 1_555
C8_18 C3_22 1_555 1_555
H3_18 C8_18 1_555 1_555
C9_18 C6_22 1_555 1_555
N9 N12_7 1_555 1_555
N12_7 N13_18 1_555 1_555
N13_18 C7_18 1_555 1_555
N14_18 C7_18 1_555 1_555
N15_18 C2_22 1_555 1_555
N16_18 N6_18 1_555 1_555
Cl2_18 Zn5_5 1_555 1_555
N9_4 N4_18 1_555 1_555
Zn5_5 N15_18 1_555 1_555
C8_18 C9_18 1_555 1_555
N9 N14_18 1_555 1_555
N15_18 N16_18 1_555 1_555
N16_18 H4_27 1_555 1_555
N6_11 H4_28 1_555 1_555
N6_10 H4_29 1_555 1_555
N6_12 H4_30 1_555 1_555
N6_14 H4_31 1_555 1_555
N6_13 H4_32 1_555 1_555
N6_15 H4_33 1_555 1_555
N6_17 H4_34 1_555 1_555
N6_16 H4_35 1_555 1_555
N6_18 H4_36 1_555 1_555

#END
