
###############################################################################
#
# This file contains modified crystal structure data generated from the
# MOF subset of the Cambridge Structural Database (CSD) v543 
# hosted by the Cambridge Crystallographic Data Centre (CCDC).
#
# This work is licensed under the Creative Commons
# Attribution-NonCommercial-ShareAlike 4.0 International License.
# To view a copy of this license, visit
# http://creativecommons.org/licenses/by-nc-sa/4.0/
# or send a letter to
# Creative Commons, PO Box 1866, Mountain View, CA 94042, USA.
#
# CIF created using the CSD Python API on 29 September 2022
# The structure has been converted into the P1 space group
# The structure has a 3D framework
# The original CSD entry TEDLUM is in the monoclinic crystal system
# The framework has been calculated to contain at least 10.0% void space
# The void calculation uses a probe of radius 1.32A, grid spacing 0.4
#
###############################################################################

data_TEDLUM
_chemical_formula_moiety         '(C32 H24 Cl6 Mn9 N32 O6)n'
_symmetry_cell_setting           triclinic
_symmetry_space_group_name_H-M   'P 1'
_symmetry_Int_Tables_number      1
_space_group_name_Hall           'P 1'
loop_
_symmetry_equiv_pos_site_id
_symmetry_equiv_pos_as_xyz
1 x,y,z
_cell_length_a                   11.788(3)
_cell_length_b                   10.907(3)
_cell_length_c                   12.073(3)
_cell_angle_alpha                90
_cell_angle_beta                 106.232(4)
_cell_angle_gamma                90
_cell_volume                     1490.37
loop_
_atom_site_label
_atom_site_type_symbol
_atom_site_fract_x
_atom_site_fract_y
_atom_site_fract_z
Mn2 Mn 0.5000 0.0000 0.0000
Cl5 Cl 0.72046(6) 0.0000 0.02603(5)
N36 N 0.53100(14) 0.14292(16) 0.14084(14)
Mn1 Mn 0.22110(3) 0.5000 0.27721(3)
Mn2_2 Mn 0.5000 0.0000 1.0000
Mn3 Mn 0.23670(3) 0.0000 0.76108(3)
Mn4 Mn 0.5000 0.5000 0.5000
Cl1 Cl 0.27954(6) -0.0000 0.97397(5)
Cl2 Cl 0.20844(7) 0.5000 0.07639(6)
O1 O 0.41945(15) 0.5000 0.31655(15)
H1 H 0.4417 0.4369 0.2870
O2 O 0.15428(16) 0.0000 0.58087(15)
N1 N 0.22643(14) 0.21511(16) 0.52631(13)
C1 C 0.33095(16) 0.26787(17) 0.57875(16)
N2 N 0.36095(13) 0.35705(15) 0.51554(13)
C2 C 0.40316(16) 0.23314(17) 0.69449(16)
N3 N 0.37714(13) 0.14359(15) 0.75896(13)
N4 N 0.46900(14) 0.14292(16) 0.85916(14)
C3 C 0.54160(18) 0.2306(2) 0.84751(17)
H3 H 0.6112 0.2491 0.9039
N5 N 0.50583(14) 0.29068(17) 0.74667(14)
C4 C 0.00048(17) 0.17243(19) 0.33138(17)
H4 H 0.0127 0.1188 0.3935
C6 C 0.19229(16) 0.27881(18) 0.42717(16)
N7 N 0.26931(13) 0.36296(16) 0.41742(13)
N8 N 0.06895(14) 0.34589(16) 0.24795(14)
C7 C 0.08349(17) 0.26444(18) 0.33337(16)
H7 H 0.4417 0.5631 0.2870
H8 H 0.1749 0.0641 0.5514
N14 N 0.09573(14) 0.15963(16) 0.75724(14)
C13 C 0.10836(19) 0.2404(2) 0.84376(19)
H13 H 0.1739 0.2339 0.9077
C16 C 0.02786(19) 0.3322(2) 0.84118(19)
H14 H 0.0409 0.3864 0.9030
O5 O 0.58055(15) 0.5000 0.68345(15)
N33 N 0.63905(13) 0.35705(15) 0.48446(13)
N34 N 0.63905(13) 0.64295(15) 0.48446(13)
N35 N 0.36095(13) 0.64295(15) 0.51554(13)
N39 N 0.26931(13) 0.63704(16) 0.41742(13)
N41 N 0.06895(14) 0.65411(16) 0.24795(14)
Mn2_3 Mn 0.5000 1.0000 0.0000
Cl5_2 Cl 0.72046(6) 1.0000 0.02603(5)
N37 N 0.53100(14) 0.85708(16) 0.14084(14)
Mn2_4 Mn 0.5000 1.0000 1.0000
Mn3_2 Mn 0.23670(3) 1.0000 0.76108(3)
Cl1_2 Cl 0.27954(6) 1.0000 0.97397(5)
O2_2 O 0.15428(16) 1.0000 0.58087(15)
H2 H 0.1749 0.9359 0.5514
N22 N 0.09573(14) 0.84037(16) 0.75724(14)
C21 C 0.10836(19) 0.7596(2) 0.84376(19)
H19 H 0.1739 0.7661 0.9077
C24 C 0.02786(19) 0.6678(2) 0.84118(19)
H20 H 0.0409 0.6136 0.9030
N25 N 0.22643(14) 0.78489(16) 0.52631(13)
C25 C 0.33095(16) 0.73213(17) 0.57875(16)
C26 C 0.40316(16) 0.76686(17) 0.69449(16)
N27 N 0.37714(13) 0.85641(15) 0.75896(13)
N28 N 0.46900(14) 0.85708(16) 0.85916(14)
C27 C 0.54160(18) 0.7694(2) 0.84751(17)
H21 H 0.6112 0.7509 0.9039
N29 N 0.50583(14) 0.70932(17) 0.74667(14)
C28 C 0.00048(17) 0.82757(19) 0.33138(17)
H22 H 0.0127 0.8812 0.3935
C30 C 0.19229(16) 0.72119(18) 0.42717(16)
C31 C 0.08349(17) 0.73556(18) 0.33337(16)
N6 N 0.90427(14) 0.15963(16) 0.24276(14)
C5 C 0.89164(19) 0.2404(2) 0.15624(19)
H5 H 0.8261 0.2339 0.0923
C8 C 0.97214(19) 0.3322(2) 0.15882(19)
H6 H 0.9591 0.3864 0.0970
Mn5 Mn 0.77890(3) 0.5000 0.72279(3)
Mn6 Mn 0.76330(3) 0.0000 0.23892(3)
Cl4 Cl 0.79156(7) 0.5000 0.92361(6)
H9 H 0.5583 0.4369 0.7130
O4 O 0.84572(16) -0.0000 0.41913(15)
N9 N 0.77357(14) 0.21511(16) 0.47369(13)
C9 C 0.66905(16) 0.26787(17) 0.42125(16)
C10 C 0.59684(16) 0.23314(17) 0.30551(16)
N11 N 0.62286(13) 0.14359(15) 0.24104(13)
C11 C 0.45840(18) 0.2306(2) 0.15249(17)
H11 H 0.3888 0.2491 0.0961
N13 N 0.49417(14) 0.29068(17) 0.25333(14)
C12 C 0.99952(17) 0.17243(19) 0.66862(17)
H12 H 0.9873 0.1188 0.6065
C14 C 0.80771(16) 0.27881(18) 0.57283(16)
N15 N 0.73069(13) 0.36296(16) 0.58258(13)
N16 N 0.93105(14) 0.34589(16) 0.75205(14)
C15 C 0.91651(17) 0.26444(18) 0.66663(16)
H15 H 0.5583 0.5631 0.7130
H16 H 0.8251 0.0641 0.4486
N38 N 0.73069(13) 0.63704(16) 0.58258(13)
N40 N 0.93105(14) 0.65411(16) 0.75205(14)
Mn6_2 Mn 0.76330(3) 1.0000 0.23892(3)
O4_2 O 0.84572(16) 1.0000 0.41913(15)
H10 H 0.8251 0.9359 0.4486
N17 N 0.77357(14) 0.78489(16) 0.47369(13)
C17 C 0.66905(16) 0.73213(17) 0.42125(16)
C18 C 0.59684(16) 0.76686(17) 0.30551(16)
N19 N 0.62286(13) 0.85641(15) 0.24104(13)
C19 C 0.45840(18) 0.7694(2) 0.15249(17)
H17 H 0.3888 0.7509 0.0961
N21 N 0.49417(14) 0.70932(17) 0.25333(14)
C20 C 0.99952(17) 0.82757(19) 0.66862(17)
H18 H 0.9873 0.8812 0.6065
C22 C 0.80771(16) 0.72119(18) 0.57283(16)
C23 C 0.91651(17) 0.73556(18) 0.66663(16)
N30 N 0.90427(14) 0.84037(16) 0.24276(14)
C29 C 0.89164(19) 0.7596(2) 0.15624(19)
H23 H 0.8261 0.7661 0.0923
C32 C 0.97214(19) 0.6678(2) 0.15882(19)
H24 H 0.9591 0.6136 0.0970
loop_
_geom_bond_atom_site_label_1
_geom_bond_atom_site_label_2
_geom_bond_site_symmetry_1
_geom_bond_site_symmetry_2
Cl5 Mn2 1_555 1_555
N36 Mn2 1_555 1_555
Mn1 Cl2 1_555 1_555
Mn2_2 Cl1 1_555 1_555
Mn3 Cl1 1_555 1_555
Mn4 O1 1_555 1_555
O1 Mn1 1_555 1_555
H1 O1 1_555 1_555
O2 Mn3 1_555 1_555
N1 C1 1_555 1_555
C1 N2 1_555 1_555
N2 Mn4 1_555 1_555
C2 C1 1_555 1_555
N3 Mn3 1_555 1_555
N4 Mn2_2 1_555 1_555
C3 N4 1_555 1_555
H3 C3 1_555 1_555
N5 C2 1_555 1_555
C4 H4 1_555 1_555
C6 N1 1_555 1_555
N7 Mn1 1_555 1_555
N8 Mn1 1_555 1_555
C7 C4 1_555 1_555
H7 O1 1_555 1_555
H8 O2 1_555 1_555
N14 Mn3 1_555 1_555
C13 N14 1_555 1_555
H13 C13 1_555 1_555
C16 C13 1_555 1_555
H14 C16 1_555 1_555
O5 Mn4 1_555 1_555
N33 Mn4 1_555 1_555
N34 Mn4 1_555 1_555
N35 Mn4 1_555 1_555
N39 Mn1 1_555 1_555
N41 Mn1 1_555 1_555
N2 N7 1_555 1_555
C2 N3 1_555 1_555
N3 N4 1_555 1_555
C3 N5 1_555 1_555
C6 N7 1_555 1_555
C6 C7 1_555 1_555
N8 C7 1_555 1_555
N35 N39 1_555 1_555
Cl5_2 Mn2_3 1_555 1_555
N37 Mn2_3 1_555 1_555
Mn2_4 Cl1_2 1_555 1_555
Mn3_2 Cl1_2 1_555 1_555
O2_2 Mn3_2 1_555 1_555
H2 O2_2 1_555 1_555
N22 Mn3_2 1_555 1_555
C21 N22 1_555 1_555
H19 C21 1_555 1_555
C24 C21 1_555 1_555
H20 C24 1_555 1_555
N25 C25 1_555 1_555
C25 N35 1_555 1_555
C26 C25 1_555 1_555
N27 Mn3_2 1_555 1_555
N28 Mn2_4 1_555 1_555
C27 N28 1_555 1_555
H21 C27 1_555 1_555
N29 C26 1_555 1_555
C28 H22 1_555 1_555
C30 N25 1_555 1_555
N39 C30 1_555 1_555
N41 C31 1_555 1_555
C31 C28 1_555 1_555
C26 N27 1_555 1_555
N27 N28 1_555 1_555
C27 N29 1_555 1_555
C30 C31 1_555 1_555
C5 N6 1_555 1_555
H5 C5 1_555 1_555
C8 C5 1_555 1_555
H6 C8 1_555 1_555
Mn5 Cl4 1_555 1_555
Mn6 N6 1_555 1_555
Cl5 Mn6 1_555 1_555
O5 Mn5 1_555 1_555
H9 O5 1_555 1_555
O4 Mn6 1_555 1_555
N9 C9 1_555 1_555
C9 N33 1_555 1_555
N33 N15 1_555 1_555
C10 C9 1_555 1_555
N11 Mn6 1_555 1_555
N36 N11 1_555 1_555
C11 N36 1_555 1_555
H11 C11 1_555 1_555
N13 C10 1_555 1_555
C12 H12 1_555 1_555
C14 N9 1_555 1_555
N15 Mn5 1_555 1_555
N16 Mn5 1_555 1_555
C15 C12 1_555 1_555
H15 O5 1_555 1_555
H16 O4 1_555 1_555
N38 Mn5 1_555 1_555
N40 Mn5 1_555 1_555
C10 N11 1_555 1_555
C11 N13 1_555 1_555
C14 N15 1_555 1_555
C14 C15 1_555 1_555
N16 C15 1_555 1_555
Cl5_2 Mn6_2 1_555 1_555
O4_2 Mn6_2 1_555 1_555
H10 O4_2 1_555 1_555
N17 C17 1_555 1_555
C17 N34 1_555 1_555
N34 N38 1_555 1_555
C18 C17 1_555 1_555
N19 Mn6_2 1_555 1_555
N37 N19 1_555 1_555
C19 N37 1_555 1_555
H17 C19 1_555 1_555
N21 C18 1_555 1_555
C20 H18 1_555 1_555
C22 N17 1_555 1_555
N38 C22 1_555 1_555
N40 C23 1_555 1_555
C23 C20 1_555 1_555
N30 Mn6_2 1_555 1_555
C29 N30 1_555 1_555
H23 C29 1_555 1_555
C32 C29 1_555 1_555
H24 C32 1_555 1_555
C18 N19 1_555 1_555
C19 N21 1_555 1_555
C22 C23 1_555 1_555

#END
