
###############################################################################
#
# This file contains modified crystal structure data generated from the
# MOF subset of the Cambridge Structural Database (CSD) v543 
# hosted by the Cambridge Crystallographic Data Centre (CCDC).
#
# This work is licensed under the Creative Commons
# Attribution-NonCommercial-ShareAlike 4.0 International License.
# To view a copy of this license, visit
# http://creativecommons.org/licenses/by-nc-sa/4.0/
# or send a letter to
# Creative Commons, PO Box 1866, Mountain View, CA 94042, USA.
#
# CIF created using the CSD Python API on 29 September 2022
# The structure has been converted into the P1 space group
# The structure has a 3D framework
# The original CSD entry TEDLUK is in the monoclinic crystal system
# The framework has been calculated to contain at least 10.0% void space
# The void calculation uses a probe of radius 1.32A, grid spacing 0.4
#
###############################################################################

data_TEDLUK
_chemical_formula_moiety         '(C144 H120 N24 O40 Zn5)n'
_symmetry_cell_setting           triclinic
_symmetry_space_group_name_H-M   'P 1'
_symmetry_Int_Tables_number      1
_space_group_name_Hall           'P 1'
loop_
_symmetry_equiv_pos_site_id
_symmetry_equiv_pos_as_xyz
1 x,y,z
_cell_length_a                   14.747(3)
_cell_length_b                   25.414(5)
_cell_length_c                   11.387(2)
_cell_angle_alpha                90
_cell_angle_beta                 100.65(3)
_cell_angle_gamma                90
_cell_volume                     4194.11
loop_
_atom_site_label
_atom_site_type_symbol
_atom_site_fract_x
_atom_site_fract_y
_atom_site_fract_z
Zn3 Zn 0.05059(2) 0.215809(14) 0.40423(3)
C8 C 0.7982(2) 0.12631(13) 0.3164(3)
C9 C 0.7974(3) 0.10502(15) 0.4284(3)
H5 H 0.8453 0.1122 0.4917
C10 C 0.7248(3) 0.07295(16) 0.4460(4)
H6 H 0.7239 0.0586 0.5209
C11 C 0.6543(3) 0.06251(14) 0.3517(4)
C12 C 0.6534(3) 0.08385(17) 0.2402(4)
H7 H 0.6047 0.0771 0.1775
C13 C 0.7262(3) 0.11556(17) 0.2233(4)
H8 H 0.7267 0.1298 0.1483
C14 C 0.8765(2) 0.16105(12) 0.2961(3)
O3 O 0.57735(19) 0.03342(11) 0.3678(3)
O4 O 0.93896(18) 0.17033(10) 0.3847(2)
O5 O 0.8726(2) 0.17877(13) 0.1933(3)
Zn4 Zn 0.94941(2) 0.215809(14) 0.09577(3)
Zn1 Zn 0.55059(2) 0.715809(14) 0.40423(3)
C1 C 0.5771(2) 0.87080(13) 0.3979(3)
C2 C 0.4989(2) 0.90112(14) 0.4015(3)
H1 H 0.4438 0.8848 0.4088
C3 C 0.5029(2) 0.95443(14) 0.3943(4)
H2 H 0.4507 0.9744 0.3980
C4 C 0.5843(3) 0.97922(14) 0.3814(4)
C5 C 0.6634(3) 0.95026(15) 0.3794(4)
H3 H 0.7181 0.9670 0.3722
C6 C 0.6598(3) 0.89623(15) 0.3881(4)
H4 H 0.7128 0.8764 0.3876
C7 C 0.5740(3) 0.81241(15) 0.4027(3)
C15 C 0.6716(2) 0.71972(14) 0.6472(3)
H9 H 0.7038 0.7487 0.6261
C16 C 0.5800(3) 0.65630(19) 0.6458(4)
H10 H 0.5331 0.6322 0.6197
C17 C 0.7573(3) 0.70996(17) 0.8583(4)
H11 H 0.8079 0.7288 0.8339
H12 H 0.7818 0.6780 0.8989
C18 C 0.7151(3) 0.74391(16) 0.9439(3)
H13 H 0.6627 0.7257 0.9654
H14 H 0.6931 0.7765 0.9045
N1 N 0.6019(2) 0.69598(12) 0.5760(3)
N2 N 0.6305(3) 0.65496(16) 0.7526(3)
H15 H 0.6277 0.6332 0.8096
N3 N 0.6884(2) 0.69611(13) 0.7518(3)
O1 O 0.6465(2) 0.78603(10) 0.4154(4)
O2 O 0.4960(2) 0.78932(10) 0.3917(3)
Zn6 Zn 0.44941(2) 0.715809(14) 0.09577(3)
C19 C 0.0771(2) 0.37080(13) 0.3979(3)
C21 C 0.0029(2) 0.45443(14) 0.3943(4)
C22 C 0.0843(3) 0.47922(14) 0.3814(4)
C23 C 0.1634(3) 0.45026(15) 0.3794(4)
H18 H 0.2181 0.4670 0.3722
C24 C 0.1598(3) 0.39623(15) 0.3881(4)
H19 H 0.2128 0.3764 0.3876
C25 C 0.0740(3) 0.31241(15) 0.4027(3)
C26 C 0.2982(2) 0.62631(13) 0.3164(3)
C27 C 0.2974(3) 0.60502(15) 0.4284(3)
H20 H 0.3453 0.6122 0.4917
C28 C 0.2248(3) 0.57295(16) 0.4460(4)
H21 H 0.2239 0.5586 0.5209
C29 C 0.1543(3) 0.56251(14) 0.3517(4)
C30 C 0.1534(3) 0.58385(17) 0.2402(4)
H22 H 0.1047 0.5771 0.1775
C31 C 0.2262(3) 0.61556(17) 0.2233(4)
H23 H 0.2267 0.6298 0.1483
C32 C 0.3765(2) 0.66105(12) 0.2961(3)
O6 O 0.1465(2) 0.28603(10) 0.4154(4)
O10 O 0.07735(19) 0.53342(11) 0.3678(3)
O11 O 0.43896(18) 0.67033(10) 0.3847(2)
O13 O 0.3726(2) 0.67877(13) 0.1933(3)
O14 O 0.6274(2) 0.67877(13) 0.3067(3)
C20 C 0.9989(2) 0.40112(14) 0.4015(3)
H16 H 0.9438 0.3848 0.4088
H17 H 0.9507 0.4744 0.3980
O8 O 0.9960(2) 0.28932(10) 0.3917(3)
C15_2 C 0.1716(2) 0.21972(14) 0.6472(3)
H9_2 H 0.2038 0.2487 0.6261
C16_2 C 0.0800(3) 0.15630(19) 0.6458(4)
H10_2 H 0.0331 0.1322 0.6197
C17_2 C 0.2573(3) 0.20996(17) 0.8583(4)
H11_2 H 0.3079 0.2288 0.8339
H12_2 H 0.2818 0.1780 0.8989
C18_2 C 0.2151(3) 0.24391(16) 0.9439(3)
H13_2 H 0.1627 0.2257 0.9654
H14_2 H 0.1931 0.2765 0.9045
N1_2 N 0.1019(2) 0.19598(12) 0.5760(3)
N2_2 N 0.1305(3) 0.15496(16) 0.7526(3)
H15_2 H 0.1277 0.1332 0.8096
N3_2 N 0.1884(2) 0.19611(13) 0.7518(3)
O14_2 O 0.1274(2) 0.17877(13) 0.3067(3)
C20_2 C 0.0011(2) 0.40112(14) 0.0985(3)
H16_2 H 0.0562 0.3848 0.0912
H17_2 H 0.0493 0.4744 0.1020
O8_2 O 0.0040(2) 0.28932(10) 0.1083(3)
C8_2 C 0.2018(2) 0.12631(13) 0.1836(3)
C9_2 C 0.2026(3) 0.10502(15) 0.0716(3)
H5_2 H 0.1547 0.1122 0.0083
C10_2 C 0.2752(3) 0.07295(16) 0.0540(4)
C11_2 C 0.3457(3) 0.06251(14) 0.1483(4)
C12_2 C 0.3466(3) 0.08385(17) 0.2598(4)
H7_2 H 0.3953 0.0771 0.3225
C13_2 C 0.2738(3) 0.11556(17) 0.2767(4)
H8_2 H 0.2733 0.1298 0.3517
C14_2 C 0.1235(2) 0.16105(12) 0.2039(3)
O3_2 O 0.42265(19) 0.03342(11) 0.1322(3)
O4_2 O 0.06104(18) 0.17033(10) 0.1153(2)
C1_2 C 0.4229(2) 0.87080(13) 0.1021(3)
C2_2 C 0.5011(2) 0.90112(14) 0.0985(3)
H1_2 H 0.5562 0.8848 0.0912
C3_2 C 0.4971(2) 0.95443(14) 0.1057(4)
H2_2 H 0.5493 0.9744 0.1020
C4_2 C 0.4157(3) 0.97922(14) 0.1186(4)
C5_2 C 0.3366(3) 0.95026(15) 0.1206(4)
H3_2 H 0.2819 0.9670 0.1278
C6_2 C 0.3402(3) 0.89623(15) 0.1119(4)
H4_2 H 0.2872 0.8764 0.1124
C7_2 C 0.4260(3) 0.81241(15) 0.0973(3)
O1_2 O 0.3535(2) 0.78603(10) 0.0846(4)
O2_2 O 0.5040(2) 0.78932(10) 0.1083(3)
C19_2 C 0.9229(2) 0.37080(13) 0.1021(3)
C21_2 C 0.9971(2) 0.45443(14) 0.1057(4)
C22_2 C 0.9157(3) 0.47922(14) 0.1186(4)
C23_2 C 0.8366(3) 0.45026(15) 0.1206(4)
H18_2 H 0.7819 0.4670 0.1278
C24_2 C 0.8402(3) 0.39623(15) 0.1119(4)
H19_2 H 0.7872 0.3764 0.1124
C25_2 C 0.9260(3) 0.31241(15) 0.0973(3)
C26_2 C 0.7018(2) 0.62631(13) 0.1836(3)
C27_2 C 0.7026(3) 0.60502(15) 0.0716(3)
H20_2 H 0.6547 0.6122 0.0083
C28_2 C 0.7752(3) 0.57295(16) 0.0540(4)
C29_2 C 0.8457(3) 0.56251(14) 0.1483(4)
C30_2 C 0.8466(3) 0.58385(17) 0.2598(4)
H22_2 H 0.8953 0.5771 0.3225
C31_2 C 0.7738(3) 0.61556(17) 0.2767(4)
H23_2 H 0.7733 0.6298 0.3517
C32_2 C 0.6235(2) 0.66105(12) 0.2039(3)
O6_2 O 0.8535(2) 0.28603(10) 0.0846(4)
O10_2 O 0.92265(19) 0.53342(11) 0.1322(3)
O11_2 O 0.56104(18) 0.67033(10) 0.1153(2)
O9 O 0.0040(2) 0.71068(10) 0.6083(3)
O12 O 0.06104(18) 0.82967(10) 0.6153(2)
Zn2 Zn 0.94941(2) 0.784191(14) 0.59577(3)
C33 C 0.8284(2) 0.78028(14) 0.3528(3)
H24 H 0.7962 0.7513 0.3739
C34 C 0.9200(3) 0.84370(19) 0.3542(4)
H25 H 0.9669 0.8678 0.3803
C35 C 0.7427(3) 0.79004(17) 0.1417(4)
H26 H 0.6921 0.7712 0.1661
H27 H 0.7182 0.8220 0.1011
C36 C 0.7849(3) 0.75609(16) 0.0561(3)
H28 H 0.8373 0.7743 0.0346
H29 H 0.8069 0.7235 0.0955
N4 N 0.8981(2) 0.80402(12) 0.4240(3)
N5 N 0.8695(3) 0.84504(16) 0.2474(3)
H30 H 0.8723 0.8668 0.1904
N6 N 0.8116(2) 0.80389(13) 0.2482(3)
O7 O 0.8535(2) 0.71397(10) 0.5846(4)
O15 O 0.8726(2) 0.82123(13) 0.6933(3)
Zn2_2 Zn 0.44941(2) 0.284191(14) 0.59577(3)
C33_2 C 0.3284(2) 0.28028(14) 0.3528(3)
H24_2 H 0.2962 0.2513 0.3739
C34_2 C 0.4200(3) 0.34370(19) 0.3542(4)
H25_2 H 0.4669 0.3678 0.3803
C35_2 C 0.2427(3) 0.29004(17) 0.1417(4)
H26_2 H 0.1921 0.2712 0.1661
H27_2 H 0.2182 0.3220 0.1011
C36_2 C 0.2849(3) 0.25609(16) 0.0561(3)
H28_2 H 0.3373 0.2743 0.0346
H29_2 H 0.3069 0.2235 0.0955
N4_2 N 0.3981(2) 0.30402(12) 0.4240(3)
N5_2 N 0.3695(3) 0.34504(16) 0.2474(3)
H30_2 H 0.3723 0.3668 0.1904
N6_2 N 0.3116(2) 0.30389(13) 0.2482(3)
O7_2 O 0.3535(2) 0.21397(10) 0.5846(4)
O9_2 O 0.5040(2) 0.21068(10) 0.6083(3)
O12_2 O 0.56104(18) 0.32967(10) 0.6153(2)
O15_2 O 0.3726(2) 0.32123(13) 0.6933(3)
Zn2_3 Zn 0.05059(2) 0.784191(14) 0.90423(3)
O7_3 O 0.1465(2) 0.71397(10) 0.9154(4)
O15_3 O 0.1274(2) 0.82123(13) 0.8067(3)
O9_3 O 0.9960(2) 0.71068(10) 0.8917(3)
O12_3 O 0.93896(18) 0.82967(10) 0.8847(2)
Zn2_4 Zn 0.55059(2) 0.284191(14) 0.90423(3)
O7_4 O 0.6465(2) 0.21397(10) 0.9154(4)
O9_4 O 0.4960(2) 0.21068(10) 0.8917(3)
O12_4 O 0.43896(18) 0.32967(10) 0.8847(2)
O15_4 O 0.6274(2) 0.32123(13) 0.8067(3)
C20_3 C 0.0011(2) 0.59888(14) 0.5985(3)
H16_3 H 0.0562 0.6152 0.5912
H17_3 H 0.0493 0.5256 0.6020
C1_3 C 0.4229(2) 0.12920(13) 0.6021(3)
C2_3 C 0.5011(2) 0.09888(14) 0.5985(3)
H1_3 H 0.5562 0.1152 0.5912
C3_3 C 0.4971(2) 0.04557(14) 0.6057(4)
H2_3 H 0.5493 0.0256 0.6020
C4_3 C 0.4157(3) 0.02078(14) 0.6186(4)
C5_3 C 0.3366(3) 0.04974(15) 0.6206(4)
H3_3 H 0.2819 0.0330 0.6278
C6_3 C 0.3402(3) 0.10377(15) 0.6119(4)
H4_3 H 0.2872 0.1236 0.6124
C7_3 C 0.4260(3) 0.18759(15) 0.5973(3)
C19_3 C 0.9229(2) 0.62920(13) 0.6021(3)
C21_3 C 0.9971(2) 0.54557(14) 0.6057(4)
C22_3 C 0.9157(3) 0.52078(14) 0.6186(4)
C23_3 C 0.8366(3) 0.54974(15) 0.6206(4)
H18_3 H 0.7819 0.5330 0.6278
C24_3 C 0.8402(3) 0.60377(15) 0.6119(4)
H19_3 H 0.7872 0.6236 0.6124
C25_3 C 0.9260(3) 0.68759(15) 0.5973(3)
C26_3 C 0.7018(2) 0.37369(13) 0.6836(3)
C27_3 C 0.7026(3) 0.39498(15) 0.5716(3)
H20_3 H 0.6547 0.3878 0.5083
C28_3 C 0.7752(3) 0.42705(16) 0.5540(4)
H21_2 H 0.7761 0.4414 0.4791
C29_3 C 0.8457(3) 0.43749(14) 0.6483(4)
C30_3 C 0.8466(3) 0.41615(17) 0.7598(4)
H22_3 H 0.8953 0.4229 0.8225
C31_3 C 0.7738(3) 0.38444(17) 0.7767(4)
H23_3 H 0.7733 0.3702 0.8517
C32_3 C 0.6235(2) 0.33895(12) 0.7039(3)
O10_3 O 0.92265(19) 0.46658(11) 0.6322(3)
C8_3 C 0.2018(2) 0.87369(13) 0.6836(3)
C9_3 C 0.2026(3) 0.89498(15) 0.5716(3)
H5_3 H 0.1547 0.8878 0.5083
C10_3 C 0.2752(3) 0.92705(16) 0.5540(4)
H6_2 H 0.2761 0.9414 0.4791
C11_3 C 0.3457(3) 0.93749(14) 0.6483(4)
C12_3 C 0.3466(3) 0.91615(17) 0.7598(4)
H7_3 H 0.3953 0.9229 0.8225
C13_3 C 0.2738(3) 0.88444(17) 0.7767(4)
H8_3 H 0.2733 0.8702 0.8517
C14_3 C 0.1235(2) 0.83895(12) 0.7039(3)
O3_3 O 0.42265(19) 0.96658(11) 0.6322(3)
C1_4 C 0.5771(2) 0.12920(13) 0.8979(3)
C2_4 C 0.4989(2) 0.09888(14) 0.9015(3)
H1_4 H 0.4438 0.1152 0.9088
C3_4 C 0.5029(2) 0.04557(14) 0.8943(4)
H2_4 H 0.4507 0.0256 0.8980
C4_4 C 0.5843(3) 0.02078(14) 0.8814(4)
C5_4 C 0.6634(3) 0.04974(15) 0.8794(4)
H3_4 H 0.7181 0.0330 0.8722
C6_4 C 0.6598(3) 0.10377(15) 0.8881(4)
H4_4 H 0.7128 0.1236 0.8876
C7_4 C 0.5740(3) 0.18759(15) 0.9027(3)
C19_4 C 0.0771(2) 0.62920(13) 0.8979(3)
C21_4 C 0.0029(2) 0.54557(14) 0.8943(4)
C22_4 C 0.0843(3) 0.52078(14) 0.8814(4)
C23_4 C 0.1634(3) 0.54974(15) 0.8794(4)
H18_4 H 0.2181 0.5330 0.8722
C24_4 C 0.1598(3) 0.60377(15) 0.8881(4)
H19_4 H 0.2128 0.6236 0.8876
C25_4 C 0.0740(3) 0.68759(15) 0.9027(3)
C26_4 C 0.2982(2) 0.37369(13) 0.8164(3)
C27_4 C 0.2974(3) 0.39498(15) 0.9284(3)
H20_4 H 0.3453 0.3878 0.9917
C28_4 C 0.2248(3) 0.42705(16) 0.9460(4)
C29_4 C 0.1543(3) 0.43749(14) 0.8517(4)
C30_4 C 0.1534(3) 0.41615(17) 0.7402(4)
H22_4 H 0.1047 0.4229 0.6775
C31_4 C 0.2262(3) 0.38444(17) 0.7233(4)
H23_4 H 0.2267 0.3702 0.6483
C32_4 C 0.3765(2) 0.33895(12) 0.7961(3)
O10_4 O 0.07735(19) 0.46658(11) 0.8678(3)
C8_4 C 0.7982(2) 0.87369(13) 0.8164(3)
C9_4 C 0.7974(3) 0.89498(15) 0.9284(3)
H5_4 H 0.8453 0.8878 0.9917
C10_4 C 0.7248(3) 0.92705(16) 0.9460(4)
C11_4 C 0.6543(3) 0.93749(14) 0.8517(4)
C12_4 C 0.6534(3) 0.91615(17) 0.7402(4)
H7_4 H 0.6047 0.9229 0.6775
C13_4 C 0.7262(3) 0.88444(17) 0.7233(4)
H8_4 H 0.7267 0.8702 0.6483
C14_4 C 0.8765(2) 0.83895(12) 0.7961(3)
O3_4 O 0.57735(19) 0.96658(11) 0.8678(3)
C20_4 C 0.9989(2) 0.59888(14) 0.9015(3)
H16_4 H 0.9438 0.6152 0.9088
H17_4 H 0.9507 0.5256 0.8980
H6_3 H 0.2761 0.0586 0.9791
C15_3 C 0.3284(2) 0.71972(14) 0.8528(3)
H9_3 H 0.2962 0.7487 0.8739
C16_3 C 0.4200(3) 0.65630(19) 0.8542(4)
H10_3 H 0.4669 0.6322 0.8803
C17_3 C 0.2427(3) 0.70996(17) 0.6417(4)
H11_3 H 0.1921 0.7288 0.6661
H12_3 H 0.2182 0.6780 0.6011
C18_3 C 0.2849(3) 0.74391(16) 0.5561(3)
H13_3 H 0.3373 0.7257 0.5346
H14_3 H 0.3069 0.7765 0.5955
N1_3 N 0.3981(2) 0.69598(12) 0.9240(3)
N2_3 N 0.3695(3) 0.65496(16) 0.7474(3)
H15_3 H 0.3723 0.6332 0.6904
N3_3 N 0.3116(2) 0.69611(13) 0.7482(3)
H21_3 H 0.7761 0.5586 0.9791
C33_3 C 0.1716(2) 0.78028(14) 0.1472(3)
H24_3 H 0.2038 0.7513 0.1261
C34_3 C 0.0800(3) 0.84370(19) 0.1458(4)
H25_3 H 0.0331 0.8678 0.1197
C35_3 C 0.2573(3) 0.79004(17) 0.3583(4)
H26_3 H 0.3079 0.7712 0.3339
H27_3 H 0.2818 0.8220 0.3989
C36_3 C 0.2151(3) 0.75609(16) 0.4439(3)
H28_3 H 0.1627 0.7743 0.4654
H29_3 H 0.1931 0.7235 0.4045
N4_3 N 0.1019(2) 0.80402(12) 0.0760(3)
N5_3 N 0.1305(3) 0.84504(16) 0.2526(3)
H30_3 H 0.1277 0.8668 0.3096
N6_3 N 0.1884(2) 0.80389(13) 0.2518(3)
C15_4 C 0.8284(2) 0.21972(14) 0.8528(3)
H9_4 H 0.7962 0.2487 0.8739
C16_4 C 0.9200(3) 0.15630(19) 0.8542(4)
H10_4 H 0.9669 0.1322 0.8803
C17_4 C 0.7427(3) 0.20996(17) 0.6417(4)
H11_4 H 0.6921 0.2288 0.6661
H12_4 H 0.7182 0.1780 0.6011
C18_4 C 0.7849(3) 0.24391(16) 0.5561(3)
H13_4 H 0.8373 0.2257 0.5346
H14_4 H 0.8069 0.2765 0.5955
N1_4 N 0.8981(2) 0.19598(12) 0.9240(3)
N2_4 N 0.8695(3) 0.15496(16) 0.7474(3)
H15_4 H 0.8723 0.1332 0.6904
N3_4 N 0.8116(2) 0.19611(13) 0.7482(3)
C33_4 C 0.6716(2) 0.28028(14) 0.1472(3)
H24_4 H 0.7038 0.2513 0.1261
C34_4 C 0.5800(3) 0.34370(19) 0.1458(4)
H25_4 H 0.5331 0.3678 0.1197
C35_4 C 0.7573(3) 0.29004(17) 0.3583(4)
H26_4 H 0.8079 0.2712 0.3339
H27_4 H 0.7818 0.3220 0.3989
C36_4 C 0.7151(3) 0.25609(16) 0.4439(3)
H28_4 H 0.6627 0.2743 0.4654
H29_4 H 0.6931 0.2235 0.4045
N4_4 N 0.6019(2) 0.30402(12) 0.0760(3)
N5_4 N 0.6305(3) 0.34504(16) 0.2526(3)
H30_4 H 0.6277 0.3668 0.3096
N6_4 N 0.6884(2) 0.30389(13) 0.2518(3)
H21_4 H 0.2239 0.4414 0.0209
H6_4 H 0.7239 0.9414 0.0209
loop_
_geom_bond_atom_site_label_1
_geom_bond_atom_site_label_2
_geom_bond_site_symmetry_1
_geom_bond_site_symmetry_2
C8 C9 1_555 1_555
C9 H5 1_555 1_555
C10 C9 1_555 1_555
H6 C10 1_555 1_555
C11 C10 1_555 1_555
C12 C11 1_555 1_555
H7 C12 1_555 1_555
C13 C8 1_555 1_555
H8 C13 1_555 1_555
C14 C8 1_555 1_555
O4 C14 1_555 1_555
O5 C14 1_555 1_555
Zn4 O5 1_555 1_555
C11 O3 1_555 1_555
C12 C13 1_555 1_555
Zn1 N1 1_555 1_555
C1 C2 1_555 1_555
C2 H1 1_555 1_555
C3 C2 1_555 1_555
H2 C3 1_555 1_555
C4 C3 1_555 1_555
C5 C4 1_555 1_555
H3 C5 1_555 1_555
C6 C1 1_555 1_555
H4 C6 1_555 1_555
C7 C1 1_555 1_555
C15 H9 1_555 1_555
C16 H10 1_555 1_555
C17 H11 1_555 1_555
H12 C17 1_555 1_555
C18 C17 1_555 1_555
H13 C18 1_555 1_555
H14 C18 1_555 1_555
N1 C15 1_555 1_555
N2 C16 1_555 1_555
H15 N2 1_555 1_555
N3 C15 1_555 1_555
O1 Zn1 1_555 1_555
O2 Zn1 1_555 1_555
Zn3 O6 1_555 1_555
Zn6 O13 1_555 1_555
C22 C21 1_555 1_555
C23 C22 1_555 1_555
H18 C23 1_555 1_555
C24 C19 1_555 1_555
H19 C24 1_555 1_555
C25 C19 1_555 1_555
C26 C27 1_555 1_555
C27 H20 1_555 1_555
C28 C27 1_555 1_555
H21 C28 1_555 1_555
C29 C28 1_555 1_555
C30 C29 1_555 1_555
H22 C30 1_555 1_555
C31 C26 1_555 1_555
H23 C31 1_555 1_555
C32 C26 1_555 1_555
O6 C25 1_555 1_555
O10 C22 1_555 1_555
O11 Zn1 1_555 1_555
O13 C32 1_555 1_555
O14 Zn1 1_555 1_555
C5 C6 1_555 1_555
C7 O1 1_555 1_555
C7 O2 1_555 1_555
C16 N1 1_555 1_555
C17 N3 1_555 1_555
N2 N3 1_555 1_555
C23 C24 1_555 1_555
C29 O10 1_555 1_555
C30 C31 1_555 1_555
C32 O11 1_555 1_555
C20 H16 1_555 1_555
Zn3 N1_2 1_555 1_555
C15_2 H9_2 1_555 1_555
C16_2 H10_2 1_555 1_555
C17_2 H11_2 1_555 1_555
H12_2 C17_2 1_555 1_555
C18_2 C17_2 1_555 1_555
H13_2 C18_2 1_555 1_555
H14_2 C18_2 1_555 1_555
N1_2 C15_2 1_555 1_555
N2_2 C16_2 1_555 1_555
H15_2 N2_2 1_555 1_555
N3_2 C15_2 1_555 1_555
O14_2 Zn3 1_555 1_555
C16_2 N1_2 1_555 1_555
C17_2 N3_2 1_555 1_555
N2_2 N3_2 1_555 1_555
C20_2 H16_2 1_555 1_555
C8_2 C9_2 1_555 1_555
C9_2 H5_2 1_555 1_555
C10_2 C9_2 1_555 1_555
C11_2 C10_2 1_555 1_555
C12_2 C11_2 1_555 1_555
H7_2 C12_2 1_555 1_555
C13_2 C8_2 1_555 1_555
H8_2 C13_2 1_555 1_555
C14_2 C8_2 1_555 1_555
O4_2 C14_2 1_555 1_555
O14_2 C14_2 1_555 1_555
C11_2 O3_2 1_555 1_555
C12_2 C13_2 1_555 1_555
C1_2 C2_2 1_555 1_555
C2_2 H1_2 1_555 1_555
C3_2 C2_2 1_555 1_555
H2_2 C3_2 1_555 1_555
C4_2 C3_2 1_555 1_555
C5_2 C4_2 1_555 1_555
H3_2 C5_2 1_555 1_555
C6_2 C1_2 1_555 1_555
H4_2 C6_2 1_555 1_555
C7_2 C1_2 1_555 1_555
O1_2 Zn6 1_555 1_555
O2_2 Zn6 1_555 1_555
Zn4 O6_2 1_555 1_555
C22_2 C21_2 1_555 1_555
C23_2 C22_2 1_555 1_555
H18_2 C23_2 1_555 1_555
C24_2 C19_2 1_555 1_555
H19_2 C24_2 1_555 1_555
C25_2 C19_2 1_555 1_555
C26_2 C27_2 1_555 1_555
C27_2 H20_2 1_555 1_555
C28_2 C27_2 1_555 1_555
C29_2 C28_2 1_555 1_555
C30_2 C29_2 1_555 1_555
H22_2 C30_2 1_555 1_555
C31_2 C26_2 1_555 1_555
H23_2 C31_2 1_555 1_555
C32_2 C26_2 1_555 1_555
O6_2 C25_2 1_555 1_555
O10_2 C22_2 1_555 1_555
O11_2 Zn6 1_555 1_555
O14 C32_2 1_555 1_555
C5_2 C6_2 1_555 1_555
C7_2 O1_2 1_555 1_555
C7_2 O2_2 1_555 1_555
C23_2 C24_2 1_555 1_555
C29_2 O10_2 1_555 1_555
C30_2 C31_2 1_555 1_555
C32_2 O11_2 1_555 1_555
Zn2 N4 1_555 1_555
C33 H24 1_555 1_555
C34 H25 1_555 1_555
C35 H26 1_555 1_555
H27 C35 1_555 1_555
H28 C36 1_555 1_555
H29 C36 1_555 1_555
N4 C33 1_555 1_555
N5 C34 1_555 1_555
H30 N5 1_555 1_555
N6 C33 1_555 1_555
O7 Zn2 1_555 1_555
O15 Zn2 1_555 1_555
C34 N4 1_555 1_555
C35 C36 1_555 1_555
C35 N6 1_555 1_555
N5 N6 1_555 1_555
Zn2_2 N4_2 1_555 1_555
C33_2 H24_2 1_555 1_555
C34_2 H25_2 1_555 1_555
C35_2 H26_2 1_555 1_555
H27_2 C35_2 1_555 1_555
H28_2 C36_2 1_555 1_555
H29_2 C36_2 1_555 1_555
N4_2 C33_2 1_555 1_555
N5_2 C34_2 1_555 1_555
H30_2 N5_2 1_555 1_555
N6_2 C33_2 1_555 1_555
O7_2 Zn2_2 1_555 1_555
O9_2 Zn2_2 1_555 1_555
O12_2 Zn2_2 1_555 1_555
O15_2 Zn2_2 1_555 1_555
C34_2 N4_2 1_555 1_555
C35_2 C36_2 1_555 1_555
C35_2 N6_2 1_555 1_555
N5_2 N6_2 1_555 1_555
O7_3 Zn2_3 1_555 1_555
O15_3 Zn2_3 1_555 1_555
O7_4 Zn2_4 1_555 1_555
O9_4 Zn2_4 1_555 1_555
O12_4 Zn2_4 1_555 1_555
O15_4 Zn2_4 1_555 1_555
C20_3 H16_3 1_555 1_555
C1_3 C2_3 1_555 1_555
C2_3 H1_3 1_555 1_555
C3_3 C2_3 1_555 1_555
H2_3 C3_3 1_555 1_555
C4_3 C3_3 1_555 1_555
C5_3 C4_3 1_555 1_555
H3_3 C5_3 1_555 1_555
C6_3 C1_3 1_555 1_555
H4_3 C6_3 1_555 1_555
C7_3 C1_3 1_555 1_555
C22_3 C21_3 1_555 1_555
C23_3 C22_3 1_555 1_555
H18_3 C23_3 1_555 1_555
C24_3 C19_3 1_555 1_555
H19_3 C24_3 1_555 1_555
C25_3 C19_3 1_555 1_555
C26_3 C27_3 1_555 1_555
C27_3 H20_3 1_555 1_555
C28_3 C27_3 1_555 1_555
H21_2 C28_3 1_555 1_555
C29_3 C28_3 1_555 1_555
C30_3 C29_3 1_555 1_555
H22_3 C30_3 1_555 1_555
C31_3 C26_3 1_555 1_555
H23_3 C31_3 1_555 1_555
C32_3 C26_3 1_555 1_555
O7 C25_3 1_555 1_555
O10_3 C22_3 1_555 1_555
O15_4 C32_3 1_555 1_555
C5_3 C6_3 1_555 1_555
C7_3 O7_2 1_555 1_555
C7_3 O9_2 1_555 1_555
C23_3 C24_3 1_555 1_555
C29_3 O10_3 1_555 1_555
C30_3 C31_3 1_555 1_555
C32_3 O12_2 1_555 1_555
C8_3 C9_3 1_555 1_555
C9_3 H5_3 1_555 1_555
C10_3 C9_3 1_555 1_555
H6_2 C10_3 1_555 1_555
C11_3 C10_3 1_555 1_555
C12_3 C11_3 1_555 1_555
H7_3 C12_3 1_555 1_555
C13_3 C8_3 1_555 1_555
H8_3 C13_3 1_555 1_555
C14_3 C8_3 1_555 1_555
O12 C14_3 1_555 1_555
O15_3 C14_3 1_555 1_555
C11_3 O3_3 1_555 1_555
C12_3 C13_3 1_555 1_555
C1_4 C2_4 1_555 1_555
C2_4 H1_4 1_555 1_555
C3_4 C2_4 1_555 1_555
H2_4 C3_4 1_555 1_555
C4_4 C3_4 1_555 1_555
C5_4 C4_4 1_555 1_555
H3_4 C5_4 1_555 1_555
C6_4 C1_4 1_555 1_555
H4_4 C6_4 1_555 1_555
C7_4 C1_4 1_555 1_555
C22_4 C21_4 1_555 1_555
C23_4 C22_4 1_555 1_555
H18_4 C23_4 1_555 1_555
C24_4 C19_4 1_555 1_555
H19_4 C24_4 1_555 1_555
C25_4 C19_4 1_555 1_555
C26_4 C27_4 1_555 1_555
C27_4 H20_4 1_555 1_555
C28_4 C27_4 1_555 1_555
C29_4 C28_4 1_555 1_555
C30_4 C29_4 1_555 1_555
H22_4 C30_4 1_555 1_555
C31_4 C26_4 1_555 1_555
H23_4 C31_4 1_555 1_555
C32_4 C26_4 1_555 1_555
O7_3 C25_4 1_555 1_555
O10_4 C22_4 1_555 1_555
O15_2 C32_4 1_555 1_555
C5_4 C6_4 1_555 1_555
C7_4 O7_4 1_555 1_555
C7_4 O9_4 1_555 1_555
C23_4 C24_4 1_555 1_555
C29_4 O10_4 1_555 1_555
C30_4 C31_4 1_555 1_555
C32_4 O12_4 1_555 1_555
C8_4 C9_4 1_555 1_555
C9_4 H5_4 1_555 1_555
C10_4 C9_4 1_555 1_555
C11_4 C10_4 1_555 1_555
C12_4 C11_4 1_555 1_555
H7_4 C12_4 1_555 1_555
C13_4 C8_4 1_555 1_555
H8_4 C13_4 1_555 1_555
C14_4 C8_4 1_555 1_555
O12_3 C14_4 1_555 1_555
O15 C14_4 1_555 1_555
C11_4 O3_4 1_555 1_555
C12_4 C13_4 1_555 1_555
C20_4 H16_4 1_555 1_555
C15_3 H9_3 1_555 1_555
C16_3 H10_3 1_555 1_555
C17_3 H11_3 1_555 1_555
H12_3 C17_3 1_555 1_555
C18_3 C17_3 1_555 1_555
H13_3 C18_3 1_555 1_555
H14_3 C18_3 1_555 1_555
N1_3 C15_3 1_555 1_555
N2_3 C16_3 1_555 1_555
H15_3 N2_3 1_555 1_555
N3_3 C15_3 1_555 1_555
C33_3 H24_3 1_555 1_555
C34_3 H25_3 1_555 1_555
C35_3 H26_3 1_555 1_555
H27_3 C35_3 1_555 1_555
C36_3 C18_3 1_555 1_555
H28_3 C36_3 1_555 1_555
H29_3 C36_3 1_555 1_555
N4_3 C33_3 1_555 1_555
N5_3 C34_3 1_555 1_555
H30_3 N5_3 1_555 1_555
N6_3 C33_3 1_555 1_555
C16_3 N1_3 1_555 1_555
C17_3 N3_3 1_555 1_555
N2_3 N3_3 1_555 1_555
C34_3 N4_3 1_555 1_555
C35_3 C36_3 1_555 1_555
C35_3 N6_3 1_555 1_555
N5_3 N6_3 1_555 1_555
C15_4 H9_4 1_555 1_555
C16_4 H10_4 1_555 1_555
C17_4 H11_4 1_555 1_555
H12_4 C17_4 1_555 1_555
C18_4 C17_4 1_555 1_555
H13_4 C18_4 1_555 1_555
H14_4 C18_4 1_555 1_555
N1_4 C15_4 1_555 1_555
N2_4 C16_4 1_555 1_555
H15_4 N2_4 1_555 1_555
N3_4 C15_4 1_555 1_555
C33_4 H24_4 1_555 1_555
C34_4 H25_4 1_555 1_555
C35_4 H26_4 1_555 1_555
H27_4 C35_4 1_555 1_555
C36_4 C18_4 1_555 1_555
H28_4 C36_4 1_555 1_555
H29_4 C36_4 1_555 1_555
N4_4 C33_4 1_555 1_555
N5_4 C34_4 1_555 1_555
H30_4 N5_4 1_555 1_555
N6_4 C33_4 1_555 1_555
C16_4 N1_4 1_555 1_555
C17_4 N3_4 1_555 1_555
N2_4 N3_4 1_555 1_555
C34_4 N4_4 1_555 1_555
C35_4 C36_4 1_555 1_555
C35_4 N6_4 1_555 1_555
N5_4 N6_4 1_555 1_555

#END
