
###############################################################################
#
# This file contains modified crystal structure data generated from the
# MOF subset of the Cambridge Structural Database (CSD) v543 
# hosted by the Cambridge Crystallographic Data Centre (CCDC).
#
# This work is licensed under the Creative Commons
# Attribution-NonCommercial-ShareAlike 4.0 International License.
# To view a copy of this license, visit
# http://creativecommons.org/licenses/by-nc-sa/4.0/
# or send a letter to
# Creative Commons, PO Box 1866, Mountain View, CA 94042, USA.
#
# CIF created using the CSD Python API on 29 September 2022
# The structure has been converted into the P1 space group
# The structure has a 3D framework
# The original CSD entry TEFNIF is in the tetragonal crystal system
# The framework has been calculated to contain at least 10.0% void space
# The void calculation uses a probe of radius 1.32A, grid spacing 0.4
#
###############################################################################

data_TEFNIF
_chemical_formula_moiety         '(C264 H160 Co6 N64)n'
_symmetry_cell_setting           triclinic
_symmetry_space_group_name_H-M   'P 1'
_symmetry_Int_Tables_number      1
_space_group_name_Hall           'P 1'
loop_
_symmetry_equiv_pos_site_id
_symmetry_equiv_pos_as_xyz
1 x,y,z
_cell_length_a                   27.6797(5)
_cell_length_b                   27.6797(5)
_cell_length_c                   12.2240(2)
_cell_angle_alpha                90
_cell_angle_beta                 90
_cell_angle_gamma                90
_cell_volume                     9365.61
loop_
_atom_site_label
_atom_site_type_symbol
_atom_site_fract_x
_atom_site_fract_y
_atom_site_fract_z
Co1 Co 0.71935(3) 0.46935(3) 0.125000
N1 N 0.68709(13) 0.45057(14) 0.2627(3)
N2 N 0.71143(14) 0.45197(17) 0.3591(3)
C1 C 0.64088(17) 0.4439(2) 0.2859(4)
H1 H 0.616313 0.442218 0.234101
C2 C 0.67854(18) 0.4451(2) 0.4391(4)
H2 H 0.685823 0.444176 0.513377
C3 C 0.6340(2) 0.4397(3) 0.3978(5)
C4 C 0.5445(2) 0.4358(3) 0.4045(5)
H3 H 0.544114 0.435800 0.328428
C5 C 0.500000 0.4348(5) 0.4602(7)
C6 C 0.5883(2) 0.4366(4) 0.4568(5)
C7 C 0.5877(3) 0.4300(7) 0.5698(7)
H4 H 0.616657 0.425565 0.607183
C8 C 0.5452(3) 0.4299(10) 0.6262(7)
H5 H 0.545855 0.430445 0.702233
C9 C 0.500000 0.4290(10) 0.5711(10)
N3 N 0.31291(13) 0.45057(14) 0.2627(3)
N4 N 0.28857(14) 0.45197(17) 0.3591(3)
C10 C 0.35912(17) 0.4439(2) 0.2859(4)
H6 H 0.383687 0.442218 0.234101
C11 C 0.32146(18) 0.4451(2) 0.4391(4)
H7 H 0.314177 0.444176 0.513377
C12 C 0.3660(2) 0.4397(3) 0.3978(5)
C13 C 0.4555(2) 0.4358(3) 0.4045(5)
H8 H 0.455886 0.435800 0.328428
C14 C 0.4117(2) 0.4366(4) 0.4568(5)
C15 C 0.4123(3) 0.4300(7) 0.5698(7)
H9 H 0.383343 0.425565 0.607183
C16 C 0.4548(3) 0.4299(10) 0.6262(7)
H10 H 0.454145 0.430445 0.702233
Co2 Co 0.78065(3) 0.46935(3) 0.375000
Co3 Co 0.21935(3) 0.46935(3) 0.375000
Co4 Co 0.28065(3) 0.46935(3) 0.125000
N6 N 0.70197(17) 0.53857(14) 0.1091(3)
N7 N 0.78857(14) 0.45197(17) 0.1409(3)
N5 N 0.70057(14) 0.43709(13) 0.9873(3)
C5_2 C 0.000000 0.5652(5) 0.9602(7)
N3_2 N 0.18709(13) 0.54943(14) 0.7627(3)
N4_2 N 0.21143(14) 0.54803(17) 0.8591(3)
C10_2 C 0.14088(17) 0.5561(2) 0.7859(4)
H6_2 H 0.116313 0.557782 0.734101
C11_2 C 0.17854(18) 0.5549(2) 0.9391(4)
C12_2 C 0.1340(2) 0.5603(3) 0.8978(5)
C13_2 C 0.0445(2) 0.5642(3) 0.9045(5)
H8_2 H 0.044114 0.564200 0.828428
C14_2 C 0.0883(2) 0.5634(4) 0.9568(5)
Co3_2 Co 0.28065(3) 0.53065(3) 0.875000
Co4_2 Co 0.21935(3) 0.53065(3) 0.625000
Co1_2 Co 0.78065(3) 0.53065(3) 0.625000
N1_2 N 0.81291(13) 0.54943(14) 0.7627(3)
N2_2 N 0.78857(14) 0.54803(17) 0.8591(3)
C1_2 C 0.85912(17) 0.5561(2) 0.7859(4)
H1_2 H 0.883687 0.557782 0.734101
C2_2 C 0.82146(18) 0.5549(2) 0.9391(4)
C3_2 C 0.8660(2) 0.5603(3) 0.8978(5)
C4_2 C 0.9555(2) 0.5642(3) 0.9045(5)
H3_2 H 0.955886 0.564200 0.828428
C5_3 C 1.000000 0.5652(5) 0.9602(7)
C6_2 C 0.9117(2) 0.5634(4) 0.9568(5)
Co2_2 Co 0.71935(3) 0.53065(3) 0.875000
N5_2 N 0.79943(14) 0.56291(13) 0.4873(3)
N6_2 N 0.79803(17) 0.46143(14) 0.6091(3)
N7_2 N 0.71143(14) 0.54803(17) 0.6409(3)
N1_3 N 0.79943(14) 0.43709(13) 0.5127(3)
C1_3 C 0.8061(2) 0.39088(17) 0.5359(4)
H1_3 H 0.807782 0.366313 0.484101
C2_3 C 0.8049(2) 0.42854(18) 0.6891(4)
H2_2 H 0.805824 0.435823 0.763377
C3_3 C 0.8103(3) 0.3840(2) 0.6478(5)
C4_3 C 0.8142(3) 0.2945(2) 0.6545(5)
H3_3 H 0.814200 0.294114 0.578428
C5_4 C 0.8152(5) 0.250000 0.7102(7)
C6_3 C 0.8134(4) 0.3383(2) 0.7068(5)
C7_2 C 0.8200(7) 0.3377(3) 0.8198(7)
H4_2 H 0.824435 0.366657 0.857183
C8_2 C 0.8201(10) 0.2952(3) 0.8762(7)
H5_2 H 0.819555 0.295855 0.952233
C9_2 C 0.8210(10) 0.250000 0.8211(10)
N3_3 N 0.79943(14) 0.06291(13) 0.5127(3)
N4_3 N 0.79803(17) 0.03857(14) 0.6091(3)
C10_3 C 0.8061(2) 0.10912(17) 0.5359(4)
H6_3 H 0.807782 0.133687 0.484101
C11_3 C 0.8049(2) 0.07146(18) 0.6891(4)
H7_2 H 0.805824 0.064177 0.763377
C12_3 C 0.8103(3) 0.1160(2) 0.6478(5)
C13_3 C 0.8142(3) 0.2055(2) 0.6545(5)
H8_3 H 0.814200 0.205886 0.578428
C14_3 C 0.8134(4) 0.1617(2) 0.7068(5)
C15_2 C 0.8200(7) 0.1623(3) 0.8198(7)
H9_2 H 0.824435 0.133343 0.857183
C16_2 C 0.8201(10) 0.2048(3) 0.8762(7)
H10_2 H 0.819555 0.204145 0.952233
Co4_3 Co 0.78065(3) 0.03065(3) 0.375000
N5_3 N 0.81291(13) 0.45057(14) 0.2373(3)
N7_3 N 0.79803(17) 0.53857(14) 0.3909(3)
Co3_3 Co 0.78065(3) 0.96935(3) 0.625000
Co3_4 Co 0.71935(3) 0.03065(3) 0.125000
N1_4 N 0.70057(14) 0.56291(13) 0.0127(3)
C1_4 C 0.6939(2) 0.60912(17) 0.0359(4)
C2_4 C 0.6951(2) 0.57146(18) 0.1891(4)
H2_3 H 0.694176 0.564177 0.263377
C3_4 C 0.6897(3) 0.6160(2) 0.1478(5)
C4_4 C 0.6858(3) 0.7055(2) 0.1545(5)
H3_4 H 0.685800 0.705886 0.078428
C5_5 C 0.6848(5) 0.750000 0.2102(7)
C6_4 C 0.6866(4) 0.6617(2) 0.2068(5)
C7_3 C 0.6800(7) 0.6623(3) 0.3198(7)
H4_3 H 0.675565 0.633343 0.357183
C8_3 C 0.6799(10) 0.7048(3) 0.3762(7)
H5_3 H 0.680445 0.704145 0.452233
C9_3 C 0.6790(10) 0.750000 0.3211(10)
N3_4 N 0.70057(14) 0.93709(13) 0.0127(3)
N4_4 N 0.70197(17) 0.96143(14) 0.1091(3)
C10_4 C 0.6939(2) 0.89088(17) 0.0359(4)
C11_4 C 0.6951(2) 0.92854(18) 0.1891(4)
H7_3 H 0.694176 0.935823 0.263377
C12_4 C 0.6897(3) 0.8840(2) 0.1478(5)
C13_4 C 0.6858(3) 0.7945(2) 0.1545(5)
H8_4 H 0.685800 0.794114 0.078428
C14_4 C 0.6866(4) 0.8383(2) 0.2068(5)
C15_3 C 0.6800(7) 0.8377(3) 0.3198(7)
H9_3 H 0.675565 0.866657 0.357183
C16_3 C 0.6799(10) 0.7952(3) 0.3762(7)
H10_3 H 0.680445 0.795855 0.452233
H1_4 H 0.692218 0.633687 0.984101
H6_4 H 0.692218 0.866313 0.984101
Co4_4 Co 0.71935(3) 0.96935(3) 0.875000
N5_4 N 0.68709(13) 0.54943(14) 0.7373(3)
N7_4 N 0.70197(17) 0.46143(14) 0.8909(3)
C5_6 C 0.000000 0.4348(5) 0.0398(7)
N3_5 N 0.18709(13) 0.45057(14) 0.2373(3)
N4_5 N 0.21143(14) 0.45197(17) 0.1409(3)
C10_5 C 0.14088(17) 0.4439(2) 0.2141(4)
H6_5 H 0.116313 0.442218 0.265899
C11_5 C 0.17854(18) 0.4451(2) 0.0609(4)
C12_5 C 0.1340(2) 0.4397(3) 0.1022(5)
C13_5 C 0.0445(2) 0.4358(3) 0.0955(5)
H8_5 H 0.044114 0.435800 0.171572
C14_5 C 0.0883(2) 0.4366(4) 0.0432(5)
C1_5 C 0.85912(17) 0.4439(2) 0.2141(4)
H1_5 H 0.883687 0.442218 0.265899
C2_5 C 0.82146(18) 0.4451(2) 0.0609(4)
C3_5 C 0.8660(2) 0.4397(3) 0.1022(5)
C4_5 C 0.9555(2) 0.4358(3) 0.0955(5)
H3_5 H 0.955886 0.435800 0.171572
C5_7 C 1.000000 0.4348(5) 0.0398(7)
C6_5 C 0.9117(2) 0.4366(4) 0.0432(5)
C1_6 C 0.64088(17) 0.5561(2) 0.7141(4)
H1_6 H 0.616313 0.557782 0.765899
C2_6 C 0.67854(18) 0.5549(2) 0.5609(4)
H2_4 H 0.685823 0.555824 0.486623
C3_6 C 0.6340(2) 0.5603(3) 0.6022(5)
C4_6 C 0.5445(2) 0.5642(3) 0.5955(5)
H3_6 H 0.544114 0.564200 0.671572
C5_8 C 0.500000 0.5652(5) 0.5398(7)
C6_6 C 0.5883(2) 0.5634(4) 0.5432(5)
C7_4 C 0.5877(3) 0.5700(7) 0.4302(7)
H4_4 H 0.616657 0.574435 0.392817
C8_4 C 0.5452(3) 0.5701(10) 0.3738(7)
H5_4 H 0.545855 0.569555 0.297767
C9_4 C 0.500000 0.5710(10) 0.4289(10)
N3_6 N 0.31291(13) 0.54943(14) 0.7373(3)
N4_6 N 0.28857(14) 0.54803(17) 0.6409(3)
C10_6 C 0.35912(17) 0.5561(2) 0.7141(4)
H6_6 H 0.383687 0.557782 0.765899
C11_6 C 0.32146(18) 0.5549(2) 0.5609(4)
H7_4 H 0.314177 0.555824 0.486623
C12_6 C 0.3660(2) 0.5603(3) 0.6022(5)
C13_6 C 0.4555(2) 0.5642(3) 0.5955(5)
H8_6 H 0.455886 0.564200 0.671572
C14_6 C 0.4117(2) 0.5634(4) 0.5432(5)
C15_4 C 0.4123(3) 0.5700(7) 0.4302(7)
H9_4 H 0.383343 0.574435 0.392817
C16_4 C 0.4548(3) 0.5701(10) 0.3738(7)
H10_4 H 0.454145 0.569555 0.297767
H1_7 H 0.692218 0.366313 0.015899
H6_7 H 0.692218 0.133687 0.015899
C1_7 C 0.6939(2) 0.39088(17) 0.9641(4)
C2_7 C 0.6951(2) 0.42854(18) 0.8109(4)
H2_5 H 0.694176 0.435823 0.736623
C3_7 C 0.6897(3) 0.3840(2) 0.8522(5)
C4_7 C 0.6858(3) 0.2945(2) 0.8455(5)
H3_7 H 0.685800 0.294114 0.921572
C5_9 C 0.6848(5) 0.250000 0.7898(7)
C6_7 C 0.6866(4) 0.3383(2) 0.7932(5)
C7_5 C 0.6800(7) 0.3377(3) 0.6802(7)
H4_5 H 0.675565 0.366657 0.642817
C8_5 C 0.6799(10) 0.2952(3) 0.6238(7)
H5_5 H 0.680445 0.295855 0.547767
C9_5 C 0.6790(10) 0.250000 0.6789(10)
N3_7 N 0.70057(14) 0.06291(13) 0.9873(3)
N4_7 N 0.70197(17) 0.03857(14) 0.8909(3)
C10_7 C 0.6939(2) 0.10912(17) 0.9641(4)
C11_7 C 0.6951(2) 0.07146(18) 0.8109(4)
H7_5 H 0.694176 0.064177 0.736623
C12_7 C 0.6897(3) 0.1160(2) 0.8522(5)
C13_7 C 0.6858(3) 0.2055(2) 0.8455(5)
H8_7 H 0.685800 0.205886 0.921572
C14_7 C 0.6866(4) 0.1617(2) 0.7932(5)
C15_5 C 0.6800(7) 0.1623(3) 0.6802(7)
H9_5 H 0.675565 0.133343 0.642817
C16_5 C 0.6799(10) 0.2048(3) 0.6238(7)
H10_5 H 0.680445 0.204145 0.547767
C1_8 C 0.8061(2) 0.60912(17) 0.4641(4)
H1_8 H 0.807782 0.633687 0.515899
C2_8 C 0.8049(2) 0.57146(18) 0.3109(4)
H2_6 H 0.805824 0.564177 0.236623
C3_8 C 0.8103(3) 0.6160(2) 0.3522(5)
C4_8 C 0.8142(3) 0.7055(2) 0.3455(5)
H3_8 H 0.814200 0.705886 0.421572
C5_10 C 0.8152(5) 0.750000 0.2898(7)
C6_8 C 0.8134(4) 0.6617(2) 0.2932(5)
C7_6 C 0.8200(7) 0.6623(3) 0.1802(7)
H4_6 H 0.824435 0.633343 0.142817
C8_6 C 0.8201(10) 0.7048(3) 0.1238(7)
H5_6 H 0.819555 0.704145 0.047767
C9_6 C 0.8210(10) 0.750000 0.1789(10)
N3_8 N 0.79943(14) 0.93709(13) 0.4873(3)
N4_8 N 0.79803(17) 0.96143(14) 0.3909(3)
C10_8 C 0.8061(2) 0.89088(17) 0.4641(4)
H6_8 H 0.807782 0.866313 0.515899
C11_8 C 0.8049(2) 0.92854(18) 0.3109(4)
H7_6 H 0.805824 0.935823 0.236623
C12_8 C 0.8103(3) 0.8840(2) 0.3522(5)
C13_8 C 0.8142(3) 0.7945(2) 0.3455(5)
H8_8 H 0.814200 0.794114 0.421572
C14_8 C 0.8134(4) 0.8383(2) 0.2932(5)
C15_6 C 0.8200(7) 0.8377(3) 0.1802(7)
H9_6 H 0.824435 0.866657 0.142817
C16_6 C 0.8201(10) 0.7952(3) 0.1238(7)
H10_6 H 0.819555 0.795855 0.047767
N6_3 N 0.20197(17) 0.03857(14) 0.6091(3)
Co1_3 Co 0.21935(3) 0.96935(3) 0.625000
N1_5 N 0.18709(13) 0.95057(14) 0.7627(3)
N2_3 N 0.21143(14) 0.95197(17) 0.8591(3)
C1_9 C 0.14088(17) 0.9439(2) 0.7859(4)
H1_9 H 0.116313 0.942218 0.734101
C2_9 C 0.17854(18) 0.9451(2) 0.9391(4)
C3_9 C 0.1340(2) 0.9397(3) 0.8978(5)
C4_9 C 0.0445(2) 0.9358(3) 0.9045(5)
H3_9 H 0.044114 0.935800 0.828428
C5_11 C -0.000000 0.9348(5) 0.9602(7)
C6_9 C 0.0883(2) 0.9366(4) 0.9568(5)
Co2_3 Co 0.28065(3) 0.96935(3) 0.875000
N5_5 N 0.20057(14) 0.93709(13) 0.4873(3)
N7_5 N 0.28857(14) 0.95197(17) 0.6409(3)
C5_12 C 1.000000 0.9348(5) 0.9602(7)
N3_9 N 0.81291(13) 0.95057(14) 0.7627(3)
N4_9 N 0.78857(14) 0.95197(17) 0.8591(3)
C10_9 C 0.85912(17) 0.9439(2) 0.7859(4)
H6_9 H 0.883687 0.942218 0.734101
C11_9 C 0.82146(18) 0.9451(2) 0.9391(4)
C12_9 C 0.8660(2) 0.9397(3) 0.8978(5)
C13_9 C 0.9555(2) 0.9358(3) 0.9045(5)
H8_9 H 0.955886 0.935800 0.828428
C14_9 C 0.9117(2) 0.9366(4) 0.9568(5)
Co1_4 Co 0.28065(3) 0.03065(3) 0.125000
N1_6 N 0.31291(13) 0.04943(14) 0.2627(3)
N2_4 N 0.28857(14) 0.04803(17) 0.3591(3)
C1_10 C 0.35912(17) 0.0561(2) 0.2859(4)
H1_10 H 0.383687 0.057782 0.234101
C2_10 C 0.32146(18) 0.0549(2) 0.4391(4)
H2_7 H 0.314177 0.055824 0.513377
C3_10 C 0.3660(2) 0.0603(3) 0.3978(5)
C4_10 C 0.4555(2) 0.0642(3) 0.4045(5)
H3_10 H 0.455886 0.064200 0.328428
C5_13 C 0.500000 0.0652(5) 0.4602(7)
C6_10 C 0.4117(2) 0.0634(4) 0.4568(5)
C7_7 C 0.4123(3) 0.0700(7) 0.5698(7)
H4_7 H 0.383343 0.074435 0.607183
C8_7 C 0.4548(3) 0.0701(10) 0.6262(7)
H5_7 H 0.454145 0.069555 0.702233
C9_7 C 0.500000 0.0710(10) 0.5711(10)
N3_10 N 0.68709(13) 0.04943(14) 0.2627(3)
N4_10 N 0.71143(14) 0.04803(17) 0.3591(3)
C10_10 C 0.64088(17) 0.0561(2) 0.2859(4)
H6_10 H 0.616313 0.057782 0.234101
C11_10 C 0.67854(18) 0.0549(2) 0.4391(4)
H7_7 H 0.685823 0.055824 0.513377
C12_10 C 0.6340(2) 0.0603(3) 0.3978(5)
C13_10 C 0.5445(2) 0.0642(3) 0.4045(5)
H8_10 H 0.544114 0.064200 0.328428
C14_10 C 0.5883(2) 0.0634(4) 0.4568(5)
C15_7 C 0.5877(3) 0.0700(7) 0.5698(7)
H9_7 H 0.616657 0.074435 0.607183
C16_7 C 0.5452(3) 0.0701(10) 0.6262(7)
H10_7 H 0.545855 0.069555 0.702233
Co2_4 Co 0.21935(3) 0.03065(3) 0.375000
N7_6 N 0.21143(14) 0.04803(17) 0.1409(3)
N5_6 N 0.29943(14) 0.06291(13) 0.9873(3)
N6_4 N 0.29803(17) 0.96143(14) 0.1091(3)
N7_7 N 0.29803(17) 0.03857(14) 0.8909(3)
N1_7 N 0.29943(14) 0.93709(13) 0.0127(3)
C1_11 C 0.3061(2) 0.89088(17) 0.0359(4)
C2_11 C 0.3049(2) 0.92854(18) 0.1891(4)
H2_8 H 0.305824 0.935823 0.263377
C3_11 C 0.3103(3) 0.8840(2) 0.1478(5)
C4_11 C 0.3142(3) 0.7945(2) 0.1545(5)
H3_11 H 0.314200 0.794114 0.078428
C5_14 C 0.3152(5) 0.750000 0.2102(7)
C6_11 C 0.3134(4) 0.8383(2) 0.2068(5)
C7_8 C 0.3200(7) 0.8377(3) 0.3198(7)
H4_8 H 0.324435 0.866657 0.357183
C8_8 C 0.3201(10) 0.7952(3) 0.3762(7)
H5_8 H 0.319555 0.795855 0.452233
C9_8 C 0.3210(10) 0.750000 0.3211(10)
N3_11 N 0.29943(14) 0.56291(13) 0.0127(3)
N4_11 N 0.29803(17) 0.53857(14) 0.1091(3)
C10_11 C 0.3061(2) 0.60912(17) 0.0359(4)
C11_11 C 0.3049(2) 0.57146(18) 0.1891(4)
H7_8 H 0.305824 0.564177 0.263377
C12_11 C 0.3103(3) 0.6160(2) 0.1478(5)
C13_11 C 0.3142(3) 0.7055(2) 0.1545(5)
H8_11 H 0.314200 0.705886 0.078428
C14_11 C 0.3134(4) 0.6617(2) 0.2068(5)
C15_8 C 0.3200(7) 0.6623(3) 0.3198(7)
H9_8 H 0.324435 0.633343 0.357183
C16_8 C 0.3201(10) 0.7048(3) 0.3762(7)
H10_8 H 0.319555 0.704145 0.452233
H1_11 H 0.307782 0.866313 0.984101
H6_11 H 0.307782 0.633687 0.984101
N5_7 N 0.31291(13) 0.95057(14) 0.7373(3)
N1_8 N 0.20057(14) 0.06291(13) 0.5127(3)
C1_12 C 0.1939(2) 0.10912(17) 0.5359(4)
H1_12 H 0.192218 0.133687 0.484101
C2_12 C 0.1951(2) 0.07146(18) 0.6891(4)
H2_9 H 0.194176 0.064177 0.763377
C3_12 C 0.1897(3) 0.1160(2) 0.6478(5)
C4_12 C 0.1858(3) 0.2055(2) 0.6545(5)
H3_12 H 0.185800 0.205886 0.578428
C5_15 C 0.1848(5) 0.250000 0.7102(7)
C6_12 C 0.1866(4) 0.1617(2) 0.7068(5)
C7_9 C 0.1800(7) 0.1623(3) 0.8198(7)
H4_9 H 0.175565 0.133343 0.857183
C8_9 C 0.1799(10) 0.2048(3) 0.8762(7)
H5_9 H 0.180445 0.204145 0.952233
C9_9 C 0.1790(10) 0.250000 0.8211(10)
N3_12 N 0.20057(14) 0.43709(13) 0.5127(3)
N4_12 N 0.20197(17) 0.46143(14) 0.6091(3)
C10_12 C 0.1939(2) 0.39088(17) 0.5359(4)
H6_12 H 0.192218 0.366313 0.484101
C11_12 C 0.1951(2) 0.42854(18) 0.6891(4)
H7_9 H 0.194176 0.435823 0.763377
C12_12 C 0.1897(3) 0.3840(2) 0.6478(5)
C13_12 C 0.1858(3) 0.2945(2) 0.6545(5)
H8_12 H 0.185800 0.294114 0.578428
C14_12 C 0.1866(4) 0.3383(2) 0.7068(5)
C15_9 C 0.1800(7) 0.3377(3) 0.8198(7)
H9_9 H 0.175565 0.366657 0.857183
C16_9 C 0.1799(10) 0.2952(3) 0.8762(7)
H10_9 H 0.180445 0.295855 0.952233
N5_8 N 0.18709(13) 0.04943(14) 0.2373(3)
N7_8 N 0.20197(17) 0.96143(14) 0.3909(3)
C1_13 C 0.35912(17) 0.9439(2) 0.7141(4)
H1_13 H 0.383687 0.942218 0.765899
C2_13 C 0.32146(18) 0.9451(2) 0.5609(4)
H2_10 H 0.314177 0.944176 0.486623
C3_13 C 0.3660(2) 0.9397(3) 0.6022(5)
C4_13 C 0.4555(2) 0.9358(3) 0.5955(5)
H3_13 H 0.455886 0.935800 0.671572
C5_16 C 0.500000 0.9348(5) 0.5398(7)
C6_13 C 0.4117(2) 0.9366(4) 0.5432(5)
C7_10 C 0.4123(3) 0.9300(7) 0.4302(7)
H4_10 H 0.383343 0.925565 0.392817
C8_10 C 0.4548(3) 0.9299(10) 0.3738(7)
H5_10 H 0.454145 0.930445 0.297767
C9_10 C 0.500000 0.9290(10) 0.4289(10)
N3_13 N 0.68709(13) 0.95057(14) 0.7373(3)
N4_13 N 0.71143(14) 0.95197(17) 0.6409(3)
C10_13 C 0.64088(17) 0.9439(2) 0.7141(4)
H6_13 H 0.616313 0.942218 0.765899
C11_13 C 0.67854(18) 0.9451(2) 0.5609(4)
H7_10 H 0.685823 0.944176 0.486623
C12_13 C 0.6340(2) 0.9397(3) 0.6022(5)
C13_13 C 0.5445(2) 0.9358(3) 0.5955(5)
H8_13 H 0.544114 0.935800 0.671572
C14_13 C 0.5883(2) 0.9366(4) 0.5432(5)
C15_10 C 0.5877(3) 0.9300(7) 0.4302(7)
H9_10 H 0.616657 0.925565 0.392817
C16_10 C 0.5452(3) 0.9299(10) 0.3738(7)
H10_10 H 0.545855 0.930445 0.297767
C1_14 C 0.14088(17) 0.0561(2) 0.2141(4)
H1_14 H 0.116313 0.057782 0.265899
C2_14 C 0.17854(18) 0.0549(2) 0.0609(4)
C3_14 C 0.1340(2) 0.0603(3) 0.1022(5)
C4_14 C 0.0445(2) 0.0642(3) 0.0955(5)
H3_14 H 0.044114 0.064200 0.171572
C5_17 C -0.000000 0.0652(5) 0.0398(7)
C6_14 C 0.0883(2) 0.0634(4) 0.0432(5)
C5_18 C 1.000000 0.0652(5) 0.0398(7)
N3_14 N 0.81291(13) 0.04943(14) 0.2373(3)
N4_14 N 0.78857(14) 0.04803(17) 0.1409(3)
C10_14 C 0.85912(17) 0.0561(2) 0.2141(4)
H6_14 H 0.883687 0.057782 0.265899
C11_14 C 0.82146(18) 0.0549(2) 0.0609(4)
C12_14 C 0.8660(2) 0.0603(3) 0.1022(5)
C13_14 C 0.9555(2) 0.0642(3) 0.0955(5)
H8_14 H 0.955886 0.064200 0.171572
C14_14 C 0.9117(2) 0.0634(4) 0.0432(5)
C1_15 C 0.1939(2) 0.89088(17) 0.4641(4)
H1_15 H 0.192218 0.866313 0.515899
C2_15 C 0.1951(2) 0.92854(18) 0.3109(4)
H2_11 H 0.194176 0.935823 0.236623
C3_15 C 0.1897(3) 0.8840(2) 0.3522(5)
C4_15 C 0.1858(3) 0.7945(2) 0.3455(5)
H3_15 H 0.185800 0.794114 0.421572
C5_19 C 0.1848(5) 0.750000 0.2898(7)
C6_15 C 0.1866(4) 0.8383(2) 0.2932(5)
C7_11 C 0.1800(7) 0.8377(3) 0.1802(7)
H4_11 H 0.175565 0.866657 0.142817
C8_11 C 0.1799(10) 0.7952(3) 0.1238(7)
H5_11 H 0.180445 0.795855 0.047767
C9_11 C 0.1790(10) 0.750000 0.1789(10)
N3_15 N 0.20057(14) 0.56291(13) 0.4873(3)
N4_15 N 0.20197(17) 0.53857(14) 0.3909(3)
C10_15 C 0.1939(2) 0.60912(17) 0.4641(4)
H6_15 H 0.192218 0.633687 0.515899
C11_15 C 0.1951(2) 0.57146(18) 0.3109(4)
H7_11 H 0.194176 0.564177 0.236623
C12_15 C 0.1897(3) 0.6160(2) 0.3522(5)
C13_15 C 0.1858(3) 0.7055(2) 0.3455(5)
H8_15 H 0.185800 0.705886 0.421572
C14_15 C 0.1866(4) 0.6617(2) 0.2932(5)
C15_11 C 0.1800(7) 0.6623(3) 0.1802(7)
H9_11 H 0.175565 0.633343 0.142817
C16_11 C 0.1799(10) 0.7048(3) 0.1238(7)
H10_11 H 0.180445 0.704145 0.047767
H1_16 H 0.307782 0.133687 0.015899
H6_16 H 0.307782 0.366313 0.015899
C1_16 C 0.3061(2) 0.10912(17) 0.9641(4)
C2_16 C 0.3049(2) 0.07146(18) 0.8109(4)
H2_12 H 0.305824 0.064177 0.736623
C3_16 C 0.3103(3) 0.1160(2) 0.8522(5)
C4_16 C 0.3142(3) 0.2055(2) 0.8455(5)
H3_16 H 0.314200 0.205886 0.921572
C5_20 C 0.3152(5) 0.250000 0.7898(7)
C6_16 C 0.3134(4) 0.1617(2) 0.7932(5)
C7_12 C 0.3200(7) 0.1623(3) 0.6802(7)
H4_12 H 0.324435 0.133343 0.642817
C8_12 C 0.3201(10) 0.2048(3) 0.6238(7)
H5_12 H 0.319555 0.204145 0.547767
C9_12 C 0.3210(10) 0.250000 0.6789(10)
N3_16 N 0.29943(14) 0.43709(13) 0.9873(3)
N4_16 N 0.29803(17) 0.46143(14) 0.8909(3)
C10_16 C 0.3061(2) 0.39088(17) 0.9641(4)
C11_16 C 0.3049(2) 0.42854(18) 0.8109(4)
H7_12 H 0.305824 0.435823 0.736623
C12_16 C 0.3103(3) 0.3840(2) 0.8522(5)
C13_16 C 0.3142(3) 0.2945(2) 0.8455(5)
H8_16 H 0.314200 0.294114 0.921572
C14_16 C 0.3134(4) 0.3383(2) 0.7932(5)
C15_12 C 0.3200(7) 0.3377(3) 0.6802(7)
H9_12 H 0.324435 0.366657 0.642817
C16_12 C 0.3201(10) 0.2952(3) 0.6238(7)
H10_12 H 0.319555 0.295855 0.547767
C9_13 C 0.000000 0.5710(10) 0.0711(10)
H7_13 H 0.185823 0.555824 0.013377
C15_13 C 0.0877(3) 0.5700(7) 0.0698(7)
H9_13 H 0.116657 0.574435 0.107183
C16_13 C 0.0452(3) 0.5701(10) 0.1262(7)
H10_13 H 0.045855 0.569555 0.202233
H2_13 H 0.814177 0.555824 0.013377
C7_13 C 0.9123(3) 0.5700(7) 0.0698(7)
H4_13 H 0.883343 0.574435 0.107183
C8_13 C 0.9548(3) 0.5701(10) 0.1262(7)
H5_13 H 0.954145 0.569555 0.202233
C9_14 C 1.000000 0.5710(10) 0.0711(10)
C9_15 C -0.000000 0.4290(10) 0.9289(10)
H7_14 H 0.185823 0.444176 0.986623
C15_14 C 0.0877(3) 0.4300(7) 0.9302(7)
H9_14 H 0.116657 0.425565 0.892817
C16_14 C 0.0452(3) 0.4299(10) 0.8738(7)
H10_14 H 0.045855 0.430445 0.797767
H2_14 H 0.814177 0.444176 0.986623
C7_14 C 0.9123(3) 0.4300(7) 0.9302(7)
H4_14 H 0.883343 0.425565 0.892817
C8_14 C 0.9548(3) 0.4299(10) 0.8738(7)
H5_14 H 0.954145 0.430445 0.797767
C9_16 C 1.000000 0.4290(10) 0.9289(10)
H2_15 H 0.185823 0.944176 0.013377
C7_15 C 0.0877(3) 0.9300(7) 0.0698(7)
H4_15 H 0.116657 0.925565 0.107183
C8_15 C 0.0452(3) 0.9299(10) 0.1262(7)
H5_15 H 0.045855 0.930445 0.202233
C9_17 C 0.000000 0.9290(10) 0.0711(10)
C9_18 C 1.000000 0.9290(10) 0.0711(10)
H7_15 H 0.814177 0.944176 0.013377
C15_15 C 0.9123(3) 0.9300(7) 0.0698(7)
H9_15 H 0.883343 0.925565 0.107183
C16_15 C 0.9548(3) 0.9299(10) 0.1262(7)
H10_15 H 0.954145 0.930445 0.202233
H2_16 H 0.185823 0.055824 0.986623
C7_16 C 0.0877(3) 0.0700(7) 0.9302(7)
H4_16 H 0.116657 0.074435 0.892817
C8_16 C 0.0452(3) 0.0701(10) 0.8738(7)
H5_16 H 0.045855 0.069555 0.797767
C9_19 C -0.000000 0.0710(10) 0.9289(10)
C9_20 C 1.000000 0.0710(10) 0.9289(10)
H7_16 H 0.814177 0.055824 0.986623
C15_16 C 0.9123(3) 0.0700(7) 0.9302(7)
H9_16 H 0.883343 0.074435 0.892817
C16_16 C 0.9548(3) 0.0701(10) 0.8738(7)
H10_16 H 0.954145 0.069555 0.797767
loop_
_geom_bond_atom_site_label_1
_geom_bond_atom_site_label_2
_geom_bond_site_symmetry_1
_geom_bond_site_symmetry_2
Co1 N1 1_555 1_555
N1 N2 1_555 1_555
N2 C2 1_555 1_555
C1 N1 1_555 1_555
H1 C1 1_555 1_555
C2 H2 1_555 1_555
C3 C1 1_555 1_555
C4 H3 1_555 1_555
C5 C4 1_555 1_555
C6 C3 1_555 1_555
C7 C6 1_555 1_555
H4 C7 1_555 1_555
C8 C7 1_555 1_555
H5 C8 1_555 1_555
C9 C5 1_555 1_555
N3 N4 1_555 1_555
N4 C11 1_555 1_555
C10 N3 1_555 1_555
H6 C10 1_555 1_555
C11 H7 1_555 1_555
C12 C10 1_555 1_555
C13 C5 1_555 1_555
H8 C13 1_555 1_555
C14 C12 1_555 1_555
C15 C14 1_555 1_555
H9 C15 1_555 1_555
C16 C9 1_555 1_555
H10 C16 1_555 1_555
Co2 N2 1_555 1_555
Co3 N4 1_555 1_555
Co4 N3 1_555 1_555
N6 Co1 1_555 1_555
N7 Co1 1_555 1_555
C2 C3 1_555 1_555
C4 C6 1_555 1_555
C8 C9 1_555 1_555
C11 C12 1_555 1_555
C13 C14 1_555 1_555
C15 C16 1_555 1_555
N3_2 N4_2 1_555 1_555
N4_2 C11_2 1_555 1_555
C10_2 N3_2 1_555 1_555
H6_2 C10_2 1_555 1_555
C12_2 C10_2 1_555 1_555
C13_2 C5_2 1_555 1_555
H8_2 C13_2 1_555 1_555
C14_2 C12_2 1_555 1_555
Co3_2 N4_2 1_555 1_555
Co4_2 N3_2 1_555 1_555
C11_2 C12_2 1_555 1_555
C13_2 C14_2 1_555 1_555
Co1_2 N1_2 1_555 1_555
N1_2 N2_2 1_555 1_555
N2_2 C2_2 1_555 1_555
C1_2 N1_2 1_555 1_555
H1_2 C1_2 1_555 1_555
C3_2 C1_2 1_555 1_555
C4_2 H3_2 1_555 1_555
C5_3 C4_2 1_555 1_555
C6_2 C3_2 1_555 1_555
Co2_2 N2_2 1_555 1_555
N5_2 Co1_2 1_555 1_555
N6_2 Co1_2 1_555 1_555
N7_2 Co1_2 1_555 1_555
C2_2 C3_2 1_555 1_555
C4_2 C6_2 1_555 1_555
Co2 N1_3 1_555 1_555
N1_3 N6_2 1_555 1_555
N6_2 C2_3 1_555 1_555
C1_3 N1_3 1_555 1_555
H1_3 C1_3 1_555 1_555
C2_3 H2_2 1_555 1_555
C3_3 C1_3 1_555 1_555
C4_3 H3_3 1_555 1_555
C5_4 C4_3 1_555 1_555
C6_3 C3_3 1_555 1_555
C7_2 C6_3 1_555 1_555
H4_2 C7_2 1_555 1_555
C8_2 C7_2 1_555 1_555
H5_2 C8_2 1_555 1_555
C9_2 C5_4 1_555 1_555
N3_3 N4_3 1_555 1_555
N4_3 C11_3 1_555 1_555
C10_3 N3_3 1_555 1_555
H6_3 C10_3 1_555 1_555
C11_3 H7_2 1_555 1_555
C12_3 C10_3 1_555 1_555
C13_3 C5_4 1_555 1_555
H8_3 C13_3 1_555 1_555
C14_3 C12_3 1_555 1_555
C15_2 C14_3 1_555 1_555
H9_2 C15_2 1_555 1_555
C16_2 C9_2 1_555 1_555
H10_2 C16_2 1_555 1_555
Co4_3 N3_3 1_555 1_555
N5_3 Co2 1_555 1_555
N7_3 Co2 1_555 1_555
C2_3 C3_3 1_555 1_555
C4_3 C6_3 1_555 1_555
C8_2 C9_2 1_555 1_555
C11_3 C12_3 1_555 1_555
C13_3 C14_3 1_555 1_555
C15_2 C16_2 1_555 1_555
N1_4 N6 1_555 1_555
N6 C2_4 1_555 1_555
C1_4 N1_4 1_555 1_555
C2_4 H2_3 1_555 1_555
C3_4 C1_4 1_555 1_555
C4_4 H3_4 1_555 1_555
C5_5 C4_4 1_555 1_555
C6_4 C3_4 1_555 1_555
C7_3 C6_4 1_555 1_555
H4_3 C7_3 1_555 1_555
C8_3 C7_3 1_555 1_555
H5_3 C8_3 1_555 1_555
C9_3 C5_5 1_555 1_555
N3_4 N4_4 1_555 1_555
N4_4 C11_4 1_555 1_555
C10_4 N3_4 1_555 1_555
C11_4 H7_3 1_555 1_555
C12_4 C10_4 1_555 1_555
C13_4 C5_5 1_555 1_555
H8_4 C13_4 1_555 1_555
C14_4 C12_4 1_555 1_555
C15_3 C14_4 1_555 1_555
H9_3 C15_3 1_555 1_555
C16_3 C9_3 1_555 1_555
H10_3 C16_3 1_555 1_555
C2_4 C3_4 1_555 1_555
C4_4 C6_4 1_555 1_555
C8_3 C9_3 1_555 1_555
C11_4 C12_4 1_555 1_555
C13_4 C14_4 1_555 1_555
C15_3 C16_3 1_555 1_555
N5_4 Co2_2 1_555 1_555
N7_4 Co2_2 1_555 1_555
N3_5 N4_5 1_555 1_555
N4_5 C11_5 1_555 1_555
C10_5 N3_5 1_555 1_555
H6_5 C10_5 1_555 1_555
C12_5 C10_5 1_555 1_555
C13_5 C5_6 1_555 1_555
H8_5 C13_5 1_555 1_555
C14_5 C12_5 1_555 1_555
Co4 N4_5 1_555 1_555
Co3 N3_5 1_555 1_555
C11_5 C12_5 1_555 1_555
C13_5 C14_5 1_555 1_555
N5_3 N7 1_555 1_555
N7 C2_5 1_555 1_555
C1_5 N5_3 1_555 1_555
H1_5 C1_5 1_555 1_555
C3_5 C1_5 1_555 1_555
C4_5 H3_5 1_555 1_555
C5_7 C4_5 1_555 1_555
C6_5 C3_5 1_555 1_555
C2_5 C3_5 1_555 1_555
C4_5 C6_5 1_555 1_555
N5_4 N7_2 1_555 1_555
N7_2 C2_6 1_555 1_555
C1_6 N5_4 1_555 1_555
H1_6 C1_6 1_555 1_555
C2_6 H2_4 1_555 1_555
C3_6 C1_6 1_555 1_555
C4_6 H3_6 1_555 1_555
C5_8 C4_6 1_555 1_555
C6_6 C3_6 1_555 1_555
C7_4 C6_6 1_555 1_555
H4_4 C7_4 1_555 1_555
C8_4 C7_4 1_555 1_555
H5_4 C8_4 1_555 1_555
C9_4 C5_8 1_555 1_555
N3_6 N4_6 1_555 1_555
N4_6 C11_6 1_555 1_555
C10_6 N3_6 1_555 1_555
H6_6 C10_6 1_555 1_555
C11_6 H7_4 1_555 1_555
C12_6 C10_6 1_555 1_555
C13_6 C5_8 1_555 1_555
H8_6 C13_6 1_555 1_555
C14_6 C12_6 1_555 1_555
C15_4 C14_6 1_555 1_555
H9_4 C15_4 1_555 1_555
C16_4 C9_4 1_555 1_555
H10_4 C16_4 1_555 1_555
Co4_2 N4_6 1_555 1_555
Co3_2 N3_6 1_555 1_555
C2_6 C3_6 1_555 1_555
C4_6 C6_6 1_555 1_555
C8_4 C9_4 1_555 1_555
C11_6 C12_6 1_555 1_555
C13_6 C14_6 1_555 1_555
C15_4 C16_4 1_555 1_555
N5 N7_4 1_555 1_555
N7_4 C2_7 1_555 1_555
C1_7 N5 1_555 1_555
C2_7 H2_5 1_555 1_555
C3_7 C1_7 1_555 1_555
C4_7 H3_7 1_555 1_555
C5_9 C4_7 1_555 1_555
C6_7 C3_7 1_555 1_555
C7_5 C6_7 1_555 1_555
H4_5 C7_5 1_555 1_555
C8_5 C7_5 1_555 1_555
H5_5 C8_5 1_555 1_555
C9_5 C5_9 1_555 1_555
N3_7 N4_7 1_555 1_555
N4_7 C11_7 1_555 1_555
C10_7 N3_7 1_555 1_555
C11_7 H7_5 1_555 1_555
C12_7 C10_7 1_555 1_555
C13_7 C5_9 1_555 1_555
H8_7 C13_7 1_555 1_555
C14_7 C12_7 1_555 1_555
C15_5 C14_7 1_555 1_555
H9_5 C15_5 1_555 1_555
C16_5 C9_5 1_555 1_555
H10_5 C16_5 1_555 1_555
C2_7 C3_7 1_555 1_555
C4_7 C6_7 1_555 1_555
C8_5 C9_5 1_555 1_555
C11_7 C12_7 1_555 1_555
C13_7 C14_7 1_555 1_555
C15_5 C16_5 1_555 1_555
N5_2 N7_3 1_555 1_555
N7_3 C2_8 1_555 1_555
C1_8 N5_2 1_555 1_555
H1_8 C1_8 1_555 1_555
C2_8 H2_6 1_555 1_555
C3_8 C1_8 1_555 1_555
C4_8 H3_8 1_555 1_555
C5_10 C4_8 1_555 1_555
C6_8 C3_8 1_555 1_555
C7_6 C6_8 1_555 1_555
H4_6 C7_6 1_555 1_555
C8_6 C7_6 1_555 1_555
H5_6 C8_6 1_555 1_555
C9_6 C5_10 1_555 1_555
N3_8 N4_8 1_555 1_555
N4_8 C11_8 1_555 1_555
C10_8 N3_8 1_555 1_555
H6_8 C10_8 1_555 1_555
C11_8 H7_6 1_555 1_555
C12_8 C10_8 1_555 1_555
C13_8 C5_10 1_555 1_555
H8_8 C13_8 1_555 1_555
C14_8 C12_8 1_555 1_555
C15_6 C14_8 1_555 1_555
H9_6 C15_6 1_555 1_555
C16_6 C9_6 1_555 1_555
H10_6 C16_6 1_555 1_555
Co3_3 N3_8 1_555 1_555
C2_8 C3_8 1_555 1_555
C4_8 C6_8 1_555 1_555
C8_6 C9_6 1_555 1_555
C11_8 C12_8 1_555 1_555
C13_8 C14_8 1_555 1_555
C15_6 C16_6 1_555 1_555
Co1_3 N1_5 1_555 1_555
N1_5 N2_3 1_555 1_555
N2_3 C2_9 1_555 1_555
C1_9 N1_5 1_555 1_555
H1_9 C1_9 1_555 1_555
C3_9 C1_9 1_555 1_555
C4_9 H3_9 1_555 1_555
C5_11 C4_9 1_555 1_555
C6_9 C3_9 1_555 1_555
Co2_3 N2_3 1_555 1_555
N5_5 Co1_3 1_555 1_555
N7_5 Co1_3 1_555 1_555
C2_9 C3_9 1_555 1_555
C4_9 C6_9 1_555 1_555
N3_9 N4_9 1_555 1_555
N4_9 C11_9 1_555 1_555
C10_9 N3_9 1_555 1_555
H6_9 C10_9 1_555 1_555
C12_9 C10_9 1_555 1_555
C13_9 C5_12 1_555 1_555
H8_9 C13_9 1_555 1_555
C14_9 C12_9 1_555 1_555
Co4_4 N4_9 1_555 1_555
Co3_3 N3_9 1_555 1_555
C11_9 C12_9 1_555 1_555
C13_9 C14_9 1_555 1_555
Co1_4 N1_6 1_555 1_555
N1_6 N2_4 1_555 1_555
N2_4 C2_10 1_555 1_555
C1_10 N1_6 1_555 1_555
H1_10 C1_10 1_555 1_555
C2_10 H2_7 1_555 1_555
C3_10 C1_10 1_555 1_555
C4_10 H3_10 1_555 1_555
C5_13 C4_10 1_555 1_555
C6_10 C3_10 1_555 1_555
C7_7 C6_10 1_555 1_555
H4_7 C7_7 1_555 1_555
C8_7 C7_7 1_555 1_555
H5_7 C8_7 1_555 1_555
C9_7 C5_13 1_555 1_555
N3_10 N4_10 1_555 1_555
N4_10 C11_10 1_555 1_555
C10_10 N3_10 1_555 1_555
H6_10 C10_10 1_555 1_555
C11_10 H7_7 1_555 1_555
C12_10 C10_10 1_555 1_555
C13_10 C5_13 1_555 1_555
H8_10 C13_10 1_555 1_555
C14_10 C12_10 1_555 1_555
C15_7 C14_10 1_555 1_555
H9_7 C15_7 1_555 1_555
C16_7 C9_7 1_555 1_555
H10_7 C16_7 1_555 1_555
Co2_4 N2_4 1_555 1_555
Co4_3 N4_10 1_555 1_555
Co3_4 N3_10 1_555 1_555
N7_6 Co1_4 1_555 1_555
C2_10 C3_10 1_555 1_555
C4_10 C6_10 1_555 1_555
C8_7 C9_7 1_555 1_555
C11_10 C12_10 1_555 1_555
C13_10 C14_10 1_555 1_555
C15_7 C16_7 1_555 1_555
N1_7 N6_4 1_555 1_555
N6_4 C2_11 1_555 1_555
C1_11 N1_7 1_555 1_555
C2_11 H2_8 1_555 1_555
C3_11 C1_11 1_555 1_555
C4_11 H3_11 1_555 1_555
C5_14 C4_11 1_555 1_555
C6_11 C3_11 1_555 1_555
C7_8 C6_11 1_555 1_555
H4_8 C7_8 1_555 1_555
C8_8 C7_8 1_555 1_555
H5_8 C8_8 1_555 1_555
C9_8 C5_14 1_555 1_555
N3_11 N4_11 1_555 1_555
N4_11 C11_11 1_555 1_555
C10_11 N3_11 1_555 1_555
C11_11 H7_8 1_555 1_555
C12_11 C10_11 1_555 1_555
C13_11 C5_14 1_555 1_555
H8_11 C13_11 1_555 1_555
C14_11 C12_11 1_555 1_555
C15_8 C14_11 1_555 1_555
H9_8 C15_8 1_555 1_555
C16_8 C9_8 1_555 1_555
H10_8 C16_8 1_555 1_555
Co4 N4_11 1_555 1_555
C2_11 C3_11 1_555 1_555
C4_11 C6_11 1_555 1_555
C8_8 C9_8 1_555 1_555
C11_11 C12_11 1_555 1_555
C13_11 C14_11 1_555 1_555
C15_8 C16_8 1_555 1_555
N5_7 Co2_3 1_555 1_555
Co2_4 N1_8 1_555 1_555
N1_8 N6_3 1_555 1_555
N6_3 C2_12 1_555 1_555
C1_12 N1_8 1_555 1_555
H1_12 C1_12 1_555 1_555
C2_12 H2_9 1_555 1_555
C3_12 C1_12 1_555 1_555
C4_12 H3_12 1_555 1_555
C5_15 C4_12 1_555 1_555
C6_12 C3_12 1_555 1_555
C7_9 C6_12 1_555 1_555
H4_9 C7_9 1_555 1_555
C8_9 C7_9 1_555 1_555
H5_9 C8_9 1_555 1_555
C9_9 C5_15 1_555 1_555
N3_12 N4_12 1_555 1_555
N4_12 C11_12 1_555 1_555
C10_12 N3_12 1_555 1_555
H6_12 C10_12 1_555 1_555
C11_12 H7_9 1_555 1_555
C12_12 C10_12 1_555 1_555
C13_12 C5_15 1_555 1_555
H8_12 C13_12 1_555 1_555
C14_12 C12_12 1_555 1_555
C15_9 C14_12 1_555 1_555
H9_9 C15_9 1_555 1_555
C16_9 C9_9 1_555 1_555
H10_9 C16_9 1_555 1_555
Co4_2 N4_12 1_555 1_555
Co3 N3_12 1_555 1_555
N5_8 Co2_4 1_555 1_555
C2_12 C3_12 1_555 1_555
C4_12 C6_12 1_555 1_555
C8_9 C9_9 1_555 1_555
C11_12 C12_12 1_555 1_555
C13_12 C14_12 1_555 1_555
C15_9 C16_9 1_555 1_555
N5_7 N7_5 1_555 1_555
N7_5 C2_13 1_555 1_555
C1_13 N5_7 1_555 1_555
H1_13 C1_13 1_555 1_555
C2_13 H2_10 1_555 1_555
C3_13 C1_13 1_555 1_555
C4_13 H3_13 1_555 1_555
C5_16 C4_13 1_555 1_555
C6_13 C3_13 1_555 1_555
C7_10 C6_13 1_555 1_555
H4_10 C7_10 1_555 1_555
C8_10 C7_10 1_555 1_555
H5_10 C8_10 1_555 1_555
C9_10 C5_16 1_555 1_555
N3_13 N4_13 1_555 1_555
N4_13 C11_13 1_555 1_555
C10_13 N3_13 1_555 1_555
H6_13 C10_13 1_555 1_555
C11_13 H7_10 1_555 1_555
C12_13 C10_13 1_555 1_555
C13_13 C5_16 1_555 1_555
H8_13 C13_13 1_555 1_555
C14_13 C12_13 1_555 1_555
C15_10 C14_13 1_555 1_555
H9_10 C15_10 1_555 1_555
C16_10 C9_10 1_555 1_555
H10_10 C16_10 1_555 1_555
Co3_3 N4_13 1_555 1_555
Co4_4 N3_13 1_555 1_555
C2_13 C3_13 1_555 1_555
C4_13 C6_13 1_555 1_555
C8_10 C9_10 1_555 1_555
C11_13 C12_13 1_555 1_555
C13_13 C14_13 1_555 1_555
C15_10 C16_10 1_555 1_555
N5_8 N7_6 1_555 1_555
N7_6 C2_14 1_555 1_555
C1_14 N5_8 1_555 1_555
H1_14 C1_14 1_555 1_555
C3_14 C1_14 1_555 1_555
C4_14 H3_14 1_555 1_555
C5_17 C4_14 1_555 1_555
C6_14 C3_14 1_555 1_555
C2_14 C3_14 1_555 1_555
C4_14 C6_14 1_555 1_555
N3_14 N4_14 1_555 1_555
N4_14 C11_14 1_555 1_555
C10_14 N3_14 1_555 1_555
H6_14 C10_14 1_555 1_555
C12_14 C10_14 1_555 1_555
C13_14 C5_18 1_555 1_555
H8_14 C13_14 1_555 1_555
C14_14 C12_14 1_555 1_555
Co3_4 N4_14 1_555 1_555
Co4_3 N3_14 1_555 1_555
C11_14 C12_14 1_555 1_555
C13_14 C14_14 1_555 1_555
N5_5 N7_8 1_555 1_555
N7_8 C2_15 1_555 1_555
C1_15 N5_5 1_555 1_555
H1_15 C1_15 1_555 1_555
C2_15 H2_11 1_555 1_555
C3_15 C1_15 1_555 1_555
C4_15 H3_15 1_555 1_555
C5_19 C4_15 1_555 1_555
C6_15 C3_15 1_555 1_555
C7_11 C6_15 1_555 1_555
H4_11 C7_11 1_555 1_555
C8_11 C7_11 1_555 1_555
H5_11 C8_11 1_555 1_555
C9_11 C5_19 1_555 1_555
N3_15 N4_15 1_555 1_555
N4_15 C11_15 1_555 1_555
C10_15 N3_15 1_555 1_555
H6_15 C10_15 1_555 1_555
C11_15 H7_11 1_555 1_555
C12_15 C10_15 1_555 1_555
C13_15 C5_19 1_555 1_555
H8_15 C13_15 1_555 1_555
C14_15 C12_15 1_555 1_555
C15_11 C14_15 1_555 1_555
H9_11 C15_11 1_555 1_555
C16_11 C9_11 1_555 1_555
H10_11 C16_11 1_555 1_555
Co3 N4_15 1_555 1_555
Co4_2 N3_15 1_555 1_555
C2_15 C3_15 1_555 1_555
C4_15 C6_15 1_555 1_555
C8_11 C9_11 1_555 1_555
C11_15 C12_15 1_555 1_555
C13_15 C14_15 1_555 1_555
C15_11 C16_11 1_555 1_555
N5_6 N7_7 1_555 1_555
N7_7 C2_16 1_555 1_555
C1_16 N5_6 1_555 1_555
C2_16 H2_12 1_555 1_555
C3_16 C1_16 1_555 1_555
C4_16 H3_16 1_555 1_555
C5_20 C4_16 1_555 1_555
C6_16 C3_16 1_555 1_555
C7_12 C6_16 1_555 1_555
H4_12 C7_12 1_555 1_555
C8_12 C7_12 1_555 1_555
H5_12 C8_12 1_555 1_555
C9_12 C5_20 1_555 1_555
N3_16 N4_16 1_555 1_555
N4_16 C11_16 1_555 1_555
C10_16 N3_16 1_555 1_555
C11_16 H7_12 1_555 1_555
C12_16 C10_16 1_555 1_555
C13_16 C5_20 1_555 1_555
H8_16 C13_16 1_555 1_555
C14_16 C12_16 1_555 1_555
C15_12 C14_16 1_555 1_555
H9_12 C15_12 1_555 1_555
C16_12 C9_12 1_555 1_555
H10_12 C16_12 1_555 1_555
Co3_2 N4_16 1_555 1_555
C2_16 C3_16 1_555 1_555
C4_16 C6_16 1_555 1_555
C8_12 C9_12 1_555 1_555
C11_16 C12_16 1_555 1_555
C13_16 C14_16 1_555 1_555
C15_12 C16_12 1_555 1_555
H9_13 C15_13 1_555 1_555
C16_13 C9_13 1_555 1_555
H10_13 C16_13 1_555 1_555
C15_13 C16_13 1_555 1_555
H4_13 C7_13 1_555 1_555
C8_13 C7_13 1_555 1_555
H5_13 C8_13 1_555 1_555
C8_13 C9_14 1_555 1_555
H9_14 C15_14 1_555 1_555
C16_14 C9_15 1_555 1_555
H10_14 C16_14 1_555 1_555
C15_14 C16_14 1_555 1_555
H4_14 C7_14 1_555 1_555
C8_14 C7_14 1_555 1_555
H5_14 C8_14 1_555 1_555
C8_14 C9_16 1_555 1_555
H4_15 C7_15 1_555 1_555
C8_15 C7_15 1_555 1_555
H5_15 C8_15 1_555 1_555
C8_15 C9_17 1_555 1_555
H9_15 C15_15 1_555 1_555
C16_15 C9_18 1_555 1_555
H10_15 C16_15 1_555 1_555
C15_15 C16_15 1_555 1_555
H4_16 C7_16 1_555 1_555
C8_16 C7_16 1_555 1_555
H5_16 C8_16 1_555 1_555
C8_16 C9_19 1_555 1_555
H9_16 C15_16 1_555 1_555
C16_16 C9_20 1_555 1_555
H10_16 C16_16 1_555 1_555
C15_16 C16_16 1_555 1_555

#END
