
###############################################################################
#
# This file contains modified crystal structure data generated from the
# MOF subset of the Cambridge Structural Database (CSD) v543 
# hosted by the Cambridge Crystallographic Data Centre (CCDC).
#
# This work is licensed under the Creative Commons
# Attribution-NonCommercial-ShareAlike 4.0 International License.
# To view a copy of this license, visit
# http://creativecommons.org/licenses/by-nc-sa/4.0/
# or send a letter to
# Creative Commons, PO Box 1866, Mountain View, CA 94042, USA.
#
# CIF created using the CSD Python API on 29 September 2022
# The structure has been converted into the P1 space group
# The structure has a 3D framework
# The original CSD entry TEFPAZ is in the monoclinic crystal system
# The original CSD entry TEFPAZ is in a Sohncke space group
# The framework has been calculated to contain at least 10.0% void space
# The void calculation uses a probe of radius 1.32A, grid spacing 0.4
#
###############################################################################

data_TEFPAZ
_chemical_formula_moiety         '(C528 H288 Co23 N96)n'
_symmetry_cell_setting           triclinic
_symmetry_space_group_name_H-M   'P 1'
_symmetry_Int_Tables_number      1
_space_group_name_Hall           'P 1'
loop_
_symmetry_equiv_pos_site_id
_symmetry_equiv_pos_as_xyz
1 x,y,z
_cell_length_a                   18.1194(7)
_cell_length_b                   26.4519(8)
_cell_length_c                   39.0573(7)
_cell_angle_alpha                90
_cell_angle_beta                 90.019(3)
_cell_angle_gamma                90
_cell_volume                     18719.9
loop_
_atom_site_label
_atom_site_type_symbol
_atom_site_fract_x
_atom_site_fract_y
_atom_site_fract_z
N46 N 0.0073(13) 0.0414(7) 0.7309(3)
H134 H 0.008921 0.082102 0.775640
N50 N 0.0213(9) 0.0360(6) 0.4148(4)
N15 N 0.0189(10) 0.9058(6) 0.4284(3)
C87 C 0.0027(12) 0.8704(7) 0.4052(4)
H47 H 0.015612 0.872075 0.382145
Co5 Co 0.06979(19) 0.97023(17) 0.42105(10)
C154 C 0.0009(15) 0.0717(7) 0.4375(4)
H84 H 0.009295 0.069771 0.460950
N36 N 0.0095(10) 0.9149(6) 0.7534(3)
Co10 Co 0.0596(3) 0.97806(14) 0.74107(8)
Co12 Co 0.0080(2) 0.01030(14) 0.34030(8)
N52 N 0.1212(10) 0.9858(7) 0.4652(4)
N56 N 0.1184(12) 0.9968(8) 0.7812(3)
N60 N 0.1096(11) 0.9595(7) 0.6979(3)
N66 N 0.0187(13) 0.0550(6) 0.3005(3)
N71 N 0.1204(12) 0.9525(7) 0.3791(4)
Co13 Co 0.0080(2) 0.94265(15) 0.82543(9)
Co34 Co 0.000000 0.93260(19) 0.500000
N53 N 0.0900(8) 0.9744(6) 0.4954(3)
N59 N 0.0093(11) 0.8897(6) 0.5412(3)
N69 N 0.0958(10) 0.9671(6) 0.3472(3)
N23 N 0.4042(10) 0.4671(6) 0.1528(3)
N24 N 0.3796(12) 0.4525(7) 0.1209(4)
C111 C 0.0513(17) 0.1005(8) 0.2973(4)
H61 H 0.071650 0.118607 0.315377
C112 C 0.0506(17) 0.1170(7) 0.2633(4)
C113 C 0.0073(17) 0.0803(7) 0.2469(4)
C114 C 0.0864(19) 0.1620(8) 0.2487(5)
C115 C 0.112(2) 0.1987(8) 0.2693(5)
H63 H 0.109879 0.194519 0.292950
C116 C 0.142(2) 0.2437(8) 0.2556(5)
C117 C 0.1440(16) 0.2498(8) 0.2208(5)
C118 C 0.1097(17) 0.2148(9) 0.1991(5)
C119 C 0.0751(18) 0.1718(9) 0.2131(5)
H64 H 0.046105 0.150540 0.199759
C120 C 0.167(2) 0.2832(9) 0.2768(6)
H65 H 0.159560 0.282282 0.300353
C121 C 0.202(2) 0.3231(11) 0.2616(5)
H66 H 0.214946 0.350631 0.275268
C122 C 0.221(2) 0.3252(11) 0.2269(5)
C123 C 0.1854(18) 0.2904(9) 0.2060(4)
C124 C 0.1906(19) 0.2962(10) 0.1698(5)
C125 C 0.1458(19) 0.2627(11) 0.1497(5)
H67 H 0.145378 0.266976 0.126057
C126 C 0.1044(19) 0.2254(11) 0.1633(6)
H68 H 0.072633 0.206765 0.149492
C127 C 0.2661(17) 0.3632(10) 0.2125(5)
H69 H 0.294778 0.383782 0.226427
C128 C 0.2671(13) 0.3696(8) 0.1764(4)
C129 C 0.2246(17) 0.3394(10) 0.1553(5)
H70 H 0.218466 0.347277 0.132254
C130 C 0.3168(13) 0.4082(9) 0.1604(5)
C131 C 0.3708(13) 0.4384(8) 0.1767(4)
H71 H 0.381523 0.438390 0.200041
C132 C 0.3287(15) 0.4156(9) 0.1255(5)
H72 H 0.305205 0.397918 0.108019
N45 N 0.9813(13) 0.0550(6) 0.6995(3)
N47 N 0.5958(10) 0.4671(6) 0.8472(3)
N48 N 0.6204(12) 0.4525(7) 0.8791(4)
C243 C 0.9487(17) 0.1005(8) 0.7027(4)
H133 H 0.928350 0.118607 0.684623
C244 C 0.9494(17) 0.1170(7) 0.7367(4)
C245 C 0.9927(17) 0.0803(7) 0.7531(4)
C246 C 0.9136(19) 0.1620(8) 0.7513(5)
C247 C 0.888(2) 0.1987(8) 0.7307(5)
H135 H 0.890121 0.194519 0.707050
C248 C 0.858(2) 0.2437(8) 0.7444(5)
C249 C 0.8560(16) 0.2498(8) 0.7792(5)
C250 C 0.8903(17) 0.2148(9) 0.8009(5)
C251 C 0.9249(18) 0.1718(9) 0.7869(5)
H136 H 0.953895 0.150540 0.800241
C252 C 0.833(2) 0.2832(9) 0.7232(6)
H137 H 0.840440 0.282282 0.699647
C253 C 0.798(2) 0.3231(11) 0.7384(5)
H138 H 0.785054 0.350631 0.724732
C254 C 0.779(2) 0.3252(11) 0.7731(5)
C255 C 0.8146(18) 0.2904(9) 0.7940(4)
C256 C 0.8094(19) 0.2962(10) 0.8302(5)
C257 C 0.8542(19) 0.2627(11) 0.8503(5)
H139 H 0.854622 0.266976 0.873943
C258 C 0.8956(19) 0.2254(11) 0.8367(6)
H140 H 0.927367 0.206765 0.850508
C259 C 0.7339(17) 0.3632(10) 0.7875(5)
H141 H 0.705222 0.383782 0.773573
C260 C 0.7329(13) 0.3696(8) 0.8236(4)
C261 C 0.7754(17) 0.3394(10) 0.8447(5)
H142 H 0.781534 0.347277 0.867746
C262 C 0.6832(13) 0.4082(9) 0.8396(5)
C263 C 0.6292(13) 0.4384(8) 0.8233(4)
H143 H 0.618477 0.438390 0.799959
C264 C 0.6713(15) 0.4156(9) 0.8745(5)
H144 H 0.694795 0.397918 0.891981
Co26 Co 0.56979(19) 0.47023(17) 0.92105(10)
Co27 Co 0.43021(19) 0.47023(17) 0.07895(10)
Co28 Co 0.9920(2) 0.01030(14) 0.65970(8)
Co30 Co 0.4920(2) 0.51030(14) 0.15970(8)
Co31 Co 0.5080(2) 0.51030(14) 0.84030(8)
N1 N 0.4179(11) 0.4592(7) 0.4845(4)
N2 N 0.4044(10) 0.4448(6) 0.4519(4)
N3 N 0.0020(11) 0.0524(5) 0.6170(4)
C1 C 0.3743(14) 0.4298(8) 0.5044(5)
H1 H 0.371832 0.432465 0.528120
C2 C 0.3332(13) 0.3946(8) 0.4852(5)
C3 C 0.3530(13) 0.4073(8) 0.4522(5)
H2 H 0.333740 0.392133 0.432684
C4 C 0.2794(12) 0.3575(8) 0.4989(4)
C5 C 0.2641(15) 0.3549(9) 0.5332(4)
H3 H 0.287928 0.376399 0.548428
C6 C 0.2122(16) 0.3194(9) 0.5452(4)
C7 C 0.1872(13) 0.2820(8) 0.5237(4)
C8 C 0.2070(15) 0.2797(8) 0.4890(3)
C9 C 0.2547(15) 0.3185(8) 0.4772(4)
H4 H 0.270052 0.318207 0.454445
C10 C 0.193(2) 0.3183(9) 0.5798(5)
H5 H 0.200535 0.346197 0.593756
C11 C 0.1609(18) 0.2746(9) 0.5928(4)
H6 H 0.162411 0.268700 0.616221
C12 C 0.1267(14) 0.2391(7) 0.5712(3)
C13 C 0.1470(13) 0.2388(7) 0.5372(4)
C14 C 0.1169(15) 0.2017(7) 0.5147(4)
C15 C 0.1425(17) 0.2009(10) 0.4794(4)
H7 H 0.132393 0.173212 0.465527
C16 C 0.1807(16) 0.2401(9) 0.4669(4)
H8 H 0.190338 0.241690 0.443526
C17 C 0.0912(14) 0.1963(7) 0.5850(4)
H9 H 0.083201 0.194030 0.608506
C18 C 0.0681(13) 0.1573(6) 0.5633(4)
C19 C 0.0817(14) 0.1594(7) 0.5289(4)
H10 H 0.067549 0.132715 0.514859
C20 C 0.0340(13) 0.1113(6) 0.5785(4)
C21 C 0.0358(15) 0.0967(7) 0.6126(4)
H11 H 0.057665 0.115374 0.630107
N5 N 0.5096(13) 0.4100(7) 0.3972(4)
N6 N 0.5284(10) 0.3981(6) 0.3646(3)
C23 C 0.5301(16) 0.3704(7) 0.4173(4)
H13 H 0.521696 0.369100 0.440800
C24 C 0.5645(15) 0.3325(7) 0.3993(4)
C25 C 0.5618(15) 0.3513(8) 0.3661(4)
H14 H 0.580267 0.334320 0.347127
C26 C 0.5942(13) 0.2838(7) 0.4114(4)
C27 C 0.5885(14) 0.2727(8) 0.4459(4)
H15 H 0.561484 0.294108 0.459972
C28 C 0.6225(15) 0.2297(8) 0.4602(4)
C29 C 0.6602(13) 0.1981(7) 0.4383(4)
C30 C 0.6708(14) 0.2082(6) 0.4031(4)
C31 C 0.6337(13) 0.2511(7) 0.3895(4)
H16 H 0.635471 0.257645 0.366107
C32 C 0.6254(17) 0.2223(10) 0.4958(4)
H17 H 0.612130 0.247679 0.511118
C33 C 0.6489(18) 0.1756(10) 0.5069(5)
H18 H 0.636592 0.165382 0.528958
C34 C 0.6904(15) 0.1430(8) 0.4866(4)
C35 C 0.6934(13) 0.1527(7) 0.4517(4)
C36 C 0.7383(13) 0.1215(7) 0.4301(4)
C37 C 0.7436(14) 0.1337(9) 0.3945(4)
H19 H 0.771851 0.113057 0.380297
C38 C 0.7098(15) 0.1731(8) 0.3811(4)
H20 H 0.711006 0.178475 0.357574
C39 C 0.7303(14) 0.1022(8) 0.5011(5)
H21 H 0.727068 0.095097 0.524368
C40 C 0.7756(13) 0.0725(7) 0.4792(4)
C41 C 0.7764(12) 0.0815(7) 0.4450(4)
H22 H 0.803469 0.059977 0.430918
C42 C 0.8240(10) 0.0326(7) 0.4948(4)
C43 C 0.8291(14) 0.0218(9) 0.5300(4)
H23 H 0.801830 0.037468 0.547170
C44 C 0.8744(10) 0.0010(8) 0.4796(4)
N9 N 0.4252(11) 0.4862(8) 0.3387(5)
N10 N 0.4088(12) 0.4986(9) 0.3723(5)
N11 N 0.0136(12) 0.9016(6) 0.2137(4)
C45 C 0.3862(16) 0.5184(11) 0.3185(5)
H25 H 0.392149 0.521245 0.294973
C46 C 0.3362(12) 0.5467(9) 0.3378(5)
C47 C 0.3588(13) 0.5383(9) 0.3716(5)
H26 H 0.342818 0.556463 0.390550
C48 C 0.2886(14) 0.5885(10) 0.3239(6)
C49 C 0.2727(15) 0.5920(9) 0.2899(6)
H27 H 0.291613 0.568450 0.274568
C50 C 0.2271(17) 0.6319(9) 0.2780(6)
C51 C 0.2005(16) 0.6672(9) 0.3010(5)
C52 C 0.2102(19) 0.6614(10) 0.3366(6)
C53 C 0.241(2) 0.6142(12) 0.3464(7)
H28 H 0.229622 0.600358 0.367630
C54 C 0.209(2) 0.6354(11) 0.2432(6)
H29 H 0.223958 0.610699 0.227862
C55 C 0.167(2) 0.6760(10) 0.2322(7)
H30 H 0.154889 0.678205 0.209070
C56 C 0.143(2) 0.7137(9) 0.2541(6)
C57 C 0.153(2) 0.7074(10) 0.2893(5)
C58 C 0.1298(18) 0.7462(9) 0.3122(5)
C59 C 0.143(2) 0.7380(11) 0.3485(6)
H31 H 0.131141 0.763392 0.364036
C60 C 0.171(2) 0.6941(12) 0.3599(6)
H32 H 0.165674 0.684844 0.382730
C61 C 0.1151(19) 0.7598(9) 0.2411(6)
H33 H 0.117047 0.767237 0.217867
C62 C 0.0842(16) 0.7940(7) 0.2646(5)
C63 C 0.0846(19) 0.7846(10) 0.2992(6)
H34 H 0.055119 0.803649 0.313889
C64 C 0.0449(16) 0.8390(7) 0.2503(5)
C65 C 0.0433(15) 0.8559(7) 0.2165(5)
H35 H 0.061043 0.837309 0.198063
C66 C 0.0108(14) 0.8772(7) 0.2681(4)
H36 H 0.002673 0.877135 0.291589
N13 N 0.6184(12) 0.4968(8) 0.2812(3)
N14 N 0.5927(11) 0.4847(8) 0.3122(3)
N16 N 0.9907(11) 0.8897(6) 0.4588(3)
C67 C 0.6712(14) 0.5324(10) 0.2846(4)
H37 H 0.697388 0.546255 0.266450
C68 C 0.6817(12) 0.5456(8) 0.3186(4)
C69 C 0.6319(14) 0.5135(10) 0.3360(4)
H38 H 0.626122 0.511875 0.359637
C70 C 0.7314(16) 0.5849(9) 0.3323(4)
C71 C 0.7611(16) 0.6213(9) 0.3119(5)
H39 H 0.752106 0.620558 0.288510
C72 C 0.8053(16) 0.6600(9) 0.3258(4)
C73 C 0.8193(14) 0.6590(8) 0.3601(4)
C74 C 0.7866(16) 0.6240(9) 0.3826(4)
C75 C 0.7443(15) 0.5856(8) 0.3680(4)
H40 H 0.724423 0.560416 0.381784
C76 C 0.8372(19) 0.6972(11) 0.3040(5)
H41 H 0.830465 0.695944 0.280407
C77 C 0.8789(18) 0.7356(10) 0.3190(4)
H42 H 0.903906 0.758344 0.305010
C78 C 0.8838(16) 0.7406(9) 0.3546(4)
C79 C 0.8604(15) 0.7006(8) 0.3752(4)
C80 C 0.8723(16) 0.7023(9) 0.4113(4)
C81 C 0.841(2) 0.6632(10) 0.4319(5)
H43 H 0.851654 0.662512 0.455187
C82 C 0.7962(19) 0.6275(11) 0.4191(4)
H44 H 0.771642 0.605285 0.433570
C83 C 0.9286(15) 0.7804(8) 0.3690(4)
H45 H 0.953064 0.803379 0.354983
C84 C 0.9340(11) 0.7832(6) 0.4049(4)
C85 C 0.9068(16) 0.7452(8) 0.4248(5)
H46 H 0.911437 0.747892 0.448426
C86 C 0.9643(12) 0.8309(6) 0.4199(4)
C88 C 0.9603(14) 0.8437(7) 0.4545(4)
H48 H 0.940083 0.823746 0.471721
Co1 Co 0.5080(2) 0.44265(15) 0.32543(9)
Co2 Co 0.4579(2) 0.47095(18) 0.41240(10)
Co3 Co 0.500000 0.50042(19) 0.500000
N25 N 0.5821(11) 0.4592(7) 0.5155(4)
N26 N 0.5956(10) 0.4448(6) 0.5481(4)
N27 N 0.9980(11) 0.0524(5) 0.3830(4)
C133 C 0.6257(14) 0.4298(8) 0.4956(5)
H73 H 0.628168 0.432465 0.471880
C134 C 0.6668(13) 0.3946(8) 0.5148(5)
C135 C 0.6470(13) 0.4073(8) 0.5478(5)
H74 H 0.666260 0.392133 0.567316
C136 C 0.7206(12) 0.3575(8) 0.5011(4)
C137 C 0.7359(15) 0.3549(9) 0.4668(4)
H75 H 0.712072 0.376399 0.451572
C138 C 0.7878(16) 0.3194(9) 0.4548(4)
C139 C 0.8128(13) 0.2820(8) 0.4763(4)
C140 C 0.7930(15) 0.2797(8) 0.5110(3)
C141 C 0.7453(15) 0.3185(8) 0.5228(4)
H76 H 0.729948 0.318207 0.545555
C142 C 0.807(2) 0.3183(9) 0.4202(5)
H77 H 0.799465 0.346197 0.406244
C143 C 0.8391(18) 0.2746(9) 0.4072(4)
H78 H 0.837589 0.268700 0.383779
C144 C 0.8733(14) 0.2391(7) 0.4288(3)
C145 C 0.8530(13) 0.2388(7) 0.4628(4)
C146 C 0.8831(15) 0.2017(7) 0.4853(4)
C147 C 0.8575(17) 0.2009(10) 0.5206(4)
H79 H 0.867607 0.173212 0.534473
C148 C 0.8193(16) 0.2401(9) 0.5331(4)
H80 H 0.809662 0.241690 0.556474
C149 C 0.9088(14) 0.1963(7) 0.4150(4)
H81 H 0.916799 0.194030 0.391494
C150 C 0.9319(13) 0.1573(6) 0.4367(4)
C151 C 0.9183(14) 0.1594(7) 0.4711(4)
H82 H 0.932451 0.132715 0.485141
C152 C 0.9660(13) 0.1113(6) 0.4215(4)
C153 C 0.9642(15) 0.0967(7) 0.3874(4)
H83 H 0.942335 0.115374 0.369893
N29 N 0.4904(13) 0.4100(7) 0.6028(4)
N30 N 0.4716(10) 0.3981(6) 0.6354(3)
C155 C 0.4699(16) 0.3704(7) 0.5827(4)
H85 H 0.478304 0.369100 0.559200
C156 C 0.4355(15) 0.3325(7) 0.6007(4)
C157 C 0.4382(15) 0.3513(8) 0.6339(4)
H86 H 0.419733 0.334320 0.652873
C158 C 0.4058(13) 0.2838(7) 0.5886(4)
C159 C 0.4115(14) 0.2727(8) 0.5541(4)
H87 H 0.438516 0.294108 0.540028
C160 C 0.3775(15) 0.2297(8) 0.5398(4)
C161 C 0.3398(13) 0.1981(7) 0.5617(4)
C162 C 0.3292(14) 0.2082(6) 0.5969(4)
C163 C 0.3663(13) 0.2511(7) 0.6105(4)
H88 H 0.364529 0.257645 0.633893
C164 C 0.3746(17) 0.2223(10) 0.5042(4)
H89 H 0.387870 0.247679 0.488882
C165 C 0.3511(18) 0.1756(10) 0.4931(5)
H90 H 0.363408 0.165382 0.471042
C166 C 0.3096(15) 0.1430(8) 0.5134(4)
C167 C 0.3066(13) 0.1527(7) 0.5483(4)
C168 C 0.2617(13) 0.1215(7) 0.5699(4)
C169 C 0.2564(14) 0.1337(9) 0.6055(4)
H91 H 0.228149 0.113057 0.619703
C170 C 0.2902(15) 0.1731(8) 0.6189(4)
H92 H 0.288994 0.178475 0.642426
C171 C 0.2697(14) 0.1022(8) 0.4989(5)
H93 H 0.272932 0.095097 0.475632
C172 C 0.2244(13) 0.0725(7) 0.5208(4)
C173 C 0.2236(12) 0.0815(7) 0.5550(4)
H94 H 0.196531 0.059977 0.569082
C174 C 0.1760(10) 0.0326(7) 0.5052(4)
C175 C 0.1709(14) 0.0218(9) 0.4700(4)
H95 H 0.198170 0.037468 0.452830
C176 C 0.1256(10) 0.0010(8) 0.5204(4)
N33 N 0.5748(11) 0.4862(8) 0.6613(5)
N34 N 0.5912(12) 0.4986(9) 0.6277(5)
N35 N 0.9864(12) 0.9016(6) 0.7863(4)
C177 C 0.6138(16) 0.5184(11) 0.6815(5)
H97 H 0.607851 0.521245 0.705027
C178 C 0.6638(12) 0.5467(9) 0.6622(5)
C179 C 0.6412(13) 0.5383(9) 0.6284(5)
H98 H 0.657182 0.556463 0.609450
C180 C 0.7114(14) 0.5885(10) 0.6761(6)
C181 C 0.7273(15) 0.5920(9) 0.7101(6)
H99 H 0.708387 0.568450 0.725432
C182 C 0.7729(17) 0.6319(9) 0.7220(6)
C183 C 0.7995(16) 0.6672(9) 0.6990(5)
C184 C 0.7898(19) 0.6614(10) 0.6634(6)
C185 C 0.759(2) 0.6142(12) 0.6536(7)
H100 H 0.770378 0.600358 0.632370
C186 C 0.791(2) 0.6354(11) 0.7568(6)
H101 H 0.776042 0.610699 0.772138
C187 C 0.833(2) 0.6760(10) 0.7678(7)
H102 H 0.845111 0.678205 0.790930
C188 C 0.857(2) 0.7137(9) 0.7459(6)
C189 C 0.847(2) 0.7074(10) 0.7107(5)
C190 C 0.8702(18) 0.7462(9) 0.6878(5)
C191 C 0.857(2) 0.7380(11) 0.6515(6)
H103 H 0.868859 0.763392 0.635964
C192 C 0.829(2) 0.6941(12) 0.6401(6)
H104 H 0.834326 0.684844 0.617270
C193 C 0.8849(19) 0.7598(9) 0.7589(6)
H105 H 0.882953 0.767237 0.782133
C194 C 0.9158(16) 0.7940(7) 0.7354(5)
C195 C 0.9154(19) 0.7846(10) 0.7008(6)
H106 H 0.944881 0.803649 0.686111
C196 C 0.9551(16) 0.8390(7) 0.7497(5)
C197 C 0.9567(15) 0.8559(7) 0.7835(5)
H107 H 0.938957 0.837309 0.801937
C198 C 0.9892(14) 0.8772(7) 0.7319(4)
H108 H 0.997327 0.877135 0.708411
N37 N 0.3816(12) 0.4968(8) 0.7188(3)
N38 N 0.4073(11) 0.4847(8) 0.6878(3)
C199 C 0.3288(14) 0.5324(10) 0.7154(4)
H109 H 0.302612 0.546255 0.733550
C200 C 0.3183(12) 0.5456(8) 0.6814(4)
C201 C 0.3681(14) 0.5135(10) 0.6640(4)
H110 H 0.373878 0.511875 0.640363
C202 C 0.2686(16) 0.5849(9) 0.6677(4)
C203 C 0.2389(16) 0.6213(9) 0.6881(5)
H111 H 0.247894 0.620558 0.711490
C204 C 0.1947(16) 0.6600(9) 0.6742(4)
C205 C 0.1807(14) 0.6590(8) 0.6399(4)
C206 C 0.2134(16) 0.6240(9) 0.6174(4)
C207 C 0.2557(15) 0.5856(8) 0.6320(4)
H112 H 0.275577 0.560416 0.618216
C208 C 0.1628(19) 0.6972(11) 0.6960(5)
H113 H 0.169535 0.695944 0.719593
C209 C 0.1211(18) 0.7356(10) 0.6810(4)
H114 H 0.096094 0.758344 0.694990
C210 C 0.1162(16) 0.7406(9) 0.6454(4)
C211 C 0.1396(15) 0.7006(8) 0.6248(4)
C212 C 0.1277(16) 0.7023(9) 0.5887(4)
C213 C 0.159(2) 0.6632(10) 0.5681(5)
H115 H 0.148346 0.662512 0.544813
C214 C 0.2038(19) 0.6275(11) 0.5809(4)
H116 H 0.228358 0.605285 0.566430
C215 C 0.0714(15) 0.7804(8) 0.6310(4)
H117 H 0.046936 0.803379 0.645017
C216 C 0.0660(11) 0.7832(6) 0.5951(4)
C217 C 0.0932(16) 0.7452(8) 0.5752(5)
H118 H 0.088563 0.747892 0.551574
C218 C 0.0357(12) 0.8309(6) 0.5801(4)
C220 C 0.0397(14) 0.8437(7) 0.5455(4)
H120 H 0.059917 0.823746 0.528279
Co8 Co 0.4920(2) 0.44265(15) 0.67457(9)
Co9 Co 0.5421(2) 0.47095(18) 0.58760(10)
N54 N 0.5136(12) 0.4016(6) 0.7137(4)
N55 N 0.4864(12) 0.4016(6) 0.2863(4)
N62 N 0.4703(15) 0.5453(6) 0.5374(4)
N63 N 0.5297(15) 0.5453(6) 0.4626(4)
N64 N 0.4921(13) 0.5336(7) 0.5700(5)
N65 N 0.5079(13) 0.5336(7) 0.4300(5)
Co20 Co 0.4404(3) 0.47806(14) 0.75893(8)
Co21 Co 0.5596(3) 0.47806(14) 0.24107(8)
Co34_2 Co 1.000000 0.93260(19) 0.500000
N7 N 0.8788(10) 0.9858(7) 0.5348(4)
N8 N 0.9100(8) 0.9744(6) 0.5046(3)
H24 H 0.882844 0.998269 0.456149
N17 N 0.0792(10) 0.9690(7) 0.6670(3)
C89 C 0.1151(13) 0.9401(8) 0.6438(4)
H49 H 0.106610 0.941194 0.620312
C90 C 0.1667(13) 0.9082(9) 0.6596(4)
C91 C 0.1626(14) 0.9228(8) 0.6938(4)
H50 H 0.191537 0.909662 0.711359
C92 C 0.2158(13) 0.8700(9) 0.6444(4)
C93 C 0.2115(16) 0.8569(9) 0.6107(5)
H51 H 0.179020 0.873919 0.596307
C94 C 0.2559(14) 0.8178(8) 0.5974(4)
C95 C 0.2948(14) 0.7879(8) 0.6201(5)
C96 C 0.2964(16) 0.7978(9) 0.6550(5)
C97 C 0.2505(16) 0.8361(10) 0.6675(5)
H52 H 0.242632 0.839286 0.690955
C98 C 0.2575(16) 0.8063(8) 0.5624(5)
H53 H 0.237436 0.828577 0.546469
C99 C 0.2892(16) 0.7617(9) 0.5518(5)
H54 H 0.284569 0.752375 0.528949
C100 C 0.3279(15) 0.7297(9) 0.5739(5)
C101 C 0.3314(14) 0.7424(8) 0.6083(5)
C102 C 0.3758(18) 0.7139(9) 0.6315(5)
C103 C 0.376(2) 0.7281(10) 0.6670(6)
H55 H 0.406735 0.711217 0.682042
C104 C 0.332(2) 0.7646(12) 0.6789(6)
H56 H 0.325444 0.768564 0.702319
C105 C 0.3759(18) 0.6922(9) 0.5602(5)
H57 H 0.388622 0.690937 0.537164
C106 C 0.4027(17) 0.6566(7) 0.5846(5)
C107 C 0.4122(17) 0.6707(9) 0.6183(5)
H58 H 0.442735 0.651744 0.632516
C108 C 0.4362(15) 0.6080(7) 0.5722(5)
C109 C 0.4395(18) 0.5904(8) 0.5388(5)
H59 H 0.422291 0.608080 0.519830
C110 C 0.4680(15) 0.5709(7) 0.5917(5)
H60 H 0.472534 0.571010 0.615398
H96 H 0.117156 0.998269 0.543851
N41 N 0.9208(10) 0.9690(7) 0.3330(3)
N42 N 0.8904(11) 0.9595(7) 0.3021(3)
C221 C 0.8849(13) 0.9401(8) 0.3562(4)
H121 H 0.893390 0.941194 0.379688
C222 C 0.8333(13) 0.9082(9) 0.3404(4)
C223 C 0.8374(14) 0.9228(8) 0.3062(4)
H122 H 0.808463 0.909662 0.288641
C224 C 0.7842(13) 0.8700(9) 0.3556(4)
C225 C 0.7885(16) 0.8569(9) 0.3893(5)
H123 H 0.820980 0.873919 0.403693
C226 C 0.7441(14) 0.8178(8) 0.4026(4)
C227 C 0.7052(14) 0.7879(8) 0.3799(5)
C228 C 0.7036(16) 0.7978(9) 0.3450(5)
C229 C 0.7495(16) 0.8361(10) 0.3325(5)
H124 H 0.757368 0.839286 0.309045
C230 C 0.7425(16) 0.8063(8) 0.4376(5)
H125 H 0.762564 0.828577 0.453531
C231 C 0.7108(16) 0.7617(9) 0.4482(5)
H126 H 0.715431 0.752375 0.471051
C232 C 0.6721(15) 0.7297(9) 0.4261(5)
C233 C 0.6686(14) 0.7424(8) 0.3917(5)
C234 C 0.6242(18) 0.7139(9) 0.3685(5)
C235 C 0.624(2) 0.7281(10) 0.3330(6)
H127 H 0.593265 0.711217 0.317958
C236 C 0.668(2) 0.7646(12) 0.3211(6)
H128 H 0.674556 0.768564 0.297681
C237 C 0.6241(18) 0.6922(9) 0.4398(5)
H129 H 0.611378 0.690937 0.462836
C238 C 0.5973(17) 0.6566(7) 0.4154(5)
C239 C 0.5878(17) 0.6707(9) 0.3817(5)
H130 H 0.557265 0.651744 0.367484
C240 C 0.5638(15) 0.6080(7) 0.4278(5)
C241 C 0.5605(18) 0.5904(8) 0.4612(5)
H131 H 0.577709 0.608080 0.480170
C242 C 0.5320(15) 0.5709(7) 0.4083(5)
H132 H 0.527466 0.571010 0.384602
Co18 Co 0.9404(3) 0.97806(14) 0.25893(8)
Co25 Co 0.93021(19) 0.97023(17) 0.57895(10)
N22 N 0.9927(13) 0.0414(7) 0.2691(3)
H62 H 0.991079 0.082102 0.224360
N49 N 0.9787(9) 0.0360(6) 0.5852(4)
C22 C 0.9991(15) 0.0717(7) 0.5625(4)
H12 H 0.990705 0.069771 0.539050
N12 N 0.9905(10) 0.9149(6) 0.2466(3)
N39 N 0.9811(10) 0.9058(6) 0.5716(3)
C219 C 0.9973(12) 0.8704(7) 0.5948(4)
H119 H 0.984388 0.872075 0.617855
N57 N 0.8816(12) 0.9968(8) 0.2188(3)
N70 N 0.8796(12) 0.9525(7) 0.6209(4)
Co14 Co 0.9920(2) 0.94265(15) 0.17457(9)
N68 N 0.9042(10) 0.9671(6) 0.6528(3)
Co3_2 Co -0.000000 0.00042(19) 0.000000
N36_2 N 0.5095(10) 0.4149(6) 0.2534(3)
C177_2 C 0.1138(16) 0.0184(11) 0.1815(5)
H97_2 H 0.107851 0.021245 0.205027
C178_2 C 0.1638(12) 0.0467(9) 0.1622(5)
C179_2 C 0.1412(13) 0.0383(9) 0.1284(5)
H98_2 H 0.157182 0.056463 0.109450
C180_2 C 0.2114(14) 0.0885(10) 0.1761(6)
C181_2 C 0.2273(15) 0.0920(9) 0.2101(6)
H99_2 H 0.208387 0.068450 0.225432
C182_2 C 0.2729(17) 0.1319(9) 0.2220(6)
C183_2 C 0.2995(16) 0.1672(9) 0.1990(5)
C184_2 C 0.2898(19) 0.1614(10) 0.1634(6)
C185_2 C 0.259(2) 0.1142(12) 0.1536(7)
H100_2 H 0.270378 0.100358 0.132370
C186_2 C 0.291(2) 0.1354(11) 0.2568(6)
H101_2 H 0.276042 0.110699 0.272138
C187_2 C 0.333(2) 0.1760(10) 0.2678(7)
H102_2 H 0.345111 0.178205 0.290930
C188_2 C 0.357(2) 0.2137(9) 0.2459(6)
C189_2 C 0.347(2) 0.2074(10) 0.2107(5)
C190_2 C 0.3702(18) 0.2462(9) 0.1878(5)
C191_2 C 0.357(2) 0.2380(11) 0.1515(6)
H103_2 H 0.368859 0.263392 0.135964
C192_2 C 0.329(2) 0.1941(12) 0.1401(6)
H104_2 H 0.334326 0.184844 0.117270
C193_2 C 0.3849(19) 0.2598(9) 0.2589(6)
H105_2 H 0.382953 0.267237 0.282133
C194_2 C 0.4158(16) 0.2940(7) 0.2354(5)
C195_2 C 0.4154(19) 0.2846(10) 0.2008(6)
H106_2 H 0.444881 0.303649 0.186111
C196_2 C 0.4551(16) 0.3390(7) 0.2497(5)
C197_2 C 0.4567(15) 0.3559(7) 0.2835(5)
H107_2 H 0.438957 0.337309 0.301937
C198_2 C 0.4892(14) 0.3772(7) 0.2319(4)
H108_2 H 0.497327 0.377135 0.208411
N45_2 N 0.4813(13) 0.5550(6) 0.1995(3)
N46_2 N 0.5073(13) 0.5414(7) 0.2309(3)
C243_2 C 0.4487(17) 0.6005(8) 0.2027(4)
H133_2 H 0.428350 0.618607 0.184623
C244_2 C 0.4494(17) 0.6170(7) 0.2367(4)
C245_2 C 0.4927(17) 0.5803(7) 0.2531(4)
H134_2 H 0.508921 0.582102 0.275640
C246_2 C 0.4136(19) 0.6620(8) 0.2513(5)
C247_2 C 0.388(2) 0.6987(8) 0.2307(5)
H135_2 H 0.390121 0.694519 0.207050
C248_2 C 0.358(2) 0.7437(8) 0.2444(5)
C249_2 C 0.3560(16) 0.7498(8) 0.2792(5)
C250_2 C 0.3903(17) 0.7148(9) 0.3009(5)
C251_2 C 0.4249(18) 0.6718(9) 0.2869(5)
H136_2 H 0.453895 0.650540 0.300241
C252_2 C 0.333(2) 0.7832(9) 0.2232(6)
H137_2 H 0.340440 0.782282 0.199647
C253_2 C 0.298(2) 0.8231(11) 0.2384(5)
H138_2 H 0.285054 0.850631 0.224732
C254_2 C 0.279(2) 0.8252(11) 0.2731(5)
C255_2 C 0.3146(18) 0.7904(9) 0.2940(4)
C256_2 C 0.3094(19) 0.7962(10) 0.3302(5)
C257_2 C 0.3542(19) 0.7627(11) 0.3503(5)
H139_2 H 0.354622 0.766976 0.373943
C258_2 C 0.3956(19) 0.7254(11) 0.3367(6)
H140_2 H 0.427367 0.706765 0.350508
C259_2 C 0.2339(17) 0.8632(10) 0.2875(5)
H141_2 H 0.205222 0.883782 0.273573
C260_2 C 0.2329(13) 0.8696(8) 0.3236(4)
C261_2 C 0.2754(17) 0.8394(10) 0.3447(5)
H142_2 H 0.281534 0.847277 0.367746
C262_2 C 0.1832(13) 0.9082(9) 0.3396(5)
C263_2 C 0.1292(13) 0.9384(8) 0.3233(4)
H143_2 H 0.118477 0.938390 0.299959
C264_2 C 0.1713(15) 0.9156(9) 0.3745(5)
H144_2 H 0.194795 0.897918 0.391981
N60_2 N 0.6096(11) 0.4595(7) 0.1979(3)
Co34_3 Co 0.500000 0.43260(19) 0.000000
N15_2 N 0.5189(10) 0.4058(6) 0.9284(3)
N16_2 N 0.4907(11) 0.3897(6) 0.9588(3)
C67_2 C 0.1712(14) 0.0324(10) 0.7846(4)
H37_2 H 0.197388 0.046255 0.766450
C68_2 C 0.1817(12) 0.0456(8) 0.8186(4)
C69_2 C 0.1319(14) 0.0135(10) 0.8360(4)
H38_2 H 0.126122 0.011875 0.859637
C70_2 C 0.2314(16) 0.0849(9) 0.8323(4)
C71_2 C 0.2611(16) 0.1213(9) 0.8119(5)
H39_2 H 0.252106 0.120558 0.788510
C72_2 C 0.3053(16) 0.1600(9) 0.8258(4)
C73_2 C 0.3193(14) 0.1590(8) 0.8601(4)
C74_2 C 0.2866(16) 0.1240(9) 0.8826(4)
C75_2 C 0.2443(15) 0.0856(8) 0.8680(4)
H40_2 H 0.224423 0.060416 0.881784
C76_2 C 0.3372(19) 0.1972(11) 0.8040(5)
H41_2 H 0.330465 0.195944 0.780407
C77_2 C 0.3789(18) 0.2356(10) 0.8190(4)
H42_2 H 0.403906 0.258344 0.805010
C78_2 C 0.3838(16) 0.2406(9) 0.8546(4)
C79_2 C 0.3604(15) 0.2006(8) 0.8752(4)
C80_2 C 0.3723(16) 0.2023(9) 0.9113(4)
C81_2 C 0.341(2) 0.1632(10) 0.9319(5)
H43_2 H 0.351654 0.162512 0.955187
C82_2 C 0.2962(19) 0.1275(11) 0.9191(4)
H44_2 H 0.271642 0.105285 0.933570
C83_2 C 0.4286(15) 0.2804(8) 0.8690(4)
H45_2 H 0.453064 0.303379 0.854983
C84_2 C 0.4340(11) 0.2832(6) 0.9049(4)
C85_2 C 0.4068(16) 0.2452(8) 0.9248(5)
H46_2 H 0.411437 0.247892 0.948426
C86_2 C 0.4643(12) 0.3309(6) 0.9199(4)
C87_2 C 0.5027(12) 0.3704(7) 0.9052(4)
H47_2 H 0.515612 0.372075 0.882145
C88_2 C 0.4603(14) 0.3437(7) 0.9545(4)
H48_2 H 0.440083 0.323746 0.971721
Co3_3 Co -0.000000 0.00042(19) 1.000000
N50_2 N 0.5213(9) 0.5360(6) 0.9148(4)
N52_2 N 0.6212(10) 0.4858(7) 0.9652(4)
N63_2 N 0.0297(15) 0.0453(6) 0.9626(4)
N65_2 N 0.0079(13) 0.0336(7) 0.9300(5)
Co34_4 Co 0.500000 0.43260(19) 1.000000
N7_2 N 0.3788(10) 0.4858(7) 0.0348(4)
N8_2 N 0.4100(8) 0.4744(6) 0.0046(3)
H17_2 H 0.112130 0.747679 0.011118
C33_2 C 0.1489(18) 0.6756(10) 0.0069(5)
H18_2 H 0.136592 0.665382 0.028958
C39_2 C 0.2303(14) 0.6022(8) 0.0011(5)
H21_2 H 0.227068 0.595097 0.024368
C43_2 C 0.3291(14) 0.5218(9) 0.0300(4)
H23_2 H 0.301830 0.537468 0.047170
N25_2 N 0.0821(11) 0.9592(7) 0.0155(4)
N26_2 N 0.0956(10) 0.9448(6) 0.0481(4)
C134_2 C 0.1668(13) 0.8946(8) 0.0148(5)
C135_2 C 0.1470(13) 0.9073(8) 0.0478(5)
H74_2 H 0.166260 0.892133 0.067316
C136_2 C 0.2206(12) 0.8575(8) 0.0011(4)
C140_2 C 0.2930(15) 0.7797(8) 0.0110(3)
C141_2 C 0.2453(15) 0.8185(8) 0.0228(4)
H76_2 H 0.229948 0.818207 0.045555
C147_2 C 0.3575(17) 0.7009(10) 0.0206(4)
H79_2 H 0.367607 0.673212 0.034473
C148_2 C 0.3193(16) 0.7401(9) 0.0331(4)
H80_2 H 0.309662 0.741690 0.056474
N33_2 N 0.0748(11) 0.9862(8) 0.1613(5)
N34_2 N 0.0912(12) 0.9986(9) 0.1277(5)
Co9_2 Co 0.0421(2) 0.97095(18) 0.08760(10)
N59_2 N 0.5093(11) 0.3897(6) 0.0412(3)
N5_2 N 0.0096(13) 0.9100(7) 0.8972(4)
N6_2 N 0.0284(10) 0.8981(6) 0.8646(3)
C23_2 C 0.0301(16) 0.8704(7) 0.9173(4)
H13_2 H 0.021696 0.869100 0.940800
C24_2 C 0.0645(15) 0.8325(7) 0.8993(4)
C25_2 C 0.0618(15) 0.8513(8) 0.8661(4)
H14_2 H 0.080267 0.834320 0.847127
C26_2 C 0.0942(13) 0.7838(7) 0.9114(4)
C27_2 C 0.0885(14) 0.7727(8) 0.9459(4)
H15_2 H 0.061484 0.794108 0.959972
C28_2 C 0.1225(15) 0.7297(8) 0.9602(4)
C29_2 C 0.1602(13) 0.6981(7) 0.9383(4)
C30_2 C 0.1708(14) 0.7082(6) 0.9031(4)
C31_2 C 0.1337(13) 0.7511(7) 0.8895(4)
H16_2 H 0.135471 0.757645 0.866107
C32_2 C 0.1254(17) 0.7223(10) 0.9958(4)
C34_2 C 0.1904(15) 0.6430(8) 0.9866(4)
C35_2 C 0.1934(13) 0.6527(7) 0.9517(4)
C36_2 C 0.2383(13) 0.6215(7) 0.9301(4)
C37_2 C 0.2436(14) 0.6337(9) 0.8945(4)
H19_2 H 0.271851 0.613057 0.880297
C38_2 C 0.2098(15) 0.6731(8) 0.8811(4)
H20_2 H 0.211006 0.678475 0.857574
C40_2 C 0.2756(13) 0.5725(7) 0.9792(4)
C41_2 C 0.2764(12) 0.5815(7) 0.9450(4)
H22_2 H 0.303469 0.559977 0.930918
C42_2 C 0.3240(10) 0.5326(7) 0.9948(4)
C44_2 C 0.3744(10) 0.5010(8) 0.9796(4)
H24_2 H 0.382844 0.498269 0.956149
N14_2 N 0.0927(11) 0.9847(8) 0.8122(3)
N27_2 N 0.4980(11) 0.5524(5) 0.8830(4)
C133_2 C 0.1257(14) 0.9298(8) 0.9956(5)
H73_2 H 0.128168 0.932465 0.971880
C137_2 C 0.2359(15) 0.8549(9) 0.9668(4)
H75_2 H 0.212072 0.876399 0.951572
C138_2 C 0.2878(16) 0.8194(9) 0.9548(4)
C139_2 C 0.3128(13) 0.7820(8) 0.9763(4)
C142_2 C 0.307(2) 0.8183(9) 0.9202(5)
H77_2 H 0.299465 0.846197 0.906244
C143_2 C 0.3391(18) 0.7746(9) 0.9072(4)
H78_2 H 0.337589 0.768700 0.883779
C144_2 C 0.3733(14) 0.7391(7) 0.9288(3)
C145_2 C 0.3530(13) 0.7388(7) 0.9628(4)
C146_2 C 0.3831(15) 0.7017(7) 0.9853(4)
C149_2 C 0.4088(14) 0.6963(7) 0.9150(4)
H81_2 H 0.416799 0.694030 0.891494
C150_2 C 0.4319(13) 0.6573(6) 0.9367(4)
C151_2 C 0.4183(14) 0.6594(7) 0.9711(4)
H82_2 H 0.432451 0.632715 0.985141
C152_2 C 0.4660(13) 0.6113(6) 0.9215(4)
C153_2 C 0.4642(15) 0.5967(7) 0.8874(4)
H83_2 H 0.442335 0.615374 0.869893
C154_2 C 0.5009(15) 0.5717(7) 0.9375(4)
H84_2 H 0.509295 0.569771 0.960950
N41_2 N 0.4208(10) 0.4690(7) 0.8330(3)
N42_2 N 0.3904(11) 0.4595(7) 0.8021(3)
C221_2 C 0.3849(13) 0.4401(8) 0.8562(4)
H121_2 H 0.393390 0.441194 0.879688
C222_2 C 0.3333(13) 0.4082(9) 0.8404(4)
C223_2 C 0.3374(14) 0.4228(8) 0.8062(4)
H122_2 H 0.308463 0.409662 0.788641
C224_2 C 0.2842(13) 0.3700(9) 0.8556(4)
C225_2 C 0.2885(16) 0.3569(9) 0.8893(5)
H123_2 H 0.320980 0.373919 0.903693
C226_2 C 0.2441(14) 0.3178(8) 0.9026(4)
C227_2 C 0.2052(14) 0.2879(8) 0.8799(5)
C228_2 C 0.2036(16) 0.2978(9) 0.8450(5)
C229_2 C 0.2495(16) 0.3361(10) 0.8325(5)
H124_2 H 0.257368 0.339286 0.809045
C230_2 C 0.2425(16) 0.3063(8) 0.9376(5)
H125_2 H 0.262564 0.328577 0.953531
C231_2 C 0.2108(16) 0.2617(9) 0.9482(5)
H126_2 H 0.215431 0.252375 0.971051
C232_2 C 0.1721(15) 0.2297(9) 0.9261(5)
C233_2 C 0.1686(14) 0.2424(8) 0.8917(5)
C234_2 C 0.1242(18) 0.2139(9) 0.8685(5)
C235_2 C 0.124(2) 0.2281(10) 0.8330(6)
H127_2 H 0.093265 0.211217 0.817958
C236_2 C 0.168(2) 0.2646(12) 0.8211(6)
H128_2 H 0.174556 0.268564 0.797681
C237_2 C 0.1241(18) 0.1922(9) 0.9398(5)
H129_2 H 0.111378 0.190937 0.962836
C238_2 C 0.0973(17) 0.1566(7) 0.9154(5)
C239_2 C 0.0878(17) 0.1707(9) 0.8817(5)
H130_2 H 0.057265 0.151744 0.867484
C240_2 C 0.0638(15) 0.1080(7) 0.9278(5)
C241_2 C 0.0605(18) 0.0904(8) 0.9612(5)
H131_2 H 0.077709 0.108080 0.980170
C242_2 C 0.0320(15) 0.0709(7) 0.9083(5)
H132_2 H 0.027466 0.071010 0.884602
N53_2 N 0.5900(8) 0.4744(6) 0.9954(3)
N66_2 N 0.5187(13) 0.5550(6) 0.8005(3)
Co3_4 Co 1.000000 0.00042(19) 0.000000
N39_2 N 0.4811(10) 0.4058(6) 0.0716(3)
C199_2 C 0.8288(14) 0.0324(10) 0.2154(4)
H109_2 H 0.802612 0.046255 0.233550
C200_2 C 0.8183(12) 0.0456(8) 0.1814(4)
C201_2 C 0.8681(14) 0.0135(10) 0.1640(4)
H110_2 H 0.873878 0.011875 0.140363
C202_2 C 0.7686(16) 0.0849(9) 0.1677(4)
C203_2 C 0.7389(16) 0.1213(9) 0.1881(5)
H111_2 H 0.747894 0.120558 0.211490
C204_2 C 0.6947(16) 0.1600(9) 0.1742(4)
C205_2 C 0.6807(14) 0.1590(8) 0.1399(4)
C206_2 C 0.7134(16) 0.1240(9) 0.1174(4)
C207_2 C 0.7557(15) 0.0856(8) 0.1320(4)
H112_2 H 0.775577 0.060416 0.118216
C208_2 C 0.6628(19) 0.1972(11) 0.1960(5)
H113_2 H 0.669535 0.195944 0.219593
C209_2 C 0.6211(18) 0.2356(10) 0.1810(4)
H114_2 H 0.596094 0.258344 0.194990
C210_2 C 0.6162(16) 0.2406(9) 0.1454(4)
C211_2 C 0.6396(15) 0.2006(8) 0.1248(4)
C212_2 C 0.6277(16) 0.2023(9) 0.0887(4)
C213_2 C 0.659(2) 0.1632(10) 0.0681(5)
H115_2 H 0.648346 0.162512 0.044813
C214_2 C 0.7038(19) 0.1275(11) 0.0809(4)
H116_2 H 0.728358 0.105285 0.066430
C215_2 C 0.5714(15) 0.2804(8) 0.1310(4)
H117_2 H 0.546936 0.303379 0.145017
C216_2 C 0.5660(11) 0.2832(6) 0.0951(4)
C217_2 C 0.5932(16) 0.2452(8) 0.0752(5)
H118_2 H 0.588563 0.247892 0.051574
C218_2 C 0.5357(12) 0.3309(6) 0.0801(4)
C219_2 C 0.4973(12) 0.3704(7) 0.0948(4)
H119_2 H 0.484388 0.372075 0.117855
C220_2 C 0.5397(14) 0.3437(7) 0.0455(4)
H120_2 H 0.559917 0.323746 0.028279
N49_2 N 0.4787(9) 0.5360(6) 0.0852(4)
N62_2 N 0.9703(15) 0.0453(6) 0.0374(4)
N64_2 N 0.9921(13) 0.0336(7) 0.0700(5)
N12_2 N 0.4905(10) 0.4149(6) 0.7466(3)
C45_2 C 0.8862(16) 0.0184(11) 0.8185(5)
H25_2 H 0.892149 0.021245 0.794973
C46_2 C 0.8362(12) 0.0467(9) 0.8378(5)
C47_2 C 0.8588(13) 0.0383(9) 0.8716(5)
H26_2 H 0.842818 0.056463 0.890550
C48_2 C 0.7886(14) 0.0885(10) 0.8239(6)
C49_2 C 0.7727(15) 0.0920(9) 0.7899(6)
H27_2 H 0.791613 0.068450 0.774568
C50_2 C 0.7271(17) 0.1319(9) 0.7780(6)
C51_2 C 0.7005(16) 0.1672(9) 0.8010(5)
C52_2 C 0.7102(19) 0.1614(10) 0.8366(6)
C53_2 C 0.741(2) 0.1142(12) 0.8464(7)
H28_2 H 0.729622 0.100358 0.867630
C54_2 C 0.709(2) 0.1354(11) 0.7432(6)
H29_2 H 0.723958 0.110699 0.727862
C55_2 C 0.667(2) 0.1760(10) 0.7322(7)
H30_2 H 0.654889 0.178205 0.709070
C56_2 C 0.643(2) 0.2137(9) 0.7541(6)
C57_2 C 0.653(2) 0.2074(10) 0.7893(5)
C58_2 C 0.6298(18) 0.2462(9) 0.8122(5)
C59_2 C 0.643(2) 0.2380(11) 0.8485(6)
H31_2 H 0.631141 0.263392 0.864036
C60_2 C 0.671(2) 0.1941(12) 0.8599(6)
H32_2 H 0.665674 0.184844 0.882730
C61_2 C 0.6151(19) 0.2598(9) 0.7411(6)
H33_2 H 0.617047 0.267237 0.717867
C62_2 C 0.5842(16) 0.2940(7) 0.7646(5)
C63_2 C 0.5846(19) 0.2846(10) 0.7992(6)
H34_2 H 0.555119 0.303649 0.813889
C64_2 C 0.5449(16) 0.3390(7) 0.7503(5)
C65_2 C 0.5433(15) 0.3559(7) 0.7165(5)
H35_2 H 0.561043 0.337309 0.698063
C66_2 C 0.5108(14) 0.3772(7) 0.7681(4)
H36_2 H 0.502673 0.377135 0.791589
N22_2 N 0.4927(13) 0.5414(7) 0.7691(3)
C111_2 C 0.5513(17) 0.6005(8) 0.7973(4)
H61_2 H 0.571650 0.618607 0.815377
C112_2 C 0.5506(17) 0.6170(7) 0.7633(4)
C113_2 C 0.5073(17) 0.5803(7) 0.7469(4)
H62_2 H 0.491079 0.582102 0.724360
C114_2 C 0.5864(19) 0.6620(8) 0.7487(5)
C115_2 C 0.612(2) 0.6987(8) 0.7693(5)
H63_2 H 0.609879 0.694519 0.792950
C116_2 C 0.642(2) 0.7437(8) 0.7556(5)
C117_2 C 0.6440(16) 0.7498(8) 0.7208(5)
C118_2 C 0.6097(17) 0.7148(9) 0.6991(5)
C119_2 C 0.5751(18) 0.6718(9) 0.7131(5)
H64_2 H 0.546105 0.650540 0.699759
C120_2 C 0.667(2) 0.7832(9) 0.7768(6)
H65_2 H 0.659560 0.782282 0.800353
C121_2 C 0.702(2) 0.8231(11) 0.7616(5)
H66_2 H 0.714946 0.850631 0.775268
C122_2 C 0.721(2) 0.8252(11) 0.7269(5)
C123_2 C 0.6854(18) 0.7904(9) 0.7060(4)
C124_2 C 0.6906(19) 0.7962(10) 0.6698(5)
C125_2 C 0.6458(19) 0.7627(11) 0.6497(5)
H67_2 H 0.645378 0.766976 0.626057
C126_2 C 0.6044(19) 0.7254(11) 0.6633(6)
H68_2 H 0.572633 0.706765 0.649492
C127_2 C 0.7661(17) 0.8632(10) 0.7125(5)
H69_2 H 0.794778 0.883782 0.726427
C128_2 C 0.7671(13) 0.8696(8) 0.6764(4)
C129_2 C 0.7246(17) 0.8394(10) 0.6553(5)
H70_2 H 0.718466 0.847277 0.632254
C130_2 C 0.8168(13) 0.9082(9) 0.6604(5)
C131_2 C 0.8708(13) 0.9384(8) 0.6767(4)
H71_2 H 0.881523 0.938390 0.700041
C132_2 C 0.8287(15) 0.9156(9) 0.6255(5)
H72_2 H 0.805205 0.897918 0.608019
Co3_5 Co 1.000000 0.00042(19) 1.000000
N3_2 N 0.5020(11) 0.5524(5) 0.1170(4)
C1_2 C 0.8743(14) 0.9298(8) 0.0044(5)
H1_2 H 0.871832 0.932465 0.028120
C5_2 C 0.7641(15) 0.8549(9) 0.0332(4)
H3_2 H 0.787928 0.876399 0.048428
C6_2 C 0.7122(16) 0.8194(9) 0.0452(4)
C7_2 C 0.6872(13) 0.7820(8) 0.0237(4)
C10_2 C 0.693(2) 0.8183(9) 0.0798(5)
H5_2 H 0.700535 0.846197 0.093756
C11_2 C 0.6609(18) 0.7746(9) 0.0928(4)
H6_2 H 0.662411 0.768700 0.116221
C12_2 C 0.6267(14) 0.7391(7) 0.0712(3)
C13_2 C 0.6470(13) 0.7388(7) 0.0372(4)
C14_2 C 0.6169(15) 0.7017(7) 0.0147(4)
C17_2 C 0.5912(14) 0.6963(7) 0.0850(4)
H9_2 H 0.583201 0.694030 0.108506
C18_2 C 0.5681(13) 0.6573(6) 0.0633(4)
C19_2 C 0.5817(14) 0.6594(7) 0.0289(4)
H10_2 H 0.567549 0.632715 0.014859
C20_2 C 0.5340(13) 0.6113(6) 0.0785(4)
C21_2 C 0.5358(15) 0.5967(7) 0.1126(4)
H11_2 H 0.557665 0.615374 0.130107
C22_2 C 0.4991(15) 0.5717(7) 0.0625(4)
H12_2 H 0.490705 0.569771 0.039050
N17_2 N 0.5792(10) 0.4690(7) 0.1670(3)
C89_2 C 0.6151(13) 0.4401(8) 0.1438(4)
H49_2 H 0.606610 0.441194 0.120312
C90_2 C 0.6667(13) 0.4082(9) 0.1596(4)
C91_2 C 0.6626(14) 0.4228(8) 0.1938(4)
H50_2 H 0.691537 0.409662 0.211359
C92_2 C 0.7158(13) 0.3700(9) 0.1444(4)
C93_2 C 0.7115(16) 0.3569(9) 0.1107(5)
H51_2 H 0.679020 0.373919 0.096307
C94_2 C 0.7559(14) 0.3178(8) 0.0974(4)
C95_2 C 0.7948(14) 0.2879(8) 0.1201(5)
C96_2 C 0.7964(16) 0.2978(9) 0.1550(5)
C97_2 C 0.7505(16) 0.3361(10) 0.1675(5)
H52_2 H 0.742632 0.339286 0.190955
C98_2 C 0.7575(16) 0.3063(8) 0.0624(5)
H53_2 H 0.737436 0.328577 0.046469
C99_2 C 0.7892(16) 0.2617(9) 0.0518(5)
H54_2 H 0.784569 0.252375 0.028949
C100_2 C 0.8279(15) 0.2297(9) 0.0739(5)
C101_2 C 0.8314(14) 0.2424(8) 0.1083(5)
C102_2 C 0.8758(18) 0.2139(9) 0.1315(5)
C103_2 C 0.876(2) 0.2281(10) 0.1670(6)
H55_2 H 0.906735 0.211217 0.182042
C104_2 C 0.832(2) 0.2646(12) 0.1789(6)
H56_2 H 0.825444 0.268564 0.202319
C105_2 C 0.8759(18) 0.1922(9) 0.0602(5)
H57_2 H 0.888622 0.190937 0.037164
C106_2 C 0.9027(17) 0.1566(7) 0.0846(5)
C107_2 C 0.9122(17) 0.1707(9) 0.1183(5)
H58_2 H 0.942735 0.151744 0.132516
C108_2 C 0.9362(15) 0.1080(7) 0.0722(5)
C109_2 C 0.9395(18) 0.0904(8) 0.0388(5)
H59_2 H 0.922291 0.108080 0.019830
C110_2 C 0.9680(15) 0.0709(7) 0.0917(5)
H60_2 H 0.972534 0.071010 0.115398
N29_2 N 0.9904(13) 0.9100(7) 0.1028(4)
N30_2 N 0.9716(10) 0.8981(6) 0.1354(3)
C155_2 C 0.9699(16) 0.8704(7) 0.0827(4)
H85_2 H 0.978304 0.869100 0.059200
C156_2 C 0.9355(15) 0.8325(7) 0.1007(4)
C157_2 C 0.9382(15) 0.8513(8) 0.1339(4)
H86_2 H 0.919733 0.834320 0.152873
C158_2 C 0.9058(13) 0.7838(7) 0.0886(4)
C159_2 C 0.9115(14) 0.7727(8) 0.0541(4)
H87_2 H 0.938516 0.794108 0.040028
C160_2 C 0.8775(15) 0.7297(8) 0.0398(4)
C161_2 C 0.8398(13) 0.6981(7) 0.0617(4)
C162_2 C 0.8292(14) 0.7082(6) 0.0969(4)
C163_2 C 0.8663(13) 0.7511(7) 0.1105(4)
H88_2 H 0.864529 0.757645 0.133893
C164_2 C 0.8746(17) 0.7223(10) 0.0042(4)
C166_2 C 0.8096(15) 0.6430(8) 0.0134(4)
C167_2 C 0.8066(13) 0.6527(7) 0.0483(4)
C168_2 C 0.7617(13) 0.6215(7) 0.0699(4)
C169_2 C 0.7564(14) 0.6337(9) 0.1055(4)
H91_2 H 0.728149 0.613057 0.119703
C170_2 C 0.7902(15) 0.6731(8) 0.1189(4)
H92_2 H 0.788994 0.678475 0.142426
C172_2 C 0.7244(13) 0.5725(7) 0.0208(4)
C173_2 C 0.7236(12) 0.5815(7) 0.0550(4)
H94_2 H 0.696531 0.559977 0.069082
C174_2 C 0.6760(10) 0.5326(7) 0.0052(4)
C176_2 C 0.6256(10) 0.5010(8) 0.0204(4)
H96_2 H 0.617156 0.498269 0.043851
N38_2 N 0.9073(11) 0.9847(8) 0.1878(3)
N1_2 N 0.9179(11) 0.9592(7) 0.9845(4)
N2_2 N 0.9044(10) 0.9448(6) 0.9519(4)
C2_2 C 0.8332(13) 0.8946(8) 0.9852(5)
C3_2 C 0.8530(13) 0.9073(8) 0.9522(5)
H2_2 H 0.833740 0.892133 0.932684
C4_2 C 0.7794(12) 0.8575(8) 0.9989(4)
C8_2 C 0.7070(15) 0.7797(8) 0.9890(3)
C9_2 C 0.7547(15) 0.8185(8) 0.9772(4)
H4_2 H 0.770052 0.818207 0.954445
C15_2 C 0.6425(17) 0.7009(10) 0.9794(4)
H7_2 H 0.632393 0.673212 0.965527
C16_2 C 0.6807(16) 0.7401(9) 0.9669(4)
H8_2 H 0.690338 0.741690 0.943526
N9_2 N 0.9252(11) 0.9862(8) 0.8387(5)
N10_2 N 0.9088(12) 0.9986(9) 0.8723(5)
Co2_2 Co 0.9579(2) 0.97095(18) 0.91240(10)
H89_2 H 0.887870 0.747679 0.988882
C165_2 C 0.8511(18) 0.6756(10) 0.9931(5)
H90_2 H 0.863408 0.665382 0.971042
C171_2 C 0.7697(14) 0.6022(8) 0.9989(5)
H93_2 H 0.772932 0.595097 0.975632
C175_2 C 0.6709(14) 0.5218(9) 0.9700(4)
H95_2 H 0.698170 0.537468 0.952830
loop_
_geom_bond_atom_site_label_1
_geom_bond_atom_site_label_2
_geom_bond_site_symmetry_1
_geom_bond_site_symmetry_2
C87 N15 1_555 1_555
H47 C87 1_555 1_555
Co5 N15 1_555 1_555
N50 C154 1_555 1_555
H84 C154 1_555 1_555
Co10 N36 1_555 1_555
N52 Co5 1_555 1_555
N56 Co10 1_555 1_555
N60 Co10 1_555 1_555
N66 Co12 1_555 1_555
N71 Co5 1_555 1_555
N53 Co34 1_555 1_555
N59 Co34 1_555 1_555
N23 N24 1_555 1_555
N24 C132 1_555 1_555
C111 N66 1_555 1_555
H61 C111 1_555 1_555
C112 C111 1_555 1_555
C113 C112 1_555 1_555
C114 C112 1_555 1_555
C115 C114 1_555 1_555
H63 C115 1_555 1_555
C116 C115 1_555 1_555
C117 C116 1_555 1_555
C118 C117 1_555 1_555
C119 C114 1_555 1_555
H64 C119 1_555 1_555
C120 C116 1_555 1_555
H65 C120 1_555 1_555
C121 C120 1_555 1_555
H66 C121 1_555 1_555
C122 C121 1_555 1_555
C123 C117 1_555 1_555
C124 C123 1_555 1_555
C125 C124 1_555 1_555
H67 C125 1_555 1_555
C126 C118 1_555 1_555
H68 C126 1_555 1_555
C127 C122 1_555 1_555
H69 C127 1_555 1_555
C128 C127 1_555 1_555
C129 C124 1_555 1_555
H70 C129 1_555 1_555
C130 C128 1_555 1_555
C131 N23 1_555 1_555
H71 C131 1_555 1_555
C132 C130 1_555 1_555
H72 C132 1_555 1_555
N47 N48 1_555 1_555
N48 C264 1_555 1_555
C243 N45 1_555 1_555
H133 C243 1_555 1_555
C244 C243 1_555 1_555
C245 C244 1_555 1_555
C246 C244 1_555 1_555
C247 C246 1_555 1_555
H135 C247 1_555 1_555
C248 C247 1_555 1_555
C249 C248 1_555 1_555
C250 C249 1_555 1_555
C251 C246 1_555 1_555
H136 C251 1_555 1_555
C252 C248 1_555 1_555
H137 C252 1_555 1_555
C253 C252 1_555 1_555
H138 C253 1_555 1_555
C254 C253 1_555 1_555
C255 C249 1_555 1_555
C256 C255 1_555 1_555
C257 C256 1_555 1_555
H139 C257 1_555 1_555
C258 C250 1_555 1_555
H140 C258 1_555 1_555
C259 C254 1_555 1_555
H141 C259 1_555 1_555
C260 C259 1_555 1_555
C261 C256 1_555 1_555
H142 C261 1_555 1_555
C262 C260 1_555 1_555
C263 N47 1_555 1_555
H143 C263 1_555 1_555
C264 C262 1_555 1_555
H144 C264 1_555 1_555
Co26 N48 1_555 1_555
Co27 N24 1_555 1_555
Co28 N45 1_555 1_555
Co30 N23 1_555 1_555
Co31 N47 1_555 1_555
C118 C119 1_555 1_555
C122 C123 1_555 1_555
C125 C126 1_555 1_555
C128 C129 1_555 1_555
C130 C131 1_555 1_555
C250 C251 1_555 1_555
C254 C255 1_555 1_555
C257 C258 1_555 1_555
C260 C261 1_555 1_555
C262 C263 1_555 1_555
N1 N2 1_555 1_555
N2 C3 1_555 1_555
C1 N1 1_555 1_555
H1 C1 1_555 1_555
C2 C1 1_555 1_555
C3 C2 1_555 1_555
H2 C3 1_555 1_555
C4 C2 1_555 1_555
C5 C4 1_555 1_555
H3 C5 1_555 1_555
C6 C5 1_555 1_555
C7 C6 1_555 1_555
C8 C7 1_555 1_555
C9 C4 1_555 1_555
H4 C9 1_555 1_555
C10 C6 1_555 1_555
H5 C10 1_555 1_555
C11 C10 1_555 1_555
H6 C11 1_555 1_555
C12 C11 1_555 1_555
C13 C7 1_555 1_555
C14 C13 1_555 1_555
C15 C14 1_555 1_555
H7 C15 1_555 1_555
C16 C8 1_555 1_555
H8 C16 1_555 1_555
C17 C12 1_555 1_555
H9 C17 1_555 1_555
C18 C17 1_555 1_555
C19 C14 1_555 1_555
H10 C19 1_555 1_555
C20 C18 1_555 1_555
C21 N3 1_555 1_555
H11 C21 1_555 1_555
N5 N6 1_555 1_555
N6 C25 1_555 1_555
C23 N5 1_555 1_555
H13 C23 1_555 1_555
C24 C23 1_555 1_555
C25 C24 1_555 1_555
H14 C25 1_555 1_555
C26 C24 1_555 1_555
C27 C26 1_555 1_555
H15 C27 1_555 1_555
C28 C27 1_555 1_555
C29 C28 1_555 1_555
C30 C29 1_555 1_555
C31 C26 1_555 1_555
H16 C31 1_555 1_555
C32 C28 1_555 1_555
H17 C32 1_555 1_555
C33 C32 1_555 1_555
H18 C33 1_555 1_555
C34 C33 1_555 1_555
C35 C29 1_555 1_555
C36 C35 1_555 1_555
C37 C36 1_555 1_555
H19 C37 1_555 1_555
C38 C30 1_555 1_555
H20 C38 1_555 1_555
C39 C34 1_555 1_555
H21 C39 1_555 1_555
C40 C39 1_555 1_555
C41 C36 1_555 1_555
H22 C41 1_555 1_555
C42 C40 1_555 1_555
H23 C43 1_555 1_555
C44 C42 1_555 1_555
N9 N10 1_555 1_555
N10 C47 1_555 1_555
C45 N9 1_555 1_555
H25 C45 1_555 1_555
C46 C45 1_555 1_555
C47 C46 1_555 1_555
H26 C47 1_555 1_555
C48 C46 1_555 1_555
C49 C48 1_555 1_555
H27 C49 1_555 1_555
C50 C49 1_555 1_555
C51 C50 1_555 1_555
C52 C51 1_555 1_555
C53 C48 1_555 1_555
H28 C53 1_555 1_555
C54 C50 1_555 1_555
H29 C54 1_555 1_555
C55 C54 1_555 1_555
H30 C55 1_555 1_555
C56 C55 1_555 1_555
C57 C51 1_555 1_555
C58 C57 1_555 1_555
C59 C58 1_555 1_555
H31 C59 1_555 1_555
C60 C52 1_555 1_555
H32 C60 1_555 1_555
C61 C56 1_555 1_555
H33 C61 1_555 1_555
C62 C61 1_555 1_555
C63 C58 1_555 1_555
H34 C63 1_555 1_555
C64 C62 1_555 1_555
C65 N11 1_555 1_555
H35 C65 1_555 1_555
C66 C64 1_555 1_555
H36 C66 1_555 1_555
N13 N14 1_555 1_555
N14 C69 1_555 1_555
N16 C88 1_555 1_555
C67 N13 1_555 1_555
H37 C67 1_555 1_555
C68 C67 1_555 1_555
C69 C68 1_555 1_555
H38 C69 1_555 1_555
C70 C68 1_555 1_555
C71 C70 1_555 1_555
H39 C71 1_555 1_555
C72 C71 1_555 1_555
C73 C72 1_555 1_555
C74 C73 1_555 1_555
C75 C70 1_555 1_555
H40 C75 1_555 1_555
C76 C72 1_555 1_555
H41 C76 1_555 1_555
C77 C76 1_555 1_555
H42 C77 1_555 1_555
C78 C77 1_555 1_555
C79 C73 1_555 1_555
C80 C79 1_555 1_555
C81 C80 1_555 1_555
H43 C81 1_555 1_555
C82 C74 1_555 1_555
H44 C82 1_555 1_555
C83 C78 1_555 1_555
H45 C83 1_555 1_555
C84 C83 1_555 1_555
C85 C80 1_555 1_555
H46 C85 1_555 1_555
C86 C84 1_555 1_555
C88 C86 1_555 1_555
H48 C88 1_555 1_555
Co1 N6 1_555 1_555
Co2 N2 1_555 1_555
Co3 N1 1_555 1_555
N25 Co3 1_555 1_555
N26 N25 1_555 1_555
C133 N25 1_555 1_555
H73 C133 1_555 1_555
C134 C133 1_555 1_555
C135 N26 1_555 1_555
H74 C135 1_555 1_555
C136 C134 1_555 1_555
C137 C136 1_555 1_555
H75 C137 1_555 1_555
C138 C137 1_555 1_555
C139 C138 1_555 1_555
C140 C139 1_555 1_555
C141 C136 1_555 1_555
H76 C141 1_555 1_555
C142 C138 1_555 1_555
H77 C142 1_555 1_555
C143 C142 1_555 1_555
H78 C143 1_555 1_555
C144 C143 1_555 1_555
C145 C139 1_555 1_555
C146 C145 1_555 1_555
C147 C146 1_555 1_555
H79 C147 1_555 1_555
C148 C140 1_555 1_555
H80 C148 1_555 1_555
C149 C144 1_555 1_555
H81 C149 1_555 1_555
C150 C149 1_555 1_555
C151 C146 1_555 1_555
H82 C151 1_555 1_555
C152 C150 1_555 1_555
C153 N27 1_555 1_555
H83 C153 1_555 1_555
N29 N30 1_555 1_555
N30 C157 1_555 1_555
C155 N29 1_555 1_555
H85 C155 1_555 1_555
C156 C155 1_555 1_555
C157 C156 1_555 1_555
H86 C157 1_555 1_555
C158 C156 1_555 1_555
C159 C158 1_555 1_555
H87 C159 1_555 1_555
C160 C159 1_555 1_555
C161 C160 1_555 1_555
C162 C161 1_555 1_555
C163 C158 1_555 1_555
H88 C163 1_555 1_555
C164 C160 1_555 1_555
H89 C164 1_555 1_555
C165 C164 1_555 1_555
H90 C165 1_555 1_555
C166 C165 1_555 1_555
C167 C161 1_555 1_555
C168 C167 1_555 1_555
C169 C168 1_555 1_555
H91 C169 1_555 1_555
C170 C162 1_555 1_555
H92 C170 1_555 1_555
C171 C166 1_555 1_555
H93 C171 1_555 1_555
C172 C171 1_555 1_555
C173 C168 1_555 1_555
H94 C173 1_555 1_555
C174 C172 1_555 1_555
H95 C175 1_555 1_555
C176 C174 1_555 1_555
N33 N34 1_555 1_555
N34 C179 1_555 1_555
C177 N33 1_555 1_555
H97 C177 1_555 1_555
C178 C177 1_555 1_555
C179 C178 1_555 1_555
H98 C179 1_555 1_555
C180 C178 1_555 1_555
C181 C180 1_555 1_555
H99 C181 1_555 1_555
C182 C181 1_555 1_555
C183 C182 1_555 1_555
C184 C183 1_555 1_555
C185 C180 1_555 1_555
H100 C185 1_555 1_555
C186 C182 1_555 1_555
H101 C186 1_555 1_555
C187 C186 1_555 1_555
H102 C187 1_555 1_555
C188 C187 1_555 1_555
C189 C183 1_555 1_555
C190 C189 1_555 1_555
C191 C190 1_555 1_555
H103 C191 1_555 1_555
C192 C184 1_555 1_555
H104 C192 1_555 1_555
C193 C188 1_555 1_555
H105 C193 1_555 1_555
C194 C193 1_555 1_555
C195 C190 1_555 1_555
H106 C195 1_555 1_555
C196 C194 1_555 1_555
C197 N35 1_555 1_555
H107 C197 1_555 1_555
C198 C196 1_555 1_555
H108 C198 1_555 1_555
N37 N38 1_555 1_555
N38 C201 1_555 1_555
N59 C220 1_555 1_555
C199 N37 1_555 1_555
H109 C199 1_555 1_555
C200 C199 1_555 1_555
C201 C200 1_555 1_555
H110 C201 1_555 1_555
C202 C200 1_555 1_555
C203 C202 1_555 1_555
H111 C203 1_555 1_555
C204 C203 1_555 1_555
C205 C204 1_555 1_555
C206 C205 1_555 1_555
C207 C202 1_555 1_555
H112 C207 1_555 1_555
C208 C204 1_555 1_555
H113 C208 1_555 1_555
C209 C208 1_555 1_555
H114 C209 1_555 1_555
C210 C209 1_555 1_555
C211 C205 1_555 1_555
C212 C211 1_555 1_555
C213 C212 1_555 1_555
H115 C213 1_555 1_555
C214 C206 1_555 1_555
H116 C214 1_555 1_555
C215 C210 1_555 1_555
H117 C215 1_555 1_555
C216 C215 1_555 1_555
C217 C212 1_555 1_555
H118 C217 1_555 1_555
C218 C216 1_555 1_555
C220 C218 1_555 1_555
H120 C220 1_555 1_555
Co8 N30 1_555 1_555
Co9 N26 1_555 1_555
N54 Co8 1_555 1_555
N55 Co1 1_555 1_555
N62 Co3 1_555 1_555
N63 Co3 1_555 1_555
N64 Co9 1_555 1_555
N65 Co2 1_555 1_555
Co20 N37 1_555 1_555
Co21 N13 1_555 1_555
Co34_2 N16 1_555 1_555
C8 C9 1_555 1_555
C12 C13 1_555 1_555
C15 C16 1_555 1_555
C18 C19 1_555 1_555
C20 C21 1_555 1_555
N5 Co2 1_555 1_555
C30 C31 1_555 1_555
C34 C35 1_555 1_555
C37 C38 1_555 1_555
C40 C41 1_555 1_555
C42 C43 1_555 1_555
N9 Co1 1_555 1_555
N10 Co2 1_555 1_555
C52 C53 1_555 1_555
C56 C57 1_555 1_555
C59 C60 1_555 1_555
C62 C63 1_555 1_555
C64 C65 1_555 1_555
N14 Co1 1_555 1_555
C74 C75 1_555 1_555
C78 C79 1_555 1_555
C81 C82 1_555 1_555
C84 C85 1_555 1_555
C134 C135 1_555 1_555
C140 C141 1_555 1_555
C144 C145 1_555 1_555
C147 C148 1_555 1_555
C150 C151 1_555 1_555
C152 C153 1_555 1_555
N29 Co9 1_555 1_555
C162 C163 1_555 1_555
C166 C167 1_555 1_555
C169 C170 1_555 1_555
C172 C173 1_555 1_555
C174 C175 1_555 1_555
N33 Co8 1_555 1_555
N34 Co9 1_555 1_555
C184 C185 1_555 1_555
C188 C189 1_555 1_555
C191 C192 1_555 1_555
C194 C195 1_555 1_555
C196 C197 1_555 1_555
N38 Co8 1_555 1_555
C206 C207 1_555 1_555
C210 C211 1_555 1_555
C213 C214 1_555 1_555
C216 C217 1_555 1_555
N62 N64 1_555 1_555
N63 N65 1_555 1_555
N7 N8 1_555 1_555
N17 N60 1_555 1_555
N60 C91 1_555 1_555
N64 C110 1_555 1_555
C89 N17 1_555 1_555
H49 C89 1_555 1_555
C90 C89 1_555 1_555
C91 C90 1_555 1_555
H50 C91 1_555 1_555
C92 C90 1_555 1_555
C93 C92 1_555 1_555
H51 C93 1_555 1_555
C94 C93 1_555 1_555
C95 C94 1_555 1_555
C96 C95 1_555 1_555
C97 C92 1_555 1_555
H52 C97 1_555 1_555
C98 C94 1_555 1_555
H53 C98 1_555 1_555
C99 C98 1_555 1_555
H54 C99 1_555 1_555
C100 C99 1_555 1_555
C101 C95 1_555 1_555
C102 C101 1_555 1_555
C103 C102 1_555 1_555
H55 C103 1_555 1_555
C104 C96 1_555 1_555
H56 C104 1_555 1_555
C105 C100 1_555 1_555
H57 C105 1_555 1_555
C106 C105 1_555 1_555
C107 C102 1_555 1_555
H58 C107 1_555 1_555
C108 C106 1_555 1_555
C109 N62 1_555 1_555
H59 C109 1_555 1_555
C110 C108 1_555 1_555
H60 C110 1_555 1_555
Co34_2 N8 1_555 1_555
N52 N53 1_555 1_555
N41 N42 1_555 1_555
N42 C223 1_555 1_555
N65 C242 1_555 1_555
C221 N41 1_555 1_555
H121 C221 1_555 1_555
C222 C221 1_555 1_555
C223 C222 1_555 1_555
H122 C223 1_555 1_555
C224 C222 1_555 1_555
C225 C224 1_555 1_555
H123 C225 1_555 1_555
C226 C225 1_555 1_555
C227 C226 1_555 1_555
C228 C227 1_555 1_555
C229 C224 1_555 1_555
H124 C229 1_555 1_555
C230 C226 1_555 1_555
H125 C230 1_555 1_555
C231 C230 1_555 1_555
H126 C231 1_555 1_555
C232 C231 1_555 1_555
C233 C227 1_555 1_555
C234 C233 1_555 1_555
C235 C234 1_555 1_555
H127 C235 1_555 1_555
C236 C228 1_555 1_555
H128 C236 1_555 1_555
C237 C232 1_555 1_555
H129 C237 1_555 1_555
C238 C237 1_555 1_555
C239 C234 1_555 1_555
H130 C239 1_555 1_555
C240 C238 1_555 1_555
C241 N63 1_555 1_555
H131 C241 1_555 1_555
C242 C240 1_555 1_555
H132 C242 1_555 1_555
Co18 N42 1_555 1_555
Co25 N7 1_555 1_555
C96 C97 1_555 1_555
C100 C101 1_555 1_555
C103 C104 1_555 1_555
C106 C107 1_555 1_555
C108 C109 1_555 1_555
C228 C229 1_555 1_555
C232 C233 1_555 1_555
C235 C236 1_555 1_555
C238 C239 1_555 1_555
C240 C241 1_555 1_555
N49 C22 1_555 1_555
H12 C22 1_555 1_555
Co18 N12 1_555 1_555
C219 N39 1_555 1_555
H119 C219 1_555 1_555
Co25 N39 1_555 1_555
N57 Co18 1_555 1_555
N70 Co25 1_555 1_555
N55 N36_2 1_555 1_555
N36_2 C198_2 1_555 1_555
H97_2 C177_2 1_555 1_555
C178_2 C177_2 1_555 1_555
C179_2 C178_2 1_555 1_555
H98_2 C179_2 1_555 1_555
C180_2 C178_2 1_555 1_555
C181_2 C180_2 1_555 1_555
H99_2 C181_2 1_555 1_555
C182_2 C181_2 1_555 1_555
C183_2 C182_2 1_555 1_555
C184_2 C183_2 1_555 1_555
C185_2 C180_2 1_555 1_555
H100_2 C185_2 1_555 1_555
C186_2 C182_2 1_555 1_555
H101_2 C186_2 1_555 1_555
C187_2 C186_2 1_555 1_555
H102_2 C187_2 1_555 1_555
C188_2 C187_2 1_555 1_555
C189_2 C183_2 1_555 1_555
C190_2 C189_2 1_555 1_555
C191_2 C190_2 1_555 1_555
H103_2 C191_2 1_555 1_555
C192_2 C184_2 1_555 1_555
H104_2 C192_2 1_555 1_555
C193_2 C188_2 1_555 1_555
H105_2 C193_2 1_555 1_555
C194_2 C193_2 1_555 1_555
C195_2 C190_2 1_555 1_555
H106_2 C195_2 1_555 1_555
C196_2 C194_2 1_555 1_555
C197_2 N55 1_555 1_555
H107_2 C197_2 1_555 1_555
C198_2 C196_2 1_555 1_555
H108_2 C198_2 1_555 1_555
N45_2 N46_2 1_555 1_555
N46_2 C245_2 1_555 1_555
N69 N71 1_555 1_555
N71 C264_2 1_555 1_555
C243_2 N45_2 1_555 1_555
H133_2 C243_2 1_555 1_555
C244_2 C243_2 1_555 1_555
C245_2 C244_2 1_555 1_555
H134_2 C245_2 1_555 1_555
C246_2 C244_2 1_555 1_555
C247_2 C246_2 1_555 1_555
H135_2 C247_2 1_555 1_555
C248_2 C247_2 1_555 1_555
C249_2 C248_2 1_555 1_555
C250_2 C249_2 1_555 1_555
C251_2 C246_2 1_555 1_555
H136_2 C251_2 1_555 1_555
C252_2 C248_2 1_555 1_555
H137_2 C252_2 1_555 1_555
C253_2 C252_2 1_555 1_555
H138_2 C253_2 1_555 1_555
C254_2 C253_2 1_555 1_555
C255_2 C249_2 1_555 1_555
C256_2 C255_2 1_555 1_555
C257_2 C256_2 1_555 1_555
H139_2 C257_2 1_555 1_555
C258_2 C250_2 1_555 1_555
H140_2 C258_2 1_555 1_555
C259_2 C254_2 1_555 1_555
H141_2 C259_2 1_555 1_555
C260_2 C259_2 1_555 1_555
C261_2 C256_2 1_555 1_555
H142_2 C261_2 1_555 1_555
C262_2 C260_2 1_555 1_555
C263_2 N69 1_555 1_555
H143_2 C263_2 1_555 1_555
C264_2 C262_2 1_555 1_555
H144_2 C264_2 1_555 1_555
Co21 N36_2 1_555 1_555
N60_2 Co21 1_555 1_555
Co30 N45_2 1_555 1_555
C184_2 C185_2 1_555 1_555
C188_2 C189_2 1_555 1_555
C191_2 C192_2 1_555 1_555
C194_2 C195_2 1_555 1_555
C196_2 C197_2 1_555 1_555
N46_2 Co21 1_555 1_555
C250_2 C251_2 1_555 1_555
C254_2 C255_2 1_555 1_555
C257_2 C258_2 1_555 1_555
C260_2 C261_2 1_555 1_555
C262_2 C263_2 1_555 1_555
N15_2 N16_2 1_555 1_555
N16_2 C88_2 1_555 1_555
H37_2 C67_2 1_555 1_555
C68_2 C67_2 1_555 1_555
C69_2 C68_2 1_555 1_555
H38_2 C69_2 1_555 1_555
C70_2 C68_2 1_555 1_555
C71_2 C70_2 1_555 1_555
H39_2 C71_2 1_555 1_555
C72_2 C71_2 1_555 1_555
C73_2 C72_2 1_555 1_555
C74_2 C73_2 1_555 1_555
C75_2 C70_2 1_555 1_555
H40_2 C75_2 1_555 1_555
C76_2 C72_2 1_555 1_555
H41_2 C76_2 1_555 1_555
C77_2 C76_2 1_555 1_555
H42_2 C77_2 1_555 1_555
C78_2 C77_2 1_555 1_555
C79_2 C73_2 1_555 1_555
C80_2 C79_2 1_555 1_555
C81_2 C80_2 1_555 1_555
H43_2 C81_2 1_555 1_555
C82_2 C74_2 1_555 1_555
H44_2 C82_2 1_555 1_555
C83_2 C78_2 1_555 1_555
H45_2 C83_2 1_555 1_555
C84_2 C83_2 1_555 1_555
C85_2 C80_2 1_555 1_555
H46_2 C85_2 1_555 1_555
C86_2 C84_2 1_555 1_555
C87_2 N15_2 1_555 1_555
H47_2 C87_2 1_555 1_555
C88_2 C86_2 1_555 1_555
H48_2 C88_2 1_555 1_555
Co26 N15_2 1_555 1_555
N50_2 Co26 1_555 1_555
N52_2 Co26 1_555 1_555
N63_2 Co3_3 1_555 1_555
Co34_4 N16_2 1_555 1_555
C74_2 C75_2 1_555 1_555
C78_2 C79_2 1_555 1_555
C81_2 C82_2 1_555 1_555
C84_2 C85_2 1_555 1_555
C86_2 C87_2 1_555 1_555
N63_2 N65_2 1_555 1_555
N7_2 N8_2 1_555 1_555
H18_2 C33_2 1_555 1_555
H21_2 C39_2 1_555 1_555
C43_2 N7_2 1_555 1_555
H23_2 C43_2 1_555 1_555
Co34_3 N8_2 1_555 1_555
N26_2 N25_2 1_555 1_555
C135_2 N26_2 1_555 1_555
H74_2 C135_2 1_555 1_555
C136_2 C134_2 1_555 1_555
C141_2 C136_2 1_555 1_555
H76_2 C141_2 1_555 1_555
H79_2 C147_2 1_555 1_555
C148_2 C140_2 1_555 1_555
H80_2 C148_2 1_555 1_555
N33_2 N34_2 1_555 1_555
Co9_2 N26_2 1_555 1_555
N59_2 Co34_3 1_555 1_555
Co27 N7_2 1_555 1_555
C134_2 C135_2 1_555 1_555
C140_2 C141_2 1_555 1_555
C147_2 C148_2 1_555 1_555
N34_2 Co9_2 1_555 1_555
N5_2 N6_2 1_555 1_555
N6_2 C25_2 1_555 1_555
C23_2 N5_2 1_555 1_555
H13_2 C23_2 1_555 1_555
C24_2 C23_2 1_555 1_555
C25_2 C24_2 1_555 1_555
H14_2 C25_2 1_555 1_555
C26_2 C24_2 1_555 1_555
C27_2 C26_2 1_555 1_555
H15_2 C27_2 1_555 1_555
C28_2 C27_2 1_555 1_555
C29_2 C28_2 1_555 1_555
C30_2 C29_2 1_555 1_555
C31_2 C26_2 1_555 1_555
H16_2 C31_2 1_555 1_555
C32_2 C28_2 1_555 1_555
C35_2 C29_2 1_555 1_555
C36_2 C35_2 1_555 1_555
C37_2 C36_2 1_555 1_555
H19_2 C37_2 1_555 1_555
C38_2 C30_2 1_555 1_555
H20_2 C38_2 1_555 1_555
C41_2 C36_2 1_555 1_555
H22_2 C41_2 1_555 1_555
C42_2 C40_2 1_555 1_555
C44_2 C42_2 1_555 1_555
H24_2 C44_2 1_555 1_555
N56 N14_2 1_555 1_555
Co13 N6_2 1_555 1_555
N27_2 N50_2 1_555 1_555
N50_2 C154_2 1_555 1_555
H73_2 C133_2 1_555 1_555
H75_2 C137_2 1_555 1_555
C138_2 C137_2 1_555 1_555
C139_2 C138_2 1_555 1_555
C142_2 C138_2 1_555 1_555
H77_2 C142_2 1_555 1_555
C143_2 C142_2 1_555 1_555
H78_2 C143_2 1_555 1_555
C144_2 C143_2 1_555 1_555
C145_2 C139_2 1_555 1_555
C146_2 C145_2 1_555 1_555
C149_2 C144_2 1_555 1_555
H81_2 C149_2 1_555 1_555
C150_2 C149_2 1_555 1_555
C151_2 C146_2 1_555 1_555
H82_2 C151_2 1_555 1_555
C152_2 C150_2 1_555 1_555
C153_2 N27_2 1_555 1_555
H83_2 C153_2 1_555 1_555
C154_2 C152_2 1_555 1_555
H84_2 C154_2 1_555 1_555
N41_2 N42_2 1_555 1_555
N42_2 C223_2 1_555 1_555
N65_2 C242_2 1_555 1_555
C221_2 N41_2 1_555 1_555
H121_2 C221_2 1_555 1_555
C222_2 C221_2 1_555 1_555
C223_2 C222_2 1_555 1_555
H122_2 C223_2 1_555 1_555
C224_2 C222_2 1_555 1_555
C225_2 C224_2 1_555 1_555
H123_2 C225_2 1_555 1_555
C226_2 C225_2 1_555 1_555
C227_2 C226_2 1_555 1_555
C228_2 C227_2 1_555 1_555
C229_2 C224_2 1_555 1_555
H124_2 C229_2 1_555 1_555
C230_2 C226_2 1_555 1_555
H125_2 C230_2 1_555 1_555
C231_2 C230_2 1_555 1_555
H126_2 C231_2 1_555 1_555
C232_2 C231_2 1_555 1_555
C233_2 C227_2 1_555 1_555
C234_2 C233_2 1_555 1_555
C235_2 C234_2 1_555 1_555
H127_2 C235_2 1_555 1_555
C236_2 C228_2 1_555 1_555
H128_2 C236_2 1_555 1_555
C237_2 C232_2 1_555 1_555
H129_2 C237_2 1_555 1_555
C238_2 C237_2 1_555 1_555
C239_2 C234_2 1_555 1_555
H130_2 C239_2 1_555 1_555
C240_2 C238_2 1_555 1_555
C241_2 N63_2 1_555 1_555
H131_2 C241_2 1_555 1_555
C242_2 C240_2 1_555 1_555
H132_2 C242_2 1_555 1_555
Co31 N27_2 1_555 1_555
N53_2 Co34_4 1_555 1_555
N66_2 Co31 1_555 1_555
Co20 N42_2 1_555 1_555
C30_2 C31_2 1_555 1_555
C34_2 C35_2 1_555 1_555
C37_2 C38_2 1_555 1_555
C40_2 C41_2 1_555 1_555
N14_2 Co13 1_555 1_555
C144_2 C145_2 1_555 1_555
C150_2 C151_2 1_555 1_555
C152_2 C153_2 1_555 1_555
N41_2 Co31 1_555 1_555
C228_2 C229_2 1_555 1_555
C232_2 C233_2 1_555 1_555
C235_2 C236_2 1_555 1_555
C238_2 C239_2 1_555 1_555
C240_2 C241_2 1_555 1_555
N39_2 N59_2 1_555 1_555
N59_2 C220_2 1_555 1_555
H109_2 C199_2 1_555 1_555
C200_2 C199_2 1_555 1_555
C201_2 C200_2 1_555 1_555
H110_2 C201_2 1_555 1_555
C202_2 C200_2 1_555 1_555
C203_2 C202_2 1_555 1_555
H111_2 C203_2 1_555 1_555
C204_2 C203_2 1_555 1_555
C205_2 C204_2 1_555 1_555
C206_2 C205_2 1_555 1_555
C207_2 C202_2 1_555 1_555
H112_2 C207_2 1_555 1_555
C208_2 C204_2 1_555 1_555
H113_2 C208_2 1_555 1_555
C209_2 C208_2 1_555 1_555
H114_2 C209_2 1_555 1_555
C210_2 C209_2 1_555 1_555
C211_2 C205_2 1_555 1_555
C212_2 C211_2 1_555 1_555
C213_2 C212_2 1_555 1_555
H115_2 C213_2 1_555 1_555
C214_2 C206_2 1_555 1_555
H116_2 C214_2 1_555 1_555
C215_2 C210_2 1_555 1_555
H117_2 C215_2 1_555 1_555
C216_2 C215_2 1_555 1_555
C217_2 C212_2 1_555 1_555
H118_2 C217_2 1_555 1_555
C218_2 C216_2 1_555 1_555
C219_2 N39_2 1_555 1_555
H119_2 C219_2 1_555 1_555
C220_2 C218_2 1_555 1_555
H120_2 C220_2 1_555 1_555
Co27 N39_2 1_555 1_555
N49_2 Co27 1_555 1_555
N62_2 Co3_4 1_555 1_555
C206_2 C207_2 1_555 1_555
C210_2 C211_2 1_555 1_555
C213_2 C214_2 1_555 1_555
C216_2 C217_2 1_555 1_555
C218_2 C219_2 1_555 1_555
N62_2 N64_2 1_555 1_555
N54 N12_2 1_555 1_555
N12_2 C66_2 1_555 1_555
H25_2 C45_2 1_555 1_555
C46_2 C45_2 1_555 1_555
C47_2 C46_2 1_555 1_555
H26_2 C47_2 1_555 1_555
C48_2 C46_2 1_555 1_555
C49_2 C48_2 1_555 1_555
H27_2 C49_2 1_555 1_555
C50_2 C49_2 1_555 1_555
C51_2 C50_2 1_555 1_555
C52_2 C51_2 1_555 1_555
C53_2 C48_2 1_555 1_555
H28_2 C53_2 1_555 1_555
C54_2 C50_2 1_555 1_555
H29_2 C54_2 1_555 1_555
C55_2 C54_2 1_555 1_555
H30_2 C55_2 1_555 1_555
C56_2 C55_2 1_555 1_555
C57_2 C51_2 1_555 1_555
C58_2 C57_2 1_555 1_555
C59_2 C58_2 1_555 1_555
H31_2 C59_2 1_555 1_555
C60_2 C52_2 1_555 1_555
H32_2 C60_2 1_555 1_555
C61_2 C56_2 1_555 1_555
H33_2 C61_2 1_555 1_555
C62_2 C61_2 1_555 1_555
C63_2 C58_2 1_555 1_555
H34_2 C63_2 1_555 1_555
C64_2 C62_2 1_555 1_555
C65_2 N54 1_555 1_555
H35_2 C65_2 1_555 1_555
C66_2 C64_2 1_555 1_555
H36_2 C66_2 1_555 1_555
N66_2 N22_2 1_555 1_555
N22_2 C113_2 1_555 1_555
N68 N70 1_555 1_555
N70 C132_2 1_555 1_555
C111_2 N66_2 1_555 1_555
H61_2 C111_2 1_555 1_555
C112_2 C111_2 1_555 1_555
C113_2 C112_2 1_555 1_555
H62_2 C113_2 1_555 1_555
C114_2 C112_2 1_555 1_555
C115_2 C114_2 1_555 1_555
H63_2 C115_2 1_555 1_555
C116_2 C115_2 1_555 1_555
C117_2 C116_2 1_555 1_555
C118_2 C117_2 1_555 1_555
C119_2 C114_2 1_555 1_555
H64_2 C119_2 1_555 1_555
C120_2 C116_2 1_555 1_555
H65_2 C120_2 1_555 1_555
C121_2 C120_2 1_555 1_555
H66_2 C121_2 1_555 1_555
C122_2 C121_2 1_555 1_555
C123_2 C117_2 1_555 1_555
C124_2 C123_2 1_555 1_555
C125_2 C124_2 1_555 1_555
H67_2 C125_2 1_555 1_555
C126_2 C118_2 1_555 1_555
H68_2 C126_2 1_555 1_555
C127_2 C122_2 1_555 1_555
H69_2 C127_2 1_555 1_555
C128_2 C127_2 1_555 1_555
C129_2 C124_2 1_555 1_555
H70_2 C129_2 1_555 1_555
C130_2 C128_2 1_555 1_555
C131_2 N68 1_555 1_555
H71_2 C131_2 1_555 1_555
C132_2 C130_2 1_555 1_555
H72_2 C132_2 1_555 1_555
Co20 N12_2 1_555 1_555
C52_2 C53_2 1_555 1_555
C56_2 C57_2 1_555 1_555
C59_2 C60_2 1_555 1_555
C62_2 C63_2 1_555 1_555
C64_2 C65_2 1_555 1_555
N22_2 Co20 1_555 1_555
C118_2 C119_2 1_555 1_555
C122_2 C123_2 1_555 1_555
C125_2 C126_2 1_555 1_555
C128_2 C129_2 1_555 1_555
C130_2 C131_2 1_555 1_555
N3_2 N49_2 1_555 1_555
N49_2 C22_2 1_555 1_555
H1_2 C1_2 1_555 1_555
H3_2 C5_2 1_555 1_555
C6_2 C5_2 1_555 1_555
C7_2 C6_2 1_555 1_555
C10_2 C6_2 1_555 1_555
H5_2 C10_2 1_555 1_555
C11_2 C10_2 1_555 1_555
H6_2 C11_2 1_555 1_555
C12_2 C11_2 1_555 1_555
C13_2 C7_2 1_555 1_555
C14_2 C13_2 1_555 1_555
C17_2 C12_2 1_555 1_555
H9_2 C17_2 1_555 1_555
C18_2 C17_2 1_555 1_555
C19_2 C14_2 1_555 1_555
H10_2 C19_2 1_555 1_555
C20_2 C18_2 1_555 1_555
C21_2 N3_2 1_555 1_555
H11_2 C21_2 1_555 1_555
C22_2 C20_2 1_555 1_555
H12_2 C22_2 1_555 1_555
N17_2 N60_2 1_555 1_555
N60_2 C91_2 1_555 1_555
N64_2 C110_2 1_555 1_555
C89_2 N17_2 1_555 1_555
H49_2 C89_2 1_555 1_555
C90_2 C89_2 1_555 1_555
C91_2 C90_2 1_555 1_555
H50_2 C91_2 1_555 1_555
C92_2 C90_2 1_555 1_555
C93_2 C92_2 1_555 1_555
H51_2 C93_2 1_555 1_555
C94_2 C93_2 1_555 1_555
C95_2 C94_2 1_555 1_555
C96_2 C95_2 1_555 1_555
C97_2 C92_2 1_555 1_555
H52_2 C97_2 1_555 1_555
C98_2 C94_2 1_555 1_555
H53_2 C98_2 1_555 1_555
C99_2 C98_2 1_555 1_555
H54_2 C99_2 1_555 1_555
C100_2 C99_2 1_555 1_555
C101_2 C95_2 1_555 1_555
C102_2 C101_2 1_555 1_555
C103_2 C102_2 1_555 1_555
H55_2 C103_2 1_555 1_555
C104_2 C96_2 1_555 1_555
H56_2 C104_2 1_555 1_555
C105_2 C100_2 1_555 1_555
H57_2 C105_2 1_555 1_555
C106_2 C105_2 1_555 1_555
C107_2 C102_2 1_555 1_555
H58_2 C107_2 1_555 1_555
C108_2 C106_2 1_555 1_555
C109_2 N62_2 1_555 1_555
H59_2 C109_2 1_555 1_555
C110_2 C108_2 1_555 1_555
H60_2 C110_2 1_555 1_555
Co30 N3_2 1_555 1_555
N29_2 N30_2 1_555 1_555
N30_2 C157_2 1_555 1_555
C155_2 N29_2 1_555 1_555
H85_2 C155_2 1_555 1_555
C156_2 C155_2 1_555 1_555
C157_2 C156_2 1_555 1_555
H86_2 C157_2 1_555 1_555
C158_2 C156_2 1_555 1_555
C159_2 C158_2 1_555 1_555
H87_2 C159_2 1_555 1_555
C160_2 C159_2 1_555 1_555
C161_2 C160_2 1_555 1_555
C162_2 C161_2 1_555 1_555
C163_2 C158_2 1_555 1_555
H88_2 C163_2 1_555 1_555
C164_2 C160_2 1_555 1_555
C167_2 C161_2 1_555 1_555
C168_2 C167_2 1_555 1_555
C169_2 C168_2 1_555 1_555
H91_2 C169_2 1_555 1_555
C170_2 C162_2 1_555 1_555
H92_2 C170_2 1_555 1_555
C173_2 C168_2 1_555 1_555
H94_2 C173_2 1_555 1_555
C174_2 C172_2 1_555 1_555
C176_2 C174_2 1_555 1_555
H96_2 C176_2 1_555 1_555
N57 N38_2 1_555 1_555
Co14 N30_2 1_555 1_555
C12_2 C13_2 1_555 1_555
C18_2 C19_2 1_555 1_555
C20_2 C21_2 1_555 1_555
N17_2 Co30 1_555 1_555
C96_2 C97_2 1_555 1_555
C100_2 C101_2 1_555 1_555
C103_2 C104_2 1_555 1_555
C106_2 C107_2 1_555 1_555
C108_2 C109_2 1_555 1_555
C162_2 C163_2 1_555 1_555
C166_2 C167_2 1_555 1_555
C169_2 C170_2 1_555 1_555
C172_2 C173_2 1_555 1_555
N38_2 Co14 1_555 1_555
N1_2 N2_2 1_555 1_555
N2_2 C3_2 1_555 1_555
C3_2 C2_2 1_555 1_555
H2_2 C3_2 1_555 1_555
C4_2 C2_2 1_555 1_555
C9_2 C4_2 1_555 1_555
H4_2 C9_2 1_555 1_555
H7_2 C15_2 1_555 1_555
C16_2 C8_2 1_555 1_555
H8_2 C16_2 1_555 1_555
N9_2 N10_2 1_555 1_555
Co2_2 N2_2 1_555 1_555
N52_2 N53_2 1_555 1_555
H90_2 C165_2 1_555 1_555
H93_2 C171_2 1_555 1_555
C175_2 N52_2 1_555 1_555
H95_2 C175_2 1_555 1_555
C8_2 C9_2 1_555 1_555
C15_2 C16_2 1_555 1_555
N10_2 Co2_2 1_555 1_555

#END
