
###############################################################################
#
# This file contains modified crystal structure data generated from the
# MOF subset of the Cambridge Structural Database (CSD) v543 
# hosted by the Cambridge Crystallographic Data Centre (CCDC).
#
# This work is licensed under the Creative Commons
# Attribution-NonCommercial-ShareAlike 4.0 International License.
# To view a copy of this license, visit
# http://creativecommons.org/licenses/by-nc-sa/4.0/
# or send a letter to
# Creative Commons, PO Box 1866, Mountain View, CA 94042, USA.
#
# CIF created using the CSD Python API on 29 September 2022
# The structure has been converted into the P1 space group
# The structure has a 3D framework
# The original CSD entry TEFWIL is in the cubic crystal system
# The framework has been calculated to contain at least 10.0% void space
# The void calculation uses a probe of radius 1.32A, grid spacing 0.4
#
###############################################################################

data_TEFWIL
_chemical_formula_moiety         '(C504 H240 In48 N192 O384)n'
_symmetry_cell_setting           triclinic
_symmetry_space_group_name_H-M   'P 1'
_symmetry_Int_Tables_number      1
_space_group_name_Hall           'P 1'
loop_
_symmetry_equiv_pos_site_id
_symmetry_equiv_pos_as_xyz
1 x,y,z
_cell_length_a                   31.0622(7)
_cell_length_b                   31.0622(7)
_cell_length_c                   31.0622(7)
_cell_angle_alpha                90
_cell_angle_beta                 90
_cell_angle_gamma                90
_cell_volume                     29970.7
loop_
_atom_site_label
_atom_site_type_symbol
_atom_site_fract_x
_atom_site_fract_y
_atom_site_fract_z
In1 In 0.10442(2) 0.39558(2) 0.2500
O1 O 0.08179(19) 0.3265(2) 0.2148(2)
O2 O 0.09952(19) 0.2862(2) 0.1573(2)
H1 H 0.1235 0.2842 0.1235
N1 N 0.1540(2) 0.3798(2) 0.2052(2)
C1 C 0.1050(3) 0.3182(3) 0.1861(3)
C2 C 0.1450(3) 0.3461(3) 0.1784(3)
C3 C 0.1888(3) 0.3965(4) 0.1888(3)
H2 H 0.2022 0.4206 0.2022
O3 O 0.0924(2) 0.43085(19) 0.32322(18)
O4 O 0.0400(2) 0.4479(2) 0.36933(18)
H3 H 0.0000 0.4437 0.3736
N2 N 0.0364(2) 0.3946(2) 0.2660(2)
C4 C 0.0552(3) 0.4314(3) 0.3335(3)
C5 C 0.0214(2) 0.4139(2) 0.3031(3)
C6 C 0.0000 0.3843(4) 0.2461(4)
H4 H 0.0000 0.3702 0.2190
In2 In 0.10442(2) 0.2500 0.39558(2)
In3 In 0.10442(2) 0.60442(2) 0.2500
In4 In 0.2500 0.39558(2) 0.10442(2)
O5 O 0.1735(2) 0.41821(19) 0.2852(2)
O6 O 0.1735(2) 0.2852(2) 0.41821(19)
O7 O 0.08179(19) 0.2148(2) 0.3265(2)
O8 O 0.2148(2) 0.3265(2) 0.08179(19)
O9 O 0.1573(2) 0.2862(2) 0.09952(19)
O10 O 0.2138(2) 0.3427(2) 0.40048(19)
O11 O 0.2138(2) 0.40048(19) 0.3427(2)
H5 H 0.2158 0.3765 0.3765
N3 N 0.1202(2) 0.3460(2) 0.2948(2)
N4 N 0.2052(2) 0.3798(2) 0.1540(2)
N5 N 0.1202(2) 0.2948(2) 0.3460(2)
N6 N 0.1540(2) 0.2052(2) 0.3798(2)
C7 C 0.1818(3) 0.3950(3) 0.3139(3)
C8 C 0.1818(3) 0.3139(3) 0.3950(3)
C9 C 0.1861(3) 0.3182(3) 0.1050(3)
C10 C 0.1784(3) 0.3461(3) 0.1450(3)
C11 C 0.1539(3) 0.3550(3) 0.3216(3)
C12 C 0.1539(3) 0.3216(3) 0.3550(3)
C13 C 0.1035(4) 0.3112(3) 0.3112(3)
H6 H 0.0794 0.2978 0.2978
O12 O 0.06915(19) 0.4076(2) 0.17678(18)
O13 O 0.06915(19) 0.5924(2) 0.17678(18)
O14 O 0.0924(2) 0.32322(18) 0.43085(19)
O15 O 0.06915(19) 0.17678(18) 0.4076(2)
O18 O 0.0521(2) 0.4600(2) 0.13067(18)
O19 O 0.0521(2) 0.5400(2) 0.13067(18)
H7 H 0.0563 0.5000 0.1264
N7 N 0.1054(2) 0.4636(2) 0.2340(2)
N9 N 0.1054(2) 0.5364(2) 0.2340(2)
N10 N 0.0364(2) 0.2660(2) 0.3946(2)
N11 N 0.1054(2) 0.2340(2) 0.4636(2)
C14 C 0.0686(3) 0.4448(3) 0.1665(3)
C15 C 0.0686(3) 0.5552(3) 0.1665(3)
C18 C 0.0861(2) 0.4786(2) 0.1969(3)
C19 C 0.0861(2) 0.5214(2) 0.1969(3)
C20 C 0.1157(4) 0.5000 0.2539(4)
H8 H 0.1298 0.5000 0.2810
H3_2 H 1.0000 0.4437 0.3736
C6_2 C 1.0000 0.3843(4) 0.2461(4)
H4_2 H 1.0000 0.3702 0.2190
In5 In 0.89558(2) 0.39558(2) 0.2500
O16 O 0.9076(2) 0.43085(19) 0.32322(18)
O17 O 0.9600(2) 0.4479(2) 0.36933(18)
N8 N 0.9636(2) 0.3946(2) 0.2660(2)
C16 C 0.9448(3) 0.4314(3) 0.3335(3)
C17 C 0.9786(2) 0.4139(2) 0.3031(3)
In1_2 In 0.2500 0.10442(2) 0.39558(2)
O1_2 O 0.2148(2) 0.08179(19) 0.3265(2)
O2_2 O 0.1573(2) 0.09952(19) 0.2862(2)
H1_2 H 0.1235 0.1235 0.2842
N1_2 N 0.2052(2) 0.1540(2) 0.3798(2)
C1_2 C 0.1861(3) 0.1050(3) 0.3182(3)
C2_2 C 0.1784(3) 0.1450(3) 0.3461(3)
C3_2 C 0.1888(3) 0.1888(3) 0.3965(4)
H2_2 H 0.2022 0.2022 0.4206
O3_2 O 0.32322(18) 0.0924(2) 0.43085(19)
O4_2 O 0.36933(18) 0.0400(2) 0.4479(2)
H3_3 H 0.3736 0.0000 0.4437
N2_2 N 0.2660(2) 0.0364(2) 0.3946(2)
C4_2 C 0.3335(3) 0.0552(3) 0.4314(3)
C5_2 C 0.3031(3) 0.0214(2) 0.4139(2)
C6_3 C 0.2461(4) 0.0000 0.3843(4)
H4_3 H 0.2190 0.0000 0.3702
In2_2 In 0.39558(2) 0.10442(2) 0.2500
In3_2 In 0.2500 0.10442(2) 0.60442(2)
O5_2 O 0.2852(2) 0.1735(2) 0.41821(19)
O6_2 O 0.41821(19) 0.1735(2) 0.2852(2)
O7_2 O 0.3265(2) 0.08179(19) 0.2148(2)
O9_2 O 0.09952(19) 0.1573(2) 0.2862(2)
O10_2 O 0.40048(19) 0.2138(2) 0.3427(2)
O11_2 O 0.3427(2) 0.2138(2) 0.40048(19)
H5_2 H 0.3765 0.2158 0.3765
N3_2 N 0.2948(2) 0.1202(2) 0.3460(2)
N5_2 N 0.3460(2) 0.1202(2) 0.2948(2)
N6_2 N 0.3798(2) 0.1540(2) 0.2052(2)
C7_2 C 0.3139(3) 0.1818(3) 0.3950(3)
C8_2 C 0.3950(3) 0.1818(3) 0.3139(3)
C9_2 C 0.1050(3) 0.1861(3) 0.3182(3)
C10_2 C 0.1450(3) 0.1784(3) 0.3461(3)
C11_2 C 0.3216(3) 0.1539(3) 0.3550(3)
C12_2 C 0.3550(3) 0.1539(3) 0.3216(3)
C13_2 C 0.3112(3) 0.1035(4) 0.3112(3)
H6_2 H 0.2978 0.0794 0.2978
O12_2 O 0.17678(18) 0.06915(19) 0.4076(2)
O13_2 O 0.17678(18) 0.06915(19) 0.5924(2)
O14_2 O 0.43085(19) 0.0924(2) 0.32322(18)
O15_2 O 0.4076(2) 0.06915(19) 0.17678(18)
O18_2 O 0.13067(18) 0.0521(2) 0.4600(2)
O19_2 O 0.13067(18) 0.0521(2) 0.5400(2)
H7_2 H 0.1264 0.0563 0.5000
N7_2 N 0.2340(2) 0.1054(2) 0.4636(2)
N9_2 N 0.2340(2) 0.1054(2) 0.5364(2)
N10_2 N 0.3946(2) 0.0364(2) 0.2660(2)
N11_2 N 0.4636(2) 0.1054(2) 0.2340(2)
C14_2 C 0.1665(3) 0.0686(3) 0.4448(3)
C15_2 C 0.1665(3) 0.0686(3) 0.5552(3)
C18_2 C 0.1969(3) 0.0861(2) 0.4786(2)
C19_2 C 0.1969(3) 0.0861(2) 0.5214(2)
C20_2 C 0.2539(4) 0.1157(4) 0.5000
H8_2 H 0.2810 0.1298 0.5000
H3_4 H 0.3736 1.0000 0.4437
C6_4 C 0.2461(4) 1.0000 0.3843(4)
H4_4 H 0.2190 1.0000 0.3702
In5_2 In 0.2500 0.89558(2) 0.39558(2)
O16_2 O 0.32322(18) 0.9076(2) 0.43085(19)
O17_2 O 0.36933(18) 0.9600(2) 0.4479(2)
N8_2 N 0.2660(2) 0.9636(2) 0.3946(2)
C16_2 C 0.3335(3) 0.9448(3) 0.4314(3)
C17_2 C 0.3031(3) 0.9786(2) 0.4139(2)
In1_3 In 0.39558(2) 0.2500 0.10442(2)
O1_3 O 0.3265(2) 0.2148(2) 0.08179(19)
O2_3 O 0.2862(2) 0.1573(2) 0.09952(19)
H1_3 H 0.2842 0.1235 0.1235
N1_3 N 0.3798(2) 0.2052(2) 0.1540(2)
C1_3 C 0.3182(3) 0.1861(3) 0.1050(3)
C2_3 C 0.3461(3) 0.1784(3) 0.1450(3)
C3_3 C 0.3965(4) 0.1888(3) 0.1888(3)
H2_3 H 0.4206 0.2022 0.2022
O3_3 O 0.43085(19) 0.32322(18) 0.0924(2)
O4_3 O 0.4479(2) 0.36933(18) 0.0400(2)
H3_5 H 0.4437 0.3736 0.0000
N2_3 N 0.3946(2) 0.2660(2) 0.0364(2)
C4_3 C 0.4314(3) 0.3335(3) 0.0552(3)
C5_3 C 0.4139(2) 0.3031(3) 0.0214(2)
C6_5 C 0.3843(4) 0.2461(4) 0.0000
H4_5 H 0.3702 0.2190 0.0000
In3_3 In 0.60442(2) 0.2500 0.10442(2)
O5_3 O 0.41821(19) 0.2852(2) 0.1735(2)
O6_3 O 0.2852(2) 0.41821(19) 0.1735(2)
O9_3 O 0.2862(2) 0.09952(19) 0.1573(2)
O10_3 O 0.3427(2) 0.40048(19) 0.2138(2)
O11_3 O 0.40048(19) 0.3427(2) 0.2138(2)
H5_3 H 0.3765 0.3765 0.2158
N3_3 N 0.3460(2) 0.2948(2) 0.1202(2)
N5_3 N 0.2948(2) 0.3460(2) 0.1202(2)
C7_3 C 0.3950(3) 0.3139(3) 0.1818(3)
C8_3 C 0.3139(3) 0.3950(3) 0.1818(3)
C9_3 C 0.3182(3) 0.1050(3) 0.1861(3)
C10_3 C 0.3461(3) 0.1450(3) 0.1784(3)
C11_3 C 0.3550(3) 0.3216(3) 0.1539(3)
C12_3 C 0.3216(3) 0.3550(3) 0.1539(3)
C13_3 C 0.3112(3) 0.3112(3) 0.1035(4)
H6_3 H 0.2978 0.2978 0.0794
O12_3 O 0.4076(2) 0.17678(18) 0.06915(19)
O13_3 O 0.5924(2) 0.17678(18) 0.06915(19)
O14_3 O 0.32322(18) 0.43085(19) 0.0924(2)
O15_3 O 0.17678(18) 0.4076(2) 0.06915(19)
O18_3 O 0.4600(2) 0.13067(18) 0.0521(2)
O19_3 O 0.5400(2) 0.13067(18) 0.0521(2)
H7_3 H 0.5000 0.1264 0.0563
N7_3 N 0.4636(2) 0.2340(2) 0.1054(2)
N9_3 N 0.5364(2) 0.2340(2) 0.1054(2)
N10_3 N 0.2660(2) 0.3946(2) 0.0364(2)
N11_3 N 0.2340(2) 0.4636(2) 0.1054(2)
C14_3 C 0.4448(3) 0.1665(3) 0.0686(3)
C15_3 C 0.5552(3) 0.1665(3) 0.0686(3)
C18_3 C 0.4786(2) 0.1969(3) 0.0861(2)
C19_3 C 0.5214(2) 0.1969(3) 0.0861(2)
C20_3 C 0.5000 0.2539(4) 0.1157(4)
H8_3 H 0.5000 0.2810 0.1298
H3_6 H 0.4437 0.3736 1.0000
C6_6 C 0.3843(4) 0.2461(4) 1.0000
H4_6 H 0.3702 0.2190 1.0000
In5_3 In 0.39558(2) 0.2500 0.89558(2)
O16_3 O 0.43085(19) 0.32322(18) 0.9076(2)
O17_3 O 0.4479(2) 0.36933(18) 0.9600(2)
N8_3 N 0.3946(2) 0.2660(2) 0.9636(2)
C16_3 C 0.4314(3) 0.3335(3) 0.9448(3)
C17_3 C 0.4139(2) 0.3031(3) 0.9786(2)
In1_4 In 0.39558(2) 0.10442(2) 0.7500
O1_4 O 0.3265(2) 0.08179(19) 0.7852(2)
O2_4 O 0.2862(2) 0.09952(19) 0.8427(2)
H1_4 H 0.2842 0.1235 0.8765
N1_4 N 0.3798(2) 0.1540(2) 0.7948(2)
C1_4 C 0.3182(3) 0.1050(3) 0.8139(3)
C2_4 C 0.3461(3) 0.1450(3) 0.8216(3)
C3_4 C 0.3965(4) 0.1888(3) 0.8112(3)
H2_4 H 0.4206 0.2022 0.7978
O3_4 O 0.43085(19) 0.0924(2) 0.67678(18)
O4_4 O 0.4479(2) 0.0400(2) 0.63067(18)
H3_7 H 0.4437 0.0000 0.6264
N2_4 N 0.3946(2) 0.0364(2) 0.7340(2)
C4_4 C 0.4314(3) 0.0552(3) 0.6665(3)
C5_4 C 0.4139(2) 0.0214(2) 0.6969(3)
C6_7 C 0.3843(4) 0.0000 0.7539(4)
H4_7 H 0.3702 -0.0000 0.7810
In3_4 In 0.60442(2) 0.10442(2) 0.7500
O5_4 O 0.41821(19) 0.1735(2) 0.7148(2)
O6_4 O 0.2852(2) 0.1735(2) 0.58179(19)
O7_3 O 0.2148(2) 0.08179(19) 0.6735(2)
O8_2 O 0.3265(2) 0.2148(2) 0.91821(19)
O9_4 O 0.2862(2) 0.1573(2) 0.90048(19)
O10_4 O 0.3427(2) 0.2138(2) 0.59952(19)
O11_4 O 0.40048(19) 0.2138(2) 0.6573(2)
H5_4 H 0.3765 0.2158 0.6235
N3_4 N 0.3460(2) 0.1202(2) 0.7052(2)
N4_2 N 0.3798(2) 0.2052(2) 0.8460(2)
N5_4 N 0.2948(2) 0.1202(2) 0.6540(2)
N6_3 N 0.2052(2) 0.1540(2) 0.6202(2)
C7_4 C 0.3950(3) 0.1818(3) 0.6861(3)
C8_4 C 0.3139(3) 0.1818(3) 0.6050(3)
C9_4 C 0.3182(3) 0.1861(3) 0.8950(3)
C10_4 C 0.3461(3) 0.1784(3) 0.8550(3)
C11_4 C 0.3550(3) 0.1539(3) 0.6784(3)
C12_4 C 0.3216(3) 0.1539(3) 0.6450(3)
C13_4 C 0.3112(3) 0.1035(4) 0.6888(3)
H6_4 H 0.2978 0.0794 0.7022
O12_4 O 0.4076(2) 0.06915(19) 0.82322(18)
O13_4 O 0.5924(2) 0.06915(19) 0.82322(18)
O14_4 O 0.32322(18) 0.0924(2) 0.56915(19)
O18_4 O 0.4600(2) 0.0521(2) 0.86933(18)
O19_4 O 0.5400(2) 0.0521(2) 0.86933(18)
H7_4 H 0.5000 0.0563 0.8736
N7_4 N 0.4636(2) 0.1054(2) 0.7660(2)
N9_4 N 0.5364(2) 0.1054(2) 0.7660(2)
N10_4 N 0.2660(2) 0.0364(2) 0.6054(2)
C14_4 C 0.4448(3) 0.0686(3) 0.8335(3)
C15_4 C 0.5552(3) 0.0686(3) 0.8335(3)
C18_4 C 0.4786(2) 0.0861(2) 0.8031(3)
C19_4 C 0.5214(2) 0.0861(2) 0.8031(3)
C20_4 C 0.5000 0.1157(4) 0.7461(4)
H8_4 H 0.5000 0.1298 0.7190
H3_8 H 0.4437 1.0000 0.6264
C6_8 C 0.3843(4) 1.0000 0.7539(4)
H4_8 H 0.3702 1.0000 0.7810
In5_4 In 0.39558(2) 0.89558(2) 0.7500
O16_4 O 0.43085(19) 0.9076(2) 0.67678(18)
O17_4 O 0.4479(2) 0.9600(2) 0.63067(18)
N8_4 N 0.3946(2) 0.9636(2) 0.7340(2)
C16_4 C 0.4314(3) 0.9448(3) 0.6665(3)
C17_4 C 0.4139(2) 0.9786(2) 0.6969(3)
H3_9 H 0.4437 0.0000 0.3736
C6_9 C 0.3843(4) -0.0000 0.2461(4)
H4_9 H 0.3702 0.0000 0.2190
O17_5 O 0.4479(2) 0.0400(2) 0.36933(18)
C16_5 C 0.4314(3) 0.0552(3) 0.3335(3)
C17_5 C 0.4139(2) 0.0214(2) 0.3031(3)
In1_5 In 0.39558(2) 0.89558(2) 0.2500
O1_5 O 0.3265(2) 0.91821(19) 0.2148(2)
O2_5 O 0.2862(2) 0.90048(19) 0.1573(2)
H1_5 H 0.2842 0.8765 0.1235
N1_5 N 0.3798(2) 0.8460(2) 0.2052(2)
C1_5 C 0.3182(3) 0.8950(3) 0.1861(3)
C2_5 C 0.3461(3) 0.8550(3) 0.1784(3)
C3_5 C 0.3965(4) 0.8112(3) 0.1888(3)
H2_5 H 0.4206 0.7978 0.2022
O3_5 O 0.43085(19) 0.9076(2) 0.32322(18)
O4_5 O 0.4479(2) 0.9600(2) 0.36933(18)
H3_10 H 0.4437 1.0000 0.3736
N2_5 N 0.3946(2) 0.9636(2) 0.2660(2)
C4_5 C 0.4314(3) 0.9448(3) 0.3335(3)
C5_5 C 0.4139(2) 0.9786(2) 0.3031(3)
C6_10 C 0.3843(4) 1.0000 0.2461(4)
H4_10 H 0.3702 1.0000 0.2190
In3_5 In 0.60442(2) 0.89558(2) 0.2500
In4_2 In 0.39558(2) 0.7500 0.10442(2)
O5_5 O 0.41821(19) 0.8265(2) 0.2852(2)
O6_5 O 0.2852(2) 0.8265(2) 0.41821(19)
O7_4 O 0.2148(2) 0.91821(19) 0.3265(2)
O8_3 O 0.3265(2) 0.7852(2) 0.08179(19)
O9_5 O 0.2862(2) 0.8427(2) 0.09952(19)
O10_5 O 0.3427(2) 0.7862(2) 0.40048(19)
O11_5 O 0.40048(19) 0.7862(2) 0.3427(2)
H5_5 H 0.3765 0.7842 0.3765
N3_5 N 0.3460(2) 0.8798(2) 0.2948(2)
N4_3 N 0.3798(2) 0.7948(2) 0.1540(2)
N5_5 N 0.2948(2) 0.8798(2) 0.3460(2)
N6_4 N 0.2052(2) 0.8460(2) 0.3798(2)
C7_5 C 0.3950(3) 0.8182(3) 0.3139(3)
C8_5 C 0.3139(3) 0.8182(3) 0.3950(3)
C9_5 C 0.3182(3) 0.8139(3) 0.1050(3)
C10_5 C 0.3461(3) 0.8216(3) 0.1450(3)
C11_5 C 0.3550(3) 0.8461(3) 0.3216(3)
C12_5 C 0.3216(3) 0.8461(3) 0.3550(3)
C13_5 C 0.3112(3) 0.8965(4) 0.3112(3)
H6_5 H 0.2978 0.9206 0.2978
O12_5 O 0.4076(2) 0.93085(19) 0.17678(18)
O13_5 O 0.5924(2) 0.93085(19) 0.17678(18)
O15_4 O 0.17678(18) 0.93085(19) 0.4076(2)
O18_5 O 0.4600(2) 0.9479(2) 0.13067(18)
O19_5 O 0.5400(2) 0.9479(2) 0.13067(18)
H7_5 H 0.5000 0.9437 0.1264
N7_5 N 0.4636(2) 0.8946(2) 0.2340(2)
N9_5 N 0.5364(2) 0.8946(2) 0.2340(2)
N11_4 N 0.2340(2) 0.8946(2) 0.4636(2)
C14_5 C 0.4448(3) 0.9314(3) 0.1665(3)
C15_5 C 0.5552(3) 0.9314(3) 0.1665(3)
C18_5 C 0.4786(2) 0.9139(2) 0.1969(3)
C19_5 C 0.5214(2) 0.9139(2) 0.1969(3)
C20_5 C 0.5000 0.8843(4) 0.2539(4)
H8_5 H 0.5000 0.8702 0.2810
In1_6 In 0.60442(2) 0.10442(2) 0.2500
O1_6 O 0.6735(2) 0.08179(19) 0.2148(2)
O2_6 O 0.7138(2) 0.09952(19) 0.1573(2)
H1_6 H 0.7158 0.1235 0.1235
N1_6 N 0.6202(2) 0.1540(2) 0.2052(2)
C1_6 C 0.6818(3) 0.1050(3) 0.1861(3)
C2_6 C 0.6539(3) 0.1450(3) 0.1784(3)
C3_6 C 0.6035(4) 0.1888(3) 0.1888(3)
H2_6 H 0.5794 0.2022 0.2022
O3_6 O 0.56915(19) 0.0924(2) 0.32322(18)
O4_6 O 0.5521(2) 0.0400(2) 0.36933(18)
H3_11 H 0.5563 0.0000 0.3736
N2_6 N 0.6054(2) 0.0364(2) 0.2660(2)
C4_6 C 0.5686(3) 0.0552(3) 0.3335(3)
C5_6 C 0.5861(2) 0.0214(2) 0.3031(3)
C6_11 C 0.6157(4) 0.0000 0.2461(4)
H4_11 H 0.6298 0.0000 0.2190
In2_3 In 0.7500 0.10442(2) 0.39558(2)
O5_6 O 0.58179(19) 0.1735(2) 0.2852(2)
O6_6 O 0.7148(2) 0.1735(2) 0.41821(19)
O7_5 O 0.7852(2) 0.08179(19) 0.3265(2)
O8_4 O 0.6735(2) 0.2148(2) 0.08179(19)
O9_6 O 0.7138(2) 0.1573(2) 0.09952(19)
O10_6 O 0.6573(2) 0.2138(2) 0.40048(19)
O11_6 O 0.59952(19) 0.2138(2) 0.3427(2)
H5_6 H 0.6235 0.2158 0.3765
N3_6 N 0.6540(2) 0.1202(2) 0.2948(2)
N4_4 N 0.6202(2) 0.2052(2) 0.1540(2)
N5_6 N 0.7052(2) 0.1202(2) 0.3460(2)
N6_5 N 0.7948(2) 0.1540(2) 0.3798(2)
C7_6 C 0.6050(3) 0.1818(3) 0.3139(3)
C8_6 C 0.6861(3) 0.1818(3) 0.3950(3)
C9_6 C 0.6818(3) 0.1861(3) 0.1050(3)
C10_6 C 0.6539(3) 0.1784(3) 0.1450(3)
C11_6 C 0.6450(3) 0.1539(3) 0.3216(3)
C12_6 C 0.6784(3) 0.1539(3) 0.3550(3)
C13_6 C 0.6888(3) 0.1035(4) 0.3112(3)
H6_6 H 0.7022 0.0794 0.2978
O12_6 O 0.5924(2) 0.06915(19) 0.17678(18)
O14_5 O 0.67678(18) 0.0924(2) 0.43085(19)
O15_5 O 0.82322(18) 0.06915(19) 0.4076(2)
O18_6 O 0.5400(2) 0.0521(2) 0.13067(18)
O19_6 O 0.4600(2) 0.0521(2) 0.13067(18)
H7_6 H 0.5000 0.0563 0.1264
N7_6 N 0.5364(2) 0.1054(2) 0.2340(2)
N10_5 N 0.7340(2) 0.0364(2) 0.3946(2)
N11_5 N 0.7660(2) 0.1054(2) 0.4636(2)
C14_6 C 0.5552(3) 0.0686(3) 0.1665(3)
C15_6 C 0.4448(3) 0.0686(3) 0.1665(3)
C18_6 C 0.5214(2) 0.0861(2) 0.1969(3)
C19_6 C 0.4786(2) 0.0861(2) 0.1969(3)
C20_6 C 0.5000 0.1157(4) 0.2539(4)
H8_6 H 0.5000 0.1298 0.2810
H3_12 H 0.5563 1.0000 0.3736
C6_12 C 0.6157(4) 1.0000 0.2461(4)
H4_12 H 0.6298 1.0000 0.2190
O16_5 O 0.56915(19) 0.9076(2) 0.32322(18)
O17_6 O 0.5521(2) 0.9600(2) 0.36933(18)
N8_5 N 0.6054(2) 0.9636(2) 0.2660(2)
C16_6 C 0.5686(3) 0.9448(3) 0.3335(3)
C17_6 C 0.5861(2) 0.9786(2) 0.3031(3)
In1_7 In 0.10442(2) 0.2500 0.60442(2)
O1_7 O 0.08179(19) 0.2148(2) 0.6735(2)
O2_7 O 0.09952(19) 0.1573(2) 0.7138(2)
H1_7 H 0.1235 0.1235 0.7158
N1_7 N 0.1540(2) 0.2052(2) 0.6202(2)
C1_7 C 0.1050(3) 0.1861(3) 0.6818(3)
C2_7 C 0.1450(3) 0.1784(3) 0.6539(3)
C3_7 C 0.1888(3) 0.1888(3) 0.6035(4)
H2_7 H 0.2022 0.2022 0.5794
O3_7 O 0.0924(2) 0.32322(18) 0.56915(19)
O4_7 O 0.0400(2) 0.36933(18) 0.5521(2)
H3_13 H 0.0000 0.3736 0.5563
N2_7 N 0.0364(2) 0.2660(2) 0.6054(2)
C4_7 C 0.0552(3) 0.3335(3) 0.5686(3)
C5_7 C 0.0214(2) 0.3031(3) 0.5861(2)
C6_13 C 0.0000 0.2461(4) 0.6157(4)
H4_13 H 0.0000 0.2190 0.6298
In2_4 In 0.10442(2) 0.39558(2) 0.7500
O5_7 O 0.1735(2) 0.2852(2) 0.58179(19)
O6_7 O 0.1735(2) 0.41821(19) 0.7148(2)
O7_6 O 0.08179(19) 0.3265(2) 0.7852(2)
O9_7 O 0.1573(2) 0.09952(19) 0.7138(2)
O10_7 O 0.2138(2) 0.40048(19) 0.6573(2)
O11_7 O 0.2138(2) 0.3427(2) 0.59952(19)
H5_7 H 0.2158 0.3765 0.6235
N3_7 N 0.1202(2) 0.2948(2) 0.6540(2)
N5_7 N 0.1202(2) 0.3460(2) 0.7052(2)
N6_6 N 0.1540(2) 0.3798(2) 0.7948(2)
C7_7 C 0.1818(3) 0.3139(3) 0.6050(3)
C8_7 C 0.1818(3) 0.3950(3) 0.6861(3)
C9_7 C 0.1861(3) 0.1050(3) 0.6818(3)
C10_7 C 0.1784(3) 0.1450(3) 0.6539(3)
C11_7 C 0.1539(3) 0.3216(3) 0.6450(3)
C12_7 C 0.1539(3) 0.3550(3) 0.6784(3)
C13_7 C 0.1035(4) 0.3112(3) 0.6888(3)
H6_7 H 0.0794 0.2978 0.7022
O12_7 O 0.06915(19) 0.17678(18) 0.5924(2)
O14_6 O 0.0924(2) 0.43085(19) 0.67678(18)
O15_6 O 0.06915(19) 0.4076(2) 0.82322(18)
O18_7 O 0.0521(2) 0.13067(18) 0.5400(2)
O19_7 O 0.0521(2) 0.13067(18) 0.4600(2)
H7_7 H 0.0563 0.1264 0.5000
N7_7 N 0.1054(2) 0.2340(2) 0.5364(2)
N10_6 N 0.0364(2) 0.3946(2) 0.7340(2)
N11_6 N 0.1054(2) 0.4636(2) 0.7660(2)
C14_7 C 0.0686(3) 0.1665(3) 0.5552(3)
C15_7 C 0.0686(3) 0.1665(3) 0.4448(3)
C18_7 C 0.0861(2) 0.1969(3) 0.5214(2)
C19_7 C 0.0861(2) 0.1969(3) 0.4786(2)
C20_7 C 0.1157(4) 0.2539(4) 0.5000
H8_7 H 0.1298 0.2810 0.5000
H3_14 H 1.0000 0.3736 0.5563
C6_14 C 1.0000 0.2461(4) 0.6157(4)
H4_14 H 1.0000 0.2190 0.6298
In5_5 In 0.89558(2) 0.2500 0.60442(2)
O16_6 O 0.9076(2) 0.32322(18) 0.56915(19)
O17_7 O 0.9600(2) 0.36933(18) 0.5521(2)
N8_6 N 0.9636(2) 0.2660(2) 0.6054(2)
C16_7 C 0.9448(3) 0.3335(3) 0.5686(3)
C17_7 C 0.9786(2) 0.3031(3) 0.5861(2)
H3_15 H 0.0000 0.3736 0.4437
C6_15 C -0.0000 0.2461(4) 0.3843(4)
H4_15 H 0.0000 0.2190 0.3702
O17_8 O 0.0400(2) 0.36933(18) 0.4479(2)
C16_8 C 0.0552(3) 0.3335(3) 0.4314(3)
C17_8 C 0.0214(2) 0.3031(3) 0.4139(2)
In1_8 In 0.89558(2) 0.2500 0.39558(2)
O1_8 O 0.91821(19) 0.2148(2) 0.3265(2)
O2_8 O 0.90048(19) 0.1573(2) 0.2862(2)
H1_8 H 0.8765 0.1235 0.2842
N1_8 N 0.8460(2) 0.2052(2) 0.3798(2)
C1_8 C 0.8950(3) 0.1861(3) 0.3182(3)
C2_8 C 0.8550(3) 0.1784(3) 0.3461(3)
C3_8 C 0.8112(3) 0.1888(3) 0.3965(4)
H2_8 H 0.7978 0.2022 0.4206
O3_8 O 0.9076(2) 0.32322(18) 0.43085(19)
O4_8 O 0.9600(2) 0.36933(18) 0.4479(2)
H3_16 H 1.0000 0.3736 0.4437
N2_8 N 0.9636(2) 0.2660(2) 0.3946(2)
C4_8 C 0.9448(3) 0.3335(3) 0.4314(3)
C5_8 C 0.9786(2) 0.3031(3) 0.4139(2)
C6_16 C 1.0000 0.2461(4) 0.3843(4)
H4_16 H 1.0000 0.2190 0.3702
O5_8 O 0.8265(2) 0.2852(2) 0.41821(19)
O6_8 O 0.8265(2) 0.41821(19) 0.2852(2)
O7_7 O 0.91821(19) 0.3265(2) 0.2148(2)
O9_8 O 0.8427(2) 0.09952(19) 0.2862(2)
O10_8 O 0.7862(2) 0.40048(19) 0.3427(2)
O11_8 O 0.7862(2) 0.3427(2) 0.40048(19)
H5_8 H 0.7842 0.3765 0.3765
N3_8 N 0.8798(2) 0.2948(2) 0.3460(2)
N5_8 N 0.8798(2) 0.3460(2) 0.2948(2)
N6_7 N 0.8460(2) 0.3798(2) 0.2052(2)
C7_8 C 0.8182(3) 0.3139(3) 0.3950(3)
C8_8 C 0.8182(3) 0.3950(3) 0.3139(3)
C9_8 C 0.8139(3) 0.1050(3) 0.3182(3)
C10_8 C 0.8216(3) 0.1450(3) 0.3461(3)
C11_8 C 0.8461(3) 0.3216(3) 0.3550(3)
C12_8 C 0.8461(3) 0.3550(3) 0.3216(3)
C13_8 C 0.8965(4) 0.3112(3) 0.3112(3)
H6_8 H 0.9206 0.2978 0.2978
O12_8 O 0.93085(19) 0.17678(18) 0.4076(2)
O13_6 O 0.93085(19) 0.17678(18) 0.5924(2)
O15_7 O 0.93085(19) 0.4076(2) 0.17678(18)
O18_8 O 0.9479(2) 0.13067(18) 0.4600(2)
O19_8 O 0.9479(2) 0.13067(18) 0.5400(2)
H7_8 H 0.9437 0.1264 0.5000
N7_8 N 0.8946(2) 0.2340(2) 0.4636(2)
N9_6 N 0.8946(2) 0.2340(2) 0.5364(2)
N11_7 N 0.8946(2) 0.4636(2) 0.2340(2)
C14_8 C 0.9314(3) 0.1665(3) 0.4448(3)
C15_8 C 0.9314(3) 0.1665(3) 0.5552(3)
C18_8 C 0.9139(2) 0.1969(3) 0.4786(2)
C19_8 C 0.9139(2) 0.1969(3) 0.5214(2)
C20_8 C 0.8843(4) 0.2539(4) 0.5000
H8_8 H 0.8702 0.2810 0.5000
In1_9 In 0.10442(2) 0.7500 0.39558(2)
O1_9 O 0.08179(19) 0.7852(2) 0.3265(2)
O2_9 O 0.09952(19) 0.8427(2) 0.2862(2)
H1_9 H 0.1235 0.8765 0.2842
N1_9 N 0.1540(2) 0.7948(2) 0.3798(2)
C1_9 C 0.1050(3) 0.8139(3) 0.3182(3)
C2_9 C 0.1450(3) 0.8216(3) 0.3461(3)
C3_9 C 0.1888(3) 0.8112(3) 0.3965(4)
H2_9 H 0.2022 0.7978 0.4206
O3_9 O 0.0924(2) 0.67678(18) 0.43085(19)
O4_9 O 0.0400(2) 0.63067(18) 0.4479(2)
H3_17 H -0.0000 0.6264 0.4437
N2_9 N 0.0364(2) 0.7340(2) 0.3946(2)
C4_9 C 0.0552(3) 0.6665(3) 0.4314(3)
C5_9 C 0.0214(2) 0.6969(3) 0.4139(2)
C6_17 C 0.0000 0.7539(4) 0.3843(4)
H4_17 H 0.0000 0.7810 0.3702
In3_6 In 0.10442(2) 0.7500 0.60442(2)
O5_9 O 0.1735(2) 0.7148(2) 0.41821(19)
O6_9 O 0.1735(2) 0.58179(19) 0.2852(2)
O7_8 O 0.08179(19) 0.6735(2) 0.2148(2)
O9_9 O 0.1573(2) 0.90048(19) 0.2862(2)
O10_9 O 0.2138(2) 0.59952(19) 0.3427(2)
O11_9 O 0.2138(2) 0.6573(2) 0.40048(19)
H5_9 H 0.2158 0.6235 0.3765
N3_9 N 0.1202(2) 0.7052(2) 0.3460(2)
N5_9 N 0.1202(2) 0.6540(2) 0.2948(2)
N6_8 N 0.1540(2) 0.6202(2) 0.2052(2)
C7_9 C 0.1818(3) 0.6861(3) 0.3950(3)
C8_9 C 0.1818(3) 0.6050(3) 0.3139(3)
C9_9 C 0.1861(3) 0.8950(3) 0.3182(3)
C10_9 C 0.1784(3) 0.8550(3) 0.3461(3)
C11_9 C 0.1539(3) 0.6784(3) 0.3550(3)
C12_9 C 0.1539(3) 0.6450(3) 0.3216(3)
C13_9 C 0.1035(4) 0.6888(3) 0.3112(3)
H6_9 H 0.0794 0.7022 0.2978
O12_9 O 0.06915(19) 0.82322(18) 0.4076(2)
O13_7 O 0.06915(19) 0.82322(18) 0.5924(2)
O14_7 O 0.0924(2) 0.56915(19) 0.32322(18)
O18_9 O 0.0521(2) 0.86933(18) 0.4600(2)
O19_9 O 0.0521(2) 0.86933(18) 0.5400(2)
H7_9 H 0.0563 0.8736 0.5000
N7_9 N 0.1054(2) 0.7660(2) 0.4636(2)
N9_7 N 0.1054(2) 0.7660(2) 0.5364(2)
N10_7 N 0.0364(2) 0.6054(2) 0.2660(2)
C14_9 C 0.0686(3) 0.8335(3) 0.4448(3)
C15_9 C 0.0686(3) 0.8335(3) 0.5552(3)
C18_9 C 0.0861(2) 0.8031(3) 0.4786(2)
C19_9 C 0.0861(2) 0.8031(3) 0.5214(2)
C20_9 C 0.1157(4) 0.7461(4) 0.5000
H8_9 H 0.1298 0.7190 0.5000
H3_18 H 1.0000 0.6264 0.4437
C6_18 C 1.0000 0.7539(4) 0.3843(4)
H4_18 H 1.0000 0.7810 0.3702
In5_6 In 0.89558(2) 0.7500 0.39558(2)
O16_7 O 0.9076(2) 0.67678(18) 0.43085(19)
O17_9 O 0.9600(2) 0.63067(18) 0.4479(2)
N8_7 N 0.9636(2) 0.7340(2) 0.3946(2)
C16_9 C 0.9448(3) 0.6665(3) 0.4314(3)
C17_9 C 0.9786(2) 0.6969(3) 0.4139(2)
H3_19 H 0.3736 0.4437 0.0000
C6_19 C 0.2461(4) 0.3843(4) -0.0000
H4_19 H 0.2190 0.3702 -0.0000
O17_10 O 0.36933(18) 0.4479(2) 0.0400(2)
C16_10 C 0.3335(3) 0.4314(3) 0.0552(3)
C17_10 C 0.3031(3) 0.4139(2) 0.0214(2)
In1_10 In 0.2500 0.39558(2) 0.89558(2)
O1_10 O 0.2148(2) 0.3265(2) 0.91821(19)
O2_10 O 0.1573(2) 0.2862(2) 0.90048(19)
H1_10 H 0.1235 0.2842 0.8765
N1_10 N 0.2052(2) 0.3798(2) 0.8460(2)
C1_10 C 0.1861(3) 0.3182(3) 0.8950(3)
C2_10 C 0.1784(3) 0.3461(3) 0.8550(3)
C3_10 C 0.1888(3) 0.3965(4) 0.8112(3)
H2_10 H 0.2022 0.4206 0.7978
O3_10 O 0.32322(18) 0.43085(19) 0.9076(2)
O4_10 O 0.36933(18) 0.4479(2) 0.9600(2)
H3_20 H 0.3736 0.4437 1.0000
N2_10 N 0.2660(2) 0.3946(2) 0.9636(2)
C4_10 C 0.3335(3) 0.4314(3) 0.9448(3)
C5_10 C 0.3031(3) 0.4139(2) 0.9786(2)
C6_20 C 0.2461(4) 0.3843(4) 1.0000
H4_20 H 0.2190 0.3702 1.0000
In3_7 In 0.2500 0.60442(2) 0.89558(2)
O5_10 O 0.2852(2) 0.41821(19) 0.8265(2)
O6_10 O 0.41821(19) 0.2852(2) 0.8265(2)
O9_10 O 0.09952(19) 0.2862(2) 0.8427(2)
O10_10 O 0.40048(19) 0.3427(2) 0.7862(2)
O11_10 O 0.3427(2) 0.40048(19) 0.7862(2)
H5_10 H 0.3765 0.3765 0.7842
N3_10 N 0.2948(2) 0.3460(2) 0.8798(2)
N5_10 N 0.3460(2) 0.2948(2) 0.8798(2)
C7_10 C 0.3139(3) 0.3950(3) 0.8182(3)
C8_10 C 0.3950(3) 0.3139(3) 0.8182(3)
C9_10 C 0.1050(3) 0.3182(3) 0.8139(3)
C10_10 C 0.1450(3) 0.3461(3) 0.8216(3)
C11_10 C 0.3216(3) 0.3550(3) 0.8461(3)
C12_10 C 0.3550(3) 0.3216(3) 0.8461(3)
C13_10 C 0.3112(3) 0.3112(3) 0.8965(4)
H6_10 H 0.2978 0.2978 0.9206
O12_10 O 0.17678(18) 0.4076(2) 0.93085(19)
O13_8 O 0.17678(18) 0.5924(2) 0.93085(19)
O15_8 O 0.4076(2) 0.17678(18) 0.93085(19)
O18_10 O 0.13067(18) 0.4600(2) 0.9479(2)
O19_10 O 0.13067(18) 0.5400(2) 0.9479(2)
H7_10 H 0.1264 0.5000 0.9437
N7_10 N 0.2340(2) 0.4636(2) 0.8946(2)
N9_8 N 0.2340(2) 0.5364(2) 0.8946(2)
N11_8 N 0.4636(2) 0.2340(2) 0.8946(2)
C14_10 C 0.1665(3) 0.4448(3) 0.9314(3)
C15_10 C 0.1665(3) 0.5552(3) 0.9314(3)
C18_10 C 0.1969(3) 0.4786(2) 0.9139(2)
C19_10 C 0.1969(3) 0.5214(2) 0.9139(2)
C20_10 C 0.2539(4) 0.5000 0.8843(4)
H8_10 H 0.2810 0.5000 0.8702
In1_11 In 0.2500 0.60442(2) 0.10442(2)
O1_11 O 0.2148(2) 0.6735(2) 0.08179(19)
O2_11 O 0.1573(2) 0.7138(2) 0.09952(19)
H1_11 H 0.1235 0.7158 0.1235
N1_11 N 0.2052(2) 0.6202(2) 0.1540(2)
C1_11 C 0.1861(3) 0.6818(3) 0.1050(3)
C2_11 C 0.1784(3) 0.6539(3) 0.1450(3)
C3_11 C 0.1888(3) 0.6035(4) 0.1888(3)
H2_11 H 0.2022 0.5794 0.2022
O3_11 O 0.32322(18) 0.56915(19) 0.0924(2)
O4_11 O 0.36933(18) 0.5521(2) 0.0400(2)
H3_21 H 0.3736 0.5563 0.0000
N2_11 N 0.2660(2) 0.6054(2) 0.0364(2)
C4_11 C 0.3335(3) 0.5686(3) 0.0552(3)
C5_11 C 0.3031(3) 0.5861(2) 0.0214(2)
C6_21 C 0.2461(4) 0.6157(4) 0.0000
H4_21 H 0.2190 0.6298 0.0000
O5_11 O 0.2852(2) 0.58179(19) 0.1735(2)
O6_11 O 0.41821(19) 0.7148(2) 0.1735(2)
O9_11 O 0.09952(19) 0.7138(2) 0.1573(2)
O10_11 O 0.40048(19) 0.6573(2) 0.2138(2)
O11_11 O 0.3427(2) 0.59952(19) 0.2138(2)
H5_11 H 0.3765 0.6235 0.2158
N3_11 N 0.2948(2) 0.6540(2) 0.1202(2)
N5_11 N 0.3460(2) 0.7052(2) 0.1202(2)
C7_11 C 0.3139(3) 0.6050(3) 0.1818(3)
C8_11 C 0.3950(3) 0.6861(3) 0.1818(3)
C9_11 C 0.1050(3) 0.6818(3) 0.1861(3)
C10_11 C 0.1450(3) 0.6539(3) 0.1784(3)
C11_11 C 0.3216(3) 0.6450(3) 0.1539(3)
C12_11 C 0.3550(3) 0.6784(3) 0.1539(3)
C13_11 C 0.3112(3) 0.6888(3) 0.1035(4)
H6_11 H 0.2978 0.7022 0.0794
O12_11 O 0.17678(18) 0.5924(2) 0.06915(19)
O14_8 O 0.43085(19) 0.67678(18) 0.0924(2)
O15_9 O 0.4076(2) 0.82322(18) 0.06915(19)
O18_11 O 0.13067(18) 0.5400(2) 0.0521(2)
O19_11 O 0.13067(18) 0.4600(2) 0.0521(2)
H7_11 H 0.1264 0.5000 0.0563
N7_11 N 0.2340(2) 0.5364(2) 0.1054(2)
N10_8 N 0.3946(2) 0.7340(2) 0.0364(2)
N11_9 N 0.4636(2) 0.7660(2) 0.1054(2)
C14_11 C 0.1665(3) 0.5552(3) 0.0686(3)
C15_11 C 0.1665(3) 0.4448(3) 0.0686(3)
C18_11 C 0.1969(3) 0.5214(2) 0.0861(2)
C19_11 C 0.1969(3) 0.4786(2) 0.0861(2)
C20_11 C 0.2539(4) 0.5000 0.1157(4)
H8_11 H 0.2810 0.5000 0.1298
H3_22 H 0.3736 0.5563 1.0000
C6_22 C 0.2461(4) 0.6157(4) 1.0000
H4_22 H 0.2190 0.6298 1.0000
O16_8 O 0.32322(18) 0.56915(19) 0.9076(2)
O17_11 O 0.36933(18) 0.5521(2) 0.9600(2)
N8_8 N 0.2660(2) 0.6054(2) 0.9636(2)
C16_11 C 0.3335(3) 0.5686(3) 0.9448(3)
C17_11 C 0.3031(3) 0.5861(2) 0.9786(2)
In1_12 In 0.7500 0.39558(2) 0.10442(2)
O1_12 O 0.7852(2) 0.3265(2) 0.08179(19)
O2_12 O 0.8427(2) 0.2862(2) 0.09952(19)
H1_12 H 0.8765 0.2842 0.1235
N1_12 N 0.7948(2) 0.3798(2) 0.1540(2)
C1_12 C 0.8139(3) 0.3182(3) 0.1050(3)
C2_12 C 0.8216(3) 0.3461(3) 0.1450(3)
C3_12 C 0.8112(3) 0.3965(4) 0.1888(3)
H2_12 H 0.7978 0.4206 0.2022
O3_12 O 0.67678(18) 0.43085(19) 0.0924(2)
O4_12 O 0.63067(18) 0.4479(2) 0.0400(2)
H3_23 H 0.6264 0.4437 0.0000
N2_12 N 0.7340(2) 0.3946(2) 0.0364(2)
C4_12 C 0.6665(3) 0.4314(3) 0.0552(3)
C5_12 C 0.6969(3) 0.4139(2) 0.0214(2)
C6_23 C 0.7539(4) 0.3843(4) 0.0000
H4_23 H 0.7810 0.3702 0.0000
In3_8 In 0.7500 0.60442(2) 0.10442(2)
O5_12 O 0.7148(2) 0.41821(19) 0.1735(2)
O6_12 O 0.58179(19) 0.2852(2) 0.1735(2)
O9_12 O 0.90048(19) 0.2862(2) 0.1573(2)
O10_12 O 0.59952(19) 0.3427(2) 0.2138(2)
O11_12 O 0.6573(2) 0.40048(19) 0.2138(2)
H5_12 H 0.6235 0.3765 0.2158
N3_12 N 0.7052(2) 0.3460(2) 0.1202(2)
N5_12 N 0.6540(2) 0.2948(2) 0.1202(2)
C7_12 C 0.6861(3) 0.3950(3) 0.1818(3)
C8_12 C 0.6050(3) 0.3139(3) 0.1818(3)
C9_12 C 0.8950(3) 0.3182(3) 0.1861(3)
C10_12 C 0.8550(3) 0.3461(3) 0.1784(3)
C11_12 C 0.6784(3) 0.3550(3) 0.1539(3)
C12_12 C 0.6450(3) 0.3216(3) 0.1539(3)
C13_12 C 0.6888(3) 0.3112(3) 0.1035(4)
H6_12 H 0.7022 0.2978 0.0794
O12_12 O 0.82322(18) 0.4076(2) 0.06915(19)
O13_9 O 0.82322(18) 0.5924(2) 0.06915(19)
O14_9 O 0.56915(19) 0.32322(18) 0.0924(2)
O18_12 O 0.86933(18) 0.4600(2) 0.0521(2)
O19_12 O 0.86933(18) 0.5400(2) 0.0521(2)
H7_12 H 0.8736 0.5000 0.0563
N7_12 N 0.7660(2) 0.4636(2) 0.1054(2)
N9_9 N 0.7660(2) 0.5364(2) 0.1054(2)
N10_9 N 0.6054(2) 0.2660(2) 0.0364(2)
C14_12 C 0.8335(3) 0.4448(3) 0.0686(3)
C15_12 C 0.8335(3) 0.5552(3) 0.0686(3)
C18_12 C 0.8031(3) 0.4786(2) 0.0861(2)
C19_12 C 0.8031(3) 0.5214(2) 0.0861(2)
C20_12 C 0.7461(4) 0.5000 0.1157(4)
H8_12 H 0.7190 0.5000 0.1298
H3_24 H 0.6264 0.4437 1.0000
C6_24 C 0.7539(4) 0.3843(4) 1.0000
H4_24 H 0.7810 0.3702 1.0000
In5_7 In 0.7500 0.39558(2) 0.89558(2)
O16_9 O 0.67678(18) 0.43085(19) 0.9076(2)
O17_12 O 0.63067(18) 0.4479(2) 0.9600(2)
N8_9 N 0.7340(2) 0.3946(2) 0.9636(2)
C16_12 C 0.6665(3) 0.4314(3) 0.9448(3)
C17_12 C 0.6969(3) 0.4139(2) 0.9786(2)
O13_10 O 0.56915(19) 0.0924(2) 0.67678(18)
O19_13 O 0.5521(2) 0.0400(2) 0.63067(18)
H7_13 H 0.5563 0.0000 0.6264
N9_10 N 0.6054(2) 0.0364(2) 0.7340(2)
C15_13 C 0.5686(3) 0.0552(3) 0.6665(3)
C19_13 C 0.5861(2) 0.0214(2) 0.6969(3)
C20_13 C 0.6157(4) 0.0000 0.7539(4)
H8_13 H 0.6298 -0.0000 0.7810
In1_13 In 0.60442(2) 0.89558(2) 0.7500
O1_13 O 0.58179(19) 0.8265(2) 0.7148(2)
O2_13 O 0.59952(19) 0.7862(2) 0.6573(2)
H1_13 H 0.6235 0.7842 0.6235
N1_13 N 0.6540(2) 0.8798(2) 0.7052(2)
C1_13 C 0.6050(3) 0.8182(3) 0.6861(3)
C2_13 C 0.6450(3) 0.8461(3) 0.6784(3)
C3_13 C 0.6888(3) 0.8965(4) 0.6888(3)
H2_13 H 0.7022 0.9206 0.7022
O3_13 O 0.5924(2) 0.93085(19) 0.82322(18)
O4_13 O 0.5400(2) 0.9479(2) 0.86933(18)
H3_25 H 0.5000 0.9437 0.8736
N2_13 N 0.5364(2) 0.8946(2) 0.7660(2)
C4_13 C 0.5552(3) 0.9314(3) 0.8335(3)
C5_13 C 0.5214(2) 0.9139(2) 0.8031(3)
C6_25 C 0.5000 0.8843(4) 0.7461(4)
H4_25 H 0.5000 0.8702 0.7190
In2_5 In 0.60442(2) 0.7500 0.89558(2)
In4_3 In 0.7500 0.89558(2) 0.60442(2)
O5_13 O 0.6735(2) 0.91821(19) 0.7852(2)
O6_13 O 0.6735(2) 0.7852(2) 0.91821(19)
O7_9 O 0.58179(19) 0.7148(2) 0.8265(2)
O8_5 O 0.7148(2) 0.8265(2) 0.58179(19)
O9_13 O 0.6573(2) 0.7862(2) 0.59952(19)
O10_13 O 0.7138(2) 0.8427(2) 0.90048(19)
O11_13 O 0.7138(2) 0.90048(19) 0.8427(2)
H5_13 H 0.7158 0.8765 0.8765
N3_13 N 0.6202(2) 0.8460(2) 0.7948(2)
N4_5 N 0.7052(2) 0.8798(2) 0.6540(2)
N5_13 N 0.6202(2) 0.7948(2) 0.8460(2)
N6_9 N 0.6540(2) 0.7052(2) 0.8798(2)
C7_13 C 0.6818(3) 0.8950(3) 0.8139(3)
C8_13 C 0.6818(3) 0.8139(3) 0.8950(3)
C9_13 C 0.6861(3) 0.8182(3) 0.6050(3)
C10_13 C 0.6784(3) 0.8461(3) 0.6450(3)
C11_13 C 0.6539(3) 0.8550(3) 0.8216(3)
C12_13 C 0.6539(3) 0.8216(3) 0.8550(3)
C13_13 C 0.6035(4) 0.8112(3) 0.8112(3)
H6_13 H 0.5794 0.7978 0.7978
O12_13 O 0.56915(19) 0.9076(2) 0.67678(18)
O14_10 O 0.5924(2) 0.82322(18) 0.93085(19)
O15_10 O 0.56915(19) 0.67678(18) 0.9076(2)
O16_10 O 0.4076(2) 0.93085(19) 0.82322(18)
O17_13 O 0.4600(2) 0.9479(2) 0.86933(18)
O18_13 O 0.5521(2) 0.9600(2) 0.63067(18)
H7_14 H 0.5563 1.0000 0.6264
N7_13 N 0.6054(2) 0.9636(2) 0.7340(2)
N8_10 N 0.4636(2) 0.8946(2) 0.7660(2)
N10_10 N 0.5364(2) 0.7660(2) 0.8946(2)
N11_10 N 0.6054(2) 0.7340(2) 0.9636(2)
C14_13 C 0.5686(3) 0.9448(3) 0.6665(3)
C16_13 C 0.4448(3) 0.9314(3) 0.8335(3)
C17_13 C 0.4786(2) 0.9139(2) 0.8031(3)
C18_13 C 0.5861(2) 0.9786(2) 0.6969(3)
C20_14 C 0.6157(4) 1.0000 0.7539(4)
H8_14 H 0.6298 1.0000 0.7810
O13_11 O 0.67678(18) 0.56915(19) 0.0924(2)
O19_14 O 0.63067(18) 0.5521(2) 0.0400(2)
H7_15 H 0.6264 0.5563 0.0000
N9_11 N 0.7340(2) 0.6054(2) 0.0364(2)
C15_14 C 0.6665(3) 0.5686(3) 0.0552(3)
C19_14 C 0.6969(3) 0.5861(2) 0.0214(2)
C20_15 C 0.7539(4) 0.6157(4) 0.0000
H8_15 H 0.7810 0.6298 0.0000
In1_14 In 0.7500 0.60442(2) 0.89558(2)
O1_14 O 0.7148(2) 0.58179(19) 0.8265(2)
O2_14 O 0.6573(2) 0.59952(19) 0.7862(2)
H1_14 H 0.6235 0.6235 0.7842
N1_14 N 0.7052(2) 0.6540(2) 0.8798(2)
C1_14 C 0.6861(3) 0.6050(3) 0.8182(3)
C2_14 C 0.6784(3) 0.6450(3) 0.8461(3)
C3_14 C 0.6888(3) 0.6888(3) 0.8965(4)
H2_14 H 0.7022 0.7022 0.9206
O3_14 O 0.82322(18) 0.5924(2) 0.93085(19)
O4_14 O 0.86933(18) 0.5400(2) 0.9479(2)
H3_26 H 0.8736 0.5000 0.9437
N2_14 N 0.7660(2) 0.5364(2) 0.8946(2)
C4_14 C 0.8335(3) 0.5552(3) 0.9314(3)
C5_14 C 0.8031(3) 0.5214(2) 0.9139(2)
C6_26 C 0.7461(4) 0.5000 0.8843(4)
H4_26 H 0.7190 0.5000 0.8702
In2_6 In 0.89558(2) 0.60442(2) 0.7500
O5_14 O 0.7852(2) 0.6735(2) 0.91821(19)
O6_14 O 0.91821(19) 0.6735(2) 0.7852(2)
O7_10 O 0.8265(2) 0.58179(19) 0.7148(2)
O9_14 O 0.59952(19) 0.6573(2) 0.7862(2)
O10_14 O 0.90048(19) 0.7138(2) 0.8427(2)
O11_14 O 0.8427(2) 0.7138(2) 0.90048(19)
H5_14 H 0.8765 0.7158 0.8765
N3_14 N 0.7948(2) 0.6202(2) 0.8460(2)
N5_14 N 0.8460(2) 0.6202(2) 0.7948(2)
N6_10 N 0.8798(2) 0.6540(2) 0.7052(2)
C7_14 C 0.8139(3) 0.6818(3) 0.8950(3)
C8_14 C 0.8950(3) 0.6818(3) 0.8139(3)
C9_14 C 0.6050(3) 0.6861(3) 0.8182(3)
C10_14 C 0.6450(3) 0.6784(3) 0.8461(3)
C11_14 C 0.8216(3) 0.6539(3) 0.8550(3)
C12_14 C 0.8550(3) 0.6539(3) 0.8216(3)
C13_14 C 0.8112(3) 0.6035(4) 0.8112(3)
H6_14 H 0.7978 0.5794 0.7978
O12_14 O 0.67678(18) 0.56915(19) 0.9076(2)
O14_11 O 0.93085(19) 0.5924(2) 0.82322(18)
O15_11 O 0.9076(2) 0.56915(19) 0.67678(18)
O16_11 O 0.82322(18) 0.4076(2) 0.93085(19)
O17_14 O 0.86933(18) 0.4600(2) 0.9479(2)
O18_14 O 0.63067(18) 0.5521(2) 0.9600(2)
H7_16 H 0.6264 0.5563 1.0000
N7_14 N 0.7340(2) 0.6054(2) 0.9636(2)
N8_11 N 0.7660(2) 0.4636(2) 0.8946(2)
N10_11 N 0.8946(2) 0.5364(2) 0.7660(2)
N11_11 N 0.9636(2) 0.6054(2) 0.7340(2)
C14_14 C 0.6665(3) 0.5686(3) 0.9448(3)
C16_14 C 0.8335(3) 0.4448(3) 0.9314(3)
C17_14 C 0.8031(3) 0.4786(2) 0.9139(2)
C18_14 C 0.6969(3) 0.5861(2) 0.9786(2)
C20_16 C 0.7539(4) 0.6157(4) 1.0000
H8_16 H 0.7810 0.6298 1.0000
O13_12 O 0.0924(2) 0.67678(18) 0.56915(19)
O19_15 O 0.0400(2) 0.63067(18) 0.5521(2)
H7_17 H -0.0000 0.6264 0.5563
N9_12 N 0.0364(2) 0.7340(2) 0.6054(2)
C15_15 C 0.0552(3) 0.6665(3) 0.5686(3)
C19_15 C 0.0214(2) 0.6969(3) 0.5861(2)
C20_17 C -0.0000 0.7539(4) 0.6157(4)
H8_17 H -0.0000 0.7810 0.6298
In1_15 In 0.89558(2) 0.7500 0.60442(2)
O1_15 O 0.8265(2) 0.7148(2) 0.58179(19)
O2_15 O 0.7862(2) 0.6573(2) 0.59952(19)
H1_15 H 0.7842 0.6235 0.6235
N1_15 N 0.8798(2) 0.7052(2) 0.6540(2)
C1_15 C 0.8182(3) 0.6861(3) 0.6050(3)
C2_15 C 0.8461(3) 0.6784(3) 0.6450(3)
C3_15 C 0.8965(4) 0.6888(3) 0.6888(3)
H2_15 H 0.9206 0.7022 0.7022
O3_15 O 0.93085(19) 0.82322(18) 0.5924(2)
O4_15 O 0.9479(2) 0.86933(18) 0.5400(2)
H3_27 H 0.9437 0.8736 0.5000
N2_15 N 0.8946(2) 0.7660(2) 0.5364(2)
C4_15 C 0.9314(3) 0.8335(3) 0.5552(3)
C5_15 C 0.9139(2) 0.8031(3) 0.5214(2)
C6_27 C 0.8843(4) 0.7461(4) 0.5000
H4_27 H 0.8702 0.7190 0.5000
O5_15 O 0.91821(19) 0.7852(2) 0.6735(2)
O6_15 O 0.7852(2) 0.91821(19) 0.6735(2)
O9_15 O 0.7862(2) 0.59952(19) 0.6573(2)
O10_15 O 0.8427(2) 0.90048(19) 0.7138(2)
O11_15 O 0.90048(19) 0.8427(2) 0.7138(2)
H5_15 H 0.8765 0.8765 0.7158
N3_15 N 0.8460(2) 0.7948(2) 0.6202(2)
N5_15 N 0.7948(2) 0.8460(2) 0.6202(2)
C7_15 C 0.8950(3) 0.8139(3) 0.6818(3)
C8_15 C 0.8139(3) 0.8950(3) 0.6818(3)
C9_15 C 0.8182(3) 0.6050(3) 0.6861(3)
C10_15 C 0.8461(3) 0.6450(3) 0.6784(3)
C11_15 C 0.8550(3) 0.8216(3) 0.6539(3)
C12_15 C 0.8216(3) 0.8550(3) 0.6539(3)
C13_15 C 0.8112(3) 0.8112(3) 0.6035(4)
H6_15 H 0.7978 0.7978 0.5794
O12_15 O 0.9076(2) 0.67678(18) 0.56915(19)
O14_12 O 0.82322(18) 0.93085(19) 0.5924(2)
O15_12 O 0.67678(18) 0.9076(2) 0.56915(19)
O16_12 O 0.93085(19) 0.82322(18) 0.4076(2)
O17_15 O 0.9479(2) 0.86933(18) 0.4600(2)
O18_15 O 0.9600(2) 0.63067(18) 0.5521(2)
H7_18 H 1.0000 0.6264 0.5563
N7_15 N 0.9636(2) 0.7340(2) 0.6054(2)
N8_12 N 0.8946(2) 0.7660(2) 0.4636(2)
N10_12 N 0.7660(2) 0.8946(2) 0.5364(2)
N11_12 N 0.7340(2) 0.9636(2) 0.6054(2)
C14_15 C 0.9448(3) 0.6665(3) 0.5686(3)
C16_15 C 0.9314(3) 0.8335(3) 0.4448(3)
C17_15 C 0.9139(2) 0.8031(3) 0.4786(2)
C18_15 C 0.9786(2) 0.6969(3) 0.5861(2)
C20_18 C 1.0000 0.7539(4) 0.6157(4)
H8_18 H 1.0000 0.7810 0.6298
O19_16 O 0.0400(2) 0.5521(2) 0.36933(18)
H7_19 H 0.0000 0.5563 0.3736
C15_16 C 0.0552(3) 0.5686(3) 0.3335(3)
C19_16 C 0.0214(2) 0.5861(2) 0.3031(3)
C20_19 C 0.0000 0.6157(4) 0.2461(4)
H8_19 H 0.0000 0.6298 0.2190
In1_16 In 0.89558(2) 0.60442(2) 0.2500
O1_16 O 0.8265(2) 0.58179(19) 0.2852(2)
O2_16 O 0.7862(2) 0.59952(19) 0.3427(2)
H1_16 H 0.7842 0.6235 0.3765
N1_16 N 0.8798(2) 0.6540(2) 0.2948(2)
C1_16 C 0.8182(3) 0.6050(3) 0.3139(3)
C2_16 C 0.8461(3) 0.6450(3) 0.3216(3)
C3_16 C 0.8965(4) 0.6888(3) 0.3112(3)
H2_16 H 0.9206 0.7022 0.2978
O3_16 O 0.93085(19) 0.5924(2) 0.17678(18)
O4_16 O 0.9479(2) 0.5400(2) 0.13067(18)
H3_28 H 0.9437 0.5000 0.1264
N2_16 N 0.8946(2) 0.5364(2) 0.2340(2)
C4_16 C 0.9314(3) 0.5552(3) 0.1665(3)
C5_16 C 0.9139(2) 0.5214(2) 0.1969(3)
C6_28 C 0.8843(4) 0.5000 0.2539(4)
H4_28 H 0.8702 0.5000 0.2810
O5_16 O 0.91821(19) 0.6735(2) 0.2148(2)
O6_16 O 0.7852(2) 0.6735(2) 0.08179(19)
O7_11 O 0.7148(2) 0.58179(19) 0.1735(2)
O8_6 O 0.8265(2) 0.7148(2) 0.41821(19)
O9_16 O 0.7862(2) 0.6573(2) 0.40048(19)
O10_16 O 0.8427(2) 0.7138(2) 0.09952(19)
O11_16 O 0.90048(19) 0.7138(2) 0.1573(2)
H5_16 H 0.8765 0.7158 0.1235
N3_16 N 0.8460(2) 0.6202(2) 0.2052(2)
N4_6 N 0.8798(2) 0.7052(2) 0.3460(2)
N5_16 N 0.7948(2) 0.6202(2) 0.1540(2)
N6_11 N 0.7052(2) 0.6540(2) 0.1202(2)
C7_16 C 0.8950(3) 0.6818(3) 0.1861(3)
C8_16 C 0.8139(3) 0.6818(3) 0.1050(3)
C9_16 C 0.8182(3) 0.6861(3) 0.3950(3)
C10_16 C 0.8461(3) 0.6784(3) 0.3550(3)
C11_16 C 0.8550(3) 0.6539(3) 0.1784(3)
C12_16 C 0.8216(3) 0.6539(3) 0.1450(3)
C13_16 C 0.8112(3) 0.6035(4) 0.1888(3)
H6_16 H 0.7978 0.5794 0.2022
O12_16 O 0.9076(2) 0.56915(19) 0.32322(18)
O17_16 O 0.9479(2) 0.4600(2) 0.13067(18)
O18_16 O 0.9600(2) 0.5521(2) 0.36933(18)
H7_20 H 1.0000 0.5563 0.3736
N7_16 N 0.9636(2) 0.6054(2) 0.2660(2)
C14_16 C 0.9448(3) 0.5686(3) 0.3335(3)
C16_16 C 0.9314(3) 0.4448(3) 0.1665(3)
C17_16 C 0.9139(2) 0.4786(2) 0.1969(3)
C18_16 C 0.9786(2) 0.5861(2) 0.3031(3)
C20_20 C 1.0000 0.6157(4) 0.2461(4)
H8_20 H 1.0000 0.6298 0.2190
O19_17 O 0.0400(2) 0.4479(2) 0.63067(18)
H7_21 H -0.0000 0.4437 0.6264
C15_17 C 0.0552(3) 0.4314(3) 0.6665(3)
C19_17 C 0.0214(2) 0.4139(2) 0.6969(3)
C20_21 C -0.0000 0.3843(4) 0.7539(4)
H8_21 H -0.0000 0.3702 0.7810
In1_17 In 0.89558(2) 0.39558(2) 0.7500
O1_17 O 0.8265(2) 0.41821(19) 0.7148(2)
O2_17 O 0.7862(2) 0.40048(19) 0.6573(2)
H1_17 H 0.7842 0.3765 0.6235
N1_17 N 0.8798(2) 0.3460(2) 0.7052(2)
C1_17 C 0.8182(3) 0.3950(3) 0.6861(3)
C2_17 C 0.8461(3) 0.3550(3) 0.6784(3)
C3_17 C 0.8965(4) 0.3112(3) 0.6888(3)
H2_17 H 0.9206 0.2978 0.7022
O3_17 O 0.93085(19) 0.4076(2) 0.82322(18)
O4_17 O 0.9479(2) 0.4600(2) 0.86933(18)
H3_29 H 0.9437 0.5000 0.8736
N2_17 N 0.8946(2) 0.4636(2) 0.7660(2)
C4_17 C 0.9314(3) 0.4448(3) 0.8335(3)
C5_17 C 0.9139(2) 0.4786(2) 0.8031(3)
C6_29 C 0.8843(4) 0.5000 0.7461(4)
H4_29 H 0.8702 0.5000 0.7190
O5_17 O 0.91821(19) 0.3265(2) 0.7852(2)
O6_17 O 0.7852(2) 0.3265(2) 0.91821(19)
O7_12 O 0.7148(2) 0.41821(19) 0.8265(2)
O8_7 O 0.8265(2) 0.2852(2) 0.58179(19)
O9_17 O 0.7862(2) 0.3427(2) 0.59952(19)
O10_17 O 0.8427(2) 0.2862(2) 0.90048(19)
O11_17 O 0.90048(19) 0.2862(2) 0.8427(2)
H5_17 H 0.8765 0.2842 0.8765
N3_17 N 0.8460(2) 0.3798(2) 0.7948(2)
N4_7 N 0.8798(2) 0.2948(2) 0.6540(2)
N5_17 N 0.7948(2) 0.3798(2) 0.8460(2)
N6_12 N 0.7052(2) 0.3460(2) 0.8798(2)
C7_17 C 0.8950(3) 0.3182(3) 0.8139(3)
C8_17 C 0.8139(3) 0.3182(3) 0.8950(3)
C9_17 C 0.8182(3) 0.3139(3) 0.6050(3)
C10_17 C 0.8461(3) 0.3216(3) 0.6450(3)
C11_17 C 0.8550(3) 0.3461(3) 0.8216(3)
C12_17 C 0.8216(3) 0.3461(3) 0.8550(3)
C13_17 C 0.8112(3) 0.3965(4) 0.8112(3)
H6_17 H 0.7978 0.4206 0.7978
O12_17 O 0.9076(2) 0.43085(19) 0.67678(18)
O17_17 O 0.9479(2) 0.5400(2) 0.86933(18)
O18_17 O 0.9600(2) 0.4479(2) 0.63067(18)
H7_22 H 1.0000 0.4437 0.6264
N7_17 N 0.9636(2) 0.3946(2) 0.7340(2)
C14_17 C 0.9448(3) 0.4314(3) 0.6665(3)
C16_17 C 0.9314(3) 0.5552(3) 0.8335(3)
C17_17 C 0.9139(2) 0.5214(2) 0.8031(3)
C18_17 C 0.9786(2) 0.4139(2) 0.6969(3)
C20_22 C 1.0000 0.3843(4) 0.7539(4)
H8_22 H 1.0000 0.3702 0.7810
In1_18 In 0.10442(2) 0.60442(2) 0.7500
O1_18 O 0.1735(2) 0.58179(19) 0.7148(2)
O2_18 O 0.2138(2) 0.59952(19) 0.6573(2)
H1_18 H 0.2158 0.6235 0.6235
N1_18 N 0.1202(2) 0.6540(2) 0.7052(2)
C1_18 C 0.1818(3) 0.6050(3) 0.6861(3)
C2_18 C 0.1539(3) 0.6450(3) 0.6784(3)
C3_18 C 0.1035(4) 0.6888(3) 0.6888(3)
H2_18 H 0.0794 0.7022 0.7022
O3_18 O 0.06915(19) 0.5924(2) 0.82322(18)
O4_18 O 0.0521(2) 0.5400(2) 0.86933(18)
H3_30 H 0.0563 0.5000 0.8736
N2_18 N 0.1054(2) 0.5364(2) 0.7660(2)
C4_18 C 0.0686(3) 0.5552(3) 0.8335(3)
C5_18 C 0.0861(2) 0.5214(2) 0.8031(3)
C6_30 C 0.1157(4) 0.5000 0.7461(4)
H4_30 H 0.1298 0.5000 0.7190
O5_18 O 0.08179(19) 0.6735(2) 0.7852(2)
O6_18 O 0.2148(2) 0.6735(2) 0.91821(19)
O7_13 O 0.2852(2) 0.58179(19) 0.8265(2)
O8_8 O 0.1735(2) 0.7148(2) 0.58179(19)
O9_18 O 0.2138(2) 0.6573(2) 0.59952(19)
O10_18 O 0.1573(2) 0.7138(2) 0.90048(19)
O11_18 O 0.09952(19) 0.7138(2) 0.8427(2)
H5_18 H 0.1235 0.7158 0.8765
N3_18 N 0.1540(2) 0.6202(2) 0.7948(2)
N4_8 N 0.1202(2) 0.7052(2) 0.6540(2)
N5_18 N 0.2052(2) 0.6202(2) 0.8460(2)
N6_13 N 0.2948(2) 0.6540(2) 0.8798(2)
C7_18 C 0.1050(3) 0.6818(3) 0.8139(3)
C8_18 C 0.1861(3) 0.6818(3) 0.8950(3)
C9_18 C 0.1818(3) 0.6861(3) 0.6050(3)
C10_18 C 0.1539(3) 0.6784(3) 0.6450(3)
C11_18 C 0.1450(3) 0.6539(3) 0.8216(3)
C12_18 C 0.1784(3) 0.6539(3) 0.8550(3)
C13_18 C 0.1888(3) 0.6035(4) 0.8112(3)
H6_18 H 0.2022 0.5794 0.7978
O12_18 O 0.0924(2) 0.56915(19) 0.67678(18)
O17_18 O 0.0521(2) 0.4600(2) 0.86933(18)
O18_18 O 0.0400(2) 0.5521(2) 0.63067(18)
H7_23 H -0.0000 0.5563 0.6264
N7_18 N 0.0364(2) 0.6054(2) 0.7340(2)
C14_18 C 0.0552(3) 0.5686(3) 0.6665(3)
C16_18 C 0.0686(3) 0.4448(3) 0.8335(3)
C17_18 C 0.0861(2) 0.4786(2) 0.8031(3)
C18_18 C 0.0214(2) 0.5861(2) 0.6969(3)
C20_23 C -0.0000 0.6157(4) 0.7539(4)
H8_23 H -0.0000 0.6298 0.7810
O19_18 O 0.9600(2) 0.5521(2) 0.63067(18)
H7_24 H 1.0000 0.5563 0.6264
C15_18 C 0.9448(3) 0.5686(3) 0.6665(3)
C19_18 C 0.9786(2) 0.5861(2) 0.6969(3)
C20_24 C 1.0000 0.6157(4) 0.7539(4)
H8_24 H 1.0000 0.6298 0.7810
In1_19 In 0.60442(2) 0.7500 0.10442(2)
O1_19 O 0.58179(19) 0.7148(2) 0.1735(2)
O2_19 O 0.59952(19) 0.6573(2) 0.2138(2)
H1_19 H 0.6235 0.6235 0.2158
N1_19 N 0.6540(2) 0.7052(2) 0.1202(2)
C1_19 C 0.6050(3) 0.6861(3) 0.1818(3)
C2_19 C 0.6450(3) 0.6784(3) 0.1539(3)
C3_19 C 0.6888(3) 0.6888(3) 0.1035(4)
H2_19 H 0.7022 0.7022 0.0794
O3_19 O 0.5924(2) 0.82322(18) 0.06915(19)
O4_19 O 0.5400(2) 0.86933(18) 0.0521(2)
H3_31 H 0.5000 0.8736 0.0563
N2_19 N 0.5364(2) 0.7660(2) 0.1054(2)
C4_19 C 0.5552(3) 0.8335(3) 0.0686(3)
C5_19 C 0.5214(2) 0.8031(3) 0.0861(2)
C6_31 C 0.5000 0.7461(4) 0.1157(4)
H4_31 H 0.5000 0.7190 0.1298
O5_19 O 0.6735(2) 0.7852(2) 0.08179(19)
O6_19 O 0.6735(2) 0.91821(19) 0.2148(2)
O7_14 O 0.58179(19) 0.8265(2) 0.2852(2)
O9_19 O 0.6573(2) 0.59952(19) 0.2138(2)
O10_19 O 0.7138(2) 0.90048(19) 0.1573(2)
O11_19 O 0.7138(2) 0.8427(2) 0.09952(19)
H5_19 H 0.7158 0.8765 0.1235
N3_19 N 0.6202(2) 0.7948(2) 0.1540(2)
N5_19 N 0.6202(2) 0.8460(2) 0.2052(2)
N6_14 N 0.6540(2) 0.8798(2) 0.2948(2)
C7_19 C 0.6818(3) 0.8139(3) 0.1050(3)
C8_19 C 0.6818(3) 0.8950(3) 0.1861(3)
C9_19 C 0.6861(3) 0.6050(3) 0.1818(3)
C10_19 C 0.6784(3) 0.6450(3) 0.1539(3)
C11_19 C 0.6539(3) 0.8216(3) 0.1450(3)
C12_19 C 0.6539(3) 0.8550(3) 0.1784(3)
C13_19 C 0.6035(4) 0.8112(3) 0.1888(3)
H6_19 H 0.5794 0.7978 0.2022
O12_19 O 0.56915(19) 0.67678(18) 0.0924(2)
O17_19 O 0.4600(2) 0.86933(18) 0.0521(2)
O18_19 O 0.5521(2) 0.63067(18) 0.0400(2)
H7_25 H 0.5563 0.6264 0.0000
N7_19 N 0.6054(2) 0.7340(2) 0.0364(2)
C14_19 C 0.5686(3) 0.6665(3) 0.0552(3)
C16_19 C 0.4448(3) 0.8335(3) 0.0686(3)
C17_19 C 0.4786(2) 0.8031(3) 0.0861(2)
C18_19 C 0.5861(2) 0.6969(3) 0.0214(2)
C20_25 C 0.6157(4) 0.7539(4) 0.0000
H8_25 H 0.6298 0.7810 0.0000
O19_19 O 0.5521(2) 0.63067(18) 0.9600(2)
H7_26 H 0.5563 0.6264 1.0000
C15_19 C 0.5686(3) 0.6665(3) 0.9448(3)
C19_19 C 0.5861(2) 0.6969(3) 0.9786(2)
C20_26 C 0.6157(4) 0.7539(4) 1.0000
H8_26 H 0.6298 0.7810 1.0000
O19_20 O 0.4479(2) 0.63067(18) 0.0400(2)
H7_27 H 0.4437 0.6264 0.0000
C15_20 C 0.4314(3) 0.6665(3) 0.0552(3)
C19_20 C 0.4139(2) 0.6969(3) 0.0214(2)
C20_27 C 0.3843(4) 0.7539(4) 0.0000
H8_27 H 0.3702 0.7810 0.0000
In1_20 In 0.39558(2) 0.7500 0.89558(2)
O1_20 O 0.41821(19) 0.7148(2) 0.8265(2)
O2_20 O 0.40048(19) 0.6573(2) 0.7862(2)
H1_20 H 0.3765 0.6235 0.7842
N1_20 N 0.3460(2) 0.7052(2) 0.8798(2)
C1_20 C 0.3950(3) 0.6861(3) 0.8182(3)
C2_20 C 0.3550(3) 0.6784(3) 0.8461(3)
C3_20 C 0.3112(3) 0.6888(3) 0.8965(4)
H2_20 H 0.2978 0.7022 0.9206
O3_20 O 0.4076(2) 0.82322(18) 0.93085(19)
O4_20 O 0.4600(2) 0.86933(18) 0.9479(2)
H3_32 H 0.5000 0.8736 0.9437
N2_20 N 0.4636(2) 0.7660(2) 0.8946(2)
C4_20 C 0.4448(3) 0.8335(3) 0.9314(3)
C5_20 C 0.4786(2) 0.8031(3) 0.9139(2)
C6_32 C 0.5000 0.7461(4) 0.8843(4)
H4_32 H 0.5000 0.7190 0.8702
O5_20 O 0.3265(2) 0.7852(2) 0.91821(19)
O6_20 O 0.3265(2) 0.91821(19) 0.7852(2)
O7_15 O 0.41821(19) 0.8265(2) 0.7148(2)
O9_20 O 0.3427(2) 0.59952(19) 0.7862(2)
O10_20 O 0.2862(2) 0.90048(19) 0.8427(2)
O11_20 O 0.2862(2) 0.8427(2) 0.90048(19)
H5_20 H 0.2842 0.8765 0.8765
N3_20 N 0.3798(2) 0.7948(2) 0.8460(2)
N5_20 N 0.3798(2) 0.8460(2) 0.7948(2)
N6_15 N 0.3460(2) 0.8798(2) 0.7052(2)
C7_20 C 0.3182(3) 0.8139(3) 0.8950(3)
C8_20 C 0.3182(3) 0.8950(3) 0.8139(3)
C9_20 C 0.3139(3) 0.6050(3) 0.8182(3)
C10_20 C 0.3216(3) 0.6450(3) 0.8461(3)
C11_20 C 0.3461(3) 0.8216(3) 0.8550(3)
C12_20 C 0.3461(3) 0.8550(3) 0.8216(3)
C13_20 C 0.3965(4) 0.8112(3) 0.8112(3)
H6_20 H 0.4206 0.7978 0.7978
O12_20 O 0.43085(19) 0.67678(18) 0.9076(2)
O17_20 O 0.5400(2) 0.86933(18) 0.9479(2)
O18_20 O 0.4479(2) 0.63067(18) 0.9600(2)
H7_28 H 0.4437 0.6264 1.0000
N7_20 N 0.3946(2) 0.7340(2) 0.9636(2)
C14_20 C 0.4314(3) 0.6665(3) 0.9448(3)
C16_20 C 0.5552(3) 0.8335(3) 0.9314(3)
C17_20 C 0.5214(2) 0.8031(3) 0.9139(2)
C18_20 C 0.4139(2) 0.6969(3) 0.9786(2)
C20_28 C 0.3843(4) 0.7539(4) 1.0000
H8_28 H 0.3702 0.7810 1.0000
O19_21 O 0.5521(2) 0.36933(18) 0.0400(2)
H7_29 H 0.5563 0.3736 0.0000
C15_21 C 0.5686(3) 0.3335(3) 0.0552(3)
C19_21 C 0.5861(2) 0.3031(3) 0.0214(2)
C20_29 C 0.6157(4) 0.2461(4) 0.0000
H8_29 H 0.6298 0.2190 0.0000
In1_21 In 0.60442(2) 0.2500 0.89558(2)
O1_21 O 0.58179(19) 0.2852(2) 0.8265(2)
O2_21 O 0.59952(19) 0.3427(2) 0.7862(2)
H1_21 H 0.6235 0.3765 0.7842
N1_21 N 0.6540(2) 0.2948(2) 0.8798(2)
C1_21 C 0.6050(3) 0.3139(3) 0.8182(3)
C2_21 C 0.6450(3) 0.3216(3) 0.8461(3)
C3_21 C 0.6888(3) 0.3112(3) 0.8965(4)
H2_21 H 0.7022 0.2978 0.9206
O3_21 O 0.5924(2) 0.17678(18) 0.93085(19)
O4_21 O 0.5400(2) 0.13067(18) 0.9479(2)
H3_33 H 0.5000 0.1264 0.9437
N2_21 N 0.5364(2) 0.2340(2) 0.8946(2)
C4_21 C 0.5552(3) 0.1665(3) 0.9314(3)
C5_21 C 0.5214(2) 0.1969(3) 0.9139(2)
C6_33 C 0.5000 0.2539(4) 0.8843(4)
H4_33 H 0.5000 0.2810 0.8702
O5_21 O 0.6735(2) 0.2148(2) 0.91821(19)
O6_21 O 0.6735(2) 0.08179(19) 0.7852(2)
O7_16 O 0.58179(19) 0.1735(2) 0.7148(2)
O9_21 O 0.6573(2) 0.40048(19) 0.7862(2)
O10_21 O 0.7138(2) 0.09952(19) 0.8427(2)
O11_21 O 0.7138(2) 0.1573(2) 0.90048(19)
H5_21 H 0.7158 0.1235 0.8765
N3_21 N 0.6202(2) 0.2052(2) 0.8460(2)
N5_21 N 0.6202(2) 0.1540(2) 0.7948(2)
N6_16 N 0.6540(2) 0.1202(2) 0.7052(2)
C7_21 C 0.6818(3) 0.1861(3) 0.8950(3)
C8_21 C 0.6818(3) 0.1050(3) 0.8139(3)
C9_21 C 0.6861(3) 0.3950(3) 0.8182(3)
C10_21 C 0.6784(3) 0.3550(3) 0.8461(3)
C11_21 C 0.6539(3) 0.1784(3) 0.8550(3)
C12_21 C 0.6539(3) 0.1450(3) 0.8216(3)
C13_21 C 0.6035(4) 0.1888(3) 0.8112(3)
H6_21 H 0.5794 0.2022 0.7978
O12_21 O 0.56915(19) 0.32322(18) 0.9076(2)
O17_21 O 0.4600(2) 0.13067(18) 0.9479(2)
O18_21 O 0.5521(2) 0.36933(18) 0.9600(2)
H7_30 H 0.5563 0.3736 1.0000
N7_21 N 0.6054(2) 0.2660(2) 0.9636(2)
C14_21 C 0.5686(3) 0.3335(3) 0.9448(3)
C16_21 C 0.4448(3) 0.1665(3) 0.9314(3)
C17_21 C 0.4786(2) 0.1969(3) 0.9139(2)
C18_21 C 0.5861(2) 0.3031(3) 0.9786(2)
C20_30 C 0.6157(4) 0.2461(4) 1.0000
H8_30 H 0.6298 0.2190 1.0000
O19_22 O 0.63067(18) 0.0400(2) 0.4479(2)
H7_31 H 0.6264 0.0000 0.4437
C15_22 C 0.6665(3) 0.0552(3) 0.4314(3)
C19_22 C 0.6969(3) 0.0214(2) 0.4139(2)
C20_31 C 0.7539(4) 0.0000 0.3843(4)
H8_31 H 0.7810 0.0000 0.3702
In1_22 In 0.7500 0.89558(2) 0.39558(2)
O1_22 O 0.7148(2) 0.8265(2) 0.41821(19)
O2_22 O 0.6573(2) 0.7862(2) 0.40048(19)
H1_22 H 0.6235 0.7842 0.3765
N1_22 N 0.7052(2) 0.8798(2) 0.3460(2)
C1_22 C 0.6861(3) 0.8182(3) 0.3950(3)
C2_22 C 0.6784(3) 0.8461(3) 0.3550(3)
C3_22 C 0.6888(3) 0.8965(4) 0.3112(3)
H2_22 H 0.7022 0.9206 0.2978
O3_22 O 0.82322(18) 0.93085(19) 0.4076(2)
O4_22 O 0.86933(18) 0.9479(2) 0.4600(2)
H3_34 H 0.8736 0.9437 0.5000
N2_22 N 0.7660(2) 0.8946(2) 0.4636(2)
C4_22 C 0.8335(3) 0.9314(3) 0.4448(3)
C5_22 C 0.8031(3) 0.9139(2) 0.4786(2)
C6_34 C 0.7461(4) 0.8843(4) 0.5000
H4_34 H 0.7190 0.8702 0.5000
O5_22 O 0.7852(2) 0.91821(19) 0.3265(2)
O6_22 O 0.91821(19) 0.7852(2) 0.3265(2)
O9_22 O 0.59952(19) 0.7862(2) 0.3427(2)
O10_22 O 0.90048(19) 0.8427(2) 0.2862(2)
O11_22 O 0.8427(2) 0.90048(19) 0.2862(2)
H5_22 H 0.8765 0.8765 0.2842
N3_22 N 0.7948(2) 0.8460(2) 0.3798(2)
N5_22 N 0.8460(2) 0.7948(2) 0.3798(2)
C7_22 C 0.8139(3) 0.8950(3) 0.3182(3)
C8_22 C 0.8950(3) 0.8139(3) 0.3182(3)
C9_22 C 0.6050(3) 0.8182(3) 0.3139(3)
C10_22 C 0.6450(3) 0.8461(3) 0.3216(3)
C11_22 C 0.8216(3) 0.8550(3) 0.3461(3)
C12_22 C 0.8550(3) 0.8216(3) 0.3461(3)
C13_22 C 0.8112(3) 0.8112(3) 0.3965(4)
H6_22 H 0.7978 0.7978 0.4206
O12_22 O 0.67678(18) 0.9076(2) 0.43085(19)
O17_22 O 0.86933(18) 0.9479(2) 0.5400(2)
O18_22 O 0.63067(18) 0.9600(2) 0.4479(2)
H7_32 H 0.6264 1.0000 0.4437
N7_22 N 0.7340(2) 0.9636(2) 0.3946(2)
C14_22 C 0.6665(3) 0.9448(3) 0.4314(3)
C16_22 C 0.8335(3) 0.9314(3) 0.5552(3)
C17_22 C 0.8031(3) 0.9139(2) 0.5214(2)
C18_22 C 0.6969(3) 0.9786(2) 0.4139(2)
C20_32 C 0.7539(4) 1.0000 0.3843(4)
H8_32 H 0.7810 1.0000 0.3702
In1_23 In 0.7500 0.10442(2) 0.60442(2)
O1_23 O 0.7148(2) 0.1735(2) 0.58179(19)
O2_23 O 0.6573(2) 0.2138(2) 0.59952(19)
H1_23 H 0.6235 0.2158 0.6235
N1_23 N 0.7052(2) 0.1202(2) 0.6540(2)
C1_23 C 0.6861(3) 0.1818(3) 0.6050(3)
C2_23 C 0.6784(3) 0.1539(3) 0.6450(3)
C3_23 C 0.6888(3) 0.1035(4) 0.6888(3)
H2_23 H 0.7022 0.0794 0.7022
O3_23 O 0.82322(18) 0.06915(19) 0.5924(2)
O4_23 O 0.86933(18) 0.0521(2) 0.5400(2)
H3_35 H 0.8736 0.0563 0.5000
N2_23 N 0.7660(2) 0.1054(2) 0.5364(2)
C4_23 C 0.8335(3) 0.0686(3) 0.5552(3)
C5_23 C 0.8031(3) 0.0861(2) 0.5214(2)
C6_35 C 0.7461(4) 0.1157(4) 0.5000
H4_35 H 0.7190 0.1298 0.5000
O5_23 O 0.7852(2) 0.08179(19) 0.6735(2)
O6_23 O 0.91821(19) 0.2148(2) 0.6735(2)
O9_23 O 0.59952(19) 0.2138(2) 0.6573(2)
O10_23 O 0.90048(19) 0.1573(2) 0.7138(2)
O11_23 O 0.8427(2) 0.09952(19) 0.7138(2)
H5_23 H 0.8765 0.1235 0.7158
N3_23 N 0.7948(2) 0.1540(2) 0.6202(2)
N5_23 N 0.8460(2) 0.2052(2) 0.6202(2)
C7_23 C 0.8139(3) 0.1050(3) 0.6818(3)
C8_23 C 0.8950(3) 0.1861(3) 0.6818(3)
C9_23 C 0.6050(3) 0.1818(3) 0.6861(3)
C10_23 C 0.6450(3) 0.1539(3) 0.6784(3)
C11_23 C 0.8216(3) 0.1450(3) 0.6539(3)
C12_23 C 0.8550(3) 0.1784(3) 0.6539(3)
C13_23 C 0.8112(3) 0.1888(3) 0.6035(4)
H6_23 H 0.7978 0.2022 0.5794
O12_23 O 0.67678(18) 0.0924(2) 0.56915(19)
O17_23 O 0.86933(18) 0.0521(2) 0.4600(2)
O18_23 O 0.63067(18) 0.0400(2) 0.5521(2)
H7_33 H 0.6264 -0.0000 0.5563
N7_23 N 0.7340(2) 0.0364(2) 0.6054(2)
C14_23 C 0.6665(3) 0.0552(3) 0.5686(3)
C16_23 C 0.8335(3) 0.0686(3) 0.4448(3)
C17_23 C 0.8031(3) 0.0861(2) 0.4786(2)
C18_23 C 0.6969(3) 0.0214(2) 0.5861(2)
C20_33 C 0.7539(4) 0.0000 0.6157(4)
H8_33 H 0.7810 0.0000 0.6298
O19_23 O 0.63067(18) 0.9600(2) 0.5521(2)
H7_34 H 0.6264 1.0000 0.5563
C15_23 C 0.6665(3) 0.9448(3) 0.5686(3)
C19_23 C 0.6969(3) 0.9786(2) 0.5861(2)
C20_34 C 0.7539(4) 1.0000 0.6157(4)
H8_34 H 0.7810 1.0000 0.6298
O19_24 O 0.36933(18) 0.0400(2) 0.5521(2)
H7_35 H 0.3736 -0.0000 0.5563
C15_24 C 0.3335(3) 0.0552(3) 0.5686(3)
C19_24 C 0.3031(3) 0.0214(2) 0.5861(2)
C20_35 C 0.2461(4) 0.0000 0.6157(4)
H8_35 H 0.2190 0.0000 0.6298
In1_24 In 0.2500 0.89558(2) 0.60442(2)
O1_24 O 0.2852(2) 0.8265(2) 0.58179(19)
O2_24 O 0.3427(2) 0.7862(2) 0.59952(19)
H1_24 H 0.3765 0.7842 0.6235
N1_24 N 0.2948(2) 0.8798(2) 0.6540(2)
C1_24 C 0.3139(3) 0.8182(3) 0.6050(3)
C2_24 C 0.3216(3) 0.8461(3) 0.6450(3)
C3_24 C 0.3112(3) 0.8965(4) 0.6888(3)
H2_24 H 0.2978 0.9206 0.7022
O3_24 O 0.17678(18) 0.93085(19) 0.5924(2)
O4_24 O 0.13067(18) 0.9479(2) 0.5400(2)
H3_36 H 0.1264 0.9437 0.5000
N2_24 N 0.2340(2) 0.8946(2) 0.5364(2)
C4_24 C 0.1665(3) 0.9314(3) 0.5552(3)
C5_24 C 0.1969(3) 0.9139(2) 0.5214(2)
C6_36 C 0.2539(4) 0.8843(4) 0.5000
H4_36 H 0.2810 0.8702 0.5000
O5_24 O 0.2148(2) 0.91821(19) 0.6735(2)
O6_24 O 0.08179(19) 0.7852(2) 0.6735(2)
O9_24 O 0.40048(19) 0.7862(2) 0.6573(2)
O10_24 O 0.09952(19) 0.8427(2) 0.7138(2)
O11_24 O 0.1573(2) 0.90048(19) 0.7138(2)
H5_24 H 0.1235 0.8765 0.7158
N3_24 N 0.2052(2) 0.8460(2) 0.6202(2)
N5_24 N 0.1540(2) 0.7948(2) 0.6202(2)
C7_24 C 0.1861(3) 0.8950(3) 0.6818(3)
C8_24 C 0.1050(3) 0.8139(3) 0.6818(3)
C9_24 C 0.3950(3) 0.8182(3) 0.6861(3)
C10_24 C 0.3550(3) 0.8461(3) 0.6784(3)
C11_24 C 0.1784(3) 0.8550(3) 0.6539(3)
C12_24 C 0.1450(3) 0.8216(3) 0.6539(3)
C13_24 C 0.1888(3) 0.8112(3) 0.6035(4)
H6_24 H 0.2022 0.7978 0.5794
O12_24 O 0.32322(18) 0.9076(2) 0.56915(19)
O17_24 O 0.13067(18) 0.9479(2) 0.4600(2)
O18_24 O 0.36933(18) 0.9600(2) 0.5521(2)
H7_36 H 0.3736 1.0000 0.5563
N7_24 N 0.2660(2) 0.9636(2) 0.6054(2)
C14_24 C 0.3335(3) 0.9448(3) 0.5686(3)
C16_24 C 0.1665(3) 0.9314(3) 0.4448(3)
C17_24 C 0.1969(3) 0.9139(2) 0.4786(2)
C18_24 C 0.3031(3) 0.9786(2) 0.5861(2)
C20_36 C 0.2461(4) 1.0000 0.6157(4)
H8_36 H 0.2190 1.0000 0.6298
loop_
_geom_bond_atom_site_label_1
_geom_bond_atom_site_label_2
_geom_bond_site_symmetry_1
_geom_bond_site_symmetry_2
In1 O1 1_555 1_555
O1 C1 1_555 1_555
O2 H1 1_555 1_555
H1 O9 1_555 1_555
N1 In1 1_555 1_555
C1 O2 1_555 1_555
C2 N1 1_555 1_555
C3 N1 1_555 1_555
H2 C3 1_555 1_555
O3 In1 1_555 1_555
O4 H3 1_555 1_555
N2 In1 1_555 1_555
C4 O3 1_555 1_555
C5 N2 1_555 1_555
C6 N2 1_555 1_555
H4 C6 1_555 1_555
In2 O6 1_555 1_555
In3 O13 1_555 1_555
In4 O8 1_555 1_555
O5 In1 1_555 1_555
O6 C8 1_555 1_555
O7 In2 1_555 1_555
O8 C9 1_555 1_555
O9 C9 1_555 1_555
O10 H5 1_555 1_555
O11 H5 1_555 1_555
N3 In1 1_555 1_555
N4 C3 1_555 1_555
N5 In2 1_555 1_555
N6 In2 1_555 1_555
C7 O5 1_555 1_555
C8 O10 1_555 1_555
C9 C10 1_555 1_555
C10 C2 1_555 1_555
C11 N3 1_555 1_555
C12 N5 1_555 1_555
C13 N3 1_555 1_555
H6 C13 1_555 1_555
O12 In1 1_555 1_555
O13 C15 1_555 1_555
O14 In2 1_555 1_555
O15 In2 1_555 1_555
O18 H7 1_555 1_555
O19 H7 1_555 1_555
N7 In1 1_555 1_555
N9 In3 1_555 1_555
N10 In2 1_555 1_555
N11 In2 1_555 1_555
C14 O12 1_555 1_555
C15 O19 1_555 1_555
C18 N7 1_555 1_555
C19 N9 1_555 1_555
C20 N7 1_555 1_555
H8 C20 1_555 1_555
C1 C2 1_555 1_555
O4 C4 1_555 1_555
C4 C5 1_555 1_555
In4 N4 1_555 1_555
O11 C7 1_555 1_555
N4 C10 1_555 1_555
N5 C13 1_555 1_555
C7 C11 1_555 1_555
C8 C12 1_555 1_555
C11 C12 1_555 1_555
O18 C14 1_555 1_555
N9 C20 1_555 1_555
C14 C18 1_555 1_555
C15 C19 1_555 1_555
C18 C19 1_555 1_555
H3_2 O17 1_555 1_555
H4_2 C6_2 1_555 1_555
In5 O16 1_555 1_555
O16 C16 1_555 1_555
O17 C16 1_555 1_555
N8 C6_2 1_555 1_555
C16 C17 1_555 1_555
In5 N8 1_555 1_555
N8 C17 1_555 1_555
In1_2 O1_2 1_555 1_555
O1_2 C1_2 1_555 1_555
O2_2 H1_2 1_555 1_555
H1_2 O9_2 1_555 1_555
N1_2 In1_2 1_555 1_555
C1_2 O2_2 1_555 1_555
C2_2 N1_2 1_555 1_555
C3_2 N1_2 1_555 1_555
H2_2 C3_2 1_555 1_555
O3_2 In1_2 1_555 1_555
O4_2 H3_3 1_555 1_555
N2_2 In1_2 1_555 1_555
C4_2 O3_2 1_555 1_555
C5_2 N2_2 1_555 1_555
C6_3 N2_2 1_555 1_555
H4_3 C6_3 1_555 1_555
In2_2 O6_2 1_555 1_555
In3_2 O13_2 1_555 1_555
O5_2 In1_2 1_555 1_555
O6_2 C8_2 1_555 1_555
O7_2 In2_2 1_555 1_555
O7 C9_2 1_555 1_555
O9_2 C9_2 1_555 1_555
O10_2 H5_2 1_555 1_555
O11_2 H5_2 1_555 1_555
N3_2 In1_2 1_555 1_555
N6 C3_2 1_555 1_555
N5_2 In2_2 1_555 1_555
N6_2 In2_2 1_555 1_555
C7_2 O5_2 1_555 1_555
C8_2 O10_2 1_555 1_555
C9_2 C10_2 1_555 1_555
C10_2 C2_2 1_555 1_555
C11_2 N3_2 1_555 1_555
C12_2 N5_2 1_555 1_555
C13_2 N3_2 1_555 1_555
H6_2 C13_2 1_555 1_555
O12_2 In1_2 1_555 1_555
O13_2 C15_2 1_555 1_555
O14_2 In2_2 1_555 1_555
O15_2 In2_2 1_555 1_555
O18_2 H7_2 1_555 1_555
O19_2 H7_2 1_555 1_555
N7_2 In1_2 1_555 1_555
N9_2 In3_2 1_555 1_555
N10_2 In2_2 1_555 1_555
N11_2 In2_2 1_555 1_555
C14_2 O12_2 1_555 1_555
C15_2 O19_2 1_555 1_555
C18_2 N7_2 1_555 1_555
C19_2 N9_2 1_555 1_555
C20_2 N7_2 1_555 1_555
H8_2 C20_2 1_555 1_555
C1_2 C2_2 1_555 1_555
O4_2 C4_2 1_555 1_555
C4_2 C5_2 1_555 1_555
O11_2 C7_2 1_555 1_555
N6 C10_2 1_555 1_555
N5_2 C13_2 1_555 1_555
C7_2 C11_2 1_555 1_555
C8_2 C12_2 1_555 1_555
C11_2 C12_2 1_555 1_555
O18_2 C14_2 1_555 1_555
N9_2 C20_2 1_555 1_555
C14_2 C18_2 1_555 1_555
C15_2 C19_2 1_555 1_555
C18_2 C19_2 1_555 1_555
H3_4 O17_2 1_555 1_555
H4_4 C6_4 1_555 1_555
In5_2 O16_2 1_555 1_555
O16_2 C16_2 1_555 1_555
O17_2 C16_2 1_555 1_555
N8_2 C6_4 1_555 1_555
C16_2 C17_2 1_555 1_555
In5_2 N8_2 1_555 1_555
N8_2 C17_2 1_555 1_555
In1_3 O1_3 1_555 1_555
O1_3 C1_3 1_555 1_555
O2_3 H1_3 1_555 1_555
H1_3 O9_3 1_555 1_555
N1_3 In1_3 1_555 1_555
C1_3 O2_3 1_555 1_555
C2_3 N1_3 1_555 1_555
C3_3 N1_3 1_555 1_555
H2_3 C3_3 1_555 1_555
O3_3 In1_3 1_555 1_555
O4_3 H3_5 1_555 1_555
N2_3 In1_3 1_555 1_555
C4_3 O3_3 1_555 1_555
C5_3 N2_3 1_555 1_555
C6_5 N2_3 1_555 1_555
H4_5 C6_5 1_555 1_555
In4 O6_3 1_555 1_555
In3_3 O13_3 1_555 1_555
O5_3 In1_3 1_555 1_555
O6_3 C8_3 1_555 1_555
O7_2 C9_3 1_555 1_555
O9_3 C9_3 1_555 1_555
O10_3 H5_3 1_555 1_555
O11_3 H5_3 1_555 1_555
N3_3 In1_3 1_555 1_555
N6_2 C3_3 1_555 1_555
N5_3 In4 1_555 1_555
C7_3 O5_3 1_555 1_555
C8_3 O10_3 1_555 1_555
C9_3 C10_3 1_555 1_555
C10_3 C2_3 1_555 1_555
C11_3 N3_3 1_555 1_555
C12_3 N5_3 1_555 1_555
C13_3 N3_3 1_555 1_555
H6_3 C13_3 1_555 1_555
O12_3 In1_3 1_555 1_555
O13_3 C15_3 1_555 1_555
O14_3 In4 1_555 1_555
O15_3 In4 1_555 1_555
O18_3 H7_3 1_555 1_555
O19_3 H7_3 1_555 1_555
N7_3 In1_3 1_555 1_555
N9_3 In3_3 1_555 1_555
N10_3 In4 1_555 1_555
N11_3 In4 1_555 1_555
C14_3 O12_3 1_555 1_555
C15_3 O19_3 1_555 1_555
C18_3 N7_3 1_555 1_555
C19_3 N9_3 1_555 1_555
C20_3 N7_3 1_555 1_555
H8_3 C20_3 1_555 1_555
C1_3 C2_3 1_555 1_555
O4_3 C4_3 1_555 1_555
C4_3 C5_3 1_555 1_555
O11_3 C7_3 1_555 1_555
N6_2 C10_3 1_555 1_555
N5_3 C13_3 1_555 1_555
C7_3 C11_3 1_555 1_555
C8_3 C12_3 1_555 1_555
C11_3 C12_3 1_555 1_555
O18_3 C14_3 1_555 1_555
N9_3 C20_3 1_555 1_555
C14_3 C18_3 1_555 1_555
C15_3 C19_3 1_555 1_555
C18_3 C19_3 1_555 1_555
H3_6 O17_3 1_555 1_555
H4_6 C6_6 1_555 1_555
In5_3 O16_3 1_555 1_555
O16_3 C16_3 1_555 1_555
O17_3 C16_3 1_555 1_555
N8_3 C6_6 1_555 1_555
C16_3 C17_3 1_555 1_555
In5_3 N8_3 1_555 1_555
N8_3 C17_3 1_555 1_555
In1_4 O1_4 1_555 1_555
O1_4 C1_4 1_555 1_555
O2_4 H1_4 1_555 1_555
H1_4 O9_4 1_555 1_555
N1_4 In1_4 1_555 1_555
C1_4 O2_4 1_555 1_555
C2_4 N1_4 1_555 1_555
C3_4 N1_4 1_555 1_555
H2_4 C3_4 1_555 1_555
O3_4 In1_4 1_555 1_555
O4_4 H3_7 1_555 1_555
N2_4 In1_4 1_555 1_555
C4_4 O3_4 1_555 1_555
C5_4 N2_4 1_555 1_555
C6_7 N2_4 1_555 1_555
H4_7 C6_7 1_555 1_555
In3_2 O6_4 1_555 1_555
In3_4 O13_4 1_555 1_555
In5_3 O8_2 1_555 1_555
O5_4 In1_4 1_555 1_555
O6_4 C8_4 1_555 1_555
O7_3 In3_2 1_555 1_555
O8_2 C9_4 1_555 1_555
O9_4 C9_4 1_555 1_555
O10_4 H5_4 1_555 1_555
O11_4 H5_4 1_555 1_555
N3_4 In1_4 1_555 1_555
N4_2 C3_4 1_555 1_555
N5_4 In3_2 1_555 1_555
N6_3 In3_2 1_555 1_555
C7_4 O5_4 1_555 1_555
C8_4 O10_4 1_555 1_555
C9_4 C10_4 1_555 1_555
C10_4 C2_4 1_555 1_555
C11_4 N3_4 1_555 1_555
C12_4 N5_4 1_555 1_555
C13_4 N3_4 1_555 1_555
H6_4 C13_4 1_555 1_555
O12_4 In1_4 1_555 1_555
O13_4 C15_4 1_555 1_555
O14_4 In3_2 1_555 1_555
O18_4 H7_4 1_555 1_555
O19_4 H7_4 1_555 1_555
N7_4 In1_4 1_555 1_555
N9_4 In3_4 1_555 1_555
N10_4 In3_2 1_555 1_555
C14_4 O12_4 1_555 1_555
C15_4 O19_4 1_555 1_555
C18_4 N7_4 1_555 1_555
C19_4 N9_4 1_555 1_555
C20_4 N7_4 1_555 1_555
H8_4 C20_4 1_555 1_555
C1_4 C2_4 1_555 1_555
O4_4 C4_4 1_555 1_555
C4_4 C5_4 1_555 1_555
In5_3 N4_2 1_555 1_555
O11_4 C7_4 1_555 1_555
N4_2 C10_4 1_555 1_555
N5_4 C13_4 1_555 1_555
C7_4 C11_4 1_555 1_555
C8_4 C12_4 1_555 1_555
C11_4 C12_4 1_555 1_555
O18_4 C14_4 1_555 1_555
N9_4 C20_4 1_555 1_555
C14_4 C18_4 1_555 1_555
C15_4 C19_4 1_555 1_555
C18_4 C19_4 1_555 1_555
H3_8 O17_4 1_555 1_555
H4_8 C6_8 1_555 1_555
In5_4 O16_4 1_555 1_555
O16_4 C16_4 1_555 1_555
O17_4 C16_4 1_555 1_555
N8_4 C6_8 1_555 1_555
C16_4 C17_4 1_555 1_555
In5_4 N8_4 1_555 1_555
N8_4 C17_4 1_555 1_555
H3_9 O17_5 1_555 1_555
H4_9 C6_9 1_555 1_555
O14_2 C16_5 1_555 1_555
O17_5 C16_5 1_555 1_555
N10_2 C6_9 1_555 1_555
C16_5 C17_5 1_555 1_555
N10_2 C17_5 1_555 1_555
In1_5 O1_5 1_555 1_555
O1_5 C1_5 1_555 1_555
O2_5 H1_5 1_555 1_555
H1_5 O9_5 1_555 1_555
N1_5 In1_5 1_555 1_555
C1_5 O2_5 1_555 1_555
C2_5 N1_5 1_555 1_555
C3_5 N1_5 1_555 1_555
H2_5 C3_5 1_555 1_555
O3_5 In1_5 1_555 1_555
O4_5 H3_10 1_555 1_555
N2_5 In1_5 1_555 1_555
C4_5 O3_5 1_555 1_555
C5_5 N2_5 1_555 1_555
C6_10 N2_5 1_555 1_555
H4_10 C6_10 1_555 1_555
In5_2 O6_5 1_555 1_555
In3_5 O13_5 1_555 1_555
In4_2 O8_3 1_555 1_555
O5_5 In1_5 1_555 1_555
O6_5 C8_5 1_555 1_555
O7_4 In5_2 1_555 1_555
O8_3 C9_5 1_555 1_555
O9_5 C9_5 1_555 1_555
O10_5 H5_5 1_555 1_555
O11_5 H5_5 1_555 1_555
N3_5 In1_5 1_555 1_555
N4_3 C3_5 1_555 1_555
N5_5 In5_2 1_555 1_555
N6_4 In5_2 1_555 1_555
C7_5 O5_5 1_555 1_555
C8_5 O10_5 1_555 1_555
C9_5 C10_5 1_555 1_555
C10_5 C2_5 1_555 1_555
C11_5 N3_5 1_555 1_555
C12_5 N5_5 1_555 1_555
C13_5 N3_5 1_555 1_555
H6_5 C13_5 1_555 1_555
O12_5 In1_5 1_555 1_555
O13_5 C15_5 1_555 1_555
O15_4 In5_2 1_555 1_555
O18_5 H7_5 1_555 1_555
O19_5 H7_5 1_555 1_555
N7_5 In1_5 1_555 1_555
N9_5 In3_5 1_555 1_555
N11_4 In5_2 1_555 1_555
C14_5 O12_5 1_555 1_555
C15_5 O19_5 1_555 1_555
C18_5 N7_5 1_555 1_555
C19_5 N9_5 1_555 1_555
C20_5 N7_5 1_555 1_555
H8_5 C20_5 1_555 1_555
C1_5 C2_5 1_555 1_555
O4_5 C4_5 1_555 1_555
C4_5 C5_5 1_555 1_555
In4_2 N4_3 1_555 1_555
O11_5 C7_5 1_555 1_555
N4_3 C10_5 1_555 1_555
N5_5 C13_5 1_555 1_555
C7_5 C11_5 1_555 1_555
C8_5 C12_5 1_555 1_555
C11_5 C12_5 1_555 1_555
O18_5 C14_5 1_555 1_555
N9_5 C20_5 1_555 1_555
C14_5 C18_5 1_555 1_555
C15_5 C19_5 1_555 1_555
C18_5 C19_5 1_555 1_555
In1_6 O1_6 1_555 1_555
O1_6 C1_6 1_555 1_555
O2_6 H1_6 1_555 1_555
H1_6 O9_6 1_555 1_555
N1_6 In1_6 1_555 1_555
C1_6 O2_6 1_555 1_555
C2_6 N1_6 1_555 1_555
C3_6 N1_6 1_555 1_555
H2_6 C3_6 1_555 1_555
O3_6 In1_6 1_555 1_555
O4_6 H3_11 1_555 1_555
N2_6 In1_6 1_555 1_555
C4_6 O3_6 1_555 1_555
C5_6 N2_6 1_555 1_555
C6_11 N2_6 1_555 1_555
H4_11 C6_11 1_555 1_555
In2_3 O6_6 1_555 1_555
In3_3 O8_4 1_555 1_555
O5_6 In1_6 1_555 1_555
O6_6 C8_6 1_555 1_555
O7_5 In2_3 1_555 1_555
O8_4 C9_6 1_555 1_555
O9_6 C9_6 1_555 1_555
O10_6 H5_6 1_555 1_555
O11_6 H5_6 1_555 1_555
N3_6 In1_6 1_555 1_555
N4_4 C3_6 1_555 1_555
N5_6 In2_3 1_555 1_555
N6_5 In2_3 1_555 1_555
C7_6 O5_6 1_555 1_555
C8_6 O10_6 1_555 1_555
C9_6 C10_6 1_555 1_555
C10_6 C2_6 1_555 1_555
C11_6 N3_6 1_555 1_555
C12_6 N5_6 1_555 1_555
C13_6 N3_6 1_555 1_555
H6_6 C13_6 1_555 1_555
O12_6 In1_6 1_555 1_555
O15_2 C15_6 1_555 1_555
O14_5 In2_3 1_555 1_555
O15_5 In2_3 1_555 1_555
O18_6 H7_6 1_555 1_555
O19_6 H7_6 1_555 1_555
N7_6 In1_6 1_555 1_555
N10_5 In2_3 1_555 1_555
N11_5 In2_3 1_555 1_555
C14_6 O12_6 1_555 1_555
C15_6 O19_6 1_555 1_555
C18_6 N7_6 1_555 1_555
C19_6 N11_2 1_555 1_555
C20_6 N7_6 1_555 1_555
H8_6 C20_6 1_555 1_555
C1_6 C2_6 1_555 1_555
O4_6 C4_6 1_555 1_555
C4_6 C5_6 1_555 1_555
In3_3 N4_4 1_555 1_555
O11_6 C7_6 1_555 1_555
N4_4 C10_6 1_555 1_555
N5_6 C13_6 1_555 1_555
C7_6 C11_6 1_555 1_555
C8_6 C12_6 1_555 1_555
C11_6 C12_6 1_555 1_555
O18_6 C14_6 1_555 1_555
N11_2 C20_6 1_555 1_555
C14_6 C18_6 1_555 1_555
C15_6 C19_6 1_555 1_555
C18_6 C19_6 1_555 1_555
H3_12 O17_6 1_555 1_555
H4_12 C6_12 1_555 1_555
In3_5 O16_5 1_555 1_555
O16_5 C16_6 1_555 1_555
O17_6 C16_6 1_555 1_555
N8_5 C6_12 1_555 1_555
C16_6 C17_6 1_555 1_555
In3_5 N8_5 1_555 1_555
N8_5 C17_6 1_555 1_555
In1_7 O1_7 1_555 1_555
O1_7 C1_7 1_555 1_555
O2_7 H1_7 1_555 1_555
H1_7 O9_7 1_555 1_555
N1_7 In1_7 1_555 1_555
C1_7 O2_7 1_555 1_555
C2_7 N1_7 1_555 1_555
C3_7 N1_7 1_555 1_555
H2_7 C3_7 1_555 1_555
O3_7 In1_7 1_555 1_555
O4_7 H3_13 1_555 1_555
N2_7 In1_7 1_555 1_555
C4_7 O3_7 1_555 1_555
C5_7 N2_7 1_555 1_555
C6_13 N2_7 1_555 1_555
H4_13 C6_13 1_555 1_555
In2_4 O6_7 1_555 1_555
O5_7 In1_7 1_555 1_555
O6_7 C8_7 1_555 1_555
O7_6 In2_4 1_555 1_555
O7_3 C9_7 1_555 1_555
O9_7 C9_7 1_555 1_555
O10_7 H5_7 1_555 1_555
O11_7 H5_7 1_555 1_555
N3_7 In1_7 1_555 1_555
N6_3 C3_7 1_555 1_555
N5_7 In2_4 1_555 1_555
N6_6 In2_4 1_555 1_555
C7_7 O5_7 1_555 1_555
C8_7 O10_7 1_555 1_555
C9_7 C10_7 1_555 1_555
C10_7 C2_7 1_555 1_555
C11_7 N3_7 1_555 1_555
C12_7 N5_7 1_555 1_555
C13_7 N3_7 1_555 1_555
H6_7 C13_7 1_555 1_555
O12_7 In1_7 1_555 1_555
O15 C15_7 1_555 1_555
O14_6 In2_4 1_555 1_555
O15_6 In2_4 1_555 1_555
O18_7 H7_7 1_555 1_555
O19_7 H7_7 1_555 1_555
N7_7 In1_7 1_555 1_555
N10_6 In2_4 1_555 1_555
N11_6 In2_4 1_555 1_555
C14_7 O12_7 1_555 1_555
C15_7 O19_7 1_555 1_555
C18_7 N7_7 1_555 1_555
C19_7 N11 1_555 1_555
C20_7 N7_7 1_555 1_555
H8_7 C20_7 1_555 1_555
C1_7 C2_7 1_555 1_555
O4_7 C4_7 1_555 1_555
C4_7 C5_7 1_555 1_555
O11_7 C7_7 1_555 1_555
N6_3 C10_7 1_555 1_555
N5_7 C13_7 1_555 1_555
C7_7 C11_7 1_555 1_555
C8_7 C12_7 1_555 1_555
C11_7 C12_7 1_555 1_555
O18_7 C14_7 1_555 1_555
N11 C20_7 1_555 1_555
C14_7 C18_7 1_555 1_555
C15_7 C19_7 1_555 1_555
C18_7 C19_7 1_555 1_555
H3_14 O17_7 1_555 1_555
H4_14 C6_14 1_555 1_555
In5_5 O16_6 1_555 1_555
O16_6 C16_7 1_555 1_555
O17_7 C16_7 1_555 1_555
N8_6 C6_14 1_555 1_555
C16_7 C17_7 1_555 1_555
In5_5 N8_6 1_555 1_555
N8_6 C17_7 1_555 1_555
H3_15 O17_8 1_555 1_555
H4_15 C6_15 1_555 1_555
O14 C16_8 1_555 1_555
O17_8 C16_8 1_555 1_555
N10 C6_15 1_555 1_555
C16_8 C17_8 1_555 1_555
N10 C17_8 1_555 1_555
In1_8 O1_8 1_555 1_555
O1_8 C1_8 1_555 1_555
O2_8 H1_8 1_555 1_555
H1_8 O9_8 1_555 1_555
N1_8 In1_8 1_555 1_555
C1_8 O2_8 1_555 1_555
C2_8 N1_8 1_555 1_555
C3_8 N1_8 1_555 1_555
H2_8 C3_8 1_555 1_555
O3_8 In1_8 1_555 1_555
O4_8 H3_16 1_555 1_555
N2_8 In1_8 1_555 1_555
C4_8 O3_8 1_555 1_555
C5_8 N2_8 1_555 1_555
C6_16 N2_8 1_555 1_555
H4_16 C6_16 1_555 1_555
In5 O6_8 1_555 1_555
In5_5 O13_6 1_555 1_555
O5_8 In1_8 1_555 1_555
O6_8 C8_8 1_555 1_555
O7_7 In5 1_555 1_555
O7_5 C9_8 1_555 1_555
O9_8 C9_8 1_555 1_555
O10_8 H5_8 1_555 1_555
O11_8 H5_8 1_555 1_555
N3_8 In1_8 1_555 1_555
N6_5 C3_8 1_555 1_555
N5_8 In5 1_555 1_555
N6_7 In5 1_555 1_555
C7_8 O5_8 1_555 1_555
C8_8 O10_8 1_555 1_555
C9_8 C10_8 1_555 1_555
C10_8 C2_8 1_555 1_555
C11_8 N3_8 1_555 1_555
C12_8 N5_8 1_555 1_555
C13_8 N3_8 1_555 1_555
H6_8 C13_8 1_555 1_555
O12_8 In1_8 1_555 1_555
O13_6 C15_8 1_555 1_555
O15_7 In5 1_555 1_555
O18_8 H7_8 1_555 1_555
O19_8 H7_8 1_555 1_555
N7_8 In1_8 1_555 1_555
N9_6 In5_5 1_555 1_555
N11_7 In5 1_555 1_555
C14_8 O12_8 1_555 1_555
C15_8 O19_8 1_555 1_555
C18_8 N7_8 1_555 1_555
C19_8 N9_6 1_555 1_555
C20_8 N7_8 1_555 1_555
H8_8 C20_8 1_555 1_555
C1_8 C2_8 1_555 1_555
O4_8 C4_8 1_555 1_555
C4_8 C5_8 1_555 1_555
O11_8 C7_8 1_555 1_555
N6_5 C10_8 1_555 1_555
N5_8 C13_8 1_555 1_555
C7_8 C11_8 1_555 1_555
C8_8 C12_8 1_555 1_555
C11_8 C12_8 1_555 1_555
O18_8 C14_8 1_555 1_555
N9_6 C20_8 1_555 1_555
C14_8 C18_8 1_555 1_555
C15_8 C19_8 1_555 1_555
C18_8 C19_8 1_555 1_555
In1_9 O1_9 1_555 1_555
O1_9 C1_9 1_555 1_555
O2_9 H1_9 1_555 1_555
H1_9 O9_9 1_555 1_555
N1_9 In1_9 1_555 1_555
C1_9 O2_9 1_555 1_555
C2_9 N1_9 1_555 1_555
C3_9 N1_9 1_555 1_555
H2_9 C3_9 1_555 1_555
O3_9 In1_9 1_555 1_555
O4_9 H3_17 1_555 1_555
N2_9 In1_9 1_555 1_555
C4_9 O3_9 1_555 1_555
C5_9 N2_9 1_555 1_555
C6_17 N2_9 1_555 1_555
H4_17 C6_17 1_555 1_555
In3 O6_9 1_555 1_555
In3_6 O13_7 1_555 1_555
O5_9 In1_9 1_555 1_555
O6_9 C8_9 1_555 1_555
O7_8 In3 1_555 1_555
O7_4 C9_9 1_555 1_555
O9_9 C9_9 1_555 1_555
O10_9 H5_9 1_555 1_555
O11_9 H5_9 1_555 1_555
N3_9 In1_9 1_555 1_555
N6_4 C3_9 1_555 1_555
N5_9 In3 1_555 1_555
N6_8 In3 1_555 1_555
C7_9 O5_9 1_555 1_555
C8_9 O10_9 1_555 1_555
C9_9 C10_9 1_555 1_555
C10_9 C2_9 1_555 1_555
C11_9 N3_9 1_555 1_555
C12_9 N5_9 1_555 1_555
C13_9 N3_9 1_555 1_555
H6_9 C13_9 1_555 1_555
O12_9 In1_9 1_555 1_555
O13_7 C15_9 1_555 1_555
O14_7 In3 1_555 1_555
O18_9 H7_9 1_555 1_555
O19_9 H7_9 1_555 1_555
N7_9 In1_9 1_555 1_555
N9_7 In3_6 1_555 1_555
N10_7 In3 1_555 1_555
C14_9 O12_9 1_555 1_555
C15_9 O19_9 1_555 1_555
C18_9 N7_9 1_555 1_555
C19_9 N9_7 1_555 1_555
C20_9 N7_9 1_555 1_555
H8_9 C20_9 1_555 1_555
C1_9 C2_9 1_555 1_555
O4_9 C4_9 1_555 1_555
C4_9 C5_9 1_555 1_555
O11_9 C7_9 1_555 1_555
N6_4 C10_9 1_555 1_555
N5_9 C13_9 1_555 1_555
C7_9 C11_9 1_555 1_555
C8_9 C12_9 1_555 1_555
C11_9 C12_9 1_555 1_555
O18_9 C14_9 1_555 1_555
N9_7 C20_9 1_555 1_555
C14_9 C18_9 1_555 1_555
C15_9 C19_9 1_555 1_555
C18_9 C19_9 1_555 1_555
H3_18 O17_9 1_555 1_555
H4_18 C6_18 1_555 1_555
In5_6 O16_7 1_555 1_555
O16_7 C16_9 1_555 1_555
O17_9 C16_9 1_555 1_555
N8_7 C6_18 1_555 1_555
C16_9 C17_9 1_555 1_555
In5_6 N8_7 1_555 1_555
N8_7 C17_9 1_555 1_555
H3_19 O17_10 1_555 1_555
H4_19 C6_19 1_555 1_555
O14_3 C16_10 1_555 1_555
O17_10 C16_10 1_555 1_555
N10_3 C6_19 1_555 1_555
C16_10 C17_10 1_555 1_555
N10_3 C17_10 1_555 1_555
In1_10 O1_10 1_555 1_555
O1_10 C1_10 1_555 1_555
O2_10 H1_10 1_555 1_555
H1_10 O9_10 1_555 1_555
N1_10 In1_10 1_555 1_555
C1_10 O2_10 1_555 1_555
C2_10 N1_10 1_555 1_555
C3_10 N1_10 1_555 1_555
H2_10 C3_10 1_555 1_555
O3_10 In1_10 1_555 1_555
O4_10 H3_20 1_555 1_555
N2_10 In1_10 1_555 1_555
C4_10 O3_10 1_555 1_555
C5_10 N2_10 1_555 1_555
C6_20 N2_10 1_555 1_555
H4_20 C6_20 1_555 1_555
In5_3 O6_10 1_555 1_555
In3_7 O13_8 1_555 1_555
O5_10 In1_10 1_555 1_555
O6_10 C8_10 1_555 1_555
O7_6 C9_10 1_555 1_555
O9_10 C9_10 1_555 1_555
O10_10 H5_10 1_555 1_555
O11_10 H5_10 1_555 1_555
N3_10 In1_10 1_555 1_555
N6_6 C3_10 1_555 1_555
N5_10 In5_3 1_555 1_555
C7_10 O5_10 1_555 1_555
C8_10 O10_10 1_555 1_555
C9_10 C10_10 1_555 1_555
C10_10 C2_10 1_555 1_555
C11_10 N3_10 1_555 1_555
C12_10 N5_10 1_555 1_555
C13_10 N3_10 1_555 1_555
H6_10 C13_10 1_555 1_555
O12_10 In1_10 1_555 1_555
O13_8 C15_10 1_555 1_555
O15_8 In5_3 1_555 1_555
O18_10 H7_10 1_555 1_555
O19_10 H7_10 1_555 1_555
N7_10 In1_10 1_555 1_555
N9_8 In3_7 1_555 1_555
N11_8 In5_3 1_555 1_555
C14_10 O12_10 1_555 1_555
C15_10 O19_10 1_555 1_555
C18_10 N7_10 1_555 1_555
C19_10 N9_8 1_555 1_555
C20_10 N7_10 1_555 1_555
H8_10 C20_10 1_555 1_555
C1_10 C2_10 1_555 1_555
O4_10 C4_10 1_555 1_555
C4_10 C5_10 1_555 1_555
O11_10 C7_10 1_555 1_555
N6_6 C10_10 1_555 1_555
N5_10 C13_10 1_555 1_555
C7_10 C11_10 1_555 1_555
C8_10 C12_10 1_555 1_555
C11_10 C12_10 1_555 1_555
O18_10 C14_10 1_555 1_555
N9_8 C20_10 1_555 1_555
C14_10 C18_10 1_555 1_555
C15_10 C19_10 1_555 1_555
C18_10 C19_10 1_555 1_555
In1_11 O1_11 1_555 1_555
O1_11 C1_11 1_555 1_555
O2_11 H1_11 1_555 1_555
H1_11 O9_11 1_555 1_555
N1_11 In1_11 1_555 1_555
C1_11 O2_11 1_555 1_555
C2_11 N1_11 1_555 1_555
C3_11 N1_11 1_555 1_555
H2_11 C3_11 1_555 1_555
O3_11 In1_11 1_555 1_555
O4_11 H3_21 1_555 1_555
N2_11 In1_11 1_555 1_555
C4_11 O3_11 1_555 1_555
C5_11 N2_11 1_555 1_555
C6_21 N2_11 1_555 1_555
H4_21 C6_21 1_555 1_555
In4_2 O6_11 1_555 1_555
O5_11 In1_11 1_555 1_555
O6_11 C8_11 1_555 1_555
O7_8 C9_11 1_555 1_555
O9_11 C9_11 1_555 1_555
O10_11 H5_11 1_555 1_555
O11_11 H5_11 1_555 1_555
N3_11 In1_11 1_555 1_555
N6_8 C3_11 1_555 1_555
N5_11 In4_2 1_555 1_555
C7_11 O5_11 1_555 1_555
C8_11 O10_11 1_555 1_555
C9_11 C10_11 1_555 1_555
C10_11 C2_11 1_555 1_555
C11_11 N3_11 1_555 1_555
C12_11 N5_11 1_555 1_555
C13_11 N3_11 1_555 1_555
H6_11 C13_11 1_555 1_555
O12_11 In1_11 1_555 1_555
O15_3 C15_11 1_555 1_555
O14_8 In4_2 1_555 1_555
O15_9 In4_2 1_555 1_555
O18_11 H7_11 1_555 1_555
O19_11 H7_11 1_555 1_555
N7_11 In1_11 1_555 1_555
N10_8 In4_2 1_555 1_555
N11_9 In4_2 1_555 1_555
C14_11 O12_11 1_555 1_555
C15_11 O19_11 1_555 1_555
C18_11 N7_11 1_555 1_555
C19_11 N11_3 1_555 1_555
C20_11 N7_11 1_555 1_555
H8_11 C20_11 1_555 1_555
C1_11 C2_11 1_555 1_555
O4_11 C4_11 1_555 1_555
C4_11 C5_11 1_555 1_555
O11_11 C7_11 1_555 1_555
N6_8 C10_11 1_555 1_555
N5_11 C13_11 1_555 1_555
C7_11 C11_11 1_555 1_555
C8_11 C12_11 1_555 1_555
C11_11 C12_11 1_555 1_555
O18_11 C14_11 1_555 1_555
N11_3 C20_11 1_555 1_555
C14_11 C18_11 1_555 1_555
C15_11 C19_11 1_555 1_555
C18_11 C19_11 1_555 1_555
H3_22 O17_11 1_555 1_555
H4_22 C6_22 1_555 1_555
In3_7 O16_8 1_555 1_555
O16_8 C16_11 1_555 1_555
O17_11 C16_11 1_555 1_555
N8_8 C6_22 1_555 1_555
C16_11 C17_11 1_555 1_555
In3_7 N8_8 1_555 1_555
N8_8 C17_11 1_555 1_555
In1_12 O1_12 1_555 1_555
O1_12 C1_12 1_555 1_555
O2_12 H1_12 1_555 1_555
H1_12 O9_12 1_555 1_555
N1_12 In1_12 1_555 1_555
C1_12 O2_12 1_555 1_555
C2_12 N1_12 1_555 1_555
C3_12 N1_12 1_555 1_555
H2_12 C3_12 1_555 1_555
O3_12 In1_12 1_555 1_555
O4_12 H3_23 1_555 1_555
N2_12 In1_12 1_555 1_555
C4_12 O3_12 1_555 1_555
C5_12 N2_12 1_555 1_555
C6_23 N2_12 1_555 1_555
H4_23 C6_23 1_555 1_555
In3_3 O6_12 1_555 1_555
In3_8 O13_9 1_555 1_555
O5_12 In1_12 1_555 1_555
O6_12 C8_12 1_555 1_555
O7_7 C9_12 1_555 1_555
O9_12 C9_12 1_555 1_555
O10_12 H5_12 1_555 1_555
O11_12 H5_12 1_555 1_555
N3_12 In1_12 1_555 1_555
N6_7 C3_12 1_555 1_555
N5_12 In3_3 1_555 1_555
C7_12 O5_12 1_555 1_555
C8_12 O10_12 1_555 1_555
C9_12 C10_12 1_555 1_555
C10_12 C2_12 1_555 1_555
C11_12 N3_12 1_555 1_555
C12_12 N5_12 1_555 1_555
C13_12 N3_12 1_555 1_555
H6_12 C13_12 1_555 1_555
O12_12 In1_12 1_555 1_555
O13_9 C15_12 1_555 1_555
O14_9 In3_3 1_555 1_555
O18_12 H7_12 1_555 1_555
O19_12 H7_12 1_555 1_555
N7_12 In1_12 1_555 1_555
N9_9 In3_8 1_555 1_555
N10_9 In3_3 1_555 1_555
C14_12 O12_12 1_555 1_555
C15_12 O19_12 1_555 1_555
C18_12 N7_12 1_555 1_555
C19_12 N9_9 1_555 1_555
C20_12 N7_12 1_555 1_555
H8_12 C20_12 1_555 1_555
C1_12 C2_12 1_555 1_555
O4_12 C4_12 1_555 1_555
C4_12 C5_12 1_555 1_555
O11_12 C7_12 1_555 1_555
N6_7 C10_12 1_555 1_555
N5_12 C13_12 1_555 1_555
C7_12 C11_12 1_555 1_555
C8_12 C12_12 1_555 1_555
C11_12 C12_12 1_555 1_555
O18_12 C14_12 1_555 1_555
N9_9 C20_12 1_555 1_555
C14_12 C18_12 1_555 1_555
C15_12 C19_12 1_555 1_555
C18_12 C19_12 1_555 1_555
H3_24 O17_12 1_555 1_555
H4_24 C6_24 1_555 1_555
In5_7 O16_9 1_555 1_555
O16_9 C16_12 1_555 1_555
O17_12 C16_12 1_555 1_555
N8_9 C6_24 1_555 1_555
C16_12 C17_12 1_555 1_555
In5_7 N8_9 1_555 1_555
N8_9 C17_12 1_555 1_555
In3_4 O13_10 1_555 1_555
O13_10 C15_13 1_555 1_555
O19_13 H7_13 1_555 1_555
N9_10 In3_4 1_555 1_555
C15_13 O19_13 1_555 1_555
C19_13 N9_10 1_555 1_555
H8_13 C20_13 1_555 1_555
N9_10 C20_13 1_555 1_555
C15_13 C19_13 1_555 1_555
In1_13 O1_13 1_555 1_555
O1_13 C1_13 1_555 1_555
O2_13 H1_13 1_555 1_555
H1_13 O9_13 1_555 1_555
N1_13 In1_13 1_555 1_555
C1_13 O2_13 1_555 1_555
C2_13 N1_13 1_555 1_555
C3_13 N1_13 1_555 1_555
H2_13 C3_13 1_555 1_555
O3_13 In1_13 1_555 1_555
O4_13 H3_25 1_555 1_555
H3_25 O17_13 1_555 1_555
N2_13 In1_13 1_555 1_555
C4_13 O3_13 1_555 1_555
C5_13 N2_13 1_555 1_555
C6_25 N2_13 1_555 1_555
H4_25 C6_25 1_555 1_555
In2_5 O6_13 1_555 1_555
In4_3 O8_5 1_555 1_555
In5_4 O16_10 1_555 1_555
O5_13 In1_13 1_555 1_555
O6_13 C8_13 1_555 1_555
O7_9 In2_5 1_555 1_555
O8_5 C9_13 1_555 1_555
O9_13 C9_13 1_555 1_555
O10_13 H5_13 1_555 1_555
O11_13 H5_13 1_555 1_555
N3_13 In1_13 1_555 1_555
N4_5 C3_13 1_555 1_555
N5_13 In2_5 1_555 1_555
N6_9 In2_5 1_555 1_555
C7_13 O5_13 1_555 1_555
C8_13 O10_13 1_555 1_555
C9_13 C10_13 1_555 1_555
C10_13 C2_13 1_555 1_555
C11_13 N3_13 1_555 1_555
C12_13 N5_13 1_555 1_555
C13_13 N3_13 1_555 1_555
H6_13 C13_13 1_555 1_555
O12_13 In1_13 1_555 1_555
O14_10 In2_5 1_555 1_555
O15_10 In2_5 1_555 1_555
O16_10 C16_13 1_555 1_555
O17_13 C16_13 1_555 1_555
O18_13 H7_14 1_555 1_555
N7_13 In1_13 1_555 1_555
N8_10 C6_25 1_555 1_555
N10_10 In2_5 1_555 1_555
N11_10 In2_5 1_555 1_555
C14_13 O12_13 1_555 1_555
C16_13 C17_13 1_555 1_555
C17_13 C5_13 1_555 1_555
C18_13 N7_13 1_555 1_555
C20_14 N7_13 1_555 1_555
H8_14 C20_14 1_555 1_555
C1_13 C2_13 1_555 1_555
O4_13 C4_13 1_555 1_555
C4_13 C5_13 1_555 1_555
In4_3 N4_5 1_555 1_555
In5_4 N8_10 1_555 1_555
O11_13 C7_13 1_555 1_555
N4_5 C10_13 1_555 1_555
N5_13 C13_13 1_555 1_555
C7_13 C11_13 1_555 1_555
C8_13 C12_13 1_555 1_555
C11_13 C12_13 1_555 1_555
O18_13 C14_13 1_555 1_555
N8_10 C17_13 1_555 1_555
C14_13 C18_13 1_555 1_555
In3_8 O13_11 1_555 1_555
O13_11 C15_14 1_555 1_555
O19_14 H7_15 1_555 1_555
N9_11 In3_8 1_555 1_555
C15_14 O19_14 1_555 1_555
C19_14 N9_11 1_555 1_555
H8_15 C20_15 1_555 1_555
N9_11 C20_15 1_555 1_555
C15_14 C19_14 1_555 1_555
In1_14 O1_14 1_555 1_555
O1_14 C1_14 1_555 1_555
O2_14 H1_14 1_555 1_555
H1_14 O9_14 1_555 1_555
N1_14 In1_14 1_555 1_555
C1_14 O2_14 1_555 1_555
C2_14 N1_14 1_555 1_555
C3_14 N1_14 1_555 1_555
H2_14 C3_14 1_555 1_555
O3_14 In1_14 1_555 1_555
O4_14 H3_26 1_555 1_555
H3_26 O17_14 1_555 1_555
N2_14 In1_14 1_555 1_555
C4_14 O3_14 1_555 1_555
C5_14 N2_14 1_555 1_555
C6_26 N2_14 1_555 1_555
H4_26 C6_26 1_555 1_555
In2_6 O6_14 1_555 1_555
In5_7 O16_11 1_555 1_555
O5_14 In1_14 1_555 1_555
O6_14 C8_14 1_555 1_555
O7_10 In2_6 1_555 1_555
O7_9 C9_14 1_555 1_555
O9_14 C9_14 1_555 1_555
O10_14 H5_14 1_555 1_555
O11_14 H5_14 1_555 1_555
N3_14 In1_14 1_555 1_555
N6_9 C3_14 1_555 1_555
N5_14 In2_6 1_555 1_555
N6_10 In2_6 1_555 1_555
C7_14 O5_14 1_555 1_555
C8_14 O10_14 1_555 1_555
C9_14 C10_14 1_555 1_555
C10_14 C2_14 1_555 1_555
C11_14 N3_14 1_555 1_555
C12_14 N5_14 1_555 1_555
C13_14 N3_14 1_555 1_555
H6_14 C13_14 1_555 1_555
O12_14 In1_14 1_555 1_555
O14_11 In2_6 1_555 1_555
O15_11 In2_6 1_555 1_555
O16_11 C16_14 1_555 1_555
O17_14 C16_14 1_555 1_555
O18_14 H7_16 1_555 1_555
N7_14 In1_14 1_555 1_555
N8_11 C6_26 1_555 1_555
N10_11 In2_6 1_555 1_555
N11_11 In2_6 1_555 1_555
C14_14 O12_14 1_555 1_555
C16_14 C17_14 1_555 1_555
C17_14 C5_14 1_555 1_555
C18_14 N7_14 1_555 1_555
C20_16 N7_14 1_555 1_555
H8_16 C20_16 1_555 1_555
C1_14 C2_14 1_555 1_555
O4_14 C4_14 1_555 1_555
C4_14 C5_14 1_555 1_555
In5_7 N8_11 1_555 1_555
O11_14 C7_14 1_555 1_555
N6_9 C10_14 1_555 1_555
N5_14 C13_14 1_555 1_555
C7_14 C11_14 1_555 1_555
C8_14 C12_14 1_555 1_555
C11_14 C12_14 1_555 1_555
O18_14 C14_14 1_555 1_555
N8_11 C17_14 1_555 1_555
C14_14 C18_14 1_555 1_555
In3_6 O13_12 1_555 1_555
O13_12 C15_15 1_555 1_555
O19_15 H7_17 1_555 1_555
N9_12 In3_6 1_555 1_555
C15_15 O19_15 1_555 1_555
C19_15 N9_12 1_555 1_555
H8_17 C20_17 1_555 1_555
N9_12 C20_17 1_555 1_555
C15_15 C19_15 1_555 1_555
In1_15 O1_15 1_555 1_555
O1_15 C1_15 1_555 1_555
O2_15 H1_15 1_555 1_555
H1_15 O9_15 1_555 1_555
N1_15 In1_15 1_555 1_555
C1_15 O2_15 1_555 1_555
C2_15 N1_15 1_555 1_555
C3_15 N1_15 1_555 1_555
H2_15 C3_15 1_555 1_555
O3_15 In1_15 1_555 1_555
O4_15 H3_27 1_555 1_555
H3_27 O17_15 1_555 1_555
N2_15 In1_15 1_555 1_555
C4_15 O3_15 1_555 1_555
C5_15 N2_15 1_555 1_555
C6_27 N2_15 1_555 1_555
H4_27 C6_27 1_555 1_555
In4_3 O6_15 1_555 1_555
In5_6 O16_12 1_555 1_555
O5_15 In1_15 1_555 1_555
O6_15 C8_15 1_555 1_555
O7_10 C9_15 1_555 1_555
O9_15 C9_15 1_555 1_555
O10_15 H5_15 1_555 1_555
O11_15 H5_15 1_555 1_555
N3_15 In1_15 1_555 1_555
N6_10 C3_15 1_555 1_555
N5_15 In4_3 1_555 1_555
C7_15 O5_15 1_555 1_555
C8_15 O10_15 1_555 1_555
C9_15 C10_15 1_555 1_555
C10_15 C2_15 1_555 1_555
C11_15 N3_15 1_555 1_555
C12_15 N5_15 1_555 1_555
C13_15 N3_15 1_555 1_555
H6_15 C13_15 1_555 1_555
O12_15 In1_15 1_555 1_555
O14_12 In4_3 1_555 1_555
O15_12 In4_3 1_555 1_555
O16_12 C16_15 1_555 1_555
O17_15 C16_15 1_555 1_555
O18_15 H7_18 1_555 1_555
N7_15 In1_15 1_555 1_555
N8_12 C6_27 1_555 1_555
N10_12 In4_3 1_555 1_555
N11_12 In4_3 1_555 1_555
C14_15 O12_15 1_555 1_555
C16_15 C17_15 1_555 1_555
C17_15 C5_15 1_555 1_555
C18_15 N7_15 1_555 1_555
C20_18 N7_15 1_555 1_555
H8_18 C20_18 1_555 1_555
C1_15 C2_15 1_555 1_555
O4_15 C4_15 1_555 1_555
C4_15 C5_15 1_555 1_555
In5_6 N8_12 1_555 1_555
O11_15 C7_15 1_555 1_555
N6_10 C10_15 1_555 1_555
N5_15 C13_15 1_555 1_555
C7_15 C11_15 1_555 1_555
C8_15 C12_15 1_555 1_555
C11_15 C12_15 1_555 1_555
O18_15 C14_15 1_555 1_555
N8_12 C17_15 1_555 1_555
C14_15 C18_15 1_555 1_555
O14_7 C15_16 1_555 1_555
O19_16 H7_19 1_555 1_555
C15_16 O19_16 1_555 1_555
C19_16 N10_7 1_555 1_555
H8_19 C20_19 1_555 1_555
N10_7 C20_19 1_555 1_555
C15_16 C19_16 1_555 1_555
In1_16 O1_16 1_555 1_555
O1_16 C1_16 1_555 1_555
O2_16 H1_16 1_555 1_555
H1_16 O9_16 1_555 1_555
N1_16 In1_16 1_555 1_555
C1_16 O2_16 1_555 1_555
C2_16 N1_16 1_555 1_555
C3_16 N1_16 1_555 1_555
H2_16 C3_16 1_555 1_555
O3_16 In1_16 1_555 1_555
O4_16 H3_28 1_555 1_555
H3_28 O17_16 1_555 1_555
N2_16 In1_16 1_555 1_555
C4_16 O3_16 1_555 1_555
C5_16 N2_16 1_555 1_555
C6_28 N2_16 1_555 1_555
H4_28 C6_28 1_555 1_555
In3_8 O6_16 1_555 1_555
In5_6 O8_6 1_555 1_555
O5_16 In1_16 1_555 1_555
O6_16 C8_16 1_555 1_555
O7_11 In3_8 1_555 1_555
O8_6 C9_16 1_555 1_555
O9_16 C9_16 1_555 1_555
O10_16 H5_16 1_555 1_555
O11_16 H5_16 1_555 1_555
N3_16 In1_16 1_555 1_555
N4_6 C3_16 1_555 1_555
N5_16 In3_8 1_555 1_555
N6_11 In3_8 1_555 1_555
C7_16 O5_16 1_555 1_555
C8_16 O10_16 1_555 1_555
C9_16 C10_16 1_555 1_555
C10_16 C2_16 1_555 1_555
C11_16 N3_16 1_555 1_555
C12_16 N5_16 1_555 1_555
C13_16 N3_16 1_555 1_555
H6_16 C13_16 1_555 1_555
O12_16 In1_16 1_555 1_555
O15_7 C16_16 1_555 1_555
O17_16 C16_16 1_555 1_555
O18_16 H7_20 1_555 1_555
N7_16 In1_16 1_555 1_555
N11_7 C6_28 1_555 1_555
C14_16 O12_16 1_555 1_555
C16_16 C17_16 1_555 1_555
C17_16 C5_16 1_555 1_555
C18_16 N7_16 1_555 1_555
C20_20 N7_16 1_555 1_555
H8_20 C20_20 1_555 1_555
C1_16 C2_16 1_555 1_555
O4_16 C4_16 1_555 1_555
C4_16 C5_16 1_555 1_555
In5_6 N4_6 1_555 1_555
O11_16 C7_16 1_555 1_555
N4_6 C10_16 1_555 1_555
N5_16 C13_16 1_555 1_555
C7_16 C11_16 1_555 1_555
C8_16 C12_16 1_555 1_555
C11_16 C12_16 1_555 1_555
O18_16 C14_16 1_555 1_555
N11_7 C17_16 1_555 1_555
C14_16 C18_16 1_555 1_555
O14_6 C15_17 1_555 1_555
O19_17 H7_21 1_555 1_555
C15_17 O19_17 1_555 1_555
C19_17 N10_6 1_555 1_555
H8_21 C20_21 1_555 1_555
N10_6 C20_21 1_555 1_555
C15_17 C19_17 1_555 1_555
In1_17 O1_17 1_555 1_555
O1_17 C1_17 1_555 1_555
O2_17 H1_17 1_555 1_555
H1_17 O9_17 1_555 1_555
N1_17 In1_17 1_555 1_555
C1_17 O2_17 1_555 1_555
C2_17 N1_17 1_555 1_555
C3_17 N1_17 1_555 1_555
H2_17 C3_17 1_555 1_555
O3_17 In1_17 1_555 1_555
O4_17 H3_29 1_555 1_555
H3_29 O17_17 1_555 1_555
N2_17 In1_17 1_555 1_555
C4_17 O3_17 1_555 1_555
C5_17 N2_17 1_555 1_555
C6_29 N2_17 1_555 1_555
H4_29 C6_29 1_555 1_555
In5_7 O6_17 1_555 1_555
In5_5 O8_7 1_555 1_555
O5_17 In1_17 1_555 1_555
O6_17 C8_17 1_555 1_555
O7_12 In5_7 1_555 1_555
O8_7 C9_17 1_555 1_555
O9_17 C9_17 1_555 1_555
O10_17 H5_17 1_555 1_555
O11_17 H5_17 1_555 1_555
N3_17 In1_17 1_555 1_555
N4_7 C3_17 1_555 1_555
N5_17 In5_7 1_555 1_555
N6_12 In5_7 1_555 1_555
C7_17 O5_17 1_555 1_555
C8_17 O10_17 1_555 1_555
C9_17 C10_17 1_555 1_555
C10_17 C2_17 1_555 1_555
C11_17 N3_17 1_555 1_555
C12_17 N5_17 1_555 1_555
C13_17 N3_17 1_555 1_555
H6_17 C13_17 1_555 1_555
O12_17 In1_17 1_555 1_555
O14_11 C16_17 1_555 1_555
O17_17 C16_17 1_555 1_555
O18_17 H7_22 1_555 1_555
N7_17 In1_17 1_555 1_555
N10_11 C6_29 1_555 1_555
C14_17 O12_17 1_555 1_555
C16_17 C17_17 1_555 1_555
C17_17 C5_17 1_555 1_555
C18_17 N7_17 1_555 1_555
C20_22 N7_17 1_555 1_555
H8_22 C20_22 1_555 1_555
C1_17 C2_17 1_555 1_555
O4_17 C4_17 1_555 1_555
C4_17 C5_17 1_555 1_555
In5_5 N4_7 1_555 1_555
O11_17 C7_17 1_555 1_555
N4_7 C10_17 1_555 1_555
N5_17 C13_17 1_555 1_555
C7_17 C11_17 1_555 1_555
C8_17 C12_17 1_555 1_555
C11_17 C12_17 1_555 1_555
O18_17 C14_17 1_555 1_555
N10_11 C17_17 1_555 1_555
C14_17 C18_17 1_555 1_555
In1_18 O1_18 1_555 1_555
O1_18 C1_18 1_555 1_555
O2_18 H1_18 1_555 1_555
H1_18 O9_18 1_555 1_555
N1_18 In1_18 1_555 1_555
C1_18 O2_18 1_555 1_555
C2_18 N1_18 1_555 1_555
C3_18 N1_18 1_555 1_555
H2_18 C3_18 1_555 1_555
O3_18 In1_18 1_555 1_555
O4_18 H3_30 1_555 1_555
H3_30 O17_18 1_555 1_555
N2_18 In1_18 1_555 1_555
C4_18 O3_18 1_555 1_555
C5_18 N2_18 1_555 1_555
C6_30 N2_18 1_555 1_555
H4_30 C6_30 1_555 1_555
In3_7 O6_18 1_555 1_555
In3_6 O8_8 1_555 1_555
O5_18 In1_18 1_555 1_555
O6_18 C8_18 1_555 1_555
O7_13 In3_7 1_555 1_555
O8_8 C9_18 1_555 1_555
O9_18 C9_18 1_555 1_555
O10_18 H5_18 1_555 1_555
O11_18 H5_18 1_555 1_555
N3_18 In1_18 1_555 1_555
N4_8 C3_18 1_555 1_555
N5_18 In3_7 1_555 1_555
N6_13 In3_7 1_555 1_555
C7_18 O5_18 1_555 1_555
C8_18 O10_18 1_555 1_555
C9_18 C10_18 1_555 1_555
C10_18 C2_18 1_555 1_555
C11_18 N3_18 1_555 1_555
C12_18 N5_18 1_555 1_555
C13_18 N3_18 1_555 1_555
H6_18 C13_18 1_555 1_555
O12_18 In1_18 1_555 1_555
O15_6 C16_18 1_555 1_555
O17_18 C16_18 1_555 1_555
O18_18 H7_23 1_555 1_555
N7_18 In1_18 1_555 1_555
N11_6 C6_30 1_555 1_555
C14_18 O12_18 1_555 1_555
C16_18 C17_18 1_555 1_555
C17_18 C5_18 1_555 1_555
C18_18 N7_18 1_555 1_555
C20_23 N7_18 1_555 1_555
H8_23 C20_23 1_555 1_555
C1_18 C2_18 1_555 1_555
O4_18 C4_18 1_555 1_555
C4_18 C5_18 1_555 1_555
In3_6 N4_8 1_555 1_555
O11_18 C7_18 1_555 1_555
N4_8 C10_18 1_555 1_555
N5_18 C13_18 1_555 1_555
C7_18 C11_18 1_555 1_555
C8_18 C12_18 1_555 1_555
C11_18 C12_18 1_555 1_555
O18_18 C14_18 1_555 1_555
N11_6 C17_18 1_555 1_555
C14_18 C18_18 1_555 1_555
O15_11 C15_18 1_555 1_555
O19_18 H7_24 1_555 1_555
C15_18 O19_18 1_555 1_555
C19_18 N11_11 1_555 1_555
H8_24 C20_24 1_555 1_555
N11_11 C20_24 1_555 1_555
C15_18 C19_18 1_555 1_555
In1_19 O1_19 1_555 1_555
O1_19 C1_19 1_555 1_555
O2_19 H1_19 1_555 1_555
H1_19 O9_19 1_555 1_555
N1_19 In1_19 1_555 1_555
C1_19 O2_19 1_555 1_555
C2_19 N1_19 1_555 1_555
C3_19 N1_19 1_555 1_555
H2_19 C3_19 1_555 1_555
O3_19 In1_19 1_555 1_555
O4_19 H3_31 1_555 1_555
H3_31 O17_19 1_555 1_555
N2_19 In1_19 1_555 1_555
C4_19 O3_19 1_555 1_555
C5_19 N2_19 1_555 1_555
C6_31 N2_19 1_555 1_555
H4_31 C6_31 1_555 1_555
In3_5 O6_19 1_555 1_555
O5_19 In1_19 1_555 1_555
O6_19 C8_19 1_555 1_555
O7_14 In3_5 1_555 1_555
O7_11 C9_19 1_555 1_555
O9_19 C9_19 1_555 1_555
O10_19 H5_19 1_555 1_555
O11_19 H5_19 1_555 1_555
N3_19 In1_19 1_555 1_555
N6_11 C3_19 1_555 1_555
N5_19 In3_5 1_555 1_555
N6_14 In3_5 1_555 1_555
C7_19 O5_19 1_555 1_555
C8_19 O10_19 1_555 1_555
C9_19 C10_19 1_555 1_555
C10_19 C2_19 1_555 1_555
C11_19 N3_19 1_555 1_555
C12_19 N5_19 1_555 1_555
C13_19 N3_19 1_555 1_555
H6_19 C13_19 1_555 1_555
O12_19 In1_19 1_555 1_555
O15_9 C16_19 1_555 1_555
O17_19 C16_19 1_555 1_555
O18_19 H7_25 1_555 1_555
N7_19 In1_19 1_555 1_555
N11_9 C6_31 1_555 1_555
C14_19 O12_19 1_555 1_555
C16_19 C17_19 1_555 1_555
C17_19 C5_19 1_555 1_555
C18_19 N7_19 1_555 1_555
C20_25 N7_19 1_555 1_555
H8_25 C20_25 1_555 1_555
C1_19 C2_19 1_555 1_555
O4_19 C4_19 1_555 1_555
C4_19 C5_19 1_555 1_555
O11_19 C7_19 1_555 1_555
N6_11 C10_19 1_555 1_555
N5_19 C13_19 1_555 1_555
C7_19 C11_19 1_555 1_555
C8_19 C12_19 1_555 1_555
C11_19 C12_19 1_555 1_555
O18_19 C14_19 1_555 1_555
N11_9 C17_19 1_555 1_555
C14_19 C18_19 1_555 1_555
O15_10 C15_19 1_555 1_555
O19_19 H7_26 1_555 1_555
C15_19 O19_19 1_555 1_555
C19_19 N11_10 1_555 1_555
H8_26 C20_26 1_555 1_555
N11_10 C20_26 1_555 1_555
C15_19 C19_19 1_555 1_555
O14_8 C15_20 1_555 1_555
O19_20 H7_27 1_555 1_555
C15_20 O19_20 1_555 1_555
C19_20 N10_8 1_555 1_555
H8_27 C20_27 1_555 1_555
N10_8 C20_27 1_555 1_555
C15_20 C19_20 1_555 1_555
In1_20 O1_20 1_555 1_555
O1_20 C1_20 1_555 1_555
O2_20 H1_20 1_555 1_555
H1_20 O9_20 1_555 1_555
N1_20 In1_20 1_555 1_555
C1_20 O2_20 1_555 1_555
C2_20 N1_20 1_555 1_555
C3_20 N1_20 1_555 1_555
H2_20 C3_20 1_555 1_555
O3_20 In1_20 1_555 1_555
O4_20 H3_32 1_555 1_555
H3_32 O17_20 1_555 1_555
N2_20 In1_20 1_555 1_555
C4_20 O3_20 1_555 1_555
C5_20 N2_20 1_555 1_555
C6_32 N2_20 1_555 1_555
H4_32 C6_32 1_555 1_555
In5_4 O6_20 1_555 1_555
O5_20 In1_20 1_555 1_555
O6_20 C8_20 1_555 1_555
O7_15 In5_4 1_555 1_555
O7_13 C9_20 1_555 1_555
O9_20 C9_20 1_555 1_555
O10_20 H5_20 1_555 1_555
O11_20 H5_20 1_555 1_555
N3_20 In1_20 1_555 1_555
N6_13 C3_20 1_555 1_555
N5_20 In5_4 1_555 1_555
N6_15 In5_4 1_555 1_555
C7_20 O5_20 1_555 1_555
C8_20 O10_20 1_555 1_555
C9_20 C10_20 1_555 1_555
C10_20 C2_20 1_555 1_555
C11_20 N3_20 1_555 1_555
C12_20 N5_20 1_555 1_555
C13_20 N3_20 1_555 1_555
H6_20 C13_20 1_555 1_555
O12_20 In1_20 1_555 1_555
O14_10 C16_20 1_555 1_555
O17_20 C16_20 1_555 1_555
O18_20 H7_28 1_555 1_555
N7_20 In1_20 1_555 1_555
N10_10 C6_32 1_555 1_555
C14_20 O12_20 1_555 1_555
C16_20 C17_20 1_555 1_555
C17_20 C5_20 1_555 1_555
C18_20 N7_20 1_555 1_555
C20_28 N7_20 1_555 1_555
H8_28 C20_28 1_555 1_555
C1_20 C2_20 1_555 1_555
O4_20 C4_20 1_555 1_555
C4_20 C5_20 1_555 1_555
O11_20 C7_20 1_555 1_555
N6_13 C10_20 1_555 1_555
N5_20 C13_20 1_555 1_555
C7_20 C11_20 1_555 1_555
C8_20 C12_20 1_555 1_555
C11_20 C12_20 1_555 1_555
O18_20 C14_20 1_555 1_555
N10_10 C17_20 1_555 1_555
C14_20 C18_20 1_555 1_555
O14_9 C15_21 1_555 1_555
O19_21 H7_29 1_555 1_555
C15_21 O19_21 1_555 1_555
C19_21 N10_9 1_555 1_555
H8_29 C20_29 1_555 1_555
N10_9 C20_29 1_555 1_555
C15_21 C19_21 1_555 1_555
In1_21 O1_21 1_555 1_555
O1_21 C1_21 1_555 1_555
O2_21 H1_21 1_555 1_555
H1_21 O9_21 1_555 1_555
N1_21 In1_21 1_555 1_555
C1_21 O2_21 1_555 1_555
C2_21 N1_21 1_555 1_555
C3_21 N1_21 1_555 1_555
H2_21 C3_21 1_555 1_555
O3_21 In1_21 1_555 1_555
O4_21 H3_33 1_555 1_555
H3_33 O17_21 1_555 1_555
N2_21 In1_21 1_555 1_555
C4_21 O3_21 1_555 1_555
C5_21 N2_21 1_555 1_555
C6_33 N2_21 1_555 1_555
H4_33 C6_33 1_555 1_555
In3_4 O6_21 1_555 1_555
O5_21 In1_21 1_555 1_555
O6_21 C8_21 1_555 1_555
O7_16 In3_4 1_555 1_555
O7_12 C9_21 1_555 1_555
O9_21 C9_21 1_555 1_555
O10_21 H5_21 1_555 1_555
O11_21 H5_21 1_555 1_555
N3_21 In1_21 1_555 1_555
N6_12 C3_21 1_555 1_555
N5_21 In3_4 1_555 1_555
N6_16 In3_4 1_555 1_555
C7_21 O5_21 1_555 1_555
C8_21 O10_21 1_555 1_555
C9_21 C10_21 1_555 1_555
C10_21 C2_21 1_555 1_555
C11_21 N3_21 1_555 1_555
C12_21 N5_21 1_555 1_555
C13_21 N3_21 1_555 1_555
H6_21 C13_21 1_555 1_555
O12_21 In1_21 1_555 1_555
O15_8 C16_21 1_555 1_555
O17_21 C16_21 1_555 1_555
O18_21 H7_30 1_555 1_555
N7_21 In1_21 1_555 1_555
N11_8 C6_33 1_555 1_555
C14_21 O12_21 1_555 1_555
C16_21 C17_21 1_555 1_555
C17_21 C5_21 1_555 1_555
C18_21 N7_21 1_555 1_555
C20_30 N7_21 1_555 1_555
H8_30 C20_30 1_555 1_555
C1_21 C2_21 1_555 1_555
O4_21 C4_21 1_555 1_555
C4_21 C5_21 1_555 1_555
O11_21 C7_21 1_555 1_555
N6_12 C10_21 1_555 1_555
N5_21 C13_21 1_555 1_555
C7_21 C11_21 1_555 1_555
C8_21 C12_21 1_555 1_555
C11_21 C12_21 1_555 1_555
O18_21 C14_21 1_555 1_555
N11_8 C17_21 1_555 1_555
C14_21 C18_21 1_555 1_555
O14_5 C15_22 1_555 1_555
O19_22 H7_31 1_555 1_555
C15_22 O19_22 1_555 1_555
C19_22 N10_5 1_555 1_555
H8_31 C20_31 1_555 1_555
N10_5 C20_31 1_555 1_555
C15_22 C19_22 1_555 1_555
In1_22 O1_22 1_555 1_555
O1_22 C1_22 1_555 1_555
O2_22 H1_22 1_555 1_555
H1_22 O9_22 1_555 1_555
N1_22 In1_22 1_555 1_555
C1_22 O2_22 1_555 1_555
C2_22 N1_22 1_555 1_555
C3_22 N1_22 1_555 1_555
H2_22 C3_22 1_555 1_555
O3_22 In1_22 1_555 1_555
O4_22 H3_34 1_555 1_555
H3_34 O17_22 1_555 1_555
N2_22 In1_22 1_555 1_555
C4_22 O3_22 1_555 1_555
C5_22 N2_22 1_555 1_555
C6_34 N2_22 1_555 1_555
H4_34 C6_34 1_555 1_555
In5_6 O6_22 1_555 1_555
O5_22 In1_22 1_555 1_555
O6_22 C8_22 1_555 1_555
O7_14 C9_22 1_555 1_555
O9_22 C9_22 1_555 1_555
O10_22 H5_22 1_555 1_555
O11_22 H5_22 1_555 1_555
N3_22 In1_22 1_555 1_555
N6_14 C3_22 1_555 1_555
N5_22 In5_6 1_555 1_555
C7_22 O5_22 1_555 1_555
C8_22 O10_22 1_555 1_555
C9_22 C10_22 1_555 1_555
C10_22 C2_22 1_555 1_555
C11_22 N3_22 1_555 1_555
C12_22 N5_22 1_555 1_555
C13_22 N3_22 1_555 1_555
H6_22 C13_22 1_555 1_555
O12_22 In1_22 1_555 1_555
O14_12 C16_22 1_555 1_555
O17_22 C16_22 1_555 1_555
O18_22 H7_32 1_555 1_555
N7_22 In1_22 1_555 1_555
N10_12 C6_34 1_555 1_555
C14_22 O12_22 1_555 1_555
C16_22 C17_22 1_555 1_555
C17_22 C5_22 1_555 1_555
C18_22 N7_22 1_555 1_555
C20_32 N7_22 1_555 1_555
H8_32 C20_32 1_555 1_555
C1_22 C2_22 1_555 1_555
O4_22 C4_22 1_555 1_555
C4_22 C5_22 1_555 1_555
O11_22 C7_22 1_555 1_555
N6_14 C10_22 1_555 1_555
N5_22 C13_22 1_555 1_555
C7_22 C11_22 1_555 1_555
C8_22 C12_22 1_555 1_555
C11_22 C12_22 1_555 1_555
O18_22 C14_22 1_555 1_555
N10_12 C17_22 1_555 1_555
C14_22 C18_22 1_555 1_555
In1_23 O1_23 1_555 1_555
O1_23 C1_23 1_555 1_555
O2_23 H1_23 1_555 1_555
H1_23 O9_23 1_555 1_555
N1_23 In1_23 1_555 1_555
C1_23 O2_23 1_555 1_555
C2_23 N1_23 1_555 1_555
C3_23 N1_23 1_555 1_555
H2_23 C3_23 1_555 1_555
O3_23 In1_23 1_555 1_555
O4_23 H3_35 1_555 1_555
H3_35 O17_23 1_555 1_555
N2_23 In1_23 1_555 1_555
C4_23 O3_23 1_555 1_555
C5_23 N2_23 1_555 1_555
C6_35 N2_23 1_555 1_555
H4_35 C6_35 1_555 1_555
In5_5 O6_23 1_555 1_555
O5_23 In1_23 1_555 1_555
O6_23 C8_23 1_555 1_555
O7_16 C9_23 1_555 1_555
O9_23 C9_23 1_555 1_555
O10_23 H5_23 1_555 1_555
O11_23 H5_23 1_555 1_555
N3_23 In1_23 1_555 1_555
N6_16 C3_23 1_555 1_555
N5_23 In5_5 1_555 1_555
C7_23 O5_23 1_555 1_555
C8_23 O10_23 1_555 1_555
C9_23 C10_23 1_555 1_555
C10_23 C2_23 1_555 1_555
C11_23 N3_23 1_555 1_555
C12_23 N5_23 1_555 1_555
C13_23 N3_23 1_555 1_555
H6_23 C13_23 1_555 1_555
O12_23 In1_23 1_555 1_555
O15_5 C16_23 1_555 1_555
O17_23 C16_23 1_555 1_555
O18_23 H7_33 1_555 1_555
N7_23 In1_23 1_555 1_555
N11_5 C6_35 1_555 1_555
C14_23 O12_23 1_555 1_555
C16_23 C17_23 1_555 1_555
C17_23 C5_23 1_555 1_555
C18_23 N7_23 1_555 1_555
C20_33 N7_23 1_555 1_555
H8_33 C20_33 1_555 1_555
C1_23 C2_23 1_555 1_555
O4_23 C4_23 1_555 1_555
C4_23 C5_23 1_555 1_555
O11_23 C7_23 1_555 1_555
N6_16 C10_23 1_555 1_555
N5_23 C13_23 1_555 1_555
C7_23 C11_23 1_555 1_555
C8_23 C12_23 1_555 1_555
C11_23 C12_23 1_555 1_555
O18_23 C14_23 1_555 1_555
N11_5 C17_23 1_555 1_555
C14_23 C18_23 1_555 1_555
O15_12 C15_23 1_555 1_555
O19_23 H7_34 1_555 1_555
C15_23 O19_23 1_555 1_555
C19_23 N11_12 1_555 1_555
H8_34 C20_34 1_555 1_555
N11_12 C20_34 1_555 1_555
C15_23 C19_23 1_555 1_555
O14_4 C15_24 1_555 1_555
O19_24 H7_35 1_555 1_555
C15_24 O19_24 1_555 1_555
C19_24 N10_4 1_555 1_555
H8_35 C20_35 1_555 1_555
N10_4 C20_35 1_555 1_555
C15_24 C19_24 1_555 1_555
In1_24 O1_24 1_555 1_555
O1_24 C1_24 1_555 1_555
O2_24 H1_24 1_555 1_555
H1_24 O9_24 1_555 1_555
N1_24 In1_24 1_555 1_555
C1_24 O2_24 1_555 1_555
C2_24 N1_24 1_555 1_555
C3_24 N1_24 1_555 1_555
H2_24 C3_24 1_555 1_555
O3_24 In1_24 1_555 1_555
O4_24 H3_36 1_555 1_555
H3_36 O17_24 1_555 1_555
N2_24 In1_24 1_555 1_555
C4_24 O3_24 1_555 1_555
C5_24 N2_24 1_555 1_555
C6_36 N2_24 1_555 1_555
H4_36 C6_36 1_555 1_555
In3_6 O6_24 1_555 1_555
O5_24 In1_24 1_555 1_555
O6_24 C8_24 1_555 1_555
O7_15 C9_24 1_555 1_555
O9_24 C9_24 1_555 1_555
O10_24 H5_24 1_555 1_555
O11_24 H5_24 1_555 1_555
N3_24 In1_24 1_555 1_555
N6_15 C3_24 1_555 1_555
N5_24 In3_6 1_555 1_555
C7_24 O5_24 1_555 1_555
C8_24 O10_24 1_555 1_555
C9_24 C10_24 1_555 1_555
C10_24 C2_24 1_555 1_555
C11_24 N3_24 1_555 1_555
C12_24 N5_24 1_555 1_555
C13_24 N3_24 1_555 1_555
H6_24 C13_24 1_555 1_555
O12_24 In1_24 1_555 1_555
O15_4 C16_24 1_555 1_555
O17_24 C16_24 1_555 1_555
O18_24 H7_36 1_555 1_555
N7_24 In1_24 1_555 1_555
N11_4 C6_36 1_555 1_555
C14_24 O12_24 1_555 1_555
C16_24 C17_24 1_555 1_555
C17_24 C5_24 1_555 1_555
C18_24 N7_24 1_555 1_555
C20_36 N7_24 1_555 1_555
H8_36 C20_36 1_555 1_555
C1_24 C2_24 1_555 1_555
O4_24 C4_24 1_555 1_555
C4_24 C5_24 1_555 1_555
O11_24 C7_24 1_555 1_555
N6_15 C10_24 1_555 1_555
N5_24 C13_24 1_555 1_555
C7_24 C11_24 1_555 1_555
C8_24 C12_24 1_555 1_555
C11_24 C12_24 1_555 1_555
O18_24 C14_24 1_555 1_555
N11_4 C17_24 1_555 1_555
C14_24 C18_24 1_555 1_555

#END
