
###############################################################################
#
# This file contains modified crystal structure data generated from the
# MOF subset of the Cambridge Structural Database (CSD) v543 
# hosted by the Cambridge Crystallographic Data Centre (CCDC).
#
# This work is licensed under the Creative Commons
# Attribution-NonCommercial-ShareAlike 4.0 International License.
# To view a copy of this license, visit
# http://creativecommons.org/licenses/by-nc-sa/4.0/
# or send a letter to
# Creative Commons, PO Box 1866, Mountain View, CA 94042, USA.
#
# CIF created using the CSD Python API on 29 September 2022
# The structure has been converted into the P1 space group
# The structure has a 3D framework
# The original CSD entry TEGHAS is in the monoclinic crystal system
# The framework has been calculated to contain at least 10.0% void space
# The void calculation uses a probe of radius 1.32A, grid spacing 0.4
# H atom positions have been added when not included in the experimental data
# Generated hydrogen atom positions removed from atoms on special positions
#
###############################################################################

data_TEGHAS
_chemical_formula_moiety         '(C144 H120 N8 O73 Zn12)n'
_symmetry_cell_setting           triclinic
_symmetry_space_group_name_H-M   'P 1'
_symmetry_Int_Tables_number      1
_space_group_name_Hall           'P 1'
loop_
_symmetry_equiv_pos_site_id
_symmetry_equiv_pos_as_xyz
1 x,y,z
_cell_length_a                   20.631(5)
_cell_length_b                   25.846(5)
_cell_length_c                   14.114(5)
_cell_angle_alpha                90
_cell_angle_beta                 123.324(5)
_cell_angle_gamma                90
_cell_volume                     6288.55
loop_
_atom_site_label
_atom_site_type_symbol
_atom_site_fract_x
_atom_site_fract_y
_atom_site_fract_z
O11 O 0.1436(2) 0.4640(2) 0.0573(3)
O12 O 0.1905(2) 0.4848(2) 0.2793(3)
O13 O 0.1072(2) 0.5276(2) 0.2989(3)
C19 C 0.1248(3) 0.5041(2) 0.2379(5)
C20 C 0.0624(3) 0.5007(2) 0.1147(5)
C21 C 0.0742(3) 0.4816(3) 0.0311(5)
Zn7 Zn 0.22272(4) 0.43055(3) 0.20712(5)
Zn10 Zn 0.18110(4) 0.53795(3) 0.45829(5)
C22 C 0.0115(3) 0.4820(3) 0.9198(5)
H9 H 0.019035 0.470096 0.864371
Zn9 Zn 0.18110(4) 0.46205(3) 0.95829(5)
C10 C 0.9885(3) 0.5180(3) 0.0802(5)
H6 H 0.980965 0.529904 0.135629
Zn11 Zn 0.81890(4) 0.53795(3) 0.04171(5)
Zn1 Zn 0.77728(4) 0.56945(3) 0.79288(5)
O1 O 0.8564(2) 0.5360(2) 0.9427(3)
N1 N 0.6922(3) 0.5996(2) 0.6347(4)
C1 C 0.7052(5) 0.6033(3) 0.5521(6)
H1 H 0.755263 0.599219 0.569061
Zn2 Zn 0.81890(4) 0.46205(3) 0.54171(5)
O2 O 0.8095(2) 0.5152(2) 0.7207(3)
C2 C 0.6439(6) 0.6132(4) 0.4400(7)
H2 H 0.653846 0.616012 0.383458
O3 O 0.8928(2) 0.4724(2) 0.7011(3)
C3 C 0.5688(5) 0.6189(3) 0.4129(7)
O4 O 0.5952(3) 0.4881(2) 0.4838(4)
C4 C 0.5585(5) 0.6179(4) 0.4990(7)
H3 H 0.509566 0.623885 0.485270
O5 O 0.6885(2) 0.4789(2) 0.2860(4)
C5 C 0.6200(5) 0.6079(3) 0.6069(6)
H4 H 0.610812 0.606900 0.664487
O6 O 0.7099(2) 0.4830(2) 0.4584(4)
C6 C 0.4995(6) 0.6230(4) 0.2953(7)
H5 H 0.451384 0.625791 0.286091
O7 O 0.8076(4) 0.3858(2) 0.5546(4)
O8 O 0.8643(4) 0.6235(3) 0.8106(6)
O9 O 0.7473(3) 0.3726(2) 0.3696(4)
C7 C 0.8752(3) 0.4959(2) 0.7621(5)
C8 C 0.9376(3) 0.4993(2) 0.8853(5)
C9 C 0.9258(3) 0.5184(3) 0.9689(5)
C11 C 0.4704(3) 0.4892(3) 0.3177(5)
H7 H 0.450462 0.490658 0.362893
C12 C 0.5501(3) 0.4884(3) 0.3686(5)
C13 C 0.5807(3) 0.4878(3) 0.3007(5)
C14 C 0.6655(3) 0.4829(3) 0.3492(5)
C15 C 0.7734(5) 0.3567(3) 0.4680(6)
C16 C 0.7617(5) 0.3014(3) 0.4832(6)
C17 C 0.7887(6) 0.2828(4) 0.5922(6)
H8 H 0.814623 0.304903 0.654222
C18 C 0.7772(6) 0.2321(3) 0.6078(6)
O10 O 0.8070(6) 0.2160(3) 0.7179(5)
C24 C 0.3561(6) 0.6132(4) 0.0600(7)
H11 H 0.346154 0.616012 0.116542
C25 C 0.4312(5) 0.6189(3) 0.0871(7)
C26 C 0.4415(5) 0.6179(4) 0.0010(7)
H12 H 0.490434 0.623885 0.014730
C28 C 0.5005(6) 0.6230(4) 0.2047(7)
H14 H 0.548616 0.625791 0.213909
O14 O 0.4048(3) 0.4881(2) 0.0162(4)
O15 O 0.3115(2) 0.4789(2) 0.2140(4)
O16 O 0.2901(2) 0.4830(2) 0.0416(4)
C29 C 0.5296(3) 0.4892(3) 0.1823(5)
H15 H 0.549538 0.490658 0.137107
C30 C 0.4499(3) 0.4884(3) 0.1314(5)
C31 C 0.4193(3) 0.4878(3) 0.1993(5)
C32 C 0.3345(3) 0.4829(3) 0.1508(5)
O17 O 0.6924(4) 0.1142(2) 0.4454(4)
O18 O 0.7527(3) 0.1274(2) 0.6304(4)
C33 C 0.7266(5) 0.1433(3) 0.5320(6)
C34 C 0.7383(5) 0.1986(3) 0.5168(6)
C35 C 0.7113(6) 0.2172(4) 0.4078(6)
H16 H 0.685377 0.195097 0.345778
C36 C 0.7228(6) 0.2679(3) 0.3922(6)
O19 O 0.6930(6) 0.2840(3) 0.2821(5)
Zn5 Zn 0.72272(4) 0.06945(3) 0.70712(5)
Zn8 Zn 0.77728(4) 0.43055(3) 0.29288(5)
O23 O 0.8564(2) 0.4640(2) 0.4427(3)
Zn12 Zn 0.68110(4) 0.03795(3) 0.45829(5)
O27 O 0.6885(2) 0.5211(2) 0.7860(4)
O30 O 0.7473(3) 0.6274(2) 0.8696(4)
H19 H 0.783366 0.236655 0.750748
H20 H 0.583227 0.456911 0.51258
H22 H 0.735752 0.297212 0.27596
N2 N 0.3078(3) 0.5996(2) 0.8653(4)
C23 C 0.2948(5) 0.6033(3) 0.9479(6)
H10 H 0.244737 0.599219 0.930939
C27 C 0.3800(5) 0.6079(3) 0.8931(6)
H13 H 0.389188 0.606900 0.835513
Zn3 Zn 0.22272(4) 0.56945(3) 0.70712(5)
O20 O 0.1357(4) 0.6235(3) 0.6894(6)
O21 O 0.1436(2) 0.5360(2) 0.5573(3)
O24 O 0.1905(2) 0.5152(2) 0.7793(3)
O25 O 0.1072(2) 0.4724(2) 0.7989(3)
O26 O 0.3115(2) 0.5211(2) 0.7140(4)
O28 O 0.1924(4) 0.3858(2) 0.9454(4)
O29 O 0.2527(3) 0.6274(2) 0.6304(4)
H21 H 0.416773 0.456911 0.98742
O9_2 O 0.2527(3) 0.3726(2) 0.1304(4)
C15_2 C 0.2266(5) 0.3567(3) 0.0320(6)
C16_2 C 0.2383(5) 0.3014(3) 0.0168(6)
O17_2 O 0.3076(4) 0.1142(2) 0.0546(4)
C35_2 C 0.2887(6) 0.2172(4) 0.0922(6)
H16_2 H 0.314623 0.195097 0.154222
C36_2 C 0.2772(6) 0.2679(3) 0.1078(6)
O19_2 O 0.3070(6) 0.2840(3) 0.2179(5)
Zn12_2 Zn 0.31890(4) 0.03795(3) 0.04171(5)
H22_2 H 0.264248 0.297212 0.22404
C7_2 C 0.1248(3) 0.4959(2) 0.7379(5)
C8_2 C 0.0624(3) 0.4993(2) 0.6147(5)
C9_2 C 0.0742(3) 0.5184(3) 0.5311(5)
C10_2 C 0.0115(3) 0.5180(3) 0.4198(5)
H6_2 H 0.019035 0.529904 0.364371
C17_2 C 0.2113(6) 0.2828(4) 0.9078(6)
H8_2 H 0.185377 0.304903 0.845778
C18_2 C 0.2228(6) 0.2321(3) 0.8922(6)
O10_2 O 0.1930(6) 0.2160(3) 0.7821(5)
O18_2 O 0.2473(3) 0.1274(2) 0.8696(4)
C33_2 C 0.2734(5) 0.1433(3) 0.9680(6)
C34_2 C 0.2617(5) 0.1986(3) 0.9832(6)
Zn5_2 Zn 0.27728(4) 0.06945(3) 0.79288(5)
H19_2 H 0.216634 0.236655 0.749252
O12_2 O 0.8095(2) 0.4848(2) 0.2207(3)
O13_2 O 0.8928(2) 0.5276(2) 0.2011(3)
C19_2 C 0.8752(3) 0.5041(2) 0.2621(5)
C20_2 C 0.9376(3) 0.5007(2) 0.3853(5)
C21_2 C 0.9258(3) 0.4816(3) 0.4689(5)
C22_2 C 0.9885(3) 0.4820(3) 0.5802(5)
H9_2 H 0.980965 0.470096 0.635629
C10_3 C 0.4885(3) 0.0180(3) 0.0802(5)
H6_3 H 0.480965 0.029904 0.135629
O13_3 O 0.6072(2) 0.0276(2) 0.2989(3)
C19_3 C 0.6248(3) 0.0041(2) 0.2379(5)
C20_3 C 0.5624(3) 0.0007(2) 0.1147(5)
O1_2 O 0.3564(2) 0.0360(2) 0.9427(3)
N1_2 N 0.1922(3) 0.0996(2) 0.6347(4)
C1_2 C 0.2052(5) 0.1033(3) 0.5521(6)
H1_2 H 0.255263 0.099219 0.569061
O2_2 O 0.3095(2) 0.0152(2) 0.7207(3)
C2_2 C 0.1439(6) 0.1132(4) 0.4400(7)
H2_2 H 0.153846 0.116012 0.383458
C3_2 C 0.0688(5) 0.1189(3) 0.4129(7)
C4_2 C 0.0585(5) 0.1179(4) 0.4990(7)
H3_2 H 0.009566 0.123885 0.485270
C5_2 C 0.1200(5) 0.1079(3) 0.6069(6)
H4_2 H 0.110812 0.106900 0.664487
O8_2 O 0.3643(4) 0.1235(3) 0.8106(6)
C9_3 C 0.4258(3) 0.0184(3) 0.9689(5)
C28_2 C 0.0005(6) 0.1230(4) 0.2047(7)
H14_2 H 0.048616 0.125791 0.213909
O27_2 O 0.1885(2) 0.0211(2) 0.7860(4)
O11_2 O 0.6436(2) 0.9640(2) 0.0573(3)
O12_3 O 0.6905(2) 0.9848(2) 0.2793(3)
C21_3 C 0.5742(3) 0.9816(3) 0.0311(5)
Zn7_2 Zn 0.72272(4) 0.93055(3) 0.20712(5)
Zn2_2 Zn 0.31890(4) 0.96205(3) 0.54171(5)
O3_2 O 0.3928(2) 0.9724(2) 0.7011(3)
O4_2 O 0.0952(3) 0.9881(2) 0.4838(4)
O5_2 O 0.1885(2) 0.9789(2) 0.2860(4)
O6_2 O 0.2099(2) 0.9830(2) 0.4584(4)
O7_2 O 0.3076(4) 0.8858(2) 0.5546(4)
O9_3 O 0.2473(3) 0.8726(2) 0.3696(4)
C7_3 C 0.3752(3) 0.9959(2) 0.7621(5)
C8_3 C 0.4376(3) 0.9993(2) 0.8853(5)
C12_2 C 0.0501(3) 0.9884(3) 0.3686(5)
C13_2 C 0.0807(3) 0.9878(3) 0.3007(5)
C14_2 C 0.1655(3) 0.9829(3) 0.3492(5)
C15_3 C 0.2734(5) 0.8567(3) 0.4680(6)
C16_3 C 0.2617(5) 0.8014(3) 0.4832(6)
C17_3 C 0.2887(6) 0.7828(4) 0.5922(6)
H8_3 H 0.314623 0.804903 0.654222
C18_3 C 0.2772(6) 0.7321(3) 0.6078(6)
O10_3 O 0.3070(6) 0.7160(3) 0.7179(5)
C22_3 C 0.5115(3) 0.9820(3) 0.9198(5)
H9_3 H 0.519035 0.970096 0.864371
C29_2 C 0.0296(3) 0.9892(3) 0.1823(5)
H15_2 H 0.049538 0.990658 0.137107
O17_3 O 0.1924(4) 0.6142(2) 0.4454(4)
C33_3 C 0.2266(5) 0.6433(3) 0.5320(6)
C34_3 C 0.2383(5) 0.6986(3) 0.5168(6)
C35_3 C 0.2113(6) 0.7172(4) 0.4078(6)
H16_3 H 0.185377 0.695097 0.345778
C36_3 C 0.2228(6) 0.7679(3) 0.3922(6)
O19_3 O 0.1930(6) 0.7840(3) 0.2821(5)
Zn8_2 Zn 0.27728(4) 0.93055(3) 0.29288(5)
O23_2 O 0.3564(2) 0.9640(2) 0.4427(3)
Zn9_2 Zn 0.68110(4) 0.96205(3) 0.95829(5)
H19_3 H 0.283366 0.736655 0.750748
H20_2 H 0.0832273 0.956911 0.51258
H22_3 H 0.235752 0.797212 0.27596
N2_2 N 0.8078(3) 0.0996(2) 0.8653(4)
C23_2 C 0.7948(5) 0.1033(3) 0.9479(6)
H10_2 H 0.744737 0.099219 0.930939
C27_2 C 0.8800(5) 0.1079(3) 0.8931(6)
H13_2 H 0.889188 0.106900 0.835513
O20_2 O 0.6357(4) 0.1235(3) 0.6894(6)
O21_2 O 0.6436(2) 0.0360(2) 0.5573(3)
O24_2 O 0.6905(2) 0.0152(2) 0.7793(3)
O26_2 O 0.8115(2) 0.0211(2) 0.7140(4)
C11_2 C 0.9704(3) 0.9892(3) 0.3177(5)
H7_2 H 0.950462 0.990658 0.362893
O14_2 O 0.9048(3) 0.9881(2) 0.0162(4)
O15_2 O 0.8115(2) 0.9789(2) 0.2140(4)
O16_2 O 0.7901(2) 0.9830(2) 0.0416(4)
C30_2 C 0.9499(3) 0.9884(3) 0.1314(5)
C31_2 C 0.9193(3) 0.9878(3) 0.1993(5)
C32_2 C 0.8345(3) 0.9829(3) 0.1508(5)
O25_2 O 0.6072(2) 0.9724(2) 0.7989(3)
O28_2 O 0.6924(4) 0.8858(2) 0.9454(4)
H21_2 H 0.916773 0.956911 0.98742
C9_4 C 0.5742(3) 0.0184(3) 0.5311(5)
C10_4 C 0.5115(3) 0.0180(3) 0.4198(5)
H6_4 H 0.519035 0.029904 0.364371
O13_4 O 0.3928(2) 0.0276(2) 0.2011(3)
C19_4 C 0.3752(3) 0.0041(2) 0.2621(5)
C20_4 C 0.4376(3) 0.0007(2) 0.3853(5)
O9_4 O 0.7527(3) 0.8726(2) 0.1304(4)
C15_4 C 0.7266(5) 0.8567(3) 0.0320(6)
C16_4 C 0.7383(5) 0.8014(3) 0.0168(6)
O17_4 O 0.8076(4) 0.6142(2) 0.0546(4)
C35_4 C 0.7887(6) 0.7172(4) 0.0922(6)
H16_4 H 0.814623 0.695097 0.154222
C36_4 C 0.7772(6) 0.7679(3) 0.1078(6)
O19_4 O 0.8070(6) 0.7840(3) 0.2179(5)
H22_4 H 0.764248 0.797212 0.22404
C7_4 C 0.6248(3) 0.9959(2) 0.7379(5)
C8_4 C 0.5624(3) 0.9993(2) 0.6147(5)
C17_4 C 0.7113(6) 0.7828(4) 0.9078(6)
H8_4 H 0.685377 0.804903 0.845778
C18_4 C 0.7228(6) 0.7321(3) 0.8922(6)
O10_4 O 0.6930(6) 0.7160(3) 0.7821(5)
O12_4 O 0.3095(2) 0.9848(2) 0.2207(3)
C21_4 C 0.4258(3) 0.9816(3) 0.4689(5)
C22_4 C 0.4885(3) 0.9820(3) 0.5802(5)
H9_4 H 0.480965 0.970096 0.635629
C33_4 C 0.7734(5) 0.6433(3) 0.9680(6)
C34_4 C 0.7617(5) 0.6986(3) 0.9832(6)
H19_4 H 0.716634 0.736655 0.749252
N2_3 N 0.6922(3) 0.4004(2) 0.1347(4)
C23_3 C 0.7052(5) 0.3967(3) 0.0521(6)
H10_3 H 0.755263 0.400781 0.069061
C27_3 C 0.6200(5) 0.3921(3) 0.1069(6)
H13_3 H 0.610812 0.393100 0.164487
O20_3 O 0.8643(4) 0.3765(3) 0.3106(6)
H21_3 H 0.583227 0.543089 0.0125796
N1_3 N 0.3078(3) 0.4004(2) 0.3653(4)
C1_3 C 0.2948(5) 0.3967(3) 0.4479(6)
H1_3 H 0.244737 0.400781 0.430939
C2_3 C 0.3561(6) 0.3868(4) 0.5600(7)
H2_3 H 0.346154 0.383988 0.616542
C3_3 C 0.4312(5) 0.3811(3) 0.5871(7)
O4_3 O 0.4048(3) 0.5119(2) 0.5162(4)
C4_3 C 0.4415(5) 0.3821(4) 0.5010(7)
H3_3 H 0.490434 0.376115 0.514730
C5_3 C 0.3800(5) 0.3921(3) 0.3931(6)
H4_3 H 0.389188 0.393100 0.335513
O6_3 O 0.2901(2) 0.5170(2) 0.5416(4)
C6_2 C 0.5005(6) 0.3770(4) 0.7047(7)
H5_2 H 0.548616 0.374209 0.713909
O8_3 O 0.1357(4) 0.3765(3) 0.1894(6)
C11_3 C 0.5296(3) 0.5108(3) 0.6823(5)
H7_3 H 0.549538 0.509342 0.637107
C12_3 C 0.4499(3) 0.5116(3) 0.6314(5)
C13_3 C 0.4193(3) 0.5122(3) 0.6993(5)
C14_3 C 0.3345(3) 0.5171(3) 0.6508(5)
C24_2 C 0.6439(6) 0.3868(4) 0.9400(7)
H11_2 H 0.653846 0.383988 0.883458
C25_2 C 0.5688(5) 0.3811(3) 0.9129(7)
C26_2 C 0.5585(5) 0.3821(4) 0.9990(7)
H12_2 H 0.509566 0.376115 0.985270
C28_3 C 0.4995(6) 0.3770(4) 0.7953(7)
H14_3 H 0.451384 0.374209 0.786091
O14_3 O 0.5952(3) 0.5119(2) 0.9838(4)
O16_3 O 0.7099(2) 0.5170(2) 0.9584(4)
C29_3 C 0.4704(3) 0.5108(3) 0.8177(5)
H15_3 H 0.450462 0.509342 0.862893
C30_3 C 0.5501(3) 0.5116(3) 0.8686(5)
C31_3 C 0.5807(3) 0.5122(3) 0.8007(5)
C32_3 C 0.6655(3) 0.5171(3) 0.8492(5)
H19_5 H 0.216634 0.763345 0.249252
H20_3 H 0.416773 0.543089 0.48742
H22_5 H 0.264248 0.702788 0.72404
H19_6 H 0.783366 0.763345 0.250748
H22_6 H 0.735752 0.702788 0.77596
H21_4 H 0.0832273 0.0430887 0.0125796
C11_4 C 0.0296(3) 0.0108(3) 0.6823(5)
H7_4 H 0.049538 0.009342 0.637107
O14_4 O 0.0952(3) 0.0119(2) 0.9838(4)
O16_4 O 0.2099(2) 0.0170(2) 0.9584(4)
C30_4 C 0.0501(3) 0.0116(3) 0.8686(5)
C31_4 C 0.0807(3) 0.0122(3) 0.8007(5)
C32_4 C 0.1655(3) 0.0171(3) 0.8492(5)
N2_4 N 0.1922(3) 0.9004(2) 0.1347(4)
C23_4 C 0.2052(5) 0.8967(3) 0.0521(6)
H10_4 H 0.255263 0.900781 0.069061
C27_4 C 0.1200(5) 0.8921(3) 0.1069(6)
H13_4 H 0.110812 0.893100 0.164487
O20_4 O 0.3643(4) 0.8765(3) 0.3106(6)
O4_4 O 0.9048(3) 0.0119(2) 0.5162(4)
O6_4 O 0.7901(2) 0.0170(2) 0.5416(4)
C12_4 C 0.9499(3) 0.0116(3) 0.6314(5)
C13_4 C 0.9193(3) 0.0122(3) 0.6993(5)
C14_4 C 0.8345(3) 0.0171(3) 0.6508(5)
C29_4 C 0.9704(3) 0.0108(3) 0.8177(5)
H15_4 H 0.950462 0.009342 0.862893
H19_7 H 0.716634 0.263345 0.249252
H20_4 H 0.916773 0.0430887 0.48742
H22_7 H 0.764248 0.202788 0.72404
N1_4 N 0.8078(3) 0.9004(2) 0.3653(4)
C1_4 C 0.7948(5) 0.8967(3) 0.4479(6)
H1_4 H 0.744737 0.900781 0.430939
C2_4 C 0.8561(6) 0.8868(4) 0.5600(7)
H2_4 H 0.846154 0.883988 0.616542
C3_4 C 0.9312(5) 0.8811(3) 0.5871(7)
C4_4 C 0.9415(5) 0.8821(4) 0.5010(7)
H3_4 H 0.990434 0.876115 0.514730
C5_4 C 0.8800(5) 0.8921(3) 0.3931(6)
H4_4 H 0.889188 0.893100 0.335513
O8_4 O 0.6357(4) 0.8765(3) 0.1894(6)
C28_4 C 0.9995(6) 0.8770(4) 0.7953(7)
H14_4 H 0.951384 0.874209 0.786091
H19_8 H 0.283366 0.263345 0.250748
H22_8 H 0.235752 0.202788 0.77596
C6_3 C 0.9995(6) 0.1230(4) 0.2953(7)
H5_3 H 0.951384 0.125791 0.286091
C24_3 C 0.8561(6) 0.1132(4) 0.0600(7)
H11_3 H 0.846154 0.116012 0.116542
C25_3 C 0.9312(5) 0.1189(3) 0.0871(7)
C26_3 C 0.9415(5) 0.1179(4) 0.0010(7)
H12_3 H 0.990434 0.123885 0.014730
C6_4 C 0.0005(6) 0.8770(4) 0.7047(7)
H5_4 H 0.048616 0.874209 0.713909
C24_4 C 0.1439(6) 0.8868(4) 0.9400(7)
H11_4 H 0.153846 0.883988 0.883458
C25_4 C 0.0688(5) 0.8811(3) 0.9129(7)
C26_4 C 0.0585(5) 0.8821(4) 0.9990(7)
H12_4 H 0.009566 0.876115 0.985270
loop_
_geom_bond_atom_site_label_1
_geom_bond_atom_site_label_2
_geom_bond_site_symmetry_1
_geom_bond_site_symmetry_2
O11 C21 1_555 1_555
O12 C19 1_555 1_555
O13 C19 1_555 1_555
C19 C20 1_555 1_555
C21 C20 1_555 1_555
Zn7 O11 1_555 1_555
Zn10 O13 1_555 1_555
O12 Zn7 1_555 1_555
H9 C22 1_555 1_555
H6 C10 1_555 1_555
Zn1 O1 1_555 1_555
O1 C9 1_555 1_555
N1 Zn1 1_555 1_555
C1 N1 1_555 1_555
H1 C1 1_555 1_555
Zn2 O3 1_555 1_555
O2 Zn1 1_555 1_555
C2 C1 1_555 1_555
H2 C2 1_555 1_555
O3 C7 1_555 1_555
C3 C2 1_555 1_555
O4 C12 1_555 1_555
C4 C3 1_555 1_555
H3 C4 1_555 1_555
O5 C14 1_555 1_555
C5 N1 1_555 1_555
H4 C5 1_555 1_555
O6 Zn2 1_555 1_555
C6 C3 1_555 1_555
H5 C6 1_555 1_555
O7 Zn2 1_555 1_555
O8 Zn1 1_555 1_555
O9 C15 1_555 1_555
C7 O2 1_555 1_555
C8 C7 1_555 1_555
C9 C8 1_555 1_555
C11 H7 1_555 1_555
C12 C11 1_555 1_555
C13 C12 1_555 1_555
C14 O6 1_555 1_555
C15 O7 1_555 1_555
C16 C15 1_555 1_555
C17 C16 1_555 1_555
H8 C17 1_555 1_555
C18 C17 1_555 1_555
O10 C18 1_555 1_555
H11 C24 1_555 1_555
C25 C24 1_555 1_555
C26 C25 1_555 1_555
H12 C26 1_555 1_555
C28 C6 1_555 1_555
H14 C28 1_555 1_555
O14 C30 1_555 1_555
O15 C32 1_555 1_555
O16 C32 1_555 1_555
C29 C13 1_555 1_555
H15 C29 1_555 1_555
C30 C29 1_555 1_555
C31 C11 1_555 1_555
C32 C31 1_555 1_555
O17 C33 1_555 1_555
O18 C33 1_555 1_555
C33 C34 1_555 1_555
C34 C18 1_555 1_555
C35 C34 1_555 1_555
H16 C35 1_555 1_555
C36 C16 1_555 1_555
O19 C36 1_555 1_555
Zn5 O18 1_555 1_555
Zn7 O15 1_555 1_555
Zn8 O5 1_555 1_555
O23 Zn2 1_555 1_555
Zn12 O17 1_555 1_555
O27 Zn1 1_555 1_555
O30 Zn1 1_555 1_555
C4 C5 1_555 1_555
O9 Zn8 1_555 1_555
C13 C14 1_555 1_555
C25 C28 1_555 1_555
C30 C31 1_555 1_555
C35 C36 1_555 1_555
Zn8 O23 1_555 1_555
O10 H19 1_555 1_555
O4 H20 1_555 1_555
O19 H22 1_555 1_555
N2 C23 1_555 1_555
C23 H10 1_555 1_555
C27 N2 1_555 1_555
H13 C27 1_555 1_555
Zn3 N2 1_555 1_555
O20 Zn3 1_555 1_555
O21 Zn3 1_555 1_555
O24 Zn3 1_555 1_555
O25 Zn9 1_555 1_555
O26 Zn3 1_555 1_555
O28 Zn9 1_555 1_555
O29 Zn3 1_555 1_555
O9_2 C15_2 1_555 1_555
C16_2 C15_2 1_555 1_555
H16_2 C35_2 1_555 1_555
C36_2 C16_2 1_555 1_555
O19_2 C36_2 1_555 1_555
Zn12_2 O17_2 1_555 1_555
O9_2 Zn7 1_555 1_555
C35_2 C36_2 1_555 1_555
O19_2 H22_2 1_555 1_555
O21 C9_2 1_555 1_555
O25 C7_2 1_555 1_555
C7_2 O24 1_555 1_555
C8_2 C7_2 1_555 1_555
C9_2 C8_2 1_555 1_555
C10_2 C9_2 1_555 1_555
H6_2 C10_2 1_555 1_555
H8_2 C17_2 1_555 1_555
C18_2 C17_2 1_555 1_555
O10_2 C18_2 1_555 1_555
O18_2 C33_2 1_555 1_555
C33_2 C34_2 1_555 1_555
C34_2 C18_2 1_555 1_555
Zn5_2 O18_2 1_555 1_555
Zn10 O21 1_555 1_555
O10_2 H19_2 1_555 1_555
O23 C21_2 1_555 1_555
O12_2 C19_2 1_555 1_555
O13_2 C19_2 1_555 1_555
C19_2 C20_2 1_555 1_555
C21_2 C20_2 1_555 1_555
H9_2 C22_2 1_555 1_555
Zn11 O13_2 1_555 1_555
O12_2 Zn8 1_555 1_555
C21_2 C22_2 1_555 1_555
H6_3 C10_3 1_555 1_555
O13_3 C19_3 1_555 1_555
C19_3 C20_3 1_555 1_555
C20_3 C10_3 1_555 1_555
Zn12 O13_3 1_555 1_555
Zn5_2 O1_2 1_555 1_555
O1_2 C9_3 1_555 1_555
N1_2 Zn5_2 1_555 1_555
C1_2 N1_2 1_555 1_555
H1_2 C1_2 1_555 1_555
O2_2 Zn5_2 1_555 1_555
C2_2 C1_2 1_555 1_555
H2_2 C2_2 1_555 1_555
C3_2 C2_2 1_555 1_555
C4_2 C3_2 1_555 1_555
H3_2 C4_2 1_555 1_555
C5_2 N1_2 1_555 1_555
H4_2 C5_2 1_555 1_555
O8_2 Zn5_2 1_555 1_555
H14_2 C28_2 1_555 1_555
O27_2 Zn5_2 1_555 1_555
C4_2 C5_2 1_555 1_555
O11_2 C21_3 1_555 1_555
Zn7_2 O11_2 1_555 1_555
O12_3 Zn7_2 1_555 1_555
Zn2_2 O3_2 1_555 1_555
O3_2 C7_3 1_555 1_555
O4_2 C12_2 1_555 1_555
O5_2 C14_2 1_555 1_555
O6_2 Zn2_2 1_555 1_555
O7_2 Zn2_2 1_555 1_555
O9_3 C15_3 1_555 1_555
C8_3 C7_3 1_555 1_555
C13_2 C12_2 1_555 1_555
C14_2 O6_2 1_555 1_555
C15_3 O7_2 1_555 1_555
C16_3 C15_3 1_555 1_555
C17_3 C16_3 1_555 1_555
H8_3 C17_3 1_555 1_555
C18_3 C17_3 1_555 1_555
O10_3 C18_3 1_555 1_555
C22_3 C8_3 1_555 1_555
H9_3 C22_3 1_555 1_555
C29_2 C13_2 1_555 1_555
H15_2 C29_2 1_555 1_555
O17_3 C33_3 1_555 1_555
O29 C33_3 1_555 1_555
C33_3 C34_3 1_555 1_555
C34_3 C18_3 1_555 1_555
C35_3 C34_3 1_555 1_555
H16_3 C35_3 1_555 1_555
C36_3 C16_3 1_555 1_555
O19_3 C36_3 1_555 1_555
Zn8_2 O5_2 1_555 1_555
O23_2 Zn2_2 1_555 1_555
Zn10 O17_3 1_555 1_555
O9_3 Zn8_2 1_555 1_555
C13_2 C14_2 1_555 1_555
C35_3 C36_3 1_555 1_555
Zn8_2 O23_2 1_555 1_555
O10_3 H19_3 1_555 1_555
O4_2 H20_2 1_555 1_555
O19_3 H22_3 1_555 1_555
N2_2 C23_2 1_555 1_555
C23_2 H10_2 1_555 1_555
C27_2 N2_2 1_555 1_555
H13_2 C27_2 1_555 1_555
Zn5 N2_2 1_555 1_555
O20_2 Zn5 1_555 1_555
O21_2 Zn5 1_555 1_555
O24_2 Zn5 1_555 1_555
O26_2 Zn5 1_555 1_555
C11_2 H7_2 1_555 1_555
O14_2 C30_2 1_555 1_555
O15_2 C32_2 1_555 1_555
O16_2 C32_2 1_555 1_555
C31_2 C11_2 1_555 1_555
C32_2 C31_2 1_555 1_555
Zn7_2 O15_2 1_555 1_555
C30_2 C31_2 1_555 1_555
O25_2 Zn9_2 1_555 1_555
O28_2 Zn9_2 1_555 1_555
O21_2 C9_4 1_555 1_555
C10_4 C9_4 1_555 1_555
H6_4 C10_4 1_555 1_555
O13_4 C19_4 1_555 1_555
C19_4 C20_4 1_555 1_555
C20_4 C10_4 1_555 1_555
Zn12_2 O13_4 1_555 1_555
Zn12 O21_2 1_555 1_555
O9_4 C15_4 1_555 1_555
C16_4 C15_4 1_555 1_555
H16_4 C35_4 1_555 1_555
C36_4 C16_4 1_555 1_555
O19_4 C36_4 1_555 1_555
Zn11 O17_4 1_555 1_555
O9_4 Zn7_2 1_555 1_555
C35_4 C36_4 1_555 1_555
O19_4 H22_4 1_555 1_555
O25_2 C7_4 1_555 1_555
C8_4 C7_4 1_555 1_555
H8_4 C17_4 1_555 1_555
C18_4 C17_4 1_555 1_555
O10_4 C18_4 1_555 1_555
O23_2 C21_4 1_555 1_555
C22_4 C8_4 1_555 1_555
H9_4 C22_4 1_555 1_555
O30 C33_4 1_555 1_555
C33_4 C34_4 1_555 1_555
C34_4 C18_4 1_555 1_555
O12_4 Zn8_2 1_555 1_555
C21_4 C22_4 1_555 1_555
O10_4 H19_4 1_555 1_555
N2_3 C23_3 1_555 1_555
C23_3 H10_3 1_555 1_555
C27_3 N2_3 1_555 1_555
H13_3 C27_3 1_555 1_555
Zn8 N2_3 1_555 1_555
O20_3 Zn8 1_555 1_555
N1_3 Zn7 1_555 1_555
C1_3 N1_3 1_555 1_555
H1_3 C1_3 1_555 1_555
C2_3 C1_3 1_555 1_555
H2_3 C2_3 1_555 1_555
C3_3 C2_3 1_555 1_555
O4_3 C12_3 1_555 1_555
C4_3 C3_3 1_555 1_555
H3_3 C4_3 1_555 1_555
O26 C14_3 1_555 1_555
C5_3 N1_3 1_555 1_555
H4_3 C5_3 1_555 1_555
O6_3 Zn10 1_555 1_555
C6_2 C3_3 1_555 1_555
H5_2 C6_2 1_555 1_555
O8_3 Zn7 1_555 1_555
C11_3 H7_3 1_555 1_555
C12_3 C11_3 1_555 1_555
C13_3 C12_3 1_555 1_555
C14_3 O6_3 1_555 1_555
H11_2 C24_2 1_555 1_555
C25_2 C24_2 1_555 1_555
C26_2 C25_2 1_555 1_555
H12_2 C26_2 1_555 1_555
C28_3 C6_2 1_555 1_555
H14_3 C28_3 1_555 1_555
O14_3 C30_3 1_555 1_555
O27 C32_3 1_555 1_555
O16_3 C32_3 1_555 1_555
C29_3 C13_3 1_555 1_555
H15_3 C29_3 1_555 1_555
C30_3 C29_3 1_555 1_555
C31_3 C11_3 1_555 1_555
C32_3 C31_3 1_555 1_555
C4_3 C5_3 1_555 1_555
C13_3 C14_3 1_555 1_555
C25_2 C28_3 1_555 1_555
C30_3 C31_3 1_555 1_555
O19_3 H19_5 1_555 1_555
O4_3 H20_3 1_555 1_555
O10_3 H22_5 1_555 1_555
O19_4 H19_6 1_555 1_555
O10_4 H22_6 1_555 1_555
C11_4 H7_4 1_555 1_555
O14_4 C30_4 1_555 1_555
O27_2 C32_4 1_555 1_555
O16_4 C32_4 1_555 1_555
C31_4 C11_4 1_555 1_555
C32_4 C31_4 1_555 1_555
C30_4 C31_4 1_555 1_555
N2_4 C23_4 1_555 1_555
C23_4 H10_4 1_555 1_555
C27_4 N2_4 1_555 1_555
H13_4 C27_4 1_555 1_555
Zn8_2 N2_4 1_555 1_555
O20_4 Zn8_2 1_555 1_555
O4_4 C12_4 1_555 1_555
O26_2 C14_4 1_555 1_555
O6_4 Zn12 1_555 1_555
C13_4 C12_4 1_555 1_555
C14_4 O6_4 1_555 1_555
C29_4 C13_4 1_555 1_555
H15_4 C29_4 1_555 1_555
C13_4 C14_4 1_555 1_555
O19 H19_7 1_555 1_555
O4_4 H20_4 1_555 1_555
O10 H22_7 1_555 1_555
N1_4 Zn7_2 1_555 1_555
C1_4 N1_4 1_555 1_555
H1_4 C1_4 1_555 1_555
C2_4 C1_4 1_555 1_555
H2_4 C2_4 1_555 1_555
C3_4 C2_4 1_555 1_555
C4_4 C3_4 1_555 1_555
H3_4 C4_4 1_555 1_555
C5_4 N1_4 1_555 1_555
H4_4 C5_4 1_555 1_555
O8_4 Zn7_2 1_555 1_555
H14_4 C28_4 1_555 1_555
C4_4 C5_4 1_555 1_555
O19_2 H19_8 1_555 1_555
O10_2 H22_8 1_555 1_555
H5_3 C6_3 1_555 1_555
H11_3 C24_3 1_555 1_555
C25_3 C24_3 1_555 1_555
C26_3 C25_3 1_555 1_555
H12_3 C26_3 1_555 1_555
H5_4 C6_4 1_555 1_555
H11_4 C24_4 1_555 1_555
C25_4 C24_4 1_555 1_555
C26_4 C25_4 1_555 1_555
H12_4 C26_4 1_555 1_555

#END
