
###############################################################################
#
# This file contains modified crystal structure data generated from the
# MOF subset of the Cambridge Structural Database (CSD) v543 
# hosted by the Cambridge Crystallographic Data Centre (CCDC).
#
# This work is licensed under the Creative Commons
# Attribution-NonCommercial-ShareAlike 4.0 International License.
# To view a copy of this license, visit
# http://creativecommons.org/licenses/by-nc-sa/4.0/
# or send a letter to
# Creative Commons, PO Box 1866, Mountain View, CA 94042, USA.
#
# CIF created using the CSD Python API on 29 September 2022
# The structure has been converted into the P1 space group
# The structure has a 3D framework
# The original CSD entry TEHWEK is in the orthorhombic crystal system
# The framework has been calculated to contain at least 10.0% void space
# The void calculation uses a probe of radius 1.32A, grid spacing 0.4
#
###############################################################################

data_TEHWEK
_chemical_formula_moiety         '(C192 H256 Cd12 Cl8 N16 O64)n'
_symmetry_cell_setting           triclinic
_symmetry_space_group_name_H-M   'P 1'
_symmetry_Int_Tables_number      1
_space_group_name_Hall           'P 1'
loop_
_symmetry_equiv_pos_site_id
_symmetry_equiv_pos_as_xyz
1 x,y,z
_cell_length_a                   15.0412(4)
_cell_length_b                   15.8919(4)
_cell_length_c                   28.2210(7)
_cell_angle_alpha                90
_cell_angle_beta                 90
_cell_angle_gamma                90
_cell_volume                     6745.76
loop_
_atom_site_label
_atom_site_type_symbol
_atom_site_fract_x
_atom_site_fract_y
_atom_site_fract_z
Cd1 Cd 0.00310(3) 0.1250 0.1250
Cl1 Cl 0.1250 0.01262(10) 0.1250
Cd2 Cd 0.24690(3) 0.1250 0.1250
Cl2 Cl 0.1250 0.23738(10) 0.1250
Cd1_2 Cd 0.00310(3) 0.6250 0.6250
Cl1_2 Cl 0.1250 0.73738(10) 0.6250
Cd2_2 Cd 0.24690(3) 0.6250 0.6250
Cl2_2 Cl 0.1250 0.51262(10) 0.6250
Cd3 Cd 0.99690(3) 0.3750 0.3750
C1 C 0.4320(3) 0.5268(3) 0.53052(17)
C2 C 0.3616(3) 0.5564(3) 0.56385(17)
C3 C 0.4805(3) 0.4543(3) 0.54093(19)
H1 H 0.4675 0.4234 0.5681
C4 C 0.4516(3) 0.5720(3) 0.48936(18)
H2 H 0.4191 0.6201 0.4821
O1 O 0.3078(2) 0.6134(2) 0.55000(12)
O2 O 0.3585(2) 0.5257(2) 0.60476(13)
Cd3_2 Cd 0.75310(3) 0.3750 0.3750
C5 C 0.5680(3) 0.4732(3) 0.46948(17)
C6 C 0.6384(3) 0.4436(3) 0.43615(17)
C7 C 0.5195(3) 0.5457(3) 0.45907(19)
H3 H 0.5325 0.5766 0.4319
C8 C 0.5484(3) 0.4280(3) 0.51064(18)
H4 H 0.5809 0.3799 0.5179
O3 O 0.6922(2) 0.3866(2) 0.45000(12)
O4 O 0.3078(2) 0.6366(2) 0.70000(12)
O5 O 0.6415(2) 0.4743(2) 0.39524(13)
O6 O 0.3585(2) 0.7243(2) 0.64524(13)
C1_2 C 0.4320(3) 0.2232(3) 0.21948(17)
C2_2 C 0.3616(3) 0.1936(3) 0.18615(17)
C3_2 C 0.4805(3) 0.2957(3) 0.20907(19)
H1_2 H 0.4675 0.3266 0.1819
C4_2 C 0.4516(3) 0.1780(3) 0.26064(18)
H2_2 H 0.4191 0.1299 0.2679
O1_2 O 0.3078(2) 0.1366(2) 0.20000(12)
O2_2 O 0.3585(2) 0.2243(2) 0.14524(13)
C5_2 C 0.5680(3) 0.2768(3) 0.28052(17)
C6_2 C 0.6384(3) 0.3064(3) 0.31385(17)
C7_2 C 0.5195(3) 0.2043(3) 0.29093(19)
H3_2 H 0.5325 0.1734 0.3181
C8_2 C 0.5484(3) 0.3220(3) 0.23936(18)
H4_2 H 0.5809 0.3701 0.2321
O3_2 O 0.6922(2) 0.3634(2) 0.30000(12)
O4_2 O 0.3078(2) 0.1134(2) 0.05000(12)
O5_2 O 0.6415(2) 0.2757(2) 0.35476(13)
O6_2 O 0.3585(2) 0.0257(2) 0.10476(13)
Cd3_3 Cd 0.99690(3) 0.8750 0.8750
C1_3 C 0.4320(3) 0.0268(3) 0.03052(17)
C2_3 C 0.3616(3) 0.0564(3) 0.06385(17)
Cd3_4 Cd 0.75310(3) 0.8750 0.8750
C5_3 C 0.5680(3) 0.9732(3) 0.96948(17)
C6_3 C 0.6384(3) 0.9436(3) 0.93615(17)
O3_3 O 0.6922(2) 0.8866(2) 0.95000(12)
O5_3 O 0.6415(2) 0.9743(2) 0.89524(13)
C1_4 C 0.4320(3) 0.7232(3) 0.71948(17)
C2_4 C 0.3616(3) 0.6936(3) 0.68615(17)
C3_3 C 0.4805(3) 0.7957(3) 0.70907(19)
H1_3 H 0.4675 0.8266 0.6819
C4_3 C 0.4516(3) 0.6780(3) 0.76064(18)
H2_3 H 0.4191 0.6299 0.7679
C5_4 C 0.5680(3) 0.7768(3) 0.78052(17)
C6_4 C 0.6384(3) 0.8064(3) 0.81385(17)
C7_3 C 0.5195(3) 0.7043(3) 0.79093(19)
H3_3 H 0.5325 0.6734 0.8181
C8_3 C 0.5484(3) 0.8220(3) 0.73936(18)
H4_3 H 0.5809 0.8701 0.7321
O3_4 O 0.6922(2) 0.8634(2) 0.80000(12)
O5_4 O 0.6415(2) 0.7757(2) 0.85476(13)
Cl1_3 Cl 0.8750 0.98738(10) 0.8750
Cl2_3 Cl 0.8750 0.76262(10) 0.8750
Cl1_4 Cl 0.8750 0.26262(10) 0.3750
Cl2_4 Cl 0.8750 0.48738(10) 0.3750
C1_5 C 0.8180(3) 0.2232(3) 0.03052(17)
C2_5 C 0.8884(3) 0.1936(3) 0.06385(17)
C3_4 C 0.7695(3) 0.2957(3) 0.04093(19)
H1_4 H 0.7825 0.3266 0.0681
O1_3 O 0.9422(2) 0.1366(2) 0.05000(12)
O2_3 O 0.8915(2) 0.2243(2) 0.10476(13)
C8_4 C 0.7016(3) 0.3220(3) 0.01064(18)
H4_4 H 0.6691 0.3701 0.0179
O4_3 O 0.9422(2) 0.1134(2) 0.20000(12)
O6_3 O 0.8915(2) 0.0257(2) 0.14524(13)
C1_6 C 0.8180(3) 0.0268(3) 0.21948(17)
C2_6 C 0.8884(3) 0.0564(3) 0.18615(17)
C4_4 C 0.7984(3) 0.0720(3) 0.26064(18)
H2_4 H 0.8309 0.1201 0.2679
C7_4 C 0.7305(3) 0.0457(3) 0.29093(19)
H3_4 H 0.7175 0.0766 0.3181
C4_5 C 0.7984(3) 0.1780(3) 0.98936(18)
H2_5 H 0.8309 0.1299 0.9821
Cd3_5 Cd 0.49690(3) 0.3750 0.8750
C5_5 C 0.6820(3) 0.2768(3) 0.96948(17)
C6_5 C 0.6116(3) 0.3064(3) 0.93615(17)
C7_5 C 0.7305(3) 0.2043(3) 0.95907(19)
H3_5 H 0.7175 0.1734 0.9319
O3_5 O 0.5578(2) 0.3634(2) 0.95000(12)
O5_5 O 0.6085(2) 0.2757(2) 0.89524(13)
Cd3_6 Cd 0.25310(3) 0.3750 0.8750
C5_6 C 0.0680(3) 0.4732(3) 0.96948(17)
C6_6 C 0.1384(3) 0.4436(3) 0.93615(17)
C7_6 C 0.0195(3) 0.5457(3) 0.95907(19)
H3_6 H 0.0325 0.5766 0.9319
O3_6 O 0.1922(2) 0.3866(2) 0.95000(12)
O5_6 O 0.1415(2) 0.4743(2) 0.89524(13)
C5_7 C 0.0680(3) 0.2768(3) 0.78052(17)
C6_7 C 0.1384(3) 0.3064(3) 0.81385(17)
C7_7 C 0.0195(3) 0.2043(3) 0.79093(19)
H3_7 H 0.0325 0.1734 0.8181
C8_5 C 0.0484(3) 0.3220(3) 0.73936(18)
H4_5 H 0.0809 0.3701 0.7321
O3_7 O 0.1922(2) 0.3634(2) 0.80000(12)
O5_7 O 0.1415(2) 0.2757(2) 0.85476(13)
C1_7 C 0.8180(3) 0.5268(3) 0.71948(17)
C2_7 C 0.8884(3) 0.5564(3) 0.68615(17)
C3_5 C 0.7695(3) 0.4543(3) 0.70907(19)
H1_5 H 0.7825 0.4234 0.6819
C4_6 C 0.7984(3) 0.5720(3) 0.76064(18)
H2_6 H 0.8309 0.6201 0.7679
O1_4 O 0.9422(2) 0.6134(2) 0.70000(12)
O2_4 O 0.8915(2) 0.5257(2) 0.64524(13)
C5_8 C 0.6820(3) 0.4732(3) 0.78052(17)
C6_8 C 0.6116(3) 0.4436(3) 0.81385(17)
C7_8 C 0.7305(3) 0.5457(3) 0.79093(19)
H3_8 H 0.7175 0.5766 0.8181
C8_6 C 0.7016(3) 0.4280(3) 0.73936(18)
H4_6 H 0.6691 0.3799 0.7321
O3_8 O 0.5578(2) 0.3866(2) 0.80000(12)
O4_4 O 0.9422(2) 0.6366(2) 0.55000(12)
O5_8 O 0.6085(2) 0.4743(2) 0.85476(13)
O6_4 O 0.8915(2) 0.7243(2) 0.60476(13)
C1_8 C 0.8180(3) 0.7232(3) 0.53052(17)
C2_8 C 0.8884(3) 0.6936(3) 0.56385(17)
C3_6 C 0.7695(3) 0.7957(3) 0.54093(19)
H1_6 H 0.7825 0.8266 0.5681
C4_7 C 0.7984(3) 0.6780(3) 0.48936(18)
H2_7 H 0.8309 0.6299 0.4821
Cd3_7 Cd 0.49690(3) 0.8750 0.3750
C5_9 C 0.6820(3) 0.7768(3) 0.46948(17)
C6_9 C 0.6116(3) 0.8064(3) 0.43615(17)
C7_9 C 0.7305(3) 0.7043(3) 0.45907(19)
H3_9 H 0.7175 0.6734 0.4319
C8_7 C 0.7016(3) 0.8220(3) 0.51064(18)
H4_7 H 0.6691 0.8701 0.5179
O3_9 O 0.5578(2) 0.8634(2) 0.45000(12)
O5_9 O 0.6085(2) 0.7757(2) 0.39524(13)
Cd3_8 Cd 0.25310(3) 0.8750 0.3750
C5_10 C 0.0680(3) 0.9732(3) 0.46948(17)
C6_10 C 0.1384(3) 0.9436(3) 0.43615(17)
C8_8 C 0.0484(3) 0.9280(3) 0.51064(18)
H4_8 H 0.0809 0.8799 0.5179
O3_10 O 0.1922(2) 0.8866(2) 0.45000(12)
O5_10 O 0.1415(2) 0.9743(2) 0.39524(13)
C5_11 C 0.0680(3) 0.7768(3) 0.28052(17)
C6_11 C 0.1384(3) 0.8064(3) 0.31385(17)
C7_10 C 0.0195(3) 0.7043(3) 0.29093(19)
H3_10 H 0.0325 0.6734 0.3181
C8_9 C 0.0484(3) 0.8220(3) 0.23936(18)
H4_9 H 0.0809 0.8701 0.2321
O3_11 O 0.1922(2) 0.8634(2) 0.30000(12)
O5_11 O 0.1415(2) 0.7757(2) 0.35476(13)
C3_7 C 0.7695(3) 0.9543(3) 0.20907(19)
H1_7 H 0.7825 0.9234 0.1819
C5_12 C 0.6820(3) 0.9732(3) 0.28052(17)
C6_12 C 0.6116(3) 0.9436(3) 0.31385(17)
C8_10 C 0.7016(3) 0.9280(3) 0.23936(18)
H4_10 H 0.6691 0.8799 0.2321
O3_12 O 0.5578(2) 0.8866(2) 0.30000(12)
O5_12 O 0.6085(2) 0.9743(2) 0.35476(13)
Cl1_5 Cl 0.3750 0.26262(10) 0.8750
Cl2_5 Cl 0.3750 0.48738(10) 0.8750
Cl1_6 Cl 0.3750 0.98738(10) 0.3750
Cl2_6 Cl 0.3750 0.76262(10) 0.3750
C8_11 C 0.0484(3) 0.4280(3) 0.01064(18)
H4_11 H 0.0809 0.3799 0.0179
Cd1_3 Cd 0.74690(3) 0.6250 0.1250
C1_9 C 0.9320(3) 0.5268(3) 0.03052(17)
C2_9 C 0.8616(3) 0.5564(3) 0.06385(17)
C3_8 C 0.9805(3) 0.4543(3) 0.04093(19)
H1_8 H 0.9675 0.4234 0.0681
O1_5 O 0.8078(2) 0.6134(2) 0.05000(12)
O2_5 O 0.8585(2) 0.5257(2) 0.10476(13)
Cl1_7 Cl 0.6250 0.73738(10) 0.1250
Cd2_3 Cd 0.50310(3) 0.6250 0.1250
O4_5 O 0.8078(2) 0.6366(2) 0.20000(12)
O6_5 O 0.8585(2) 0.7243(2) 0.14524(13)
Cl2_7 Cl 0.6250 0.51262(10) 0.1250
Cd1_4 Cd 0.74690(3) 0.1250 0.6250
C1_10 C 0.9320(3) 0.2232(3) 0.71948(17)
C2_10 C 0.8616(3) 0.1936(3) 0.68615(17)
C3_9 C 0.9805(3) 0.2957(3) 0.70907(19)
H1_9 H 0.9675 0.3266 0.6819
C4_8 C 0.9516(3) 0.1780(3) 0.76064(18)
H2_8 H 0.9191 0.1299 0.7679
O1_6 O 0.8078(2) 0.1366(2) 0.70000(12)
O2_6 O 0.8585(2) 0.2243(2) 0.64524(13)
Cl1_8 Cl 0.6250 0.01262(10) 0.6250
Cd2_4 Cd 0.50310(3) 0.1250 0.6250
O4_6 O 0.8078(2) 0.1134(2) 0.55000(12)
O6_6 O 0.8585(2) 0.0257(2) 0.60476(13)
Cl2_8 Cl 0.6250 0.23738(10) 0.6250
C1_11 C 0.9320(3) 0.0268(3) 0.53052(17)
C2_11 C 0.8616(3) 0.0564(3) 0.56385(17)
C4_9 C 0.9516(3) 0.0720(3) 0.48936(18)
H2_9 H 0.9191 0.1201 0.4821
C1_12 C 0.9320(3) 0.7232(3) 0.21948(17)
C2_12 C 0.8616(3) 0.6936(3) 0.18615(17)
C3_10 C 0.9805(3) 0.7957(3) 0.20907(19)
H1_10 H 0.9675 0.8266 0.1819
C4_10 C 0.9516(3) 0.6780(3) 0.26064(18)
H2_10 H 0.9191 0.6299 0.2679
C1_13 C 0.3180(3) 0.2232(3) 0.53052(17)
C2_13 C 0.3884(3) 0.1936(3) 0.56385(17)
C3_11 C 0.2695(3) 0.2957(3) 0.54093(19)
H1_11 H 0.2825 0.3266 0.5681
C4_11 C 0.2984(3) 0.1780(3) 0.48936(18)
H2_11 H 0.3309 0.1299 0.4821
O1_7 O 0.4422(2) 0.1366(2) 0.55000(12)
O2_7 O 0.3915(2) 0.2243(2) 0.60476(13)
C5_13 C 0.1820(3) 0.2768(3) 0.46948(17)
C6_13 C 0.1116(3) 0.3064(3) 0.43615(17)
C7_11 C 0.2305(3) 0.2043(3) 0.45907(19)
H3_11 H 0.2175 0.1734 0.4319
C8_12 C 0.2016(3) 0.3220(3) 0.51064(18)
H4_12 H 0.1691 0.3701 0.5179
O3_13 O 0.0578(2) 0.3634(2) 0.45000(12)
O4_7 O 0.4422(2) 0.1134(2) 0.70000(12)
O5_13 O 0.1085(2) 0.2757(2) 0.39524(13)
O6_7 O 0.3915(2) 0.0257(2) 0.64524(13)
C1_14 C 0.3180(3) 0.5268(3) 0.21948(17)
C2_14 C 0.3884(3) 0.5564(3) 0.18615(17)
C3_12 C 0.2695(3) 0.4543(3) 0.20907(19)
H1_12 H 0.2825 0.4234 0.1819
C4_12 C 0.2984(3) 0.5720(3) 0.26064(18)
H2_12 H 0.3309 0.6201 0.2679
O1_8 O 0.4422(2) 0.6134(2) 0.20000(12)
O2_8 O 0.3915(2) 0.5257(2) 0.14524(13)
C5_14 C 0.1820(3) 0.4732(3) 0.28052(17)
C6_14 C 0.1116(3) 0.4436(3) 0.31385(17)
C7_12 C 0.2305(3) 0.5457(3) 0.29093(19)
H3_12 H 0.2175 0.5766 0.3181
C8_13 C 0.2016(3) 0.4280(3) 0.23936(18)
H4_13 H 0.1691 0.3799 0.2321
O3_14 O 0.0578(2) 0.3866(2) 0.30000(12)
O4_8 O 0.4422(2) 0.6366(2) 0.05000(12)
O5_14 O 0.1085(2) 0.4743(2) 0.35476(13)
O6_8 O 0.3915(2) 0.7243(2) 0.10476(13)
C1_15 C 0.3180(3) 0.7232(3) 0.03052(17)
C2_15 C 0.3884(3) 0.6936(3) 0.06385(17)
C3_13 C 0.2695(3) 0.7957(3) 0.04093(19)
H1_13 H 0.2825 0.8266 0.0681
C8_14 C 0.2016(3) 0.8220(3) 0.01064(18)
H4_14 H 0.1691 0.8701 0.0179
C1_16 C 0.3180(3) 0.0268(3) 0.71948(17)
C2_16 C 0.3884(3) 0.0564(3) 0.68615(17)
C4_13 C 0.2984(3) 0.0720(3) 0.76064(18)
H2_13 H 0.3309 0.1201 0.7679
C7_13 C 0.2305(3) 0.0457(3) 0.79093(19)
H3_13 H 0.2175 0.0766 0.8181
C4_14 C 0.9516(3) 0.5720(3) 0.98936(18)
H2_14 H 0.9191 0.6201 0.9821
C7_14 C 0.0195(3) 0.0457(3) 0.45907(19)
H3_14 H 0.0325 0.0766 0.4319
C3_14 C 0.9805(3) 0.9543(3) 0.54093(19)
H1_14 H 0.9675 0.9234 0.5681
C4_15 C 0.2984(3) 0.6780(3) 0.98936(18)
H2_15 H 0.3309 0.6299 0.9821
C5_15 C 0.1820(3) 0.7768(3) 0.96948(17)
C6_15 C 0.1116(3) 0.8064(3) 0.93615(17)
C7_15 C 0.2305(3) 0.7043(3) 0.95907(19)
H3_15 H 0.2175 0.6734 0.9319
O3_15 O 0.0578(2) 0.8634(2) 0.95000(12)
O5_15 O 0.1085(2) 0.7757(2) 0.89524(13)
C3_15 C 0.2695(3) 0.9543(3) 0.70907(19)
H1_15 H 0.2825 0.9234 0.6819
C5_16 C 0.1820(3) 0.9732(3) 0.78052(17)
C6_16 C 0.1116(3) 0.9436(3) 0.81385(17)
C8_15 C 0.2016(3) 0.9280(3) 0.73936(18)
H4_15 H 0.1691 0.8799 0.7321
O3_16 O 0.0578(2) 0.8866(2) 0.80000(12)
O5_16 O 0.1085(2) 0.9743(2) 0.85476(13)
C4_16 C 0.4516(3) 0.0720(3) 0.98936(18)
H2_16 H 0.4191 0.1201 0.9821
C7_16 C 0.5195(3) 0.0457(3) 0.95907(19)
H3_16 H 0.5325 0.0766 0.9319
C3_16 C 0.4805(3) 0.9543(3) 0.04093(19)
H1_16 H 0.4675 0.9234 0.0681
C8_16 C 0.5484(3) 0.9280(3) 0.01064(18)
H4_16 H 0.5809 0.8799 0.0179
C9 C 0.1313(4) 0.0490(3) 0.2595(2)
H6 H 0.1834 0.0531 0.2399
H7 H 0.0795 0.0456 0.2398
C10 C 0.0447(4) 0.1183(4) 0.3207(2)
H8 H 0.0404 0.1673 0.3405
H9 H 0.0490 0.0690 0.3401
N1 N 0.1250 0.1250 0.2904(2)
C11 C 0.1187(4) 0.2010(3) 0.2595(2)
H11 H 0.1148 0.2504 0.2789
H12 H 0.0666 0.1969 0.2399
H13 H 0.1705 0.2044 0.2398
C12 C 0.2053(4) 0.1317(4) 0.3207(2)
H14 H 0.2096 0.0827 0.3405
H15 H 0.2010 0.1810 0.3401
H16 H 0.2572 0.1355 0.3010
H5 H 0.1352 0.9996 0.2789
H10 H 0.9928 0.1145 0.3010
C9_2 C 0.6187(4) 0.7010(3) 0.2595(2)
H5_2 H 0.6148 0.7504 0.2789
H6_2 H 0.5666 0.6969 0.2399
H7_2 H 0.6705 0.7044 0.2398
C10_2 C 0.7053(4) 0.6317(4) 0.3207(2)
H8_2 H 0.7096 0.5827 0.3405
H9_2 H 0.7010 0.6810 0.3401
H10_2 H 0.7572 0.6355 0.3010
N1_2 N 0.6250 0.6250 0.2904(2)
C11_2 C 0.6313(4) 0.5490(3) 0.2595(2)
H11_2 H 0.6352 0.4996 0.2789
H12_2 H 0.6834 0.5531 0.2399
H13_2 H 0.5795 0.5456 0.2398
C12_2 C 0.5447(4) 0.6183(4) 0.3207(2)
H14_2 H 0.5404 0.6673 0.3405
H15_2 H 0.5490 0.5690 0.3401
H16_2 H 0.4928 0.6145 0.3010
C9_3 C 0.6187(4) 0.0490(3) 0.4905(2)
H6_3 H 0.5666 0.0531 0.5101
H7_3 H 0.6705 0.0456 0.5102
C10_3 C 0.7053(4) 0.1183(4) 0.4293(2)
H8_3 H 0.7096 0.1673 0.4095
H9_3 H 0.7010 0.0690 0.4099
H10_3 H 0.7572 0.1145 0.4490
N1_3 N 0.6250 0.1250 0.4596(2)
C11_3 C 0.6313(4) 0.2010(3) 0.4905(2)
H11_3 H 0.6352 0.2504 0.4711
H12_3 H 0.6834 0.1969 0.5101
H13_3 H 0.5795 0.2044 0.5102
C12_3 C 0.5447(4) 0.1317(4) 0.4293(2)
H14_3 H 0.5404 0.0827 0.4095
H15_3 H 0.5490 0.1810 0.4099
H16_3 H 0.4928 0.1355 0.4490
H5_3 H 0.6148 0.9996 0.4711
C9_4 C 0.1313(4) 0.7010(3) 0.4905(2)
H5_4 H 0.1352 0.7504 0.4711
H6_4 H 0.1834 0.6969 0.5101
H7_4 H 0.0795 0.7044 0.5102
C10_4 C 0.0447(4) 0.6317(4) 0.4293(2)
H8_4 H 0.0404 0.5827 0.4095
H9_4 H 0.0490 0.6810 0.4099
N1_4 N 0.1250 0.6250 0.4596(2)
C11_4 C 0.1187(4) 0.5490(3) 0.4905(2)
H11_4 H 0.1148 0.4996 0.4711
H12_4 H 0.0666 0.5531 0.5101
H13_4 H 0.1705 0.5456 0.5102
C12_4 C 0.2053(4) 0.6183(4) 0.4293(2)
H14_4 H 0.2096 0.6673 0.4095
H15_4 H 0.2010 0.5690 0.4099
H16_4 H 0.2572 0.6145 0.4490
H10_4 H 0.9928 0.6355 0.4490
C9_5 C 0.1313(4) 0.5490(3) 0.7595(2)
H5_5 H 0.1352 0.4996 0.7789
H6_5 H 0.1834 0.5531 0.7399
H7_5 H 0.0795 0.5456 0.7398
C10_5 C 0.0447(4) 0.6183(4) 0.8207(2)
H8_5 H 0.0404 0.6673 0.8405
H9_5 H 0.0490 0.5690 0.8401
N1_5 N 0.1250 0.6250 0.7904(2)
C11_5 C 0.1187(4) 0.7010(3) 0.7595(2)
H11_5 H 0.1148 0.7504 0.7789
H12_5 H 0.0666 0.6969 0.7399
H13_5 H 0.1705 0.7044 0.7398
C12_5 C 0.2053(4) 0.6317(4) 0.8207(2)
H14_5 H 0.2096 0.5827 0.8405
H15_5 H 0.2010 0.6810 0.8401
H16_5 H 0.2572 0.6355 0.8010
H10_5 H 0.9928 0.6145 0.8010
C9_6 C 0.6187(4) 0.2010(3) 0.7595(2)
H5_6 H 0.6148 0.2504 0.7789
H6_6 H 0.5666 0.1969 0.7399
H7_6 H 0.6705 0.2044 0.7398
C10_6 C 0.7053(4) 0.1317(4) 0.8207(2)
H8_6 H 0.7096 0.0827 0.8405
H9_6 H 0.7010 0.1810 0.8401
H10_6 H 0.7572 0.1355 0.8010
N1_6 N 0.6250 0.1250 0.7904(2)
C11_6 C 0.6313(4) 0.0490(3) 0.7595(2)
H12_6 H 0.6834 0.0531 0.7399
H13_6 H 0.5795 0.0456 0.7398
C12_6 C 0.5447(4) 0.1183(4) 0.8207(2)
H14_6 H 0.5404 0.1673 0.8405
H15_6 H 0.5490 0.0690 0.8401
H16_6 H 0.4928 0.1145 0.8010
H11_6 H 0.6352 0.9996 0.7789
H6_7 H 0.5666 0.5531 0.0101
H7_7 H 0.6705 0.5456 0.0102
H12_7 H 0.6834 0.6969 0.0101
H13_7 H 0.5795 0.7044 0.0102
C9_7 C 0.6187(4) 0.5490(3) 0.9905(2)
H5_7 H 0.6148 0.4996 0.9711
C10_7 C 0.7053(4) 0.6183(4) 0.9293(2)
H8_7 H 0.7096 0.6673 0.9095
H9_7 H 0.7010 0.5690 0.9099
H10_7 H 0.7572 0.6145 0.9490
N1_7 N 0.6250 0.6250 0.9596(2)
C11_7 C 0.6313(4) 0.7010(3) 0.9905(2)
H11_7 H 0.6352 0.7504 0.9711
C12_7 C 0.5447(4) 0.6317(4) 0.9293(2)
H14_7 H 0.5404 0.5827 0.9095
H15_7 H 0.5490 0.6810 0.9099
H16_7 H 0.4928 0.6355 0.9490
H6_8 H 0.1834 0.1969 0.0101
H7_8 H 0.0795 0.2044 0.0102
H12_8 H 0.0666 0.0531 0.0101
H13_8 H 0.1705 0.0456 0.0102
C9_8 C 0.1313(4) 0.2010(3) 0.9905(2)
H5_8 H 0.1352 0.2504 0.9711
C10_8 C 0.0447(4) 0.1317(4) 0.9293(2)
H8_8 H 0.0404 0.0827 0.9095
H9_8 H 0.0490 0.1810 0.9099
N1_8 N 0.1250 0.1250 0.9596(2)
C11_8 C 0.1187(4) 0.0490(3) 0.9905(2)
C12_8 C 0.2053(4) 0.1183(4) 0.9293(2)
H14_8 H 0.2096 0.1673 0.9095
H15_8 H 0.2010 0.0690 0.9099
H16_8 H 0.2572 0.1145 0.9490
H11_8 H 0.1148 0.9996 0.9711
H10_8 H 0.9928 0.1355 0.9490
H10_9 H 0.0072 0.8855 0.6990
H5_9 H 0.8648 0.0004 0.7211
C9_9 C 0.8687(4) 0.9510(3) 0.7405(2)
H6_9 H 0.8166 0.9469 0.7601
H7_9 H 0.9205 0.9544 0.7602
C10_9 C 0.9553(4) 0.8817(4) 0.6793(2)
H8_9 H 0.9596 0.8327 0.6595
H9_9 H 0.9510 0.9310 0.6599
N1_9 N 0.8750 0.8750 0.7096(2)
C11_9 C 0.8813(4) 0.7990(3) 0.7405(2)
H11_9 H 0.8852 0.7496 0.7211
H12_9 H 0.9334 0.8031 0.7601
H13_9 H 0.8295 0.7956 0.7602
C12_9 C 0.7947(4) 0.8683(4) 0.6793(2)
H14_9 H 0.7904 0.9173 0.6595
H15_9 H 0.7990 0.8190 0.6599
H16_9 H 0.7428 0.8645 0.6990
C9_10 C 0.3813(4) 0.2990(3) 0.7405(2)
H5_10 H 0.3852 0.2496 0.7211
H6_10 H 0.4334 0.3031 0.7601
H7_10 H 0.3295 0.2956 0.7602
C10_10 C 0.2947(4) 0.3683(4) 0.6793(2)
H8_10 H 0.2904 0.4173 0.6595
H9_10 H 0.2990 0.3190 0.6599
H10_10 H 0.2428 0.3645 0.6990
N1_10 N 0.3750 0.3750 0.7096(2)
C11_10 C 0.3687(4) 0.4510(3) 0.7405(2)
H11_10 H 0.3648 0.5004 0.7211
H12_10 H 0.3166 0.4469 0.7601
H13_10 H 0.4205 0.4544 0.7602
C12_10 C 0.4553(4) 0.3817(4) 0.6793(2)
H14_10 H 0.4596 0.3327 0.6595
H15_10 H 0.4510 0.4310 0.6599
H16_10 H 0.5072 0.3855 0.6990
H5_11 H 0.3852 0.0004 0.5289
C9_11 C 0.3813(4) 0.9510(3) 0.5095(2)
H6_11 H 0.4334 0.9469 0.4899
H7_11 H 0.3295 0.9544 0.4898
C10_11 C 0.2947(4) 0.8817(4) 0.5707(2)
H8_11 H 0.2904 0.8327 0.5905
H9_11 H 0.2990 0.9310 0.5901
H10_11 H 0.2428 0.8855 0.5510
N1_11 N 0.3750 0.8750 0.5404(2)
C11_11 C 0.3687(4) 0.7990(3) 0.5095(2)
H11_11 H 0.3648 0.7496 0.5289
H12_11 H 0.3166 0.8031 0.4899
H13_11 H 0.4205 0.7956 0.4898
C12_11 C 0.4553(4) 0.8683(4) 0.5707(2)
H14_11 H 0.4596 0.9173 0.5905
H15_11 H 0.4510 0.8190 0.5901
H16_11 H 0.5072 0.8645 0.5510
H10_12 H 0.0072 0.3645 0.5510
C9_12 C 0.8687(4) 0.2990(3) 0.5095(2)
H5_12 H 0.8648 0.2496 0.5289
H6_12 H 0.8166 0.3031 0.4899
H7_12 H 0.9205 0.2956 0.4898
C10_12 C 0.9553(4) 0.3683(4) 0.5707(2)
H8_12 H 0.9596 0.4173 0.5905
H9_12 H 0.9510 0.3190 0.5901
N1_12 N 0.8750 0.3750 0.5404(2)
C11_12 C 0.8813(4) 0.4510(3) 0.5095(2)
H11_12 H 0.8852 0.5004 0.5289
H12_12 H 0.9334 0.4469 0.4899
H13_12 H 0.8295 0.4544 0.4898
C12_12 C 0.7947(4) 0.3817(4) 0.5707(2)
H14_12 H 0.7904 0.3327 0.5905
H15_12 H 0.7990 0.4310 0.5901
H16_12 H 0.7428 0.3855 0.5510
H10_13 H 0.0072 0.3855 0.1990
C9_13 C 0.8687(4) 0.4510(3) 0.2405(2)
H5_13 H 0.8648 0.5004 0.2211
H6_13 H 0.8166 0.4469 0.2601
H7_13 H 0.9205 0.4544 0.2602
C10_13 C 0.9553(4) 0.3817(4) 0.1793(2)
H8_13 H 0.9596 0.3327 0.1595
H9_13 H 0.9510 0.4310 0.1599
N1_13 N 0.8750 0.3750 0.2096(2)
C11_13 C 0.8813(4) 0.2990(3) 0.2405(2)
H11_13 H 0.8852 0.2496 0.2211
H12_13 H 0.9334 0.3031 0.2601
H13_13 H 0.8295 0.2956 0.2602
C12_13 C 0.7947(4) 0.3683(4) 0.1793(2)
H14_13 H 0.7904 0.4173 0.1595
H15_13 H 0.7990 0.3190 0.1599
H16_13 H 0.7428 0.3645 0.1990
H11_14 H 0.3648 0.0004 0.2211
C9_14 C 0.3813(4) 0.7990(3) 0.2405(2)
H5_14 H 0.3852 0.7496 0.2211
H6_14 H 0.4334 0.8031 0.2601
H7_14 H 0.3295 0.7956 0.2602
C10_14 C 0.2947(4) 0.8683(4) 0.1793(2)
H8_14 H 0.2904 0.9173 0.1595
H9_14 H 0.2990 0.8190 0.1599
H10_14 H 0.2428 0.8645 0.1990
N1_14 N 0.3750 0.8750 0.2096(2)
C11_14 C 0.3687(4) 0.9510(3) 0.2405(2)
H12_14 H 0.3166 0.9469 0.2601
H13_14 H 0.4205 0.9544 0.2602
C12_14 C 0.4553(4) 0.8817(4) 0.1793(2)
H14_14 H 0.4596 0.8327 0.1595
H15_14 H 0.4510 0.9310 0.1599
H16_14 H 0.5072 0.8855 0.1990
C9_15 C 0.3813(4) 0.4510(3) 0.0095(2)
H5_15 H 0.3852 0.5004 0.0289
C10_15 C 0.2947(4) 0.3817(4) 0.0707(2)
H8_15 H 0.2904 0.3327 0.0905
H9_15 H 0.2990 0.4310 0.0901
H10_15 H 0.2428 0.3855 0.0510
N1_15 N 0.3750 0.3750 0.0404(2)
C11_15 C 0.3687(4) 0.2990(3) 0.0095(2)
H11_15 H 0.3648 0.2496 0.0289
C12_15 C 0.4553(4) 0.3683(4) 0.0707(2)
H14_15 H 0.4596 0.4173 0.0905
H15_15 H 0.4510 0.3190 0.0901
H16_15 H 0.5072 0.3645 0.0510
H6_15 H 0.4334 0.4469 0.9899
H7_15 H 0.3295 0.4544 0.9898
H12_15 H 0.3166 0.3031 0.9899
H13_15 H 0.4205 0.2956 0.9898
H10_16 H 0.0072 0.8645 0.0510
H11_16 H 0.8852 0.0004 0.0289
C9_16 C 0.8687(4) 0.7990(3) 0.0095(2)
H5_16 H 0.8648 0.7496 0.0289
C10_16 C 0.9553(4) 0.8683(4) 0.0707(2)
H8_16 H 0.9596 0.9173 0.0905
H9_16 H 0.9510 0.8190 0.0901
N1_16 N 0.8750 0.8750 0.0404(2)
C11_16 C 0.8813(4) 0.9510(3) 0.0095(2)
C12_16 C 0.7947(4) 0.8817(4) 0.0707(2)
H14_16 H 0.7904 0.8327 0.0905
H15_16 H 0.7990 0.9310 0.0901
H16_16 H 0.7428 0.8855 0.0510
H6_16 H 0.8166 0.8031 0.9899
H7_16 H 0.9205 0.7956 0.9898
H12_16 H 0.9334 0.9469 0.9899
H13_16 H 0.8295 0.9544 0.9898
loop_
_geom_bond_atom_site_label_1
_geom_bond_atom_site_label_2
_geom_bond_site_symmetry_1
_geom_bond_site_symmetry_2
Cl1 Cd1 1_555 1_555
Cd2 Cl1 1_555 1_555
Cl2 Cd1 1_555 1_555
Cd2 Cl2 1_555 1_555
Cl1_2 Cd1_2 1_555 1_555
Cd2_2 Cl1_2 1_555 1_555
Cl2_2 Cd1_2 1_555 1_555
Cd2_2 Cl2_2 1_555 1_555
Cd2_2 O1 1_555 1_555
C1 C2 1_555 1_555
C2 O1 1_555 1_555
C3 C1 1_555 1_555
H1 C3 1_555 1_555
C4 C1 1_555 1_555
H2 C4 1_555 1_555
O2 Cd2_2 1_555 1_555
Cd3_2 O3 1_555 1_555
C5 C6 1_555 1_555
C6 O3 1_555 1_555
C7 C4 1_555 1_555
H3 C7 1_555 1_555
C8 C3 1_555 1_555
H4 C8 1_555 1_555
O4 Cd2_2 1_555 1_555
O5 Cd3_2 1_555 1_555
O6 Cd2_2 1_555 1_555
C2 O2 1_555 1_555
C5 C7 1_555 1_555
C5 C8 1_555 1_555
C6 O5 1_555 1_555
Cd2 O1_2 1_555 1_555
C1_2 C2_2 1_555 1_555
C2_2 O1_2 1_555 1_555
C3_2 C1_2 1_555 1_555
H1_2 C3_2 1_555 1_555
C4_2 C1_2 1_555 1_555
H2_2 C4_2 1_555 1_555
O2_2 Cd2 1_555 1_555
Cd3_2 O3_2 1_555 1_555
C5_2 C6_2 1_555 1_555
C6_2 O3_2 1_555 1_555
C7_2 C4_2 1_555 1_555
H3_2 C7_2 1_555 1_555
C8_2 C3_2 1_555 1_555
H4_2 C8_2 1_555 1_555
O4_2 Cd2 1_555 1_555
O5_2 Cd3_2 1_555 1_555
O6_2 Cd2 1_555 1_555
C2_2 O2_2 1_555 1_555
C5_2 C7_2 1_555 1_555
C5_2 C8_2 1_555 1_555
C6_2 O5_2 1_555 1_555
C1_3 C2_3 1_555 1_555
C2_3 O4_2 1_555 1_555
C2_3 O6_2 1_555 1_555
Cd3_4 O3_3 1_555 1_555
C5_3 C6_3 1_555 1_555
C6_3 O3_3 1_555 1_555
O5_3 Cd3_4 1_555 1_555
C6_3 O5_3 1_555 1_555
C1_4 C2_4 1_555 1_555
C2_4 O4 1_555 1_555
C3_3 C1_4 1_555 1_555
H1_3 C3_3 1_555 1_555
C4_3 C1_4 1_555 1_555
H2_3 C4_3 1_555 1_555
Cd3_4 O3_4 1_555 1_555
C5_4 C6_4 1_555 1_555
C6_4 O3_4 1_555 1_555
C7_3 C4_3 1_555 1_555
H3_3 C7_3 1_555 1_555
C8_3 C3_3 1_555 1_555
H4_3 C8_3 1_555 1_555
O5_4 Cd3_4 1_555 1_555
C2_4 O6 1_555 1_555
C5_4 C7_3 1_555 1_555
C5_4 C8_3 1_555 1_555
C6_4 O5_4 1_555 1_555
Cl1_3 Cd3_3 1_555 1_555
Cd3_4 Cl1_3 1_555 1_555
Cl2_3 Cd3_3 1_555 1_555
Cd3_4 Cl2_3 1_555 1_555
Cl1_4 Cd3 1_555 1_555
Cd3_2 Cl1_4 1_555 1_555
Cl2_4 Cd3 1_555 1_555
Cd3_2 Cl2_4 1_555 1_555
C1_5 C2_5 1_555 1_555
C2_5 O1_3 1_555 1_555
C3_4 C1_5 1_555 1_555
H1_4 C3_4 1_555 1_555
C8_4 C3_4 1_555 1_555
H4_4 C8_4 1_555 1_555
C2_5 O2_3 1_555 1_555
C1_6 C2_6 1_555 1_555
C2_6 O4_3 1_555 1_555
C4_4 C1_6 1_555 1_555
H2_4 C4_4 1_555 1_555
C7_4 C4_4 1_555 1_555
H3_4 C7_4 1_555 1_555
C2_6 O6_3 1_555 1_555
H2_5 C4_5 1_555 1_555
Cd3_5 O3_5 1_555 1_555
C5_5 C6_5 1_555 1_555
C6_5 O3_5 1_555 1_555
C7_5 C4_5 1_555 1_555
H3_5 C7_5 1_555 1_555
O5_5 Cd3_5 1_555 1_555
C5_5 C7_5 1_555 1_555
C6_5 O5_5 1_555 1_555
Cd3_6 O3_6 1_555 1_555
C5_6 C6_6 1_555 1_555
C6_6 O3_6 1_555 1_555
H3_6 C7_6 1_555 1_555
O5_6 Cd3_6 1_555 1_555
C5_6 C7_6 1_555 1_555
C6_6 O5_6 1_555 1_555
Cd3_6 O3_7 1_555 1_555
C5_7 C6_7 1_555 1_555
C6_7 O3_7 1_555 1_555
H3_7 C7_7 1_555 1_555
H4_5 C8_5 1_555 1_555
O5_7 Cd3_6 1_555 1_555
C5_7 C7_7 1_555 1_555
C5_7 C8_5 1_555 1_555
C6_7 O5_7 1_555 1_555
C1_7 C2_7 1_555 1_555
C2_7 O1_4 1_555 1_555
C3_5 C1_7 1_555 1_555
H1_5 C3_5 1_555 1_555
C4_6 C1_7 1_555 1_555
H2_6 C4_6 1_555 1_555
Cd3_5 O3_8 1_555 1_555
C5_8 C6_8 1_555 1_555
C6_8 O3_8 1_555 1_555
C7_8 C4_6 1_555 1_555
H3_8 C7_8 1_555 1_555
C8_6 C3_5 1_555 1_555
H4_6 C8_6 1_555 1_555
O5_8 Cd3_5 1_555 1_555
C2_7 O2_4 1_555 1_555
C5_8 C7_8 1_555 1_555
C5_8 C8_6 1_555 1_555
C6_8 O5_8 1_555 1_555
C1_8 C2_8 1_555 1_555
C2_8 O4_4 1_555 1_555
C3_6 C1_8 1_555 1_555
H1_6 C3_6 1_555 1_555
C4_7 C1_8 1_555 1_555
H2_7 C4_7 1_555 1_555
Cd3_7 O3_9 1_555 1_555
C5_9 C6_9 1_555 1_555
C6_9 O3_9 1_555 1_555
C7_9 C4_7 1_555 1_555
H3_9 C7_9 1_555 1_555
C8_7 C3_6 1_555 1_555
H4_7 C8_7 1_555 1_555
O5_9 Cd3_7 1_555 1_555
C2_8 O6_4 1_555 1_555
C5_9 C7_9 1_555 1_555
C5_9 C8_7 1_555 1_555
C6_9 O5_9 1_555 1_555
Cd3_8 O3_10 1_555 1_555
C5_10 C6_10 1_555 1_555
C6_10 O3_10 1_555 1_555
H4_8 C8_8 1_555 1_555
O5_10 Cd3_8 1_555 1_555
C5_10 C8_8 1_555 1_555
C6_10 O5_10 1_555 1_555
Cd3_8 O3_11 1_555 1_555
C5_11 C6_11 1_555 1_555
C6_11 O3_11 1_555 1_555
H3_10 C7_10 1_555 1_555
H4_9 C8_9 1_555 1_555
O5_11 Cd3_8 1_555 1_555
C5_11 C7_10 1_555 1_555
C5_11 C8_9 1_555 1_555
C6_11 O5_11 1_555 1_555
H1_7 C3_7 1_555 1_555
Cd3_7 O3_12 1_555 1_555
C5_12 C6_12 1_555 1_555
C6_12 O3_12 1_555 1_555
C8_10 C3_7 1_555 1_555
H4_10 C8_10 1_555 1_555
O5_12 Cd3_7 1_555 1_555
C5_12 C8_10 1_555 1_555
C6_12 O5_12 1_555 1_555
Cl1_5 Cd3_6 1_555 1_555
Cd3_5 Cl1_5 1_555 1_555
Cl2_5 Cd3_6 1_555 1_555
Cd3_5 Cl2_5 1_555 1_555
Cl1_6 Cd3_8 1_555 1_555
Cd3_7 Cl1_6 1_555 1_555
Cl2_6 Cd3_8 1_555 1_555
Cd3_7 Cl2_6 1_555 1_555
H4_11 C8_11 1_555 1_555
Cd1_3 O1_5 1_555 1_555
C1_9 C2_9 1_555 1_555
C2_9 O1_5 1_555 1_555
C3_8 C1_9 1_555 1_555
H1_8 C3_8 1_555 1_555
O2_5 Cd1_3 1_555 1_555
Cl1_7 Cd1_3 1_555 1_555
Cd2_3 Cl1_7 1_555 1_555
O4_5 Cd1_3 1_555 1_555
O6_5 Cd1_3 1_555 1_555
Cl2_7 Cd1_3 1_555 1_555
C2_9 O2_5 1_555 1_555
Cd2_3 Cl2_7 1_555 1_555
Cd1_4 O1_6 1_555 1_555
C1_10 C2_10 1_555 1_555
C2_10 O1_6 1_555 1_555
C3_9 C1_10 1_555 1_555
H1_9 C3_9 1_555 1_555
C4_8 C1_10 1_555 1_555
H2_8 C4_8 1_555 1_555
O2_6 Cd1_4 1_555 1_555
Cl1_8 Cd1_4 1_555 1_555
Cd2_4 Cl1_8 1_555 1_555
O4_6 Cd1_4 1_555 1_555
O6_6 Cd1_4 1_555 1_555
Cl2_8 Cd1_4 1_555 1_555
C2_10 O2_6 1_555 1_555
Cd2_4 Cl2_8 1_555 1_555
C1_11 C2_11 1_555 1_555
C2_11 O4_6 1_555 1_555
C4_9 C1_11 1_555 1_555
H2_9 C4_9 1_555 1_555
C2_11 O6_6 1_555 1_555
C1_12 C2_12 1_555 1_555
C2_12 O4_5 1_555 1_555
C3_10 C1_12 1_555 1_555
H1_10 C3_10 1_555 1_555
C4_10 C1_12 1_555 1_555
H2_10 C4_10 1_555 1_555
C2_12 O6_5 1_555 1_555
Cd2_4 O1_7 1_555 1_555
C1_13 C2_13 1_555 1_555
C2_13 O1_7 1_555 1_555
C3_11 C1_13 1_555 1_555
H1_11 C3_11 1_555 1_555
C4_11 C1_13 1_555 1_555
H2_11 C4_11 1_555 1_555
O2_7 Cd2_4 1_555 1_555
C5_13 C6_13 1_555 1_555
C6_13 O3_13 1_555 1_555
C7_11 C4_11 1_555 1_555
H3_11 C7_11 1_555 1_555
C8_12 C3_11 1_555 1_555
H4_12 C8_12 1_555 1_555
O4_7 Cd2_4 1_555 1_555
O6_7 Cd2_4 1_555 1_555
C2_13 O2_7 1_555 1_555
C5_13 C7_11 1_555 1_555
C5_13 C8_12 1_555 1_555
C6_13 O5_13 1_555 1_555
Cd2_3 O1_8 1_555 1_555
C1_14 C2_14 1_555 1_555
C2_14 O1_8 1_555 1_555
C3_12 C1_14 1_555 1_555
H1_12 C3_12 1_555 1_555
C4_12 C1_14 1_555 1_555
H2_12 C4_12 1_555 1_555
O2_8 Cd2_3 1_555 1_555
C5_14 C6_14 1_555 1_555
C6_14 O3_14 1_555 1_555
C7_12 C4_12 1_555 1_555
H3_12 C7_12 1_555 1_555
C8_13 C3_12 1_555 1_555
H4_13 C8_13 1_555 1_555
O4_8 Cd2_3 1_555 1_555
O6_8 Cd2_3 1_555 1_555
C2_14 O2_8 1_555 1_555
C5_14 C7_12 1_555 1_555
C5_14 C8_13 1_555 1_555
C6_14 O5_14 1_555 1_555
C1_15 C2_15 1_555 1_555
C2_15 O4_8 1_555 1_555
C3_13 C1_15 1_555 1_555
H1_13 C3_13 1_555 1_555
C8_14 C3_13 1_555 1_555
H4_14 C8_14 1_555 1_555
C2_15 O6_8 1_555 1_555
C1_16 C2_16 1_555 1_555
C2_16 O4_7 1_555 1_555
C4_13 C1_16 1_555 1_555
H2_13 C4_13 1_555 1_555
C7_13 C4_13 1_555 1_555
H3_13 C7_13 1_555 1_555
C2_16 O6_7 1_555 1_555
H2_14 C4_14 1_555 1_555
H3_14 C7_14 1_555 1_555
H1_14 C3_14 1_555 1_555
H2_15 C4_15 1_555 1_555
C5_15 C6_15 1_555 1_555
C6_15 O3_15 1_555 1_555
C7_15 C4_15 1_555 1_555
H3_15 C7_15 1_555 1_555
C5_15 C7_15 1_555 1_555
C6_15 O5_15 1_555 1_555
H1_15 C3_15 1_555 1_555
C5_16 C6_16 1_555 1_555
C6_16 O3_16 1_555 1_555
C8_15 C3_15 1_555 1_555
H4_15 C8_15 1_555 1_555
C5_16 C8_15 1_555 1_555
C6_16 O5_16 1_555 1_555
H2_16 C4_16 1_555 1_555
C7_16 C4_16 1_555 1_555
H3_16 C7_16 1_555 1_555
H1_16 C3_16 1_555 1_555
C8_16 C3_16 1_555 1_555
H4_16 C8_16 1_555 1_555
H6 C9 1_555 1_555
H7 C9 1_555 1_555
C10 H8 1_555 1_555
H9 C10 1_555 1_555
N1 C9 1_555 1_555
C11 N1 1_555 1_555
H11 C11 1_555 1_555
H12 C11 1_555 1_555
H13 C11 1_555 1_555
C12 N1 1_555 1_555
H14 C12 1_555 1_555
H15 C12 1_555 1_555
H16 C12 1_555 1_555
C10 N1 1_555 1_555
C9_2 H5_2 1_555 1_555
H6_2 C9_2 1_555 1_555
H7_2 C9_2 1_555 1_555
C10_2 H8_2 1_555 1_555
H9_2 C10_2 1_555 1_555
H10_2 C10_2 1_555 1_555
N1_2 C9_2 1_555 1_555
C11_2 N1_2 1_555 1_555
H11_2 C11_2 1_555 1_555
H12_2 C11_2 1_555 1_555
H13_2 C11_2 1_555 1_555
C12_2 N1_2 1_555 1_555
H14_2 C12_2 1_555 1_555
H15_2 C12_2 1_555 1_555
H16_2 C12_2 1_555 1_555
C10_2 N1_2 1_555 1_555
H6_3 C9_3 1_555 1_555
H7_3 C9_3 1_555 1_555
C10_3 H8_3 1_555 1_555
H9_3 C10_3 1_555 1_555
H10_3 C10_3 1_555 1_555
N1_3 C9_3 1_555 1_555
C11_3 N1_3 1_555 1_555
H11_3 C11_3 1_555 1_555
H12_3 C11_3 1_555 1_555
H13_3 C11_3 1_555 1_555
C12_3 N1_3 1_555 1_555
H14_3 C12_3 1_555 1_555
H15_3 C12_3 1_555 1_555
H16_3 C12_3 1_555 1_555
C10_3 N1_3 1_555 1_555
C9_4 H5_4 1_555 1_555
H6_4 C9_4 1_555 1_555
H7_4 C9_4 1_555 1_555
C10_4 H8_4 1_555 1_555
H9_4 C10_4 1_555 1_555
N1_4 C9_4 1_555 1_555
C11_4 N1_4 1_555 1_555
H11_4 C11_4 1_555 1_555
H12_4 C11_4 1_555 1_555
H13_4 C11_4 1_555 1_555
C12_4 N1_4 1_555 1_555
H14_4 C12_4 1_555 1_555
H15_4 C12_4 1_555 1_555
H16_4 C12_4 1_555 1_555
C10_4 N1_4 1_555 1_555
C9_5 H5_5 1_555 1_555
H6_5 C9_5 1_555 1_555
H7_5 C9_5 1_555 1_555
C10_5 H8_5 1_555 1_555
H9_5 C10_5 1_555 1_555
N1_5 C9_5 1_555 1_555
C11_5 N1_5 1_555 1_555
H11_5 C11_5 1_555 1_555
H12_5 C11_5 1_555 1_555
H13_5 C11_5 1_555 1_555
C12_5 N1_5 1_555 1_555
H14_5 C12_5 1_555 1_555
H15_5 C12_5 1_555 1_555
H16_5 C12_5 1_555 1_555
C10_5 N1_5 1_555 1_555
C9_6 H5_6 1_555 1_555
H6_6 C9_6 1_555 1_555
H7_6 C9_6 1_555 1_555
C10_6 H8_6 1_555 1_555
H9_6 C10_6 1_555 1_555
H10_6 C10_6 1_555 1_555
N1_6 C9_6 1_555 1_555
C11_6 N1_6 1_555 1_555
H12_6 C11_6 1_555 1_555
H13_6 C11_6 1_555 1_555
C12_6 N1_6 1_555 1_555
H14_6 C12_6 1_555 1_555
H15_6 C12_6 1_555 1_555
H16_6 C12_6 1_555 1_555
C10_6 N1_6 1_555 1_555
C9_7 H5_7 1_555 1_555
C10_7 H8_7 1_555 1_555
H9_7 C10_7 1_555 1_555
H10_7 C10_7 1_555 1_555
N1_7 C9_7 1_555 1_555
C11_7 N1_7 1_555 1_555
H11_7 C11_7 1_555 1_555
C12_7 N1_7 1_555 1_555
H14_7 C12_7 1_555 1_555
H15_7 C12_7 1_555 1_555
H16_7 C12_7 1_555 1_555
C10_7 N1_7 1_555 1_555
C9_8 H5_8 1_555 1_555
C10_8 H8_8 1_555 1_555
H9_8 C10_8 1_555 1_555
N1_8 C9_8 1_555 1_555
C11_8 N1_8 1_555 1_555
C12_8 N1_8 1_555 1_555
H14_8 C12_8 1_555 1_555
H15_8 C12_8 1_555 1_555
H16_8 C12_8 1_555 1_555
C10_8 N1_8 1_555 1_555
H6_9 C9_9 1_555 1_555
H7_9 C9_9 1_555 1_555
C10_9 H8_9 1_555 1_555
H9_9 C10_9 1_555 1_555
N1_9 C9_9 1_555 1_555
C11_9 N1_9 1_555 1_555
H11_9 C11_9 1_555 1_555
H12_9 C11_9 1_555 1_555
H13_9 C11_9 1_555 1_555
C12_9 N1_9 1_555 1_555
H14_9 C12_9 1_555 1_555
H15_9 C12_9 1_555 1_555
H16_9 C12_9 1_555 1_555
C10_9 N1_9 1_555 1_555
C9_10 H5_10 1_555 1_555
H6_10 C9_10 1_555 1_555
H7_10 C9_10 1_555 1_555
C10_10 H8_10 1_555 1_555
H9_10 C10_10 1_555 1_555
H10_10 C10_10 1_555 1_555
N1_10 C9_10 1_555 1_555
C11_10 N1_10 1_555 1_555
H11_10 C11_10 1_555 1_555
H12_10 C11_10 1_555 1_555
H13_10 C11_10 1_555 1_555
C12_10 N1_10 1_555 1_555
H14_10 C12_10 1_555 1_555
H15_10 C12_10 1_555 1_555
H16_10 C12_10 1_555 1_555
C10_10 N1_10 1_555 1_555
H6_11 C9_11 1_555 1_555
H7_11 C9_11 1_555 1_555
C10_11 H8_11 1_555 1_555
H9_11 C10_11 1_555 1_555
H10_11 C10_11 1_555 1_555
N1_11 C9_11 1_555 1_555
C11_11 N1_11 1_555 1_555
H11_11 C11_11 1_555 1_555
H12_11 C11_11 1_555 1_555
H13_11 C11_11 1_555 1_555
C12_11 N1_11 1_555 1_555
H14_11 C12_11 1_555 1_555
H15_11 C12_11 1_555 1_555
H16_11 C12_11 1_555 1_555
C10_11 N1_11 1_555 1_555
C9_12 H5_12 1_555 1_555
H6_12 C9_12 1_555 1_555
H7_12 C9_12 1_555 1_555
C10_12 H8_12 1_555 1_555
H9_12 C10_12 1_555 1_555
N1_12 C9_12 1_555 1_555
C11_12 N1_12 1_555 1_555
H11_12 C11_12 1_555 1_555
H12_12 C11_12 1_555 1_555
H13_12 C11_12 1_555 1_555
C12_12 N1_12 1_555 1_555
H14_12 C12_12 1_555 1_555
H15_12 C12_12 1_555 1_555
H16_12 C12_12 1_555 1_555
C10_12 N1_12 1_555 1_555
C9_13 H5_13 1_555 1_555
H6_13 C9_13 1_555 1_555
H7_13 C9_13 1_555 1_555
C10_13 H8_13 1_555 1_555
H9_13 C10_13 1_555 1_555
N1_13 C9_13 1_555 1_555
C11_13 N1_13 1_555 1_555
H11_13 C11_13 1_555 1_555
H12_13 C11_13 1_555 1_555
H13_13 C11_13 1_555 1_555
C12_13 N1_13 1_555 1_555
H14_13 C12_13 1_555 1_555
H15_13 C12_13 1_555 1_555
H16_13 C12_13 1_555 1_555
C10_13 N1_13 1_555 1_555
C9_14 H5_14 1_555 1_555
H6_14 C9_14 1_555 1_555
H7_14 C9_14 1_555 1_555
C10_14 H8_14 1_555 1_555
H9_14 C10_14 1_555 1_555
H10_14 C10_14 1_555 1_555
N1_14 C9_14 1_555 1_555
C11_14 N1_14 1_555 1_555
H12_14 C11_14 1_555 1_555
H13_14 C11_14 1_555 1_555
C12_14 N1_14 1_555 1_555
H14_14 C12_14 1_555 1_555
H15_14 C12_14 1_555 1_555
H16_14 C12_14 1_555 1_555
C10_14 N1_14 1_555 1_555
C9_15 H5_15 1_555 1_555
C10_15 H8_15 1_555 1_555
H9_15 C10_15 1_555 1_555
H10_15 C10_15 1_555 1_555
N1_15 C9_15 1_555 1_555
C11_15 N1_15 1_555 1_555
H11_15 C11_15 1_555 1_555
C12_15 N1_15 1_555 1_555
H14_15 C12_15 1_555 1_555
H15_15 C12_15 1_555 1_555
H16_15 C12_15 1_555 1_555
C10_15 N1_15 1_555 1_555
C9_16 H5_16 1_555 1_555
C10_16 H8_16 1_555 1_555
H9_16 C10_16 1_555 1_555
N1_16 C9_16 1_555 1_555
C11_16 N1_16 1_555 1_555
C12_16 N1_16 1_555 1_555
H14_16 C12_16 1_555 1_555
H15_16 C12_16 1_555 1_555
H16_16 C12_16 1_555 1_555
C10_16 N1_16 1_555 1_555

#END
