
###############################################################################
#
# This file contains modified crystal structure data generated from the
# MOF subset of the Cambridge Structural Database (CSD) v543 
# hosted by the Cambridge Crystallographic Data Centre (CCDC).
#
# This work is licensed under the Creative Commons
# Attribution-NonCommercial-ShareAlike 4.0 International License.
# To view a copy of this license, visit
# http://creativecommons.org/licenses/by-nc-sa/4.0/
# or send a letter to
# Creative Commons, PO Box 1866, Mountain View, CA 94042, USA.
#
# CIF created using the CSD Python API on 29 September 2022
# The structure has been converted into the P1 space group
# The structure has a 3D framework
# The original CSD entry TEJBUI is in the rhombohedral crystal system
# The framework has been calculated to contain at least 10.0% void space
# The void calculation uses a probe of radius 1.32A, grid spacing 0.4
# H atom positions have been added when not included in the experimental data
# Generated hydrogen atom positions removed from atoms on special positions
#
###############################################################################

data_TEJBUI
_chemical_formula_moiety         '(C234 H216 Cu18 O90)n'
_symmetry_cell_setting           triclinic
_symmetry_space_group_name_H-M   'P 1'
_symmetry_Int_Tables_number      1
_space_group_name_Hall           'P 1'
loop_
_symmetry_equiv_pos_site_id
_symmetry_equiv_pos_as_xyz
1 x,y,z
_cell_length_a                   18.4973(14)
_cell_length_b                   18.4973(14)
_cell_length_c                   39.459(6)
_cell_angle_alpha                90
_cell_angle_beta                 90
_cell_angle_gamma                120
_cell_volume                     11692.1
loop_
_atom_site_label
_atom_site_type_symbol
_atom_site_fract_x
_atom_site_fract_y
_atom_site_fract_z
Cu1 Cu 0.85720(2) 0.14280(2) 0.139056(19)
O1 O 0.8143(2) 0.0382(2) 0.16336(9)
O2 O 0.7737(2) 0.0770(2) 0.20966(9)
O3 O 0.8941(2) 0.1059(2) 0.09444(17)
C1 C 0.7845(3) 0.0267(3) 0.19225(13)
Cu4 Cu 0.52387(2) 0.04773(3) 0.472389(19)
Cu5 Cu 0.80947(2) 0.19053(2) 0.194277(19)
O12 O 0.9618(2) 0.1857(2) 0.16336(9)
O13 O 0.7437(2) 0.1070(2) 0.12367(9)
O15 O 0.8930(2) 0.2563(2) 0.12367(9)
C2 C 0.7557(3) 0.9433(3) 0.20833(13)
C3 C 0.7756(5) 0.8878(2) 0.19221(18)
H1 H 0.8016 0.9008 0.1711
C4 C 0.7133(3) 0.9205(4) 0.23860(14)
H2 H 0.6994 0.9571 0.2490
C5 C 0.6906(5) 0.8453(3) 0.2541(2)
C6 C 0.6477(5) 0.8239(3) 0.2878(2)
C7 C 0.5618(9) 0.7809(4) 0.2863(3)
H3 H 0.5332 0.7666 0.2658
C8 C 0.6879(5) 0.8439(2) 0.31759(19)
C9 C 0.7744(7) 0.8872(4) 0.3180(3)
H4 H 0.8031 0.9015 0.2975
C10 C 0.8171(10) 0.9086(5) 0.3464(4)
H5 H 0.8751 0.9376 0.3458
O4 O 0.5190(2) 0.8906(3) 0.50331(9)
O5 O 0.5596(2) 0.9700(3) 0.45701(9)
C11 C 0.5488(3) 0.9089(4) 0.47442(13)
C12 C 0.5776(3) 0.8543(4) 0.45834(13)
C13 C 0.5577(5) 0.7789(5) 0.47446(18)
H6 H 0.5317 0.7659 0.4956
C14 C 0.6200(3) 0.8739(5) 0.42807(14)
H7 H 0.6339 0.9244 0.4177
C15 C 0.6427(5) 0.8214(6) 0.4126(2)
C16 C 0.6856(5) 0.8429(6) 0.3789(2)
C17 C 0.7715(9) 0.8858(10) 0.3804(3)
H8 H 0.8001 0.9001 0.4009
C18 C 0.6454(5) 0.8227(5) 0.34908(19)
C19 C 0.5589(7) 0.7795(8) 0.3487(3)
H9 H 0.5302 0.7651 0.3692
C20 C 0.5162(10) 0.7582(11) 0.3203(4)
H10 H 0.4582 0.7292 0.3209
O6 O 0.8143(2) 0.7761(3) 0.16336(9)
O7 O 0.7737(2) 0.6967(3) 0.20966(9)
C21 C 0.7845(3) 0.7578(4) 0.19225(13)
C22 C 0.7557(3) 0.8124(4) 0.20833(13)
C23 C 0.7133(3) 0.7928(5) 0.23860(14)
H11 H 0.6994 0.7423 0.2490
O8 O 0.5190(2) 0.6285(2) 0.50331(9)
O9 O 0.5596(2) 0.5897(2) 0.45701(9)
C24 C 0.5488(3) 0.6400(3) 0.47442(13)
C25 C 0.5776(3) 0.7234(3) 0.45834(13)
C26 C 0.6200(3) 0.7462(4) 0.42807(14)
H12 H 0.6339 0.7096 0.4177
Cu2 Cu 0.85720(2) 0.71440(3) 0.139056(19)
O10 O 0.8941(2) 0.7882(3) 0.09444(17)
Cu3 Cu 0.52387(2) 0.47613(2) 0.472389(19)
Cu6 Cu 0.80947(2) 0.61893(3) 0.194277(19)
Cu7 Cu 0.47613(2) 0.52387(2) 0.527611(19)
Cu8 Cu 0.47613(2) 0.95227(3) 0.527611(19)
O11 O 0.9618(2) 0.7761(3) 0.16336(9)
O14 O 0.8930(2) 0.6366(3) 0.12367(9)
O16 O 0.7437(2) 0.6366(3) 0.12367(9)
O6_2 O 0.2239(3) 0.0382(4) 0.16336(9)
O7_2 O 0.3033(3) 0.0770(4) 0.20966(9)
C21_2 C 0.2422(4) 0.0267(5) 0.19225(13)
Cu2_2 Cu 0.28560(3) 0.14280(4) 0.139056(19)
O10_2 O 0.2118(3) 0.1059(4) 0.09444(17)
Cu6_2 Cu 0.38107(3) 0.19053(4) 0.194277(19)
O11_2 O 0.2239(3) 0.1857(4) 0.16336(9)
O14_2 O 0.3634(3) 0.2563(4) 0.12367(9)
O16_2 O 0.3634(3) 0.1070(4) 0.12367(9)
C2_2 C 0.0567(3) 0.8124(4) 0.20833(13)
C3_2 C 0.1122(2) 0.8878(5) 0.19221(18)
H1_2 H 0.0992 0.9008 0.1711
C4_2 C 0.0795(4) 0.7928(5) 0.23860(14)
H2_2 H 0.0429 0.7423 0.2490
C5_2 C 0.1547(3) 0.8453(6) 0.2541(2)
C6_2 C 0.1761(3) 0.8238(6) 0.2878(2)
C7_2 C 0.2191(4) 0.7809(10) 0.2863(3)
H3_2 H 0.2334 0.7666 0.2658
C8_2 C 0.1561(2) 0.8440(5) 0.31759(19)
C9_2 C 0.1128(4) 0.8872(8) 0.3180(3)
H4_2 H 0.0985 0.9016 0.2975
C10_2 C 0.0914(5) 0.9085(11) 0.3464(4)
H5_2 H 0.0624 0.9375 0.3458
O4_2 O 0.1094(3) 0.6285(4) 0.50331(9)
O5_2 O 0.0300(3) 0.5897(4) 0.45701(9)
C11_2 C 0.0911(4) 0.6400(5) 0.47442(13)
C12_2 C 0.1457(4) 0.7234(5) 0.45834(13)
C13_2 C 0.2211(5) 0.7789(7) 0.47446(18)
H6_2 H 0.2341 0.7659 0.4956
C14_2 C 0.1261(5) 0.7462(6) 0.42807(14)
H7_2 H 0.0756 0.7096 0.4177
C15_2 C 0.1786(6) 0.8214(8) 0.4126(2)
C16_2 C 0.1571(6) 0.8428(8) 0.3789(2)
C17_2 C 0.1142(10) 0.8858(13) 0.3804(3)
H8_2 H 0.0999 0.9001 0.4009
C18_2 C 0.1773(5) 0.8228(7) 0.34908(19)
C19_2 C 0.2205(8) 0.7795(11) 0.3487(3)
H9_2 H 0.2349 0.7652 0.3692
C20_2 C 0.2418(11) 0.7581(15) 0.3203(4)
H10_2 H 0.2708 0.7291 0.3209
C22_2 C 0.1876(4) 0.9433(5) 0.20833(13)
C23_2 C 0.2072(5) 0.9205(6) 0.23860(14)
H11_2 H 0.2577 0.9571 0.2490
O8_2 O 0.3715(2) 0.8906(3) 0.50331(9)
O9_2 O 0.4103(2) 0.9700(3) 0.45701(9)
C24_2 C 0.3600(3) 0.9089(4) 0.47442(13)
C25_2 C 0.2766(3) 0.8543(4) 0.45834(13)
C26_2 C 0.2538(4) 0.8739(5) 0.42807(14)
H12_2 H 0.2904 0.9244 0.4177
Cu8_2 Cu 0.04773(3) 0.52387(4) 0.527611(19)
O2_2 O 0.9230(2) 0.6967(3) 0.20966(9)
C1_2 C 0.9733(3) 0.7578(4) 0.19225(13)
Cu4_2 Cu 0.95227(3) 0.47613(4) 0.472389(19)
O2_3 O 0.3033(3) 0.2263(2) 0.20966(9)
C1_3 C 0.2422(4) 0.2155(3) 0.19225(13)
C2_3 C 0.1876(4) 0.2443(3) 0.20833(13)
C3_3 C 0.1122(5) 0.2244(5) 0.19221(18)
H1_3 H 0.0992 0.1984 0.1711
C4_3 C 0.2072(5) 0.2867(3) 0.23860(14)
H2_3 H 0.2577 0.3006 0.2490
C5_3 C 0.1547(6) 0.3094(5) 0.2541(2)
C6_3 C 0.1762(6) 0.3523(5) 0.2878(2)
C7_3 C 0.2191(10) 0.4382(9) 0.2863(3)
H3_3 H 0.2334 0.4668 0.2658
C8_3 C 0.1560(5) 0.3121(5) 0.31759(19)
C9_3 C 0.1128(8) 0.2256(7) 0.3180(3)
H4_3 H 0.0984 0.1969 0.2975
C10_3 C 0.0915(11) 0.1829(10) 0.3464(4)
H5_3 H 0.0625 0.1249 0.3458
O4_3 O 0.3715(4) 0.4810(2) 0.50331(9)
O5_3 O 0.4103(4) 0.4404(2) 0.45701(9)
C11_3 C 0.3600(5) 0.4512(3) 0.47442(13)
C12_3 C 0.2766(5) 0.4224(3) 0.45834(13)
C13_3 C 0.2211(7) 0.4423(5) 0.47446(18)
H6_3 H 0.2341 0.4683 0.4956
C14_3 C 0.2538(6) 0.3800(3) 0.42807(14)
H7_3 H 0.2904 0.3661 0.4177
C15_3 C 0.1786(8) 0.3573(5) 0.4126(2)
C16_3 C 0.1572(8) 0.3144(5) 0.3789(2)
C17_3 C 0.1142(13) 0.2285(9) 0.3804(3)
H8_3 H 0.0999 0.1999 0.4009
C18_3 C 0.1772(7) 0.3546(5) 0.34908(19)
C19_3 C 0.2205(11) 0.4411(7) 0.3487(3)
H9_3 H 0.2348 0.4698 0.3692
C20_3 C 0.2419(15) 0.4838(10) 0.3203(4)
H10_3 H 0.2709 0.5418 0.3209
C22_3 C 0.0567(5) 0.2443(3) 0.20833(13)
C23_3 C 0.0795(6) 0.2867(3) 0.23860(14)
H11_3 H 0.0429 0.3006 0.2490
O8_3 O 0.1094(3) 0.4810(2) 0.50331(9)
O9_3 O 0.0300(3) 0.4404(2) 0.45701(9)
C24_3 C 0.0911(4) 0.4512(3) 0.47442(13)
C25_3 C 0.1457(4) 0.4224(3) 0.45834(13)
C26_3 C 0.1261(5) 0.3800(3) 0.42807(14)
H12_3 H 0.0756 0.3661 0.4177
O7_3 O 0.9230(4) 0.2263(2) 0.20966(9)
C21_3 C 0.9733(5) 0.2155(3) 0.19225(13)
Cu1_2 Cu 0.14280(2) 0.85720(2) 0.860944(19)
O1_2 O 0.0382(2) 0.8143(2) 0.83664(9)
O2_4 O 0.0770(2) 0.7737(2) 0.79034(9)
O3_2 O 0.1059(2) 0.8941(2) 0.90556(17)
C1_4 C 0.0267(3) 0.7845(3) 0.80775(13)
Cu5_2 Cu 0.19053(2) 0.80947(2) 0.805723(19)
O12_2 O 0.1857(2) 0.9618(2) 0.83664(9)
O13_2 O 0.1070(2) 0.7437(2) 0.87633(9)
O15_2 O 0.2563(2) 0.8930(2) 0.87633(9)
C2_4 C 0.9433(3) 0.7557(3) 0.79167(13)
C3_4 C 0.8878(2) 0.7756(5) 0.80779(18)
H1_4 H 0.9008 0.8016 0.8289
C4_4 C 0.9205(4) 0.7133(3) 0.76140(14)
H2_4 H 0.9571 0.6994 0.7510
C5_4 C 0.8453(3) 0.6906(5) 0.7459(2)
C6_4 C 0.8239(3) 0.6477(5) 0.7122(2)
C7_4 C 0.7809(4) 0.5618(9) 0.7137(3)
H3_4 H 0.7666 0.5332 0.7342
C8_4 C 0.8439(2) 0.6879(5) 0.68241(19)
C9_4 C 0.8872(4) 0.7744(7) 0.6820(3)
H4_4 H 0.9015 0.8031 0.7025
C10_4 C 0.9086(5) 0.8171(10) 0.6536(4)
H5_4 H 0.9376 0.8751 0.6542
O4_4 O 0.8906(3) 0.5190(2) 0.49669(9)
O5_4 O 0.9700(3) 0.5596(2) 0.54299(9)
C11_4 C 0.9089(4) 0.5488(3) 0.52558(13)
C12_4 C 0.8543(4) 0.5776(3) 0.54166(13)
C13_4 C 0.7789(5) 0.5577(5) 0.52554(18)
H6_4 H 0.7659 0.5317 0.5044
C14_4 C 0.8739(5) 0.6200(3) 0.57193(14)
H7_4 H 0.9244 0.6339 0.5823
C15_4 C 0.8214(6) 0.6427(5) 0.5874(2)
C16_4 C 0.8429(6) 0.6856(5) 0.6211(2)
C17_4 C 0.8858(10) 0.7715(9) 0.6196(3)
H8_4 H 0.9001 0.8001 0.5991
C18_4 C 0.8227(5) 0.6454(5) 0.65092(19)
C19_4 C 0.7795(8) 0.5589(7) 0.6513(3)
H9_4 H 0.7651 0.5302 0.6308
C20_4 C 0.7582(11) 0.5162(10) 0.6797(4)
H10_4 H 0.7292 0.4582 0.6791
O6_3 O 0.7761(3) 0.8143(2) 0.83664(9)
O7_4 O 0.6967(3) 0.7737(2) 0.79034(9)
C21_4 C 0.7578(4) 0.7845(3) 0.80775(13)
C22_4 C 0.8124(4) 0.7557(3) 0.79167(13)
C23_4 C 0.7928(5) 0.7133(3) 0.76140(14)
H11_4 H 0.7423 0.6994 0.7510
O8_4 O 0.6285(2) 0.5190(2) 0.49669(9)
O9_4 O 0.5897(2) 0.5596(2) 0.54299(9)
C24_4 C 0.6400(3) 0.5488(3) 0.52558(13)
C25_4 C 0.7234(3) 0.5776(3) 0.54166(13)
C26_4 C 0.7462(4) 0.6200(3) 0.57193(14)
H12_4 H 0.7096 0.6339 0.5823
Cu2_3 Cu 0.71440(3) 0.85720(2) 0.860944(19)
O10_3 O 0.7882(3) 0.8941(2) 0.90556(17)
Cu6_3 Cu 0.61893(3) 0.80947(2) 0.805723(19)
O11_3 O 0.7761(3) 0.9618(2) 0.83664(9)
O14_3 O 0.6366(3) 0.8930(2) 0.87633(9)
O16_3 O 0.6366(3) 0.7437(2) 0.87633(9)
O6_4 O 0.0382(4) 0.2239(3) 0.83664(9)
O7_5 O 0.0770(4) 0.3033(3) 0.79034(9)
C21_5 C 0.0267(5) 0.2422(4) 0.80775(13)
Cu2_4 Cu 0.14280(4) 0.28560(3) 0.860944(19)
O10_4 O 0.1059(4) 0.2118(3) 0.90556(17)
Cu6_4 Cu 0.19053(4) 0.38107(3) 0.805723(19)
O11_4 O 0.1857(4) 0.2239(3) 0.83664(9)
O14_4 O 0.2563(4) 0.3634(3) 0.87633(9)
O16_4 O 0.1070(4) 0.3634(3) 0.87633(9)
C2_5 C 0.8124(4) 0.0567(3) 0.79167(13)
C3_5 C 0.8878(5) 0.1122(2) 0.80779(18)
H1_5 H 0.9008 0.0992 0.8289
C4_5 C 0.7928(5) 0.0795(4) 0.76140(14)
H2_5 H 0.7423 0.0429 0.7510
C5_5 C 0.8453(6) 0.1547(3) 0.7459(2)
C6_5 C 0.8238(6) 0.1761(3) 0.7122(2)
C7_5 C 0.7809(10) 0.2191(4) 0.7137(3)
H3_5 H 0.7666 0.2334 0.7342
C8_5 C 0.8440(5) 0.1561(2) 0.68241(19)
C9_5 C 0.8872(8) 0.1128(4) 0.6820(3)
H4_5 H 0.9016 0.0985 0.7025
C10_5 C 0.9085(11) 0.0914(5) 0.6536(4)
H5_5 H 0.9375 0.0624 0.6542
O4_5 O 0.6285(4) 0.1094(3) 0.49669(9)
O5_5 O 0.5897(4) 0.0300(3) 0.54299(9)
C11_5 C 0.6400(5) 0.0911(4) 0.52558(13)
C12_5 C 0.7234(5) 0.1457(4) 0.54166(13)
C13_5 C 0.7789(7) 0.2211(5) 0.52554(18)
H6_5 H 0.7659 0.2341 0.5044
C14_5 C 0.7462(6) 0.1261(5) 0.57193(14)
H7_5 H 0.7096 0.0756 0.5823
C15_5 C 0.8214(8) 0.1786(6) 0.5874(2)
C16_5 C 0.8428(8) 0.1571(6) 0.6211(2)
C17_5 C 0.8858(13) 0.1142(10) 0.6196(3)
H8_5 H 0.9001 0.0999 0.5991
C18_5 C 0.8228(7) 0.1773(5) 0.65092(19)
C19_5 C 0.7795(11) 0.2205(8) 0.6513(3)
H9_5 H 0.7652 0.2349 0.6308
C20_5 C 0.7581(15) 0.2418(11) 0.6797(4)
H10_5 H 0.7291 0.2708 0.6791
C22_5 C 0.9433(5) 0.1876(4) 0.79167(13)
C23_5 C 0.9205(6) 0.2072(5) 0.76140(14)
H11_5 H 0.9571 0.2577 0.7510
O8_5 O 0.8906(3) 0.3715(2) 0.49669(9)
O9_5 O 0.9700(3) 0.4103(2) 0.54299(9)
C24_5 C 0.9089(4) 0.3600(3) 0.52558(13)
C25_5 C 0.8543(4) 0.2766(3) 0.54166(13)
C26_5 C 0.8739(5) 0.2538(4) 0.57193(14)
H12_5 H 0.9244 0.2904 0.5823
O2_5 O 0.6967(3) 0.9230(2) 0.79034(9)
C1_5 C 0.7578(4) 0.9733(3) 0.80775(13)
O2_6 O 0.2263(2) 0.3033(3) 0.79034(9)
C1_6 C 0.2155(3) 0.2422(4) 0.80775(13)
C2_6 C 0.2443(3) 0.1876(4) 0.79167(13)
C3_6 C 0.2244(5) 0.1122(5) 0.80779(18)
H1_6 H 0.1984 0.0992 0.8289
C4_6 C 0.2867(3) 0.2072(5) 0.76140(14)
H2_6 H 0.3006 0.2577 0.7510
C5_6 C 0.3094(5) 0.1547(6) 0.7459(2)
C6_6 C 0.3523(5) 0.1762(6) 0.7122(2)
C7_6 C 0.4382(9) 0.2191(10) 0.7137(3)
H3_6 H 0.4668 0.2334 0.7342
C8_6 C 0.3121(5) 0.1560(5) 0.68241(19)
C9_6 C 0.2256(7) 0.1128(8) 0.6820(3)
H4_6 H 0.1969 0.0984 0.7025
C10_6 C 0.1829(10) 0.0915(11) 0.6536(4)
H5_6 H 0.1249 0.0625 0.6542
O4_6 O 0.4810(2) 0.3715(4) 0.49669(9)
O5_6 O 0.4404(2) 0.4103(4) 0.54299(9)
C11_6 C 0.4512(3) 0.3600(5) 0.52558(13)
C12_6 C 0.4224(3) 0.2766(5) 0.54166(13)
C13_6 C 0.4423(5) 0.2211(7) 0.52554(18)
H6_6 H 0.4683 0.2341 0.5044
C14_6 C 0.3800(3) 0.2538(6) 0.57193(14)
H7_6 H 0.3661 0.2904 0.5823
C15_6 C 0.3573(5) 0.1786(8) 0.5874(2)
C16_6 C 0.3144(5) 0.1572(8) 0.6211(2)
C17_6 C 0.2285(9) 0.1142(13) 0.6196(3)
H8_6 H 0.1999 0.0999 0.5991
C18_6 C 0.3546(5) 0.1772(7) 0.65092(19)
C19_6 C 0.4411(7) 0.2205(11) 0.6513(3)
H9_6 H 0.4698 0.2348 0.6308
C20_6 C 0.4838(10) 0.2419(15) 0.6797(4)
H10_6 H 0.5418 0.2709 0.6791
C22_6 C 0.2443(3) 0.0567(5) 0.79167(13)
C23_6 C 0.2867(3) 0.0795(6) 0.76140(14)
H11_6 H 0.3006 0.0429 0.7510
O8_6 O 0.4810(2) 0.1094(3) 0.49669(9)
O9_6 O 0.4404(2) 0.0300(3) 0.54299(9)
C24_6 C 0.4512(3) 0.0911(4) 0.52558(13)
C25_6 C 0.4224(3) 0.1457(4) 0.54166(13)
C26_6 C 0.3800(3) 0.1261(5) 0.57193(14)
H12_6 H 0.3661 0.0756 0.5823
O7_6 O 0.2263(2) 0.9230(4) 0.79034(9)
C21_6 C 0.2155(3) 0.9733(5) 0.80775(13)
O3_3 O 0.5608(2) 0.4392(2) 0.42777(17)
O10_5 O 0.5608(2) 0.1215(3) 0.42777(17)
O10_6 O 0.8785(3) 0.4392(4) 0.42777(17)
O1_3 O 0.7049(2) 0.1476(2) 0.16997(9)
O3_4 O 0.7726(2) 0.2274(2) 0.23889(17)
C1_7 C 0.6934(3) 0.1178(3) 0.14108(13)
C2_7 C 0.6100(3) 0.0890(3) 0.12500(13)
C3_7 C 0.5545(2) 0.1089(5) 0.14112(18)
H1_7 H 0.5675 0.1349 0.1622
C4_7 C 0.5872(4) 0.0466(3) 0.09473(14)
H2_7 H 0.6238 0.0327 0.0843
C5_7 C 0.5120(3) 0.0239(5) 0.0792(2)
C8_7 C 0.5106(2) 0.0212(5) 0.01574(19)
C9_7 C 0.5539(4) 0.1077(7) 0.0153(3)
H4_7 H 0.5682 0.1364 0.0358
O6_5 O 0.4428(3) 0.1476(2) 0.16997(9)
C21_7 C 0.4245(4) 0.1178(3) 0.14108(13)
C22_7 C 0.4791(4) 0.0890(3) 0.12500(13)
C23_7 C 0.4595(5) 0.0466(3) 0.09473(14)
H11_7 H 0.4090 0.0327 0.0843
O10_7 O 0.4549(3) 0.2274(2) 0.23889(17)
O11_5 O 0.4428(3) 0.2951(2) 0.16997(9)
O12_3 O 0.8524(2) 0.2951(2) 0.16997(9)
O4_7 O 0.5572(3) 0.8524(2) 0.83003(9)
C11_7 C 0.5755(4) 0.8822(3) 0.85892(13)
C12_7 C 0.5209(4) 0.9110(3) 0.87500(13)
C13_7 C 0.4455(5) 0.8911(5) 0.85888(18)
H6_7 H 0.4325 0.8651 0.8378
C14_7 C 0.5405(5) 0.9534(3) 0.90527(14)
H7_7 H 0.5910 0.9673 0.9157
C15_7 C 0.4880(6) 0.9761(5) 0.9208(2)
C18_7 C 0.4893(5) 0.9788(5) 0.98426(19)
C19_7 C 0.4461(8) 0.8923(7) 0.9847(3)
H9_7 H 0.4317 0.8636 0.9642
O8_7 O 0.2951(2) 0.8524(2) 0.83003(9)
C24_7 C 0.3066(3) 0.8822(3) 0.85892(13)
C25_7 C 0.3900(3) 0.9110(3) 0.87500(13)
C26_7 C 0.4128(4) 0.9534(3) 0.90527(14)
H12_7 H 0.3762 0.9673 0.9157
C1_8 C 0.4245(4) 0.3066(3) 0.14108(13)
C2_8 C 0.4791(4) 0.3900(3) 0.12500(13)
C3_8 C 0.5545(5) 0.4455(2) 0.14112(18)
H1_8 H 0.5675 0.4325 0.1622
C4_8 C 0.4595(5) 0.4128(4) 0.09473(14)
H2_8 H 0.4090 0.3762 0.0843
C5_8 C 0.5120(6) 0.4880(3) 0.0792(2)
C6_7 C 0.4905(6) 0.5094(3) 0.0455(2)
C7_7 C 0.4476(10) 0.5524(4) 0.0470(3)
H3_7 H 0.4333 0.5667 0.0675
C8_8 C 0.5107(5) 0.4894(2) 0.01574(19)
C9_8 C 0.5539(8) 0.4461(4) 0.0153(3)
H4_8 H 0.5683 0.4318 0.0358
C20_7 C 0.4247(15) 0.5752(11) 0.0131(4)
H10_7 H 0.3957 0.6042 0.0125
O6_6 O 0.7049(4) 0.5572(3) 0.16997(9)
C21_8 C 0.6934(5) 0.5755(4) 0.14108(13)
C22_8 C 0.6100(5) 0.5209(4) 0.12500(13)
C23_8 C 0.5872(6) 0.5405(5) 0.09473(14)
H11_8 H 0.6238 0.5910 0.0843
O10_8 O 0.7726(4) 0.5451(3) 0.23889(17)
O11_6 O 0.8524(4) 0.5572(3) 0.16997(9)
C10_7 C 0.5752(11) 0.4247(5) 0.9869(4)
H5_7 H 0.6042 0.3957 0.9875
O4_8 O 0.2951(4) 0.4428(3) 0.83003(9)
C11_8 C 0.3066(5) 0.4245(4) 0.85892(13)
C12_8 C 0.3900(5) 0.4791(4) 0.87500(13)
C13_8 C 0.4455(7) 0.5545(5) 0.85888(18)
H6_8 H 0.4325 0.5675 0.8378
C14_8 C 0.4128(6) 0.4595(5) 0.90527(14)
H7_8 H 0.3762 0.4090 0.9157
C15_8 C 0.4880(8) 0.5120(6) 0.9208(2)
C16_7 C 0.5094(8) 0.4905(6) 0.9545(2)
C17_7 C 0.5524(13) 0.4476(10) 0.9530(3)
H8_7 H 0.5667 0.4333 0.9325
C18_8 C 0.4894(7) 0.5107(5) 0.98426(19)
C19_8 C 0.4461(11) 0.5539(8) 0.9847(3)
H9_8 H 0.4318 0.5683 0.9642
O8_8 O 0.5572(3) 0.7049(2) 0.83003(9)
C24_8 C 0.5755(4) 0.6934(3) 0.85892(13)
C25_8 C 0.5209(4) 0.6100(3) 0.87500(13)
C26_8 C 0.5405(5) 0.5872(4) 0.90527(14)
H12_8 H 0.5910 0.6238 0.9157
O4_9 O 0.1476(2) 0.7049(4) 0.83003(9)
C11_9 C 0.1178(3) 0.6934(5) 0.85892(13)
C12_9 C 0.0890(3) 0.6100(5) 0.87500(13)
C13_9 C 0.1089(5) 0.5545(7) 0.85888(18)
H6_9 H 0.1349 0.5675 0.8378
C14_9 C 0.0466(3) 0.5872(6) 0.90527(14)
H7_9 H 0.0327 0.6238 0.9157
C15_9 C 0.0239(5) 0.5120(8) 0.9208(2)
C18_9 C 0.0212(5) 0.5106(7) 0.98426(19)
C19_9 C 0.1077(7) 0.5539(11) 0.9847(3)
H9_9 H 0.1364 0.5682 0.9642
O8_9 O 0.1476(2) 0.4428(3) 0.83003(9)
C24_9 C 0.1178(3) 0.4245(4) 0.85892(13)
C25_9 C 0.0890(3) 0.4791(4) 0.87500(13)
C26_9 C 0.0466(3) 0.4595(5) 0.90527(14)
H12_9 H 0.0327 0.4090 0.9157
C1_9 C 0.8822(3) 0.5755(4) 0.14108(13)
C2_9 C 0.9110(3) 0.5209(4) 0.12500(13)
C3_9 C 0.8911(5) 0.4455(5) 0.14112(18)
H1_9 H 0.8651 0.4325 0.1622
C4_9 C 0.9534(3) 0.5405(5) 0.09473(14)
H2_9 H 0.9673 0.5910 0.0843
C5_9 C 0.9761(5) 0.4880(6) 0.0792(2)
C8_9 C 0.9788(5) 0.4893(5) 0.01574(19)
C9_9 C 0.8923(7) 0.4461(8) 0.0153(3)
H4_9 H 0.8636 0.4317 0.0358
C21_9 C 0.8822(3) 0.3066(5) 0.14108(13)
C22_9 C 0.9110(3) 0.3900(5) 0.12500(13)
C23_9 C 0.9534(3) 0.4128(6) 0.09473(14)
H11_9 H 0.9673 0.3762 0.0843
O3_5 O 0.2274(2) 0.7726(2) 0.76111(17)
O10_9 O 0.2274(2) 0.4549(3) 0.76111(17)
O10_10 O 0.5451(3) 0.7726(4) 0.76111(17)
O3_6 O 0.4392(2) 0.5608(2) 0.57223(17)
O10_11 O 0.1215(3) 0.5608(2) 0.57223(17)
O10_12 O 0.4392(4) 0.8785(3) 0.57223(17)
C10_8 C 0.5753(5) 0.1504(10) 0.9869(4)
H5_8 H 0.6043 0.2084 0.9875
C16_8 C 0.5095(6) 0.0190(5) 0.9545(2)
C17_8 C 0.5524(10) 0.1049(9) 0.9530(3)
H8_8 H 0.5667 0.1335 0.9325
C6_8 C 0.4906(3) 0.9810(5) 0.0455(2)
C7_8 C 0.4476(4) 0.8951(9) 0.0470(3)
H3_8 H 0.4333 0.8665 0.0675
C20_8 C 0.4248(11) 0.8496(10) 0.0131(4)
H10_8 H 0.3958 0.7916 0.0125
C6_9 C 0.0190(5) 0.5095(6) 0.0455(2)
C7_9 C 0.1049(9) 0.5524(10) 0.0470(3)
H3_9 H 0.1335 0.5667 0.0675
C20_9 C 0.1504(10) 0.5753(15) 0.0131(4)
H10_9 H 0.2084 0.6043 0.0125
C10_9 C 0.8496(10) 0.4248(11) 0.9869(4)
H5_9 H 0.7916 0.3958 0.9875
C16_9 C 0.9810(5) 0.4906(8) 0.9545(2)
C17_9 C 0.8951(9) 0.4476(13) 0.9530(3)
H8_9 H 0.8665 0.4333 0.9325
loop_
_geom_bond_atom_site_label_1
_geom_bond_atom_site_label_2
_geom_bond_site_symmetry_1
_geom_bond_site_symmetry_2
Cu1 O1 1_555 1_555
O1 C1 1_555 1_555
O2 C1 1_555 1_555
O3 Cu1 1_555 1_555
Cu5 O2 1_555 1_555
O12 Cu1 1_555 1_555
O13 Cu1 1_555 1_555
O15 Cu1 1_555 1_555
C2 C3 1_555 1_555
C3 H1 1_555 1_555
C4 C2 1_555 1_555
H2 C4 1_555 1_555
C5 C4 1_555 1_555
C6 C5 1_555 1_555
C7 C6 1_555 1_555
H3 C7 1_555 1_555
C8 C6 1_555 1_555
C9 C8 1_555 1_555
H4 C9 1_555 1_555
C10 C9 1_555 1_555
H5 C10 1_555 1_555
O4 C11 1_555 1_555
O5 C11 1_555 1_555
C11 C12 1_555 1_555
C12 C13 1_555 1_555
C13 H6 1_555 1_555
C14 C12 1_555 1_555
H7 C14 1_555 1_555
C15 C14 1_555 1_555
C16 C15 1_555 1_555
C17 C10 1_555 1_555
H8 C17 1_555 1_555
C18 C8 1_555 1_555
C19 C18 1_555 1_555
H9 C19 1_555 1_555
C20 C7 1_555 1_555
H10 C20 1_555 1_555
O6 C21 1_555 1_555
O7 C21 1_555 1_555
C21 C22 1_555 1_555
C22 C3 1_555 1_555
C23 C5 1_555 1_555
H11 C23 1_555 1_555
O8 C24 1_555 1_555
O9 C24 1_555 1_555
C24 C25 1_555 1_555
C25 C13 1_555 1_555
C26 C15 1_555 1_555
H12 C26 1_555 1_555
Cu2 O6 1_555 1_555
O10 Cu2 1_555 1_555
Cu3 O9 1_555 1_555
Cu6 O7 1_555 1_555
Cu7 O8 1_555 1_555
Cu8 O4 1_555 1_555
O11 Cu2 1_555 1_555
O14 Cu2 1_555 1_555
O16 Cu2 1_555 1_555
C16 C17 1_555 1_555
C16 C18 1_555 1_555
C19 C20 1_555 1_555
C22 C23 1_555 1_555
C25 C26 1_555 1_555
O6_2 C21_2 1_555 1_555
O7_2 C21_2 1_555 1_555
Cu2_2 O6_2 1_555 1_555
O10_2 Cu2_2 1_555 1_555
Cu6_2 O7_2 1_555 1_555
O11_2 Cu2_2 1_555 1_555
O14_2 Cu2_2 1_555 1_555
O16_2 Cu2_2 1_555 1_555
C2_2 C3_2 1_555 1_555
C3_2 H1_2 1_555 1_555
C4_2 C2_2 1_555 1_555
H2_2 C4_2 1_555 1_555
C5_2 C4_2 1_555 1_555
C6_2 C5_2 1_555 1_555
C7_2 C6_2 1_555 1_555
H3_2 C7_2 1_555 1_555
C8_2 C6_2 1_555 1_555
C9_2 C8_2 1_555 1_555
H4_2 C9_2 1_555 1_555
C10_2 C9_2 1_555 1_555
H5_2 C10_2 1_555 1_555
O4_2 C11_2 1_555 1_555
O5_2 C11_2 1_555 1_555
C11_2 C12_2 1_555 1_555
C12_2 C13_2 1_555 1_555
C13_2 H6_2 1_555 1_555
C14_2 C12_2 1_555 1_555
H7_2 C14_2 1_555 1_555
C15_2 C14_2 1_555 1_555
C16_2 C15_2 1_555 1_555
C17_2 C10_2 1_555 1_555
H8_2 C17_2 1_555 1_555
C18_2 C8_2 1_555 1_555
C19_2 C18_2 1_555 1_555
H9_2 C19_2 1_555 1_555
C20_2 C7_2 1_555 1_555
H10_2 C20_2 1_555 1_555
C22_2 C3_2 1_555 1_555
C23_2 C5_2 1_555 1_555
H11_2 C23_2 1_555 1_555
O8_2 C24_2 1_555 1_555
O9_2 C24_2 1_555 1_555
C24_2 C25_2 1_555 1_555
C25_2 C13_2 1_555 1_555
C26_2 C15_2 1_555 1_555
H12_2 C26_2 1_555 1_555
Cu8 O8_2 1_555 1_555
Cu8_2 O4_2 1_555 1_555
C16_2 C17_2 1_555 1_555
C16_2 C18_2 1_555 1_555
C19_2 C20_2 1_555 1_555
C22_2 C23_2 1_555 1_555
C25_2 C26_2 1_555 1_555
O11 C1_2 1_555 1_555
O2_2 C1_2 1_555 1_555
Cu6 O2_2 1_555 1_555
O11_2 C1_3 1_555 1_555
O2_3 C1_3 1_555 1_555
C1_3 C2_3 1_555 1_555
C2_3 C3_3 1_555 1_555
C3_3 H1_3 1_555 1_555
C4_3 C2_3 1_555 1_555
H2_3 C4_3 1_555 1_555
C5_3 C4_3 1_555 1_555
C6_3 C5_3 1_555 1_555
C7_3 C6_3 1_555 1_555
H3_3 C7_3 1_555 1_555
C8_3 C6_3 1_555 1_555
C9_3 C8_3 1_555 1_555
H4_3 C9_3 1_555 1_555
C10_3 C9_3 1_555 1_555
H5_3 C10_3 1_555 1_555
O4_3 C11_3 1_555 1_555
O5_3 C11_3 1_555 1_555
C11_3 C12_3 1_555 1_555
C12_3 C13_3 1_555 1_555
C13_3 H6_3 1_555 1_555
C14_3 C12_3 1_555 1_555
H7_3 C14_3 1_555 1_555
C15_3 C14_3 1_555 1_555
C16_3 C15_3 1_555 1_555
C17_3 C10_3 1_555 1_555
H8_3 C17_3 1_555 1_555
C18_3 C8_3 1_555 1_555
C19_3 C18_3 1_555 1_555
H9_3 C19_3 1_555 1_555
C20_3 C7_3 1_555 1_555
H10_3 C20_3 1_555 1_555
C22_3 C3_3 1_555 1_555
C23_3 C5_3 1_555 1_555
H11_3 C23_3 1_555 1_555
O8_3 C24_3 1_555 1_555
O9_3 C24_3 1_555 1_555
C24_3 C25_3 1_555 1_555
C25_3 C13_3 1_555 1_555
C26_3 C15_3 1_555 1_555
H12_3 C26_3 1_555 1_555
Cu3 O5_3 1_555 1_555
Cu6_2 O2_3 1_555 1_555
Cu8_2 O8_3 1_555 1_555
Cu7 O4_3 1_555 1_555
C16_3 C17_3 1_555 1_555
C16_3 C18_3 1_555 1_555
C19_3 C20_3 1_555 1_555
C22_3 C23_3 1_555 1_555
C25_3 C26_3 1_555 1_555
O12 C21_3 1_555 1_555
O7_3 C21_3 1_555 1_555
Cu5 O7_3 1_555 1_555
Cu1_2 O1_2 1_555 1_555
O1_2 C1_4 1_555 1_555
O2_4 C1_4 1_555 1_555
O3_2 Cu1_2 1_555 1_555
Cu5_2 O2_4 1_555 1_555
O12_2 Cu1_2 1_555 1_555
O13_2 Cu1_2 1_555 1_555
O15_2 Cu1_2 1_555 1_555
C2_4 C3_4 1_555 1_555
C3_4 H1_4 1_555 1_555
C4_4 C2_4 1_555 1_555
H2_4 C4_4 1_555 1_555
C5_4 C4_4 1_555 1_555
C6_4 C5_4 1_555 1_555
C7_4 C6_4 1_555 1_555
H3_4 C7_4 1_555 1_555
C8_4 C6_4 1_555 1_555
C9_4 C8_4 1_555 1_555
H4_4 C9_4 1_555 1_555
C10_4 C9_4 1_555 1_555
H5_4 C10_4 1_555 1_555
O4_4 C11_4 1_555 1_555
O5_4 C11_4 1_555 1_555
C11_4 C12_4 1_555 1_555
C12_4 C13_4 1_555 1_555
C13_4 H6_4 1_555 1_555
C14_4 C12_4 1_555 1_555
H7_4 C14_4 1_555 1_555
C15_4 C14_4 1_555 1_555
C16_4 C15_4 1_555 1_555
C17_4 C10_4 1_555 1_555
H8_4 C17_4 1_555 1_555
C18_4 C8_4 1_555 1_555
C19_4 C18_4 1_555 1_555
H9_4 C19_4 1_555 1_555
C20_4 C7_4 1_555 1_555
H10_4 C20_4 1_555 1_555
O6_3 C21_4 1_555 1_555
O7_4 C21_4 1_555 1_555
C21_4 C22_4 1_555 1_555
C22_4 C3_4 1_555 1_555
C23_4 C5_4 1_555 1_555
H11_4 C23_4 1_555 1_555
O8_4 C24_4 1_555 1_555
O9_4 C24_4 1_555 1_555
C24_4 C25_4 1_555 1_555
C25_4 C13_4 1_555 1_555
C26_4 C15_4 1_555 1_555
H12_4 C26_4 1_555 1_555
Cu2_3 O6_3 1_555 1_555
O10_3 Cu2_3 1_555 1_555
Cu7 O9_4 1_555 1_555
Cu6_3 O7_4 1_555 1_555
Cu3 O8_4 1_555 1_555
Cu4_2 O4_4 1_555 1_555
O11_3 Cu2_3 1_555 1_555
O14_3 Cu2_3 1_555 1_555
O16_3 Cu2_3 1_555 1_555
C16_4 C17_4 1_555 1_555
C16_4 C18_4 1_555 1_555
C19_4 C20_4 1_555 1_555
C22_4 C23_4 1_555 1_555
C25_4 C26_4 1_555 1_555
O6_4 C21_5 1_555 1_555
O7_5 C21_5 1_555 1_555
Cu2_4 O6_4 1_555 1_555
O10_4 Cu2_4 1_555 1_555
Cu6_4 O7_5 1_555 1_555
O11_4 Cu2_4 1_555 1_555
O14_4 Cu2_4 1_555 1_555
O16_4 Cu2_4 1_555 1_555
C2_5 C3_5 1_555 1_555
C3_5 H1_5 1_555 1_555
C4_5 C2_5 1_555 1_555
H2_5 C4_5 1_555 1_555
C5_5 C4_5 1_555 1_555
C6_5 C5_5 1_555 1_555
C7_5 C6_5 1_555 1_555
H3_5 C7_5 1_555 1_555
C8_5 C6_5 1_555 1_555
C9_5 C8_5 1_555 1_555
H4_5 C9_5 1_555 1_555
C10_5 C9_5 1_555 1_555
H5_5 C10_5 1_555 1_555
O4_5 C11_5 1_555 1_555
O5_5 C11_5 1_555 1_555
C11_5 C12_5 1_555 1_555
C12_5 C13_5 1_555 1_555
C13_5 H6_5 1_555 1_555
C14_5 C12_5 1_555 1_555
H7_5 C14_5 1_555 1_555
C15_5 C14_5 1_555 1_555
C16_5 C15_5 1_555 1_555
C17_5 C10_5 1_555 1_555
H8_5 C17_5 1_555 1_555
C18_5 C8_5 1_555 1_555
C19_5 C18_5 1_555 1_555
H9_5 C19_5 1_555 1_555
C20_5 C7_5 1_555 1_555
H10_5 C20_5 1_555 1_555
C22_5 C3_5 1_555 1_555
C23_5 C5_5 1_555 1_555
H11_5 C23_5 1_555 1_555
O8_5 C24_5 1_555 1_555
O9_5 C24_5 1_555 1_555
C24_5 C25_5 1_555 1_555
C25_5 C13_5 1_555 1_555
C26_5 C15_5 1_555 1_555
H12_5 C26_5 1_555 1_555
Cu4_2 O8_5 1_555 1_555
Cu4 O4_5 1_555 1_555
C16_5 C17_5 1_555 1_555
C16_5 C18_5 1_555 1_555
C19_5 C20_5 1_555 1_555
C22_5 C23_5 1_555 1_555
C25_5 C26_5 1_555 1_555
O11_3 C1_5 1_555 1_555
O2_5 C1_5 1_555 1_555
Cu6_3 O2_5 1_555 1_555
O11_4 C1_6 1_555 1_555
O2_6 C1_6 1_555 1_555
C1_6 C2_6 1_555 1_555
C2_6 C3_6 1_555 1_555
C3_6 H1_6 1_555 1_555
C4_6 C2_6 1_555 1_555
H2_6 C4_6 1_555 1_555
C5_6 C4_6 1_555 1_555
C6_6 C5_6 1_555 1_555
C7_6 C6_6 1_555 1_555
H3_6 C7_6 1_555 1_555
C8_6 C6_6 1_555 1_555
C9_6 C8_6 1_555 1_555
H4_6 C9_6 1_555 1_555
C10_6 C9_6 1_555 1_555
H5_6 C10_6 1_555 1_555
O4_6 C11_6 1_555 1_555
O5_6 C11_6 1_555 1_555
C11_6 C12_6 1_555 1_555
C12_6 C13_6 1_555 1_555
C13_6 H6_6 1_555 1_555
C14_6 C12_6 1_555 1_555
H7_6 C14_6 1_555 1_555
C15_6 C14_6 1_555 1_555
C16_6 C15_6 1_555 1_555
C17_6 C10_6 1_555 1_555
H8_6 C17_6 1_555 1_555
C18_6 C8_6 1_555 1_555
C19_6 C18_6 1_555 1_555
H9_6 C19_6 1_555 1_555
C20_6 C7_6 1_555 1_555
H10_6 C20_6 1_555 1_555
C22_6 C3_6 1_555 1_555
C23_6 C5_6 1_555 1_555
H11_6 C23_6 1_555 1_555
O8_6 C24_6 1_555 1_555
O9_6 C24_6 1_555 1_555
C24_6 C25_6 1_555 1_555
C25_6 C13_6 1_555 1_555
C26_6 C15_6 1_555 1_555
H12_6 C26_6 1_555 1_555
Cu7 O5_6 1_555 1_555
Cu6_4 O2_6 1_555 1_555
Cu4 O8_6 1_555 1_555
Cu3 O4_6 1_555 1_555
C16_6 C17_6 1_555 1_555
C16_6 C18_6 1_555 1_555
C19_6 C20_6 1_555 1_555
C22_6 C23_6 1_555 1_555
C25_6 C26_6 1_555 1_555
O12_2 C21_6 1_555 1_555
O7_6 C21_6 1_555 1_555
Cu5_2 O7_6 1_555 1_555
O3_3 Cu3 1_555 1_555
O10_5 Cu4 1_555 1_555
O10_6 Cu4_2 1_555 1_555
Cu5 O1_3 1_555 1_555
O1_3 C1_7 1_555 1_555
O13 C1_7 1_555 1_555
O3_4 Cu5 1_555 1_555
C1_7 C2_7 1_555 1_555
C2_7 C3_7 1_555 1_555
C3_7 H1_7 1_555 1_555
C4_7 C2_7 1_555 1_555
H2_7 C4_7 1_555 1_555
C5_7 C4_7 1_555 1_555
C9_7 C8_7 1_555 1_555
H4_7 C9_7 1_555 1_555
O6_5 C21_7 1_555 1_555
O16_2 C21_7 1_555 1_555
C21_7 C22_7 1_555 1_555
C22_7 C3_7 1_555 1_555
C23_7 C5_7 1_555 1_555
H11_7 C23_7 1_555 1_555
Cu6_2 O6_5 1_555 1_555
O10_7 Cu6_2 1_555 1_555
O11_5 Cu6_2 1_555 1_555
O12_3 Cu5 1_555 1_555
C22_7 C23_7 1_555 1_555
O4_7 C11_7 1_555 1_555
O14_3 C11_7 1_555 1_555
C11_7 C12_7 1_555 1_555
C12_7 C13_7 1_555 1_555
C13_7 H6_7 1_555 1_555
C14_7 C12_7 1_555 1_555
H7_7 C14_7 1_555 1_555
C15_7 C14_7 1_555 1_555
C19_7 C18_7 1_555 1_555
H9_7 C19_7 1_555 1_555
O8_7 C24_7 1_555 1_555
O15_2 C24_7 1_555 1_555
C24_7 C25_7 1_555 1_555
C25_7 C13_7 1_555 1_555
C26_7 C15_7 1_555 1_555
H12_7 C26_7 1_555 1_555
Cu5_2 O8_7 1_555 1_555
Cu6_3 O4_7 1_555 1_555
C25_7 C26_7 1_555 1_555
O11_5 C1_8 1_555 1_555
O14_2 C1_8 1_555 1_555
C1_8 C2_8 1_555 1_555
C2_8 C3_8 1_555 1_555
C3_8 H1_8 1_555 1_555
C4_8 C2_8 1_555 1_555
H2_8 C4_8 1_555 1_555
C5_8 C4_8 1_555 1_555
C6_7 C5_8 1_555 1_555
C7_7 C6_7 1_555 1_555
H3_7 C7_7 1_555 1_555
C8_8 C6_7 1_555 1_555
C9_8 C8_8 1_555 1_555
H4_8 C9_8 1_555 1_555
C20_7 C7_7 1_555 1_555
H10_7 C20_7 1_555 1_555
O6_6 C21_8 1_555 1_555
O16 C21_8 1_555 1_555
C21_8 C22_8 1_555 1_555
C22_8 C3_8 1_555 1_555
C23_8 C5_8 1_555 1_555
H11_8 C23_8 1_555 1_555
Cu6 O6_6 1_555 1_555
O10_8 Cu6 1_555 1_555
O11_6 Cu6 1_555 1_555
C22_8 C23_8 1_555 1_555
H5_7 C10_7 1_555 1_555
O4_8 C11_8 1_555 1_555
O14_4 C11_8 1_555 1_555
C11_8 C12_8 1_555 1_555
C12_8 C13_8 1_555 1_555
C13_8 H6_8 1_555 1_555
C14_8 C12_8 1_555 1_555
H7_8 C14_8 1_555 1_555
C15_8 C14_8 1_555 1_555
C16_7 C15_8 1_555 1_555
C17_7 C10_7 1_555 1_555
H8_7 C17_7 1_555 1_555
C19_8 C18_8 1_555 1_555
H9_8 C19_8 1_555 1_555
O8_8 C24_8 1_555 1_555
O16_3 C24_8 1_555 1_555
C24_8 C25_8 1_555 1_555
C25_8 C13_8 1_555 1_555
C26_8 C15_8 1_555 1_555
H12_8 C26_8 1_555 1_555
Cu6_3 O8_8 1_555 1_555
Cu6_4 O4_8 1_555 1_555
C16_7 C17_7 1_555 1_555
C16_7 C18_8 1_555 1_555
C25_8 C26_8 1_555 1_555
O4_9 C11_9 1_555 1_555
O13_2 C11_9 1_555 1_555
C11_9 C12_9 1_555 1_555
C12_9 C13_9 1_555 1_555
C13_9 H6_9 1_555 1_555
C14_9 C12_9 1_555 1_555
H7_9 C14_9 1_555 1_555
C15_9 C14_9 1_555 1_555
C19_9 C18_9 1_555 1_555
H9_9 C19_9 1_555 1_555
O8_9 C24_9 1_555 1_555
O16_4 C24_9 1_555 1_555
C24_9 C25_9 1_555 1_555
C25_9 C13_9 1_555 1_555
C26_9 C15_9 1_555 1_555
H12_9 C26_9 1_555 1_555
Cu6_4 O8_9 1_555 1_555
Cu5_2 O4_9 1_555 1_555
C25_9 C26_9 1_555 1_555
O11_6 C1_9 1_555 1_555
O14 C1_9 1_555 1_555
C1_9 C2_9 1_555 1_555
C2_9 C3_9 1_555 1_555
C3_9 H1_9 1_555 1_555
C4_9 C2_9 1_555 1_555
H2_9 C4_9 1_555 1_555
C5_9 C4_9 1_555 1_555
C9_9 C8_9 1_555 1_555
H4_9 C9_9 1_555 1_555
O12_3 C21_9 1_555 1_555
O15 C21_9 1_555 1_555
C21_9 C22_9 1_555 1_555
C22_9 C3_9 1_555 1_555
C23_9 C5_9 1_555 1_555
H11_9 C23_9 1_555 1_555
C22_9 C23_9 1_555 1_555
O3_5 Cu5_2 1_555 1_555
O10_9 Cu6_4 1_555 1_555
O10_10 Cu6_3 1_555 1_555
O3_6 Cu7 1_555 1_555
O10_11 Cu8_2 1_555 1_555
O10_12 Cu8 1_555 1_555
H5_8 C10_8 1_555 1_555
C17_8 C10_8 1_555 1_555
H8_8 C17_8 1_555 1_555
C16_8 C17_8 1_555 1_555
C7_8 C6_8 1_555 1_555
H3_8 C7_8 1_555 1_555
C20_8 C7_8 1_555 1_555
H10_8 C20_8 1_555 1_555
C7_9 C6_9 1_555 1_555
H3_9 C7_9 1_555 1_555
C20_9 C7_9 1_555 1_555
H10_9 C20_9 1_555 1_555
H5_9 C10_9 1_555 1_555
C17_9 C10_9 1_555 1_555
H8_9 C17_9 1_555 1_555
C16_9 C17_9 1_555 1_555

#END
