
###############################################################################
#
# This file contains modified crystal structure data generated from the
# MOF subset of the Cambridge Structural Database (CSD) v543 
# hosted by the Cambridge Crystallographic Data Centre (CCDC).
#
# This work is licensed under the Creative Commons
# Attribution-NonCommercial-ShareAlike 4.0 International License.
# To view a copy of this license, visit
# http://creativecommons.org/licenses/by-nc-sa/4.0/
# or send a letter to
# Creative Commons, PO Box 1866, Mountain View, CA 94042, USA.
#
# CIF created using the CSD Python API on 29 September 2022
# The structure has been converted into the P1 space group
# The structure has a 3D framework
# The original CSD entry TEJGEW is in the monoclinic crystal system
# The framework has been calculated to contain at least 10.0% void space
# The void calculation uses a probe of radius 1.32A, grid spacing 0.4
# H atom positions have been added when not included in the experimental data
#
###############################################################################

data_TEJGEW
_chemical_formula_moiety         '(C56 H56 Gd8 N16 O54)n'
_symmetry_cell_setting           triclinic
_symmetry_space_group_name_H-M   'P 1'
_symmetry_Int_Tables_number      1
_space_group_name_Hall           'P 1'
loop_
_symmetry_equiv_pos_site_id
_symmetry_equiv_pos_as_xyz
1 x,y,z
_cell_length_a                   10.2288(3)
_cell_length_b                   11.2962(4)
_cell_length_c                   23.3343(8)
_cell_angle_alpha                90
_cell_angle_beta                 108.721(2)
_cell_angle_gamma                90
_cell_volume                     2553.55
loop_
_atom_site_label
_atom_site_type_symbol
_atom_site_fract_x
_atom_site_fract_y
_atom_site_fract_z
Gd2 Gd 0.19417(2) 0.090860(19) 0.435800(9)
O13 O 0.2061(5) 0.3115(3) 0.4420(2)
O14 O 0.3814(4) 0.1502(4) 0.40003(18)
H1 H 0.0073 0.0337 0.1646
C3 C 0.0076(4) 0.0751(4) 0.24872(19)
O17 O 0.3514(3) 0.1330(3) 0.53164(14)
O18 O 0.0560(3) 0.1368(3) 0.49825(14)
H11 H 0.128911 0.341845 0.454976
H12 H 0.295397 0.335799 0.471832
H13 H 0.385494 0.23795 0.398728
H14 H 0.469879 0.119214 0.42786
O7 O 0.0560(3) 0.3632(3) 0.99825(14)
Gd5 Gd 0.19417(2) 0.409140(19) 0.935800(9)
O17_2 O 0.6486(3) 0.6330(3) 0.96836(14)
H10 H 0.562784 0.450548 0.997296
O8 O 0.0749(3) 0.5840(3) 0.94593(15)
O11 O 0.5716(3) 0.0552(2) 0.79977(13)
Gd4 Gd 0.613955(19) 0.185323(16) 0.725146(8)
Gd1 Gd 0.386045(19) 0.685323(16) 0.774854(8)
O1 O 0.2077(3) 0.7519(3) 0.68264(13)
O2 O 0.0090(4) 0.8345(3) 0.63075(15)
O5 O 0.4803(3) 0.6760(2) 0.88393(13)
O9 O 0.5550(3) 0.9778(2) 0.68829(13)
O10 O 0.4781(3) 0.8020(2) 0.70874(13)
O12 O 0.4761(4) 0.8846(3) 0.81631(14)
N1 N 0.1846(4) 0.8121(3) 0.79116(16)
N2 N 0.0337(4) 0.9281(3) 0.81422(16)
N3 N 0.6511(4) 0.6595(3) 0.81446(16)
N4 N 0.8764(4) 0.6291(4) 0.84085(17)
H2 H 0.9572 0.6186 0.8379
C1 C 0.1489(5) 0.8611(4) 0.8367(2)
C2 C 0.0866(4) 0.8515(4) 0.73813(19)
C4 C 0.2227(6) 0.8465(5) 0.9031(2)
H3 H 0.1755 0.8909 0.9256
H4 H 0.2240 0.7643 0.9137
H5 H 0.3156 0.8750 0.9126
C5 C 0.1007(5) 0.8104(4) 0.67967(19)
C7 C 0.7581(4) 0.6476(4) 0.79393(19)
C8 C 0.7030(4) 0.6489(4) 0.87664(18)
C9 C 0.8442(4) 0.6300(4) 0.89420(19)
C10 C 0.7557(5) 0.6525(5) 0.7296(2)
H6 H 0.8474 0.6411 0.7280
H7 H 0.6963 0.5913 0.7068
H8 H 0.7217 0.7283 0.7127
C11 C 0.6057(4) 0.6534(4) 0.91241(18)
C12 C 0.9610(4) 0.6150(4) 0.95182(19)
C13 C 0.5179(4) 0.9072(4) 0.72164(19)
C14 C 0.5234(4) 0.9535(4) 0.78498(19)
O16 O 0.1823(3) 0.5591(3) 0.75183(14)
O20 O 0.4450(3) 0.4778(2) 0.81171(13)
O21 O 0.4284(3) 0.5552(2) 0.70023(13)
O3 O 0.8451(3) 0.0105(3) 0.65974(13)
O4 O 0.8177(3) 0.0591(3) 0.74817(14)
O15 O 0.6384(3) 0.0718(3) 0.53455(16)
C6 C 0.8748(4) 0.0021(4) 0.71600(19)
O19 O 0.9251(3) 0.0840(3) 0.55407(15)
H9 H 0.599489 0.0876659 0.567689
H10_2 H 0.562784 0.0494516 0.497296
O3_2 O 0.1549(3) 0.5105(3) 0.84026(13)
O13_2 O 0.2061(5) 0.1885(3) 0.9420(2)
O14_2 O 0.3814(4) 0.3498(4) 0.90003(18)
O15_2 O 0.3616(3) 0.5718(3) 0.96545(16)
H1_2 H 0.0073 0.4663 0.6646
C3_2 C 0.0076(4) 0.4249(4) 0.74872(19)
C6_2 C 0.1252(4) 0.5021(4) 0.78400(19)
H9_2 H 0.400511 0.587666 0.932311
H11_2 H 0.128911 0.158155 0.954976
H12_2 H 0.295397 0.164201 0.971832
H13_2 H 0.385494 0.26205 0.898728
H14_2 H 0.469879 0.380786 0.92786
O1_2 O 0.7923(3) 0.2519(3) 0.81736(13)
O2_2 O 0.9910(4) 0.3345(3) 0.86925(15)
O5_2 O 0.5197(3) 0.1760(2) 0.61607(13)
O10_2 O 0.5219(3) 0.3020(2) 0.79126(13)
O12_2 O 0.5239(4) 0.3846(3) 0.68369(14)
N1_2 N 0.8154(4) 0.3121(3) 0.70884(16)
N2_2 N 0.9663(4) 0.4281(3) 0.68578(16)
N3_2 N 0.3489(4) 0.1595(3) 0.68554(16)
N4_2 N 0.1236(4) 0.1291(4) 0.65915(17)
H2_2 H 0.0428 0.1186 0.6621
C1_2 C 0.8511(5) 0.3611(4) 0.6633(2)
C2_2 C 0.9134(4) 0.3515(4) 0.76187(19)
C4_2 C 0.7773(6) 0.3465(5) 0.5969(2)
H3_2 H 0.8245 0.3909 0.5744
H4_2 H 0.7760 0.2643 0.5863
H5_2 H 0.6844 0.3750 0.5874
C5_2 C 0.8993(5) 0.3104(4) 0.82033(19)
C7_2 C 0.2419(4) 0.1476(4) 0.70607(19)
C8_2 C 0.2970(4) 0.1489(4) 0.62336(18)
C9_2 C 0.1558(4) 0.1300(4) 0.60580(19)
C10_2 C 0.2443(5) 0.1525(5) 0.7704(2)
H6_2 H 0.1526 0.1411 0.7720
H7_2 H 0.3037 0.0913 0.7932
H8_2 H 0.2783 0.2283 0.7873
C11_2 C 0.3943(4) 0.1534(4) 0.58759(18)
C12_2 C 0.0390(4) 0.1150(4) 0.54818(19)
C13_2 C 0.4821(4) 0.4072(4) 0.77836(19)
C14_2 C 0.4766(4) 0.4535(4) 0.71502(19)
O3_3 O 0.1549(3) 0.9895(3) 0.34026(13)
O4_2 O 0.1823(3) 0.9409(3) 0.25183(14)
O15_3 O 0.3616(3) 0.9282(3) 0.46545(16)
C6_3 C 0.1252(4) 0.9979(4) 0.28400(19)
Gd3 Gd 0.386045(19) 0.814677(16) 0.274854(8)
O19_2 O 0.0749(3) 0.9160(3) 0.44593(15)
H9_3 H 0.400511 0.912334 0.432311
H10_3 H 0.437216 0.950548 0.502704
Gd1_2 Gd 0.613955(19) 0.314677(16) 0.225146(8)
O1_3 O 0.7923(3) 0.2481(3) 0.31736(13)
O2_3 O 0.9910(4) 0.1655(3) 0.36925(15)
O5_3 O 0.5197(3) 0.3240(2) 0.11607(13)
O6 O 0.3514(3) 0.3670(3) 0.03164(14)
O9_2 O 0.4450(3) 0.0222(2) 0.31171(13)
O10_3 O 0.5219(3) 0.1980(2) 0.29126(13)
O12_3 O 0.5239(4) 0.1154(3) 0.18369(14)
N1_3 N 0.8154(4) 0.1879(3) 0.20884(16)
N2_3 N 0.9663(4) 0.0719(3) 0.18578(16)
N3_3 N 0.3489(4) 0.3405(3) 0.18554(16)
N4_3 N 0.1236(4) 0.3709(4) 0.15915(17)
H2_3 H 0.0428 0.3814 0.1621
C1_3 C 0.8511(5) 0.1389(4) 0.1633(2)
C2_3 C 0.9134(4) 0.1485(4) 0.26187(19)
C4_3 C 0.7773(6) 0.1535(5) 0.0969(2)
H3_3 H 0.8245 0.1091 0.0744
H4_3 H 0.7760 0.2357 0.0863
H5_3 H 0.6844 0.1250 0.0874
C5_3 C 0.8993(5) 0.1896(4) 0.32033(19)
C7_3 C 0.2419(4) 0.3524(4) 0.20607(19)
C8_3 C 0.2970(4) 0.3511(4) 0.12336(18)
C9_3 C 0.1558(4) 0.3700(4) 0.10580(19)
C10_3 C 0.2443(5) 0.3475(5) 0.2704(2)
H6_3 H 0.1526 0.3589 0.2720
H7_3 H 0.3037 0.4087 0.2932
H8_3 H 0.2783 0.2717 0.2873
C11_3 C 0.3943(4) 0.3466(4) 0.08759(18)
C12_3 C 0.0390(4) 0.3850(4) 0.04818(19)
C13_3 C 0.4821(4) 0.0928(4) 0.27836(19)
C14_3 C 0.4766(4) 0.0465(4) 0.21502(19)
O16_2 O 0.8177(3) 0.4409(3) 0.24817(14)
O20_2 O 0.5550(3) 0.5222(2) 0.18829(13)
O21_2 O 0.5716(3) 0.4448(2) 0.29977(13)
O11_2 O 0.4284(3) 0.9448(2) 0.20023(13)
O8_2 O 0.9251(3) 0.4160(3) 0.05407(15)
Gd6 Gd 0.80583(2) 0.590860(19) 0.064200(9)
O1_4 O 0.2077(3) 0.7481(3) 0.18264(13)
O2_4 O 0.0090(4) 0.6655(3) 0.13075(15)
O5_4 O 0.4803(3) 0.8240(2) 0.38393(13)
O6_2 O 0.6486(3) 0.8670(3) 0.46836(14)
O7_2 O 0.9440(3) 0.8632(3) 0.50175(14)
O10_4 O 0.4781(3) 0.6980(2) 0.20874(13)
O12_4 O 0.4761(4) 0.6154(3) 0.31631(14)
N1_4 N 0.1846(4) 0.6879(3) 0.29116(16)
N2_4 N 0.0337(4) 0.5719(3) 0.31422(16)
N3_4 N 0.6511(4) 0.8405(3) 0.31446(16)
N4_4 N 0.8764(4) 0.8709(4) 0.34085(17)
H2_4 H 0.9572 0.8814 0.3379
C1_4 C 0.1489(5) 0.6389(4) 0.3367(2)
C2_4 C 0.0866(4) 0.6485(4) 0.23813(19)
C4_4 C 0.2227(6) 0.6535(5) 0.4031(2)
H3_4 H 0.1755 0.6091 0.4256
H4_4 H 0.2240 0.7357 0.4137
H5_4 H 0.3156 0.6250 0.4126
C5_4 C 0.1007(5) 0.6896(4) 0.17967(19)
C7_4 C 0.7581(4) 0.8524(4) 0.29393(19)
C8_4 C 0.7030(4) 0.8511(4) 0.37664(18)
C9_4 C 0.8442(4) 0.8700(4) 0.39420(19)
C10_4 C 0.7557(5) 0.8475(5) 0.2296(2)
H6_4 H 0.8474 0.8589 0.2280
H7_4 H 0.6963 0.9087 0.2068
H8_4 H 0.7217 0.7717 0.2127
C11_4 C 0.6057(4) 0.8466(4) 0.41241(18)
C12_4 C 0.9610(4) 0.8850(4) 0.45182(19)
C13_4 C 0.5179(4) 0.5928(4) 0.22164(19)
C14_4 C 0.5234(4) 0.5465(4) 0.28498(19)
Gd5_2 Gd 0.80583(2) 0.909140(19) 0.564200(9)
O3_4 O 0.8451(3) 0.4895(3) 0.15974(13)
O13_3 O 0.7939(5) 0.8115(3) 0.0580(2)
O14_3 O 0.6186(4) 0.6502(4) 0.09997(18)
O15_4 O 0.6384(3) 0.4282(3) 0.03455(16)
H1_3 H 0.9927 0.5337 0.3354
C3_3 C 0.9924(4) 0.5751(4) 0.25128(19)
C6_4 C 0.8748(4) 0.4979(4) 0.21600(19)
O18_2 O 0.9440(3) 0.6368(3) 0.00175(14)
H9_4 H 0.599489 0.412334 0.0676889
H11_3 H 0.871089 0.841845 0.0450236
H12_3 H 0.704603 0.835799 0.0281684
H13_3 H 0.614506 0.73795 0.101272
H14_3 H 0.530121 0.619214 0.0721396
O13_4 O 0.7939(5) 0.6885(3) 0.5580(2)
O14_4 O 0.6186(4) 0.8498(4) 0.59997(18)
H1_4 H 0.9927 0.9663 0.8354
C3_4 C 0.9924(4) 0.9249(4) 0.75128(19)
H11_4 H 0.871089 0.658155 0.545024
H12_4 H 0.704603 0.664201 0.528168
H13_4 H 0.614506 0.76205 0.601272
H14_4 H 0.530121 0.880786 0.57214
H10_4 H 0.437216 0.549452 0.00270402
loop_
_geom_bond_atom_site_label_1
_geom_bond_atom_site_label_2
_geom_bond_site_symmetry_1
_geom_bond_site_symmetry_2
O13 Gd2 1_555 1_555
O14 Gd2 1_555 1_555
O17 Gd2 1_555 1_555
O18 Gd2 1_555 1_555
O13 H11 1_555 1_555
O13 H12 1_555 1_555
O14 H13 1_555 1_555
O14 H14 1_555 1_555
O7 Gd5 1_555 1_555
Gd5 O8 1_555 1_555
O11 Gd4 1_555 1_555
Gd1 O1 1_555 1_555
O1 C5 1_555 1_555
O2 C5 1_555 1_555
O5 Gd1 1_555 1_555
O17_2 C11 1_555 1_555
O9 C13 1_555 1_555
O10 Gd1 1_555 1_555
O12 Gd1 1_555 1_555
N1 Gd1 1_555 1_555
N3 Gd1 1_555 1_555
N4 H2 1_555 1_555
C1 N1 1_555 1_555
C2 N1 1_555 1_555
C4 C1 1_555 1_555
H3 C4 1_555 1_555
H4 C4 1_555 1_555
H5 C4 1_555 1_555
C5 C2 1_555 1_555
C7 N3 1_555 1_555
C8 N3 1_555 1_555
C9 N4 1_555 1_555
C10 C7 1_555 1_555
H6 C10 1_555 1_555
H7 C10 1_555 1_555
H8 C10 1_555 1_555
C11 O5 1_555 1_555
C12 C9 1_555 1_555
C13 O10 1_555 1_555
C14 O12 1_555 1_555
O16 Gd1 1_555 1_555
O20 Gd1 1_555 1_555
O21 Gd1 1_555 1_555
N2 C1 1_555 1_555
N4 C7 1_555 1_555
C8 C9 1_555 1_555
C8 C11 1_555 1_555
C13 C14 1_555 1_555
O4 C6 1_555 1_555
C6 O3 1_555 1_555
Gd4 O4 1_555 1_555
O15 H9 1_555 1_555
O15 H10_2 1_555 1_555
O3_2 Gd5 1_555 1_555
O16 C6_2 1_555 1_555
O13_2 Gd5 1_555 1_555
O14_2 Gd5 1_555 1_555
O15_2 Gd5 1_555 1_555
C6_2 O3_2 1_555 1_555
C3_2 C6_2 1_555 1_555
O15_2 H9_2 1_555 1_555
O13_2 H11_2 1_555 1_555
O13_2 H12_2 1_555 1_555
O14_2 H13_2 1_555 1_555
O14_2 H14_2 1_555 1_555
Gd4 O1_2 1_555 1_555
O1_2 C5_2 1_555 1_555
O2_2 C5_2 1_555 1_555
O5_2 Gd4 1_555 1_555
O17 C11_2 1_555 1_555
O18 C12_2 1_555 1_555
O20 C13_2 1_555 1_555
O10_2 Gd4 1_555 1_555
O21 C14_2 1_555 1_555
O12_2 Gd4 1_555 1_555
N1_2 Gd4 1_555 1_555
N3_2 Gd4 1_555 1_555
N4_2 H2_2 1_555 1_555
C1_2 N1_2 1_555 1_555
C2_2 N1_2 1_555 1_555
C4_2 C1_2 1_555 1_555
H3_2 C4_2 1_555 1_555
H4_2 C4_2 1_555 1_555
H5_2 C4_2 1_555 1_555
C5_2 C2_2 1_555 1_555
C7_2 N3_2 1_555 1_555
C8_2 N3_2 1_555 1_555
C9_2 N4_2 1_555 1_555
C10_2 C7_2 1_555 1_555
H6_2 C10_2 1_555 1_555
H7_2 C10_2 1_555 1_555
H8_2 C10_2 1_555 1_555
C11_2 O5_2 1_555 1_555
C12_2 C9_2 1_555 1_555
C13_2 O10_2 1_555 1_555
C14_2 O12_2 1_555 1_555
N2_2 C1_2 1_555 1_555
N4_2 C7_2 1_555 1_555
C8_2 C9_2 1_555 1_555
C8_2 C11_2 1_555 1_555
C13_2 C14_2 1_555 1_555
O4_2 C6_3 1_555 1_555
C6_3 O3_3 1_555 1_555
Gd3 O4_2 1_555 1_555
O15_3 H9_3 1_555 1_555
O15_3 H10_3 1_555 1_555
Gd1_2 O1_3 1_555 1_555
O1_3 C5_3 1_555 1_555
O2_3 C5_3 1_555 1_555
O5_3 Gd1_2 1_555 1_555
O6 C11_3 1_555 1_555
O9_2 C13_3 1_555 1_555
O10_3 Gd1_2 1_555 1_555
O12_3 Gd1_2 1_555 1_555
N1_3 Gd1_2 1_555 1_555
N3_3 Gd1_2 1_555 1_555
N4_3 H2_3 1_555 1_555
C1_3 N1_3 1_555 1_555
C2_3 N1_3 1_555 1_555
C4_3 C1_3 1_555 1_555
H3_3 C4_3 1_555 1_555
H4_3 C4_3 1_555 1_555
H5_3 C4_3 1_555 1_555
C5_3 C2_3 1_555 1_555
C7_3 N3_3 1_555 1_555
C8_3 N3_3 1_555 1_555
C9_3 N4_3 1_555 1_555
C10_3 C7_3 1_555 1_555
H6_3 C10_3 1_555 1_555
H7_3 C10_3 1_555 1_555
H8_3 C10_3 1_555 1_555
C11_3 O5_3 1_555 1_555
C12_3 C9_3 1_555 1_555
C13_3 O10_3 1_555 1_555
C14_3 O12_3 1_555 1_555
O16_2 Gd1_2 1_555 1_555
O20_2 Gd1_2 1_555 1_555
O21_2 Gd1_2 1_555 1_555
N2_3 C1_3 1_555 1_555
N4_3 C7_3 1_555 1_555
C8_3 C9_3 1_555 1_555
C8_3 C11_3 1_555 1_555
C13_3 C14_3 1_555 1_555
O11_2 Gd3 1_555 1_555
Gd6 O8_2 1_555 1_555
Gd3 O1_4 1_555 1_555
O1_4 C5_4 1_555 1_555
O2_4 C5_4 1_555 1_555
O5_4 Gd3 1_555 1_555
O6_2 C11_4 1_555 1_555
O7_2 C12_4 1_555 1_555
O20_2 C13_4 1_555 1_555
O10_4 Gd3 1_555 1_555
O21_2 C14_4 1_555 1_555
O12_4 Gd3 1_555 1_555
N1_4 Gd3 1_555 1_555
N3_4 Gd3 1_555 1_555
N4_4 H2_4 1_555 1_555
C1_4 N1_4 1_555 1_555
C2_4 N1_4 1_555 1_555
C4_4 C1_4 1_555 1_555
H3_4 C4_4 1_555 1_555
H4_4 C4_4 1_555 1_555
H5_4 C4_4 1_555 1_555
C5_4 C2_4 1_555 1_555
C7_4 N3_4 1_555 1_555
C8_4 N3_4 1_555 1_555
C9_4 N4_4 1_555 1_555
C10_4 C7_4 1_555 1_555
H6_4 C10_4 1_555 1_555
H7_4 C10_4 1_555 1_555
H8_4 C10_4 1_555 1_555
C11_4 O5_4 1_555 1_555
C12_4 C9_4 1_555 1_555
C13_4 O10_4 1_555 1_555
C14_4 O12_4 1_555 1_555
Gd5_2 O6_2 1_555 1_555
O7_2 Gd5_2 1_555 1_555
N2_4 C1_4 1_555 1_555
N4_4 C7_4 1_555 1_555
C8_4 C9_4 1_555 1_555
C8_4 C11_4 1_555 1_555
C13_4 C14_4 1_555 1_555
O3_4 Gd6 1_555 1_555
O16_2 C6_4 1_555 1_555
O13_3 Gd6 1_555 1_555
O14_3 Gd6 1_555 1_555
O15_4 Gd6 1_555 1_555
C6_4 O3_4 1_555 1_555
O18_2 Gd6 1_555 1_555
C3_3 C6_4 1_555 1_555
O15_4 H9_4 1_555 1_555
O13_3 H11_3 1_555 1_555
O13_3 H12_3 1_555 1_555
O14_3 H13_3 1_555 1_555
O14_3 H14_3 1_555 1_555
O13_4 Gd5_2 1_555 1_555
O14_4 Gd5_2 1_555 1_555
O13_4 H11_4 1_555 1_555
O13_4 H12_4 1_555 1_555
O14_4 H13_4 1_555 1_555
O14_4 H14_4 1_555 1_555

#END
