
###############################################################################
#
# This file contains modified crystal structure data generated from the
# MOF subset of the Cambridge Structural Database (CSD) v543 
# hosted by the Cambridge Crystallographic Data Centre (CCDC).
#
# This work is licensed under the Creative Commons
# Attribution-NonCommercial-ShareAlike 4.0 International License.
# To view a copy of this license, visit
# http://creativecommons.org/licenses/by-nc-sa/4.0/
# or send a letter to
# Creative Commons, PO Box 1866, Mountain View, CA 94042, USA.
#
# CIF created using the CSD Python API on 29 September 2022
# The structure has been converted into the P1 space group
# The structure has a 3D framework
# The original CSD entry TEJGIA is in the monoclinic crystal system
# The framework has been calculated to contain at least 10.0% void space
# The void calculation uses a probe of radius 1.32A, grid spacing 0.4
# H atom positions have been added when not included in the experimental data
#
###############################################################################

data_TEJGIA
_chemical_formula_moiety         '(C56 H56 N16 O56 Sm8)n'
_symmetry_cell_setting           triclinic
_symmetry_space_group_name_H-M   'P 1'
_symmetry_Int_Tables_number      1
_space_group_name_Hall           'P 1'
loop_
_symmetry_equiv_pos_site_id
_symmetry_equiv_pos_as_xyz
1 x,y,z
_cell_length_a                   10.2815(2)
_cell_length_b                   11.2928(3)
_cell_length_c                   23.2652(5)
_cell_angle_alpha                90
_cell_angle_beta                 108.526(1)
_cell_angle_gamma                90
_cell_volume                     2561.27
loop_
_atom_site_label
_atom_site_type_symbol
_atom_site_fract_x
_atom_site_fract_y
_atom_site_fract_z
O1 O 0.1803(4) 0.0593(3) 0.25064(16)
O2 O 0.1548(4) 0.0112(3) 0.33939(15)
C5 C 0.1247(5) 0.0027(4) 0.2831(2)
Sm3 Sm 0.38400(2) 0.186310(19) 0.274180(10)
H1 H 0.0067 0.9673 0.1639
C2 C 0.0088(5) 0.9252(4) 0.2487(2)
Sm5 Sm 0.19613(3) 0.91173(2) 0.435710(10)
O9 O 0.4295(4) 0.0552(3) 0.19904(15)
Sm1 Sm 0.61600(2) 0.686310(19) 0.225820(10)
O3 O 0.9944(4) 0.8329(4) 0.36893(16)
O4 O 0.7946(4) 0.7561(3) 0.31806(15)
O7 O 0.3525(4) 0.6268(4) 0.03256(15)
O8 O 0.5179(3) 0.6766(3) 0.11608(14)
O10 O 0.5279(4) 0.8866(3) 0.18410(15)
O11 O 0.4435(4) 0.9786(3) 0.31086(15)
O12 O 0.5227(4) 0.8038(3) 0.29163(15)
N1 N 0.9669(5) 0.9285(4) 0.18545(19)
N2 N 0.8184(5) 0.8124(4) 0.20888(18)
N3 N 0.1257(4) 0.6293(4) 0.16039(19)
H2 H 0.0454 0.6191 0.1636
N4 N 0.3499(4) 0.6596(4) 0.18651(17)
C1 C 0.8542(6) 0.8612(5) 0.1637(2)
C3 C 0.9154(5) 0.8513(4) 0.2619(2)
C4 C 0.7809(7) 0.8474(6) 0.0973(3)
H3 H 0.8278 0.8920 0.0748
H4 H 0.6886 0.8761 0.0881
H5 H 0.7792 0.7653 0.0864
C6 C 0.9014(5) 0.8111(4) 0.3204(2)
C7 C 0.2432(5) 0.6480(5) 0.2072(2)
C8 C 0.1570(5) 0.6293(5) 0.1067(2)
C9 C 0.2966(5) 0.6481(4) 0.1239(2)
C10 C 0.2452(6) 0.6542(6) 0.2712(2)
H6 H 0.1540 0.6424 0.2729
H7 H 0.2782 0.7304 0.2877
H8 H 0.3045 0.5936 0.2943
C11 C 0.0421(5) 0.6145(4) 0.0492(2)
C12 C 0.3939(5) 0.6513(4) 0.0882(2)
C13 C 0.4795(5) 0.9541(4) 0.2145(2)
C14 C 0.4823(5) 0.9083(4) 0.2782(2)
O16 O 0.8197(4) 0.5593(3) 0.24936(16)
O20 O 0.5705(4) 0.5552(3) 0.30096(15)
O21 O 0.5565(4) 0.4786(3) 0.18914(15)
Sm2 Sm 0.19613(3) 0.58827(2) 0.935710(10)
O6 O 0.0597(4) 0.6373(4) 0.99930(15)
O13 O 0.2169(6) 0.8083(4) 0.9429(2)
O14 O 0.3884(5) 0.6459(4) 0.9020(2)
O15 O 0.3598(4) 0.4206(3) 0.96609(18)
O17 O 0.1548(4) 0.4888(3) 0.83939(15)
O19 O 0.0706(4) 0.4156(3) 0.94524(17)
H9 H 0.258729 0.83172 0.985993
H10 H 0.275791 0.836233 0.919092
H11 H 0.308865 0.346848 0.96814
H12 H 0.408629 0.410741 0.935795
H13 H 0.473374 0.649291 0.93741
H14 H 0.400048 0.586874 0.872378
O5 O 0.9294(4) 0.5844(3) 0.05476(17)
Sm6 Sm 0.80387(3) 0.41173(2) 0.064290(10)
O18 O 0.9944(4) 0.6671(4) 0.86893(16)
O5_2 O 0.0706(4) 0.0844(3) 0.44524(17)
O18_2 O 0.0056(4) 0.1671(4) 0.63107(16)
Sm2_2 Sm 0.80387(3) 0.08827(2) 0.564290(10)
O3_2 O 0.0056(4) 0.3329(4) 0.13107(16)
O4_2 O 0.2054(4) 0.2561(3) 0.18194(15)
O6_2 O 0.9403(4) 0.1373(4) 0.50070(15)
O7_2 O 0.6475(4) 0.1268(4) 0.46744(15)
O8_2 O 0.4821(3) 0.1766(3) 0.38392(14)
O10_2 O 0.4721(4) 0.3866(3) 0.31590(15)
O12_2 O 0.4773(4) 0.3038(3) 0.20837(15)
O13_2 O 0.7831(6) 0.3083(4) 0.5571(2)
O14_2 O 0.6116(5) 0.1459(4) 0.5980(2)
N1_2 N 0.0331(5) 0.4285(4) 0.31455(19)
N2_2 N 0.1816(5) 0.3124(4) 0.29112(18)
N3_2 N 0.8743(4) 0.1293(4) 0.33961(19)
H2_2 H 0.9546 0.1191 0.3364
N4_2 N 0.6501(4) 0.1596(4) 0.31349(17)
C1_2 C 0.1458(6) 0.3612(5) 0.3363(2)
C3_2 C 0.0846(5) 0.3513(4) 0.2381(2)
C4_2 C 0.2191(7) 0.3474(6) 0.4027(3)
H3_2 H 0.1722 0.3920 0.4252
H4_2 H 0.3114 0.3761 0.4119
H5_2 H 0.2208 0.2653 0.4136
C6_2 C 0.0986(5) 0.3111(4) 0.1796(2)
C7_2 C 0.7568(5) 0.1480(5) 0.2928(2)
C8_2 C 0.8430(5) 0.1293(5) 0.3933(2)
C9_2 C 0.7034(5) 0.1481(4) 0.3761(2)
C10_2 C 0.7548(6) 0.1542(6) 0.2288(2)
H6_2 H 0.8460 0.1424 0.2271
H7_2 H 0.7218 0.2304 0.2123
H8_2 H 0.6955 0.0936 0.2057
C11_2 C 0.9579(5) 0.1145(4) 0.4508(2)
C12_2 C 0.6061(5) 0.1513(4) 0.4118(2)
C13_2 C 0.5205(5) 0.4541(4) 0.2855(2)
C14_2 C 0.5177(5) 0.4083(4) 0.2218(2)
H9_2 H 0.741271 0.33172 0.514007
H10_2 H 0.724209 0.336233 0.580908
H13_2 H 0.526626 0.149291 0.56259
H14_2 H 0.599952 0.0868744 0.627622
O15_2 O 0.6402(4) 0.9206(3) 0.53391(18)
O17_2 O 0.8452(4) 0.9888(3) 0.66061(15)
O19_2 O 0.9294(4) 0.9156(3) 0.55476(17)
H11_2 H 0.691135 0.846848 0.53186
H12_2 H 0.591371 0.910741 0.564205
O2_2 O 0.8452(4) 0.5112(3) 0.16061(15)
H1_2 H 0.9933 0.4673 0.3361
C2_2 C 0.9912(5) 0.4252(4) 0.2513(2)
C5_2 C 0.8753(5) 0.5027(4) 0.2169(2)
O6_3 O 0.9403(4) 0.3627(4) 0.00070(15)
O13_3 O 0.7831(6) 0.1917(4) 0.0571(2)
O14_3 O 0.6116(5) 0.3541(4) 0.0980(2)
O15_3 O 0.6402(4) 0.5794(3) 0.03391(18)
H9_3 H 0.741271 0.16828 0.0140071
H10_3 H 0.724209 0.163767 0.0809081
H11_3 H 0.691135 0.653152 0.03186
H12_3 H 0.591371 0.589259 0.0642045
H13_3 H 0.526626 0.350709 0.0625901
H14_3 H 0.599952 0.413126 0.127622
Sm1_2 Sm 0.38400(2) 0.313690(19) 0.774180(10)
O4_3 O 0.2054(4) 0.2439(3) 0.68194(15)
O7_3 O 0.6475(4) 0.3732(4) 0.96744(15)
O8_3 O 0.4821(3) 0.3234(3) 0.88392(14)
O10_3 O 0.4721(4) 0.1134(3) 0.81590(15)
O11_2 O 0.5565(4) 0.0214(3) 0.68914(15)
O12_3 O 0.4773(4) 0.1962(3) 0.70837(15)
N1_3 N 0.0331(5) 0.0715(4) 0.81455(19)
N2_3 N 0.1816(5) 0.1876(4) 0.79112(18)
N3_3 N 0.8743(4) 0.3707(4) 0.83961(19)
H2_3 H 0.9546 0.3809 0.8364
N4_3 N 0.6501(4) 0.3404(4) 0.81349(17)
C1_3 C 0.1458(6) 0.1388(5) 0.8363(2)
C3_3 C 0.0846(5) 0.1487(4) 0.7381(2)
C4_3 C 0.2191(7) 0.1526(6) 0.9027(3)
H3_3 H 0.1722 0.1080 0.9252
H4_3 H 0.3114 0.1239 0.9119
H5_3 H 0.2208 0.2347 0.9136
C6_3 C 0.0986(5) 0.1889(4) 0.6796(2)
C7_3 C 0.7568(5) 0.3520(5) 0.7928(2)
C8_3 C 0.8430(5) 0.3707(5) 0.8933(2)
C9_3 C 0.7034(5) 0.3519(4) 0.8761(2)
C10_3 C 0.7548(6) 0.3458(6) 0.7288(2)
H6_3 H 0.8460 0.3576 0.7271
H7_3 H 0.7218 0.2696 0.7123
H8_3 H 0.6955 0.4064 0.7057
C11_3 C 0.9579(5) 0.3855(4) 0.9508(2)
C12_3 C 0.6061(5) 0.3487(4) 0.9118(2)
C13_3 C 0.5205(5) 0.0459(4) 0.7855(2)
C14_3 C 0.5177(5) 0.0917(4) 0.7218(2)
O16_2 O 0.1803(4) 0.4407(3) 0.75064(16)
O20_2 O 0.4295(4) 0.4448(3) 0.69904(15)
O21_2 O 0.4435(4) 0.5214(3) 0.81086(15)
O9_2 O 0.5705(4) 0.9448(3) 0.80096(15)
Sm4 Sm 0.61600(2) 0.813690(19) 0.725820(10)
H1_3 H 0.9933 0.0327 0.8361
C2_3 C 0.9912(5) 0.0748(4) 0.7513(2)
O1_2 O 0.8197(4) 0.9407(3) 0.74936(16)
C5_3 C 0.8753(5) 0.9973(4) 0.7169(2)
H1_4 H 0.0067 0.5327 0.6639
C2_4 C 0.0088(5) 0.5748(4) 0.7487(2)
C5_4 C 0.1247(5) 0.4973(4) 0.7831(2)
O15_4 O 0.3598(4) 0.0794(3) 0.46609(18)
H11_4 H 0.308865 0.153152 0.46814
H12_4 H 0.408629 0.0892588 0.435795
O4_4 O 0.7946(4) 0.7439(3) 0.81806(15)
O6_4 O 0.0597(4) 0.8627(4) 0.49930(15)
O7_4 O 0.3525(4) 0.8732(4) 0.53256(15)
O8_4 O 0.5179(3) 0.8234(3) 0.61608(14)
O10_4 O 0.5279(4) 0.6134(3) 0.68410(15)
O12_4 O 0.5227(4) 0.6962(3) 0.79163(15)
O13_4 O 0.2169(6) 0.6917(4) 0.4429(2)
O14_4 O 0.3884(5) 0.8541(4) 0.4020(2)
N1_4 N 0.9669(5) 0.5715(4) 0.68545(19)
N2_4 N 0.8184(5) 0.6876(4) 0.70888(18)
N3_4 N 0.1257(4) 0.8707(4) 0.66039(19)
H2_4 H 0.0454 0.8809 0.6636
N4_4 N 0.3499(4) 0.8404(4) 0.68651(17)
C1_4 C 0.8542(6) 0.6388(5) 0.6637(2)
C3_4 C 0.9154(5) 0.6487(4) 0.7619(2)
C4_4 C 0.7809(7) 0.6526(6) 0.5973(3)
H3_4 H 0.8278 0.6080 0.5748
H4_4 H 0.6886 0.6239 0.5881
H5_4 H 0.7792 0.7347 0.5864
C6_4 C 0.9014(5) 0.6889(4) 0.8204(2)
C7_4 C 0.2432(5) 0.8520(5) 0.7072(2)
C8_4 C 0.1570(5) 0.8707(5) 0.6067(2)
C9_4 C 0.2966(5) 0.8519(4) 0.6239(2)
C10_4 C 0.2452(6) 0.8458(6) 0.7712(2)
H6_4 H 0.1540 0.8576 0.7729
H7_4 H 0.2782 0.7696 0.7877
H8_4 H 0.3045 0.9064 0.7943
C11_4 C 0.0421(5) 0.8855(4) 0.5492(2)
C12_4 C 0.3939(5) 0.8487(4) 0.5882(2)
C13_4 C 0.4795(5) 0.5459(4) 0.7145(2)
C14_4 C 0.4823(5) 0.5917(4) 0.7782(2)
H9_4 H 0.258729 0.66828 0.485993
H10_4 H 0.275791 0.663767 0.419092
H13_4 H 0.473374 0.850709 0.43741
H14_4 H 0.400048 0.913126 0.372378
loop_
_geom_bond_atom_site_label_1
_geom_bond_atom_site_label_2
_geom_bond_site_symmetry_1
_geom_bond_site_symmetry_2
O1 C5 1_555 1_555
O2 C5 1_555 1_555
Sm3 O1 1_555 1_555
Sm3 O9 1_555 1_555
Sm1 O4 1_555 1_555
O3 C6 1_555 1_555
O4 C6 1_555 1_555
O8 Sm1 1_555 1_555
O10 Sm1 1_555 1_555
O11 C14 1_555 1_555
O12 Sm1 1_555 1_555
N2 Sm1 1_555 1_555
N3 H2 1_555 1_555
N4 Sm1 1_555 1_555
C1 N1 1_555 1_555
C3 N2 1_555 1_555
C4 C1 1_555 1_555
H3 C4 1_555 1_555
H4 C4 1_555 1_555
H5 C4 1_555 1_555
C6 C3 1_555 1_555
C7 N3 1_555 1_555
C8 N3 1_555 1_555
C9 N4 1_555 1_555
C10 C7 1_555 1_555
H6 C10 1_555 1_555
H7 C10 1_555 1_555
H8 C10 1_555 1_555
C11 C8 1_555 1_555
C12 O7 1_555 1_555
C13 O10 1_555 1_555
C14 O12 1_555 1_555
O16 Sm1 1_555 1_555
O20 Sm1 1_555 1_555
O21 Sm1 1_555 1_555
O8 C12 1_555 1_555
N2 C1 1_555 1_555
N4 C7 1_555 1_555
C8 C9 1_555 1_555
C9 C12 1_555 1_555
C13 C14 1_555 1_555
Sm2 O6 1_555 1_555
O13 Sm2 1_555 1_555
O14 Sm2 1_555 1_555
O15 Sm2 1_555 1_555
O17 Sm2 1_555 1_555
O19 Sm2 1_555 1_555
O13 H9 1_555 1_555
O13 H10 1_555 1_555
O15 H11 1_555 1_555
O15 H12 1_555 1_555
O14 H13 1_555 1_555
O14 H14 1_555 1_555
Sm6 O5 1_555 1_555
Sm3 O4_2 1_555 1_555
Sm2_2 O6_2 1_555 1_555
O3_2 C6_2 1_555 1_555
O4_2 C6_2 1_555 1_555
O6_2 C11_2 1_555 1_555
O7_2 Sm2_2 1_555 1_555
O8_2 Sm3 1_555 1_555
O20 C13_2 1_555 1_555
O10_2 Sm3 1_555 1_555
O21 C14_2 1_555 1_555
O12_2 Sm3 1_555 1_555
O13_2 Sm2_2 1_555 1_555
O14_2 Sm2_2 1_555 1_555
N2_2 Sm3 1_555 1_555
N3_2 H2_2 1_555 1_555
N4_2 Sm3 1_555 1_555
C1_2 N1_2 1_555 1_555
C3_2 N2_2 1_555 1_555
C4_2 C1_2 1_555 1_555
H3_2 C4_2 1_555 1_555
H4_2 C4_2 1_555 1_555
H5_2 C4_2 1_555 1_555
C6_2 C3_2 1_555 1_555
C7_2 N3_2 1_555 1_555
C8_2 N3_2 1_555 1_555
C9_2 N4_2 1_555 1_555
C10_2 C7_2 1_555 1_555
H6_2 C10_2 1_555 1_555
H7_2 C10_2 1_555 1_555
H8_2 C10_2 1_555 1_555
C11_2 C8_2 1_555 1_555
C12_2 O7_2 1_555 1_555
C13_2 O10_2 1_555 1_555
C14_2 O12_2 1_555 1_555
O8_2 C12_2 1_555 1_555
N2_2 C1_2 1_555 1_555
N4_2 C7_2 1_555 1_555
C8_2 C9_2 1_555 1_555
C9_2 C12_2 1_555 1_555
C13_2 C14_2 1_555 1_555
O13_2 H9_2 1_555 1_555
O13_2 H10_2 1_555 1_555
O14_2 H13_2 1_555 1_555
O14_2 H14_2 1_555 1_555
O15_2 H11_2 1_555 1_555
O15_2 H12_2 1_555 1_555
O16 C5_2 1_555 1_555
O2_2 C5_2 1_555 1_555
C5_2 C2_2 1_555 1_555
Sm6 O2_2 1_555 1_555
Sm6 O6_3 1_555 1_555
O13_3 Sm6 1_555 1_555
O14_3 Sm6 1_555 1_555
O15_3 Sm6 1_555 1_555
O13_3 H9_3 1_555 1_555
O13_3 H10_3 1_555 1_555
O15_3 H11_3 1_555 1_555
O15_3 H12_3 1_555 1_555
O14_3 H13_3 1_555 1_555
O14_3 H14_3 1_555 1_555
Sm1_2 O4_3 1_555 1_555
O18_2 C6_3 1_555 1_555
O4_3 C6_3 1_555 1_555
O8_3 Sm1_2 1_555 1_555
O10_3 Sm1_2 1_555 1_555
O11_2 C14_3 1_555 1_555
O12_3 Sm1_2 1_555 1_555
N2_3 Sm1_2 1_555 1_555
N3_3 H2_3 1_555 1_555
N4_3 Sm1_2 1_555 1_555
C1_3 N1_3 1_555 1_555
C3_3 N2_3 1_555 1_555
C4_3 C1_3 1_555 1_555
H3_3 C4_3 1_555 1_555
H4_3 C4_3 1_555 1_555
H5_3 C4_3 1_555 1_555
C6_3 C3_3 1_555 1_555
C7_3 N3_3 1_555 1_555
C8_3 N3_3 1_555 1_555
C9_3 N4_3 1_555 1_555
C10_3 C7_3 1_555 1_555
H6_3 C10_3 1_555 1_555
H7_3 C10_3 1_555 1_555
H8_3 C10_3 1_555 1_555
C11_3 C8_3 1_555 1_555
C12_3 O7_3 1_555 1_555
C13_3 O10_3 1_555 1_555
C14_3 O12_3 1_555 1_555
O16_2 Sm1_2 1_555 1_555
O20_2 Sm1_2 1_555 1_555
O21_2 Sm1_2 1_555 1_555
O8_3 C12_3 1_555 1_555
N2_3 C1_3 1_555 1_555
N4_3 C7_3 1_555 1_555
C8_3 C9_3 1_555 1_555
C9_3 C12_3 1_555 1_555
C13_3 C14_3 1_555 1_555
Sm4 O9_2 1_555 1_555
O1_2 C5_3 1_555 1_555
O17_2 C5_3 1_555 1_555
Sm4 O1_2 1_555 1_555
O16_2 C5_4 1_555 1_555
O17 C5_4 1_555 1_555
C5_4 C2_4 1_555 1_555
O15_4 H11_4 1_555 1_555
O15_4 H12_4 1_555 1_555
Sm4 O4_4 1_555 1_555
Sm5 O6_4 1_555 1_555
O18 C6_4 1_555 1_555
O4_4 C6_4 1_555 1_555
O6_4 C11_4 1_555 1_555
O7_4 Sm5 1_555 1_555
O8_4 Sm4 1_555 1_555
O20_2 C13_4 1_555 1_555
O10_4 Sm4 1_555 1_555
O21_2 C14_4 1_555 1_555
O12_4 Sm4 1_555 1_555
O13_4 Sm5 1_555 1_555
O14_4 Sm5 1_555 1_555
N2_4 Sm4 1_555 1_555
N3_4 H2_4 1_555 1_555
N4_4 Sm4 1_555 1_555
C1_4 N1_4 1_555 1_555
C3_4 N2_4 1_555 1_555
C4_4 C1_4 1_555 1_555
H3_4 C4_4 1_555 1_555
H4_4 C4_4 1_555 1_555
H5_4 C4_4 1_555 1_555
C6_4 C3_4 1_555 1_555
C7_4 N3_4 1_555 1_555
C8_4 N3_4 1_555 1_555
C9_4 N4_4 1_555 1_555
C10_4 C7_4 1_555 1_555
H6_4 C10_4 1_555 1_555
H7_4 C10_4 1_555 1_555
H8_4 C10_4 1_555 1_555
C11_4 C8_4 1_555 1_555
C12_4 O7_4 1_555 1_555
C13_4 O10_4 1_555 1_555
C14_4 O12_4 1_555 1_555
O8_4 C12_4 1_555 1_555
N2_4 C1_4 1_555 1_555
N4_4 C7_4 1_555 1_555
C8_4 C9_4 1_555 1_555
C9_4 C12_4 1_555 1_555
C13_4 C14_4 1_555 1_555
O13_4 H9_4 1_555 1_555
O13_4 H10_4 1_555 1_555
O14_4 H13_4 1_555 1_555
O14_4 H14_4 1_555 1_555

#END
